
###############################################################################
#
# This file contains modified crystal structure data generated from the
# MOF subset of the Cambridge Structural Database (CSD) v543 
# hosted by the Cambridge Crystallographic Data Centre (CCDC).
#
# This work is licensed under the Creative Commons
# Attribution-NonCommercial-ShareAlike 4.0 International License.
# To view a copy of this license, visit
# http://creativecommons.org/licenses/by-nc-sa/4.0/
# or send a letter to
# Creative Commons, PO Box 1866, Mountain View, CA 94042, USA.
#
# CIF created using the CSD Python API on 29 September 2022
# The structure has been converted into the P1 space group
# The structure has a 3D framework
# The original CSD entry OVEDUP is in the triclinic crystal system
# The framework has been calculated to contain at least 10.0% void space
# The void calculation uses a probe of radius 1.32A, grid spacing 0.4
# H atom positions have been added when not included in the experimental data
#
###############################################################################

data_OVEDUP
_chemical_formula_moiety         '(C288 H144 N12 O68 S12 Zn10)n'
_symmetry_cell_setting           triclinic
_symmetry_space_group_name_H-M   'P 1'
_symmetry_Int_Tables_number      1
_space_group_name_Hall           'P 1'
loop_
_symmetry_equiv_pos_site_id
_symmetry_equiv_pos_as_xyz
1 x,y,z
_cell_length_a                   17.830
_cell_length_b                   23.277
_cell_length_c                   24.071
_cell_angle_alpha                95.14
_cell_angle_beta                 90.32
_cell_angle_gamma                102.22
_cell_volume                     9721.45
loop_
_atom_site_label
_atom_site_type_symbol
_atom_site_fract_x
_atom_site_fract_y
_atom_site_fract_z
O7 O 0.18260(15) 0.63391(12) 0.02777(10)
O8 O 0.21337(16) 0.73163(12) 0.02445(10)
C15 C 0.1789(2) 0.68525(19) 0.04485(15)
C16 C 0.1319(2) 0.69491(17) 0.09529(15)
C17 C 0.0905(3) 0.64767(19) 0.11983(16)
H7 H 0.0896 0.6092 0.1051
C18 C 0.1321(3) 0.75243(19) 0.11761(17)
H8 H 0.1598 0.7842 0.1004
C19 C 0.0501(3) 0.65880(18) 0.16691(17)
C20 C 0.0913(3) 0.7628(2) 0.16528(18)
H9 H 0.0913 0.8011 0.1799
C21 C 0.0507(3) 0.71510(19) 0.19064(16)
O10 O 0.0367(4) 0.5725(2) 0.2298(2)
C22 C 0.0061(2) 0.71680(19) 0.24110(17)
H10 H 0.0156 0.8032 0.2655
C33 C 0.0105(2) 0.71098(17) 0.66871(16)
C35 C 0.0110(3) 0.65173(19) 0.67839(18)
S3 S 0.06063(7) 0.75988(5) 0.72358(4)
O15 O 0.01033(18) 0.79047(13) 0.75538(12)
O16 O 0.13042(17) 0.79468(13) 0.70351(12)
C36 C 0.0504(2) 0.64693(18) 0.73061(16)
C37 C 0.0809(2) 0.70253(18) 0.76032(16)
C38 C 0.0604(2) 0.59622(18) 0.75336(17)
H16 H 0.0418 0.5590 0.7348
C39 C 0.1200(2) 0.70819(18) 0.81017(16)
H17 H 0.1394 0.7453 0.8286
C40 C 0.0985(2) 0.60265(19) 0.80407(16)
H18 H 0.1034 0.5687 0.8201
C41 C 0.1303(2) 0.65745(18) 0.83292(15)
C42 C 0.1760(2) 0.6627(2) 0.88602(16)
O17 O 0.20674(16) 0.71414(12) 0.90531(11)
O18 O 0.18259(15) 0.61549(12) 0.90618(10)
Zn7 Zn 0.29199(2) 0.748980(19) 0.964450(16)
Zn10 Zn 0.25898(3) 0.618340(19) 0.969580(17)
O29 O 0.34062(17) 0.64789(14) 0.03091(11)
O25 O 0.34231(16) 0.64273(13) 0.91240(10)
N6 N 0.2617(2) 0.53314(16) 0.96742(15)
C62 C 0.7876(3) 0.0192(2) 0.4818(2)
C63 C 0.7870(3) 0.0691(2) 0.4799(3)
C64 C 0.7842(3) 0.1301(2) 0.4776(2)
C65 C 0.7373(3) 0.1577(2) 0.5128(2)
H26 H 0.7086 0.1366 0.5394
C66 C 0.8262(3) 0.1621(2) 0.4371(2)
H27 H 0.8562 0.1439 0.4127
C67 C 0.7332(3) 0.2146(2) 0.5088(2)
H28 H 0.7018 0.2325 0.5322
C68 C 0.8233(3) 0.2199(2) 0.4331(2)
H29 H 0.8521 0.2414 0.4069
C69 C 0.7768(3) 0.2461(2) 0.4691(2)
C70 C 0.7726(3) 0.3068(2) 0.4640(2)
C71 C 0.7701(3) 0.3568(2) 0.4602(2)
C72 C 0.7642(3) 0.41700(19) 0.4571(2)
C73 C 0.7221(3) 0.4441(3) 0.4935(3)
H30 H 0.6955 0.4242 0.5216
C74 C 0.8083(6) 0.4510(3) 0.4206(3)
H31 H 0.8435 0.4363 0.3980
C75 C 0.7200(3) 0.5018(2) 0.4874(3)
H32 H 0.6887 0.5191 0.5114
C76 C 0.7978(5) 0.5089(2) 0.4189(2)
H33 H 0.8227 0.5308 0.3914
N2 N 0.75644(19) 0.53361(14) 0.45237(13)
C82 C 0.2807(3) 0.0149(2) 0.9641(3)
C83 C 0.2814(3) 0.0656(2) 0.9622(2)
C84 C 0.2802(3) 0.1263(2) 0.9587(2)
C85 C 0.3244(4) 0.1575(2) 0.9196(2)
H38 H 0.3558 0.1395 0.8962
C86 C 0.2356(3) 0.1541(2) 0.9938(2)
C87 C 0.3209(4) 0.2152(3) 0.9160(3)
H40 H 0.3473 0.2355 0.8880
C88 C 0.2332(3) 0.2121(2) 0.9906(3)
C89 C 0.2797(4) 0.2436(2) 0.9523(3)
C90 C 0.2781(5) 0.3062(3) 0.9511(4)
C91 C 0.2743(4) 0.3527(3) 0.9604(3)
C92 C 0.2685(4) 0.4122(2) 0.9622(3)
C93 C 0.2460(10) 0.4363(4) 0.9255(4)
H42 H 0.2386 0.4157 0.8903
C95 C 0.2296(6) 0.4932(4) 0.9314(4)
H44 H 0.1931 0.5015 0.9073
Zn5 Zn 0.75726(3) 0.620860(18) 0.453710(16)
O30 O 0.37248(16) 0.74564(13) 0.02368(11)
Zn1 Zn 0.79588(2) 0.752240(18) 0.481270(16)
O1 O 0.71908(16) 0.72686(12) 0.54063(10)
O2 O 0.69188(17) 0.62921(12) 0.52158(11)
C1 C 0.6879(2) 0.6759(2) 0.54968(15)
C2 C 0.6395(2) 0.66875(18) 0.60126(16)
C3 C 0.6228(2) 0.7178(2) 0.63091(16)
H1 H 0.6399 0.7554 0.6194
C4 C 0.6130(3) 0.6139(2) 0.61919(18)
H2 H 0.6249 0.5813 0.5988
C5 C 0.5799(2) 0.7096(2) 0.67815(16)
C6 C 0.5689(3) 0.6051(2) 0.66695(18)
H3 H 0.5508 0.5673 0.6778
C7 C 0.5535(3) 0.6534(2) 0.69695(18)
S1 S 0.55230(8) 0.76518(6) 0.72317(5)
O3 O 0.5024(2) 0.79340(15) 0.69469(14)
O4 O 0.6184(2) 0.80245(14) 0.75281(13)
C8 C 0.5083(3) 0.6559(2) 0.74787(17)
C9 C 0.5019(2) 0.71408(19) 0.76636(16)
C10 C 0.4753(3) 0.6102(2) 0.77757(19)
H4 H 0.4804 0.5720 0.7664
C11 C 0.4595(2) 0.7265(2) 0.81242(16)
H5 H 0.4542 0.7647 0.8235
C12 C 0.4336(3) 0.6215(2) 0.82500(18)
H6 H 0.4115 0.5907 0.8456
C13 C 0.4251(2) 0.6785(2) 0.84143(17)
C14 C 0.3742(2) 0.6882(2) 0.88984(16)
O5 O 0.36662(16) 0.74005(13) 0.90374(11)
S2 S 0.99029(13) 0.60598(6) 0.20490(7)
O9 O 0.9212(3) 0.5749(2) 0.17338(18)
C23 C 0.9712(3) 0.66106(19) 0.25517(18)
C24 C 0.9932(3) 0.76532(19) 0.27398(17)
C25 C 0.9255(3) 0.65215(19) 0.30120(17)
H11 H 0.9024 0.6143 0.3094
C26 C 0.9466(3) 0.75717(19) 0.31976(17)
H12 H 0.9362 0.7899 0.3409
C27 C 0.9153(2) 0.70139(18) 0.33464(16)
C28 C 0.8657(2) 0.69420(19) 0.38466(16)
O11 O 0.83075(15) 0.64204(12) 0.39130(10)
O12 O 0.86239(16) 0.73954(12) 0.41486(10)
O13 O 0.87933(16) 0.74475(12) 0.53587(10)
O14 O 0.85143(16) 0.64755(12) 0.50878(10)
C29 C 0.8852(2) 0.6921(2) 0.53956(16)
C30 C 0.9335(2) 0.67911(19) 0.58710(17)
C31 C 0.9718(2) 0.72499(18) 0.62374(16)
H13 H 0.9715 0.7640 0.6184
C32 C 0.9358(3) 0.6210(2) 0.59499(18)
H14 H 0.9109 0.5908 0.5692
C34 C 0.9739(3) 0.6075(2) 0.63980(18)
H15 H 0.9748 0.5684 0.6442
O19 O 0.67381(15) 0.63468(12) 0.40239(10)
O20 O 0.70534(17) 0.73175(13) 0.42457(11)
C43 C 0.6714(2) 0.6868(2) 0.39556(16)
C44 C 0.6248(2) 0.69730(18) 0.34638(16)
C45 C 0.5846(3) 0.6501(2) 0.31140(18)
H19 H 0.5821 0.6113 0.3191
C46 C 0.6261(3) 0.7543(2) 0.33448(19)
H20 H 0.6523 0.7857 0.3585
C47 C 0.5487(3) 0.6629(2) 0.26517(19)
C48 C 0.5885(3) 0.7655(2) 0.2865(2)
H21 H 0.5901 0.8042 0.2789
C49 C 0.5497(3) 0.71971(19) 0.25102(17)
S4 S 0.49570(17) 0.61093(7) 0.21312(9)
O21 O 0.5538(5) 0.5806(3) 0.1823(2)
O22 O 0.4320(5) 0.5782(2) 0.2320(3)
C50 C 0.5097(3) 0.7223(2) 0.19874(18)
C51 C 0.4752(3) 0.6664(2) 0.1731(2)
C52 C 0.5025(3) 0.7727(2) 0.17250(19)
C53 C 0.4349(3) 0.6573(2) 0.1228(2)
C54 C 0.4607(3) 0.7639(2) 0.12103(19)
C55 C 0.4259(2) 0.7068(2) 0.09793(16)
C56 C 0.3754(2) 0.6994(2) 0.04641(16)
N1 N 0.7994(2) 0.83934(15) 0.48410(14)
C57 C 0.8171(6) 0.8685(3) 0.4450(4)
H22 H 0.8381 0.8507 0.4145
C58 C 0.7672(9) 0.8652(4) 0.5119(5)
H23 H 0.7326 0.8435 0.5349
C59 C 0.8088(6) 0.9268(3) 0.4417(4)
H24 H 0.8162 0.9428 0.4076
C60 C 0.7715(10) 0.9264(4) 0.5171(6)
H25 H 0.7568 0.9428 0.5509
C61 C 0.7917(3) 0.9586(2) 0.4830(3)
N3 N 0.28865(18) 0.83523(14) 0.96367(14)
C77 C 0.3418(4) 0.8723(2) 0.9405(3)
H34 H 0.3816 0.8577 0.9237
C78 C 0.2296(3) 0.8565(2) 0.9828(2)
H35 H 0.1882 0.8304 0.9962
C79 C 0.3430(4) 0.9307(3) 0.9393(3)
H36 H 0.3827 0.9550 0.9223
C80 C 0.2259(3) 0.9147(2) 0.9840(3)
H37 H 0.1835 0.9274 0.9988
C81 C 0.2837(3) 0.9533(2) 0.9639(3)
H94 H 0.455504 0.801883 0.0991263
H95 H 0.52818 0.816925 0.191129
H96 H 0.411188 0.612978 0.103516
H39 H 0.2065 0.1330 0.0202
H41 H 0.2012 0.2301 0.0135
C94 C 0.2829(10) 0.4484(4) 0.0029(5)
H43 H 0.3069 0.4375 0.0335
C96 C 0.2661(9) 0.5060(3) 0.0077(4)
H45 H 0.2582 0.5234 0.0429
Zn8 Zn 0.70801(2) 0.251020(19) 0.035550(16)
Zn11 Zn 0.74102(3) 0.381660(19) 0.030420(17)
Zn1_2 Zn 0.20412(2) 0.247760(18) 0.518730(16)
Zn2 Zn 0.24274(3) 0.379140(18) 0.546290(16)
O1_2 O 0.28092(16) 0.27314(12) 0.45937(10)
O2_2 O 0.30812(17) 0.37079(12) 0.47842(11)
C1_2 C 0.3121(2) 0.3241(2) 0.45032(15)
C2_2 C 0.3605(2) 0.33125(18) 0.39874(16)
C3_2 C 0.3772(2) 0.2822(2) 0.36909(16)
H1_2 H 0.3601 0.2446 0.3806
C4_2 C 0.3870(3) 0.3861(2) 0.38081(18)
H2_2 H 0.3751 0.4187 0.4012
C5_2 C 0.4201(2) 0.2904(2) 0.32185(16)
C6_2 C 0.4311(3) 0.3949(2) 0.33305(18)
H3_2 H 0.4492 0.4327 0.3222
C7_2 C 0.4465(3) 0.3466(2) 0.30305(18)
S1_2 S 0.44770(8) 0.23482(6) 0.27683(5)
O3_2 O 0.4976(2) 0.20660(15) 0.30531(14)
O4_2 O 0.3816(2) 0.19755(14) 0.24719(13)
C8_2 C 0.4917(3) 0.3441(2) 0.25213(17)
C9_2 C 0.4981(2) 0.28592(19) 0.23364(16)
C10_2 C 0.5247(3) 0.3898(2) 0.22243(19)
H4_2 H 0.5196 0.4280 0.2336
C11_2 C 0.5405(2) 0.2735(2) 0.18758(16)
H5_2 H 0.5458 0.2353 0.1765
C12_2 C 0.5664(3) 0.3785(2) 0.17500(18)
H6_2 H 0.5885 0.4093 0.1544
C13_2 C 0.5749(2) 0.3215(2) 0.15857(17)
C14_2 C 0.6258(2) 0.3118(2) 0.11016(16)
O5_2 O 0.63338(16) 0.25995(13) 0.09626(11)
O6 O 0.65769(16) 0.35727(13) 0.08760(10)
S2_2 S 0.00971(13) 0.39402(6) 0.79510(7)
O9_2 O 0.0788(3) 0.4251(2) 0.82662(18)
C23_2 C 0.0288(3) 0.33894(19) 0.74483(18)
C24_2 C 0.0068(3) 0.23468(19) 0.72602(17)
C25_2 C 0.0745(3) 0.34785(19) 0.69880(17)
H11_2 H 0.0976 0.3857 0.6906
C26_2 C 0.0534(3) 0.24283(19) 0.68024(17)
H12_2 H 0.0638 0.2101 0.6591
C27_2 C 0.0847(2) 0.29861(18) 0.66536(16)
C28_2 C 0.1343(2) 0.30580(19) 0.61534(16)
O11_2 O 0.16925(15) 0.35796(12) 0.60870(10)
O12_2 O 0.13761(16) 0.26046(12) 0.58514(10)
O13_2 O 0.12067(16) 0.25525(12) 0.46413(10)
O14_2 O 0.14857(16) 0.35245(12) 0.49122(10)
C29_2 C 0.1148(2) 0.3079(2) 0.46044(16)
C30_2 C 0.0665(2) 0.32089(19) 0.41290(17)
C31_2 C 0.0282(2) 0.27501(18) 0.37626(16)
H13_2 H 0.0285 0.2360 0.3816
C32_2 C 0.0642(3) 0.3790(2) 0.40501(18)
H14_2 H 0.0891 0.4092 0.4308
C34_2 C 0.0261(3) 0.3925(2) 0.36020(18)
H15_2 H 0.0252 0.4316 0.3558
O19_2 O 0.32619(15) 0.36532(12) 0.59761(10)
O20_2 O 0.29466(17) 0.26825(13) 0.57543(11)
C43_2 C 0.3286(2) 0.3132(2) 0.60444(16)
C44_2 C 0.3752(2) 0.30270(18) 0.65362(16)
C45_2 C 0.4154(3) 0.3499(2) 0.68860(18)
H19_2 H 0.4179 0.3887 0.6809
C46_2 C 0.3739(3) 0.2457(2) 0.66552(19)
H20_2 H 0.3477 0.2143 0.6415
C47_2 C 0.4513(3) 0.3371(2) 0.73483(19)
C48_2 C 0.4115(3) 0.2345(2) 0.7135(2)
H21_2 H 0.4099 0.1958 0.7211
C49_2 C 0.4503(3) 0.28029(19) 0.74898(17)
S4_2 S 0.50430(17) 0.38907(7) 0.78688(9)
O21_2 O 0.4462(5) 0.4194(3) 0.8177(2)
O22_2 O 0.5680(5) 0.4218(2) 0.7680(3)
C50_2 C 0.4903(3) 0.2777(2) 0.80126(18)
C51_2 C 0.5248(3) 0.3336(2) 0.8269(2)
C52_2 C 0.4975(3) 0.2273(2) 0.82750(19)
C53_2 C 0.5651(3) 0.3427(2) 0.8772(2)
C54_2 C 0.5393(3) 0.2361(2) 0.87897(19)
C55_2 C 0.5741(2) 0.2932(2) 0.90207(16)
C56_2 C 0.6246(2) 0.3006(2) 0.95359(16)
O23 O 0.65938(17) 0.35211(14) 0.96909(11)
O24 O 0.62752(16) 0.25436(13) 0.97632(11)
N1_2 N 0.2006(2) 0.16066(15) 0.51590(14)
C57_2 C 0.1829(6) 0.1315(3) 0.5550(4)
H22_2 H 0.1619 0.1493 0.5855
C58_2 C 0.2328(9) 0.1348(4) 0.4881(5)
H23_2 H 0.2674 0.1565 0.4651
C59_2 C 0.1912(6) 0.0732(3) 0.5583(4)
H24_2 H 0.1838 0.0572 0.5924
C60_2 C 0.2285(10) 0.0736(4) 0.4829(6)
H25_2 H 0.2432 0.0572 0.4491
C61_2 C 0.2083(3) 0.0414(2) 0.5170(3)
N3_2 N 0.71135(18) 0.16477(14) 0.03633(14)
C77_2 C 0.6582(4) 0.1277(2) 0.0595(3)
H34_2 H 0.6184 0.1423 0.0763
C78_2 C 0.7704(3) 0.1435(2) 0.0172(2)
H35_2 H 0.8118 0.1696 0.0038
C79_2 C 0.6570(4) 0.0693(3) 0.0607(3)
H36_2 H 0.6173 0.0450 0.0777
C80_2 C 0.7741(3) 0.0853(2) 0.0160(3)
H37_2 H 0.8165 0.0726 0.0012
C81_2 C 0.7163(3) 0.0467(2) 0.0361(3)
O27 O 0.79326(16) 0.28586(12) 0.09469(11)
N5 N 0.24356(19) 0.46639(14) 0.54763(13)
H94_2 H 0.544496 0.198117 0.900874
H95_2 H 0.47182 0.183075 0.808871
H96_2 H 0.588812 0.387022 0.896484
O26 O 0.78663(16) 0.26837(12) 0.97555(10)
C62_2 C 0.2124(3) 0.9808(2) 0.5182(2)
C63_2 C 0.2130(3) 0.9309(2) 0.5201(3)
C64_2 C 0.2158(3) 0.8699(2) 0.5224(2)
C65_2 C 0.2627(3) 0.8423(2) 0.4872(2)
H26_2 H 0.2914 0.8634 0.4606
C66_2 C 0.1738(3) 0.8379(2) 0.5629(2)
H27_2 H 0.1438 0.8561 0.5873
C67_2 C 0.2668(3) 0.7854(2) 0.4912(2)
H28_2 H 0.2982 0.7675 0.4678
C68_2 C 0.1767(3) 0.7801(2) 0.5669(2)
H29_2 H 0.1479 0.7586 0.5931
C69_2 C 0.2232(3) 0.7539(2) 0.5309(2)
C70_2 C 0.2274(3) 0.6932(2) 0.5360(2)
C71_2 C 0.2299(3) 0.6432(2) 0.5398(2)
C72_2 C 0.2358(3) 0.58300(19) 0.5429(2)
C73_2 C 0.2779(3) 0.5559(3) 0.5065(3)
H30_2 H 0.3045 0.5758 0.4784
C74_2 C 0.1917(6) 0.5490(3) 0.5794(3)
H31_2 H 0.1565 0.5637 0.6020
C75_2 C 0.2800(3) 0.4982(2) 0.5126(3)
H32_2 H 0.3113 0.4809 0.4886
C76_2 C 0.2022(5) 0.4911(2) 0.5811(2)
H33_2 H 0.1773 0.4692 0.6086
C82_2 C 0.7193(3) 0.9851(2) 0.0359(3)
C83_2 C 0.7186(3) 0.9344(2) 0.0378(2)
C84_2 C 0.7198(3) 0.8737(2) 0.0413(2)
C85_2 C 0.6756(4) 0.8425(2) 0.0804(2)
H38_2 H 0.6442 0.8605 0.1038
C86_2 C 0.7644(3) 0.8459(2) 0.0062(2)
C87_2 C 0.6791(4) 0.7848(3) 0.0840(3)
H40_2 H 0.6527 0.7645 0.1120
C88_2 C 0.7668(3) 0.7879(2) 0.0094(3)
C89_2 C 0.7203(4) 0.7564(2) 0.0477(3)
C90_2 C 0.7219(5) 0.6938(3) 0.0489(4)
C91_2 C 0.7257(4) 0.6473(3) 0.0396(3)
C92_2 C 0.7315(4) 0.5878(2) 0.0378(3)
C93_2 C 0.7540(10) 0.5637(4) 0.0745(4)
H42_2 H 0.7614 0.5843 0.1097
C95_2 C 0.7704(6) 0.5068(4) 0.0686(4)
H44_2 H 0.8069 0.4985 0.0927
N4 N 0.7383(2) 0.46686(16) 0.03258(15)
O28 O 0.81741(15) 0.38451(12) 0.09382(10)
O7_2 O 0.81740(15) 0.36609(12) 0.97223(10)
C15_2 C 0.8211(2) 0.31475(19) 0.95515(15)
C16_2 C 0.8681(2) 0.30509(17) 0.90471(15)
C17_2 C 0.9095(3) 0.35233(19) 0.88017(16)
H7_2 H 0.9104 0.3908 0.8949
C18_2 C 0.8679(3) 0.24757(19) 0.88239(17)
H8_2 H 0.8402 0.2158 0.8996
C19_2 C 0.9499(3) 0.34120(18) 0.83309(17)
C20_2 C 0.9087(3) 0.2372(2) 0.83472(18)
H9_2 H 0.9087 0.1989 0.8201
C21_2 C 0.9493(3) 0.28490(19) 0.80936(16)
O10_2 O 0.9633(4) 0.4275(2) 0.7702(2)
C22_2 C 0.9939(2) 0.28320(19) 0.75890(17)
H10_2 H 0.9844 0.1968 0.7345
C33_2 C 0.9895(2) 0.28902(17) 0.33129(16)
C35_2 C 0.9890(3) 0.34827(19) 0.32161(18)
S3_2 S 0.93937(7) 0.24012(5) 0.27642(4)
O15_2 O 0.98967(18) 0.20953(13) 0.24462(12)
O16_2 O 0.86958(17) 0.20532(13) 0.29649(12)
C36_2 C 0.9496(2) 0.35307(18) 0.26939(16)
C37_2 C 0.9191(2) 0.29747(18) 0.23968(16)
C38_2 C 0.9396(2) 0.40378(18) 0.24664(17)
H16_2 H 0.9582 0.4410 0.2652
C39_2 C 0.8800(2) 0.29181(18) 0.18983(16)
H17_2 H 0.8606 0.2547 0.1714
C40_2 C 0.9015(2) 0.39735(19) 0.19593(16)
H18_2 H 0.8966 0.4313 0.1799
C41_2 C 0.8697(2) 0.34255(18) 0.16708(15)
C42_2 C 0.8240(2) 0.3373(2) 0.11398(16)
H39_2 H 0.7935 0.8670 0.9798
H41_2 H 0.7988 0.7699 0.9865
C94_2 C 0.7171(10) 0.5516(4) 0.9971(5)
H43_2 H 0.6931 0.5625 0.9665
C96_2 C 0.7339(9) 0.4940(3) 0.9923(4)
H45_2 H 0.7418 0.4766 0.9571
N7 N 0.02047(18) 0.15303(13) 0.00535(12)
C126 C 0.0085(4) 0.1814(2) 0.0519(2)
H59 H 0.0023 0.1610 0.0836
C128 C 0.0046(4) 0.2397(2) 0.0575(2)
C129 C 0.0143(3) 0.27121(18) 0.01215(18)
C130 C 0.0109(3) 0.3320(2) 0.01474(19)
C131 C 0.0080(3) 0.3825(2) 0.01247(19)
C132 C 0.0033(2) 0.44217(18) 0.00689(19)
Zn22 Zn 0.51853(2) 0.065360(18) 0.513630(16)
O44 O 0.09962(15) 0.05902(11) 0.05492(10)
C145 C 0.1048(2) 0.01292(18) 0.07629(15)
C146 C 0.1526(2) 0.02004(19) 0.12890(16)
C148 C 0.1889(3) 0.07500(18) 0.15275(17)
H71 H 0.1854 0.1083 0.1351
C150 C 0.2301(3) 0.08139(19) 0.20196(19)
H72 H 0.2553 0.1188 0.2169
C151 C 0.2345(3) 0.03297(18) 0.22929(17)
C152 C 0.2741(3) 0.03046(18) 0.28227(17)
C154 C 0.3136(3) 0.07671(19) 0.31767(19)
H73 H 0.3159 0.1155 0.3101
C156 C 0.3499(3) 0.06437(19) 0.36473(18)
H75 H 0.3770 0.0955 0.3887
C157 C 0.3469(2) 0.00634(18) 0.37748(15)
O48 O 0.42842(16) 0.04050(12) 0.45618(10)
Zn13 Zn 0.01775(2) 0.065170(18) 0.998370(16)
O37 O 0.44169(15) 0.04275(12) 0.57322(10)
C113 C 0.3424(3) 0.03331(18) 0.66110(16)
H52 H 0.3649 0.0711 0.6523
C115 C 0.2959(3) 0.02479(18) 0.70572(18)
S6 S 0.26995(9) 0.07966(5) 0.75214(6)
O39 O 0.3350(2) 0.11460(13) 0.78324(13)
O40 O 0.2234(3) 0.11100(16) 0.72369(15)
C119 C 0.2133(3) 0.02700(19) 0.79258(18)
C121 C 0.1741(2) 0.03916(18) 0.83967(17)
H56 H 0.1739 0.0779 0.8531
C124 C 0.0897(2) 0.00161(18) 0.91721(15)
O41 O 0.08729(15) 0.05331(11) 0.93351(10)
C125 C 0.0344(3) 0.18378(18) 0.96139(18)
H58 H 0.0463 0.1649 0.9279
C127 C 0.0320(3) 0.24211(19) 0.96333(19)
H60 H 0.0424 0.2622 0.9316
C133 C 0.0325(3) 0.4680(2) 0.9609(2)
H62 H 0.0555 0.4466 0.9341
H85 H 0.0047 0.7423 0.9079
C182 C 0.0286(3) 0.5255(2) 0.9534(2)
H87 H 0.0476 0.5421 0.9213
Zn17 Zn 0.48147(2) 0.934640(18) 0.486370(16)
O43 O 0.07181(15) 0.96134(11) 0.05815(10)
C147 C 0.1583(2) 0.97011(18) 0.15535(16)
H70 H 0.1351 0.9326 0.1396
C149 C 0.1981(3) 0.97738(18) 0.20422(16)
S7 S 0.21232(8) 0.92126(5) 0.24590(5)
O45 O 0.1414(2) 0.89320(14) 0.26913(13)
O46 O 0.2568(2) 0.88430(14) 0.21707(13)
C153 C 0.2693(2) 0.97221(17) 0.29582(17)
C155 C 0.3046(2) 0.95980(18) 0.34296(16)
H74 H 0.3002 0.9210 0.3514
C158 C 0.3945(2) 0.99666(18) 0.42540(15)
O47 O 0.39905(15) 0.94382(12) 0.43108(10)
O50 O 0.57158(16) 0.95950(12) 0.54382(10)
O53 O 0.55831(15) 0.95725(12) 0.42678(10)
O56 O 0.41352(15) 0.94415(11) 0.55135(10)
N12 N 0.47774(19) 0.84697(13) 0.48524(13)
C111 C 0.4073(2) 0.9910(2) 0.58044(15)
C112 C 0.3548(2) 0.98389(19) 0.62944(15)
C114 C 0.3208(3) 0.9276(2) 0.64331(19)
H53 H 0.3291 0.8947 0.6213
C116 C 0.2756(4) 0.9200(2) 0.6887(2)
H54 H 0.2544 0.8822 0.6982
C117 C 0.2612(3) 0.9693(2) 0.7207(2)
C118 C 0.2153(3) 0.9712(2) 0.7703(2)
C120 C 0.1763(3) 0.9232(2) 0.7976(2)
H55 H 0.1768 0.8846 0.7841
C122 C 0.1372(3) 0.9350(2) 0.8450(2)
H57 H 0.1113 0.9035 0.8634
C123 C 0.1349(3) 0.99199(18) 0.86644(16)
O42 O 0.05822(15) 0.95612(11) 0.93966(10)
H61 H 0.9953 0.2577 0.0921
C134 C 0.9714(3) 0.4745(2) 0.0466(2)
H63 H 0.9524 0.4579 0.0787
Zn16 Zn 0.98225(2) 0.934830(18) 0.001630(16)
O54 O 0.58648(15) 0.05585(11) 0.44865(10)
C159 C 0.5927(2) 0.0090(2) 0.41956(15)
C160 C 0.6452(2) 0.01611(19) 0.37056(15)
C162 C 0.6792(3) 0.0724(2) 0.35669(19)
H77 H 0.6709 0.1053 0.3787
C164 C 0.7244(4) 0.0800(2) 0.3113(2)
H78 H 0.7456 0.1178 0.3018
C165 C 0.7388(3) 0.0307(2) 0.2793(2)
C166 C 0.7847(3) 0.0288(2) 0.2297(2)
C168 C 0.8237(3) 0.0768(2) 0.2024(2)
H79 H 0.8232 0.1154 0.2159
C170 C 0.8628(3) 0.0650(2) 0.1550(2)
H81 H 0.8887 0.0965 0.1366
C171 C 0.8651(3) 0.00801(18) 0.13356(16)
O60 O 0.94178(15) 0.04388(11) 0.06034(10)
C173 C 0.9656(3) 0.81622(18) 0.03861(18)
H82 H 0.9537 0.8351 0.0721
C175 C 0.9680(3) 0.75789(19) 0.03667(19)
H84 H 0.9576 0.7378 0.0684
C181 C 0.9675(3) 0.5320(2) 0.0391(2)
H86 H 0.9445 0.5534 0.0659
O31 O 0.92819(15) 0.03866(11) 0.94185(10)
C99 C 0.8417(2) 0.02989(18) 0.84465(16)
H46 H 0.8649 0.0674 0.8604
C101 C 0.8019(3) 0.02262(18) 0.79578(16)
S5 S 0.78768(8) 0.07874(5) 0.75410(5)
O33 O 0.8586(2) 0.10680(14) 0.73087(13)
O34 O 0.7432(2) 0.11570(14) 0.78293(13)
C105 C 0.7307(2) 0.02779(17) 0.70418(17)
C107 C 0.6954(2) 0.04020(18) 0.65704(16)
H50 H 0.6998 0.0790 0.6486
C110 C 0.6055(2) 0.00334(18) 0.57460(15)
O35 O 0.60095(15) 0.05618(12) 0.56892(10)
N8 N 0.52226(19) 0.15303(13) 0.51476(13)
C135 C 0.5200(3) 0.1874(2) 0.5587(2)
H64 H 0.5201 0.1727 0.5934
C136 C 0.5312(3) 0.1781(2) 0.4648(2)
H65 H 0.5393 0.1552 0.4326
C137 C 0.5174(4) 0.2470(2) 0.5562(2)
H66 H 0.5174 0.2705 0.5896
C138 C 0.5285(3) 0.2368(2) 0.4616(2)
H67 H 0.5354 0.2535 0.4278
C139 C 0.5151(3) 0.27071(19) 0.5109(2)
C140 C 0.5121(3) 0.3310(2) 0.5072(2)
C141 C 0.5083(3) 0.3815(2) 0.5062(2)
C142 C 0.5046(3) 0.4414(2) 0.5041(3)
C143 C 0.4726(3) 0.4712(2) 0.5467(3)
H68 H 0.4540 0.4523 0.5779
C144 C 0.5316(3) 0.4695(2) 0.4574(2)
H69 H 0.5526 0.4490 0.4287
N9 N 0.97953(18) 0.84697(13) 0.99465(12)
C174 C 0.9915(4) 0.8186(2) 0.9481(2)
H83 H 0.9977 0.8390 0.9164
C176 C 0.9954(4) 0.7603(2) 0.9425(2)
C177 C 0.9857(3) 0.72879(18) 0.98785(18)
C178 C 0.9891(3) 0.6680(2) 0.98526(19)
C179 C 0.9920(3) 0.6175(2) 0.98753(19)
C180 C 0.9967(2) 0.55783(18) 0.99311(19)
C183 C 0.4800(3) 0.8126(2) 0.4413(2)
H88 H 0.4799 0.8273 0.4066
C184 C 0.4688(3) 0.8219(2) 0.5352(2)
H89 H 0.4607 0.8448 0.5674
C185 C 0.4826(4) 0.7530(2) 0.4438(2)
H90 H 0.4826 0.7295 0.4104
C186 C 0.4715(3) 0.7632(2) 0.5384(2)
H91 H 0.4646 0.7465 0.5722
C187 C 0.4849(3) 0.72929(19) 0.4891(2)
C188 C 0.4879(3) 0.6690(2) 0.4928(2)
C189 C 0.4917(3) 0.6185(2) 0.4938(2)
C190 C 0.4954(3) 0.5586(2) 0.4959(3)
C191 C 0.5274(3) 0.5288(2) 0.4533(3)
H92 H 0.5460 0.5477 0.4221
C192 C 0.4684(3) 0.5305(2) 0.5426(2)
H93 H 0.4474 0.5510 0.5713
C161 C 0.6576(3) 0.96669(18) 0.33890(16)
H76 H 0.6351 0.9289 0.3477
C163 C 0.7041(3) 0.97521(18) 0.29428(18)
S8 S 0.73005(9) 0.92034(5) 0.24786(6)
O57 O 0.6650(2) 0.88540(13) 0.21676(13)
O58 O 0.7766(3) 0.88900(16) 0.27631(15)
C167 C 0.7867(3) 0.97300(19) 0.20742(18)
C169 C 0.8259(2) 0.96084(18) 0.16033(17)
H80 H 0.8261 0.9221 0.1469
C172 C 0.9103(2) 0.99839(18) 0.08279(15)
O59 O 0.91271(15) 0.94669(11) 0.06649(10)
O32 O 0.90038(15) 0.94098(11) 0.94508(10)
C97 C 0.8952(2) 0.98708(18) 0.92371(15)
C98 C 0.8474(2) 0.97996(19) 0.87110(16)
C100 C 0.8111(3) 0.92500(18) 0.84725(17)
H47 H 0.8146 0.8917 0.8649
C102 C 0.7699(3) 0.91861(19) 0.79804(19)
H48 H 0.7447 0.8812 0.7831
C103 C 0.7655(3) 0.96703(18) 0.77071(17)
C104 C 0.7259(3) 0.96954(18) 0.71773(17)
C106 C 0.6864(3) 0.92329(19) 0.68233(19)
H49 H 0.6841 0.8845 0.6899
C108 C 0.6501(3) 0.93563(19) 0.63527(18)
H51 H 0.6230 0.9045 0.6113
C109 C 0.6531(2) 0.99366(18) 0.62252(15)
loop_
_geom_bond_atom_site_label_1
_geom_bond_atom_site_label_2
_geom_bond_site_symmetry_1
_geom_bond_site_symmetry_2
O7 C15 1_555 1_555
O8 C15 1_555 1_555
C15 C16 1_555 1_555
C16 C17 1_555 1_555
C17 H7 1_555 1_555
C18 C16 1_555 1_555
H8 C18 1_555 1_555
C19 C17 1_555 1_555
C20 C18 1_555 1_555
H9 C20 1_555 1_555
C21 C19 1_555 1_555
C22 C21 1_555 1_555
C35 C33 1_555 1_555
S3 C33 1_555 1_555
O15 S3 1_555 1_555
O16 S3 1_555 1_555
C36 C35 1_555 1_555
C37 S3 1_555 1_555
C38 C36 1_555 1_555
H16 C38 1_555 1_555
C39 C37 1_555 1_555
H17 C39 1_555 1_555
C40 C38 1_555 1_555
H18 C40 1_555 1_555
C41 C39 1_555 1_555
C42 C41 1_555 1_555
O17 C42 1_555 1_555
O18 C42 1_555 1_555
Zn7 O17 1_555 1_555
Zn10 O18 1_555 1_555
C20 C21 1_555 1_555
C36 C37 1_555 1_555
C40 C41 1_555 1_555
O25 Zn10 1_555 1_555
N6 Zn10 1_555 1_555
C63 C62 1_555 1_555
C64 C63 1_555 1_555
C65 C64 1_555 1_555
H26 C65 1_555 1_555
C66 C64 1_555 1_555
H27 C66 1_555 1_555
C67 C65 1_555 1_555
H28 C67 1_555 1_555
C68 C66 1_555 1_555
H29 C68 1_555 1_555
C69 C67 1_555 1_555
C70 C69 1_555 1_555
C71 C70 1_555 1_555
C72 C71 1_555 1_555
C73 C72 1_555 1_555
H30 C73 1_555 1_555
C74 C72 1_555 1_555
H31 C74 1_555 1_555
C75 C73 1_555 1_555
H32 C75 1_555 1_555
C76 C74 1_555 1_555
H33 C76 1_555 1_555
N2 C75 1_555 1_555
C83 C82 1_555 1_555
C84 C83 1_555 1_555
C85 C84 1_555 1_555
H38 C85 1_555 1_555
C86 C84 1_555 1_555
C87 C85 1_555 1_555
H40 C87 1_555 1_555
C88 C86 1_555 1_555
C89 C87 1_555 1_555
C90 C89 1_555 1_555
C91 C90 1_555 1_555
C92 C91 1_555 1_555
C93 C92 1_555 1_555
H42 C93 1_555 1_555
C95 C93 1_555 1_555
H44 C95 1_555 1_555
N6 C95 1_555 1_555
Zn5 N2 1_555 1_555
C68 C69 1_555 1_555
C76 N2 1_555 1_555
C88 C89 1_555 1_555
Zn1 O1 1_555 1_555
Zn5 O2 1_555 1_555
Zn7 O5 1_555 1_555
O1 C1 1_555 1_555
O2 C1 1_555 1_555
C1 C2 1_555 1_555
C2 C3 1_555 1_555
C3 H1 1_555 1_555
C4 C2 1_555 1_555
H2 C4 1_555 1_555
C5 C3 1_555 1_555
C6 C4 1_555 1_555
H3 C6 1_555 1_555
C7 C5 1_555 1_555
S1 C5 1_555 1_555
O3 S1 1_555 1_555
O4 S1 1_555 1_555
C8 C7 1_555 1_555
C9 S1 1_555 1_555
C10 C8 1_555 1_555
H4 C10 1_555 1_555
C11 C9 1_555 1_555
H5 C11 1_555 1_555
C12 C10 1_555 1_555
H6 C12 1_555 1_555
C13 C11 1_555 1_555
C14 C13 1_555 1_555
O5 C14 1_555 1_555
O25 C14 1_555 1_555
O9 S2 1_555 1_555
C23 S2 1_555 1_555
C25 C23 1_555 1_555
H11 C25 1_555 1_555
C26 C24 1_555 1_555
H12 C26 1_555 1_555
C27 C25 1_555 1_555
C28 C27 1_555 1_555
O11 Zn5 1_555 1_555
O12 Zn1 1_555 1_555
O13 Zn1 1_555 1_555
O14 Zn5 1_555 1_555
C29 O13 1_555 1_555
C30 C29 1_555 1_555
C31 C30 1_555 1_555
H13 C31 1_555 1_555
C32 C30 1_555 1_555
H14 C32 1_555 1_555
C34 C32 1_555 1_555
H15 C34 1_555 1_555
O19 Zn5 1_555 1_555
O20 Zn1 1_555 1_555
C43 O19 1_555 1_555
C44 C43 1_555 1_555
C45 C44 1_555 1_555
H19 C45 1_555 1_555
C46 C44 1_555 1_555
H20 C46 1_555 1_555
C47 C45 1_555 1_555
C48 C46 1_555 1_555
H21 C48 1_555 1_555
C49 C47 1_555 1_555
S4 C47 1_555 1_555
O21 S4 1_555 1_555
O22 S4 1_555 1_555
C50 C49 1_555 1_555
C51 S4 1_555 1_555
C52 C50 1_555 1_555
C53 C51 1_555 1_555
C54 C52 1_555 1_555
C55 C53 1_555 1_555
C56 C55 1_555 1_555
O29 C56 1_555 1_555
O30 C56 1_555 1_555
N1 Zn1 1_555 1_555
C57 N1 1_555 1_555
H22 C57 1_555 1_555
C58 N1 1_555 1_555
H23 C58 1_555 1_555
C59 C57 1_555 1_555
H24 C59 1_555 1_555
C60 C58 1_555 1_555
H25 C60 1_555 1_555
C61 C59 1_555 1_555
N3 Zn7 1_555 1_555
C77 N3 1_555 1_555
H34 C77 1_555 1_555
C78 N3 1_555 1_555
H35 C78 1_555 1_555
C79 C77 1_555 1_555
H36 C79 1_555 1_555
C80 C78 1_555 1_555
H37 C80 1_555 1_555
C81 C79 1_555 1_555
C6 C7 1_555 1_555
C8 C9 1_555 1_555
C12 C13 1_555 1_555
C26 C27 1_555 1_555
C28 O11 1_555 1_555
C28 O12 1_555 1_555
O14 C29 1_555 1_555
O20 C43 1_555 1_555
C48 C49 1_555 1_555
C50 C51 1_555 1_555
C54 C55 1_555 1_555
C60 C61 1_555 1_555
C80 C81 1_555 1_555
C54 H94 1_555 1_555
C52 H95 1_555 1_555
C53 H96 1_555 1_555
H43 C94 1_555 1_555
C96 C94 1_555 1_555
H45 C96 1_555 1_555
Zn1_2 O1_2 1_555 1_555
Zn2 O2_2 1_555 1_555
Zn8 O5_2 1_555 1_555
O1_2 C1_2 1_555 1_555
O2_2 C1_2 1_555 1_555
C1_2 C2_2 1_555 1_555
C2_2 C3_2 1_555 1_555
C3_2 H1_2 1_555 1_555
C4_2 C2_2 1_555 1_555
H2_2 C4_2 1_555 1_555
C5_2 C3_2 1_555 1_555
C6_2 C4_2 1_555 1_555
H3_2 C6_2 1_555 1_555
C7_2 C5_2 1_555 1_555
S1_2 C5_2 1_555 1_555
O3_2 S1_2 1_555 1_555
O4_2 S1_2 1_555 1_555
C8_2 C7_2 1_555 1_555
C9_2 S1_2 1_555 1_555
C10_2 C8_2 1_555 1_555
H4_2 C10_2 1_555 1_555
C11_2 C9_2 1_555 1_555
H5_2 C11_2 1_555 1_555
C12_2 C10_2 1_555 1_555
H6_2 C12_2 1_555 1_555
C13_2 C11_2 1_555 1_555
C14_2 C13_2 1_555 1_555
O5_2 C14_2 1_555 1_555
O6 C14_2 1_555 1_555
O9_2 S2_2 1_555 1_555
C23_2 S2_2 1_555 1_555
C25_2 C23_2 1_555 1_555
H11_2 C25_2 1_555 1_555
C26_2 C24_2 1_555 1_555
H12_2 C26_2 1_555 1_555
C27_2 C25_2 1_555 1_555
C28_2 C27_2 1_555 1_555
O11_2 Zn2 1_555 1_555
O12_2 Zn1_2 1_555 1_555
O13_2 Zn1_2 1_555 1_555
O14_2 Zn2 1_555 1_555
C29_2 O13_2 1_555 1_555
C30_2 C29_2 1_555 1_555
C31_2 C30_2 1_555 1_555
H13_2 C31_2 1_555 1_555
C32_2 C30_2 1_555 1_555
H14_2 C32_2 1_555 1_555
C34_2 C32_2 1_555 1_555
H15_2 C34_2 1_555 1_555
O19_2 Zn2 1_555 1_555
O20_2 Zn1_2 1_555 1_555
C43_2 O19_2 1_555 1_555
C44_2 C43_2 1_555 1_555
C45_2 C44_2 1_555 1_555
H19_2 C45_2 1_555 1_555
C46_2 C44_2 1_555 1_555
H20_2 C46_2 1_555 1_555
C47_2 C45_2 1_555 1_555
C48_2 C46_2 1_555 1_555
H21_2 C48_2 1_555 1_555
C49_2 C47_2 1_555 1_555
S4_2 C47_2 1_555 1_555
O21_2 S4_2 1_555 1_555
O22_2 S4_2 1_555 1_555
C50_2 C49_2 1_555 1_555
C51_2 S4_2 1_555 1_555
C52_2 C50_2 1_555 1_555
C53_2 C51_2 1_555 1_555
C54_2 C52_2 1_555 1_555
C55_2 C53_2 1_555 1_555
C56_2 C55_2 1_555 1_555
O23 C56_2 1_555 1_555
O24 C56_2 1_555 1_555
N1_2 Zn1_2 1_555 1_555
C57_2 N1_2 1_555 1_555
H22_2 C57_2 1_555 1_555
C58_2 N1_2 1_555 1_555
H23_2 C58_2 1_555 1_555
C59_2 C57_2 1_555 1_555
H24_2 C59_2 1_555 1_555
C60_2 C58_2 1_555 1_555
H25_2 C60_2 1_555 1_555
C61_2 C59_2 1_555 1_555
N3_2 Zn8 1_555 1_555
C77_2 N3_2 1_555 1_555
H34_2 C77_2 1_555 1_555
C78_2 N3_2 1_555 1_555
H35_2 C78_2 1_555 1_555
C79_2 C77_2 1_555 1_555
H36_2 C79_2 1_555 1_555
C80_2 C78_2 1_555 1_555
H37_2 C80_2 1_555 1_555
C81_2 C79_2 1_555 1_555
Zn11 O6 1_555 1_555
O27 Zn8 1_555 1_555
N5 Zn2 1_555 1_555
C6_2 C7_2 1_555 1_555
C8_2 C9_2 1_555 1_555
C12_2 C13_2 1_555 1_555
C26_2 C27_2 1_555 1_555
C28_2 O11_2 1_555 1_555
C28_2 O12_2 1_555 1_555
O14_2 C29_2 1_555 1_555
O20_2 C43_2 1_555 1_555
C48_2 C49_2 1_555 1_555
C50_2 C51_2 1_555 1_555
C54_2 C55_2 1_555 1_555
C60_2 C61_2 1_555 1_555
C80_2 C81_2 1_555 1_555
C54_2 H94_2 1_555 1_555
C52_2 H95_2 1_555 1_555
C53_2 H96_2 1_555 1_555
C63_2 C62_2 1_555 1_555
C64_2 C63_2 1_555 1_555
C65_2 C64_2 1_555 1_555
H26_2 C65_2 1_555 1_555
C66_2 C64_2 1_555 1_555
H27_2 C66_2 1_555 1_555
C67_2 C65_2 1_555 1_555
H28_2 C67_2 1_555 1_555
C68_2 C66_2 1_555 1_555
H29_2 C68_2 1_555 1_555
C69_2 C67_2 1_555 1_555
C70_2 C69_2 1_555 1_555
C71_2 C70_2 1_555 1_555
C72_2 C71_2 1_555 1_555
C73_2 C72_2 1_555 1_555
H30_2 C73_2 1_555 1_555
C74_2 C72_2 1_555 1_555
H31_2 C74_2 1_555 1_555
C75_2 C73_2 1_555 1_555
H32_2 C75_2 1_555 1_555
C76_2 C74_2 1_555 1_555
H33_2 C76_2 1_555 1_555
N5 C75_2 1_555 1_555
C83_2 C82_2 1_555 1_555
C84_2 C83_2 1_555 1_555
C85_2 C84_2 1_555 1_555
H38_2 C85_2 1_555 1_555
C86_2 C84_2 1_555 1_555
C87_2 C85_2 1_555 1_555
H40_2 C87_2 1_555 1_555
C88_2 C86_2 1_555 1_555
C89_2 C87_2 1_555 1_555
C90_2 C89_2 1_555 1_555
C91_2 C90_2 1_555 1_555
C92_2 C91_2 1_555 1_555
C93_2 C92_2 1_555 1_555
H42_2 C93_2 1_555 1_555
C95_2 C93_2 1_555 1_555
H44_2 C95_2 1_555 1_555
N4 C95_2 1_555 1_555
Zn11 N4 1_555 1_555
C68_2 C69_2 1_555 1_555
C76_2 N5 1_555 1_555
C88_2 C89_2 1_555 1_555
O28 Zn11 1_555 1_555
O7_2 C15_2 1_555 1_555
O26 C15_2 1_555 1_555
C15_2 C16_2 1_555 1_555
C16_2 C17_2 1_555 1_555
C17_2 H7_2 1_555 1_555
C18_2 C16_2 1_555 1_555
H8_2 C18_2 1_555 1_555
C19_2 C17_2 1_555 1_555
C20_2 C18_2 1_555 1_555
H9_2 C20_2 1_555 1_555
C21_2 C19_2 1_555 1_555
C22_2 C21_2 1_555 1_555
C35_2 C33_2 1_555 1_555
S3_2 C33_2 1_555 1_555
O15_2 S3_2 1_555 1_555
O16_2 S3_2 1_555 1_555
C36_2 C35_2 1_555 1_555
C37_2 S3_2 1_555 1_555
C38_2 C36_2 1_555 1_555
H16_2 C38_2 1_555 1_555
C39_2 C37_2 1_555 1_555
H17_2 C39_2 1_555 1_555
C40_2 C38_2 1_555 1_555
H18_2 C40_2 1_555 1_555
C41_2 C39_2 1_555 1_555
C42_2 C41_2 1_555 1_555
O27 C42_2 1_555 1_555
O28 C42_2 1_555 1_555
C20_2 C21_2 1_555 1_555
C36_2 C37_2 1_555 1_555
C40_2 C41_2 1_555 1_555
H43_2 C94_2 1_555 1_555
C96_2 C94_2 1_555 1_555
H45_2 C96_2 1_555 1_555
C126 N7 1_555 1_555
H59 C126 1_555 1_555
C128 C126 1_555 1_555
C130 C129 1_555 1_555
C131 C130 1_555 1_555
C132 C131 1_555 1_555
Zn22 O48 1_555 1_555
C146 C145 1_555 1_555
C148 C146 1_555 1_555
H71 C148 1_555 1_555
C150 C148 1_555 1_555
H72 C150 1_555 1_555
C152 C151 1_555 1_555
C154 C152 1_555 1_555
H73 C154 1_555 1_555
C156 C154 1_555 1_555
H75 C156 1_555 1_555
C128 C129 1_555 1_555
O44 C145 1_555 1_555
C150 C151 1_555 1_555
C156 C157 1_555 1_555
C113 H52 1_555 1_555
C115 C113 1_555 1_555
S6 C115 1_555 1_555
O39 S6 1_555 1_555
O40 S6 1_555 1_555
C119 S6 1_555 1_555
C121 C119 1_555 1_555
H56 C121 1_555 1_555
O41 Zn13 1_555 1_555
H58 C125 1_555 1_555
C127 C125 1_555 1_555
H60 C127 1_555 1_555
H62 C133 1_555 1_555
Zn22 O37 1_555 1_555
C182 C133 1_555 1_555
H87 C182 1_555 1_555
C124 O41 1_555 1_555
Zn17 O47 1_555 1_555
H70 C147 1_555 1_555
C149 C147 1_555 1_555
S7 C149 1_555 1_555
O45 S7 1_555 1_555
O46 S7 1_555 1_555
C153 S7 1_555 1_555
C155 C153 1_555 1_555
H74 C155 1_555 1_555
O47 C158 1_555 1_555
O50 Zn17 1_555 1_555
O53 Zn17 1_555 1_555
O56 Zn17 1_555 1_555
N12 Zn17 1_555 1_555
O56 C111 1_555 1_555
C111 C112 1_555 1_555
C114 C112 1_555 1_555
H53 C114 1_555 1_555
C116 C114 1_555 1_555
H54 C116 1_555 1_555
C118 C117 1_555 1_555
C120 C118 1_555 1_555
H55 C120 1_555 1_555
C122 C120 1_555 1_555
H57 C122 1_555 1_555
C116 C117 1_555 1_555
C122 C123 1_555 1_555
H63 C134 1_555 1_555
Zn22 O54 1_555 1_555
O54 C159 1_555 1_555
C159 C160 1_555 1_555
C162 C160 1_555 1_555
H77 C162 1_555 1_555
C164 C162 1_555 1_555
H78 C164 1_555 1_555
C166 C165 1_555 1_555
C168 C166 1_555 1_555
H79 C168 1_555 1_555
C170 C168 1_555 1_555
H81 C170 1_555 1_555
C173 H82 1_555 1_555
C175 C173 1_555 1_555
H84 C175 1_555 1_555
C181 C134 1_555 1_555
H86 C181 1_555 1_555
C164 C165 1_555 1_555
C170 C171 1_555 1_555
Zn22 O35 1_555 1_555
C99 H46 1_555 1_555
C101 C99 1_555 1_555
S5 C101 1_555 1_555
O33 S5 1_555 1_555
O34 S5 1_555 1_555
C105 S5 1_555 1_555
C107 C105 1_555 1_555
H50 C107 1_555 1_555
O35 C110 1_555 1_555
N8 Zn22 1_555 1_555
C135 N8 1_555 1_555
H64 C135 1_555 1_555
C136 N8 1_555 1_555
H65 C136 1_555 1_555
C137 C135 1_555 1_555
H66 C137 1_555 1_555
C138 C136 1_555 1_555
H67 C138 1_555 1_555
C139 C137 1_555 1_555
C140 C139 1_555 1_555
C141 C140 1_555 1_555
C142 C141 1_555 1_555
C143 C142 1_555 1_555
H68 C143 1_555 1_555
C144 C142 1_555 1_555
H69 C144 1_555 1_555
C174 N9 1_555 1_555
H83 C174 1_555 1_555
C176 C174 1_555 1_555
C178 C177 1_555 1_555
C179 C178 1_555 1_555
C180 C179 1_555 1_555
N12 C183 1_555 1_555
C183 H88 1_555 1_555
C184 N12 1_555 1_555
H89 C184 1_555 1_555
C185 C183 1_555 1_555
H90 C185 1_555 1_555
C186 C184 1_555 1_555
H91 C186 1_555 1_555
C187 C185 1_555 1_555
C188 C187 1_555 1_555
C189 C188 1_555 1_555
C190 C189 1_555 1_555
C191 C144 1_555 1_555
H92 C191 1_555 1_555
C192 C143 1_555 1_555
H93 C192 1_555 1_555
C138 C139 1_555 1_555
C176 C177 1_555 1_555
C186 C187 1_555 1_555
C190 C191 1_555 1_555
C190 C192 1_555 1_555
C161 H76 1_555 1_555
C163 C161 1_555 1_555
S8 C163 1_555 1_555
O57 S8 1_555 1_555
O58 S8 1_555 1_555
C167 S8 1_555 1_555
C169 C167 1_555 1_555
H80 C169 1_555 1_555
O59 Zn16 1_555 1_555
C172 O59 1_555 1_555
O32 C97 1_555 1_555
C97 C98 1_555 1_555
C100 C98 1_555 1_555
H47 C100 1_555 1_555
C102 C100 1_555 1_555
H48 C102 1_555 1_555
C104 C103 1_555 1_555
C106 C104 1_555 1_555
H49 C106 1_555 1_555
C108 C106 1_555 1_555
H51 C108 1_555 1_555
C102 C103 1_555 1_555
C108 C109 1_555 1_555

#END
