
###############################################################################
#
# This file contains modified crystal structure data generated from the
# MOF subset of the Cambridge Structural Database (CSD) v543 
# hosted by the Cambridge Crystallographic Data Centre (CCDC).
#
# This work is licensed under the Creative Commons
# Attribution-NonCommercial-ShareAlike 4.0 International License.
# To view a copy of this license, visit
# http://creativecommons.org/licenses/by-nc-sa/4.0/
# or send a letter to
# Creative Commons, PO Box 1866, Mountain View, CA 94042, USA.
#
# CIF created using the CSD Python API on 29 September 2022
# The structure has been converted into the P1 space group
# The structure has a 3D framework
# The original CSD entry OVEFUR is in the monoclinic crystal system
# The framework has been calculated to contain at least 10.0% void space
# The void calculation uses a probe of radius 1.32A, grid spacing 0.4
# H atom positions have been added when not included in the experimental data
#
###############################################################################

data_OVEFUR
_chemical_formula_moiety         '(C96 H104 Co4 N20 O16)n'
_symmetry_cell_setting           triclinic
_symmetry_space_group_name_H-M   'P 1'
_symmetry_Int_Tables_number      1
_space_group_name_Hall           'P 1'
loop_
_symmetry_equiv_pos_site_id
_symmetry_equiv_pos_as_xyz
1 x,y,z
_cell_length_a                   10.327(4)
_cell_length_b                   11.613(4)
_cell_length_c                   22.455(9)
_cell_angle_alpha                90
_cell_angle_beta                 97.026(5)
_cell_angle_gamma                90
_cell_volume                     2672.75
loop_
_atom_site_label
_atom_site_type_symbol
_atom_site_fract_x
_atom_site_fract_y
_atom_site_fract_z
Co2 Co 0.23969(4) 0.45000(4) 0.22798(2)
O5 O 0.0341(2) 0.4362(2) 0.22072(12)
O6 O 0.1219(2) 0.5746(2) 0.27888(13)
C26 C 0.0220(3) 0.5204(3) 0.25581(17)
N8 N 0.2222(3) 0.5803(3) 0.15823(14)
N10 N 0.2576(3) 0.3526(3) 0.31076(15)
O8 O 0.4283(2) 0.4990(2) 0.24460(12)
N14 N 0.2674(3) 0.3073(3) 0.16810(15)
H40 H 0.348(5) 0.323(4) 0.160(2)
H43 H 0.220(5) 0.316(4) 0.134(2)
H55 H 0.258434 0.228644 0.186875
H10 H 0.147(5) 0.048(4) 0.972(2)
N1 N 0.0839(3) 0.9007(3) 0.00833(15)
C7 C 0.2136(4) 0.7555(3) 0.07169(19)
C8 C 0.0432(5) 0.9634(4) 0.0596(2)
C9 C 0.1609(4) 0.2917(4) 0.3284(2)
C10 C 0.1596(4) 0.5667(4) 0.1026(2)
N4 N 0.4233(4) 0.0998(4) 0.48533(17)
C11 C 0.2136(5) 0.8484(4) 0.0242(3)
C12 C 0.1542(5) 0.6505(4) 0.0586(2)
C13 C 0.2769(5) 0.6837(3) 0.1707(2)
C14 C 0.3029(7) 0.1649(8) 0.4784(3)
C15 C 0.1708(5) 0.2293(4) 0.3820(2)
C17 C 0.2738(5) 0.7707(4) 0.1287(2)
C18 C 0.4596(6) 0.0625(5) 0.5475(2)
H1 H 0.3923 0.0125 0.5597
H2 H 0.4670 0.1291 0.5738
C19 C 0.2846(5) 0.2302(5) 0.4198(2)
C20 C 0.4135(6) 0.0004(6) 0.4470(3)
C21 C 0.3857(6) 0.2975(9) 0.4027(3)
C22 C 0.3671(5) 0.3569(7) 0.3491(3)
H6 H 0.317(5) 0.675(4) 0.212(2)
H7 H 0.029(5) 0.911(4) 0.094(2)
H9 H 0.127(4) 0.496(4) 0.0970(19)
H11 H 0.120(5) 0.626(4) 0.018(2)
H15 H 0.095(6) 0.192(5) 0.393(3)
H16 H 0.309(4) 0.823(4) 0.1398(19)
H17 H 0.068(6) 0.290(5) 0.296(3)
H18 H 0.433(6) 0.403(5) 0.334(2)
H20 H 0.386(6) 0.031(5) 0.403(3)
H21 H 0.270(6) 0.907(6) 0.039(3)
H23 H 0.213(8) 0.107(7) 0.466(3)
H24 H 0.320(6) 0.222(6) 0.512(3)
H25 H 0.482(10) 0.284(9) 0.428(5)
Co7 Co 0.76031(4) 0.95000(4) 0.27202(2)
C25 C 0.8886(3) 0.5546(3) 0.26869(17)
C27 C 0.8732(3) 0.6576(3) 0.29888(16)
C28 C 0.7483(3) 0.6962(3) 0.30605(15)
C29 C 0.6400(3) 0.6308(3) 0.28421(17)
C30 C 0.7802(3) 0.4895(3) 0.24642(17)
O9 O 0.5471(2) 0.3687(2) 0.20241(15)
N12 N 0.7326(3) 0.8073(3) 0.33190(15)
C47 C 0.5358(3) 0.4576(3) 0.23126(17)
C48 C 0.6551(3) 0.5275(3) 0.25474(17)
H28 H 0.944(4) 0.704(3) 0.3124(17)
H29 H 0.551(4) 0.656(3) 0.2905(16)
H30 H 0.784(5) 0.427(4) 0.221(2)
H38 H 0.652(5) 0.823(4) 0.340(2)
H41 H 0.780(5) 0.816(4) 0.366(2)
H48 H 0.661(7) 0.041(6) 0.538(3)
H19 H 0.339(7) 0.959(6) 0.462(3)
Co6 Co 0.76031(4) 0.55000(4) 0.77202(2)
N9 N 0.7424(3) 0.6474(3) 0.68924(15)
C33 C 0.8391(4) 0.7083(4) 0.6716(2)
N11 N 0.5767(4) 0.9002(4) 0.51467(17)
C38 C 0.6971(7) 0.8351(8) 0.5216(3)
C39 C 0.8292(5) 0.7707(4) 0.6180(2)
C42 C 0.5404(6) 0.9375(5) 0.4525(2)
H26 H 0.6077 0.9875 0.4403
H27 H 0.5330 0.8709 0.4262
C43 C 0.7154(5) 0.7698(5) 0.5802(2)
C44 C 0.5865(6) 0.9996(6) 0.5530(3)
C45 C 0.6143(6) 0.7025(9) 0.5973(3)
C46 C 0.6329(5) 0.6431(7) 0.6509(3)
H44 H 0.905(6) 0.808(5) 0.607(3)
H46 H 0.932(6) 0.710(5) 0.704(3)
H47 H 0.567(6) 0.597(5) 0.666(2)
H49 H 0.614(6) 0.969(5) 0.597(3)
H52 H 0.787(8) 0.893(7) 0.534(3)
H53 H 0.680(6) 0.778(6) 0.488(3)
H54 H 0.518(10) 0.716(9) 0.572(5)
N6 N 0.9161(3) 0.0993(3) 0.99167(15)
N7 N 0.7778(3) 0.4197(3) 0.84177(14)
C31 C 0.7864(4) 0.2445(3) 0.92831(19)
C32 C 0.9568(5) 0.0366(4) 0.9404(2)
C34 C 0.8404(4) 0.4333(4) 0.8974(2)
C35 C 0.7864(5) 0.1516(4) 0.9758(3)
C36 C 0.8458(5) 0.3495(4) 0.9414(2)
C37 C 0.7231(5) 0.3163(3) 0.8293(2)
C41 C 0.7262(5) 0.2293(4) 0.8713(2)
H31 H 0.683(5) 0.325(4) 0.788(2)
H32 H 0.971(5) 0.089(4) 0.906(2)
H34 H 0.873(4) 0.504(4) 0.9030(19)
H36 H 0.880(5) 0.374(4) 0.982(2)
H45 H 0.691(4) 0.177(4) 0.8602(19)
H50 H 0.730(6) 0.093(6) 0.961(3)
H35 H 0.853(5) 0.952(4) 0.028(2)
Co5 Co 0.23969(4) 0.05000(4) 0.72798(2)
H34_2 H 0.127(4) 0.004(4) 0.5970(19)
C1 C 0.1114(3) 0.0546(3) 0.23131(17)
C3 C 0.1268(3) 0.1576(3) 0.20112(16)
C4 C 0.2517(3) 0.1962(3) 0.19395(15)
C5 C 0.3600(3) 0.1308(3) 0.21579(17)
C24 C 0.3449(3) 0.0275(3) 0.24526(17)
H3 H 0.056(4) 0.204(3) 0.1876(17)
H4 H 0.449(4) 0.156(3) 0.2095(16)
N6_2 N 0.0839(3) 0.5993(3) 0.50833(15)
N7_2 N 0.2222(3) 0.9197(3) 0.65823(14)
C31_2 C 0.2136(4) 0.7445(3) 0.57169(19)
C32_2 C 0.0432(5) 0.5366(4) 0.5596(2)
C34_2 C 0.1596(4) 0.9333(4) 0.6026(2)
C35_2 C 0.2136(5) 0.6516(4) 0.5242(3)
C36_2 C 0.1542(5) 0.8495(4) 0.5586(2)
C37_2 C 0.2769(5) 0.8163(3) 0.6707(2)
C40 C 0.0898(5) 0.5187(4) 0.4577(2)
C41_2 C 0.2738(5) 0.7293(4) 0.6287(2)
H31_2 H 0.317(5) 0.825(4) 0.712(2)
H32_2 H 0.029(5) 0.589(4) 0.594(2)
H33 H 0.111(6) 0.470(5) 0.576(2)
H35_2 H 0.147(5) 0.452(4) 0.472(2)
H36_2 H 0.120(5) 0.874(4) 0.518(2)
H37 H 0.127(5) 0.573(4) 0.424(2)
H45_2 H 0.309(4) 0.677(4) 0.6398(19)
H50_2 H 0.270(6) 0.593(6) 0.539(3)
H51 H 0.236(7) 0.673(6) 0.486(3)
C6 C 0.2198(3) 0.9895(3) 0.25358(17)
O3 O 0.5717(2) 0.9990(2) 0.25540(12)
O4 O 0.4529(2) 0.8687(2) 0.29759(15)
C23 C 0.4642(3) 0.9576(3) 0.26874(17)
H5 H 0.216(5) 0.927(4) 0.279(2)
O2 O 0.8781(2) 0.0746(2) 0.22112(13)
C2 C 0.9780(3) 0.0204(3) 0.24419(17)
N1_2 N 0.9161(3) 0.4007(3) 0.49167(15)
N2 N 0.7778(3) 0.0803(3) 0.34177(14)
C7_2 C 0.7864(4) 0.2555(3) 0.42831(19)
C8_2 C 0.9568(5) 0.4634(4) 0.4404(2)
C10_2 C 0.8404(4) 0.0667(4) 0.3974(2)
C11_2 C 0.7864(5) 0.3484(4) 0.4758(3)
C12_2 C 0.8458(5) 0.1505(4) 0.4414(2)
C13_2 C 0.7231(5) 0.1837(3) 0.3293(2)
C16 C 0.9102(5) 0.4813(4) 0.5423(2)
C17_2 C 0.7262(5) 0.2707(4) 0.3713(2)
H6_2 H 0.683(5) 0.175(4) 0.288(2)
H7_2 H 0.971(5) 0.411(4) 0.406(2)
H8 H 0.889(6) 0.530(5) 0.424(2)
H10_2 H 0.853(5) 0.548(4) 0.528(2)
H11_2 H 0.880(5) 0.126(4) 0.482(2)
H12 H 0.873(5) 0.427(4) 0.576(2)
H16_2 H 0.691(4) 0.323(4) 0.3602(19)
H21_2 H 0.730(6) 0.407(6) 0.461(3)
H22 H 0.764(7) 0.327(6) 0.514(3)
O1 O 0.9659(2) 0.9362(2) 0.27928(12)
N3 N 0.7424(3) 0.8526(3) 0.18924(15)
C9_2 C 0.8391(4) 0.7917(4) 0.1716(2)
N4_2 N 0.5767(4) 0.5998(4) 0.01467(17)
C14_2 C 0.6971(7) 0.6649(8) 0.0216(3)
C15_2 C 0.8292(5) 0.7293(4) 0.1180(2)
C19_2 C 0.7154(5) 0.7302(5) 0.0802(2)
C20_2 C 0.5865(6) 0.5004(6) 0.0530(3)
C21_2 C 0.6143(6) 0.7975(9) 0.0973(3)
C22_2 C 0.6329(5) 0.8569(7) 0.1509(3)
H9_2 H 0.873(4) 0.996(4) 0.4030(19)
H15_2 H 0.905(6) 0.692(5) 0.107(3)
H17_2 H 0.932(6) 0.790(5) 0.204(3)
H18_2 H 0.567(6) 0.903(5) 0.166(2)
H19_2 H 0.661(7) 0.459(6) 0.038(3)
H20_2 H 0.614(6) 0.531(5) 0.097(3)
H23_2 H 0.787(8) 0.607(7) 0.034(3)
H25_2 H 0.518(10) 0.784(9) 0.072(5)
C42_2 C 0.4596(6) 0.4375(5) 0.0475(2)
H26_2 H 0.3923 0.4875 0.0597
H27_2 H 0.4670 0.3709 0.0738
H53_2 H 0.320(6) 0.278(6) 0.012(3)
H56 H 0.741566 0.728644 0.313125
C18_2 C 0.5404(6) 0.5625(5) 0.9525(2)
H1_2 H 0.6077 0.5125 0.9403
H2_2 H 0.5330 0.6291 0.9262
H24_2 H 0.680(6) 0.722(6) 0.988(3)
N9_2 N 0.2576(3) 0.1474(3) 0.81076(15)
C33_2 C 0.1609(4) 0.2083(4) 0.8284(2)
N11_2 N 0.4233(4) 0.4002(4) 0.98533(17)
C38_2 C 0.3029(7) 0.3351(8) 0.9784(3)
C39_2 C 0.1708(5) 0.2707(4) 0.8820(2)
C43_2 C 0.2846(5) 0.2698(5) 0.9198(2)
C44_2 C 0.4135(6) 0.4996(6) 0.9470(3)
C45_2 C 0.3857(6) 0.2025(9) 0.9027(3)
C46_2 C 0.3671(5) 0.1431(7) 0.8491(3)
H44_2 H 0.095(6) 0.308(5) 0.893(3)
H46_2 H 0.068(6) 0.210(5) 0.796(3)
H47_2 H 0.433(6) 0.097(5) 0.834(2)
H48_2 H 0.339(7) 0.541(6) 0.962(3)
H49_2 H 0.386(6) 0.469(5) 0.903(3)
H52_2 H 0.213(8) 0.393(7) 0.966(3)
H54_2 H 0.482(10) 0.216(9) 0.928(5)
C1_2 C 0.1114(3) 0.4454(3) 0.73131(17)
C3_2 C 0.1268(3) 0.3424(3) 0.70112(16)
C4_2 C 0.2517(3) 0.3038(3) 0.69395(15)
C5_2 C 0.3600(3) 0.3692(3) 0.71579(17)
C6_2 C 0.2198(3) 0.5105(3) 0.75358(17)
O3_2 O 0.5717(2) 0.5010(2) 0.75540(12)
O4_2 O 0.4529(2) 0.6313(2) 0.79759(15)
N5 N 0.2674(3) 0.1927(3) 0.66810(15)
C23_2 C 0.4642(3) 0.5424(3) 0.76874(17)
C24_2 C 0.3449(3) 0.4725(3) 0.74526(17)
H3_2 H 0.056(4) 0.296(3) 0.6876(17)
H4_2 H 0.449(4) 0.344(3) 0.7095(16)
H5_2 H 0.216(5) 0.573(4) 0.779(2)
H13 H 0.348(5) 0.177(4) 0.660(2)
H14 H 0.220(5) 0.184(4) 0.634(2)
O1_2 O 0.9659(2) 0.5638(2) 0.77928(12)
O2_2 O 0.8781(2) 0.4254(2) 0.72112(13)
C2_2 C 0.9780(3) 0.4796(3) 0.74419(17)
N13 N 0.7326(3) 0.6927(3) 0.83190(15)
H39 H 0.652(5) 0.677(4) 0.840(2)
H42 H 0.780(5) 0.684(4) 0.866(2)
H56_2 H 0.741566 0.771356 0.813125
O5_2 O 0.0341(2) 0.0638(2) 0.72072(12)
O8_2 O 0.4283(2) 0.0010(2) 0.74460(12)
H55_2 H 0.258434 0.271356 0.686875
O6_2 O 0.1219(2) 0.9254(2) 0.77888(13)
C26_2 C 0.0220(3) 0.9796(3) 0.75581(17)
C30_2 C 0.7802(3) 0.0105(3) 0.74642(17)
O9_2 O 0.5471(2) 0.1313(2) 0.70241(15)
C47_2 C 0.5358(3) 0.0424(3) 0.73126(17)
H30_2 H 0.784(5) 0.073(4) 0.721(2)
C25_2 C 0.8886(3) 0.9454(3) 0.76869(17)
C27_2 C 0.8732(3) 0.8424(3) 0.79888(16)
C28_2 C 0.7483(3) 0.8038(3) 0.80605(15)
C29_2 C 0.6400(3) 0.8692(3) 0.78421(17)
C48_2 C 0.6551(3) 0.9725(3) 0.75474(17)
H28_2 H 0.944(4) 0.796(3) 0.8124(17)
H29_2 H 0.551(4) 0.844(3) 0.7905(16)
H8_2 H 0.111(6) 0.030(5) 0.076(2)
C16_2 C 0.0898(5) 0.9813(4) 0.9577(2)
H12_2 H 0.127(5) 0.927(4) 0.924(2)
H22_2 H 0.236(7) 0.827(6) 0.986(3)
C40_2 C 0.9102(5) 0.0187(4) 0.0423(2)
H37_2 H 0.873(5) 0.073(4) 0.076(2)
H51_2 H 0.764(7) 0.173(6) 0.014(3)
H33_2 H 0.889(6) 0.970(5) 0.924(2)
loop_
_geom_bond_atom_site_label_1
_geom_bond_atom_site_label_2
_geom_bond_site_symmetry_1
_geom_bond_site_symmetry_2
Co2 O5 1_555 1_555
O5 C26 1_555 1_555
O6 Co2 1_555 1_555
C26 O6 1_555 1_555
N8 Co2 1_555 1_555
N10 Co2 1_555 1_555
O8 Co2 1_555 1_555
N14 Co2 1_555 1_555
H40 N14 1_555 1_555
H43 N14 1_555 1_555
N14 H55 1_555 1_555
N1 C8 1_555 1_555
C7 C11 1_555 1_555
C8 H7 1_555 1_555
C9 N10 1_555 1_555
C10 N8 1_555 1_555
N4 C14 1_555 1_555
C11 N1 1_555 1_555
C12 C7 1_555 1_555
C13 N8 1_555 1_555
C14 C19 1_555 1_555
C15 C9 1_555 1_555
C17 C7 1_555 1_555
C18 N4 1_555 1_555
H1 C18 1_555 1_555
H2 C18 1_555 1_555
C19 C15 1_555 1_555
C20 N4 1_555 1_555
C21 C19 1_555 1_555
C22 N10 1_555 1_555
H6 C13 1_555 1_555
H9 C10 1_555 1_555
H11 C12 1_555 1_555
H15 C15 1_555 1_555
H16 C17 1_555 1_555
H17 C9 1_555 1_555
H18 C22 1_555 1_555
H20 C20 1_555 1_555
H21 C11 1_555 1_555
H23 C14 1_555 1_555
H24 C14 1_555 1_555
H25 C21 1_555 1_555
Co7 N12 1_555 1_555
C27 C25 1_555 1_555
C28 C27 1_555 1_555
C29 C28 1_555 1_555
C30 C25 1_555 1_555
O9 C47 1_555 1_555
N12 C28 1_555 1_555
C47 O8 1_555 1_555
C48 C29 1_555 1_555
H28 C27 1_555 1_555
H29 C29 1_555 1_555
H30 C30 1_555 1_555
H38 N12 1_555 1_555
H41 N12 1_555 1_555
C10 C12 1_555 1_555
C13 C17 1_555 1_555
C21 C22 1_555 1_555
C30 C48 1_555 1_555
C47 C48 1_555 1_555
Co6 N9 1_555 1_555
N9 C33 1_555 1_555
C33 C39 1_555 1_555
N11 C38 1_555 1_555
C38 C43 1_555 1_555
C39 C43 1_555 1_555
H26 C42 1_555 1_555
H27 C42 1_555 1_555
C43 C45 1_555 1_555
C45 C46 1_555 1_555
C46 N9 1_555 1_555
H44 C39 1_555 1_555
H46 C33 1_555 1_555
H47 C46 1_555 1_555
H49 C44 1_555 1_555
H52 C38 1_555 1_555
H53 C38 1_555 1_555
H54 C45 1_555 1_555
N11 C42 1_555 1_555
N11 C44 1_555 1_555
Co6 N7 1_555 1_555
N6 C32 1_555 1_555
N7 C34 1_555 1_555
C31 C35 1_555 1_555
C34 C36 1_555 1_555
C35 N6 1_555 1_555
C36 C31 1_555 1_555
C37 N7 1_555 1_555
C41 C31 1_555 1_555
H31 C37 1_555 1_555
H32 C32 1_555 1_555
H34 C34 1_555 1_555
H36 C36 1_555 1_555
H45 C41 1_555 1_555
H50 C35 1_555 1_555
C37 C41 1_555 1_555
C3 C1 1_555 1_555
C4 C3 1_555 1_555
C5 C4 1_555 1_555
N14 C4 1_555 1_555
C24 C5 1_555 1_555
H3 C3 1_555 1_555
H4 C5 1_555 1_555
N6_2 C32_2 1_555 1_555
N7_2 C34_2 1_555 1_555
C31_2 C35_2 1_555 1_555
C34_2 C36_2 1_555 1_555
C35_2 N6_2 1_555 1_555
C36_2 C31_2 1_555 1_555
C37_2 N7_2 1_555 1_555
C41_2 C31_2 1_555 1_555
H31_2 C37_2 1_555 1_555
H32_2 C32_2 1_555 1_555
H33 C32_2 1_555 1_555
H35_2 C40 1_555 1_555
H36_2 C36_2 1_555 1_555
H37 C40 1_555 1_555
H45_2 C41_2 1_555 1_555
H50_2 C35_2 1_555 1_555
H51 C35_2 1_555 1_555
N6_2 C40 1_555 1_555
C37_2 C41_2 1_555 1_555
O3 C23 1_555 1_555
O4 C23 1_555 1_555
H5 C6 1_555 1_555
Co7 O3 1_555 1_555
C2 O2 1_555 1_555
N1_2 C8_2 1_555 1_555
C7_2 C11_2 1_555 1_555
C8_2 H7_2 1_555 1_555
C10_2 N2 1_555 1_555
C11_2 N1_2 1_555 1_555
C12_2 C7_2 1_555 1_555
C13_2 N2 1_555 1_555
C16 N1_2 1_555 1_555
C17_2 C7_2 1_555 1_555
H6_2 C13_2 1_555 1_555
H8 C8_2 1_555 1_555
H10_2 C16 1_555 1_555
H11_2 C12_2 1_555 1_555
H12 C16 1_555 1_555
H16_2 C17_2 1_555 1_555
H21_2 C11_2 1_555 1_555
H22 C11_2 1_555 1_555
C10_2 C12_2 1_555 1_555
C13_2 C17_2 1_555 1_555
Co7 O1 1_555 1_555
N3 Co7 1_555 1_555
C9_2 N3 1_555 1_555
N4_2 C14_2 1_555 1_555
C14_2 C19_2 1_555 1_555
C15_2 C9_2 1_555 1_555
C19_2 C15_2 1_555 1_555
C20_2 N4_2 1_555 1_555
C21_2 C19_2 1_555 1_555
C22_2 N3 1_555 1_555
H15_2 C15_2 1_555 1_555
H17_2 C9_2 1_555 1_555
H18_2 C22_2 1_555 1_555
H19_2 C20_2 1_555 1_555
H20_2 C20_2 1_555 1_555
H23_2 C14_2 1_555 1_555
H25_2 C21_2 1_555 1_555
C42_2 C20_2 1_555 1_555
H26_2 C42_2 1_555 1_555
H27_2 C42_2 1_555 1_555
C21_2 C22_2 1_555 1_555
N12 H56 1_555 1_555
H1_2 C18_2 1_555 1_555
H2_2 C18_2 1_555 1_555
Co5 N9_2 1_555 1_555
N9_2 C33_2 1_555 1_555
C33_2 C39_2 1_555 1_555
N11_2 C38_2 1_555 1_555
C38_2 C43_2 1_555 1_555
C39_2 C43_2 1_555 1_555
C43_2 C45_2 1_555 1_555
C44_2 C18_2 1_555 1_555
C45_2 C46_2 1_555 1_555
C46_2 N9_2 1_555 1_555
H44_2 C39_2 1_555 1_555
H46_2 C33_2 1_555 1_555
H47_2 C46_2 1_555 1_555
H48_2 C44_2 1_555 1_555
H49_2 C44_2 1_555 1_555
H52_2 C38_2 1_555 1_555
H54_2 C45_2 1_555 1_555
N11_2 C44_2 1_555 1_555
C3_2 C1_2 1_555 1_555
C4_2 C3_2 1_555 1_555
C5_2 C4_2 1_555 1_555
C6_2 C1_2 1_555 1_555
O3_2 C23_2 1_555 1_555
O4_2 C23_2 1_555 1_555
N5 C4_2 1_555 1_555
C23_2 C24_2 1_555 1_555
C24_2 C5_2 1_555 1_555
H3_2 C3_2 1_555 1_555
H4_2 C5_2 1_555 1_555
H5_2 C6_2 1_555 1_555
H13 N5 1_555 1_555
H14 N5 1_555 1_555
Co6 O3_2 1_555 1_555
Co5 N5 1_555 1_555
C6_2 C24_2 1_555 1_555
Co6 O1_2 1_555 1_555
O1_2 C2_2 1_555 1_555
O2_2 Co6 1_555 1_555
C2_2 O2_2 1_555 1_555
N13 Co6 1_555 1_555
H39 N13 1_555 1_555
H42 N13 1_555 1_555
N13 H56_2 1_555 1_555
Co5 O5_2 1_555 1_555
O8_2 Co5 1_555 1_555
N5 H55_2 1_555 1_555
C26_2 O6_2 1_555 1_555
O9_2 C47_2 1_555 1_555
C47_2 O8_2 1_555 1_555
H30_2 C30_2 1_555 1_555
C27_2 C25_2 1_555 1_555
C28_2 C27_2 1_555 1_555
C29_2 C28_2 1_555 1_555
N13 C28_2 1_555 1_555
C48_2 C29_2 1_555 1_555
H28_2 C27_2 1_555 1_555
H29_2 C29_2 1_555 1_555
H12_2 C16_2 1_555 1_555
H37_2 C40_2 1_555 1_555

#END
