
###############################################################################
#
# This file contains modified crystal structure data generated from the
# MOF subset of the Cambridge Structural Database (CSD) v543 
# hosted by the Cambridge Crystallographic Data Centre (CCDC).
#
# This work is licensed under the Creative Commons
# Attribution-NonCommercial-ShareAlike 4.0 International License.
# To view a copy of this license, visit
# http://creativecommons.org/licenses/by-nc-sa/4.0/
# or send a letter to
# Creative Commons, PO Box 1866, Mountain View, CA 94042, USA.
#
# CIF created using the CSD Python API on 29 September 2022
# The structure has been converted into the P1 space group
# The structure has a 3D framework
# The original CSD entry OVEJUX is in the tetragonal crystal system
# The framework has been calculated to contain at least 10.0% void space
# The void calculation uses a probe of radius 1.32A, grid spacing 0.4
# H atom positions have been added when not included in the experimental data
#
###############################################################################

data_OVEJUX
_chemical_formula_moiety         '(C160 H112 Al12 N16 O88)n'
_symmetry_cell_setting           triclinic
_symmetry_space_group_name_H-M   'P 1'
_symmetry_Int_Tables_number      1
_space_group_name_Hall           'P 1'
loop_
_symmetry_equiv_pos_site_id
_symmetry_equiv_pos_as_xyz
1 x,y,z
_cell_length_a                   21.4594(4)
_cell_length_b                   21.4594(4)
_cell_length_c                   10.7902(4)
_cell_angle_alpha                90
_cell_angle_beta                 90
_cell_angle_gamma                90
_cell_volume                     4968.95
loop_
_atom_site_label
_atom_site_type_symbol
_atom_site_fract_x
_atom_site_fract_y
_atom_site_fract_z
_atom_site_U_iso_or_equiv
_atom_site_thermal_displace_type
C9 C 0.4034(10) 0.2306(7) 0.0532(16) 0.0155 Uiso
H1 H 0.369345 0.258694 0.102969 . .
H2 H 0.417201 0.191143 0.110426 . .
H3 H 0.444173 0.258898 0.032147 . .
Al1 Al 0.3182(3) 0.5039(6) 0.4960(15) 0.0155 Uiso
O1 O 0.2743(6) 0.3712(6) 0.3615(11) 0.0155 Uiso
O2 O 0.2582(7) 0.1336(6) 0.3650(11) 0.0155 Uiso
O3 O 0.2844(7) 0.0819(6) 0.5293(11) 0.0155 Uiso
O4 O 0.3072(7) 0.4201(6) 0.5242(11) 0.0155 Uiso
O5 O 0.2597(11) 0.4908(11) 0.372(2) 0.0155 Uiso
C1 C 0.3165(2) 0.1935(4) 0.6627(6) 0.0155 Uiso
C2 C 0.2944(3) 0.1945(4) 0.5407(6) 0.0155 Uiso
C3 C 0.2871(2) 0.2514(4) 0.4788(7) 0.0155 Uiso
C4 C 0.3313(2) 0.2494(4) 0.7229(7) 0.0155 Uiso
C5 C 0.3020(2) 0.3073(4) 0.5390(6) 0.0155 Uiso
C6 C 0.2779(4) 0.1327(5) 0.4740(9) 0.0155 Uiso
C7 C 0.2940(3) 0.3702(5) 0.4704(9) 0.0155 Uiso
C8 C 0.3241(3) 0.3062(4) 0.6610(6) 0.0155 Uiso
N1 N 0.3531(3) 0.2483(5) 0.8432(9) 0.0155 Uiso
C10 C 0.3742(7) 0.2065(6) 0.9309(14) 0.0155 Uiso
O6 O 0.3697(15) 0.1493(6) 0.9116(17) 0.0155 Uiso
Al2 Al 0.2539(6) 0.4318(3) 0.2460(15) 0.0155 Uiso
Al3 Al 0.2461(6) 0.0682(3) 0.2540(15) 0.0155 Uiso
Al4 Al 0.3182(3) 0.0039(6) 0.5040(15) 0.0155 Uiso
O7 O 0.3788(6) 0.5243(6) 0.6115(11) 0.0155 Uiso
O8 O 0.3836(6) 0.4918(7) 0.3850(11) 0.0155 Uiso
O9 O 0.2844(7) 0.5819(6) 0.4707(11) 0.0155 Uiso
O10 O 0.2592(11) 0.5097(11) 0.622(2) 0.0155 Uiso
H4 H 0.335707 0.349637 0.707801 . .
H5 H 0.269847 0.252195 0.3839 . .
H6 H 0.322191 0.149261 0.710833 . .
H7 H 0.353859 0.292164 0.87836 . .
O3_2 O 0.2156(7) 0.9181(6) 0.0293(11) 0.0155 Uiso
O4_2 O 0.1928(7) 0.5799(6) 0.0242(11) 0.0155 Uiso
C1_2 C 0.1835(2) 0.8065(4) 0.1627(6) 0.0155 Uiso
C2_2 C 0.2056(3) 0.8055(4) 0.0407(6) 0.0155 Uiso
C4_2 C 0.1687(2) 0.7506(4) 0.2229(7) 0.0155 Uiso
C5_2 C 0.1980(2) 0.6927(4) 0.0390(6) 0.0155 Uiso
C8_2 C 0.1759(3) 0.6938(4) 0.1610(6) 0.0155 Uiso
N1_2 N 0.1469(3) 0.7517(5) 0.3432(9) 0.0155 Uiso
C9_2 C 0.0966(10) 0.7694(7) 0.5532(16) 0.0155 Uiso
C10_2 C 0.1258(7) 0.7935(6) 0.4309(14) 0.0155 Uiso
O6_2 O 0.1303(15) 0.8507(6) 0.4116(17) 0.0155 Uiso
Al4_2 Al 0.1818(3) 0.9961(6) 0.0040(15) 0.0155 Uiso
O7_2 O 0.1212(6) 0.4757(6) 0.1115(11) 0.0155 Uiso
O10_2 O 0.2408(11) 0.4903(11) 0.122(2) 0.0155 Uiso
H1_2 H 0.130655 0.741306 0.602969 . .
H2_2 H 0.0827986 0.808857 0.610426 . .
H3_2 H 0.0558272 0.741102 0.532147 . .
H4_2 H 0.164293 0.650363 0.207801 . .
H6_2 H 0.177809 0.850739 0.210833 . .
H7_2 H 0.146141 0.707836 0.37836 . .
Al1_2 Al 0.1818(3) 0.4961(6) 0.9960(15) 0.0155 Uiso
O1_2 O 0.2257(6) 0.6288(6) 0.8615(11) 0.0155 Uiso
O2_2 O 0.2418(7) 0.8664(6) 0.8650(11) 0.0155 Uiso
O5_2 O 0.2403(11) 0.5092(11) 0.872(2) 0.0155 Uiso
C3_2 C 0.2129(2) 0.7486(4) 0.9788(7) 0.0155 Uiso
C6_2 C 0.2221(4) 0.8673(5) 0.9740(9) 0.0155 Uiso
C7_2 C 0.2060(3) 0.6298(5) 0.9704(9) 0.0155 Uiso
Al2_2 Al 0.2461(6) 0.5682(3) 0.7460(15) 0.0155 Uiso
Al3_2 Al 0.2539(6) 0.9318(3) 0.7540(15) 0.0155 Uiso
O8_2 O 0.1164(6) 0.5082(7) 0.8850(11) 0.0155 Uiso
O9_2 O 0.2156(7) 0.4181(6) 0.9707(11) 0.0155 Uiso
H5_2 H 0.230153 0.747805 0.8839 . .
O2_3 O 0.6164(6) 0.5082(7) 0.6150(11) 0.0155 Uiso
O3_3 O 0.6681(6) 0.5344(7) 0.7793(11) 0.0155 Uiso
O4_3 O 0.3299(6) 0.5572(7) 0.7742(11) 0.0155 Uiso
C1_3 C 0.5565(4) 0.5665(2) 0.9127(6) 0.0155 Uiso
C2_3 C 0.5555(4) 0.5444(3) 0.7907(6) 0.0155 Uiso
C3_3 C 0.4986(4) 0.5371(2) 0.7288(7) 0.0155 Uiso
C4_3 C 0.5006(4) 0.5813(2) 0.9729(7) 0.0155 Uiso
C5_3 C 0.4427(4) 0.5520(2) 0.7890(6) 0.0155 Uiso
C6_3 C 0.6173(5) 0.5279(4) 0.7240(9) 0.0155 Uiso
C7_3 C 0.3798(5) 0.5440(3) 0.7204(9) 0.0155 Uiso
C8_3 C 0.4438(4) 0.5741(3) 0.9110(6) 0.0155 Uiso
Al3_3 Al 0.6818(3) 0.4961(6) 0.5040(15) 0.0155 Uiso
Al4_3 Al 0.7461(6) 0.5682(3) 0.7540(15) 0.0155 Uiso
O8_3 O 0.2582(7) 0.6336(6) 0.6350(11) 0.0155 Uiso
O9_3 O 0.1681(6) 0.5344(7) 0.7207(11) 0.0155 Uiso
H4_3 H 0.400363 0.585707 0.957801 . .
H5_3 H 0.497805 0.519847 0.6339 . .
H6_3 H 0.600739 0.572191 0.960833 . .
O4_4 O 0.1701(6) 0.4428(7) 0.2742(11) 0.0155 Uiso
C3_4 C 0.0014(4) 0.4629(2) 0.2288(7) 0.0155 Uiso
C5_4 C 0.0573(4) 0.4480(2) 0.2890(6) 0.0155 Uiso
C7_4 C 0.1202(5) 0.4560(3) 0.2204(9) 0.0155 Uiso
C8_4 C 0.0562(4) 0.4259(3) 0.4110(6) 0.0155 Uiso
O8_4 O 0.2418(7) 0.3664(6) 0.1350(11) 0.0155 Uiso
O9_4 O 0.3319(6) 0.4656(7) 0.2207(11) 0.0155 Uiso
H1_3 H 0.00869405 0.380655 0.852969 . .
H3_3 H 0.00889795 0.305827 0.782147 . .
H4_4 H 0.0996366 0.414293 0.457801 . .
H5_4 H 0.00219492 0.480153 0.1339 . .
H7_3 H 0.0421638 0.396141 0.62836 . .
O2_4 O 0.8836(6) 0.4918(7) 0.1150(11) 0.0155 Uiso
O3_4 O 0.8319(6) 0.4656(7) 0.2793(11) 0.0155 Uiso
C1_4 C 0.9435(4) 0.4335(2) 0.4127(6) 0.0155 Uiso
C2_4 C 0.9445(4) 0.4556(3) 0.2907(6) 0.0155 Uiso
C4_4 C 0.9994(4) 0.4187(2) 0.4729(7) 0.0155 Uiso
C6_4 C 0.8827(5) 0.4721(4) 0.2240(9) 0.0155 Uiso
N1_3 N 0.9983(5) 0.3969(3) 0.5932(9) 0.0155 Uiso
C9_3 C 0.9806(7) 0.3466(10) 0.8032(16) 0.0155 Uiso
C10_3 C 0.9565(6) 0.3758(7) 0.6809(14) 0.0155 Uiso
O6_3 O 0.8993(6) 0.3803(15) 0.6616(17) 0.0155 Uiso
Al3_4 Al 0.8182(3) 0.5039(6) 0.0040(15) 0.0155 Uiso
Al4_4 Al 0.7539(6) 0.4318(3) 0.2540(15) 0.0155 Uiso
H2_3 H 0.941143 0.332799 0.860426 . .
H6_4 H 0.899261 0.427809 0.460833 . .
O7_3 O 0.8788(6) 0.0243(6) 0.1115(11) 0.0155 Uiso
O10_3 O 0.7592(11) 0.0097(11) 0.122(2) 0.0155 Uiso
Al1_3 Al 0.8182(3) 0.0039(6) 0.9960(15) 0.0155 Uiso
O9_5 O 0.7844(7) 0.0819(6) 0.9707(11) 0.0155 Uiso
O3_5 O 0.7844(7) 0.5819(6) 0.0293(11) 0.0155 Uiso
O4_5 O 0.8072(7) 0.9201(6) 0.0242(11) 0.0155 Uiso
C1_5 C 0.8165(2) 0.6935(4) 0.1627(6) 0.0155 Uiso
C2_5 C 0.7944(3) 0.6945(4) 0.0407(6) 0.0155 Uiso
C4_5 C 0.8313(2) 0.7494(4) 0.2229(7) 0.0155 Uiso
C5_5 C 0.8020(2) 0.8073(4) 0.0390(6) 0.0155 Uiso
C8_5 C 0.8241(3) 0.8062(4) 0.1610(6) 0.0155 Uiso
N1_4 N 0.8531(3) 0.7483(5) 0.3432(9) 0.0155 Uiso
C9_4 C 0.9034(10) 0.7306(7) 0.5532(16) 0.0155 Uiso
C10_4 C 0.8742(7) 0.7065(6) 0.4309(14) 0.0155 Uiso
O6_4 O 0.8697(15) 0.6493(6) 0.4116(17) 0.0155 Uiso
H1_4 H 0.869345 0.758694 0.602969 . .
H2_4 H 0.917201 0.691143 0.610426 . .
H3_4 H 0.944173 0.758898 0.532147 . .
H4_5 H 0.835707 0.849637 0.207801 . .
H6_5 H 0.822191 0.649261 0.210833 . .
H7_4 H 0.853859 0.792164 0.37836 . .
O1_3 O 0.7743(6) 0.8712(6) 0.8615(11) 0.0155 Uiso
O2_5 O 0.7582(7) 0.6336(6) 0.8650(11) 0.0155 Uiso
O5_3 O 0.7597(11) 0.9908(11) 0.872(2) 0.0155 Uiso
C3_5 C 0.7871(2) 0.7514(4) 0.9788(7) 0.0155 Uiso
C6_5 C 0.7779(4) 0.6327(5) 0.9740(9) 0.0155 Uiso
C7_5 C 0.7940(3) 0.8702(5) 0.9704(9) 0.0155 Uiso
Al2_3 Al 0.7539(6) 0.9318(3) 0.7460(15) 0.0155 Uiso
O8_5 O 0.8836(6) 0.9918(7) 0.8850(11) 0.0155 Uiso
H5_5 H 0.769847 0.752195 0.8839 . .
O1_4 O 0.7257(6) 0.1288(6) 0.3615(11) 0.0155 Uiso
O2_6 O 0.7418(7) 0.3664(6) 0.3650(11) 0.0155 Uiso
O3_6 O 0.7156(7) 0.4181(6) 0.5293(11) 0.0155 Uiso
O4_6 O 0.6928(7) 0.0799(6) 0.5242(11) 0.0155 Uiso
O5_4 O 0.7403(11) 0.0092(11) 0.372(2) 0.0155 Uiso
C1_6 C 0.6835(2) 0.3065(4) 0.6627(6) 0.0155 Uiso
C2_6 C 0.7056(3) 0.3055(4) 0.5407(6) 0.0155 Uiso
C3_6 C 0.7129(2) 0.2486(4) 0.4788(7) 0.0155 Uiso
C4_6 C 0.6687(2) 0.2506(4) 0.7229(7) 0.0155 Uiso
C5_6 C 0.6980(2) 0.1927(4) 0.5390(6) 0.0155 Uiso
C6_6 C 0.7221(4) 0.3673(5) 0.4740(9) 0.0155 Uiso
C7_6 C 0.7060(3) 0.1298(5) 0.4704(9) 0.0155 Uiso
C8_6 C 0.6759(3) 0.1938(4) 0.6610(6) 0.0155 Uiso
N1_5 N 0.6469(3) 0.2517(5) 0.8432(9) 0.0155 Uiso
C10_5 C 0.6258(7) 0.2935(6) 0.9309(14) 0.0155 Uiso
O6_5 O 0.6303(15) 0.3507(6) 0.9116(17) 0.0155 Uiso
Al2_4 Al 0.7461(6) 0.0682(3) 0.2460(15) 0.0155 Uiso
O8_6 O 0.6164(6) 0.0082(7) 0.3850(11) 0.0155 Uiso
H4_6 H 0.664293 0.150363 0.707801 . .
H5_6 H 0.730153 0.247805 0.3839 . .
H6_6 H 0.677809 0.350739 0.710833 . .
H7_5 H 0.646141 0.207836 0.87836 . .
Al1_4 Al 0.6818(3) 0.9961(6) 0.4960(15) 0.0155 Uiso
O7_4 O 0.6212(6) 0.9757(6) 0.6115(11) 0.0155 Uiso
O9_6 O 0.7156(7) 0.9181(6) 0.4707(11) 0.0155 Uiso
O10_4 O 0.7408(11) 0.9903(11) 0.622(2) 0.0155 Uiso
O2_7 O 0.1164(6) 0.0082(7) 0.1150(11) 0.0155 Uiso
O3_7 O 0.1681(6) 0.0344(7) 0.2793(11) 0.0155 Uiso
C1_7 C 0.0565(4) 0.0665(2) 0.4127(6) 0.0155 Uiso
C2_7 C 0.0555(4) 0.0444(3) 0.2907(6) 0.0155 Uiso
C4_7 C 0.0006(4) 0.0813(2) 0.4729(7) 0.0155 Uiso
C6_7 C 0.1173(5) 0.0279(4) 0.2240(9) 0.0155 Uiso
N1_6 N 0.0017(5) 0.1031(3) 0.5932(9) 0.0155 Uiso
C9_5 C 0.0194(7) 0.1534(10) 0.8032(16) 0.0155 Uiso
C10_6 C 0.0435(6) 0.1242(7) 0.6809(14) 0.0155 Uiso
O6_6 O 0.1007(6) 0.1197(15) 0.6616(17) 0.0155 Uiso
H2_5 H 0.0588565 0.167201 0.860426 . .
H6_7 H 0.100739 0.072191 0.460833 . .
O4_7 O 0.8299(6) 0.0572(7) 0.2742(11) 0.0155 Uiso
C3_7 C 0.9986(4) 0.0371(2) 0.2288(7) 0.0155 Uiso
C5_7 C 0.9427(4) 0.0520(2) 0.2890(6) 0.0155 Uiso
C7_7 C 0.8798(5) 0.0440(3) 0.2204(9) 0.0155 Uiso
C8_7 C 0.9438(4) 0.0741(3) 0.4110(6) 0.0155 Uiso
O8_7 O 0.7582(7) 0.1336(6) 0.1350(11) 0.0155 Uiso
O9_7 O 0.6681(6) 0.0344(7) 0.2207(11) 0.0155 Uiso
H1_5 H 0.991306 0.119345 0.852969 . .
H3_5 H 0.991102 0.194173 0.782147 . .
H4_7 H 0.900363 0.0857074 0.457801 . .
H5_7 H 0.997805 0.0198467 0.1339 . .
H7_6 H 0.957836 0.103859 0.62836 . .
O2_8 O 0.3836(6) 0.9918(7) 0.6150(11) 0.0155 Uiso
O3_8 O 0.3319(6) 0.9656(7) 0.7793(11) 0.0155 Uiso
O4_8 O 0.6701(6) 0.9428(7) 0.7742(11) 0.0155 Uiso
C1_8 C 0.4435(4) 0.9335(2) 0.9127(6) 0.0155 Uiso
C2_8 C 0.4445(4) 0.9556(3) 0.7907(6) 0.0155 Uiso
C3_8 C 0.5014(4) 0.9629(2) 0.7288(7) 0.0155 Uiso
C4_8 C 0.4994(4) 0.9187(2) 0.9729(7) 0.0155 Uiso
C5_8 C 0.5573(4) 0.9480(2) 0.7890(6) 0.0155 Uiso
C6_8 C 0.3827(5) 0.9721(4) 0.7240(9) 0.0155 Uiso
C7_8 C 0.6202(5) 0.9560(3) 0.7204(9) 0.0155 Uiso
C8_8 C 0.5562(4) 0.9259(3) 0.9110(6) 0.0155 Uiso
O8_8 O 0.7418(7) 0.8664(6) 0.6350(11) 0.0155 Uiso
O9_8 O 0.8319(6) 0.9656(7) 0.7207(11) 0.0155 Uiso
H4_8 H 0.599637 0.914293 0.957801 . .
H5_8 H 0.502195 0.980153 0.6339 . .
H6_8 H 0.399261 0.927809 0.960833 . .
O1_5 O 0.7257(6) 0.6288(6) 0.6385(11) 0.0155 Uiso
O4_9 O 0.6928(7) 0.5799(6) 0.4758(11) 0.0155 Uiso
O5_5 O 0.7403(11) 0.5092(11) 0.628(2) 0.0155 Uiso
C1_9 C 0.6835(2) 0.8065(4) 0.3373(6) 0.0155 Uiso
C2_9 C 0.7056(3) 0.8055(4) 0.4593(6) 0.0155 Uiso
C3_9 C 0.7129(2) 0.7486(4) 0.5212(7) 0.0155 Uiso
C4_9 C 0.6687(2) 0.7506(4) 0.2771(7) 0.0155 Uiso
C5_9 C 0.6980(2) 0.6927(4) 0.4610(6) 0.0155 Uiso
C6_9 C 0.7221(4) 0.8673(5) 0.5260(9) 0.0155 Uiso
C7_9 C 0.7060(3) 0.6298(5) 0.5296(9) 0.0155 Uiso
C8_9 C 0.6759(3) 0.6938(4) 0.3390(6) 0.0155 Uiso
N1_7 N 0.6469(3) 0.7517(5) 0.1568(9) 0.0155 Uiso
C10_7 C 0.6258(7) 0.7935(6) 0.0691(14) 0.0155 Uiso
O6_7 O 0.6303(15) 0.8507(6) 0.0884(17) 0.0155 Uiso
O7_5 O 0.6212(6) 0.4757(6) 0.3885(11) 0.0155 Uiso
O10_5 O 0.7408(11) 0.4903(11) 0.378(2) 0.0155 Uiso
H4_9 H 0.664293 0.650363 0.292199 . .
H5_9 H 0.730153 0.747805 0.6161 . .
H6_9 H 0.677809 0.850739 0.289167 . .
H7_7 H 0.646141 0.707836 0.12164 . .
O1_6 O 0.7743(6) 0.3712(6) 0.1385(11) 0.0155 Uiso
O5_6 O 0.7597(11) 0.4908(11) 0.128(2) 0.0155 Uiso
C3_10 C 0.7871(2) 0.2514(4) 0.0212(7) 0.0155 Uiso
C6_10 C 0.7779(4) 0.1327(5) 0.0260(9) 0.0155 Uiso
C7_10 C 0.7940(3) 0.3702(5) 0.0296(9) 0.0155 Uiso
H5_10 H 0.769847 0.252195 0.1161 . .
O4_10 O 0.8072(7) 0.4201(6) 0.9758(11) 0.0155 Uiso
C1_10 C 0.8165(2) 0.1935(4) 0.8373(6) 0.0155 Uiso
C2_10 C 0.7944(3) 0.1945(4) 0.9593(6) 0.0155 Uiso
C4_10 C 0.8313(2) 0.2494(4) 0.7771(7) 0.0155 Uiso
C5_10 C 0.8020(2) 0.3073(4) 0.9610(6) 0.0155 Uiso
C8_10 C 0.8241(3) 0.3062(4) 0.8390(6) 0.0155 Uiso
N1_8 N 0.8531(3) 0.2483(5) 0.6568(9) 0.0155 Uiso
C9_6 C 0.9034(10) 0.2306(7) 0.4468(16) 0.0155 Uiso
C10_8 C 0.8742(7) 0.2065(6) 0.5691(14) 0.0155 Uiso
O6_8 O 0.8697(15) 0.1493(6) 0.5884(17) 0.0155 Uiso
O7_6 O 0.8788(6) 0.5243(6) 0.8885(11) 0.0155 Uiso
O10_6 O 0.7592(11) 0.5097(11) 0.878(2) 0.0155 Uiso
H1_6 H 0.869345 0.258694 0.397031 . .
H2_6 H 0.917201 0.191143 0.389574 . .
H3_6 H 0.944173 0.258898 0.467853 . .
H4_10 H 0.835707 0.349637 0.792199 . .
H6_10 H 0.822191 0.149261 0.789167 . .
H7_8 H 0.853859 0.292164 0.62164 . .
O4_11 O 0.6701(6) 0.4428(7) 0.2258(11) 0.0155 Uiso
C1_11 C 0.4435(4) 0.4335(2) 0.0873(6) 0.0155 Uiso
C2_11 C 0.4445(4) 0.4556(3) 0.2093(6) 0.0155 Uiso
C3_11 C 0.5014(4) 0.4629(2) 0.2712(7) 0.0155 Uiso
C4_11 C 0.4994(4) 0.4187(2) 0.0271(7) 0.0155 Uiso
C5_11 C 0.5573(4) 0.4480(2) 0.2110(6) 0.0155 Uiso
C6_11 C 0.3827(5) 0.4721(4) 0.2760(9) 0.0155 Uiso
C7_11 C 0.6202(5) 0.4560(3) 0.2796(9) 0.0155 Uiso
C8_11 C 0.5562(4) 0.4259(3) 0.0890(6) 0.0155 Uiso
H4_11 H 0.599637 0.414293 0.0421986 . .
H5_11 H 0.502195 0.480153 0.3661 . .
H6_11 H 0.399261 0.427809 0.0391668 . .
C1_12 C 0.0565(4) 0.5665(2) 0.5873(6) 0.0155 Uiso
C2_12 C 0.0555(4) 0.5444(3) 0.7093(6) 0.0155 Uiso
C4_12 C 0.0006(4) 0.5813(2) 0.5271(7) 0.0155 Uiso
C6_12 C 0.1173(5) 0.5279(4) 0.7760(9) 0.0155 Uiso
N1_9 N 0.0017(5) 0.6031(3) 0.4068(9) 0.0155 Uiso
C9_7 C 0.0194(7) 0.6534(10) 0.1968(16) 0.0155 Uiso
C10_9 C 0.0435(6) 0.6242(7) 0.3191(14) 0.0155 Uiso
O6_9 O 0.1007(6) 0.6197(15) 0.3384(17) 0.0155 Uiso
H2_7 H 0.0588565 0.667201 0.139574 . .
H6_12 H 0.100739 0.572191 0.539167 . .
O4_12 O 0.8299(6) 0.5572(7) 0.7258(11) 0.0155 Uiso
C3_12 C 0.9986(4) 0.5371(2) 0.7712(7) 0.0155 Uiso
C5_12 C 0.9427(4) 0.5520(2) 0.7110(6) 0.0155 Uiso
C7_12 C 0.8798(5) 0.5440(3) 0.7796(9) 0.0155 Uiso
C8_12 C 0.9438(4) 0.5741(3) 0.5890(6) 0.0155 Uiso
H1_7 H 0.991306 0.619345 0.147031 . .
H3_7 H 0.991102 0.694173 0.217853 . .
H4_12 H 0.900363 0.585707 0.542199 . .
H5_12 H 0.997805 0.519847 0.8661 . .
H7_9 H 0.957836 0.603859 0.37164 . .
O1_7 O 0.2257(6) 0.1288(6) 0.1385(11) 0.0155 Uiso
O5_7 O 0.2403(11) 0.0092(11) 0.128(2) 0.0155 Uiso
C3_13 C 0.2129(2) 0.2486(4) 0.0212(7) 0.0155 Uiso
C6_13 C 0.2221(4) 0.3673(5) 0.0260(9) 0.0155 Uiso
C7_13 C 0.2060(3) 0.1298(5) 0.0296(9) 0.0155 Uiso
H5_13 H 0.230153 0.247805 0.1161 . .
O4_13 O 0.1928(7) 0.0799(6) 0.9758(11) 0.0155 Uiso
C1_13 C 0.1835(2) 0.3065(4) 0.8373(6) 0.0155 Uiso
C2_13 C 0.2056(3) 0.3055(4) 0.9593(6) 0.0155 Uiso
C4_13 C 0.1687(2) 0.2506(4) 0.7771(7) 0.0155 Uiso
C5_13 C 0.1980(2) 0.1927(4) 0.9610(6) 0.0155 Uiso
C8_13 C 0.1759(3) 0.1938(4) 0.8390(6) 0.0155 Uiso
N1_10 N 0.1469(3) 0.2517(5) 0.6568(9) 0.0155 Uiso
C9_8 C 0.0966(10) 0.2694(7) 0.4468(16) 0.0155 Uiso
C10_10 C 0.1258(7) 0.2935(6) 0.5691(14) 0.0155 Uiso
O6_10 O 0.1303(15) 0.3507(6) 0.5884(17) 0.0155 Uiso
H1_8 H 0.130655 0.241306 0.397031 . .
H2_8 H 0.0827986 0.308857 0.389574 . .
H3_8 H 0.0558272 0.241102 0.467853 . .
H4_13 H 0.164293 0.150363 0.792199 . .
H6_13 H 0.177809 0.350739 0.789167 . .
H7_10 H 0.146141 0.207836 0.62164 . .
O7_7 O 0.1212(6) 0.9757(6) 0.8885(11) 0.0155 Uiso
O10_7 O 0.2408(11) 0.9903(11) 0.878(2) 0.0155 Uiso
O7_8 O 0.3788(6) 0.0243(6) 0.3885(11) 0.0155 Uiso
O10_8 O 0.2592(11) 0.0097(11) 0.378(2) 0.0155 Uiso
O1_8 O 0.2743(6) 0.8712(6) 0.6385(11) 0.0155 Uiso
O4_14 O 0.3072(7) 0.9201(6) 0.4758(11) 0.0155 Uiso
O5_8 O 0.2597(11) 0.9908(11) 0.628(2) 0.0155 Uiso
C1_14 C 0.3165(2) 0.6935(4) 0.3373(6) 0.0155 Uiso
C2_14 C 0.2944(3) 0.6945(4) 0.4593(6) 0.0155 Uiso
C3_14 C 0.2871(2) 0.7514(4) 0.5212(7) 0.0155 Uiso
C4_14 C 0.3313(2) 0.7494(4) 0.2771(7) 0.0155 Uiso
C5_14 C 0.3020(2) 0.8073(4) 0.4610(6) 0.0155 Uiso
C6_14 C 0.2779(4) 0.6327(5) 0.5260(9) 0.0155 Uiso
C7_14 C 0.2940(3) 0.8702(5) 0.5296(9) 0.0155 Uiso
C8_14 C 0.3241(3) 0.8062(4) 0.3390(6) 0.0155 Uiso
N1_11 N 0.3531(3) 0.7483(5) 0.1568(9) 0.0155 Uiso
C10_11 C 0.3742(7) 0.7065(6) 0.0691(14) 0.0155 Uiso
O6_11 O 0.3697(15) 0.6493(6) 0.0884(17) 0.0155 Uiso
H4_14 H 0.335707 0.849637 0.292199 . .
H5_14 H 0.269847 0.752195 0.6161 . .
H6_14 H 0.322191 0.649261 0.289167 . .
H7_11 H 0.353859 0.792164 0.12164 . .
O4_15 O 0.1701(6) 0.9428(7) 0.7258(11) 0.0155 Uiso
C3_15 C 0.0014(4) 0.9629(2) 0.7712(7) 0.0155 Uiso
C5_15 C 0.0573(4) 0.9480(2) 0.7110(6) 0.0155 Uiso
C7_15 C 0.1202(5) 0.9560(3) 0.7796(9) 0.0155 Uiso
C8_15 C 0.0562(4) 0.9259(3) 0.5890(6) 0.0155 Uiso
H1_9 H 0.00869405 0.880655 0.147031 . .
H3_9 H 0.00889795 0.805827 0.217853 . .
H4_15 H 0.0996366 0.914293 0.542199 . .
H5_15 H 0.00219492 0.980153 0.8661 . .
H7_12 H 0.0421638 0.896141 0.37164 . .
C1_15 C 0.9435(4) 0.9335(2) 0.5873(6) 0.0155 Uiso
C2_15 C 0.9445(4) 0.9556(3) 0.7093(6) 0.0155 Uiso
C4_15 C 0.9994(4) 0.9187(2) 0.5271(7) 0.0155 Uiso
C6_15 C 0.8827(5) 0.9721(4) 0.7760(9) 0.0155 Uiso
N1_12 N 0.9983(5) 0.8969(3) 0.4068(9) 0.0155 Uiso
C9_9 C 0.9806(7) 0.8466(10) 0.1968(16) 0.0155 Uiso
C10_12 C 0.9565(6) 0.8758(7) 0.3191(14) 0.0155 Uiso
O6_12 O 0.8993(6) 0.8803(15) 0.3384(17) 0.0155 Uiso
H2_9 H 0.941143 0.832799 0.139574 . .
H6_15 H 0.899261 0.927809 0.539167 . .
O4_16 O 0.3299(6) 0.0572(7) 0.2258(11) 0.0155 Uiso
C1_16 C 0.5565(4) 0.0665(2) 0.0873(6) 0.0155 Uiso
C2_16 C 0.5555(4) 0.0444(3) 0.2093(6) 0.0155 Uiso
C3_16 C 0.4986(4) 0.0371(2) 0.2712(7) 0.0155 Uiso
C4_16 C 0.5006(4) 0.0813(2) 0.0271(7) 0.0155 Uiso
C5_16 C 0.4427(4) 0.0520(2) 0.2110(6) 0.0155 Uiso
C6_16 C 0.6173(5) 0.0279(4) 0.2760(9) 0.0155 Uiso
C7_16 C 0.3798(5) 0.0440(3) 0.2796(9) 0.0155 Uiso
C8_16 C 0.4438(4) 0.0741(3) 0.0890(6) 0.0155 Uiso
H4_16 H 0.400363 0.0857074 0.0421986 . .
H5_16 H 0.497805 0.0198467 0.3661 . .
H6_16 H 0.600739 0.072191 0.0391668 . .
N1_13 N 0.5017(5) 0.6031(3) 0.0932(9) 0.0155 Uiso
C9_10 C 0.5194(7) 0.6534(10) 0.3032(16) 0.0155 Uiso
C10_13 C 0.5435(6) 0.6242(7) 0.1809(14) 0.0155 Uiso
O6_13 O 0.6007(6) 0.6197(15) 0.1616(17) 0.0155 Uiso
H1_10 H 0.491306 0.619345 0.352969 . .
H2_10 H 0.558857 0.667201 0.360426 . .
H3_10 H 0.491102 0.694173 0.282147 . .
H7_13 H 0.457836 0.603859 0.12836 . .
C9_11 C 0.5966(10) 0.2694(7) 0.0532(16) 0.0155 Uiso
H1_11 H 0.630655 0.241306 0.102969 . .
H2_11 H 0.582799 0.308857 0.110426 . .
H3_11 H 0.555827 0.241102 0.032147 . .
N1_14 N 0.4983(5) 0.8969(3) 0.0932(9) 0.0155 Uiso
C9_12 C 0.4806(7) 0.8466(10) 0.3032(16) 0.0155 Uiso
C10_14 C 0.4565(6) 0.8758(7) 0.1809(14) 0.0155 Uiso
O6_14 O 0.3993(6) 0.8803(15) 0.1616(17) 0.0155 Uiso
H1_12 H 0.508694 0.880655 0.352969 . .
H2_12 H 0.441143 0.832799 0.360426 . .
H3_12 H 0.508898 0.805827 0.282147 . .
H7_14 H 0.542164 0.896141 0.12836 . .
C9_13 C 0.5966(10) 0.7694(7) 0.9468(16) 0.0155 Uiso
H1_13 H 0.630655 0.741306 0.897031 . .
H2_13 H 0.582799 0.808857 0.889574 . .
H3_13 H 0.555827 0.741102 0.967853 . .
N1_15 N 0.4983(5) 0.3969(3) 0.9068(9) 0.0155 Uiso
C9_14 C 0.4806(7) 0.3466(10) 0.6968(16) 0.0155 Uiso
C10_15 C 0.4565(6) 0.3758(7) 0.8191(14) 0.0155 Uiso
O6_15 O 0.3993(6) 0.3803(15) 0.8384(17) 0.0155 Uiso
H1_14 H 0.508694 0.380655 0.647031 . .
H2_14 H 0.441143 0.332799 0.639574 . .
H3_14 H 0.508898 0.305827 0.717853 . .
H7_15 H 0.542164 0.396141 0.87164 . .
C9_15 C 0.4034(10) 0.7306(7) 0.9468(16) 0.0155 Uiso
H1_15 H 0.369345 0.758694 0.897031 . .
H2_15 H 0.417201 0.691143 0.889574 . .
H3_15 H 0.444173 0.758898 0.967853 . .
N1_16 N 0.5017(5) 0.1031(3) 0.9068(9) 0.0155 Uiso
C9_16 C 0.5194(7) 0.1534(10) 0.6968(16) 0.0155 Uiso
C10_16 C 0.5435(6) 0.1242(7) 0.8191(14) 0.0155 Uiso
O6_16 O 0.6007(6) 0.1197(15) 0.8384(17) 0.0155 Uiso
H1_16 H 0.491306 0.119345 0.647031 . .
H2_16 H 0.558857 0.167201 0.639574 . .
H3_16 H 0.491102 0.194173 0.717853 . .
H7_16 H 0.457836 0.103859 0.87164 . .
loop_
_geom_bond_atom_site_label_1
_geom_bond_atom_site_label_2
_geom_bond_site_symmetry_1
_geom_bond_site_symmetry_2
C9 H1 1_555 1_555
C9 H2 1_555 1_555
C9 H3 1_555 1_555
Al1 O4 1_555 1_555
O1 C7 1_555 1_555
O2 C6 1_555 1_555
O3 C6 1_555 1_555
O4 C7 1_555 1_555
O5 Al1 1_555 1_555
C1 C2 1_555 1_555
C2 C3 1_555 1_555
C3 C5 1_555 1_555
C4 C1 1_555 1_555
C5 C7 1_555 1_555
C6 C2 1_555 1_555
C8 C4 1_555 1_555
N1 C4 1_555 1_555
C10 N1 1_555 1_555
O6 C10 1_555 1_555
Al2 O1 1_555 1_555
Al3 O2 1_555 1_555
Al4 O3 1_555 1_555
O7 Al1 1_555 1_555
O8 Al1 1_555 1_555
O9 Al1 1_555 1_555
O10 Al1 1_555 1_555
O5 Al2 1_555 1_555
C5 C8 1_555 1_555
C8 H4 1_555 1_555
C3 H5 1_555 1_555
C1 H6 1_555 1_555
N1 H7 1_555 1_555
C1_2 C2_2 1_555 1_555
C4_2 C1_2 1_555 1_555
C8_2 C4_2 1_555 1_555
N1_2 C4_2 1_555 1_555
C9_2 C10_2 1_555 1_555
C10_2 N1_2 1_555 1_555
O6_2 C10_2 1_555 1_555
Al4_2 O3_2 1_555 1_555
C5_2 C8_2 1_555 1_555
C9_2 H1_2 1_555 1_555
C9_2 H2_2 1_555 1_555
C9_2 H3_2 1_555 1_555
C8_2 H4_2 1_555 1_555
C1_2 H6_2 1_555 1_555
N1_2 H7_2 1_555 1_555
O1_2 C7_2 1_555 1_555
O2_2 C6_2 1_555 1_555
O5_2 Al1_2 1_555 1_555
Al2_2 O1_2 1_555 1_555
Al3_2 O2_2 1_555 1_555
O8_2 Al1_2 1_555 1_555
O9_2 Al1_2 1_555 1_555
O5_2 Al2_2 1_555 1_555
C3_2 H5_2 1_555 1_555
Al2_2 O4_3 1_555 1_555
O7 C7_3 1_555 1_555
O2_3 C6_3 1_555 1_555
O3_3 C6_3 1_555 1_555
O4_3 C7_3 1_555 1_555
O10 Al2_2 1_555 1_555
C1_3 C2_3 1_555 1_555
C2_3 C3_3 1_555 1_555
C3_3 C5_3 1_555 1_555
C4_3 C1_3 1_555 1_555
C5_3 C7_3 1_555 1_555
C6_3 C2_3 1_555 1_555
C8_3 C4_3 1_555 1_555
Al3_3 O2_3 1_555 1_555
Al4_3 O3_3 1_555 1_555
O8_3 Al2_2 1_555 1_555
O9_3 Al2_2 1_555 1_555
C5_3 C8_3 1_555 1_555
C8_3 H4_3 1_555 1_555
C3_3 H5_3 1_555 1_555
C1_3 H6_3 1_555 1_555
Al2 O4_4 1_555 1_555
O7_2 C7_4 1_555 1_555
O4_4 C7_4 1_555 1_555
O10_2 Al2 1_555 1_555
C3_4 C5_4 1_555 1_555
C5_4 C7_4 1_555 1_555
O8_4 Al2 1_555 1_555
O9_4 Al2 1_555 1_555
C5_4 C8_4 1_555 1_555
C8_4 H4_4 1_555 1_555
C3_4 H5_4 1_555 1_555
O2_4 C6_4 1_555 1_555
O3_4 C6_4 1_555 1_555
C1_4 C2_4 1_555 1_555
C4_4 C1_4 1_555 1_555
C6_4 C2_4 1_555 1_555
N1_3 C4_4 1_555 1_555
C9_3 C10_3 1_555 1_555
C10_3 N1_3 1_555 1_555
O6_3 C10_3 1_555 1_555
Al3_4 O2_4 1_555 1_555
Al4_4 O3_4 1_555 1_555
C9_3 H2_3 1_555 1_555
C1_4 H6_4 1_555 1_555
O9_5 Al1_3 1_555 1_555
C1_5 C2_5 1_555 1_555
C4_5 C1_5 1_555 1_555
C8_5 C4_5 1_555 1_555
N1_4 C4_5 1_555 1_555
C9_4 C10_4 1_555 1_555
C10_4 N1_4 1_555 1_555
O6_4 C10_4 1_555 1_555
Al3_4 O3_5 1_555 1_555
C5_5 C8_5 1_555 1_555
C9_4 H1_4 1_555 1_555
C9_4 H2_4 1_555 1_555
C9_4 H3_4 1_555 1_555
C8_5 H4_5 1_555 1_555
C1_5 H6_5 1_555 1_555
N1_4 H7_4 1_555 1_555
O1_3 C7_5 1_555 1_555
O2_5 C6_5 1_555 1_555
Al2_3 O1_3 1_555 1_555
Al4_3 O2_5 1_555 1_555
O5_3 Al2_3 1_555 1_555
C3_5 H5_5 1_555 1_555
O1_4 C7_6 1_555 1_555
O2_6 C6_6 1_555 1_555
O3_6 C6_6 1_555 1_555
O4_6 C7_6 1_555 1_555
C1_6 C2_6 1_555 1_555
C2_6 C3_6 1_555 1_555
C3_6 C5_6 1_555 1_555
C4_6 C1_6 1_555 1_555
C5_6 C7_6 1_555 1_555
C6_6 C2_6 1_555 1_555
C8_6 C4_6 1_555 1_555
N1_5 C4_6 1_555 1_555
C10_5 N1_5 1_555 1_555
O6_5 C10_5 1_555 1_555
Al2_4 O1_4 1_555 1_555
Al4_4 O2_6 1_555 1_555
Al3_3 O3_6 1_555 1_555
O5_4 Al2_4 1_555 1_555
C5_6 C8_6 1_555 1_555
C8_6 H4_6 1_555 1_555
C3_6 H5_6 1_555 1_555
C1_6 H6_6 1_555 1_555
N1_5 H7_5 1_555 1_555
O7_4 Al1_4 1_555 1_555
O9_6 Al1_4 1_555 1_555
O10_4 Al1_4 1_555 1_555
O2_7 C6_7 1_555 1_555
O3_7 C6_7 1_555 1_555
C1_7 C2_7 1_555 1_555
C4_7 C1_7 1_555 1_555
C6_7 C2_7 1_555 1_555
N1_6 C4_7 1_555 1_555
C9_5 C10_6 1_555 1_555
C10_6 N1_6 1_555 1_555
O6_6 C10_6 1_555 1_555
Al3 O3_7 1_555 1_555
C9_5 H2_5 1_555 1_555
C1_7 H6_7 1_555 1_555
Al2_4 O4_7 1_555 1_555
O7_3 C7_7 1_555 1_555
O4_7 C7_7 1_555 1_555
O10_3 Al2_4 1_555 1_555
C3_7 C5_7 1_555 1_555
C5_7 C7_7 1_555 1_555
O8_7 Al2_4 1_555 1_555
O9_7 Al2_4 1_555 1_555
C5_7 C8_7 1_555 1_555
C8_7 H4_7 1_555 1_555
C3_7 H5_7 1_555 1_555
Al2_3 O4_8 1_555 1_555
O7_4 C7_8 1_555 1_555
O2_8 C6_8 1_555 1_555
O3_8 C6_8 1_555 1_555
O4_8 C7_8 1_555 1_555
O10_4 Al2_3 1_555 1_555
C1_8 C2_8 1_555 1_555
C2_8 C3_8 1_555 1_555
C3_8 C5_8 1_555 1_555
C4_8 C1_8 1_555 1_555
C5_8 C7_8 1_555 1_555
C6_8 C2_8 1_555 1_555
C8_8 C4_8 1_555 1_555
Al3_2 O3_8 1_555 1_555
O8_8 Al2_3 1_555 1_555
O9_8 Al2_3 1_555 1_555
C5_8 C8_8 1_555 1_555
C8_8 H4_8 1_555 1_555
C3_8 H5_8 1_555 1_555
C1_8 H6_8 1_555 1_555
Al3_3 O4_9 1_555 1_555
O1_5 C7_9 1_555 1_555
O8_8 C6_9 1_555 1_555
O9_6 C6_9 1_555 1_555
O4_9 C7_9 1_555 1_555
O5_5 Al3_3 1_555 1_555
C1_9 C2_9 1_555 1_555
C2_9 C3_9 1_555 1_555
C3_9 C5_9 1_555 1_555
C4_9 C1_9 1_555 1_555
C5_9 C7_9 1_555 1_555
C6_9 C2_9 1_555 1_555
C8_9 C4_9 1_555 1_555
N1_7 C4_9 1_555 1_555
C10_7 N1_7 1_555 1_555
O6_7 C10_7 1_555 1_555
Al4_3 O1_5 1_555 1_555
O7_5 Al3_3 1_555 1_555
O10_5 Al3_3 1_555 1_555
O5_5 Al4_3 1_555 1_555
C5_9 C8_9 1_555 1_555
C8_9 H4_9 1_555 1_555
C3_9 H5_9 1_555 1_555
C1_9 H6_9 1_555 1_555
N1_7 H7_7 1_555 1_555
O1_6 C7_10 1_555 1_555
O8_7 C6_10 1_555 1_555
O5_6 Al3_4 1_555 1_555
Al4_4 O1_6 1_555 1_555
O5_6 Al4_4 1_555 1_555
C3_10 H5_10 1_555 1_555
C1_10 C2_10 1_555 1_555
C4_10 C1_10 1_555 1_555
C8_10 C4_10 1_555 1_555
N1_8 C4_10 1_555 1_555
C9_6 C10_8 1_555 1_555
C10_8 N1_8 1_555 1_555
O6_8 C10_8 1_555 1_555
C5_10 C8_10 1_555 1_555
C9_6 H1_6 1_555 1_555
C9_6 H2_6 1_555 1_555
C9_6 H3_6 1_555 1_555
C8_10 H4_10 1_555 1_555
C1_10 H6_10 1_555 1_555
N1_8 H7_8 1_555 1_555
Al4_4 O4_11 1_555 1_555
O7_5 C7_11 1_555 1_555
O8 C6_11 1_555 1_555
O9_4 C6_11 1_555 1_555
O4_11 C7_11 1_555 1_555
O10_5 Al4_4 1_555 1_555
C1_11 C2_11 1_555 1_555
C2_11 C3_11 1_555 1_555
C3_11 C5_11 1_555 1_555
C4_11 C1_11 1_555 1_555
C5_11 C7_11 1_555 1_555
C6_11 C2_11 1_555 1_555
C8_11 C4_11 1_555 1_555
C5_11 C8_11 1_555 1_555
C8_11 H4_11 1_555 1_555
C3_11 H5_11 1_555 1_555
C1_11 H6_11 1_555 1_555
O8_2 C6_12 1_555 1_555
O9_3 C6_12 1_555 1_555
C1_12 C2_12 1_555 1_555
C4_12 C1_12 1_555 1_555
C6_12 C2_12 1_555 1_555
N1_9 C4_12 1_555 1_555
C9_7 C10_9 1_555 1_555
C10_9 N1_9 1_555 1_555
O6_9 C10_9 1_555 1_555
C9_7 H2_7 1_555 1_555
C1_12 H6_12 1_555 1_555
Al4_3 O4_12 1_555 1_555
O7_6 C7_12 1_555 1_555
O4_12 C7_12 1_555 1_555
O10_6 Al4_3 1_555 1_555
C3_12 C5_12 1_555 1_555
C5_12 C7_12 1_555 1_555
C5_12 C8_12 1_555 1_555
C8_12 H4_12 1_555 1_555
C3_12 H5_12 1_555 1_555
O1_7 C7_13 1_555 1_555
O8_4 C6_13 1_555 1_555
Al3 O1_7 1_555 1_555
O5_7 Al3 1_555 1_555
C3_13 H5_13 1_555 1_555
C1_13 C2_13 1_555 1_555
C4_13 C1_13 1_555 1_555
C8_13 C4_13 1_555 1_555
N1_10 C4_13 1_555 1_555
C9_8 C10_10 1_555 1_555
C10_10 N1_10 1_555 1_555
O6_10 C10_10 1_555 1_555
C5_13 C8_13 1_555 1_555
C9_8 H1_8 1_555 1_555
C9_8 H2_8 1_555 1_555
C9_8 H3_8 1_555 1_555
C8_13 H4_13 1_555 1_555
C1_13 H6_13 1_555 1_555
N1_10 H7_10 1_555 1_555
O7_8 Al4 1_555 1_555
O10_8 Al4 1_555 1_555
O1_8 C7_14 1_555 1_555
O8_3 C6_14 1_555 1_555
O9 C6_14 1_555 1_555
O4_14 C7_14 1_555 1_555
C1_14 C2_14 1_555 1_555
C2_14 C3_14 1_555 1_555
C3_14 C5_14 1_555 1_555
C4_14 C1_14 1_555 1_555
C5_14 C7_14 1_555 1_555
C6_14 C2_14 1_555 1_555
C8_14 C4_14 1_555 1_555
N1_11 C4_14 1_555 1_555
C10_11 N1_11 1_555 1_555
O6_11 C10_11 1_555 1_555
Al3_2 O1_8 1_555 1_555
O5_8 Al3_2 1_555 1_555
C5_14 C8_14 1_555 1_555
C8_14 H4_14 1_555 1_555
C3_14 H5_14 1_555 1_555
C1_14 H6_14 1_555 1_555
N1_11 H7_11 1_555 1_555
Al3_2 O4_15 1_555 1_555
O7_7 C7_15 1_555 1_555
O4_15 C7_15 1_555 1_555
O10_7 Al3_2 1_555 1_555
C3_15 C5_15 1_555 1_555
C5_15 C7_15 1_555 1_555
C5_15 C8_15 1_555 1_555
C8_15 H4_15 1_555 1_555
C3_15 H5_15 1_555 1_555
O8_5 C6_15 1_555 1_555
O9_8 C6_15 1_555 1_555
C1_15 C2_15 1_555 1_555
C4_15 C1_15 1_555 1_555
C6_15 C2_15 1_555 1_555
N1_12 C4_15 1_555 1_555
C9_9 C10_12 1_555 1_555
C10_12 N1_12 1_555 1_555
O6_12 C10_12 1_555 1_555
C9_9 H2_9 1_555 1_555
C1_15 H6_15 1_555 1_555
Al3 O4_16 1_555 1_555
O7_8 C7_16 1_555 1_555
O8_6 C6_16 1_555 1_555
O9_7 C6_16 1_555 1_555
O4_16 C7_16 1_555 1_555
O10_8 Al3 1_555 1_555
C1_16 C2_16 1_555 1_555
C2_16 C3_16 1_555 1_555
C3_16 C5_16 1_555 1_555
C4_16 C1_16 1_555 1_555
C5_16 C7_16 1_555 1_555
C6_16 C2_16 1_555 1_555
C8_16 C4_16 1_555 1_555
C5_16 C8_16 1_555 1_555
C8_16 H4_16 1_555 1_555
C3_16 H5_16 1_555 1_555
C1_16 H6_16 1_555 1_555
C9_10 C10_13 1_555 1_555
C10_13 N1_13 1_555 1_555
O6_13 C10_13 1_555 1_555
C9_10 H1_10 1_555 1_555
C9_10 H2_10 1_555 1_555
C9_10 H3_10 1_555 1_555
N1_13 H7_13 1_555 1_555
C9_11 H1_11 1_555 1_555
C9_11 H2_11 1_555 1_555
C9_11 H3_11 1_555 1_555
C9_12 C10_14 1_555 1_555
C10_14 N1_14 1_555 1_555
O6_14 C10_14 1_555 1_555
C9_12 H1_12 1_555 1_555
C9_12 H2_12 1_555 1_555
C9_12 H3_12 1_555 1_555
N1_14 H7_14 1_555 1_555
C9_13 H1_13 1_555 1_555
C9_13 H2_13 1_555 1_555
C9_13 H3_13 1_555 1_555
C9_14 C10_15 1_555 1_555
C10_15 N1_15 1_555 1_555
O6_15 C10_15 1_555 1_555
C9_14 H1_14 1_555 1_555
C9_14 H2_14 1_555 1_555
C9_14 H3_14 1_555 1_555
N1_15 H7_15 1_555 1_555
C9_15 H1_15 1_555 1_555
C9_15 H2_15 1_555 1_555
C9_15 H3_15 1_555 1_555
C9_16 C10_16 1_555 1_555
C10_16 N1_16 1_555 1_555
O6_16 C10_16 1_555 1_555
C9_16 H1_16 1_555 1_555
C9_16 H2_16 1_555 1_555
C9_16 H3_16 1_555 1_555
N1_16 H7_16 1_555 1_555

#END
