
###############################################################################
#
# This file contains modified crystal structure data generated from the
# MOF subset of the Cambridge Structural Database (CSD) v543 
# hosted by the Cambridge Crystallographic Data Centre (CCDC).
#
# This work is licensed under the Creative Commons
# Attribution-NonCommercial-ShareAlike 4.0 International License.
# To view a copy of this license, visit
# http://creativecommons.org/licenses/by-nc-sa/4.0/
# or send a letter to
# Creative Commons, PO Box 1866, Mountain View, CA 94042, USA.
#
# CIF created using the CSD Python API on 29 September 2022
# The structure has been converted into the P1 space group
# The structure has a 3D framework
# The original CSD entry OVEKIM is in the tetragonal crystal system
# The framework has been calculated to contain at least 10.0% void space
# The void calculation uses a probe of radius 1.32A, grid spacing 0.4
# H atom positions have been added when not included in the experimental data
#
###############################################################################

data_OVEKIM
_chemical_formula_moiety         '(C160 H112 Ga12 N16 O90)n'
_symmetry_cell_setting           triclinic
_symmetry_space_group_name_H-M   'P 1'
_symmetry_Int_Tables_number      1
_space_group_name_Hall           'P 1'
loop_
_symmetry_equiv_pos_site_id
_symmetry_equiv_pos_as_xyz
1 x,y,z
_cell_length_a                   21.7251(3)
_cell_length_b                   21.7251(3)
_cell_length_c                   10.8522(3)
_cell_angle_alpha                90
_cell_angle_beta                 90
_cell_angle_gamma                90
_cell_volume                     5122.02
loop_
_atom_site_label
_atom_site_type_symbol
_atom_site_fract_x
_atom_site_fract_y
_atom_site_fract_z
_atom_site_U_iso_or_equiv
_atom_site_thermal_displace_type
Ga1 Ga 0.2490(4) 0.06769(14) 0.2489(8) 0.0103 Uiso
O1 O 0.6198(7) 0.0306(8) 0.3908(12) 0.0103 Uiso
O2 O 0.6669(7) 0.0323(8) 0.2150(13) 0.0103 Uiso
O3 O 0.3857(7) 0.0053(6) 0.3762(13) 0.0103 Uiso
O4 O 0.3373(7) 0.0592(7) 0.2391(13) 0.0103 Uiso
O5 O 0.2554(14) 0.0019(14) 0.370(3) 0.0103 Uiso
C1 C 0.5574(5) 0.0698(3) 0.0901(7) 0.0103 Uiso
C2 C 0.5014(4) 0.0808(3) 0.0303(8) 0.0103 Uiso
C3 C 0.3863(6) 0.0370(4) 0.2801(10) 0.0103 Uiso
C4 C 0.4463(5) 0.0485(3) 0.2135(7) 0.0103 Uiso
C5 C 0.5579(5) 0.0482(3) 0.2116(7) 0.0103 Uiso
C6 C 0.6184(6) 0.0364(5) 0.2762(10) 0.0103 Uiso
C7 C 0.4458(5) 0.0701(3) 0.0920(7) 0.0103 Uiso
C8 C 0.5023(4) 0.0376(3) 0.2734(8) 0.0103 Uiso
Ga2 Ga 0.7490(4) 0.06769(14) 0.2511(8) 0.0103 Uiso
Ga4 Ga 0.31769(14) 0.0010(4) 0.4989(8) 0.0103 Uiso
O7 O 0.2806(8) 0.1302(7) 0.3592(12) 0.0103 Uiso
O8 O 0.1669(7) 0.0323(8) 0.2850(13) 0.0103 Uiso
O9 O 0.2447(6) 0.1357(7) 0.1262(13) 0.0103 Uiso
O10 O 0.2481(14) 0.0054(14) 0.120(3) 0.0103 Uiso
H1 H 0.600627 0.0780538 0.042056 . .
H2 H 0.502645 0.0208868 0.368004 . .
H7 H 0.402206 0.0785811 0.0454691 . .
Ga3 Ga 0.68231(14) 0.9990(4) 0.5011(8) 0.0103 Uiso
Ga1_2 Ga 0.2510(4) 0.93231(14) 0.7489(8) 0.0103 Uiso
O3_2 O 0.1143(7) 0.9947(6) 0.8762(13) 0.0103 Uiso
O4_2 O 0.1627(7) 0.9408(7) 0.7391(13) 0.0103 Uiso
O5_2 O 0.2446(14) 0.9981(14) 0.870(3) 0.0103 Uiso
C3_2 C 0.1137(6) 0.9630(4) 0.7801(10) 0.0103 Uiso
C4_2 C 0.0537(5) 0.9515(3) 0.7135(7) 0.0103 Uiso
C7_2 C 0.0542(5) 0.9299(3) 0.5920(7) 0.0103 Uiso
Ga4_2 Ga 0.18231(14) 0.9990(4) 0.9989(8) 0.0103 Uiso
O7_2 O 0.2194(8) 0.8698(7) 0.8592(12) 0.0103 Uiso
O8_2 O 0.3331(7) 0.9677(8) 0.7850(13) 0.0103 Uiso
O9_2 O 0.2553(6) 0.8643(7) 0.6262(13) 0.0103 Uiso
O10_2 O 0.2519(14) 0.9946(14) 0.620(3) 0.0103 Uiso
H3 H 0.0427237 0.897364 0.377561 . .
H4 H 0.0131225 0.813461 0.217921 . .
H6 H 0.0094312 0.888784 0.154198 . .
H7_2 H 0.0977944 0.921419 0.545469 . .
Ga3_2 Ga 0.81769(14) 0.0010(4) 0.0011(8) 0.0103 Uiso
O1_2 O 0.8802(7) 0.9694(8) 0.8908(12) 0.0103 Uiso
O2_2 O 0.8331(7) 0.9677(8) 0.7150(13) 0.0103 Uiso
C1_2 C 0.9426(5) 0.9302(3) 0.5901(7) 0.0103 Uiso
C2_2 C 0.9986(4) 0.9192(3) 0.5303(8) 0.0103 Uiso
C5_2 C 0.9421(5) 0.9518(3) 0.7116(7) 0.0103 Uiso
C6_2 C 0.8816(6) 0.9636(5) 0.7762(10) 0.0103 Uiso
C8_2 C 0.9977(4) 0.9624(3) 0.7734(8) 0.0103 Uiso
N1 N 0.9990(6) 0.8979(4) 0.4105(11) 0.0103 Uiso
C9 C 0.9588(7) 0.8771(8) 0.3213(17) 0.0103 Uiso
C10 C 0.9833(9) 0.8528(12) 0.2005(19) 0.0103 Uiso
O6 O 0.9021(8) 0.8784(16) 0.340(2) 0.0103 Uiso
Ga2_2 Ga 0.7510(4) 0.93231(14) 0.7511(8) 0.0103 Uiso
H1_2 H 0.899373 0.921946 0.542056 . .
H2_2 H 0.997355 0.979113 0.868004 . .
H5 H 0.945014 0.838632 0.14227 . .
Ga1_3 Ga 0.68231(14) 0.4990(4) 0.4989(8) 0.0103 Uiso
O1_3 O 0.7194(8) 0.8698(7) 0.6408(12) 0.0103 Uiso
O2_3 O 0.7177(8) 0.9169(7) 0.4650(13) 0.0103 Uiso
O3_3 O 0.7447(6) 0.6357(7) 0.6262(13) 0.0103 Uiso
O4_3 O 0.6908(7) 0.5873(7) 0.4891(13) 0.0103 Uiso
O5_3 O 0.7481(14) 0.5054(14) 0.620(3) 0.0103 Uiso
C1_3 C 0.6802(3) 0.8074(5) 0.3401(7) 0.0103 Uiso
C2_3 C 0.6692(3) 0.7514(4) 0.2803(8) 0.0103 Uiso
C3_3 C 0.7130(4) 0.6363(6) 0.5301(10) 0.0103 Uiso
C4_3 C 0.7015(3) 0.6963(5) 0.4635(7) 0.0103 Uiso
C5_3 C 0.7018(3) 0.8079(5) 0.4616(7) 0.0103 Uiso
C6_3 C 0.7136(5) 0.8684(6) 0.5262(10) 0.0103 Uiso
C7_3 C 0.6799(3) 0.6958(5) 0.3420(7) 0.0103 Uiso
C8_3 C 0.7124(3) 0.7523(4) 0.5234(8) 0.0103 Uiso
N1_2 N 0.6479(4) 0.7510(6) 0.1605(11) 0.0103 Uiso
C9_2 C 0.6271(8) 0.7912(7) 0.0713(17) 0.0103 Uiso
O6_2 O 0.6284(16) 0.8479(8) 0.090(2) 0.0103 Uiso
Ga4_3 Ga 0.7490(4) 0.56769(14) 0.7489(8) 0.0103 Uiso
O7_3 O 0.6198(7) 0.5306(8) 0.6092(12) 0.0103 Uiso
O8_3 O 0.7177(8) 0.4169(7) 0.5350(13) 0.0103 Uiso
O9_3 O 0.6143(7) 0.4947(6) 0.3762(13) 0.0103 Uiso
O10_3 O 0.7446(14) 0.4981(14) 0.370(3) 0.0103 Uiso
H1_3 H 0.671946 0.850627 0.292056 . .
H2_3 H 0.729113 0.752645 0.618004 . .
H3_2 H 0.647364 0.707276 0.127561 . .
H7_3 H 0.671419 0.652206 0.295469 . .
O1_4 O 0.7806(8) 0.1302(7) 0.1408(12) 0.0103 Uiso
O3_4 O 0.7553(6) 0.3643(7) 0.1262(13) 0.0103 Uiso
O5_4 O 0.7519(14) 0.4946(14) 0.120(3) 0.0103 Uiso
C3_4 C 0.7870(4) 0.3637(6) 0.0301(10) 0.0103 Uiso
C6_4 C 0.7864(5) 0.1316(6) 0.0262(10) 0.0103 Uiso
C8_4 C 0.7876(3) 0.2477(4) 0.0234(8) 0.0103 Uiso
Ga4_4 Ga 0.7510(4) 0.43231(14) 0.2489(8) 0.0103 Uiso
O7_4 O 0.8802(7) 0.4694(8) 0.1092(12) 0.0103 Uiso
O8_4 O 0.7823(8) 0.5831(7) 0.0350(13) 0.0103 Uiso
H2_4 H 0.770887 0.247355 0.118004 . .
Ga1_4 Ga 0.81769(14) 0.5010(4) 0.9989(8) 0.0103 Uiso
O2_4 O 0.7823(8) 0.0831(7) 0.9650(13) 0.0103 Uiso
O4_4 O 0.8092(7) 0.4127(7) 0.9891(13) 0.0103 Uiso
C1_4 C 0.8198(3) 0.1926(5) 0.8401(7) 0.0103 Uiso
C2_4 C 0.8308(3) 0.2486(4) 0.7803(8) 0.0103 Uiso
C4_4 C 0.7985(3) 0.3037(5) 0.9635(7) 0.0103 Uiso
C5_4 C 0.7982(3) 0.1921(5) 0.9616(7) 0.0103 Uiso
C7_4 C 0.8201(3) 0.3042(5) 0.8420(7) 0.0103 Uiso
N1_3 N 0.8521(4) 0.2490(6) 0.6605(11) 0.0103 Uiso
C9_3 C 0.8729(8) 0.2088(7) 0.5713(17) 0.0103 Uiso
C10_2 C 0.8972(12) 0.2333(9) 0.4505(19) 0.0103 Uiso
O6_3 O 0.8716(16) 0.1521(8) 0.590(2) 0.0103 Uiso
O9_4 O 0.8857(7) 0.5053(6) 0.8762(13) 0.0103 Uiso
O10_4 O 0.7554(14) 0.5019(14) 0.870(3) 0.0103 Uiso
H1_4 H 0.828054 0.149373 0.792056 . .
H3_3 H 0.852636 0.292724 0.627561 . .
H4_2 H 0.936539 0.263122 0.467921 . .
H5_2 H 0.911368 0.195014 0.39227 . .
H6_2 H 0.861216 0.259431 0.404198 . .
H7_4 H 0.828581 0.347794 0.795469 . .
Ga3_3 Ga 0.18231(14) 0.4990(4) 0.0011(8) 0.0103 Uiso
O1_5 O 0.1198(7) 0.5306(8) 0.8908(12) 0.0103 Uiso
O2_5 O 0.1669(7) 0.5323(8) 0.7150(13) 0.0103 Uiso
C1_5 C 0.0574(5) 0.5698(3) 0.5901(7) 0.0103 Uiso
C2_5 C 0.0014(4) 0.5808(3) 0.5303(8) 0.0103 Uiso
C5_5 C 0.0579(5) 0.5482(3) 0.7116(7) 0.0103 Uiso
C6_5 C 0.1184(6) 0.5364(5) 0.7762(10) 0.0103 Uiso
C8_5 C 0.0023(4) 0.5376(3) 0.7734(8) 0.0103 Uiso
N1_4 N 0.0010(6) 0.6021(4) 0.4105(11) 0.0103 Uiso
C9_4 C 0.0412(7) 0.6229(8) 0.3213(17) 0.0103 Uiso
C10_3 C 0.0167(9) 0.6472(12) 0.2005(19) 0.0103 Uiso
O6_4 O 0.0979(8) 0.6216(16) 0.340(2) 0.0103 Uiso
Ga2_3 Ga 0.2490(4) 0.56769(14) 0.7511(8) 0.0103 Uiso
H1_5 H 0.100627 0.578054 0.542056 . .
H2_5 H 0.00264544 0.520887 0.868004 . .
H5_3 H 0.0549864 0.661368 0.14227 . .
O4_5 O 0.8373(7) 0.5592(7) 0.7391(13) 0.0103 Uiso
C3_5 C 0.8863(6) 0.5370(4) 0.7801(10) 0.0103 Uiso
C4_5 C 0.9463(5) 0.5485(3) 0.7135(7) 0.0103 Uiso
C7_5 C 0.9458(5) 0.5701(3) 0.5920(7) 0.0103 Uiso
O7_5 O 0.7806(8) 0.6302(7) 0.8592(12) 0.0103 Uiso
O8_5 O 0.6669(7) 0.5323(8) 0.7850(13) 0.0103 Uiso
H3_4 H 0.957276 0.602636 0.377561 . .
H4_3 H 0.986878 0.686539 0.217921 . .
H6_3 H 0.990569 0.611216 0.154198 . .
H7_5 H 0.902206 0.578581 0.545469 . .
O1_6 O 0.3802(7) 0.4694(8) 0.3908(12) 0.0103 Uiso
O2_6 O 0.3331(7) 0.4677(8) 0.2150(13) 0.0103 Uiso
O4_6 O 0.6627(7) 0.4408(7) 0.2391(13) 0.0103 Uiso
C1_6 C 0.4426(5) 0.4302(3) 0.0901(7) 0.0103 Uiso
C2_6 C 0.4986(4) 0.4192(3) 0.0303(8) 0.0103 Uiso
C3_6 C 0.6137(6) 0.4630(4) 0.2801(10) 0.0103 Uiso
C4_6 C 0.5537(5) 0.4515(3) 0.2135(7) 0.0103 Uiso
C5_6 C 0.4421(5) 0.4518(3) 0.2116(7) 0.0103 Uiso
C6_6 C 0.3816(6) 0.4636(5) 0.2762(10) 0.0103 Uiso
C7_6 C 0.5542(5) 0.4299(3) 0.0920(7) 0.0103 Uiso
C8_6 C 0.4977(4) 0.4624(3) 0.2734(8) 0.0103 Uiso
Ga2_4 Ga 0.2510(4) 0.43231(14) 0.2511(8) 0.0103 Uiso
Ga3_4 Ga 0.31769(14) 0.5010(4) 0.5011(8) 0.0103 Uiso
O7_6 O 0.7194(8) 0.3698(7) 0.3592(12) 0.0103 Uiso
O8_6 O 0.8331(7) 0.4677(8) 0.2850(13) 0.0103 Uiso
H1_6 H 0.399373 0.421946 0.042056 . .
H2_6 H 0.497355 0.479113 0.368004 . .
H7_6 H 0.597794 0.421419 0.0454691 . .
O1_7 O 0.2194(8) 0.3698(7) 0.1408(12) 0.0103 Uiso
C3_7 C 0.2130(4) 0.1363(6) 0.0301(10) 0.0103 Uiso
C6_7 C 0.2136(5) 0.3684(6) 0.0262(10) 0.0103 Uiso
C8_7 C 0.2124(3) 0.2523(4) 0.0234(8) 0.0103 Uiso
O7_7 O 0.1198(7) 0.0306(8) 0.1092(12) 0.0103 Uiso
H2_7 H 0.229113 0.252645 0.118004 . .
O2_7 O 0.2177(8) 0.4169(7) 0.9650(13) 0.0103 Uiso
O4_7 O 0.1908(7) 0.0873(7) 0.9891(13) 0.0103 Uiso
C1_7 C 0.1802(3) 0.3074(5) 0.8401(7) 0.0103 Uiso
C2_7 C 0.1692(3) 0.2514(4) 0.7803(8) 0.0103 Uiso
C4_7 C 0.2015(3) 0.1963(5) 0.9635(7) 0.0103 Uiso
C5_7 C 0.2018(3) 0.3079(5) 0.9616(7) 0.0103 Uiso
C7_7 C 0.1799(3) 0.1958(5) 0.8420(7) 0.0103 Uiso
N1_5 N 0.1479(4) 0.2510(6) 0.6605(11) 0.0103 Uiso
C9_5 C 0.1271(8) 0.2912(7) 0.5713(17) 0.0103 Uiso
C10_4 C 0.1028(12) 0.2667(9) 0.4505(19) 0.0103 Uiso
O6_5 O 0.1284(16) 0.3479(8) 0.590(2) 0.0103 Uiso
H1_7 H 0.171946 0.350627 0.792056 . .
H3_5 H 0.147364 0.207276 0.627561 . .
H4_4 H 0.0634612 0.236878 0.467921 . .
H5_4 H 0.0886315 0.304986 0.39227 . .
H6_4 H 0.138784 0.240569 0.404198 . .
H7_7 H 0.171419 0.152206 0.795469 . .
O8_7 O 0.2177(8) 0.9169(7) 0.0350(13) 0.0103 Uiso
O8_8 O 0.2823(8) 0.0831(7) 0.5350(13) 0.0103 Uiso
O1_8 O 0.2806(8) 0.6302(7) 0.6408(12) 0.0103 Uiso
O2_8 O 0.2823(8) 0.5831(7) 0.4650(13) 0.0103 Uiso
O4_8 O 0.3092(7) 0.9127(7) 0.4891(13) 0.0103 Uiso
C1_8 C 0.3198(3) 0.6926(5) 0.3401(7) 0.0103 Uiso
C2_8 C 0.3308(3) 0.7486(4) 0.2803(8) 0.0103 Uiso
C3_8 C 0.2870(4) 0.8637(6) 0.5301(10) 0.0103 Uiso
C4_8 C 0.2985(3) 0.8037(5) 0.4635(7) 0.0103 Uiso
C5_8 C 0.2982(3) 0.6921(5) 0.4616(7) 0.0103 Uiso
C6_8 C 0.2864(5) 0.6316(6) 0.5262(10) 0.0103 Uiso
C7_8 C 0.3201(3) 0.8042(5) 0.3420(7) 0.0103 Uiso
C8_8 C 0.2876(3) 0.7477(4) 0.5234(8) 0.0103 Uiso
N1_6 N 0.3521(4) 0.7490(6) 0.1605(11) 0.0103 Uiso
C9_6 C 0.3729(8) 0.7088(7) 0.0713(17) 0.0103 Uiso
O6_6 O 0.3716(16) 0.6521(8) 0.090(2) 0.0103 Uiso
O7_8 O 0.3802(7) 0.9694(8) 0.6092(12) 0.0103 Uiso
H1_8 H 0.328054 0.649373 0.292056 . .
H2_8 H 0.270887 0.747355 0.618004 . .
H3_6 H 0.352636 0.792724 0.127561 . .
H7_8 H 0.328581 0.847794 0.295469 . .
O3_5 O 0.6143(7) 0.9947(6) 0.6238(13) 0.0103 Uiso
O4_9 O 0.6627(7) 0.9408(7) 0.7609(13) 0.0103 Uiso
O5_5 O 0.7446(14) 0.9981(14) 0.630(3) 0.0103 Uiso
C1_9 C 0.4426(5) 0.9302(3) 0.9099(7) 0.0103 Uiso
C2_9 C 0.4986(4) 0.9192(3) 0.9697(8) 0.0103 Uiso
C3_9 C 0.6137(6) 0.9630(4) 0.7199(10) 0.0103 Uiso
C4_9 C 0.5537(5) 0.9515(3) 0.7865(7) 0.0103 Uiso
C5_9 C 0.4421(5) 0.9518(3) 0.7884(7) 0.0103 Uiso
C6_9 C 0.3816(6) 0.9636(5) 0.7238(10) 0.0103 Uiso
C7_9 C 0.5542(5) 0.9299(3) 0.9080(7) 0.0103 Uiso
C8_9 C 0.4977(4) 0.9624(3) 0.7266(8) 0.0103 Uiso
O9_5 O 0.7553(6) 0.8643(7) 0.8738(13) 0.0103 Uiso
O10_5 O 0.7519(14) 0.9946(14) 0.880(3) 0.0103 Uiso
H1_9 H 0.399373 0.921946 0.957944 . .
H2_9 H 0.497355 0.979113 0.631996 . .
H7_9 H 0.597794 0.921419 0.954531 . .
C1_10 C 0.0574(5) 0.0698(3) 0.4099(7) 0.0103 Uiso
C2_10 C 0.0014(4) 0.0808(3) 0.4697(8) 0.0103 Uiso
C5_10 C 0.0579(5) 0.0482(3) 0.2884(7) 0.0103 Uiso
C6_10 C 0.1184(6) 0.0364(5) 0.2238(10) 0.0103 Uiso
C8_10 C 0.0023(4) 0.0376(3) 0.2266(8) 0.0103 Uiso
N1_7 N 0.0010(6) 0.1021(4) 0.5895(11) 0.0103 Uiso
C9_7 C 0.0412(7) 0.1229(8) 0.6787(17) 0.0103 Uiso
C10_5 C 0.0167(9) 0.1472(12) 0.7995(19) 0.0103 Uiso
O6_7 O 0.0979(8) 0.1216(16) 0.660(2) 0.0103 Uiso
H1_10 H 0.100627 0.0780538 0.457944 . .
H2_10 H 0.00264544 0.0208868 0.131996 . .
H5_5 H 0.0549864 0.161368 0.85773 . .
O3_6 O 0.8857(7) 0.0053(6) 0.1238(13) 0.0103 Uiso
O4_10 O 0.8373(7) 0.0592(7) 0.2609(13) 0.0103 Uiso
O5_6 O 0.7554(14) 0.0019(14) 0.130(3) 0.0103 Uiso
C3_10 C 0.8863(6) 0.0370(4) 0.2199(10) 0.0103 Uiso
C4_10 C 0.9463(5) 0.0485(3) 0.2865(7) 0.0103 Uiso
C7_10 C 0.9458(5) 0.0701(3) 0.4080(7) 0.0103 Uiso
O9_6 O 0.7447(6) 0.1357(7) 0.3738(13) 0.0103 Uiso
O10_6 O 0.7481(14) 0.0054(14) 0.380(3) 0.0103 Uiso
H3_7 H 0.957276 0.102636 0.622439 . .
H4_5 H 0.986878 0.186539 0.782079 . .
H6_5 H 0.990569 0.111216 0.845802 . .
H7_10 H 0.902206 0.0785811 0.454531 . .
O3_7 O 0.2553(6) 0.3643(7) 0.3738(13) 0.0103 Uiso
O4_11 O 0.3092(7) 0.4127(7) 0.5109(13) 0.0103 Uiso
O5_7 O 0.2519(14) 0.4946(14) 0.380(3) 0.0103 Uiso
C1_11 C 0.3198(3) 0.1926(5) 0.6599(7) 0.0103 Uiso
C2_11 C 0.3308(3) 0.2486(4) 0.7197(8) 0.0103 Uiso
C3_11 C 0.2870(4) 0.3637(6) 0.4699(10) 0.0103 Uiso
C4_11 C 0.2985(3) 0.3037(5) 0.5365(7) 0.0103 Uiso
C5_11 C 0.2982(3) 0.1921(5) 0.5384(7) 0.0103 Uiso
C6_11 C 0.2864(5) 0.1316(6) 0.4738(10) 0.0103 Uiso
C7_11 C 0.3201(3) 0.3042(5) 0.6580(7) 0.0103 Uiso
C8_11 C 0.2876(3) 0.2477(4) 0.4766(8) 0.0103 Uiso
N1_8 N 0.3521(4) 0.2490(6) 0.8395(11) 0.0103 Uiso
C9_8 C 0.3729(8) 0.2088(7) 0.9287(17) 0.0103 Uiso
O6_8 O 0.3716(16) 0.1521(8) 0.910(2) 0.0103 Uiso
O9_7 O 0.3857(7) 0.5053(6) 0.6238(13) 0.0103 Uiso
O10_7 O 0.2554(14) 0.5019(14) 0.630(3) 0.0103 Uiso
H1_11 H 0.328054 0.149373 0.707944 . .
H2_11 H 0.270887 0.247355 0.381996 . .
H3_8 H 0.352636 0.292724 0.872439 . .
H7_11 H 0.328581 0.347794 0.704531 . .
O4_12 O 0.1908(7) 0.5873(7) 0.0109(13) 0.0103 Uiso
C1_12 C 0.1802(3) 0.8074(5) 0.1599(7) 0.0103 Uiso
C2_12 C 0.1692(3) 0.7514(4) 0.2197(8) 0.0103 Uiso
C4_12 C 0.2015(3) 0.6963(5) 0.0365(7) 0.0103 Uiso
C5_12 C 0.2018(3) 0.8079(5) 0.0384(7) 0.0103 Uiso
C7_12 C 0.1799(3) 0.6958(5) 0.1580(7) 0.0103 Uiso
N1_9 N 0.1479(4) 0.7510(6) 0.3395(11) 0.0103 Uiso
C9_9 C 0.1271(8) 0.7912(7) 0.4287(17) 0.0103 Uiso
C10_6 C 0.1028(12) 0.7667(9) 0.5495(19) 0.0103 Uiso
O6_9 O 0.1284(16) 0.8479(8) 0.410(2) 0.0103 Uiso
O9_8 O 0.1143(7) 0.4947(6) 0.1238(13) 0.0103 Uiso
O10_8 O 0.2446(14) 0.4981(14) 0.130(3) 0.0103 Uiso
H1_12 H 0.171946 0.850627 0.207944 . .
H3_9 H 0.147364 0.707276 0.372439 . .
H4_6 H 0.0634612 0.736878 0.532079 . .
H5_6 H 0.0886315 0.804986 0.60773 . .
H6_6 H 0.138784 0.740569 0.595802 . .
H7_12 H 0.171419 0.652206 0.204531 . .
O3_8 O 0.2447(6) 0.6357(7) 0.8738(13) 0.0103 Uiso
O5_8 O 0.2481(14) 0.5054(14) 0.880(3) 0.0103 Uiso
C3_12 C 0.2130(4) 0.6363(6) 0.9699(10) 0.0103 Uiso
C6_12 C 0.2136(5) 0.8684(6) 0.9738(10) 0.0103 Uiso
C8_12 C 0.2124(3) 0.7523(4) 0.9766(8) 0.0103 Uiso
H2_12 H 0.229113 0.752645 0.881996 . .
O4_13 O 0.1627(7) 0.4408(7) 0.2609(13) 0.0103 Uiso
C3_13 C 0.1137(6) 0.4630(4) 0.2199(10) 0.0103 Uiso
C4_13 C 0.0537(5) 0.4515(3) 0.2865(7) 0.0103 Uiso
C7_13 C 0.0542(5) 0.4299(3) 0.4080(7) 0.0103 Uiso
H3_10 H 0.0427237 0.397364 0.622439 . .
H4_7 H 0.0131225 0.313461 0.782079 . .
H6_7 H 0.0094312 0.388784 0.845802 . .
H7_13 H 0.0977944 0.421419 0.454531 . .
C1_13 C 0.9426(5) 0.4302(3) 0.4099(7) 0.0103 Uiso
C2_13 C 0.9986(4) 0.4192(3) 0.4697(8) 0.0103 Uiso
C5_13 C 0.9421(5) 0.4518(3) 0.2884(7) 0.0103 Uiso
C6_13 C 0.8816(6) 0.4636(5) 0.2238(10) 0.0103 Uiso
C8_13 C 0.9977(4) 0.4624(3) 0.2266(8) 0.0103 Uiso
N1_10 N 0.9990(6) 0.3979(4) 0.5895(11) 0.0103 Uiso
C9_10 C 0.9588(7) 0.3771(8) 0.6787(17) 0.0103 Uiso
C10_7 C 0.9833(9) 0.3528(12) 0.7995(19) 0.0103 Uiso
O6_10 O 0.9021(8) 0.3784(16) 0.660(2) 0.0103 Uiso
H1_13 H 0.899373 0.421946 0.457944 . .
H2_13 H 0.997355 0.479113 0.131996 . .
H5_7 H 0.945014 0.338632 0.85773 . .
O4_14 O 0.3373(7) 0.5592(7) 0.7609(13) 0.0103 Uiso
C1_14 C 0.5574(5) 0.5698(3) 0.9099(7) 0.0103 Uiso
C2_14 C 0.5014(4) 0.5808(3) 0.9697(8) 0.0103 Uiso
C3_14 C 0.3863(6) 0.5370(4) 0.7199(10) 0.0103 Uiso
C4_14 C 0.4463(5) 0.5485(3) 0.7865(7) 0.0103 Uiso
C5_14 C 0.5579(5) 0.5482(3) 0.7884(7) 0.0103 Uiso
C6_14 C 0.6184(6) 0.5364(5) 0.7238(10) 0.0103 Uiso
C7_14 C 0.4458(5) 0.5701(3) 0.9080(7) 0.0103 Uiso
C8_14 C 0.5023(4) 0.5376(3) 0.7266(8) 0.0103 Uiso
H1_14 H 0.600627 0.578054 0.957944 . .
H2_14 H 0.502645 0.520887 0.631996 . .
H7_14 H 0.402206 0.578581 0.954531 . .
O4_15 O 0.8092(7) 0.9127(7) 0.0109(13) 0.0103 Uiso
C1_15 C 0.8198(3) 0.6926(5) 0.1599(7) 0.0103 Uiso
C2_15 C 0.8308(3) 0.7486(4) 0.2197(8) 0.0103 Uiso
C4_15 C 0.7985(3) 0.8037(5) 0.0365(7) 0.0103 Uiso
C5_15 C 0.7982(3) 0.6921(5) 0.0384(7) 0.0103 Uiso
C7_15 C 0.8201(3) 0.8042(5) 0.1580(7) 0.0103 Uiso
N1_11 N 0.8521(4) 0.7490(6) 0.3395(11) 0.0103 Uiso
C9_11 C 0.8729(8) 0.7088(7) 0.4287(17) 0.0103 Uiso
C10_8 C 0.8972(12) 0.7333(9) 0.5495(19) 0.0103 Uiso
O6_11 O 0.8716(16) 0.6521(8) 0.410(2) 0.0103 Uiso
H1_15 H 0.828054 0.649373 0.207944 . .
H3_11 H 0.852636 0.792724 0.372439 . .
H4_8 H 0.936539 0.763122 0.532079 . .
H5_8 H 0.911368 0.695014 0.60773 . .
H6_8 H 0.861216 0.759431 0.595802 . .
H7_15 H 0.828581 0.847794 0.204531 . .
C3_15 C 0.7870(4) 0.8637(6) 0.9699(10) 0.0103 Uiso
C6_15 C 0.7864(5) 0.6316(6) 0.9738(10) 0.0103 Uiso
C8_15 C 0.7876(3) 0.7477(4) 0.9766(8) 0.0103 Uiso
H2_15 H 0.770887 0.747355 0.881996 . .
O4_16 O 0.6908(7) 0.0873(7) 0.5109(13) 0.0103 Uiso
C1_16 C 0.6802(3) 0.3074(5) 0.6599(7) 0.0103 Uiso
C2_16 C 0.6692(3) 0.2514(4) 0.7197(8) 0.0103 Uiso
C3_16 C 0.7130(4) 0.1363(6) 0.4699(10) 0.0103 Uiso
C4_16 C 0.7015(3) 0.1963(5) 0.5365(7) 0.0103 Uiso
C5_16 C 0.7018(3) 0.3079(5) 0.5384(7) 0.0103 Uiso
C6_16 C 0.7136(5) 0.3684(6) 0.4738(10) 0.0103 Uiso
C7_16 C 0.6799(3) 0.1958(5) 0.6580(7) 0.0103 Uiso
C8_16 C 0.7124(3) 0.2523(4) 0.4766(8) 0.0103 Uiso
N1_12 N 0.6479(4) 0.2510(6) 0.8395(11) 0.0103 Uiso
C9_12 C 0.6271(8) 0.2912(7) 0.9287(17) 0.0103 Uiso
O6_12 O 0.6284(16) 0.3479(8) 0.910(2) 0.0103 Uiso
H1_16 H 0.671946 0.350627 0.707944 . .
H2_16 H 0.729113 0.252645 0.381996 . .
H3_12 H 0.647364 0.207276 0.872439 . .
H7_16 H 0.671419 0.152206 0.704531 . .
N1_13 N 0.5010(6) 0.1021(4) 0.9105(11) 0.0103 Uiso
C9_13 C 0.5412(7) 0.1229(8) 0.8213(17) 0.0103 Uiso
C10_9 C 0.5167(9) 0.1472(12) 0.7005(19) 0.0103 Uiso
O6_13 O 0.5979(8) 0.1216(16) 0.840(2) 0.0103 Uiso
H3_13 H 0.457276 0.102636 0.877561 . .
H4_9 H 0.486878 0.186539 0.717921 . .
H5_9 H 0.554986 0.161368 0.64227 . .
H6_9 H 0.490569 0.111216 0.654198 . .
C10_10 C 0.6028(12) 0.7667(9) 0.9505(19) 0.0103 Uiso
H4_10 H 0.563461 0.736878 0.967921 . .
H5_10 H 0.588632 0.804986 0.89227 . .
H6_10 H 0.638784 0.740569 0.904198 . .
N1_14 N 0.4990(6) 0.3979(4) 0.9105(11) 0.0103 Uiso
C9_14 C 0.4588(7) 0.3771(8) 0.8213(17) 0.0103 Uiso
C10_11 C 0.4833(9) 0.3528(12) 0.7005(19) 0.0103 Uiso
O6_14 O 0.4021(8) 0.3784(16) 0.840(2) 0.0103 Uiso
H3_14 H 0.542724 0.397364 0.877561 . .
H4_11 H 0.513122 0.313461 0.717921 . .
H5_11 H 0.445014 0.338632 0.64227 . .
H6_11 H 0.509431 0.388784 0.654198 . .
C10_12 C 0.3972(12) 0.7333(9) 0.9505(19) 0.0103 Uiso
H4_12 H 0.436539 0.763122 0.967921 . .
H5_12 H 0.411368 0.695014 0.89227 . .
H6_12 H 0.361216 0.759431 0.904198 . .
N1_15 N 0.4990(6) 0.8979(4) 0.0895(11) 0.0103 Uiso
C9_15 C 0.4588(7) 0.8771(8) 0.1787(17) 0.0103 Uiso
C10_13 C 0.4833(9) 0.8528(12) 0.2995(19) 0.0103 Uiso
O6_15 O 0.4021(8) 0.8784(16) 0.160(2) 0.0103 Uiso
H3_15 H 0.542724 0.897364 0.122439 . .
H4_13 H 0.513122 0.813461 0.282079 . .
H5_13 H 0.445014 0.838632 0.35773 . .
H6_13 H 0.509431 0.888784 0.345802 . .
C10_14 C 0.3972(12) 0.2333(9) 0.0495(19) 0.0103 Uiso
H4_14 H 0.436539 0.263122 0.0320788 . .
H5_14 H 0.411368 0.195014 0.10773 . .
H6_14 H 0.361216 0.259431 0.0958023 . .
N1_16 N 0.5010(6) 0.6021(4) 0.0895(11) 0.0103 Uiso
C9_16 C 0.5412(7) 0.6229(8) 0.1787(17) 0.0103 Uiso
C10_15 C 0.5167(9) 0.6472(12) 0.2995(19) 0.0103 Uiso
O6_16 O 0.5979(8) 0.6216(16) 0.160(2) 0.0103 Uiso
H3_16 H 0.457276 0.602636 0.122439 . .
H4_15 H 0.486878 0.686539 0.282079 . .
H5_15 H 0.554986 0.661368 0.35773 . .
H6_15 H 0.490569 0.611216 0.345802 . .
C10_16 C 0.6028(12) 0.2667(9) 0.0495(19) 0.0103 Uiso
H4_16 H 0.563461 0.236878 0.0320788 . .
H5_16 H 0.588632 0.304986 0.10773 . .
H6_16 H 0.638784 0.240569 0.0958023 . .
loop_
_geom_bond_atom_site_label_1
_geom_bond_atom_site_label_2
_geom_bond_site_symmetry_1
_geom_bond_site_symmetry_2
Ga1 O4 1_555 1_555
O1 C6 1_555 1_555
O2 C6 1_555 1_555
O3 C3 1_555 1_555
O4 C3 1_555 1_555
O5 Ga1 1_555 1_555
C1 C2 1_555 1_555
C2 C7 1_555 1_555
C3 C4 1_555 1_555
C4 C7 1_555 1_555
C5 C1 1_555 1_555
C6 C5 1_555 1_555
C8 C4 1_555 1_555
Ga2 O2 1_555 1_555
Ga4 O3 1_555 1_555
O7 Ga1 1_555 1_555
O8 Ga1 1_555 1_555
O9 Ga1 1_555 1_555
O10 Ga1 1_555 1_555
O5 Ga4 1_555 1_555
C5 C8 1_555 1_555
C1 H1 1_555 1_555
C8 H2 1_555 1_555
C7 H7 1_555 1_555
Ga1_2 O4_2 1_555 1_555
O3_2 C3_2 1_555 1_555
O4_2 C3_2 1_555 1_555
O5_2 Ga1_2 1_555 1_555
C3_2 C4_2 1_555 1_555
C4_2 C7_2 1_555 1_555
Ga4_2 O3_2 1_555 1_555
O7_2 Ga1_2 1_555 1_555
O8_2 Ga1_2 1_555 1_555
O9_2 Ga1_2 1_555 1_555
O10_2 Ga1_2 1_555 1_555
O5_2 Ga4_2 1_555 1_555
C7_2 H7_2 1_555 1_555
O1_2 C6_2 1_555 1_555
O2_2 C6_2 1_555 1_555
C1_2 C2_2 1_555 1_555
C5_2 C1_2 1_555 1_555
C6_2 C5_2 1_555 1_555
N1 C2_2 1_555 1_555
C9 N1 1_555 1_555
C10 C9 1_555 1_555
O6 C9 1_555 1_555
Ga2_2 O2_2 1_555 1_555
C5_2 C8_2 1_555 1_555
C1_2 H1_2 1_555 1_555
C8_2 H2_2 1_555 1_555
C10 H5 1_555 1_555
Ga1_3 O4_3 1_555 1_555
O1_3 C6_3 1_555 1_555
O2_3 C6_3 1_555 1_555
O3_3 C3_3 1_555 1_555
O4_3 C3_3 1_555 1_555
O5_3 Ga1_3 1_555 1_555
C1_3 C2_3 1_555 1_555
C2_3 C7_3 1_555 1_555
C3_3 C4_3 1_555 1_555
C4_3 C7_3 1_555 1_555
C5_3 C1_3 1_555 1_555
C6_3 C5_3 1_555 1_555
C8_3 C4_3 1_555 1_555
N1_2 C2_3 1_555 1_555
C9_2 N1_2 1_555 1_555
O6_2 C9_2 1_555 1_555
Ga3 O2_3 1_555 1_555
Ga2_2 O1_3 1_555 1_555
Ga4_3 O3_3 1_555 1_555
O7_3 Ga1_3 1_555 1_555
O8_3 Ga1_3 1_555 1_555
O9_3 Ga1_3 1_555 1_555
O10_3 Ga1_3 1_555 1_555
O5_3 Ga4_3 1_555 1_555
C5_3 C8_3 1_555 1_555
C1_3 H1_3 1_555 1_555
C8_3 H2_3 1_555 1_555
N1_2 H3_2 1_555 1_555
C7_3 H7_3 1_555 1_555
O1_4 C6_4 1_555 1_555
O3_4 C3_4 1_555 1_555
Ga2 O1_4 1_555 1_555
Ga4_4 O3_4 1_555 1_555
O5_4 Ga4_4 1_555 1_555
C8_4 H2_4 1_555 1_555
Ga1_4 O4_4 1_555 1_555
C1_4 C2_4 1_555 1_555
C2_4 C7_4 1_555 1_555
C4_4 C7_4 1_555 1_555
C5_4 C1_4 1_555 1_555
N1_3 C2_4 1_555 1_555
C9_3 N1_3 1_555 1_555
C10_2 C9_3 1_555 1_555
O6_3 C9_3 1_555 1_555
O9_4 Ga1_4 1_555 1_555
O10_4 Ga1_4 1_555 1_555
C1_4 H1_4 1_555 1_555
N1_3 H3_3 1_555 1_555
C10_2 H4_2 1_555 1_555
C10_2 H5_2 1_555 1_555
C10_2 H6_2 1_555 1_555
C7_4 H7_4 1_555 1_555
O1_5 C6_5 1_555 1_555
O2_5 C6_5 1_555 1_555
C1_5 C2_5 1_555 1_555
C5_5 C1_5 1_555 1_555
C6_5 C5_5 1_555 1_555
N1_4 C2_5 1_555 1_555
C9_4 N1_4 1_555 1_555
C10_3 C9_4 1_555 1_555
O6_4 C9_4 1_555 1_555
Ga2_3 O2_5 1_555 1_555
C5_5 C8_5 1_555 1_555
C1_5 H1_5 1_555 1_555
C8_5 H2_5 1_555 1_555
C10_3 H5_3 1_555 1_555
Ga4_3 O4_5 1_555 1_555
O9_4 C3_5 1_555 1_555
O4_5 C3_5 1_555 1_555
O10_4 Ga4_3 1_555 1_555
C3_5 C4_5 1_555 1_555
C4_5 C7_5 1_555 1_555
O7_5 Ga4_3 1_555 1_555
O8_5 Ga4_3 1_555 1_555
C7_5 H7_5 1_555 1_555
Ga4_4 O4_6 1_555 1_555
O1_6 C6_6 1_555 1_555
O2_6 C6_6 1_555 1_555
O9_3 C3_6 1_555 1_555
O4_6 C3_6 1_555 1_555
O10_3 Ga4_4 1_555 1_555
C1_6 C2_6 1_555 1_555
C2_6 C7_6 1_555 1_555
C3_6 C4_6 1_555 1_555
C4_6 C7_6 1_555 1_555
C5_6 C1_6 1_555 1_555
C6_6 C5_6 1_555 1_555
C8_6 C4_6 1_555 1_555
Ga2_4 O2_6 1_555 1_555
Ga3_4 O1_6 1_555 1_555
O7_6 Ga4_4 1_555 1_555
O8_6 Ga4_4 1_555 1_555
C5_6 C8_6 1_555 1_555
C1_6 H1_6 1_555 1_555
C8_6 H2_6 1_555 1_555
C7_6 H7_6 1_555 1_555
O1_7 C6_7 1_555 1_555
O9 C3_7 1_555 1_555
Ga2_4 O1_7 1_555 1_555
C8_7 H2_7 1_555 1_555
C1_7 C2_7 1_555 1_555
C2_7 C7_7 1_555 1_555
C4_7 C7_7 1_555 1_555
C5_7 C1_7 1_555 1_555
N1_5 C2_7 1_555 1_555
C9_5 N1_5 1_555 1_555
C10_4 C9_5 1_555 1_555
O6_5 C9_5 1_555 1_555
C1_7 H1_7 1_555 1_555
N1_5 H3_5 1_555 1_555
C10_4 H4_4 1_555 1_555
C10_4 H5_4 1_555 1_555
C10_4 H6_4 1_555 1_555
C7_7 H7_7 1_555 1_555
O8_8 Ga4 1_555 1_555
O1_8 C6_8 1_555 1_555
O2_8 C6_8 1_555 1_555
O9_2 C3_8 1_555 1_555
O4_8 C3_8 1_555 1_555
C1_8 C2_8 1_555 1_555
C2_8 C7_8 1_555 1_555
C3_8 C4_8 1_555 1_555
C4_8 C7_8 1_555 1_555
C5_8 C1_8 1_555 1_555
C6_8 C5_8 1_555 1_555
C8_8 C4_8 1_555 1_555
N1_6 C2_8 1_555 1_555
C9_6 N1_6 1_555 1_555
O6_6 C9_6 1_555 1_555
Ga3_4 O2_8 1_555 1_555
Ga2_3 O1_8 1_555 1_555
C5_8 C8_8 1_555 1_555
C1_8 H1_8 1_555 1_555
C8_8 H2_8 1_555 1_555
N1_6 H3_6 1_555 1_555
C7_8 H7_8 1_555 1_555
Ga2_2 O4_9 1_555 1_555
O7_8 C6_9 1_555 1_555
O8_2 C6_9 1_555 1_555
O3_5 C3_9 1_555 1_555
O4_9 C3_9 1_555 1_555
O5_5 Ga2_2 1_555 1_555
C1_9 C2_9 1_555 1_555
C2_9 C7_9 1_555 1_555
C3_9 C4_9 1_555 1_555
C4_9 C7_9 1_555 1_555
C5_9 C1_9 1_555 1_555
C6_9 C5_9 1_555 1_555
C8_9 C4_9 1_555 1_555
Ga3 O3_5 1_555 1_555
O9_5 Ga2_2 1_555 1_555
O10_5 Ga2_2 1_555 1_555
O5_5 Ga3 1_555 1_555
C5_9 C8_9 1_555 1_555
C1_9 H1_9 1_555 1_555
C8_9 H2_9 1_555 1_555
C7_9 H7_9 1_555 1_555
O7_7 C6_10 1_555 1_555
O8 C6_10 1_555 1_555
C1_10 C2_10 1_555 1_555
C5_10 C1_10 1_555 1_555
C6_10 C5_10 1_555 1_555
N1_7 C2_10 1_555 1_555
C9_7 N1_7 1_555 1_555
C10_5 C9_7 1_555 1_555
O6_7 C9_7 1_555 1_555
C5_10 C8_10 1_555 1_555
C1_10 H1_10 1_555 1_555
C8_10 H2_10 1_555 1_555
C10_5 H5_5 1_555 1_555
Ga2 O4_10 1_555 1_555
O3_6 C3_10 1_555 1_555
O4_10 C3_10 1_555 1_555
O5_6 Ga2 1_555 1_555
C3_10 C4_10 1_555 1_555
C4_10 C7_10 1_555 1_555
Ga3_2 O3_6 1_555 1_555
O9_6 Ga2 1_555 1_555
O10_6 Ga2 1_555 1_555
O5_6 Ga3_2 1_555 1_555
C7_10 H7_10 1_555 1_555
Ga3_4 O4_11 1_555 1_555
O7 C6_11 1_555 1_555
O8_8 C6_11 1_555 1_555
O3_7 C3_11 1_555 1_555
O4_11 C3_11 1_555 1_555
O5_7 Ga3_4 1_555 1_555
C1_11 C2_11 1_555 1_555
C2_11 C7_11 1_555 1_555
C3_11 C4_11 1_555 1_555
C4_11 C7_11 1_555 1_555
C5_11 C1_11 1_555 1_555
C6_11 C5_11 1_555 1_555
C8_11 C4_11 1_555 1_555
N1_8 C2_11 1_555 1_555
C9_8 N1_8 1_555 1_555
O6_8 C9_8 1_555 1_555
Ga2_4 O3_7 1_555 1_555
O9_7 Ga3_4 1_555 1_555
O10_7 Ga3_4 1_555 1_555
O5_7 Ga2_4 1_555 1_555
C5_11 C8_11 1_555 1_555
C1_11 H1_11 1_555 1_555
C8_11 H2_11 1_555 1_555
N1_8 H3_8 1_555 1_555
C7_11 H7_11 1_555 1_555
Ga3_3 O4_12 1_555 1_555
C1_12 C2_12 1_555 1_555
C2_12 C7_12 1_555 1_555
C4_12 C7_12 1_555 1_555
C5_12 C1_12 1_555 1_555
N1_9 C2_12 1_555 1_555
C9_9 N1_9 1_555 1_555
C10_6 C9_9 1_555 1_555
O6_9 C9_9 1_555 1_555
O9_8 Ga3_3 1_555 1_555
O10_8 Ga3_3 1_555 1_555
C1_12 H1_12 1_555 1_555
N1_9 H3_9 1_555 1_555
C10_6 H4_6 1_555 1_555
C10_6 H5_6 1_555 1_555
C10_6 H6_6 1_555 1_555
C7_12 H7_12 1_555 1_555
O7_2 C6_12 1_555 1_555
O3_8 C3_12 1_555 1_555
Ga2_3 O3_8 1_555 1_555
O5_8 Ga2_3 1_555 1_555
C8_12 H2_12 1_555 1_555
Ga2_4 O4_13 1_555 1_555
O9_8 C3_13 1_555 1_555
O4_13 C3_13 1_555 1_555
O10_8 Ga2_4 1_555 1_555
C3_13 C4_13 1_555 1_555
C4_13 C7_13 1_555 1_555
C7_13 H7_13 1_555 1_555
O7_4 C6_13 1_555 1_555
O8_6 C6_13 1_555 1_555
C1_13 C2_13 1_555 1_555
C5_13 C1_13 1_555 1_555
C6_13 C5_13 1_555 1_555
N1_10 C2_13 1_555 1_555
C9_10 N1_10 1_555 1_555
C10_7 C9_10 1_555 1_555
O6_10 C9_10 1_555 1_555
C5_13 C8_13 1_555 1_555
C1_13 H1_13 1_555 1_555
C8_13 H2_13 1_555 1_555
C10_7 H5_7 1_555 1_555
Ga2_3 O4_14 1_555 1_555
O7_3 C6_14 1_555 1_555
O8_5 C6_14 1_555 1_555
O9_7 C3_14 1_555 1_555
O4_14 C3_14 1_555 1_555
O10_7 Ga2_3 1_555 1_555
C1_14 C2_14 1_555 1_555
C2_14 C7_14 1_555 1_555
C3_14 C4_14 1_555 1_555
C4_14 C7_14 1_555 1_555
C5_14 C1_14 1_555 1_555
C6_14 C5_14 1_555 1_555
C8_14 C4_14 1_555 1_555
C5_14 C8_14 1_555 1_555
C1_14 H1_14 1_555 1_555
C8_14 H2_14 1_555 1_555
C7_14 H7_14 1_555 1_555
C1_15 C2_15 1_555 1_555
C2_15 C7_15 1_555 1_555
C4_15 C7_15 1_555 1_555
C5_15 C1_15 1_555 1_555
N1_11 C2_15 1_555 1_555
C9_11 N1_11 1_555 1_555
C10_8 C9_11 1_555 1_555
O6_11 C9_11 1_555 1_555
C1_15 H1_15 1_555 1_555
N1_11 H3_11 1_555 1_555
C10_8 H4_8 1_555 1_555
C10_8 H5_8 1_555 1_555
C10_8 H6_8 1_555 1_555
C7_15 H7_15 1_555 1_555
O7_5 C6_15 1_555 1_555
O9_5 C3_15 1_555 1_555
C8_15 H2_15 1_555 1_555
O7_6 C6_16 1_555 1_555
O8_3 C6_16 1_555 1_555
O9_6 C3_16 1_555 1_555
O4_16 C3_16 1_555 1_555
C1_16 C2_16 1_555 1_555
C2_16 C7_16 1_555 1_555
C3_16 C4_16 1_555 1_555
C4_16 C7_16 1_555 1_555
C5_16 C1_16 1_555 1_555
C6_16 C5_16 1_555 1_555
C8_16 C4_16 1_555 1_555
N1_12 C2_16 1_555 1_555
C9_12 N1_12 1_555 1_555
O6_12 C9_12 1_555 1_555
C5_16 C8_16 1_555 1_555
C1_16 H1_16 1_555 1_555
C8_16 H2_16 1_555 1_555
N1_12 H3_12 1_555 1_555
C7_16 H7_16 1_555 1_555
C9_13 N1_13 1_555 1_555
C10_9 C9_13 1_555 1_555
O6_13 C9_13 1_555 1_555
N1_13 H3_13 1_555 1_555
C10_9 H4_9 1_555 1_555
C10_9 H5_9 1_555 1_555
C10_9 H6_9 1_555 1_555
C10_10 H4_10 1_555 1_555
C10_10 H5_10 1_555 1_555
C10_10 H6_10 1_555 1_555
C9_14 N1_14 1_555 1_555
C10_11 C9_14 1_555 1_555
O6_14 C9_14 1_555 1_555
N1_14 H3_14 1_555 1_555
C10_11 H4_11 1_555 1_555
C10_11 H5_11 1_555 1_555
C10_11 H6_11 1_555 1_555
C10_12 H4_12 1_555 1_555
C10_12 H5_12 1_555 1_555
C10_12 H6_12 1_555 1_555
C9_15 N1_15 1_555 1_555
C10_13 C9_15 1_555 1_555
O6_15 C9_15 1_555 1_555
N1_15 H3_15 1_555 1_555
C10_13 H4_13 1_555 1_555
C10_13 H5_13 1_555 1_555
C10_13 H6_13 1_555 1_555
C10_14 H4_14 1_555 1_555
C10_14 H5_14 1_555 1_555
C10_14 H6_14 1_555 1_555
C9_16 N1_16 1_555 1_555
C10_15 C9_16 1_555 1_555
O6_16 C9_16 1_555 1_555
N1_16 H3_16 1_555 1_555
C10_15 H4_15 1_555 1_555
C10_15 H5_15 1_555 1_555
C10_15 H6_15 1_555 1_555
C10_16 H4_16 1_555 1_555
C10_16 H5_16 1_555 1_555
C10_16 H6_16 1_555 1_555

#END
