
###############################################################################
#
# This file contains modified crystal structure data generated from the
# MOF subset of the Cambridge Structural Database (CSD) v543 
# hosted by the Cambridge Crystallographic Data Centre (CCDC).
#
# This work is licensed under the Creative Commons
# Attribution-NonCommercial-ShareAlike 4.0 International License.
# To view a copy of this license, visit
# http://creativecommons.org/licenses/by-nc-sa/4.0/
# or send a letter to
# Creative Commons, PO Box 1866, Mountain View, CA 94042, USA.
#
# CIF created using the CSD Python API on 29 September 2022
# The structure has been converted into the P1 space group
# The structure has a 3D framework
# The original CSD entry OVEKAE is in the tetragonal crystal system
# The framework has been calculated to contain at least 10.0% void space
# The void calculation uses a probe of radius 1.32A, grid spacing 0.4
#
###############################################################################

data_OVEKAE
_chemical_formula_moiety         '(C144 H96 Ga14 O78)n'
_symmetry_cell_setting           triclinic
_symmetry_space_group_name_H-M   'P 1'
_symmetry_Int_Tables_number      1
_space_group_name_Hall           'P 1'
loop_
_symmetry_equiv_pos_site_id
_symmetry_equiv_pos_as_xyz
1 x,y,z
_cell_length_a                   21.570(3)
_cell_length_b                   21.570(3)
_cell_length_c                   10.790(2)
_cell_angle_alpha                90
_cell_angle_beta                 90
_cell_angle_gamma                90
_cell_volume                     5020.21
loop_
_atom_site_label
_atom_site_type_symbol
_atom_site_fract_x
_atom_site_fract_y
_atom_site_fract_z
O3 O 0.14689(11) 0.43679(12) 0.3161(2)
O4 O 0.11298(12) 0.50629(12) 0.1738(2)
C4 C 0.04016(16) 0.45465(17) 0.3001(3)
C5 C 0.03025(17) 0.43111(18) 0.4195(4)
H2 H 0.0635 0.4243 0.4727
C8 C 0.10531(16) 0.46729(16) 0.2601(3)
C9 C 0.0028(2) 0.3833(3) 0.6575(4)
H4 H 0.0281 0.3506 0.6245
H6 H 0.0277 0.4196 0.6701
Ga4 Ga 0.23893(2) 0.43438(2) 0.30609(3)
Ga5 Ga 0.18438(2) 0.51107(2) 0.05609(3)
Ga1 Ga 0.73893(2) 0.43438(2) 0.19391(3)
O1 O 0.82891(11) 0.42709(12) 0.2142(2)
O2 O 0.88095(12) 0.48287(12) 0.0731(2)
O5 O 0.95411(14) 0.39703(17) 0.5726(3)
O6 O 0.73774(12) 0.50528(12) 0.3015(2)
C1 C 0.87658(16) 0.45373(17) 0.1742(3)
C2 C 0.93145(16) 0.44858(17) 0.2571(3)
C3 C 0.99123(17) 0.46498(18) 0.2186(4)
H1 H 0.9980 0.4823 0.1408
C6 C 0.97002(18) 0.4181(2) 0.4570(4)
C7 C 0.92140(17) 0.42588(19) 0.3758(4)
H3 H 0.8814 0.4158 0.4007
H5 H 0.9853 0.3704 0.7352
Ga3 Ga 0.68438(2) 0.51107(2) 0.44391(3)
O7 O 0.73287(12) 0.36905(12) 0.3231(2)
O8 O 0.64689(11) 0.43679(12) 0.1839(2)
O9 O 0.74371(12) 0.36298(12) 0.0762(2)
O10 O 0.74472(12) 0.48774(12) 0.0515(2)
Ga2 Ga 0.81562(2) 0.48893(2) 0.94391(3)
Ga1_2 Ga 0.76107(2) 0.56562(2) 0.69391(3)
O1_2 O 0.67109(11) 0.57291(12) 0.7142(2)
O2_2 O 0.61905(12) 0.51713(12) 0.5731(2)
O3_2 O 0.35311(11) 0.56321(12) 0.8161(2)
O4_2 O 0.38702(12) 0.49371(12) 0.6738(2)
O6_2 O 0.76226(12) 0.49472(12) 0.8015(2)
C1_2 C 0.62342(16) 0.54627(17) 0.6742(3)
C2_2 C 0.56855(16) 0.55142(17) 0.7571(3)
C3_2 C 0.50877(17) 0.53502(18) 0.7186(4)
H1_2 H 0.5020 0.5177 0.6408
C4_2 C 0.45984(16) 0.54535(17) 0.8001(3)
C5_2 C 0.46975(17) 0.56889(18) 0.9195(4)
H2_2 H 0.4365 0.5757 0.9727
C6_2 C 0.52998(18) 0.5819(2) 0.9570(4)
C7_2 C 0.57860(17) 0.57412(19) 0.8758(4)
H3_2 H 0.6186 0.5842 0.9007
C8_2 C 0.39469(16) 0.53271(16) 0.7601(3)
Ga4_2 Ga 0.26107(2) 0.56562(2) 0.80609(3)
Ga5_2 Ga 0.31562(2) 0.48893(2) 0.55609(3)
O7_2 O 0.76713(12) 0.63095(12) 0.8231(2)
O8_2 O 0.85311(11) 0.56321(12) 0.6839(2)
O9_2 O 0.75629(12) 0.63702(12) 0.5762(2)
O10_2 O 0.75528(12) 0.51226(12) 0.5515(2)
O1_3 O 0.32291(12) 0.07891(11) 0.4642(2)
O2_3 O 0.26713(12) 0.13095(12) 0.3231(2)
O3_3 O 0.31321(12) 0.39689(11) 0.5661(2)
O4_3 O 0.24371(12) 0.36298(12) 0.4238(2)
O5_2 O 0.35297(17) 0.20411(14) 0.8226(3)
C1_3 C 0.29627(17) 0.12658(16) 0.4242(3)
C2_3 C 0.30142(17) 0.18145(16) 0.5071(3)
C3_3 C 0.28502(18) 0.24123(17) 0.4686(4)
H1_3 H 0.2677 0.2480 0.3908
C4_3 C 0.29535(17) 0.29016(16) 0.5501(3)
C5_3 C 0.31889(18) 0.28025(17) 0.6695(4)
H2_3 H 0.3257 0.3135 0.7227
C6_3 C 0.3319(2) 0.22002(18) 0.7070(4)
C7_3 C 0.32412(19) 0.17140(17) 0.6258(4)
H3_3 H 0.3342 0.1314 0.6507
C8_3 C 0.28271(16) 0.35531(16) 0.5101(3)
C9_2 C 0.3667(3) 0.2528(2) 0.9075(4)
H4_2 H 0.3994 0.2781 0.8745
H5_2 H 0.3796 0.2353 0.9852
H6_2 H 0.3304 0.2777 0.9201
Ga2_2 Ga 0.26107(2) 0.06562(2) 0.19391(3)
Ga1_3 Ga 0.31562(2) 0.98893(2) 0.44391(3)
O6_3 O 0.24472(12) 0.98774(12) 0.5515(2)
Ga3_2 Ga 0.23893(2) 0.93438(2) 0.69391(3)
O7_3 O 0.38095(12) 0.98287(12) 0.5731(2)
O8_3 O 0.31321(12) 0.89689(11) 0.4339(2)
O9_3 O 0.38702(12) 0.99371(12) 0.3262(2)
O10_3 O 0.26226(12) 0.99472(12) 0.3015(2)
O6_4 O 0.25528(12) 0.01226(12) 0.0515(2)
O7_4 O 0.11905(12) 0.01713(12) 0.0731(2)
Ga1_4 Ga 0.18438(2) 0.01107(2) 0.94391(3)
O8_4 O 0.18679(12) 0.10311(11) 0.9339(2)
O9_4 O 0.11298(12) 0.00629(12) 0.8262(2)
O10_4 O 0.23774(12) 0.00528(12) 0.8015(2)
O3_4 O 0.18679(12) 0.60311(11) 0.0661(2)
O5_3 O 0.14703(17) 0.79589(14) 0.3226(3)
C2_4 C 0.19858(17) 0.81855(16) 0.0071(3)
C4_4 C 0.20465(17) 0.70984(16) 0.0501(3)
C5_4 C 0.18111(18) 0.71975(17) 0.1695(4)
H2_4 H 0.1743 0.6865 0.2227
C6_4 C 0.1681(2) 0.77998(18) 0.2070(4)
C7_4 C 0.17588(19) 0.82860(17) 0.1258(4)
H3_4 H 0.1658 0.8686 0.1507
C8_4 C 0.21729(16) 0.64469(16) 0.0101(3)
C9_3 C 0.1333(3) 0.7472(2) 0.4075(4)
H4_3 H 0.1006 0.7219 0.3745
H5_3 H 0.1204 0.7647 0.4852
H6_3 H 0.1696 0.7223 0.4201
O1_4 O 0.17709(12) 0.92109(11) 0.9642(2)
O2_4 O 0.23287(12) 0.86905(12) 0.8231(2)
O4_4 O 0.25629(12) 0.63702(12) 0.9238(2)
C1_4 C 0.20373(17) 0.87342(16) 0.9242(3)
C3_4 C 0.21498(18) 0.75877(17) 0.9686(4)
H1_4 H 0.2323 0.7520 0.8908
O4_5 O 0.61298(12) 0.00629(12) 0.6738(2)
Ga5_3 Ga 0.68438(2) 0.01107(2) 0.55609(3)
O1_5 O 0.32891(11) 0.92709(12) 0.7142(2)
O3_5 O 0.64689(11) 0.93679(12) 0.8161(2)
C1_5 C 0.37658(16) 0.95373(17) 0.6742(3)
C2_5 C 0.43145(16) 0.94858(17) 0.7571(3)
C3_5 C 0.49123(17) 0.96498(18) 0.7186(4)
H1_5 H 0.4980 0.9823 0.6408
C4_5 C 0.54016(16) 0.95465(17) 0.8001(3)
C5_5 C 0.53025(17) 0.93111(18) 0.9195(4)
H2_5 H 0.5635 0.9243 0.9727
C6_5 C 0.47002(18) 0.9181(2) 0.9570(4)
C7_5 C 0.42140(17) 0.92588(19) 0.8758(4)
H3_5 H 0.3814 0.9158 0.9007
C8_5 C 0.60531(16) 0.96729(16) 0.7601(3)
Ga4_3 Ga 0.73893(2) 0.93438(2) 0.80609(3)
O8_5 O 0.14689(11) 0.93679(12) 0.6839(2)
O9_5 O 0.24371(12) 0.86298(12) 0.5762(2)
O1_6 O 0.17109(11) 0.07291(12) 0.2142(2)
O5_4 O 0.04589(14) 0.10297(17) 0.5726(3)
C1_6 C 0.12342(16) 0.04627(17) 0.1742(3)
C2_6 C 0.06855(16) 0.05142(17) 0.2571(3)
C3_6 C 0.00877(17) 0.03502(18) 0.2186(4)
H1_6 H 0.0020 0.0177 0.1408
C6_6 C 0.02998(18) 0.0819(2) 0.4570(4)
C7_6 C 0.07860(17) 0.07412(19) 0.3758(4)
H3_6 H 0.1186 0.0842 0.4007
H5_4 H 0.0147 0.1296 0.7352
O8_6 O 0.35311(11) 0.06321(12) 0.1839(2)
O9_6 O 0.25629(12) 0.13702(12) 0.0762(2)
O3_6 O 0.85311(11) 0.06321(12) 0.3161(2)
C4_6 C 0.95984(16) 0.04535(17) 0.3001(3)
C5_6 C 0.96975(17) 0.06889(18) 0.4195(4)
H2_6 H 0.9365 0.0757 0.4727
C8_6 C 0.89469(16) 0.03271(16) 0.2601(3)
C9_4 C 0.9972(2) 0.1167(3) 0.6575(4)
H4_4 H 0.9719 0.1494 0.6245
H6_4 H 0.9723 0.0804 0.6701
Ga4_4 Ga 0.76107(2) 0.06562(2) 0.30609(3)
O4_6 O 0.88702(12) 0.99371(12) 0.1738(2)
Ga5_4 Ga 0.81562(2) 0.98893(2) 0.05609(3)
O3_7 O 0.81321(12) 0.89689(11) 0.0661(2)
O5_5 O 0.85297(17) 0.70411(14) 0.3226(3)
C2_7 C 0.80142(17) 0.68145(16) 0.0071(3)
C4_7 C 0.79535(17) 0.79016(16) 0.0501(3)
C5_7 C 0.81889(18) 0.78025(17) 0.1695(4)
H2_7 H 0.8257 0.8135 0.2227
C6_7 C 0.8319(2) 0.72002(18) 0.2070(4)
C7_7 C 0.82412(19) 0.67140(17) 0.1258(4)
H3_7 H 0.8342 0.6314 0.1507
C8_7 C 0.78271(16) 0.85531(16) 0.0101(3)
C9_5 C 0.8667(3) 0.7528(2) 0.4075(4)
H4_5 H 0.8994 0.7781 0.3745
H5_5 H 0.8796 0.7353 0.4852
H6_5 H 0.8304 0.7777 0.4201
O1_7 O 0.82291(12) 0.57891(11) 0.9642(2)
O4_7 O 0.74371(12) 0.86298(12) 0.9238(2)
C1_7 C 0.79627(17) 0.62658(16) 0.9242(3)
C3_7 C 0.78502(18) 0.74123(17) 0.9686(4)
H1_7 H 0.7677 0.7480 0.8908
O8_7 O 0.81321(12) 0.39689(11) 0.9339(2)
O9_7 O 0.88702(12) 0.49371(12) 0.8262(2)
O1_8 O 0.67709(12) 0.42109(11) 0.4642(2)
O3_8 O 0.68679(12) 0.10311(11) 0.5661(2)
O4_8 O 0.75629(12) 0.13702(12) 0.4238(2)
O5_6 O 0.64703(17) 0.29589(14) 0.8226(3)
C1_8 C 0.70373(17) 0.37342(16) 0.4242(3)
C2_8 C 0.69858(17) 0.31855(16) 0.5071(3)
C3_8 C 0.71498(18) 0.25877(17) 0.4686(4)
H1_8 H 0.7323 0.2520 0.3908
C4_8 C 0.70465(17) 0.20984(16) 0.5501(3)
C5_8 C 0.68111(18) 0.21975(17) 0.6695(4)
H2_8 H 0.6743 0.1865 0.7227
C6_8 C 0.6681(2) 0.27998(18) 0.7070(4)
C7_8 C 0.67588(19) 0.32860(17) 0.6258(4)
H3_8 H 0.6658 0.3686 0.6507
C8_8 C 0.71729(16) 0.14469(16) 0.5101(3)
C9_6 C 0.6333(3) 0.2472(2) 0.9075(4)
H4_6 H 0.6006 0.2219 0.8745
H5_6 H 0.6204 0.2647 0.9852
H6_6 H 0.6696 0.2223 0.9201
O8_8 O 0.68679(12) 0.60311(11) 0.4339(2)
O9_8 O 0.61298(12) 0.50629(12) 0.3262(2)
O1_9 O 0.17109(11) 0.57291(12) 0.7858(2)
O2_5 O 0.11905(12) 0.51713(12) 0.9269(2)
O5_7 O 0.04589(14) 0.60297(17) 0.4274(3)
O6_5 O 0.26226(12) 0.49472(12) 0.6985(2)
C1_9 C 0.12342(16) 0.54627(17) 0.8258(3)
C2_9 C 0.06855(16) 0.55142(17) 0.7429(3)
C3_9 C 0.00877(17) 0.53502(18) 0.7814(4)
H1_9 H 0.0020 0.5177 0.8592
C6_9 C 0.02998(18) 0.5819(2) 0.5430(4)
C7_9 C 0.07860(17) 0.57412(19) 0.6242(4)
H3_9 H 0.1186 0.5842 0.5993
H5_7 H 0.0147 0.6296 0.2648
O7_5 O 0.26713(12) 0.63095(12) 0.6769(2)
O10_5 O 0.25528(12) 0.51226(12) 0.9485(2)
C4_9 C 0.95984(16) 0.54535(17) 0.6999(3)
C5_9 C 0.96975(17) 0.56889(18) 0.5805(4)
H2_9 H 0.9365 0.5757 0.5273
C8_9 C 0.89469(16) 0.53271(16) 0.7399(3)
C9_7 C 0.9972(2) 0.6167(3) 0.3425(4)
H4_7 H 0.9719 0.6494 0.3755
H6_7 H 0.9723 0.5804 0.3299
O1_10 O 0.32891(11) 0.42709(12) 0.2858(2)
O2_6 O 0.38095(12) 0.48287(12) 0.4269(2)
O6_6 O 0.23774(12) 0.50528(12) 0.1985(2)
C1_10 C 0.37658(16) 0.45373(17) 0.3258(3)
C2_10 C 0.43145(16) 0.44858(17) 0.2429(3)
C3_10 C 0.49123(17) 0.46498(18) 0.2814(4)
H1_10 H 0.4980 0.4823 0.3592
C4_10 C 0.54016(16) 0.45465(17) 0.1999(3)
C5_10 C 0.53025(17) 0.43111(18) 0.0805(4)
H2_10 H 0.5635 0.4243 0.0273
C6_10 C 0.47002(18) 0.4181(2) 0.0430(4)
C7_10 C 0.42140(17) 0.42588(19) 0.1242(4)
H3_10 H 0.3814 0.4158 0.0993
C8_10 C 0.60531(16) 0.46729(16) 0.2399(3)
O7_6 O 0.23287(12) 0.36905(12) 0.1769(2)
O10_6 O 0.24472(12) 0.48774(12) 0.4485(2)
O6_7 O 0.75528(12) 0.01226(12) 0.4485(2)
O7_7 O 0.61905(12) 0.01713(12) 0.4269(2)
O10_7 O 0.73774(12) 0.00528(12) 0.6985(2)
O1_11 O 0.67709(12) 0.92109(11) 0.5358(2)
O2_7 O 0.73287(12) 0.86905(12) 0.6769(2)
O5_8 O 0.64703(17) 0.79589(14) 0.1774(3)
C1_11 C 0.70373(17) 0.87342(16) 0.5758(3)
C2_11 C 0.69858(17) 0.81855(16) 0.4929(3)
C3_11 C 0.71498(18) 0.75877(17) 0.5314(4)
H1_11 H 0.7323 0.7520 0.6092
C4_11 C 0.70465(17) 0.70984(16) 0.4499(3)
C5_11 C 0.68111(18) 0.71975(17) 0.3305(4)
H2_11 H 0.6743 0.6865 0.2773
C6_11 C 0.6681(2) 0.77998(18) 0.2930(4)
C7_11 C 0.67588(19) 0.82860(17) 0.3742(4)
H3_11 H 0.6658 0.8686 0.3493
C8_11 C 0.71729(16) 0.64469(16) 0.4899(3)
C9_8 C 0.6333(3) 0.7472(2) 0.0925(4)
H4_8 H 0.6006 0.7219 0.1255
H5_8 H 0.6204 0.7647 0.0148
H6_8 H 0.6696 0.7223 0.0799
O1_12 O 0.82291(12) 0.07891(11) 0.0358(2)
O2_8 O 0.76713(12) 0.13095(12) 0.1769(2)
C1_12 C 0.79627(17) 0.12658(16) 0.0758(3)
C3_12 C 0.78502(18) 0.24123(17) 0.0314(4)
H1_12 H 0.7677 0.2480 0.1092
O5_9 O 0.85297(17) 0.20411(14) 0.6774(3)
C2_12 C 0.80142(17) 0.18145(16) 0.9929(3)
C4_12 C 0.79535(17) 0.29016(16) 0.9499(3)
C5_12 C 0.81889(18) 0.28025(17) 0.8305(4)
H2_12 H 0.8257 0.3135 0.7773
C6_12 C 0.8319(2) 0.22002(18) 0.7930(4)
C7_12 C 0.82412(19) 0.17140(17) 0.8742(4)
H3_12 H 0.8342 0.1314 0.8493
C8_12 C 0.78271(16) 0.35531(16) 0.9899(3)
C9_9 C 0.8667(3) 0.2528(2) 0.5925(4)
H4_9 H 0.8994 0.2781 0.6255
H5_9 H 0.8796 0.2353 0.5148
H6_9 H 0.8304 0.2777 0.5799
O10_8 O 0.76226(12) 0.99472(12) 0.1985(2)
O6_8 O 0.74472(12) 0.98774(12) 0.9485(2)
O7_8 O 0.88095(12) 0.98287(12) 0.9269(2)
O1_13 O 0.67109(11) 0.07291(12) 0.2858(2)
C1_13 C 0.62342(16) 0.04627(17) 0.3258(3)
C2_13 C 0.56855(16) 0.05142(17) 0.2429(3)
C3_13 C 0.50877(17) 0.03502(18) 0.2814(4)
H1_13 H 0.5020 0.0177 0.3592
C4_13 C 0.45984(16) 0.04535(17) 0.1999(3)
C5_13 C 0.46975(17) 0.06889(18) 0.0805(4)
H2_13 H 0.4365 0.0757 0.0273
C6_13 C 0.52998(18) 0.0819(2) 0.0430(4)
C7_13 C 0.57860(17) 0.07412(19) 0.1242(4)
H3_13 H 0.6186 0.0842 0.0993
C8_13 C 0.39469(16) 0.03271(16) 0.2399(3)
C4_14 C 0.04016(16) 0.95465(17) 0.6999(3)
C5_14 C 0.03025(17) 0.93111(18) 0.5805(4)
H2_14 H 0.0635 0.9243 0.5273
C8_14 C 0.10531(16) 0.96729(16) 0.7399(3)
C9_10 C 0.0028(2) 0.8833(3) 0.3425(4)
H4_10 H 0.0281 0.8506 0.3755
H6_10 H 0.0277 0.9196 0.3299
O1_14 O 0.82891(11) 0.92709(12) 0.7858(2)
O5_10 O 0.95411(14) 0.89703(17) 0.4274(3)
C1_14 C 0.87658(16) 0.95373(17) 0.8258(3)
C2_14 C 0.93145(16) 0.94858(17) 0.7429(3)
C3_14 C 0.99123(17) 0.96498(18) 0.7814(4)
H1_14 H 0.9980 0.9823 0.8592
C6_14 C 0.97002(18) 0.9181(2) 0.5430(4)
C7_14 C 0.92140(17) 0.92588(19) 0.6242(4)
H3_14 H 0.8814 0.9158 0.5993
H5_10 H 0.9853 0.8704 0.2648
O1_15 O 0.17709(12) 0.42109(11) 0.0358(2)
C1_15 C 0.20373(17) 0.37342(16) 0.0758(3)
C3_15 C 0.21498(18) 0.25877(17) 0.0314(4)
H1_15 H 0.2323 0.2520 0.1092
O5_11 O 0.14703(17) 0.29589(14) 0.6774(3)
C2_15 C 0.19858(17) 0.31855(16) 0.9929(3)
C4_15 C 0.20465(17) 0.20984(16) 0.9499(3)
C5_15 C 0.18111(18) 0.21975(17) 0.8305(4)
H2_15 H 0.1743 0.1865 0.7773
C6_15 C 0.1681(2) 0.27998(18) 0.7930(4)
C7_15 C 0.17588(19) 0.32860(17) 0.8742(4)
H3_15 H 0.1658 0.3686 0.8493
C8_15 C 0.21729(16) 0.14469(16) 0.9899(3)
C9_11 C 0.1333(3) 0.2472(2) 0.5925(4)
H4_11 H 0.1006 0.2219 0.6255
H5_11 H 0.1204 0.2647 0.5148
H6_11 H 0.1696 0.2223 0.5799
O1_16 O 0.32291(12) 0.57891(11) 0.5358(2)
O5_12 O 0.35297(17) 0.70411(14) 0.1774(3)
C1_16 C 0.29627(17) 0.62658(16) 0.5758(3)
C2_16 C 0.30142(17) 0.68145(16) 0.4929(3)
C3_16 C 0.28502(18) 0.74123(17) 0.5314(4)
H1_16 H 0.2677 0.7480 0.6092
C4_16 C 0.29535(17) 0.79016(16) 0.4499(3)
C5_16 C 0.31889(18) 0.78025(17) 0.3305(4)
H2_16 H 0.3257 0.8135 0.2773
C6_16 C 0.3319(2) 0.72002(18) 0.2930(4)
C7_16 C 0.32412(19) 0.67140(17) 0.3742(4)
H3_16 H 0.3342 0.6314 0.3493
C8_16 C 0.28271(16) 0.85531(16) 0.4899(3)
C9_12 C 0.3667(3) 0.7528(2) 0.0925(4)
H4_12 H 0.3994 0.7781 0.1255
H5_12 H 0.3796 0.7353 0.0148
H6_12 H 0.3304 0.7777 0.0799
O5_13 O 0.54589(14) 0.60297(17) 0.0726(3)
C9_13 C 0.4972(2) 0.6167(3) 0.1575(4)
H4_13 H 0.4719 0.6494 0.1245
H5_13 H 0.5147 0.6296 0.2352
H6_13 H 0.4723 0.5804 0.1701
O5_14 O 0.45411(14) 0.89703(17) 0.0726(3)
C9_14 C 0.5028(2) 0.8833(3) 0.1575(4)
H4_14 H 0.5281 0.8506 0.1245
H5_14 H 0.4853 0.8704 0.2352
H6_14 H 0.5277 0.9196 0.1701
O5_15 O 0.45411(14) 0.39703(17) 0.9274(3)
C9_15 C 0.5028(2) 0.3833(3) 0.8425(4)
H4_15 H 0.5281 0.3506 0.8755
H5_15 H 0.4853 0.3704 0.7648
H6_15 H 0.5277 0.4196 0.8299
O5_16 O 0.54589(14) 0.10297(17) 0.9274(3)
C9_16 C 0.4972(2) 0.1167(3) 0.8425(4)
H4_16 H 0.4719 0.1494 0.8755
H5_16 H 0.5147 0.1296 0.7648
H6_16 H 0.4723 0.0804 0.8299
loop_
_geom_bond_atom_site_label_1
_geom_bond_atom_site_label_2
_geom_bond_site_symmetry_1
_geom_bond_site_symmetry_2
O3 C8 1_555 1_555
O4 C8 1_555 1_555
C5 C4 1_555 1_555
H2 C5 1_555 1_555
C8 C4 1_555 1_555
H4 C9 1_555 1_555
H6 C9 1_555 1_555
Ga4 O3 1_555 1_555
Ga5 O4 1_555 1_555
Ga1 O1 1_555 1_555
O1 C1 1_555 1_555
O2 C1 1_555 1_555
O5 C6 1_555 1_555
O6 Ga1 1_555 1_555
C1 C2 1_555 1_555
C2 C3 1_555 1_555
C3 H1 1_555 1_555
C7 C2 1_555 1_555
H3 C7 1_555 1_555
Ga3 O6 1_555 1_555
O7 Ga1 1_555 1_555
O8 Ga1 1_555 1_555
O9 Ga1 1_555 1_555
O10 Ga1 1_555 1_555
C6 C7 1_555 1_555
Ga1_2 O1_2 1_555 1_555
O1_2 C1_2 1_555 1_555
O2_2 C1_2 1_555 1_555
O3_2 C8_2 1_555 1_555
O4_2 C8_2 1_555 1_555
O6_2 Ga1_2 1_555 1_555
C1_2 C2_2 1_555 1_555
C2_2 C3_2 1_555 1_555
C3_2 H1_2 1_555 1_555
C4_2 C3_2 1_555 1_555
C5_2 C4_2 1_555 1_555
H2_2 C5_2 1_555 1_555
C6_2 C5_2 1_555 1_555
C7_2 C2_2 1_555 1_555
H3_2 C7_2 1_555 1_555
C8_2 C4_2 1_555 1_555
Ga3 O2_2 1_555 1_555
Ga2 O6_2 1_555 1_555
Ga4_2 O3_2 1_555 1_555
Ga5_2 O4_2 1_555 1_555
O7_2 Ga1_2 1_555 1_555
O8_2 Ga1_2 1_555 1_555
O9_2 Ga1_2 1_555 1_555
O10_2 Ga1_2 1_555 1_555
C6_2 C7_2 1_555 1_555
Ga3 O10_2 1_555 1_555
O1_3 C1_3 1_555 1_555
O2_3 C1_3 1_555 1_555
O3_3 C8_3 1_555 1_555
O4_3 C8_3 1_555 1_555
O5_2 C6_3 1_555 1_555
C1_3 C2_3 1_555 1_555
C2_3 C3_3 1_555 1_555
C3_3 H1_3 1_555 1_555
C4_3 C3_3 1_555 1_555
C5_3 C4_3 1_555 1_555
H2_3 C5_3 1_555 1_555
C6_3 C5_3 1_555 1_555
C7_3 C2_3 1_555 1_555
H3_3 C7_3 1_555 1_555
C8_3 C4_3 1_555 1_555
C9_2 O5_2 1_555 1_555
H4_2 C9_2 1_555 1_555
H5_2 C9_2 1_555 1_555
H6_2 C9_2 1_555 1_555
Ga2_2 O2_3 1_555 1_555
Ga5_2 O3_3 1_555 1_555
Ga4 O4_3 1_555 1_555
C6_3 C7_3 1_555 1_555
O6_3 Ga1_3 1_555 1_555
Ga3_2 O6_3 1_555 1_555
O7_3 Ga1_3 1_555 1_555
O8_3 Ga1_3 1_555 1_555
O9_3 Ga1_3 1_555 1_555
O10_3 Ga1_3 1_555 1_555
Ga2_2 O6_4 1_555 1_555
O8_4 Ga1_4 1_555 1_555
O9_4 Ga1_4 1_555 1_555
O10_4 Ga1_4 1_555 1_555
O3_4 C8_4 1_555 1_555
O5_3 C6_4 1_555 1_555
C5_4 C4_4 1_555 1_555
H2_4 C5_4 1_555 1_555
C6_4 C5_4 1_555 1_555
C7_4 C2_4 1_555 1_555
H3_4 C7_4 1_555 1_555
C8_4 C4_4 1_555 1_555
C9_3 O5_3 1_555 1_555
H4_3 C9_3 1_555 1_555
H5_3 C9_3 1_555 1_555
H6_3 C9_3 1_555 1_555
Ga5 O3_4 1_555 1_555
C6_4 C7_4 1_555 1_555
O1_4 C1_4 1_555 1_555
O2_4 C1_4 1_555 1_555
C3_4 H1_4 1_555 1_555
Ga3_2 O2_4 1_555 1_555
Ga4_2 O4_4 1_555 1_555
Ga5_3 O4_5 1_555 1_555
Ga3_2 O1_5 1_555 1_555
O1_5 C1_5 1_555 1_555
O7_3 C1_5 1_555 1_555
O3_5 C8_5 1_555 1_555
C1_5 C2_5 1_555 1_555
C2_5 C3_5 1_555 1_555
C3_5 H1_5 1_555 1_555
C4_5 C3_5 1_555 1_555
C5_5 C4_5 1_555 1_555
H2_5 C5_5 1_555 1_555
C6_5 C5_5 1_555 1_555
C7_5 C2_5 1_555 1_555
H3_5 C7_5 1_555 1_555
C8_5 C4_5 1_555 1_555
Ga4_3 O3_5 1_555 1_555
O8_5 Ga3_2 1_555 1_555
O9_5 Ga3_2 1_555 1_555
C6_5 C7_5 1_555 1_555
Ga2_2 O1_6 1_555 1_555
O1_6 C1_6 1_555 1_555
O7_4 C1_6 1_555 1_555
O5_4 C6_6 1_555 1_555
C1_6 C2_6 1_555 1_555
C2_6 C3_6 1_555 1_555
C3_6 H1_6 1_555 1_555
C7_6 C2_6 1_555 1_555
H3_6 C7_6 1_555 1_555
O8_6 Ga2_2 1_555 1_555
O9_6 Ga2_2 1_555 1_555
C6_6 C7_6 1_555 1_555
O3_6 C8_6 1_555 1_555
C5_6 C4_6 1_555 1_555
H2_6 C5_6 1_555 1_555
C8_6 C4_6 1_555 1_555
H4_4 C9_4 1_555 1_555
H6_4 C9_4 1_555 1_555
Ga4_4 O3_6 1_555 1_555
Ga5_4 O4_6 1_555 1_555
O3_7 C8_7 1_555 1_555
O5_5 C6_7 1_555 1_555
C5_7 C4_7 1_555 1_555
H2_7 C5_7 1_555 1_555
C6_7 C5_7 1_555 1_555
C7_7 C2_7 1_555 1_555
H3_7 C7_7 1_555 1_555
C8_7 C4_7 1_555 1_555
C9_5 O5_5 1_555 1_555
H4_5 C9_5 1_555 1_555
H5_5 C9_5 1_555 1_555
H6_5 C9_5 1_555 1_555
Ga5_4 O3_7 1_555 1_555
C6_7 C7_7 1_555 1_555
Ga2 O1_7 1_555 1_555
O1_7 C1_7 1_555 1_555
O7_2 C1_7 1_555 1_555
C3_7 H1_7 1_555 1_555
Ga4_3 O4_7 1_555 1_555
O8_7 Ga2 1_555 1_555
O9_7 Ga2 1_555 1_555
Ga3 O1_8 1_555 1_555
O1_8 C1_8 1_555 1_555
O7 C1_8 1_555 1_555
O3_8 C8_8 1_555 1_555
O4_8 C8_8 1_555 1_555
O5_6 C6_8 1_555 1_555
C1_8 C2_8 1_555 1_555
C2_8 C3_8 1_555 1_555
C3_8 H1_8 1_555 1_555
C4_8 C3_8 1_555 1_555
C5_8 C4_8 1_555 1_555
H2_8 C5_8 1_555 1_555
C6_8 C5_8 1_555 1_555
C7_8 C2_8 1_555 1_555
H3_8 C7_8 1_555 1_555
C8_8 C4_8 1_555 1_555
C9_6 O5_6 1_555 1_555
H4_6 C9_6 1_555 1_555
H5_6 C9_6 1_555 1_555
H6_6 C9_6 1_555 1_555
Ga5_3 O3_8 1_555 1_555
Ga4_4 O4_8 1_555 1_555
O8_8 Ga3 1_555 1_555
O9_8 Ga3 1_555 1_555
C6_8 C7_8 1_555 1_555
Ga4_2 O1_9 1_555 1_555
O1_9 C1_9 1_555 1_555
O2_5 C1_9 1_555 1_555
O5_7 C6_9 1_555 1_555
O6_5 Ga4_2 1_555 1_555
C1_9 C2_9 1_555 1_555
C2_9 C3_9 1_555 1_555
C3_9 H1_9 1_555 1_555
C7_9 C2_9 1_555 1_555
H3_9 C7_9 1_555 1_555
Ga5_2 O6_5 1_555 1_555
O7_5 Ga4_2 1_555 1_555
O10_5 Ga4_2 1_555 1_555
C6_9 C7_9 1_555 1_555
O8_2 C8_9 1_555 1_555
O9_7 C8_9 1_555 1_555
C5_9 C4_9 1_555 1_555
H2_9 C5_9 1_555 1_555
C8_9 C4_9 1_555 1_555
H4_7 C9_7 1_555 1_555
H6_7 C9_7 1_555 1_555
Ga4 O1_10 1_555 1_555
O1_10 C1_10 1_555 1_555
O2_6 C1_10 1_555 1_555
O8 C8_10 1_555 1_555
O9_8 C8_10 1_555 1_555
O6_6 Ga4 1_555 1_555
C1_10 C2_10 1_555 1_555
C2_10 C3_10 1_555 1_555
C3_10 H1_10 1_555 1_555
C4_10 C3_10 1_555 1_555
C5_10 C4_10 1_555 1_555
H2_10 C5_10 1_555 1_555
C6_10 C5_10 1_555 1_555
C7_10 C2_10 1_555 1_555
H3_10 C7_10 1_555 1_555
C8_10 C4_10 1_555 1_555
Ga5_2 O2_6 1_555 1_555
Ga5 O6_6 1_555 1_555
O7_6 Ga4 1_555 1_555
O10_6 Ga4 1_555 1_555
C6_10 C7_10 1_555 1_555
Ga5_2 O10_6 1_555 1_555
O6_7 Ga5_3 1_555 1_555
Ga4_4 O6_7 1_555 1_555
O7_7 Ga5_3 1_555 1_555
O10_7 Ga5_3 1_555 1_555
O1_11 C1_11 1_555 1_555
O2_7 C1_11 1_555 1_555
O8_8 C8_11 1_555 1_555
O9_2 C8_11 1_555 1_555
O5_8 C6_11 1_555 1_555
C1_11 C2_11 1_555 1_555
C2_11 C3_11 1_555 1_555
C3_11 H1_11 1_555 1_555
C4_11 C3_11 1_555 1_555
C5_11 C4_11 1_555 1_555
H2_11 C5_11 1_555 1_555
C6_11 C5_11 1_555 1_555
C7_11 C2_11 1_555 1_555
H3_11 C7_11 1_555 1_555
C8_11 C4_11 1_555 1_555
C9_8 O5_8 1_555 1_555
H4_8 C9_8 1_555 1_555
H5_8 C9_8 1_555 1_555
H6_8 C9_8 1_555 1_555
Ga4_3 O2_7 1_555 1_555
C6_11 C7_11 1_555 1_555
O1_12 C1_12 1_555 1_555
O2_8 C1_12 1_555 1_555
C3_12 H1_12 1_555 1_555
Ga4_4 O2_8 1_555 1_555
O8_7 C8_12 1_555 1_555
O5_9 C6_12 1_555 1_555
C5_12 C4_12 1_555 1_555
H2_12 C5_12 1_555 1_555
C6_12 C5_12 1_555 1_555
C7_12 C2_12 1_555 1_555
H3_12 C7_12 1_555 1_555
C8_12 C4_12 1_555 1_555
C9_9 O5_9 1_555 1_555
H4_9 C9_9 1_555 1_555
H5_9 C9_9 1_555 1_555
H6_9 C9_9 1_555 1_555
C6_12 C7_12 1_555 1_555
O10_8 Ga5_4 1_555 1_555
Ga4_3 O6_8 1_555 1_555
Ga4_4 O1_13 1_555 1_555
O1_13 C1_13 1_555 1_555
O7_7 C1_13 1_555 1_555
O8_6 C8_13 1_555 1_555
C1_13 C2_13 1_555 1_555
C2_13 C3_13 1_555 1_555
C3_13 H1_13 1_555 1_555
C4_13 C3_13 1_555 1_555
C5_13 C4_13 1_555 1_555
H2_13 C5_13 1_555 1_555
C6_13 C5_13 1_555 1_555
C7_13 C2_13 1_555 1_555
H3_13 C7_13 1_555 1_555
C8_13 C4_13 1_555 1_555
C6_13 C7_13 1_555 1_555
O8_5 C8_14 1_555 1_555
C5_14 C4_14 1_555 1_555
H2_14 C5_14 1_555 1_555
C8_14 C4_14 1_555 1_555
H4_10 C9_10 1_555 1_555
H6_10 C9_10 1_555 1_555
Ga4_3 O1_14 1_555 1_555
O1_14 C1_14 1_555 1_555
O7_8 C1_14 1_555 1_555
O5_10 C6_14 1_555 1_555
C1_14 C2_14 1_555 1_555
C2_14 C3_14 1_555 1_555
C3_14 H1_14 1_555 1_555
C7_14 C2_14 1_555 1_555
H3_14 C7_14 1_555 1_555
C6_14 C7_14 1_555 1_555
Ga5 O1_15 1_555 1_555
O1_15 C1_15 1_555 1_555
O7_6 C1_15 1_555 1_555
C3_15 H1_15 1_555 1_555
O8_4 C8_15 1_555 1_555
O5_11 C6_15 1_555 1_555
C5_15 C4_15 1_555 1_555
H2_15 C5_15 1_555 1_555
C6_15 C5_15 1_555 1_555
C7_15 C2_15 1_555 1_555
H3_15 C7_15 1_555 1_555
C8_15 C4_15 1_555 1_555
C9_11 O5_11 1_555 1_555
H4_11 C9_11 1_555 1_555
H5_11 C9_11 1_555 1_555
H6_11 C9_11 1_555 1_555
C6_15 C7_15 1_555 1_555
Ga5_2 O1_16 1_555 1_555
O1_16 C1_16 1_555 1_555
O7_5 C1_16 1_555 1_555
O8_3 C8_16 1_555 1_555
O9_5 C8_16 1_555 1_555
O5_12 C6_16 1_555 1_555
C1_16 C2_16 1_555 1_555
C2_16 C3_16 1_555 1_555
C3_16 H1_16 1_555 1_555
C4_16 C3_16 1_555 1_555
C5_16 C4_16 1_555 1_555
H2_16 C5_16 1_555 1_555
C6_16 C5_16 1_555 1_555
C7_16 C2_16 1_555 1_555
H3_16 C7_16 1_555 1_555
C8_16 C4_16 1_555 1_555
C9_12 O5_12 1_555 1_555
H4_12 C9_12 1_555 1_555
H5_12 C9_12 1_555 1_555
H6_12 C9_12 1_555 1_555
C6_16 C7_16 1_555 1_555
C9_13 O5_13 1_555 1_555
H4_13 C9_13 1_555 1_555
H5_13 C9_13 1_555 1_555
H6_13 C9_13 1_555 1_555
C9_14 O5_14 1_555 1_555
H4_14 C9_14 1_555 1_555
H5_14 C9_14 1_555 1_555
H6_14 C9_14 1_555 1_555
C9_15 O5_15 1_555 1_555
H4_15 C9_15 1_555 1_555
H5_15 C9_15 1_555 1_555
H6_15 C9_15 1_555 1_555
C9_16 O5_16 1_555 1_555
H4_16 C9_16 1_555 1_555
H5_16 C9_16 1_555 1_555
H6_16 C9_16 1_555 1_555

#END
