
###############################################################################
#
# This file contains modified crystal structure data generated from the
# MOF subset of the Cambridge Structural Database (CSD) v543 
# hosted by the Cambridge Crystallographic Data Centre (CCDC).
#
# This work is licensed under the Creative Commons
# Attribution-NonCommercial-ShareAlike 4.0 International License.
# To view a copy of this license, visit
# http://creativecommons.org/licenses/by-nc-sa/4.0/
# or send a letter to
# Creative Commons, PO Box 1866, Mountain View, CA 94042, USA.
#
# CIF created using the CSD Python API on 29 September 2022
# The structure has been converted into the P1 space group
# The structure has a 3D framework
# The original CSD entry OVEYOE is in the monoclinic crystal system
# The framework has been calculated to contain at least 10.0% void space
# The void calculation uses a probe of radius 1.32A, grid spacing 0.4
# H atom positions have been added when not included in the experimental data
#
###############################################################################

data_OVEYOE
_chemical_formula_moiety         '(C168 H140 N48 O32 Zn8)n'
_symmetry_cell_setting           triclinic
_symmetry_space_group_name_H-M   'P 1'
_symmetry_Int_Tables_number      1
_space_group_name_Hall           'P 1'
loop_
_symmetry_equiv_pos_site_id
_symmetry_equiv_pos_as_xyz
1 x,y,z
_cell_length_a                   15.656(3)
_cell_length_b                   19.749(4)
_cell_length_c                   16.405(3)
_cell_angle_alpha                90
_cell_angle_beta                 114.35(3)
_cell_angle_gamma                90
_cell_volume                     4621.06
loop_
_atom_site_label
_atom_site_type_symbol
_atom_site_fract_x
_atom_site_fract_y
_atom_site_fract_z
Zn1 Zn 0.16995(5) 0.12288(4) 0.19346(5)
O5 O 0.1398(3) 0.2061(2) 0.2402(3)
O6 O 0.1573(5) 0.2593(3) 0.1308(4)
N1 N 0.0684(4) 0.1064(3) 0.0668(3)
N7 N 0.0602(4) 0.3864(3) 0.4806(3)
N8 N 0.1565(4) 0.4008(3) 0.5305(4)
N11 N 0.1516(4) 0.0594(3) 0.2796(3)
N12 N 0.1260(4) 0.0268(3) 0.3963(3)
C17 C 0.0143(5) 0.3818(3) 0.3909(4)
C19 C 0.0579(4) 0.3842(3) 0.3257(4)
C20 C 0.0775(4) 0.3240(3) 0.2940(4)
H9 H 0.0640 0.2830 0.3139
C21 C 0.1177(4) 0.3245(3) 0.2322(4)
C22 C 0.1384(4) 0.3870(3) 0.2038(4)
H10 H 0.1651 0.3878 0.1626
C23 C 0.1198(5) 0.4471(3) 0.2359(4)
H11 H 0.1341 0.4881 0.2166
C24 C 0.0793(5) 0.4463(4) 0.2975(4)
H12 H 0.0667 0.4867 0.3195
C25 C 0.1385(5) 0.2592(4) 0.1980(4)
C26 C 0.0128(5) 0.3672(3) 0.6097(4)
C29 C 0.0294(5) 0.3438(3) 0.7846(4)
H14 H 0.0351 0.3363 0.8426
C30 C 0.1065(5) 0.3340(3) 0.7643(4)
H15 H 0.1632 0.3193 0.8083
C31 C 0.0983(5) 0.3464(3) 0.6764(4)
H16 H 0.1500 0.3408 0.6630
H23 H 0.0141 0.4302 0.0209
C38 C 0.1307(4) 0.0794(3) 0.3467(4)
H24 H 0.1206 0.1242 0.3577
C41 C 0.1056(5) 0.0290(3) 0.4766(4)
H27 H 0.1088 0.0755 0.4968
H28 H 0.1526 0.0031 0.5243
C42 C 0.0093(5) 0.0005(4) 0.4571(4)
H31 H 0.178(6) 0.432(3) 0.509(6)
H32 H 0.185(6) 0.363(2) 0.535(6)
O17 O 0.2830(3) 0.1062(2) 0.1747(3)
H39 H 0.1202 0.0091 0.7710
H40 H 0.0538 0.0006 0.8742
C78 C 0.1241(5) 0.5405(4) 0.0346(4)
H52 H 0.1591 0.5034 0.0724
H53 H 0.1490 0.5824 0.0664
C79 C 0.0216(5) 0.5342(3) 0.0194(4)
H54 H 0.0169 0.5408 0.0760
O3 O 0.2047(3) 0.1317(2) 0.7640(3)
O4 O 0.1240(3) 0.1687(2) 0.6248(3)
N2 N 0.0811(4) 0.1227(3) 0.9897(3)
C4 C 0.0552(5) 0.1435(3) 0.8085(4)
H1 H 0.1107 0.1241 0.8489
C5 C 0.0471(5) 0.1628(3) 0.7236(4)
C9 C 0.1294(5) 0.1536(3) 0.7001(4)
Zn6 Zn 0.31850(5) 0.14335(4) 0.74765(5)
Zn7 Zn 0.18150(5) 0.64335(4) 0.75235(5)
N21 N 0.1596(4) 0.5780(3) 0.8350(3)
N23 N 0.1392(4) 0.5398(3) 0.9519(3)
C75 C 0.1447(5) 0.5955(3) 0.9059(4)
H49 H 0.1388 0.6399 0.9220
C76 C 0.1608(5) 0.5081(3) 0.8343(4)
H50 H 0.1683 0.4814 0.7909
C77 C 0.1493(5) 0.4844(3) 0.9071(4)
H51 H 0.1485 0.4393 0.9231
N15 N 0.0698(4) 0.8762(3) 0.0414(3)
N16 N 0.1682(4) 0.8738(4) 0.0904(4)
C43 C 0.0031(5) 0.8675(3) 0.0749(4)
C45 C 0.0188(5) 0.8471(3) 0.1670(4)
C48 C 0.0357(5) 0.8068(3) 0.3353(4)
H34 H 0.0419 0.7935 0.3919
C49 C 0.1095(5) 0.7961(3) 0.3098(4)
H35 H 0.1646 0.7758 0.3495
C50 C 0.1012(5) 0.8153(3) 0.2262(4)
H36 H 0.1500 0.8073 0.2090
H67 H 0.18695 0.827603 0.119444
H68 H 0.200014 0.881969 0.0484553
C39 C 0.1571(5) 0.9891(3) 0.2857(4)
H25 H 0.1687 0.9605 0.2463
C40 C 0.1428(5) 0.9691(3) 0.3584(4)
H26 H 0.1442 0.9249 0.3786
H29 H 0.0049 0.9548 0.4340
Zn5 Zn 0.33005(5) 0.62288(4) 0.30654(5)
O9 O 0.1655(3) 0.7289(2) 0.8055(3)
O10 O 0.1582(3) 0.7821(2) 0.6840(3)
O13 O 0.2953(3) 0.6317(2) 0.7360(3)
O19 O 0.2170(3) 0.6062(2) 0.3253(3)
O20 O 0.1391(3) 0.6494(2) 0.1896(3)
N17 N 0.0751(4) 0.6301(3) 0.6305(3)
N18 N 0.0875(4) 0.6350(3) 0.5513(3)
C44 C 0.0221(5) 0.8915(3) 0.9526(4)
C52 C 0.0656(4) 0.8985(3) 0.8883(4)
C53 C 0.0926(4) 0.8403(3) 0.8580(4)
H37 H 0.0867 0.7981 0.8804
C54 C 0.1285(4) 0.8457(3) 0.7940(4)
C55 C 0.1380(5) 0.9083(3) 0.7611(4)
H38 H 0.1620 0.9112 0.7179
C56 C 0.1120(5) 0.9670(3) 0.7921(4)
C57 C 0.0738(5) 0.9620(3) 0.8548(4)
C58 C 0.1530(5) 0.7819(3) 0.7577(4)
C60 C 0.0034(5) 0.6261(3) 0.4845(4)
C69 C 0.0628(5) 0.6232(3) 0.3687(4)
H45 H 0.1194 0.6084 0.4128
C70 C 0.0567(5) 0.6351(3) 0.2815(4)
C74 C 0.1413(5) 0.6308(3) 0.2616(4)
H62 H 0.0380 0.9722 0.5883
Zn2 Zn 0.81850(5) 0.35665(4) 0.24765(5)
O1 O 0.8345(3) 0.2711(2) 0.1945(3)
O2 O 0.8418(3) 0.2179(2) 0.3160(3)
O7 O 0.7830(3) 0.3938(2) 0.6747(3)
O8 O 0.8609(3) 0.3506(2) 0.8104(3)
N5 N 0.9249(4) 0.3699(3) 0.3695(3)
N6 N 0.9125(4) 0.3650(3) 0.4487(3)
N9 N 0.8404(4) 0.4220(3) 0.1650(3)
N10 N 0.8608(4) 0.4602(3) 0.0481(3)
C2 C 0.9779(5) 0.1085(3) 0.0474(4)
C10 C 0.9344(4) 0.1015(3) 0.1117(4)
C11 C 0.9074(4) 0.1597(3) 0.1420(4)
H5 H 0.9133 0.2019 0.1196
C12 C 0.8715(4) 0.1543(3) 0.2060(4)
C13 C 0.8620(5) 0.0917(3) 0.2389(4)
H6 H 0.8380 0.0888 0.2821
C14 C 0.8880(5) 0.0330(3) 0.2079(4)
C15 C 0.9262(5) 0.0380(3) 0.1452(4)
C16 C 0.8470(5) 0.2181(3) 0.2423(4)
C18 C 0.9966(5) 0.3739(3) 0.5155(4)
C27 C 0.9372(5) 0.3768(3) 0.6313(4)
H13 H 0.8806 0.3916 0.5872
C28 C 0.9433(5) 0.3649(3) 0.7185(4)
C32 C 0.8587(5) 0.3692(3) 0.7384(4)
C33 C 0.8553(5) 0.4045(3) 0.0941(4)
H17 H 0.8612 0.3601 0.0780
C34 C 0.8392(5) 0.4919(3) 0.1657(4)
H18 H 0.8317 0.5186 0.2091
C35 C 0.8507(5) 0.5156(3) 0.0929(4)
H19 H 0.8515 0.5607 0.0769
H30 H 0.9620 0.0278 0.4117
Zn3 Zn 0.66995(5) 0.37712(4) 0.69346(5)
O11 O 0.7047(3) 0.3683(2) 0.2640(3)
C81 C 0.8429(5) 0.0109(3) 0.7143(4)
H57 H 0.8313 0.0395 0.7537
C82 C 0.8572(5) 0.0309(3) 0.6416(4)
H58 H 0.8558 0.0751 0.6214
H61 H 0.9951 0.0452 0.5660
N3 N 0.9302(4) 0.1238(3) 0.9586(3)
N4 N 0.8318(4) 0.1262(4) 0.9096(4)
C1 C 0.9969(5) 0.1325(3) 0.9251(4)
C3 C 0.9812(5) 0.1529(3) 0.8330(4)
C6 C 0.9643(5) 0.1932(3) 0.6647(4)
H2 H 0.9581 0.2065 0.6081
C7 C 0.8905(5) 0.2039(3) 0.6902(4)
H3 H 0.8354 0.2242 0.6505
C8 C 0.8988(5) 0.1847(3) 0.7738(4)
H4 H 0.8500 0.1927 0.7910
C36 C 0.8759(5) 0.4595(4) 0.9654(4)
H20 H 0.8409 0.4966 0.9276
H21 H 0.8510 0.4176 0.9336
C37 C 0.9784(5) 0.4658(3) 0.9806(4)
H22 H 0.9831 0.4592 0.9240
H55 H 0.9859 0.5698 0.9791
H65 H 0.81175 0.0898945 0.861536
H66 H 0.799986 0.118031 0.951545
Zn9 Zn 0.68150(5) 0.85665(4) 0.25235(5)
O12 O 0.7953(3) 0.8683(2) 0.2360(3)
O14 O 0.8760(3) 0.8313(2) 0.3752(3)
N14 N 0.9189(4) 0.8773(3) 0.0103(3)
C46 C 0.9448(5) 0.8565(3) 0.1915(4)
H33 H 0.8893 0.8759 0.1511
C47 C 0.9529(5) 0.8372(3) 0.2764(4)
C51 C 0.8706(5) 0.8464(3) 0.2999(4)
H7 H 0.8798 0.9909 0.2290
H8 H 0.9462 0.9994 0.1258
Zn4 Zn 0.83005(5) 0.87712(4) 0.80654(5)
O15 O 0.8602(3) 0.7939(2) 0.7598(3)
O16 O 0.8427(5) 0.7407(3) 0.8692(4)
O18 O 0.7170(3) 0.8938(2) 0.8253(3)
N13 N 0.9316(4) 0.8936(3) 0.9332(3)
N19 N 0.9398(4) 0.6136(3) 0.5194(3)
N20 N 0.8435(4) 0.5992(3) 0.4695(4)
N24 N 0.8484(4) 0.9406(3) 0.7204(3)
N25 N 0.8740(4) 0.9732(3) 0.6037(3)
C59 C 0.9857(5) 0.6182(3) 0.6091(4)
C61 C 0.9421(4) 0.6158(3) 0.6743(4)
C62 C 0.9225(4) 0.6760(3) 0.7060(4)
H41 H 0.9360 0.7170 0.6861
C63 C 0.8823(4) 0.6755(3) 0.7678(4)
C64 C 0.8616(4) 0.6130(3) 0.7962(4)
H42 H 0.8349 0.6122 0.8374
C65 C 0.8802(5) 0.5529(3) 0.7641(4)
H43 H 0.8659 0.5119 0.7834
C66 C 0.9207(5) 0.5537(4) 0.7025(4)
H44 H 0.9333 0.5133 0.6805
C67 C 0.8615(5) 0.7408(4) 0.8020(4)
C68 C 0.9872(5) 0.6328(3) 0.3903(4)
C71 C 0.9706(5) 0.6562(3) 0.2154(4)
H46 H 0.9649 0.6637 0.1574
C72 C 0.8935(5) 0.6660(3) 0.2357(4)
H47 H 0.8368 0.6807 0.1917
C73 C 0.9017(5) 0.6536(3) 0.3236(4)
H48 H 0.8500 0.6592 0.3370
C80 C 0.8693(4) 0.9206(3) 0.6533(4)
H56 H 0.8794 0.8758 0.6423
C83 C 0.8944(5) 0.9710(3) 0.5234(4)
H59 H 0.8912 0.9245 0.5032
H60 H 0.8474 0.9969 0.4757
C84 C 0.9907(5) 0.9995(4) 0.5429(4)
H63 H 0.822(6) 0.568(3) 0.491(6)
H64 H 0.815(6) 0.637(2) 0.465(6)
H18_2 H 0.6683 0.0186 0.2909
C35_2 C 0.6493(5) 0.0156(3) 0.4071(4)
H19_2 H 0.6485 0.0607 0.4231
N21_2 N 0.3404(4) 0.0780(3) 0.6650(3)
N23_2 N 0.3608(4) 0.0398(3) 0.5481(3)
C75_2 C 0.3553(5) 0.0955(3) 0.5941(4)
H49_2 H 0.3612 0.1399 0.5780
C76_2 C 0.3392(5) 0.0081(3) 0.6657(4)
C78_2 C 0.3759(5) 0.0405(4) 0.4654(4)
H52_2 H 0.3409 0.0034 0.4276
H53_2 H 0.3510 0.0824 0.4336
C79_2 C 0.4784(5) 0.0342(3) 0.4806(4)
H54_2 H 0.4831 0.0408 0.4240
H55_2 H 0.5141 0.0698 0.5209
O1_2 O 0.6655(3) 0.7711(2) 0.3055(3)
O2_2 O 0.6582(3) 0.7179(2) 0.1840(3)
O4_2 O 0.3760(3) 0.6687(2) 0.8752(3)
O5_2 O 0.3602(3) 0.7061(2) 0.2598(3)
O6_2 O 0.3427(5) 0.7593(3) 0.3692(4)
N1_2 N 0.4316(4) 0.6064(3) 0.4332(3)
N2_2 N 0.4189(4) 0.6227(3) 0.5103(3)
N3_2 N 0.5698(4) 0.6238(3) 0.5414(3)
N4_2 N 0.6682(4) 0.6262(4) 0.5904(4)
N5_2 N 0.5751(4) 0.8699(3) 0.1305(3)
N6_2 N 0.5875(4) 0.8650(3) 0.0513(3)
N7_2 N 0.4398(4) 0.8864(3) 0.0194(3)
N9_2 N 0.6596(4) 0.9220(3) 0.3350(3)
N10_2 N 0.6392(4) 0.9602(3) 0.4519(3)
N11_2 N 0.3484(4) 0.5594(3) 0.2204(3)
N12_2 N 0.3740(4) 0.5268(3) 0.1037(3)
C1_2 C 0.5031(5) 0.6325(3) 0.5749(4)
C2_2 C 0.5221(5) 0.6085(3) 0.4526(4)
C3_2 C 0.5188(5) 0.6529(3) 0.6670(4)
C4_2 C 0.4448(5) 0.6435(3) 0.6915(4)
H1_2 H 0.3893 0.6241 0.6511
C5_2 C 0.4529(5) 0.6628(3) 0.7764(4)
C6_2 C 0.5357(5) 0.6932(3) 0.8353(4)
H2_2 H 0.5419 0.7065 0.8919
C7_2 C 0.6095(5) 0.7039(3) 0.8098(4)
H3_2 H 0.6646 0.7242 0.8495
C8_2 C 0.6012(5) 0.6847(3) 0.7262(4)
H4_2 H 0.6500 0.6927 0.7090
C9_2 C 0.3706(5) 0.6536(3) 0.7999(4)
C10_2 C 0.5656(4) 0.6015(3) 0.3883(4)
C11_2 C 0.5926(4) 0.6597(3) 0.3580(4)
H5_2 H 0.5867 0.7019 0.3804
C12_2 C 0.6285(4) 0.6543(3) 0.2940(4)
C13_2 C 0.6380(5) 0.5917(3) 0.2611(4)
H6_2 H 0.6620 0.5888 0.2179
C14_2 C 0.6120(5) 0.5330(3) 0.2921(4)
H7_2 H 0.6202 0.4909 0.2710
C15_2 C 0.5738(5) 0.5380(3) 0.3548(4)
H8_2 H 0.5538 0.4994 0.3742
C16_2 C 0.6530(5) 0.7181(3) 0.2577(4)
C17_2 C 0.4857(5) 0.8818(3) 0.1091(4)
C19_2 C 0.4421(4) 0.8842(3) 0.1743(4)
C20_2 C 0.4225(4) 0.8240(3) 0.2060(4)
H9_2 H 0.4360 0.7830 0.1861
C21_2 C 0.3823(4) 0.8245(3) 0.2678(4)
C22_2 C 0.3616(4) 0.8870(3) 0.2962(4)
H10_2 H 0.3349 0.8878 0.3374
C23_2 C 0.3802(5) 0.9471(3) 0.2641(4)
H11_2 H 0.3659 0.9881 0.2834
C24_2 C 0.4207(5) 0.9463(4) 0.2025(4)
H12_2 H 0.4333 0.9867 0.1805
C25_2 C 0.3615(5) 0.7592(4) 0.3020(4)
C33_2 C 0.6447(5) 0.9045(3) 0.4059(4)
H17_2 H 0.6388 0.8601 0.4220
C34_2 C 0.6608(5) 0.9919(3) 0.3343(4)
C36_2 C 0.6241(5) 0.9595(4) 0.5346(4)
H20_2 H 0.6591 0.9966 0.5724
H21_2 H 0.6490 0.9176 0.5664
C37_2 C 0.5216(5) 0.9658(3) 0.5194(4)
H22_2 H 0.5169 0.9592 0.5760
H23_2 H 0.4859 0.9302 0.4791
C38_2 C 0.3693(4) 0.5794(3) 0.1533(4)
H24_2 H 0.3794 0.6242 0.1423
C39_2 C 0.3429(5) 0.4891(3) 0.2143(4)
H25_2 H 0.3313 0.4605 0.2537
C40_2 C 0.3572(5) 0.4691(3) 0.1416(4)
H26_2 H 0.3558 0.4249 0.1214
C41_2 C 0.3944(5) 0.5290(3) 0.0234(4)
H27_2 H 0.3912 0.5755 0.0032
C42_2 C 0.4907(5) 0.5005(4) 0.0429(4)
H29_2 H 0.4951 0.4548 0.0660
H30_2 H 0.5380 0.5278 0.0883
O20_2 O 0.3609(3) 0.1494(2) 0.3104(3)
N20_2 N 0.6565(4) 0.0992(3) 0.0305(4)
C60_2 C 0.4966(5) 0.1261(3) 0.0155(4)
C68_2 C 0.5128(5) 0.1328(3) 0.1097(4)
C69_2 C 0.4372(5) 0.1232(3) 0.1313(4)
H45_2 H 0.3806 0.1084 0.0872
C70_2 C 0.4433(5) 0.1351(3) 0.2185(4)
C71_2 C 0.5294(5) 0.1562(3) 0.2846(4)
H46_2 H 0.5351 0.1637 0.3426
C72_2 C 0.6065(5) 0.1660(3) 0.2643(4)
H47_2 H 0.6632 0.1807 0.3083
C73_2 C 0.5983(5) 0.1536(3) 0.1764(4)
H48_2 H 0.6500 0.1592 0.1630
C74_2 C 0.3587(5) 0.1308(3) 0.2384(4)
H50_2 H 0.3317 0.9814 0.7091
C77_2 C 0.3507(5) 0.9844(3) 0.5929(4)
H51_2 H 0.3515 0.9393 0.5769
H60_2 H 0.6526 0.4969 0.0243
H63_2 H 0.678(6) 0.068(3) 0.009(6)
H64_2 H 0.685(6) 0.137(2) 0.035(6)
H65_2 H 0.68825 0.589895 0.638464
H66_2 H 0.700014 0.618031 0.548455
O8_2 O 0.6391(3) 0.8506(2) 0.6896(3)
N8_2 N 0.3435(4) 0.9008(3) 0.9695(4)
C18_2 C 0.5034(5) 0.8739(3) 0.9845(4)
C26_2 C 0.4872(5) 0.8672(3) 0.8903(4)
C27_2 C 0.5628(5) 0.8768(3) 0.8687(4)
H13_2 H 0.6194 0.8916 0.9128
C28_2 C 0.5567(5) 0.8649(3) 0.7815(4)
C29_2 C 0.4706(5) 0.8438(3) 0.7154(4)
H14_2 H 0.4649 0.8363 0.6574
C30_2 C 0.3935(5) 0.8340(3) 0.7357(4)
H15_2 H 0.3368 0.8193 0.6917
C31_2 C 0.4017(5) 0.8464(3) 0.8236(4)
H16_2 H 0.3500 0.8408 0.8370
C32_2 C 0.6413(5) 0.8692(3) 0.7616(4)
H28_2 H 0.3474 0.5031 0.9757
H31_2 H 0.322(6) 0.932(3) 0.991(6)
H32_2 H 0.315(6) 0.863(2) 0.965(6)
O9_2 O 0.3345(3) 0.2289(2) 0.6945(3)
O10_2 O 0.3418(3) 0.2821(2) 0.8160(3)
O14_2 O 0.6240(3) 0.3313(2) 0.1248(3)
O15_2 O 0.6398(3) 0.2939(2) 0.7402(3)
O16_2 O 0.6573(5) 0.2407(3) 0.6308(4)
N13_2 N 0.5684(4) 0.3936(3) 0.5668(3)
N14_2 N 0.5811(4) 0.3773(3) 0.4897(3)
N15_2 N 0.4302(4) 0.3762(3) 0.4586(3)
N16_2 N 0.3318(4) 0.3738(4) 0.4096(4)
N17_2 N 0.4249(4) 0.1301(3) 0.8695(3)
N18_2 N 0.4125(4) 0.1350(3) 0.9487(3)
N19_2 N 0.5602(4) 0.1136(3) 0.9806(3)
N24_2 N 0.6516(4) 0.4406(3) 0.7796(3)
N25_2 N 0.6260(4) 0.4732(3) 0.8963(3)
C43_2 C 0.4969(5) 0.3675(3) 0.4251(4)
C44_2 C 0.4779(5) 0.3915(3) 0.5474(4)
C45_2 C 0.4812(5) 0.3471(3) 0.3330(4)
C46_2 C 0.5552(5) 0.3565(3) 0.3085(4)
H33_2 H 0.6107 0.3759 0.3489
C47_2 C 0.5471(5) 0.3372(3) 0.2236(4)
C48_2 C 0.4643(5) 0.3068(3) 0.1647(4)
H34_2 H 0.4581 0.2935 0.1081
C49_2 C 0.3905(5) 0.2961(3) 0.1902(4)
H35_2 H 0.3354 0.2758 0.1505
C50_2 C 0.3988(5) 0.3153(3) 0.2738(4)
H36_2 H 0.3500 0.3073 0.2910
C51_2 C 0.6294(5) 0.3464(3) 0.2001(4)
C52_2 C 0.4344(4) 0.3985(3) 0.6117(4)
C53_2 C 0.4074(4) 0.3403(3) 0.6420(4)
H37_2 H 0.4133 0.2981 0.6196
C54_2 C 0.3715(4) 0.3457(3) 0.7060(4)
C55_2 C 0.3620(5) 0.4083(3) 0.7389(4)
H38_2 H 0.3380 0.4112 0.7821
C56_2 C 0.3880(5) 0.4670(3) 0.7079(4)
H39_2 H 0.3798 0.5091 0.7290
C57_2 C 0.4262(5) 0.4620(3) 0.6452(4)
H40_2 H 0.4462 0.5006 0.6258
C58_2 C 0.3470(5) 0.2819(3) 0.7423(4)
C59_2 C 0.5143(5) 0.1182(3) 0.8909(4)
C61_2 C 0.5579(4) 0.1158(3) 0.8257(4)
C62_2 C 0.5775(4) 0.1760(3) 0.7940(4)
H41_2 H 0.5640 0.2170 0.8139
C63_2 C 0.6177(4) 0.1755(3) 0.7322(4)
C64_2 C 0.6384(4) 0.1130(3) 0.7038(4)
H42_2 H 0.6651 0.1122 0.6626
C65_2 C 0.6198(5) 0.0529(3) 0.7359(4)
H43_2 H 0.6341 0.0119 0.7166
C66_2 C 0.5793(5) 0.0537(4) 0.7975(4)
H44_2 H 0.5667 0.0133 0.8195
C67_2 C 0.6385(5) 0.2408(4) 0.6980(4)
C80_2 C 0.6307(4) 0.4206(3) 0.8467(4)
H56_2 H 0.6206 0.3758 0.8577
C81_2 C 0.6571(5) 0.5109(3) 0.7857(4)
H57_2 H 0.6687 0.5395 0.7463
C82_2 C 0.6428(5) 0.5309(3) 0.8584(4)
H58_2 H 0.6442 0.5751 0.8786
C83_2 C 0.6056(5) 0.4710(3) 0.9766(4)
H59_2 H 0.6088 0.4245 0.9968
C84_2 C 0.5093(5) 0.4995(4) 0.9571(4)
H61_2 H 0.5049 0.5452 0.9340
H62_2 H 0.4620 0.4722 0.9117
H67_2 H 0.31305 0.327603 0.380556
H68_2 H 0.299986 0.381969 0.451545
H65_3 H 0.18825 0.910105 0.138464
H67_3 H 0.81305 0.172397 0.880556
H67_4 H 0.68695 0.672397 0.619444
H65_4 H 0.31175 0.410105 0.361536
loop_
_geom_bond_atom_site_label_1
_geom_bond_atom_site_label_2
_geom_bond_site_symmetry_1
_geom_bond_site_symmetry_2
Zn1 O5 1_555 1_555
O5 C25 1_555 1_555
O6 C25 1_555 1_555
N1 Zn1 1_555 1_555
N7 N8 1_555 1_555
N8 H31 1_555 1_555
N11 Zn1 1_555 1_555
N12 C38 1_555 1_555
C19 C17 1_555 1_555
C20 C19 1_555 1_555
H9 C20 1_555 1_555
C21 C20 1_555 1_555
C22 C21 1_555 1_555
H10 C22 1_555 1_555
C23 C22 1_555 1_555
H11 C23 1_555 1_555
C24 C19 1_555 1_555
H12 C24 1_555 1_555
C25 C21 1_555 1_555
H14 C29 1_555 1_555
C30 C29 1_555 1_555
H15 C30 1_555 1_555
C31 C26 1_555 1_555
H16 C31 1_555 1_555
C38 N11 1_555 1_555
H24 C38 1_555 1_555
C41 N12 1_555 1_555
H27 C41 1_555 1_555
H28 C41 1_555 1_555
C42 C41 1_555 1_555
H32 N8 1_555 1_555
O17 Zn1 1_555 1_555
H52 C78 1_555 1_555
H53 C78 1_555 1_555
H54 C79 1_555 1_555
N7 C17 1_555 1_555
C23 C24 1_555 1_555
C30 C31 1_555 1_555
C78 C79 1_555 1_555
O3 C9 1_555 1_555
O4 C9 1_555 1_555
H1 C4 1_555 1_555
C5 C4 1_555 1_555
C9 C5 1_555 1_555
Zn6 O3 1_555 1_555
Zn7 N21 1_555 1_555
N21 C75 1_555 1_555
N23 C75 1_555 1_555
C75 H49 1_555 1_555
C76 N21 1_555 1_555
H50 C76 1_555 1_555
C77 N23 1_555 1_555
H51 C77 1_555 1_555
C76 C77 1_555 1_555
N15 N16 1_555 1_555
C45 C43 1_555 1_555
H34 C48 1_555 1_555
C49 C48 1_555 1_555
H35 C49 1_555 1_555
C50 C45 1_555 1_555
H36 C50 1_555 1_555
N15 C43 1_555 1_555
C49 C50 1_555 1_555
N16 H67 1_555 1_555
N16 H68 1_555 1_555
H25 C39 1_555 1_555
H26 C40 1_555 1_555
Zn5 O19 1_555 1_555
Zn7 O9 1_555 1_555
O9 C58 1_555 1_555
O10 C58 1_555 1_555
O13 Zn7 1_555 1_555
O19 C74 1_555 1_555
O20 C74 1_555 1_555
N17 Zn7 1_555 1_555
N18 N17 1_555 1_555
C52 C44 1_555 1_555
C53 C52 1_555 1_555
H37 C53 1_555 1_555
C54 C53 1_555 1_555
C55 C54 1_555 1_555
H38 C55 1_555 1_555
C56 C55 1_555 1_555
C57 C52 1_555 1_555
C58 C54 1_555 1_555
C60 N18 1_555 1_555
H45 C69 1_555 1_555
C70 C69 1_555 1_555
C74 C70 1_555 1_555
C39 C40 1_555 1_555
C56 C57 1_555 1_555
Zn2 O1 1_555 1_555
O1 C16 1_555 1_555
O2 C16 1_555 1_555
O7 C32 1_555 1_555
O8 C32 1_555 1_555
N5 Zn2 1_555 1_555
N6 N5 1_555 1_555
N9 Zn2 1_555 1_555
N10 C33 1_555 1_555
C10 C2 1_555 1_555
C11 C10 1_555 1_555
H5 C11 1_555 1_555
C12 C11 1_555 1_555
C13 C12 1_555 1_555
H6 C13 1_555 1_555
C14 C13 1_555 1_555
C15 C10 1_555 1_555
C16 C12 1_555 1_555
C18 N6 1_555 1_555
H13 C27 1_555 1_555
C28 C27 1_555 1_555
C32 C28 1_555 1_555
C33 N9 1_555 1_555
H17 C33 1_555 1_555
C34 N9 1_555 1_555
H18 C34 1_555 1_555
C35 N10 1_555 1_555
H19 C35 1_555 1_555
Zn3 O7 1_555 1_555
O11 Zn2 1_555 1_555
H57 C81 1_555 1_555
H58 C82 1_555 1_555
C14 C15 1_555 1_555
C34 C35 1_555 1_555
C81 C82 1_555 1_555
N3 N4 1_555 1_555
C3 C1 1_555 1_555
H2 C6 1_555 1_555
C7 C6 1_555 1_555
H3 C7 1_555 1_555
C8 C3 1_555 1_555
H4 C8 1_555 1_555
H20 C36 1_555 1_555
H21 C36 1_555 1_555
C37 C36 1_555 1_555
H22 C37 1_555 1_555
N3 C1 1_555 1_555
C7 C8 1_555 1_555
N4 H65 1_555 1_555
N4 H66 1_555 1_555
Zn9 O12 1_555 1_555
O12 C51 1_555 1_555
O14 C51 1_555 1_555
H33 C46 1_555 1_555
C47 C46 1_555 1_555
C51 C47 1_555 1_555
Zn4 O15 1_555 1_555
O15 C67 1_555 1_555
O16 C67 1_555 1_555
O18 Zn4 1_555 1_555
N13 Zn4 1_555 1_555
N19 N20 1_555 1_555
N20 H63 1_555 1_555
N24 Zn4 1_555 1_555
N25 C80 1_555 1_555
C61 C59 1_555 1_555
C62 C61 1_555 1_555
H41 C62 1_555 1_555
C63 C62 1_555 1_555
C64 C63 1_555 1_555
H42 C64 1_555 1_555
C65 C64 1_555 1_555
H43 C65 1_555 1_555
C66 C61 1_555 1_555
H44 C66 1_555 1_555
C67 C63 1_555 1_555
H46 C71 1_555 1_555
C72 C71 1_555 1_555
H47 C72 1_555 1_555
C73 C68 1_555 1_555
H48 C73 1_555 1_555
C80 N24 1_555 1_555
H56 C80 1_555 1_555
C83 N25 1_555 1_555
H59 C83 1_555 1_555
H60 C83 1_555 1_555
H64 N20 1_555 1_555
N19 C59 1_555 1_555
C65 C66 1_555 1_555
C72 C73 1_555 1_555
C83 C84 1_555 1_555
H19_2 C35_2 1_555 1_555
Zn6 N21_2 1_555 1_555
N21_2 C75_2 1_555 1_555
N23_2 C75_2 1_555 1_555
C75_2 H49_2 1_555 1_555
C76_2 N21_2 1_555 1_555
C78_2 N23_2 1_555 1_555
H52_2 C78_2 1_555 1_555
H53_2 C78_2 1_555 1_555
H54_2 C79_2 1_555 1_555
H55_2 C79_2 1_555 1_555
C78_2 C79_2 1_555 1_555
Zn5 O5_2 1_555 1_555
Zn9 O1_2 1_555 1_555
O1_2 C16_2 1_555 1_555
O2_2 C16_2 1_555 1_555
O13 C9_2 1_555 1_555
O4_2 C9_2 1_555 1_555
O5_2 C25_2 1_555 1_555
O6_2 C25_2 1_555 1_555
N1_2 Zn5 1_555 1_555
N2_2 N1_2 1_555 1_555
N3_2 N4_2 1_555 1_555
N5_2 Zn9 1_555 1_555
N6_2 N5_2 1_555 1_555
N9_2 Zn9 1_555 1_555
N10_2 C33_2 1_555 1_555
N11_2 Zn5 1_555 1_555
N12_2 C38_2 1_555 1_555
C1_2 N2_2 1_555 1_555
C2_2 N1_2 1_555 1_555
C3_2 C1_2 1_555 1_555
C4_2 C3_2 1_555 1_555
H1_2 C4_2 1_555 1_555
C5_2 C4_2 1_555 1_555
C6_2 C5_2 1_555 1_555
H2_2 C6_2 1_555 1_555
C7_2 C6_2 1_555 1_555
H3_2 C7_2 1_555 1_555
C8_2 C3_2 1_555 1_555
H4_2 C8_2 1_555 1_555
C9_2 C5_2 1_555 1_555
C10_2 C2_2 1_555 1_555
C11_2 C10_2 1_555 1_555
H5_2 C11_2 1_555 1_555
C12_2 C11_2 1_555 1_555
C13_2 C12_2 1_555 1_555
H6_2 C13_2 1_555 1_555
C14_2 C13_2 1_555 1_555
H7_2 C14_2 1_555 1_555
C15_2 C10_2 1_555 1_555
H8_2 C15_2 1_555 1_555
C16_2 C12_2 1_555 1_555
C17_2 N5_2 1_555 1_555
C19_2 C17_2 1_555 1_555
C20_2 C19_2 1_555 1_555
H9_2 C20_2 1_555 1_555
C21_2 C20_2 1_555 1_555
C22_2 C21_2 1_555 1_555
H10_2 C22_2 1_555 1_555
C23_2 C22_2 1_555 1_555
H11_2 C23_2 1_555 1_555
C24_2 C19_2 1_555 1_555
H12_2 C24_2 1_555 1_555
C25_2 C21_2 1_555 1_555
C33_2 N9_2 1_555 1_555
H17_2 C33_2 1_555 1_555
C34_2 N9_2 1_555 1_555
C36_2 N10_2 1_555 1_555
H20_2 C36_2 1_555 1_555
H21_2 C36_2 1_555 1_555
C37_2 C36_2 1_555 1_555
H22_2 C37_2 1_555 1_555
H23_2 C37_2 1_555 1_555
C38_2 N11_2 1_555 1_555
H24_2 C38_2 1_555 1_555
C39_2 N11_2 1_555 1_555
H25_2 C39_2 1_555 1_555
C40_2 N12_2 1_555 1_555
H26_2 C40_2 1_555 1_555
C41_2 N12_2 1_555 1_555
H27_2 C41_2 1_555 1_555
C42_2 C41_2 1_555 1_555
H29_2 C42_2 1_555 1_555
H30_2 C42_2 1_555 1_555
O17 C74_2 1_555 1_555
O20_2 C74_2 1_555 1_555
N20_2 H63_2 1_555 1_555
C68_2 C60_2 1_555 1_555
C69_2 C68_2 1_555 1_555
H45_2 C69_2 1_555 1_555
C70_2 C69_2 1_555 1_555
C71_2 C70_2 1_555 1_555
H46_2 C71_2 1_555 1_555
C72_2 C71_2 1_555 1_555
H47_2 C72_2 1_555 1_555
C73_2 C68_2 1_555 1_555
H48_2 C73_2 1_555 1_555
C74_2 C70_2 1_555 1_555
H51_2 C77_2 1_555 1_555
H64_2 N20_2 1_555 1_555
N3_2 C1_2 1_555 1_555
N3_2 C2_2 1_555 1_555
N7_2 C17_2 1_555 1_555
C7_2 C8_2 1_555 1_555
C14_2 C15_2 1_555 1_555
C23_2 C24_2 1_555 1_555
C39_2 C40_2 1_555 1_555
C72_2 C73_2 1_555 1_555
N4_2 H65_2 1_555 1_555
N4_2 H66_2 1_555 1_555
O18 C32_2 1_555 1_555
O8_2 C32_2 1_555 1_555
N8_2 H31_2 1_555 1_555
C26_2 C18_2 1_555 1_555
C27_2 C26_2 1_555 1_555
H13_2 C27_2 1_555 1_555
C28_2 C27_2 1_555 1_555
C29_2 C28_2 1_555 1_555
H14_2 C29_2 1_555 1_555
C30_2 C29_2 1_555 1_555
H15_2 C30_2 1_555 1_555
C31_2 C26_2 1_555 1_555
H16_2 C31_2 1_555 1_555
C32_2 C28_2 1_555 1_555
H32_2 N8_2 1_555 1_555
Zn3 O15_2 1_555 1_555
Zn6 O9_2 1_555 1_555
O9_2 C58_2 1_555 1_555
O10_2 C58_2 1_555 1_555
O11 C51_2 1_555 1_555
O14_2 C51_2 1_555 1_555
O15_2 C67_2 1_555 1_555
O16_2 C67_2 1_555 1_555
N13_2 Zn3 1_555 1_555
N14_2 N13_2 1_555 1_555
N15_2 N16_2 1_555 1_555
N17_2 Zn6 1_555 1_555
N18_2 N17_2 1_555 1_555
N24_2 Zn3 1_555 1_555
N25_2 C80_2 1_555 1_555
C43_2 N14_2 1_555 1_555
C44_2 N13_2 1_555 1_555
C45_2 C43_2 1_555 1_555
C46_2 C45_2 1_555 1_555
H33_2 C46_2 1_555 1_555
C47_2 C46_2 1_555 1_555
C48_2 C47_2 1_555 1_555
H34_2 C48_2 1_555 1_555
C49_2 C48_2 1_555 1_555
H35_2 C49_2 1_555 1_555
C50_2 C45_2 1_555 1_555
H36_2 C50_2 1_555 1_555
C51_2 C47_2 1_555 1_555
C52_2 C44_2 1_555 1_555
C53_2 C52_2 1_555 1_555
H37_2 C53_2 1_555 1_555
C54_2 C53_2 1_555 1_555
C55_2 C54_2 1_555 1_555
H38_2 C55_2 1_555 1_555
C56_2 C55_2 1_555 1_555
H39_2 C56_2 1_555 1_555
C57_2 C52_2 1_555 1_555
H40_2 C57_2 1_555 1_555
C58_2 C54_2 1_555 1_555
C59_2 N17_2 1_555 1_555
C61_2 C59_2 1_555 1_555
C62_2 C61_2 1_555 1_555
H41_2 C62_2 1_555 1_555
C63_2 C62_2 1_555 1_555
C64_2 C63_2 1_555 1_555
H42_2 C64_2 1_555 1_555
C65_2 C64_2 1_555 1_555
H43_2 C65_2 1_555 1_555
C66_2 C61_2 1_555 1_555
H44_2 C66_2 1_555 1_555
C67_2 C63_2 1_555 1_555
C80_2 N24_2 1_555 1_555
H56_2 C80_2 1_555 1_555
C81_2 N24_2 1_555 1_555
H57_2 C81_2 1_555 1_555
C82_2 N25_2 1_555 1_555
H58_2 C82_2 1_555 1_555
C83_2 N25_2 1_555 1_555
H59_2 C83_2 1_555 1_555
H61_2 C84_2 1_555 1_555
H62_2 C84_2 1_555 1_555
C30_2 C31_2 1_555 1_555
N15_2 C43_2 1_555 1_555
N15_2 C44_2 1_555 1_555
N19_2 C59_2 1_555 1_555
C49_2 C50_2 1_555 1_555
C56_2 C57_2 1_555 1_555
C65_2 C66_2 1_555 1_555
C81_2 C82_2 1_555 1_555
C83_2 C84_2 1_555 1_555
N16_2 H67_2 1_555 1_555
N16_2 H68_2 1_555 1_555
N16 H65_3 1_555 1_555
N4 H67_3 1_555 1_555
N4_2 H67_4 1_555 1_555
N16_2 H65_4 1_555 1_555

#END
