
###############################################################################
#
# This file contains modified crystal structure data generated from the
# MOF subset of the Cambridge Structural Database (CSD) v543 
# hosted by the Cambridge Crystallographic Data Centre (CCDC).
#
# This work is licensed under the Creative Commons
# Attribution-NonCommercial-ShareAlike 4.0 International License.
# To view a copy of this license, visit
# http://creativecommons.org/licenses/by-nc-sa/4.0/
# or send a letter to
# Creative Commons, PO Box 1866, Mountain View, CA 94042, USA.
#
# CIF created using the CSD Python API on 29 September 2022
# The structure has been converted into the P1 space group
# The structure has a 3D framework
# The original CSD entry OVICUS is in the monoclinic crystal system
# The framework has been calculated to contain at least 10.0% void space
# The void calculation uses a probe of radius 1.32A, grid spacing 0.4
#
###############################################################################

data_OVICUS
_chemical_formula_moiety         '(C96 H48 N16 O24 S16 Zn8)n'
_symmetry_cell_setting           triclinic
_symmetry_space_group_name_H-M   'P 1'
_symmetry_Int_Tables_number      1
_space_group_name_Hall           'P 1'
loop_
_symmetry_equiv_pos_site_id
_symmetry_equiv_pos_as_xyz
1 x,y,z
_cell_length_a                   21.989(8)
_cell_length_b                   13.251(5)
_cell_length_c                   11.174(4)
_cell_angle_alpha                90
_cell_angle_beta                 97.150(5)
_cell_angle_gamma                90
_cell_volume                     3230.52
loop_
_atom_site_label
_atom_site_type_symbol
_atom_site_fract_x
_atom_site_fract_y
_atom_site_fract_z
C2 C 0.7108(3) 0.0441(5) 0.0600(6)
C3 C 0.7250(3) 0.0909(5) 0.1703(6)
H1 H 0.7436 0.0531 0.2349
C6 C 0.6849(3) 0.2424(5) 0.0953(6)
C10 C 0.4691(5) 0.3115(9) 0.0836(11)
H5 H 0.4567 0.2841 0.1533
N2 N 0.7131(3) 0.1892(4) 0.1883(5)
C12 C 0.5294(4) 0.3364(8) 0.0835(9)
H6 H 0.5580 0.3218 0.1497
O2 O 0.3452(3) 0.2749(4) 0.0858(5)
S2 S 0.67032(9) 0.37019(13) 0.13169(16)
Zn2 Zn 0.73740(4) 0.23581(5) 0.36561(6)
Zn4 Zn 0.26260(4) 0.23581(5) 0.13439(6)
C4 C 0.6834(4) 0.1011(5) 0.9649(6)
H2 H 0.6742 0.0720 0.8891
C5 C 0.6694(4) 0.2006(6) 0.9820(6)
H3 H 0.6501 0.2391 0.9189
C7 C 0.5461(3) 0.3814(5) 0.9880(6)
N1 N 0.5087(4) 0.3962(8) 0.8897(6)
C8 C 0.4482(4) 0.3699(9) 0.8882(8)
H4 H 0.4210 0.3826 0.8193
C9 C 0.4268(4) 0.3253(5) 0.9864(7)
C11 C 0.3618(4) 0.2981(6) 0.9858(7)
O1 O 0.3272(3) 0.3002(5) 0.8866(5)
S1 S 0.62237(9) 0.42394(13) 0.97975(17)
Zn3 Zn 0.23740(4) 0.26419(5) 0.86561(6)
Zn1 Zn 0.76260(4) 0.73581(5) 0.13439(6)
C1 C 0.7253(3) 0.9353(5) 0.0452(6)
O4 O 0.7392(3) 0.8830(4) 0.1383(4)
N3 N 0.7869(3) 0.6892(4) 0.3117(5)
O5 O 0.6728(3) 0.6998(5) 0.1134(5)
O6 O 0.8452(3) 0.7749(4) 0.0858(5)
O7 O 0.7779(3) 0.5965(4) 0.0609(4)
O3 O 0.7221(3) 0.9035(4) 0.9391(4)
Zn5 Zn 0.73740(4) 0.76419(5) 0.86561(6)
C2_2 C 0.2892(3) 0.0441(5) 0.4400(6)
C3_2 C 0.2750(3) 0.0909(5) 0.3297(6)
H1_2 H 0.2564 0.0531 0.2651
C4_2 C 0.3166(4) 0.1011(5) 0.5351(6)
H2_2 H 0.3258 0.0720 0.6109
C5_2 C 0.3306(4) 0.2006(6) 0.5180(6)
H3_2 H 0.3499 0.2391 0.5811
C6_2 C 0.3151(3) 0.2424(5) 0.4047(6)
C7_2 C 0.4539(3) 0.3814(5) 0.5120(6)
N1_2 N 0.4913(4) 0.3962(8) 0.6103(6)
C8_2 C 0.5518(4) 0.3699(9) 0.6118(8)
H4_2 H 0.5790 0.3826 0.6807
C9_2 C 0.5732(4) 0.3253(5) 0.5136(7)
C10_2 C 0.5309(5) 0.3115(9) 0.4164(11)
H5_2 H 0.5433 0.2841 0.3467
C11_2 C 0.6382(4) 0.2981(6) 0.5142(7)
N2_2 N 0.2869(3) 0.1892(4) 0.3117(5)
C12_2 C 0.4706(4) 0.3364(8) 0.4165(9)
H6_2 H 0.4420 0.3218 0.3503
O1_2 O 0.6728(3) 0.3002(5) 0.6134(5)
O2_2 O 0.6548(3) 0.2749(4) 0.4142(5)
S1_2 S 0.37763(9) 0.42394(13) 0.52025(17)
S2_2 S 0.32968(9) 0.37019(13) 0.36831(16)
Zn3_2 Zn 0.76260(4) 0.26419(5) 0.63439(6)
Zn1_2 Zn 0.23740(4) 0.73581(5) 0.36561(6)
C1_2 C 0.2747(3) 0.9353(5) 0.4548(6)
O3_2 O 0.2779(3) 0.9035(4) 0.5609(4)
O4_2 O 0.2608(3) 0.8830(4) 0.3617(4)
Zn5_2 Zn 0.26260(4) 0.76419(5) 0.63439(6)
N3_2 N 0.2131(3) 0.6892(4) 0.1883(5)
O5_2 O 0.3272(3) 0.6998(5) 0.3866(5)
O6_2 O 0.1548(3) 0.7749(4) 0.4142(5)
O7_2 O 0.2221(3) 0.5965(4) 0.4391(4)
C1_3 C 0.2253(3) 0.4353(5) 0.0452(6)
C2_3 C 0.2108(3) 0.5441(5) 0.0600(6)
C3_3 C 0.2250(3) 0.5909(5) 0.1703(6)
H1_3 H 0.2436 0.5531 0.2349
C6_3 C 0.1849(3) 0.7424(5) 0.0953(6)
C12_3 C 0.0294(4) 0.8364(8) 0.0835(9)
H6_3 H 0.0580 0.8218 0.1497
O4_3 O 0.2392(3) 0.3830(4) 0.1383(4)
S2_3 S 0.17032(9) 0.87019(13) 0.13169(16)
O5_3 O 0.1728(3) 0.1998(5) 0.1134(5)
O7_3 O 0.2779(3) 0.0965(4) 0.0609(4)
C4_3 C 0.1834(4) 0.6011(5) 0.9649(6)
H2_3 H 0.1742 0.5720 0.8891
C5_3 C 0.1694(4) 0.7006(6) 0.9820(6)
H3_3 H 0.1501 0.7391 0.9189
C7_3 C 0.0461(3) 0.8814(5) 0.9880(6)
N1_3 N 0.0087(4) 0.8962(8) 0.8897(6)
O3_3 O 0.2221(3) 0.4035(4) 0.9391(4)
S1_3 S 0.12237(9) 0.92394(13) 0.97975(17)
C10_3 C 0.9691(5) 0.8115(9) 0.0836(11)
H5_3 H 0.9567 0.7841 0.1533
C8_3 C 0.9482(4) 0.8699(9) 0.8882(8)
H4_3 H 0.9210 0.8826 0.8193
C9_3 C 0.9268(4) 0.8253(5) 0.9864(7)
C11_3 C 0.8618(4) 0.7981(6) 0.9858(7)
O1_3 O 0.8272(3) 0.8002(5) 0.8866(5)
C8_4 C 0.0518(4) 0.8699(9) 0.6118(8)
H4_4 H 0.0790 0.8826 0.6807
C9_4 C 0.0732(4) 0.8253(5) 0.5136(7)
C10_4 C 0.0309(5) 0.8115(9) 0.4164(11)
H5_4 H 0.0433 0.7841 0.3467
C11_4 C 0.1382(4) 0.7981(6) 0.5142(7)
O1_4 O 0.1728(3) 0.8002(5) 0.6134(5)
C1_4 C 0.7747(3) 0.4353(5) 0.4548(6)
C2_4 C 0.7892(3) 0.5441(5) 0.4400(6)
C3_4 C 0.7750(3) 0.5909(5) 0.3297(6)
H1_4 H 0.7564 0.5531 0.2651
C4_4 C 0.8166(4) 0.6011(5) 0.5351(6)
H2_4 H 0.8258 0.5720 0.6109
C5_4 C 0.8306(4) 0.7006(6) 0.5180(6)
H3_4 H 0.8499 0.7391 0.5811
C6_4 C 0.8151(3) 0.7424(5) 0.4047(6)
C7_4 C 0.9539(3) 0.8814(5) 0.5120(6)
N1_4 N 0.9913(4) 0.8962(8) 0.6103(6)
C12_4 C 0.9706(4) 0.8364(8) 0.4165(9)
H6_4 H 0.9420 0.8218 0.3503
O3_4 O 0.7779(3) 0.4035(4) 0.5609(4)
O4_4 O 0.7608(3) 0.3830(4) 0.3617(4)
S1_4 S 0.87763(9) 0.92394(13) 0.52025(17)
S2_4 S 0.82968(9) 0.87019(13) 0.36831(16)
O5_4 O 0.8272(3) 0.1998(5) 0.3866(5)
O7_4 O 0.7221(3) 0.0965(4) 0.4391(4)
C1_5 C 0.2747(3) 0.0647(5) 0.9548(6)
O4_5 O 0.2608(3) 0.1170(4) 0.8617(4)
N3_3 N 0.2131(3) 0.3108(4) 0.6883(5)
O6_3 O 0.1548(3) 0.2251(4) 0.9142(5)
C4_5 C 0.3166(4) 0.8989(5) 0.0351(6)
H2_5 H 0.3258 0.9280 0.1109
C5_5 C 0.3306(4) 0.7994(6) 0.0180(6)
H3_5 H 0.3499 0.7609 0.0811
C7_5 C 0.4539(3) 0.6186(5) 0.0120(6)
N1_5 N 0.4913(4) 0.6038(8) 0.1103(6)
C8_5 C 0.5518(4) 0.6301(9) 0.1118(8)
H4_5 H 0.5790 0.6174 0.1807
C9_5 C 0.5732(4) 0.6747(5) 0.0136(7)
C11_5 C 0.6382(4) 0.7019(6) 0.0142(7)
S1_5 S 0.37763(9) 0.57606(13) 0.02025(17)
C2_5 C 0.2892(3) 0.9559(5) 0.9400(6)
C3_5 C 0.2750(3) 0.9091(5) 0.8297(6)
H1_5 H 0.2564 0.9469 0.7651
C6_5 C 0.3151(3) 0.7576(5) 0.9047(6)
C10_5 C 0.5309(5) 0.6885(9) 0.9164(11)
H5_5 H 0.5433 0.7159 0.8467
N2_3 N 0.2869(3) 0.8108(4) 0.8117(5)
C12_5 C 0.4706(4) 0.6636(8) 0.9165(9)
H6_5 H 0.4420 0.6782 0.8503
O2_3 O 0.6548(3) 0.7251(4) 0.9142(5)
S2_5 S 0.32968(9) 0.62981(13) 0.86831(16)
C1_6 C 0.7253(3) 0.0647(5) 0.5452(6)
O4_6 O 0.7392(3) 0.1170(4) 0.6383(4)
N3_4 N 0.7869(3) 0.3108(4) 0.8117(5)
O6_4 O 0.8452(3) 0.2251(4) 0.5858(5)
C2_6 C 0.7108(3) 0.9559(5) 0.5600(6)
C3_6 C 0.7250(3) 0.9091(5) 0.6703(6)
H1_6 H 0.7436 0.9469 0.7349
C4_6 C 0.6834(4) 0.8989(5) 0.4649(6)
H2_6 H 0.6742 0.9280 0.3891
C5_6 C 0.6694(4) 0.7994(6) 0.4820(6)
H3_6 H 0.6501 0.7609 0.4189
C6_6 C 0.6849(3) 0.7576(5) 0.5953(6)
C7_6 C 0.5461(3) 0.6186(5) 0.4880(6)
N1_6 N 0.5087(4) 0.6038(8) 0.3897(6)
C8_6 C 0.4482(4) 0.6301(9) 0.3882(8)
H4_6 H 0.4210 0.6174 0.3193
C9_6 C 0.4268(4) 0.6747(5) 0.4864(7)
C10_6 C 0.4691(5) 0.6885(9) 0.5836(11)
H5_6 H 0.4567 0.7159 0.6533
C11_6 C 0.3618(4) 0.7019(6) 0.4858(7)
N2_4 N 0.7131(3) 0.8108(4) 0.6883(5)
C12_6 C 0.5294(4) 0.6636(8) 0.5835(9)
H6_6 H 0.5580 0.6782 0.6497
O2_4 O 0.3452(3) 0.7251(4) 0.5858(5)
S1_6 S 0.62237(9) 0.57606(13) 0.47975(17)
S2_6 S 0.67032(9) 0.62981(13) 0.63169(16)
C8_7 C 0.0518(4) 0.1301(9) 0.1118(8)
H4_7 H 0.0790 0.1174 0.1807
C9_7 C 0.0732(4) 0.1747(5) 0.0136(7)
C11_7 C 0.1382(4) 0.2019(6) 0.0142(7)
C10_7 C 0.0309(5) 0.1885(9) 0.9164(11)
H5_7 H 0.0433 0.2159 0.8467
C4_7 C 0.8166(4) 0.3989(5) 0.0351(6)
H2_7 H 0.8258 0.4280 0.1109
C5_7 C 0.8306(4) 0.2994(6) 0.0180(6)
H3_7 H 0.8499 0.2609 0.0811
C7_7 C 0.9539(3) 0.1186(5) 0.0120(6)
N1_7 N 0.9913(4) 0.1038(8) 0.1103(6)
S1_7 S 0.87763(9) 0.07606(13) 0.02025(17)
C1_7 C 0.7747(3) 0.5647(5) 0.9548(6)
C2_7 C 0.7892(3) 0.4559(5) 0.9400(6)
C3_7 C 0.7750(3) 0.4091(5) 0.8297(6)
H1_7 H 0.7564 0.4469 0.7651
C6_7 C 0.8151(3) 0.2576(5) 0.9047(6)
C12_7 C 0.9706(4) 0.1636(8) 0.9165(9)
H6_7 H 0.9420 0.1782 0.8503
O4_7 O 0.7608(3) 0.6170(4) 0.8617(4)
S2_7 S 0.82968(9) 0.12981(13) 0.86831(16)
C1_8 C 0.2253(3) 0.5647(5) 0.5452(6)
C2_8 C 0.2108(3) 0.4559(5) 0.5600(6)
C3_8 C 0.2250(3) 0.4091(5) 0.6703(6)
H1_8 H 0.2436 0.4469 0.7349
C4_8 C 0.1834(4) 0.3989(5) 0.4649(6)
H2_8 H 0.1742 0.4280 0.3891
C5_8 C 0.1694(4) 0.2994(6) 0.4820(6)
H3_8 H 0.1501 0.2609 0.4189
C6_8 C 0.1849(3) 0.2576(5) 0.5953(6)
C7_8 C 0.0461(3) 0.1186(5) 0.4880(6)
N1_8 N 0.0087(4) 0.1038(8) 0.3897(6)
C12_8 C 0.0294(4) 0.1636(8) 0.5835(9)
H6_8 H 0.0580 0.1782 0.6497
O4_8 O 0.2392(3) 0.6170(4) 0.6383(4)
S1_8 S 0.12237(9) 0.07606(13) 0.47975(17)
S2_8 S 0.17032(9) 0.12981(13) 0.63169(16)
C8_8 C 0.9482(4) 0.1301(9) 0.3882(8)
H4_8 H 0.9210 0.1174 0.3193
C9_8 C 0.9268(4) 0.1747(5) 0.4864(7)
C10_8 C 0.9691(5) 0.1885(9) 0.5836(11)
H5_8 H 0.9567 0.2159 0.6533
C11_8 C 0.8618(4) 0.2019(6) 0.4858(7)
loop_
_geom_bond_atom_site_label_1
_geom_bond_atom_site_label_2
_geom_bond_site_symmetry_1
_geom_bond_site_symmetry_2
C2 C3 1_555 1_555
C3 H1 1_555 1_555
H5 C10 1_555 1_555
N2 C3 1_555 1_555
H6 C12 1_555 1_555
S2 C6 1_555 1_555
Zn2 N2 1_555 1_555
Zn4 O2 1_555 1_555
C6 N2 1_555 1_555
C10 C12 1_555 1_555
H2 C4 1_555 1_555
C5 C4 1_555 1_555
H3 C5 1_555 1_555
C7 N1 1_555 1_555
N1 C8 1_555 1_555
C8 H4 1_555 1_555
C9 C8 1_555 1_555
C11 C9 1_555 1_555
O1 C11 1_555 1_555
S1 C7 1_555 1_555
Zn3 O1 1_555 1_555
Zn1 O4 1_555 1_555
O4 C1 1_555 1_555
N3 Zn1 1_555 1_555
O5 Zn1 1_555 1_555
O6 Zn1 1_555 1_555
O7 Zn1 1_555 1_555
Zn5 O3 1_555 1_555
C2_2 C3_2 1_555 1_555
C3_2 H1_2 1_555 1_555
C4_2 C2_2 1_555 1_555
H2_2 C4_2 1_555 1_555
C5_2 C4_2 1_555 1_555
H3_2 C5_2 1_555 1_555
C6_2 C5_2 1_555 1_555
C7_2 N1_2 1_555 1_555
N1_2 C8_2 1_555 1_555
C8_2 H4_2 1_555 1_555
C9_2 C8_2 1_555 1_555
C10_2 C9_2 1_555 1_555
H5_2 C10_2 1_555 1_555
C11_2 C9_2 1_555 1_555
N2_2 C3_2 1_555 1_555
C12_2 C7_2 1_555 1_555
H6_2 C12_2 1_555 1_555
O1_2 C11_2 1_555 1_555
O2_2 C11_2 1_555 1_555
S1_2 C7_2 1_555 1_555
S2_2 C6_2 1_555 1_555
Zn4 N2_2 1_555 1_555
Zn3_2 O1_2 1_555 1_555
Zn2 O2_2 1_555 1_555
C6_2 N2_2 1_555 1_555
C10_2 C12_2 1_555 1_555
S1_2 S2_2 1_555 1_555
Zn1_2 O4_2 1_555 1_555
O3_2 C1_2 1_555 1_555
O4_2 C1_2 1_555 1_555
Zn5_2 O3_2 1_555 1_555
N3_2 Zn1_2 1_555 1_555
O5_2 Zn1_2 1_555 1_555
O6_2 Zn1_2 1_555 1_555
O7_2 Zn1_2 1_555 1_555
Zn4 O4_3 1_555 1_555
C1_3 C2_3 1_555 1_555
C2_3 C3_3 1_555 1_555
C3_3 H1_3 1_555 1_555
N3_2 C3_3 1_555 1_555
H6_3 C12_3 1_555 1_555
O4_3 C1_3 1_555 1_555
S2_3 C6_3 1_555 1_555
O5_3 Zn4 1_555 1_555
O7_3 Zn4 1_555 1_555
C6_3 N3_2 1_555 1_555
H2_3 C4_3 1_555 1_555
C5_3 C4_3 1_555 1_555
H3_3 C5_3 1_555 1_555
C7_3 N1_3 1_555 1_555
S1_3 C7_3 1_555 1_555
Zn3 O3_3 1_555 1_555
H5_3 C10_3 1_555 1_555
C8_3 H4_3 1_555 1_555
C9_3 C8_3 1_555 1_555
C11_3 C9_3 1_555 1_555
O1_3 C11_3 1_555 1_555
Zn5 O1_3 1_555 1_555
C8_4 H4_4 1_555 1_555
C9_4 C8_4 1_555 1_555
C10_4 C9_4 1_555 1_555
H5_4 C10_4 1_555 1_555
C11_4 C9_4 1_555 1_555
O1_4 C11_4 1_555 1_555
O6_2 C11_4 1_555 1_555
Zn5_2 O1_4 1_555 1_555
Zn2 O4_4 1_555 1_555
C1_4 C2_4 1_555 1_555
C2_4 C3_4 1_555 1_555
C3_4 H1_4 1_555 1_555
C4_4 C2_4 1_555 1_555
H2_4 C4_4 1_555 1_555
C5_4 C4_4 1_555 1_555
H3_4 C5_4 1_555 1_555
C6_4 C5_4 1_555 1_555
C7_4 N1_4 1_555 1_555
N3 C3_4 1_555 1_555
C12_4 C7_4 1_555 1_555
H6_4 C12_4 1_555 1_555
O3_4 C1_4 1_555 1_555
O4_4 C1_4 1_555 1_555
S1_4 C7_4 1_555 1_555
S2_4 C6_4 1_555 1_555
Zn3_2 O3_4 1_555 1_555
O5_4 Zn2 1_555 1_555
O7_4 Zn2 1_555 1_555
C6_4 N3 1_555 1_555
S1_4 S2_4 1_555 1_555
Zn3 O4_5 1_555 1_555
O4_5 C1_5 1_555 1_555
N3_3 Zn3 1_555 1_555
O6_3 Zn3 1_555 1_555
H2_5 C4_5 1_555 1_555
C5_5 C4_5 1_555 1_555
H3_5 C5_5 1_555 1_555
C7_5 N1_5 1_555 1_555
N1_5 C8_5 1_555 1_555
C8_5 H4_5 1_555 1_555
C9_5 C8_5 1_555 1_555
C11_5 C9_5 1_555 1_555
O5 C11_5 1_555 1_555
S1_5 C7_5 1_555 1_555
C2_5 C3_5 1_555 1_555
C3_5 H1_5 1_555 1_555
H5_5 C10_5 1_555 1_555
N2_3 C3_5 1_555 1_555
H6_5 C12_5 1_555 1_555
S2_5 C6_5 1_555 1_555
Zn5_2 N2_3 1_555 1_555
Zn5 O2_3 1_555 1_555
C6_5 N2_3 1_555 1_555
C10_5 C12_5 1_555 1_555
Zn3_2 O4_6 1_555 1_555
O7_4 C1_6 1_555 1_555
O4_6 C1_6 1_555 1_555
N3_4 Zn3_2 1_555 1_555
O6_4 Zn3_2 1_555 1_555
C2_6 C3_6 1_555 1_555
C3_6 H1_6 1_555 1_555
C4_6 C2_6 1_555 1_555
H2_6 C4_6 1_555 1_555
C5_6 C4_6 1_555 1_555
H3_6 C5_6 1_555 1_555
C6_6 C5_6 1_555 1_555
C7_6 N1_6 1_555 1_555
N1_6 C8_6 1_555 1_555
C8_6 H4_6 1_555 1_555
C9_6 C8_6 1_555 1_555
C10_6 C9_6 1_555 1_555
H5_6 C10_6 1_555 1_555
C11_6 C9_6 1_555 1_555
N2_4 C3_6 1_555 1_555
C12_6 C7_6 1_555 1_555
H6_6 C12_6 1_555 1_555
O5_2 C11_6 1_555 1_555
O2_4 C11_6 1_555 1_555
S1_6 C7_6 1_555 1_555
S2_6 C6_6 1_555 1_555
Zn5 N2_4 1_555 1_555
Zn5_2 O2_4 1_555 1_555
C6_6 N2_4 1_555 1_555
C10_6 C12_6 1_555 1_555
S1_6 S2_6 1_555 1_555
C8_7 H4_7 1_555 1_555
C9_7 C8_7 1_555 1_555
C11_7 C9_7 1_555 1_555
O5_3 C11_7 1_555 1_555
H5_7 C10_7 1_555 1_555
H2_7 C4_7 1_555 1_555
C5_7 C4_7 1_555 1_555
H3_7 C5_7 1_555 1_555
C7_7 N1_7 1_555 1_555
S1_7 C7_7 1_555 1_555
Zn5 O4_7 1_555 1_555
C1_7 C2_7 1_555 1_555
C2_7 C3_7 1_555 1_555
C3_7 H1_7 1_555 1_555
N3_4 C3_7 1_555 1_555
H6_7 C12_7 1_555 1_555
O4_7 C1_7 1_555 1_555
S2_7 C6_7 1_555 1_555
C6_7 N3_4 1_555 1_555
Zn5_2 O4_8 1_555 1_555
C1_8 C2_8 1_555 1_555
C2_8 C3_8 1_555 1_555
C3_8 H1_8 1_555 1_555
C4_8 C2_8 1_555 1_555
H2_8 C4_8 1_555 1_555
C5_8 C4_8 1_555 1_555
H3_8 C5_8 1_555 1_555
C6_8 C5_8 1_555 1_555
C7_8 N1_8 1_555 1_555
N3_3 C3_8 1_555 1_555
C12_8 C7_8 1_555 1_555
H6_8 C12_8 1_555 1_555
O7_2 C1_8 1_555 1_555
O4_8 C1_8 1_555 1_555
S1_8 C7_8 1_555 1_555
S2_8 C6_8 1_555 1_555
C6_8 N3_3 1_555 1_555
S1_8 S2_8 1_555 1_555
C8_8 H4_8 1_555 1_555
C9_8 C8_8 1_555 1_555
C10_8 C9_8 1_555 1_555
H5_8 C10_8 1_555 1_555
C11_8 C9_8 1_555 1_555
O5_4 C11_8 1_555 1_555
O6_4 C11_8 1_555 1_555

#END
