
###############################################################################
#
# This file contains modified crystal structure data generated from the
# MOF subset of the Cambridge Structural Database (CSD) v543 
# hosted by the Cambridge Crystallographic Data Centre (CCDC).
#
# This work is licensed under the Creative Commons
# Attribution-NonCommercial-ShareAlike 4.0 International License.
# To view a copy of this license, visit
# http://creativecommons.org/licenses/by-nc-sa/4.0/
# or send a letter to
# Creative Commons, PO Box 1866, Mountain View, CA 94042, USA.
#
# CIF created using the CSD Python API on 29 September 2022
# The structure has been converted into the P1 space group
# The structure has a 3D framework
# The original CSD entry OVIDON is in the monoclinic crystal system
# The framework has been calculated to contain at least 10.0% void space
# The void calculation uses a probe of radius 1.32A, grid spacing 0.4
#
###############################################################################

data_OVIDON
_chemical_formula_moiety         '(C148 H128 Cd8 N24 O44 S16)n'
_symmetry_cell_setting           triclinic
_symmetry_space_group_name_H-M   'P 1'
_symmetry_Int_Tables_number      1
_space_group_name_Hall           'P 1'
loop_
_symmetry_equiv_pos_site_id
_symmetry_equiv_pos_as_xyz
1 x,y,z
_cell_length_a                   16.2439(11)
_cell_length_b                   12.9649(9)
_cell_length_c                   22.5736(15)
_cell_angle_alpha                90
_cell_angle_beta                 106.4040(10)
_cell_angle_gamma                90
_cell_volume                     4560.5
loop_
_atom_site_label
_atom_site_type_symbol
_atom_site_fract_x
_atom_site_fract_y
_atom_site_fract_z
H27 H 0.3731 0.5125 0.0161
H28 H 0.3706 0.3916 0.0169
N6 N 0.49347(18) 0.4403(2) 0.85332(13)
C26 C 0.0822(2) 0.2758(3) 0.91830(17)
H20 H 0.1120 0.2177 0.9370
C27 C 0.1268(2) 0.3586(3) 0.90440(16)
C28 C 0.0773(2) 0.4416(3) 0.87458(18)
H21 H 0.1037 0.4985 0.8627
C30 C 0.2228(2) 0.3611(3) 0.92170(19)
H23 H 0.2413 0.3619 0.8844
H24 H 0.2453 0.2990 0.9445
C31 C 0.2591(2) 0.4543(3) 0.96058(17)
H25 H 0.2309 0.4608 0.9930
H26 H 0.2453 0.5153 0.9348
C32 C 0.3562(2) 0.4517(4) 0.99046(17)
C33 C 0.4054(2) 0.4484(3) 0.94343(16)
C34 C 0.4365(2) 0.3566(3) 0.92712(18)
H29 H 0.4284 0.2954 0.9462
C35 C 0.4796(2) 0.3559(3) 0.88263(18)
H30 H 0.5001 0.2932 0.8725
C36 C 0.4641(2) 0.5296(3) 0.86939(17)
H31 H 0.4739 0.5899 0.8501
C37 C 0.4203(2) 0.5356(3) 0.91321(18)
H32 H 0.4004 0.5991 0.9225
Cd6 Cd 0.579000(15) 0.43460(2) 0.786490(11)
Cd1 Cd 0.801985(14) 0.352607(19) 0.860027(10)
O1 O 0.65170(17) 0.5692(2) 0.83770(13)
O2 O 0.77745(19) 0.5106(2) 0.89511(14)
O5 O 0.80225(16) 0.1997(2) 0.80925(13)
O6 O 0.67117(16) 0.1336(2) 0.79342(13)
O9 O 0.65831(14) 0.30710(19) 0.85377(11)
H1 H 0.6685 0.3010 0.8913
H2 H 0.6544 0.2506 0.8369
O10 O 0.48015(17) 0.5341(2) 0.71700(13)
H3 H 0.4358 0.5654 0.7157
H4 H 0.4733 0.5256 0.6799
O11 O 0.5128(2) 0.2884(3) 0.73565(14)
H5 H 0.4822 0.2533 0.7510
H6 H 0.5379 0.2911 0.7089
N1 N 0.7160(2) 0.8636(2) 0.90830(14)
N5 N 0.94734(18) 0.3593(2) 0.87779(13)
C1 C 0.7262(2) 0.5800(3) 0.87271(16)
C2 C 0.7537(2) 0.6897(3) 0.89125(15)
C3 C 0.8393(2) 0.7174(3) 0.90802(17)
H7 H 0.8813 0.6682 0.9091
C4 C 0.8620(2) 0.8181(3) 0.92303(18)
H8 H 0.9192 0.8385 0.9328
C5 C 0.7985(2) 0.8882(3) 0.92335(15)
C6 C 0.6948(2) 0.7662(3) 0.89145(17)
H9 H 0.6369 0.7490 0.8791
C13 C 0.7495(2) 0.1271(3) 0.79613(15)
C14 C 0.7839(2) 0.0250(3) 0.78241(14)
C18 C 0.8717(2) 0.0101(3) 0.79406(15)
H15 H 0.9092 0.0644 0.8089
C25 C 0.9945(2) 0.2781(3) 0.90497(17)
H19 H 0.9665 0.2211 0.9151
C29 C 0.9890(2) 0.4390(3) 0.86285(17)
H22 H 0.9573 0.4956 0.8436
O12 O 0.64845(19) 0.4401(3) 0.71150(13)
O13 O 0.7796(2) 0.4421(3) 0.77369(13)
O14 O 0.83074(15) 0.2822(2) 0.95448(11)
O8 O 0.70635(15) 0.2900(2) 0.97763(11)
C24 C 0.7866(2) 0.2859(3) 0.99191(16)
O1_2 O 0.65170(17) 0.9308(2) 0.33770(13)
O2_2 O 0.77745(19) 0.9894(2) 0.39511(14)
O10_2 O 0.48015(17) 0.9659(2) 0.21700(13)
H3_2 H 0.4358 0.9346 0.2157
H4_2 H 0.4733 0.9744 0.1799
N1_2 N 0.7160(2) 0.6364(2) 0.40830(14)
N2 N 0.89222(18) 0.4763(2) 0.63720(13)
C1_2 C 0.7262(2) 0.9200(3) 0.37271(16)
C2_2 C 0.7537(2) 0.8103(3) 0.39125(15)
C3_2 C 0.8393(2) 0.7826(3) 0.40802(17)
H7_2 H 0.8813 0.8318 0.4091
C4_2 C 0.8620(2) 0.6819(3) 0.42303(18)
H8_2 H 0.9192 0.6615 0.4328
C5_2 C 0.7985(2) 0.6118(3) 0.42335(15)
C6_2 C 0.6948(2) 0.7338(3) 0.39145(17)
H9_2 H 0.6369 0.7510 0.3791
C7 C 0.8432(2) 0.4883(3) 0.57942(15)
C8 C 0.7551(2) 0.4986(3) 0.56337(16)
H10 H 0.7236 0.5115 0.5228
C9 C 0.7153(2) 0.4891(3) 0.60944(16)
H11 H 0.6560 0.4951 0.6003
C10 C 0.7641(2) 0.4706(3) 0.66960(15)
C11 C 0.8521(2) 0.4673(3) 0.68043(16)
H12 H 0.8855 0.4581 0.7210
C12 C 0.7262(2) 0.4484(3) 0.72167(16)
S1 S 0.90784(6) 0.48767(8) 0.52724(4)
S2 S 0.82275(7) 0.47916(8) 0.44177(4)
O7 O 0.16926(15) 0.7178(2) 0.04552(11)
O8_2 O 0.29365(15) 0.7100(2) 0.02237(11)
C24_2 C 0.2134(2) 0.7141(3) 0.00809(16)
Cd4 Cd 0.198015(14) 0.647393(19) 0.139973(10)
O1_3 O 0.34830(17) 0.0692(2) 0.66230(13)
O2_3 O 0.22255(19) 0.0106(2) 0.60489(14)
O3 O 0.35155(19) 0.5599(3) 0.28850(13)
O4 O 0.2204(2) 0.5579(3) 0.22631(13)
O10_3 O 0.51985(17) 0.0341(2) 0.78300(13)
H3_3 H 0.5642 0.0654 0.7843
H4_3 H 0.5267 0.0256 0.8201
N1_3 N 0.2840(2) 0.3636(2) 0.59170(14)
N2_2 N 0.10778(18) 0.5237(2) 0.36280(13)
C1_3 C 0.2738(2) 0.0800(3) 0.62729(16)
C2_3 C 0.2463(2) 0.1897(3) 0.60875(15)
C3_3 C 0.1607(2) 0.2174(3) 0.59198(17)
H7_3 H 0.1187 0.1682 0.5909
C4_3 C 0.1380(2) 0.3181(3) 0.57697(18)
H8_3 H 0.0808 0.3385 0.5672
C5_3 C 0.2015(2) 0.3882(3) 0.57665(15)
C6_3 C 0.3052(2) 0.2662(3) 0.60855(17)
H9_3 H 0.3631 0.2490 0.6209
C7_2 C 0.1568(2) 0.5117(3) 0.42058(15)
C8_2 C 0.2449(2) 0.5014(3) 0.43663(16)
H10_2 H 0.2764 0.4885 0.4772
C9_2 C 0.2847(2) 0.5109(3) 0.39056(16)
H11_2 H 0.3440 0.5049 0.3997
C10_2 C 0.2359(2) 0.5294(3) 0.33040(15)
C11_2 C 0.1479(2) 0.5327(3) 0.31957(16)
H12_2 H 0.1145 0.5419 0.2790
C12_2 C 0.2738(2) 0.5516(3) 0.27833(16)
S1_2 S 0.09216(6) 0.51233(8) 0.47276(4)
S2_2 S 0.17725(7) 0.52084(8) 0.55823(4)
Cd5 Cd 0.421000(15) 0.56540(2) 0.213510(11)
O1_4 O 0.34830(17) 0.4308(2) 0.16230(13)
O2_4 O 0.22255(19) 0.4894(2) 0.10489(14)
O5_2 O 0.19775(16) 0.8003(2) 0.19075(13)
O6_2 O 0.32883(16) 0.8664(2) 0.20658(13)
O9_2 O 0.34169(14) 0.69290(19) 0.14623(11)
H1_2 H 0.3315 0.6990 0.1087
H2_2 H 0.3456 0.7494 0.1631
O10_4 O 0.51985(17) 0.4659(2) 0.28300(13)
H3_4 H 0.5642 0.4346 0.2843
H4_4 H 0.5267 0.4744 0.3201
O11_2 O 0.4872(2) 0.7116(3) 0.26435(14)
H5_2 H 0.5178 0.7467 0.2490
H6_2 H 0.4621 0.7089 0.2911
N1_4 N 0.2840(2) 0.1364(2) 0.09170(14)
N5_2 N 0.05266(18) 0.6407(2) 0.12221(13)
C1_4 C 0.2738(2) 0.4200(3) 0.12729(16)
C2_4 C 0.2463(2) 0.3103(3) 0.10875(15)
C3_4 C 0.1607(2) 0.2826(3) 0.09198(17)
H7_4 H 0.1187 0.3318 0.0909
C4_4 C 0.1380(2) 0.1819(3) 0.07697(18)
H8_4 H 0.0808 0.1615 0.0672
C5_4 C 0.2015(2) 0.1118(3) 0.07665(15)
C6_4 C 0.3052(2) 0.2338(3) 0.10855(17)
H9_4 H 0.3631 0.2510 0.1209
C13_2 C 0.2505(2) 0.8729(3) 0.20387(15)
C14_2 C 0.2161(2) 0.9750(3) 0.21759(14)
C18_2 C 0.1283(2) 0.9899(3) 0.20594(15)
H15_2 H 0.0908 0.9356 0.1911
C25_2 C 0.0055(2) 0.7219(3) 0.09503(17)
H19_2 H 0.0335 0.7789 0.0849
C29_2 C 0.0110(2) 0.5610(3) 0.13715(17)
H22_2 H 0.0427 0.5044 0.1564
N7 N 0.50653(18) 0.5597(2) 0.14668(13)
C26_2 C 0.9178(2) 0.7242(3) 0.08170(17)
H20_2 H 0.8880 0.7823 0.0630
C27_2 C 0.8732(2) 0.6414(3) 0.09560(16)
C28_2 C 0.9227(2) 0.5584(3) 0.12542(18)
H21_2 H 0.8963 0.5015 0.1373
C30_2 C 0.7772(2) 0.6389(3) 0.07830(19)
H23_2 H 0.7587 0.6381 0.1156
H24_2 H 0.7547 0.7010 0.0555
C31_2 C 0.7409(2) 0.5457(3) 0.03942(17)
H25_2 H 0.7691 0.5392 0.0070
H26_2 H 0.7547 0.4847 0.0652
C32_2 C 0.6438(2) 0.5483(4) 0.00954(17)
C33_2 C 0.5946(2) 0.5516(3) 0.05657(16)
C34_2 C 0.5635(2) 0.6434(3) 0.07288(18)
H29_2 H 0.5716 0.7046 0.0538
C35_2 C 0.5204(2) 0.6441(3) 0.11737(18)
H30_2 H 0.4999 0.7068 0.1275
C36_2 C 0.5359(2) 0.4704(3) 0.13061(17)
H31_2 H 0.5261 0.4101 0.1499
C37_2 C 0.5797(2) 0.4644(3) 0.08679(18)
H32_2 H 0.5996 0.4009 0.0775
N4 N 0.02277(18) 0.7110(2) 0.86750(13)
C19 C 0.0609(2) 0.7146(3) 0.82269(15)
C20 C 0.1492(2) 0.7187(3) 0.83264(16)
H16 H 0.1731 0.7205 0.7997
C21 C 0.2003(2) 0.7200(3) 0.89276(15)
H17 H 0.2597 0.7236 0.9011
C22 C 0.1628(2) 0.7160(3) 0.94096(15)
C23 C 0.0743(2) 0.7114(3) 0.92525(16)
H18 H 0.0487 0.7083 0.9572
O3_2 O 0.64845(19) 0.0599(3) 0.21150(13)
O4_2 O 0.7796(2) 0.0579(3) 0.27369(13)
N2_3 N 0.89222(18) 0.0237(2) 0.13720(13)
C7_3 C 0.8432(2) 0.0117(3) 0.07942(15)
C8_3 C 0.7551(2) 0.0014(3) 0.06337(16)
C9_3 C 0.7153(2) 0.0109(3) 0.10944(16)
H11_3 H 0.6560 0.0049 0.1003
C10_3 C 0.7641(2) 0.0294(3) 0.16960(15)
C11_3 C 0.8521(2) 0.0327(3) 0.18043(16)
H12_3 H 0.8855 0.0419 0.2210
C12_3 C 0.7262(2) 0.0516(3) 0.22167(16)
S1_3 S 0.90784(6) 0.01233(8) 0.02724(4)
Cd3 Cd 0.801985(14) 0.147393(19) 0.360027(10)
Cd5_2 Cd 0.579000(15) 0.06540(2) 0.286490(11)
Cd1_2 Cd 0.198015(14) 0.852607(19) 0.639973(10)
Cd2 Cd 0.421000(15) 0.93460(2) 0.713510(11)
O5_3 O 0.19775(16) 0.6997(2) 0.69075(13)
O6_3 O 0.32883(16) 0.6336(2) 0.70658(13)
O9_3 O 0.34169(14) 0.80710(19) 0.64623(11)
H1_3 H 0.3315 0.8010 0.6087
H2_3 H 0.3456 0.7506 0.6631
O11_3 O 0.4872(2) 0.7884(3) 0.76435(14)
H5_3 H 0.5178 0.7533 0.7490
H6_3 H 0.4621 0.7911 0.7911
N3 N 0.23995(18) 0.3482(2) 0.74972(14)
N5_3 N 0.05266(18) 0.8593(2) 0.62221(13)
C13_3 C 0.2505(2) 0.6271(3) 0.70387(15)
C14_3 C 0.2161(2) 0.5250(3) 0.71759(14)
C15 C 0.2683(2) 0.4410(3) 0.73877(17)
H13 H 0.3271 0.4495 0.7459
C16 C 0.1549(2) 0.3375(3) 0.73833(15)
C17 C 0.0967(2) 0.4158(3) 0.71615(16)
H14 H 0.0380 0.4050 0.7084
C18_3 C 0.1283(2) 0.5101(3) 0.70594(15)
H15_3 H 0.0908 0.5644 0.6911
C25_3 C 0.0055(2) 0.7781(3) 0.59503(17)
H19_3 H 0.0335 0.7211 0.5849
C29_3 C 0.0110(2) 0.9390(3) 0.63715(17)
H22_3 H 0.0427 0.9956 0.6564
S3 S 0.00378(6) 0.21867(8) 0.75579(4)
S4 S 0.12691(6) 0.20889(8) 0.75249(5)
O12_2 O 0.35155(19) 0.9401(3) 0.78850(13)
O13_2 O 0.2204(2) 0.9421(3) 0.72631(13)
O14_2 O 0.16926(15) 0.7822(2) 0.54552(11)
N7_2 N 0.50653(18) 0.9403(2) 0.64668(13)
O7_2 O 0.83074(15) 0.2178(2) 0.45448(11)
O8_3 O 0.70635(15) 0.2100(2) 0.47763(11)
N4_2 N 0.97723(18) 0.2110(2) 0.63250(13)
C19_2 C 0.9391(2) 0.2146(3) 0.67731(15)
C20_2 C 0.8508(2) 0.2187(3) 0.66736(16)
H16_2 H 0.8269 0.2205 0.7003
C21_2 C 0.7997(2) 0.2200(3) 0.60724(15)
H17_2 H 0.7403 0.2236 0.5989
C22_2 C 0.8372(2) 0.2160(3) 0.55904(15)
C23_2 C 0.9257(2) 0.2114(3) 0.57475(16)
H18_2 H 0.9513 0.2083 0.5428
C24_3 C 0.7866(2) 0.2141(3) 0.49191(16)
C26_3 C 0.9178(2) 0.7758(3) 0.58170(17)
H20_3 H 0.8880 0.7177 0.5630
C27_3 C 0.8732(2) 0.8586(3) 0.59560(16)
C28_3 C 0.9227(2) 0.9416(3) 0.62542(18)
H21_3 H 0.8963 0.9985 0.6373
C30_3 C 0.7772(2) 0.8611(3) 0.57830(19)
H23_3 H 0.7587 0.8619 0.6156
H24_3 H 0.7547 0.7990 0.5555
C31_3 C 0.7409(2) 0.9543(3) 0.53942(17)
H25_3 H 0.7691 0.9608 0.5070
C32_3 C 0.6438(2) 0.9517(4) 0.50954(17)
H28_2 H 0.6294 0.8916 0.4831
C33_3 C 0.5946(2) 0.9484(3) 0.55657(16)
C34_3 C 0.5635(2) 0.8566(3) 0.57288(18)
H29_3 H 0.5716 0.7954 0.5538
C35_3 C 0.5204(2) 0.8559(3) 0.61737(18)
H30_3 H 0.4999 0.7932 0.6275
N2_4 N 0.10778(18) 0.9763(2) 0.86280(13)
C7_4 C 0.1568(2) 0.9883(3) 0.92058(15)
C8_4 C 0.2449(2) 0.9986(3) 0.93663(16)
C9_4 C 0.2847(2) 0.9891(3) 0.89056(16)
H11_4 H 0.3440 0.9951 0.8997
C10_4 C 0.2359(2) 0.9706(3) 0.83040(15)
C11_4 C 0.1479(2) 0.9673(3) 0.81957(16)
H12_4 H 0.1145 0.9581 0.7790
C12_4 C 0.2738(2) 0.9484(3) 0.77833(16)
S1_4 S 0.09216(6) 0.98767(8) 0.97276(4)
O8_4 O 0.29365(15) 0.7900(2) 0.52237(11)
N4_3 N 0.02277(18) 0.7890(2) 0.36750(13)
N6_2 N 0.49347(18) 0.0597(2) 0.35332(13)
C19_3 C 0.0609(2) 0.7854(3) 0.32269(15)
C20_3 C 0.1492(2) 0.7813(3) 0.33264(16)
H16_3 H 0.1731 0.7795 0.2997
C21_3 C 0.2003(2) 0.7800(3) 0.39276(15)
H17_3 H 0.2597 0.7764 0.4011
C22_3 C 0.1628(2) 0.7840(3) 0.44096(15)
C23_3 C 0.0743(2) 0.7886(3) 0.42525(16)
H18_3 H 0.0487 0.7917 0.4572
C24_4 C 0.2134(2) 0.7859(3) 0.50809(16)
C26_4 C 0.0822(2) 0.2242(3) 0.41830(17)
H20_4 H 0.1120 0.2823 0.4370
C27_4 C 0.1268(2) 0.1414(3) 0.40440(16)
C28_4 C 0.0773(2) 0.0584(3) 0.37458(18)
H21_4 H 0.1037 0.0015 0.3627
C30_4 C 0.2228(2) 0.1389(3) 0.42170(19)
H23_4 H 0.2413 0.1381 0.3844
H24_4 H 0.2453 0.2010 0.4445
C31_4 C 0.2591(2) 0.0457(3) 0.46058(17)
H25_4 H 0.2309 0.0392 0.4930
C32_4 C 0.3562(2) 0.0483(4) 0.49046(17)
H28_3 H 0.3706 0.1084 0.5169
C33_4 C 0.4054(2) 0.0516(3) 0.44343(16)
C34_4 C 0.4365(2) 0.1434(3) 0.42712(18)
H29_4 H 0.4284 0.2046 0.4462
C35_4 C 0.4796(2) 0.1441(3) 0.38263(18)
H30_4 H 0.5001 0.2068 0.3725
O5_4 O 0.80225(16) 0.3003(2) 0.30925(13)
O6_4 O 0.67117(16) 0.3664(2) 0.29342(13)
O9_4 O 0.65831(14) 0.19290(19) 0.35377(11)
H1_4 H 0.6685 0.1990 0.3913
H2_4 H 0.6544 0.2494 0.3369
O11_4 O 0.5128(2) 0.2116(3) 0.23565(14)
H5_4 H 0.4822 0.2467 0.2510
H6_4 H 0.5379 0.2089 0.2089
N3_2 N 0.76005(18) 0.6518(2) 0.25028(14)
N5_4 N 0.94734(18) 0.1407(2) 0.37779(13)
C13_4 C 0.7495(2) 0.3729(3) 0.29613(15)
C14_4 C 0.7839(2) 0.4750(3) 0.28241(14)
C15_2 C 0.7317(2) 0.5590(3) 0.26123(17)
H13_2 H 0.6729 0.5505 0.2541
C16_2 C 0.8451(2) 0.6625(3) 0.26167(15)
C17_2 C 0.9033(2) 0.5842(3) 0.28385(16)
H14_2 H 0.9620 0.5950 0.2916
C18_4 C 0.8717(2) 0.4899(3) 0.29406(15)
H15_4 H 0.9092 0.4356 0.3089
C25_4 C 0.9945(2) 0.2219(3) 0.40497(17)
H19_4 H 0.9665 0.2789 0.4151
C29_4 C 0.9890(2) 0.0610(3) 0.36285(17)
H22_4 H 0.9573 0.0044 0.3436
S3_2 S 0.99622(6) 0.78133(8) 0.24421(4)
S4_2 S 0.87309(6) 0.79111(8) 0.24751(5)
S2_3 S 0.82275(7) 0.02084(8) 0.94177(4)
H10_3 H 0.7236 0.9885 0.0228
N3_3 N 0.76005(18) 0.8482(2) 0.75028(14)
C15_3 C 0.7317(2) 0.9410(3) 0.76123(17)
H13_3 H 0.6729 0.9495 0.7541
C16_3 C 0.8451(2) 0.8375(3) 0.76167(15)
C17_3 C 0.9033(2) 0.9158(3) 0.78385(16)
H14_3 H 0.9620 0.9050 0.7916
S3_3 S 0.99622(6) 0.71867(8) 0.74421(4)
S4_3 S 0.87309(6) 0.70889(8) 0.74751(5)
H26_3 H 0.7547 0.0153 0.5652
H27_2 H 0.6269 0.0125 0.4839
C36_3 C 0.5359(2) 0.0296(3) 0.63061(17)
H31_3 H 0.5261 0.0899 0.6499
C37_3 C 0.5797(2) 0.0356(3) 0.58679(18)
H32_3 H 0.5996 0.0991 0.5775
N3_4 N 0.23995(18) 0.1518(2) 0.24972(14)
C15_4 C 0.2683(2) 0.0590(3) 0.23877(17)
H13_4 H 0.3271 0.0505 0.2459
C16_4 C 0.1549(2) 0.1625(3) 0.23833(15)
C17_4 C 0.0967(2) 0.0842(3) 0.21615(16)
H14_4 H 0.0380 0.0950 0.2084
S3_4 S 0.00378(6) 0.28133(8) 0.25579(4)
S4_4 S 0.12691(6) 0.29111(8) 0.25249(5)
H10_4 H 0.2764 0.0115 0.9772
S2_4 S 0.17725(7) 0.97916(8) 0.05823(4)
N4_4 N 0.97723(18) 0.2890(2) 0.13250(13)
C19_4 C 0.9391(2) 0.2854(3) 0.17731(15)
C20_4 C 0.8508(2) 0.2813(3) 0.16736(16)
H16_4 H 0.8269 0.2795 0.2003
C21_4 C 0.7997(2) 0.2800(3) 0.10724(15)
H17_4 H 0.7403 0.2764 0.0989
C22_4 C 0.8372(2) 0.2840(3) 0.05904(15)
C23_4 C 0.9257(2) 0.2886(3) 0.07475(16)
H18_4 H 0.9513 0.2917 0.0428
H27_3 H 0.6269 0.4875 0.9839
H28_4 H 0.6294 0.6084 0.9831
H26_4 H 0.2453 0.9847 0.4348
H27_4 H 0.3731 0.9875 0.5161
C36_4 C 0.4641(2) 0.9704(3) 0.36939(17)
H31_4 H 0.4739 0.9101 0.3501
C37_4 C 0.4203(2) 0.9644(3) 0.41321(18)
H32_4 H 0.4004 0.9009 0.4225
loop_
_geom_bond_atom_site_label_1
_geom_bond_atom_site_label_2
_geom_bond_site_symmetry_1
_geom_bond_site_symmetry_2
N6 C35 1_555 1_555
H20 C26 1_555 1_555
C27 C26 1_555 1_555
C28 C27 1_555 1_555
H21 C28 1_555 1_555
C30 C27 1_555 1_555
H23 C30 1_555 1_555
H24 C30 1_555 1_555
C31 C30 1_555 1_555
H25 C31 1_555 1_555
H26 C31 1_555 1_555
C32 C31 1_555 1_555
C33 C32 1_555 1_555
C34 C33 1_555 1_555
H29 C34 1_555 1_555
C35 C34 1_555 1_555
H30 C35 1_555 1_555
C36 N6 1_555 1_555
H31 C36 1_555 1_555
C37 C33 1_555 1_555
H32 C37 1_555 1_555
Cd6 N6 1_555 1_555
C36 C37 1_555 1_555
Cd1 O2 1_555 1_555
Cd6 O1 1_555 1_555
O1 C1 1_555 1_555
O2 C1 1_555 1_555
O5 Cd1 1_555 1_555
O6 C13 1_555 1_555
O9 Cd1 1_555 1_555
H1 O9 1_555 1_555
H2 O9 1_555 1_555
O10 Cd6 1_555 1_555
H3 O10 1_555 1_555
H4 O10 1_555 1_555
O11 Cd6 1_555 1_555
H5 O11 1_555 1_555
H6 O11 1_555 1_555
N1 C5 1_555 1_555
N5 Cd1 1_555 1_555
C1 C2 1_555 1_555
C2 C3 1_555 1_555
C3 H7 1_555 1_555
C4 C3 1_555 1_555
H8 C4 1_555 1_555
C5 C4 1_555 1_555
C6 N1 1_555 1_555
H9 C6 1_555 1_555
C13 O5 1_555 1_555
C14 C13 1_555 1_555
C18 C14 1_555 1_555
H15 C18 1_555 1_555
C25 N5 1_555 1_555
H19 C25 1_555 1_555
C29 N5 1_555 1_555
H22 C29 1_555 1_555
O12 Cd6 1_555 1_555
O13 Cd1 1_555 1_555
O14 Cd1 1_555 1_555
Cd6 O9 1_555 1_555
C2 C6 1_555 1_555
O14 C24 1_555 1_555
O8 C24 1_555 1_555
O1_2 C1_2 1_555 1_555
O2_2 C1_2 1_555 1_555
O12 C12 1_555 1_555
O13 C12 1_555 1_555
H3_2 O10_2 1_555 1_555
H4_2 O10_2 1_555 1_555
N1_2 C5_2 1_555 1_555
N2 C7 1_555 1_555
C1_2 C2_2 1_555 1_555
C2_2 C3_2 1_555 1_555
C3_2 H7_2 1_555 1_555
C4_2 C3_2 1_555 1_555
H8_2 C4_2 1_555 1_555
C5_2 C4_2 1_555 1_555
C6_2 N1_2 1_555 1_555
H9_2 C6_2 1_555 1_555
C7 C8 1_555 1_555
C8 H10 1_555 1_555
C9 C8 1_555 1_555
H11 C9 1_555 1_555
C10 C9 1_555 1_555
C11 N2 1_555 1_555
H12 C11 1_555 1_555
C12 C10 1_555 1_555
S1 C7 1_555 1_555
S2 C5_2 1_555 1_555
C2_2 C6_2 1_555 1_555
C10 C11 1_555 1_555
S1 S2 1_555 1_555
O7 C24_2 1_555 1_555
O8_2 C24_2 1_555 1_555
Cd4 O7 1_555 1_555
O1_3 C1_3 1_555 1_555
O2_3 C1_3 1_555 1_555
O3 C12_2 1_555 1_555
O4 C12_2 1_555 1_555
H3_3 O10_3 1_555 1_555
H4_3 O10_3 1_555 1_555
N1_3 C5_3 1_555 1_555
N2_2 C7_2 1_555 1_555
C1_3 C2_3 1_555 1_555
C2_3 C3_3 1_555 1_555
C3_3 H7_3 1_555 1_555
C4_3 C3_3 1_555 1_555
H8_3 C4_3 1_555 1_555
C5_3 C4_3 1_555 1_555
C6_3 N1_3 1_555 1_555
H9_3 C6_3 1_555 1_555
C7_2 C8_2 1_555 1_555
C8_2 H10_2 1_555 1_555
C9_2 C8_2 1_555 1_555
H11_2 C9_2 1_555 1_555
C10_2 C9_2 1_555 1_555
C11_2 N2_2 1_555 1_555
H12_2 C11_2 1_555 1_555
C12_2 C10_2 1_555 1_555
S1_2 C7_2 1_555 1_555
S2_2 C5_3 1_555 1_555
Cd4 O4 1_555 1_555
Cd5 O3 1_555 1_555
C2_3 C6_3 1_555 1_555
C10_2 C11_2 1_555 1_555
S1_2 S2_2 1_555 1_555
Cd4 O2_4 1_555 1_555
Cd5 O1_4 1_555 1_555
O1_4 C1_4 1_555 1_555
O2_4 C1_4 1_555 1_555
O5_2 Cd4 1_555 1_555
O6_2 C13_2 1_555 1_555
O9_2 Cd4 1_555 1_555
H1_2 O9_2 1_555 1_555
H2_2 O9_2 1_555 1_555
O10_4 Cd5 1_555 1_555
H3_4 O10_4 1_555 1_555
H4_4 O10_4 1_555 1_555
O11_2 Cd5 1_555 1_555
H5_2 O11_2 1_555 1_555
H6_2 O11_2 1_555 1_555
N1_4 C5_4 1_555 1_555
N5_2 Cd4 1_555 1_555
C1_4 C2_4 1_555 1_555
C2_4 C3_4 1_555 1_555
C3_4 H7_4 1_555 1_555
C4_4 C3_4 1_555 1_555
H8_4 C4_4 1_555 1_555
C5_4 C4_4 1_555 1_555
C6_4 N1_4 1_555 1_555
H9_4 C6_4 1_555 1_555
C13_2 O5_2 1_555 1_555
C14_2 C13_2 1_555 1_555
C18_2 C14_2 1_555 1_555
H15_2 C18_2 1_555 1_555
C25_2 N5_2 1_555 1_555
H19_2 C25_2 1_555 1_555
C29_2 N5_2 1_555 1_555
H22_2 C29_2 1_555 1_555
N7 Cd5 1_555 1_555
Cd5 O9_2 1_555 1_555
C2_4 C6_4 1_555 1_555
N7 C35_2 1_555 1_555
H20_2 C26_2 1_555 1_555
C27_2 C26_2 1_555 1_555
C28_2 C27_2 1_555 1_555
H21_2 C28_2 1_555 1_555
C30_2 C27_2 1_555 1_555
H23_2 C30_2 1_555 1_555
H24_2 C30_2 1_555 1_555
C31_2 C30_2 1_555 1_555
H25_2 C31_2 1_555 1_555
H26_2 C31_2 1_555 1_555
C32_2 C31_2 1_555 1_555
C33_2 C32_2 1_555 1_555
C34_2 C33_2 1_555 1_555
H29_2 C34_2 1_555 1_555
C35_2 C34_2 1_555 1_555
H30_2 C35_2 1_555 1_555
C36_2 N7 1_555 1_555
H31_2 C36_2 1_555 1_555
C37_2 C33_2 1_555 1_555
H32_2 C37_2 1_555 1_555
C36_2 C37_2 1_555 1_555
N4 C19 1_555 1_555
C19 C20 1_555 1_555
C20 H16 1_555 1_555
C21 C20 1_555 1_555
H17 C21 1_555 1_555
C22 C21 1_555 1_555
C23 N4 1_555 1_555
H18 C23 1_555 1_555
C22 C23 1_555 1_555
O3_2 C12_3 1_555 1_555
O4_2 C12_3 1_555 1_555
N2_3 C7_3 1_555 1_555
C7_3 C8_3 1_555 1_555
C9_3 C8_3 1_555 1_555
H11_3 C9_3 1_555 1_555
C10_3 C9_3 1_555 1_555
C11_3 N2_3 1_555 1_555
H12_3 C11_3 1_555 1_555
C12_3 C10_3 1_555 1_555
S1_3 C7_3 1_555 1_555
Cd3 O4_2 1_555 1_555
Cd5_2 O3_2 1_555 1_555
C10_3 C11_3 1_555 1_555
O5_3 Cd1_2 1_555 1_555
O6_3 C13_3 1_555 1_555
O9_3 Cd1_2 1_555 1_555
H1_3 O9_3 1_555 1_555
H2_3 O9_3 1_555 1_555
O11_3 Cd2 1_555 1_555
H5_3 O11_3 1_555 1_555
H6_3 O11_3 1_555 1_555
N3 C15 1_555 1_555
N5_3 Cd1_2 1_555 1_555
C13_3 O5_3 1_555 1_555
C14_3 C13_3 1_555 1_555
C15 C14_3 1_555 1_555
H13 C15 1_555 1_555
C16 N3 1_555 1_555
C17 C16 1_555 1_555
H14 C17 1_555 1_555
C18_3 C14_3 1_555 1_555
H15_3 C18_3 1_555 1_555
C25_3 N5_3 1_555 1_555
H19_3 C25_3 1_555 1_555
C29_3 N5_3 1_555 1_555
H22_3 C29_3 1_555 1_555
S4 C16 1_555 1_555
O12_2 Cd2 1_555 1_555
O13_2 Cd1_2 1_555 1_555
O14_2 Cd1_2 1_555 1_555
N7_2 Cd2 1_555 1_555
Cd2 O9_3 1_555 1_555
C17 C18_3 1_555 1_555
S3 S4 1_555 1_555
O7_2 C24_3 1_555 1_555
O8_3 C24_3 1_555 1_555
N4_2 C19_2 1_555 1_555
N7_2 C35_3 1_555 1_555
C19_2 C20_2 1_555 1_555
C20_2 H16_2 1_555 1_555
C21_2 C20_2 1_555 1_555
H17_2 C21_2 1_555 1_555
C22_2 C21_2 1_555 1_555
C23_2 N4_2 1_555 1_555
H18_2 C23_2 1_555 1_555
C24_3 C22_2 1_555 1_555
H20_3 C26_3 1_555 1_555
C27_3 C26_3 1_555 1_555
C28_3 C27_3 1_555 1_555
H21_3 C28_3 1_555 1_555
C30_3 C27_3 1_555 1_555
H23_3 C30_3 1_555 1_555
H24_3 C30_3 1_555 1_555
C31_3 C30_3 1_555 1_555
H25_3 C31_3 1_555 1_555
C32_3 C31_3 1_555 1_555
H28_2 C32_3 1_555 1_555
C33_3 C32_3 1_555 1_555
C34_3 C33_3 1_555 1_555
H29_3 C34_3 1_555 1_555
C35_3 C34_3 1_555 1_555
H30_3 C35_3 1_555 1_555
Cd3 O7_2 1_555 1_555
C22_2 C23_2 1_555 1_555
O12_2 C12_4 1_555 1_555
O13_2 C12_4 1_555 1_555
N2_4 C7_4 1_555 1_555
C7_4 C8_4 1_555 1_555
C9_4 C8_4 1_555 1_555
H11_4 C9_4 1_555 1_555
C10_4 C9_4 1_555 1_555
C11_4 N2_4 1_555 1_555
H12_4 C11_4 1_555 1_555
C12_4 C10_4 1_555 1_555
S1_4 C7_4 1_555 1_555
C10_4 C11_4 1_555 1_555
O14_2 C24_4 1_555 1_555
O8_4 C24_4 1_555 1_555
N4_3 C19_3 1_555 1_555
N6_2 C35_4 1_555 1_555
C19_3 C20_3 1_555 1_555
C20_3 H16_3 1_555 1_555
C21_3 C20_3 1_555 1_555
H17_3 C21_3 1_555 1_555
C22_3 C21_3 1_555 1_555
C23_3 N4_3 1_555 1_555
H18_3 C23_3 1_555 1_555
C24_4 C22_3 1_555 1_555
H20_4 C26_4 1_555 1_555
C27_4 C26_4 1_555 1_555
C28_4 C27_4 1_555 1_555
H21_4 C28_4 1_555 1_555
C30_4 C27_4 1_555 1_555
H23_4 C30_4 1_555 1_555
H24_4 C30_4 1_555 1_555
C31_4 C30_4 1_555 1_555
H25_4 C31_4 1_555 1_555
C32_4 C31_4 1_555 1_555
H28_3 C32_4 1_555 1_555
C33_4 C32_4 1_555 1_555
C34_4 C33_4 1_555 1_555
H29_4 C34_4 1_555 1_555
C35_4 C34_4 1_555 1_555
H30_4 C35_4 1_555 1_555
Cd5_2 N6_2 1_555 1_555
C22_3 C23_3 1_555 1_555
O5_4 Cd3 1_555 1_555
O6_4 C13_4 1_555 1_555
O9_4 Cd3 1_555 1_555
H1_4 O9_4 1_555 1_555
H2_4 O9_4 1_555 1_555
O11_4 Cd5_2 1_555 1_555
H5_4 O11_4 1_555 1_555
H6_4 O11_4 1_555 1_555
N3_2 C15_2 1_555 1_555
N5_4 Cd3 1_555 1_555
C13_4 O5_4 1_555 1_555
C14_4 C13_4 1_555 1_555
C15_2 C14_4 1_555 1_555
H13_2 C15_2 1_555 1_555
C16_2 N3_2 1_555 1_555
C17_2 C16_2 1_555 1_555
H14_2 C17_2 1_555 1_555
C18_4 C14_4 1_555 1_555
H15_4 C18_4 1_555 1_555
C25_4 N5_4 1_555 1_555
H19_4 C25_4 1_555 1_555
C29_4 N5_4 1_555 1_555
H22_4 C29_4 1_555 1_555
S4_2 C16_2 1_555 1_555
Cd5_2 O9_4 1_555 1_555
C17_2 C18_4 1_555 1_555
S3_2 S4_2 1_555 1_555
N3_3 C15_3 1_555 1_555
H13_3 C15_3 1_555 1_555
C16_3 N3_3 1_555 1_555
C17_3 C16_3 1_555 1_555
H14_3 C17_3 1_555 1_555
S4_3 C16_3 1_555 1_555
S3_3 S4_3 1_555 1_555
H31_3 C36_3 1_555 1_555
H32_3 C37_3 1_555 1_555
C36_3 C37_3 1_555 1_555
N3_4 C15_4 1_555 1_555
H13_4 C15_4 1_555 1_555
C16_4 N3_4 1_555 1_555
C17_4 C16_4 1_555 1_555
H14_4 C17_4 1_555 1_555
S4_4 C16_4 1_555 1_555
S3_4 S4_4 1_555 1_555
N4_4 C19_4 1_555 1_555
C19_4 C20_4 1_555 1_555
C20_4 H16_4 1_555 1_555
C21_4 C20_4 1_555 1_555
H17_4 C21_4 1_555 1_555
C22_4 C21_4 1_555 1_555
C23_4 N4_4 1_555 1_555
H18_4 C23_4 1_555 1_555
C22_4 C23_4 1_555 1_555
H31_4 C36_4 1_555 1_555
H32_4 C37_4 1_555 1_555
C36_4 C37_4 1_555 1_555

#END
