
###############################################################################
#
# This file contains modified crystal structure data generated from the
# MOF subset of the Cambridge Structural Database (CSD) v543 
# hosted by the Cambridge Crystallographic Data Centre (CCDC).
#
# This work is licensed under the Creative Commons
# Attribution-NonCommercial-ShareAlike 4.0 International License.
# To view a copy of this license, visit
# http://creativecommons.org/licenses/by-nc-sa/4.0/
# or send a letter to
# Creative Commons, PO Box 1866, Mountain View, CA 94042, USA.
#
# CIF created using the CSD Python API on 29 September 2022
# The structure has been converted into the P1 space group
# The structure has a 3D framework
# The original CSD entry OVIZID is in the monoclinic crystal system
# The framework has been calculated to contain at least 10.0% void space
# The void calculation uses a probe of radius 1.32A, grid spacing 0.4
# H atom positions have been added when not included in the experimental data
# Generated hydrogen atom positions removed from atoms on special positions
#
###############################################################################

data_OVIZID
_chemical_formula_moiety         '(C180 H184 N24 Ni23 O80)n'
_symmetry_cell_setting           triclinic
_symmetry_space_group_name_H-M   'P 1'
_symmetry_Int_Tables_number      1
_space_group_name_Hall           'P 1'
loop_
_symmetry_equiv_pos_site_id
_symmetry_equiv_pos_as_xyz
1 x,y,z
_cell_length_a                   15.3745(10)
_cell_length_b                   20.4521(14)
_cell_length_c                   18.0331(13)
_cell_angle_alpha                90
_cell_angle_beta                 93.104(4)
_cell_angle_gamma                90
_cell_volume                     5662.02
loop_
_atom_site_label
_atom_site_type_symbol
_atom_site_fract_x
_atom_site_fract_y
_atom_site_fract_z
Ni6 Ni 0.24369(3) 0.51920(3) 0.78943(3)
C25 C 0.0455(2) 0.5411(2) 0.6122(2)
C26 C 0.0270(2) 0.5816(2) 0.5517(2)
H18 H 0.0705 0.6096 0.5338
O15 O 0.14218(18) 0.51500(15) 0.71325(16)
O18 O 0.1947(2) 0.5698(3) 0.6191(2)
C29 C 0.1350(3) 0.5419(2) 0.6509(2)
Ni1 Ni 0.24369(3) 0.48080(3) 0.28943(3)
O1 O 0.27713(19) 0.57520(16) 0.26165(18)
C1 C 0.1022(2) 0.50124(19) 0.3961(2)
Ni2 Ni 0.5000 0.5000 0.5000
O2 O 0.2214(3) 0.6748(2) 0.2510(3)
C2 C 0.0181(2) 0.5000(2) 0.3619(2)
H1 H 0.0045 0.5276 0.3205
O3 O 0.33396(18) 0.48253(14) 0.37576(17)
O4 O 0.37565(17) 0.53650(15) 0.47818(16)
N1 N 0.7046(2) 0.88630(16) 0.32138(19)
C5 C 0.0564(2) 0.4197(2) 0.4822(2)
C6 C 0.1204(2) 0.4605(2) 0.4561(2)
H3 H 0.1771 0.4604 0.4797
O7 O 0.0173(2) 0.33968(17) 0.56865(19)
O8 O 0.1470(2) 0.3864(3) 0.5856(3)
N2 N 0.17092(19) 0.54032(16) 0.36706(17)
C8 C 0.0784(3) 0.3787(2) 0.5490(2)
O9 O 0.3288(2) 0.4421(2) 0.2151(2)
N3 N 0.5514(2) 0.58878(17) 0.4667(2)
C9 C 0.2376(2) 0.5626(2) 0.4246(2)
H4 H 0.2126 0.5596 0.4740
H5 H 0.2511 0.6091 0.4156
O10 O 0.4907(2) 0.53548(17) 0.60949(19)
C10 C 0.3222(2) 0.52359(17) 0.4264(2)
C11 C 0.1440(2) 0.5962(2) 0.3191(2)
H6 H 0.1263 0.6333 0.3502
H7 H 0.0935 0.5836 0.2858
C12 C 0.2194(3) 0.6171(2) 0.2727(3)
C13 C 0.6220(3) 0.8655(2) 0.3092(2)
H8 H 0.5834 0.8917 0.2790
C14 C 0.7584(3) 0.8466(2) 0.3613(3)
H9 H 0.8173 0.8597 0.3703
C15 C 0.5905(3) 0.8090(2) 0.3377(3)
H10 H 0.5310 0.7975 0.3288
C16 C 0.7323(3) 0.7879(2) 0.3899(3)
H11 H 0.7733 0.7607 0.4164
C17 C 0.6461(3) 0.7684(2) 0.3800(3)
C18 C 0.6140(3) 0.7065(2) 0.4118(3)
C19 C 0.5372(3) 0.7041(2) 0.4494(3)
H12 H 0.5050 0.7428 0.4571
C20 C 0.6585(3) 0.6478(2) 0.4034(3)
H13 H 0.7115 0.6471 0.3785
C21 C 0.5087(3) 0.6450(2) 0.4751(3)
H14 H 0.4560 0.6441 0.5002
C22 C 0.6260(2) 0.59185(16) 0.43082(19)
H15 H 0.6576 0.5525 0.4245
H16 H 0.0402 0.3068 0.5920
Ni3 Ni 0.75631(3) 0.51920(3) 0.71057(3)
Ni5 Ni 0.74369(3) 0.98080(3) 0.28943(3)
Ni7 Ni 0.25631(3) 0.01920(3) 0.71057(3)
O11 O 0.72287(19) 0.42480(16) 0.73835(18)
C23 C 0.8978(2) 0.49876(19) 0.6039(2)
O12 O 0.7786(3) 0.3252(2) 0.7490(3)
C24 C 0.9819(2) 0.5000(2) 0.6381(2)
H17 H 0.9955 0.4724 0.6795
O13 O 0.66604(18) 0.51747(14) 0.62424(17)
O14 O 0.62435(17) 0.46350(15) 0.52182(16)
O16 O 0.14218(18) 0.48500(15) 0.21325(16)
O17 O 0.85782(18) 0.51500(15) 0.78675(16)
N4 N 0.2954(2) 0.11370(16) 0.67862(19)
N5 N 0.2046(2) 0.38630(16) 0.32138(19)
N6 N 0.7954(2) 0.61370(16) 0.67862(19)
C27 C 0.9436(2) 0.5803(2) 0.5178(2)
C28 C 0.8796(2) 0.5395(2) 0.5439(2)
H19 H 0.8229 0.5396 0.5203
O19 O 0.9827(2) 0.66032(17) 0.43135(19)
O20 O 0.8530(2) 0.6136(3) 0.4144(3)
N7 N 0.82908(19) 0.45968(16) 0.63294(17)
C30 C 0.9216(3) 0.6213(2) 0.4510(2)
O21 O 0.6712(2) 0.5579(2) 0.7849(2)
N8 N 0.4486(2) 0.41122(17) 0.5333(2)
C31 C 0.7624(2) 0.4374(2) 0.5754(2)
H20 H 0.7874 0.4404 0.5260
H21 H 0.7489 0.3909 0.5844
O22 O 0.5093(2) 0.46452(17) 0.39051(19)
C32 C 0.6778(2) 0.47641(17) 0.5736(2)
C33 C 0.8560(2) 0.4038(2) 0.6809(2)
H22 H 0.8737 0.3667 0.6498
H23 H 0.9065 0.4164 0.7142
C34 C 0.7806(3) 0.3829(2) 0.7273(3)
C35 C 0.3780(3) 0.1345(2) 0.6908(2)
H24 H 0.4166 0.1083 0.7210
C36 C 0.2416(3) 0.1534(2) 0.6387(3)
H25 H 0.1827 0.1403 0.6297
C37 C 0.4095(3) 0.1910(2) 0.6623(3)
H26 H 0.4690 0.2025 0.6712
C38 C 0.2677(3) 0.2121(2) 0.6101(3)
H27 H 0.2267 0.2393 0.5836
C39 C 0.3539(3) 0.2316(2) 0.6200(3)
C40 C 0.3860(3) 0.2935(2) 0.5882(3)
C41 C 0.4628(3) 0.2959(2) 0.5506(3)
H28 H 0.4950 0.2572 0.5429
C42 C 0.3415(3) 0.3522(2) 0.5966(3)
H29 H 0.2885 0.3529 0.6215
C43 C 0.4913(3) 0.3550(2) 0.5249(3)
H30 H 0.5440 0.3559 0.4998
C44 C 0.3740(2) 0.40815(16) 0.56918(19)
H31 H 0.3424 0.4475 0.5755
H32 H 0.9598 0.6932 0.4080
C3 C 0.9545(2) 0.4589(2) 0.3878(2)
C4 C 0.9730(2) 0.4184(2) 0.4483(2)
H2 H 0.9295 0.3904 0.4662
O5 O 0.85782(18) 0.48500(15) 0.28675(16)
O6 O 0.8053(2) 0.4302(3) 0.3809(2)
C7 C 0.8650(3) 0.4581(2) 0.3491(2)
Ni4 Ni 0.75631(3) 0.48080(3) 0.21057(3)
C3_2 C 0.0455(2) 0.4589(2) 0.1122(2)
C4_2 C 0.0270(2) 0.4184(2) 0.0517(2)
H2_2 H 0.0705 0.3904 0.0338
O6_2 O 0.1947(2) 0.4302(3) 0.1191(2)
C7_2 C 0.1350(3) 0.4581(2) 0.1509(2)
O1_2 O 0.72287(19) 0.57520(16) 0.23835(18)
C1_2 C 0.8978(2) 0.50124(19) 0.1039(2)
Ni2_2 Ni 0.5000 0.5000 0.0000
O2_2 O 0.7786(3) 0.6748(2) 0.2490(3)
C2_2 C 0.9819(2) 0.5000(2) 0.1381(2)
H1_2 H 0.9955 0.5276 0.1795
O3_2 O 0.66604(18) 0.48253(14) 0.12424(17)
O4_2 O 0.62435(17) 0.53650(15) 0.02182(16)
N1_2 N 0.2954(2) 0.88630(16) 0.17862(19)
C5_2 C 0.9436(2) 0.4197(2) 0.0178(2)
C6_2 C 0.8796(2) 0.4605(2) 0.0439(2)
H3_2 H 0.8229 0.4604 0.0203
N2_2 N 0.82908(19) 0.54032(16) 0.13294(17)
O9_2 O 0.6712(2) 0.4421(2) 0.2849(2)
N3_2 N 0.4486(2) 0.58878(17) 0.0333(2)
C9_2 C 0.7624(2) 0.5626(2) 0.0754(2)
H4_2 H 0.7874 0.5596 0.0260
H5_2 H 0.7489 0.6091 0.0844
C10_2 C 0.6778(2) 0.52359(17) 0.0736(2)
C11_2 C 0.8560(2) 0.5962(2) 0.1809(2)
H6_2 H 0.8737 0.6333 0.1498
H7_2 H 0.9065 0.5836 0.2142
C12_2 C 0.7806(3) 0.6171(2) 0.2273(3)
C13_2 C 0.3780(3) 0.8655(2) 0.1908(2)
H8_2 H 0.4166 0.8917 0.2210
C14_2 C 0.2416(3) 0.8466(2) 0.1387(3)
H9_2 H 0.1827 0.8597 0.1297
C15_2 C 0.4095(3) 0.8090(2) 0.1623(3)
H10_2 H 0.4690 0.7975 0.1712
C16_2 C 0.2677(3) 0.7879(2) 0.1101(3)
H11_2 H 0.2267 0.7607 0.0836
C17_2 C 0.3539(3) 0.7684(2) 0.1200(3)
C18_2 C 0.3860(3) 0.7065(2) 0.0882(3)
C19_2 C 0.4628(3) 0.7041(2) 0.0506(3)
H12_2 H 0.4950 0.7428 0.0429
C20_2 C 0.3415(3) 0.6478(2) 0.0966(3)
H13_2 H 0.2885 0.6471 0.1215
C21_2 C 0.4913(3) 0.6450(2) 0.0249(3)
C22_2 C 0.3740(2) 0.59185(16) 0.06918(19)
H15_2 H 0.3424 0.5525 0.0755
Ni5_2 Ni 0.25631(3) 0.98080(3) 0.21057(3)
N5_2 N 0.7954(2) 0.38630(16) 0.17862(19)
O19_2 O 0.0173(2) 0.66032(17) 0.06865(19)
O20_2 O 0.1470(2) 0.6136(3) 0.0856(3)
C30_2 C 0.0784(3) 0.6213(2) 0.0490(2)
O22_2 O 0.4907(2) 0.46452(17) 0.10949(19)
H30_2 H 0.4560 0.3559 0.0002
H32_2 H 0.0402 0.6932 0.0920
Ni2_3 Ni 0.5000 0.5000 1.0000
O7_2 O 0.9827(2) 0.33968(17) 0.93135(19)
O8_2 O 0.8530(2) 0.3864(3) 0.9144(3)
C8_2 C 0.9216(3) 0.3787(2) 0.9510(2)
O10_2 O 0.5093(2) 0.53548(17) 0.89051(19)
H14_2 H 0.5440 0.6441 0.9998
H16_2 H 0.9598 0.3068 0.9080
Ni7_2 Ni 0.74369(3) 0.01920(3) 0.78943(3)
O11_2 O 0.27713(19) 0.42480(16) 0.76165(18)
C23_2 C 0.1022(2) 0.49876(19) 0.8961(2)
O12_2 O 0.2214(3) 0.3252(2) 0.7510(3)
C24_2 C 0.0181(2) 0.5000(2) 0.8619(2)
H17_2 H 0.0045 0.4724 0.8205
O13_2 O 0.33396(18) 0.51747(14) 0.87576(17)
O14_2 O 0.37565(17) 0.46350(15) 0.97818(16)
N4_2 N 0.7046(2) 0.11370(16) 0.82138(19)
N6_2 N 0.2046(2) 0.61370(16) 0.82138(19)
C27_2 C 0.0564(2) 0.5803(2) 0.9822(2)
C28_2 C 0.1204(2) 0.5395(2) 0.9561(2)
H19_2 H 0.1771 0.5396 0.9797
N7_2 N 0.17092(19) 0.45968(16) 0.86706(17)
O21_2 O 0.3288(2) 0.5579(2) 0.7151(2)
N8_2 N 0.5514(2) 0.41122(17) 0.9667(2)
C31_2 C 0.2376(2) 0.4374(2) 0.9246(2)
H20_2 H 0.2126 0.4404 0.9740
H21_2 H 0.2511 0.3909 0.9156
C32_2 C 0.3222(2) 0.47641(17) 0.9264(2)
C33_2 C 0.1440(2) 0.4038(2) 0.8191(2)
H22_2 H 0.1263 0.3667 0.8502
H23_2 H 0.0935 0.4164 0.7858
C34_2 C 0.2194(3) 0.3829(2) 0.7727(3)
C35_2 C 0.6220(3) 0.1345(2) 0.8092(2)
H24_2 H 0.5834 0.1083 0.7790
C36_2 C 0.7584(3) 0.1534(2) 0.8613(3)
H25_2 H 0.8173 0.1403 0.8703
C37_2 C 0.5905(3) 0.1910(2) 0.8377(3)
H26_2 H 0.5310 0.2025 0.8288
C38_2 C 0.7323(3) 0.2121(2) 0.8899(3)
H27_2 H 0.7733 0.2393 0.9164
C39_2 C 0.6461(3) 0.2316(2) 0.8800(3)
C40_2 C 0.6140(3) 0.2935(2) 0.9118(3)
C41_2 C 0.5372(3) 0.2959(2) 0.9494(3)
H28_2 H 0.5050 0.2572 0.9571
C42_2 C 0.6585(3) 0.3522(2) 0.9034(3)
H29_2 H 0.7115 0.3529 0.8785
C43_2 C 0.5087(3) 0.3550(2) 0.9751(3)
C44_2 C 0.6260(2) 0.40815(16) 0.93082(19)
H31_2 H 0.6576 0.4475 0.9245
C25_2 C 0.9545(2) 0.5411(2) 0.8878(2)
C26_2 C 0.9730(2) 0.5816(2) 0.9483(2)
H18_2 H 0.9295 0.6096 0.9662
O18_2 O 0.8053(2) 0.5698(3) 0.8809(2)
C29_2 C 0.8650(3) 0.5419(2) 0.8491(2)
Ni2_4 Ni 0.0000 -0.0000 0.5000
N3_3 N 0.0514(2) 0.08878(17) 0.4667(2)
C13_3 C 0.1220(3) 0.3655(2) 0.3092(2)
H8_3 H 0.0834 0.3917 0.2790
C14_3 C 0.2584(3) 0.3466(2) 0.3613(3)
H9_3 H 0.3173 0.3597 0.3703
C15_3 C 0.0905(3) 0.3090(2) 0.3377(3)
H10_3 H 0.0310 0.2975 0.3288
C16_3 C 0.2323(3) 0.2879(2) 0.3899(3)
H11_3 H 0.2733 0.2607 0.4164
C17_3 C 0.1461(3) 0.2684(2) 0.3800(3)
C18_3 C 0.1140(3) 0.2065(2) 0.4118(3)
C19_3 C 0.0372(3) 0.2041(2) 0.4494(3)
H12_3 H 0.0050 0.2428 0.4571
C20_3 C 0.1585(3) 0.1478(2) 0.4034(3)
H13_3 H 0.2115 0.1471 0.3785
C21_3 C 0.0087(3) 0.1450(2) 0.4751(3)
C22_3 C 0.1260(2) 0.09185(16) 0.43082(19)
H15_3 H 0.1576 0.0525 0.4245
C24_3 C 0.4819(2) -0.0000(2) 0.6381(2)
O13_3 O 0.16604(18) 0.01747(14) 0.62424(17)
C25_3 C 0.5455(2) 0.0411(2) 0.6122(2)
C26_3 C 0.5270(2) 0.0816(2) 0.5517(2)
H18_3 H 0.5705 0.1096 0.5338
O15_2 O 0.64218(18) 0.01500(15) 0.71325(16)
O17_2 O 0.35782(18) 0.01500(15) 0.78675(16)
C27_3 C 0.4436(2) 0.0803(2) 0.5178(2)
O18_3 O 0.6947(2) 0.0698(3) 0.6191(2)
C28_3 C 0.3796(2) 0.0395(2) 0.5439(2)
H19_3 H 0.3229 0.0396 0.5203
O19_3 O 0.4827(2) 0.16032(17) 0.43135(19)
C29_3 C 0.6350(3) 0.0419(2) 0.6509(2)
O20_3 O 0.3530(2) 0.1136(3) 0.4144(3)
C30_3 C 0.4216(3) 0.1213(2) 0.4510(2)
O21_3 O 0.1712(2) 0.0579(2) 0.7849(2)
H32_3 H 0.4598 0.1932 0.4080
H33 H 0.0031183 0.0014817 0.354908
H40 H 0.0453392 0.0253595 0.639156
Ni2_5 Ni 1.0000 1.0000 0.5000
C2_3 C 0.5181(2) 1.0000(2) 0.3619(2)
O3_3 O 0.83396(18) 0.98253(14) 0.37576(17)
C3_3 C 0.4545(2) 0.9589(2) 0.3878(2)
C4_3 C 0.4730(2) 0.9184(2) 0.4483(2)
H2_3 H 0.4295 0.8904 0.4662
O5_2 O 0.35782(18) 0.98500(15) 0.28675(16)
C5_3 C 0.5564(2) 0.9197(2) 0.4822(2)
O6_3 O 0.3053(2) 0.9302(3) 0.3809(2)
C6_3 C 0.6204(2) 0.9605(2) 0.4561(2)
H3_3 H 0.6771 0.9604 0.4797
O7_3 O 0.5173(2) 0.83968(17) 0.56865(19)
C7_3 C 0.3650(3) 0.9581(2) 0.3491(2)
O8_3 O 0.6470(2) 0.8864(3) 0.5856(3)
C8_3 C 0.5784(3) 0.8787(2) 0.5490(2)
O9_3 O 0.8288(2) 0.9421(2) 0.2151(2)
H16_3 H 0.5402 0.8068 0.5920
O16_2 O 0.64218(18) 0.98500(15) 0.21325(16)
N8_3 N 0.9486(2) 0.91122(17) 0.5333(2)
C35_3 C 0.8780(3) 0.6345(2) 0.6908(2)
H24_3 H 0.9166 0.6083 0.7210
C36_3 C 0.7416(3) 0.6534(2) 0.6387(3)
H25_3 H 0.6827 0.6403 0.6297
C37_3 C 0.9095(3) 0.6910(2) 0.6623(3)
H26_3 H 0.9690 0.7025 0.6712
C38_3 C 0.7677(3) 0.7121(2) 0.6101(3)
H27_3 H 0.7267 0.7393 0.5836
C39_3 C 0.8539(3) 0.7316(2) 0.6200(3)
C40_3 C 0.8860(3) 0.7935(2) 0.5882(3)
C41_3 C 0.9628(3) 0.7959(2) 0.5506(3)
H28_3 H 0.9950 0.7572 0.5429
C42_3 C 0.8415(3) 0.8522(2) 0.5966(3)
H29_3 H 0.7885 0.8529 0.6215
C43_3 C 0.9913(3) 0.8550(2) 0.5249(3)
C44_3 C 0.8740(2) 0.90815(16) 0.56918(19)
H31_3 H 0.8424 0.9475 0.5755
Ni2_6 Ni -0.0000 1.0000 0.0000
C2_4 C 0.4819(2) 1.0000(2) 0.1381(2)
O3_4 O 0.16604(18) 0.98253(14) 0.12424(17)
C3_4 C 0.5455(2) 0.9589(2) 0.1122(2)
C4_4 C 0.5270(2) 0.9184(2) 0.0517(2)
H2_4 H 0.5705 0.8904 0.0338
C5_4 C 0.4436(2) 0.9197(2) 0.0178(2)
O6_4 O 0.6947(2) 0.9302(3) 0.1191(2)
C6_4 C 0.3796(2) 0.9605(2) 0.0439(2)
H3_4 H 0.3229 0.9604 0.0203
C7_4 C 0.6350(3) 0.9581(2) 0.1509(2)
O9_4 O 0.1712(2) 0.9421(2) 0.2849(2)
Ni2_7 Ni -0.0000 1.0000 1.0000
O7_4 O 0.4827(2) 0.83968(17) 0.93135(19)
O8_4 O 0.3530(2) 0.8864(3) 0.9144(3)
C8_4 C 0.4216(3) 0.8787(2) 0.9510(2)
H16_4 H 0.4598 0.8068 0.9080
N8_4 N 0.0514(2) 0.91122(17) 0.9667(2)
C35_4 C 0.1220(3) 0.6345(2) 0.8092(2)
H24_4 H 0.0834 0.6083 0.7790
C36_4 C 0.2584(3) 0.6534(2) 0.8613(3)
H25_4 H 0.3173 0.6403 0.8703
C37_4 C 0.0905(3) 0.6910(2) 0.8377(3)
H26_4 H 0.0310 0.7025 0.8288
C38_4 C 0.2323(3) 0.7121(2) 0.8899(3)
H27_4 H 0.2733 0.7393 0.9164
C39_4 C 0.1461(3) 0.7316(2) 0.8800(3)
C40_4 C 0.1140(3) 0.7935(2) 0.9118(3)
C41_4 C 0.0372(3) 0.7959(2) 0.9494(3)
H28_4 H 0.0050 0.7572 0.9571
C42_4 C 0.1585(3) 0.8522(2) 0.9034(3)
H29_4 H 0.2115 0.8529 0.8785
C43_4 C 0.0087(3) 0.8550(2) 0.9751(3)
C44_4 C 0.1260(2) 0.90815(16) 0.93082(19)
H31_4 H 0.1576 0.9475 0.9245
Ni2_8 Ni 1.0000 -0.0000 0.0000
N3_4 N 0.9486(2) 0.08878(17) 0.0333(2)
C13_4 C 0.8780(3) 0.3655(2) 0.1908(2)
H8_4 H 0.9166 0.3917 0.2210
C14_4 C 0.7416(3) 0.3466(2) 0.1387(3)
H9_4 H 0.6827 0.3597 0.1297
C15_4 C 0.9095(3) 0.3090(2) 0.1623(3)
H10_4 H 0.9690 0.2975 0.1712
C16_4 C 0.7677(3) 0.2879(2) 0.1101(3)
H11_4 H 0.7267 0.2607 0.0836
C17_4 C 0.8539(3) 0.2684(2) 0.1200(3)
C18_4 C 0.8860(3) 0.2065(2) 0.0882(3)
C19_4 C 0.9628(3) 0.2041(2) 0.0506(3)
H12_4 H 0.9950 0.2428 0.0429
C20_4 C 0.8415(3) 0.1478(2) 0.0966(3)
H13_4 H 0.7885 0.1471 0.1215
C21_4 C 0.9913(3) 0.1450(2) 0.0249(3)
C22_4 C 0.8740(2) 0.09185(16) 0.06918(19)
H15_4 H 0.8424 0.0525 0.0755
O19_4 O 0.5173(2) 0.16032(17) 0.06865(19)
O20_4 O 0.6470(2) 0.1136(3) 0.0856(3)
C30_4 C 0.5784(3) 0.1213(2) 0.0490(2)
H32_4 H 0.5402 0.1932 0.0920
H33_2 H 0.996882 0.0014817 0.145092
Ni2_9 Ni 1.0000 -0.0000 1.0000
C24_4 C 0.5181(2) -0.0000(2) 0.8619(2)
O13_4 O 0.83396(18) 0.01747(14) 0.87576(17)
C25_4 C 0.4545(2) 0.0411(2) 0.8878(2)
C26_4 C 0.4730(2) 0.0816(2) 0.9483(2)
H18_4 H 0.4295 0.1096 0.9662
C27_4 C 0.5564(2) 0.0803(2) 0.9822(2)
O18_4 O 0.3053(2) 0.0698(3) 0.8809(2)
C28_4 C 0.6204(2) 0.0395(2) 0.9561(2)
H19_4 H 0.6771 0.0396 0.9797
C29_4 C 0.3650(3) 0.0419(2) 0.8491(2)
O21_4 O 0.8288(2) 0.0579(2) 0.7151(2)
H40_2 H 0.954661 0.0253595 0.860844
H33_3 H 0.996882 0.998518 0.645092
H40_3 H 0.954661 0.974641 0.360844
H40_4 H 0.0453392 0.974641 0.139156
H33_4 H 0.0031183 0.998518 0.854908
Ni2_10 Ni 0.0000 1.0000 0.5000
O11_3 O 0.22287(19) 0.92480(16) 0.73835(18)
C23_3 C 0.3978(2) 0.99876(19) 0.6039(2)
O12_3 O 0.2786(3) 0.8252(2) 0.7490(3)
C24_5 C 0.4819(2) 1.0000(2) 0.6381(2)
H17_3 H 0.4955 0.9724 0.6795
O14_3 O 0.12435(17) 0.96350(15) 0.52182(16)
N7_3 N 0.32908(19) 0.95968(16) 0.63294(17)
C31_3 C 0.2624(2) 0.9374(2) 0.5754(2)
H20_3 H 0.2874 0.9404 0.5260
H21_3 H 0.2489 0.8909 0.5844
O22_3 O 0.0093(2) 0.96452(17) 0.39051(19)
C32_3 C 0.1778(2) 0.97641(17) 0.5736(2)
C33_3 C 0.3560(2) 0.9038(2) 0.6809(2)
H22_3 H 0.3737 0.8667 0.6498
H23_3 H 0.4065 0.9164 0.7142
C34_3 C 0.2806(3) 0.8829(2) 0.7273(3)
H30_3 H 0.0440 0.8559 0.4998
H34 H 0.0668492 0.943298 0.385916
H39 H 0.0592125 0.98581 0.367444
O1_3 O 0.77713(19) 0.07520(16) 0.26165(18)
C1_3 C 0.6022(2) 0.00124(19) 0.3961(2)
Ni2_11 Ni 1.0000 -0.0000 0.5000
O2_3 O 0.7214(3) 0.1748(2) 0.2510(3)
C2_5 C 0.5181(2) 0.0000(2) 0.3619(2)
H1_3 H 0.5045 0.0276 0.3205
O4_3 O 0.87565(17) 0.03650(15) 0.47818(16)
N2_3 N 0.67092(19) 0.04032(16) 0.36706(17)
C9_3 C 0.7376(2) 0.0626(2) 0.4246(2)
H4_3 H 0.7126 0.0596 0.4740
H5_3 H 0.7511 0.1091 0.4156
O10_3 O 0.9907(2) 0.03548(17) 0.60949(19)
C10_3 C 0.8222(2) 0.02359(17) 0.4264(2)
C11_3 C 0.6440(2) 0.0962(2) 0.3191(2)
H6_3 H 0.6263 0.1333 0.3502
H7_3 H 0.5935 0.0836 0.2858
C12_3 C 0.7194(3) 0.1171(2) 0.2727(3)
H14_3 H 0.9560 0.1441 0.5002
H39_2 H 0.940788 0.0141898 0.632556
H34_2 H 0.933151 0.0567024 0.614084
O1_4 O 0.22287(19) 0.07520(16) 0.23835(18)
C1_4 C 0.3978(2) 0.00124(19) 0.1039(2)
Ni2_12 Ni -0.0000 -0.0000 0.0000
O2_4 O 0.2786(3) 0.1748(2) 0.2490(3)
C2_6 C 0.4819(2) 0.0000(2) 0.1381(2)
H1_4 H 0.4955 0.0276 0.1795
O4_4 O 0.12435(17) 0.03650(15) 0.02182(16)
N2_4 N 0.32908(19) 0.04032(16) 0.13294(17)
C9_4 C 0.2624(2) 0.0626(2) 0.0754(2)
H4_4 H 0.2874 0.0596 0.0260
H5_4 H 0.2489 0.1091 0.0844
C10_4 C 0.1778(2) 0.02359(17) 0.0736(2)
C11_4 C 0.3560(2) 0.0962(2) 0.1809(2)
H6_4 H 0.3737 0.1333 0.1498
H7_4 H 0.4065 0.0836 0.2142
C12_4 C 0.2806(3) 0.1171(2) 0.2273(3)
Ni2_13 Ni -0.0000 -0.0000 1.0000
O10_4 O 0.0093(2) 0.03548(17) 0.89051(19)
H14_4 H 0.0440 0.1441 0.9998
H39_3 H 0.0592125 0.0141898 0.867444
H34_3 H 0.0668492 0.0567024 0.885916
Ni2_14 Ni 1.0000 1.0000 0.0000
O22_4 O 0.9907(2) 0.96452(17) 0.10949(19)
H30_4 H 0.9560 0.8559 0.0002
H34_4 H 0.933151 0.943298 0.114084
H39_4 H 0.940788 0.98581 0.132556
Ni2_15 Ni 1.0000 1.0000 1.0000
O11_4 O 0.77713(19) 0.92480(16) 0.76165(18)
C23_4 C 0.6022(2) 0.99876(19) 0.8961(2)
O12_4 O 0.7214(3) 0.8252(2) 0.7510(3)
C24_6 C 0.5181(2) 1.0000(2) 0.8619(2)
H17_4 H 0.5045 0.9724 0.8205
O14_4 O 0.87565(17) 0.96350(15) 0.97818(16)
N7_4 N 0.67092(19) 0.95968(16) 0.86706(17)
C31_4 C 0.7376(2) 0.9374(2) 0.9246(2)
H20_4 H 0.7126 0.9404 0.9740
H21_4 H 0.7511 0.8909 0.9156
C32_4 C 0.8222(2) 0.97641(17) 0.9264(2)
C33_4 C 0.6440(2) 0.9038(2) 0.8191(2)
H22_4 H 0.6263 0.8667 0.8502
H23_4 H 0.5935 0.9164 0.7858
C34_4 C 0.7194(3) 0.8829(2) 0.7727(3)
loop_
_geom_bond_atom_site_label_1
_geom_bond_atom_site_label_2
_geom_bond_site_symmetry_1
_geom_bond_site_symmetry_2
Ni6 O15 1_555 1_555
C26 C25 1_555 1_555
H18 C26 1_555 1_555
O15 C29 1_555 1_555
O18 C29 1_555 1_555
C29 C25 1_555 1_555
Ni1 O1 1_555 1_555
O1 C12 1_555 1_555
C1 C2 1_555 1_555
Ni2 O4 1_555 1_555
O2 C12 1_555 1_555
C2 H1 1_555 1_555
O3 Ni1 1_555 1_555
O4 C10 1_555 1_555
N1 C13 1_555 1_555
C6 C1 1_555 1_555
H3 C6 1_555 1_555
O7 C8 1_555 1_555
O8 C8 1_555 1_555
N2 Ni1 1_555 1_555
C8 C5 1_555 1_555
O9 Ni1 1_555 1_555
N3 Ni2 1_555 1_555
C9 N2 1_555 1_555
H4 C9 1_555 1_555
H5 C9 1_555 1_555
O10 Ni2 1_555 1_555
C10 O3 1_555 1_555
C11 N2 1_555 1_555
H6 C11 1_555 1_555
H7 C11 1_555 1_555
C12 C11 1_555 1_555
C13 H8 1_555 1_555
C14 N1 1_555 1_555
H9 C14 1_555 1_555
C15 C13 1_555 1_555
H10 C15 1_555 1_555
C16 C14 1_555 1_555
H11 C16 1_555 1_555
C17 C15 1_555 1_555
C18 C17 1_555 1_555
C19 C18 1_555 1_555
H12 C19 1_555 1_555
C20 C18 1_555 1_555
H13 C20 1_555 1_555
C21 N3 1_555 1_555
H14 C21 1_555 1_555
C22 N3 1_555 1_555
H15 C22 1_555 1_555
H16 O7 1_555 1_555
Ni3 O11 1_555 1_555
Ni5 N1 1_555 1_555
Ni7 N4 1_555 1_555
O11 C34 1_555 1_555
C23 C24 1_555 1_555
O12 C34 1_555 1_555
C24 H17 1_555 1_555
O13 Ni3 1_555 1_555
O14 Ni2 1_555 1_555
O16 Ni1 1_555 1_555
O17 Ni3 1_555 1_555
N4 C35 1_555 1_555
N5 Ni1 1_555 1_555
N6 Ni3 1_555 1_555
C28 C23 1_555 1_555
H19 C28 1_555 1_555
O19 C30 1_555 1_555
O20 C30 1_555 1_555
N7 Ni3 1_555 1_555
C30 C27 1_555 1_555
O21 Ni3 1_555 1_555
N8 Ni2 1_555 1_555
C31 N7 1_555 1_555
H20 C31 1_555 1_555
H21 C31 1_555 1_555
O22 Ni2 1_555 1_555
C32 O13 1_555 1_555
C33 N7 1_555 1_555
H22 C33 1_555 1_555
H23 C33 1_555 1_555
C34 C33 1_555 1_555
C35 H24 1_555 1_555
C36 N4 1_555 1_555
H25 C36 1_555 1_555
C37 C35 1_555 1_555
H26 C37 1_555 1_555
C38 C36 1_555 1_555
H27 C38 1_555 1_555
C39 C37 1_555 1_555
C40 C39 1_555 1_555
C41 C40 1_555 1_555
H28 C41 1_555 1_555
C42 C40 1_555 1_555
H29 C42 1_555 1_555
C43 N8 1_555 1_555
H30 C43 1_555 1_555
C44 N8 1_555 1_555
H31 C44 1_555 1_555
H32 O19 1_555 1_555
C1 N2 1_555 1_555
C5 C6 1_555 1_555
C9 C10 1_555 1_555
C16 C17 1_555 1_555
C19 C21 1_555 1_555
C20 C22 1_555 1_555
C23 N7 1_555 1_555
O14 C32 1_555 1_555
C27 C28 1_555 1_555
C31 C32 1_555 1_555
C38 C39 1_555 1_555
C41 C43 1_555 1_555
C42 C44 1_555 1_555
C4 C3 1_555 1_555
H2 C4 1_555 1_555
O5 C7 1_555 1_555
O6 C7 1_555 1_555
C7 C3 1_555 1_555
Ni4 O5 1_555 1_555
C4_2 C3_2 1_555 1_555
H2_2 C4_2 1_555 1_555
O16 C7_2 1_555 1_555
O6_2 C7_2 1_555 1_555
C7_2 C3_2 1_555 1_555
Ni4 O1_2 1_555 1_555
O1_2 C12_2 1_555 1_555
C1_2 C2_2 1_555 1_555
Ni2_2 O4_2 1_555 1_555
O2_2 C12_2 1_555 1_555
C2_2 H1_2 1_555 1_555
O3_2 Ni4 1_555 1_555
O4_2 C10_2 1_555 1_555
N1_2 C13_2 1_555 1_555
C6_2 C1_2 1_555 1_555
H3_2 C6_2 1_555 1_555
N2_2 Ni4 1_555 1_555
O9_2 Ni4 1_555 1_555
N3_2 Ni2_2 1_555 1_555
C9_2 N2_2 1_555 1_555
H4_2 C9_2 1_555 1_555
H5_2 C9_2 1_555 1_555
C10_2 O3_2 1_555 1_555
C11_2 N2_2 1_555 1_555
H6_2 C11_2 1_555 1_555
H7_2 C11_2 1_555 1_555
C12_2 C11_2 1_555 1_555
C13_2 H8_2 1_555 1_555
C14_2 N1_2 1_555 1_555
H9_2 C14_2 1_555 1_555
C15_2 C13_2 1_555 1_555
H10_2 C15_2 1_555 1_555
C16_2 C14_2 1_555 1_555
H11_2 C16_2 1_555 1_555
C17_2 C15_2 1_555 1_555
C18_2 C17_2 1_555 1_555
C19_2 C18_2 1_555 1_555
H12_2 C19_2 1_555 1_555
C20_2 C18_2 1_555 1_555
H13_2 C20_2 1_555 1_555
C21_2 N3_2 1_555 1_555
C22_2 N3_2 1_555 1_555
H15_2 C22_2 1_555 1_555
Ni5_2 N1_2 1_555 1_555
N5_2 Ni4 1_555 1_555
O19_2 C30_2 1_555 1_555
O20_2 C30_2 1_555 1_555
O22_2 Ni2_2 1_555 1_555
H32_2 O19_2 1_555 1_555
C1_2 N2_2 1_555 1_555
C5_2 C6_2 1_555 1_555
C9_2 C10_2 1_555 1_555
C16_2 C17_2 1_555 1_555
C19_2 C21_2 1_555 1_555
C20_2 C22_2 1_555 1_555
O7_2 C8_2 1_555 1_555
O8_2 C8_2 1_555 1_555
O10_2 Ni2_3 1_555 1_555
H16_2 O7_2 1_555 1_555
Ni6 O11_2 1_555 1_555
Ni7_2 N4_2 1_555 1_555
O11_2 C34_2 1_555 1_555
C23_2 C24_2 1_555 1_555
O12_2 C34_2 1_555 1_555
C24_2 H17_2 1_555 1_555
O13_2 Ni6 1_555 1_555
O14_2 Ni2_3 1_555 1_555
N4_2 C35_2 1_555 1_555
N6_2 Ni6 1_555 1_555
C28_2 C23_2 1_555 1_555
H19_2 C28_2 1_555 1_555
N7_2 Ni6 1_555 1_555
O21_2 Ni6 1_555 1_555
N8_2 Ni2_3 1_555 1_555
C31_2 N7_2 1_555 1_555
H20_2 C31_2 1_555 1_555
H21_2 C31_2 1_555 1_555
C32_2 O13_2 1_555 1_555
C33_2 N7_2 1_555 1_555
H22_2 C33_2 1_555 1_555
H23_2 C33_2 1_555 1_555
C34_2 C33_2 1_555 1_555
C35_2 H24_2 1_555 1_555
C36_2 N4_2 1_555 1_555
H25_2 C36_2 1_555 1_555
C37_2 C35_2 1_555 1_555
H26_2 C37_2 1_555 1_555
C38_2 C36_2 1_555 1_555
H27_2 C38_2 1_555 1_555
C39_2 C37_2 1_555 1_555
C40_2 C39_2 1_555 1_555
C41_2 C40_2 1_555 1_555
H28_2 C41_2 1_555 1_555
C42_2 C40_2 1_555 1_555
H29_2 C42_2 1_555 1_555
C43_2 N8_2 1_555 1_555
C44_2 N8_2 1_555 1_555
H31_2 C44_2 1_555 1_555
C23_2 N7_2 1_555 1_555
O14_2 C32_2 1_555 1_555
C27_2 C28_2 1_555 1_555
C31_2 C32_2 1_555 1_555
C38_2 C39_2 1_555 1_555
C41_2 C43_2 1_555 1_555
C42_2 C44_2 1_555 1_555
C26_2 C25_2 1_555 1_555
H18_2 C26_2 1_555 1_555
O17 C29_2 1_555 1_555
O18_2 C29_2 1_555 1_555
C29_2 C25_2 1_555 1_555
N5 C13_3 1_555 1_555
N3_3 Ni2_4 1_555 1_555
C13_3 H8_3 1_555 1_555
C14_3 N5 1_555 1_555
H9_3 C14_3 1_555 1_555
C15_3 C13_3 1_555 1_555
H10_3 C15_3 1_555 1_555
C16_3 C14_3 1_555 1_555
H11_3 C16_3 1_555 1_555
C17_3 C15_3 1_555 1_555
C18_3 C17_3 1_555 1_555
C19_3 C18_3 1_555 1_555
H12_3 C19_3 1_555 1_555
C20_3 C18_3 1_555 1_555
H13_3 C20_3 1_555 1_555
C21_3 N3_3 1_555 1_555
C22_3 N3_3 1_555 1_555
H15_3 C22_3 1_555 1_555
Ni7_2 O15_2 1_555 1_555
O13_3 Ni7 1_555 1_555
C25_3 C24_3 1_555 1_555
C26_3 C25_3 1_555 1_555
H18_3 C26_3 1_555 1_555
O15_2 C29_3 1_555 1_555
O17_2 Ni7 1_555 1_555
C27_3 C26_3 1_555 1_555
O18_3 C29_3 1_555 1_555
H19_3 C28_3 1_555 1_555
O19_3 C30_3 1_555 1_555
C29_3 C25_3 1_555 1_555
O20_3 C30_3 1_555 1_555
C30_3 C27_3 1_555 1_555
O21_3 Ni7 1_555 1_555
H32_3 O19_3 1_555 1_555
C16_3 C17_3 1_555 1_555
C19_3 C21_3 1_555 1_555
C20_3 C22_3 1_555 1_555
C27_3 C28_3 1_555 1_555
O3_3 Ni5 1_555 1_555
C3_3 C2_3 1_555 1_555
C4_3 C3_3 1_555 1_555
H2_3 C4_3 1_555 1_555
O5_2 C7_3 1_555 1_555
C5_3 C4_3 1_555 1_555
O6_3 C7_3 1_555 1_555
H3_3 C6_3 1_555 1_555
O7_3 C8_3 1_555 1_555
C7_3 C3_3 1_555 1_555
O8_3 C8_3 1_555 1_555
C8_3 C5_3 1_555 1_555
O9_3 Ni5 1_555 1_555
H16_3 O7_3 1_555 1_555
Ni5_2 O5_2 1_555 1_555
O16_2 Ni5 1_555 1_555
N6 C35_3 1_555 1_555
N8_3 Ni2_5 1_555 1_555
C35_3 H24_3 1_555 1_555
C36_3 N6 1_555 1_555
H25_3 C36_3 1_555 1_555
C37_3 C35_3 1_555 1_555
H26_3 C37_3 1_555 1_555
C38_3 C36_3 1_555 1_555
H27_3 C38_3 1_555 1_555
C39_3 C37_3 1_555 1_555
C40_3 C39_3 1_555 1_555
C41_3 C40_3 1_555 1_555
H28_3 C41_3 1_555 1_555
C42_3 C40_3 1_555 1_555
H29_3 C42_3 1_555 1_555
C43_3 N8_3 1_555 1_555
C44_3 N8_3 1_555 1_555
H31_3 C44_3 1_555 1_555
C5_3 C6_3 1_555 1_555
C38_3 C39_3 1_555 1_555
C41_3 C43_3 1_555 1_555
C42_3 C44_3 1_555 1_555
O3_4 Ni5_2 1_555 1_555
C3_4 C2_4 1_555 1_555
C4_4 C3_4 1_555 1_555
H2_4 C4_4 1_555 1_555
O16_2 C7_4 1_555 1_555
C5_4 C4_4 1_555 1_555
O6_4 C7_4 1_555 1_555
H3_4 C6_4 1_555 1_555
C7_4 C3_4 1_555 1_555
O9_4 Ni5_2 1_555 1_555
C5_4 C6_4 1_555 1_555
O7_4 C8_4 1_555 1_555
O8_4 C8_4 1_555 1_555
H16_4 O7_4 1_555 1_555
N6_2 C35_4 1_555 1_555
N8_4 Ni2_7 1_555 1_555
C35_4 H24_4 1_555 1_555
C36_4 N6_2 1_555 1_555
H25_4 C36_4 1_555 1_555
C37_4 C35_4 1_555 1_555
H26_4 C37_4 1_555 1_555
C38_4 C36_4 1_555 1_555
H27_4 C38_4 1_555 1_555
C39_4 C37_4 1_555 1_555
C40_4 C39_4 1_555 1_555
C41_4 C40_4 1_555 1_555
H28_4 C41_4 1_555 1_555
C42_4 C40_4 1_555 1_555
H29_4 C42_4 1_555 1_555
C43_4 N8_4 1_555 1_555
C44_4 N8_4 1_555 1_555
H31_4 C44_4 1_555 1_555
C38_4 C39_4 1_555 1_555
C41_4 C43_4 1_555 1_555
C42_4 C44_4 1_555 1_555
N5_2 C13_4 1_555 1_555
N3_4 Ni2_8 1_555 1_555
C13_4 H8_4 1_555 1_555
C14_4 N5_2 1_555 1_555
H9_4 C14_4 1_555 1_555
C15_4 C13_4 1_555 1_555
H10_4 C15_4 1_555 1_555
C16_4 C14_4 1_555 1_555
H11_4 C16_4 1_555 1_555
C17_4 C15_4 1_555 1_555
C18_4 C17_4 1_555 1_555
C19_4 C18_4 1_555 1_555
H12_4 C19_4 1_555 1_555
C20_4 C18_4 1_555 1_555
H13_4 C20_4 1_555 1_555
C21_4 N3_4 1_555 1_555
C22_4 N3_4 1_555 1_555
H15_4 C22_4 1_555 1_555
O19_4 C30_4 1_555 1_555
O20_4 C30_4 1_555 1_555
H32_4 O19_4 1_555 1_555
C16_4 C17_4 1_555 1_555
C19_4 C21_4 1_555 1_555
C20_4 C22_4 1_555 1_555
O13_4 Ni7_2 1_555 1_555
C25_4 C24_4 1_555 1_555
C26_4 C25_4 1_555 1_555
H18_4 C26_4 1_555 1_555
O17_2 C29_4 1_555 1_555
C27_4 C26_4 1_555 1_555
O18_4 C29_4 1_555 1_555
H19_4 C28_4 1_555 1_555
C29_4 C25_4 1_555 1_555
O21_4 Ni7_2 1_555 1_555
C27_4 C28_4 1_555 1_555
O11_3 C34_3 1_555 1_555
C23_3 C24_5 1_555 1_555
O12_3 C34_3 1_555 1_555
C24_5 H17_3 1_555 1_555
O14_3 Ni2_10 1_555 1_555
C31_3 N7_3 1_555 1_555
H20_3 C31_3 1_555 1_555
H21_3 C31_3 1_555 1_555
O22_3 Ni2_10 1_555 1_555
C33_3 N7_3 1_555 1_555
H22_3 C33_3 1_555 1_555
H23_3 C33_3 1_555 1_555
C34_3 C33_3 1_555 1_555
C23_3 N7_3 1_555 1_555
O14_3 C32_3 1_555 1_555
C31_3 C32_3 1_555 1_555
O22_3 H34 1_555 1_555
O22_3 H39 1_555 1_555
O1_3 C12_3 1_555 1_555
C1_3 C2_5 1_555 1_555
Ni2_11 O4_3 1_555 1_555
O2_3 C12_3 1_555 1_555
C2_5 H1_3 1_555 1_555
O4_3 C10_3 1_555 1_555
C9_3 N2_3 1_555 1_555
H4_3 C9_3 1_555 1_555
H5_3 C9_3 1_555 1_555
O10_3 Ni2_11 1_555 1_555
C11_3 N2_3 1_555 1_555
H6_3 C11_3 1_555 1_555
H7_3 C11_3 1_555 1_555
C12_3 C11_3 1_555 1_555
C1_3 N2_3 1_555 1_555
C9_3 C10_3 1_555 1_555
O10_3 H39_2 1_555 1_555
O10_3 H34_2 1_555 1_555
O1_4 C12_4 1_555 1_555
C1_4 C2_6 1_555 1_555
Ni2_12 O4_4 1_555 1_555
O2_4 C12_4 1_555 1_555
C2_6 H1_4 1_555 1_555
O4_4 C10_4 1_555 1_555
C9_4 N2_4 1_555 1_555
H4_4 C9_4 1_555 1_555
H5_4 C9_4 1_555 1_555
C11_4 N2_4 1_555 1_555
H6_4 C11_4 1_555 1_555
H7_4 C11_4 1_555 1_555
C12_4 C11_4 1_555 1_555
C1_4 N2_4 1_555 1_555
C9_4 C10_4 1_555 1_555
O10_4 Ni2_13 1_555 1_555
O10_4 H39_3 1_555 1_555
O10_4 H34_3 1_555 1_555
O22_4 Ni2_14 1_555 1_555
O22_4 H34_4 1_555 1_555
O22_4 H39_4 1_555 1_555
O11_4 C34_4 1_555 1_555
C23_4 C24_6 1_555 1_555
O12_4 C34_4 1_555 1_555
C24_6 H17_4 1_555 1_555
O14_4 Ni2_15 1_555 1_555
C31_4 N7_4 1_555 1_555
H20_4 C31_4 1_555 1_555
H21_4 C31_4 1_555 1_555
C33_4 N7_4 1_555 1_555
H22_4 C33_4 1_555 1_555
H23_4 C33_4 1_555 1_555
C34_4 C33_4 1_555 1_555
C23_4 N7_4 1_555 1_555
O14_4 C32_4 1_555 1_555
C31_4 C32_4 1_555 1_555

#END
