
###############################################################################
#
# This file contains modified crystal structure data generated from the
# MOF subset of the Cambridge Structural Database (CSD) v543 
# hosted by the Cambridge Crystallographic Data Centre (CCDC).
#
# This work is licensed under the Creative Commons
# Attribution-NonCommercial-ShareAlike 4.0 International License.
# To view a copy of this license, visit
# http://creativecommons.org/licenses/by-nc-sa/4.0/
# or send a letter to
# Creative Commons, PO Box 1866, Mountain View, CA 94042, USA.
#
# CIF created using the CSD Python API on 29 September 2022
# The structure has been converted into the P1 space group
# The structure has a 3D framework
# The original CSD entry OVIZUP is in the tetragonal crystal system
# The original CSD entry OVIZUP is in a Sohncke space group
# The framework has been calculated to contain at least 10.0% void space
# The void calculation uses a probe of radius 1.32A, grid spacing 0.4
# H atom positions have been added when not included in the experimental data
#
###############################################################################

data_OVIZUP
_chemical_formula_moiety         '(C200 H200 N24 Ni16 O80)n'
_symmetry_cell_setting           triclinic
_symmetry_space_group_name_H-M   'P 1'
_symmetry_Int_Tables_number      1
_space_group_name_Hall           'P 1'
loop_
_symmetry_equiv_pos_site_id
_symmetry_equiv_pos_as_xyz
1 x,y,z
_cell_length_a                   17.6574(4)
_cell_length_b                   17.6574(4)
_cell_length_c                   18.6518(9)
_cell_angle_alpha                90
_cell_angle_beta                 90
_cell_angle_gamma                90
_cell_volume                     5815.33
loop_
_atom_site_label
_atom_site_type_symbol
_atom_site_fract_x
_atom_site_fract_y
_atom_site_fract_z
C2 C 0.3991(3) 0.0100(4) 0.7690(3)
C3 C 0.3561(3) 0.0528(4) 0.8151(3)
H3 H 0.3152 0.0309 0.8387
C4 C 0.3731(3) 0.1281(3) 0.8267(3)
H4 H 0.3434 0.1555 0.8587
C5 C 0.4608(3) 0.0467(4) 0.7365(3)
H5 H 0.4925 0.0201 0.7056
C6 C 0.4743(3) 0.1222(3) 0.7505(2)
H6 H 0.5155 0.1455 0.7287
N1 N 0.4307(2) 0.1633(2) 0.79393(18)
Ni6 Ni 0.46707(2) 0.27608(3) 0.81345(2)
Ni1 Ni 0.38221(3) 0.58006(3) 0.07370(3)
O1 O 0.3015(4) 0.3982(3) 0.39329(19)
Ni2 Ni 0.27608(3) 0.46707(2) 0.18655(2)
O2 O 0.28948(19) 0.47035(16) 0.29690(15)
O3 O 0.50657(17) 0.47657(19) 0.16875(18)
O4 O 0.38389(16) 0.50542(14) 0.16370(15)
O5 O 0.2622(2) 0.07517(16) 0.05382(15)
O6 O 0.22737(17) 0.11231(16) 0.16246(14)
C7 C 0.2998(3) 0.4062(3) 0.3281(3)
C8 C 0.3101(3) 0.3381(2) 0.2799(2)
H7 H 0.3422 0.3009 0.3032
H8 H 0.2614 0.3148 0.2702
O8 O 0.4037(2) 0.6726(2) 0.1424(2)
C9 C 0.3062(2) 0.2428(2) 0.1556(2)
H9 H 0.2754 0.2323 0.1948
O9 O 0.49799(17) 0.56343(19) 0.0612(2)
C10 C 0.3485(2) 0.30893(19) 0.15508(19)
C11 C 0.3951(2) 0.3222(2) 0.0960(2)
H10 H 0.4257 0.3651 0.0955
C12 C 0.4215(2) 0.3948(2) 0.2282(2)
H11 H 0.4593 0.3560 0.2195
H12 H 0.4238 0.4082 0.2785
C13 C 0.4402(2) 0.4643(2) 0.1832(2)
C14 C 0.3089(2) 0.1917(2) 0.0985(2)
C15 C 0.3539(2) 0.2066(2) 0.0389(2)
H13 H 0.3552 0.1731 0.0005
C16 C 0.3972(2) 0.2731(2) 0.03782(19)
C18 C 0.2626(2) 0.1212(2) 0.1048(2)
N3 N 0.34531(19) 0.36341(18) 0.21207(17)
Ni3 Ni 0.11779(3) 0.08006(3) 0.17630(3)
O11 O 0.2378(2) 0.57517(16) 0.19618(15)
O12 O 0.27263(17) 0.61231(16) 0.08754(14)
O13 O 0.34884(16) 0.49090(15) 0.01523(16)
N4 N 0.1633(2) 0.4307(2) 0.20607(18)
O14 O 0.25650(16) 0.43941(15) 0.08234(13)
H22 H 0.452594 0.664597 0.167588
H23 H 0.406351 0.719929 0.113755
H24 H 0.508183 0.508864 0.0526672
H25 H 0.516353 0.593428 0.0196586
C1 C 0.3839(3) 0.9271(6) 0.7524(3)
H1 H 0.3317 0.9219 0.7369
H2 H 0.4161 0.9118 0.7129
O7 O 0.49090(15) 0.34884(16) 0.98477(16)
N2 N 0.3861(2) 0.6476(2) 0.98105(18)
C17 C 0.4472(2) 0.2938(2) 0.9742(2)
C19 C 0.3253(3) 0.6539(4) 0.9389(3)
H14 H 0.2818 0.6270 0.9508
C20 C 0.3246(4) 0.6991(4) 0.8782(3)
H15 H 0.2811 0.7018 0.8502
C21 C 0.3877(3) 0.7403(4) 0.8587(3)
C22 C 0.4482(4) 0.7333(5) 0.9025(4)
H16 H 0.4921 0.7602 0.8922
C23 C 0.4464(3) 0.6875(4) 0.9622(3)
H17 H 0.4896 0.6845 0.9906
C24 C 0.3866(3) 0.7916(6) 0.7952(3)
H18 H 0.3387 0.7859 0.7704
H19 H 0.4265 0.7766 0.7624
C25 C 0.3974(3) 0.8743(4) 0.8148(3)
H20 H 0.3627 0.8871 0.8533
H21 H 0.4485 0.8815 0.8324
O10 O 0.43941(15) 0.25650(16) 0.91766(13)
Ni4 Ni 0.58006(3) 0.38221(3) 0.92630(3)
Ni5 Ni 0.22392(3) 0.96707(2) 0.06345(2)
O3_2 O 0.02343(19) 0.00657(17) 0.41875(18)
O1_2 O 0.1018(3) 0.8015(4) 0.64329(19)
Ni2_2 Ni 0.03293(2) 0.77608(3) 0.43655(2)
O2_2 O 0.02965(16) 0.78948(19) 0.54690(15)
O5_2 O 0.42483(16) 0.7622(2) 0.30382(15)
O6_2 O 0.38769(16) 0.72737(17) 0.41246(14)
C7_2 C 0.0938(3) 0.7998(3) 0.5781(3)
O7_2 O 0.15116(16) 0.99090(15) 0.23477(16)
C8_2 C 0.1619(2) 0.8101(3) 0.5299(2)
H7_2 H 0.1991 0.8422 0.5532
H8_2 H 0.1852 0.7614 0.5202
C9_2 C 0.2572(2) 0.8062(2) 0.4056(2)
H9_2 H 0.2677 0.7754 0.4448
C10_2 C 0.19107(19) 0.8485(2) 0.40508(19)
C11_2 C 0.1778(2) 0.8951(2) 0.3460(2)
H10_2 H 0.1349 0.9257 0.3455
C12_2 C 0.1052(2) 0.9215(2) 0.4782(2)
H11_2 H 0.1440 0.9593 0.4695
H12_2 H 0.0918 0.9238 0.5285
C13_2 C 0.0357(2) 0.9402(2) 0.4332(2)
C14_2 C 0.3083(2) 0.8089(2) 0.3485(2)
C15_2 C 0.2934(2) 0.8539(2) 0.2889(2)
H13_2 H 0.3269 0.8552 0.2505
C16_2 C 0.2269(2) 0.8972(2) 0.28782(19)
C17_2 C 0.2062(2) 0.9472(2) 0.2242(2)
C18_2 C 0.3788(2) 0.7626(2) 0.3548(2)
N3_2 N 0.13659(18) 0.84531(19) 0.46207(17)
O10_2 O 0.24350(16) 0.93941(15) 0.16766(13)
Ni3_2 Ni 0.41994(3) 0.61779(3) 0.42630(3)
Ni5_2 Ni 0.53293(2) 0.72392(3) 0.31345(2)
O13_2 O 0.00910(15) 0.84884(16) 0.26523(16)
N4_2 N 0.0693(2) 0.6633(2) 0.45607(18)
O14_2 O 0.06059(15) 0.75650(16) 0.33234(13)
Ni1_2 Ni 0.91994(3) 0.88221(3) 0.32370(3)
C1_2 C 0.5729(6) 0.8839(3) 0.0024(3)
C2_2 C 0.4900(4) 0.8991(3) 0.0190(3)
C3_2 C 0.4472(4) 0.8561(3) 0.0651(3)
H3_2 H 0.4691 0.8152 0.0887
O4_2 O 0.99458(14) 0.88389(16) 0.41370(15)
C4_2 C 0.3719(3) 0.8731(3) 0.0767(3)
H4_2 H 0.3445 0.8434 0.1087
C6_2 C 0.3778(3) 0.9743(3) 0.0005(2)
O8_2 O 0.8274(2) 0.9037(2) 0.3924(2)
N1_2 N 0.3367(2) 0.9307(2) 0.04393(18)
O9_2 O 0.93657(19) 0.99799(17) 0.3112(2)
N2_2 N 0.8524(2) 0.8861(2) 0.23105(18)
C19_2 C 0.8461(4) 0.8253(3) 0.1889(3)
H14_2 H 0.8730 0.7818 0.2008
C20_2 C 0.8009(4) 0.8246(4) 0.1282(3)
H15_2 H 0.7982 0.7811 0.1002
C21_2 C 0.7597(4) 0.8877(3) 0.1087(3)
C22_2 C 0.7667(5) 0.9482(4) 0.1525(4)
H16_2 H 0.7398 0.9921 0.1422
C23_2 C 0.8125(4) 0.9464(3) 0.2122(3)
H17_2 H 0.8155 0.9896 0.2406
C24_2 C 0.7084(6) 0.8866(3) 0.0452(3)
H18_2 H 0.7141 0.8387 0.0204
H19_2 H 0.7234 0.9265 0.0124
C25_2 C 0.6257(4) 0.8974(3) 0.0648(3)
H20_2 H 0.6129 0.8627 0.1033
H21_2 H 0.6185 0.9485 0.0824
O11_2 O 0.92483(16) 0.7378(2) 0.44618(15)
O12_2 O 0.88769(16) 0.77263(17) 0.33754(14)
H22_2 H 0.835403 0.952594 0.417588
H23_2 H 0.780071 0.906351 0.363755
Ni5_3 Ni 0.77608(3) 0.03293(2) 0.56345(2)
Ni1_3 Ni 0.61779(3) 0.41994(3) 0.57370(3)
O1_3 O 0.6985(4) 0.6018(3) 0.89329(19)
C1_3 C 0.6161(3) 0.0729(6) 0.2524(3)
H1_2 H 0.6683 0.0781 0.2369
H2_2 H 0.5839 0.0882 0.2129
Ni2_3 Ni 0.72392(3) 0.53293(2) 0.68655(2)
O2_3 O 0.71052(19) 0.52965(16) 0.79690(15)
O3_3 O 0.49343(17) 0.52343(19) 0.66875(18)
O4_3 O 0.61611(16) 0.49458(14) 0.66370(15)
O5_3 O 0.7378(2) 0.92483(16) 0.55382(15)
O6_3 O 0.77263(17) 0.88769(16) 0.66246(14)
C7_3 C 0.7002(3) 0.5938(3) 0.8281(3)
O7_3 O 0.50910(15) 0.65116(16) 0.48477(16)
C8_3 C 0.6899(3) 0.6619(2) 0.7799(2)
H7_3 H 0.6578 0.6991 0.8032
H8_3 H 0.7386 0.6852 0.7702
O8_3 O 0.5963(2) 0.3274(2) 0.6424(2)
C9_3 C 0.6938(2) 0.7572(2) 0.6556(2)
H9_3 H 0.7246 0.7677 0.6948
O9_3 O 0.50201(17) 0.43657(19) 0.5612(2)
C10_3 C 0.6515(2) 0.69107(19) 0.65508(19)
C11_3 C 0.6049(2) 0.6778(2) 0.5960(2)
H10_3 H 0.5743 0.6349 0.5955
C12_3 C 0.5785(2) 0.6052(2) 0.7282(2)
H11_3 H 0.5407 0.6440 0.7195
H12_3 H 0.5762 0.5918 0.7785
N2_3 N 0.6139(2) 0.3524(2) 0.48105(18)
C13_3 C 0.5598(2) 0.5357(2) 0.6832(2)
C14_3 C 0.6911(2) 0.8083(2) 0.5985(2)
C15_3 C 0.6461(2) 0.7934(2) 0.5389(2)
H13_3 H 0.6448 0.8269 0.5005
C16_3 C 0.6028(2) 0.7269(2) 0.53782(19)
C17_3 C 0.5528(2) 0.7062(2) 0.4742(2)
C18_3 C 0.7374(2) 0.8788(2) 0.6048(2)
C19_3 C 0.6747(3) 0.3461(4) 0.4389(3)
H14_3 H 0.7182 0.3730 0.4508
C20_3 C 0.6754(4) 0.3009(4) 0.3782(3)
H15_3 H 0.7189 0.2982 0.3502
N3_3 N 0.65469(19) 0.63659(18) 0.71207(17)
C21_3 C 0.6123(3) 0.2597(4) 0.3587(3)
C22_3 C 0.5518(4) 0.2667(5) 0.4025(4)
H16_3 H 0.5079 0.2398 0.3922
C23_3 C 0.5536(3) 0.3125(4) 0.4622(3)
H17_3 H 0.5104 0.3155 0.4906
C24_3 C 0.6134(3) 0.2084(6) 0.2952(3)
H18_3 H 0.6613 0.2141 0.2704
H19_3 H 0.5735 0.2234 0.2624
C25_3 C 0.6026(3) 0.1257(4) 0.3148(3)
H20_3 H 0.6373 0.1129 0.3533
H21_3 H 0.5515 0.1185 0.3324
O10_3 O 0.56059(15) 0.74350(16) 0.41766(13)
Ni3_3 Ni 0.88221(3) 0.91994(3) 0.67630(3)
O11_3 O 0.7622(2) 0.42483(16) 0.69618(15)
O12_3 O 0.72737(17) 0.38769(16) 0.58754(14)
O13_3 O 0.65116(16) 0.50910(15) 0.51523(16)
N4_3 N 0.8367(2) 0.5693(2) 0.70607(18)
O14_3 O 0.74350(16) 0.56059(15) 0.58234(13)
H22_3 H 0.547406 0.335403 0.667588
H23_3 H 0.593649 0.280071 0.613755
H24_2 H 0.491817 0.491136 0.552667
H25_2 H 0.483647 0.406572 0.519659
C2_3 C 0.6009(3) 0.9900(4) 0.2690(3)
C3_3 C 0.6439(3) 0.9472(4) 0.3151(3)
H3_3 H 0.6848 0.9691 0.3387
C4_3 C 0.6269(3) 0.8719(3) 0.3267(3)
H4_3 H 0.6566 0.8445 0.3587
C5_2 C 0.5392(3) 0.9533(4) 0.2365(3)
H5_2 H 0.5075 0.9799 0.2056
C6_3 C 0.5257(3) 0.8778(3) 0.2505(2)
H6_2 H 0.4845 0.8545 0.2287
N1_3 N 0.5693(2) 0.8367(2) 0.29393(18)
Ni1_4 Ni 0.08006(3) 0.11779(3) 0.82370(3)
C1_4 C 0.4271(6) 0.1161(3) 0.5024(3)
H1_3 H 0.4219 0.1683 0.4869
H2_3 H 0.4118 0.0839 0.4629
C2_4 C 0.5100(4) 0.1009(3) 0.5190(3)
C3_4 C 0.5528(4) 0.1439(3) 0.5651(3)
H3_4 H 0.5309 0.1848 0.5887
O4_4 O 0.00542(14) 0.11611(16) 0.91370(15)
C4_4 C 0.6281(3) 0.1269(3) 0.5767(3)
H4_4 H 0.6555 0.1566 0.6087
C5_3 C 0.5467(4) 0.0392(3) 0.4865(3)
H5_3 H 0.5201 0.0075 0.4556
C6_4 C 0.6222(3) 0.0257(3) 0.5005(2)
O8_4 O 0.1726(2) 0.0963(2) 0.8924(2)
N1_4 N 0.6633(2) 0.0693(2) 0.54393(18)
O9_4 O 0.06343(19) 0.00201(17) 0.8112(2)
N2_4 N 0.1476(2) 0.1139(2) 0.73105(18)
C19_4 C 0.1539(4) 0.1747(3) 0.6889(3)
H14_4 H 0.1270 0.2182 0.7008
C20_4 C 0.1991(4) 0.1754(4) 0.6282(3)
H15_4 H 0.2018 0.2189 0.6002
C21_4 C 0.2403(4) 0.1123(3) 0.6087(3)
C22_4 C 0.2333(5) 0.0518(4) 0.6525(4)
H16_4 H 0.2602 0.0079 0.6422
C23_4 C 0.1875(4) 0.0536(3) 0.7122(3)
H17_4 H 0.1845 0.0104 0.7406
C24_4 C 0.2916(6) 0.1134(3) 0.5452(3)
H18_4 H 0.2859 0.1613 0.5204
H19_4 H 0.2766 0.0735 0.5124
C25_4 C 0.3743(4) 0.1026(3) 0.5648(3)
H20_4 H 0.3871 0.1373 0.6033
H21_4 H 0.3815 0.0515 0.5824
O11_4 O 0.07517(16) 0.2622(2) 0.94618(15)
O12_4 O 0.11231(16) 0.22737(17) 0.83754(14)
H22_4 H 0.164597 0.0474059 0.917588
H23_4 H 0.219929 0.0936487 0.863755
Ni2_4 Ni 0.96707(2) 0.22392(3) 0.93655(2)
O5_4 O 0.57517(16) 0.2378(2) 0.80382(15)
O6_4 O 0.61231(16) 0.27263(17) 0.91246(14)
O7_4 O 0.84884(16) 0.00910(15) 0.73477(16)
C9_4 C 0.7428(2) 0.1938(2) 0.9056(2)
H9_4 H 0.7323 0.2246 0.9448
C10_4 C 0.80893(19) 0.1515(2) 0.90508(19)
C11_4 C 0.8222(2) 0.1049(2) 0.8460(2)
H10_4 H 0.8651 0.0743 0.8455
C12_4 C 0.8948(2) 0.0785(2) 0.9782(2)
H11_4 H 0.8560 0.0407 0.9695
C13_4 C 0.9643(2) 0.0598(2) 0.9332(2)
C14_4 C 0.6917(2) 0.1911(2) 0.8485(2)
C15_4 C 0.7066(2) 0.1461(2) 0.7889(2)
H13_4 H 0.6731 0.1448 0.7505
C16_4 C 0.7731(2) 0.1028(2) 0.78782(19)
C17_4 C 0.7938(2) 0.0528(2) 0.7242(2)
C18_4 C 0.6212(2) 0.2374(2) 0.8548(2)
N3_4 N 0.86341(18) 0.15469(19) 0.96207(17)
O10_4 O 0.75650(16) 0.06059(15) 0.66766(13)
O13_4 O 0.99090(15) 0.15116(16) 0.76523(16)
N4_4 N 0.9307(2) 0.3367(2) 0.95607(18)
O14_4 O 0.93941(15) 0.24350(16) 0.83234(13)
O3_4 O 0.97657(19) 0.99343(17) 0.91875(18)
O3_5 O 0.00657(17) 0.02343(19) 0.58125(18)
O1_4 O 0.8015(4) 0.1018(3) 0.35671(19)
O2_4 O 0.78948(19) 0.02965(16) 0.45310(15)
C7_4 C 0.7998(3) 0.0938(3) 0.4219(3)
C8_4 C 0.8101(3) 0.1619(2) 0.4701(2)
H7_4 H 0.8422 0.1991 0.4468
H8_4 H 0.7614 0.1852 0.4798
C9_5 C 0.8062(2) 0.2572(2) 0.5944(2)
H9_5 H 0.7754 0.2677 0.5552
C10_5 C 0.8485(2) 0.19107(19) 0.59492(19)
C11_5 C 0.8951(2) 0.1778(2) 0.6540(2)
H10_5 H 0.9257 0.1349 0.6545
C12_5 C 0.9215(2) 0.1052(2) 0.5218(2)
H11_5 H 0.9593 0.1440 0.5305
H12_4 H 0.9238 0.0918 0.4715
C13_5 C 0.9402(2) 0.0357(2) 0.5668(2)
C14_5 C 0.8089(2) 0.3083(2) 0.6515(2)
C15_5 C 0.8539(2) 0.2934(2) 0.7111(2)
H13_5 H 0.8552 0.3269 0.7495
C16_5 C 0.8972(2) 0.2269(2) 0.71218(19)
C17_5 C 0.9472(2) 0.2062(2) 0.7758(2)
C18_5 C 0.7626(2) 0.3788(2) 0.6452(2)
N3_5 N 0.84531(19) 0.13659(18) 0.53793(17)
C1_5 C 0.8839(3) 0.5729(6) 0.9976(3)
C2_5 C 0.8991(3) 0.4900(4) 0.9810(3)
C3_5 C 0.8561(3) 0.4472(4) 0.9349(3)
H3_5 H 0.8152 0.4691 0.9113
O4_5 O 0.88389(16) 0.99458(14) 0.58630(15)
C4_5 C 0.8731(3) 0.3719(3) 0.9233(3)
H4_5 H 0.8434 0.3445 0.8913
C6_5 C 0.9743(3) 0.3778(3) 0.9995(2)
O8_5 O 0.9037(2) 0.8274(2) 0.6076(2)
O9_5 O 0.99799(17) 0.93657(19) 0.6888(2)
N2_5 N 0.8861(2) 0.8524(2) 0.76895(18)
C19_5 C 0.8253(3) 0.8461(4) 0.8111(3)
H14_5 H 0.7818 0.8730 0.7992
C20_5 C 0.8246(4) 0.8009(4) 0.8718(3)
H15_5 H 0.7811 0.7982 0.8998
C21_5 C 0.8877(3) 0.7597(4) 0.8913(3)
C22_5 C 0.9482(4) 0.7667(5) 0.8475(4)
H16_5 H 0.9921 0.7398 0.8578
C23_5 C 0.9464(3) 0.8125(4) 0.7878(3)
H17_5 H 0.9896 0.8155 0.7594
C24_5 C 0.8866(3) 0.7084(6) 0.9548(3)
H18_5 H 0.8387 0.7141 0.9796
H19_5 H 0.9265 0.7234 0.9876
C25_5 C 0.8974(3) 0.6257(4) 0.9352(3)
H20_5 H 0.8627 0.6129 0.8967
H21_5 H 0.9485 0.6185 0.9176
H22_5 H 0.952594 0.835403 0.582412
H23_5 H 0.906351 0.780071 0.636245
C1_6 C 0.1161(3) 0.4271(6) 0.4976(3)
H1_4 H 0.1683 0.4219 0.5131
H2_4 H 0.0839 0.4118 0.5371
C2_6 C 0.1009(3) 0.5100(4) 0.4810(3)
C3_6 C 0.1439(3) 0.5528(4) 0.4349(3)
H3_6 H 0.1848 0.5309 0.4113
O4_6 O 0.11611(16) 0.00542(14) 0.08630(15)
C4_6 C 0.1269(3) 0.6281(3) 0.4233(3)
H4_6 H 0.1566 0.6555 0.3913
C5_4 C 0.0392(3) 0.5467(4) 0.5135(3)
H5_4 H 0.0075 0.5201 0.5444
C6_6 C 0.0257(3) 0.6222(3) 0.4995(2)
O8_6 O 0.0963(2) 0.1726(2) 0.1076(2)
O9_6 O 0.00201(17) 0.06343(19) 0.1888(2)
N2_6 N 0.1139(2) 0.1476(2) 0.26895(18)
C19_6 C 0.1747(3) 0.1539(4) 0.3111(3)
H14_6 H 0.2182 0.1270 0.2992
C20_6 C 0.1754(4) 0.1991(4) 0.3718(3)
H15_6 H 0.2189 0.2018 0.3998
C21_6 C 0.1123(3) 0.2403(4) 0.3913(3)
C22_6 C 0.0518(4) 0.2333(5) 0.3475(4)
H16_6 H 0.0079 0.2602 0.3578
C23_6 C 0.0536(3) 0.1875(4) 0.2878(3)
H17_6 H 0.0104 0.1845 0.2594
C24_6 C 0.1134(3) 0.2916(6) 0.4548(3)
H18_6 H 0.1613 0.2859 0.4796
H19_6 H 0.0735 0.2766 0.4876
C25_6 C 0.1026(3) 0.3743(4) 0.4352(3)
H20_6 H 0.1373 0.3871 0.3967
H21_6 H 0.0515 0.3815 0.4176
H22_6 H 0.0474059 0.164597 0.0824115
H23_6 H 0.0936487 0.219929 0.136245
C9_6 C 0.1938(2) 0.7428(2) 0.0944(2)
H9_6 H 0.2246 0.7323 0.0552
C10_6 C 0.1515(2) 0.80893(19) 0.09492(19)
C11_6 C 0.1049(2) 0.8222(2) 0.1540(2)
H10_6 H 0.0743 0.8651 0.1545
C12_6 C 0.0785(2) 0.8948(2) 0.0218(2)
H11_6 H 0.0407 0.8560 0.0305
C13_6 C 0.0598(2) 0.9643(2) 0.0668(2)
C14_6 C 0.1911(2) 0.6917(2) 0.1515(2)
C15_6 C 0.1461(2) 0.7066(2) 0.2111(2)
H13_6 H 0.1448 0.6731 0.2495
C16_6 C 0.1028(2) 0.7731(2) 0.21218(19)
C17_6 C 0.0528(2) 0.7938(2) 0.2758(2)
C18_6 C 0.2374(2) 0.6212(2) 0.1452(2)
N3_6 N 0.15469(19) 0.86341(18) 0.03793(17)
O3_6 O 0.99343(17) 0.97657(19) 0.08125(18)
C2_7 C 0.0100(4) 0.3991(3) 0.2310(3)
C3_7 C 0.0528(4) 0.3561(3) 0.1849(3)
H3_7 H 0.0309 0.3152 0.1613
C4_7 C 0.1281(3) 0.3731(3) 0.1733(3)
H4_7 H 0.1555 0.3434 0.1413
C5_5 C 0.0467(4) 0.4608(3) 0.2635(3)
H5_5 H 0.0201 0.4925 0.2944
C6_7 C 0.1222(3) 0.4743(3) 0.2495(2)
H6_3 H 0.1455 0.5155 0.2713
C1_7 C 0.9271(6) 0.3839(3) 0.2476(3)
H1_5 H 0.9219 0.3317 0.2631
H2_5 H 0.9118 0.4161 0.2871
N2_7 N 0.6476(2) 0.3861(2) 0.01895(18)
C17_7 C 0.2938(2) 0.4472(2) 0.0258(2)
C19_7 C 0.6539(4) 0.3253(3) 0.0611(3)
H14_7 H 0.6270 0.2818 0.0492
C20_7 C 0.6991(4) 0.3246(4) 0.1218(3)
H15_7 H 0.7018 0.2811 0.1498
C21_7 C 0.7403(4) 0.3877(3) 0.1413(3)
C22_7 C 0.7333(5) 0.4482(4) 0.0975(4)
H16_7 H 0.7602 0.4921 0.1078
C23_7 C 0.6875(4) 0.4464(3) 0.0378(3)
H17_7 H 0.6845 0.4896 0.0094
C24_7 C 0.7916(6) 0.3866(3) 0.2048(3)
H18_7 H 0.7859 0.3387 0.2296
H19_7 H 0.7766 0.4265 0.2376
C25_7 C 0.8743(4) 0.3974(3) 0.1852(3)
H20_7 H 0.8871 0.3627 0.1467
H21_7 H 0.8815 0.4485 0.1676
O1_5 O 0.3982(3) 0.3015(4) 0.60671(19)
O2_5 O 0.47035(16) 0.28948(19) 0.70310(15)
O3_7 O 0.47657(19) 0.50657(17) 0.83125(18)
O4_7 O 0.50542(14) 0.38389(16) 0.83630(15)
C7_5 C 0.4062(3) 0.2998(3) 0.6719(3)
C8_5 C 0.3381(2) 0.3101(3) 0.7201(2)
H7_5 H 0.3009 0.3422 0.6968
H8_5 H 0.3148 0.2614 0.7298
O8_7 O 0.6726(2) 0.4037(2) 0.8576(2)
C9_7 C 0.2428(2) 0.3062(2) 0.8444(2)
H9_7 H 0.2323 0.2754 0.8052
O9_7 O 0.56343(19) 0.49799(17) 0.9388(2)
C10_7 C 0.30893(19) 0.3485(2) 0.84492(19)
C11_7 C 0.3222(2) 0.3951(2) 0.9040(2)
H10_7 H 0.3651 0.4257 0.9045
C12_7 C 0.3948(2) 0.4215(2) 0.7718(2)
H11_7 H 0.3560 0.4593 0.7805
H12_5 H 0.4082 0.4238 0.7215
C13_7 C 0.4643(2) 0.4402(2) 0.8168(2)
C14_7 C 0.1917(2) 0.3089(2) 0.9015(2)
C15_7 C 0.2066(2) 0.3539(2) 0.9611(2)
H13_7 H 0.1731 0.3552 0.9995
C16_7 C 0.2731(2) 0.3972(2) 0.96218(19)
C18_7 C 0.1212(2) 0.2626(2) 0.8952(2)
N3_7 N 0.36341(18) 0.34531(19) 0.78793(17)
H22_7 H 0.664597 0.452594 0.832412
H23_7 H 0.719929 0.406351 0.886245
H24_3 H 0.508864 0.508183 0.947333
H25_3 H 0.593428 0.516353 0.980341
O1_6 O 0.6018(3) 0.6985(4) 0.10671(19)
C1_8 C 0.0729(6) 0.6161(3) 0.7476(3)
H1_6 H 0.0781 0.6683 0.7631
H2_6 H 0.0882 0.5839 0.7871
O2_6 O 0.52965(16) 0.71052(19) 0.20310(15)
O3_8 O 0.52343(19) 0.49343(17) 0.33125(18)
O4_8 O 0.49458(14) 0.61611(16) 0.33630(15)
C7_6 C 0.5938(3) 0.7002(3) 0.1719(3)
C8_6 C 0.6619(2) 0.6899(3) 0.2201(2)
H7_6 H 0.6991 0.6578 0.1968
H8_6 H 0.6852 0.7386 0.2298
O8_8 O 0.3274(2) 0.5963(2) 0.3576(2)
C9_8 C 0.7572(2) 0.6938(2) 0.3444(2)
H9_8 H 0.7677 0.7246 0.3052
O9_8 O 0.43657(19) 0.50201(17) 0.4388(2)
C10_8 C 0.69107(19) 0.6515(2) 0.34492(19)
C11_8 C 0.6778(2) 0.6049(2) 0.4040(2)
H10_8 H 0.6349 0.5743 0.4045
C12_8 C 0.6052(2) 0.5785(2) 0.2718(2)
H11_8 H 0.6440 0.5407 0.2805
H12_6 H 0.5918 0.5762 0.2215
N2_8 N 0.3524(2) 0.6139(2) 0.51895(18)
C13_8 C 0.5357(2) 0.5598(2) 0.3168(2)
C14_8 C 0.8083(2) 0.6911(2) 0.4015(2)
C15_8 C 0.7934(2) 0.6461(2) 0.4611(2)
H13_8 H 0.8269 0.6448 0.4995
C16_8 C 0.7269(2) 0.6028(2) 0.46218(19)
C17_8 C 0.7062(2) 0.5528(2) 0.5258(2)
C18_8 C 0.8788(2) 0.7374(2) 0.3952(2)
C19_8 C 0.3461(4) 0.6747(3) 0.5611(3)
H14_8 H 0.3730 0.7182 0.5492
C20_8 C 0.3009(4) 0.6754(4) 0.6218(3)
H15_8 H 0.2982 0.7189 0.6498
N3_8 N 0.63659(18) 0.65469(19) 0.28793(17)
C21_8 C 0.2597(4) 0.6123(3) 0.6413(3)
C22_8 C 0.2667(5) 0.5518(4) 0.5975(4)
H16_8 H 0.2398 0.5079 0.6078
C23_8 C 0.3125(4) 0.5536(3) 0.5378(3)
H17_8 H 0.3155 0.5104 0.5094
C24_8 C 0.2084(6) 0.6134(3) 0.7048(3)
H18_8 H 0.2141 0.6613 0.7296
H19_8 H 0.2234 0.5735 0.7376
C25_8 C 0.1257(4) 0.6026(3) 0.6852(3)
H20_8 H 0.1129 0.6373 0.6467
H21_8 H 0.1185 0.5515 0.6676
H22_8 H 0.335403 0.547406 0.332412
H23_8 H 0.280071 0.593649 0.386245
H24_4 H 0.491136 0.491817 0.447333
H25_4 H 0.406572 0.483647 0.480341
C2_8 C 0.9900(4) 0.6009(3) 0.7310(3)
C3_8 C 0.9472(4) 0.6439(3) 0.6849(3)
H3_8 H 0.9691 0.6848 0.6613
C4_8 C 0.8719(3) 0.6269(3) 0.6733(3)
H4_8 H 0.8445 0.6566 0.6413
C5_6 C 0.9533(4) 0.5392(3) 0.7635(3)
H5_6 H 0.9799 0.5075 0.7944
C6_8 C 0.8778(3) 0.5257(3) 0.7495(2)
H6_4 H 0.8545 0.4845 0.7713
H24_5 H 0.991136 0.00818285 0.302667
H25_5 H 0.906572 0.0163528 0.269659
H6_5 H 0.3545 0.0155 0.9787
H1_7 H 0.5781 0.8317 0.9869
H2_7 H 0.5882 0.9161 0.9629
C5_7 C 0.4533(4) 0.9608(3) 0.9865(3)
H5_7 H 0.4799 0.9925 0.9556
H6_6 H 0.6455 0.9845 0.4787
H24_6 H 0.00886379 0.991817 0.802667
H25_6 H 0.0934281 0.983647 0.769659
O1_7 O 0.8982(3) 0.1985(4) 0.14329(19)
O2_7 O 0.97035(16) 0.21052(19) 0.04690(15)
C7_7 C 0.9062(3) 0.2002(3) 0.0781(3)
C8_7 C 0.8381(2) 0.1899(3) 0.0299(2)
H7_7 H 0.8009 0.1578 0.0532
H8_7 H 0.8148 0.2386 0.0202
H12_7 H 0.9082 0.0762 0.0285
H6_7 H 0.0155 0.3545 0.0213
H24_7 H 0.00818285 0.991136 0.697333
H25_7 H 0.0163528 0.906572 0.730341
H1_8 H 0.8317 0.5781 0.0131
H2_8 H 0.9161 0.5882 0.0371
C5_8 C 0.9608(3) 0.4533(4) 0.0135(3)
H5_8 H 0.9925 0.4799 0.0444
O1_8 O 0.1985(4) 0.8982(3) 0.85671(19)
O2_8 O 0.21052(19) 0.97035(16) 0.95310(15)
C7_8 C 0.2002(3) 0.9062(3) 0.9219(3)
C8_8 C 0.1899(3) 0.8381(2) 0.9701(2)
H7_8 H 0.1578 0.8009 0.9468
H8_8 H 0.2386 0.8148 0.9798
H12_8 H 0.0762 0.9082 0.9715
H6_8 H 0.9845 0.6455 0.5213
H24_8 H 0.991817 0.00886379 0.197333
H25_8 H 0.983647 0.0934281 0.230341
loop_
_geom_bond_atom_site_label_1
_geom_bond_atom_site_label_2
_geom_bond_site_symmetry_1
_geom_bond_site_symmetry_2
C3 C2 1_555 1_555
H3 C3 1_555 1_555
C4 C3 1_555 1_555
H4 C4 1_555 1_555
C5 C2 1_555 1_555
H5 C5 1_555 1_555
C6 C5 1_555 1_555
H6 C6 1_555 1_555
N1 C4 1_555 1_555
Ni6 N1 1_555 1_555
C6 N1 1_555 1_555
Ni1 O4 1_555 1_555
O1 C7 1_555 1_555
Ni2 O2 1_555 1_555
O2 C7 1_555 1_555
O3 C13 1_555 1_555
O4 Ni2 1_555 1_555
O5 C18 1_555 1_555
O6 C18 1_555 1_555
C7 C8 1_555 1_555
C8 H7 1_555 1_555
H8 C8 1_555 1_555
O8 Ni1 1_555 1_555
C9 H9 1_555 1_555
O9 Ni1 1_555 1_555
C10 C9 1_555 1_555
C11 C10 1_555 1_555
H10 C11 1_555 1_555
C12 H11 1_555 1_555
H12 C12 1_555 1_555
C13 O4 1_555 1_555
C14 C9 1_555 1_555
C15 C14 1_555 1_555
H13 C15 1_555 1_555
C16 C11 1_555 1_555
C18 C14 1_555 1_555
N3 Ni2 1_555 1_555
Ni3 O6 1_555 1_555
O11 Ni2 1_555 1_555
O12 Ni1 1_555 1_555
O13 Ni1 1_555 1_555
N4 Ni2 1_555 1_555
O14 Ni2 1_555 1_555
C8 N3 1_555 1_555
C10 N3 1_555 1_555
C12 C13 1_555 1_555
C12 N3 1_555 1_555
C15 C16 1_555 1_555
O8 H22 1_555 1_555
O8 H23 1_555 1_555
O9 H24 1_555 1_555
O9 H25 1_555 1_555
C1 H1 1_555 1_555
H2 C1 1_555 1_555
O7 C17 1_555 1_555
C19 N2 1_555 1_555
H14 C19 1_555 1_555
C20 C19 1_555 1_555
H15 C20 1_555 1_555
C21 C20 1_555 1_555
C22 C21 1_555 1_555
H16 C22 1_555 1_555
C23 N2 1_555 1_555
H17 C23 1_555 1_555
C24 C21 1_555 1_555
H18 C24 1_555 1_555
H19 C24 1_555 1_555
C25 C1 1_555 1_555
H20 C25 1_555 1_555
H21 C25 1_555 1_555
O10 C17 1_555 1_555
Ni4 O7 1_555 1_555
Ni6 O10 1_555 1_555
C22 C23 1_555 1_555
C24 C25 1_555 1_555
O1_2 C7_2 1_555 1_555
Ni2_2 O2_2 1_555 1_555
O2_2 C7_2 1_555 1_555
O5_2 C18_2 1_555 1_555
O6_2 C18_2 1_555 1_555
C7_2 C8_2 1_555 1_555
O7_2 C17_2 1_555 1_555
C8_2 H7_2 1_555 1_555
H8_2 C8_2 1_555 1_555
C9_2 H9_2 1_555 1_555
C10_2 C9_2 1_555 1_555
C11_2 C10_2 1_555 1_555
H10_2 C11_2 1_555 1_555
C12_2 H11_2 1_555 1_555
H12_2 C12_2 1_555 1_555
C14_2 C9_2 1_555 1_555
C15_2 C14_2 1_555 1_555
H13_2 C15_2 1_555 1_555
C16_2 C11_2 1_555 1_555
C17_2 C16_2 1_555 1_555
C18_2 C14_2 1_555 1_555
N3_2 Ni2_2 1_555 1_555
O10_2 C17_2 1_555 1_555
Ni3_2 O6_2 1_555 1_555
Ni5_2 O5_2 1_555 1_555
Ni5 O10_2 1_555 1_555
N4_2 Ni2_2 1_555 1_555
O14_2 Ni2_2 1_555 1_555
C8_2 N3_2 1_555 1_555
C10_2 N3_2 1_555 1_555
C12_2 C13_2 1_555 1_555
C12_2 N3_2 1_555 1_555
C15_2 C16_2 1_555 1_555
Ni1_2 O4_2 1_555 1_555
C2_2 C1_2 1_555 1_555
C3_2 C2_2 1_555 1_555
H3_2 C3_2 1_555 1_555
C4_2 C3_2 1_555 1_555
H4_2 C4_2 1_555 1_555
O8_2 Ni1_2 1_555 1_555
N1_2 C4_2 1_555 1_555
O9_2 Ni1_2 1_555 1_555
N2_2 Ni1_2 1_555 1_555
C19_2 N2_2 1_555 1_555
H14_2 C19_2 1_555 1_555
C20_2 C19_2 1_555 1_555
H15_2 C20_2 1_555 1_555
C21_2 C20_2 1_555 1_555
C22_2 C21_2 1_555 1_555
H16_2 C22_2 1_555 1_555
C23_2 N2_2 1_555 1_555
H17_2 C23_2 1_555 1_555
C24_2 C21_2 1_555 1_555
H18_2 C24_2 1_555 1_555
H19_2 C24_2 1_555 1_555
C25_2 C1_2 1_555 1_555
H20_2 C25_2 1_555 1_555
H21_2 C25_2 1_555 1_555
Ni5 N1_2 1_555 1_555
O12_2 Ni1_2 1_555 1_555
C6_2 N1_2 1_555 1_555
C22_2 C23_2 1_555 1_555
C24_2 C25_2 1_555 1_555
O8_2 H22_2 1_555 1_555
O8_2 H23_2 1_555 1_555
Ni1_3 O4_3 1_555 1_555
O1_3 C7_3 1_555 1_555
C1_3 H1_2 1_555 1_555
H2_2 C1_3 1_555 1_555
Ni2_3 O2_3 1_555 1_555
O2_3 C7_3 1_555 1_555
O3_3 C13_3 1_555 1_555
O4_3 Ni2_3 1_555 1_555
O5_3 C18_3 1_555 1_555
O6_3 C18_3 1_555 1_555
C7_3 C8_3 1_555 1_555
O7_3 C17_3 1_555 1_555
C8_3 H7_3 1_555 1_555
H8_3 C8_3 1_555 1_555
O8_3 Ni1_3 1_555 1_555
C9_3 H9_3 1_555 1_555
O9_3 Ni1_3 1_555 1_555
C10_3 C9_3 1_555 1_555
C11_3 C10_3 1_555 1_555
H10_3 C11_3 1_555 1_555
C12_3 H11_3 1_555 1_555
H12_3 C12_3 1_555 1_555
N2_3 Ni1_3 1_555 1_555
C13_3 O4_3 1_555 1_555
C14_3 C9_3 1_555 1_555
C15_3 C14_3 1_555 1_555
H13_3 C15_3 1_555 1_555
C16_3 C11_3 1_555 1_555
C17_3 C16_3 1_555 1_555
C18_3 C14_3 1_555 1_555
C19_3 N2_3 1_555 1_555
H14_3 C19_3 1_555 1_555
C20_3 C19_3 1_555 1_555
H15_3 C20_3 1_555 1_555
N3_3 Ni2_3 1_555 1_555
C21_3 C20_3 1_555 1_555
C22_3 C21_3 1_555 1_555
H16_3 C22_3 1_555 1_555
C23_3 N2_3 1_555 1_555
H17_3 C23_3 1_555 1_555
C24_3 C21_3 1_555 1_555
H18_3 C24_3 1_555 1_555
H19_3 C24_3 1_555 1_555
C25_3 C1_3 1_555 1_555
H20_3 C25_3 1_555 1_555
H21_3 C25_3 1_555 1_555
O10_3 C17_3 1_555 1_555
Ni3_3 O6_3 1_555 1_555
Ni3_2 O7_3 1_555 1_555
Ni5_2 O10_3 1_555 1_555
O11_3 Ni2_3 1_555 1_555
O12_3 Ni1_3 1_555 1_555
O13_3 Ni1_3 1_555 1_555
N4_3 Ni2_3 1_555 1_555
O14_3 Ni2_3 1_555 1_555
C8_3 N3_3 1_555 1_555
C10_3 N3_3 1_555 1_555
C12_3 C13_3 1_555 1_555
C12_3 N3_3 1_555 1_555
C15_3 C16_3 1_555 1_555
C22_3 C23_3 1_555 1_555
C24_3 C25_3 1_555 1_555
O8_3 H22_3 1_555 1_555
O8_3 H23_3 1_555 1_555
O9_3 H24_2 1_555 1_555
O9_3 H25_2 1_555 1_555
C3_3 C2_3 1_555 1_555
H3_3 C3_3 1_555 1_555
C4_3 C3_3 1_555 1_555
H4_3 C4_3 1_555 1_555
C5_2 C2_3 1_555 1_555
H5_2 C5_2 1_555 1_555
C6_3 C5_2 1_555 1_555
H6_2 C6_3 1_555 1_555
N1_3 C4_3 1_555 1_555
Ni5_2 N1_3 1_555 1_555
C6_3 N1_3 1_555 1_555
Ni1_4 O4_4 1_555 1_555
C1_4 H1_3 1_555 1_555
H2_3 C1_4 1_555 1_555
C2_4 C1_4 1_555 1_555
C3_4 C2_4 1_555 1_555
H3_4 C3_4 1_555 1_555
C4_4 C3_4 1_555 1_555
H4_4 C4_4 1_555 1_555
C5_3 C2_4 1_555 1_555
H5_3 C5_3 1_555 1_555
C6_4 C5_3 1_555 1_555
O8_4 Ni1_4 1_555 1_555
N1_4 C4_4 1_555 1_555
O9_4 Ni1_4 1_555 1_555
N2_4 Ni1_4 1_555 1_555
C19_4 N2_4 1_555 1_555
H14_4 C19_4 1_555 1_555
C20_4 C19_4 1_555 1_555
H15_4 C20_4 1_555 1_555
C21_4 C20_4 1_555 1_555
C22_4 C21_4 1_555 1_555
H16_4 C22_4 1_555 1_555
C23_4 N2_4 1_555 1_555
H17_4 C23_4 1_555 1_555
C24_4 C21_4 1_555 1_555
H18_4 C24_4 1_555 1_555
H19_4 C24_4 1_555 1_555
C25_4 C1_4 1_555 1_555
H20_4 C25_4 1_555 1_555
H21_4 C25_4 1_555 1_555
Ni5_3 N1_4 1_555 1_555
O12_4 Ni1_4 1_555 1_555
C6_4 N1_4 1_555 1_555
C22_4 C23_4 1_555 1_555
C24_4 C25_4 1_555 1_555
O8_4 H22_4 1_555 1_555
O8_4 H23_4 1_555 1_555
O5_4 C18_4 1_555 1_555
O6_4 C18_4 1_555 1_555
O7_4 C17_4 1_555 1_555
C9_4 H9_4 1_555 1_555
C10_4 C9_4 1_555 1_555
C11_4 C10_4 1_555 1_555
H10_4 C11_4 1_555 1_555
C12_4 H11_4 1_555 1_555
C14_4 C9_4 1_555 1_555
C15_4 C14_4 1_555 1_555
H13_4 C15_4 1_555 1_555
C16_4 C11_4 1_555 1_555
C17_4 C16_4 1_555 1_555
C18_4 C14_4 1_555 1_555
N3_4 Ni2_4 1_555 1_555
O10_4 C17_4 1_555 1_555
Ni4 O6_4 1_555 1_555
Ni6 O5_4 1_555 1_555
Ni5_3 O10_4 1_555 1_555
N4_4 Ni2_4 1_555 1_555
O14_4 Ni2_4 1_555 1_555
C10_4 N3_4 1_555 1_555
C12_4 C13_4 1_555 1_555
C12_4 N3_4 1_555 1_555
C15_4 C16_4 1_555 1_555
O1_4 C7_4 1_555 1_555
Ni5_3 O2_4 1_555 1_555
O2_4 C7_4 1_555 1_555
O11_3 C18_5 1_555 1_555
O12_3 C18_5 1_555 1_555
C7_4 C8_4 1_555 1_555
O13_4 C17_5 1_555 1_555
C8_4 H7_4 1_555 1_555
H8_4 C8_4 1_555 1_555
C9_5 H9_5 1_555 1_555
C10_5 C9_5 1_555 1_555
C11_5 C10_5 1_555 1_555
H10_5 C11_5 1_555 1_555
C12_5 H11_5 1_555 1_555
H12_4 C12_5 1_555 1_555
C14_5 C9_5 1_555 1_555
C15_5 C14_5 1_555 1_555
H13_5 C15_5 1_555 1_555
C16_5 C11_5 1_555 1_555
C17_5 C16_5 1_555 1_555
C18_5 C14_5 1_555 1_555
N3_5 Ni5_3 1_555 1_555
O14_4 C17_5 1_555 1_555
C8_4 N3_5 1_555 1_555
C10_5 N3_5 1_555 1_555
C12_5 C13_5 1_555 1_555
C12_5 N3_5 1_555 1_555
C15_5 C16_5 1_555 1_555
Ni3_3 O4_5 1_555 1_555
C2_5 C1_5 1_555 1_555
C3_5 C2_5 1_555 1_555
H3_5 C3_5 1_555 1_555
C4_5 C3_5 1_555 1_555
H4_5 C4_5 1_555 1_555
O8_5 Ni3_3 1_555 1_555
N4_4 C4_5 1_555 1_555
O9_5 Ni3_3 1_555 1_555
N2_5 Ni3_3 1_555 1_555
C19_5 N2_5 1_555 1_555
H14_5 C19_5 1_555 1_555
C20_5 C19_5 1_555 1_555
H15_5 C20_5 1_555 1_555
C21_5 C20_5 1_555 1_555
C22_5 C21_5 1_555 1_555
H16_5 C22_5 1_555 1_555
C23_5 N2_5 1_555 1_555
H17_5 C23_5 1_555 1_555
C24_5 C21_5 1_555 1_555
H18_5 C24_5 1_555 1_555
H19_5 C24_5 1_555 1_555
C25_5 C1_5 1_555 1_555
H20_5 C25_5 1_555 1_555
H21_5 C25_5 1_555 1_555
C6_5 N4_4 1_555 1_555
C22_5 C23_5 1_555 1_555
C24_5 C25_5 1_555 1_555
O8_5 H22_5 1_555 1_555
O8_5 H23_5 1_555 1_555
Ni3 O4_6 1_555 1_555
C1_6 H1_4 1_555 1_555
H2_4 C1_6 1_555 1_555
C2_6 C1_6 1_555 1_555
C3_6 C2_6 1_555 1_555
H3_6 C3_6 1_555 1_555
C4_6 C3_6 1_555 1_555
H4_6 C4_6 1_555 1_555
C5_4 C2_6 1_555 1_555
H5_4 C5_4 1_555 1_555
C6_6 C5_4 1_555 1_555
O8_6 Ni3 1_555 1_555
N4_2 C4_6 1_555 1_555
O9_6 Ni3 1_555 1_555
N2_6 Ni3 1_555 1_555
C19_6 N2_6 1_555 1_555
H14_6 C19_6 1_555 1_555
C20_6 C19_6 1_555 1_555
H15_6 C20_6 1_555 1_555
C21_6 C20_6 1_555 1_555
C22_6 C21_6 1_555 1_555
H16_6 C22_6 1_555 1_555
C23_6 N2_6 1_555 1_555
H17_6 C23_6 1_555 1_555
C24_6 C21_6 1_555 1_555
H18_6 C24_6 1_555 1_555
H19_6 C24_6 1_555 1_555
C25_6 C1_6 1_555 1_555
H20_6 C25_6 1_555 1_555
H21_6 C25_6 1_555 1_555
C6_6 N4_2 1_555 1_555
C22_6 C23_6 1_555 1_555
C24_6 C25_6 1_555 1_555
O8_6 H22_6 1_555 1_555
O8_6 H23_6 1_555 1_555
O11 C18_6 1_555 1_555
O12 C18_6 1_555 1_555
O13_2 C17_6 1_555 1_555
C9_6 H9_6 1_555 1_555
C10_6 C9_6 1_555 1_555
C11_6 C10_6 1_555 1_555
H10_6 C11_6 1_555 1_555
C12_6 H11_6 1_555 1_555
C14_6 C9_6 1_555 1_555
C15_6 C14_6 1_555 1_555
H13_6 C15_6 1_555 1_555
C16_6 C11_6 1_555 1_555
C17_6 C16_6 1_555 1_555
C18_6 C14_6 1_555 1_555
N3_6 Ni5 1_555 1_555
O14_2 C17_6 1_555 1_555
C10_6 N3_6 1_555 1_555
C12_6 C13_6 1_555 1_555
C12_6 N3_6 1_555 1_555
C15_6 C16_6 1_555 1_555
C3_7 C2_7 1_555 1_555
H3_7 C3_7 1_555 1_555
C4_7 C3_7 1_555 1_555
H4_7 C4_7 1_555 1_555
C5_5 C2_7 1_555 1_555
H5_5 C5_5 1_555 1_555
C6_7 C5_5 1_555 1_555
H6_3 C6_7 1_555 1_555
N4 C4_7 1_555 1_555
C6_7 N4 1_555 1_555
C1_7 H1_5 1_555 1_555
H2_5 C1_7 1_555 1_555
O13 C17_7 1_555 1_555
C19_7 N2_7 1_555 1_555
H14_7 C19_7 1_555 1_555
C20_7 C19_7 1_555 1_555
H15_7 C20_7 1_555 1_555
C21_7 C20_7 1_555 1_555
C22_7 C21_7 1_555 1_555
H16_7 C22_7 1_555 1_555
C23_7 N2_7 1_555 1_555
H17_7 C23_7 1_555 1_555
C24_7 C21_7 1_555 1_555
H18_7 C24_7 1_555 1_555
H19_7 C24_7 1_555 1_555
C25_7 C1_7 1_555 1_555
H20_7 C25_7 1_555 1_555
H21_7 C25_7 1_555 1_555
O14 C17_7 1_555 1_555
C22_7 C23_7 1_555 1_555
C24_7 C25_7 1_555 1_555
Ni4 O4_7 1_555 1_555
O1_5 C7_5 1_555 1_555
Ni6 O2_5 1_555 1_555
O2_5 C7_5 1_555 1_555
O3_7 C13_7 1_555 1_555
O4_7 Ni6 1_555 1_555
O11_4 C18_7 1_555 1_555
O12_4 C18_7 1_555 1_555
C7_5 C8_5 1_555 1_555
C8_5 H7_5 1_555 1_555
H8_5 C8_5 1_555 1_555
O8_7 Ni4 1_555 1_555
C9_7 H9_7 1_555 1_555
O9_7 Ni4 1_555 1_555
C10_7 C9_7 1_555 1_555
C11_7 C10_7 1_555 1_555
H10_7 C11_7 1_555 1_555
C12_7 H11_7 1_555 1_555
H12_5 C12_7 1_555 1_555
C13_7 O4_7 1_555 1_555
C14_7 C9_7 1_555 1_555
C15_7 C14_7 1_555 1_555
H13_7 C15_7 1_555 1_555
C16_7 C11_7 1_555 1_555
C18_7 C14_7 1_555 1_555
N3_7 Ni6 1_555 1_555
C8_5 N3_7 1_555 1_555
C10_7 N3_7 1_555 1_555
C12_7 C13_7 1_555 1_555
C12_7 N3_7 1_555 1_555
C15_7 C16_7 1_555 1_555
O8_7 H22_7 1_555 1_555
O8_7 H23_7 1_555 1_555
O9_7 H24_3 1_555 1_555
O9_7 H25_3 1_555 1_555
Ni3_2 O4_8 1_555 1_555
O1_6 C7_6 1_555 1_555
C1_8 H1_6 1_555 1_555
H2_6 C1_8 1_555 1_555
Ni5_2 O2_6 1_555 1_555
O2_6 C7_6 1_555 1_555
O3_8 C13_8 1_555 1_555
O4_8 Ni5_2 1_555 1_555
O11_2 C18_8 1_555 1_555
O12_2 C18_8 1_555 1_555
C7_6 C8_6 1_555 1_555
O13_3 C17_8 1_555 1_555
C8_6 H7_6 1_555 1_555
H8_6 C8_6 1_555 1_555
O8_8 Ni3_2 1_555 1_555
C9_8 H9_8 1_555 1_555
O9_8 Ni3_2 1_555 1_555
C10_8 C9_8 1_555 1_555
C11_8 C10_8 1_555 1_555
H10_8 C11_8 1_555 1_555
C12_8 H11_8 1_555 1_555
H12_6 C12_8 1_555 1_555
N2_8 Ni3_2 1_555 1_555
C13_8 O4_8 1_555 1_555
C14_8 C9_8 1_555 1_555
C15_8 C14_8 1_555 1_555
H13_8 C15_8 1_555 1_555
C16_8 C11_8 1_555 1_555
C17_8 C16_8 1_555 1_555
C18_8 C14_8 1_555 1_555
C19_8 N2_8 1_555 1_555
H14_8 C19_8 1_555 1_555
C20_8 C19_8 1_555 1_555
H15_8 C20_8 1_555 1_555
N3_8 Ni5_2 1_555 1_555
C21_8 C20_8 1_555 1_555
C22_8 C21_8 1_555 1_555
H16_8 C22_8 1_555 1_555
C23_8 N2_8 1_555 1_555
H17_8 C23_8 1_555 1_555
C24_8 C21_8 1_555 1_555
H18_8 C24_8 1_555 1_555
H19_8 C24_8 1_555 1_555
C25_8 C1_8 1_555 1_555
H20_8 C25_8 1_555 1_555
H21_8 C25_8 1_555 1_555
O14_3 C17_8 1_555 1_555
C8_6 N3_8 1_555 1_555
C10_8 N3_8 1_555 1_555
C12_8 C13_8 1_555 1_555
C12_8 N3_8 1_555 1_555
C15_8 C16_8 1_555 1_555
C22_8 C23_8 1_555 1_555
C24_8 C25_8 1_555 1_555
O8_8 H22_8 1_555 1_555
O8_8 H23_8 1_555 1_555
O9_8 H24_4 1_555 1_555
O9_8 H25_4 1_555 1_555
C3_8 C2_8 1_555 1_555
H3_8 C3_8 1_555 1_555
C4_8 C3_8 1_555 1_555
H4_8 C4_8 1_555 1_555
C5_6 C2_8 1_555 1_555
H5_6 C5_6 1_555 1_555
C6_8 C5_6 1_555 1_555
H6_4 C6_8 1_555 1_555
N4_3 C4_8 1_555 1_555
C6_8 N4_3 1_555 1_555
H5_7 C5_7 1_555 1_555
O1_7 C7_7 1_555 1_555
O2_7 C7_7 1_555 1_555
C7_7 C8_7 1_555 1_555
C8_7 H7_7 1_555 1_555
H8_7 C8_7 1_555 1_555
H5_8 C5_8 1_555 1_555
O1_8 C7_8 1_555 1_555
O2_8 C7_8 1_555 1_555
C7_8 C8_8 1_555 1_555
C8_8 H7_8 1_555 1_555
H8_8 C8_8 1_555 1_555

#END
