
###############################################################################
#
# This file contains modified crystal structure data generated from the
# MOF subset of the Cambridge Structural Database (CSD) v543 
# hosted by the Cambridge Crystallographic Data Centre (CCDC).
#
# This work is licensed under the Creative Commons
# Attribution-NonCommercial-ShareAlike 4.0 International License.
# To view a copy of this license, visit
# http://creativecommons.org/licenses/by-nc-sa/4.0/
# or send a letter to
# Creative Commons, PO Box 1866, Mountain View, CA 94042, USA.
#
# CIF created using the CSD Python API on 29 September 2022
# The structure has been converted into the P1 space group
# The structure has a 3D framework
# The original CSD entry OVUQUU is in the monoclinic crystal system
# The framework has been calculated to contain at least 10.0% void space
# The void calculation uses a probe of radius 1.32A, grid spacing 0.4
# The framework is charged, counterions have been retained in the structure
# H atom positions have been added when not included in the experimental data
# Generated hydrogen atom positions removed from atoms on special positions
#
###############################################################################

data_OVUQUU
_chemical_formula_moiety         '(C120 H208 K8 Mo48 N48 O254 P32 Zn22 8-)n'
_symmetry_cell_setting           triclinic
_symmetry_space_group_name_H-M   'P 1'
_symmetry_Int_Tables_number      1
_space_group_name_Hall           'P 1'
loop_
_symmetry_equiv_pos_site_id
_symmetry_equiv_pos_as_xyz
1 x,y,z
_cell_length_a                   30.91(4)
_cell_length_b                   14.749(16)
_cell_length_c                   25.10(3)
_cell_angle_alpha                90
_cell_angle_beta                 124.63(3)
_cell_angle_gamma                90
_cell_volume                     9415.65
loop_
_atom_site_label
_atom_site_type_symbol
_atom_site_fract_x
_atom_site_fract_y
_atom_site_fract_z
K1 K 0.03107(7) 0.24188(12) 0.20250(9)
K1_2 K 0.96893(7) 0.24188(12) 0.29750(9)
K1_3 K 0.53107(7) 0.74188(12) 0.20250(9)
K1_4 K 0.46893(7) 0.74188(12) 0.29750(9)
K1_5 K 0.96893(7) 0.75812(12) 0.79750(9)
K1_6 K 0.03107(7) 0.75812(12) 0.70250(9)
K1_7 K 0.46893(7) 0.25812(12) 0.79750(9)
K1_8 K 0.53107(7) 0.25812(12) 0.70250(9)
Mo1 Mo 0.17796(2) 0.03134(3) 0.48635(2)
Mo2 Mo 0.19091(2) 0.04349(3) 0.39281(2)
Mo3 Mo 0.13429(2) 0.38097(3) 0.48230(2)
Mo4 Mo 0.14562(2) 0.22500(3) 0.53624(2)
Mo5 Mo 0.14636(2) 0.39309(3) 0.35236(2)
Mo6 Mo 0.17285(2) 0.25196(3) 0.31497(2)
Zn2 Zn 0.250000 0.250000 0.500000
Zn3 Zn 0.000000 0.07339(7) 0.250000
Zn4 Zn 0.000000 0.63268(11) 0.250000
P1 P 0.07599(6) 0.03336(10) 0.49821(7)
P2 P 0.10068(6) 0.19942(10) 0.37541(7)
P3 P 0.03896(7) 0.46762(12) 0.34240(8)
P4 P 0.10484(6) 0.06917(10) 0.23475(7)
O2 O 0.0117(2) 0.5590(4) 0.3213(3)
O3 O 0.1703(2) 0.4789(3) 0.3316(3)
O4 O 0.11068(15) 0.3027(2) 0.38999(18)
O5 O 0.19209(15) 0.2913(3) 0.51929(19)
O6 O 0.19789(16) 0.1162(3) 0.56349(19)
O7 O 0.13072(17) 0.1614(3) 0.24011(19)
O8 O 0.22238(15) 0.1131(3) 0.47431(19)
O9 O 0.20642(15) 0.3088(3) 0.40124(18)
O10 O 0.08413(16) 0.3001(3) 0.48085(19)
O11 O 0.14477(17) 0.0132(3) 0.29586(19)
O12 O 0.17054(16) 0.4461(3) 0.4434(2)
O13 O 0.10671(16) 0.3174(3) 0.27480(19)
O14 O 0.06978(16) 0.4571(3) 0.4156(2)
O15 O 0.02363(16) 0.0409(3) 0.43089(19)
O16 O 0.07381(17) 0.4566(3) 0.3166(2)
O17 O 0.20575(18) 0.3000(3) 0.2866(2)
O18 O 0.04402(15) 0.1811(3) 0.32248(19)
O19 O 0.16910(18) 0.2601(3) 0.6121(2)
O21 O 0.22382(15) 0.1424(3) 0.36436(18)
O22 O 0.09471(17) 0.1287(3) 0.5276(2)
O23 O 0.13759(15) 0.1660(3) 0.35580(17)
O26 O 0.09782(17) 0.0190(3) 0.17784(19)
O27 O 0.15513(18) 0.4506(3) 0.5451(2)
O29 O 0.12002(15) 0.1529(3) 0.44059(18)
O31 O 0.05399(17) 0.0857(3) 0.2270(2)
N5 N 0.0654(4) 0.7020(5) 0.2912(5)
N6 N 0.1492(4) 0.7358(6) 0.3562(6)
C11 C 0.2176(6) 0.7430(11) 0.4726(6)
H16 H 0.205735 0.690645 0.484347
H17 H 0.199069 0.795802 0.473037
C12 C 0.2046(6) 0.7300(10) 0.4058(7)
H18 H 0.222845 0.775742 0.397757
H19 H 0.217379 0.671113 0.403333
C13 C 0.1251(5) 0.8093(9) 0.3166(7)
H20 H 0.140819 0.862808 0.316292
C14 C 0.0732(5) 0.7875(6) 0.2778(6)
H21 H 0.046824 0.825482 0.246709
C15 C 0.1134(5) 0.6697(9) 0.3420(7)
H22 H 0.120024 0.613861 0.362457
N7 N 0.4346(4) 0.7980(5) 0.7088(5)
N8 N 0.3508(4) 0.7642(6) 0.6438(6)
C16 C 0.2824(6) 0.7570(11) 0.5274(6)
H23 H 0.294265 0.809355 0.515653
H24 H 0.300931 0.704198 0.526963
C17 C 0.2954(6) 0.7700(10) 0.5942(7)
H25 H 0.277155 0.724258 0.602243
H26 H 0.282621 0.828887 0.596667
C18 C 0.3749(5) 0.6907(9) 0.6834(7)
H27 H 0.359181 0.637192 0.683708
C19 C 0.4268(5) 0.7125(6) 0.7222(6)
H28 H 0.453176 0.674518 0.753291
C20 C 0.3866(5) 0.8303(9) 0.6580(7)
H29 H 0.379976 0.886139 0.637543
O33 O 0.00459(19) 0.3913(4) 0.1891(2)
Zn6 Zn 0.04135(3) 0.02273(5) 0.59323(3)
Zn9 Zn 0.500000 0.86732(11) 0.750000
O65 O 0.30791(15) 0.2087(3) 0.48071(19)
O66 O 0.27762(15) 0.3869(3) 0.52569(19)
O67 O 0.29358(15) 0.1912(3) 0.59876(18)
O69 O 0.06706(17) 0.0221(3) 0.0428(2)
O20 O 0.13736(16) 0.9855(3) 0.39853(19)
O24 O 0.23638(17) 0.9615(3) 0.4137(2)
O25 O 0.11778(16) 0.9862(3) 0.49286(19)
O28 O 0.21981(17) 0.9476(3) 0.5313(2)
O30 O 0.06706(17) 0.9779(3) 0.5428(2)
O32 O 0.03317(17) 0.9786(3) 0.3251(2)
C1 C 0.0158(5) 0.7215(6) 0.4059(6)
H2 H 0.039344 0.683710 0.404744
C2 C 0.0131(4) 0.8134(6) 0.4011(6)
H3 H 0.034640 0.849653 0.395104
Zn5 Zn 0.04135(3) 0.97727(5) 0.09323(3)
N9 N 0.0259(2) 0.8447(4) 0.0938(3)
N10 N 0.0234(3) 0.6959(4) 0.0871(4)
N11 N 0.1327(3) 0.3281(4) 0.1106(4)
N12 N 0.1189(3) 0.1895(4) 0.0811(4)
H30 H 0.109363 0.133645 0.076800
C23 C 0.0404(3) 0.7724(5) 0.0778(5)
H33 H 0.060794 0.774562 0.061430
C24 C 0.0304(4) 0.6016(5) 0.0731(5)
H34 H 0.001242 0.565674 0.065775
H35 H 0.028345 0.601690 0.033026
C25 C 0.0788(4) 0.5569(5) 0.1222(5)
H36 H 0.079896 0.550267 0.161383
H37 H 0.108539 0.593748 0.132246
C26 C 0.0827(4) 0.4637(5) 0.0988(5)
H38 H 0.055350 0.425288 0.094396
H39 H 0.075623 0.470441 0.056068
C27 C 0.1346(4) 0.4165(5) 0.1417(5)
H40 H 0.162701 0.454145 0.147412
H41 H 0.141455 0.405363 0.183940
C28 C 0.1404(6) 0.2311(8) 0.0511(6)
H42 H 0.147212 0.204299 0.023097
C29 C 0.1493(5) 0.3185(7) 0.0713(6)
H43 H 0.163939 0.363370 0.060202
C30 C 0.1157(3) 0.2489(5) 0.1162(4)
H44 H 0.103250 0.237859 0.141731
Zn3_2 Zn 1.000000 0.07339(7) 0.250000
Zn4_2 Zn 1.000000 0.63268(11) 0.250000
O1 O 0.99541(19) 0.3913(4) 0.3109(2)
Mo7 Mo 0.82204(2) 0.03134(3) 0.01365(2)
Mo8 Mo 0.80909(2) 0.04349(3) 0.10719(2)
Mo9 Mo 0.86571(2) 0.38097(3) 0.01770(2)
Mo11 Mo 0.85364(2) 0.39309(3) 0.14764(2)
Mo12 Mo 0.82715(2) 0.25196(3) 0.18503(2)
P5 P 0.92401(6) 0.03336(10) 0.00179(7)
P6 P 0.89932(6) 0.19942(10) 0.12459(7)
P7 P 0.96104(7) 0.46762(12) 0.15760(8)
P8 P 0.89516(6) 0.06917(10) 0.26525(7)
O34 O 0.9883(2) 0.5590(4) 0.1787(3)
O35 O 0.8297(2) 0.4789(3) 0.1684(3)
O36 O 0.88932(15) 0.3027(2) 0.11001(18)
O39 O 0.86928(17) 0.1614(3) 0.25989(19)
O40 O 0.77762(15) 0.1131(3) 0.02569(19)
O41 O 0.79358(15) 0.3088(3) 0.09876(18)
O42 O 0.91587(16) 0.3001(3) 0.01915(19)
O43 O 0.85523(17) 0.0132(3) 0.20414(19)
O44 O 0.82946(16) 0.4461(3) 0.0566(2)
O45 O 0.89329(16) 0.3174(3) 0.22520(19)
O46 O 0.93022(16) 0.4571(3) 0.0844(2)
O47 O 0.97637(16) 0.0409(3) 0.06911(19)
O48 O 0.92619(17) 0.4566(3) 0.1834(2)
O49 O 0.79425(18) 0.3000(3) 0.2134(2)
O50 O 0.95598(15) 0.1811(3) 0.17752(19)
O53 O 0.77618(15) 0.1424(3) 0.13564(18)
O55 O 0.86241(15) 0.1660(3) 0.14420(17)
O58 O 0.90218(17) 0.0190(3) 0.32216(19)
O61 O 0.87998(15) 0.1529(3) 0.05941(18)
O63 O 0.94601(17) 0.0857(3) 0.2730(2)
Zn8 Zn 0.750000 0.250000 0.000000
O68 O 0.93294(17) 0.0221(3) 0.4572(2)
N13 N 0.9346(4) 0.7020(5) 0.2088(5)
Mo10 Mo 0.85438(2) 0.22500(3) 0.96376(2)
O37 O 0.80791(15) 0.2913(3) 0.98071(19)
O38 O 0.80211(16) 0.1162(3) 0.93651(19)
O51 O 0.83090(18) 0.2601(3) 0.8879(2)
O54 O 0.90529(17) 0.1287(3) 0.9724(2)
O59 O 0.84487(18) 0.4506(3) 0.9549(2)
Zn7 Zn 0.95865(3) 0.02273(5) 0.90677(3)
Zn8_2 Zn 0.750000 0.250000 1.000000
Zn1 Zn 0.95865(3) 0.97727(5) 0.40677(3)
N1 N 0.9741(2) 0.8447(4) 0.4062(3)
N2 N 0.9766(3) 0.6959(4) 0.4129(4)
N3 N 0.8673(3) 0.3281(4) 0.3894(4)
N4 N 0.8811(3) 0.1895(4) 0.4189(4)
H1 H 0.890637 0.133645 0.423200
C3 C 0.9596(3) 0.7724(5) 0.4222(5)
H4 H 0.939206 0.774562 0.438570
C4 C 0.9696(4) 0.6016(5) 0.4269(5)
H5 H 0.998758 0.565674 0.434225
H6 H 0.971655 0.601690 0.466974
C5 C 0.9212(4) 0.5569(5) 0.3778(5)
H7 H 0.920104 0.550267 0.338617
H8 H 0.891461 0.593748 0.367754
C6 C 0.9173(4) 0.4637(5) 0.4012(5)
H9 H 0.944650 0.425288 0.405604
H10 H 0.924377 0.470441 0.443932
C7 C 0.8654(4) 0.4165(5) 0.3583(5)
H11 H 0.837299 0.454145 0.352588
H12 H 0.858545 0.405363 0.316060
C8 C 0.8596(6) 0.2311(8) 0.4489(6)
H13 H 0.852788 0.204299 0.476903
C9 C 0.8507(5) 0.3185(7) 0.4287(6)
H14 H 0.836061 0.363370 0.439798
C10 C 0.8843(3) 0.2489(5) 0.3838(4)
H15 H 0.896750 0.237859 0.358269
O52 O 0.86264(16) 0.9855(3) 0.10147(19)
O56 O 0.76362(17) 0.9615(3) 0.0863(2)
O57 O 0.88222(16) 0.9862(3) 0.00714(19)
O64 O 0.96683(17) 0.9786(3) 0.1749(2)
C21 C 0.9842(5) 0.7215(6) 0.0941(6)
H31 H 0.960656 0.683710 0.095256
C22 C 0.9869(4) 0.8134(6) 0.0989(6)
H32 H 0.965360 0.849653 0.104896
O60 O 0.78019(17) 0.9476(3) 0.9687(2)
O62 O 0.93294(17) 0.9779(3) 0.9572(2)
N6_2 N 0.8508(4) 0.7358(6) 0.1438(6)
C11_2 C 0.7824(6) 0.7430(11) 0.0274(6)
H16_2 H 0.794265 0.690645 0.015653
H17_2 H 0.800931 0.795802 0.026963
C12_2 C 0.7954(6) 0.7300(10) 0.0942(7)
H18_2 H 0.777155 0.775742 0.102243
H19_2 H 0.782621 0.671113 0.096667
C13_2 C 0.8749(5) 0.8093(9) 0.1834(7)
H20_2 H 0.859181 0.862808 0.183708
C14_2 C 0.9268(5) 0.7875(6) 0.2222(6)
H21_2 H 0.953176 0.825482 0.253291
C15_2 C 0.8866(5) 0.6697(9) 0.1580(7)
H22_2 H 0.879976 0.613861 0.137543
O65_2 O 0.69209(15) 0.2087(3) 0.01929(19)
N7_2 N 0.5654(4) 0.7980(5) 0.7912(5)
N8_2 N 0.6492(4) 0.7642(6) 0.8562(6)
C16_2 C 0.7176(6) 0.7570(11) 0.9726(6)
H23_2 H 0.705735 0.809355 0.984347
H24_2 H 0.699069 0.704198 0.973037
C17_2 C 0.7046(6) 0.7700(10) 0.9058(7)
H25_2 H 0.722845 0.724258 0.897757
H26_2 H 0.717379 0.828887 0.903333
C18_2 C 0.6251(5) 0.6907(9) 0.8166(7)
H27_2 H 0.640819 0.637192 0.816292
C19_2 C 0.5732(5) 0.7125(6) 0.7778(6)
H28_2 H 0.546824 0.674518 0.746709
C20_2 C 0.6134(5) 0.8303(9) 0.8420(7)
H29_2 H 0.620024 0.886139 0.862457
O66_2 O 0.72238(15) 0.3869(3) 0.97431(19)
O67_2 O 0.70642(15) 0.1912(3) 0.90124(18)
Zn9_2 Zn 0.000000 0.36732(11) 0.750000
Zn4_3 Zn 0.500000 0.13268(11) 0.250000
O2_2 O 0.5117(2) 0.0590(4) 0.3213(3)
N5_2 N 0.5654(4) 0.2020(5) 0.2912(5)
N6_3 N 0.6492(4) 0.2358(6) 0.3562(6)
C11_3 C 0.7176(6) 0.2430(11) 0.4726(6)
H16_3 H 0.705735 0.190645 0.484347
H17_3 H 0.699069 0.295802 0.473037
C12_3 C 0.7046(6) 0.2300(10) 0.4058(7)
H18_3 H 0.722845 0.275742 0.397757
H19_3 H 0.717379 0.171113 0.403333
C13_3 C 0.6251(5) 0.3093(9) 0.3166(7)
H20_3 H 0.640819 0.362808 0.316292
C14_3 C 0.5732(5) 0.2875(6) 0.2778(6)
H21_3 H 0.546824 0.325482 0.246709
C15_3 C 0.6134(5) 0.1697(9) 0.3420(7)
H22_3 H 0.620024 0.113861 0.362457
N7_3 N 0.9346(4) 0.2980(5) 0.7088(5)
N8_3 N 0.8508(4) 0.2642(6) 0.6438(6)
C16_3 C 0.7824(6) 0.2570(11) 0.5274(6)
H23_3 H 0.794265 0.309355 0.515653
H24_3 H 0.800931 0.204198 0.526963
C17_3 C 0.7954(6) 0.2700(10) 0.5942(7)
H25_3 H 0.777155 0.224258 0.602243
H26_3 H 0.782621 0.328887 0.596667
C18_3 C 0.8749(5) 0.1907(9) 0.6834(7)
H27_3 H 0.859181 0.137192 0.683708
C19_3 C 0.9268(5) 0.2125(6) 0.7222(6)
H28_3 H 0.953176 0.174518 0.753291
C20_3 C 0.8866(5) 0.3303(9) 0.6580(7)
H29_3 H 0.879976 0.386139 0.637543
O34_2 O 0.4883(2) 0.0590(4) 0.1787(3)
Zn9_3 Zn 1.000000 0.36732(11) 0.750000
N13_2 N 0.4346(4) 0.2020(5) 0.2088(5)
Mo1_2 Mo 0.67796(2) 0.53134(3) 0.48635(2)
Mo2_2 Mo 0.69091(2) 0.54349(3) 0.39281(2)
Mo3_2 Mo 0.63429(2) 0.88097(3) 0.48230(2)
Mo4_2 Mo 0.64562(2) 0.72500(3) 0.53624(2)
Mo5_2 Mo 0.64636(2) 0.89309(3) 0.35236(2)
Mo6_2 Mo 0.67285(2) 0.75196(3) 0.31497(2)
Zn1_2 Zn 0.45865(3) 0.47727(5) 0.40677(3)
Zn2_2 Zn 0.750000 0.750000 0.500000
Zn3_3 Zn 0.500000 0.57339(7) 0.250000
P1_2 P 0.57599(6) 0.53336(10) 0.49821(7)
P2_2 P 0.60068(6) 0.69942(10) 0.37541(7)
P3_2 P 0.53896(7) 0.96762(12) 0.34240(8)
P4_2 P 0.60484(6) 0.56917(10) 0.23475(7)
O1_2 O 0.49541(19) 0.8913(4) 0.3109(2)
O3_2 O 0.6703(2) 0.9789(3) 0.3316(3)
O4_2 O 0.61068(15) 0.8027(2) 0.38999(18)
O5_2 O 0.69209(15) 0.7913(3) 0.51929(19)
O6_2 O 0.69789(16) 0.6162(3) 0.56349(19)
O7_2 O 0.63072(17) 0.6614(3) 0.24011(19)
O8_2 O 0.72238(15) 0.6131(3) 0.47431(19)
O9_2 O 0.70642(15) 0.8088(3) 0.40124(18)
O10_2 O 0.58413(16) 0.8001(3) 0.48085(19)
O11_2 O 0.64477(17) 0.5132(3) 0.29586(19)
O12_2 O 0.67054(16) 0.9461(3) 0.4434(2)
O13_2 O 0.60671(16) 0.8174(3) 0.27480(19)
O14_2 O 0.56978(16) 0.9571(3) 0.4156(2)
O15_2 O 0.52363(16) 0.5409(3) 0.43089(19)
O16_2 O 0.57381(17) 0.9566(3) 0.3166(2)
O17_2 O 0.70575(18) 0.8000(3) 0.2866(2)
O18_2 O 0.54402(15) 0.6811(3) 0.32248(19)
O19_2 O 0.66910(18) 0.7601(3) 0.6121(2)
O20_2 O 0.63736(16) 0.4855(3) 0.39853(19)
O21_2 O 0.72382(15) 0.6424(3) 0.36436(18)
O22_2 O 0.59471(17) 0.6287(3) 0.5276(2)
O23_2 O 0.63759(15) 0.6660(3) 0.35580(17)
O24_2 O 0.73638(17) 0.4615(3) 0.4137(2)
O25_2 O 0.61778(16) 0.4862(3) 0.49286(19)
O26_2 O 0.59782(17) 0.5190(3) 0.17784(19)
O27_2 O 0.65513(18) 0.9506(3) 0.5451(2)
O28_2 O 0.71981(17) 0.4476(3) 0.5313(2)
O29_2 O 0.62002(15) 0.6529(3) 0.44059(18)
O30_2 O 0.56706(17) 0.4779(3) 0.5428(2)
O31_2 O 0.55399(17) 0.5857(3) 0.2270(2)
O32_2 O 0.53317(17) 0.4786(3) 0.3251(2)
N1_2 N 0.4741(2) 0.3447(4) 0.4062(3)
N2_2 N 0.4766(3) 0.1959(4) 0.4129(4)
C1_2 C 0.5158(5) 0.2215(6) 0.4059(6)
H2_2 H 0.539344 0.183710 0.404744
C2_2 C 0.5131(4) 0.3134(6) 0.4011(6)
H3_2 H 0.534640 0.349653 0.395104
C3_2 C 0.4596(3) 0.2724(5) 0.4222(5)
H4_2 H 0.439206 0.274562 0.438570
C4_2 C 0.4696(4) 0.1016(5) 0.4269(5)
H5_2 H 0.498758 0.065674 0.434225
H6_2 H 0.471655 0.101690 0.466974
C5_2 C 0.4212(4) 0.0569(5) 0.3778(5)
H7_2 H 0.420104 0.050267 0.338617
H8_2 H 0.391461 0.093748 0.367754
Mo7_2 Mo 0.32204(2) 0.53134(3) 0.01365(2)
Mo8_2 Mo 0.30909(2) 0.54349(3) 0.10719(2)
Mo9_2 Mo 0.36571(2) 0.88097(3) 0.01770(2)
Mo11_2 Mo 0.35364(2) 0.89309(3) 0.14764(2)
Mo12_2 Mo 0.32715(2) 0.75196(3) 0.18503(2)
Zn5_2 Zn 0.54135(3) 0.47727(5) 0.09323(3)
P5_2 P 0.42401(6) 0.53336(10) 0.00179(7)
P6_2 P 0.39932(6) 0.69942(10) 0.12459(7)
P7_2 P 0.46104(7) 0.96762(12) 0.15760(8)
P8_2 P 0.39516(6) 0.56917(10) 0.26525(7)
O33_2 O 0.50459(19) 0.8913(4) 0.1891(2)
O35_2 O 0.3297(2) 0.9789(3) 0.1684(3)
O36_2 O 0.38932(15) 0.8027(2) 0.11001(18)
O39_2 O 0.36928(17) 0.6614(3) 0.25989(19)
O40_2 O 0.27762(15) 0.6131(3) 0.02569(19)
O41_2 O 0.29358(15) 0.8088(3) 0.09876(18)
O42_2 O 0.41587(16) 0.8001(3) 0.01915(19)
O43_2 O 0.35523(17) 0.5132(3) 0.20414(19)
O44_2 O 0.32946(16) 0.9461(3) 0.0566(2)
O45_2 O 0.39329(16) 0.8174(3) 0.22520(19)
O46_2 O 0.43022(16) 0.9571(3) 0.0844(2)
O47_2 O 0.47637(16) 0.5409(3) 0.06911(19)
O48_2 O 0.42619(17) 0.9566(3) 0.1834(2)
O49_2 O 0.29425(18) 0.8000(3) 0.2134(2)
O50_2 O 0.45598(15) 0.6811(3) 0.17752(19)
O52_2 O 0.36264(16) 0.4855(3) 0.10147(19)
O53_2 O 0.27618(15) 0.6424(3) 0.13564(18)
O55_2 O 0.36241(15) 0.6660(3) 0.14420(17)
O56_2 O 0.26362(17) 0.4615(3) 0.0863(2)
O57_2 O 0.38222(16) 0.4862(3) 0.00714(19)
O58_2 O 0.40218(17) 0.5190(3) 0.32216(19)
O61_2 O 0.37998(15) 0.6529(3) 0.05941(18)
O63_2 O 0.44601(17) 0.5857(3) 0.2730(2)
O64_2 O 0.46683(17) 0.4786(3) 0.1749(2)
N9_2 N 0.5259(2) 0.3447(4) 0.0938(3)
N10_2 N 0.5234(3) 0.1959(4) 0.0871(4)
C21_2 C 0.4842(5) 0.2215(6) 0.0941(6)
H31_2 H 0.460656 0.183710 0.095256
C22_2 C 0.4869(4) 0.3134(6) 0.0989(6)
H32_2 H 0.465360 0.349653 0.104896
C23_2 C 0.5404(3) 0.2724(5) 0.0778(5)
H33_2 H 0.560794 0.274562 0.061430
C24_2 C 0.5304(4) 0.1016(5) 0.0731(5)
H34_2 H 0.501242 0.065674 0.065775
H35_2 H 0.528345 0.101690 0.033026
C25_2 C 0.5788(4) 0.0569(5) 0.1222(5)
H36_2 H 0.579896 0.050267 0.161383
H37_2 H 0.608539 0.093748 0.132246
Zn6_2 Zn 0.54135(3) 0.52273(5) 0.59323(3)
Zn8_3 Zn 0.250000 0.750000 0.000000
O65_3 O 0.80791(15) 0.7087(3) 0.48071(19)
O66_3 O 0.77762(15) 0.8869(3) 0.52569(19)
O67_3 O 0.79358(15) 0.6912(3) 0.59876(18)
O68_2 O 0.43294(17) 0.5221(3) 0.4572(2)
O69_2 O 0.56706(17) 0.5221(3) 0.0428(2)
Mo10_2 Mo 0.35438(2) 0.72500(3) 0.96376(2)
O37_2 O 0.30791(15) 0.7913(3) 0.98071(19)
O38_2 O 0.30211(16) 0.6162(3) 0.93651(19)
O51_2 O 0.33090(18) 0.7601(3) 0.8879(2)
O54_2 O 0.40529(17) 0.6287(3) 0.9724(2)
O59_2 O 0.34487(18) 0.9506(3) 0.9549(2)
O60_2 O 0.28019(17) 0.4476(3) 0.9687(2)
O62_2 O 0.43294(17) 0.4779(3) 0.9572(2)
Zn7_2 Zn 0.45865(3) 0.52273(5) 0.90677(3)
Zn8_4 Zn 0.250000 0.750000 1.000000
N6_4 N 0.3508(4) 0.2358(6) 0.1438(6)
C11_4 C 0.2824(6) 0.2430(11) 0.0274(6)
H16_4 H 0.294265 0.190645 0.015653
H17_4 H 0.300931 0.295802 0.026963
C12_4 C 0.2954(6) 0.2300(10) 0.0942(7)
H18_4 H 0.277155 0.275742 0.102243
H19_4 H 0.282621 0.171113 0.096667
C13_4 C 0.3749(5) 0.3093(9) 0.1834(7)
H20_4 H 0.359181 0.362808 0.183708
C14_4 C 0.4268(5) 0.2875(6) 0.2222(6)
H21_4 H 0.453176 0.325482 0.253291
C15_4 C 0.3866(5) 0.1697(9) 0.1580(7)
H22_4 H 0.379976 0.113861 0.137543
N7_4 N 0.0654(4) 0.2980(5) 0.7912(5)
N8_4 N 0.1492(4) 0.2642(6) 0.8562(6)
C16_4 C 0.2176(6) 0.2570(11) 0.9726(6)
H23_4 H 0.205735 0.309355 0.984347
H24_4 H 0.199069 0.204198 0.973037
C17_4 C 0.2046(6) 0.2700(10) 0.9058(7)
H25_4 H 0.222845 0.224258 0.897757
H26_4 H 0.217379 0.328887 0.903333
C18_4 C 0.1251(5) 0.1907(9) 0.8166(7)
H27_4 H 0.140819 0.137192 0.816292
C19_4 C 0.0732(5) 0.2125(6) 0.7778(6)
H28_4 H 0.046824 0.174518 0.746709
C20_4 C 0.1134(5) 0.3303(9) 0.8420(7)
H29_4 H 0.120024 0.386139 0.862457
O65_4 O 0.19209(15) 0.7087(3) 0.01929(19)
O66_4 O 0.22238(15) 0.8869(3) 0.97431(19)
O67_4 O 0.20642(15) 0.6912(3) 0.90124(18)
O60_3 O 0.21981(17) 0.0524(3) 0.0313(2)
N1_3 N 0.0259(2) 0.1553(4) 0.5938(3)
N2_3 N 0.0234(3) 0.3041(4) 0.5871(4)
N3_2 N 0.1327(3) 0.6719(4) 0.6106(4)
N4_2 N 0.1189(3) 0.8105(4) 0.5811(4)
H1_2 H 0.109363 0.866355 0.576800
C3_3 C 0.0404(3) 0.2276(5) 0.5778(5)
H4_3 H 0.060794 0.225438 0.561430
C4_3 C 0.0304(4) 0.3984(5) 0.5731(5)
H5_3 H 0.001242 0.434326 0.565775
H6_3 H 0.028345 0.398310 0.533026
C5_3 C 0.0788(4) 0.4431(5) 0.6222(5)
H7_3 H 0.079896 0.449733 0.661383
H8_3 H 0.108539 0.406252 0.632246
C6_2 C 0.0827(4) 0.5363(5) 0.5988(5)
H9_2 H 0.055350 0.574712 0.594396
H10_2 H 0.075623 0.529559 0.556068
C7_2 C 0.1346(4) 0.5835(5) 0.6417(5)
H11_2 H 0.162701 0.545855 0.647412
H12_2 H 0.141455 0.594637 0.683940
C8_2 C 0.1404(6) 0.7689(8) 0.5511(6)
H13_2 H 0.147212 0.795701 0.523097
C9_2 C 0.1493(5) 0.6815(7) 0.5713(6)
H14_2 H 0.163939 0.636630 0.560202
C10_2 C 0.1157(3) 0.7511(5) 0.6162(4)
H15_2 H 0.103250 0.762141 0.641731
O52_3 O 0.13736(16) 0.0145(3) 0.89853(19)
O56_3 O 0.23638(17) 0.0385(3) 0.9137(2)
O57_3 O 0.11778(16) 0.0138(3) 0.99286(19)
O64_3 O 0.03317(17) 0.0214(3) 0.8251(2)
C21_3 C 0.0158(5) 0.2785(6) 0.9059(6)
H31_3 H 0.039344 0.316290 0.904744
C22_3 C 0.0131(4) 0.1866(6) 0.9011(6)
H32_3 H 0.034640 0.150347 0.895104
Mo10_3 Mo 0.14562(2) 0.77500(3) 0.03624(2)
O38_3 O 0.19789(16) 0.8838(3) 0.06349(19)
O51_3 O 0.16910(18) 0.7399(3) 0.1121(2)
O54_3 O 0.09471(17) 0.8713(3) 0.0276(2)
O59_3 O 0.15513(18) 0.5494(3) 0.0451(2)
Zn3_4 Zn 0.000000 0.92661(7) 0.750000
O1_3 O 0.00459(19) 0.6087(4) 0.6891(2)
Mo7_3 Mo 0.17796(2) 0.96866(3) 0.98635(2)
Mo8_3 Mo 0.19091(2) 0.95651(3) 0.89281(2)
Mo9_3 Mo 0.13429(2) 0.61903(3) 0.98230(2)
Mo11_3 Mo 0.14636(2) 0.60691(3) 0.85236(2)
Mo12_3 Mo 0.17285(2) 0.74804(3) 0.81497(2)
P5_3 P 0.07599(6) 0.96664(10) 0.99821(7)
P6_3 P 0.10068(6) 0.80058(10) 0.87541(7)
P7_3 P 0.03896(7) 0.53238(12) 0.84240(8)
P8_3 P 0.10484(6) 0.93083(10) 0.73475(7)
O34_3 O 0.0117(2) 0.4410(4) 0.8213(3)
O35_3 O 0.1703(2) 0.5211(3) 0.8316(3)
O36_3 O 0.11068(15) 0.6973(2) 0.88999(18)
O39_3 O 0.13072(17) 0.8386(3) 0.74011(19)
O42_3 O 0.08413(16) 0.6999(3) 0.98085(19)
O43_3 O 0.14477(17) 0.9868(3) 0.79586(19)
O44_3 O 0.17054(16) 0.5539(3) 0.9434(2)
O45_3 O 0.10671(16) 0.6826(3) 0.77480(19)
O46_3 O 0.06978(16) 0.5429(3) 0.9156(2)
O47_3 O 0.02363(16) 0.9591(3) 0.93089(19)
O48_3 O 0.07381(17) 0.5434(3) 0.8166(2)
O49_3 O 0.20575(18) 0.7000(3) 0.7866(2)
O50_3 O 0.04402(15) 0.8189(3) 0.82248(19)
O53_3 O 0.22382(15) 0.8576(3) 0.86436(18)
O55_3 O 0.13759(15) 0.8340(3) 0.85580(17)
O58_3 O 0.09782(17) 0.9810(3) 0.67784(19)
O61_3 O 0.12002(15) 0.8471(3) 0.94059(18)
O63_3 O 0.05399(17) 0.9143(3) 0.7270(2)
O20_3 O 0.86264(16) 0.0145(3) 0.60147(19)
O24_3 O 0.76362(17) 0.0385(3) 0.5863(2)
O25_3 O 0.88222(16) 0.0138(3) 0.50714(19)
O28_3 O 0.78019(17) 0.0524(3) 0.4687(2)
O32_3 O 0.96683(17) 0.0214(3) 0.6749(2)
C1_3 C 0.9842(5) 0.2785(6) 0.5941(6)
H2_3 H 0.960656 0.316290 0.595256
C2_3 C 0.9869(4) 0.1866(6) 0.5989(6)
H3_3 H 0.965360 0.150347 0.604896
N9_3 N 0.9741(2) 0.1553(4) 0.9062(3)
N10_3 N 0.9766(3) 0.3041(4) 0.9129(4)
N11_2 N 0.8673(3) 0.6719(4) 0.8894(4)
N12_2 N 0.8811(3) 0.8105(4) 0.9189(4)
H30_2 H 0.890637 0.866355 0.923200
C23_3 C 0.9596(3) 0.2276(5) 0.9222(5)
H33_3 H 0.939206 0.225438 0.938570
C24_3 C 0.9696(4) 0.3984(5) 0.9269(5)
H34_3 H 0.998758 0.434326 0.934225
H35_3 H 0.971655 0.398310 0.966974
C25_3 C 0.9212(4) 0.4431(5) 0.8778(5)
H36_3 H 0.920104 0.449733 0.838617
H37_3 H 0.891461 0.406252 0.867754
C26_2 C 0.9173(4) 0.5363(5) 0.9012(5)
H38_2 H 0.944650 0.574712 0.905604
H39_2 H 0.924377 0.529559 0.943932
C27_2 C 0.8654(4) 0.5835(5) 0.8583(5)
H40_2 H 0.837299 0.545855 0.852588
H41_2 H 0.858545 0.594637 0.816060
C28_2 C 0.8596(6) 0.7689(8) 0.9489(6)
H42_2 H 0.852788 0.795701 0.976903
C29_2 C 0.8507(5) 0.6815(7) 0.9287(6)
H43_2 H 0.836061 0.636630 0.939798
C30_2 C 0.8843(3) 0.7511(5) 0.8838(4)
H44_2 H 0.896750 0.762141 0.858269
Mo1_3 Mo 0.82204(2) 0.96866(3) 0.51365(2)
Mo2_3 Mo 0.80909(2) 0.95651(3) 0.60719(2)
Mo3_3 Mo 0.86571(2) 0.61903(3) 0.51770(2)
Mo4_3 Mo 0.85438(2) 0.77500(3) 0.46376(2)
Mo5_3 Mo 0.85364(2) 0.60691(3) 0.64764(2)
Mo6_3 Mo 0.82715(2) 0.74804(3) 0.68503(2)
Zn3_5 Zn 1.000000 0.92661(7) 0.750000
P1_3 P 0.92401(6) 0.96664(10) 0.50179(7)
P2_3 P 0.89932(6) 0.80058(10) 0.62459(7)
P3_3 P 0.96104(7) 0.53238(12) 0.65760(8)
P4_3 P 0.89516(6) 0.93083(10) 0.76525(7)
O2_3 O 0.9883(2) 0.4410(4) 0.6787(3)
O3_3 O 0.8297(2) 0.5211(3) 0.6684(3)
O4_3 O 0.88932(15) 0.6973(2) 0.61001(18)
O6_3 O 0.80211(16) 0.8838(3) 0.43651(19)
O7_3 O 0.86928(17) 0.8386(3) 0.75989(19)
O10_3 O 0.91587(16) 0.6999(3) 0.51915(19)
O11_3 O 0.85523(17) 0.9868(3) 0.70414(19)
O12_3 O 0.82946(16) 0.5539(3) 0.5566(2)
O13_3 O 0.89329(16) 0.6826(3) 0.72520(19)
O14_3 O 0.93022(16) 0.5429(3) 0.5844(2)
O15_3 O 0.97637(16) 0.9591(3) 0.56911(19)
O16_3 O 0.92619(17) 0.5434(3) 0.6834(2)
O17_3 O 0.79425(18) 0.7000(3) 0.7134(2)
O18_3 O 0.95598(15) 0.8189(3) 0.67752(19)
O19_3 O 0.83090(18) 0.7399(3) 0.3879(2)
O21_3 O 0.77618(15) 0.8576(3) 0.63564(18)
O22_3 O 0.90529(17) 0.8713(3) 0.4724(2)
O23_3 O 0.86241(15) 0.8340(3) 0.64420(17)
O26_3 O 0.90218(17) 0.9810(3) 0.82216(19)
O27_3 O 0.84487(18) 0.5494(3) 0.4549(2)
O29_3 O 0.87998(15) 0.8471(3) 0.55941(18)
O31_3 O 0.94601(17) 0.9143(3) 0.7730(2)
O33_3 O 0.99541(19) 0.6087(4) 0.8109(2)
Mo10_4 Mo 0.64562(2) 0.27500(3) 0.03624(2)
O38_4 O 0.69789(16) 0.3838(3) 0.06349(19)
O51_4 O 0.66910(18) 0.2399(3) 0.1121(2)
O54_4 O 0.59471(17) 0.3713(3) 0.0276(2)
O59_4 O 0.65513(18) 0.0494(3) 0.0451(2)
O60_4 O 0.71981(17) 0.5524(3) 0.0313(2)
Mo1_4 Mo 0.32204(2) 0.46866(3) 0.51365(2)
Mo2_4 Mo 0.30909(2) 0.45651(3) 0.60719(2)
Mo3_4 Mo 0.36571(2) 0.11903(3) 0.51770(2)
Mo4_4 Mo 0.35438(2) 0.27500(3) 0.46376(2)
Mo5_4 Mo 0.35364(2) 0.10691(3) 0.64764(2)
Mo6_4 Mo 0.32715(2) 0.24804(3) 0.68503(2)
Zn3_6 Zn 0.500000 0.42661(7) 0.750000
P1_4 P 0.42401(6) 0.46664(10) 0.50179(7)
P2_4 P 0.39932(6) 0.30058(10) 0.62459(7)
P3_4 P 0.46104(7) 0.03238(12) 0.65760(8)
P4_4 P 0.39516(6) 0.43083(10) 0.76525(7)
O1_4 O 0.50459(19) 0.1087(4) 0.6891(2)
O3_4 O 0.3297(2) 0.0211(3) 0.6684(3)
O4_4 O 0.38932(15) 0.1973(2) 0.61001(18)
O6_4 O 0.30211(16) 0.3838(3) 0.43651(19)
O7_4 O 0.36928(17) 0.3386(3) 0.75989(19)
O10_4 O 0.41587(16) 0.1999(3) 0.51915(19)
O11_4 O 0.35523(17) 0.4868(3) 0.70414(19)
O12_4 O 0.32946(16) 0.0539(3) 0.5566(2)
O13_4 O 0.39329(16) 0.1826(3) 0.72520(19)
O14_4 O 0.43022(16) 0.0429(3) 0.5844(2)
O15_4 O 0.47637(16) 0.4591(3) 0.56911(19)
O16_4 O 0.42619(17) 0.0434(3) 0.6834(2)
O17_4 O 0.29425(18) 0.2000(3) 0.7134(2)
O18_4 O 0.45598(15) 0.3189(3) 0.67752(19)
O19_4 O 0.33090(18) 0.2399(3) 0.3879(2)
O20_4 O 0.36264(16) 0.5145(3) 0.60147(19)
O21_4 O 0.27618(15) 0.3576(3) 0.63564(18)
O22_4 O 0.40529(17) 0.3713(3) 0.4724(2)
O23_4 O 0.36241(15) 0.3340(3) 0.64420(17)
O24_4 O 0.26362(17) 0.5385(3) 0.5863(2)
O25_4 O 0.38222(16) 0.5138(3) 0.50714(19)
O26_4 O 0.40218(17) 0.4810(3) 0.82216(19)
O27_4 O 0.34487(18) 0.0494(3) 0.4549(2)
O28_4 O 0.28019(17) 0.5524(3) 0.4687(2)
O29_4 O 0.37998(15) 0.3471(3) 0.55941(18)
O31_4 O 0.44601(17) 0.4143(3) 0.7730(2)
O32_4 O 0.46683(17) 0.5214(3) 0.6749(2)
N1_4 N 0.5259(2) 0.6553(4) 0.5938(3)
N2_4 N 0.5234(3) 0.8041(4) 0.5871(4)
C1_4 C 0.4842(5) 0.7785(6) 0.5941(6)
H2_4 H 0.460656 0.816290 0.595256
C2_4 C 0.4869(4) 0.6866(6) 0.5989(6)
H3_4 H 0.465360 0.650347 0.604896
C3_4 C 0.5404(3) 0.7276(5) 0.5778(5)
H4_4 H 0.560794 0.725438 0.561430
C4_4 C 0.5304(4) 0.8984(5) 0.5731(5)
H5_4 H 0.501242 0.934326 0.565775
H6_4 H 0.528345 0.898310 0.533026
C5_4 C 0.5788(4) 0.9431(5) 0.6222(5)
H7_4 H 0.579896 0.949733 0.661383
H8_4 H 0.608539 0.906252 0.632246
Mo7_4 Mo 0.67796(2) 0.46866(3) 0.98635(2)
Mo8_4 Mo 0.69091(2) 0.45651(3) 0.89281(2)
Mo9_4 Mo 0.63429(2) 0.11903(3) 0.98230(2)
Mo11_4 Mo 0.64636(2) 0.10691(3) 0.85236(2)
Mo12_4 Mo 0.67285(2) 0.24804(3) 0.81497(2)
P5_4 P 0.57599(6) 0.46664(10) 0.99821(7)
P6_4 P 0.60068(6) 0.30058(10) 0.87541(7)
P7_4 P 0.53896(7) 0.03238(12) 0.84240(8)
P8_4 P 0.60484(6) 0.43083(10) 0.73475(7)
O33_4 O 0.49541(19) 0.1087(4) 0.8109(2)
O35_4 O 0.6703(2) 0.0211(3) 0.8316(3)
O36_4 O 0.61068(15) 0.1973(2) 0.88999(18)
O39_4 O 0.63072(17) 0.3386(3) 0.74011(19)
O42_4 O 0.58413(16) 0.1999(3) 0.98085(19)
O43_4 O 0.64477(17) 0.4868(3) 0.79586(19)
O44_4 O 0.67054(16) 0.0539(3) 0.9434(2)
O45_4 O 0.60671(16) 0.1826(3) 0.77480(19)
O46_4 O 0.56978(16) 0.0429(3) 0.9156(2)
O47_4 O 0.52363(16) 0.4591(3) 0.93089(19)
O48_4 O 0.57381(17) 0.0434(3) 0.8166(2)
O49_4 O 0.70575(18) 0.2000(3) 0.7866(2)
O50_4 O 0.54402(15) 0.3189(3) 0.82248(19)
O52_4 O 0.63736(16) 0.5145(3) 0.89853(19)
O53_4 O 0.72382(15) 0.3576(3) 0.86436(18)
O55_4 O 0.63759(15) 0.3340(3) 0.85580(17)
O56_4 O 0.73638(17) 0.5385(3) 0.9137(2)
O57_4 O 0.61778(16) 0.5138(3) 0.99286(19)
O58_4 O 0.59782(17) 0.4810(3) 0.67784(19)
O61_4 O 0.62002(15) 0.3471(3) 0.94059(18)
O63_4 O 0.55399(17) 0.4143(3) 0.7270(2)
O64_4 O 0.53317(17) 0.5214(3) 0.8251(2)
N9_4 N 0.4741(2) 0.6553(4) 0.9062(3)
N10_4 N 0.4766(3) 0.8041(4) 0.9129(4)
C21_4 C 0.5158(5) 0.7785(6) 0.9059(6)
H31_4 H 0.539344 0.816290 0.904744
C22_4 C 0.5131(4) 0.6866(6) 0.9011(6)
H32_4 H 0.534640 0.650347 0.895104
C23_4 C 0.4596(3) 0.7276(5) 0.9222(5)
H33_4 H 0.439206 0.725438 0.938570
C24_4 C 0.4696(4) 0.8984(5) 0.9269(5)
H34_4 H 0.498758 0.934326 0.934225
H35_4 H 0.471655 0.898310 0.966974
C25_4 C 0.4212(4) 0.9431(5) 0.8778(5)
H36_4 H 0.420104 0.949733 0.838617
H37_4 H 0.391461 0.906252 0.867754
O2_4 O 0.4883(2) 0.9410(4) 0.6787(3)
O34_4 O 0.5117(2) 0.9410(4) 0.8213(3)
N3_3 N 0.3673(3) 0.8281(4) 0.3894(4)
N4_3 N 0.3811(3) 0.6895(4) 0.4189(4)
H1_3 H 0.390637 0.633645 0.423200
C6_3 C 0.4173(4) 0.9637(5) 0.4012(5)
H9_3 H 0.444650 0.925288 0.405604
H10_3 H 0.424377 0.970441 0.443932
C7_3 C 0.3654(4) 0.9165(5) 0.3583(5)
H11_3 H 0.337299 0.954145 0.352588
H12_3 H 0.358545 0.905363 0.316060
C8_3 C 0.3596(6) 0.7311(8) 0.4489(6)
H13_3 H 0.352788 0.704299 0.476903
C9_3 C 0.3507(5) 0.8185(7) 0.4287(6)
H14_3 H 0.336061 0.863370 0.439798
C10_3 C 0.3843(3) 0.7489(5) 0.3838(4)
H15_3 H 0.396750 0.737859 0.358269
N11_3 N 0.6327(3) 0.8281(4) 0.1106(4)
N12_3 N 0.6189(3) 0.6895(4) 0.0811(4)
H30_3 H 0.609363 0.633645 0.076800
C26_3 C 0.5827(4) 0.9637(5) 0.0988(5)
H38_3 H 0.555350 0.925288 0.094396
H39_3 H 0.575623 0.970441 0.056068
C27_3 C 0.6346(4) 0.9165(5) 0.1417(5)
H40_3 H 0.662701 0.954145 0.147412
H41_3 H 0.641455 0.905363 0.183940
C28_3 C 0.6404(6) 0.7311(8) 0.0511(6)
H42_3 H 0.647212 0.704299 0.023097
C29_3 C 0.6493(5) 0.8185(7) 0.0713(6)
H43_3 H 0.663939 0.863370 0.060202
C30_3 C 0.6157(3) 0.7489(5) 0.1162(4)
H44_3 H 0.603250 0.737859 0.141731
N3_4 N 0.6327(3) 0.1719(4) 0.6106(4)
N4_4 N 0.6189(3) 0.3105(4) 0.5811(4)
H1_4 H 0.609363 0.366355 0.576800
C6_4 C 0.5827(4) 0.0363(5) 0.5988(5)
H9_4 H 0.555350 0.074712 0.594396
H10_4 H 0.575623 0.029559 0.556068
C7_4 C 0.6346(4) 0.0835(5) 0.6417(5)
H11_4 H 0.662701 0.045855 0.647412
H12_4 H 0.641455 0.094637 0.683940
C8_4 C 0.6404(6) 0.2689(8) 0.5511(6)
H13_4 H 0.647212 0.295701 0.523097
C9_4 C 0.6493(5) 0.1815(7) 0.5713(6)
H14_4 H 0.663939 0.136630 0.560202
C10_4 C 0.6157(3) 0.2511(5) 0.6162(4)
H15_4 H 0.603250 0.262141 0.641731
N11_4 N 0.3673(3) 0.1719(4) 0.8894(4)
N12_4 N 0.3811(3) 0.3105(4) 0.9189(4)
H30_4 H 0.390637 0.366355 0.923200
C26_4 C 0.4173(4) 0.0363(5) 0.9012(5)
H38_4 H 0.444650 0.074712 0.905604
H39_4 H 0.424377 0.029559 0.943932
C27_4 C 0.3654(4) 0.0835(5) 0.8583(5)
H40_4 H 0.337299 0.045855 0.852588
H41_4 H 0.358545 0.094637 0.816060
C28_4 C 0.3596(6) 0.2689(8) 0.9489(6)
H42_4 H 0.352788 0.295701 0.976903
C29_4 C 0.3507(5) 0.1815(7) 0.9287(6)
H43_4 H 0.336061 0.136630 0.939798
C30_4 C 0.3843(3) 0.2511(5) 0.8838(4)
H44_4 H 0.396750 0.262141 0.858269
loop_
_geom_bond_atom_site_label_1
_geom_bond_atom_site_label_2
_geom_bond_site_symmetry_1
_geom_bond_site_symmetry_2
Mo1 O6 1_555 1_555
Mo2 O8 1_555 1_555
Mo3 O4 1_555 1_555
Mo4 O5 1_555 1_555
Mo5 O3 1_555 1_555
Mo6 O7 1_555 1_555
Zn2 O5 1_555 1_555
Zn3 O18 1_555 1_555
Zn4 O2 1_555 1_555
P1 O15 1_555 1_555
P2 O4 1_555 1_555
P4 O7 1_555 1_555
O2 P3 1_555 1_555
O4 Mo5 1_555 1_555
O5 Mo3 1_555 1_555
O6 Mo4 1_555 1_555
O8 Mo1 1_555 1_555
O9 Mo5 1_555 1_555
O10 Mo3 1_555 1_555
O11 Mo2 1_555 1_555
O12 Mo3 1_555 1_555
O13 Mo5 1_555 1_555
O14 Mo3 1_555 1_555
O16 Mo5 1_555 1_555
O17 Mo6 1_555 1_555
O18 P2 1_555 1_555
O19 Mo4 1_555 1_555
O21 Mo2 1_555 1_555
O22 Mo4 1_555 1_555
O23 Mo2 1_555 1_555
O26 P4 1_555 1_555
O27 Mo3 1_555 1_555
O29 Mo1 1_555 1_555
O31 Zn3 1_555 1_555
N5 Zn4 1_555 1_555
N6 C12 1_555 1_555
C11 H16 1_555 1_555
H17 C11 1_555 1_555
C12 C11 1_555 1_555
H18 C12 1_555 1_555
H19 C12 1_555 1_555
C13 N6 1_555 1_555
H20 C13 1_555 1_555
C14 N5 1_555 1_555
H21 C14 1_555 1_555
C15 N5 1_555 1_555
H22 C15 1_555 1_555
N7 C19 1_555 1_555
N8 C17 1_555 1_555
C16 C11 1_555 1_555
H23 C16 1_555 1_555
H24 C16 1_555 1_555
C17 C16 1_555 1_555
H25 C17 1_555 1_555
H26 C17 1_555 1_555
C18 N8 1_555 1_555
H27 C18 1_555 1_555
C19 C18 1_555 1_555
H28 C19 1_555 1_555
C20 N7 1_555 1_555
H29 C20 1_555 1_555
Zn9 N7 1_555 1_555
O65 Zn2 1_555 1_555
O66 Zn2 1_555 1_555
O67 Zn2 1_555 1_555
Mo4 O10 1_555 1_555
Mo4 O29 1_555 1_555
Mo5 O12 1_555 1_555
Mo6 O9 1_555 1_555
Mo6 O13 1_555 1_555
Mo6 O21 1_555 1_555
Mo6 O23 1_555 1_555
Zn2 O8 1_555 1_555
Zn2 O9 1_555 1_555
P1 O22 1_555 1_555
P2 O23 1_555 1_555
P2 O29 1_555 1_555
P3 O14 1_555 1_555
P3 O16 1_555 1_555
P4 O11 1_555 1_555
P4 O31 1_555 1_555
N6 C15 1_555 1_555
C13 C14 1_555 1_555
N8 C20 1_555 1_555
C1 H2 1_555 1_555
H3 C2 1_555 1_555
N9 Zn5 1_555 1_555
N11 C27 1_555 1_555
N12 H30 1_555 1_555
C23 N9 1_555 1_555
H33 C23 1_555 1_555
C24 N10 1_555 1_555
H34 C24 1_555 1_555
H35 C24 1_555 1_555
C25 C24 1_555 1_555
H36 C25 1_555 1_555
H37 C25 1_555 1_555
C26 C25 1_555 1_555
H38 C26 1_555 1_555
H39 C26 1_555 1_555
C27 C26 1_555 1_555
H40 C27 1_555 1_555
H41 C27 1_555 1_555
C28 N12 1_555 1_555
H42 C28 1_555 1_555
C29 N11 1_555 1_555
H43 C29 1_555 1_555
C30 N11 1_555 1_555
H44 C30 1_555 1_555
C1 C2 1_555 1_555
N10 C23 1_555 1_555
N12 C30 1_555 1_555
C28 C29 1_555 1_555
Mo8 O40 1_555 1_555
Mo9 O36 1_555 1_555
Mo11 O35 1_555 1_555
Mo12 O39 1_555 1_555
P5 O47 1_555 1_555
P6 O36 1_555 1_555
P8 O39 1_555 1_555
O34 Zn4_2 1_555 1_555
O36 Mo11 1_555 1_555
O40 Mo7 1_555 1_555
O41 Mo11 1_555 1_555
O42 Mo9 1_555 1_555
O43 Mo8 1_555 1_555
O44 Mo9 1_555 1_555
O45 Mo11 1_555 1_555
O46 Mo9 1_555 1_555
O48 Mo11 1_555 1_555
O49 Mo12 1_555 1_555
O50 Zn3_2 1_555 1_555
O53 Mo8 1_555 1_555
O55 Mo8 1_555 1_555
O61 Mo7 1_555 1_555
O63 Zn3_2 1_555 1_555
N13 Zn4_2 1_555 1_555
Mo11 O44 1_555 1_555
Mo12 O41 1_555 1_555
Mo12 O45 1_555 1_555
Mo12 O53 1_555 1_555
Mo12 O55 1_555 1_555
P6 O50 1_555 1_555
P6 O55 1_555 1_555
P6 O61 1_555 1_555
P7 O34 1_555 1_555
P7 O46 1_555 1_555
P7 O48 1_555 1_555
P8 O43 1_555 1_555
P8 O58 1_555 1_555
P8 O63 1_555 1_555
O40 Zn8 1_555 1_555
O41 Zn8 1_555 1_555
Mo10 O37 1_555 1_555
O38 Mo10 1_555 1_555
O51 Mo10 1_555 1_555
O54 Mo10 1_555 1_555
Zn8_2 O37 1_555 1_555
N1 Zn1 1_555 1_555
N3 C7 1_555 1_555
N4 H1 1_555 1_555
C3 N1 1_555 1_555
H4 C3 1_555 1_555
C4 N2 1_555 1_555
H5 C4 1_555 1_555
H6 C4 1_555 1_555
C5 C4 1_555 1_555
H7 C5 1_555 1_555
H8 C5 1_555 1_555
C6 C5 1_555 1_555
H9 C6 1_555 1_555
H10 C6 1_555 1_555
C7 C6 1_555 1_555
H11 C7 1_555 1_555
H12 C7 1_555 1_555
C8 N4 1_555 1_555
H13 C8 1_555 1_555
C9 N3 1_555 1_555
H14 C9 1_555 1_555
C10 N3 1_555 1_555
H15 C10 1_555 1_555
C21 H31 1_555 1_555
H32 C22 1_555 1_555
N2 C3 1_555 1_555
N4 C10 1_555 1_555
C8 C9 1_555 1_555
C21 C22 1_555 1_555
N6_2 C12_2 1_555 1_555
C11_2 H16_2 1_555 1_555
H17_2 C11_2 1_555 1_555
C12_2 C11_2 1_555 1_555
H18_2 C12_2 1_555 1_555
H19_2 C12_2 1_555 1_555
C13_2 N6_2 1_555 1_555
H20_2 C13_2 1_555 1_555
C14_2 N13 1_555 1_555
H21_2 C14_2 1_555 1_555
C15_2 N13 1_555 1_555
H22_2 C15_2 1_555 1_555
O65_2 Zn8 1_555 1_555
N6_2 C15_2 1_555 1_555
C13_2 C14_2 1_555 1_555
N7_2 C19_2 1_555 1_555
N8_2 C17_2 1_555 1_555
H23_2 C16_2 1_555 1_555
H24_2 C16_2 1_555 1_555
C17_2 C16_2 1_555 1_555
H25_2 C17_2 1_555 1_555
H26_2 C17_2 1_555 1_555
C18_2 N8_2 1_555 1_555
H27_2 C18_2 1_555 1_555
C19_2 C18_2 1_555 1_555
H28_2 C19_2 1_555 1_555
C20_2 N7_2 1_555 1_555
H29_2 C20_2 1_555 1_555
Zn9 N7_2 1_555 1_555
O66_2 Zn8_2 1_555 1_555
O67_2 Zn8_2 1_555 1_555
N8_2 C20_2 1_555 1_555
Zn4_3 O2_2 1_555 1_555
N5_2 Zn4_3 1_555 1_555
N6_3 C12_3 1_555 1_555
C11_3 H16_3 1_555 1_555
H17_3 C11_3 1_555 1_555
C12_3 C11_3 1_555 1_555
H18_3 C12_3 1_555 1_555
H19_3 C12_3 1_555 1_555
C13_3 N6_3 1_555 1_555
H20_3 C13_3 1_555 1_555
C14_3 N5_2 1_555 1_555
H21_3 C14_3 1_555 1_555
C15_3 N5_2 1_555 1_555
H22_3 C15_3 1_555 1_555
N7_3 C19_3 1_555 1_555
N8_3 C17_3 1_555 1_555
C16_3 C11_3 1_555 1_555
H23_3 C16_3 1_555 1_555
H24_3 C16_3 1_555 1_555
C17_3 C16_3 1_555 1_555
H25_3 C17_3 1_555 1_555
H26_3 C17_3 1_555 1_555
C18_3 N8_3 1_555 1_555
H27_3 C18_3 1_555 1_555
C19_3 C18_3 1_555 1_555
H28_3 C19_3 1_555 1_555
C20_3 N7_3 1_555 1_555
H29_3 C20_3 1_555 1_555
O34_2 Zn4_3 1_555 1_555
Zn9_3 N7_3 1_555 1_555
N13_2 Zn4_3 1_555 1_555
N6_3 C15_3 1_555 1_555
C13_3 C14_3 1_555 1_555
N8_3 C20_3 1_555 1_555
Mo1_2 O6_2 1_555 1_555
Mo2_2 O8_2 1_555 1_555
Mo3_2 O4_2 1_555 1_555
Mo4_2 O5_2 1_555 1_555
Mo5_2 O3_2 1_555 1_555
Mo6_2 O7_2 1_555 1_555
Zn1_2 O15_2 1_555 1_555
Zn2_2 O5_2 1_555 1_555
Zn3_3 O18_2 1_555 1_555
P1_2 O15_2 1_555 1_555
P2_2 O4_2 1_555 1_555
P3_2 O1_2 1_555 1_555
P4_2 O7_2 1_555 1_555
O4_2 Mo5_2 1_555 1_555
O5_2 Mo3_2 1_555 1_555
O6_2 Mo4_2 1_555 1_555
O8_2 Mo1_2 1_555 1_555
O9_2 Mo5_2 1_555 1_555
O10_2 Mo3_2 1_555 1_555
O11_2 Mo2_2 1_555 1_555
O12_2 Mo3_2 1_555 1_555
O13_2 Mo5_2 1_555 1_555
O14_2 Mo3_2 1_555 1_555
O16_2 Mo5_2 1_555 1_555
O17_2 Mo6_2 1_555 1_555
O18_2 P2_2 1_555 1_555
O19_2 Mo4_2 1_555 1_555
O20_2 Mo1_2 1_555 1_555
O21_2 Mo2_2 1_555 1_555
O22_2 Mo4_2 1_555 1_555
O23_2 Mo2_2 1_555 1_555
O24_2 Mo2_2 1_555 1_555
O25_2 Mo1_2 1_555 1_555
O26_2 P4_2 1_555 1_555
O27_2 Mo3_2 1_555 1_555
O28_2 Mo1_2 1_555 1_555
O29_2 Mo1_2 1_555 1_555
O30_2 P1_2 1_555 1_555
O31_2 Zn3_3 1_555 1_555
O32_2 Zn3_3 1_555 1_555
N1_2 Zn1_2 1_555 1_555
N2_2 C1_2 1_555 1_555
C1_2 H2_2 1_555 1_555
C2_2 N1_2 1_555 1_555
H3_2 C2_2 1_555 1_555
C3_2 N1_2 1_555 1_555
H4_2 C3_2 1_555 1_555
C4_2 N2_2 1_555 1_555
H5_2 C4_2 1_555 1_555
H6_2 C4_2 1_555 1_555
C5_2 C4_2 1_555 1_555
H7_2 C5_2 1_555 1_555
H8_2 C5_2 1_555 1_555
Mo8_2 O40_2 1_555 1_555
Mo9_2 O36_2 1_555 1_555
Mo11_2 O35_2 1_555 1_555
Mo12_2 O39_2 1_555 1_555
Zn5_2 O26_2 1_555 1_555
P5_2 O47_2 1_555 1_555
P6_2 O36_2 1_555 1_555
P7_2 O33_2 1_555 1_555
P8_2 O39_2 1_555 1_555
O36_2 Mo11_2 1_555 1_555
O40_2 Mo7_2 1_555 1_555
O41_2 Mo11_2 1_555 1_555
O42_2 Mo9_2 1_555 1_555
O43_2 Mo8_2 1_555 1_555
O44_2 Mo9_2 1_555 1_555
O45_2 Mo11_2 1_555 1_555
O46_2 Mo9_2 1_555 1_555
O47_2 Zn5_2 1_555 1_555
O48_2 Mo11_2 1_555 1_555
O49_2 Mo12_2 1_555 1_555
O50_2 Zn3_3 1_555 1_555
O52_2 Mo7_2 1_555 1_555
O53_2 Mo8_2 1_555 1_555
O55_2 Mo8_2 1_555 1_555
O56_2 Mo8_2 1_555 1_555
O57_2 Mo7_2 1_555 1_555
O58_2 Zn1_2 1_555 1_555
O61_2 Mo7_2 1_555 1_555
O63_2 Zn3_3 1_555 1_555
O64_2 Zn3_3 1_555 1_555
N9_2 Zn5_2 1_555 1_555
N10_2 C21_2 1_555 1_555
C21_2 H31_2 1_555 1_555
C22_2 N9_2 1_555 1_555
H32_2 C22_2 1_555 1_555
C23_2 N9_2 1_555 1_555
H33_2 C23_2 1_555 1_555
C24_2 N10_2 1_555 1_555
H34_2 C24_2 1_555 1_555
H35_2 C24_2 1_555 1_555
C25_2 C24_2 1_555 1_555
H36_2 C25_2 1_555 1_555
H37_2 C25_2 1_555 1_555
Zn6_2 O30_2 1_555 1_555
O65_3 Zn2_2 1_555 1_555
O66_3 Zn2_2 1_555 1_555
O67_3 Zn2_2 1_555 1_555
O68_2 Zn1_2 1_555 1_555
O69_2 Zn5_2 1_555 1_555
Mo2_2 O20_2 1_555 1_555
Mo4_2 O10_2 1_555 1_555
Mo4_2 O29_2 1_555 1_555
Mo5_2 O12_2 1_555 1_555
Mo6_2 O9_2 1_555 1_555
Mo6_2 O13_2 1_555 1_555
Mo6_2 O21_2 1_555 1_555
Mo6_2 O23_2 1_555 1_555
Zn2_2 O8_2 1_555 1_555
Zn2_2 O9_2 1_555 1_555
P1_2 O22_2 1_555 1_555
P1_2 O25_2 1_555 1_555
P2_2 O23_2 1_555 1_555
P2_2 O29_2 1_555 1_555
P3_2 O14_2 1_555 1_555
P3_2 O16_2 1_555 1_555
P4_2 O11_2 1_555 1_555
P4_2 O31_2 1_555 1_555
N2_2 C3_2 1_555 1_555
C1_2 C2_2 1_555 1_555
Mo8_2 O52_2 1_555 1_555
Mo11_2 O44_2 1_555 1_555
Mo12_2 O41_2 1_555 1_555
Mo12_2 O45_2 1_555 1_555
Mo12_2 O53_2 1_555 1_555
Mo12_2 O55_2 1_555 1_555
P5_2 O57_2 1_555 1_555
P6_2 O50_2 1_555 1_555
P6_2 O55_2 1_555 1_555
P6_2 O61_2 1_555 1_555
P7_2 O46_2 1_555 1_555
P7_2 O48_2 1_555 1_555
P8_2 O43_2 1_555 1_555
P8_2 O58_2 1_555 1_555
P8_2 O63_2 1_555 1_555
O40_2 Zn8_3 1_555 1_555
O41_2 Zn8_3 1_555 1_555
N10_2 C23_2 1_555 1_555
C21_2 C22_2 1_555 1_555
Mo10_2 O37_2 1_555 1_555
O38_2 Mo10_2 1_555 1_555
O51_2 Mo10_2 1_555 1_555
O54_2 Mo10_2 1_555 1_555
Zn7_2 O62_2 1_555 1_555
Zn8_4 O37_2 1_555 1_555
N6_4 C12_4 1_555 1_555
C11_4 H16_4 1_555 1_555
H17_4 C11_4 1_555 1_555
C12_4 C11_4 1_555 1_555
H18_4 C12_4 1_555 1_555
H19_4 C12_4 1_555 1_555
C13_4 N6_4 1_555 1_555
H20_4 C13_4 1_555 1_555
C14_4 N13_2 1_555 1_555
H21_4 C14_4 1_555 1_555
C15_4 N13_2 1_555 1_555
H22_4 C15_4 1_555 1_555
N6_4 C15_4 1_555 1_555
C13_4 C14_4 1_555 1_555
N7_4 C19_4 1_555 1_555
N8_4 C17_4 1_555 1_555
H23_4 C16_4 1_555 1_555
H24_4 C16_4 1_555 1_555
C17_4 C16_4 1_555 1_555
H25_4 C17_4 1_555 1_555
H26_4 C17_4 1_555 1_555
C18_4 N8_4 1_555 1_555
H27_4 C18_4 1_555 1_555
C19_4 C18_4 1_555 1_555
H28_4 C19_4 1_555 1_555
C20_4 N7_4 1_555 1_555
H29_4 C20_4 1_555 1_555
Zn9_2 N7_4 1_555 1_555
N8_4 C20_4 1_555 1_555
O65_4 Zn8_3 1_555 1_555
O66_4 Zn8_4 1_555 1_555
O67_4 Zn8_4 1_555 1_555
N1_3 Zn6 1_555 1_555
N3_2 C7_2 1_555 1_555
N4_2 H1_2 1_555 1_555
C3_3 N1_3 1_555 1_555
H4_3 C3_3 1_555 1_555
C4_3 N2_3 1_555 1_555
H5_3 C4_3 1_555 1_555
H6_3 C4_3 1_555 1_555
C5_3 C4_3 1_555 1_555
H7_3 C5_3 1_555 1_555
H8_3 C5_3 1_555 1_555
C6_2 C5_3 1_555 1_555
H9_2 C6_2 1_555 1_555
H10_2 C6_2 1_555 1_555
C7_2 C6_2 1_555 1_555
H11_2 C7_2 1_555 1_555
H12_2 C7_2 1_555 1_555
C8_2 N4_2 1_555 1_555
H13_2 C8_2 1_555 1_555
C9_2 N3_2 1_555 1_555
H14_2 C9_2 1_555 1_555
C10_2 N3_2 1_555 1_555
H15_2 C10_2 1_555 1_555
C21_3 H31_3 1_555 1_555
H32_3 C22_3 1_555 1_555
N2_3 C3_3 1_555 1_555
N4_2 C10_2 1_555 1_555
C8_2 C9_2 1_555 1_555
C21_3 C22_3 1_555 1_555
Mo10_3 O65_4 1_555 1_555
O38_3 Mo10_3 1_555 1_555
O51_3 Mo10_3 1_555 1_555
O54_3 Mo10_3 1_555 1_555
Mo8_3 O66_4 1_555 1_555
Mo9_3 O36_3 1_555 1_555
Mo11_3 O35_3 1_555 1_555
Mo12_3 O39_3 1_555 1_555
P5_3 O47_3 1_555 1_555
P6_3 O36_3 1_555 1_555
P8_3 O39_3 1_555 1_555
O34_3 Zn9_2 1_555 1_555
O36_3 Mo11_3 1_555 1_555
O66_4 Mo7_3 1_555 1_555
O67_4 Mo11_3 1_555 1_555
O42_3 Mo9_3 1_555 1_555
O43_3 Mo8_3 1_555 1_555
O44_3 Mo9_3 1_555 1_555
O45_3 Mo11_3 1_555 1_555
O46_3 Mo9_3 1_555 1_555
O48_3 Mo11_3 1_555 1_555
O49_3 Mo12_3 1_555 1_555
O50_3 Zn3_4 1_555 1_555
O53_3 Mo8_3 1_555 1_555
O55_3 Mo8_3 1_555 1_555
O61_3 Mo7_3 1_555 1_555
O63_3 Zn3_4 1_555 1_555
Mo11_3 O44_3 1_555 1_555
Mo12_3 O67_4 1_555 1_555
Mo12_3 O45_3 1_555 1_555
Mo12_3 O53_3 1_555 1_555
Mo12_3 O55_3 1_555 1_555
P6_3 O50_3 1_555 1_555
P6_3 O55_3 1_555 1_555
P6_3 O61_3 1_555 1_555
P7_3 O34_3 1_555 1_555
P7_3 O46_3 1_555 1_555
P7_3 O48_3 1_555 1_555
P8_3 O43_3 1_555 1_555
P8_3 O58_3 1_555 1_555
P8_3 O63_3 1_555 1_555
C1_3 H2_3 1_555 1_555
H3_3 C2_3 1_555 1_555
N9_3 Zn7 1_555 1_555
N11_2 C27_2 1_555 1_555
N12_2 H30_2 1_555 1_555
C23_3 N9_3 1_555 1_555
H33_3 C23_3 1_555 1_555
C24_3 N10_3 1_555 1_555
H34_3 C24_3 1_555 1_555
H35_3 C24_3 1_555 1_555
C25_3 C24_3 1_555 1_555
H36_3 C25_3 1_555 1_555
H37_3 C25_3 1_555 1_555
C26_2 C25_3 1_555 1_555
H38_2 C26_2 1_555 1_555
H39_2 C26_2 1_555 1_555
C27_2 C26_2 1_555 1_555
H40_2 C27_2 1_555 1_555
H41_2 C27_2 1_555 1_555
C28_2 N12_2 1_555 1_555
H42_2 C28_2 1_555 1_555
C29_2 N11_2 1_555 1_555
H43_2 C29_2 1_555 1_555
C30_2 N11_2 1_555 1_555
H44_2 C30_2 1_555 1_555
C1_3 C2_3 1_555 1_555
N10_3 C23_3 1_555 1_555
N12_2 C30_2 1_555 1_555
C28_2 C29_2 1_555 1_555
Mo1_3 O6_3 1_555 1_555
Mo2_3 O66_3 1_555 1_555
Mo3_3 O4_3 1_555 1_555
Mo4_3 O65_3 1_555 1_555
Mo5_3 O3_3 1_555 1_555
Mo6_3 O7_3 1_555 1_555
Zn3_5 O18_3 1_555 1_555
Zn9_3 O2_3 1_555 1_555
P1_3 O15_3 1_555 1_555
P2_3 O4_3 1_555 1_555
P4_3 O7_3 1_555 1_555
O2_3 P3_3 1_555 1_555
O4_3 Mo5_3 1_555 1_555
O65_3 Mo3_3 1_555 1_555
O6_3 Mo4_3 1_555 1_555
O66_3 Mo1_3 1_555 1_555
O67_3 Mo5_3 1_555 1_555
O10_3 Mo3_3 1_555 1_555
O11_3 Mo2_3 1_555 1_555
O12_3 Mo3_3 1_555 1_555
O13_3 Mo5_3 1_555 1_555
O14_3 Mo3_3 1_555 1_555
O16_3 Mo5_3 1_555 1_555
O17_3 Mo6_3 1_555 1_555
O18_3 P2_3 1_555 1_555
O19_3 Mo4_3 1_555 1_555
O21_3 Mo2_3 1_555 1_555
O22_3 Mo4_3 1_555 1_555
O23_3 Mo2_3 1_555 1_555
O26_3 P4_3 1_555 1_555
O27_3 Mo3_3 1_555 1_555
O29_3 Mo1_3 1_555 1_555
O31_3 Zn3_5 1_555 1_555
Mo4_3 O10_3 1_555 1_555
Mo4_3 O29_3 1_555 1_555
Mo5_3 O12_3 1_555 1_555
Mo6_3 O67_3 1_555 1_555
Mo6_3 O13_3 1_555 1_555
Mo6_3 O21_3 1_555 1_555
Mo6_3 O23_3 1_555 1_555
P1_3 O22_3 1_555 1_555
P2_3 O23_3 1_555 1_555
P2_3 O29_3 1_555 1_555
P3_3 O14_3 1_555 1_555
P3_3 O16_3 1_555 1_555
P4_3 O11_3 1_555 1_555
P4_3 O31_3 1_555 1_555
Mo10_4 O65_2 1_555 1_555
O38_4 Mo10_4 1_555 1_555
O51_4 Mo10_4 1_555 1_555
O54_4 Mo10_4 1_555 1_555
Mo1_4 O6_4 1_555 1_555
Mo2_4 O66 1_555 1_555
Mo3_4 O4_4 1_555 1_555
Mo4_4 O65 1_555 1_555
Mo5_4 O3_4 1_555 1_555
Mo6_4 O7_4 1_555 1_555
Zn6_2 O15_4 1_555 1_555
Zn3_6 O18_4 1_555 1_555
P1_4 O15_4 1_555 1_555
P2_4 O4_4 1_555 1_555
P3_4 O1_4 1_555 1_555
P4_4 O7_4 1_555 1_555
O4_4 Mo5_4 1_555 1_555
O65 Mo3_4 1_555 1_555
O6_4 Mo4_4 1_555 1_555
O66 Mo1_4 1_555 1_555
O67 Mo5_4 1_555 1_555
O10_4 Mo3_4 1_555 1_555
O11_4 Mo2_4 1_555 1_555
O12_4 Mo3_4 1_555 1_555
O13_4 Mo5_4 1_555 1_555
O14_4 Mo3_4 1_555 1_555
O16_4 Mo5_4 1_555 1_555
O17_4 Mo6_4 1_555 1_555
O18_4 P2_4 1_555 1_555
O19_4 Mo4_4 1_555 1_555
O20_4 Mo1_4 1_555 1_555
O21_4 Mo2_4 1_555 1_555
O22_4 Mo4_4 1_555 1_555
O23_4 Mo2_4 1_555 1_555
O24_4 Mo2_4 1_555 1_555
O25_4 Mo1_4 1_555 1_555
O26_4 P4_4 1_555 1_555
O27_4 Mo3_4 1_555 1_555
O28_4 Mo1_4 1_555 1_555
O29_4 Mo1_4 1_555 1_555
O68_2 P1_4 1_555 1_555
O31_4 Zn3_6 1_555 1_555
O32_4 Zn3_6 1_555 1_555
N1_4 Zn6_2 1_555 1_555
N2_4 C1_4 1_555 1_555
C1_4 H2_4 1_555 1_555
C2_4 N1_4 1_555 1_555
H3_4 C2_4 1_555 1_555
C3_4 N1_4 1_555 1_555
H4_4 C3_4 1_555 1_555
C4_4 N2_4 1_555 1_555
H5_4 C4_4 1_555 1_555
H6_4 C4_4 1_555 1_555
C5_4 C4_4 1_555 1_555
H7_4 C5_4 1_555 1_555
H8_4 C5_4 1_555 1_555
Mo8_4 O66_2 1_555 1_555
Mo9_4 O36_4 1_555 1_555
Mo11_4 O35_4 1_555 1_555
Mo12_4 O39_4 1_555 1_555
Zn7_2 O26_4 1_555 1_555
P5_4 O47_4 1_555 1_555
P6_4 O36_4 1_555 1_555
P7_4 O33_4 1_555 1_555
P8_4 O39_4 1_555 1_555
O36_4 Mo11_4 1_555 1_555
O66_2 Mo7_4 1_555 1_555
O67_2 Mo11_4 1_555 1_555
O42_4 Mo9_4 1_555 1_555
O43_4 Mo8_4 1_555 1_555
O44_4 Mo9_4 1_555 1_555
O45_4 Mo11_4 1_555 1_555
O46_4 Mo9_4 1_555 1_555
O47_4 Zn7_2 1_555 1_555
O48_4 Mo11_4 1_555 1_555
O49_4 Mo12_4 1_555 1_555
O50_4 Zn3_6 1_555 1_555
O52_4 Mo7_4 1_555 1_555
O53_4 Mo8_4 1_555 1_555
O55_4 Mo8_4 1_555 1_555
O56_4 Mo8_4 1_555 1_555
O57_4 Mo7_4 1_555 1_555
O58_4 Zn6_2 1_555 1_555
O61_4 Mo7_4 1_555 1_555
O63_4 Zn3_6 1_555 1_555
O64_4 Zn3_6 1_555 1_555
N9_4 Zn7_2 1_555 1_555
N10_4 C21_4 1_555 1_555
C21_4 H31_4 1_555 1_555
C22_4 N9_4 1_555 1_555
H32_4 C22_4 1_555 1_555
C23_4 N9_4 1_555 1_555
H33_4 C23_4 1_555 1_555
C24_4 N10_4 1_555 1_555
H34_4 C24_4 1_555 1_555
H35_4 C24_4 1_555 1_555
C25_4 C24_4 1_555 1_555
H36_4 C25_4 1_555 1_555
H37_4 C25_4 1_555 1_555
Mo2_4 O20_4 1_555 1_555
Mo4_4 O10_4 1_555 1_555
Mo4_4 O29_4 1_555 1_555
Mo5_4 O12_4 1_555 1_555
Mo6_4 O67 1_555 1_555
Mo6_4 O13_4 1_555 1_555
Mo6_4 O21_4 1_555 1_555
Mo6_4 O23_4 1_555 1_555
P1_4 O22_4 1_555 1_555
P1_4 O25_4 1_555 1_555
P2_4 O23_4 1_555 1_555
P2_4 O29_4 1_555 1_555
P3_4 O14_4 1_555 1_555
P3_4 O16_4 1_555 1_555
P4_4 O11_4 1_555 1_555
P4_4 O31_4 1_555 1_555
N2_4 C3_4 1_555 1_555
C1_4 C2_4 1_555 1_555
Mo8_4 O52_4 1_555 1_555
Mo11_4 O44_4 1_555 1_555
Mo12_4 O67_2 1_555 1_555
Mo12_4 O45_4 1_555 1_555
Mo12_4 O53_4 1_555 1_555
Mo12_4 O55_4 1_555 1_555
P5_4 O57_4 1_555 1_555
P6_4 O50_4 1_555 1_555
P6_4 O55_4 1_555 1_555
P6_4 O61_4 1_555 1_555
P7_4 O46_4 1_555 1_555
P7_4 O48_4 1_555 1_555
P8_4 O43_4 1_555 1_555
P8_4 O58_4 1_555 1_555
P8_4 O63_4 1_555 1_555
N10_4 C23_4 1_555 1_555
C21_4 C22_4 1_555 1_555
Zn9 O2_4 1_555 1_555
O34_4 Zn9 1_555 1_555
N3_3 C7_3 1_555 1_555
N4_3 H1_3 1_555 1_555
H9_3 C6_3 1_555 1_555
H10_3 C6_3 1_555 1_555
C7_3 C6_3 1_555 1_555
H11_3 C7_3 1_555 1_555
H12_3 C7_3 1_555 1_555
C8_3 N4_3 1_555 1_555
H13_3 C8_3 1_555 1_555
C9_3 N3_3 1_555 1_555
H14_3 C9_3 1_555 1_555
C10_3 N3_3 1_555 1_555
H15_3 C10_3 1_555 1_555
N11_3 C27_3 1_555 1_555
N12_3 H30_3 1_555 1_555
H38_3 C26_3 1_555 1_555
H39_3 C26_3 1_555 1_555
C27_3 C26_3 1_555 1_555
H40_3 C27_3 1_555 1_555
H41_3 C27_3 1_555 1_555
C28_3 N12_3 1_555 1_555
H42_3 C28_3 1_555 1_555
C29_3 N11_3 1_555 1_555
H43_3 C29_3 1_555 1_555
C30_3 N11_3 1_555 1_555
H44_3 C30_3 1_555 1_555
N4_3 C10_3 1_555 1_555
C8_3 C9_3 1_555 1_555
N12_3 C30_3 1_555 1_555
C28_3 C29_3 1_555 1_555
N3_4 C7_4 1_555 1_555
N4_4 H1_4 1_555 1_555
H9_4 C6_4 1_555 1_555
H10_4 C6_4 1_555 1_555
C7_4 C6_4 1_555 1_555
H11_4 C7_4 1_555 1_555
H12_4 C7_4 1_555 1_555
C8_4 N4_4 1_555 1_555
H13_4 C8_4 1_555 1_555
C9_4 N3_4 1_555 1_555
H14_4 C9_4 1_555 1_555
C10_4 N3_4 1_555 1_555
H15_4 C10_4 1_555 1_555
N11_4 C27_4 1_555 1_555
N12_4 H30_4 1_555 1_555
H38_4 C26_4 1_555 1_555
H39_4 C26_4 1_555 1_555
C27_4 C26_4 1_555 1_555
H40_4 C27_4 1_555 1_555
H41_4 C27_4 1_555 1_555
C28_4 N12_4 1_555 1_555
H42_4 C28_4 1_555 1_555
C29_4 N11_4 1_555 1_555
H43_4 C29_4 1_555 1_555
C30_4 N11_4 1_555 1_555
H44_4 C30_4 1_555 1_555
N4_4 C10_4 1_555 1_555
C8_4 C9_4 1_555 1_555
N12_4 C30_4 1_555 1_555
C28_4 C29_4 1_555 1_555

#END
