
###############################################################################
#
# This file contains modified crystal structure data generated from the
# MOF subset of the Cambridge Structural Database (CSD) v543 
# hosted by the Cambridge Crystallographic Data Centre (CCDC).
#
# This work is licensed under the Creative Commons
# Attribution-NonCommercial-ShareAlike 4.0 International License.
# To view a copy of this license, visit
# http://creativecommons.org/licenses/by-nc-sa/4.0/
# or send a letter to
# Creative Commons, PO Box 1866, Mountain View, CA 94042, USA.
#
# CIF created using the CSD Python API on 29 September 2022
# The structure has been converted into the P1 space group
# The structure has a 3D framework
# The original CSD entry OWAKOP is in the rhombohedral crystal system
# The framework has been calculated to contain at least 10.0% void space
# The void calculation uses a probe of radius 1.32A, grid spacing 0.4
# The framework is charged, counterions have been retained in the structure
#
###############################################################################

data_OWAKOP
_chemical_formula_moiety         '(C900 H648 In58 N96 O324 3+)n'
_symmetry_cell_setting           triclinic
_symmetry_space_group_name_H-M   'P 1'
_symmetry_Int_Tables_number      1
_space_group_name_Hall           'P 1'
loop_
_symmetry_equiv_pos_site_id
_symmetry_equiv_pos_as_xyz
1 x,y,z
_cell_length_a                   23.4502(15)
_cell_length_b                   23.4502(15)
_cell_length_c                   70.100(8)
_cell_angle_alpha                90
_cell_angle_beta                 90
_cell_angle_gamma                120
_cell_volume                     33384.3
loop_
_atom_site_label
_atom_site_type_symbol
_atom_site_fract_x
_atom_site_fract_y
_atom_site_fract_z
O4 O 0.0316(2) 0.8538(3) 0.33334(9)
O5 O 0.0623(3) 0.7803(3) 0.33718(13)
C8 C 0.0227(3) 0.8003(4) 0.33880(11)
In15 In 0.166666 0.833333 0.333333
In28 In 0.10942(3) 0.94593(2) 0.32207(2)
In1 In 0.166667 0.333333 0.333333
In2 In 0.27926(2) 0.50317(2) 0.34460(2)
O1 O 0.3718(2) 0.5215(2) 0.35595(8)
N1 N 0.333333 0.666667 0.3312(2)
O2 O 0.2337(2) 0.4042(2) 0.35207(7)
H1 H 0.243362 0.391300 0.363933
O3 O 0.6349(3) 0.4831(3) 0.48242(8)
N2 N 0.7111(3) 0.6185(3) 0.36491(8)
N3 N 0.7636(3) 0.6138(3) 0.39048(8)
C1 C 0.9574(3) 0.7534(3) 0.34757(9)
O6 O 0.3527(3) 0.4201(3) 0.36113(11)
C2 C 0.8348(3) 0.6732(4) 0.36295(10)
C3 C 0.9460(3) 0.6976(4) 0.35688(11)
H2 H 0.979734 0.686565 0.357806
C4 C 0.6308(3) 0.5242(4) 0.45154(11)
C5 C 0.8833(4) 0.6562(3) 0.36517(10)
H3 H 0.874677 0.617871 0.372067
C6 C 0.8472(4) 0.7283(4) 0.35323(11)
H4 H 0.812967 0.738402 0.351504
C7 C 0.9076(4) 0.7689(4) 0.34601(11)
H5 H 0.916121 0.808375 0.339797
O7 O 0.2513(4) 0.5253(4) 0.37231(11)
H6 H 0.222180 0.493092 0.382965
H7 H 0.263822 0.570805 0.378162
O8 O 0.3249(3) 0.6024(3) 0.33699(11)
O9 O 0.5574(3) 0.5059(3) 0.47549(8)
C9 C 0.5684(4) 0.6019(4) 0.37036(11)
H8 H 0.597742 0.648114 0.370086
C10 C 0.6639(3) 0.5874(4) 0.37896(11)
C11 C 0.6070(4) 0.5040(5) 0.47198(12)
C12 C 0.5928(3) 0.5608(4) 0.37502(11)
C13 C 0.7711(3) 0.6346(4) 0.37241(10)
C14 C 0.4594(4) 0.5086(4) 0.36668(11)
C15 C 0.6964(4) 0.6250(5) 0.34483(11)
H9 H 0.688083 0.661788 0.343603
H10 H 0.657371 0.584181 0.340713
H11 H 0.734040 0.633168 0.336823
C16 C 0.3877(3) 0.4795(4) 0.36088(11)
C17 C 0.5027(4) 0.5777(4) 0.36608(11)
H12 H 0.486961 0.606729 0.362822
C18 C 0.6973(4) 0.5867(4) 0.39480(11)
C19 C 0.6010(4) 0.5511(4) 0.44032(13)
H13 H 0.566477 0.556398 0.445487
C20 C 0.6726(3) 0.5643(4) 0.41445(11)
C21 C 0.7016(4) 0.5371(4) 0.42536(12)
H14 H 0.735917 0.531677 0.420074
C22 C 0.6810(4) 0.5170(5) 0.44444(11)
H15 H 0.701592 0.498983 0.452060
C23 C 0.5498(4) 0.4941(4) 0.37600(13)
H16 H 0.565536 0.465426 0.379655
C24 C 0.4837(4) 0.4683(4) 0.37171(14)
H17 H 0.454787 0.422038 0.372253
C25 C 0.6216(4) 0.5703(5) 0.42142(13)
H18 H 0.600365 0.587286 0.413634
O10 O 0.3976(3) 0.7225(4) 0.33699(11)
O11 O 0.2775(4) 0.6751(3) 0.33699(11)
O14 O 0.5169(3) 0.1518(4) 0.48242(8)
O15 O 0.1462(3) 0.1778(4) 0.33334(9)
O16 O 0.2197(3) 0.2820(4) 0.33718(13)
N4 N 0.3815(3) 0.0926(4) 0.36491(8)
N5 N 0.3862(3) 0.1498(4) 0.39048(8)
C26 C 0.2466(3) 0.2040(4) 0.34757(9)
C27 C 0.3268(4) 0.1616(5) 0.36295(10)
C28 C 0.3024(4) 0.2484(5) 0.35688(11)
H20 H 0.313435 0.293169 0.357806
C29 C 0.4758(4) 0.1066(5) 0.45154(11)
C30 C 0.3438(3) 0.2271(5) 0.36517(10)
H21 H 0.382129 0.256806 0.372067
C31 C 0.2717(4) 0.1189(6) 0.35323(11)
H22 H 0.261598 0.074565 0.351504
C32 C 0.2311(4) 0.1387(6) 0.34601(11)
H23 H 0.191625 0.107746 0.339797
C33 C 0.1997(4) 0.2224(5) 0.33880(11)
O19 O 0.4941(3) 0.0515(4) 0.47549(8)
C35 C 0.4126(4) 0.0765(5) 0.37896(11)
C36 C 0.4960(5) 0.1030(6) 0.47198(12)
C37 C 0.4392(4) 0.0320(5) 0.37502(11)
C38 C 0.3654(4) 0.1365(5) 0.37241(10)
C40 C 0.3750(5) 0.0714(6) 0.34483(11)
H27 H 0.338212 0.026295 0.343603
H28 H 0.415819 0.073190 0.340713
H29 H 0.366832 0.100872 0.336823
C43 C 0.4133(4) 0.1106(6) 0.39480(11)
C44 C 0.4489(4) 0.0499(6) 0.44032(13)
H31 H 0.443602 0.010079 0.445487
C45 C 0.4357(4) 0.1083(5) 0.41445(11)
C46 C 0.4629(4) 0.1645(6) 0.42536(12)
H32 H 0.468323 0.204240 0.420074
C47 C 0.4830(5) 0.1640(6) 0.44444(11)
H33 H 0.501017 0.202609 0.452060
C48 C 0.5059(4) 0.0557(6) 0.37600(13)
H34 H 0.534574 0.100110 0.379655
C49 C 0.5317(4) 0.0154(6) 0.37171(14)
H35 H 0.577962 0.032749 0.372253
C50 C 0.4297(5) 0.0513(6) 0.42142(13)
H36 H 0.412714 0.013079 0.413634
In6 In 0.22391(3) 0.72074(2) 0.34460(2)
O20 O 0.1497(3) 0.6282(2) 0.35595(8)
O21 O 0.1705(3) 0.7663(2) 0.35207(7)
H37 H 0.147938 0.756638 0.363933
O25 O 0.0674(4) 0.6473(3) 0.36113(11)
O26 O 0.2740(6) 0.7487(4) 0.37231(11)
H42 H 0.270912 0.777820 0.382965
H43 H 0.306983 0.736178 0.378162
C59 C 0.0335(6) 0.4316(4) 0.37036(11)
H44 H 0.050372 0.402258 0.370086
C64 C 0.0492(6) 0.5406(4) 0.36668(11)
C66 C 0.0918(5) 0.6123(3) 0.36088(11)
C67 C 0.0750(6) 0.4973(4) 0.36608(11)
H48 H 0.119768 0.513039 0.362822
In7 In 0.05407(2) 0.16350(2) 0.32207(2)
N8 N 0.000000 -0.000000 0.3355(2)
O29 O 0.0996(2) 0.2625(2) 0.31460(7)
H55 H 0.089971 0.275367 0.302734
O34 O 0.0820(4) 0.1414(4) 0.29436(11)
H60 H 0.111153 0.173575 0.283702
H61 H 0.069511 0.095862 0.288505
O35 O 0.0084(3) 0.0643(3) 0.32968(11)
O42 O 0.1871(3) 0.4889(4) 0.33333(9)
O43 O 0.1136(3) 0.3847(4) 0.32949(13)
C101 C 0.0867(3) 0.4627(4) 0.31910(9)
C102 C 0.0065(4) 0.5051(5) 0.30372(10)
C103 C 0.0309(4) 0.4183(5) 0.30979(11)
H74 H 0.019898 0.373498 0.308861
C106 C 0.0616(4) 0.5478(6) 0.31344(11)
H76 H 0.071735 0.592102 0.315163
C107 C 0.1022(4) 0.5280(6) 0.32066(11)
H77 H 0.141708 0.558921 0.326870
C108 C 0.1336(4) 0.4443(5) 0.32787(11)
O47 O 0.1836(3) 0.0385(2) 0.31072(8)
O49 O 0.4851(4) 0.3016(3) 0.18425(8)
O50 O 0.5111(4) 0.6983(2) 0.33333(9)
O51 O 0.6153(4) 0.7290(3) 0.32949(13)
N13 N 0.4259(4) 0.3778(3) 0.30176(8)
N14 N 0.4831(4) 0.4303(3) 0.27619(8)
C126 C 0.5373(4) 0.6241(3) 0.31910(9)
O52 O 0.2659(4) 0.0194(3) 0.30554(11)
C127 C 0.4949(5) 0.5015(3) 0.30372(10)
C128 C 0.5817(5) 0.6127(3) 0.30979(11)
H92 H 0.626502 0.646401 0.308861
C129 C 0.4399(5) 0.2975(3) 0.21513(11)
C130 C 0.5604(5) 0.5500(4) 0.30150(10)
H93 H 0.590139 0.541344 0.294600
C131 C 0.4522(6) 0.5139(4) 0.31344(11)
H94 H 0.407898 0.479634 0.315163
C132 C 0.4720(6) 0.5743(4) 0.32066(11)
H95 H 0.441079 0.582788 0.326870
C133 C 0.5557(5) 0.6894(3) 0.32787(11)
O54 O 0.3848(4) 0.2241(3) 0.19118(8)
C134 C 0.2998(6) 0.2351(4) 0.29631(11)
H98 H 0.282961 0.264409 0.296581
C135 C 0.4098(5) 0.3306(3) 0.28771(11)
C136 C 0.4363(6) 0.2737(4) 0.19469(12)
C137 C 0.3653(5) 0.2595(3) 0.29165(11)
C138 C 0.4698(5) 0.4378(3) 0.29426(10)
C139 C 0.2841(6) 0.1261(4) 0.29999(11)
C140 C 0.4047(6) 0.3631(4) 0.32184(11)
H99 H 0.359628 0.354750 0.323064
H100 H 0.406523 0.324038 0.325954
H101 H 0.434205 0.400707 0.329844
C141 C 0.2415(5) 0.0544(3) 0.30579(11)
C142 C 0.2583(6) 0.1694(4) 0.30059(11)
H102 H 0.213565 0.153628 0.303845
C143 C 0.4439(6) 0.3640(4) 0.27187(11)
C144 C 0.3832(6) 0.2677(4) 0.22635(13)
H103 H 0.343412 0.233144 0.221180
C145 C 0.4416(5) 0.3393(3) 0.25222(11)
C146 C 0.4978(6) 0.3683(4) 0.24131(12)
H104 H 0.537573 0.402584 0.246593
C147 C 0.4973(6) 0.3477(4) 0.22223(11)
H105 H 0.535942 0.368259 0.214607
C148 C 0.3890(6) 0.2165(4) 0.29067(13)
H106 H 0.433443 0.232203 0.287012
C149 C 0.3487(6) 0.1504(4) 0.29496(14)
H107 H 0.366082 0.121454 0.294414
C150 C 0.3846(6) 0.2883(4) 0.24525(13)
H108 H 0.346412 0.267032 0.253033
In12 In 0.666667 0.833334 0.333333
In16 In 0.333333 0.166667 0.166667
In19 In -0.000000 0.500000 0.500000
In20 In 0.500001 0.000000 0.500000
In21 In 0.500000 0.499999 0.500000
In22 In 0.49683(2) 0.77609(3) 0.34460(2)
In24 In 0.50317(2) 0.27926(2) 0.15540(2)
In30 In 0.55724(3) 0.16984(2) 0.51127(2)
In31 In 0.61259(2) 0.44276(3) 0.51127(2)
O56 O 0.1628(3) 0.9004(2) 0.31460(7)
O59 O 0.0318(3) 0.1815(4) 0.35091(8)
O60 O 0.1836(3) 0.6984(3) 0.31575(8)
O62 O 0.3016(3) 0.4851(4) 0.31575(8)
O65 O 0.3017(2) 0.8129(3) 0.33333(9)
O69 O 0.2710(3) 0.8864(3) 0.32949(13)
O73 O 0.1726(3) 0.8907(3) 0.35784(8)
O75 O 0.1093(3) 0.2818(4) 0.35784(8)
O76 O 0.1608(3) 0.7759(3) 0.30882(8)
O78 O 0.2241(3) 0.3848(4) 0.30882(8)
O12 O 0.4785(2) 0.8503(3) 0.35595(8)
O13 O 0.5958(2) 0.8295(3) 0.35207(7)
H19 H 0.608700 0.852062 0.363933
O17 O 0.5799(3) 0.9326(4) 0.36113(11)
O18 O 0.4747(4) 0.7260(6) 0.37231(11)
H24 H 0.506908 0.729088 0.382965
H25 H 0.429195 0.693017 0.378162
C34 C 0.3981(4) 0.9665(6) 0.37036(11)
H26 H 0.351886 0.949628 0.370086
C39 C 0.4914(4) 0.9508(6) 0.36668(11)
C41 C 0.5205(4) 0.9082(5) 0.36088(11)
C42 C 0.4223(4) 0.9250(6) 0.36608(11)
H30 H 0.393271 0.880232 0.362822
N8_2 N 0.000000 1.000000 0.3355(2)
O38 O 0.0558(4) 0.9916(3) 0.32968(11)
H91 H 0.185395 0.910029 0.302734
O53 O 0.0593(6) 0.9180(4) 0.29436(11)
H96 H 0.062421 0.888847 0.283702
H97 H 0.026350 0.930489 0.288505
In20_2 In 0.500001 1.000000 0.500000
O55 O 0.7375(2) 0.8372(3) 0.31460(7)
O57 O 0.1498(3) 0.9682(3) 0.35091(8)
O61 O 0.5149(4) 0.8164(3) 0.31575(8)
O68 O 0.7180(4) 0.9377(3) 0.33718(13)
O74 O 0.7182(4) 0.8274(3) 0.35784(8)
O77 O 0.6152(4) 0.8392(3) 0.30882(8)
O22 O 0.8482(4) 0.3651(3) 0.48242(8)
N6 N 0.9074(4) 0.2889(3) 0.36491(8)
N7 N 0.8502(4) 0.2364(3) 0.39048(8)
C51 C 0.7960(4) 0.0426(3) 0.34757(9)
C52 C 0.8384(5) 0.1652(3) 0.36295(10)
C53 C 0.7516(5) 0.0540(3) 0.35688(11)
H38 H 0.706831 0.020266 0.357806
C54 C 0.8934(5) 0.3692(3) 0.45154(11)
C55 C 0.7729(5) 0.1167(4) 0.36517(10)
H39 H 0.743194 0.125323 0.372067
C56 C 0.8811(6) 0.1528(4) 0.35323(11)
H40 H 0.925435 0.187033 0.351504
C57 C 0.8613(6) 0.0924(4) 0.34601(11)
H41 H 0.892254 0.083879 0.339797
O27 O 0.9485(4) 0.4426(3) 0.47549(8)
C60 C 0.9235(5) 0.3361(3) 0.37896(11)
C61 C 0.8970(6) 0.3930(4) 0.47198(12)
C62 C 0.9680(5) 0.4072(3) 0.37502(11)
C63 C 0.8635(5) 0.2289(3) 0.37241(10)
C65 C 0.9286(6) 0.3036(4) 0.34483(11)
H45 H 0.973705 0.311917 0.343603
H46 H 0.926810 0.342629 0.340713
H47 H 0.899128 0.265960 0.336823
C68 C 0.8894(6) 0.3027(4) 0.39480(11)
C69 C 0.9501(6) 0.3990(4) 0.44032(13)
H49 H 0.989921 0.433523 0.445487
C70 C 0.8917(5) 0.3274(3) 0.41445(11)
C71 C 0.8355(6) 0.2984(4) 0.42536(12)
H50 H 0.795760 0.264083 0.420074
C72 C 0.8360(6) 0.3190(4) 0.44444(11)
H51 H 0.797391 0.298408 0.452060
C73 C 0.9443(6) 0.4502(4) 0.37600(13)
H52 H 0.899890 0.434464 0.379655
C74 C 0.9846(6) 0.5163(4) 0.37171(14)
H53 H 0.967251 0.545213 0.372253
C75 C 0.9487(6) 0.3784(4) 0.42142(13)
H54 H 0.986921 0.399635 0.413634
O28 O 0.9615(2) 0.1452(2) 0.31072(8)
N8_3 N 1.000000 -0.000000 0.3355(2)
O30 O 0.6984(3) 0.1836(3) 0.18425(8)
N9 N 0.6222(3) 0.0482(3) 0.30176(8)
N10 N 0.5697(3) 0.0529(3) 0.27619(8)
O33 O 0.9806(3) 0.2466(3) 0.30554(11)
C79 C 0.7025(3) 0.1425(4) 0.21513(11)
C80 C 0.4500(4) 0.0105(3) 0.30150(10)
H57 H 0.458656 0.048796 0.294600
O36 O 0.7759(3) 0.1608(3) 0.19118(8)
C84 C 0.7649(4) 0.0648(4) 0.29631(11)
H62 H 0.735591 0.018553 0.296581
C85 C 0.6694(3) 0.0793(4) 0.28771(11)
C86 C 0.7263(4) 0.1627(5) 0.19469(12)
C87 C 0.7405(3) 0.1059(4) 0.29165(11)
C88 C 0.5622(3) 0.0321(4) 0.29426(10)
C89 C 0.8739(4) 0.1581(4) 0.29999(11)
C90 C 0.6369(4) 0.0417(5) 0.32184(11)
H63 H 0.645250 0.004879 0.323064
H64 H 0.675962 0.082486 0.325954
H65 H 0.599293 0.033499 0.329844
C91 C 0.9456(3) 0.1872(4) 0.30579(11)
C92 C 0.8306(4) 0.0890(4) 0.30059(11)
H66 H 0.846372 0.059938 0.303845
C93 C 0.6360(4) 0.0800(4) 0.27187(11)
C94 C 0.7323(4) 0.1156(4) 0.22635(13)
H67 H 0.766856 0.110269 0.221180
C95 C 0.6607(3) 0.1024(4) 0.25222(11)
C96 C 0.6317(4) 0.1296(4) 0.24131(12)
H68 H 0.597416 0.134990 0.246593
C97 C 0.6523(4) 0.1497(5) 0.22223(11)
H69 H 0.631741 0.167684 0.214607
C98 C 0.7835(4) 0.1726(4) 0.29067(13)
H70 H 0.767797 0.201241 0.287012
C99 C 0.8496(4) 0.1984(4) 0.29496(14)
H71 H 0.878546 0.244629 0.294414
C100 C 0.7117(4) 0.0964(5) 0.24525(13)
H72 H 0.732968 0.079381 0.253033
In8 In 0.83650(2) 0.89058(3) 0.32207(2)
O39 O 0.8548(2) 0.8164(3) 0.31072(8)
H73 H 0.724633 0.814605 0.302734
O41 O 0.8164(3) 0.5149(4) 0.18425(8)
N11 N 0.9518(3) 0.5741(4) 0.30176(8)
N12 N 0.9471(3) 0.5169(4) 0.27619(8)
O44 O 0.7534(3) 0.7341(4) 0.30554(11)
C104 C 0.8575(4) 0.5601(5) 0.21513(11)
C105 C 0.9895(3) 0.4396(5) 0.30150(10)
H75 H 0.951204 0.409861 0.294600
O45 O 0.8586(4) 0.9407(6) 0.29436(11)
H78 H 0.826425 0.937579 0.283702
H79 H 0.904138 0.973650 0.288505
O46 O 0.8392(3) 0.6152(4) 0.19118(8)
C109 C 0.9352(4) 0.7002(6) 0.29631(11)
H80 H 0.981447 0.717039 0.296581
C110 C 0.9207(4) 0.5902(5) 0.28771(11)
C111 C 0.8373(5) 0.5637(6) 0.19469(12)
C112 C 0.8941(4) 0.6347(5) 0.29165(11)
C113 C 0.9679(4) 0.5302(5) 0.29426(10)
C114 C 0.8419(4) 0.7159(6) 0.29999(11)
C115 C 0.9583(5) 0.5953(6) 0.32184(11)
H81 H 0.995121 0.640372 0.323064
H82 H 0.917514 0.593477 0.325954
H83 H 0.966501 0.565795 0.329844
C116 C 0.8128(4) 0.7585(5) 0.30579(11)
C117 C 0.9110(4) 0.7417(6) 0.30059(11)
H84 H 0.940062 0.786435 0.303845
C118 C 0.9200(4) 0.5561(6) 0.27187(11)
C119 C 0.8844(4) 0.6168(6) 0.22635(13)
H85 H 0.889731 0.656588 0.221180
C120 C 0.8976(4) 0.5584(5) 0.25222(11)
C121 C 0.8704(4) 0.5022(6) 0.24131(12)
H86 H 0.865010 0.462427 0.246593
C122 C 0.8503(5) 0.5027(6) 0.22223(11)
H87 H 0.832316 0.464058 0.214607
C123 C 0.8274(4) 0.6110(6) 0.29067(13)
H88 H 0.798759 0.566557 0.287012
C124 C 0.8016(4) 0.6513(6) 0.29496(14)
H89 H 0.755371 0.633918 0.294414
C125 C 0.9036(5) 0.6154(6) 0.24525(13)
H90 H 0.920619 0.653588 0.253033
In17 In 0.833334 0.666667 0.166667
In18 In 0.833333 0.166666 0.166667
In19_2 In 1.000000 0.500000 0.500000
In25 In 0.77609(3) 0.49683(2) 0.15540(2)
In26 In 0.72074(2) 0.22391(3) 0.15540(2)
In29 In 0.83016(2) 0.38741(2) 0.51127(2)
O58 O 0.8185(4) 0.8502(3) 0.35091(8)
O64 O 0.8222(4) 0.9684(2) 0.33334(9)
O72 O 0.9357(3) 0.9442(4) 0.32968(11)
C58 C 0.7776(5) 0.9773(3) 0.33880(11)
N8_4 N 1.000000 1.000000 0.3355(2)
C76 C 0.3759(3) 0.9133(3) 0.31910(9)
C77 C 0.4985(3) 0.9935(4) 0.30372(10)
C78 C 0.3873(3) 0.9691(4) 0.30979(11)
H56 H 0.353599 0.980102 0.308861
C81 C 0.4861(4) 0.9384(4) 0.31344(11)
H58 H 0.520366 0.928265 0.315163
C82 C 0.4257(4) 0.8978(4) 0.32066(11)
H59 H 0.417212 0.858292 0.326870
C83 C 0.3106(3) 0.8664(4) 0.32787(11)
O4_2 O 0.8538(3) 0.0316(2) 0.16666(9)
O5_2 O 0.7803(3) 0.0623(3) 0.16282(13)
C8_2 C 0.8003(4) 0.0227(3) 0.16120(11)
In28_2 In 0.94593(2) 0.10942(3) 0.17793(2)
O1_2 O 0.5215(2) 0.3718(2) 0.14405(8)
N1_2 N 0.666667 0.333333 0.1688(2)
O2_2 O 0.4042(2) 0.2337(2) 0.14793(7)
H1_2 H 0.391300 0.243362 0.136067
O3_2 O 0.4831(3) 0.6349(3) 0.01758(8)
N2_2 N 0.6185(3) 0.7111(3) 0.13509(8)
N3_2 N 0.6138(3) 0.7636(3) 0.10952(8)
C1_2 C 0.7534(3) 0.9574(3) 0.15243(9)
O6_2 O 0.4201(3) 0.3527(3) 0.13887(11)
C2_2 C 0.6732(4) 0.8348(3) 0.13705(10)
C3_2 C 0.6976(4) 0.9460(3) 0.14312(11)
H2_2 H 0.686565 0.979734 0.142194
C4_2 C 0.5242(4) 0.6308(3) 0.04846(11)
C5_2 C 0.6562(3) 0.8833(4) 0.13483(10)
H3_2 H 0.617871 0.874677 0.127933
C6_2 C 0.7283(4) 0.8472(4) 0.14677(11)
H4_2 H 0.738402 0.812967 0.148496
C7_2 C 0.7689(4) 0.9076(4) 0.15399(11)
H5_2 H 0.808375 0.916121 0.160203
O7_2 O 0.5253(4) 0.2513(4) 0.12769(11)
H6_2 H 0.493092 0.222180 0.117035
H7_2 H 0.570805 0.263822 0.121838
O8_2 O 0.6024(3) 0.3249(3) 0.16301(11)
O9_2 O 0.5059(3) 0.5574(3) 0.02451(8)
C9_2 C 0.6019(4) 0.5684(4) 0.12964(11)
H8_2 H 0.648114 0.597742 0.129914
C10_2 C 0.5874(4) 0.6639(3) 0.12104(11)
C11_2 C 0.5040(5) 0.6070(4) 0.02802(12)
C12_2 C 0.5608(4) 0.5928(3) 0.12498(11)
C13_2 C 0.6346(4) 0.7711(3) 0.12759(10)
C14_2 C 0.5086(4) 0.4594(4) 0.13332(11)
C15_2 C 0.6250(5) 0.6964(4) 0.15517(11)
H9_2 H 0.661788 0.688083 0.156397
H10_2 H 0.584181 0.657371 0.159287
H11_2 H 0.633168 0.734040 0.163177
C16_2 C 0.4795(4) 0.3877(3) 0.13912(11)
C17_2 C 0.5777(4) 0.5027(4) 0.13392(11)
H12_2 H 0.606729 0.486961 0.137178
C18_2 C 0.5867(4) 0.6973(4) 0.10520(11)
C19_2 C 0.5511(4) 0.6010(4) 0.05968(13)
H13_2 H 0.556398 0.566477 0.054513
C20_2 C 0.5643(4) 0.6726(3) 0.08555(11)
C21_2 C 0.5371(4) 0.7016(4) 0.07464(12)
H14_2 H 0.531677 0.735917 0.079926
C22_2 C 0.5170(5) 0.6810(4) 0.05556(11)
H15_2 H 0.498983 0.701592 0.047940
C23_2 C 0.4941(4) 0.5498(4) 0.12400(13)
H16_2 H 0.465426 0.565536 0.120345
C24_2 C 0.4683(4) 0.4837(4) 0.12829(14)
H17_2 H 0.422038 0.454787 0.127747
C25_2 C 0.5703(5) 0.6216(4) 0.07858(13)
H18_2 H 0.587286 0.600365 0.086366
O10_2 O 0.7225(4) 0.3976(3) 0.16301(11)
O11_2 O 0.6751(3) 0.2775(4) 0.16301(11)
O14_2 O 0.1518(4) 0.5169(3) 0.01758(8)
O15_2 O 0.1778(4) 0.1462(3) 0.16666(9)
O16_2 O 0.2820(4) 0.2197(3) 0.16282(13)
N4_2 N 0.0926(4) 0.3815(3) 0.13509(8)
N5_2 N 0.1498(4) 0.3862(3) 0.10952(8)
C26_2 C 0.2040(4) 0.2466(3) 0.15243(9)
C27_2 C 0.1616(5) 0.3268(4) 0.13705(10)
C28_2 C 0.2484(5) 0.3024(4) 0.14312(11)
H20_2 H 0.293169 0.313435 0.142194
C29_2 C 0.1066(5) 0.4758(4) 0.04846(11)
C30_2 C 0.2271(5) 0.3438(3) 0.13483(10)
H21_2 H 0.256806 0.382129 0.127933
C31_2 C 0.1189(6) 0.2717(4) 0.14677(11)
H22_2 H 0.074565 0.261598 0.148496
C32_2 C 0.1387(6) 0.2311(4) 0.15399(11)
H23_2 H 0.107746 0.191625 0.160203
C33_2 C 0.2224(5) 0.1997(4) 0.16120(11)
O19_2 O 0.0515(4) 0.4941(3) 0.02451(8)
C35_2 C 0.0765(5) 0.4126(4) 0.12104(11)
C36_2 C 0.1030(6) 0.4960(5) 0.02802(12)
C37_2 C 0.0320(5) 0.4392(4) 0.12498(11)
C38_2 C 0.1365(5) 0.3654(4) 0.12759(10)
C40_2 C 0.0714(6) 0.3750(5) 0.15517(11)
H27_2 H 0.026295 0.338212 0.156397
H28_2 H 0.073190 0.415819 0.159287
H29_2 H 0.100872 0.366832 0.163177
C43_2 C 0.1106(6) 0.4133(4) 0.10520(11)
C44_2 C 0.0499(6) 0.4489(4) 0.05968(13)
H31_2 H 0.010079 0.443602 0.054513
C45_2 C 0.1083(5) 0.4357(4) 0.08555(11)
C46_2 C 0.1645(6) 0.4629(4) 0.07464(12)
H32_2 H 0.204240 0.468323 0.079926
C47_2 C 0.1640(6) 0.4830(5) 0.05556(11)
H33_2 H 0.202609 0.501017 0.047940
C48_2 C 0.0557(6) 0.5059(4) 0.12400(13)
H34_2 H 0.100110 0.534574 0.120345
C49_2 C 0.0154(6) 0.5317(4) 0.12829(14)
H35_2 H 0.032749 0.577962 0.127747
C50_2 C 0.0513(6) 0.4297(5) 0.07858(13)
H36_2 H 0.013079 0.412714 0.086366
O20_2 O 0.6282(2) 0.1497(3) 0.14405(8)
O21_2 O 0.7663(2) 0.1705(3) 0.14793(7)
H37_2 H 0.756638 0.147938 0.136067
O25_2 O 0.6473(3) 0.0674(4) 0.13887(11)
O26_2 O 0.7487(4) 0.2740(6) 0.12769(11)
H42_2 H 0.777820 0.270912 0.117035
H43_2 H 0.736178 0.306983 0.121838
C59_2 C 0.4316(4) 0.0335(6) 0.12964(11)
H44_2 H 0.402258 0.050372 0.129914
C64_2 C 0.5406(4) 0.0492(6) 0.13332(11)
C66_2 C 0.6123(3) 0.0918(5) 0.13912(11)
C67_2 C 0.4973(4) 0.0750(6) 0.13392(11)
H48_2 H 0.513039 0.119768 0.137178
In7_2 In 0.16350(2) 0.05407(2) 0.17793(2)
N8_5 N -0.000000 0.000000 0.1645(2)
O29_2 O 0.2625(2) 0.0996(2) 0.18540(7)
H55_2 H 0.275367 0.089971 0.197266
O34_2 O 0.1414(4) 0.0820(4) 0.20564(11)
H60_2 H 0.173575 0.111153 0.216298
H61_2 H 0.095862 0.069511 0.211495
O35_2 O 0.0643(3) 0.0084(3) 0.17032(11)
O42_2 O 0.4889(4) 0.1871(3) 0.16667(9)
O43_2 O 0.3847(4) 0.1136(3) 0.17051(13)
C101_2 C 0.4627(4) 0.0867(3) 0.18090(9)
C102_2 C 0.5051(5) 0.0065(4) 0.19628(10)
C103_2 C 0.4183(5) 0.0309(4) 0.19021(11)
H74_2 H 0.373498 0.019898 0.191139
C106_2 C 0.5478(6) 0.0616(4) 0.18656(11)
H76_2 H 0.592102 0.071735 0.184837
C107_2 C 0.5280(6) 0.1022(4) 0.17934(11)
H77_2 H 0.558921 0.141708 0.173130
C108_2 C 0.4443(5) 0.1336(4) 0.17213(11)
O47_2 O 0.0385(2) 0.1836(3) 0.18928(8)
O50_2 O 0.6983(2) 0.5111(4) 0.16667(9)
O51_2 O 0.7290(3) 0.6153(4) 0.17051(13)
N13_2 N 0.3778(3) 0.4259(4) 0.19824(8)
N14_2 N 0.4303(3) 0.4831(4) 0.22381(8)
C126_2 C 0.6241(3) 0.5373(4) 0.18090(9)
O52_2 O 0.0194(3) 0.2659(4) 0.19446(11)
C127_2 C 0.5015(3) 0.4949(5) 0.19628(10)
C128_2 C 0.6127(3) 0.5817(5) 0.19021(11)
H92_2 H 0.646401 0.626502 0.191139
C129_2 C 0.2975(3) 0.4399(5) 0.28487(11)
C130_2 C 0.5500(4) 0.5604(5) 0.19850(10)
H93_2 H 0.541344 0.590139 0.205400
C131_2 C 0.5139(4) 0.4522(6) 0.18656(11)
H94_2 H 0.479634 0.407898 0.184837
C132_2 C 0.5743(4) 0.4720(6) 0.17934(11)
H95_2 H 0.582788 0.441079 0.173130
C133_2 C 0.6894(3) 0.5557(5) 0.17213(11)
C134_2 C 0.2351(4) 0.2998(6) 0.20369(11)
H98_2 H 0.264409 0.282961 0.203419
C135_2 C 0.3306(3) 0.4098(5) 0.21229(11)
C136_2 C 0.2737(4) 0.4363(6) 0.30531(12)
C137_2 C 0.2595(3) 0.3653(5) 0.20835(11)
C138_2 C 0.4378(3) 0.4698(5) 0.20574(10)
C139_2 C 0.1261(4) 0.2841(6) 0.20001(11)
C140_2 C 0.3631(4) 0.4047(6) 0.17816(11)
H99_2 H 0.354750 0.359628 0.176936
H100_2 H 0.324038 0.406523 0.174046
H101_2 H 0.400707 0.434205 0.170156
C141_2 C 0.0544(3) 0.2415(5) 0.19421(11)
C142_2 C 0.1694(4) 0.2583(6) 0.19941(11)
H102_2 H 0.153628 0.213565 0.196155
C143_2 C 0.3640(4) 0.4439(6) 0.22813(11)
C144_2 C 0.2677(4) 0.3832(6) 0.27365(13)
H103_2 H 0.233144 0.343412 0.278820
C145_2 C 0.3393(3) 0.4416(5) 0.24778(11)
C146_2 C 0.3683(4) 0.4978(6) 0.25869(12)
H104_2 H 0.402584 0.537573 0.253407
C147_2 C 0.3477(4) 0.4973(6) 0.27777(11)
H105_2 H 0.368259 0.535942 0.285393
C148_2 C 0.2165(4) 0.3890(6) 0.20933(13)
H106_2 H 0.232203 0.433443 0.212988
C149_2 C 0.1504(4) 0.3487(6) 0.20504(14)
H107_2 H 0.121454 0.366082 0.205586
C150_2 C 0.2883(4) 0.3846(6) 0.25475(13)
H108_2 H 0.267032 0.346412 0.246967
In19_3 In 0.500000 -0.000000 -0.000000
In20_3 In 0.000000 0.500001 -0.000000
In21_2 In 0.499999 0.500000 -0.000000
O56_2 O 0.9004(2) 0.1628(3) 0.18540(7)
O59_2 O 0.1815(4) 0.0318(3) 0.14909(8)
O65_2 O 0.8129(3) 0.3017(2) 0.16667(9)
O69_2 O 0.8864(3) 0.2710(3) 0.17051(13)
O73_2 O 0.8907(3) 0.1726(3) 0.14216(8)
O75_2 O 0.2818(4) 0.1093(3) 0.14216(8)
In19_4 In 0.500000 -0.000000 1.000000
In20_4 In 0.000000 0.500001 1.000000
In21_3 In 0.499999 0.500000 1.000000
In30_2 In 0.16984(2) 0.55724(3) 0.98873(2)
In31_2 In 0.44276(3) 0.61259(2) 0.98873(2)
O22_2 O 0.3651(3) 0.8482(4) 0.01758(8)
N6_2 N 0.2889(3) 0.9074(4) 0.13509(8)
N7_2 N 0.2364(3) 0.8502(4) 0.10952(8)
C51_2 C 0.0426(3) 0.7960(4) 0.15243(9)
C52_2 C 0.1652(3) 0.8384(5) 0.13705(10)
C53_2 C 0.0540(3) 0.7516(5) 0.14312(11)
H38_2 H 0.020266 0.706831 0.142194
C54_2 C 0.3692(3) 0.8934(5) 0.04846(11)
C55_2 C 0.1167(4) 0.7729(5) 0.13483(10)
H39_2 H 0.125323 0.743194 0.127933
C56_2 C 0.1528(4) 0.8811(6) 0.14677(11)
H40_2 H 0.187033 0.925435 0.148496
C57_2 C 0.0924(4) 0.8613(6) 0.15399(11)
H41_2 H 0.083879 0.892254 0.160203
O27_2 O 0.4426(3) 0.9485(4) 0.02451(8)
C60_2 C 0.3361(3) 0.9235(5) 0.12104(11)
C61_2 C 0.3930(4) 0.8970(6) 0.02802(12)
C62_2 C 0.4072(3) 0.9680(5) 0.12498(11)
C63_2 C 0.2289(3) 0.8635(5) 0.12759(10)
C65_2 C 0.3036(4) 0.9286(6) 0.15517(11)
H45_2 H 0.311917 0.973705 0.156397
H46_2 H 0.342629 0.926810 0.159287
H47_2 H 0.265960 0.899128 0.163177
C68_2 C 0.3027(4) 0.8894(6) 0.10520(11)
C69_2 C 0.3990(4) 0.9501(6) 0.05968(13)
H49_2 H 0.433523 0.989921 0.054513
C70_2 C 0.3274(3) 0.8917(5) 0.08555(11)
C71_2 C 0.2984(4) 0.8355(6) 0.07464(12)
H50_2 H 0.264083 0.795760 0.079926
C72_2 C 0.3190(4) 0.8360(6) 0.05556(11)
H51_2 H 0.298408 0.797391 0.047940
C73_2 C 0.4502(4) 0.9443(6) 0.12400(13)
H52_2 H 0.434464 0.899890 0.120345
C74_2 C 0.5163(4) 0.9846(6) 0.12829(14)
H53_2 H 0.545213 0.967251 0.127747
C75_2 C 0.3784(4) 0.9487(6) 0.07858(13)
H54_2 H 0.399635 0.986921 0.086366
O28_2 O 0.1452(2) 0.9615(2) 0.18928(8)
N8_6 N -0.000000 1.000000 0.1645(2)
N9_2 N 0.0482(3) 0.6222(3) 0.19824(8)
N10_2 N 0.0529(3) 0.5697(3) 0.22381(8)
O33_2 O 0.2466(3) 0.9806(3) 0.19446(11)
C79_2 C 0.1425(4) 0.7025(3) 0.28487(11)
C80_2 C 0.0105(3) 0.4500(4) 0.19850(10)
H57_2 H 0.048796 0.458656 0.205400
C84_2 C 0.0648(4) 0.7649(4) 0.20369(11)
H62_2 H 0.018553 0.735591 0.203419
C85_2 C 0.0793(4) 0.6694(3) 0.21229(11)
C86_2 C 0.1627(5) 0.7263(4) 0.30531(12)
C87_2 C 0.1059(4) 0.7405(3) 0.20835(11)
C88_2 C 0.0321(4) 0.5622(3) 0.20574(10)
C89_2 C 0.1581(4) 0.8739(4) 0.20001(11)
C90_2 C 0.0417(5) 0.6369(4) 0.17816(11)
H63_2 H 0.004879 0.645250 0.176936
H64_2 H 0.082486 0.675962 0.174046
H65_2 H 0.033499 0.599293 0.170156
C91_2 C 0.1872(4) 0.9456(3) 0.19421(11)
C92_2 C 0.0890(4) 0.8306(4) 0.19941(11)
H66_2 H 0.059938 0.846372 0.196155
C93_2 C 0.0800(4) 0.6360(4) 0.22813(11)
C94_2 C 0.1156(4) 0.7323(4) 0.27365(13)
H67_2 H 0.110269 0.766856 0.278820
C95_2 C 0.1024(4) 0.6607(3) 0.24778(11)
C96_2 C 0.1296(4) 0.6317(4) 0.25869(12)
H68_2 H 0.134990 0.597416 0.253407
C97_2 C 0.1497(5) 0.6523(4) 0.27777(11)
H69_2 H 0.167684 0.631741 0.285393
C98_2 C 0.1726(4) 0.7835(4) 0.20933(13)
H70_2 H 0.201241 0.767797 0.212988
C99_2 C 0.1984(4) 0.8496(4) 0.20504(14)
H71_2 H 0.244629 0.878546 0.205586
C100_2 C 0.0964(5) 0.7117(4) 0.25475(13)
H72_2 H 0.079381 0.732968 0.246967
In8_2 In 0.89058(3) 0.83650(2) 0.17793(2)
O39_2 O 0.8164(3) 0.8548(2) 0.18928(8)
O40 O 0.8372(3) 0.7375(2) 0.18540(7)
H73_2 H 0.814605 0.724633 0.197266
N11_2 N 0.5741(4) 0.9518(3) 0.19824(8)
N12_2 N 0.5169(4) 0.9471(3) 0.22381(8)
O44_2 O 0.7341(4) 0.7534(3) 0.19446(11)
C104_2 C 0.5601(5) 0.8575(4) 0.28487(11)
C105_2 C 0.4396(5) 0.9895(3) 0.19850(10)
H75_2 H 0.409861 0.951204 0.205400
O45_2 O 0.9407(6) 0.8586(4) 0.20564(11)
H78_2 H 0.937579 0.826425 0.216298
H79_2 H 0.973650 0.904138 0.211495
C109_2 C 0.7002(6) 0.9352(4) 0.20369(11)
H80_2 H 0.717039 0.981447 0.203419
C110_2 C 0.5902(5) 0.9207(4) 0.21229(11)
C111_2 C 0.5637(6) 0.8373(5) 0.30531(12)
C112_2 C 0.6347(5) 0.8941(4) 0.20835(11)
C113_2 C 0.5302(5) 0.9679(4) 0.20574(10)
C114_2 C 0.7159(6) 0.8419(4) 0.20001(11)
C115_2 C 0.5953(6) 0.9583(5) 0.17816(11)
H81_2 H 0.640372 0.995121 0.176936
H82_2 H 0.593477 0.917514 0.174046
H83_2 H 0.565795 0.966501 0.170156
C116_2 C 0.7585(5) 0.8128(4) 0.19421(11)
C117_2 C 0.7417(6) 0.9110(4) 0.19941(11)
H84_2 H 0.786435 0.940062 0.196155
C118_2 C 0.5561(6) 0.9200(4) 0.22813(11)
C119_2 C 0.6168(6) 0.8844(4) 0.27365(13)
H85_2 H 0.656588 0.889731 0.278820
C120_2 C 0.5584(5) 0.8976(4) 0.24778(11)
C121_2 C 0.5022(6) 0.8704(4) 0.25869(12)
H86_2 H 0.462427 0.865010 0.253407
C122_2 C 0.5027(6) 0.8503(5) 0.27777(11)
H87_2 H 0.464058 0.832316 0.285393
C123_2 C 0.6110(6) 0.8274(4) 0.20933(13)
H88_2 H 0.566557 0.798759 0.212988
C124_2 C 0.6513(6) 0.8016(4) 0.20504(14)
H89_2 H 0.633918 0.755371 0.205586
C125_2 C 0.6154(6) 0.9036(5) 0.25475(13)
H90_2 H 0.653588 0.920619 0.246967
In19_5 In 0.500000 1.000000 -0.000000
O58_2 O 0.8502(3) 0.8185(4) 0.14909(8)
O64_2 O 0.9684(2) 0.8222(4) 0.16666(9)
O72_2 O 0.9442(4) 0.9357(3) 0.17032(11)
In19_6 In 0.500000 1.000000 1.000000
In29_2 In 0.38741(2) 0.83016(2) 0.98873(2)
O12_2 O 0.8503(3) 0.4785(2) 0.14405(8)
O13_2 O 0.8295(3) 0.5958(2) 0.14793(7)
H19_2 H 0.852062 0.608700 0.136067
O17_2 O 0.9326(4) 0.5799(3) 0.13887(11)
O18_2 O 0.7260(6) 0.4747(4) 0.12769(11)
H24_2 H 0.729088 0.506908 0.117035
H25_2 H 0.693017 0.429195 0.121838
C34_2 C 0.9665(6) 0.3981(4) 0.12964(11)
H26_2 H 0.949628 0.351886 0.129914
C39_2 C 0.9508(6) 0.4914(4) 0.13332(11)
C41_2 C 0.9082(5) 0.5205(4) 0.13912(11)
C42_2 C 0.9250(6) 0.4223(4) 0.13392(11)
H30_2 H 0.880232 0.393271 0.137178
N8_7 N 1.000000 0.000000 0.1645(2)
O38_2 O 0.9916(3) 0.0558(4) 0.17032(11)
H91_2 H 0.910029 0.185395 0.197266
O53_2 O 0.9180(4) 0.0593(6) 0.20564(11)
H96_2 H 0.888847 0.062421 0.216298
H97_2 H 0.930489 0.026350 0.211495
In20_5 In 1.000000 0.500001 -0.000000
O57_2 O 0.9682(3) 0.1498(3) 0.14909(8)
O68_2 O 0.9377(3) 0.7180(4) 0.16282(13)
O74_2 O 0.8274(3) 0.7182(4) 0.14216(8)
In20_6 In 1.000000 0.500001 1.000000
C58_2 C 0.9773(3) 0.7776(5) 0.16120(11)
N8_8 N 1.000000 1.000000 0.1645(2)
C76_2 C 0.9133(3) 0.3759(3) 0.18090(9)
C77_2 C 0.9935(4) 0.4985(3) 0.19628(10)
C78_2 C 0.9691(4) 0.3873(3) 0.19021(11)
H56_2 H 0.980102 0.353599 0.191139
C81_2 C 0.9384(4) 0.4861(4) 0.18656(11)
H58_2 H 0.928265 0.520366 0.184837
C82_2 C 0.8978(4) 0.4257(4) 0.17934(11)
H59_2 H 0.858292 0.417212 0.173130
C83_2 C 0.8664(4) 0.3106(3) 0.17213(11)
N1_3 N -0.000000 0.000000 0.6645(2)
O4_3 O 0.6983(2) 0.1871(3) 0.66667(9)
O5_3 O 0.7290(3) 0.1136(3) 0.67051(13)
C1_3 C 0.6241(3) 0.0867(3) 0.68090(9)
C2_3 C 0.5015(3) 0.0065(4) 0.69628(10)
C3_3 C 0.6127(3) 0.0309(4) 0.69021(11)
H2_3 H 0.646401 0.019898 0.691139
C6_3 C 0.5139(4) 0.0616(4) 0.68656(11)
H4_3 H 0.479634 0.071735 0.684837
C7_3 C 0.5743(4) 0.1022(4) 0.67934(11)
H5_3 H 0.582788 0.141708 0.673130
C8_3 C 0.6894(3) 0.1336(4) 0.67213(11)
O10_3 O 0.0643(3) 0.0558(4) 0.67032(11)
O50_3 O 0.1778(4) 0.0316(2) 0.66666(9)
O51_3 O 0.2820(4) 0.0623(3) 0.66282(13)
C133_3 C 0.2224(5) 0.0227(3) 0.66120(11)
In12_2 In 0.333334 0.166667 0.666666
In15_2 In 0.833333 0.166666 0.666666
In22_2 In 0.16350(2) 0.10942(3) 0.67793(2)
In28_3 In 0.77609(3) 0.27926(2) 0.65540(2)
O1_3 O 0.0385(2) 0.8548(2) 0.68928(8)
N1_4 N -0.000000 1.000000 0.6645(2)
O3_3 O 0.3016(3) 0.8164(3) 0.81575(8)
N2_3 N 0.3778(3) 0.9518(3) 0.69824(8)
N3_3 N 0.4303(3) 0.9471(3) 0.72381(8)
O6_3 O 0.0194(3) 0.7534(3) 0.69446(11)
C4_3 C 0.2975(3) 0.8575(4) 0.78487(11)
C5_3 C 0.5500(4) 0.9895(3) 0.69850(10)
H3_3 H 0.541344 0.951204 0.705400
O9_3 O 0.2241(3) 0.8392(3) 0.80882(8)
C9_3 C 0.2351(4) 0.9352(4) 0.70369(11)
H8_3 H 0.264409 0.981447 0.703419
C10_3 C 0.3306(3) 0.9207(4) 0.71229(11)
C11_3 C 0.2737(4) 0.8373(5) 0.80531(12)
C12_3 C 0.2595(3) 0.8941(4) 0.70835(11)
C13_3 C 0.4378(3) 0.9679(4) 0.70574(10)
C14_3 C 0.1261(4) 0.8419(4) 0.70001(11)
C15_3 C 0.3631(4) 0.9583(5) 0.67816(11)
H9_3 H 0.354750 0.995121 0.676936
H10_3 H 0.324038 0.917514 0.674046
H11_3 H 0.400707 0.966501 0.670156
C16_3 C 0.0544(3) 0.8128(4) 0.69421(11)
C17_3 C 0.1694(4) 0.9110(4) 0.69941(11)
H12_3 H 0.153628 0.940062 0.696155
C18_3 C 0.3640(4) 0.9200(4) 0.72813(11)
C19_3 C 0.2677(4) 0.8844(4) 0.77365(13)
H13_3 H 0.233144 0.889731 0.778820
C20_3 C 0.3393(3) 0.8976(4) 0.74778(11)
C21_3 C 0.3683(4) 0.8704(4) 0.75869(12)
H14_3 H 0.402584 0.865010 0.753407
C22_3 C 0.3477(4) 0.8503(5) 0.77777(11)
H15_3 H 0.368259 0.832316 0.785393
C23_3 C 0.2165(4) 0.8274(4) 0.70933(13)
H16_3 H 0.232203 0.798759 0.712988
C24_3 C 0.1504(4) 0.8016(4) 0.70504(14)
H17_3 H 0.121454 0.755371 0.705586
C25_3 C 0.2883(4) 0.9036(5) 0.75475(13)
H18_3 H 0.267032 0.920619 0.746967
O12_3 O 0.1452(2) 0.1836(3) 0.68928(8)
O13_3 O 0.2625(2) 0.1628(3) 0.68540(7)
H19_3 H 0.275367 0.185395 0.697266
O14_3 O 0.1836(3) 0.4851(4) 0.81575(8)
N4_3 N 0.0482(3) 0.4259(4) 0.69824(8)
N5_3 N 0.0529(3) 0.4831(4) 0.72381(8)
O17_3 O 0.2466(3) 0.2659(4) 0.69446(11)
C29_3 C 0.1425(4) 0.4399(5) 0.78487(11)
C30_3 C 0.0105(3) 0.5604(5) 0.69850(10)
H21_3 H 0.048796 0.590139 0.705400
O18_3 O 0.1414(4) 0.0593(6) 0.70564(11)
H24_3 H 0.173575 0.062421 0.716298
H25_3 H 0.095862 0.026350 0.711495
O19_3 O 0.1608(3) 0.3848(4) 0.80882(8)
C34_3 C 0.0648(4) 0.2998(6) 0.70369(11)
H26_3 H 0.018553 0.282961 0.703419
C35_3 C 0.0793(4) 0.4098(5) 0.71229(11)
C36_3 C 0.1627(5) 0.4363(6) 0.80531(12)
C37_3 C 0.1059(4) 0.3653(5) 0.70835(11)
C38_3 C 0.0321(4) 0.4698(5) 0.70574(10)
C39_3 C 0.1581(4) 0.2841(6) 0.70001(11)
C40_3 C 0.0417(5) 0.4047(6) 0.67816(11)
H27_3 H 0.004879 0.359628 0.676936
H28_3 H 0.082486 0.406523 0.674046
H29_3 H 0.033499 0.434205 0.670156
C41_3 C 0.1872(4) 0.2415(5) 0.69421(11)
C42_3 C 0.0890(4) 0.2583(6) 0.69941(11)
H30_3 H 0.059938 0.213565 0.696155
C43_3 C 0.0800(4) 0.4439(6) 0.72813(11)
C44_3 C 0.1156(4) 0.3832(6) 0.77365(13)
H31_3 H 0.110269 0.343412 0.778820
C45_3 C 0.1024(4) 0.4416(5) 0.74778(11)
C46_3 C 0.1296(4) 0.4978(6) 0.75869(12)
H32_3 H 0.134990 0.537573 0.753407
C47_3 C 0.1497(5) 0.4973(6) 0.77777(11)
H33_3 H 0.167684 0.535942 0.785393
C48_3 C 0.1726(4) 0.3890(6) 0.70933(13)
H34_3 H 0.201241 0.433443 0.712988
C49_3 C 0.1984(4) 0.3487(6) 0.70504(14)
H35_3 H 0.244629 0.366082 0.705586
C50_3 C 0.0964(5) 0.3846(6) 0.75475(13)
H36_3 H 0.079381 0.346412 0.746967
O49_2 O 0.1518(4) 0.6349(3) 0.51758(8)
N13_3 N 0.0926(4) 0.7111(3) 0.63509(8)
N14_3 N 0.1498(4) 0.7636(3) 0.60952(8)
C126_3 C 0.2040(4) 0.9574(3) 0.65243(9)
C127_3 C 0.1616(5) 0.8348(3) 0.63705(10)
C128_3 C 0.2484(5) 0.9460(3) 0.64312(11)
H92_3 H 0.293169 0.979734 0.642194
C129_3 C 0.1066(5) 0.6308(3) 0.54846(11)
C130_3 C 0.2271(5) 0.8833(4) 0.63483(10)
H93_3 H 0.256806 0.874677 0.627933
C131_3 C 0.1189(6) 0.8472(4) 0.64677(11)
H94_3 H 0.074565 0.812967 0.648496
C132_3 C 0.1387(6) 0.9076(4) 0.65399(11)
H95_3 H 0.107746 0.916121 0.660203
O54_2 O 0.0515(4) 0.5574(3) 0.52451(8)
C135_3 C 0.0765(5) 0.6639(3) 0.62104(11)
C136_3 C 0.1030(6) 0.6070(4) 0.52802(12)
C137_3 C 0.0320(5) 0.5928(3) 0.62498(11)
C138_3 C 0.1365(5) 0.7711(3) 0.62759(10)
C140_3 C 0.0714(6) 0.6964(4) 0.65517(11)
H99_3 H 0.026295 0.688083 0.656397
H100_3 H 0.073190 0.657371 0.659287
H101_3 H 0.100872 0.734040 0.663177
C143_3 C 0.1106(6) 0.6973(4) 0.60520(11)
C144_3 C 0.0499(6) 0.6010(4) 0.55968(13)
H103_3 H 0.010079 0.566477 0.554513
C145_3 C 0.1083(5) 0.6726(3) 0.58555(11)
C146_3 C 0.1645(6) 0.7016(4) 0.57464(12)
H104_3 H 0.204240 0.735917 0.579926
C147_3 C 0.1640(6) 0.6810(4) 0.55556(11)
H105_3 H 0.202609 0.701592 0.547940
C148_3 C 0.0557(6) 0.5498(4) 0.62400(13)
H106_3 H 0.100110 0.565536 0.620345
C149_3 C 0.0154(6) 0.4837(4) 0.62829(14)
H107_3 H 0.032749 0.454787 0.627747
C150_3 C 0.0513(6) 0.6216(4) 0.57858(13)
H108_3 H 0.013079 0.600365 0.586366
In20_7 In 0.166667 0.333334 0.833334
In21_4 In 0.166666 0.833333 0.833334
In24_2 In 0.16984(2) 0.61259(2) 0.48873(2)
In30_3 In 0.22391(3) 0.50317(2) 0.84460(2)
In31_3 In 0.27926(2) 0.77609(3) 0.84460(2)
O55_2 O 0.4042(2) 0.1705(3) 0.64793(7)
O61_2 O 0.1815(4) 0.1498(3) 0.64909(8)
O68_3 O 0.3847(4) 0.2710(3) 0.67051(13)
O74_3 O 0.3848(4) 0.1608(3) 0.69118(8)
O77_2 O 0.2818(4) 0.1726(3) 0.64216(8)
N1_5 N 1.000000 0.000000 0.6645(2)
O11_3 O 0.9442(4) 0.0084(3) 0.67032(11)
In6_2 In 0.89058(3) 0.05407(2) 0.67793(2)
O21_3 O 0.8372(3) 0.0996(2) 0.68540(7)
H37_3 H 0.814605 0.089971 0.697266
O26_3 O 0.9407(6) 0.0820(4) 0.70564(11)
H42_3 H 0.937579 0.111153 0.716298
H43_3 H 0.973650 0.069511 0.711495
In8_3 In 0.50317(2) 0.22391(3) 0.65540(2)
O39_3 O 0.5215(2) 0.1497(3) 0.64405(8)
H73_3 H 0.391300 0.147938 0.636067
O44_3 O 0.4201(3) 0.0674(4) 0.63887(11)
O45_3 O 0.5253(4) 0.2740(6) 0.62769(11)
H78_3 H 0.493092 0.270912 0.617035
H79_3 H 0.570805 0.306983 0.621838
C109_3 C 0.6019(4) 0.0335(6) 0.62964(11)
H80_3 H 0.648114 0.050372 0.629914
C114_3 C 0.5086(4) 0.0492(6) 0.63332(11)
C116_3 C 0.4795(4) 0.0918(5) 0.63912(11)
C117_3 C 0.5777(4) 0.0750(6) 0.63392(11)
H84_3 H 0.606729 0.119768 0.637178
O56_3 O 0.8295(3) 0.2337(2) 0.64793(7)
O58_3 O 0.4851(4) 0.1836(3) 0.68425(8)
O60_2 O 0.8502(3) 0.0318(3) 0.64909(8)
O64_3 O 0.4889(4) 0.3017(2) 0.66667(9)
O65_3 O 0.9684(2) 0.1462(3) 0.66666(9)
O69_3 O 0.9377(3) 0.2197(3) 0.66282(13)
O72_3 O 0.6024(3) 0.2775(4) 0.66301(11)
O73_3 O 0.8392(3) 0.2241(3) 0.69118(8)
O76_2 O 0.8274(3) 0.1093(3) 0.64216(8)
In1_2 In 0.833334 0.666666 0.666666
In2_2 In 0.94593(2) 0.83650(2) 0.67793(2)
N1_6 N 1.000000 1.000000 0.6645(2)
O2_3 O 0.9004(2) 0.7375(2) 0.68540(7)
H1_3 H 0.910029 0.724633 0.697266
O7_3 O 0.9180(4) 0.8586(4) 0.70564(11)
H6_3 H 0.888847 0.826425 0.716298
H7_3 H 0.930489 0.904138 0.711495
O8_3 O 0.9916(3) 0.9357(3) 0.67032(11)
O15_3 O 0.8129(3) 0.5111(4) 0.66667(9)
O16_3 O 0.8864(3) 0.6153(4) 0.67051(13)
C26_3 C 0.9133(3) 0.5373(4) 0.68090(9)
C27_3 C 0.9935(4) 0.4949(5) 0.69628(10)
C28_3 C 0.9691(4) 0.5817(5) 0.69021(11)
H20_3 H 0.980102 0.626502 0.691139
C31_3 C 0.9384(4) 0.4522(6) 0.68656(11)
H22_3 H 0.928265 0.407898 0.684837
C32_3 C 0.8978(4) 0.4720(6) 0.67934(11)
H23_3 H 0.858292 0.441079 0.673130
C33_3 C 0.8664(4) 0.5557(5) 0.67213(11)
O20_3 O 0.8164(3) 0.9615(2) 0.68928(8)
O22_3 O 0.5149(4) 0.6984(3) 0.81575(8)
N6_3 N 0.5741(4) 0.6222(3) 0.69824(8)
N7_3 N 0.5169(4) 0.5697(3) 0.72381(8)
C51_3 C 0.4627(4) 0.3759(3) 0.68090(9)
O25_3 O 0.7341(4) 0.9806(3) 0.69446(11)
C52_3 C 0.5051(5) 0.4985(3) 0.69628(10)
C53_3 C 0.4183(5) 0.3873(3) 0.69021(11)
H38_3 H 0.373498 0.353599 0.691139
C54_3 C 0.5601(5) 0.7025(3) 0.78487(11)
C55_3 C 0.4396(5) 0.4500(4) 0.69850(10)
H39_3 H 0.409861 0.458656 0.705400
C56_3 C 0.5478(6) 0.4861(4) 0.68656(11)
H40_3 H 0.592102 0.520366 0.684837
C57_3 C 0.5280(6) 0.4257(4) 0.67934(11)
H41_3 H 0.558921 0.417212 0.673130
C58_3 C 0.4443(5) 0.3106(3) 0.67213(11)
O27_3 O 0.6152(4) 0.7759(3) 0.80882(8)
C59_3 C 0.7002(6) 0.7649(4) 0.70369(11)
H44_3 H 0.717039 0.735591 0.703419
C60_3 C 0.5902(5) 0.6694(3) 0.71229(11)
C61_3 C 0.5637(6) 0.7263(4) 0.80531(12)
C62_3 C 0.6347(5) 0.7405(3) 0.70835(11)
C63_3 C 0.5302(5) 0.5622(3) 0.70574(10)
C64_3 C 0.7159(6) 0.8739(4) 0.70001(11)
C65_3 C 0.5953(6) 0.6369(4) 0.67816(11)
H45_3 H 0.640372 0.645250 0.676936
H46_3 H 0.593477 0.675962 0.674046
H47_3 H 0.565795 0.599293 0.670156
C66_3 C 0.7585(5) 0.9456(3) 0.69421(11)
C67_3 C 0.7417(6) 0.8306(4) 0.69941(11)
H48_3 H 0.786435 0.846372 0.696155
C68_3 C 0.5561(6) 0.6360(4) 0.72813(11)
C69_3 C 0.6168(6) 0.7323(4) 0.77365(13)
H49_3 H 0.656588 0.766856 0.778820
C70_3 C 0.5584(5) 0.6607(3) 0.74778(11)
C71_3 C 0.5022(6) 0.6317(4) 0.75869(12)
H50_3 H 0.462427 0.597416 0.753407
C72_3 C 0.5027(6) 0.6523(4) 0.77777(11)
H51_3 H 0.464058 0.631741 0.785393
C73_3 C 0.6110(6) 0.7835(4) 0.70933(13)
H52_3 H 0.566557 0.767797 0.712988
C74_3 C 0.6513(6) 0.8496(4) 0.70504(14)
H53_3 H 0.633918 0.878546 0.705586
C75_3 C 0.6154(6) 0.7117(4) 0.75475(13)
H54_3 H 0.653588 0.732968 0.746967
In7_3 In 0.72074(2) 0.49683(2) 0.65540(2)
O28_3 O 0.6282(2) 0.4785(2) 0.64405(8)
N8_9 N 0.666667 0.333333 0.6688(2)
O29_3 O 0.7663(2) 0.5958(2) 0.64793(7)
H55_3 H 0.756638 0.608700 0.636067
O30_2 O 0.3651(3) 0.5169(3) 0.51758(8)
N9_3 N 0.2889(3) 0.3815(3) 0.63509(8)
N10_3 N 0.2364(3) 0.3862(3) 0.60952(8)
C76_3 C 0.0426(3) 0.2466(3) 0.65243(9)
O33_3 O 0.6473(3) 0.5799(3) 0.63887(11)
C77_3 C 0.1652(3) 0.3268(4) 0.63705(10)
C78_3 C 0.0540(3) 0.3024(4) 0.64312(11)
H56_3 H 0.020266 0.313435 0.642194
C79_3 C 0.3692(3) 0.4758(4) 0.54846(11)
C80_3 C 0.1167(4) 0.3438(3) 0.63483(10)
H57_3 H 0.125323 0.382129 0.627933
C81_3 C 0.1528(4) 0.2717(4) 0.64677(11)
H58_3 H 0.187033 0.261598 0.648496
C82_3 C 0.0924(4) 0.2311(4) 0.65399(11)
H59_3 H 0.083879 0.191625 0.660203
O34_3 O 0.7487(4) 0.4747(4) 0.62769(11)
H60_3 H 0.777820 0.506908 0.617035
H61_3 H 0.736178 0.429195 0.621838
O35_3 O 0.6751(3) 0.3976(3) 0.66301(11)
O36_2 O 0.4426(3) 0.4941(3) 0.52451(8)
C84_3 C 0.4316(4) 0.3981(4) 0.62964(11)
H62_3 H 0.402258 0.351886 0.629914
C85_3 C 0.3361(3) 0.4126(4) 0.62104(11)
C86_3 C 0.3930(4) 0.4960(5) 0.52802(12)
C87_3 C 0.4072(3) 0.4392(4) 0.62498(11)
C88_3 C 0.2289(3) 0.3654(4) 0.62759(10)
C89_3 C 0.5406(4) 0.4914(4) 0.63332(11)
C90_3 C 0.3036(4) 0.3750(5) 0.65517(11)
H63_3 H 0.311917 0.338212 0.656397
H64_3 H 0.342629 0.415819 0.659287
H65_3 H 0.265960 0.366832 0.663177
C91_3 C 0.6123(3) 0.5205(4) 0.63912(11)
C92_3 C 0.4973(4) 0.4223(4) 0.63392(11)
H66_3 H 0.513039 0.393271 0.637178
C93_3 C 0.3027(4) 0.4133(4) 0.60520(11)
C94_3 C 0.3990(4) 0.4489(4) 0.55968(13)
H67_3 H 0.433523 0.443602 0.554513
C95_3 C 0.3274(3) 0.4357(4) 0.58555(11)
C96_3 C 0.2984(4) 0.4629(4) 0.57464(12)
H68_3 H 0.264083 0.468323 0.579926
C97_3 C 0.3190(4) 0.4830(5) 0.55556(11)
H69_3 H 0.298408 0.501017 0.547940
C98_3 C 0.4502(4) 0.5059(4) 0.62400(13)
H70_3 H 0.434464 0.534574 0.620345
C99_3 C 0.5163(4) 0.5317(4) 0.62829(14)
H71_3 H 0.545213 0.577962 0.627747
C100_3 C 0.3784(4) 0.4297(5) 0.57858(13)
H72_3 H 0.399635 0.412714 0.586366
O38_3 O 0.7225(4) 0.3249(3) 0.66301(11)
O41_2 O 0.4831(3) 0.8482(4) 0.51758(8)
O42_3 O 0.8538(3) 0.8222(4) 0.66666(9)
O43_3 O 0.7803(3) 0.7180(4) 0.66282(13)
N11_3 N 0.6185(3) 0.9074(4) 0.63509(8)
N12_3 N 0.6138(3) 0.8502(4) 0.60952(8)
C101_3 C 0.7534(3) 0.7960(4) 0.65243(9)
C102_3 C 0.6732(4) 0.8384(5) 0.63705(10)
C103_3 C 0.6976(4) 0.7516(5) 0.64312(11)
H74_3 H 0.686565 0.706831 0.642194
C104_3 C 0.5242(4) 0.8934(5) 0.54846(11)
C105_3 C 0.6562(3) 0.7729(5) 0.63483(10)
H75_3 H 0.617871 0.743194 0.627933
C106_3 C 0.7283(4) 0.8811(6) 0.64677(11)
H76_3 H 0.738402 0.925435 0.648496
C107_3 C 0.7689(4) 0.8613(6) 0.65399(11)
H77_3 H 0.808375 0.892254 0.660203
C108_3 C 0.8003(4) 0.7776(5) 0.66120(11)
O46_2 O 0.5059(3) 0.9485(4) 0.52451(8)
C110_3 C 0.5874(4) 0.9235(5) 0.62104(11)
C111_3 C 0.5040(5) 0.8970(6) 0.52802(12)
C112_3 C 0.5608(4) 0.9680(5) 0.62498(11)
C113_3 C 0.6346(4) 0.8635(5) 0.62759(10)
C115_3 C 0.6250(5) 0.9286(6) 0.65517(11)
H81_3 H 0.661788 0.973705 0.656397
H82_3 H 0.584181 0.926810 0.659287
H83_3 H 0.633168 0.899128 0.663177
C118_3 C 0.5867(4) 0.8894(6) 0.60520(11)
C119_3 C 0.5511(4) 0.9501(6) 0.55968(13)
H85_3 H 0.556398 0.989921 0.554513
C120_3 C 0.5643(4) 0.8917(5) 0.58555(11)
C121_3 C 0.5371(4) 0.8355(6) 0.57464(12)
H86_3 H 0.531677 0.795760 0.579926
C122_3 C 0.5170(5) 0.8360(6) 0.55556(11)
H87_3 H 0.498983 0.797391 0.547940
C123_3 C 0.4941(4) 0.9443(6) 0.62400(13)
H88_3 H 0.465426 0.899890 0.620345
C124_3 C 0.4683(4) 0.9846(6) 0.62829(14)
H89_3 H 0.422038 0.967251 0.627747
C125_3 C 0.5703(5) 0.9487(6) 0.57858(13)
H90_3 H 0.587286 0.986921 0.586366
O47_3 O 0.8503(3) 0.3718(2) 0.64405(8)
H91_3 H 0.852062 0.243362 0.636067
O52_3 O 0.9326(4) 0.3527(3) 0.63887(11)
O53_3 O 0.7260(6) 0.2513(4) 0.62769(11)
H96_3 H 0.729088 0.222180 0.617035
H97_3 H 0.693017 0.263822 0.621838
C134_3 C 0.9665(6) 0.5684(4) 0.62964(11)
H98_3 H 0.949628 0.597742 0.629914
C139_3 C 0.9508(6) 0.4594(4) 0.63332(11)
C141_3 C 0.9082(5) 0.3877(3) 0.63912(11)
C142_3 C 0.9250(6) 0.5027(4) 0.63392(11)
H102_3 H 0.880232 0.486961 0.637178
In19_7 In 0.666666 0.833334 0.833334
In25_2 In 0.44276(3) 0.83016(2) 0.48873(2)
In26_2 In 0.38741(2) 0.55724(3) 0.48873(2)
In29_3 In 0.49683(2) 0.72074(2) 0.84460(2)
O57_3 O 0.8164(3) 0.3016(3) 0.68425(8)
O59_3 O 0.6984(3) 0.5149(4) 0.68425(8)
O62_2 O 0.9682(3) 0.8185(4) 0.64909(8)
O75_3 O 0.7759(3) 0.6152(4) 0.69118(8)
O78_2 O 0.8907(3) 0.7182(4) 0.64216(8)
C83_3 C 0.9773(3) 0.1997(4) 0.66120(11)
O4_4 O 0.5205(3) 0.3649(2) 0.49999(9)
O5_4 O 0.4470(3) 0.3956(3) 0.49615(13)
N2_4 N 0.2852(3) 0.0444(3) 0.46842(8)
N3_4 N 0.2805(3) 0.0969(3) 0.44285(8)
C1_4 C 0.4201(3) 0.2907(3) 0.48576(9)
C2_4 C 0.3399(4) 0.1681(3) 0.47038(10)
C3_4 C 0.3643(4) 0.2793(3) 0.47645(11)
H2_4 H 0.353232 0.313067 0.475527
C5_4 C 0.3229(3) 0.2166(4) 0.46816(10)
H3_4 H 0.284538 0.208010 0.461266
C6_4 C 0.3950(4) 0.1805(4) 0.48010(11)
H4_4 H 0.405069 0.146300 0.481829
C7_4 C 0.4356(4) 0.2409(4) 0.48732(11)
H5_4 H 0.475042 0.249454 0.493536
C8_4 C 0.4670(4) 0.3560(3) 0.49453(11)
C13_4 C 0.3013(4) 0.1044(3) 0.46092(10)
C15_4 C 0.2917(5) 0.0297(4) 0.48850(11)
H9_4 H 0.328455 0.021416 0.489730
H11_4 H 0.299835 0.067373 0.496510
C18_4 C 0.2534(4) 0.0306(4) 0.43853(11)
C20_4 C 0.2310(4) 0.0059(3) 0.41888(11)
C21_4 C 0.2038(4) 0.0349(4) 0.40797(12)
H14_4 H 0.198344 0.069250 0.413259
C22_4 C 0.1837(5) 0.0143(4) 0.38889(11)
H15_4 H 0.165650 0.034925 0.381273
O1_4 O 0.1882(2) 0.7051(2) 0.47738(8)
N1_7 N 0.333334 0.666666 0.5021(2)
O2_4 O 0.0709(2) 0.5670(2) 0.48126(7)
H1_4 H 0.057967 0.576695 0.469400
O6_4 O 0.0868(3) 0.6860(3) 0.47220(11)
C4_4 C 0.1909(4) 0.9641(3) 0.38179(11)
O7_4 O 0.1920(4) 0.5846(4) 0.46102(11)
H6_4 H 0.159759 0.555513 0.450368
H7_4 H 0.237472 0.597155 0.455171
O8_4 O 0.2691(3) 0.6582(3) 0.49634(11)
C9_4 C 0.2686(4) 0.9017(4) 0.46297(11)
H8_4 H 0.314781 0.931075 0.463247
C10_4 C 0.2541(4) 0.9972(3) 0.45437(11)
C11_4 C 0.1707(5) 0.9403(4) 0.36135(12)
C12_4 C 0.2275(4) 0.9261(3) 0.45831(11)
C14_4 C 0.1753(4) 0.7927(4) 0.46665(11)
H10_4 H 0.250848 0.990704 0.492620
C16_4 C 0.1462(4) 0.7210(3) 0.47245(11)
C17_4 C 0.2444(4) 0.8360(4) 0.46725(11)
H12_4 H 0.273396 0.820294 0.470511
C19_4 C 0.2178(4) 0.9343(4) 0.39301(13)
H13_4 H 0.223065 0.899810 0.387846
C23_4 C 0.1608(4) 0.8831(4) 0.45733(13)
H16_4 H 0.132093 0.898869 0.453678
C24_4 C 0.1350(4) 0.8170(4) 0.46162(14)
H17_4 H 0.088705 0.788120 0.461080
C25_4 C 0.2370(5) 0.9549(4) 0.41191(13)
H18_4 H 0.253953 0.933698 0.419699
O10_4 O 0.3892(4) 0.7309(3) 0.49634(11)
O11_4 O 0.3418(3) 0.6108(4) 0.49634(11)
O20_4 O 0.2949(2) 0.4830(3) 0.47738(8)
O21_4 O 0.4330(2) 0.5038(3) 0.48126(7)
H37_4 H 0.423305 0.481271 0.469400
O25_4 O 0.3140(3) 0.4007(4) 0.47220(11)
C54_4 C 0.0359(3) 0.2267(5) 0.38179(11)
O26_4 O 0.4154(4) 0.6073(6) 0.46102(11)
H42_4 H 0.444487 0.604245 0.450368
H43_4 H 0.402845 0.640316 0.455171
C59_4 C 0.0983(4) 0.3668(6) 0.46297(11)
H44_4 H 0.068925 0.383705 0.463247
C60_4 C 0.0028(3) 0.2568(5) 0.45437(11)
C61_4 C 0.0597(4) 0.2303(6) 0.36135(12)
C62_4 C 0.0739(3) 0.3013(5) 0.45831(11)
C64_4 C 0.2073(4) 0.3825(6) 0.46665(11)
H46_4 H 0.009296 0.260143 0.492620
C66_4 C 0.2790(3) 0.4251(5) 0.47245(11)
C67_4 C 0.1640(4) 0.4083(6) 0.46725(11)
H48_4 H 0.179706 0.453101 0.470511
C69_4 C 0.0657(4) 0.2834(6) 0.39301(13)
H49_4 H 0.100190 0.323254 0.387846
C73_4 C 0.1169(4) 0.2776(6) 0.45733(13)
H52_4 H 0.101131 0.233223 0.453678
C74_4 C 0.1830(4) 0.3179(6) 0.46162(14)
H53_4 H 0.211880 0.300584 0.461080
C75_4 C 0.0451(4) 0.2820(6) 0.41191(13)
H54_4 H 0.066302 0.320254 0.419699
O39_4 O 0.4830(3) 0.1882(2) 0.52262(8)
O40_2 O 0.5038(3) 0.0709(2) 0.51874(7)
H73_4 H 0.481271 0.057967 0.530600
O42_4 O 0.1555(4) 0.5205(3) 0.50001(9)
O43_4 O 0.0513(4) 0.4470(3) 0.50385(13)
N11_4 N 0.2407(4) 0.2852(3) 0.53158(8)
N12_4 N 0.1835(4) 0.2805(3) 0.55715(8)
C101_4 C 0.1293(4) 0.4201(3) 0.51424(9)
O44_4 O 0.4007(4) 0.0868(3) 0.52780(11)
C102_4 C 0.1717(5) 0.3399(4) 0.52962(10)
C103_4 C 0.0849(5) 0.3643(4) 0.52355(11)
H74_4 H 0.040164 0.353232 0.524473
C104_4 C 0.2267(5) 0.1909(4) 0.61821(11)
C105_4 C 0.1062(5) 0.3229(3) 0.53184(10)
H75_4 H 0.076527 0.284538 0.538734
C106_4 C 0.2144(6) 0.3950(4) 0.51990(11)
H76_4 H 0.258768 0.405069 0.518171
C107_4 C 0.1946(6) 0.4356(4) 0.51268(11)
H77_4 H 0.225587 0.475042 0.506464
O45_4 O 0.6073(6) 0.1920(4) 0.53898(11)
H78_4 H 0.604245 0.159759 0.549632
H79_4 H 0.640316 0.237472 0.544829
C108_4 C 0.1109(5) 0.4670(4) 0.50547(11)
C109_4 C 0.3668(6) 0.2686(4) 0.53703(11)
H80_4 H 0.383705 0.314781 0.536753
C110_4 C 0.2568(5) 0.2541(4) 0.54563(11)
C111_4 C 0.2303(6) 0.1707(5) 0.63865(12)
C112_4 C 0.3013(5) 0.2275(4) 0.54169(11)
C113_4 C 0.1968(5) 0.3013(4) 0.53908(10)
C114_4 C 0.3825(6) 0.1753(4) 0.53335(11)
C115_4 C 0.2619(6) 0.2917(5) 0.51150(11)
H81_4 H 0.307038 0.328455 0.510270
H82_4 H 0.260143 0.250848 0.507380
H83_4 H 0.232461 0.299835 0.503490
C116_4 C 0.4251(5) 0.1462(4) 0.52755(11)
C117_4 C 0.4083(6) 0.2444(4) 0.53275(11)
H84_4 H 0.453101 0.273396 0.529489
C118_4 C 0.2227(6) 0.2534(4) 0.56147(11)
C119_4 C 0.2834(6) 0.2178(4) 0.60699(13)
H85_4 H 0.323254 0.223065 0.612154
C120_4 C 0.2250(5) 0.2310(4) 0.58112(11)
C121_4 C 0.1688(6) 0.2038(4) 0.59203(12)
H86_4 H 0.129093 0.198344 0.586741
C122_4 C 0.1693(6) 0.1837(5) 0.61111(11)
H87_4 H 0.130724 0.165650 0.618727
C123_4 C 0.2776(6) 0.1608(4) 0.54267(13)
H88_4 H 0.233223 0.132093 0.546322
C124_4 C 0.3179(6) 0.1350(4) 0.53838(14)
H89_4 H 0.300584 0.088705 0.538920
C125_4 C 0.2820(6) 0.2370(5) 0.58809(13)
H90_4 H 0.320254 0.253953 0.580301
O50_4 O 0.3649(2) 0.8445(4) 0.50001(9)
O51_4 O 0.3956(3) 0.9487(4) 0.50385(13)
N13_4 N 0.0444(3) 0.7593(4) 0.53158(8)
N14_4 N 0.0969(3) 0.8165(4) 0.55715(8)
C126_4 C 0.2907(3) 0.8707(4) 0.51424(9)
C127_4 C 0.1681(3) 0.8283(5) 0.52962(10)
C128_4 C 0.2793(3) 0.9151(5) 0.52355(11)
H92_4 H 0.313067 0.959836 0.524473
C130_4 C 0.2166(4) 0.8938(5) 0.53184(10)
H93_4 H 0.208010 0.923473 0.538734
C131_4 C 0.1805(4) 0.7856(6) 0.51990(11)
H94_4 H 0.146300 0.741232 0.518171
C132_4 C 0.2409(4) 0.8054(6) 0.51268(11)
H95_4 H 0.249454 0.774413 0.506464
C133_4 C 0.3560(3) 0.8891(5) 0.50547(11)
C138_4 C 0.1044(3) 0.8032(5) 0.53908(10)
C140_4 C 0.0297(4) 0.7381(6) 0.51150(11)
H99_4 H 0.021416 0.692962 0.510270
H101_4 H 0.067373 0.767539 0.503490
C143_4 C 0.0306(4) 0.7773(6) 0.56147(11)
C145_4 C 0.0059(3) 0.7750(5) 0.58112(11)
C146_4 C 0.0349(4) 0.8312(6) 0.59203(12)
H104_4 H 0.069250 0.870907 0.586741
C147_4 C 0.0143(4) 0.8307(6) 0.61111(11)
H105_4 H 0.034925 0.869276 0.618727
O56_4 O 0.5670(2) 0.4962(3) 0.51874(7)
O64_4 O 0.6351(2) 0.1555(4) 0.49999(9)
O65_4 O 0.4795(3) 0.6351(2) 0.50001(9)
O69_4 O 0.5530(3) 0.6044(3) 0.50385(13)
O72_4 O 0.6108(4) 0.2691(3) 0.50366(11)
O68_4 O 0.6044(3) 0.0513(4) 0.49615(13)
O12_4 O 0.5170(3) 0.8118(2) 0.47738(8)
O13_4 O 0.4962(3) 0.9291(2) 0.48126(7)
H19_4 H 0.518729 0.942033 0.469400
O15_4 O 0.8445(4) 0.4795(3) 0.49999(9)
O16_4 O 0.9487(4) 0.5530(3) 0.49615(13)
N4_4 N 0.7593(4) 0.7148(3) 0.46842(8)
N5_4 N 0.8165(4) 0.7195(3) 0.44285(8)
C26_4 C 0.8707(4) 0.5799(3) 0.48576(9)
O17_4 O 0.5993(4) 0.9132(3) 0.47220(11)
C27_4 C 0.8283(5) 0.6601(4) 0.47038(10)
C28_4 C 0.9151(5) 0.6357(4) 0.47645(11)
H20_4 H 0.959836 0.646768 0.475527
C29_4 C 0.7733(5) 0.8091(4) 0.38179(11)
C30_4 C 0.8938(5) 0.6771(3) 0.46816(10)
H21_4 H 0.923473 0.715462 0.461266
C31_4 C 0.7856(6) 0.6050(4) 0.48010(11)
H22_4 H 0.741232 0.594931 0.481829
C32_4 C 0.8054(6) 0.5644(4) 0.48732(11)
H23_4 H 0.774413 0.524958 0.493536
O18_4 O 0.3927(6) 0.8080(4) 0.46102(11)
H24_4 H 0.395755 0.840241 0.450368
H25_4 H 0.359684 0.762528 0.455171
C33_4 C 0.8891(5) 0.5330(4) 0.49453(11)
C34_4 C 0.6332(6) 0.7314(4) 0.46297(11)
H26_4 H 0.616295 0.685219 0.463247
C35_4 C 0.7432(5) 0.7459(4) 0.45437(11)
C36_4 C 0.7697(6) 0.8293(5) 0.36135(12)
C37_4 C 0.6987(5) 0.7725(4) 0.45831(11)
C38_4 C 0.8032(5) 0.6987(4) 0.46092(10)
C39_4 C 0.6175(6) 0.8247(4) 0.46665(11)
C40_4 C 0.7381(6) 0.7083(5) 0.48850(11)
H27_4 H 0.692962 0.671545 0.489730
H28_4 H 0.739857 0.749152 0.492620
H29_4 H 0.767539 0.700165 0.496510
C41_4 C 0.5749(5) 0.8538(4) 0.47245(11)
C42_4 C 0.5917(6) 0.7556(4) 0.46725(11)
H30_4 H 0.546899 0.726604 0.470511
C43_4 C 0.7773(6) 0.7466(4) 0.43853(11)
C44_4 C 0.7166(6) 0.7822(4) 0.39301(13)
H31_4 H 0.676746 0.776935 0.387846
C45_4 C 0.7750(5) 0.7690(4) 0.41888(11)
C46_4 C 0.8312(6) 0.7962(4) 0.40797(12)
H32_4 H 0.870907 0.801656 0.413259
C47_4 C 0.8307(6) 0.8163(5) 0.38889(11)
H33_4 H 0.869276 0.834350 0.381273
C48_4 C 0.7224(6) 0.8392(4) 0.45733(13)
H34_4 H 0.766777 0.867907 0.453678
C49_4 C 0.6821(6) 0.8650(4) 0.46162(14)
H35_4 H 0.699416 0.911295 0.461080
C50_4 C 0.7180(6) 0.7630(5) 0.41191(13)
H36_4 H 0.679746 0.746047 0.419699
N6_4 N 0.9556(3) 0.2407(4) 0.46842(8)
N7_4 N 0.9031(3) 0.1835(4) 0.44285(8)
C51_4 C 0.7093(3) 0.1293(4) 0.48576(9)
C52_4 C 0.8319(3) 0.1717(5) 0.47038(10)
C53_4 C 0.7207(3) 0.0849(5) 0.47645(11)
H38_4 H 0.686933 0.040164 0.475527
C55_4 C 0.7834(4) 0.1062(5) 0.46816(10)
H39_4 H 0.791990 0.076527 0.461266
C56_4 C 0.8195(4) 0.2144(6) 0.48010(11)
H40_4 H 0.853700 0.258768 0.481829
C57_4 C 0.7591(4) 0.1946(6) 0.48732(11)
H41_4 H 0.750546 0.225587 0.493536
C58_4 C 0.6440(3) 0.1109(5) 0.49453(11)
C63_4 C 0.8956(3) 0.1968(5) 0.46092(10)
C65_4 C 0.9703(4) 0.2619(6) 0.48850(11)
H45_4 H 0.978584 0.307038 0.489730
H47_4 H 0.932627 0.232461 0.496510
C68_4 C 0.9694(4) 0.2227(6) 0.43853(11)
C70_4 C 0.9941(3) 0.2250(5) 0.41888(11)
C71_4 C 0.9651(4) 0.1688(6) 0.40797(12)
H50_4 H 0.930750 0.129093 0.413259
C72_4 C 0.9857(4) 0.1693(6) 0.38889(11)
H51_4 H 0.965075 0.130724 0.381273
O28_4 O 0.8118(2) 0.2949(2) 0.52262(8)
N8_10 N 0.666666 0.333334 0.4979(2)
O29_4 O 0.9291(2) 0.4330(2) 0.51874(7)
H55_4 H 0.942033 0.423305 0.530600
O33_4 O 0.9132(3) 0.3140(3) 0.52780(11)
C79_4 C 0.8091(4) 0.0359(3) 0.61821(11)
O34_4 O 0.8080(4) 0.4154(4) 0.53898(11)
H60_4 H 0.840241 0.444487 0.549632
H61_4 H 0.762528 0.402845 0.544829
O35_4 O 0.7309(3) 0.3418(3) 0.50366(11)
C84_4 C 0.7314(4) 0.0983(4) 0.53703(11)
H62_4 H 0.685219 0.068925 0.536753
C85_4 C 0.7459(4) 0.0028(3) 0.54563(11)
C86_4 C 0.8293(5) 0.0597(4) 0.63865(12)
C87_4 C 0.7725(4) 0.0739(3) 0.54169(11)
C89_4 C 0.8247(4) 0.2073(4) 0.53335(11)
H64_4 H 0.749152 0.009296 0.507380
C91_4 C 0.8538(4) 0.2790(3) 0.52755(11)
C92_4 C 0.7556(4) 0.1640(4) 0.53275(11)
H66_4 H 0.726604 0.179706 0.529489
C94_4 C 0.7822(4) 0.0657(4) 0.60699(13)
H67_4 H 0.776935 0.100190 0.612154
C98_4 C 0.8392(4) 0.1169(4) 0.54267(13)
H70_4 H 0.867907 0.101131 0.546322
C99_4 C 0.8650(4) 0.1830(4) 0.53838(14)
H71_4 H 0.911295 0.211880 0.538920
C100_4 C 0.7630(5) 0.0451(4) 0.58809(13)
H72_4 H 0.746047 0.066302 0.580301
O38_4 O 0.6582(3) 0.3892(4) 0.50366(11)
O47_4 O 0.7051(2) 0.5170(3) 0.52262(8)
H91_4 H 0.576695 0.518729 0.530600
O52_4 O 0.6860(3) 0.5993(4) 0.52780(11)
C129_4 C 0.9641(3) 0.7733(5) 0.61821(11)
O53_4 O 0.5846(4) 0.3927(6) 0.53898(11)
H96_4 H 0.555513 0.395755 0.549632
H97_4 H 0.597155 0.359684 0.544829
C134_4 C 0.9017(4) 0.6332(6) 0.53703(11)
H98_4 H 0.931075 0.616295 0.536753
C135_4 C 0.9972(3) 0.7432(5) 0.54563(11)
C136_4 C 0.9403(4) 0.7697(6) 0.63865(12)
C137_4 C 0.9261(3) 0.6987(5) 0.54169(11)
C139_4 C 0.7927(4) 0.6175(6) 0.53335(11)
H100_4 H 0.990704 0.739857 0.507380
C141_4 C 0.7210(3) 0.5749(5) 0.52755(11)
C142_4 C 0.8360(4) 0.5917(6) 0.53275(11)
H102_4 H 0.820294 0.546899 0.529489
C144_4 C 0.9343(4) 0.7166(6) 0.60699(13)
H103_4 H 0.899810 0.676746 0.612154
C148_4 C 0.8831(4) 0.7224(6) 0.54267(13)
H106_4 H 0.898869 0.766777 0.546322
C149_4 C 0.8170(4) 0.6821(6) 0.53838(14)
H107_4 H 0.788120 0.699416 0.538920
C150_4 C 0.9549(4) 0.7180(6) 0.58809(13)
H108_4 H 0.933698 0.679746 0.580301
N9_4 N 0.7148(3) 0.9556(3) 0.53158(8)
N10_4 N 0.7195(3) 0.9031(3) 0.55715(8)
C76_4 C 0.5799(3) 0.7093(3) 0.51424(9)
C77_4 C 0.6601(4) 0.8319(3) 0.52962(10)
C78_4 C 0.6357(4) 0.7207(3) 0.52355(11)
H56_4 H 0.646768 0.686933 0.524473
C80_4 C 0.6771(3) 0.7834(4) 0.53184(10)
H57_4 H 0.715462 0.791990 0.538734
C81_4 C 0.6050(4) 0.8195(4) 0.51990(11)
H58_4 H 0.594931 0.853700 0.518171
C82_4 C 0.5644(4) 0.7591(4) 0.51268(11)
H59_4 H 0.524958 0.750546 0.506464
C83_4 C 0.5330(4) 0.6440(3) 0.50547(11)
C88_4 C 0.6987(4) 0.8956(3) 0.53908(10)
C90_4 C 0.7083(5) 0.9703(4) 0.51150(11)
H63_4 H 0.671545 0.978584 0.510270
H65_4 H 0.700165 0.932627 0.503490
C93_4 C 0.7466(4) 0.9694(4) 0.56147(11)
C95_4 C 0.7690(4) 0.9941(3) 0.58112(11)
C96_4 C 0.7962(4) 0.9651(4) 0.59203(12)
H68_4 H 0.801656 0.930750 0.586741
C97_4 C 0.8163(5) 0.9857(4) 0.61111(11)
H69_4 H 0.834350 0.965075 0.618727
O4_5 O 0.3649(2) 0.5205(3) 0.00001(9)
O5_5 O 0.3956(3) 0.4470(3) 0.00385(13)
N2_5 N 0.0444(3) 0.2852(3) 0.03158(8)
N3_5 N 0.0969(3) 0.2805(3) 0.05715(8)
C1_5 C 0.2907(3) 0.4201(3) 0.01424(9)
C2_5 C 0.1681(3) 0.3399(4) 0.02962(10)
C3_5 C 0.2793(3) 0.3643(4) 0.02355(11)
H2_5 H 0.313067 0.353232 0.024473
C5_5 C 0.2166(4) 0.3229(3) 0.03184(10)
H3_5 H 0.208010 0.284538 0.038734
C6_5 C 0.1805(4) 0.3950(4) 0.01990(11)
H4_5 H 0.146300 0.405069 0.018171
C7_5 C 0.2409(4) 0.4356(4) 0.01268(11)
H5_5 H 0.249454 0.475042 0.006464
C8_5 C 0.3560(3) 0.4670(4) 0.00547(11)
C13_5 C 0.1044(3) 0.3013(4) 0.03908(10)
C15_5 C 0.0297(4) 0.2917(5) 0.01150(11)
H9_5 H 0.021416 0.328455 0.010270
H11_5 H 0.067373 0.299835 0.003490
C18_5 C 0.0306(4) 0.2534(4) 0.06147(11)
C20_5 C 0.0059(3) 0.2310(4) 0.08112(11)
C21_5 C 0.0349(4) 0.2038(4) 0.09203(12)
H14_5 H 0.069250 0.198344 0.086741
C22_5 C 0.0143(4) 0.1837(5) 0.11111(11)
H15_5 H 0.034925 0.165650 0.118727
O4_6 O 0.3649(2) 0.5205(3) 1.00001(9)
O68_5 O 0.0513(4) 0.6044(3) 0.00385(13)
O55_3 O 0.0709(2) 0.5038(3) 0.98126(7)
In2_3 In 0.61259(2) 0.16984(2) 0.01127(2)
O1_5 O 0.7051(2) 0.1882(2) 0.02262(8)
O2_5 O 0.5670(2) 0.0709(2) 0.01874(7)
H1_5 H 0.576695 0.057967 0.030600
O6_5 O 0.6860(3) 0.0868(3) 0.02780(11)
C4_5 C 0.9641(3) 0.1909(4) 0.11821(11)
O7_5 O 0.5846(4) 0.1920(4) 0.03898(11)
H6_5 H 0.555513 0.159759 0.049632
H7_5 H 0.597155 0.237472 0.044829
O8_5 O 0.6582(3) 0.2691(3) 0.00366(11)
C9_5 C 0.9017(4) 0.2686(4) 0.03703(11)
H8_5 H 0.931075 0.314781 0.036753
C10_5 C 0.9972(3) 0.2541(4) 0.04563(11)
C11_5 C 0.9403(4) 0.1707(5) 0.13865(12)
C12_5 C 0.9261(3) 0.2275(4) 0.04169(11)
C14_5 C 0.7927(4) 0.1753(4) 0.03335(11)
H10_5 H 0.990704 0.250848 0.007380
C16_5 C 0.7210(3) 0.1462(4) 0.02755(11)
C17_5 C 0.8360(4) 0.2444(4) 0.03275(11)
H12_5 H 0.820294 0.273396 0.029489
C19_5 C 0.9343(4) 0.2178(4) 0.10699(13)
H13_5 H 0.899810 0.223065 0.112154
C23_5 C 0.8831(4) 0.1608(4) 0.04267(13)
H16_5 H 0.898869 0.132093 0.046322
C24_5 C 0.8170(4) 0.1350(4) 0.03838(14)
H17_5 H 0.788120 0.088705 0.038920
C25_5 C 0.9549(4) 0.2370(5) 0.08809(13)
H18_5 H 0.933698 0.253953 0.080301
O10_5 O 0.7309(3) 0.3892(4) 0.00366(11)
O11_5 O 0.6108(4) 0.3418(3) 0.00366(11)
In6_3 In 0.55724(3) 0.38741(2) 0.01127(2)
O20_5 O 0.4830(3) 0.2949(2) 0.02262(8)
O21_5 O 0.5038(3) 0.4330(2) 0.01874(7)
H37_5 H 0.481271 0.423305 0.030600
O25_5 O 0.4007(4) 0.3140(3) 0.02780(11)
C54_5 C 0.2267(5) 0.0359(3) 0.11821(11)
O26_5 O 0.6073(6) 0.4154(4) 0.03898(11)
H42_5 H 0.604245 0.444487 0.049632
H43_5 H 0.640316 0.402845 0.044829
C59_5 C 0.3668(6) 0.0983(4) 0.03703(11)
H44_5 H 0.383705 0.068925 0.036753
C60_5 C 0.2568(5) 0.0028(3) 0.04563(11)
C61_5 C 0.2303(6) 0.0597(4) 0.13865(12)
C62_5 C 0.3013(5) 0.0739(3) 0.04169(11)
C64_5 C 0.3825(6) 0.2073(4) 0.03335(11)
H46_5 H 0.260143 0.009296 0.007380
C66_5 C 0.4251(5) 0.2790(3) 0.02755(11)
C67_5 C 0.4083(6) 0.1640(4) 0.03275(11)
H48_5 H 0.453101 0.179706 0.029489
C69_5 C 0.2834(6) 0.0657(4) 0.10699(13)
H49_5 H 0.323254 0.100190 0.112154
C73_5 C 0.2776(6) 0.1169(4) 0.04267(13)
H52_5 H 0.233223 0.101131 0.046322
C74_5 C 0.3179(6) 0.1830(4) 0.03838(14)
H53_5 H 0.300584 0.211880 0.038920
C75_5 C 0.2820(6) 0.0451(4) 0.08809(13)
H54_5 H 0.320254 0.066302 0.080301
O42_5 O 0.5205(3) 0.1555(4) -0.00001(9)
O50_5 O 0.8445(4) 0.3649(2) -0.00001(9)
In22_3 In 0.83016(2) 0.44276(3) 0.01127(2)
O64_5 O 0.1555(4) 0.6351(2) 0.00001(9)
O65_5 O 0.6351(2) 0.4795(3) -0.00001(9)
N1_8 N 0.666666 0.333334 0.9979(2)
O39_5 O 0.1882(2) 0.4830(3) 0.97738(8)
H73_5 H 0.057967 0.481271 0.969400
O41_3 O 0.1498(3) 0.1815(4) 0.85091(8)
O42_6 O 0.5205(3) 0.1555(4) 0.99999(9)
O43_5 O 0.4470(3) 0.0513(4) 0.99615(13)
N11_5 N 0.2852(3) 0.2407(4) 0.96842(8)
N12_5 N 0.2805(3) 0.1835(4) 0.94285(8)
C101_5 C 0.4201(3) 0.1293(4) 0.98576(9)
O44_5 O 0.0868(3) 0.4007(4) 0.97220(11)
C102_5 C 0.3399(4) 0.1717(5) 0.97038(10)
C103_5 C 0.3643(4) 0.0849(5) 0.97645(11)
H74_5 H 0.353232 0.040164 0.975527
C104_5 C 0.1909(4) 0.2267(5) 0.88179(11)
C105_5 C 0.3229(3) 0.1062(5) 0.96816(10)
H75_5 H 0.284538 0.076527 0.961266
C106_5 C 0.3950(4) 0.2144(6) 0.98010(11)
H76_5 H 0.405069 0.258768 0.981829
C107_5 C 0.4356(4) 0.1946(6) 0.98732(11)
H77_5 H 0.475042 0.225587 0.993536
O45_5 O 0.1920(4) 0.6073(6) 0.96102(11)
H78_5 H 0.159759 0.604245 0.950368
H79_5 H 0.237472 0.640316 0.955171
C108_5 C 0.4670(4) 0.1109(5) 0.99453(11)
O46_3 O 0.1726(3) 0.2818(4) 0.85784(8)
C109_5 C 0.2686(4) 0.3668(6) 0.96297(11)
H80_5 H 0.314781 0.383705 0.963247
C110_5 C 0.2541(4) 0.2568(5) 0.95437(11)
C111_5 C 0.1707(5) 0.2303(6) 0.86135(12)
C112_5 C 0.2275(4) 0.3013(5) 0.95831(11)
C113_5 C 0.3013(4) 0.1968(5) 0.96092(10)
C114_5 C 0.1753(4) 0.3825(6) 0.96665(11)
C115_5 C 0.2917(5) 0.2619(6) 0.98850(11)
H81_5 H 0.328455 0.307038 0.989730
H82_5 H 0.250848 0.260143 0.992620
H83_5 H 0.299835 0.232461 0.996510
C116_5 C 0.1462(4) 0.4251(5) 0.97245(11)
C117_5 C 0.2444(4) 0.4083(6) 0.96725(11)
H84_5 H 0.273396 0.453101 0.970511
C118_5 C 0.2534(4) 0.2227(6) 0.93853(11)
C119_5 C 0.2178(4) 0.2834(6) 0.89301(13)
H85_5 H 0.223065 0.323254 0.887846
C120_5 C 0.2310(4) 0.2250(5) 0.91888(11)
C121_5 C 0.2038(4) 0.1688(6) 0.90797(12)
H86_5 H 0.198344 0.129093 0.913259
C122_5 C 0.1837(5) 0.1693(6) 0.88889(11)
H87_5 H 0.165650 0.130724 0.881273
C123_5 C 0.1608(4) 0.2776(6) 0.95733(13)
H88_5 H 0.132093 0.233223 0.953678
C124_5 C 0.1350(4) 0.3179(6) 0.96162(14)
H89_5 H 0.088705 0.300584 0.961080
C125_5 C 0.2370(5) 0.2820(6) 0.91191(13)
H90_5 H 0.253953 0.320254 0.919699
O50_6 O 0.8445(4) 0.3649(2) 0.99999(9)
O51_5 O 0.9487(4) 0.3956(3) 0.99615(13)
N13_5 N 0.7593(4) 0.0444(3) 0.96842(8)
N14_5 N 0.8165(4) 0.0969(3) 0.94285(8)
C126_5 C 0.8707(4) 0.2907(3) 0.98576(9)
C127_5 C 0.8283(5) 0.1681(3) 0.97038(10)
C128_5 C 0.9151(5) 0.2793(3) 0.97645(11)
H92_5 H 0.959836 0.313067 0.975527
C130_5 C 0.8938(5) 0.2166(4) 0.96816(10)
H93_5 H 0.923473 0.208010 0.961266
C131_5 C 0.7856(6) 0.1805(4) 0.98010(11)
H94_5 H 0.741232 0.146300 0.981829
C132_5 C 0.8054(6) 0.2409(4) 0.98732(11)
H95_5 H 0.774413 0.249454 0.993536
C133_5 C 0.8891(5) 0.3560(3) 0.99453(11)
C138_5 C 0.8032(5) 0.1044(3) 0.96092(10)
C140_5 C 0.7381(6) 0.0297(4) 0.98850(11)
H99_5 H 0.692962 0.021416 0.989730
H101_5 H 0.767539 0.067373 0.996510
C143_5 C 0.7773(6) 0.0306(4) 0.93853(11)
C145_5 C 0.7750(5) 0.0059(3) 0.91888(11)
C146_5 C 0.8312(6) 0.0349(4) 0.90797(12)
H104_5 H 0.870907 0.069250 0.913259
C147_5 C 0.8307(6) 0.0143(4) 0.88889(11)
H105_5 H 0.869276 0.034925 0.881273
In25_3 In 0.10942(3) 0.16350(2) 0.82207(2)
O56_5 O 0.4962(3) 0.5670(2) 0.98126(7)
O60_3 O 0.5169(3) 0.3651(3) 0.98242(8)
O62_3 O 0.6349(3) 0.1518(4) 0.98242(8)
O64_6 O 0.1555(4) 0.6351(2) 1.00001(9)
O65_6 O 0.6351(2) 0.4795(3) 0.99999(9)
O69_5 O 0.6044(3) 0.5530(3) 0.99615(13)
O72_5 O 0.2691(3) 0.6108(4) 0.99634(11)
O76_3 O 0.4941(3) 0.4426(3) 0.97549(8)
O78_3 O 0.5574(3) 0.0515(4) 0.97549(8)
O12_5 O 0.8118(2) 0.5170(3) 0.02262(8)
O13_5 O 0.9291(2) 0.4962(3) 0.01874(7)
H19_5 H 0.942033 0.518729 0.030600
O15_5 O 0.4795(3) 0.8445(4) 0.00001(9)
O16_5 O 0.5530(3) 0.9487(4) 0.00385(13)
N4_5 N 0.7148(3) 0.7593(4) 0.03158(8)
N5_5 N 0.7195(3) 0.8165(4) 0.05715(8)
C26_5 C 0.5799(3) 0.8707(4) 0.01424(9)
O17_5 O 0.9132(3) 0.5993(4) 0.02780(11)
C27_5 C 0.6601(4) 0.8283(5) 0.02962(10)
C28_5 C 0.6357(4) 0.9151(5) 0.02355(11)
H20_5 H 0.646768 0.959836 0.024473
C29_5 C 0.8091(4) 0.7733(5) 0.11821(11)
C30_5 C 0.6771(3) 0.8938(5) 0.03184(10)
H21_5 H 0.715462 0.923473 0.038734
C31_5 C 0.6050(4) 0.7856(6) 0.01990(11)
H22_5 H 0.594931 0.741232 0.018171
C32_5 C 0.5644(4) 0.8054(6) 0.01268(11)
H23_5 H 0.524958 0.774413 0.006464
O18_5 O 0.8080(4) 0.3927(6) 0.03898(11)
H24_5 H 0.840241 0.395755 0.049632
H25_5 H 0.762528 0.359684 0.044829
C33_5 C 0.5330(4) 0.8891(5) 0.00547(11)
C34_5 C 0.7314(4) 0.6332(6) 0.03703(11)
H26_5 H 0.685219 0.616295 0.036753
C35_5 C 0.7459(4) 0.7432(5) 0.04563(11)
C36_5 C 0.8293(5) 0.7697(6) 0.13865(12)
C37_5 C 0.7725(4) 0.6987(5) 0.04169(11)
C38_5 C 0.6987(4) 0.8032(5) 0.03908(10)
C39_5 C 0.8247(4) 0.6175(6) 0.03335(11)
C40_5 C 0.7083(5) 0.7381(6) 0.01150(11)
H27_5 H 0.671545 0.692962 0.010270
H28_5 H 0.749152 0.739857 0.007380
H29_5 H 0.700165 0.767539 0.003490
C41_5 C 0.8538(4) 0.5749(5) 0.02755(11)
C42_5 C 0.7556(4) 0.5917(6) 0.03275(11)
H30_5 H 0.726604 0.546899 0.029489
C43_5 C 0.7466(4) 0.7773(6) 0.06147(11)
C44_5 C 0.7822(4) 0.7166(6) 0.10699(13)
H31_5 H 0.776935 0.676746 0.112154
C45_5 C 0.7690(4) 0.7750(5) 0.08112(11)
C46_5 C 0.7962(4) 0.8312(6) 0.09203(12)
H32_5 H 0.801656 0.870907 0.086741
C47_5 C 0.8163(5) 0.8307(6) 0.11111(11)
H33_5 H 0.834350 0.869276 0.118727
C48_5 C 0.8392(4) 0.7224(6) 0.04267(13)
H34_5 H 0.867907 0.766777 0.046322
C49_5 C 0.8650(4) 0.6821(6) 0.03838(14)
H35_5 H 0.911295 0.699416 0.038920
C50_5 C 0.7630(5) 0.7180(6) 0.08809(13)
H36_5 H 0.746047 0.679746 0.080301
N6_5 N 0.2407(4) 0.9556(3) 0.03158(8)
N7_5 N 0.1835(4) 0.9031(3) 0.05715(8)
C51_5 C 0.1293(4) 0.7093(3) 0.01424(9)
C52_5 C 0.1717(5) 0.8319(3) 0.02962(10)
C53_5 C 0.0849(5) 0.7207(3) 0.02355(11)
H38_5 H 0.040164 0.686933 0.024473
C55_5 C 0.1062(5) 0.7834(4) 0.03184(10)
H39_5 H 0.076527 0.791990 0.038734
C56_5 C 0.2144(6) 0.8195(4) 0.01990(11)
H40_5 H 0.258768 0.853700 0.018171
C57_5 C 0.1946(6) 0.7591(4) 0.01268(11)
H41_5 H 0.225587 0.750546 0.006464
C58_5 C 0.1109(5) 0.6440(3) 0.00547(11)
C63_5 C 0.1968(5) 0.8956(3) 0.03908(10)
C65_5 C 0.2619(6) 0.9703(4) 0.01150(11)
H45_5 H 0.307038 0.978584 0.010270
H47_5 H 0.232461 0.932627 0.003490
C68_5 C 0.2227(6) 0.9694(4) 0.06147(11)
C70_5 C 0.2250(5) 0.9941(3) 0.08112(11)
C71_5 C 0.1688(6) 0.9651(4) 0.09203(12)
H50_5 H 0.129093 0.930750 0.086741
C72_5 C 0.1693(6) 0.9857(4) 0.11111(11)
H51_5 H 0.130724 0.965075 0.118727
N8_11 N 0.333334 0.666666 0.0021(2)
O15_6 O 0.4795(3) 0.8445(4) 1.00001(9)
O28_5 O 0.2949(2) 0.8118(2) 0.97738(8)
O29_5 O 0.4330(2) 0.9291(2) 0.98126(7)
H55_5 H 0.423305 0.942033 0.969400
O30_3 O 0.0318(3) 0.8502(3) 0.85091(8)
O33_5 O 0.3140(3) 0.9132(3) 0.97220(11)
C79_5 C 0.0359(3) 0.8091(4) 0.88179(11)
O34_5 O 0.4154(4) 0.8080(4) 0.96102(11)
H60_5 H 0.444487 0.840241 0.950368
H61_5 H 0.402845 0.762528 0.955171
O35_5 O 0.3418(3) 0.7309(3) 0.99634(11)
O36_3 O 0.1093(3) 0.8274(3) 0.85784(8)
C84_5 C 0.0983(4) 0.7314(4) 0.96297(11)
H62_5 H 0.068925 0.685219 0.963247
C85_5 C 0.0028(3) 0.7459(4) 0.95437(11)
C86_5 C 0.0597(4) 0.8293(5) 0.86135(12)
C87_5 C 0.0739(3) 0.7725(4) 0.95831(11)
C89_5 C 0.2073(4) 0.8247(4) 0.96665(11)
H64_5 H 0.009296 0.749152 0.992620
C91_5 C 0.2790(3) 0.8538(4) 0.97245(11)
C92_5 C 0.1640(4) 0.7556(4) 0.96725(11)
H66_5 H 0.179706 0.726604 0.970511
C94_5 C 0.0657(4) 0.7822(4) 0.89301(13)
H67_5 H 0.100190 0.776935 0.887846
C98_5 C 0.1169(4) 0.8392(4) 0.95733(13)
H70_5 H 0.101131 0.867907 0.953678
C99_5 C 0.1830(4) 0.8650(4) 0.96162(14)
H71_5 H 0.211880 0.911295 0.961080
C100_5 C 0.0451(4) 0.7630(5) 0.91191(13)
H72_5 H 0.066302 0.746047 0.919699
O38_5 O 0.3892(4) 0.6582(3) 0.99634(11)
O47_5 O 0.5170(3) 0.7051(2) 0.97738(8)
H91_5 H 0.518729 0.576695 0.969400
O49_3 O 0.8185(4) 0.9682(3) 0.85091(8)
O52_5 O 0.5993(4) 0.6860(3) 0.97220(11)
C129_5 C 0.7733(5) 0.9641(3) 0.88179(11)
O53_5 O 0.3927(6) 0.5846(4) 0.96102(11)
H96_5 H 0.395755 0.555513 0.950368
H97_5 H 0.359684 0.597155 0.955171
O54_3 O 0.7182(4) 0.8907(3) 0.85784(8)
C134_5 C 0.6332(6) 0.9017(4) 0.96297(11)
H98_5 H 0.616295 0.931075 0.963247
C135_5 C 0.7432(5) 0.9972(3) 0.95437(11)
C136_5 C 0.7697(6) 0.9403(4) 0.86135(12)
C137_5 C 0.6987(5) 0.9261(3) 0.95831(11)
C139_5 C 0.6175(6) 0.7927(4) 0.96665(11)
H100_5 H 0.739857 0.990704 0.992620
C141_5 C 0.5749(5) 0.7210(3) 0.97245(11)
C142_5 C 0.5917(6) 0.8360(4) 0.96725(11)
H102_5 H 0.546899 0.820294 0.970511
C144_5 C 0.7166(6) 0.9343(4) 0.89301(13)
H103_5 H 0.676746 0.899810 0.887846
C148_5 C 0.7224(6) 0.8831(4) 0.95733(13)
H106_5 H 0.766777 0.898869 0.953678
C149_5 C 0.6821(6) 0.8170(4) 0.96162(14)
H107_5 H 0.699416 0.788120 0.961080
C150_5 C 0.7180(6) 0.9549(4) 0.91191(13)
H108_5 H 0.679746 0.933698 0.919699
In24_3 In 0.83650(2) 0.94593(2) 0.82207(2)
In26_3 In 0.05407(2) 0.89058(3) 0.82207(2)
O61_3 O 0.8482(4) 0.4831(3) 0.98242(8)
O77_3 O 0.9485(4) 0.5059(3) 0.97549(8)
N9_5 N 0.9556(3) 0.7148(3) 0.96842(8)
N10_5 N 0.9031(3) 0.7195(3) 0.94285(8)
C76_5 C 0.7093(3) 0.5799(3) 0.98576(9)
C77_5 C 0.8319(3) 0.6601(4) 0.97038(10)
C78_5 C 0.7207(3) 0.6357(4) 0.97645(11)
H56_5 H 0.686933 0.646768 0.975527
C80_5 C 0.7834(4) 0.6771(3) 0.96816(10)
H57_5 H 0.791990 0.715462 0.961266
C81_5 C 0.8195(4) 0.6050(4) 0.98010(11)
H58_5 H 0.853700 0.594931 0.981829
C82_5 C 0.7591(4) 0.5644(4) 0.98732(11)
H59_5 H 0.750546 0.524958 0.993536
C83_5 C 0.6440(3) 0.5330(4) 0.99453(11)
C88_5 C 0.8956(3) 0.6987(4) 0.96092(10)
C90_5 C 0.9703(4) 0.7083(5) 0.98850(11)
H63_5 H 0.978584 0.671545 0.989730
H65_5 H 0.932627 0.700165 0.996510
C93_5 C 0.9694(4) 0.7466(4) 0.93853(11)
C95_5 C 0.9941(3) 0.7690(4) 0.91888(11)
C96_5 C 0.9651(4) 0.7962(4) 0.90797(12)
H68_5 H 0.930750 0.801656 0.913259
C97_5 C 0.9857(4) 0.8163(5) 0.88889(11)
H69_5 H 0.965075 0.834350 0.881273
N1_9 N 0.000000 -0.000000 0.8355(2)
O4_7 O 0.1871(3) 0.6983(2) 0.83333(9)
O5_6 O 0.1136(3) 0.7290(3) 0.82949(13)
C1_6 C 0.0867(3) 0.6241(3) 0.81910(9)
C2_6 C 0.0065(4) 0.5015(3) 0.80372(10)
C3_6 C 0.0309(4) 0.6127(3) 0.80979(11)
H2_6 H 0.019898 0.646401 0.808861
C6_6 C 0.0616(4) 0.5139(4) 0.81344(11)
H4_6 H 0.071735 0.479634 0.815163
C7_6 C 0.1022(4) 0.5743(4) 0.82066(11)
H5_6 H 0.141708 0.582788 0.826870
C8_6 C 0.1336(4) 0.6894(3) 0.82787(11)
O10_6 O 0.0558(4) 0.0643(3) 0.82968(11)
O50_7 O 0.0316(2) 0.1778(4) 0.83334(9)
O51_6 O 0.0623(3) 0.2820(4) 0.83718(13)
C133_6 C 0.0227(3) 0.2224(5) 0.83880(11)
N1_10 N 0.000000 1.000000 0.8355(2)
O11_6 O 0.0084(3) 0.9442(4) 0.82968(11)
O21_6 O 0.0996(2) 0.8372(3) 0.81460(7)
H37_6 H 0.089971 0.814605 0.802734
O26_6 O 0.0820(4) 0.9407(6) 0.79436(11)
H42_6 H 0.111153 0.937579 0.783702
H43_6 H 0.069511 0.973650 0.788505
O39_6 O 0.1497(3) 0.5215(2) 0.85595(8)
O40_3 O 0.1705(3) 0.4042(2) 0.85207(7)
H73_6 H 0.147938 0.391300 0.863933
O44_6 O 0.0674(4) 0.4201(3) 0.86113(11)
O45_6 O 0.2740(6) 0.5253(4) 0.87231(11)
H78_6 H 0.270912 0.493092 0.882965
H79_6 H 0.306983 0.570805 0.878162
C109_6 C 0.0335(6) 0.6019(4) 0.87036(11)
H80_6 H 0.050372 0.648114 0.870086
C114_6 C 0.0492(6) 0.5086(4) 0.86668(11)
C116_6 C 0.0918(5) 0.4795(4) 0.86088(11)
C117_6 C 0.0750(6) 0.5777(4) 0.86608(11)
H84_6 H 0.119768 0.606729 0.862822
O56_6 O 0.2337(2) 0.8295(3) 0.85207(7)
O64_7 O 0.3017(2) 0.4889(4) 0.83333(9)
O65_7 O 0.1462(3) 0.9684(2) 0.83334(9)
O69_6 O 0.2197(3) 0.9377(3) 0.83718(13)
O72_6 O 0.2775(4) 0.6024(3) 0.83699(11)
O1_6 O 0.8548(2) 0.0385(2) 0.81072(8)
N1_11 N 1.000000 -0.000000 0.8355(2)
N2_6 N 0.9518(3) 0.3778(3) 0.80176(8)
N3_6 N 0.9471(3) 0.4303(3) 0.77619(8)
O6_6 O 0.7534(3) 0.0194(3) 0.80554(11)
C4_6 C 0.8575(4) 0.2975(3) 0.71513(11)
C5_6 C 0.9895(3) 0.5500(4) 0.80150(10)
H3_6 H 0.951204 0.541344 0.794600
C9_6 C 0.9352(4) 0.2351(4) 0.79631(11)
H8_6 H 0.981447 0.264409 0.796581
C10_6 C 0.9207(4) 0.3306(3) 0.78771(11)
C11_6 C 0.8373(5) 0.2737(4) 0.69469(12)
C12_6 C 0.8941(4) 0.2595(3) 0.79165(11)
C13_6 C 0.9679(4) 0.4378(3) 0.79426(10)
C14_6 C 0.8419(4) 0.1261(4) 0.79999(11)
C15_6 C 0.9583(5) 0.3631(4) 0.82184(11)
H9_6 H 0.995121 0.354750 0.823064
H10_6 H 0.917514 0.324038 0.825954
H11_6 H 0.966501 0.400707 0.829844
C16_6 C 0.8128(4) 0.0544(3) 0.80579(11)
C17_6 C 0.9110(4) 0.1694(4) 0.80059(11)
H12_6 H 0.940062 0.153628 0.803845
C18_6 C 0.9200(4) 0.3640(4) 0.77187(11)
C19_6 C 0.8844(4) 0.2677(4) 0.72635(13)
H13_6 H 0.889731 0.233144 0.721180
C20_6 C 0.8976(4) 0.3393(3) 0.75222(11)
C21_6 C 0.8704(4) 0.3683(4) 0.74131(12)
H14_6 H 0.865010 0.402584 0.746593
C22_6 C 0.8503(5) 0.3477(4) 0.72223(11)
H15_6 H 0.832316 0.368259 0.714607
C23_6 C 0.8274(4) 0.2165(4) 0.79067(13)
H16_6 H 0.798759 0.232203 0.787012
C24_6 C 0.8016(4) 0.1504(4) 0.79496(14)
H17_6 H 0.755371 0.121454 0.794414
C25_6 C 0.9036(5) 0.2883(4) 0.74525(13)
H18_6 H 0.920619 0.267032 0.753033
O12_6 O 0.1836(3) 0.1452(2) 0.81072(8)
O13_6 O 0.1628(3) 0.2625(2) 0.81460(7)
H19_6 H 0.185395 0.275367 0.802734
N4_6 N 0.4259(4) 0.0482(3) 0.80176(8)
N5_6 N 0.4831(4) 0.0529(3) 0.77619(8)
O17_6 O 0.2659(4) 0.2466(3) 0.80554(11)
C29_6 C 0.4399(5) 0.1425(4) 0.71513(11)
C30_6 C 0.5604(5) 0.0105(3) 0.80150(10)
H21_6 H 0.590139 0.048796 0.794600
O18_6 O 0.0593(6) 0.1414(4) 0.79436(11)
H24_6 H 0.062421 0.173575 0.783702
H25_6 H 0.026350 0.095862 0.788505
C34_6 C 0.2998(6) 0.0648(4) 0.79631(11)
H26_6 H 0.282961 0.018553 0.796581
C35_6 C 0.4098(5) 0.0793(4) 0.78771(11)
C36_6 C 0.4363(6) 0.1627(5) 0.69469(12)
C37_6 C 0.3653(5) 0.1059(4) 0.79165(11)
C38_6 C 0.4698(5) 0.0321(4) 0.79426(10)
C39_6 C 0.2841(6) 0.1581(4) 0.79999(11)
C40_6 C 0.4047(6) 0.0417(5) 0.82184(11)
H27_6 H 0.359628 0.004879 0.823064
H28_6 H 0.406523 0.082486 0.825954
H29_6 H 0.434205 0.033499 0.829844
C41_6 C 0.2415(5) 0.1872(4) 0.80579(11)
C42_6 C 0.2583(6) 0.0890(4) 0.80059(11)
H30_6 H 0.213565 0.059938 0.803845
C43_6 C 0.4439(6) 0.0800(4) 0.77187(11)
C44_6 C 0.3832(6) 0.1156(4) 0.72635(13)
H31_6 H 0.343412 0.110269 0.721180
C45_6 C 0.4416(5) 0.1024(4) 0.75222(11)
C46_6 C 0.4978(6) 0.1296(4) 0.74131(12)
H32_6 H 0.537573 0.134990 0.746593
C47_6 C 0.4973(6) 0.1497(5) 0.72223(11)
H33_6 H 0.535942 0.167684 0.714607
C48_6 C 0.3890(6) 0.1726(4) 0.79067(13)
H34_6 H 0.433443 0.201241 0.787012
C49_6 C 0.3487(6) 0.1984(4) 0.79496(14)
H35_6 H 0.366082 0.244629 0.794414
C50_6 C 0.3846(6) 0.0964(5) 0.74525(13)
H36_6 H 0.346412 0.079381 0.753033
N13_6 N 0.7111(3) 0.0926(4) 0.86491(8)
N14_6 N 0.7636(3) 0.1498(4) 0.89048(8)
C126_6 C 0.9574(3) 0.2040(4) 0.84757(9)
C127_6 C 0.8348(3) 0.1616(5) 0.86295(10)
C128_6 C 0.9460(3) 0.2484(5) 0.85688(11)
H92_6 H 0.979734 0.293169 0.857806
C129_6 C 0.6308(3) 0.1066(5) 0.95154(11)
C130_6 C 0.8833(4) 0.2271(5) 0.86517(10)
H93_6 H 0.874677 0.256806 0.872067
C131_6 C 0.8472(4) 0.1189(6) 0.85323(11)
H94_6 H 0.812967 0.074565 0.851504
C132_6 C 0.9076(4) 0.1387(6) 0.84601(11)
H95_6 H 0.916121 0.107746 0.839797
C135_6 C 0.6639(3) 0.0765(5) 0.87896(11)
C136_6 C 0.6070(4) 0.1030(6) 0.97198(12)
C137_6 C 0.5928(3) 0.0320(5) 0.87502(11)
C138_6 C 0.7711(3) 0.1365(5) 0.87241(10)
C140_6 C 0.6964(4) 0.0714(6) 0.84483(11)
H99_6 H 0.688083 0.026295 0.843603
H100_6 H 0.657371 0.073190 0.840713
H101_6 H 0.734040 0.100872 0.836823
C143_6 C 0.6973(4) 0.1106(6) 0.89480(11)
C144_6 C 0.6010(4) 0.0499(6) 0.94032(13)
H103_6 H 0.566477 0.010079 0.945487
C145_6 C 0.6726(3) 0.1083(5) 0.91445(11)
C146_6 C 0.7016(4) 0.1645(6) 0.92536(12)
H104_6 H 0.735917 0.204240 0.920074
C147_6 C 0.6810(4) 0.1640(6) 0.94444(11)
H105_6 H 0.701592 0.202609 0.952060
C148_6 C 0.5498(4) 0.0557(6) 0.87600(13)
H106_6 H 0.565536 0.100110 0.879655
C149_6 C 0.4837(4) 0.0154(6) 0.87171(14)
H107_6 H 0.454787 0.032749 0.872253
C150_6 C 0.6216(4) 0.0513(6) 0.92142(13)
H108_6 H 0.600365 0.013079 0.913634
O68_6 O 0.2710(3) 0.3847(4) 0.82949(13)
N1_12 N 1.000000 1.000000 0.8355(2)
O2_6 O 0.7375(2) 0.9004(2) 0.81460(7)
H1_6 H 0.724633 0.910029 0.802734
O7_6 O 0.8586(4) 0.9180(4) 0.79436(11)
H6_6 H 0.826425 0.888847 0.783702
H7_6 H 0.904138 0.930489 0.788505
O8_6 O 0.9357(3) 0.9916(3) 0.82968(11)
O15_7 O 0.5111(4) 0.8129(3) 0.83333(9)
O16_6 O 0.6153(4) 0.8864(3) 0.82949(13)
C26_6 C 0.5373(4) 0.9133(3) 0.81910(9)
C27_6 C 0.4949(5) 0.9935(4) 0.80372(10)
C28_6 C 0.5817(5) 0.9691(4) 0.80979(11)
H20_6 H 0.626502 0.980102 0.808861
C31_6 C 0.4522(6) 0.9384(4) 0.81344(11)
H22_6 H 0.407898 0.928265 0.815163
C32_6 C 0.4720(6) 0.8978(4) 0.82066(11)
H23_6 H 0.441079 0.858292 0.826870
C33_6 C 0.5557(5) 0.8664(4) 0.82787(11)
O20_6 O 0.9615(2) 0.8164(3) 0.81072(8)
N6_6 N 0.6222(3) 0.5741(4) 0.80176(8)
N7_6 N 0.5697(3) 0.5169(4) 0.77619(8)
C51_6 C 0.3759(3) 0.4627(4) 0.81910(9)
O25_6 O 0.9806(3) 0.7341(4) 0.80554(11)
C52_6 C 0.4985(3) 0.5051(5) 0.80372(10)
C53_6 C 0.3873(3) 0.4183(5) 0.80979(11)
H38_6 H 0.353599 0.373498 0.808861
C54_6 C 0.7025(3) 0.5601(5) 0.71513(11)
C55_6 C 0.4500(4) 0.4396(5) 0.80150(10)
H39_6 H 0.458656 0.409861 0.794600
C56_6 C 0.4861(4) 0.5478(6) 0.81344(11)
H40_6 H 0.520366 0.592102 0.815163
C57_6 C 0.4257(4) 0.5280(6) 0.82066(11)
H41_6 H 0.417212 0.558921 0.826870
C58_6 C 0.3106(3) 0.4443(5) 0.82787(11)
C59_6 C 0.7649(4) 0.7002(6) 0.79631(11)
H44_6 H 0.735591 0.717039 0.796581
C60_6 C 0.6694(3) 0.5902(5) 0.78771(11)
C61_6 C 0.7263(4) 0.5637(6) 0.69469(12)
C62_6 C 0.7405(3) 0.6347(5) 0.79165(11)
C63_6 C 0.5622(3) 0.5302(5) 0.79426(10)
C64_6 C 0.8739(4) 0.7159(6) 0.79999(11)
C65_6 C 0.6369(4) 0.5953(6) 0.82184(11)
H45_6 H 0.645250 0.640372 0.823064
H46_6 H 0.675962 0.593477 0.825954
H47_6 H 0.599293 0.565795 0.829844
C66_6 C 0.9456(3) 0.7585(5) 0.80579(11)
C67_6 C 0.8306(4) 0.7417(6) 0.80059(11)
H48_6 H 0.846372 0.786435 0.803845
C68_6 C 0.6360(4) 0.5561(6) 0.77187(11)
C69_6 C 0.7323(4) 0.6168(6) 0.72635(13)
H49_6 H 0.766856 0.656588 0.721180
C70_6 C 0.6607(3) 0.5584(5) 0.75222(11)
C71_6 C 0.6317(4) 0.5022(6) 0.74131(12)
H50_6 H 0.597416 0.462427 0.746593
C72_6 C 0.6523(4) 0.5027(6) 0.72223(11)
H51_6 H 0.631741 0.464058 0.714607
C73_6 C 0.7835(4) 0.6110(6) 0.79067(13)
H52_6 H 0.767797 0.566557 0.787012
C74_6 C 0.8496(4) 0.6513(6) 0.79496(14)
H53_6 H 0.878546 0.633918 0.794414
C75_6 C 0.7117(4) 0.6154(6) 0.74525(13)
H54_6 H 0.732968 0.653588 0.753033
O28_6 O 0.4785(2) 0.6282(2) 0.85595(8)
N8_12 N 0.333333 0.666667 0.8312(2)
O29_6 O 0.5958(2) 0.7663(2) 0.85207(7)
H55_6 H 0.608700 0.756638 0.863933
N9_6 N 0.3815(3) 0.2889(3) 0.86491(8)
N10_6 N 0.3862(3) 0.2364(3) 0.89048(8)
C76_6 C 0.2466(3) 0.0426(3) 0.84757(9)
O33_6 O 0.5799(3) 0.6473(3) 0.86113(11)
C77_6 C 0.3268(4) 0.1652(3) 0.86295(10)
C78_6 C 0.3024(4) 0.0540(3) 0.85688(11)
H56_6 H 0.313435 0.020266 0.857806
C79_6 C 0.4758(4) 0.3692(3) 0.95154(11)
C80_6 C 0.3438(3) 0.1167(4) 0.86517(10)
H57_6 H 0.382129 0.125323 0.872067
C81_6 C 0.2717(4) 0.1528(4) 0.85323(11)
H58_6 H 0.261598 0.187033 0.851504
C82_6 C 0.2311(4) 0.0924(4) 0.84601(11)
H59_6 H 0.191625 0.083879 0.839797
O34_6 O 0.4747(4) 0.7487(4) 0.87231(11)
H60_6 H 0.506908 0.777820 0.882965
H61_6 H 0.429195 0.736178 0.878162
O35_6 O 0.3976(3) 0.6751(3) 0.83699(11)
C84_6 C 0.3981(4) 0.4316(4) 0.87036(11)
H62_6 H 0.351886 0.402258 0.870086
C85_6 C 0.4126(4) 0.3361(3) 0.87896(11)
C86_6 C 0.4960(5) 0.3930(4) 0.97198(12)
C87_6 C 0.4392(4) 0.4072(3) 0.87502(11)
C88_6 C 0.3654(4) 0.2289(3) 0.87241(10)
C89_6 C 0.4914(4) 0.5406(4) 0.86668(11)
C90_6 C 0.3750(5) 0.3036(4) 0.84483(11)
H63_6 H 0.338212 0.311917 0.843603
H64_6 H 0.415819 0.342629 0.840713
H65_6 H 0.366832 0.265960 0.836823
C91_6 C 0.5205(4) 0.6123(3) 0.86088(11)
C92_6 C 0.4223(4) 0.4973(4) 0.86608(11)
H66_6 H 0.393271 0.513039 0.862822
C93_6 C 0.4133(4) 0.3027(4) 0.89480(11)
C94_6 C 0.4489(4) 0.3990(4) 0.94032(13)
H67_6 H 0.443602 0.433523 0.945487
C95_6 C 0.4357(4) 0.3274(3) 0.91445(11)
C96_6 C 0.4629(4) 0.2984(4) 0.92536(12)
H68_6 H 0.468323 0.264083 0.920074
C97_6 C 0.4830(5) 0.3190(4) 0.94444(11)
H69_6 H 0.501017 0.298408 0.952060
C98_6 C 0.5059(4) 0.4502(4) 0.87600(13)
H70_6 H 0.534574 0.434464 0.879655
C99_6 C 0.5317(4) 0.5163(4) 0.87171(14)
H71_6 H 0.577962 0.545213 0.872253
C100_6 C 0.4297(5) 0.3784(4) 0.92142(13)
H72_6 H 0.412714 0.399635 0.913634
O38_6 O 0.3249(3) 0.7225(4) 0.83699(11)
O42_7 O 0.8222(4) 0.8538(3) 0.83334(9)
O43_6 O 0.7180(4) 0.7803(3) 0.83718(13)
N11_6 N 0.9074(4) 0.6185(3) 0.86491(8)
N12_6 N 0.8502(4) 0.6138(3) 0.89048(8)
C101_6 C 0.7960(4) 0.7534(3) 0.84757(9)
C102_6 C 0.8384(5) 0.6732(4) 0.86295(10)
C103_6 C 0.7516(5) 0.6976(4) 0.85688(11)
H74_6 H 0.706831 0.686565 0.857806
C104_6 C 0.8934(5) 0.5242(4) 0.95154(11)
C105_6 C 0.7729(5) 0.6562(3) 0.86517(10)
H75_6 H 0.743194 0.617871 0.872067
C106_6 C 0.8811(6) 0.7283(4) 0.85323(11)
H76_6 H 0.925435 0.738402 0.851504
C107_6 C 0.8613(6) 0.7689(4) 0.84601(11)
H77_6 H 0.892254 0.808375 0.839797
C108_6 C 0.7776(5) 0.8003(4) 0.83880(11)
C110_6 C 0.9235(5) 0.5874(4) 0.87896(11)
C111_6 C 0.8970(6) 0.5040(5) 0.97198(12)
C112_6 C 0.9680(5) 0.5608(4) 0.87502(11)
C113_6 C 0.8635(5) 0.6346(4) 0.87241(10)
C115_6 C 0.9286(6) 0.6250(5) 0.84483(11)
H81_6 H 0.973705 0.661788 0.843603
H82_6 H 0.926810 0.584181 0.840713
H83_6 H 0.899128 0.633168 0.836823
C118_6 C 0.8894(6) 0.5867(4) 0.89480(11)
C119_6 C 0.9501(6) 0.5511(4) 0.94032(13)
H85_6 H 0.989921 0.556398 0.945487
C120_6 C 0.8917(5) 0.5643(4) 0.91445(11)
C121_6 C 0.8355(6) 0.5371(4) 0.92536(12)
H86_6 H 0.795760 0.531677 0.920074
C122_6 C 0.8360(6) 0.5170(5) 0.94444(11)
H87_6 H 0.797391 0.498983 0.952060
C123_6 C 0.9443(6) 0.4941(4) 0.87600(13)
H88_6 H 0.899890 0.465426 0.879655
C124_6 C 0.9846(6) 0.4683(4) 0.87171(14)
H89_6 H 0.967251 0.422038 0.872253
C125_6 C 0.9487(6) 0.5703(5) 0.92142(13)
H90_6 H 0.986921 0.587286 0.913634
O47_6 O 0.3718(2) 0.8503(3) 0.85595(8)
H91_6 H 0.243362 0.852062 0.863933
O52_6 O 0.3527(3) 0.9326(4) 0.86113(11)
O53_6 O 0.2513(4) 0.7260(6) 0.87231(11)
H96_6 H 0.222180 0.729088 0.882965
H97_6 H 0.263822 0.693017 0.878162
C134_6 C 0.5684(4) 0.9665(6) 0.87036(11)
H98_6 H 0.597742 0.949628 0.870086
C139_6 C 0.4594(4) 0.9508(6) 0.86668(11)
C141_6 C 0.3877(3) 0.9082(5) 0.86088(11)
C142_6 C 0.5027(4) 0.9250(6) 0.86608(11)
H102_6 H 0.486961 0.880232 0.862822
C83_6 C 0.1997(4) 0.9773(3) 0.83880(11)
loop_
_geom_bond_atom_site_label_1
_geom_bond_atom_site_label_2
_geom_bond_site_symmetry_1
_geom_bond_site_symmetry_2
O4 C8 1_555 1_555
O5 C8 1_555 1_555
In15 O5 1_555 1_555
In28 O4 1_555 1_555
In1 O2 1_555 1_555
In2 O1 1_555 1_555
O1 C16 1_555 1_555
N1 O8 1_555 1_555
O2 In2 1_555 1_555
H1 O2 1_555 1_555
O3 C11 1_555 1_555
N2 C10 1_555 1_555
N3 C13 1_555 1_555
C1 C3 1_555 1_555
O6 C16 1_555 1_555
C2 C5 1_555 1_555
C3 H2 1_555 1_555
C4 C11 1_555 1_555
C5 C3 1_555 1_555
H3 C5 1_555 1_555
C6 C2 1_555 1_555
H4 C6 1_555 1_555
C7 C1 1_555 1_555
H5 C7 1_555 1_555
O7 In2 1_555 1_555
H6 O7 1_555 1_555
H7 O7 1_555 1_555
O8 In2 1_555 1_555
O9 C11 1_555 1_555
C9 H8 1_555 1_555
C10 C12 1_555 1_555
C12 C9 1_555 1_555
C13 N2 1_555 1_555
C14 C16 1_555 1_555
C15 N2 1_555 1_555
H9 C15 1_555 1_555
H10 C15 1_555 1_555
H11 C15 1_555 1_555
C17 C9 1_555 1_555
H12 C17 1_555 1_555
C18 N3 1_555 1_555
C19 C4 1_555 1_555
H13 C19 1_555 1_555
C20 C18 1_555 1_555
C21 C20 1_555 1_555
H14 C21 1_555 1_555
C22 C4 1_555 1_555
H15 C22 1_555 1_555
C23 C12 1_555 1_555
H16 C23 1_555 1_555
C24 C14 1_555 1_555
H17 C24 1_555 1_555
C25 C19 1_555 1_555
H18 C25 1_555 1_555
O10 N1 1_555 1_555
O11 N1 1_555 1_555
O14 C36 1_555 1_555
O15 C33 1_555 1_555
O16 In1 1_555 1_555
N4 C35 1_555 1_555
N5 C38 1_555 1_555
C26 C28 1_555 1_555
C27 C30 1_555 1_555
C28 H20 1_555 1_555
C29 C36 1_555 1_555
C30 C28 1_555 1_555
H21 C30 1_555 1_555
C31 C27 1_555 1_555
H22 C31 1_555 1_555
C32 C26 1_555 1_555
H23 C32 1_555 1_555
C33 O16 1_555 1_555
O19 C36 1_555 1_555
C35 C37 1_555 1_555
C38 N4 1_555 1_555
C40 N4 1_555 1_555
H27 C40 1_555 1_555
H28 C40 1_555 1_555
H29 C40 1_555 1_555
C43 N5 1_555 1_555
C44 C29 1_555 1_555
H31 C44 1_555 1_555
C45 C43 1_555 1_555
C46 C45 1_555 1_555
H32 C46 1_555 1_555
C47 C29 1_555 1_555
H33 C47 1_555 1_555
C48 C37 1_555 1_555
H34 C48 1_555 1_555
H35 C49 1_555 1_555
C50 C44 1_555 1_555
H36 C50 1_555 1_555
In15 O21 1_555 1_555
In6 O11 1_555 1_555
O20 In6 1_555 1_555
O21 In6 1_555 1_555
H37 O21 1_555 1_555
O25 C66 1_555 1_555
O26 In6 1_555 1_555
H42 O26 1_555 1_555
H43 O26 1_555 1_555
C59 H44 1_555 1_555
C64 C66 1_555 1_555
C66 O20 1_555 1_555
C67 C59 1_555 1_555
H48 C67 1_555 1_555
In7 O15 1_555 1_555
N8 O35 1_555 1_555
O29 In1 1_555 1_555
H55 O29 1_555 1_555
O34 In7 1_555 1_555
H60 O34 1_555 1_555
H61 O34 1_555 1_555
O35 In7 1_555 1_555
O42 In2 1_555 1_555
O43 In1 1_555 1_555
C101 C103 1_555 1_555
C103 H74 1_555 1_555
C106 C102 1_555 1_555
H76 C106 1_555 1_555
C107 C101 1_555 1_555
H77 C107 1_555 1_555
C108 O42 1_555 1_555
O49 C136 1_555 1_555
O50 C133 1_555 1_555
O51 C133 1_555 1_555
N13 C135 1_555 1_555
N14 C138 1_555 1_555
C126 C128 1_555 1_555
O52 C141 1_555 1_555
C127 C130 1_555 1_555
C128 H92 1_555 1_555
C129 C136 1_555 1_555
C130 C128 1_555 1_555
H93 C130 1_555 1_555
C131 C127 1_555 1_555
H94 C131 1_555 1_555
C132 C126 1_555 1_555
H95 C132 1_555 1_555
C133 C126 1_555 1_555
O54 C136 1_555 1_555
C134 H98 1_555 1_555
C135 C137 1_555 1_555
C137 C134 1_555 1_555
C138 N13 1_555 1_555
C139 C141 1_555 1_555
C140 N13 1_555 1_555
H99 C140 1_555 1_555
H100 C140 1_555 1_555
H101 C140 1_555 1_555
C141 O47 1_555 1_555
C142 C134 1_555 1_555
H102 C142 1_555 1_555
C143 N14 1_555 1_555
C144 C129 1_555 1_555
H103 C144 1_555 1_555
C145 C143 1_555 1_555
C146 C145 1_555 1_555
H104 C146 1_555 1_555
C147 C129 1_555 1_555
H105 C147 1_555 1_555
C148 C137 1_555 1_555
H106 C148 1_555 1_555
C149 C139 1_555 1_555
H107 C149 1_555 1_555
C150 C144 1_555 1_555
H108 C150 1_555 1_555
In12 O51 1_555 1_555
In16 O54 1_555 1_555
In20 O19 1_555 1_555
In21 O9 1_555 1_555
In22 O10 1_555 1_555
In24 O49 1_555 1_555
In30 O14 1_555 1_555
In31 O3 1_555 1_555
O56 In15 1_555 1_555
O59 In7 1_555 1_555
O60 In6 1_555 1_555
O62 In2 1_555 1_555
O65 In6 1_555 1_555
O69 In15 1_555 1_555
O73 In15 1_555 1_555
O75 In1 1_555 1_555
O76 In15 1_555 1_555
O78 In1 1_555 1_555
C2 C13 1_555 1_555
C6 C7 1_555 1_555
C10 C18 1_555 1_555
C14 C17 1_555 1_555
C20 C25 1_555 1_555
C21 C22 1_555 1_555
C23 C24 1_555 1_555
C26 C33 1_555 1_555
C27 C38 1_555 1_555
C31 C32 1_555 1_555
C35 C43 1_555 1_555
C45 C50 1_555 1_555
C46 C47 1_555 1_555
C48 C49 1_555 1_555
C64 C67 1_555 1_555
In7 O29 1_555 1_555
O43 C108 1_555 1_555
C101 C108 1_555 1_555
C106 C107 1_555 1_555
O50 In22 1_555 1_555
C127 C138 1_555 1_555
C131 C132 1_555 1_555
C135 C143 1_555 1_555
C139 C142 1_555 1_555
C145 C150 1_555 1_555
C146 C147 1_555 1_555
C148 C149 1_555 1_555
In12 O13 1_555 1_555
In22 O12 1_555 1_555
O12 C41 1_555 1_555
O13 In22 1_555 1_555
H19 O13 1_555 1_555
O17 C41 1_555 1_555
O18 In22 1_555 1_555
H24 O18 1_555 1_555
H25 O18 1_555 1_555
C34 H26 1_555 1_555
C39 C41 1_555 1_555
C42 C34 1_555 1_555
H30 C42 1_555 1_555
O38 N8_2 1_555 1_555
In28 O38 1_555 1_555
O56 In28 1_555 1_555
H91 O56 1_555 1_555
O53 In28 1_555 1_555
H96 O53 1_555 1_555
H97 O53 1_555 1_555
O55 In12 1_555 1_555
O57 In28 1_555 1_555
O61 In22 1_555 1_555
O68 In12 1_555 1_555
O74 In12 1_555 1_555
O77 In12 1_555 1_555
C39 C42 1_555 1_555
O22 C61 1_555 1_555
N6 C60 1_555 1_555
N7 C63 1_555 1_555
C51 C53 1_555 1_555
C52 C55 1_555 1_555
C53 H38 1_555 1_555
C54 C61 1_555 1_555
C55 C53 1_555 1_555
H39 C55 1_555 1_555
C56 C52 1_555 1_555
H40 C56 1_555 1_555
C57 C51 1_555 1_555
H41 C57 1_555 1_555
O27 C61 1_555 1_555
C60 C62 1_555 1_555
C63 N6 1_555 1_555
C65 N6 1_555 1_555
H45 C65 1_555 1_555
H46 C65 1_555 1_555
H47 C65 1_555 1_555
C68 N7 1_555 1_555
C69 C54 1_555 1_555
H49 C69 1_555 1_555
C70 C68 1_555 1_555
C71 C70 1_555 1_555
H50 C71 1_555 1_555
C72 C54 1_555 1_555
H51 C72 1_555 1_555
C73 C62 1_555 1_555
H52 C73 1_555 1_555
H53 C74 1_555 1_555
C75 C69 1_555 1_555
H54 C75 1_555 1_555
O30 C86 1_555 1_555
N9 C85 1_555 1_555
N10 C88 1_555 1_555
O33 C91 1_555 1_555
C79 C86 1_555 1_555
H57 C80 1_555 1_555
O36 C86 1_555 1_555
C84 H62 1_555 1_555
C85 C87 1_555 1_555
C87 C84 1_555 1_555
C88 N9 1_555 1_555
C89 C91 1_555 1_555
C90 N9 1_555 1_555
H63 C90 1_555 1_555
H64 C90 1_555 1_555
H65 C90 1_555 1_555
C91 O28 1_555 1_555
C92 C84 1_555 1_555
H66 C92 1_555 1_555
C93 N10 1_555 1_555
C94 C79 1_555 1_555
H67 C94 1_555 1_555
C95 C93 1_555 1_555
C96 C95 1_555 1_555
H68 C96 1_555 1_555
C97 C79 1_555 1_555
H69 C97 1_555 1_555
C98 C87 1_555 1_555
H70 C98 1_555 1_555
C99 C89 1_555 1_555
H71 C99 1_555 1_555
C100 C94 1_555 1_555
H72 C100 1_555 1_555
In8 O39 1_555 1_555
O39 C116 1_555 1_555
O55 In8 1_555 1_555
H73 O55 1_555 1_555
O41 C111 1_555 1_555
N11 C110 1_555 1_555
N12 C113 1_555 1_555
O44 C116 1_555 1_555
C104 C111 1_555 1_555
H75 C105 1_555 1_555
O45 In8 1_555 1_555
H78 O45 1_555 1_555
H79 O45 1_555 1_555
O46 C111 1_555 1_555
C109 H80 1_555 1_555
C110 C112 1_555 1_555
C112 C109 1_555 1_555
C113 N11 1_555 1_555
C114 C116 1_555 1_555
C115 N11 1_555 1_555
H81 C115 1_555 1_555
H82 C115 1_555 1_555
H83 C115 1_555 1_555
C117 C109 1_555 1_555
H84 C117 1_555 1_555
C118 N12 1_555 1_555
C119 C104 1_555 1_555
H85 C119 1_555 1_555
C120 C118 1_555 1_555
C121 C120 1_555 1_555
H86 C121 1_555 1_555
C122 C104 1_555 1_555
H87 C122 1_555 1_555
C123 C112 1_555 1_555
H88 C123 1_555 1_555
C124 C114 1_555 1_555
H89 C124 1_555 1_555
C125 C119 1_555 1_555
H90 C125 1_555 1_555
In17 O46 1_555 1_555
In18 O36 1_555 1_555
In19_2 O27 1_555 1_555
In25 O41 1_555 1_555
In26 O30 1_555 1_555
In29 O22 1_555 1_555
O58 In8 1_555 1_555
O64 In8 1_555 1_555
O72 In8 1_555 1_555
C52 C63 1_555 1_555
C56 C57 1_555 1_555
C60 C68 1_555 1_555
C70 C75 1_555 1_555
C71 C72 1_555 1_555
C73 C74 1_555 1_555
C85 C93 1_555 1_555
C89 C92 1_555 1_555
C95 C100 1_555 1_555
C96 C97 1_555 1_555
C98 C99 1_555 1_555
C110 C118 1_555 1_555
C114 C117 1_555 1_555
C120 C125 1_555 1_555
C121 C122 1_555 1_555
C123 C124 1_555 1_555
O64 C58 1_555 1_555
O68 C58 1_555 1_555
O65 C83 1_555 1_555
O69 C83 1_555 1_555
C76 C78 1_555 1_555
C78 H56 1_555 1_555
C81 C77 1_555 1_555
H58 C81 1_555 1_555
C82 C76 1_555 1_555
H59 C82 1_555 1_555
C83 C76 1_555 1_555
O72 N8_4 1_555 1_555
C81 C82 1_555 1_555
O4_2 C8_2 1_555 1_555
O5_2 C8_2 1_555 1_555
In18 O5_2 1_555 1_555
In28_2 O4_2 1_555 1_555
In16 O2_2 1_555 1_555
In24 O1_2 1_555 1_555
O1_2 C16_2 1_555 1_555
N1_2 O8_2 1_555 1_555
O2_2 In24 1_555 1_555
H1_2 O2_2 1_555 1_555
O3_2 C11_2 1_555 1_555
N2_2 C10_2 1_555 1_555
N3_2 C13_2 1_555 1_555
C1_2 C3_2 1_555 1_555
O6_2 C16_2 1_555 1_555
C2_2 C5_2 1_555 1_555
C3_2 H2_2 1_555 1_555
C4_2 C11_2 1_555 1_555
C5_2 C3_2 1_555 1_555
H3_2 C5_2 1_555 1_555
C6_2 C2_2 1_555 1_555
H4_2 C6_2 1_555 1_555
C7_2 C1_2 1_555 1_555
H5_2 C7_2 1_555 1_555
O7_2 In24 1_555 1_555
H6_2 O7_2 1_555 1_555
H7_2 O7_2 1_555 1_555
O8_2 In24 1_555 1_555
O9_2 C11_2 1_555 1_555
C9_2 H8_2 1_555 1_555
C10_2 C12_2 1_555 1_555
C12_2 C9_2 1_555 1_555
C13_2 N2_2 1_555 1_555
C14_2 C16_2 1_555 1_555
C15_2 N2_2 1_555 1_555
H9_2 C15_2 1_555 1_555
H10_2 C15_2 1_555 1_555
H11_2 C15_2 1_555 1_555
C17_2 C9_2 1_555 1_555
H12_2 C17_2 1_555 1_555
C18_2 N3_2 1_555 1_555
C19_2 C4_2 1_555 1_555
H13_2 C19_2 1_555 1_555
C20_2 C18_2 1_555 1_555
C21_2 C20_2 1_555 1_555
H14_2 C21_2 1_555 1_555
C22_2 C4_2 1_555 1_555
H15_2 C22_2 1_555 1_555
C23_2 C12_2 1_555 1_555
H16_2 C23_2 1_555 1_555
C24_2 C14_2 1_555 1_555
H17_2 C24_2 1_555 1_555
C25_2 C19_2 1_555 1_555
H18_2 C25_2 1_555 1_555
O10_2 N1_2 1_555 1_555
O11_2 N1_2 1_555 1_555
O14_2 C36_2 1_555 1_555
O15_2 C33_2 1_555 1_555
O16_2 In16 1_555 1_555
N4_2 C35_2 1_555 1_555
N5_2 C38_2 1_555 1_555
C26_2 C28_2 1_555 1_555
C27_2 C30_2 1_555 1_555
C28_2 H20_2 1_555 1_555
C29_2 C36_2 1_555 1_555
C30_2 C28_2 1_555 1_555
H21_2 C30_2 1_555 1_555
C31_2 C27_2 1_555 1_555
H22_2 C31_2 1_555 1_555
C32_2 C26_2 1_555 1_555
H23_2 C32_2 1_555 1_555
C33_2 O16_2 1_555 1_555
O19_2 C36_2 1_555 1_555
C35_2 C37_2 1_555 1_555
C38_2 N4_2 1_555 1_555
C40_2 N4_2 1_555 1_555
H27_2 C40_2 1_555 1_555
H28_2 C40_2 1_555 1_555
H29_2 C40_2 1_555 1_555
C43_2 N5_2 1_555 1_555
C44_2 C29_2 1_555 1_555
H31_2 C44_2 1_555 1_555
C45_2 C43_2 1_555 1_555
C46_2 C45_2 1_555 1_555
H32_2 C46_2 1_555 1_555
C47_2 C29_2 1_555 1_555
H33_2 C47_2 1_555 1_555
C48_2 C37_2 1_555 1_555
H34_2 C48_2 1_555 1_555
H35_2 C49_2 1_555 1_555
C50_2 C44_2 1_555 1_555
H36_2 C50_2 1_555 1_555
In18 O21_2 1_555 1_555
In26 O11_2 1_555 1_555
O20_2 In26 1_555 1_555
O21_2 In26 1_555 1_555
H37_2 O21_2 1_555 1_555
O25_2 C66_2 1_555 1_555
O26_2 In26 1_555 1_555
H42_2 O26_2 1_555 1_555
H43_2 O26_2 1_555 1_555
C59_2 H44_2 1_555 1_555
C64_2 C66_2 1_555 1_555
C66_2 O20_2 1_555 1_555
C67_2 C59_2 1_555 1_555
H48_2 C67_2 1_555 1_555
In7_2 O15_2 1_555 1_555
N8_5 O35_2 1_555 1_555
O29_2 In16 1_555 1_555
H55_2 O29_2 1_555 1_555
O34_2 In7_2 1_555 1_555
H60_2 O34_2 1_555 1_555
H61_2 O34_2 1_555 1_555
O35_2 In7_2 1_555 1_555
O42_2 In24 1_555 1_555
O43_2 In16 1_555 1_555
C101_2 C103_2 1_555 1_555
C103_2 H74_2 1_555 1_555
C106_2 C102_2 1_555 1_555
H76_2 C106_2 1_555 1_555
C107_2 C101_2 1_555 1_555
H77_2 C107_2 1_555 1_555
C108_2 O42_2 1_555 1_555
O62 C136_2 1_555 1_555
O50_2 C133_2 1_555 1_555
O51_2 C133_2 1_555 1_555
N13_2 C135_2 1_555 1_555
N14_2 C138_2 1_555 1_555
C126_2 C128_2 1_555 1_555
O52_2 C141_2 1_555 1_555
C127_2 C130_2 1_555 1_555
C128_2 H92_2 1_555 1_555
C129_2 C136_2 1_555 1_555
C130_2 C128_2 1_555 1_555
H93_2 C130_2 1_555 1_555
C131_2 C127_2 1_555 1_555
H94_2 C131_2 1_555 1_555
C132_2 C126_2 1_555 1_555
H95_2 C132_2 1_555 1_555
C133_2 C126_2 1_555 1_555
O78 C136_2 1_555 1_555
C134_2 H98_2 1_555 1_555
C135_2 C137_2 1_555 1_555
C137_2 C134_2 1_555 1_555
C138_2 N13_2 1_555 1_555
C139_2 C141_2 1_555 1_555
C140_2 N13_2 1_555 1_555
H99_2 C140_2 1_555 1_555
H100_2 C140_2 1_555 1_555
H101_2 C140_2 1_555 1_555
C141_2 O47_2 1_555 1_555
C142_2 C134_2 1_555 1_555
H102_2 C142_2 1_555 1_555
C143_2 N14_2 1_555 1_555
C144_2 C129_2 1_555 1_555
H103_2 C144_2 1_555 1_555
C145_2 C143_2 1_555 1_555
C146_2 C145_2 1_555 1_555
H104_2 C146_2 1_555 1_555
C147_2 C129_2 1_555 1_555
H105_2 C147_2 1_555 1_555
C148_2 C137_2 1_555 1_555
H106_2 C148_2 1_555 1_555
C149_2 C139_2 1_555 1_555
H107_2 C149_2 1_555 1_555
C150_2 C144_2 1_555 1_555
H108_2 C150_2 1_555 1_555
In17 O51_2 1_555 1_555
In20_3 O19_2 1_555 1_555
In21_2 O9_2 1_555 1_555
In25 O10_2 1_555 1_555
O56_2 In18 1_555 1_555
O59_2 In7_2 1_555 1_555
O65_2 In26 1_555 1_555
O69_2 In18 1_555 1_555
O73_2 In18 1_555 1_555
O75_2 In16 1_555 1_555
C2_2 C13_2 1_555 1_555
C6_2 C7_2 1_555 1_555
C10_2 C18_2 1_555 1_555
C14_2 C17_2 1_555 1_555
C20_2 C25_2 1_555 1_555
C21_2 C22_2 1_555 1_555
C23_2 C24_2 1_555 1_555
C26_2 C33_2 1_555 1_555
C27_2 C38_2 1_555 1_555
C31_2 C32_2 1_555 1_555
C35_2 C43_2 1_555 1_555
C45_2 C50_2 1_555 1_555
C46_2 C47_2 1_555 1_555
C48_2 C49_2 1_555 1_555
C64_2 C67_2 1_555 1_555
In7_2 O29_2 1_555 1_555
O43_2 C108_2 1_555 1_555
C101_2 C108_2 1_555 1_555
C106_2 C107_2 1_555 1_555
O50_2 In25 1_555 1_555
C127_2 C138_2 1_555 1_555
C131_2 C132_2 1_555 1_555
C135_2 C143_2 1_555 1_555
C139_2 C142_2 1_555 1_555
C145_2 C150_2 1_555 1_555
C146_2 C147_2 1_555 1_555
C148_2 C149_2 1_555 1_555
O22_2 C61_2 1_555 1_555
N6_2 C60_2 1_555 1_555
N7_2 C63_2 1_555 1_555
C51_2 C53_2 1_555 1_555
C52_2 C55_2 1_555 1_555
C53_2 H38_2 1_555 1_555
C54_2 C61_2 1_555 1_555
C55_2 C53_2 1_555 1_555
H39_2 C55_2 1_555 1_555
C56_2 C52_2 1_555 1_555
H40_2 C56_2 1_555 1_555
C57_2 C51_2 1_555 1_555
H41_2 C57_2 1_555 1_555
O27_2 C61_2 1_555 1_555
C60_2 C62_2 1_555 1_555
C63_2 N6_2 1_555 1_555
C65_2 N6_2 1_555 1_555
H45_2 C65_2 1_555 1_555
H46_2 C65_2 1_555 1_555
H47_2 C65_2 1_555 1_555
C68_2 N7_2 1_555 1_555
C69_2 C54_2 1_555 1_555
H49_2 C69_2 1_555 1_555
C70_2 C68_2 1_555 1_555
C71_2 C70_2 1_555 1_555
H50_2 C71_2 1_555 1_555
C72_2 C54_2 1_555 1_555
H51_2 C72_2 1_555 1_555
C73_2 C62_2 1_555 1_555
H52_2 C73_2 1_555 1_555
H53_2 C74_2 1_555 1_555
C75_2 C69_2 1_555 1_555
H54_2 C75_2 1_555 1_555
O60 C86_2 1_555 1_555
N9_2 C85_2 1_555 1_555
N10_2 C88_2 1_555 1_555
O33_2 C91_2 1_555 1_555
C79_2 C86_2 1_555 1_555
H57_2 C80_2 1_555 1_555
O76 C86_2 1_555 1_555
C84_2 H62_2 1_555 1_555
C85_2 C87_2 1_555 1_555
C87_2 C84_2 1_555 1_555
C88_2 N9_2 1_555 1_555
C89_2 C91_2 1_555 1_555
C90_2 N9_2 1_555 1_555
H63_2 C90_2 1_555 1_555
H64_2 C90_2 1_555 1_555
H65_2 C90_2 1_555 1_555
C91_2 O28_2 1_555 1_555
C92_2 C84_2 1_555 1_555
H66_2 C92_2 1_555 1_555
C93_2 N10_2 1_555 1_555
C94_2 C79_2 1_555 1_555
H67_2 C94_2 1_555 1_555
C95_2 C93_2 1_555 1_555
C96_2 C95_2 1_555 1_555
H68_2 C96_2 1_555 1_555
C97_2 C79_2 1_555 1_555
H69_2 C97_2 1_555 1_555
C98_2 C87_2 1_555 1_555
H70_2 C98_2 1_555 1_555
C99_2 C89_2 1_555 1_555
H71_2 C99_2 1_555 1_555
C100_2 C94_2 1_555 1_555
H72_2 C100_2 1_555 1_555
In8_2 O39_2 1_555 1_555
O39_2 C116_2 1_555 1_555
O40 In8_2 1_555 1_555
H73_2 O40 1_555 1_555
O61 C111_2 1_555 1_555
N11_2 C110_2 1_555 1_555
N12_2 C113_2 1_555 1_555
O44_2 C116_2 1_555 1_555
C104_2 C111_2 1_555 1_555
H75_2 C105_2 1_555 1_555
O45_2 In8_2 1_555 1_555
H78_2 O45_2 1_555 1_555
H79_2 O45_2 1_555 1_555
O77 C111_2 1_555 1_555
C109_2 H80_2 1_555 1_555
C110_2 C112_2 1_555 1_555
C112_2 C109_2 1_555 1_555
C113_2 N11_2 1_555 1_555
C114_2 C116_2 1_555 1_555
C115_2 N11_2 1_555 1_555
H81_2 C115_2 1_555 1_555
H82_2 C115_2 1_555 1_555
H83_2 C115_2 1_555 1_555
C117_2 C109_2 1_555 1_555
H84_2 C117_2 1_555 1_555
C118_2 N12_2 1_555 1_555
C119_2 C104_2 1_555 1_555
H85_2 C119_2 1_555 1_555
C120_2 C118_2 1_555 1_555
C121_2 C120_2 1_555 1_555
H86_2 C121_2 1_555 1_555
C122_2 C104_2 1_555 1_555
H87_2 C122_2 1_555 1_555
C123_2 C112_2 1_555 1_555
H88_2 C123_2 1_555 1_555
C124_2 C114_2 1_555 1_555
H89_2 C124_2 1_555 1_555
C125_2 C119_2 1_555 1_555
H90_2 C125_2 1_555 1_555
In17 O40 1_555 1_555
In19_5 O27_2 1_555 1_555
O58_2 In8_2 1_555 1_555
O64_2 In8_2 1_555 1_555
O72_2 In8_2 1_555 1_555
C52_2 C63_2 1_555 1_555
C56_2 C57_2 1_555 1_555
C60_2 C68_2 1_555 1_555
C70_2 C75_2 1_555 1_555
C71_2 C72_2 1_555 1_555
C73_2 C74_2 1_555 1_555
C85_2 C93_2 1_555 1_555
C89_2 C92_2 1_555 1_555
C95_2 C100_2 1_555 1_555
C96_2 C97_2 1_555 1_555
C98_2 C99_2 1_555 1_555
C110_2 C118_2 1_555 1_555
C114_2 C117_2 1_555 1_555
C120_2 C125_2 1_555 1_555
C121_2 C122_2 1_555 1_555
C123_2 C124_2 1_555 1_555
In17 O13_2 1_555 1_555
In25 O12_2 1_555 1_555
O12_2 C41_2 1_555 1_555
O13_2 In25 1_555 1_555
H19_2 O13_2 1_555 1_555
O17_2 C41_2 1_555 1_555
O18_2 In25 1_555 1_555
H24_2 O18_2 1_555 1_555
H25_2 O18_2 1_555 1_555
C34_2 H26_2 1_555 1_555
C39_2 C41_2 1_555 1_555
C42_2 C34_2 1_555 1_555
H30_2 C42_2 1_555 1_555
O38_2 N8_7 1_555 1_555
In28_2 O38_2 1_555 1_555
O56_2 In28_2 1_555 1_555
H91_2 O56_2 1_555 1_555
O53_2 In28_2 1_555 1_555
H96_2 O53_2 1_555 1_555
H97_2 O53_2 1_555 1_555
O57_2 In28_2 1_555 1_555
O68_2 In17 1_555 1_555
O74_2 In17 1_555 1_555
C39_2 C42_2 1_555 1_555
O64_2 C58_2 1_555 1_555
O68_2 C58_2 1_555 1_555
O65_2 C83_2 1_555 1_555
O69_2 C83_2 1_555 1_555
C76_2 C78_2 1_555 1_555
C78_2 H56_2 1_555 1_555
C81_2 C77_2 1_555 1_555
H58_2 C81_2 1_555 1_555
C82_2 C76_2 1_555 1_555
H59_2 C82_2 1_555 1_555
C83_2 C76_2 1_555 1_555
O72_2 N8_8 1_555 1_555
C81_2 C82_2 1_555 1_555
O4_3 C8_3 1_555 1_555
O5_3 C8_3 1_555 1_555
C1_3 C3_3 1_555 1_555
C3_3 H2_3 1_555 1_555
C6_3 C2_3 1_555 1_555
H4_3 C6_3 1_555 1_555
C7_3 C1_3 1_555 1_555
H5_3 C7_3 1_555 1_555
C8_3 C1_3 1_555 1_555
O10_3 N1_3 1_555 1_555
O50_3 C133_3 1_555 1_555
O51_3 C133_3 1_555 1_555
In12_2 O51_3 1_555 1_555
In15_2 O5_3 1_555 1_555
In22_2 O10_3 1_555 1_555
In28_3 O4_3 1_555 1_555
C6_3 C7_3 1_555 1_555
O50_3 In22_2 1_555 1_555
O1_3 C16_3 1_555 1_555
O3_3 C11_3 1_555 1_555
N2_3 C10_3 1_555 1_555
N3_3 C13_3 1_555 1_555
O6_3 C16_3 1_555 1_555
C4_3 C11_3 1_555 1_555
H3_3 C5_3 1_555 1_555
O9_3 C11_3 1_555 1_555
C9_3 H8_3 1_555 1_555
C10_3 C12_3 1_555 1_555
C12_3 C9_3 1_555 1_555
C13_3 N2_3 1_555 1_555
C14_3 C16_3 1_555 1_555
C15_3 N2_3 1_555 1_555
H9_3 C15_3 1_555 1_555
H10_3 C15_3 1_555 1_555
H11_3 C15_3 1_555 1_555
C17_3 C9_3 1_555 1_555
H12_3 C17_3 1_555 1_555
C18_3 N3_3 1_555 1_555
C19_3 C4_3 1_555 1_555
H13_3 C19_3 1_555 1_555
C20_3 C18_3 1_555 1_555
C21_3 C20_3 1_555 1_555
H14_3 C21_3 1_555 1_555
C22_3 C4_3 1_555 1_555
H15_3 C22_3 1_555 1_555
C23_3 C12_3 1_555 1_555
H16_3 C23_3 1_555 1_555
C24_3 C14_3 1_555 1_555
H17_3 C24_3 1_555 1_555
C25_3 C19_3 1_555 1_555
H18_3 C25_3 1_555 1_555
In12_2 O13_3 1_555 1_555
In22_2 O12_3 1_555 1_555
O12_3 C41_3 1_555 1_555
O13_3 In22_2 1_555 1_555
H19_3 O13_3 1_555 1_555
O14_3 C36_3 1_555 1_555
N4_3 C35_3 1_555 1_555
N5_3 C38_3 1_555 1_555
O17_3 C41_3 1_555 1_555
C29_3 C36_3 1_555 1_555
H21_3 C30_3 1_555 1_555
O18_3 In22_2 1_555 1_555
H24_3 O18_3 1_555 1_555
H25_3 O18_3 1_555 1_555
O19_3 C36_3 1_555 1_555
C34_3 H26_3 1_555 1_555
C35_3 C37_3 1_555 1_555
C37_3 C34_3 1_555 1_555
C38_3 N4_3 1_555 1_555
C39_3 C41_3 1_555 1_555
C40_3 N4_3 1_555 1_555
H27_3 C40_3 1_555 1_555
H28_3 C40_3 1_555 1_555
H29_3 C40_3 1_555 1_555
C42_3 C34_3 1_555 1_555
H30_3 C42_3 1_555 1_555
C43_3 N5_3 1_555 1_555
C44_3 C29_3 1_555 1_555
H31_3 C44_3 1_555 1_555
C45_3 C43_3 1_555 1_555
C46_3 C45_3 1_555 1_555
H32_3 C46_3 1_555 1_555
C47_3 C29_3 1_555 1_555
H33_3 C47_3 1_555 1_555
C48_3 C37_3 1_555 1_555
H34_3 C48_3 1_555 1_555
C49_3 C39_3 1_555 1_555
H35_3 C49_3 1_555 1_555
C50_3 C44_3 1_555 1_555
H36_3 C50_3 1_555 1_555
O49_2 C136_3 1_555 1_555
N13_3 C135_3 1_555 1_555
N14_3 C138_3 1_555 1_555
C126_3 C128_3 1_555 1_555
C127_3 C130_3 1_555 1_555
C128_3 H92_3 1_555 1_555
C129_3 C136_3 1_555 1_555
C130_3 C128_3 1_555 1_555
H93_3 C130_3 1_555 1_555
C131_3 C127_3 1_555 1_555
H94_3 C131_3 1_555 1_555
C132_3 C126_3 1_555 1_555
H95_3 C132_3 1_555 1_555
O54_2 C136_3 1_555 1_555
C135_3 C137_3 1_555 1_555
C138_3 N13_3 1_555 1_555
C140_3 N13_3 1_555 1_555
H99_3 C140_3 1_555 1_555
H100_3 C140_3 1_555 1_555
H101_3 C140_3 1_555 1_555
C143_3 N14_3 1_555 1_555
C144_3 C129_3 1_555 1_555
H103_3 C144_3 1_555 1_555
C145_3 C143_3 1_555 1_555
C146_3 C145_3 1_555 1_555
H104_3 C146_3 1_555 1_555
C147_3 C129_3 1_555 1_555
H105_3 C147_3 1_555 1_555
C148_3 C137_3 1_555 1_555
H106_3 C148_3 1_555 1_555
H107_3 C149_3 1_555 1_555
C150_3 C144_3 1_555 1_555
H108_3 C150_3 1_555 1_555
In19 O54_2 1_555 1_555
In20_7 O19_3 1_555 1_555
In21_4 O9_3 1_555 1_555
In24_2 O49_2 1_555 1_555
In30_3 O14_3 1_555 1_555
In31_3 O3_3 1_555 1_555
O55_2 In12_2 1_555 1_555
O61_2 In22_2 1_555 1_555
O68_3 In12_2 1_555 1_555
O74_3 In12_2 1_555 1_555
O77_2 In12_2 1_555 1_555
C10_3 C18_3 1_555 1_555
C14_3 C17_3 1_555 1_555
C20_3 C25_3 1_555 1_555
C21_3 C22_3 1_555 1_555
C23_3 C24_3 1_555 1_555
C35_3 C43_3 1_555 1_555
C39_3 C42_3 1_555 1_555
C45_3 C50_3 1_555 1_555
C46_3 C47_3 1_555 1_555
C48_3 C49_3 1_555 1_555
C127_3 C138_3 1_555 1_555
C131_3 C132_3 1_555 1_555
C135_3 C143_3 1_555 1_555
C145_3 C150_3 1_555 1_555
C146_3 C147_3 1_555 1_555
C148_3 C149_3 1_555 1_555
O11_3 N1_5 1_555 1_555
In15_2 O21_3 1_555 1_555
In6_2 O11_3 1_555 1_555
O21_3 In6_2 1_555 1_555
H37_3 O21_3 1_555 1_555
O26_3 In6_2 1_555 1_555
H42_3 O26_3 1_555 1_555
H43_3 O26_3 1_555 1_555
In8_3 O39_3 1_555 1_555
O39_3 C116_3 1_555 1_555
O55_2 In8_3 1_555 1_555
H73_3 O55_2 1_555 1_555
O44_3 C116_3 1_555 1_555
O45_3 In8_3 1_555 1_555
H78_3 O45_3 1_555 1_555
H79_3 O45_3 1_555 1_555
C109_3 H80_3 1_555 1_555
C114_3 C116_3 1_555 1_555
C117_3 C109_3 1_555 1_555
H84_3 C117_3 1_555 1_555
O56_3 In15_2 1_555 1_555
O58_3 In8_3 1_555 1_555
O60_2 In6_2 1_555 1_555
O64_3 In8_3 1_555 1_555
O65_3 In6_2 1_555 1_555
O69_3 In15_2 1_555 1_555
O72_3 In8_3 1_555 1_555
O73_3 In15_2 1_555 1_555
O76_2 In15_2 1_555 1_555
C114_3 C117_3 1_555 1_555
In1_2 O2_3 1_555 1_555
N1_6 O8_3 1_555 1_555
O2_3 In2_2 1_555 1_555
H1_3 O2_3 1_555 1_555
O7_3 In2_2 1_555 1_555
H6_3 O7_3 1_555 1_555
H7_3 O7_3 1_555 1_555
O8_3 In2_2 1_555 1_555
O15_3 C33_3 1_555 1_555
O16_3 In1_2 1_555 1_555
C26_3 C28_3 1_555 1_555
C28_3 H20_3 1_555 1_555
C31_3 C27_3 1_555 1_555
H22_3 C31_3 1_555 1_555
C32_3 C26_3 1_555 1_555
H23_3 C32_3 1_555 1_555
C33_3 O16_3 1_555 1_555
O22_3 C61_3 1_555 1_555
O64_3 C58_3 1_555 1_555
O68_3 C58_3 1_555 1_555
N6_3 C60_3 1_555 1_555
N7_3 C63_3 1_555 1_555
C51_3 C53_3 1_555 1_555
O25_3 C66_3 1_555 1_555
C52_3 C55_3 1_555 1_555
C53_3 H38_3 1_555 1_555
C54_3 C61_3 1_555 1_555
C55_3 C53_3 1_555 1_555
H39_3 C55_3 1_555 1_555
C56_3 C52_3 1_555 1_555
H40_3 C56_3 1_555 1_555
C57_3 C51_3 1_555 1_555
H41_3 C57_3 1_555 1_555
C58_3 C51_3 1_555 1_555
O27_3 C61_3 1_555 1_555
C59_3 H44_3 1_555 1_555
C60_3 C62_3 1_555 1_555
C62_3 C59_3 1_555 1_555
C63_3 N6_3 1_555 1_555
C64_3 C66_3 1_555 1_555
C65_3 N6_3 1_555 1_555
H45_3 C65_3 1_555 1_555
H46_3 C65_3 1_555 1_555
H47_3 C65_3 1_555 1_555
C66_3 O20_3 1_555 1_555
C67_3 C59_3 1_555 1_555
H48_3 C67_3 1_555 1_555
C68_3 N7_3 1_555 1_555
C69_3 C54_3 1_555 1_555
H49_3 C69_3 1_555 1_555
C70_3 C68_3 1_555 1_555
C71_3 C70_3 1_555 1_555
H50_3 C71_3 1_555 1_555
C72_3 C54_3 1_555 1_555
H51_3 C72_3 1_555 1_555
C73_3 C62_3 1_555 1_555
H52_3 C73_3 1_555 1_555
C74_3 C64_3 1_555 1_555
H53_3 C74_3 1_555 1_555
C75_3 C69_3 1_555 1_555
H54_3 C75_3 1_555 1_555
In7_3 O15_3 1_555 1_555
O28_3 In7_3 1_555 1_555
N8_9 O35_3 1_555 1_555
O29_3 In1_2 1_555 1_555
H55_3 O29_3 1_555 1_555
O30_2 C86_3 1_555 1_555
N9_3 C85_3 1_555 1_555
N10_3 C88_3 1_555 1_555
C76_3 C78_3 1_555 1_555
O33_3 C91_3 1_555 1_555
C77_3 C80_3 1_555 1_555
C78_3 H56_3 1_555 1_555
C79_3 C86_3 1_555 1_555
C80_3 C78_3 1_555 1_555
H57_3 C80_3 1_555 1_555
C81_3 C77_3 1_555 1_555
H58_3 C81_3 1_555 1_555
C82_3 C76_3 1_555 1_555
H59_3 C82_3 1_555 1_555
O34_3 In7_3 1_555 1_555
H60_3 O34_3 1_555 1_555
H61_3 O34_3 1_555 1_555
O35_3 In7_3 1_555 1_555
O36_2 C86_3 1_555 1_555
C84_3 H62_3 1_555 1_555
C85_3 C87_3 1_555 1_555
C87_3 C84_3 1_555 1_555
C88_3 N9_3 1_555 1_555
C89_3 C91_3 1_555 1_555
C90_3 N9_3 1_555 1_555
H63_3 C90_3 1_555 1_555
H64_3 C90_3 1_555 1_555
H65_3 C90_3 1_555 1_555
C91_3 O28_3 1_555 1_555
C92_3 C84_3 1_555 1_555
H66_3 C92_3 1_555 1_555
C93_3 N10_3 1_555 1_555
C94_3 C79_3 1_555 1_555
H67_3 C94_3 1_555 1_555
C95_3 C93_3 1_555 1_555
C96_3 C95_3 1_555 1_555
H68_3 C96_3 1_555 1_555
C97_3 C79_3 1_555 1_555
H69_3 C97_3 1_555 1_555
C98_3 C87_3 1_555 1_555
H70_3 C98_3 1_555 1_555
C99_3 C89_3 1_555 1_555
H71_3 C99_3 1_555 1_555
C100_3 C94_3 1_555 1_555
H72_3 C100_3 1_555 1_555
O72_3 N8_9 1_555 1_555
O38_3 N8_9 1_555 1_555
O41_2 C111_3 1_555 1_555
O42_3 In2_2 1_555 1_555
O43_3 In1_2 1_555 1_555
N11_3 C110_3 1_555 1_555
N12_3 C113_3 1_555 1_555
C101_3 C103_3 1_555 1_555
C102_3 C105_3 1_555 1_555
C103_3 H74_3 1_555 1_555
C104_3 C111_3 1_555 1_555
C105_3 C103_3 1_555 1_555
H75_3 C105_3 1_555 1_555
C106_3 C102_3 1_555 1_555
H76_3 C106_3 1_555 1_555
C107_3 C101_3 1_555 1_555
H77_3 C107_3 1_555 1_555
C108_3 O42_3 1_555 1_555
O46_2 C111_3 1_555 1_555
C110_3 C112_3 1_555 1_555
C113_3 N11_3 1_555 1_555
C115_3 N11_3 1_555 1_555
H81_3 C115_3 1_555 1_555
H82_3 C115_3 1_555 1_555
H83_3 C115_3 1_555 1_555
C118_3 N12_3 1_555 1_555
C119_3 C104_3 1_555 1_555
H85_3 C119_3 1_555 1_555
C120_3 C118_3 1_555 1_555
C121_3 C120_3 1_555 1_555
H86_3 C121_3 1_555 1_555
C122_3 C104_3 1_555 1_555
H87_3 C122_3 1_555 1_555
C123_3 C112_3 1_555 1_555
H88_3 C123_3 1_555 1_555
H89_3 C124_3 1_555 1_555
C125_3 C119_3 1_555 1_555
H90_3 C125_3 1_555 1_555
In28_3 O38_3 1_555 1_555
O47_3 In28_3 1_555 1_555
O56_3 In28_3 1_555 1_555
H91_3 O56_3 1_555 1_555
O52_3 C141_3 1_555 1_555
O53_3 In28_3 1_555 1_555
H96_3 O53_3 1_555 1_555
H97_3 O53_3 1_555 1_555
C134_3 H98_3 1_555 1_555
C139_3 C141_3 1_555 1_555
C141_3 O47_3 1_555 1_555
C142_3 C134_3 1_555 1_555
H102_3 C142_3 1_555 1_555
In20_2 O46_2 1_555 1_555
In21 O36_2 1_555 1_555
In19_7 O27_3 1_555 1_555
In25_2 O41_2 1_555 1_555
In26_2 O30_2 1_555 1_555
In29_3 O22_3 1_555 1_555
O57_3 In28_3 1_555 1_555
O59_3 In7_3 1_555 1_555
O62_2 In2_2 1_555 1_555
O75_3 In1_2 1_555 1_555
O78_2 In1_2 1_555 1_555
C26_3 C33_3 1_555 1_555
C31_3 C32_3 1_555 1_555
C52_3 C63_3 1_555 1_555
C56_3 C57_3 1_555 1_555
C60_3 C68_3 1_555 1_555
C64_3 C67_3 1_555 1_555
C70_3 C75_3 1_555 1_555
C71_3 C72_3 1_555 1_555
C73_3 C74_3 1_555 1_555
In7_3 O29_3 1_555 1_555
C77_3 C88_3 1_555 1_555
C81_3 C82_3 1_555 1_555
C85_3 C93_3 1_555 1_555
C89_3 C92_3 1_555 1_555
C95_3 C100_3 1_555 1_555
C96_3 C97_3 1_555 1_555
C98_3 C99_3 1_555 1_555
O43_3 C108_3 1_555 1_555
C101_3 C108_3 1_555 1_555
C102_3 C113_3 1_555 1_555
C106_3 C107_3 1_555 1_555
C110_3 C118_3 1_555 1_555
C120_3 C125_3 1_555 1_555
C121_3 C122_3 1_555 1_555
C123_3 C124_3 1_555 1_555
C139_3 C142_3 1_555 1_555
O65_3 C83_3 1_555 1_555
O69_3 C83_3 1_555 1_555
O4_4 C8_4 1_555 1_555
O5_4 C8_4 1_555 1_555
N3_4 C13_4 1_555 1_555
C1_4 C3_4 1_555 1_555
C2_4 C5_4 1_555 1_555
C3_4 H2_4 1_555 1_555
C5_4 C3_4 1_555 1_555
H3_4 C5_4 1_555 1_555
C6_4 C2_4 1_555 1_555
H4_4 C6_4 1_555 1_555
C7_4 C1_4 1_555 1_555
H5_4 C7_4 1_555 1_555
C8_4 C1_4 1_555 1_555
C13_4 N2_4 1_555 1_555
C15_4 N2_4 1_555 1_555
H9_4 C15_4 1_555 1_555
H11_4 C15_4 1_555 1_555
C18_4 N3_4 1_555 1_555
C20_4 C18_4 1_555 1_555
C21_4 C20_4 1_555 1_555
H14_4 C21_4 1_555 1_555
H15_4 C22_4 1_555 1_555
In21 O5_4 1_555 1_555
In31 O4_4 1_555 1_555
C2_4 C13_4 1_555 1_555
C6_4 C7_4 1_555 1_555
C21_4 C22_4 1_555 1_555
In19 O2_4 1_555 1_555
In24_2 O1_4 1_555 1_555
O1_4 C16_4 1_555 1_555
N1_7 O8_4 1_555 1_555
O2_4 In24_2 1_555 1_555
H1_4 O2_4 1_555 1_555
O57 C11_4 1_555 1_555
O6_4 C16_4 1_555 1_555
C4_4 C11_4 1_555 1_555
O7_4 In24_2 1_555 1_555
H6_4 O7_4 1_555 1_555
H7_4 O7_4 1_555 1_555
O8_4 In24_2 1_555 1_555
O73 C11_4 1_555 1_555
C9_4 H8_4 1_555 1_555
C10_4 C12_4 1_555 1_555
C12_4 C9_4 1_555 1_555
C14_4 C16_4 1_555 1_555
C17_4 C9_4 1_555 1_555
H12_4 C17_4 1_555 1_555
C19_4 C4_4 1_555 1_555
H13_4 C19_4 1_555 1_555
C23_4 C12_4 1_555 1_555
H16_4 C23_4 1_555 1_555
C24_4 C14_4 1_555 1_555
H17_4 C24_4 1_555 1_555
C25_4 C19_4 1_555 1_555
H18_4 C25_4 1_555 1_555
O10_4 N1_7 1_555 1_555
O11_4 N1_7 1_555 1_555
In21 O21_4 1_555 1_555
In26_2 O11_4 1_555 1_555
O20_4 In26_2 1_555 1_555
O21_4 In26_2 1_555 1_555
H37_4 O21_4 1_555 1_555
O59 C61_4 1_555 1_555
O25_4 C66_4 1_555 1_555
C54_4 C61_4 1_555 1_555
O26_4 In26_2 1_555 1_555
H42_4 O26_4 1_555 1_555
H43_4 O26_4 1_555 1_555
O75 C61_4 1_555 1_555
C59_4 H44_4 1_555 1_555
C60_4 C62_4 1_555 1_555
C62_4 C59_4 1_555 1_555
C64_4 C66_4 1_555 1_555
C66_4 O20_4 1_555 1_555
C67_4 C59_4 1_555 1_555
H48_4 C67_4 1_555 1_555
C69_4 C54_4 1_555 1_555
H49_4 C69_4 1_555 1_555
C73_4 C62_4 1_555 1_555
H52_4 C73_4 1_555 1_555
C74_4 C64_4 1_555 1_555
H53_4 C74_4 1_555 1_555
C75_4 C69_4 1_555 1_555
H54_4 C75_4 1_555 1_555
In30 O39_4 1_555 1_555
O39_4 C116_4 1_555 1_555
O40_2 In30 1_555 1_555
H73_4 O40_2 1_555 1_555
O61_2 C111_4 1_555 1_555
O42_4 In24_2 1_555 1_555
O43_4 In19 1_555 1_555
N11_4 C110_4 1_555 1_555
N12_4 C113_4 1_555 1_555
C101_4 C103_4 1_555 1_555
O44_4 C116_4 1_555 1_555
C102_4 C105_4 1_555 1_555
C103_4 H74_4 1_555 1_555
C104_4 C111_4 1_555 1_555
C105_4 C103_4 1_555 1_555
H75_4 C105_4 1_555 1_555
C106_4 C102_4 1_555 1_555
H76_4 C106_4 1_555 1_555
C107_4 C101_4 1_555 1_555
H77_4 C107_4 1_555 1_555
O45_4 In30 1_555 1_555
H78_4 O45_4 1_555 1_555
H79_4 O45_4 1_555 1_555
C108_4 O42_4 1_555 1_555
O77_2 C111_4 1_555 1_555
C109_4 H80_4 1_555 1_555
C110_4 C112_4 1_555 1_555
C112_4 C109_4 1_555 1_555
C113_4 N11_4 1_555 1_555
C114_4 C116_4 1_555 1_555
C115_4 N11_4 1_555 1_555
H81_4 C115_4 1_555 1_555
H82_4 C115_4 1_555 1_555
H83_4 C115_4 1_555 1_555
C117_4 C109_4 1_555 1_555
H84_4 C117_4 1_555 1_555
C118_4 N12_4 1_555 1_555
C119_4 C104_4 1_555 1_555
H85_4 C119_4 1_555 1_555
C120_4 C118_4 1_555 1_555
C121_4 C120_4 1_555 1_555
H86_4 C121_4 1_555 1_555
C122_4 C104_4 1_555 1_555
H87_4 C122_4 1_555 1_555
C123_4 C112_4 1_555 1_555
H88_4 C123_4 1_555 1_555
C124_4 C114_4 1_555 1_555
H89_4 C124_4 1_555 1_555
C125_4 C119_4 1_555 1_555
H90_4 C125_4 1_555 1_555
O50_4 C133_4 1_555 1_555
O51_4 C133_4 1_555 1_555
N14_4 C138_4 1_555 1_555
C126_4 C128_4 1_555 1_555
C127_4 C130_4 1_555 1_555
C128_4 H92_4 1_555 1_555
C130_4 C128_4 1_555 1_555
H93_4 C130_4 1_555 1_555
C131_4 C127_4 1_555 1_555
H94_4 C131_4 1_555 1_555
C132_4 C126_4 1_555 1_555
H95_4 C132_4 1_555 1_555
C133_4 C126_4 1_555 1_555
C138_4 N13_4 1_555 1_555
C140_4 N13_4 1_555 1_555
H99_4 C140_4 1_555 1_555
H101_4 C140_4 1_555 1_555
C143_4 N14_4 1_555 1_555
C145_4 C143_4 1_555 1_555
C146_4 C145_4 1_555 1_555
H104_4 C146_4 1_555 1_555
H105_4 C147_4 1_555 1_555
In20 O40_2 1_555 1_555
In20_2 O51_4 1_555 1_555
In25_2 O10_4 1_555 1_555
O56_4 In21 1_555 1_555
O64_4 In30 1_555 1_555
O65_4 In26_2 1_555 1_555
O69_4 In21 1_555 1_555
O72_4 In30 1_555 1_555
C14_4 C17_4 1_555 1_555
C23_4 C24_4 1_555 1_555
C64_4 C67_4 1_555 1_555
C73_4 C74_4 1_555 1_555
O43_4 C108_4 1_555 1_555
C101_4 C108_4 1_555 1_555
C102_4 C113_4 1_555 1_555
C106_4 C107_4 1_555 1_555
C110_4 C118_4 1_555 1_555
C114_4 C117_4 1_555 1_555
C120_4 C125_4 1_555 1_555
C121_4 C122_4 1_555 1_555
C123_4 C124_4 1_555 1_555
O50_4 In25_2 1_555 1_555
C127_4 C138_4 1_555 1_555
C131_4 C132_4 1_555 1_555
C146_4 C147_4 1_555 1_555
O68_4 In20 1_555 1_555
In20_2 O13_4 1_555 1_555
In25_2 O12_4 1_555 1_555
O12_4 C41_4 1_555 1_555
O13_4 In25_2 1_555 1_555
H19_4 O13_4 1_555 1_555
O58 C36_4 1_555 1_555
O15_4 C33_4 1_555 1_555
O16_4 In19_2 1_555 1_555
N4_4 C35_4 1_555 1_555
N5_4 C38_4 1_555 1_555
C26_4 C28_4 1_555 1_555
O17_4 C41_4 1_555 1_555
C27_4 C30_4 1_555 1_555
C28_4 H20_4 1_555 1_555
C29_4 C36_4 1_555 1_555
C30_4 C28_4 1_555 1_555
H21_4 C30_4 1_555 1_555
C31_4 C27_4 1_555 1_555
H22_4 C31_4 1_555 1_555
C32_4 C26_4 1_555 1_555
H23_4 C32_4 1_555 1_555
O18_4 In25_2 1_555 1_555
H24_4 O18_4 1_555 1_555
H25_4 O18_4 1_555 1_555
C33_4 O16_4 1_555 1_555
O74 C36_4 1_555 1_555
C34_4 H26_4 1_555 1_555
C35_4 C37_4 1_555 1_555
C37_4 C34_4 1_555 1_555
C38_4 N4_4 1_555 1_555
C39_4 C41_4 1_555 1_555
C40_4 N4_4 1_555 1_555
H27_4 C40_4 1_555 1_555
H28_4 C40_4 1_555 1_555
H29_4 C40_4 1_555 1_555
C42_4 C34_4 1_555 1_555
H30_4 C42_4 1_555 1_555
C43_4 N5_4 1_555 1_555
C44_4 C29_4 1_555 1_555
H31_4 C44_4 1_555 1_555
C45_4 C43_4 1_555 1_555
C46_4 C45_4 1_555 1_555
H32_4 C46_4 1_555 1_555
C47_4 C29_4 1_555 1_555
H33_4 C47_4 1_555 1_555
C48_4 C37_4 1_555 1_555
H34_4 C48_4 1_555 1_555
C49_4 C39_4 1_555 1_555
H35_4 C49_4 1_555 1_555
C50_4 C44_4 1_555 1_555
H36_4 C50_4 1_555 1_555
O64_4 C58_4 1_555 1_555
O68_4 C58_4 1_555 1_555
N7_4 C63_4 1_555 1_555
C51_4 C53_4 1_555 1_555
C52_4 C55_4 1_555 1_555
C53_4 H38_4 1_555 1_555
C55_4 C53_4 1_555 1_555
H39_4 C55_4 1_555 1_555
C56_4 C52_4 1_555 1_555
H40_4 C56_4 1_555 1_555
C57_4 C51_4 1_555 1_555
H41_4 C57_4 1_555 1_555
C58_4 C51_4 1_555 1_555
C63_4 N6_4 1_555 1_555
C65_4 N6_4 1_555 1_555
H45_4 C65_4 1_555 1_555
H47_4 C65_4 1_555 1_555
C68_4 N7_4 1_555 1_555
C70_4 C68_4 1_555 1_555
C71_4 C70_4 1_555 1_555
H50_4 C71_4 1_555 1_555
H51_4 C72_4 1_555 1_555
In29 O15_4 1_555 1_555
O28_4 In29 1_555 1_555
N8_10 O35_4 1_555 1_555
O29_4 In19_2 1_555 1_555
H55_4 O29_4 1_555 1_555
O60_2 C86_4 1_555 1_555
O33_4 C91_4 1_555 1_555
C79_4 C86_4 1_555 1_555
O34_4 In29 1_555 1_555
H60_4 O34_4 1_555 1_555
H61_4 O34_4 1_555 1_555
O35_4 In29 1_555 1_555
O76_2 C86_4 1_555 1_555
C84_4 H62_4 1_555 1_555
C85_4 C87_4 1_555 1_555
C87_4 C84_4 1_555 1_555
C89_4 C91_4 1_555 1_555
C91_4 O28_4 1_555 1_555
C92_4 C84_4 1_555 1_555
H66_4 C92_4 1_555 1_555
C94_4 C79_4 1_555 1_555
H67_4 C94_4 1_555 1_555
C98_4 C87_4 1_555 1_555
H70_4 C98_4 1_555 1_555
C99_4 C89_4 1_555 1_555
H71_4 C99_4 1_555 1_555
C100_4 C94_4 1_555 1_555
H72_4 C100_4 1_555 1_555
O72_4 N8_10 1_555 1_555
O38_4 N8_10 1_555 1_555
In31 O38_4 1_555 1_555
O47_4 In31 1_555 1_555
O56_4 In31 1_555 1_555
H91_4 O56_4 1_555 1_555
O62_2 C136_4 1_555 1_555
O52_4 C141_4 1_555 1_555
C129_4 C136_4 1_555 1_555
O53_4 In31 1_555 1_555
H96_4 O53_4 1_555 1_555
H97_4 O53_4 1_555 1_555
O78_2 C136_4 1_555 1_555
C134_4 H98_4 1_555 1_555
C135_4 C137_4 1_555 1_555
C137_4 C134_4 1_555 1_555
C139_4 C141_4 1_555 1_555
C141_4 O47_4 1_555 1_555
C142_4 C134_4 1_555 1_555
H102_4 C142_4 1_555 1_555
C144_4 C129_4 1_555 1_555
H103_4 C144_4 1_555 1_555
C148_4 C137_4 1_555 1_555
H106_4 C148_4 1_555 1_555
C149_4 C139_4 1_555 1_555
H107_4 C149_4 1_555 1_555
C150_4 C144_4 1_555 1_555
H108_4 C150_4 1_555 1_555
C26_4 C33_4 1_555 1_555
C27_4 C38_4 1_555 1_555
C31_4 C32_4 1_555 1_555
C35_4 C43_4 1_555 1_555
C39_4 C42_4 1_555 1_555
C45_4 C50_4 1_555 1_555
C46_4 C47_4 1_555 1_555
C48_4 C49_4 1_555 1_555
C52_4 C63_4 1_555 1_555
C56_4 C57_4 1_555 1_555
C71_4 C72_4 1_555 1_555
In29 O29_4 1_555 1_555
C89_4 C92_4 1_555 1_555
C98_4 C99_4 1_555 1_555
C139_4 C142_4 1_555 1_555
C148_4 C149_4 1_555 1_555
O65_4 C83_4 1_555 1_555
O69_4 C83_4 1_555 1_555
N10_4 C88_4 1_555 1_555
C76_4 C78_4 1_555 1_555
C77_4 C80_4 1_555 1_555
C78_4 H56_4 1_555 1_555
C80_4 C78_4 1_555 1_555
H57_4 C80_4 1_555 1_555
C81_4 C77_4 1_555 1_555
H58_4 C81_4 1_555 1_555
C82_4 C76_4 1_555 1_555
H59_4 C82_4 1_555 1_555
C83_4 C76_4 1_555 1_555
C88_4 N9_4 1_555 1_555
C90_4 N9_4 1_555 1_555
H63_4 C90_4 1_555 1_555
H65_4 C90_4 1_555 1_555
C93_4 N10_4 1_555 1_555
C95_4 C93_4 1_555 1_555
C96_4 C95_4 1_555 1_555
H68_4 C96_4 1_555 1_555
H69_4 C97_4 1_555 1_555
C77_4 C88_4 1_555 1_555
C81_4 C82_4 1_555 1_555
C96_4 C97_4 1_555 1_555
O4_5 C8_5 1_555 1_555
O5_5 C8_5 1_555 1_555
N3_5 C13_5 1_555 1_555
C1_5 C3_5 1_555 1_555
C2_5 C5_5 1_555 1_555
C3_5 H2_5 1_555 1_555
C5_5 C3_5 1_555 1_555
H3_5 C5_5 1_555 1_555
C6_5 C2_5 1_555 1_555
H4_5 C6_5 1_555 1_555
C7_5 C1_5 1_555 1_555
H5_5 C7_5 1_555 1_555
C8_5 C1_5 1_555 1_555
C13_5 N2_5 1_555 1_555
C15_5 N2_5 1_555 1_555
H9_5 C15_5 1_555 1_555
H11_5 C15_5 1_555 1_555
C18_5 N3_5 1_555 1_555
C20_5 C18_5 1_555 1_555
C21_5 C20_5 1_555 1_555
H14_5 C21_5 1_555 1_555
H15_5 C22_5 1_555 1_555
In21_2 O5_5 1_555 1_555
C2_5 C13_5 1_555 1_555
C6_5 C7_5 1_555 1_555
C21_5 C22_5 1_555 1_555
In31_2 O4_6 1_555 1_555
O68_5 In20_3 1_555 1_555
O55_3 In20_4 1_555 1_555
In19_3 O2_5 1_555 1_555
In2_3 O1_5 1_555 1_555
O1_5 C16_5 1_555 1_555
O2_5 In2_3 1_555 1_555
H1_5 O2_5 1_555 1_555
O57_2 C11_5 1_555 1_555
O6_5 C16_5 1_555 1_555
C4_5 C11_5 1_555 1_555
O7_5 In2_3 1_555 1_555
H6_5 O7_5 1_555 1_555
H7_5 O7_5 1_555 1_555
O8_5 In2_3 1_555 1_555
O73_2 C11_5 1_555 1_555
C9_5 H8_5 1_555 1_555
C10_5 C12_5 1_555 1_555
C12_5 C9_5 1_555 1_555
C14_5 C16_5 1_555 1_555
C17_5 C9_5 1_555 1_555
H12_5 C17_5 1_555 1_555
C19_5 C4_5 1_555 1_555
H13_5 C19_5 1_555 1_555
C23_5 C12_5 1_555 1_555
H16_5 C23_5 1_555 1_555
C24_5 C14_5 1_555 1_555
H17_5 C24_5 1_555 1_555
C25_5 C19_5 1_555 1_555
H18_5 C25_5 1_555 1_555
In21_2 O21_5 1_555 1_555
In6_3 O11_5 1_555 1_555
O20_5 In6_3 1_555 1_555
O21_5 In6_3 1_555 1_555
H37_5 O21_5 1_555 1_555
O59_2 C61_5 1_555 1_555
O25_5 C66_5 1_555 1_555
C54_5 C61_5 1_555 1_555
O26_5 In6_3 1_555 1_555
H42_5 O26_5 1_555 1_555
H43_5 O26_5 1_555 1_555
O75_2 C61_5 1_555 1_555
C59_5 H44_5 1_555 1_555
C60_5 C62_5 1_555 1_555
C62_5 C59_5 1_555 1_555
C64_5 C66_5 1_555 1_555
C66_5 O20_5 1_555 1_555
C67_5 C59_5 1_555 1_555
H48_5 C67_5 1_555 1_555
C69_5 C54_5 1_555 1_555
H49_5 C69_5 1_555 1_555
C73_5 C62_5 1_555 1_555
H52_5 C73_5 1_555 1_555
C74_5 C64_5 1_555 1_555
H53_5 C74_5 1_555 1_555
C75_5 C69_5 1_555 1_555
H54_5 C75_5 1_555 1_555
O42_5 In2_3 1_555 1_555
In22_3 O10_5 1_555 1_555
O65_5 In6_3 1_555 1_555
C14_5 C17_5 1_555 1_555
C23_5 C24_5 1_555 1_555
C64_5 C67_5 1_555 1_555
C73_5 C74_5 1_555 1_555
O50_5 In22_3 1_555 1_555
In30_2 O39_5 1_555 1_555
O39_5 C116_5 1_555 1_555
O55_3 In30_2 1_555 1_555
H73_5 O55_3 1_555 1_555
O41_3 C111_5 1_555 1_555
O43_5 In19_4 1_555 1_555
N11_5 C110_5 1_555 1_555
N12_5 C113_5 1_555 1_555
C101_5 C103_5 1_555 1_555
O44_5 C116_5 1_555 1_555
C102_5 C105_5 1_555 1_555
C103_5 H74_5 1_555 1_555
C104_5 C111_5 1_555 1_555
C105_5 C103_5 1_555 1_555
H75_5 C105_5 1_555 1_555
C106_5 C102_5 1_555 1_555
H76_5 C106_5 1_555 1_555
C107_5 C101_5 1_555 1_555
H77_5 C107_5 1_555 1_555
O45_5 In30_2 1_555 1_555
H78_5 O45_5 1_555 1_555
H79_5 O45_5 1_555 1_555
C108_5 O42_6 1_555 1_555
O46_3 C111_5 1_555 1_555
C109_5 H80_5 1_555 1_555
C110_5 C112_5 1_555 1_555
C112_5 C109_5 1_555 1_555
C113_5 N11_5 1_555 1_555
C114_5 C116_5 1_555 1_555
C115_5 N11_5 1_555 1_555
H81_5 C115_5 1_555 1_555
H82_5 C115_5 1_555 1_555
H83_5 C115_5 1_555 1_555
C117_5 C109_5 1_555 1_555
H84_5 C117_5 1_555 1_555
C118_5 N12_5 1_555 1_555
C119_5 C104_5 1_555 1_555
H85_5 C119_5 1_555 1_555
C120_5 C118_5 1_555 1_555
C121_5 C120_5 1_555 1_555
H86_5 C121_5 1_555 1_555
C122_5 C104_5 1_555 1_555
H87_5 C122_5 1_555 1_555
C123_5 C112_5 1_555 1_555
H88_5 C123_5 1_555 1_555
C124_5 C114_5 1_555 1_555
H89_5 C124_5 1_555 1_555
C125_5 C119_5 1_555 1_555
H90_5 C125_5 1_555 1_555
O50_6 C133_5 1_555 1_555
O51_5 C133_5 1_555 1_555
N14_5 C138_5 1_555 1_555
C126_5 C128_5 1_555 1_555
C127_5 C130_5 1_555 1_555
C128_5 H92_5 1_555 1_555
C130_5 C128_5 1_555 1_555
H93_5 C130_5 1_555 1_555
C131_5 C127_5 1_555 1_555
H94_5 C131_5 1_555 1_555
C132_5 C126_5 1_555 1_555
H95_5 C132_5 1_555 1_555
C133_5 C126_5 1_555 1_555
C138_5 N13_5 1_555 1_555
C140_5 N13_5 1_555 1_555
H99_5 C140_5 1_555 1_555
H101_5 C140_5 1_555 1_555
C143_5 N14_5 1_555 1_555
C145_5 C143_5 1_555 1_555
C146_5 C145_5 1_555 1_555
H104_5 C146_5 1_555 1_555
H105_5 C147_5 1_555 1_555
In20_6 O51_5 1_555 1_555
In20_7 O46_3 1_555 1_555
In25_3 O41_3 1_555 1_555
O56_5 In21_3 1_555 1_555
O64_6 In30_2 1_555 1_555
O69_5 In21_3 1_555 1_555
O72_5 In30_2 1_555 1_555
O76_3 In21_3 1_555 1_555
O78_3 In19_4 1_555 1_555
O43_5 C108_5 1_555 1_555
C101_5 C108_5 1_555 1_555
C102_5 C113_5 1_555 1_555
C106_5 C107_5 1_555 1_555
C110_5 C118_5 1_555 1_555
C114_5 C117_5 1_555 1_555
C120_5 C125_5 1_555 1_555
C121_5 C122_5 1_555 1_555
C123_5 C124_5 1_555 1_555
C127_5 C138_5 1_555 1_555
C131_5 C132_5 1_555 1_555
C146_5 C147_5 1_555 1_555
In20_5 O13_5 1_555 1_555
In22_3 O12_5 1_555 1_555
O12_5 C41_5 1_555 1_555
O13_5 In22_3 1_555 1_555
H19_5 O13_5 1_555 1_555
O58_2 C36_5 1_555 1_555
O15_5 C33_5 1_555 1_555
O16_5 In19_5 1_555 1_555
N4_5 C35_5 1_555 1_555
N5_5 C38_5 1_555 1_555
C26_5 C28_5 1_555 1_555
O17_5 C41_5 1_555 1_555
C27_5 C30_5 1_555 1_555
C28_5 H20_5 1_555 1_555
C29_5 C36_5 1_555 1_555
C30_5 C28_5 1_555 1_555
H21_5 C30_5 1_555 1_555
C31_5 C27_5 1_555 1_555
H22_5 C31_5 1_555 1_555
C32_5 C26_5 1_555 1_555
H23_5 C32_5 1_555 1_555
O18_5 In22_3 1_555 1_555
H24_5 O18_5 1_555 1_555
H25_5 O18_5 1_555 1_555
C33_5 O16_5 1_555 1_555
O74_2 C36_5 1_555 1_555
C34_5 H26_5 1_555 1_555
C35_5 C37_5 1_555 1_555
C37_5 C34_5 1_555 1_555
C38_5 N4_5 1_555 1_555
C39_5 C41_5 1_555 1_555
C40_5 N4_5 1_555 1_555
H27_5 C40_5 1_555 1_555
H28_5 C40_5 1_555 1_555
H29_5 C40_5 1_555 1_555
C42_5 C34_5 1_555 1_555
H30_5 C42_5 1_555 1_555
C43_5 N5_5 1_555 1_555
C44_5 C29_5 1_555 1_555
H31_5 C44_5 1_555 1_555
C45_5 C43_5 1_555 1_555
C46_5 C45_5 1_555 1_555
H32_5 C46_5 1_555 1_555
C47_5 C29_5 1_555 1_555
H33_5 C47_5 1_555 1_555
C48_5 C37_5 1_555 1_555
H34_5 C48_5 1_555 1_555
C49_5 C39_5 1_555 1_555
H35_5 C49_5 1_555 1_555
C50_5 C44_5 1_555 1_555
H36_5 C50_5 1_555 1_555
O64_5 C58_5 1_555 1_555
O68_5 C58_5 1_555 1_555
N7_5 C63_5 1_555 1_555
C51_5 C53_5 1_555 1_555
C52_5 C55_5 1_555 1_555
C53_5 H38_5 1_555 1_555
C55_5 C53_5 1_555 1_555
H39_5 C55_5 1_555 1_555
C56_5 C52_5 1_555 1_555
H40_5 C56_5 1_555 1_555
C57_5 C51_5 1_555 1_555
H41_5 C57_5 1_555 1_555
C58_5 C51_5 1_555 1_555
C63_5 N6_5 1_555 1_555
C65_5 N6_5 1_555 1_555
H45_5 C65_5 1_555 1_555
H47_5 C65_5 1_555 1_555
C68_5 N7_5 1_555 1_555
C70_5 C68_5 1_555 1_555
C71_5 C70_5 1_555 1_555
H50_5 C71_5 1_555 1_555
H51_5 C72_5 1_555 1_555
C26_5 C33_5 1_555 1_555
C27_5 C38_5 1_555 1_555
C31_5 C32_5 1_555 1_555
C35_5 C43_5 1_555 1_555
C39_5 C42_5 1_555 1_555
C45_5 C50_5 1_555 1_555
C46_5 C47_5 1_555 1_555
C48_5 C49_5 1_555 1_555
C52_5 C63_5 1_555 1_555
C56_5 C57_5 1_555 1_555
C71_5 C72_5 1_555 1_555
In29_2 O15_6 1_555 1_555
O28_5 In29_2 1_555 1_555
O29_5 In19_6 1_555 1_555
H55_5 O29_5 1_555 1_555
O30_3 C86_5 1_555 1_555
O33_5 C91_5 1_555 1_555
C79_5 C86_5 1_555 1_555
O34_5 In29_2 1_555 1_555
H60_5 O34_5 1_555 1_555
H61_5 O34_5 1_555 1_555
O35_5 In29_2 1_555 1_555
O36_3 C86_5 1_555 1_555
C84_5 H62_5 1_555 1_555
C85_5 C87_5 1_555 1_555
C87_5 C84_5 1_555 1_555
C89_5 C91_5 1_555 1_555
C91_5 O28_5 1_555 1_555
C92_5 C84_5 1_555 1_555
H66_5 C92_5 1_555 1_555
C94_5 C79_5 1_555 1_555
H67_5 C94_5 1_555 1_555
C98_5 C87_5 1_555 1_555
H70_5 C98_5 1_555 1_555
C99_5 C89_5 1_555 1_555
H71_5 C99_5 1_555 1_555
C100_5 C94_5 1_555 1_555
H72_5 C100_5 1_555 1_555
In31_2 O38_5 1_555 1_555
O47_5 In31_2 1_555 1_555
O56_5 In31_2 1_555 1_555
H91_5 O56_5 1_555 1_555
O49_3 C136_5 1_555 1_555
O52_5 C141_5 1_555 1_555
C129_5 C136_5 1_555 1_555
O53_5 In31_2 1_555 1_555
H96_5 O53_5 1_555 1_555
H97_5 O53_5 1_555 1_555
O54_3 C136_5 1_555 1_555
C134_5 H98_5 1_555 1_555
C135_5 C137_5 1_555 1_555
C137_5 C134_5 1_555 1_555
C139_5 C141_5 1_555 1_555
C141_5 O47_5 1_555 1_555
C142_5 C134_5 1_555 1_555
H102_5 C142_5 1_555 1_555
C144_5 C129_5 1_555 1_555
H103_5 C144_5 1_555 1_555
C148_5 C137_5 1_555 1_555
H106_5 C148_5 1_555 1_555
C149_5 C139_5 1_555 1_555
H107_5 C149_5 1_555 1_555
C150_5 C144_5 1_555 1_555
H108_5 C150_5 1_555 1_555
In19_7 O54_3 1_555 1_555
In21_4 O36_3 1_555 1_555
In24_3 O49_3 1_555 1_555
In26_3 O30_3 1_555 1_555
O77_3 In20_6 1_555 1_555
In29_2 O29_5 1_555 1_555
C89_5 C92_5 1_555 1_555
C98_5 C99_5 1_555 1_555
C139_5 C142_5 1_555 1_555
C148_5 C149_5 1_555 1_555
O65_6 C83_5 1_555 1_555
O69_5 C83_5 1_555 1_555
N10_5 C88_5 1_555 1_555
C76_5 C78_5 1_555 1_555
C77_5 C80_5 1_555 1_555
C78_5 H56_5 1_555 1_555
C80_5 C78_5 1_555 1_555
H57_5 C80_5 1_555 1_555
C81_5 C77_5 1_555 1_555
H58_5 C81_5 1_555 1_555
C82_5 C76_5 1_555 1_555
H59_5 C82_5 1_555 1_555
C83_5 C76_5 1_555 1_555
C88_5 N9_5 1_555 1_555
C90_5 N9_5 1_555 1_555
H63_5 C90_5 1_555 1_555
H65_5 C90_5 1_555 1_555
C93_5 N10_5 1_555 1_555
C95_5 C93_5 1_555 1_555
C96_5 C95_5 1_555 1_555
H68_5 C96_5 1_555 1_555
H69_5 C97_5 1_555 1_555
C77_5 C88_5 1_555 1_555
C81_5 C82_5 1_555 1_555
C96_5 C97_5 1_555 1_555
O4_7 C8_6 1_555 1_555
O5_6 C8_6 1_555 1_555
C1_6 C3_6 1_555 1_555
C3_6 H2_6 1_555 1_555
C6_6 C2_6 1_555 1_555
H4_6 C6_6 1_555 1_555
C7_6 C1_6 1_555 1_555
H5_6 C7_6 1_555 1_555
C8_6 C1_6 1_555 1_555
O10_6 N1_9 1_555 1_555
O50_7 C133_6 1_555 1_555
O51_6 C133_6 1_555 1_555
In20_7 O51_6 1_555 1_555
In21_4 O5_6 1_555 1_555
In25_3 O10_6 1_555 1_555
In31_3 O4_7 1_555 1_555
C6_6 C7_6 1_555 1_555
O50_7 In25_3 1_555 1_555
O11_6 N1_10 1_555 1_555
In21_4 O21_6 1_555 1_555
In26_3 O11_6 1_555 1_555
O21_6 In26_3 1_555 1_555
H37_6 O21_6 1_555 1_555
O26_6 In26_3 1_555 1_555
H42_6 O26_6 1_555 1_555
H43_6 O26_6 1_555 1_555
In30_3 O39_6 1_555 1_555
O39_6 C116_6 1_555 1_555
O40_3 In30_3 1_555 1_555
H73_6 O40_3 1_555 1_555
O44_6 C116_6 1_555 1_555
O45_6 In30_3 1_555 1_555
H78_6 O45_6 1_555 1_555
H79_6 O45_6 1_555 1_555
C109_6 H80_6 1_555 1_555
C114_6 C116_6 1_555 1_555
C117_6 C109_6 1_555 1_555
H84_6 C117_6 1_555 1_555
In20_7 O40_3 1_555 1_555
O56_6 In21_4 1_555 1_555
O64_7 In30_3 1_555 1_555
O65_7 In26_3 1_555 1_555
O69_6 In21_4 1_555 1_555
O72_6 In30_3 1_555 1_555
C114_6 C117_6 1_555 1_555
O1_6 C16_6 1_555 1_555
O57_3 C11_6 1_555 1_555
N2_6 C10_6 1_555 1_555
N3_6 C13_6 1_555 1_555
O6_6 C16_6 1_555 1_555
C4_6 C11_6 1_555 1_555
H3_6 C5_6 1_555 1_555
O73_3 C11_6 1_555 1_555
C9_6 H8_6 1_555 1_555
C10_6 C12_6 1_555 1_555
C12_6 C9_6 1_555 1_555
C13_6 N2_6 1_555 1_555
C14_6 C16_6 1_555 1_555
C15_6 N2_6 1_555 1_555
H9_6 C15_6 1_555 1_555
H10_6 C15_6 1_555 1_555
H11_6 C15_6 1_555 1_555
C17_6 C9_6 1_555 1_555
H12_6 C17_6 1_555 1_555
C18_6 N3_6 1_555 1_555
C19_6 C4_6 1_555 1_555
H13_6 C19_6 1_555 1_555
C20_6 C18_6 1_555 1_555
C21_6 C20_6 1_555 1_555
H14_6 C21_6 1_555 1_555
C22_6 C4_6 1_555 1_555
H15_6 C22_6 1_555 1_555
C23_6 C12_6 1_555 1_555
H16_6 C23_6 1_555 1_555
C24_6 C14_6 1_555 1_555
H17_6 C24_6 1_555 1_555
C25_6 C19_6 1_555 1_555
H18_6 C25_6 1_555 1_555
In20_7 O13_6 1_555 1_555
In25_3 O12_6 1_555 1_555
O12_6 C41_6 1_555 1_555
O13_6 In25_3 1_555 1_555
H19_6 O13_6 1_555 1_555
O58_3 C36_6 1_555 1_555
N4_6 C35_6 1_555 1_555
N5_6 C38_6 1_555 1_555
O17_6 C41_6 1_555 1_555
C29_6 C36_6 1_555 1_555
H21_6 C30_6 1_555 1_555
O18_6 In25_3 1_555 1_555
H24_6 O18_6 1_555 1_555
H25_6 O18_6 1_555 1_555
O74_3 C36_6 1_555 1_555
C34_6 H26_6 1_555 1_555
C35_6 C37_6 1_555 1_555
C37_6 C34_6 1_555 1_555
C38_6 N4_6 1_555 1_555
C39_6 C41_6 1_555 1_555
C40_6 N4_6 1_555 1_555
H27_6 C40_6 1_555 1_555
H28_6 C40_6 1_555 1_555
H29_6 C40_6 1_555 1_555
C42_6 C34_6 1_555 1_555
H30_6 C42_6 1_555 1_555
C43_6 N5_6 1_555 1_555
C44_6 C29_6 1_555 1_555
H31_6 C44_6 1_555 1_555
C45_6 C43_6 1_555 1_555
C46_6 C45_6 1_555 1_555
H32_6 C46_6 1_555 1_555
C47_6 C29_6 1_555 1_555
H33_6 C47_6 1_555 1_555
C48_6 C37_6 1_555 1_555
H34_6 C48_6 1_555 1_555
C49_6 C39_6 1_555 1_555
H35_6 C49_6 1_555 1_555
C50_6 C44_6 1_555 1_555
H36_6 C50_6 1_555 1_555
O62_3 C136_6 1_555 1_555
N13_6 C135_6 1_555 1_555
N14_6 C138_6 1_555 1_555
C126_6 C128_6 1_555 1_555
C127_6 C130_6 1_555 1_555
C128_6 H92_6 1_555 1_555
C129_6 C136_6 1_555 1_555
C130_6 C128_6 1_555 1_555
H93_6 C130_6 1_555 1_555
C131_6 C127_6 1_555 1_555
H94_6 C131_6 1_555 1_555
C132_6 C126_6 1_555 1_555
H95_6 C132_6 1_555 1_555
O78_3 C136_6 1_555 1_555
C135_6 C137_6 1_555 1_555
C138_6 N13_6 1_555 1_555
C140_6 N13_6 1_555 1_555
H99_6 C140_6 1_555 1_555
H100_6 C140_6 1_555 1_555
H101_6 C140_6 1_555 1_555
C143_6 N14_6 1_555 1_555
C144_6 C129_6 1_555 1_555
H103_6 C144_6 1_555 1_555
C145_6 C143_6 1_555 1_555
C146_6 C145_6 1_555 1_555
H104_6 C146_6 1_555 1_555
C147_6 C129_6 1_555 1_555
H105_6 C147_6 1_555 1_555
C148_6 C137_6 1_555 1_555
H106_6 C148_6 1_555 1_555
H107_6 C149_6 1_555 1_555
C150_6 C144_6 1_555 1_555
H108_6 C150_6 1_555 1_555
O68_6 In20_7 1_555 1_555
C10_6 C18_6 1_555 1_555
C14_6 C17_6 1_555 1_555
C20_6 C25_6 1_555 1_555
C21_6 C22_6 1_555 1_555
C23_6 C24_6 1_555 1_555
C35_6 C43_6 1_555 1_555
C39_6 C42_6 1_555 1_555
C45_6 C50_6 1_555 1_555
C46_6 C47_6 1_555 1_555
C48_6 C49_6 1_555 1_555
C127_6 C138_6 1_555 1_555
C131_6 C132_6 1_555 1_555
C135_6 C143_6 1_555 1_555
C145_6 C150_6 1_555 1_555
C146_6 C147_6 1_555 1_555
C148_6 C149_6 1_555 1_555
In19_7 O2_6 1_555 1_555
N1_12 O8_6 1_555 1_555
O2_6 In24_3 1_555 1_555
H1_6 O2_6 1_555 1_555
O7_6 In24_3 1_555 1_555
H6_6 O7_6 1_555 1_555
H7_6 O7_6 1_555 1_555
O8_6 In24_3 1_555 1_555
O15_7 C33_6 1_555 1_555
O16_6 In19_7 1_555 1_555
C26_6 C28_6 1_555 1_555
C28_6 H20_6 1_555 1_555
C31_6 C27_6 1_555 1_555
H22_6 C31_6 1_555 1_555
C32_6 C26_6 1_555 1_555
H23_6 C32_6 1_555 1_555
C33_6 O16_6 1_555 1_555
O59_3 C61_6 1_555 1_555
O64_7 C58_6 1_555 1_555
O68_6 C58_6 1_555 1_555
N6_6 C60_6 1_555 1_555
N7_6 C63_6 1_555 1_555
C51_6 C53_6 1_555 1_555
O25_6 C66_6 1_555 1_555
C52_6 C55_6 1_555 1_555
C53_6 H38_6 1_555 1_555
C54_6 C61_6 1_555 1_555
C55_6 C53_6 1_555 1_555
H39_6 C55_6 1_555 1_555
C56_6 C52_6 1_555 1_555
H40_6 C56_6 1_555 1_555
C57_6 C51_6 1_555 1_555
H41_6 C57_6 1_555 1_555
C58_6 C51_6 1_555 1_555
O75_3 C61_6 1_555 1_555
C59_6 H44_6 1_555 1_555
C60_6 C62_6 1_555 1_555
C62_6 C59_6 1_555 1_555
C63_6 N6_6 1_555 1_555
C64_6 C66_6 1_555 1_555
C65_6 N6_6 1_555 1_555
H45_6 C65_6 1_555 1_555
H46_6 C65_6 1_555 1_555
H47_6 C65_6 1_555 1_555
C66_6 O20_6 1_555 1_555
C67_6 C59_6 1_555 1_555
H48_6 C67_6 1_555 1_555
C68_6 N7_6 1_555 1_555
C69_6 C54_6 1_555 1_555
H49_6 C69_6 1_555 1_555
C70_6 C68_6 1_555 1_555
C71_6 C70_6 1_555 1_555
H50_6 C71_6 1_555 1_555
C72_6 C54_6 1_555 1_555
H51_6 C72_6 1_555 1_555
C73_6 C62_6 1_555 1_555
H52_6 C73_6 1_555 1_555
C74_6 C64_6 1_555 1_555
H53_6 C74_6 1_555 1_555
C75_6 C69_6 1_555 1_555
H54_6 C75_6 1_555 1_555
In29_3 O15_7 1_555 1_555
O28_6 In29_3 1_555 1_555
N8_12 O35_6 1_555 1_555
O29_6 In19_7 1_555 1_555
H55_6 O29_6 1_555 1_555
O60_3 C86_6 1_555 1_555
N9_6 C85_6 1_555 1_555
N10_6 C88_6 1_555 1_555
C76_6 C78_6 1_555 1_555
O33_6 C91_6 1_555 1_555
C77_6 C80_6 1_555 1_555
C78_6 H56_6 1_555 1_555
C79_6 C86_6 1_555 1_555
C80_6 C78_6 1_555 1_555
H57_6 C80_6 1_555 1_555
C81_6 C77_6 1_555 1_555
H58_6 C81_6 1_555 1_555
C82_6 C76_6 1_555 1_555
H59_6 C82_6 1_555 1_555
O34_6 In29_3 1_555 1_555
H60_6 O34_6 1_555 1_555
H61_6 O34_6 1_555 1_555
O35_6 In29_3 1_555 1_555
O76_3 C86_6 1_555 1_555
C84_6 H62_6 1_555 1_555
C85_6 C87_6 1_555 1_555
C87_6 C84_6 1_555 1_555
C88_6 N9_6 1_555 1_555
C89_6 C91_6 1_555 1_555
C90_6 N9_6 1_555 1_555
H63_6 C90_6 1_555 1_555
H64_6 C90_6 1_555 1_555
H65_6 C90_6 1_555 1_555
C91_6 O28_6 1_555 1_555
C92_6 C84_6 1_555 1_555
H66_6 C92_6 1_555 1_555
C93_6 N10_6 1_555 1_555
C94_6 C79_6 1_555 1_555
H67_6 C94_6 1_555 1_555
C95_6 C93_6 1_555 1_555
C96_6 C95_6 1_555 1_555
H68_6 C96_6 1_555 1_555
C97_6 C79_6 1_555 1_555
H69_6 C97_6 1_555 1_555
C98_6 C87_6 1_555 1_555
H70_6 C98_6 1_555 1_555
C99_6 C89_6 1_555 1_555
H71_6 C99_6 1_555 1_555
C100_6 C94_6 1_555 1_555
H72_6 C100_6 1_555 1_555
O72_6 N8_12 1_555 1_555
O38_6 N8_12 1_555 1_555
O61_3 C111_6 1_555 1_555
O42_7 In24_3 1_555 1_555
O43_6 In19_7 1_555 1_555
N11_6 C110_6 1_555 1_555
N12_6 C113_6 1_555 1_555
C101_6 C103_6 1_555 1_555
C102_6 C105_6 1_555 1_555
C103_6 H74_6 1_555 1_555
C104_6 C111_6 1_555 1_555
C105_6 C103_6 1_555 1_555
H75_6 C105_6 1_555 1_555
C106_6 C102_6 1_555 1_555
H76_6 C106_6 1_555 1_555
C107_6 C101_6 1_555 1_555
H77_6 C107_6 1_555 1_555
C108_6 O42_7 1_555 1_555
O77_3 C111_6 1_555 1_555
C110_6 C112_6 1_555 1_555
C113_6 N11_6 1_555 1_555
C115_6 N11_6 1_555 1_555
H81_6 C115_6 1_555 1_555
H82_6 C115_6 1_555 1_555
H83_6 C115_6 1_555 1_555
C118_6 N12_6 1_555 1_555
C119_6 C104_6 1_555 1_555
H85_6 C119_6 1_555 1_555
C120_6 C118_6 1_555 1_555
C121_6 C120_6 1_555 1_555
H86_6 C121_6 1_555 1_555
C122_6 C104_6 1_555 1_555
H87_6 C122_6 1_555 1_555
C123_6 C112_6 1_555 1_555
H88_6 C123_6 1_555 1_555
H89_6 C124_6 1_555 1_555
C125_6 C119_6 1_555 1_555
H90_6 C125_6 1_555 1_555
In31_3 O38_6 1_555 1_555
O47_6 In31_3 1_555 1_555
O56_6 In31_3 1_555 1_555
H91_6 O56_6 1_555 1_555
O52_6 C141_6 1_555 1_555
O53_6 In31_3 1_555 1_555
H96_6 O53_6 1_555 1_555
H97_6 O53_6 1_555 1_555
C134_6 H98_6 1_555 1_555
C139_6 C141_6 1_555 1_555
C141_6 O47_6 1_555 1_555
C142_6 C134_6 1_555 1_555
H102_6 C142_6 1_555 1_555
C26_6 C33_6 1_555 1_555
C31_6 C32_6 1_555 1_555
C52_6 C63_6 1_555 1_555
C56_6 C57_6 1_555 1_555
C60_6 C68_6 1_555 1_555
C64_6 C67_6 1_555 1_555
C70_6 C75_6 1_555 1_555
C71_6 C72_6 1_555 1_555
C73_6 C74_6 1_555 1_555
In29_3 O29_6 1_555 1_555
C77_6 C88_6 1_555 1_555
C81_6 C82_6 1_555 1_555
C85_6 C93_6 1_555 1_555
C89_6 C92_6 1_555 1_555
C95_6 C100_6 1_555 1_555
C96_6 C97_6 1_555 1_555
C98_6 C99_6 1_555 1_555
O43_6 C108_6 1_555 1_555
C101_6 C108_6 1_555 1_555
C102_6 C113_6 1_555 1_555
C106_6 C107_6 1_555 1_555
C110_6 C118_6 1_555 1_555
C120_6 C125_6 1_555 1_555
C121_6 C122_6 1_555 1_555
C123_6 C124_6 1_555 1_555
C139_6 C142_6 1_555 1_555
O65_7 C83_6 1_555 1_555
O69_6 C83_6 1_555 1_555

#END
