
###############################################################################
#
# This file contains modified crystal structure data generated from the
# MOF subset of the Cambridge Structural Database (CSD) v543 
# hosted by the Cambridge Crystallographic Data Centre (CCDC).
#
# This work is licensed under the Creative Commons
# Attribution-NonCommercial-ShareAlike 4.0 International License.
# To view a copy of this license, visit
# http://creativecommons.org/licenses/by-nc-sa/4.0/
# or send a letter to
# Creative Commons, PO Box 1866, Mountain View, CA 94042, USA.
#
# CIF created using the CSD Python API on 29 September 2022
# The structure has been converted into the P1 space group
# The structure has a 3D framework
# The original CSD entry OWAVIS is in the orthorhombic crystal system
# The framework has been calculated to contain at least 10.0% void space
# The void calculation uses a probe of radius 1.32A, grid spacing 0.4
# H atom positions have been added when not included in the experimental data
#
###############################################################################

data_OWAVIS
_chemical_formula_moiety         '(C176 H136 N24 O116 Zn28)n'
_symmetry_cell_setting           triclinic
_symmetry_space_group_name_H-M   'P 1'
_symmetry_Int_Tables_number      1
_space_group_name_Hall           'P 1'
loop_
_symmetry_equiv_pos_site_id
_symmetry_equiv_pos_as_xyz
1 x,y,z
_cell_length_a                   25.117(11)
_cell_length_b                   26.607(12)
_cell_length_c                   17.479(8)
_cell_angle_alpha                90
_cell_angle_beta                 90
_cell_angle_gamma                90
_cell_volume                     11681
loop_
_atom_site_label
_atom_site_type_symbol
_atom_site_fract_x
_atom_site_fract_y
_atom_site_fract_z
Zn1 Zn 0.07901(6) 0.17102(6) 0.26089(9)
Zn5 Zn 0.04563(5) 0.09438(5) 0.09869(7)
O22 O 0.0068(5) 0.1346(6) 0.2547(7)
O25 O 0.0774(9) 0.1659(9) 0.3797(9)
O26 O 0.1532(7) 0.2073(7) 0.2714(14)
O27 O 0.0428(8) 0.2385(7) 0.2882(12)
O28 O 0.0261(6) 0.0484(5) 0.0124(7)
O31 O 0.0966(4) 0.0533(4) 0.1542(5)
O32 O 0.1179(5) 0.1058(4) 0.2492(7)
O33 O 0.0767(5) 0.1511(4) 0.0440(7)
O34 O 0.0733(6) 0.1930(5) 0.1488(6)
H25 H 0.0223427 0.234622 0.336454
H26 H 0.0704008 0.264847 0.294974
H29 H 0.0759934 0.129993 0.395056
H30 H 0.109978 0.181655 0.401166
H31 H 0.181251 0.181979 0.282219
H32 H 0.161673 0.225066 0.222945
Zn4 Zn 0.72138(6) 0.03833(5) 0.06586(8)
Zn6 Zn 0.65112(6) 0.07463(6) 0.22080(8)
C22 C 0.6417(5) 0.1815(5) 0.0430(7)
C23 C 0.6500(6) 0.1333(5) 0.0861(9)
C24 C 0.6150(5) 0.2217(5) 0.0792(7)
H8 H 0.6020 0.2179 0.1286
C25 C 0.6083(5) 0.2668(5) 0.0412(8)
C26 C 0.5844(6) 0.3101(7) 0.0804(9)
C28 C 0.7743(5) 0.0767(5) 0.1942(7)
C29 C 0.8220(5) 0.0950(5) 0.2381(6)
C30 C 0.8734(5) 0.0970(5) 0.2071(7)
H10 H 0.8788 0.0866 0.1569
C31 C 0.9164(5) 0.1142(5) 0.2492(6)
C32 C 0.9710(5) 0.1170(5) 0.2154(8)
C33 C 0.9088(5) 0.1272(5) 0.3242(7)
H11 H 0.9377 0.1375 0.3534
C34 C 0.8584(5) 0.1251(5) 0.3574(6)
C35 C 0.8497(6) 0.1379(5) 0.4420(7)
C36 C 0.8157(5) 0.1103(5) 0.3137(7)
H12 H 0.7819 0.1104 0.3351
N4 N 0.6442(4) 0.0044(4) 0.1824(6)
O15 O 0.6748(5) 0.0984(4) 0.0530(6)
O16 O 0.6324(5) 0.1290(4) 0.1518(5)
O17 O 0.5767(5) 0.3489(4) 0.0440(7)
O18 O 0.5733(6) 0.3070(5) 0.1488(6)
O19 O 0.7822(3) 0.0620(4) 0.1269(5)
O20 O 0.7305(3) 0.0820(5) 0.2264(6)
O21 O 0.9765(3) 0.1007(4) 0.1479(5)
O23 O 0.8895(4) 0.1405(5) 0.4846(5)
O24 O 0.8034(4) 0.1493(4) 0.4607(5)
Zn8 Zn 0.57901(6) 0.32898(6) 0.26089(9)
Zn10 Zn 0.78971(5) 0.16281(5) 0.56515(8)
Zn11 Zn 0.54563(5) 0.40562(5) 0.09869(7)
O30 O 0.6373(4) 0.0898(4) 0.3254(5)
Zn2 Zn 0.72035(5) 0.19958(5) 0.71967(8)
Zn7 Zn 0.39644(6) 0.14663(6) 0.68180(8)
C1 C 0.6656(5) 0.1662(6) 0.5844(7)
C2 C 0.6194(5) 0.1518(5) 0.5428(6)
C3 C 0.5677(5) 0.1519(5) 0.5723(7)
H1 H 0.5628 0.1639 0.6218
C4 C 0.5238(5) 0.1356(5) 0.5332(7)
C5 C 0.4705(5) 0.1361(5) 0.5676(8)
C6 C 0.5317(5) 0.1184(5) 0.4598(6)
H2 H 0.5024 0.1080 0.4314
C7 C 0.5823(5) 0.1161(5) 0.4264(6)
C8 C 0.5887(6) 0.0972(5) 0.3437(8)
C9 C 0.6254(5) 0.1314(5) 0.4661(7)
H3 H 0.6591 0.1288 0.4443
C10 C 0.7861(5) 0.1020(5) 0.6984(7)
C11 C 0.8010(5) 0.0555(5) 0.7425(6)
C12 C 0.7820(5) 0.0506(6) 0.8170(7)
H4 H 0.7606 0.0754 0.8386
C13 C 0.7956(5) 0.0077(5) 0.8587(7)
C14 C 0.7770(5) 0.0038(5) 0.9416(7)
C18 C 0.8319(5) 0.0197(5) 0.7110(7)
H6 H 0.8453 0.0242 0.6619
C19 C 0.6690(6) 0.2343(5) 0.8489(8)
C20 C 0.6498(5) 0.2315(5) 0.9301(7)
C21 C 0.6582(5) 0.1869(5) 0.9692(7)
H7 H 0.6753 0.1603 0.9447
C27 C 0.6253(5) 0.2698(5) 0.9652(7)
H9 H 0.6194 0.2993 0.9381
C37 C 0.7782(6) 0.3188(6) 0.7651(10)
H13 H 0.7434 0.3306 0.7511
H14 H 0.8014 0.3470 0.7726
H15 H 0.7759 0.2997 0.8116
C38 C 0.8000(5) 0.2858(5) 0.7017(7)
C39 C 0.8479(5) 0.2604(5) 0.6071(8)
C40 C 0.8895(8) 0.2569(7) 0.5511(10)
H16 H 0.8863 0.2256 0.5240
H17 H 0.9235 0.2583 0.5762
H18 H 0.8866 0.2843 0.5157
N1 N 0.7788(4) 0.2437(4) 0.6791(6)
N2 N 0.8096(4) 0.2268(4) 0.6177(5)
N3 N 0.8432(4) 0.2979(4) 0.6594(6)
O1 O 0.6600(4) 0.1844(4) 0.6528(5)
O2 O 0.7107(3) 0.1655(5) 0.5525(6)
O3 O 0.4671(3) 0.1499(4) 0.6373(5)
O4 O 0.4306(4) 0.1244(5) 0.5311(6)
O6 O 0.5512(5) 0.0905(5) 0.3024(6)
O7 O 0.7597(4) 0.1336(3) 0.7316(5)
O8 O 0.8040(4) 0.1041(4) 0.6299(5)
O9 O 0.7412(4) 0.0334(4) 0.9608(5)
O13 O 0.6994(4) 0.2023(4) 0.8250(5)
O14 O 0.6551(5) 0.2704(5) 0.8093(7)
O29 O 0.4145(5) 0.1593(4) 0.7904(6)
Zn14 Zn 0.89644(6) 0.35337(6) 0.68180(8)
N7 N 0.3432(4) 0.2021(4) 0.6594(6)
N8 N 0.3644(4) 0.0774(4) 0.6720(6)
H27 H 0.998512 0.0646462 0.980085
H33 H 0.431895 0.192668 0.795165
H34 H 0.38148 0.158801 0.821632
C41 C 0.5801(7) 0.9657(6) 0.2726(10)
H19 H 0.5984 0.9725 0.3197
H20 H 0.5621 0.9340 0.2764
H21 H 0.5547 0.9918 0.2630
C42 C 0.6194(5) 0.9638(5) 0.2086(7)
C43 C 0.6703(5) 0.9391(5) 0.1186(6)
C44 C 0.6962(6) 0.9066(5) 0.0613(10)
H22 H 0.7094 0.9268 0.0200
H23 H 0.6707 0.8828 0.0419
H24 H 0.7252 0.8889 0.0847
N5 N 0.6768(4) 0.9879(4) 0.1231(5)
N6 N 0.6356(4) 0.9226(4) 0.1720(6)
Zn15 Zn 0.60356(6) 0.85337(6) 0.18180(8)
C15 C 0.8270(6) 0.9700(5) 0.8266(8)
H5 H 0.8361 0.9418 0.8550
C16 C 0.8444(5) 0.9752(5) 0.7519(7)
C17 C 0.8808(5) 0.9350(5) 0.7176(10)
O10 O 0.7966(5) 0.9711(5) 0.9806(6)
O11 O 0.9034(4) 0.9467(4) 0.6542(5)
O12 O 0.8821(5) 0.8942(4) 0.7492(7)
Zn9 Zn 0.92099(6) 0.82898(6) 0.76089(9)
Zn12 Zn 0.95437(5) 0.90562(5) 0.59869(7)
C15_2 C 0.1730(6) 0.0300(5) 0.3266(8)
H5_2 H 0.1639 0.0582 0.3550
C16_2 C 0.1556(5) 0.0248(5) 0.2519(7)
C17_2 C 0.1192(5) 0.0650(5) 0.2176(10)
C41_2 C 0.4199(7) 0.0343(6) 0.7726(10)
H19_2 H 0.4016 0.0275 0.8197
H20_2 H 0.4379 0.0660 0.7764
H21_2 H 0.4453 0.0082 0.7630
C42_2 C 0.3806(5) 0.0362(5) 0.7086(7)
C43_2 C 0.3297(5) 0.0609(5) 0.6186(6)
C44_2 C 0.3038(6) 0.0934(5) 0.5613(10)
H22_2 H 0.2906 0.0732 0.5200
H23_2 H 0.3293 0.1172 0.5419
H24_2 H 0.2748 0.1111 0.5847
N5_2 N 0.3232(4) 0.0121(4) 0.6231(5)
O10_2 O 0.2034(5) 0.0289(5) 0.4806(6)
Zn10_2 Zn 0.21029(5) 0.83719(5) 0.06515(8)
Zn2_2 Zn 0.27965(5) 0.80042(5) 0.21967(8)
Zn4_2 Zn 0.27862(6) 0.96167(5) 0.56586(8)
Zn6_2 Zn 0.34888(6) 0.92537(6) 0.72080(8)
C1_2 C 0.3344(5) 0.8338(6) 0.0844(7)
C2_2 C 0.3806(5) 0.8482(5) 0.0428(6)
C3_2 C 0.4323(5) 0.8481(5) 0.0723(7)
H1_2 H 0.4372 0.8361 0.1218
C4_2 C 0.4762(5) 0.8644(5) 0.0332(7)
C5_2 C 0.5295(5) 0.8639(5) 0.0676(8)
C10_2 C 0.2139(5) 0.8980(5) 0.1984(7)
C11_2 C 0.1990(5) 0.9445(5) 0.2425(6)
C12_2 C 0.2180(5) 0.9494(6) 0.3170(7)
H4_2 H 0.2394 0.9246 0.3386
C13_2 C 0.2044(5) 0.9923(5) 0.3587(7)
C14_2 C 0.2230(5) 0.9962(5) 0.4416(7)
C18_2 C 0.1681(5) 0.9803(5) 0.2110(7)
H6_2 H 0.1547 0.9758 0.1619
C19_2 C 0.3310(6) 0.7657(5) 0.3489(8)
C20_2 C 0.3502(5) 0.7685(5) 0.4301(7)
C21_2 C 0.3418(5) 0.8131(5) 0.4692(7)
H7_2 H 0.3247 0.8397 0.4447
C22_2 C 0.3583(5) 0.8185(5) 0.5430(7)
C23_2 C 0.3500(6) 0.8667(5) 0.5861(9)
C24_2 C 0.3850(5) 0.7783(5) 0.5792(7)
H8_2 H 0.3980 0.7821 0.6286
C25_2 C 0.3917(5) 0.7332(5) 0.5412(8)
C26_2 C 0.4156(6) 0.6899(7) 0.5804(9)
C27_2 C 0.3747(5) 0.7302(5) 0.4652(7)
H9_2 H 0.3806 0.7007 0.4381
C28_2 C 0.2257(5) 0.9233(5) 0.6942(7)
C29_2 C 0.1780(5) 0.9050(5) 0.7381(6)
C30_2 C 0.1266(5) 0.9030(5) 0.7071(7)
H10_2 H 0.1212 0.9134 0.6569
C31_2 C 0.0836(5) 0.8858(5) 0.7492(6)
C32_2 C 0.0290(5) 0.8830(5) 0.7154(8)
C33_2 C 0.0912(5) 0.8728(5) 0.8242(7)
H11_2 H 0.0623 0.8625 0.8534
C34_2 C 0.1416(5) 0.8749(5) 0.8574(6)
C35_2 C 0.1503(6) 0.8621(5) 0.9420(7)
C36_2 C 0.1843(5) 0.8897(5) 0.8137(7)
H12_2 H 0.2181 0.8896 0.8351
C37_2 C 0.2218(6) 0.6812(6) 0.2651(10)
H13_2 H 0.2566 0.6694 0.2511
H14_2 H 0.1986 0.6530 0.2726
H15_2 H 0.2241 0.7003 0.3116
C38_2 C 0.2000(5) 0.7142(5) 0.2017(7)
C39_2 C 0.1521(5) 0.7396(5) 0.1071(8)
C40_2 C 0.1105(8) 0.7431(7) 0.0511(10)
H16_2 H 0.1137 0.7744 0.0240
H17_2 H 0.0765 0.7417 0.0762
H18_2 H 0.1134 0.7157 0.0157
N1_2 N 0.2212(4) 0.7563(4) 0.1791(6)
N2_2 N 0.1904(4) 0.7732(4) 0.1177(5)
N3_2 N 0.1568(4) 0.7021(4) 0.1594(6)
N4_2 N 0.3558(4) 0.9956(4) 0.6824(6)
O1_2 O 0.3400(4) 0.8156(4) 0.1528(5)
O2_2 O 0.2893(3) 0.8345(5) 0.0525(6)
O3_2 O 0.5329(3) 0.8501(4) 0.1373(5)
O4_2 O 0.5694(4) 0.8756(5) 0.0311(6)
O7_2 O 0.2403(4) 0.8664(3) 0.2316(5)
O8_2 O 0.1960(4) 0.8959(4) 0.1299(5)
O9_2 O 0.2588(4) 0.9666(4) 0.4608(5)
O13_2 O 0.3006(4) 0.7977(4) 0.3250(5)
O14_2 O 0.3449(5) 0.7296(5) 0.3093(7)
O15_2 O 0.3252(5) 0.9016(4) 0.5530(6)
O16_2 O 0.3676(5) 0.8710(4) 0.6518(5)
O17_2 O 0.4233(5) 0.6511(4) 0.5440(7)
O18_2 O 0.4267(6) 0.6930(5) 0.6488(6)
O19_2 O 0.2178(3) 0.9380(4) 0.6269(5)
O20_2 O 0.2695(3) 0.9180(5) 0.7264(6)
O21_2 O 0.0235(3) 0.8993(4) 0.6479(5)
O23_2 O 0.1105(4) 0.8595(5) 0.9846(5)
O24_2 O 0.1966(4) 0.8507(4) 0.9607(5)
O29_2 O 0.5855(5) 0.8407(4) 0.2904(6)
Zn8_2 Zn 0.42099(6) 0.67102(6) 0.76089(9)
Zn11_2 Zn 0.45437(5) 0.59438(5) 0.59869(7)
Zn14_2 Zn 0.10356(6) 0.64663(6) 0.18180(8)
N7_2 N 0.6568(4) 0.7979(4) 0.1594(6)
O30_2 O 0.3627(4) 0.9102(4) 0.8254(5)
H27_2 H 0.0014883 0.935354 0.480085
H33_2 H 0.568105 0.807332 0.295165
H34_2 H 0.61852 0.841199 0.321632
C6_2 C 0.4683(5) 0.8816(5) 0.9598(6)
H2_2 H 0.4976 0.8920 0.9314
C7_2 C 0.4177(5) 0.8839(5) 0.9264(6)
C8_2 C 0.4113(6) 0.9028(5) 0.8437(8)
C9_2 C 0.3746(5) 0.8686(5) 0.9661(7)
H3_2 H 0.3409 0.8712 0.9443
O6_2 O 0.4488(5) 0.9095(5) 0.8024(6)
O22_2 O 0.9932(5) 0.8654(6) 0.7547(7)
O25_2 O 0.9226(9) 0.8341(9) 0.8797(9)
O26_2 O 0.8468(7) 0.7927(7) 0.7714(14)
O27_2 O 0.9572(8) 0.7615(7) 0.7882(12)
O28_2 O 0.9739(6) 0.9516(5) 0.5124(7)
O33_2 O 0.9233(5) 0.8489(4) 0.5440(7)
O34_2 O 0.9267(6) 0.8070(5) 0.6488(6)
H25_2 H 0.977657 0.765378 0.836454
H26_2 H 0.929599 0.735153 0.794974
H28 H 0.941829 0.95864 0.480954
H29_2 H 0.924007 0.870007 0.895056
H30_2 H 0.890022 0.818345 0.901166
H31_2 H 0.818749 0.818021 0.782219
H32_2 H 0.838327 0.774934 0.722945
Zn4_3 Zn 0.22138(6) 0.46167(5) 0.06586(8)
Zn6_3 Zn 0.15112(6) 0.42537(6) 0.22080(8)
C22_3 C 0.1417(5) 0.3185(5) 0.0430(7)
C23_3 C 0.1500(6) 0.3667(5) 0.0861(9)
C24_3 C 0.1150(5) 0.2783(5) 0.0792(7)
H8_3 H 0.1020 0.2821 0.1286
C25_3 C 0.1083(5) 0.2332(5) 0.0412(8)
C26_3 C 0.0844(6) 0.1899(7) 0.0804(9)
C28_3 C 0.2743(5) 0.4233(5) 0.1942(7)
C29_3 C 0.3220(5) 0.4050(5) 0.2381(6)
C30_3 C 0.3734(5) 0.4030(5) 0.2071(7)
H10_3 H 0.3788 0.4134 0.1569
C31_3 C 0.4164(5) 0.3858(5) 0.2492(6)
C32_3 C 0.4710(5) 0.3830(5) 0.2154(8)
C33_3 C 0.4088(5) 0.3728(5) 0.3242(7)
H11_3 H 0.4377 0.3625 0.3534
C34_3 C 0.3584(5) 0.3749(5) 0.3574(6)
C35_3 C 0.3497(6) 0.3621(5) 0.4420(7)
C36_3 C 0.3157(5) 0.3897(5) 0.3137(7)
H12_3 H 0.2819 0.3896 0.3351
C41_3 C 0.0801(7) 0.5343(6) 0.2726(10)
H19_3 H 0.0984 0.5275 0.3197
H20_3 H 0.0621 0.5660 0.2764
H21_3 H 0.0547 0.5082 0.2630
C42_3 C 0.1194(5) 0.5362(5) 0.2086(7)
C43_3 C 0.1703(5) 0.5609(5) 0.1186(6)
C44_3 C 0.1962(6) 0.5934(5) 0.0613(10)
H22_3 H 0.2094 0.5732 0.0200
H23_3 H 0.1707 0.6172 0.0419
H24_3 H 0.2252 0.6111 0.0847
N4_3 N 0.1442(4) 0.4956(4) 0.1824(6)
N5_3 N 0.1768(4) 0.5121(4) 0.1231(5)
N6_2 N 0.1356(4) 0.5774(4) 0.1720(6)
O15_3 O 0.1748(5) 0.4016(4) 0.0530(6)
O16_3 O 0.1324(5) 0.3710(4) 0.1518(5)
O19_3 O 0.2822(3) 0.4380(4) 0.1269(5)
O20_3 O 0.2305(3) 0.4180(5) 0.2264(6)
O21_3 O 0.4765(3) 0.3993(4) 0.1479(5)
O22_3 O 0.5068(5) 0.3654(6) 0.2547(7)
O23_3 O 0.3895(4) 0.3595(5) 0.4846(5)
O24_3 O 0.3034(4) 0.3507(4) 0.4607(5)
O25_3 O 0.5774(9) 0.3341(9) 0.3797(9)
O26_3 O 0.6532(7) 0.2927(7) 0.2714(14)
O27_3 O 0.5428(8) 0.2615(7) 0.2882(12)
O28_3 O 0.5261(6) 0.4516(5) 0.0124(7)
Zn10_3 Zn 0.28971(5) 0.33719(5) 0.56515(8)
O30_3 O 0.1373(4) 0.4102(4) 0.3254(5)
O31_2 O 0.5966(4) 0.4467(4) 0.1542(5)
O32_2 O 0.6179(5) 0.3942(4) 0.2492(7)
H25_3 H 0.522343 0.265378 0.336454
H26_3 H 0.570401 0.235153 0.294974
H29_3 H 0.575993 0.370007 0.395056
H30_3 H 0.609978 0.318345 0.401166
H31_3 H 0.681251 0.318021 0.282219
H32_3 H 0.661673 0.274934 0.222945
Zn2_3 Zn 0.22035(5) 0.30042(5) 0.71967(8)
C1_3 C 0.1656(5) 0.3338(6) 0.5844(7)
C2_3 C 0.1194(5) 0.3482(5) 0.5428(6)
C3_3 C 0.0677(5) 0.3481(5) 0.5723(7)
H1_3 H 0.0628 0.3361 0.6218
C4_3 C 0.0238(5) 0.3644(5) 0.5332(7)
C6_3 C 0.0317(5) 0.3816(5) 0.4598(6)
H2_3 H 0.0024 0.3920 0.4314
C7_3 C 0.0823(5) 0.3839(5) 0.4264(6)
C8_3 C 0.0887(6) 0.4028(5) 0.3437(8)
C9_3 C 0.1254(5) 0.3686(5) 0.4661(7)
H3_3 H 0.1591 0.3712 0.4443
C10_3 C 0.2861(5) 0.3980(5) 0.6984(7)
C11_3 C 0.3010(5) 0.4445(5) 0.7425(6)
C12_3 C 0.2820(5) 0.4494(6) 0.8170(7)
H4_3 H 0.2606 0.4246 0.8386
C13_3 C 0.2956(5) 0.4923(5) 0.8587(7)
C14_3 C 0.2770(5) 0.4962(5) 0.9416(7)
C15_3 C 0.3270(6) 0.5300(5) 0.8266(8)
H5_3 H 0.3361 0.5582 0.8550
C16_3 C 0.3444(5) 0.5248(5) 0.7519(7)
C17_3 C 0.3808(5) 0.5650(5) 0.7176(10)
C18_3 C 0.3319(5) 0.4803(5) 0.7110(7)
H6_3 H 0.3453 0.4758 0.6619
C19_3 C 0.1690(6) 0.2657(5) 0.8489(8)
C20_3 C 0.1498(5) 0.2685(5) 0.9301(7)
C21_3 C 0.1582(5) 0.3131(5) 0.9692(7)
H7_3 H 0.1753 0.3397 0.9447
C27_3 C 0.1253(5) 0.2302(5) 0.9652(7)
H9_3 H 0.1194 0.2007 0.9381
C37_3 C 0.2782(6) 0.1812(6) 0.7651(10)
H13_3 H 0.2434 0.1694 0.7511
H14_3 H 0.3014 0.1530 0.7726
H15_3 H 0.2759 0.2003 0.8116
C38_3 C 0.3000(5) 0.2142(5) 0.7017(7)
C39_3 C 0.3479(5) 0.2396(5) 0.6071(8)
C40_3 C 0.3895(8) 0.2431(7) 0.5511(10)
H16_3 H 0.3863 0.2744 0.5240
H17_3 H 0.4235 0.2417 0.5762
H18_3 H 0.3866 0.2157 0.5157
N1_3 N 0.2788(4) 0.2563(4) 0.6791(6)
N2_3 N 0.3096(4) 0.2732(4) 0.6177(5)
O1_3 O 0.1600(4) 0.3156(4) 0.6528(5)
O2_3 O 0.2107(3) 0.3345(5) 0.5525(6)
O6_3 O 0.0512(5) 0.4095(5) 0.3024(6)
O7_3 O 0.2597(4) 0.3664(3) 0.7316(5)
O8_3 O 0.3040(4) 0.3959(4) 0.6299(5)
O9_3 O 0.2412(4) 0.4666(4) 0.9608(5)
O10_3 O 0.2966(5) 0.5289(5) 0.9806(6)
O11_2 O 0.4034(4) 0.5533(4) 0.6542(5)
O12_2 O 0.3821(5) 0.6058(4) 0.7492(7)
O13_3 O 0.1994(4) 0.2977(4) 0.8250(5)
O14_3 O 0.1551(5) 0.2296(5) 0.8093(7)
H27_3 H 0.498512 0.435354 0.980085
H28_2 H 0.558171 0.45864 0.980954
C5_3 C 0.9705(5) 0.3639(5) 0.5676(8)
O3_3 O 0.9671(3) 0.3501(4) 0.6373(5)
O4_3 O 0.9306(4) 0.3756(5) 0.5311(6)
O29_3 O 0.9145(5) 0.3407(4) 0.7904(6)
N8_2 N 0.8644(4) 0.4226(4) 0.6720(6)
H33_3 H 0.931895 0.307332 0.795165
H34_3 H 0.88148 0.341199 0.821632
C5_4 C 0.0295(5) 0.6361(5) 0.0676(8)
O3_4 O 0.0329(3) 0.6499(4) 0.1373(5)
O4_4 O 0.0694(4) 0.6244(5) 0.0311(6)
O29_4 O 0.0855(5) 0.6593(4) 0.2904(6)
H33_4 H 0.0681047 0.692668 0.295165
H34_4 H 0.11852 0.658801 0.321632
Zn10_4 Zn 0.71029(5) 0.66281(5) 0.06515(8)
Zn2_4 Zn 0.77965(5) 0.69958(5) 0.21967(8)
Zn4_4 Zn 0.77862(6) 0.53833(5) 0.56586(8)
Zn6_4 Zn 0.84888(6) 0.57463(6) 0.72080(8)
C1_4 C 0.8344(5) 0.6662(6) 0.0844(7)
C2_4 C 0.8806(5) 0.6518(5) 0.0428(6)
C3_4 C 0.9323(5) 0.6519(5) 0.0723(7)
H1_4 H 0.9372 0.6639 0.1218
C4_4 C 0.9762(5) 0.6356(5) 0.0332(7)
C10_4 C 0.7139(5) 0.6020(5) 0.1984(7)
C11_4 C 0.6990(5) 0.5555(5) 0.2425(6)
C12_4 C 0.7180(5) 0.5506(6) 0.3170(7)
H4_4 H 0.7394 0.5754 0.3386
C13_4 C 0.7044(5) 0.5077(5) 0.3587(7)
C14_4 C 0.7230(5) 0.5038(5) 0.4416(7)
C15_4 C 0.6730(6) 0.4700(5) 0.3266(8)
H5_4 H 0.6639 0.4418 0.3550
C16_4 C 0.6556(5) 0.4752(5) 0.2519(7)
C17_4 C 0.6192(5) 0.4350(5) 0.2176(10)
C18_4 C 0.6681(5) 0.5197(5) 0.2110(7)
H6_4 H 0.6547 0.5242 0.1619
C19_4 C 0.8310(6) 0.7343(5) 0.3489(8)
C20_4 C 0.8502(5) 0.7315(5) 0.4301(7)
C21_4 C 0.8418(5) 0.6869(5) 0.4692(7)
H7_4 H 0.8247 0.6603 0.4447
C22_4 C 0.8583(5) 0.6815(5) 0.5430(7)
C23_4 C 0.8500(6) 0.6333(5) 0.5861(9)
C24_4 C 0.8850(5) 0.7217(5) 0.5792(7)
H8_4 H 0.8980 0.7179 0.6286
C25_4 C 0.8917(5) 0.7668(5) 0.5412(8)
C26_4 C 0.9156(6) 0.8101(7) 0.5804(9)
C27_4 C 0.8747(5) 0.7698(5) 0.4652(7)
H9_4 H 0.8806 0.7993 0.4381
C28_4 C 0.7257(5) 0.5767(5) 0.6942(7)
C29_4 C 0.6780(5) 0.5950(5) 0.7381(6)
C30_4 C 0.6266(5) 0.5970(5) 0.7071(7)
H10_4 H 0.6212 0.5866 0.6569
C31_4 C 0.5836(5) 0.6142(5) 0.7492(6)
C32_4 C 0.5290(5) 0.6170(5) 0.7154(8)
C33_4 C 0.5912(5) 0.6272(5) 0.8242(7)
H11_4 H 0.5623 0.6375 0.8534
C34_4 C 0.6416(5) 0.6251(5) 0.8574(6)
C35_4 C 0.6503(6) 0.6379(5) 0.9420(7)
C36_4 C 0.6843(5) 0.6103(5) 0.8137(7)
H12_4 H 0.7181 0.6104 0.8351
C37_4 C 0.7218(6) 0.8188(6) 0.2651(10)
H13_4 H 0.7566 0.8306 0.2511
H14_4 H 0.6986 0.8470 0.2726
H15_4 H 0.7241 0.7997 0.3116
C38_4 C 0.7000(5) 0.7858(5) 0.2017(7)
C39_4 C 0.6521(5) 0.7604(5) 0.1071(8)
C40_4 C 0.6105(8) 0.7569(7) 0.0511(10)
H16_4 H 0.6137 0.7256 0.0240
H17_4 H 0.5765 0.7583 0.0762
H18_4 H 0.6134 0.7843 0.0157
C41_4 C 0.9199(7) 0.4657(6) 0.7726(10)
H19_4 H 0.9016 0.4725 0.8197
H20_4 H 0.9379 0.4340 0.7764
H21_4 H 0.9453 0.4918 0.7630
C42_4 C 0.8806(5) 0.4638(5) 0.7086(7)
C43_4 C 0.8297(5) 0.4391(5) 0.6186(6)
C44_4 C 0.8038(6) 0.4066(5) 0.5613(10)
H22_4 H 0.7906 0.4268 0.5200
H23_4 H 0.8293 0.3828 0.5419
H24_4 H 0.7748 0.3889 0.5847
N1_4 N 0.7212(4) 0.7437(4) 0.1791(6)
N2_4 N 0.6904(4) 0.7268(4) 0.1177(5)
N4_4 N 0.8558(4) 0.5044(4) 0.6824(6)
N5_4 N 0.8232(4) 0.4879(4) 0.6231(5)
O1_4 O 0.8400(4) 0.6844(4) 0.1528(5)
O2_4 O 0.7893(3) 0.6655(5) 0.0525(6)
O7_4 O 0.7403(4) 0.6336(3) 0.2316(5)
O8_4 O 0.6960(4) 0.6041(4) 0.1299(5)
O9_4 O 0.7588(4) 0.5334(4) 0.4608(5)
O10_4 O 0.7034(5) 0.4711(5) 0.4806(6)
O13_4 O 0.8006(4) 0.7023(4) 0.3250(5)
O14_4 O 0.8449(5) 0.7704(5) 0.3093(7)
O15_4 O 0.8252(5) 0.5984(4) 0.5530(6)
O16_4 O 0.8676(5) 0.6290(4) 0.6518(5)
O19_4 O 0.7178(3) 0.5620(4) 0.6269(5)
O20_4 O 0.7695(3) 0.5820(5) 0.7264(6)
O21_4 O 0.5235(3) 0.6007(4) 0.6479(5)
O22_4 O 0.4932(5) 0.6346(6) 0.7547(7)
O23_4 O 0.6105(4) 0.6405(5) 0.9846(5)
O24_4 O 0.6966(4) 0.6493(4) 0.9607(5)
O25_4 O 0.4226(9) 0.6659(9) 0.8797(9)
O26_4 O 0.3468(7) 0.7073(7) 0.7714(14)
O27_4 O 0.4572(8) 0.7385(7) 0.7882(12)
O28_4 O 0.4739(6) 0.5484(5) 0.5124(7)
O30_4 O 0.8627(4) 0.5898(4) 0.8254(5)
H25_4 H 0.477657 0.734622 0.836454
H26_4 H 0.429599 0.764847 0.794974
H27_4 H 0.501488 0.564646 0.480085
H28_3 H 0.441829 0.54136 0.480954
H29_4 H 0.424007 0.629993 0.895056
H30_4 H 0.390022 0.681655 0.901166
H31_4 H 0.318749 0.681979 0.782219
H32_4 H 0.338327 0.725066 0.722945
C6_4 C 0.9683(5) 0.6184(5) 0.9598(6)
H2_4 H 0.9976 0.6080 0.9314
C7_4 C 0.9177(5) 0.6161(5) 0.9264(6)
C8_4 C 0.9113(6) 0.5972(5) 0.8437(8)
C9_4 C 0.8746(5) 0.6314(5) 0.9661(7)
H3_4 H 0.8409 0.6288 0.9443
O6_4 O 0.9488(5) 0.5905(5) 0.8024(6)
H28_4 H 0.0581708 0.0413604 0.980954
loop_
_geom_bond_atom_site_label_1
_geom_bond_atom_site_label_2
_geom_bond_site_symmetry_1
_geom_bond_site_symmetry_2
Zn1 O22 1_555 1_555
O25 Zn1 1_555 1_555
O26 Zn1 1_555 1_555
O27 Zn1 1_555 1_555
O28 Zn5 1_555 1_555
O31 Zn5 1_555 1_555
O32 Zn1 1_555 1_555
O33 Zn5 1_555 1_555
O34 Zn1 1_555 1_555
O27 H25 1_555 1_555
O27 H26 1_555 1_555
O25 H29 1_555 1_555
O25 H30 1_555 1_555
O26 H31 1_555 1_555
O26 H32 1_555 1_555
Zn6 N4 1_555 1_555
C23 C22 1_555 1_555
C24 C22 1_555 1_555
H8 C24 1_555 1_555
C25 C24 1_555 1_555
C26 C25 1_555 1_555
C28 C29 1_555 1_555
C29 C30 1_555 1_555
C30 H10 1_555 1_555
C31 C30 1_555 1_555
C32 C31 1_555 1_555
C33 C31 1_555 1_555
H11 C33 1_555 1_555
C34 C33 1_555 1_555
C35 C34 1_555 1_555
C36 C29 1_555 1_555
H12 C36 1_555 1_555
O15 Zn4 1_555 1_555
O16 Zn6 1_555 1_555
O17 C26 1_555 1_555
O18 C26 1_555 1_555
O19 Zn4 1_555 1_555
O20 Zn6 1_555 1_555
O21 C32 1_555 1_555
O23 C35 1_555 1_555
O24 C35 1_555 1_555
Zn8 O18 1_555 1_555
Zn10 O24 1_555 1_555
Zn11 O17 1_555 1_555
O30 Zn6 1_555 1_555
C23 O15 1_555 1_555
C23 O16 1_555 1_555
C28 O19 1_555 1_555
C28 O20 1_555 1_555
C34 C36 1_555 1_555
Zn2 N1 1_555 1_555
Zn10 N2 1_555 1_555
Zn7 O3 1_555 1_555
C1 C2 1_555 1_555
C2 C3 1_555 1_555
C3 H1 1_555 1_555
C4 C3 1_555 1_555
C5 C4 1_555 1_555
C6 C4 1_555 1_555
H2 C6 1_555 1_555
C7 C6 1_555 1_555
C8 C7 1_555 1_555
C9 C2 1_555 1_555
H3 C9 1_555 1_555
C10 C11 1_555 1_555
C11 C12 1_555 1_555
C12 H4 1_555 1_555
C13 C12 1_555 1_555
C14 C13 1_555 1_555
C18 C11 1_555 1_555
H6 C18 1_555 1_555
C19 C20 1_555 1_555
C20 C21 1_555 1_555
C21 H7 1_555 1_555
C27 C20 1_555 1_555
H9 C27 1_555 1_555
C37 H13 1_555 1_555
H14 C37 1_555 1_555
H15 C37 1_555 1_555
C38 C37 1_555 1_555
C39 C40 1_555 1_555
C40 H16 1_555 1_555
H17 C40 1_555 1_555
H18 C40 1_555 1_555
N1 C38 1_555 1_555
N2 C39 1_555 1_555
N3 C38 1_555 1_555
O1 Zn2 1_555 1_555
O2 Zn10 1_555 1_555
O3 C5 1_555 1_555
O4 C5 1_555 1_555
O30 C8 1_555 1_555
O6 C8 1_555 1_555
O7 Zn2 1_555 1_555
O8 Zn10 1_555 1_555
O13 Zn2 1_555 1_555
O14 C19 1_555 1_555
O29 Zn7 1_555 1_555
Zn14 N3 1_555 1_555
N7 Zn7 1_555 1_555
N8 Zn7 1_555 1_555
C1 O1 1_555 1_555
C1 O2 1_555 1_555
C7 C9 1_555 1_555
C10 O7 1_555 1_555
C10 O8 1_555 1_555
C14 O9 1_555 1_555
C19 O13 1_555 1_555
C39 N3 1_555 1_555
N1 N2 1_555 1_555
O29 H33 1_555 1_555
O29 H34 1_555 1_555
C41 H19 1_555 1_555
H20 C41 1_555 1_555
H21 C41 1_555 1_555
C42 C41 1_555 1_555
C43 C44 1_555 1_555
C44 H22 1_555 1_555
H23 C44 1_555 1_555
H24 C44 1_555 1_555
N5 C43 1_555 1_555
N6 C42 1_555 1_555
Zn15 N6 1_555 1_555
C43 N6 1_555 1_555
H5 C15 1_555 1_555
C16 C15 1_555 1_555
C17 C16 1_555 1_555
O11 C17 1_555 1_555
O12 C17 1_555 1_555
Zn9 O12 1_555 1_555
Zn12 O11 1_555 1_555
H5_2 C15_2 1_555 1_555
C16_2 C15_2 1_555 1_555
C17_2 C16_2 1_555 1_555
C41_2 H19_2 1_555 1_555
H20_2 C41_2 1_555 1_555
H21_2 C41_2 1_555 1_555
C42_2 C41_2 1_555 1_555
C43_2 C44_2 1_555 1_555
C44_2 H22_2 1_555 1_555
H23_2 C44_2 1_555 1_555
H24_2 C44_2 1_555 1_555
N5_2 C43_2 1_555 1_555
N8 C42_2 1_555 1_555
O31 C17_2 1_555 1_555
O32 C17_2 1_555 1_555
C43_2 N8 1_555 1_555
Zn2_2 N1_2 1_555 1_555
Zn10_2 N2_2 1_555 1_555
Zn6_2 N4_2 1_555 1_555
Zn15 O3_2 1_555 1_555
C1_2 C2_2 1_555 1_555
C2_2 C3_2 1_555 1_555
C3_2 H1_2 1_555 1_555
C4_2 C3_2 1_555 1_555
C5_2 C4_2 1_555 1_555
C10_2 C11_2 1_555 1_555
C11_2 C12_2 1_555 1_555
C12_2 H4_2 1_555 1_555
C13_2 C12_2 1_555 1_555
C14_2 C13_2 1_555 1_555
C18_2 C11_2 1_555 1_555
H6_2 C18_2 1_555 1_555
C19_2 C20_2 1_555 1_555
C20_2 C21_2 1_555 1_555
C21_2 H7_2 1_555 1_555
C22_2 C21_2 1_555 1_555
C23_2 C22_2 1_555 1_555
C24_2 C22_2 1_555 1_555
H8_2 C24_2 1_555 1_555
C25_2 C24_2 1_555 1_555
C26_2 C25_2 1_555 1_555
C27_2 C20_2 1_555 1_555
H9_2 C27_2 1_555 1_555
C28_2 C29_2 1_555 1_555
C29_2 C30_2 1_555 1_555
C30_2 H10_2 1_555 1_555
C31_2 C30_2 1_555 1_555
C32_2 C31_2 1_555 1_555
C33_2 C31_2 1_555 1_555
H11_2 C33_2 1_555 1_555
C34_2 C33_2 1_555 1_555
C35_2 C34_2 1_555 1_555
C36_2 C29_2 1_555 1_555
H12_2 C36_2 1_555 1_555
C37_2 H13_2 1_555 1_555
H14_2 C37_2 1_555 1_555
H15_2 C37_2 1_555 1_555
C38_2 C37_2 1_555 1_555
C39_2 C40_2 1_555 1_555
C40_2 H16_2 1_555 1_555
H17_2 C40_2 1_555 1_555
H18_2 C40_2 1_555 1_555
N1_2 C38_2 1_555 1_555
N2_2 C39_2 1_555 1_555
N3_2 C38_2 1_555 1_555
O1_2 Zn2_2 1_555 1_555
O2_2 Zn10_2 1_555 1_555
O3_2 C5_2 1_555 1_555
O4_2 C5_2 1_555 1_555
O7_2 Zn2_2 1_555 1_555
O8_2 Zn10_2 1_555 1_555
O9_2 Zn4_2 1_555 1_555
O13_2 Zn2_2 1_555 1_555
O14_2 C19_2 1_555 1_555
O15_2 Zn4_2 1_555 1_555
O16_2 Zn6_2 1_555 1_555
O17_2 C26_2 1_555 1_555
O18_2 C26_2 1_555 1_555
O19_2 Zn4_2 1_555 1_555
O20_2 Zn6_2 1_555 1_555
O21_2 C32_2 1_555 1_555
O23_2 C35_2 1_555 1_555
O24_2 C35_2 1_555 1_555
O29_2 Zn15 1_555 1_555
Zn8_2 O18_2 1_555 1_555
Zn11_2 O17_2 1_555 1_555
Zn14_2 N3_2 1_555 1_555
N7_2 Zn15 1_555 1_555
O30_2 Zn6_2 1_555 1_555
C1_2 O1_2 1_555 1_555
C1_2 O2_2 1_555 1_555
C10_2 O7_2 1_555 1_555
C10_2 O8_2 1_555 1_555
C14_2 O9_2 1_555 1_555
C19_2 O13_2 1_555 1_555
C23_2 O15_2 1_555 1_555
C23_2 O16_2 1_555 1_555
C25_2 C27_2 1_555 1_555
C28_2 O19_2 1_555 1_555
C28_2 O20_2 1_555 1_555
C34_2 C36_2 1_555 1_555
C39_2 N3_2 1_555 1_555
N1_2 N2_2 1_555 1_555
O29_2 H33_2 1_555 1_555
O29_2 H34_2 1_555 1_555
H2_2 C6_2 1_555 1_555
C7_2 C6_2 1_555 1_555
C8_2 C7_2 1_555 1_555
H3_2 C9_2 1_555 1_555
O30_2 C8_2 1_555 1_555
O6_2 C8_2 1_555 1_555
C7_2 C9_2 1_555 1_555
Zn9 O22_2 1_555 1_555
O25_2 Zn9 1_555 1_555
O26_2 Zn9 1_555 1_555
O27_2 Zn9 1_555 1_555
O28_2 Zn12 1_555 1_555
O33_2 Zn12 1_555 1_555
O34_2 Zn9 1_555 1_555
O27_2 H25_2 1_555 1_555
O27_2 H26_2 1_555 1_555
O28_2 H28 1_555 1_555
O25_2 H29_2 1_555 1_555
O25_2 H30_2 1_555 1_555
O26_2 H31_2 1_555 1_555
O26_2 H32_2 1_555 1_555
Zn8 O22_3 1_555 1_555
Zn4_3 N5_3 1_555 1_555
Zn11 O21_3 1_555 1_555
Zn6_3 N4_3 1_555 1_555
C23_3 C22_3 1_555 1_555
C24_3 C22_3 1_555 1_555
H8_3 C24_3 1_555 1_555
C25_3 C24_3 1_555 1_555
C26_3 C25_3 1_555 1_555
C28_3 C29_3 1_555 1_555
C29_3 C30_3 1_555 1_555
C30_3 H10_3 1_555 1_555
C31_3 C30_3 1_555 1_555
C32_3 C31_3 1_555 1_555
C33_3 C31_3 1_555 1_555
H11_3 C33_3 1_555 1_555
C34_3 C33_3 1_555 1_555
C35_3 C34_3 1_555 1_555
C36_3 C29_3 1_555 1_555
H12_3 C36_3 1_555 1_555
C41_3 H19_3 1_555 1_555
H20_3 C41_3 1_555 1_555
H21_3 C41_3 1_555 1_555
C42_3 C41_3 1_555 1_555
C43_3 C44_3 1_555 1_555
C44_3 H22_3 1_555 1_555
H23_3 C44_3 1_555 1_555
H24_3 C44_3 1_555 1_555
N4_3 C42_3 1_555 1_555
N5_3 C43_3 1_555 1_555
N6_2 C42_3 1_555 1_555
O15_3 Zn4_3 1_555 1_555
O16_3 Zn6_3 1_555 1_555
O33 C26_3 1_555 1_555
O34 C26_3 1_555 1_555
O19_3 Zn4_3 1_555 1_555
O20_3 Zn6_3 1_555 1_555
O21_3 C32_3 1_555 1_555
O22_3 C32_3 1_555 1_555
O23_3 C35_3 1_555 1_555
O24_3 C35_3 1_555 1_555
O25_3 Zn8 1_555 1_555
O26_3 Zn8 1_555 1_555
O27_3 Zn8 1_555 1_555
O28_3 Zn11 1_555 1_555
Zn10_3 O24_3 1_555 1_555
Zn14_2 N6_2 1_555 1_555
O30_3 Zn6_3 1_555 1_555
O31_2 Zn11 1_555 1_555
O32_2 Zn8 1_555 1_555
C23_3 O15_3 1_555 1_555
C23_3 O16_3 1_555 1_555
C28_3 O19_3 1_555 1_555
C28_3 O20_3 1_555 1_555
C34_3 C36_3 1_555 1_555
C43_3 N6_2 1_555 1_555
N4_3 N5_3 1_555 1_555
O27_3 H25_3 1_555 1_555
O27_3 H26_3 1_555 1_555
O25_3 H29_3 1_555 1_555
O25_3 H30_3 1_555 1_555
O26_3 H31_3 1_555 1_555
O26_3 H32_3 1_555 1_555
Zn2_3 N1_3 1_555 1_555
Zn10_3 N2_3 1_555 1_555
C1_3 C2_3 1_555 1_555
C2_3 C3_3 1_555 1_555
C3_3 H1_3 1_555 1_555
C4_3 C3_3 1_555 1_555
C6_3 C4_3 1_555 1_555
H2_3 C6_3 1_555 1_555
C7_3 C6_3 1_555 1_555
C8_3 C7_3 1_555 1_555
C9_3 C2_3 1_555 1_555
H3_3 C9_3 1_555 1_555
C10_3 C11_3 1_555 1_555
C11_3 C12_3 1_555 1_555
C12_3 H4_3 1_555 1_555
C13_3 C12_3 1_555 1_555
C14_3 C13_3 1_555 1_555
C15_3 C13_3 1_555 1_555
H5_3 C15_3 1_555 1_555
C16_3 C15_3 1_555 1_555
C17_3 C16_3 1_555 1_555
C18_3 C11_3 1_555 1_555
H6_3 C18_3 1_555 1_555
C19_3 C20_3 1_555 1_555
C20_3 C21_3 1_555 1_555
C21_3 H7_3 1_555 1_555
C27_3 C20_3 1_555 1_555
H9_3 C27_3 1_555 1_555
C37_3 H13_3 1_555 1_555
H14_3 C37_3 1_555 1_555
H15_3 C37_3 1_555 1_555
C38_3 C37_3 1_555 1_555
C39_3 C40_3 1_555 1_555
C40_3 H16_3 1_555 1_555
H17_3 C40_3 1_555 1_555
H18_3 C40_3 1_555 1_555
N1_3 C38_3 1_555 1_555
N2_3 C39_3 1_555 1_555
N7 C38_3 1_555 1_555
O1_3 Zn2_3 1_555 1_555
O2_3 Zn10_3 1_555 1_555
O30_3 C8_3 1_555 1_555
O6_3 C8_3 1_555 1_555
O7_3 Zn2_3 1_555 1_555
O8_3 Zn10_3 1_555 1_555
O10_3 C14_3 1_555 1_555
O11_2 C17_3 1_555 1_555
O12_2 C17_3 1_555 1_555
O13_3 Zn2_3 1_555 1_555
O14_3 C19_3 1_555 1_555
Zn8_2 O12_2 1_555 1_555
Zn11_2 O11_2 1_555 1_555
C1_3 O1_3 1_555 1_555
C1_3 O2_3 1_555 1_555
C7_3 C9_3 1_555 1_555
C10_3 O7_3 1_555 1_555
C10_3 O8_3 1_555 1_555
C14_3 O9_3 1_555 1_555
C16_3 C18_3 1_555 1_555
C19_3 O13_3 1_555 1_555
C39_3 N7 1_555 1_555
N1_3 N2_3 1_555 1_555
Zn14 O3_3 1_555 1_555
O3_3 C5_3 1_555 1_555
O4_3 C5_3 1_555 1_555
O29_3 Zn14 1_555 1_555
N8_2 Zn14 1_555 1_555
O29_3 H33_3 1_555 1_555
O29_3 H34_3 1_555 1_555
Zn14_2 O3_4 1_555 1_555
O3_4 C5_4 1_555 1_555
O4_4 C5_4 1_555 1_555
O29_4 Zn14_2 1_555 1_555
O29_4 H33_4 1_555 1_555
O29_4 H34_4 1_555 1_555
Zn8_2 O22_4 1_555 1_555
Zn2_4 N1_4 1_555 1_555
Zn10_4 N2_4 1_555 1_555
Zn4_4 N5_4 1_555 1_555
Zn11_2 O21_4 1_555 1_555
Zn6_4 N4_4 1_555 1_555
C1_4 C2_4 1_555 1_555
C2_4 C3_4 1_555 1_555
C3_4 H1_4 1_555 1_555
C4_4 C3_4 1_555 1_555
C10_4 C11_4 1_555 1_555
C11_4 C12_4 1_555 1_555
C12_4 H4_4 1_555 1_555
C13_4 C12_4 1_555 1_555
C14_4 C13_4 1_555 1_555
C15_4 C13_4 1_555 1_555
H5_4 C15_4 1_555 1_555
C16_4 C15_4 1_555 1_555
C17_4 C16_4 1_555 1_555
C18_4 C11_4 1_555 1_555
H6_4 C18_4 1_555 1_555
C19_4 C20_4 1_555 1_555
C20_4 C21_4 1_555 1_555
C21_4 H7_4 1_555 1_555
C22_4 C21_4 1_555 1_555
C23_4 C22_4 1_555 1_555
C24_4 C22_4 1_555 1_555
H8_4 C24_4 1_555 1_555
C25_4 C24_4 1_555 1_555
C26_4 C25_4 1_555 1_555
C27_4 C20_4 1_555 1_555
H9_4 C27_4 1_555 1_555
C28_4 C29_4 1_555 1_555
C29_4 C30_4 1_555 1_555
C30_4 H10_4 1_555 1_555
C31_4 C30_4 1_555 1_555
C32_4 C31_4 1_555 1_555
C33_4 C31_4 1_555 1_555
H11_4 C33_4 1_555 1_555
C34_4 C33_4 1_555 1_555
C35_4 C34_4 1_555 1_555
C36_4 C29_4 1_555 1_555
H12_4 C36_4 1_555 1_555
C37_4 H13_4 1_555 1_555
H14_4 C37_4 1_555 1_555
H15_4 C37_4 1_555 1_555
C38_4 C37_4 1_555 1_555
C39_4 C40_4 1_555 1_555
C40_4 H16_4 1_555 1_555
H17_4 C40_4 1_555 1_555
H18_4 C40_4 1_555 1_555
C41_4 H19_4 1_555 1_555
H20_4 C41_4 1_555 1_555
H21_4 C41_4 1_555 1_555
C42_4 C41_4 1_555 1_555
C43_4 C44_4 1_555 1_555
C44_4 H22_4 1_555 1_555
H23_4 C44_4 1_555 1_555
H24_4 C44_4 1_555 1_555
N1_4 C38_4 1_555 1_555
N2_4 C39_4 1_555 1_555
N7_2 C38_4 1_555 1_555
N4_4 C42_4 1_555 1_555
N5_4 C43_4 1_555 1_555
N8_2 C42_4 1_555 1_555
O1_4 Zn2_4 1_555 1_555
O2_4 Zn10_4 1_555 1_555
O7_4 Zn2_4 1_555 1_555
O8_4 Zn10_4 1_555 1_555
O9_4 Zn4_4 1_555 1_555
O10_4 C14_4 1_555 1_555
O31_2 C17_4 1_555 1_555
O32_2 C17_4 1_555 1_555
O13_4 Zn2_4 1_555 1_555
O14_4 C19_4 1_555 1_555
O15_4 Zn4_4 1_555 1_555
O16_4 Zn6_4 1_555 1_555
O33_2 C26_4 1_555 1_555
O34_2 C26_4 1_555 1_555
O19_4 Zn4_4 1_555 1_555
O20_4 Zn6_4 1_555 1_555
O21_4 C32_4 1_555 1_555
O22_4 C32_4 1_555 1_555
O23_4 C35_4 1_555 1_555
O24_4 C35_4 1_555 1_555
O25_4 Zn8_2 1_555 1_555
O26_4 Zn8_2 1_555 1_555
O27_4 Zn8_2 1_555 1_555
O28_4 Zn11_2 1_555 1_555
O30_4 Zn6_4 1_555 1_555
C1_4 O1_4 1_555 1_555
C1_4 O2_4 1_555 1_555
C10_4 O7_4 1_555 1_555
C10_4 O8_4 1_555 1_555
C14_4 O9_4 1_555 1_555
C16_4 C18_4 1_555 1_555
C19_4 O13_4 1_555 1_555
C23_4 O15_4 1_555 1_555
C23_4 O16_4 1_555 1_555
C25_4 C27_4 1_555 1_555
C28_4 O19_4 1_555 1_555
C28_4 O20_4 1_555 1_555
C34_4 C36_4 1_555 1_555
C39_4 N7_2 1_555 1_555
C43_4 N8_2 1_555 1_555
N1_4 N2_4 1_555 1_555
N4_4 N5_4 1_555 1_555
O27_4 H25_4 1_555 1_555
O27_4 H26_4 1_555 1_555
O28_4 H27_4 1_555 1_555
O28_4 H28_3 1_555 1_555
O25_4 H29_4 1_555 1_555
O25_4 H30_4 1_555 1_555
O26_4 H31_4 1_555 1_555
O26_4 H32_4 1_555 1_555
H2_4 C6_4 1_555 1_555
C7_4 C6_4 1_555 1_555
C8_4 C7_4 1_555 1_555
H3_4 C9_4 1_555 1_555
O30_4 C8_4 1_555 1_555
O6_4 C8_4 1_555 1_555
C7_4 C9_4 1_555 1_555

#END
