
###############################################################################
#
# This file contains modified crystal structure data generated from the
# MOF subset of the Cambridge Structural Database (CSD) v543 
# hosted by the Cambridge Crystallographic Data Centre (CCDC).
#
# This work is licensed under the Creative Commons
# Attribution-NonCommercial-ShareAlike 4.0 International License.
# To view a copy of this license, visit
# http://creativecommons.org/licenses/by-nc-sa/4.0/
# or send a letter to
# Creative Commons, PO Box 1866, Mountain View, CA 94042, USA.
#
# CIF created using the CSD Python API on 29 September 2022
# The structure has been converted into the P1 space group
# The structure has a 3D framework
# The original CSD entry OWAZOE is in the cubic crystal system
# The framework has been calculated to contain at least 10.0% void space
# The void calculation uses a probe of radius 1.32A, grid spacing 0.4
# H atom positions have been added when not included in the experimental data
# Generated hydrogen atom positions removed from atoms on special positions
#
###############################################################################

data_OWAZOE
_chemical_formula_moiety         '(C672 H1824 Cl204 Cu180 N336 O246 P144)n'
_symmetry_cell_setting           triclinic
_symmetry_space_group_name_H-M   'P 1'
_symmetry_Int_Tables_number      1
_space_group_name_Hall           'P 1'
loop_
_symmetry_equiv_pos_site_id
_symmetry_equiv_pos_as_xyz
1 x,y,z
_cell_length_a                   32.7826(3)
_cell_length_b                   32.7826(3)
_cell_length_c                   32.7826(3)
_cell_angle_alpha                90
_cell_angle_beta                 90
_cell_angle_gamma                90
_cell_volume                     35231.4
loop_
_atom_site_label
_atom_site_type_symbol
_atom_site_fract_x
_atom_site_fract_y
_atom_site_fract_z
O1 O 0.500000 0.750000 0.500000
P1 P 0.500000 0.67733(8) 0.68172(8)
N1 N 0.500000 0.68187(19) 0.5987(2)
C1 C 0.4567(3) 0.6450(2) 0.6723(2)
H1 H 0.454397 0.624064 0.693922
H2 H 0.431300 0.661383 0.672144
O2 O 0.4226(10) 0.750000 0.750000
Cu1 Cu 0.500000 0.71641(3) 0.54786(3)
O3 O 0.500000 0.6982(2) 0.7216(2)
Cl1 Cl 0.500000 0.66140(8) 0.500000
Cu2 Cu 0.500000 0.750000 0.750000
Cl2 Cl 0.56295(4) 0.750000 0.56295(4)
C2 C 0.500000 0.7085(2) 0.6355(2)
H3 H 0.475545 0.726204 0.635158
C3 C 0.500000 0.6007(3) 0.6310(4)
H4 H 0.500001 0.584310 0.605642
H5 H 0.499999 0.581514 0.654340
C4 C 0.4630(3) 0.6546(2) 0.5992(2)
H6 H 0.438303 0.671892 0.601121
H7 H 0.461689 0.639632 0.573041
N2 N 0.4625(3) 0.62532(19) 0.63242(19)
C5 C 0.5433(3) 0.6450(2) 0.6723(2)
H8 H 0.545603 0.624064 0.693922
H9 H 0.568700 0.661383 0.672144
H10 H 0.524455 0.726204 0.635158
C6 C 0.5370(3) 0.6546(2) 0.5992(2)
H11 H 0.561697 0.671892 0.601121
H12 H 0.538311 0.639632 0.573041
N3 N 0.5375(3) 0.62532(19) 0.63242(19)
P2 P 0.500000 0.67733(8) 0.31828(8)
N4 N 0.500000 0.68187(19) 0.4013(2)
C7 C 0.5433(3) 0.6450(2) 0.3277(2)
H13 H 0.545603 0.624064 0.306078
H14 H 0.568700 0.661383 0.327856
Cu3 Cu 0.500000 0.71641(3) 0.45214(3)
O4 O 0.500000 0.6982(2) 0.2784(2)
Cl3 Cl 0.43705(4) 0.750000 0.43705(4)
C8 C 0.500000 0.7085(2) 0.3645(2)
H15 H 0.524455 0.726204 0.364842
C9 C 0.500000 0.6007(3) 0.3690(4)
H16 H 0.499999 0.584310 0.394358
H17 H 0.500001 0.581514 0.345660
C10 C 0.5370(3) 0.6546(2) 0.4008(2)
H18 H 0.561697 0.671892 0.398879
H19 H 0.538311 0.639632 0.426959
N5 N 0.5375(3) 0.62532(19) 0.36758(19)
C11 C 0.4567(3) 0.6450(2) 0.3277(2)
H20 H 0.454397 0.624064 0.306078
H21 H 0.431300 0.661383 0.327856
H22 H 0.475545 0.726204 0.364842
C12 C 0.4630(3) 0.6546(2) 0.4008(2)
H23 H 0.438303 0.671892 0.398879
H24 H 0.461689 0.639632 0.426959
N6 N 0.4625(3) 0.62532(19) 0.36758(19)
P3 P 0.68172(8) 0.82267(8) 0.500000
N7 N 0.5987(2) 0.81813(19) 0.500000
C13 C 0.6723(2) 0.8550(2) 0.4567(3)
H25 H 0.693922 0.875936 0.454397
H26 H 0.672144 0.838617 0.431300
Cu4 Cu 0.54786(3) 0.78359(3) 0.500000
O5 O 0.7216(2) 0.8018(2) 0.500000
Cl4 Cl 0.500000 0.83860(8) 0.500000
C14 C 0.6355(2) 0.7915(2) 0.500000
H27 H 0.635158 0.773796 0.475545
C15 C 0.6310(4) 0.8993(3) 0.500000
H28 H 0.605642 0.915690 0.500001
H29 H 0.654340 0.918486 0.499999
C16 C 0.5992(2) 0.8454(2) 0.4630(3)
H30 H 0.601121 0.828108 0.438303
H31 H 0.573041 0.860368 0.461689
N8 N 0.63242(19) 0.87468(19) 0.4625(3)
C17 C 0.6723(2) 0.8550(2) 0.5433(3)
H32 H 0.693922 0.875936 0.545603
H33 H 0.672144 0.838617 0.568700
H34 H 0.635158 0.773796 0.524455
C18 C 0.5992(2) 0.8454(2) 0.5370(3)
H35 H 0.601121 0.828108 0.561697
H36 H 0.573041 0.860368 0.538311
N9 N 0.63242(19) 0.87468(19) 0.5375(3)
P4 P 0.31828(8) 0.82267(8) 0.500000
N10 N 0.4013(2) 0.81813(19) 0.500000
C19 C 0.3277(2) 0.8550(2) 0.5433(3)
H37 H 0.306078 0.875936 0.545603
H38 H 0.327856 0.838617 0.568700
Cu5 Cu 0.45214(3) 0.78359(3) 0.500000
O6 O 0.2784(2) 0.8018(2) 0.500000
C20 C 0.3645(2) 0.7915(2) 0.500000
H39 H 0.364842 0.773796 0.524455
C21 C 0.3690(4) 0.8993(3) 0.500000
H40 H 0.394358 0.915690 0.499999
H41 H 0.345660 0.918486 0.500001
C22 C 0.4008(2) 0.8454(2) 0.5370(3)
H42 H 0.398879 0.828108 0.561697
H43 H 0.426959 0.860368 0.538311
N11 N 0.36758(19) 0.87468(19) 0.5375(3)
C23 C 0.3277(2) 0.8550(2) 0.4567(3)
H44 H 0.306078 0.875936 0.454397
H45 H 0.327856 0.838617 0.431300
H46 H 0.364842 0.773796 0.475545
C24 C 0.4008(2) 0.8454(2) 0.4630(3)
H47 H 0.398879 0.828108 0.438303
H48 H 0.426959 0.860368 0.461689
N12 N 0.36758(19) 0.87468(19) 0.4625(3)
Cl5 Cl 0.56295(4) 0.750000 0.43705(4)
Cl6 Cl 0.43705(4) 0.750000 0.56295(4)
O7 O 0.5774(10) 0.750000 0.750000
O8 O 0.500000 0.8018(2) 0.7784(2)
O9 O 0.500000 0.7784(2) 0.6982(2)
O10 O 0.500000 0.7216(2) 0.8018(2)
Cu6 Cu 0.500000 0.750000 0.250000
Cu7 Cu 0.750000 0.750000 0.500000
Cu8 Cu 0.250000 0.750000 0.500000
O1_2 O 0.500000 0.250000 0.500000
P1_2 P 0.500000 0.32267(8) 0.68172(8)
N1_2 N 0.500000 0.31813(19) 0.5987(2)
C1_2 C 0.5433(3) 0.3550(2) 0.6723(2)
H1_2 H 0.545603 0.375936 0.693922
H2_2 H 0.568700 0.338617 0.672144
O2_2 O 0.5774(10) 0.250000 0.750000
Cu1_2 Cu 0.500000 0.28359(3) 0.54786(3)
O3_2 O 0.500000 0.3018(2) 0.7216(2)
Cl1_2 Cl 0.500000 0.33860(8) 0.500000
Cu2_2 Cu 0.500000 0.250000 0.750000
Cl2_2 Cl 0.43705(4) 0.250000 0.56295(4)
C2_2 C 0.500000 0.2915(2) 0.6355(2)
H3_2 H 0.524455 0.273796 0.635158
C3_2 C 0.500000 0.3993(3) 0.6310(4)
H4_2 H 0.499999 0.415690 0.605642
H5_2 H 0.500001 0.418486 0.654340
C4_2 C 0.5370(3) 0.3454(2) 0.5992(2)
H6_2 H 0.561697 0.328108 0.601121
H7_2 H 0.538311 0.360368 0.573041
N2_2 N 0.5375(3) 0.37468(19) 0.63242(19)
C5_2 C 0.4567(3) 0.3550(2) 0.6723(2)
H8_2 H 0.454397 0.375936 0.693922
H9_2 H 0.431300 0.338617 0.672144
H10_2 H 0.475545 0.273796 0.635158
C6_2 C 0.4630(3) 0.3454(2) 0.5992(2)
H11_2 H 0.438303 0.328108 0.601121
H12_2 H 0.461689 0.360368 0.573041
N3_2 N 0.4625(3) 0.37468(19) 0.63242(19)
P2_2 P 0.500000 0.32267(8) 0.31828(8)
N4_2 N 0.500000 0.31813(19) 0.4013(2)
C7_2 C 0.4567(3) 0.3550(2) 0.3277(2)
H13_2 H 0.454397 0.375936 0.306078
H14_2 H 0.431300 0.338617 0.327856
Cu3_2 Cu 0.500000 0.28359(3) 0.45214(3)
O4_2 O 0.500000 0.3018(2) 0.2784(2)
Cl3_2 Cl 0.56295(4) 0.250000 0.43705(4)
C8_2 C 0.500000 0.2915(2) 0.3645(2)
H15_2 H 0.475545 0.273796 0.364842
C9_2 C 0.500000 0.3993(3) 0.3690(4)
H16_2 H 0.500001 0.415690 0.394358
H17_2 H 0.499999 0.418486 0.345660
C10_2 C 0.4630(3) 0.3454(2) 0.4008(2)
H18_2 H 0.438303 0.328108 0.398879
H19_2 H 0.461689 0.360368 0.426959
N5_2 N 0.4625(3) 0.37468(19) 0.36758(19)
C11_2 C 0.5433(3) 0.3550(2) 0.3277(2)
H20_2 H 0.545603 0.375936 0.306078
H21_2 H 0.568700 0.338617 0.327856
H22_2 H 0.524455 0.273796 0.364842
C12_2 C 0.5370(3) 0.3454(2) 0.4008(2)
H23_2 H 0.561697 0.328108 0.398879
H24_2 H 0.538311 0.360368 0.426959
N6_2 N 0.5375(3) 0.37468(19) 0.36758(19)
P3_2 P 0.31828(8) 0.17733(8) 0.500000
N7_2 N 0.4013(2) 0.18187(19) 0.500000
C13_2 C 0.3277(2) 0.1450(2) 0.4567(3)
H25_2 H 0.306078 0.124064 0.454397
H26_2 H 0.327856 0.161383 0.431300
Cu4_2 Cu 0.45214(3) 0.21641(3) 0.500000
O5_2 O 0.2784(2) 0.1982(2) 0.500000
Cl4_2 Cl 0.500000 0.16140(8) 0.500000
C14_2 C 0.3645(2) 0.2085(2) 0.500000
H27_2 H 0.364842 0.226204 0.475545
C15_2 C 0.3690(4) 0.1007(3) 0.500000
H28_2 H 0.394358 0.084310 0.500001
H29_2 H 0.345660 0.081514 0.499999
C16_2 C 0.4008(2) 0.1546(2) 0.4630(3)
H30_2 H 0.398879 0.171892 0.438303
H31_2 H 0.426959 0.139632 0.461689
N8_2 N 0.36758(19) 0.12532(19) 0.4625(3)
C17_2 C 0.3277(2) 0.1450(2) 0.5433(3)
H32_2 H 0.306078 0.124064 0.545603
H33_2 H 0.327856 0.161383 0.568700
H34_2 H 0.364842 0.226204 0.524455
C18_2 C 0.4008(2) 0.1546(2) 0.5370(3)
H35_2 H 0.398879 0.171892 0.561697
H36_2 H 0.426959 0.139632 0.538311
N9_2 N 0.36758(19) 0.12532(19) 0.5375(3)
P4_2 P 0.68172(8) 0.17733(8) 0.500000
N10_2 N 0.5987(2) 0.18187(19) 0.500000
C19_2 C 0.6723(2) 0.1450(2) 0.5433(3)
H37_2 H 0.693922 0.124064 0.545603
H38_2 H 0.672144 0.161383 0.568700
Cu5_2 Cu 0.54786(3) 0.21641(3) 0.500000
O6_2 O 0.7216(2) 0.1982(2) 0.500000
C20_2 C 0.6355(2) 0.2085(2) 0.500000
H39_2 H 0.635158 0.226204 0.524455
C21_2 C 0.6310(4) 0.1007(3) 0.500000
H40_2 H 0.605642 0.084310 0.499999
H41_2 H 0.654340 0.081514 0.500001
C22_2 C 0.5992(2) 0.1546(2) 0.5370(3)
H42_2 H 0.601121 0.171892 0.561697
H43_2 H 0.573041 0.139632 0.538311
N11_2 N 0.63242(19) 0.12532(19) 0.5375(3)
C23_2 C 0.6723(2) 0.1450(2) 0.4567(3)
H44_2 H 0.693922 0.124064 0.454397
H45_2 H 0.672144 0.161383 0.431300
H46_2 H 0.635158 0.226204 0.475545
C24_2 C 0.5992(2) 0.1546(2) 0.4630(3)
H47_2 H 0.601121 0.171892 0.438303
H48_2 H 0.573041 0.139632 0.461689
N12_2 N 0.63242(19) 0.12532(19) 0.4625(3)
Cl5_2 Cl 0.43705(4) 0.250000 0.43705(4)
Cl6_2 Cl 0.56295(4) 0.250000 0.56295(4)
O7_2 O 0.4226(10) 0.250000 0.750000
O8_2 O 0.500000 0.1982(2) 0.7784(2)
O9_2 O 0.500000 0.2216(2) 0.6982(2)
O10_2 O 0.500000 0.2784(2) 0.8018(2)
Cu6_2 Cu 0.500000 0.250000 0.250000
Cu7_2 Cu 0.250000 0.250000 0.500000
Cu8_2 Cu 0.750000 0.250000 0.500000
O2_3 O 0.5774(10) 0.750000 0.250000
O7_3 O 0.4226(10) 0.750000 0.250000
O8_3 O 0.500000 0.8018(2) 0.2216(2)
O9_3 O 0.500000 0.7784(2) 0.3018(2)
O10_3 O 0.500000 0.7216(2) 0.1982(2)
O2_4 O 0.4226(10) 0.250000 0.250000
O7_4 O 0.5774(10) 0.250000 0.250000
O8_4 O 0.500000 0.1982(2) 0.2216(2)
O9_4 O 0.500000 0.2216(2) 0.3018(2)
O10_4 O 0.500000 0.2784(2) 0.1982(2)
O1_3 O 0.500000 0.500000 0.750000
P1_3 P 0.68172(8) 0.500000 0.67733(8)
N1_3 N 0.5987(2) 0.500000 0.68187(19)
C1_3 C 0.6723(2) 0.4567(3) 0.6450(2)
H1_3 H 0.693922 0.454397 0.624064
H2_3 H 0.672144 0.431300 0.661383
O2_5 O 0.750000 0.4226(10) 0.750000
Cu1_3 Cu 0.54786(3) 0.500000 0.71641(3)
O3_3 O 0.7216(2) 0.500000 0.6982(2)
Cl1_3 Cl 0.500000 0.500000 0.66140(8)
Cu2_3 Cu 0.750000 0.500000 0.750000
Cl2_3 Cl 0.56295(4) 0.56295(4) 0.750000
C2_3 C 0.6355(2) 0.500000 0.7085(2)
H3_3 H 0.635158 0.475545 0.726204
C3_3 C 0.6310(4) 0.500000 0.6007(3)
H4_3 H 0.605642 0.500001 0.584310
H5_3 H 0.654340 0.499999 0.581514
C4_3 C 0.5992(2) 0.4630(3) 0.6546(2)
H6_3 H 0.601121 0.438303 0.671892
H7_3 H 0.573041 0.461689 0.639632
N2_3 N 0.63242(19) 0.4625(3) 0.62532(19)
C5_3 C 0.6723(2) 0.5433(3) 0.6450(2)
H8_3 H 0.693922 0.545603 0.624064
H9_3 H 0.672144 0.568700 0.661383
H10_3 H 0.635158 0.524455 0.726204
C6_3 C 0.5992(2) 0.5370(3) 0.6546(2)
H11_3 H 0.601121 0.561697 0.671892
H12_3 H 0.573041 0.538311 0.639632
N3_3 N 0.63242(19) 0.5375(3) 0.62532(19)
P2_3 P 0.31828(8) 0.500000 0.67733(8)
N4_3 N 0.4013(2) 0.500000 0.68187(19)
C7_3 C 0.3277(2) 0.5433(3) 0.6450(2)
H13_3 H 0.306078 0.545603 0.624064
H14_3 H 0.327856 0.568700 0.661383
Cu3_3 Cu 0.45214(3) 0.500000 0.71641(3)
O4_3 O 0.2784(2) 0.500000 0.6982(2)
Cl3_3 Cl 0.43705(4) 0.43705(4) 0.750000
C8_3 C 0.3645(2) 0.500000 0.7085(2)
H15_3 H 0.364842 0.524455 0.726204
C9_3 C 0.3690(4) 0.500000 0.6007(3)
H16_3 H 0.394358 0.499999 0.584310
H17_3 H 0.345660 0.500001 0.581514
C10_3 C 0.4008(2) 0.5370(3) 0.6546(2)
H18_3 H 0.398879 0.561697 0.671892
H19_3 H 0.426959 0.538311 0.639632
N5_3 N 0.36758(19) 0.5375(3) 0.62532(19)
C11_3 C 0.3277(2) 0.4567(3) 0.6450(2)
H20_3 H 0.306078 0.454397 0.624064
H21_3 H 0.327856 0.431300 0.661383
H22_3 H 0.364842 0.475545 0.726204
C12_3 C 0.4008(2) 0.4630(3) 0.6546(2)
H23_3 H 0.398879 0.438303 0.671892
H24_3 H 0.426959 0.461689 0.639632
N6_3 N 0.36758(19) 0.4625(3) 0.62532(19)
P3_3 P 0.500000 0.68172(8) 0.82267(8)
N7_3 N 0.500000 0.5987(2) 0.81813(19)
C13_3 C 0.4567(3) 0.6723(2) 0.8550(2)
H25_3 H 0.454397 0.693922 0.875936
H26_3 H 0.431300 0.672144 0.838617
Cu4_3 Cu 0.500000 0.54786(3) 0.78359(3)
Cl4_3 Cl 0.500000 0.500000 0.83860(8)
C14_3 C 0.500000 0.6355(2) 0.7915(2)
H27_3 H 0.475545 0.635158 0.773796
C15_3 C 0.500000 0.6310(4) 0.8993(3)
H28_3 H 0.500001 0.605642 0.915690
H29_3 H 0.499999 0.654340 0.918486
C16_3 C 0.4630(3) 0.5992(2) 0.8454(2)
H30_3 H 0.438303 0.601121 0.828108
H31_3 H 0.461689 0.573041 0.860368
N8_3 N 0.4625(3) 0.63242(19) 0.87468(19)
C17_3 C 0.5433(3) 0.6723(2) 0.8550(2)
H32_3 H 0.545603 0.693922 0.875936
H33_3 H 0.568700 0.672144 0.838617
H34_3 H 0.524455 0.635158 0.773796
C18_3 C 0.5370(3) 0.5992(2) 0.8454(2)
H35_3 H 0.561697 0.601121 0.828108
H36_3 H 0.538311 0.573041 0.860368
N9_3 N 0.5375(3) 0.63242(19) 0.87468(19)
P4_3 P 0.500000 0.31828(8) 0.82267(8)
N10_3 N 0.500000 0.4013(2) 0.81813(19)
C19_3 C 0.5433(3) 0.3277(2) 0.8550(2)
H37_3 H 0.545603 0.306078 0.875936
H38_3 H 0.568700 0.327856 0.838617
Cu5_3 Cu 0.500000 0.45214(3) 0.78359(3)
C20_3 C 0.500000 0.3645(2) 0.7915(2)
H39_3 H 0.524455 0.364842 0.773796
C21_3 C 0.500000 0.3690(4) 0.8993(3)
H40_3 H 0.499999 0.394358 0.915690
H41_3 H 0.500001 0.345660 0.918486
C22_3 C 0.5370(3) 0.4008(2) 0.8454(2)
H42_3 H 0.561697 0.398879 0.828108
H43_3 H 0.538311 0.426959 0.860368
N11_3 N 0.5375(3) 0.36758(19) 0.87468(19)
C23_3 C 0.4567(3) 0.3277(2) 0.8550(2)
H44_3 H 0.454397 0.306078 0.875936
H45_3 H 0.431300 0.327856 0.838617
H46_3 H 0.475545 0.364842 0.773796
C24_3 C 0.4630(3) 0.4008(2) 0.8454(2)
H47_3 H 0.438303 0.398879 0.828108
H48_3 H 0.461689 0.426959 0.860368
N12_3 N 0.4625(3) 0.36758(19) 0.87468(19)
Cl5_3 Cl 0.43705(4) 0.56295(4) 0.750000
Cl6_3 Cl 0.56295(4) 0.43705(4) 0.750000
O7_5 O 0.750000 0.5774(10) 0.750000
O8_5 O 0.7784(2) 0.500000 0.8018(2)
O9_5 O 0.6982(2) 0.500000 0.7784(2)
O10_5 O 0.8018(2) 0.500000 0.7216(2)
Cu6_3 Cu 0.250000 0.500000 0.750000
O1_4 O 0.500000 0.500000 0.250000
P1_4 P 0.68172(8) 0.500000 0.32267(8)
N1_4 N 0.5987(2) 0.500000 0.31813(19)
C1_4 C 0.6723(2) 0.5433(3) 0.3550(2)
H1_4 H 0.693922 0.545603 0.375936
H2_4 H 0.672144 0.568700 0.338617
O2_6 O 0.750000 0.5774(10) 0.250000
Cu1_4 Cu 0.54786(3) 0.500000 0.28359(3)
O3_4 O 0.7216(2) 0.500000 0.3018(2)
Cl1_4 Cl 0.500000 0.500000 0.33860(8)
Cu2_4 Cu 0.750000 0.500000 0.250000
Cl2_4 Cl 0.56295(4) 0.43705(4) 0.250000
C2_4 C 0.6355(2) 0.500000 0.2915(2)
H3_4 H 0.635158 0.524455 0.273796
C3_4 C 0.6310(4) 0.500000 0.3993(3)
H4_4 H 0.605642 0.499999 0.415690
H5_4 H 0.654340 0.500001 0.418486
C4_4 C 0.5992(2) 0.5370(3) 0.3454(2)
H6_4 H 0.601121 0.561697 0.328108
H7_4 H 0.573041 0.538311 0.360368
N2_4 N 0.63242(19) 0.5375(3) 0.37468(19)
C5_4 C 0.6723(2) 0.4567(3) 0.3550(2)
H8_4 H 0.693922 0.454397 0.375936
H9_4 H 0.672144 0.431300 0.338617
H10_4 H 0.635158 0.475545 0.273796
C6_4 C 0.5992(2) 0.4630(3) 0.3454(2)
H11_4 H 0.601121 0.438303 0.328108
H12_4 H 0.573041 0.461689 0.360368
N3_4 N 0.63242(19) 0.4625(3) 0.37468(19)
P2_4 P 0.31828(8) 0.500000 0.32267(8)
N4_4 N 0.4013(2) 0.500000 0.31813(19)
C7_4 C 0.3277(2) 0.4567(3) 0.3550(2)
H13_4 H 0.306078 0.454397 0.375936
H14_4 H 0.327856 0.431300 0.338617
Cu3_4 Cu 0.45214(3) 0.500000 0.28359(3)
O4_4 O 0.2784(2) 0.500000 0.3018(2)
Cl3_4 Cl 0.43705(4) 0.56295(4) 0.250000
C8_4 C 0.3645(2) 0.500000 0.2915(2)
H15_4 H 0.364842 0.475545 0.273796
C9_4 C 0.3690(4) 0.500000 0.3993(3)
H16_4 H 0.394358 0.500001 0.415690
H17_4 H 0.345660 0.499999 0.418486
C10_4 C 0.4008(2) 0.4630(3) 0.3454(2)
H18_4 H 0.398879 0.438303 0.328108
H19_4 H 0.426959 0.461689 0.360368
N5_4 N 0.36758(19) 0.4625(3) 0.37468(19)
C11_4 C 0.3277(2) 0.5433(3) 0.3550(2)
H20_4 H 0.306078 0.545603 0.375936
H21_4 H 0.327856 0.568700 0.338617
H22_4 H 0.364842 0.524455 0.273796
C12_4 C 0.4008(2) 0.5370(3) 0.3454(2)
H23_4 H 0.398879 0.561697 0.328108
H24_4 H 0.426959 0.538311 0.360368
N6_4 N 0.36758(19) 0.5375(3) 0.37468(19)
P3_4 P 0.500000 0.31828(8) 0.17733(8)
N7_4 N 0.500000 0.4013(2) 0.18187(19)
C13_4 C 0.4567(3) 0.3277(2) 0.1450(2)
H25_4 H 0.454397 0.306078 0.124064
H26_4 H 0.431300 0.327856 0.161383
Cu4_4 Cu 0.500000 0.45214(3) 0.21641(3)
Cl4_4 Cl 0.500000 0.500000 0.16140(8)
C14_4 C 0.500000 0.3645(2) 0.2085(2)
H27_4 H 0.475545 0.364842 0.226204
C15_4 C 0.500000 0.3690(4) 0.1007(3)
H28_4 H 0.500001 0.394358 0.084310
H29_4 H 0.499999 0.345660 0.081514
C16_4 C 0.4630(3) 0.4008(2) 0.1546(2)
H30_4 H 0.438303 0.398879 0.171892
H31_4 H 0.461689 0.426959 0.139632
N8_4 N 0.4625(3) 0.36758(19) 0.12532(19)
C17_4 C 0.5433(3) 0.3277(2) 0.1450(2)
H32_4 H 0.545603 0.306078 0.124064
H33_4 H 0.568700 0.327856 0.161383
H34_4 H 0.524455 0.364842 0.226204
C18_4 C 0.5370(3) 0.4008(2) 0.1546(2)
H35_4 H 0.561697 0.398879 0.171892
H36_4 H 0.538311 0.426959 0.139632
N9_4 N 0.5375(3) 0.36758(19) 0.12532(19)
P4_4 P 0.500000 0.68172(8) 0.17733(8)
N10_4 N 0.500000 0.5987(2) 0.18187(19)
C19_4 C 0.5433(3) 0.6723(2) 0.1450(2)
H37_4 H 0.545603 0.693922 0.124064
H38_4 H 0.568700 0.672144 0.161383
Cu5_4 Cu 0.500000 0.54786(3) 0.21641(3)
C20_4 C 0.500000 0.6355(2) 0.2085(2)
H39_4 H 0.524455 0.635158 0.226204
C21_4 C 0.500000 0.6310(4) 0.1007(3)
H40_4 H 0.499999 0.605642 0.084310
H41_4 H 0.500001 0.654340 0.081514
C22_4 C 0.5370(3) 0.5992(2) 0.1546(2)
H42_4 H 0.561697 0.601121 0.171892
H43_4 H 0.538311 0.573041 0.139632
N11_4 N 0.5375(3) 0.63242(19) 0.12532(19)
C23_4 C 0.4567(3) 0.6723(2) 0.1450(2)
H44_4 H 0.454397 0.693922 0.124064
H45_4 H 0.431300 0.672144 0.161383
H46_4 H 0.475545 0.635158 0.226204
C24_4 C 0.4630(3) 0.5992(2) 0.1546(2)
H47_4 H 0.438303 0.601121 0.171892
H48_4 H 0.461689 0.573041 0.139632
N12_4 N 0.4625(3) 0.63242(19) 0.12532(19)
Cl5_4 Cl 0.43705(4) 0.43705(4) 0.250000
Cl6_4 Cl 0.56295(4) 0.56295(4) 0.250000
O7_6 O 0.750000 0.4226(10) 0.250000
O8_6 O 0.7784(2) 0.500000 0.1982(2)
O9_6 O 0.6982(2) 0.500000 0.2216(2)
O10_6 O 0.8018(2) 0.500000 0.2784(2)
Cu6_4 Cu 0.250000 0.500000 0.250000
O2_7 O 0.250000 0.5774(10) 0.750000
O7_7 O 0.250000 0.4226(10) 0.750000
O8_7 O 0.2216(2) 0.500000 0.8018(2)
O9_7 O 0.3018(2) 0.500000 0.7784(2)
O10_7 O 0.1982(2) 0.500000 0.7216(2)
O2_8 O 0.250000 0.4226(10) 0.250000
O7_8 O 0.250000 0.5774(10) 0.250000
O8_8 O 0.2216(2) 0.500000 0.1982(2)
O9_8 O 0.3018(2) 0.500000 0.2216(2)
O10_8 O 0.1982(2) 0.500000 0.2784(2)
O1_5 O 0.750000 0.500000 0.500000
P1_5 P 0.67733(8) 0.68172(8) 0.500000
N1_5 N 0.68187(19) 0.5987(2) 0.500000
C1_5 C 0.6450(2) 0.6723(2) 0.4567(3)
H1_5 H 0.624064 0.693922 0.454397
H2_5 H 0.661383 0.672144 0.431300
O2_9 O 0.750000 0.750000 0.4226(10)
Cu1_5 Cu 0.71641(3) 0.54786(3) 0.500000
O3_5 O 0.6982(2) 0.7216(2) 0.500000
Cl1_5 Cl 0.66140(8) 0.500000 0.500000
Cl2_5 Cl 0.750000 0.56295(4) 0.56295(4)
C2_5 C 0.7085(2) 0.6355(2) 0.500000
H3_5 H 0.726204 0.635158 0.475545
C3_5 C 0.6007(3) 0.6310(4) 0.500000
H4_5 H 0.584310 0.605642 0.500001
H5_5 H 0.581514 0.654340 0.499999
C4_5 C 0.6546(2) 0.5992(2) 0.4630(3)
H6_5 H 0.671892 0.601121 0.438303
H7_5 H 0.639632 0.573041 0.461689
N2_5 N 0.62532(19) 0.63242(19) 0.4625(3)
C5_5 C 0.6450(2) 0.6723(2) 0.5433(3)
H8_5 H 0.624064 0.693922 0.545603
H9_5 H 0.661383 0.672144 0.568700
H10_5 H 0.726204 0.635158 0.524455
C6_5 C 0.6546(2) 0.5992(2) 0.5370(3)
H11_5 H 0.671892 0.601121 0.561697
H12_5 H 0.639632 0.573041 0.538311
N3_5 N 0.62532(19) 0.63242(19) 0.5375(3)
P2_5 P 0.67733(8) 0.31828(8) 0.500000
N4_5 N 0.68187(19) 0.4013(2) 0.500000
C7_5 C 0.6450(2) 0.3277(2) 0.5433(3)
H13_5 H 0.624064 0.306078 0.545603
H14_5 H 0.661383 0.327856 0.568700
Cu3_5 Cu 0.71641(3) 0.45214(3) 0.500000
O4_5 O 0.6982(2) 0.2784(2) 0.500000
Cl3_5 Cl 0.750000 0.43705(4) 0.43705(4)
C8_5 C 0.7085(2) 0.3645(2) 0.500000
H15_5 H 0.726204 0.364842 0.524455
C9_5 C 0.6007(3) 0.3690(4) 0.500000
H16_5 H 0.584310 0.394358 0.499999
H17_5 H 0.581514 0.345660 0.500001
C10_5 C 0.6546(2) 0.4008(2) 0.5370(3)
H18_5 H 0.671892 0.398879 0.561697
H19_5 H 0.639632 0.426959 0.538311
N5_5 N 0.62532(19) 0.36758(19) 0.5375(3)
C11_5 C 0.6450(2) 0.3277(2) 0.4567(3)
H20_5 H 0.624064 0.306078 0.454397
H21_5 H 0.661383 0.327856 0.431300
H22_5 H 0.726204 0.364842 0.475545
C12_5 C 0.6546(2) 0.4008(2) 0.4630(3)
H23_5 H 0.671892 0.398879 0.438303
H24_5 H 0.639632 0.426959 0.461689
N6_5 N 0.62532(19) 0.36758(19) 0.4625(3)
P3_5 P 0.82267(8) 0.500000 0.68172(8)
N7_5 N 0.81813(19) 0.500000 0.5987(2)
C13_5 C 0.8550(2) 0.4567(3) 0.6723(2)
H25_5 H 0.875936 0.454397 0.693922
H26_5 H 0.838617 0.431300 0.672144
Cu4_5 Cu 0.78359(3) 0.500000 0.54786(3)
Cl4_5 Cl 0.83860(8) 0.500000 0.500000
C14_5 C 0.7915(2) 0.500000 0.6355(2)
H27_5 H 0.773796 0.475545 0.635158
C15_5 C 0.8993(3) 0.500000 0.6310(4)
H28_5 H 0.915690 0.500001 0.605642
H29_5 H 0.918486 0.499999 0.654340
C16_5 C 0.8454(2) 0.4630(3) 0.5992(2)
H30_5 H 0.828108 0.438303 0.601121
H31_5 H 0.860368 0.461689 0.573041
N8_5 N 0.87468(19) 0.4625(3) 0.63242(19)
C17_5 C 0.8550(2) 0.5433(3) 0.6723(2)
H32_5 H 0.875936 0.545603 0.693922
H33_5 H 0.838617 0.568700 0.672144
H34_5 H 0.773796 0.524455 0.635158
C18_5 C 0.8454(2) 0.5370(3) 0.5992(2)
H35_5 H 0.828108 0.561697 0.601121
H36_5 H 0.860368 0.538311 0.573041
N9_5 N 0.87468(19) 0.5375(3) 0.63242(19)
P4_5 P 0.82267(8) 0.500000 0.31828(8)
N10_5 N 0.81813(19) 0.500000 0.4013(2)
C19_5 C 0.8550(2) 0.5433(3) 0.3277(2)
H37_5 H 0.875936 0.545603 0.306078
H38_5 H 0.838617 0.568700 0.327856
Cu5_5 Cu 0.78359(3) 0.500000 0.45214(3)
C20_5 C 0.7915(2) 0.500000 0.3645(2)
H39_5 H 0.773796 0.524455 0.364842
C21_5 C 0.8993(3) 0.500000 0.3690(4)
H40_5 H 0.915690 0.499999 0.394358
H41_5 H 0.918486 0.500001 0.345660
C22_5 C 0.8454(2) 0.5370(3) 0.4008(2)
H42_5 H 0.828108 0.561697 0.398879
H43_5 H 0.860368 0.538311 0.426959
N11_5 N 0.87468(19) 0.5375(3) 0.36758(19)
C23_5 C 0.8550(2) 0.4567(3) 0.3277(2)
H44_5 H 0.875936 0.454397 0.306078
H45_5 H 0.838617 0.431300 0.327856
H46_5 H 0.773796 0.475545 0.364842
C24_5 C 0.8454(2) 0.4630(3) 0.4008(2)
H47_5 H 0.828108 0.438303 0.398879
H48_5 H 0.860368 0.461689 0.426959
N12_5 N 0.87468(19) 0.4625(3) 0.36758(19)
Cl5_5 Cl 0.750000 0.43705(4) 0.56295(4)
Cl6_5 Cl 0.750000 0.56295(4) 0.43705(4)
O7_9 O 0.750000 0.750000 0.5774(10)
O8_9 O 0.8018(2) 0.7784(2) 0.500000
O9_9 O 0.7784(2) 0.6982(2) 0.500000
O1_6 O 0.250000 0.500000 0.500000
P1_6 P 0.32267(8) 0.68172(8) 0.500000
N1_6 N 0.31813(19) 0.5987(2) 0.500000
C1_6 C 0.3550(2) 0.6723(2) 0.5433(3)
H1_6 H 0.375936 0.693922 0.545603
H2_6 H 0.338617 0.672144 0.568700
O2_10 O 0.250000 0.750000 0.5774(10)
Cu1_6 Cu 0.28359(3) 0.54786(3) 0.500000
O3_6 O 0.3018(2) 0.7216(2) 0.500000
Cl1_6 Cl 0.33860(8) 0.500000 0.500000
Cl2_6 Cl 0.250000 0.56295(4) 0.43705(4)
C2_6 C 0.2915(2) 0.6355(2) 0.500000
H3_6 H 0.273796 0.635158 0.524455
C3_6 C 0.3993(3) 0.6310(4) 0.500000
H4_6 H 0.415690 0.605642 0.499999
H5_6 H 0.418486 0.654340 0.500001
C4_6 C 0.3454(2) 0.5992(2) 0.5370(3)
H6_6 H 0.328108 0.601121 0.561697
H7_6 H 0.360368 0.573041 0.538311
N2_6 N 0.37468(19) 0.63242(19) 0.5375(3)
C5_6 C 0.3550(2) 0.6723(2) 0.4567(3)
H8_6 H 0.375936 0.693922 0.454397
H9_6 H 0.338617 0.672144 0.431300
H10_6 H 0.273796 0.635158 0.475545
C6_6 C 0.3454(2) 0.5992(2) 0.4630(3)
H11_6 H 0.328108 0.601121 0.438303
H12_6 H 0.360368 0.573041 0.461689
N3_6 N 0.37468(19) 0.63242(19) 0.4625(3)
P2_6 P 0.32267(8) 0.31828(8) 0.500000
N4_6 N 0.31813(19) 0.4013(2) 0.500000
C7_6 C 0.3550(2) 0.3277(2) 0.4567(3)
H13_6 H 0.375936 0.306078 0.454397
H14_6 H 0.338617 0.327856 0.431300
Cu3_6 Cu 0.28359(3) 0.45214(3) 0.500000
O4_6 O 0.3018(2) 0.2784(2) 0.500000
Cl3_6 Cl 0.250000 0.43705(4) 0.56295(4)
C8_6 C 0.2915(2) 0.3645(2) 0.500000
H15_6 H 0.273796 0.364842 0.475545
C9_6 C 0.3993(3) 0.3690(4) 0.500000
H16_6 H 0.415690 0.394358 0.500001
H17_6 H 0.418486 0.345660 0.499999
C10_6 C 0.3454(2) 0.4008(2) 0.4630(3)
H18_6 H 0.328108 0.398879 0.438303
H19_6 H 0.360368 0.426959 0.461689
N5_6 N 0.37468(19) 0.36758(19) 0.4625(3)
C11_6 C 0.3550(2) 0.3277(2) 0.5433(3)
H20_6 H 0.375936 0.306078 0.545603
H21_6 H 0.338617 0.327856 0.568700
H22_6 H 0.273796 0.364842 0.524455
C12_6 C 0.3454(2) 0.4008(2) 0.5370(3)
H23_6 H 0.328108 0.398879 0.561697
H24_6 H 0.360368 0.426959 0.538311
N6_6 N 0.37468(19) 0.36758(19) 0.5375(3)
P3_6 P 0.17733(8) 0.500000 0.31828(8)
N7_6 N 0.18187(19) 0.500000 0.4013(2)
C13_6 C 0.1450(2) 0.4567(3) 0.3277(2)
H25_6 H 0.124064 0.454397 0.306078
H26_6 H 0.161383 0.431300 0.327856
Cu4_6 Cu 0.21641(3) 0.500000 0.45214(3)
Cl4_6 Cl 0.16140(8) 0.500000 0.500000
C14_6 C 0.2085(2) 0.500000 0.3645(2)
H27_6 H 0.226204 0.475545 0.364842
C15_6 C 0.1007(3) 0.500000 0.3690(4)
H28_6 H 0.084310 0.500001 0.394358
H29_6 H 0.081514 0.499999 0.345660
C16_6 C 0.1546(2) 0.4630(3) 0.4008(2)
H30_6 H 0.171892 0.438303 0.398879
H31_6 H 0.139632 0.461689 0.426959
N8_6 N 0.12532(19) 0.4625(3) 0.36758(19)
C17_6 C 0.1450(2) 0.5433(3) 0.3277(2)
H32_6 H 0.124064 0.545603 0.306078
H33_6 H 0.161383 0.568700 0.327856
H34_6 H 0.226204 0.524455 0.364842
C18_6 C 0.1546(2) 0.5370(3) 0.4008(2)
H35_6 H 0.171892 0.561697 0.398879
H36_6 H 0.139632 0.538311 0.426959
N9_6 N 0.12532(19) 0.5375(3) 0.36758(19)
P4_6 P 0.17733(8) 0.500000 0.68172(8)
N10_6 N 0.18187(19) 0.500000 0.5987(2)
C19_6 C 0.1450(2) 0.5433(3) 0.6723(2)
H37_6 H 0.124064 0.545603 0.693922
H38_6 H 0.161383 0.568700 0.672144
Cu5_6 Cu 0.21641(3) 0.500000 0.54786(3)
C20_6 C 0.2085(2) 0.500000 0.6355(2)
H39_6 H 0.226204 0.524455 0.635158
C21_6 C 0.1007(3) 0.500000 0.6310(4)
H40_6 H 0.084310 0.499999 0.605642
H41_6 H 0.081514 0.500001 0.654340
C22_6 C 0.1546(2) 0.5370(3) 0.5992(2)
H42_6 H 0.171892 0.561697 0.601121
H43_6 H 0.139632 0.538311 0.573041
N11_6 N 0.12532(19) 0.5375(3) 0.63242(19)
C23_6 C 0.1450(2) 0.4567(3) 0.6723(2)
H44_6 H 0.124064 0.454397 0.693922
H45_6 H 0.161383 0.431300 0.672144
H46_6 H 0.226204 0.475545 0.635158
C24_6 C 0.1546(2) 0.4630(3) 0.5992(2)
H47_6 H 0.171892 0.438303 0.601121
H48_6 H 0.139632 0.461689 0.573041
N12_6 N 0.12532(19) 0.4625(3) 0.63242(19)
Cl5_6 Cl 0.250000 0.43705(4) 0.43705(4)
Cl6_6 Cl 0.250000 0.56295(4) 0.56295(4)
O7_10 O 0.250000 0.750000 0.4226(10)
O8_10 O 0.1982(2) 0.7784(2) 0.500000
O9_10 O 0.2216(2) 0.6982(2) 0.500000
O2_11 O 0.750000 0.250000 0.5774(10)
O7_11 O 0.750000 0.250000 0.4226(10)
O8_11 O 0.8018(2) 0.2216(2) 0.500000
O9_11 O 0.7784(2) 0.3018(2) 0.500000
O2_12 O 0.250000 0.250000 0.4226(10)
O7_12 O 0.250000 0.250000 0.5774(10)
O8_12 O 0.1982(2) 0.2216(2) 0.500000
O9_12 O 0.2216(2) 0.3018(2) 0.500000
O1_7 O 0.250000 -0.000000 0.000000
Cl1_7 Cl 0.16140(8) -0.000000 0.000000
P2_7 P 0.17733(8) -0.000000 0.18172(8)
N4_7 N 0.18187(19) -0.000000 0.0987(2)
C7_7 C 0.1450(2) 0.0433(3) 0.1723(2)
H13_7 H 0.124064 0.045603 0.193922
H14_7 H 0.161383 0.068700 0.172144
Cu3_7 Cu 0.21641(3) -0.000000 0.04786(3)
O4_7 O 0.1982(2) -0.000000 0.2216(2)
C8_7 C 0.2085(2) -0.000000 0.1355(2)
H15_7 H 0.226204 0.024455 0.135158
C9_7 C 0.1007(3) -0.000000 0.1310(4)
H16_7 H 0.084310 -0.000001 0.105642
H17_7 H 0.081514 0.000001 0.154340
C10_7 C 0.1546(2) 0.0370(3) 0.0992(2)
H18_7 H 0.171892 0.061697 0.101121
H19_7 H 0.139632 0.038311 0.073041
N5_7 N 0.12532(19) 0.0375(3) 0.13242(19)
P3_7 P 0.32267(8) 0.18172(8) 0.000000
N7_7 N 0.31813(19) 0.0987(2) 0.000000
C13_7 C 0.3550(2) 0.1723(2) 0.0433(3)
H25_7 H 0.375936 0.193922 0.045603
H26_7 H 0.338617 0.172144 0.068700
Cu4_7 Cu 0.28359(3) 0.04786(3) 0.000000
O5_3 O 0.3018(2) 0.2216(2) 0.000000
Cl4_7 Cl 0.33860(8) -0.000000 0.000000
C14_7 C 0.2915(2) 0.1355(2) 0.000000
H27_7 H 0.273796 0.135158 0.024455
C15_7 C 0.3993(3) 0.1310(4) 0.000000
H28_7 H 0.415690 0.105642 -0.000001
H29_7 H 0.418486 0.154340 0.000001
C16_7 C 0.3454(2) 0.0992(2) 0.0370(3)
H30_7 H 0.328108 0.101121 0.061697
H31_7 H 0.360368 0.073041 0.038311
N8_7 N 0.37468(19) 0.13242(19) 0.0375(3)
Cl5_7 Cl 0.250000 0.06295(4) 0.06295(4)
Cu6_5 Cu 0.250000 -0.000000 0.250000
Cu7_3 Cu 0.250000 0.250000 0.000000
O1_8 O 0.250000 -0.000000 1.000000
P1_7 P 0.17733(8) -0.000000 0.81828(8)
N1_7 N 0.18187(19) -0.000000 0.9013(2)
Cu1_7 Cu 0.21641(3) -0.000000 0.95214(3)
O3_7 O 0.1982(2) -0.000000 0.7784(2)
Cl1_8 Cl 0.16140(8) -0.000000 1.000000
Cu2_5 Cu 0.250000 -0.000000 0.750000
Cl2_7 Cl 0.250000 0.06295(4) 0.93705(4)
C2_7 C 0.2085(2) -0.000000 0.8645(2)
C3_7 C 0.1007(3) -0.000000 0.8690(4)
H4_7 H 0.084310 0.000001 0.894358
H5_7 H 0.081514 -0.000001 0.845660
C5_7 C 0.1450(2) 0.0433(3) 0.8277(2)
H8_7 H 0.124064 0.045603 0.806078
H9_7 H 0.161383 0.068700 0.827856
H10_7 H 0.226204 0.024455 0.864842
C6_7 C 0.1546(2) 0.0370(3) 0.9008(2)
H11_7 H 0.171892 0.061697 0.898879
H12_7 H 0.139632 0.038311 0.926959
N3_7 N 0.12532(19) 0.0375(3) 0.86758(19)
P3_8 P 0.32267(8) 0.18172(8) 1.000000
N7_8 N 0.31813(19) 0.0987(2) 1.000000
Cu4_8 Cu 0.28359(3) 0.04786(3) 1.000000
O5_4 O 0.3018(2) 0.2216(2) 1.000000
Cl4_8 Cl 0.33860(8) -0.000000 1.000000
C14_8 C 0.2915(2) 0.1355(2) 1.000000
C15_8 C 0.3993(3) 0.1310(4) 1.000000
H28_8 H 0.415690 0.105642 0.999999
H29_8 H 0.418486 0.154340 1.000001
C17_7 C 0.3550(2) 0.1723(2) 0.9567(3)
H32_7 H 0.375936 0.193922 0.954397
H33_7 H 0.338617 0.172144 0.931300
H34_7 H 0.273796 0.135158 0.975545
C18_7 C 0.3454(2) 0.0992(2) 0.9630(3)
H35_7 H 0.328108 0.101121 0.938303
H36_7 H 0.360368 0.073041 0.961689
N9_7 N 0.37468(19) 0.13242(19) 0.9625(3)
O7_13 O 0.250000 0.0774(10) 0.750000
O8_13 O 0.3018(2) -0.000000 0.7216(2)
O9_13 O 0.2784(2) -0.000000 0.8018(2)
O10_9 O 0.2216(2) -0.000000 0.6982(2)
Cu7_4 Cu 0.250000 0.250000 1.000000
O1_9 O 0.250000 1.000000 0.000000
Cl1_9 Cl 0.16140(8) 1.000000 0.000000
P2_8 P 0.17733(8) 1.000000 0.18172(8)
N4_8 N 0.18187(19) 1.000000 0.0987(2)
Cu3_8 Cu 0.21641(3) 1.000000 0.04786(3)
O4_8 O 0.1982(2) 1.000000 0.2216(2)
Cl3_7 Cl 0.250000 0.93705(4) 0.06295(4)
C8_8 C 0.2085(2) 1.000000 0.1355(2)
C9_8 C 0.1007(3) 1.000000 0.1310(4)
H16_8 H 0.084310 0.999999 0.105642
H17_8 H 0.081514 1.000001 0.154340
C11_7 C 0.1450(2) 0.9567(3) 0.1723(2)
H20_7 H 0.124064 0.954397 0.193922
H21_7 H 0.161383 0.931300 0.172144
H22_7 H 0.226204 0.975545 0.135158
C12_7 C 0.1546(2) 0.9630(3) 0.0992(2)
H23_7 H 0.171892 0.938303 0.101121
H24_7 H 0.139632 0.961689 0.073041
N6_7 N 0.12532(19) 0.9625(3) 0.13242(19)
Cl4_9 Cl 0.33860(8) 1.000000 0.000000
P4_7 P 0.32267(8) 0.81828(8) 0.000000
N10_7 N 0.31813(19) 0.9013(2) 0.000000
Cu5_7 Cu 0.28359(3) 0.95214(3) 0.000000
O6_3 O 0.3018(2) 0.7784(2) 0.000000
C20_7 C 0.2915(2) 0.8645(2) 0.000000
C21_7 C 0.3993(3) 0.8690(4) 0.000000
H40_7 H 0.415690 0.894358 0.000001
H41_7 H 0.418486 0.845660 -0.000001
C23_7 C 0.3550(2) 0.8277(2) 0.0433(3)
H44_7 H 0.375936 0.806078 0.045603
H45_7 H 0.338617 0.827856 0.068700
H46_7 H 0.273796 0.864842 0.024455
C24_7 C 0.3454(2) 0.9008(2) 0.0370(3)
H47_7 H 0.328108 0.898879 0.061697
H48_7 H 0.360368 0.926959 0.038311
N12_7 N 0.37468(19) 0.86758(19) 0.0375(3)
Cu6_6 Cu 0.250000 1.000000 0.250000
Cu8_3 Cu 0.250000 0.750000 0.000000
O1_10 O 0.250000 1.000000 1.000000
P1_8 P 0.17733(8) 1.000000 0.81828(8)
N1_8 N 0.18187(19) 1.000000 0.9013(2)
C1_7 C 0.1450(2) 0.9567(3) 0.8277(2)
H1_7 H 0.124064 0.954397 0.806078
H2_7 H 0.161383 0.931300 0.827856
O2_13 O 0.250000 0.9226(10) 0.750000
Cu1_8 Cu 0.21641(3) 1.000000 0.95214(3)
O3_8 O 0.1982(2) 1.000000 0.7784(2)
Cl1_10 Cl 0.16140(8) 1.000000 1.000000
Cu2_6 Cu 0.250000 1.000000 0.750000
C2_8 C 0.2085(2) 1.000000 0.8645(2)
H3_7 H 0.226204 0.975545 0.864842
C3_8 C 0.1007(3) 1.000000 0.8690(4)
H4_8 H 0.084310 1.000001 0.894358
H5_8 H 0.081514 0.999999 0.845660
C4_7 C 0.1546(2) 0.9630(3) 0.9008(2)
H6_7 H 0.171892 0.938303 0.898879
H7_7 H 0.139632 0.961689 0.926959
N2_7 N 0.12532(19) 0.9625(3) 0.86758(19)
Cl4_10 Cl 0.33860(8) 1.000000 1.000000
P4_8 P 0.32267(8) 0.81828(8) 1.000000
N10_8 N 0.31813(19) 0.9013(2) 1.000000
C19_7 C 0.3550(2) 0.8277(2) 0.9567(3)
H37_7 H 0.375936 0.806078 0.954397
H38_7 H 0.338617 0.827856 0.931300
Cu5_8 Cu 0.28359(3) 0.95214(3) 1.000000
O6_4 O 0.3018(2) 0.7784(2) 1.000000
C20_8 C 0.2915(2) 0.8645(2) 1.000000
H39_7 H 0.273796 0.864842 0.975545
C21_8 C 0.3993(3) 0.8690(4) 1.000000
H40_8 H 0.415690 0.894358 1.000001
H41_8 H 0.418486 0.845660 0.999999
C22_7 C 0.3454(2) 0.9008(2) 0.9630(3)
H42_7 H 0.328108 0.898879 0.938303
H43_7 H 0.360368 0.926959 0.961689
N11_7 N 0.37468(19) 0.86758(19) 0.9625(3)
Cl6_7 Cl 0.250000 0.93705(4) 0.93705(4)
O8_14 O 0.3018(2) 1.000000 0.7216(2)
O9_14 O 0.2784(2) 1.000000 0.8018(2)
O10_10 O 0.2216(2) 1.000000 0.6982(2)
Cu8_4 Cu 0.250000 0.750000 1.000000
O1_11 O 0.750000 0.000000 0.000000
Cl1_11 Cl 0.83860(8) 0.000000 0.000000
P2_9 P 0.82267(8) 0.000000 0.18172(8)
N4_9 N 0.81813(19) 0.000000 0.0987(2)
Cu3_9 Cu 0.78359(3) 0.000000 0.04786(3)
O4_9 O 0.8018(2) 0.000000 0.2216(2)
Cl3_8 Cl 0.750000 0.06295(4) 0.06295(4)
C8_9 C 0.7915(2) 0.000000 0.1355(2)
C9_9 C 0.8993(3) 0.000000 0.1310(4)
H16_9 H 0.915690 0.000001 0.105642
H17_9 H 0.918486 -0.000001 0.154340
C11_8 C 0.8550(2) 0.0433(3) 0.1723(2)
H20_8 H 0.875936 0.045603 0.193922
H21_8 H 0.838617 0.068700 0.172144
H22_8 H 0.773796 0.024455 0.135158
C12_8 C 0.8454(2) 0.0370(3) 0.0992(2)
H23_8 H 0.828108 0.061697 0.101121
H24_8 H 0.860368 0.038311 0.073041
N6_8 N 0.87468(19) 0.0375(3) 0.13242(19)
Cl4_11 Cl 0.66140(8) 0.000000 0.000000
P4_9 P 0.67733(8) 0.18172(8) 0.000000
N10_9 N 0.68187(19) 0.0987(2) 0.000000
Cu5_9 Cu 0.71641(3) 0.04786(3) 0.000000
O6_5 O 0.6982(2) 0.2216(2) 0.000000
C20_9 C 0.7085(2) 0.1355(2) 0.000000
C21_9 C 0.6007(3) 0.1310(4) 0.000000
H40_9 H 0.584310 0.105642 0.000001
H41_9 H 0.581514 0.154340 -0.000001
C23_8 C 0.6450(2) 0.1723(2) 0.0433(3)
H44_8 H 0.624064 0.193922 0.045603
H45_8 H 0.661383 0.172144 0.068700
H46_8 H 0.726204 0.135158 0.024455
C24_8 C 0.6546(2) 0.0992(2) 0.0370(3)
H47_8 H 0.671892 0.101121 0.061697
H48_8 H 0.639632 0.073041 0.038311
N12_8 N 0.62532(19) 0.13242(19) 0.0375(3)
Cu6_7 Cu 0.750000 0.000000 0.250000
Cu8_5 Cu 0.750000 0.250000 0.000000
O1_12 O 0.750000 0.000000 1.000000
P1_9 P 0.82267(8) 0.000000 0.81828(8)
N1_9 N 0.81813(19) 0.000000 0.9013(2)
C1_8 C 0.8550(2) 0.0433(3) 0.8277(2)
H1_8 H 0.875936 0.045603 0.806078
H2_8 H 0.838617 0.068700 0.827856
O2_14 O 0.750000 0.0774(10) 0.750000
Cu1_9 Cu 0.78359(3) 0.000000 0.95214(3)
O3_9 O 0.8018(2) 0.000000 0.7784(2)
Cl1_12 Cl 0.83860(8) 0.000000 1.000000
Cu2_7 Cu 0.750000 0.000000 0.750000
C2_9 C 0.7915(2) 0.000000 0.8645(2)
H3_8 H 0.773796 0.024455 0.864842
C3_9 C 0.8993(3) 0.000000 0.8690(4)
H4_9 H 0.915690 -0.000001 0.894358
H5_9 H 0.918486 0.000001 0.845660
C4_8 C 0.8454(2) 0.0370(3) 0.9008(2)
H6_8 H 0.828108 0.061697 0.898879
H7_8 H 0.860368 0.038311 0.926959
N2_8 N 0.87468(19) 0.0375(3) 0.86758(19)
Cl4_12 Cl 0.66140(8) 0.000000 1.000000
P4_10 P 0.67733(8) 0.18172(8) 1.000000
N10_10 N 0.68187(19) 0.0987(2) 1.000000
C19_8 C 0.6450(2) 0.1723(2) 0.9567(3)
H37_8 H 0.624064 0.193922 0.954397
H38_8 H 0.661383 0.172144 0.931300
Cu5_10 Cu 0.71641(3) 0.04786(3) 1.000000
O6_6 O 0.6982(2) 0.2216(2) 1.000000
C20_10 C 0.7085(2) 0.1355(2) 1.000000
H39_8 H 0.726204 0.135158 0.975545
C21_10 C 0.6007(3) 0.1310(4) 1.000000
H40_10 H 0.584310 0.105642 1.000001
H41_10 H 0.581514 0.154340 0.999999
C22_8 C 0.6546(2) 0.0992(2) 0.9630(3)
H42_8 H 0.671892 0.101121 0.938303
H43_8 H 0.639632 0.073041 0.961689
N11_8 N 0.62532(19) 0.13242(19) 0.9625(3)
Cl6_8 Cl 0.750000 0.06295(4) 0.93705(4)
O8_15 O 0.6982(2) 0.000000 0.7216(2)
O9_15 O 0.7216(2) 0.000000 0.8018(2)
O10_11 O 0.7784(2) 0.000000 0.6982(2)
Cu8_6 Cu 0.750000 0.250000 1.000000
O1_13 O 0.750000 1.000000 0.000000
Cl1_13 Cl 0.83860(8) 1.000000 0.000000
P2_10 P 0.82267(8) 1.000000 0.18172(8)
N4_10 N 0.81813(19) 1.000000 0.0987(2)
C7_8 C 0.8550(2) 0.9567(3) 0.1723(2)
H13_8 H 0.875936 0.954397 0.193922
H14_8 H 0.838617 0.931300 0.172144
Cu3_10 Cu 0.78359(3) 1.000000 0.04786(3)
O4_10 O 0.8018(2) 1.000000 0.2216(2)
C8_10 C 0.7915(2) 1.000000 0.1355(2)
H15_8 H 0.773796 0.975545 0.135158
C9_10 C 0.8993(3) 1.000000 0.1310(4)
H16_10 H 0.915690 1.000001 0.105642
H17_10 H 0.918486 0.999999 0.154340
C10_8 C 0.8454(2) 0.9630(3) 0.0992(2)
H18_8 H 0.828108 0.938303 0.101121
H19_8 H 0.860368 0.961689 0.073041
N5_8 N 0.87468(19) 0.9625(3) 0.13242(19)
P3_9 P 0.67733(8) 0.81828(8) 0.000000
N7_9 N 0.68187(19) 0.9013(2) 0.000000
C13_8 C 0.6450(2) 0.8277(2) 0.0433(3)
H25_8 H 0.624064 0.806078 0.045603
H26_8 H 0.661383 0.827856 0.068700
Cu4_9 Cu 0.71641(3) 0.95214(3) 0.000000
O5_5 O 0.6982(2) 0.7784(2) 0.000000
Cl4_13 Cl 0.66140(8) 1.000000 0.000000
C14_9 C 0.7085(2) 0.8645(2) 0.000000
H27_8 H 0.726204 0.864842 0.024455
C15_9 C 0.6007(3) 0.8690(4) 0.000000
H28_9 H 0.584310 0.894358 -0.000001
H29_9 H 0.581514 0.845660 0.000001
C16_8 C 0.6546(2) 0.9008(2) 0.0370(3)
H30_8 H 0.671892 0.898879 0.061697
H31_8 H 0.639632 0.926959 0.038311
N8_8 N 0.62532(19) 0.86758(19) 0.0375(3)
Cl5_8 Cl 0.750000 0.93705(4) 0.06295(4)
Cu6_8 Cu 0.750000 1.000000 0.250000
Cu7_5 Cu 0.750000 0.750000 0.000000
O1_14 O 0.750000 1.000000 1.000000
P1_10 P 0.82267(8) 1.000000 0.81828(8)
N1_10 N 0.81813(19) 1.000000 0.9013(2)
Cu1_10 Cu 0.78359(3) 1.000000 0.95214(3)
O3_10 O 0.8018(2) 1.000000 0.7784(2)
Cl1_14 Cl 0.83860(8) 1.000000 1.000000
Cu2_8 Cu 0.750000 1.000000 0.750000
Cl2_8 Cl 0.750000 0.93705(4) 0.93705(4)
C2_10 C 0.7915(2) 1.000000 0.8645(2)
C3_10 C 0.8993(3) 1.000000 0.8690(4)
H4_10 H 0.915690 0.999999 0.894358
H5_10 H 0.918486 1.000001 0.845660
C5_8 C 0.8550(2) 0.9567(3) 0.8277(2)
H8_8 H 0.875936 0.954397 0.806078
H9_8 H 0.838617 0.931300 0.827856
H10_8 H 0.773796 0.975545 0.864842
C6_8 C 0.8454(2) 0.9630(3) 0.9008(2)
H11_8 H 0.828108 0.938303 0.898879
H12_8 H 0.860368 0.961689 0.926959
N3_8 N 0.87468(19) 0.9625(3) 0.86758(19)
P3_10 P 0.67733(8) 0.81828(8) 1.000000
N7_10 N 0.68187(19) 0.9013(2) 1.000000
Cu4_10 Cu 0.71641(3) 0.95214(3) 1.000000
O5_6 O 0.6982(2) 0.7784(2) 1.000000
Cl4_14 Cl 0.66140(8) 1.000000 1.000000
C14_10 C 0.7085(2) 0.8645(2) 1.000000
C15_10 C 0.6007(3) 0.8690(4) 1.000000
H28_10 H 0.584310 0.894358 0.999999
H29_10 H 0.581514 0.845660 1.000001
C17_8 C 0.6450(2) 0.8277(2) 0.9567(3)
H32_8 H 0.624064 0.806078 0.954397
H33_8 H 0.661383 0.827856 0.931300
H34_8 H 0.726204 0.864842 0.975545
C18_8 C 0.6546(2) 0.9008(2) 0.9630(3)
H35_8 H 0.671892 0.898879 0.938303
H36_8 H 0.639632 0.926959 0.961689
N9_8 N 0.62532(19) 0.86758(19) 0.9625(3)
O7_14 O 0.750000 0.9226(10) 0.750000
O8_16 O 0.6982(2) 1.000000 0.7216(2)
O9_16 O 0.7216(2) 1.000000 0.8018(2)
O10_12 O 0.7784(2) 1.000000 0.6982(2)
Cu7_6 Cu 0.750000 0.750000 1.000000
O2_15 O 0.250000 0.0774(10) 0.250000
O8_17 O 0.3018(2) 0.000000 0.2784(2)
O9_17 O 0.2784(2) 0.000000 0.1982(2)
O10_13 O 0.2216(2) 0.000000 0.3018(2)
O7_15 O 0.250000 0.9226(10) 0.250000
O8_18 O 0.3018(2) 1.000000 0.2784(2)
O9_18 O 0.2784(2) 1.000000 0.1982(2)
O10_14 O 0.2216(2) 1.000000 0.3018(2)
O7_16 O 0.750000 0.0774(10) 0.250000
O8_19 O 0.6982(2) -0.000000 0.2784(2)
O9_19 O 0.7216(2) -0.000000 0.1982(2)
O10_15 O 0.7784(2) -0.000000 0.3018(2)
O2_16 O 0.750000 0.9226(10) 0.250000
O8_20 O 0.6982(2) 1.000000 0.2784(2)
O9_20 O 0.7216(2) 1.000000 0.1982(2)
O10_16 O 0.7784(2) 1.000000 0.3018(2)
O1_15 O -0.000000 0.000000 0.750000
P1_11 P -0.000000 0.18172(8) 0.82267(8)
N1_11 N -0.000000 0.0987(2) 0.81813(19)
Cu1_11 Cu -0.000000 0.04786(3) 0.78359(3)
O3_11 O -0.000000 0.2216(2) 0.8018(2)
Cl1_15 Cl -0.000000 0.000000 0.83860(8)
Cu2_9 Cu -0.000000 0.250000 0.750000
Cl2_9 Cl 0.06295(4) 0.06295(4) 0.750000
C2_11 C -0.000000 0.1355(2) 0.7915(2)
C3_11 C -0.000000 0.1310(4) 0.8993(3)
H4_11 H 0.000001 0.105642 0.915690
H5_11 H -0.000001 0.154340 0.918486
C5_9 C 0.0433(3) 0.1723(2) 0.8550(2)
H8_9 H 0.045603 0.193922 0.875936
H9_9 H 0.068700 0.172144 0.838617
H10_9 H 0.024455 0.135158 0.773796
C6_9 C 0.0370(3) 0.0992(2) 0.8454(2)
H11_9 H 0.061697 0.101121 0.828108
H12_9 H 0.038311 0.073041 0.860368
N3_9 N 0.0375(3) 0.13242(19) 0.87468(19)
P3_11 P 0.18172(8) 0.000000 0.67733(8)
N7_11 N 0.0987(2) -0.000000 0.68187(19)
Cu4_11 Cu 0.04786(3) 0.000000 0.71641(3)
Cl4_15 Cl -0.000000 0.000000 0.66140(8)
C14_11 C 0.1355(2) 0.000000 0.7085(2)
C15_11 C 0.1310(4) 0.000000 0.6007(3)
H28_11 H 0.105642 0.000001 0.584310
H29_11 H 0.154340 -0.000001 0.581514
C17_9 C 0.1723(2) 0.0433(3) 0.6450(2)
H32_9 H 0.193922 0.045603 0.624064
H33_9 H 0.172144 0.068700 0.661383
H34_9 H 0.135158 0.024455 0.726204
C18_9 C 0.0992(2) 0.0370(3) 0.6546(2)
H35_9 H 0.101121 0.061697 0.671892
H36_9 H 0.073041 0.038311 0.639632
N9_9 N 0.13242(19) 0.0375(3) 0.62532(19)
O7_17 O 0.0774(10) 0.250000 0.750000
O8_21 O -0.000000 0.2784(2) 0.6982(2)
O9_21 O -0.000000 0.1982(2) 0.7216(2)
O10_17 O -0.000000 0.3018(2) 0.7784(2)
O1_16 O -0.000000 1.000000 0.750000
Cl1_16 Cl -0.000000 1.000000 0.83860(8)
P2_11 P -0.000000 0.81828(8) 0.82267(8)
N4_11 N -0.000000 0.9013(2) 0.81813(19)
C7_9 C 0.0433(3) 0.8277(2) 0.8550(2)
H13_9 H 0.045603 0.806078 0.875936
H14_9 H 0.068700 0.827856 0.838617
Cu3_11 Cu -0.000000 0.95214(3) 0.78359(3)
O4_11 O -0.000000 0.7784(2) 0.8018(2)
C8_11 C -0.000000 0.8645(2) 0.7915(2)
H15_9 H 0.024455 0.864842 0.773796
C9_11 C -0.000000 0.8690(4) 0.8993(3)
H16_11 H -0.000001 0.894358 0.915690
H17_11 H 0.000001 0.845660 0.918486
C10_9 C 0.0370(3) 0.9008(2) 0.8454(2)
H18_9 H 0.061697 0.898879 0.828108
H19_9 H 0.038311 0.926959 0.860368
N5_9 N 0.0375(3) 0.86758(19) 0.87468(19)
P3_12 P 0.18172(8) 1.000000 0.67733(8)
N7_12 N 0.0987(2) 1.000000 0.68187(19)
C13_9 C 0.1723(2) 0.9567(3) 0.6450(2)
H25_9 H 0.193922 0.954397 0.624064
H26_9 H 0.172144 0.931300 0.661383
Cu4_12 Cu 0.04786(3) 1.000000 0.71641(3)
Cl4_16 Cl -0.000000 1.000000 0.66140(8)
C14_12 C 0.1355(2) 1.000000 0.7085(2)
H27_9 H 0.135158 0.975545 0.726204
C15_12 C 0.1310(4) 1.000000 0.6007(3)
H28_12 H 0.105642 1.000001 0.584310
H29_12 H 0.154340 0.999999 0.581514
C16_9 C 0.0992(2) 0.9630(3) 0.6546(2)
H30_9 H 0.101121 0.938303 0.671892
H31_9 H 0.073041 0.961689 0.639632
N8_9 N 0.13242(19) 0.9625(3) 0.62532(19)
Cl5_9 Cl 0.06295(4) 0.93705(4) 0.750000
Cu6_9 Cu -0.000000 0.750000 0.750000
O1_17 O 1.000000 0.000000 0.750000
P1_12 P 1.000000 0.18172(8) 0.82267(8)
N1_12 N 1.000000 0.0987(2) 0.81813(19)
C1_9 C 0.9567(3) 0.1723(2) 0.8550(2)
H1_9 H 0.954397 0.193922 0.875936
H2_9 H 0.931300 0.172144 0.838617
O2_17 O 0.9226(10) 0.250000 0.750000
Cu1_12 Cu 1.000000 0.04786(3) 0.78359(3)
O3_12 O 1.000000 0.2216(2) 0.8018(2)
Cl1_17 Cl 1.000000 0.000000 0.83860(8)
Cu2_10 Cu 1.000000 0.250000 0.750000
C2_12 C 1.000000 0.1355(2) 0.7915(2)
H3_9 H 0.975545 0.135158 0.773796
C3_12 C 1.000000 0.1310(4) 0.8993(3)
H4_12 H 1.000001 0.105642 0.915690
H5_12 H 0.999999 0.154340 0.918486
C4_9 C 0.9630(3) 0.0992(2) 0.8454(2)
H6_9 H 0.938303 0.101121 0.828108
H7_9 H 0.961689 0.073041 0.860368
N2_9 N 0.9625(3) 0.13242(19) 0.87468(19)
Cl4_17 Cl 1.000000 0.000000 0.66140(8)
P4_11 P 0.81828(8) 0.000000 0.67733(8)
N10_11 N 0.9013(2) -0.000000 0.68187(19)
C19_9 C 0.8277(2) 0.0433(3) 0.6450(2)
H37_9 H 0.806078 0.045603 0.624064
H38_9 H 0.827856 0.068700 0.661383
Cu5_11 Cu 0.95214(3) 0.000000 0.71641(3)
C20_11 C 0.8645(2) 0.000000 0.7085(2)
H39_9 H 0.864842 0.024455 0.726204
C21_11 C 0.8690(4) 0.000000 0.6007(3)
H40_11 H 0.894358 -0.000001 0.584310
H41_11 H 0.845660 0.000001 0.581514
C22_9 C 0.9008(2) 0.0370(3) 0.6546(2)
H42_9 H 0.898879 0.061697 0.671892
H43_9 H 0.926959 0.038311 0.639632
N11_9 N 0.86758(19) 0.0375(3) 0.62532(19)
Cl6_9 Cl 0.93705(4) 0.06295(4) 0.750000
O8_22 O 1.000000 0.2784(2) 0.6982(2)
O9_22 O 1.000000 0.1982(2) 0.7216(2)
O10_18 O 1.000000 0.3018(2) 0.7784(2)
O1_18 O 1.000000 1.000000 0.750000
Cl1_18 Cl 1.000000 1.000000 0.83860(8)
P2_12 P 1.000000 0.81828(8) 0.82267(8)
N4_12 N 1.000000 0.9013(2) 0.81813(19)
Cu3_12 Cu 1.000000 0.95214(3) 0.78359(3)
O4_12 O 1.000000 0.7784(2) 0.8018(2)
Cl3_9 Cl 0.93705(4) 0.93705(4) 0.750000
C8_12 C 1.000000 0.8645(2) 0.7915(2)
C9_12 C 1.000000 0.8690(4) 0.8993(3)
H16_12 H 0.999999 0.894358 0.915690
H17_12 H 1.000001 0.845660 0.918486
C11_9 C 0.9567(3) 0.8277(2) 0.8550(2)
H20_9 H 0.954397 0.806078 0.875936
H21_9 H 0.931300 0.827856 0.838617
H22_9 H 0.975545 0.864842 0.773796
C12_9 C 0.9630(3) 0.9008(2) 0.8454(2)
H23_9 H 0.938303 0.898879 0.828108
H24_9 H 0.961689 0.926959 0.860368
N6_9 N 0.9625(3) 0.86758(19) 0.87468(19)
Cl4_18 Cl 1.000000 1.000000 0.66140(8)
P4_12 P 0.81828(8) 1.000000 0.67733(8)
N10_12 N 0.9013(2) 1.000000 0.68187(19)
Cu5_12 Cu 0.95214(3) 1.000000 0.71641(3)
C20_12 C 0.8645(2) 1.000000 0.7085(2)
C21_12 C 0.8690(4) 1.000000 0.6007(3)
H40_12 H 0.894358 0.999999 0.584310
H41_12 H 0.845660 1.000001 0.581514
C23_9 C 0.8277(2) 0.9567(3) 0.6450(2)
H44_9 H 0.806078 0.954397 0.624064
H45_9 H 0.827856 0.931300 0.661383
H46_9 H 0.864842 0.975545 0.726204
C24_9 C 0.9008(2) 0.9630(3) 0.6546(2)
H47_9 H 0.898879 0.938303 0.671892
H48_9 H 0.926959 0.961689 0.639632
N12_9 N 0.86758(19) 0.9625(3) 0.62532(19)
Cu6_10 Cu 1.000000 0.750000 0.750000
O1_19 O 0.000000 0.000000 0.250000
P1_13 P 0.000000 0.18172(8) 0.17733(8)
N1_13 N 0.000000 0.0987(2) 0.18187(19)
C1_10 C 0.0433(3) 0.1723(2) 0.1450(2)
H1_10 H 0.045603 0.193922 0.124064
H2_10 H 0.068700 0.172144 0.161383
O2_18 O 0.0774(10) 0.250000 0.250000
Cu1_13 Cu 0.000000 0.04786(3) 0.21641(3)
O3_13 O 0.000000 0.2216(2) 0.1982(2)
Cl1_19 Cl 0.000000 -0.000000 0.16140(8)
Cu2_11 Cu 0.000000 0.250000 0.250000
C2_13 C 0.000000 0.1355(2) 0.2085(2)
H3_10 H 0.024455 0.135158 0.226204
C3_13 C 0.000000 0.1310(4) 0.1007(3)
H4_13 H -0.000001 0.105642 0.084310
H5_13 H 0.000001 0.154340 0.081514
C4_10 C 0.0370(3) 0.0992(2) 0.1546(2)
H6_10 H 0.061697 0.101121 0.171892
H7_10 H 0.038311 0.073041 0.139632
N2_10 N 0.0375(3) 0.13242(19) 0.12532(19)
Cl4_19 Cl 0.000000 0.000000 0.33860(8)
P4_13 P 0.18172(8) 0.000000 0.32267(8)
N10_13 N 0.0987(2) 0.000000 0.31813(19)
C19_10 C 0.1723(2) 0.0433(3) 0.3550(2)
H37_10 H 0.193922 0.045603 0.375936
H38_10 H 0.172144 0.068700 0.338617
Cu5_13 Cu 0.04786(3) 0.000000 0.28359(3)
C20_13 C 0.1355(2) 0.000000 0.2915(2)
H39_10 H 0.135158 0.024455 0.273796
C21_13 C 0.1310(4) 0.000000 0.3993(3)
H40_13 H 0.105642 -0.000001 0.415690
H41_13 H 0.154340 0.000001 0.418486
C22_10 C 0.0992(2) 0.0370(3) 0.3454(2)
H42_10 H 0.101121 0.061697 0.328108
H43_10 H 0.073041 0.038311 0.360368
N11_10 N 0.13242(19) 0.0375(3) 0.37468(19)
Cl6_10 Cl 0.06295(4) 0.06295(4) 0.250000
O8_23 O 0.000000 0.2784(2) 0.3018(2)
O9_23 O 0.000000 0.1982(2) 0.2784(2)
O10_19 O 0.000000 0.3018(2) 0.2216(2)
O1_20 O 0.000000 1.000000 0.250000
Cl1_20 Cl 0.000000 1.000000 0.16140(8)
P2_13 P 0.000000 0.81828(8) 0.17733(8)
N4_13 N 0.000000 0.9013(2) 0.18187(19)
Cu3_13 Cu 0.000000 0.95214(3) 0.21641(3)
O4_13 O 0.000000 0.7784(2) 0.1982(2)
Cl3_10 Cl 0.06295(4) 0.93705(4) 0.250000
C8_13 C 0.000000 0.8645(2) 0.2085(2)
C9_13 C 0.000000 0.8690(4) 0.1007(3)
H16_13 H 0.000001 0.894358 0.084310
H17_13 H -0.000001 0.845660 0.081514
C11_10 C 0.0433(3) 0.8277(2) 0.1450(2)
H20_10 H 0.045603 0.806078 0.124064
H21_10 H 0.068700 0.827856 0.161383
H22_10 H 0.024455 0.864842 0.226204
C12_10 C 0.0370(3) 0.9008(2) 0.1546(2)
H23_10 H 0.061697 0.898879 0.171892
H24_10 H 0.038311 0.926959 0.139632
N6_10 N 0.0375(3) 0.86758(19) 0.12532(19)
Cl4_20 Cl 0.000000 1.000000 0.33860(8)
P4_14 P 0.18172(8) 1.000000 0.32267(8)
N10_14 N 0.0987(2) 1.000000 0.31813(19)
Cu5_14 Cu 0.04786(3) 1.000000 0.28359(3)
C20_14 C 0.1355(2) 1.000000 0.2915(2)
C21_14 C 0.1310(4) 1.000000 0.3993(3)
H40_14 H 0.105642 0.999999 0.415690
H41_14 H 0.154340 1.000001 0.418486
C23_10 C 0.1723(2) 0.9567(3) 0.3550(2)
H44_10 H 0.193922 0.954397 0.375936
H45_10 H 0.172144 0.931300 0.338617
H46_10 H 0.135158 0.975545 0.273796
C24_10 C 0.0992(2) 0.9630(3) 0.3454(2)
H47_10 H 0.101121 0.938303 0.328108
H48_10 H 0.073041 0.961689 0.360368
N12_10 N 0.13242(19) 0.9625(3) 0.37468(19)
Cu6_11 Cu 0.000000 0.750000 0.250000
O1_21 O 1.000000 0.000000 0.250000
P1_14 P 1.000000 0.18172(8) 0.17733(8)
N1_14 N 1.000000 0.0987(2) 0.18187(19)
Cu1_14 Cu 1.000000 0.04786(3) 0.21641(3)
O3_14 O 1.000000 0.2216(2) 0.1982(2)
Cl1_21 Cl 1.000000 -0.000000 0.16140(8)
Cu2_12 Cu 1.000000 0.250000 0.250000
Cl2_10 Cl 0.93705(4) 0.06295(4) 0.250000
C2_14 C 1.000000 0.1355(2) 0.2085(2)
C3_14 C 1.000000 0.1310(4) 0.1007(3)
H4_14 H 0.999999 0.105642 0.084310
H5_14 H 1.000001 0.154340 0.081514
C5_10 C 0.9567(3) 0.1723(2) 0.1450(2)
H8_10 H 0.954397 0.193922 0.124064
H9_10 H 0.931300 0.172144 0.161383
H10_10 H 0.975545 0.135158 0.226204
C6_10 C 0.9630(3) 0.0992(2) 0.1546(2)
H11_10 H 0.938303 0.101121 0.171892
H12_10 H 0.961689 0.073041 0.139632
N3_10 N 0.9625(3) 0.13242(19) 0.12532(19)
P3_13 P 0.81828(8) 0.000000 0.32267(8)
N7_13 N 0.9013(2) 0.000000 0.31813(19)
Cu4_13 Cu 0.95214(3) 0.000000 0.28359(3)
Cl4_21 Cl 1.000000 0.000000 0.33860(8)
C14_13 C 0.8645(2) 0.000000 0.2915(2)
C15_13 C 0.8690(4) 0.000000 0.3993(3)
H28_13 H 0.894358 0.000001 0.415690
H29_13 H 0.845660 -0.000001 0.418486
C17_10 C 0.8277(2) 0.0433(3) 0.3550(2)
H32_10 H 0.806078 0.045603 0.375936
H33_10 H 0.827856 0.068700 0.338617
H34_10 H 0.864842 0.024455 0.273796
C18_10 C 0.9008(2) 0.0370(3) 0.3454(2)
H35_10 H 0.898879 0.061697 0.328108
H36_10 H 0.926959 0.038311 0.360368
N9_10 N 0.86758(19) 0.0375(3) 0.37468(19)
O7_18 O 0.9226(10) 0.250000 0.250000
O8_24 O 1.000000 0.2784(2) 0.3018(2)
O9_24 O 1.000000 0.1982(2) 0.2784(2)
O10_20 O 1.000000 0.3018(2) 0.2216(2)
O1_22 O 1.000000 1.000000 0.250000
Cl1_22 Cl 1.000000 1.000000 0.16140(8)
P2_14 P 1.000000 0.81828(8) 0.17733(8)
N4_14 N 1.000000 0.9013(2) 0.18187(19)
C7_10 C 0.9567(3) 0.8277(2) 0.1450(2)
H13_10 H 0.954397 0.806078 0.124064
H14_10 H 0.931300 0.827856 0.161383
Cu3_14 Cu 1.000000 0.95214(3) 0.21641(3)
O4_14 O 1.000000 0.7784(2) 0.1982(2)
C8_14 C 1.000000 0.8645(2) 0.2085(2)
H15_10 H 0.975545 0.864842 0.226204
C9_14 C 1.000000 0.8690(4) 0.1007(3)
H16_14 H 1.000001 0.894358 0.084310
H17_14 H 0.999999 0.845660 0.081514
C10_10 C 0.9630(3) 0.9008(2) 0.1546(2)
H18_10 H 0.938303 0.898879 0.171892
H19_10 H 0.961689 0.926959 0.139632
N5_10 N 0.9625(3) 0.86758(19) 0.12532(19)
P3_14 P 0.81828(8) 1.000000 0.32267(8)
N7_14 N 0.9013(2) 1.000000 0.31813(19)
C13_10 C 0.8277(2) 0.9567(3) 0.3550(2)
H25_10 H 0.806078 0.954397 0.375936
H26_10 H 0.827856 0.931300 0.338617
Cu4_14 Cu 0.95214(3) 1.000000 0.28359(3)
Cl4_22 Cl 1.000000 1.000000 0.33860(8)
C14_14 C 0.8645(2) 1.000000 0.2915(2)
H27_10 H 0.864842 0.975545 0.273796
C15_14 C 0.8690(4) 1.000000 0.3993(3)
H28_14 H 0.894358 1.000001 0.415690
H29_14 H 0.845660 0.999999 0.418486
C16_10 C 0.9008(2) 0.9630(3) 0.3454(2)
H30_10 H 0.898879 0.938303 0.328108
H31_10 H 0.926959 0.961689 0.360368
N8_10 N 0.86758(19) 0.9625(3) 0.37468(19)
Cl5_10 Cl 0.93705(4) 0.93705(4) 0.250000
Cu6_12 Cu 1.000000 0.750000 0.250000
O2_19 O 0.0774(10) 0.750000 0.750000
O8_25 O 0.000000 0.7216(2) 0.6982(2)
O9_25 O 0.000000 0.8018(2) 0.7216(2)
O10_21 O 0.000000 0.6982(2) 0.7784(2)
O7_19 O 0.9226(10) 0.750000 0.750000
O8_26 O 1.000000 0.7216(2) 0.6982(2)
O9_26 O 1.000000 0.8018(2) 0.7216(2)
O10_22 O 1.000000 0.6982(2) 0.7784(2)
O7_20 O 0.0774(10) 0.750000 0.250000
O8_27 O -0.000000 0.7216(2) 0.3018(2)
O9_27 O -0.000000 0.8018(2) 0.2784(2)
O10_23 O -0.000000 0.6982(2) 0.2216(2)
O2_20 O 0.9226(10) 0.750000 0.250000
O8_28 O 1.000000 0.7216(2) 0.3018(2)
O9_28 O 1.000000 0.8018(2) 0.2784(2)
O10_24 O 1.000000 0.6982(2) 0.2216(2)
O1_23 O 0.000000 0.250000 0.000000
P1_15 P 0.18172(8) 0.17733(8) 0.000000
N1_15 N 0.0987(2) 0.18187(19) 0.000000
C1_11 C 0.1723(2) 0.1450(2) 0.0433(3)
H1_11 H 0.193922 0.124064 0.045603
H2_11 H 0.172144 0.161383 0.068700
O2_21 O 0.250000 0.250000 0.0774(10)
Cu1_15 Cu 0.04786(3) 0.21641(3) 0.000000
O3_15 O 0.2216(2) 0.1982(2) 0.000000
Cl1_23 Cl -0.000000 0.16140(8) 0.000000
C2_15 C 0.1355(2) 0.2085(2) 0.000000
H3_11 H 0.135158 0.226204 0.024455
C3_15 C 0.1310(4) 0.1007(3) 0.000000
H4_15 H 0.105642 0.084310 -0.000001
H5_15 H 0.154340 0.081514 0.000001
C4_11 C 0.0992(2) 0.1546(2) 0.0370(3)
H6_11 H 0.101121 0.171892 0.061697
H7_11 H 0.073041 0.139632 0.038311
N2_11 N 0.13242(19) 0.12532(19) 0.0375(3)
Cl4_23 Cl 0.000000 0.33860(8) 0.000000
P4_15 P -0.000000 0.32267(8) 0.18172(8)
N10_15 N 0.000000 0.31813(19) 0.0987(2)
C19_11 C 0.0433(3) 0.3550(2) 0.1723(2)
H37_11 H 0.045603 0.375936 0.193922
H38_11 H 0.068700 0.338617 0.172144
Cu5_15 Cu 0.000000 0.28359(3) 0.04786(3)
C20_15 C 0.000000 0.2915(2) 0.1355(2)
H39_11 H 0.024455 0.273796 0.135158
C21_15 C 0.000000 0.3993(3) 0.1310(4)
H40_15 H -0.000001 0.415690 0.105642
H41_15 H 0.000001 0.418486 0.154340
C22_11 C 0.0370(3) 0.3454(2) 0.0992(2)
H42_11 H 0.061697 0.328108 0.101121
H43_11 H 0.038311 0.360368 0.073041
N11_11 N 0.0375(3) 0.37468(19) 0.13242(19)
Cl6_11 Cl 0.06295(4) 0.250000 0.06295(4)
O8_29 O 0.2784(2) 0.3018(2) 0.000000
O9_29 O 0.1982(2) 0.2784(2) 0.000000
O1_24 O 0.000000 0.250000 1.000000
P1_16 P 0.18172(8) 0.17733(8) 1.000000
N1_16 N 0.0987(2) 0.18187(19) 1.000000
Cu1_16 Cu 0.04786(3) 0.21641(3) 1.000000
O3_16 O 0.2216(2) 0.1982(2) 1.000000
Cl1_24 Cl 0.000000 0.16140(8) 1.000000
Cl2_11 Cl 0.06295(4) 0.250000 0.93705(4)
C2_16 C 0.1355(2) 0.2085(2) 1.000000
C3_16 C 0.1310(4) 0.1007(3) 1.000000
H4_16 H 0.105642 0.084310 0.999999
H5_16 H 0.154340 0.081514 1.000001
C5_11 C 0.1723(2) 0.1450(2) 0.9567(3)
H8_11 H 0.193922 0.124064 0.954397
H9_11 H 0.172144 0.161383 0.931300
H10_11 H 0.135158 0.226204 0.975545
C6_11 C 0.0992(2) 0.1546(2) 0.9630(3)
H11_11 H 0.101121 0.171892 0.938303
H12_11 H 0.073041 0.139632 0.961689
N3_11 N 0.13242(19) 0.12532(19) 0.9625(3)
P3_15 P 0.000000 0.32267(8) 0.81828(8)
N7_15 N -0.000000 0.31813(19) 0.9013(2)
Cu4_15 Cu 0.000000 0.28359(3) 0.95214(3)
Cl4_24 Cl 0.000000 0.33860(8) 1.000000
C14_15 C 0.000000 0.2915(2) 0.8645(2)
C15_15 C 0.000000 0.3993(3) 0.8690(4)
H28_15 H 0.000001 0.415690 0.894358
H29_15 H -0.000001 0.418486 0.845660
C17_11 C 0.0433(3) 0.3550(2) 0.8277(2)
H32_11 H 0.045603 0.375936 0.806078
H33_11 H 0.068700 0.338617 0.827856
H34_11 H 0.024455 0.273796 0.864842
C18_11 C 0.0370(3) 0.3454(2) 0.9008(2)
H35_11 H 0.061697 0.328108 0.898879
H36_11 H 0.038311 0.360368 0.926959
N9_11 N 0.0375(3) 0.37468(19) 0.86758(19)
O7_21 O 0.250000 0.250000 0.9226(10)
O8_30 O 0.2784(2) 0.3018(2) 1.000000
O9_30 O 0.1982(2) 0.2784(2) 1.000000
O1_25 O 1.000000 0.250000 0.000000
Cl1_25 Cl 1.000000 0.16140(8) 0.000000
P2_15 P 0.81828(8) 0.17733(8) 0.000000
N4_15 N 0.9013(2) 0.18187(19) 0.000000
Cu3_15 Cu 0.95214(3) 0.21641(3) 0.000000
O4_15 O 0.7784(2) 0.1982(2) 0.000000
Cl3_11 Cl 0.93705(4) 0.250000 0.06295(4)
C8_15 C 0.8645(2) 0.2085(2) 0.000000
C9_15 C 0.8690(4) 0.1007(3) 0.000000
H16_15 H 0.894358 0.084310 0.000001
H17_15 H 0.845660 0.081514 -0.000001
C11_11 C 0.8277(2) 0.1450(2) 0.0433(3)
H20_11 H 0.806078 0.124064 0.045603
H21_11 H 0.827856 0.161383 0.068700
H22_11 H 0.864842 0.226204 0.024455
C12_11 C 0.9008(2) 0.1546(2) 0.0370(3)
H23_11 H 0.898879 0.171892 0.061697
H24_11 H 0.926959 0.139632 0.038311
N6_11 N 0.86758(19) 0.12532(19) 0.0375(3)
Cl4_25 Cl 1.000000 0.33860(8) 0.000000
P4_16 P 1.000000 0.32267(8) 0.18172(8)
N10_16 N 1.000000 0.31813(19) 0.0987(2)
Cu5_16 Cu 1.000000 0.28359(3) 0.04786(3)
C20_16 C 1.000000 0.2915(2) 0.1355(2)
C21_16 C 1.000000 0.3993(3) 0.1310(4)
H40_16 H 0.999999 0.415690 0.105642
H41_16 H 1.000001 0.418486 0.154340
C23_11 C 0.9567(3) 0.3550(2) 0.1723(2)
H44_11 H 0.954397 0.375936 0.193922
H45_11 H 0.931300 0.338617 0.172144
H46_11 H 0.975545 0.273796 0.135158
C24_11 C 0.9630(3) 0.3454(2) 0.0992(2)
H47_11 H 0.938303 0.328108 0.101121
H48_11 H 0.961689 0.360368 0.073041
N12_11 N 0.9625(3) 0.37468(19) 0.13242(19)
O1_26 O 1.000000 0.250000 1.000000
Cl1_26 Cl 1.000000 0.16140(8) 1.000000
P2_16 P 0.81828(8) 0.17733(8) 1.000000
N4_16 N 0.9013(2) 0.18187(19) 1.000000
C7_11 C 0.8277(2) 0.1450(2) 0.9567(3)
H13_11 H 0.806078 0.124064 0.954397
H14_11 H 0.827856 0.161383 0.931300
Cu3_16 Cu 0.95214(3) 0.21641(3) 1.000000
O4_16 O 0.7784(2) 0.1982(2) 1.000000
C8_16 C 0.8645(2) 0.2085(2) 1.000000
H15_11 H 0.864842 0.226204 0.975545
C9_16 C 0.8690(4) 0.1007(3) 1.000000
H16_16 H 0.894358 0.084310 1.000001
H17_16 H 0.845660 0.081514 0.999999
C10_11 C 0.9008(2) 0.1546(2) 0.9630(3)
H18_11 H 0.898879 0.171892 0.938303
H19_11 H 0.926959 0.139632 0.961689
N5_11 N 0.86758(19) 0.12532(19) 0.9625(3)
P3_16 P 1.000000 0.32267(8) 0.81828(8)
N7_16 N 1.000000 0.31813(19) 0.9013(2)
C13_11 C 0.9567(3) 0.3550(2) 0.8277(2)
H25_11 H 0.954397 0.375936 0.806078
H26_11 H 0.931300 0.338617 0.827856
Cu4_16 Cu 1.000000 0.28359(3) 0.95214(3)
Cl4_26 Cl 1.000000 0.33860(8) 1.000000
C14_16 C 1.000000 0.2915(2) 0.8645(2)
H27_11 H 0.975545 0.273796 0.864842
C15_16 C 1.000000 0.3993(3) 0.8690(4)
H28_16 H 1.000001 0.415690 0.894358
H29_16 H 0.999999 0.418486 0.845660
C16_11 C 0.9630(3) 0.3454(2) 0.9008(2)
H30_11 H 0.938303 0.328108 0.898879
H31_11 H 0.961689 0.360368 0.926959
N8_11 N 0.9625(3) 0.37468(19) 0.86758(19)
Cl5_11 Cl 0.93705(4) 0.250000 0.93705(4)
O1_27 O 0.000000 0.750000 -0.000000
P1_17 P 0.18172(8) 0.82267(8) -0.000000
N1_17 N 0.0987(2) 0.81813(19) -0.000000
Cu1_17 Cu 0.04786(3) 0.78359(3) -0.000000
O3_17 O 0.2216(2) 0.8018(2) -0.000000
Cl1_27 Cl 0.000000 0.83860(8) -0.000000
Cl2_12 Cl 0.06295(4) 0.750000 0.06295(4)
C2_17 C 0.1355(2) 0.7915(2) -0.000000
C3_17 C 0.1310(4) 0.8993(3) -0.000000
H4_17 H 0.105642 0.915690 0.000001
H5_17 H 0.154340 0.918486 -0.000001
C5_12 C 0.1723(2) 0.8550(2) 0.0433(3)
H8_12 H 0.193922 0.875936 0.045603
H9_12 H 0.172144 0.838617 0.068700
H10_12 H 0.135158 0.773796 0.024455
C6_12 C 0.0992(2) 0.8454(2) 0.0370(3)
H11_12 H 0.101121 0.828108 0.061697
H12_12 H 0.073041 0.860368 0.038311
N3_12 N 0.13242(19) 0.87468(19) 0.0375(3)
P3_17 P 0.000000 0.67733(8) 0.18172(8)
N7_17 N -0.000000 0.68187(19) 0.0987(2)
Cu4_17 Cu 0.000000 0.71641(3) 0.04786(3)
Cl4_27 Cl 0.000000 0.66140(8) -0.000000
C14_17 C 0.000000 0.7085(2) 0.1355(2)
C15_17 C 0.000000 0.6007(3) 0.1310(4)
H28_17 H 0.000001 0.584310 0.105642
H29_17 H -0.000001 0.581514 0.154340
C17_12 C 0.0433(3) 0.6450(2) 0.1723(2)
H32_12 H 0.045603 0.624064 0.193922
H33_12 H 0.068700 0.661383 0.172144
H34_12 H 0.024455 0.726204 0.135158
C18_12 C 0.0370(3) 0.6546(2) 0.0992(2)
H35_12 H 0.061697 0.671892 0.101121
H36_12 H 0.038311 0.639632 0.073041
N9_12 N 0.0375(3) 0.62532(19) 0.13242(19)
O7_22 O 0.250000 0.750000 0.0774(10)
O8_31 O 0.2784(2) 0.6982(2) -0.000000
O9_31 O 0.1982(2) 0.7216(2) -0.000000
O1_28 O 0.000000 0.750000 1.000000
P1_18 P 0.18172(8) 0.82267(8) 1.000000
N1_18 N 0.0987(2) 0.81813(19) 1.000000
C1_12 C 0.1723(2) 0.8550(2) 0.9567(3)
H1_12 H 0.193922 0.875936 0.954397
H2_12 H 0.172144 0.838617 0.931300
O2_22 O 0.250000 0.750000 0.9226(10)
Cu1_18 Cu 0.04786(3) 0.78359(3) 1.000000
O3_18 O 0.2216(2) 0.8018(2) 1.000000
Cl1_28 Cl 0.000000 0.83860(8) 1.000000
C2_18 C 0.1355(2) 0.7915(2) 1.000000
H3_12 H 0.135158 0.773796 0.975545
C3_18 C 0.1310(4) 0.8993(3) 1.000000
H4_18 H 0.105642 0.915690 1.000001
H5_18 H 0.154340 0.918486 0.999999
C4_12 C 0.0992(2) 0.8454(2) 0.9630(3)
H6_12 H 0.101121 0.828108 0.938303
H7_12 H 0.073041 0.860368 0.961689
N2_12 N 0.13242(19) 0.87468(19) 0.9625(3)
Cl4_28 Cl 0.000000 0.66140(8) 1.000000
P4_17 P 0.000000 0.67733(8) 0.81828(8)
N10_17 N -0.000000 0.68187(19) 0.9013(2)
C19_12 C 0.0433(3) 0.6450(2) 0.8277(2)
H37_12 H 0.045603 0.624064 0.806078
H38_12 H 0.068700 0.661383 0.827856
Cu5_17 Cu 0.000000 0.71641(3) 0.95214(3)
C20_17 C 0.000000 0.7085(2) 0.8645(2)
H39_12 H 0.024455 0.726204 0.864842
C21_17 C 0.000000 0.6007(3) 0.8690(4)
H40_17 H -0.000001 0.584310 0.894358
H41_17 H 0.000001 0.581514 0.845660
C22_12 C 0.0370(3) 0.6546(2) 0.9008(2)
H42_12 H 0.061697 0.671892 0.898879
H43_12 H 0.038311 0.639632 0.926959
N11_12 N 0.0375(3) 0.62532(19) 0.86758(19)
Cl6_12 Cl 0.06295(4) 0.750000 0.93705(4)
O8_32 O 0.2784(2) 0.6982(2) 1.000000
O9_32 O 0.1982(2) 0.7216(2) 1.000000
O1_29 O 1.000000 0.750000 -0.000000
Cl1_29 Cl 1.000000 0.83860(8) -0.000000
P2_17 P 0.81828(8) 0.82267(8) -0.000000
N4_17 N 0.9013(2) 0.81813(19) -0.000000
C7_12 C 0.8277(2) 0.8550(2) 0.0433(3)
H13_12 H 0.806078 0.875936 0.045603
H14_12 H 0.827856 0.838617 0.068700
Cu3_17 Cu 0.95214(3) 0.78359(3) -0.000000
O4_17 O 0.7784(2) 0.8018(2) -0.000000
C8_17 C 0.8645(2) 0.7915(2) -0.000000
H15_12 H 0.864842 0.773796 0.024455
C9_17 C 0.8690(4) 0.8993(3) -0.000000
H16_17 H 0.894358 0.915690 -0.000001
H17_17 H 0.845660 0.918486 0.000001
C10_12 C 0.9008(2) 0.8454(2) 0.0370(3)
H18_12 H 0.898879 0.828108 0.061697
H19_12 H 0.926959 0.860368 0.038311
N5_12 N 0.86758(19) 0.87468(19) 0.0375(3)
P3_18 P 1.000000 0.67733(8) 0.18172(8)
N7_18 N 1.000000 0.68187(19) 0.0987(2)
C13_12 C 0.9567(3) 0.6450(2) 0.1723(2)
H25_12 H 0.954397 0.624064 0.193922
H26_12 H 0.931300 0.661383 0.172144
Cu4_18 Cu 1.000000 0.71641(3) 0.04786(3)
Cl4_29 Cl 1.000000 0.66140(8) -0.000000
C14_18 C 1.000000 0.7085(2) 0.1355(2)
H27_12 H 0.975545 0.726204 0.135158
C15_18 C 1.000000 0.6007(3) 0.1310(4)
H28_18 H 1.000001 0.584310 0.105642
H29_18 H 0.999999 0.581514 0.154340
C16_12 C 0.9630(3) 0.6546(2) 0.0992(2)
H30_12 H 0.938303 0.671892 0.101121
H31_12 H 0.961689 0.639632 0.073041
N8_12 N 0.9625(3) 0.62532(19) 0.13242(19)
Cl5_12 Cl 0.93705(4) 0.750000 0.06295(4)
O1_30 O 1.000000 0.750000 1.000000
Cl1_30 Cl 1.000000 0.83860(8) 1.000000
P2_18 P 0.81828(8) 0.82267(8) 1.000000
N4_18 N 0.9013(2) 0.81813(19) 1.000000
Cu3_18 Cu 0.95214(3) 0.78359(3) 1.000000
O4_18 O 0.7784(2) 0.8018(2) 1.000000
Cl3_12 Cl 0.93705(4) 0.750000 0.93705(4)
C8_18 C 0.8645(2) 0.7915(2) 1.000000
C9_18 C 0.8690(4) 0.8993(3) 1.000000
H16_18 H 0.894358 0.915690 0.999999
H17_18 H 0.845660 0.918486 1.000001
C11_12 C 0.8277(2) 0.8550(2) 0.9567(3)
H20_12 H 0.806078 0.875936 0.954397
H21_12 H 0.827856 0.838617 0.931300
H22_12 H 0.864842 0.773796 0.975545
C12_12 C 0.9008(2) 0.8454(2) 0.9630(3)
H23_12 H 0.898879 0.828108 0.938303
H24_12 H 0.926959 0.860368 0.961689
N6_12 N 0.86758(19) 0.87468(19) 0.9625(3)
Cl4_30 Cl 1.000000 0.66140(8) 1.000000
P4_18 P 1.000000 0.67733(8) 0.81828(8)
N10_18 N 1.000000 0.68187(19) 0.9013(2)
Cu5_18 Cu 1.000000 0.71641(3) 0.95214(3)
C20_18 C 1.000000 0.7085(2) 0.8645(2)
C21_18 C 1.000000 0.6007(3) 0.8690(4)
H40_18 H 0.999999 0.584310 0.894358
H41_18 H 1.000001 0.581514 0.845660
C23_12 C 0.9567(3) 0.6450(2) 0.8277(2)
H44_12 H 0.954397 0.624064 0.806078
H45_12 H 0.931300 0.661383 0.827856
H46_12 H 0.975545 0.726204 0.864842
C24_12 C 0.9630(3) 0.6546(2) 0.9008(2)
H47_12 H 0.938303 0.671892 0.898879
H48_12 H 0.961689 0.639632 0.926959
N12_12 N 0.9625(3) 0.62532(19) 0.86758(19)
O7_23 O 0.750000 0.250000 0.0774(10)
O8_33 O 0.7216(2) 0.3018(2) -0.000000
O9_33 O 0.8018(2) 0.2784(2) -0.000000
O2_23 O 0.750000 0.250000 0.9226(10)
O8_34 O 0.7216(2) 0.3018(2) 1.000000
O9_34 O 0.8018(2) 0.2784(2) 1.000000
O2_24 O 0.750000 0.750000 0.0774(10)
O8_35 O 0.7216(2) 0.6982(2) 0.000000
O9_35 O 0.8018(2) 0.7216(2) 0.000000
O7_24 O 0.750000 0.750000 0.9226(10)
O8_36 O 0.7216(2) 0.6982(2) 1.000000
O9_36 O 0.8018(2) 0.7216(2) 1.000000
O1_31 O 0.500000 0.250000 0.000000
P1_19 P 0.500000 0.17733(8) 0.18172(8)
N1_19 N 0.500000 0.18187(19) 0.0987(2)
C1_13 C 0.4567(3) 0.1450(2) 0.1723(2)
H1_13 H 0.454397 0.124064 0.193922
H2_13 H 0.431300 0.161383 0.172144
Cu1_19 Cu 0.500000 0.21641(3) 0.04786(3)
Cl1_31 Cl 0.500000 0.16140(8) 0.000000
Cl2_13 Cl 0.56295(4) 0.250000 0.06295(4)
C2_19 C 0.500000 0.2085(2) 0.1355(2)
H3_13 H 0.475545 0.226204 0.135158
C3_19 C 0.500000 0.1007(3) 0.1310(4)
H4_19 H 0.500001 0.084310 0.105642
H5_19 H 0.499999 0.081514 0.154340
C4_13 C 0.4630(3) 0.1546(2) 0.0992(2)
H6_13 H 0.438303 0.171892 0.101121
H7_13 H 0.461689 0.139632 0.073041
N2_13 N 0.4625(3) 0.12532(19) 0.13242(19)
C5_13 C 0.5433(3) 0.1450(2) 0.1723(2)
H8_13 H 0.545603 0.124064 0.193922
H9_13 H 0.568700 0.161383 0.172144
H10_13 H 0.524455 0.226204 0.135158
C6_13 C 0.5370(3) 0.1546(2) 0.0992(2)
H11_13 H 0.561697 0.171892 0.101121
H12_13 H 0.538311 0.139632 0.073041
N3_13 N 0.5375(3) 0.12532(19) 0.13242(19)
P3_19 P 0.68172(8) 0.32267(8) 0.000000
N7_19 N 0.5987(2) 0.31813(19) 0.000000
Cu4_19 Cu 0.54786(3) 0.28359(3) 0.000000
Cl4_31 Cl 0.500000 0.33860(8) 0.000000
C14_19 C 0.6355(2) 0.2915(2) 0.000000
C15_19 C 0.6310(4) 0.3993(3) 0.000000
H28_19 H 0.605642 0.415690 0.000001
H29_19 H 0.654340 0.418486 -0.000001
C17_13 C 0.6723(2) 0.3550(2) 0.0433(3)
H32_13 H 0.693922 0.375936 0.045603
H33_13 H 0.672144 0.338617 0.068700
H34_13 H 0.635158 0.273796 0.024455
C18_13 C 0.5992(2) 0.3454(2) 0.0370(3)
H35_13 H 0.601121 0.328108 0.061697
H36_13 H 0.573041 0.360368 0.038311
N9_13 N 0.63242(19) 0.37468(19) 0.0375(3)
P4_19 P 0.31828(8) 0.32267(8) 0.000000
N10_19 N 0.4013(2) 0.31813(19) 0.000000
C19_13 C 0.3277(2) 0.3550(2) 0.0433(3)
H37_13 H 0.306078 0.375936 0.045603
H38_13 H 0.327856 0.338617 0.068700
Cu5_19 Cu 0.45214(3) 0.28359(3) 0.000000
C20_19 C 0.3645(2) 0.2915(2) 0.000000
H39_13 H 0.364842 0.273796 0.024455
C21_19 C 0.3690(4) 0.3993(3) 0.000000
H40_19 H 0.394358 0.415690 -0.000001
H41_19 H 0.345660 0.418486 0.000001
C22_13 C 0.4008(2) 0.3454(2) 0.0370(3)
H42_13 H 0.398879 0.328108 0.061697
H43_13 H 0.426959 0.360368 0.038311
N11_13 N 0.36758(19) 0.37468(19) 0.0375(3)
Cl6_13 Cl 0.43705(4) 0.250000 0.06295(4)
O1_32 O 0.500000 0.250000 1.000000
Cl1_32 Cl 0.500000 0.16140(8) 1.000000
P2_19 P 0.500000 0.17733(8) 0.81828(8)
N4_19 N 0.500000 0.18187(19) 0.9013(2)
C7_13 C 0.5433(3) 0.1450(2) 0.8277(2)
H13_13 H 0.545603 0.124064 0.806078
H14_13 H 0.568700 0.161383 0.827856
Cu3_19 Cu 0.500000 0.21641(3) 0.95214(3)
Cl3_13 Cl 0.43705(4) 0.250000 0.93705(4)
C8_19 C 0.500000 0.2085(2) 0.8645(2)
H15_13 H 0.524455 0.226204 0.864842
C9_19 C 0.500000 0.1007(3) 0.8690(4)
H16_19 H 0.499999 0.084310 0.894358
H17_19 H 0.500001 0.081514 0.845660
C10_13 C 0.5370(3) 0.1546(2) 0.9008(2)
H18_13 H 0.561697 0.171892 0.898879
H19_13 H 0.538311 0.139632 0.926959
N5_13 N 0.5375(3) 0.12532(19) 0.86758(19)
C11_13 C 0.4567(3) 0.1450(2) 0.8277(2)
H20_13 H 0.454397 0.124064 0.806078
H21_13 H 0.431300 0.161383 0.827856
H22_13 H 0.475545 0.226204 0.864842
C12_13 C 0.4630(3) 0.1546(2) 0.9008(2)
H23_13 H 0.438303 0.171892 0.898879
H24_13 H 0.461689 0.139632 0.926959
N6_13 N 0.4625(3) 0.12532(19) 0.86758(19)
P3_20 P 0.68172(8) 0.32267(8) 1.000000
N7_20 N 0.5987(2) 0.31813(19) 1.000000
C13_13 C 0.6723(2) 0.3550(2) 0.9567(3)
H25_13 H 0.693922 0.375936 0.954397
H26_13 H 0.672144 0.338617 0.931300
Cu4_20 Cu 0.54786(3) 0.28359(3) 1.000000
Cl4_32 Cl 0.500000 0.33860(8) 1.000000
C14_20 C 0.6355(2) 0.2915(2) 1.000000
H27_13 H 0.635158 0.273796 0.975545
C15_20 C 0.6310(4) 0.3993(3) 1.000000
H28_20 H 0.605642 0.415690 1.000001
H29_20 H 0.654340 0.418486 0.999999
C16_13 C 0.5992(2) 0.3454(2) 0.9630(3)
H30_13 H 0.601121 0.328108 0.938303
H31_13 H 0.573041 0.360368 0.961689
N8_13 N 0.63242(19) 0.37468(19) 0.9625(3)
P4_20 P 0.31828(8) 0.32267(8) 1.000000
N10_20 N 0.4013(2) 0.31813(19) 1.000000
Cu5_20 Cu 0.45214(3) 0.28359(3) 1.000000
C20_20 C 0.3645(2) 0.2915(2) 1.000000
C21_20 C 0.3690(4) 0.3993(3) 1.000000
H40_20 H 0.394358 0.415690 0.999999
H41_20 H 0.345660 0.418486 1.000001
C23_13 C 0.3277(2) 0.3550(2) 0.9567(3)
H44_13 H 0.306078 0.375936 0.954397
H45_13 H 0.327856 0.338617 0.931300
H46_13 H 0.364842 0.273796 0.975545
C24_13 C 0.4008(2) 0.3454(2) 0.9630(3)
H47_13 H 0.398879 0.328108 0.938303
H48_13 H 0.426959 0.360368 0.961689
N12_13 N 0.36758(19) 0.37468(19) 0.9625(3)
Cl5_13 Cl 0.56295(4) 0.250000 0.93705(4)
O1_33 O 0.500000 0.750000 0.000000
P1_20 P 0.500000 0.82267(8) 0.18172(8)
N1_20 N 0.500000 0.81813(19) 0.0987(2)
C1_14 C 0.5433(3) 0.8550(2) 0.1723(2)
H1_14 H 0.545603 0.875936 0.193922
H2_14 H 0.568700 0.838617 0.172144
Cu1_20 Cu 0.500000 0.78359(3) 0.04786(3)
Cl1_33 Cl 0.500000 0.83860(8) 0.000000
Cl2_14 Cl 0.43705(4) 0.750000 0.06295(4)
C2_20 C 0.500000 0.7915(2) 0.1355(2)
H3_14 H 0.524455 0.773796 0.135158
C3_20 C 0.500000 0.8993(3) 0.1310(4)
H4_20 H 0.499999 0.915690 0.105642
H5_20 H 0.500001 0.918486 0.154340
C4_14 C 0.5370(3) 0.8454(2) 0.0992(2)
H6_14 H 0.561697 0.828108 0.101121
H7_14 H 0.538311 0.860368 0.073041
N2_14 N 0.5375(3) 0.87468(19) 0.13242(19)
C5_14 C 0.4567(3) 0.8550(2) 0.1723(2)
H8_14 H 0.454397 0.875936 0.193922
H9_14 H 0.431300 0.838617 0.172144
H10_14 H 0.475545 0.773796 0.135158
C6_14 C 0.4630(3) 0.8454(2) 0.0992(2)
H11_14 H 0.438303 0.828108 0.101121
H12_14 H 0.461689 0.860368 0.073041
N3_14 N 0.4625(3) 0.87468(19) 0.13242(19)
P3_21 P 0.31828(8) 0.67733(8) 0.000000
N7_21 N 0.4013(2) 0.68187(19) 0.000000
Cu4_21 Cu 0.45214(3) 0.71641(3) 0.000000
Cl4_33 Cl 0.500000 0.66140(8) 0.000000
C14_21 C 0.3645(2) 0.7085(2) 0.000000
C15_21 C 0.3690(4) 0.6007(3) 0.000000
H28_21 H 0.394358 0.584310 0.000001
H29_21 H 0.345660 0.581514 -0.000001
C17_14 C 0.3277(2) 0.6450(2) 0.0433(3)
H32_14 H 0.306078 0.624064 0.045603
H33_14 H 0.327856 0.661383 0.068700
H34_14 H 0.364842 0.726204 0.024455
C18_14 C 0.4008(2) 0.6546(2) 0.0370(3)
H35_14 H 0.398879 0.671892 0.061697
H36_14 H 0.426959 0.639632 0.038311
N9_14 N 0.36758(19) 0.62532(19) 0.0375(3)
P4_21 P 0.68172(8) 0.67733(8) 0.000000
N10_21 N 0.5987(2) 0.68187(19) 0.000000
C19_14 C 0.6723(2) 0.6450(2) 0.0433(3)
H37_14 H 0.693922 0.624064 0.045603
H38_14 H 0.672144 0.661383 0.068700
Cu5_21 Cu 0.54786(3) 0.71641(3) 0.000000
C20_21 C 0.6355(2) 0.7085(2) 0.000000
H39_14 H 0.635158 0.726204 0.024455
C21_21 C 0.6310(4) 0.6007(3) 0.000000
H40_21 H 0.605642 0.584310 -0.000001
H41_21 H 0.654340 0.581514 0.000001
C22_14 C 0.5992(2) 0.6546(2) 0.0370(3)
H42_14 H 0.601121 0.671892 0.061697
H43_14 H 0.573041 0.639632 0.038311
N11_14 N 0.63242(19) 0.62532(19) 0.0375(3)
Cl6_14 Cl 0.56295(4) 0.750000 0.06295(4)
O1_34 O 0.500000 0.750000 1.000000
Cl1_34 Cl 0.500000 0.83860(8) 1.000000
P2_20 P 0.500000 0.82267(8) 0.81828(8)
N4_20 N 0.500000 0.81813(19) 0.9013(2)
C7_14 C 0.4567(3) 0.8550(2) 0.8277(2)
H13_14 H 0.454397 0.875936 0.806078
H14_14 H 0.431300 0.838617 0.827856
Cu3_20 Cu 0.500000 0.78359(3) 0.95214(3)
Cl3_14 Cl 0.56295(4) 0.750000 0.93705(4)
C8_20 C 0.500000 0.7915(2) 0.8645(2)
H15_14 H 0.475545 0.773796 0.864842
C9_20 C 0.500000 0.8993(3) 0.8690(4)
H16_20 H 0.500001 0.915690 0.894358
H17_20 H 0.499999 0.918486 0.845660
C10_14 C 0.4630(3) 0.8454(2) 0.9008(2)
H18_14 H 0.438303 0.828108 0.898879
H19_14 H 0.461689 0.860368 0.926959
N5_14 N 0.4625(3) 0.87468(19) 0.86758(19)
C11_14 C 0.5433(3) 0.8550(2) 0.8277(2)
H20_14 H 0.545603 0.875936 0.806078
H21_14 H 0.568700 0.838617 0.827856
H22_14 H 0.524455 0.773796 0.864842
C12_14 C 0.5370(3) 0.8454(2) 0.9008(2)
H23_14 H 0.561697 0.828108 0.898879
H24_14 H 0.538311 0.860368 0.926959
N6_14 N 0.5375(3) 0.87468(19) 0.86758(19)
P3_22 P 0.31828(8) 0.67733(8) 1.000000
N7_22 N 0.4013(2) 0.68187(19) 1.000000
C13_14 C 0.3277(2) 0.6450(2) 0.9567(3)
H25_14 H 0.306078 0.624064 0.954397
H26_14 H 0.327856 0.661383 0.931300
Cu4_22 Cu 0.45214(3) 0.71641(3) 1.000000
Cl4_34 Cl 0.500000 0.66140(8) 1.000000
C14_22 C 0.3645(2) 0.7085(2) 1.000000
H27_14 H 0.364842 0.726204 0.975545
C15_22 C 0.3690(4) 0.6007(3) 1.000000
H28_22 H 0.394358 0.584310 1.000001
H29_22 H 0.345660 0.581514 0.999999
C16_14 C 0.4008(2) 0.6546(2) 0.9630(3)
H30_14 H 0.398879 0.671892 0.938303
H31_14 H 0.426959 0.639632 0.961689
N8_14 N 0.36758(19) 0.62532(19) 0.9625(3)
P4_22 P 0.68172(8) 0.67733(8) 1.000000
N10_22 N 0.5987(2) 0.68187(19) 1.000000
Cu5_22 Cu 0.54786(3) 0.71641(3) 1.000000
C20_22 C 0.6355(2) 0.7085(2) 1.000000
C21_22 C 0.6310(4) 0.6007(3) 1.000000
H40_22 H 0.605642 0.584310 0.999999
H41_22 H 0.654340 0.581514 1.000001
C23_14 C 0.6723(2) 0.6450(2) 0.9567(3)
H44_14 H 0.693922 0.624064 0.954397
H45_14 H 0.672144 0.661383 0.931300
H46_14 H 0.635158 0.726204 0.975545
C24_14 C 0.5992(2) 0.6546(2) 0.9630(3)
H47_14 H 0.601121 0.671892 0.938303
H48_14 H 0.573041 0.639632 0.961689
N12_14 N 0.63242(19) 0.62532(19) 0.9625(3)
Cl5_14 Cl 0.43705(4) 0.750000 0.93705(4)
O1_35 O 0.500000 -0.000000 0.250000
P1_21 P 0.68172(8) -0.000000 0.17733(8)
N1_21 N 0.5987(2) -0.000000 0.18187(19)
Cu1_21 Cu 0.54786(3) -0.000000 0.21641(3)
Cl1_35 Cl 0.500000 -0.000000 0.16140(8)
Cl2_15 Cl 0.56295(4) 0.06295(4) 0.250000
C2_21 C 0.6355(2) -0.000000 0.2085(2)
C3_21 C 0.6310(4) -0.000000 0.1007(3)
H4_21 H 0.605642 0.000001 0.084310
H5_21 H 0.654340 -0.000001 0.081514
C5_15 C 0.6723(2) 0.0433(3) 0.1450(2)
H8_15 H 0.693922 0.045603 0.124064
H9_15 H 0.672144 0.068700 0.161383
H10_15 H 0.635158 0.024455 0.226204
C6_15 C 0.5992(2) 0.0370(3) 0.1546(2)
H11_15 H 0.601121 0.061697 0.171892
H12_15 H 0.573041 0.038311 0.139632
N3_15 N 0.63242(19) 0.0375(3) 0.12532(19)
P2_21 P 0.31828(8) -0.000000 0.17733(8)
N4_21 N 0.4013(2) -0.000000 0.18187(19)
C7_15 C 0.3277(2) 0.0433(3) 0.1450(2)
H13_15 H 0.306078 0.045603 0.124064
H14_15 H 0.327856 0.068700 0.161383
Cu3_21 Cu 0.45214(3) -0.000000 0.21641(3)
C8_21 C 0.3645(2) -0.000000 0.2085(2)
H15_15 H 0.364842 0.024455 0.226204
C9_21 C 0.3690(4) -0.000000 0.1007(3)
H16_21 H 0.394358 -0.000001 0.084310
H17_21 H 0.345660 0.000001 0.081514
C10_15 C 0.4008(2) 0.0370(3) 0.1546(2)
H18_15 H 0.398879 0.061697 0.171892
H19_15 H 0.426959 0.038311 0.139632
N5_15 N 0.36758(19) 0.0375(3) 0.12532(19)
P3_23 P 0.500000 0.18172(8) 0.32267(8)
N7_23 N 0.500000 0.0987(2) 0.31813(19)
C13_15 C 0.4567(3) 0.1723(2) 0.3550(2)
H25_15 H 0.454397 0.193922 0.375936
H26_15 H 0.431300 0.172144 0.338617
Cu4_23 Cu 0.500000 0.04786(3) 0.28359(3)
Cl4_35 Cl 0.500000 -0.000000 0.33860(8)
C14_23 C 0.500000 0.1355(2) 0.2915(2)
H27_15 H 0.475545 0.135158 0.273796
C15_23 C 0.500000 0.1310(4) 0.3993(3)
H28_23 H 0.500001 0.105642 0.415690
H29_23 H 0.499999 0.154340 0.418486
C16_15 C 0.4630(3) 0.0992(2) 0.3454(2)
H30_15 H 0.438303 0.101121 0.328108
H31_15 H 0.461689 0.073041 0.360368
N8_15 N 0.4625(3) 0.13242(19) 0.37468(19)
C17_15 C 0.5433(3) 0.1723(2) 0.3550(2)
H32_15 H 0.545603 0.193922 0.375936
H33_15 H 0.568700 0.172144 0.338617
H34_15 H 0.524455 0.135158 0.273796
C18_15 C 0.5370(3) 0.0992(2) 0.3454(2)
H35_15 H 0.561697 0.101121 0.328108
H36_15 H 0.538311 0.073041 0.360368
N9_15 N 0.5375(3) 0.13242(19) 0.37468(19)
Cl5_15 Cl 0.43705(4) 0.06295(4) 0.250000
O1_36 O 0.500000 1.000000 0.250000
P1_22 P 0.68172(8) 1.000000 0.17733(8)
N1_22 N 0.5987(2) 1.000000 0.18187(19)
C1_15 C 0.6723(2) 0.9567(3) 0.1450(2)
H1_15 H 0.693922 0.954397 0.124064
H2_15 H 0.672144 0.931300 0.161383
Cu1_22 Cu 0.54786(3) 1.000000 0.21641(3)
Cl1_36 Cl 0.500000 1.000000 0.16140(8)
C2_22 C 0.6355(2) 1.000000 0.2085(2)
H3_15 H 0.635158 0.975545 0.226204
C3_22 C 0.6310(4) 1.000000 0.1007(3)
H4_22 H 0.605642 1.000001 0.084310
H5_22 H 0.654340 0.999999 0.081514
C4_15 C 0.5992(2) 0.9630(3) 0.1546(2)
H6_15 H 0.601121 0.938303 0.171892
H7_15 H 0.573041 0.961689 0.139632
N2_15 N 0.63242(19) 0.9625(3) 0.12532(19)
P2_22 P 0.31828(8) 1.000000 0.17733(8)
N4_22 N 0.4013(2) 1.000000 0.18187(19)
Cu3_22 Cu 0.45214(3) 1.000000 0.21641(3)
Cl3_15 Cl 0.43705(4) 0.93705(4) 0.250000
C8_22 C 0.3645(2) 1.000000 0.2085(2)
C9_22 C 0.3690(4) 1.000000 0.1007(3)
H16_22 H 0.394358 0.999999 0.084310
H17_22 H 0.345660 1.000001 0.081514
C11_15 C 0.3277(2) 0.9567(3) 0.1450(2)
H20_15 H 0.306078 0.954397 0.124064
H21_15 H 0.327856 0.931300 0.161383
H22_15 H 0.364842 0.975545 0.226204
C12_15 C 0.4008(2) 0.9630(3) 0.1546(2)
H23_15 H 0.398879 0.938303 0.171892
H24_15 H 0.426959 0.961689 0.139632
N6_15 N 0.36758(19) 0.9625(3) 0.12532(19)
Cl4_36 Cl 0.500000 1.000000 0.33860(8)
P4_23 P 0.500000 0.81828(8) 0.32267(8)
N10_23 N 0.500000 0.9013(2) 0.31813(19)
C19_15 C 0.5433(3) 0.8277(2) 0.3550(2)
H37_15 H 0.545603 0.806078 0.375936
H38_15 H 0.568700 0.827856 0.338617
Cu5_23 Cu 0.500000 0.95214(3) 0.28359(3)
C20_23 C 0.500000 0.8645(2) 0.2915(2)
H39_15 H 0.524455 0.864842 0.273796
C21_23 C 0.500000 0.8690(4) 0.3993(3)
H40_23 H 0.499999 0.894358 0.415690
H41_23 H 0.500001 0.845660 0.418486
C22_15 C 0.5370(3) 0.9008(2) 0.3454(2)
H42_15 H 0.561697 0.898879 0.328108
H43_15 H 0.538311 0.926959 0.360368
N11_15 N 0.5375(3) 0.86758(19) 0.37468(19)
C23_15 C 0.4567(3) 0.8277(2) 0.3550(2)
H44_15 H 0.454397 0.806078 0.375936
H45_15 H 0.431300 0.827856 0.338617
H46_15 H 0.475545 0.864842 0.273796
C24_15 C 0.4630(3) 0.9008(2) 0.3454(2)
H47_15 H 0.438303 0.898879 0.328108
H48_15 H 0.461689 0.926959 0.360368
N12_15 N 0.4625(3) 0.86758(19) 0.37468(19)
Cl6_15 Cl 0.56295(4) 0.93705(4) 0.250000
O1_37 O 0.500000 0.000000 0.750000
P1_23 P 0.68172(8) 0.000000 0.82267(8)
N1_23 N 0.5987(2) 0.000000 0.81813(19)
C1_16 C 0.6723(2) 0.0433(3) 0.8550(2)
H1_16 H 0.693922 0.045603 0.875936
H2_16 H 0.672144 0.068700 0.838617
Cu1_23 Cu 0.54786(3) 0.000000 0.78359(3)
Cl1_37 Cl 0.500000 0.000000 0.83860(8)
C2_23 C 0.6355(2) 0.000000 0.7915(2)
H3_16 H 0.635158 0.024455 0.773796
C3_23 C 0.6310(4) 0.000000 0.8993(3)
H4_23 H 0.605642 -0.000001 0.915690
H5_23 H 0.654340 0.000001 0.918486
C4_16 C 0.5992(2) 0.0370(3) 0.8454(2)
H6_16 H 0.601121 0.061697 0.828108
H7_16 H 0.573041 0.038311 0.860368
N2_16 N 0.63242(19) 0.0375(3) 0.87468(19)
P2_23 P 0.31828(8) 0.000000 0.82267(8)
N4_23 N 0.4013(2) 0.000000 0.81813(19)
Cu3_23 Cu 0.45214(3) 0.000000 0.78359(3)
Cl3_16 Cl 0.43705(4) 0.06295(4) 0.750000
C8_23 C 0.3645(2) 0.000000 0.7915(2)
C9_23 C 0.3690(4) 0.000000 0.8993(3)
H16_23 H 0.394358 0.000001 0.915690
H17_23 H 0.345660 -0.000001 0.918486
C11_16 C 0.3277(2) 0.0433(3) 0.8550(2)
H20_16 H 0.306078 0.045603 0.875936
H21_16 H 0.327856 0.068700 0.838617
H22_16 H 0.364842 0.024455 0.773796
C12_16 C 0.4008(2) 0.0370(3) 0.8454(2)
H23_16 H 0.398879 0.061697 0.828108
H24_16 H 0.426959 0.038311 0.860368
N6_16 N 0.36758(19) 0.0375(3) 0.87468(19)
Cl4_37 Cl 0.500000 0.000000 0.66140(8)
P4_24 P 0.500000 0.18172(8) 0.67733(8)
N10_24 N 0.500000 0.0987(2) 0.68187(19)
C19_16 C 0.5433(3) 0.1723(2) 0.6450(2)
H37_16 H 0.545603 0.193922 0.624064
H38_16 H 0.568700 0.172144 0.661383
Cu5_24 Cu 0.500000 0.04786(3) 0.71641(3)
C20_24 C 0.500000 0.1355(2) 0.7085(2)
H39_16 H 0.524455 0.135158 0.726204
C21_24 C 0.500000 0.1310(4) 0.6007(3)
H40_24 H 0.499999 0.105642 0.584310
H41_24 H 0.500001 0.154340 0.581514
C22_16 C 0.5370(3) 0.0992(2) 0.6546(2)
H42_16 H 0.561697 0.101121 0.671892
H43_16 H 0.538311 0.073041 0.639632
N11_16 N 0.5375(3) 0.13242(19) 0.62532(19)
C23_16 C 0.4567(3) 0.1723(2) 0.6450(2)
H44_16 H 0.454397 0.193922 0.624064
H45_16 H 0.431300 0.172144 0.661383
H46_16 H 0.475545 0.135158 0.726204
C24_16 C 0.4630(3) 0.0992(2) 0.6546(2)
H47_16 H 0.438303 0.101121 0.671892
H48_16 H 0.461689 0.073041 0.639632
N12_16 N 0.4625(3) 0.13242(19) 0.62532(19)
Cl6_16 Cl 0.56295(4) 0.06295(4) 0.750000
O1_38 O 0.500000 1.000000 0.750000
P1_24 P 0.68172(8) 1.000000 0.82267(8)
N1_24 N 0.5987(2) 1.000000 0.81813(19)
Cu1_24 Cu 0.54786(3) 1.000000 0.78359(3)
Cl1_38 Cl 0.500000 1.000000 0.83860(8)
Cl2_16 Cl 0.56295(4) 0.93705(4) 0.750000
C2_24 C 0.6355(2) 1.000000 0.7915(2)
C3_24 C 0.6310(4) 1.000000 0.8993(3)
H4_24 H 0.605642 0.999999 0.915690
H5_24 H 0.654340 1.000001 0.918486
C5_16 C 0.6723(2) 0.9567(3) 0.8550(2)
H8_16 H 0.693922 0.954397 0.875936
H9_16 H 0.672144 0.931300 0.838617
H10_16 H 0.635158 0.975545 0.773796
C6_16 C 0.5992(2) 0.9630(3) 0.8454(2)
H11_16 H 0.601121 0.938303 0.828108
H12_16 H 0.573041 0.961689 0.860368
N3_16 N 0.63242(19) 0.9625(3) 0.87468(19)
P2_24 P 0.31828(8) 1.000000 0.82267(8)
N4_24 N 0.4013(2) 1.000000 0.81813(19)
C7_16 C 0.3277(2) 0.9567(3) 0.8550(2)
H13_16 H 0.306078 0.954397 0.875936
H14_16 H 0.327856 0.931300 0.838617
Cu3_24 Cu 0.45214(3) 1.000000 0.78359(3)
C8_24 C 0.3645(2) 1.000000 0.7915(2)
H15_16 H 0.364842 0.975545 0.773796
C9_24 C 0.3690(4) 1.000000 0.8993(3)
H16_24 H 0.394358 1.000001 0.915690
H17_24 H 0.345660 0.999999 0.918486
C10_16 C 0.4008(2) 0.9630(3) 0.8454(2)
H18_16 H 0.398879 0.938303 0.828108
H19_16 H 0.426959 0.961689 0.860368
N5_16 N 0.36758(19) 0.9625(3) 0.87468(19)
P3_24 P 0.500000 0.81828(8) 0.67733(8)
N7_24 N 0.500000 0.9013(2) 0.68187(19)
C13_16 C 0.4567(3) 0.8277(2) 0.6450(2)
H25_16 H 0.454397 0.806078 0.624064
H26_16 H 0.431300 0.827856 0.661383
Cu4_24 Cu 0.500000 0.95214(3) 0.71641(3)
Cl4_38 Cl 0.500000 1.000000 0.66140(8)
C14_24 C 0.500000 0.8645(2) 0.7085(2)
H27_16 H 0.475545 0.864842 0.726204
C15_24 C 0.500000 0.8690(4) 0.6007(3)
H28_24 H 0.500001 0.894358 0.584310
H29_24 H 0.499999 0.845660 0.581514
C16_16 C 0.4630(3) 0.9008(2) 0.6546(2)
H30_16 H 0.438303 0.898879 0.671892
H31_16 H 0.461689 0.926959 0.639632
N8_16 N 0.4625(3) 0.86758(19) 0.62532(19)
C17_16 C 0.5433(3) 0.8277(2) 0.6450(2)
H32_16 H 0.545603 0.806078 0.624064
H33_16 H 0.568700 0.827856 0.661383
H34_16 H 0.524455 0.864842 0.726204
C18_16 C 0.5370(3) 0.9008(2) 0.6546(2)
H35_16 H 0.561697 0.898879 0.671892
H36_16 H 0.538311 0.926959 0.639632
N9_16 N 0.5375(3) 0.86758(19) 0.62532(19)
Cl5_16 Cl 0.43705(4) 0.93705(4) 0.750000
O1_39 O -0.000000 0.500000 0.250000
P1_25 P -0.000000 0.68172(8) 0.32267(8)
N1_25 N -0.000000 0.5987(2) 0.31813(19)
Cu1_25 Cu -0.000000 0.54786(3) 0.28359(3)
Cl1_39 Cl -0.000000 0.500000 0.33860(8)
Cl2_17 Cl 0.06295(4) 0.56295(4) 0.250000
C2_25 C -0.000000 0.6355(2) 0.2915(2)
C3_25 C -0.000000 0.6310(4) 0.3993(3)
H4_25 H 0.000001 0.605642 0.415690
H5_25 H -0.000001 0.654340 0.418486
C5_17 C 0.0433(3) 0.6723(2) 0.3550(2)
H8_17 H 0.045603 0.693922 0.375936
H9_17 H 0.068700 0.672144 0.338617
H10_17 H 0.024455 0.635158 0.273796
C6_17 C 0.0370(3) 0.5992(2) 0.3454(2)
H11_17 H 0.061697 0.601121 0.328108
H12_17 H 0.038311 0.573041 0.360368
N3_17 N 0.0375(3) 0.63242(19) 0.37468(19)
P2_25 P -0.000000 0.31828(8) 0.32267(8)
N4_25 N -0.000000 0.4013(2) 0.31813(19)
C7_17 C 0.0433(3) 0.3277(2) 0.3550(2)
H13_17 H 0.045603 0.306078 0.375936
H14_17 H 0.068700 0.327856 0.338617
Cu3_25 Cu -0.000000 0.45214(3) 0.28359(3)
C8_25 C -0.000000 0.3645(2) 0.2915(2)
H15_17 H 0.024455 0.364842 0.273796
C9_25 C -0.000000 0.3690(4) 0.3993(3)
H16_25 H -0.000001 0.394358 0.415690
H17_25 H 0.000001 0.345660 0.418486
C10_17 C 0.0370(3) 0.4008(2) 0.3454(2)
H18_17 H 0.061697 0.398879 0.328108
H19_17 H 0.038311 0.426959 0.360368
N5_17 N 0.0375(3) 0.36758(19) 0.37468(19)
P3_25 P 0.18172(8) 0.500000 0.17733(8)
N7_25 N 0.0987(2) 0.500000 0.18187(19)
C13_17 C 0.1723(2) 0.4567(3) 0.1450(2)
H25_17 H 0.193922 0.454397 0.124064
H26_17 H 0.172144 0.431300 0.161383
Cu4_25 Cu 0.04786(3) 0.500000 0.21641(3)
Cl4_39 Cl -0.000000 0.500000 0.16140(8)
C14_25 C 0.1355(2) 0.500000 0.2085(2)
H27_17 H 0.135158 0.475545 0.226204
C15_25 C 0.1310(4) 0.500000 0.1007(3)
H28_25 H 0.105642 0.500001 0.084310
H29_25 H 0.154340 0.499999 0.081514
C16_17 C 0.0992(2) 0.4630(3) 0.1546(2)
H30_17 H 0.101121 0.438303 0.171892
H31_17 H 0.073041 0.461689 0.139632
N8_17 N 0.13242(19) 0.4625(3) 0.12532(19)
C17_17 C 0.1723(2) 0.5433(3) 0.1450(2)
H32_17 H 0.193922 0.545603 0.124064
H33_17 H 0.172144 0.568700 0.161383
H34_17 H 0.135158 0.524455 0.226204
C18_17 C 0.0992(2) 0.5370(3) 0.1546(2)
H35_17 H 0.101121 0.561697 0.171892
H36_17 H 0.073041 0.538311 0.139632
N9_17 N 0.13242(19) 0.5375(3) 0.12532(19)
Cl5_17 Cl 0.06295(4) 0.43705(4) 0.250000
O1_40 O 1.000000 0.500000 0.250000
P1_26 P 1.000000 0.68172(8) 0.32267(8)
N1_26 N 1.000000 0.5987(2) 0.31813(19)
C1_17 C 0.9567(3) 0.6723(2) 0.3550(2)
H1_17 H 0.954397 0.693922 0.375936
H2_17 H 0.931300 0.672144 0.338617
Cu1_26 Cu 1.000000 0.54786(3) 0.28359(3)
Cl1_40 Cl 1.000000 0.500000 0.33860(8)
C2_26 C 1.000000 0.6355(2) 0.2915(2)
H3_17 H 0.975545 0.635158 0.273796
C3_26 C 1.000000 0.6310(4) 0.3993(3)
H4_26 H 1.000001 0.605642 0.415690
H5_26 H 0.999999 0.654340 0.418486
C4_17 C 0.9630(3) 0.5992(2) 0.3454(2)
H6_17 H 0.938303 0.601121 0.328108
H7_17 H 0.961689 0.573041 0.360368
N2_17 N 0.9625(3) 0.63242(19) 0.37468(19)
P2_26 P 1.000000 0.31828(8) 0.32267(8)
N4_26 N 1.000000 0.4013(2) 0.31813(19)
Cu3_26 Cu 1.000000 0.45214(3) 0.28359(3)
Cl3_17 Cl 0.93705(4) 0.43705(4) 0.250000
C8_26 C 1.000000 0.3645(2) 0.2915(2)
C9_26 C 1.000000 0.3690(4) 0.3993(3)
H16_26 H 0.999999 0.394358 0.415690
H17_26 H 1.000001 0.345660 0.418486
C11_17 C 0.9567(3) 0.3277(2) 0.3550(2)
H20_17 H 0.954397 0.306078 0.375936
H21_17 H 0.931300 0.327856 0.338617
H22_17 H 0.975545 0.364842 0.273796
C12_17 C 0.9630(3) 0.4008(2) 0.3454(2)
H23_17 H 0.938303 0.398879 0.328108
H24_17 H 0.961689 0.426959 0.360368
N6_17 N 0.9625(3) 0.36758(19) 0.37468(19)
Cl4_40 Cl 1.000000 0.500000 0.16140(8)
P4_25 P 0.81828(8) 0.500000 0.17733(8)
N10_25 N 0.9013(2) 0.500000 0.18187(19)
C19_17 C 0.8277(2) 0.5433(3) 0.1450(2)
H37_17 H 0.806078 0.545603 0.124064
H38_17 H 0.827856 0.568700 0.161383
Cu5_25 Cu 0.95214(3) 0.500000 0.21641(3)
C20_25 C 0.8645(2) 0.500000 0.2085(2)
H39_17 H 0.864842 0.524455 0.226204
C21_25 C 0.8690(4) 0.500000 0.1007(3)
H40_25 H 0.894358 0.499999 0.084310
H41_25 H 0.845660 0.500001 0.081514
C22_17 C 0.9008(2) 0.5370(3) 0.1546(2)
H42_17 H 0.898879 0.561697 0.171892
H43_17 H 0.926959 0.538311 0.139632
N11_17 N 0.86758(19) 0.5375(3) 0.12532(19)
C23_17 C 0.8277(2) 0.4567(3) 0.1450(2)
H44_17 H 0.806078 0.454397 0.124064
H45_17 H 0.827856 0.431300 0.161383
H46_17 H 0.864842 0.475545 0.226204
C24_17 C 0.9008(2) 0.4630(3) 0.1546(2)
H47_17 H 0.898879 0.438303 0.171892
H48_17 H 0.926959 0.461689 0.139632
N12_17 N 0.86758(19) 0.4625(3) 0.12532(19)
Cl6_17 Cl 0.93705(4) 0.56295(4) 0.250000
O1_41 O 0.000000 0.500000 0.750000
P1_27 P 0.000000 0.68172(8) 0.67733(8)
N1_27 N 0.000000 0.5987(2) 0.68187(19)
C1_18 C 0.0433(3) 0.6723(2) 0.6450(2)
H1_18 H 0.045603 0.693922 0.624064
H2_18 H 0.068700 0.672144 0.661383
Cu1_27 Cu 0.000000 0.54786(3) 0.71641(3)
Cl1_41 Cl 0.000000 0.500000 0.66140(8)
C2_27 C 0.000000 0.6355(2) 0.7085(2)
H3_18 H 0.024455 0.635158 0.726204
C3_27 C 0.000000 0.6310(4) 0.6007(3)
H4_27 H -0.000001 0.605642 0.584310
H5_27 H 0.000001 0.654340 0.581514
C4_18 C 0.0370(3) 0.5992(2) 0.6546(2)
H6_18 H 0.061697 0.601121 0.671892
H7_18 H 0.038311 0.573041 0.639632
N2_18 N 0.0375(3) 0.63242(19) 0.62532(19)
P2_27 P 0.000000 0.31828(8) 0.67733(8)
N4_27 N 0.000000 0.4013(2) 0.68187(19)
Cu3_27 Cu 0.000000 0.45214(3) 0.71641(3)
Cl3_18 Cl 0.06295(4) 0.43705(4) 0.750000
C8_27 C 0.000000 0.3645(2) 0.7085(2)
C9_27 C 0.000000 0.3690(4) 0.6007(3)
H16_27 H 0.000001 0.394358 0.584310
H17_27 H -0.000001 0.345660 0.581514
C11_18 C 0.0433(3) 0.3277(2) 0.6450(2)
H20_18 H 0.045603 0.306078 0.624064
H21_18 H 0.068700 0.327856 0.661383
H22_18 H 0.024455 0.364842 0.726204
C12_18 C 0.0370(3) 0.4008(2) 0.6546(2)
H23_18 H 0.061697 0.398879 0.671892
H24_18 H 0.038311 0.426959 0.639632
N6_18 N 0.0375(3) 0.36758(19) 0.62532(19)
Cl4_41 Cl 0.000000 0.500000 0.83860(8)
P4_26 P 0.18172(8) 0.500000 0.82267(8)
N10_26 N 0.0987(2) 0.500000 0.81813(19)
C19_18 C 0.1723(2) 0.5433(3) 0.8550(2)
H37_18 H 0.193922 0.545603 0.875936
H38_18 H 0.172144 0.568700 0.838617
Cu5_26 Cu 0.04786(3) 0.500000 0.78359(3)
C20_26 C 0.1355(2) 0.500000 0.7915(2)
H39_18 H 0.135158 0.524455 0.773796
C21_26 C 0.1310(4) 0.500000 0.8993(3)
H40_26 H 0.105642 0.499999 0.915690
H41_26 H 0.154340 0.500001 0.918486
C22_18 C 0.0992(2) 0.5370(3) 0.8454(2)
H42_18 H 0.101121 0.561697 0.828108
H43_18 H 0.073041 0.538311 0.860368
N11_18 N 0.13242(19) 0.5375(3) 0.87468(19)
C23_18 C 0.1723(2) 0.4567(3) 0.8550(2)
H44_18 H 0.193922 0.454397 0.875936
H45_18 H 0.172144 0.431300 0.838617
H46_18 H 0.135158 0.475545 0.773796
C24_18 C 0.0992(2) 0.4630(3) 0.8454(2)
H47_18 H 0.101121 0.438303 0.828108
H48_18 H 0.073041 0.461689 0.860368
N12_18 N 0.13242(19) 0.4625(3) 0.87468(19)
Cl6_18 Cl 0.06295(4) 0.56295(4) 0.750000
O1_42 O 1.000000 0.500000 0.750000
P1_28 P 1.000000 0.68172(8) 0.67733(8)
N1_28 N 1.000000 0.5987(2) 0.68187(19)
Cu1_28 Cu 1.000000 0.54786(3) 0.71641(3)
Cl1_42 Cl 1.000000 0.500000 0.66140(8)
Cl2_18 Cl 0.93705(4) 0.56295(4) 0.750000
C2_28 C 1.000000 0.6355(2) 0.7085(2)
C3_28 C 1.000000 0.6310(4) 0.6007(3)
H4_28 H 0.999999 0.605642 0.584310
H5_28 H 1.000001 0.654340 0.581514
C5_18 C 0.9567(3) 0.6723(2) 0.6450(2)
H8_18 H 0.954397 0.693922 0.624064
H9_18 H 0.931300 0.672144 0.661383
H10_18 H 0.975545 0.635158 0.726204
C6_18 C 0.9630(3) 0.5992(2) 0.6546(2)
H11_18 H 0.938303 0.601121 0.671892
H12_18 H 0.961689 0.573041 0.639632
N3_18 N 0.9625(3) 0.63242(19) 0.62532(19)
P2_28 P 1.000000 0.31828(8) 0.67733(8)
N4_28 N 1.000000 0.4013(2) 0.68187(19)
C7_18 C 0.9567(3) 0.3277(2) 0.6450(2)
H13_18 H 0.954397 0.306078 0.624064
H14_18 H 0.931300 0.327856 0.661383
Cu3_28 Cu 1.000000 0.45214(3) 0.71641(3)
C8_28 C 1.000000 0.3645(2) 0.7085(2)
H15_18 H 0.975545 0.364842 0.726204
C9_28 C 1.000000 0.3690(4) 0.6007(3)
H16_28 H 1.000001 0.394358 0.584310
H17_28 H 0.999999 0.345660 0.581514
C10_18 C 0.9630(3) 0.4008(2) 0.6546(2)
H18_18 H 0.938303 0.398879 0.671892
H19_18 H 0.961689 0.426959 0.639632
N5_18 N 0.9625(3) 0.36758(19) 0.62532(19)
P3_26 P 0.81828(8) 0.500000 0.82267(8)
N7_26 N 0.9013(2) 0.500000 0.81813(19)
C13_18 C 0.8277(2) 0.4567(3) 0.8550(2)
H25_18 H 0.806078 0.454397 0.875936
H26_18 H 0.827856 0.431300 0.838617
Cu4_26 Cu 0.95214(3) 0.500000 0.78359(3)
Cl4_42 Cl 1.000000 0.500000 0.83860(8)
C14_26 C 0.8645(2) 0.500000 0.7915(2)
H27_18 H 0.864842 0.475545 0.773796
C15_26 C 0.8690(4) 0.500000 0.8993(3)
H28_26 H 0.894358 0.500001 0.915690
H29_26 H 0.845660 0.499999 0.918486
C16_18 C 0.9008(2) 0.4630(3) 0.8454(2)
H30_18 H 0.898879 0.438303 0.828108
H31_18 H 0.926959 0.461689 0.860368
N8_18 N 0.86758(19) 0.4625(3) 0.87468(19)
C17_18 C 0.8277(2) 0.5433(3) 0.8550(2)
H32_18 H 0.806078 0.545603 0.875936
H33_18 H 0.827856 0.568700 0.838617
H34_18 H 0.864842 0.524455 0.773796
C18_18 C 0.9008(2) 0.5370(3) 0.8454(2)
H35_18 H 0.898879 0.561697 0.828108
H36_18 H 0.926959 0.538311 0.860368
N9_18 N 0.86758(19) 0.5375(3) 0.87468(19)
Cl5_18 Cl 0.93705(4) 0.43705(4) 0.750000
O1_43 O 0.000000 0.750000 0.500000
P1_29 P 0.18172(8) 0.67733(8) 0.500000
N1_29 N 0.0987(2) 0.68187(19) 0.500000
C1_19 C 0.1723(2) 0.6450(2) 0.5433(3)
H1_19 H 0.193922 0.624064 0.545603
H2_19 H 0.172144 0.661383 0.568700
Cu1_29 Cu 0.04786(3) 0.71641(3) 0.500000
Cl1_43 Cl 0.000000 0.66140(8) 0.500000
Cl2_19 Cl 0.06295(4) 0.750000 0.43705(4)
C2_29 C 0.1355(2) 0.7085(2) 0.500000
H3_19 H 0.135158 0.726204 0.524455
C3_29 C 0.1310(4) 0.6007(3) 0.500000
H4_29 H 0.105642 0.584310 0.499999
H5_29 H 0.154340 0.581514 0.500001
C4_19 C 0.0992(2) 0.6546(2) 0.5370(3)
H6_19 H 0.101121 0.671892 0.561697
H7_19 H 0.073041 0.639632 0.538311
N2_19 N 0.13242(19) 0.62532(19) 0.5375(3)
C5_19 C 0.1723(2) 0.6450(2) 0.4567(3)
H8_19 H 0.193922 0.624064 0.454397
H9_19 H 0.172144 0.661383 0.431300
H10_19 H 0.135158 0.726204 0.475545
C6_19 C 0.0992(2) 0.6546(2) 0.4630(3)
H11_19 H 0.101121 0.671892 0.438303
H12_19 H 0.073041 0.639632 0.461689
N3_19 N 0.13242(19) 0.62532(19) 0.4625(3)
P3_27 P 0.000000 0.82267(8) 0.31828(8)
N7_27 N 0.000000 0.81813(19) 0.4013(2)
Cu4_27 Cu 0.000000 0.78359(3) 0.45214(3)
Cl4_43 Cl 0.000000 0.83860(8) 0.500000
C14_27 C 0.000000 0.7915(2) 0.3645(2)
C15_27 C 0.000000 0.8993(3) 0.3690(4)
H28_27 H 0.000001 0.915690 0.394358
H29_27 H -0.000001 0.918486 0.345660
C17_19 C 0.0433(3) 0.8550(2) 0.3277(2)
H32_19 H 0.045603 0.875936 0.306078
H33_19 H 0.068700 0.838617 0.327856
H34_19 H 0.024455 0.773796 0.364842
C18_19 C 0.0370(3) 0.8454(2) 0.4008(2)
H35_19 H 0.061697 0.828108 0.398879
H36_19 H 0.038311 0.860368 0.426959
N9_19 N 0.0375(3) 0.87468(19) 0.36758(19)
P4_27 P -0.000000 0.82267(8) 0.68172(8)
N10_27 N 0.000000 0.81813(19) 0.5987(2)
C19_19 C 0.0433(3) 0.8550(2) 0.6723(2)
H37_19 H 0.045603 0.875936 0.693922
H38_19 H 0.068700 0.838617 0.672144
Cu5_27 Cu 0.000000 0.78359(3) 0.54786(3)
C20_27 C 0.000000 0.7915(2) 0.6355(2)
H39_19 H 0.024455 0.773796 0.635158
C21_27 C -0.000000 0.8993(3) 0.6310(4)
H40_27 H -0.000001 0.915690 0.605642
H41_27 H 0.000001 0.918486 0.654340
C22_19 C 0.0370(3) 0.8454(2) 0.5992(2)
H42_19 H 0.061697 0.828108 0.601121
H43_19 H 0.038311 0.860368 0.573041
N11_19 N 0.0375(3) 0.87468(19) 0.63242(19)
Cl6_19 Cl 0.06295(4) 0.750000 0.56295(4)
O1_44 O 1.000000 0.750000 0.500000
Cl1_44 Cl 1.000000 0.66140(8) 0.500000
P2_29 P 0.81828(8) 0.67733(8) 0.500000
N4_29 N 0.9013(2) 0.68187(19) 0.500000
C7_19 C 0.8277(2) 0.6450(2) 0.4567(3)
H13_19 H 0.806078 0.624064 0.454397
H14_19 H 0.827856 0.661383 0.431300
Cu3_29 Cu 0.95214(3) 0.71641(3) 0.500000
Cl3_19 Cl 0.93705(4) 0.750000 0.56295(4)
C8_29 C 0.8645(2) 0.7085(2) 0.500000
H15_19 H 0.864842 0.726204 0.475545
C9_29 C 0.8690(4) 0.6007(3) 0.500000
H16_29 H 0.894358 0.584310 0.500001
H17_29 H 0.845660 0.581514 0.499999
C10_19 C 0.9008(2) 0.6546(2) 0.4630(3)
H18_19 H 0.898879 0.671892 0.438303
H19_19 H 0.926959 0.639632 0.461689
N5_19 N 0.86758(19) 0.62532(19) 0.4625(3)
C11_19 C 0.8277(2) 0.6450(2) 0.5433(3)
H20_19 H 0.806078 0.624064 0.545603
H21_19 H 0.827856 0.661383 0.568700
H22_19 H 0.864842 0.726204 0.524455
C12_19 C 0.9008(2) 0.6546(2) 0.5370(3)
H23_19 H 0.898879 0.671892 0.561697
H24_19 H 0.926959 0.639632 0.538311
N6_19 N 0.86758(19) 0.62532(19) 0.5375(3)
P3_28 P 1.000000 0.82267(8) 0.31828(8)
N7_28 N 1.000000 0.81813(19) 0.4013(2)
C13_19 C 0.9567(3) 0.8550(2) 0.3277(2)
H25_19 H 0.954397 0.875936 0.306078
H26_19 H 0.931300 0.838617 0.327856
Cu4_28 Cu 1.000000 0.78359(3) 0.45214(3)
Cl4_44 Cl 1.000000 0.83860(8) 0.500000
C14_28 C 1.000000 0.7915(2) 0.3645(2)
H27_19 H 0.975545 0.773796 0.364842
C15_28 C 1.000000 0.8993(3) 0.3690(4)
H28_28 H 1.000001 0.915690 0.394358
H29_28 H 0.999999 0.918486 0.345660
C16_19 C 0.9630(3) 0.8454(2) 0.4008(2)
H30_19 H 0.938303 0.828108 0.398879
H31_19 H 0.961689 0.860368 0.426959
N8_19 N 0.9625(3) 0.87468(19) 0.36758(19)
P4_28 P 1.000000 0.82267(8) 0.68172(8)
N10_28 N 1.000000 0.81813(19) 0.5987(2)
Cu5_28 Cu 1.000000 0.78359(3) 0.54786(3)
C20_28 C 1.000000 0.7915(2) 0.6355(2)
C21_28 C 1.000000 0.8993(3) 0.6310(4)
H40_28 H 0.999999 0.915690 0.605642
H41_28 H 1.000001 0.918486 0.654340
C23_19 C 0.9567(3) 0.8550(2) 0.6723(2)
H44_19 H 0.954397 0.875936 0.693922
H45_19 H 0.931300 0.838617 0.672144
H46_19 H 0.975545 0.773796 0.635158
C24_19 C 0.9630(3) 0.8454(2) 0.5992(2)
H47_19 H 0.938303 0.828108 0.601121
H48_19 H 0.961689 0.860368 0.573041
N12_19 N 0.9625(3) 0.87468(19) 0.63242(19)
Cl5_19 Cl 0.93705(4) 0.750000 0.43705(4)
O1_45 O -0.000000 0.250000 0.500000
P1_30 P 0.18172(8) 0.32267(8) 0.500000
N1_30 N 0.0987(2) 0.31813(19) 0.500000
C1_20 C 0.1723(2) 0.3550(2) 0.4567(3)
H1_20 H 0.193922 0.375936 0.454397
H2_20 H 0.172144 0.338617 0.431300
Cu1_30 Cu 0.04786(3) 0.28359(3) 0.500000
Cl1_45 Cl -0.000000 0.33860(8) 0.500000
Cl2_20 Cl 0.06295(4) 0.250000 0.56295(4)
C2_30 C 0.1355(2) 0.2915(2) 0.500000
H3_20 H 0.135158 0.273796 0.475545
C3_30 C 0.1310(4) 0.3993(3) 0.500000
H4_30 H 0.105642 0.415690 0.500001
H5_30 H 0.154340 0.418486 0.499999
C4_20 C 0.0992(2) 0.3454(2) 0.4630(3)
H6_20 H 0.101121 0.328108 0.438303
H7_20 H 0.073041 0.360368 0.461689
N2_20 N 0.13242(19) 0.37468(19) 0.4625(3)
C5_20 C 0.1723(2) 0.3550(2) 0.5433(3)
H8_20 H 0.193922 0.375936 0.545603
H9_20 H 0.172144 0.338617 0.568700
H10_20 H 0.135158 0.273796 0.524455
C6_20 C 0.0992(2) 0.3454(2) 0.5370(3)
H11_20 H 0.101121 0.328108 0.561697
H12_20 H 0.073041 0.360368 0.538311
N3_20 N 0.13242(19) 0.37468(19) 0.5375(3)
P3_29 P -0.000000 0.17733(8) 0.68172(8)
N7_29 N 0.000000 0.18187(19) 0.5987(2)
Cu4_29 Cu 0.000000 0.21641(3) 0.54786(3)
Cl4_45 Cl 0.000000 0.16140(8) 0.500000
C14_29 C 0.000000 0.2085(2) 0.6355(2)
C15_29 C -0.000000 0.1007(3) 0.6310(4)
H28_29 H 0.000001 0.084310 0.605642
H29_29 H -0.000001 0.081514 0.654340
C17_20 C 0.0433(3) 0.1450(2) 0.6723(2)
H32_20 H 0.045603 0.124064 0.693922
H33_20 H 0.068700 0.161383 0.672144
H34_20 H 0.024455 0.226204 0.635158
C18_20 C 0.0370(3) 0.1546(2) 0.5992(2)
H35_20 H 0.061697 0.171892 0.601121
H36_20 H 0.038311 0.139632 0.573041
N9_20 N 0.0375(3) 0.12532(19) 0.63242(19)
P4_29 P 0.000000 0.17733(8) 0.31828(8)
N10_29 N -0.000000 0.18187(19) 0.4013(2)
C19_20 C 0.0433(3) 0.1450(2) 0.3277(2)
H37_20 H 0.045603 0.124064 0.306078
H38_20 H 0.068700 0.161383 0.327856
Cu5_29 Cu 0.000000 0.21641(3) 0.45214(3)
C20_29 C 0.000000 0.2085(2) 0.3645(2)
H39_20 H 0.024455 0.226204 0.364842
C21_29 C 0.000000 0.1007(3) 0.3690(4)
H40_29 H -0.000001 0.084310 0.394358
H41_29 H 0.000001 0.081514 0.345660
C22_20 C 0.0370(3) 0.1546(2) 0.4008(2)
H42_20 H 0.061697 0.171892 0.398879
H43_20 H 0.038311 0.139632 0.426959
N11_20 N 0.0375(3) 0.12532(19) 0.36758(19)
Cl6_20 Cl 0.06295(4) 0.250000 0.43705(4)
O1_46 O 1.000000 0.250000 0.500000
Cl1_46 Cl 1.000000 0.33860(8) 0.500000
P2_30 P 0.81828(8) 0.32267(8) 0.500000
N4_30 N 0.9013(2) 0.31813(19) 0.500000
C7_20 C 0.8277(2) 0.3550(2) 0.5433(3)
H13_20 H 0.806078 0.375936 0.545603
H14_20 H 0.827856 0.338617 0.568700
Cu3_30 Cu 0.95214(3) 0.28359(3) 0.500000
Cl3_20 Cl 0.93705(4) 0.250000 0.43705(4)
C8_30 C 0.8645(2) 0.2915(2) 0.500000
H15_20 H 0.864842 0.273796 0.524455
C9_30 C 0.8690(4) 0.3993(3) 0.500000
H16_30 H 0.894358 0.415690 0.499999
H17_30 H 0.845660 0.418486 0.500001
C10_20 C 0.9008(2) 0.3454(2) 0.5370(3)
H18_20 H 0.898879 0.328108 0.561697
H19_20 H 0.926959 0.360368 0.538311
N5_20 N 0.86758(19) 0.37468(19) 0.5375(3)
C11_20 C 0.8277(2) 0.3550(2) 0.4567(3)
H20_20 H 0.806078 0.375936 0.454397
H21_20 H 0.827856 0.338617 0.431300
H22_20 H 0.864842 0.273796 0.475545
C12_20 C 0.9008(2) 0.3454(2) 0.4630(3)
H23_20 H 0.898879 0.328108 0.438303
H24_20 H 0.926959 0.360368 0.461689
N6_20 N 0.86758(19) 0.37468(19) 0.4625(3)
P3_30 P 1.000000 0.17733(8) 0.68172(8)
N7_30 N 1.000000 0.18187(19) 0.5987(2)
C13_20 C 0.9567(3) 0.1450(2) 0.6723(2)
H25_20 H 0.954397 0.124064 0.693922
H26_20 H 0.931300 0.161383 0.672144
Cu4_30 Cu 1.000000 0.21641(3) 0.54786(3)
Cl4_46 Cl 1.000000 0.16140(8) 0.500000
C14_30 C 1.000000 0.2085(2) 0.6355(2)
H27_20 H 0.975545 0.226204 0.635158
C15_30 C 1.000000 0.1007(3) 0.6310(4)
H28_30 H 1.000001 0.084310 0.605642
H29_30 H 0.999999 0.081514 0.654340
C16_20 C 0.9630(3) 0.1546(2) 0.5992(2)
H30_20 H 0.938303 0.171892 0.601121
H31_20 H 0.961689 0.139632 0.573041
N8_20 N 0.9625(3) 0.12532(19) 0.63242(19)
P4_30 P 1.000000 0.17733(8) 0.31828(8)
N10_30 N 1.000000 0.18187(19) 0.4013(2)
Cu5_30 Cu 1.000000 0.21641(3) 0.45214(3)
C20_30 C 1.000000 0.2085(2) 0.3645(2)
C21_30 C 1.000000 0.1007(3) 0.3690(4)
H40_30 H 0.999999 0.084310 0.394358
H41_30 H 1.000001 0.081514 0.345660
C23_20 C 0.9567(3) 0.1450(2) 0.3277(2)
H44_20 H 0.954397 0.124064 0.306078
H45_20 H 0.931300 0.161383 0.327856
H46_20 H 0.975545 0.226204 0.364842
C24_20 C 0.9630(3) 0.1546(2) 0.4008(2)
H47_20 H 0.938303 0.171892 0.398879
H48_20 H 0.961689 0.139632 0.426959
N12_20 N 0.9625(3) 0.12532(19) 0.36758(19)
Cl5_20 Cl 0.93705(4) 0.250000 0.56295(4)
O1_47 O 0.250000 0.500000 -0.000000
P1_31 P 0.17733(8) 0.68172(8) -0.000000
N1_31 N 0.18187(19) 0.5987(2) -0.000000
Cu1_31 Cu 0.21641(3) 0.54786(3) -0.000000
Cl1_47 Cl 0.16140(8) 0.500000 -0.000000
Cl2_21 Cl 0.250000 0.56295(4) 0.06295(4)
C2_31 C 0.2085(2) 0.6355(2) -0.000000
C3_31 C 0.1007(3) 0.6310(4) -0.000000
H4_31 H 0.084310 0.605642 0.000001
H5_31 H 0.081514 0.654340 -0.000001
C5_21 C 0.1450(2) 0.6723(2) 0.0433(3)
H8_21 H 0.124064 0.693922 0.045603
H9_21 H 0.161383 0.672144 0.068700
H10_21 H 0.226204 0.635158 0.024455
C6_21 C 0.1546(2) 0.5992(2) 0.0370(3)
H11_21 H 0.171892 0.601121 0.061697
H12_21 H 0.139632 0.573041 0.038311
N3_21 N 0.12532(19) 0.63242(19) 0.0375(3)
P2_31 P 0.17733(8) 0.31828(8) -0.000000
N4_31 N 0.18187(19) 0.4013(2) -0.000000
C7_21 C 0.1450(2) 0.3277(2) 0.0433(3)
H13_21 H 0.124064 0.306078 0.045603
H14_21 H 0.161383 0.327856 0.068700
Cu3_31 Cu 0.21641(3) 0.45214(3) -0.000000
C8_31 C 0.2085(2) 0.3645(2) -0.000000
H15_21 H 0.226204 0.364842 0.024455
C9_31 C 0.1007(3) 0.3690(4) -0.000000
H16_31 H 0.084310 0.394358 -0.000001
H17_31 H 0.081514 0.345660 0.000001
C10_21 C 0.1546(2) 0.4008(2) 0.0370(3)
H18_21 H 0.171892 0.398879 0.061697
H19_21 H 0.139632 0.426959 0.038311
N5_21 N 0.12532(19) 0.36758(19) 0.0375(3)
P3_31 P 0.32267(8) 0.500000 0.18172(8)
N7_31 N 0.31813(19) 0.500000 0.0987(2)
C13_21 C 0.3550(2) 0.4567(3) 0.1723(2)
H25_21 H 0.375936 0.454397 0.193922
H26_21 H 0.338617 0.431300 0.172144
Cu4_31 Cu 0.28359(3) 0.500000 0.04786(3)
Cl4_47 Cl 0.33860(8) 0.500000 -0.000000
C14_31 C 0.2915(2) 0.500000 0.1355(2)
H27_21 H 0.273796 0.475545 0.135158
C15_31 C 0.3993(3) 0.500000 0.1310(4)
H28_31 H 0.415690 0.500001 0.105642
H29_31 H 0.418486 0.499999 0.154340
C16_21 C 0.3454(2) 0.4630(3) 0.0992(2)
H30_21 H 0.328108 0.438303 0.101121
H31_21 H 0.360368 0.461689 0.073041
N8_21 N 0.37468(19) 0.4625(3) 0.13242(19)
C17_21 C 0.3550(2) 0.5433(3) 0.1723(2)
H32_21 H 0.375936 0.545603 0.193922
H33_21 H 0.338617 0.568700 0.172144
H34_21 H 0.273796 0.524455 0.135158
C18_21 C 0.3454(2) 0.5370(3) 0.0992(2)
H35_21 H 0.328108 0.561697 0.101121
H36_21 H 0.360368 0.538311 0.073041
N9_21 N 0.37468(19) 0.5375(3) 0.13242(19)
Cl5_21 Cl 0.250000 0.43705(4) 0.06295(4)
O1_48 O 0.250000 0.500000 1.000000
P1_32 P 0.17733(8) 0.68172(8) 1.000000
N1_32 N 0.18187(19) 0.5987(2) 1.000000
C1_21 C 0.1450(2) 0.6723(2) 0.9567(3)
H1_21 H 0.124064 0.693922 0.954397
H2_21 H 0.161383 0.672144 0.931300
Cu1_32 Cu 0.21641(3) 0.54786(3) 1.000000
Cl1_48 Cl 0.16140(8) 0.500000 1.000000
C2_32 C 0.2085(2) 0.6355(2) 1.000000
H3_21 H 0.226204 0.635158 0.975545
C3_32 C 0.1007(3) 0.6310(4) 1.000000
H4_32 H 0.084310 0.605642 1.000001
H5_32 H 0.081514 0.654340 0.999999
C4_21 C 0.1546(2) 0.5992(2) 0.9630(3)
H6_21 H 0.171892 0.601121 0.938303
H7_21 H 0.139632 0.573041 0.961689
N2_21 N 0.12532(19) 0.63242(19) 0.9625(3)
P2_32 P 0.17733(8) 0.31828(8) 1.000000
N4_32 N 0.18187(19) 0.4013(2) 1.000000
Cu3_32 Cu 0.21641(3) 0.45214(3) 1.000000
Cl3_21 Cl 0.250000 0.43705(4) 0.93705(4)
C8_32 C 0.2085(2) 0.3645(2) 1.000000
C9_32 C 0.1007(3) 0.3690(4) 1.000000
H16_32 H 0.084310 0.394358 0.999999
H17_32 H 0.081514 0.345660 1.000001
C11_21 C 0.1450(2) 0.3277(2) 0.9567(3)
H20_21 H 0.124064 0.306078 0.954397
H21_21 H 0.161383 0.327856 0.931300
H22_21 H 0.226204 0.364842 0.975545
C12_21 C 0.1546(2) 0.4008(2) 0.9630(3)
H23_21 H 0.171892 0.398879 0.938303
H24_21 H 0.139632 0.426959 0.961689
N6_21 N 0.12532(19) 0.36758(19) 0.9625(3)
Cl4_48 Cl 0.33860(8) 0.500000 1.000000
P4_31 P 0.32267(8) 0.500000 0.81828(8)
N10_31 N 0.31813(19) 0.500000 0.9013(2)
C19_21 C 0.3550(2) 0.5433(3) 0.8277(2)
H37_21 H 0.375936 0.545603 0.806078
H38_21 H 0.338617 0.568700 0.827856
Cu5_31 Cu 0.28359(3) 0.500000 0.95214(3)
C20_31 C 0.2915(2) 0.500000 0.8645(2)
H39_21 H 0.273796 0.524455 0.864842
C21_31 C 0.3993(3) 0.500000 0.8690(4)
H40_31 H 0.415690 0.499999 0.894358
H41_31 H 0.418486 0.500001 0.845660
C22_21 C 0.3454(2) 0.5370(3) 0.9008(2)
H42_21 H 0.328108 0.561697 0.898879
H43_21 H 0.360368 0.538311 0.926959
N11_21 N 0.37468(19) 0.5375(3) 0.86758(19)
C23_21 C 0.3550(2) 0.4567(3) 0.8277(2)
H44_21 H 0.375936 0.454397 0.806078
H45_21 H 0.338617 0.431300 0.827856
H46_21 H 0.273796 0.475545 0.864842
C24_21 C 0.3454(2) 0.4630(3) 0.9008(2)
H47_21 H 0.328108 0.438303 0.898879
H48_21 H 0.360368 0.461689 0.926959
N12_21 N 0.37468(19) 0.4625(3) 0.86758(19)
Cl6_21 Cl 0.250000 0.56295(4) 0.93705(4)
O1_49 O 0.750000 0.500000 0.000000
P1_33 P 0.82267(8) 0.68172(8) 0.000000
N1_33 N 0.81813(19) 0.5987(2) 0.000000
C1_22 C 0.8550(2) 0.6723(2) 0.0433(3)
H1_22 H 0.875936 0.693922 0.045603
H2_22 H 0.838617 0.672144 0.068700
Cu1_33 Cu 0.78359(3) 0.54786(3) 0.000000
Cl1_49 Cl 0.83860(8) 0.500000 0.000000
C2_33 C 0.7915(2) 0.6355(2) 0.000000
H3_22 H 0.773796 0.635158 0.024455
C3_33 C 0.8993(3) 0.6310(4) 0.000000
H4_33 H 0.915690 0.605642 -0.000001
H5_33 H 0.918486 0.654340 0.000001
C4_22 C 0.8454(2) 0.5992(2) 0.0370(3)
H6_22 H 0.828108 0.601121 0.061697
H7_22 H 0.860368 0.573041 0.038311
N2_22 N 0.87468(19) 0.63242(19) 0.0375(3)
P2_33 P 0.82267(8) 0.31828(8) 0.000000
N4_33 N 0.81813(19) 0.4013(2) 0.000000
Cu3_33 Cu 0.78359(3) 0.45214(3) 0.000000
Cl3_22 Cl 0.750000 0.43705(4) 0.06295(4)
C8_33 C 0.7915(2) 0.3645(2) 0.000000
C9_33 C 0.8993(3) 0.3690(4) 0.000000
H16_33 H 0.915690 0.394358 0.000001
H17_33 H 0.918486 0.345660 -0.000001
C11_22 C 0.8550(2) 0.3277(2) 0.0433(3)
H20_22 H 0.875936 0.306078 0.045603
H21_22 H 0.838617 0.327856 0.068700
H22_22 H 0.773796 0.364842 0.024455
C12_22 C 0.8454(2) 0.4008(2) 0.0370(3)
H23_22 H 0.828108 0.398879 0.061697
H24_22 H 0.860368 0.426959 0.038311
N6_22 N 0.87468(19) 0.36758(19) 0.0375(3)
Cl4_49 Cl 0.66140(8) 0.500000 0.000000
P4_32 P 0.67733(8) 0.500000 0.18172(8)
N10_32 N 0.68187(19) 0.500000 0.0987(2)
C19_22 C 0.6450(2) 0.5433(3) 0.1723(2)
H37_22 H 0.624064 0.545603 0.193922
H38_22 H 0.661383 0.568700 0.172144
Cu5_32 Cu 0.71641(3) 0.500000 0.04786(3)
C20_32 C 0.7085(2) 0.500000 0.1355(2)
H39_22 H 0.726204 0.524455 0.135158
C21_32 C 0.6007(3) 0.500000 0.1310(4)
H40_32 H 0.584310 0.499999 0.105642
H41_32 H 0.581514 0.500001 0.154340
C22_22 C 0.6546(2) 0.5370(3) 0.0992(2)
H42_22 H 0.671892 0.561697 0.101121
H43_22 H 0.639632 0.538311 0.073041
N11_22 N 0.62532(19) 0.5375(3) 0.13242(19)
C23_22 C 0.6450(2) 0.4567(3) 0.1723(2)
H44_22 H 0.624064 0.454397 0.193922
H45_22 H 0.661383 0.431300 0.172144
H46_22 H 0.726204 0.475545 0.135158
C24_22 C 0.6546(2) 0.4630(3) 0.0992(2)
H47_22 H 0.671892 0.438303 0.101121
H48_22 H 0.639632 0.461689 0.073041
N12_22 N 0.62532(19) 0.4625(3) 0.13242(19)
Cl6_22 Cl 0.750000 0.56295(4) 0.06295(4)
O1_50 O 0.750000 0.500000 1.000000
P1_34 P 0.82267(8) 0.68172(8) 1.000000
N1_34 N 0.81813(19) 0.5987(2) 1.000000
Cu1_34 Cu 0.78359(3) 0.54786(3) 1.000000
Cl1_50 Cl 0.83860(8) 0.500000 1.000000
Cl2_22 Cl 0.750000 0.56295(4) 0.93705(4)
C2_34 C 0.7915(2) 0.6355(2) 1.000000
C3_34 C 0.8993(3) 0.6310(4) 1.000000
H4_34 H 0.915690 0.605642 0.999999
H5_34 H 0.918486 0.654340 1.000001
C5_22 C 0.8550(2) 0.6723(2) 0.9567(3)
H8_22 H 0.875936 0.693922 0.954397
H9_22 H 0.838617 0.672144 0.931300
H10_22 H 0.773796 0.635158 0.975545
C6_22 C 0.8454(2) 0.5992(2) 0.9630(3)
H11_22 H 0.828108 0.601121 0.938303
H12_22 H 0.860368 0.573041 0.961689
N3_22 N 0.87468(19) 0.63242(19) 0.9625(3)
P2_34 P 0.82267(8) 0.31828(8) 1.000000
N4_34 N 0.81813(19) 0.4013(2) 1.000000
C7_22 C 0.8550(2) 0.3277(2) 0.9567(3)
H13_22 H 0.875936 0.306078 0.954397
H14_22 H 0.838617 0.327856 0.931300
Cu3_34 Cu 0.78359(3) 0.45214(3) 1.000000
C8_34 C 0.7915(2) 0.3645(2) 1.000000
H15_22 H 0.773796 0.364842 0.975545
C9_34 C 0.8993(3) 0.3690(4) 1.000000
H16_34 H 0.915690 0.394358 1.000001
H17_34 H 0.918486 0.345660 0.999999
C10_22 C 0.8454(2) 0.4008(2) 0.9630(3)
H18_22 H 0.828108 0.398879 0.938303
H19_22 H 0.860368 0.426959 0.961689
N5_22 N 0.87468(19) 0.36758(19) 0.9625(3)
P3_32 P 0.67733(8) 0.500000 0.81828(8)
N7_32 N 0.68187(19) 0.500000 0.9013(2)
C13_22 C 0.6450(2) 0.4567(3) 0.8277(2)
H25_22 H 0.624064 0.454397 0.806078
H26_22 H 0.661383 0.431300 0.827856
Cu4_32 Cu 0.71641(3) 0.500000 0.95214(3)
Cl4_50 Cl 0.66140(8) 0.500000 1.000000
C14_32 C 0.7085(2) 0.500000 0.8645(2)
H27_22 H 0.726204 0.475545 0.864842
C15_32 C 0.6007(3) 0.500000 0.8690(4)
H28_32 H 0.584310 0.500001 0.894358
H29_32 H 0.581514 0.499999 0.845660
C16_22 C 0.6546(2) 0.4630(3) 0.9008(2)
H30_22 H 0.671892 0.438303 0.898879
H31_22 H 0.639632 0.461689 0.926959
N8_22 N 0.62532(19) 0.4625(3) 0.86758(19)
C17_22 C 0.6450(2) 0.5433(3) 0.8277(2)
H32_22 H 0.624064 0.545603 0.806078
H33_22 H 0.661383 0.568700 0.827856
H34_22 H 0.726204 0.524455 0.864842
C18_22 C 0.6546(2) 0.5370(3) 0.9008(2)
H35_22 H 0.671892 0.561697 0.898879
H36_22 H 0.639632 0.538311 0.926959
N9_22 N 0.62532(19) 0.5375(3) 0.86758(19)
Cl5_22 Cl 0.750000 0.43705(4) 0.93705(4)
O1_51 O 0.750000 -0.000000 0.500000
P1_35 P 0.67733(8) -0.000000 0.31828(8)
N1_35 N 0.68187(19) -0.000000 0.4013(2)
Cu1_35 Cu 0.71641(3) -0.000000 0.45214(3)
Cl1_51 Cl 0.66140(8) -0.000000 0.500000
Cl2_23 Cl 0.750000 0.06295(4) 0.43705(4)
C2_35 C 0.7085(2) -0.000000 0.3645(2)
C3_35 C 0.6007(3) -0.000000 0.3690(4)
H4_35 H 0.584310 0.000001 0.394358
H5_35 H 0.581514 -0.000001 0.345660
C5_23 C 0.6450(2) 0.0433(3) 0.3277(2)
H8_23 H 0.624064 0.045603 0.306078
H9_23 H 0.661383 0.068700 0.327856
H10_23 H 0.726204 0.024455 0.364842
C6_23 C 0.6546(2) 0.0370(3) 0.4008(2)
H11_23 H 0.671892 0.061697 0.398879
H12_23 H 0.639632 0.038311 0.426959
N3_23 N 0.62532(19) 0.0375(3) 0.36758(19)
P2_35 P 0.67733(8) -0.000000 0.68172(8)
N4_35 N 0.68187(19) -0.000000 0.5987(2)
C7_23 C 0.6450(2) 0.0433(3) 0.6723(2)
H13_23 H 0.624064 0.045603 0.693922
H14_23 H 0.661383 0.068700 0.672144
Cu3_35 Cu 0.71641(3) -0.000000 0.54786(3)
C8_35 C 0.7085(2) -0.000000 0.6355(2)
H15_23 H 0.726204 0.024455 0.635158
C9_35 C 0.6007(3) -0.000000 0.6310(4)
H16_35 H 0.584310 -0.000001 0.605642
H17_35 H 0.581514 0.000001 0.654340
C10_23 C 0.6546(2) 0.0370(3) 0.5992(2)
H18_23 H 0.671892 0.061697 0.601121
H19_23 H 0.639632 0.038311 0.573041
N5_23 N 0.62532(19) 0.0375(3) 0.63242(19)
P3_33 P 0.82267(8) 0.18172(8) 0.500000
N7_33 N 0.81813(19) 0.0987(2) 0.500000
C13_23 C 0.8550(2) 0.1723(2) 0.5433(3)
H25_23 H 0.875936 0.193922 0.545603
H26_23 H 0.838617 0.172144 0.568700
Cu4_33 Cu 0.78359(3) 0.04786(3) 0.500000
Cl4_51 Cl 0.83860(8) -0.000000 0.500000
C14_33 C 0.7915(2) 0.1355(2) 0.500000
H27_23 H 0.773796 0.135158 0.524455
C15_33 C 0.8993(3) 0.1310(4) 0.500000
H28_33 H 0.915690 0.105642 0.499999
H29_33 H 0.918486 0.154340 0.500001
C16_23 C 0.8454(2) 0.0992(2) 0.5370(3)
H30_23 H 0.828108 0.101121 0.561697
H31_23 H 0.860368 0.073041 0.538311
N8_23 N 0.87468(19) 0.13242(19) 0.5375(3)
C17_23 C 0.8550(2) 0.1723(2) 0.4567(3)
H32_23 H 0.875936 0.193922 0.454397
H33_23 H 0.838617 0.172144 0.431300
H34_23 H 0.773796 0.135158 0.475545
C18_23 C 0.8454(2) 0.0992(2) 0.4630(3)
H35_23 H 0.828108 0.101121 0.438303
H36_23 H 0.860368 0.073041 0.461689
N9_23 N 0.87468(19) 0.13242(19) 0.4625(3)
Cl5_23 Cl 0.750000 0.06295(4) 0.56295(4)
O1_52 O 0.750000 1.000000 0.500000
P1_36 P 0.67733(8) 1.000000 0.31828(8)
N1_36 N 0.68187(19) 1.000000 0.4013(2)
C1_23 C 0.6450(2) 0.9567(3) 0.3277(2)
H1_23 H 0.624064 0.954397 0.306078
H2_23 H 0.661383 0.931300 0.327856
Cu1_36 Cu 0.71641(3) 1.000000 0.45214(3)
Cl1_52 Cl 0.66140(8) 1.000000 0.500000
C2_36 C 0.7085(2) 1.000000 0.3645(2)
H3_23 H 0.726204 0.975545 0.364842
C3_36 C 0.6007(3) 1.000000 0.3690(4)
H4_36 H 0.584310 1.000001 0.394358
H5_36 H 0.581514 0.999999 0.345660
C4_23 C 0.6546(2) 0.9630(3) 0.4008(2)
H6_23 H 0.671892 0.938303 0.398879
H7_23 H 0.639632 0.961689 0.426959
N2_23 N 0.62532(19) 0.9625(3) 0.36758(19)
P2_36 P 0.67733(8) 1.000000 0.68172(8)
N4_36 N 0.68187(19) 1.000000 0.5987(2)
Cu3_36 Cu 0.71641(3) 1.000000 0.54786(3)
Cl3_23 Cl 0.750000 0.93705(4) 0.56295(4)
C8_36 C 0.7085(2) 1.000000 0.6355(2)
C9_36 C 0.6007(3) 1.000000 0.6310(4)
H16_36 H 0.584310 0.999999 0.605642
H17_36 H 0.581514 1.000001 0.654340
C11_23 C 0.6450(2) 0.9567(3) 0.6723(2)
H20_23 H 0.624064 0.954397 0.693922
H21_23 H 0.661383 0.931300 0.672144
H22_23 H 0.726204 0.975545 0.635158
C12_23 C 0.6546(2) 0.9630(3) 0.5992(2)
H23_23 H 0.671892 0.938303 0.601121
H24_23 H 0.639632 0.961689 0.573041
N6_23 N 0.62532(19) 0.9625(3) 0.63242(19)
Cl4_52 Cl 0.83860(8) 1.000000 0.500000
P4_33 P 0.82267(8) 0.81828(8) 0.500000
N10_33 N 0.81813(19) 0.9013(2) 0.500000
C19_23 C 0.8550(2) 0.8277(2) 0.4567(3)
H37_23 H 0.875936 0.806078 0.454397
H38_23 H 0.838617 0.827856 0.431300
Cu5_33 Cu 0.78359(3) 0.95214(3) 0.500000
C20_33 C 0.7915(2) 0.8645(2) 0.500000
H39_23 H 0.773796 0.864842 0.475545
C21_33 C 0.8993(3) 0.8690(4) 0.500000
H40_33 H 0.915690 0.894358 0.500001
H41_33 H 0.918486 0.845660 0.499999
C22_23 C 0.8454(2) 0.9008(2) 0.4630(3)
H42_23 H 0.828108 0.898879 0.438303
H43_23 H 0.860368 0.926959 0.461689
N11_23 N 0.87468(19) 0.86758(19) 0.4625(3)
C23_23 C 0.8550(2) 0.8277(2) 0.5433(3)
H44_23 H 0.875936 0.806078 0.545603
H45_23 H 0.838617 0.827856 0.568700
H46_23 H 0.773796 0.864842 0.524455
C24_23 C 0.8454(2) 0.9008(2) 0.5370(3)
H47_23 H 0.828108 0.898879 0.561697
H48_23 H 0.860368 0.926959 0.538311
N12_23 N 0.87468(19) 0.86758(19) 0.5375(3)
Cl6_23 Cl 0.750000 0.93705(4) 0.43705(4)
O1_53 O 0.250000 0.000000 0.500000
P1_37 P 0.32267(8) 0.000000 0.31828(8)
N1_37 N 0.31813(19) 0.000000 0.4013(2)
C1_24 C 0.3550(2) 0.0433(3) 0.3277(2)
H1_24 H 0.375936 0.045603 0.306078
H2_24 H 0.338617 0.068700 0.327856
Cu1_37 Cu 0.28359(3) 0.000000 0.45214(3)
Cl1_53 Cl 0.33860(8) 0.000000 0.500000
C2_37 C 0.2915(2) 0.000000 0.3645(2)
H3_24 H 0.273796 0.024455 0.364842
C3_37 C 0.3993(3) 0.000000 0.3690(4)
H4_37 H 0.415690 -0.000001 0.394358
H5_37 H 0.418486 0.000001 0.345660
C4_24 C 0.3454(2) 0.0370(3) 0.4008(2)
H6_24 H 0.328108 0.061697 0.398879
H7_24 H 0.360368 0.038311 0.426959
N2_24 N 0.37468(19) 0.0375(3) 0.36758(19)
P2_37 P 0.32267(8) 0.000000 0.68172(8)
N4_37 N 0.31813(19) 0.000000 0.5987(2)
Cu3_37 Cu 0.28359(3) 0.000000 0.54786(3)
Cl3_24 Cl 0.250000 0.06295(4) 0.56295(4)
C8_37 C 0.2915(2) 0.000000 0.6355(2)
C9_37 C 0.3993(3) 0.000000 0.6310(4)
H16_37 H 0.415690 0.000001 0.605642
H17_37 H 0.418486 -0.000001 0.654340
C11_24 C 0.3550(2) 0.0433(3) 0.6723(2)
H20_24 H 0.375936 0.045603 0.693922
H21_24 H 0.338617 0.068700 0.672144
H22_24 H 0.273796 0.024455 0.635158
C12_24 C 0.3454(2) 0.0370(3) 0.5992(2)
H23_24 H 0.328108 0.061697 0.601121
H24_24 H 0.360368 0.038311 0.573041
N6_24 N 0.37468(19) 0.0375(3) 0.63242(19)
Cl4_53 Cl 0.16140(8) 0.000000 0.500000
P4_34 P 0.17733(8) 0.18172(8) 0.500000
N10_34 N 0.18187(19) 0.0987(2) 0.500000
C19_24 C 0.1450(2) 0.1723(2) 0.4567(3)
H37_24 H 0.124064 0.193922 0.454397
H38_24 H 0.161383 0.172144 0.431300
Cu5_34 Cu 0.21641(3) 0.04786(3) 0.500000
C20_34 C 0.2085(2) 0.1355(2) 0.500000
H39_24 H 0.226204 0.135158 0.475545
C21_34 C 0.1007(3) 0.1310(4) 0.500000
H40_34 H 0.084310 0.105642 0.500001
H41_34 H 0.081514 0.154340 0.499999
C22_24 C 0.1546(2) 0.0992(2) 0.4630(3)
H42_24 H 0.171892 0.101121 0.438303
H43_24 H 0.139632 0.073041 0.461689
N11_24 N 0.12532(19) 0.13242(19) 0.4625(3)
C23_24 C 0.1450(2) 0.1723(2) 0.5433(3)
H44_24 H 0.124064 0.193922 0.545603
H45_24 H 0.161383 0.172144 0.568700
H46_24 H 0.226204 0.135158 0.524455
C24_24 C 0.1546(2) 0.0992(2) 0.5370(3)
H47_24 H 0.171892 0.101121 0.561697
H48_24 H 0.139632 0.073041 0.538311
N12_24 N 0.12532(19) 0.13242(19) 0.5375(3)
Cl6_24 Cl 0.250000 0.06295(4) 0.43705(4)
O1_54 O 0.250000 1.000000 0.500000
P1_38 P 0.32267(8) 1.000000 0.31828(8)
N1_38 N 0.31813(19) 1.000000 0.4013(2)
Cu1_38 Cu 0.28359(3) 1.000000 0.45214(3)
Cl1_54 Cl 0.33860(8) 1.000000 0.500000
Cl2_24 Cl 0.250000 0.93705(4) 0.43705(4)
C2_38 C 0.2915(2) 1.000000 0.3645(2)
C3_38 C 0.3993(3) 1.000000 0.3690(4)
H4_38 H 0.415690 0.999999 0.394358
H5_38 H 0.418486 1.000001 0.345660
C5_24 C 0.3550(2) 0.9567(3) 0.3277(2)
H8_24 H 0.375936 0.954397 0.306078
H9_24 H 0.338617 0.931300 0.327856
H10_24 H 0.273796 0.975545 0.364842
C6_24 C 0.3454(2) 0.9630(3) 0.4008(2)
H11_24 H 0.328108 0.938303 0.398879
H12_24 H 0.360368 0.961689 0.426959
N3_24 N 0.37468(19) 0.9625(3) 0.36758(19)
P2_38 P 0.32267(8) 1.000000 0.68172(8)
N4_38 N 0.31813(19) 1.000000 0.5987(2)
C7_24 C 0.3550(2) 0.9567(3) 0.6723(2)
H13_24 H 0.375936 0.954397 0.693922
H14_24 H 0.338617 0.931300 0.672144
Cu3_38 Cu 0.28359(3) 1.000000 0.54786(3)
C8_38 C 0.2915(2) 1.000000 0.6355(2)
H15_24 H 0.273796 0.975545 0.635158
C9_38 C 0.3993(3) 1.000000 0.6310(4)
H16_38 H 0.415690 1.000001 0.605642
H17_38 H 0.418486 0.999999 0.654340
C10_24 C 0.3454(2) 0.9630(3) 0.5992(2)
H18_24 H 0.328108 0.938303 0.601121
H19_24 H 0.360368 0.961689 0.573041
N5_24 N 0.37468(19) 0.9625(3) 0.63242(19)
P3_34 P 0.17733(8) 0.81828(8) 0.500000
N7_34 N 0.18187(19) 0.9013(2) 0.500000
C13_24 C 0.1450(2) 0.8277(2) 0.5433(3)
H25_24 H 0.124064 0.806078 0.545603
H26_24 H 0.161383 0.827856 0.568700
Cu4_34 Cu 0.21641(3) 0.95214(3) 0.500000
Cl4_54 Cl 0.16140(8) 1.000000 0.500000
C14_34 C 0.2085(2) 0.8645(2) 0.500000
H27_24 H 0.226204 0.864842 0.524455
C15_34 C 0.1007(3) 0.8690(4) 0.500000
H28_34 H 0.084310 0.894358 0.499999
H29_34 H 0.081514 0.845660 0.500001
C16_24 C 0.1546(2) 0.9008(2) 0.5370(3)
H30_24 H 0.171892 0.898879 0.561697
H31_24 H 0.139632 0.926959 0.538311
N8_24 N 0.12532(19) 0.86758(19) 0.5375(3)
C17_24 C 0.1450(2) 0.8277(2) 0.4567(3)
H32_24 H 0.124064 0.806078 0.454397
H33_24 H 0.161383 0.827856 0.431300
H34_24 H 0.226204 0.864842 0.475545
C18_24 C 0.1546(2) 0.9008(2) 0.4630(3)
H35_24 H 0.171892 0.898879 0.438303
H36_24 H 0.139632 0.926959 0.461689
N9_24 N 0.12532(19) 0.86758(19) 0.4625(3)
Cl5_24 Cl 0.250000 0.93705(4) 0.56295(4)
loop_
_geom_bond_atom_site_label_1
_geom_bond_atom_site_label_2
_geom_bond_site_symmetry_1
_geom_bond_site_symmetry_2
O1 Cu1 1_555 1_555
P1 C1 1_555 1_555
N1 Cu1 1_555 1_555
C1 H1 1_555 1_555
H2 C1 1_555 1_555
O2 Cu2 1_555 1_555
Cu1 Cl1 1_555 1_555
O3 P1 1_555 1_555
Cl1 Cu3 1_555 1_555
Cu2 O3 1_555 1_555
Cl2 Cu1 1_555 1_555
C2 P1 1_555 1_555
H3 C2 1_555 1_555
C3 H4 1_555 1_555
H5 C3 1_555 1_555
C4 N1 1_555 1_555
H6 C4 1_555 1_555
H7 C4 1_555 1_555
N2 C1 1_555 1_555
C5 P1 1_555 1_555
H8 C5 1_555 1_555
H9 C5 1_555 1_555
H10 C2 1_555 1_555
C6 N1 1_555 1_555
H11 C6 1_555 1_555
H12 C6 1_555 1_555
N3 C3 1_555 1_555
P2 C7 1_555 1_555
N4 Cu3 1_555 1_555
C7 H13 1_555 1_555
H14 C7 1_555 1_555
Cu3 O1 1_555 1_555
O4 P2 1_555 1_555
Cl3 Cu3 1_555 1_555
C8 P2 1_555 1_555
H15 C8 1_555 1_555
C9 H16 1_555 1_555
H17 C9 1_555 1_555
C10 N4 1_555 1_555
H18 C10 1_555 1_555
H19 C10 1_555 1_555
N5 C7 1_555 1_555
C11 P2 1_555 1_555
H20 C11 1_555 1_555
H21 C11 1_555 1_555
H22 C8 1_555 1_555
C12 N4 1_555 1_555
H23 C12 1_555 1_555
H24 C12 1_555 1_555
N6 C9 1_555 1_555
P3 C13 1_555 1_555
N7 Cu4 1_555 1_555
C13 H25 1_555 1_555
H26 C13 1_555 1_555
Cu4 O1 1_555 1_555
O5 P3 1_555 1_555
Cl4 Cu4 1_555 1_555
C14 P3 1_555 1_555
H27 C14 1_555 1_555
C15 H28 1_555 1_555
H29 C15 1_555 1_555
C16 N7 1_555 1_555
H30 C16 1_555 1_555
H31 C16 1_555 1_555
N8 C13 1_555 1_555
C17 P3 1_555 1_555
H32 C17 1_555 1_555
H33 C17 1_555 1_555
H34 C14 1_555 1_555
C18 N7 1_555 1_555
H35 C18 1_555 1_555
H36 C18 1_555 1_555
N9 C15 1_555 1_555
P4 C19 1_555 1_555
N10 Cu5 1_555 1_555
C19 H37 1_555 1_555
H38 C19 1_555 1_555
Cu5 O1 1_555 1_555
O6 P4 1_555 1_555
C20 P4 1_555 1_555
H39 C20 1_555 1_555
C21 H40 1_555 1_555
H41 C21 1_555 1_555
C22 N10 1_555 1_555
H42 C22 1_555 1_555
H43 C22 1_555 1_555
N11 C19 1_555 1_555
C23 P4 1_555 1_555
H44 C23 1_555 1_555
H45 C23 1_555 1_555
H46 C20 1_555 1_555
C24 N10 1_555 1_555
H47 C24 1_555 1_555
H48 C24 1_555 1_555
N12 C21 1_555 1_555
Cl5 Cu3 1_555 1_555
Cl6 Cu1 1_555 1_555
O7 Cu2 1_555 1_555
O8 Cu2 1_555 1_555
O9 Cu2 1_555 1_555
O10 Cu2 1_555 1_555
Cu6 O4 1_555 1_555
Cu7 O5 1_555 1_555
Cu8 O6 1_555 1_555
N1 C2 1_555 1_555
Cl2 Cu4 1_555 1_555
C3 N2 1_555 1_555
C4 N2 1_555 1_555
C5 N3 1_555 1_555
C6 N3 1_555 1_555
N4 C8 1_555 1_555
Cl3 Cu5 1_555 1_555
C9 N5 1_555 1_555
C10 N5 1_555 1_555
C11 N6 1_555 1_555
C12 N6 1_555 1_555
N7 C14 1_555 1_555
Cu4 Cl5 1_555 1_555
Cl4 Cu5 1_555 1_555
C15 N8 1_555 1_555
C16 N8 1_555 1_555
C17 N9 1_555 1_555
C18 N9 1_555 1_555
N10 C20 1_555 1_555
Cu5 Cl6 1_555 1_555
C21 N11 1_555 1_555
C22 N11 1_555 1_555
C23 N12 1_555 1_555
C24 N12 1_555 1_555
O1_2 Cu1_2 1_555 1_555
P1_2 C1_2 1_555 1_555
N1_2 Cu1_2 1_555 1_555
C1_2 H1_2 1_555 1_555
H2_2 C1_2 1_555 1_555
O2_2 Cu2_2 1_555 1_555
Cu1_2 Cl1_2 1_555 1_555
O3_2 P1_2 1_555 1_555
Cl1_2 Cu3_2 1_555 1_555
Cu2_2 O3_2 1_555 1_555
Cl2_2 Cu1_2 1_555 1_555
C2_2 P1_2 1_555 1_555
H3_2 C2_2 1_555 1_555
C3_2 H4_2 1_555 1_555
H5_2 C3_2 1_555 1_555
C4_2 N1_2 1_555 1_555
H6_2 C4_2 1_555 1_555
H7_2 C4_2 1_555 1_555
N2_2 C1_2 1_555 1_555
C5_2 P1_2 1_555 1_555
H8_2 C5_2 1_555 1_555
H9_2 C5_2 1_555 1_555
H10_2 C2_2 1_555 1_555
C6_2 N1_2 1_555 1_555
H11_2 C6_2 1_555 1_555
H12_2 C6_2 1_555 1_555
N3_2 C3_2 1_555 1_555
P2_2 C7_2 1_555 1_555
N4_2 Cu3_2 1_555 1_555
C7_2 H13_2 1_555 1_555
H14_2 C7_2 1_555 1_555
Cu3_2 O1_2 1_555 1_555
O4_2 P2_2 1_555 1_555
Cl3_2 Cu3_2 1_555 1_555
C8_2 P2_2 1_555 1_555
H15_2 C8_2 1_555 1_555
C9_2 H16_2 1_555 1_555
H17_2 C9_2 1_555 1_555
C10_2 N4_2 1_555 1_555
H18_2 C10_2 1_555 1_555
H19_2 C10_2 1_555 1_555
N5_2 C7_2 1_555 1_555
C11_2 P2_2 1_555 1_555
H20_2 C11_2 1_555 1_555
H21_2 C11_2 1_555 1_555
H22_2 C8_2 1_555 1_555
C12_2 N4_2 1_555 1_555
H23_2 C12_2 1_555 1_555
H24_2 C12_2 1_555 1_555
N6_2 C9_2 1_555 1_555
P3_2 C13_2 1_555 1_555
N7_2 Cu4_2 1_555 1_555
C13_2 H25_2 1_555 1_555
H26_2 C13_2 1_555 1_555
Cu4_2 O1_2 1_555 1_555
O5_2 P3_2 1_555 1_555
Cl4_2 Cu4_2 1_555 1_555
C14_2 P3_2 1_555 1_555
H27_2 C14_2 1_555 1_555
C15_2 H28_2 1_555 1_555
H29_2 C15_2 1_555 1_555
C16_2 N7_2 1_555 1_555
H30_2 C16_2 1_555 1_555
H31_2 C16_2 1_555 1_555
N8_2 C13_2 1_555 1_555
C17_2 P3_2 1_555 1_555
H32_2 C17_2 1_555 1_555
H33_2 C17_2 1_555 1_555
H34_2 C14_2 1_555 1_555
C18_2 N7_2 1_555 1_555
H35_2 C18_2 1_555 1_555
H36_2 C18_2 1_555 1_555
N9_2 C15_2 1_555 1_555
P4_2 C19_2 1_555 1_555
N10_2 Cu5_2 1_555 1_555
C19_2 H37_2 1_555 1_555
H38_2 C19_2 1_555 1_555
Cu5_2 O1_2 1_555 1_555
O6_2 P4_2 1_555 1_555
C20_2 P4_2 1_555 1_555
H39_2 C20_2 1_555 1_555
C21_2 H40_2 1_555 1_555
H41_2 C21_2 1_555 1_555
C22_2 N10_2 1_555 1_555
H42_2 C22_2 1_555 1_555
H43_2 C22_2 1_555 1_555
N11_2 C19_2 1_555 1_555
C23_2 P4_2 1_555 1_555
H44_2 C23_2 1_555 1_555
H45_2 C23_2 1_555 1_555
H46_2 C20_2 1_555 1_555
C24_2 N10_2 1_555 1_555
H47_2 C24_2 1_555 1_555
H48_2 C24_2 1_555 1_555
N12_2 C21_2 1_555 1_555
Cl5_2 Cu3_2 1_555 1_555
Cl6_2 Cu1_2 1_555 1_555
O7_2 Cu2_2 1_555 1_555
O8_2 Cu2_2 1_555 1_555
O9_2 Cu2_2 1_555 1_555
O10_2 Cu2_2 1_555 1_555
Cu6_2 O4_2 1_555 1_555
Cu7_2 O5_2 1_555 1_555
Cu8_2 O6_2 1_555 1_555
N1_2 C2_2 1_555 1_555
Cl2_2 Cu4_2 1_555 1_555
C3_2 N2_2 1_555 1_555
C4_2 N2_2 1_555 1_555
C5_2 N3_2 1_555 1_555
C6_2 N3_2 1_555 1_555
N4_2 C8_2 1_555 1_555
Cl3_2 Cu5_2 1_555 1_555
C9_2 N5_2 1_555 1_555
C10_2 N5_2 1_555 1_555
C11_2 N6_2 1_555 1_555
C12_2 N6_2 1_555 1_555
N7_2 C14_2 1_555 1_555
Cu4_2 Cl5_2 1_555 1_555
Cl4_2 Cu5_2 1_555 1_555
C15_2 N8_2 1_555 1_555
C16_2 N8_2 1_555 1_555
C17_2 N9_2 1_555 1_555
C18_2 N9_2 1_555 1_555
N10_2 C20_2 1_555 1_555
Cu5_2 Cl6_2 1_555 1_555
C21_2 N11_2 1_555 1_555
C22_2 N11_2 1_555 1_555
C23_2 N12_2 1_555 1_555
C24_2 N12_2 1_555 1_555
O2_3 Cu6 1_555 1_555
O7_3 Cu6 1_555 1_555
O8_3 Cu6 1_555 1_555
O9_3 Cu6 1_555 1_555
O10_3 Cu6 1_555 1_555
O2_4 Cu6_2 1_555 1_555
O7_4 Cu6_2 1_555 1_555
O8_4 Cu6_2 1_555 1_555
O9_4 Cu6_2 1_555 1_555
O10_4 Cu6_2 1_555 1_555
O1_3 Cu1_3 1_555 1_555
P1_3 C1_3 1_555 1_555
N1_3 Cu1_3 1_555 1_555
C1_3 H1_3 1_555 1_555
H2_3 C1_3 1_555 1_555
O2_5 Cu2_3 1_555 1_555
Cu1_3 Cl1_3 1_555 1_555
O3_3 P1_3 1_555 1_555
Cl1_3 Cu3_3 1_555 1_555
Cu2_3 O3_3 1_555 1_555
Cl2_3 Cu1_3 1_555 1_555
C2_3 P1_3 1_555 1_555
H3_3 C2_3 1_555 1_555
C3_3 H4_3 1_555 1_555
H5_3 C3_3 1_555 1_555
C4_3 N1_3 1_555 1_555
H6_3 C4_3 1_555 1_555
H7_3 C4_3 1_555 1_555
N2_3 C1_3 1_555 1_555
C5_3 P1_3 1_555 1_555
H8_3 C5_3 1_555 1_555
H9_3 C5_3 1_555 1_555
H10_3 C2_3 1_555 1_555
C6_3 N1_3 1_555 1_555
H11_3 C6_3 1_555 1_555
H12_3 C6_3 1_555 1_555
N3_3 C3_3 1_555 1_555
P2_3 C7_3 1_555 1_555
N4_3 Cu3_3 1_555 1_555
C7_3 H13_3 1_555 1_555
H14_3 C7_3 1_555 1_555
Cu3_3 O1_3 1_555 1_555
O4_3 P2_3 1_555 1_555
Cl3_3 Cu3_3 1_555 1_555
C8_3 P2_3 1_555 1_555
H15_3 C8_3 1_555 1_555
C9_3 H16_3 1_555 1_555
H17_3 C9_3 1_555 1_555
C10_3 N4_3 1_555 1_555
H18_3 C10_3 1_555 1_555
H19_3 C10_3 1_555 1_555
N5_3 C7_3 1_555 1_555
C11_3 P2_3 1_555 1_555
H20_3 C11_3 1_555 1_555
H21_3 C11_3 1_555 1_555
H22_3 C8_3 1_555 1_555
C12_3 N4_3 1_555 1_555
H23_3 C12_3 1_555 1_555
H24_3 C12_3 1_555 1_555
N6_3 C9_3 1_555 1_555
P3_3 C13_3 1_555 1_555
N7_3 Cu4_3 1_555 1_555
C13_3 H25_3 1_555 1_555
H26_3 C13_3 1_555 1_555
Cu4_3 O1_3 1_555 1_555
O10 P3_3 1_555 1_555
Cl4_3 Cu4_3 1_555 1_555
C14_3 P3_3 1_555 1_555
H27_3 C14_3 1_555 1_555
C15_3 H28_3 1_555 1_555
H29_3 C15_3 1_555 1_555
C16_3 N7_3 1_555 1_555
H30_3 C16_3 1_555 1_555
H31_3 C16_3 1_555 1_555
N8_3 C13_3 1_555 1_555
C17_3 P3_3 1_555 1_555
H32_3 C17_3 1_555 1_555
H33_3 C17_3 1_555 1_555
H34_3 C14_3 1_555 1_555
C18_3 N7_3 1_555 1_555
H35_3 C18_3 1_555 1_555
H36_3 C18_3 1_555 1_555
N9_3 C15_3 1_555 1_555
P4_3 C19_3 1_555 1_555
N10_3 Cu5_3 1_555 1_555
C19_3 H37_3 1_555 1_555
H38_3 C19_3 1_555 1_555
Cu5_3 O1_3 1_555 1_555
O10_2 P4_3 1_555 1_555
C20_3 P4_3 1_555 1_555
H39_3 C20_3 1_555 1_555
C21_3 H40_3 1_555 1_555
H41_3 C21_3 1_555 1_555
C22_3 N10_3 1_555 1_555
H42_3 C22_3 1_555 1_555
H43_3 C22_3 1_555 1_555
N11_3 C19_3 1_555 1_555
C23_3 P4_3 1_555 1_555
H44_3 C23_3 1_555 1_555
H45_3 C23_3 1_555 1_555
H46_3 C20_3 1_555 1_555
C24_3 N10_3 1_555 1_555
H47_3 C24_3 1_555 1_555
H48_3 C24_3 1_555 1_555
N12_3 C21_3 1_555 1_555
Cl5_3 Cu3_3 1_555 1_555
Cl6_3 Cu1_3 1_555 1_555
O7_5 Cu2_3 1_555 1_555
O8_5 Cu2_3 1_555 1_555
O9_5 Cu2_3 1_555 1_555
O10_5 Cu2_3 1_555 1_555
Cu6_3 O4_3 1_555 1_555
N1_3 C2_3 1_555 1_555
Cl2_3 Cu4_3 1_555 1_555
C3_3 N2_3 1_555 1_555
C4_3 N2_3 1_555 1_555
C5_3 N3_3 1_555 1_555
C6_3 N3_3 1_555 1_555
N4_3 C8_3 1_555 1_555
Cl3_3 Cu5_3 1_555 1_555
C9_3 N5_3 1_555 1_555
C10_3 N5_3 1_555 1_555
C11_3 N6_3 1_555 1_555
C12_3 N6_3 1_555 1_555
N7_3 C14_3 1_555 1_555
Cu4_3 Cl5_3 1_555 1_555
Cl4_3 Cu5_3 1_555 1_555
C15_3 N8_3 1_555 1_555
C16_3 N8_3 1_555 1_555
C17_3 N9_3 1_555 1_555
C18_3 N9_3 1_555 1_555
N10_3 C20_3 1_555 1_555
Cu5_3 Cl6_3 1_555 1_555
C21_3 N11_3 1_555 1_555
C22_3 N11_3 1_555 1_555
C23_3 N12_3 1_555 1_555
C24_3 N12_3 1_555 1_555
O1_4 Cu1_4 1_555 1_555
P1_4 C1_4 1_555 1_555
N1_4 Cu1_4 1_555 1_555
C1_4 H1_4 1_555 1_555
H2_4 C1_4 1_555 1_555
O2_6 Cu2_4 1_555 1_555
Cu1_4 Cl1_4 1_555 1_555
O3_4 P1_4 1_555 1_555
Cl1_4 Cu3_4 1_555 1_555
Cu2_4 O3_4 1_555 1_555
Cl2_4 Cu1_4 1_555 1_555
C2_4 P1_4 1_555 1_555
H3_4 C2_4 1_555 1_555
C3_4 H4_4 1_555 1_555
H5_4 C3_4 1_555 1_555
C4_4 N1_4 1_555 1_555
H6_4 C4_4 1_555 1_555
H7_4 C4_4 1_555 1_555
N2_4 C1_4 1_555 1_555
C5_4 P1_4 1_555 1_555
H8_4 C5_4 1_555 1_555
H9_4 C5_4 1_555 1_555
H10_4 C2_4 1_555 1_555
C6_4 N1_4 1_555 1_555
H11_4 C6_4 1_555 1_555
H12_4 C6_4 1_555 1_555
N3_4 C3_4 1_555 1_555
P2_4 C7_4 1_555 1_555
N4_4 Cu3_4 1_555 1_555
C7_4 H13_4 1_555 1_555
H14_4 C7_4 1_555 1_555
Cu3_4 O1_4 1_555 1_555
O4_4 P2_4 1_555 1_555
Cl3_4 Cu3_4 1_555 1_555
C8_4 P2_4 1_555 1_555
H15_4 C8_4 1_555 1_555
C9_4 H16_4 1_555 1_555
H17_4 C9_4 1_555 1_555
C10_4 N4_4 1_555 1_555
H18_4 C10_4 1_555 1_555
H19_4 C10_4 1_555 1_555
N5_4 C7_4 1_555 1_555
C11_4 P2_4 1_555 1_555
H20_4 C11_4 1_555 1_555
H21_4 C11_4 1_555 1_555
H22_4 C8_4 1_555 1_555
C12_4 N4_4 1_555 1_555
H23_4 C12_4 1_555 1_555
H24_4 C12_4 1_555 1_555
N6_4 C9_4 1_555 1_555
P3_4 C13_4 1_555 1_555
N7_4 Cu4_4 1_555 1_555
C13_4 H25_4 1_555 1_555
H26_4 C13_4 1_555 1_555
Cu4_4 O1_4 1_555 1_555
O10_4 P3_4 1_555 1_555
Cl4_4 Cu4_4 1_555 1_555
C14_4 P3_4 1_555 1_555
H27_4 C14_4 1_555 1_555
C15_4 H28_4 1_555 1_555
H29_4 C15_4 1_555 1_555
C16_4 N7_4 1_555 1_555
H30_4 C16_4 1_555 1_555
H31_4 C16_4 1_555 1_555
N8_4 C13_4 1_555 1_555
C17_4 P3_4 1_555 1_555
H32_4 C17_4 1_555 1_555
H33_4 C17_4 1_555 1_555
H34_4 C14_4 1_555 1_555
C18_4 N7_4 1_555 1_555
H35_4 C18_4 1_555 1_555
H36_4 C18_4 1_555 1_555
N9_4 C15_4 1_555 1_555
P4_4 C19_4 1_555 1_555
N10_4 Cu5_4 1_555 1_555
C19_4 H37_4 1_555 1_555
H38_4 C19_4 1_555 1_555
Cu5_4 O1_4 1_555 1_555
O10_3 P4_4 1_555 1_555
C20_4 P4_4 1_555 1_555
H39_4 C20_4 1_555 1_555
C21_4 H40_4 1_555 1_555
H41_4 C21_4 1_555 1_555
C22_4 N10_4 1_555 1_555
H42_4 C22_4 1_555 1_555
H43_4 C22_4 1_555 1_555
N11_4 C19_4 1_555 1_555
C23_4 P4_4 1_555 1_555
H44_4 C23_4 1_555 1_555
H45_4 C23_4 1_555 1_555
H46_4 C20_4 1_555 1_555
C24_4 N10_4 1_555 1_555
H47_4 C24_4 1_555 1_555
H48_4 C24_4 1_555 1_555
N12_4 C21_4 1_555 1_555
Cl5_4 Cu3_4 1_555 1_555
Cl6_4 Cu1_4 1_555 1_555
O7_6 Cu2_4 1_555 1_555
O8_6 Cu2_4 1_555 1_555
O9_6 Cu2_4 1_555 1_555
O10_6 Cu2_4 1_555 1_555
Cu6_4 O4_4 1_555 1_555
N1_4 C2_4 1_555 1_555
Cl2_4 Cu4_4 1_555 1_555
C3_4 N2_4 1_555 1_555
C4_4 N2_4 1_555 1_555
C5_4 N3_4 1_555 1_555
C6_4 N3_4 1_555 1_555
N4_4 C8_4 1_555 1_555
Cl3_4 Cu5_4 1_555 1_555
C9_4 N5_4 1_555 1_555
C10_4 N5_4 1_555 1_555
C11_4 N6_4 1_555 1_555
C12_4 N6_4 1_555 1_555
N7_4 C14_4 1_555 1_555
Cu4_4 Cl5_4 1_555 1_555
Cl4_4 Cu5_4 1_555 1_555
C15_4 N8_4 1_555 1_555
C16_4 N8_4 1_555 1_555
C17_4 N9_4 1_555 1_555
C18_4 N9_4 1_555 1_555
N10_4 C20_4 1_555 1_555
Cu5_4 Cl6_4 1_555 1_555
C21_4 N11_4 1_555 1_555
C22_4 N11_4 1_555 1_555
C23_4 N12_4 1_555 1_555
C24_4 N12_4 1_555 1_555
O2_7 Cu6_3 1_555 1_555
O7_7 Cu6_3 1_555 1_555
O8_7 Cu6_3 1_555 1_555
O9_7 Cu6_3 1_555 1_555
O10_7 Cu6_3 1_555 1_555
O2_8 Cu6_4 1_555 1_555
O7_8 Cu6_4 1_555 1_555
O8_8 Cu6_4 1_555 1_555
O9_8 Cu6_4 1_555 1_555
O10_8 Cu6_4 1_555 1_555
O1_5 Cu1_5 1_555 1_555
P1_5 C1_5 1_555 1_555
N1_5 Cu1_5 1_555 1_555
C1_5 H1_5 1_555 1_555
H2_5 C1_5 1_555 1_555
O2_9 Cu7 1_555 1_555
Cu1_5 Cl1_5 1_555 1_555
O3_5 P1_5 1_555 1_555
Cl1_5 Cu3_5 1_555 1_555
Cu7 O3_5 1_555 1_555
Cl2_5 Cu1_5 1_555 1_555
C2_5 P1_5 1_555 1_555
H3_5 C2_5 1_555 1_555
C3_5 H4_5 1_555 1_555
H5_5 C3_5 1_555 1_555
C4_5 N1_5 1_555 1_555
H6_5 C4_5 1_555 1_555
H7_5 C4_5 1_555 1_555
N2_5 C1_5 1_555 1_555
C5_5 P1_5 1_555 1_555
H8_5 C5_5 1_555 1_555
H9_5 C5_5 1_555 1_555
H10_5 C2_5 1_555 1_555
C6_5 N1_5 1_555 1_555
H11_5 C6_5 1_555 1_555
H12_5 C6_5 1_555 1_555
N3_5 C3_5 1_555 1_555
P2_5 C7_5 1_555 1_555
N4_5 Cu3_5 1_555 1_555
C7_5 H13_5 1_555 1_555
H14_5 C7_5 1_555 1_555
Cu3_5 O1_5 1_555 1_555
O4_5 P2_5 1_555 1_555
Cl3_5 Cu3_5 1_555 1_555
C8_5 P2_5 1_555 1_555
H15_5 C8_5 1_555 1_555
C9_5 H16_5 1_555 1_555
H17_5 C9_5 1_555 1_555
C10_5 N4_5 1_555 1_555
H18_5 C10_5 1_555 1_555
H19_5 C10_5 1_555 1_555
N5_5 C7_5 1_555 1_555
C11_5 P2_5 1_555 1_555
H20_5 C11_5 1_555 1_555
H21_5 C11_5 1_555 1_555
H22_5 C8_5 1_555 1_555
C12_5 N4_5 1_555 1_555
H23_5 C12_5 1_555 1_555
H24_5 C12_5 1_555 1_555
N6_5 C9_5 1_555 1_555
P3_5 C13_5 1_555 1_555
N7_5 Cu4_5 1_555 1_555
C13_5 H25_5 1_555 1_555
H26_5 C13_5 1_555 1_555
Cu4_5 O1_5 1_555 1_555
O10_5 P3_5 1_555 1_555
Cl4_5 Cu4_5 1_555 1_555
C14_5 P3_5 1_555 1_555
H27_5 C14_5 1_555 1_555
C15_5 H28_5 1_555 1_555
H29_5 C15_5 1_555 1_555
C16_5 N7_5 1_555 1_555
H30_5 C16_5 1_555 1_555
H31_5 C16_5 1_555 1_555
N8_5 C13_5 1_555 1_555
C17_5 P3_5 1_555 1_555
H32_5 C17_5 1_555 1_555
H33_5 C17_5 1_555 1_555
H34_5 C14_5 1_555 1_555
C18_5 N7_5 1_555 1_555
H35_5 C18_5 1_555 1_555
H36_5 C18_5 1_555 1_555
N9_5 C15_5 1_555 1_555
P4_5 C19_5 1_555 1_555
N10_5 Cu5_5 1_555 1_555
C19_5 H37_5 1_555 1_555
H38_5 C19_5 1_555 1_555
Cu5_5 O1_5 1_555 1_555
O10_6 P4_5 1_555 1_555
C20_5 P4_5 1_555 1_555
H39_5 C20_5 1_555 1_555
C21_5 H40_5 1_555 1_555
H41_5 C21_5 1_555 1_555
C22_5 N10_5 1_555 1_555
H42_5 C22_5 1_555 1_555
H43_5 C22_5 1_555 1_555
N11_5 C19_5 1_555 1_555
C23_5 P4_5 1_555 1_555
H44_5 C23_5 1_555 1_555
H45_5 C23_5 1_555 1_555
H46_5 C20_5 1_555 1_555
C24_5 N10_5 1_555 1_555
H47_5 C24_5 1_555 1_555
H48_5 C24_5 1_555 1_555
N12_5 C21_5 1_555 1_555
Cl5_5 Cu3_5 1_555 1_555
Cl6_5 Cu1_5 1_555 1_555
O7_9 Cu7 1_555 1_555
O8_9 Cu7 1_555 1_555
O9_9 Cu7 1_555 1_555
Cu8_2 O4_5 1_555 1_555
N1_5 C2_5 1_555 1_555
Cl2_5 Cu4_5 1_555 1_555
C3_5 N2_5 1_555 1_555
C4_5 N2_5 1_555 1_555
C5_5 N3_5 1_555 1_555
C6_5 N3_5 1_555 1_555
N4_5 C8_5 1_555 1_555
Cl3_5 Cu5_5 1_555 1_555
C9_5 N5_5 1_555 1_555
C10_5 N5_5 1_555 1_555
C11_5 N6_5 1_555 1_555
C12_5 N6_5 1_555 1_555
N7_5 C14_5 1_555 1_555
Cu4_5 Cl5_5 1_555 1_555
Cl4_5 Cu5_5 1_555 1_555
C15_5 N8_5 1_555 1_555
C16_5 N8_5 1_555 1_555
C17_5 N9_5 1_555 1_555
C18_5 N9_5 1_555 1_555
N10_5 C20_5 1_555 1_555
Cu5_5 Cl6_5 1_555 1_555
C21_5 N11_5 1_555 1_555
C22_5 N11_5 1_555 1_555
C23_5 N12_5 1_555 1_555
C24_5 N12_5 1_555 1_555
O1_6 Cu1_6 1_555 1_555
P1_6 C1_6 1_555 1_555
N1_6 Cu1_6 1_555 1_555
C1_6 H1_6 1_555 1_555
H2_6 C1_6 1_555 1_555
O2_10 Cu8 1_555 1_555
Cu1_6 Cl1_6 1_555 1_555
O3_6 P1_6 1_555 1_555
Cl1_6 Cu3_6 1_555 1_555
Cu8 O3_6 1_555 1_555
Cl2_6 Cu1_6 1_555 1_555
C2_6 P1_6 1_555 1_555
H3_6 C2_6 1_555 1_555
C3_6 H4_6 1_555 1_555
H5_6 C3_6 1_555 1_555
C4_6 N1_6 1_555 1_555
H6_6 C4_6 1_555 1_555
H7_6 C4_6 1_555 1_555
N2_6 C1_6 1_555 1_555
C5_6 P1_6 1_555 1_555
H8_6 C5_6 1_555 1_555
H9_6 C5_6 1_555 1_555
H10_6 C2_6 1_555 1_555
C6_6 N1_6 1_555 1_555
H11_6 C6_6 1_555 1_555
H12_6 C6_6 1_555 1_555
N3_6 C3_6 1_555 1_555
P2_6 C7_6 1_555 1_555
N4_6 Cu3_6 1_555 1_555
C7_6 H13_6 1_555 1_555
H14_6 C7_6 1_555 1_555
Cu3_6 O1_6 1_555 1_555
O4_6 P2_6 1_555 1_555
Cl3_6 Cu3_6 1_555 1_555
C8_6 P2_6 1_555 1_555
H15_6 C8_6 1_555 1_555
C9_6 H16_6 1_555 1_555
H17_6 C9_6 1_555 1_555
C10_6 N4_6 1_555 1_555
H18_6 C10_6 1_555 1_555
H19_6 C10_6 1_555 1_555
N5_6 C7_6 1_555 1_555
C11_6 P2_6 1_555 1_555
H20_6 C11_6 1_555 1_555
H21_6 C11_6 1_555 1_555
H22_6 C8_6 1_555 1_555
C12_6 N4_6 1_555 1_555
H23_6 C12_6 1_555 1_555
H24_6 C12_6 1_555 1_555
N6_6 C9_6 1_555 1_555
P3_6 C13_6 1_555 1_555
N7_6 Cu4_6 1_555 1_555
C13_6 H25_6 1_555 1_555
H26_6 C13_6 1_555 1_555
Cu4_6 O1_6 1_555 1_555
O10_8 P3_6 1_555 1_555
Cl4_6 Cu4_6 1_555 1_555
C14_6 P3_6 1_555 1_555
H27_6 C14_6 1_555 1_555
C15_6 H28_6 1_555 1_555
H29_6 C15_6 1_555 1_555
C16_6 N7_6 1_555 1_555
H30_6 C16_6 1_555 1_555
H31_6 C16_6 1_555 1_555
N8_6 C13_6 1_555 1_555
C17_6 P3_6 1_555 1_555
H32_6 C17_6 1_555 1_555
H33_6 C17_6 1_555 1_555
H34_6 C14_6 1_555 1_555
C18_6 N7_6 1_555 1_555
H35_6 C18_6 1_555 1_555
H36_6 C18_6 1_555 1_555
N9_6 C15_6 1_555 1_555
P4_6 C19_6 1_555 1_555
N10_6 Cu5_6 1_555 1_555
C19_6 H37_6 1_555 1_555
H38_6 C19_6 1_555 1_555
Cu5_6 O1_6 1_555 1_555
O10_7 P4_6 1_555 1_555
C20_6 P4_6 1_555 1_555
H39_6 C20_6 1_555 1_555
C21_6 H40_6 1_555 1_555
H41_6 C21_6 1_555 1_555
C22_6 N10_6 1_555 1_555
H42_6 C22_6 1_555 1_555
H43_6 C22_6 1_555 1_555
N11_6 C19_6 1_555 1_555
C23_6 P4_6 1_555 1_555
H44_6 C23_6 1_555 1_555
H45_6 C23_6 1_555 1_555
H46_6 C20_6 1_555 1_555
C24_6 N10_6 1_555 1_555
H47_6 C24_6 1_555 1_555
H48_6 C24_6 1_555 1_555
N12_6 C21_6 1_555 1_555
Cl5_6 Cu3_6 1_555 1_555
Cl6_6 Cu1_6 1_555 1_555
O7_10 Cu8 1_555 1_555
O8_10 Cu8 1_555 1_555
O9_10 Cu8 1_555 1_555
Cu7_2 O4_6 1_555 1_555
N1_6 C2_6 1_555 1_555
Cl2_6 Cu4_6 1_555 1_555
C3_6 N2_6 1_555 1_555
C4_6 N2_6 1_555 1_555
C5_6 N3_6 1_555 1_555
C6_6 N3_6 1_555 1_555
N4_6 C8_6 1_555 1_555
Cl3_6 Cu5_6 1_555 1_555
C9_6 N5_6 1_555 1_555
C10_6 N5_6 1_555 1_555
C11_6 N6_6 1_555 1_555
C12_6 N6_6 1_555 1_555
N7_6 C14_6 1_555 1_555
Cu4_6 Cl5_6 1_555 1_555
Cl4_6 Cu5_6 1_555 1_555
C15_6 N8_6 1_555 1_555
C16_6 N8_6 1_555 1_555
C17_6 N9_6 1_555 1_555
C18_6 N9_6 1_555 1_555
N10_6 C20_6 1_555 1_555
Cu5_6 Cl6_6 1_555 1_555
C21_6 N11_6 1_555 1_555
C22_6 N11_6 1_555 1_555
C23_6 N12_6 1_555 1_555
C24_6 N12_6 1_555 1_555
O2_11 Cu8_2 1_555 1_555
O7_11 Cu8_2 1_555 1_555
O8_11 Cu8_2 1_555 1_555
O9_11 Cu8_2 1_555 1_555
O2_12 Cu7_2 1_555 1_555
O7_12 Cu7_2 1_555 1_555
O8_12 Cu7_2 1_555 1_555
O9_12 Cu7_2 1_555 1_555
Cl1_7 Cu3_7 1_555 1_555
P2_7 C7_7 1_555 1_555
N4_7 Cu3_7 1_555 1_555
C7_7 H13_7 1_555 1_555
H14_7 C7_7 1_555 1_555
Cu3_7 O1_7 1_555 1_555
O4_7 P2_7 1_555 1_555
C8_7 P2_7 1_555 1_555
H15_7 C8_7 1_555 1_555
C9_7 H16_7 1_555 1_555
H17_7 C9_7 1_555 1_555
C10_7 N4_7 1_555 1_555
H18_7 C10_7 1_555 1_555
H19_7 C10_7 1_555 1_555
N5_7 C7_7 1_555 1_555
P3_7 C13_7 1_555 1_555
N7_7 Cu4_7 1_555 1_555
C13_7 H25_7 1_555 1_555
H26_7 C13_7 1_555 1_555
Cu4_7 O1_7 1_555 1_555
O5_3 P3_7 1_555 1_555
Cl4_7 Cu4_7 1_555 1_555
C14_7 P3_7 1_555 1_555
H27_7 C14_7 1_555 1_555
C15_7 H28_7 1_555 1_555
H29_7 C15_7 1_555 1_555
C16_7 N7_7 1_555 1_555
H30_7 C16_7 1_555 1_555
H31_7 C16_7 1_555 1_555
N8_7 C13_7 1_555 1_555
Cl5_7 Cu3_7 1_555 1_555
Cu6_5 O4_7 1_555 1_555
Cu7_3 O5_3 1_555 1_555
N4_7 C8_7 1_555 1_555
C9_7 N5_7 1_555 1_555
C10_7 N5_7 1_555 1_555
N7_7 C14_7 1_555 1_555
Cu4_7 Cl5_7 1_555 1_555
C15_7 N8_7 1_555 1_555
C16_7 N8_7 1_555 1_555
O1_8 Cu1_7 1_555 1_555
N1_7 Cu1_7 1_555 1_555
Cu1_7 Cl1_8 1_555 1_555
O3_7 P1_7 1_555 1_555
Cu2_5 O3_7 1_555 1_555
Cl2_7 Cu1_7 1_555 1_555
C2_7 P1_7 1_555 1_555
C3_7 H4_7 1_555 1_555
H5_7 C3_7 1_555 1_555
C5_7 P1_7 1_555 1_555
H8_7 C5_7 1_555 1_555
H9_7 C5_7 1_555 1_555
H10_7 C2_7 1_555 1_555
C6_7 N1_7 1_555 1_555
H11_7 C6_7 1_555 1_555
H12_7 C6_7 1_555 1_555
N3_7 C3_7 1_555 1_555
N7_8 Cu4_8 1_555 1_555
Cu4_8 O1_8 1_555 1_555
O5_4 P3_8 1_555 1_555
Cl4_8 Cu4_8 1_555 1_555
C14_8 P3_8 1_555 1_555
C15_8 H28_8 1_555 1_555
H29_8 C15_8 1_555 1_555
C17_7 P3_8 1_555 1_555
H32_7 C17_7 1_555 1_555
H33_7 C17_7 1_555 1_555
H34_7 C14_8 1_555 1_555
C18_7 N7_8 1_555 1_555
H35_7 C18_7 1_555 1_555
H36_7 C18_7 1_555 1_555
N9_7 C15_8 1_555 1_555
O7_13 Cu2_5 1_555 1_555
O8_13 Cu2_5 1_555 1_555
O9_13 Cu2_5 1_555 1_555
O10_9 Cu2_5 1_555 1_555
Cu7_4 O5_4 1_555 1_555
N1_7 C2_7 1_555 1_555
Cl2_7 Cu4_8 1_555 1_555
C5_7 N3_7 1_555 1_555
C6_7 N3_7 1_555 1_555
N7_8 C14_8 1_555 1_555
C17_7 N9_7 1_555 1_555
C18_7 N9_7 1_555 1_555
Cl1_9 Cu3_8 1_555 1_555
N4_8 Cu3_8 1_555 1_555
Cu3_8 O1_9 1_555 1_555
O4_8 P2_8 1_555 1_555
Cl3_7 Cu3_8 1_555 1_555
C8_8 P2_8 1_555 1_555
C9_8 H16_8 1_555 1_555
H17_8 C9_8 1_555 1_555
C11_7 P2_8 1_555 1_555
H20_7 C11_7 1_555 1_555
H21_7 C11_7 1_555 1_555
H22_7 C8_8 1_555 1_555
C12_7 N4_8 1_555 1_555
H23_7 C12_7 1_555 1_555
H24_7 C12_7 1_555 1_555
N6_7 C9_8 1_555 1_555
N10_7 Cu5_7 1_555 1_555
Cu5_7 O1_9 1_555 1_555
O6_3 P4_7 1_555 1_555
C20_7 P4_7 1_555 1_555
C21_7 H40_7 1_555 1_555
H41_7 C21_7 1_555 1_555
C23_7 P4_7 1_555 1_555
H44_7 C23_7 1_555 1_555
H45_7 C23_7 1_555 1_555
H46_7 C20_7 1_555 1_555
C24_7 N10_7 1_555 1_555
H47_7 C24_7 1_555 1_555
H48_7 C24_7 1_555 1_555
N12_7 C21_7 1_555 1_555
Cu6_6 O4_8 1_555 1_555
Cu8_3 O6_3 1_555 1_555
N4_8 C8_8 1_555 1_555
Cl3_7 Cu5_7 1_555 1_555
C11_7 N6_7 1_555 1_555
C12_7 N6_7 1_555 1_555
Cl4_9 Cu5_7 1_555 1_555
N10_7 C20_7 1_555 1_555
C23_7 N12_7 1_555 1_555
C24_7 N12_7 1_555 1_555
O1_10 Cu1_8 1_555 1_555
P1_8 C1_7 1_555 1_555
N1_8 Cu1_8 1_555 1_555
C1_7 H1_7 1_555 1_555
H2_7 C1_7 1_555 1_555
O2_13 Cu2_6 1_555 1_555
Cu1_8 Cl1_10 1_555 1_555
O3_8 P1_8 1_555 1_555
Cu2_6 O3_8 1_555 1_555
C2_8 P1_8 1_555 1_555
H3_7 C2_8 1_555 1_555
C3_8 H4_8 1_555 1_555
H5_8 C3_8 1_555 1_555
C4_7 N1_8 1_555 1_555
H6_7 C4_7 1_555 1_555
H7_7 C4_7 1_555 1_555
N2_7 C1_7 1_555 1_555
P4_8 C19_7 1_555 1_555
N10_8 Cu5_8 1_555 1_555
C19_7 H37_7 1_555 1_555
H38_7 C19_7 1_555 1_555
Cu5_8 O1_10 1_555 1_555
O6_4 P4_8 1_555 1_555
C20_8 P4_8 1_555 1_555
H39_7 C20_8 1_555 1_555
C21_8 H40_8 1_555 1_555
H41_8 C21_8 1_555 1_555
C22_7 N10_8 1_555 1_555
H42_7 C22_7 1_555 1_555
H43_7 C22_7 1_555 1_555
N11_7 C19_7 1_555 1_555
Cl6_7 Cu1_8 1_555 1_555
O8_14 Cu2_6 1_555 1_555
O9_14 Cu2_6 1_555 1_555
O10_10 Cu2_6 1_555 1_555
Cu8_4 O6_4 1_555 1_555
N1_8 C2_8 1_555 1_555
C3_8 N2_7 1_555 1_555
C4_7 N2_7 1_555 1_555
Cl4_10 Cu5_8 1_555 1_555
N10_8 C20_8 1_555 1_555
Cu5_8 Cl6_7 1_555 1_555
C21_8 N11_7 1_555 1_555
C22_7 N11_7 1_555 1_555
Cl1_11 Cu3_9 1_555 1_555
N4_9 Cu3_9 1_555 1_555
Cu3_9 O1_11 1_555 1_555
O4_9 P2_9 1_555 1_555
Cl3_8 Cu3_9 1_555 1_555
C8_9 P2_9 1_555 1_555
C9_9 H16_9 1_555 1_555
H17_9 C9_9 1_555 1_555
C11_8 P2_9 1_555 1_555
H20_8 C11_8 1_555 1_555
H21_8 C11_8 1_555 1_555
H22_8 C8_9 1_555 1_555
C12_8 N4_9 1_555 1_555
H23_8 C12_8 1_555 1_555
H24_8 C12_8 1_555 1_555
N6_8 C9_9 1_555 1_555
N10_9 Cu5_9 1_555 1_555
Cu5_9 O1_11 1_555 1_555
O6_5 P4_9 1_555 1_555
C20_9 P4_9 1_555 1_555
C21_9 H40_9 1_555 1_555
H41_9 C21_9 1_555 1_555
C23_8 P4_9 1_555 1_555
H44_8 C23_8 1_555 1_555
H45_8 C23_8 1_555 1_555
H46_8 C20_9 1_555 1_555
C24_8 N10_9 1_555 1_555
H47_8 C24_8 1_555 1_555
H48_8 C24_8 1_555 1_555
N12_8 C21_9 1_555 1_555
Cu6_7 O4_9 1_555 1_555
Cu8_5 O6_5 1_555 1_555
N4_9 C8_9 1_555 1_555
Cl3_8 Cu5_9 1_555 1_555
C11_8 N6_8 1_555 1_555
C12_8 N6_8 1_555 1_555
Cl4_11 Cu5_9 1_555 1_555
N10_9 C20_9 1_555 1_555
C23_8 N12_8 1_555 1_555
C24_8 N12_8 1_555 1_555
O1_12 Cu1_9 1_555 1_555
P1_9 C1_8 1_555 1_555
N1_9 Cu1_9 1_555 1_555
C1_8 H1_8 1_555 1_555
H2_8 C1_8 1_555 1_555
O2_14 Cu2_7 1_555 1_555
Cu1_9 Cl1_12 1_555 1_555
O3_9 P1_9 1_555 1_555
Cu2_7 O3_9 1_555 1_555
C2_9 P1_9 1_555 1_555
H3_8 C2_9 1_555 1_555
C3_9 H4_9 1_555 1_555
H5_9 C3_9 1_555 1_555
C4_8 N1_9 1_555 1_555
H6_8 C4_8 1_555 1_555
H7_8 C4_8 1_555 1_555
N2_8 C1_8 1_555 1_555
P4_10 C19_8 1_555 1_555
N10_10 Cu5_10 1_555 1_555
C19_8 H37_8 1_555 1_555
H38_8 C19_8 1_555 1_555
Cu5_10 O1_12 1_555 1_555
O6_6 P4_10 1_555 1_555
C20_10 P4_10 1_555 1_555
H39_8 C20_10 1_555 1_555
C21_10 H40_10 1_555 1_555
H41_10 C21_10 1_555 1_555
C22_8 N10_10 1_555 1_555
H42_8 C22_8 1_555 1_555
H43_8 C22_8 1_555 1_555
N11_8 C19_8 1_555 1_555
Cl6_8 Cu1_9 1_555 1_555
O8_15 Cu2_7 1_555 1_555
O9_15 Cu2_7 1_555 1_555
O10_11 Cu2_7 1_555 1_555
Cu8_6 O6_6 1_555 1_555
N1_9 C2_9 1_555 1_555
C3_9 N2_8 1_555 1_555
C4_8 N2_8 1_555 1_555
Cl4_12 Cu5_10 1_555 1_555
N10_10 C20_10 1_555 1_555
Cu5_10 Cl6_8 1_555 1_555
C21_10 N11_8 1_555 1_555
C22_8 N11_8 1_555 1_555
Cl1_13 Cu3_10 1_555 1_555
P2_10 C7_8 1_555 1_555
N4_10 Cu3_10 1_555 1_555
C7_8 H13_8 1_555 1_555
H14_8 C7_8 1_555 1_555
Cu3_10 O1_13 1_555 1_555
O4_10 P2_10 1_555 1_555
C8_10 P2_10 1_555 1_555
H15_8 C8_10 1_555 1_555
C9_10 H16_10 1_555 1_555
H17_10 C9_10 1_555 1_555
C10_8 N4_10 1_555 1_555
H18_8 C10_8 1_555 1_555
H19_8 C10_8 1_555 1_555
N5_8 C7_8 1_555 1_555
P3_9 C13_8 1_555 1_555
N7_9 Cu4_9 1_555 1_555
C13_8 H25_8 1_555 1_555
H26_8 C13_8 1_555 1_555
Cu4_9 O1_13 1_555 1_555
O5_5 P3_9 1_555 1_555
Cl4_13 Cu4_9 1_555 1_555
C14_9 P3_9 1_555 1_555
H27_8 C14_9 1_555 1_555
C15_9 H28_9 1_555 1_555
H29_9 C15_9 1_555 1_555
C16_8 N7_9 1_555 1_555
H30_8 C16_8 1_555 1_555
H31_8 C16_8 1_555 1_555
N8_8 C13_8 1_555 1_555
Cl5_8 Cu3_10 1_555 1_555
Cu6_8 O4_10 1_555 1_555
Cu7_5 O5_5 1_555 1_555
N4_10 C8_10 1_555 1_555
C9_10 N5_8 1_555 1_555
C10_8 N5_8 1_555 1_555
N7_9 C14_9 1_555 1_555
Cu4_9 Cl5_8 1_555 1_555
C15_9 N8_8 1_555 1_555
C16_8 N8_8 1_555 1_555
O1_14 Cu1_10 1_555 1_555
N1_10 Cu1_10 1_555 1_555
Cu1_10 Cl1_14 1_555 1_555
O3_10 P1_10 1_555 1_555
Cu2_8 O3_10 1_555 1_555
Cl2_8 Cu1_10 1_555 1_555
C2_10 P1_10 1_555 1_555
C3_10 H4_10 1_555 1_555
H5_10 C3_10 1_555 1_555
C5_8 P1_10 1_555 1_555
H8_8 C5_8 1_555 1_555
H9_8 C5_8 1_555 1_555
H10_8 C2_10 1_555 1_555
C6_8 N1_10 1_555 1_555
H11_8 C6_8 1_555 1_555
H12_8 C6_8 1_555 1_555
N3_8 C3_10 1_555 1_555
N7_10 Cu4_10 1_555 1_555
Cu4_10 O1_14 1_555 1_555
O5_6 P3_10 1_555 1_555
Cl4_14 Cu4_10 1_555 1_555
C14_10 P3_10 1_555 1_555
C15_10 H28_10 1_555 1_555
H29_10 C15_10 1_555 1_555
C17_8 P3_10 1_555 1_555
H32_8 C17_8 1_555 1_555
H33_8 C17_8 1_555 1_555
H34_8 C14_10 1_555 1_555
C18_8 N7_10 1_555 1_555
H35_8 C18_8 1_555 1_555
H36_8 C18_8 1_555 1_555
N9_8 C15_10 1_555 1_555
O7_14 Cu2_8 1_555 1_555
O8_16 Cu2_8 1_555 1_555
O9_16 Cu2_8 1_555 1_555
O10_12 Cu2_8 1_555 1_555
Cu7_6 O5_6 1_555 1_555
N1_10 C2_10 1_555 1_555
Cl2_8 Cu4_10 1_555 1_555
C5_8 N3_8 1_555 1_555
C6_8 N3_8 1_555 1_555
N7_10 C14_10 1_555 1_555
C17_8 N9_8 1_555 1_555
C18_8 N9_8 1_555 1_555
O2_15 Cu6_5 1_555 1_555
O8_17 Cu6_5 1_555 1_555
O9_17 Cu6_5 1_555 1_555
O10_13 Cu6_5 1_555 1_555
O7_15 Cu6_6 1_555 1_555
O8_18 Cu6_6 1_555 1_555
O9_18 Cu6_6 1_555 1_555
O10_14 Cu6_6 1_555 1_555
O7_16 Cu6_7 1_555 1_555
O8_19 Cu6_7 1_555 1_555
O9_19 Cu6_7 1_555 1_555
O10_15 Cu6_7 1_555 1_555
O2_16 Cu6_8 1_555 1_555
O8_20 Cu6_8 1_555 1_555
O9_20 Cu6_8 1_555 1_555
O10_16 Cu6_8 1_555 1_555
O1_15 Cu1_11 1_555 1_555
N1_11 Cu1_11 1_555 1_555
Cu1_11 Cl1_15 1_555 1_555
O3_11 P1_11 1_555 1_555
Cu2_9 O3_11 1_555 1_555
Cl2_9 Cu1_11 1_555 1_555
C2_11 P1_11 1_555 1_555
C3_11 H4_11 1_555 1_555
H5_11 C3_11 1_555 1_555
C5_9 P1_11 1_555 1_555
H8_9 C5_9 1_555 1_555
H9_9 C5_9 1_555 1_555
H10_9 C2_11 1_555 1_555
C6_9 N1_11 1_555 1_555
H11_9 C6_9 1_555 1_555
H12_9 C6_9 1_555 1_555
N3_9 C3_11 1_555 1_555
N7_11 Cu4_11 1_555 1_555
Cu4_11 O1_15 1_555 1_555
O10_9 P3_11 1_555 1_555
Cl4_15 Cu4_11 1_555 1_555
C14_11 P3_11 1_555 1_555
C15_11 H28_11 1_555 1_555
H29_11 C15_11 1_555 1_555
C17_9 P3_11 1_555 1_555
H32_9 C17_9 1_555 1_555
H33_9 C17_9 1_555 1_555
H34_9 C14_11 1_555 1_555
C18_9 N7_11 1_555 1_555
H35_9 C18_9 1_555 1_555
H36_9 C18_9 1_555 1_555
N9_9 C15_11 1_555 1_555
O7_17 Cu2_9 1_555 1_555
O8_21 Cu2_9 1_555 1_555
O9_21 Cu2_9 1_555 1_555
O10_17 Cu2_9 1_555 1_555
N1_11 C2_11 1_555 1_555
Cl2_9 Cu4_11 1_555 1_555
C5_9 N3_9 1_555 1_555
C6_9 N3_9 1_555 1_555
N7_11 C14_11 1_555 1_555
C17_9 N9_9 1_555 1_555
C18_9 N9_9 1_555 1_555
Cl1_16 Cu3_11 1_555 1_555
P2_11 C7_9 1_555 1_555
N4_11 Cu3_11 1_555 1_555
C7_9 H13_9 1_555 1_555
H14_9 C7_9 1_555 1_555
Cu3_11 O1_16 1_555 1_555
O4_11 P2_11 1_555 1_555
C8_11 P2_11 1_555 1_555
H15_9 C8_11 1_555 1_555
C9_11 H16_11 1_555 1_555
H17_11 C9_11 1_555 1_555
C10_9 N4_11 1_555 1_555
H18_9 C10_9 1_555 1_555
H19_9 C10_9 1_555 1_555
N5_9 C7_9 1_555 1_555
P3_12 C13_9 1_555 1_555
N7_12 Cu4_12 1_555 1_555
C13_9 H25_9 1_555 1_555
H26_9 C13_9 1_555 1_555
Cu4_12 O1_16 1_555 1_555
O10_10 P3_12 1_555 1_555
Cl4_16 Cu4_12 1_555 1_555
C14_12 P3_12 1_555 1_555
H27_9 C14_12 1_555 1_555
C15_12 H28_12 1_555 1_555
H29_12 C15_12 1_555 1_555
C16_9 N7_12 1_555 1_555
H30_9 C16_9 1_555 1_555
H31_9 C16_9 1_555 1_555
N8_9 C13_9 1_555 1_555
Cl5_9 Cu3_11 1_555 1_555
Cu6_9 O4_11 1_555 1_555
N4_11 C8_11 1_555 1_555
C9_11 N5_9 1_555 1_555
C10_9 N5_9 1_555 1_555
N7_12 C14_12 1_555 1_555
Cu4_12 Cl5_9 1_555 1_555
C15_12 N8_9 1_555 1_555
C16_9 N8_9 1_555 1_555
O1_17 Cu1_12 1_555 1_555
P1_12 C1_9 1_555 1_555
N1_12 Cu1_12 1_555 1_555
C1_9 H1_9 1_555 1_555
H2_9 C1_9 1_555 1_555
O2_17 Cu2_10 1_555 1_555
Cu1_12 Cl1_17 1_555 1_555
O3_12 P1_12 1_555 1_555
Cu2_10 O3_12 1_555 1_555
C2_12 P1_12 1_555 1_555
H3_9 C2_12 1_555 1_555
C3_12 H4_12 1_555 1_555
H5_12 C3_12 1_555 1_555
C4_9 N1_12 1_555 1_555
H6_9 C4_9 1_555 1_555
H7_9 C4_9 1_555 1_555
N2_9 C1_9 1_555 1_555
P4_11 C19_9 1_555 1_555
N10_11 Cu5_11 1_555 1_555
C19_9 H37_9 1_555 1_555
H38_9 C19_9 1_555 1_555
Cu5_11 O1_17 1_555 1_555
O10_11 P4_11 1_555 1_555
C20_11 P4_11 1_555 1_555
H39_9 C20_11 1_555 1_555
C21_11 H40_11 1_555 1_555
H41_11 C21_11 1_555 1_555
C22_9 N10_11 1_555 1_555
H42_9 C22_9 1_555 1_555
H43_9 C22_9 1_555 1_555
N11_9 C19_9 1_555 1_555
Cl6_9 Cu1_12 1_555 1_555
O8_22 Cu2_10 1_555 1_555
O9_22 Cu2_10 1_555 1_555
O10_18 Cu2_10 1_555 1_555
N1_12 C2_12 1_555 1_555
C3_12 N2_9 1_555 1_555
C4_9 N2_9 1_555 1_555
Cl4_17 Cu5_11 1_555 1_555
N10_11 C20_11 1_555 1_555
Cu5_11 Cl6_9 1_555 1_555
C21_11 N11_9 1_555 1_555
C22_9 N11_9 1_555 1_555
Cl1_18 Cu3_12 1_555 1_555
N4_12 Cu3_12 1_555 1_555
Cu3_12 O1_18 1_555 1_555
O4_12 P2_12 1_555 1_555
Cl3_9 Cu3_12 1_555 1_555
C8_12 P2_12 1_555 1_555
C9_12 H16_12 1_555 1_555
H17_12 C9_12 1_555 1_555
C11_9 P2_12 1_555 1_555
H20_9 C11_9 1_555 1_555
H21_9 C11_9 1_555 1_555
H22_9 C8_12 1_555 1_555
C12_9 N4_12 1_555 1_555
H23_9 C12_9 1_555 1_555
H24_9 C12_9 1_555 1_555
N6_9 C9_12 1_555 1_555
N10_12 Cu5_12 1_555 1_555
Cu5_12 O1_18 1_555 1_555
O10_12 P4_12 1_555 1_555
C20_12 P4_12 1_555 1_555
C21_12 H40_12 1_555 1_555
H41_12 C21_12 1_555 1_555
C23_9 P4_12 1_555 1_555
H44_9 C23_9 1_555 1_555
H45_9 C23_9 1_555 1_555
H46_9 C20_12 1_555 1_555
C24_9 N10_12 1_555 1_555
H47_9 C24_9 1_555 1_555
H48_9 C24_9 1_555 1_555
N12_9 C21_12 1_555 1_555
Cu6_10 O4_12 1_555 1_555
N4_12 C8_12 1_555 1_555
Cl3_9 Cu5_12 1_555 1_555
C11_9 N6_9 1_555 1_555
C12_9 N6_9 1_555 1_555
Cl4_18 Cu5_12 1_555 1_555
N10_12 C20_12 1_555 1_555
C23_9 N12_9 1_555 1_555
C24_9 N12_9 1_555 1_555
O1_19 Cu1_13 1_555 1_555
P1_13 C1_10 1_555 1_555
N1_13 Cu1_13 1_555 1_555
C1_10 H1_10 1_555 1_555
H2_10 C1_10 1_555 1_555
O2_18 Cu2_11 1_555 1_555
Cu1_13 Cl1_19 1_555 1_555
O3_13 P1_13 1_555 1_555
Cu2_11 O3_13 1_555 1_555
C2_13 P1_13 1_555 1_555
H3_10 C2_13 1_555 1_555
C3_13 H4_13 1_555 1_555
H5_13 C3_13 1_555 1_555
C4_10 N1_13 1_555 1_555
H6_10 C4_10 1_555 1_555
H7_10 C4_10 1_555 1_555
N2_10 C1_10 1_555 1_555
P4_13 C19_10 1_555 1_555
N10_13 Cu5_13 1_555 1_555
C19_10 H37_10 1_555 1_555
H38_10 C19_10 1_555 1_555
Cu5_13 O1_19 1_555 1_555
O10_13 P4_13 1_555 1_555
C20_13 P4_13 1_555 1_555
H39_10 C20_13 1_555 1_555
C21_13 H40_13 1_555 1_555
H41_13 C21_13 1_555 1_555
C22_10 N10_13 1_555 1_555
H42_10 C22_10 1_555 1_555
H43_10 C22_10 1_555 1_555
N11_10 C19_10 1_555 1_555
Cl6_10 Cu1_13 1_555 1_555
O8_23 Cu2_11 1_555 1_555
O9_23 Cu2_11 1_555 1_555
O10_19 Cu2_11 1_555 1_555
N1_13 C2_13 1_555 1_555
C3_13 N2_10 1_555 1_555
C4_10 N2_10 1_555 1_555
Cl4_19 Cu5_13 1_555 1_555
N10_13 C20_13 1_555 1_555
Cu5_13 Cl6_10 1_555 1_555
C21_13 N11_10 1_555 1_555
C22_10 N11_10 1_555 1_555
Cl1_20 Cu3_13 1_555 1_555
N4_13 Cu3_13 1_555 1_555
Cu3_13 O1_20 1_555 1_555
O4_13 P2_13 1_555 1_555
Cl3_10 Cu3_13 1_555 1_555
C8_13 P2_13 1_555 1_555
C9_13 H16_13 1_555 1_555
H17_13 C9_13 1_555 1_555
C11_10 P2_13 1_555 1_555
H20_10 C11_10 1_555 1_555
H21_10 C11_10 1_555 1_555
H22_10 C8_13 1_555 1_555
C12_10 N4_13 1_555 1_555
H23_10 C12_10 1_555 1_555
H24_10 C12_10 1_555 1_555
N6_10 C9_13 1_555 1_555
N10_14 Cu5_14 1_555 1_555
Cu5_14 O1_20 1_555 1_555
O10_14 P4_14 1_555 1_555
C20_14 P4_14 1_555 1_555
C21_14 H40_14 1_555 1_555
H41_14 C21_14 1_555 1_555
C23_10 P4_14 1_555 1_555
H44_10 C23_10 1_555 1_555
H45_10 C23_10 1_555 1_555
H46_10 C20_14 1_555 1_555
C24_10 N10_14 1_555 1_555
H47_10 C24_10 1_555 1_555
H48_10 C24_10 1_555 1_555
N12_10 C21_14 1_555 1_555
Cu6_11 O4_13 1_555 1_555
N4_13 C8_13 1_555 1_555
Cl3_10 Cu5_14 1_555 1_555
C11_10 N6_10 1_555 1_555
C12_10 N6_10 1_555 1_555
Cl4_20 Cu5_14 1_555 1_555
N10_14 C20_14 1_555 1_555
C23_10 N12_10 1_555 1_555
C24_10 N12_10 1_555 1_555
O1_21 Cu1_14 1_555 1_555
N1_14 Cu1_14 1_555 1_555
Cu1_14 Cl1_21 1_555 1_555
O3_14 P1_14 1_555 1_555
Cu2_12 O3_14 1_555 1_555
Cl2_10 Cu1_14 1_555 1_555
C2_14 P1_14 1_555 1_555
C3_14 H4_14 1_555 1_555
H5_14 C3_14 1_555 1_555
C5_10 P1_14 1_555 1_555
H8_10 C5_10 1_555 1_555
H9_10 C5_10 1_555 1_555
H10_10 C2_14 1_555 1_555
C6_10 N1_14 1_555 1_555
H11_10 C6_10 1_555 1_555
H12_10 C6_10 1_555 1_555
N3_10 C3_14 1_555 1_555
N7_13 Cu4_13 1_555 1_555
Cu4_13 O1_21 1_555 1_555
O10_15 P3_13 1_555 1_555
Cl4_21 Cu4_13 1_555 1_555
C14_13 P3_13 1_555 1_555
C15_13 H28_13 1_555 1_555
H29_13 C15_13 1_555 1_555
C17_10 P3_13 1_555 1_555
H32_10 C17_10 1_555 1_555
H33_10 C17_10 1_555 1_555
H34_10 C14_13 1_555 1_555
C18_10 N7_13 1_555 1_555
H35_10 C18_10 1_555 1_555
H36_10 C18_10 1_555 1_555
N9_10 C15_13 1_555 1_555
O7_18 Cu2_12 1_555 1_555
O8_24 Cu2_12 1_555 1_555
O9_24 Cu2_12 1_555 1_555
O10_20 Cu2_12 1_555 1_555
N1_14 C2_14 1_555 1_555
Cl2_10 Cu4_13 1_555 1_555
C5_10 N3_10 1_555 1_555
C6_10 N3_10 1_555 1_555
N7_13 C14_13 1_555 1_555
C17_10 N9_10 1_555 1_555
C18_10 N9_10 1_555 1_555
Cl1_22 Cu3_14 1_555 1_555
P2_14 C7_10 1_555 1_555
N4_14 Cu3_14 1_555 1_555
C7_10 H13_10 1_555 1_555
H14_10 C7_10 1_555 1_555
Cu3_14 O1_22 1_555 1_555
O4_14 P2_14 1_555 1_555
C8_14 P2_14 1_555 1_555
H15_10 C8_14 1_555 1_555
C9_14 H16_14 1_555 1_555
H17_14 C9_14 1_555 1_555
C10_10 N4_14 1_555 1_555
H18_10 C10_10 1_555 1_555
H19_10 C10_10 1_555 1_555
N5_10 C7_10 1_555 1_555
P3_14 C13_10 1_555 1_555
N7_14 Cu4_14 1_555 1_555
C13_10 H25_10 1_555 1_555
H26_10 C13_10 1_555 1_555
Cu4_14 O1_22 1_555 1_555
O10_16 P3_14 1_555 1_555
Cl4_22 Cu4_14 1_555 1_555
C14_14 P3_14 1_555 1_555
H27_10 C14_14 1_555 1_555
C15_14 H28_14 1_555 1_555
H29_14 C15_14 1_555 1_555
C16_10 N7_14 1_555 1_555
H30_10 C16_10 1_555 1_555
H31_10 C16_10 1_555 1_555
N8_10 C13_10 1_555 1_555
Cl5_10 Cu3_14 1_555 1_555
Cu6_12 O4_14 1_555 1_555
N4_14 C8_14 1_555 1_555
C9_14 N5_10 1_555 1_555
C10_10 N5_10 1_555 1_555
N7_14 C14_14 1_555 1_555
Cu4_14 Cl5_10 1_555 1_555
C15_14 N8_10 1_555 1_555
C16_10 N8_10 1_555 1_555
O2_19 Cu6_9 1_555 1_555
O8_25 Cu6_9 1_555 1_555
O9_25 Cu6_9 1_555 1_555
O10_21 Cu6_9 1_555 1_555
O7_19 Cu6_10 1_555 1_555
O8_26 Cu6_10 1_555 1_555
O9_26 Cu6_10 1_555 1_555
O10_22 Cu6_10 1_555 1_555
O7_20 Cu6_11 1_555 1_555
O8_27 Cu6_11 1_555 1_555
O9_27 Cu6_11 1_555 1_555
O10_23 Cu6_11 1_555 1_555
O2_20 Cu6_12 1_555 1_555
O8_28 Cu6_12 1_555 1_555
O9_28 Cu6_12 1_555 1_555
O10_24 Cu6_12 1_555 1_555
O1_23 Cu1_15 1_555 1_555
P1_15 C1_11 1_555 1_555
N1_15 Cu1_15 1_555 1_555
C1_11 H1_11 1_555 1_555
H2_11 C1_11 1_555 1_555
O2_21 Cu7_3 1_555 1_555
Cu1_15 Cl1_23 1_555 1_555
O3_15 P1_15 1_555 1_555
Cu7_3 O3_15 1_555 1_555
C2_15 P1_15 1_555 1_555
H3_11 C2_15 1_555 1_555
C3_15 H4_15 1_555 1_555
H5_15 C3_15 1_555 1_555
C4_11 N1_15 1_555 1_555
H6_11 C4_11 1_555 1_555
H7_11 C4_11 1_555 1_555
N2_11 C1_11 1_555 1_555
P4_15 C19_11 1_555 1_555
N10_15 Cu5_15 1_555 1_555
C19_11 H37_11 1_555 1_555
H38_11 C19_11 1_555 1_555
Cu5_15 O1_23 1_555 1_555
O10_19 P4_15 1_555 1_555
C20_15 P4_15 1_555 1_555
H39_11 C20_15 1_555 1_555
C21_15 H40_15 1_555 1_555
H41_15 C21_15 1_555 1_555
C22_11 N10_15 1_555 1_555
H42_11 C22_11 1_555 1_555
H43_11 C22_11 1_555 1_555
N11_11 C19_11 1_555 1_555
Cl6_11 Cu1_15 1_555 1_555
O8_29 Cu7_3 1_555 1_555
O9_29 Cu7_3 1_555 1_555
N1_15 C2_15 1_555 1_555
C3_15 N2_11 1_555 1_555
C4_11 N2_11 1_555 1_555
Cl4_23 Cu5_15 1_555 1_555
N10_15 C20_15 1_555 1_555
Cu5_15 Cl6_11 1_555 1_555
C21_15 N11_11 1_555 1_555
C22_11 N11_11 1_555 1_555
O1_24 Cu1_16 1_555 1_555
N1_16 Cu1_16 1_555 1_555
Cu1_16 Cl1_24 1_555 1_555
O3_16 P1_16 1_555 1_555
Cu7_4 O3_16 1_555 1_555
Cl2_11 Cu1_16 1_555 1_555
C2_16 P1_16 1_555 1_555
C3_16 H4_16 1_555 1_555
H5_16 C3_16 1_555 1_555
C5_11 P1_16 1_555 1_555
H8_11 C5_11 1_555 1_555
H9_11 C5_11 1_555 1_555
H10_11 C2_16 1_555 1_555
C6_11 N1_16 1_555 1_555
H11_11 C6_11 1_555 1_555
H12_11 C6_11 1_555 1_555
N3_11 C3_16 1_555 1_555
N7_15 Cu4_15 1_555 1_555
Cu4_15 O1_24 1_555 1_555
O10_17 P3_15 1_555 1_555
Cl4_24 Cu4_15 1_555 1_555
C14_15 P3_15 1_555 1_555
C15_15 H28_15 1_555 1_555
H29_15 C15_15 1_555 1_555
C17_11 P3_15 1_555 1_555
H32_11 C17_11 1_555 1_555
H33_11 C17_11 1_555 1_555
H34_11 C14_15 1_555 1_555
C18_11 N7_15 1_555 1_555
H35_11 C18_11 1_555 1_555
H36_11 C18_11 1_555 1_555
N9_11 C15_15 1_555 1_555
O7_21 Cu7_4 1_555 1_555
O8_30 Cu7_4 1_555 1_555
O9_30 Cu7_4 1_555 1_555
N1_16 C2_16 1_555 1_555
Cl2_11 Cu4_15 1_555 1_555
C5_11 N3_11 1_555 1_555
C6_11 N3_11 1_555 1_555
N7_15 C14_15 1_555 1_555
C17_11 N9_11 1_555 1_555
C18_11 N9_11 1_555 1_555
Cl1_25 Cu3_15 1_555 1_555
N4_15 Cu3_15 1_555 1_555
Cu3_15 O1_25 1_555 1_555
O4_15 P2_15 1_555 1_555
Cl3_11 Cu3_15 1_555 1_555
C8_15 P2_15 1_555 1_555
C9_15 H16_15 1_555 1_555
H17_15 C9_15 1_555 1_555
C11_11 P2_15 1_555 1_555
H20_11 C11_11 1_555 1_555
H21_11 C11_11 1_555 1_555
H22_11 C8_15 1_555 1_555
C12_11 N4_15 1_555 1_555
H23_11 C12_11 1_555 1_555
H24_11 C12_11 1_555 1_555
N6_11 C9_15 1_555 1_555
N10_16 Cu5_16 1_555 1_555
Cu5_16 O1_25 1_555 1_555
O10_20 P4_16 1_555 1_555
C20_16 P4_16 1_555 1_555
C21_16 H40_16 1_555 1_555
H41_16 C21_16 1_555 1_555
C23_11 P4_16 1_555 1_555
H44_11 C23_11 1_555 1_555
H45_11 C23_11 1_555 1_555
H46_11 C20_16 1_555 1_555
C24_11 N10_16 1_555 1_555
H47_11 C24_11 1_555 1_555
H48_11 C24_11 1_555 1_555
N12_11 C21_16 1_555 1_555
Cu8_5 O4_15 1_555 1_555
N4_15 C8_15 1_555 1_555
Cl3_11 Cu5_16 1_555 1_555
C11_11 N6_11 1_555 1_555
C12_11 N6_11 1_555 1_555
Cl4_25 Cu5_16 1_555 1_555
N10_16 C20_16 1_555 1_555
C23_11 N12_11 1_555 1_555
C24_11 N12_11 1_555 1_555
Cl1_26 Cu3_16 1_555 1_555
P2_16 C7_11 1_555 1_555
N4_16 Cu3_16 1_555 1_555
C7_11 H13_11 1_555 1_555
H14_11 C7_11 1_555 1_555
Cu3_16 O1_26 1_555 1_555
O4_16 P2_16 1_555 1_555
C8_16 P2_16 1_555 1_555
H15_11 C8_16 1_555 1_555
C9_16 H16_16 1_555 1_555
H17_16 C9_16 1_555 1_555
C10_11 N4_16 1_555 1_555
H18_11 C10_11 1_555 1_555
H19_11 C10_11 1_555 1_555
N5_11 C7_11 1_555 1_555
P3_16 C13_11 1_555 1_555
N7_16 Cu4_16 1_555 1_555
C13_11 H25_11 1_555 1_555
H26_11 C13_11 1_555 1_555
Cu4_16 O1_26 1_555 1_555
O10_18 P3_16 1_555 1_555
Cl4_26 Cu4_16 1_555 1_555
C14_16 P3_16 1_555 1_555
H27_11 C14_16 1_555 1_555
C15_16 H28_16 1_555 1_555
H29_16 C15_16 1_555 1_555
C16_11 N7_16 1_555 1_555
H30_11 C16_11 1_555 1_555
H31_11 C16_11 1_555 1_555
N8_11 C13_11 1_555 1_555
Cl5_11 Cu3_16 1_555 1_555
Cu8_6 O4_16 1_555 1_555
N4_16 C8_16 1_555 1_555
C9_16 N5_11 1_555 1_555
C10_11 N5_11 1_555 1_555
N7_16 C14_16 1_555 1_555
Cu4_16 Cl5_11 1_555 1_555
C15_16 N8_11 1_555 1_555
C16_11 N8_11 1_555 1_555
O1_27 Cu1_17 1_555 1_555
N1_17 Cu1_17 1_555 1_555
Cu1_17 Cl1_27 1_555 1_555
O3_17 P1_17 1_555 1_555
Cu8_3 O3_17 1_555 1_555
Cl2_12 Cu1_17 1_555 1_555
C2_17 P1_17 1_555 1_555
C3_17 H4_17 1_555 1_555
H5_17 C3_17 1_555 1_555
C5_12 P1_17 1_555 1_555
H8_12 C5_12 1_555 1_555
H9_12 C5_12 1_555 1_555
H10_12 C2_17 1_555 1_555
C6_12 N1_17 1_555 1_555
H11_12 C6_12 1_555 1_555
H12_12 C6_12 1_555 1_555
N3_12 C3_17 1_555 1_555
N7_17 Cu4_17 1_555 1_555
Cu4_17 O1_27 1_555 1_555
O10_23 P3_17 1_555 1_555
Cl4_27 Cu4_17 1_555 1_555
C14_17 P3_17 1_555 1_555
C15_17 H28_17 1_555 1_555
H29_17 C15_17 1_555 1_555
C17_12 P3_17 1_555 1_555
H32_12 C17_12 1_555 1_555
H33_12 C17_12 1_555 1_555
H34_12 C14_17 1_555 1_555
C18_12 N7_17 1_555 1_555
H35_12 C18_12 1_555 1_555
H36_12 C18_12 1_555 1_555
N9_12 C15_17 1_555 1_555
O7_22 Cu8_3 1_555 1_555
O8_31 Cu8_3 1_555 1_555
O9_31 Cu8_3 1_555 1_555
N1_17 C2_17 1_555 1_555
Cl2_12 Cu4_17 1_555 1_555
C5_12 N3_12 1_555 1_555
C6_12 N3_12 1_555 1_555
N7_17 C14_17 1_555 1_555
C17_12 N9_12 1_555 1_555
C18_12 N9_12 1_555 1_555
O1_28 Cu1_18 1_555 1_555
P1_18 C1_12 1_555 1_555
N1_18 Cu1_18 1_555 1_555
C1_12 H1_12 1_555 1_555
H2_12 C1_12 1_555 1_555
O2_22 Cu8_4 1_555 1_555
Cu1_18 Cl1_28 1_555 1_555
O3_18 P1_18 1_555 1_555
Cu8_4 O3_18 1_555 1_555
C2_18 P1_18 1_555 1_555
H3_12 C2_18 1_555 1_555
C3_18 H4_18 1_555 1_555
H5_18 C3_18 1_555 1_555
C4_12 N1_18 1_555 1_555
H6_12 C4_12 1_555 1_555
H7_12 C4_12 1_555 1_555
N2_12 C1_12 1_555 1_555
P4_17 C19_12 1_555 1_555
N10_17 Cu5_17 1_555 1_555
C19_12 H37_12 1_555 1_555
H38_12 C19_12 1_555 1_555
Cu5_17 O1_28 1_555 1_555
O10_21 P4_17 1_555 1_555
C20_17 P4_17 1_555 1_555
H39_12 C20_17 1_555 1_555
C21_17 H40_17 1_555 1_555
H41_17 C21_17 1_555 1_555
C22_12 N10_17 1_555 1_555
H42_12 C22_12 1_555 1_555
H43_12 C22_12 1_555 1_555
N11_12 C19_12 1_555 1_555
Cl6_12 Cu1_18 1_555 1_555
O8_32 Cu8_4 1_555 1_555
O9_32 Cu8_4 1_555 1_555
N1_18 C2_18 1_555 1_555
C3_18 N2_12 1_555 1_555
C4_12 N2_12 1_555 1_555
Cl4_28 Cu5_17 1_555 1_555
N10_17 C20_17 1_555 1_555
Cu5_17 Cl6_12 1_555 1_555
C21_17 N11_12 1_555 1_555
C22_12 N11_12 1_555 1_555
Cl1_29 Cu3_17 1_555 1_555
P2_17 C7_12 1_555 1_555
N4_17 Cu3_17 1_555 1_555
C7_12 H13_12 1_555 1_555
H14_12 C7_12 1_555 1_555
Cu3_17 O1_29 1_555 1_555
O4_17 P2_17 1_555 1_555
C8_17 P2_17 1_555 1_555
H15_12 C8_17 1_555 1_555
C9_17 H16_17 1_555 1_555
H17_17 C9_17 1_555 1_555
C10_12 N4_17 1_555 1_555
H18_12 C10_12 1_555 1_555
H19_12 C10_12 1_555 1_555
N5_12 C7_12 1_555 1_555
P3_18 C13_12 1_555 1_555
N7_18 Cu4_18 1_555 1_555
C13_12 H25_12 1_555 1_555
H26_12 C13_12 1_555 1_555
Cu4_18 O1_29 1_555 1_555
O10_24 P3_18 1_555 1_555
Cl4_29 Cu4_18 1_555 1_555
C14_18 P3_18 1_555 1_555
H27_12 C14_18 1_555 1_555
C15_18 H28_18 1_555 1_555
H29_18 C15_18 1_555 1_555
C16_12 N7_18 1_555 1_555
H30_12 C16_12 1_555 1_555
H31_12 C16_12 1_555 1_555
N8_12 C13_12 1_555 1_555
Cl5_12 Cu3_17 1_555 1_555
Cu7_5 O4_17 1_555 1_555
N4_17 C8_17 1_555 1_555
C9_17 N5_12 1_555 1_555
C10_12 N5_12 1_555 1_555
N7_18 C14_18 1_555 1_555
Cu4_18 Cl5_12 1_555 1_555
C15_18 N8_12 1_555 1_555
C16_12 N8_12 1_555 1_555
Cl1_30 Cu3_18 1_555 1_555
N4_18 Cu3_18 1_555 1_555
Cu3_18 O1_30 1_555 1_555
O4_18 P2_18 1_555 1_555
Cl3_12 Cu3_18 1_555 1_555
C8_18 P2_18 1_555 1_555
C9_18 H16_18 1_555 1_555
H17_18 C9_18 1_555 1_555
C11_12 P2_18 1_555 1_555
H20_12 C11_12 1_555 1_555
H21_12 C11_12 1_555 1_555
H22_12 C8_18 1_555 1_555
C12_12 N4_18 1_555 1_555
H23_12 C12_12 1_555 1_555
H24_12 C12_12 1_555 1_555
N6_12 C9_18 1_555 1_555
N10_18 Cu5_18 1_555 1_555
Cu5_18 O1_30 1_555 1_555
O10_22 P4_18 1_555 1_555
C20_18 P4_18 1_555 1_555
C21_18 H40_18 1_555 1_555
H41_18 C21_18 1_555 1_555
C23_12 P4_18 1_555 1_555
H44_12 C23_12 1_555 1_555
H45_12 C23_12 1_555 1_555
H46_12 C20_18 1_555 1_555
C24_12 N10_18 1_555 1_555
H47_12 C24_12 1_555 1_555
H48_12 C24_12 1_555 1_555
N12_12 C21_18 1_555 1_555
Cu7_6 O4_18 1_555 1_555
N4_18 C8_18 1_555 1_555
Cl3_12 Cu5_18 1_555 1_555
C11_12 N6_12 1_555 1_555
C12_12 N6_12 1_555 1_555
Cl4_30 Cu5_18 1_555 1_555
N10_18 C20_18 1_555 1_555
C23_12 N12_12 1_555 1_555
C24_12 N12_12 1_555 1_555
O7_23 Cu8_5 1_555 1_555
O8_33 Cu8_5 1_555 1_555
O9_33 Cu8_5 1_555 1_555
O2_23 Cu8_6 1_555 1_555
O8_34 Cu8_6 1_555 1_555
O9_34 Cu8_6 1_555 1_555
O2_24 Cu7_5 1_555 1_555
O8_35 Cu7_5 1_555 1_555
O9_35 Cu7_5 1_555 1_555
O7_24 Cu7_6 1_555 1_555
O8_36 Cu7_6 1_555 1_555
O9_36 Cu7_6 1_555 1_555
O1_31 Cu1_19 1_555 1_555
P1_19 C1_13 1_555 1_555
N1_19 Cu1_19 1_555 1_555
C1_13 H1_13 1_555 1_555
H2_13 C1_13 1_555 1_555
Cu1_19 Cl1_31 1_555 1_555
O8_4 P1_19 1_555 1_555
Cl2_13 Cu1_19 1_555 1_555
C2_19 P1_19 1_555 1_555
H3_13 C2_19 1_555 1_555
C3_19 H4_19 1_555 1_555
H5_19 C3_19 1_555 1_555
C4_13 N1_19 1_555 1_555
H6_13 C4_13 1_555 1_555
H7_13 C4_13 1_555 1_555
N2_13 C1_13 1_555 1_555
C5_13 P1_19 1_555 1_555
H8_13 C5_13 1_555 1_555
H9_13 C5_13 1_555 1_555
H10_13 C2_19 1_555 1_555
C6_13 N1_19 1_555 1_555
H11_13 C6_13 1_555 1_555
H12_13 C6_13 1_555 1_555
N3_13 C3_19 1_555 1_555
N7_19 Cu4_19 1_555 1_555
Cu4_19 O1_31 1_555 1_555
O8_33 P3_19 1_555 1_555
Cl4_31 Cu4_19 1_555 1_555
C14_19 P3_19 1_555 1_555
C15_19 H28_19 1_555 1_555
H29_19 C15_19 1_555 1_555
C17_13 P3_19 1_555 1_555
H32_13 C17_13 1_555 1_555
H33_13 C17_13 1_555 1_555
H34_13 C14_19 1_555 1_555
C18_13 N7_19 1_555 1_555
H35_13 C18_13 1_555 1_555
H36_13 C18_13 1_555 1_555
N9_13 C15_19 1_555 1_555
P4_19 C19_13 1_555 1_555
N10_19 Cu5_19 1_555 1_555
C19_13 H37_13 1_555 1_555
H38_13 C19_13 1_555 1_555
Cu5_19 O1_31 1_555 1_555
O8_29 P4_19 1_555 1_555
C20_19 P4_19 1_555 1_555
H39_13 C20_19 1_555 1_555
C21_19 H40_19 1_555 1_555
H41_19 C21_19 1_555 1_555
C22_13 N10_19 1_555 1_555
H42_13 C22_13 1_555 1_555
H43_13 C22_13 1_555 1_555
N11_13 C19_13 1_555 1_555
Cl6_13 Cu1_19 1_555 1_555
N1_19 C2_19 1_555 1_555
Cl2_13 Cu4_19 1_555 1_555
C3_19 N2_13 1_555 1_555
C4_13 N2_13 1_555 1_555
C5_13 N3_13 1_555 1_555
C6_13 N3_13 1_555 1_555
N7_19 C14_19 1_555 1_555
Cl4_31 Cu5_19 1_555 1_555
C17_13 N9_13 1_555 1_555
C18_13 N9_13 1_555 1_555
N10_19 C20_19 1_555 1_555
Cu5_19 Cl6_13 1_555 1_555
C21_19 N11_13 1_555 1_555
C22_13 N11_13 1_555 1_555
Cl1_32 Cu3_19 1_555 1_555
P2_19 C7_13 1_555 1_555
N4_19 Cu3_19 1_555 1_555
C7_13 H13_13 1_555 1_555
H14_13 C7_13 1_555 1_555
Cu3_19 O1_32 1_555 1_555
O8_2 P2_19 1_555 1_555
Cl3_13 Cu3_19 1_555 1_555
C8_19 P2_19 1_555 1_555
H15_13 C8_19 1_555 1_555
C9_19 H16_19 1_555 1_555
H17_19 C9_19 1_555 1_555
C10_13 N4_19 1_555 1_555
H18_13 C10_13 1_555 1_555
H19_13 C10_13 1_555 1_555
N5_13 C7_13 1_555 1_555
C11_13 P2_19 1_555 1_555
H20_13 C11_13 1_555 1_555
H21_13 C11_13 1_555 1_555
H22_13 C8_19 1_555 1_555
C12_13 N4_19 1_555 1_555
H23_13 C12_13 1_555 1_555
H24_13 C12_13 1_555 1_555
N6_13 C9_19 1_555 1_555
P3_20 C13_13 1_555 1_555
N7_20 Cu4_20 1_555 1_555
C13_13 H25_13 1_555 1_555
H26_13 C13_13 1_555 1_555
Cu4_20 O1_32 1_555 1_555
O8_34 P3_20 1_555 1_555
Cl4_32 Cu4_20 1_555 1_555
C14_20 P3_20 1_555 1_555
H27_13 C14_20 1_555 1_555
C15_20 H28_20 1_555 1_555
H29_20 C15_20 1_555 1_555
C16_13 N7_20 1_555 1_555
H30_13 C16_13 1_555 1_555
H31_13 C16_13 1_555 1_555
N8_13 C13_13 1_555 1_555
N10_20 Cu5_20 1_555 1_555
Cu5_20 O1_32 1_555 1_555
O8_30 P4_20 1_555 1_555
C20_20 P4_20 1_555 1_555
C21_20 H40_20 1_555 1_555
H41_20 C21_20 1_555 1_555
C23_13 P4_20 1_555 1_555
H44_13 C23_13 1_555 1_555
H45_13 C23_13 1_555 1_555
H46_13 C20_20 1_555 1_555
C24_13 N10_20 1_555 1_555
H47_13 C24_13 1_555 1_555
H48_13 C24_13 1_555 1_555
N12_13 C21_20 1_555 1_555
Cl5_13 Cu3_19 1_555 1_555
N4_19 C8_19 1_555 1_555
Cl3_13 Cu5_20 1_555 1_555
C9_19 N5_13 1_555 1_555
C10_13 N5_13 1_555 1_555
C11_13 N6_13 1_555 1_555
C12_13 N6_13 1_555 1_555
N7_20 C14_20 1_555 1_555
Cu4_20 Cl5_13 1_555 1_555
Cl4_32 Cu5_20 1_555 1_555
C15_20 N8_13 1_555 1_555
C16_13 N8_13 1_555 1_555
N10_20 C20_20 1_555 1_555
C23_13 N12_13 1_555 1_555
C24_13 N12_13 1_555 1_555
O1_33 Cu1_20 1_555 1_555
P1_20 C1_14 1_555 1_555
N1_20 Cu1_20 1_555 1_555
C1_14 H1_14 1_555 1_555
H2_14 C1_14 1_555 1_555
Cu1_20 Cl1_33 1_555 1_555
O8_3 P1_20 1_555 1_555
Cl2_14 Cu1_20 1_555 1_555
C2_20 P1_20 1_555 1_555
H3_14 C2_20 1_555 1_555
C3_20 H4_20 1_555 1_555
H5_20 C3_20 1_555 1_555
C4_14 N1_20 1_555 1_555
H6_14 C4_14 1_555 1_555
H7_14 C4_14 1_555 1_555
N2_14 C1_14 1_555 1_555
C5_14 P1_20 1_555 1_555
H8_14 C5_14 1_555 1_555
H9_14 C5_14 1_555 1_555
H10_14 C2_20 1_555 1_555
C6_14 N1_20 1_555 1_555
H11_14 C6_14 1_555 1_555
H12_14 C6_14 1_555 1_555
N3_14 C3_20 1_555 1_555
N7_21 Cu4_21 1_555 1_555
Cu4_21 O1_33 1_555 1_555
O8_31 P3_21 1_555 1_555
Cl4_33 Cu4_21 1_555 1_555
C14_21 P3_21 1_555 1_555
C15_21 H28_21 1_555 1_555
H29_21 C15_21 1_555 1_555
C17_14 P3_21 1_555 1_555
H32_14 C17_14 1_555 1_555
H33_14 C17_14 1_555 1_555
H34_14 C14_21 1_555 1_555
C18_14 N7_21 1_555 1_555
H35_14 C18_14 1_555 1_555
H36_14 C18_14 1_555 1_555
N9_14 C15_21 1_555 1_555
P4_21 C19_14 1_555 1_555
N10_21 Cu5_21 1_555 1_555
C19_14 H37_14 1_555 1_555
H38_14 C19_14 1_555 1_555
Cu5_21 O1_33 1_555 1_555
O8_35 P4_21 1_555 1_555
C20_21 P4_21 1_555 1_555
H39_14 C20_21 1_555 1_555
C21_21 H40_21 1_555 1_555
H41_21 C21_21 1_555 1_555
C22_14 N10_21 1_555 1_555
H42_14 C22_14 1_555 1_555
H43_14 C22_14 1_555 1_555
N11_14 C19_14 1_555 1_555
Cl6_14 Cu1_20 1_555 1_555
N1_20 C2_20 1_555 1_555
Cl2_14 Cu4_21 1_555 1_555
C3_20 N2_14 1_555 1_555
C4_14 N2_14 1_555 1_555
C5_14 N3_14 1_555 1_555
C6_14 N3_14 1_555 1_555
N7_21 C14_21 1_555 1_555
Cl4_33 Cu5_21 1_555 1_555
C17_14 N9_14 1_555 1_555
C18_14 N9_14 1_555 1_555
N10_21 C20_21 1_555 1_555
Cu5_21 Cl6_14 1_555 1_555
C21_21 N11_14 1_555 1_555
C22_14 N11_14 1_555 1_555
Cl1_34 Cu3_20 1_555 1_555
P2_20 C7_14 1_555 1_555
N4_20 Cu3_20 1_555 1_555
C7_14 H13_14 1_555 1_555
H14_14 C7_14 1_555 1_555
Cu3_20 O1_34 1_555 1_555
O8 P2_20 1_555 1_555
Cl3_14 Cu3_20 1_555 1_555
C8_20 P2_20 1_555 1_555
H15_14 C8_20 1_555 1_555
C9_20 H16_20 1_555 1_555
H17_20 C9_20 1_555 1_555
C10_14 N4_20 1_555 1_555
H18_14 C10_14 1_555 1_555
H19_14 C10_14 1_555 1_555
N5_14 C7_14 1_555 1_555
C11_14 P2_20 1_555 1_555
H20_14 C11_14 1_555 1_555
H21_14 C11_14 1_555 1_555
H22_14 C8_20 1_555 1_555
C12_14 N4_20 1_555 1_555
H23_14 C12_14 1_555 1_555
H24_14 C12_14 1_555 1_555
N6_14 C9_20 1_555 1_555
P3_22 C13_14 1_555 1_555
N7_22 Cu4_22 1_555 1_555
C13_14 H25_14 1_555 1_555
H26_14 C13_14 1_555 1_555
Cu4_22 O1_34 1_555 1_555
O8_32 P3_22 1_555 1_555
Cl4_34 Cu4_22 1_555 1_555
C14_22 P3_22 1_555 1_555
H27_14 C14_22 1_555 1_555
C15_22 H28_22 1_555 1_555
H29_22 C15_22 1_555 1_555
C16_14 N7_22 1_555 1_555
H30_14 C16_14 1_555 1_555
H31_14 C16_14 1_555 1_555
N8_14 C13_14 1_555 1_555
N10_22 Cu5_22 1_555 1_555
Cu5_22 O1_34 1_555 1_555
O8_36 P4_22 1_555 1_555
C20_22 P4_22 1_555 1_555
C21_22 H40_22 1_555 1_555
H41_22 C21_22 1_555 1_555
C23_14 P4_22 1_555 1_555
H44_14 C23_14 1_555 1_555
H45_14 C23_14 1_555 1_555
H46_14 C20_22 1_555 1_555
C24_14 N10_22 1_555 1_555
H47_14 C24_14 1_555 1_555
H48_14 C24_14 1_555 1_555
N12_14 C21_22 1_555 1_555
Cl5_14 Cu3_20 1_555 1_555
N4_20 C8_20 1_555 1_555
Cl3_14 Cu5_22 1_555 1_555
C9_20 N5_14 1_555 1_555
C10_14 N5_14 1_555 1_555
C11_14 N6_14 1_555 1_555
C12_14 N6_14 1_555 1_555
N7_22 C14_22 1_555 1_555
Cu4_22 Cl5_14 1_555 1_555
Cl4_34 Cu5_22 1_555 1_555
C15_22 N8_14 1_555 1_555
C16_14 N8_14 1_555 1_555
N10_22 C20_22 1_555 1_555
C23_14 N12_14 1_555 1_555
C24_14 N12_14 1_555 1_555
O1_35 Cu1_21 1_555 1_555
N1_21 Cu1_21 1_555 1_555
Cu1_21 Cl1_35 1_555 1_555
O9_19 P1_21 1_555 1_555
Cl1_35 Cu3_21 1_555 1_555
Cl2_15 Cu1_21 1_555 1_555
C2_21 P1_21 1_555 1_555
C3_21 H4_21 1_555 1_555
H5_21 C3_21 1_555 1_555
C5_15 P1_21 1_555 1_555
H8_15 C5_15 1_555 1_555
H9_15 C5_15 1_555 1_555
H10_15 C2_21 1_555 1_555
C6_15 N1_21 1_555 1_555
H11_15 C6_15 1_555 1_555
H12_15 C6_15 1_555 1_555
N3_15 C3_21 1_555 1_555
P2_21 C7_15 1_555 1_555
N4_21 Cu3_21 1_555 1_555
C7_15 H13_15 1_555 1_555
H14_15 C7_15 1_555 1_555
Cu3_21 O1_35 1_555 1_555
O9_17 P2_21 1_555 1_555
C8_21 P2_21 1_555 1_555
H15_15 C8_21 1_555 1_555
C9_21 H16_21 1_555 1_555
H17_21 C9_21 1_555 1_555
C10_15 N4_21 1_555 1_555
H18_15 C10_15 1_555 1_555
H19_15 C10_15 1_555 1_555
N5_15 C7_15 1_555 1_555
P3_23 C13_15 1_555 1_555
N7_23 Cu4_23 1_555 1_555
C13_15 H25_15 1_555 1_555
H26_15 C13_15 1_555 1_555
Cu4_23 O1_35 1_555 1_555
O9_4 P3_23 1_555 1_555
Cl4_35 Cu4_23 1_555 1_555
C14_23 P3_23 1_555 1_555
H27_15 C14_23 1_555 1_555
C15_23 H28_23 1_555 1_555
H29_23 C15_23 1_555 1_555
C16_15 N7_23 1_555 1_555
H30_15 C16_15 1_555 1_555
H31_15 C16_15 1_555 1_555
N8_15 C13_15 1_555 1_555
C17_15 P3_23 1_555 1_555
H32_15 C17_15 1_555 1_555
H33_15 C17_15 1_555 1_555
H34_15 C14_23 1_555 1_555
C18_15 N7_23 1_555 1_555
H35_15 C18_15 1_555 1_555
H36_15 C18_15 1_555 1_555
N9_15 C15_23 1_555 1_555
Cl5_15 Cu3_21 1_555 1_555
N1_21 C2_21 1_555 1_555
Cl2_15 Cu4_23 1_555 1_555
C5_15 N3_15 1_555 1_555
C6_15 N3_15 1_555 1_555
N4_21 C8_21 1_555 1_555
C9_21 N5_15 1_555 1_555
C10_15 N5_15 1_555 1_555
N7_23 C14_23 1_555 1_555
Cu4_23 Cl5_15 1_555 1_555
C15_23 N8_15 1_555 1_555
C16_15 N8_15 1_555 1_555
C17_15 N9_15 1_555 1_555
C18_15 N9_15 1_555 1_555
O1_36 Cu1_22 1_555 1_555
P1_22 C1_15 1_555 1_555
N1_22 Cu1_22 1_555 1_555
C1_15 H1_15 1_555 1_555
H2_15 C1_15 1_555 1_555
Cu1_22 Cl1_36 1_555 1_555
O9_20 P1_22 1_555 1_555
Cl1_36 Cu3_22 1_555 1_555
C2_22 P1_22 1_555 1_555
H3_15 C2_22 1_555 1_555
C3_22 H4_22 1_555 1_555
H5_22 C3_22 1_555 1_555
C4_15 N1_22 1_555 1_555
H6_15 C4_15 1_555 1_555
H7_15 C4_15 1_555 1_555
N2_15 C1_15 1_555 1_555
N4_22 Cu3_22 1_555 1_555
Cu3_22 O1_36 1_555 1_555
O9_18 P2_22 1_555 1_555
Cl3_15 Cu3_22 1_555 1_555
C8_22 P2_22 1_555 1_555
C9_22 H16_22 1_555 1_555
H17_22 C9_22 1_555 1_555
C11_15 P2_22 1_555 1_555
H20_15 C11_15 1_555 1_555
H21_15 C11_15 1_555 1_555
H22_15 C8_22 1_555 1_555
C12_15 N4_22 1_555 1_555
H23_15 C12_15 1_555 1_555
H24_15 C12_15 1_555 1_555
N6_15 C9_22 1_555 1_555
P4_23 C19_15 1_555 1_555
N10_23 Cu5_23 1_555 1_555
C19_15 H37_15 1_555 1_555
H38_15 C19_15 1_555 1_555
Cu5_23 O1_36 1_555 1_555
O9_3 P4_23 1_555 1_555
C20_23 P4_23 1_555 1_555
H39_15 C20_23 1_555 1_555
C21_23 H40_23 1_555 1_555
H41_23 C21_23 1_555 1_555
C22_15 N10_23 1_555 1_555
H42_15 C22_15 1_555 1_555
H43_15 C22_15 1_555 1_555
N11_15 C19_15 1_555 1_555
C23_15 P4_23 1_555 1_555
H44_15 C23_15 1_555 1_555
H45_15 C23_15 1_555 1_555
H46_15 C20_23 1_555 1_555
C24_15 N10_23 1_555 1_555
H47_15 C24_15 1_555 1_555
H48_15 C24_15 1_555 1_555
N12_15 C21_23 1_555 1_555
Cl6_15 Cu1_22 1_555 1_555
N1_22 C2_22 1_555 1_555
C3_22 N2_15 1_555 1_555
C4_15 N2_15 1_555 1_555
N4_22 C8_22 1_555 1_555
Cl3_15 Cu5_23 1_555 1_555
C11_15 N6_15 1_555 1_555
C12_15 N6_15 1_555 1_555
Cl4_36 Cu5_23 1_555 1_555
N10_23 C20_23 1_555 1_555
Cu5_23 Cl6_15 1_555 1_555
C21_23 N11_15 1_555 1_555
C22_15 N11_15 1_555 1_555
C23_15 N12_15 1_555 1_555
C24_15 N12_15 1_555 1_555
O1_37 Cu1_23 1_555 1_555
P1_23 C1_16 1_555 1_555
N1_23 Cu1_23 1_555 1_555
C1_16 H1_16 1_555 1_555
H2_16 C1_16 1_555 1_555
Cu1_23 Cl1_37 1_555 1_555
O9_15 P1_23 1_555 1_555
Cl1_37 Cu3_23 1_555 1_555
C2_23 P1_23 1_555 1_555
H3_16 C2_23 1_555 1_555
C3_23 H4_23 1_555 1_555
H5_23 C3_23 1_555 1_555
C4_16 N1_23 1_555 1_555
H6_16 C4_16 1_555 1_555
H7_16 C4_16 1_555 1_555
N2_16 C1_16 1_555 1_555
N4_23 Cu3_23 1_555 1_555
Cu3_23 O1_37 1_555 1_555
O9_13 P2_23 1_555 1_555
Cl3_16 Cu3_23 1_555 1_555
C8_23 P2_23 1_555 1_555
C9_23 H16_23 1_555 1_555
H17_23 C9_23 1_555 1_555
C11_16 P2_23 1_555 1_555
H20_16 C11_16 1_555 1_555
H21_16 C11_16 1_555 1_555
H22_16 C8_23 1_555 1_555
C12_16 N4_23 1_555 1_555
H23_16 C12_16 1_555 1_555
H24_16 C12_16 1_555 1_555
N6_16 C9_23 1_555 1_555
P4_24 C19_16 1_555 1_555
N10_24 Cu5_24 1_555 1_555
C19_16 H37_16 1_555 1_555
H38_16 C19_16 1_555 1_555
Cu5_24 O1_37 1_555 1_555
O9_2 P4_24 1_555 1_555
C20_24 P4_24 1_555 1_555
H39_16 C20_24 1_555 1_555
C21_24 H40_24 1_555 1_555
H41_24 C21_24 1_555 1_555
C22_16 N10_24 1_555 1_555
H42_16 C22_16 1_555 1_555
H43_16 C22_16 1_555 1_555
N11_16 C19_16 1_555 1_555
C23_16 P4_24 1_555 1_555
H44_16 C23_16 1_555 1_555
H45_16 C23_16 1_555 1_555
H46_16 C20_24 1_555 1_555
C24_16 N10_24 1_555 1_555
H47_16 C24_16 1_555 1_555
H48_16 C24_16 1_555 1_555
N12_16 C21_24 1_555 1_555
Cl6_16 Cu1_23 1_555 1_555
N1_23 C2_23 1_555 1_555
C3_23 N2_16 1_555 1_555
C4_16 N2_16 1_555 1_555
N4_23 C8_23 1_555 1_555
Cl3_16 Cu5_24 1_555 1_555
C11_16 N6_16 1_555 1_555
C12_16 N6_16 1_555 1_555
Cl4_37 Cu5_24 1_555 1_555
N10_24 C20_24 1_555 1_555
Cu5_24 Cl6_16 1_555 1_555
C21_24 N11_16 1_555 1_555
C22_16 N11_16 1_555 1_555
C23_16 N12_16 1_555 1_555
C24_16 N12_16 1_555 1_555
O1_38 Cu1_24 1_555 1_555
N1_24 Cu1_24 1_555 1_555
Cu1_24 Cl1_38 1_555 1_555
O9_16 P1_24 1_555 1_555
Cl1_38 Cu3_24 1_555 1_555
Cl2_16 Cu1_24 1_555 1_555
C2_24 P1_24 1_555 1_555
C3_24 H4_24 1_555 1_555
H5_24 C3_24 1_555 1_555
C5_16 P1_24 1_555 1_555
H8_16 C5_16 1_555 1_555
H9_16 C5_16 1_555 1_555
H10_16 C2_24 1_555 1_555
C6_16 N1_24 1_555 1_555
H11_16 C6_16 1_555 1_555
H12_16 C6_16 1_555 1_555
N3_16 C3_24 1_555 1_555
P2_24 C7_16 1_555 1_555
N4_24 Cu3_24 1_555 1_555
C7_16 H13_16 1_555 1_555
H14_16 C7_16 1_555 1_555
Cu3_24 O1_38 1_555 1_555
O9_14 P2_24 1_555 1_555
C8_24 P2_24 1_555 1_555
H15_16 C8_24 1_555 1_555
C9_24 H16_24 1_555 1_555
H17_24 C9_24 1_555 1_555
C10_16 N4_24 1_555 1_555
H18_16 C10_16 1_555 1_555
H19_16 C10_16 1_555 1_555
N5_16 C7_16 1_555 1_555
P3_24 C13_16 1_555 1_555
N7_24 Cu4_24 1_555 1_555
C13_16 H25_16 1_555 1_555
H26_16 C13_16 1_555 1_555
Cu4_24 O1_38 1_555 1_555
O9 P3_24 1_555 1_555
Cl4_38 Cu4_24 1_555 1_555
C14_24 P3_24 1_555 1_555
H27_16 C14_24 1_555 1_555
C15_24 H28_24 1_555 1_555
H29_24 C15_24 1_555 1_555
C16_16 N7_24 1_555 1_555
H30_16 C16_16 1_555 1_555
H31_16 C16_16 1_555 1_555
N8_16 C13_16 1_555 1_555
C17_16 P3_24 1_555 1_555
H32_16 C17_16 1_555 1_555
H33_16 C17_16 1_555 1_555
H34_16 C14_24 1_555 1_555
C18_16 N7_24 1_555 1_555
H35_16 C18_16 1_555 1_555
H36_16 C18_16 1_555 1_555
N9_16 C15_24 1_555 1_555
Cl5_16 Cu3_24 1_555 1_555
N1_24 C2_24 1_555 1_555
Cl2_16 Cu4_24 1_555 1_555
C5_16 N3_16 1_555 1_555
C6_16 N3_16 1_555 1_555
N4_24 C8_24 1_555 1_555
C9_24 N5_16 1_555 1_555
C10_16 N5_16 1_555 1_555
N7_24 C14_24 1_555 1_555
Cu4_24 Cl5_16 1_555 1_555
C15_24 N8_16 1_555 1_555
C16_16 N8_16 1_555 1_555
C17_16 N9_16 1_555 1_555
C18_16 N9_16 1_555 1_555
O1_39 Cu1_25 1_555 1_555
N1_25 Cu1_25 1_555 1_555
Cu1_25 Cl1_39 1_555 1_555
O8_27 P1_25 1_555 1_555
Cl1_39 Cu3_25 1_555 1_555
Cl2_17 Cu1_25 1_555 1_555
C2_25 P1_25 1_555 1_555
C3_25 H4_25 1_555 1_555
H5_25 C3_25 1_555 1_555
C5_17 P1_25 1_555 1_555
H8_17 C5_17 1_555 1_555
H9_17 C5_17 1_555 1_555
H10_17 C2_25 1_555 1_555
C6_17 N1_25 1_555 1_555
H11_17 C6_17 1_555 1_555
H12_17 C6_17 1_555 1_555
N3_17 C3_25 1_555 1_555
P2_25 C7_17 1_555 1_555
N4_25 Cu3_25 1_555 1_555
C7_17 H13_17 1_555 1_555
H14_17 C7_17 1_555 1_555
Cu3_25 O1_39 1_555 1_555
O8_23 P2_25 1_555 1_555
C8_25 P2_25 1_555 1_555
H15_17 C8_25 1_555 1_555
C9_25 H16_25 1_555 1_555
H17_25 C9_25 1_555 1_555
C10_17 N4_25 1_555 1_555
H18_17 C10_17 1_555 1_555
H19_17 C10_17 1_555 1_555
N5_17 C7_17 1_555 1_555
P3_25 C13_17 1_555 1_555
N7_25 Cu4_25 1_555 1_555
C13_17 H25_17 1_555 1_555
H26_17 C13_17 1_555 1_555
Cu4_25 O1_39 1_555 1_555
O8_8 P3_25 1_555 1_555
Cl4_39 Cu4_25 1_555 1_555
C14_25 P3_25 1_555 1_555
H27_17 C14_25 1_555 1_555
C15_25 H28_25 1_555 1_555
H29_25 C15_25 1_555 1_555
C16_17 N7_25 1_555 1_555
H30_17 C16_17 1_555 1_555
H31_17 C16_17 1_555 1_555
N8_17 C13_17 1_555 1_555
C17_17 P3_25 1_555 1_555
H32_17 C17_17 1_555 1_555
H33_17 C17_17 1_555 1_555
H34_17 C14_25 1_555 1_555
C18_17 N7_25 1_555 1_555
H35_17 C18_17 1_555 1_555
H36_17 C18_17 1_555 1_555
N9_17 C15_25 1_555 1_555
Cl5_17 Cu3_25 1_555 1_555
N1_25 C2_25 1_555 1_555
Cl2_17 Cu4_25 1_555 1_555
C5_17 N3_17 1_555 1_555
C6_17 N3_17 1_555 1_555
N4_25 C8_25 1_555 1_555
C9_25 N5_17 1_555 1_555
C10_17 N5_17 1_555 1_555
N7_25 C14_25 1_555 1_555
Cu4_25 Cl5_17 1_555 1_555
C15_25 N8_17 1_555 1_555
C16_17 N8_17 1_555 1_555
C17_17 N9_17 1_555 1_555
C18_17 N9_17 1_555 1_555
O1_40 Cu1_26 1_555 1_555
P1_26 C1_17 1_555 1_555
N1_26 Cu1_26 1_555 1_555
C1_17 H1_17 1_555 1_555
H2_17 C1_17 1_555 1_555
Cu1_26 Cl1_40 1_555 1_555
O8_28 P1_26 1_555 1_555
Cl1_40 Cu3_26 1_555 1_555
C2_26 P1_26 1_555 1_555
H3_17 C2_26 1_555 1_555
C3_26 H4_26 1_555 1_555
H5_26 C3_26 1_555 1_555
C4_17 N1_26 1_555 1_555
H6_17 C4_17 1_555 1_555
H7_17 C4_17 1_555 1_555
N2_17 C1_17 1_555 1_555
N4_26 Cu3_26 1_555 1_555
Cu3_26 O1_40 1_555 1_555
O8_24 P2_26 1_555 1_555
Cl3_17 Cu3_26 1_555 1_555
C8_26 P2_26 1_555 1_555
C9_26 H16_26 1_555 1_555
H17_26 C9_26 1_555 1_555
C11_17 P2_26 1_555 1_555
H20_17 C11_17 1_555 1_555
H21_17 C11_17 1_555 1_555
H22_17 C8_26 1_555 1_555
C12_17 N4_26 1_555 1_555
H23_17 C12_17 1_555 1_555
H24_17 C12_17 1_555 1_555
N6_17 C9_26 1_555 1_555
P4_25 C19_17 1_555 1_555
N10_25 Cu5_25 1_555 1_555
C19_17 H37_17 1_555 1_555
H38_17 C19_17 1_555 1_555
Cu5_25 O1_40 1_555 1_555
O8_6 P4_25 1_555 1_555
C20_25 P4_25 1_555 1_555
H39_17 C20_25 1_555 1_555
C21_25 H40_25 1_555 1_555
H41_25 C21_25 1_555 1_555
C22_17 N10_25 1_555 1_555
H42_17 C22_17 1_555 1_555
H43_17 C22_17 1_555 1_555
N11_17 C19_17 1_555 1_555
C23_17 P4_25 1_555 1_555
H44_17 C23_17 1_555 1_555
H45_17 C23_17 1_555 1_555
H46_17 C20_25 1_555 1_555
C24_17 N10_25 1_555 1_555
H47_17 C24_17 1_555 1_555
H48_17 C24_17 1_555 1_555
N12_17 C21_25 1_555 1_555
Cl6_17 Cu1_26 1_555 1_555
N1_26 C2_26 1_555 1_555
C3_26 N2_17 1_555 1_555
C4_17 N2_17 1_555 1_555
N4_26 C8_26 1_555 1_555
Cl3_17 Cu5_25 1_555 1_555
C11_17 N6_17 1_555 1_555
C12_17 N6_17 1_555 1_555
Cl4_40 Cu5_25 1_555 1_555
N10_25 C20_25 1_555 1_555
Cu5_25 Cl6_17 1_555 1_555
C21_25 N11_17 1_555 1_555
C22_17 N11_17 1_555 1_555
C23_17 N12_17 1_555 1_555
C24_17 N12_17 1_555 1_555
O1_41 Cu1_27 1_555 1_555
P1_27 C1_18 1_555 1_555
N1_27 Cu1_27 1_555 1_555
C1_18 H1_18 1_555 1_555
H2_18 C1_18 1_555 1_555
Cu1_27 Cl1_41 1_555 1_555
O8_25 P1_27 1_555 1_555
Cl1_41 Cu3_27 1_555 1_555
C2_27 P1_27 1_555 1_555
H3_18 C2_27 1_555 1_555
C3_27 H4_27 1_555 1_555
H5_27 C3_27 1_555 1_555
C4_18 N1_27 1_555 1_555
H6_18 C4_18 1_555 1_555
H7_18 C4_18 1_555 1_555
N2_18 C1_18 1_555 1_555
N4_27 Cu3_27 1_555 1_555
Cu3_27 O1_41 1_555 1_555
O8_21 P2_27 1_555 1_555
Cl3_18 Cu3_27 1_555 1_555
C8_27 P2_27 1_555 1_555
C9_27 H16_27 1_555 1_555
H17_27 C9_27 1_555 1_555
C11_18 P2_27 1_555 1_555
H20_18 C11_18 1_555 1_555
H21_18 C11_18 1_555 1_555
H22_18 C8_27 1_555 1_555
C12_18 N4_27 1_555 1_555
H23_18 C12_18 1_555 1_555
H24_18 C12_18 1_555 1_555
N6_18 C9_27 1_555 1_555
P4_26 C19_18 1_555 1_555
N10_26 Cu5_26 1_555 1_555
C19_18 H37_18 1_555 1_555
H38_18 C19_18 1_555 1_555
Cu5_26 O1_41 1_555 1_555
O8_7 P4_26 1_555 1_555
C20_26 P4_26 1_555 1_555
H39_18 C20_26 1_555 1_555
C21_26 H40_26 1_555 1_555
H41_26 C21_26 1_555 1_555
C22_18 N10_26 1_555 1_555
H42_18 C22_18 1_555 1_555
H43_18 C22_18 1_555 1_555
N11_18 C19_18 1_555 1_555
C23_18 P4_26 1_555 1_555
H44_18 C23_18 1_555 1_555
H45_18 C23_18 1_555 1_555
H46_18 C20_26 1_555 1_555
C24_18 N10_26 1_555 1_555
H47_18 C24_18 1_555 1_555
H48_18 C24_18 1_555 1_555
N12_18 C21_26 1_555 1_555
Cl6_18 Cu1_27 1_555 1_555
N1_27 C2_27 1_555 1_555
C3_27 N2_18 1_555 1_555
C4_18 N2_18 1_555 1_555
N4_27 C8_27 1_555 1_555
Cl3_18 Cu5_26 1_555 1_555
C11_18 N6_18 1_555 1_555
C12_18 N6_18 1_555 1_555
Cl4_41 Cu5_26 1_555 1_555
N10_26 C20_26 1_555 1_555
Cu5_26 Cl6_18 1_555 1_555
C21_26 N11_18 1_555 1_555
C22_18 N11_18 1_555 1_555
C23_18 N12_18 1_555 1_555
C24_18 N12_18 1_555 1_555
O1_42 Cu1_28 1_555 1_555
N1_28 Cu1_28 1_555 1_555
Cu1_28 Cl1_42 1_555 1_555
O8_26 P1_28 1_555 1_555
Cl1_42 Cu3_28 1_555 1_555
Cl2_18 Cu1_28 1_555 1_555
C2_28 P1_28 1_555 1_555
C3_28 H4_28 1_555 1_555
H5_28 C3_28 1_555 1_555
C5_18 P1_28 1_555 1_555
H8_18 C5_18 1_555 1_555
H9_18 C5_18 1_555 1_555
H10_18 C2_28 1_555 1_555
C6_18 N1_28 1_555 1_555
H11_18 C6_18 1_555 1_555
H12_18 C6_18 1_555 1_555
N3_18 C3_28 1_555 1_555
P2_28 C7_18 1_555 1_555
N4_28 Cu3_28 1_555 1_555
C7_18 H13_18 1_555 1_555
H14_18 C7_18 1_555 1_555
Cu3_28 O1_42 1_555 1_555
O8_22 P2_28 1_555 1_555
C8_28 P2_28 1_555 1_555
H15_18 C8_28 1_555 1_555
C9_28 H16_28 1_555 1_555
H17_28 C9_28 1_555 1_555
C10_18 N4_28 1_555 1_555
H18_18 C10_18 1_555 1_555
H19_18 C10_18 1_555 1_555
N5_18 C7_18 1_555 1_555
P3_26 C13_18 1_555 1_555
N7_26 Cu4_26 1_555 1_555
C13_18 H25_18 1_555 1_555
H26_18 C13_18 1_555 1_555
Cu4_26 O1_42 1_555 1_555
O8_5 P3_26 1_555 1_555
Cl4_42 Cu4_26 1_555 1_555
C14_26 P3_26 1_555 1_555
H27_18 C14_26 1_555 1_555
C15_26 H28_26 1_555 1_555
H29_26 C15_26 1_555 1_555
C16_18 N7_26 1_555 1_555
H30_18 C16_18 1_555 1_555
H31_18 C16_18 1_555 1_555
N8_18 C13_18 1_555 1_555
C17_18 P3_26 1_555 1_555
H32_18 C17_18 1_555 1_555
H33_18 C17_18 1_555 1_555
H34_18 C14_26 1_555 1_555
C18_18 N7_26 1_555 1_555
H35_18 C18_18 1_555 1_555
H36_18 C18_18 1_555 1_555
N9_18 C15_26 1_555 1_555
Cl5_18 Cu3_28 1_555 1_555
N1_28 C2_28 1_555 1_555
Cl2_18 Cu4_26 1_555 1_555
C5_18 N3_18 1_555 1_555
C6_18 N3_18 1_555 1_555
N4_28 C8_28 1_555 1_555
C9_28 N5_18 1_555 1_555
C10_18 N5_18 1_555 1_555
N7_26 C14_26 1_555 1_555
Cu4_26 Cl5_18 1_555 1_555
C15_26 N8_18 1_555 1_555
C16_18 N8_18 1_555 1_555
C17_18 N9_18 1_555 1_555
C18_18 N9_18 1_555 1_555
O1_43 Cu1_29 1_555 1_555
P1_29 C1_19 1_555 1_555
N1_29 Cu1_29 1_555 1_555
C1_19 H1_19 1_555 1_555
H2_19 C1_19 1_555 1_555
Cu1_29 Cl1_43 1_555 1_555
O9_10 P1_29 1_555 1_555
Cl2_19 Cu1_29 1_555 1_555
C2_29 P1_29 1_555 1_555
H3_19 C2_29 1_555 1_555
C3_29 H4_29 1_555 1_555
H5_29 C3_29 1_555 1_555
C4_19 N1_29 1_555 1_555
H6_19 C4_19 1_555 1_555
H7_19 C4_19 1_555 1_555
N2_19 C1_19 1_555 1_555
C5_19 P1_29 1_555 1_555
H8_19 C5_19 1_555 1_555
H9_19 C5_19 1_555 1_555
H10_19 C2_29 1_555 1_555
C6_19 N1_29 1_555 1_555
H11_19 C6_19 1_555 1_555
H12_19 C6_19 1_555 1_555
N3_19 C3_29 1_555 1_555
N7_27 Cu4_27 1_555 1_555
Cu4_27 O1_43 1_555 1_555
O9_27 P3_27 1_555 1_555
Cl4_43 Cu4_27 1_555 1_555
C14_27 P3_27 1_555 1_555
C15_27 H28_27 1_555 1_555
H29_27 C15_27 1_555 1_555
C17_19 P3_27 1_555 1_555
H32_19 C17_19 1_555 1_555
H33_19 C17_19 1_555 1_555
H34_19 C14_27 1_555 1_555
C18_19 N7_27 1_555 1_555
H35_19 C18_19 1_555 1_555
H36_19 C18_19 1_555 1_555
N9_19 C15_27 1_555 1_555
P4_27 C19_19 1_555 1_555
N10_27 Cu5_27 1_555 1_555
C19_19 H37_19 1_555 1_555
H38_19 C19_19 1_555 1_555
Cu5_27 O1_43 1_555 1_555
O9_25 P4_27 1_555 1_555
C20_27 P4_27 1_555 1_555
H39_19 C20_27 1_555 1_555
C21_27 H40_27 1_555 1_555
H41_27 C21_27 1_555 1_555
C22_19 N10_27 1_555 1_555
H42_19 C22_19 1_555 1_555
H43_19 C22_19 1_555 1_555
N11_19 C19_19 1_555 1_555
Cl6_19 Cu1_29 1_555 1_555
N1_29 C2_29 1_555 1_555
Cl2_19 Cu4_27 1_555 1_555
C3_29 N2_19 1_555 1_555
C4_19 N2_19 1_555 1_555
C5_19 N3_19 1_555 1_555
C6_19 N3_19 1_555 1_555
N7_27 C14_27 1_555 1_555
Cl4_43 Cu5_27 1_555 1_555
C17_19 N9_19 1_555 1_555
C18_19 N9_19 1_555 1_555
N10_27 C20_27 1_555 1_555
Cu5_27 Cl6_19 1_555 1_555
C21_27 N11_19 1_555 1_555
C22_19 N11_19 1_555 1_555
Cl1_44 Cu3_29 1_555 1_555
P2_29 C7_19 1_555 1_555
N4_29 Cu3_29 1_555 1_555
C7_19 H13_19 1_555 1_555
H14_19 C7_19 1_555 1_555
Cu3_29 O1_44 1_555 1_555
O9_9 P2_29 1_555 1_555
Cl3_19 Cu3_29 1_555 1_555
C8_29 P2_29 1_555 1_555
H15_19 C8_29 1_555 1_555
C9_29 H16_29 1_555 1_555
H17_29 C9_29 1_555 1_555
C10_19 N4_29 1_555 1_555
H18_19 C10_19 1_555 1_555
H19_19 C10_19 1_555 1_555
N5_19 C7_19 1_555 1_555
C11_19 P2_29 1_555 1_555
H20_19 C11_19 1_555 1_555
H21_19 C11_19 1_555 1_555
H22_19 C8_29 1_555 1_555
C12_19 N4_29 1_555 1_555
H23_19 C12_19 1_555 1_555
H24_19 C12_19 1_555 1_555
N6_19 C9_29 1_555 1_555
P3_28 C13_19 1_555 1_555
N7_28 Cu4_28 1_555 1_555
C13_19 H25_19 1_555 1_555
H26_19 C13_19 1_555 1_555
Cu4_28 O1_44 1_555 1_555
O9_28 P3_28 1_555 1_555
Cl4_44 Cu4_28 1_555 1_555
C14_28 P3_28 1_555 1_555
H27_19 C14_28 1_555 1_555
C15_28 H28_28 1_555 1_555
H29_28 C15_28 1_555 1_555
C16_19 N7_28 1_555 1_555
H30_19 C16_19 1_555 1_555
H31_19 C16_19 1_555 1_555
N8_19 C13_19 1_555 1_555
N10_28 Cu5_28 1_555 1_555
Cu5_28 O1_44 1_555 1_555
O9_26 P4_28 1_555 1_555
C20_28 P4_28 1_555 1_555
C21_28 H40_28 1_555 1_555
H41_28 C21_28 1_555 1_555
C23_19 P4_28 1_555 1_555
H44_19 C23_19 1_555 1_555
H45_19 C23_19 1_555 1_555
H46_19 C20_28 1_555 1_555
C24_19 N10_28 1_555 1_555
H47_19 C24_19 1_555 1_555
H48_19 C24_19 1_555 1_555
N12_19 C21_28 1_555 1_555
Cl5_19 Cu3_29 1_555 1_555
N4_29 C8_29 1_555 1_555
Cl3_19 Cu5_28 1_555 1_555
C9_29 N5_19 1_555 1_555
C10_19 N5_19 1_555 1_555
C11_19 N6_19 1_555 1_555
C12_19 N6_19 1_555 1_555
N7_28 C14_28 1_555 1_555
Cu4_28 Cl5_19 1_555 1_555
Cl4_44 Cu5_28 1_555 1_555
C15_28 N8_19 1_555 1_555
C16_19 N8_19 1_555 1_555
N10_28 C20_28 1_555 1_555
C23_19 N12_19 1_555 1_555
C24_19 N12_19 1_555 1_555
O1_45 Cu1_30 1_555 1_555
P1_30 C1_20 1_555 1_555
N1_30 Cu1_30 1_555 1_555
C1_20 H1_20 1_555 1_555
H2_20 C1_20 1_555 1_555
Cu1_30 Cl1_45 1_555 1_555
O9_12 P1_30 1_555 1_555
Cl2_20 Cu1_30 1_555 1_555
C2_30 P1_30 1_555 1_555
H3_20 C2_30 1_555 1_555
C3_30 H4_30 1_555 1_555
H5_30 C3_30 1_555 1_555
C4_20 N1_30 1_555 1_555
H6_20 C4_20 1_555 1_555
H7_20 C4_20 1_555 1_555
N2_20 C1_20 1_555 1_555
C5_20 P1_30 1_555 1_555
H8_20 C5_20 1_555 1_555
H9_20 C5_20 1_555 1_555
H10_20 C2_30 1_555 1_555
C6_20 N1_30 1_555 1_555
H11_20 C6_20 1_555 1_555
H12_20 C6_20 1_555 1_555
N3_20 C3_30 1_555 1_555
N7_29 Cu4_29 1_555 1_555
Cu4_29 O1_45 1_555 1_555
O9_21 P3_29 1_555 1_555
Cl4_45 Cu4_29 1_555 1_555
C14_29 P3_29 1_555 1_555
C15_29 H28_29 1_555 1_555
H29_29 C15_29 1_555 1_555
C17_20 P3_29 1_555 1_555
H32_20 C17_20 1_555 1_555
H33_20 C17_20 1_555 1_555
H34_20 C14_29 1_555 1_555
C18_20 N7_29 1_555 1_555
H35_20 C18_20 1_555 1_555
H36_20 C18_20 1_555 1_555
N9_20 C15_29 1_555 1_555
P4_29 C19_20 1_555 1_555
N10_29 Cu5_29 1_555 1_555
C19_20 H37_20 1_555 1_555
H38_20 C19_20 1_555 1_555
Cu5_29 O1_45 1_555 1_555
O9_23 P4_29 1_555 1_555
C20_29 P4_29 1_555 1_555
H39_20 C20_29 1_555 1_555
C21_29 H40_29 1_555 1_555
H41_29 C21_29 1_555 1_555
C22_20 N10_29 1_555 1_555
H42_20 C22_20 1_555 1_555
H43_20 C22_20 1_555 1_555
N11_20 C19_20 1_555 1_555
Cl6_20 Cu1_30 1_555 1_555
N1_30 C2_30 1_555 1_555
Cl2_20 Cu4_29 1_555 1_555
C3_30 N2_20 1_555 1_555
C4_20 N2_20 1_555 1_555
C5_20 N3_20 1_555 1_555
C6_20 N3_20 1_555 1_555
N7_29 C14_29 1_555 1_555
Cl4_45 Cu5_29 1_555 1_555
C17_20 N9_20 1_555 1_555
C18_20 N9_20 1_555 1_555
N10_29 C20_29 1_555 1_555
Cu5_29 Cl6_20 1_555 1_555
C21_29 N11_20 1_555 1_555
C22_20 N11_20 1_555 1_555
Cl1_46 Cu3_30 1_555 1_555
P2_30 C7_20 1_555 1_555
N4_30 Cu3_30 1_555 1_555
C7_20 H13_20 1_555 1_555
H14_20 C7_20 1_555 1_555
Cu3_30 O1_46 1_555 1_555
O9_11 P2_30 1_555 1_555
Cl3_20 Cu3_30 1_555 1_555
C8_30 P2_30 1_555 1_555
H15_20 C8_30 1_555 1_555
C9_30 H16_30 1_555 1_555
H17_30 C9_30 1_555 1_555
C10_20 N4_30 1_555 1_555
H18_20 C10_20 1_555 1_555
H19_20 C10_20 1_555 1_555
N5_20 C7_20 1_555 1_555
C11_20 P2_30 1_555 1_555
H20_20 C11_20 1_555 1_555
H21_20 C11_20 1_555 1_555
H22_20 C8_30 1_555 1_555
C12_20 N4_30 1_555 1_555
H23_20 C12_20 1_555 1_555
H24_20 C12_20 1_555 1_555
N6_20 C9_30 1_555 1_555
P3_30 C13_20 1_555 1_555
N7_30 Cu4_30 1_555 1_555
C13_20 H25_20 1_555 1_555
H26_20 C13_20 1_555 1_555
Cu4_30 O1_46 1_555 1_555
O9_22 P3_30 1_555 1_555
Cl4_46 Cu4_30 1_555 1_555
C14_30 P3_30 1_555 1_555
H27_20 C14_30 1_555 1_555
C15_30 H28_30 1_555 1_555
H29_30 C15_30 1_555 1_555
C16_20 N7_30 1_555 1_555
H30_20 C16_20 1_555 1_555
H31_20 C16_20 1_555 1_555
N8_20 C13_20 1_555 1_555
N10_30 Cu5_30 1_555 1_555
Cu5_30 O1_46 1_555 1_555
O9_24 P4_30 1_555 1_555
C20_30 P4_30 1_555 1_555
C21_30 H40_30 1_555 1_555
H41_30 C21_30 1_555 1_555
C23_20 P4_30 1_555 1_555
H44_20 C23_20 1_555 1_555
H45_20 C23_20 1_555 1_555
H46_20 C20_30 1_555 1_555
C24_20 N10_30 1_555 1_555
H47_20 C24_20 1_555 1_555
H48_20 C24_20 1_555 1_555
N12_20 C21_30 1_555 1_555
Cl5_20 Cu3_30 1_555 1_555
N4_30 C8_30 1_555 1_555
Cl3_20 Cu5_30 1_555 1_555
C9_30 N5_20 1_555 1_555
C10_20 N5_20 1_555 1_555
C11_20 N6_20 1_555 1_555
C12_20 N6_20 1_555 1_555
N7_30 C14_30 1_555 1_555
Cu4_30 Cl5_20 1_555 1_555
Cl4_46 Cu5_30 1_555 1_555
C15_30 N8_20 1_555 1_555
C16_20 N8_20 1_555 1_555
N10_30 C20_30 1_555 1_555
C23_20 N12_20 1_555 1_555
C24_20 N12_20 1_555 1_555
O1_47 Cu1_31 1_555 1_555
N1_31 Cu1_31 1_555 1_555
Cu1_31 Cl1_47 1_555 1_555
O9_31 P1_31 1_555 1_555
Cl1_47 Cu3_31 1_555 1_555
Cl2_21 Cu1_31 1_555 1_555
C2_31 P1_31 1_555 1_555
C3_31 H4_31 1_555 1_555
H5_31 C3_31 1_555 1_555
C5_21 P1_31 1_555 1_555
H8_21 C5_21 1_555 1_555
H9_21 C5_21 1_555 1_555
H10_21 C2_31 1_555 1_555
C6_21 N1_31 1_555 1_555
H11_21 C6_21 1_555 1_555
H12_21 C6_21 1_555 1_555
N3_21 C3_31 1_555 1_555
P2_31 C7_21 1_555 1_555
N4_31 Cu3_31 1_555 1_555
C7_21 H13_21 1_555 1_555
H14_21 C7_21 1_555 1_555
Cu3_31 O1_47 1_555 1_555
O9_29 P2_31 1_555 1_555
C8_31 P2_31 1_555 1_555
H15_21 C8_31 1_555 1_555
C9_31 H16_31 1_555 1_555
H17_31 C9_31 1_555 1_555
C10_21 N4_31 1_555 1_555
H18_21 C10_21 1_555 1_555
H19_21 C10_21 1_555 1_555
N5_21 C7_21 1_555 1_555
P3_31 C13_21 1_555 1_555
N7_31 Cu4_31 1_555 1_555
C13_21 H25_21 1_555 1_555
H26_21 C13_21 1_555 1_555
Cu4_31 O1_47 1_555 1_555
O9_8 P3_31 1_555 1_555
Cl4_47 Cu4_31 1_555 1_555
C14_31 P3_31 1_555 1_555
H27_21 C14_31 1_555 1_555
C15_31 H28_31 1_555 1_555
H29_31 C15_31 1_555 1_555
C16_21 N7_31 1_555 1_555
H30_21 C16_21 1_555 1_555
H31_21 C16_21 1_555 1_555
N8_21 C13_21 1_555 1_555
C17_21 P3_31 1_555 1_555
H32_21 C17_21 1_555 1_555
H33_21 C17_21 1_555 1_555
H34_21 C14_31 1_555 1_555
C18_21 N7_31 1_555 1_555
H35_21 C18_21 1_555 1_555
H36_21 C18_21 1_555 1_555
N9_21 C15_31 1_555 1_555
Cl5_21 Cu3_31 1_555 1_555
N1_31 C2_31 1_555 1_555
Cl2_21 Cu4_31 1_555 1_555
C5_21 N3_21 1_555 1_555
C6_21 N3_21 1_555 1_555
N4_31 C8_31 1_555 1_555
C9_31 N5_21 1_555 1_555
C10_21 N5_21 1_555 1_555
N7_31 C14_31 1_555 1_555
Cu4_31 Cl5_21 1_555 1_555
C15_31 N8_21 1_555 1_555
C16_21 N8_21 1_555 1_555
C17_21 N9_21 1_555 1_555
C18_21 N9_21 1_555 1_555
O1_48 Cu1_32 1_555 1_555
P1_32 C1_21 1_555 1_555
N1_32 Cu1_32 1_555 1_555
C1_21 H1_21 1_555 1_555
H2_21 C1_21 1_555 1_555
Cu1_32 Cl1_48 1_555 1_555
O9_32 P1_32 1_555 1_555
Cl1_48 Cu3_32 1_555 1_555
C2_32 P1_32 1_555 1_555
H3_21 C2_32 1_555 1_555
C3_32 H4_32 1_555 1_555
H5_32 C3_32 1_555 1_555
C4_21 N1_32 1_555 1_555
H6_21 C4_21 1_555 1_555
H7_21 C4_21 1_555 1_555
N2_21 C1_21 1_555 1_555
N4_32 Cu3_32 1_555 1_555
Cu3_32 O1_48 1_555 1_555
O9_30 P2_32 1_555 1_555
Cl3_21 Cu3_32 1_555 1_555
C8_32 P2_32 1_555 1_555
C9_32 H16_32 1_555 1_555
H17_32 C9_32 1_555 1_555
C11_21 P2_32 1_555 1_555
H20_21 C11_21 1_555 1_555
H21_21 C11_21 1_555 1_555
H22_21 C8_32 1_555 1_555
C12_21 N4_32 1_555 1_555
H23_21 C12_21 1_555 1_555
H24_21 C12_21 1_555 1_555
N6_21 C9_32 1_555 1_555
P4_31 C19_21 1_555 1_555
N10_31 Cu5_31 1_555 1_555
C19_21 H37_21 1_555 1_555
H38_21 C19_21 1_555 1_555
Cu5_31 O1_48 1_555 1_555
O9_7 P4_31 1_555 1_555
C20_31 P4_31 1_555 1_555
H39_21 C20_31 1_555 1_555
C21_31 H40_31 1_555 1_555
H41_31 C21_31 1_555 1_555
C22_21 N10_31 1_555 1_555
H42_21 C22_21 1_555 1_555
H43_21 C22_21 1_555 1_555
N11_21 C19_21 1_555 1_555
C23_21 P4_31 1_555 1_555
H44_21 C23_21 1_555 1_555
H45_21 C23_21 1_555 1_555
H46_21 C20_31 1_555 1_555
C24_21 N10_31 1_555 1_555
H47_21 C24_21 1_555 1_555
H48_21 C24_21 1_555 1_555
N12_21 C21_31 1_555 1_555
Cl6_21 Cu1_32 1_555 1_555
N1_32 C2_32 1_555 1_555
C3_32 N2_21 1_555 1_555
C4_21 N2_21 1_555 1_555
N4_32 C8_32 1_555 1_555
Cl3_21 Cu5_31 1_555 1_555
C11_21 N6_21 1_555 1_555
C12_21 N6_21 1_555 1_555
Cl4_48 Cu5_31 1_555 1_555
N10_31 C20_31 1_555 1_555
Cu5_31 Cl6_21 1_555 1_555
C21_31 N11_21 1_555 1_555
C22_21 N11_21 1_555 1_555
C23_21 N12_21 1_555 1_555
C24_21 N12_21 1_555 1_555
O1_49 Cu1_33 1_555 1_555
P1_33 C1_22 1_555 1_555
N1_33 Cu1_33 1_555 1_555
C1_22 H1_22 1_555 1_555
H2_22 C1_22 1_555 1_555
Cu1_33 Cl1_49 1_555 1_555
O9_35 P1_33 1_555 1_555
Cl1_49 Cu3_33 1_555 1_555
C2_33 P1_33 1_555 1_555
H3_22 C2_33 1_555 1_555
C3_33 H4_33 1_555 1_555
H5_33 C3_33 1_555 1_555
C4_22 N1_33 1_555 1_555
H6_22 C4_22 1_555 1_555
H7_22 C4_22 1_555 1_555
N2_22 C1_22 1_555 1_555
N4_33 Cu3_33 1_555 1_555
Cu3_33 O1_49 1_555 1_555
O9_33 P2_33 1_555 1_555
Cl3_22 Cu3_33 1_555 1_555
C8_33 P2_33 1_555 1_555
C9_33 H16_33 1_555 1_555
H17_33 C9_33 1_555 1_555
C11_22 P2_33 1_555 1_555
H20_22 C11_22 1_555 1_555
H21_22 C11_22 1_555 1_555
H22_22 C8_33 1_555 1_555
C12_22 N4_33 1_555 1_555
H23_22 C12_22 1_555 1_555
H24_22 C12_22 1_555 1_555
N6_22 C9_33 1_555 1_555
P4_32 C19_22 1_555 1_555
N10_32 Cu5_32 1_555 1_555
C19_22 H37_22 1_555 1_555
H38_22 C19_22 1_555 1_555
Cu5_32 O1_49 1_555 1_555
O9_6 P4_32 1_555 1_555
C20_32 P4_32 1_555 1_555
H39_22 C20_32 1_555 1_555
C21_32 H40_32 1_555 1_555
H41_32 C21_32 1_555 1_555
C22_22 N10_32 1_555 1_555
H42_22 C22_22 1_555 1_555
H43_22 C22_22 1_555 1_555
N11_22 C19_22 1_555 1_555
C23_22 P4_32 1_555 1_555
H44_22 C23_22 1_555 1_555
H45_22 C23_22 1_555 1_555
H46_22 C20_32 1_555 1_555
C24_22 N10_32 1_555 1_555
H47_22 C24_22 1_555 1_555
H48_22 C24_22 1_555 1_555
N12_22 C21_32 1_555 1_555
Cl6_22 Cu1_33 1_555 1_555
N1_33 C2_33 1_555 1_555
C3_33 N2_22 1_555 1_555
C4_22 N2_22 1_555 1_555
N4_33 C8_33 1_555 1_555
Cl3_22 Cu5_32 1_555 1_555
C11_22 N6_22 1_555 1_555
C12_22 N6_22 1_555 1_555
Cl4_49 Cu5_32 1_555 1_555
N10_32 C20_32 1_555 1_555
Cu5_32 Cl6_22 1_555 1_555
C21_32 N11_22 1_555 1_555
C22_22 N11_22 1_555 1_555
C23_22 N12_22 1_555 1_555
C24_22 N12_22 1_555 1_555
O1_50 Cu1_34 1_555 1_555
N1_34 Cu1_34 1_555 1_555
Cu1_34 Cl1_50 1_555 1_555
O9_36 P1_34 1_555 1_555
Cl1_50 Cu3_34 1_555 1_555
Cl2_22 Cu1_34 1_555 1_555
C2_34 P1_34 1_555 1_555
C3_34 H4_34 1_555 1_555
H5_34 C3_34 1_555 1_555
C5_22 P1_34 1_555 1_555
H8_22 C5_22 1_555 1_555
H9_22 C5_22 1_555 1_555
H10_22 C2_34 1_555 1_555
C6_22 N1_34 1_555 1_555
H11_22 C6_22 1_555 1_555
H12_22 C6_22 1_555 1_555
N3_22 C3_34 1_555 1_555
P2_34 C7_22 1_555 1_555
N4_34 Cu3_34 1_555 1_555
C7_22 H13_22 1_555 1_555
H14_22 C7_22 1_555 1_555
Cu3_34 O1_50 1_555 1_555
O9_34 P2_34 1_555 1_555
C8_34 P2_34 1_555 1_555
H15_22 C8_34 1_555 1_555
C9_34 H16_34 1_555 1_555
H17_34 C9_34 1_555 1_555
C10_22 N4_34 1_555 1_555
H18_22 C10_22 1_555 1_555
H19_22 C10_22 1_555 1_555
N5_22 C7_22 1_555 1_555
P3_32 C13_22 1_555 1_555
N7_32 Cu4_32 1_555 1_555
C13_22 H25_22 1_555 1_555
H26_22 C13_22 1_555 1_555
Cu4_32 O1_50 1_555 1_555
O9_5 P3_32 1_555 1_555
Cl4_50 Cu4_32 1_555 1_555
C14_32 P3_32 1_555 1_555
H27_22 C14_32 1_555 1_555
C15_32 H28_32 1_555 1_555
H29_32 C15_32 1_555 1_555
C16_22 N7_32 1_555 1_555
H30_22 C16_22 1_555 1_555
H31_22 C16_22 1_555 1_555
N8_22 C13_22 1_555 1_555
C17_22 P3_32 1_555 1_555
H32_22 C17_22 1_555 1_555
H33_22 C17_22 1_555 1_555
H34_22 C14_32 1_555 1_555
C18_22 N7_32 1_555 1_555
H35_22 C18_22 1_555 1_555
H36_22 C18_22 1_555 1_555
N9_22 C15_32 1_555 1_555
Cl5_22 Cu3_34 1_555 1_555
N1_34 C2_34 1_555 1_555
Cl2_22 Cu4_32 1_555 1_555
C5_22 N3_22 1_555 1_555
C6_22 N3_22 1_555 1_555
N4_34 C8_34 1_555 1_555
C9_34 N5_22 1_555 1_555
C10_22 N5_22 1_555 1_555
N7_32 C14_32 1_555 1_555
Cu4_32 Cl5_22 1_555 1_555
C15_32 N8_22 1_555 1_555
C16_22 N8_22 1_555 1_555
C17_22 N9_22 1_555 1_555
C18_22 N9_22 1_555 1_555
O1_51 Cu1_35 1_555 1_555
N1_35 Cu1_35 1_555 1_555
Cu1_35 Cl1_51 1_555 1_555
O8_19 P1_35 1_555 1_555
Cl1_51 Cu3_35 1_555 1_555
Cl2_23 Cu1_35 1_555 1_555
C2_35 P1_35 1_555 1_555
C3_35 H4_35 1_555 1_555
H5_35 C3_35 1_555 1_555
C5_23 P1_35 1_555 1_555
H8_23 C5_23 1_555 1_555
H9_23 C5_23 1_555 1_555
H10_23 C2_35 1_555 1_555
C6_23 N1_35 1_555 1_555
H11_23 C6_23 1_555 1_555
H12_23 C6_23 1_555 1_555
N3_23 C3_35 1_555 1_555
P2_35 C7_23 1_555 1_555
N4_35 Cu3_35 1_555 1_555
C7_23 H13_23 1_555 1_555
H14_23 C7_23 1_555 1_555
Cu3_35 O1_51 1_555 1_555
O8_15 P2_35 1_555 1_555
C8_35 P2_35 1_555 1_555
H15_23 C8_35 1_555 1_555
C9_35 H16_35 1_555 1_555
H17_35 C9_35 1_555 1_555
C10_23 N4_35 1_555 1_555
H18_23 C10_23 1_555 1_555
H19_23 C10_23 1_555 1_555
N5_23 C7_23 1_555 1_555
P3_33 C13_23 1_555 1_555
N7_33 Cu4_33 1_555 1_555
C13_23 H25_23 1_555 1_555
H26_23 C13_23 1_555 1_555
Cu4_33 O1_51 1_555 1_555
O8_11 P3_33 1_555 1_555
Cl4_51 Cu4_33 1_555 1_555
C14_33 P3_33 1_555 1_555
H27_23 C14_33 1_555 1_555
C15_33 H28_33 1_555 1_555
H29_33 C15_33 1_555 1_555
C16_23 N7_33 1_555 1_555
H30_23 C16_23 1_555 1_555
H31_23 C16_23 1_555 1_555
N8_23 C13_23 1_555 1_555
C17_23 P3_33 1_555 1_555
H32_23 C17_23 1_555 1_555
H33_23 C17_23 1_555 1_555
H34_23 C14_33 1_555 1_555
C18_23 N7_33 1_555 1_555
H35_23 C18_23 1_555 1_555
H36_23 C18_23 1_555 1_555
N9_23 C15_33 1_555 1_555
Cl5_23 Cu3_35 1_555 1_555
N1_35 C2_35 1_555 1_555
Cl2_23 Cu4_33 1_555 1_555
C5_23 N3_23 1_555 1_555
C6_23 N3_23 1_555 1_555
N4_35 C8_35 1_555 1_555
C9_35 N5_23 1_555 1_555
C10_23 N5_23 1_555 1_555
N7_33 C14_33 1_555 1_555
Cu4_33 Cl5_23 1_555 1_555
C15_33 N8_23 1_555 1_555
C16_23 N8_23 1_555 1_555
C17_23 N9_23 1_555 1_555
C18_23 N9_23 1_555 1_555
O1_52 Cu1_36 1_555 1_555
P1_36 C1_23 1_555 1_555
N1_36 Cu1_36 1_555 1_555
C1_23 H1_23 1_555 1_555
H2_23 C1_23 1_555 1_555
Cu1_36 Cl1_52 1_555 1_555
O8_20 P1_36 1_555 1_555
Cl1_52 Cu3_36 1_555 1_555
C2_36 P1_36 1_555 1_555
H3_23 C2_36 1_555 1_555
C3_36 H4_36 1_555 1_555
H5_36 C3_36 1_555 1_555
C4_23 N1_36 1_555 1_555
H6_23 C4_23 1_555 1_555
H7_23 C4_23 1_555 1_555
N2_23 C1_23 1_555 1_555
N4_36 Cu3_36 1_555 1_555
Cu3_36 O1_52 1_555 1_555
O8_16 P2_36 1_555 1_555
Cl3_23 Cu3_36 1_555 1_555
C8_36 P2_36 1_555 1_555
C9_36 H16_36 1_555 1_555
H17_36 C9_36 1_555 1_555
C11_23 P2_36 1_555 1_555
H20_23 C11_23 1_555 1_555
H21_23 C11_23 1_555 1_555
H22_23 C8_36 1_555 1_555
C12_23 N4_36 1_555 1_555
H23_23 C12_23 1_555 1_555
H24_23 C12_23 1_555 1_555
N6_23 C9_36 1_555 1_555
P4_33 C19_23 1_555 1_555
N10_33 Cu5_33 1_555 1_555
C19_23 H37_23 1_555 1_555
H38_23 C19_23 1_555 1_555
Cu5_33 O1_52 1_555 1_555
O8_9 P4_33 1_555 1_555
C20_33 P4_33 1_555 1_555
H39_23 C20_33 1_555 1_555
C21_33 H40_33 1_555 1_555
H41_33 C21_33 1_555 1_555
C22_23 N10_33 1_555 1_555
H42_23 C22_23 1_555 1_555
H43_23 C22_23 1_555 1_555
N11_23 C19_23 1_555 1_555
C23_23 P4_33 1_555 1_555
H44_23 C23_23 1_555 1_555
H45_23 C23_23 1_555 1_555
H46_23 C20_33 1_555 1_555
C24_23 N10_33 1_555 1_555
H47_23 C24_23 1_555 1_555
H48_23 C24_23 1_555 1_555
N12_23 C21_33 1_555 1_555
Cl6_23 Cu1_36 1_555 1_555
N1_36 C2_36 1_555 1_555
C3_36 N2_23 1_555 1_555
C4_23 N2_23 1_555 1_555
N4_36 C8_36 1_555 1_555
Cl3_23 Cu5_33 1_555 1_555
C11_23 N6_23 1_555 1_555
C12_23 N6_23 1_555 1_555
Cl4_52 Cu5_33 1_555 1_555
N10_33 C20_33 1_555 1_555
Cu5_33 Cl6_23 1_555 1_555
C21_33 N11_23 1_555 1_555
C22_23 N11_23 1_555 1_555
C23_23 N12_23 1_555 1_555
C24_23 N12_23 1_555 1_555
O1_53 Cu1_37 1_555 1_555
P1_37 C1_24 1_555 1_555
N1_37 Cu1_37 1_555 1_555
C1_24 H1_24 1_555 1_555
H2_24 C1_24 1_555 1_555
Cu1_37 Cl1_53 1_555 1_555
O8_17 P1_37 1_555 1_555
Cl1_53 Cu3_37 1_555 1_555
C2_37 P1_37 1_555 1_555
H3_24 C2_37 1_555 1_555
C3_37 H4_37 1_555 1_555
H5_37 C3_37 1_555 1_555
C4_24 N1_37 1_555 1_555
H6_24 C4_24 1_555 1_555
H7_24 C4_24 1_555 1_555
N2_24 C1_24 1_555 1_555
N4_37 Cu3_37 1_555 1_555
Cu3_37 O1_53 1_555 1_555
O8_13 P2_37 1_555 1_555
Cl3_24 Cu3_37 1_555 1_555
C8_37 P2_37 1_555 1_555
C9_37 H16_37 1_555 1_555
H17_37 C9_37 1_555 1_555
C11_24 P2_37 1_555 1_555
H20_24 C11_24 1_555 1_555
H21_24 C11_24 1_555 1_555
H22_24 C8_37 1_555 1_555
C12_24 N4_37 1_555 1_555
H23_24 C12_24 1_555 1_555
H24_24 C12_24 1_555 1_555
N6_24 C9_37 1_555 1_555
P4_34 C19_24 1_555 1_555
N10_34 Cu5_34 1_555 1_555
C19_24 H37_24 1_555 1_555
H38_24 C19_24 1_555 1_555
Cu5_34 O1_53 1_555 1_555
O8_12 P4_34 1_555 1_555
C20_34 P4_34 1_555 1_555
H39_24 C20_34 1_555 1_555
C21_34 H40_34 1_555 1_555
H41_34 C21_34 1_555 1_555
C22_24 N10_34 1_555 1_555
H42_24 C22_24 1_555 1_555
H43_24 C22_24 1_555 1_555
N11_24 C19_24 1_555 1_555
C23_24 P4_34 1_555 1_555
H44_24 C23_24 1_555 1_555
H45_24 C23_24 1_555 1_555
H46_24 C20_34 1_555 1_555
C24_24 N10_34 1_555 1_555
H47_24 C24_24 1_555 1_555
H48_24 C24_24 1_555 1_555
N12_24 C21_34 1_555 1_555
Cl6_24 Cu1_37 1_555 1_555
N1_37 C2_37 1_555 1_555
C3_37 N2_24 1_555 1_555
C4_24 N2_24 1_555 1_555
N4_37 C8_37 1_555 1_555
Cl3_24 Cu5_34 1_555 1_555
C11_24 N6_24 1_555 1_555
C12_24 N6_24 1_555 1_555
Cl4_53 Cu5_34 1_555 1_555
N10_34 C20_34 1_555 1_555
Cu5_34 Cl6_24 1_555 1_555
C21_34 N11_24 1_555 1_555
C22_24 N11_24 1_555 1_555
C23_24 N12_24 1_555 1_555
C24_24 N12_24 1_555 1_555
O1_54 Cu1_38 1_555 1_555
N1_38 Cu1_38 1_555 1_555
Cu1_38 Cl1_54 1_555 1_555
O8_18 P1_38 1_555 1_555
Cl1_54 Cu3_38 1_555 1_555
Cl2_24 Cu1_38 1_555 1_555
C2_38 P1_38 1_555 1_555
C3_38 H4_38 1_555 1_555
H5_38 C3_38 1_555 1_555
C5_24 P1_38 1_555 1_555
H8_24 C5_24 1_555 1_555
H9_24 C5_24 1_555 1_555
H10_24 C2_38 1_555 1_555
C6_24 N1_38 1_555 1_555
H11_24 C6_24 1_555 1_555
H12_24 C6_24 1_555 1_555
N3_24 C3_38 1_555 1_555
P2_38 C7_24 1_555 1_555
N4_38 Cu3_38 1_555 1_555
C7_24 H13_24 1_555 1_555
H14_24 C7_24 1_555 1_555
Cu3_38 O1_54 1_555 1_555
O8_14 P2_38 1_555 1_555
C8_38 P2_38 1_555 1_555
H15_24 C8_38 1_555 1_555
C9_38 H16_38 1_555 1_555
H17_38 C9_38 1_555 1_555
C10_24 N4_38 1_555 1_555
H18_24 C10_24 1_555 1_555
H19_24 C10_24 1_555 1_555
N5_24 C7_24 1_555 1_555
P3_34 C13_24 1_555 1_555
N7_34 Cu4_34 1_555 1_555
C13_24 H25_24 1_555 1_555
H26_24 C13_24 1_555 1_555
Cu4_34 O1_54 1_555 1_555
O8_10 P3_34 1_555 1_555
Cl4_54 Cu4_34 1_555 1_555
C14_34 P3_34 1_555 1_555
H27_24 C14_34 1_555 1_555
C15_34 H28_34 1_555 1_555
H29_34 C15_34 1_555 1_555
C16_24 N7_34 1_555 1_555
H30_24 C16_24 1_555 1_555
H31_24 C16_24 1_555 1_555
N8_24 C13_24 1_555 1_555
C17_24 P3_34 1_555 1_555
H32_24 C17_24 1_555 1_555
H33_24 C17_24 1_555 1_555
H34_24 C14_34 1_555 1_555
C18_24 N7_34 1_555 1_555
H35_24 C18_24 1_555 1_555
H36_24 C18_24 1_555 1_555
N9_24 C15_34 1_555 1_555
Cl5_24 Cu3_38 1_555 1_555
N1_38 C2_38 1_555 1_555
Cl2_24 Cu4_34 1_555 1_555
C5_24 N3_24 1_555 1_555
C6_24 N3_24 1_555 1_555
N4_38 C8_38 1_555 1_555
C9_38 N5_24 1_555 1_555
C10_24 N5_24 1_555 1_555
N7_34 C14_34 1_555 1_555
Cu4_34 Cl5_24 1_555 1_555
C15_34 N8_24 1_555 1_555
C16_24 N8_24 1_555 1_555
C17_24 N9_24 1_555 1_555
C18_24 N9_24 1_555 1_555

#END
