
###############################################################################
#
# This file contains modified crystal structure data generated from the
# MOF subset of the Cambridge Structural Database (CSD) v543 
# hosted by the Cambridge Crystallographic Data Centre (CCDC).
#
# This work is licensed under the Creative Commons
# Attribution-NonCommercial-ShareAlike 4.0 International License.
# To view a copy of this license, visit
# http://creativecommons.org/licenses/by-nc-sa/4.0/
# or send a letter to
# Creative Commons, PO Box 1866, Mountain View, CA 94042, USA.
#
# CIF created using the CSD Python API on 29 September 2022
# The structure has been converted into the P1 space group
# The structure has a 3D framework
# The original CSD entry OWEBEA is in the monoclinic crystal system
# The framework has been calculated to contain at least 10.0% void space
# The void calculation uses a probe of radius 1.32A, grid spacing 0.4
# H atom positions have been added when not included in the experimental data
#
###############################################################################

data_OWEBEA
_chemical_formula_moiety         '(C480 H320 N48 O168 Zn30)n'
_symmetry_cell_setting           triclinic
_symmetry_space_group_name_H-M   'P 1'
_symmetry_Int_Tables_number      1
_space_group_name_Hall           'P 1'
loop_
_symmetry_equiv_pos_site_id
_symmetry_equiv_pos_as_xyz
1 x,y,z
_cell_length_a                   36.1445(5)
_cell_length_b                   27.9017(3)
_cell_length_c                   34.0897(5)
_cell_angle_alpha                90
_cell_angle_beta                 109.4360(10)
_cell_angle_gamma                90
_cell_volume                     32420.1
loop_
_atom_site_label
_atom_site_type_symbol
_atom_site_fract_x
_atom_site_fract_y
_atom_site_fract_z
O4 O 0.47978(11) 0.18743(14) 0.03057(13)
O5 O 0.42514(9) 0.00329(11) 0.16173(10)
O6 O 0.41062(10) 0.07842(11) 0.17428(11)
O8 O 0.82085(8) 0.06457(11) 0.18276(8)
O9 O 0.82476(10) 0.03756(14) 0.12306(9)
O14 O 0.85032(11) 0.93573(13) 0.11574(10)
O15 O 0.87648(9) 0.88119(12) 0.16699(9)
O25 O 0.20262(11) 0.75105(17) 0.05627(13)
O26 O 0.32221(11) 0.92002(13) 0.18777(10)
O27 O 0.37030(10) 0.92081(12) 0.15989(9)
N2 N 0.50728(11) 0.11418(14) 0.05060(12)
H2 H 0.524404 0.093756 0.046975
N3 N 0.65630(10) 0.13185(14) 0.05653(10)
H3 H 0.643887 0.143782 0.072577
N5 N 0.76803(12) 0.75213(15) 0.01812(12)
H5 H 0.780845 0.725833 0.016395
N9 N 0.25762(12) 0.76844(16) 0.04130(12)
H9 H 0.269842 0.762110 0.023473
C11 C 0.53354(13) 0.16618(17) 0.00967(14)
C12 C 0.57129(12) 0.14581(16) 0.02339(13)
H18 H 0.578864 0.125294 0.046975
C13 C 0.59745(13) 0.15563(17) 0.00258(13)
C15 C 0.50407(14) 0.15744(18) 0.03075(16)
C16 C 0.48616(13) 0.09921(17) 0.07598(15)
C17 C 0.46876(17) 0.13139(19) 0.0966(2)
H20 H 0.470992 0.164971 0.093353
C18 C 0.44845(16) 0.11405(19) 0.12162(18)
H21 H 0.435288 0.135996 0.133725
C19 C 0.44687(12) 0.06674(16) 0.12923(13)
C20 C 0.46532(15) 0.03442(17) 0.10952(15)
H22 H 0.464684 0.000989 0.114523
C21 C 0.48414(14) 0.05112(17) 0.08316(15)
H23 H 0.495915 0.028965 0.069734
C22 C 0.42525(12) 0.04870(17) 0.15747(13)
C23 C 0.63684(13) 0.13304(17) 0.01503(13)
C24 C 0.69381(12) 0.11382(17) 0.07663(13)
C25 C 0.71103(15) 0.1238(2) 0.11862(14)
H24 H 0.697485 0.142988 0.132468
C26 C 0.74814(15) 0.1059(2) 0.14061(14)
H25 H 0.759588 0.112908 0.169394
C27 C 0.76833(12) 0.07831(16) 0.12141(13)
C28 C 0.74996(16) 0.0669(3) 0.07990(15)
H26 H 0.763150 0.047144 0.066100
C29 C 0.71293(16) 0.0838(3) 0.05821(16)
H27 H 0.700552 0.074336 0.030100
C30 C 0.80696(13) 0.05882(17) 0.14401(13)
C46 C 0.78862(14) 0.78719(18) 0.04688(14)
C47 C 0.77966(16) 0.8348(2) 0.03950(16)
H35 H 0.758052 0.844212 0.016069
C48 C 0.80233(17) 0.8693(2) 0.06644(15)
H36 H 0.796995 0.902320 0.060564
C49 C 0.83281(13) 0.85543(18) 0.10199(13)
C50 C 0.84166(14) 0.80802(19) 0.10909(16)
H37 H 0.862594 0.798465 0.133126
C51 C 0.82005(15) 0.7734(2) 0.08114(17)
H38 H 0.826910 0.740503 0.085641
C52 C 0.85537(14) 0.89353(19) 0.13070(15)
H49 H 0.267960 0.689387 0.003248
C83 C 0.22361(15) 0.7452(2) 0.03513(16)
C84 C 0.27575(15) 0.8010(2) 0.07217(15)
C85 C 0.26340(16) 0.8129(2) 0.10516(15)
H54 H 0.240681 0.798027 0.107771
C86 C 0.28409(16) 0.8465(2) 0.13478(15)
H55 H 0.275503 0.853895 0.157569
C87 C 0.31643(14) 0.86897(19) 0.13135(14)
C88 C 0.32883(16) 0.8579(2) 0.09733(17)
H56 H 0.351699 0.872745 0.095065
C89 C 0.30841(15) 0.8263(2) 0.06773(16)
H57 H 0.315954 0.820928 0.043918
C90 C 0.33770(16) 0.90590(18) 0.16224(14)
Zn9 Zn 0.37717(2) 0.07506(2) 0.21127(2)
Zn11 Zn 0.40251(2) 0.96823(2) 0.19745(2)
Zn12 Zn 0.32080(2) 0.98632(2) 0.21033(2)
Zn15 Zn 0.89646(2) 0.92650(2) 0.21314(2)
Zn17 Zn 0.87254(2) 0.99794(2) 0.13745(2)
Zn20 Zn 0.86596(2) 0.03125(2) 0.22281(2)
Zn1 Zn 0.39756(2) 0.50206(2) 0.78455(2)
Zn2 Zn 0.37717(2) 0.42494(2) 0.71127(2)
Zn3 Zn 0.40251(2) 0.53177(2) 0.69745(2)
Zn4 Zn 0.32080(2) 0.51368(2) 0.71033(2)
O1 O 0.42033(19) 0.4481(2) 0.81642(18)
O2 O 0.4181(2) 0.3983(2) 0.76193(18)
O3 O 0.54610(13) 0.22680(16) 0.88559(12)
O7 O 0.65025(9) 0.11707(13) 0.98851(9)
O10 O 0.44064(10) 0.54839(17) 0.79606(11)
O11 O 0.44855(9) 0.56484(13) 0.73529(10)
O12 O 0.61147(11) 0.6467(2) 0.92570(13)
O13 O 0.70787(11) 0.78476(18) 0.99629(15)
O16 O 0.78440(14) 0.6967(2) 0.87964(17)
O17 O 0.85815(10) 0.58312(11) 0.74313(10)
O18 O 0.83963(10) 0.50900(12) 0.75290(10)
O19 O 0.36426(10) 0.53097(12) 0.81294(10)
O20 O 0.30839(10) 0.53307(13) 0.75913(10)
O21 O 0.29161(12) 0.6240(2) 0.96325(12)
O22 O 0.09581(12) 0.7013(2) 0.91832(16)
O31 O 0.17438(9) 0.28169(13) 0.52727(10)
O32 O 0.28800(16) 0.4701(3) 0.6790(3)
O33 O 0.32804(12) 0.4092(3) 0.66865(19)
O34 O 0.07261(11) 0.22595(16) 0.38415(12)
O37 O 0.37513(7) 0.49321(9) 0.72574(8)
O38 O 0.3755(3) 0.3471(3) 0.7095(3)
O39 O 0.3398(2) 0.4181(3) 0.7547(3)
O42 O 0.00767(14) 0.4632(2) 0.7189(2)
N1 N 0.51780(16) 0.27558(18) 0.91996(15)
H1 H 0.516724 0.280940 0.944997
N4 N 0.61107(11) 0.64092(16) 0.85937(13)
H4 H 0.625335 0.646139 0.843317
N6 N 0.75506(13) 0.62431(16) 0.85916(14)
H6 H 0.736899 0.604658 0.861582
N7 N 0.24963(12) 0.62909(17) 0.89667(12)
H7 H 0.226640 0.640704 0.881660
N8 N 0.10767(13) 0.6261(2) 0.90112(16)
H8 H 0.125626 0.603398 0.907842
N10 N 0.01508(12) 0.35767(16) 0.53130(12)
H10 H 0.037471 0.346246 0.548026
N11 N 0.16093(13) 0.36046(19) 0.53319(18)
H11 H 0.142778 0.382310 0.522634
N12 N 0.01579(13) 0.21036(19) 0.39724(14)
H12 H 0.004026 0.215736 0.415636
C1 C 0.4278(3) 0.4082(4) 0.7986(3)
C2 C 0.4527(3) 0.3726(3) 0.8302(2)
C3 C 0.4587(3) 0.3801(3) 0.8724(2)
H13 H 0.447458 0.407062 0.881236
C4 C 0.4814(3) 0.3474(3) 0.9014(2)
H14 H 0.485202 0.352046 0.930112
C5 C 0.4980(2) 0.3093(2) 0.88957(19)
C6 C 0.4928(2) 0.3040(3) 0.84826(19)
H15 H 0.504425 0.277506 0.839253
C7 C 0.4706(2) 0.3370(3) 0.8190(2)
H16 H 0.468524 0.333596 0.790655
C8 C 0.53779(16) 0.2370(2) 0.91655(16)
C9 C 0.54883(14) 0.20592(17) 0.95412(14)
C10 C 0.52327(14) 0.19608(17) 0.97576(14)
H17 H 0.497986 0.210416 0.966864
C14 C 0.58589(14) 0.18480(17) 0.96725(13)
H19 H 0.603341 0.190241 0.952132
C31 C 0.45922(14) 0.56394(19) 0.77478(16)
C32 C 0.49930(13) 0.58589(19) 0.79756(15)
C33 C 0.51233(16) 0.5879(3) 0.83956(17)
H28 H 0.496483 0.575670 0.854603
C34 C 0.54796(15) 0.6072(3) 0.86038(18)
H29 H 0.556062 0.610001 0.889799
C35 C 0.57245(14) 0.6227(2) 0.83978(16)
C36 C 0.55930(18) 0.6208(3) 0.79700(17)
H30 H 0.575434 0.631729 0.781820
C37 C 0.52276(17) 0.6029(3) 0.77666(18)
H31 H 0.513457 0.602300 0.747111
C38 C 0.62786(14) 0.6509(2) 0.90029(17)
C39 C 0.66841(14) 0.6692(2) 0.91250(16)
C40 C 0.68141(14) 0.7008(2) 0.94605(15)
H32 H 0.664051 0.709897 0.960406
C41 C 0.71934(14) 0.71904(19) 0.95883(15)
C42 C 0.74479(13) 0.70575(18) 0.93793(14)
H33 H 0.771021 0.717262 0.947157
C43 C 0.73192(14) 0.67541(19) 0.90326(15)
C44 C 0.69480(14) 0.65696(19) 0.89082(16)
H34 H 0.686489 0.635882 0.867638
C45 C 0.73080(15) 0.7554(2) 0.99330(17)
C53 C 0.75897(16) 0.6661(2) 0.87949(18)
C54 C 0.77706(15) 0.6085(2) 0.83420(16)
C55 C 0.79678(18) 0.6390(2) 0.81719(18)
H39 H 0.796637 0.672512 0.822129
C56 C 0.81745(16) 0.6203(2) 0.79211(17)
H40 H 0.830921 0.641715 0.779873
C57 C 0.81862(13) 0.57299(17) 0.78503(14)
C58 C 0.79759(19) 0.5420(2) 0.80144(19)
H41 H 0.797363 0.508599 0.795946
C59 C 0.7766(2) 0.5602(2) 0.8263(2)
H42 H 0.762054 0.539133 0.837537
C60 C 0.84063(13) 0.55394(18) 0.75846(13)
C61 C 0.32915(15) 0.54081(16) 0.79687(15)
C62 C 0.30925(14) 0.56330(18) 0.82471(14)
C63 C 0.27138(18) 0.5804(3) 0.80730(17)
H43 H 0.258047 0.576569 0.778328
C64 C 0.25270(18) 0.6030(3) 0.83158(17)
H44 H 0.227192 0.616082 0.819144
C65 C 0.27139(15) 0.6066(2) 0.87414(15)
C66 C 0.30933(15) 0.5896(2) 0.89131(17)
H45 H 0.322723 0.592149 0.920382
C67 C 0.32784(15) 0.5686(2) 0.86537(15)
H46 H 0.354192 0.557878 0.877048
C68 C 0.25966(15) 0.6351(2) 0.93849(17)
C69 C 0.22872(14) 0.6581(2) 0.95161(15)
C70 C 0.18916(15) 0.6506(2) 0.93076(16)
H47 H 0.181171 0.629930 0.907322
C71 C 0.16138(16) 0.6730(2) 0.94368(17)
C72 C 0.17339(15) 0.7037(2) 0.97838(16)
H48 H 0.154289 0.719786 0.987106
C73 C 0.21223(15) 0.7106(2) 0.99949(15)
C74 C 0.24092(15) 0.6865(2) 0.98741(15)
C75 C 0.11846(17) 0.6678(3) 0.92040(19)
C76 C 0.07165(16) 0.6132(3) 0.87158(18)
C77 C 0.06618(19) 0.5647(3) 0.86109(19)
H50 H 0.085606 0.541873 0.875062
C78 C 0.03226(18) 0.5500(3) 0.83019(19)
H51 H 0.028048 0.516787 0.824250
C79 C 0.00402(16) 0.5831(2) 0.80749(17)
C80 C 0.00966(16) 0.6302(2) 0.8186(2)
C81 C 0.04339(18) 0.6450(3) 0.8513(2)
H53 H 0.046333 0.677836 0.859241
C94 C 0.0022(3) 0.3807(3) 0.59224(19)
H59 H 0.025964 0.364919 0.607200
C98 C 0.00799(14) 0.35026(19) 0.49110(15)
C99 C 0.04088(13) 0.32501(17) 0.48114(13)
C100 C 0.08006(13) 0.33284(16) 0.50412(14)
H62 H 0.086813 0.355156 0.526438
C101 C 0.10916(13) 0.30843(18) 0.49476(15)
C102 C 0.09889(14) 0.27559(18) 0.46225(14)
H63 H 0.118795 0.258411 0.455760
C103 C 0.06013(13) 0.26777(19) 0.43942(14)
C104 C 0.03177(13) 0.29324(19) 0.44871(14)
H64 H 0.005055 0.288754 0.432235
C105 C 0.15161(15) 0.3146(2) 0.52054(17)
C106 C 0.19651(17) 0.3764(3) 0.5613(2)
C107 C 0.1946(2) 0.4254(3) 0.5765(3)
H65 H 0.172386 0.445228 0.564551
C108 C 0.2265(2) 0.4410(4) 0.6087(3)
H66 H 0.224877 0.470487 0.621982
C109 C 0.2605(2) 0.4151(4) 0.6221(3)
C110 C 0.26213(17) 0.3695(3) 0.6072(3)
H67 H 0.285592 0.351304 0.617627
C111 C 0.23017(17) 0.3504(3) 0.5775(2)
H68 H 0.231381 0.318583 0.567962
C112 C 0.2953(2) 0.4369(5) 0.6583(3)
C113 C 0.05075(14) 0.2326(2) 0.40422(17)
C119 C 0.01164(17) 0.1635(2) 0.33511(18)
H72 H 0.037703 0.171701 0.337099
Zn14 Zn 0.89646(2) 0.57350(2) 0.71314(2)
Zn18 Zn 0.86596(2) 0.46875(2) 0.72281(2)
O43 O 0.42514(9) 0.49671(11) 0.66173(10)
O44 O 0.41062(10) 0.42158(11) 0.67428(11)
O51 O 0.32221(11) 0.57998(13) 0.68777(10)
O52 O 0.37030(10) 0.57919(12) 0.65989(9)
H73 H 0.369796 0.334808 0.734222
H74 H 0.354665 0.336313 0.683803
H75 H 0.018126 0.44502 0.745344
H76 H 0.00808131 0.442506 0.69535
H77 H 0.351583 0.438031 0.779919
H78 H 0.312659 0.429273 0.739792
Zn5 Zn 0.95047(2) 0.48430(2) 0.71032(2)
Zn7 Zn 0.87254(2) 0.50206(2) 0.63745(2)
O23 O 0.94479(10) 0.59764(13) 0.75369(11)
O24 O 0.96894(12) 0.52265(16) 0.76500(13)
O28 O 0.93410(19) 0.44146(18) 0.65468(14)
O29 O 0.89761(11) 0.47772(13) 0.59939(12)
O30 O 0.97776(10) 0.36066(16) 0.46350(11)
O35 O 0.89485(10) 0.07567(12) 0.26562(10)
O36 O 0.94310(12) 0.07739(13) 0.23938(10)
O40 O 0.89483(8) 0.50746(10) 0.69670(8)
O41 O 0.95564(14) 0.54415(17) 0.67257(16)
H52 H 0.990686 0.653257 0.804203
C82 C 0.97063(17) 0.5665(2) 0.77270(18)
C91 C 0.9263(2) 0.4511(2) 0.61859(18)
C92 C 0.94869(18) 0.4259(2) 0.59407(18)
C93 C 0.9816(3) 0.4008(3) 0.61409(19)
H58 H 0.989953 0.397388 0.643476
C95 C 0.99149(16) 0.38149(18) 0.55092(15)
C96 C 0.95787(16) 0.4057(2) 0.53008(17)
H60 H 0.949054 0.407053 0.500554
C97 C 0.93655(16) 0.4284(2) 0.55177(17)
H61 H 0.913416 0.445624 0.537114
C114 C 0.99597(16) 0.1795(2) 0.36392(18)
C115 C 0.95834(18) 0.1655(3) 0.3626(2)
H69 H 0.948014 0.176251 0.383318
C116 C 0.93644(18) 0.1360(3) 0.3308(2)
H70 H 0.910985 0.126128 0.329808
C117 C 0.95125(15) 0.1207(2) 0.30050(16)
C118 C 0.98874(18) 0.1348(2) 0.30270(18)
H71 H 0.998942 0.124623 0.281734
C120 C 0.92810(16) 0.08910(18) 0.26583(15)
Zn13 Zn 0.95047(2) 0.01570(2) 0.21032(2)
O45 O 0.82085(8) 0.43543(11) 0.68276(8)
O46 O 0.82476(10) 0.46244(14) 0.62306(9)
O47 O 0.85032(11) 0.56427(13) 0.61574(10)
O48 O 0.87648(9) 0.61881(12) 0.66699(9)
O53 O 0.89485(10) 0.42433(12) 0.76562(10)
O54 O 0.94310(12) 0.42261(13) 0.73938(10)
H79 H 0.983238 0.555542 0.68195
H80 H 0.947851 0.533994 0.643012
O1_2 O 0.42033(19) 0.0519(2) 0.31642(18)
O2_2 O 0.4181(2) 0.1017(2) 0.26193(18)
O3_2 O 0.54610(13) 0.27320(16) 0.38559(12)
O4_2 O 0.47978(11) 0.31257(14) 0.53057(13)
O7_2 O 0.65025(9) 0.38293(13) 0.48851(9)
O31_2 O 0.17438(9) 0.21831(13) 0.02727(10)
O32_2 O 0.28800(16) 0.0299(3) 0.1790(3)
O33_2 O 0.32804(12) 0.0908(3) 0.16865(19)
O37_2 O 0.37513(7) 0.00679(9) 0.22574(8)
O38_2 O 0.3755(3) 0.1529(3) 0.2095(3)
O39_2 O 0.3398(2) 0.0819(3) 0.2547(3)
O42_2 O 0.00767(14) 0.0368(2) 0.2189(2)
N1_2 N 0.51780(16) 0.22442(18) 0.41996(15)
H1_2 H 0.516724 0.219060 0.444997
N2_2 N 0.50728(11) 0.38582(14) 0.55060(12)
H2_2 H 0.524404 0.406244 0.546975
N3_2 N 0.65630(10) 0.36815(14) 0.55653(10)
H3_2 H 0.643887 0.356218 0.572577
N10_2 N 0.01508(12) 0.14233(16) 0.03130(12)
H10_2 H 0.037471 0.153754 0.048026
N11_2 N 0.16093(13) 0.13954(19) 0.03319(18)
H11_2 H 0.142778 0.117690 0.022634
C1_2 C 0.4278(3) 0.0918(4) 0.2986(3)
C2_2 C 0.4527(3) 0.1274(3) 0.3302(2)
C3_2 C 0.4587(3) 0.1199(3) 0.3724(2)
H13_2 H 0.447458 0.092938 0.381236
C4_2 C 0.4814(3) 0.1526(3) 0.4014(2)
H14_2 H 0.485202 0.147954 0.430112
C5_2 C 0.4980(2) 0.1907(2) 0.38957(19)
C6_2 C 0.4928(2) 0.1960(3) 0.34826(19)
H15_2 H 0.504425 0.222494 0.339253
C7_2 C 0.4706(2) 0.1630(3) 0.3190(2)
H16_2 H 0.468524 0.166404 0.290655
C8_2 C 0.53779(16) 0.2630(2) 0.41655(16)
C9_2 C 0.54883(14) 0.29408(17) 0.45412(14)
C10_2 C 0.52327(14) 0.30392(17) 0.47576(14)
H17_2 H 0.497986 0.289584 0.466864
C11_2 C 0.53354(13) 0.33382(17) 0.50967(14)
C12_2 C 0.57129(12) 0.35419(16) 0.52339(13)
H18_2 H 0.578864 0.374706 0.546975
C13_2 C 0.59745(13) 0.34437(17) 0.50258(13)
C14_2 C 0.58589(14) 0.31520(17) 0.46725(13)
H19_2 H 0.603341 0.309759 0.452132
C15_2 C 0.50407(14) 0.34256(18) 0.53075(16)
C16_2 C 0.48616(13) 0.40079(17) 0.57598(15)
C17_2 C 0.46876(17) 0.36861(19) 0.5966(2)
H20_2 H 0.470992 0.335029 0.593353
C18_2 C 0.44845(16) 0.38595(19) 0.62162(18)
H21_2 H 0.435288 0.364004 0.633725
C19_2 C 0.44687(12) 0.43326(16) 0.62923(13)
C20_2 C 0.46532(15) 0.46558(17) 0.60952(15)
H22_2 H 0.464684 0.499011 0.614523
C21_2 C 0.48414(14) 0.44888(17) 0.58316(15)
H23_2 H 0.495915 0.471035 0.569734
C22_2 C 0.42525(12) 0.45130(17) 0.65747(13)
C23_2 C 0.63684(13) 0.36696(17) 0.51503(13)
C24_2 C 0.69381(12) 0.38618(17) 0.57663(13)
C25_2 C 0.71103(15) 0.3762(2) 0.61862(14)
H24_2 H 0.697485 0.357012 0.632468
C26_2 C 0.74814(15) 0.3941(2) 0.64061(14)
H25_2 H 0.759588 0.387092 0.669394
C27_2 C 0.76833(12) 0.42169(16) 0.62141(13)
C28_2 C 0.74996(16) 0.4331(3) 0.57990(15)
H26_2 H 0.763150 0.452856 0.566100
C29_2 C 0.71293(16) 0.4162(3) 0.55821(16)
H27_2 H 0.700552 0.425664 0.530100
C30_2 C 0.80696(13) 0.44118(17) 0.64401(13)
C94_2 C 0.0022(3) 0.1193(3) 0.09224(19)
H59_2 H 0.025964 0.135081 0.107200
C100_2 C 0.08006(13) 0.16716(16) 0.00412(14)
H62_2 H 0.086813 0.144844 0.026438
C105_2 C 0.15161(15) 0.1854(2) 0.02054(17)
C106_2 C 0.19651(17) 0.1236(3) 0.0613(2)
C107_2 C 0.1946(2) 0.0746(3) 0.0765(3)
H65_2 H 0.172386 0.054772 0.064551
C108_2 C 0.2265(2) 0.0590(4) 0.1087(3)
H66_2 H 0.224877 0.029513 0.121982
C109_2 C 0.2605(2) 0.0849(4) 0.1221(3)
C110_2 C 0.26213(17) 0.1305(3) 0.1072(3)
H67_2 H 0.285592 0.148696 0.117627
C111_2 C 0.23017(17) 0.1496(3) 0.0775(2)
H68_2 H 0.231381 0.181417 0.067962
C112_2 C 0.2953(2) 0.0631(5) 0.1583(3)
H73_2 H 0.369796 0.165192 0.234222
H74_2 H 0.354665 0.163687 0.183803
H75_2 H 0.018126 0.0549802 0.245344
H76_2 H 0.00808131 0.0574944 0.19535
H77_2 H 0.351583 0.0619687 0.279919
H78_2 H 0.312659 0.0707272 0.239792
Zn1_2 Zn 0.39756(2) 0.99794(2) 0.28455(2)
O10_2 O 0.44064(10) 0.95161(17) 0.29606(11)
O11_2 O 0.44855(9) 0.93516(13) 0.23529(10)
O12_2 O 0.61147(11) 0.8533(2) 0.42570(13)
O13_2 O 0.70787(11) 0.71524(18) 0.49629(15)
O16_2 O 0.78440(14) 0.8033(2) 0.37964(17)
O17_2 O 0.85815(10) 0.91688(11) 0.24313(10)
O18_2 O 0.83963(10) 0.99100(12) 0.25290(10)
O19_2 O 0.36426(10) 0.96903(12) 0.31294(10)
O20_2 O 0.30839(10) 0.96693(13) 0.25913(10)
O21_2 O 0.29161(12) 0.8760(2) 0.46325(12)
O22_2 O 0.09581(12) 0.7987(2) 0.41832(16)
O25_2 O 0.20262(11) 0.74895(17) 0.55627(13)
N4_2 N 0.61107(11) 0.85908(16) 0.35937(13)
H4_2 H 0.625335 0.853861 0.343317
N5_2 N 0.76803(12) 0.74787(15) 0.51812(12)
H5_2 H 0.780845 0.774167 0.516395
N6_2 N 0.75506(13) 0.87569(16) 0.35916(14)
H6_2 H 0.736899 0.895342 0.361582
N7_2 N 0.24963(12) 0.87091(17) 0.39667(12)
H7_2 H 0.226640 0.859296 0.381660
N8_2 N 0.10767(13) 0.8739(2) 0.40112(16)
H8_2 H 0.125626 0.896602 0.407842
N9_2 N 0.25762(12) 0.73156(16) 0.54130(12)
H9_2 H 0.269842 0.737890 0.523473
C31_2 C 0.45922(14) 0.93606(19) 0.27478(16)
C32_2 C 0.49930(13) 0.91411(19) 0.29756(15)
C33_2 C 0.51233(16) 0.9121(3) 0.33956(17)
H28_2 H 0.496483 0.924330 0.354603
C34_2 C 0.54796(15) 0.8928(3) 0.36038(18)
H29_2 H 0.556062 0.889999 0.389799
C35_2 C 0.57245(14) 0.8773(2) 0.33978(16)
C36_2 C 0.55930(18) 0.8792(3) 0.29700(17)
H30_2 H 0.575434 0.868271 0.281820
C37_2 C 0.52276(17) 0.8971(3) 0.27666(18)
H31_2 H 0.513457 0.897700 0.247111
C38_2 C 0.62786(14) 0.8491(2) 0.40029(17)
C39_2 C 0.66841(14) 0.8308(2) 0.41250(16)
C40_2 C 0.68141(14) 0.7992(2) 0.44605(15)
H32_2 H 0.664051 0.790103 0.460406
C41_2 C 0.71934(14) 0.78096(19) 0.45883(15)
C42_2 C 0.74479(13) 0.79425(18) 0.43793(14)
H33_2 H 0.771021 0.782738 0.447157
C43_2 C 0.73192(14) 0.82459(19) 0.40326(15)
C44_2 C 0.69480(14) 0.84304(19) 0.39082(16)
H34_2 H 0.686489 0.864118 0.367638
C45_2 C 0.73080(15) 0.7446(2) 0.49330(17)
C46_2 C 0.78862(14) 0.71281(18) 0.54688(14)
C47_2 C 0.77966(16) 0.6652(2) 0.53950(16)
H35_2 H 0.758052 0.655788 0.516069
C48_2 C 0.80233(17) 0.6307(2) 0.56644(15)
H36_2 H 0.796995 0.597680 0.560564
C49_2 C 0.83281(13) 0.64457(18) 0.60199(13)
C50_2 C 0.84166(14) 0.69198(19) 0.60909(16)
H37_2 H 0.862594 0.701535 0.633126
C51_2 C 0.82005(15) 0.7266(2) 0.58114(17)
H38_2 H 0.826910 0.759497 0.585641
C52_2 C 0.85537(14) 0.60647(19) 0.63070(15)
C53_2 C 0.75897(16) 0.8339(2) 0.37949(18)
C54_2 C 0.77706(15) 0.8915(2) 0.33420(16)
C55_2 C 0.79678(18) 0.8610(2) 0.31719(18)
H39_2 H 0.796637 0.827488 0.322129
C56_2 C 0.81745(16) 0.8797(2) 0.29211(17)
H40_2 H 0.830921 0.858285 0.279873
C57_2 C 0.81862(13) 0.92701(17) 0.28503(14)
C58_2 C 0.79759(19) 0.9580(2) 0.30144(19)
H41_2 H 0.797363 0.991401 0.295946
C59_2 C 0.7766(2) 0.9398(2) 0.3263(2)
H42_2 H 0.762054 0.960867 0.337537
C60_2 C 0.84063(13) 0.94606(18) 0.25846(13)
C61_2 C 0.32915(15) 0.95919(16) 0.29687(15)
C62_2 C 0.30925(14) 0.93670(18) 0.32471(14)
C63_2 C 0.27138(18) 0.9196(3) 0.30730(17)
H43_2 H 0.258047 0.923431 0.278328
C64_2 C 0.25270(18) 0.8970(3) 0.33158(17)
H44_2 H 0.227192 0.883918 0.319144
C65_2 C 0.27139(15) 0.8934(2) 0.37414(15)
C66_2 C 0.30933(15) 0.9104(2) 0.39131(17)
H45_2 H 0.322723 0.907851 0.420382
C67_2 C 0.32784(15) 0.9314(2) 0.36537(15)
H46_2 H 0.354192 0.942122 0.377048
C68_2 C 0.25966(15) 0.8649(2) 0.43849(17)
C69_2 C 0.22872(14) 0.8419(2) 0.45161(15)
C70_2 C 0.18916(15) 0.8494(2) 0.43076(16)
H47_2 H 0.181171 0.870070 0.407322
C71_2 C 0.16138(16) 0.8270(2) 0.44368(17)
C72_2 C 0.17339(15) 0.7963(2) 0.47838(16)
H48_2 H 0.154289 0.780214 0.487106
C73_2 C 0.21223(15) 0.7894(2) 0.49949(15)
C74_2 C 0.24092(15) 0.8135(2) 0.48741(15)
H49_2 H 0.267960 0.810613 0.503248
C75_2 C 0.11846(17) 0.8322(3) 0.42040(19)
C76_2 C 0.07165(16) 0.8868(3) 0.37158(18)
C77_2 C 0.06618(19) 0.9353(3) 0.36109(19)
H50_2 H 0.085606 0.958127 0.375062
C78_2 C 0.03226(18) 0.9500(3) 0.33019(19)
H51_2 H 0.028048 0.983213 0.324250
C79_2 C 0.00402(16) 0.9169(2) 0.30749(17)
C80_2 C 0.00966(16) 0.8698(2) 0.3186(2)
C81_2 C 0.04339(18) 0.8550(3) 0.3513(2)
H53_2 H 0.046333 0.822164 0.359241
C83_2 C 0.22361(15) 0.7548(2) 0.53513(16)
C84_2 C 0.27575(15) 0.6990(2) 0.57217(15)
C85_2 C 0.26340(16) 0.6871(2) 0.60516(15)
H54_2 H 0.240681 0.701973 0.607771
C86_2 C 0.28409(16) 0.6535(2) 0.63478(15)
H55_2 H 0.275503 0.646105 0.657569
C87_2 C 0.31643(14) 0.63103(19) 0.63135(14)
C88_2 C 0.32883(16) 0.6421(2) 0.59733(17)
H56_2 H 0.351699 0.627255 0.595065
C89_2 C 0.30841(15) 0.6737(2) 0.56773(16)
H57_2 H 0.315954 0.679072 0.543918
C90_2 C 0.33770(16) 0.59410(18) 0.66224(14)
O28_2 O 0.93410(19) 0.05854(18) 0.15468(14)
O29_2 O 0.89761(11) 0.02228(13) 0.09939(12)
C91_2 C 0.9263(2) 0.0489(2) 0.11859(18)
C92_2 C 0.94869(18) 0.0741(2) 0.09407(18)
C93_2 C 0.9816(3) 0.0992(3) 0.11409(19)
H58_2 H 0.989953 0.102612 0.143476
C95_2 C 0.99149(16) 0.11851(18) 0.05092(15)
C96_2 C 0.95787(16) 0.0943(2) 0.03008(17)
H60_2 H 0.949054 0.092947 0.000554
C97_2 C 0.93655(16) 0.0716(2) 0.05177(17)
H61_2 H 0.913416 0.054376 0.037114
O30_2 O 0.97776(10) 0.13934(16) 0.96350(11)
C114_2 C 0.99597(16) 0.3205(2) 0.86392(18)
C115_2 C 0.95834(18) 0.3345(3) 0.8626(2)
H69_2 H 0.948014 0.323749 0.883318
C116_2 C 0.93644(18) 0.3640(3) 0.8308(2)
H70_2 H 0.910985 0.373872 0.829808
C117_2 C 0.95125(15) 0.3793(2) 0.80050(16)
C118_2 C 0.98874(18) 0.3652(2) 0.80270(18)
H71_2 H 0.998942 0.375377 0.781734
C120_2 C 0.92810(16) 0.41090(18) 0.76583(15)
O23_2 O 0.94479(10) 0.90236(13) 0.25369(11)
O24_2 O 0.96894(12) 0.97735(16) 0.26500(13)
O40_2 O 0.89483(8) 0.99254(10) 0.19670(8)
O41_2 O 0.95564(14) 0.95585(17) 0.17257(16)
H52_2 H 0.990686 0.846743 0.304203
C82_2 C 0.97063(17) 0.9335(2) 0.27270(18)
H79_2 H 0.983238 0.944458 0.18195
H80_2 H 0.947851 0.966006 0.143012
Zn6 Zn 0.10354(2) 0.07350(2) 0.78686(2)
Zn7_2 Zn 0.12746(2) 0.00206(2) 0.86255(2)
O23_3 O 0.05521(10) 0.09764(13) 0.74631(11)
O24_3 O 0.03106(12) 0.02265(16) 0.73500(13)
O40_3 O 0.10517(8) 0.00746(10) 0.80330(8)
O41_3 O 0.04436(14) 0.04415(17) 0.82743(16)
H52_3 H 0.009314 0.153257 0.695797
C82_3 C 0.02937(17) 0.0665(2) 0.72730(18)
O47_2 O 0.14968(11) 0.06427(13) 0.88426(10)
O48_2 O 0.12352(9) 0.11881(12) 0.83301(9)
O49 O 0.14185(10) 0.08312(11) 0.75687(10)
O50 O 0.16037(10) 0.00900(12) 0.74710(10)
H79_3 H 0.0167619 0.055542 0.81805
H80_3 H 0.0521488 0.033994 0.856988
O30_3 O 0.02224(10) 0.86066(16) 0.03650(11)
O35_2 O 0.10515(10) 0.57567(12) 0.23438(10)
O36_2 O 0.05690(12) 0.57739(13) 0.26062(10)
C114_3 C 0.00403(16) 0.6795(2) 0.13608(18)
C115_3 C 0.04166(18) 0.6655(3) 0.1374(2)
H69_3 H 0.051986 0.676251 0.116682
C116_3 C 0.06356(18) 0.6360(3) 0.1692(2)
H70_3 H 0.089015 0.626128 0.170192
C117_3 C 0.04875(15) 0.6207(2) 0.19950(16)
C118_3 C 0.01126(18) 0.6348(2) 0.19730(18)
H71_3 H 0.001058 0.624623 0.218266
C120_3 C 0.07190(16) 0.58910(18) 0.23417(15)
Zn13_2 Zn 0.04953(2) 0.51570(2) 0.28968(2)
Zn19 Zn 0.13404(2) 0.53125(2) 0.27719(2)
Zn5_2 Zn 0.04953(2) 0.98430(2) 0.78968(2)
Zn8 Zn 0.13404(2) 0.96875(2) 0.77719(2)
O28_3 O 0.06590(19) 0.94146(18) 0.84532(14)
O29_3 O 0.10239(11) 0.97772(13) 0.90061(12)
C91_3 C 0.0737(2) 0.9511(2) 0.88141(18)
C92_3 C 0.05131(18) 0.9259(2) 0.90593(18)
C93_3 C 0.0184(3) 0.9008(3) 0.88591(19)
H58_3 H 0.010047 0.897388 0.856524
C95_3 C 0.00851(16) 0.88149(18) 0.94908(15)
C96_3 C 0.04213(16) 0.9057(2) 0.96992(17)
H60_3 H 0.050946 0.907053 0.999446
C97_3 C 0.06345(16) 0.9284(2) 0.94823(17)
H61_3 H 0.086584 0.945624 0.962886
O45_2 O 0.17915(8) 0.93543(11) 0.81724(8)
O46_2 O 0.17524(10) 0.96244(14) 0.87694(9)
O53_2 O 0.10515(10) 0.92433(12) 0.73438(10)
O54_2 O 0.05690(12) 0.92261(13) 0.76062(10)
Zn1_3 Zn 0.60244(2) 0.00206(2) 0.71545(2)
Zn3_2 Zn 0.59749(2) 0.03177(2) 0.80255(2)
Zn4_2 Zn 0.67920(2) 0.01368(2) 0.78967(2)
O10_3 O 0.55936(10) 0.04839(17) 0.70394(11)
O11_3 O 0.55145(9) 0.06484(13) 0.76471(10)
O12_3 O 0.38853(11) 0.1467(2) 0.57430(13)
O13_3 O 0.29213(11) 0.28476(18) 0.50371(15)
O14_2 O 0.14968(11) 0.43573(13) 0.38426(10)
O15_2 O 0.12352(9) 0.38119(12) 0.33301(9)
O16_3 O 0.21560(14) 0.1967(2) 0.62036(17)
O19_3 O 0.63574(10) 0.03097(12) 0.68706(10)
O20_3 O 0.69161(10) 0.03307(13) 0.74087(10)
O21_3 O 0.70839(12) 0.1240(2) 0.53675(12)
O22_3 O 0.90419(12) 0.2013(2) 0.58168(16)
O25_3 O 0.79738(11) 0.25105(17) 0.44373(13)
O26_2 O 0.67779(11) 0.42002(13) 0.31223(10)
O27_2 O 0.62970(10) 0.42081(12) 0.34011(9)
N4_3 N 0.38893(11) 0.14092(16) 0.64063(13)
H4_3 H 0.374665 0.146139 0.656683
N5_3 N 0.23197(12) 0.25213(15) 0.48188(12)
H5_3 H 0.219155 0.225833 0.483605
N6_3 N 0.24494(13) 0.12431(16) 0.64084(14)
H6_3 H 0.263101 0.104658 0.638418
N7_3 N 0.75037(12) 0.12909(17) 0.60333(12)
H7_3 H 0.773360 0.140704 0.618340
N8_3 N 0.89233(13) 0.1261(2) 0.59888(16)
H8_3 H 0.874374 0.103398 0.592158
N9_3 N 0.74238(12) 0.26844(16) 0.45870(12)
H9_3 H 0.730158 0.262110 0.476527
C31_3 C 0.54078(14) 0.06394(19) 0.72522(16)
C32_3 C 0.50070(13) 0.08589(19) 0.70244(15)
C33_3 C 0.48767(16) 0.0879(3) 0.66044(17)
H28_3 H 0.503517 0.075670 0.645397
C34_3 C 0.45204(15) 0.1072(3) 0.63962(18)
H29_3 H 0.443938 0.110001 0.610201
C35_3 C 0.42755(14) 0.1227(2) 0.66022(16)
C36_3 C 0.44070(18) 0.1208(3) 0.70300(17)
H30_3 H 0.424566 0.131729 0.718180
C37_3 C 0.47724(17) 0.1029(3) 0.72334(18)
H31_3 H 0.486543 0.102300 0.752889
C38_3 C 0.37214(14) 0.1509(2) 0.59971(17)
C39_3 C 0.33159(14) 0.1692(2) 0.58750(16)
C40_3 C 0.31859(14) 0.2008(2) 0.55395(15)
H32_3 H 0.335949 0.209897 0.539594
C41_3 C 0.28066(14) 0.21904(19) 0.54117(15)
C42_3 C 0.25521(13) 0.20575(18) 0.56207(14)
H33_3 H 0.228979 0.217262 0.552843
C43_3 C 0.26808(14) 0.17541(19) 0.59674(15)
C44_3 C 0.30520(14) 0.15696(19) 0.60918(16)
H34_3 H 0.313511 0.135882 0.632362
C45_3 C 0.26920(15) 0.2554(2) 0.50670(17)
C46_3 C 0.21138(14) 0.28719(18) 0.45312(14)
C47_3 C 0.22034(16) 0.3348(2) 0.46050(16)
H35_3 H 0.241948 0.344212 0.483931
C48_3 C 0.19767(17) 0.3693(2) 0.43356(15)
H36_3 H 0.203005 0.402320 0.439436
C49_3 C 0.16719(13) 0.35543(18) 0.39801(13)
C50_3 C 0.15834(14) 0.30802(19) 0.39091(16)
H37_3 H 0.137406 0.298465 0.366874
C51_3 C 0.17995(15) 0.2734(2) 0.41886(17)
H38_3 H 0.173090 0.240503 0.414359
C52_3 C 0.14463(14) 0.39353(19) 0.36930(15)
C53_3 C 0.24103(16) 0.1661(2) 0.62051(18)
C54_3 C 0.22294(15) 0.1085(2) 0.66580(16)
C55_3 C 0.20322(18) 0.1390(2) 0.68281(18)
H39_3 H 0.203363 0.172512 0.677871
C56_3 C 0.18255(16) 0.1203(2) 0.70789(17)
H40_3 H 0.169079 0.141715 0.720127
C57_3 C 0.18138(13) 0.07299(17) 0.71497(14)
C58_3 C 0.20241(19) 0.0420(2) 0.69856(19)
H41_3 H 0.202637 0.008599 0.704054
C59_3 C 0.2234(2) 0.0602(2) 0.6737(2)
H42_3 H 0.237946 0.039133 0.662463
C60_3 C 0.15937(13) 0.05394(18) 0.74154(13)
C61_3 C 0.67085(15) 0.04081(16) 0.70313(15)
C62_3 C 0.69075(14) 0.06330(18) 0.67529(14)
C63_3 C 0.72862(18) 0.0804(3) 0.69270(17)
H43_3 H 0.741953 0.076569 0.721672
C64_3 C 0.74730(18) 0.1030(3) 0.66842(17)
H44_3 H 0.772808 0.116082 0.680856
C65_3 C 0.72861(15) 0.1066(2) 0.62586(15)
C66_3 C 0.69067(15) 0.0896(2) 0.60869(17)
H45_3 H 0.677277 0.092149 0.579618
C67_3 C 0.67216(15) 0.0686(2) 0.63463(15)
H46_3 H 0.645808 0.057878 0.622952
C68_3 C 0.74034(15) 0.1351(2) 0.56151(17)
C69_3 C 0.77128(14) 0.1581(2) 0.54839(15)
C70_3 C 0.81084(15) 0.1506(2) 0.56924(16)
H47_3 H 0.818829 0.129930 0.592678
C71_3 C 0.83862(16) 0.1730(2) 0.55632(17)
C72_3 C 0.82661(15) 0.2037(2) 0.52162(16)
H48_3 H 0.845711 0.219786 0.512894
C73_3 C 0.78777(15) 0.2106(2) 0.50051(15)
C74_3 C 0.75908(15) 0.1865(2) 0.51259(15)
H49_3 H 0.732040 0.189387 0.496752
C75_3 C 0.88154(17) 0.1678(3) 0.57960(19)
C76_3 C 0.92835(16) 0.1132(3) 0.62842(18)
C77_3 C 0.93382(19) 0.0647(3) 0.63891(19)
H50_3 H 0.914394 0.041873 0.624938
C78_3 C 0.96774(18) 0.0500(3) 0.66981(19)
H51_3 H 0.971952 0.016787 0.675750
C79_3 C 0.99598(16) 0.0831(2) 0.69251(17)
C80_3 C 0.99034(16) 0.1302(2) 0.6814(2)
C81_3 C 0.95661(18) 0.1450(3) 0.6487(2)
H53_3 H 0.953667 0.177836 0.640759
C83_3 C 0.77639(15) 0.2452(2) 0.46487(16)
C84_3 C 0.72425(15) 0.3010(2) 0.42783(15)
C85_3 C 0.73660(16) 0.3129(2) 0.39484(15)
H54_3 H 0.759319 0.298027 0.392229
C86_3 C 0.71591(16) 0.3465(2) 0.36522(15)
H55_3 H 0.724497 0.353895 0.342431
C87_3 C 0.68357(14) 0.36897(19) 0.36865(14)
C88_3 C 0.67117(16) 0.3579(2) 0.40267(17)
H56_3 H 0.648301 0.372745 0.404935
C89_3 C 0.69159(15) 0.3263(2) 0.43227(16)
H57_3 H 0.684046 0.320928 0.456082
C90_3 C 0.66230(16) 0.40590(18) 0.33776(14)
Zn11_2 Zn 0.59749(2) 0.46823(2) 0.30255(2)
Zn12_2 Zn 0.67920(2) 0.48632(2) 0.28967(2)
Zn15_2 Zn 0.10354(2) 0.42650(2) 0.28686(2)
Zn17_2 Zn 0.12746(2) 0.49794(2) 0.36255(2)
O51_2 O 0.67779(11) 0.07998(13) 0.81223(10)
O52_2 O 0.62970(10) 0.07919(12) 0.84011(9)
Zn2_2 Zn 0.62283(2) 0.92494(2) 0.78873(2)
O1_3 O 0.57967(19) 0.9481(2) 0.68358(18)
O2_3 O 0.5819(2) 0.8983(2) 0.73807(18)
O3_3 O 0.45390(13) 0.72680(16) 0.61441(12)
O4_3 O 0.52022(11) 0.68743(14) 0.46943(13)
O5_2 O 0.57486(9) 0.50329(11) 0.33827(10)
O6_2 O 0.58938(10) 0.57842(11) 0.32572(11)
O7_3 O 0.34975(9) 0.61707(13) 0.51149(9)
O8_2 O 0.17915(8) 0.56457(11) 0.31724(8)
O9_2 O 0.17524(10) 0.53756(14) 0.37694(9)
O31_3 O 0.82562(9) 0.78169(13) 0.97273(10)
O32_3 O 0.71200(16) 0.9701(3) 0.8210(3)
O33_3 O 0.67196(12) 0.9092(3) 0.83135(19)
O37_3 O 0.62487(7) 0.99321(9) 0.77426(8)
O38_3 O 0.6245(3) 0.8471(3) 0.7905(3)
O39_3 O 0.6602(2) 0.9181(3) 0.7453(3)
O42_3 O 0.99233(14) 0.9632(2) 0.7811(2)
N1_3 N 0.48220(16) 0.77558(18) 0.58004(15)
H1_3 H 0.483276 0.780940 0.555003
N2_3 N 0.49272(11) 0.61418(14) 0.44940(12)
H2_3 H 0.475596 0.593756 0.453025
N3_3 N 0.34370(10) 0.63185(14) 0.44347(10)
H3_3 H 0.356113 0.643782 0.427423
N10_3 N 0.98492(12) 0.85767(16) 0.96870(12)
H10_3 H 0.962529 0.846246 0.951974
N11_3 N 0.83907(13) 0.86046(19) 0.96681(18)
H11_3 H 0.857222 0.882310 0.977366
C1_3 C 0.5722(3) 0.9082(4) 0.7014(3)
C2_3 C 0.5473(3) 0.8726(3) 0.6698(2)
C3_3 C 0.5413(3) 0.8801(3) 0.6276(2)
H13_3 H 0.552542 0.907062 0.618764
C4_3 C 0.5186(3) 0.8474(3) 0.5986(2)
H14_3 H 0.514798 0.852046 0.569888
C5_3 C 0.5020(2) 0.8093(2) 0.61043(19)
C6_3 C 0.5072(2) 0.8040(3) 0.65174(19)
H15_3 H 0.495575 0.777506 0.660747
C7_3 C 0.5294(2) 0.8370(3) 0.6810(2)
H16_3 H 0.531476 0.833596 0.709345
C8_3 C 0.46221(16) 0.7370(2) 0.58345(16)
C9_3 C 0.45117(14) 0.70592(17) 0.54588(14)
C10_3 C 0.47673(14) 0.69608(17) 0.52424(14)
H17_3 H 0.502014 0.710416 0.533136
C11_3 C 0.46646(13) 0.66618(17) 0.49033(14)
C12_3 C 0.42871(12) 0.64581(16) 0.47661(13)
H18_3 H 0.421136 0.625294 0.453025
C13_3 C 0.40255(13) 0.65563(17) 0.49742(13)
C14_3 C 0.41411(14) 0.68480(17) 0.53275(13)
H19_3 H 0.396659 0.690241 0.547868
C15_3 C 0.49593(14) 0.65744(18) 0.46925(16)
C16_3 C 0.51384(13) 0.59921(17) 0.42402(15)
C17_3 C 0.53124(17) 0.63139(19) 0.4034(2)
H20_3 H 0.529008 0.664971 0.406647
C18_3 C 0.55155(16) 0.61405(19) 0.37838(18)
H21_3 H 0.564712 0.635996 0.366275
C19_3 C 0.55313(12) 0.56674(16) 0.37077(13)
C20_3 C 0.53468(15) 0.53442(17) 0.39048(15)
H22_3 H 0.535316 0.500989 0.385477
C21_3 C 0.51586(14) 0.55112(17) 0.41684(15)
H23_3 H 0.504085 0.528965 0.430266
C22_3 C 0.57475(12) 0.54870(17) 0.34253(13)
C23_3 C 0.36316(13) 0.63304(17) 0.48497(13)
C24_3 C 0.30619(12) 0.61382(17) 0.42337(13)
C25_3 C 0.28897(15) 0.6238(2) 0.38138(14)
H24_3 H 0.302515 0.642988 0.367532
C26_3 C 0.25186(15) 0.6059(2) 0.35939(14)
H25_3 H 0.240412 0.612908 0.330606
C27_3 C 0.23167(12) 0.57831(16) 0.37859(13)
C28_3 C 0.25004(16) 0.5669(3) 0.42010(15)
H26_3 H 0.236850 0.547144 0.433900
C29_3 C 0.28707(16) 0.5838(3) 0.44179(16)
H27_3 H 0.299448 0.574336 0.469900
C30_3 C 0.19304(13) 0.55882(17) 0.35599(13)
C94_3 C 0.9978(3) 0.8807(3) 0.90776(19)
H59_3 H 0.974036 0.864919 0.892800
C100_3 C 0.91994(13) 0.83284(16) 0.99588(14)
H62_3 H 0.913187 0.855156 0.973562
C105_3 C 0.84839(15) 0.8146(2) 0.97946(17)
C106_3 C 0.80349(17) 0.8764(3) 0.9387(2)
C107_3 C 0.8054(2) 0.9254(3) 0.9235(3)
H65_3 H 0.827614 0.945228 0.935449
C108_3 C 0.7735(2) 0.9410(4) 0.8913(3)
H66_3 H 0.775123 0.970487 0.878018
C109_3 C 0.7395(2) 0.9151(4) 0.8779(3)
C110_3 C 0.73787(17) 0.8695(3) 0.8928(3)
H67_3 H 0.714408 0.851304 0.882373
C111_3 C 0.76983(17) 0.8504(3) 0.9225(2)
H68_3 H 0.768619 0.818583 0.932038
C112_3 C 0.7047(2) 0.9369(5) 0.8417(3)
Zn9_2 Zn 0.62283(2) 0.57506(2) 0.28873(2)
O43_2 O 0.57486(9) 0.99671(11) 0.83827(10)
O44_2 O 0.58938(10) 0.92158(11) 0.82572(11)
H73_3 H 0.630204 0.834808 0.765778
H74_3 H 0.645335 0.836313 0.816197
H75_3 H 0.981874 0.94502 0.754656
H76_3 H 0.991919 0.942506 0.80465
H77_3 H 0.648417 0.938031 0.720081
H78_3 H 0.687341 0.929273 0.760208
O23_4 O 0.05521(10) 0.40236(13) 0.24631(11)
O24_4 O 0.03106(12) 0.47735(16) 0.23500(13)
O28_4 O 0.06590(19) 0.55854(18) 0.34532(14)
O29_4 O 0.10239(11) 0.52228(13) 0.40061(12)
O30_4 O 0.02224(10) 0.63934(16) 0.53650(11)
O40_4 O 0.10517(8) 0.49254(10) 0.30330(8)
O41_4 O 0.04436(14) 0.45585(17) 0.32743(16)
H52_4 H 0.009314 0.346743 0.195797
C82_4 C 0.02937(17) 0.4335(2) 0.22730(18)
C91_4 C 0.0737(2) 0.5489(2) 0.38141(18)
C92_4 C 0.05131(18) 0.5741(2) 0.40593(18)
C93_4 C 0.0184(3) 0.5992(3) 0.38591(19)
H58_4 H 0.010047 0.602612 0.356524
C95_4 C 0.00851(16) 0.61851(18) 0.44908(15)
C96_4 C 0.04213(16) 0.5943(2) 0.46992(17)
H60_4 H 0.050946 0.592947 0.499446
C97_4 C 0.06345(16) 0.5716(2) 0.44823(17)
H61_4 H 0.086584 0.554376 0.462886
C114_4 C 0.00403(16) 0.8205(2) 0.63608(18)
C115_4 C 0.04166(18) 0.8345(3) 0.6374(2)
H69_4 H 0.051986 0.823749 0.616682
C116_4 C 0.06356(18) 0.8640(3) 0.6692(2)
H70_4 H 0.089015 0.873872 0.670192
C117_4 C 0.04875(15) 0.8793(2) 0.69950(16)
C118_4 C 0.01126(18) 0.8652(2) 0.69730(18)
H71_4 H 0.001058 0.875377 0.718266
C120_4 C 0.07190(16) 0.91090(18) 0.73417(15)
O49_2 O 0.14185(10) 0.41688(11) 0.25687(10)
O50_2 O 0.16037(10) 0.49100(12) 0.24710(10)
H79_4 H 0.0167619 0.444458 0.31805
H80_4 H 0.0521488 0.466006 0.356988
Zn1_4 Zn 0.60244(2) 0.49794(2) 0.21545(2)
O1_4 O 0.57967(19) 0.5519(2) 0.18358(18)
O2_4 O 0.5819(2) 0.6017(2) 0.23807(18)
O3_4 O 0.45390(13) 0.77320(16) 0.11441(12)
O7_4 O 0.34975(9) 0.88293(13) 0.01149(9)
O10_4 O 0.55936(10) 0.45161(17) 0.20394(11)
O11_4 O 0.55145(9) 0.43516(13) 0.26471(10)
O12_4 O 0.38853(11) 0.3533(2) 0.07430(13)
O13_4 O 0.29213(11) 0.21524(18) 0.00371(15)
O16_4 O 0.21560(14) 0.3033(2) 0.12036(17)
O19_4 O 0.63574(10) 0.46903(12) 0.18706(10)
O20_4 O 0.69161(10) 0.46693(13) 0.24087(10)
O21_4 O 0.70839(12) 0.3760(2) 0.03675(12)
O22_4 O 0.90419(12) 0.2987(2) 0.08168(16)
O31_4 O 0.82562(9) 0.71831(13) 0.47273(10)
O32_4 O 0.71200(16) 0.5299(3) 0.3210(3)
O33_4 O 0.67196(12) 0.5908(3) 0.33135(19)
O34_2 O 0.92739(11) 0.77405(16) 0.61585(12)
O37_4 O 0.62487(7) 0.50679(9) 0.27426(8)
O38_4 O 0.6245(3) 0.6529(3) 0.2905(3)
O39_4 O 0.6602(2) 0.5819(3) 0.2453(3)
O42_4 O 0.99233(14) 0.5368(2) 0.2811(2)
N1_4 N 0.48220(16) 0.72442(18) 0.08004(15)
H1_4 H 0.483276 0.719060 0.055003
N4_4 N 0.38893(11) 0.35908(16) 0.14063(13)
H4_4 H 0.374665 0.353861 0.156683
N6_4 N 0.24494(13) 0.37569(16) 0.14084(14)
H6_4 H 0.263101 0.395342 0.138418
N7_4 N 0.75037(12) 0.37091(17) 0.10333(12)
H7_4 H 0.773360 0.359296 0.118340
N8_4 N 0.89233(13) 0.3739(2) 0.09888(16)
H8_4 H 0.874374 0.396602 0.092158
N10_4 N 0.98492(12) 0.64233(16) 0.46870(12)
H10_4 H 0.962529 0.653754 0.451974
N11_4 N 0.83907(13) 0.63954(19) 0.46681(18)
H11_4 H 0.857222 0.617690 0.477366
N12_2 N 0.98421(13) 0.78964(19) 0.60276(14)
H12_2 H 0.995974 0.784264 0.584364
C1_4 C 0.5722(3) 0.5918(4) 0.2014(3)
C2_4 C 0.5473(3) 0.6274(3) 0.1698(2)
C3_4 C 0.5413(3) 0.6199(3) 0.1276(2)
H13_4 H 0.552542 0.592938 0.118764
C4_4 C 0.5186(3) 0.6526(3) 0.0986(2)
H14_4 H 0.514798 0.647954 0.069888
C5_4 C 0.5020(2) 0.6907(2) 0.11043(19)
C6_4 C 0.5072(2) 0.6960(3) 0.15174(19)
H15_4 H 0.495575 0.722494 0.160747
C7_4 C 0.5294(2) 0.6630(3) 0.1810(2)
H16_4 H 0.531476 0.666404 0.209345
C8_4 C 0.46221(16) 0.7630(2) 0.08345(16)
C9_4 C 0.45117(14) 0.79408(17) 0.04588(14)
C10_4 C 0.47673(14) 0.80392(17) 0.02424(14)
H17_4 H 0.502014 0.789584 0.033136
C14_4 C 0.41411(14) 0.81520(17) 0.03275(13)
H19_4 H 0.396659 0.809759 0.047868
C31_4 C 0.54078(14) 0.43606(19) 0.22522(16)
C32_4 C 0.50070(13) 0.41411(19) 0.20244(15)
C33_4 C 0.48767(16) 0.4121(3) 0.16044(17)
H28_4 H 0.503517 0.424330 0.145397
C34_4 C 0.45204(15) 0.3928(3) 0.13962(18)
H29_4 H 0.443938 0.389999 0.110201
C35_4 C 0.42755(14) 0.3773(2) 0.16022(16)
C36_4 C 0.44070(18) 0.3792(3) 0.20300(17)
H30_4 H 0.424566 0.368271 0.218180
C37_4 C 0.47724(17) 0.3971(3) 0.22334(18)
H31_4 H 0.486543 0.397700 0.252889
C38_4 C 0.37214(14) 0.3491(2) 0.09971(17)
C39_4 C 0.33159(14) 0.3308(2) 0.08750(16)
C40_4 C 0.31859(14) 0.2992(2) 0.05395(15)
H32_4 H 0.335949 0.290103 0.039594
C41_4 C 0.28066(14) 0.28096(19) 0.04117(15)
C42_4 C 0.25521(13) 0.29425(18) 0.06207(14)
H33_4 H 0.228979 0.282738 0.052843
C43_4 C 0.26808(14) 0.32459(19) 0.09674(15)
C44_4 C 0.30520(14) 0.34304(19) 0.10918(16)
H34_4 H 0.313511 0.364118 0.132362
C45_4 C 0.26920(15) 0.2446(2) 0.00670(17)
C53_4 C 0.24103(16) 0.3339(2) 0.12051(18)
C54_4 C 0.22294(15) 0.3915(2) 0.16580(16)
C55_4 C 0.20322(18) 0.3610(2) 0.18281(18)
H39_4 H 0.203363 0.327488 0.177871
C56_4 C 0.18255(16) 0.3797(2) 0.20789(17)
H40_4 H 0.169079 0.358285 0.220127
C57_4 C 0.18138(13) 0.42701(17) 0.21497(14)
C58_4 C 0.20241(19) 0.4580(2) 0.19856(19)
H41_4 H 0.202637 0.491401 0.204054
C59_4 C 0.2234(2) 0.4398(2) 0.1737(2)
H42_4 H 0.237946 0.460867 0.162463
C60_4 C 0.15937(13) 0.44606(18) 0.24154(13)
C61_4 C 0.67085(15) 0.45919(16) 0.20313(15)
C62_4 C 0.69075(14) 0.43670(18) 0.17529(14)
C63_4 C 0.72862(18) 0.4196(3) 0.19270(17)
H43_4 H 0.741953 0.423431 0.221672
C64_4 C 0.74730(18) 0.3970(3) 0.16842(17)
H44_4 H 0.772808 0.383918 0.180856
C65_4 C 0.72861(15) 0.3934(2) 0.12586(15)
C66_4 C 0.69067(15) 0.4104(2) 0.10869(17)
H45_4 H 0.677277 0.407851 0.079618
C67_4 C 0.67216(15) 0.4314(2) 0.13463(15)
H46_4 H 0.645808 0.442122 0.122952
C68_4 C 0.74034(15) 0.3649(2) 0.06151(17)
C69_4 C 0.77128(14) 0.3419(2) 0.04839(15)
C70_4 C 0.81084(15) 0.3494(2) 0.06924(16)
H47_4 H 0.818829 0.370070 0.092678
C71_4 C 0.83862(16) 0.3270(2) 0.05632(17)
C72_4 C 0.82661(15) 0.2963(2) 0.02162(16)
H48_4 H 0.845711 0.280214 0.012894
C73_4 C 0.78777(15) 0.2894(2) 0.00051(15)
C74_4 C 0.75908(15) 0.3135(2) 0.01259(15)
C75_4 C 0.88154(17) 0.3322(3) 0.07960(19)
C76_4 C 0.92835(16) 0.3868(3) 0.12842(18)
C77_4 C 0.93382(19) 0.4353(3) 0.13891(19)
H50_4 H 0.914394 0.458127 0.124938
C78_4 C 0.96774(18) 0.4500(3) 0.16981(19)
H51_4 H 0.971952 0.483213 0.175750
C79_4 C 0.99598(16) 0.4169(2) 0.19251(17)
C80_4 C 0.99034(16) 0.3698(2) 0.1814(2)
C81_4 C 0.95661(18) 0.3550(3) 0.1487(2)
H53_4 H 0.953667 0.322164 0.140759
C94_4 C 0.9978(3) 0.6193(3) 0.40776(19)
H59_4 H 0.974036 0.635081 0.392800
C98_2 C 0.99201(14) 0.64974(19) 0.50890(15)
C99_2 C 0.95912(13) 0.67499(17) 0.51886(13)
C100_4 C 0.91994(13) 0.66716(16) 0.49588(14)
H62_4 H 0.913187 0.644844 0.473562
C101_2 C 0.89084(13) 0.69157(18) 0.50524(15)
C102_2 C 0.90111(14) 0.72441(18) 0.53775(14)
H63_2 H 0.881205 0.741589 0.544240
C103_2 C 0.93987(13) 0.73223(19) 0.56058(14)
C104_2 C 0.96823(13) 0.70676(19) 0.55129(14)
H64_2 H 0.994945 0.711246 0.567765
C105_4 C 0.84839(15) 0.6854(2) 0.47946(17)
C106_4 C 0.80349(17) 0.6236(3) 0.4387(2)
C107_4 C 0.8054(2) 0.5746(3) 0.4235(3)
H65_4 H 0.827614 0.554772 0.435449
C108_4 C 0.7735(2) 0.5590(4) 0.3913(3)
H66_4 H 0.775123 0.529513 0.378018
C109_4 C 0.7395(2) 0.5849(4) 0.3779(3)
C110_4 C 0.73787(17) 0.6305(3) 0.3928(3)
H67_4 H 0.714408 0.648696 0.382373
C111_4 C 0.76983(17) 0.6496(3) 0.4225(2)
H68_4 H 0.768619 0.681417 0.432038
C112_4 C 0.7047(2) 0.5631(5) 0.3417(3)
C113_2 C 0.94925(14) 0.7674(2) 0.59578(17)
C119_2 C 0.98836(17) 0.8365(2) 0.66489(18)
H72_2 H 0.962297 0.828299 0.662901
H73_4 H 0.630204 0.665192 0.265778
H74_4 H 0.645335 0.663687 0.316197
H75_4 H 0.981874 0.55498 0.254656
H76_4 H 0.991919 0.557494 0.30465
H77_4 H 0.648417 0.561969 0.220081
H78_4 H 0.687341 0.570727 0.260208
O4_4 O 0.52022(11) 0.81257(14) 0.96943(13)
O25_4 O 0.79738(11) 0.24895(17) 0.94373(13)
N2_4 N 0.49272(11) 0.88582(14) 0.94940(12)
H2_4 H 0.475596 0.906244 0.953025
N3_4 N 0.34370(10) 0.86815(14) 0.94347(10)
H3_4 H 0.356113 0.856218 0.927423
N5_4 N 0.23197(12) 0.24787(15) 0.98188(12)
H5_4 H 0.219155 0.274167 0.983605
N9_4 N 0.74238(12) 0.23156(16) 0.95870(12)
H9_4 H 0.730158 0.237890 0.976527
C11_4 C 0.46646(13) 0.83382(17) 0.99033(14)
C12_4 C 0.42871(12) 0.85419(16) 0.97661(13)
H18_4 H 0.421136 0.874706 0.953025
C13_4 C 0.40255(13) 0.84437(17) 0.99742(13)
C15_4 C 0.49593(14) 0.84256(18) 0.96925(16)
C16_4 C 0.51384(13) 0.90079(17) 0.92402(15)
C17_4 C 0.53124(17) 0.86861(19) 0.9034(2)
H20_4 H 0.529008 0.835029 0.906647
C18_4 C 0.55155(16) 0.88595(19) 0.87838(18)
H21_4 H 0.564712 0.864004 0.866275
C19_4 C 0.55313(12) 0.93326(16) 0.87077(13)
C20_4 C 0.53468(15) 0.96558(17) 0.89048(15)
H22_4 H 0.535316 0.999011 0.885477
C21_4 C 0.51586(14) 0.94888(17) 0.91684(15)
H23_4 H 0.504085 0.971035 0.930266
C22_4 C 0.57475(12) 0.95130(17) 0.84253(13)
C23_4 C 0.36316(13) 0.86696(17) 0.98497(13)
C24_4 C 0.30619(12) 0.88618(17) 0.92337(13)
C25_4 C 0.28897(15) 0.8762(2) 0.88138(14)
H24_4 H 0.302515 0.857012 0.867532
C26_4 C 0.25186(15) 0.8941(2) 0.85939(14)
H25_4 H 0.240412 0.887092 0.830606
C27_4 C 0.23167(12) 0.92169(16) 0.87859(13)
C28_4 C 0.25004(16) 0.9331(3) 0.92010(15)
H26_4 H 0.236850 0.952856 0.933900
C29_4 C 0.28707(16) 0.9162(3) 0.94179(16)
H27_4 H 0.299448 0.925664 0.969900
C30_4 C 0.19304(13) 0.94118(17) 0.85599(13)
C46_4 C 0.21138(14) 0.21281(18) 0.95312(14)
C47_4 C 0.22034(16) 0.1652(2) 0.96050(16)
H35_4 H 0.241948 0.155788 0.983931
C48_4 C 0.19767(17) 0.1307(2) 0.93356(15)
H36_4 H 0.203005 0.097680 0.939436
C49_4 C 0.16719(13) 0.14457(18) 0.89801(13)
C50_4 C 0.15834(14) 0.19198(19) 0.89091(16)
H37_4 H 0.137406 0.201535 0.866874
C51_4 C 0.17995(15) 0.2266(2) 0.91886(17)
H38_4 H 0.173090 0.259497 0.914359
C52_4 C 0.14463(14) 0.10647(19) 0.86930(15)
H49_4 H 0.732040 0.310613 0.996752
C83_4 C 0.77639(15) 0.2548(2) 0.96487(16)
C84_4 C 0.72425(15) 0.1990(2) 0.92783(15)
C85_4 C 0.73660(16) 0.1871(2) 0.89484(15)
H54_4 H 0.759319 0.201973 0.892229
C86_4 C 0.71591(16) 0.1535(2) 0.86522(15)
H55_4 H 0.724497 0.146105 0.842431
C87_4 C 0.68357(14) 0.13103(19) 0.86865(14)
C88_4 C 0.67117(16) 0.1421(2) 0.90267(17)
H56_4 H 0.648301 0.127255 0.904935
C89_4 C 0.69159(15) 0.1737(2) 0.93227(16)
H57_4 H 0.684046 0.179072 0.956082
C90_4 C 0.66230(16) 0.09410(18) 0.83776(14)
O34_3 O 0.92739(11) 0.72595(16) 0.11585(12)
N12_3 N 0.98421(13) 0.71036(19) 0.10276(14)
H12_3 H 0.995974 0.715736 0.084364
C98_3 C 0.99201(14) 0.85026(19) 0.00890(15)
C99_3 C 0.95912(13) 0.82501(17) 0.01886(13)
C101_3 C 0.89084(13) 0.80843(18) 0.00524(15)
C102_3 C 0.90111(14) 0.77559(18) 0.03775(14)
H63_3 H 0.881205 0.758411 0.044240
C103_3 C 0.93987(13) 0.76777(19) 0.06058(14)
C104_3 C 0.96823(13) 0.79324(19) 0.05129(14)
H64_3 H 0.994945 0.788754 0.067765
C113_3 C 0.94925(14) 0.7326(2) 0.09578(17)
C119_3 C 0.98836(17) 0.6635(2) 0.16489(18)
H72_3 H 0.962297 0.671701 0.162901
O34_4 O 0.07261(11) 0.27405(16) 0.88415(12)
N12_4 N 0.01579(13) 0.28964(19) 0.89724(14)
H12_4 H 0.004026 0.284264 0.915636
C98_4 C 0.00799(14) 0.14974(19) 0.99110(15)
C99_4 C 0.04088(13) 0.17499(17) 0.98114(13)
C101_4 C 0.10916(13) 0.19157(18) 0.99476(15)
C102_4 C 0.09889(14) 0.22441(18) 0.96225(14)
H63_4 H 0.118795 0.241589 0.955760
C103_4 C 0.06013(13) 0.23223(19) 0.93942(14)
C104_4 C 0.03177(13) 0.20676(19) 0.94871(14)
H64_4 H 0.005055 0.211246 0.932235
C113_4 C 0.05075(14) 0.2674(2) 0.90422(17)
C119_4 C 0.01164(17) 0.3365(2) 0.83511(18)
H72_4 H 0.037703 0.328299 0.837099
loop_
_geom_bond_atom_site_label_1
_geom_bond_atom_site_label_2
_geom_bond_site_symmetry_1
_geom_bond_site_symmetry_2
O4 C15 1_555 1_555
O5 C22 1_555 1_555
O6 C22 1_555 1_555
O8 C30 1_555 1_555
O9 C30 1_555 1_555
O14 C52 1_555 1_555
O15 C52 1_555 1_555
O25 C83 1_555 1_555
O26 C90 1_555 1_555
O27 C90 1_555 1_555
N2 H2 1_555 1_555
N3 H3 1_555 1_555
N5 H5 1_555 1_555
N9 H9 1_555 1_555
C12 C11 1_555 1_555
H18 C12 1_555 1_555
C13 C12 1_555 1_555
C15 N2 1_555 1_555
C16 N2 1_555 1_555
C17 C16 1_555 1_555
H20 C17 1_555 1_555
C18 C17 1_555 1_555
H21 C18 1_555 1_555
C19 C18 1_555 1_555
C20 C19 1_555 1_555
H22 C20 1_555 1_555
C21 C16 1_555 1_555
H23 C21 1_555 1_555
C22 C19 1_555 1_555
C23 N3 1_555 1_555
C24 N3 1_555 1_555
C25 C24 1_555 1_555
H24 C25 1_555 1_555
C26 C25 1_555 1_555
H25 C26 1_555 1_555
C27 C26 1_555 1_555
C28 C27 1_555 1_555
H26 C28 1_555 1_555
C29 C24 1_555 1_555
H27 C29 1_555 1_555
C30 C27 1_555 1_555
C46 N5 1_555 1_555
C47 C46 1_555 1_555
H35 C47 1_555 1_555
C48 C47 1_555 1_555
H36 C48 1_555 1_555
C49 C48 1_555 1_555
C50 C49 1_555 1_555
H37 C50 1_555 1_555
C51 C46 1_555 1_555
H38 C51 1_555 1_555
C52 C49 1_555 1_555
C83 N9 1_555 1_555
C84 N9 1_555 1_555
C85 C84 1_555 1_555
H54 C85 1_555 1_555
C86 C85 1_555 1_555
H55 C86 1_555 1_555
C87 C86 1_555 1_555
C88 C87 1_555 1_555
H56 C88 1_555 1_555
C89 C84 1_555 1_555
H57 C89 1_555 1_555
C90 C87 1_555 1_555
Zn9 O6 1_555 1_555
Zn11 O27 1_555 1_555
Zn12 O26 1_555 1_555
Zn15 O15 1_555 1_555
Zn17 O14 1_555 1_555
Zn20 O8 1_555 1_555
C11 C15 1_555 1_555
C13 C23 1_555 1_555
C20 C21 1_555 1_555
C28 C29 1_555 1_555
C50 C51 1_555 1_555
C88 C89 1_555 1_555
Zn1 O1 1_555 1_555
Zn2 O2 1_555 1_555
Zn3 O11 1_555 1_555
Zn4 O20 1_555 1_555
O1 C1 1_555 1_555
O2 C1 1_555 1_555
O3 C8 1_555 1_555
O10 Zn1 1_555 1_555
O11 C31 1_555 1_555
O12 C38 1_555 1_555
O13 C45 1_555 1_555
O16 C53 1_555 1_555
O17 C60 1_555 1_555
O18 C60 1_555 1_555
O19 Zn1 1_555 1_555
O20 C61 1_555 1_555
O21 C68 1_555 1_555
O22 C75 1_555 1_555
O31 C105 1_555 1_555
O32 Zn4 1_555 1_555
O33 Zn2 1_555 1_555
O34 C113 1_555 1_555
O37 Zn1 1_555 1_555
O38 Zn2 1_555 1_555
O39 Zn2 1_555 1_555
N1 H1 1_555 1_555
N4 H4 1_555 1_555
N6 H6 1_555 1_555
N7 H7 1_555 1_555
N8 H8 1_555 1_555
N10 H10 1_555 1_555
N11 H11 1_555 1_555
N12 H12 1_555 1_555
C1 C2 1_555 1_555
C2 C3 1_555 1_555
C3 H13 1_555 1_555
C4 C3 1_555 1_555
H14 C4 1_555 1_555
C5 N1 1_555 1_555
C6 C5 1_555 1_555
H15 C6 1_555 1_555
C7 C2 1_555 1_555
H16 C7 1_555 1_555
C8 N1 1_555 1_555
C9 C8 1_555 1_555
C10 C9 1_555 1_555
H17 C10 1_555 1_555
C14 C9 1_555 1_555
H19 C14 1_555 1_555
C31 O10 1_555 1_555
C32 C31 1_555 1_555
C33 C32 1_555 1_555
H28 C33 1_555 1_555
C34 C33 1_555 1_555
H29 C34 1_555 1_555
C35 N4 1_555 1_555
C36 C35 1_555 1_555
H30 C36 1_555 1_555
C37 C32 1_555 1_555
H31 C37 1_555 1_555
C38 N4 1_555 1_555
C39 C38 1_555 1_555
C40 C39 1_555 1_555
H32 C40 1_555 1_555
C41 C40 1_555 1_555
C42 C41 1_555 1_555
H33 C42 1_555 1_555
C43 C42 1_555 1_555
C44 C39 1_555 1_555
H34 C44 1_555 1_555
C53 N6 1_555 1_555
C54 N6 1_555 1_555
C55 C54 1_555 1_555
H39 C55 1_555 1_555
C56 C55 1_555 1_555
H40 C56 1_555 1_555
C57 C56 1_555 1_555
C58 C57 1_555 1_555
H41 C58 1_555 1_555
C59 C54 1_555 1_555
H42 C59 1_555 1_555
C60 C57 1_555 1_555
C61 O19 1_555 1_555
C62 C61 1_555 1_555
C63 C62 1_555 1_555
H43 C63 1_555 1_555
C64 C63 1_555 1_555
H44 C64 1_555 1_555
C65 N7 1_555 1_555
C66 C65 1_555 1_555
H45 C66 1_555 1_555
C67 C62 1_555 1_555
H46 C67 1_555 1_555
C68 N7 1_555 1_555
C69 C68 1_555 1_555
C70 C69 1_555 1_555
H47 C70 1_555 1_555
C71 C70 1_555 1_555
C72 C71 1_555 1_555
H48 C72 1_555 1_555
C73 C72 1_555 1_555
C74 C69 1_555 1_555
C75 N8 1_555 1_555
C76 N8 1_555 1_555
C77 C76 1_555 1_555
H50 C77 1_555 1_555
C78 C77 1_555 1_555
H51 C78 1_555 1_555
C79 C78 1_555 1_555
C80 C79 1_555 1_555
C81 C76 1_555 1_555
H53 C81 1_555 1_555
H59 C94 1_555 1_555
C98 N10 1_555 1_555
C99 C98 1_555 1_555
C100 C99 1_555 1_555
H62 C100 1_555 1_555
C101 C100 1_555 1_555
C102 C101 1_555 1_555
H63 C102 1_555 1_555
C103 C102 1_555 1_555
C104 C99 1_555 1_555
H64 C104 1_555 1_555
C105 N11 1_555 1_555
C106 N11 1_555 1_555
C107 C106 1_555 1_555
H65 C107 1_555 1_555
C108 C107 1_555 1_555
H66 C108 1_555 1_555
C109 C108 1_555 1_555
C110 C109 1_555 1_555
H67 C110 1_555 1_555
C111 C106 1_555 1_555
H68 C111 1_555 1_555
C112 O32 1_555 1_555
C113 N12 1_555 1_555
H72 C119 1_555 1_555
Zn14 O17 1_555 1_555
Zn18 O18 1_555 1_555
O43 Zn3 1_555 1_555
O44 Zn2 1_555 1_555
O51 Zn4 1_555 1_555
O52 Zn3 1_555 1_555
Zn2 O37 1_555 1_555
Zn3 O37 1_555 1_555
Zn4 O37 1_555 1_555
O33 C112 1_555 1_555
C4 C5 1_555 1_555
C6 C7 1_555 1_555
C34 C35 1_555 1_555
C36 C37 1_555 1_555
C41 C45 1_555 1_555
C43 C44 1_555 1_555
C43 C53 1_555 1_555
C58 C59 1_555 1_555
C64 C65 1_555 1_555
C66 C67 1_555 1_555
C71 C75 1_555 1_555
C73 C74 1_555 1_555
C80 C81 1_555 1_555
C101 C105 1_555 1_555
C103 C104 1_555 1_555
C103 C113 1_555 1_555
C109 C112 1_555 1_555
C110 C111 1_555 1_555
O38 H73 1_555 1_555
O38 H74 1_555 1_555
O42 H75 1_555 1_555
O42 H76 1_555 1_555
O39 H77 1_555 1_555
O39 H78 1_555 1_555
Zn5 O24 1_555 1_555
Zn14 O23 1_555 1_555
Zn7 O29 1_555 1_555
Zn18 O40 1_555 1_555
O23 C82 1_555 1_555
O24 C82 1_555 1_555
O28 Zn5 1_555 1_555
O29 C91 1_555 1_555
O35 C120 1_555 1_555
O36 C120 1_555 1_555
O40 Zn5 1_555 1_555
O41 Zn5 1_555 1_555
C91 O28 1_555 1_555
C92 C91 1_555 1_555
C93 C92 1_555 1_555
H58 C93 1_555 1_555
C96 C95 1_555 1_555
H60 C96 1_555 1_555
C97 C92 1_555 1_555
H61 C97 1_555 1_555
C115 C114 1_555 1_555
H69 C115 1_555 1_555
C116 C115 1_555 1_555
H70 C116 1_555 1_555
C117 C116 1_555 1_555
C118 C117 1_555 1_555
H71 C118 1_555 1_555
C120 C117 1_555 1_555
Zn13 O36 1_555 1_555
Zn20 O35 1_555 1_555
O45 Zn18 1_555 1_555
O46 Zn7 1_555 1_555
O47 Zn7 1_555 1_555
O48 Zn14 1_555 1_555
O53 Zn18 1_555 1_555
O54 Zn5 1_555 1_555
Zn14 O40 1_555 1_555
Zn7 O40 1_555 1_555
C96 C97 1_555 1_555
O41 H79 1_555 1_555
O41 H80 1_555 1_555
Zn9 O2_2 1_555 1_555
O1_2 C1_2 1_555 1_555
O2_2 C1_2 1_555 1_555
O3_2 C8_2 1_555 1_555
O4_2 C15_2 1_555 1_555
O43 C22_2 1_555 1_555
O44 C22_2 1_555 1_555
O7_2 C23_2 1_555 1_555
O45 C30_2 1_555 1_555
O46 C30_2 1_555 1_555
O31_2 C105_2 1_555 1_555
O33_2 Zn9 1_555 1_555
O38_2 Zn9 1_555 1_555
O39_2 Zn9 1_555 1_555
N1_2 H1_2 1_555 1_555
N2_2 H2_2 1_555 1_555
N3_2 H3_2 1_555 1_555
N10_2 H10_2 1_555 1_555
N11_2 H11_2 1_555 1_555
C1_2 C2_2 1_555 1_555
C2_2 C3_2 1_555 1_555
C3_2 H13_2 1_555 1_555
C4_2 C3_2 1_555 1_555
H14_2 C4_2 1_555 1_555
C5_2 N1_2 1_555 1_555
C6_2 C5_2 1_555 1_555
H15_2 C6_2 1_555 1_555
C7_2 C2_2 1_555 1_555
H16_2 C7_2 1_555 1_555
C8_2 N1_2 1_555 1_555
C9_2 C8_2 1_555 1_555
C10_2 C9_2 1_555 1_555
H17_2 C10_2 1_555 1_555
C11_2 C10_2 1_555 1_555
C12_2 C11_2 1_555 1_555
H18_2 C12_2 1_555 1_555
C13_2 C12_2 1_555 1_555
C14_2 C9_2 1_555 1_555
H19_2 C14_2 1_555 1_555
C15_2 N2_2 1_555 1_555
C16_2 N2_2 1_555 1_555
C17_2 C16_2 1_555 1_555
H20_2 C17_2 1_555 1_555
C18_2 C17_2 1_555 1_555
H21_2 C18_2 1_555 1_555
C19_2 C18_2 1_555 1_555
C20_2 C19_2 1_555 1_555
H22_2 C20_2 1_555 1_555
C21_2 C16_2 1_555 1_555
H23_2 C21_2 1_555 1_555
C22_2 C19_2 1_555 1_555
C23_2 N3_2 1_555 1_555
C24_2 N3_2 1_555 1_555
C25_2 C24_2 1_555 1_555
H24_2 C25_2 1_555 1_555
C26_2 C25_2 1_555 1_555
H25_2 C26_2 1_555 1_555
C27_2 C26_2 1_555 1_555
C28_2 C27_2 1_555 1_555
H26_2 C28_2 1_555 1_555
C29_2 C24_2 1_555 1_555
H27_2 C29_2 1_555 1_555
C30_2 C27_2 1_555 1_555
H59_2 C94_2 1_555 1_555
H62_2 C100_2 1_555 1_555
C105_2 N11_2 1_555 1_555
C106_2 N11_2 1_555 1_555
C107_2 C106_2 1_555 1_555
H65_2 C107_2 1_555 1_555
C108_2 C107_2 1_555 1_555
H66_2 C108_2 1_555 1_555
C109_2 C108_2 1_555 1_555
C110_2 C109_2 1_555 1_555
H67_2 C110_2 1_555 1_555
C111_2 C106_2 1_555 1_555
H68_2 C111_2 1_555 1_555
C112_2 O32_2 1_555 1_555
Zn9 O37_2 1_555 1_555
O33_2 C112_2 1_555 1_555
C4_2 C5_2 1_555 1_555
C6_2 C7_2 1_555 1_555
C11_2 C15_2 1_555 1_555
C13_2 C14_2 1_555 1_555
C13_2 C23_2 1_555 1_555
C20_2 C21_2 1_555 1_555
C28_2 C29_2 1_555 1_555
C109_2 C112_2 1_555 1_555
C110_2 C111_2 1_555 1_555
O38_2 H73_2 1_555 1_555
O38_2 H74_2 1_555 1_555
O42_2 H75_2 1_555 1_555
O42_2 H76_2 1_555 1_555
O39_2 H77_2 1_555 1_555
O39_2 H78_2 1_555 1_555
Zn11 O11_2 1_555 1_555
Zn12 O20_2 1_555 1_555
O10_2 Zn1_2 1_555 1_555
O11_2 C31_2 1_555 1_555
O12_2 C38_2 1_555 1_555
O13_2 C45_2 1_555 1_555
O47 C52_2 1_555 1_555
O48 C52_2 1_555 1_555
O16_2 C53_2 1_555 1_555
O17_2 C60_2 1_555 1_555
O18_2 C60_2 1_555 1_555
O19_2 Zn1_2 1_555 1_555
O20_2 C61_2 1_555 1_555
O21_2 C68_2 1_555 1_555
O22_2 C75_2 1_555 1_555
O25_2 C83_2 1_555 1_555
O51 C90_2 1_555 1_555
O52 C90_2 1_555 1_555
N4_2 H4_2 1_555 1_555
N5_2 H5_2 1_555 1_555
N6_2 H6_2 1_555 1_555
N7_2 H7_2 1_555 1_555
N8_2 H8_2 1_555 1_555
N9_2 H9_2 1_555 1_555
C31_2 O10_2 1_555 1_555
C32_2 C31_2 1_555 1_555
C33_2 C32_2 1_555 1_555
H28_2 C33_2 1_555 1_555
C34_2 C33_2 1_555 1_555
H29_2 C34_2 1_555 1_555
C35_2 N4_2 1_555 1_555
C36_2 C35_2 1_555 1_555
H30_2 C36_2 1_555 1_555
C37_2 C32_2 1_555 1_555
H31_2 C37_2 1_555 1_555
C38_2 N4_2 1_555 1_555
C39_2 C38_2 1_555 1_555
C40_2 C39_2 1_555 1_555
H32_2 C40_2 1_555 1_555
C41_2 C40_2 1_555 1_555
C42_2 C41_2 1_555 1_555
H33_2 C42_2 1_555 1_555
C43_2 C42_2 1_555 1_555
C44_2 C39_2 1_555 1_555
H34_2 C44_2 1_555 1_555
C45_2 N5_2 1_555 1_555
C46_2 N5_2 1_555 1_555
C47_2 C46_2 1_555 1_555
H35_2 C47_2 1_555 1_555
C48_2 C47_2 1_555 1_555
H36_2 C48_2 1_555 1_555
C49_2 C48_2 1_555 1_555
C50_2 C49_2 1_555 1_555
H37_2 C50_2 1_555 1_555
C51_2 C46_2 1_555 1_555
H38_2 C51_2 1_555 1_555
C52_2 C49_2 1_555 1_555
C53_2 N6_2 1_555 1_555
C54_2 N6_2 1_555 1_555
C55_2 C54_2 1_555 1_555
H39_2 C55_2 1_555 1_555
C56_2 C55_2 1_555 1_555
H40_2 C56_2 1_555 1_555
C57_2 C56_2 1_555 1_555
C58_2 C57_2 1_555 1_555
H41_2 C58_2 1_555 1_555
C59_2 C54_2 1_555 1_555
H42_2 C59_2 1_555 1_555
C60_2 C57_2 1_555 1_555
C61_2 O19_2 1_555 1_555
C62_2 C61_2 1_555 1_555
C63_2 C62_2 1_555 1_555
H43_2 C63_2 1_555 1_555
C64_2 C63_2 1_555 1_555
H44_2 C64_2 1_555 1_555
C65_2 N7_2 1_555 1_555
C66_2 C65_2 1_555 1_555
H45_2 C66_2 1_555 1_555
C67_2 C62_2 1_555 1_555
H46_2 C67_2 1_555 1_555
C68_2 N7_2 1_555 1_555
C69_2 C68_2 1_555 1_555
C70_2 C69_2 1_555 1_555
H47_2 C70_2 1_555 1_555
C71_2 C70_2 1_555 1_555
C72_2 C71_2 1_555 1_555
H48_2 C72_2 1_555 1_555
C73_2 C72_2 1_555 1_555
C74_2 C69_2 1_555 1_555
H49_2 C74_2 1_555 1_555
C75_2 N8_2 1_555 1_555
C76_2 N8_2 1_555 1_555
C77_2 C76_2 1_555 1_555
H50_2 C77_2 1_555 1_555
C78_2 C77_2 1_555 1_555
H51_2 C78_2 1_555 1_555
C79_2 C78_2 1_555 1_555
C80_2 C79_2 1_555 1_555
C81_2 C76_2 1_555 1_555
H53_2 C81_2 1_555 1_555
C83_2 N9_2 1_555 1_555
C84_2 N9_2 1_555 1_555
C85_2 C84_2 1_555 1_555
H54_2 C85_2 1_555 1_555
C86_2 C85_2 1_555 1_555
H55_2 C86_2 1_555 1_555
C87_2 C86_2 1_555 1_555
C88_2 C87_2 1_555 1_555
H56_2 C88_2 1_555 1_555
C89_2 C84_2 1_555 1_555
H57_2 C89_2 1_555 1_555
C90_2 C87_2 1_555 1_555
Zn15 O17_2 1_555 1_555
C34_2 C35_2 1_555 1_555
C36_2 C37_2 1_555 1_555
C41_2 C45_2 1_555 1_555
C43_2 C44_2 1_555 1_555
C43_2 C53_2 1_555 1_555
C50_2 C51_2 1_555 1_555
C58_2 C59_2 1_555 1_555
C64_2 C65_2 1_555 1_555
C66_2 C67_2 1_555 1_555
C71_2 C75_2 1_555 1_555
C73_2 C74_2 1_555 1_555
C73_2 C83_2 1_555 1_555
C80_2 C81_2 1_555 1_555
C88_2 C89_2 1_555 1_555
O28_2 Zn13 1_555 1_555
O29_2 C91_2 1_555 1_555
C91_2 O28_2 1_555 1_555
C92_2 C91_2 1_555 1_555
C93_2 C92_2 1_555 1_555
H58_2 C93_2 1_555 1_555
C96_2 C95_2 1_555 1_555
H60_2 C96_2 1_555 1_555
C97_2 C92_2 1_555 1_555
H61_2 C97_2 1_555 1_555
C96_2 C97_2 1_555 1_555
O53 C120_2 1_555 1_555
O54 C120_2 1_555 1_555
C115_2 C114_2 1_555 1_555
H69_2 C115_2 1_555 1_555
C116_2 C115_2 1_555 1_555
H70_2 C116_2 1_555 1_555
C117_2 C116_2 1_555 1_555
C118_2 C117_2 1_555 1_555
H71_2 C118_2 1_555 1_555
C120_2 C117_2 1_555 1_555
Zn15 O23_2 1_555 1_555
O23_2 C82_2 1_555 1_555
O24_2 C82_2 1_555 1_555
Zn15 O40_2 1_555 1_555
Zn17 O40_2 1_555 1_555
O41_2 H79_2 1_555 1_555
O41_2 H80_2 1_555 1_555
Zn6 O23_3 1_555 1_555
O23_3 C82_3 1_555 1_555
O24_3 C82_3 1_555 1_555
O47_2 Zn7_2 1_555 1_555
O48_2 Zn6 1_555 1_555
O49 Zn6 1_555 1_555
Zn6 O40_3 1_555 1_555
Zn7_2 O40_3 1_555 1_555
O41_3 H79_3 1_555 1_555
O41_3 H80_3 1_555 1_555
O35_2 C120_3 1_555 1_555
O36_2 C120_3 1_555 1_555
C115_3 C114_3 1_555 1_555
H69_3 C115_3 1_555 1_555
C116_3 C115_3 1_555 1_555
H70_3 C116_3 1_555 1_555
C117_3 C116_3 1_555 1_555
C118_3 C117_3 1_555 1_555
H71_3 C118_3 1_555 1_555
C120_3 C117_3 1_555 1_555
Zn13_2 O36_2 1_555 1_555
Zn19 O35_2 1_555 1_555
O28_3 Zn5_2 1_555 1_555
O29_3 C91_3 1_555 1_555
C91_3 O28_3 1_555 1_555
C92_3 C91_3 1_555 1_555
C93_3 C92_3 1_555 1_555
H58_3 C93_3 1_555 1_555
C96_3 C95_3 1_555 1_555
H60_3 C96_3 1_555 1_555
C97_3 C92_3 1_555 1_555
H61_3 C97_3 1_555 1_555
O45_2 Zn8 1_555 1_555
O53_2 Zn8 1_555 1_555
O54_2 Zn5_2 1_555 1_555
C96_3 C97_3 1_555 1_555
Zn3_2 O11_3 1_555 1_555
Zn4_2 O20_3 1_555 1_555
O10_3 Zn1_3 1_555 1_555
O11_3 C31_3 1_555 1_555
O12_3 C38_3 1_555 1_555
O13_3 C45_3 1_555 1_555
O14_2 C52_3 1_555 1_555
O15_2 C52_3 1_555 1_555
O16_3 C53_3 1_555 1_555
O49 C60_3 1_555 1_555
O50 C60_3 1_555 1_555
O19_3 Zn1_3 1_555 1_555
O20_3 C61_3 1_555 1_555
O21_3 C68_3 1_555 1_555
O22_3 C75_3 1_555 1_555
O25_3 C83_3 1_555 1_555
O26_2 C90_3 1_555 1_555
O27_2 C90_3 1_555 1_555
N4_3 H4_3 1_555 1_555
N5_3 H5_3 1_555 1_555
N6_3 H6_3 1_555 1_555
N7_3 H7_3 1_555 1_555
N8_3 H8_3 1_555 1_555
N9_3 H9_3 1_555 1_555
C31_3 O10_3 1_555 1_555
C32_3 C31_3 1_555 1_555
C33_3 C32_3 1_555 1_555
H28_3 C33_3 1_555 1_555
C34_3 C33_3 1_555 1_555
H29_3 C34_3 1_555 1_555
C35_3 N4_3 1_555 1_555
C36_3 C35_3 1_555 1_555
H30_3 C36_3 1_555 1_555
C37_3 C32_3 1_555 1_555
H31_3 C37_3 1_555 1_555
C38_3 N4_3 1_555 1_555
C39_3 C38_3 1_555 1_555
C40_3 C39_3 1_555 1_555
H32_3 C40_3 1_555 1_555
C41_3 C40_3 1_555 1_555
C42_3 C41_3 1_555 1_555
H33_3 C42_3 1_555 1_555
C43_3 C42_3 1_555 1_555
C44_3 C39_3 1_555 1_555
H34_3 C44_3 1_555 1_555
C45_3 N5_3 1_555 1_555
C46_3 N5_3 1_555 1_555
C47_3 C46_3 1_555 1_555
H35_3 C47_3 1_555 1_555
C48_3 C47_3 1_555 1_555
H36_3 C48_3 1_555 1_555
C49_3 C48_3 1_555 1_555
C50_3 C49_3 1_555 1_555
H37_3 C50_3 1_555 1_555
C51_3 C46_3 1_555 1_555
H38_3 C51_3 1_555 1_555
C52_3 C49_3 1_555 1_555
C53_3 N6_3 1_555 1_555
C54_3 N6_3 1_555 1_555
C55_3 C54_3 1_555 1_555
H39_3 C55_3 1_555 1_555
C56_3 C55_3 1_555 1_555
H40_3 C56_3 1_555 1_555
C57_3 C56_3 1_555 1_555
C58_3 C57_3 1_555 1_555
H41_3 C58_3 1_555 1_555
C59_3 C54_3 1_555 1_555
H42_3 C59_3 1_555 1_555
C60_3 C57_3 1_555 1_555
C61_3 O19_3 1_555 1_555
C62_3 C61_3 1_555 1_555
C63_3 C62_3 1_555 1_555
H43_3 C63_3 1_555 1_555
C64_3 C63_3 1_555 1_555
H44_3 C64_3 1_555 1_555
C65_3 N7_3 1_555 1_555
C66_3 C65_3 1_555 1_555
H45_3 C66_3 1_555 1_555
C67_3 C62_3 1_555 1_555
H46_3 C67_3 1_555 1_555
C68_3 N7_3 1_555 1_555
C69_3 C68_3 1_555 1_555
C70_3 C69_3 1_555 1_555
H47_3 C70_3 1_555 1_555
C71_3 C70_3 1_555 1_555
C72_3 C71_3 1_555 1_555
H48_3 C72_3 1_555 1_555
C73_3 C72_3 1_555 1_555
C74_3 C69_3 1_555 1_555
H49_3 C74_3 1_555 1_555
C75_3 N8_3 1_555 1_555
C76_3 N8_3 1_555 1_555
C77_3 C76_3 1_555 1_555
H50_3 C77_3 1_555 1_555
C78_3 C77_3 1_555 1_555
H51_3 C78_3 1_555 1_555
C79_3 C78_3 1_555 1_555
C80_3 C79_3 1_555 1_555
C81_3 C76_3 1_555 1_555
H53_3 C81_3 1_555 1_555
C83_3 N9_3 1_555 1_555
C84_3 N9_3 1_555 1_555
C85_3 C84_3 1_555 1_555
H54_3 C85_3 1_555 1_555
C86_3 C85_3 1_555 1_555
H55_3 C86_3 1_555 1_555
C87_3 C86_3 1_555 1_555
C88_3 C87_3 1_555 1_555
H56_3 C88_3 1_555 1_555
C89_3 C84_3 1_555 1_555
H57_3 C89_3 1_555 1_555
C90_3 C87_3 1_555 1_555
Zn11_2 O27_2 1_555 1_555
Zn12_2 O26_2 1_555 1_555
Zn15_2 O15_2 1_555 1_555
Zn17_2 O14_2 1_555 1_555
O51_2 Zn4_2 1_555 1_555
O52_2 Zn3_2 1_555 1_555
C34_3 C35_3 1_555 1_555
C36_3 C37_3 1_555 1_555
C41_3 C45_3 1_555 1_555
C43_3 C44_3 1_555 1_555
C43_3 C53_3 1_555 1_555
C50_3 C51_3 1_555 1_555
C58_3 C59_3 1_555 1_555
C64_3 C65_3 1_555 1_555
C66_3 C67_3 1_555 1_555
C71_3 C75_3 1_555 1_555
C73_3 C74_3 1_555 1_555
C73_3 C83_3 1_555 1_555
C80_3 C81_3 1_555 1_555
C88_3 C89_3 1_555 1_555
Zn2_2 O2_3 1_555 1_555
O1_3 C1_3 1_555 1_555
O2_3 C1_3 1_555 1_555
O3_3 C8_3 1_555 1_555
O4_3 C15_3 1_555 1_555
O5_2 C22_3 1_555 1_555
O6_2 C22_3 1_555 1_555
O7_3 C23_3 1_555 1_555
O8_2 C30_3 1_555 1_555
O9_2 C30_3 1_555 1_555
O31_3 C105_3 1_555 1_555
O33_3 Zn2_2 1_555 1_555
O38_3 Zn2_2 1_555 1_555
O39_3 Zn2_2 1_555 1_555
N1_3 H1_3 1_555 1_555
N2_3 H2_3 1_555 1_555
N3_3 H3_3 1_555 1_555
N10_3 H10_3 1_555 1_555
N11_3 H11_3 1_555 1_555
C1_3 C2_3 1_555 1_555
C2_3 C3_3 1_555 1_555
C3_3 H13_3 1_555 1_555
C4_3 C3_3 1_555 1_555
H14_3 C4_3 1_555 1_555
C5_3 N1_3 1_555 1_555
C6_3 C5_3 1_555 1_555
H15_3 C6_3 1_555 1_555
C7_3 C2_3 1_555 1_555
H16_3 C7_3 1_555 1_555
C8_3 N1_3 1_555 1_555
C9_3 C8_3 1_555 1_555
C10_3 C9_3 1_555 1_555
H17_3 C10_3 1_555 1_555
C11_3 C10_3 1_555 1_555
C12_3 C11_3 1_555 1_555
H18_3 C12_3 1_555 1_555
C13_3 C12_3 1_555 1_555
C14_3 C9_3 1_555 1_555
H19_3 C14_3 1_555 1_555
C15_3 N2_3 1_555 1_555
C16_3 N2_3 1_555 1_555
C17_3 C16_3 1_555 1_555
H20_3 C17_3 1_555 1_555
C18_3 C17_3 1_555 1_555
H21_3 C18_3 1_555 1_555
C19_3 C18_3 1_555 1_555
C20_3 C19_3 1_555 1_555
H22_3 C20_3 1_555 1_555
C21_3 C16_3 1_555 1_555
H23_3 C21_3 1_555 1_555
C22_3 C19_3 1_555 1_555
C23_3 N3_3 1_555 1_555
C24_3 N3_3 1_555 1_555
C25_3 C24_3 1_555 1_555
H24_3 C25_3 1_555 1_555
C26_3 C25_3 1_555 1_555
H25_3 C26_3 1_555 1_555
C27_3 C26_3 1_555 1_555
C28_3 C27_3 1_555 1_555
H26_3 C28_3 1_555 1_555
C29_3 C24_3 1_555 1_555
H27_3 C29_3 1_555 1_555
C30_3 C27_3 1_555 1_555
H59_3 C94_3 1_555 1_555
H62_3 C100_3 1_555 1_555
C105_3 N11_3 1_555 1_555
C106_3 N11_3 1_555 1_555
C107_3 C106_3 1_555 1_555
H65_3 C107_3 1_555 1_555
C108_3 C107_3 1_555 1_555
H66_3 C108_3 1_555 1_555
C109_3 C108_3 1_555 1_555
C110_3 C109_3 1_555 1_555
H67_3 C110_3 1_555 1_555
C111_3 C106_3 1_555 1_555
H68_3 C111_3 1_555 1_555
C112_3 O32_3 1_555 1_555
Zn9_2 O6_2 1_555 1_555
Zn11_2 O5_2 1_555 1_555
Zn17_2 O9_2 1_555 1_555
Zn19 O8_2 1_555 1_555
O44_2 Zn2_2 1_555 1_555
Zn2_2 O37_3 1_555 1_555
O33_3 C112_3 1_555 1_555
C4_3 C5_3 1_555 1_555
C6_3 C7_3 1_555 1_555
C11_3 C15_3 1_555 1_555
C13_3 C14_3 1_555 1_555
C13_3 C23_3 1_555 1_555
C20_3 C21_3 1_555 1_555
C28_3 C29_3 1_555 1_555
C109_3 C112_3 1_555 1_555
C110_3 C111_3 1_555 1_555
O38_3 H73_3 1_555 1_555
O38_3 H74_3 1_555 1_555
O42_3 H75_3 1_555 1_555
O42_3 H76_3 1_555 1_555
O39_3 H77_3 1_555 1_555
O39_3 H78_3 1_555 1_555
Zn13_2 O24_4 1_555 1_555
Zn15_2 O23_4 1_555 1_555
Zn17_2 O29_4 1_555 1_555
Zn19 O40_4 1_555 1_555
O23_4 C82_4 1_555 1_555
O24_4 C82_4 1_555 1_555
O28_4 Zn13_2 1_555 1_555
O29_4 C91_4 1_555 1_555
O53_2 C120_4 1_555 1_555
O54_2 C120_4 1_555 1_555
O40_4 Zn13_2 1_555 1_555
O41_4 Zn13_2 1_555 1_555
C91_4 O28_4 1_555 1_555
C92_4 C91_4 1_555 1_555
C93_4 C92_4 1_555 1_555
H58_4 C93_4 1_555 1_555
C96_4 C95_4 1_555 1_555
H60_4 C96_4 1_555 1_555
C97_4 C92_4 1_555 1_555
H61_4 C97_4 1_555 1_555
C115_4 C114_4 1_555 1_555
H69_4 C115_4 1_555 1_555
C116_4 C115_4 1_555 1_555
H70_4 C116_4 1_555 1_555
C117_4 C116_4 1_555 1_555
C118_4 C117_4 1_555 1_555
H71_4 C118_4 1_555 1_555
C120_4 C117_4 1_555 1_555
O49_2 Zn15_2 1_555 1_555
O50_2 Zn19 1_555 1_555
Zn15_2 O40_4 1_555 1_555
Zn17_2 O40_4 1_555 1_555
C96_4 C97_4 1_555 1_555
O41_4 H79_4 1_555 1_555
O41_4 H80_4 1_555 1_555
Zn1_4 O1_4 1_555 1_555
Zn9_2 O2_4 1_555 1_555
Zn11_2 O11_4 1_555 1_555
Zn12_2 O20_4 1_555 1_555
O1_4 C1_4 1_555 1_555
O2_4 C1_4 1_555 1_555
O3_4 C8_4 1_555 1_555
O10_4 Zn1_4 1_555 1_555
O11_4 C31_4 1_555 1_555
O12_4 C38_4 1_555 1_555
O13_4 C45_4 1_555 1_555
O16_4 C53_4 1_555 1_555
O49_2 C60_4 1_555 1_555
O50_2 C60_4 1_555 1_555
O19_4 Zn1_4 1_555 1_555
O20_4 C61_4 1_555 1_555
O21_4 C68_4 1_555 1_555
O22_4 C75_4 1_555 1_555
O31_4 C105_4 1_555 1_555
O32_4 Zn12_2 1_555 1_555
O33_4 Zn9_2 1_555 1_555
O34_2 C113_2 1_555 1_555
O37_4 Zn1_4 1_555 1_555
O38_4 Zn9_2 1_555 1_555
O39_4 Zn9_2 1_555 1_555
N1_4 H1_4 1_555 1_555
N4_4 H4_4 1_555 1_555
N6_4 H6_4 1_555 1_555
N7_4 H7_4 1_555 1_555
N8_4 H8_4 1_555 1_555
N10_4 H10_4 1_555 1_555
N11_4 H11_4 1_555 1_555
N12_2 H12_2 1_555 1_555
C1_4 C2_4 1_555 1_555
C2_4 C3_4 1_555 1_555
C3_4 H13_4 1_555 1_555
C4_4 C3_4 1_555 1_555
H14_4 C4_4 1_555 1_555
C5_4 N1_4 1_555 1_555
C6_4 C5_4 1_555 1_555
H15_4 C6_4 1_555 1_555
C7_4 C2_4 1_555 1_555
H16_4 C7_4 1_555 1_555
C8_4 N1_4 1_555 1_555
C9_4 C8_4 1_555 1_555
C10_4 C9_4 1_555 1_555
H17_4 C10_4 1_555 1_555
C14_4 C9_4 1_555 1_555
H19_4 C14_4 1_555 1_555
C31_4 O10_4 1_555 1_555
C32_4 C31_4 1_555 1_555
C33_4 C32_4 1_555 1_555
H28_4 C33_4 1_555 1_555
C34_4 C33_4 1_555 1_555
H29_4 C34_4 1_555 1_555
C35_4 N4_4 1_555 1_555
C36_4 C35_4 1_555 1_555
H30_4 C36_4 1_555 1_555
C37_4 C32_4 1_555 1_555
H31_4 C37_4 1_555 1_555
C38_4 N4_4 1_555 1_555
C39_4 C38_4 1_555 1_555
C40_4 C39_4 1_555 1_555
H32_4 C40_4 1_555 1_555
C41_4 C40_4 1_555 1_555
C42_4 C41_4 1_555 1_555
H33_4 C42_4 1_555 1_555
C43_4 C42_4 1_555 1_555
C44_4 C39_4 1_555 1_555
H34_4 C44_4 1_555 1_555
C53_4 N6_4 1_555 1_555
C54_4 N6_4 1_555 1_555
C55_4 C54_4 1_555 1_555
H39_4 C55_4 1_555 1_555
C56_4 C55_4 1_555 1_555
H40_4 C56_4 1_555 1_555
C57_4 C56_4 1_555 1_555
C58_4 C57_4 1_555 1_555
H41_4 C58_4 1_555 1_555
C59_4 C54_4 1_555 1_555
H42_4 C59_4 1_555 1_555
C60_4 C57_4 1_555 1_555
C61_4 O19_4 1_555 1_555
C62_4 C61_4 1_555 1_555
C63_4 C62_4 1_555 1_555
H43_4 C63_4 1_555 1_555
C64_4 C63_4 1_555 1_555
H44_4 C64_4 1_555 1_555
C65_4 N7_4 1_555 1_555
C66_4 C65_4 1_555 1_555
H45_4 C66_4 1_555 1_555
C67_4 C62_4 1_555 1_555
H46_4 C67_4 1_555 1_555
C68_4 N7_4 1_555 1_555
C69_4 C68_4 1_555 1_555
C70_4 C69_4 1_555 1_555
H47_4 C70_4 1_555 1_555
C71_4 C70_4 1_555 1_555
C72_4 C71_4 1_555 1_555
H48_4 C72_4 1_555 1_555
C73_4 C72_4 1_555 1_555
C74_4 C69_4 1_555 1_555
C75_4 N8_4 1_555 1_555
C76_4 N8_4 1_555 1_555
C77_4 C76_4 1_555 1_555
H50_4 C77_4 1_555 1_555
C78_4 C77_4 1_555 1_555
H51_4 C78_4 1_555 1_555
C79_4 C78_4 1_555 1_555
C80_4 C79_4 1_555 1_555
C81_4 C76_4 1_555 1_555
H53_4 C81_4 1_555 1_555
H59_4 C94_4 1_555 1_555
C98_2 N10_4 1_555 1_555
C99_2 C98_2 1_555 1_555
C100_4 C99_2 1_555 1_555
H62_4 C100_4 1_555 1_555
C101_2 C100_4 1_555 1_555
C102_2 C101_2 1_555 1_555
H63_2 C102_2 1_555 1_555
C103_2 C102_2 1_555 1_555
C104_2 C99_2 1_555 1_555
H64_2 C104_2 1_555 1_555
C105_4 N11_4 1_555 1_555
C106_4 N11_4 1_555 1_555
C107_4 C106_4 1_555 1_555
H65_4 C107_4 1_555 1_555
C108_4 C107_4 1_555 1_555
H66_4 C108_4 1_555 1_555
C109_4 C108_4 1_555 1_555
C110_4 C109_4 1_555 1_555
H67_4 C110_4 1_555 1_555
C111_4 C106_4 1_555 1_555
H68_4 C111_4 1_555 1_555
C112_4 O32_4 1_555 1_555
C113_2 N12_2 1_555 1_555
H72_2 C119_2 1_555 1_555
Zn9_2 O37_4 1_555 1_555
Zn11_2 O37_4 1_555 1_555
Zn12_2 O37_4 1_555 1_555
O33_4 C112_4 1_555 1_555
C4_4 C5_4 1_555 1_555
C6_4 C7_4 1_555 1_555
C34_4 C35_4 1_555 1_555
C36_4 C37_4 1_555 1_555
C41_4 C45_4 1_555 1_555
C43_4 C44_4 1_555 1_555
C43_4 C53_4 1_555 1_555
C58_4 C59_4 1_555 1_555
C64_4 C65_4 1_555 1_555
C66_4 C67_4 1_555 1_555
C71_4 C75_4 1_555 1_555
C73_4 C74_4 1_555 1_555
C80_4 C81_4 1_555 1_555
C101_2 C105_4 1_555 1_555
C103_2 C104_2 1_555 1_555
C103_2 C113_2 1_555 1_555
C109_4 C112_4 1_555 1_555
C110_4 C111_4 1_555 1_555
O38_4 H73_4 1_555 1_555
O38_4 H74_4 1_555 1_555
O42_4 H75_4 1_555 1_555
O42_4 H76_4 1_555 1_555
O39_4 H77_4 1_555 1_555
O39_4 H78_4 1_555 1_555
O4_4 C15_4 1_555 1_555
O43_2 C22_4 1_555 1_555
O44_2 C22_4 1_555 1_555
O45_2 C30_4 1_555 1_555
O46_2 C30_4 1_555 1_555
O47_2 C52_4 1_555 1_555
O48_2 C52_4 1_555 1_555
O25_4 C83_4 1_555 1_555
O51_2 C90_4 1_555 1_555
O52_2 C90_4 1_555 1_555
N2_4 H2_4 1_555 1_555
N3_4 H3_4 1_555 1_555
N5_4 H5_4 1_555 1_555
N9_4 H9_4 1_555 1_555
C12_4 C11_4 1_555 1_555
H18_4 C12_4 1_555 1_555
C13_4 C12_4 1_555 1_555
C15_4 N2_4 1_555 1_555
C16_4 N2_4 1_555 1_555
C17_4 C16_4 1_555 1_555
H20_4 C17_4 1_555 1_555
C18_4 C17_4 1_555 1_555
H21_4 C18_4 1_555 1_555
C19_4 C18_4 1_555 1_555
C20_4 C19_4 1_555 1_555
H22_4 C20_4 1_555 1_555
C21_4 C16_4 1_555 1_555
H23_4 C21_4 1_555 1_555
C22_4 C19_4 1_555 1_555
C23_4 N3_4 1_555 1_555
C24_4 N3_4 1_555 1_555
C25_4 C24_4 1_555 1_555
H24_4 C25_4 1_555 1_555
C26_4 C25_4 1_555 1_555
H25_4 C26_4 1_555 1_555
C27_4 C26_4 1_555 1_555
C28_4 C27_4 1_555 1_555
H26_4 C28_4 1_555 1_555
C29_4 C24_4 1_555 1_555
H27_4 C29_4 1_555 1_555
C30_4 C27_4 1_555 1_555
C46_4 N5_4 1_555 1_555
C47_4 C46_4 1_555 1_555
H35_4 C47_4 1_555 1_555
C48_4 C47_4 1_555 1_555
H36_4 C48_4 1_555 1_555
C49_4 C48_4 1_555 1_555
C50_4 C49_4 1_555 1_555
H37_4 C50_4 1_555 1_555
C51_4 C46_4 1_555 1_555
H38_4 C51_4 1_555 1_555
C52_4 C49_4 1_555 1_555
C83_4 N9_4 1_555 1_555
C84_4 N9_4 1_555 1_555
C85_4 C84_4 1_555 1_555
H54_4 C85_4 1_555 1_555
C86_4 C85_4 1_555 1_555
H55_4 C86_4 1_555 1_555
C87_4 C86_4 1_555 1_555
C88_4 C87_4 1_555 1_555
H56_4 C88_4 1_555 1_555
C89_4 C84_4 1_555 1_555
H57_4 C89_4 1_555 1_555
C90_4 C87_4 1_555 1_555
C11_4 C15_4 1_555 1_555
C13_4 C23_4 1_555 1_555
C20_4 C21_4 1_555 1_555
C28_4 C29_4 1_555 1_555
C50_4 C51_4 1_555 1_555
C88_4 C89_4 1_555 1_555
O34_3 C113_3 1_555 1_555
N12_3 H12_3 1_555 1_555
C99_3 C98_3 1_555 1_555
C102_3 C101_3 1_555 1_555
H63_3 C102_3 1_555 1_555
C103_3 C102_3 1_555 1_555
C104_3 C99_3 1_555 1_555
H64_3 C104_3 1_555 1_555
C113_3 N12_3 1_555 1_555
H72_3 C119_3 1_555 1_555
C103_3 C104_3 1_555 1_555
C103_3 C113_3 1_555 1_555
O34_4 C113_4 1_555 1_555
N12_4 H12_4 1_555 1_555
C99_4 C98_4 1_555 1_555
C102_4 C101_4 1_555 1_555
H63_4 C102_4 1_555 1_555
C103_4 C102_4 1_555 1_555
C104_4 C99_4 1_555 1_555
H64_4 C104_4 1_555 1_555
C113_4 N12_4 1_555 1_555
H72_4 C119_4 1_555 1_555
C103_4 C104_4 1_555 1_555
C103_4 C113_4 1_555 1_555

#END
