
###############################################################################
#
# This file contains modified crystal structure data generated from the
# MOF subset of the Cambridge Structural Database (CSD) v543 
# hosted by the Cambridge Crystallographic Data Centre (CCDC).
#
# This work is licensed under the Creative Commons
# Attribution-NonCommercial-ShareAlike 4.0 International License.
# To view a copy of this license, visit
# http://creativecommons.org/licenses/by-nc-sa/4.0/
# or send a letter to
# Creative Commons, PO Box 1866, Mountain View, CA 94042, USA.
#
# CIF created using the CSD Python API on 29 September 2022
# The structure has been converted into the P1 space group
# The structure has a 3D framework
# The original CSD entry OWEHEG is in the orthorhombic crystal system
# The framework has been calculated to contain at least 10.0% void space
# The void calculation uses a probe of radius 1.32A, grid spacing 0.4
#
###############################################################################

data_OWEHEG
_chemical_formula_moiety         '(C352 H192 N64 O64 S32 Zn16)n'
_symmetry_cell_setting           triclinic
_symmetry_space_group_name_H-M   'P 1'
_symmetry_Int_Tables_number      1
_space_group_name_Hall           'P 1'
loop_
_symmetry_equiv_pos_site_id
_symmetry_equiv_pos_as_xyz
1 x,y,z
_cell_length_a                   17.183(3)
_cell_length_b                   34.925(7)
_cell_length_c                   17.139(3)
_cell_angle_alpha                90
_cell_angle_beta                 90
_cell_angle_gamma                90
_cell_volume                     10285.4
loop_
_atom_site_label
_atom_site_type_symbol
_atom_site_fract_x
_atom_site_fract_y
_atom_site_fract_z
S1 S 0.04242(15) 0.43624(11) 0.56295(19)
S2 S 0.19276(14) 0.37252(9) 0.69740(17)
N2 N 0.0326(5) 0.3858(3) 0.6770(5)
N3 N 0.2043(5) 0.4227(3) 0.5845(5)
N4 N 0.4917(4) 0.3994(2) 0.6222(6)
C23 C 0.1083(5) 0.3922(3) 0.6591(6)
C24 C 0.1261(5) 0.4172(4) 0.6016(6)
C25 C 0.2445(5) 0.4009(3) 0.6310(7)
C26 C 0.3309(5) 0.3992(3) 0.6276(7)
C27 C 0.3726(5) 0.3755(3) 0.6766(6)
H13 H 0.3470 0.3588 0.7121
C28 C 0.4538(6) 0.3768(3) 0.6720(6)
H14 H 0.4832 0.3609 0.7059
C29 C 0.4502(6) 0.4215(4) 0.5744(7)
H15 H 0.4769 0.4367 0.5370
C30 C 0.3698(5) 0.4233(4) 0.5769(7)
H16 H 0.3420 0.4406 0.5444
Zn3 Zn 0.61621(6) 0.40295(3) 0.62574(7)
Zn2 Zn 0.68432(6) 0.33731(3) 0.45026(7)
S3 S 0.26162(14) 0.37445(9) 0.39814(18)
S4 S 0.10937(14) 0.30741(9) 0.52339(17)
O1 O 0.6199(4) 0.3470(2) 0.6582(4)
O2 O 0.6874(4) 0.3194(3) 0.5622(4)
O3 O 0.7982(4) 0.2195(2) 0.9122(4)
O4 O 0.8077(4) 0.1763(3) 0.8178(5)
O5 O 0.6116(4) 0.4222(2) 0.5137(4)
O6 O 0.6858(4) 0.3933(2) 0.4233(4)
O7 O 0.6126(4) 0.5820(2) 0.2622(5)
O8 O 0.6139(4) 0.5407(2) 0.1653(4)
N1 N 0.7428(4) 0.4064(2) 0.6307(6)
N5 N 0.5599(4) 0.3356(2) 0.4474(5)
N6 N 0.2710(4) 0.3183(3) 0.5008(5)
N7 N 0.1005(5) 0.3630(3) 0.4206(6)
C1 C 0.6616(5) 0.3211(3) 0.6302(6)
C2 C 0.6901(6) 0.2906(3) 0.6819(6)
C3 C 0.6840(6) 0.2953(3) 0.7641(6)
H1 H 0.6573 0.3169 0.7847
C4 C 0.7168(6) 0.2688(3) 0.8145(6)
H2 H 0.7129 0.2723 0.8693
C5 C 0.7557(6) 0.2369(3) 0.7846(6)
C6 C 0.7612(6) 0.2314(3) 0.7035(6)
H3 H 0.7862 0.2094 0.6828
C7 C 0.7297(6) 0.2586(3) 0.6545(6)
H4 H 0.7352 0.2553 0.5998
C8 C 0.7910(6) 0.2092(4) 0.8411(7)
C9 C 0.6462(5) 0.4213(3) 0.4478(6)
C10 C 0.6385(5) 0.4544(3) 0.3971(6)
C11 C 0.6087(6) 0.4892(3) 0.4227(6)
H5 H 0.5921 0.4918 0.4753
C12 C 0.6031(6) 0.5198(3) 0.3728(6)
H6 H 0.5869 0.5439 0.3923
C13 C 0.6211(6) 0.5158(3) 0.2935(6)
C14 C 0.6481(8) 0.4810(4) 0.2669(7)
H7 H 0.6607 0.4778 0.2134
C15 C 0.6568(8) 0.4512(4) 0.3172(6)
H8 H 0.6758 0.4274 0.2979
C16 C 0.6147(5) 0.5480(4) 0.2390(7)
C17 C 0.7845(5) 0.3844(3) 0.6802(6)
H9 H 0.7574 0.3683 0.7157
C18 C 0.8647(6) 0.3843(4) 0.6815(7)
H10 H 0.8919 0.3683 0.7172
C19 C 0.9051(5) 0.4076(3) 0.6304(7)
C20 C 0.8617(6) 0.4312(4) 0.5807(6)
H11 H 0.8871 0.4481 0.5456
C21 C 0.7816(6) 0.4294(3) 0.5833(6)
H12 H 0.7527 0.4455 0.5494
C22 C 0.9903(5) 0.4074(3) 0.6284(7)
C31 C 0.5204(5) 0.3584(3) 0.3994(6)
H17 H 0.5490 0.3738 0.3637
C32 C 0.4405(5) 0.3611(3) 0.3983(6)
H18 H 0.4147 0.3773 0.3622
C33 C 0.3982(5) 0.3391(3) 0.4521(7)
C34 C 0.4391(6) 0.3148(3) 0.5012(6)
H19 H 0.4122 0.2991 0.5375
C35 C 0.5179(5) 0.3137(3) 0.4970(5)
H20 H 0.5450 0.2966 0.5306
C36 C 0.3122(5) 0.3412(3) 0.4559(7)
C37 C 0.1948(6) 0.3267(3) 0.4880(6)
C38 C 0.1766(5) 0.3553(3) 0.4343(6)
C39 C 0.0584(5) 0.3399(3) 0.4637(6)
Zn4 Zn 0.61621(6) 0.59705(3) 0.12574(7)
Zn6 Zn 0.81568(6) 0.16269(3) 0.95026(7)
O9 O 0.7018(4) 0.2805(2) 0.4122(4)
O10 O 0.6923(4) 0.3237(3) 0.3178(5)
O11 O 0.6126(4) 0.4180(2) 0.7622(5)
O12 O 0.6139(4) 0.4593(2) 0.6653(4)
N10 N 0.8108(4) 0.3407(3) 0.4565(7)
C40 C 0.9725(5) 0.3400(3) 0.4623(6)
C41 C 0.9326(6) 0.3673(3) 0.4188(7)
H21 H 0.9604 0.3860 0.3898
C42 C 0.8532(6) 0.3670(3) 0.4184(7)
H22 H 0.8266 0.3862 0.3897
C43 C 0.8497(6) 0.3142(3) 0.4983(7)
H23 H 0.8206 0.2956 0.5263
C44 C 0.9302(6) 0.3127(4) 0.5025(6)
H24 H 0.9557 0.2935 0.5321
S1_2 S 0.04242(15) 0.56376(11) 0.06295(19)
S2_2 S 0.19276(14) 0.62748(9) 0.19740(17)
N2_2 N 0.0326(5) 0.6142(3) 0.1770(5)
N3_2 N 0.2043(5) 0.5773(3) 0.0845(5)
N4_2 N 0.4917(4) 0.6006(2) 0.1222(6)
C23_2 C 0.1083(5) 0.6078(3) 0.1591(6)
C24_2 C 0.1261(5) 0.5828(4) 0.1016(6)
C25_2 C 0.2445(5) 0.5991(3) 0.1310(7)
C26_2 C 0.3309(5) 0.6008(3) 0.1276(7)
C27_2 C 0.3726(5) 0.6245(3) 0.1766(6)
H13_2 H 0.3470 0.6412 0.2121
C28_2 C 0.4538(6) 0.6232(3) 0.1720(6)
H14_2 H 0.4832 0.6391 0.2059
C29_2 C 0.4502(6) 0.5785(4) 0.0744(7)
H15_2 H 0.4769 0.5633 0.0370
C30_2 C 0.3698(5) 0.5767(4) 0.0769(7)
H16_2 H 0.3420 0.5594 0.0444
S4_2 S 0.10937(14) 0.69259(9) 0.02339(17)
O1_2 O 0.6199(4) 0.6530(2) 0.1582(4)
O2_2 O 0.6874(4) 0.6806(3) 0.0622(4)
O3_2 O 0.7982(4) 0.7805(2) 0.4122(4)
O4_2 O 0.8077(4) 0.8237(3) 0.3178(5)
O5_2 O 0.6116(4) 0.5778(2) 0.0137(4)
N1_2 N 0.7428(4) 0.5936(2) 0.1307(6)
N6_2 N 0.2710(4) 0.6817(3) 0.0008(5)
C1_2 C 0.6616(5) 0.6789(3) 0.1302(6)
C2_2 C 0.6901(6) 0.7094(3) 0.1819(6)
C3_2 C 0.6840(6) 0.7047(3) 0.2641(6)
H1_2 H 0.6573 0.6831 0.2847
C4_2 C 0.7168(6) 0.7312(3) 0.3145(6)
H2_2 H 0.7129 0.7277 0.3693
C5_2 C 0.7557(6) 0.7631(3) 0.2846(6)
C6_2 C 0.7612(6) 0.7686(3) 0.2035(6)
H3_2 H 0.7862 0.7906 0.1828
C7_2 C 0.7297(6) 0.7414(3) 0.1545(6)
H4_2 H 0.7352 0.7447 0.0998
C8_2 C 0.7910(6) 0.7908(4) 0.3411(7)
C17_2 C 0.7845(5) 0.6156(3) 0.1802(6)
H9_2 H 0.7574 0.6317 0.2157
C18_2 C 0.8647(6) 0.6157(4) 0.1815(7)
H10_2 H 0.8919 0.6317 0.2172
C19_2 C 0.9051(5) 0.5924(3) 0.1304(7)
C20_2 C 0.8617(6) 0.5688(4) 0.0807(6)
H11_2 H 0.8871 0.5519 0.0456
C21_2 C 0.7816(6) 0.5706(3) 0.0833(6)
H12_2 H 0.7527 0.5545 0.0494
C22_2 C 0.9903(5) 0.5926(3) 0.1284(7)
C34_2 C 0.4391(6) 0.6852(3) 0.0012(6)
H19_2 H 0.4122 0.7009 0.0375
H20_2 H 0.5450 0.7034 0.0306
Zn6_2 Zn 0.81568(6) 0.83731(3) 0.45026(7)
Zn2_2 Zn 0.68432(6) 0.66269(3) 0.95026(7)
S3_2 S 0.26162(14) 0.62555(9) 0.89814(18)
O6_2 O 0.6858(4) 0.6067(2) 0.9233(4)
N5_2 N 0.5599(4) 0.6644(2) 0.9474(5)
N7_2 N 0.1005(5) 0.6370(3) 0.9206(6)
C9_2 C 0.6462(5) 0.5787(3) 0.9478(6)
C10_2 C 0.6385(5) 0.5456(3) 0.8971(6)
C11_2 C 0.6087(6) 0.5108(3) 0.9227(6)
H5_2 H 0.5921 0.5082 0.9753
C12_2 C 0.6031(6) 0.4802(3) 0.8728(6)
H6_2 H 0.5869 0.4561 0.8923
C13_2 C 0.6211(6) 0.4842(3) 0.7935(6)
C14_2 C 0.6481(8) 0.5190(4) 0.7669(7)
H7_2 H 0.6607 0.5222 0.7134
C15_2 C 0.6568(8) 0.5488(4) 0.8172(6)
H8_2 H 0.6758 0.5726 0.7979
C16_2 C 0.6147(5) 0.4520(4) 0.7390(7)
C31_2 C 0.5204(5) 0.6416(3) 0.8994(6)
H17_2 H 0.5490 0.6262 0.8637
C32_2 C 0.4405(5) 0.6389(3) 0.8983(6)
H18_2 H 0.4147 0.6227 0.8622
C33_2 C 0.3982(5) 0.6609(3) 0.9521(7)
C35_2 C 0.5179(5) 0.6863(3) 0.9970(5)
C36_2 C 0.3122(5) 0.6588(3) 0.9559(7)
C37_2 C 0.1948(6) 0.6733(3) 0.9880(6)
C38_2 C 0.1766(5) 0.6447(3) 0.9343(6)
C39_2 C 0.0584(5) 0.6601(3) 0.9637(6)
O9_2 O 0.7018(4) 0.7195(2) 0.9122(4)
O10_2 O 0.6923(4) 0.6763(3) 0.8178(5)
N10_2 N 0.8108(4) 0.6593(3) 0.9565(7)
C40_2 C 0.9725(5) 0.6600(3) 0.9623(6)
C41_2 C 0.9326(6) 0.6327(3) 0.9188(7)
H21_2 H 0.9604 0.6140 0.8898
C42_2 C 0.8532(6) 0.6330(3) 0.9184(7)
H22_2 H 0.8266 0.6138 0.8897
C43_2 C 0.8497(6) 0.6858(3) 0.9983(7)
S4_3 S 0.39063(14) 0.19259(9) 0.02339(17)
N6_3 N 0.2290(4) 0.1817(3) 0.0008(5)
C34_3 C 0.0609(6) 0.1852(3) 0.0012(6)
H19_3 H 0.0878 0.2009 0.0375
H23_2 H 0.6794 0.2044 0.0263
C44_2 C 0.5698(6) 0.1873(4) 0.0025(6)
H24_2 H 0.5443 0.2065 0.0321
N9 N 0.0083(4) 0.1006(2) 0.1222(6)
S3_3 S 0.23838(14) 0.12555(9) 0.89814(18)
N7_3 N 0.3995(5) 0.1370(3) 0.9206(6)
N8 N 0.6892(4) 0.1593(3) 0.9565(7)
C32_3 C 0.0595(5) 0.1389(3) 0.8983(6)
H18_3 H 0.0853 0.1227 0.8622
C33_3 C 0.1018(5) 0.1609(3) 0.9521(7)
C36_3 C 0.1878(5) 0.1588(3) 0.9559(7)
C37_3 C 0.3052(6) 0.1733(3) 0.9880(6)
C38_3 C 0.3234(5) 0.1447(3) 0.9343(6)
C39_3 C 0.4416(5) 0.1601(3) 0.9637(6)
C40_3 C 0.5275(5) 0.1600(3) 0.9623(6)
C41_3 C 0.5674(6) 0.1327(3) 0.9188(7)
H21_3 H 0.5396 0.1140 0.8898
C42_3 C 0.6468(6) 0.1330(3) 0.9184(7)
H22_3 H 0.6734 0.1138 0.8897
C43_3 C 0.6503(6) 0.1858(3) 0.9983(7)
Zn1 Zn 0.88379(6) 0.09705(3) 0.12574(7)
S1_3 S 0.45758(15) 0.06376(11) 0.06295(19)
S2_3 S 0.30724(14) 0.12748(9) 0.19740(17)
O1_3 O 0.8801(4) 0.1530(2) 0.1582(4)
O2_3 O 0.8126(4) 0.1806(3) 0.0622(4)
O5_3 O 0.8884(4) 0.0778(2) 0.0137(4)
N1_3 N 0.7572(4) 0.0936(2) 0.1307(6)
N2_3 N 0.4674(5) 0.1142(3) 0.1770(5)
N3_3 N 0.2957(5) 0.0773(3) 0.0845(5)
C1_3 C 0.8384(5) 0.1789(3) 0.1302(6)
C2_3 C 0.8099(6) 0.2094(3) 0.1819(6)
C3_3 C 0.8160(6) 0.2047(3) 0.2641(6)
H1_3 H 0.8427 0.1831 0.2847
C4_3 C 0.7832(6) 0.2312(3) 0.3145(6)
H2_3 H 0.7871 0.2277 0.3693
C5_3 C 0.7443(6) 0.2631(3) 0.2846(6)
C6_3 C 0.7388(6) 0.2686(3) 0.2035(6)
H3_3 H 0.7138 0.2906 0.1828
C7_3 C 0.7703(6) 0.2414(3) 0.1545(6)
H4_3 H 0.7648 0.2447 0.0998
C8_3 C 0.7090(6) 0.2908(4) 0.3411(7)
C17_3 C 0.7155(5) 0.1156(3) 0.1802(6)
H9_3 H 0.7426 0.1317 0.2157
C18_3 C 0.6353(6) 0.1157(4) 0.1815(7)
H10_3 H 0.6081 0.1317 0.2172
C19_3 C 0.5949(5) 0.0924(3) 0.1304(7)
C20_3 C 0.6383(6) 0.0688(4) 0.0807(6)
H11_3 H 0.6129 0.0519 0.0456
C21_3 C 0.7184(6) 0.0706(3) 0.0833(6)
H12_3 H 0.7473 0.0545 0.0494
C22_3 C 0.5097(5) 0.0926(3) 0.1284(7)
C23_3 C 0.3917(5) 0.1078(3) 0.1591(6)
C24_3 C 0.3739(5) 0.0828(4) 0.1016(6)
C25_3 C 0.2555(5) 0.0991(3) 0.1310(7)
C26_3 C 0.1691(5) 0.1008(3) 0.1276(7)
C27_3 C 0.1274(5) 0.1245(3) 0.1766(6)
H13_3 H 0.1530 0.1412 0.2121
C28_3 C 0.0462(6) 0.1232(3) 0.1720(6)
H14_3 H 0.0168 0.1391 0.2059
C29_3 C 0.0498(6) 0.0785(4) 0.0744(7)
H15_3 H 0.0231 0.0633 0.0370
C30_3 C 0.1302(5) 0.0767(4) 0.0769(7)
H16_3 H 0.1580 0.0594 0.0444
H20_3 H 0.9550 0.2034 0.0306
O11_2 O 0.8874(4) 0.0820(2) 0.2622(5)
O12_2 O 0.8861(4) 0.0407(2) 0.1653(4)
O6_3 O 0.8142(4) 0.1067(2) 0.9233(4)
N5_3 N 0.9401(4) 0.1644(2) 0.9474(5)
C9_3 C 0.8538(5) 0.0787(3) 0.9478(6)
C10_3 C 0.8615(5) 0.0456(3) 0.8971(6)
C11_3 C 0.8913(6) 0.0108(3) 0.9227(6)
H5_3 H 0.9079 0.0082 0.9753
C14_3 C 0.8519(8) 0.0190(4) 0.7669(7)
H7_3 H 0.8393 0.0222 0.7134
C15_3 C 0.8432(8) 0.0488(4) 0.8172(6)
H8_3 H 0.8242 0.0726 0.7979
C31_3 C 0.9796(5) 0.1416(3) 0.8994(6)
H17_3 H 0.9510 0.1262 0.8637
C35_3 C 0.9821(5) 0.1863(3) 0.9970(5)
O7_2 O 0.8874(4) 0.9180(2) 0.7622(5)
O8_2 O 0.8861(4) 0.9593(2) 0.6653(4)
C12_3 C 0.8969(6) 0.9802(3) 0.8728(6)
H6_3 H 0.9131 0.9561 0.8923
C13_3 C 0.8789(6) 0.9842(3) 0.7935(6)
C16_3 C 0.8853(5) 0.9520(4) 0.7390(7)
Zn4_2 Zn 0.88379(6) 0.90295(3) 0.62574(7)
S3_4 S 0.23838(14) 0.87445(9) 0.39814(18)
S4_4 S 0.39063(14) 0.80741(9) 0.52339(17)
N6_4 N 0.2290(4) 0.8183(3) 0.5008(5)
N7_4 N 0.3995(5) 0.8630(3) 0.4206(6)
N8_2 N 0.6892(4) 0.8407(3) 0.4565(7)
C32_4 C 0.0595(5) 0.8611(3) 0.3983(6)
H18_4 H 0.0853 0.8773 0.3622
C33_4 C 0.1018(5) 0.8391(3) 0.4521(7)
C34_4 C 0.0609(6) 0.8148(3) 0.5012(6)
H19_4 H 0.0878 0.7991 0.5375
C36_4 C 0.1878(5) 0.8412(3) 0.4559(7)
C37_4 C 0.3052(6) 0.8267(3) 0.4880(6)
C38_4 C 0.3234(5) 0.8553(3) 0.4343(6)
C39_4 C 0.4416(5) 0.8399(3) 0.4637(6)
C40_4 C 0.5275(5) 0.8400(3) 0.4623(6)
C41_4 C 0.5674(6) 0.8673(3) 0.4188(7)
H21_4 H 0.5396 0.8860 0.3898
C42_4 C 0.6468(6) 0.8670(3) 0.4184(7)
H22_4 H 0.6734 0.8862 0.3897
C43_4 C 0.6503(6) 0.8142(3) 0.4983(7)
H23_3 H 0.6794 0.7956 0.5263
C44_3 C 0.5698(6) 0.8127(4) 0.5025(6)
H24_3 H 0.5443 0.7935 0.5321
N9_2 N 0.0083(4) 0.8994(2) 0.6222(6)
C12_4 C 0.8969(6) 0.0198(3) 0.3728(6)
H6_4 H 0.9131 0.0439 0.3923
C13_4 C 0.8789(6) 0.0158(3) 0.2935(6)
C16_4 C 0.8853(5) 0.0480(4) 0.2390(7)
S1_4 S 0.45758(15) 0.93624(11) 0.56295(19)
S2_4 S 0.30724(14) 0.87252(9) 0.69740(17)
O1_4 O 0.8801(4) 0.8470(2) 0.6582(4)
O2_4 O 0.8126(4) 0.8194(3) 0.5622(4)
O5_4 O 0.8884(4) 0.9222(2) 0.5137(4)
O6_4 O 0.8142(4) 0.8933(2) 0.4233(4)
N1_4 N 0.7572(4) 0.9064(2) 0.6307(6)
N2_4 N 0.4674(5) 0.8858(3) 0.6770(5)
N3_4 N 0.2957(5) 0.9227(3) 0.5845(5)
N5_4 N 0.9401(4) 0.8356(2) 0.4474(5)
C1_4 C 0.8384(5) 0.8211(3) 0.6302(6)
C2_4 C 0.8099(6) 0.7906(3) 0.6819(6)
C3_4 C 0.8160(6) 0.7953(3) 0.7641(6)
H1_4 H 0.8427 0.8169 0.7847
C4_4 C 0.7832(6) 0.7688(3) 0.8145(6)
H2_4 H 0.7871 0.7723 0.8693
C5_4 C 0.7443(6) 0.7369(3) 0.7846(6)
C6_4 C 0.7388(6) 0.7314(3) 0.7035(6)
H3_4 H 0.7138 0.7094 0.6828
C7_4 C 0.7703(6) 0.7586(3) 0.6545(6)
H4_4 H 0.7648 0.7553 0.5998
C8_4 C 0.7090(6) 0.7092(4) 0.8411(7)
C9_4 C 0.8538(5) 0.9213(3) 0.4478(6)
C10_4 C 0.8615(5) 0.9544(3) 0.3971(6)
C11_4 C 0.8913(6) 0.9892(3) 0.4227(6)
H5_4 H 0.9079 0.9918 0.4753
C14_4 C 0.8519(8) 0.9810(4) 0.2669(7)
H7_4 H 0.8393 0.9778 0.2134
C15_4 C 0.8432(8) 0.9512(4) 0.3172(6)
H8_4 H 0.8242 0.9274 0.2979
C17_4 C 0.7155(5) 0.8844(3) 0.6802(6)
H9_4 H 0.7426 0.8683 0.7157
C18_4 C 0.6353(6) 0.8843(4) 0.6815(7)
H10_4 H 0.6081 0.8683 0.7172
C19_4 C 0.5949(5) 0.9076(3) 0.6304(7)
C20_4 C 0.6383(6) 0.9312(4) 0.5807(6)
H11_4 H 0.6129 0.9481 0.5456
C21_4 C 0.7184(6) 0.9294(3) 0.5833(6)
H12_4 H 0.7473 0.9455 0.5494
C22_4 C 0.5097(5) 0.9074(3) 0.6284(7)
C23_4 C 0.3917(5) 0.8922(3) 0.6591(6)
C24_4 C 0.3739(5) 0.9172(4) 0.6016(6)
C25_4 C 0.2555(5) 0.9009(3) 0.6310(7)
C26_4 C 0.1691(5) 0.8992(3) 0.6276(7)
C27_4 C 0.1274(5) 0.8755(3) 0.6766(6)
H13_4 H 0.1530 0.8588 0.7121
C28_4 C 0.0462(6) 0.8768(3) 0.6720(6)
H14_4 H 0.0168 0.8609 0.7059
C29_4 C 0.0498(6) 0.9215(4) 0.5744(7)
H15_4 H 0.0231 0.9367 0.5370
C30_4 C 0.1302(5) 0.9233(4) 0.5769(7)
H16_4 H 0.1580 0.9406 0.5444
C31_4 C 0.9796(5) 0.8584(3) 0.3994(6)
H17_4 H 0.9510 0.8738 0.3637
C35_4 C 0.9821(5) 0.8137(3) 0.4970(5)
H20_4 H 0.9550 0.7966 0.5306
N8_3 N 0.1892(4) 0.6593(3) 0.4565(7)
C40_5 C 0.0275(5) 0.6600(3) 0.4623(6)
C41_5 C 0.0674(6) 0.6327(3) 0.4188(7)
H21_5 H 0.0396 0.6140 0.3898
C42_5 C 0.1468(6) 0.6330(3) 0.4184(7)
H22_5 H 0.1734 0.6138 0.3897
C43_5 C 0.1503(6) 0.6858(3) 0.4983(7)
H23_4 H 0.1794 0.7044 0.5263
C44_4 C 0.0698(6) 0.6873(4) 0.5025(6)
H24_4 H 0.0443 0.7065 0.5321
Zn5 Zn 0.31568(6) 0.66269(3) 0.45026(7)
Zn1_2 Zn 0.38379(6) 0.59705(3) 0.62574(7)
S3_5 S 0.73838(14) 0.62555(9) 0.39814(18)
S4_5 S 0.89063(14) 0.69259(9) 0.52339(17)
O1_5 O 0.3801(4) 0.6530(2) 0.6582(4)
O2_5 O 0.3126(4) 0.6806(3) 0.5622(4)
O3_3 O 0.2018(4) 0.7805(2) 0.9122(4)
O4_3 O 0.1923(4) 0.8237(3) 0.8178(5)
O5_5 O 0.3884(4) 0.5778(2) 0.5137(4)
O6_5 O 0.3142(4) 0.6067(2) 0.4233(4)
O7_3 O 0.3874(4) 0.4180(2) 0.2622(5)
O8_3 O 0.3861(4) 0.4593(2) 0.1653(4)
N1_5 N 0.2572(4) 0.5936(2) 0.6307(6)
N5_5 N 0.4401(4) 0.6644(2) 0.4474(5)
N6_5 N 0.7290(4) 0.6817(3) 0.5008(5)
N7_5 N 0.8995(5) 0.6370(3) 0.4206(6)
C1_5 C 0.3384(5) 0.6789(3) 0.6302(6)
C2_5 C 0.3099(6) 0.7094(3) 0.6819(6)
C3_5 C 0.3160(6) 0.7047(3) 0.7641(6)
H1_5 H 0.3427 0.6831 0.7847
C4_5 C 0.2832(6) 0.7312(3) 0.8145(6)
H2_5 H 0.2871 0.7277 0.8693
C5_5 C 0.2443(6) 0.7631(3) 0.7846(6)
C6_5 C 0.2388(6) 0.7686(3) 0.7035(6)
H3_5 H 0.2138 0.7906 0.6828
C7_5 C 0.2703(6) 0.7414(3) 0.6545(6)
H4_5 H 0.2648 0.7447 0.5998
C8_5 C 0.2090(6) 0.7908(4) 0.8411(7)
C9_5 C 0.3538(5) 0.5787(3) 0.4478(6)
C10_5 C 0.3615(5) 0.5456(3) 0.3971(6)
C11_5 C 0.3913(6) 0.5108(3) 0.4227(6)
H5_5 H 0.4079 0.5082 0.4753
C12_5 C 0.3969(6) 0.4802(3) 0.3728(6)
H6_5 H 0.4131 0.4561 0.3923
C13_5 C 0.3789(6) 0.4842(3) 0.2935(6)
C14_5 C 0.3519(8) 0.5190(4) 0.2669(7)
H7_5 H 0.3393 0.5222 0.2134
C15_5 C 0.3432(8) 0.5488(4) 0.3172(6)
H8_5 H 0.3242 0.5726 0.2979
C16_5 C 0.3853(5) 0.4520(4) 0.2390(7)
C17_5 C 0.2155(5) 0.6156(3) 0.6802(6)
H9_5 H 0.2426 0.6317 0.7157
C18_5 C 0.1353(6) 0.6157(4) 0.6815(7)
H10_5 H 0.1081 0.6317 0.7172
C19_5 C 0.0949(5) 0.5924(3) 0.6304(7)
C20_5 C 0.1383(6) 0.5688(4) 0.5807(6)
H11_5 H 0.1129 0.5519 0.5456
C21_5 C 0.2184(6) 0.5706(3) 0.5833(6)
H12_5 H 0.2473 0.5545 0.5494
C22_5 C 0.0097(5) 0.5926(3) 0.6284(7)
C31_5 C 0.4796(5) 0.6416(3) 0.3994(6)
H17_5 H 0.4510 0.6262 0.3637
C32_5 C 0.5595(5) 0.6389(3) 0.3983(6)
H18_5 H 0.5853 0.6227 0.3622
C33_5 C 0.6018(5) 0.6609(3) 0.4521(7)
C34_5 C 0.5609(6) 0.6852(3) 0.5012(6)
H19_5 H 0.5878 0.7009 0.5375
C35_5 C 0.4821(5) 0.6863(3) 0.4970(5)
H20_5 H 0.4550 0.7034 0.5306
C36_5 C 0.6878(5) 0.6588(3) 0.4559(7)
C37_5 C 0.8052(6) 0.6733(3) 0.4880(6)
C38_5 C 0.8234(5) 0.6447(3) 0.4343(6)
C39_5 C 0.9416(5) 0.6601(3) 0.4637(6)
Zn4_3 Zn 0.38379(6) 0.40295(3) 0.12574(7)
Zn6_3 Zn 0.18432(6) 0.83731(3) 0.95026(7)
O9_3 O 0.2982(4) 0.7195(2) 0.4122(4)
O10_3 O 0.3077(4) 0.6763(3) 0.3178(5)
O11_3 O 0.3874(4) 0.5820(2) 0.7622(5)
O12_3 O 0.3861(4) 0.5407(2) 0.6653(4)
N9_3 N 0.5083(4) 0.6006(2) 0.6222(6)
S1_5 S 0.95758(15) 0.56376(11) 0.56295(19)
S2_5 S 0.80724(14) 0.62748(9) 0.69740(17)
N2_5 N 0.9674(5) 0.6142(3) 0.6770(5)
N3_5 N 0.7957(5) 0.5773(3) 0.5845(5)
C23_5 C 0.8917(5) 0.6078(3) 0.6591(6)
C24_5 C 0.8739(5) 0.5828(4) 0.6016(6)
C25_5 C 0.7555(5) 0.5991(3) 0.6310(7)
C26_5 C 0.6691(5) 0.6008(3) 0.6276(7)
C27_5 C 0.6274(5) 0.6245(3) 0.6766(6)
H13_5 H 0.6530 0.6412 0.7121
C28_5 C 0.5462(6) 0.6232(3) 0.6720(6)
H14_5 H 0.5168 0.6391 0.7059
C29_5 C 0.5498(6) 0.5785(4) 0.5744(7)
H15_5 H 0.5231 0.5633 0.5370
C30_5 C 0.6302(5) 0.5767(4) 0.5769(7)
H16_5 H 0.6580 0.5594 0.5444
N8_4 N 0.1892(4) 0.3407(3) 0.9565(7)
C40_6 C 0.0275(5) 0.3400(3) 0.9623(6)
C41_6 C 0.0674(6) 0.3673(3) 0.9188(7)
H21_6 H 0.0396 0.3860 0.8898
C42_6 C 0.1468(6) 0.3670(3) 0.9184(7)
H22_6 H 0.1734 0.3862 0.8897
C43_6 C 0.1503(6) 0.3142(3) 0.9983(7)
Zn5_2 Zn 0.31568(6) 0.33731(3) 0.95026(7)
S4_6 S 0.89063(14) 0.30741(9) 0.02339(17)
O1_6 O 0.3801(4) 0.3470(2) 0.1582(4)
O2_6 O 0.3126(4) 0.3194(3) 0.0622(4)
O3_4 O 0.2018(4) 0.2195(2) 0.4122(4)
O4_4 O 0.1923(4) 0.1763(3) 0.3178(5)
O5_6 O 0.3884(4) 0.4222(2) 0.0137(4)
N1_6 N 0.2572(4) 0.4064(2) 0.1307(6)
N6_6 N 0.7290(4) 0.3183(3) 0.0008(5)
C1_6 C 0.3384(5) 0.3211(3) 0.1302(6)
C2_6 C 0.3099(6) 0.2906(3) 0.1819(6)
C3_6 C 0.3160(6) 0.2953(3) 0.2641(6)
H1_6 H 0.3427 0.3169 0.2847
C4_6 C 0.2832(6) 0.2688(3) 0.3145(6)
H2_6 H 0.2871 0.2723 0.3693
C5_6 C 0.2443(6) 0.2369(3) 0.2846(6)
C6_6 C 0.2388(6) 0.2314(3) 0.2035(6)
H3_6 H 0.2138 0.2094 0.1828
C7_6 C 0.2703(6) 0.2586(3) 0.1545(6)
H4_6 H 0.2648 0.2553 0.0998
C8_6 C 0.2090(6) 0.2092(4) 0.3411(7)
C17_6 C 0.2155(5) 0.3844(3) 0.1802(6)
H9_6 H 0.2426 0.3683 0.2157
C18_6 C 0.1353(6) 0.3843(4) 0.1815(7)
H10_6 H 0.1081 0.3683 0.2172
C19_6 C 0.0949(5) 0.4076(3) 0.1304(7)
C20_6 C 0.1383(6) 0.4312(4) 0.0807(6)
H11_6 H 0.1129 0.4481 0.0456
C21_6 C 0.2184(6) 0.4294(3) 0.0833(6)
H12_6 H 0.2473 0.4455 0.0494
C22_6 C 0.0097(5) 0.4074(3) 0.1284(7)
C34_6 C 0.5609(6) 0.3148(3) 0.0012(6)
H19_6 H 0.5878 0.2991 0.0375
H20_6 H 0.4550 0.2966 0.0306
Zn6_4 Zn 0.18432(6) 0.16269(3) 0.45026(7)
N9_4 N 0.5083(4) 0.3994(2) 0.1222(6)
S3_6 S 0.73838(14) 0.37445(9) 0.89814(18)
O6_6 O 0.3142(4) 0.3933(2) 0.9233(4)
N5_6 N 0.4401(4) 0.3356(2) 0.9474(5)
N7_6 N 0.8995(5) 0.3630(3) 0.9206(6)
C9_6 C 0.3538(5) 0.4213(3) 0.9478(6)
C10_6 C 0.3615(5) 0.4544(3) 0.8971(6)
C11_6 C 0.3913(6) 0.4892(3) 0.9227(6)
H5_6 H 0.4079 0.4918 0.9753
C12_6 C 0.3969(6) 0.5198(3) 0.8728(6)
H6_6 H 0.4131 0.5439 0.8923
C13_6 C 0.3789(6) 0.5158(3) 0.7935(6)
C14_6 C 0.3519(8) 0.4810(4) 0.7669(7)
H7_6 H 0.3393 0.4778 0.7134
C15_6 C 0.3432(8) 0.4512(4) 0.8172(6)
H8_6 H 0.3242 0.4274 0.7979
C16_6 C 0.3853(5) 0.5480(4) 0.7390(7)
C31_6 C 0.4796(5) 0.3584(3) 0.8994(6)
H17_6 H 0.4510 0.3738 0.8637
C32_6 C 0.5595(5) 0.3611(3) 0.8983(6)
H18_6 H 0.5853 0.3773 0.8622
C33_6 C 0.6018(5) 0.3391(3) 0.9521(7)
C35_6 C 0.4821(5) 0.3137(3) 0.9970(5)
C36_6 C 0.6878(5) 0.3412(3) 0.9559(7)
C37_6 C 0.8052(6) 0.3267(3) 0.9880(6)
C38_6 C 0.8234(5) 0.3553(3) 0.9343(6)
C39_6 C 0.9416(5) 0.3399(3) 0.9637(6)
O9_4 O 0.2982(4) 0.2805(2) 0.9122(4)
O10_4 O 0.3077(4) 0.3237(3) 0.8178(5)
S1_6 S 0.95758(15) 0.43624(11) 0.06295(19)
S2_6 S 0.80724(14) 0.37252(9) 0.19740(17)
N2_6 N 0.9674(5) 0.3858(3) 0.1770(5)
N3_6 N 0.7957(5) 0.4227(3) 0.0845(5)
C23_6 C 0.8917(5) 0.3922(3) 0.1591(6)
C24_6 C 0.8739(5) 0.4172(4) 0.1016(6)
C25_6 C 0.7555(5) 0.4009(3) 0.1310(7)
C26_6 C 0.6691(5) 0.3992(3) 0.1276(7)
C27_6 C 0.6274(5) 0.3755(3) 0.1766(6)
H13_6 H 0.6530 0.3588 0.2121
C28_6 C 0.5462(6) 0.3768(3) 0.1720(6)
H14_6 H 0.5168 0.3609 0.2059
C29_6 C 0.5498(6) 0.4215(4) 0.0744(7)
H15_6 H 0.5231 0.4367 0.0370
C30_6 C 0.6302(5) 0.4233(4) 0.0769(7)
H16_6 H 0.6580 0.4406 0.0444
Zn3_2 Zn 0.11621(6) 0.90295(3) 0.12574(7)
O7_4 O 0.1126(4) 0.0820(2) 0.7622(5)
O8_4 O 0.1139(4) 0.0407(2) 0.6653(4)
C12_7 C 0.1031(6) 0.0198(3) 0.8728(6)
H6_7 H 0.0869 0.0439 0.8923
C13_7 C 0.1211(6) 0.0158(3) 0.7935(6)
C16_7 C 0.1147(5) 0.0480(4) 0.7390(7)
Zn4_4 Zn 0.11621(6) 0.09705(3) 0.62574(7)
S1_7 S 0.54242(15) 0.93624(11) 0.06295(19)
S2_7 S 0.69276(14) 0.87252(9) 0.19740(17)
O1_7 O 0.1199(4) 0.8470(2) 0.1582(4)
O2_7 O 0.1874(4) 0.8194(3) 0.0622(4)
O5_7 O 0.1116(4) 0.9222(2) 0.0137(4)
N1_7 N 0.2428(4) 0.9064(2) 0.1307(6)
N2_7 N 0.5326(5) 0.8858(3) 0.1770(5)
N3_7 N 0.7043(5) 0.9227(3) 0.0845(5)
N4_3 N 0.9917(4) 0.8994(2) 0.1222(6)
C1_7 C 0.1616(5) 0.8211(3) 0.1302(6)
C2_7 C 0.1901(6) 0.7906(3) 0.1819(6)
C3_7 C 0.1840(6) 0.7953(3) 0.2641(6)
H1_7 H 0.1573 0.8169 0.2847
C4_7 C 0.2168(6) 0.7688(3) 0.3145(6)
H2_7 H 0.2129 0.7723 0.3693
C5_7 C 0.2557(6) 0.7369(3) 0.2846(6)
C6_7 C 0.2612(6) 0.7314(3) 0.2035(6)
H3_7 H 0.2862 0.7094 0.1828
C7_7 C 0.2297(6) 0.7586(3) 0.1545(6)
H4_7 H 0.2352 0.7553 0.0998
C8_7 C 0.2910(6) 0.7092(4) 0.3411(7)
C17_7 C 0.2845(5) 0.8844(3) 0.1802(6)
H9_7 H 0.2574 0.8683 0.2157
C18_7 C 0.3647(6) 0.8843(4) 0.1815(7)
H10_7 H 0.3919 0.8683 0.2172
C19_7 C 0.4051(5) 0.9076(3) 0.1304(7)
C20_7 C 0.3617(6) 0.9312(4) 0.0807(6)
H11_7 H 0.3871 0.9481 0.0456
C21_7 C 0.2816(6) 0.9294(3) 0.0833(6)
H12_7 H 0.2527 0.9455 0.0494
C22_7 C 0.4903(5) 0.9074(3) 0.1284(7)
C23_7 C 0.6083(5) 0.8922(3) 0.1591(6)
C24_7 C 0.6261(5) 0.9172(4) 0.1016(6)
C25_7 C 0.7445(5) 0.9009(3) 0.1310(7)
C26_7 C 0.8309(5) 0.8992(3) 0.1276(7)
C27_7 C 0.8726(5) 0.8755(3) 0.1766(6)
H13_7 H 0.8470 0.8588 0.2121
C28_7 C 0.9538(6) 0.8768(3) 0.1720(6)
H14_7 H 0.9832 0.8609 0.2059
C29_7 C 0.9502(6) 0.9215(4) 0.0744(7)
H15_7 H 0.9769 0.9367 0.0370
C30_7 C 0.8698(5) 0.9233(4) 0.0769(7)
H16_7 H 0.8420 0.9406 0.0444
H20_7 H 0.0450 0.7966 0.0306
O11_4 O 0.1126(4) 0.9180(2) 0.2622(5)
O12_4 O 0.1139(4) 0.9593(2) 0.1653(4)
O6_7 O 0.1858(4) 0.8933(2) 0.9233(4)
N5_7 N 0.0599(4) 0.8356(2) 0.9474(5)
C9_7 C 0.1462(5) 0.9213(3) 0.9478(6)
C10_7 C 0.1385(5) 0.9544(3) 0.8971(6)
C11_7 C 0.1087(6) 0.9892(3) 0.9227(6)
H5_7 H 0.0921 0.9918 0.9753
C14_7 C 0.1481(8) 0.9810(4) 0.7669(7)
H7_7 H 0.1607 0.9778 0.7134
C15_7 C 0.1568(8) 0.9512(4) 0.8172(6)
H8_7 H 0.1758 0.9274 0.7979
C31_7 C 0.0204(5) 0.8584(3) 0.8994(6)
H17_7 H 0.0490 0.8738 0.8637
C35_7 C 0.0179(5) 0.8137(3) 0.9970(5)
N10_3 N 0.3108(4) 0.8407(3) 0.9565(7)
S4_7 S 0.60937(14) 0.80741(9) 0.02339(17)
N6_7 N 0.7710(4) 0.8183(3) 0.0008(5)
C34_7 C 0.9391(6) 0.8148(3) 0.0012(6)
H19_7 H 0.9122 0.7991 0.0375
H23_5 H 0.3206 0.7956 0.0263
C44_5 C 0.4302(6) 0.8127(4) 0.0025(6)
H24_5 H 0.4557 0.7935 0.0321
S3_7 S 0.76162(14) 0.87445(9) 0.89814(18)
N7_7 N 0.6005(5) 0.8630(3) 0.9206(6)
C32_7 C 0.9405(5) 0.8611(3) 0.8983(6)
H18_7 H 0.9147 0.8773 0.8622
C33_7 C 0.8982(5) 0.8391(3) 0.9521(7)
C36_7 C 0.8122(5) 0.8412(3) 0.9559(7)
C37_7 C 0.6948(6) 0.8267(3) 0.9880(6)
C38_7 C 0.6766(5) 0.8553(3) 0.9343(6)
C39_7 C 0.5584(5) 0.8399(3) 0.9637(6)
C40_7 C 0.4725(5) 0.8400(3) 0.9623(6)
C41_7 C 0.4326(6) 0.8673(3) 0.9188(7)
H21_7 H 0.4604 0.8860 0.8898
C42_7 C 0.3532(6) 0.8670(3) 0.9184(7)
H22_7 H 0.3266 0.8862 0.8897
C43_7 C 0.3497(6) 0.8142(3) 0.9983(7)
S1_8 S 0.54242(15) 0.06376(11) 0.56295(19)
S2_8 S 0.69276(14) 0.12748(9) 0.69740(17)
O1_8 O 0.1199(4) 0.1530(2) 0.6582(4)
O2_8 O 0.1874(4) 0.1806(3) 0.5622(4)
O5_8 O 0.1116(4) 0.0778(2) 0.5137(4)
O6_8 O 0.1858(4) 0.1067(2) 0.4233(4)
N1_8 N 0.2428(4) 0.0936(2) 0.6307(6)
N2_8 N 0.5326(5) 0.1142(3) 0.6770(5)
N3_8 N 0.7043(5) 0.0773(3) 0.5845(5)
N4_4 N 0.9917(4) 0.1006(2) 0.6222(6)
N5_8 N 0.0599(4) 0.1644(2) 0.4474(5)
C1_8 C 0.1616(5) 0.1789(3) 0.6302(6)
C2_8 C 0.1901(6) 0.2094(3) 0.6819(6)
C3_8 C 0.1840(6) 0.2047(3) 0.7641(6)
H1_8 H 0.1573 0.1831 0.7847
C4_8 C 0.2168(6) 0.2312(3) 0.8145(6)
H2_8 H 0.2129 0.2277 0.8693
C5_8 C 0.2557(6) 0.2631(3) 0.7846(6)
C6_8 C 0.2612(6) 0.2686(3) 0.7035(6)
H3_8 H 0.2862 0.2906 0.6828
C7_8 C 0.2297(6) 0.2414(3) 0.6545(6)
H4_8 H 0.2352 0.2447 0.5998
C8_8 C 0.2910(6) 0.2908(4) 0.8411(7)
C9_8 C 0.1462(5) 0.0787(3) 0.4478(6)
C10_8 C 0.1385(5) 0.0456(3) 0.3971(6)
C11_8 C 0.1087(6) 0.0108(3) 0.4227(6)
H5_8 H 0.0921 0.0082 0.4753
C14_8 C 0.1481(8) 0.0190(4) 0.2669(7)
H7_8 H 0.1607 0.0222 0.2134
C15_8 C 0.1568(8) 0.0488(4) 0.3172(6)
H8_8 H 0.1758 0.0726 0.2979
C17_8 C 0.2845(5) 0.1156(3) 0.6802(6)
H9_8 H 0.2574 0.1317 0.7157
C18_8 C 0.3647(6) 0.1157(4) 0.6815(7)
H10_8 H 0.3919 0.1317 0.7172
C19_8 C 0.4051(5) 0.0924(3) 0.6304(7)
C20_8 C 0.3617(6) 0.0688(4) 0.5807(6)
H11_8 H 0.3871 0.0519 0.5456
C21_8 C 0.2816(6) 0.0706(3) 0.5833(6)
H12_8 H 0.2527 0.0545 0.5494
C22_8 C 0.4903(5) 0.0926(3) 0.6284(7)
C23_8 C 0.6083(5) 0.1078(3) 0.6591(6)
C24_8 C 0.6261(5) 0.0828(4) 0.6016(6)
C25_8 C 0.7445(5) 0.0991(3) 0.6310(7)
C26_8 C 0.8309(5) 0.1008(3) 0.6276(7)
C27_8 C 0.8726(5) 0.1245(3) 0.6766(6)
H13_8 H 0.8470 0.1412 0.7121
C28_8 C 0.9538(6) 0.1232(3) 0.6720(6)
H14_8 H 0.9832 0.1391 0.7059
C29_8 C 0.9502(6) 0.0785(4) 0.5744(7)
H15_8 H 0.9769 0.0633 0.5370
C30_8 C 0.8698(5) 0.0767(4) 0.5769(7)
H16_8 H 0.8420 0.0594 0.5444
C31_8 C 0.0204(5) 0.1416(3) 0.3994(6)
H17_8 H 0.0490 0.1262 0.3637
C35_8 C 0.0179(5) 0.1863(3) 0.4970(5)
H20_8 H 0.0450 0.2034 0.5306
N10_4 N 0.3108(4) 0.1593(3) 0.4565(7)
C12_8 C 0.1031(6) 0.9802(3) 0.3728(6)
H6_8 H 0.0869 0.9561 0.3923
C13_8 C 0.1211(6) 0.9842(3) 0.2935(6)
C16_8 C 0.1147(5) 0.9520(4) 0.2390(7)
S3_8 S 0.76162(14) 0.12555(9) 0.39814(18)
S4_8 S 0.60937(14) 0.19259(9) 0.52339(17)
N6_8 N 0.7710(4) 0.1817(3) 0.5008(5)
N7_8 N 0.6005(5) 0.1370(3) 0.4206(6)
C32_8 C 0.9405(5) 0.1389(3) 0.3983(6)
H18_8 H 0.9147 0.1227 0.3622
C33_8 C 0.8982(5) 0.1609(3) 0.4521(7)
C34_8 C 0.9391(6) 0.1852(3) 0.5012(6)
H19_8 H 0.9122 0.2009 0.5375
C36_8 C 0.8122(5) 0.1588(3) 0.4559(7)
C37_8 C 0.6948(6) 0.1733(3) 0.4880(6)
C38_8 C 0.6766(5) 0.1447(3) 0.4343(6)
C39_8 C 0.5584(5) 0.1601(3) 0.4637(6)
C40_8 C 0.4725(5) 0.1600(3) 0.4623(6)
C41_8 C 0.4326(6) 0.1327(3) 0.4188(7)
H21_8 H 0.4604 0.1140 0.3898
C42_8 C 0.3532(6) 0.1330(3) 0.4184(7)
H22_8 H 0.3266 0.1138 0.3897
C43_8 C 0.3497(6) 0.1858(3) 0.4983(7)
H23_6 H 0.3206 0.2044 0.5263
C44_6 C 0.4302(6) 0.1873(4) 0.5025(6)
H24_6 H 0.4557 0.2065 0.5321
H23_7 H 0.1794 0.2956 0.0263
C44_7 C 0.0698(6) 0.3127(4) 0.0025(6)
H24_7 H 0.0443 0.2935 0.0321
H23_8 H 0.8206 0.7044 0.0263
C44_8 C 0.9302(6) 0.6873(4) 0.0025(6)
H24_8 H 0.9557 0.7065 0.0321
loop_
_geom_bond_atom_site_label_1
_geom_bond_atom_site_label_2
_geom_bond_site_symmetry_1
_geom_bond_site_symmetry_2
S2 C23 1_555 1_555
N3 C24 1_555 1_555
N4 C28 1_555 1_555
C23 N2 1_555 1_555
C24 S1 1_555 1_555
C25 S2 1_555 1_555
C26 C25 1_555 1_555
C27 C26 1_555 1_555
H13 C27 1_555 1_555
C28 C27 1_555 1_555
H14 C28 1_555 1_555
C29 N4 1_555 1_555
H15 C29 1_555 1_555
C30 C26 1_555 1_555
H16 C30 1_555 1_555
Zn3 N4 1_555 1_555
N3 C25 1_555 1_555
C23 C24 1_555 1_555
C29 C30 1_555 1_555
Zn3 O1 1_555 1_555
Zn2 O2 1_555 1_555
S3 C36 1_555 1_555
S4 C37 1_555 1_555
O1 C1 1_555 1_555
O2 C1 1_555 1_555
O3 C8 1_555 1_555
O4 C8 1_555 1_555
O5 Zn3 1_555 1_555
O6 Zn2 1_555 1_555
O7 C16 1_555 1_555
O8 C16 1_555 1_555
N1 Zn3 1_555 1_555
N5 Zn2 1_555 1_555
N6 C36 1_555 1_555
N7 C38 1_555 1_555
C1 C2 1_555 1_555
C2 C3 1_555 1_555
C3 H1 1_555 1_555
C4 C3 1_555 1_555
H2 C4 1_555 1_555
C5 C4 1_555 1_555
C6 C5 1_555 1_555
H3 C6 1_555 1_555
C7 C2 1_555 1_555
H4 C7 1_555 1_555
C8 C5 1_555 1_555
C9 O5 1_555 1_555
C10 C9 1_555 1_555
C11 C10 1_555 1_555
H5 C11 1_555 1_555
C12 C11 1_555 1_555
H6 C12 1_555 1_555
C13 C12 1_555 1_555
C14 C13 1_555 1_555
H7 C14 1_555 1_555
C15 C10 1_555 1_555
H8 C15 1_555 1_555
C16 C13 1_555 1_555
C17 N1 1_555 1_555
H9 C17 1_555 1_555
C18 C17 1_555 1_555
H10 C18 1_555 1_555
C19 C18 1_555 1_555
C20 C19 1_555 1_555
H11 C20 1_555 1_555
C21 N1 1_555 1_555
H12 C21 1_555 1_555
C22 C19 1_555 1_555
C31 N5 1_555 1_555
H17 C31 1_555 1_555
C32 C31 1_555 1_555
H18 C32 1_555 1_555
C33 C32 1_555 1_555
C34 C33 1_555 1_555
H19 C34 1_555 1_555
C35 N5 1_555 1_555
H20 C35 1_555 1_555
C36 C33 1_555 1_555
C37 N6 1_555 1_555
C38 S3 1_555 1_555
C39 S4 1_555 1_555
Zn4 O7 1_555 1_555
Zn6 O3 1_555 1_555
O9 Zn2 1_555 1_555
O10 Zn2 1_555 1_555
O11 Zn3 1_555 1_555
O12 Zn3 1_555 1_555
N10 Zn2 1_555 1_555
O4 Zn6 1_555 1_555
O6 C9 1_555 1_555
O8 Zn4 1_555 1_555
N7 C39 1_555 1_555
C6 C7 1_555 1_555
C14 C15 1_555 1_555
C20 C21 1_555 1_555
C34 C35 1_555 1_555
C37 C38 1_555 1_555
N10 C42 1_555 1_555
C41 C40 1_555 1_555
H21 C41 1_555 1_555
C42 C41 1_555 1_555
H22 C42 1_555 1_555
C43 N10 1_555 1_555
H23 C43 1_555 1_555
C44 C40 1_555 1_555
H24 C44 1_555 1_555
C43 C44 1_555 1_555
S2_2 C23_2 1_555 1_555
N3_2 C24_2 1_555 1_555
N4_2 C28_2 1_555 1_555
C23_2 N2_2 1_555 1_555
C24_2 S1_2 1_555 1_555
C25_2 S2_2 1_555 1_555
C26_2 C25_2 1_555 1_555
C27_2 C26_2 1_555 1_555
H13_2 C27_2 1_555 1_555
C28_2 C27_2 1_555 1_555
H14_2 C28_2 1_555 1_555
C29_2 N4_2 1_555 1_555
H15_2 C29_2 1_555 1_555
C30_2 C26_2 1_555 1_555
H16_2 C30_2 1_555 1_555
Zn4 N4_2 1_555 1_555
N3_2 C25_2 1_555 1_555
C23_2 C24_2 1_555 1_555
C29_2 C30_2 1_555 1_555
Zn4 O1_2 1_555 1_555
O1_2 C1_2 1_555 1_555
O2_2 C1_2 1_555 1_555
O3_2 C8_2 1_555 1_555
O4_2 C8_2 1_555 1_555
O5_2 Zn4 1_555 1_555
N1_2 Zn4 1_555 1_555
C1_2 C2_2 1_555 1_555
C2_2 C3_2 1_555 1_555
C3_2 H1_2 1_555 1_555
C4_2 C3_2 1_555 1_555
H2_2 C4_2 1_555 1_555
C5_2 C4_2 1_555 1_555
C6_2 C5_2 1_555 1_555
H3_2 C6_2 1_555 1_555
C7_2 C2_2 1_555 1_555
H4_2 C7_2 1_555 1_555
C8_2 C5_2 1_555 1_555
C17_2 N1_2 1_555 1_555
H9_2 C17_2 1_555 1_555
C18_2 C17_2 1_555 1_555
H10_2 C18_2 1_555 1_555
C19_2 C18_2 1_555 1_555
C20_2 C19_2 1_555 1_555
H11_2 C20_2 1_555 1_555
C21_2 N1_2 1_555 1_555
H12_2 C21_2 1_555 1_555
C22_2 C19_2 1_555 1_555
H19_2 C34_2 1_555 1_555
Zn6_2 O3_2 1_555 1_555
O4_2 Zn6_2 1_555 1_555
C6_2 C7_2 1_555 1_555
C20_2 C21_2 1_555 1_555
S3_2 C36_2 1_555 1_555
O6_2 Zn2_2 1_555 1_555
O11 C16_2 1_555 1_555
O12 C16_2 1_555 1_555
N5_2 Zn2_2 1_555 1_555
N7_2 C38_2 1_555 1_555
C10_2 C9_2 1_555 1_555
C11_2 C10_2 1_555 1_555
H5_2 C11_2 1_555 1_555
C12_2 C11_2 1_555 1_555
H6_2 C12_2 1_555 1_555
C13_2 C12_2 1_555 1_555
C14_2 C13_2 1_555 1_555
H7_2 C14_2 1_555 1_555
C15_2 C10_2 1_555 1_555
H8_2 C15_2 1_555 1_555
C16_2 C13_2 1_555 1_555
C31_2 N5_2 1_555 1_555
H17_2 C31_2 1_555 1_555
C32_2 C31_2 1_555 1_555
H18_2 C32_2 1_555 1_555
C33_2 C32_2 1_555 1_555
C35_2 N5_2 1_555 1_555
C36_2 C33_2 1_555 1_555
C38_2 S3_2 1_555 1_555
O9_2 Zn2_2 1_555 1_555
O10_2 Zn2_2 1_555 1_555
N10_2 Zn2_2 1_555 1_555
O6_2 C9_2 1_555 1_555
N7_2 C39_2 1_555 1_555
C14_2 C15_2 1_555 1_555
C37_2 C38_2 1_555 1_555
N10_2 C42_2 1_555 1_555
C41_2 C40_2 1_555 1_555
H21_2 C41_2 1_555 1_555
C42_2 C41_2 1_555 1_555
H22_2 C42_2 1_555 1_555
C43_2 N10_2 1_555 1_555
H19_3 C34_3 1_555 1_555
H24_2 C44_2 1_555 1_555
S3_3 C36_3 1_555 1_555
N7_3 C38_3 1_555 1_555
N8 C42_3 1_555 1_555
H18_3 C32_3 1_555 1_555
C33_3 C32_3 1_555 1_555
C36_3 C33_3 1_555 1_555
C38_3 S3_3 1_555 1_555
C40_3 C39_3 1_555 1_555
C41_3 C40_3 1_555 1_555
H21_3 C41_3 1_555 1_555
C42_3 C41_3 1_555 1_555
H22_3 C42_3 1_555 1_555
C43_3 N8 1_555 1_555
Zn6 N8 1_555 1_555
N7_3 C39_3 1_555 1_555
C37_3 C38_3 1_555 1_555
Zn1 O1_3 1_555 1_555
S1_3 C22_3 1_555 1_555
S2_3 C23_3 1_555 1_555
O1_3 C1_3 1_555 1_555
O2_3 C1_3 1_555 1_555
O9 C8_3 1_555 1_555
O10 C8_3 1_555 1_555
O5_3 Zn1 1_555 1_555
N1_3 Zn1 1_555 1_555
N2_3 C22_3 1_555 1_555
N3_3 C24_3 1_555 1_555
N9 C28_3 1_555 1_555
C1_3 C2_3 1_555 1_555
C2_3 C3_3 1_555 1_555
C3_3 H1_3 1_555 1_555
C4_3 C3_3 1_555 1_555
H2_3 C4_3 1_555 1_555
C5_3 C4_3 1_555 1_555
C6_3 C5_3 1_555 1_555
H3_3 C6_3 1_555 1_555
C7_3 C2_3 1_555 1_555
H4_3 C7_3 1_555 1_555
C8_3 C5_3 1_555 1_555
C17_3 N1_3 1_555 1_555
H9_3 C17_3 1_555 1_555
C18_3 C17_3 1_555 1_555
H10_3 C18_3 1_555 1_555
C19_3 C18_3 1_555 1_555
C20_3 C19_3 1_555 1_555
H11_3 C20_3 1_555 1_555
C21_3 N1_3 1_555 1_555
H12_3 C21_3 1_555 1_555
C22_3 C19_3 1_555 1_555
C23_3 N2_3 1_555 1_555
C24_3 S1_3 1_555 1_555
C25_3 S2_3 1_555 1_555
C26_3 C25_3 1_555 1_555
C27_3 C26_3 1_555 1_555
H13_3 C27_3 1_555 1_555
C28_3 C27_3 1_555 1_555
H14_3 C28_3 1_555 1_555
C29_3 N9 1_555 1_555
H15_3 C29_3 1_555 1_555
C30_3 C26_3 1_555 1_555
H16_3 C30_3 1_555 1_555
O11_2 Zn1 1_555 1_555
O12_2 Zn1 1_555 1_555
N3_3 C25_3 1_555 1_555
C6_3 C7_3 1_555 1_555
C20_3 C21_3 1_555 1_555
C23_3 C24_3 1_555 1_555
C29_3 C30_3 1_555 1_555
O6_3 Zn6 1_555 1_555
N5_3 Zn6 1_555 1_555
C10_3 C9_3 1_555 1_555
C11_3 C10_3 1_555 1_555
H5_3 C11_3 1_555 1_555
H7_3 C14_3 1_555 1_555
C15_3 C10_3 1_555 1_555
H8_3 C15_3 1_555 1_555
C31_3 N5_3 1_555 1_555
H17_3 C31_3 1_555 1_555
C35_3 N5_3 1_555 1_555
O6_3 C9_3 1_555 1_555
C14_3 C15_3 1_555 1_555
O7_2 C16_3 1_555 1_555
O8_2 C16_3 1_555 1_555
H6_3 C12_3 1_555 1_555
C13_3 C12_3 1_555 1_555
C16_3 C13_3 1_555 1_555
Zn4_2 O7_2 1_555 1_555
O8_2 Zn4_2 1_555 1_555
S3_4 C36_4 1_555 1_555
S4_4 C37_4 1_555 1_555
N6_4 C36_4 1_555 1_555
N7_4 C38_4 1_555 1_555
N8_2 C42_4 1_555 1_555
H18_4 C32_4 1_555 1_555
C33_4 C32_4 1_555 1_555
C34_4 C33_4 1_555 1_555
H19_4 C34_4 1_555 1_555
C36_4 C33_4 1_555 1_555
C37_4 N6_4 1_555 1_555
C38_4 S3_4 1_555 1_555
C39_4 S4_4 1_555 1_555
C40_4 C39_4 1_555 1_555
C41_4 C40_4 1_555 1_555
H21_4 C41_4 1_555 1_555
C42_4 C41_4 1_555 1_555
H22_4 C42_4 1_555 1_555
C43_4 N8_2 1_555 1_555
H23_3 C43_4 1_555 1_555
C44_3 C40_4 1_555 1_555
H24_3 C44_3 1_555 1_555
Zn6_2 N8_2 1_555 1_555
N7_4 C39_4 1_555 1_555
C37_4 C38_4 1_555 1_555
C43_4 C44_3 1_555 1_555
O11_2 C16_4 1_555 1_555
O12_2 C16_4 1_555 1_555
H6_4 C12_4 1_555 1_555
C13_4 C12_4 1_555 1_555
C16_4 C13_4 1_555 1_555
Zn4_2 O1_4 1_555 1_555
Zn6_2 O2_4 1_555 1_555
S1_4 C22_4 1_555 1_555
S2_4 C23_4 1_555 1_555
O1_4 C1_4 1_555 1_555
O2_4 C1_4 1_555 1_555
O9_2 C8_4 1_555 1_555
O10_2 C8_4 1_555 1_555
O5_4 Zn4_2 1_555 1_555
O6_4 Zn6_2 1_555 1_555
N1_4 Zn4_2 1_555 1_555
N2_4 C22_4 1_555 1_555
N3_4 C24_4 1_555 1_555
N9_2 C28_4 1_555 1_555
N5_4 Zn6_2 1_555 1_555
C1_4 C2_4 1_555 1_555
C2_4 C3_4 1_555 1_555
C3_4 H1_4 1_555 1_555
C4_4 C3_4 1_555 1_555
H2_4 C4_4 1_555 1_555
C5_4 C4_4 1_555 1_555
C6_4 C5_4 1_555 1_555
H3_4 C6_4 1_555 1_555
C7_4 C2_4 1_555 1_555
H4_4 C7_4 1_555 1_555
C8_4 C5_4 1_555 1_555
C9_4 O5_4 1_555 1_555
C10_4 C9_4 1_555 1_555
C11_4 C10_4 1_555 1_555
H5_4 C11_4 1_555 1_555
H7_4 C14_4 1_555 1_555
C15_4 C10_4 1_555 1_555
H8_4 C15_4 1_555 1_555
C17_4 N1_4 1_555 1_555
H9_4 C17_4 1_555 1_555
C18_4 C17_4 1_555 1_555
H10_4 C18_4 1_555 1_555
C19_4 C18_4 1_555 1_555
C20_4 C19_4 1_555 1_555
H11_4 C20_4 1_555 1_555
C21_4 N1_4 1_555 1_555
H12_4 C21_4 1_555 1_555
C22_4 C19_4 1_555 1_555
C23_4 N2_4 1_555 1_555
C24_4 S1_4 1_555 1_555
C25_4 S2_4 1_555 1_555
C26_4 C25_4 1_555 1_555
C27_4 C26_4 1_555 1_555
H13_4 C27_4 1_555 1_555
C28_4 C27_4 1_555 1_555
H14_4 C28_4 1_555 1_555
C29_4 N9_2 1_555 1_555
H15_4 C29_4 1_555 1_555
C30_4 C26_4 1_555 1_555
H16_4 C30_4 1_555 1_555
C31_4 N5_4 1_555 1_555
H17_4 C31_4 1_555 1_555
C35_4 N5_4 1_555 1_555
H20_4 C35_4 1_555 1_555
O6_4 C9_4 1_555 1_555
N3_4 C25_4 1_555 1_555
C6_4 C7_4 1_555 1_555
C14_4 C15_4 1_555 1_555
C20_4 C21_4 1_555 1_555
C23_4 C24_4 1_555 1_555
C29_4 C30_4 1_555 1_555
N8_3 C42_5 1_555 1_555
C41_5 C40_5 1_555 1_555
H21_5 C41_5 1_555 1_555
C42_5 C41_5 1_555 1_555
H22_5 C42_5 1_555 1_555
C43_5 N8_3 1_555 1_555
H23_4 C43_5 1_555 1_555
C44_4 C40_5 1_555 1_555
H24_4 C44_4 1_555 1_555
Zn5 N8_3 1_555 1_555
C43_5 C44_4 1_555 1_555
Zn1_2 O1_5 1_555 1_555
Zn5 O2_5 1_555 1_555
S3_5 C36_5 1_555 1_555
S4_5 C37_5 1_555 1_555
O1_5 C1_5 1_555 1_555
O2_5 C1_5 1_555 1_555
O3_3 C8_5 1_555 1_555
O4_3 C8_5 1_555 1_555
O5_5 Zn1_2 1_555 1_555
O6_5 Zn5 1_555 1_555
O7_3 C16_5 1_555 1_555
O8_3 C16_5 1_555 1_555
N1_5 Zn1_2 1_555 1_555
N5_5 Zn5 1_555 1_555
N6_5 C36_5 1_555 1_555
N7_5 C38_5 1_555 1_555
C1_5 C2_5 1_555 1_555
C2_5 C3_5 1_555 1_555
C3_5 H1_5 1_555 1_555
C4_5 C3_5 1_555 1_555
H2_5 C4_5 1_555 1_555
C5_5 C4_5 1_555 1_555
C6_5 C5_5 1_555 1_555
H3_5 C6_5 1_555 1_555
C7_5 C2_5 1_555 1_555
H4_5 C7_5 1_555 1_555
C8_5 C5_5 1_555 1_555
C9_5 O5_5 1_555 1_555
C10_5 C9_5 1_555 1_555
C11_5 C10_5 1_555 1_555
H5_5 C11_5 1_555 1_555
C12_5 C11_5 1_555 1_555
H6_5 C12_5 1_555 1_555
C13_5 C12_5 1_555 1_555
C14_5 C13_5 1_555 1_555
H7_5 C14_5 1_555 1_555
C15_5 C10_5 1_555 1_555
H8_5 C15_5 1_555 1_555
C16_5 C13_5 1_555 1_555
C17_5 N1_5 1_555 1_555
H9_5 C17_5 1_555 1_555
C18_5 C17_5 1_555 1_555
H10_5 C18_5 1_555 1_555
C19_5 C18_5 1_555 1_555
C20_5 C19_5 1_555 1_555
H11_5 C20_5 1_555 1_555
C21_5 N1_5 1_555 1_555
H12_5 C21_5 1_555 1_555
C22_5 C19_5 1_555 1_555
C31_5 N5_5 1_555 1_555
H17_5 C31_5 1_555 1_555
C32_5 C31_5 1_555 1_555
H18_5 C32_5 1_555 1_555
C33_5 C32_5 1_555 1_555
C34_5 C33_5 1_555 1_555
H19_5 C34_5 1_555 1_555
C35_5 N5_5 1_555 1_555
H20_5 C35_5 1_555 1_555
C36_5 C33_5 1_555 1_555
C37_5 N6_5 1_555 1_555
C38_5 S3_5 1_555 1_555
C39_5 S4_5 1_555 1_555
Zn4_3 O7_3 1_555 1_555
Zn6_3 O3_3 1_555 1_555
O9_3 Zn5 1_555 1_555
O10_3 Zn5 1_555 1_555
O11_3 Zn1_2 1_555 1_555
O12_3 Zn1_2 1_555 1_555
N9_3 Zn1_2 1_555 1_555
O4_3 Zn6_3 1_555 1_555
O6_5 C9_5 1_555 1_555
O8_3 Zn4_3 1_555 1_555
N7_5 C39_5 1_555 1_555
C6_5 C7_5 1_555 1_555
C14_5 C15_5 1_555 1_555
C20_5 C21_5 1_555 1_555
C34_5 C35_5 1_555 1_555
C37_5 C38_5 1_555 1_555
S2_5 C23_5 1_555 1_555
N3_5 C24_5 1_555 1_555
N9_3 C28_5 1_555 1_555
C23_5 N2_5 1_555 1_555
C24_5 S1_5 1_555 1_555
C25_5 S2_5 1_555 1_555
C26_5 C25_5 1_555 1_555
C27_5 C26_5 1_555 1_555
H13_5 C27_5 1_555 1_555
C28_5 C27_5 1_555 1_555
H14_5 C28_5 1_555 1_555
C29_5 N9_3 1_555 1_555
H15_5 C29_5 1_555 1_555
C30_5 C26_5 1_555 1_555
H16_5 C30_5 1_555 1_555
N3_5 C25_5 1_555 1_555
C23_5 C24_5 1_555 1_555
C29_5 C30_5 1_555 1_555
N8_4 C42_6 1_555 1_555
C41_6 C40_6 1_555 1_555
H21_6 C41_6 1_555 1_555
C42_6 C41_6 1_555 1_555
H22_6 C42_6 1_555 1_555
C43_6 N8_4 1_555 1_555
Zn5_2 N8_4 1_555 1_555
Zn4_3 O1_6 1_555 1_555
O1_6 C1_6 1_555 1_555
O2_6 C1_6 1_555 1_555
O3_4 C8_6 1_555 1_555
O4_4 C8_6 1_555 1_555
O5_6 Zn4_3 1_555 1_555
N1_6 Zn4_3 1_555 1_555
C1_6 C2_6 1_555 1_555
C2_6 C3_6 1_555 1_555
C3_6 H1_6 1_555 1_555
C4_6 C3_6 1_555 1_555
H2_6 C4_6 1_555 1_555
C5_6 C4_6 1_555 1_555
C6_6 C5_6 1_555 1_555
H3_6 C6_6 1_555 1_555
C7_6 C2_6 1_555 1_555
H4_6 C7_6 1_555 1_555
C8_6 C5_6 1_555 1_555
C17_6 N1_6 1_555 1_555
H9_6 C17_6 1_555 1_555
C18_6 C17_6 1_555 1_555
H10_6 C18_6 1_555 1_555
C19_6 C18_6 1_555 1_555
C20_6 C19_6 1_555 1_555
H11_6 C20_6 1_555 1_555
C21_6 N1_6 1_555 1_555
H12_6 C21_6 1_555 1_555
C22_6 C19_6 1_555 1_555
H19_6 C34_6 1_555 1_555
Zn6_4 O3_4 1_555 1_555
N9_4 Zn4_3 1_555 1_555
O4_4 Zn6_4 1_555 1_555
C6_6 C7_6 1_555 1_555
C20_6 C21_6 1_555 1_555
S3_6 C36_6 1_555 1_555
O6_6 Zn5_2 1_555 1_555
O11_3 C16_6 1_555 1_555
O12_3 C16_6 1_555 1_555
N5_6 Zn5_2 1_555 1_555
N7_6 C38_6 1_555 1_555
C10_6 C9_6 1_555 1_555
C11_6 C10_6 1_555 1_555
H5_6 C11_6 1_555 1_555
C12_6 C11_6 1_555 1_555
H6_6 C12_6 1_555 1_555
C13_6 C12_6 1_555 1_555
C14_6 C13_6 1_555 1_555
H7_6 C14_6 1_555 1_555
C15_6 C10_6 1_555 1_555
H8_6 C15_6 1_555 1_555
C16_6 C13_6 1_555 1_555
C31_6 N5_6 1_555 1_555
H17_6 C31_6 1_555 1_555
C32_6 C31_6 1_555 1_555
H18_6 C32_6 1_555 1_555
C33_6 C32_6 1_555 1_555
C35_6 N5_6 1_555 1_555
C36_6 C33_6 1_555 1_555
C38_6 S3_6 1_555 1_555
O9_4 Zn5_2 1_555 1_555
O10_4 Zn5_2 1_555 1_555
O6_6 C9_6 1_555 1_555
N7_6 C39_6 1_555 1_555
C14_6 C15_6 1_555 1_555
C37_6 C38_6 1_555 1_555
S2_6 C23_6 1_555 1_555
N3_6 C24_6 1_555 1_555
N9_4 C28_6 1_555 1_555
C23_6 N2_6 1_555 1_555
C24_6 S1_6 1_555 1_555
C25_6 S2_6 1_555 1_555
C26_6 C25_6 1_555 1_555
C27_6 C26_6 1_555 1_555
H13_6 C27_6 1_555 1_555
C28_6 C27_6 1_555 1_555
H14_6 C28_6 1_555 1_555
C29_6 N9_4 1_555 1_555
H15_6 C29_6 1_555 1_555
C30_6 C26_6 1_555 1_555
H16_6 C30_6 1_555 1_555
N3_6 C25_6 1_555 1_555
C23_6 C24_6 1_555 1_555
C29_6 C30_6 1_555 1_555
O7_4 C16_7 1_555 1_555
O8_4 C16_7 1_555 1_555
H6_7 C12_7 1_555 1_555
C13_7 C12_7 1_555 1_555
C16_7 C13_7 1_555 1_555
Zn4_4 O7_4 1_555 1_555
O8_4 Zn4_4 1_555 1_555
Zn3_2 O1_7 1_555 1_555
S1_7 C22_7 1_555 1_555
S2_7 C23_7 1_555 1_555
O1_7 C1_7 1_555 1_555
O2_7 C1_7 1_555 1_555
O9_3 C8_7 1_555 1_555
O10_3 C8_7 1_555 1_555
O5_7 Zn3_2 1_555 1_555
N1_7 Zn3_2 1_555 1_555
N2_7 C22_7 1_555 1_555
N3_7 C24_7 1_555 1_555
N4_3 C28_7 1_555 1_555
C1_7 C2_7 1_555 1_555
C2_7 C3_7 1_555 1_555
C3_7 H1_7 1_555 1_555
C4_7 C3_7 1_555 1_555
H2_7 C4_7 1_555 1_555
C5_7 C4_7 1_555 1_555
C6_7 C5_7 1_555 1_555
H3_7 C6_7 1_555 1_555
C7_7 C2_7 1_555 1_555
H4_7 C7_7 1_555 1_555
C8_7 C5_7 1_555 1_555
C17_7 N1_7 1_555 1_555
H9_7 C17_7 1_555 1_555
C18_7 C17_7 1_555 1_555
H10_7 C18_7 1_555 1_555
C19_7 C18_7 1_555 1_555
C20_7 C19_7 1_555 1_555
H11_7 C20_7 1_555 1_555
C21_7 N1_7 1_555 1_555
H12_7 C21_7 1_555 1_555
C22_7 C19_7 1_555 1_555
C23_7 N2_7 1_555 1_555
C24_7 S1_7 1_555 1_555
C25_7 S2_7 1_555 1_555
C26_7 C25_7 1_555 1_555
C27_7 C26_7 1_555 1_555
H13_7 C27_7 1_555 1_555
C28_7 C27_7 1_555 1_555
H14_7 C28_7 1_555 1_555
C29_7 N4_3 1_555 1_555
H15_7 C29_7 1_555 1_555
C30_7 C26_7 1_555 1_555
H16_7 C30_7 1_555 1_555
O11_4 Zn3_2 1_555 1_555
O12_4 Zn3_2 1_555 1_555
N3_7 C25_7 1_555 1_555
C6_7 C7_7 1_555 1_555
C20_7 C21_7 1_555 1_555
C23_7 C24_7 1_555 1_555
C29_7 C30_7 1_555 1_555
O6_7 Zn6_3 1_555 1_555
N5_7 Zn6_3 1_555 1_555
C10_7 C9_7 1_555 1_555
C11_7 C10_7 1_555 1_555
H5_7 C11_7 1_555 1_555
H7_7 C14_7 1_555 1_555
C15_7 C10_7 1_555 1_555
H8_7 C15_7 1_555 1_555
C31_7 N5_7 1_555 1_555
H17_7 C31_7 1_555 1_555
C35_7 N5_7 1_555 1_555
N10_3 Zn6_3 1_555 1_555
O6_7 C9_7 1_555 1_555
C14_7 C15_7 1_555 1_555
H19_7 C34_7 1_555 1_555
H24_5 C44_5 1_555 1_555
S3_7 C36_7 1_555 1_555
N7_7 C38_7 1_555 1_555
N10_3 C42_7 1_555 1_555
H18_7 C32_7 1_555 1_555
C33_7 C32_7 1_555 1_555
C36_7 C33_7 1_555 1_555
C38_7 S3_7 1_555 1_555
C40_7 C39_7 1_555 1_555
C41_7 C40_7 1_555 1_555
H21_7 C41_7 1_555 1_555
C42_7 C41_7 1_555 1_555
H22_7 C42_7 1_555 1_555
C43_7 N10_3 1_555 1_555
N7_7 C39_7 1_555 1_555
C37_7 C38_7 1_555 1_555
Zn4_4 O1_8 1_555 1_555
Zn6_4 O2_8 1_555 1_555
S1_8 C22_8 1_555 1_555
S2_8 C23_8 1_555 1_555
O1_8 C1_8 1_555 1_555
O2_8 C1_8 1_555 1_555
O9_4 C8_8 1_555 1_555
O10_4 C8_8 1_555 1_555
O5_8 Zn4_4 1_555 1_555
O6_8 Zn6_4 1_555 1_555
N1_8 Zn4_4 1_555 1_555
N2_8 C22_8 1_555 1_555
N3_8 C24_8 1_555 1_555
N4_4 C28_8 1_555 1_555
N5_8 Zn6_4 1_555 1_555
C1_8 C2_8 1_555 1_555
C2_8 C3_8 1_555 1_555
C3_8 H1_8 1_555 1_555
C4_8 C3_8 1_555 1_555
H2_8 C4_8 1_555 1_555
C5_8 C4_8 1_555 1_555
C6_8 C5_8 1_555 1_555
H3_8 C6_8 1_555 1_555
C7_8 C2_8 1_555 1_555
H4_8 C7_8 1_555 1_555
C8_8 C5_8 1_555 1_555
C9_8 O5_8 1_555 1_555
C10_8 C9_8 1_555 1_555
C11_8 C10_8 1_555 1_555
H5_8 C11_8 1_555 1_555
H7_8 C14_8 1_555 1_555
C15_8 C10_8 1_555 1_555
H8_8 C15_8 1_555 1_555
C17_8 N1_8 1_555 1_555
H9_8 C17_8 1_555 1_555
C18_8 C17_8 1_555 1_555
H10_8 C18_8 1_555 1_555
C19_8 C18_8 1_555 1_555
C20_8 C19_8 1_555 1_555
H11_8 C20_8 1_555 1_555
C21_8 N1_8 1_555 1_555
H12_8 C21_8 1_555 1_555
C22_8 C19_8 1_555 1_555
C23_8 N2_8 1_555 1_555
C24_8 S1_8 1_555 1_555
C25_8 S2_8 1_555 1_555
C26_8 C25_8 1_555 1_555
C27_8 C26_8 1_555 1_555
H13_8 C27_8 1_555 1_555
C28_8 C27_8 1_555 1_555
H14_8 C28_8 1_555 1_555
C29_8 N4_4 1_555 1_555
H15_8 C29_8 1_555 1_555
C30_8 C26_8 1_555 1_555
H16_8 C30_8 1_555 1_555
C31_8 N5_8 1_555 1_555
H17_8 C31_8 1_555 1_555
C35_8 N5_8 1_555 1_555
H20_8 C35_8 1_555 1_555
N10_4 Zn6_4 1_555 1_555
O6_8 C9_8 1_555 1_555
N3_8 C25_8 1_555 1_555
C6_8 C7_8 1_555 1_555
C14_8 C15_8 1_555 1_555
C20_8 C21_8 1_555 1_555
C23_8 C24_8 1_555 1_555
C29_8 C30_8 1_555 1_555
O11_4 C16_8 1_555 1_555
O12_4 C16_8 1_555 1_555
H6_8 C12_8 1_555 1_555
C13_8 C12_8 1_555 1_555
C16_8 C13_8 1_555 1_555
S3_8 C36_8 1_555 1_555
S4_8 C37_8 1_555 1_555
N6_8 C36_8 1_555 1_555
N7_8 C38_8 1_555 1_555
N10_4 C42_8 1_555 1_555
H18_8 C32_8 1_555 1_555
C33_8 C32_8 1_555 1_555
C34_8 C33_8 1_555 1_555
H19_8 C34_8 1_555 1_555
C36_8 C33_8 1_555 1_555
C37_8 N6_8 1_555 1_555
C38_8 S3_8 1_555 1_555
C39_8 S4_8 1_555 1_555
C40_8 C39_8 1_555 1_555
C41_8 C40_8 1_555 1_555
H21_8 C41_8 1_555 1_555
C42_8 C41_8 1_555 1_555
H22_8 C42_8 1_555 1_555
C43_8 N10_4 1_555 1_555
H23_6 C43_8 1_555 1_555
C44_6 C40_8 1_555 1_555
H24_6 C44_6 1_555 1_555
N7_8 C39_8 1_555 1_555
C37_8 C38_8 1_555 1_555
C43_8 C44_6 1_555 1_555
H24_7 C44_7 1_555 1_555
H24_8 C44_8 1_555 1_555

#END
