
###############################################################################
#
# This file contains modified crystal structure data generated from the
# MOF subset of the Cambridge Structural Database (CSD) v543 
# hosted by the Cambridge Crystallographic Data Centre (CCDC).
#
# This work is licensed under the Creative Commons
# Attribution-NonCommercial-ShareAlike 4.0 International License.
# To view a copy of this license, visit
# http://creativecommons.org/licenses/by-nc-sa/4.0/
# or send a letter to
# Creative Commons, PO Box 1866, Mountain View, CA 94042, USA.
#
# CIF created using the CSD Python API on 29 September 2022
# The structure has been converted into the P1 space group
# The structure has a 3D framework
# The original CSD entry OWILAJ is in the triclinic crystal system
# The framework has been calculated to contain at least 10.0% void space
# The void calculation uses a probe of radius 1.32A, grid spacing 0.4
# H atom positions have been added when not included in the experimental data
#
###############################################################################

data_OWILAJ
_chemical_formula_moiety         '(C184 H136 Cl4 O30 P4 Rh4 Zr3)n'
_symmetry_cell_setting           triclinic
_symmetry_space_group_name_H-M   'P 1'
_symmetry_Int_Tables_number      1
_space_group_name_Hall           'P 1'
loop_
_symmetry_equiv_pos_site_id
_symmetry_equiv_pos_as_xyz
1 x,y,z
_cell_length_a                   18.126(14)
_cell_length_b                   20.015(15)
_cell_length_c                   21.790(16)
_cell_angle_alpha                109.155(9)
_cell_angle_beta                 103.794(9)
_cell_angle_gamma                99.700(10)
_cell_volume                     6984.99
loop_
_atom_site_label
_atom_site_type_symbol
_atom_site_fract_x
_atom_site_fract_y
_atom_site_fract_z
Cl2 Cl 0.0173(6) 0.0216(6) 0.4130(6)
Zr11 Zr 0.00075(14) 0.50355(13) 0.88868(14)
Zr12 Zr 0.12812(14) 0.46769(14) 0.01423(13)
Rh1 Rh 0.9207(2) 0.9071(2) 0.3474(2)
Rh2 Rh 0.5586(2) 0.2701(3) 0.5477(2)
Cl1 Cl 0.5832(11) 0.2291(12) 0.4433(10)
P1 P 0.4259(6) 0.2461(6) 0.5085(5)
P2 P 0.8296(5) 0.9600(5) 0.3077(5)
O6 O 0.0277(10) 0.4122(9) 0.0359(9)
O7 O 0.1006(10) 0.5442(9) 0.0908(10)
O8 O 0.2431(9) 0.5543(10) 0.0639(9)
O9 O 0.2040(10) 0.6648(9) 0.0940(9)
O10 O 0.1801(10) 0.4498(10) 0.1074(10)
O11 O 0.0985(10) 0.4675(9) 0.1718(9)
O12 O 0.1825(11) 0.4522(11) 0.9297(13)
O13 O 0.1018(12) 0.4756(10) 0.8488(10)
C3 C 0.161(2) 0.4621(15) 0.882(2)
C16 C 0.686(3) 0.365(3) 0.615(3)
H9 H 0.7179 0.3913 0.5930
H12 H 0.7208 0.9860 0.2005
C23 C 0.3630(15) 0.1510(12) 0.4588(12)
C24 C 0.2861(18) 0.1344(15) 0.4605(13)
H14 H 0.2718 0.1650 0.4969
C25 C 0.2301(12) 0.0729(17) 0.4091(17)
H15 H 0.1775 0.0615 0.4103
C26 C 0.2510(17) 0.0280(13) 0.3560(14)
C27 C 0.328(2) 0.0447(15) 0.3542(13)
H16 H 0.3421 0.0140 0.3179
C28 C 0.3838(13) 0.1062(16) 0.4056(16)
H17 H 0.4364 0.1176 0.4044
H18 H 0.8364 0.9676 0.4380
C42 C 0.7228(17) 0.9020(16) 0.2681(17)
C43 C 0.707(2) 0.843(2) 0.202(2)
H26 H 0.7457 0.8381 0.1799
C44 C 0.631(2) 0.7937(19) 0.1728(19)
H27 H 0.6170 0.7538 0.1300
C45 C 0.576(2) 0.8052(19) 0.2089(19)
C46 C 0.589(2) 0.867(2) 0.273(2)
H28 H 0.5482 0.8761 0.2927
C47 C 0.666(3) 0.912(2) 0.302(2)
H29 H 0.6802 0.9500 0.3454
C48 C 0.4314(15) 0.7932(9) 0.1850(12)
H30 H 0.4415 0.8449 0.2069
C49 C 0.3543(12) 0.7489(13) 0.1574(13)
H31 H 0.3117 0.7704 0.1603
C50 C 0.3396(10) 0.6733(12) 0.1254(12)
C51 C 0.4020(13) 0.6419(9) 0.1211(11)
H32 H 0.3919 0.5902 0.0992
C52 C 0.4791(11) 0.6862(12) 0.1488(12)
H33 H 0.5217 0.6647 0.1458
C53 C 0.4938(10) 0.7618(12) 0.1807(12)
C54 C 0.888(3) 0.793(3) 0.400(3)
H34 H 0.8624 0.7859 0.4345
C55 C 0.2510(18) 0.6244(19) 0.0889(16)
C56 C 0.1620(18) 0.4497(15) 0.1608(17)
C57 C 0.2101(14) 0.4314(12) 0.2178(12)
C58 C 0.1868(12) 0.4342(13) 0.2747(15)
H35 H 0.1437 0.4535 0.2816
C59 C 0.2266(16) 0.4087(13) 0.3215(11)
H36 H 0.2107 0.4106 0.3603
C60 C 0.2897(15) 0.3805(13) 0.3113(13)
C61 C 0.3130(13) 0.3778(13) 0.2544(16)
H37 H 0.3561 0.3585 0.2475
C62 C 0.2732(16) 0.4032(14) 0.2076(12)
H38 H 0.2892 0.4014 0.1687
C63 C 0.3879(18) 0.2904(13) 0.4502(12)
C64 C 0.4368(12) 0.3257(13) 0.4235(13)
H39 H 0.4918 0.3297 0.4371
C65 C 0.4054(16) 0.3552(13) 0.3770(13)
H40 H 0.4389 0.3794 0.3587
C66 C 0.3250(17) 0.3493(14) 0.3571(13)
C67 C 0.2761(12) 0.3140(16) 0.3838(16)
H41 H 0.2212 0.3100 0.3703
C68 C 0.3075(16) 0.2845(15) 0.4304(15)
H42 H 0.2740 0.2603 0.4486
C69 C 0.3910(14) 0.2905(16) 0.5787(13)
C70 C 0.3895(15) 0.2610(13) 0.6281(16)
H43 H 0.4077 0.2186 0.6254
C71 C 0.3614(16) 0.2935(17) 0.6814(13)
H44 H 0.3604 0.2734 0.7152
C72 C 0.3347(15) 0.3555(17) 0.6854(13)
C73 C 0.3362(16) 0.3850(13) 0.6360(18)
H45 H 0.3180 0.4274 0.6386
C74 C 0.3643(17) 0.3524(16) 0.5826(14)
H46 H 0.3653 0.3726 0.5488
C75 C 0.292(2) 0.386(2) 0.730(2)
C76 C 0.2986(19) 0.3711(18) 0.7925(19)
H47 H 0.3326 0.3418 0.8017
C77 C 0.2595(17) 0.3957(16) 0.8386(17)
H48 H 0.2676 0.3838 0.8781
C78 C 0.2074(15) 0.4385(15) 0.8275(15)
C79 C 0.198(2) 0.4582(19) 0.772(2)
H49 H 0.1658 0.4886 0.7630
C80 C 0.244(2) 0.4280(19) 0.728(2)
H50 H 0.2368 0.4412 0.6892
C81 C 0.974(3) 0.856(3) 0.424(3)
C83 C 0.836(2) 0.805(2) 0.327(2)
H53 H 0.7789 0.8021 0.3177
C84 C 0.938(2) 0.771(2) 0.308(2)
H54 H 0.9579 0.7400 0.2729
C85 C 0.866(2) 0.7921(19) 0.277(2)
H55 H 0.8362 0.7742 0.2270
C86 C 0.923(3) 0.734(3) 0.360(3)
H56 H 0.8855 0.6850 0.3367
H57 H 0.9730 0.7315 0.3893
C87 C 0.644(4) 0.405(4) 0.664(3)
H58 H 0.6546 0.4597 0.6802
C88 C 0.560(3) 0.360(3) 0.642(3)
H59 H 0.5143 0.3813 0.6464
C89 C 0.569(3) 0.287(3) 0.657(3)
H60 H 0.5309 0.2587 0.6713
C90 C 0.687(4) 0.370(3) 0.715(3)
H61 H 0.6704 0.3816 0.7564
H62 H 0.7448 0.3873 0.7278
C91 C 0.653(4) 0.285(3) 0.666(3)
H63 H 0.6705 0.2500 0.6862
C92 C 0.675(3) 0.282(3) 0.600(3)
H64 H 0.7094 0.2522 0.5815
Zr7 Zr 0.07441(14) 0.63288(13) 0.05739(13)
O26 O 0.0573(11) 0.5974(10) 0.2098(9)
H66 H 0.195179 0.353808 0.017016
O3 O 0.1475(10) 0.3535(9) 0.9830(9)
O4 O 0.0273(10) 0.4168(10) 0.9225(10)
O20 O 0.0988(10) 0.5528(10) 0.9784(10)
H65 H 0.154907 0.338946 0.937178
O1 O 0.0438(10) 0.7320(10) 0.0803(11)
C1 C 0.0269(18) 0.762(2) 0.1356(15)
C10 C 0.185(2) 0.9618(15) 0.2942(15)
C11 C 0.2110(13) 0.918(2) 0.244(2)
H5 H 0.2648 0.9301 0.2463
C12 C 0.158(2) 0.8558(17) 0.1908(16)
H6 H 0.1756 0.8258 0.1566
C13 C 0.0793(18) 0.8378(13) 0.1875(14)
C14 C 0.0536(15) 0.8818(19) 0.2376(18)
C15 C 0.107(2) 0.9437(18) 0.2909(15)
H8 H 0.0890 0.9738 0.3251
H67 H 0.043492 0.727414 0.163123
O25 O 0.1120(11) 0.6854(10) 0.1757(11)
O27 O 0.0566(10) 0.6071(10) 0.8778(9)
O28 O 0.1093(10) 0.6900(9) 0.9896(11)
C2 C 0.0893(18) 0.6685(18) 0.930(2)
C4 C 0.1014(17) 0.7312(15) 0.8979(17)
C5 C 0.0598(15) 0.7173(13) 0.8306(16)
H1 H 0.0241 0.6705 0.8023
C6 C 0.0705(17) 0.7718(19) 0.8047(12)
H2 H 0.0421 0.7623 0.7586
C7 C 0.1227(18) 0.8402(16) 0.8461(18)
C8 C 0.1643(15) 0.8542(13) 0.9134(17)
H3 H 0.2000 0.9010 0.9417
C9 C 0.1537(16) 0.7997(18) 0.9393(12)
H4 H 0.1821 0.8092 0.9854
C17 C 0.133(3) 0.895(3) 0.819(3)
C18 C 0.076(3) 0.910(2) 0.776(2)
H10 H 0.0221 0.8859 0.7671
C19 C 0.206(3) 0.941(3) 0.824(3)
H11 H 0.2502 0.9391 0.8565
C20 C 0.227(2) 0.988(2) 0.792(2)
C21 C 0.091(3) 0.957(2) 0.744(2)
H13 H 0.0475 0.9665 0.7168
C22 C 0.166(2) 0.992(2) 0.751(2)
C29 C 0.1702(12) 0.9854(10) 0.5589(14)
C30 C 0.1729(13) 0.9360(14) 0.4979(11)
H19 H 0.1682 0.9492 0.4593
C31 C 0.1826(13) 0.8673(13) 0.4933(11)
C32 C 0.1895(13) 0.8479(10) 0.5497(15)
H20 H 0.1961 0.8010 0.5466
C33 C 0.1867(13) 0.8973(14) 0.6107(12)
H21 H 0.1915 0.8841 0.6493
C34 C 0.1771(12) 0.9661(12) 0.6153(10)
C35 C 0.1706(12) 0.7809(13) 0.3088(11)
H22 H 0.1867 0.7964 0.2760
C36 C 0.1265(12) 0.7092(11) 0.2893(9)
C37 C 0.1031(12) 0.6866(10) 0.3372(14)
H23 H 0.0729 0.6376 0.3238
C38 C 0.1238(14) 0.7358(15) 0.4046(12)
H24 H 0.1077 0.7204 0.4374
C39 C 0.1679(14) 0.8075(13) 0.4241(9)
C40 C 0.1913(11) 0.8301(9) 0.3762(12)
H25 H 0.2215 0.8791 0.3895
C41 C 0.095(2) 0.660(2) 0.2150(19)
H51 H 0.0087 0.8850 0.4721
C82 C 0.002(2) 0.845(2) 0.357(2)
H52 H 0.0573 0.8586 0.3575
O14 O 0.8880(11) 0.3146(10) 0.8243(11)
O15 O 0.9427(11) 0.4026(10) 0.7902(9)
O16 O 0.9434(10) 0.3929(10) 0.1222(9)
O17 O 0.8907(10) 0.3100(9) 0.0104(11)
C2_2 C 0.9107(18) 0.3315(18) 0.070(2)
C4_2 C 0.8986(17) 0.2688(15) 0.1021(17)
C5_2 C 0.9402(15) 0.2827(13) 0.1694(16)
H1_2 H 0.9759 0.3295 0.1977
C6_2 C 0.9295(17) 0.2282(19) 0.1953(12)
H2_2 H 0.9579 0.2377 0.2414
C7_2 C 0.8773(18) 0.1598(16) 0.1539(18)
C8_2 C 0.8357(15) 0.1458(13) 0.0866(17)
H3_2 H 0.8000 0.0990 0.0583
C9_2 C 0.8463(16) 0.2003(18) 0.0607(12)
H4_2 H 0.8179 0.1908 0.0146
C17_2 C 0.867(3) 0.105(3) 0.181(3)
C18_2 C 0.924(3) 0.090(2) 0.224(2)
H10_2 H 0.9779 0.1141 0.2329
C19_2 C 0.794(3) 0.059(3) 0.176(3)
H11_2 H 0.7498 0.0609 0.1435
C20_2 C 0.773(2) 0.012(2) 0.208(2)
C21_2 C 0.909(3) 0.043(2) 0.256(2)
H13_2 H 0.9525 0.0335 0.2832
C22_2 C 0.834(2) 0.008(2) 0.249(2)
C29_2 C 0.8298(12) 0.0146(10) 0.4411(14)
C30_2 C 0.8271(13) 0.0640(14) 0.5021(11)
H19_2 H 0.8318 0.0508 0.5407
C31_2 C 0.8174(13) 0.1327(13) 0.5067(11)
C32_2 C 0.8105(13) 0.1521(10) 0.4503(15)
H20_2 H 0.8039 0.1990 0.4534
C33_2 C 0.8133(13) 0.1027(14) 0.3893(12)
H21_2 H 0.8085 0.1159 0.3507
C34_2 C 0.8229(12) 0.0339(12) 0.3847(10)
C35_2 C 0.8294(12) 0.2191(13) 0.6912(11)
H22_2 H 0.8133 0.2036 0.7240
C36_2 C 0.8735(12) 0.2908(11) 0.7107(9)
C37_2 C 0.8969(12) 0.3134(10) 0.6628(14)
H23_2 H 0.9271 0.3624 0.6762
C38_2 C 0.8762(14) 0.2642(15) 0.5954(12)
H24_2 H 0.8923 0.2796 0.5626
C39_2 C 0.8321(14) 0.1925(13) 0.5759(9)
C40_2 C 0.8087(11) 0.1699(9) 0.6238(12)
H25_2 H 0.7785 0.1209 0.6105
C41_2 C 0.905(2) 0.340(2) 0.7850(19)
Zr5 Zr 0.92559(14) 0.36712(13) 0.94261(13)
Zr8 Zr 0.99925(14) 0.49645(13) 0.11132(14)
O5 O 0.9012(10) 0.4472(10) 0.0216(10)
O19 O 0.9727(10) 0.5832(10) 0.0775(10)
O24 O 0.8982(12) 0.5244(10) 0.1512(10)
Zr13 Zr 0.87188(14) 0.53231(14) 0.98577(13)
O18 O 0.9562(10) 0.2680(10) 0.9197(11)
O21 O 0.8994(10) 0.4558(9) 0.9092(10)
O22 O 0.7960(10) 0.3352(9) 0.9060(9)
C1_2 C 0.9731(18) 0.238(2) 0.8644(15)
C10_2 C 0.815(2) 0.0382(15) 0.7058(15)
C11_2 C 0.7890(13) 0.082(2) 0.756(2)
H5_2 H 0.7352 0.0699 0.7537
C12_2 C 0.842(2) 0.1442(17) 0.8092(16)
H6_2 H 0.8244 0.1742 0.8434
C13_2 C 0.9207(18) 0.1622(13) 0.8125(14)
C14_2 C 0.9464(15) 0.1182(19) 0.7624(18)
C15_2 C 0.893(2) 0.0563(18) 0.7091(15)
H8_2 H 0.9110 0.0262 0.6749
H67_2 H 0.956508 0.272586 0.836877
O3_2 O 0.8525(10) 0.6465(9) 0.0170(9)
O23 O 0.8175(11) 0.5478(11) 0.0703(13)
H65_2 H 0.845093 0.661054 0.0628223
Rh1_2 Rh 0.0793(2) 0.0929(2) 0.6526(2)
Rh2_2 Rh 0.4414(2) 0.7299(3) 0.4523(2)
Cl1_2 Cl 0.4168(11) 0.7709(12) 0.5567(10)
P1_2 P 0.5741(6) 0.7539(6) 0.4915(5)
P2_2 P 0.1704(5) 0.0400(5) 0.6923(5)
O6_2 O 0.9723(10) 0.5878(9) 0.9641(9)
O8_2 O 0.7569(9) 0.4457(10) 0.9361(9)
O10_2 O 0.8199(10) 0.5502(10) 0.8926(10)
O11_2 O 0.9015(10) 0.5325(9) 0.8282(9)
C3_2 C 0.839(2) 0.5379(15) 0.118(2)
C16_2 C 0.314(3) 0.635(3) 0.385(3)
H9_2 H 0.2821 0.6087 0.4070
H12_2 H 0.2792 0.0140 0.7995
C23_2 C 0.6370(15) 0.8490(12) 0.5412(12)
C24_2 C 0.7139(18) 0.8656(15) 0.5395(13)
H14_2 H 0.7282 0.8350 0.5031
C25_2 C 0.7699(12) 0.9271(17) 0.5909(17)
H15_2 H 0.8225 0.9385 0.5897
C26_2 C 0.7490(17) 0.9720(13) 0.6440(14)
C27_2 C 0.672(2) 0.9553(15) 0.6458(13)
H16_2 H 0.6579 0.9860 0.6821
C28_2 C 0.6162(13) 0.8938(16) 0.5944(16)
H17_2 H 0.5636 0.8824 0.5956
H18_2 H 0.1636 0.0324 0.5620
C42_2 C 0.2772(17) 0.0980(16) 0.7319(17)
C43_2 C 0.293(2) 0.157(2) 0.798(2)
H26_2 H 0.2543 0.1619 0.8201
C44_2 C 0.369(2) 0.2063(19) 0.8272(19)
H27_2 H 0.3830 0.2462 0.8700
C45_2 C 0.424(2) 0.1948(19) 0.7911(19)
C46_2 C 0.411(2) 0.133(2) 0.727(2)
H28_2 H 0.4518 0.1239 0.7073
C47_2 C 0.334(3) 0.088(2) 0.698(2)
H29_2 H 0.3198 0.0500 0.6546
C48_2 C 0.5686(15) 0.2068(9) 0.8150(12)
H30_2 H 0.5585 0.1551 0.7931
C49_2 C 0.6457(12) 0.2511(13) 0.8426(13)
H31_2 H 0.6883 0.2296 0.8397
C50_2 C 0.6604(10) 0.3267(12) 0.8746(12)
C51_2 C 0.5980(13) 0.3581(9) 0.8789(11)
H32_2 H 0.6081 0.4098 0.9008
C52_2 C 0.5209(11) 0.3138(12) 0.8512(12)
H33_2 H 0.4783 0.3353 0.8542
C53_2 C 0.5062(10) 0.2382(12) 0.8193(12)
C54_2 C 0.112(3) 0.207(3) 0.600(3)
H34_2 H 0.1376 0.2141 0.5655
C55_2 C 0.7490(18) 0.3756(19) 0.9111(16)
C56_2 C 0.8380(18) 0.5503(15) 0.8392(17)
C57_2 C 0.7899(14) 0.5686(12) 0.7822(12)
C58_2 C 0.8132(12) 0.5658(13) 0.7253(15)
H35_2 H 0.8563 0.5465 0.7184
C59_2 C 0.7734(16) 0.5913(13) 0.6785(11)
H36_2 H 0.7893 0.5894 0.6397
C60_2 C 0.7103(15) 0.6195(13) 0.6887(13)
C61_2 C 0.6870(13) 0.6222(13) 0.7456(16)
H37_2 H 0.6439 0.6415 0.7525
C62_2 C 0.7268(16) 0.5968(14) 0.7924(12)
H38_2 H 0.7108 0.5986 0.8313
C63_2 C 0.6121(18) 0.7096(13) 0.5498(12)
C64_2 C 0.5632(12) 0.6743(13) 0.5765(13)
H39_2 H 0.5082 0.6703 0.5629
C65_2 C 0.5946(16) 0.6448(13) 0.6230(13)
H40_2 H 0.5611 0.6206 0.6413
C66_2 C 0.6750(17) 0.6507(14) 0.6429(13)
C67_2 C 0.7239(12) 0.6860(16) 0.6162(16)
H41_2 H 0.7788 0.6900 0.6297
C68_2 C 0.6925(16) 0.7155(15) 0.5696(15)
H42_2 H 0.7260 0.7397 0.5514
C69_2 C 0.6090(14) 0.7095(16) 0.4213(13)
C70_2 C 0.6105(15) 0.7390(13) 0.3719(16)
H43_2 H 0.5923 0.7814 0.3746
C71_2 C 0.6386(16) 0.7065(17) 0.3186(13)
H44_2 H 0.6396 0.7266 0.2848
C72_2 C 0.6653(15) 0.6445(17) 0.3146(13)
C73_2 C 0.6638(16) 0.6150(13) 0.3640(18)
H45_2 H 0.6820 0.5726 0.3614
C74_2 C 0.6357(17) 0.6476(16) 0.4174(14)
H46_2 H 0.6347 0.6274 0.4512
C75_2 C 0.708(2) 0.614(2) 0.270(2)
C76_2 C 0.7014(19) 0.6289(18) 0.2075(19)
H47_2 H 0.6674 0.6582 0.1983
C77_2 C 0.7405(17) 0.6043(16) 0.1614(17)
H48_2 H 0.7324 0.6162 0.1219
C78_2 C 0.7926(15) 0.5615(15) 0.1725(15)
C79_2 C 0.802(2) 0.5418(19) 0.228(2)
H49_2 H 0.8342 0.5114 0.2370
C80_2 C 0.756(2) 0.5720(19) 0.272(2)
H50_2 H 0.7632 0.5588 0.3108
C81_2 C 0.026(3) 0.144(3) 0.576(3)
C83_2 C 0.164(2) 0.195(2) 0.673(2)
H53_2 H 0.2211 0.1979 0.6823
C84_2 C 0.062(2) 0.229(2) 0.692(2)
H54_2 H 0.0421 0.2600 0.7271
C85_2 C 0.134(2) 0.2079(19) 0.723(2)
H55_2 H 0.1638 0.2258 0.7730
C86_2 C 0.077(3) 0.266(3) 0.640(3)
H56_2 H 0.1145 0.3150 0.6633
H57_2 H 0.0270 0.2685 0.6107
C87_2 C 0.356(4) 0.595(4) 0.336(3)
H58_2 H 0.3454 0.5403 0.3198
C88_2 C 0.440(3) 0.640(3) 0.358(3)
H59_2 H 0.4857 0.6187 0.3536
C89_2 C 0.431(3) 0.713(3) 0.343(3)
H60_2 H 0.4691 0.7413 0.3287
C90_2 C 0.313(4) 0.630(3) 0.285(3)
H61_2 H 0.3296 0.6184 0.2436
H62_2 H 0.2552 0.6127 0.2722
C91_2 C 0.347(4) 0.715(3) 0.334(3)
H63_2 H 0.3295 0.7500 0.3138
C92_2 C 0.325(3) 0.718(3) 0.400(3)
H64_2 H 0.2906 0.7478 0.4185
H66_2 H 0.804821 0.646192 0.982984
Cl2_2 Cl 0.9827(6) 0.9784(6) 0.5870(6)
O2 O 0.9499(17) 0.7478(18) 0.1263(16)
H7 H 0.9998 0.8694 0.2354
H68 H 0.926938 0.693938 0.109352
O2_2 O 0.0501(17) 0.2522(18) 0.8737(16)
H7_2 H 0.0002 0.1306 0.7646
H68_2 H 0.0730617 0.306062 0.890648
H51_2 H 0.9913 0.1150 0.5279
C82_2 C 0.998(2) 0.155(2) 0.643(2)
H52_2 H 0.9427 0.1414 0.6425
loop_
_geom_bond_atom_site_label_1
_geom_bond_atom_site_label_2
_geom_bond_site_symmetry_1
_geom_bond_site_symmetry_2
Rh2 Cl1 1_555 1_555
P1 Rh2 1_555 1_555
P2 Rh1 1_555 1_555
O8 Zr12 1_555 1_555
O9 C55 1_555 1_555
O10 Zr12 1_555 1_555
O12 C3 1_555 1_555
O13 C3 1_555 1_555
C3 C78 1_555 1_555
C16 Rh2 1_555 1_555
H9 C16 1_555 1_555
C23 P1 1_555 1_555
C24 C23 1_555 1_555
H14 C24 1_555 1_555
C25 C24 1_555 1_555
H15 C25 1_555 1_555
C27 C26 1_555 1_555
H16 C27 1_555 1_555
C28 C23 1_555 1_555
H17 C28 1_555 1_555
C42 P2 1_555 1_555
C43 C42 1_555 1_555
H26 C43 1_555 1_555
C44 C43 1_555 1_555
H27 C44 1_555 1_555
C45 C44 1_555 1_555
C46 C45 1_555 1_555
H28 C46 1_555 1_555
C47 C42 1_555 1_555
H29 C47 1_555 1_555
C48 H30 1_555 1_555
C49 C48 1_555 1_555
H31 C49 1_555 1_555
C50 C49 1_555 1_555
C51 C50 1_555 1_555
H32 C51 1_555 1_555
C52 C51 1_555 1_555
H33 C52 1_555 1_555
C53 C45 1_555 1_555
C54 H34 1_555 1_555
C55 O8 1_555 1_555
C56 O10 1_555 1_555
C57 C56 1_555 1_555
C58 C57 1_555 1_555
H35 C58 1_555 1_555
C59 C58 1_555 1_555
H36 C59 1_555 1_555
C60 C59 1_555 1_555
C61 C60 1_555 1_555
H37 C61 1_555 1_555
C62 C57 1_555 1_555
H38 C62 1_555 1_555
C63 P1 1_555 1_555
C64 C63 1_555 1_555
H39 C64 1_555 1_555
C65 C64 1_555 1_555
H40 C65 1_555 1_555
C66 C60 1_555 1_555
C67 C66 1_555 1_555
H41 C67 1_555 1_555
C68 C63 1_555 1_555
H42 C68 1_555 1_555
C69 P1 1_555 1_555
C70 C69 1_555 1_555
H43 C70 1_555 1_555
C71 C70 1_555 1_555
H44 C71 1_555 1_555
C72 C71 1_555 1_555
C73 C72 1_555 1_555
H45 C73 1_555 1_555
C74 C69 1_555 1_555
H46 C74 1_555 1_555
C75 C72 1_555 1_555
C76 C75 1_555 1_555
H47 C76 1_555 1_555
C77 C76 1_555 1_555
H48 C77 1_555 1_555
C78 C77 1_555 1_555
C79 C78 1_555 1_555
H49 C79 1_555 1_555
C80 C75 1_555 1_555
H50 C80 1_555 1_555
C81 Rh1 1_555 1_555
C83 Rh1 1_555 1_555
H53 C83 1_555 1_555
H54 C84 1_555 1_555
C85 Rh1 1_555 1_555
H55 C85 1_555 1_555
C86 C54 1_555 1_555
H56 C86 1_555 1_555
H57 C86 1_555 1_555
C87 C16 1_555 1_555
H58 C87 1_555 1_555
C88 Rh2 1_555 1_555
H59 C88 1_555 1_555
C89 Rh2 1_555 1_555
H60 C89 1_555 1_555
C90 C87 1_555 1_555
H61 C90 1_555 1_555
H62 C90 1_555 1_555
C91 C89 1_555 1_555
H63 C91 1_555 1_555
C92 Rh2 1_555 1_555
H64 C92 1_555 1_555
Zr7 O7 1_555 1_555
Zr11 O13 1_555 1_555
Zr12 O6 1_555 1_555
Zr12 O7 1_555 1_555
O9 Zr7 1_555 1_555
O11 C56 1_555 1_555
C16 C92 1_555 1_555
C25 C26 1_555 1_555
C27 C28 1_555 1_555
C46 C47 1_555 1_555
C48 C53 1_555 1_555
C50 C55 1_555 1_555
C52 C53 1_555 1_555
C54 C81 1_555 1_555
C54 C83 1_555 1_555
C61 C62 1_555 1_555
C65 C66 1_555 1_555
C67 C68 1_555 1_555
C73 C74 1_555 1_555
C79 C80 1_555 1_555
C83 C85 1_555 1_555
C84 C85 1_555 1_555
C84 C86 1_555 1_555
C87 C88 1_555 1_555
C88 C89 1_555 1_555
C90 C91 1_555 1_555
C91 C92 1_555 1_555
Zr11 O4 1_555 1_555
Zr11 O20 1_555 1_555
O3 H65 1_555 1_555
O1 C1 1_555 1_555
C10 C11 1_555 1_555
C11 H5 1_555 1_555
C12 C11 1_555 1_555
H6 C12 1_555 1_555
C13 C1 1_555 1_555
C14 C13 1_555 1_555
C15 C10 1_555 1_555
H8 C15 1_555 1_555
Zr7 O1 1_555 1_555
C12 C13 1_555 1_555
C14 C15 1_555 1_555
C1 H67 1_555 1_555
O25 Zr7 1_555 1_555
O27 Zr11 1_555 1_555
O25 C41 1_555 1_555
O26 C41 1_555 1_555
O27 C2 1_555 1_555
O28 C2 1_555 1_555
C2 C4 1_555 1_555
C4 C5 1_555 1_555
C5 H1 1_555 1_555
C6 C5 1_555 1_555
H2 C6 1_555 1_555
C7 C6 1_555 1_555
C8 C7 1_555 1_555
H3 C8 1_555 1_555
C9 C4 1_555 1_555
H4 C9 1_555 1_555
C17 C7 1_555 1_555
C18 C17 1_555 1_555
H10 C18 1_555 1_555
C19 C17 1_555 1_555
H11 C19 1_555 1_555
C20 C19 1_555 1_555
C21 C18 1_555 1_555
H13 C21 1_555 1_555
C30 C29 1_555 1_555
H19 C30 1_555 1_555
C31 C30 1_555 1_555
C32 C31 1_555 1_555
H20 C32 1_555 1_555
C33 C32 1_555 1_555
H21 C33 1_555 1_555
C35 H22 1_555 1_555
C36 C35 1_555 1_555
C37 C36 1_555 1_555
H23 C37 1_555 1_555
C38 C37 1_555 1_555
H24 C38 1_555 1_555
C39 C31 1_555 1_555
C40 C35 1_555 1_555
H25 C40 1_555 1_555
C41 C36 1_555 1_555
C8 C9 1_555 1_555
C20 C22 1_555 1_555
C21 C22 1_555 1_555
C29 C34 1_555 1_555
C33 C34 1_555 1_555
C38 C39 1_555 1_555
C39 C40 1_555 1_555
H52 C82 1_555 1_555
O14 C41_2 1_555 1_555
O15 C41_2 1_555 1_555
O16 C2_2 1_555 1_555
O17 C2_2 1_555 1_555
C2_2 C4_2 1_555 1_555
C4_2 C5_2 1_555 1_555
C5_2 H1_2 1_555 1_555
C6_2 C5_2 1_555 1_555
H2_2 C6_2 1_555 1_555
C7_2 C6_2 1_555 1_555
C8_2 C7_2 1_555 1_555
H3_2 C8_2 1_555 1_555
C9_2 C4_2 1_555 1_555
H4_2 C9_2 1_555 1_555
C17_2 C7_2 1_555 1_555
C18_2 C17_2 1_555 1_555
H10_2 C18_2 1_555 1_555
C19_2 C17_2 1_555 1_555
H11_2 C19_2 1_555 1_555
C20_2 C19_2 1_555 1_555
C21_2 C18_2 1_555 1_555
H13_2 C21_2 1_555 1_555
C30_2 C29_2 1_555 1_555
H19_2 C30_2 1_555 1_555
C31_2 C30_2 1_555 1_555
C32_2 C31_2 1_555 1_555
H20_2 C32_2 1_555 1_555
C33_2 C32_2 1_555 1_555
H21_2 C33_2 1_555 1_555
C35_2 H22_2 1_555 1_555
C36_2 C35_2 1_555 1_555
C37_2 C36_2 1_555 1_555
H23_2 C37_2 1_555 1_555
C38_2 C37_2 1_555 1_555
H24_2 C38_2 1_555 1_555
C39_2 C31_2 1_555 1_555
C40_2 C35_2 1_555 1_555
H25_2 C40_2 1_555 1_555
C41_2 C36_2 1_555 1_555
Zr5 O14 1_555 1_555
Zr8 O16 1_555 1_555
C8_2 C9_2 1_555 1_555
C20_2 C22_2 1_555 1_555
C21_2 C22_2 1_555 1_555
C29_2 C34_2 1_555 1_555
C33_2 C34_2 1_555 1_555
C38_2 C39_2 1_555 1_555
C39_2 C40_2 1_555 1_555
Zr8 O5 1_555 1_555
O19 Zr8 1_555 1_555
O24 Zr8 1_555 1_555
O18 Zr5 1_555 1_555
O21 Zr5 1_555 1_555
O22 Zr5 1_555 1_555
Zr13 O21 1_555 1_555
O18 C1_2 1_555 1_555
C10_2 C11_2 1_555 1_555
C11_2 H5_2 1_555 1_555
C12_2 C11_2 1_555 1_555
H6_2 C12_2 1_555 1_555
C13_2 C1_2 1_555 1_555
C14_2 C13_2 1_555 1_555
C15_2 C10_2 1_555 1_555
H8_2 C15_2 1_555 1_555
C12_2 C13_2 1_555 1_555
C14_2 C15_2 1_555 1_555
C1_2 H67_2 1_555 1_555
O3_2 H65_2 1_555 1_555
Rh2_2 Cl1_2 1_555 1_555
P1_2 Rh2_2 1_555 1_555
P2_2 Rh1_2 1_555 1_555
O8_2 Zr13 1_555 1_555
O22 C55_2 1_555 1_555
O10_2 Zr13 1_555 1_555
O23 C3_2 1_555 1_555
O24 C3_2 1_555 1_555
C3_2 C78_2 1_555 1_555
C16_2 Rh2_2 1_555 1_555
H9_2 C16_2 1_555 1_555
C23_2 P1_2 1_555 1_555
C24_2 C23_2 1_555 1_555
H14_2 C24_2 1_555 1_555
C25_2 C24_2 1_555 1_555
H15_2 C25_2 1_555 1_555
C27_2 C26_2 1_555 1_555
H16_2 C27_2 1_555 1_555
C28_2 C23_2 1_555 1_555
H17_2 C28_2 1_555 1_555
C42_2 P2_2 1_555 1_555
C43_2 C42_2 1_555 1_555
H26_2 C43_2 1_555 1_555
C44_2 C43_2 1_555 1_555
H27_2 C44_2 1_555 1_555
C45_2 C44_2 1_555 1_555
C46_2 C45_2 1_555 1_555
H28_2 C46_2 1_555 1_555
C47_2 C42_2 1_555 1_555
H29_2 C47_2 1_555 1_555
C48_2 H30_2 1_555 1_555
C49_2 C48_2 1_555 1_555
H31_2 C49_2 1_555 1_555
C50_2 C49_2 1_555 1_555
C51_2 C50_2 1_555 1_555
H32_2 C51_2 1_555 1_555
C52_2 C51_2 1_555 1_555
H33_2 C52_2 1_555 1_555
C53_2 C45_2 1_555 1_555
C54_2 H34_2 1_555 1_555
C55_2 O8_2 1_555 1_555
C56_2 O10_2 1_555 1_555
C57_2 C56_2 1_555 1_555
C58_2 C57_2 1_555 1_555
H35_2 C58_2 1_555 1_555
C59_2 C58_2 1_555 1_555
H36_2 C59_2 1_555 1_555
C60_2 C59_2 1_555 1_555
C61_2 C60_2 1_555 1_555
H37_2 C61_2 1_555 1_555
C62_2 C57_2 1_555 1_555
H38_2 C62_2 1_555 1_555
C63_2 P1_2 1_555 1_555
C64_2 C63_2 1_555 1_555
H39_2 C64_2 1_555 1_555
C65_2 C64_2 1_555 1_555
H40_2 C65_2 1_555 1_555
C66_2 C60_2 1_555 1_555
C67_2 C66_2 1_555 1_555
H41_2 C67_2 1_555 1_555
C68_2 C63_2 1_555 1_555
H42_2 C68_2 1_555 1_555
C69_2 P1_2 1_555 1_555
C70_2 C69_2 1_555 1_555
H43_2 C70_2 1_555 1_555
C71_2 C70_2 1_555 1_555
H44_2 C71_2 1_555 1_555
C72_2 C71_2 1_555 1_555
C73_2 C72_2 1_555 1_555
H45_2 C73_2 1_555 1_555
C74_2 C69_2 1_555 1_555
H46_2 C74_2 1_555 1_555
C75_2 C72_2 1_555 1_555
C76_2 C75_2 1_555 1_555
H47_2 C76_2 1_555 1_555
C77_2 C76_2 1_555 1_555
H48_2 C77_2 1_555 1_555
C78_2 C77_2 1_555 1_555
C79_2 C78_2 1_555 1_555
H49_2 C79_2 1_555 1_555
C80_2 C75_2 1_555 1_555
H50_2 C80_2 1_555 1_555
C81_2 Rh1_2 1_555 1_555
C83_2 Rh1_2 1_555 1_555
H53_2 C83_2 1_555 1_555
H54_2 C84_2 1_555 1_555
C85_2 Rh1_2 1_555 1_555
H55_2 C85_2 1_555 1_555
C86_2 C54_2 1_555 1_555
H56_2 C86_2 1_555 1_555
H57_2 C86_2 1_555 1_555
C87_2 C16_2 1_555 1_555
H58_2 C87_2 1_555 1_555
C88_2 Rh2_2 1_555 1_555
H59_2 C88_2 1_555 1_555
C89_2 Rh2_2 1_555 1_555
H60_2 C89_2 1_555 1_555
C90_2 C87_2 1_555 1_555
H61_2 C90_2 1_555 1_555
H62_2 C90_2 1_555 1_555
C91_2 C89_2 1_555 1_555
H63_2 C91_2 1_555 1_555
C92_2 Rh2_2 1_555 1_555
H64_2 C92_2 1_555 1_555
Zr13 O6_2 1_555 1_555
O11_2 C56_2 1_555 1_555
C16_2 C92_2 1_555 1_555
C25_2 C26_2 1_555 1_555
C27_2 C28_2 1_555 1_555
C46_2 C47_2 1_555 1_555
C48_2 C53_2 1_555 1_555
C50_2 C55_2 1_555 1_555
C52_2 C53_2 1_555 1_555
C54_2 C81_2 1_555 1_555
C54_2 C83_2 1_555 1_555
C61_2 C62_2 1_555 1_555
C65_2 C66_2 1_555 1_555
C67_2 C68_2 1_555 1_555
C73_2 C74_2 1_555 1_555
C79_2 C80_2 1_555 1_555
C83_2 C85_2 1_555 1_555
C84_2 C85_2 1_555 1_555
C84_2 C86_2 1_555 1_555
C87_2 C88_2 1_555 1_555
C88_2 C89_2 1_555 1_555
C90_2 C91_2 1_555 1_555
C91_2 C92_2 1_555 1_555
O2 H68 1_555 1_555
O2_2 H68_2 1_555 1_555
H52_2 C82_2 1_555 1_555

#END
