
###############################################################################
#
# This file contains modified crystal structure data generated from the
# MOF subset of the Cambridge Structural Database (CSD) v543 
# hosted by the Cambridge Crystallographic Data Centre (CCDC).
#
# This work is licensed under the Creative Commons
# Attribution-NonCommercial-ShareAlike 4.0 International License.
# To view a copy of this license, visit
# http://creativecommons.org/licenses/by-nc-sa/4.0/
# or send a letter to
# Creative Commons, PO Box 1866, Mountain View, CA 94042, USA.
#
# CIF created using the CSD Python API on 29 September 2022
# The structure has been converted into the P1 space group
# The structure has a 3D framework
# The original CSD entry OWITIY is in the tetragonal crystal system
# The framework has been calculated to contain at least 10.0% void space
# The void calculation uses a probe of radius 1.32A, grid spacing 0.4
# The framework is charged, counterions have been retained in the structure
#
###############################################################################

data_OWITIY
_chemical_formula_moiety         '(C148 H52 Mn20 O96 12-)n'
_symmetry_cell_setting           triclinic
_symmetry_space_group_name_H-M   'P 1'
_symmetry_Int_Tables_number      1
_space_group_name_Hall           'P 1'
loop_
_symmetry_equiv_pos_site_id
_symmetry_equiv_pos_as_xyz
1 x,y,z
_cell_length_a                   23.4246(6)
_cell_length_b                   23.4246(6)
_cell_length_c                   21.3264(12)
_cell_angle_alpha                90
_cell_angle_beta                 90
_cell_angle_gamma                90
_cell_volume                     11702
loop_
_atom_site_label
_atom_site_type_symbol
_atom_site_fract_x
_atom_site_fract_y
_atom_site_fract_z
C8 C 0.5137(2) 0.05708(17) 0.0012(2)
C9 C 0.45582(16) 0.04418(16) 0.0000
H3 H 0.4277 0.0723 0.0000
O6 O 0.53109(17) 0.10930(16) 0.0065(2)
O10 O 0.63982(19) 0.12357(19) 0.09960(19)
O15 O 0.7125(2) 0.1175(2) 0.00638(17)
Mn2 Mn 0.62081(4) 0.12081(4) 0.0000
C6 C 0.55708(17) 0.0137(2) 0.9988(2)
C9_2 C 0.45582(16) 0.04418(16) 1.0000
H3_2 H 0.4277 0.0723 1.0000
O4 O 0.60930(16) 0.03109(17) 0.9935(2)
O11 O 0.62357(19) 0.13982(19) 0.90040(19)
O16 O 0.6175(2) 0.2125(2) 0.99362(17)
Mn2_2 Mn 0.62081(4) 0.12081(4) 1.0000
C1 C 0.4863(2) 0.94292(17) 0.0012(2)
C2 C 0.54418(16) 0.95582(16) 0.0000
H1 H 0.5723 0.9277 0.0000
C3 C 0.3107(2) 0.8769(2) 0.11192(19)
C4 C 0.2680(2) 0.8791(2) 0.0610(2)
C5 C 0.2924(2) 0.8761(2) 0.1752(2)
H2 H 0.3189 0.8736 0.2075
O1 O 0.46891(17) 0.89070(16) 0.0065(2)
O2 O 0.36018(19) 0.87643(19) 0.09960(19)
O3 O 0.2875(2) 0.8825(2) 0.00638(17)
Mn1 Mn 0.37919(4) 0.87919(4) 0.0000
C10 C 0.1893(2) 0.8769(2) 0.13808(19)
C13 C 0.2320(2) 0.8791(2) 0.1890(2)
C16 C 0.2076(2) 0.8761(2) 0.0748(2)
H4 H 0.1811 0.8736 0.0425
O7 O 0.13982(19) 0.87643(19) 0.15040(19)
O12 O 0.2125(2) 0.8825(2) 0.24362(17)
Mn3 Mn 0.12081(4) 0.87919(4) 0.2500
C2_2 C 0.54418(16) 0.95582(16) 1.0000
H1_2 H 0.5723 0.9277 1.0000
Mn1_2 Mn 0.37919(4) 0.87919(4) 1.0000
C7 C 0.44292(17) 0.9863(2) 0.9988(2)
C11 C 0.3769(2) 0.8107(2) 0.88808(19)
C12 C 0.3769(2) 0.6893(2) 0.86192(19)
C14 C 0.3791(2) 0.7680(2) 0.9390(2)
C15 C 0.3791(2) 0.7320(2) 0.8110(2)
C17 C 0.3761(2) 0.7924(2) 0.8248(2)
C18 C 0.3761(2) 0.7076(2) 0.9252(2)
H5 H 0.3736 0.8189 0.7925
H6 H 0.3736 0.6811 0.9575
O5 O 0.39070(16) 0.96891(17) 0.9935(2)
O8 O 0.37643(19) 0.86018(19) 0.90040(19)
O9 O 0.37643(19) 0.63982(19) 0.84960(19)
O13 O 0.3825(2) 0.7875(2) 0.99362(17)
O14 O 0.3825(2) 0.7125(2) 0.75638(17)
Mn4 Mn 0.37919(4) 0.62081(4) 0.7500
C6_2 C 0.05708(17) 0.9863(2) 0.2512(2)
C8_2 C 0.0137(2) 0.94292(17) 0.2488(2)
O4_2 O 0.10930(16) 0.96891(17) 0.2565(2)
O6_2 O 0.03109(17) 0.89070(16) 0.2435(2)
O11_2 O 0.12357(19) 0.86018(19) 0.34960(19)
O16_2 O 0.1175(2) 0.7875(2) 0.25638(17)
C1_2 C 0.9863(2) 0.05708(17) 0.2488(2)
C3_2 C 0.8107(2) 0.1231(2) 0.13808(19)
C4_2 C 0.7680(2) 0.1209(2) 0.1890(2)
C5_2 C 0.7924(2) 0.1239(2) 0.0748(2)
H2_2 H 0.8189 0.1264 0.0425
O1_2 O 0.96891(17) 0.10930(16) 0.2435(2)
O2_2 O 0.86018(19) 0.12357(19) 0.15040(19)
O3_2 O 0.7875(2) 0.1175(2) 0.24362(17)
Mn1_3 Mn 0.87919(4) 0.12081(4) 0.2500
C7_2 C 0.94292(17) 0.0137(2) 0.2512(2)
C10_2 C 0.6893(2) 0.1231(2) 0.11192(19)
C11_2 C 0.8769(2) 0.1893(2) 0.36192(19)
C12_2 C 0.8769(2) 0.3107(2) 0.38808(19)
C13_2 C 0.7320(2) 0.1209(2) 0.0610(2)
C14_2 C 0.8791(2) 0.2320(2) 0.3110(2)
C15_2 C 0.8791(2) 0.2680(2) 0.4390(2)
C16_2 C 0.7076(2) 0.1239(2) 0.1752(2)
C17_2 C 0.8761(2) 0.2076(2) 0.4252(2)
C18_2 C 0.8761(2) 0.2924(2) 0.3248(2)
H4_2 H 0.6811 0.1264 0.2075
H5_2 H 0.8736 0.1811 0.4575
H6_2 H 0.8736 0.3189 0.2925
O5_2 O 0.89070(16) 0.03109(17) 0.2565(2)
O8_2 O 0.87643(19) 0.13982(19) 0.34960(19)
O9_2 O 0.87643(19) 0.36018(19) 0.40040(19)
O13_2 O 0.8825(2) 0.2125(2) 0.25638(17)
O14_2 O 0.8825(2) 0.2875(2) 0.49362(17)
Mn4_2 Mn 0.87919(4) 0.37919(4) 0.5000
C1_3 C 0.0137(2) 0.55708(17) 0.5012(2)
C3_3 C 0.1893(2) 0.6231(2) 0.61192(19)
C4_3 C 0.2320(2) 0.6209(2) 0.5610(2)
C5_3 C 0.2076(2) 0.6239(2) 0.6752(2)
H2_3 H 0.1811 0.6264 0.7075
O1_3 O 0.03109(17) 0.60930(16) 0.5065(2)
O2_3 O 0.13982(19) 0.62357(19) 0.59960(19)
O3_3 O 0.2125(2) 0.6175(2) 0.50638(17)
Mn1_4 Mn 0.12081(4) 0.62081(4) 0.5000
C7_3 C 0.05708(17) 0.5137(2) 0.4988(2)
C9_3 C 0.04418(16) 0.45582(16) 0.5000
H3_3 H 0.0723 0.4277 0.5000
C10_3 C 0.3107(2) 0.6231(2) 0.63808(19)
C11_3 C 0.1231(2) 0.6893(2) 0.38808(19)
C12_3 C 0.1231(2) 0.8107(2) 0.36192(19)
C13_3 C 0.2680(2) 0.6209(2) 0.6890(2)
C14_3 C 0.1209(2) 0.7320(2) 0.4390(2)
C15_3 C 0.1209(2) 0.7680(2) 0.3110(2)
C16_3 C 0.2924(2) 0.6239(2) 0.5748(2)
C17_3 C 0.1239(2) 0.7076(2) 0.3248(2)
C18_3 C 0.1239(2) 0.7924(2) 0.4252(2)
H4_3 H 0.3189 0.6264 0.5425
H5_3 H 0.1264 0.6811 0.2925
H6_3 H 0.1264 0.8189 0.4575
O5_3 O 0.10930(16) 0.53109(17) 0.4935(2)
O7_2 O 0.36018(19) 0.62357(19) 0.65040(19)
O8_3 O 0.12357(19) 0.63982(19) 0.40040(19)
O12_2 O 0.2875(2) 0.6175(2) 0.74362(17)
O13_3 O 0.1175(2) 0.7125(2) 0.49362(17)
C2_3 C 0.95582(16) 0.54418(16) 0.5000
H1_3 H 0.9277 0.5723 0.5000
C6_3 C 0.94292(17) 0.4863(2) 0.4988(2)
C8_3 C 0.9863(2) 0.44292(17) 0.5012(2)
O4_3 O 0.89070(16) 0.46891(17) 0.4935(2)
O6_3 O 0.96891(17) 0.39070(16) 0.5065(2)
O10_2 O 0.86018(19) 0.37643(19) 0.59960(19)
O15_2 O 0.7875(2) 0.3825(2) 0.50638(17)
C1_4 C 0.5137(2) 0.44292(17) 0.7488(2)
C2_4 C 0.45582(16) 0.45582(16) 0.7500
H1_4 H 0.4277 0.4277 0.7500
C3_4 C 0.6893(2) 0.3769(2) 0.63808(19)
C4_4 C 0.7320(2) 0.3791(2) 0.6890(2)
C5_4 C 0.7076(2) 0.3761(2) 0.5748(2)
H2_4 H 0.6811 0.3736 0.5425
O1_4 O 0.53109(17) 0.39070(16) 0.7435(2)
O2_4 O 0.63982(19) 0.37643(19) 0.65040(19)
O3_4 O 0.7125(2) 0.3825(2) 0.74362(17)
Mn1_5 Mn 0.62081(4) 0.37919(4) 0.7500
C6_4 C 0.44292(17) 0.5137(2) 0.7512(2)
C7_4 C 0.55708(17) 0.4863(2) 0.7512(2)
C8_4 C 0.4863(2) 0.55708(17) 0.7488(2)
C9_4 C 0.54418(16) 0.54418(16) 0.7500
H3_4 H 0.5723 0.5723 0.7500
C10_4 C 0.8107(2) 0.3769(2) 0.61192(19)
C11_4 C 0.6231(2) 0.3107(2) 0.86192(19)
C12_4 C 0.6231(2) 0.1893(2) 0.88808(19)
C13_4 C 0.7680(2) 0.3791(2) 0.5610(2)
C14_4 C 0.6209(2) 0.2680(2) 0.8110(2)
C15_4 C 0.6209(2) 0.2320(2) 0.9390(2)
C16_4 C 0.7924(2) 0.3761(2) 0.6752(2)
C17_4 C 0.6239(2) 0.2924(2) 0.9252(2)
C18_4 C 0.6239(2) 0.2076(2) 0.8248(2)
H4_4 H 0.8189 0.3736 0.7075
H5_4 H 0.6264 0.3189 0.9575
H6_4 H 0.6264 0.1811 0.7925
O4_4 O 0.39070(16) 0.53109(17) 0.7565(2)
O5_4 O 0.60930(16) 0.46891(17) 0.7565(2)
O6_4 O 0.46891(17) 0.60930(16) 0.7435(2)
O8_4 O 0.62357(19) 0.36018(19) 0.84960(19)
O13_4 O 0.6175(2) 0.2875(2) 0.75638(17)
C2_5 C 0.04418(16) 0.04418(16) 0.2500
H1_5 H 0.0723 0.0723 0.2500
C9_5 C 0.95582(16) 0.95582(16) 0.2500
H3_5 H 0.9277 0.9277 0.2500
C1_5 C 0.5137(2) 0.55708(17) 0.2488(2)
C2_6 C 0.45582(16) 0.54418(16) 0.2500
H1_6 H 0.4277 0.5723 0.2500
C3_5 C 0.6893(2) 0.6231(2) 0.13808(19)
C4_5 C 0.7320(2) 0.6209(2) 0.1890(2)
C5_5 C 0.7076(2) 0.6239(2) 0.0748(2)
H2_5 H 0.6811 0.6264 0.0425
O1_5 O 0.53109(17) 0.60930(16) 0.2435(2)
O2_5 O 0.63982(19) 0.62357(19) 0.15040(19)
O3_5 O 0.7125(2) 0.6175(2) 0.24362(17)
Mn1_6 Mn 0.62081(4) 0.62081(4) 0.2500
C6_5 C 0.44292(17) 0.4863(2) 0.2512(2)
C7_5 C 0.55708(17) 0.5137(2) 0.2512(2)
C8_5 C 0.4863(2) 0.44292(17) 0.2488(2)
C9_6 C 0.54418(16) 0.45582(16) 0.2500
H3_6 H 0.5723 0.4277 0.2500
C10_5 C 0.8107(2) 0.6231(2) 0.11192(19)
C11_5 C 0.6231(2) 0.6893(2) 0.36192(19)
C12_5 C 0.6231(2) 0.8107(2) 0.38808(19)
C13_5 C 0.7680(2) 0.6209(2) 0.0610(2)
C14_5 C 0.6209(2) 0.7320(2) 0.3110(2)
C15_5 C 0.6209(2) 0.7680(2) 0.4390(2)
C16_5 C 0.7924(2) 0.6239(2) 0.1752(2)
C17_5 C 0.6239(2) 0.7076(2) 0.4252(2)
C18_5 C 0.6239(2) 0.7924(2) 0.3248(2)
H4_5 H 0.8189 0.6264 0.2075
H5_5 H 0.6264 0.6811 0.4575
H6_5 H 0.6264 0.8189 0.2925
O4_5 O 0.39070(16) 0.46891(17) 0.2565(2)
O5_5 O 0.60930(16) 0.53109(17) 0.2565(2)
O6_5 O 0.46891(17) 0.39070(16) 0.2435(2)
O7_3 O 0.86018(19) 0.62357(19) 0.09960(19)
O8_5 O 0.62357(19) 0.63982(19) 0.34960(19)
O9_3 O 0.62357(19) 0.86018(19) 0.40040(19)
O10_3 O 0.36018(19) 0.37643(19) 0.15040(19)
O11_3 O 0.37643(19) 0.36018(19) 0.34960(19)
O12_3 O 0.7875(2) 0.6175(2) 0.00638(17)
O13_5 O 0.6175(2) 0.7125(2) 0.25638(17)
O14_3 O 0.6175(2) 0.7875(2) 0.49362(17)
O15_3 O 0.2875(2) 0.3825(2) 0.24362(17)
O16_3 O 0.3825(2) 0.2875(2) 0.25638(17)
Mn2_3 Mn 0.37919(4) 0.37919(4) 0.2500
Mn3_2 Mn 0.87919(4) 0.62081(4) 0.0000
Mn4_3 Mn 0.62081(4) 0.87919(4) 0.5000
Mn3_3 Mn 0.87919(4) 0.62081(4) 1.0000
C6_6 C 0.05708(17) 0.0137(2) 0.7512(2)
C8_6 C 0.0137(2) 0.05708(17) 0.7488(2)
O4_6 O 0.10930(16) 0.03109(17) 0.7565(2)
O6_6 O 0.03109(17) 0.10930(16) 0.7435(2)
O10_4 O 0.13982(19) 0.12357(19) 0.65040(19)
O11_4 O 0.12357(19) 0.13982(19) 0.84960(19)
O15_4 O 0.2125(2) 0.1175(2) 0.74362(17)
O16_4 O 0.1175(2) 0.2125(2) 0.75638(17)
Mn2_4 Mn 0.12081(4) 0.12081(4) 0.7500
C1_6 C 0.9863(2) 0.94292(17) 0.7488(2)
C3_6 C 0.8107(2) 0.8769(2) 0.63808(19)
C4_6 C 0.7680(2) 0.8791(2) 0.6890(2)
C5_6 C 0.7924(2) 0.8761(2) 0.5748(2)
H2_6 H 0.8189 0.8736 0.5425
O1_6 O 0.96891(17) 0.89070(16) 0.7435(2)
O2_6 O 0.86018(19) 0.87643(19) 0.65040(19)
O3_6 O 0.7875(2) 0.8825(2) 0.74362(17)
Mn1_7 Mn 0.87919(4) 0.87919(4) 0.7500
C7_6 C 0.94292(17) 0.9863(2) 0.7512(2)
C10_6 C 0.6893(2) 0.8769(2) 0.61192(19)
C11_6 C 0.8769(2) 0.8107(2) 0.86192(19)
C12_6 C 0.8769(2) 0.6893(2) 0.88808(19)
C13_6 C 0.7320(2) 0.8791(2) 0.5610(2)
C14_6 C 0.8791(2) 0.7680(2) 0.8110(2)
C15_6 C 0.8791(2) 0.7320(2) 0.9390(2)
C16_6 C 0.7076(2) 0.8761(2) 0.6752(2)
C17_6 C 0.8761(2) 0.7924(2) 0.9252(2)
C18_6 C 0.8761(2) 0.7076(2) 0.8248(2)
H4_6 H 0.6811 0.8736 0.7075
H5_6 H 0.8736 0.8189 0.9575
H6_6 H 0.8736 0.6811 0.7925
O5_6 O 0.89070(16) 0.96891(17) 0.7565(2)
O7_4 O 0.63982(19) 0.87643(19) 0.59960(19)
O8_6 O 0.87643(19) 0.86018(19) 0.84960(19)
O9_4 O 0.87643(19) 0.63982(19) 0.90040(19)
O12_4 O 0.7125(2) 0.8825(2) 0.50638(17)
O13_6 O 0.8825(2) 0.7875(2) 0.75638(17)
O14_4 O 0.8825(2) 0.7125(2) 0.99362(17)
C1_7 C 0.0137(2) 0.44292(17) 0.0012(2)
C3_7 C 0.1893(2) 0.3769(2) 0.11192(19)
C4_7 C 0.2320(2) 0.3791(2) 0.0610(2)
C5_7 C 0.2076(2) 0.3761(2) 0.1752(2)
H2_7 H 0.1811 0.3736 0.2075
O1_7 O 0.03109(17) 0.39070(16) 0.0065(2)
O2_7 O 0.13982(19) 0.37643(19) 0.09960(19)
O3_7 O 0.2125(2) 0.3825(2) 0.00638(17)
Mn1_8 Mn 0.12081(4) 0.37919(4) 0.0000
C9_7 C 0.04418(16) 0.54418(16) 0.0000
H3_7 H 0.0723 0.5723 0.0000
C10_7 C 0.3107(2) 0.3769(2) 0.13808(19)
C13_7 C 0.2680(2) 0.3791(2) 0.1890(2)
C16_7 C 0.2924(2) 0.3761(2) 0.0748(2)
H4_7 H 0.3189 0.3736 0.0425
Mn1_9 Mn 0.12081(4) 0.37919(4) 1.0000
C7_7 C 0.05708(17) 0.4863(2) 0.9988(2)
C9_8 C 0.04418(16) 0.54418(16) 1.0000
H3_8 H 0.0723 0.5723 1.0000
C11_7 C 0.1231(2) 0.3107(2) 0.88808(19)
C12_7 C 0.1231(2) 0.1893(2) 0.86192(19)
C14_7 C 0.1209(2) 0.2680(2) 0.9390(2)
C15_7 C 0.1209(2) 0.2320(2) 0.8110(2)
C17_7 C 0.1239(2) 0.2924(2) 0.8248(2)
C18_7 C 0.1239(2) 0.2076(2) 0.9252(2)
H5_7 H 0.1264 0.3189 0.7925
H6_7 H 0.1264 0.1811 0.9575
O5_7 O 0.10930(16) 0.46891(17) 0.9935(2)
O8_7 O 0.12357(19) 0.36018(19) 0.90040(19)
O13_7 O 0.1175(2) 0.2875(2) 0.99362(17)
C2_7 C 0.95582(16) 0.45582(16) 0.0000
H1_7 H 0.9277 0.4277 0.0000
C8_7 C 0.9863(2) 0.55708(17) 0.0012(2)
O6_7 O 0.96891(17) 0.60930(16) 0.0065(2)
C2_8 C 0.95582(16) 0.45582(16) 1.0000
H1_8 H 0.9277 0.4277 1.0000
C6_7 C 0.94292(17) 0.5137(2) 0.9988(2)
O4_7 O 0.89070(16) 0.53109(17) 0.9935(2)
C1_8 C 0.4863(2) 0.05708(17) 0.5012(2)
C2_9 C 0.54418(16) 0.04418(16) 0.5000
H1_9 H 0.5723 0.0723 0.5000
C3_8 C 0.3107(2) 0.1231(2) 0.61192(19)
C4_8 C 0.2680(2) 0.1209(2) 0.5610(2)
C5_8 C 0.2924(2) 0.1239(2) 0.6752(2)
H2_8 H 0.3189 0.1264 0.7075
O1_8 O 0.46891(17) 0.10930(16) 0.5065(2)
O2_8 O 0.36018(19) 0.12357(19) 0.59960(19)
O3_8 O 0.2875(2) 0.1175(2) 0.50638(17)
Mn1_10 Mn 0.37919(4) 0.12081(4) 0.5000
C7_8 C 0.44292(17) 0.0137(2) 0.4988(2)
C10_8 C 0.1893(2) 0.1231(2) 0.63808(19)
C11_8 C 0.3769(2) 0.1893(2) 0.38808(19)
C12_8 C 0.3769(2) 0.3107(2) 0.36192(19)
C13_8 C 0.2320(2) 0.1209(2) 0.6890(2)
C14_8 C 0.3791(2) 0.2320(2) 0.4390(2)
C15_8 C 0.3791(2) 0.2680(2) 0.3110(2)
C16_8 C 0.2076(2) 0.1239(2) 0.5748(2)
C17_8 C 0.3761(2) 0.2076(2) 0.3248(2)
C18_8 C 0.3761(2) 0.2924(2) 0.4252(2)
H4_8 H 0.1811 0.1264 0.5425
H5_8 H 0.3736 0.1811 0.2925
H6_8 H 0.3736 0.3189 0.4575
O5_8 O 0.39070(16) 0.03109(17) 0.4935(2)
O8_8 O 0.37643(19) 0.13982(19) 0.40040(19)
O13_8 O 0.3825(2) 0.2125(2) 0.49362(17)
C6_8 C 0.55708(17) 0.9863(2) 0.4988(2)
C8_8 C 0.5137(2) 0.94292(17) 0.5012(2)
C9_9 C 0.45582(16) 0.95582(16) 0.5000
H3_9 H 0.4277 0.9277 0.5000
O4_8 O 0.60930(16) 0.96891(17) 0.4935(2)
O6_8 O 0.53109(17) 0.89070(16) 0.5065(2)
C2_10 C 0.04418(16) 0.95582(16) 0.7500
H1_10 H 0.0723 0.9277 0.7500
C9_10 C 0.95582(16) 0.04418(16) 0.7500
H3_10 H 0.9277 0.0723 0.7500
loop_
_geom_bond_atom_site_label_1
_geom_bond_atom_site_label_2
_geom_bond_site_symmetry_1
_geom_bond_site_symmetry_2
H3 C9 1_555 1_555
O6 C8 1_555 1_555
O10 Mn2 1_555 1_555
O15 Mn2 1_555 1_555
C8 C9 1_555 1_555
O6 Mn2 1_555 1_555
H3_2 C9_2 1_555 1_555
O4 C6 1_555 1_555
O11 Mn2_2 1_555 1_555
O16 Mn2_2 1_555 1_555
Mn2_2 O4 1_555 1_555
C1 C2 1_555 1_555
C2 H1 1_555 1_555
C3 C4 1_555 1_555
C4 O3 1_555 1_555
C5 C3 1_555 1_555
H2 C5 1_555 1_555
O1 C1 1_555 1_555
O2 C3 1_555 1_555
O3 Mn1 1_555 1_555
Mn1 O1 1_555 1_555
C10 C13 1_555 1_555
C13 C5 1_555 1_555
C16 C4 1_555 1_555
H4 C16 1_555 1_555
O7 C10 1_555 1_555
O12 C13 1_555 1_555
Mn3 O7 1_555 1_555
O2 Mn1 1_555 1_555
C10 C16 1_555 1_555
O12 Mn3 1_555 1_555
C2_2 H1_2 1_555 1_555
C11 C14 1_555 1_555
C12 C15 1_555 1_555
C14 C18 1_555 1_555
C15 C17 1_555 1_555
C17 C11 1_555 1_555
C18 C12 1_555 1_555
H5 C17 1_555 1_555
H6 C18 1_555 1_555
O5 Mn1_2 1_555 1_555
O8 Mn1_2 1_555 1_555
O9 C12 1_555 1_555
O13 Mn1_2 1_555 1_555
O14 C15 1_555 1_555
Mn4 O9 1_555 1_555
C7 O5 1_555 1_555
C11 O8 1_555 1_555
C14 O13 1_555 1_555
O14 Mn4 1_555 1_555
C8_2 C6_2 1_555 1_555
O4_2 C6_2 1_555 1_555
O6_2 C8_2 1_555 1_555
O11_2 Mn3 1_555 1_555
O16_2 Mn3 1_555 1_555
Mn3 O4_2 1_555 1_555
O6_2 Mn3 1_555 1_555
C3_2 C4_2 1_555 1_555
C4_2 O3_2 1_555 1_555
C5_2 C3_2 1_555 1_555
H2_2 C5_2 1_555 1_555
O1_2 C1_2 1_555 1_555
O2_2 C3_2 1_555 1_555
O3_2 Mn1_3 1_555 1_555
Mn1_3 O1_2 1_555 1_555
C7_2 C1_2 1_555 1_555
C10_2 C13_2 1_555 1_555
C11_2 C14_2 1_555 1_555
C12_2 C15_2 1_555 1_555
C13_2 C5_2 1_555 1_555
C14_2 C18_2 1_555 1_555
C15_2 C17_2 1_555 1_555
C16_2 C4_2 1_555 1_555
C17_2 C11_2 1_555 1_555
C18_2 C12_2 1_555 1_555
H4_2 C16_2 1_555 1_555
H5_2 C17_2 1_555 1_555
H6_2 C18_2 1_555 1_555
O5_2 Mn1_3 1_555 1_555
O10 C10_2 1_555 1_555
O8_2 Mn1_3 1_555 1_555
O9_2 C12_2 1_555 1_555
O15 C13_2 1_555 1_555
O13_2 Mn1_3 1_555 1_555
O14_2 C15_2 1_555 1_555
Mn4_2 O9_2 1_555 1_555
O2_2 Mn1_3 1_555 1_555
C7_2 O5_2 1_555 1_555
C10_2 C16_2 1_555 1_555
C11_2 O8_2 1_555 1_555
C14_2 O13_2 1_555 1_555
O14_2 Mn4_2 1_555 1_555
C3_3 C4_3 1_555 1_555
C4_3 O3_3 1_555 1_555
C5_3 C3_3 1_555 1_555
H2_3 C5_3 1_555 1_555
O1_3 C1_3 1_555 1_555
O2_3 C3_3 1_555 1_555
O3_3 Mn1_4 1_555 1_555
Mn1_4 O1_3 1_555 1_555
C7_3 C1_3 1_555 1_555
C9_3 C7_3 1_555 1_555
H3_3 C9_3 1_555 1_555
C10_3 C13_3 1_555 1_555
C11_3 C14_3 1_555 1_555
C12_3 C15_3 1_555 1_555
C13_3 C5_3 1_555 1_555
C14_3 C18_3 1_555 1_555
C15_3 C17_3 1_555 1_555
C16_3 C4_3 1_555 1_555
C17_3 C11_3 1_555 1_555
C18_3 C12_3 1_555 1_555
H4_3 C16_3 1_555 1_555
H5_3 C17_3 1_555 1_555
H6_3 C18_3 1_555 1_555
O5_3 Mn1_4 1_555 1_555
O7_2 C10_3 1_555 1_555
O8_3 Mn1_4 1_555 1_555
O11_2 C12_3 1_555 1_555
O12_2 C13_3 1_555 1_555
O13_3 Mn1_4 1_555 1_555
O16_2 C15_3 1_555 1_555
Mn4 O7_2 1_555 1_555
O2_3 Mn1_4 1_555 1_555
C7_3 O5_3 1_555 1_555
C10_3 C16_3 1_555 1_555
C11_3 O8_3 1_555 1_555
C14_3 O13_3 1_555 1_555
O12_2 Mn4 1_555 1_555
C2_3 H1_3 1_555 1_555
C6_3 C2_3 1_555 1_555
C8_3 C6_3 1_555 1_555
O4_3 C6_3 1_555 1_555
O6_3 C8_3 1_555 1_555
O10_2 Mn4_2 1_555 1_555
O15_2 Mn4_2 1_555 1_555
Mn4_2 O4_3 1_555 1_555
O6_3 Mn4_2 1_555 1_555
C1_4 C2_4 1_555 1_555
C2_4 H1_4 1_555 1_555
C3_4 C4_4 1_555 1_555
C4_4 O3_4 1_555 1_555
C5_4 C3_4 1_555 1_555
H2_4 C5_4 1_555 1_555
O1_4 C1_4 1_555 1_555
O2_4 C3_4 1_555 1_555
O3_4 Mn1_5 1_555 1_555
Mn1_5 O1_4 1_555 1_555
C6_4 C2_4 1_555 1_555
C7_4 C1_4 1_555 1_555
C8_4 C6_4 1_555 1_555
C9_4 C7_4 1_555 1_555
H3_4 C9_4 1_555 1_555
C10_4 C13_4 1_555 1_555
C11_4 C14_4 1_555 1_555
C12_4 C15_4 1_555 1_555
C13_4 C5_4 1_555 1_555
C14_4 C18_4 1_555 1_555
C15_4 C17_4 1_555 1_555
C16_4 C4_4 1_555 1_555
C17_4 C11_4 1_555 1_555
C18_4 C12_4 1_555 1_555
H4_4 C16_4 1_555 1_555
H5_4 C17_4 1_555 1_555
H6_4 C18_4 1_555 1_555
O4_4 C6_4 1_555 1_555
O5_4 Mn1_5 1_555 1_555
O6_4 C8_4 1_555 1_555
O10_2 C10_4 1_555 1_555
O8_4 Mn1_5 1_555 1_555
O11 C12_4 1_555 1_555
O15_2 C13_4 1_555 1_555
O13_4 Mn1_5 1_555 1_555
O16 C15_4 1_555 1_555
Mn4 O4_4 1_555 1_555
O2_4 Mn1_5 1_555 1_555
C7_4 O5_4 1_555 1_555
C8_4 C9_4 1_555 1_555
C10_4 C16_4 1_555 1_555
C11_4 O8_4 1_555 1_555
C14_4 O13_4 1_555 1_555
O6_4 Mn4 1_555 1_555
C2_5 H1_5 1_555 1_555
H3_5 C9_5 1_555 1_555
C1_5 C2_6 1_555 1_555
C2_6 H1_6 1_555 1_555
C3_5 C4_5 1_555 1_555
C4_5 O3_5 1_555 1_555
C5_5 C3_5 1_555 1_555
H2_5 C5_5 1_555 1_555
O1_5 C1_5 1_555 1_555
O2_5 C3_5 1_555 1_555
O3_5 Mn1_6 1_555 1_555
Mn1_6 O1_5 1_555 1_555
C6_5 C2_6 1_555 1_555
C7_5 C1_5 1_555 1_555
C8_5 C6_5 1_555 1_555
C9_6 C7_5 1_555 1_555
H3_6 C9_6 1_555 1_555
C10_5 C13_5 1_555 1_555
C11_5 C14_5 1_555 1_555
C12_5 C15_5 1_555 1_555
C13_5 C5_5 1_555 1_555
C14_5 C18_5 1_555 1_555
C15_5 C17_5 1_555 1_555
C16_5 C4_5 1_555 1_555
C17_5 C11_5 1_555 1_555
C18_5 C12_5 1_555 1_555
H4_5 C16_5 1_555 1_555
H5_5 C17_5 1_555 1_555
H6_5 C18_5 1_555 1_555
O4_5 C6_5 1_555 1_555
O5_5 Mn1_6 1_555 1_555
O6_5 C8_5 1_555 1_555
O7_3 C10_5 1_555 1_555
O8_5 Mn1_6 1_555 1_555
O9_3 C12_5 1_555 1_555
O10_3 Mn2_3 1_555 1_555
O11_3 Mn2_3 1_555 1_555
O12_3 C13_5 1_555 1_555
O13_5 Mn1_6 1_555 1_555
O14_3 C15_5 1_555 1_555
O15_3 Mn2_3 1_555 1_555
O16_3 Mn2_3 1_555 1_555
Mn2_3 O4_5 1_555 1_555
Mn3_2 O7_3 1_555 1_555
Mn4_3 O9_3 1_555 1_555
O2_5 Mn1_6 1_555 1_555
C7_5 O5_5 1_555 1_555
C8_5 C9_6 1_555 1_555
C10_5 C16_5 1_555 1_555
C11_5 O8_5 1_555 1_555
C14_5 O13_5 1_555 1_555
O6_5 Mn2_3 1_555 1_555
O12_3 Mn3_2 1_555 1_555
O14_3 Mn4_3 1_555 1_555
C8_6 C6_6 1_555 1_555
O4_6 C6_6 1_555 1_555
O6_6 C8_6 1_555 1_555
O10_4 Mn2_4 1_555 1_555
O11_4 Mn2_4 1_555 1_555
O15_4 Mn2_4 1_555 1_555
O16_4 Mn2_4 1_555 1_555
Mn2_4 O4_6 1_555 1_555
O6_6 Mn2_4 1_555 1_555
C3_6 C4_6 1_555 1_555
C4_6 O3_6 1_555 1_555
C5_6 C3_6 1_555 1_555
H2_6 C5_6 1_555 1_555
O1_6 C1_6 1_555 1_555
O2_6 C3_6 1_555 1_555
O3_6 Mn1_7 1_555 1_555
Mn1_7 O1_6 1_555 1_555
C7_6 C1_6 1_555 1_555
C10_6 C13_6 1_555 1_555
C11_6 C14_6 1_555 1_555
C12_6 C15_6 1_555 1_555
C13_6 C5_6 1_555 1_555
C14_6 C18_6 1_555 1_555
C15_6 C17_6 1_555 1_555
C16_6 C4_6 1_555 1_555
C17_6 C11_6 1_555 1_555
C18_6 C12_6 1_555 1_555
H4_6 C16_6 1_555 1_555
H5_6 C17_6 1_555 1_555
H6_6 C18_6 1_555 1_555
O5_6 Mn1_7 1_555 1_555
O7_4 C10_6 1_555 1_555
O8_6 Mn1_7 1_555 1_555
O9_4 C12_6 1_555 1_555
O12_4 C13_6 1_555 1_555
O13_6 Mn1_7 1_555 1_555
O14_4 C15_6 1_555 1_555
Mn4_3 O7_4 1_555 1_555
Mn3_3 O9_4 1_555 1_555
O2_6 Mn1_7 1_555 1_555
C7_6 O5_6 1_555 1_555
C10_6 C16_6 1_555 1_555
C11_6 O8_6 1_555 1_555
C14_6 O13_6 1_555 1_555
O12_4 Mn4_3 1_555 1_555
O14_4 Mn3_3 1_555 1_555
C3_7 C4_7 1_555 1_555
C4_7 O3_7 1_555 1_555
C5_7 C3_7 1_555 1_555
H2_7 C5_7 1_555 1_555
O1_7 C1_7 1_555 1_555
O2_7 C3_7 1_555 1_555
O3_7 Mn1_8 1_555 1_555
Mn1_8 O1_7 1_555 1_555
H3_7 C9_7 1_555 1_555
C10_7 C13_7 1_555 1_555
C13_7 C5_7 1_555 1_555
C16_7 C4_7 1_555 1_555
H4_7 C16_7 1_555 1_555
O10_3 C10_7 1_555 1_555
O15_3 C13_7 1_555 1_555
O2_7 Mn1_8 1_555 1_555
C10_7 C16_7 1_555 1_555
C9_8 C7_7 1_555 1_555
H3_8 C9_8 1_555 1_555
C11_7 C14_7 1_555 1_555
C12_7 C15_7 1_555 1_555
C14_7 C18_7 1_555 1_555
C15_7 C17_7 1_555 1_555
C17_7 C11_7 1_555 1_555
C18_7 C12_7 1_555 1_555
H5_7 C17_7 1_555 1_555
H6_7 C18_7 1_555 1_555
O5_7 Mn1_9 1_555 1_555
O8_7 Mn1_9 1_555 1_555
O11_4 C12_7 1_555 1_555
O13_7 Mn1_9 1_555 1_555
O16_4 C15_7 1_555 1_555
C7_7 O5_7 1_555 1_555
C11_7 O8_7 1_555 1_555
C14_7 O13_7 1_555 1_555
C2_7 H1_7 1_555 1_555
O6_7 C8_7 1_555 1_555
O6_7 Mn3_2 1_555 1_555
C2_8 H1_8 1_555 1_555
C6_7 C2_8 1_555 1_555
O4_7 C6_7 1_555 1_555
Mn3_3 O4_7 1_555 1_555
C1_8 C2_9 1_555 1_555
C2_9 H1_9 1_555 1_555
C3_8 C4_8 1_555 1_555
C4_8 O3_8 1_555 1_555
C5_8 C3_8 1_555 1_555
H2_8 C5_8 1_555 1_555
O1_8 C1_8 1_555 1_555
O2_8 C3_8 1_555 1_555
O3_8 Mn1_10 1_555 1_555
Mn1_10 O1_8 1_555 1_555
C7_8 C1_8 1_555 1_555
C10_8 C13_8 1_555 1_555
C11_8 C14_8 1_555 1_555
C12_8 C15_8 1_555 1_555
C13_8 C5_8 1_555 1_555
C14_8 C18_8 1_555 1_555
C15_8 C17_8 1_555 1_555
C16_8 C4_8 1_555 1_555
C17_8 C11_8 1_555 1_555
C18_8 C12_8 1_555 1_555
H4_8 C16_8 1_555 1_555
H5_8 C17_8 1_555 1_555
H6_8 C18_8 1_555 1_555
O5_8 Mn1_10 1_555 1_555
O10_4 C10_8 1_555 1_555
O8_8 Mn1_10 1_555 1_555
O11_3 C12_8 1_555 1_555
O15_4 C13_8 1_555 1_555
O13_8 Mn1_10 1_555 1_555
O16_3 C15_8 1_555 1_555
O2_8 Mn1_10 1_555 1_555
C7_8 O5_8 1_555 1_555
C10_8 C16_8 1_555 1_555
C11_8 O8_8 1_555 1_555
C14_8 O13_8 1_555 1_555
C8_8 C6_8 1_555 1_555
H3_9 C9_9 1_555 1_555
O4_8 C6_8 1_555 1_555
O6_8 C8_8 1_555 1_555
Mn4_3 O4_8 1_555 1_555
C8_8 C9_9 1_555 1_555
O6_8 Mn4_3 1_555 1_555
C2_10 H1_10 1_555 1_555
H3_10 C9_10 1_555 1_555

#END
