
###############################################################################
#
# This file contains modified crystal structure data generated from the
# MOF subset of the Cambridge Structural Database (CSD) v543 
# hosted by the Cambridge Crystallographic Data Centre (CCDC).
#
# This work is licensed under the Creative Commons
# Attribution-NonCommercial-ShareAlike 4.0 International License.
# To view a copy of this license, visit
# http://creativecommons.org/licenses/by-nc-sa/4.0/
# or send a letter to
# Creative Commons, PO Box 1866, Mountain View, CA 94042, USA.
#
# CIF created using the CSD Python API on 29 September 2022
# The structure has been converted into the P1 space group
# The structure has a 3D framework
# The original CSD entry OWITUK is in the cubic crystal system
# The framework has been calculated to contain at least 10.0% void space
# The void calculation uses a probe of radius 1.32A, grid spacing 0.4
# The framework is charged, counterions have been retained in the structure
#
###############################################################################

data_OWITUK
_chemical_formula_moiety         '(C144 H48 Fe12 O96 16-)n'
_symmetry_cell_setting           triclinic
_symmetry_space_group_name_H-M   'P 1'
_symmetry_Int_Tables_number      1
_space_group_name_Hall           'P 1'
loop_
_symmetry_equiv_pos_site_id
_symmetry_equiv_pos_as_xyz
1 x,y,z
_cell_length_a                   22.1408(10)
_cell_length_b                   22.1408(10)
_cell_length_c                   22.1408(10)
_cell_angle_alpha                90
_cell_angle_beta                 90
_cell_angle_gamma                90
_cell_volume                     10853.8
loop_
_atom_site_label
_atom_site_type_symbol
_atom_site_fract_x
_atom_site_fract_y
_atom_site_fract_z
Fe2 Fe 0.1250 0.1250 0.1250
O2 O 0.03434(17) 0.13404(15) 0.12178(17)
O3 O 0.11596(15) 0.21566(17) 0.12822(17)
C3 C 0.01524(17) 0.18782(18) 0.12345(18)
C4 C 0.06218(18) 0.23476(17) 0.12655(18)
C14 C 0.04612(18) 0.29612(18) 0.1250
H2 H 0.0758 0.3258 0.1250
O2_2 O 0.13404(15) 0.12178(17) 0.03434(17)
O3_2 O 0.21566(17) 0.12822(17) 0.11596(15)
C3_2 C 0.18782(18) 0.12345(18) 0.01524(17)
C4_2 C 0.23476(17) 0.12655(18) 0.06218(18)
C14_2 C 0.29612(18) 0.1250 0.04612(18)
H2_2 H 0.3258 0.1250 0.0758
O10 O 0.12822(17) 0.11596(15) 0.21566(17)
O11 O 0.12178(17) 0.03434(17) 0.13404(15)
C11 C 0.12655(18) 0.06218(18) 0.23476(17)
C12 C 0.12345(18) 0.01524(17) 0.18782(18)
C17 C 0.1250 0.04612(18) 0.29612(18)
H5 H 0.1250 0.0758 0.3258
Fe1 Fe 0.8750 0.3750 0.1250
O1 O 0.88404(15) 0.28434(17) 0.12822(17)
C1 C 0.93782(18) 0.26524(17) 0.12655(18)
C2 C 0.95388(18) 0.20388(18) 0.1250
H1 H 0.9242 0.1742 0.1250
Fe3 Fe 0.8750 0.6250 0.3750
O4 O 0.96566(17) 0.36596(15) 0.12178(17)
O5 O 0.87822(17) 0.46566(17) 0.13404(15)
O6 O 0.87178(17) 0.61596(15) 0.28434(17)
O7 O 0.87822(17) 0.53434(17) 0.36596(15)
O8 O 0.87178(17) 0.38404(15) 0.21566(17)
O9 O 0.86596(15) 0.37822(17) 0.03434(17)
O12 O 0.78434(17) 0.37178(17) 0.11596(15)
O13 O 0.86596(15) 0.62178(17) 0.46566(17)
O14 O 0.78434(17) 0.62822(17) 0.38404(15)
O15 O 0.96566(17) 0.63404(15) 0.37822(17)
O16 O 0.88404(15) 0.71566(17) 0.37178(17)
C5 C 0.98476(17) 0.31218(18) 0.12345(18)
C6 C 0.87655(18) 0.48476(17) 0.18782(18)
C7 C 0.87345(18) 0.56218(18) 0.26524(17)
C8 C 0.87655(18) 0.51524(17) 0.31218(18)
C9 C 0.87345(18) 0.43782(18) 0.23476(17)
C10 C 0.81218(18) 0.37655(18) 0.01524(17)
C13 C 0.76524(17) 0.37345(18) 0.06218(18)
C15 C 0.8750 0.54612(18) 0.20388(18)
C16 C 0.8750 0.45388(18) 0.29612(18)
C18 C 0.70388(18) 0.3750 0.04612(18)
H3 H 0.8750 0.5758 0.1742
H4 H 0.8750 0.4242 0.3258
H6 H 0.6742 0.3750 0.0758
Fe4 Fe 0.6250 0.3750 0.8750
O10_2 O 0.71566(17) 0.37178(17) 0.88404(15)
O11_2 O 0.63404(15) 0.37822(17) 0.96566(17)
C11_2 C 0.73476(17) 0.37345(18) 0.93782(18)
C12_2 C 0.68782(18) 0.37655(18) 0.98476(17)
C17_2 C 0.79612(18) 0.3750 0.95388(18)
H5_2 H 0.8258 0.3750 0.9242
Fe2_2 Fe 0.1250 0.8750 0.3750
O2_3 O 0.03434(17) 0.86596(15) 0.37822(17)
O3_3 O 0.11596(15) 0.78434(17) 0.37178(17)
C3_3 C 0.01524(17) 0.81218(18) 0.37655(18)
C4_3 C 0.06218(18) 0.76524(17) 0.37345(18)
C14_3 C 0.04612(18) 0.70388(18) 0.3750
H2_3 H 0.0758 0.6742 0.3750
C1_2 C 0.93782(18) 0.73476(17) 0.37345(18)
C2_2 C 0.95388(18) 0.79612(18) 0.3750
H1_2 H 0.9242 0.8258 0.3750
Fe4_2 Fe 0.6250 0.6250 0.6250
O10_3 O 0.71566(17) 0.62822(17) 0.61596(15)
O11_3 O 0.63404(15) 0.62178(17) 0.53434(17)
C5_2 C 0.98476(17) 0.68782(18) 0.37655(18)
C10_2 C 0.81218(18) 0.62345(18) 0.48476(17)
C11_3 C 0.73476(17) 0.62655(18) 0.56218(18)
C12_3 C 0.68782(18) 0.62345(18) 0.51524(17)
C13_2 C 0.76524(17) 0.62655(18) 0.43782(18)
C17_3 C 0.79612(18) 0.6250 0.54612(18)
C18_2 C 0.70388(18) 0.6250 0.45388(18)
H5_3 H 0.8258 0.6250 0.5758
H6_2 H 0.6742 0.6250 0.4242
O1_2 O 0.61596(15) 0.71566(17) 0.62822(17)
C1_3 C 0.56218(18) 0.73476(17) 0.62655(18)
C2_3 C 0.54612(18) 0.79612(18) 0.6250
H1_3 H 0.5758 0.8258 0.6250
Fe2_3 Fe 0.3750 0.8750 0.6250
O2_4 O 0.46566(17) 0.86596(15) 0.62178(17)
O3_4 O 0.38404(15) 0.78434(17) 0.62822(17)
O4_2 O 0.53434(17) 0.63404(15) 0.62178(17)
O5_2 O 0.62178(17) 0.53434(17) 0.63404(15)
O6_2 O 0.62822(17) 0.38404(15) 0.78434(17)
O7_2 O 0.62178(17) 0.46566(17) 0.86596(15)
O8_2 O 0.62822(17) 0.61596(15) 0.71566(17)
O15_2 O 0.53434(17) 0.36596(15) 0.87822(17)
O16_2 O 0.61596(15) 0.28434(17) 0.87178(17)
C3_4 C 0.48476(17) 0.81218(18) 0.62345(18)
C4_4 C 0.43782(18) 0.76524(17) 0.62655(18)
C5_3 C 0.51524(17) 0.68782(18) 0.62345(18)
C6_2 C 0.62345(18) 0.51524(17) 0.68782(18)
C7_2 C 0.62655(18) 0.43782(18) 0.76524(17)
C8_2 C 0.62345(18) 0.48476(17) 0.81218(18)
C9_2 C 0.62655(18) 0.56218(18) 0.73476(17)
C14_4 C 0.45388(18) 0.70388(18) 0.6250
C15_2 C 0.6250 0.45388(18) 0.70388(18)
C16_2 C 0.6250 0.54612(18) 0.79612(18)
H2_4 H 0.4242 0.6742 0.6250
H3_2 H 0.6250 0.4242 0.6742
H4_2 H 0.6250 0.5758 0.8258
C1_4 C 0.56218(18) 0.26524(17) 0.87345(18)
C2_4 C 0.54612(18) 0.20388(18) 0.8750
H1_4 H 0.5758 0.1742 0.8750
Fe2_4 Fe 0.3750 0.1250 0.8750
O2_5 O 0.46566(17) 0.13404(15) 0.87822(17)
O3_5 O 0.38404(15) 0.21566(17) 0.87178(17)
C3_5 C 0.48476(17) 0.18782(18) 0.87655(18)
C4_5 C 0.43782(18) 0.23476(17) 0.87345(18)
C5_4 C 0.51524(17) 0.31218(18) 0.87655(18)
C14_5 C 0.45388(18) 0.29612(18) 0.8750
H2_5 H 0.4242 0.3258 0.8750
O1_3 O 0.28434(17) 0.12822(17) 0.88404(15)
C1_5 C 0.26524(17) 0.12655(18) 0.93782(18)
C2_5 C 0.20388(18) 0.1250 0.95388(18)
H1_5 H 0.1742 0.1250 0.9242
O4_3 O 0.36596(15) 0.12178(17) 0.96566(17)
O9_2 O 0.37822(17) 0.03434(17) 0.86596(15)
O12_2 O 0.37178(17) 0.11596(15) 0.78434(17)
C5_5 C 0.31218(18) 0.12345(18) 0.98476(17)
C10_3 C 0.37655(18) 0.01524(17) 0.81218(18)
C13_3 C 0.37345(18) 0.06218(18) 0.76524(17)
C18_3 C 0.3750 0.04612(18) 0.70388(18)
H6_3 H 0.3750 0.0758 0.6742
O10_4 O 0.37178(17) 0.88404(15) 0.71566(17)
O11_4 O 0.37822(17) 0.96566(17) 0.63404(15)
C11_4 C 0.37345(18) 0.93782(18) 0.73476(17)
C12_4 C 0.37655(18) 0.98476(17) 0.68782(18)
C17_4 C 0.3750 0.95388(18) 0.79612(18)
H5_4 H 0.3750 0.9242 0.8258
O1_4 O 0.21566(17) 0.87178(17) 0.38404(15)
C1_6 C 0.23476(17) 0.87345(18) 0.43782(18)
C2_6 C 0.29612(18) 0.8750 0.45388(18)
H1_6 H 0.3258 0.8750 0.4242
O2_6 O 0.36596(15) 0.87822(17) 0.53434(17)
O3_6 O 0.28434(17) 0.87178(17) 0.61596(15)
O4_4 O 0.13404(15) 0.87822(17) 0.46566(17)
O9_3 O 0.12178(17) 0.96566(17) 0.36596(15)
O12_3 O 0.12822(17) 0.88404(15) 0.28434(17)
C3_6 C 0.31218(18) 0.87655(18) 0.51524(17)
C4_6 C 0.26524(17) 0.87345(18) 0.56218(18)
C5_6 C 0.18782(18) 0.87655(18) 0.48476(17)
C10_4 C 0.12345(18) 0.98476(17) 0.31218(18)
C13_4 C 0.12655(18) 0.93782(18) 0.26524(17)
C14_6 C 0.20388(18) 0.8750 0.54612(18)
C18_4 C 0.1250 0.95388(18) 0.20388(18)
H2_6 H 0.1742 0.8750 0.5758
H6_4 H 0.1250 0.9242 0.1742
Fe4_3 Fe 0.3750 0.6250 0.1250
O10_5 O 0.28434(17) 0.62822(17) 0.11596(15)
O11_5 O 0.36596(15) 0.62178(17) 0.03434(17)
C11_5 C 0.26524(17) 0.62655(18) 0.06218(18)
C12_5 C 0.31218(18) 0.62345(18) 0.01524(17)
C17_5 C 0.20388(18) 0.6250 0.04612(18)
H5_5 H 0.1742 0.6250 0.0758
Fe1_2 Fe 0.1250 0.6250 0.8750
O1_5 O 0.11596(15) 0.71566(17) 0.87178(17)
C1_7 C 0.06218(18) 0.73476(17) 0.87345(18)
C2_7 C 0.04612(18) 0.79612(18) 0.8750
H1_7 H 0.0758 0.8258 0.8750
Fe3_2 Fe 0.1250 0.3750 0.6250
O4_5 O 0.03434(17) 0.63404(15) 0.87822(17)
O5_3 O 0.12178(17) 0.53434(17) 0.86596(15)
O6_3 O 0.12822(17) 0.38404(15) 0.71566(17)
O7_3 O 0.12178(17) 0.46566(17) 0.63404(15)
O8_3 O 0.12822(17) 0.61596(15) 0.78434(17)
O9_4 O 0.13404(15) 0.62178(17) 0.96566(17)
O12_4 O 0.21566(17) 0.62822(17) 0.88404(15)
O13_2 O 0.13404(15) 0.37822(17) 0.53434(17)
O14_2 O 0.21566(17) 0.37178(17) 0.61596(15)
O15_3 O 0.03434(17) 0.36596(15) 0.62178(17)
O16_3 O 0.11596(15) 0.28434(17) 0.62822(17)
C5_7 C 0.01524(17) 0.68782(18) 0.87655(18)
C6_3 C 0.12345(18) 0.51524(17) 0.81218(18)
C7_3 C 0.12655(18) 0.43782(18) 0.73476(17)
C8_3 C 0.12345(18) 0.48476(17) 0.68782(18)
C9_3 C 0.12655(18) 0.56218(18) 0.76524(17)
C10_5 C 0.18782(18) 0.62345(18) 0.98476(17)
C13_5 C 0.23476(17) 0.62655(18) 0.93782(18)
C15_3 C 0.1250 0.45388(18) 0.79612(18)
C16_3 C 0.1250 0.54612(18) 0.70388(18)
C18_5 C 0.29612(18) 0.6250 0.95388(18)
H3_3 H 0.1250 0.4242 0.8258
H4_3 H 0.1250 0.5758 0.6742
H6_5 H 0.3258 0.6250 0.9242
C1_8 C 0.06218(18) 0.26524(17) 0.62655(18)
C2_8 C 0.04612(18) 0.20388(18) 0.6250
H1_8 H 0.0758 0.1742 0.6250
Fe4_4 Fe 0.3750 0.3750 0.3750
O10_6 O 0.28434(17) 0.37178(17) 0.38404(15)
O11_6 O 0.36596(15) 0.37822(17) 0.46566(17)
C5_8 C 0.01524(17) 0.31218(18) 0.62345(18)
C10_6 C 0.18782(18) 0.37655(18) 0.51524(17)
C11_6 C 0.26524(17) 0.37345(18) 0.43782(18)
C12_6 C 0.31218(18) 0.37655(18) 0.48476(17)
C13_6 C 0.23476(17) 0.37345(18) 0.56218(18)
C17_6 C 0.20388(18) 0.3750 0.45388(18)
C18_6 C 0.29612(18) 0.3750 0.54612(18)
H5_6 H 0.1742 0.3750 0.4242
H6_6 H 0.3258 0.3750 0.5758
Fe2_5 Fe 0.8750 0.1250 0.6250
O2_7 O 0.96566(17) 0.13404(15) 0.62178(17)
O3_7 O 0.88404(15) 0.21566(17) 0.62822(17)
C3_7 C 0.98476(17) 0.18782(18) 0.62345(18)
C4_7 C 0.93782(18) 0.23476(17) 0.62655(18)
C14_7 C 0.95388(18) 0.29612(18) 0.6250
H2_7 H 0.9242 0.3258 0.6250
O1_6 O 0.38404(15) 0.28434(17) 0.37178(17)
C1_9 C 0.43782(18) 0.26524(17) 0.37345(18)
C2_9 C 0.45388(18) 0.20388(18) 0.3750
H1_9 H 0.4242 0.1742 0.3750
Fe2_6 Fe 0.6250 0.1250 0.3750
O2_8 O 0.53434(17) 0.13404(15) 0.37822(17)
O3_8 O 0.61596(15) 0.21566(17) 0.37178(17)
O4_6 O 0.46566(17) 0.36596(15) 0.37822(17)
O5_4 O 0.37822(17) 0.46566(17) 0.36596(15)
O6_4 O 0.37178(17) 0.61596(15) 0.21566(17)
O7_4 O 0.37822(17) 0.53434(17) 0.13404(15)
O8_4 O 0.37178(17) 0.38404(15) 0.28434(17)
O15_4 O 0.46566(17) 0.63404(15) 0.12178(17)
O16_4 O 0.38404(15) 0.71566(17) 0.12822(17)
C3_8 C 0.51524(17) 0.18782(18) 0.37655(18)
C4_8 C 0.56218(18) 0.23476(17) 0.37345(18)
C5_9 C 0.48476(17) 0.31218(18) 0.37655(18)
C6_4 C 0.37655(18) 0.48476(17) 0.31218(18)
C7_4 C 0.37345(18) 0.56218(18) 0.23476(17)
C8_4 C 0.37655(18) 0.51524(17) 0.18782(18)
C9_4 C 0.37345(18) 0.43782(18) 0.26524(17)
C14_8 C 0.54612(18) 0.29612(18) 0.3750
C15_4 C 0.3750 0.54612(18) 0.29612(18)
C16_4 C 0.3750 0.45388(18) 0.20388(18)
H2_8 H 0.5758 0.3258 0.3750
H3_4 H 0.3750 0.5758 0.3258
H4_4 H 0.3750 0.4242 0.1742
C1_10 C 0.43782(18) 0.73476(17) 0.12655(18)
C2_10 C 0.45388(18) 0.79612(18) 0.1250
H1_10 H 0.4242 0.8258 0.1250
Fe2_7 Fe 0.6250 0.8750 0.1250
O2_9 O 0.53434(17) 0.86596(15) 0.12178(17)
O3_9 O 0.61596(15) 0.78434(17) 0.12822(17)
C3_9 C 0.51524(17) 0.81218(18) 0.12345(18)
C4_9 C 0.56218(18) 0.76524(17) 0.12655(18)
C5_10 C 0.48476(17) 0.68782(18) 0.12345(18)
C14_9 C 0.54612(18) 0.70388(18) 0.1250
H2_9 H 0.5758 0.6742 0.1250
O10_7 O 0.62822(17) 0.11596(15) 0.28434(17)
O11_7 O 0.62178(17) 0.03434(17) 0.36596(15)
C11_7 C 0.62655(18) 0.06218(18) 0.26524(17)
C12_7 C 0.62345(18) 0.01524(17) 0.31218(18)
C17_7 C 0.6250 0.04612(18) 0.20388(18)
H5_7 H 0.6250 0.0758 0.1742
O1_7 O 0.71566(17) 0.87178(17) 0.11596(15)
C1_11 C 0.73476(17) 0.87345(18) 0.06218(18)
C2_11 C 0.79612(18) 0.8750 0.04612(18)
H1_11 H 0.8258 0.8750 0.0758
O4_7 O 0.63404(15) 0.87822(17) 0.03434(17)
O9_5 O 0.62178(17) 0.96566(17) 0.13404(15)
O12_5 O 0.62822(17) 0.88404(15) 0.21566(17)
C5_11 C 0.68782(18) 0.87655(18) 0.01524(17)
C10_7 C 0.62345(18) 0.98476(17) 0.18782(18)
C13_7 C 0.62655(18) 0.93782(18) 0.23476(17)
C18_7 C 0.6250 0.95388(18) 0.29612(18)
H6_7 H 0.6250 0.9242 0.3258
O1_8 O 0.78434(17) 0.12822(17) 0.61596(15)
C1_12 C 0.76524(17) 0.12655(18) 0.56218(18)
C2_12 C 0.70388(18) 0.1250 0.54612(18)
H1_12 H 0.6742 0.1250 0.5758
O2_10 O 0.63404(15) 0.12178(17) 0.46566(17)
O3_10 O 0.71566(17) 0.12822(17) 0.38404(15)
O4_8 O 0.86596(15) 0.12178(17) 0.53434(17)
O9_6 O 0.87822(17) 0.03434(17) 0.63404(15)
O12_6 O 0.87178(17) 0.11596(15) 0.71566(17)
C3_10 C 0.68782(18) 0.12345(18) 0.48476(17)
C4_10 C 0.73476(17) 0.12655(18) 0.43782(18)
C5_12 C 0.81218(18) 0.12345(18) 0.51524(17)
C10_8 C 0.87655(18) 0.01524(17) 0.68782(18)
C13_8 C 0.87345(18) 0.06218(18) 0.73476(17)
C14_10 C 0.79612(18) 0.1250 0.45388(18)
C18_8 C 0.8750 0.04612(18) 0.79612(18)
H2_10 H 0.8258 0.1250 0.4242
H6_8 H 0.8750 0.0758 0.8258
Fe2_8 Fe 0.8750 0.8750 0.8750
O2_11 O 0.96566(17) 0.86596(15) 0.87822(17)
O3_11 O 0.88404(15) 0.78434(17) 0.87178(17)
C3_11 C 0.98476(17) 0.81218(18) 0.87655(18)
C4_11 C 0.93782(18) 0.76524(17) 0.87345(18)
C14_11 C 0.95388(18) 0.70388(18) 0.8750
H2_11 H 0.9242 0.6742 0.8750
O2_12 O 0.86596(15) 0.87822(17) 0.96566(17)
O3_12 O 0.78434(17) 0.87178(17) 0.88404(15)
C3_12 C 0.81218(18) 0.87655(18) 0.98476(17)
C4_12 C 0.76524(17) 0.87345(18) 0.93782(18)
C14_12 C 0.70388(18) 0.8750 0.95388(18)
H2_12 H 0.6742 0.8750 0.9242
O10_8 O 0.87178(17) 0.88404(15) 0.78434(17)
O11_8 O 0.87822(17) 0.96566(17) 0.86596(15)
C11_8 C 0.87345(18) 0.93782(18) 0.76524(17)
C12_8 C 0.87655(18) 0.98476(17) 0.81218(18)
C17_8 C 0.8750 0.95388(18) 0.70388(18)
H5_8 H 0.8750 0.9242 0.6742
loop_
_geom_bond_atom_site_label_1
_geom_bond_atom_site_label_2
_geom_bond_site_symmetry_1
_geom_bond_site_symmetry_2
Fe2 O2 1_555 1_555
O2 C3 1_555 1_555
O3 Fe2 1_555 1_555
C4 O3 1_555 1_555
C14 C4 1_555 1_555
H2 C14 1_555 1_555
C3 C4 1_555 1_555
Fe2 O2_2 1_555 1_555
O2_2 C3_2 1_555 1_555
O3_2 Fe2 1_555 1_555
C4_2 O3_2 1_555 1_555
C14_2 C4_2 1_555 1_555
H2_2 C14_2 1_555 1_555
C3_2 C4_2 1_555 1_555
Fe2 O10 1_555 1_555
O10 C11 1_555 1_555
O11 Fe2 1_555 1_555
C11 C12 1_555 1_555
C12 O11 1_555 1_555
H5 C17 1_555 1_555
C11 C17 1_555 1_555
Fe1 O1 1_555 1_555
O1 C1 1_555 1_555
C1 C2 1_555 1_555
C2 H1 1_555 1_555
Fe3 O6 1_555 1_555
O4 Fe1 1_555 1_555
O5 Fe1 1_555 1_555
O6 C7 1_555 1_555
O7 Fe3 1_555 1_555
O8 Fe1 1_555 1_555
O9 Fe1 1_555 1_555
O12 Fe1 1_555 1_555
O13 Fe3 1_555 1_555
O14 Fe3 1_555 1_555
O15 Fe3 1_555 1_555
O16 Fe3 1_555 1_555
C5 C1 1_555 1_555
C6 O5 1_555 1_555
C7 C8 1_555 1_555
C8 O7 1_555 1_555
C9 O8 1_555 1_555
C10 O9 1_555 1_555
C13 O12 1_555 1_555
C15 C6 1_555 1_555
C16 C8 1_555 1_555
H3 C15 1_555 1_555
H4 C16 1_555 1_555
H6 C18 1_555 1_555
O4 C5 1_555 1_555
C6 C9 1_555 1_555
C7 C15 1_555 1_555
C9 C16 1_555 1_555
C10 C13 1_555 1_555
C13 C18 1_555 1_555
Fe4 O10_2 1_555 1_555
O10_2 C11_2 1_555 1_555
O11_2 Fe4 1_555 1_555
C11_2 C12_2 1_555 1_555
C12_2 O11_2 1_555 1_555
H5_2 C17_2 1_555 1_555
C11_2 C17_2 1_555 1_555
Fe2_2 O2_3 1_555 1_555
O2_3 C3_3 1_555 1_555
O3_3 Fe2_2 1_555 1_555
C4_3 O3_3 1_555 1_555
C14_3 C4_3 1_555 1_555
H2_3 C14_3 1_555 1_555
C3_3 C4_3 1_555 1_555
O16 C1_2 1_555 1_555
C1_2 C2_2 1_555 1_555
C2_2 H1_2 1_555 1_555
Fe4_2 O10_3 1_555 1_555
O10_3 C11_3 1_555 1_555
O11_3 Fe4_2 1_555 1_555
C5_2 C1_2 1_555 1_555
C10_2 O13 1_555 1_555
C11_3 C12_3 1_555 1_555
C12_3 O11_3 1_555 1_555
C13_2 O14 1_555 1_555
C17_3 C10_2 1_555 1_555
C18_2 C12_3 1_555 1_555
H5_3 C17_3 1_555 1_555
H6_2 C18_2 1_555 1_555
O15 C5_2 1_555 1_555
C10_2 C13_2 1_555 1_555
C11_3 C17_3 1_555 1_555
C13_2 C18_2 1_555 1_555
Fe4_2 O1_2 1_555 1_555
O1_2 C1_3 1_555 1_555
C1_3 C2_3 1_555 1_555
C2_3 H1_3 1_555 1_555
Fe2_3 O2_4 1_555 1_555
Fe4 O6_2 1_555 1_555
O2_4 C3_4 1_555 1_555
O3_4 Fe2_3 1_555 1_555
O4_2 Fe4_2 1_555 1_555
O5_2 Fe4_2 1_555 1_555
O6_2 C7_2 1_555 1_555
O7_2 Fe4 1_555 1_555
O8_2 Fe4_2 1_555 1_555
O15_2 Fe4 1_555 1_555
O16_2 Fe4 1_555 1_555
C3_4 C2_3 1_555 1_555
C4_4 O3_4 1_555 1_555
C5_3 C1_3 1_555 1_555
C6_2 O5_2 1_555 1_555
C7_2 C8_2 1_555 1_555
C8_2 O7_2 1_555 1_555
C9_2 O8_2 1_555 1_555
C14_4 C4_4 1_555 1_555
C15_2 C6_2 1_555 1_555
C16_2 C8_2 1_555 1_555
H2_4 C14_4 1_555 1_555
H3_2 C15_2 1_555 1_555
H4_2 C16_2 1_555 1_555
O4_2 C5_3 1_555 1_555
C3_4 C4_4 1_555 1_555
C5_3 C14_4 1_555 1_555
C6_2 C9_2 1_555 1_555
C7_2 C15_2 1_555 1_555
C9_2 C16_2 1_555 1_555
O16_2 C1_4 1_555 1_555
C1_4 C2_4 1_555 1_555
C2_4 H1_4 1_555 1_555
Fe2_4 O2_5 1_555 1_555
O2_5 C3_5 1_555 1_555
O3_5 Fe2_4 1_555 1_555
C3_5 C2_4 1_555 1_555
C4_5 O3_5 1_555 1_555
C5_4 C1_4 1_555 1_555
C14_5 C4_5 1_555 1_555
H2_5 C14_5 1_555 1_555
O15_2 C5_4 1_555 1_555
C3_5 C4_5 1_555 1_555
C5_4 C14_5 1_555 1_555
Fe2_4 O1_3 1_555 1_555
O1_3 C1_5 1_555 1_555
C1_5 C2_5 1_555 1_555
C2_5 H1_5 1_555 1_555
O4_3 Fe2_4 1_555 1_555
O9_2 Fe2_4 1_555 1_555
O12_2 Fe2_4 1_555 1_555
C5_5 C1_5 1_555 1_555
C10_3 O9_2 1_555 1_555
C13_3 O12_2 1_555 1_555
H6_3 C18_3 1_555 1_555
O4_3 C5_5 1_555 1_555
C10_3 C13_3 1_555 1_555
C13_3 C18_3 1_555 1_555
Fe2_3 O10_4 1_555 1_555
O10_4 C11_4 1_555 1_555
O11_4 Fe2_3 1_555 1_555
C11_4 C12_4 1_555 1_555
C12_4 O11_4 1_555 1_555
H5_4 C17_4 1_555 1_555
C11_4 C17_4 1_555 1_555
Fe2_2 O1_4 1_555 1_555
O1_4 C1_6 1_555 1_555
C1_6 C2_6 1_555 1_555
C2_6 H1_6 1_555 1_555
Fe2_3 O2_6 1_555 1_555
O2_6 C3_6 1_555 1_555
O3_6 Fe2_3 1_555 1_555
O4_4 Fe2_2 1_555 1_555
O9_3 Fe2_2 1_555 1_555
O12_3 Fe2_2 1_555 1_555
C3_6 C2_6 1_555 1_555
C4_6 O3_6 1_555 1_555
C5_6 C1_6 1_555 1_555
C10_4 O9_3 1_555 1_555
C13_4 O12_3 1_555 1_555
C14_6 C4_6 1_555 1_555
H2_6 C14_6 1_555 1_555
H6_4 C18_4 1_555 1_555
O4_4 C5_6 1_555 1_555
C3_6 C4_6 1_555 1_555
C5_6 C14_6 1_555 1_555
C10_4 C13_4 1_555 1_555
C13_4 C18_4 1_555 1_555
Fe4_3 O10_5 1_555 1_555
O10_5 C11_5 1_555 1_555
O11_5 Fe4_3 1_555 1_555
C11_5 C12_5 1_555 1_555
C12_5 O11_5 1_555 1_555
H5_5 C17_5 1_555 1_555
C11_5 C17_5 1_555 1_555
Fe1_2 O1_5 1_555 1_555
O1_5 C1_7 1_555 1_555
C1_7 C2_7 1_555 1_555
C2_7 H1_7 1_555 1_555
Fe3_2 O6_3 1_555 1_555
O4_5 Fe1_2 1_555 1_555
O5_3 Fe1_2 1_555 1_555
O6_3 C7_3 1_555 1_555
O7_3 Fe3_2 1_555 1_555
O8_3 Fe1_2 1_555 1_555
O9_4 Fe1_2 1_555 1_555
O12_4 Fe1_2 1_555 1_555
O13_2 Fe3_2 1_555 1_555
O14_2 Fe3_2 1_555 1_555
O15_3 Fe3_2 1_555 1_555
O16_3 Fe3_2 1_555 1_555
C5_7 C1_7 1_555 1_555
C6_3 O5_3 1_555 1_555
C7_3 C8_3 1_555 1_555
C8_3 O7_3 1_555 1_555
C9_3 O8_3 1_555 1_555
C10_5 O9_4 1_555 1_555
C13_5 O12_4 1_555 1_555
C15_3 C6_3 1_555 1_555
C16_3 C8_3 1_555 1_555
H3_3 C15_3 1_555 1_555
H4_3 C16_3 1_555 1_555
H6_5 C18_5 1_555 1_555
O4_5 C5_7 1_555 1_555
C6_3 C9_3 1_555 1_555
C7_3 C15_3 1_555 1_555
C9_3 C16_3 1_555 1_555
C10_5 C13_5 1_555 1_555
C13_5 C18_5 1_555 1_555
O16_3 C1_8 1_555 1_555
C1_8 C2_8 1_555 1_555
C2_8 H1_8 1_555 1_555
Fe4_4 O10_6 1_555 1_555
O10_6 C11_6 1_555 1_555
O11_6 Fe4_4 1_555 1_555
C5_8 C1_8 1_555 1_555
C10_6 O13_2 1_555 1_555
C11_6 C12_6 1_555 1_555
C12_6 O11_6 1_555 1_555
C13_6 O14_2 1_555 1_555
C17_6 C10_6 1_555 1_555
C18_6 C12_6 1_555 1_555
H5_6 C17_6 1_555 1_555
H6_6 C18_6 1_555 1_555
O15_3 C5_8 1_555 1_555
C10_6 C13_6 1_555 1_555
C11_6 C17_6 1_555 1_555
C13_6 C18_6 1_555 1_555
Fe2_5 O2_7 1_555 1_555
O2_7 C3_7 1_555 1_555
O3_7 Fe2_5 1_555 1_555
C4_7 O3_7 1_555 1_555
C14_7 C4_7 1_555 1_555
H2_7 C14_7 1_555 1_555
C3_7 C4_7 1_555 1_555
Fe4_4 O1_6 1_555 1_555
O1_6 C1_9 1_555 1_555
C1_9 C2_9 1_555 1_555
C2_9 H1_9 1_555 1_555
Fe2_6 O2_8 1_555 1_555
Fe4_3 O6_4 1_555 1_555
O2_8 C3_8 1_555 1_555
O3_8 Fe2_6 1_555 1_555
O4_6 Fe4_4 1_555 1_555
O5_4 Fe4_4 1_555 1_555
O6_4 C7_4 1_555 1_555
O7_4 Fe4_3 1_555 1_555
O8_4 Fe4_4 1_555 1_555
O15_4 Fe4_3 1_555 1_555
O16_4 Fe4_3 1_555 1_555
C3_8 C2_9 1_555 1_555
C4_8 O3_8 1_555 1_555
C5_9 C1_9 1_555 1_555
C6_4 O5_4 1_555 1_555
C7_4 C8_4 1_555 1_555
C8_4 O7_4 1_555 1_555
C9_4 O8_4 1_555 1_555
C14_8 C4_8 1_555 1_555
C15_4 C6_4 1_555 1_555
C16_4 C8_4 1_555 1_555
H2_8 C14_8 1_555 1_555
H3_4 C15_4 1_555 1_555
H4_4 C16_4 1_555 1_555
O4_6 C5_9 1_555 1_555
C3_8 C4_8 1_555 1_555
C5_9 C14_8 1_555 1_555
C6_4 C9_4 1_555 1_555
C7_4 C15_4 1_555 1_555
C9_4 C16_4 1_555 1_555
O16_4 C1_10 1_555 1_555
C1_10 C2_10 1_555 1_555
C2_10 H1_10 1_555 1_555
Fe2_7 O2_9 1_555 1_555
O2_9 C3_9 1_555 1_555
O3_9 Fe2_7 1_555 1_555
C3_9 C2_10 1_555 1_555
C4_9 O3_9 1_555 1_555
C5_10 C1_10 1_555 1_555
C14_9 C4_9 1_555 1_555
H2_9 C14_9 1_555 1_555
O15_4 C5_10 1_555 1_555
C3_9 C4_9 1_555 1_555
C5_10 C14_9 1_555 1_555
Fe2_6 O10_7 1_555 1_555
O10_7 C11_7 1_555 1_555
O11_7 Fe2_6 1_555 1_555
C11_7 C12_7 1_555 1_555
C12_7 O11_7 1_555 1_555
H5_7 C17_7 1_555 1_555
C11_7 C17_7 1_555 1_555
Fe2_7 O1_7 1_555 1_555
O1_7 C1_11 1_555 1_555
C1_11 C2_11 1_555 1_555
C2_11 H1_11 1_555 1_555
O4_7 Fe2_7 1_555 1_555
O9_5 Fe2_7 1_555 1_555
O12_5 Fe2_7 1_555 1_555
C5_11 C1_11 1_555 1_555
C10_7 O9_5 1_555 1_555
C13_7 O12_5 1_555 1_555
H6_7 C18_7 1_555 1_555
O4_7 C5_11 1_555 1_555
C10_7 C13_7 1_555 1_555
C13_7 C18_7 1_555 1_555
Fe2_5 O1_8 1_555 1_555
O1_8 C1_12 1_555 1_555
C1_12 C2_12 1_555 1_555
C2_12 H1_12 1_555 1_555
Fe2_6 O2_10 1_555 1_555
O2_10 C3_10 1_555 1_555
O3_10 Fe2_6 1_555 1_555
O4_8 Fe2_5 1_555 1_555
O9_6 Fe2_5 1_555 1_555
O12_6 Fe2_5 1_555 1_555
C3_10 C2_12 1_555 1_555
C4_10 O3_10 1_555 1_555
C5_12 C1_12 1_555 1_555
C10_8 O9_6 1_555 1_555
C13_8 O12_6 1_555 1_555
C14_10 C4_10 1_555 1_555
H2_10 C14_10 1_555 1_555
H6_8 C18_8 1_555 1_555
O4_8 C5_12 1_555 1_555
C3_10 C4_10 1_555 1_555
C5_12 C14_10 1_555 1_555
C10_8 C13_8 1_555 1_555
C13_8 C18_8 1_555 1_555
Fe2_8 O2_11 1_555 1_555
O2_11 C3_11 1_555 1_555
O3_11 Fe2_8 1_555 1_555
C4_11 O3_11 1_555 1_555
C14_11 C4_11 1_555 1_555
H2_11 C14_11 1_555 1_555
C3_11 C4_11 1_555 1_555
Fe2_8 O2_12 1_555 1_555
O2_12 C3_12 1_555 1_555
O3_12 Fe2_8 1_555 1_555
C4_12 O3_12 1_555 1_555
C14_12 C4_12 1_555 1_555
H2_12 C14_12 1_555 1_555
C3_12 C4_12 1_555 1_555
Fe2_8 O10_8 1_555 1_555
O10_8 C11_8 1_555 1_555
O11_8 Fe2_8 1_555 1_555
C11_8 C12_8 1_555 1_555
C12_8 O11_8 1_555 1_555
H5_8 C17_8 1_555 1_555
C11_8 C17_8 1_555 1_555

#END
