
###############################################################################
#
# This file contains modified crystal structure data generated from the
# MOF subset of the Cambridge Structural Database (CSD) v543 
# hosted by the Cambridge Crystallographic Data Centre (CCDC).
#
# This work is licensed under the Creative Commons
# Attribution-NonCommercial-ShareAlike 4.0 International License.
# To view a copy of this license, visit
# http://creativecommons.org/licenses/by-nc-sa/4.0/
# or send a letter to
# Creative Commons, PO Box 1866, Mountain View, CA 94042, USA.
#
# CIF created using the CSD Python API on 29 September 2022
# The structure has been converted into the P1 space group
# The structure has a 3D framework
# The original CSD entry OWITEU is in the cubic crystal system
# The framework has been calculated to contain at least 10.0% void space
# The void calculation uses a probe of radius 1.32A, grid spacing 0.4
# The framework is charged, counterions have been retained in the structure
#
###############################################################################

data_OWITEU
_chemical_formula_moiety         '(C144 H48 Co8 O96 8-)n'
_symmetry_cell_setting           triclinic
_symmetry_space_group_name_H-M   'P 1'
_symmetry_Int_Tables_number      1
_space_group_name_Hall           'P 1'
loop_
_symmetry_equiv_pos_site_id
_symmetry_equiv_pos_as_xyz
1 x,y,z
_cell_length_a                   22.2434(11)
_cell_length_b                   22.2434(11)
_cell_length_c                   22.2434(11)
_cell_angle_alpha                90
_cell_angle_beta                 90
_cell_angle_gamma                90
_cell_volume                     11005.3
loop_
_atom_site_label
_atom_site_type_symbol
_atom_site_fract_x
_atom_site_fract_y
_atom_site_fract_z
Co1 Co 0.6250 0.6250 0.6250
O1 O 0.63467(18) 0.6260(2) 0.5328(2)
C1 C 0.6866(3) 0.6237(3) 0.5163(3)
C2 C 0.7028(2) 0.6250 0.4528(2)
H1 H 0.6732 0.6250 0.4232
Co2 Co 0.8750 0.6250 0.3750
Co3 Co 0.6250 0.3750 0.8750
Co4 Co 0.3750 0.8750 0.6250
O2 O 0.7828(2) 0.6240(2) 0.38467(18)
O3 O 0.86533(18) 0.6260(2) 0.4672(2)
O4 O 0.7172(2) 0.6240(2) 0.61533(18)
O5 O 0.6240(2) 0.61533(18) 0.7172(2)
O6 O 0.6260(2) 0.4672(2) 0.86533(18)
O7 O 0.6240(2) 0.38467(18) 0.7828(2)
O8 O 0.6260(2) 0.5328(2) 0.63467(18)
O9 O 0.5328(2) 0.63467(18) 0.6260(2)
O10 O 0.38467(18) 0.7828(2) 0.6240(2)
O11 O 0.4672(2) 0.86533(18) 0.6260(2)
O12 O 0.61533(18) 0.7172(2) 0.6240(2)
O13 O 0.61533(18) 0.2828(2) 0.8760(2)
O14 O 0.5328(2) 0.36533(18) 0.8740(2)
O15 O 0.63467(18) 0.3740(2) 0.9672(2)
O16 O 0.7172(2) 0.3760(2) 0.88467(18)
C3 C 0.7663(3) 0.6263(3) 0.4366(3)
C4 C 0.8134(3) 0.6237(3) 0.4837(3)
C5 C 0.7337(3) 0.6263(3) 0.5634(3)
C6 C 0.6263(3) 0.5634(3) 0.7337(3)
C7 C 0.6237(3) 0.4837(3) 0.8134(3)
C8 C 0.6263(3) 0.4366(3) 0.7663(3)
C9 C 0.6237(3) 0.5163(3) 0.6866(3)
C10 C 0.5163(3) 0.6866(3) 0.6237(3)
C11 C 0.4366(3) 0.7663(3) 0.6263(3)
C12 C 0.4837(3) 0.8134(3) 0.6237(3)
C13 C 0.5634(3) 0.7337(3) 0.6263(3)
C14 C 0.7972(2) 0.6250 0.5472(2)
C15 C 0.6250 0.5472(2) 0.7972(2)
C16 C 0.6250 0.4528(2) 0.7028(2)
C17 C 0.4528(2) 0.7028(2) 0.6250
C18 C 0.5472(2) 0.7972(2) 0.6250
H2 H 0.8268 0.6250 0.5768
H3 H 0.6250 0.5768 0.8268
H4 H 0.6250 0.4232 0.6732
H5 H 0.4232 0.6732 0.6250
H6 H 0.5768 0.8268 0.6250
C2_2 C 0.7028(2) 0.3750 0.0472(2)
H1_2 H 0.6732 0.3750 0.0768
Co2_2 Co 0.8750 0.3750 0.1250
O2_2 O 0.7828(2) 0.3760(2) 0.11533(18)
O3_2 O 0.86533(18) 0.3740(2) 0.0328(2)
C3_2 C 0.7663(3) 0.3737(3) 0.0634(3)
C4_2 C 0.8134(3) 0.3763(3) 0.0163(3)
C1_2 C 0.6866(3) 0.3763(3) 0.9837(3)
Co4_2 Co 0.3750 0.1250 0.8750
O10_2 O 0.38467(18) 0.2172(2) 0.8760(2)
O11_2 O 0.4672(2) 0.13467(18) 0.8740(2)
C5_2 C 0.7337(3) 0.3737(3) 0.9366(3)
C10_2 C 0.5163(3) 0.3134(3) 0.8763(3)
C11_2 C 0.4366(3) 0.2337(3) 0.8737(3)
C12_2 C 0.4837(3) 0.1866(3) 0.8763(3)
C13_2 C 0.5634(3) 0.2663(3) 0.8737(3)
C14_2 C 0.7972(2) 0.3750 0.9528(2)
C17_2 C 0.4528(2) 0.2972(2) 0.8750
C18_2 C 0.5472(2) 0.2028(2) 0.8750
H2_2 H 0.8268 0.3750 0.9232
H5_2 H 0.4232 0.3268 0.8750
H6_2 H 0.5768 0.1732 0.8750
O5_2 O 0.8760(2) 0.38467(18) 0.2172(2)
O6_2 O 0.8740(2) 0.5328(2) 0.36533(18)
O7_2 O 0.8760(2) 0.61533(18) 0.2828(2)
O8_2 O 0.8740(2) 0.4672(2) 0.13467(18)
O9_2 O 0.9672(2) 0.36533(18) 0.1260(2)
O12_2 O 0.88467(18) 0.2828(2) 0.1240(2)
O13_2 O 0.88467(18) 0.7172(2) 0.3760(2)
O14_2 O 0.9672(2) 0.63467(18) 0.3740(2)
C6_2 C 0.8737(3) 0.4366(3) 0.2337(3)
C7_2 C 0.8763(3) 0.5163(3) 0.3134(3)
C8_2 C 0.8737(3) 0.5634(3) 0.2663(3)
C9_2 C 0.8763(3) 0.4837(3) 0.1866(3)
C10_3 C 0.9837(3) 0.3134(3) 0.1237(3)
C13_3 C 0.9366(3) 0.2663(3) 0.1263(3)
C15_2 C 0.8750 0.4528(2) 0.2972(2)
C16_2 C 0.8750 0.5472(2) 0.2028(2)
C18_3 C 0.9528(2) 0.2028(2) 0.1250
H3_2 H 0.8750 0.4232 0.3268
H4_2 H 0.8750 0.5768 0.1732
H6_3 H 0.9232 0.1732 0.1250
Co4_3 Co 0.1250 0.8750 0.3750
O10_3 O 0.11533(18) 0.7828(2) 0.3760(2)
O11_3 O 0.0328(2) 0.86533(18) 0.3740(2)
C11_3 C 0.0634(3) 0.7663(3) 0.3737(3)
C12_3 C 0.0163(3) 0.8134(3) 0.3763(3)
C17_3 C 0.0472(2) 0.7028(2) 0.3750
H5_3 H 0.0768 0.6732 0.3750
C10_4 C 0.9837(3) 0.6866(3) 0.3763(3)
C13_4 C 0.9366(3) 0.7337(3) 0.3737(3)
C18_4 C 0.9528(2) 0.7972(2) 0.3750
H6_4 H 0.9232 0.8268 0.3750
O13_3 O 0.2828(2) 0.8760(2) 0.61533(18)
O14_3 O 0.36533(18) 0.8740(2) 0.5328(2)
O15_2 O 0.3740(2) 0.9672(2) 0.63467(18)
O16_2 O 0.3760(2) 0.88467(18) 0.7172(2)
O13_4 O 0.2828(2) 0.1240(2) 0.88467(18)
O14_4 O 0.36533(18) 0.1260(2) 0.9672(2)
O15_3 O 0.3740(2) 0.0328(2) 0.86533(18)
O16_3 O 0.3760(2) 0.11533(18) 0.7828(2)
O13_5 O 0.2172(2) 0.8760(2) 0.38467(18)
O14_5 O 0.13467(18) 0.8740(2) 0.4672(2)
O15_4 O 0.1260(2) 0.9672(2) 0.36533(18)
O16_4 O 0.1240(2) 0.88467(18) 0.2828(2)
C6_3 C 0.2663(3) 0.1263(3) 0.9366(3)
C9_3 C 0.3134(3) 0.1237(3) 0.9837(3)
C10_5 C 0.3763(3) 0.0163(3) 0.8134(3)
C13_5 C 0.3737(3) 0.0634(3) 0.7663(3)
C15_3 C 0.2028(2) 0.1250 0.9528(2)
C18_5 C 0.3750 0.0472(2) 0.7028(2)
H3_3 H 0.1732 0.1250 0.9232
H6_5 H 0.3750 0.0768 0.6732
C11_4 C 0.3737(3) 0.9366(3) 0.7337(3)
C12_4 C 0.3763(3) 0.9837(3) 0.6866(3)
C17_4 C 0.3750 0.9528(2) 0.7972(2)
H5_4 H 0.3750 0.9232 0.8268
C6_4 C 0.2663(3) 0.8737(3) 0.5634(3)
C7_3 C 0.1866(3) 0.8763(3) 0.4837(3)
C8_3 C 0.2337(3) 0.8737(3) 0.4366(3)
C9_4 C 0.3134(3) 0.8763(3) 0.5163(3)
C15_4 C 0.2028(2) 0.8750 0.5472(2)
C16_3 C 0.2972(2) 0.8750 0.4528(2)
H3_4 H 0.1732 0.8750 0.5768
H4_3 H 0.3268 0.8750 0.4232
C7_4 C 0.1237(3) 0.9837(3) 0.3134(3)
C8_4 C 0.1263(3) 0.9366(3) 0.2663(3)
C16_4 C 0.1250 0.9528(2) 0.2028(2)
H4_4 H 0.1250 0.9232 0.1732
Co4_4 Co 0.1250 0.1250 0.1250
O10_4 O 0.11533(18) 0.2172(2) 0.1240(2)
O11_4 O 0.0328(2) 0.13467(18) 0.1260(2)
C11_5 C 0.0634(3) 0.2337(3) 0.1263(3)
C12_5 C 0.0163(3) 0.1866(3) 0.1237(3)
C17_5 C 0.0472(2) 0.2972(2) 0.1250
H5_5 H 0.0768 0.3268 0.1250
O13_6 O 0.2172(2) 0.1240(2) 0.11533(18)
O14_6 O 0.13467(18) 0.1260(2) 0.0328(2)
O15_5 O 0.1260(2) 0.0328(2) 0.13467(18)
O16_5 O 0.1240(2) 0.11533(18) 0.2172(2)
C7_5 C 0.1866(3) 0.1237(3) 0.0163(3)
C8_5 C 0.2337(3) 0.1263(3) 0.0634(3)
C16_5 C 0.2972(2) 0.1250 0.0472(2)
H4_5 H 0.3268 0.1250 0.0768
C6_5 C 0.1263(3) 0.0634(3) 0.2337(3)
C9_5 C 0.1237(3) 0.0163(3) 0.1866(3)
C15_5 C 0.1250 0.0472(2) 0.2972(2)
H3_5 H 0.1250 0.0768 0.3268
Co1_2 Co 0.3750 0.3750 0.3750
O1_2 O 0.36533(18) 0.3740(2) 0.4672(2)
C1_3 C 0.3134(3) 0.3763(3) 0.4837(3)
C2_3 C 0.2972(2) 0.3750 0.5472(2)
H1_3 H 0.3268 0.3750 0.5768
Co2_3 Co 0.1250 0.3750 0.6250
Co3_2 Co 0.3750 0.6250 0.1250
Co4_5 Co 0.6250 0.1250 0.3750
O2_3 O 0.2172(2) 0.3760(2) 0.61533(18)
O3_3 O 0.13467(18) 0.3740(2) 0.5328(2)
O4_2 O 0.2828(2) 0.3760(2) 0.38467(18)
O5_3 O 0.3760(2) 0.38467(18) 0.2828(2)
O6_3 O 0.3740(2) 0.5328(2) 0.13467(18)
O7_3 O 0.3760(2) 0.61533(18) 0.2172(2)
O8_3 O 0.3740(2) 0.4672(2) 0.36533(18)
O9_3 O 0.4672(2) 0.36533(18) 0.3740(2)
O10_5 O 0.61533(18) 0.2172(2) 0.3760(2)
O11_5 O 0.5328(2) 0.13467(18) 0.3740(2)
O12_3 O 0.38467(18) 0.2828(2) 0.3760(2)
O13_7 O 0.38467(18) 0.7172(2) 0.1240(2)
O14_7 O 0.4672(2) 0.63467(18) 0.1260(2)
O15_6 O 0.36533(18) 0.6260(2) 0.0328(2)
O16_6 O 0.2828(2) 0.6240(2) 0.11533(18)
C3_3 C 0.2337(3) 0.3737(3) 0.5634(3)
C4_3 C 0.1866(3) 0.3763(3) 0.5163(3)
C5_3 C 0.2663(3) 0.3737(3) 0.4366(3)
C6_6 C 0.3737(3) 0.4366(3) 0.2663(3)
C7_6 C 0.3763(3) 0.5163(3) 0.1866(3)
C8_6 C 0.3737(3) 0.5634(3) 0.2337(3)
C9_6 C 0.3763(3) 0.4837(3) 0.3134(3)
C10_6 C 0.4837(3) 0.3134(3) 0.3763(3)
C11_6 C 0.5634(3) 0.2337(3) 0.3737(3)
C12_6 C 0.5163(3) 0.1866(3) 0.3763(3)
C13_6 C 0.4366(3) 0.2663(3) 0.3737(3)
C14_3 C 0.2028(2) 0.3750 0.4528(2)
C15_6 C 0.3750 0.4528(2) 0.2028(2)
C16_6 C 0.3750 0.5472(2) 0.2972(2)
C17_6 C 0.5472(2) 0.2972(2) 0.3750
C18_6 C 0.4528(2) 0.2028(2) 0.3750
H2_3 H 0.1732 0.3750 0.4232
H3_6 H 0.3750 0.4232 0.1732
H4_6 H 0.3750 0.5768 0.3268
H5_6 H 0.5768 0.3268 0.3750
H6_6 H 0.4232 0.1732 0.3750
C1_4 C 0.3134(3) 0.6237(3) 0.0163(3)
Co4_6 Co 0.6250 0.8750 0.1250
O10_6 O 0.61533(18) 0.7828(2) 0.1240(2)
O11_6 O 0.5328(2) 0.86533(18) 0.1260(2)
C5_4 C 0.2663(3) 0.6263(3) 0.0634(3)
C10_7 C 0.4837(3) 0.6866(3) 0.1237(3)
C11_7 C 0.5634(3) 0.7663(3) 0.1263(3)
C12_7 C 0.5163(3) 0.8134(3) 0.1237(3)
C13_7 C 0.4366(3) 0.7337(3) 0.1263(3)
C14_4 C 0.2028(2) 0.6250 0.0472(2)
C17_7 C 0.5472(2) 0.7028(2) 0.1250
C18_7 C 0.4528(2) 0.7972(2) 0.1250
H2_4 H 0.1732 0.6250 0.0768
H5_7 H 0.5768 0.6732 0.1250
H6_7 H 0.4232 0.8268 0.1250
C2_4 C 0.2972(2) 0.6250 0.9528(2)
H1_4 H 0.3268 0.6250 0.9232
Co2_4 Co 0.1250 0.6250 0.8750
O2_4 O 0.2172(2) 0.6240(2) 0.88467(18)
O3_4 O 0.13467(18) 0.6260(2) 0.9672(2)
C3_4 C 0.2337(3) 0.6263(3) 0.9366(3)
C4_4 C 0.1866(3) 0.6237(3) 0.9837(3)
O5_4 O 0.1240(2) 0.61533(18) 0.7828(2)
O6_4 O 0.1260(2) 0.4672(2) 0.63467(18)
O7_4 O 0.1240(2) 0.38467(18) 0.7172(2)
O8_4 O 0.1260(2) 0.5328(2) 0.86533(18)
O9_4 O 0.0328(2) 0.63467(18) 0.8740(2)
O12_4 O 0.11533(18) 0.7172(2) 0.8760(2)
O13_8 O 0.11533(18) 0.2828(2) 0.6240(2)
O14_8 O 0.0328(2) 0.36533(18) 0.6260(2)
C6_7 C 0.1263(3) 0.5634(3) 0.7663(3)
C7_7 C 0.1237(3) 0.4837(3) 0.6866(3)
C8_7 C 0.1263(3) 0.4366(3) 0.7337(3)
C9_7 C 0.1237(3) 0.5163(3) 0.8134(3)
C10_8 C 0.0163(3) 0.6866(3) 0.8763(3)
C13_8 C 0.0634(3) 0.7337(3) 0.8737(3)
C15_7 C 0.1250 0.5472(2) 0.7028(2)
C16_7 C 0.1250 0.4528(2) 0.7972(2)
C18_8 C 0.0472(2) 0.7972(2) 0.8750
H3_7 H 0.1250 0.5768 0.6732
H4_7 H 0.1250 0.4232 0.8268
H6_8 H 0.0768 0.8268 0.8750
C10_9 C 0.0163(3) 0.3134(3) 0.6237(3)
C13_9 C 0.0634(3) 0.2663(3) 0.6263(3)
C18_9 C 0.0472(2) 0.2028(2) 0.6250
H6_9 H 0.0768 0.1732 0.6250
Co4_7 Co 0.8750 0.1250 0.6250
O10_7 O 0.88467(18) 0.2172(2) 0.6240(2)
O11_7 O 0.9672(2) 0.13467(18) 0.6260(2)
C11_8 C 0.9366(3) 0.2337(3) 0.6263(3)
C12_8 C 0.9837(3) 0.1866(3) 0.6237(3)
C17_8 C 0.9528(2) 0.2972(2) 0.6250
H5_8 H 0.9232 0.3268 0.6250
O13_9 O 0.7172(2) 0.1240(2) 0.38467(18)
O14_9 O 0.63467(18) 0.1260(2) 0.4672(2)
O15_7 O 0.6260(2) 0.0328(2) 0.36533(18)
O16_7 O 0.6240(2) 0.11533(18) 0.2828(2)
O13_10 O 0.7172(2) 0.8760(2) 0.11533(18)
O14_10 O 0.63467(18) 0.8740(2) 0.0328(2)
O15_8 O 0.6260(2) 0.9672(2) 0.13467(18)
O16_8 O 0.6240(2) 0.88467(18) 0.2172(2)
O13_11 O 0.7828(2) 0.1240(2) 0.61533(18)
O14_11 O 0.86533(18) 0.1260(2) 0.5328(2)
O15_9 O 0.8740(2) 0.0328(2) 0.63467(18)
O16_9 O 0.8760(2) 0.11533(18) 0.7172(2)
C11_9 C 0.6263(3) 0.0634(3) 0.2663(3)
C12_9 C 0.6237(3) 0.0163(3) 0.3134(3)
C17_9 C 0.6250 0.0472(2) 0.2028(2)
H5_9 H 0.6250 0.0768 0.1732
C6_8 C 0.7337(3) 0.8737(3) 0.0634(3)
C9_8 C 0.6866(3) 0.8763(3) 0.0163(3)
C10_10 C 0.6237(3) 0.9837(3) 0.1866(3)
C13_10 C 0.6263(3) 0.9366(3) 0.2337(3)
C15_8 C 0.7972(2) 0.8750 0.0472(2)
C18_10 C 0.6250 0.9528(2) 0.2972(2)
H3_8 H 0.8268 0.8750 0.0768
H6_10 H 0.6250 0.9232 0.3268
C6_9 C 0.7337(3) 0.1263(3) 0.4366(3)
C7_8 C 0.8134(3) 0.1237(3) 0.5163(3)
C8_8 C 0.7663(3) 0.1263(3) 0.5634(3)
C9_9 C 0.6866(3) 0.1237(3) 0.4837(3)
C15_9 C 0.7972(2) 0.1250 0.4528(2)
C16_8 C 0.7028(2) 0.1250 0.5472(2)
H3_9 H 0.8268 0.1250 0.4232
H4_8 H 0.6732 0.1250 0.5768
C7_9 C 0.8763(3) 0.0163(3) 0.6866(3)
C8_9 C 0.8737(3) 0.0634(3) 0.7337(3)
C16_9 C 0.8750 0.0472(2) 0.7972(2)
H4_9 H 0.8750 0.0768 0.8268
Co4_8 Co 0.8750 0.8750 0.8750
O10_8 O 0.88467(18) 0.7828(2) 0.8760(2)
O11_8 O 0.9672(2) 0.86533(18) 0.8740(2)
C11_10 C 0.9366(3) 0.7663(3) 0.8737(3)
C12_10 C 0.9837(3) 0.8134(3) 0.8763(3)
C17_10 C 0.9528(2) 0.7028(2) 0.8750
H5_10 H 0.9232 0.6732 0.8750
O13_12 O 0.7828(2) 0.8760(2) 0.88467(18)
O14_12 O 0.86533(18) 0.8740(2) 0.9672(2)
O15_10 O 0.8740(2) 0.9672(2) 0.86533(18)
O16_10 O 0.8760(2) 0.88467(18) 0.7828(2)
C7_10 C 0.8134(3) 0.8763(3) 0.9837(3)
C8_10 C 0.7663(3) 0.8737(3) 0.9366(3)
C16_10 C 0.7028(2) 0.8750 0.9528(2)
H4_10 H 0.6732 0.8750 0.9232
C6_10 C 0.8737(3) 0.9366(3) 0.7663(3)
C9_10 C 0.8763(3) 0.9837(3) 0.8134(3)
C15_10 C 0.8750 0.9528(2) 0.7028(2)
H3_10 H 0.8750 0.9232 0.6732
loop_
_geom_bond_atom_site_label_1
_geom_bond_atom_site_label_2
_geom_bond_site_symmetry_1
_geom_bond_site_symmetry_2
Co1 O1 1_555 1_555
O1 C1 1_555 1_555
C1 C2 1_555 1_555
C2 H1 1_555 1_555
Co2 O2 1_555 1_555
Co3 O6 1_555 1_555
Co4 O10 1_555 1_555
O2 C3 1_555 1_555
O3 Co2 1_555 1_555
O4 Co1 1_555 1_555
O5 Co1 1_555 1_555
O6 C7 1_555 1_555
O7 Co3 1_555 1_555
O8 Co1 1_555 1_555
O9 Co1 1_555 1_555
O10 C11 1_555 1_555
O11 Co4 1_555 1_555
O12 Co1 1_555 1_555
O13 Co3 1_555 1_555
O14 Co3 1_555 1_555
O15 Co3 1_555 1_555
O16 Co3 1_555 1_555
C3 C2 1_555 1_555
C4 O3 1_555 1_555
C5 C1 1_555 1_555
C6 O5 1_555 1_555
C7 C8 1_555 1_555
C8 O7 1_555 1_555
C9 O8 1_555 1_555
C10 O9 1_555 1_555
C11 C12 1_555 1_555
C12 O11 1_555 1_555
C13 O12 1_555 1_555
C14 C4 1_555 1_555
C15 C6 1_555 1_555
C16 C8 1_555 1_555
C17 C10 1_555 1_555
C18 C12 1_555 1_555
H2 C14 1_555 1_555
H3 C15 1_555 1_555
H4 C16 1_555 1_555
H5 C17 1_555 1_555
H6 C18 1_555 1_555
O4 C5 1_555 1_555
C3 C4 1_555 1_555
C5 C14 1_555 1_555
C6 C9 1_555 1_555
C7 C15 1_555 1_555
C9 C16 1_555 1_555
C10 C13 1_555 1_555
C11 C17 1_555 1_555
C13 C18 1_555 1_555
C2_2 H1_2 1_555 1_555
Co2_2 O2_2 1_555 1_555
O2_2 C3_2 1_555 1_555
O3_2 Co2_2 1_555 1_555
C3_2 C2_2 1_555 1_555
C4_2 O3_2 1_555 1_555
C3_2 C4_2 1_555 1_555
O15 C1_2 1_555 1_555
Co4_2 O10_2 1_555 1_555
O10_2 C11_2 1_555 1_555
O11_2 Co4_2 1_555 1_555
C5_2 C1_2 1_555 1_555
C10_2 O14 1_555 1_555
C11_2 C12_2 1_555 1_555
C12_2 O11_2 1_555 1_555
C13_2 O13 1_555 1_555
C17_2 C10_2 1_555 1_555
C18_2 C12_2 1_555 1_555
H2_2 C14_2 1_555 1_555
H5_2 C17_2 1_555 1_555
H6_2 C18_2 1_555 1_555
O16 C5_2 1_555 1_555
C5_2 C14_2 1_555 1_555
C10_2 C13_2 1_555 1_555
C11_2 C17_2 1_555 1_555
C13_2 C18_2 1_555 1_555
Co2 O6_2 1_555 1_555
O5_2 Co2_2 1_555 1_555
O6_2 C7_2 1_555 1_555
O7_2 Co2 1_555 1_555
O8_2 Co2_2 1_555 1_555
O9_2 Co2_2 1_555 1_555
O12_2 Co2_2 1_555 1_555
O13_2 Co2 1_555 1_555
O14_2 Co2 1_555 1_555
C6_2 O5_2 1_555 1_555
C7_2 C8_2 1_555 1_555
C8_2 O7_2 1_555 1_555
C9_2 O8_2 1_555 1_555
C10_3 O9_2 1_555 1_555
C13_3 O12_2 1_555 1_555
C15_2 C6_2 1_555 1_555
C16_2 C8_2 1_555 1_555
H3_2 C15_2 1_555 1_555
H4_2 C16_2 1_555 1_555
H6_3 C18_3 1_555 1_555
C6_2 C9_2 1_555 1_555
C7_2 C15_2 1_555 1_555
C9_2 C16_2 1_555 1_555
C10_3 C13_3 1_555 1_555
C13_3 C18_3 1_555 1_555
Co4_3 O10_3 1_555 1_555
O10_3 C11_3 1_555 1_555
O11_3 Co4_3 1_555 1_555
C11_3 C12_3 1_555 1_555
C12_3 O11_3 1_555 1_555
H5_3 C17_3 1_555 1_555
C11_3 C17_3 1_555 1_555
C10_4 O14_2 1_555 1_555
C13_4 O13_2 1_555 1_555
H6_4 C18_4 1_555 1_555
C10_4 C13_4 1_555 1_555
C13_4 C18_4 1_555 1_555
O13_3 Co4 1_555 1_555
O14_3 Co4 1_555 1_555
O15_2 Co4 1_555 1_555
O16_2 Co4 1_555 1_555
O13_4 Co4_2 1_555 1_555
O14_4 Co4_2 1_555 1_555
O15_3 Co4_2 1_555 1_555
O16_3 Co4_2 1_555 1_555
O13_5 Co4_3 1_555 1_555
O14_5 Co4_3 1_555 1_555
O15_4 Co4_3 1_555 1_555
O16_4 Co4_3 1_555 1_555
C6_3 O13_4 1_555 1_555
C9_3 O14_4 1_555 1_555
C10_5 O15_3 1_555 1_555
C13_5 O16_3 1_555 1_555
C15_3 C6_3 1_555 1_555
H3_3 C15_3 1_555 1_555
H6_5 C18_5 1_555 1_555
C6_3 C9_3 1_555 1_555
C10_5 C13_5 1_555 1_555
C13_5 C18_5 1_555 1_555
O16_2 C11_4 1_555 1_555
C11_4 C12_4 1_555 1_555
C12_4 O15_2 1_555 1_555
H5_4 C17_4 1_555 1_555
C11_4 C17_4 1_555 1_555
O14_5 C7_3 1_555 1_555
C6_4 O13_3 1_555 1_555
C7_3 C8_3 1_555 1_555
C8_3 O13_5 1_555 1_555
C9_4 O14_3 1_555 1_555
C15_4 C6_4 1_555 1_555
C16_3 C8_3 1_555 1_555
H3_4 C15_4 1_555 1_555
H4_3 C16_3 1_555 1_555
C6_4 C9_4 1_555 1_555
C7_3 C15_4 1_555 1_555
C9_4 C16_3 1_555 1_555
O15_4 C7_4 1_555 1_555
C7_4 C8_4 1_555 1_555
C8_4 O16_4 1_555 1_555
C16_4 C8_4 1_555 1_555
H4_4 C16_4 1_555 1_555
Co4_4 O10_4 1_555 1_555
O10_4 C11_5 1_555 1_555
O11_4 Co4_4 1_555 1_555
C11_5 C12_5 1_555 1_555
C12_5 O11_4 1_555 1_555
H5_5 C17_5 1_555 1_555
C11_5 C17_5 1_555 1_555
O13_6 Co4_4 1_555 1_555
O14_6 Co4_4 1_555 1_555
O15_5 Co4_4 1_555 1_555
O16_5 Co4_4 1_555 1_555
O14_6 C7_5 1_555 1_555
C7_5 C8_5 1_555 1_555
C8_5 O13_6 1_555 1_555
C16_5 C8_5 1_555 1_555
H4_5 C16_5 1_555 1_555
C6_5 O16_5 1_555 1_555
C9_5 O15_5 1_555 1_555
C15_5 C6_5 1_555 1_555
H3_5 C15_5 1_555 1_555
C6_5 C9_5 1_555 1_555
Co1_2 O1_2 1_555 1_555
O1_2 C1_3 1_555 1_555
C1_3 C2_3 1_555 1_555
C2_3 H1_3 1_555 1_555
Co2_3 O2_3 1_555 1_555
Co3_2 O6_3 1_555 1_555
Co4_5 O10_5 1_555 1_555
O2_3 C3_3 1_555 1_555
O3_3 Co2_3 1_555 1_555
O4_2 Co1_2 1_555 1_555
O5_3 Co1_2 1_555 1_555
O6_3 C7_6 1_555 1_555
O7_3 Co3_2 1_555 1_555
O8_3 Co1_2 1_555 1_555
O9_3 Co1_2 1_555 1_555
O10_5 C11_6 1_555 1_555
O11_5 Co4_5 1_555 1_555
O12_3 Co1_2 1_555 1_555
O13_7 Co3_2 1_555 1_555
O14_7 Co3_2 1_555 1_555
O15_6 Co3_2 1_555 1_555
O16_6 Co3_2 1_555 1_555
C3_3 C2_3 1_555 1_555
C4_3 O3_3 1_555 1_555
C5_3 C1_3 1_555 1_555
C6_6 O5_3 1_555 1_555
C7_6 C8_6 1_555 1_555
C8_6 O7_3 1_555 1_555
C9_6 O8_3 1_555 1_555
C10_6 O9_3 1_555 1_555
C11_6 C12_6 1_555 1_555
C12_6 O11_5 1_555 1_555
C13_6 O12_3 1_555 1_555
C14_3 C4_3 1_555 1_555
C15_6 C6_6 1_555 1_555
C16_6 C8_6 1_555 1_555
C17_6 C10_6 1_555 1_555
C18_6 C12_6 1_555 1_555
H2_3 C14_3 1_555 1_555
H3_6 C15_6 1_555 1_555
H4_6 C16_6 1_555 1_555
H5_6 C17_6 1_555 1_555
H6_6 C18_6 1_555 1_555
O4_2 C5_3 1_555 1_555
C3_3 C4_3 1_555 1_555
C5_3 C14_3 1_555 1_555
C6_6 C9_6 1_555 1_555
C7_6 C15_6 1_555 1_555
C9_6 C16_6 1_555 1_555
C10_6 C13_6 1_555 1_555
C11_6 C17_6 1_555 1_555
C13_6 C18_6 1_555 1_555
O15_6 C1_4 1_555 1_555
Co4_6 O10_6 1_555 1_555
O10_6 C11_7 1_555 1_555
O11_6 Co4_6 1_555 1_555
C5_4 C1_4 1_555 1_555
C10_7 O14_7 1_555 1_555
C11_7 C12_7 1_555 1_555
C12_7 O11_6 1_555 1_555
C13_7 O13_7 1_555 1_555
C17_7 C10_7 1_555 1_555
C18_7 C12_7 1_555 1_555
H2_4 C14_4 1_555 1_555
H5_7 C17_7 1_555 1_555
H6_7 C18_7 1_555 1_555
O16_6 C5_4 1_555 1_555
C5_4 C14_4 1_555 1_555
C10_7 C13_7 1_555 1_555
C11_7 C17_7 1_555 1_555
C13_7 C18_7 1_555 1_555
C2_4 H1_4 1_555 1_555
Co2_4 O2_4 1_555 1_555
O2_4 C3_4 1_555 1_555
O3_4 Co2_4 1_555 1_555
C3_4 C2_4 1_555 1_555
C4_4 O3_4 1_555 1_555
C3_4 C4_4 1_555 1_555
Co2_3 O6_4 1_555 1_555
O5_4 Co2_4 1_555 1_555
O6_4 C7_7 1_555 1_555
O7_4 Co2_3 1_555 1_555
O8_4 Co2_4 1_555 1_555
O9_4 Co2_4 1_555 1_555
O12_4 Co2_4 1_555 1_555
O13_8 Co2_3 1_555 1_555
O14_8 Co2_3 1_555 1_555
C6_7 O5_4 1_555 1_555
C7_7 C8_7 1_555 1_555
C8_7 O7_4 1_555 1_555
C9_7 O8_4 1_555 1_555
C10_8 O9_4 1_555 1_555
C13_8 O12_4 1_555 1_555
C15_7 C6_7 1_555 1_555
C16_7 C8_7 1_555 1_555
H3_7 C15_7 1_555 1_555
H4_7 C16_7 1_555 1_555
H6_8 C18_8 1_555 1_555
C6_7 C9_7 1_555 1_555
C7_7 C15_7 1_555 1_555
C9_7 C16_7 1_555 1_555
C10_8 C13_8 1_555 1_555
C13_8 C18_8 1_555 1_555
C10_9 O14_8 1_555 1_555
C13_9 O13_8 1_555 1_555
H6_9 C18_9 1_555 1_555
C10_9 C13_9 1_555 1_555
C13_9 C18_9 1_555 1_555
Co4_7 O10_7 1_555 1_555
O10_7 C11_8 1_555 1_555
O11_7 Co4_7 1_555 1_555
C11_8 C12_8 1_555 1_555
C12_8 O11_7 1_555 1_555
H5_8 C17_8 1_555 1_555
C11_8 C17_8 1_555 1_555
O13_9 Co4_5 1_555 1_555
O14_9 Co4_5 1_555 1_555
O15_7 Co4_5 1_555 1_555
O16_7 Co4_5 1_555 1_555
O13_10 Co4_6 1_555 1_555
O14_10 Co4_6 1_555 1_555
O15_8 Co4_6 1_555 1_555
O16_8 Co4_6 1_555 1_555
O13_11 Co4_7 1_555 1_555
O14_11 Co4_7 1_555 1_555
O15_9 Co4_7 1_555 1_555
O16_9 Co4_7 1_555 1_555
O16_7 C11_9 1_555 1_555
C11_9 C12_9 1_555 1_555
C12_9 O15_7 1_555 1_555
H5_9 C17_9 1_555 1_555
C11_9 C17_9 1_555 1_555
C6_8 O13_10 1_555 1_555
C9_8 O14_10 1_555 1_555
C10_10 O15_8 1_555 1_555
C13_10 O16_8 1_555 1_555
C15_8 C6_8 1_555 1_555
H3_8 C15_8 1_555 1_555
H6_10 C18_10 1_555 1_555
C6_8 C9_8 1_555 1_555
C10_10 C13_10 1_555 1_555
C13_10 C18_10 1_555 1_555
O14_11 C7_8 1_555 1_555
C6_9 O13_9 1_555 1_555
C7_8 C8_8 1_555 1_555
C8_8 O13_11 1_555 1_555
C9_9 O14_9 1_555 1_555
C15_9 C6_9 1_555 1_555
C16_8 C8_8 1_555 1_555
H3_9 C15_9 1_555 1_555
H4_8 C16_8 1_555 1_555
C6_9 C9_9 1_555 1_555
C7_8 C15_9 1_555 1_555
C9_9 C16_8 1_555 1_555
O15_9 C7_9 1_555 1_555
C7_9 C8_9 1_555 1_555
C8_9 O16_9 1_555 1_555
C16_9 C8_9 1_555 1_555
H4_9 C16_9 1_555 1_555
Co4_8 O10_8 1_555 1_555
O10_8 C11_10 1_555 1_555
O11_8 Co4_8 1_555 1_555
C11_10 C12_10 1_555 1_555
C12_10 O11_8 1_555 1_555
H5_10 C17_10 1_555 1_555
C11_10 C17_10 1_555 1_555
O13_12 Co4_8 1_555 1_555
O14_12 Co4_8 1_555 1_555
O15_10 Co4_8 1_555 1_555
O16_10 Co4_8 1_555 1_555
O14_12 C7_10 1_555 1_555
C7_10 C8_10 1_555 1_555
C8_10 O13_12 1_555 1_555
C16_10 C8_10 1_555 1_555
H4_10 C16_10 1_555 1_555
C6_10 O16_10 1_555 1_555
C9_10 O15_10 1_555 1_555
C15_10 C6_10 1_555 1_555
H3_10 C15_10 1_555 1_555
C6_10 C9_10 1_555 1_555

#END
