
###############################################################################
#
# This file contains modified crystal structure data generated from the
# MOF subset of the Cambridge Structural Database (CSD) v543 
# hosted by the Cambridge Crystallographic Data Centre (CCDC).
#
# This work is licensed under the Creative Commons
# Attribution-NonCommercial-ShareAlike 4.0 International License.
# To view a copy of this license, visit
# http://creativecommons.org/licenses/by-nc-sa/4.0/
# or send a letter to
# Creative Commons, PO Box 1866, Mountain View, CA 94042, USA.
#
# CIF created using the CSD Python API on 29 September 2022
# The structure has been converted into the P1 space group
# The structure has a 3D framework
# The original CSD entry OWITAQ is in the cubic crystal system
# The framework has been calculated to contain at least 10.0% void space
# The void calculation uses a probe of radius 1.32A, grid spacing 0.4
# The framework is charged, counterions have been retained in the structure
#
###############################################################################

data_OWITAQ
_chemical_formula_moiety         '(C144 H48 O96 Zn16 16-)n'
_symmetry_cell_setting           triclinic
_symmetry_space_group_name_H-M   'P 1'
_symmetry_Int_Tables_number      1
_space_group_name_Hall           'P 1'
loop_
_symmetry_equiv_pos_site_id
_symmetry_equiv_pos_as_xyz
1 x,y,z
_cell_length_a                   22.266(5)
_cell_length_b                   22.266(5)
_cell_length_c                   22.266(5)
_cell_angle_alpha                90
_cell_angle_beta                 90
_cell_angle_gamma                90
_cell_volume                     11038.9
loop_
_atom_site_label
_atom_site_type_symbol
_atom_site_fract_x
_atom_site_fract_y
_atom_site_fract_z
Zn1 Zn 0.3750 0.3750 0.3750
O1 O 0.36528(11) 0.37554(13) 0.46620(13)
C1 C 0.31221(14) 0.37598(17) 0.48559(13)
C2 C 0.29672(15) 0.3750 0.54672(15)
H1 H 0.3263 0.3750 0.5763
Zn2 Zn 0.1250 0.3750 0.6250
Zn3 Zn 0.3750 0.6250 0.1250
Zn4 Zn 0.6250 0.1250 0.3750
O2 O 0.21620(13) 0.37446(13) 0.61528(11)
O3 O 0.13472(11) 0.37554(13) 0.53380(13)
O4 O 0.28380(13) 0.37446(13) 0.38472(11)
O5 O 0.37554(13) 0.46620(13) 0.36528(11)
O6 O 0.37446(13) 0.61528(11) 0.21620(13)
O7 O 0.37554(13) 0.53380(13) 0.13472(11)
O8 O 0.37446(13) 0.38472(11) 0.28380(13)
O9 O 0.46620(13) 0.36528(11) 0.37554(13)
O10 O 0.61528(11) 0.21620(13) 0.37446(13)
O11 O 0.53380(13) 0.13472(11) 0.37554(13)
O12 O 0.38472(11) 0.28380(13) 0.37446(13)
O13 O 0.28380(13) 0.62554(13) 0.11528(11)
O14 O 0.36528(11) 0.62446(13) 0.03380(13)
O15 O 0.38472(11) 0.71620(13) 0.12554(13)
O16 O 0.46620(13) 0.63472(11) 0.12446(13)
C3 C 0.23559(13) 0.37402(17) 0.56221(14)
C4 C 0.18779(14) 0.37598(17) 0.51441(13)
C5 C 0.26441(13) 0.37402(17) 0.43779(14)
C6 C 0.37598(17) 0.48559(13) 0.31221(14)
C7 C 0.37402(17) 0.56221(14) 0.23559(13)
C8 C 0.37598(17) 0.51441(13) 0.18779(14)
C9 C 0.37402(17) 0.43779(14) 0.26441(13)
C10 C 0.48559(13) 0.31221(14) 0.37598(17)
C11 C 0.56221(14) 0.23559(13) 0.37402(17)
C12 C 0.51441(13) 0.18779(14) 0.37598(17)
C13 C 0.43779(14) 0.26441(13) 0.37402(17)
C14 C 0.20328(15) 0.3750 0.45328(15)
C15 C 0.3750 0.54672(15) 0.29672(15)
C16 C 0.3750 0.45328(15) 0.20328(15)
C17 C 0.54672(15) 0.29672(15) 0.3750
C18 C 0.45328(15) 0.20328(15) 0.3750
H2 H 0.1737 0.3750 0.4237
H3 H 0.3750 0.5763 0.3263
H4 H 0.3750 0.4237 0.1737
H5 H 0.5763 0.3263 0.3750
H6 H 0.4237 0.1737 0.3750
C1_2 C 0.31221(14) 0.62402(17) 0.01441(13)
Zn4_2 Zn 0.6250 0.8750 0.1250
O10_2 O 0.61528(11) 0.78380(13) 0.12554(13)
O11_2 O 0.53380(13) 0.86528(11) 0.12446(13)
C5_2 C 0.26441(13) 0.62598(17) 0.06221(14)
C10_2 C 0.48559(13) 0.68779(14) 0.12402(17)
C11_2 C 0.56221(14) 0.76441(13) 0.12598(17)
C12_2 C 0.51441(13) 0.81221(14) 0.12402(17)
C13_2 C 0.43779(14) 0.73559(13) 0.12598(17)
C14_2 C 0.20328(15) 0.6250 0.04672(15)
C17_2 C 0.54672(15) 0.70328(15) 0.1250
C18_2 C 0.45328(15) 0.79672(15) 0.1250
H2_2 H 0.1737 0.6250 0.0763
H5_2 H 0.5763 0.6737 0.1250
H6_2 H 0.4237 0.8263 0.1250
C2_2 C 0.29672(15) 0.6250 0.95328(15)
H1_2 H 0.3263 0.6250 0.9237
Zn2_2 Zn 0.1250 0.6250 0.8750
O2_2 O 0.21620(13) 0.62554(13) 0.88472(11)
O3_2 O 0.13472(11) 0.62446(13) 0.96620(13)
C3_2 C 0.23559(13) 0.62598(17) 0.93779(14)
C4_2 C 0.18779(14) 0.62402(17) 0.98559(13)
O5_2 O 0.12446(13) 0.53380(13) 0.86528(11)
O6_2 O 0.12554(13) 0.38472(11) 0.71620(13)
O7_2 O 0.12446(13) 0.46620(13) 0.63472(11)
O8_2 O 0.12554(13) 0.61528(11) 0.78380(13)
O9_2 O 0.03380(13) 0.63472(11) 0.87554(13)
O12_2 O 0.11528(11) 0.71620(13) 0.87446(13)
O15_2 O 0.11528(11) 0.28380(13) 0.62554(13)
O16_2 O 0.03380(13) 0.36528(11) 0.62446(13)
C6_2 C 0.12402(17) 0.51441(13) 0.81221(14)
C7_2 C 0.12598(17) 0.43779(14) 0.73559(13)
C8_2 C 0.12402(17) 0.48559(13) 0.68779(14)
C9_2 C 0.12598(17) 0.56221(14) 0.76441(13)
C10_3 C 0.01441(13) 0.68779(14) 0.87598(17)
C13_3 C 0.06221(14) 0.73559(13) 0.87402(17)
C15_2 C 0.1250 0.45328(15) 0.79672(15)
C16_2 C 0.1250 0.54672(15) 0.70328(15)
C18_3 C 0.04672(15) 0.79672(15) 0.8750
H3_2 H 0.1250 0.4237 0.8263
H4_2 H 0.1250 0.5763 0.6737
H6_3 H 0.0763 0.8263 0.8750
C10_4 C 0.01441(13) 0.31221(14) 0.62402(17)
C13_4 C 0.06221(14) 0.26441(13) 0.62598(17)
C18_4 C 0.04672(15) 0.20328(15) 0.6250
H6_4 H 0.0763 0.1737 0.6250
Zn4_3 Zn 0.8750 0.1250 0.6250
O10_3 O 0.88472(11) 0.21620(13) 0.62554(13)
O11_3 O 0.96620(13) 0.13472(11) 0.62446(13)
C11_3 C 0.93779(14) 0.23559(13) 0.62598(17)
C12_3 C 0.98559(13) 0.18779(14) 0.62402(17)
C17_3 C 0.95328(15) 0.29672(15) 0.6250
H5_3 H 0.9237 0.3263 0.6250
O1_2 O 0.87446(13) 0.11528(11) 0.71620(13)
C1_3 C 0.87402(17) 0.06221(14) 0.73559(13)
C2_3 C 0.8750 0.04672(15) 0.79672(15)
H1_3 H 0.8750 0.0763 0.8263
O4_2 O 0.87554(13) 0.03380(13) 0.63472(11)
O5_3 O 0.78380(13) 0.12554(13) 0.61528(11)
O6_3 O 0.63472(11) 0.12446(13) 0.46620(13)
O7_3 O 0.71620(13) 0.12554(13) 0.38472(11)
O8_3 O 0.86528(11) 0.12446(13) 0.53380(13)
O13_2 O 0.62446(13) 0.03380(13) 0.36528(11)
O14_2 O 0.62554(13) 0.11528(11) 0.28380(13)
C5_3 C 0.87598(17) 0.01441(13) 0.68779(14)
C6_3 C 0.76441(13) 0.12598(17) 0.56221(14)
C7_3 C 0.68779(14) 0.12402(17) 0.48559(13)
C8_3 C 0.73559(13) 0.12598(17) 0.43779(14)
C9_3 C 0.81221(14) 0.12402(17) 0.51441(13)
C15_3 C 0.70328(15) 0.1250 0.54672(15)
C16_3 C 0.79672(15) 0.1250 0.45328(15)
H3_3 H 0.6737 0.1250 0.5763
H4_3 H 0.8263 0.1250 0.4237
C1_4 C 0.62598(17) 0.06221(14) 0.26441(13)
C2_4 C 0.6250 0.04672(15) 0.20328(15)
H1_4 H 0.6250 0.0763 0.1737
C5_4 C 0.62402(17) 0.01441(13) 0.31221(14)
O2_3 O 0.62446(13) 0.96620(13) 0.13472(11)
O3_3 O 0.62554(13) 0.88472(11) 0.21620(13)
C3_3 C 0.62402(17) 0.98559(13) 0.18779(14)
C4_3 C 0.62598(17) 0.93779(14) 0.23559(13)
C14_3 C 0.6250 0.95328(15) 0.29672(15)
H2_3 H 0.6250 0.9237 0.3263
O5_4 O 0.71620(13) 0.87446(13) 0.11528(11)
O8_4 O 0.63472(11) 0.87554(13) 0.03380(13)
C6_4 C 0.73559(13) 0.87402(17) 0.06221(14)
C9_4 C 0.68779(14) 0.87598(17) 0.01441(13)
C15_4 C 0.79672(15) 0.8750 0.04672(15)
H3_4 H 0.8263 0.8750 0.0763
Zn4_4 Zn 0.8750 0.8750 0.8750
O10_4 O 0.88472(11) 0.78380(13) 0.87446(13)
O11_4 O 0.96620(13) 0.86528(11) 0.87554(13)
C11_4 C 0.93779(14) 0.76441(13) 0.87402(17)
C12_4 C 0.98559(13) 0.81221(14) 0.87598(17)
C17_4 C 0.95328(15) 0.70328(15) 0.8750
H5_4 H 0.9237 0.6737 0.8750
O2_4 O 0.87554(13) 0.96620(13) 0.86528(11)
O3_4 O 0.87446(13) 0.88472(11) 0.78380(13)
C3_4 C 0.87598(17) 0.98559(13) 0.81221(14)
C4_4 C 0.87402(17) 0.93779(14) 0.76441(13)
C14_4 C 0.8750 0.95328(15) 0.70328(15)
H2_4 H 0.8750 0.9237 0.6737
O6_4 O 0.86528(11) 0.87554(13) 0.96620(13)
O7_4 O 0.78380(13) 0.87446(13) 0.88472(11)
C7_4 C 0.81221(14) 0.87598(17) 0.98559(13)
C8_4 C 0.76441(13) 0.87402(17) 0.93779(14)
C16_4 C 0.70328(15) 0.8750 0.95328(15)
H4_4 H 0.6737 0.8750 0.9237
Zn1_2 Zn 0.6250 0.6250 0.6250
O1_3 O 0.63472(11) 0.62446(13) 0.53380(13)
C1_5 C 0.68779(14) 0.62402(17) 0.51441(13)
C2_5 C 0.70328(15) 0.6250 0.45328(15)
H1_5 H 0.6737 0.6250 0.4237
Zn2_3 Zn 0.8750 0.6250 0.3750
Zn3_2 Zn 0.6250 0.3750 0.8750
Zn4_5 Zn 0.3750 0.8750 0.6250
O2_5 O 0.78380(13) 0.62554(13) 0.38472(11)
O3_5 O 0.86528(11) 0.62446(13) 0.46620(13)
O4_3 O 0.71620(13) 0.62554(13) 0.61528(11)
O5_5 O 0.62446(13) 0.53380(13) 0.63472(11)
O6_5 O 0.62554(13) 0.38472(11) 0.78380(13)
O7_5 O 0.62446(13) 0.46620(13) 0.86528(11)
O8_5 O 0.62554(13) 0.61528(11) 0.71620(13)
O9_3 O 0.53380(13) 0.63472(11) 0.62446(13)
O10_5 O 0.38472(11) 0.78380(13) 0.62554(13)
O11_5 O 0.46620(13) 0.86528(11) 0.62446(13)
O12_3 O 0.61528(11) 0.71620(13) 0.62554(13)
O13_3 O 0.71620(13) 0.37446(13) 0.88472(11)
O14_3 O 0.63472(11) 0.37554(13) 0.96620(13)
O15_3 O 0.61528(11) 0.28380(13) 0.87446(13)
O16_3 O 0.53380(13) 0.36528(11) 0.87554(13)
C3_5 C 0.76441(13) 0.62598(17) 0.43779(14)
C4_5 C 0.81221(14) 0.62402(17) 0.48559(13)
C5_5 C 0.73559(13) 0.62598(17) 0.56221(14)
C6_5 C 0.62402(17) 0.51441(13) 0.68779(14)
C7_5 C 0.62598(17) 0.43779(14) 0.76441(13)
C8_5 C 0.62402(17) 0.48559(13) 0.81221(14)
C9_5 C 0.62598(17) 0.56221(14) 0.73559(13)
C10_5 C 0.51441(13) 0.68779(14) 0.62402(17)
C11_5 C 0.43779(14) 0.76441(13) 0.62598(17)
C12_5 C 0.48559(13) 0.81221(14) 0.62402(17)
C13_5 C 0.56221(14) 0.73559(13) 0.62598(17)
C14_5 C 0.79672(15) 0.6250 0.54672(15)
C15_5 C 0.6250 0.45328(15) 0.70328(15)
C16_5 C 0.6250 0.54672(15) 0.79672(15)
C17_5 C 0.45328(15) 0.70328(15) 0.6250
C18_5 C 0.54672(15) 0.79672(15) 0.6250
H2_5 H 0.8263 0.6250 0.5763
H3_5 H 0.6250 0.4237 0.6737
H4_5 H 0.6250 0.5763 0.8263
H5_5 H 0.4237 0.6737 0.6250
H6_5 H 0.5763 0.8263 0.6250
C2_6 C 0.70328(15) 0.3750 0.04672(15)
H1_6 H 0.6737 0.3750 0.0763
Zn2_4 Zn 0.8750 0.3750 0.1250
O2_6 O 0.78380(13) 0.37446(13) 0.11528(11)
O3_6 O 0.86528(11) 0.37554(13) 0.03380(13)
C3_6 C 0.76441(13) 0.37402(17) 0.06221(14)
C4_6 C 0.81221(14) 0.37598(17) 0.01441(13)
C1_6 C 0.68779(14) 0.37598(17) 0.98559(13)
Zn4_6 Zn 0.3750 0.1250 0.8750
O10_6 O 0.38472(11) 0.21620(13) 0.87446(13)
O11_6 O 0.46620(13) 0.13472(11) 0.87554(13)
C5_6 C 0.73559(13) 0.37402(17) 0.93779(14)
C10_6 C 0.51441(13) 0.31221(14) 0.87598(17)
C11_6 C 0.43779(14) 0.23559(13) 0.87402(17)
C12_6 C 0.48559(13) 0.18779(14) 0.87598(17)
C13_6 C 0.56221(14) 0.26441(13) 0.87402(17)
C14_6 C 0.79672(15) 0.3750 0.95328(15)
C17_6 C 0.45328(15) 0.29672(15) 0.8750
C18_6 C 0.54672(15) 0.20328(15) 0.8750
H2_6 H 0.8263 0.3750 0.9237
H5_6 H 0.4237 0.3263 0.8750
H6_6 H 0.5763 0.1737 0.8750
O5_6 O 0.87554(13) 0.46620(13) 0.13472(11)
O6_6 O 0.87446(13) 0.61528(11) 0.28380(13)
O7_6 O 0.87554(13) 0.53380(13) 0.36528(11)
O8_6 O 0.87446(13) 0.38472(11) 0.21620(13)
O9_4 O 0.96620(13) 0.36528(11) 0.12446(13)
O12_4 O 0.88472(11) 0.28380(13) 0.12554(13)
O15_4 O 0.88472(11) 0.71620(13) 0.37446(13)
O16_4 O 0.96620(13) 0.63472(11) 0.37554(13)
C6_6 C 0.87598(17) 0.48559(13) 0.18779(14)
C7_6 C 0.87402(17) 0.56221(14) 0.26441(13)
C8_6 C 0.87598(17) 0.51441(13) 0.31221(14)
C9_6 C 0.87402(17) 0.43779(14) 0.23559(13)
C10_7 C 0.98559(13) 0.31221(14) 0.12402(17)
C13_7 C 0.93779(14) 0.26441(13) 0.12598(17)
C15_6 C 0.8750 0.54672(15) 0.20328(15)
C16_6 C 0.8750 0.45328(15) 0.29672(15)
C18_7 C 0.95328(15) 0.20328(15) 0.1250
H3_6 H 0.8750 0.5763 0.1737
H4_6 H 0.8750 0.4237 0.3263
H6_7 H 0.9237 0.1737 0.1250
Zn4_7 Zn 0.1250 0.8750 0.3750
O10_7 O 0.11528(11) 0.78380(13) 0.37446(13)
O11_7 O 0.03380(13) 0.86528(11) 0.37554(13)
C11_7 C 0.06221(14) 0.76441(13) 0.37402(17)
C12_7 C 0.01441(13) 0.81221(14) 0.37598(17)
C17_7 C 0.04672(15) 0.70328(15) 0.3750
H5_7 H 0.0763 0.6737 0.3750
C10_8 C 0.98559(13) 0.68779(14) 0.37598(17)
C13_8 C 0.93779(14) 0.73559(13) 0.37402(17)
C18_8 C 0.95328(15) 0.79672(15) 0.3750
H6_8 H 0.9237 0.8263 0.3750
O1_4 O 0.12554(13) 0.88472(11) 0.28380(13)
C1_7 C 0.12598(17) 0.93779(14) 0.26441(13)
C2_7 C 0.1250 0.95328(15) 0.20328(15)
H1_7 H 0.1250 0.9237 0.1737
O4_4 O 0.12446(13) 0.96620(13) 0.36528(11)
O5_7 O 0.21620(13) 0.87446(13) 0.38472(11)
O6_7 O 0.36528(11) 0.87554(13) 0.53380(13)
O7_7 O 0.28380(13) 0.87446(13) 0.61528(11)
O8_7 O 0.13472(11) 0.87554(13) 0.46620(13)
O13_4 O 0.37554(13) 0.96620(13) 0.63472(11)
O14_4 O 0.37446(13) 0.88472(11) 0.71620(13)
C5_7 C 0.12402(17) 0.98559(13) 0.31221(14)
C6_7 C 0.23559(13) 0.87402(17) 0.43779(14)
C7_7 C 0.31221(14) 0.87598(17) 0.51441(13)
C8_7 C 0.26441(13) 0.87402(17) 0.56221(14)
C9_7 C 0.18779(14) 0.87598(17) 0.48559(13)
C15_7 C 0.29672(15) 0.8750 0.45328(15)
C16_7 C 0.20328(15) 0.8750 0.54672(15)
H3_7 H 0.3263 0.8750 0.4237
H4_7 H 0.1737 0.8750 0.5763
O2_7 O 0.37554(13) 0.03380(13) 0.86528(11)
O3_7 O 0.37446(13) 0.11528(11) 0.78380(13)
C3_7 C 0.37598(17) 0.01441(13) 0.81221(14)
C4_7 C 0.37402(17) 0.06221(14) 0.76441(13)
C14_7 C 0.3750 0.04672(15) 0.70328(15)
H2_7 H 0.3750 0.0763 0.6737
C1_8 C 0.37402(17) 0.93779(14) 0.73559(13)
C2_8 C 0.3750 0.95328(15) 0.79672(15)
H1_8 H 0.3750 0.9237 0.8263
C5_8 C 0.37598(17) 0.98559(13) 0.68779(14)
O5_8 O 0.28380(13) 0.12554(13) 0.88472(11)
O8_8 O 0.36528(11) 0.12446(13) 0.96620(13)
C6_8 C 0.26441(13) 0.12598(17) 0.93779(14)
C9_8 C 0.31221(14) 0.12402(17) 0.98559(13)
C15_8 C 0.20328(15) 0.1250 0.95328(15)
H3_8 H 0.1737 0.1250 0.9237
Zn4_8 Zn 0.1250 0.1250 0.1250
O10_8 O 0.11528(11) 0.21620(13) 0.12554(13)
O11_8 O 0.03380(13) 0.13472(11) 0.12446(13)
C11_8 C 0.06221(14) 0.23559(13) 0.12598(17)
C12_8 C 0.01441(13) 0.18779(14) 0.12402(17)
C17_8 C 0.04672(15) 0.29672(15) 0.1250
H5_8 H 0.0763 0.3263 0.1250
O2_8 O 0.12446(13) 0.03380(13) 0.13472(11)
O3_8 O 0.12554(13) 0.11528(11) 0.21620(13)
C3_8 C 0.12402(17) 0.01441(13) 0.18779(14)
C4_8 C 0.12598(17) 0.06221(14) 0.23559(13)
C14_8 C 0.1250 0.04672(15) 0.29672(15)
H2_8 H 0.1250 0.0763 0.3263
O6_8 O 0.13472(11) 0.12446(13) 0.03380(13)
O7_8 O 0.21620(13) 0.12554(13) 0.11528(11)
C7_8 C 0.18779(14) 0.12402(17) 0.01441(13)
C8_8 C 0.23559(13) 0.12598(17) 0.06221(14)
C16_8 C 0.29672(15) 0.1250 0.04672(15)
H4_8 H 0.3263 0.1250 0.0763
loop_
_geom_bond_atom_site_label_1
_geom_bond_atom_site_label_2
_geom_bond_site_symmetry_1
_geom_bond_site_symmetry_2
Zn1 O1 1_555 1_555
O1 C1 1_555 1_555
C1 C2 1_555 1_555
C2 H1 1_555 1_555
Zn2 O2 1_555 1_555
Zn3 O6 1_555 1_555
Zn4 O10 1_555 1_555
O2 C3 1_555 1_555
O3 Zn2 1_555 1_555
O4 Zn1 1_555 1_555
O5 Zn1 1_555 1_555
O6 C7 1_555 1_555
O7 Zn3 1_555 1_555
O8 Zn1 1_555 1_555
O9 Zn1 1_555 1_555
O10 C11 1_555 1_555
O11 Zn4 1_555 1_555
O12 Zn1 1_555 1_555
O13 Zn3 1_555 1_555
O14 Zn3 1_555 1_555
O15 Zn3 1_555 1_555
O16 Zn3 1_555 1_555
C3 C2 1_555 1_555
C4 O3 1_555 1_555
C5 C1 1_555 1_555
C6 O5 1_555 1_555
C7 C8 1_555 1_555
C8 O7 1_555 1_555
C9 O8 1_555 1_555
C10 O9 1_555 1_555
C11 C12 1_555 1_555
C12 O11 1_555 1_555
C13 O12 1_555 1_555
C14 C4 1_555 1_555
C15 C6 1_555 1_555
C16 C8 1_555 1_555
C17 C10 1_555 1_555
C18 C12 1_555 1_555
H2 C14 1_555 1_555
H3 C15 1_555 1_555
H4 C16 1_555 1_555
H5 C17 1_555 1_555
H6 C18 1_555 1_555
O4 C5 1_555 1_555
C3 C4 1_555 1_555
C5 C14 1_555 1_555
C6 C9 1_555 1_555
C7 C15 1_555 1_555
C9 C16 1_555 1_555
C10 C13 1_555 1_555
C11 C17 1_555 1_555
C13 C18 1_555 1_555
O14 C1_2 1_555 1_555
Zn4_2 O10_2 1_555 1_555
O10_2 C11_2 1_555 1_555
O11_2 Zn4_2 1_555 1_555
C5_2 C1_2 1_555 1_555
C10_2 O16 1_555 1_555
C11_2 C12_2 1_555 1_555
C12_2 O11_2 1_555 1_555
C13_2 O15 1_555 1_555
C17_2 C10_2 1_555 1_555
C18_2 C12_2 1_555 1_555
H2_2 C14_2 1_555 1_555
H5_2 C17_2 1_555 1_555
H6_2 C18_2 1_555 1_555
O13 C5_2 1_555 1_555
C5_2 C14_2 1_555 1_555
C10_2 C13_2 1_555 1_555
C11_2 C17_2 1_555 1_555
C13_2 C18_2 1_555 1_555
C2_2 H1_2 1_555 1_555
Zn2_2 O2_2 1_555 1_555
O2_2 C3_2 1_555 1_555
O3_2 Zn2_2 1_555 1_555
C3_2 C2_2 1_555 1_555
C4_2 O3_2 1_555 1_555
C3_2 C4_2 1_555 1_555
Zn2 O6_2 1_555 1_555
O5_2 Zn2_2 1_555 1_555
O6_2 C7_2 1_555 1_555
O7_2 Zn2 1_555 1_555
O8_2 Zn2_2 1_555 1_555
O9_2 Zn2_2 1_555 1_555
O12_2 Zn2_2 1_555 1_555
O15_2 Zn2 1_555 1_555
O16_2 Zn2 1_555 1_555
C6_2 O5_2 1_555 1_555
C7_2 C8_2 1_555 1_555
C8_2 O7_2 1_555 1_555
C9_2 O8_2 1_555 1_555
C10_3 O9_2 1_555 1_555
C13_3 O12_2 1_555 1_555
C15_2 C6_2 1_555 1_555
C16_2 C8_2 1_555 1_555
H3_2 C15_2 1_555 1_555
H4_2 C16_2 1_555 1_555
H6_3 C18_3 1_555 1_555
C6_2 C9_2 1_555 1_555
C7_2 C15_2 1_555 1_555
C9_2 C16_2 1_555 1_555
C10_3 C13_3 1_555 1_555
C13_3 C18_3 1_555 1_555
C10_4 O16_2 1_555 1_555
C13_4 O15_2 1_555 1_555
H6_4 C18_4 1_555 1_555
C10_4 C13_4 1_555 1_555
C13_4 C18_4 1_555 1_555
Zn4_3 O10_3 1_555 1_555
O10_3 C11_3 1_555 1_555
O11_3 Zn4_3 1_555 1_555
C11_3 C12_3 1_555 1_555
C12_3 O11_3 1_555 1_555
H5_3 C17_3 1_555 1_555
C11_3 C17_3 1_555 1_555
Zn4_3 O1_2 1_555 1_555
O1_2 C1_3 1_555 1_555
C1_3 C2_3 1_555 1_555
C2_3 H1_3 1_555 1_555
Zn4 O6_3 1_555 1_555
O4_2 Zn4_3 1_555 1_555
O5_3 Zn4_3 1_555 1_555
O6_3 C7_3 1_555 1_555
O7_3 Zn4 1_555 1_555
O8_3 Zn4_3 1_555 1_555
O13_2 Zn4 1_555 1_555
O14_2 Zn4 1_555 1_555
C5_3 C1_3 1_555 1_555
C6_3 O5_3 1_555 1_555
C7_3 C8_3 1_555 1_555
C8_3 O7_3 1_555 1_555
C9_3 O8_3 1_555 1_555
C15_3 C6_3 1_555 1_555
C16_3 C8_3 1_555 1_555
H3_3 C15_3 1_555 1_555
H4_3 C16_3 1_555 1_555
O4_2 C5_3 1_555 1_555
C6_3 C9_3 1_555 1_555
C7_3 C15_3 1_555 1_555
C9_3 C16_3 1_555 1_555
O14_2 C1_4 1_555 1_555
C1_4 C2_4 1_555 1_555
C2_4 H1_4 1_555 1_555
C5_4 C1_4 1_555 1_555
O13_2 C5_4 1_555 1_555
Zn4_2 O2_3 1_555 1_555
O2_3 C3_3 1_555 1_555
O3_3 Zn4_2 1_555 1_555
C4_3 O3_3 1_555 1_555
C14_3 C4_3 1_555 1_555
H2_3 C14_3 1_555 1_555
C3_3 C4_3 1_555 1_555
O5_4 Zn4_2 1_555 1_555
O8_4 Zn4_2 1_555 1_555
C6_4 O5_4 1_555 1_555
C9_4 O8_4 1_555 1_555
C15_4 C6_4 1_555 1_555
H3_4 C15_4 1_555 1_555
C6_4 C9_4 1_555 1_555
Zn4_4 O10_4 1_555 1_555
O10_4 C11_4 1_555 1_555
O11_4 Zn4_4 1_555 1_555
C11_4 C12_4 1_555 1_555
C12_4 O11_4 1_555 1_555
H5_4 C17_4 1_555 1_555
C11_4 C17_4 1_555 1_555
Zn4_4 O2_4 1_555 1_555
O2_4 C3_4 1_555 1_555
O3_4 Zn4_4 1_555 1_555
C4_4 O3_4 1_555 1_555
C14_4 C4_4 1_555 1_555
H2_4 C14_4 1_555 1_555
C3_4 C4_4 1_555 1_555
Zn4_4 O6_4 1_555 1_555
O6_4 C7_4 1_555 1_555
O7_4 Zn4_4 1_555 1_555
C7_4 C8_4 1_555 1_555
C8_4 O7_4 1_555 1_555
C16_4 C8_4 1_555 1_555
H4_4 C16_4 1_555 1_555
Zn1_2 O1_3 1_555 1_555
O1_3 C1_5 1_555 1_555
C1_5 C2_5 1_555 1_555
C2_5 H1_5 1_555 1_555
Zn2_3 O2_5 1_555 1_555
Zn3_2 O6_5 1_555 1_555
Zn4_5 O10_5 1_555 1_555
O2_5 C3_5 1_555 1_555
O3_5 Zn2_3 1_555 1_555
O4_3 Zn1_2 1_555 1_555
O5_5 Zn1_2 1_555 1_555
O6_5 C7_5 1_555 1_555
O7_5 Zn3_2 1_555 1_555
O8_5 Zn1_2 1_555 1_555
O9_3 Zn1_2 1_555 1_555
O10_5 C11_5 1_555 1_555
O11_5 Zn4_5 1_555 1_555
O12_3 Zn1_2 1_555 1_555
O13_3 Zn3_2 1_555 1_555
O14_3 Zn3_2 1_555 1_555
O15_3 Zn3_2 1_555 1_555
O16_3 Zn3_2 1_555 1_555
C3_5 C2_5 1_555 1_555
C4_5 O3_5 1_555 1_555
C5_5 C1_5 1_555 1_555
C6_5 O5_5 1_555 1_555
C7_5 C8_5 1_555 1_555
C8_5 O7_5 1_555 1_555
C9_5 O8_5 1_555 1_555
C10_5 O9_3 1_555 1_555
C11_5 C12_5 1_555 1_555
C12_5 O11_5 1_555 1_555
C13_5 O12_3 1_555 1_555
C14_5 C4_5 1_555 1_555
C15_5 C6_5 1_555 1_555
C16_5 C8_5 1_555 1_555
C17_5 C10_5 1_555 1_555
C18_5 C12_5 1_555 1_555
H2_5 C14_5 1_555 1_555
H3_5 C15_5 1_555 1_555
H4_5 C16_5 1_555 1_555
H5_5 C17_5 1_555 1_555
H6_5 C18_5 1_555 1_555
O4_3 C5_5 1_555 1_555
C3_5 C4_5 1_555 1_555
C5_5 C14_5 1_555 1_555
C6_5 C9_5 1_555 1_555
C7_5 C15_5 1_555 1_555
C9_5 C16_5 1_555 1_555
C10_5 C13_5 1_555 1_555
C11_5 C17_5 1_555 1_555
C13_5 C18_5 1_555 1_555
C2_6 H1_6 1_555 1_555
Zn2_4 O2_6 1_555 1_555
O2_6 C3_6 1_555 1_555
O3_6 Zn2_4 1_555 1_555
C3_6 C2_6 1_555 1_555
C4_6 O3_6 1_555 1_555
C3_6 C4_6 1_555 1_555
O14_3 C1_6 1_555 1_555
Zn4_6 O10_6 1_555 1_555
O10_6 C11_6 1_555 1_555
O11_6 Zn4_6 1_555 1_555
C5_6 C1_6 1_555 1_555
C10_6 O16_3 1_555 1_555
C11_6 C12_6 1_555 1_555
C12_6 O11_6 1_555 1_555
C13_6 O15_3 1_555 1_555
C17_6 C10_6 1_555 1_555
C18_6 C12_6 1_555 1_555
H2_6 C14_6 1_555 1_555
H5_6 C17_6 1_555 1_555
H6_6 C18_6 1_555 1_555
O13_3 C5_6 1_555 1_555
C5_6 C14_6 1_555 1_555
C10_6 C13_6 1_555 1_555
C11_6 C17_6 1_555 1_555
C13_6 C18_6 1_555 1_555
Zn2_3 O6_6 1_555 1_555
O5_6 Zn2_4 1_555 1_555
O6_6 C7_6 1_555 1_555
O7_6 Zn2_3 1_555 1_555
O8_6 Zn2_4 1_555 1_555
O9_4 Zn2_4 1_555 1_555
O12_4 Zn2_4 1_555 1_555
O15_4 Zn2_3 1_555 1_555
O16_4 Zn2_3 1_555 1_555
C6_6 O5_6 1_555 1_555
C7_6 C8_6 1_555 1_555
C8_6 O7_6 1_555 1_555
C9_6 O8_6 1_555 1_555
C10_7 O9_4 1_555 1_555
C13_7 O12_4 1_555 1_555
C15_6 C6_6 1_555 1_555
C16_6 C8_6 1_555 1_555
H3_6 C15_6 1_555 1_555
H4_6 C16_6 1_555 1_555
H6_7 C18_7 1_555 1_555
C6_6 C9_6 1_555 1_555
C7_6 C15_6 1_555 1_555
C9_6 C16_6 1_555 1_555
C10_7 C13_7 1_555 1_555
C13_7 C18_7 1_555 1_555
Zn4_7 O10_7 1_555 1_555
O10_7 C11_7 1_555 1_555
O11_7 Zn4_7 1_555 1_555
C11_7 C12_7 1_555 1_555
C12_7 O11_7 1_555 1_555
H5_7 C17_7 1_555 1_555
C11_7 C17_7 1_555 1_555
C10_8 O16_4 1_555 1_555
C13_8 O15_4 1_555 1_555
H6_8 C18_8 1_555 1_555
C10_8 C13_8 1_555 1_555
C13_8 C18_8 1_555 1_555
Zn4_7 O1_4 1_555 1_555
O1_4 C1_7 1_555 1_555
C1_7 C2_7 1_555 1_555
C2_7 H1_7 1_555 1_555
Zn4_5 O6_7 1_555 1_555
O4_4 Zn4_7 1_555 1_555
O5_7 Zn4_7 1_555 1_555
O6_7 C7_7 1_555 1_555
O7_7 Zn4_5 1_555 1_555
O8_7 Zn4_7 1_555 1_555
O13_4 Zn4_5 1_555 1_555
O14_4 Zn4_5 1_555 1_555
C5_7 C1_7 1_555 1_555
C6_7 O5_7 1_555 1_555
C7_7 C8_7 1_555 1_555
C8_7 O7_7 1_555 1_555
C9_7 O8_7 1_555 1_555
C15_7 C6_7 1_555 1_555
C16_7 C8_7 1_555 1_555
H3_7 C15_7 1_555 1_555
H4_7 C16_7 1_555 1_555
O4_4 C5_7 1_555 1_555
C6_7 C9_7 1_555 1_555
C7_7 C15_7 1_555 1_555
C9_7 C16_7 1_555 1_555
Zn4_6 O2_7 1_555 1_555
O2_7 C3_7 1_555 1_555
O3_7 Zn4_6 1_555 1_555
C4_7 O3_7 1_555 1_555
C14_7 C4_7 1_555 1_555
H2_7 C14_7 1_555 1_555
C3_7 C4_7 1_555 1_555
O14_4 C1_8 1_555 1_555
C1_8 C2_8 1_555 1_555
C2_8 H1_8 1_555 1_555
C5_8 C1_8 1_555 1_555
O13_4 C5_8 1_555 1_555
O5_8 Zn4_6 1_555 1_555
O8_8 Zn4_6 1_555 1_555
C6_8 O5_8 1_555 1_555
C9_8 O8_8 1_555 1_555
C15_8 C6_8 1_555 1_555
H3_8 C15_8 1_555 1_555
C6_8 C9_8 1_555 1_555
Zn4_8 O10_8 1_555 1_555
O10_8 C11_8 1_555 1_555
O11_8 Zn4_8 1_555 1_555
C11_8 C12_8 1_555 1_555
C12_8 O11_8 1_555 1_555
H5_8 C17_8 1_555 1_555
C11_8 C17_8 1_555 1_555
Zn4_8 O2_8 1_555 1_555
O2_8 C3_8 1_555 1_555
O3_8 Zn4_8 1_555 1_555
C4_8 O3_8 1_555 1_555
C14_8 C4_8 1_555 1_555
H2_8 C14_8 1_555 1_555
C3_8 C4_8 1_555 1_555
Zn4_8 O6_8 1_555 1_555
O6_8 C7_8 1_555 1_555
O7_8 Zn4_8 1_555 1_555
C7_8 C8_8 1_555 1_555
C8_8 O7_8 1_555 1_555
C16_8 C8_8 1_555 1_555
H4_8 C16_8 1_555 1_555

#END
