
###############################################################################
#
# This file contains modified crystal structure data generated from the
# MOF subset of the Cambridge Structural Database (CSD) v543 
# hosted by the Cambridge Crystallographic Data Centre (CCDC).
#
# This work is licensed under the Creative Commons
# Attribution-NonCommercial-ShareAlike 4.0 International License.
# To view a copy of this license, visit
# http://creativecommons.org/licenses/by-nc-sa/4.0/
# or send a letter to
# Creative Commons, PO Box 1866, Mountain View, CA 94042, USA.
#
# CIF created using the CSD Python API on 29 September 2022
# The structure has been converted into the P1 space group
# The structure has a 3D framework
# The original CSD entry OWITOE is in the cubic crystal system
# The framework has been calculated to contain at least 10.0% void space
# The void calculation uses a probe of radius 1.32A, grid spacing 0.4
# The framework is charged, counterions have been retained in the structure
#
###############################################################################

data_OWITOE
_chemical_formula_moiety         '(C144 H48 Ni12 O96 16-)n'
_symmetry_cell_setting           triclinic
_symmetry_space_group_name_H-M   'P 1'
_symmetry_Int_Tables_number      1
_space_group_name_Hall           'P 1'
loop_
_symmetry_equiv_pos_site_id
_symmetry_equiv_pos_as_xyz
1 x,y,z
_cell_length_a                   22.1014(13)
_cell_length_b                   22.1014(13)
_cell_length_c                   22.1014(13)
_cell_angle_alpha                90
_cell_angle_beta                 90
_cell_angle_gamma                90
_cell_volume                     10795.9
loop_
_atom_site_label
_atom_site_type_symbol
_atom_site_fract_x
_atom_site_fract_y
_atom_site_fract_z
Ni2 Ni 0.1250 0.1250 0.1250
O2 O 0.0333(2) 0.1338(2) 0.12365(19)
O3 O 0.1162(2) 0.2167(2) 0.12635(19)
C3 C 0.0164(3) 0.1873(3) 0.1254(3)
C4 C 0.0627(3) 0.2336(3) 0.1246(3)
C14 C 0.0466(4) 0.2966(4) 0.1250
H2 H 0.0763 0.3263 0.1250
O2_2 O 0.1338(2) 0.12365(19) 0.0333(2)
O3_2 O 0.2167(2) 0.12635(19) 0.1162(2)
C3_2 C 0.1873(3) 0.1254(3) 0.0164(3)
C4_2 C 0.2336(3) 0.1246(3) 0.0627(3)
C14_2 C 0.2966(4) 0.1250 0.0466(4)
H2_2 H 0.3263 0.1250 0.0763
O10 O 0.12635(19) 0.1162(2) 0.2167(2)
O11 O 0.12365(19) 0.0333(2) 0.1338(2)
C11 C 0.1246(3) 0.0627(3) 0.2336(3)
C12 C 0.1254(3) 0.0164(3) 0.1873(3)
C17 C 0.1250 0.0466(4) 0.2966(4)
H5 H 0.1250 0.0763 0.3263
Ni1 Ni 0.8750 0.3750 0.1250
O1 O 0.8838(2) 0.2833(2) 0.12635(19)
C1 C 0.9373(3) 0.2664(3) 0.1246(3)
C2 C 0.9534(4) 0.2034(4) 0.1250
H1 H 0.9237 0.1737 0.1250
Ni3 Ni 0.8750 0.6250 0.3750
O4 O 0.9667(2) 0.3662(2) 0.12365(19)
O5 O 0.87635(19) 0.4667(2) 0.1338(2)
O6 O 0.87365(19) 0.6162(2) 0.2833(2)
O7 O 0.87635(19) 0.5333(2) 0.3662(2)
O8 O 0.87365(19) 0.3838(2) 0.2167(2)
O9 O 0.8662(2) 0.37635(19) 0.0333(2)
O12 O 0.7833(2) 0.37365(19) 0.1162(2)
O13 O 0.8662(2) 0.62365(19) 0.4667(2)
O14 O 0.7833(2) 0.62635(19) 0.3838(2)
O15 O 0.9667(2) 0.6338(2) 0.37635(19)
O16 O 0.8838(2) 0.7167(2) 0.37365(19)
C5 C 0.9836(3) 0.3127(3) 0.1254(3)
C6 C 0.8746(3) 0.4836(3) 0.1873(3)
C7 C 0.8754(3) 0.5627(3) 0.2664(3)
C8 C 0.8746(3) 0.5164(3) 0.3127(3)
C9 C 0.8754(3) 0.4373(3) 0.2336(3)
C10 C 0.8127(3) 0.3746(3) 0.0164(3)
C13 C 0.7664(3) 0.3754(3) 0.0627(3)
C15 C 0.8750 0.5466(4) 0.2034(4)
C16 C 0.8750 0.4534(4) 0.2966(4)
C18 C 0.7034(4) 0.3750 0.0466(4)
H3 H 0.8750 0.5763 0.1737
H4 H 0.8750 0.4237 0.3263
H6 H 0.6737 0.3750 0.0763
Ni4 Ni 0.6250 0.3750 0.8750
O10_2 O 0.7167(2) 0.37365(19) 0.8838(2)
O11_2 O 0.6338(2) 0.37635(19) 0.9667(2)
C11_2 C 0.7336(3) 0.3754(3) 0.9373(3)
C12_2 C 0.6873(3) 0.3746(3) 0.9836(3)
C17_2 C 0.7966(4) 0.3750 0.9534(4)
H5_2 H 0.8263 0.3750 0.9237
Ni2_2 Ni 0.1250 0.8750 0.3750
O2_3 O 0.0333(2) 0.8662(2) 0.37635(19)
O3_3 O 0.1162(2) 0.7833(2) 0.37365(19)
C3_3 C 0.0164(3) 0.8127(3) 0.3746(3)
C4_3 C 0.0627(3) 0.7664(3) 0.3754(3)
C14_3 C 0.0466(4) 0.7034(4) 0.3750
H2_3 H 0.0763 0.6737 0.3750
C1_2 C 0.9373(3) 0.7336(3) 0.3754(3)
C2_2 C 0.9534(4) 0.7966(4) 0.3750
H1_2 H 0.9237 0.8263 0.3750
Ni4_2 Ni 0.6250 0.6250 0.6250
O10_3 O 0.7167(2) 0.62635(19) 0.6162(2)
O11_3 O 0.6338(2) 0.62365(19) 0.5333(2)
C5_2 C 0.9836(3) 0.6873(3) 0.3746(3)
C10_2 C 0.8127(3) 0.6254(3) 0.4836(3)
C11_3 C 0.7336(3) 0.6246(3) 0.5627(3)
C12_3 C 0.6873(3) 0.6254(3) 0.5164(3)
C13_2 C 0.7664(3) 0.6246(3) 0.4373(3)
C17_3 C 0.7966(4) 0.6250 0.5466(4)
C18_2 C 0.7034(4) 0.6250 0.4534(4)
H5_3 H 0.8263 0.6250 0.5763
H6_2 H 0.6737 0.6250 0.4237
O1_2 O 0.6162(2) 0.7167(2) 0.62635(19)
C1_3 C 0.5627(3) 0.7336(3) 0.6246(3)
C2_3 C 0.5466(4) 0.7966(4) 0.6250
H1_3 H 0.5763 0.8263 0.6250
Ni2_3 Ni 0.3750 0.8750 0.6250
O2_4 O 0.4667(2) 0.8662(2) 0.62365(19)
O3_4 O 0.3838(2) 0.7833(2) 0.62635(19)
O4_2 O 0.5333(2) 0.6338(2) 0.62365(19)
O5_2 O 0.62365(19) 0.5333(2) 0.6338(2)
O6_2 O 0.62635(19) 0.3838(2) 0.7833(2)
O7_2 O 0.62365(19) 0.4667(2) 0.8662(2)
O8_2 O 0.62635(19) 0.6162(2) 0.7167(2)
O15_2 O 0.5333(2) 0.3662(2) 0.87635(19)
O16_2 O 0.6162(2) 0.2833(2) 0.87365(19)
C3_4 C 0.4836(3) 0.8127(3) 0.6254(3)
C4_4 C 0.4373(3) 0.7664(3) 0.6246(3)
C5_3 C 0.5164(3) 0.6873(3) 0.6254(3)
C6_2 C 0.6254(3) 0.5164(3) 0.6873(3)
C7_2 C 0.6246(3) 0.4373(3) 0.7664(3)
C8_2 C 0.6254(3) 0.4836(3) 0.8127(3)
C9_2 C 0.6246(3) 0.5627(3) 0.7336(3)
C14_4 C 0.4534(4) 0.7034(4) 0.6250
C15_2 C 0.6250 0.4534(4) 0.7034(4)
C16_2 C 0.6250 0.5466(4) 0.7966(4)
H2_4 H 0.4237 0.6737 0.6250
H3_2 H 0.6250 0.4237 0.6737
H4_2 H 0.6250 0.5763 0.8263
C1_4 C 0.5627(3) 0.2664(3) 0.8754(3)
C2_4 C 0.5466(4) 0.2034(4) 0.8750
H1_4 H 0.5763 0.1737 0.8750
Ni2_4 Ni 0.3750 0.1250 0.8750
O2_5 O 0.4667(2) 0.1338(2) 0.87635(19)
O3_5 O 0.3838(2) 0.2167(2) 0.87365(19)
C3_5 C 0.4836(3) 0.1873(3) 0.8746(3)
C4_5 C 0.4373(3) 0.2336(3) 0.8754(3)
C5_4 C 0.5164(3) 0.3127(3) 0.8746(3)
C14_5 C 0.4534(4) 0.2966(4) 0.8750
H2_5 H 0.4237 0.3263 0.8750
O1_3 O 0.2833(2) 0.12635(19) 0.8838(2)
C1_5 C 0.2664(3) 0.1246(3) 0.9373(3)
C2_5 C 0.2034(4) 0.1250 0.9534(4)
H1_5 H 0.1737 0.1250 0.9237
O4_3 O 0.3662(2) 0.12365(19) 0.9667(2)
O9_2 O 0.37635(19) 0.0333(2) 0.8662(2)
O12_2 O 0.37365(19) 0.1162(2) 0.7833(2)
C5_5 C 0.3127(3) 0.1254(3) 0.9836(3)
C10_3 C 0.3746(3) 0.0164(3) 0.8127(3)
C13_3 C 0.3754(3) 0.0627(3) 0.7664(3)
C18_3 C 0.3750 0.0466(4) 0.7034(4)
H6_3 H 0.3750 0.0763 0.6737
O10_4 O 0.37365(19) 0.8838(2) 0.7167(2)
O11_4 O 0.37635(19) 0.9667(2) 0.6338(2)
C11_4 C 0.3754(3) 0.9373(3) 0.7336(3)
C12_4 C 0.3746(3) 0.9836(3) 0.6873(3)
C17_4 C 0.3750 0.9534(4) 0.7966(4)
H5_4 H 0.3750 0.9237 0.8263
O1_4 O 0.2167(2) 0.87365(19) 0.3838(2)
C1_6 C 0.2336(3) 0.8754(3) 0.4373(3)
C2_6 C 0.2966(4) 0.8750 0.4534(4)
H1_6 H 0.3263 0.8750 0.4237
O2_6 O 0.3662(2) 0.87635(19) 0.5333(2)
O3_6 O 0.2833(2) 0.87365(19) 0.6162(2)
O4_4 O 0.1338(2) 0.87635(19) 0.4667(2)
O9_3 O 0.12365(19) 0.9667(2) 0.3662(2)
O12_3 O 0.12635(19) 0.8838(2) 0.2833(2)
C3_6 C 0.3127(3) 0.8746(3) 0.5164(3)
C4_6 C 0.2664(3) 0.8754(3) 0.5627(3)
C5_6 C 0.1873(3) 0.8746(3) 0.4836(3)
C10_4 C 0.1254(3) 0.9836(3) 0.3127(3)
C13_4 C 0.1246(3) 0.9373(3) 0.2664(3)
C14_6 C 0.2034(4) 0.8750 0.5466(4)
C18_4 C 0.1250 0.9534(4) 0.2034(4)
H2_6 H 0.1737 0.8750 0.5763
H6_4 H 0.1250 0.9237 0.1737
Ni4_3 Ni 0.3750 0.6250 0.1250
O10_5 O 0.2833(2) 0.62635(19) 0.1162(2)
O11_5 O 0.3662(2) 0.62365(19) 0.0333(2)
C11_5 C 0.2664(3) 0.6246(3) 0.0627(3)
C12_5 C 0.3127(3) 0.6254(3) 0.0164(3)
C17_5 C 0.2034(4) 0.6250 0.0466(4)
H5_5 H 0.1737 0.6250 0.0763
Ni1_2 Ni 0.1250 0.6250 0.8750
O1_5 O 0.1162(2) 0.7167(2) 0.87365(19)
C1_7 C 0.0627(3) 0.7336(3) 0.8754(3)
C2_7 C 0.0466(4) 0.7966(4) 0.8750
H1_7 H 0.0763 0.8263 0.8750
Ni3_2 Ni 0.1250 0.3750 0.6250
O4_5 O 0.0333(2) 0.6338(2) 0.87635(19)
O5_3 O 0.12365(19) 0.5333(2) 0.8662(2)
O6_3 O 0.12635(19) 0.3838(2) 0.7167(2)
O7_3 O 0.12365(19) 0.4667(2) 0.6338(2)
O8_3 O 0.12635(19) 0.6162(2) 0.7833(2)
O9_4 O 0.1338(2) 0.62365(19) 0.9667(2)
O12_4 O 0.2167(2) 0.62635(19) 0.8838(2)
O13_2 O 0.1338(2) 0.37635(19) 0.5333(2)
O14_2 O 0.2167(2) 0.37365(19) 0.6162(2)
O15_3 O 0.0333(2) 0.3662(2) 0.62365(19)
O16_3 O 0.1162(2) 0.2833(2) 0.62635(19)
C5_7 C 0.0164(3) 0.6873(3) 0.8746(3)
C6_3 C 0.1254(3) 0.5164(3) 0.8127(3)
C7_3 C 0.1246(3) 0.4373(3) 0.7336(3)
C8_3 C 0.1254(3) 0.4836(3) 0.6873(3)
C9_3 C 0.1246(3) 0.5627(3) 0.7664(3)
C10_5 C 0.1873(3) 0.6254(3) 0.9836(3)
C13_5 C 0.2336(3) 0.6246(3) 0.9373(3)
C15_3 C 0.1250 0.4534(4) 0.7966(4)
C16_3 C 0.1250 0.5466(4) 0.7034(4)
C18_5 C 0.2966(4) 0.6250 0.9534(4)
H3_3 H 0.1250 0.4237 0.8263
H4_3 H 0.1250 0.5763 0.6737
H6_5 H 0.3263 0.6250 0.9237
C1_8 C 0.0627(3) 0.2664(3) 0.6246(3)
C2_8 C 0.0466(4) 0.2034(4) 0.6250
H1_8 H 0.0763 0.1737 0.6250
Ni4_4 Ni 0.3750 0.3750 0.3750
O10_6 O 0.2833(2) 0.37365(19) 0.3838(2)
O11_6 O 0.3662(2) 0.37635(19) 0.4667(2)
C5_8 C 0.0164(3) 0.3127(3) 0.6254(3)
C10_6 C 0.1873(3) 0.3746(3) 0.5164(3)
C11_6 C 0.2664(3) 0.3754(3) 0.4373(3)
C12_6 C 0.3127(3) 0.3746(3) 0.4836(3)
C13_6 C 0.2336(3) 0.3754(3) 0.5627(3)
C17_6 C 0.2034(4) 0.3750 0.4534(4)
C18_6 C 0.2966(4) 0.3750 0.5466(4)
H5_6 H 0.1737 0.3750 0.4237
H6_6 H 0.3263 0.3750 0.5763
Ni2_5 Ni 0.8750 0.1250 0.6250
O2_7 O 0.9667(2) 0.1338(2) 0.62365(19)
O3_7 O 0.8838(2) 0.2167(2) 0.62635(19)
C3_7 C 0.9836(3) 0.1873(3) 0.6254(3)
C4_7 C 0.9373(3) 0.2336(3) 0.6246(3)
C14_7 C 0.9534(4) 0.2966(4) 0.6250
H2_7 H 0.9237 0.3263 0.6250
O1_6 O 0.3838(2) 0.2833(2) 0.37365(19)
C1_9 C 0.4373(3) 0.2664(3) 0.3754(3)
C2_9 C 0.4534(4) 0.2034(4) 0.3750
H1_9 H 0.4237 0.1737 0.3750
Ni2_6 Ni 0.6250 0.1250 0.3750
O2_8 O 0.5333(2) 0.1338(2) 0.37635(19)
O3_8 O 0.6162(2) 0.2167(2) 0.37365(19)
O4_6 O 0.4667(2) 0.3662(2) 0.37635(19)
O5_4 O 0.37635(19) 0.4667(2) 0.3662(2)
O6_4 O 0.37365(19) 0.6162(2) 0.2167(2)
O7_4 O 0.37635(19) 0.5333(2) 0.1338(2)
O8_4 O 0.37365(19) 0.3838(2) 0.2833(2)
O15_4 O 0.4667(2) 0.6338(2) 0.12365(19)
O16_4 O 0.3838(2) 0.7167(2) 0.12635(19)
C3_8 C 0.5164(3) 0.1873(3) 0.3746(3)
C4_8 C 0.5627(3) 0.2336(3) 0.3754(3)
C5_9 C 0.4836(3) 0.3127(3) 0.3746(3)
C6_4 C 0.3746(3) 0.4836(3) 0.3127(3)
C7_4 C 0.3754(3) 0.5627(3) 0.2336(3)
C8_4 C 0.3746(3) 0.5164(3) 0.1873(3)
C9_4 C 0.3754(3) 0.4373(3) 0.2664(3)
C14_8 C 0.5466(4) 0.2966(4) 0.3750
C15_4 C 0.3750 0.5466(4) 0.2966(4)
C16_4 C 0.3750 0.4534(4) 0.2034(4)
H2_8 H 0.5763 0.3263 0.3750
H3_4 H 0.3750 0.5763 0.3263
H4_4 H 0.3750 0.4237 0.1737
C1_10 C 0.4373(3) 0.7336(3) 0.1246(3)
C2_10 C 0.4534(4) 0.7966(4) 0.1250
H1_10 H 0.4237 0.8263 0.1250
Ni2_7 Ni 0.6250 0.8750 0.1250
O2_9 O 0.5333(2) 0.8662(2) 0.12365(19)
O3_9 O 0.6162(2) 0.7833(2) 0.12635(19)
C3_9 C 0.5164(3) 0.8127(3) 0.1254(3)
C4_9 C 0.5627(3) 0.7664(3) 0.1246(3)
C5_10 C 0.4836(3) 0.6873(3) 0.1254(3)
C14_9 C 0.5466(4) 0.7034(4) 0.1250
H2_9 H 0.5763 0.6737 0.1250
O10_7 O 0.62635(19) 0.1162(2) 0.2833(2)
O11_7 O 0.62365(19) 0.0333(2) 0.3662(2)
C11_7 C 0.6246(3) 0.0627(3) 0.2664(3)
C12_7 C 0.6254(3) 0.0164(3) 0.3127(3)
C17_7 C 0.6250 0.0466(4) 0.2034(4)
H5_7 H 0.6250 0.0763 0.1737
O1_7 O 0.7167(2) 0.87365(19) 0.1162(2)
C1_11 C 0.7336(3) 0.8754(3) 0.0627(3)
C2_11 C 0.7966(4) 0.8750 0.0466(4)
H1_11 H 0.8263 0.8750 0.0763
O4_7 O 0.6338(2) 0.87635(19) 0.0333(2)
O9_5 O 0.62365(19) 0.9667(2) 0.1338(2)
O12_5 O 0.62635(19) 0.8838(2) 0.2167(2)
C5_11 C 0.6873(3) 0.8746(3) 0.0164(3)
C10_7 C 0.6254(3) 0.9836(3) 0.1873(3)
C13_7 C 0.6246(3) 0.9373(3) 0.2336(3)
C18_7 C 0.6250 0.9534(4) 0.2966(4)
H6_7 H 0.6250 0.9237 0.3263
O1_8 O 0.7833(2) 0.12635(19) 0.6162(2)
C1_12 C 0.7664(3) 0.1246(3) 0.5627(3)
C2_12 C 0.7034(4) 0.1250 0.5466(4)
H1_12 H 0.6737 0.1250 0.5763
O2_10 O 0.6338(2) 0.12365(19) 0.4667(2)
O3_10 O 0.7167(2) 0.12635(19) 0.3838(2)
O4_8 O 0.8662(2) 0.12365(19) 0.5333(2)
O9_6 O 0.87635(19) 0.0333(2) 0.6338(2)
O12_6 O 0.87365(19) 0.1162(2) 0.7167(2)
C3_10 C 0.6873(3) 0.1254(3) 0.4836(3)
C4_10 C 0.7336(3) 0.1246(3) 0.4373(3)
C5_12 C 0.8127(3) 0.1254(3) 0.5164(3)
C10_8 C 0.8746(3) 0.0164(3) 0.6873(3)
C13_8 C 0.8754(3) 0.0627(3) 0.7336(3)
C14_10 C 0.7966(4) 0.1250 0.4534(4)
C18_8 C 0.8750 0.0466(4) 0.7966(4)
H2_10 H 0.8263 0.1250 0.4237
H6_8 H 0.8750 0.0763 0.8263
Ni2_8 Ni 0.8750 0.8750 0.8750
O2_11 O 0.9667(2) 0.8662(2) 0.87635(19)
O3_11 O 0.8838(2) 0.7833(2) 0.87365(19)
C3_11 C 0.9836(3) 0.8127(3) 0.8746(3)
C4_11 C 0.9373(3) 0.7664(3) 0.8754(3)
C14_11 C 0.9534(4) 0.7034(4) 0.8750
H2_11 H 0.9237 0.6737 0.8750
O2_12 O 0.8662(2) 0.87635(19) 0.9667(2)
O3_12 O 0.7833(2) 0.87365(19) 0.8838(2)
C3_12 C 0.8127(3) 0.8746(3) 0.9836(3)
C4_12 C 0.7664(3) 0.8754(3) 0.9373(3)
C14_12 C 0.7034(4) 0.8750 0.9534(4)
H2_12 H 0.6737 0.8750 0.9237
O10_8 O 0.87365(19) 0.8838(2) 0.7833(2)
O11_8 O 0.87635(19) 0.9667(2) 0.8662(2)
C11_8 C 0.8754(3) 0.9373(3) 0.7664(3)
C12_8 C 0.8746(3) 0.9836(3) 0.8127(3)
C17_8 C 0.8750 0.9534(4) 0.7034(4)
H5_8 H 0.8750 0.9237 0.6737
loop_
_geom_bond_atom_site_label_1
_geom_bond_atom_site_label_2
_geom_bond_site_symmetry_1
_geom_bond_site_symmetry_2
Ni2 O2 1_555 1_555
O2 C3 1_555 1_555
O3 Ni2 1_555 1_555
C4 O3 1_555 1_555
C14 C4 1_555 1_555
H2 C14 1_555 1_555
C3 C4 1_555 1_555
Ni2 O2_2 1_555 1_555
O2_2 C3_2 1_555 1_555
O3_2 Ni2 1_555 1_555
C4_2 O3_2 1_555 1_555
C14_2 C4_2 1_555 1_555
H2_2 C14_2 1_555 1_555
C3_2 C4_2 1_555 1_555
Ni2 O10 1_555 1_555
O10 C11 1_555 1_555
O11 Ni2 1_555 1_555
C11 C12 1_555 1_555
C12 O11 1_555 1_555
H5 C17 1_555 1_555
C11 C17 1_555 1_555
Ni1 O1 1_555 1_555
O1 C1 1_555 1_555
C1 C2 1_555 1_555
C2 H1 1_555 1_555
Ni3 O6 1_555 1_555
O4 Ni1 1_555 1_555
O5 Ni1 1_555 1_555
O6 C7 1_555 1_555
O7 Ni3 1_555 1_555
O8 Ni1 1_555 1_555
O9 Ni1 1_555 1_555
O12 Ni1 1_555 1_555
O13 Ni3 1_555 1_555
O14 Ni3 1_555 1_555
O15 Ni3 1_555 1_555
O16 Ni3 1_555 1_555
C5 C1 1_555 1_555
C6 O5 1_555 1_555
C7 C8 1_555 1_555
C8 O7 1_555 1_555
C9 O8 1_555 1_555
C10 O9 1_555 1_555
C13 O12 1_555 1_555
C15 C6 1_555 1_555
C16 C8 1_555 1_555
H3 C15 1_555 1_555
H4 C16 1_555 1_555
H6 C18 1_555 1_555
O4 C5 1_555 1_555
C6 C9 1_555 1_555
C7 C15 1_555 1_555
C9 C16 1_555 1_555
C10 C13 1_555 1_555
C13 C18 1_555 1_555
Ni4 O10_2 1_555 1_555
O10_2 C11_2 1_555 1_555
O11_2 Ni4 1_555 1_555
C11_2 C12_2 1_555 1_555
C12_2 O11_2 1_555 1_555
H5_2 C17_2 1_555 1_555
C11_2 C17_2 1_555 1_555
Ni2_2 O2_3 1_555 1_555
O2_3 C3_3 1_555 1_555
O3_3 Ni2_2 1_555 1_555
C4_3 O3_3 1_555 1_555
C14_3 C4_3 1_555 1_555
H2_3 C14_3 1_555 1_555
C3_3 C4_3 1_555 1_555
O16 C1_2 1_555 1_555
C1_2 C2_2 1_555 1_555
C2_2 H1_2 1_555 1_555
Ni4_2 O10_3 1_555 1_555
O10_3 C11_3 1_555 1_555
O11_3 Ni4_2 1_555 1_555
C5_2 C1_2 1_555 1_555
C10_2 O13 1_555 1_555
C11_3 C12_3 1_555 1_555
C12_3 O11_3 1_555 1_555
C13_2 O14 1_555 1_555
C17_3 C10_2 1_555 1_555
C18_2 C12_3 1_555 1_555
H5_3 C17_3 1_555 1_555
H6_2 C18_2 1_555 1_555
O15 C5_2 1_555 1_555
C10_2 C13_2 1_555 1_555
C11_3 C17_3 1_555 1_555
C13_2 C18_2 1_555 1_555
Ni4_2 O1_2 1_555 1_555
O1_2 C1_3 1_555 1_555
C1_3 C2_3 1_555 1_555
C2_3 H1_3 1_555 1_555
Ni2_3 O2_4 1_555 1_555
Ni4 O6_2 1_555 1_555
O2_4 C3_4 1_555 1_555
O3_4 Ni2_3 1_555 1_555
O4_2 Ni4_2 1_555 1_555
O5_2 Ni4_2 1_555 1_555
O6_2 C7_2 1_555 1_555
O7_2 Ni4 1_555 1_555
O8_2 Ni4_2 1_555 1_555
O15_2 Ni4 1_555 1_555
O16_2 Ni4 1_555 1_555
C3_4 C2_3 1_555 1_555
C4_4 O3_4 1_555 1_555
C5_3 C1_3 1_555 1_555
C6_2 O5_2 1_555 1_555
C7_2 C8_2 1_555 1_555
C8_2 O7_2 1_555 1_555
C9_2 O8_2 1_555 1_555
C14_4 C4_4 1_555 1_555
C15_2 C6_2 1_555 1_555
C16_2 C8_2 1_555 1_555
H2_4 C14_4 1_555 1_555
H3_2 C15_2 1_555 1_555
H4_2 C16_2 1_555 1_555
O4_2 C5_3 1_555 1_555
C3_4 C4_4 1_555 1_555
C5_3 C14_4 1_555 1_555
C6_2 C9_2 1_555 1_555
C7_2 C15_2 1_555 1_555
C9_2 C16_2 1_555 1_555
O16_2 C1_4 1_555 1_555
C1_4 C2_4 1_555 1_555
C2_4 H1_4 1_555 1_555
Ni2_4 O2_5 1_555 1_555
O2_5 C3_5 1_555 1_555
O3_5 Ni2_4 1_555 1_555
C3_5 C2_4 1_555 1_555
C4_5 O3_5 1_555 1_555
C5_4 C1_4 1_555 1_555
C14_5 C4_5 1_555 1_555
H2_5 C14_5 1_555 1_555
O15_2 C5_4 1_555 1_555
C3_5 C4_5 1_555 1_555
C5_4 C14_5 1_555 1_555
Ni2_4 O1_3 1_555 1_555
O1_3 C1_5 1_555 1_555
C1_5 C2_5 1_555 1_555
C2_5 H1_5 1_555 1_555
O4_3 Ni2_4 1_555 1_555
O9_2 Ni2_4 1_555 1_555
O12_2 Ni2_4 1_555 1_555
C5_5 C1_5 1_555 1_555
C10_3 O9_2 1_555 1_555
C13_3 O12_2 1_555 1_555
H6_3 C18_3 1_555 1_555
O4_3 C5_5 1_555 1_555
C10_3 C13_3 1_555 1_555
C13_3 C18_3 1_555 1_555
Ni2_3 O10_4 1_555 1_555
O10_4 C11_4 1_555 1_555
O11_4 Ni2_3 1_555 1_555
C11_4 C12_4 1_555 1_555
C12_4 O11_4 1_555 1_555
H5_4 C17_4 1_555 1_555
C11_4 C17_4 1_555 1_555
Ni2_2 O1_4 1_555 1_555
O1_4 C1_6 1_555 1_555
C1_6 C2_6 1_555 1_555
C2_6 H1_6 1_555 1_555
Ni2_3 O2_6 1_555 1_555
O2_6 C3_6 1_555 1_555
O3_6 Ni2_3 1_555 1_555
O4_4 Ni2_2 1_555 1_555
O9_3 Ni2_2 1_555 1_555
O12_3 Ni2_2 1_555 1_555
C3_6 C2_6 1_555 1_555
C4_6 O3_6 1_555 1_555
C5_6 C1_6 1_555 1_555
C10_4 O9_3 1_555 1_555
C13_4 O12_3 1_555 1_555
C14_6 C4_6 1_555 1_555
H2_6 C14_6 1_555 1_555
H6_4 C18_4 1_555 1_555
O4_4 C5_6 1_555 1_555
C3_6 C4_6 1_555 1_555
C5_6 C14_6 1_555 1_555
C10_4 C13_4 1_555 1_555
C13_4 C18_4 1_555 1_555
Ni4_3 O10_5 1_555 1_555
O10_5 C11_5 1_555 1_555
O11_5 Ni4_3 1_555 1_555
C11_5 C12_5 1_555 1_555
C12_5 O11_5 1_555 1_555
H5_5 C17_5 1_555 1_555
C11_5 C17_5 1_555 1_555
Ni1_2 O1_5 1_555 1_555
O1_5 C1_7 1_555 1_555
C1_7 C2_7 1_555 1_555
C2_7 H1_7 1_555 1_555
Ni3_2 O6_3 1_555 1_555
O4_5 Ni1_2 1_555 1_555
O5_3 Ni1_2 1_555 1_555
O6_3 C7_3 1_555 1_555
O7_3 Ni3_2 1_555 1_555
O8_3 Ni1_2 1_555 1_555
O9_4 Ni1_2 1_555 1_555
O12_4 Ni1_2 1_555 1_555
O13_2 Ni3_2 1_555 1_555
O14_2 Ni3_2 1_555 1_555
O15_3 Ni3_2 1_555 1_555
O16_3 Ni3_2 1_555 1_555
C5_7 C1_7 1_555 1_555
C6_3 O5_3 1_555 1_555
C7_3 C8_3 1_555 1_555
C8_3 O7_3 1_555 1_555
C9_3 O8_3 1_555 1_555
C10_5 O9_4 1_555 1_555
C13_5 O12_4 1_555 1_555
C15_3 C6_3 1_555 1_555
C16_3 C8_3 1_555 1_555
H3_3 C15_3 1_555 1_555
H4_3 C16_3 1_555 1_555
H6_5 C18_5 1_555 1_555
O4_5 C5_7 1_555 1_555
C6_3 C9_3 1_555 1_555
C7_3 C15_3 1_555 1_555
C9_3 C16_3 1_555 1_555
C10_5 C13_5 1_555 1_555
C13_5 C18_5 1_555 1_555
O16_3 C1_8 1_555 1_555
C1_8 C2_8 1_555 1_555
C2_8 H1_8 1_555 1_555
Ni4_4 O10_6 1_555 1_555
O10_6 C11_6 1_555 1_555
O11_6 Ni4_4 1_555 1_555
C5_8 C1_8 1_555 1_555
C10_6 O13_2 1_555 1_555
C11_6 C12_6 1_555 1_555
C12_6 O11_6 1_555 1_555
C13_6 O14_2 1_555 1_555
C17_6 C10_6 1_555 1_555
C18_6 C12_6 1_555 1_555
H5_6 C17_6 1_555 1_555
H6_6 C18_6 1_555 1_555
O15_3 C5_8 1_555 1_555
C10_6 C13_6 1_555 1_555
C11_6 C17_6 1_555 1_555
C13_6 C18_6 1_555 1_555
Ni2_5 O2_7 1_555 1_555
O2_7 C3_7 1_555 1_555
O3_7 Ni2_5 1_555 1_555
C4_7 O3_7 1_555 1_555
C14_7 C4_7 1_555 1_555
H2_7 C14_7 1_555 1_555
C3_7 C4_7 1_555 1_555
Ni4_4 O1_6 1_555 1_555
O1_6 C1_9 1_555 1_555
C1_9 C2_9 1_555 1_555
C2_9 H1_9 1_555 1_555
Ni2_6 O2_8 1_555 1_555
Ni4_3 O6_4 1_555 1_555
O2_8 C3_8 1_555 1_555
O3_8 Ni2_6 1_555 1_555
O4_6 Ni4_4 1_555 1_555
O5_4 Ni4_4 1_555 1_555
O6_4 C7_4 1_555 1_555
O7_4 Ni4_3 1_555 1_555
O8_4 Ni4_4 1_555 1_555
O15_4 Ni4_3 1_555 1_555
O16_4 Ni4_3 1_555 1_555
C3_8 C2_9 1_555 1_555
C4_8 O3_8 1_555 1_555
C5_9 C1_9 1_555 1_555
C6_4 O5_4 1_555 1_555
C7_4 C8_4 1_555 1_555
C8_4 O7_4 1_555 1_555
C9_4 O8_4 1_555 1_555
C14_8 C4_8 1_555 1_555
C15_4 C6_4 1_555 1_555
C16_4 C8_4 1_555 1_555
H2_8 C14_8 1_555 1_555
H3_4 C15_4 1_555 1_555
H4_4 C16_4 1_555 1_555
O4_6 C5_9 1_555 1_555
C3_8 C4_8 1_555 1_555
C5_9 C14_8 1_555 1_555
C6_4 C9_4 1_555 1_555
C7_4 C15_4 1_555 1_555
C9_4 C16_4 1_555 1_555
O16_4 C1_10 1_555 1_555
C1_10 C2_10 1_555 1_555
C2_10 H1_10 1_555 1_555
Ni2_7 O2_9 1_555 1_555
O2_9 C3_9 1_555 1_555
O3_9 Ni2_7 1_555 1_555
C3_9 C2_10 1_555 1_555
C4_9 O3_9 1_555 1_555
C5_10 C1_10 1_555 1_555
C14_9 C4_9 1_555 1_555
H2_9 C14_9 1_555 1_555
O15_4 C5_10 1_555 1_555
C3_9 C4_9 1_555 1_555
C5_10 C14_9 1_555 1_555
Ni2_6 O10_7 1_555 1_555
O10_7 C11_7 1_555 1_555
O11_7 Ni2_6 1_555 1_555
C11_7 C12_7 1_555 1_555
C12_7 O11_7 1_555 1_555
H5_7 C17_7 1_555 1_555
C11_7 C17_7 1_555 1_555
Ni2_7 O1_7 1_555 1_555
O1_7 C1_11 1_555 1_555
C1_11 C2_11 1_555 1_555
C2_11 H1_11 1_555 1_555
O4_7 Ni2_7 1_555 1_555
O9_5 Ni2_7 1_555 1_555
O12_5 Ni2_7 1_555 1_555
C5_11 C1_11 1_555 1_555
C10_7 O9_5 1_555 1_555
C13_7 O12_5 1_555 1_555
H6_7 C18_7 1_555 1_555
O4_7 C5_11 1_555 1_555
C10_7 C13_7 1_555 1_555
C13_7 C18_7 1_555 1_555
Ni2_5 O1_8 1_555 1_555
O1_8 C1_12 1_555 1_555
C1_12 C2_12 1_555 1_555
C2_12 H1_12 1_555 1_555
Ni2_6 O2_10 1_555 1_555
O2_10 C3_10 1_555 1_555
O3_10 Ni2_6 1_555 1_555
O4_8 Ni2_5 1_555 1_555
O9_6 Ni2_5 1_555 1_555
O12_6 Ni2_5 1_555 1_555
C3_10 C2_12 1_555 1_555
C4_10 O3_10 1_555 1_555
C5_12 C1_12 1_555 1_555
C10_8 O9_6 1_555 1_555
C13_8 O12_6 1_555 1_555
C14_10 C4_10 1_555 1_555
H2_10 C14_10 1_555 1_555
H6_8 C18_8 1_555 1_555
O4_8 C5_12 1_555 1_555
C3_10 C4_10 1_555 1_555
C5_12 C14_10 1_555 1_555
C10_8 C13_8 1_555 1_555
C13_8 C18_8 1_555 1_555
Ni2_8 O2_11 1_555 1_555
O2_11 C3_11 1_555 1_555
O3_11 Ni2_8 1_555 1_555
C4_11 O3_11 1_555 1_555
C14_11 C4_11 1_555 1_555
H2_11 C14_11 1_555 1_555
C3_11 C4_11 1_555 1_555
Ni2_8 O2_12 1_555 1_555
O2_12 C3_12 1_555 1_555
O3_12 Ni2_8 1_555 1_555
C4_12 O3_12 1_555 1_555
C14_12 C4_12 1_555 1_555
H2_12 C14_12 1_555 1_555
C3_12 C4_12 1_555 1_555
Ni2_8 O10_8 1_555 1_555
O10_8 C11_8 1_555 1_555
O11_8 Ni2_8 1_555 1_555
C11_8 C12_8 1_555 1_555
C12_8 O11_8 1_555 1_555
H5_8 C17_8 1_555 1_555
C11_8 C17_8 1_555 1_555

#END
