
###############################################################################
#
# This file contains modified crystal structure data generated from the
# MOF subset of the Cambridge Structural Database (CSD) v543 
# hosted by the Cambridge Crystallographic Data Centre (CCDC).
#
# This work is licensed under the Creative Commons
# Attribution-NonCommercial-ShareAlike 4.0 International License.
# To view a copy of this license, visit
# http://creativecommons.org/licenses/by-nc-sa/4.0/
# or send a letter to
# Creative Commons, PO Box 1866, Mountain View, CA 94042, USA.
#
# CIF created using the CSD Python API on 29 September 2022
# The structure has been converted into the P1 space group
# The structure has a 3D framework
# The original CSD entry OWIVAS is in the cubic crystal system
# The framework has been calculated to contain at least 10.0% void space
# The void calculation uses a probe of radius 1.32A, grid spacing 0.4
# The framework is charged, counterions have been retained in the structure
#
###############################################################################

data_OWIVAS
_chemical_formula_moiety         '(C144 H48 O96 Zn16 12-)n'
_symmetry_cell_setting           triclinic
_symmetry_space_group_name_H-M   'P 1'
_symmetry_Int_Tables_number      1
_space_group_name_Hall           'P 1'
loop_
_symmetry_equiv_pos_site_id
_symmetry_equiv_pos_as_xyz
1 x,y,z
_cell_length_a                   22.215(3)
_cell_length_b                   22.215(3)
_cell_length_c                   22.215(3)
_cell_angle_alpha                90
_cell_angle_beta                 90
_cell_angle_gamma                90
_cell_volume                     10963.2
loop_
_atom_site_label
_atom_site_type_symbol
_atom_site_fract_x
_atom_site_fract_y
_atom_site_fract_z
Zn1 Zn 0.1250 0.1250 0.1250
O1 O 0.1375(3) 0.1233(4) 0.0326(3)
C1 C 0.1875(5) 0.1230(5) 0.0145(4)
O4 O 0.2174(3) 0.1267(4) 0.1125(3)
O5 O 0.1233(4) 0.0326(3) 0.1375(3)
O8 O 0.1267(4) 0.1125(3) 0.2174(3)
O9 O 0.0326(3) 0.1375(3) 0.1233(4)
O12 O 0.1125(3) 0.2174(3) 0.1267(4)
C5 C 0.2355(4) 0.1270(5) 0.0625(5)
C6 C 0.1230(5) 0.0145(4) 0.1875(5)
C9 C 0.1270(5) 0.0625(5) 0.2355(4)
C10 C 0.0145(4) 0.1875(5) 0.1230(5)
C13 C 0.0625(5) 0.2355(4) 0.1270(5)
C14 C 0.2963(5) 0.1250 0.0463(5)
C16 C 0.1250 0.0463(5) 0.2963(5)
C18 C 0.0463(5) 0.2963(5) 0.1250
H2 H 0.3265 0.1250 0.0765
H4 H 0.1250 0.0765 0.3265
H6 H 0.0765 0.3265 0.1250
C2 C 0.2037(5) 0.1250 0.9537(5)
H1 H 0.1735 0.1250 0.9235
Zn2 Zn 0.3750 0.1250 0.8750
O2 O 0.2826(3) 0.1267(4) 0.8875(3)
O3 O 0.3625(3) 0.1233(4) 0.9674(3)
C3 C 0.2645(4) 0.1270(5) 0.9375(5)
C4 C 0.3125(5) 0.1230(5) 0.9855(4)
Zn3 Zn 0.1250 0.8750 0.3750
O6 O 0.1267(4) 0.8875(3) 0.2826(3)
O7 O 0.1233(4) 0.9674(3) 0.3625(3)
O13 O 0.2174(3) 0.8733(4) 0.3875(3)
O14 O 0.1375(3) 0.8767(4) 0.4674(3)
O15 O 0.1125(3) 0.7826(3) 0.3733(4)
O16 O 0.0326(3) 0.8625(3) 0.3767(4)
C7 C 0.1270(5) 0.9375(5) 0.2645(4)
C8 C 0.1230(5) 0.9855(4) 0.3125(5)
C15 C 0.1250 0.9537(5) 0.2037(5)
H3 H 0.1250 0.9235 0.1735
Zn4 Zn 0.8750 0.3750 0.1250
O10 O 0.8875(3) 0.2826(3) 0.1267(4)
O11 O 0.9674(3) 0.3625(3) 0.1233(4)
C11 C 0.9375(5) 0.2645(4) 0.1270(5)
C12 C 0.9855(4) 0.3125(5) 0.1230(5)
C17 C 0.9537(5) 0.2037(5) 0.1250
H5 H 0.9235 0.1735 0.1250
O6_2 O 0.3733(4) 0.1125(3) 0.7826(3)
O7_2 O 0.3767(4) 0.0326(3) 0.8625(3)
O15_2 O 0.3875(3) 0.2174(3) 0.8733(4)
O16_2 O 0.4674(3) 0.1375(3) 0.8767(4)
C7_2 C 0.3730(5) 0.0625(5) 0.7645(4)
C8_2 C 0.3770(5) 0.0145(4) 0.8125(5)
C15_2 C 0.3750 0.0463(5) 0.7037(5)
H3_2 H 0.3750 0.0765 0.6735
Zn1_2 Zn 0.3750 0.8750 0.6250
O1_2 O 0.3625(3) 0.8767(4) 0.5326(3)
C1_2 C 0.3125(5) 0.8770(5) 0.5145(4)
C2_2 C 0.2963(5) 0.8750 0.4537(5)
H1_2 H 0.3265 0.8750 0.4235
Zn4_2 Zn 0.6250 0.6250 0.6250
O4_2 O 0.2826(3) 0.8733(4) 0.6125(3)
O5_2 O 0.3767(4) 0.9674(3) 0.6375(3)
O8_2 O 0.3733(4) 0.8875(3) 0.7174(3)
O9_2 O 0.4674(3) 0.8625(3) 0.6233(4)
O10_2 O 0.6125(3) 0.7174(3) 0.6267(4)
O11_2 O 0.5326(3) 0.6375(3) 0.6233(4)
O12_2 O 0.3875(3) 0.7826(3) 0.6267(4)
C3_2 C 0.2355(4) 0.8730(5) 0.4375(5)
C4_2 C 0.1875(5) 0.8770(5) 0.4855(4)
C5_2 C 0.2645(4) 0.8730(5) 0.5625(5)
C6_2 C 0.3770(5) 0.9855(4) 0.6875(5)
C9_2 C 0.3730(5) 0.9375(5) 0.7355(4)
C10_2 C 0.4855(4) 0.8125(5) 0.6230(5)
C11_2 C 0.5625(5) 0.7355(4) 0.6270(5)
C12_2 C 0.5145(4) 0.6875(5) 0.6230(5)
C13_2 C 0.4375(5) 0.7645(4) 0.6270(5)
C14_2 C 0.2037(5) 0.8750 0.5463(5)
C16_2 C 0.3750 0.9537(5) 0.7963(5)
C17_2 C 0.5463(5) 0.7963(5) 0.6250
C18_2 C 0.4537(5) 0.7037(5) 0.6250
H2_2 H 0.1735 0.8750 0.5765
H4_2 H 0.3750 0.9235 0.8265
H5_2 H 0.5765 0.8265 0.6250
H6_2 H 0.4235 0.6735 0.6250
C11_3 C 0.0625(5) 0.7645(4) 0.3730(5)
C12_3 C 0.0145(4) 0.8125(5) 0.3770(5)
C17_3 C 0.0463(5) 0.7037(5) 0.3750
H5_3 H 0.0765 0.6735 0.3750
Zn1_3 Zn 0.8750 0.6250 0.3750
O1_3 O 0.8625(3) 0.6233(4) 0.4674(3)
C1_3 C 0.8125(5) 0.6230(5) 0.4855(4)
C2_3 C 0.7963(5) 0.6250 0.5463(5)
H1_3 H 0.8265 0.6250 0.5765
O2_2 O 0.7174(3) 0.6267(4) 0.6125(3)
O3_2 O 0.6375(3) 0.6233(4) 0.5326(3)
O4_3 O 0.7826(3) 0.6267(4) 0.3875(3)
O5_3 O 0.8767(4) 0.5326(3) 0.3625(3)
O6_3 O 0.8733(4) 0.3875(3) 0.2174(3)
O7_3 O 0.8767(4) 0.4674(3) 0.1375(3)
O8_3 O 0.8733(4) 0.6125(3) 0.2826(3)
O9_3 O 0.9674(3) 0.6375(3) 0.3767(4)
O12_3 O 0.8875(3) 0.7174(3) 0.3733(4)
O13_2 O 0.7826(3) 0.3733(4) 0.1125(3)
O14_2 O 0.8625(3) 0.3767(4) 0.0326(3)
C3_3 C 0.7355(4) 0.6270(5) 0.5625(5)
C4_3 C 0.6875(5) 0.6230(5) 0.5145(4)
C5_3 C 0.7645(4) 0.6270(5) 0.4375(5)
C6_3 C 0.8770(5) 0.5145(4) 0.3125(5)
C7_3 C 0.8730(5) 0.4375(5) 0.2355(4)
C8_3 C 0.8770(5) 0.4855(4) 0.1875(5)
C9_3 C 0.8730(5) 0.5625(5) 0.2645(4)
C10_3 C 0.9855(4) 0.6875(5) 0.3770(5)
C13_3 C 0.9375(5) 0.7355(4) 0.3730(5)
C14_3 C 0.7037(5) 0.6250 0.4537(5)
C15_3 C 0.8750 0.4537(5) 0.2963(5)
C16_3 C 0.8750 0.5463(5) 0.2037(5)
C18_3 C 0.9537(5) 0.7963(5) 0.3750
H2_3 H 0.6735 0.6250 0.4235
H3_3 H 0.8750 0.4235 0.3265
H4_3 H 0.8750 0.5765 0.1735
H6_3 H 0.9235 0.8265 0.3750
C2_4 C 0.7037(5) 0.3750 0.0463(5)
H1_4 H 0.6735 0.3750 0.0765
C3_4 C 0.7645(4) 0.3730(5) 0.0625(5)
C4_4 C 0.8125(5) 0.3770(5) 0.0145(4)
Zn1_4 Zn 0.6250 0.3750 0.8750
O1_4 O 0.6375(3) 0.3767(4) 0.9674(3)
C1_4 C 0.6875(5) 0.3770(5) 0.9855(4)
O4_4 O 0.7174(3) 0.3733(4) 0.8875(3)
O5_4 O 0.6233(4) 0.4674(3) 0.8625(3)
O6_4 O 0.6267(4) 0.6125(3) 0.7174(3)
O7_4 O 0.6233(4) 0.5326(3) 0.6375(3)
O8_4 O 0.6267(4) 0.3875(3) 0.7826(3)
O9_4 O 0.5326(3) 0.3625(3) 0.8767(4)
O12_4 O 0.6125(3) 0.2826(3) 0.8733(4)
C5_4 C 0.7355(4) 0.3730(5) 0.9375(5)
C6_4 C 0.6230(5) 0.4855(4) 0.8125(5)
C7_4 C 0.6270(5) 0.5625(5) 0.7355(4)
C8_4 C 0.6230(5) 0.5145(4) 0.6875(5)
C9_4 C 0.6270(5) 0.4375(5) 0.7645(4)
C10_4 C 0.5145(4) 0.3125(5) 0.8770(5)
C11_4 C 0.4375(5) 0.2355(4) 0.8730(5)
C12_4 C 0.4855(4) 0.1875(5) 0.8770(5)
C13_4 C 0.5625(5) 0.2645(4) 0.8730(5)
C14_4 C 0.7963(5) 0.3750 0.9537(5)
C15_4 C 0.6250 0.5463(5) 0.7963(5)
C16_4 C 0.6250 0.4537(5) 0.7037(5)
C17_4 C 0.4537(5) 0.2963(5) 0.8750
C18_4 C 0.5463(5) 0.2037(5) 0.8750
H2_4 H 0.8265 0.3750 0.9235
H3_4 H 0.6250 0.5765 0.8265
H4_4 H 0.6250 0.4235 0.6735
H5_4 H 0.4235 0.3265 0.8750
H6_4 H 0.5765 0.1735 0.8750
Zn4_3 Zn 0.1250 0.6250 0.8750
O10_3 O 0.1125(3) 0.7174(3) 0.8733(4)
O11_3 O 0.0326(3) 0.6375(3) 0.8767(4)
C11_5 C 0.0625(5) 0.7355(4) 0.8730(5)
C12_5 C 0.0145(4) 0.6875(5) 0.8770(5)
C17_5 C 0.0463(5) 0.7963(5) 0.8750
H5_5 H 0.0765 0.8265 0.8750
Zn3_2 Zn 0.8750 0.1250 0.6250
O6_5 O 0.8733(4) 0.1125(3) 0.7174(3)
O7_5 O 0.8767(4) 0.0326(3) 0.6375(3)
O13_3 O 0.7826(3) 0.1267(4) 0.6125(3)
O14_3 O 0.8625(3) 0.1233(4) 0.5326(3)
O15_3 O 0.8875(3) 0.2174(3) 0.6267(4)
O16_3 O 0.9674(3) 0.1375(3) 0.6233(4)
C7_5 C 0.8730(5) 0.0625(5) 0.7355(4)
C8_5 C 0.8770(5) 0.0145(4) 0.6875(5)
C15_5 C 0.8750 0.0463(5) 0.7963(5)
H3_5 H 0.8750 0.0765 0.8265
C2_5 C 0.7963(5) 0.8750 0.0463(5)
H1_5 H 0.8265 0.8750 0.0765
Zn2_2 Zn 0.6250 0.8750 0.1250
O2_3 O 0.7174(3) 0.8733(4) 0.1125(3)
O3_3 O 0.6375(3) 0.8767(4) 0.0326(3)
C3_5 C 0.7355(4) 0.8730(5) 0.0625(5)
C4_5 C 0.6875(5) 0.8770(5) 0.0145(4)
Zn1_5 Zn 0.6250 0.1250 0.3750
O1_5 O 0.6375(3) 0.1233(4) 0.4674(3)
C1_5 C 0.6875(5) 0.1230(5) 0.4855(4)
C2_6 C 0.7037(5) 0.1250 0.5463(5)
H1_6 H 0.6735 0.1250 0.5765
Zn4_4 Zn 0.3750 0.3750 0.3750
O4_5 O 0.7174(3) 0.1267(4) 0.3875(3)
O5_5 O 0.6233(4) 0.0326(3) 0.3625(3)
O8_5 O 0.6267(4) 0.1125(3) 0.2826(3)
O9_5 O 0.5326(3) 0.1375(3) 0.3767(4)
O10_4 O 0.3875(3) 0.2826(3) 0.3733(4)
O11_4 O 0.4674(3) 0.3625(3) 0.3767(4)
O12_5 O 0.6125(3) 0.2174(3) 0.3733(4)
C3_6 C 0.7645(4) 0.1270(5) 0.5625(5)
C4_6 C 0.8125(5) 0.1230(5) 0.5145(4)
C5_5 C 0.7355(4) 0.1270(5) 0.4375(5)
C6_5 C 0.6230(5) 0.0145(4) 0.3125(5)
C9_5 C 0.6270(5) 0.0625(5) 0.2645(4)
C10_5 C 0.5145(4) 0.1875(5) 0.3770(5)
C11_6 C 0.4375(5) 0.2645(4) 0.3730(5)
C12_6 C 0.4855(4) 0.3125(5) 0.3770(5)
C13_5 C 0.5625(5) 0.2355(4) 0.3730(5)
C14_5 C 0.7963(5) 0.1250 0.4537(5)
C16_5 C 0.6250 0.0463(5) 0.2037(5)
C17_6 C 0.4537(5) 0.2037(5) 0.3750
C18_5 C 0.5463(5) 0.2963(5) 0.3750
H2_5 H 0.8265 0.1250 0.4235
H4_5 H 0.6250 0.0765 0.1735
H5_6 H 0.4235 0.1735 0.3750
H6_5 H 0.5765 0.3265 0.3750
O6_6 O 0.6267(4) 0.8875(3) 0.2174(3)
O7_6 O 0.6233(4) 0.9674(3) 0.1375(3)
O15_4 O 0.6125(3) 0.7826(3) 0.1267(4)
O16_4 O 0.5326(3) 0.8625(3) 0.1233(4)
C7_6 C 0.6270(5) 0.9375(5) 0.2355(4)
C8_6 C 0.6230(5) 0.9855(4) 0.1875(5)
C15_6 C 0.6250 0.9537(5) 0.2963(5)
H3_6 H 0.6250 0.9235 0.3265
Zn1_6 Zn 0.1250 0.3750 0.6250
O1_6 O 0.1375(3) 0.3767(4) 0.5326(3)
C1_6 C 0.1875(5) 0.3770(5) 0.5145(4)
C2_7 C 0.2037(5) 0.3750 0.4537(5)
H1_7 H 0.1735 0.3750 0.4235
O2_4 O 0.2826(3) 0.3733(4) 0.3875(3)
O3_4 O 0.3625(3) 0.3767(4) 0.4674(3)
O4_6 O 0.2174(3) 0.3733(4) 0.6125(3)
O5_6 O 0.1233(4) 0.4674(3) 0.6375(3)
O6_7 O 0.1267(4) 0.6125(3) 0.7826(3)
O7_7 O 0.1233(4) 0.5326(3) 0.8625(3)
O8_6 O 0.1267(4) 0.3875(3) 0.7174(3)
O9_6 O 0.0326(3) 0.3625(3) 0.6233(4)
O12_6 O 0.1125(3) 0.2826(3) 0.6267(4)
O13_4 O 0.2174(3) 0.6267(4) 0.8875(3)
O14_4 O 0.1375(3) 0.6233(4) 0.9674(3)
C3_7 C 0.2645(4) 0.3730(5) 0.4375(5)
C4_7 C 0.3125(5) 0.3770(5) 0.4855(4)
C5_6 C 0.2355(4) 0.3730(5) 0.5625(5)
C6_6 C 0.1230(5) 0.4855(4) 0.6875(5)
C7_7 C 0.1270(5) 0.5625(5) 0.7645(4)
C8_7 C 0.1230(5) 0.5145(4) 0.8125(5)
C9_6 C 0.1270(5) 0.4375(5) 0.7355(4)
C10_6 C 0.0145(4) 0.3125(5) 0.6230(5)
C13_6 C 0.0625(5) 0.2645(4) 0.6270(5)
C14_6 C 0.2963(5) 0.3750 0.5463(5)
C15_7 C 0.1250 0.5463(5) 0.7037(5)
C16_6 C 0.1250 0.4537(5) 0.7963(5)
C18_6 C 0.0463(5) 0.2037(5) 0.6250
H2_6 H 0.3265 0.3750 0.5765
H3_7 H 0.1250 0.5765 0.6735
H4_6 H 0.1250 0.4235 0.8265
H6_6 H 0.0765 0.1735 0.6250
C11_7 C 0.9375(5) 0.2355(4) 0.6270(5)
C12_7 C 0.9855(4) 0.1875(5) 0.6230(5)
C17_7 C 0.9537(5) 0.2963(5) 0.6250
H5_7 H 0.9235 0.3265 0.6250
Zn1_7 Zn 0.3750 0.6250 0.1250
O1_7 O 0.3625(3) 0.6233(4) 0.0326(3)
C1_7 C 0.3125(5) 0.6230(5) 0.0145(4)
O4_7 O 0.2826(3) 0.6267(4) 0.1125(3)
O5_7 O 0.3767(4) 0.5326(3) 0.1375(3)
O6_8 O 0.3733(4) 0.3875(3) 0.2826(3)
O7_8 O 0.3767(4) 0.4674(3) 0.3625(3)
O8_7 O 0.3733(4) 0.6125(3) 0.2174(3)
O9_7 O 0.4674(3) 0.6375(3) 0.1233(4)
O12_7 O 0.3875(3) 0.7174(3) 0.1267(4)
C5_7 C 0.2645(4) 0.6270(5) 0.0625(5)
C6_7 C 0.3770(5) 0.5145(4) 0.1875(5)
C7_8 C 0.3730(5) 0.4375(5) 0.2645(4)
C8_8 C 0.3770(5) 0.4855(4) 0.3125(5)
C9_7 C 0.3730(5) 0.5625(5) 0.2355(4)
C10_7 C 0.4855(4) 0.6875(5) 0.1230(5)
C11_8 C 0.5625(5) 0.7645(4) 0.1270(5)
C12_8 C 0.5145(4) 0.8125(5) 0.1230(5)
C13_7 C 0.4375(5) 0.7355(4) 0.1270(5)
C14_7 C 0.2037(5) 0.6250 0.0463(5)
C15_8 C 0.3750 0.4537(5) 0.2037(5)
C16_7 C 0.3750 0.5463(5) 0.2963(5)
C17_8 C 0.5463(5) 0.7037(5) 0.1250
C18_7 C 0.4537(5) 0.7963(5) 0.1250
H2_7 H 0.1735 0.6250 0.0765
H3_8 H 0.3750 0.4235 0.1735
H4_7 H 0.3750 0.5765 0.3265
H5_8 H 0.5765 0.6735 0.1250
H6_7 H 0.4235 0.8265 0.1250
C2_8 C 0.2963(5) 0.6250 0.9537(5)
H1_8 H 0.3265 0.6250 0.9235
C3_8 C 0.2355(4) 0.6270(5) 0.9375(5)
C4_8 C 0.1875(5) 0.6230(5) 0.9855(4)
Zn1_8 Zn 0.8750 0.8750 0.8750
O1_8 O 0.8625(3) 0.8767(4) 0.9674(3)
C1_8 C 0.8125(5) 0.8770(5) 0.9855(4)
O4_8 O 0.7826(3) 0.8733(4) 0.8875(3)
O5_8 O 0.8767(4) 0.9674(3) 0.8625(3)
O8_8 O 0.8733(4) 0.8875(3) 0.7826(3)
O9_8 O 0.9674(3) 0.8625(3) 0.8767(4)
O12_8 O 0.8875(3) 0.7826(3) 0.8733(4)
C5_8 C 0.7645(4) 0.8730(5) 0.9375(5)
C6_8 C 0.8770(5) 0.9855(4) 0.8125(5)
C9_8 C 0.8730(5) 0.9375(5) 0.7645(4)
C10_8 C 0.9855(4) 0.8125(5) 0.8770(5)
C13_8 C 0.9375(5) 0.7645(4) 0.8730(5)
C14_8 C 0.7037(5) 0.8750 0.9537(5)
C16_8 C 0.8750 0.9537(5) 0.7037(5)
C18_8 C 0.9537(5) 0.7037(5) 0.8750
H2_8 H 0.6735 0.8750 0.9235
H4_8 H 0.8750 0.9235 0.6735
H6_8 H 0.9235 0.6735 0.8750
loop_
_geom_bond_atom_site_label_1
_geom_bond_atom_site_label_2
_geom_bond_site_symmetry_1
_geom_bond_site_symmetry_2
Zn1 O1 1_555 1_555
O1 C1 1_555 1_555
O4 Zn1 1_555 1_555
O5 Zn1 1_555 1_555
O8 Zn1 1_555 1_555
O9 Zn1 1_555 1_555
O12 Zn1 1_555 1_555
C5 C1 1_555 1_555
C6 O5 1_555 1_555
C9 O8 1_555 1_555
C10 O9 1_555 1_555
C13 O12 1_555 1_555
H2 C14 1_555 1_555
H4 C16 1_555 1_555
H6 C18 1_555 1_555
O4 C5 1_555 1_555
C5 C14 1_555 1_555
C6 C9 1_555 1_555
C9 C16 1_555 1_555
C10 C13 1_555 1_555
C13 C18 1_555 1_555
C2 H1 1_555 1_555
Zn2 O2 1_555 1_555
O2 C3 1_555 1_555
O3 Zn2 1_555 1_555
C3 C2 1_555 1_555
C4 O3 1_555 1_555
C3 C4 1_555 1_555
Zn3 O6 1_555 1_555
O6 C7 1_555 1_555
O7 Zn3 1_555 1_555
O13 Zn3 1_555 1_555
O14 Zn3 1_555 1_555
O15 Zn3 1_555 1_555
O16 Zn3 1_555 1_555
C7 C8 1_555 1_555
C8 O7 1_555 1_555
H3 C15 1_555 1_555
C7 C15 1_555 1_555
Zn4 O10 1_555 1_555
O10 C11 1_555 1_555
O11 Zn4 1_555 1_555
C11 C12 1_555 1_555
C12 O11 1_555 1_555
H5 C17 1_555 1_555
C11 C17 1_555 1_555
Zn2 O6_2 1_555 1_555
O6_2 C7_2 1_555 1_555
O7_2 Zn2 1_555 1_555
O15_2 Zn2 1_555 1_555
O16_2 Zn2 1_555 1_555
C7_2 C8_2 1_555 1_555
C8_2 O7_2 1_555 1_555
H3_2 C15_2 1_555 1_555
C7_2 C15_2 1_555 1_555
Zn1_2 O1_2 1_555 1_555
O1_2 C1_2 1_555 1_555
C1_2 C2_2 1_555 1_555
C2_2 H1_2 1_555 1_555
Zn4_2 O10_2 1_555 1_555
O13 C3_2 1_555 1_555
O4_2 Zn1_2 1_555 1_555
O5_2 Zn1_2 1_555 1_555
O8_2 Zn1_2 1_555 1_555
O9_2 Zn1_2 1_555 1_555
O10_2 C11_2 1_555 1_555
O11_2 Zn4_2 1_555 1_555
O12_2 Zn1_2 1_555 1_555
C3_2 C2_2 1_555 1_555
C4_2 O14 1_555 1_555
C5_2 C1_2 1_555 1_555
C6_2 O5_2 1_555 1_555
C9_2 O8_2 1_555 1_555
C10_2 O9_2 1_555 1_555
C11_2 C12_2 1_555 1_555
C12_2 O11_2 1_555 1_555
C13_2 O12_2 1_555 1_555
C14_2 C4_2 1_555 1_555
C17_2 C10_2 1_555 1_555
C18_2 C12_2 1_555 1_555
H2_2 C14_2 1_555 1_555
H4_2 C16_2 1_555 1_555
H5_2 C17_2 1_555 1_555
H6_2 C18_2 1_555 1_555
O4_2 C5_2 1_555 1_555
C3_2 C4_2 1_555 1_555
C5_2 C14_2 1_555 1_555
C6_2 C9_2 1_555 1_555
C9_2 C16_2 1_555 1_555
C10_2 C13_2 1_555 1_555
C11_2 C17_2 1_555 1_555
C13_2 C18_2 1_555 1_555
O15 C11_3 1_555 1_555
C11_3 C12_3 1_555 1_555
C12_3 O16 1_555 1_555
H5_3 C17_3 1_555 1_555
C11_3 C17_3 1_555 1_555
Zn1_3 O1_3 1_555 1_555
O1_3 C1_3 1_555 1_555
C1_3 C2_3 1_555 1_555
C2_3 H1_3 1_555 1_555
Zn4_2 O2_2 1_555 1_555
Zn4 O6_3 1_555 1_555
O2_2 C3_3 1_555 1_555
O3_2 Zn4_2 1_555 1_555
O4_3 Zn1_3 1_555 1_555
O5_3 Zn1_3 1_555 1_555
O6_3 C7_3 1_555 1_555
O7_3 Zn4 1_555 1_555
O8_3 Zn1_3 1_555 1_555
O9_3 Zn1_3 1_555 1_555
O12_3 Zn1_3 1_555 1_555
O13_2 Zn4 1_555 1_555
O14_2 Zn4 1_555 1_555
C3_3 C2_3 1_555 1_555
C4_3 O3_2 1_555 1_555
C5_3 C1_3 1_555 1_555
C6_3 O5_3 1_555 1_555
C7_3 C8_3 1_555 1_555
C8_3 O7_3 1_555 1_555
C9_3 O8_3 1_555 1_555
C10_3 O9_3 1_555 1_555
C13_3 O12_3 1_555 1_555
C14_3 C4_3 1_555 1_555
C15_3 C6_3 1_555 1_555
C16_3 C8_3 1_555 1_555
H2_3 C14_3 1_555 1_555
H3_3 C15_3 1_555 1_555
H4_3 C16_3 1_555 1_555
H6_3 C18_3 1_555 1_555
O4_3 C5_3 1_555 1_555
C3_3 C4_3 1_555 1_555
C5_3 C14_3 1_555 1_555
C6_3 C9_3 1_555 1_555
C7_3 C15_3 1_555 1_555
C9_3 C16_3 1_555 1_555
C10_3 C13_3 1_555 1_555
C13_3 C18_3 1_555 1_555
C2_4 H1_4 1_555 1_555
O13_2 C3_4 1_555 1_555
C3_4 C2_4 1_555 1_555
C4_4 O14_2 1_555 1_555
C3_4 C4_4 1_555 1_555
Zn1_4 O1_4 1_555 1_555
O1_4 C1_4 1_555 1_555
Zn4_2 O6_4 1_555 1_555
O4_4 Zn1_4 1_555 1_555
O5_4 Zn1_4 1_555 1_555
O6_4 C7_4 1_555 1_555
O7_4 Zn4_2 1_555 1_555
O8_4 Zn1_4 1_555 1_555
O9_4 Zn1_4 1_555 1_555
O15_2 C11_4 1_555 1_555
O12_4 Zn1_4 1_555 1_555
C5_4 C1_4 1_555 1_555
C6_4 O5_4 1_555 1_555
C7_4 C8_4 1_555 1_555
C8_4 O7_4 1_555 1_555
C9_4 O8_4 1_555 1_555
C10_4 O9_4 1_555 1_555
C11_4 C12_4 1_555 1_555
C12_4 O16_2 1_555 1_555
C13_4 O12_4 1_555 1_555
C15_4 C6_4 1_555 1_555
C16_4 C8_4 1_555 1_555
C17_4 C10_4 1_555 1_555
C18_4 C12_4 1_555 1_555
H2_4 C14_4 1_555 1_555
H3_4 C15_4 1_555 1_555
H4_4 C16_4 1_555 1_555
H5_4 C17_4 1_555 1_555
H6_4 C18_4 1_555 1_555
O4_4 C5_4 1_555 1_555
C5_4 C14_4 1_555 1_555
C6_4 C9_4 1_555 1_555
C7_4 C15_4 1_555 1_555
C9_4 C16_4 1_555 1_555
C10_4 C13_4 1_555 1_555
C11_4 C17_4 1_555 1_555
C13_4 C18_4 1_555 1_555
Zn4_3 O10_3 1_555 1_555
O10_3 C11_5 1_555 1_555
O11_3 Zn4_3 1_555 1_555
C11_5 C12_5 1_555 1_555
C12_5 O11_3 1_555 1_555
H5_5 C17_5 1_555 1_555
C11_5 C17_5 1_555 1_555
Zn3_2 O6_5 1_555 1_555
O6_5 C7_5 1_555 1_555
O7_5 Zn3_2 1_555 1_555
O13_3 Zn3_2 1_555 1_555
O14_3 Zn3_2 1_555 1_555
O15_3 Zn3_2 1_555 1_555
O16_3 Zn3_2 1_555 1_555
C7_5 C8_5 1_555 1_555
C8_5 O7_5 1_555 1_555
H3_5 C15_5 1_555 1_555
C7_5 C15_5 1_555 1_555
C2_5 H1_5 1_555 1_555
Zn2_2 O2_3 1_555 1_555
O2_3 C3_5 1_555 1_555
O3_3 Zn2_2 1_555 1_555
C3_5 C2_5 1_555 1_555
C4_5 O3_3 1_555 1_555
C3_5 C4_5 1_555 1_555
Zn1_5 O1_5 1_555 1_555
O1_5 C1_5 1_555 1_555
C1_5 C2_6 1_555 1_555
C2_6 H1_6 1_555 1_555
Zn4_4 O10_4 1_555 1_555
O13_3 C3_6 1_555 1_555
O4_5 Zn1_5 1_555 1_555
O5_5 Zn1_5 1_555 1_555
O8_5 Zn1_5 1_555 1_555
O9_5 Zn1_5 1_555 1_555
O10_4 C11_6 1_555 1_555
O11_4 Zn4_4 1_555 1_555
O12_5 Zn1_5 1_555 1_555
C3_6 C2_6 1_555 1_555
C4_6 O14_3 1_555 1_555
C5_5 C1_5 1_555 1_555
C6_5 O5_5 1_555 1_555
C9_5 O8_5 1_555 1_555
C10_5 O9_5 1_555 1_555
C11_6 C12_6 1_555 1_555
C12_6 O11_4 1_555 1_555
C13_5 O12_5 1_555 1_555
C14_5 C4_6 1_555 1_555
C17_6 C10_5 1_555 1_555
C18_5 C12_6 1_555 1_555
H2_5 C14_5 1_555 1_555
H4_5 C16_5 1_555 1_555
H5_6 C17_6 1_555 1_555
H6_5 C18_5 1_555 1_555
O4_5 C5_5 1_555 1_555
C3_6 C4_6 1_555 1_555
C5_5 C14_5 1_555 1_555
C6_5 C9_5 1_555 1_555
C9_5 C16_5 1_555 1_555
C10_5 C13_5 1_555 1_555
C11_6 C17_6 1_555 1_555
C13_5 C18_5 1_555 1_555
Zn2_2 O6_6 1_555 1_555
O6_6 C7_6 1_555 1_555
O7_6 Zn2_2 1_555 1_555
O15_4 Zn2_2 1_555 1_555
O16_4 Zn2_2 1_555 1_555
C7_6 C8_6 1_555 1_555
C8_6 O7_6 1_555 1_555
H3_6 C15_6 1_555 1_555
C7_6 C15_6 1_555 1_555
Zn1_6 O1_6 1_555 1_555
O1_6 C1_6 1_555 1_555
C1_6 C2_7 1_555 1_555
C2_7 H1_7 1_555 1_555
Zn4_4 O2_4 1_555 1_555
Zn4_3 O6_7 1_555 1_555
O2_4 C3_7 1_555 1_555
O3_4 Zn4_4 1_555 1_555
O4_6 Zn1_6 1_555 1_555
O5_6 Zn1_6 1_555 1_555
O6_7 C7_7 1_555 1_555
O7_7 Zn4_3 1_555 1_555
O8_6 Zn1_6 1_555 1_555
O9_6 Zn1_6 1_555 1_555
O12_6 Zn1_6 1_555 1_555
O13_4 Zn4_3 1_555 1_555
O14_4 Zn4_3 1_555 1_555
C3_7 C2_7 1_555 1_555
C4_7 O3_4 1_555 1_555
C5_6 C1_6 1_555 1_555
C6_6 O5_6 1_555 1_555
C7_7 C8_7 1_555 1_555
C8_7 O7_7 1_555 1_555
C9_6 O8_6 1_555 1_555
C10_6 O9_6 1_555 1_555
C13_6 O12_6 1_555 1_555
C14_6 C4_7 1_555 1_555
C15_7 C6_6 1_555 1_555
C16_6 C8_7 1_555 1_555
H2_6 C14_6 1_555 1_555
H3_7 C15_7 1_555 1_555
H4_6 C16_6 1_555 1_555
H6_6 C18_6 1_555 1_555
O4_6 C5_6 1_555 1_555
C3_7 C4_7 1_555 1_555
C5_6 C14_6 1_555 1_555
C6_6 C9_6 1_555 1_555
C7_7 C15_7 1_555 1_555
C9_6 C16_6 1_555 1_555
C10_6 C13_6 1_555 1_555
C13_6 C18_6 1_555 1_555
O15_3 C11_7 1_555 1_555
C11_7 C12_7 1_555 1_555
C12_7 O16_3 1_555 1_555
H5_7 C17_7 1_555 1_555
C11_7 C17_7 1_555 1_555
Zn1_7 O1_7 1_555 1_555
O1_7 C1_7 1_555 1_555
Zn4_4 O6_8 1_555 1_555
O4_7 Zn1_7 1_555 1_555
O5_7 Zn1_7 1_555 1_555
O6_8 C7_8 1_555 1_555
O7_8 Zn4_4 1_555 1_555
O8_7 Zn1_7 1_555 1_555
O9_7 Zn1_7 1_555 1_555
O15_4 C11_8 1_555 1_555
O12_7 Zn1_7 1_555 1_555
C5_7 C1_7 1_555 1_555
C6_7 O5_7 1_555 1_555
C7_8 C8_8 1_555 1_555
C8_8 O7_8 1_555 1_555
C9_7 O8_7 1_555 1_555
C10_7 O9_7 1_555 1_555
C11_8 C12_8 1_555 1_555
C12_8 O16_4 1_555 1_555
C13_7 O12_7 1_555 1_555
C15_8 C6_7 1_555 1_555
C16_7 C8_8 1_555 1_555
C17_8 C10_7 1_555 1_555
C18_7 C12_8 1_555 1_555
H2_7 C14_7 1_555 1_555
H3_8 C15_8 1_555 1_555
H4_7 C16_7 1_555 1_555
H5_8 C17_8 1_555 1_555
H6_7 C18_7 1_555 1_555
O4_7 C5_7 1_555 1_555
C5_7 C14_7 1_555 1_555
C6_7 C9_7 1_555 1_555
C7_8 C15_8 1_555 1_555
C9_7 C16_7 1_555 1_555
C10_7 C13_7 1_555 1_555
C11_8 C17_8 1_555 1_555
C13_7 C18_7 1_555 1_555
C2_8 H1_8 1_555 1_555
O13_4 C3_8 1_555 1_555
C3_8 C2_8 1_555 1_555
C4_8 O14_4 1_555 1_555
C3_8 C4_8 1_555 1_555
Zn1_8 O1_8 1_555 1_555
O1_8 C1_8 1_555 1_555
O4_8 Zn1_8 1_555 1_555
O5_8 Zn1_8 1_555 1_555
O8_8 Zn1_8 1_555 1_555
O9_8 Zn1_8 1_555 1_555
O12_8 Zn1_8 1_555 1_555
C5_8 C1_8 1_555 1_555
C6_8 O5_8 1_555 1_555
C9_8 O8_8 1_555 1_555
C10_8 O9_8 1_555 1_555
C13_8 O12_8 1_555 1_555
H2_8 C14_8 1_555 1_555
H4_8 C16_8 1_555 1_555
H6_8 C18_8 1_555 1_555
O4_8 C5_8 1_555 1_555
C5_8 C14_8 1_555 1_555
C6_8 C9_8 1_555 1_555
C9_8 C16_8 1_555 1_555
C10_8 C13_8 1_555 1_555
C13_8 C18_8 1_555 1_555

#END
