
###############################################################################
#
# This file contains modified crystal structure data generated from the
# MOF subset of the Cambridge Structural Database (CSD) v543 
# hosted by the Cambridge Crystallographic Data Centre (CCDC).
#
# This work is licensed under the Creative Commons
# Attribution-NonCommercial-ShareAlike 4.0 International License.
# To view a copy of this license, visit
# http://creativecommons.org/licenses/by-nc-sa/4.0/
# or send a letter to
# Creative Commons, PO Box 1866, Mountain View, CA 94042, USA.
#
# CIF created using the CSD Python API on 29 September 2022
# The structure has been converted into the P1 space group
# The structure has a 3D framework
# The original CSD entry OWIVEW is in the cubic crystal system
# The framework has been calculated to contain at least 10.0% void space
# The void calculation uses a probe of radius 1.32A, grid spacing 0.4
# The framework is charged, counterions have been retained in the structure
#
###############################################################################

data_OWIVEW
_chemical_formula_moiety         '(C144 Cl48 Mn16 O96 20-)n'
_symmetry_cell_setting           triclinic
_symmetry_space_group_name_H-M   'P 1'
_symmetry_Int_Tables_number      1
_space_group_name_Hall           'P 1'
loop_
_symmetry_equiv_pos_site_id
_symmetry_equiv_pos_as_xyz
1 x,y,z
_cell_length_a                   22.7292(6)
_cell_length_b                   22.7292(6)
_cell_length_c                   22.7292(6)
_cell_angle_alpha                90
_cell_angle_beta                 90
_cell_angle_gamma                90
_cell_volume                     11742.3
loop_
_atom_site_label
_atom_site_type_symbol
_atom_site_fract_x
_atom_site_fract_y
_atom_site_fract_z
C1 C 0.4007(3) 0.5035(10) 0.1814(10)
Mn1 Mn 0.39116(9) 0.60884(9) 0.10884(9)
Cl1 Cl 0.4073(3) 0.3899(3) 0.16518(19)
O1 O 0.3949(5) 0.6097(6) 0.2068(5)
O2 O 0.3991(6) 0.5194(7) 0.1287(7)
C2 C 0.4042(7) 0.4502(7) 0.2105(9)
C3 C 0.3986(6) 0.5596(6) 0.2294(8)
C4 C 0.4007(3) 0.4965(10) 0.3186(10)
C5 C 0.3186(10) 0.5993(3) 0.0035(10)
C7 C 0.4965(10) 0.6814(10) 0.0993(3)
C8 C 0.5035(10) 0.8186(10) 0.0993(3)
Mn2 Mn 0.39116(9) 0.39116(9) 0.39116(9)
Mn4 Mn 0.60884(9) 0.89116(9) 0.10884(9)
Cl2 Cl 0.4073(3) 0.6101(3) 0.33482(19)
Cl4 Cl 0.16518(19) 0.5927(3) 0.1101(3)
Cl5 Cl 0.6101(3) 0.66518(19) 0.0927(3)
Cl6 Cl 0.3899(3) 0.83482(19) 0.0927(3)
O3 O 0.3949(5) 0.3903(6) 0.2932(5)
O4 O 0.2932(5) 0.6051(5) 0.1097(6)
O6 O 0.3903(6) 0.7068(5) 0.1051(5)
O7 O 0.6097(6) 0.7932(5) 0.1051(5)
O8 O 0.2932(5) 0.3949(5) 0.3903(6)
O9 O 0.3903(6) 0.2932(5) 0.3949(5)
O10 O 0.3991(6) 0.4806(7) 0.3713(7)
O11 O 0.3713(7) 0.6009(6) 0.0194(7)
O13 O 0.4806(7) 0.6287(7) 0.1009(6)
O14 O 0.5194(7) 0.8713(7) 0.1009(6)
O15 O 0.3713(7) 0.3991(6) 0.4806(7)
O16 O 0.4806(7) 0.3713(7) 0.3991(6)
C9 C 0.4042(7) 0.5498(7) 0.2895(9)
C11 C 0.2105(9) 0.5958(7) 0.0498(7)
C12 C 0.5498(7) 0.7105(9) 0.0958(7)
C13 C 0.4502(7) 0.7895(9) 0.0958(7)
C14 C 0.3986(6) 0.4404(6) 0.2706(8)
C15 C 0.2706(8) 0.6014(6) 0.0596(6)
C17 C 0.4404(6) 0.7294(8) 0.1014(6)
C18 C 0.5596(6) 0.7706(8) 0.1014(6)
C6 C 0.1814(10) 0.5993(3) 0.9965(10)
Mn3 Mn 0.10884(9) 0.60884(9) 0.89116(9)
Cl3 Cl 0.33482(19) 0.5927(3) 0.8899(3)
O5 O 0.2068(5) 0.6051(5) 0.8903(6)
O12 O 0.1287(7) 0.6009(6) 0.9806(7)
C10 C 0.2895(9) 0.5958(7) 0.9502(7)
C16 C 0.2294(8) 0.6014(6) 0.9404(6)
C1_2 C 0.0993(3) 0.4965(10) 0.6814(10)
Mn1_2 Mn 0.10884(9) 0.39116(9) 0.60884(9)
Cl1_2 Cl 0.0927(3) 0.6101(3) 0.66518(19)
O1_2 O 0.1051(5) 0.3903(6) 0.7068(5)
O2_2 O 0.1009(6) 0.4806(7) 0.6287(7)
C2_2 C 0.0958(7) 0.5498(7) 0.7105(9)
C3_2 C 0.1014(6) 0.4404(6) 0.7294(8)
C4_2 C 0.0993(3) 0.5035(10) 0.8186(10)
C5_2 C 0.1814(10) 0.4007(3) 0.5035(10)
C6_2 C 0.3186(10) 0.4007(3) 0.4965(10)
C7_2 C 0.0035(10) 0.3186(10) 0.5993(3)
Cl2_2 Cl 0.0927(3) 0.3899(3) 0.83482(19)
Cl3_2 Cl 0.16518(19) 0.4073(3) 0.3899(3)
Cl4_2 Cl 0.33482(19) 0.4073(3) 0.6101(3)
Cl6_2 Cl 0.1101(3) 0.16518(19) 0.5927(3)
O3_2 O 0.1051(5) 0.6097(6) 0.7932(5)
O4_2 O 0.2068(5) 0.3949(5) 0.6097(6)
O6_2 O 0.1097(6) 0.2932(5) 0.6051(5)
O9_2 O 0.1097(6) 0.7068(5) 0.8949(5)
O10_2 O 0.1009(6) 0.5194(7) 0.8713(7)
O11_2 O 0.1287(7) 0.3991(6) 0.5194(7)
O13_2 O 0.0194(7) 0.3713(7) 0.6009(6)
O16_2 O 0.0194(7) 0.6287(7) 0.8991(6)
C9_2 C 0.0958(7) 0.4502(7) 0.7895(9)
C10_2 C 0.2105(9) 0.4042(7) 0.4502(7)
C11_2 C 0.2895(9) 0.4042(7) 0.5498(7)
C13_2 C 0.0498(7) 0.2105(9) 0.5958(7)
C14_2 C 0.1014(6) 0.5596(6) 0.7706(8)
C15_2 C 0.2294(8) 0.3986(6) 0.5596(6)
C16_2 C 0.2706(8) 0.3986(6) 0.4404(6)
C17_2 C 0.0596(6) 0.2706(8) 0.6014(6)
C8_2 C 0.9965(10) 0.1814(10) 0.5993(3)
Mn4_2 Mn 0.89116(9) 0.10884(9) 0.60884(9)
Cl5_2 Cl 0.8899(3) 0.33482(19) 0.5927(3)
O7_2 O 0.8903(6) 0.2068(5) 0.6051(5)
O14_2 O 0.9806(7) 0.1287(7) 0.6009(6)
C12_2 C 0.9502(7) 0.2895(9) 0.5958(7)
C18_2 C 0.9404(6) 0.2294(8) 0.6014(6)
C1_3 C 0.5993(3) 0.0035(10) 0.3186(10)
Mn1_3 Mn 0.60884(9) 0.10884(9) 0.39116(9)
O1_3 O 0.6051(5) 0.1097(6) 0.2932(5)
O2_3 O 0.6009(6) 0.0194(7) 0.3713(7)
C3_3 C 0.6014(6) 0.0596(6) 0.2706(8)
C5_3 C 0.6814(10) 0.0993(3) 0.4965(10)
C6_3 C 0.8186(10) 0.0993(3) 0.5035(10)
C7_3 C 0.5035(10) 0.1814(10) 0.4007(3)
C8_3 C 0.4965(10) 0.3186(10) 0.4007(3)
Cl2_3 Cl 0.5927(3) 0.1101(3) 0.16518(19)
Cl3_3 Cl 0.66518(19) 0.0927(3) 0.6101(3)
Cl4_3 Cl 0.83482(19) 0.0927(3) 0.3899(3)
Cl5_3 Cl 0.3899(3) 0.16518(19) 0.4073(3)
Cl6_3 Cl 0.6101(3) 0.33482(19) 0.4073(3)
O4_3 O 0.7068(5) 0.1051(5) 0.3903(6)
O5_2 O 0.7932(5) 0.1051(5) 0.6097(6)
O6_3 O 0.6097(6) 0.2068(5) 0.3949(5)
O11_3 O 0.6287(7) 0.1009(6) 0.4806(7)
O12_2 O 0.8713(7) 0.1009(6) 0.5194(7)
O13_3 O 0.5194(7) 0.1287(7) 0.3991(6)
C9_3 C 0.5958(7) 0.0498(7) 0.2105(9)
C10_3 C 0.7105(9) 0.0958(7) 0.5498(7)
C11_3 C 0.7895(9) 0.0958(7) 0.4502(7)
C12_3 C 0.4502(7) 0.2105(9) 0.4042(7)
C13_3 C 0.5498(7) 0.2895(9) 0.4042(7)
C15_3 C 0.7294(8) 0.1014(6) 0.4404(6)
C16_3 C 0.7706(8) 0.1014(6) 0.5596(6)
C17_3 C 0.5596(6) 0.2294(8) 0.3986(6)
C18_3 C 0.4404(6) 0.2706(8) 0.3986(6)
Cl1_3 Cl 0.5927(3) 0.8899(3) 0.33482(19)
C2_3 C 0.5958(7) 0.9502(7) 0.2895(9)
C4_3 C 0.5993(3) 0.9965(10) 0.1814(10)
O3_3 O 0.6051(5) 0.8903(6) 0.2068(5)
O8_2 O 0.7068(5) 0.8949(5) 0.1097(6)
O10_3 O 0.6009(6) 0.9806(7) 0.1287(7)
O15_2 O 0.6287(7) 0.8991(6) 0.0194(7)
C14_3 C 0.6014(6) 0.9404(6) 0.2294(8)
C8_4 C 0.0035(10) 0.6814(10) 0.9007(3)
Cl5_4 Cl 0.1101(3) 0.83482(19) 0.9073(3)
C12_4 C 0.0498(7) 0.7895(9) 0.9042(7)
C18_4 C 0.0596(6) 0.7294(8) 0.8986(6)
Cl1_4 Cl 0.9073(3) 0.1101(3) 0.83482(19)
C2_4 C 0.9042(7) 0.0498(7) 0.7895(9)
C4_4 C 0.9007(3) 0.0035(10) 0.6814(10)
O3_4 O 0.8949(5) 0.1097(6) 0.7068(5)
O10_4 O 0.8991(6) 0.0194(7) 0.6287(7)
C14_4 C 0.8986(6) 0.0596(6) 0.7294(8)
C6_4 C 0.6814(10) 0.9007(3) 0.0035(10)
Cl3_4 Cl 0.83482(19) 0.9073(3) 0.1101(3)
C10_4 C 0.7895(9) 0.9042(7) 0.0498(7)
C16_4 C 0.7294(8) 0.8986(6) 0.0596(6)
C1_4 C 0.9007(3) 0.9965(10) 0.8186(10)
Mn1_4 Mn 0.89116(9) 0.89116(9) 0.89116(9)
O1_4 O 0.8949(5) 0.8903(6) 0.7932(5)
O2_4 O 0.8991(6) 0.9806(7) 0.8713(7)
C3_4 C 0.8986(6) 0.9404(6) 0.7706(8)
C5_4 C 0.8186(10) 0.9007(3) 0.9965(10)
C7_4 C 0.9965(10) 0.8186(10) 0.9007(3)
Cl2_4 Cl 0.9073(3) 0.8899(3) 0.66518(19)
Cl4_4 Cl 0.66518(19) 0.9073(3) 0.8899(3)
Cl6_4 Cl 0.8899(3) 0.66518(19) 0.9073(3)
O4_4 O 0.7932(5) 0.8949(5) 0.8903(6)
O6_4 O 0.8903(6) 0.7932(5) 0.8949(5)
O11_4 O 0.8713(7) 0.8991(6) 0.9806(7)
O13_4 O 0.9806(7) 0.8713(7) 0.8991(6)
C9_4 C 0.9042(7) 0.9502(7) 0.7105(9)
C11_4 C 0.7105(9) 0.9042(7) 0.9502(7)
C13_4 C 0.9502(7) 0.7105(9) 0.9042(7)
C15_4 C 0.7706(8) 0.8986(6) 0.9404(6)
C17_4 C 0.9404(6) 0.7706(8) 0.8986(6)
C8_5 C 0.0686(10) 0.7535(10) 0.3493(3)
Mn4_3 Mn 0.14116(9) 0.85884(9) 0.35884(9)
Cl6_5 Cl 0.08482(19) 0.6399(3) 0.3427(3)
O7_3 O 0.0432(5) 0.8597(6) 0.3551(5)
O14_3 O 0.1213(7) 0.7694(7) 0.3509(6)
C13_5 C 0.0395(9) 0.7002(7) 0.3458(7)
C18_5 C 0.0206(8) 0.8096(6) 0.3514(6)
C1_5 C 0.7535(10) 0.6507(3) 0.4314(10)
Mn1_5 Mn 0.85884(9) 0.64116(9) 0.35884(9)
Cl1_5 Cl 0.6399(3) 0.6573(3) 0.41518(19)
O1_5 O 0.8597(6) 0.6449(5) 0.4568(5)
O2_5 O 0.7694(7) 0.6491(6) 0.3787(7)
C2_5 C 0.7002(7) 0.6542(7) 0.4605(9)
C3_5 C 0.8096(6) 0.6486(6) 0.4794(8)
C4_5 C 0.7465(10) 0.6507(3) 0.5686(10)
C5_5 C 0.8493(3) 0.5686(10) 0.2535(10)
C6_5 C 0.8493(3) 0.4314(10) 0.2465(10)
C7_5 C 0.9314(10) 0.7465(10) 0.3493(3)
Mn2_2 Mn 0.64116(9) 0.64116(9) 0.64116(9)
Mn3_2 Mn 0.85884(9) 0.35884(9) 0.14116(9)
Cl2_5 Cl 0.8601(3) 0.6573(3) 0.58482(19)
Cl3_5 Cl 0.8427(3) 0.58482(19) 0.1399(3)
Cl4_5 Cl 0.8427(3) 0.41518(19) 0.3601(3)
Cl5_5 Cl 0.91518(19) 0.8601(3) 0.3427(3)
O3_5 O 0.6403(6) 0.6449(5) 0.5432(5)
O4_5 O 0.8551(5) 0.5432(5) 0.3597(6)
O5_3 O 0.8551(5) 0.4568(5) 0.1403(6)
O6_5 O 0.9568(5) 0.6403(6) 0.3551(5)
O8_3 O 0.6449(5) 0.5432(5) 0.6403(6)
O9_3 O 0.5432(5) 0.6403(6) 0.6449(5)
O10_5 O 0.7306(7) 0.6491(6) 0.6213(7)
O11_5 O 0.8509(6) 0.6213(7) 0.2694(7)
O12_3 O 0.8509(6) 0.3787(7) 0.2306(7)
O13_5 O 0.8787(7) 0.7306(7) 0.3509(6)
O15_3 O 0.6491(6) 0.6213(7) 0.7306(7)
O16_3 O 0.6213(7) 0.7306(7) 0.6491(6)
C9_5 C 0.7998(7) 0.6542(7) 0.5395(9)
C10_5 C 0.8458(7) 0.5395(9) 0.2002(7)
C11_5 C 0.8458(7) 0.4605(9) 0.2998(7)
C12_5 C 0.9605(9) 0.7998(7) 0.3458(7)
C14_5 C 0.6904(6) 0.6486(6) 0.5206(8)
C15_5 C 0.8514(6) 0.5206(8) 0.3096(6)
C16_5 C 0.8514(6) 0.4794(8) 0.1904(6)
C17_5 C 0.9794(8) 0.6904(6) 0.3514(6)
C4_6 C 0.7535(10) 0.3493(3) 0.0686(10)
Cl2_6 Cl 0.6399(3) 0.3427(3) 0.08482(19)
O3_6 O 0.8597(6) 0.3551(5) 0.0432(5)
O9_4 O 0.9568(5) 0.3597(6) 0.1449(5)
O10_6 O 0.7694(7) 0.3509(6) 0.1213(7)
O16_4 O 0.8787(7) 0.2694(7) 0.1491(6)
C9_6 C 0.7002(7) 0.3458(7) 0.0395(9)
C14_6 C 0.8096(6) 0.3514(6) 0.0206(8)
C1_6 C 0.7465(10) 0.3493(3) 0.9314(10)
Mn1_6 Mn 0.64116(9) 0.35884(9) 0.85884(9)
Cl1_6 Cl 0.8601(3) 0.3427(3) 0.91518(19)
O1_6 O 0.6403(6) 0.3551(5) 0.9568(5)
O2_6 O 0.7306(7) 0.3509(6) 0.8787(7)
C2_6 C 0.7998(7) 0.3458(7) 0.9605(9)
C3_6 C 0.6904(6) 0.3514(6) 0.9794(8)
C5_6 C 0.6507(3) 0.4314(10) 0.7535(10)
C6_6 C 0.6507(3) 0.5686(10) 0.7465(10)
C7_6 C 0.5686(10) 0.2535(10) 0.8493(3)
C8_6 C 0.4314(10) 0.2465(10) 0.8493(3)
Mn4_4 Mn 0.35884(9) 0.14116(9) 0.85884(9)
Cl3_6 Cl 0.6573(3) 0.41518(19) 0.6399(3)
Cl4_6 Cl 0.6573(3) 0.58482(19) 0.8601(3)
Cl5_6 Cl 0.58482(19) 0.1399(3) 0.8427(3)
Cl6_6 Cl 0.41518(19) 0.3601(3) 0.8427(3)
O4_6 O 0.6449(5) 0.4568(5) 0.8597(6)
O6_6 O 0.5432(5) 0.3597(6) 0.8551(5)
O7_4 O 0.4568(5) 0.1403(6) 0.8551(5)
O11_6 O 0.6491(6) 0.3787(7) 0.7694(7)
O13_6 O 0.6213(7) 0.2694(7) 0.8509(6)
O14_4 O 0.3787(7) 0.2306(7) 0.8509(6)
C10_6 C 0.6542(7) 0.4605(9) 0.7002(7)
C11_6 C 0.6542(7) 0.5395(9) 0.7998(7)
C12_6 C 0.5395(9) 0.2002(7) 0.8458(7)
C13_6 C 0.4605(9) 0.2998(7) 0.8458(7)
C15_6 C 0.6486(6) 0.4794(8) 0.8096(6)
C16_6 C 0.6486(6) 0.5206(8) 0.6904(6)
C17_6 C 0.5206(8) 0.3096(6) 0.8514(6)
C18_6 C 0.4794(8) 0.1904(6) 0.8514(6)
C6_7 C 0.3493(3) 0.0686(10) 0.7535(10)
Cl4_7 Cl 0.3427(3) 0.08482(19) 0.6399(3)
O5_4 O 0.3551(5) 0.0432(5) 0.8597(6)
O12_4 O 0.3509(6) 0.1213(7) 0.7694(7)
C11_7 C 0.3458(7) 0.0395(9) 0.7002(7)
C16_7 C 0.3514(6) 0.0206(8) 0.8096(6)
C1_7 C 0.2535(10) 0.8493(3) 0.5686(10)
Mn1_7 Mn 0.35884(9) 0.85884(9) 0.64116(9)
Cl1_7 Cl 0.1399(3) 0.8427(3) 0.58482(19)
O1_7 O 0.3597(6) 0.8551(5) 0.5432(5)
O2_7 O 0.2694(7) 0.8509(6) 0.6213(7)
C2_7 C 0.2002(7) 0.8458(7) 0.5395(9)
C3_7 C 0.3096(6) 0.8514(6) 0.5206(8)
C4_7 C 0.2465(10) 0.8493(3) 0.4314(10)
C5_7 C 0.3493(3) 0.9314(10) 0.7465(10)
C7_7 C 0.4314(10) 0.7535(10) 0.6507(3)
C8_7 C 0.5686(10) 0.7465(10) 0.6507(3)
Cl2_7 Cl 0.3601(3) 0.8427(3) 0.41518(19)
Cl3_7 Cl 0.3427(3) 0.91518(19) 0.8601(3)
Cl5_7 Cl 0.41518(19) 0.6399(3) 0.6573(3)
Cl6_7 Cl 0.58482(19) 0.8601(3) 0.6573(3)
O3_7 O 0.1403(6) 0.8551(5) 0.4568(5)
O4_7 O 0.3551(5) 0.9568(5) 0.6403(6)
O6_7 O 0.4568(5) 0.8597(6) 0.6449(5)
O8_4 O 0.1449(5) 0.9568(5) 0.3597(6)
O10_7 O 0.2306(7) 0.8509(6) 0.3787(7)
O11_7 O 0.3509(6) 0.8787(7) 0.7306(7)
O13_7 O 0.3787(7) 0.7694(7) 0.6491(6)
O15_4 O 0.1491(6) 0.8787(7) 0.2694(7)
C9_7 C 0.2998(7) 0.8458(7) 0.4605(9)
C10_7 C 0.3458(7) 0.9605(9) 0.7998(7)
C12_7 C 0.4605(9) 0.7002(7) 0.6542(7)
C13_7 C 0.5395(9) 0.7998(7) 0.6542(7)
C14_7 C 0.1904(6) 0.8514(6) 0.4794(8)
C15_7 C 0.3514(6) 0.9794(8) 0.6904(6)
C17_7 C 0.4794(8) 0.8096(6) 0.6486(6)
C18_7 C 0.5206(8) 0.6904(6) 0.6486(6)
C4_8 C 0.2535(10) 0.1507(3) 0.9314(10)
Cl2_8 Cl 0.1399(3) 0.1573(3) 0.91518(19)
O3_8 O 0.3597(6) 0.1449(5) 0.9568(5)
O10_8 O 0.2694(7) 0.1491(6) 0.8787(7)
C9_8 C 0.2002(7) 0.1542(7) 0.9605(9)
C14_8 C 0.3096(6) 0.1486(6) 0.9794(8)
C6_8 C 0.1507(3) 0.9314(10) 0.2535(10)
Cl4_8 Cl 0.1573(3) 0.91518(19) 0.1399(3)
C11_8 C 0.1542(7) 0.9605(9) 0.2002(7)
C16_8 C 0.1486(6) 0.9794(8) 0.3096(6)
C8_8 C 0.9314(10) 0.2535(10) 0.1507(3)
Cl6_8 Cl 0.91518(19) 0.1399(3) 0.1573(3)
C13_8 C 0.9605(9) 0.2002(7) 0.1542(7)
C18_8 C 0.9794(8) 0.3096(6) 0.1486(6)
C1_8 C 0.2465(10) 0.1507(3) 0.0686(10)
Mn1_8 Mn 0.14116(9) 0.14116(9) 0.14116(9)
Cl1_8 Cl 0.3601(3) 0.1573(3) 0.08482(19)
O1_8 O 0.1403(6) 0.1449(5) 0.0432(5)
O2_8 O 0.2306(7) 0.1491(6) 0.1213(7)
C2_8 C 0.2998(7) 0.1542(7) 0.0395(9)
C3_8 C 0.1904(6) 0.1486(6) 0.0206(8)
C5_8 C 0.1507(3) 0.0686(10) 0.2465(10)
C7_8 C 0.0686(10) 0.2465(10) 0.1507(3)
Cl3_8 Cl 0.1573(3) 0.08482(19) 0.3601(3)
Cl5_8 Cl 0.08482(19) 0.3601(3) 0.1573(3)
O4_8 O 0.1449(5) 0.0432(5) 0.1403(6)
O6_8 O 0.0432(5) 0.1403(6) 0.1449(5)
O11_8 O 0.1491(6) 0.1213(7) 0.2306(7)
O13_8 O 0.1213(7) 0.2306(7) 0.1491(6)
C10_8 C 0.1542(7) 0.0395(9) 0.2998(7)
C12_8 C 0.0395(9) 0.2998(7) 0.1542(7)
C15_8 C 0.1486(6) 0.0206(8) 0.1904(6)
C17_8 C 0.0206(8) 0.1904(6) 0.1486(6)
loop_
_geom_bond_atom_site_label_1
_geom_bond_atom_site_label_2
_geom_bond_site_symmetry_1
_geom_bond_site_symmetry_2
C1 O2 1_555 1_555
Mn1 O1 1_555 1_555
Cl1 C2 1_555 1_555
O1 C3 1_555 1_555
O2 Mn1 1_555 1_555
C2 C1 1_555 1_555
C3 C1 1_555 1_555
C4 O10 1_555 1_555
C5 O11 1_555 1_555
C7 O13 1_555 1_555
C8 O14 1_555 1_555
Mn2 O3 1_555 1_555
Mn4 O7 1_555 1_555
Cl2 C9 1_555 1_555
Cl4 C11 1_555 1_555
Cl5 C12 1_555 1_555
Cl6 C13 1_555 1_555
O3 C14 1_555 1_555
O4 Mn1 1_555 1_555
O6 Mn1 1_555 1_555
O7 C18 1_555 1_555
O8 Mn2 1_555 1_555
O9 Mn2 1_555 1_555
O10 Mn2 1_555 1_555
O11 Mn1 1_555 1_555
O13 Mn1 1_555 1_555
O14 Mn4 1_555 1_555
O15 Mn2 1_555 1_555
O16 Mn2 1_555 1_555
C9 C3 1_555 1_555
C12 C7 1_555 1_555
C13 C8 1_555 1_555
C14 C2 1_555 1_555
C15 C5 1_555 1_555
C17 C7 1_555 1_555
C18 C8 1_555 1_555
C4 C9 1_555 1_555
C4 C14 1_555 1_555
O4 C15 1_555 1_555
O6 C17 1_555 1_555
C11 C15 1_555 1_555
C12 C18 1_555 1_555
C13 C17 1_555 1_555
C6 O12 1_555 1_555
Mn3 O5 1_555 1_555
Cl3 C10 1_555 1_555
O5 C16 1_555 1_555
O12 Mn3 1_555 1_555
C16 C6 1_555 1_555
C10 C16 1_555 1_555
C1_2 O2_2 1_555 1_555
Mn1_2 O1_2 1_555 1_555
Cl1_2 C2_2 1_555 1_555
O1_2 C3_2 1_555 1_555
O2_2 Mn1_2 1_555 1_555
C2_2 C1_2 1_555 1_555
C3_2 C1_2 1_555 1_555
C4_2 O10_2 1_555 1_555
C5_2 O11_2 1_555 1_555
C6_2 O15 1_555 1_555
C7_2 O13_2 1_555 1_555
Mn3 O3_2 1_555 1_555
Cl2_2 C9_2 1_555 1_555
Cl3_2 C10_2 1_555 1_555
Cl4_2 C11_2 1_555 1_555
Cl6_2 C13_2 1_555 1_555
O3_2 C14_2 1_555 1_555
O4_2 Mn1_2 1_555 1_555
O8 C16_2 1_555 1_555
O6_2 Mn1_2 1_555 1_555
O9_2 Mn3 1_555 1_555
O10_2 Mn3 1_555 1_555
O11_2 Mn1_2 1_555 1_555
O13_2 Mn1_2 1_555 1_555
O16_2 Mn3 1_555 1_555
C9_2 C3_2 1_555 1_555
C10_2 C5_2 1_555 1_555
C11_2 C6_2 1_555 1_555
C14_2 C2_2 1_555 1_555
C15_2 C5_2 1_555 1_555
C16_2 C6_2 1_555 1_555
C17_2 C7_2 1_555 1_555
C4_2 C9_2 1_555 1_555
C4_2 C14_2 1_555 1_555
O4_2 C15_2 1_555 1_555
O6_2 C17_2 1_555 1_555
C10_2 C16_2 1_555 1_555
C11_2 C15_2 1_555 1_555
C13_2 C17_2 1_555 1_555
C8_2 O14_2 1_555 1_555
Mn4_2 O7_2 1_555 1_555
Cl5_2 C12_2 1_555 1_555
O7_2 C18_2 1_555 1_555
O14_2 Mn4_2 1_555 1_555
C18_2 C8_2 1_555 1_555
C12_2 C18_2 1_555 1_555
C1_3 O2_3 1_555 1_555
Mn1_3 O1_3 1_555 1_555
O1_3 C3_3 1_555 1_555
O2_3 Mn1_3 1_555 1_555
C3_3 C1_3 1_555 1_555
C5_3 O11_3 1_555 1_555
C6_3 O12_2 1_555 1_555
C7_3 O13_3 1_555 1_555
C8_3 O16 1_555 1_555
Mn4_2 O5_2 1_555 1_555
Cl2_3 C9_3 1_555 1_555
Cl3_3 C10_3 1_555 1_555
Cl4_3 C11_3 1_555 1_555
Cl5_3 C12_3 1_555 1_555
Cl6_3 C13_3 1_555 1_555
O4_3 Mn1_3 1_555 1_555
O5_2 C16_3 1_555 1_555
O6_3 Mn1_3 1_555 1_555
O9 C18_3 1_555 1_555
O11_3 Mn1_3 1_555 1_555
O12_2 Mn4_2 1_555 1_555
O13_3 Mn1_3 1_555 1_555
C9_3 C3_3 1_555 1_555
C10_3 C5_3 1_555 1_555
C11_3 C6_3 1_555 1_555
C12_3 C7_3 1_555 1_555
C13_3 C8_3 1_555 1_555
C15_3 C5_3 1_555 1_555
C16_3 C6_3 1_555 1_555
C17_3 C7_3 1_555 1_555
C18_3 C8_3 1_555 1_555
O4_3 C15_3 1_555 1_555
O6_3 C17_3 1_555 1_555
C10_3 C16_3 1_555 1_555
C11_3 C15_3 1_555 1_555
C12_3 C18_3 1_555 1_555
C13_3 C17_3 1_555 1_555
Cl1_3 C2_3 1_555 1_555
C4_3 O10_3 1_555 1_555
Mn4 O3_3 1_555 1_555
O3_3 C14_3 1_555 1_555
O8_2 Mn4 1_555 1_555
O10_3 Mn4 1_555 1_555
O15_2 Mn4 1_555 1_555
C14_3 C2_3 1_555 1_555
C4_3 C14_3 1_555 1_555
C8_4 O16_2 1_555 1_555
Cl5_4 C12_4 1_555 1_555
O9_2 C18_4 1_555 1_555
C18_4 C8_4 1_555 1_555
C12_4 C18_4 1_555 1_555
Cl1_4 C2_4 1_555 1_555
C4_4 O10_4 1_555 1_555
Mn4_2 O3_4 1_555 1_555
O3_4 C14_4 1_555 1_555
O10_4 Mn4_2 1_555 1_555
C14_4 C2_4 1_555 1_555
C4_4 C14_4 1_555 1_555
C6_4 O15_2 1_555 1_555
Cl3_4 C10_4 1_555 1_555
O8_2 C16_4 1_555 1_555
C16_4 C6_4 1_555 1_555
C10_4 C16_4 1_555 1_555
C1_4 O2_4 1_555 1_555
Mn1_4 O1_4 1_555 1_555
O1_4 C3_4 1_555 1_555
O2_4 Mn1_4 1_555 1_555
C3_4 C1_4 1_555 1_555
C5_4 O11_4 1_555 1_555
C7_4 O13_4 1_555 1_555
Cl2_4 C9_4 1_555 1_555
Cl4_4 C11_4 1_555 1_555
Cl6_4 C13_4 1_555 1_555
O4_4 Mn1_4 1_555 1_555
O6_4 Mn1_4 1_555 1_555
O11_4 Mn1_4 1_555 1_555
O13_4 Mn1_4 1_555 1_555
C9_4 C3_4 1_555 1_555
C15_4 C5_4 1_555 1_555
C17_4 C7_4 1_555 1_555
O4_4 C15_4 1_555 1_555
O6_4 C17_4 1_555 1_555
C11_4 C15_4 1_555 1_555
C13_4 C17_4 1_555 1_555
C8_5 O14_3 1_555 1_555
Mn4_3 O7_3 1_555 1_555
Cl6_5 C13_5 1_555 1_555
O7_3 C18_5 1_555 1_555
O14_3 Mn4_3 1_555 1_555
C13_5 C8_5 1_555 1_555
C18_5 C8_5 1_555 1_555
C1_5 O2_5 1_555 1_555
Mn1_5 O1_5 1_555 1_555
Cl1_5 C2_5 1_555 1_555
O1_5 C3_5 1_555 1_555
O2_5 Mn1_5 1_555 1_555
C2_5 C1_5 1_555 1_555
C3_5 C1_5 1_555 1_555
C4_5 O10_5 1_555 1_555
C5_5 O11_5 1_555 1_555
C6_5 O12_3 1_555 1_555
C7_5 O13_5 1_555 1_555
Mn2_2 O3_5 1_555 1_555
Mn3_2 O5_3 1_555 1_555
Cl2_5 C9_5 1_555 1_555
Cl3_5 C10_5 1_555 1_555
Cl4_5 C11_5 1_555 1_555
Cl5_5 C12_5 1_555 1_555
O3_5 C14_5 1_555 1_555
O4_5 Mn1_5 1_555 1_555
O5_3 C16_5 1_555 1_555
O6_5 Mn1_5 1_555 1_555
O8_3 Mn2_2 1_555 1_555
O9_3 Mn2_2 1_555 1_555
O10_5 Mn2_2 1_555 1_555
O11_5 Mn1_5 1_555 1_555
O12_3 Mn3_2 1_555 1_555
O13_5 Mn1_5 1_555 1_555
O15_3 Mn2_2 1_555 1_555
O16_3 Mn2_2 1_555 1_555
C9_5 C3_5 1_555 1_555
C10_5 C5_5 1_555 1_555
C11_5 C6_5 1_555 1_555
C12_5 C7_5 1_555 1_555
C14_5 C2_5 1_555 1_555
C15_5 C5_5 1_555 1_555
C16_5 C6_5 1_555 1_555
C17_5 C7_5 1_555 1_555
C4_5 C9_5 1_555 1_555
C4_5 C14_5 1_555 1_555
O4_5 C15_5 1_555 1_555
O6_5 C17_5 1_555 1_555
C10_5 C16_5 1_555 1_555
C11_5 C15_5 1_555 1_555
C4_6 O10_6 1_555 1_555
Mn3_2 O3_6 1_555 1_555
Cl2_6 C9_6 1_555 1_555
O3_6 C14_6 1_555 1_555
O9_4 Mn3_2 1_555 1_555
O10_6 Mn3_2 1_555 1_555
O16_4 Mn3_2 1_555 1_555
C4_6 C9_6 1_555 1_555
C4_6 C14_6 1_555 1_555
C1_6 O2_6 1_555 1_555
Mn1_6 O1_6 1_555 1_555
Cl1_6 C2_6 1_555 1_555
O1_6 C3_6 1_555 1_555
O2_6 Mn1_6 1_555 1_555
C2_6 C1_6 1_555 1_555
C3_6 C1_6 1_555 1_555
C5_6 O11_6 1_555 1_555
C6_6 O15_3 1_555 1_555
C7_6 O13_6 1_555 1_555
C8_6 O14_4 1_555 1_555
Mn4_4 O7_4 1_555 1_555
Cl3_6 C10_6 1_555 1_555
Cl4_6 C11_6 1_555 1_555
Cl5_6 C12_6 1_555 1_555
Cl6_6 C13_6 1_555 1_555
O4_6 Mn1_6 1_555 1_555
O8_3 C16_6 1_555 1_555
O6_6 Mn1_6 1_555 1_555
O7_4 C18_6 1_555 1_555
O11_6 Mn1_6 1_555 1_555
O13_6 Mn1_6 1_555 1_555
O14_4 Mn4_4 1_555 1_555
C10_6 C5_6 1_555 1_555
C11_6 C6_6 1_555 1_555
C12_6 C7_6 1_555 1_555
C13_6 C8_6 1_555 1_555
C15_6 C5_6 1_555 1_555
C16_6 C6_6 1_555 1_555
C17_6 C7_6 1_555 1_555
C18_6 C8_6 1_555 1_555
O4_6 C15_6 1_555 1_555
O6_6 C17_6 1_555 1_555
C10_6 C16_6 1_555 1_555
C11_6 C15_6 1_555 1_555
C12_6 C18_6 1_555 1_555
C13_6 C17_6 1_555 1_555
C6_7 O12_4 1_555 1_555
Mn4_4 O5_4 1_555 1_555
Cl4_7 C11_7 1_555 1_555
O5_4 C16_7 1_555 1_555
O12_4 Mn4_4 1_555 1_555
C11_7 C6_7 1_555 1_555
C16_7 C6_7 1_555 1_555
C1_7 O2_7 1_555 1_555
Mn1_7 O1_7 1_555 1_555
Cl1_7 C2_7 1_555 1_555
O1_7 C3_7 1_555 1_555
O2_7 Mn1_7 1_555 1_555
C2_7 C1_7 1_555 1_555
C3_7 C1_7 1_555 1_555
C4_7 O10_7 1_555 1_555
C5_7 O11_7 1_555 1_555
C7_7 O13_7 1_555 1_555
C8_7 O16_3 1_555 1_555
Mn4_3 O3_7 1_555 1_555
Cl2_7 C9_7 1_555 1_555
Cl3_7 C10_7 1_555 1_555
Cl5_7 C12_7 1_555 1_555
Cl6_7 C13_7 1_555 1_555
O3_7 C14_7 1_555 1_555
O4_7 Mn1_7 1_555 1_555
O6_7 Mn1_7 1_555 1_555
O9_3 C18_7 1_555 1_555
O8_4 Mn4_3 1_555 1_555
O10_7 Mn4_3 1_555 1_555
O11_7 Mn1_7 1_555 1_555
O13_7 Mn1_7 1_555 1_555
O15_4 Mn4_3 1_555 1_555
C9_7 C3_7 1_555 1_555
C10_7 C5_7 1_555 1_555
C12_7 C7_7 1_555 1_555
C13_7 C8_7 1_555 1_555
C14_7 C2_7 1_555 1_555
C15_7 C5_7 1_555 1_555
C17_7 C7_7 1_555 1_555
C18_7 C8_7 1_555 1_555
C4_7 C9_7 1_555 1_555
C4_7 C14_7 1_555 1_555
O4_7 C15_7 1_555 1_555
O6_7 C17_7 1_555 1_555
C12_7 C18_7 1_555 1_555
C13_7 C17_7 1_555 1_555
C4_8 O10_8 1_555 1_555
Mn4_4 O3_8 1_555 1_555
Cl2_8 C9_8 1_555 1_555
O3_8 C14_8 1_555 1_555
O10_8 Mn4_4 1_555 1_555
C4_8 C9_8 1_555 1_555
C4_8 C14_8 1_555 1_555
C6_8 O15_4 1_555 1_555
Cl4_8 C11_8 1_555 1_555
O8_4 C16_8 1_555 1_555
C11_8 C6_8 1_555 1_555
C16_8 C6_8 1_555 1_555
C8_8 O16_4 1_555 1_555
Cl6_8 C13_8 1_555 1_555
O9_4 C18_8 1_555 1_555
C13_8 C8_8 1_555 1_555
C18_8 C8_8 1_555 1_555
C1_8 O2_8 1_555 1_555
Mn1_8 O1_8 1_555 1_555
Cl1_8 C2_8 1_555 1_555
O1_8 C3_8 1_555 1_555
O2_8 Mn1_8 1_555 1_555
C2_8 C1_8 1_555 1_555
C3_8 C1_8 1_555 1_555
C5_8 O11_8 1_555 1_555
C7_8 O13_8 1_555 1_555
Cl3_8 C10_8 1_555 1_555
Cl5_8 C12_8 1_555 1_555
O4_8 Mn1_8 1_555 1_555
O6_8 Mn1_8 1_555 1_555
O11_8 Mn1_8 1_555 1_555
O13_8 Mn1_8 1_555 1_555
C10_8 C5_8 1_555 1_555
C12_8 C7_8 1_555 1_555
C15_8 C5_8 1_555 1_555
C17_8 C7_8 1_555 1_555
O4_8 C15_8 1_555 1_555
O6_8 C17_8 1_555 1_555

#END
