
###############################################################################
#
# This file contains modified crystal structure data generated from the
# MOF subset of the Cambridge Structural Database (CSD) v543 
# hosted by the Cambridge Crystallographic Data Centre (CCDC).
#
# This work is licensed under the Creative Commons
# Attribution-NonCommercial-ShareAlike 4.0 International License.
# To view a copy of this license, visit
# http://creativecommons.org/licenses/by-nc-sa/4.0/
# or send a letter to
# Creative Commons, PO Box 1866, Mountain View, CA 94042, USA.
#
# CIF created using the CSD Python API on 29 September 2022
# The structure has been converted into the P1 space group
# The structure has a 3D framework
# The original CSD entry OWIZAW is in the monoclinic crystal system
# The framework has been calculated to contain at least 10.0% void space
# The void calculation uses a probe of radius 1.32A, grid spacing 0.4
# H atom positions have been added when not included in the experimental data
#
###############################################################################

data_OWIZAW
_chemical_formula_moiety         '(C488 H288 Cu16 O80)n'
_symmetry_cell_setting           triclinic
_symmetry_space_group_name_H-M   'P 1'
_symmetry_Int_Tables_number      1
_space_group_name_Hall           'P 1'
loop_
_symmetry_equiv_pos_site_id
_symmetry_equiv_pos_as_xyz
1 x,y,z
_cell_length_a                   26.537(9)
_cell_length_b                   29.791(10)
_cell_length_c                   45.448(15)
_cell_angle_alpha                90
_cell_angle_beta                 95.146(6)
_cell_angle_gamma                90
_cell_volume                     35784.7
loop_
_atom_site_label
_atom_site_type_symbol
_atom_site_fract_x
_atom_site_fract_y
_atom_site_fract_z
Cu1 Cu 0.30943(9) 0.78315(11) 0.68550(5)
Cu2 Cu 0.38838(9) 0.72668(10) 0.69457(5)
C1 C 0.2901(5) 0.6752(4) 0.62528(18)
C2 C 0.2439(4) 0.6865(3) 0.6102(3)
H1 H 0.2261 0.7113 0.6161
C3 C 0.2243(3) 0.6606(4) 0.5864(2)
H2 H 0.1934 0.6681 0.5764
C4 C 0.2509(5) 0.6234(4) 0.57770(19)
C5 C 0.2971(4) 0.6121(3) 0.5928(3)
H3 H 0.3149 0.5873 0.5869
C6 C 0.3167(3) 0.6380(4) 0.6165(2)
H4 H 0.3476 0.6305 0.6266
O1 O 0.2830(4) 0.7357(4) 0.6580(2)
C7 C 0.1371(4) 0.4993(4) 0.46246(18)
C8 C 0.1177(3) 0.5402(5) 0.4709(2)
H5 H 0.0873 0.5508 0.4617
C9 C 0.1437(5) 0.5653(3) 0.4931(3)
H6 H 0.1307 0.5927 0.4988
C10 C 0.1891(5) 0.5495(4) 0.50693(19)
C11 C 0.2086(3) 0.5087(5) 0.4985(2)
H7 H 0.2390 0.4981 0.5077
C12 C 0.1826(5) 0.4836(3) 0.4762(3)
H8 H 0.1956 0.4562 0.4706
O2 O 0.3557(4) 0.6916(4) 0.6609(2)
H10 H 0.0171 0.3218 0.5947
C19 C 0.0742(4) 0.4411(4) 0.46072(17)
C20 C 0.0961(3) 0.4038(4) 0.4751(2)
H13 H 0.1273 0.3933 0.4702
C21 C 0.0714(4) 0.3821(3) 0.4968(2)
H14 H 0.0861 0.3572 0.5064
C22 C 0.0248(4) 0.3978(4) 0.50410(18)
C23 C 0.0029(3) 0.4351(4) 0.4897(2)
C24 C 0.0276(4) 0.4567(3) 0.4680(2)
H16 H 0.0129 0.4817 0.4584
H19 H 0.0032 0.6636 0.3083
C31 C 0.2850(4) 0.3048(4) 0.25731(18)
C32 C 0.3021(3) 0.3462(4) 0.2681(2)
H21 H 0.3256 0.3623 0.2583
C33 C 0.2841(4) 0.3637(3) 0.2935(2)
H22 H 0.2956 0.3915 0.3007
C34 C 0.2490(4) 0.3397(4) 0.30813(18)
C35 C 0.2319(4) 0.2983(4) 0.2974(2)
H23 H 0.2085 0.2822 0.3072
C36 C 0.2499(4) 0.2808(3) 0.2720(2)
H24 H 0.2385 0.2530 0.2648
C37 C 0.1383(4) 0.4399(4) 0.42031(18)
C38 C 0.1817(4) 0.4583(3) 0.4103(2)
H25 H 0.1938 0.4858 0.4176
C39 C 0.2070(3) 0.4357(4) 0.3892(2)
H26 H 0.2360 0.4480 0.3825
C40 C 0.1888(4) 0.3946(4) 0.3783(2)
C41 C 0.1454(4) 0.3762(3) 0.3883(2)
H27 H 0.1333 0.3487 0.3810
C42 C 0.1201(3) 0.3989(4) 0.4094(2)
H28 H 0.0911 0.3865 0.4161
O7 O 0.2855(3) 0.2483(4) 0.2192(2)
C43 C 0.0740(4) 0.4944(4) 0.41567(16)
C44 C 0.0927(3) 0.5347(4) 0.4057(2)
H29 H 0.1228 0.5465 0.4146
C45 C 0.0665(4) 0.5574(3) 0.3824(2)
H30 H 0.0790 0.5844 0.3757
C46 C 0.0216(4) 0.5398(4) 0.36901(18)
C47 C 0.0029(3) 0.4995(4) 0.3790(2)
C48 C 0.0291(5) 0.4769(3) 0.4023(2)
H32 H 0.0166 0.4499 0.4090
C49 C 0.1050(5) 0.4686(4) 0.4397(3)
C50 C 0.3102(6) 0.7041(5) 0.6500(3)
C53 C 0.3069(6) 0.2840(5) 0.2311(3)
C54 C 0.2098(7) 0.5772(7) 0.5308(4)
C55 C 0.2280(6) 0.5970(6) 0.5521(4)
C58 C 0.2325(6) 0.3548(7) 0.3356(4)
C59 C 0.2090(7) 0.3753(7) 0.3531(4)
O8 O 0.3461(4) 0.3031(4) 0.2221(2)
O9 O 0.4592(4) 0.6884(3) 0.69975(18)
O10 O 0.2473(4) 0.8288(4) 0.6786(2)
Cu5 Cu 0.30943(9) 0.21685(11) 0.18550(5)
Cu8 Cu 0.38838(9) 0.27332(10) 0.19457(5)
O11 O 0.4165(4) 0.7677(4) 0.6649(2)
O12 O 0.3397(4) 0.8090(4) 0.6527(2)
O13 O 0.3484(4) 0.8219(4) 0.7129(2)
O14 O 0.4090(4) 0.7694(4) 0.7253(2)
O15 O 0.2855(3) 0.7517(4) 0.7192(2)
O16 O 0.3461(4) 0.6969(4) 0.7221(2)
H33 H 0.483886 0.704131 0.713887
H34 H 0.452477 0.657961 0.707397
H35 H 0.21591 0.813953 0.683987
H36 H 0.254106 0.855823 0.69112
C13 C 0.9098(4) 0.3124(4) 0.62336(19)
C14 C 0.9613(4) 0.3076(4) 0.6208(2)
H9 H 0.9816 0.2927 0.6355
C15 C 0.9826(3) 0.3251(4) 0.5964(3)
C16 C 0.9524(4) 0.3474(4) 0.5746(2)
C17 C 0.9008(4) 0.3522(4) 0.5771(2)
H11 H 0.8806 0.3672 0.5624
C18 C 0.8796(3) 0.3347(4) 0.6015(2)
H12 H 0.8451 0.3380 0.6032
O3 O 0.9165(4) 0.2677(4) 0.6649(2)
H15 H 0.9717 0.4456 0.4946
O4 O 0.8397(4) 0.3090(4) 0.6527(2)
C25 C 0.9131(4) 0.6648(4) 0.25497(18)
C26 C 0.8918(3) 0.6233(4) 0.2603(2)
H17 H 0.8639 0.6132 0.2483
C27 C 0.9123(4) 0.5969(3) 0.2836(3)
H18 H 0.8980 0.5691 0.2872
C28 C 0.9540(4) 0.6120(4) 0.30157(19)
C29 C 0.9753(3) 0.6535(4) 0.2962(2)
C30 C 0.9548(4) 0.6799(3) 0.2729(2)
H20 H 0.9691 0.7077 0.2694
O5 O 0.8484(4) 0.6781(4) 0.2129(2)
O6 O 0.9090(4) 0.7306(4) 0.2253(2)
H31 H 0.9729 0.4878 0.3701
C51 C 0.8856(6) 0.2951(5) 0.6500(3)
C52 C 0.8886(6) 0.6927(5) 0.2294(3)
C56 C 0.9960(5) 0.3817(6) 0.5278(3)
C57 C 0.9766(6) 0.3661(7) 0.5492(3)
C60 C 0.9926(6) 0.5622(6) 0.3445(4)
C61 C 0.9736(7) 0.5852(6) 0.3246(4)
Cu3 Cu 0.80943(9) 0.28315(11) 0.68550(5)
Cu4 Cu 0.80943(9) 0.71685(11) 0.18550(5)
Cu6 Cu 0.88838(9) 0.22668(10) 0.69457(5)
Cu7 Cu 0.88838(9) 0.77332(10) 0.19457(5)
C1_2 C 0.7901(5) 0.1752(4) 0.62528(18)
C2_2 C 0.7439(4) 0.1865(3) 0.6102(3)
H1_2 H 0.7261 0.2113 0.6161
C3_2 C 0.7243(3) 0.1606(4) 0.5864(2)
H2_2 H 0.6934 0.1681 0.5764
C4_2 C 0.7509(5) 0.1234(4) 0.57770(19)
C5_2 C 0.7971(4) 0.1121(3) 0.5928(3)
H3_2 H 0.8149 0.0873 0.5869
C6_2 C 0.8167(3) 0.1380(4) 0.6165(2)
H4_2 H 0.8476 0.1305 0.6266
O1_2 O 0.7830(4) 0.2357(4) 0.6580(2)
C8_2 C 0.6177(3) 0.0402(5) 0.4709(2)
H5_2 H 0.5873 0.0508 0.4617
C9_2 C 0.6437(5) 0.0653(3) 0.4931(3)
H6_2 H 0.6307 0.0927 0.4988
C10_2 C 0.6891(5) 0.0495(4) 0.50693(19)
C11_2 C 0.7086(3) 0.0087(5) 0.4985(2)
O2_2 O 0.8557(4) 0.1916(4) 0.6609(2)
C25_2 C 0.4131(4) 0.1648(4) 0.25497(18)
C26_2 C 0.3918(3) 0.1233(4) 0.2603(2)
H17_2 H 0.3639 0.1132 0.2483
C27_2 C 0.4123(4) 0.0969(3) 0.2836(3)
H18_2 H 0.3980 0.0691 0.2872
C28_2 C 0.4540(4) 0.1120(4) 0.30157(19)
C29_2 C 0.4753(3) 0.1535(4) 0.2962(2)
H19_2 H 0.5032 0.1636 0.3083
C30_2 C 0.4548(4) 0.1799(3) 0.2729(2)
H20_2 H 0.4691 0.2077 0.2694
O5_2 O 0.3484(4) 0.1781(4) 0.2129(2)
O6_2 O 0.4090(4) 0.2306(4) 0.2253(2)
C44_2 C 0.5927(3) 0.0347(4) 0.4057(2)
H29_2 H 0.6228 0.0465 0.4146
C45_2 C 0.5665(4) 0.0574(3) 0.3824(2)
H30_2 H 0.5790 0.0844 0.3757
C46_2 C 0.5216(4) 0.0398(4) 0.36901(18)
C50_2 C 0.8102(6) 0.2041(5) 0.6500(3)
C52_2 C 0.3886(6) 0.1927(5) 0.2294(3)
C54_2 C 0.7098(7) 0.0772(7) 0.5308(4)
C55_2 C 0.7280(6) 0.0970(6) 0.5521(4)
C60_2 C 0.4926(6) 0.0622(6) 0.3445(4)
C61_2 C 0.4736(7) 0.0852(6) 0.3246(4)
O9_2 O 0.9592(4) 0.1884(3) 0.69975(18)
O10_2 O 0.7473(4) 0.3288(4) 0.6786(2)
O13_2 O 0.8484(4) 0.3219(4) 0.7129(2)
O14_2 O 0.9090(4) 0.2694(4) 0.7253(2)
O15_2 O 0.7855(3) 0.2517(4) 0.7192(2)
O16_2 O 0.8461(4) 0.1969(4) 0.7221(2)
H33_2 H 0.983886 0.204131 0.713887
H34_2 H 0.952477 0.157961 0.707397
H35_2 H 0.71591 0.313953 0.683987
H36_2 H 0.754106 0.355823 0.69112
C7_2 C 0.6371(4) 0.9993(4) 0.46246(18)
H7_2 H 0.7390 0.9981 0.5077
C12_2 C 0.6826(5) 0.9836(3) 0.4762(3)
H8_2 H 0.6956 0.9562 0.4706
C13_2 C 0.4098(4) 0.8124(4) 0.62336(19)
C14_2 C 0.4613(4) 0.8076(4) 0.6208(2)
H9_2 H 0.4816 0.7927 0.6355
C15_2 C 0.4826(3) 0.8251(4) 0.5964(3)
H10_2 H 0.5171 0.8218 0.5947
C16_2 C 0.4524(4) 0.8474(4) 0.5746(2)
C17_2 C 0.4008(4) 0.8522(4) 0.5771(2)
H11_2 H 0.3806 0.8672 0.5624
C18_2 C 0.3796(3) 0.8347(4) 0.6015(2)
H12_2 H 0.3451 0.8380 0.6032
C19_2 C 0.5742(4) 0.9411(4) 0.46072(17)
C20_2 C 0.5961(3) 0.9038(4) 0.4751(2)
H13_2 H 0.6273 0.8933 0.4702
C21_2 C 0.5714(4) 0.8821(3) 0.4968(2)
H14_2 H 0.5861 0.8572 0.5064
C22_2 C 0.5248(4) 0.8978(4) 0.50410(18)
C23_2 C 0.5029(3) 0.9351(4) 0.4897(2)
H15_2 H 0.4717 0.9456 0.4946
C24_2 C 0.5276(4) 0.9567(3) 0.4680(2)
H16_2 H 0.5129 0.9817 0.4584
C31_2 C 0.7850(4) 0.8048(4) 0.25731(18)
C32_2 C 0.8021(3) 0.8462(4) 0.2681(2)
H21_2 H 0.8256 0.8623 0.2583
C33_2 C 0.7841(4) 0.8637(3) 0.2935(2)
H22_2 H 0.7956 0.8915 0.3007
C34_2 C 0.7490(4) 0.8397(4) 0.30813(18)
C35_2 C 0.7319(4) 0.7983(4) 0.2974(2)
H23_2 H 0.7085 0.7822 0.3072
C36_2 C 0.7499(4) 0.7808(3) 0.2720(2)
H24_2 H 0.7385 0.7530 0.2648
C37_2 C 0.6383(4) 0.9399(4) 0.42031(18)
C38_2 C 0.6817(4) 0.9583(3) 0.4103(2)
H25_2 H 0.6938 0.9858 0.4176
C39_2 C 0.7070(3) 0.9357(4) 0.3892(2)
H26_2 H 0.7360 0.9480 0.3825
C40_2 C 0.6888(4) 0.8946(4) 0.3783(2)
C41_2 C 0.6454(4) 0.8762(3) 0.3883(2)
H27_2 H 0.6333 0.8487 0.3810
C42_2 C 0.6201(3) 0.8989(4) 0.4094(2)
H28_2 H 0.5911 0.8865 0.4161
O7_2 O 0.7855(3) 0.7483(4) 0.2192(2)
C43_2 C 0.5740(4) 0.9944(4) 0.41567(16)
C47_2 C 0.5029(3) 0.9995(4) 0.3790(2)
H31_2 H 0.4729 0.9878 0.3701
C48_2 C 0.5291(5) 0.9769(3) 0.4023(2)
H32_2 H 0.5166 0.9499 0.4090
C49_2 C 0.6050(5) 0.9686(4) 0.4397(3)
C51_2 C 0.3856(6) 0.7951(5) 0.6500(3)
C53_2 C 0.8069(6) 0.7840(5) 0.2311(3)
C56_2 C 0.4960(5) 0.8817(6) 0.5278(3)
C57_2 C 0.4766(6) 0.8661(7) 0.5492(3)
C58_2 C 0.7325(6) 0.8548(7) 0.3356(4)
C59_2 C 0.7090(7) 0.8753(7) 0.3531(4)
O8_2 O 0.8461(4) 0.8031(4) 0.2221(2)
C1_3 C 0.2901(5) 0.3248(4) 0.12528(18)
C2_3 C 0.2439(4) 0.3135(3) 0.1102(3)
H1_3 H 0.2261 0.2887 0.1161
C3_3 C 0.2243(3) 0.3394(4) 0.0864(2)
H2_3 H 0.1934 0.3319 0.0764
C4_3 C 0.2509(5) 0.3766(4) 0.07770(19)
C5_3 C 0.2971(4) 0.3879(3) 0.0928(3)
H3_3 H 0.3149 0.4127 0.0869
C6_3 C 0.3167(3) 0.3620(4) 0.1165(2)
H4_3 H 0.3476 0.3695 0.1266
O1_3 O 0.2830(4) 0.2643(4) 0.1580(2)
C10_3 C 0.1891(5) 0.4505(4) 0.00693(19)
H7_3 H 0.2390 0.5019 0.0077
O2_3 O 0.3557(4) 0.3084(4) 0.1609(2)
H10_3 H 0.0171 0.6782 0.0947
H14_3 H 0.0861 0.6428 0.0064
C22_3 C 0.0248(4) 0.6022(4) 0.00410(18)
C50_3 C 0.3102(6) 0.2959(5) 0.1500(3)
C54_3 C 0.2098(7) 0.4228(7) 0.0308(4)
C55_3 C 0.2280(6) 0.4030(6) 0.0521(4)
O9_3 O 0.4592(4) 0.3116(3) 0.19975(18)
O10_3 O 0.2473(4) 0.1712(4) 0.1786(2)
O11_2 O 0.4165(4) 0.2323(4) 0.1649(2)
O12_2 O 0.3397(4) 0.1910(4) 0.1527(2)
H33_3 H 0.483886 0.295869 0.213887
H34_3 H 0.452477 0.342039 0.207397
H35_3 H 0.21591 0.186047 0.183987
H36_3 H 0.254106 0.144177 0.19112
C7_3 C 0.1371(4) 0.5007(4) 0.96246(18)
C8_3 C 0.1177(3) 0.4598(5) 0.9709(2)
H5_3 H 0.0873 0.4492 0.9617
C9_3 C 0.1437(5) 0.4347(3) 0.9931(3)
H6_3 H 0.1307 0.4073 0.9988
C11_3 C 0.2086(3) 0.4913(5) 0.9985(2)
C12_3 C 0.1826(5) 0.5164(3) 0.9762(3)
H8_3 H 0.1956 0.5438 0.9706
C19_3 C 0.0742(4) 0.5589(4) 0.96072(17)
C20_3 C 0.0961(3) 0.5962(4) 0.9751(2)
H13_3 H 0.1273 0.6067 0.9702
C21_3 C 0.0714(4) 0.6179(3) 0.9968(2)
C23_3 C 0.0029(3) 0.5649(4) 0.9897(2)
C24_3 C 0.0276(4) 0.5433(3) 0.9680(2)
H16_3 H 0.0129 0.5183 0.9584
H19_3 H 0.0032 0.3364 0.8083
C31_3 C 0.2850(4) 0.6952(4) 0.75731(18)
C32_3 C 0.3021(3) 0.6538(4) 0.7681(2)
H21_3 H 0.3256 0.6377 0.7583
C33_3 C 0.2841(4) 0.6363(3) 0.7935(2)
H22_3 H 0.2956 0.6085 0.8007
C34_3 C 0.2490(4) 0.6603(4) 0.80813(18)
C35_3 C 0.2319(4) 0.7017(4) 0.7974(2)
H23_3 H 0.2085 0.7178 0.8072
C36_3 C 0.2499(4) 0.7192(3) 0.7720(2)
H24_3 H 0.2385 0.7470 0.7648
C37_3 C 0.1383(4) 0.5601(4) 0.92031(18)
C38_3 C 0.1817(4) 0.5417(3) 0.9103(2)
H25_3 H 0.1938 0.5142 0.9176
C39_3 C 0.2070(3) 0.5643(4) 0.8892(2)
H26_3 H 0.2360 0.5520 0.8825
C40_3 C 0.1888(4) 0.6054(4) 0.8783(2)
C41_3 C 0.1454(4) 0.6238(3) 0.8883(2)
H27_3 H 0.1333 0.6513 0.8810
C42_3 C 0.1201(3) 0.6011(4) 0.9094(2)
H28_3 H 0.0911 0.6135 0.9161
C43_3 C 0.0740(4) 0.5056(4) 0.91567(16)
C44_3 C 0.0927(3) 0.4653(4) 0.9057(2)
H29_3 H 0.1228 0.4535 0.9146
C45_3 C 0.0665(4) 0.4426(3) 0.8824(2)
H30_3 H 0.0790 0.4156 0.8757
C46_3 C 0.0216(4) 0.4602(4) 0.86901(18)
C47_3 C 0.0029(3) 0.5005(4) 0.8790(2)
C48_3 C 0.0291(5) 0.5231(3) 0.9023(2)
H32_3 H 0.0166 0.5501 0.9090
C49_3 C 0.1050(5) 0.5314(4) 0.9397(3)
C53_3 C 0.3069(6) 0.7160(5) 0.7311(3)
C58_3 C 0.2325(6) 0.6452(7) 0.8356(4)
C59_3 C 0.2090(7) 0.6247(7) 0.8531(4)
C13_3 C 0.9098(4) 0.6876(4) 0.12336(19)
C14_3 C 0.9613(4) 0.6924(4) 0.1208(2)
H9_3 H 0.9816 0.7073 0.1355
C15_3 C 0.9826(3) 0.6749(4) 0.0964(3)
C16_3 C 0.9524(4) 0.6526(4) 0.0746(2)
C17_3 C 0.9008(4) 0.6478(4) 0.0771(2)
H11_3 H 0.8806 0.6328 0.0624
C18_3 C 0.8796(3) 0.6653(4) 0.1015(2)
H12_3 H 0.8451 0.6620 0.1032
O3_2 O 0.9165(4) 0.7323(4) 0.1649(2)
O4_2 O 0.8397(4) 0.6910(4) 0.1527(2)
C51_3 C 0.8856(6) 0.7049(5) 0.1500(3)
C56_3 C 0.9960(5) 0.6183(6) 0.0278(3)
C57_3 C 0.9766(6) 0.6339(7) 0.0492(3)
H15_3 H 0.9717 0.5544 0.9946
C25_3 C 0.9131(4) 0.3352(4) 0.75497(18)
C26_3 C 0.8918(3) 0.3767(4) 0.7603(2)
H17_3 H 0.8639 0.3868 0.7483
C27_3 C 0.9123(4) 0.4031(3) 0.7836(3)
H18_3 H 0.8980 0.4309 0.7872
C28_3 C 0.9540(4) 0.3880(4) 0.80157(19)
C29_3 C 0.9753(3) 0.3465(4) 0.7962(2)
C30_3 C 0.9548(4) 0.3201(3) 0.7729(2)
H20_3 H 0.9691 0.2923 0.7694
H31_3 H 0.9729 0.5122 0.8701
C52_3 C 0.8886(6) 0.3073(5) 0.7294(3)
C60_3 C 0.9926(6) 0.4378(6) 0.8445(4)
C61_3 C 0.9736(7) 0.4148(6) 0.8246(4)
H7_4 H 0.7390 0.0019 0.0077
C13_4 C 0.4098(4) 0.1876(4) 0.12336(19)
C14_4 C 0.4613(4) 0.1924(4) 0.1208(2)
H9_4 H 0.4816 0.2073 0.1355
C15_4 C 0.4826(3) 0.1749(4) 0.0964(3)
H10_4 H 0.5171 0.1782 0.0947
C16_4 C 0.4524(4) 0.1526(4) 0.0746(2)
C17_4 C 0.4008(4) 0.1478(4) 0.0771(2)
H11_4 H 0.3806 0.1328 0.0624
C18_4 C 0.3796(3) 0.1653(4) 0.1015(2)
H12_4 H 0.3451 0.1620 0.1032
H14_4 H 0.5861 0.1428 0.0064
C22_4 C 0.5248(4) 0.1022(4) 0.00410(18)
C51_4 C 0.3856(6) 0.2049(5) 0.1500(3)
C56_4 C 0.4960(5) 0.1183(6) 0.0278(3)
C57_4 C 0.4766(6) 0.1339(7) 0.0492(3)
C7_4 C 0.6371(4) 0.0007(4) 0.96246(18)
C12_4 C 0.6826(5) 0.0164(3) 0.9762(3)
H8_4 H 0.6956 0.0438 0.9706
C19_4 C 0.5742(4) 0.0589(4) 0.96072(17)
C20_4 C 0.5961(3) 0.0962(4) 0.9751(2)
H13_4 H 0.6273 0.1067 0.9702
C21_4 C 0.5714(4) 0.1179(3) 0.9968(2)
C23_4 C 0.5029(3) 0.0649(4) 0.9897(2)
H15_4 H 0.4717 0.0544 0.9946
C24_4 C 0.5276(4) 0.0433(3) 0.9680(2)
H16_4 H 0.5129 0.0183 0.9584
C31_4 C 0.7850(4) 0.1952(4) 0.75731(18)
C32_4 C 0.8021(3) 0.1538(4) 0.7681(2)
H21_4 H 0.8256 0.1377 0.7583
C33_4 C 0.7841(4) 0.1363(3) 0.7935(2)
H22_4 H 0.7956 0.1085 0.8007
C34_4 C 0.7490(4) 0.1603(4) 0.80813(18)
C35_4 C 0.7319(4) 0.2017(4) 0.7974(2)
H23_4 H 0.7085 0.2178 0.8072
C36_4 C 0.7499(4) 0.2192(3) 0.7720(2)
H24_4 H 0.7385 0.2470 0.7648
C37_4 C 0.6383(4) 0.0601(4) 0.92031(18)
C38_4 C 0.6817(4) 0.0417(3) 0.9103(2)
H25_4 H 0.6938 0.0142 0.9176
C39_4 C 0.7070(3) 0.0643(4) 0.8892(2)
H26_4 H 0.7360 0.0520 0.8825
C40_4 C 0.6888(4) 0.1054(4) 0.8783(2)
C41_4 C 0.6454(4) 0.1238(3) 0.8883(2)
H27_4 H 0.6333 0.1513 0.8810
C42_4 C 0.6201(3) 0.1011(4) 0.9094(2)
H28_4 H 0.5911 0.1135 0.9161
C43_4 C 0.5740(4) 0.0056(4) 0.91567(16)
C47_4 C 0.5029(3) 0.0005(4) 0.8790(2)
H31_4 H 0.4729 0.0122 0.8701
C48_4 C 0.5291(5) 0.0231(3) 0.9023(2)
H32_4 H 0.5166 0.0501 0.9090
C49_4 C 0.6050(5) 0.0314(4) 0.9397(3)
C53_4 C 0.8069(6) 0.2160(5) 0.7311(3)
C58_4 C 0.7325(6) 0.1452(7) 0.8356(4)
C59_4 C 0.7090(7) 0.1247(7) 0.8531(4)
C1_4 C 0.7901(5) 0.8248(4) 0.12528(18)
C2_4 C 0.7439(4) 0.8135(3) 0.1102(3)
H1_4 H 0.7261 0.7887 0.1161
C3_4 C 0.7243(3) 0.8394(4) 0.0864(2)
H2_4 H 0.6934 0.8319 0.0764
C4_4 C 0.7509(5) 0.8766(4) 0.07770(19)
C5_4 C 0.7971(4) 0.8879(3) 0.0928(3)
H3_4 H 0.8149 0.9127 0.0869
C6_4 C 0.8167(3) 0.8620(4) 0.1165(2)
H4_4 H 0.8476 0.8695 0.1266
O1_4 O 0.7830(4) 0.7643(4) 0.1580(2)
C10_4 C 0.6891(5) 0.9505(4) 0.00693(19)
O2_4 O 0.8557(4) 0.8084(4) 0.1609(2)
C50_4 C 0.8102(6) 0.7959(5) 0.1500(3)
C54_4 C 0.7098(7) 0.9228(7) 0.0308(4)
C55_4 C 0.7280(6) 0.9030(6) 0.0521(4)
O9_4 O 0.9592(4) 0.8116(3) 0.19975(18)
O10_4 O 0.7473(4) 0.6712(4) 0.1786(2)
H33_4 H 0.983886 0.795869 0.213887
H34_4 H 0.952477 0.842039 0.207397
H35_4 H 0.71591 0.686047 0.183987
H36_4 H 0.754106 0.644177 0.19112
C8_4 C 0.6177(3) 0.9598(5) 0.9709(2)
H5_4 H 0.5873 0.9492 0.9617
C9_4 C 0.6437(5) 0.9347(3) 0.9931(3)
H6_4 H 0.6307 0.9073 0.9988
C11_4 C 0.7086(3) 0.9913(5) 0.9985(2)
C25_4 C 0.4131(4) 0.8352(4) 0.75497(18)
C26_4 C 0.3918(3) 0.8767(4) 0.7603(2)
H17_4 H 0.3639 0.8868 0.7483
C27_4 C 0.4123(4) 0.9031(3) 0.7836(3)
H18_4 H 0.3980 0.9309 0.7872
C28_4 C 0.4540(4) 0.8880(4) 0.80157(19)
C29_4 C 0.4753(3) 0.8465(4) 0.7962(2)
H19_4 H 0.5032 0.8364 0.8083
C30_4 C 0.4548(4) 0.8201(3) 0.7729(2)
H20_4 H 0.4691 0.7923 0.7694
C44_4 C 0.5927(3) 0.9653(4) 0.9057(2)
H29_4 H 0.6228 0.9535 0.9146
C45_4 C 0.5665(4) 0.9426(3) 0.8824(2)
H30_4 H 0.5790 0.9156 0.8757
C46_4 C 0.5216(4) 0.9602(4) 0.86901(18)
C52_4 C 0.3886(6) 0.8073(5) 0.7294(3)
C60_4 C 0.4926(6) 0.9378(6) 0.8445(4)
C61_4 C 0.4736(7) 0.9148(6) 0.8246(4)
H15_5 H 0.0283 0.4456 0.0054
C25_5 C 0.0869(4) 0.6648(4) 0.24503(18)
C26_5 C 0.1082(3) 0.6233(4) 0.2397(2)
H17_5 H 0.1361 0.6132 0.2517
C27_5 C 0.0877(4) 0.5969(3) 0.2164(3)
H18_5 H 0.1020 0.5691 0.2128
C28_5 C 0.0460(4) 0.6120(4) 0.19843(19)
C29_5 C 0.0247(3) 0.6535(4) 0.2038(2)
C30_5 C 0.0452(4) 0.6799(3) 0.2271(2)
H20_5 H 0.0309 0.7077 0.2306
O5_3 O 0.1516(4) 0.6781(4) 0.2871(2)
O6_3 O 0.0910(4) 0.7306(4) 0.2747(2)
H31_5 H 0.0271 0.4878 0.1299
C52_5 C 0.1114(6) 0.6927(5) 0.2706(3)
C60_5 C 0.0074(6) 0.5622(6) 0.1555(4)
C61_5 C 0.0264(7) 0.5852(6) 0.1754(4)
Cu4_2 Cu 0.19057(9) 0.71685(11) 0.31450(5)
Cu7_2 Cu 0.11162(9) 0.77332(10) 0.30543(5)
C13_5 C 0.0902(4) 0.3124(4) 0.87664(19)
C14_5 C 0.0387(4) 0.3076(4) 0.8792(2)
H9_5 H 0.0184 0.2927 0.8645
C15_5 C 0.0174(3) 0.3251(4) 0.9036(3)
C16_5 C 0.0476(4) 0.3474(4) 0.9254(2)
C17_5 C 0.0992(4) 0.3522(4) 0.9229(2)
H11_5 H 0.1194 0.3672 0.9376
C18_5 C 0.1204(3) 0.3347(4) 0.8985(2)
H12_5 H 0.1549 0.3380 0.8968
O3_3 O 0.0835(4) 0.2677(4) 0.8351(2)
O4_3 O 0.1603(4) 0.3090(4) 0.8473(2)
C51_5 C 0.1144(6) 0.2951(5) 0.8500(3)
C56_5 C 0.0040(5) 0.3817(6) 0.9722(3)
C57_5 C 0.0234(6) 0.3661(7) 0.9508(3)
Cu3_2 Cu 0.19057(9) 0.28315(11) 0.81450(5)
Cu6_2 Cu 0.11162(9) 0.22668(10) 0.80543(5)
C7_5 C 0.8629(4) 0.4993(4) 0.03754(18)
C8_5 C 0.8823(3) 0.5402(5) 0.0291(2)
H5_5 H 0.9127 0.5508 0.0383
C9_5 C 0.8563(5) 0.5653(3) 0.0069(3)
H6_5 H 0.8693 0.5927 0.0012
C11_5 C 0.7914(3) 0.5087(5) 0.0015(2)
C12_5 C 0.8174(5) 0.4836(3) 0.0238(3)
H8_5 H 0.8044 0.4562 0.0294
C19_5 C 0.9258(4) 0.4411(4) 0.03928(17)
C20_5 C 0.9039(3) 0.4038(4) 0.0249(2)
H13_5 H 0.8727 0.3933 0.0298
C21_5 C 0.9286(4) 0.3821(3) 0.0032(2)
C23_5 C 0.9971(3) 0.4351(4) 0.0103(2)
C24_5 C 0.9724(4) 0.4567(3) 0.0320(2)
H16_5 H 0.9871 0.4817 0.0416
H19_5 H 0.9968 0.6636 0.1917
C31_5 C 0.7150(4) 0.3048(4) 0.24269(18)
C32_5 C 0.6979(3) 0.3462(4) 0.2319(2)
H21_5 H 0.6744 0.3623 0.2417
C33_5 C 0.7159(4) 0.3637(3) 0.2065(2)
H22_5 H 0.7044 0.3915 0.1993
C34_5 C 0.7510(4) 0.3397(4) 0.19187(18)
C35_5 C 0.7681(4) 0.2983(4) 0.2026(2)
H23_5 H 0.7915 0.2822 0.1928
C36_5 C 0.7501(4) 0.2808(3) 0.2280(2)
H24_5 H 0.7615 0.2530 0.2352
C37_5 C 0.8617(4) 0.4399(4) 0.07969(18)
C38_5 C 0.8183(4) 0.4583(3) 0.0897(2)
H25_5 H 0.8062 0.4858 0.0824
C39_5 C 0.7930(3) 0.4357(4) 0.1108(2)
H26_5 H 0.7640 0.4480 0.1175
C40_5 C 0.8112(4) 0.3946(4) 0.1217(2)
C41_5 C 0.8546(4) 0.3762(3) 0.1117(2)
H27_5 H 0.8667 0.3487 0.1190
C42_5 C 0.8799(3) 0.3989(4) 0.0906(2)
H28_5 H 0.9089 0.3865 0.0839
O7_3 O 0.7145(3) 0.2483(4) 0.2808(2)
C43_5 C 0.9260(4) 0.4944(4) 0.08433(16)
C44_5 C 0.9073(3) 0.5347(4) 0.0943(2)
H29_5 H 0.8772 0.5465 0.0854
C45_5 C 0.9335(4) 0.5574(3) 0.1176(2)
H30_5 H 0.9210 0.5844 0.1243
C46_5 C 0.9784(4) 0.5398(4) 0.13099(18)
C47_5 C 0.9971(3) 0.4995(4) 0.1210(2)
C48_5 C 0.9709(5) 0.4769(3) 0.0977(2)
H32_5 H 0.9834 0.4499 0.0910
C49_5 C 0.8950(5) 0.4686(4) 0.0603(3)
C53_5 C 0.6931(6) 0.2840(5) 0.2689(3)
C58_5 C 0.7675(6) 0.3548(7) 0.1644(4)
C59_5 C 0.7910(7) 0.3753(7) 0.1469(4)
O8_3 O 0.6539(4) 0.3031(4) 0.2779(2)
Cu5_2 Cu 0.69057(9) 0.21685(11) 0.31450(5)
Cu8_2 Cu 0.61162(9) 0.27332(10) 0.30543(5)
Cu1_2 Cu 0.69057(9) 0.78315(11) 0.81450(5)
Cu2_2 Cu 0.61162(9) 0.72668(10) 0.80543(5)
C1_5 C 0.7099(5) 0.6752(4) 0.87472(18)
C2_5 C 0.7561(4) 0.6865(3) 0.8898(3)
H1_5 H 0.7739 0.7113 0.8839
C3_5 C 0.7757(3) 0.6606(4) 0.9136(2)
H2_5 H 0.8066 0.6681 0.9236
C4_5 C 0.7491(5) 0.6234(4) 0.92230(19)
C5_5 C 0.7029(4) 0.6121(3) 0.9072(3)
H3_5 H 0.6851 0.5873 0.9131
C6_5 C 0.6833(3) 0.6380(4) 0.8835(2)
H4_5 H 0.6524 0.6305 0.8734
O1_5 O 0.7170(4) 0.7357(4) 0.8420(2)
C10_5 C 0.8109(5) 0.5495(4) 0.99307(19)
H7_5 H 0.7610 0.4981 0.9923
O2_5 O 0.6443(4) 0.6916(4) 0.8391(2)
H10_5 H 0.9829 0.3218 0.9053
H14_5 H 0.9139 0.3572 0.9936
C22_5 C 0.9752(4) 0.3978(4) 0.99590(18)
C50_5 C 0.6898(6) 0.7041(5) 0.8500(3)
C54_5 C 0.7902(7) 0.5772(7) 0.9692(4)
C55_5 C 0.7720(6) 0.5970(6) 0.9479(4)
O9_5 O 0.5408(4) 0.6884(3) 0.80025(18)
O10_5 O 0.7527(4) 0.8288(4) 0.8214(2)
O11_3 O 0.5835(4) 0.7677(4) 0.8351(2)
O12_3 O 0.6603(4) 0.8090(4) 0.8473(2)
O13_3 O 0.6516(4) 0.8219(4) 0.7871(2)
O14_3 O 0.5910(4) 0.7694(4) 0.7747(2)
O15_3 O 0.7145(3) 0.7517(4) 0.7808(2)
O16_3 O 0.6539(4) 0.6969(4) 0.7779(2)
H33_5 H 0.516114 0.704131 0.786113
H34_5 H 0.547523 0.657961 0.792603
H35_5 H 0.78409 0.813953 0.816013
H36_5 H 0.745894 0.855823 0.80888
C8_6 C 0.3823(3) 0.0402(5) 0.0291(2)
H5_6 H 0.4127 0.0508 0.0383
C9_6 C 0.3563(5) 0.0653(3) 0.0069(3)
H6_6 H 0.3693 0.0927 0.0012
C11_6 C 0.2914(3) 0.0087(5) 0.0015(2)
C25_6 C 0.5869(4) 0.1648(4) 0.24503(18)
C26_6 C 0.6082(3) 0.1233(4) 0.2397(2)
H17_6 H 0.6361 0.1132 0.2517
C27_6 C 0.5877(4) 0.0969(3) 0.2164(3)
H18_6 H 0.6020 0.0691 0.2128
C28_6 C 0.5460(4) 0.1120(4) 0.19843(19)
C29_6 C 0.5247(3) 0.1535(4) 0.2038(2)
H19_6 H 0.4968 0.1636 0.1917
C30_6 C 0.5452(4) 0.1799(3) 0.2271(2)
H20_6 H 0.5309 0.2077 0.2306
O5_4 O 0.6516(4) 0.1781(4) 0.2871(2)
O6_4 O 0.5910(4) 0.2306(4) 0.2747(2)
C44_6 C 0.4073(3) 0.0347(4) 0.0943(2)
H29_6 H 0.3772 0.0465 0.0854
C45_6 C 0.4335(4) 0.0574(3) 0.1176(2)
H30_6 H 0.4210 0.0844 0.1243
C46_6 C 0.4784(4) 0.0398(4) 0.13099(18)
C52_6 C 0.6114(6) 0.1927(5) 0.2706(3)
C60_6 C 0.5074(6) 0.0622(6) 0.1555(4)
C61_6 C 0.5264(7) 0.0852(6) 0.1754(4)
C1_6 C 0.2099(5) 0.1752(4) 0.87472(18)
C2_6 C 0.2561(4) 0.1865(3) 0.8898(3)
H1_6 H 0.2739 0.2113 0.8839
C3_6 C 0.2757(3) 0.1606(4) 0.9136(2)
H2_6 H 0.3066 0.1681 0.9236
C4_6 C 0.2491(5) 0.1234(4) 0.92230(19)
C5_6 C 0.2029(4) 0.1121(3) 0.9072(3)
H3_6 H 0.1851 0.0873 0.9131
C6_6 C 0.1833(3) 0.1380(4) 0.8835(2)
H4_6 H 0.1524 0.1305 0.8734
O1_6 O 0.2170(4) 0.2357(4) 0.8420(2)
C10_6 C 0.3109(5) 0.0495(4) 0.99307(19)
O2_6 O 0.1443(4) 0.1916(4) 0.8391(2)
C50_6 C 0.1898(6) 0.2041(5) 0.8500(3)
C54_6 C 0.2902(7) 0.0772(7) 0.9692(4)
C55_6 C 0.2720(6) 0.0970(6) 0.9479(4)
O9_6 O 0.0408(4) 0.1884(3) 0.80025(18)
O10_6 O 0.2527(4) 0.3288(4) 0.8214(2)
O13_4 O 0.1516(4) 0.3219(4) 0.7871(2)
O14_4 O 0.0910(4) 0.2694(4) 0.7747(2)
O15_4 O 0.2145(3) 0.2517(4) 0.7808(2)
O16_4 O 0.1539(4) 0.1969(4) 0.7779(2)
H33_6 H 0.0161141 0.204131 0.786113
H34_6 H 0.0475231 0.157961 0.792603
H35_6 H 0.28409 0.313953 0.816013
H36_6 H 0.245894 0.355823 0.80888
C7_6 C 0.3629(4) 0.9993(4) 0.03754(18)
C12_6 C 0.3174(5) 0.9836(3) 0.0238(3)
H8_6 H 0.3044 0.9562 0.0294
C19_6 C 0.4258(4) 0.9411(4) 0.03928(17)
C20_6 C 0.4039(3) 0.9038(4) 0.0249(2)
H13_6 H 0.3727 0.8933 0.0298
C21_6 C 0.4286(4) 0.8821(3) 0.0032(2)
C23_6 C 0.4971(3) 0.9351(4) 0.0103(2)
H15_6 H 0.5283 0.9456 0.0054
C24_6 C 0.4724(4) 0.9567(3) 0.0320(2)
H16_6 H 0.4871 0.9817 0.0416
C31_6 C 0.2150(4) 0.8048(4) 0.24269(18)
C32_6 C 0.1979(3) 0.8462(4) 0.2319(2)
H21_6 H 0.1744 0.8623 0.2417
C33_6 C 0.2159(4) 0.8637(3) 0.2065(2)
H22_6 H 0.2044 0.8915 0.1993
C34_6 C 0.2510(4) 0.8397(4) 0.19187(18)
C35_6 C 0.2681(4) 0.7983(4) 0.2026(2)
H23_6 H 0.2915 0.7822 0.1928
C36_6 C 0.2501(4) 0.7808(3) 0.2280(2)
H24_6 H 0.2615 0.7530 0.2352
C37_6 C 0.3617(4) 0.9399(4) 0.07969(18)
C38_6 C 0.3183(4) 0.9583(3) 0.0897(2)
H25_6 H 0.3062 0.9858 0.0824
C39_6 C 0.2930(3) 0.9357(4) 0.1108(2)
H26_6 H 0.2640 0.9480 0.1175
C40_6 C 0.3112(4) 0.8946(4) 0.1217(2)
C41_6 C 0.3546(4) 0.8762(3) 0.1117(2)
H27_6 H 0.3667 0.8487 0.1190
C42_6 C 0.3799(3) 0.8989(4) 0.0906(2)
H28_6 H 0.4089 0.8865 0.0839
O7_4 O 0.2145(3) 0.7483(4) 0.2808(2)
C43_6 C 0.4260(4) 0.9944(4) 0.08433(16)
C47_6 C 0.4971(3) 0.9995(4) 0.1210(2)
H31_6 H 0.5271 0.9878 0.1299
C48_6 C 0.4709(5) 0.9769(3) 0.0977(2)
H32_6 H 0.4834 0.9499 0.0910
C49_6 C 0.3950(5) 0.9686(4) 0.0603(3)
C53_6 C 0.1931(6) 0.7840(5) 0.2689(3)
C58_6 C 0.2675(6) 0.8548(7) 0.1644(4)
C59_6 C 0.2910(7) 0.8753(7) 0.1469(4)
O8_4 O 0.1539(4) 0.8031(4) 0.2779(2)
H7_6 H 0.2610 0.9981 0.9923
C13_6 C 0.5902(4) 0.8124(4) 0.87664(19)
C14_6 C 0.5387(4) 0.8076(4) 0.8792(2)
H9_6 H 0.5184 0.7927 0.8645
C15_6 C 0.5174(3) 0.8251(4) 0.9036(3)
H10_6 H 0.4829 0.8218 0.9053
C16_6 C 0.5476(4) 0.8474(4) 0.9254(2)
C17_6 C 0.5992(4) 0.8522(4) 0.9229(2)
H11_6 H 0.6194 0.8672 0.9376
C18_6 C 0.6204(3) 0.8347(4) 0.8985(2)
H12_6 H 0.6549 0.8380 0.8968
H14_6 H 0.4139 0.8572 0.9936
C22_6 C 0.4752(4) 0.8978(4) 0.99590(18)
C51_6 C 0.6144(6) 0.7951(5) 0.8500(3)
C56_6 C 0.5040(5) 0.8817(6) 0.9722(3)
C57_6 C 0.5234(6) 0.8661(7) 0.9508(3)
C13_7 C 0.0902(4) 0.6876(4) 0.37664(19)
C14_7 C 0.0387(4) 0.6924(4) 0.3792(2)
H9_7 H 0.0184 0.7073 0.3645
C15_7 C 0.0174(3) 0.6749(4) 0.4036(3)
C16_7 C 0.0476(4) 0.6526(4) 0.4254(2)
C17_7 C 0.0992(4) 0.6478(4) 0.4229(2)
H11_7 H 0.1194 0.6328 0.4376
C18_7 C 0.1204(3) 0.6653(4) 0.3985(2)
H12_7 H 0.1549 0.6620 0.3968
O3_4 O 0.0835(4) 0.7323(4) 0.3351(2)
H15_7 H 0.0283 0.5544 0.5054
O4_4 O 0.1603(4) 0.6910(4) 0.3473(2)
C25_7 C 0.0869(4) 0.3352(4) 0.74503(18)
C26_7 C 0.1082(3) 0.3767(4) 0.7397(2)
H17_7 H 0.1361 0.3868 0.7517
C27_7 C 0.0877(4) 0.4031(3) 0.7164(3)
H18_7 H 0.1020 0.4309 0.7128
C28_7 C 0.0460(4) 0.3880(4) 0.69843(19)
C29_7 C 0.0247(3) 0.3465(4) 0.7038(2)
C30_7 C 0.0452(4) 0.3201(3) 0.7271(2)
H20_7 H 0.0309 0.2923 0.7306
H31_7 H 0.0271 0.5122 0.6299
C51_7 C 0.1144(6) 0.7049(5) 0.3500(3)
C52_7 C 0.1114(6) 0.3073(5) 0.7706(3)
C56_7 C 0.0040(5) 0.6183(6) 0.4722(3)
C57_7 C 0.0234(6) 0.6339(7) 0.4508(3)
C60_7 C 0.0074(6) 0.4378(6) 0.6555(4)
C61_7 C 0.0264(7) 0.4148(6) 0.6754(4)
C1_7 C 0.7099(5) 0.3248(4) 0.37472(18)
C2_7 C 0.7561(4) 0.3135(3) 0.3898(3)
H1_7 H 0.7739 0.2887 0.3839
C3_7 C 0.7757(3) 0.3394(4) 0.4136(2)
H2_7 H 0.8066 0.3319 0.4236
C4_7 C 0.7491(5) 0.3766(4) 0.42230(19)
C5_7 C 0.7029(4) 0.3879(3) 0.4072(3)
H3_7 H 0.6851 0.4127 0.4131
C6_7 C 0.6833(3) 0.3620(4) 0.3835(2)
H4_7 H 0.6524 0.3695 0.3734
O1_7 O 0.7170(4) 0.2643(4) 0.3420(2)
C7_7 C 0.8629(4) 0.5007(4) 0.53754(18)
C8_7 C 0.8823(3) 0.4598(5) 0.5291(2)
H5_7 H 0.9127 0.4492 0.5383
C9_7 C 0.8563(5) 0.4347(3) 0.5069(3)
H6_7 H 0.8693 0.4073 0.5012
C10_7 C 0.8109(5) 0.4505(4) 0.49307(19)
C11_7 C 0.7914(3) 0.4913(5) 0.5015(2)
H7_7 H 0.7610 0.5019 0.4923
C12_7 C 0.8174(5) 0.5164(3) 0.5238(3)
H8_7 H 0.8044 0.5438 0.5294
O2_7 O 0.6443(4) 0.3084(4) 0.3391(2)
H10_7 H 0.9829 0.6782 0.4053
C19_7 C 0.9258(4) 0.5589(4) 0.53928(17)
C20_7 C 0.9039(3) 0.5962(4) 0.5249(2)
H13_7 H 0.8727 0.6067 0.5298
C21_7 C 0.9286(4) 0.6179(3) 0.5032(2)
H14_7 H 0.9139 0.6428 0.4936
C22_7 C 0.9752(4) 0.6022(4) 0.49590(18)
C23_7 C 0.9971(3) 0.5649(4) 0.5103(2)
C24_7 C 0.9724(4) 0.5433(3) 0.5320(2)
H16_7 H 0.9871 0.5183 0.5416
H19_7 H 0.9968 0.3364 0.6917
C31_7 C 0.7150(4) 0.6952(4) 0.74269(18)
C32_7 C 0.6979(3) 0.6538(4) 0.7319(2)
H21_7 H 0.6744 0.6377 0.7417
C33_7 C 0.7159(4) 0.6363(3) 0.7065(2)
H22_7 H 0.7044 0.6085 0.6993
C34_7 C 0.7510(4) 0.6603(4) 0.69187(18)
C35_7 C 0.7681(4) 0.7017(4) 0.7026(2)
H23_7 H 0.7915 0.7178 0.6928
C36_7 C 0.7501(4) 0.7192(3) 0.7280(2)
H24_7 H 0.7615 0.7470 0.7352
C37_7 C 0.8617(4) 0.5601(4) 0.57969(18)
C38_7 C 0.8183(4) 0.5417(3) 0.5897(2)
H25_7 H 0.8062 0.5142 0.5824
C39_7 C 0.7930(3) 0.5643(4) 0.6108(2)
H26_7 H 0.7640 0.5520 0.6175
C40_7 C 0.8112(4) 0.6054(4) 0.6217(2)
C41_7 C 0.8546(4) 0.6238(3) 0.6117(2)
H27_7 H 0.8667 0.6513 0.6190
C42_7 C 0.8799(3) 0.6011(4) 0.5906(2)
H28_7 H 0.9089 0.6135 0.5839
C43_7 C 0.9260(4) 0.5056(4) 0.58433(16)
C44_7 C 0.9073(3) 0.4653(4) 0.5943(2)
H29_7 H 0.8772 0.4535 0.5854
C45_7 C 0.9335(4) 0.4426(3) 0.6176(2)
H30_7 H 0.9210 0.4156 0.6243
C46_7 C 0.9784(4) 0.4602(4) 0.63099(18)
C47_7 C 0.9971(3) 0.5005(4) 0.6210(2)
C48_7 C 0.9709(5) 0.5231(3) 0.5977(2)
H32_7 H 0.9834 0.5501 0.5910
C49_7 C 0.8950(5) 0.5314(4) 0.5603(3)
C50_7 C 0.6898(6) 0.2959(5) 0.3500(3)
C53_7 C 0.6931(6) 0.7160(5) 0.7689(3)
C54_7 C 0.7902(7) 0.4228(7) 0.4692(4)
C55_7 C 0.7720(6) 0.4030(6) 0.4479(4)
C58_7 C 0.7675(6) 0.6452(7) 0.6644(4)
C59_7 C 0.7910(7) 0.6247(7) 0.6469(4)
O9_7 O 0.5408(4) 0.3116(3) 0.30025(18)
O10_7 O 0.7527(4) 0.1712(4) 0.3214(2)
O11_4 O 0.5835(4) 0.2323(4) 0.3351(2)
O12_4 O 0.6603(4) 0.1910(4) 0.3473(2)
H33_7 H 0.516114 0.295869 0.286113
H34_7 H 0.547523 0.342039 0.292603
H35_7 H 0.78409 0.186047 0.316013
H36_7 H 0.745894 0.144177 0.30888
C7_8 C 0.3629(4) 0.0007(4) 0.53754(18)
H7_8 H 0.2610 0.0019 0.4923
C12_8 C 0.3174(5) 0.0164(3) 0.5238(3)
H8_8 H 0.3044 0.0438 0.5294
C13_8 C 0.5902(4) 0.1876(4) 0.37664(19)
C14_8 C 0.5387(4) 0.1924(4) 0.3792(2)
H9_8 H 0.5184 0.2073 0.3645
C15_8 C 0.5174(3) 0.1749(4) 0.4036(3)
H10_8 H 0.4829 0.1782 0.4053
C16_8 C 0.5476(4) 0.1526(4) 0.4254(2)
C17_8 C 0.5992(4) 0.1478(4) 0.4229(2)
H11_8 H 0.6194 0.1328 0.4376
C18_8 C 0.6204(3) 0.1653(4) 0.3985(2)
H12_8 H 0.6549 0.1620 0.3968
C19_8 C 0.4258(4) 0.0589(4) 0.53928(17)
C20_8 C 0.4039(3) 0.0962(4) 0.5249(2)
H13_8 H 0.3727 0.1067 0.5298
C21_8 C 0.4286(4) 0.1179(3) 0.5032(2)
H14_8 H 0.4139 0.1428 0.4936
C22_8 C 0.4752(4) 0.1022(4) 0.49590(18)
C23_8 C 0.4971(3) 0.0649(4) 0.5103(2)
H15_8 H 0.5283 0.0544 0.5054
C24_8 C 0.4724(4) 0.0433(3) 0.5320(2)
H16_8 H 0.4871 0.0183 0.5416
C31_8 C 0.2150(4) 0.1952(4) 0.74269(18)
C32_8 C 0.1979(3) 0.1538(4) 0.7319(2)
H21_8 H 0.1744 0.1377 0.7417
C33_8 C 0.2159(4) 0.1363(3) 0.7065(2)
H22_8 H 0.2044 0.1085 0.6993
C34_8 C 0.2510(4) 0.1603(4) 0.69187(18)
C35_8 C 0.2681(4) 0.2017(4) 0.7026(2)
H23_8 H 0.2915 0.2178 0.6928
C36_8 C 0.2501(4) 0.2192(3) 0.7280(2)
H24_8 H 0.2615 0.2470 0.7352
C37_8 C 0.3617(4) 0.0601(4) 0.57969(18)
C38_8 C 0.3183(4) 0.0417(3) 0.5897(2)
H25_8 H 0.3062 0.0142 0.5824
C39_8 C 0.2930(3) 0.0643(4) 0.6108(2)
H26_8 H 0.2640 0.0520 0.6175
C40_8 C 0.3112(4) 0.1054(4) 0.6217(2)
C41_8 C 0.3546(4) 0.1238(3) 0.6117(2)
H27_8 H 0.3667 0.1513 0.6190
C42_8 C 0.3799(3) 0.1011(4) 0.5906(2)
H28_8 H 0.4089 0.1135 0.5839
C43_8 C 0.4260(4) 0.0056(4) 0.58433(16)
C47_8 C 0.4971(3) 0.0005(4) 0.6210(2)
H31_8 H 0.5271 0.0122 0.6299
C48_8 C 0.4709(5) 0.0231(3) 0.5977(2)
H32_8 H 0.4834 0.0501 0.5910
C49_8 C 0.3950(5) 0.0314(4) 0.5603(3)
C51_8 C 0.6144(6) 0.2049(5) 0.3500(3)
C53_8 C 0.1931(6) 0.2160(5) 0.7689(3)
C56_8 C 0.5040(5) 0.1183(6) 0.4722(3)
C57_8 C 0.5234(6) 0.1339(7) 0.4508(3)
C58_8 C 0.2675(6) 0.1452(7) 0.6644(4)
C59_8 C 0.2910(7) 0.1247(7) 0.6469(4)
C1_8 C 0.2099(5) 0.8248(4) 0.37472(18)
C2_8 C 0.2561(4) 0.8135(3) 0.3898(3)
H1_8 H 0.2739 0.7887 0.3839
C3_8 C 0.2757(3) 0.8394(4) 0.4136(2)
H2_8 H 0.3066 0.8319 0.4236
C4_8 C 0.2491(5) 0.8766(4) 0.42230(19)
C5_8 C 0.2029(4) 0.8879(3) 0.4072(3)
H3_8 H 0.1851 0.9127 0.4131
C6_8 C 0.1833(3) 0.8620(4) 0.3835(2)
H4_8 H 0.1524 0.8695 0.3734
O1_8 O 0.2170(4) 0.7643(4) 0.3420(2)
C8_8 C 0.3823(3) 0.9598(5) 0.5291(2)
H5_8 H 0.4127 0.9492 0.5383
C9_8 C 0.3563(5) 0.9347(3) 0.5069(3)
H6_8 H 0.3693 0.9073 0.5012
C10_8 C 0.3109(5) 0.9505(4) 0.49307(19)
C11_8 C 0.2914(3) 0.9913(5) 0.5015(2)
O2_8 O 0.1443(4) 0.8084(4) 0.3391(2)
C25_8 C 0.5869(4) 0.8352(4) 0.74503(18)
C26_8 C 0.6082(3) 0.8767(4) 0.7397(2)
H17_8 H 0.6361 0.8868 0.7517
C27_8 C 0.5877(4) 0.9031(3) 0.7164(3)
H18_8 H 0.6020 0.9309 0.7128
C28_8 C 0.5460(4) 0.8880(4) 0.69843(19)
C29_8 C 0.5247(3) 0.8465(4) 0.7038(2)
H19_8 H 0.4968 0.8364 0.6917
C30_8 C 0.5452(4) 0.8201(3) 0.7271(2)
H20_8 H 0.5309 0.7923 0.7306
C44_8 C 0.4073(3) 0.9653(4) 0.5943(2)
H29_8 H 0.3772 0.9535 0.5854
C45_8 C 0.4335(4) 0.9426(3) 0.6176(2)
H30_8 H 0.4210 0.9156 0.6243
C46_8 C 0.4784(4) 0.9602(4) 0.63099(18)
C50_8 C 0.1898(6) 0.7959(5) 0.3500(3)
C52_8 C 0.6114(6) 0.8073(5) 0.7706(3)
C54_8 C 0.2902(7) 0.9228(7) 0.4692(4)
C55_8 C 0.2720(6) 0.9030(6) 0.4479(4)
C60_8 C 0.5074(6) 0.9378(6) 0.6555(4)
C61_8 C 0.5264(7) 0.9148(6) 0.6754(4)
O9_8 O 0.0408(4) 0.8116(3) 0.30025(18)
O10_8 O 0.2527(4) 0.6712(4) 0.3214(2)
H33_8 H 0.0161141 0.795869 0.286113
H34_8 H 0.0475231 0.842039 0.292603
H35_8 H 0.28409 0.686047 0.316013
H36_8 H 0.245894 0.644177 0.30888
loop_
_geom_bond_atom_site_label_1
_geom_bond_atom_site_label_2
_geom_bond_site_symmetry_1
_geom_bond_site_symmetry_2
Cu1 Cu2 1_555 1_555
Cu2 O2 1_555 1_555
C1 C2 1_555 1_555
C2 H1 1_555 1_555
C3 C2 1_555 1_555
H2 C3 1_555 1_555
C4 C3 1_555 1_555
C5 C4 1_555 1_555
H3 C5 1_555 1_555
C6 C1 1_555 1_555
H4 C6 1_555 1_555
O1 Cu1 1_555 1_555
C7 C8 1_555 1_555
C8 H5 1_555 1_555
C9 C8 1_555 1_555
H6 C9 1_555 1_555
C10 C9 1_555 1_555
C11 C10 1_555 1_555
H7 C11 1_555 1_555
C12 C7 1_555 1_555
H8 C12 1_555 1_555
O2 C50 1_555 1_555
C19 C20 1_555 1_555
C20 H13 1_555 1_555
C21 C20 1_555 1_555
H14 C21 1_555 1_555
C22 C21 1_555 1_555
C23 C22 1_555 1_555
C24 C19 1_555 1_555
H16 C24 1_555 1_555
C31 C32 1_555 1_555
C32 H21 1_555 1_555
C33 C32 1_555 1_555
H22 C33 1_555 1_555
C34 C33 1_555 1_555
C35 C34 1_555 1_555
H23 C35 1_555 1_555
C36 C31 1_555 1_555
H24 C36 1_555 1_555
C37 C38 1_555 1_555
C38 H25 1_555 1_555
C39 C38 1_555 1_555
H26 C39 1_555 1_555
C40 C39 1_555 1_555
C41 C40 1_555 1_555
H27 C41 1_555 1_555
C42 C37 1_555 1_555
H28 C42 1_555 1_555
O7 C53 1_555 1_555
C43 C44 1_555 1_555
C44 H29 1_555 1_555
C45 C44 1_555 1_555
H30 C45 1_555 1_555
C46 C45 1_555 1_555
C47 C46 1_555 1_555
C48 C43 1_555 1_555
H32 C48 1_555 1_555
C49 C7 1_555 1_555
C50 C1 1_555 1_555
C53 C31 1_555 1_555
C54 C10 1_555 1_555
C55 C4 1_555 1_555
C58 C34 1_555 1_555
C59 C40 1_555 1_555
O8 C53 1_555 1_555
O9 Cu2 1_555 1_555
O10 Cu1 1_555 1_555
Cu5 O7 1_555 1_555
Cu8 O8 1_555 1_555
O11 Cu2 1_555 1_555
O12 Cu1 1_555 1_555
O13 Cu1 1_555 1_555
O14 Cu2 1_555 1_555
O15 Cu1 1_555 1_555
O16 Cu2 1_555 1_555
C5 C6 1_555 1_555
O1 C50 1_555 1_555
C11 C12 1_555 1_555
C19 C49 1_555 1_555
C23 C24 1_555 1_555
C35 C36 1_555 1_555
C37 C49 1_555 1_555
C41 C42 1_555 1_555
C43 C49 1_555 1_555
C47 C48 1_555 1_555
C54 C55 1_555 1_555
C58 C59 1_555 1_555
Cu5 Cu8 1_555 1_555
O9 H33 1_555 1_555
O9 H34 1_555 1_555
O10 H35 1_555 1_555
O10 H36 1_555 1_555
C13 C14 1_555 1_555
C14 H9 1_555 1_555
C15 C14 1_555 1_555
C16 C15 1_555 1_555
C17 C16 1_555 1_555
H11 C17 1_555 1_555
C18 C13 1_555 1_555
H12 C18 1_555 1_555
O3 C51 1_555 1_555
O4 C51 1_555 1_555
C25 C26 1_555 1_555
C26 H17 1_555 1_555
C27 C26 1_555 1_555
H18 C27 1_555 1_555
C28 C27 1_555 1_555
C29 C28 1_555 1_555
C30 C25 1_555 1_555
H20 C30 1_555 1_555
O5 C52 1_555 1_555
O6 C52 1_555 1_555
C51 C13 1_555 1_555
C52 C25 1_555 1_555
C57 C16 1_555 1_555
C61 C28 1_555 1_555
Cu3 O4 1_555 1_555
Cu4 O5 1_555 1_555
Cu6 O3 1_555 1_555
Cu7 O6 1_555 1_555
C17 C18 1_555 1_555
C29 C30 1_555 1_555
C56 C57 1_555 1_555
C60 C61 1_555 1_555
Cu3 Cu6 1_555 1_555
Cu4 Cu7 1_555 1_555
Cu6 O2_2 1_555 1_555
C1_2 C2_2 1_555 1_555
C2_2 H1_2 1_555 1_555
C3_2 C2_2 1_555 1_555
H2_2 C3_2 1_555 1_555
C4_2 C3_2 1_555 1_555
C5_2 C4_2 1_555 1_555
H3_2 C5_2 1_555 1_555
C6_2 C1_2 1_555 1_555
H4_2 C6_2 1_555 1_555
O1_2 Cu3 1_555 1_555
C8_2 H5_2 1_555 1_555
C9_2 C8_2 1_555 1_555
H6_2 C9_2 1_555 1_555
C10_2 C9_2 1_555 1_555
C11_2 C10_2 1_555 1_555
O2_2 C50_2 1_555 1_555
C25_2 C26_2 1_555 1_555
C26_2 H17_2 1_555 1_555
C27_2 C26_2 1_555 1_555
H18_2 C27_2 1_555 1_555
C28_2 C27_2 1_555 1_555
C29_2 C28_2 1_555 1_555
H19_2 C29_2 1_555 1_555
C30_2 C25_2 1_555 1_555
H20_2 C30_2 1_555 1_555
O5_2 C52_2 1_555 1_555
O6_2 C52_2 1_555 1_555
C44_2 H29_2 1_555 1_555
C45_2 C44_2 1_555 1_555
H30_2 C45_2 1_555 1_555
C46_2 C45_2 1_555 1_555
C50_2 C1_2 1_555 1_555
C52_2 C25_2 1_555 1_555
C54_2 C10_2 1_555 1_555
C55_2 C4_2 1_555 1_555
C60_2 C46_2 1_555 1_555
C61_2 C28_2 1_555 1_555
O9_2 Cu6 1_555 1_555
O10_2 Cu3 1_555 1_555
Cu5 O5_2 1_555 1_555
Cu8 O6_2 1_555 1_555
O13_2 Cu3 1_555 1_555
O14_2 Cu6 1_555 1_555
O15_2 Cu3 1_555 1_555
O16_2 Cu6 1_555 1_555
C5_2 C6_2 1_555 1_555
O1_2 C50_2 1_555 1_555
C29_2 C30_2 1_555 1_555
C54_2 C55_2 1_555 1_555
C60_2 C61_2 1_555 1_555
O9_2 H33_2 1_555 1_555
O9_2 H34_2 1_555 1_555
O10_2 H35_2 1_555 1_555
O10_2 H36_2 1_555 1_555
C12_2 C7_2 1_555 1_555
H8_2 C12_2 1_555 1_555
C13_2 C14_2 1_555 1_555
C14_2 H9_2 1_555 1_555
C15_2 C14_2 1_555 1_555
H10_2 C15_2 1_555 1_555
C16_2 C15_2 1_555 1_555
C17_2 C16_2 1_555 1_555
H11_2 C17_2 1_555 1_555
C18_2 C13_2 1_555 1_555
H12_2 C18_2 1_555 1_555
O11 C51_2 1_555 1_555
C19_2 C20_2 1_555 1_555
C20_2 H13_2 1_555 1_555
C21_2 C20_2 1_555 1_555
H14_2 C21_2 1_555 1_555
C22_2 C21_2 1_555 1_555
C23_2 C22_2 1_555 1_555
H15_2 C23_2 1_555 1_555
C24_2 C19_2 1_555 1_555
H16_2 C24_2 1_555 1_555
O12 C51_2 1_555 1_555
C31_2 C32_2 1_555 1_555
C32_2 H21_2 1_555 1_555
C33_2 C32_2 1_555 1_555
H22_2 C33_2 1_555 1_555
C34_2 C33_2 1_555 1_555
C35_2 C34_2 1_555 1_555
H23_2 C35_2 1_555 1_555
C36_2 C31_2 1_555 1_555
H24_2 C36_2 1_555 1_555
C37_2 C38_2 1_555 1_555
C38_2 H25_2 1_555 1_555
C39_2 C38_2 1_555 1_555
H26_2 C39_2 1_555 1_555
C40_2 C39_2 1_555 1_555
C41_2 C40_2 1_555 1_555
H27_2 C41_2 1_555 1_555
C42_2 C37_2 1_555 1_555
H28_2 C42_2 1_555 1_555
O7_2 C53_2 1_555 1_555
H31_2 C47_2 1_555 1_555
C48_2 C43_2 1_555 1_555
H32_2 C48_2 1_555 1_555
C49_2 C7_2 1_555 1_555
C51_2 C13_2 1_555 1_555
C53_2 C31_2 1_555 1_555
C56_2 C22_2 1_555 1_555
C57_2 C16_2 1_555 1_555
C58_2 C34_2 1_555 1_555
C59_2 C40_2 1_555 1_555
O8_2 C53_2 1_555 1_555
Cu4 O7_2 1_555 1_555
Cu7 O8_2 1_555 1_555
C17_2 C18_2 1_555 1_555
C19_2 C49_2 1_555 1_555
C23_2 C24_2 1_555 1_555
C35_2 C36_2 1_555 1_555
C37_2 C49_2 1_555 1_555
C41_2 C42_2 1_555 1_555
C43_2 C49_2 1_555 1_555
C47_2 C48_2 1_555 1_555
C56_2 C57_2 1_555 1_555
C58_2 C59_2 1_555 1_555
Cu8 O2_3 1_555 1_555
C1_3 C2_3 1_555 1_555
C2_3 H1_3 1_555 1_555
C3_3 C2_3 1_555 1_555
H2_3 C3_3 1_555 1_555
C4_3 C3_3 1_555 1_555
C5_3 C4_3 1_555 1_555
H3_3 C5_3 1_555 1_555
C6_3 C1_3 1_555 1_555
H4_3 C6_3 1_555 1_555
O1_3 Cu5 1_555 1_555
O2_3 C50_3 1_555 1_555
C50_3 C1_3 1_555 1_555
C54_3 C10_3 1_555 1_555
C55_3 C4_3 1_555 1_555
O9_3 Cu8 1_555 1_555
O10_3 Cu5 1_555 1_555
O11_2 Cu8 1_555 1_555
O12_2 Cu5 1_555 1_555
C5_3 C6_3 1_555 1_555
O1_3 C50_3 1_555 1_555
C54_3 C55_3 1_555 1_555
O9_3 H33_3 1_555 1_555
O9_3 H34_3 1_555 1_555
O10_3 H35_3 1_555 1_555
O10_3 H36_3 1_555 1_555
C7_3 C8_3 1_555 1_555
C8_3 H5_3 1_555 1_555
C9_3 C8_3 1_555 1_555
H6_3 C9_3 1_555 1_555
C12_3 C7_3 1_555 1_555
H8_3 C12_3 1_555 1_555
C19_3 C20_3 1_555 1_555
C20_3 H13_3 1_555 1_555
C21_3 C20_3 1_555 1_555
C24_3 C19_3 1_555 1_555
H16_3 C24_3 1_555 1_555
C31_3 C32_3 1_555 1_555
C32_3 H21_3 1_555 1_555
C33_3 C32_3 1_555 1_555
H22_3 C33_3 1_555 1_555
C34_3 C33_3 1_555 1_555
C35_3 C34_3 1_555 1_555
H23_3 C35_3 1_555 1_555
C36_3 C31_3 1_555 1_555
H24_3 C36_3 1_555 1_555
C37_3 C38_3 1_555 1_555
C38_3 H25_3 1_555 1_555
C39_3 C38_3 1_555 1_555
H26_3 C39_3 1_555 1_555
C40_3 C39_3 1_555 1_555
C41_3 C40_3 1_555 1_555
H27_3 C41_3 1_555 1_555
C42_3 C37_3 1_555 1_555
H28_3 C42_3 1_555 1_555
O15 C53_3 1_555 1_555
C43_3 C44_3 1_555 1_555
C44_3 H29_3 1_555 1_555
C45_3 C44_3 1_555 1_555
H30_3 C45_3 1_555 1_555
C46_3 C45_3 1_555 1_555
C47_3 C46_3 1_555 1_555
C48_3 C43_3 1_555 1_555
H32_3 C48_3 1_555 1_555
C49_3 C7_3 1_555 1_555
C53_3 C31_3 1_555 1_555
C58_3 C34_3 1_555 1_555
C59_3 C40_3 1_555 1_555
O16 C53_3 1_555 1_555
C11_3 C12_3 1_555 1_555
C19_3 C49_3 1_555 1_555
C23_3 C24_3 1_555 1_555
C35_3 C36_3 1_555 1_555
C37_3 C49_3 1_555 1_555
C41_3 C42_3 1_555 1_555
C43_3 C49_3 1_555 1_555
C47_3 C48_3 1_555 1_555
C58_3 C59_3 1_555 1_555
C13_3 C14_3 1_555 1_555
C14_3 H9_3 1_555 1_555
C15_3 C14_3 1_555 1_555
C16_3 C15_3 1_555 1_555
C17_3 C16_3 1_555 1_555
H11_3 C17_3 1_555 1_555
C18_3 C13_3 1_555 1_555
H12_3 C18_3 1_555 1_555
O3_2 C51_3 1_555 1_555
O4_2 C51_3 1_555 1_555
C51_3 C13_3 1_555 1_555
C57_3 C16_3 1_555 1_555
Cu4 O4_2 1_555 1_555
Cu7 O3_2 1_555 1_555
C17_3 C18_3 1_555 1_555
C56_3 C57_3 1_555 1_555
C25_3 C26_3 1_555 1_555
C26_3 H17_3 1_555 1_555
C27_3 C26_3 1_555 1_555
H18_3 C27_3 1_555 1_555
C28_3 C27_3 1_555 1_555
C29_3 C28_3 1_555 1_555
C30_3 C25_3 1_555 1_555
H20_3 C30_3 1_555 1_555
O13_2 C52_3 1_555 1_555
O14_2 C52_3 1_555 1_555
C52_3 C25_3 1_555 1_555
C61_3 C28_3 1_555 1_555
C29_3 C30_3 1_555 1_555
C60_3 C61_3 1_555 1_555
C13_4 C14_4 1_555 1_555
C14_4 H9_4 1_555 1_555
C15_4 C14_4 1_555 1_555
H10_4 C15_4 1_555 1_555
C16_4 C15_4 1_555 1_555
C17_4 C16_4 1_555 1_555
H11_4 C17_4 1_555 1_555
C18_4 C13_4 1_555 1_555
H12_4 C18_4 1_555 1_555
O11_2 C51_4 1_555 1_555
O12_2 C51_4 1_555 1_555
C51_4 C13_4 1_555 1_555
C56_4 C22_4 1_555 1_555
C57_4 C16_4 1_555 1_555
C17_4 C18_4 1_555 1_555
C56_4 C57_4 1_555 1_555
C12_4 C7_4 1_555 1_555
H8_4 C12_4 1_555 1_555
C19_4 C20_4 1_555 1_555
C20_4 H13_4 1_555 1_555
C21_4 C20_4 1_555 1_555
H15_4 C23_4 1_555 1_555
C24_4 C19_4 1_555 1_555
H16_4 C24_4 1_555 1_555
C31_4 C32_4 1_555 1_555
C32_4 H21_4 1_555 1_555
C33_4 C32_4 1_555 1_555
H22_4 C33_4 1_555 1_555
C34_4 C33_4 1_555 1_555
C35_4 C34_4 1_555 1_555
H23_4 C35_4 1_555 1_555
C36_4 C31_4 1_555 1_555
H24_4 C36_4 1_555 1_555
C37_4 C38_4 1_555 1_555
C38_4 H25_4 1_555 1_555
C39_4 C38_4 1_555 1_555
H26_4 C39_4 1_555 1_555
C40_4 C39_4 1_555 1_555
C41_4 C40_4 1_555 1_555
H27_4 C41_4 1_555 1_555
C42_4 C37_4 1_555 1_555
H28_4 C42_4 1_555 1_555
O15_2 C53_4 1_555 1_555
H31_4 C47_4 1_555 1_555
C48_4 C43_4 1_555 1_555
H32_4 C48_4 1_555 1_555
C49_4 C7_4 1_555 1_555
C53_4 C31_4 1_555 1_555
C58_4 C34_4 1_555 1_555
C59_4 C40_4 1_555 1_555
O16_2 C53_4 1_555 1_555
C19_4 C49_4 1_555 1_555
C23_4 C24_4 1_555 1_555
C35_4 C36_4 1_555 1_555
C37_4 C49_4 1_555 1_555
C41_4 C42_4 1_555 1_555
C43_4 C49_4 1_555 1_555
C47_4 C48_4 1_555 1_555
C58_4 C59_4 1_555 1_555
Cu7 O2_4 1_555 1_555
C1_4 C2_4 1_555 1_555
C2_4 H1_4 1_555 1_555
C3_4 C2_4 1_555 1_555
H2_4 C3_4 1_555 1_555
C4_4 C3_4 1_555 1_555
C5_4 C4_4 1_555 1_555
H3_4 C5_4 1_555 1_555
C6_4 C1_4 1_555 1_555
H4_4 C6_4 1_555 1_555
O1_4 Cu4 1_555 1_555
O2_4 C50_4 1_555 1_555
C50_4 C1_4 1_555 1_555
C54_4 C10_4 1_555 1_555
C55_4 C4_4 1_555 1_555
O9_4 Cu7 1_555 1_555
O10_4 Cu4 1_555 1_555
C5_4 C6_4 1_555 1_555
O1_4 C50_4 1_555 1_555
C54_4 C55_4 1_555 1_555
O9_4 H33_4 1_555 1_555
O9_4 H34_4 1_555 1_555
O10_4 H35_4 1_555 1_555
O10_4 H36_4 1_555 1_555
C8_4 H5_4 1_555 1_555
C9_4 C8_4 1_555 1_555
H6_4 C9_4 1_555 1_555
C25_4 C26_4 1_555 1_555
C26_4 H17_4 1_555 1_555
C27_4 C26_4 1_555 1_555
H18_4 C27_4 1_555 1_555
C28_4 C27_4 1_555 1_555
C29_4 C28_4 1_555 1_555
H19_4 C29_4 1_555 1_555
C30_4 C25_4 1_555 1_555
H20_4 C30_4 1_555 1_555
O13 C52_4 1_555 1_555
O14 C52_4 1_555 1_555
C44_4 H29_4 1_555 1_555
C45_4 C44_4 1_555 1_555
H30_4 C45_4 1_555 1_555
C46_4 C45_4 1_555 1_555
C52_4 C25_4 1_555 1_555
C60_4 C46_4 1_555 1_555
C61_4 C28_4 1_555 1_555
C29_4 C30_4 1_555 1_555
C60_4 C61_4 1_555 1_555
C25_5 C26_5 1_555 1_555
C26_5 H17_5 1_555 1_555
C27_5 C26_5 1_555 1_555
H18_5 C27_5 1_555 1_555
C28_5 C27_5 1_555 1_555
C29_5 C28_5 1_555 1_555
C30_5 C25_5 1_555 1_555
H20_5 C30_5 1_555 1_555
O5_3 C52_5 1_555 1_555
O6_3 C52_5 1_555 1_555
C52_5 C25_5 1_555 1_555
C61_5 C28_5 1_555 1_555
Cu4_2 O5_3 1_555 1_555
Cu7_2 O6_3 1_555 1_555
C29_5 C30_5 1_555 1_555
C60_5 C61_5 1_555 1_555
Cu4_2 Cu7_2 1_555 1_555
C13_5 C14_5 1_555 1_555
C14_5 H9_5 1_555 1_555
C15_5 C14_5 1_555 1_555
C16_5 C15_5 1_555 1_555
C17_5 C16_5 1_555 1_555
H11_5 C17_5 1_555 1_555
C18_5 C13_5 1_555 1_555
H12_5 C18_5 1_555 1_555
O3_3 C51_5 1_555 1_555
O4_3 C51_5 1_555 1_555
C51_5 C13_5 1_555 1_555
C57_5 C16_5 1_555 1_555
Cu3_2 O4_3 1_555 1_555
Cu6_2 O3_3 1_555 1_555
C17_5 C18_5 1_555 1_555
C56_5 C57_5 1_555 1_555
Cu3_2 Cu6_2 1_555 1_555
C7_5 C8_5 1_555 1_555
C8_5 H5_5 1_555 1_555
C9_5 C8_5 1_555 1_555
H6_5 C9_5 1_555 1_555
C12_5 C7_5 1_555 1_555
H8_5 C12_5 1_555 1_555
C19_5 C20_5 1_555 1_555
C20_5 H13_5 1_555 1_555
C21_5 C20_5 1_555 1_555
C24_5 C19_5 1_555 1_555
H16_5 C24_5 1_555 1_555
C31_5 C32_5 1_555 1_555
C32_5 H21_5 1_555 1_555
C33_5 C32_5 1_555 1_555
H22_5 C33_5 1_555 1_555
C34_5 C33_5 1_555 1_555
C35_5 C34_5 1_555 1_555
H23_5 C35_5 1_555 1_555
C36_5 C31_5 1_555 1_555
H24_5 C36_5 1_555 1_555
C37_5 C38_5 1_555 1_555
C38_5 H25_5 1_555 1_555
C39_5 C38_5 1_555 1_555
H26_5 C39_5 1_555 1_555
C40_5 C39_5 1_555 1_555
C41_5 C40_5 1_555 1_555
H27_5 C41_5 1_555 1_555
C42_5 C37_5 1_555 1_555
H28_5 C42_5 1_555 1_555
O7_3 C53_5 1_555 1_555
C43_5 C44_5 1_555 1_555
C44_5 H29_5 1_555 1_555
C45_5 C44_5 1_555 1_555
H30_5 C45_5 1_555 1_555
C46_5 C45_5 1_555 1_555
C47_5 C46_5 1_555 1_555
C48_5 C43_5 1_555 1_555
H32_5 C48_5 1_555 1_555
C49_5 C7_5 1_555 1_555
C53_5 C31_5 1_555 1_555
C58_5 C34_5 1_555 1_555
C59_5 C40_5 1_555 1_555
O8_3 C53_5 1_555 1_555
Cu5_2 O7_3 1_555 1_555
Cu8_2 O8_3 1_555 1_555
C11_5 C12_5 1_555 1_555
C19_5 C49_5 1_555 1_555
C23_5 C24_5 1_555 1_555
C35_5 C36_5 1_555 1_555
C37_5 C49_5 1_555 1_555
C41_5 C42_5 1_555 1_555
C43_5 C49_5 1_555 1_555
C47_5 C48_5 1_555 1_555
C58_5 C59_5 1_555 1_555
Cu5_2 Cu8_2 1_555 1_555
Cu1_2 Cu2_2 1_555 1_555
Cu2_2 O2_5 1_555 1_555
C1_5 C2_5 1_555 1_555
C2_5 H1_5 1_555 1_555
C3_5 C2_5 1_555 1_555
H2_5 C3_5 1_555 1_555
C4_5 C3_5 1_555 1_555
C5_5 C4_5 1_555 1_555
H3_5 C5_5 1_555 1_555
C6_5 C1_5 1_555 1_555
H4_5 C6_5 1_555 1_555
O1_5 Cu1_2 1_555 1_555
O2_5 C50_5 1_555 1_555
C50_5 C1_5 1_555 1_555
C54_5 C10_5 1_555 1_555
C55_5 C4_5 1_555 1_555
O9_5 Cu2_2 1_555 1_555
O10_5 Cu1_2 1_555 1_555
O11_3 Cu2_2 1_555 1_555
O12_3 Cu1_2 1_555 1_555
O13_3 Cu1_2 1_555 1_555
O14_3 Cu2_2 1_555 1_555
O15_3 Cu1_2 1_555 1_555
O16_3 Cu2_2 1_555 1_555
C5_5 C6_5 1_555 1_555
O1_5 C50_5 1_555 1_555
C54_5 C55_5 1_555 1_555
O9_5 H33_5 1_555 1_555
O9_5 H34_5 1_555 1_555
O10_5 H35_5 1_555 1_555
O10_5 H36_5 1_555 1_555
C8_6 H5_6 1_555 1_555
C9_6 C8_6 1_555 1_555
H6_6 C9_6 1_555 1_555
C25_6 C26_6 1_555 1_555
C26_6 H17_6 1_555 1_555
C27_6 C26_6 1_555 1_555
H18_6 C27_6 1_555 1_555
C28_6 C27_6 1_555 1_555
C29_6 C28_6 1_555 1_555
H19_6 C29_6 1_555 1_555
C30_6 C25_6 1_555 1_555
H20_6 C30_6 1_555 1_555
O5_4 C52_6 1_555 1_555
O6_4 C52_6 1_555 1_555
C44_6 H29_6 1_555 1_555
C45_6 C44_6 1_555 1_555
H30_6 C45_6 1_555 1_555
C46_6 C45_6 1_555 1_555
C52_6 C25_6 1_555 1_555
C60_6 C46_6 1_555 1_555
C61_6 C28_6 1_555 1_555
Cu5_2 O5_4 1_555 1_555
Cu8_2 O6_4 1_555 1_555
C29_6 C30_6 1_555 1_555
C60_6 C61_6 1_555 1_555
Cu6_2 O2_6 1_555 1_555
C1_6 C2_6 1_555 1_555
C2_6 H1_6 1_555 1_555
C3_6 C2_6 1_555 1_555
H2_6 C3_6 1_555 1_555
C4_6 C3_6 1_555 1_555
C5_6 C4_6 1_555 1_555
H3_6 C5_6 1_555 1_555
C6_6 C1_6 1_555 1_555
H4_6 C6_6 1_555 1_555
O1_6 Cu3_2 1_555 1_555
O2_6 C50_6 1_555 1_555
C50_6 C1_6 1_555 1_555
C54_6 C10_6 1_555 1_555
C55_6 C4_6 1_555 1_555
O9_6 Cu6_2 1_555 1_555
O10_6 Cu3_2 1_555 1_555
O13_4 Cu3_2 1_555 1_555
O14_4 Cu6_2 1_555 1_555
O15_4 Cu3_2 1_555 1_555
O16_4 Cu6_2 1_555 1_555
C5_6 C6_6 1_555 1_555
O1_6 C50_6 1_555 1_555
C54_6 C55_6 1_555 1_555
O9_6 H33_6 1_555 1_555
O9_6 H34_6 1_555 1_555
O10_6 H35_6 1_555 1_555
O10_6 H36_6 1_555 1_555
C12_6 C7_6 1_555 1_555
H8_6 C12_6 1_555 1_555
C19_6 C20_6 1_555 1_555
C20_6 H13_6 1_555 1_555
C21_6 C20_6 1_555 1_555
H15_6 C23_6 1_555 1_555
C24_6 C19_6 1_555 1_555
H16_6 C24_6 1_555 1_555
C31_6 C32_6 1_555 1_555
C32_6 H21_6 1_555 1_555
C33_6 C32_6 1_555 1_555
H22_6 C33_6 1_555 1_555
C34_6 C33_6 1_555 1_555
C35_6 C34_6 1_555 1_555
H23_6 C35_6 1_555 1_555
C36_6 C31_6 1_555 1_555
H24_6 C36_6 1_555 1_555
C37_6 C38_6 1_555 1_555
C38_6 H25_6 1_555 1_555
C39_6 C38_6 1_555 1_555
H26_6 C39_6 1_555 1_555
C40_6 C39_6 1_555 1_555
C41_6 C40_6 1_555 1_555
H27_6 C41_6 1_555 1_555
C42_6 C37_6 1_555 1_555
H28_6 C42_6 1_555 1_555
O7_4 C53_6 1_555 1_555
H31_6 C47_6 1_555 1_555
C48_6 C43_6 1_555 1_555
H32_6 C48_6 1_555 1_555
C49_6 C7_6 1_555 1_555
C53_6 C31_6 1_555 1_555
C58_6 C34_6 1_555 1_555
C59_6 C40_6 1_555 1_555
O8_4 C53_6 1_555 1_555
Cu4_2 O7_4 1_555 1_555
Cu7_2 O8_4 1_555 1_555
C19_6 C49_6 1_555 1_555
C23_6 C24_6 1_555 1_555
C35_6 C36_6 1_555 1_555
C37_6 C49_6 1_555 1_555
C41_6 C42_6 1_555 1_555
C43_6 C49_6 1_555 1_555
C47_6 C48_6 1_555 1_555
C58_6 C59_6 1_555 1_555
C13_6 C14_6 1_555 1_555
C14_6 H9_6 1_555 1_555
C15_6 C14_6 1_555 1_555
H10_6 C15_6 1_555 1_555
C16_6 C15_6 1_555 1_555
C17_6 C16_6 1_555 1_555
H11_6 C17_6 1_555 1_555
C18_6 C13_6 1_555 1_555
H12_6 C18_6 1_555 1_555
O11_3 C51_6 1_555 1_555
O12_3 C51_6 1_555 1_555
C51_6 C13_6 1_555 1_555
C56_6 C22_6 1_555 1_555
C57_6 C16_6 1_555 1_555
C17_6 C18_6 1_555 1_555
C56_6 C57_6 1_555 1_555
C13_7 C14_7 1_555 1_555
C14_7 H9_7 1_555 1_555
C15_7 C14_7 1_555 1_555
C16_7 C15_7 1_555 1_555
C17_7 C16_7 1_555 1_555
H11_7 C17_7 1_555 1_555
C18_7 C13_7 1_555 1_555
H12_7 C18_7 1_555 1_555
O3_4 C51_7 1_555 1_555
O4_4 C51_7 1_555 1_555
C25_7 C26_7 1_555 1_555
C26_7 H17_7 1_555 1_555
C27_7 C26_7 1_555 1_555
H18_7 C27_7 1_555 1_555
C28_7 C27_7 1_555 1_555
C29_7 C28_7 1_555 1_555
C30_7 C25_7 1_555 1_555
H20_7 C30_7 1_555 1_555
O13_4 C52_7 1_555 1_555
O14_4 C52_7 1_555 1_555
C51_7 C13_7 1_555 1_555
C52_7 C25_7 1_555 1_555
C57_7 C16_7 1_555 1_555
C61_7 C28_7 1_555 1_555
Cu4_2 O4_4 1_555 1_555
Cu7_2 O3_4 1_555 1_555
C17_7 C18_7 1_555 1_555
C29_7 C30_7 1_555 1_555
C56_7 C57_7 1_555 1_555
C60_7 C61_7 1_555 1_555
Cu8_2 O2_7 1_555 1_555
C1_7 C2_7 1_555 1_555
C2_7 H1_7 1_555 1_555
C3_7 C2_7 1_555 1_555
H2_7 C3_7 1_555 1_555
C4_7 C3_7 1_555 1_555
C5_7 C4_7 1_555 1_555
H3_7 C5_7 1_555 1_555
C6_7 C1_7 1_555 1_555
H4_7 C6_7 1_555 1_555
O1_7 Cu5_2 1_555 1_555
C7_7 C8_7 1_555 1_555
C8_7 H5_7 1_555 1_555
C9_7 C8_7 1_555 1_555
H6_7 C9_7 1_555 1_555
C10_7 C9_7 1_555 1_555
C11_7 C10_7 1_555 1_555
H7_7 C11_7 1_555 1_555
C12_7 C7_7 1_555 1_555
H8_7 C12_7 1_555 1_555
O2_7 C50_7 1_555 1_555
C19_7 C20_7 1_555 1_555
C20_7 H13_7 1_555 1_555
C21_7 C20_7 1_555 1_555
H14_7 C21_7 1_555 1_555
C22_7 C21_7 1_555 1_555
C23_7 C22_7 1_555 1_555
C24_7 C19_7 1_555 1_555
H16_7 C24_7 1_555 1_555
C31_7 C32_7 1_555 1_555
C32_7 H21_7 1_555 1_555
C33_7 C32_7 1_555 1_555
H22_7 C33_7 1_555 1_555
C34_7 C33_7 1_555 1_555
C35_7 C34_7 1_555 1_555
H23_7 C35_7 1_555 1_555
C36_7 C31_7 1_555 1_555
H24_7 C36_7 1_555 1_555
C37_7 C38_7 1_555 1_555
C38_7 H25_7 1_555 1_555
C39_7 C38_7 1_555 1_555
H26_7 C39_7 1_555 1_555
C40_7 C39_7 1_555 1_555
C41_7 C40_7 1_555 1_555
H27_7 C41_7 1_555 1_555
C42_7 C37_7 1_555 1_555
H28_7 C42_7 1_555 1_555
O15_3 C53_7 1_555 1_555
C43_7 C44_7 1_555 1_555
C44_7 H29_7 1_555 1_555
C45_7 C44_7 1_555 1_555
H30_7 C45_7 1_555 1_555
C46_7 C45_7 1_555 1_555
C47_7 C46_7 1_555 1_555
C48_7 C43_7 1_555 1_555
H32_7 C48_7 1_555 1_555
C49_7 C7_7 1_555 1_555
C50_7 C1_7 1_555 1_555
C53_7 C31_7 1_555 1_555
C54_7 C10_7 1_555 1_555
C55_7 C4_7 1_555 1_555
C58_7 C34_7 1_555 1_555
C59_7 C40_7 1_555 1_555
O16_3 C53_7 1_555 1_555
O9_7 Cu8_2 1_555 1_555
O10_7 Cu5_2 1_555 1_555
O11_4 Cu8_2 1_555 1_555
O12_4 Cu5_2 1_555 1_555
C5_7 C6_7 1_555 1_555
O1_7 C50_7 1_555 1_555
C11_7 C12_7 1_555 1_555
C19_7 C49_7 1_555 1_555
C23_7 C24_7 1_555 1_555
C35_7 C36_7 1_555 1_555
C37_7 C49_7 1_555 1_555
C41_7 C42_7 1_555 1_555
C43_7 C49_7 1_555 1_555
C47_7 C48_7 1_555 1_555
C54_7 C55_7 1_555 1_555
C58_7 C59_7 1_555 1_555
O9_7 H33_7 1_555 1_555
O9_7 H34_7 1_555 1_555
O10_7 H35_7 1_555 1_555
O10_7 H36_7 1_555 1_555
C12_8 C7_8 1_555 1_555
H8_8 C12_8 1_555 1_555
C13_8 C14_8 1_555 1_555
C14_8 H9_8 1_555 1_555
C15_8 C14_8 1_555 1_555
H10_8 C15_8 1_555 1_555
C16_8 C15_8 1_555 1_555
C17_8 C16_8 1_555 1_555
H11_8 C17_8 1_555 1_555
C18_8 C13_8 1_555 1_555
H12_8 C18_8 1_555 1_555
O11_4 C51_8 1_555 1_555
C19_8 C20_8 1_555 1_555
C20_8 H13_8 1_555 1_555
C21_8 C20_8 1_555 1_555
H14_8 C21_8 1_555 1_555
C22_8 C21_8 1_555 1_555
C23_8 C22_8 1_555 1_555
H15_8 C23_8 1_555 1_555
C24_8 C19_8 1_555 1_555
H16_8 C24_8 1_555 1_555
O12_4 C51_8 1_555 1_555
C31_8 C32_8 1_555 1_555
C32_8 H21_8 1_555 1_555
C33_8 C32_8 1_555 1_555
H22_8 C33_8 1_555 1_555
C34_8 C33_8 1_555 1_555
C35_8 C34_8 1_555 1_555
H23_8 C35_8 1_555 1_555
C36_8 C31_8 1_555 1_555
H24_8 C36_8 1_555 1_555
C37_8 C38_8 1_555 1_555
C38_8 H25_8 1_555 1_555
C39_8 C38_8 1_555 1_555
H26_8 C39_8 1_555 1_555
C40_8 C39_8 1_555 1_555
C41_8 C40_8 1_555 1_555
H27_8 C41_8 1_555 1_555
C42_8 C37_8 1_555 1_555
H28_8 C42_8 1_555 1_555
O15_4 C53_8 1_555 1_555
H31_8 C47_8 1_555 1_555
C48_8 C43_8 1_555 1_555
H32_8 C48_8 1_555 1_555
C49_8 C7_8 1_555 1_555
C51_8 C13_8 1_555 1_555
C53_8 C31_8 1_555 1_555
C56_8 C22_8 1_555 1_555
C57_8 C16_8 1_555 1_555
C58_8 C34_8 1_555 1_555
C59_8 C40_8 1_555 1_555
O16_4 C53_8 1_555 1_555
C17_8 C18_8 1_555 1_555
C19_8 C49_8 1_555 1_555
C23_8 C24_8 1_555 1_555
C35_8 C36_8 1_555 1_555
C37_8 C49_8 1_555 1_555
C41_8 C42_8 1_555 1_555
C43_8 C49_8 1_555 1_555
C47_8 C48_8 1_555 1_555
C56_8 C57_8 1_555 1_555
C58_8 C59_8 1_555 1_555
Cu7_2 O2_8 1_555 1_555
C1_8 C2_8 1_555 1_555
C2_8 H1_8 1_555 1_555
C3_8 C2_8 1_555 1_555
H2_8 C3_8 1_555 1_555
C4_8 C3_8 1_555 1_555
C5_8 C4_8 1_555 1_555
H3_8 C5_8 1_555 1_555
C6_8 C1_8 1_555 1_555
H4_8 C6_8 1_555 1_555
O1_8 Cu4_2 1_555 1_555
C8_8 H5_8 1_555 1_555
C9_8 C8_8 1_555 1_555
H6_8 C9_8 1_555 1_555
C10_8 C9_8 1_555 1_555
C11_8 C10_8 1_555 1_555
O2_8 C50_8 1_555 1_555
C25_8 C26_8 1_555 1_555
C26_8 H17_8 1_555 1_555
C27_8 C26_8 1_555 1_555
H18_8 C27_8 1_555 1_555
C28_8 C27_8 1_555 1_555
C29_8 C28_8 1_555 1_555
H19_8 C29_8 1_555 1_555
C30_8 C25_8 1_555 1_555
H20_8 C30_8 1_555 1_555
O13_3 C52_8 1_555 1_555
O14_3 C52_8 1_555 1_555
C44_8 H29_8 1_555 1_555
C45_8 C44_8 1_555 1_555
H30_8 C45_8 1_555 1_555
C46_8 C45_8 1_555 1_555
C50_8 C1_8 1_555 1_555
C52_8 C25_8 1_555 1_555
C54_8 C10_8 1_555 1_555
C55_8 C4_8 1_555 1_555
C60_8 C46_8 1_555 1_555
C61_8 C28_8 1_555 1_555
O9_8 Cu7_2 1_555 1_555
O10_8 Cu4_2 1_555 1_555
C5_8 C6_8 1_555 1_555
O1_8 C50_8 1_555 1_555
C29_8 C30_8 1_555 1_555
C54_8 C55_8 1_555 1_555
C60_8 C61_8 1_555 1_555
O9_8 H33_8 1_555 1_555
O9_8 H34_8 1_555 1_555
O10_8 H35_8 1_555 1_555
O10_8 H36_8 1_555 1_555

#END
