
###############################################################################
#
# This file contains modified crystal structure data generated from the
# MOF subset of the Cambridge Structural Database (CSD) v543 
# hosted by the Cambridge Crystallographic Data Centre (CCDC).
#
# This work is licensed under the Creative Commons
# Attribution-NonCommercial-ShareAlike 4.0 International License.
# To view a copy of this license, visit
# http://creativecommons.org/licenses/by-nc-sa/4.0/
# or send a letter to
# Creative Commons, PO Box 1866, Mountain View, CA 94042, USA.
#
# CIF created using the CSD Python API on 29 September 2022
# The structure has been converted into the P1 space group
# The structure has a 3D framework
# The original CSD entry OWUBUG is in the triclinic crystal system
# The framework has been calculated to contain at least 10.0% void space
# The void calculation uses a probe of radius 1.32A, grid spacing 0.4
#
###############################################################################

data_OWUBUG
_chemical_formula_moiety         '(C66 H42 N4 O21 Zn4)n'
_symmetry_cell_setting           triclinic
_symmetry_space_group_name_H-M   'P 1'
_symmetry_Int_Tables_number      1
_space_group_name_Hall           'P 1'
loop_
_symmetry_equiv_pos_site_id
_symmetry_equiv_pos_as_xyz
1 x,y,z
_cell_length_a                   9.7768(5)
_cell_length_b                   11.3448(4)
_cell_length_c                   16.8602(5)
_cell_angle_alpha                103.023(3)
_cell_angle_beta                 105.275(4)
_cell_angle_gamma                95.604(3)
_cell_volume                     1732.9
loop_
_atom_site_label
_atom_site_type_symbol
_atom_site_fract_x
_atom_site_fract_y
_atom_site_fract_z
H3 H 0.0163 0.7871 0.2116
Zn2 Zn -0.0000 -0.0000 0.5000
O23 O 0.0167(3) 0.1234(3) 0.4207(2)
O28 O 0.1682(3) 0.1314(3) 0.6033(2)
Zn2_2 Zn 1.0000 1.0000 0.5000
O4 O 0.9833(3) 0.8766(3) 0.5793(2)
O6 O 0.9678(4) 0.6754(3) 0.9391(2)
C20 C 0.9995(5) 0.6482(4) 0.8015(3)
C21 C 0.9520(5) 0.7575(4) 0.7919(3)
H15 H 0.9234 0.8059 0.8350
C22 C 0.9472(5) 0.7941(4) 0.7188(3)
H16 H 0.9149 0.8669 0.7127
C23 C 0.9912(5) 0.7215(4) 0.6531(3)
O7 O 0.2406(3) 0.4932(3) 0.0408(2)
O8 O 0.1624(3) 0.6627(3) 0.0970(2)
O9 O 0.9123(3) 0.7010(3) 0.3402(2)
O10 O 0.8318(3) 0.8686(3) 0.3967(2)
C26 C 0.5216(5) 0.5875(4) 0.1450(3)
H17 H 0.5113 0.5252 0.0963
C27 C 0.6541(5) 0.6257(4) 0.2066(3)
H18 H 0.7319 0.5881 0.1994
C28 C 0.6711(5) 0.7203(4) 0.2792(3)
C29 C 0.5527(5) 0.7752(4) 0.2896(3)
H19 H 0.5635 0.8380 0.3381
C30 C 0.4209(5) 0.7374(4) 0.2292(3)
H20 H 0.3430 0.7748 0.2368
C31 C 0.4037(5) 0.6422(4) 0.1559(3)
C32 C 0.2577(5) 0.5963(4) 0.0929(3)
C33 C 0.8164(5) 0.7670(4) 0.3449(3)
O27 O 0.0322(4) 0.3246(3) 0.0609(2)
C53 C 0.0005(5) 0.3518(4) 0.1985(3)
C54 C 0.0480(5) 0.2425(4) 0.2081(3)
H36 H 0.0766 0.1941 0.1650
C55 C 0.0528(5) 0.2059(4) 0.2812(3)
H37 H 0.0851 0.1331 0.2873
C56 C 0.0088(5) 0.2785(4) 0.3469(3)
O18 O 0.7594(3) 0.5068(3) 0.9592(2)
O19 O 0.8376(3) 0.3373(3) 0.9030(2)
O20 O 0.0877(3) 0.2990(3) 0.6598(2)
C59 C 0.4784(5) 0.4125(4) 0.8550(3)
H38 H 0.4887 0.4748 0.9037
C60 C 0.3459(5) 0.3743(4) 0.7934(3)
H39 H 0.2681 0.4119 0.8006
C61 C 0.3289(5) 0.2797(4) 0.7208(3)
C62 C 0.4473(5) 0.2248(4) 0.7104(3)
H40 H 0.4365 0.1620 0.6619
C63 C 0.5791(5) 0.2626(4) 0.7708(3)
H41 H 0.6570 0.2252 0.7632
C64 C 0.5963(5) 0.3578(4) 0.8441(3)
C65 C 0.7423(5) 0.4037(4) 0.9071(3)
C66 C 0.1836(5) 0.2330(4) 0.6551(3)
Zn2_3 Zn -0.0000 1.0000 0.5000
Zn3 Zn 0.10012(6) 0.75153(5) 0.42923(3)
O1 O 0.2266(3) 0.6528(3) 0.3860(2)
O2 O 0.4260(4) 0.7453(3) 0.4922(2)
N2 N 0.6145(4) 0.2641(4) 0.2916(2)
C6 C 0.7104(5) 0.0585(4) 0.2196(3)
C7 C 0.6745(5) 0.1462(4) 0.1745(3)
H5 H 0.6817 0.1351 0.1194
C8 C 0.6286(5) 0.2491(4) 0.2126(3)
H6 H 0.6071 0.3089 0.1837
C9 C 0.6469(5) 0.1808(4) 0.3361(3)
H7 H 0.6353 0.1929 0.3902
C10 C 0.6974(5) 0.0773(4) 0.3019(3)
H8 H 0.7224 0.0209 0.3334
C11 C 0.5562(5) 0.3701(4) 0.3266(3)
C12 C 0.4211(5) 0.3846(5) 0.2796(3)
H9 H 0.3727 0.3294 0.2274
C13 C 0.3608(5) 0.4822(5) 0.3121(3)
H10 H 0.2702 0.4926 0.2821
C14 C 0.4349(5) 0.5651(4) 0.3894(3)
C15 C 0.5711(5) 0.5521(4) 0.4341(3)
H11 H 0.6212 0.6096 0.4850
C16 C 0.6328(5) 0.4532(4) 0.4030(3)
H12 H 0.7236 0.4431 0.4329
C17 C 0.3597(5) 0.6650(4) 0.4269(3)
O3 O 0.0557(4) 0.7013(3) 0.52573(19)
O5 O 0.0467(4) 0.5058(3) 0.8837(2)
C18 C 0.0314(5) 0.6094(4) 0.6619(3)
H13 H 0.0561 0.5588 0.6180
C19 C 0.0349(5) 0.5730(4) 0.7348(3)
H14 H 0.0610 0.4977 0.7396
C24 C 0.0084(5) 0.7707(4) 0.5799(3)
C25 C 0.0054(5) 0.6069(4) 0.8808(3)
O11 O 0.1573(4) 0.9258(3) 0.4659(2)
H21 H 0.2446 0.9686 0.4674
Zn11 Zn 0.05169(5) 0.39101(5) 0.96087(3)
N6 N 0.1314(4) 0.2506(3) 0.8992(2)
C34 C 0.3043(5) 0.1164(5) 0.9058(3)
H22 H 0.3859 0.0937 0.9373
C35 C 0.2488(5) 0.2145(5) 0.9416(3)
H23 H 0.2950 0.2577 0.9978
C36 C 0.0658(5) 0.1884(4) 0.8179(3)
C37 C 0.1146(5) 0.0899(4) 0.7763(3)
H25 H 0.0675 0.0500 0.7195
C38 C 0.2357(5) 0.0508(4) 0.8206(3)
N1 N 0.8686(4) 0.7494(3) 0.1008(2)
C1 C 0.6957(5) 0.8836(5) 0.0942(3)
H1 H 0.6141 0.9063 0.0627
C2 C 0.7512(5) 0.7855(5) 0.0584(3)
H2 H 0.7050 0.7423 0.0022
C3 C 0.9342(5) 0.8116(4) 0.1821(3)
C4 C 0.8854(5) 0.9101(4) 0.2237(3)
H4 H 0.9325 0.9500 0.2805
C5 C 0.7643(5) 0.9492(4) 0.1794(3)
Zn8 Zn 0.94831(5) 0.60899(5) 0.03913(3)
Zn2_4 Zn 1.0000 -0.0000 0.5000
O29 O 0.8427(4) 0.0742(3) 0.5341(2)
O25 O 0.9533(4) 0.4942(3) 0.1163(2)
Zn5 Zn 0.89988(6) 0.24847(5) 0.57077(3)
O12 O 0.7734(3) 0.3472(3) 0.6140(2)
O13 O 0.5740(4) 0.2547(3) 0.5078(2)
N4 N 0.3855(4) 0.7359(4) 0.7084(2)
C39 C 0.2896(5) 0.9415(4) 0.7804(3)
C40 C 0.3255(5) 0.8538(4) 0.8255(3)
H26 H 0.3183 0.8649 0.8806
C41 C 0.3714(5) 0.7509(4) 0.7874(3)
H27 H 0.3929 0.6911 0.8163
C42 C 0.3531(5) 0.8192(4) 0.6639(3)
H28 H 0.3647 0.8071 0.6098
C43 C 0.3026(5) 0.9227(4) 0.6981(3)
H29 H 0.2776 0.9791 0.6666
C44 C 0.4438(5) 0.6299(4) 0.6734(3)
C45 C 0.5789(5) 0.6154(5) 0.7204(3)
H30 H 0.6273 0.6706 0.7726
C46 C 0.6392(5) 0.5178(5) 0.6879(3)
H31 H 0.7298 0.5074 0.7179
C47 C 0.5651(5) 0.4349(4) 0.6106(3)
C48 C 0.4289(5) 0.4479(4) 0.5659(3)
H32 H 0.3788 0.3904 0.5150
C49 C 0.3672(5) 0.5468(4) 0.5970(3)
H33 H 0.2764 0.5569 0.5671
C50 C 0.6403(5) 0.3350(4) 0.5731(3)
O14 O 0.9443(4) 0.2987(3) 0.47427(19)
C51 C 0.9686(5) 0.3906(4) 0.3381(3)
H34 H 0.9439 0.4412 0.3820
C52 C 0.9651(5) 0.4270(4) 0.2652(3)
H35 H 0.9390 0.5023 0.2604
C57 C 0.9916(5) 0.2293(4) 0.4201(3)
C58 C 0.9946(5) 0.3931(4) 0.1192(3)
H42 H 0.7554 0.0314 0.5326
H24 H 0.9837 0.2129 0.7884
loop_
_geom_bond_atom_site_label_1
_geom_bond_atom_site_label_2
_geom_bond_site_symmetry_1
_geom_bond_site_symmetry_2
O23 Zn2 1_555 1_555
O28 Zn2 1_555 1_555
Zn2_2 O4 1_555 1_555
C21 C20 1_555 1_555
H15 C21 1_555 1_555
C22 C21 1_555 1_555
H16 C22 1_555 1_555
O7 C32 1_555 1_555
O8 C32 1_555 1_555
O10 Zn2_2 1_555 1_555
C26 H17 1_555 1_555
C27 C26 1_555 1_555
H18 C27 1_555 1_555
C28 C27 1_555 1_555
C29 C28 1_555 1_555
H19 C29 1_555 1_555
C30 C29 1_555 1_555
H20 C30 1_555 1_555
C31 C26 1_555 1_555
C32 C31 1_555 1_555
C33 O9 1_555 1_555
C22 C23 1_555 1_555
O10 C33 1_555 1_555
C28 C33 1_555 1_555
C30 C31 1_555 1_555
C54 C53 1_555 1_555
H36 C54 1_555 1_555
C55 C54 1_555 1_555
H37 C55 1_555 1_555
O28 C66 1_555 1_555
C59 H38 1_555 1_555
C60 C59 1_555 1_555
H39 C60 1_555 1_555
C61 C60 1_555 1_555
C62 C61 1_555 1_555
H40 C62 1_555 1_555
C63 C62 1_555 1_555
H41 C63 1_555 1_555
C64 C59 1_555 1_555
C65 O18 1_555 1_555
C66 O20 1_555 1_555
C55 C56 1_555 1_555
O19 C65 1_555 1_555
C61 C66 1_555 1_555
C63 C64 1_555 1_555
C64 C65 1_555 1_555
Zn3 O1 1_555 1_555
O1 C17 1_555 1_555
O2 C17 1_555 1_555
N2 C8 1_555 1_555
C7 C6 1_555 1_555
H5 C7 1_555 1_555
C8 C7 1_555 1_555
H6 C8 1_555 1_555
C9 N2 1_555 1_555
H7 C9 1_555 1_555
C10 C6 1_555 1_555
H8 C10 1_555 1_555
C11 N2 1_555 1_555
C12 C11 1_555 1_555
H9 C12 1_555 1_555
C13 C12 1_555 1_555
H10 C13 1_555 1_555
C14 C13 1_555 1_555
C15 C14 1_555 1_555
H11 C15 1_555 1_555
C16 C11 1_555 1_555
H12 C16 1_555 1_555
C17 C14 1_555 1_555
O3 Zn3 1_555 1_555
O5 C25 1_555 1_555
C18 H13 1_555 1_555
C19 C18 1_555 1_555
H14 C19 1_555 1_555
C24 O3 1_555 1_555
O11 Zn2_3 1_555 1_555
H21 O11 1_555 1_555
Zn11 O5 1_555 1_555
Zn3 O11 1_555 1_555
C9 C10 1_555 1_555
C15 C16 1_555 1_555
N6 Zn11 1_555 1_555
N6 C35 1_555 1_555
C34 H22 1_555 1_555
C35 C34 1_555 1_555
H23 C35 1_555 1_555
C36 N6 1_555 1_555
C37 C36 1_555 1_555
H25 C37 1_555 1_555
C38 C34 1_555 1_555
C37 C38 1_555 1_555
N1 C2 1_555 1_555
C1 H1 1_555 1_555
C2 C1 1_555 1_555
H2 C2 1_555 1_555
C3 N1 1_555 1_555
C4 C3 1_555 1_555
H4 C4 1_555 1_555
C5 C1 1_555 1_555
Zn8 N1 1_555 1_555
C4 C5 1_555 1_555
O29 Zn2_4 1_555 1_555
O25 Zn8 1_555 1_555
Zn5 O12 1_555 1_555
O12 C50 1_555 1_555
O13 C50 1_555 1_555
N4 C41 1_555 1_555
C40 C39 1_555 1_555
H26 C40 1_555 1_555
C41 C40 1_555 1_555
H27 C41 1_555 1_555
C42 N4 1_555 1_555
H28 C42 1_555 1_555
C43 C39 1_555 1_555
H29 C43 1_555 1_555
C44 N4 1_555 1_555
C45 C44 1_555 1_555
H30 C45 1_555 1_555
C46 C45 1_555 1_555
H31 C46 1_555 1_555
C47 C46 1_555 1_555
C48 C47 1_555 1_555
H32 C48 1_555 1_555
C49 C44 1_555 1_555
H33 C49 1_555 1_555
C50 C47 1_555 1_555
O14 Zn5 1_555 1_555
O25 C58 1_555 1_555
C51 H34 1_555 1_555
C52 C51 1_555 1_555
H35 C52 1_555 1_555
C57 O14 1_555 1_555
O29 Zn5 1_555 1_555
H42 O29 1_555 1_555
C42 C43 1_555 1_555
C48 C49 1_555 1_555

#END
