
###############################################################################
#
# This file contains modified crystal structure data generated from the
# MOF subset of the Cambridge Structural Database (CSD) v543 
# hosted by the Cambridge Crystallographic Data Centre (CCDC).
#
# This work is licensed under the Creative Commons
# Attribution-NonCommercial-ShareAlike 4.0 International License.
# To view a copy of this license, visit
# http://creativecommons.org/licenses/by-nc-sa/4.0/
# or send a letter to
# Creative Commons, PO Box 1866, Mountain View, CA 94042, USA.
#
# CIF created using the CSD Python API on 29 September 2022
# The structure has been converted into the P1 space group
# The structure has a 3D framework
# The original CSD entry OWUCAN is in the triclinic crystal system
# The framework has been calculated to contain at least 10.0% void space
# The void calculation uses a probe of radius 1.32A, grid spacing 0.4
#
###############################################################################

data_OWUCAN
_chemical_formula_moiety         '(C66 H42 N4 O21 Zn4)n'
_symmetry_cell_setting           triclinic
_symmetry_space_group_name_H-M   'P 1'
_symmetry_Int_Tables_number      1
_space_group_name_Hall           'P 1'
loop_
_symmetry_equiv_pos_site_id
_symmetry_equiv_pos_as_xyz
1 x,y,z
_cell_length_a                   9.5983(7)
_cell_length_b                   11.4372(8)
_cell_length_c                   16.8092(13)
_cell_angle_alpha                104.306(3)
_cell_angle_beta                 101.699(3)
_cell_angle_gamma                98.756(3)
_cell_volume                     1710.64
loop_
_atom_site_label
_atom_site_type_symbol
_atom_site_fract_x
_atom_site_fract_y
_atom_site_fract_z
H3 H 0.0150 0.7964 0.2125
Zn2 Zn -0.0000 0.0000 0.5000
O23 O 0.0202(4) 0.1301(3) 0.4188(2)
O28 O 0.1735(3) 0.1268(3) 0.59798(18)
Zn2_2 Zn 1.0000 1.0000 0.5000
O4 O 0.9798(4) 0.8699(3) 0.5812(2)
O6 O 0.9874(4) 0.6724(3) 0.9446(2)
C21 C 0.9627(5) 0.7538(4) 0.7981(3)
H15 H 0.9347 0.8024 0.8443
C22 C 0.9528(5) 0.7882(4) 0.7237(3)
H16 H 0.9164 0.8597 0.7192
C23 C 0.9958(5) 0.7185(4) 0.6555(3)
O7 O 0.2370(4) 0.4991(3) 0.0410(2)
O8 O 0.1614(4) 0.6627(3) 0.1050(2)
O9 O 0.9039(3) 0.7040(3) 0.34315(19)
O10 O 0.8265(3) 0.8732(3) 0.40202(18)
C26 C 0.5133(5) 0.5835(4) 0.1518(3)
H17 H 0.5012 0.5169 0.1025
C27 C 0.6456(5) 0.6228(4) 0.2126(3)
H18 H 0.7237 0.5828 0.2049
C28 C 0.6638(5) 0.7211(4) 0.2850(3)
C29 C 0.5478(5) 0.7782(4) 0.2965(3)
H19 H 0.5592 0.8441 0.3460
C30 C 0.4164(4) 0.7389(4) 0.2359(3)
H20 H 0.3378 0.7781 0.2439
C31 C 0.3983(5) 0.6419(4) 0.1630(3)
C32 C 0.2554(5) 0.5984(4) 0.0982(3)
C33 C 0.8087(5) 0.7700(4) 0.3492(3)
O27 O 0.0126(4) 0.3276(3) 0.0554(2)
C54 C 0.0373(5) 0.2462(4) 0.2019(3)
H36 H 0.0653 0.1976 0.1557
C55 C 0.0472(5) 0.2118(4) 0.2763(3)
H37 H 0.0836 0.1403 0.2808
C56 C 0.0042(5) 0.2815(4) 0.3445(3)
O18 O 0.7630(4) 0.5009(3) 0.9590(2)
O19 O 0.8386(4) 0.3373(3) 0.8950(2)
O20 O 0.0961(3) 0.2960(3) 0.65685(19)
C59 C 0.4867(5) 0.4165(4) 0.8482(3)
H38 H 0.4988 0.4831 0.8975
C60 C 0.3544(5) 0.3772(4) 0.7874(3)
H39 H 0.2763 0.4172 0.7951
C61 C 0.3362(5) 0.2789(4) 0.7150(3)
C62 C 0.4522(5) 0.2218(4) 0.7035(3)
H40 H 0.4408 0.1559 0.6540
C63 C 0.5836(4) 0.2611(4) 0.7641(3)
H41 H 0.6622 0.2219 0.7561
C64 C 0.6017(5) 0.3581(4) 0.8370(3)
C65 C 0.7446(5) 0.4016(4) 0.9018(3)
C66 C 0.1913(5) 0.2300(4) 0.6508(3)
Zn2_3 Zn -0.0000 1.0000 0.5000
Zn3 Zn 0.09400(5) 0.75225(4) 0.42714(3)
O1 O 0.2249(4) 0.6554(3) 0.3831(2)
O2 O 0.4295(4) 0.7557(3) 0.4836(2)
N2 N 0.5983(4) 0.2560(3) 0.2888(2)
C6 C 0.7005(5) 0.0529(4) 0.2177(3)
C7 C 0.6593(6) 0.1325(4) 0.1712(3)
H5 H 0.6653 0.1165 0.1140
C8 C 0.6099(6) 0.2342(4) 0.2078(3)
H6 H 0.5838 0.2893 0.1761
C9 C 0.6369(5) 0.1808(4) 0.3362(3)
H7 H 0.6283 0.1980 0.3931
C10 C 0.6890(5) 0.0787(4) 0.3013(3)
H8 H 0.7170 0.0259 0.3345
C11 C 0.5418(5) 0.3631(4) 0.3242(3)
C12 C 0.4091(5) 0.3731(4) 0.2797(3)
H9 H 0.3584 0.3126 0.2279
C13 C 0.3506(5) 0.4731(4) 0.3119(3)
H10 H 0.2580 0.4802 0.2827
C14 C 0.4270(5) 0.5627(4) 0.3869(3)
C15 C 0.5627(5) 0.5526(4) 0.4300(3)
H11 H 0.6159 0.6150 0.4804
C16 C 0.6204(5) 0.4506(4) 0.3989(3)
H12 H 0.7117 0.4415 0.4285
C17 C 0.3574(5) 0.6681(4) 0.4216(3)
O3 O 0.0538(4) 0.6978(3) 0.52400(19)
O5 O 0.0648(4) 0.5093(3) 0.8833(2)
C18 C 0.0404(5) 0.6094(4) 0.6612(3)
H13 H 0.0647 0.5590 0.6142
C19 C 0.0494(5) 0.5743(4) 0.7353(3)
H14 H 0.0798 0.5000 0.7386
C20 C 0.0140(5) 0.6476(4) 0.8048(3)
C24 C 0.0074(5) 0.7660(4) 0.5807(3)
C25 C 0.0243(5) 0.6070(4) 0.8836(3)
O11 O 0.1516(3) 0.9290(3) 0.4537(2)
H21 H 0.2372 0.9737 0.4460
Zn11 Zn 0.05161(5) 0.39295(4) 0.95699(3)
N6 N 0.1318(4) 0.2517(3) 0.8979(2)
C34 C 0.3065(5) 0.1242(4) 0.9053(3)
H22 H 0.3883 0.1047 0.9377
C35 C 0.2489(5) 0.2222(4) 0.9405(3)
H23 H 0.2941 0.2708 0.9972
C36 C 0.0690(5) 0.1838(4) 0.8175(3)
C37 C 0.1219(5) 0.0861(4) 0.7766(3)
H25 H 0.0769 0.0414 0.7191
C38 C 0.2425(5) 0.0543(4) 0.8214(3)
N1 N 0.8682(4) 0.7483(3) 0.1021(2)
C1 C 0.6935(5) 0.8758(4) 0.0947(3)
H1 H 0.6117 0.8953 0.0623
C2 C 0.7511(5) 0.7778(4) 0.0595(3)
H2 H 0.7059 0.7292 0.0028
C3 C 0.9310(5) 0.8162(4) 0.1825(3)
C4 C 0.8781(5) 0.9139(4) 0.2234(3)
H4 H 0.9231 0.9586 0.2809
C5 C 0.7575(5) 0.9457(4) 0.1786(3)
Zn8 Zn 0.94839(5) 0.60705(4) 0.04301(3)
Zn2_4 Zn 1.0000 0.0000 0.5000
O29 O 0.8484(3) 0.0710(3) 0.5463(2)
O25 O 0.9352(4) 0.4907(3) 0.1167(2)
Zn5 Zn 0.90600(5) 0.24775(4) 0.57286(3)
O12 O 0.7751(4) 0.3446(3) 0.6169(2)
O13 O 0.5705(4) 0.2443(3) 0.5164(2)
N4 N 0.4017(4) 0.7440(3) 0.7112(2)
C39 C 0.2995(5) 0.9471(4) 0.7823(3)
C40 C 0.3407(6) 0.8675(4) 0.8288(3)
H26 H 0.3347 0.8835 0.8860
C41 C 0.3901(6) 0.7658(4) 0.7922(3)
H27 H 0.4162 0.7107 0.8239
C42 C 0.3631(5) 0.8192(4) 0.6638(3)
H28 H 0.3717 0.8020 0.6069
C43 C 0.3110(5) 0.9213(4) 0.6987(3)
H29 H 0.2830 0.9741 0.6655
C44 C 0.4582(5) 0.6369(4) 0.6758(3)
C45 C 0.5909(5) 0.6269(4) 0.7203(3)
H30 H 0.6416 0.6874 0.7721
C46 C 0.6494(5) 0.5269(4) 0.6881(3)
H31 H 0.7420 0.5198 0.7173
C47 C 0.5730(5) 0.4373(4) 0.6131(3)
C48 C 0.4373(5) 0.4474(4) 0.5700(3)
H32 H 0.3841 0.3850 0.5196
C49 C 0.3796(5) 0.5494(4) 0.6011(3)
H33 H 0.2883 0.5585 0.5715
C50 C 0.6426(5) 0.3319(4) 0.5784(3)
O14 O 0.9462(4) 0.3022(3) 0.47600(19)
C51 C 0.9596(5) 0.3906(4) 0.3388(3)
H34 H 0.9353 0.4410 0.3858
C52 C 0.9506(5) 0.4257(4) 0.2647(3)
H35 H 0.9202 0.5000 0.2614
C53 C 0.9860(5) 0.3524(4) 0.1952(3)
C57 C 0.9926(5) 0.2340(4) 0.4193(3)
C58 C 0.9757(5) 0.3930(4) 0.1164(3)
H42 H 0.7628 0.0263 0.5540
H24 H 0.9850 0.2036 0.7875
loop_
_geom_bond_atom_site_label_1
_geom_bond_atom_site_label_2
_geom_bond_site_symmetry_1
_geom_bond_site_symmetry_2
O23 Zn2 1_555 1_555
O28 Zn2 1_555 1_555
Zn2_2 O4 1_555 1_555
H15 C21 1_555 1_555
C22 C21 1_555 1_555
H16 C22 1_555 1_555
O7 C32 1_555 1_555
O8 C32 1_555 1_555
O10 Zn2_2 1_555 1_555
C26 H17 1_555 1_555
C27 C26 1_555 1_555
H18 C27 1_555 1_555
C28 C27 1_555 1_555
C29 C28 1_555 1_555
H19 C29 1_555 1_555
C30 C29 1_555 1_555
H20 C30 1_555 1_555
C31 C26 1_555 1_555
C32 C31 1_555 1_555
C33 O9 1_555 1_555
C22 C23 1_555 1_555
O10 C33 1_555 1_555
C28 C33 1_555 1_555
C30 C31 1_555 1_555
H36 C54 1_555 1_555
C55 C54 1_555 1_555
H37 C55 1_555 1_555
O28 C66 1_555 1_555
C59 H38 1_555 1_555
C60 C59 1_555 1_555
H39 C60 1_555 1_555
C61 C60 1_555 1_555
C62 C61 1_555 1_555
H40 C62 1_555 1_555
C63 C62 1_555 1_555
H41 C63 1_555 1_555
C64 C59 1_555 1_555
C65 O18 1_555 1_555
C66 O20 1_555 1_555
C55 C56 1_555 1_555
O19 C65 1_555 1_555
C61 C66 1_555 1_555
C63 C64 1_555 1_555
C64 C65 1_555 1_555
Zn3 O1 1_555 1_555
O1 C17 1_555 1_555
O2 C17 1_555 1_555
N2 C8 1_555 1_555
C7 C6 1_555 1_555
H5 C7 1_555 1_555
C8 C7 1_555 1_555
H6 C8 1_555 1_555
C9 N2 1_555 1_555
H7 C9 1_555 1_555
C10 C6 1_555 1_555
H8 C10 1_555 1_555
C11 N2 1_555 1_555
C12 C11 1_555 1_555
H9 C12 1_555 1_555
C13 C12 1_555 1_555
H10 C13 1_555 1_555
C14 C13 1_555 1_555
C15 C14 1_555 1_555
H11 C15 1_555 1_555
C16 C11 1_555 1_555
H12 C16 1_555 1_555
C17 C14 1_555 1_555
O3 Zn3 1_555 1_555
O5 C25 1_555 1_555
C18 H13 1_555 1_555
C19 C18 1_555 1_555
H14 C19 1_555 1_555
C20 C19 1_555 1_555
C24 O3 1_555 1_555
C25 C20 1_555 1_555
O11 Zn2_3 1_555 1_555
H21 O11 1_555 1_555
Zn11 O5 1_555 1_555
Zn3 O11 1_555 1_555
C9 C10 1_555 1_555
C15 C16 1_555 1_555
N6 Zn11 1_555 1_555
N6 C35 1_555 1_555
C34 H22 1_555 1_555
C35 C34 1_555 1_555
H23 C35 1_555 1_555
C36 N6 1_555 1_555
C37 C36 1_555 1_555
H25 C37 1_555 1_555
C38 C34 1_555 1_555
C37 C38 1_555 1_555
N1 C2 1_555 1_555
C1 H1 1_555 1_555
C2 C1 1_555 1_555
H2 C2 1_555 1_555
C3 N1 1_555 1_555
C4 C3 1_555 1_555
H4 C4 1_555 1_555
C5 C1 1_555 1_555
Zn8 N1 1_555 1_555
C4 C5 1_555 1_555
O29 Zn2_4 1_555 1_555
O25 Zn8 1_555 1_555
Zn5 O12 1_555 1_555
O12 C50 1_555 1_555
O13 C50 1_555 1_555
N4 C41 1_555 1_555
C40 C39 1_555 1_555
H26 C40 1_555 1_555
C41 C40 1_555 1_555
H27 C41 1_555 1_555
C42 N4 1_555 1_555
H28 C42 1_555 1_555
C43 C39 1_555 1_555
H29 C43 1_555 1_555
C44 N4 1_555 1_555
C45 C44 1_555 1_555
H30 C45 1_555 1_555
C46 C45 1_555 1_555
H31 C46 1_555 1_555
C47 C46 1_555 1_555
C48 C47 1_555 1_555
H32 C48 1_555 1_555
C49 C44 1_555 1_555
H33 C49 1_555 1_555
C50 C47 1_555 1_555
O14 Zn5 1_555 1_555
O25 C58 1_555 1_555
C51 H34 1_555 1_555
C52 C51 1_555 1_555
H35 C52 1_555 1_555
C53 C52 1_555 1_555
C57 O14 1_555 1_555
C58 C53 1_555 1_555
O29 Zn5 1_555 1_555
H42 O29 1_555 1_555
C42 C43 1_555 1_555
C48 C49 1_555 1_555

#END
