
###############################################################################
#
# This file contains modified crystal structure data generated from the
# MOF subset of the Cambridge Structural Database (CSD) v543 
# hosted by the Cambridge Crystallographic Data Centre (CCDC).
#
# This work is licensed under the Creative Commons
# Attribution-NonCommercial-ShareAlike 4.0 International License.
# To view a copy of this license, visit
# http://creativecommons.org/licenses/by-nc-sa/4.0/
# or send a letter to
# Creative Commons, PO Box 1866, Mountain View, CA 94042, USA.
#
# CIF created using the CSD Python API on 29 September 2022
# The structure has been converted into the P1 space group
# The structure has a 3D framework
# The original CSD entry OXALEF is in the triclinic crystal system
# The framework has been calculated to contain at least 10.0% void space
# The void calculation uses a probe of radius 1.32A, grid spacing 0.4
# The framework is charged, counterions have been retained in the structure
# H atom positions have been added when not included in the experimental data
#
###############################################################################

data_OXALEF
_chemical_formula_moiety         '(C70 H64 Mn4 N2 O22 1+)n'
_symmetry_cell_setting           triclinic
_symmetry_space_group_name_H-M   'P 1'
_symmetry_Int_Tables_number      1
_space_group_name_Hall           'P 1'
loop_
_symmetry_equiv_pos_site_id
_symmetry_equiv_pos_as_xyz
1 x,y,z
_cell_length_a                   11.775(3)
_cell_length_b                   16.113(5)
_cell_length_c                   16.346(5)
_cell_angle_alpha                108.244(2)
_cell_angle_beta                 101.663(4)
_cell_angle_gamma                102.559(2)
_cell_volume                     2750.1
loop_
_atom_site_label
_atom_site_type_symbol
_atom_site_fract_x
_atom_site_fract_y
_atom_site_fract_z
O5 O 0.02853(16) 0.81445(11) 0.28002(14)
O6 O 0.06102(19) 0.77904(15) 0.39942(14)
C16 C 0.0059(2) 0.75844(17) 0.31817(18)
Mn4 Mn 0.18914(3) 0.895251(18) 0.390359(18)
Mn8 Mn 0.81086(3) 0.104749(18) 0.609641(18)
Mn12 Mn 0.5000 0.0000 0.5000
O24 O 0.68212(14) 0.04230(10) 0.48136(9)
O27 O 0.85792(15) 0.01659(12) 0.49202(10)
C57 C 0.7532(2) 0.00549(14) 0.44456(14)
O31 O 0.77461(16) 0.00161(11) 0.65408(12)
Mn12_2 Mn 0.5000 1.0000 0.5000
O23 O 0.58733(16) 0.79336(11) 0.07427(10)
H30 H 0.4073 0.6625 0.0069
C50 C 0.6327(2) 0.71915(14) 0.03660(14)
H36 H 0.7148 0.7427 0.0314
H37 H 0.6378 0.6827 0.0752
C51 C 0.6359(2) 0.84491(15) 0.16403(14)
C52 C 0.5675(2) 0.89830(16) 0.20149(15)
H38 H 0.4943 0.8987 0.1646
C53 C 0.6062(2) 0.95055(16) 0.29232(15)
H39 H 0.5588 0.9862 0.3182
C54 C 0.7141(2) 0.95130(14) 0.34617(14)
C55 C 0.7840(2) 0.90033(16) 0.30738(15)
H40 H 0.8596 0.9027 0.3437
C56 C 0.7450(2) 0.84598(16) 0.21632(15)
H41 H 0.7922 0.8102 0.1903
O13 O 0.5150(2) 0.51188(15) 0.8382(2)
C34 C 0.5436(2) 0.66034(13) 0.94382(14)
O14 O 0.52717(14) 0.13063(10) 0.58823(10)
C35 C 0.6020(2) 0.58695(16) 0.90183(19)
H25 H 0.6456 0.5697 0.9493
H26 H 0.6618 0.6121 0.8743
O15 O 0.72268(15) 0.18696(11) 0.67067(12)
C36 C 0.5487(3) 0.43487(18) 0.8012(2)
O16 O 0.32559(18) 0.59472(12) 0.87638(15)
C37 C 0.4534(3) 0.3611(2) 0.7416(3)
H27 H 0.3726 0.3648 0.7317
O19 O 0.97147(16) 0.18555(11) 0.71998(14)
O22 O 0.93898(19) 0.22096(15) 0.60058(14)
C38 C 0.5927(2) 0.27532(14) 0.70643(15)
C39 C 0.6882(2) 0.34970(16) 0.76767(18)
H28 H 0.7690 0.3462 0.7767
C40 C 0.6668(3) 0.42967(18) 0.8162(2)
H29 H 0.7324 0.4802 0.8592
C41 C 0.6151(2) 0.18979(13) 0.65038(14)
O30 O 0.64112(15) 0.76586(11) 0.88468(11)
C42 C 0.4217(2) 0.61823(17) 0.95544(18)
H31 H 0.4236 0.5627 0.9689
C43 C 0.2489(2) 0.50746(15) 0.83287(18)
O34 O 0.57202(15) 0.95999(11) 0.60359(10)
O35 O 0.42798(15) 0.04001(11) 0.39641(10)
C44 C 0.2143(2) 0.44908(15) 0.87543(17)
H32 H 0.2462 0.4682 0.9388
C45 C 0.1334(2) 0.36297(16) 0.82622(17)
H33 H 0.1107 0.3228 0.8560
C46 C 0.0848(2) 0.33422(16) 0.73409(16)
C47 C 0.1174(3) 0.39411(19) 0.69212(19)
H34 H 0.0833 0.3760 0.6290
C48 C 0.1994(3) 0.48049(19) 0.7416(2)
H35 H 0.2215 0.5213 0.7122
C58 C 0.5255(2) 0.71755(16) 0.88645(15)
H42 H 0.4831 0.7616 0.9120
H43 H 0.4749 0.6772 0.8244
C59 C 0.6414(2) 0.81339(16) 0.82858(16)
C60 C 0.7542(2) 0.85908(18) 0.82724(19)
H44 H 0.8256 0.8571 0.8649
C61 C 0.7637(2) 0.90738(18) 0.77186(18)
H45 H 0.8420 0.9393 0.7723
C62 C 0.6605(2) 0.91040(15) 0.71500(15)
C63 C 0.5490(2) 0.86477(18) 0.71744(17)
H46 H 0.4776 0.8666 0.6796
C64 C 0.5372(2) 0.81610(18) 0.77333(18)
H47 H 0.4590 0.7851 0.7738
C65 C 0.6689(2) 0.96105(14) 0.65237(14)
C66 C 0.4760(3) 0.28121(18) 0.6961(3)
H48 H 0.4095 0.2292 0.6567
O1 O 0.4850(2) 0.48812(15) 0.1618(2)
C1 C 0.4564(2) 0.33966(13) 0.05618(14)
O2 O 0.47283(14) 0.86937(10) 0.41177(10)
C2 C 0.3980(2) 0.41305(16) 0.09817(19)
H1 H 0.3544 0.4303 0.0507
H2 H 0.3382 0.3879 0.1257
O3 O 0.27732(15) 0.81304(11) 0.32933(12)
C3 C 0.4513(3) 0.56513(18) 0.1988(2)
O4 O 0.67441(18) 0.40528(12) 0.12362(15)
C4 C 0.5466(3) 0.6389(2) 0.2584(3)
H3 H 0.6274 0.6352 0.2683
C5 C 0.4073(2) 0.72468(14) 0.29357(15)
C6 C 0.3118(2) 0.65030(16) 0.23233(18)
H4 H 0.2310 0.6538 0.2233
C7 C 0.3332(3) 0.57033(18) 0.1838(2)
H5 H 0.2676 0.5198 0.1408
C8 C 0.3849(2) 0.81021(13) 0.34962(14)
O10 O 0.35888(15) 0.23414(11) 0.11532(11)
C9 C 0.5783(2) 0.38177(17) 0.04456(18)
H7 H 0.5764 0.4373 0.0311
C10 C 0.7511(2) 0.49254(15) 0.16713(18)
C11 C 0.7857(2) 0.55092(15) 0.12457(17)
H8 H 0.7538 0.5318 0.0612
C12 C 0.8666(2) 0.63703(16) 0.17378(17)
H9 H 0.8893 0.6772 0.1440
C13 C 0.9152(2) 0.66578(16) 0.26591(16)
C14 C 0.8826(3) 0.60589(19) 0.30788(19)
H10 H 0.9167 0.6240 0.3710
C15 C 0.8006(3) 0.51951(19) 0.2584(2)
H11 H 0.7785 0.4787 0.2878
C25 C 0.4745(2) 0.28245(16) 0.11355(15)
H18 H 0.5169 0.2384 0.0880
H19 H 0.5251 0.3228 0.1756
C26 C 0.3586(2) 0.18661(16) 0.17142(16)
C27 C 0.2458(2) 0.14092(18) 0.17276(19)
H20 H 0.1744 0.1429 0.1351
C28 C 0.2363(2) 0.09262(18) 0.22814(18)
H21 H 0.1580 0.0607 0.2277
C29 C 0.3395(2) 0.08960(15) 0.28500(15)
C30 C 0.4510(2) 0.13523(18) 0.28256(17)
H22 H 0.5224 0.1334 0.3204
C31 C 0.4628(2) 0.18390(18) 0.22667(18)
H23 H 0.5410 0.2149 0.2262
C32 C 0.3311(2) 0.03895(14) 0.34763(14)
C33 C 0.5240(3) 0.71879(18) 0.3039(3)
H24 H 0.5905 0.7708 0.3433
O25 O 0.31788(14) 0.95770(10) 0.51864(9)
O28 O 0.14208(15) 0.98341(12) 0.50798(10)
O32 O 0.22539(16) 0.99839(11) 0.34592(12)
O7 O 0.41267(16) 0.20664(11) 0.92573(10)
H6 H 0.5927 0.3375 0.9931
C17 C 0.3673(2) 0.28085(14) 0.96340(14)
H12 H 0.2852 0.2573 0.9686
H13 H 0.3622 0.3173 0.9248
C18 C 0.3641(2) 0.15509(15) 0.83597(14)
C19 C 0.4325(2) 0.10170(16) 0.79851(15)
H14 H 0.5057 0.1013 0.8354
C20 C 0.3938(2) 0.04945(16) 0.70768(15)
H15 H 0.4412 0.0138 0.6818
C21 C 0.2859(2) 0.04870(14) 0.65383(14)
C22 C 0.2160(2) 0.09967(16) 0.69262(15)
H16 H 0.1404 0.0973 0.6563
C23 C 0.2550(2) 0.15402(16) 0.78368(15)
H17 H 0.2078 0.1898 0.8097
C24 C 0.2468(2) 0.99451(14) 0.55544(14)
C49 C 0.9941(2) 0.24156(17) 0.68183(18)
N1 N 0.0707(4) 0.1350(4) 0.4643(4)
C67 C 0.1908(5) 0.1977(3) 0.5106(4)
C68 C 0.0085(6) 0.1232(4) 0.3765(4)
H49 H 0.0606171 0.0996179 0.330886
H52 H 0.189599 0.26686 0.517195
H53 H 0.220861 0.195562 0.577239
H54 H 0.253053 0.178244 0.472491
H55 H 0.0172552 0.154926 0.503428
H56 H 0.0763972 0.0723317 0.461763
H50 H 0.919532 0.0726062 0.355004
H51 H 0.997163 0.188234 0.37559
H50_2 H 0.080468 0.927394 0.644996
H51_2 H 0.00283669 0.811766 0.62441
N1_2 N 0.9293(4) 0.8650(4) 0.5357(4)
C67_2 C 0.8092(5) 0.8023(3) 0.4894(4)
C68_2 C 0.9915(6) 0.8768(4) 0.6235(4)
H49_2 H 0.939383 0.900382 0.669114
H52_2 H 0.810401 0.73314 0.482805
H53_2 H 0.779139 0.804438 0.422761
H54_2 H 0.746947 0.821756 0.527509
H55_2 H 0.982745 0.845074 0.496572
H56_2 H 0.923603 0.927668 0.538237
loop_
_geom_bond_atom_site_label_1
_geom_bond_atom_site_label_2
_geom_bond_site_symmetry_1
_geom_bond_site_symmetry_2
O5 C16 1_555 1_555
O6 C16 1_555 1_555
Mn4 O5 1_555 1_555
O6 Mn4 1_555 1_555
Mn8 O24 1_555 1_555
Mn12 O24 1_555 1_555
O24 C57 1_555 1_555
O27 Mn8 1_555 1_555
C57 O27 1_555 1_555
Mn8 O31 1_555 1_555
O23 C50 1_555 1_555
H36 C50 1_555 1_555
H37 C50 1_555 1_555
C51 O23 1_555 1_555
C52 C51 1_555 1_555
H38 C52 1_555 1_555
C53 C52 1_555 1_555
H39 C53 1_555 1_555
C54 C53 1_555 1_555
C55 C54 1_555 1_555
H40 C55 1_555 1_555
C56 C51 1_555 1_555
H41 C56 1_555 1_555
C55 C56 1_555 1_555
Mn8 O15 1_555 1_555
O13 C35 1_555 1_555
C34 C35 1_555 1_555
Mn12_2 O34 1_555 1_555
O14 Mn12 1_555 1_555
C35 H25 1_555 1_555
H26 C35 1_555 1_555
O15 C41 1_555 1_555
C36 O13 1_555 1_555
O16 C42 1_555 1_555
C37 C36 1_555 1_555
H27 C37 1_555 1_555
O19 Mn8 1_555 1_555
O22 Mn8 1_555 1_555
C38 C39 1_555 1_555
C39 H28 1_555 1_555
C40 C36 1_555 1_555
H29 C40 1_555 1_555
C41 O14 1_555 1_555
O30 C58 1_555 1_555
C42 C34 1_555 1_555
H31 C42 1_555 1_555
C43 O16 1_555 1_555
O34 C65 1_555 1_555
O35 Mn12 1_555 1_555
C44 C43 1_555 1_555
H32 C44 1_555 1_555
C45 C44 1_555 1_555
H33 C45 1_555 1_555
C46 C45 1_555 1_555
C47 C46 1_555 1_555
H34 C47 1_555 1_555
C48 C43 1_555 1_555
H35 C48 1_555 1_555
C58 C34 1_555 1_555
H42 C58 1_555 1_555
H43 C58 1_555 1_555
C59 O30 1_555 1_555
C60 C59 1_555 1_555
H44 C60 1_555 1_555
C61 C60 1_555 1_555
H45 C61 1_555 1_555
C62 C61 1_555 1_555
C63 C62 1_555 1_555
H46 C63 1_555 1_555
C64 C59 1_555 1_555
H47 C64 1_555 1_555
C65 C62 1_555 1_555
C66 C37 1_555 1_555
H48 C66 1_555 1_555
C38 C41 1_555 1_555
C38 C66 1_555 1_555
C39 C40 1_555 1_555
C47 C48 1_555 1_555
C63 C64 1_555 1_555
Mn4 O3 1_555 1_555
O1 C2 1_555 1_555
C1 C2 1_555 1_555
Mn12_2 O2 1_555 1_555
O2 C8 1_555 1_555
C2 H1 1_555 1_555
H2 C2 1_555 1_555
O3 C8 1_555 1_555
C3 O1 1_555 1_555
O4 C9 1_555 1_555
C4 C3 1_555 1_555
H3 C4 1_555 1_555
C5 C6 1_555 1_555
C6 H4 1_555 1_555
C7 C3 1_555 1_555
H5 C7 1_555 1_555
C8 C5 1_555 1_555
O10 C25 1_555 1_555
C9 C1 1_555 1_555
H7 C9 1_555 1_555
C10 O4 1_555 1_555
O35 C32 1_555 1_555
C11 C10 1_555 1_555
H8 C11 1_555 1_555
C12 C11 1_555 1_555
H9 C12 1_555 1_555
C13 C12 1_555 1_555
C14 C13 1_555 1_555
H10 C14 1_555 1_555
C15 C10 1_555 1_555
H11 C15 1_555 1_555
C25 C1 1_555 1_555
H18 C25 1_555 1_555
H19 C25 1_555 1_555
C26 O10 1_555 1_555
C27 C26 1_555 1_555
H20 C27 1_555 1_555
C28 C27 1_555 1_555
H21 C28 1_555 1_555
C29 C28 1_555 1_555
C30 C29 1_555 1_555
H22 C30 1_555 1_555
C31 C26 1_555 1_555
H23 C31 1_555 1_555
C32 C29 1_555 1_555
C33 C4 1_555 1_555
H24 C33 1_555 1_555
O25 Mn4 1_555 1_555
O28 Mn4 1_555 1_555
O32 Mn4 1_555 1_555
Mn12_2 O25 1_555 1_555
C5 C33 1_555 1_555
C6 C7 1_555 1_555
C14 C15 1_555 1_555
C30 C31 1_555 1_555
O7 C17 1_555 1_555
H12 C17 1_555 1_555
H13 C17 1_555 1_555
C18 O7 1_555 1_555
C19 C18 1_555 1_555
H14 C19 1_555 1_555
C20 C19 1_555 1_555
H15 C20 1_555 1_555
C21 C20 1_555 1_555
C22 C21 1_555 1_555
H16 C22 1_555 1_555
C23 C18 1_555 1_555
H17 C23 1_555 1_555
C22 C23 1_555 1_555
O25 C24 1_555 1_555
O28 C24 1_555 1_555
O19 C49 1_555 1_555
C49 O22 1_555 1_555
N1 C67 1_555 1_555
C68 N1 1_555 1_555
C68 H49 1_555 1_555
C67 H52 1_555 1_555
C67 H53 1_555 1_555
C67 H54 1_555 1_555
N1 H55 1_555 1_555
N1 H56 1_555 1_555
N1_2 C67_2 1_555 1_555
C68_2 N1_2 1_555 1_555
C68_2 H49_2 1_555 1_555
C67_2 H52_2 1_555 1_555
C67_2 H53_2 1_555 1_555
C67_2 H54_2 1_555 1_555
N1_2 H55_2 1_555 1_555
N1_2 H56_2 1_555 1_555

#END
