
###############################################################################
#
# This file contains modified crystal structure data generated from the
# MOF subset of the Cambridge Structural Database (CSD) v543 
# hosted by the Cambridge Crystallographic Data Centre (CCDC).
#
# This work is licensed under the Creative Commons
# Attribution-NonCommercial-ShareAlike 4.0 International License.
# To view a copy of this license, visit
# http://creativecommons.org/licenses/by-nc-sa/4.0/
# or send a letter to
# Creative Commons, PO Box 1866, Mountain View, CA 94042, USA.
#
# CIF created using the CSD Python API on 29 September 2022
# The structure has been converted into the P1 space group
# The structure has a 3D framework
# The original CSD entry OXALIJ is in the triclinic crystal system
# The framework has been calculated to contain at least 10.0% void space
# The void calculation uses a probe of radius 1.32A, grid spacing 0.4
# The framework is charged, counterions have been retained in the structure
# H atom positions have been added when not included in the experimental data
#
###############################################################################

data_OXALIJ
_chemical_formula_moiety         '(C70 H64 Cd4 N2 O18 1+)n'
_symmetry_cell_setting           triclinic
_symmetry_space_group_name_H-M   'P 1'
_symmetry_Int_Tables_number      1
_space_group_name_Hall           'P 1'
loop_
_symmetry_equiv_pos_site_id
_symmetry_equiv_pos_as_xyz
1 x,y,z
_cell_length_a                   11.970(3)
_cell_length_b                   16.341(5)
_cell_length_c                   16.436(5)
_cell_angle_alpha                107.913(2)
_cell_angle_beta                 103.400(4)
_cell_angle_gamma                100.533(2)
_cell_volume                     2861.48
loop_
_atom_site_label
_atom_site_type_symbol
_atom_site_fract_x
_atom_site_fract_y
_atom_site_fract_z
N1 N 0.0674(8) 0.1493(7) 0.4659(5)
C1 C 0.1989(7) 0.1992(5) 0.5034(5)
C2 C 0.0078(8) 0.1216(5) 0.3812(5)
H47 H 0.0249804 0.190299 0.498958
H48 H 0.059639 0.094061 0.482488
H49 H 0.212602 0.260688 0.489557
H50 H 0.228851 0.215354 0.575719
H51 H 0.249788 0.157433 0.471885
H52 H 0.0475663 0.0752847 0.342144
H54 H 0.0103809 0.17854 0.359815
H53 H 0.915465 0.0877431 0.3706
H53_2 H 0.084535 0.912257 0.6294
N1_2 N 0.9326(8) 0.8507(7) 0.5341(5)
C1_2 C 0.8011(7) 0.8008(5) 0.4966(5)
C2_2 C 0.9922(8) 0.8784(5) 0.6188(5)
H47_2 H 0.97502 0.809701 0.501042
H48_2 H 0.940361 0.905939 0.517512
H49_2 H 0.787398 0.739312 0.510443
H50_2 H 0.771149 0.784646 0.424281
H51_2 H 0.750212 0.842567 0.528115
H52_2 H 0.952434 0.924715 0.657856
H54_2 H 0.989619 0.82146 0.640185
O4 O 0.0159(2) 0.79858(18) 0.2714(2)
O5 O 0.0445(3) 0.7755(2) 0.3982(2)
Cd4 Cd 0.18207(2) 0.896087(15) 0.383942(14)
Cd8 Cd 0.81793(2) 0.103913(15) 0.616058(14)
Cd12 Cd 0.5000 0.0000 0.5000
O23 O 0.6816(2) 0.04369(15) 0.47087(14)
O26 O 0.8504(2) 0.00735(18) 0.48594(16)
C57 C 0.7485(3) 0.0011(2) 0.4376(2)
O30 O 0.7993(3) 0.0024(2) 0.6770(2)
Cd12_2 Cd 0.5000 1.0000 0.5000
O22 O 0.5769(3) 0.78486(19) 0.07173(16)
C50 C 0.6246(3) 0.7133(2) 0.0342(2)
H33 H 0.7052 0.7371 0.0313
H34 H 0.6307 0.6759 0.0715
C51 C 0.6269(4) 0.8368(3) 0.1603(2)
C52 C 0.5586(4) 0.8902(3) 0.1963(2)
H35 H 0.4845 0.8897 0.1591
C53 C 0.5997(3) 0.9441(3) 0.2868(2)
H36 H 0.5532 0.9802 0.3116
C54 C 0.7080(3) 0.9457(2) 0.3411(2)
C55 C 0.7756(3) 0.8943(3) 0.3036(2)
H37 H 0.8512 0.8968 0.3403
C56 C 0.7361(4) 0.8388(3) 0.2136(2)
H38 H 0.7832 0.8031 0.1891
C36 C 0.5392(3) 0.6584(2) 0.9402(2)
O13 O 0.5202(2) 0.13916(16) 0.58858(17)
C37 C 0.5956(4) 0.5866(3) 0.8988(3)
H24 H 0.6825 0.6080 0.9308
O14 O 0.7121(3) 0.19083(19) 0.66884(19)
O15 O 0.3281(3) 0.5938(2) 0.8661(3)
O18 O 0.9841(2) 0.20142(18) 0.7286(2)
O21 O 0.9555(3) 0.2245(2) 0.6018(2)
C38 C 0.5873(4) 0.2803(2) 0.7075(2)
C39 C 0.6813(4) 0.3515(3) 0.7672(3)
H25 H 0.7605 0.3467 0.7732
C40 C 0.6638(5) 0.4305(3) 0.8190(3)
H26 H 0.7277 0.4835 0.8414
C41 C 0.6079(3) 0.1958(2) 0.6503(2)
O29 O 0.6396(2) 0.76162(19) 0.88676(18)
C42 C 0.4163(4) 0.6195(3) 0.9469(3)
H27 H 0.3979 0.6649 0.9938
H28 H 0.4181 0.5671 0.9649
C43 C 0.2523(4) 0.5095(3) 0.8275(3)
O33 O 0.6024(3) 0.9703(2) 0.61915(18)
O34 O 0.3976(3) 0.0297(2) 0.38085(18)
C44 C 0.2200(4) 0.4557(2) 0.8710(3)
H29 H 0.2527 0.4760 0.9345
C45 C 0.1410(4) 0.3722(2) 0.8255(3)
H30 H 0.1185 0.3363 0.8579
C46 C 0.0940(3) 0.3402(2) 0.7329(2)
C47 C 0.1234(4) 0.3947(3) 0.6882(3)
H31 H 0.0884 0.3749 0.6250
C48 C 0.2039(4) 0.4785(4) 0.7342(4)
H32 H 0.2261 0.5150 0.7022
C49 C 0.0059(3) 0.2497(3) 0.6850(3)
C58 C 0.5237(3) 0.7179(3) 0.8852(2)
H39 H 0.4838 0.7628 0.9112
H40 H 0.4739 0.6814 0.8225
C59 C 0.6454(4) 0.8104(3) 0.8334(3)
C60 C 0.7603(4) 0.8522(3) 0.8371(3)
H41 H 0.8282 0.8461 0.8757
C61 C 0.7751(4) 0.9030(3) 0.7840(3)
H42 H 0.8531 0.9315 0.7864
C62 C 0.6769(3) 0.9118(2) 0.7283(2)
C63 C 0.5642(4) 0.8702(3) 0.7251(3)
H43 H 0.4969 0.8757 0.6855
C64 C 0.5459(4) 0.8202(3) 0.7783(3)
H44 H 0.4676 0.7936 0.7769
C65 C 0.6927(4) 0.9660(2) 0.6699(2)
O36 O 0.5102(4) 0.5144(3) 0.8351(4)
C66 C 0.5394(8) 0.4377(5) 0.7950(7)
C67 C 0.4716(14) 0.2919(9) 0.6905(12)
H45 H 0.4071 0.2438 0.6469
C68 C 0.4492(7) 0.3671(5) 0.7329(8)
H46 H 0.3695 0.3718 0.7199
H56 H 0.607812 0.615346 0.848785
C3 C 0.4608(3) 0.3416(2) 0.0598(2)
O1 O 0.4798(2) 0.86084(16) 0.41142(17)
C4 C 0.4044(4) 0.4134(3) 0.1012(3)
H1 H 0.3175 0.3920 0.0692
O2 O 0.2879(3) 0.80917(19) 0.33116(19)
O3 O 0.6719(3) 0.4062(2) 0.1339(3)
C5 C 0.4127(4) 0.7197(2) 0.2925(2)
C6 C 0.3187(4) 0.6485(3) 0.2328(3)
H2 H 0.2395 0.6533 0.2268
C7 C 0.3362(5) 0.5695(3) 0.1810(3)
H3 H 0.2723 0.5165 0.1586
C8 C 0.3921(3) 0.8042(2) 0.3497(2)
O9 O 0.3604(2) 0.23838(19) 0.11324(18)
C9 C 0.5837(4) 0.3805(3) 0.0531(3)
H4 H 0.6021 0.3351 0.0062
H5 H 0.5819 0.4329 0.0351
C10 C 0.7477(4) 0.4905(3) 0.1725(3)
C11 C 0.7800(4) 0.5443(2) 0.1290(3)
H6 H 0.7473 0.5240 0.0655
C12 C 0.8590(4) 0.6278(2) 0.1745(3)
H7 H 0.8815 0.6637 0.1421
C13 C 0.9060(3) 0.6598(2) 0.2671(2)
C14 C 0.8766(4) 0.6053(3) 0.3118(3)
H8 H 0.9116 0.6251 0.3750
C15 C 0.7961(4) 0.5215(4) 0.2658(4)
H9 H 0.7739 0.4850 0.2978
C16 C 0.9941(3) 0.7503(3) 0.3150(3)
C25 C 0.4763(3) 0.2821(3) 0.1148(2)
H16 H 0.5162 0.2372 0.0888
H17 H 0.5261 0.3186 0.1775
C26 C 0.3546(4) 0.1896(3) 0.1666(3)
C27 C 0.2397(4) 0.1478(3) 0.1629(3)
H18 H 0.1718 0.1539 0.1243
C28 C 0.2249(4) 0.0970(3) 0.2160(3)
H19 H 0.1469 0.0685 0.2136
C29 C 0.3231(3) 0.0882(2) 0.2717(2)
C30 C 0.4358(4) 0.1298(3) 0.2749(3)
H20 H 0.5031 0.1243 0.3145
C31 C 0.4541(4) 0.1798(3) 0.2217(3)
H21 H 0.5324 0.2064 0.2231
C32 C 0.3073(4) 0.0340(2) 0.3301(2)
O12 O 0.4898(4) 0.4856(3) 0.1649(4)
C33 C 0.4606(8) 0.5623(5) 0.2050(7)
C34 C 0.5284(14) 0.7081(9) 0.3095(12)
H22 H 0.5929 0.7562 0.3531
C35 C 0.5508(7) 0.6329(5) 0.2671(8)
H23 H 0.6305 0.6282 0.2801
O24 O 0.3184(2) 0.95631(15) 0.52913(14)
O27 O 0.1496(2) 0.99265(18) 0.51406(16)
O31 O 0.2007(3) 0.9976(2) 0.3230(2)
H55 H 0.392188 0.384654 0.151215
O6 O 0.4231(3) 0.21514(19) 0.92827(16)
C17 C 0.3754(3) 0.2867(2) 0.9658(2)
H10 H 0.2948 0.2629 0.9687
H11 H 0.3693 0.3241 0.9285
C18 C 0.3731(4) 0.1632(3) 0.8397(2)
C19 C 0.4414(4) 0.1098(3) 0.8037(2)
H12 H 0.5155 0.1103 0.8409
C20 C 0.4003(3) 0.0559(3) 0.7132(2)
H13 H 0.4468 0.0198 0.6884
C21 C 0.2920(3) 0.0543(2) 0.6589(2)
C22 C 0.2244(3) 0.1057(3) 0.6964(2)
H14 H 0.1488 0.1032 0.6597
C23 C 0.2639(4) 0.1612(3) 0.7864(2)
H15 H 0.2168 0.1969 0.8109
C24 C 0.2515(3) 0.9989(2) 0.5624(2)
loop_
_geom_bond_atom_site_label_1
_geom_bond_atom_site_label_2
_geom_bond_site_symmetry_1
_geom_bond_site_symmetry_2
N1 C1 1_555 1_555
C2 N1 1_555 1_555
N1 H47 1_555 1_555
N1 H48 1_555 1_555
C1 H49 1_555 1_555
C1 H50 1_555 1_555
C1 H51 1_555 1_555
C2 H52 1_555 1_555
C2 H54 1_555 1_555
N1_2 C1_2 1_555 1_555
C2_2 N1_2 1_555 1_555
N1_2 H47_2 1_555 1_555
N1_2 H48_2 1_555 1_555
C1_2 H49_2 1_555 1_555
C1_2 H50_2 1_555 1_555
C1_2 H51_2 1_555 1_555
C2_2 H52_2 1_555 1_555
C2_2 H54_2 1_555 1_555
Cd4 O4 1_555 1_555
O5 Cd4 1_555 1_555
Cd8 O23 1_555 1_555
Cd12 O23 1_555 1_555
O23 C57 1_555 1_555
O26 Cd8 1_555 1_555
C57 O26 1_555 1_555
Cd8 O30 1_555 1_555
O22 C50 1_555 1_555
H33 C50 1_555 1_555
H34 C50 1_555 1_555
C51 O22 1_555 1_555
C52 C51 1_555 1_555
H35 C52 1_555 1_555
C53 C52 1_555 1_555
H36 C53 1_555 1_555
C54 C53 1_555 1_555
C55 C54 1_555 1_555
H37 C55 1_555 1_555
C56 C51 1_555 1_555
H38 C56 1_555 1_555
C55 C56 1_555 1_555
Cd8 O14 1_555 1_555
C36 C37 1_555 1_555
Cd12_2 O33 1_555 1_555
O13 Cd12 1_555 1_555
C37 H24 1_555 1_555
O14 C41 1_555 1_555
O15 C42 1_555 1_555
O18 Cd8 1_555 1_555
O21 Cd8 1_555 1_555
C38 C39 1_555 1_555
C39 H25 1_555 1_555
C40 C39 1_555 1_555
H26 C40 1_555 1_555
C41 O13 1_555 1_555
O29 C58 1_555 1_555
C42 C36 1_555 1_555
H27 C42 1_555 1_555
H28 C42 1_555 1_555
C43 O15 1_555 1_555
O33 C65 1_555 1_555
O34 Cd12 1_555 1_555
C44 C43 1_555 1_555
H29 C44 1_555 1_555
C45 C44 1_555 1_555
H30 C45 1_555 1_555
C46 C45 1_555 1_555
C47 C46 1_555 1_555
H31 C47 1_555 1_555
C48 C43 1_555 1_555
H32 C48 1_555 1_555
C58 C36 1_555 1_555
H39 C58 1_555 1_555
H40 C58 1_555 1_555
C59 O29 1_555 1_555
C60 C59 1_555 1_555
H41 C60 1_555 1_555
C61 C60 1_555 1_555
H42 C61 1_555 1_555
C62 C61 1_555 1_555
C63 C62 1_555 1_555
H43 C63 1_555 1_555
C64 C59 1_555 1_555
H44 C64 1_555 1_555
C65 C62 1_555 1_555
O36 C37 1_555 1_555
C66 C40 1_555 1_555
C67 C38 1_555 1_555
H45 C67 1_555 1_555
C68 C66 1_555 1_555
H46 C68 1_555 1_555
C38 C41 1_555 1_555
C46 C49 1_555 1_555
C47 C48 1_555 1_555
C63 C64 1_555 1_555
O36 C66 1_555 1_555
C67 C68 1_555 1_555
C37 H56 1_555 1_555
Cd4 O2 1_555 1_555
C3 C4 1_555 1_555
Cd12_2 O1 1_555 1_555
O1 C8 1_555 1_555
C4 H1 1_555 1_555
O2 C8 1_555 1_555
O3 C9 1_555 1_555
C5 C6 1_555 1_555
C6 H2 1_555 1_555
C7 C6 1_555 1_555
H3 C7 1_555 1_555
C8 C5 1_555 1_555
O9 C25 1_555 1_555
C9 C3 1_555 1_555
H4 C9 1_555 1_555
H5 C9 1_555 1_555
C10 O3 1_555 1_555
O34 C32 1_555 1_555
C11 C10 1_555 1_555
H6 C11 1_555 1_555
C12 C11 1_555 1_555
H7 C12 1_555 1_555
C13 C12 1_555 1_555
C14 C13 1_555 1_555
H8 C14 1_555 1_555
C15 C10 1_555 1_555
H9 C15 1_555 1_555
C16 C13 1_555 1_555
C25 C3 1_555 1_555
H16 C25 1_555 1_555
H17 C25 1_555 1_555
C26 O9 1_555 1_555
C27 C26 1_555 1_555
H18 C27 1_555 1_555
C28 C27 1_555 1_555
H19 C28 1_555 1_555
C29 C28 1_555 1_555
C30 C29 1_555 1_555
H20 C30 1_555 1_555
C31 C26 1_555 1_555
H21 C31 1_555 1_555
C32 C29 1_555 1_555
O12 C4 1_555 1_555
C33 C7 1_555 1_555
C34 C5 1_555 1_555
H22 C34 1_555 1_555
C35 C33 1_555 1_555
H23 C35 1_555 1_555
O24 Cd4 1_555 1_555
O27 Cd4 1_555 1_555
O31 Cd4 1_555 1_555
Cd12_2 O24 1_555 1_555
C14 C15 1_555 1_555
C30 C31 1_555 1_555
O12 C33 1_555 1_555
C34 C35 1_555 1_555
C4 H55 1_555 1_555
O6 C17 1_555 1_555
H10 C17 1_555 1_555
H11 C17 1_555 1_555
C18 O6 1_555 1_555
C19 C18 1_555 1_555
H12 C19 1_555 1_555
C20 C19 1_555 1_555
H13 C20 1_555 1_555
C21 C20 1_555 1_555
C22 C21 1_555 1_555
H14 C22 1_555 1_555
C23 C18 1_555 1_555
H15 C23 1_555 1_555
C22 C23 1_555 1_555
O24 C24 1_555 1_555
O27 C24 1_555 1_555

#END
