
###############################################################################
#
# This file contains modified crystal structure data generated from the
# MOF subset of the Cambridge Structural Database (CSD) v543 
# hosted by the Cambridge Crystallographic Data Centre (CCDC).
#
# This work is licensed under the Creative Commons
# Attribution-NonCommercial-ShareAlike 4.0 International License.
# To view a copy of this license, visit
# http://creativecommons.org/licenses/by-nc-sa/4.0/
# or send a letter to
# Creative Commons, PO Box 1866, Mountain View, CA 94042, USA.
#
# CIF created using the CSD Python API on 29 September 2022
# The structure has been converted into the P1 space group
# The structure has a 3D framework
# The original CSD entry OXALUV is in the monoclinic crystal system
# The framework has been calculated to contain at least 10.0% void space
# The void calculation uses a probe of radius 1.32A, grid spacing 0.4
#
###############################################################################

data_OXALUV
_chemical_formula_moiety         '(C264 H192 In18 O104)n'
_symmetry_cell_setting           triclinic
_symmetry_space_group_name_H-M   'P 1'
_symmetry_Int_Tables_number      1
_space_group_name_Hall           'P 1'
loop_
_symmetry_equiv_pos_site_id
_symmetry_equiv_pos_as_xyz
1 x,y,z
_cell_length_a                   19.651(5)
_cell_length_b                   38.598(8)
_cell_length_c                   21.519(5)
_cell_angle_alpha                90
_cell_angle_beta                 117.068(4)
_cell_angle_gamma                90
_cell_volume                     14534.1
loop_
_atom_site_label
_atom_site_type_symbol
_atom_site_fract_x
_atom_site_fract_y
_atom_site_fract_z
In5 In 0.0000 0.391293(11) 0.2500
O15 O 0.0611(4) 0.20189(12) 0.1047(3)
C34 C 0.0956(2) 0.15045(12) 0.0666(2)
In12 In 0.478785(19) 0.079582(8) 0.581629(16)
O16 O 0.1885(4) 0.14770(19) 0.0278(4)
C35 C 0.0773(4) 0.1914(2) 0.0531(3)
H25 H 0.1221 0.2040 0.0552
H26 H 0.0331 0.1953 0.0069
In15 In 0.5000 0.0000 0.0000
In16 In 0.5000 0.0000 0.5000
O17 O 0.1846(3) 0.11298(14) 0.1535(2)
C36 C 0.0504(5) 0.23754(16) 0.1071(5)
C37 C 0.0470(7) 0.2471(2) 0.1636(5)
H27 H 0.0520 0.2305 0.1981
C38 C 0.0360(6) 0.28253(17) 0.1731(4)
H28 H 0.0361 0.2898 0.2153
O22 O 0.0244(3) 0.34950(10) 0.1976(2)
C39 C 0.0251(4) 0.30665(13) 0.1224(3)
C40 C 0.0278(5) 0.29686(16) 0.0645(4)
H29 H 0.0203 0.3133 0.0290
C41 C 0.0425(5) 0.26081(19) 0.0559(4)
H30 H 0.0466 0.2534 0.0157
O30 O 0.4186(2) 0.03291(9) 0.41959(18)
C42 C 0.0121(3) 0.34285(12) 0.1357(3)
O33 O 0.4198(3) 0.08412(10) 0.46979(19)
C43 C 0.1228(5) 0.1342(2) 0.0160(5)
H31 H 0.1281 0.1088 0.0231
C44 C 0.2241(7) 0.1172(4) 0.0034(6)
C48 C 0.2909(5) 0.0679(3) 0.0030(6)
H35 H 0.2994 0.0438 0.0122
C49 C 0.2370(7) 0.0843(4) 0.0165(6)
H36 H 0.2092 0.0717 0.0353
C51 C 0.1581(4) 0.14603(18) 0.1430(4)
H37 H 0.2007 0.1623 0.1525
H38 H 0.1365 0.1515 0.1754
C52 C 0.2382(4) 0.10449(18) 0.2194(3)
C53 C 0.2612(5) 0.12391(19) 0.2776(4)
H39 H 0.2409 0.1465 0.2748
C54 C 0.3154(5) 0.11077(18) 0.3426(4)
H40 H 0.3331 0.1253 0.3826
C55 C 0.3427(3) 0.07801(13) 0.3494(3)
C56 C 0.3184(4) 0.05825(17) 0.2899(3)
H41 H 0.3379 0.0354 0.2930
C57 C 0.2650(4) 0.07117(19) 0.2243(3)
H42 H 0.2478 0.0570 0.1839
C58 C 0.3978(3) 0.06386(13) 0.4182(2)
C59 C 0.0160(5) 0.13192(17) 0.0556(3)
H43 H 0.0245 0.1073 0.0699
In11 In 0.521215(19) 0.079582(8) 0.918371(16)
In15_2 In 0.5000 0.0000 1.0000
O25 O 0.4159(2) 0.08301(10) 0.9277(2)
O28 O 0.4099(2) 0.03695(10) 0.9858(2)
H32 H 0.0847 0.1387 0.9671
C45 C 0.2628(8) 0.1348(3) 0.9789(6)
H33 H 0.2525 0.1589 0.9701
C46 C 0.3195(6) 0.1194(2) 0.9649(6)
H34 H 0.3477 0.1329 0.9476
C47 C 0.3327(4) 0.08560(18) 0.9765(4)
C50 C 0.3912(3) 0.06689(14) 0.9616(3)
In15_3 In 0.5000 1.0000 0.0000
In16_2 In 0.5000 1.0000 0.5000
In15_4 In 0.5000 1.0000 1.0000
In5_2 In 1.0000 0.391293(11) 0.2500
In10 In 0.978785(19) 0.420418(8) 0.081629(16)
O19 O 0.9902(2) 0.36455(9) 0.08697(19)
O35 O 0.5802(3) 0.08412(10) 0.03021(19)
H44 H 0.9936 0.1440 0.0826
C60 C 0.8727(5) 0.1126(2) 0.0119(4)
H45 H 0.9095 0.1099 0.0593
H46 H 0.7731 0.0925 0.0186
In1 In 0.5000 0.108707(11) 0.7500
O4 O 0.0288(3) 0.13493(16) 0.5126(3)
O5 O 0.0098(2) 0.36455(9) 0.41303(19)
O11 O 0.3649(2) 0.08603(10) 0.5724(2)
O12 O 0.3820(2) 0.11090(12) 0.6717(2)
O13 O 0.52821(19) 0.07402(9) 0.69066(16)
O14 O 0.47772(19) 0.02453(8) 0.57464(17)
H20 H 0.0064 0.1440 0.4174
C27 C 0.1273(5) 0.1126(2) 0.4881(4)
H21 H 0.0905 0.1099 0.4407
C28 C 0.2101(4) 0.1025(2) 0.5124(4)
H22 H 0.2269 0.0925 0.4814
C29 C 0.2589(3) 0.10843(15) 0.5803(3)
C30 C 0.2293(4) 0.1223(2) 0.6232(5)
H23 H 0.2626 0.1254 0.6714
C31 C 0.1538(4) 0.1316(3) 0.5980(5)
H24 H 0.1359 0.1427 0.6273
C32 C 0.1081(4) 0.12491(18) 0.5339(4)
C33 C 0.3418(3) 0.10136(14) 0.6107(3)
In7 In 0.021215(19) 0.420418(8) 0.418371(16)
O18 O 0.9712(3) 0.13493(16) 0.9874(3)
O20 O 0.4902(2) 0.13545(9) 0.58697(19)
O21 O 0.5098(2) 0.13545(9) 0.91303(19)
O23 O 0.5244(3) 0.15050(10) 0.6976(2)
O24 O 0.4756(3) 0.15050(10) 0.8024(2)
O26 O 0.5841(2) 0.08301(10) 0.5723(2)
O36 O 0.6351(2) 0.08603(10) 0.9276(2)
O37 O 0.6180(2) 0.11090(12) 0.8283(2)
O38 O 0.47179(19) 0.07402(9) 0.80934(16)
O41 O 0.52228(19) 0.02453(8) 0.92536(17)
C61 C 0.7899(4) 0.1025(2) 0.9876(4)
C62 C 0.7411(3) 0.10843(15) 0.9197(3)
C63 C 0.7707(4) 0.1223(2) 0.8768(5)
H47 H 0.7374 0.1254 0.8286
C64 C 0.8462(4) 0.1316(3) 0.9020(5)
H48 H 0.8641 0.1427 0.8727
C65 C 0.8919(4) 0.12491(18) 0.9661(4)
C66 C 0.6582(3) 0.10136(14) 0.8893(3)
O1 O 0.9389(4) 0.20189(12) 0.3953(3)
C1 C 0.9044(2) 0.15045(12) 0.4334(2)
O2 O 0.8115(4) 0.14770(19) 0.4722(4)
C2 C 0.9227(4) 0.1914(2) 0.4469(3)
H1 H 0.8779 0.2040 0.4448
H2 H 0.9669 0.1953 0.4931
O3 O 0.8154(3) 0.11298(14) 0.3465(2)
C3 C 0.9496(5) 0.23754(16) 0.3929(5)
C4 C 0.9530(7) 0.2471(2) 0.3364(5)
H3 H 0.9480 0.2305 0.3019
C5 C 0.9640(6) 0.28253(17) 0.3269(4)
H4 H 0.9639 0.2898 0.2847
O6 O 0.9756(3) 0.34950(10) 0.3024(2)
C6 C 0.9749(4) 0.30665(13) 0.3776(3)
C7 C 0.9722(5) 0.29686(16) 0.4355(4)
H5 H 0.9797 0.3133 0.4710
O8 O 0.5901(2) 0.03695(10) 0.5142(2)
C8 C 0.9575(5) 0.26081(19) 0.4441(4)
H6 H 0.9534 0.2534 0.4843
O9 O 0.5814(2) 0.03291(9) 0.08041(18)
C9 C 0.9879(3) 0.34285(12) 0.3643(3)
C10 C 0.8772(5) 0.1342(2) 0.4840(5)
H7 H 0.8719 0.1088 0.4769
H8 H 0.9153 0.1387 0.5329
C11 C 0.7759(7) 0.1172(4) 0.4966(6)
C12 C 0.7372(8) 0.1348(3) 0.5211(6)
H9 H 0.7475 0.1589 0.5299
C13 C 0.6805(6) 0.1194(2) 0.5351(6)
H10 H 0.6523 0.1329 0.5524
C14 C 0.6673(4) 0.08560(18) 0.5235(4)
C15 C 0.7091(5) 0.0679(3) 0.4970(6)
H11 H 0.7006 0.0438 0.4878
C16 C 0.7630(7) 0.0843(4) 0.4835(6)
H12 H 0.7908 0.0717 0.4647
C17 C 0.6088(3) 0.06689(14) 0.5384(3)
C18 C 0.8419(4) 0.14603(18) 0.3570(4)
H13 H 0.7993 0.1623 0.3475
H14 H 0.8635 0.1515 0.3246
C19 C 0.7618(4) 0.10449(18) 0.2806(3)
C20 C 0.7388(5) 0.12391(19) 0.2224(4)
H15 H 0.7591 0.1465 0.2252
C21 C 0.6846(5) 0.11077(18) 0.1574(4)
H16 H 0.6669 0.1253 0.1174
C22 C 0.6573(3) 0.07801(13) 0.1506(3)
C23 C 0.6816(4) 0.05825(17) 0.2101(3)
H17 H 0.6621 0.0354 0.2070
C24 C 0.7350(4) 0.07117(19) 0.2757(3)
H18 H 0.7522 0.0570 0.3161
C25 C 0.6022(3) 0.06386(13) 0.0818(2)
C26 C 0.9840(5) 0.13192(17) 0.4444(3)
H19 H 0.9755 0.1073 0.4301
O29 O 0.4099(2) 0.96305(10) 0.4858(2)
O32 O 0.5814(2) 0.96709(9) 0.58041(18)
O40 O 0.52228(19) 0.97547(8) 0.42536(17)
O29_2 O 0.5901(2) 0.96305(10) 0.0142(2)
O40_2 O 0.47772(19) 0.97547(8) 0.07464(17)
O32_2 O 0.4186(2) 0.96709(9) 0.91959(18)
In15_5 In 0.0000 0.5000 0.0000
In16_3 In -0.0000 0.5000 0.5000
In11_2 In 0.021215(19) 0.579582(8) 0.918371(16)
In15_6 In 0.0000 0.5000 1.0000
In5_3 In 0.5000 0.891293(11) 0.2500
O15_2 O 0.5611(4) 0.70189(12) 0.1047(3)
C34_2 C 0.5956(2) 0.65045(12) 0.0666(2)
In10_2 In 0.478785(19) 0.920418(8) 0.081629(16)
In12_2 In 0.978785(19) 0.579582(8) 0.581629(16)
O16_2 O 0.6885(4) 0.64770(19) 0.0278(4)
C35_2 C 0.5773(4) 0.6914(2) 0.0531(3)
H25_2 H 0.6221 0.7040 0.0552
H26_2 H 0.5331 0.6953 0.0069
In15_7 In 1.0000 0.5000 0.0000
In16_4 In 1.0000 0.5000 0.5000
O17_2 O 0.6846(3) 0.61298(14) 0.1535(2)
C36_2 C 0.5504(5) 0.73754(16) 0.1071(5)
C37_2 C 0.5470(7) 0.7471(2) 0.1636(5)
H27_2 H 0.5520 0.7305 0.1981
O19_2 O 0.4902(2) 0.86455(9) 0.08697(19)
C38_2 C 0.5360(6) 0.78253(17) 0.1731(4)
H28_2 H 0.5361 0.7898 0.2153
O22_2 O 0.5244(3) 0.84950(10) 0.1976(2)
C39_2 C 0.5251(4) 0.80665(13) 0.1224(3)
C40_2 C 0.5278(5) 0.79686(16) 0.0645(4)
H29_2 H 0.5203 0.8133 0.0290
C41_2 C 0.5425(5) 0.76081(19) 0.0559(4)
H30_2 H 0.5466 0.7534 0.0157
O30_2 O 0.9186(2) 0.53291(9) 0.41959(18)
C42_2 C 0.5121(3) 0.84285(12) 0.1357(3)
O33_2 O 0.9198(3) 0.58412(10) 0.46979(19)
O35_2 O 0.0802(3) 0.58412(10) 0.03021(19)
C43_2 C 0.6228(5) 0.6342(2) 0.0160(5)
H31_2 H 0.6281 0.6088 0.0231
C44_2 C 0.7241(7) 0.6172(4) 0.0034(6)
C48_2 C 0.7909(5) 0.5679(3) 0.0030(6)
H35_2 H 0.7994 0.5438 0.0122
C49_2 C 0.7370(7) 0.5843(4) 0.0165(6)
H36_2 H 0.7092 0.5717 0.0353
C51_2 C 0.6581(4) 0.64603(18) 0.1430(4)
H37_2 H 0.7007 0.6623 0.1525
H38_2 H 0.6365 0.6515 0.1754
C52_2 C 0.7382(4) 0.60449(18) 0.2194(3)
C53_2 C 0.7612(5) 0.62391(19) 0.2776(4)
H39_2 H 0.7409 0.6465 0.2748
C54_2 C 0.8154(5) 0.61077(18) 0.3426(4)
H40_2 H 0.8331 0.6253 0.3826
C55_2 C 0.8427(3) 0.57801(13) 0.3494(3)
C56_2 C 0.8184(4) 0.55825(17) 0.2899(3)
H41_2 H 0.8379 0.5354 0.2930
C57_2 C 0.7650(4) 0.57117(19) 0.2243(3)
H42_2 H 0.7478 0.5570 0.1839
C58_2 C 0.8978(3) 0.56386(13) 0.4182(2)
C59_2 C 0.5160(5) 0.63192(17) 0.0556(3)
H43_2 H 0.5245 0.6073 0.0699
H44_2 H 0.4936 0.6440 0.0826
C60_2 C 0.3727(5) 0.6126(2) 0.0119(4)
H45_2 H 0.4095 0.6099 0.0593
H46_2 H 0.2731 0.5925 0.0186
In1_2 In 0.0000 0.608707(11) 0.7500
O13_2 O 0.02821(19) 0.57402(9) 0.69066(16)
In15_8 In 1.0000 0.5000 1.0000
O18_2 O 0.4712(3) 0.63493(16) 0.9874(3)
O21_2 O 0.0098(2) 0.63545(9) 0.91303(19)
O23_2 O 0.0244(3) 0.65050(10) 0.6976(2)
O25_2 O 0.9159(2) 0.58301(10) 0.9277(2)
O26_2 O 0.0841(2) 0.58301(10) 0.5723(2)
O28_2 O 0.9099(2) 0.53695(10) 0.9858(2)
H32_2 H 0.5847 0.6387 0.9671
O36_2 O 0.1351(2) 0.58603(10) 0.9276(2)
O37_2 O 0.1180(2) 0.61090(12) 0.8283(2)
C45_2 C 0.7628(8) 0.6348(3) 0.9789(6)
H33_2 H 0.7525 0.6589 0.9701
C46_2 C 0.8195(6) 0.6194(2) 0.9649(6)
H34_2 H 0.8477 0.6329 0.9476
O41_2 O 0.02228(19) 0.52453(8) 0.92536(17)
C47_2 C 0.8327(4) 0.58560(18) 0.9765(4)
C50_2 C 0.8912(3) 0.56689(14) 0.9616(3)
C61_2 C 0.2899(4) 0.6025(2) 0.9876(4)
C62_2 C 0.2411(3) 0.60843(15) 0.9197(3)
C63_2 C 0.2707(4) 0.6223(2) 0.8768(5)
H47_2 H 0.2374 0.6254 0.8286
C64_2 C 0.3462(4) 0.6316(3) 0.9020(5)
H48_2 H 0.3641 0.6427 0.8727
C65_2 C 0.3919(4) 0.62491(18) 0.9661(4)
C66_2 C 0.1582(3) 0.60136(14) 0.8893(3)
In1_3 In 1.0000 0.608707(11) 0.7500
O1_2 O 0.4389(4) 0.70189(12) 0.3953(3)
C1_2 C 0.4044(2) 0.65045(12) 0.4334(2)
O2_2 O 0.3115(4) 0.64770(19) 0.4722(4)
C2_2 C 0.4227(4) 0.6914(2) 0.4469(3)
H1_2 H 0.3779 0.7040 0.4448
H2_2 H 0.4669 0.6953 0.4931
O3_2 O 0.3154(3) 0.61298(14) 0.3465(2)
C3_2 C 0.4496(5) 0.73754(16) 0.3929(5)
O4_2 O 0.5288(3) 0.63493(16) 0.5126(3)
C4_2 C 0.4530(7) 0.7471(2) 0.3364(5)
H3_2 H 0.4480 0.7305 0.3019
O5_2 O 0.5098(2) 0.86455(9) 0.41303(19)
C5_2 C 0.4640(6) 0.78253(17) 0.3269(4)
H4_2 H 0.4639 0.7898 0.2847
O6_2 O 0.4756(3) 0.84950(10) 0.3024(2)
C6_2 C 0.4749(4) 0.80665(13) 0.3776(3)
C7_2 C 0.4722(5) 0.79686(16) 0.4355(4)
H5_2 H 0.4797 0.8133 0.4710
O8_2 O 0.0901(2) 0.53695(10) 0.5142(2)
C8_2 C 0.4575(5) 0.76081(19) 0.4441(4)
H6_2 H 0.4534 0.7534 0.4843
O9_2 O 0.0814(2) 0.53291(9) 0.08041(18)
C9_2 C 0.4879(3) 0.84285(12) 0.3643(3)
C10_2 C 0.3772(5) 0.6342(2) 0.4840(5)
H7_2 H 0.3719 0.6088 0.4769
H8_2 H 0.4153 0.6387 0.5329
O11_2 O 0.8649(2) 0.58603(10) 0.5724(2)
C11_2 C 0.2759(7) 0.6172(4) 0.4966(6)
O12_2 O 0.8820(2) 0.61090(12) 0.6717(2)
C12_2 C 0.2372(8) 0.6348(3) 0.5211(6)
H9_2 H 0.2475 0.6589 0.5299
C13_2 C 0.1805(6) 0.6194(2) 0.5351(6)
H10_2 H 0.1523 0.6329 0.5524
O14_2 O 0.97772(19) 0.52453(8) 0.57464(17)
C14_2 C 0.1673(4) 0.58560(18) 0.5235(4)
C15_2 C 0.2091(5) 0.5679(3) 0.4970(6)
H11_2 H 0.2006 0.5438 0.4878
C16_2 C 0.2630(7) 0.5843(4) 0.4835(6)
H12_2 H 0.2908 0.5717 0.4647
C17_2 C 0.1088(3) 0.56689(14) 0.5384(3)
C18_2 C 0.3419(4) 0.64603(18) 0.3570(4)
H13_2 H 0.2993 0.6623 0.3475
H14_2 H 0.3635 0.6515 0.3246
C19_2 C 0.2618(4) 0.60449(18) 0.2806(3)
C20_2 C 0.2388(5) 0.62391(19) 0.2224(4)
H15_2 H 0.2591 0.6465 0.2252
C21_2 C 0.1846(5) 0.61077(18) 0.1574(4)
H16_2 H 0.1669 0.6253 0.1174
C22_2 C 0.1573(3) 0.57801(13) 0.1506(3)
C23_2 C 0.1816(4) 0.55825(17) 0.2101(3)
H17_2 H 0.1621 0.5354 0.2070
C24_2 C 0.2350(4) 0.57117(19) 0.2757(3)
H18_2 H 0.2522 0.5570 0.3161
C25_2 C 0.1022(3) 0.56386(13) 0.0818(2)
C26_2 C 0.4840(5) 0.63192(17) 0.4444(3)
H19_2 H 0.4755 0.6073 0.4301
H20_2 H 0.5064 0.6440 0.4174
C27_2 C 0.6273(5) 0.6126(2) 0.4881(4)
H21_2 H 0.5905 0.6099 0.4407
C28_2 C 0.7101(4) 0.6025(2) 0.5124(4)
H22_2 H 0.7269 0.5925 0.4814
C29_2 C 0.7589(3) 0.60843(15) 0.5803(3)
C30_2 C 0.7293(4) 0.6223(2) 0.6232(5)
H23_2 H 0.7626 0.6254 0.6714
C31_2 C 0.6538(4) 0.6316(3) 0.5980(5)
H24_2 H 0.6359 0.6427 0.6273
C32_2 C 0.6081(4) 0.62491(18) 0.5339(4)
C33_2 C 0.8418(3) 0.60136(14) 0.6107(3)
In7_2 In 0.521215(19) 0.920418(8) 0.418371(16)
O20_2 O 0.9902(2) 0.63545(9) 0.58697(19)
O24_2 O 0.9756(3) 0.65050(10) 0.8024(2)
O32_3 O 0.0814(2) 0.46709(9) 0.58041(18)
O38_2 O 0.97179(19) 0.57402(9) 0.80934(16)
O40_3 O 0.02228(19) 0.47547(8) 0.42536(17)
O29_3 O 0.9099(2) 0.46305(10) 0.4858(2)
O29_4 O 0.0901(2) 0.46305(10) 0.0142(2)
O40_4 O 0.97772(19) 0.47547(8) 0.07464(17)
O32_4 O 0.9186(2) 0.46709(9) 0.91959(18)
O1_3 O 0.0611(4) 0.79811(12) 0.6047(3)
C1_3 C 0.0956(2) 0.84955(12) 0.5666(2)
O2_3 O 0.1885(4) 0.85230(19) 0.5278(4)
C2_3 C 0.0773(4) 0.8086(2) 0.5531(3)
H1_3 H 0.1221 0.7960 0.5552
H2_3 H 0.0331 0.8047 0.5069
O3_3 O 0.1846(3) 0.88702(14) 0.6535(2)
C3_3 C 0.0504(5) 0.76246(16) 0.6071(5)
C4_3 C 0.0470(7) 0.7529(2) 0.6636(5)
H3_3 H 0.0520 0.7695 0.6981
C5_3 C 0.0360(6) 0.71747(17) 0.6731(4)
H4_3 H 0.0361 0.7102 0.7153
C6_3 C 0.0251(4) 0.69335(13) 0.6224(3)
O7 O 0.4159(2) 0.91699(10) 0.4277(2)
C7_3 C 0.0278(5) 0.70314(16) 0.5645(4)
H5_3 H 0.0203 0.6867 0.5290
C8_3 C 0.0425(5) 0.73919(19) 0.5559(4)
H6_3 H 0.0466 0.7466 0.5157
C9_3 C 0.0121(3) 0.65715(12) 0.6357(3)
O10 O 0.4198(3) 0.91588(10) 0.96979(19)
C10_3 C 0.1228(5) 0.8658(2) 0.5160(5)
H7_3 H 0.1281 0.8912 0.5231
H8_3 H 0.0847 0.8613 0.4671
C11_3 C 0.2241(7) 0.8828(4) 0.5034(6)
C12_3 C 0.2628(8) 0.8652(3) 0.4789(6)
H9_3 H 0.2525 0.8411 0.4701
C13_3 C 0.3195(6) 0.8806(2) 0.4649(6)
H10_3 H 0.3477 0.8671 0.4476
C14_3 C 0.3327(4) 0.91440(18) 0.4765(4)
C15_3 C 0.2909(5) 0.9321(3) 0.5030(6)
H11_3 H 0.2994 0.9562 0.5122
C16_3 C 0.2370(7) 0.9157(4) 0.5165(6)
H12_3 H 0.2092 0.9283 0.5353
C17_3 C 0.3912(3) 0.93311(14) 0.4616(3)
C18_3 C 0.1581(4) 0.85397(18) 0.6430(4)
H13_3 H 0.2007 0.8377 0.6525
H14_3 H 0.1365 0.8485 0.6754
C19_3 C 0.2382(4) 0.89551(18) 0.7194(3)
C20_3 C 0.2612(5) 0.87609(19) 0.7776(4)
H15_3 H 0.2409 0.8535 0.7748
C21_3 C 0.3154(5) 0.88923(18) 0.8426(4)
H16_3 H 0.3331 0.8747 0.8826
C22_3 C 0.3427(3) 0.92199(13) 0.8494(3)
C23_3 C 0.3184(4) 0.94175(17) 0.7899(3)
H17_3 H 0.3379 0.9646 0.7930
C24_3 C 0.2650(4) 0.92883(19) 0.7243(3)
H18_3 H 0.2478 0.9430 0.6839
C25_3 C 0.3978(3) 0.93614(13) 0.9182(2)
C26_3 C 0.0160(5) 0.86808(17) 0.5556(3)
H19_3 H 0.0245 0.8927 0.5699
O4_3 O 0.9712(3) 0.86507(16) 0.4874(3)
O11_3 O 0.6351(2) 0.91397(10) 0.4276(2)
O12_3 O 0.6180(2) 0.88910(12) 0.3283(2)
O13_3 O 0.47179(19) 0.92598(9) 0.30934(16)
H20_3 H 0.9936 0.8560 0.5826
C27_3 C 0.8727(5) 0.8874(2) 0.5119(4)
H21_3 H 0.9095 0.8901 0.5593
C28_3 C 0.7899(4) 0.8975(2) 0.4876(4)
H22_3 H 0.7731 0.9075 0.5186
C29_3 C 0.7411(3) 0.89157(15) 0.4197(3)
C30_3 C 0.7707(4) 0.8777(2) 0.3768(5)
H23_3 H 0.7374 0.8746 0.3286
C31_3 C 0.8462(4) 0.8684(3) 0.4020(5)
H24_3 H 0.8641 0.8573 0.3727
C32_3 C 0.8919(4) 0.87509(18) 0.4661(4)
C33_3 C 0.6582(3) 0.89864(14) 0.3893(3)
O18_3 O 0.0288(3) 0.86507(16) 0.0126(3)
O27 O 0.5841(2) 0.91699(10) 0.0723(2)
O34 O 0.5802(3) 0.91588(10) 0.53021(19)
O36_3 O 0.3649(2) 0.91397(10) 0.0724(2)
O37_3 O 0.3820(2) 0.88910(12) 0.1717(2)
O38_3 O 0.52821(19) 0.92598(9) 0.19066(16)
C61_3 C 0.2101(4) 0.8975(2) 0.0124(4)
C62_3 C 0.2589(3) 0.89157(15) 0.0803(3)
C63_3 C 0.2293(4) 0.8777(2) 0.1232(5)
H47_3 H 0.2626 0.8746 0.1714
C64_3 C 0.1538(4) 0.8684(3) 0.0980(5)
H48_3 H 0.1359 0.8573 0.1273
C65_3 C 0.1081(4) 0.87509(18) 0.0339(4)
C66_3 C 0.3418(3) 0.89864(14) 0.1107(3)
H44_3 H 0.0064 0.8560 0.9174
C60_3 C 0.1273(5) 0.8874(2) 0.9881(4)
H45_3 H 0.0905 0.8901 0.9407
H46_3 H 0.2269 0.9075 0.9814
H32_3 H 0.9153 0.8613 0.0329
C45_3 C 0.7372(8) 0.8652(3) 0.0211(6)
H33_3 H 0.7475 0.8411 0.0299
C46_3 C 0.6805(6) 0.8806(2) 0.0351(6)
H34_3 H 0.6523 0.8671 0.0524
C47_3 C 0.6673(4) 0.91440(18) 0.0235(4)
C50_3 C 0.6088(3) 0.93311(14) 0.0384(3)
O15_3 O 0.9389(4) 0.79811(12) 0.8953(3)
C34_3 C 0.9044(2) 0.84955(12) 0.9334(2)
O16_3 O 0.8115(4) 0.85230(19) 0.9722(4)
C35_3 C 0.9227(4) 0.8086(2) 0.9469(3)
H25_3 H 0.8779 0.7960 0.9448
H26_3 H 0.9669 0.8047 0.9931
O17_3 O 0.8154(3) 0.88702(14) 0.8465(2)
C36_3 C 0.9496(5) 0.76246(16) 0.8929(5)
C37_3 C 0.9530(7) 0.7529(2) 0.8364(5)
H27_3 H 0.9480 0.7695 0.8019
C38_3 C 0.9640(6) 0.71747(17) 0.8269(4)
H28_3 H 0.9639 0.7102 0.7847
C39_3 C 0.9749(4) 0.69335(13) 0.8776(3)
C40_3 C 0.9722(5) 0.70314(16) 0.9355(4)
H29_3 H 0.9797 0.6867 0.9710
C41_3 C 0.9575(5) 0.73919(19) 0.9441(4)
H30_3 H 0.9534 0.7466 0.9843
C42_3 C 0.9879(3) 0.65715(12) 0.8643(3)
C43_3 C 0.8772(5) 0.8658(2) 0.9840(5)
H31_3 H 0.8719 0.8912 0.9769
C44_3 C 0.7759(7) 0.8828(4) 0.9966(6)
C48_3 C 0.7091(5) 0.9321(3) 0.9970(6)
H35_3 H 0.7006 0.9562 0.9878
C49_3 C 0.7630(7) 0.9157(4) 0.9835(6)
H36_3 H 0.7908 0.9283 0.9647
C51_3 C 0.8419(4) 0.85397(18) 0.8570(4)
H37_3 H 0.7993 0.8377 0.8475
H38_3 H 0.8635 0.8485 0.8246
C52_3 C 0.7618(4) 0.89551(18) 0.7806(3)
C53_3 C 0.7388(5) 0.87609(19) 0.7224(4)
H39_3 H 0.7591 0.8535 0.7252
C54_3 C 0.6846(5) 0.88923(18) 0.6574(4)
H40_3 H 0.6669 0.8747 0.6174
C55_3 C 0.6573(3) 0.92199(13) 0.6506(3)
C56_3 C 0.6816(4) 0.94175(17) 0.7101(3)
H41_3 H 0.6621 0.9646 0.7070
C57_3 C 0.7350(4) 0.92883(19) 0.7757(3)
H42_3 H 0.7522 0.9430 0.8161
C58_3 C 0.6022(3) 0.93614(13) 0.5818(2)
C59_3 C 0.9840(5) 0.86808(17) 0.9444(3)
H43_3 H 0.9755 0.8927 0.9301
O1_4 O 0.5611(4) 0.29811(12) 0.6047(3)
C1_4 C 0.5956(2) 0.34955(12) 0.5666(2)
O2_4 O 0.6885(4) 0.35230(19) 0.5278(4)
C2_4 C 0.5773(4) 0.3086(2) 0.5531(3)
H1_4 H 0.6221 0.2960 0.5552
H2_4 H 0.5331 0.3047 0.5069
O3_4 O 0.6846(3) 0.38702(14) 0.6535(2)
C3_4 C 0.5504(5) 0.26246(16) 0.6071(5)
O4_4 O 0.4712(3) 0.36507(16) 0.4874(3)
C4_4 C 0.5470(7) 0.2529(2) 0.6636(5)
H3_4 H 0.5520 0.2695 0.6981
C5_4 C 0.5360(6) 0.21747(17) 0.6731(4)
H4_4 H 0.5361 0.2102 0.7153
C6_4 C 0.5251(4) 0.19335(13) 0.6224(3)
O7_2 O 0.9159(2) 0.41699(10) 0.4277(2)
C7_4 C 0.5278(5) 0.20314(16) 0.5645(4)
H5_4 H 0.5203 0.1867 0.5290
C8_4 C 0.5425(5) 0.23919(19) 0.5559(4)
H6_4 H 0.5466 0.2466 0.5157
C9_4 C 0.5121(3) 0.15715(12) 0.6357(3)
O10_2 O 0.9198(3) 0.41588(10) 0.96979(19)
C10_4 C 0.6228(5) 0.3658(2) 0.5160(5)
H7_4 H 0.6281 0.3912 0.5231
H8_4 H 0.5847 0.3613 0.4671
O11_4 O 0.1351(2) 0.41397(10) 0.4276(2)
C11_4 C 0.7241(7) 0.3828(4) 0.5034(6)
O12_4 O 0.1180(2) 0.38910(12) 0.3283(2)
C12_4 C 0.7628(8) 0.3652(3) 0.4789(6)
H9_4 H 0.7525 0.3411 0.4701
C13_4 C 0.8195(6) 0.3806(2) 0.4649(6)
H10_4 H 0.8477 0.3671 0.4476
C14_4 C 0.8327(4) 0.41440(18) 0.4765(4)
C15_4 C 0.7909(5) 0.4321(3) 0.5030(6)
H11_4 H 0.7994 0.4562 0.5122
C16_4 C 0.7370(7) 0.4157(4) 0.5165(6)
H12_4 H 0.7092 0.4283 0.5353
C17_4 C 0.8912(3) 0.43311(14) 0.4616(3)
C18_4 C 0.6581(4) 0.35397(18) 0.6430(4)
H13_4 H 0.7007 0.3377 0.6525
H14_4 H 0.6365 0.3485 0.6754
C19_4 C 0.7382(4) 0.39551(18) 0.7194(3)
C20_4 C 0.7612(5) 0.37609(19) 0.7776(4)
H15_4 H 0.7409 0.3535 0.7748
C21_4 C 0.8154(5) 0.38923(18) 0.8426(4)
H16_4 H 0.8331 0.3747 0.8826
C22_4 C 0.8427(3) 0.42199(13) 0.8494(3)
C23_4 C 0.8184(4) 0.44175(17) 0.7899(3)
H17_4 H 0.8379 0.4646 0.7930
C24_4 C 0.7650(4) 0.42883(19) 0.7243(3)
H18_4 H 0.7478 0.4430 0.6839
C25_4 C 0.8978(3) 0.43614(13) 0.9182(2)
C26_4 C 0.5160(5) 0.36808(17) 0.5556(3)
H19_4 H 0.5245 0.3927 0.5699
H20_4 H 0.4936 0.3560 0.5826
C27_4 C 0.3727(5) 0.3874(2) 0.5119(4)
H21_4 H 0.4095 0.3901 0.5593
C28_4 C 0.2899(4) 0.3975(2) 0.4876(4)
H22_4 H 0.2731 0.4075 0.5186
C29_4 C 0.2411(3) 0.39157(15) 0.4197(3)
C30_4 C 0.2707(4) 0.3777(2) 0.3768(5)
H23_4 H 0.2374 0.3746 0.3286
C31_4 C 0.3462(4) 0.3684(3) 0.4020(5)
H24_4 H 0.3641 0.3573 0.3727
C32_4 C 0.3919(4) 0.37509(18) 0.4661(4)
C33_4 C 0.1582(3) 0.39864(14) 0.3893(3)
O27_2 O 0.0841(2) 0.41699(10) 0.0723(2)
O34_2 O 0.0802(3) 0.41588(10) 0.53021(19)
O38_4 O 0.02821(19) 0.42598(9) 0.19066(16)
O13_4 O 0.97179(19) 0.42598(9) 0.30934(16)
O18_4 O 0.5288(3) 0.36507(16) 0.0126(3)
H32_4 H 0.4153 0.3613 0.0329
O36_4 O 0.8649(2) 0.41397(10) 0.0724(2)
O37_4 O 0.8820(2) 0.38910(12) 0.1717(2)
C45_4 C 0.2372(8) 0.3652(3) 0.0211(6)
H33_4 H 0.2475 0.3411 0.0299
C46_4 C 0.1805(6) 0.3806(2) 0.0351(6)
H34_4 H 0.1523 0.3671 0.0524
C47_4 C 0.1673(4) 0.41440(18) 0.0235(4)
C50_4 C 0.1088(3) 0.43311(14) 0.0384(3)
C61_4 C 0.7101(4) 0.3975(2) 0.0124(4)
C62_4 C 0.7589(3) 0.39157(15) 0.0803(3)
C63_4 C 0.7293(4) 0.3777(2) 0.1232(5)
H47_4 H 0.7626 0.3746 0.1714
C64_4 C 0.6538(4) 0.3684(3) 0.0980(5)
H48_4 H 0.6359 0.3573 0.1273
C65_4 C 0.6081(4) 0.37509(18) 0.0339(4)
C66_4 C 0.8418(3) 0.39864(14) 0.1107(3)
O15_4 O 0.4389(4) 0.29811(12) 0.8953(3)
C34_4 C 0.4044(2) 0.34955(12) 0.9334(2)
O16_4 O 0.3115(4) 0.35230(19) 0.9722(4)
C35_4 C 0.4227(4) 0.3086(2) 0.9469(3)
H25_4 H 0.3779 0.2960 0.9448
H26_4 H 0.4669 0.3047 0.9931
O17_4 O 0.3154(3) 0.38702(14) 0.8465(2)
C36_4 C 0.4496(5) 0.26246(16) 0.8929(5)
C37_4 C 0.4530(7) 0.2529(2) 0.8364(5)
H27_4 H 0.4480 0.2695 0.8019
C38_4 C 0.4640(6) 0.21747(17) 0.8269(4)
H28_4 H 0.4639 0.2102 0.7847
C39_4 C 0.4749(4) 0.19335(13) 0.8776(3)
C40_4 C 0.4722(5) 0.20314(16) 0.9355(4)
H29_4 H 0.4797 0.1867 0.9710
C41_4 C 0.4575(5) 0.23919(19) 0.9441(4)
H30_4 H 0.4534 0.2466 0.9843
C42_4 C 0.4879(3) 0.15715(12) 0.8643(3)
C43_4 C 0.3772(5) 0.3658(2) 0.9840(5)
H31_4 H 0.3719 0.3912 0.9769
C44_4 C 0.2759(7) 0.3828(4) 0.9966(6)
C48_4 C 0.2091(5) 0.4321(3) 0.9970(6)
H35_4 H 0.2006 0.4562 0.9878
C49_4 C 0.2630(7) 0.4157(4) 0.9835(6)
H36_4 H 0.2908 0.4283 0.9647
C51_4 C 0.3419(4) 0.35397(18) 0.8570(4)
H37_4 H 0.2993 0.3377 0.8475
H38_4 H 0.3635 0.3485 0.8246
C52_4 C 0.2618(4) 0.39551(18) 0.7806(3)
C53_4 C 0.2388(5) 0.37609(19) 0.7224(4)
H39_4 H 0.2591 0.3535 0.7252
C54_4 C 0.1846(5) 0.38923(18) 0.6574(4)
H40_4 H 0.1669 0.3747 0.6174
C55_4 C 0.1573(3) 0.42199(13) 0.6506(3)
C56_4 C 0.1816(4) 0.44175(17) 0.7101(3)
H41_4 H 0.1621 0.4646 0.7070
C57_4 C 0.2350(4) 0.42883(19) 0.7757(3)
H42_4 H 0.2522 0.4430 0.8161
C58_4 C 0.1022(3) 0.43614(13) 0.5818(2)
C59_4 C 0.4840(5) 0.36808(17) 0.9444(3)
H43_4 H 0.4755 0.3927 0.9301
H44_4 H 0.5064 0.3560 0.9174
C60_4 C 0.6273(5) 0.3874(2) 0.9881(4)
H45_4 H 0.5905 0.3901 0.9407
H46_4 H 0.7269 0.4075 0.9814
loop_
_geom_bond_atom_site_label_1
_geom_bond_atom_site_label_2
_geom_bond_site_symmetry_1
_geom_bond_site_symmetry_2
In5 O22 1_555 1_555
O15 C35 1_555 1_555
C34 C35 1_555 1_555
In12 O33 1_555 1_555
O16 C43 1_555 1_555
C35 H25 1_555 1_555
H26 C35 1_555 1_555
In16 O30 1_555 1_555
O17 C51 1_555 1_555
C36 O15 1_555 1_555
C37 C36 1_555 1_555
H27 C37 1_555 1_555
C38 C37 1_555 1_555
H28 C38 1_555 1_555
O22 C42 1_555 1_555
C39 C38 1_555 1_555
C40 C39 1_555 1_555
H29 C40 1_555 1_555
C41 C36 1_555 1_555
H30 C41 1_555 1_555
O30 C58 1_555 1_555
C42 C39 1_555 1_555
O33 C58 1_555 1_555
C43 C34 1_555 1_555
H31 C43 1_555 1_555
C44 O16 1_555 1_555
H35 C48 1_555 1_555
C49 C44 1_555 1_555
H36 C49 1_555 1_555
C51 C34 1_555 1_555
H37 C51 1_555 1_555
H38 C51 1_555 1_555
C52 O17 1_555 1_555
C53 C52 1_555 1_555
H39 C53 1_555 1_555
C54 C53 1_555 1_555
H40 C54 1_555 1_555
C55 C54 1_555 1_555
C56 C55 1_555 1_555
H41 C56 1_555 1_555
C57 C52 1_555 1_555
H42 C57 1_555 1_555
C58 C55 1_555 1_555
C59 C34 1_555 1_555
H43 C59 1_555 1_555
C40 C41 1_555 1_555
C48 C49 1_555 1_555
C56 C57 1_555 1_555
In11 O25 1_555 1_555
In15_2 O28 1_555 1_555
O25 C50 1_555 1_555
O28 C50 1_555 1_555
H33 C45 1_555 1_555
C46 C45 1_555 1_555
H34 C46 1_555 1_555
C47 C46 1_555 1_555
C50 C47 1_555 1_555
In10 O19 1_555 1_555
C60 H45 1_555 1_555
In1 O12 1_555 1_555
In12 O11 1_555 1_555
O11 C33 1_555 1_555
O12 C33 1_555 1_555
O13 In1 1_555 1_555
O14 In12 1_555 1_555
C27 H21 1_555 1_555
C28 C27 1_555 1_555
H22 C28 1_555 1_555
C29 C28 1_555 1_555
C30 C29 1_555 1_555
H23 C30 1_555 1_555
C31 C30 1_555 1_555
H24 C31 1_555 1_555
C32 O4 1_555 1_555
C33 C29 1_555 1_555
In11 O21 1_555 1_555
In7 O5 1_555 1_555
In16 O14 1_555 1_555
O20 In12 1_555 1_555
O23 In1 1_555 1_555
O24 In1 1_555 1_555
O26 In12 1_555 1_555
O36 In11 1_555 1_555
O37 In1 1_555 1_555
O38 In1 1_555 1_555
O41 In11 1_555 1_555
C62 C61 1_555 1_555
C63 C62 1_555 1_555
H47 C63 1_555 1_555
C64 C63 1_555 1_555
H48 C64 1_555 1_555
C65 O18 1_555 1_555
C66 O36 1_555 1_555
In12 O13 1_555 1_555
C27 C32 1_555 1_555
C31 C32 1_555 1_555
In11 O38 1_555 1_555
O37 C66 1_555 1_555
C62 C66 1_555 1_555
C64 C65 1_555 1_555
O1 C2 1_555 1_555
C1 C2 1_555 1_555
O2 C10 1_555 1_555
C2 H1 1_555 1_555
H2 C2 1_555 1_555
In16 O8 1_555 1_555
O3 C18 1_555 1_555
C3 O1 1_555 1_555
C4 C3 1_555 1_555
H3 C4 1_555 1_555
C5 C4 1_555 1_555
H4 C5 1_555 1_555
O6 C9 1_555 1_555
C6 C5 1_555 1_555
O26 C17 1_555 1_555
C7 C6 1_555 1_555
H5 C7 1_555 1_555
O8 C17 1_555 1_555
C8 C3 1_555 1_555
H6 C8 1_555 1_555
O9 C25 1_555 1_555
C9 C6 1_555 1_555
O35 C25 1_555 1_555
C10 C1 1_555 1_555
H7 C10 1_555 1_555
H8 C10 1_555 1_555
C11 O2 1_555 1_555
C12 C11 1_555 1_555
H9 C12 1_555 1_555
C13 C12 1_555 1_555
H10 C13 1_555 1_555
C14 C13 1_555 1_555
C15 C14 1_555 1_555
H11 C15 1_555 1_555
C16 C11 1_555 1_555
H12 C16 1_555 1_555
C17 C14 1_555 1_555
C18 C1 1_555 1_555
H13 C18 1_555 1_555
H14 C18 1_555 1_555
C19 O3 1_555 1_555
C20 C19 1_555 1_555
H15 C20 1_555 1_555
C21 C20 1_555 1_555
H16 C21 1_555 1_555
C22 C21 1_555 1_555
C23 C22 1_555 1_555
H17 C23 1_555 1_555
C24 C19 1_555 1_555
H18 C24 1_555 1_555
C25 C22 1_555 1_555
C26 C1 1_555 1_555
H19 C26 1_555 1_555
In5_2 O6 1_555 1_555
In15 O9 1_555 1_555
C7 C8 1_555 1_555
C15 C16 1_555 1_555
C23 C24 1_555 1_555
O29 In16_2 1_555 1_555
O32 In16_2 1_555 1_555
O40 In16_2 1_555 1_555
O41 In15_2 1_555 1_555
O29_2 In15_3 1_555 1_555
O40_2 In15_3 1_555 1_555
O32_2 In15_4 1_555 1_555
In5_3 O22_2 1_555 1_555
O15_2 C35_2 1_555 1_555
C34_2 C35_2 1_555 1_555
In10_2 O19_2 1_555 1_555
In12_2 O33_2 1_555 1_555
O16_2 C43_2 1_555 1_555
C35_2 H25_2 1_555 1_555
H26_2 C35_2 1_555 1_555
In16_4 O30_2 1_555 1_555
O17_2 C51_2 1_555 1_555
C36_2 O15_2 1_555 1_555
C37_2 C36_2 1_555 1_555
H27_2 C37_2 1_555 1_555
O19_2 C42_2 1_555 1_555
C38_2 C37_2 1_555 1_555
H28_2 C38_2 1_555 1_555
O22_2 C42_2 1_555 1_555
C39_2 C38_2 1_555 1_555
C40_2 C39_2 1_555 1_555
H29_2 C40_2 1_555 1_555
C41_2 C36_2 1_555 1_555
H30_2 C41_2 1_555 1_555
O30_2 C58_2 1_555 1_555
C42_2 C39_2 1_555 1_555
O33_2 C58_2 1_555 1_555
C43_2 C34_2 1_555 1_555
H31_2 C43_2 1_555 1_555
C44_2 O16_2 1_555 1_555
H35_2 C48_2 1_555 1_555
C49_2 C44_2 1_555 1_555
H36_2 C49_2 1_555 1_555
C51_2 C34_2 1_555 1_555
H37_2 C51_2 1_555 1_555
H38_2 C51_2 1_555 1_555
C52_2 O17_2 1_555 1_555
C53_2 C52_2 1_555 1_555
H39_2 C53_2 1_555 1_555
C54_2 C53_2 1_555 1_555
H40_2 C54_2 1_555 1_555
C55_2 C54_2 1_555 1_555
C56_2 C55_2 1_555 1_555
H41_2 C56_2 1_555 1_555
C57_2 C52_2 1_555 1_555
H42_2 C57_2 1_555 1_555
C58_2 C55_2 1_555 1_555
C59_2 C34_2 1_555 1_555
H43_2 C59_2 1_555 1_555
H44_2 C59_2 1_555 1_555
C60_2 H45_2 1_555 1_555
C40_2 C41_2 1_555 1_555
C48_2 C49_2 1_555 1_555
C56_2 C57_2 1_555 1_555
O13_2 In1_2 1_555 1_555
In11_2 O21_2 1_555 1_555
In15_8 O28_2 1_555 1_555
O23_2 In1_2 1_555 1_555
O25_2 C50_2 1_555 1_555
O28_2 C50_2 1_555 1_555
O36_2 In11_2 1_555 1_555
O37_2 In1_2 1_555 1_555
H33_2 C45_2 1_555 1_555
C46_2 C45_2 1_555 1_555
H34_2 C46_2 1_555 1_555
O41_2 In11_2 1_555 1_555
C47_2 C46_2 1_555 1_555
C50_2 C47_2 1_555 1_555
C62_2 C61_2 1_555 1_555
C63_2 C62_2 1_555 1_555
H47_2 C63_2 1_555 1_555
C64_2 C63_2 1_555 1_555
H48_2 C64_2 1_555 1_555
C65_2 O18_2 1_555 1_555
C66_2 O36_2 1_555 1_555
O37_2 C66_2 1_555 1_555
C62_2 C66_2 1_555 1_555
C64_2 C65_2 1_555 1_555
In1_3 O12_2 1_555 1_555
O1_2 C2_2 1_555 1_555
C1_2 C2_2 1_555 1_555
In12_2 O11_2 1_555 1_555
O2_2 C10_2 1_555 1_555
C2_2 H1_2 1_555 1_555
H2_2 C2_2 1_555 1_555
In16_3 O8_2 1_555 1_555
O3_2 C18_2 1_555 1_555
C3_2 O1_2 1_555 1_555
O4_2 C26_2 1_555 1_555
C4_2 C3_2 1_555 1_555
H3_2 C4_2 1_555 1_555
O5_2 C9_2 1_555 1_555
C5_2 C4_2 1_555 1_555
H4_2 C5_2 1_555 1_555
O6_2 C9_2 1_555 1_555
C6_2 C5_2 1_555 1_555
O26_2 C17_2 1_555 1_555
C7_2 C6_2 1_555 1_555
H5_2 C7_2 1_555 1_555
O8_2 C17_2 1_555 1_555
C8_2 C3_2 1_555 1_555
H6_2 C8_2 1_555 1_555
O9_2 C25_2 1_555 1_555
C9_2 C6_2 1_555 1_555
O35_2 C25_2 1_555 1_555
C10_2 C1_2 1_555 1_555
H7_2 C10_2 1_555 1_555
H8_2 C10_2 1_555 1_555
O11_2 C33_2 1_555 1_555
C11_2 O2_2 1_555 1_555
O12_2 C33_2 1_555 1_555
C12_2 C11_2 1_555 1_555
H9_2 C12_2 1_555 1_555
C13_2 C12_2 1_555 1_555
H10_2 C13_2 1_555 1_555
O14_2 In12_2 1_555 1_555
C14_2 C13_2 1_555 1_555
C15_2 C14_2 1_555 1_555
H11_2 C15_2 1_555 1_555
C16_2 C11_2 1_555 1_555
H12_2 C16_2 1_555 1_555
C17_2 C14_2 1_555 1_555
C18_2 C1_2 1_555 1_555
H13_2 C18_2 1_555 1_555
H14_2 C18_2 1_555 1_555
C19_2 O3_2 1_555 1_555
C20_2 C19_2 1_555 1_555
H15_2 C20_2 1_555 1_555
C21_2 C20_2 1_555 1_555
H16_2 C21_2 1_555 1_555
C22_2 C21_2 1_555 1_555
C23_2 C22_2 1_555 1_555
H17_2 C23_2 1_555 1_555
C24_2 C19_2 1_555 1_555
H18_2 C24_2 1_555 1_555
C25_2 C22_2 1_555 1_555
C26_2 C1_2 1_555 1_555
H19_2 C26_2 1_555 1_555
H20_2 C26_2 1_555 1_555
C27_2 H21_2 1_555 1_555
C28_2 C27_2 1_555 1_555
H22_2 C28_2 1_555 1_555
C29_2 C28_2 1_555 1_555
C30_2 C29_2 1_555 1_555
H23_2 C30_2 1_555 1_555
C31_2 C30_2 1_555 1_555
H24_2 C31_2 1_555 1_555
C32_2 O4_2 1_555 1_555
C33_2 C29_2 1_555 1_555
In5_3 O6_2 1_555 1_555
In7_2 O5_2 1_555 1_555
In15_5 O9_2 1_555 1_555
In16_4 O14_2 1_555 1_555
O20_2 In12_2 1_555 1_555
O24_2 In1_3 1_555 1_555
O32_3 In16_3 1_555 1_555
O38_2 In1_3 1_555 1_555
O40_3 In16_3 1_555 1_555
C7_2 C8_2 1_555 1_555
C15_2 C16_2 1_555 1_555
C23_2 C24_2 1_555 1_555
C27_2 C32_2 1_555 1_555
C31_2 C32_2 1_555 1_555
O29_3 In16_4 1_555 1_555
O29_4 In15_5 1_555 1_555
O41_2 In15_6 1_555 1_555
O40_4 In15_7 1_555 1_555
O32_4 In15_8 1_555 1_555
O1_3 C2_3 1_555 1_555
C1_3 C2_3 1_555 1_555
O2_3 C10_3 1_555 1_555
C2_3 H1_3 1_555 1_555
H2_3 C2_3 1_555 1_555
O3_3 C18_3 1_555 1_555
C3_3 O1_3 1_555 1_555
C4_3 C3_3 1_555 1_555
H3_3 C4_3 1_555 1_555
C5_3 C4_3 1_555 1_555
H4_3 C5_3 1_555 1_555
O23_2 C9_3 1_555 1_555
C6_3 C5_3 1_555 1_555
O7 C17_3 1_555 1_555
C7_3 C6_3 1_555 1_555
H5_3 C7_3 1_555 1_555
O29 C17_3 1_555 1_555
C8_3 C3_3 1_555 1_555
H6_3 C8_3 1_555 1_555
O32_2 C25_3 1_555 1_555
C9_3 C6_3 1_555 1_555
O10 C25_3 1_555 1_555
C10_3 C1_3 1_555 1_555
H7_3 C10_3 1_555 1_555
H8_3 C10_3 1_555 1_555
C11_3 O2_3 1_555 1_555
C12_3 C11_3 1_555 1_555
H9_3 C12_3 1_555 1_555
C13_3 C12_3 1_555 1_555
H10_3 C13_3 1_555 1_555
C14_3 C13_3 1_555 1_555
C15_3 C14_3 1_555 1_555
H11_3 C15_3 1_555 1_555
C16_3 C11_3 1_555 1_555
H12_3 C16_3 1_555 1_555
C17_3 C14_3 1_555 1_555
C18_3 C1_3 1_555 1_555
H13_3 C18_3 1_555 1_555
H14_3 C18_3 1_555 1_555
C19_3 O3_3 1_555 1_555
C20_3 C19_3 1_555 1_555
H15_3 C20_3 1_555 1_555
C21_3 C20_3 1_555 1_555
H16_3 C21_3 1_555 1_555
C22_3 C21_3 1_555 1_555
C23_3 C22_3 1_555 1_555
H17_3 C23_3 1_555 1_555
C24_3 C19_3 1_555 1_555
H18_3 C24_3 1_555 1_555
C25_3 C22_3 1_555 1_555
C26_3 C1_3 1_555 1_555
H19_3 C26_3 1_555 1_555
In7_2 O7 1_555 1_555
C7_3 C8_3 1_555 1_555
C15_3 C16_3 1_555 1_555
C23_3 C24_3 1_555 1_555
In7_2 O40 1_555 1_555
In5_3 O12_3 1_555 1_555
In7_2 O11_3 1_555 1_555
O11_3 C33_3 1_555 1_555
O12_3 C33_3 1_555 1_555
O13_3 In5_3 1_555 1_555
C27_3 H21_3 1_555 1_555
C28_3 C27_3 1_555 1_555
H22_3 C28_3 1_555 1_555
C29_3 C28_3 1_555 1_555
C30_3 C29_3 1_555 1_555
H23_3 C30_3 1_555 1_555
C31_3 C30_3 1_555 1_555
H24_3 C31_3 1_555 1_555
C32_3 O4_3 1_555 1_555
C33_3 C29_3 1_555 1_555
O27 In10_2 1_555 1_555
O34 In7_2 1_555 1_555
O36_3 In10_2 1_555 1_555
O37_3 In5_3 1_555 1_555
O38_3 In5_3 1_555 1_555
O40_2 In10_2 1_555 1_555
C62_3 C61_3 1_555 1_555
C63_3 C62_3 1_555 1_555
H47_3 C63_3 1_555 1_555
C64_3 C63_3 1_555 1_555
H48_3 C64_3 1_555 1_555
C65_3 O18_3 1_555 1_555
C66_3 O36_3 1_555 1_555
In7_2 O13_3 1_555 1_555
C27_3 C32_3 1_555 1_555
C31_3 C32_3 1_555 1_555
In10_2 O38_3 1_555 1_555
O37_3 C66_3 1_555 1_555
C62_3 C66_3 1_555 1_555
C64_3 C65_3 1_555 1_555
C60_3 H45_3 1_555 1_555
O27 C50_3 1_555 1_555
O29_2 C50_3 1_555 1_555
H33_3 C45_3 1_555 1_555
C46_3 C45_3 1_555 1_555
H34_3 C46_3 1_555 1_555
C47_3 C46_3 1_555 1_555
C50_3 C47_3 1_555 1_555
O15_3 C35_3 1_555 1_555
C34_3 C35_3 1_555 1_555
O16_3 C43_3 1_555 1_555
C35_3 H25_3 1_555 1_555
H26_3 C35_3 1_555 1_555
O17_3 C51_3 1_555 1_555
C36_3 O15_3 1_555 1_555
C37_3 C36_3 1_555 1_555
H27_3 C37_3 1_555 1_555
C38_3 C37_3 1_555 1_555
H28_3 C38_3 1_555 1_555
O24_2 C42_3 1_555 1_555
C39_3 C38_3 1_555 1_555
C40_3 C39_3 1_555 1_555
H29_3 C40_3 1_555 1_555
C41_3 C36_3 1_555 1_555
H30_3 C41_3 1_555 1_555
O32 C58_3 1_555 1_555
C42_3 C39_3 1_555 1_555
O34 C58_3 1_555 1_555
C43_3 C34_3 1_555 1_555
H31_3 C43_3 1_555 1_555
C44_3 O16_3 1_555 1_555
H35_3 C48_3 1_555 1_555
C49_3 C44_3 1_555 1_555
H36_3 C49_3 1_555 1_555
C51_3 C34_3 1_555 1_555
H37_3 C51_3 1_555 1_555
H38_3 C51_3 1_555 1_555
C52_3 O17_3 1_555 1_555
C53_3 C52_3 1_555 1_555
H39_3 C53_3 1_555 1_555
C54_3 C53_3 1_555 1_555
H40_3 C54_3 1_555 1_555
C55_3 C54_3 1_555 1_555
C56_3 C55_3 1_555 1_555
H41_3 C56_3 1_555 1_555
C57_3 C52_3 1_555 1_555
H42_3 C57_3 1_555 1_555
C58_3 C55_3 1_555 1_555
C59_3 C34_3 1_555 1_555
H43_3 C59_3 1_555 1_555
C40_3 C41_3 1_555 1_555
C48_3 C49_3 1_555 1_555
C56_3 C57_3 1_555 1_555
In7 O40_3 1_555 1_555
In5 O12_4 1_555 1_555
O1_4 C2_4 1_555 1_555
C1_4 C2_4 1_555 1_555
In7 O11_4 1_555 1_555
O2_4 C10_4 1_555 1_555
C2_4 H1_4 1_555 1_555
H2_4 C2_4 1_555 1_555
O3_4 C18_4 1_555 1_555
C3_4 O1_4 1_555 1_555
O4_4 C26_4 1_555 1_555
C4_4 C3_4 1_555 1_555
H3_4 C4_4 1_555 1_555
O20 C9_4 1_555 1_555
C5_4 C4_4 1_555 1_555
H4_4 C5_4 1_555 1_555
O23 C9_4 1_555 1_555
C6_4 C5_4 1_555 1_555
O7_2 C17_4 1_555 1_555
C7_4 C6_4 1_555 1_555
H5_4 C7_4 1_555 1_555
O29_3 C17_4 1_555 1_555
C8_4 C3_4 1_555 1_555
H6_4 C8_4 1_555 1_555
O32_4 C25_4 1_555 1_555
C9_4 C6_4 1_555 1_555
O10_2 C25_4 1_555 1_555
C10_4 C1_4 1_555 1_555
H7_4 C10_4 1_555 1_555
H8_4 C10_4 1_555 1_555
O11_4 C33_4 1_555 1_555
C11_4 O2_4 1_555 1_555
O12_4 C33_4 1_555 1_555
C12_4 C11_4 1_555 1_555
H9_4 C12_4 1_555 1_555
C13_4 C12_4 1_555 1_555
H10_4 C13_4 1_555 1_555
C14_4 C13_4 1_555 1_555
C15_4 C14_4 1_555 1_555
H11_4 C15_4 1_555 1_555
C16_4 C11_4 1_555 1_555
H12_4 C16_4 1_555 1_555
C17_4 C14_4 1_555 1_555
C18_4 C1_4 1_555 1_555
H13_4 C18_4 1_555 1_555
H14_4 C18_4 1_555 1_555
C19_4 O3_4 1_555 1_555
C20_4 C19_4 1_555 1_555
H15_4 C20_4 1_555 1_555
C21_4 C20_4 1_555 1_555
H16_4 C21_4 1_555 1_555
C22_4 C21_4 1_555 1_555
C23_4 C22_4 1_555 1_555
H17_4 C23_4 1_555 1_555
C24_4 C19_4 1_555 1_555
H18_4 C24_4 1_555 1_555
C25_4 C22_4 1_555 1_555
C26_4 C1_4 1_555 1_555
H19_4 C26_4 1_555 1_555
H20_4 C26_4 1_555 1_555
C27_4 H21_4 1_555 1_555
C28_4 C27_4 1_555 1_555
H22_4 C28_4 1_555 1_555
C29_4 C28_4 1_555 1_555
C30_4 C29_4 1_555 1_555
H23_4 C30_4 1_555 1_555
C31_4 C30_4 1_555 1_555
H24_4 C31_4 1_555 1_555
C32_4 O4_4 1_555 1_555
C33_4 C29_4 1_555 1_555
O34_2 In7 1_555 1_555
O38_4 In5 1_555 1_555
C7_4 C8_4 1_555 1_555
C15_4 C16_4 1_555 1_555
C23_4 C24_4 1_555 1_555
C27_4 C32_4 1_555 1_555
C31_4 C32_4 1_555 1_555
O13_4 In5_2 1_555 1_555
O27_2 C50_4 1_555 1_555
O29_4 C50_4 1_555 1_555
O36_4 In10 1_555 1_555
O37_4 In5_2 1_555 1_555
H33_4 C45_4 1_555 1_555
C46_4 C45_4 1_555 1_555
H34_4 C46_4 1_555 1_555
O40_4 In10 1_555 1_555
C47_4 C46_4 1_555 1_555
C50_4 C47_4 1_555 1_555
C62_4 C61_4 1_555 1_555
C63_4 C62_4 1_555 1_555
H47_4 C63_4 1_555 1_555
C64_4 C63_4 1_555 1_555
H48_4 C64_4 1_555 1_555
C65_4 O18_4 1_555 1_555
C66_4 O36_4 1_555 1_555
O37_4 C66_4 1_555 1_555
C62_4 C66_4 1_555 1_555
C64_4 C65_4 1_555 1_555
O15_4 C35_4 1_555 1_555
C34_4 C35_4 1_555 1_555
O16_4 C43_4 1_555 1_555
C35_4 H25_4 1_555 1_555
H26_4 C35_4 1_555 1_555
O17_4 C51_4 1_555 1_555
C36_4 O15_4 1_555 1_555
C37_4 C36_4 1_555 1_555
H27_4 C37_4 1_555 1_555
O21 C42_4 1_555 1_555
C38_4 C37_4 1_555 1_555
H28_4 C38_4 1_555 1_555
O24 C42_4 1_555 1_555
C39_4 C38_4 1_555 1_555
C40_4 C39_4 1_555 1_555
H29_4 C40_4 1_555 1_555
C41_4 C36_4 1_555 1_555
H30_4 C41_4 1_555 1_555
O32_3 C58_4 1_555 1_555
C42_4 C39_4 1_555 1_555
O34_2 C58_4 1_555 1_555
C43_4 C34_4 1_555 1_555
H31_4 C43_4 1_555 1_555
C44_4 O16_4 1_555 1_555
H35_4 C48_4 1_555 1_555
C49_4 C44_4 1_555 1_555
H36_4 C49_4 1_555 1_555
C51_4 C34_4 1_555 1_555
H37_4 C51_4 1_555 1_555
H38_4 C51_4 1_555 1_555
C52_4 O17_4 1_555 1_555
C53_4 C52_4 1_555 1_555
H39_4 C53_4 1_555 1_555
C54_4 C53_4 1_555 1_555
H40_4 C54_4 1_555 1_555
C55_4 C54_4 1_555 1_555
C56_4 C55_4 1_555 1_555
H41_4 C56_4 1_555 1_555
C57_4 C52_4 1_555 1_555
H42_4 C57_4 1_555 1_555
C58_4 C55_4 1_555 1_555
C59_4 C34_4 1_555 1_555
H43_4 C59_4 1_555 1_555
H44_4 C59_4 1_555 1_555
C60_4 H45_4 1_555 1_555
C40_4 C41_4 1_555 1_555
C48_4 C49_4 1_555 1_555
C56_4 C57_4 1_555 1_555

#END
