
###############################################################################
#
# This file contains modified crystal structure data generated from the
# MOF subset of the Cambridge Structural Database (CSD) v543 
# hosted by the Cambridge Crystallographic Data Centre (CCDC).
#
# This work is licensed under the Creative Commons
# Attribution-NonCommercial-ShareAlike 4.0 International License.
# To view a copy of this license, visit
# http://creativecommons.org/licenses/by-nc-sa/4.0/
# or send a letter to
# Creative Commons, PO Box 1866, Mountain View, CA 94042, USA.
#
# CIF created using the CSD Python API on 29 September 2022
# The structure has been converted into the P1 space group
# The structure has a 3D framework
# The original CSD entry OXAVUH is in the tetragonal crystal system
# The framework has been calculated to contain at least 10.0% void space
# The void calculation uses a probe of radius 1.32A, grid spacing 0.4
# The framework is charged, counterions have been retained in the structure
#
###############################################################################

data_OXAVUH
_chemical_formula_moiety         '(C160 H160 Co14 N48 O44)n'
_symmetry_cell_setting           triclinic
_symmetry_space_group_name_H-M   'P 1'
_symmetry_Int_Tables_number      1
_space_group_name_Hall           'P 1'
loop_
_symmetry_equiv_pos_site_id
_symmetry_equiv_pos_as_xyz
1 x,y,z
_cell_length_a                   24.340(5)
_cell_length_b                   24.340(5)
_cell_length_c                   14.170(5)
_cell_angle_alpha                90
_cell_angle_beta                 90
_cell_angle_gamma                90
_cell_volume                     8394.81
loop_
_atom_site_label
_atom_site_type_symbol
_atom_site_fract_x
_atom_site_fract_y
_atom_site_fract_z
Co1 Co 0.445551(14) 0.054449(14) 0.5000
Co2 Co 0.507652(15) 0.007652(15) 0.09726(3)
N1 N 0.51469(9) 0.01469(9) 0.2390(2)
N2 N 0.44746(10) 0.08341(10) 0.26812(16)
H1 H 0.4278 0.1010 0.3085
H2 H 0.4463 0.0923 0.2094
N3 N 0.48428(9) 0.02529(9) 0.38645(14)
O1 O 0.36826(8) 0.03444(9) 0.50735(14)
O3 O 0.07570(8) 0.00962(10) 0.41037(14)
O4 O 0.35172(9) 0.08789(11) 0.38429(16)
C1 C 0.48032(11) 0.04145(10) 0.29713(18)
C2 C 0.16527(12) 0.01801(14) 0.4729(2)
C3 C 0.27665(12) 0.04259(14) 0.4562(2)
C4 C 0.33620(12) 0.05721(14) 0.4478(2)
C5 C 0.10553(12) 0.00705(13) 0.4837(2)
C6 C 0.18629(13) 0.04066(16) 0.3912(2)
H3 H 0.1630 0.0472 0.3404
C7 C 0.24076(13) 0.05361(17) 0.3837(2)
H4 H 0.2537 0.0701 0.3288
C8 C 0.25596(14) 0.01999(19) 0.5386(3)
H5 H 0.2794 0.0127 0.5889
C9 C 0.20059(13) 0.00820(18) 0.5464(2)
O7 O 0.42430(8) 0.00962(10) 0.08963(14)
O8 O 0.14828(9) 0.08789(11) 0.11571(16)
C11 C 0.33473(12) 0.01801(14) 0.0271(2)
C12 C 0.22335(12) 0.04259(14) 0.0438(2)
C13 C 0.16380(12) 0.05721(14) 0.0522(2)
C14 C 0.39447(12) 0.00705(13) 0.0163(2)
C15 C 0.31371(13) 0.04066(16) 0.1088(2)
H9 H 0.3370 0.0472 0.1596
C16 C 0.25924(13) 0.05361(17) 0.1163(2)
H10 H 0.2463 0.0701 0.1712
Co3 Co 0.054449(14) 0.054449(14) 0.0000
N6 N 0.47471(9) 0.01572(9) 0.61355(14)
O9 O 0.46556(9) 0.13174(8) 0.49265(14)
O10 O 0.50428(10) 0.08821(8) 0.06421(15)
O11 O 0.58821(8) 0.00428(10) 0.06421(15)
O5 O 0.13174(8) 0.03444(9) 0.99265(14)
C17 C 0.24404(14) 0.01999(19) 0.9614(3)
H11 H 0.2206 0.0127 0.9111
C18 C 0.29941(13) 0.00820(18) 0.9536(2)
Co3_2 Co 0.054449(14) 0.054449(14) 1.0000
O2 O 0.08821(8) 0.99572(10) 0.56421(15)
H6 H 0.1871 0.9934 0.6023
N4 N 0.58341(10) 0.94746(10) 0.26812(16)
H7 H 0.6010 0.9278 0.3085
H8 H 0.5923 0.9463 0.2094
N5 N 0.52529(9) 0.98428(9) 0.38645(14)
C10 C 0.54145(10) 0.98032(11) 0.29713(18)
Co4 Co 0.554449(14) 0.945551(14) 0.5000
Co7 Co 0.007652(15) 0.992348(15) 0.59726(3)
O12 O 0.50962(10) 0.92430(8) 0.08963(14)
O6 O 0.41179(8) 0.99572(10) 0.93579(15)
H12 H 0.3129 0.9934 0.8977
Co6 Co 0.492348(15) 0.992348(15) 0.90274(3)
Co5 Co 0.992348(15) 0.007652(15) 0.40274(3)
Co1_2 Co 0.054449(14) 0.445551(14) 0.5000
N2_2 N 0.05254(10) 0.41659(10) 0.26812(16)
H1_2 H 0.0722 0.3990 0.3085
H2_2 H 0.0537 0.4077 0.2094
N3_2 N 0.01572(9) 0.47471(9) 0.38645(14)
O1_2 O 0.13174(8) 0.46556(9) 0.50735(14)
O2_2 O 0.41179(8) 0.50428(10) 0.56421(15)
O3_2 O 0.42430(8) 0.49038(10) 0.41037(14)
O4_2 O 0.14828(9) 0.41211(11) 0.38429(16)
C1_2 C 0.01968(11) 0.45855(10) 0.29713(18)
C2_2 C 0.33473(12) 0.48199(14) 0.4729(2)
C3_2 C 0.22335(12) 0.45741(14) 0.4562(2)
C4_2 C 0.16380(12) 0.44279(14) 0.4478(2)
C5_2 C 0.39447(12) 0.49295(13) 0.4837(2)
C6_2 C 0.31371(13) 0.45934(16) 0.3912(2)
H3_2 H 0.3370 0.4528 0.3404
C7_2 C 0.25924(13) 0.44639(17) 0.3837(2)
H4_2 H 0.2463 0.4299 0.3288
C8_2 C 0.24404(14) 0.48001(19) 0.5386(3)
H5_2 H 0.2206 0.4873 0.5889
C9_2 C 0.29941(13) 0.49180(18) 0.5464(2)
H6_2 H 0.3129 0.5066 0.6023
O7_2 O 0.07570(8) 0.49038(10) 0.08963(14)
O8_2 O 0.35172(9) 0.41211(11) 0.11571(16)
C11_2 C 0.16527(12) 0.48199(14) 0.0271(2)
C12_2 C 0.27665(12) 0.45741(14) 0.0438(2)
C13_2 C 0.33620(12) 0.44279(14) 0.0522(2)
C14_2 C 0.10553(12) 0.49295(13) 0.0163(2)
C15_2 C 0.18629(13) 0.45934(16) 0.1088(2)
H9_2 H 0.1630 0.4528 0.1596
C16_2 C 0.24076(13) 0.44639(17) 0.1163(2)
H10_2 H 0.2537 0.4299 0.1712
Co3_3 Co 0.445551(14) 0.445551(14) 0.0000
Co5_2 Co 0.507652(15) 0.492348(15) 0.40274(3)
Co7_2 Co 0.492348(15) 0.507652(15) 0.59726(3)
N6_2 N 0.02529(9) 0.48428(9) 0.61355(14)
O9_2 O 0.03444(9) 0.36826(8) 0.49265(14)
O5_2 O 0.36826(8) 0.46556(9) 0.99265(14)
O6_2 O 0.08821(8) 0.50428(10) 0.93579(15)
C17_2 C 0.25596(14) 0.48001(19) 0.9614(3)
H11_2 H 0.2794 0.4873 0.9111
C18_2 C 0.20059(13) 0.49180(18) 0.9536(2)
H12_2 H 0.1871 0.5066 0.8977
Co3_4 Co 0.445551(14) 0.445551(14) 1.0000
Co6_2 Co 0.007652(15) 0.507652(15) 0.90274(3)
Co2_2 Co 0.992348(15) 0.492348(15) 0.09726(3)
N1_2 N 0.98531(9) 0.48531(9) 0.2390(2)
N4_2 N 0.91659(10) 0.55254(10) 0.26812(16)
H7_2 H 0.8990 0.5722 0.3085
H8_2 H 0.9077 0.5537 0.2094
N5_2 N 0.97471(9) 0.51572(9) 0.38645(14)
C10_2 C 0.95855(10) 0.51968(11) 0.29713(18)
Co4_2 Co 0.945551(14) 0.554449(14) 0.5000
O10_2 O 0.99572(10) 0.41179(8) 0.06421(15)
O11_2 O 0.91179(8) 0.49572(10) 0.06421(15)
O12_2 O 0.99038(10) 0.57570(8) 0.08963(14)
N1_3 N 0.51469(9) 0.48531(9) 0.2610(2)
N2_3 N 0.44746(10) 0.41659(10) 0.23188(16)
H1_3 H 0.4278 0.3990 0.1915
H2_3 H 0.4463 0.4077 0.2906
N3_3 N 0.48428(9) 0.47471(9) 0.11355(14)
C1_3 C 0.48032(11) 0.45855(10) 0.20287(18)
N4_3 N 0.58341(10) 0.55254(10) 0.23188(16)
H7_3 H 0.6010 0.5722 0.1915
H8_3 H 0.5923 0.5537 0.2906
N5_3 N 0.52529(9) 0.51572(9) 0.11355(14)
C10_3 C 0.54145(10) 0.51968(11) 0.20287(18)
Co4_3 Co 0.554449(14) 0.554449(14) 0.0000
O9_3 O 0.46556(9) 0.36826(8) 0.00735(14)
O10_3 O 0.50428(10) 0.41179(8) 0.43579(15)
O11_3 O 0.58821(8) 0.49572(10) 0.43579(15)
O12_3 O 0.50962(10) 0.57570(8) 0.41037(14)
Co4_4 Co 0.554449(14) 0.554449(14) 1.0000
N6_3 N 0.47471(9) 0.48428(9) 0.88645(14)
N2_4 N 0.05254(10) 0.08341(10) 0.23188(16)
H1_4 H 0.0722 0.1010 0.1915
H2_4 H 0.0537 0.0923 0.2906
N3_4 N 0.01572(9) 0.02529(9) 0.11355(14)
C1_4 C 0.01968(11) 0.04145(10) 0.20287(18)
O9_4 O 0.03444(9) 0.13174(8) 0.00735(14)
N6_4 N 0.02529(9) 0.01572(9) 0.88645(14)
N1_4 N 0.98531(9) 0.01469(9) 0.2610(2)
O10_4 O 0.99572(10) 0.08821(8) 0.43579(15)
O11_4 O 0.91179(8) 0.00428(10) 0.43579(15)
N4_4 N 0.91659(10) 0.94746(10) 0.23188(16)
H7_4 H 0.8990 0.9278 0.1915
H8_4 H 0.9077 0.9463 0.2906
N5_4 N 0.97471(9) 0.98428(9) 0.11355(14)
C10_4 C 0.95855(10) 0.98032(11) 0.20287(18)
Co4_5 Co 0.945551(14) 0.945551(14) 0.0000
O12_4 O 0.99038(10) 0.92430(8) 0.41037(14)
Co4_6 Co 0.945551(14) 0.945551(14) 1.0000
C17_3 C 0.48001(19) 0.25596(14) 0.0386(3)
H11_3 H 0.4873 0.2794 0.0889
C18_3 C 0.49180(18) 0.20059(13) 0.0464(2)
H12_3 H 0.5066 0.1871 0.1023
N2_5 N 0.41659(10) 0.05254(10) 0.73188(16)
H1_5 H 0.3990 0.0722 0.6915
H2_5 H 0.4077 0.0537 0.7906
O3_3 O 0.49038(10) 0.42430(8) 0.58963(14)
O4_3 O 0.41211(11) 0.14828(9) 0.61571(16)
C1_5 C 0.45855(10) 0.01968(11) 0.70287(18)
C2_3 C 0.48199(14) 0.33473(12) 0.5271(2)
C3_3 C 0.45741(14) 0.22335(12) 0.5438(2)
C4_3 C 0.44279(14) 0.16380(12) 0.5522(2)
C5_3 C 0.49295(13) 0.39447(12) 0.5163(2)
C6_3 C 0.45934(16) 0.31371(13) 0.6088(2)
H3_3 H 0.4528 0.3370 0.6596
C7_3 C 0.44639(17) 0.25924(13) 0.6163(2)
H4_3 H 0.4299 0.2463 0.6712
C8_3 C 0.48001(19) 0.24404(14) 0.4614(3)
H5_3 H 0.4873 0.2206 0.4111
C9_3 C 0.49180(18) 0.29941(13) 0.4536(2)
H6_3 H 0.5066 0.3129 0.3977
O7_3 O 0.49038(10) 0.07570(8) 0.91037(14)
O8_3 O 0.41211(11) 0.35172(9) 0.88429(16)
C11_3 C 0.48199(14) 0.16527(12) 0.9729(2)
C12_3 C 0.45741(14) 0.27665(12) 0.9562(2)
C13_3 C 0.44279(14) 0.33620(12) 0.9478(2)
C14_3 C 0.49295(13) 0.10553(12) 0.9837(2)
C15_3 C 0.45934(16) 0.18629(13) 0.8912(2)
H9_3 H 0.4528 0.1630 0.8404
C16_3 C 0.44639(17) 0.24076(13) 0.8837(2)
H10_3 H 0.4299 0.2537 0.8288
N1_5 N 0.48531(9) 0.98531(9) 0.7610(2)
N4_5 N 0.55254(10) 0.91659(10) 0.73188(16)
H7_5 H 0.5722 0.8990 0.6915
H8_5 H 0.5537 0.9077 0.7906
N5_5 N 0.51572(9) 0.97471(9) 0.61355(14)
C10_5 C 0.51968(11) 0.95855(10) 0.70287(18)
O11_5 O 0.49572(10) 0.91179(8) 0.93579(15)
O12_5 O 0.57570(8) 0.99038(10) 0.91037(14)
C17_4 C 0.01999(19) 0.24404(14) 0.0386(3)
H11_4 H 0.0127 0.2206 0.0889
C18_4 C 0.00820(18) 0.29941(13) 0.0464(2)
N1_6 N 0.01469(9) 0.51469(9) 0.7610(2)
N2_6 N 0.08341(10) 0.44746(10) 0.73188(16)
H1_6 H 0.1010 0.4278 0.6915
H2_6 H 0.0923 0.4463 0.7906
O3_4 O 0.00962(10) 0.07570(8) 0.58963(14)
O4_4 O 0.08789(11) 0.35172(9) 0.61571(16)
C1_6 C 0.04145(10) 0.48032(11) 0.70287(18)
C2_4 C 0.01801(14) 0.16527(12) 0.5271(2)
C3_4 C 0.04259(14) 0.27665(12) 0.5438(2)
C4_4 C 0.05721(14) 0.33620(12) 0.5522(2)
C5_4 C 0.00705(13) 0.10553(12) 0.5163(2)
C6_4 C 0.04066(16) 0.18629(13) 0.6088(2)
H3_4 H 0.0472 0.1630 0.6596
C7_4 C 0.05361(17) 0.24076(13) 0.6163(2)
H4_4 H 0.0701 0.2537 0.6712
C8_4 C 0.01999(19) 0.25596(14) 0.4614(3)
H5_4 H 0.0127 0.2794 0.4111
C9_4 C 0.00820(18) 0.20059(13) 0.4536(2)
O7_4 O 0.00962(10) 0.42430(8) 0.91037(14)
O8_4 O 0.08789(11) 0.14828(9) 0.88429(16)
C11_4 C 0.01801(14) 0.33473(12) 0.9729(2)
C12_4 C 0.04259(14) 0.22335(12) 0.9562(2)
C13_4 C 0.05721(14) 0.16380(12) 0.9478(2)
C14_4 C 0.00705(13) 0.39447(12) 0.9837(2)
C15_4 C 0.04066(16) 0.31371(13) 0.8912(2)
H9_4 H 0.0472 0.3370 0.8404
C16_4 C 0.05361(17) 0.25924(13) 0.8837(2)
H10_4 H 0.0701 0.2463 0.8288
O11_6 O 0.00428(10) 0.58821(8) 0.93579(15)
H12_4 H 0.9934 0.3129 0.1023
H6_4 H 0.9934 0.1871 0.3977
N4_6 N 0.94746(10) 0.58341(10) 0.73188(16)
H7_6 H 0.9278 0.6010 0.6915
H8_6 H 0.9463 0.5923 0.7906
N5_6 N 0.98428(9) 0.52529(9) 0.61355(14)
C10_6 C 0.98032(11) 0.54145(10) 0.70287(18)
O12_6 O 0.92430(8) 0.50962(10) 0.91037(14)
N2_7 N 0.08341(10) 0.05254(10) 0.76812(16)
H1_7 H 0.1010 0.0722 0.8085
H2_7 H 0.0923 0.0537 0.7094
C1_7 C 0.04145(10) 0.01968(11) 0.79713(18)
N1_7 N 0.01469(9) 0.98531(9) 0.7390(2)
O11_7 O 0.00428(10) 0.91179(8) 0.56421(15)
N4_7 N 0.94746(10) 0.91659(10) 0.76812(16)
H7_7 H 0.9278 0.8990 0.8085
H8_7 H 0.9463 0.9077 0.7094
N5_7 N 0.98428(9) 0.97471(9) 0.88645(14)
C10_7 C 0.98032(11) 0.95855(10) 0.79713(18)
O12_7 O 0.92430(8) 0.99038(10) 0.58963(14)
N1_8 N 0.48531(9) 0.51469(9) 0.7390(2)
N2_8 N 0.41659(10) 0.44746(10) 0.76812(16)
H1_8 H 0.3990 0.4278 0.8085
H2_8 H 0.4077 0.4463 0.7094
C1_8 C 0.45855(10) 0.48032(11) 0.79713(18)
N4_8 N 0.55254(10) 0.58341(10) 0.76812(16)
H7_8 H 0.5722 0.6010 0.8085
H8_8 H 0.5537 0.5923 0.7094
N5_8 N 0.51572(9) 0.52529(9) 0.88645(14)
C10_8 C 0.51968(11) 0.54145(10) 0.79713(18)
O11_8 O 0.49572(10) 0.58821(8) 0.56421(15)
O12_8 O 0.57570(8) 0.50962(10) 0.58963(14)
H12_5 H 0.6871 0.0066 0.1023
H6_5 H 0.8129 0.0066 0.3977
O5_3 O 0.86826(8) 0.96556(9) 0.00735(14)
C17_5 C 0.75596(14) 0.98001(19) 0.0386(3)
H11_5 H 0.7794 0.9873 0.0889
C18_5 C 0.70059(13) 0.99180(18) 0.0464(2)
O1_3 O 0.63174(8) 0.96556(9) 0.49265(14)
O4_5 O 0.64828(9) 0.91211(11) 0.61571(16)
C2_5 C 0.83473(12) 0.98199(14) 0.5271(2)
C3_5 C 0.72335(12) 0.95741(14) 0.5438(2)
C4_5 C 0.66380(12) 0.94279(14) 0.5522(2)
C5_5 C 0.89447(12) 0.99295(13) 0.5163(2)
C6_5 C 0.81371(13) 0.95934(16) 0.6088(2)
H3_5 H 0.8370 0.9528 0.6596
C7_5 C 0.75924(13) 0.94639(17) 0.6163(2)
H4_5 H 0.7463 0.9299 0.6712
C8_5 C 0.74404(14) 0.98001(19) 0.4614(3)
H5_5 H 0.7206 0.9873 0.4111
C9_5 C 0.79941(13) 0.99180(18) 0.4536(2)
O8_5 O 0.85172(9) 0.91211(11) 0.88429(16)
C11_5 C 0.66527(12) 0.98199(14) 0.9729(2)
C12_5 C 0.77665(12) 0.95741(14) 0.9562(2)
C13_5 C 0.83620(12) 0.94279(14) 0.9478(2)
C14_5 C 0.60553(12) 0.99295(13) 0.9837(2)
C15_5 C 0.68629(13) 0.95934(16) 0.8912(2)
H9_5 H 0.6630 0.9528 0.8404
C16_5 C 0.74076(13) 0.94639(17) 0.8837(2)
H10_5 H 0.7537 0.9299 0.8288
O9_5 O 0.53444(9) 0.86826(8) 0.50735(14)
O5_4 O 0.63174(8) 0.53444(9) 0.00735(14)
C17_6 C 0.74404(14) 0.51999(19) 0.0386(3)
H11_6 H 0.7206 0.5127 0.0889
C18_6 C 0.79941(13) 0.50820(18) 0.0464(2)
H12_6 H 0.8129 0.4934 0.1023
O1_4 O 0.86826(8) 0.53444(9) 0.49265(14)
O4_6 O 0.85172(9) 0.58789(11) 0.61571(16)
C2_6 C 0.66527(12) 0.51801(14) 0.5271(2)
C3_6 C 0.77665(12) 0.54259(14) 0.5438(2)
C4_6 C 0.83620(12) 0.55721(14) 0.5522(2)
C5_6 C 0.60553(12) 0.50705(13) 0.5163(2)
C6_6 C 0.68629(13) 0.54066(16) 0.6088(2)
H3_6 H 0.6630 0.5472 0.6596
C7_6 C 0.74076(13) 0.55361(17) 0.6163(2)
H4_6 H 0.7537 0.5701 0.6712
C8_6 C 0.75596(14) 0.51999(19) 0.4614(3)
H5_6 H 0.7794 0.5127 0.4111
C9_6 C 0.70059(13) 0.50820(18) 0.4536(2)
H6_6 H 0.6871 0.4934 0.3977
O8_6 O 0.64828(9) 0.58789(11) 0.88429(16)
C11_6 C 0.83473(12) 0.51801(14) 0.9729(2)
C12_6 C 0.72335(12) 0.54259(14) 0.9562(2)
C13_6 C 0.66380(12) 0.55721(14) 0.9478(2)
C14_6 C 0.89447(12) 0.50705(13) 0.9837(2)
C15_6 C 0.81371(13) 0.54066(16) 0.8912(2)
H9_6 H 0.8370 0.5472 0.8404
C16_6 C 0.75924(13) 0.55361(17) 0.8837(2)
H10_6 H 0.7463 0.5701 0.8288
O9_6 O 0.96556(9) 0.63174(8) 0.50735(14)
O9_7 O 0.53444(9) 0.63174(8) 0.99265(14)
O9_8 O 0.96556(9) 0.86826(8) 0.99265(14)
O4_7 O 0.58789(11) 0.85172(9) 0.38429(16)
C2_7 C 0.51801(14) 0.66527(12) 0.4729(2)
C3_7 C 0.54259(14) 0.77665(12) 0.4562(2)
C4_7 C 0.55721(14) 0.83620(12) 0.4478(2)
C5_7 C 0.50705(13) 0.60553(12) 0.4837(2)
C6_7 C 0.54066(16) 0.68629(13) 0.3912(2)
H3_7 H 0.5472 0.6630 0.3404
C7_7 C 0.55361(17) 0.74076(13) 0.3837(2)
H4_7 H 0.5701 0.7537 0.3288
C8_7 C 0.51999(19) 0.75596(14) 0.5386(3)
H5_7 H 0.5127 0.7794 0.5889
C9_7 C 0.50820(18) 0.70059(13) 0.5464(2)
H6_7 H 0.4934 0.6871 0.6023
O8_7 O 0.58789(11) 0.64828(9) 0.11571(16)
C11_7 C 0.51801(14) 0.83473(12) 0.0271(2)
C12_7 C 0.54259(14) 0.72335(12) 0.0438(2)
C13_7 C 0.55721(14) 0.66380(12) 0.0522(2)
C14_7 C 0.50705(13) 0.89447(12) 0.0163(2)
C15_7 C 0.54066(16) 0.81371(13) 0.1088(2)
H9_7 H 0.5472 0.8370 0.1596
C16_7 C 0.55361(17) 0.75924(13) 0.1163(2)
H10_7 H 0.5701 0.7463 0.1712
C17_7 C 0.51999(19) 0.74404(14) 0.9614(3)
H11_7 H 0.5127 0.7206 0.9111
C18_7 C 0.50820(18) 0.79941(13) 0.9536(2)
H12_7 H 0.4934 0.8129 0.8977
H6_8 H 0.0066 0.8129 0.6023
H12_8 H 0.0066 0.6871 0.8977
O4_8 O 0.91211(11) 0.64828(9) 0.38429(16)
C2_8 C 0.98199(14) 0.83473(12) 0.4729(2)
C3_8 C 0.95741(14) 0.72335(12) 0.4562(2)
C4_8 C 0.94279(14) 0.66380(12) 0.4478(2)
C5_8 C 0.99295(13) 0.89447(12) 0.4837(2)
C6_8 C 0.95934(16) 0.81371(13) 0.3912(2)
H3_8 H 0.9528 0.8370 0.3404
C7_8 C 0.94639(17) 0.75924(13) 0.3837(2)
H4_8 H 0.9299 0.7463 0.3288
C8_8 C 0.98001(19) 0.74404(14) 0.5386(3)
H5_8 H 0.9873 0.7206 0.5889
C9_8 C 0.99180(18) 0.79941(13) 0.5464(2)
O8_8 O 0.91211(11) 0.85172(9) 0.11571(16)
C11_8 C 0.98199(14) 0.66527(12) 0.0271(2)
C12_8 C 0.95741(14) 0.77665(12) 0.0438(2)
C13_8 C 0.94279(14) 0.83620(12) 0.0522(2)
C14_8 C 0.99295(13) 0.60553(12) 0.0163(2)
C15_8 C 0.95934(16) 0.68629(13) 0.1088(2)
H9_8 H 0.9528 0.6630 0.1596
C16_8 C 0.94639(17) 0.74076(13) 0.1163(2)
H10_8 H 0.9299 0.7537 0.1712
C17_8 C 0.98001(19) 0.75596(14) 0.9614(3)
H11_8 H 0.9873 0.7794 0.9111
C18_8 C 0.99180(18) 0.70059(13) 0.9536(2)
N7 N 0.3773(3) 0.8773(3) 0.2901(8)
H13 H 0.3631 0.8631 0.2367
H14 H 0.3606 0.8606 0.3391
C19 C 0.3652(5) 0.9350(4) 0.2934(9)
H15 H 0.3263 0.9404 0.2870
H16 H 0.3839 0.9533 0.2427
H17 H 0.3773 0.9499 0.3526
C20 C 0.4350(4) 0.8652(5) 0.2934(9)
H18 H 0.4404 0.8263 0.2870
H19 H 0.4533 0.8839 0.2427
H20 H 0.4499 0.8773 0.3526
N7_2 N 0.1227(3) 0.6227(3) 0.2901(8)
H13_2 H 0.1369 0.6369 0.2367
H14_2 H 0.1394 0.6394 0.3391
C19_2 C 0.1348(5) 0.5650(4) 0.2934(9)
H15_2 H 0.1737 0.5596 0.2870
H16_2 H 0.1161 0.5467 0.2427
H17_2 H 0.1227 0.5501 0.3526
C20_2 C 0.0650(4) 0.6348(5) 0.2934(9)
H18_2 H 0.0596 0.6737 0.2870
H19_2 H 0.0467 0.6161 0.2427
H20_2 H 0.0501 0.6227 0.3526
N7_3 N 0.3773(3) 0.6227(3) 0.2099(8)
H13_3 H 0.3631 0.6369 0.2633
H14_3 H 0.3606 0.6394 0.1609
C19_3 C 0.3652(5) 0.5650(4) 0.2066(9)
H15_3 H 0.3263 0.5596 0.2130
H16_3 H 0.3839 0.5467 0.2573
H17_3 H 0.3773 0.5501 0.1474
C20_3 C 0.4350(4) 0.6348(5) 0.2066(9)
H18_3 H 0.4404 0.6737 0.2130
H19_3 H 0.4533 0.6161 0.2573
H20_3 H 0.4499 0.6227 0.1474
N7_4 N 0.1227(3) 0.8773(3) 0.2099(8)
H13_4 H 0.1369 0.8631 0.2633
H14_4 H 0.1394 0.8606 0.1609
C19_4 C 0.1348(5) 0.9350(4) 0.2066(9)
H15_4 H 0.1737 0.9404 0.2130
H16_4 H 0.1161 0.9533 0.2573
H17_4 H 0.1227 0.9499 0.1474
C20_4 C 0.0650(4) 0.8652(5) 0.2066(9)
H18_4 H 0.0596 0.8263 0.2130
H19_4 H 0.0467 0.8839 0.2573
H20_4 H 0.0501 0.8773 0.1474
N7_5 N 0.6227(3) 0.1227(3) 0.7099(8)
H13_5 H 0.6369 0.1369 0.7633
H14_5 H 0.6394 0.1394 0.6609
C19_5 C 0.5650(4) 0.1348(5) 0.7066(9)
H15_5 H 0.5596 0.1737 0.7130
H16_5 H 0.5467 0.1161 0.7573
H17_5 H 0.5501 0.1227 0.6474
C20_5 C 0.6348(5) 0.0650(4) 0.7066(9)
H18_5 H 0.6737 0.0596 0.7130
H19_5 H 0.6161 0.0467 0.7573
H20_5 H 0.6227 0.0501 0.6474
N7_6 N 0.8773(3) 0.3773(3) 0.7099(8)
H13_6 H 0.8631 0.3631 0.7633
H14_6 H 0.8606 0.3606 0.6609
C19_6 C 0.9350(4) 0.3652(5) 0.7066(9)
H15_6 H 0.9404 0.3263 0.7130
H16_6 H 0.9533 0.3839 0.7573
H17_6 H 0.9499 0.3773 0.6474
C20_6 C 0.8652(5) 0.4350(4) 0.7066(9)
H18_6 H 0.8263 0.4404 0.7130
H19_6 H 0.8839 0.4533 0.7573
H20_6 H 0.8773 0.4499 0.6474
N7_7 N 0.8773(3) 0.1227(3) 0.7901(8)
H13_7 H 0.8631 0.1369 0.7367
H14_7 H 0.8606 0.1394 0.8391
C19_7 C 0.9350(4) 0.1348(5) 0.7934(9)
H15_7 H 0.9404 0.1737 0.7870
H16_7 H 0.9533 0.1161 0.7427
H17_7 H 0.9499 0.1227 0.8526
C20_7 C 0.8652(5) 0.0650(4) 0.7934(9)
H18_7 H 0.8263 0.0596 0.7870
H19_7 H 0.8839 0.0467 0.7427
H20_7 H 0.8773 0.0501 0.8526
N7_8 N 0.6227(3) 0.3773(3) 0.7901(8)
H13_8 H 0.6369 0.3631 0.7367
H14_8 H 0.6394 0.3606 0.8391
C19_8 C 0.5650(4) 0.3652(5) 0.7934(9)
H15_8 H 0.5596 0.3263 0.7870
H16_8 H 0.5467 0.3839 0.7427
H17_8 H 0.5501 0.3773 0.8526
C20_8 C 0.6348(5) 0.4350(4) 0.7934(9)
H18_8 H 0.6737 0.4404 0.7870
H19_8 H 0.6161 0.4533 0.7427
H20_8 H 0.6227 0.4499 0.8526
loop_
_geom_bond_atom_site_label_1
_geom_bond_atom_site_label_2
_geom_bond_site_symmetry_1
_geom_bond_site_symmetry_2
Co1 N3 1_555 1_555
Co2 N1 1_555 1_555
N1 C1 1_555 1_555
N2 H1 1_555 1_555
H2 N2 1_555 1_555
N3 C1 1_555 1_555
O1 Co1 1_555 1_555
O3 C5 1_555 1_555
O4 C4 1_555 1_555
C1 N2 1_555 1_555
C2 C5 1_555 1_555
C3 C4 1_555 1_555
C4 O1 1_555 1_555
C6 C2 1_555 1_555
H3 C6 1_555 1_555
C7 C3 1_555 1_555
H4 C7 1_555 1_555
C8 C3 1_555 1_555
H5 C8 1_555 1_555
C9 C2 1_555 1_555
O7 Co2 1_555 1_555
O8 C13 1_555 1_555
C11 C14 1_555 1_555
C12 C13 1_555 1_555
C14 O7 1_555 1_555
C15 C11 1_555 1_555
H9 C15 1_555 1_555
C16 C12 1_555 1_555
H10 C16 1_555 1_555
N6 Co1 1_555 1_555
O9 Co1 1_555 1_555
O10 Co2 1_555 1_555
O11 Co2 1_555 1_555
C6 C7 1_555 1_555
C8 C9 1_555 1_555
C15 C16 1_555 1_555
H11 C17 1_555 1_555
Co3_2 O5 1_555 1_555
C17 C18 1_555 1_555
N4 H7 1_555 1_555
H8 N4 1_555 1_555
Co4 N5 1_555 1_555
Co7 O2 1_555 1_555
N4 C10 1_555 1_555
N5 C10 1_555 1_555
O6 Co6 1_555 1_555
Co1_2 N3_2 1_555 1_555
N2_2 H1_2 1_555 1_555
H2_2 N2_2 1_555 1_555
N3_2 C1_2 1_555 1_555
O1_2 Co1_2 1_555 1_555
O2_2 C5_2 1_555 1_555
O3_2 C5_2 1_555 1_555
O4_2 C4_2 1_555 1_555
C1_2 N2_2 1_555 1_555
C2_2 C5_2 1_555 1_555
C3_2 C4_2 1_555 1_555
C4_2 O1_2 1_555 1_555
C6_2 C2_2 1_555 1_555
H3_2 C6_2 1_555 1_555
C7_2 C3_2 1_555 1_555
H4_2 C7_2 1_555 1_555
C8_2 C3_2 1_555 1_555
H5_2 C8_2 1_555 1_555
C9_2 C2_2 1_555 1_555
H6_2 C9_2 1_555 1_555
O8_2 C13_2 1_555 1_555
C11_2 C14_2 1_555 1_555
C12_2 C13_2 1_555 1_555
C14_2 O7_2 1_555 1_555
C15_2 C11_2 1_555 1_555
H9_2 C15_2 1_555 1_555
C16_2 C12_2 1_555 1_555
H10_2 C16_2 1_555 1_555
Co5_2 O3_2 1_555 1_555
Co7_2 O2_2 1_555 1_555
N6_2 Co1_2 1_555 1_555
O9_2 Co1_2 1_555 1_555
C6_2 C7_2 1_555 1_555
C8_2 C9_2 1_555 1_555
C15_2 C16_2 1_555 1_555
Co5_2 Co7_2 1_555 1_555
H11_2 C17_2 1_555 1_555
H12_2 C18_2 1_555 1_555
Co3_4 O5_2 1_555 1_555
O6_2 Co6_2 1_555 1_555
C17_2 C18_2 1_555 1_555
Co2_2 N1_2 1_555 1_555
N4_2 H7_2 1_555 1_555
H8_2 N4_2 1_555 1_555
C10_2 N1_2 1_555 1_555
Co4_2 N5_2 1_555 1_555
O10_2 Co2_2 1_555 1_555
O11_2 Co2_2 1_555 1_555
O12_2 Co2_2 1_555 1_555
N4_2 C10_2 1_555 1_555
N5_2 C10_2 1_555 1_555
Co3_3 N3_3 1_555 1_555
Co5_2 N1_3 1_555 1_555
N1_3 C1_3 1_555 1_555
N2_3 H1_3 1_555 1_555
H2_3 N2_3 1_555 1_555
N3_3 C1_3 1_555 1_555
C1_3 N2_3 1_555 1_555
N4_3 H7_3 1_555 1_555
H8_3 N4_3 1_555 1_555
N5_3 N3_3 1_555 1_555
C10_3 N1_3 1_555 1_555
Co4_3 N5_3 1_555 1_555
O9_3 Co3_3 1_555 1_555
O10_3 Co5_2 1_555 1_555
O11_3 Co5_2 1_555 1_555
O12_3 Co5_2 1_555 1_555
N4_3 C10_3 1_555 1_555
N5_3 C10_3 1_555 1_555
N6_3 Co3_4 1_555 1_555
Co3 N3_4 1_555 1_555
N2_4 H1_4 1_555 1_555
H2_4 N2_4 1_555 1_555
N3_4 C1_4 1_555 1_555
C1_4 N2_4 1_555 1_555
O9_4 Co3 1_555 1_555
N6_4 Co3_2 1_555 1_555
Co5 N1_4 1_555 1_555
O10_4 Co5 1_555 1_555
O11_4 Co5 1_555 1_555
N4_4 H7_4 1_555 1_555
H8_4 N4_4 1_555 1_555
Co4_5 N5_4 1_555 1_555
N4_4 C10_4 1_555 1_555
N5_4 C10_4 1_555 1_555
H11_3 C17_3 1_555 1_555
H12_3 C18_3 1_555 1_555
C17_3 C18_3 1_555 1_555
N2_5 H1_5 1_555 1_555
H2_5 N2_5 1_555 1_555
N6 C1_5 1_555 1_555
O10_3 C5_3 1_555 1_555
O3_3 C5_3 1_555 1_555
O4_3 C4_3 1_555 1_555
C1_5 N2_5 1_555 1_555
C2_3 C5_3 1_555 1_555
C3_3 C4_3 1_555 1_555
C4_3 O9 1_555 1_555
C6_3 C2_3 1_555 1_555
H3_3 C6_3 1_555 1_555
C7_3 C3_3 1_555 1_555
H4_3 C7_3 1_555 1_555
C8_3 C3_3 1_555 1_555
H5_3 C8_3 1_555 1_555
C9_3 C2_3 1_555 1_555
H6_3 C9_3 1_555 1_555
O8_3 C13_3 1_555 1_555
C11_3 C14_3 1_555 1_555
C12_3 C13_3 1_555 1_555
C14_3 O7_3 1_555 1_555
C15_3 C11_3 1_555 1_555
H9_3 C15_3 1_555 1_555
C16_3 C12_3 1_555 1_555
H10_3 C16_3 1_555 1_555
Co7_2 O3_3 1_555 1_555
C6_3 C7_3 1_555 1_555
C8_3 C9_3 1_555 1_555
C15_3 C16_3 1_555 1_555
Co6 N1_5 1_555 1_555
N4_5 H7_5 1_555 1_555
H8_5 N4_5 1_555 1_555
C10_5 N1_5 1_555 1_555
Co4 N5_5 1_555 1_555
O11_5 Co6 1_555 1_555
O12_5 Co6 1_555 1_555
N4_5 C10_5 1_555 1_555
N5_5 C10_5 1_555 1_555
H11_4 C17_4 1_555 1_555
C17_4 C18_4 1_555 1_555
Co6_2 N1_6 1_555 1_555
N1_6 C1_6 1_555 1_555
N2_6 H1_6 1_555 1_555
H2_6 N2_6 1_555 1_555
N6_2 C1_6 1_555 1_555
O3_4 C5_4 1_555 1_555
O4_4 C4_4 1_555 1_555
C1_6 N2_6 1_555 1_555
C2_4 C5_4 1_555 1_555
C3_4 C4_4 1_555 1_555
C4_4 O9_2 1_555 1_555
C6_4 C2_4 1_555 1_555
H3_4 C6_4 1_555 1_555
C7_4 C3_4 1_555 1_555
H4_4 C7_4 1_555 1_555
C8_4 C3_4 1_555 1_555
H5_4 C8_4 1_555 1_555
C9_4 C2_4 1_555 1_555
O7_4 Co6_2 1_555 1_555
O8_4 C13_4 1_555 1_555
C11_4 C14_4 1_555 1_555
C12_4 C13_4 1_555 1_555
C14_4 O7_4 1_555 1_555
C15_4 C11_4 1_555 1_555
H9_4 C15_4 1_555 1_555
C16_4 C12_4 1_555 1_555
H10_4 C16_4 1_555 1_555
O11_6 Co6_2 1_555 1_555
C6_4 C7_4 1_555 1_555
C8_4 C9_4 1_555 1_555
C15_4 C16_4 1_555 1_555
N4_6 H7_6 1_555 1_555
H8_6 N4_6 1_555 1_555
Co4_2 N5_6 1_555 1_555
N4_6 C10_6 1_555 1_555
N5_6 C10_6 1_555 1_555
N2_7 H1_7 1_555 1_555
H2_7 N2_7 1_555 1_555
N6_4 C1_7 1_555 1_555
C1_7 N2_7 1_555 1_555
Co7 N1_7 1_555 1_555
O11_7 Co7 1_555 1_555
N4_7 H7_7 1_555 1_555
H8_7 N4_7 1_555 1_555
Co4_6 N5_7 1_555 1_555
N4_7 C10_7 1_555 1_555
N5_7 C10_7 1_555 1_555
Co7_2 N1_8 1_555 1_555
N1_8 C1_8 1_555 1_555
N2_8 H1_8 1_555 1_555
H2_8 N2_8 1_555 1_555
N6_3 C1_8 1_555 1_555
C1_8 N2_8 1_555 1_555
N4_8 H7_8 1_555 1_555
H8_8 N4_8 1_555 1_555
N5_8 N6_3 1_555 1_555
C10_8 N1_8 1_555 1_555
Co4_4 N5_8 1_555 1_555
O11_8 Co7_2 1_555 1_555
O12_8 Co7_2 1_555 1_555
N4_8 C10_8 1_555 1_555
N5_8 C10_8 1_555 1_555
H11_5 C17_5 1_555 1_555
Co4_5 O5_3 1_555 1_555
C17_5 C18_5 1_555 1_555
O1_3 Co4 1_555 1_555
O12_7 C5_5 1_555 1_555
O4_5 C4_5 1_555 1_555
C2_5 C5_5 1_555 1_555
C3_5 C4_5 1_555 1_555
C4_5 O1_3 1_555 1_555
C6_5 C2_5 1_555 1_555
H3_5 C6_5 1_555 1_555
C7_5 C3_5 1_555 1_555
H4_5 C7_5 1_555 1_555
C8_5 C3_5 1_555 1_555
H5_5 C8_5 1_555 1_555
C9_5 C2_5 1_555 1_555
O8_5 C13_5 1_555 1_555
C11_5 C14_5 1_555 1_555
C12_5 C13_5 1_555 1_555
C14_5 O12_5 1_555 1_555
C15_5 C11_5 1_555 1_555
H9_5 C15_5 1_555 1_555
C16_5 C12_5 1_555 1_555
H10_5 C16_5 1_555 1_555
O9_5 Co4 1_555 1_555
C6_5 C7_5 1_555 1_555
C8_5 C9_5 1_555 1_555
C15_5 C16_5 1_555 1_555
H11_6 C17_6 1_555 1_555
H12_6 C18_6 1_555 1_555
Co4_3 O5_4 1_555 1_555
C17_6 C18_6 1_555 1_555
O1_4 Co4_2 1_555 1_555
O11_3 C5_6 1_555 1_555
O12_8 C5_6 1_555 1_555
O4_6 C4_6 1_555 1_555
C2_6 C5_6 1_555 1_555
C3_6 C4_6 1_555 1_555
C4_6 O1_4 1_555 1_555
C6_6 C2_6 1_555 1_555
H3_6 C6_6 1_555 1_555
C7_6 C3_6 1_555 1_555
H4_6 C7_6 1_555 1_555
C8_6 C3_6 1_555 1_555
H5_6 C8_6 1_555 1_555
C9_6 C2_6 1_555 1_555
H6_6 C9_6 1_555 1_555
O8_6 C13_6 1_555 1_555
C11_6 C14_6 1_555 1_555
C12_6 C13_6 1_555 1_555
C14_6 O12_6 1_555 1_555
C15_6 C11_6 1_555 1_555
H9_6 C15_6 1_555 1_555
C16_6 C12_6 1_555 1_555
H10_6 C16_6 1_555 1_555
O9_6 Co4_2 1_555 1_555
C6_6 C7_6 1_555 1_555
C8_6 C9_6 1_555 1_555
C15_6 C16_6 1_555 1_555
O9_7 Co4_4 1_555 1_555
O9_8 Co4_6 1_555 1_555
O11_8 C5_7 1_555 1_555
O12_3 C5_7 1_555 1_555
O4_7 C4_7 1_555 1_555
C2_7 C5_7 1_555 1_555
C3_7 C4_7 1_555 1_555
C4_7 O9_5 1_555 1_555
C6_7 C2_7 1_555 1_555
H3_7 C6_7 1_555 1_555
C7_7 C3_7 1_555 1_555
H4_7 C7_7 1_555 1_555
C8_7 C3_7 1_555 1_555
H5_7 C8_7 1_555 1_555
C9_7 C2_7 1_555 1_555
H6_7 C9_7 1_555 1_555
O8_7 C13_7 1_555 1_555
C11_7 C14_7 1_555 1_555
C12_7 C13_7 1_555 1_555
C14_7 O12 1_555 1_555
C15_7 C11_7 1_555 1_555
H9_7 C15_7 1_555 1_555
C16_7 C12_7 1_555 1_555
H10_7 C16_7 1_555 1_555
C6_7 C7_7 1_555 1_555
C8_7 C9_7 1_555 1_555
C15_7 C16_7 1_555 1_555
H11_7 C17_7 1_555 1_555
H12_7 C18_7 1_555 1_555
C17_7 C18_7 1_555 1_555
O12_4 C5_8 1_555 1_555
O4_8 C4_8 1_555 1_555
C2_8 C5_8 1_555 1_555
C3_8 C4_8 1_555 1_555
C4_8 O9_6 1_555 1_555
C6_8 C2_8 1_555 1_555
H3_8 C6_8 1_555 1_555
C7_8 C3_8 1_555 1_555
H4_8 C7_8 1_555 1_555
C8_8 C3_8 1_555 1_555
H5_8 C8_8 1_555 1_555
C9_8 C2_8 1_555 1_555
O8_8 C13_8 1_555 1_555
C11_8 C14_8 1_555 1_555
C12_8 C13_8 1_555 1_555
C14_8 O12_2 1_555 1_555
C15_8 C11_8 1_555 1_555
H9_8 C15_8 1_555 1_555
C16_8 C12_8 1_555 1_555
H10_8 C16_8 1_555 1_555
C6_8 C7_8 1_555 1_555
C8_8 C9_8 1_555 1_555
C15_8 C16_8 1_555 1_555
H11_8 C17_8 1_555 1_555
C17_8 C18_8 1_555 1_555
N7 H13 1_555 1_555
H14 N7 1_555 1_555
C19 N7 1_555 1_555
H15 C19 1_555 1_555
H16 C19 1_555 1_555
H17 C19 1_555 1_555
C20 N7 1_555 1_555
H18 C20 1_555 1_555
H19 C20 1_555 1_555
H20 C20 1_555 1_555
N7_2 H13_2 1_555 1_555
H14_2 N7_2 1_555 1_555
C19_2 N7_2 1_555 1_555
H15_2 C19_2 1_555 1_555
H16_2 C19_2 1_555 1_555
H17_2 C19_2 1_555 1_555
C20_2 N7_2 1_555 1_555
H18_2 C20_2 1_555 1_555
H19_2 C20_2 1_555 1_555
H20_2 C20_2 1_555 1_555
N7_3 H13_3 1_555 1_555
H14_3 N7_3 1_555 1_555
C19_3 N7_3 1_555 1_555
H15_3 C19_3 1_555 1_555
H16_3 C19_3 1_555 1_555
H17_3 C19_3 1_555 1_555
C20_3 N7_3 1_555 1_555
H18_3 C20_3 1_555 1_555
H19_3 C20_3 1_555 1_555
H20_3 C20_3 1_555 1_555
N7_4 H13_4 1_555 1_555
H14_4 N7_4 1_555 1_555
C19_4 N7_4 1_555 1_555
H15_4 C19_4 1_555 1_555
H16_4 C19_4 1_555 1_555
H17_4 C19_4 1_555 1_555
C20_4 N7_4 1_555 1_555
H18_4 C20_4 1_555 1_555
H19_4 C20_4 1_555 1_555
H20_4 C20_4 1_555 1_555
N7_5 H13_5 1_555 1_555
H14_5 N7_5 1_555 1_555
C19_5 N7_5 1_555 1_555
H15_5 C19_5 1_555 1_555
H16_5 C19_5 1_555 1_555
H17_5 C19_5 1_555 1_555
C20_5 N7_5 1_555 1_555
H18_5 C20_5 1_555 1_555
H19_5 C20_5 1_555 1_555
H20_5 C20_5 1_555 1_555
N7_6 H13_6 1_555 1_555
H14_6 N7_6 1_555 1_555
C19_6 N7_6 1_555 1_555
H15_6 C19_6 1_555 1_555
H16_6 C19_6 1_555 1_555
H17_6 C19_6 1_555 1_555
C20_6 N7_6 1_555 1_555
H18_6 C20_6 1_555 1_555
H19_6 C20_6 1_555 1_555
H20_6 C20_6 1_555 1_555
N7_7 H13_7 1_555 1_555
H14_7 N7_7 1_555 1_555
C19_7 N7_7 1_555 1_555
H15_7 C19_7 1_555 1_555
H16_7 C19_7 1_555 1_555
H17_7 C19_7 1_555 1_555
C20_7 N7_7 1_555 1_555
H18_7 C20_7 1_555 1_555
H19_7 C20_7 1_555 1_555
H20_7 C20_7 1_555 1_555
N7_8 H13_8 1_555 1_555
H14_8 N7_8 1_555 1_555
C19_8 N7_8 1_555 1_555
H15_8 C19_8 1_555 1_555
H16_8 C19_8 1_555 1_555
H17_8 C19_8 1_555 1_555
C20_8 N7_8 1_555 1_555
H18_8 C20_8 1_555 1_555
H19_8 C20_8 1_555 1_555
H20_8 C20_8 1_555 1_555

#END
