
###############################################################################
#
# This file contains modified crystal structure data generated from the
# MOF subset of the Cambridge Structural Database (CSD) v543 
# hosted by the Cambridge Crystallographic Data Centre (CCDC).
#
# This work is licensed under the Creative Commons
# Attribution-NonCommercial-ShareAlike 4.0 International License.
# To view a copy of this license, visit
# http://creativecommons.org/licenses/by-nc-sa/4.0/
# or send a letter to
# Creative Commons, PO Box 1866, Mountain View, CA 94042, USA.
#
# CIF created using the CSD Python API on 29 September 2022
# The structure has been converted into the P1 space group
# The structure has a 3D framework
# The original CSD entry OXECEC is in the tetragonal crystal system
# The framework has been calculated to contain at least 10.0% void space
# The void calculation uses a probe of radius 1.32A, grid spacing 0.4
# The framework is charged, counterions have been retained in the structure
#
###############################################################################

data_OXECEC
_chemical_formula_moiety         '(C160 H176 Co16 N64 O48)n'
_symmetry_cell_setting           triclinic
_symmetry_space_group_name_H-M   'P 1'
_symmetry_Int_Tables_number      1
_space_group_name_Hall           'P 1'
loop_
_symmetry_equiv_pos_site_id
_symmetry_equiv_pos_as_xyz
1 x,y,z
_cell_length_a                   24.409(5)
_cell_length_b                   24.409(5)
_cell_length_c                   14.139(5)
_cell_angle_alpha                90
_cell_angle_beta                 90
_cell_angle_gamma                90
_cell_volume                     8424.01
loop_
_atom_site_label
_atom_site_type_symbol
_atom_site_fract_x
_atom_site_fract_y
_atom_site_fract_z
Co1 Co 0.445630(12) 0.445630(12) 0.0000
Co2 Co 0.506724(14) 0.493276(14) 0.40372(3)
N1 N 0.44717(9) 0.41660(9) 0.23174(14)
H1 H 0.4275 0.3991 0.1913
H2 H 0.4462 0.4075 0.2905
N2 N 0.51429(9) 0.48571(9) 0.26189(19)
N3 N 0.48379(8) 0.47527(8) 0.11371(13)
C1 C 0.16512(11) 0.48290(14) 0.02615(19)
C2 C 0.27671(11) 0.45886(15) 0.0397(2)
C3 C 0.47987(10) 0.45866(9) 0.20277(15)
O2 O 0.07641(8) 0.49130(12) 0.09070(14)
C4 C 0.10536(11) 0.49362(12) 0.01751(19)
O4 O 0.35116(9) 0.41562(12) 0.11828(17)
C5 C 0.33608(11) 0.44471(14) 0.0516(2)
C6 C 0.18643(12) 0.46083(19) 0.1090(2)
H3 H 0.1637 0.4546 0.1606
C9 C 0.24161(12) 0.44820(19) 0.1146(2)
H5 H 0.2554 0.4323 0.1694
N5 N 0.58340(9) 0.55283(9) 0.23174(14)
H8 H 0.6009 0.5725 0.1913
H9 H 0.5925 0.5538 0.2905
N6 N 0.52473(8) 0.51621(8) 0.11371(13)
C10 C 0.54134(9) 0.52013(10) 0.20277(15)
O5 O 0.13122(8) 0.46485(10) 0.51014(14)
C11 C 0.33488(11) 0.48290(14) 0.47385(19)
C12 C 0.22329(11) 0.45886(15) 0.4603(2)
O6 O 0.42359(8) 0.49130(12) 0.40930(14)
O7 O 0.41261(8) 0.50374(11) 0.56393(14)
C13 C 0.39464(11) 0.49362(12) 0.48249(19)
O8 O 0.14884(9) 0.41562(12) 0.38172(17)
C14 C 0.16392(11) 0.44471(14) 0.4484(2)
C15 C 0.31357(12) 0.46083(19) 0.3910(2)
H10 H 0.3363 0.4546 0.3394
C16 C 0.24409(13) 0.4816(2) 0.5422(3)
C17 C 0.30030(13) 0.4926(2) 0.5487(2)
H11 H 0.3145 0.5067 0.6047
C18 C 0.25839(12) 0.44820(19) 0.3854(2)
H12 H 0.2446 0.4323 0.3306
N7 N 0.2132(2) 0.4886(4) 0.6252(4)
H13 H 0.1795 0.4785 0.6268
H14 H 0.2281 0.5031 0.6744
Co3 Co 0.054370(12) 0.445630(12) 0.5000
Co4 Co 0.554370(12) 0.554370(12) 0.0000
Co6 Co 0.493276(14) 0.506724(14) 0.59628(3)
O9 O 0.46485(10) 0.36878(8) 0.01014(14)
O10 O 0.50870(12) 0.57641(8) 0.40930(14)
O11 O 0.50374(11) 0.41261(8) 0.43607(14)
O12 O 0.58739(8) 0.49626(11) 0.43607(14)
Co1_2 Co 0.445630(12) 0.445630(12) 1.0000
O1 O 0.36878(8) 0.46485(10) 0.98986(14)
O3 O 0.08739(8) 0.50374(11) 0.93607(14)
C7 C 0.25591(13) 0.4816(2) 0.9578(3)
C8 C 0.19970(13) 0.4926(2) 0.9513(2)
H4 H 0.1855 0.5067 0.8953
N4 N 0.2868(2) 0.4886(4) 0.8748(4)
H6 H 0.3205 0.4785 0.8732
H7 H 0.2719 0.5031 0.8256
Co4_2 Co 0.554370(12) 0.554370(12) 1.0000
Co7 Co 0.006724(14) 0.506724(14) 0.90372(3)
N8 N 0.47527(8) 0.48379(8) 0.88629(13)
Co5 Co 0.993276(14) 0.493276(14) 0.09628(3)
Co1_3 Co 0.054370(12) 0.054370(12) 0.0000
N1_2 N 0.05283(9) 0.08340(9) 0.23174(14)
H1_2 H 0.0725 0.1009 0.1913
H2_2 H 0.0538 0.0925 0.2905
N3_2 N 0.01621(8) 0.02473(8) 0.11371(13)
C1_2 C 0.33488(11) 0.01710(14) 0.02615(19)
C2_2 C 0.22329(11) 0.04114(15) 0.0397(2)
C3_2 C 0.02013(10) 0.04134(9) 0.20277(15)
O2_2 O 0.42359(8) 0.00870(12) 0.09070(14)
C4_2 C 0.39464(11) 0.00638(12) 0.01751(19)
O4_2 O 0.14884(9) 0.08438(12) 0.11828(17)
C5_2 C 0.16392(11) 0.05529(14) 0.0516(2)
C6_2 C 0.31357(12) 0.03917(19) 0.1090(2)
H3_2 H 0.3363 0.0454 0.1606
C9_2 C 0.25839(12) 0.05180(19) 0.1146(2)
H5_2 H 0.2446 0.0677 0.1694
O5_2 O 0.36878(8) 0.03515(10) 0.51014(14)
C11_2 C 0.16512(11) 0.01710(14) 0.47385(19)
C12_2 C 0.27671(11) 0.04114(15) 0.4603(2)
O6_2 O 0.07641(8) 0.00870(12) 0.40930(14)
C13_2 C 0.10536(11) 0.00638(12) 0.48249(19)
O8_2 O 0.35116(9) 0.08438(12) 0.38172(17)
C14_2 C 0.33608(11) 0.05529(14) 0.4484(2)
C15_2 C 0.18643(12) 0.03917(19) 0.3910(2)
H10_2 H 0.1637 0.0454 0.3394
C16_2 C 0.25591(13) 0.0184(2) 0.5422(3)
C17_2 C 0.19970(13) 0.0074(2) 0.5487(2)
C18_2 C 0.24161(12) 0.05180(19) 0.3854(2)
H12_2 H 0.2554 0.0677 0.3306
N7_2 N 0.2868(2) 0.0114(4) 0.6252(4)
H13_2 H 0.3205 0.0215 0.6268
Co3_2 Co 0.445630(12) 0.054370(12) 0.5000
Co5_2 Co 0.506724(14) 0.006724(14) 0.09628(3)
O9_2 O 0.03515(10) 0.13122(8) 0.01014(14)
Co1_4 Co 0.054370(12) 0.054370(12) 1.0000
O1_2 O 0.13122(8) 0.03515(10) 0.98986(14)
C7_2 C 0.24409(13) 0.0184(2) 0.9578(3)
C8_2 C 0.30030(13) 0.0074(2) 0.9513(2)
N4_2 N 0.2132(2) 0.0114(4) 0.8748(4)
H6_2 H 0.1795 0.0215 0.8732
N8_2 N 0.02473(8) 0.01621(8) 0.88629(13)
O7_2 O 0.08739(8) 0.99626(11) 0.56393(14)
H11_2 H 0.1855 0.9933 0.6047
H14_2 H 0.2719 0.9969 0.6744
Co6_2 Co 0.006724(14) 0.993276(14) 0.59628(3)
O3_2 O 0.41261(8) 0.99626(11) 0.93607(14)
H4_2 H 0.3145 0.9933 0.8953
H7_2 H 0.2281 0.9969 0.8256
Co7_2 Co 0.493276(14) 0.993276(14) 0.90372(3)
Co2_2 Co 0.993276(14) 0.006724(14) 0.40372(3)
N2_2 N 0.98571(9) 0.01429(9) 0.26189(19)
O11_2 O 0.99626(11) 0.08739(8) 0.43607(14)
O12_2 O 0.91261(8) 0.00374(11) 0.43607(14)
N5_2 N 0.91660(9) 0.94717(9) 0.23174(14)
H8_2 H 0.8991 0.9275 0.1913
H9_2 H 0.9075 0.9462 0.2905
N6_2 N 0.97527(8) 0.98379(8) 0.11371(13)
C10_2 C 0.95866(9) 0.97987(10) 0.20277(15)
Co4_3 Co 0.945630(12) 0.945630(12) 0.0000
O10_2 O 0.99130(12) 0.92359(8) 0.40930(14)
Co4_4 Co 0.945630(12) 0.945630(12) 1.0000
N1_3 N 0.44717(9) 0.08340(9) 0.26826(14)
H1_3 H 0.4275 0.1009 0.3087
H2_3 H 0.4462 0.0925 0.2095
N2_3 N 0.51429(9) 0.01429(9) 0.23811(19)
N3_3 N 0.48379(8) 0.02473(8) 0.38629(13)
C3_3 C 0.47987(10) 0.04134(9) 0.29723(15)
N8_3 N 0.47527(8) 0.01621(8) 0.61371(13)
O9_3 O 0.46485(10) 0.13122(8) 0.48986(14)
O11_3 O 0.50374(11) 0.08739(8) 0.06393(14)
O12_3 O 0.58739(8) 0.00374(11) 0.06393(14)
N5_3 N 0.58340(9) 0.94717(9) 0.26826(14)
H8_3 H 0.6009 0.9275 0.3087
H9_3 H 0.5925 0.9462 0.2095
N6_3 N 0.52473(8) 0.98379(8) 0.38629(13)
C10_3 C 0.54134(9) 0.97987(10) 0.29723(15)
Co4_5 Co 0.554370(12) 0.945630(12) 0.5000
O10_3 O 0.50870(12) 0.92359(8) 0.09070(14)
N1_4 N 0.05283(9) 0.41660(9) 0.26826(14)
H1_4 H 0.0725 0.3991 0.3087
H2_4 H 0.0538 0.4075 0.2095
N3_4 N 0.01621(8) 0.47527(8) 0.38629(13)
C3_4 C 0.02013(10) 0.45866(9) 0.29723(15)
N8_4 N 0.02473(8) 0.48379(8) 0.61371(13)
O9_4 O 0.03515(10) 0.36878(8) 0.48986(14)
N2_4 N 0.98571(9) 0.48571(9) 0.23811(19)
N5_4 N 0.91660(9) 0.55283(9) 0.26826(14)
H8_4 H 0.8991 0.5725 0.3087
H9_4 H 0.9075 0.5538 0.2095
N6_4 N 0.97527(8) 0.51621(8) 0.38629(13)
C10_4 C 0.95866(9) 0.52013(10) 0.29723(15)
Co4_6 Co 0.945630(12) 0.554370(12) 0.5000
O10_4 O 0.99130(12) 0.57641(8) 0.09070(14)
O11_4 O 0.99626(11) 0.41261(8) 0.06393(14)
O12_4 O 0.91261(8) 0.49626(11) 0.06393(14)
C7_3 C 0.0184(2) 0.24409(13) 0.0422(3)
C8_3 C 0.0074(2) 0.30030(13) 0.0487(2)
N4_3 N 0.0114(4) 0.2132(2) 0.1252(4)
H6_3 H 0.0215 0.1795 0.1268
N1_5 N 0.08340(9) 0.05283(9) 0.76826(14)
H1_5 H 0.1009 0.0725 0.8087
H2_5 H 0.0925 0.0538 0.7095
C1_3 C 0.01710(14) 0.33488(11) 0.97385(19)
C2_3 C 0.04114(15) 0.22329(11) 0.9603(2)
C3_5 C 0.04134(9) 0.02013(10) 0.79723(15)
O2_3 O 0.00870(12) 0.42359(8) 0.90930(14)
C4_3 C 0.00638(12) 0.39464(11) 0.98249(19)
O4_3 O 0.08438(12) 0.14884(9) 0.88172(17)
C5_3 C 0.05529(14) 0.16392(11) 0.9484(2)
C6_3 C 0.03917(19) 0.31357(12) 0.8910(2)
H3_3 H 0.0454 0.3363 0.8394
C9_3 C 0.05180(19) 0.25839(12) 0.8854(2)
H5_3 H 0.0677 0.2446 0.8306
C11_3 C 0.01710(14) 0.16512(11) 0.52615(19)
C12_3 C 0.04114(15) 0.27671(11) 0.5397(2)
O6_3 O 0.00870(12) 0.07641(8) 0.59070(14)
C13_3 C 0.00638(12) 0.10536(11) 0.51751(19)
O8_3 O 0.08438(12) 0.35116(9) 0.61828(17)
C14_3 C 0.05529(14) 0.33608(11) 0.5516(2)
C15_3 C 0.03917(19) 0.18643(12) 0.6090(2)
H10_3 H 0.0454 0.1637 0.6606
C16_3 C 0.0184(2) 0.25591(13) 0.4578(3)
C17_3 C 0.0074(2) 0.19970(13) 0.4513(2)
C18_3 C 0.05180(19) 0.24161(12) 0.6146(2)
H12_3 H 0.0677 0.2554 0.6694
N7_3 N 0.0114(4) 0.2868(2) 0.3748(4)
H13_3 H 0.0215 0.3205 0.3732
N2_5 N 0.01429(9) 0.98571(9) 0.73811(19)
O12_5 O 0.00374(11) 0.91261(8) 0.56393(14)
H4_3 H 0.9933 0.3145 0.1047
H7_3 H 0.9969 0.2281 0.1744
H11_3 H 0.9933 0.1855 0.3953
H14_3 H 0.9969 0.2719 0.3256
N5_5 N 0.94717(9) 0.91660(9) 0.76826(14)
H8_5 H 0.9275 0.8991 0.8087
H9_5 H 0.9462 0.9075 0.7095
N6_5 N 0.98379(8) 0.97527(8) 0.88629(13)
C10_5 C 0.97987(10) 0.95866(9) 0.79723(15)
O10_5 O 0.92359(8) 0.99130(12) 0.59070(14)
C7_4 C 0.4816(2) 0.25591(13) 0.0422(3)
C8_4 C 0.4926(2) 0.19970(13) 0.0487(2)
H4_4 H 0.5067 0.1855 0.1047
N4_4 N 0.4886(4) 0.2868(2) 0.1252(4)
H6_4 H 0.4785 0.3205 0.1268
H7_4 H 0.5031 0.2719 0.1744
N1_6 N 0.41660(9) 0.44717(9) 0.76826(14)
H1_6 H 0.3991 0.4275 0.8087
H2_6 H 0.4075 0.4462 0.7095
N2_6 N 0.48571(9) 0.51429(9) 0.73811(19)
C1_4 C 0.48290(14) 0.16512(11) 0.97385(19)
C2_4 C 0.45886(15) 0.27671(11) 0.9603(2)
C3_6 C 0.45866(9) 0.47987(10) 0.79723(15)
O2_4 O 0.49130(12) 0.07641(8) 0.90930(14)
C4_4 C 0.49362(12) 0.10536(11) 0.98249(19)
O4_4 O 0.41562(12) 0.35116(9) 0.88172(17)
C5_4 C 0.44471(14) 0.33608(11) 0.9484(2)
C6_4 C 0.46083(19) 0.18643(12) 0.8910(2)
H3_4 H 0.4546 0.1637 0.8394
C9_4 C 0.44820(19) 0.24161(12) 0.8854(2)
H5_4 H 0.4323 0.2554 0.8306
N5_6 N 0.55283(9) 0.58340(9) 0.76826(14)
H8_6 H 0.5725 0.6009 0.8087
H9_6 H 0.5538 0.5925 0.7095
N6_6 N 0.51621(8) 0.52473(8) 0.88629(13)
C10_6 C 0.52013(10) 0.54134(9) 0.79723(15)
C11_4 C 0.48290(14) 0.33488(11) 0.52615(19)
C12_4 C 0.45886(15) 0.22329(11) 0.5397(2)
O6_4 O 0.49130(12) 0.42359(8) 0.59070(14)
C13_4 C 0.49362(12) 0.39464(11) 0.51751(19)
O8_4 O 0.41562(12) 0.14884(9) 0.61828(17)
C14_4 C 0.44471(14) 0.16392(11) 0.5516(2)
C15_4 C 0.46083(19) 0.31357(12) 0.6090(2)
H10_4 H 0.4546 0.3363 0.6606
C16_4 C 0.4816(2) 0.24409(13) 0.4578(3)
C17_4 C 0.4926(2) 0.30030(13) 0.4513(2)
H11_4 H 0.5067 0.3145 0.3953
C18_4 C 0.44820(19) 0.25839(12) 0.6146(2)
H12_4 H 0.4323 0.2446 0.6694
N7_4 N 0.4886(4) 0.2132(2) 0.3748(4)
H13_4 H 0.4785 0.1795 0.3732
H14_4 H 0.5031 0.2281 0.3256
O10_6 O 0.57641(8) 0.50870(12) 0.59070(14)
O12_6 O 0.49626(11) 0.58739(8) 0.56393(14)
N1_7 N 0.41660(9) 0.05283(9) 0.73174(14)
H1_7 H 0.3991 0.0725 0.6913
H2_7 H 0.4075 0.0538 0.7905
C3_7 C 0.45866(9) 0.02013(10) 0.70277(15)
N2_7 N 0.48571(9) 0.98571(9) 0.76189(19)
N5_7 N 0.55283(9) 0.91660(9) 0.73174(14)
H8_7 H 0.5725 0.8991 0.6913
H9_7 H 0.5538 0.9075 0.7905
N6_7 N 0.51621(8) 0.97527(8) 0.61371(13)
C10_7 C 0.52013(10) 0.95866(9) 0.70277(15)
O10_7 O 0.57641(8) 0.99130(12) 0.90930(14)
O12_7 O 0.49626(11) 0.91261(8) 0.93607(14)
N1_8 N 0.08340(9) 0.44717(9) 0.73174(14)
H1_8 H 0.1009 0.4275 0.6913
H2_8 H 0.0925 0.4462 0.7905
N2_8 N 0.01429(9) 0.51429(9) 0.76189(19)
C3_8 C 0.04134(9) 0.47987(10) 0.70277(15)
O12_8 O 0.00374(11) 0.58739(8) 0.93607(14)
N5_8 N 0.94717(9) 0.58340(9) 0.73174(14)
H8_8 H 0.9275 0.6009 0.6913
H9_8 H 0.9462 0.5925 0.7905
N6_8 N 0.98379(8) 0.52473(8) 0.61371(13)
C10_8 C 0.97987(10) 0.54134(9) 0.70277(15)
O10_8 O 0.92359(8) 0.50870(12) 0.90930(14)
O1_3 O 0.63122(8) 0.53515(10) 0.01014(14)
C7_5 C 0.74409(13) 0.5184(2) 0.0422(3)
C8_5 C 0.80030(13) 0.5074(2) 0.0487(2)
H4_5 H 0.8145 0.4933 0.1047
N4_5 N 0.7132(2) 0.5114(4) 0.1252(4)
H6_5 H 0.6795 0.5215 0.1268
H7_5 H 0.7281 0.4969 0.1744
C1_5 C 0.83488(11) 0.51710(14) 0.97385(19)
C2_5 C 0.72329(11) 0.54114(15) 0.9603(2)
C4_5 C 0.89464(11) 0.50638(12) 0.98249(19)
O4_5 O 0.64884(9) 0.58438(12) 0.88172(17)
C5_5 C 0.66392(11) 0.55529(14) 0.9484(2)
C6_5 C 0.81357(12) 0.53917(19) 0.8910(2)
H3_5 H 0.8363 0.5454 0.8394
C9_5 C 0.75839(12) 0.55180(19) 0.8854(2)
H5_5 H 0.7446 0.5677 0.8306
O5_3 O 0.86878(8) 0.53515(10) 0.48986(14)
C11_5 C 0.66512(11) 0.51710(14) 0.52615(19)
C12_5 C 0.77671(11) 0.54114(15) 0.5397(2)
C13_5 C 0.60536(11) 0.50638(12) 0.51751(19)
O8_5 O 0.85116(9) 0.58438(12) 0.61828(17)
C14_5 C 0.83608(11) 0.55529(14) 0.5516(2)
C15_5 C 0.68643(12) 0.53917(19) 0.6090(2)
H10_5 H 0.6637 0.5454 0.6606
C16_5 C 0.75591(13) 0.5184(2) 0.4578(3)
C17_5 C 0.69970(13) 0.5074(2) 0.4513(2)
H11_5 H 0.6855 0.4933 0.3953
C18_5 C 0.74161(12) 0.55180(19) 0.6146(2)
H12_5 H 0.7554 0.5677 0.6694
N7_5 N 0.7868(2) 0.5114(4) 0.3748(4)
H13_5 H 0.8205 0.5215 0.3732
H14_5 H 0.7719 0.4969 0.3256
O9_5 O 0.53515(10) 0.63122(8) 0.98986(14)
H4_6 H 0.6855 0.0067 0.1047
H7_6 H 0.7719 0.0031 0.1744
H11_6 H 0.8145 0.0067 0.3953
H14_6 H 0.7281 0.0031 0.3256
O1_4 O 0.86878(8) 0.96485(10) 0.01014(14)
C7_6 C 0.75591(13) 0.9816(2) 0.0422(3)
C8_6 C 0.69970(13) 0.9926(2) 0.0487(2)
N4_6 N 0.7868(2) 0.9886(4) 0.1252(4)
H6_6 H 0.8205 0.9785 0.1268
C1_6 C 0.66512(11) 0.98290(14) 0.97385(19)
C2_6 C 0.77671(11) 0.95886(15) 0.9603(2)
C4_6 C 0.60536(11) 0.99362(12) 0.98249(19)
O4_6 O 0.85116(9) 0.91562(12) 0.88172(17)
C5_6 C 0.83608(11) 0.94471(14) 0.9484(2)
C6_6 C 0.68643(12) 0.96083(19) 0.8910(2)
H3_6 H 0.6637 0.9546 0.8394
C9_6 C 0.74161(12) 0.94820(19) 0.8854(2)
H5_6 H 0.7554 0.9323 0.8306
O5_4 O 0.63122(8) 0.96485(10) 0.48986(14)
C11_6 C 0.83488(11) 0.98290(14) 0.52615(19)
C12_6 C 0.72329(11) 0.95886(15) 0.5397(2)
C13_6 C 0.89464(11) 0.99362(12) 0.51751(19)
O8_6 O 0.64884(9) 0.91562(12) 0.61828(17)
C14_6 C 0.66392(11) 0.94471(14) 0.5516(2)
C15_6 C 0.81357(12) 0.96083(19) 0.6090(2)
H10_6 H 0.8363 0.9546 0.6606
C16_6 C 0.74409(13) 0.9816(2) 0.4578(3)
C17_6 C 0.80030(13) 0.9926(2) 0.4513(2)
C18_6 C 0.75839(12) 0.94820(19) 0.6146(2)
H12_6 H 0.7446 0.9323 0.6694
N7_6 N 0.7132(2) 0.9886(4) 0.3748(4)
H13_6 H 0.6795 0.9785 0.3732
O9_6 O 0.96485(10) 0.86878(8) 0.98986(14)
O9_7 O 0.53515(10) 0.86878(8) 0.51014(14)
O9_8 O 0.96485(10) 0.63122(8) 0.51014(14)
H11_7 H 0.0067 0.8145 0.6047
H14_7 H 0.0031 0.7281 0.6744
H4_7 H 0.0067 0.6855 0.8953
H7_7 H 0.0031 0.7719 0.8256
C1_7 C 0.98290(14) 0.66512(11) 0.02615(19)
C2_7 C 0.95886(15) 0.77671(11) 0.0397(2)
C4_7 C 0.99362(12) 0.60536(11) 0.01751(19)
O4_7 O 0.91562(12) 0.85116(9) 0.11828(17)
C5_7 C 0.94471(14) 0.83608(11) 0.0516(2)
C6_7 C 0.96083(19) 0.68643(12) 0.1090(2)
H3_7 H 0.9546 0.6637 0.1606
C9_7 C 0.94820(19) 0.74161(12) 0.1146(2)
H5_7 H 0.9323 0.7554 0.1694
C11_7 C 0.98290(14) 0.83488(11) 0.47385(19)
C12_7 C 0.95886(15) 0.72329(11) 0.4603(2)
C13_7 C 0.99362(12) 0.89464(11) 0.48249(19)
O8_7 O 0.91562(12) 0.64884(9) 0.38172(17)
C14_7 C 0.94471(14) 0.66392(11) 0.4484(2)
C15_7 C 0.96083(19) 0.81357(12) 0.3910(2)
H10_7 H 0.9546 0.8363 0.3394
C16_7 C 0.9816(2) 0.74409(13) 0.5422(3)
C17_7 C 0.9926(2) 0.80030(13) 0.5487(2)
C18_7 C 0.94820(19) 0.75839(12) 0.3854(2)
H12_7 H 0.9323 0.7446 0.3306
N7_7 N 0.9886(4) 0.7132(2) 0.6252(4)
H13_7 H 0.9785 0.6795 0.6268
C7_7 C 0.9816(2) 0.75591(13) 0.9578(3)
C8_7 C 0.9926(2) 0.69970(13) 0.9513(2)
N4_7 N 0.9886(4) 0.7868(2) 0.8748(4)
H6_7 H 0.9785 0.8205 0.8732
C1_8 C 0.51710(14) 0.83488(11) 0.02615(19)
C2_8 C 0.54114(15) 0.72329(11) 0.0397(2)
C4_8 C 0.50638(12) 0.89464(11) 0.01751(19)
O4_8 O 0.58438(12) 0.64884(9) 0.11828(17)
C5_8 C 0.55529(14) 0.66392(11) 0.0516(2)
C6_8 C 0.53917(19) 0.81357(12) 0.1090(2)
H3_8 H 0.5454 0.8363 0.1606
C9_8 C 0.55180(19) 0.75839(12) 0.1146(2)
H5_8 H 0.5677 0.7446 0.1694
C11_8 C 0.51710(14) 0.66512(11) 0.47385(19)
C12_8 C 0.54114(15) 0.77671(11) 0.4603(2)
C13_8 C 0.50638(12) 0.60536(11) 0.48249(19)
O8_8 O 0.58438(12) 0.85116(9) 0.38172(17)
C14_8 C 0.55529(14) 0.83608(11) 0.4484(2)
C15_8 C 0.53917(19) 0.68643(12) 0.3910(2)
H10_8 H 0.5454 0.6637 0.3394
C16_8 C 0.5184(2) 0.75591(13) 0.5422(3)
C17_8 C 0.5074(2) 0.69970(13) 0.5487(2)
H11_8 H 0.4933 0.6855 0.6047
C18_8 C 0.55180(19) 0.74161(12) 0.3854(2)
H12_8 H 0.5677 0.7554 0.3306
N7_8 N 0.5114(4) 0.7868(2) 0.6252(4)
H13_8 H 0.5215 0.8205 0.6268
H14_8 H 0.4969 0.7719 0.6744
C7_8 C 0.5184(2) 0.74409(13) 0.9578(3)
C8_8 C 0.5074(2) 0.80030(13) 0.9513(2)
H4_8 H 0.4933 0.8145 0.8953
N4_8 N 0.5114(4) 0.7132(2) 0.8748(4)
H6_8 H 0.5215 0.6795 0.8732
H7_8 H 0.4969 0.7281 0.8256
N9 N 0.3782(2) 0.6218(2) 0.2062(7)
H15 H 0.3615 0.6385 0.2551
H16 H 0.3650 0.6350 0.1513
C19 C 0.3738(4) 0.5610(6) 0.2119(5)
H17 H 0.3360 0.5505 0.2082
H18 H 0.3890 0.5486 0.2708
H19 H 0.3937 0.5448 0.1604
C20 C 0.4390(6) 0.6262(4) 0.2119(5)
H20 H 0.4495 0.6640 0.2082
H21 H 0.4514 0.6110 0.2708
H22 H 0.4552 0.6063 0.1604
N9_2 N 0.1218(2) 0.8782(2) 0.2062(7)
H15_2 H 0.1385 0.8615 0.2551
H16_2 H 0.1350 0.8650 0.1513
C19_2 C 0.1262(4) 0.9390(6) 0.2119(5)
H17_2 H 0.1640 0.9495 0.2082
H18_2 H 0.1110 0.9514 0.2708
H19_2 H 0.1063 0.9552 0.1604
C20_2 C 0.0610(6) 0.8738(4) 0.2119(5)
H20_2 H 0.0505 0.8360 0.2082
H21_2 H 0.0486 0.8890 0.2708
H22_2 H 0.0448 0.8937 0.1604
N9_3 N 0.3782(2) 0.8782(2) 0.2938(7)
H15_3 H 0.3615 0.8615 0.2449
H16_3 H 0.3650 0.8650 0.3487
C19_3 C 0.3738(4) 0.9390(6) 0.2881(5)
H17_3 H 0.3360 0.9495 0.2918
H18_3 H 0.3890 0.9514 0.2292
H19_3 H 0.3937 0.9552 0.3396
C20_3 C 0.4390(6) 0.8738(4) 0.2881(5)
H20_3 H 0.4495 0.8360 0.2918
H21_3 H 0.4514 0.8890 0.2292
H22_3 H 0.4552 0.8937 0.3396
N9_4 N 0.1218(2) 0.6218(2) 0.2938(7)
H15_4 H 0.1385 0.6385 0.2449
H16_4 H 0.1350 0.6350 0.3487
C19_4 C 0.1262(4) 0.5610(6) 0.2881(5)
H17_4 H 0.1640 0.5505 0.2918
H18_4 H 0.1110 0.5486 0.2292
H19_4 H 0.1063 0.5448 0.3396
C20_4 C 0.0610(6) 0.6262(4) 0.2881(5)
H20_4 H 0.0505 0.6640 0.2918
H21_4 H 0.0486 0.6110 0.2292
H22_4 H 0.0448 0.6063 0.3396
N9_5 N 0.8782(2) 0.1218(2) 0.7938(7)
H15_5 H 0.8615 0.1385 0.7449
H16_5 H 0.8650 0.1350 0.8487
C19_5 C 0.9390(6) 0.1262(4) 0.7881(5)
H17_5 H 0.9495 0.1640 0.7918
H18_5 H 0.9514 0.1110 0.7292
H19_5 H 0.9552 0.1063 0.8396
C20_5 C 0.8738(4) 0.0610(6) 0.7881(5)
H20_5 H 0.8360 0.0505 0.7918
H21_5 H 0.8890 0.0486 0.7292
H22_5 H 0.8937 0.0448 0.8396
N9_6 N 0.6218(2) 0.3782(2) 0.7938(7)
H15_6 H 0.6385 0.3615 0.7449
H16_6 H 0.6350 0.3650 0.8487
C19_6 C 0.5610(6) 0.3738(4) 0.7881(5)
H17_6 H 0.5505 0.3360 0.7918
H18_6 H 0.5486 0.3890 0.7292
H19_6 H 0.5448 0.3937 0.8396
C20_6 C 0.6262(4) 0.4390(6) 0.7881(5)
H20_6 H 0.6640 0.4495 0.7918
H21_6 H 0.6110 0.4514 0.7292
H22_6 H 0.6063 0.4552 0.8396
N9_7 N 0.6218(2) 0.1218(2) 0.7062(7)
H15_7 H 0.6385 0.1385 0.7551
H16_7 H 0.6350 0.1350 0.6513
C19_7 C 0.5610(6) 0.1262(4) 0.7119(5)
H17_7 H 0.5505 0.1640 0.7082
H18_7 H 0.5486 0.1110 0.7708
H19_7 H 0.5448 0.1063 0.6604
C20_7 C 0.6262(4) 0.0610(6) 0.7119(5)
H20_7 H 0.6640 0.0505 0.7082
H21_7 H 0.6110 0.0486 0.7708
H22_7 H 0.6063 0.0448 0.6604
N9_8 N 0.8782(2) 0.3782(2) 0.7062(7)
H15_8 H 0.8615 0.3615 0.7551
H16_8 H 0.8650 0.3650 0.6513
C19_8 C 0.9390(6) 0.3738(4) 0.7119(5)
H17_8 H 0.9495 0.3360 0.7082
H18_8 H 0.9514 0.3890 0.7708
H19_8 H 0.9552 0.3937 0.6604
C20_8 C 0.8738(4) 0.4390(6) 0.7119(5)
H20_8 H 0.8360 0.4495 0.7082
H21_8 H 0.8890 0.4514 0.7708
H22_8 H 0.8937 0.4552 0.6604
loop_
_geom_bond_atom_site_label_1
_geom_bond_atom_site_label_2
_geom_bond_site_symmetry_1
_geom_bond_site_symmetry_2
Co1 N3 1_555 1_555
Co2 N2 1_555 1_555
N1 H1 1_555 1_555
H2 N1 1_555 1_555
N2 C3 1_555 1_555
N3 C3 1_555 1_555
C1 C4 1_555 1_555
C2 C5 1_555 1_555
C3 N1 1_555 1_555
O2 C4 1_555 1_555
O4 C5 1_555 1_555
C6 C1 1_555 1_555
H3 C6 1_555 1_555
C9 C2 1_555 1_555
H5 C9 1_555 1_555
N5 H8 1_555 1_555
H9 N5 1_555 1_555
N6 N3 1_555 1_555
C10 N2 1_555 1_555
O5 C14 1_555 1_555
C11 C13 1_555 1_555
C12 C14 1_555 1_555
O6 Co2 1_555 1_555
O7 C13 1_555 1_555
C13 O6 1_555 1_555
O8 C14 1_555 1_555
C15 C11 1_555 1_555
H10 C15 1_555 1_555
C16 C12 1_555 1_555
C17 C11 1_555 1_555
H11 C17 1_555 1_555
C18 C12 1_555 1_555
H12 C18 1_555 1_555
N7 C16 1_555 1_555
H13 N7 1_555 1_555
H14 N7 1_555 1_555
Co3 O5 1_555 1_555
Co4 N6 1_555 1_555
Co6 Co2 1_555 1_555
O9 Co1 1_555 1_555
O10 Co2 1_555 1_555
O11 Co2 1_555 1_555
O12 Co2 1_555 1_555
C6 C9 1_555 1_555
N5 C10 1_555 1_555
N6 C10 1_555 1_555
O7 Co6 1_555 1_555
C15 C18 1_555 1_555
C16 C17 1_555 1_555
O1 Co1_2 1_555 1_555
H4 C8 1_555 1_555
N4 C7 1_555 1_555
H6 N4 1_555 1_555
H7 N4 1_555 1_555
Co7 O3 1_555 1_555
N8 Co1_2 1_555 1_555
C7 C8 1_555 1_555
Co1_3 N3_2 1_555 1_555
N1_2 H1_2 1_555 1_555
H2_2 N1_2 1_555 1_555
N3_2 C3_2 1_555 1_555
C1_2 C4_2 1_555 1_555
C2_2 C5_2 1_555 1_555
C3_2 N1_2 1_555 1_555
O2_2 C4_2 1_555 1_555
O4_2 C5_2 1_555 1_555
C6_2 C1_2 1_555 1_555
H3_2 C6_2 1_555 1_555
C9_2 C2_2 1_555 1_555
H5_2 C9_2 1_555 1_555
O5_2 C14_2 1_555 1_555
C11_2 C13_2 1_555 1_555
C12_2 C14_2 1_555 1_555
C13_2 O6_2 1_555 1_555
O8_2 C14_2 1_555 1_555
C15_2 C11_2 1_555 1_555
H10_2 C15_2 1_555 1_555
C16_2 C12_2 1_555 1_555
C17_2 C11_2 1_555 1_555
C18_2 C12_2 1_555 1_555
H12_2 C18_2 1_555 1_555
N7_2 C16_2 1_555 1_555
H13_2 N7_2 1_555 1_555
Co3_2 O5_2 1_555 1_555
Co5_2 O2_2 1_555 1_555
O9_2 Co1_3 1_555 1_555
C6_2 C9_2 1_555 1_555
C15_2 C18_2 1_555 1_555
C16_2 C17_2 1_555 1_555
O1_2 Co1_4 1_555 1_555
N4_2 C7_2 1_555 1_555
H6_2 N4_2 1_555 1_555
N8_2 Co1_4 1_555 1_555
C7_2 C8_2 1_555 1_555
O7_2 Co6_2 1_555 1_555
Co7_2 O3_2 1_555 1_555
Co2_2 N2_2 1_555 1_555
O11_2 Co2_2 1_555 1_555
O12_2 Co2_2 1_555 1_555
N5_2 H8_2 1_555 1_555
H9_2 N5_2 1_555 1_555
Co4_3 N6_2 1_555 1_555
N5_2 C10_2 1_555 1_555
N6_2 C10_2 1_555 1_555
Co3_2 N3_3 1_555 1_555
Co5_2 N2_3 1_555 1_555
N1_3 H1_3 1_555 1_555
H2_3 N1_3 1_555 1_555
N2_3 C3_3 1_555 1_555
N3_3 C3_3 1_555 1_555
C3_3 N1_3 1_555 1_555
N8_3 Co3_2 1_555 1_555
O9_3 Co3_2 1_555 1_555
O11_3 Co5_2 1_555 1_555
O12_3 Co5_2 1_555 1_555
N5_3 H8_3 1_555 1_555
H9_3 N5_3 1_555 1_555
Co4_5 N6_3 1_555 1_555
N5_3 C10_3 1_555 1_555
N6_3 C10_3 1_555 1_555
Co3 N3_4 1_555 1_555
N1_4 H1_4 1_555 1_555
H2_4 N1_4 1_555 1_555
N3_4 C3_4 1_555 1_555
C3_4 N1_4 1_555 1_555
N8_4 Co3 1_555 1_555
O9_4 Co3 1_555 1_555
Co5 N2_4 1_555 1_555
N5_4 H8_4 1_555 1_555
H9_4 N5_4 1_555 1_555
C10_4 N2_4 1_555 1_555
Co4_6 N6_4 1_555 1_555
O10_4 Co5 1_555 1_555
O11_4 Co5 1_555 1_555
O12_4 Co5 1_555 1_555
N5_4 C10_4 1_555 1_555
N6_4 C10_4 1_555 1_555
N4_3 C7_3 1_555 1_555
H6_3 N4_3 1_555 1_555
C7_3 C8_3 1_555 1_555
N1_5 H1_5 1_555 1_555
H2_5 N1_5 1_555 1_555
N8_2 C3_5 1_555 1_555
C1_3 C4_3 1_555 1_555
C2_3 C5_3 1_555 1_555
C3_5 N1_5 1_555 1_555
O2_3 C4_3 1_555 1_555
O4_3 C5_3 1_555 1_555
C6_3 C1_3 1_555 1_555
H3_3 C6_3 1_555 1_555
C9_3 C2_3 1_555 1_555
H5_3 C9_3 1_555 1_555
O9_4 C14_3 1_555 1_555
C11_3 C13_3 1_555 1_555
C12_3 C14_3 1_555 1_555
C13_3 O6_3 1_555 1_555
O8_3 C14_3 1_555 1_555
C15_3 C11_3 1_555 1_555
H10_3 C15_3 1_555 1_555
C16_3 C12_3 1_555 1_555
C17_3 C11_3 1_555 1_555
C18_3 C12_3 1_555 1_555
H12_3 C18_3 1_555 1_555
N7_3 C16_3 1_555 1_555
H13_3 N7_3 1_555 1_555
Co7 O2_3 1_555 1_555
C6_3 C9_3 1_555 1_555
C15_3 C18_3 1_555 1_555
C16_3 C17_3 1_555 1_555
Co6_2 N2_5 1_555 1_555
O12_5 Co6_2 1_555 1_555
N5_5 H8_5 1_555 1_555
H9_5 N5_5 1_555 1_555
Co4_4 N6_5 1_555 1_555
N5_5 C10_5 1_555 1_555
N6_5 C10_5 1_555 1_555
H4_4 C8_4 1_555 1_555
N4_4 C7_4 1_555 1_555
H6_4 N4_4 1_555 1_555
H7_4 N4_4 1_555 1_555
C7_4 C8_4 1_555 1_555
Co6 N2_6 1_555 1_555
N1_6 H1_6 1_555 1_555
H2_6 N1_6 1_555 1_555
N2_6 C3_6 1_555 1_555
N8 C3_6 1_555 1_555
C1_4 C4_4 1_555 1_555
C2_4 C5_4 1_555 1_555
C3_6 N1_6 1_555 1_555
O2_4 C4_4 1_555 1_555
O4_4 C5_4 1_555 1_555
C6_4 C1_4 1_555 1_555
H3_4 C6_4 1_555 1_555
C9_4 C2_4 1_555 1_555
H5_4 C9_4 1_555 1_555
N5_6 H8_6 1_555 1_555
H9_6 N5_6 1_555 1_555
N6_6 N8 1_555 1_555
C10_6 N2_6 1_555 1_555
O9_3 C14_4 1_555 1_555
C11_4 C13_4 1_555 1_555
C12_4 C14_4 1_555 1_555
O6_4 Co6 1_555 1_555
O11 C13_4 1_555 1_555
C13_4 O6_4 1_555 1_555
O8_4 C14_4 1_555 1_555
C15_4 C11_4 1_555 1_555
H10_4 C15_4 1_555 1_555
C16_4 C12_4 1_555 1_555
C17_4 C11_4 1_555 1_555
H11_4 C17_4 1_555 1_555
C18_4 C12_4 1_555 1_555
H12_4 C18_4 1_555 1_555
N7_4 C16_4 1_555 1_555
H13_4 N7_4 1_555 1_555
H14_4 N7_4 1_555 1_555
Co4_2 N6_6 1_555 1_555
O10_6 Co6 1_555 1_555
O12_6 Co6 1_555 1_555
C6_4 C9_4 1_555 1_555
N5_6 C10_6 1_555 1_555
N6_6 C10_6 1_555 1_555
C15_4 C18_4 1_555 1_555
C16_4 C17_4 1_555 1_555
N1_7 H1_7 1_555 1_555
H2_7 N1_7 1_555 1_555
N8_3 C3_7 1_555 1_555
C3_7 N1_7 1_555 1_555
Co7_2 N2_7 1_555 1_555
N5_7 H8_7 1_555 1_555
H9_7 N5_7 1_555 1_555
C10_7 N2_7 1_555 1_555
Co4_5 N6_7 1_555 1_555
O10_7 Co7_2 1_555 1_555
O12_7 Co7_2 1_555 1_555
N5_7 C10_7 1_555 1_555
N6_7 C10_7 1_555 1_555
Co7 N2_8 1_555 1_555
N1_8 H1_8 1_555 1_555
H2_8 N1_8 1_555 1_555
N2_8 C3_8 1_555 1_555
N8_4 C3_8 1_555 1_555
C3_8 N1_8 1_555 1_555
O12_8 Co7 1_555 1_555
N5_8 H8_8 1_555 1_555
H9_8 N5_8 1_555 1_555
Co4_6 N6_8 1_555 1_555
N5_8 C10_8 1_555 1_555
N6_8 C10_8 1_555 1_555
O1_3 Co4 1_555 1_555
H4_5 C8_5 1_555 1_555
N4_5 C7_5 1_555 1_555
H6_5 N4_5 1_555 1_555
H7_5 N4_5 1_555 1_555
C7_5 C8_5 1_555 1_555
C1_5 C4_5 1_555 1_555
C2_5 C5_5 1_555 1_555
O10_8 C4_5 1_555 1_555
O4_5 C5_5 1_555 1_555
C6_5 C1_5 1_555 1_555
H3_5 C6_5 1_555 1_555
C9_5 C2_5 1_555 1_555
H5_5 C9_5 1_555 1_555
O5_3 C14_5 1_555 1_555
C11_5 C13_5 1_555 1_555
C12_5 C14_5 1_555 1_555
O12 C13_5 1_555 1_555
C13_5 O10_6 1_555 1_555
O8_5 C14_5 1_555 1_555
C15_5 C11_5 1_555 1_555
H10_5 C15_5 1_555 1_555
C16_5 C12_5 1_555 1_555
C17_5 C11_5 1_555 1_555
H11_5 C17_5 1_555 1_555
C18_5 C12_5 1_555 1_555
H12_5 C18_5 1_555 1_555
N7_5 C16_5 1_555 1_555
H13_5 N7_5 1_555 1_555
H14_5 N7_5 1_555 1_555
Co4_6 O5_3 1_555 1_555
O9_5 Co4_2 1_555 1_555
C6_5 C9_5 1_555 1_555
C15_5 C18_5 1_555 1_555
C16_5 C17_5 1_555 1_555
O1_4 Co4_3 1_555 1_555
N4_6 C7_6 1_555 1_555
H6_6 N4_6 1_555 1_555
C7_6 C8_6 1_555 1_555
C1_6 C4_6 1_555 1_555
C2_6 C5_6 1_555 1_555
O10_7 C4_6 1_555 1_555
O4_6 C5_6 1_555 1_555
C6_6 C1_6 1_555 1_555
H3_6 C6_6 1_555 1_555
C9_6 C2_6 1_555 1_555
H5_6 C9_6 1_555 1_555
O5_4 C14_6 1_555 1_555
C11_6 C13_6 1_555 1_555
C12_6 C14_6 1_555 1_555
C13_6 O10_5 1_555 1_555
O8_6 C14_6 1_555 1_555
C15_6 C11_6 1_555 1_555
H10_6 C15_6 1_555 1_555
C16_6 C12_6 1_555 1_555
C17_6 C11_6 1_555 1_555
C18_6 C12_6 1_555 1_555
H12_6 C18_6 1_555 1_555
N7_6 C16_6 1_555 1_555
H13_6 N7_6 1_555 1_555
Co4_5 O5_4 1_555 1_555
O9_6 Co4_4 1_555 1_555
C6_6 C9_6 1_555 1_555
C15_6 C18_6 1_555 1_555
C16_6 C17_6 1_555 1_555
O9_7 Co4_5 1_555 1_555
O9_8 Co4_6 1_555 1_555
C1_7 C4_7 1_555 1_555
C2_7 C5_7 1_555 1_555
O10_4 C4_7 1_555 1_555
O4_7 C5_7 1_555 1_555
C6_7 C1_7 1_555 1_555
H3_7 C6_7 1_555 1_555
C9_7 C2_7 1_555 1_555
H5_7 C9_7 1_555 1_555
O9_8 C14_7 1_555 1_555
C11_7 C13_7 1_555 1_555
C12_7 C14_7 1_555 1_555
C13_7 O10_2 1_555 1_555
O8_7 C14_7 1_555 1_555
C15_7 C11_7 1_555 1_555
H10_7 C15_7 1_555 1_555
C16_7 C12_7 1_555 1_555
C17_7 C11_7 1_555 1_555
C18_7 C12_7 1_555 1_555
H12_7 C18_7 1_555 1_555
N7_7 C16_7 1_555 1_555
H13_7 N7_7 1_555 1_555
C6_7 C9_7 1_555 1_555
C15_7 C18_7 1_555 1_555
C16_7 C17_7 1_555 1_555
N4_7 C7_7 1_555 1_555
H6_7 N4_7 1_555 1_555
C7_7 C8_7 1_555 1_555
C1_8 C4_8 1_555 1_555
C2_8 C5_8 1_555 1_555
O10_3 C4_8 1_555 1_555
O4_8 C5_8 1_555 1_555
C6_8 C1_8 1_555 1_555
H3_8 C6_8 1_555 1_555
C9_8 C2_8 1_555 1_555
H5_8 C9_8 1_555 1_555
O9_7 C14_8 1_555 1_555
C11_8 C13_8 1_555 1_555
C12_8 C14_8 1_555 1_555
O12_6 C13_8 1_555 1_555
C13_8 O10 1_555 1_555
O8_8 C14_8 1_555 1_555
C15_8 C11_8 1_555 1_555
H10_8 C15_8 1_555 1_555
C16_8 C12_8 1_555 1_555
C17_8 C11_8 1_555 1_555
H11_8 C17_8 1_555 1_555
C18_8 C12_8 1_555 1_555
H12_8 C18_8 1_555 1_555
N7_8 C16_8 1_555 1_555
H13_8 N7_8 1_555 1_555
H14_8 N7_8 1_555 1_555
C6_8 C9_8 1_555 1_555
C15_8 C18_8 1_555 1_555
C16_8 C17_8 1_555 1_555
H4_8 C8_8 1_555 1_555
N4_8 C7_8 1_555 1_555
H6_8 N4_8 1_555 1_555
H7_8 N4_8 1_555 1_555
C7_8 C8_8 1_555 1_555
N9 H15 1_555 1_555
H16 N9 1_555 1_555
C19 N9 1_555 1_555
H17 C19 1_555 1_555
H18 C19 1_555 1_555
H19 C19 1_555 1_555
C20 N9 1_555 1_555
H20 C20 1_555 1_555
H21 C20 1_555 1_555
H22 C20 1_555 1_555
N9_2 H15_2 1_555 1_555
H16_2 N9_2 1_555 1_555
C19_2 N9_2 1_555 1_555
H17_2 C19_2 1_555 1_555
H18_2 C19_2 1_555 1_555
H19_2 C19_2 1_555 1_555
C20_2 N9_2 1_555 1_555
H20_2 C20_2 1_555 1_555
H21_2 C20_2 1_555 1_555
H22_2 C20_2 1_555 1_555
N9_3 H15_3 1_555 1_555
H16_3 N9_3 1_555 1_555
C19_3 N9_3 1_555 1_555
H17_3 C19_3 1_555 1_555
H18_3 C19_3 1_555 1_555
H19_3 C19_3 1_555 1_555
C20_3 N9_3 1_555 1_555
H20_3 C20_3 1_555 1_555
H21_3 C20_3 1_555 1_555
H22_3 C20_3 1_555 1_555
N9_4 H15_4 1_555 1_555
H16_4 N9_4 1_555 1_555
C19_4 N9_4 1_555 1_555
H17_4 C19_4 1_555 1_555
H18_4 C19_4 1_555 1_555
H19_4 C19_4 1_555 1_555
C20_4 N9_4 1_555 1_555
H20_4 C20_4 1_555 1_555
H21_4 C20_4 1_555 1_555
H22_4 C20_4 1_555 1_555
N9_5 H15_5 1_555 1_555
H16_5 N9_5 1_555 1_555
C19_5 N9_5 1_555 1_555
H17_5 C19_5 1_555 1_555
H18_5 C19_5 1_555 1_555
H19_5 C19_5 1_555 1_555
C20_5 N9_5 1_555 1_555
H20_5 C20_5 1_555 1_555
H21_5 C20_5 1_555 1_555
H22_5 C20_5 1_555 1_555
N9_6 H15_6 1_555 1_555
H16_6 N9_6 1_555 1_555
C19_6 N9_6 1_555 1_555
H17_6 C19_6 1_555 1_555
H18_6 C19_6 1_555 1_555
H19_6 C19_6 1_555 1_555
C20_6 N9_6 1_555 1_555
H20_6 C20_6 1_555 1_555
H21_6 C20_6 1_555 1_555
H22_6 C20_6 1_555 1_555
N9_7 H15_7 1_555 1_555
H16_7 N9_7 1_555 1_555
C19_7 N9_7 1_555 1_555
H17_7 C19_7 1_555 1_555
H18_7 C19_7 1_555 1_555
H19_7 C19_7 1_555 1_555
C20_7 N9_7 1_555 1_555
H20_7 C20_7 1_555 1_555
H21_7 C20_7 1_555 1_555
H22_7 C20_7 1_555 1_555
N9_8 H15_8 1_555 1_555
H16_8 N9_8 1_555 1_555
C19_8 N9_8 1_555 1_555
H17_8 C19_8 1_555 1_555
H18_8 C19_8 1_555 1_555
H19_8 C19_8 1_555 1_555
C20_8 N9_8 1_555 1_555
H20_8 C20_8 1_555 1_555
H21_8 C20_8 1_555 1_555
H22_8 C20_8 1_555 1_555

#END
