
###############################################################################
#
# This file contains modified crystal structure data generated from the
# MOF subset of the Cambridge Structural Database (CSD) v543 
# hosted by the Cambridge Crystallographic Data Centre (CCDC).
#
# This work is licensed under the Creative Commons
# Attribution-NonCommercial-ShareAlike 4.0 International License.
# To view a copy of this license, visit
# http://creativecommons.org/licenses/by-nc-sa/4.0/
# or send a letter to
# Creative Commons, PO Box 1866, Mountain View, CA 94042, USA.
#
# CIF created using the CSD Python API on 29 September 2022
# The structure has been converted into the P1 space group
# The structure has a 3D framework
# The original CSD entry OXEVOE is in the orthorhombic crystal system
# The framework has been calculated to contain at least 10.0% void space
# The void calculation uses a probe of radius 1.32A, grid spacing 0.4
# The framework is charged, counterions have been retained in the structure
#
###############################################################################

data_OXEVOE
_chemical_formula_moiety         '(C112 H112 Ag8 N24 O24 S16)n'
_symmetry_cell_setting           triclinic
_symmetry_space_group_name_H-M   'P 1'
_symmetry_Int_Tables_number      1
_space_group_name_Hall           'P 1'
loop_
_symmetry_equiv_pos_site_id
_symmetry_equiv_pos_as_xyz
1 x,y,z
_cell_length_a                   15.319(3)
_cell_length_b                   15.456(2)
_cell_length_c                   16.237(3)
_cell_angle_alpha                90
_cell_angle_beta                 90
_cell_angle_gamma                90
_cell_volume                     3844.44
loop_
_atom_site_label
_atom_site_type_symbol
_atom_site_fract_x
_atom_site_fract_y
_atom_site_fract_z
N4 N 0.3486(7) 0.0068(7) 0.0412(7)
Ag1 Ag 0.41560(5) 0.89813(6) 0.11812(7)
C1 C 0.1942(8) 0.8293(11) 0.0837(11)
H1 H 0.1877 0.8190 0.1423
H2 H 0.1874 0.8908 0.0737
C2 C 0.1261(8) 0.7790(9) 0.0363(8)
C6 C 0.0671(7) 0.7342(9) 0.0798(9)
H5 H 0.0695 0.7342 0.1370
C11 C 0.2543(9) 0.6185(9) 0.0382(8)
C12 C 0.2034(8) 0.5627(8) 0.0810(8)
H11 H 0.2046 0.5631 0.1383
C14 C 0.3066(10) 0.6802(9) 0.0864(10)
H13 H 0.3674 0.6628 0.0840
H14 H 0.2883 0.6774 0.1435
N1 N 0.0072(7) 0.6911(8) 0.0421(6)
N2 N 0.1514(7) 0.5068(7) 0.0412(7)
S1 S 0.2976(2) 0.7946(2) 0.0503(3)
Ag3 Ag 0.08440(5) 0.39813(6) 0.11812(7)
N3 N 0.5072(7) 0.8089(8) 0.0421(6)
S3 S 0.4214(2) 0.9020(2) 0.27897(18)
C3 C 0.1248(9) 0.7760(9) 0.9482(10)
H3 H 0.1659 0.8083 0.9193
C4 C 0.0655(7) 0.7275(8) 0.9044(8)
C5 C 0.0066(9) 0.6877(9) 0.9539(9)
C7 C 0.0659(8) 0.7140(8) 0.8085(8)
H6 H 0.1134 0.7472 0.7847
H7 H 0.0117 0.7360 0.7858
C8 C 0.1853(9) 0.5734(9) 0.8100(8)
H8 H 0.2024 0.5188 0.7852
H9 H 0.2243 0.6178 0.7893
C9 C 0.1965(8) 0.5665(8) 0.9054(8)
C10 C 0.2503(10) 0.6208(9) 0.9484(12)
H10 H 0.2850 0.6600 0.9198
C13 C 0.1487(9) 0.5099(9) 0.9535(9)
H12 H 0.1122 0.4710 0.9267
S2 S 0.0786(2) 0.5980(2) 0.77897(18)
Ag4 Ag 0.08440(5) 0.60187(6) 0.61812(7)
Ag2 Ag 0.91560(5) 0.60187(6) 0.11812(7)
Ag1_2 Ag 0.58440(5) 0.10187(6) 0.11812(7)
C1_2 C 0.8058(8) 0.1707(11) 0.0837(11)
H1_2 H 0.8123 0.1810 0.1423
H2_2 H 0.8126 0.1092 0.0737
C2_2 C 0.8739(8) 0.2210(9) 0.0363(8)
C6_2 C 0.9329(7) 0.2658(9) 0.0798(9)
H5_2 H 0.9305 0.2658 0.1370
C11_2 C 0.7457(9) 0.3815(9) 0.0382(8)
C12_2 C 0.7966(8) 0.4373(8) 0.0810(8)
H11_2 H 0.7954 0.4369 0.1383
C14_2 C 0.6934(10) 0.3198(9) 0.0864(10)
H13_2 H 0.6326 0.3372 0.0840
H14_2 H 0.7117 0.3226 0.1435
N1_2 N 0.9928(7) 0.3089(8) 0.0421(6)
N2_2 N 0.8486(7) 0.4932(7) 0.0412(7)
S1_2 S 0.7024(2) 0.2054(2) 0.0503(3)
N3_2 N 0.4928(7) 0.1911(8) 0.0421(6)
S3_2 S 0.5786(2) 0.0980(2) 0.27897(18)
C3_2 C 0.8752(9) 0.2240(9) 0.9482(10)
H3_2 H 0.8341 0.1917 0.9193
C4_2 C 0.9345(7) 0.2725(8) 0.9044(8)
C5_2 C 0.9934(9) 0.3123(9) 0.9539(9)
C7_2 C 0.9341(8) 0.2860(8) 0.8085(8)
H6_2 H 0.8866 0.2528 0.7847
H7_2 H 0.9883 0.2640 0.7858
C8_2 C 0.8147(9) 0.4266(9) 0.8100(8)
H8_2 H 0.7976 0.4812 0.7852
H9_2 H 0.7757 0.3822 0.7893
C9_2 C 0.8035(8) 0.4335(8) 0.9054(8)
C10_2 C 0.7497(10) 0.3792(9) 0.9484(12)
H10_2 H 0.7150 0.3400 0.9198
C13_2 C 0.8513(9) 0.4901(9) 0.9535(9)
H12_2 H 0.8878 0.5290 0.9267
S2_2 S 0.9214(2) 0.4020(2) 0.77897(18)
Ag4_2 Ag 0.91560(5) 0.39813(6) 0.61812(7)
N4_2 N 0.6514(7) 0.9932(7) 0.0412(7)
C1_3 C 0.6942(8) 0.6707(11) 0.0837(11)
H1_3 H 0.6877 0.6810 0.1423
H2_3 H 0.6874 0.6092 0.0737
C2_3 C 0.6261(8) 0.7210(9) 0.0363(8)
C6_3 C 0.5671(7) 0.7658(9) 0.0798(9)
H5_3 H 0.5695 0.7658 0.1370
C11_3 C 0.7543(9) 0.8815(9) 0.0382(8)
C12_3 C 0.7034(8) 0.9373(8) 0.0810(8)
H11_3 H 0.7046 0.9369 0.1383
C14_3 C 0.8066(10) 0.8198(9) 0.0864(10)
H13_3 H 0.8674 0.8372 0.0840
H14_3 H 0.7883 0.8226 0.1435
S1_3 S 0.7976(2) 0.7054(2) 0.0503(3)
S3_3 S 0.9214(2) 0.5980(2) 0.27897(18)
C3_3 C 0.6248(9) 0.7240(9) 0.9482(10)
H3_3 H 0.6659 0.6917 0.9193
C4_3 C 0.5655(7) 0.7725(8) 0.9044(8)
C5_3 C 0.5066(9) 0.8123(9) 0.9539(9)
H4 H 0.4626 0.8443 0.9288
C7_3 C 0.5659(8) 0.7860(8) 0.8085(8)
H6_3 H 0.6134 0.7528 0.7847
H7_3 H 0.5117 0.7640 0.7858
C8_3 C 0.6853(9) 0.9266(9) 0.8100(8)
H8_3 H 0.7024 0.9812 0.7852
H9_3 H 0.7243 0.8822 0.7893
C9_3 C 0.6965(8) 0.9335(8) 0.9054(8)
C10_3 C 0.7503(10) 0.8792(9) 0.9484(12)
H10_3 H 0.7850 0.8400 0.9198
C13_3 C 0.6487(9) 0.9901(9) 0.9535(9)
S2_3 S 0.5786(2) 0.9020(2) 0.77897(18)
Ag4_3 Ag 0.58440(5) 0.89813(6) 0.61812(7)
C1_4 C 0.3058(8) 0.3293(11) 0.0837(11)
H1_4 H 0.3123 0.3190 0.1423
H2_4 H 0.3126 0.3908 0.0737
C2_4 C 0.3739(8) 0.2790(9) 0.0363(8)
C6_4 C 0.4329(7) 0.2342(9) 0.0798(9)
H5_4 H 0.4305 0.2342 0.1370
C11_4 C 0.2457(9) 0.1185(9) 0.0382(8)
C12_4 C 0.2966(8) 0.0627(8) 0.0810(8)
H11_4 H 0.2954 0.0631 0.1383
C14_4 C 0.1934(10) 0.1802(9) 0.0864(10)
H13_4 H 0.1326 0.1628 0.0840
H14_4 H 0.2117 0.1774 0.1435
S1_4 S 0.2024(2) 0.2946(2) 0.0503(3)
S3_4 S 0.0786(2) 0.4020(2) 0.27897(18)
C3_4 C 0.3752(9) 0.2760(9) 0.9482(10)
H3_4 H 0.3341 0.3083 0.9193
C4_4 C 0.4345(7) 0.2275(8) 0.9044(8)
C5_4 C 0.4934(9) 0.1877(9) 0.9539(9)
H4_2 H 0.5374 0.1557 0.9288
C7_4 C 0.4341(8) 0.2140(8) 0.8085(8)
H6_4 H 0.3866 0.2472 0.7847
H7_4 H 0.4883 0.2360 0.7858
C8_4 C 0.3147(9) 0.0734(9) 0.8100(8)
H8_4 H 0.2976 0.0188 0.7852
H9_4 H 0.2757 0.1178 0.7893
C9_4 C 0.3035(8) 0.0665(8) 0.9054(8)
C10_4 C 0.2497(10) 0.1208(9) 0.9484(12)
H10_4 H 0.2150 0.1600 0.9198
C13_4 C 0.3513(9) 0.0099(9) 0.9535(9)
S2_4 S 0.4214(2) 0.0980(2) 0.77897(18)
Ag4_4 Ag 0.41560(5) 0.10187(6) 0.61812(7)
N3_3 N 0.0072(7) 0.3089(8) 0.5421(6)
C1_5 C 0.6942(8) 0.3293(11) 0.5837(11)
H1_5 H 0.6877 0.3190 0.6423
H2_5 H 0.6874 0.3908 0.5737
C2_5 C 0.6261(8) 0.2790(9) 0.5363(8)
C3_5 C 0.6248(9) 0.2760(9) 0.4482(10)
H3_5 H 0.6659 0.3083 0.4193
C4_5 C 0.5655(7) 0.2275(8) 0.4044(8)
C5_5 C 0.5066(9) 0.1877(9) 0.4539(9)
H4_3 H 0.4626 0.1557 0.4288
C6_5 C 0.5671(7) 0.2342(9) 0.5798(9)
H5_5 H 0.5695 0.2342 0.6370
C7_5 C 0.5659(8) 0.2140(8) 0.3085(8)
H6_5 H 0.6134 0.2472 0.2847
H7_5 H 0.5117 0.2360 0.2858
C8_5 C 0.6853(9) 0.0734(9) 0.3100(8)
H8_5 H 0.7024 0.0188 0.2852
H9_5 H 0.7243 0.1178 0.2893
C9_5 C 0.6965(8) 0.0665(8) 0.4054(8)
C10_5 C 0.7503(10) 0.1208(9) 0.4484(12)
H10_5 H 0.7850 0.1600 0.4198
C11_5 C 0.7543(9) 0.1185(9) 0.5382(8)
C12_5 C 0.7034(8) 0.0627(8) 0.5810(8)
H11_5 H 0.7046 0.0631 0.6383
C13_5 C 0.6487(9) 0.0099(9) 0.4535(9)
C14_5 C 0.8066(10) 0.1802(9) 0.5864(10)
H13_5 H 0.8674 0.1628 0.5840
H14_5 H 0.7883 0.1774 0.6435
N1_3 N 0.5072(7) 0.1911(8) 0.5421(6)
N2_3 N 0.6514(7) 0.0068(7) 0.5412(7)
S1_5 S 0.7976(2) 0.2946(2) 0.5503(3)
N4_3 N 0.8486(7) 0.5068(7) 0.5412(7)
H12_3 H 0.6122 0.9710 0.4267
H12_4 H 0.3878 0.0290 0.4267
C1_6 C 0.3058(8) 0.6707(11) 0.5837(11)
H1_6 H 0.3123 0.6810 0.6423
H2_6 H 0.3126 0.6092 0.5737
C2_6 C 0.3739(8) 0.7210(9) 0.5363(8)
C3_6 C 0.3752(9) 0.7240(9) 0.4482(10)
H3_6 H 0.3341 0.6917 0.4193
C4_6 C 0.4345(7) 0.7725(8) 0.4044(8)
C5_6 C 0.4934(9) 0.8123(9) 0.4539(9)
H4_4 H 0.5374 0.8443 0.4288
C6_6 C 0.4329(7) 0.7658(9) 0.5798(9)
H5_6 H 0.4305 0.7658 0.6370
C7_6 C 0.4341(8) 0.7860(8) 0.3085(8)
H6_6 H 0.3866 0.7528 0.2847
H7_6 H 0.4883 0.7640 0.2858
C8_6 C 0.3147(9) 0.9266(9) 0.3100(8)
H8_6 H 0.2976 0.9812 0.2852
H9_6 H 0.2757 0.8822 0.2893
C9_6 C 0.3035(8) 0.9335(8) 0.4054(8)
C10_6 C 0.2497(10) 0.8792(9) 0.4484(12)
H10_6 H 0.2150 0.8400 0.4198
C11_6 C 0.2457(9) 0.8815(9) 0.5382(8)
C12_6 C 0.2966(8) 0.9373(8) 0.5810(8)
H11_6 H 0.2954 0.9369 0.6383
C13_6 C 0.3513(9) 0.9901(9) 0.4535(9)
C14_6 C 0.1934(10) 0.8198(9) 0.5864(10)
H13_6 H 0.1326 0.8372 0.5840
H14_6 H 0.2117 0.8226 0.6435
N1_4 N 0.4928(7) 0.8089(8) 0.5421(6)
N2_4 N 0.3486(7) 0.9932(7) 0.5412(7)
S1_6 S 0.2024(2) 0.7054(2) 0.5503(3)
N4_4 N 0.1514(7) 0.4932(7) 0.5412(7)
N3_4 N 0.9928(7) 0.6911(8) 0.5421(6)
C1_7 C 0.1942(8) 0.1707(11) 0.5837(11)
H1_7 H 0.1877 0.1810 0.6423
H2_7 H 0.1874 0.1092 0.5737
C2_7 C 0.1261(8) 0.2210(9) 0.5363(8)
C3_7 C 0.1248(9) 0.2240(9) 0.4482(10)
H3_7 H 0.1659 0.1917 0.4193
C4_7 C 0.0655(7) 0.2725(8) 0.4044(8)
C5_7 C 0.0066(9) 0.3123(9) 0.4539(9)
C6_7 C 0.0671(7) 0.2658(9) 0.5798(9)
H5_7 H 0.0695 0.2658 0.6370
C7_7 C 0.0659(8) 0.2860(8) 0.3085(8)
H6_7 H 0.1134 0.2528 0.2847
H7_7 H 0.0117 0.2640 0.2858
C8_7 C 0.1853(9) 0.4266(9) 0.3100(8)
H8_7 H 0.2024 0.4812 0.2852
H9_7 H 0.2243 0.3822 0.2893
C9_7 C 0.1965(8) 0.4335(8) 0.4054(8)
C10_7 C 0.2503(10) 0.3792(9) 0.4484(12)
H10_7 H 0.2850 0.3400 0.4198
C11_7 C 0.2543(9) 0.3815(9) 0.5382(8)
C12_7 C 0.2034(8) 0.4373(8) 0.5810(8)
H11_7 H 0.2046 0.4369 0.6383
C13_7 C 0.1487(9) 0.4901(9) 0.4535(9)
H12_5 H 0.1122 0.5290 0.4267
C14_7 C 0.3066(10) 0.3198(9) 0.5864(10)
H13_7 H 0.3674 0.3372 0.5840
H14_7 H 0.2883 0.3226 0.6435
S1_7 S 0.2976(2) 0.2054(2) 0.5503(3)
H4_5 H 0.9626 0.3443 0.4288
H4_6 H 0.0374 0.6557 0.4288
C1_8 C 0.8058(8) 0.8293(11) 0.5837(11)
H1_8 H 0.8123 0.8190 0.6423
H2_8 H 0.8126 0.8908 0.5737
C2_8 C 0.8739(8) 0.7790(9) 0.5363(8)
C3_8 C 0.8752(9) 0.7760(9) 0.4482(10)
H3_8 H 0.8341 0.8083 0.4193
C4_8 C 0.9345(7) 0.7275(8) 0.4044(8)
C5_8 C 0.9934(9) 0.6877(9) 0.4539(9)
C6_8 C 0.9329(7) 0.7342(9) 0.5798(9)
H5_8 H 0.9305 0.7342 0.6370
C7_8 C 0.9341(8) 0.7140(8) 0.3085(8)
H6_8 H 0.8866 0.7472 0.2847
H7_8 H 0.9883 0.7360 0.2858
C8_8 C 0.8147(9) 0.5734(9) 0.3100(8)
H8_8 H 0.7976 0.5188 0.2852
H9_8 H 0.7757 0.6178 0.2893
C9_8 C 0.8035(8) 0.5665(8) 0.4054(8)
C10_8 C 0.7497(10) 0.6208(9) 0.4484(12)
H10_8 H 0.7150 0.6600 0.4198
C11_8 C 0.7457(9) 0.6185(9) 0.5382(8)
C12_8 C 0.7966(8) 0.5627(8) 0.5810(8)
H11_8 H 0.7954 0.5631 0.6383
C13_8 C 0.8513(9) 0.5099(9) 0.4535(9)
H12_6 H 0.8878 0.4710 0.4267
C14_8 C 0.6934(10) 0.6802(9) 0.5864(10)
H13_8 H 0.6326 0.6628 0.5840
H14_8 H 0.7117 0.6774 0.6435
S1_8 S 0.7024(2) 0.7946(2) 0.5503(3)
H4_7 H 0.9626 0.6557 0.9288
H4_8 H 0.0374 0.3443 0.9288
H12_7 H 0.6122 0.0290 0.9267
H12_8 H 0.3878 0.9710 0.9267
N5 N 0.1696(11) 0.3180(10) 0.7895(8)
O1 O 0.1176(7) 0.3706(9) 0.7783(9)
O2 O 0.1460(13) 0.2382(10) 0.7978(12)
O3 O 0.2437(9) 0.3499(15) 0.7938(13)
N5_2 N 0.8304(11) 0.6820(10) 0.7895(8)
O1_2 O 0.8824(7) 0.6294(9) 0.7783(9)
O2_2 O 0.8540(13) 0.7618(10) 0.7978(12)
O3_2 O 0.7563(9) 0.6501(15) 0.7938(13)
N5_3 N 0.6696(11) 0.1820(10) 0.7895(8)
O1_3 O 0.6176(7) 0.1294(9) 0.7783(9)
O2_3 O 0.6460(13) 0.2618(10) 0.7978(12)
O3_3 O 0.7437(9) 0.1501(15) 0.7938(13)
N5_4 N 0.3304(11) 0.8180(10) 0.7895(8)
O1_4 O 0.3824(7) 0.8706(9) 0.7783(9)
O2_4 O 0.3540(13) 0.7382(10) 0.7978(12)
O3_4 O 0.2563(9) 0.8499(15) 0.7938(13)
N5_5 N 0.6696(11) 0.8180(10) 0.2895(8)
O1_5 O 0.6176(7) 0.8706(9) 0.2783(9)
O2_5 O 0.6460(13) 0.7382(10) 0.2978(12)
O3_5 O 0.7437(9) 0.8499(15) 0.2938(13)
N5_6 N 0.3304(11) 0.1820(10) 0.2895(8)
O1_6 O 0.3824(7) 0.1294(9) 0.2783(9)
O2_6 O 0.3540(13) 0.2618(10) 0.2978(12)
O3_6 O 0.2563(9) 0.1501(15) 0.2938(13)
N5_7 N 0.1696(11) 0.6820(10) 0.2895(8)
O1_7 O 0.1176(7) 0.6294(9) 0.2783(9)
O2_7 O 0.1460(13) 0.7618(10) 0.2978(12)
O3_7 O 0.2437(9) 0.6501(15) 0.2938(13)
N5_8 N 0.8304(11) 0.3180(10) 0.2895(8)
O1_8 O 0.8824(7) 0.3706(9) 0.2783(9)
O2_8 O 0.8540(13) 0.2382(10) 0.2978(12)
O3_8 O 0.7563(9) 0.3499(15) 0.2938(13)
loop_
_geom_bond_atom_site_label_1
_geom_bond_atom_site_label_2
_geom_bond_site_symmetry_1
_geom_bond_site_symmetry_2
Ag1 S1 1_555 1_555
C1 H1 1_555 1_555
H2 C1 1_555 1_555
C2 C1 1_555 1_555
C6 C2 1_555 1_555
H5 C6 1_555 1_555
C12 C11 1_555 1_555
H11 C12 1_555 1_555
C14 C11 1_555 1_555
H13 C14 1_555 1_555
H14 C14 1_555 1_555
N2 C12 1_555 1_555
S1 C1 1_555 1_555
Ag3 N2 1_555 1_555
N3 Ag1 1_555 1_555
S3 Ag1 1_555 1_555
C6 N1 1_555 1_555
C14 S1 1_555 1_555
H3 C3 1_555 1_555
C4 C3 1_555 1_555
C5 C4 1_555 1_555
C7 C4 1_555 1_555
H6 C7 1_555 1_555
H7 C7 1_555 1_555
C8 H8 1_555 1_555
H9 C8 1_555 1_555
C9 C8 1_555 1_555
C10 C9 1_555 1_555
H10 C10 1_555 1_555
C13 C9 1_555 1_555
H12 C13 1_555 1_555
S2 C7 1_555 1_555
Ag4 S2 1_555 1_555
C8 S2 1_555 1_555
Ag1_2 S1_2 1_555 1_555
C1_2 H1_2 1_555 1_555
H2_2 C1_2 1_555 1_555
C2_2 C1_2 1_555 1_555
C6_2 C2_2 1_555 1_555
H5_2 C6_2 1_555 1_555
C12_2 C11_2 1_555 1_555
H11_2 C12_2 1_555 1_555
C14_2 C11_2 1_555 1_555
H13_2 C14_2 1_555 1_555
H14_2 C14_2 1_555 1_555
N2_2 C12_2 1_555 1_555
S1_2 C1_2 1_555 1_555
Ag2 N2_2 1_555 1_555
N3_2 Ag1_2 1_555 1_555
S3_2 Ag1_2 1_555 1_555
C6_2 N1_2 1_555 1_555
C14_2 S1_2 1_555 1_555
H3_2 C3_2 1_555 1_555
C4_2 C3_2 1_555 1_555
C5_2 C4_2 1_555 1_555
C7_2 C4_2 1_555 1_555
H6_2 C7_2 1_555 1_555
H7_2 C7_2 1_555 1_555
C8_2 H8_2 1_555 1_555
H9_2 C8_2 1_555 1_555
C9_2 C8_2 1_555 1_555
C10_2 C9_2 1_555 1_555
H10_2 C10_2 1_555 1_555
C13_2 C9_2 1_555 1_555
H12_2 C13_2 1_555 1_555
S2_2 C7_2 1_555 1_555
Ag4_2 S2_2 1_555 1_555
C8_2 S2_2 1_555 1_555
Ag2 S1_3 1_555 1_555
C1_3 H1_3 1_555 1_555
H2_3 C1_3 1_555 1_555
C2_3 C1_3 1_555 1_555
C6_3 C2_3 1_555 1_555
H5_3 C6_3 1_555 1_555
C12_3 C11_3 1_555 1_555
H11_3 C12_3 1_555 1_555
C14_3 C11_3 1_555 1_555
H13_3 C14_3 1_555 1_555
H14_3 C14_3 1_555 1_555
N4_2 C12_3 1_555 1_555
S1_3 C1_3 1_555 1_555
S3_3 Ag2 1_555 1_555
C6_3 N3 1_555 1_555
C14_3 S1_3 1_555 1_555
H3_3 C3_3 1_555 1_555
C4_3 C3_3 1_555 1_555
C5_3 C4_3 1_555 1_555
H4 C5_3 1_555 1_555
C7_3 C4_3 1_555 1_555
H6_3 C7_3 1_555 1_555
H7_3 C7_3 1_555 1_555
C8_3 H8_3 1_555 1_555
H9_3 C8_3 1_555 1_555
C9_3 C8_3 1_555 1_555
C10_3 C9_3 1_555 1_555
H10_3 C10_3 1_555 1_555
C13_3 C9_3 1_555 1_555
S2_3 C7_3 1_555 1_555
Ag4_3 S2_3 1_555 1_555
C8_3 S2_3 1_555 1_555
Ag3 S1_4 1_555 1_555
C1_4 H1_4 1_555 1_555
H2_4 C1_4 1_555 1_555
C2_4 C1_4 1_555 1_555
C6_4 C2_4 1_555 1_555
H5_4 C6_4 1_555 1_555
C12_4 C11_4 1_555 1_555
H11_4 C12_4 1_555 1_555
C14_4 C11_4 1_555 1_555
H13_4 C14_4 1_555 1_555
H14_4 C14_4 1_555 1_555
N4 C12_4 1_555 1_555
S1_4 C1_4 1_555 1_555
S3_4 Ag3 1_555 1_555
C6_4 N3_2 1_555 1_555
C14_4 S1_4 1_555 1_555
H3_4 C3_4 1_555 1_555
C4_4 C3_4 1_555 1_555
C5_4 C4_4 1_555 1_555
H4_2 C5_4 1_555 1_555
C7_4 C4_4 1_555 1_555
H6_4 C7_4 1_555 1_555
H7_4 C7_4 1_555 1_555
C8_4 H8_4 1_555 1_555
H9_4 C8_4 1_555 1_555
C9_4 C8_4 1_555 1_555
C10_4 C9_4 1_555 1_555
H10_4 C10_4 1_555 1_555
C13_4 C9_4 1_555 1_555
S2_4 C7_4 1_555 1_555
Ag4_4 S2_4 1_555 1_555
C8_4 S2_4 1_555 1_555
Ag4_2 S1_5 1_555 1_555
C1_5 H1_5 1_555 1_555
H2_5 C1_5 1_555 1_555
C2_5 C1_5 1_555 1_555
C3_5 C2_5 1_555 1_555
H3_5 C3_5 1_555 1_555
C4_5 C3_5 1_555 1_555
C5_5 C4_5 1_555 1_555
H4_3 C5_5 1_555 1_555
C6_5 C2_5 1_555 1_555
H5_5 C6_5 1_555 1_555
C7_5 C4_5 1_555 1_555
H6_5 C7_5 1_555 1_555
H7_5 C7_5 1_555 1_555
C8_5 H8_5 1_555 1_555
H9_5 C8_5 1_555 1_555
C9_5 C8_5 1_555 1_555
C10_5 C9_5 1_555 1_555
H10_5 C10_5 1_555 1_555
C11_5 C10_5 1_555 1_555
C12_5 C11_5 1_555 1_555
H11_5 C12_5 1_555 1_555
C13_5 C9_5 1_555 1_555
C14_5 C11_5 1_555 1_555
H13_5 C14_5 1_555 1_555
H14_5 C14_5 1_555 1_555
N1_3 C5_5 1_555 1_555
N2_3 C12_5 1_555 1_555
S1_5 C1_5 1_555 1_555
S3_2 C7_5 1_555 1_555
Ag4_4 N1_3 1_555 1_555
N4_3 Ag4_2 1_555 1_555
C6_5 N1_3 1_555 1_555
C8_5 S3_2 1_555 1_555
C13_5 N2_3 1_555 1_555
C14_5 S1_5 1_555 1_555
Ag4 S1_6 1_555 1_555
C1_6 H1_6 1_555 1_555
H2_6 C1_6 1_555 1_555
C2_6 C1_6 1_555 1_555
C3_6 C2_6 1_555 1_555
H3_6 C3_6 1_555 1_555
C4_6 C3_6 1_555 1_555
C5_6 C4_6 1_555 1_555
H4_4 C5_6 1_555 1_555
C6_6 C2_6 1_555 1_555
H5_6 C6_6 1_555 1_555
C7_6 C4_6 1_555 1_555
H6_6 C7_6 1_555 1_555
H7_6 C7_6 1_555 1_555
C8_6 H8_6 1_555 1_555
H9_6 C8_6 1_555 1_555
C9_6 C8_6 1_555 1_555
C10_6 C9_6 1_555 1_555
H10_6 C10_6 1_555 1_555
C11_6 C10_6 1_555 1_555
C12_6 C11_6 1_555 1_555
H11_6 C12_6 1_555 1_555
C13_6 C9_6 1_555 1_555
C14_6 C11_6 1_555 1_555
H13_6 C14_6 1_555 1_555
H14_6 C14_6 1_555 1_555
N1_4 C5_6 1_555 1_555
N2_4 C12_6 1_555 1_555
S1_6 C1_6 1_555 1_555
S3 C7_6 1_555 1_555
Ag4_3 N1_4 1_555 1_555
N4_4 Ag4 1_555 1_555
C6_6 N1_4 1_555 1_555
C8_6 S3 1_555 1_555
C13_6 N2_4 1_555 1_555
C14_6 S1_6 1_555 1_555
Ag4_4 S1_7 1_555 1_555
C1_7 H1_7 1_555 1_555
H2_7 C1_7 1_555 1_555
C2_7 C1_7 1_555 1_555
C3_7 C2_7 1_555 1_555
H3_7 C3_7 1_555 1_555
C4_7 C3_7 1_555 1_555
C5_7 C4_7 1_555 1_555
C6_7 C2_7 1_555 1_555
H5_7 C6_7 1_555 1_555
C7_7 C4_7 1_555 1_555
H6_7 C7_7 1_555 1_555
H7_7 C7_7 1_555 1_555
C8_7 H8_7 1_555 1_555
H9_7 C8_7 1_555 1_555
C9_7 C8_7 1_555 1_555
C10_7 C9_7 1_555 1_555
H10_7 C10_7 1_555 1_555
C11_7 C10_7 1_555 1_555
C12_7 C11_7 1_555 1_555
H11_7 C12_7 1_555 1_555
C13_7 C9_7 1_555 1_555
H12_5 C13_7 1_555 1_555
C14_7 C11_7 1_555 1_555
H13_7 C14_7 1_555 1_555
H14_7 C14_7 1_555 1_555
N3_3 C5_7 1_555 1_555
N4_4 C12_7 1_555 1_555
S1_7 C1_7 1_555 1_555
S3_4 C7_7 1_555 1_555
C6_7 N3_3 1_555 1_555
C8_7 S3_4 1_555 1_555
C13_7 N4_4 1_555 1_555
C14_7 S1_7 1_555 1_555
Ag4_3 S1_8 1_555 1_555
C1_8 H1_8 1_555 1_555
H2_8 C1_8 1_555 1_555
C2_8 C1_8 1_555 1_555
C3_8 C2_8 1_555 1_555
H3_8 C3_8 1_555 1_555
C4_8 C3_8 1_555 1_555
C5_8 C4_8 1_555 1_555
C6_8 C2_8 1_555 1_555
H5_8 C6_8 1_555 1_555
C7_8 C4_8 1_555 1_555
H6_8 C7_8 1_555 1_555
H7_8 C7_8 1_555 1_555
C8_8 H8_8 1_555 1_555
H9_8 C8_8 1_555 1_555
C9_8 C8_8 1_555 1_555
C10_8 C9_8 1_555 1_555
H10_8 C10_8 1_555 1_555
C11_8 C10_8 1_555 1_555
C12_8 C11_8 1_555 1_555
H11_8 C12_8 1_555 1_555
C13_8 C9_8 1_555 1_555
H12_6 C13_8 1_555 1_555
C14_8 C11_8 1_555 1_555
H13_8 C14_8 1_555 1_555
H14_8 C14_8 1_555 1_555
N3_4 C5_8 1_555 1_555
N4_3 C12_8 1_555 1_555
S1_8 C1_8 1_555 1_555
S3_3 C7_8 1_555 1_555
C6_8 N3_4 1_555 1_555
C8_8 S3_3 1_555 1_555
C13_8 N4_3 1_555 1_555
C14_8 S1_8 1_555 1_555
N5 O1 1_555 1_555
O2 N5 1_555 1_555
O3 N5 1_555 1_555
N5_2 O1_2 1_555 1_555
O2_2 N5_2 1_555 1_555
O3_2 N5_2 1_555 1_555
N5_3 O1_3 1_555 1_555
O2_3 N5_3 1_555 1_555
O3_3 N5_3 1_555 1_555
N5_4 O1_4 1_555 1_555
O2_4 N5_4 1_555 1_555
O3_4 N5_4 1_555 1_555
N5_5 O1_5 1_555 1_555
O2_5 N5_5 1_555 1_555
O3_5 N5_5 1_555 1_555
N5_6 O1_6 1_555 1_555
O2_6 N5_6 1_555 1_555
O3_6 N5_6 1_555 1_555
N5_7 O1_7 1_555 1_555
O2_7 N5_7 1_555 1_555
O3_7 N5_7 1_555 1_555
N5_8 O1_8 1_555 1_555
O2_8 N5_8 1_555 1_555
O3_8 N5_8 1_555 1_555

#END
