
###############################################################################
#
# This file contains modified crystal structure data generated from the
# MOF subset of the Cambridge Structural Database (CSD) v543 
# hosted by the Cambridge Crystallographic Data Centre (CCDC).
#
# This work is licensed under the Creative Commons
# Attribution-NonCommercial-ShareAlike 4.0 International License.
# To view a copy of this license, visit
# http://creativecommons.org/licenses/by-nc-sa/4.0/
# or send a letter to
# Creative Commons, PO Box 1866, Mountain View, CA 94042, USA.
#
# CIF created using the CSD Python API on 29 September 2022
# The structure has been converted into the P1 space group
# The structure has a 3D framework
# The original CSD entry OXITOF is in the triclinic crystal system
# The framework has been calculated to contain at least 10.0% void space
# The void calculation uses a probe of radius 1.32A, grid spacing 0.4
# H atom positions have been added when not included in the experimental data
# Generated hydrogen atom positions removed from atoms on special positions
#
###############################################################################

data_OXITOF
_chemical_formula_moiety         '(C34 H32 Co11 O26)n'
_symmetry_cell_setting           triclinic
_symmetry_space_group_name_H-M   'P 1'
_symmetry_Int_Tables_number      1
_space_group_name_Hall           'P 1'
loop_
_symmetry_equiv_pos_site_id
_symmetry_equiv_pos_as_xyz
1 x,y,z
_cell_length_a                   7.331(8)
_cell_length_b                   11.901(15)
_cell_length_c                   15.838(18)
_cell_angle_alpha                103.50(6)
_cell_angle_beta                 100.46(5)
_cell_angle_gamma                104.75(4)
_cell_volume                     1255.95
loop_
_atom_site_label
_atom_site_type_symbol
_atom_site_fract_x
_atom_site_fract_y
_atom_site_fract_z
Co10 Co 0.02743(12) 0.95281(8) 0.33490(6)
Co5 Co 0.5000 0.0000 0.5000
O18 O 0.2550(6) 0.0678(4) 0.3062(3)
O35 O 0.0199(6) 0.0896(4) 0.4418(3)
H18 H 0.0371 0.1568 0.4279
Co3 Co 0.0000 0.0000 0.0000
O23 O 0.2487(7) 0.0845(5) 0.1102(3)
Co3_2 Co 0.0000 0.0000 1.0000
Co5_2 Co 0.5000 1.0000 0.5000
O15 O 0.1219(6) 0.7936(4) 0.2706(3)
O19 O 0.2202(6) 0.8857(3) 0.4167(3)
O24 O 0.6237(6) 0.9287(4) 0.3987(3)
O28 O 0.7919(6) 0.8123(4) 0.3377(3)
O31 O 0.1650(6) 0.3224(4) 0.4295(3)
O32 O 0.0826(15) 0.1267(8) 0.9361(5)
H13 H 0.0010 0.1544 0.9596
H14 H 0.1711 0.2257 0.9702
C19 C 0.2354(9) 0.4942(5) 0.3744(4)
C21 C 0.1708(8) 0.5915(5) 0.3612(4)
H20 H 0.0387 0.5838 0.3525
C23 C 0.3013(8) 0.7002(5) 0.3608(4)
C25 C 0.5013(9) 0.7108(6) 0.3699(4)
C27 C 0.5646(9) 0.6115(5) 0.3815(4)
H22 H 0.6951 0.6170 0.3865
C29 C 0.4359(9) 0.5055(6) 0.3857(4)
H24 H 0.4816 0.4425 0.3958
C31 C 0.2147(8) 0.8000(5) 0.3477(4)
C33 C 0.6501(8) 0.8262(5) 0.3699(4)
C34 C 0.0999(8) 0.3791(6) 0.3819(4)
Co3_3 Co 0.0000 1.0000 0.0000
Co3_4 Co 1.0000 0.0000 1.0000
Co7 Co 0.97257(12) 0.04719(8) 0.66510(6)
O14 O 0.4831(6) 0.1342(4) 0.4390(3)
O20 O 0.7798(6) 0.1143(3) 0.5833(3)
O25 O 0.3763(6) 0.0713(4) 0.6013(3)
O27 O 0.1677(7) 0.2353(4) 0.1959(3)
O34 O 0.8468(8) 0.9900(6) 0.2344(4)
H15 H 0.8170 0.9143 0.2044
C18 C 0.8898(8) 0.3358(6) 0.3326(4)
C20 C 0.7520(8) 0.2666(5) 0.3669(4)
H19 H 0.7928 0.2564 0.4229
C22 C 0.5555(9) 0.2125(5) 0.3195(4)
C24 C 0.4930(9) 0.2298(5) 0.2350(4)
C26 C 0.6303(9) 0.2988(6) 0.1996(4)
H21 H 0.5895 0.3095 0.1437
C28 C 0.8259(9) 0.3511(5) 0.2473(4)
H23 H 0.9145 0.3960 0.2230
C30 C 0.4196(8) 0.1328(5) 0.3586(4)
C32 C 0.2852(9) 0.1789(6) 0.1783(4)
Co3_5 Co 1.0000 1.0000 0.0000
O10 O 0.9174(15) 0.8733(8) 0.0639(5)
H1 H 0.9990 0.8456 0.0404
H2 H 0.8289 0.7743 0.0298
Co3_6 Co 1.0000 1.0000 1.0000
O1 O 0.5169(6) 0.8658(4) 0.5610(3)
O3 O 0.7450(6) 0.9322(4) 0.6938(3)
O5 O 0.7513(7) 0.9155(5) 0.8898(3)
O7 O 0.8323(7) 0.7647(4) 0.8041(3)
O12 O 0.1532(8) 0.0100(6) 0.7656(4)
H3 H 0.1830 0.0857 0.7956
C1 C 0.1102(8) 0.6642(6) 0.6674(4)
C3 C 0.2480(8) 0.7334(5) 0.6331(4)
H7 H 0.2072 0.7436 0.5771
C5 C 0.4445(9) 0.7875(5) 0.6805(4)
C7 C 0.5070(9) 0.7702(5) 0.7650(4)
C9 C 0.3697(9) 0.7012(6) 0.8004(4)
H9 H 0.4105 0.6905 0.8563
C11 C 0.1741(9) 0.6489(5) 0.7527(4)
H11 H 0.0855 0.6040 0.7770
C13 C 0.5804(8) 0.8672(5) 0.6414(4)
C15 C 0.7148(9) 0.8211(6) 0.8217(4)
O29 O 0.2081(6) 0.1877(4) 0.6623(3)
O2 O 0.8781(6) 0.2064(4) 0.7294(3)
O9 O 0.8350(6) 0.6776(4) 0.5705(3)
C2 C 0.7646(9) 0.5058(5) 0.6256(4)
C4 C 0.8292(8) 0.4085(5) 0.6388(4)
H8 H 0.9613 0.4162 0.6475
C6 C 0.6987(8) 0.2998(5) 0.6392(4)
C8 C 0.4987(9) 0.2892(6) 0.6301(4)
C10 C 0.4354(9) 0.3885(5) 0.6185(4)
H10 H 0.3049 0.3830 0.6135
C12 C 0.5641(9) 0.4945(6) 0.6143(4)
H12 H 0.5184 0.5575 0.6042
C14 C 0.7853(8) 0.2000(5) 0.6523(4)
C16 C 0.3499(8) 0.1738(5) 0.6301(4)
C17 C 0.9001(8) 0.6209(6) 0.6181(4)
O13 O 0.9801(6) 0.9104(4) 0.5582(3)
H6 H 0.9629 0.8432 0.5721
Co3_7 Co 0.0000 1.0000 1.0000
O33 O 0.1487(9) 0.8899(8) 0.9330(6)
H16 H 0.9106 0.0133 0.2098
H17 H 0.8999 0.0320 0.4401
Co3_8 Co 1.0000 0.0000 0.0000
O11 O 0.8513(9) 0.1101(8) 0.0670(6)
H4 H 0.0894 0.9867 0.7902
H5 H 0.1001 0.9680 0.5599
loop_
_geom_bond_atom_site_label_1
_geom_bond_atom_site_label_2
_geom_bond_site_symmetry_1
_geom_bond_site_symmetry_2
H18 O35 1_555 1_555
O23 Co3 1_555 1_555
Co5_2 O19 1_555 1_555
Co10 O15 1_555 1_555
O15 C31 1_555 1_555
O19 Co10 1_555 1_555
O24 Co5_2 1_555 1_555
O28 C33 1_555 1_555
O31 C34 1_555 1_555
O32 Co3_2 1_555 1_555
H13 O32 1_555 1_555
H14 O32 1_555 1_555
C19 C21 1_555 1_555
C21 H20 1_555 1_555
C23 C21 1_555 1_555
C25 C23 1_555 1_555
C27 C25 1_555 1_555
H22 C27 1_555 1_555
C29 C19 1_555 1_555
H24 C29 1_555 1_555
C31 O19 1_555 1_555
C33 O24 1_555 1_555
C19 C34 1_555 1_555
C23 C31 1_555 1_555
C25 C33 1_555 1_555
C27 C29 1_555 1_555
O14 Co5 1_555 1_555
O18 C30 1_555 1_555
O20 Co5 1_555 1_555
O23 C32 1_555 1_555
O25 Co5 1_555 1_555
O27 C32 1_555 1_555
H15 O34 1_555 1_555
C18 C20 1_555 1_555
C20 H19 1_555 1_555
C22 C20 1_555 1_555
C24 C22 1_555 1_555
C26 C24 1_555 1_555
H21 C26 1_555 1_555
C28 C18 1_555 1_555
H23 C28 1_555 1_555
C30 O14 1_555 1_555
C32 C24 1_555 1_555
Co7 O20 1_555 1_555
C22 C30 1_555 1_555
C26 C28 1_555 1_555
O10 Co3_5 1_555 1_555
H1 O10 1_555 1_555
H2 O10 1_555 1_555
Co5_2 O1 1_555 1_555
Co3_6 O5 1_555 1_555
O1 C13 1_555 1_555
O3 C13 1_555 1_555
O5 C15 1_555 1_555
O7 C15 1_555 1_555
H3 O12 1_555 1_555
C1 C3 1_555 1_555
C3 H7 1_555 1_555
C5 C3 1_555 1_555
C7 C5 1_555 1_555
C9 C7 1_555 1_555
H9 C9 1_555 1_555
C11 C1 1_555 1_555
H11 C11 1_555 1_555
C13 C5 1_555 1_555
C15 C7 1_555 1_555
C9 C11 1_555 1_555
Co7 O2 1_555 1_555
O2 C14 1_555 1_555
O25 C16 1_555 1_555
O29 C16 1_555 1_555
O9 C17 1_555 1_555
C2 C4 1_555 1_555
C4 H8 1_555 1_555
C6 C4 1_555 1_555
C8 C6 1_555 1_555
C10 C8 1_555 1_555
H10 C10 1_555 1_555
C12 C2 1_555 1_555
H12 C12 1_555 1_555
C14 O20 1_555 1_555
C16 C8 1_555 1_555
C2 C17 1_555 1_555
C6 C14 1_555 1_555
C10 C12 1_555 1_555
H6 O13 1_555 1_555
O33 Co3_7 1_555 1_555
O11 Co3_8 1_555 1_555

#END
