
###############################################################################
#
# This file contains modified crystal structure data generated from the
# MOF subset of the Cambridge Structural Database (CSD) v543 
# hosted by the Cambridge Crystallographic Data Centre (CCDC).
#
# This work is licensed under the Creative Commons
# Attribution-NonCommercial-ShareAlike 4.0 International License.
# To view a copy of this license, visit
# http://creativecommons.org/licenses/by-nc-sa/4.0/
# or send a letter to
# Creative Commons, PO Box 1866, Mountain View, CA 94042, USA.
#
# CIF created using the CSD Python API on 29 September 2022
# The structure has been converted into the P1 space group
# The structure has a 3D framework
# The original CSD entry OXUNEB is in the triclinic crystal system
# The framework has been calculated to contain at least 10.0% void space
# The void calculation uses a probe of radius 1.32A, grid spacing 0.4
# The framework is charged, counterions have been retained in the structure
# H atom positions have been added when not included in the experimental data
#
###############################################################################

data_OXUNEB
_chemical_formula_moiety         '(C16 H124 Cd10 Cl4 Mg2 Mo24 N16 O121 P16)n'
_symmetry_cell_setting           triclinic
_symmetry_space_group_name_H-M   'P 1'
_symmetry_Int_Tables_number      1
_space_group_name_Hall           'P 1'
loop_
_symmetry_equiv_pos_site_id
_symmetry_equiv_pos_as_xyz
1 x,y,z
_cell_length_a                   12.0014(16)
_cell_length_b                   14.6860(17)
_cell_length_c                   21.176(2)
_cell_angle_alpha                81.093(2)
_cell_angle_beta                 83.080(2)
_cell_angle_gamma                76.571(1)
_cell_volume                     3572.6
loop_
_atom_site_label
_atom_site_type_symbol
_atom_site_fract_x
_atom_site_fract_y
_atom_site_fract_z
Cd9 Cd 0.00986(5) 0.37902(4) 0.12832(3)
Cd1 Cd -0.0000 -0.0000 -0.0000
Mo1 Mo 0.05147(5) 0.01909(4) 0.17163(3)
Mg1 Mg 0.2617(4) 0.0763(3) 0.3402(2)
N1 N 0.4148(8) 0.0380(7) 0.3786(5)
H2 H 0.4096 0.0820 0.4047
O1 O 0.0221(4) 0.1546(3) 0.1079(2)
O5 O 0.1329(4) 0.0945(4) 0.2204(2)
O6 O 0.2456(4) 0.1773(4) 0.1306(2)
O7 O 0.1015(4) 0.2734(4) 0.2034(3)
O8 O 0.2826(5) 0.1723(4) 0.2446(3)
O17 O 0.1959(4) 0.0160(3) 0.1023(2)
O41 O 0.1635(5) 0.2139(4) 0.3884(3)
P2 P 0.18840(16) 0.18099(13) 0.19937(9)
C1 C 0.5355(10) 0.0207(9) 0.3544(6)
H19 H 0.5500 0.0765 0.3265
H21 H 0.6428 0.0533 0.4100
Cd4 Cd 0.5000 0.5000 0.5000
Mo15 Mo 0.19475(5) 0.14896(4) 0.04858(3)
Mo21 Mo 0.19775(5) 0.52026(4) 0.58813(3)
Mo23 Mo 0.43230(5) 0.47889(4) 0.68281(3)
Mo26 Mo 0.61731(5) 0.35229(4) 0.65657(3)
Mo28 Mo 0.63497(5) 0.22931(4) 0.52633(3)
Mo29 Mo 0.46096(5) 0.26143(4) 0.45771(3)
Mo30 Mo 0.21001(5) 0.43137(4) 0.48967(3)
H22 H 0.5907 0.0153 0.5950
N4 N 0.2886(10) 0.0748(7) 0.6017(5)
H24 H 0.2353 0.0529 0.6287
H25 H 0.2606 0.0973 0.5639
H26 H 0.3086 0.1209 0.6175
O76 O 0.1389(5) 0.4710(4) 0.1084(3)
O84 O 0.1288(4) 0.2842(4) 0.0297(2)
O92 O 0.3300(4) 0.3991(4) 0.6357(2)
O93 O 0.5080(4) 0.2809(4) 0.6094(2)
O94 O 0.3420(4) 0.3096(4) 0.5422(2)
O95 O 0.3270(5) 0.2252(4) 0.6553(3)
O97 O 0.1237(4) 0.5037(4) 0.6817(2)
O99 O 0.2916(5) 0.4828(4) 0.7486(2)
O103 O 0.6793(5) 0.2140(4) 0.6940(3)
O104 O 0.6856(5) 0.1248(4) 0.5997(3)
O105 O 0.7208(5) 0.0396(4) 0.7058(3)
O106 O 0.8697(5) 0.1277(4) 0.6451(3)
H32 H 0.8942 0.0937 0.6151
O107 O 0.3316(5) 0.1912(4) 0.4528(3)
O108 O 0.1533(5) 0.3184(4) 0.4736(3)
O109 O 0.1487(5) 0.1499(4) 0.5053(3)
O112 O 0.5351(4) 0.4648(4) 0.6043(2)
O113 O 0.5505(4) 0.3467(4) 0.4798(2)
O115 O 0.3163(4) 0.5797(3) 0.6275(2)
H33 H 0.3540 0.6076 0.5970
O116 O 0.4961(5) 0.3547(4) 0.7269(3)
O117 O 0.3281(5) 0.1286(4) 0.0121(3)
O118 O 0.7088(4) 0.3133(4) 0.5721(2)
H34 H 0.7148 0.3630 0.5466
O120 O 0.5252(4) 0.1543(4) 0.5183(2)
O122 O 0.3451(4) 0.3837(4) 0.4217(2)
H35 H 0.3815 0.4273 0.4089
O124 O 0.1247(4) 0.4222(4) 0.5726(2)
H36 H 0.0522 0.4389 0.5718
O125 O 0.1087(5) 0.6249(4) 0.5665(3)
O126 O 0.4846(5) 0.5559(4) 0.7153(3)
O127 O 0.7178(5) 0.3963(4) 0.6831(3)
O128 O 0.7456(5) 0.1965(4) 0.4720(3)
O129 O 0.5264(5) 0.2354(4) 0.3861(3)
O130 O 0.1273(5) 0.5140(4) 0.4407(3)
O131 O 0.3112(4) 0.5062(4) 0.5138(2)
P13 P 0.37505(16) 0.30077(13) 0.61187(9)
P15 P 0.74467(17) 0.12925(14) 0.66015(10)
P16 P 0.19792(17) 0.21803(14) 0.45435(9)
H39 H 0.4486 0.0309 0.6713
C4 C 0.3835(11) 0.0031(9) 0.5937(6)
H41 H 0.4263 0.0199 0.5534
H72 H 0.160419 0.571133 0.43099
H73 H 0.124348 0.488835 0.400171
H74 H 0.541063 0.58183 0.683594
H75 H 0.420578 0.608239 0.727398
H76 H 0.74693 0.248665 0.436153
H77 H 0.818846 0.181938 0.49265
H78 H 0.699807 0.400859 0.72967
H79 H 0.794451 0.353963 0.675886
H80 H 0.0331148 0.61405 0.558771
H81 H 0.0979665 0.665035 0.601376
H82 H 0.569141 0.168505 0.390412
H83 H 0.467873 0.245043 0.354918
Cd1_2 Cd -0.0000 1.0000 -0.0000
Mo4 Mo 0.20848(5) 0.76408(4) 0.05561(3)
Mo7 Mo 0.80225(5) 0.47974(4) 0.41187(3)
Mo8 Mo 0.56770(5) 0.52111(4) 0.31719(3)
Mo9 Mo 0.38269(5) 0.64771(4) 0.34343(3)
Mo10 Mo 0.36503(5) 0.77069(4) 0.47367(3)
Mo11 Mo 0.53904(5) 0.73857(4) 0.54229(3)
Mo12 Mo 0.78999(5) 0.56863(4) 0.51033(3)
Cl2 Cl 0.1025(5) 0.9142(4) 0.2134(3)
H1 H 0.4093 0.9847 0.4050
N2 N 0.7114(10) 0.9252(7) 0.3983(5)
H3 H 0.7647 0.9471 0.3713
H4 H 0.7394 0.9027 0.4361
H5 H 0.6914 0.8791 0.3825
O9 O 0.0027(5) 0.6173(4) 0.0668(2)
O10 O 0.2065(5) 0.6221(4) 0.0794(3)
O12 O 0.0673(5) 0.6025(4) 0.1782(3)
H7 H 0.1956 0.9763 0.0771
O19 O 0.0387(4) 0.7868(4) 0.0986(2)
H8 H 0.0173 0.8444 0.1046
O24 O 0.1689(4) 0.8974(3) 0.0171(2)
O26 O 0.6700(4) 0.6009(4) 0.3643(2)
O27 O 0.4920(4) 0.7191(4) 0.3906(2)
O28 O 0.6580(4) 0.6904(4) 0.4578(2)
O29 O 0.6730(5) 0.7748(4) 0.3447(3)
O34 O 0.3207(5) 0.7860(4) 0.3060(3)
O35 O 0.3144(5) 0.8752(4) 0.4003(3)
O36 O 0.2792(5) 0.9604(4) 0.2942(3)
O37 O 0.1303(5) 0.8723(4) 0.3549(3)
H11 H 0.1058 0.9063 0.3849
O38 O 0.6684(5) 0.8088(4) 0.5472(3)
O39 O 0.8467(5) 0.6816(4) 0.5264(3)
O40 O 0.8513(5) 0.8501(4) 0.4947(3)
O42 O 0.4649(4) 0.5352(4) 0.3957(2)
O43 O 0.4495(4) 0.6533(4) 0.5202(2)
O44 O 0.6837(4) 0.4203(3) 0.3725(2)
H12 H 0.6460 0.3924 0.4030
O45 O 0.5039(5) 0.6453(4) 0.2731(3)
O47 O 0.2912(4) 0.6867(4) 0.4279(2)
H13 H 0.2852 0.6370 0.4534
O49 O 0.4748(4) 0.8457(4) 0.4817(2)
O50 O 0.2760(5) 0.7723(4) 0.1187(3)
O51 O 0.6549(4) 0.6163(4) 0.5783(2)
H14 H 0.6185 0.5727 0.5911
O52 O 0.4059(5) 0.8951(4) 0.0036(3)
O53 O 0.8753(4) 0.5778(4) 0.4274(2)
H15 H 0.9478 0.5611 0.4282
O54 O 0.8913(5) 0.3751(4) 0.4335(3)
O55 O 0.5154(5) 0.4441(4) 0.2847(3)
O56 O 0.2822(5) 0.6037(4) 0.3169(3)
O57 O 0.2544(5) 0.8035(4) 0.5280(3)
O58 O 0.4736(5) 0.7646(4) 0.6139(3)
O59 O 0.8727(5) 0.4860(4) 0.5593(3)
O60 O 0.6888(4) 0.4938(4) 0.4862(2)
P4 P 0.10445(17) 0.57700(13) 0.11082(9)
P5 P 0.62495(16) 0.69923(13) 0.38813(9)
P7 P 0.25533(17) 0.87075(14) 0.33985(10)
P8 P 0.80208(17) 0.78197(14) 0.54565(9)
H18 H 0.5514 0.9691 0.3287
C2 C 0.6165(11) 0.9969(9) 0.4063(6)
H20 H 0.5737 0.9801 0.4466
Cd7 Cd 0.99014(5) 0.62098(4) 0.87168(3)
Mo14 Mo 0.94853(5) 0.98091(4) 0.82837(3)
Mo16 Mo 0.80525(5) 0.85104(4) 0.95142(3)
Mg2 Mg 0.7383(4) 0.9237(3) 0.6598(2)
N3 N 0.5852(8) 0.9620(7) 0.6214(5)
H23 H 0.5904 0.9180 0.5953
O66 O 0.8671(4) 0.9055(4) 0.7796(2)
O68 O 0.7544(4) 0.8227(4) 0.8694(2)
O70 O 0.8985(4) 0.7266(4) 0.7966(3)
O72 O 0.7174(5) 0.8277(4) 0.7554(3)
O96 O 0.8763(4) 0.4963(4) 0.3183(2)
O98 O 0.7084(5) 0.5172(4) 0.2514(2)
O100 O 0.9070(5) 0.4357(4) 0.2140(3)
O102 O 0.8546(5) 0.6116(4) 0.2173(3)
H31 H 0.9251 0.6085 0.2044
O110 O 0.8365(5) 0.7861(4) 0.6116(3)
P10 P 0.81160(16) 0.81901(13) 0.80063(9)
P14 P 0.83717(16) 0.51234(13) 0.25012(9)
C3 C 0.4645(10) 0.9793(9) 0.6456(6)
H40 H 0.4500 0.9235 0.6735
H42 H 0.3572 0.9467 0.5900
Cd1_3 Cd -0.0000 1.0000 1.0000
Mo5 Mo 0.31281(5) 0.86159(4) 0.96360(3)
O13 O 0.4226(5) 0.8279(4) 0.8859(3)
O14 O 0.3146(5) 0.9180(4) 0.7907(3)
O15 O 0.4545(5) 0.7629(4) 0.7810(3)
O16 O 0.5225(5) 0.9103(4) 0.7916(3)
H6 H 0.5862 0.8752 0.7800
O20 O 0.3282(5) 0.7267(4) 0.9889(3)
O21 O 0.2627(4) 0.9945(4) 0.9055(2)
P3 P 0.42756(17) 0.85262(15) 0.81240(10)
Mo20 Mo 0.16344(5) 0.98876(4) 0.83115(3)
O63 O 0.0878(4) 0.7501(3) 0.9819(2)
O64 O 0.1854(4) 0.8476(4) 0.8955(2)
O65 O 0.1299(4) 0.7028(4) 0.8695(2)
O88 O 0.0887(4) 0.9254(4) 0.7798(2)
O101 O 0.0930(5) 0.5643(4) 0.7860(3)
O133 O 0.1057(6) 0.5272(5) 0.9488(3)
H37 H 0.0755 0.5518 0.9824
H38 H 0.0719 0.4838 0.9449
P9 P 0.09776(16) 0.78369(13) 0.90912(9)
Cd1_4 Cd 1.0000 -0.0000 -0.0000
Mo6 Mo 0.83656(5) 0.01124(4) 0.16885(3)
O2 O 0.9122(4) 0.2499(3) 0.0181(2)
O3 O 0.8146(4) 0.1524(4) 0.1045(2)
O4 O 0.8701(4) 0.2972(4) 0.1305(2)
O22 O 0.9113(4) 0.0746(4) 0.2202(2)
O61 O 0.8943(6) 0.4728(5) 0.0512(3)
H16 H 0.9245 0.4482 0.0176
H17 H 0.9281 0.5162 0.0551
P1 P 0.90224(16) 0.21631(13) 0.09088(9)
Mo19 Mo 0.68719(5) 0.13841(4) 0.03640(3)
O79 O 0.5774(5) 0.1721(4) 0.1141(3)
O80 O 0.6854(5) 0.0820(4) 0.2093(3)
O81 O 0.5455(5) 0.2371(4) 0.2190(3)
O82 O 0.4775(5) 0.0897(4) 0.2084(3)
H27 H 0.4138 0.1248 0.2200
O86 O 0.6718(5) 0.2733(4) 0.0111(3)
O87 O 0.7373(4) 0.0055(4) 0.0945(2)
P11 P 0.57244(17) 0.14738(15) 0.18760(10)
Cd1_5 Cd 1.0000 -0.0000 1.0000
Mo18 Mo 0.79152(5) 0.23592(4) 0.94439(3)
Cl4 Cl 0.8975(5) 0.0858(4) 0.7866(3)
O73 O 0.9973(5) 0.3827(4) 0.9332(2)
O74 O 0.7935(5) 0.3779(4) 0.9206(3)
O75 O 0.8611(5) 0.5290(4) 0.8916(3)
O78 O 0.9327(5) 0.3975(4) 0.8218(3)
H28 H 0.8044 0.0237 0.9229
O85 O 0.9613(4) 0.2132(4) 0.9014(2)
H29 H 0.9827 0.1556 0.8954
O90 O 0.8311(4) 0.1026(3) 0.9829(2)
O121 O 0.7240(5) 0.2277(4) 0.8813(3)
O123 O 0.5941(5) 0.1049(4) 0.9964(3)
P12 P 0.89555(17) 0.42300(13) 0.88918(9)
Cd1_6 Cd 1.0000 1.0000 1.0000
O18 O 0.8712(4) 0.7158(4) 0.9703(2)
O46 O 0.6719(5) 0.8714(4) 0.9879(3)
O62 O 0.9779(4) 0.8454(3) 0.8921(2)
O83 O 0.8041(4) 0.9840(3) 0.8977(2)
O33 O 0.1454(5) 0.3884(4) 0.7827(3)
H10 H 0.0749 0.3915 0.7956
P6 P 0.16283(16) 0.48766(13) 0.74988(9)
H72_2 H 0.839581 0.428867 0.56901
H73_2 H 0.875652 0.511165 0.599829
H74_2 H 0.458937 0.41817 0.316406
H75_2 H 0.579422 0.391761 0.272602
H76_2 H 0.25307 0.751335 0.563847
H77_2 H 0.181154 0.818062 0.50735
H78_2 H 0.300193 0.599141 0.27033
H79_2 H 0.205549 0.646037 0.324114
H80_2 H 0.966885 0.38595 0.441229
H81_2 H 0.902033 0.334965 0.398624
H82_2 H 0.430859 0.831495 0.609588
H83_2 H 0.532127 0.754957 0.645082
Cd1_7 Cd -0.0000 -0.0000 1.0000
H9 H 0.2243 0.0346 0.9292
Mo17 Mo 0.08071(5) 0.24497(4) 0.95447(3)
Cl3 Cl 0.1660(5) 0.0951(4) 0.7892(3)
O89 O 0.1093(4) 0.1101(3) 0.9882(2)
O91 O 0.0281(4) 0.0191(4) 0.8931(2)
O119 O 0.1908(5) 0.2460(4) 0.8977(3)
Cd1_8 Cd 1.0000 1.0000 -0.0000
Mo3 Mo 0.91929(5) 0.75503(4) 0.04553(3)
Cl1 Cl 0.8340(5) 0.9049(4) 0.2108(3)
O23 O 0.8907(4) 0.8899(3) 0.0118(2)
O25 O 0.9719(4) 0.9809(4) 0.1069(2)
O48 O 0.8092(5) 0.7540(4) 0.1023(3)
H30 H 0.7757 0.9654 0.0708
H46 H 0.0076 0.1924 0.3859
N5 N 0.7413(6) 0.2862(5) 0.2505(3)
H43 H 0.6804 0.2696 0.2393
H44 H 0.7970 0.2807 0.2186
N6 N 0.9429(6) 0.1778(5) 0.3783(4)
H45 H 0.8903 0.1891 0.4112
H47 H 0.9567 0.1170 0.3734
C5 C 0.7829(7) 0.2232(6) 0.3093(4)
H48 H 0.7869 0.1579 0.3045
H49 H 0.7297 0.2388 0.3463
C6 C 0.9002(8) 0.2356(6) 0.3195(4)
H50 H 0.9535 0.2179 0.2830
H51 H 0.8964 0.3016 0.3223
N5_2 N 0.2587(6) 0.7138(5) 0.7495(3)
H43_2 H 0.3196 0.7304 0.7607
H44_2 H 0.2030 0.7193 0.7814
N6_2 N 0.0571(6) 0.8222(5) 0.6217(4)
H45_2 H 0.1097 0.8109 0.5888
H47_2 H 0.0433 0.8830 0.6266
C5_2 C 0.2171(7) 0.7768(6) 0.6907(4)
H48_2 H 0.2131 0.8421 0.6955
H49_2 H 0.2703 0.7612 0.6537
C6_2 C 0.0998(8) 0.7644(6) 0.6805(4)
H50_2 H 0.0465 0.7821 0.7170
H51_2 H 0.1036 0.6984 0.6777
H46_2 H 0.9924 0.8076 0.6141
H56 H 0.0151 0.2611 0.5469
C7 C 0.0137(9) 0.3009(7) 0.6917(5)
H59 H 0.0805 0.2938 0.7151
C8 C 0.0489(8) 0.2473(6) 0.6369(5)
H60 H 0.0504 0.1812 0.6520
H61 H 0.1267 0.2523 0.6208
N7 N 0.9195(7) 0.2753(5) 0.7377(4)
H52 H 0.8536 0.2930 0.7193
H53 H 0.9136 0.3044 0.7723
H54 H 0.9345 0.2131 0.7494
N8 N 0.9747(7) 0.2776(6) 0.5830(4)
H55 H 0.9150 0.2499 0.5909
H57 H 0.9496 0.3400 0.5788
H58 H 0.9906 0.3672 0.6751
N7_2 N 0.0805(7) 0.7247(5) 0.2623(4)
H52_2 H 0.1464 0.7070 0.2807
H53_2 H 0.0864 0.6956 0.2277
H54_2 H 0.0655 0.7869 0.2506
N8_2 N 0.0253(7) 0.7224(6) 0.4170(4)
H55_2 H 0.0850 0.7501 0.4091
H57_2 H 0.0504 0.6600 0.4212
H58_2 H 0.0094 0.6328 0.3249
H56_2 H 0.9849 0.7389 0.4531
C7_2 C 0.9863(9) 0.6991(7) 0.3083(5)
H59_2 H 0.9195 0.7062 0.2849
C8_2 C 0.9511(8) 0.7527(6) 0.3631(5)
H60_2 H 0.9496 0.8188 0.3480
H61_2 H 0.8733 0.7477 0.3792
N9 N 0.3515(6) 0.3141(5) 0.2939(3)
H62 H 0.3604 0.3305 0.3315
H63 H 0.4201 0.2949 0.2734
H64 H 0.3137 0.2675 0.3006
N10 N 0.0943(6) 0.3740(5) 0.3066(3)
H65 H 0.0917 0.3454 0.2729
H66 H 0.0242 0.4062 0.3181
H67 H 0.1196 0.3310 0.3392
C9 C 0.2847(7) 0.3971(6) 0.2544(4)
H68 H 0.2685 0.3774 0.2154
H69 H 0.3308 0.4443 0.2422
C10 C 0.1739(7) 0.4402(6) 0.2895(4)
H70 H 0.1903 0.4600 0.3284
H71 H 0.1361 0.4961 0.2629
N9_2 N 0.6485(6) 0.6859(5) 0.7061(3)
H62_2 H 0.6396 0.6695 0.6685
H63_2 H 0.5799 0.7051 0.7266
H64_2 H 0.6863 0.7325 0.6994
N10_2 N 0.9057(6) 0.6260(5) 0.6934(3)
H65_2 H 0.9083 0.6546 0.7271
H66_2 H 0.9758 0.5938 0.6819
H67_2 H 0.8804 0.6690 0.6608
C9_2 C 0.7153(7) 0.6029(6) 0.7456(4)
H68_2 H 0.7315 0.6226 0.7846
H69_2 H 0.6692 0.5557 0.7578
C10_2 C 0.8261(7) 0.5598(6) 0.7105(4)
H70_2 H 0.8097 0.5400 0.6716
H71_2 H 0.8639 0.5039 0.7371
loop_
_geom_bond_atom_site_label_1
_geom_bond_atom_site_label_2
_geom_bond_site_symmetry_1
_geom_bond_site_symmetry_2
Mg1 N1 1_555 1_555
H2 N1 1_555 1_555
O1 Mo1 1_555 1_555
O5 Mo1 1_555 1_555
O6 P2 1_555 1_555
O7 Cd9 1_555 1_555
O8 Mg1 1_555 1_555
O17 Mo1 1_555 1_555
O41 Mg1 1_555 1_555
P2 O5 1_555 1_555
C1 N1 1_555 1_555
H19 C1 1_555 1_555
Cd4 O112 1_555 1_555
Mo15 O1 1_555 1_555
Mo21 Mo30 1_555 1_555
Mo23 Mo26 1_555 1_555
Mo26 O93 1_555 1_555
Mo28 Mo29 1_555 1_555
Mo29 O94 1_555 1_555
Mo30 O94 1_555 1_555
N4 H24 1_555 1_555
H25 N4 1_555 1_555
H26 N4 1_555 1_555
O76 Cd9 1_555 1_555
O84 Mo15 1_555 1_555
O92 Mo21 1_555 1_555
O93 Mo28 1_555 1_555
O94 P13 1_555 1_555
O95 P13 1_555 1_555
O97 Mo21 1_555 1_555
O99 Mo23 1_555 1_555
O103 Mo26 1_555 1_555
O104 Mo28 1_555 1_555
O106 H32 1_555 1_555
O107 Mo29 1_555 1_555
O108 Mo30 1_555 1_555
O109 P16 1_555 1_555
O112 Mo23 1_555 1_555
O113 Cd4 1_555 1_555
O115 Mo21 1_555 1_555
H33 O115 1_555 1_555
O116 Mo23 1_555 1_555
O117 Mo15 1_555 1_555
O118 Mo26 1_555 1_555
H34 O118 1_555 1_555
O120 Mo28 1_555 1_555
O122 Mo29 1_555 1_555
H35 O122 1_555 1_555
O124 Mo21 1_555 1_555
H36 O124 1_555 1_555
O125 Mo21 1_555 1_555
O126 Mo23 1_555 1_555
O127 Mo26 1_555 1_555
O128 Mo28 1_555 1_555
O129 Mo29 1_555 1_555
O130 Mo30 1_555 1_555
O131 Cd4 1_555 1_555
P13 O92 1_555 1_555
P15 O103 1_555 1_555
P16 O41 1_555 1_555
C4 N4 1_555 1_555
H41 C4 1_555 1_555
O6 Mo15 1_555 1_555
O7 P2 1_555 1_555
O8 P2 1_555 1_555
O17 Mo15 1_555 1_555
Mo21 O131 1_555 1_555
Mo23 O92 1_555 1_555
Mo23 O115 1_555 1_555
Mo26 O112 1_555 1_555
Mo26 O116 1_555 1_555
Mo28 O113 1_555 1_555
Mo28 O118 1_555 1_555
Mo29 O113 1_555 1_555
Mo29 O120 1_555 1_555
Mo30 O122 1_555 1_555
Mo30 O124 1_555 1_555
Mo30 O131 1_555 1_555
O93 P13 1_555 1_555
O104 P15 1_555 1_555
O105 P15 1_555 1_555
O106 P15 1_555 1_555
O107 P16 1_555 1_555
O108 P16 1_555 1_555
O130 H72 1_555 1_555
O130 H73 1_555 1_555
O126 H74 1_555 1_555
O126 H75 1_555 1_555
O128 H76 1_555 1_555
O128 H77 1_555 1_555
O127 H78 1_555 1_555
O127 H79 1_555 1_555
O125 H80 1_555 1_555
O125 H81 1_555 1_555
O129 H82 1_555 1_555
O129 H83 1_555 1_555
Cd4 O42 1_555 1_555
Mo7 Mo12 1_555 1_555
Mo8 Mo9 1_555 1_555
Mo9 O27 1_555 1_555
Mo10 Mo11 1_555 1_555
Mo11 O28 1_555 1_555
Mo12 O28 1_555 1_555
N2 H3 1_555 1_555
H4 N2 1_555 1_555
H5 N2 1_555 1_555
O9 P4 1_555 1_555
O10 Mo4 1_555 1_555
O76 P4 1_555 1_555
O12 P4 1_555 1_555
H8 O19 1_555 1_555
O24 Cd1_2 1_555 1_555
O26 Mo7 1_555 1_555
O27 Mo10 1_555 1_555
O28 P5 1_555 1_555
O29 P5 1_555 1_555
O34 Mo9 1_555 1_555
O35 Mo10 1_555 1_555
O37 H11 1_555 1_555
O38 Mo11 1_555 1_555
O39 Mo12 1_555 1_555
O40 P8 1_555 1_555
O42 Mo8 1_555 1_555
O43 Cd4 1_555 1_555
O44 Mo7 1_555 1_555
H12 O44 1_555 1_555
O45 Mo8 1_555 1_555
O47 Mo9 1_555 1_555
H13 O47 1_555 1_555
O49 Mo10 1_555 1_555
O50 Mo4 1_555 1_555
O51 Mo11 1_555 1_555
H14 O51 1_555 1_555
O53 Mo7 1_555 1_555
H15 O53 1_555 1_555
O54 Mo7 1_555 1_555
O55 Mo8 1_555 1_555
O56 Mo9 1_555 1_555
O57 Mo10 1_555 1_555
O58 Mo11 1_555 1_555
O59 Mo12 1_555 1_555
O60 Cd4 1_555 1_555
P4 O10 1_555 1_555
P5 O26 1_555 1_555
P7 O34 1_555 1_555
P8 O38 1_555 1_555
C2 N2 1_555 1_555
H20 C2 1_555 1_555
Cd7 O70 1_555 1_555
Mo14 O66 1_555 1_555
Mo16 O68 1_555 1_555
Mg2 N3 1_555 1_555
H23 N3 1_555 1_555
O66 P10 1_555 1_555
O68 P10 1_555 1_555
O70 P10 1_555 1_555
O72 Mg2 1_555 1_555
O96 Mo7 1_555 1_555
O98 Mo8 1_555 1_555
O100 P14 1_555 1_555
O102 H31 1_555 1_555
O110 P8 1_555 1_555
P10 O72 1_555 1_555
P14 O96 1_555 1_555
C3 N3 1_555 1_555
H40 C3 1_555 1_555
Mo4 O19 1_555 1_555
Mo4 O24 1_555 1_555
Mo7 O60 1_555 1_555
Mo8 O26 1_555 1_555
Mo8 O44 1_555 1_555
Mo9 O42 1_555 1_555
Mo9 O45 1_555 1_555
Mo10 O43 1_555 1_555
Mo10 O47 1_555 1_555
Mo11 O43 1_555 1_555
Mo11 O49 1_555 1_555
Mo12 O51 1_555 1_555
Mo12 O53 1_555 1_555
Mo12 O60 1_555 1_555
O27 P5 1_555 1_555
O35 P7 1_555 1_555
O36 P7 1_555 1_555
O37 P7 1_555 1_555
O39 P8 1_555 1_555
Mg2 O110 1_555 1_555
O98 P14 1_555 1_555
O102 P14 1_555 1_555
Mo5 O13 1_555 1_555
O13 P3 1_555 1_555
O14 P3 1_555 1_555
O15 P3 1_555 1_555
O16 H6 1_555 1_555
O21 Mo5 1_555 1_555
P3 O16 1_555 1_555
Mo20 O14 1_555 1_555
O64 Mo5 1_555 1_555
O65 P9 1_555 1_555
H37 O133 1_555 1_555
H38 O133 1_555 1_555
Mo5 O20 1_555 1_555
O21 Mo20 1_555 1_555
Mo20 O64 1_555 1_555
Mo20 O88 1_555 1_555
O63 P9 1_555 1_555
O64 P9 1_555 1_555
O2 P1 1_555 1_555
O3 Mo6 1_555 1_555
O4 P1 1_555 1_555
H16 O61 1_555 1_555
H17 O61 1_555 1_555
Mo19 O3 1_555 1_555
O79 Mo19 1_555 1_555
O80 Mo6 1_555 1_555
O81 P11 1_555 1_555
O82 H27 1_555 1_555
O87 Mo6 1_555 1_555
P11 O79 1_555 1_555
Mo6 O22 1_555 1_555
O3 P1 1_555 1_555
Mo19 O86 1_555 1_555
Mo19 O87 1_555 1_555
O80 P11 1_555 1_555
O82 P11 1_555 1_555
Cd7 O75 1_555 1_555
O74 Mo18 1_555 1_555
O75 P12 1_555 1_555
O78 P12 1_555 1_555
H29 O85 1_555 1_555
O90 Cd1_5 1_555 1_555
O121 Mo18 1_555 1_555
P12 O73 1_555 1_555
Mo18 O85 1_555 1_555
Mo18 O90 1_555 1_555
O74 P12 1_555 1_555
O18 Mo16 1_555 1_555
O46 Mo16 1_555 1_555
O62 Mo16 1_555 1_555
O83 Mo16 1_555 1_555
Mo14 O62 1_555 1_555
Mo14 O83 1_555 1_555
O97 P6 1_555 1_555
O99 P6 1_555 1_555
O33 H10 1_555 1_555
P6 O101 1_555 1_555
O33 P6 1_555 1_555
O59 H72_2 1_555 1_555
O59 H73_2 1_555 1_555
O55 H74_2 1_555 1_555
O55 H75_2 1_555 1_555
O57 H76_2 1_555 1_555
O57 H77_2 1_555 1_555
O56 H78_2 1_555 1_555
O56 H79_2 1_555 1_555
O54 H80_2 1_555 1_555
O54 H81_2 1_555 1_555
O58 H82_2 1_555 1_555
O58 H83_2 1_555 1_555
O89 Cd1_7 1_555 1_555
O91 Cd1_7 1_555 1_555
O119 Mo17 1_555 1_555
Mo17 O89 1_555 1_555
Cd1_8 O23 1_555 1_555
O25 Cd1_8 1_555 1_555
O48 Mo3 1_555 1_555
Mo3 O23 1_555 1_555
N5 H43 1_555 1_555
H44 N5 1_555 1_555
N6 H45 1_555 1_555
H47 N6 1_555 1_555
C5 N5 1_555 1_555
H48 C5 1_555 1_555
H49 C5 1_555 1_555
C6 N6 1_555 1_555
H50 C6 1_555 1_555
H51 C6 1_555 1_555
C5 C6 1_555 1_555
N5_2 H43_2 1_555 1_555
H44_2 N5_2 1_555 1_555
N6_2 H45_2 1_555 1_555
H47_2 N6_2 1_555 1_555
C5_2 N5_2 1_555 1_555
H48_2 C5_2 1_555 1_555
H49_2 C5_2 1_555 1_555
C6_2 N6_2 1_555 1_555
H50_2 C6_2 1_555 1_555
H51_2 C6_2 1_555 1_555
C5_2 C6_2 1_555 1_555
H59 C7 1_555 1_555
H60 C8 1_555 1_555
H61 C8 1_555 1_555
C7 C8 1_555 1_555
N7 H52 1_555 1_555
H53 N7 1_555 1_555
H54 N7 1_555 1_555
N8 H55 1_555 1_555
H57 N8 1_555 1_555
N7_2 H52_2 1_555 1_555
H53_2 N7_2 1_555 1_555
H54_2 N7_2 1_555 1_555
N8_2 H55_2 1_555 1_555
H57_2 N8_2 1_555 1_555
H59_2 C7_2 1_555 1_555
H60_2 C8_2 1_555 1_555
H61_2 C8_2 1_555 1_555
C7_2 C8_2 1_555 1_555
N9 H62 1_555 1_555
H63 N9 1_555 1_555
H64 N9 1_555 1_555
N10 H65 1_555 1_555
H66 N10 1_555 1_555
H67 N10 1_555 1_555
C9 N9 1_555 1_555
H68 C9 1_555 1_555
H69 C9 1_555 1_555
C10 N10 1_555 1_555
H70 C10 1_555 1_555
H71 C10 1_555 1_555
C9 C10 1_555 1_555
N9_2 H62_2 1_555 1_555
H63_2 N9_2 1_555 1_555
H64_2 N9_2 1_555 1_555
N10_2 H65_2 1_555 1_555
H66_2 N10_2 1_555 1_555
H67_2 N10_2 1_555 1_555
C9_2 N9_2 1_555 1_555
H68_2 C9_2 1_555 1_555
H69_2 C9_2 1_555 1_555
C10_2 N10_2 1_555 1_555
H70_2 C10_2 1_555 1_555
H71_2 C10_2 1_555 1_555
C9_2 C10_2 1_555 1_555

#END
