
###############################################################################
#
# This file contains modified crystal structure data generated from the
# MOF subset of the Cambridge Structural Database (CSD) v543 
# hosted by the Cambridge Crystallographic Data Centre (CCDC).
#
# This work is licensed under the Creative Commons
# Attribution-NonCommercial-ShareAlike 4.0 International License.
# To view a copy of this license, visit
# http://creativecommons.org/licenses/by-nc-sa/4.0/
# or send a letter to
# Creative Commons, PO Box 1866, Mountain View, CA 94042, USA.
#
# CIF created using the CSD Python API on 29 September 2022
# The structure has been converted into the P1 space group
# The structure has a 3D framework
# The original CSD entry OXUWIP is in the orthorhombic crystal system
# The original CSD entry OXUWIP is in a Sohncke space group
# The framework has been calculated to contain at least 10.0% void space
# The void calculation uses a probe of radius 1.32A, grid spacing 0.4
# H atom positions have been added when not included in the experimental data
#
###############################################################################

data_OXUWIP
_chemical_formula_moiety         '(C144 H236 Na4 O124)n'
_symmetry_cell_setting           triclinic
_symmetry_space_group_name_H-M   'P 1'
_symmetry_Int_Tables_number      1
_space_group_name_Hall           'P 1'
loop_
_symmetry_equiv_pos_site_id
_symmetry_equiv_pos_as_xyz
1 x,y,z
_cell_length_a                   11.5783(7)
_cell_length_b                   15.9764(8)
_cell_length_c                   26.6031(15)
_cell_angle_alpha                90
_cell_angle_beta                 90
_cell_angle_gamma                90
_cell_volume                     4921.03
loop_
_atom_site_label
_atom_site_type_symbol
_atom_site_fract_x
_atom_site_fract_y
_atom_site_fract_z
H15 H 0.0495 0.3831 0.3975
O16 O 0.0369(4) 0.4447(3) 0.46153(16)
H48 H 0.0604 0.4920 0.4554
O18 O 0.0073(5) 0.5363(3) 0.36929(19)
H49 H 0.0629 0.5131 0.3562
Na3 Na 0.6792(2) 0.02801(16) 0.34053(10)
C1 C 0.6472(6) 0.3353(4) 0.5056(2)
H1 H 0.6143 0.3898 0.4966
C2 C 0.5392(5) 0.8621(4) 0.3055(2)
H2 H 0.4863 0.9036 0.2912
C3 C 0.6285(6) 0.3627(4) 0.5933(2)
H3 H 0.5906 0.3431 0.6240
C4 C 0.8526(5) 0.6016(4) 0.2603(2)
H4 H 0.8489 0.6138 0.2242
C5 C 0.8662(5) 0.4364(4) 0.3418(2)
H5 H 0.9220 0.4175 0.3165
C6 C 0.3673(5) 0.7417(4) 0.3378(2)
H6 H 0.4124 0.6949 0.3514
C7 C 0.5125(5) 0.8533(4) 0.3607(2)
H7 H 0.5679 0.8141 0.3756
C8 C 0.4991(5) 0.4805(4) 0.6109(2)
H8 H 0.4831 0.4478 0.6413
C9 C 0.6576(5) 0.6652(4) 0.2693(2)
H9 H 0.6530 0.6847 0.2344
C10 C 0.9014(5) 0.3434(4) 0.4337(2)
H10 H 0.9404 0.2999 0.4534
C11 C 0.6069(5) 0.5764(4) 0.2736(2)
H11 H 0.5992 0.5622 0.3092
C12 C 0.7827(5) 0.6693(4) 0.2878(2)
H12 H 0.7843 0.6578 0.3239
C13 C 0.3991(6) 0.7928(4) 0.5315(2)
H13 H 0.4693 0.7747 0.5140
C14 C 0.3928(5) 0.4830(4) 0.5762(2)
H14 H 0.4162 0.5076 0.5441
C15 C 0.9884(5) 0.4094(4) 0.4175(2)
C16 C 0.4913(6) 0.5688(4) 0.2493(3)
H16 H 0.4254 0.5529 0.2668
C17 C 0.7765(5) 0.3428(4) 0.5088(2)
H17 H 0.8106 0.2868 0.5109
C18 C 0.5397(5) 0.5682(4) 0.6244(2)
H18 H 0.5708 0.5945 0.5940
C19 C 0.2789(6) 0.6875(4) 0.4858(2)
H19 H 0.3469 0.6718 0.4659
C20 C 0.3371(6) 0.3998(4) 0.5658(3)
H20 H 0.2787 0.4062 0.5399
H21 H 0.3947 0.3606 0.5537
C21 C 0.2940(5) 0.8237(4) 0.4511(2)
H22 H 0.2509 0.8673 0.4332
C22 C 0.8156(5) 0.3943(4) 0.5534(2)
H23 H 0.7943 0.4529 0.5475
C23 C 0.3417(6) 0.8608(4) 0.5011(2)
H24 H 0.2784 0.8856 0.5204
C24 C 0.9278(6) 0.4748(4) 0.3864(2)
H25 H 0.8701 0.5025 0.4077
C25 C 0.6114(7) 0.2715(5) 0.4673(3)
H26 H 0.6601 0.2304 0.4546
C26 C 0.7971(6) 0.5185(4) 0.2686(2)
H27 H 0.8424 0.4751 0.2516
C27 C 0.1973(7) 0.6149(5) 0.4874(3)
H28 H 0.1485 0.6042 0.5145
C28 C 0.7587(5) 0.3650(4) 0.6015(2)
H29 H 0.7850 0.3079 0.6084
C29 C 0.4423(5) 0.6226(4) 0.6442(2)
H30 H 0.4147 0.5983 0.6758
C30 C 0.3428(5) 0.6201(4) 0.6059(2)
H31 H 0.2782 0.6540 0.6183
C31 C 0.5170(5) 0.7783(4) 0.2798(2)
H32 H 0.5335 0.7833 0.2438
C32 C 0.3933(6) 0.8207(4) 0.3694(2)
H33 H 0.3363 0.8644 0.3621
C33 C 0.2413(5) 0.7172(4) 0.3371(2)
H34 H 0.2321 0.6646 0.3194
H35 H 0.2137 0.7099 0.3712
C34 C 0.7420(6) 0.3145(4) 0.3151(3)
H36 H 0.6873 0.2734 0.3275
H37 H 0.7014 0.3513 0.2921
C35 C 0.3180(5) 0.7179(4) 0.5366(2)
H38 H 0.2509 0.7331 0.5572
C36 C 0.7871(5) 0.3641(4) 0.3580(2)
H39 H 0.7216 0.3873 0.3767
O1 O 0.5999(4) 0.3085(2) 0.55304(15)
O2 O 0.1750(4) 0.7811(3) 0.31247(16)
H40 H 0.1140 0.7881 0.3276
O3 O 0.6317(4) 0.5578(3) 0.65934(18)
H41 H 0.6584 0.6038 0.6666
O4 O 0.8248(4) 0.7513(2) 0.27922(16)
H42 H 0.8797 0.7604 0.2979
O5 O 0.3051(3) 0.5362(2) 0.59838(15)
O6 O 0.4006(3) 0.7552(3) 0.28656(14)
O7 O 0.6543(4) 0.8894(3) 0.29677(16)
O8 O 0.9389(4) 0.3893(3) 0.55874(16)
H43 H 0.9589 0.4153 0.5839
O9 O 0.7932(4) 0.5009(3) 0.32166(15)
O10 O 0.2203(4) 0.7564(3) 0.46097(16)
O11 O 0.7861(4) 0.4146(3) 0.64280(15)
H44 H 0.7523 0.4596 0.6406
O12 O 0.8315(5) 0.2735(3) 0.28923(16)
H45 H 0.8233 0.2805 0.2589
O13 O 0.9699(4) 0.6022(3) 0.27440(16)
H46 H 0.9769 0.5812 0.3024
O14 O 0.4297(4) 0.8240(3) 0.57946(16)
H47 H 0.3711 0.8361 0.5951
O15 O 0.5293(4) 0.9346(3) 0.38329(17)
O17 O 0.4903(4) 0.5880(3) 0.19698(17)
O19 O 0.4221(5) 0.9252(3) 0.48622(16)
H50 H 0.4523 0.9454 0.5113
O20 O 0.3836(3) 0.6536(2) 0.56110(14)
O21 O 0.4950(6) 0.2812(5) 0.4530(3)
H51 H 0.4660 0.2350 0.4483
O22 O 0.2859(5) 0.3685(3) 0.6101(2)
O23 O 0.4723(4) 0.7065(3) 0.65309(15)
H52 H 0.4480 0.7358 0.6301
O24 O 0.8490(4) 0.3070(2) 0.39032(14)
O25 O 0.6825(4) 0.5168(3) 0.25035(15)
O26 O 0.5936(4) 0.4448(2) 0.58309(16)
O27 O 0.8165(3) 0.3839(2) 0.46385(14)
O28 O 0.3898(4) 0.7992(3) 0.42160(14)
O29 O 0.5938(4) 0.7205(2) 0.30156(15)
O30 O 0.2014(10) 0.5646(6) 0.4445(3)
H53 H 0.2183 0.5166 0.4525
Na1 Na 0.1792(2) 0.47199(16) 0.65947(10)
O31 O 0.3129(6) 0.4192(5) 0.7212(3)
H54 H 0.2763 0.4027 0.7506
H55 H 0.3672 0.4585 0.7308
H56 H 0.303(10) 0.317(2) 0.614(3)
O32 O 0.1543(4) 0.6106(3) 0.70323(16)
O33 O 0.0293(4) 0.5654(3) 0.61671(17)
O34 O 0.0097(4) 0.4120(3) 0.69698(17)
Na2 Na 0.3208(2) 0.52801(16) 0.15947(10)
H57 H 0.637674 0.313686 0.437249
H58 H 0.509126 0.503461 0.240594
H59 H 0.13051 0.6532 0.470032
C8_2 C 0.0009(5) 0.5195(4) 0.1109(2)
H8_2 H 0.0169 0.5522 0.1413
C13_2 C 0.1009(6) 0.2072(4) 0.0315(2)
H13_2 H 0.0307 0.2253 0.0140
C14_2 C 0.1072(5) 0.5170(4) 0.0762(2)
H14_2 H 0.0838 0.4924 0.0441
C20_2 C 0.1629(6) 0.6002(4) 0.0658(3)
H20_2 H 0.2213 0.5938 0.0399
H21_2 H 0.1053 0.6394 0.0537
C23_2 C 0.1583(6) 0.1392(4) 0.0011(2)
H24_2 H 0.2216 0.1144 0.0204
H28_2 H 0.3515 0.3958 0.0145
C29_2 C 0.0577(5) 0.3774(4) 0.1442(2)
H30_2 H 0.0853 0.4017 0.1758
C30_2 C 0.1572(5) 0.3799(4) 0.1059(2)
H31_2 H 0.2218 0.3460 0.1183
C35_2 C 0.1820(5) 0.2821(4) 0.0366(2)
H38_2 H 0.2491 0.2669 0.0572
O5_2 O 0.1949(3) 0.4638(2) 0.09838(15)
O14_2 O 0.0703(4) 0.1760(3) 0.07946(16)
H47_2 H 0.1289 0.1639 0.0951
H50_2 H 0.0477 0.0546 0.0113
O20_2 O 0.1164(3) 0.3464(2) 0.06110(14)
O22_2 O 0.2141(5) 0.6315(3) 0.1101(2)
O23_2 O 0.0277(4) 0.2935(3) 0.15309(15)
H52_2 H 0.0520 0.2642 0.1301
O31_2 O 0.1871(6) 0.5808(5) 0.2212(3)
H54_2 H 0.2237 0.5973 0.2506
H55_2 H 0.1328 0.5415 0.2308
H56_2 H 0.197(10) 0.683(2) 0.114(3)
O32_2 O 0.3457(4) 0.3894(3) 0.20323(16)
O33_2 O 0.4707(4) 0.4346(3) 0.11671(17)
H2_2 H 0.0137 0.0964 0.7912
C6_2 C 0.1327(5) 0.2583(4) 0.8378(2)
H6_2 H 0.0876 0.3051 0.8514
C16_2 C 0.0087(6) 0.4312(4) 0.7493(3)
H16_2 H 0.0746 0.4471 0.7668
C19_2 C 0.2211(6) 0.3125(4) 0.9858(2)
H19_2 H 0.1531 0.3282 0.9659
C21_2 C 0.2060(5) 0.1763(4) 0.9511(2)
H22_2 H 0.2491 0.1327 0.9332
C27_2 C 0.3027(7) 0.3851(5) 0.9874(3)
C32_2 C 0.1067(6) 0.1793(4) 0.8694(2)
H33_2 H 0.1637 0.1356 0.8621
C33_2 C 0.2587(5) 0.2828(4) 0.8371(2)
H34_2 H 0.2679 0.3354 0.8194
H35_2 H 0.2863 0.2901 0.8712
O2_2 O 0.3250(4) 0.2189(3) 0.81247(16)
H40_2 H 0.3860 0.2119 0.8276
O6_2 O 0.0994(3) 0.2448(3) 0.78656(14)
O10_2 O 0.2797(4) 0.2436(3) 0.96097(16)
O19_2 O 0.0779(5) 0.0748(3) 0.98622(16)
O21_2 O 0.0050(6) 0.7188(5) 0.9530(3)
H51_2 H 0.0340 0.7650 0.9483
O28_2 O 0.1102(4) 0.2008(3) 0.92160(14)
O30_2 O 0.2986(10) 0.4354(6) 0.9445(3)
H53_2 H 0.2817 0.4834 0.9525
H59_2 H 0.36949 0.3468 0.970032
Na3_2 Na 0.8208(2) 0.97199(16) 0.84053(10)
C2_2 C 0.4608(5) 0.3621(4) 0.1945(2)
H2_3 H 0.5137 0.4036 0.2088
C4_2 C 0.1474(5) 0.1016(4) 0.2397(2)
H4_2 H 0.1511 0.1138 0.2758
C6_3 C 0.6327(5) 0.2417(4) 0.1622(2)
H6_3 H 0.5876 0.1949 0.1486
C7_2 C 0.4875(5) 0.3533(4) 0.1393(2)
H7_2 H 0.4321 0.3141 0.1244
C9_2 C 0.3424(5) 0.1652(4) 0.2307(2)
H9_2 H 0.3470 0.1847 0.2656
C11_2 C 0.3931(5) 0.0764(4) 0.2264(2)
H11_2 H 0.4008 0.0622 0.1908
C12_2 C 0.2173(5) 0.1693(4) 0.2122(2)
H12_2 H 0.2157 0.1578 0.1761
C16_3 C 0.5087(6) 0.0688(4) 0.2507(3)
H16_3 H 0.5746 0.0529 0.2332
C19_3 C 0.7211(6) 0.1875(4) 0.0142(2)
H19_3 H 0.6531 0.1718 0.0341
C21_3 C 0.7060(5) 0.3237(4) 0.0489(2)
H22_3 H 0.7491 0.3673 0.0668
H25_2 H 0.1299 0.0025 0.0923
C26_2 C 0.2029(6) 0.0185(4) 0.2314(2)
C27_3 C 0.8027(7) 0.1149(5) 0.0126(3)
C31_2 C 0.4830(5) 0.2783(4) 0.2202(2)
H32_2 H 0.4665 0.2833 0.2562
C32_3 C 0.6067(6) 0.3207(4) 0.1306(2)
H33_3 H 0.6637 0.3644 0.1379
C33_3 C 0.7587(5) 0.2172(4) 0.1629(2)
H34_3 H 0.7679 0.1646 0.1806
H35_3 H 0.7863 0.2099 0.1288
O2_3 O 0.8250(4) 0.2811(3) 0.18753(16)
H40_3 H 0.8860 0.2881 0.1724
O4_2 O 0.1752(4) 0.2513(2) 0.22078(16)
H42_2 H 0.1203 0.2604 0.2021
O6_3 O 0.5994(3) 0.2552(3) 0.21344(14)
O9_2 O 0.2068(4) 0.0009(3) 0.17834(15)
O10_3 O 0.7797(4) 0.2564(3) 0.03903(16)
O13_2 O 0.0301(4) 0.1022(3) 0.22560(16)
H46_2 H 0.0231 0.0812 0.1976
O17_2 O 0.5097(4) 0.0880(3) 0.30302(17)
O19_3 O 0.5779(5) 0.4252(3) 0.01378(16)
O25_2 O 0.3175(4) 0.0168(3) 0.24965(15)
O28_3 O 0.6102(4) 0.2992(3) 0.07840(14)
O29_2 O 0.4062(4) 0.2205(2) 0.19844(15)
O30_3 O 0.7986(10) 0.0646(6) 0.0555(3)
H53_3 H 0.7817 0.0166 0.0475
H58_2 H 0.490874 0.0034614 0.259406
H59_3 H 0.86949 0.1532 0.0299676
C1_2 C 0.3528(6) 0.8353(4) 0.9944(2)
C3_2 C 0.3715(6) 0.8627(4) 0.9067(2)
H3_2 H 0.4094 0.8431 0.8760
C8_3 C 0.5009(5) 0.9805(4) 0.8891(2)
H8_3 H 0.5169 0.9478 0.8587
C14_3 C 0.6072(5) 0.9830(4) 0.9238(2)
C17_2 C 0.2235(5) 0.8428(4) 0.9912(2)
H17_2 H 0.1894 0.7868 0.9891
C20_3 C 0.6629(6) 0.8998(4) 0.9342(3)
H20_3 H 0.7213 0.9062 0.9601
H21_3 H 0.6053 0.8606 0.9463
C22_2 C 0.1844(5) 0.8943(4) 0.9466(2)
H23_2 H 0.2057 0.9529 0.9525
C28_2 C 0.2413(5) 0.8650(4) 0.8985(2)
H29_2 H 0.2150 0.8079 0.8916
O1_2 O 0.4001(4) 0.8085(2) 0.94696(15)
O8_2 O 0.0611(4) 0.8893(3) 0.94126(16)
H43_2 H 0.0411 0.9153 0.9161
O11_2 O 0.2139(4) 0.9146(3) 0.85720(15)
H44_2 H 0.2477 0.9596 0.8594
O22_3 O 0.7141(5) 0.8685(3) 0.8899(2)
O26_2 O 0.4064(4) 0.9448(2) 0.91691(16)
O31_3 O 0.6871(6) 0.9192(5) 0.7788(3)
H54_3 H 0.7237 0.9027 0.7494
H55_3 H 0.6328 0.9585 0.7692
H56_3 H 0.697(10) 0.817(2) 0.886(3)
O34_2 O 0.9903(4) 0.9120(3) 0.80302(17)
C2_3 C 0.0392(5) 0.6379(4) 0.6945(2)
C4_3 C 0.3526(5) 0.8984(4) 0.7397(2)
H4_3 H 0.3489 0.8862 0.7758
C7_3 C 0.0125(5) 0.6467(4) 0.6393(2)
H7_3 H 0.0679 0.6859 0.6244
C9_3 C 0.1576(5) 0.8348(4) 0.7307(2)
H9_3 H 0.1530 0.8153 0.7656
C11_3 C 0.1069(5) 0.9236(4) 0.7264(2)
H11_3 H 0.0992 0.9378 0.6908
C12_3 C 0.2827(5) 0.8307(4) 0.7122(2)
H12_3 H 0.2843 0.8422 0.6761
C18_2 C 0.0397(5) 0.9318(4) 0.3756(2)
H18_2 H 0.0708 0.9055 0.4060
H25_3 H 0.3701 0.9975 0.5923
C26_3 C 0.2971(6) 0.9815(4) 0.7314(2)
C31_3 C 0.0170(5) 0.7217(4) 0.7202(2)
H32_3 H 0.0335 0.7167 0.7562
O3_2 O 0.1317(4) 0.9422(3) 0.34066(18)
H41_2 H 0.1584 0.8962 0.3334
O4_3 O 0.3248(4) 0.7487(2) 0.72078(16)
H42_3 H 0.3797 0.7396 0.7021
O9_3 O 0.2932(4) 0.9991(3) 0.67834(15)
O13_3 O 0.4699(4) 0.8978(3) 0.72560(16)
H46_3 H 0.4769 0.9188 0.6976
O18_2 O 0.5073(5) 0.9637(3) 0.63071(19)
H49_2 H 0.5629 0.9869 0.6438
O25_3 O 0.1825(4) 0.9832(3) 0.74965(15)
O29_3 O 0.0938(4) 0.7795(2) 0.69844(15)
H58_3 H 0.00912607 0.996539 0.759406
C8_4 C 0.9991(5) 0.0195(4) 0.3891(2)
H8_4 H 0.9831 0.0522 0.3587
C14_4 C 0.8928(5) 0.0170(4) 0.4238(2)
C20_4 C 0.8371(6) 0.1002(4) 0.4342(3)
H20_4 H 0.7787 0.0938 0.4601
H21_4 H 0.8947 0.1394 0.4463
O21_3 O 0.9950(6) 0.2188(5) 0.5470(3)
H51_3 H 0.9660 0.2650 0.5517
O22_4 O 0.7859(5) 0.1315(3) 0.3899(2)
O31_4 O 0.8129(6) 0.0808(5) 0.2788(3)
H54_4 H 0.7763 0.0973 0.2494
H55_4 H 0.8672 0.0415 0.2692
H56_4 H 0.803(10) 0.183(2) 0.386(3)
H2_4 H 0.9863 0.5964 0.7088
C6_4 C 0.8673(5) 0.7583(4) 0.6622(2)
H6_4 H 0.9124 0.8051 0.6486
C13_3 C 0.8991(6) 0.7072(4) 0.4685(2)
H13_3 H 0.9693 0.7253 0.4860
H14_3 H 0.9162 0.9924 0.4559
C16_4 C 0.9913(6) 0.9312(4) 0.7507(3)
H16_4 H 0.9254 0.9471 0.7332
C19_4 C 0.7789(6) 0.8125(4) 0.5142(2)
H19_4 H 0.8469 0.8282 0.5341
C21_4 C 0.7940(5) 0.6763(4) 0.5489(2)
H22_4 H 0.7509 0.6327 0.5668
C23_3 C 0.8417(6) 0.6392(4) 0.4989(2)
H24_3 H 0.7784 0.6144 0.4796
C27_4 C 0.6973(7) 0.8851(5) 0.5126(3)
H28_3 H 0.6485 0.8958 0.4855
C29_3 C 0.9423(5) 0.8774(4) 0.3558(2)
H30_3 H 0.9147 0.9017 0.3242
C30_3 C 0.8428(5) 0.8799(4) 0.3941(2)
H31_3 H 0.7782 0.8460 0.3817
C32_4 C 0.8933(6) 0.6793(4) 0.6306(2)
H33_4 H 0.8363 0.6356 0.6379
C33_4 C 0.7413(5) 0.7828(4) 0.6629(2)
H34_4 H 0.7321 0.8354 0.6806
H35_4 H 0.7137 0.7901 0.6288
C35_3 C 0.8180(5) 0.7821(4) 0.4634(2)
H38_3 H 0.7509 0.7669 0.4428
O2_4 O 0.6750(4) 0.7189(3) 0.68753(16)
H40_4 H 0.6140 0.7119 0.6724
O5_3 O 0.8051(3) 0.9638(2) 0.40162(15)
O6_4 O 0.9006(3) 0.7448(3) 0.71344(14)
O10_4 O 0.7203(4) 0.7436(3) 0.53903(16)
O14_3 O 0.9297(4) 0.6760(3) 0.42054(16)
H47_3 H 0.8711 0.6639 0.4049
O19_4 O 0.9221(5) 0.5748(3) 0.51378(16)
H50_3 H 0.9523 0.5546 0.4887
O20_3 O 0.8836(3) 0.8464(2) 0.43890(14)
O23_3 O 0.9723(4) 0.7935(3) 0.34691(15)
H52_3 H 0.9480 0.7642 0.3699
O28_4 O 0.8898(4) 0.7008(3) 0.57840(14)
O30_4 O 0.7014(10) 0.9354(6) 0.5555(3)
H53_4 H 0.7183 0.9834 0.5475
H59_4 H 0.63051 0.8468 0.529968
C1_3 C 0.8528(6) 0.6647(4) 0.0056(2)
C3_3 C 0.8715(6) 0.6373(4) 0.0933(2)
H3_3 H 0.9094 0.6569 0.1240
C17_3 C 0.7235(5) 0.6572(4) 0.0088(2)
H17_3 H 0.6894 0.7132 0.0109
C18_3 C 0.9603(5) 0.4318(4) 0.1244(2)
H18_3 H 0.9292 0.4055 0.0940
C22_3 C 0.6844(5) 0.6057(4) 0.0534(2)
H23_3 H 0.7057 0.5471 0.0475
C28_3 C 0.7413(5) 0.6350(4) 0.1015(2)
H29_3 H 0.7150 0.6921 0.1084
O1_3 O 0.9001(4) 0.6915(2) 0.05304(15)
O3_3 O 0.8683(4) 0.4422(3) 0.15934(18)
H41_3 H 0.8416 0.3962 0.1666
O8_3 O 0.5611(4) 0.6107(3) 0.05874(16)
H43_3 H 0.5411 0.5847 0.0839
O11_3 O 0.7139(4) 0.5854(3) 0.14280(15)
H44_3 H 0.7477 0.5404 0.1406
O26_3 O 0.9064(4) 0.5552(2) 0.08309(16)
H1_2 H 0.8857 0.6102 0.9966
C2_4 C 0.9608(5) 0.1379(4) 0.8055(2)
C4_4 C 0.6474(5) 0.3984(4) 0.7603(2)
H4_4 H 0.6511 0.3862 0.7242
C5_2 C 0.6338(5) 0.5636(4) 0.8418(2)
H5_2 H 0.5780 0.5825 0.8165
C7_4 C 0.9875(5) 0.1467(4) 0.8607(2)
H7_4 H 0.9321 0.1859 0.8756
C9_4 C 0.8424(5) 0.3348(4) 0.7693(2)
H9_4 H 0.8470 0.3153 0.7344
C10_2 C 0.5986(5) 0.6566(4) 0.9337(2)
H10_2 H 0.5596 0.7001 0.9534
C11_4 C 0.8931(5) 0.4236(4) 0.7736(2)
H11_4 H 0.9008 0.4378 0.8092
C12_4 C 0.7173(5) 0.3307(4) 0.7878(2)
H12_4 H 0.7157 0.3422 0.8239
C15_2 C 0.5116(5) 0.5906(4) 0.9175(2)
H15_2 H 0.4505 0.6169 0.8975
C24_2 C 0.5722(6) 0.5252(4) 0.8864(2)
H25_4 H 0.6299 0.4975 0.9077
C25_2 C 0.8886(7) 0.7285(5) 0.9673(3)
H26_2 H 0.8399 0.7696 0.9546
C26_4 C 0.7029(6) 0.4815(4) 0.7686(2)
H27_2 H 0.6576 0.5249 0.7516
C31_4 C 0.9830(5) 0.2217(4) 0.7798(2)
H32_4 H 0.9665 0.2167 0.7438
C34_2 C 0.7580(6) 0.6855(4) 0.8151(3)
H36_2 H 0.8127 0.7266 0.8275
H37_2 H 0.7986 0.6487 0.7921
C36_2 C 0.7129(5) 0.6359(4) 0.8580(2)
H39_2 H 0.7784 0.6127 0.8767
O4_4 O 0.6752(4) 0.2487(2) 0.77922(16)
H42_4 H 0.6203 0.2396 0.7979
O7_2 O 0.8457(4) 0.1106(3) 0.79677(16)
O9_4 O 0.7068(4) 0.4991(3) 0.82166(15)
O12_2 O 0.6685(5) 0.7265(3) 0.78923(16)
H45_2 H 0.6767 0.7195 0.7589
O13_4 O 0.5301(4) 0.3978(3) 0.77440(16)
H46_4 H 0.5231 0.4188 0.8024
O15_2 O 0.9707(4) 0.0654(3) 0.88329(17)
O16_2 O 0.4631(4) 0.5553(3) 0.96153(16)
H48_2 H 0.4396 0.5080 0.9554
O18_3 O 0.4927(5) 0.4637(3) 0.86929(19)
H49_3 H 0.4371 0.4869 0.8562
O24_2 O 0.6510(4) 0.6930(2) 0.89032(14)
O25_4 O 0.8175(4) 0.4832(3) 0.75035(15)
O27_2 O 0.6835(3) 0.6161(2) 0.96385(14)
O29_4 O 0.9062(4) 0.2795(2) 0.80156(15)
H57_2 H 0.862326 0.686314 0.937249
H58_4 H 0.990874 0.496539 0.740594
C13_4 C 0.6009(6) 0.2928(4) 0.9685(2)
H13_4 H 0.5307 0.2747 0.9860
H14_4 H 0.5838 0.0076 0.9559
C18_4 C 0.4603(5) 0.0682(4) 0.8756(2)
H18_4 H 0.4292 0.0945 0.9060
C23_4 C 0.6583(6) 0.3608(4) 0.9989(2)
H24_4 H 0.7216 0.3856 0.9796
H28_4 H 0.8515 0.1042 0.9855
C29_4 C 0.5577(5) 0.1226(4) 0.8558(2)
H30_4 H 0.5853 0.0983 0.8242
C30_4 C 0.6572(5) 0.1201(4) 0.8941(2)
H31_4 H 0.7218 0.1540 0.8817
C35_4 C 0.6820(5) 0.2179(4) 0.9634(2)
H38_4 H 0.7491 0.2331 0.9428
O3_4 O 0.3683(4) 0.0578(3) 0.84066(18)
H41_4 H 0.3416 0.1038 0.8334
O5_4 O 0.6949(3) 0.0362(2) 0.90162(15)
O14_4 O 0.5703(4) 0.3240(3) 0.92054(16)
H47_4 H 0.6289 0.3361 0.9049
H50_4 H 0.5477 0.4454 0.9887
O20_4 O 0.6164(3) 0.1536(2) 0.93890(14)
O23_4 O 0.5277(4) 0.2065(3) 0.84691(15)
H52_4 H 0.5520 0.2358 0.8699
H1_3 H 0.3857 0.8898 0.0034
C5_3 C 0.1338(5) 0.9364(4) 0.1582(2)
H5_3 H 0.0780 0.9175 0.1835
C10_3 C 0.0986(5) 0.8434(4) 0.0663(2)
H10_3 H 0.0596 0.7999 0.0466
C15_3 C 0.0116(5) 0.9094(4) 0.0825(2)
C24_3 C 0.0722(6) 0.9748(4) 0.1136(2)
C25_3 C 0.3886(7) 0.7715(5) 0.0327(3)
H26_3 H 0.3399 0.7304 0.0454
H27_3 H 0.1576 0.9751 0.2484
C34_3 C 0.2580(6) 0.8145(4) 0.1849(3)
H36_3 H 0.3127 0.7734 0.1725
H37_3 H 0.2986 0.8513 0.2079
C36_3 C 0.2129(5) 0.8641(4) 0.1420(2)
H39_3 H 0.2784 0.8873 0.1233
O12_3 O 0.1685(5) 0.7735(3) 0.21077(16)
H45_3 H 0.1767 0.7805 0.2411
O21_4 O 0.5050(6) 0.7812(5) 0.0470(3)
H51_4 H 0.5340 0.7350 0.0517
O24_3 O 0.1510(4) 0.8070(2) 0.10968(14)
O27_3 O 0.1835(3) 0.8839(2) 0.03615(14)
H57_3 H 0.362326 0.813686 0.0627513
O18_4 O 0.9927(5) 0.0363(3) 0.13071(19)
H49_4 H 0.9371 0.0131 0.1438
H15_3 H 0.9505 0.8831 0.1025
O16_3 O 0.9631(4) 0.9447(3) 0.03847(16)
H48_3 H 0.9396 0.9920 0.0446
C1_4 C 0.1472(6) 0.1647(4) 0.4944(2)
H1_4 H 0.1143 0.1102 0.5034
C3_4 C 0.1285(6) 0.1373(4) 0.4067(2)
H3_4 H 0.0906 0.1569 0.3760
C5_4 C 0.3662(5) 0.0636(4) 0.6582(2)
H5_4 H 0.4220 0.0825 0.6835
C10_4 C 0.4014(5) 0.1566(4) 0.5663(2)
H10_4 H 0.4404 0.2001 0.5466
C15_4 C 0.4884(5) 0.0906(4) 0.5825(2)
H15_4 H 0.5495 0.1169 0.6025
C17_4 C 0.2765(5) 0.1572(4) 0.4912(2)
H17_4 H 0.3106 0.2132 0.4891
C22_4 C 0.3156(5) 0.1057(4) 0.4466(2)
H23_4 H 0.2943 0.0471 0.4525
C24_4 C 0.4278(6) 0.0252(4) 0.6136(2)
C25_4 C 0.1114(7) 0.2285(5) 0.5327(3)
H26_4 H 0.1601 0.2696 0.5454
H27_4 H 0.3424 0.0249 0.7484
C28_4 C 0.2587(5) 0.1350(4) 0.3985(2)
H29_4 H 0.2850 0.1921 0.3916
C34_4 C 0.2420(6) 0.1855(4) 0.6849(3)
H36_4 H 0.1873 0.2266 0.6725
H37_4 H 0.2014 0.1487 0.7079
C36_4 C 0.2871(5) 0.1359(4) 0.6420(2)
H39_4 H 0.2216 0.1127 0.6233
O1_4 O 0.0999(4) 0.1915(2) 0.44696(15)
O8_4 O 0.4389(4) 0.1107(3) 0.44126(16)
H43_4 H 0.4589 0.0847 0.4161
O11_4 O 0.2861(4) 0.0854(3) 0.35720(15)
H44_4 H 0.2523 0.0404 0.3594
O12_4 O 0.3315(5) 0.2265(3) 0.71077(16)
H45_4 H 0.3233 0.2195 0.7411
O16_4 O 0.5369(4) 0.0553(3) 0.53847(16)
H48_4 H 0.5604 0.0080 0.5446
O24_4 O 0.3490(4) 0.1930(2) 0.60968(14)
O26_4 O 0.0936(4) 0.0552(2) 0.41691(16)
O27_4 O 0.3165(3) 0.1161(2) 0.53615(14)
H57_4 H 0.137674 0.186314 0.562751
loop_
_geom_bond_atom_site_label_1
_geom_bond_atom_site_label_2
_geom_bond_site_symmetry_1
_geom_bond_site_symmetry_2
H48 O16 1_555 1_555
H49 O18 1_555 1_555
C1 H1 1_555 1_555
C2 H2 1_555 1_555
C3 H3 1_555 1_555
C4 H4 1_555 1_555
C5 H5 1_555 1_555
C6 H6 1_555 1_555
C7 C2 1_555 1_555
H7 C7 1_555 1_555
C8 H8 1_555 1_555
C9 H9 1_555 1_555
C10 H10 1_555 1_555
C11 C9 1_555 1_555
H11 C11 1_555 1_555
C12 C4 1_555 1_555
H12 C12 1_555 1_555
C13 H13 1_555 1_555
C14 C8 1_555 1_555
H14 C14 1_555 1_555
C15 C10 1_555 1_555
C16 C11 1_555 1_555
H16 C16 1_555 1_555
C17 C1 1_555 1_555
H17 C17 1_555 1_555
C18 C8 1_555 1_555
H18 C18 1_555 1_555
C19 H19 1_555 1_555
C20 C14 1_555 1_555
H20 C20 1_555 1_555
H21 C20 1_555 1_555
C21 H22 1_555 1_555
C22 C17 1_555 1_555
H23 C22 1_555 1_555
C23 C13 1_555 1_555
H24 C23 1_555 1_555
C24 C5 1_555 1_555
H25 C24 1_555 1_555
C25 C1 1_555 1_555
H26 C25 1_555 1_555
C26 C4 1_555 1_555
H27 C26 1_555 1_555
C27 C19 1_555 1_555
H28 C27 1_555 1_555
C28 C3 1_555 1_555
H29 C28 1_555 1_555
C29 C18 1_555 1_555
H30 C29 1_555 1_555
C30 C29 1_555 1_555
H31 C30 1_555 1_555
C31 C2 1_555 1_555
H32 C31 1_555 1_555
C32 C6 1_555 1_555
H33 C32 1_555 1_555
C33 C6 1_555 1_555
H34 C33 1_555 1_555
H35 C33 1_555 1_555
C34 H36 1_555 1_555
H37 C34 1_555 1_555
C35 C13 1_555 1_555
H38 C35 1_555 1_555
C36 C5 1_555 1_555
H39 C36 1_555 1_555
O1 C1 1_555 1_555
O2 C33 1_555 1_555
H40 O2 1_555 1_555
O3 C18 1_555 1_555
H41 O3 1_555 1_555
O4 C12 1_555 1_555
H42 O4 1_555 1_555
O5 C14 1_555 1_555
O6 C6 1_555 1_555
O7 C2 1_555 1_555
O8 C22 1_555 1_555
H43 O8 1_555 1_555
O9 C5 1_555 1_555
O10 C19 1_555 1_555
O11 C28 1_555 1_555
H44 O11 1_555 1_555
O12 C34 1_555 1_555
H45 O12 1_555 1_555
O13 C4 1_555 1_555
H46 O13 1_555 1_555
O14 C13 1_555 1_555
H47 O14 1_555 1_555
O15 C7 1_555 1_555
O17 C16 1_555 1_555
O19 C23 1_555 1_555
H50 O19 1_555 1_555
O20 C30 1_555 1_555
O21 C25 1_555 1_555
H51 O21 1_555 1_555
O22 C20 1_555 1_555
O23 C29 1_555 1_555
H52 O23 1_555 1_555
O24 C10 1_555 1_555
O25 C11 1_555 1_555
O26 C3 1_555 1_555
O27 C10 1_555 1_555
O28 C21 1_555 1_555
O29 C9 1_555 1_555
O30 C27 1_555 1_555
H53 O30 1_555 1_555
Na1 O5 1_555 1_555
O31 Na1 1_555 1_555
H54 O31 1_555 1_555
H55 O31 1_555 1_555
H56 O22 1_555 1_555
O32 Na1 1_555 1_555
O33 Na1 1_555 1_555
O34 Na1 1_555 1_555
Na2 O17 1_555 1_555
C3 O1 1_555 1_555
C7 C32 1_555 1_555
C8 O26 1_555 1_555
C9 C12 1_555 1_555
C15 C24 1_555 1_555
C17 O27 1_555 1_555
C19 C35 1_555 1_555
C21 C23 1_555 1_555
C21 O10 1_555 1_555
C22 C28 1_555 1_555
C26 O9 1_555 1_555
C26 O25 1_555 1_555
C30 O5 1_555 1_555
C31 O6 1_555 1_555
C31 O29 1_555 1_555
C32 O28 1_555 1_555
C34 C36 1_555 1_555
C35 O20 1_555 1_555
C36 O24 1_555 1_555
O22 Na1 1_555 1_555
C25 H57 1_555 1_555
C16 H58 1_555 1_555
C27 H59 1_555 1_555
C8_2 H8_2 1_555 1_555
C13_2 H13_2 1_555 1_555
C14_2 C8_2 1_555 1_555
H14_2 C14_2 1_555 1_555
C20_2 C14_2 1_555 1_555
H20_2 C20_2 1_555 1_555
H21_2 C20_2 1_555 1_555
C23_2 C13_2 1_555 1_555
H24_2 C23_2 1_555 1_555
H30_2 C29_2 1_555 1_555
C30_2 C29_2 1_555 1_555
H31_2 C30_2 1_555 1_555
C35_2 C13_2 1_555 1_555
H38_2 C35_2 1_555 1_555
O5_2 C14_2 1_555 1_555
O14_2 C13_2 1_555 1_555
H47_2 O14_2 1_555 1_555
O20_2 C30_2 1_555 1_555
O22_2 C20_2 1_555 1_555
O23_2 C29_2 1_555 1_555
H52_2 O23_2 1_555 1_555
Na2 O5_2 1_555 1_555
O31_2 Na2 1_555 1_555
H54_2 O31_2 1_555 1_555
H55_2 O31_2 1_555 1_555
H56_2 O22_2 1_555 1_555
O32_2 Na2 1_555 1_555
O33_2 Na2 1_555 1_555
C30_2 O5_2 1_555 1_555
C35_2 O20_2 1_555 1_555
O22_2 Na2 1_555 1_555
C6_2 H6_2 1_555 1_555
H16_2 C16_2 1_555 1_555
C19_2 H19_2 1_555 1_555
C21_2 H22_2 1_555 1_555
C27_2 C19_2 1_555 1_555
C32_2 C6_2 1_555 1_555
H33_2 C32_2 1_555 1_555
C33_2 C6_2 1_555 1_555
H34_2 C33_2 1_555 1_555
H35_2 C33_2 1_555 1_555
O2_2 C33_2 1_555 1_555
H40_2 O2_2 1_555 1_555
O6_2 C6_2 1_555 1_555
O10_2 C19_2 1_555 1_555
O34 C16_2 1_555 1_555
H51_2 O21_2 1_555 1_555
O28_2 C21_2 1_555 1_555
O30_2 C27_2 1_555 1_555
H53_2 O30_2 1_555 1_555
C21_2 O10_2 1_555 1_555
C32_2 O28_2 1_555 1_555
C27_2 H59_2 1_555 1_555
C2_2 H2_3 1_555 1_555
C4_2 H4_2 1_555 1_555
C6_3 H6_3 1_555 1_555
C7_2 C2_2 1_555 1_555
H7_2 C7_2 1_555 1_555
C9_2 H9_2 1_555 1_555
C11_2 C9_2 1_555 1_555
H11_2 C11_2 1_555 1_555
C12_2 C4_2 1_555 1_555
H12_2 C12_2 1_555 1_555
C16_3 C11_2 1_555 1_555
H16_3 C16_3 1_555 1_555
C19_3 H19_3 1_555 1_555
C21_3 H22_3 1_555 1_555
C26_2 C4_2 1_555 1_555
C27_3 C19_3 1_555 1_555
C31_2 C2_2 1_555 1_555
H32_2 C31_2 1_555 1_555
C32_3 C6_3 1_555 1_555
H33_3 C32_3 1_555 1_555
C33_3 C6_3 1_555 1_555
H34_3 C33_3 1_555 1_555
H35_3 C33_3 1_555 1_555
O2_3 C33_3 1_555 1_555
H40_3 O2_3 1_555 1_555
O4_2 C12_2 1_555 1_555
H42_2 O4_2 1_555 1_555
O6_3 C6_3 1_555 1_555
O32_2 C2_2 1_555 1_555
O10_3 C19_3 1_555 1_555
O13_2 C4_2 1_555 1_555
H46_2 O13_2 1_555 1_555
O33_2 C7_2 1_555 1_555
O17_2 C16_3 1_555 1_555
O25_2 C11_2 1_555 1_555
O28_3 C21_3 1_555 1_555
O29_2 C9_2 1_555 1_555
O30_3 C27_3 1_555 1_555
H53_3 O30_3 1_555 1_555
Na3 O17_2 1_555 1_555
C7_2 C32_3 1_555 1_555
C9_2 C12_2 1_555 1_555
C21_3 O10_3 1_555 1_555
C26_2 O9_2 1_555 1_555
C26_2 O25_2 1_555 1_555
C31_2 O6_3 1_555 1_555
C31_2 O29_2 1_555 1_555
C32_3 O28_3 1_555 1_555
C16_3 H58_2 1_555 1_555
C27_3 H59_3 1_555 1_555
C3_2 H3_2 1_555 1_555
C8_3 H8_3 1_555 1_555
C14_3 C8_3 1_555 1_555
C17_2 C1_2 1_555 1_555
H17_2 C17_2 1_555 1_555
C20_3 C14_3 1_555 1_555
H20_3 C20_3 1_555 1_555
H21_3 C20_3 1_555 1_555
C22_2 C17_2 1_555 1_555
H23_2 C22_2 1_555 1_555
C28_2 C3_2 1_555 1_555
H29_2 C28_2 1_555 1_555
O1_2 C1_2 1_555 1_555
O8_2 C22_2 1_555 1_555
H43_2 O8_2 1_555 1_555
O11_2 C28_2 1_555 1_555
H44_2 O11_2 1_555 1_555
O22_3 C20_3 1_555 1_555
O26_2 C3_2 1_555 1_555
O31_3 Na3_2 1_555 1_555
H54_3 O31_3 1_555 1_555
H55_3 O31_3 1_555 1_555
H56_3 O22_3 1_555 1_555
O34_2 Na3_2 1_555 1_555
C3_2 O1_2 1_555 1_555
C8_3 O26_2 1_555 1_555
C22_2 C28_2 1_555 1_555
O22_3 Na3_2 1_555 1_555
C4_3 H4_3 1_555 1_555
C7_3 C2_3 1_555 1_555
H7_3 C7_3 1_555 1_555
C9_3 H9_3 1_555 1_555
C11_3 C9_3 1_555 1_555
H11_3 C11_3 1_555 1_555
C12_3 C4_3 1_555 1_555
H12_3 C12_3 1_555 1_555
H18_2 C18_2 1_555 1_555
C26_3 C4_3 1_555 1_555
C31_3 C2_3 1_555 1_555
H32_3 C31_3 1_555 1_555
O3_2 C18_2 1_555 1_555
H41_2 O3_2 1_555 1_555
O4_3 C12_3 1_555 1_555
H42_3 O4_3 1_555 1_555
O32 C2_3 1_555 1_555
O13_3 C4_3 1_555 1_555
H46_3 O13_3 1_555 1_555
O33 C7_3 1_555 1_555
H49_2 O18_2 1_555 1_555
O25_3 C11_3 1_555 1_555
O29_3 C9_3 1_555 1_555
C9_3 C12_3 1_555 1_555
C26_3 O9_3 1_555 1_555
C26_3 O25_3 1_555 1_555
C31_3 O29_3 1_555 1_555
C8_4 H8_4 1_555 1_555
C14_4 C8_4 1_555 1_555
C20_4 C14_4 1_555 1_555
H20_4 C20_4 1_555 1_555
H21_4 C20_4 1_555 1_555
H51_3 O21_3 1_555 1_555
O22_4 C20_4 1_555 1_555
O31_4 Na3 1_555 1_555
H54_4 O31_4 1_555 1_555
H55_4 O31_4 1_555 1_555
H56_4 O22_4 1_555 1_555
O22_4 Na3 1_555 1_555
C6_4 H6_4 1_555 1_555
C13_3 H13_3 1_555 1_555
H16_4 C16_4 1_555 1_555
C19_4 H19_4 1_555 1_555
C21_4 H22_4 1_555 1_555
C23_3 C13_3 1_555 1_555
H24_3 C23_3 1_555 1_555
C27_4 C19_4 1_555 1_555
H28_3 C27_4 1_555 1_555
H30_3 C29_3 1_555 1_555
C30_3 C29_3 1_555 1_555
H31_3 C30_3 1_555 1_555
C32_4 C6_4 1_555 1_555
H33_4 C32_4 1_555 1_555
C33_4 C6_4 1_555 1_555
H34_4 C33_4 1_555 1_555
H35_4 C33_4 1_555 1_555
C35_3 C13_3 1_555 1_555
H38_3 C35_3 1_555 1_555
O2_4 C33_4 1_555 1_555
H40_4 O2_4 1_555 1_555
O6_4 C6_4 1_555 1_555
O10_4 C19_4 1_555 1_555
O14_3 C13_3 1_555 1_555
H47_3 O14_3 1_555 1_555
O34_2 C16_4 1_555 1_555
O19_4 C23_3 1_555 1_555
H50_3 O19_4 1_555 1_555
O20_3 C30_3 1_555 1_555
O23_3 C29_3 1_555 1_555
H52_3 O23_3 1_555 1_555
O28_4 C21_4 1_555 1_555
O30_4 C27_4 1_555 1_555
H53_4 O30_4 1_555 1_555
C19_4 C35_3 1_555 1_555
C21_4 C23_3 1_555 1_555
C21_4 O10_4 1_555 1_555
C30_3 O5_3 1_555 1_555
C32_4 O28_4 1_555 1_555
C35_3 O20_3 1_555 1_555
C27_4 H59_4 1_555 1_555
C3_3 H3_3 1_555 1_555
C17_3 C1_3 1_555 1_555
H17_3 C17_3 1_555 1_555
H18_3 C18_3 1_555 1_555
C22_3 C17_3 1_555 1_555
H23_3 C22_3 1_555 1_555
C28_3 C3_3 1_555 1_555
H29_3 C28_3 1_555 1_555
O1_3 C1_3 1_555 1_555
O3_3 C18_3 1_555 1_555
H41_3 O3_3 1_555 1_555
O8_3 C22_3 1_555 1_555
H43_3 O8_3 1_555 1_555
O11_3 C28_3 1_555 1_555
H44_3 O11_3 1_555 1_555
O26_3 C3_3 1_555 1_555
C3_3 O1_3 1_555 1_555
C22_3 C28_3 1_555 1_555
C4_4 H4_4 1_555 1_555
C5_2 H5_2 1_555 1_555
C7_4 C2_4 1_555 1_555
H7_4 C7_4 1_555 1_555
C9_4 H9_4 1_555 1_555
C10_2 H10_2 1_555 1_555
C11_4 C9_4 1_555 1_555
H11_4 C11_4 1_555 1_555
C12_4 C4_4 1_555 1_555
H12_4 C12_4 1_555 1_555
C15_2 C10_2 1_555 1_555
H15_2 C15_2 1_555 1_555
C24_2 C5_2 1_555 1_555
H25_4 C24_2 1_555 1_555
H26_2 C25_2 1_555 1_555
C26_4 C4_4 1_555 1_555
H27_2 C26_4 1_555 1_555
C31_4 C2_4 1_555 1_555
H32_4 C31_4 1_555 1_555
C34_2 H36_2 1_555 1_555
H37_2 C34_2 1_555 1_555
C36_2 C5_2 1_555 1_555
H39_2 C36_2 1_555 1_555
O4_4 C12_4 1_555 1_555
H42_4 O4_4 1_555 1_555
O7_2 C2_4 1_555 1_555
O9_4 C5_2 1_555 1_555
O12_2 C34_2 1_555 1_555
H45_2 O12_2 1_555 1_555
O13_4 C4_4 1_555 1_555
H46_4 O13_4 1_555 1_555
O15_2 C7_4 1_555 1_555
O16_2 C15_2 1_555 1_555
H48_2 O16_2 1_555 1_555
O18_3 C24_2 1_555 1_555
H49_3 O18_3 1_555 1_555
O24_2 C10_2 1_555 1_555
O25_4 C11_4 1_555 1_555
O27_2 C10_2 1_555 1_555
O29_4 C9_4 1_555 1_555
C9_4 C12_4 1_555 1_555
C15_2 C24_2 1_555 1_555
C26_4 O9_4 1_555 1_555
C26_4 O25_4 1_555 1_555
C31_4 O29_4 1_555 1_555
C34_2 C36_2 1_555 1_555
C36_2 O24_2 1_555 1_555
C25_2 H57_2 1_555 1_555
C13_4 H13_4 1_555 1_555
H18_4 C18_4 1_555 1_555
C23_4 C13_4 1_555 1_555
H24_4 C23_4 1_555 1_555
C29_4 C18_4 1_555 1_555
H30_4 C29_4 1_555 1_555
C30_4 C29_4 1_555 1_555
H31_4 C30_4 1_555 1_555
C35_4 C13_4 1_555 1_555
H38_4 C35_4 1_555 1_555
O3_4 C18_4 1_555 1_555
H41_4 O3_4 1_555 1_555
O14_4 C13_4 1_555 1_555
H47_4 O14_4 1_555 1_555
O20_4 C30_4 1_555 1_555
O23_4 C29_4 1_555 1_555
H52_4 O23_4 1_555 1_555
C30_4 O5_4 1_555 1_555
C35_4 O20_4 1_555 1_555
C5_3 H5_3 1_555 1_555
C10_3 H10_3 1_555 1_555
C15_3 C10_3 1_555 1_555
C24_3 C5_3 1_555 1_555
H26_3 C25_3 1_555 1_555
C34_3 H36_3 1_555 1_555
H37_3 C34_3 1_555 1_555
C36_3 C5_3 1_555 1_555
H39_3 C36_3 1_555 1_555
O12_3 C34_3 1_555 1_555
H45_3 O12_3 1_555 1_555
O21_4 C25_3 1_555 1_555
H51_4 O21_4 1_555 1_555
O24_3 C10_3 1_555 1_555
O27_3 C10_3 1_555 1_555
C15_3 C24_3 1_555 1_555
C34_3 C36_3 1_555 1_555
C36_3 O24_3 1_555 1_555
C25_3 H57_3 1_555 1_555
H49_4 O18_4 1_555 1_555
H48_3 O16_3 1_555 1_555
C1_4 H1_4 1_555 1_555
C3_4 H3_4 1_555 1_555
C5_4 H5_4 1_555 1_555
C10_4 H10_4 1_555 1_555
C15_4 C10_4 1_555 1_555
H15_4 C15_4 1_555 1_555
C17_4 C1_4 1_555 1_555
H17_4 C17_4 1_555 1_555
C22_4 C17_4 1_555 1_555
H23_4 C22_4 1_555 1_555
C24_4 C5_4 1_555 1_555
C25_4 C1_4 1_555 1_555
H26_4 C25_4 1_555 1_555
C28_4 C3_4 1_555 1_555
H29_4 C28_4 1_555 1_555
C34_4 H36_4 1_555 1_555
H37_4 C34_4 1_555 1_555
C36_4 C5_4 1_555 1_555
H39_4 C36_4 1_555 1_555
O1_4 C1_4 1_555 1_555
O8_4 C22_4 1_555 1_555
H43_4 O8_4 1_555 1_555
O11_4 C28_4 1_555 1_555
H44_4 O11_4 1_555 1_555
O12_4 C34_4 1_555 1_555
H45_4 O12_4 1_555 1_555
O16_4 C15_4 1_555 1_555
H48_4 O16_4 1_555 1_555
O24_4 C10_4 1_555 1_555
O26_4 C3_4 1_555 1_555
O27_4 C10_4 1_555 1_555
C3_4 O1_4 1_555 1_555
C15_4 C24_4 1_555 1_555
C17_4 O27_4 1_555 1_555
C22_4 C28_4 1_555 1_555
C34_4 C36_4 1_555 1_555
C36_4 O24_4 1_555 1_555
C25_4 H57_4 1_555 1_555

#END
