
###############################################################################
#
# This file contains modified crystal structure data generated from the
# MOF subset of the Cambridge Structural Database (CSD) v543 
# hosted by the Cambridge Crystallographic Data Centre (CCDC).
#
# This work is licensed under the Creative Commons
# Attribution-NonCommercial-ShareAlike 4.0 International License.
# To view a copy of this license, visit
# http://creativecommons.org/licenses/by-nc-sa/4.0/
# or send a letter to
# Creative Commons, PO Box 1866, Mountain View, CA 94042, USA.
#
# CIF created using the CSD Python API on 29 September 2022
# The structure has been converted into the P1 space group
# The structure has a 3D framework
# The original CSD entry OYADOK is in the cubic crystal system
# The framework has been calculated to contain at least 10.0% void space
# The void calculation uses a probe of radius 1.32A, grid spacing 0.4
# H atom positions have been added when not included in the experimental data
# Generated hydrogen atom positions removed from atoms on special positions
#
###############################################################################

data_OYADOK
_chemical_formula_moiety         '(C576 H1344 O768 S96 Zr168)n'
_symmetry_cell_setting           triclinic
_symmetry_space_group_name_H-M   'P 1'
_symmetry_Int_Tables_number      1
_space_group_name_Hall           'P 1'
loop_
_symmetry_equiv_pos_site_id
_symmetry_equiv_pos_as_xyz
1 x,y,z
_cell_length_a                   38.838001
_cell_length_b                   38.838001
_cell_length_c                   38.838001
_cell_angle_alpha                90
_cell_angle_beta                 90
_cell_angle_gamma                90
_cell_volume                     58582.9
loop_
_atom_site_label
_atom_site_type_symbol
_atom_site_fract_x
_atom_site_fract_y
_atom_site_fract_z
Zr1 Zr 0.215111 0.284891 0.049721
Zr2 Zr 0.2068 0.2068 0.000
S1 S 0.245876 0.128658 0.128658
C1 C 0.22572 0.149379 0.055705
C2 C 0.222881 0.136595 0.091891
C3 C 0.198662 0.111321 0.08635
O1 O 0.20498 0.166667 0.038033
O2 O 0.24168 0.24168 0.02563
O3 O 0.249948 0.171694 0.050159
O4 O 0.226397 0.273603 0.103038
O5 O 0.175691 0.324311 0.050138
O6 O 0.261573 0.21451 0.000
C4 C 0.22572 0.055705 0.149379
C5 C 0.222881 0.091891 0.136595
C6 C 0.198662 0.08635 0.111321
O7 O 0.20498 0.038033 0.166667
O8 O 0.249948 0.050159 0.171694
S2 S 0.128658 0.245876 0.128658
C7 C 0.055705 0.22572 0.149379
C8 C 0.091891 0.222881 0.136595
C9 C 0.08635 0.198662 0.111321
O9 O 0.038033 0.20498 0.166667
O10 O 0.050159 0.249948 0.171694
C10 C 0.149379 0.22572 0.055705
C11 C 0.136595 0.222881 0.091891
C12 C 0.111321 0.198662 0.08635
O11 O 0.166667 0.20498 0.038033
O12 O 0.171694 0.249948 0.050159
Zr3 Zr 0.284891 0.215111 0.049721
O13 O 0.273603 0.226397 0.103038
O14 O 0.324311 0.175691 0.050138
O15 O 0.21451 0.261573 0.000
Zr4 Zr 0.284891 0.049721 0.215111
Zr6 Zr 0.049721 0.284891 0.215111
Zr8 Zr -0.000 0.2068 0.2068
Zr9 Zr 0.2068 -0.000 0.2068
O19 O 0.25832 0.25832 0.02563
O20 O 0.250052 0.328306 0.050159
O21 O 0.328306 0.250052 0.050159
O22 O 0.238427 0.28549 0.000
O23 O 0.28549 0.238427 0.000
H1 H 0.181261 0.111167 0.0643636
H2 H 0.181261 0.0643636 0.111167
H7 H 0.0643636 0.181261 0.111167
H8 H 0.111167 0.181261 0.0643636
Zr2_2 Zr 0.2068 0.2068 1.000
O6_2 O 0.261573 0.21451 1.000
O15_2 O 0.21451 0.261573 1.000
Zr5 Zr 0.215111 0.284891 0.950279
Zr7 Zr 0.284891 0.215111 0.950279
O16 O 0.20498 0.166667 0.961967
O17 O 0.166667 0.20498 0.961967
O18 O 0.24168 0.24168 0.97437
O22_2 O 0.238427 0.28549 1.000
O23_2 O 0.28549 0.238427 1.000
Zr9_2 Zr 0.2068 1.000 0.2068
Zr8_2 Zr 1.000 0.2068 0.2068
Zr1_2 Zr 0.049721 0.215111 0.284891
O2_2 O 0.02563 0.24168 0.24168
O4_2 O 0.103038 0.226397 0.273603
O5_2 O 0.050138 0.175691 0.324311
O6_3 O -0.000 0.261573 0.21451
S2_2 S 0.128658 0.128658 0.245876
C7_2 C 0.149379 0.055705 0.22572
C8_2 C 0.136595 0.091891 0.222881
C9_2 C 0.111321 0.08635 0.198662
O9_2 O 0.166667 0.038033 0.20498
O10_2 O 0.171694 0.050159 0.249948
C10_2 C 0.055705 0.149379 0.22572
C11_2 C 0.091891 0.136595 0.222881
C12_2 C 0.08635 0.111321 0.198662
O11_2 O 0.038033 0.166667 0.20498
O12_2 O 0.050159 0.171694 0.249948
O13_2 O 0.103038 0.273603 0.226397
O14_2 O 0.050138 0.324311 0.175691
O15_3 O 0.000 0.21451 0.261573
Zr6_2 Zr 0.215111 0.049721 0.284891
O19_2 O 0.02563 0.25832 0.25832
O20_2 O 0.050159 0.250052 0.328306
O21_2 O 0.050159 0.328306 0.250052
O22_3 O -0.000 0.238427 0.28549
O23_3 O -0.000 0.28549 0.238427
H7_2 H 0.111167 0.0643636 0.181261
H8_2 H 0.0643636 0.111167 0.181261
O6_4 O 1.000 0.261573 0.21451
O15_4 O 1.000 0.21451 0.261573
Zr5_2 Zr 0.950279 0.215111 0.284891
Zr7_2 Zr 0.950279 0.284891 0.215111
O16_2 O 0.961967 0.20498 0.166667
O17_2 O 0.961967 0.166667 0.20498
O18_2 O 0.97437 0.24168 0.24168
O22_4 O 1.000 0.238427 0.28549
O23_4 O 1.000 0.28549 0.238427
O2_3 O 0.24168 0.02563 0.24168
O4_3 O 0.273603 0.103038 0.226397
O5_3 O 0.324311 0.050138 0.175691
O6_5 O 0.21451 0.000 0.261573
O13_3 O 0.226397 0.103038 0.273603
O14_3 O 0.175691 0.050138 0.324311
O15_5 O 0.261573 0.000 0.21451
O19_3 O 0.25832 0.02563 0.25832
O20_3 O 0.328306 0.050159 0.250052
O21_3 O 0.250052 0.050159 0.328306
O22_5 O 0.28549 0.000 0.238427
O23_5 O 0.238427 -0.000 0.28549
O6_6 O 0.21451 1.000 0.261573
O15_6 O 0.261573 1.000 0.21451
Zr5_3 Zr 0.284891 0.950279 0.215111
Zr7_3 Zr 0.215111 0.950279 0.284891
O16_3 O 0.166667 0.961967 0.20498
O17_3 O 0.20498 0.961967 0.166667
O18_3 O 0.24168 0.97437 0.24168
O22_6 O 0.28549 1.000 0.238427
O23_6 O 0.238427 1.000 0.28549
Zr2_3 Zr -0.000 0.2068 0.7932
O6_7 O -0.000 0.261573 0.78549
O15_7 O -0.000 0.21451 0.738427
Zr5_4 Zr 0.049721 0.215111 0.715109
Zr7_4 Zr 0.049721 0.284891 0.784889
O16_4 O 0.038033 0.20498 0.833333
O17_4 O 0.038033 0.166667 0.79502
O18_4 O 0.02563 0.24168 0.75832
O22_7 O -0.000 0.238427 0.71451
O23_7 O -0.000 0.28549 0.761573
Zr9_3 Zr 0.7932 0.2068 0.000
Zr1_3 Zr 0.950279 0.215111 0.715109
Zr2_4 Zr 1.000 0.2068 0.7932
S1_2 S 0.871342 0.245876 0.871342
C1_2 C 0.944295 0.22572 0.850621
C2_2 C 0.908109 0.222881 0.863405
C3_2 C 0.91365 0.198662 0.888679
O1_2 O 0.961967 0.20498 0.833333
O2_4 O 0.97437 0.24168 0.75832
O3_2 O 0.949841 0.249948 0.828306
O4_4 O 0.896962 0.226397 0.726397
O5_4 O 0.949862 0.175691 0.675689
O6_8 O 1.000 0.261573 0.78549
C4_2 C 0.850621 0.22572 0.944295
C5_2 C 0.863405 0.222881 0.908109
C6_2 C 0.888679 0.198662 0.91365
O7_2 O 0.833333 0.20498 0.961967
O8_2 O 0.828306 0.249948 0.949841
S2_3 S 0.871342 0.128658 0.754124
C7_3 C 0.850621 0.055705 0.77428
C8_3 C 0.863405 0.091891 0.777119
C9_3 C 0.888679 0.08635 0.801338
O9_3 O 0.833333 0.038033 0.79502
O10_3 O 0.828306 0.050159 0.750052
C10_3 C 0.944295 0.149379 0.77428
C11_3 C 0.908109 0.136595 0.777119
C12_3 C 0.91365 0.111321 0.801338
O11_3 O 0.961967 0.166667 0.79502
O12_3 O 0.949841 0.171694 0.750052
Zr3_2 Zr 0.950279 0.284891 0.784889
O13_4 O 0.896962 0.273603 0.773603
O14_4 O 0.949862 0.324311 0.824309
O15_8 O 1.000 0.21451 0.738427
Zr4_2 Zr 0.784889 0.284891 0.950279
Zr6_3 Zr 0.784889 0.049721 0.715109
Zr8_3 Zr 0.7932 -0.000 0.7932
Zr9_4 Zr 0.7932 0.2068 1.000
O19_4 O 0.97437 0.25832 0.74168
O20_4 O 0.949841 0.250052 0.671694
O21_4 O 0.949841 0.328306 0.749948
O22_8 O 1.000 0.238427 0.71451
O23_8 O 1.000 0.28549 0.761573
H1_2 H 0.935636 0.181261 0.888833
H2_2 H 0.888833 0.181261 0.935636
H7_3 H 0.888833 0.0643636 0.818739
H8_3 H 0.935636 0.111167 0.818739
Zr8_4 Zr 0.7932 1.000 0.7932
Zr9_5 Zr -0.000 0.7932 0.2068
Zr2_5 Zr 0.7932 -0.000 0.2068
O6_9 O 0.78549 0.000 0.261573
O15_9 O 0.738427 0.000 0.21451
Zr5_5 Zr 0.715109 0.049721 0.215111
Zr7_5 Zr 0.784889 0.049721 0.284891
O16_5 O 0.833333 0.038033 0.20498
O17_5 O 0.79502 0.038033 0.166667
O18_5 O 0.75832 0.02563 0.24168
O22_9 O 0.71451 0.000 0.238427
O23_9 O 0.761573 -0.000 0.28549
Zr1_4 Zr 0.715109 0.950279 0.215111
Zr2_6 Zr 0.7932 1.000 0.2068
S1_3 S 0.871342 0.871342 0.245876
C1_3 C 0.850621 0.944295 0.22572
C2_3 C 0.863405 0.908109 0.222881
C3_3 C 0.888679 0.91365 0.198662
O1_3 O 0.833333 0.961967 0.20498
O2_5 O 0.75832 0.97437 0.24168
O3_3 O 0.828306 0.949841 0.249948
O4_5 O 0.726397 0.896962 0.226397
O5_5 O 0.675689 0.949862 0.175691
O6_10 O 0.78549 1.000 0.261573
C4_3 C 0.944295 0.850621 0.22572
C5_3 C 0.908109 0.863405 0.222881
C6_3 C 0.91365 0.888679 0.198662
O7_3 O 0.961967 0.833333 0.20498
O8_3 O 0.949841 0.828306 0.249948
S2_4 S 0.754124 0.871342 0.128658
C7_4 C 0.77428 0.850621 0.055705
C8_4 C 0.777119 0.863405 0.091891
C9_4 C 0.801338 0.888679 0.08635
O9_4 O 0.79502 0.833333 0.038033
O10_4 O 0.750052 0.828306 0.050159
C10_4 C 0.77428 0.944295 0.149379
C11_4 C 0.777119 0.908109 0.136595
C12_4 C 0.801338 0.91365 0.111321
O11_4 O 0.79502 0.961967 0.166667
O12_4 O 0.750052 0.949841 0.171694
Zr3_3 Zr 0.784889 0.950279 0.284891
O13_5 O 0.773603 0.896962 0.273603
O14_5 O 0.824309 0.949862 0.324311
O15_10 O 0.738427 1.000 0.21451
Zr4_3 Zr 0.950279 0.784889 0.284891
Zr6_4 Zr 0.715109 0.784889 0.049721
Zr8_5 Zr 0.7932 0.7932 -0.000
Zr9_6 Zr 1.000 0.7932 0.2068
O19_5 O 0.74168 0.97437 0.25832
O20_5 O 0.671694 0.949841 0.250052
O21_5 O 0.749948 0.949841 0.328306
O22_10 O 0.71451 1.000 0.238427
O23_10 O 0.761573 1.000 0.28549
H1_3 H 0.888833 0.935636 0.181261
H2_3 H 0.935636 0.888833 0.181261
H7_4 H 0.818739 0.888833 0.0643636
H8_4 H 0.818739 0.935636 0.111167
Zr8_6 Zr 0.7932 0.7932 1.000
Zr2_7 Zr 0.2068 0.000 0.7932
O6_11 O 0.21451 -0.000 0.738427
O15_11 O 0.261573 0.000 0.78549
Zr5_6 Zr 0.284891 0.049721 0.784889
Zr7_6 Zr 0.215111 0.049721 0.715109
O16_6 O 0.166667 0.038033 0.79502
O17_6 O 0.20498 0.038033 0.833333
O18_6 O 0.24168 0.02563 0.75832
O22_11 O 0.28549 -0.000 0.761573
O23_11 O 0.238427 -0.000 0.71451
Zr8_7 Zr 0.2068 0.7932 0.000
Zr1_5 Zr 0.284891 0.950279 0.784889
Zr2_8 Zr 0.2068 1.000 0.7932
S1_4 S 0.128658 0.871342 0.754124
C1_4 C 0.149379 0.944295 0.77428
C2_4 C 0.136595 0.908109 0.777119
C3_4 C 0.111321 0.91365 0.801338
O1_4 O 0.166667 0.961967 0.79502
O2_6 O 0.24168 0.97437 0.75832
O3_4 O 0.171694 0.949841 0.750052
O4_6 O 0.273603 0.896962 0.773603
O5_6 O 0.324311 0.949862 0.824309
O6_12 O 0.21451 1.000 0.738427
C4_4 C 0.055705 0.850621 0.77428
C5_4 C 0.091891 0.863405 0.777119
C6_4 C 0.08635 0.888679 0.801338
O7_4 O 0.038033 0.833333 0.79502
O8_4 O 0.050159 0.828306 0.750052
S2_5 S 0.245876 0.871342 0.871342
C7_5 C 0.22572 0.850621 0.944295
C8_5 C 0.222881 0.863405 0.908109
C9_5 C 0.198662 0.888679 0.91365
O9_5 O 0.20498 0.833333 0.961967
O10_5 O 0.249948 0.828306 0.949841
C10_5 C 0.22572 0.944295 0.850621
C11_5 C 0.222881 0.908109 0.863405
C12_5 C 0.198662 0.91365 0.888679
O11_5 O 0.20498 0.961967 0.833333
O12_5 O 0.249948 0.949841 0.828306
Zr3_4 Zr 0.215111 0.950279 0.715109
O13_6 O 0.226397 0.896962 0.726397
O14_6 O 0.175691 0.949862 0.675689
O15_12 O 0.261573 1.000 0.78549
Zr4_4 Zr 0.049721 0.784889 0.715109
Zr6_5 Zr 0.284891 0.784889 0.950279
Zr8_8 Zr 0.2068 0.7932 1.000
Zr9_7 Zr -0.000 0.7932 0.7932
O19_6 O 0.25832 0.97437 0.74168
O20_6 O 0.328306 0.949841 0.749948
O21_6 O 0.250052 0.949841 0.671694
O22_12 O 0.28549 1.000 0.761573
O23_12 O 0.238427 1.000 0.71451
H1_4 H 0.111167 0.935636 0.818739
H2_4 H 0.0643636 0.888833 0.818739
H7_5 H 0.181261 0.888833 0.935636
H8_5 H 0.181261 0.935636 0.888833
Zr9_8 Zr 1.000 0.7932 0.7932
O6_13 O 0.738427 0.21451 0.000
O15_13 O 0.78549 0.261573 0.000
Zr5_7 Zr 0.784889 0.284891 0.049721
Zr7_7 Zr 0.715109 0.215111 0.049721
O16_7 O 0.79502 0.166667 0.038033
O17_7 O 0.833333 0.20498 0.038033
O18_7 O 0.75832 0.24168 0.02563
O22_13 O 0.761573 0.28549 0.000
O23_13 O 0.71451 0.238427 0.000
S1_5 S 0.754124 0.128658 0.871342
C1_5 C 0.77428 0.149379 0.944295
C2_5 C 0.777119 0.136595 0.908109
C3_5 C 0.801338 0.111321 0.91365
O1_5 O 0.79502 0.166667 0.961967
O2_7 O 0.75832 0.24168 0.97437
O3_5 O 0.750052 0.171694 0.949841
O4_7 O 0.773603 0.273603 0.896962
O5_7 O 0.824309 0.324311 0.949862
O6_14 O 0.738427 0.21451 1.000
C4_5 C 0.77428 0.055705 0.850621
C5_5 C 0.777119 0.091891 0.863405
C6_5 C 0.801338 0.08635 0.888679
O7_5 O 0.79502 0.038033 0.833333
O8_5 O 0.750052 0.050159 0.828306
Zr3_5 Zr 0.715109 0.215111 0.950279
O13_7 O 0.726397 0.226397 0.896962
O14_7 O 0.675689 0.175691 0.949862
O15_14 O 0.78549 0.261573 1.000
Zr4_5 Zr 0.715109 0.049721 0.784889
O19_7 O 0.74168 0.25832 0.97437
O20_7 O 0.749948 0.328306 0.949841
O21_7 O 0.671694 0.250052 0.949841
O22_14 O 0.761573 0.28549 1.000
O23_14 O 0.71451 0.238427 1.000
H1_5 H 0.818739 0.111167 0.935636
H2_5 H 0.818739 0.0643636 0.888833
O6_15 O -0.000 0.738427 0.21451
O15_15 O -0.000 0.78549 0.261573
Zr5_8 Zr 0.049721 0.784889 0.284891
Zr7_8 Zr 0.049721 0.715109 0.215111
O16_8 O 0.038033 0.79502 0.166667
O17_8 O 0.038033 0.833333 0.20498
O18_8 O 0.02563 0.75832 0.24168
O22_15 O -0.000 0.761573 0.28549
O23_15 O -0.000 0.71451 0.238427
S1_6 S 0.871342 0.754124 0.128658
C1_6 C 0.944295 0.77428 0.149379
C2_6 C 0.908109 0.777119 0.136595
C3_6 C 0.91365 0.801338 0.111321
O1_6 O 0.961967 0.79502 0.166667
O2_8 O 0.97437 0.75832 0.24168
O3_6 O 0.949841 0.750052 0.171694
O4_8 O 0.896962 0.773603 0.273603
O5_8 O 0.949862 0.824309 0.324311
O6_16 O 1.000 0.738427 0.21451
C4_6 C 0.850621 0.77428 0.055705
C5_6 C 0.863405 0.777119 0.091891
C6_6 C 0.888679 0.801338 0.08635
O7_6 O 0.833333 0.79502 0.038033
O8_6 O 0.828306 0.750052 0.050159
Zr3_6 Zr 0.950279 0.715109 0.215111
O13_8 O 0.896962 0.726397 0.226397
O14_8 O 0.949862 0.675689 0.175691
O15_16 O 1.000 0.78549 0.261573
Zr4_6 Zr 0.784889 0.715109 0.049721
O19_8 O 0.97437 0.74168 0.25832
O20_8 O 0.949841 0.749948 0.328306
O21_8 O 0.949841 0.671694 0.250052
O22_16 O 1.000 0.761573 0.28549
O23_16 O 1.000 0.71451 0.238427
H1_6 H 0.935636 0.818739 0.111167
H2_6 H 0.888833 0.818739 0.0643636
O6_17 O 0.261573 0.78549 0.000
O15_17 O 0.21451 0.738427 0.000
Zr5_9 Zr 0.215111 0.715109 0.049721
Zr7_9 Zr 0.284891 0.784889 0.049721
O16_9 O 0.20498 0.833333 0.038033
O17_9 O 0.166667 0.79502 0.038033
O18_9 O 0.24168 0.75832 0.02563
O22_17 O 0.238427 0.71451 0.000
O23_17 O 0.28549 0.761573 0.000
Zr1_6 Zr 0.215111 0.715109 0.950279
O2_9 O 0.24168 0.75832 0.97437
O4_9 O 0.226397 0.726397 0.896962
O5_9 O 0.175691 0.675689 0.949862
O6_18 O 0.261573 0.78549 1.000
S2_6 S 0.128658 0.754124 0.871342
C7_6 C 0.055705 0.77428 0.850621
C8_6 C 0.091891 0.777119 0.863405
C9_6 C 0.08635 0.801338 0.888679
O9_6 O 0.038033 0.79502 0.833333
O10_6 O 0.050159 0.750052 0.828306
C10_6 C 0.149379 0.77428 0.944295
C11_6 C 0.136595 0.777119 0.908109
C12_6 C 0.111321 0.801338 0.91365
O11_6 O 0.166667 0.79502 0.961967
O12_6 O 0.171694 0.750052 0.949841
O13_9 O 0.273603 0.773603 0.896962
O14_9 O 0.324311 0.824309 0.949862
O15_18 O 0.21451 0.738427 1.000
Zr6_6 Zr 0.049721 0.715109 0.784889
O19_9 O 0.25832 0.74168 0.97437
O20_9 O 0.250052 0.671694 0.949841
O21_9 O 0.328306 0.749948 0.949841
O22_18 O 0.238427 0.71451 1.000
O23_18 O 0.28549 0.761573 1.000
H7_6 H 0.0643636 0.818739 0.888833
H8_6 H 0.111167 0.818739 0.935636
S1_7 S 0.128658 0.245876 0.871342
C1_7 C 0.149379 0.22572 0.944295
C2_7 C 0.136595 0.222881 0.908109
C3_7 C 0.111321 0.198662 0.91365
O3_7 O 0.171694 0.249948 0.949841
O4_10 O 0.273603 0.226397 0.896962
O5_10 O 0.324311 0.175691 0.949862
C4_7 C 0.055705 0.22572 0.850621
C5_7 C 0.091891 0.222881 0.863405
C6_7 C 0.08635 0.198662 0.888679
O8_7 O 0.050159 0.249948 0.828306
S2_7 S 0.245876 0.128658 0.871342
C7_7 C 0.22572 0.055705 0.850621
C8_7 C 0.222881 0.091891 0.863405
C9_7 C 0.198662 0.08635 0.888679
O10_7 O 0.249948 0.050159 0.828306
C10_7 C 0.22572 0.149379 0.944295
C11_7 C 0.222881 0.136595 0.908109
C12_7 C 0.198662 0.111321 0.91365
O12_7 O 0.249948 0.171694 0.949841
O13_10 O 0.226397 0.273603 0.896962
O14_10 O 0.175691 0.324311 0.949862
O19_10 O 0.25832 0.25832 0.97437
O20_10 O 0.328306 0.250052 0.949841
O21_10 O 0.250052 0.328306 0.949841
H1_7 H 0.111167 0.181261 0.935636
H2_7 H 0.0643636 0.181261 0.888833
H7_7 H 0.181261 0.0643636 0.888833
H8_7 H 0.181261 0.111167 0.935636
S1_8 S 0.871342 0.128658 0.245876
C1_8 C 0.944295 0.149379 0.22572
C2_8 C 0.908109 0.136595 0.222881
C3_8 C 0.91365 0.111321 0.198662
O3_8 O 0.949841 0.171694 0.249948
O4_11 O 0.896962 0.273603 0.226397
O5_11 O 0.949862 0.324311 0.175691
C4_8 C 0.850621 0.055705 0.22572
C5_8 C 0.863405 0.091891 0.222881
C6_8 C 0.888679 0.08635 0.198662
O8_8 O 0.828306 0.050159 0.249948
S2_8 S 0.871342 0.245876 0.128658
C7_8 C 0.850621 0.22572 0.055705
C8_8 C 0.863405 0.222881 0.091891
C9_8 C 0.888679 0.198662 0.08635
O10_8 O 0.828306 0.249948 0.050159
C10_8 C 0.944295 0.22572 0.149379
C11_8 C 0.908109 0.222881 0.136595
C12_8 C 0.91365 0.198662 0.111321
O12_8 O 0.949841 0.249948 0.171694
O13_11 O 0.896962 0.226397 0.273603
O14_11 O 0.949862 0.175691 0.324311
O19_11 O 0.97437 0.25832 0.25832
O20_11 O 0.949841 0.328306 0.250052
O21_11 O 0.949841 0.250052 0.328306
H1_8 H 0.935636 0.111167 0.181261
H2_8 H 0.888833 0.0643636 0.181261
H7_8 H 0.888833 0.181261 0.0643636
H8_8 H 0.935636 0.181261 0.111167
S1_9 S 0.245876 0.871342 0.128658
C1_9 C 0.22572 0.944295 0.149379
C2_9 C 0.222881 0.908109 0.136595
C3_9 C 0.198662 0.91365 0.111321
O3_9 O 0.249948 0.949841 0.171694
O4_12 O 0.226397 0.896962 0.273603
O5_12 O 0.175691 0.949862 0.324311
C4_9 C 0.22572 0.850621 0.055705
C5_9 C 0.222881 0.863405 0.091891
C6_9 C 0.198662 0.888679 0.08635
O8_9 O 0.249948 0.828306 0.050159
S2_9 S 0.128658 0.871342 0.245876
C7_9 C 0.055705 0.850621 0.22572
C8_9 C 0.091891 0.863405 0.222881
C9_9 C 0.08635 0.888679 0.198662
O10_9 O 0.050159 0.828306 0.249948
C10_9 C 0.149379 0.944295 0.22572
C11_9 C 0.136595 0.908109 0.222881
C12_9 C 0.111321 0.91365 0.198662
O12_9 O 0.171694 0.949841 0.249948
O13_12 O 0.273603 0.896962 0.226397
O14_12 O 0.324311 0.949862 0.175691
O19_12 O 0.25832 0.97437 0.25832
O20_12 O 0.250052 0.949841 0.328306
O21_12 O 0.328306 0.949841 0.250052
H1_9 H 0.181261 0.935636 0.111167
H2_9 H 0.181261 0.888833 0.0643636
H7_9 H 0.0643636 0.888833 0.181261
H8_9 H 0.111167 0.935636 0.181261
Zr1_7 Zr 0.215111 0.784891 0.549721
Zr2_9 Zr 0.2068 0.7068 0.500
S1_10 S 0.245876 0.628658 0.628658
C1_10 C 0.22572 0.649379 0.555705
C2_10 C 0.222881 0.636595 0.591891
C3_10 C 0.198662 0.611321 0.58635
O1_7 O 0.20498 0.666667 0.538033
O2_10 O 0.24168 0.74168 0.52563
O3_10 O 0.249948 0.671694 0.550159
O4_13 O 0.226397 0.773603 0.603038
O5_13 O 0.175691 0.824311 0.550138
O6_19 O 0.261573 0.71451 0.500
C4_10 C 0.22572 0.555705 0.649379
C5_10 C 0.222881 0.591891 0.636595
C6_10 C 0.198662 0.58635 0.611321
O7_7 O 0.20498 0.538033 0.666667
O8_10 O 0.249948 0.550159 0.671694
S2_10 S 0.128658 0.745876 0.628658
C7_10 C 0.055705 0.72572 0.649379
C8_10 C 0.091891 0.722881 0.636595
C9_10 C 0.08635 0.698662 0.611321
O9_7 O 0.038033 0.70498 0.666667
O10_10 O 0.050159 0.749948 0.671694
C10_10 C 0.149379 0.72572 0.555705
C11_10 C 0.136595 0.722881 0.591891
C12_10 C 0.111321 0.698662 0.58635
O11_7 O 0.166667 0.70498 0.538033
O12_10 O 0.171694 0.749948 0.550159
Zr3_7 Zr 0.284891 0.715111 0.549721
O13_13 O 0.273603 0.726397 0.603038
O14_13 O 0.324311 0.675691 0.550138
O15_19 O 0.21451 0.761573 0.500
Zr4_7 Zr 0.284891 0.549721 0.715111
Zr5_10 Zr 0.215111 0.784891 0.450279
Zr7_10 Zr 0.284891 0.715111 0.450279
Zr8_9 Zr -0.000 0.7068 0.7068
Zr9_9 Zr 0.2068 0.500 0.7068
O16_10 O 0.20498 0.666667 0.461967
O17_10 O 0.166667 0.70498 0.461967
O18_10 O 0.24168 0.74168 0.47437
O19_13 O 0.25832 0.75832 0.52563
O20_13 O 0.250052 0.828306 0.550159
O21_13 O 0.328306 0.750052 0.550159
O22_19 O 0.238427 0.78549 0.500
O23_19 O 0.28549 0.738427 0.500
H1_10 H 0.181261 0.611167 0.564364
H2_10 H 0.181261 0.564364 0.611167
H7_10 H 0.0643636 0.681261 0.611167
H8_10 H 0.111167 0.681261 0.564364
Zr8_10 Zr 1.000 0.7068 0.7068
O2_11 O 0.02563 0.74168 0.74168
O4_14 O 0.103038 0.726397 0.773603
O5_14 O 0.050138 0.675691 0.824311
O6_20 O -0.000 0.761573 0.71451
S2_11 S 0.128658 0.628658 0.745876
C7_11 C 0.149379 0.555705 0.72572
C8_11 C 0.136595 0.591891 0.722881
C9_11 C 0.111321 0.58635 0.698662
O9_8 O 0.166667 0.538033 0.70498
O10_11 O 0.171694 0.550159 0.749948
C10_11 C 0.055705 0.649379 0.72572
C11_11 C 0.091891 0.636595 0.722881
C12_11 C 0.08635 0.611321 0.698662
O11_8 O 0.038033 0.666667 0.70498
O12_11 O 0.050159 0.671694 0.749948
O13_14 O 0.103038 0.773603 0.726397
O14_14 O 0.050138 0.824311 0.675691
O15_20 O -0.000 0.71451 0.761573
Zr6_7 Zr 0.215111 0.549721 0.784891
O19_14 O 0.02563 0.75832 0.75832
O22_20 O -0.000 0.738427 0.78549
O23_20 O -0.000 0.78549 0.738427
H7_11 H 0.111167 0.564364 0.681261
H8_11 H 0.0643636 0.611167 0.681261
O6_21 O 1.000 0.761573 0.71451
O15_21 O 1.000 0.71451 0.761573
Zr5_11 Zr 0.950279 0.715111 0.784891
Zr7_11 Zr 0.950279 0.784891 0.715111
O16_11 O 0.961967 0.70498 0.666667
O17_11 O 0.961967 0.666667 0.70498
O18_11 O 0.97437 0.74168 0.74168
O22_21 O 1.000 0.738427 0.78549
O23_21 O 1.000 0.78549 0.738427
O2_12 O 0.24168 0.52563 0.74168
O4_15 O 0.273603 0.603038 0.726397
O5_15 O 0.324311 0.550138 0.675691
O6_22 O 0.21451 0.500 0.761573
O13_15 O 0.226397 0.603038 0.773603
O14_15 O 0.175691 0.550138 0.824311
O15_22 O 0.261573 0.500 0.71451
Zr5_12 Zr 0.284891 0.450279 0.715111
Zr7_12 Zr 0.215111 0.450279 0.784891
O16_12 O 0.166667 0.461967 0.70498
O17_12 O 0.20498 0.461967 0.666667
O18_12 O 0.24168 0.47437 0.74168
O19_15 O 0.25832 0.52563 0.75832
O20_14 O 0.328306 0.550159 0.750052
O21_14 O 0.250052 0.550159 0.828306
O22_22 O 0.28549 0.500 0.738427
O23_22 O 0.238427 0.500 0.78549
Zr2_10 Zr -0.000 0.7068 0.2932
O16_13 O 0.038033 0.70498 0.333333
O17_13 O 0.038033 0.666667 0.29502
O18_13 O 0.02563 0.74168 0.25832
Zr2_11 Zr 1.000 0.7068 0.2932
S1_11 S 0.871342 0.745876 0.371342
C1_11 C 0.944295 0.72572 0.350621
C2_11 C 0.908109 0.722881 0.363405
C3_11 C 0.91365 0.698662 0.388679
O1_8 O 0.961967 0.70498 0.333333
C4_11 C 0.850621 0.72572 0.444295
C5_11 C 0.863405 0.722881 0.408109
C6_11 C 0.888679 0.698662 0.41365
O7_8 O 0.833333 0.70498 0.461967
O8_11 O 0.828306 0.749948 0.449841
S2_12 S 0.871342 0.628658 0.254124
C7_12 C 0.850621 0.555705 0.27428
C8_12 C 0.863405 0.591891 0.277119
C9_12 C 0.888679 0.58635 0.301338
O9_9 O 0.833333 0.538033 0.29502
O10_12 O 0.828306 0.550159 0.250052
C10_12 C 0.944295 0.649379 0.27428
C11_12 C 0.908109 0.636595 0.277119
C12_12 C 0.91365 0.611321 0.301338
O11_9 O 0.961967 0.666667 0.29502
Zr4_8 Zr 0.784889 0.784891 0.450279
Zr6_8 Zr 0.784889 0.549721 0.215109
Zr8_11 Zr 0.7932 0.500 0.2932
Zr9_10 Zr 0.7932 0.7068 0.500
H1_11 H 0.935636 0.681261 0.388833
H2_11 H 0.888833 0.681261 0.435636
H7_12 H 0.888833 0.564364 0.318739
H8_12 H 0.935636 0.611167 0.318739
Zr9_11 Zr -0.000 0.2932 0.7068
Zr1_8 Zr 0.715109 0.450279 0.715111
Zr2_12 Zr 0.7932 0.500 0.7068
S1_12 S 0.871342 0.371342 0.745876
C1_12 C 0.850621 0.444295 0.72572
C2_12 C 0.863405 0.408109 0.722881
C3_12 C 0.888679 0.41365 0.698662
O1_9 O 0.833333 0.461967 0.70498
O2_13 O 0.75832 0.47437 0.74168
O3_11 O 0.828306 0.449841 0.749948
O4_16 O 0.726397 0.396962 0.726397
O5_16 O 0.675689 0.449862 0.675691
O6_23 O 0.78549 0.500 0.761573
C4_12 C 0.944295 0.350621 0.72572
C5_12 C 0.908109 0.363405 0.722881
C6_12 C 0.91365 0.388679 0.698662
O7_9 O 0.961967 0.333333 0.70498
S2_13 S 0.754124 0.371342 0.628658
C7_13 C 0.77428 0.350621 0.555705
C8_13 C 0.777119 0.363405 0.591891
C9_13 C 0.801338 0.388679 0.58635
O9_10 O 0.79502 0.333333 0.538033
O10_13 O 0.750052 0.328306 0.550159
C10_13 C 0.77428 0.444295 0.649379
C11_13 C 0.777119 0.408109 0.636595
C12_13 C 0.801338 0.41365 0.611321
O11_10 O 0.79502 0.461967 0.666667
O12_12 O 0.750052 0.449841 0.671694
Zr3_8 Zr 0.784889 0.450279 0.784891
O13_16 O 0.773603 0.396962 0.773603
O14_16 O 0.824309 0.449862 0.824311
O15_23 O 0.738427 0.500 0.71451
Zr5_13 Zr 0.715109 0.549721 0.715111
Zr6_9 Zr 0.715109 0.284889 0.549721
Zr7_13 Zr 0.784889 0.549721 0.784891
Zr8_12 Zr 0.7932 0.2932 0.500
Zr9_12 Zr 1.000 0.2932 0.7068
O16_14 O 0.833333 0.538033 0.70498
O17_14 O 0.79502 0.538033 0.666667
O18_14 O 0.75832 0.52563 0.74168
O19_16 O 0.74168 0.47437 0.75832
O20_15 O 0.671694 0.449841 0.750052
O21_15 O 0.749948 0.449841 0.828306
O22_23 O 0.71451 0.500 0.738427
O23_23 O 0.761573 0.500 0.78549
H1_12 H 0.888833 0.435636 0.681261
H2_12 H 0.935636 0.388833 0.681261
H7_13 H 0.818739 0.388833 0.564364
H8_13 H 0.818739 0.435636 0.611167
Zr1_9 Zr 0.284891 0.450279 0.284889
Zr2_13 Zr 0.2068 0.500 0.2932
S1_13 S 0.128658 0.371342 0.254124
C1_13 C 0.149379 0.444295 0.27428
C2_13 C 0.136595 0.408109 0.277119
C3_13 C 0.111321 0.41365 0.301338
O1_10 O 0.166667 0.461967 0.29502
O2_14 O 0.24168 0.47437 0.25832
O3_12 O 0.171694 0.449841 0.250052
O4_17 O 0.273603 0.396962 0.273603
O5_17 O 0.324311 0.449862 0.324309
O6_24 O 0.21451 0.500 0.238427
C4_13 C 0.055705 0.350621 0.27428
C5_13 C 0.091891 0.363405 0.277119
C6_13 C 0.08635 0.388679 0.301338
O7_10 O 0.038033 0.333333 0.29502
S2_14 S 0.245876 0.371342 0.371342
C7_14 C 0.22572 0.350621 0.444295
C8_14 C 0.222881 0.363405 0.408109
C9_14 C 0.198662 0.388679 0.41365
O9_11 O 0.20498 0.333333 0.461967
O10_14 O 0.249948 0.328306 0.449841
C10_14 C 0.22572 0.444295 0.350621
C11_14 C 0.222881 0.408109 0.363405
C12_14 C 0.198662 0.41365 0.388679
O11_11 O 0.20498 0.461967 0.333333
O12_13 O 0.249948 0.449841 0.328306
Zr3_9 Zr 0.215111 0.450279 0.215109
O13_17 O 0.226397 0.396962 0.226397
O14_17 O 0.175691 0.449862 0.175689
O15_24 O 0.261573 0.500 0.28549
Zr5_14 Zr 0.284891 0.549721 0.284889
Zr6_10 Zr 0.284891 0.284889 0.450279
Zr7_14 Zr 0.215111 0.549721 0.215109
Zr8_13 Zr 0.2068 0.2932 0.500
Zr9_13 Zr -0.000 0.2932 0.2932
O16_15 O 0.166667 0.538033 0.29502
O17_15 O 0.20498 0.538033 0.333333
O18_15 O 0.24168 0.52563 0.25832
O19_17 O 0.25832 0.47437 0.24168
O20_16 O 0.328306 0.449841 0.249948
O21_16 O 0.250052 0.449841 0.171694
O22_24 O 0.28549 0.500 0.261573
O23_24 O 0.238427 0.500 0.21451
H1_13 H 0.111167 0.435636 0.318739
H2_13 H 0.0643636 0.388833 0.318739
H7_14 H 0.181261 0.388833 0.435636
H8_14 H 0.181261 0.435636 0.388833
Zr9_14 Zr 1.000 0.2932 0.2932
S1_14 S 0.754124 0.628658 0.371342
C1_14 C 0.77428 0.649379 0.444295
C2_14 C 0.777119 0.636595 0.408109
C3_14 C 0.801338 0.611321 0.41365
O1_11 O 0.79502 0.666667 0.461967
O2_15 O 0.75832 0.74168 0.47437
O3_13 O 0.750052 0.671694 0.449841
O4_18 O 0.773603 0.773603 0.396962
O5_18 O 0.824309 0.824311 0.449862
O6_25 O 0.738427 0.71451 0.500
C4_14 C 0.77428 0.555705 0.350621
C5_14 C 0.777119 0.591891 0.363405
C6_14 C 0.801338 0.58635 0.388679
O7_11 O 0.79502 0.538033 0.333333
O8_12 O 0.750052 0.550159 0.328306
Zr3_10 Zr 0.715109 0.715111 0.450279
O13_18 O 0.726397 0.726397 0.396962
O14_18 O 0.675689 0.675691 0.449862
O15_25 O 0.78549 0.761573 0.500
Zr4_9 Zr 0.715109 0.549721 0.284889
Zr5_15 Zr 0.784889 0.784891 0.549721
Zr7_15 Zr 0.715109 0.715111 0.549721
O16_16 O 0.79502 0.666667 0.538033
O17_16 O 0.833333 0.70498 0.538033
O18_16 O 0.75832 0.74168 0.52563
O19_18 O 0.74168 0.75832 0.47437
O20_17 O 0.749948 0.828306 0.449841
O21_17 O 0.671694 0.750052 0.449841
O22_25 O 0.761573 0.78549 0.500
O23_25 O 0.71451 0.738427 0.500
H1_14 H 0.818739 0.611167 0.435636
H2_14 H 0.818739 0.564364 0.388833
O16_17 O 0.038033 0.29502 0.666667
O17_17 O 0.038033 0.333333 0.70498
O18_17 O 0.02563 0.25832 0.74168
S1_15 S 0.871342 0.254124 0.628658
C1_15 C 0.944295 0.27428 0.649379
C2_15 C 0.908109 0.277119 0.636595
C3_15 C 0.91365 0.301338 0.611321
O1_12 O 0.961967 0.29502 0.666667
C4_15 C 0.850621 0.27428 0.555705
C5_15 C 0.863405 0.277119 0.591891
C6_15 C 0.888679 0.301338 0.58635
O7_12 O 0.833333 0.29502 0.538033
O8_13 O 0.828306 0.250052 0.550159
Zr4_10 Zr 0.784889 0.215109 0.549721
H1_15 H 0.935636 0.318739 0.611167
H2_15 H 0.888833 0.318739 0.564364
Zr1_10 Zr 0.215111 0.215109 0.450279
O2_16 O 0.24168 0.25832 0.47437
O4_19 O 0.226397 0.226397 0.396962
O5_19 O 0.175691 0.175689 0.449862
O6_26 O 0.261573 0.28549 0.500
S2_15 S 0.128658 0.254124 0.371342
C7_15 C 0.055705 0.27428 0.350621
C8_15 C 0.091891 0.277119 0.363405
C9_15 C 0.08635 0.301338 0.388679
O9_12 O 0.038033 0.29502 0.333333
C10_15 C 0.149379 0.27428 0.444295
C11_15 C 0.136595 0.277119 0.408109
C12_15 C 0.111321 0.301338 0.41365
O11_12 O 0.166667 0.29502 0.461967
O12_14 O 0.171694 0.250052 0.449841
O13_19 O 0.273603 0.273603 0.396962
O14_19 O 0.324311 0.324309 0.449862
O15_26 O 0.21451 0.238427 0.500
Zr5_16 Zr 0.215111 0.215109 0.549721
Zr7_16 Zr 0.284891 0.284889 0.549721
O16_18 O 0.20498 0.333333 0.538033
O17_18 O 0.166667 0.29502 0.538033
O18_18 O 0.24168 0.25832 0.52563
O19_19 O 0.25832 0.24168 0.47437
O20_18 O 0.250052 0.171694 0.449841
O21_18 O 0.328306 0.249948 0.449841
O22_26 O 0.238427 0.21451 0.500
O23_26 O 0.28549 0.261573 0.500
H7_15 H 0.0643636 0.318739 0.388833
H8_15 H 0.111167 0.318739 0.435636
S1_16 S 0.128658 0.745876 0.371342
C1_16 C 0.149379 0.72572 0.444295
C2_16 C 0.136595 0.722881 0.408109
C3_16 C 0.111321 0.698662 0.41365
O3_14 O 0.171694 0.749948 0.449841
O4_20 O 0.273603 0.726397 0.396962
O5_20 O 0.324311 0.675691 0.449862
C4_16 C 0.055705 0.72572 0.350621
C5_16 C 0.091891 0.722881 0.363405
C6_16 C 0.08635 0.698662 0.388679
O8_14 O 0.050159 0.749948 0.328306
S2_16 S 0.245876 0.628658 0.371342
C7_16 C 0.22572 0.555705 0.350621
C8_16 C 0.222881 0.591891 0.363405
C9_16 C 0.198662 0.58635 0.388679
O10_15 O 0.249948 0.550159 0.328306
C10_16 C 0.22572 0.649379 0.444295
C11_16 C 0.222881 0.636595 0.408109
C12_16 C 0.198662 0.611321 0.41365
O12_15 O 0.249948 0.671694 0.449841
O13_20 O 0.226397 0.773603 0.396962
O14_20 O 0.175691 0.824311 0.449862
O19_20 O 0.25832 0.75832 0.47437
O20_19 O 0.328306 0.750052 0.449841
O21_19 O 0.250052 0.828306 0.449841
H1_16 H 0.111167 0.681261 0.435636
H2_16 H 0.0643636 0.681261 0.388833
H7_16 H 0.181261 0.564364 0.388833
H8_16 H 0.181261 0.611167 0.435636
S1_17 S 0.871342 0.628658 0.745876
C1_17 C 0.944295 0.649379 0.72572
C2_17 C 0.908109 0.636595 0.722881
C3_17 C 0.91365 0.611321 0.698662
O3_15 O 0.949841 0.671694 0.749948
O4_21 O 0.896962 0.773603 0.726397
O5_21 O 0.949862 0.824311 0.675691
C4_17 C 0.850621 0.555705 0.72572
C5_17 C 0.863405 0.591891 0.722881
C6_17 C 0.888679 0.58635 0.698662
O8_15 O 0.828306 0.550159 0.749948
S2_17 S 0.871342 0.745876 0.628658
C7_17 C 0.850621 0.72572 0.555705
C8_17 C 0.863405 0.722881 0.591891
C9_17 C 0.888679 0.698662 0.58635
O10_16 O 0.828306 0.749948 0.550159
C10_17 C 0.944295 0.72572 0.649379
C11_17 C 0.908109 0.722881 0.636595
C12_17 C 0.91365 0.698662 0.611321
O12_16 O 0.949841 0.749948 0.671694
O13_21 O 0.896962 0.726397 0.773603
O14_21 O 0.949862 0.675691 0.824311
O19_21 O 0.97437 0.75832 0.75832
O20_20 O 0.949841 0.828306 0.750052
O21_20 O 0.949841 0.750052 0.828306
H1_17 H 0.935636 0.611167 0.681261
H2_17 H 0.888833 0.564364 0.681261
H7_17 H 0.888833 0.681261 0.564364
H8_17 H 0.935636 0.681261 0.611167
S1_18 S 0.245876 0.371342 0.628658
C1_18 C 0.22572 0.444295 0.649379
C2_18 C 0.222881 0.408109 0.636595
C3_18 C 0.198662 0.41365 0.611321
O3_16 O 0.249948 0.449841 0.671694
O4_22 O 0.226397 0.396962 0.773603
O5_22 O 0.175691 0.449862 0.824311
C4_18 C 0.22572 0.350621 0.555705
C5_18 C 0.222881 0.363405 0.591891
C6_18 C 0.198662 0.388679 0.58635
O8_16 O 0.249948 0.328306 0.550159
S2_18 S 0.128658 0.371342 0.745876
C7_18 C 0.055705 0.350621 0.72572
C8_18 C 0.091891 0.363405 0.722881
C9_18 C 0.08635 0.388679 0.698662
O10_17 O 0.050159 0.328306 0.749948
C10_18 C 0.149379 0.444295 0.72572
C11_18 C 0.136595 0.408109 0.722881
C12_18 C 0.111321 0.41365 0.698662
O12_17 O 0.171694 0.449841 0.749948
O13_22 O 0.273603 0.396962 0.726397
O14_22 O 0.324311 0.449862 0.675691
O19_22 O 0.25832 0.47437 0.75832
O20_21 O 0.250052 0.449841 0.828306
O21_21 O 0.328306 0.449841 0.750052
H1_18 H 0.181261 0.435636 0.611167
H2_18 H 0.181261 0.388833 0.564364
H7_18 H 0.0643636 0.388833 0.681261
H8_18 H 0.111167 0.435636 0.681261
Zr2_14 Zr 0.7068 0.2068 0.500
S1_19 S 0.745876 0.128658 0.628658
C1_19 C 0.72572 0.149379 0.555705
C2_19 C 0.722881 0.136595 0.591891
C3_19 C 0.698662 0.111321 0.58635
O1_13 O 0.70498 0.166667 0.538033
O2_17 O 0.74168 0.24168 0.52563
O3_17 O 0.749948 0.171694 0.550159
O4_23 O 0.726397 0.273603 0.603038
O5_23 O 0.675691 0.324311 0.550138
O6_27 O 0.761573 0.21451 0.500
C4_19 C 0.72572 0.055705 0.649379
C5_19 C 0.722881 0.091891 0.636595
C6_19 C 0.698662 0.08635 0.611321
O7_13 O 0.70498 0.038033 0.666667
O8_17 O 0.749948 0.050159 0.671694
S2_19 S 0.628658 0.245876 0.628658
C7_19 C 0.555705 0.22572 0.649379
C8_19 C 0.591891 0.222881 0.636595
C9_19 C 0.58635 0.198662 0.611321
O9_13 O 0.538033 0.20498 0.666667
O10_18 O 0.550159 0.249948 0.671694
C10_19 C 0.649379 0.22572 0.555705
C11_19 C 0.636595 0.222881 0.591891
C12_19 C 0.611321 0.198662 0.58635
O11_13 O 0.666667 0.20498 0.538033
O12_18 O 0.671694 0.249948 0.550159
O13_23 O 0.773603 0.226397 0.603038
O14_23 O 0.824311 0.175691 0.550138
O15_27 O 0.71451 0.261573 0.500
Zr5_17 Zr 0.715111 0.284891 0.450279
Zr6_11 Zr 0.549721 0.284891 0.715111
Zr7_17 Zr 0.784891 0.215111 0.450279
Zr8_14 Zr 0.500 0.2068 0.7068
Zr9_15 Zr 0.7068 -0.000 0.7068
O16_19 O 0.70498 0.166667 0.461967
O17_19 O 0.666667 0.20498 0.461967
O18_19 O 0.74168 0.24168 0.47437
O19_23 O 0.75832 0.25832 0.52563
O22_27 O 0.738427 0.28549 0.500
O23_27 O 0.78549 0.238427 0.500
H1_19 H 0.681261 0.111167 0.564364
H2_19 H 0.681261 0.0643636 0.611167
H7_19 H 0.564364 0.181261 0.611167
H8_19 H 0.611167 0.181261 0.564364
Zr9_16 Zr 0.7068 1.000 0.7068
Zr1_11 Zr 0.549721 0.215111 0.784891
O2_18 O 0.52563 0.24168 0.74168
O4_24 O 0.603038 0.226397 0.773603
O5_24 O 0.550138 0.175691 0.824311
O6_28 O 0.500 0.261573 0.71451
S2_20 S 0.628658 0.128658 0.745876
C7_20 C 0.649379 0.055705 0.72572
C8_20 C 0.636595 0.091891 0.722881
C9_20 C 0.611321 0.08635 0.698662
O9_14 O 0.666667 0.038033 0.70498
O10_19 O 0.671694 0.050159 0.749948
C10_20 C 0.555705 0.149379 0.72572
C11_20 C 0.591891 0.136595 0.722881
C12_20 C 0.58635 0.111321 0.698662
O11_14 O 0.538033 0.166667 0.70498
O12_19 O 0.550159 0.171694 0.749948
O13_24 O 0.603038 0.273603 0.726397
O14_24 O 0.550138 0.324311 0.675691
O15_28 O 0.500 0.21451 0.761573
Zr5_18 Zr 0.450279 0.215111 0.784891
Zr7_18 Zr 0.450279 0.284891 0.715111
O16_20 O 0.461967 0.20498 0.666667
O17_20 O 0.461967 0.166667 0.70498
O18_20 O 0.47437 0.24168 0.74168
O19_24 O 0.52563 0.25832 0.75832
O20_22 O 0.550159 0.250052 0.828306
O21_22 O 0.550159 0.328306 0.750052
O22_28 O 0.500 0.238427 0.78549
O23_28 O 0.500 0.28549 0.738427
H7_20 H 0.611167 0.0643636 0.681261
H8_20 H 0.564364 0.111167 0.681261
O2_19 O 0.74168 0.02563 0.74168
O4_25 O 0.773603 0.103038 0.726397
O5_25 O 0.824311 0.050138 0.675691
O6_29 O 0.71451 -0.000 0.761573
O13_25 O 0.726397 0.103038 0.773603
O14_25 O 0.675691 0.050138 0.824311
O15_29 O 0.761573 -0.000 0.71451
O19_25 O 0.75832 0.02563 0.75832
O22_29 O 0.78549 -0.000 0.738427
O23_29 O 0.738427 0.000 0.78549
O6_30 O 0.71451 1.000 0.761573
O15_30 O 0.761573 1.000 0.71451
Zr5_19 Zr 0.784891 0.950279 0.715111
Zr7_19 Zr 0.715111 0.950279 0.784891
O16_21 O 0.666667 0.961967 0.70498
O17_21 O 0.70498 0.961967 0.666667
O18_21 O 0.74168 0.97437 0.74168
O22_30 O 0.78549 1.000 0.738427
O23_30 O 0.738427 1.000 0.78549
Zr1_12 Zr 0.450279 0.215111 0.215109
Zr2_15 Zr 0.500 0.2068 0.2932
S1_20 S 0.371342 0.245876 0.371342
C1_20 C 0.444295 0.22572 0.350621
C2_20 C 0.408109 0.222881 0.363405
C3_20 C 0.41365 0.198662 0.388679
O1_14 O 0.461967 0.20498 0.333333
O2_20 O 0.47437 0.24168 0.25832
O3_18 O 0.449841 0.249948 0.328306
O4_26 O 0.396962 0.226397 0.226397
O5_26 O 0.449862 0.175691 0.175689
O6_31 O 0.500 0.261573 0.28549
C4_20 C 0.350621 0.22572 0.444295
C5_20 C 0.363405 0.222881 0.408109
C6_20 C 0.388679 0.198662 0.41365
O7_14 O 0.333333 0.20498 0.461967
S2_21 S 0.371342 0.128658 0.254124
C7_21 C 0.350621 0.055705 0.27428
C8_21 C 0.363405 0.091891 0.277119
C9_21 C 0.388679 0.08635 0.301338
O9_15 O 0.333333 0.038033 0.29502
C10_21 C 0.444295 0.149379 0.27428
C11_21 C 0.408109 0.136595 0.277119
C12_21 C 0.41365 0.111321 0.301338
O11_15 O 0.461967 0.166667 0.29502
O12_20 O 0.449841 0.171694 0.250052
Zr3_11 Zr 0.450279 0.284891 0.284889
O13_26 O 0.396962 0.273603 0.273603
O14_26 O 0.449862 0.324311 0.324309
O15_31 O 0.500 0.21451 0.238427
Zr5_20 Zr 0.549721 0.215111 0.215109
Zr7_20 Zr 0.549721 0.284891 0.284889
Zr8_15 Zr 0.2932 -0.000 0.2932
Zr9_17 Zr 0.2932 0.2068 0.500
O16_22 O 0.538033 0.20498 0.333333
O17_22 O 0.538033 0.166667 0.29502
O18_22 O 0.52563 0.24168 0.25832
O19_26 O 0.47437 0.25832 0.24168
O20_23 O 0.449841 0.250052 0.171694
O21_23 O 0.449841 0.328306 0.249948
O22_31 O 0.500 0.238427 0.21451
O23_31 O 0.500 0.28549 0.261573
H1_20 H 0.435636 0.181261 0.388833
H2_20 H 0.388833 0.181261 0.435636
H7_21 H 0.388833 0.0643636 0.318739
H8_21 H 0.435636 0.111167 0.318739
Zr8_16 Zr 0.2932 1.000 0.2932
Zr2_16 Zr 0.2932 -0.000 0.7068
O16_23 O 0.333333 0.038033 0.70498
O17_23 O 0.29502 0.038033 0.666667
O18_23 O 0.25832 0.02563 0.74168
Zr2_17 Zr 0.2932 1.000 0.7068
S1_21 S 0.371342 0.871342 0.745876
C1_21 C 0.350621 0.944295 0.72572
C2_21 C 0.363405 0.908109 0.722881
C3_21 C 0.388679 0.91365 0.698662
O1_15 O 0.333333 0.961967 0.70498
C4_21 C 0.444295 0.850621 0.72572
C5_21 C 0.408109 0.863405 0.722881
C6_21 C 0.41365 0.888679 0.698662
O7_15 O 0.461967 0.833333 0.70498
O8_18 O 0.449841 0.828306 0.749948
S2_22 S 0.254124 0.871342 0.628658
C7_22 C 0.27428 0.850621 0.555705
C8_22 C 0.277119 0.863405 0.591891
C9_22 C 0.301338 0.888679 0.58635
O9_16 O 0.29502 0.833333 0.538033
C10_22 C 0.27428 0.944295 0.649379
C11_22 C 0.277119 0.908109 0.636595
C12_22 C 0.301338 0.91365 0.611321
O11_16 O 0.29502 0.961967 0.666667
Zr4_11 Zr 0.450279 0.784889 0.784891
Zr8_17 Zr 0.2932 0.7932 0.500
Zr9_18 Zr 0.500 0.7932 0.7068
H1_21 H 0.388833 0.935636 0.681261
H2_21 H 0.435636 0.888833 0.681261
H7_22 H 0.318739 0.888833 0.564364
H8_22 H 0.318739 0.935636 0.611167
Zr2_18 Zr 0.7068 0.000 0.2932
O16_24 O 0.666667 0.038033 0.29502
O17_24 O 0.70498 0.038033 0.333333
O18_24 O 0.74168 0.02563 0.25832
Zr2_19 Zr 0.7068 1.000 0.2932
S1_22 S 0.628658 0.871342 0.254124
C1_22 C 0.649379 0.944295 0.27428
C2_22 C 0.636595 0.908109 0.277119
C3_22 C 0.611321 0.91365 0.301338
O1_16 O 0.666667 0.961967 0.29502
C4_22 C 0.555705 0.850621 0.27428
C5_22 C 0.591891 0.863405 0.277119
C6_22 C 0.58635 0.888679 0.301338
O7_16 O 0.538033 0.833333 0.29502
O8_19 O 0.550159 0.828306 0.250052
S2_23 S 0.745876 0.871342 0.371342
C7_23 C 0.72572 0.850621 0.444295
C8_23 C 0.722881 0.863405 0.408109
C9_23 C 0.698662 0.888679 0.41365
O9_17 O 0.70498 0.833333 0.461967
C10_23 C 0.72572 0.944295 0.350621
C11_23 C 0.722881 0.908109 0.363405
C12_23 C 0.698662 0.91365 0.388679
O11_17 O 0.70498 0.961967 0.333333
Zr4_12 Zr 0.549721 0.784889 0.215109
Zr8_18 Zr 0.7068 0.7932 0.500
Zr9_19 Zr 0.500 0.7932 0.2932
H1_22 H 0.611167 0.935636 0.318739
H2_22 H 0.564364 0.888833 0.318739
H7_23 H 0.681261 0.888833 0.435636
H8_23 H 0.681261 0.935636 0.388833
S1_23 S 0.254124 0.128658 0.371342
C1_23 C 0.27428 0.149379 0.444295
C2_23 C 0.277119 0.136595 0.408109
C3_23 C 0.301338 0.111321 0.41365
O1_17 O 0.29502 0.166667 0.461967
C4_23 C 0.27428 0.055705 0.350621
C5_23 C 0.277119 0.091891 0.363405
C6_23 C 0.301338 0.08635 0.388679
O7_17 O 0.29502 0.038033 0.333333
O16_25 O 0.29502 0.166667 0.538033
O17_25 O 0.333333 0.20498 0.538033
O18_25 O 0.25832 0.24168 0.52563
H1_23 H 0.318739 0.111167 0.435636
H2_23 H 0.318739 0.0643636 0.388833
S1_24 S 0.371342 0.754124 0.628658
C1_24 C 0.444295 0.77428 0.649379
C2_24 C 0.408109 0.777119 0.636595
C3_24 C 0.41365 0.801338 0.611321
O1_18 O 0.461967 0.79502 0.666667
O2_21 O 0.47437 0.75832 0.74168
O3_19 O 0.449841 0.750052 0.671694
O4_27 O 0.396962 0.773603 0.773603
O5_27 O 0.449862 0.824309 0.824311
O6_32 O 0.500 0.738427 0.71451
C4_24 C 0.350621 0.77428 0.555705
C5_24 C 0.363405 0.777119 0.591891
C6_24 C 0.388679 0.801338 0.58635
O7_18 O 0.333333 0.79502 0.538033
Zr3_12 Zr 0.450279 0.715109 0.715111
O13_27 O 0.396962 0.726397 0.726397
O14_27 O 0.449862 0.675689 0.675691
O15_32 O 0.500 0.78549 0.761573
Zr5_21 Zr 0.549721 0.784889 0.784891
Zr7_21 Zr 0.549721 0.715109 0.715111
O16_26 O 0.538033 0.79502 0.666667
O17_26 O 0.538033 0.833333 0.70498
O18_26 O 0.52563 0.75832 0.74168
O19_27 O 0.47437 0.74168 0.75832
O20_24 O 0.449841 0.749948 0.828306
O21_24 O 0.449841 0.671694 0.750052
O22_32 O 0.500 0.761573 0.78549
O23_32 O 0.500 0.71451 0.738427
H1_24 H 0.435636 0.818739 0.611167
H2_24 H 0.388833 0.818739 0.564364
S2_24 S 0.628658 0.754124 0.371342
C7_24 C 0.555705 0.77428 0.350621
C8_24 C 0.591891 0.777119 0.363405
C9_24 C 0.58635 0.801338 0.388679
O9_18 O 0.538033 0.79502 0.333333
O10_20 O 0.550159 0.750052 0.328306
C10_24 C 0.649379 0.77428 0.444295
C11_24 C 0.636595 0.777119 0.408109
C12_24 C 0.611321 0.801338 0.41365
O11_18 O 0.666667 0.79502 0.461967
Zr6_12 Zr 0.549721 0.715109 0.284889
O16_27 O 0.70498 0.833333 0.538033
O17_27 O 0.666667 0.79502 0.538033
O18_27 O 0.74168 0.75832 0.52563
H7_24 H 0.564364 0.818739 0.388833
H8_24 H 0.611167 0.818739 0.435636
S1_25 S 0.628658 0.245876 0.371342
C1_25 C 0.649379 0.22572 0.444295
C2_25 C 0.636595 0.222881 0.408109
C3_25 C 0.611321 0.198662 0.41365
O3_20 O 0.671694 0.249948 0.449841
O4_28 O 0.773603 0.226397 0.396962
O5_28 O 0.824311 0.175691 0.449862
C4_25 C 0.555705 0.22572 0.350621
C5_25 C 0.591891 0.222881 0.363405
C6_25 C 0.58635 0.198662 0.388679
O8_20 O 0.550159 0.249948 0.328306
S2_25 S 0.745876 0.128658 0.371342
C7_25 C 0.72572 0.055705 0.350621
C8_25 C 0.722881 0.091891 0.363405
C9_25 C 0.698662 0.08635 0.388679
O10_21 O 0.749948 0.050159 0.328306
C10_25 C 0.72572 0.149379 0.444295
C11_25 C 0.722881 0.136595 0.408109
C12_25 C 0.698662 0.111321 0.41365
O12_21 O 0.749948 0.171694 0.449841
O13_28 O 0.726397 0.273603 0.396962
O14_28 O 0.675691 0.324311 0.449862
O19_28 O 0.75832 0.25832 0.47437
O20_25 O 0.828306 0.250052 0.449841
O21_25 O 0.750052 0.328306 0.449841
H1_25 H 0.611167 0.181261 0.435636
H2_25 H 0.564364 0.181261 0.388833
H7_25 H 0.681261 0.0643636 0.388833
H8_25 H 0.681261 0.111167 0.435636
S1_26 S 0.371342 0.128658 0.745876
C1_26 C 0.444295 0.149379 0.72572
C2_26 C 0.408109 0.136595 0.722881
C3_26 C 0.41365 0.111321 0.698662
O3_21 O 0.449841 0.171694 0.749948
O4_29 O 0.396962 0.273603 0.726397
O5_29 O 0.449862 0.324311 0.675691
C4_26 C 0.350621 0.055705 0.72572
C5_26 C 0.363405 0.091891 0.722881
C6_26 C 0.388679 0.08635 0.698662
O8_21 O 0.328306 0.050159 0.749948
S2_26 S 0.371342 0.245876 0.628658
C7_26 C 0.350621 0.22572 0.555705
C8_26 C 0.363405 0.222881 0.591891
C9_26 C 0.388679 0.198662 0.58635
O10_22 O 0.328306 0.249948 0.550159
C10_26 C 0.444295 0.22572 0.649379
C11_26 C 0.408109 0.222881 0.636595
C12_26 C 0.41365 0.198662 0.611321
O12_22 O 0.449841 0.249948 0.671694
O13_29 O 0.396962 0.226397 0.773603
O14_29 O 0.449862 0.175691 0.824311
O19_29 O 0.47437 0.25832 0.75832
O20_26 O 0.449841 0.328306 0.750052
O21_26 O 0.449841 0.250052 0.828306
H1_26 H 0.435636 0.111167 0.681261
H2_26 H 0.388833 0.0643636 0.681261
H7_26 H 0.388833 0.181261 0.564364
H8_26 H 0.435636 0.181261 0.611167
S1_27 S 0.745876 0.871342 0.628658
C1_27 C 0.72572 0.944295 0.649379
C2_27 C 0.722881 0.908109 0.636595
C3_27 C 0.698662 0.91365 0.611321
O3_22 O 0.749948 0.949841 0.671694
O4_30 O 0.726397 0.896962 0.773603
O5_30 O 0.675691 0.949862 0.824311
C4_27 C 0.72572 0.850621 0.555705
C5_27 C 0.722881 0.863405 0.591891
C6_27 C 0.698662 0.888679 0.58635
O8_22 O 0.749948 0.828306 0.550159
S2_27 S 0.628658 0.871342 0.745876
C7_27 C 0.555705 0.850621 0.72572
C8_27 C 0.591891 0.863405 0.722881
C9_27 C 0.58635 0.888679 0.698662
O10_23 O 0.550159 0.828306 0.749948
C10_27 C 0.649379 0.944295 0.72572
C11_27 C 0.636595 0.908109 0.722881
C12_27 C 0.611321 0.91365 0.698662
O12_23 O 0.671694 0.949841 0.749948
O13_30 O 0.773603 0.896962 0.726397
O14_30 O 0.824311 0.949862 0.675691
O19_30 O 0.75832 0.97437 0.75832
O20_27 O 0.750052 0.949841 0.828306
O21_27 O 0.828306 0.949841 0.750052
H1_27 H 0.681261 0.935636 0.611167
H2_27 H 0.681261 0.888833 0.564364
H7_27 H 0.564364 0.888833 0.681261
H8_27 H 0.611167 0.935636 0.681261
Zr2_20 Zr 0.7068 0.7068 0.000
S1_28 S 0.745876 0.628658 0.128658
C1_28 C 0.72572 0.649379 0.055705
C2_28 C 0.722881 0.636595 0.091891
C3_28 C 0.698662 0.611321 0.08635
O1_19 O 0.70498 0.666667 0.038033
O2_22 O 0.74168 0.74168 0.02563
O3_23 O 0.749948 0.671694 0.050159
O4_31 O 0.726397 0.773603 0.103038
O5_31 O 0.675691 0.824311 0.050138
O6_33 O 0.761573 0.71451 0.000
C4_28 C 0.72572 0.555705 0.149379
C5_28 C 0.722881 0.591891 0.136595
C6_28 C 0.698662 0.58635 0.111321
O7_19 O 0.70498 0.538033 0.166667
O8_23 O 0.749948 0.550159 0.171694
S2_28 S 0.628658 0.745876 0.128658
C7_28 C 0.555705 0.72572 0.149379
C8_28 C 0.591891 0.722881 0.136595
C9_28 C 0.58635 0.698662 0.111321
O9_19 O 0.538033 0.70498 0.166667
O10_24 O 0.550159 0.749948 0.171694
C10_28 C 0.649379 0.72572 0.055705
C11_28 C 0.636595 0.722881 0.091891
C12_28 C 0.611321 0.698662 0.08635
O11_19 O 0.666667 0.70498 0.038033
O12_24 O 0.671694 0.749948 0.050159
O13_31 O 0.773603 0.726397 0.103038
O14_31 O 0.824311 0.675691 0.050138
O15_33 O 0.71451 0.761573 0.000
Zr8_19 Zr 0.500 0.7068 0.2068
Zr9_20 Zr 0.7068 0.500 0.2068
O19_31 O 0.75832 0.75832 0.02563
O22_33 O 0.738427 0.78549 0.000
O23_33 O 0.78549 0.738427 0.000
H1_28 H 0.681261 0.611167 0.0643636
H2_28 H 0.681261 0.564364 0.111167
H7_28 H 0.564364 0.681261 0.111167
H8_28 H 0.611167 0.681261 0.0643636
Zr2_21 Zr 0.7068 0.7068 1.000
O6_34 O 0.761573 0.71451 1.000
O15_34 O 0.71451 0.761573 1.000
Zr5_22 Zr 0.715111 0.784891 0.950279
Zr7_22 Zr 0.784891 0.715111 0.950279
O16_28 O 0.70498 0.666667 0.961967
O17_28 O 0.666667 0.70498 0.961967
O18_28 O 0.74168 0.74168 0.97437
O22_34 O 0.738427 0.78549 1.000
O23_34 O 0.78549 0.738427 1.000
O2_23 O 0.52563 0.74168 0.24168
O4_32 O 0.603038 0.726397 0.273603
O5_32 O 0.550138 0.675691 0.324311
O6_35 O 0.500 0.761573 0.21451
S2_29 S 0.628658 0.628658 0.245876
C7_29 C 0.649379 0.555705 0.22572
C8_29 C 0.636595 0.591891 0.222881
C9_29 C 0.611321 0.58635 0.198662
O9_20 O 0.666667 0.538033 0.20498
O10_25 O 0.671694 0.550159 0.249948
C10_29 C 0.555705 0.649379 0.22572
C11_29 C 0.591891 0.636595 0.222881
C12_29 C 0.58635 0.611321 0.198662
O11_20 O 0.538033 0.666667 0.20498
O12_25 O 0.550159 0.671694 0.249948
O13_32 O 0.603038 0.773603 0.226397
O14_32 O 0.550138 0.824311 0.175691
O15_35 O 0.500 0.71451 0.261573
Zr5_23 Zr 0.450279 0.715111 0.284891
Zr7_23 Zr 0.450279 0.784891 0.215111
O16_29 O 0.461967 0.70498 0.166667
O17_29 O 0.461967 0.666667 0.20498
O18_29 O 0.47437 0.74168 0.24168
O19_32 O 0.52563 0.75832 0.25832
O22_35 O 0.500 0.738427 0.28549
O23_35 O 0.500 0.78549 0.238427
H7_29 H 0.611167 0.564364 0.181261
H8_29 H 0.564364 0.611167 0.181261
O2_24 O 0.74168 0.52563 0.24168
O4_33 O 0.773603 0.603038 0.226397
O5_33 O 0.824311 0.550138 0.175691
O6_36 O 0.71451 0.500 0.261573
O13_33 O 0.726397 0.603038 0.273603
O14_33 O 0.675691 0.550138 0.324311
O15_36 O 0.761573 0.500 0.21451
Zr5_24 Zr 0.784891 0.450279 0.215111
Zr7_24 Zr 0.715111 0.450279 0.284891
O16_30 O 0.666667 0.461967 0.20498
O17_30 O 0.70498 0.461967 0.166667
O18_30 O 0.74168 0.47437 0.24168
O19_33 O 0.75832 0.52563 0.25832
O22_36 O 0.78549 0.500 0.238427
O23_36 O 0.738427 0.500 0.28549
Zr9_21 Zr 0.2932 0.7068 0.000
Zr2_22 Zr 0.500 0.7068 0.7932
S1_29 S 0.371342 0.745876 0.871342
C1_29 C 0.444295 0.72572 0.850621
C2_29 C 0.408109 0.722881 0.863405
C3_29 C 0.41365 0.698662 0.888679
O1_20 O 0.461967 0.70498 0.833333
C4_29 C 0.350621 0.72572 0.944295
C5_29 C 0.363405 0.722881 0.908109
C6_29 C 0.388679 0.698662 0.91365
O7_20 O 0.333333 0.70498 0.961967
S2_30 S 0.371342 0.628658 0.754124
C7_30 C 0.350621 0.555705 0.77428
C8_30 C 0.363405 0.591891 0.777119
C9_30 C 0.388679 0.58635 0.801338
O9_21 O 0.333333 0.538033 0.79502
C10_30 C 0.444295 0.649379 0.77428
C11_30 C 0.408109 0.636595 0.777119
C12_30 C 0.41365 0.611321 0.801338
O11_21 O 0.461967 0.666667 0.79502
Zr8_20 Zr 0.2932 0.500 0.7932
Zr9_22 Zr 0.2932 0.7068 1.000
O16_31 O 0.538033 0.70498 0.833333
O17_31 O 0.538033 0.666667 0.79502
O18_31 O 0.52563 0.74168 0.75832
H1_29 H 0.435636 0.681261 0.888833
H2_29 H 0.388833 0.681261 0.935636
H7_30 H 0.388833 0.564364 0.818739
H8_30 H 0.435636 0.611167 0.818739
Zr2_23 Zr 0.2932 0.500 0.2068
S1_30 S 0.371342 0.371342 0.245876
C1_30 C 0.350621 0.444295 0.22572
C2_30 C 0.363405 0.408109 0.222881
C3_30 C 0.388679 0.41365 0.198662
O1_21 O 0.333333 0.461967 0.20498
C4_30 C 0.444295 0.350621 0.22572
C5_30 C 0.408109 0.363405 0.222881
C6_30 C 0.41365 0.388679 0.198662
O7_21 O 0.461967 0.333333 0.20498
S2_31 S 0.254124 0.371342 0.128658
C7_31 C 0.27428 0.350621 0.055705
C8_31 C 0.277119 0.363405 0.091891
C9_31 C 0.301338 0.388679 0.08635
O9_22 O 0.29502 0.333333 0.038033
C10_31 C 0.27428 0.444295 0.149379
C11_31 C 0.277119 0.408109 0.136595
C12_31 C 0.301338 0.41365 0.111321
O11_22 O 0.29502 0.461967 0.166667
Zr8_21 Zr 0.2932 0.2932 -0.000
Zr9_23 Zr 0.500 0.2932 0.2068
O16_32 O 0.333333 0.538033 0.20498
O17_32 O 0.29502 0.538033 0.166667
O18_32 O 0.25832 0.52563 0.24168
H1_30 H 0.388833 0.435636 0.181261
H2_30 H 0.435636 0.388833 0.181261
H7_31 H 0.318739 0.388833 0.0643636
H8_31 H 0.318739 0.435636 0.111167
Zr8_22 Zr 0.2932 0.2932 1.000
Zr8_23 Zr 0.7068 0.2932 0.000
Zr2_24 Zr 0.7068 0.500 0.7932
S1_31 S 0.628658 0.371342 0.754124
C1_31 C 0.649379 0.444295 0.77428
C2_31 C 0.636595 0.408109 0.777119
C3_31 C 0.611321 0.41365 0.801338
O1_22 O 0.666667 0.461967 0.79502
C4_31 C 0.555705 0.350621 0.77428
C5_31 C 0.591891 0.363405 0.777119
C6_31 C 0.58635 0.388679 0.801338
O7_22 O 0.538033 0.333333 0.79502
S2_32 S 0.745876 0.371342 0.871342
C7_32 C 0.72572 0.350621 0.944295
C8_32 C 0.722881 0.363405 0.908109
C9_32 C 0.698662 0.388679 0.91365
O9_23 O 0.70498 0.333333 0.961967
C10_32 C 0.72572 0.444295 0.850621
C11_32 C 0.722881 0.408109 0.863405
C12_32 C 0.698662 0.41365 0.888679
O11_23 O 0.70498 0.461967 0.833333
Zr8_24 Zr 0.7068 0.2932 1.000
Zr9_24 Zr 0.500 0.2932 0.7932
O16_33 O 0.666667 0.538033 0.79502
O17_33 O 0.70498 0.538033 0.833333
O18_33 O 0.74168 0.52563 0.75832
H1_31 H 0.611167 0.435636 0.818739
H2_31 H 0.564364 0.388833 0.818739
H7_32 H 0.681261 0.388833 0.935636
H8_32 H 0.681261 0.435636 0.888833
O16_34 O 0.29502 0.666667 0.038033
O17_34 O 0.333333 0.70498 0.038033
O18_34 O 0.25832 0.74168 0.02563
S1_32 S 0.254124 0.628658 0.871342
C1_32 C 0.27428 0.649379 0.944295
C2_32 C 0.277119 0.636595 0.908109
C3_32 C 0.301338 0.611321 0.91365
O1_23 O 0.29502 0.666667 0.961967
C4_32 C 0.27428 0.555705 0.850621
C5_32 C 0.277119 0.591891 0.863405
C6_32 C 0.301338 0.58635 0.888679
O7_23 O 0.29502 0.538033 0.833333
H1_32 H 0.318739 0.611167 0.935636
H2_32 H 0.318739 0.564364 0.888833
S1_33 S 0.371342 0.254124 0.128658
C1_33 C 0.444295 0.27428 0.149379
C2_33 C 0.408109 0.277119 0.136595
C3_33 C 0.41365 0.301338 0.111321
O1_24 O 0.461967 0.29502 0.166667
C4_33 C 0.350621 0.27428 0.055705
C5_33 C 0.363405 0.277119 0.091891
C6_33 C 0.388679 0.301338 0.08635
O7_24 O 0.333333 0.29502 0.038033
O16_35 O 0.538033 0.29502 0.166667
O17_35 O 0.538033 0.333333 0.20498
O18_35 O 0.52563 0.25832 0.24168
H1_33 H 0.435636 0.318739 0.111167
H2_33 H 0.388833 0.318739 0.0643636
O16_36 O 0.70498 0.333333 0.038033
O17_36 O 0.666667 0.29502 0.038033
O18_36 O 0.74168 0.25832 0.02563
S2_33 S 0.628658 0.254124 0.871342
C7_33 C 0.555705 0.27428 0.850621
C8_33 C 0.591891 0.277119 0.863405
C9_33 C 0.58635 0.301338 0.888679
O9_24 O 0.538033 0.29502 0.833333
C10_33 C 0.649379 0.27428 0.944295
C11_33 C 0.636595 0.277119 0.908109
C12_33 C 0.611321 0.301338 0.91365
O11_24 O 0.666667 0.29502 0.961967
H7_33 H 0.564364 0.318739 0.888833
H8_33 H 0.611167 0.318739 0.935636
S1_34 S 0.628658 0.745876 0.871342
C1_34 C 0.649379 0.72572 0.944295
C2_34 C 0.636595 0.722881 0.908109
C3_34 C 0.611321 0.698662 0.91365
O3_24 O 0.671694 0.749948 0.949841
O4_34 O 0.773603 0.726397 0.896962
O5_34 O 0.824311 0.675691 0.949862
C4_34 C 0.555705 0.72572 0.850621
C5_34 C 0.591891 0.722881 0.863405
C6_34 C 0.58635 0.698662 0.888679
O8_24 O 0.550159 0.749948 0.828306
S2_34 S 0.745876 0.628658 0.871342
C7_34 C 0.72572 0.555705 0.850621
C8_34 C 0.722881 0.591891 0.863405
C9_34 C 0.698662 0.58635 0.888679
O10_26 O 0.749948 0.550159 0.828306
C10_34 C 0.72572 0.649379 0.944295
C11_34 C 0.722881 0.636595 0.908109
C12_34 C 0.698662 0.611321 0.91365
O12_26 O 0.749948 0.671694 0.949841
O13_34 O 0.726397 0.773603 0.896962
O14_34 O 0.675691 0.824311 0.949862
O19_34 O 0.75832 0.75832 0.97437
O20_28 O 0.828306 0.750052 0.949841
O21_28 O 0.750052 0.828306 0.949841
H1_34 H 0.611167 0.681261 0.935636
H2_34 H 0.564364 0.681261 0.888833
H7_34 H 0.681261 0.564364 0.888833
H8_34 H 0.681261 0.611167 0.935636
S1_35 S 0.371342 0.628658 0.245876
C1_35 C 0.444295 0.649379 0.22572
C2_35 C 0.408109 0.636595 0.222881
C3_35 C 0.41365 0.611321 0.198662
O3_25 O 0.449841 0.671694 0.249948
O4_35 O 0.396962 0.773603 0.226397
O5_35 O 0.449862 0.824311 0.175691
C4_35 C 0.350621 0.555705 0.22572
C5_35 C 0.363405 0.591891 0.222881
C6_35 C 0.388679 0.58635 0.198662
O8_25 O 0.328306 0.550159 0.249948
S2_35 S 0.371342 0.745876 0.128658
C7_35 C 0.350621 0.72572 0.055705
C8_35 C 0.363405 0.722881 0.091891
C9_35 C 0.388679 0.698662 0.08635
O10_27 O 0.328306 0.749948 0.050159
C10_35 C 0.444295 0.72572 0.149379
C11_35 C 0.408109 0.722881 0.136595
C12_35 C 0.41365 0.698662 0.111321
O12_27 O 0.449841 0.749948 0.171694
O13_35 O 0.396962 0.726397 0.273603
O14_35 O 0.449862 0.675691 0.324311
O19_35 O 0.47437 0.75832 0.25832
O20_29 O 0.449841 0.828306 0.250052
O21_29 O 0.449841 0.750052 0.328306
H1_35 H 0.435636 0.611167 0.181261
H2_35 H 0.388833 0.564364 0.181261
H7_35 H 0.388833 0.681261 0.0643636
H8_35 H 0.435636 0.681261 0.111167
S1_36 S 0.745876 0.371342 0.128658
C1_36 C 0.72572 0.444295 0.149379
C2_36 C 0.722881 0.408109 0.136595
C3_36 C 0.698662 0.41365 0.111321
O3_26 O 0.749948 0.449841 0.171694
O4_36 O 0.726397 0.396962 0.273603
O5_36 O 0.675691 0.449862 0.324311
C4_36 C 0.72572 0.350621 0.055705
C5_36 C 0.722881 0.363405 0.091891
C6_36 C 0.698662 0.388679 0.08635
O8_26 O 0.749948 0.328306 0.050159
S2_36 S 0.628658 0.371342 0.245876
C7_36 C 0.555705 0.350621 0.22572
C8_36 C 0.591891 0.363405 0.222881
C9_36 C 0.58635 0.388679 0.198662
O10_28 O 0.550159 0.328306 0.249948
C10_36 C 0.649379 0.444295 0.22572
C11_36 C 0.636595 0.408109 0.222881
C12_36 C 0.611321 0.41365 0.198662
O12_28 O 0.671694 0.449841 0.249948
O13_36 O 0.773603 0.396962 0.226397
O14_36 O 0.824311 0.449862 0.175691
O19_36 O 0.75832 0.47437 0.25832
O20_30 O 0.750052 0.449841 0.328306
O21_30 O 0.828306 0.449841 0.250052
H1_36 H 0.681261 0.435636 0.111167
H2_36 H 0.681261 0.388833 0.0643636
H7_36 H 0.564364 0.388833 0.181261
H8_36 H 0.611167 0.435636 0.181261
O16_37 O 0.79502 0.833333 0.961967
O17_37 O 0.833333 0.79502 0.961967
O16_38 O 0.961967 0.79502 0.833333
O17_38 O 0.961967 0.833333 0.79502
O16_39 O 0.833333 0.961967 0.79502
O17_39 O 0.79502 0.961967 0.833333
S1_37 S 0.871342 0.754124 0.871342
C1_37 C 0.850621 0.77428 0.944295
C2_37 C 0.863405 0.777119 0.908109
C3_37 C 0.888679 0.801338 0.91365
C4_37 C 0.944295 0.77428 0.850621
C5_37 C 0.908109 0.777119 0.863405
C6_37 C 0.91365 0.801338 0.888679
S2_37 S 0.754124 0.871342 0.871342
C7_37 C 0.77428 0.944295 0.850621
C8_37 C 0.777119 0.908109 0.863405
C9_37 C 0.801338 0.91365 0.888679
C10_37 C 0.77428 0.850621 0.944295
C11_37 C 0.777119 0.863405 0.908109
C12_37 C 0.801338 0.888679 0.91365
H1_37 H 0.888833 0.818739 0.935636
H2_37 H 0.935636 0.818739 0.888833
H7_37 H 0.818739 0.935636 0.888833
H8_37 H 0.818739 0.888833 0.935636
S1_38 S 0.871342 0.871342 0.754124
C1_38 C 0.944295 0.850621 0.77428
C2_38 C 0.908109 0.863405 0.777119
C3_38 C 0.91365 0.888679 0.801338
C4_38 C 0.850621 0.944295 0.77428
C5_38 C 0.863405 0.908109 0.777119
C6_38 C 0.888679 0.91365 0.801338
H1_38 H 0.935636 0.888833 0.818739
H2_38 H 0.888833 0.935636 0.818739
O4_37 O 0.103038 0.726397 0.226397
O5_37 O 0.050138 0.675689 0.175691
S2_38 S 0.128658 0.754124 0.128658
C7_38 C 0.149379 0.77428 0.055705
C8_38 C 0.136595 0.777119 0.091891
C9_38 C 0.111321 0.801338 0.08635
O10_29 O 0.171694 0.750052 0.050159
C10_38 C 0.055705 0.77428 0.149379
C11_38 C 0.091891 0.777119 0.136595
C12_38 C 0.08635 0.801338 0.111321
O12_29 O 0.050159 0.750052 0.171694
O13_37 O 0.103038 0.773603 0.273603
O14_37 O 0.050138 0.824309 0.324311
O20_31 O 0.050159 0.671694 0.250052
H7_38 H 0.111167 0.818739 0.0643636
H8_38 H 0.0643636 0.818739 0.111167
O4_38 O 0.226397 0.103038 0.726397
O5_38 O 0.175691 0.050138 0.675689
S2_39 S 0.128658 0.128658 0.754124
C7_39 C 0.055705 0.149379 0.77428
C8_39 C 0.091891 0.136595 0.777119
C9_39 C 0.08635 0.111321 0.801338
O10_30 O 0.050159 0.171694 0.750052
C10_39 C 0.149379 0.055705 0.77428
C11_39 C 0.136595 0.091891 0.777119
C12_39 C 0.111321 0.08635 0.801338
O12_30 O 0.171694 0.050159 0.750052
O13_38 O 0.273603 0.103038 0.773603
O14_38 O 0.324311 0.050138 0.824309
O20_32 O 0.250052 0.050159 0.671694
H7_39 H 0.0643636 0.111167 0.818739
H8_39 H 0.111167 0.0643636 0.818739
S1_39 S 0.754124 0.128658 0.128658
C1_39 C 0.77428 0.055705 0.149379
C2_39 C 0.777119 0.091891 0.136595
C3_39 C 0.801338 0.08635 0.111321
O3_27 O 0.750052 0.050159 0.171694
O4_39 O 0.773603 0.103038 0.273603
O5_39 O 0.824309 0.050138 0.324311
C4_39 C 0.77428 0.149379 0.055705
C5_39 C 0.777119 0.136595 0.091891
C6_39 C 0.801338 0.111321 0.08635
O8_27 O 0.750052 0.171694 0.050159
O13_39 O 0.726397 0.103038 0.226397
O14_39 O 0.675689 0.050138 0.175691
O21_31 O 0.671694 0.050159 0.250052
H1_39 H 0.818739 0.0643636 0.111167
H2_39 H 0.818739 0.111167 0.0643636
O4_40 O 0.273603 0.773603 0.103038
O5_40 O 0.324311 0.824309 0.050138
O13_40 O 0.226397 0.726397 0.103038
O14_40 O 0.175691 0.675689 0.050138
O21_32 O 0.250052 0.671694 0.050159
O4_41 O 0.103038 0.273603 0.773603
O5_41 O 0.050138 0.324311 0.824309
O13_41 O 0.103038 0.226397 0.726397
O14_41 O 0.050138 0.175691 0.675689
O21_33 O 0.050159 0.250052 0.671694
O4_42 O 0.726397 0.226397 0.103038
O5_42 O 0.675689 0.175691 0.050138
O13_42 O 0.773603 0.273603 0.103038
O14_42 O 0.824309 0.324311 0.050138
O20_33 O 0.671694 0.250052 0.050159
O16_40 O 0.79502 0.333333 0.461967
O17_40 O 0.833333 0.29502 0.461967
O16_41 O 0.961967 0.29502 0.333333
O17_41 O 0.961967 0.333333 0.29502
O16_42 O 0.833333 0.461967 0.29502
O17_42 O 0.79502 0.461967 0.333333
S1_40 S 0.871342 0.254124 0.371342
C1_40 C 0.850621 0.27428 0.444295
C2_40 C 0.863405 0.277119 0.408109
C3_40 C 0.888679 0.301338 0.41365
C4_40 C 0.944295 0.27428 0.350621
C5_40 C 0.908109 0.277119 0.363405
C6_40 C 0.91365 0.301338 0.388679
S2_40 S 0.754124 0.371342 0.371342
C7_40 C 0.77428 0.444295 0.350621
C8_40 C 0.777119 0.408109 0.363405
C9_40 C 0.801338 0.41365 0.388679
C10_40 C 0.77428 0.350621 0.444295
C11_40 C 0.777119 0.363405 0.408109
C12_40 C 0.801338 0.388679 0.41365
H1_40 H 0.888833 0.318739 0.435636
H2_40 H 0.935636 0.318739 0.388833
H7_40 H 0.818739 0.435636 0.388833
H8_40 H 0.818739 0.388833 0.435636
S1_41 S 0.871342 0.371342 0.254124
C1_41 C 0.944295 0.350621 0.27428
C2_41 C 0.908109 0.363405 0.277119
C3_41 C 0.91365 0.388679 0.301338
C4_41 C 0.850621 0.444295 0.27428
C5_41 C 0.863405 0.408109 0.277119
C6_41 C 0.888679 0.41365 0.301338
H1_41 H 0.935636 0.388833 0.318739
H2_41 H 0.888833 0.435636 0.318739
S2_41 S 0.128658 0.254124 0.628658
C7_41 C 0.149379 0.27428 0.555705
C8_41 C 0.136595 0.277119 0.591891
C9_41 C 0.111321 0.301338 0.58635
O10_31 O 0.171694 0.250052 0.550159
C10_41 C 0.055705 0.27428 0.649379
C11_41 C 0.091891 0.277119 0.636595
C12_41 C 0.08635 0.301338 0.611321
H7_41 H 0.111167 0.318739 0.564364
H8_41 H 0.0643636 0.318739 0.611167
O4_43 O 0.226397 0.603038 0.226397
O5_43 O 0.175691 0.550138 0.175689
S2_42 S 0.128658 0.628658 0.254124
C7_42 C 0.055705 0.649379 0.27428
C8_42 C 0.091891 0.636595 0.277119
C9_42 C 0.08635 0.611321 0.301338
C10_42 C 0.149379 0.555705 0.27428
C11_42 C 0.136595 0.591891 0.277119
C12_42 C 0.111321 0.58635 0.301338
O12_31 O 0.171694 0.550159 0.250052
O13_43 O 0.273603 0.603038 0.273603
O14_43 O 0.324311 0.550138 0.324309
O20_34 O 0.250052 0.550159 0.171694
H7_42 H 0.0643636 0.611167 0.318739
H8_42 H 0.111167 0.564364 0.318739
S1_42 S 0.754124 0.628658 0.628658
C1_42 C 0.77428 0.555705 0.649379
C2_42 C 0.777119 0.591891 0.636595
C3_42 C 0.801338 0.58635 0.611321
O3_28 O 0.750052 0.550159 0.671694
O4_44 O 0.773603 0.603038 0.773603
O5_44 O 0.824309 0.550138 0.824311
C4_42 C 0.77428 0.649379 0.555705
C5_42 C 0.777119 0.636595 0.591891
C6_42 C 0.801338 0.611321 0.58635
O8_28 O 0.750052 0.671694 0.550159
O13_44 O 0.726397 0.603038 0.726397
O14_44 O 0.675689 0.550138 0.675691
O21_34 O 0.671694 0.550159 0.750052
H1_42 H 0.818739 0.564364 0.611167
H2_42 H 0.818739 0.611167 0.564364
O4_45 O 0.273603 0.273603 0.603038
O5_45 O 0.324311 0.324309 0.550138
O13_45 O 0.226397 0.226397 0.603038
O14_45 O 0.175691 0.175689 0.550138
O21_35 O 0.250052 0.171694 0.550159
O4_46 O 0.726397 0.726397 0.603038
O5_46 O 0.675689 0.675691 0.550138
O13_46 O 0.773603 0.773603 0.603038
O14_46 O 0.824309 0.824311 0.550138
O20_35 O 0.671694 0.750052 0.550159
O16_43 O 0.29502 0.833333 0.461967
O17_43 O 0.333333 0.79502 0.461967
O16_44 O 0.461967 0.79502 0.333333
O17_44 O 0.461967 0.833333 0.29502
O16_45 O 0.333333 0.961967 0.29502
O17_45 O 0.29502 0.961967 0.333333
S1_43 S 0.371342 0.754124 0.371342
C1_43 C 0.350621 0.77428 0.444295
C2_43 C 0.363405 0.777119 0.408109
C3_43 C 0.388679 0.801338 0.41365
C4_43 C 0.444295 0.77428 0.350621
C5_43 C 0.408109 0.777119 0.363405
C6_43 C 0.41365 0.801338 0.388679
S2_43 S 0.254124 0.871342 0.371342
C7_43 C 0.27428 0.944295 0.350621
C8_43 C 0.277119 0.908109 0.363405
C9_43 C 0.301338 0.91365 0.388679
C10_43 C 0.27428 0.850621 0.444295
C11_43 C 0.277119 0.863405 0.408109
C12_43 C 0.301338 0.888679 0.41365
H1_43 H 0.388833 0.818739 0.435636
H2_43 H 0.435636 0.818739 0.388833
H7_43 H 0.318739 0.935636 0.388833
H8_43 H 0.318739 0.888833 0.435636
S1_44 S 0.371342 0.871342 0.254124
C1_44 C 0.444295 0.850621 0.27428
C2_44 C 0.408109 0.863405 0.277119
C3_44 C 0.41365 0.888679 0.301338
C4_44 C 0.350621 0.944295 0.27428
C5_44 C 0.363405 0.908109 0.277119
C6_44 C 0.388679 0.91365 0.301338
H1_44 H 0.435636 0.888833 0.318739
H2_44 H 0.388833 0.935636 0.318739
O4_47 O 0.603038 0.726397 0.726397
O5_47 O 0.550138 0.675689 0.675691
S2_44 S 0.628658 0.754124 0.628658
C7_44 C 0.649379 0.77428 0.555705
C8_44 C 0.636595 0.777119 0.591891
C9_44 C 0.611321 0.801338 0.58635
C10_44 C 0.555705 0.77428 0.649379
C11_44 C 0.591891 0.777119 0.636595
C12_44 C 0.58635 0.801338 0.611321
O12_32 O 0.550159 0.750052 0.671694
O13_47 O 0.603038 0.773603 0.773603
O14_47 O 0.550138 0.824309 0.824311
O20_36 O 0.550159 0.671694 0.750052
H7_44 H 0.611167 0.818739 0.564364
H8_44 H 0.564364 0.818739 0.611167
S2_45 S 0.628658 0.128658 0.254124
C7_45 C 0.555705 0.149379 0.27428
C8_45 C 0.591891 0.136595 0.277119
C9_45 C 0.58635 0.111321 0.301338
O10_32 O 0.550159 0.171694 0.250052
C10_45 C 0.649379 0.055705 0.27428
C11_45 C 0.636595 0.091891 0.277119
C12_45 C 0.611321 0.08635 0.301338
H7_45 H 0.564364 0.111167 0.318739
H8_45 H 0.611167 0.0643636 0.318739
S1_45 S 0.254124 0.128658 0.628658
C1_45 C 0.27428 0.055705 0.649379
C2_45 C 0.277119 0.091891 0.636595
C3_45 C 0.301338 0.08635 0.611321
C4_45 C 0.27428 0.149379 0.555705
C5_45 C 0.277119 0.136595 0.591891
C6_45 C 0.301338 0.111321 0.58635
H1_45 H 0.318739 0.0643636 0.611167
H2_45 H 0.318739 0.111167 0.564364
O4_48 O 0.603038 0.273603 0.273603
O5_48 O 0.550138 0.324311 0.324309
O13_48 O 0.603038 0.226397 0.226397
O14_48 O 0.550138 0.175691 0.175689
O21_36 O 0.550159 0.250052 0.171694
O16_46 O 0.29502 0.333333 0.961967
O17_46 O 0.333333 0.29502 0.961967
O16_47 O 0.461967 0.29502 0.833333
O17_47 O 0.461967 0.333333 0.79502
O16_48 O 0.333333 0.461967 0.79502
O17_48 O 0.29502 0.461967 0.833333
S1_46 S 0.371342 0.254124 0.871342
C1_46 C 0.350621 0.27428 0.944295
C2_46 C 0.363405 0.277119 0.908109
C3_46 C 0.388679 0.301338 0.91365
C4_46 C 0.444295 0.27428 0.850621
C5_46 C 0.408109 0.277119 0.863405
C6_46 C 0.41365 0.301338 0.888679
S2_46 S 0.254124 0.371342 0.871342
C7_46 C 0.27428 0.444295 0.850621
C8_46 C 0.277119 0.408109 0.863405
C9_46 C 0.301338 0.41365 0.888679
C10_46 C 0.27428 0.350621 0.944295
C11_46 C 0.277119 0.363405 0.908109
C12_46 C 0.301338 0.388679 0.91365
H1_46 H 0.388833 0.318739 0.935636
H2_46 H 0.435636 0.318739 0.888833
H7_46 H 0.318739 0.435636 0.888833
H8_46 H 0.318739 0.388833 0.935636
S1_47 S 0.371342 0.371342 0.754124
C1_47 C 0.444295 0.350621 0.77428
C2_47 C 0.408109 0.363405 0.777119
C3_47 C 0.41365 0.388679 0.801338
C4_47 C 0.350621 0.444295 0.77428
C5_47 C 0.363405 0.408109 0.777119
C6_47 C 0.388679 0.41365 0.801338
H1_47 H 0.435636 0.388833 0.818739
H2_47 H 0.388833 0.435636 0.818739
S2_47 S 0.628658 0.254124 0.128658
C7_47 C 0.649379 0.27428 0.055705
C8_47 C 0.636595 0.277119 0.091891
C9_47 C 0.611321 0.301338 0.08635
C10_47 C 0.555705 0.27428 0.149379
C11_47 C 0.591891 0.277119 0.136595
C12_47 C 0.58635 0.301338 0.111321
H7_47 H 0.611167 0.318739 0.0643636
H8_47 H 0.564364 0.318739 0.111167
S2_48 S 0.628658 0.628658 0.754124
C7_48 C 0.555705 0.649379 0.77428
C8_48 C 0.591891 0.636595 0.777119
C9_48 C 0.58635 0.611321 0.801338
C10_48 C 0.649379 0.555705 0.77428
C11_48 C 0.636595 0.591891 0.777119
C12_48 C 0.611321 0.58635 0.801338
H7_48 H 0.564364 0.611167 0.818739
H8_48 H 0.611167 0.564364 0.818739
S1_48 S 0.254124 0.628658 0.128658
C1_48 C 0.27428 0.555705 0.149379
C2_48 C 0.277119 0.591891 0.136595
C3_48 C 0.301338 0.58635 0.111321
C4_48 C 0.27428 0.649379 0.055705
C5_48 C 0.277119 0.636595 0.091891
C6_48 C 0.301338 0.611321 0.08635
H1_48 H 0.318739 0.564364 0.111167
H2_48 H 0.318739 0.611167 0.0643636
loop_
_geom_bond_atom_site_label_1
_geom_bond_atom_site_label_2
_geom_bond_site_symmetry_1
_geom_bond_site_symmetry_2
Zr1 O2 1_555 1_555
Zr2 O1 1_555 1_555
S1 C2 1_555 1_555
C1 C2 1_555 1_555
C2 C3 1_555 1_555
C3 C6 1_555 1_555
O1 C1 1_555 1_555
O2 Zr2 1_555 1_555
O3 C1 1_555 1_555
O4 Zr1 1_555 1_555
O5 Zr1 1_555 1_555
O6 Zr2 1_555 1_555
C4 C5 1_555 1_555
C5 S1 1_555 1_555
C6 C5 1_555 1_555
O7 C4 1_555 1_555
O8 C4 1_555 1_555
S2 C8 1_555 1_555
C7 C8 1_555 1_555
C8 C9 1_555 1_555
C9 C12 1_555 1_555
O9 C7 1_555 1_555
O10 C7 1_555 1_555
C10 C11 1_555 1_555
C11 S2 1_555 1_555
C12 C11 1_555 1_555
O11 Zr2 1_555 1_555
O12 Zr1 1_555 1_555
Zr3 O2 1_555 1_555
O13 Zr3 1_555 1_555
O14 Zr3 1_555 1_555
O15 Zr1 1_555 1_555
Zr4 O8 1_555 1_555
Zr6 O10 1_555 1_555
Zr8 O9 1_555 1_555
Zr9 O7 1_555 1_555
O19 Zr1 1_555 1_555
O20 Zr1 1_555 1_555
O21 Zr3 1_555 1_555
O22 Zr1 1_555 1_555
O23 Zr3 1_555 1_555
Zr2 O15 1_555 1_555
O3 Zr3 1_555 1_555
O6 Zr3 1_555 1_555
C10 O11 1_555 1_555
C10 O12 1_555 1_555
Zr3 O19 1_555 1_555
C3 H1 1_555 1_555
C6 H2 1_555 1_555
C9 H7 1_555 1_555
C12 H8 1_555 1_555
O6_2 Zr2_2 1_555 1_555
Zr5 O15_2 1_555 1_555
Zr7 O6_2 1_555 1_555
O16 Zr2_2 1_555 1_555
O17 Zr2_2 1_555 1_555
O18 Zr2_2 1_555 1_555
Zr2_2 O15_2 1_555 1_555
Zr5 O18 1_555 1_555
Zr5 O22_2 1_555 1_555
Zr7 O18 1_555 1_555
Zr7 O23_2 1_555 1_555
Zr1_2 O2_2 1_555 1_555
O2_2 Zr8 1_555 1_555
O4_2 Zr1_2 1_555 1_555
O5_2 Zr1_2 1_555 1_555
O6_3 Zr8 1_555 1_555
S2_2 C8_2 1_555 1_555
C7_2 C8_2 1_555 1_555
C8_2 C9_2 1_555 1_555
C9_2 C12_2 1_555 1_555
O9_2 C7_2 1_555 1_555
O10_2 C7_2 1_555 1_555
C10_2 C11_2 1_555 1_555
C11_2 S2_2 1_555 1_555
C12_2 C11_2 1_555 1_555
O11_2 Zr8 1_555 1_555
O12_2 Zr1_2 1_555 1_555
Zr6 O2_2 1_555 1_555
O13_2 Zr6 1_555 1_555
O14_2 Zr6 1_555 1_555
O15_3 Zr1_2 1_555 1_555
Zr6_2 O10_2 1_555 1_555
Zr9 O9_2 1_555 1_555
O19_2 Zr1_2 1_555 1_555
O20_2 Zr1_2 1_555 1_555
O21_2 Zr6 1_555 1_555
O22_3 Zr1_2 1_555 1_555
O23_3 Zr6 1_555 1_555
Zr8 O15_3 1_555 1_555
O6_3 Zr6 1_555 1_555
C10_2 O11_2 1_555 1_555
C10_2 O12_2 1_555 1_555
Zr6 O19_2 1_555 1_555
C9_2 H7_2 1_555 1_555
C12_2 H8_2 1_555 1_555
O6_4 Zr8_2 1_555 1_555
Zr5_2 O15_4 1_555 1_555
Zr7_2 O6_4 1_555 1_555
O16_2 Zr8_2 1_555 1_555
O17_2 Zr8_2 1_555 1_555
O18_2 Zr8_2 1_555 1_555
Zr8_2 O15_4 1_555 1_555
Zr5_2 O18_2 1_555 1_555
Zr5_2 O22_4 1_555 1_555
Zr7_2 O18_2 1_555 1_555
Zr7_2 O23_4 1_555 1_555
Zr4 O2_3 1_555 1_555
O2_3 Zr9 1_555 1_555
O4_3 Zr4 1_555 1_555
O5_3 Zr4 1_555 1_555
O6_5 Zr9 1_555 1_555
Zr6_2 O2_3 1_555 1_555
O13_3 Zr6_2 1_555 1_555
O14_3 Zr6_2 1_555 1_555
O15_5 Zr4 1_555 1_555
O19_3 Zr4 1_555 1_555
O20_3 Zr4 1_555 1_555
O21_3 Zr6_2 1_555 1_555
O22_5 Zr4 1_555 1_555
O23_5 Zr6_2 1_555 1_555
Zr9 O15_5 1_555 1_555
O6_5 Zr6_2 1_555 1_555
Zr6_2 O19_3 1_555 1_555
O6_6 Zr9_2 1_555 1_555
Zr5_3 O15_6 1_555 1_555
Zr7_3 O6_6 1_555 1_555
O16_3 Zr9_2 1_555 1_555
O17_3 Zr9_2 1_555 1_555
O18_3 Zr9_2 1_555 1_555
Zr9_2 O15_6 1_555 1_555
Zr5_3 O18_3 1_555 1_555
Zr5_3 O22_6 1_555 1_555
Zr7_3 O18_3 1_555 1_555
Zr7_3 O23_6 1_555 1_555
O6_7 Zr2_3 1_555 1_555
Zr5_4 O15_7 1_555 1_555
Zr7_4 O6_7 1_555 1_555
O16_4 Zr2_3 1_555 1_555
O17_4 Zr2_3 1_555 1_555
O18_4 Zr2_3 1_555 1_555
Zr2_3 O15_7 1_555 1_555
Zr5_4 O18_4 1_555 1_555
Zr5_4 O22_7 1_555 1_555
Zr7_4 O18_4 1_555 1_555
Zr7_4 O23_7 1_555 1_555
Zr1_3 O2_4 1_555 1_555
Zr2_4 O1_2 1_555 1_555
S1_2 C2_2 1_555 1_555
C1_2 C2_2 1_555 1_555
C2_2 C3_2 1_555 1_555
C3_2 C6_2 1_555 1_555
O1_2 C1_2 1_555 1_555
O2_4 Zr2_4 1_555 1_555
O3_2 C1_2 1_555 1_555
O4_4 Zr1_3 1_555 1_555
O5_4 Zr1_3 1_555 1_555
O6_8 Zr2_4 1_555 1_555
C4_2 C5_2 1_555 1_555
C5_2 S1_2 1_555 1_555
C6_2 C5_2 1_555 1_555
O7_2 C4_2 1_555 1_555
O8_2 C4_2 1_555 1_555
S2_3 C8_3 1_555 1_555
C7_3 C8_3 1_555 1_555
C8_3 C9_3 1_555 1_555
C9_3 C12_3 1_555 1_555
O9_3 C7_3 1_555 1_555
O10_3 C7_3 1_555 1_555
C10_3 C11_3 1_555 1_555
C11_3 S2_3 1_555 1_555
C12_3 C11_3 1_555 1_555
O11_3 Zr2_4 1_555 1_555
O12_3 Zr1_3 1_555 1_555
Zr3_2 O2_4 1_555 1_555
O13_4 Zr3_2 1_555 1_555
O14_4 Zr3_2 1_555 1_555
O15_8 Zr1_3 1_555 1_555
Zr4_2 O8_2 1_555 1_555
Zr6_3 O10_3 1_555 1_555
Zr8_3 O9_3 1_555 1_555
Zr9_4 O7_2 1_555 1_555
O19_4 Zr1_3 1_555 1_555
O20_4 Zr1_3 1_555 1_555
O21_4 Zr3_2 1_555 1_555
O22_8 Zr1_3 1_555 1_555
O23_8 Zr3_2 1_555 1_555
Zr2_4 O15_8 1_555 1_555
O3_2 Zr3_2 1_555 1_555
O6_8 Zr3_2 1_555 1_555
C10_3 O11_3 1_555 1_555
C10_3 O12_3 1_555 1_555
Zr3_2 O19_4 1_555 1_555
C3_2 H1_2 1_555 1_555
C6_2 H2_2 1_555 1_555
C9_3 H7_3 1_555 1_555
C12_3 H8_3 1_555 1_555
O6_9 Zr2_5 1_555 1_555
Zr5_5 O15_9 1_555 1_555
Zr7_5 O6_9 1_555 1_555
O16_5 Zr2_5 1_555 1_555
O17_5 Zr2_5 1_555 1_555
O18_5 Zr2_5 1_555 1_555
Zr2_5 O15_9 1_555 1_555
Zr5_5 O18_5 1_555 1_555
Zr5_5 O22_9 1_555 1_555
Zr7_5 O18_5 1_555 1_555
Zr7_5 O23_9 1_555 1_555
Zr1_4 O2_5 1_555 1_555
Zr2_6 O1_3 1_555 1_555
S1_3 C2_3 1_555 1_555
C1_3 C2_3 1_555 1_555
C2_3 C3_3 1_555 1_555
C3_3 C6_3 1_555 1_555
O1_3 C1_3 1_555 1_555
O2_5 Zr2_6 1_555 1_555
O3_3 C1_3 1_555 1_555
O4_5 Zr1_4 1_555 1_555
O5_5 Zr1_4 1_555 1_555
O6_10 Zr2_6 1_555 1_555
C4_3 C5_3 1_555 1_555
C5_3 S1_3 1_555 1_555
C6_3 C5_3 1_555 1_555
O7_3 C4_3 1_555 1_555
O8_3 C4_3 1_555 1_555
S2_4 C8_4 1_555 1_555
C7_4 C8_4 1_555 1_555
C8_4 C9_4 1_555 1_555
C9_4 C12_4 1_555 1_555
O9_4 C7_4 1_555 1_555
O10_4 C7_4 1_555 1_555
C10_4 C11_4 1_555 1_555
C11_4 S2_4 1_555 1_555
C12_4 C11_4 1_555 1_555
O11_4 Zr2_6 1_555 1_555
O12_4 Zr1_4 1_555 1_555
Zr3_3 O2_5 1_555 1_555
O13_5 Zr3_3 1_555 1_555
O14_5 Zr3_3 1_555 1_555
O15_10 Zr1_4 1_555 1_555
Zr4_3 O8_3 1_555 1_555
Zr6_4 O10_4 1_555 1_555
Zr8_5 O9_4 1_555 1_555
Zr9_6 O7_3 1_555 1_555
O19_5 Zr1_4 1_555 1_555
O20_5 Zr1_4 1_555 1_555
O21_5 Zr3_3 1_555 1_555
O22_10 Zr1_4 1_555 1_555
O23_10 Zr3_3 1_555 1_555
Zr2_6 O15_10 1_555 1_555
O3_3 Zr3_3 1_555 1_555
O6_10 Zr3_3 1_555 1_555
C10_4 O11_4 1_555 1_555
C10_4 O12_4 1_555 1_555
Zr3_3 O19_5 1_555 1_555
C3_3 H1_3 1_555 1_555
C6_3 H2_3 1_555 1_555
C9_4 H7_4 1_555 1_555
C12_4 H8_4 1_555 1_555
O6_11 Zr2_7 1_555 1_555
Zr5_6 O15_11 1_555 1_555
Zr7_6 O6_11 1_555 1_555
O16_6 Zr2_7 1_555 1_555
O17_6 Zr2_7 1_555 1_555
O18_6 Zr2_7 1_555 1_555
Zr2_7 O15_11 1_555 1_555
Zr5_6 O18_6 1_555 1_555
Zr5_6 O22_11 1_555 1_555
Zr7_6 O18_6 1_555 1_555
Zr7_6 O23_11 1_555 1_555
Zr1_5 O2_6 1_555 1_555
Zr2_8 O1_4 1_555 1_555
S1_4 C2_4 1_555 1_555
C1_4 C2_4 1_555 1_555
C2_4 C3_4 1_555 1_555
C3_4 C6_4 1_555 1_555
O1_4 C1_4 1_555 1_555
O2_6 Zr2_8 1_555 1_555
O3_4 C1_4 1_555 1_555
O4_6 Zr1_5 1_555 1_555
O5_6 Zr1_5 1_555 1_555
O6_12 Zr2_8 1_555 1_555
C4_4 C5_4 1_555 1_555
C5_4 S1_4 1_555 1_555
C6_4 C5_4 1_555 1_555
O7_4 C4_4 1_555 1_555
O8_4 C4_4 1_555 1_555
S2_5 C8_5 1_555 1_555
C7_5 C8_5 1_555 1_555
C8_5 C9_5 1_555 1_555
C9_5 C12_5 1_555 1_555
O9_5 C7_5 1_555 1_555
O10_5 C7_5 1_555 1_555
C10_5 C11_5 1_555 1_555
C11_5 S2_5 1_555 1_555
C12_5 C11_5 1_555 1_555
O11_5 Zr2_8 1_555 1_555
O12_5 Zr1_5 1_555 1_555
Zr3_4 O2_6 1_555 1_555
O13_6 Zr3_4 1_555 1_555
O14_6 Zr3_4 1_555 1_555
O15_12 Zr1_5 1_555 1_555
Zr4_4 O8_4 1_555 1_555
Zr6_5 O10_5 1_555 1_555
Zr8_8 O9_5 1_555 1_555
Zr9_7 O7_4 1_555 1_555
O19_6 Zr1_5 1_555 1_555
O20_6 Zr1_5 1_555 1_555
O21_6 Zr3_4 1_555 1_555
O22_12 Zr1_5 1_555 1_555
O23_12 Zr3_4 1_555 1_555
Zr2_8 O15_12 1_555 1_555
O3_4 Zr3_4 1_555 1_555
O6_12 Zr3_4 1_555 1_555
C10_5 O11_5 1_555 1_555
C10_5 O12_5 1_555 1_555
Zr3_4 O19_6 1_555 1_555
C3_4 H1_4 1_555 1_555
C6_4 H2_4 1_555 1_555
C9_5 H7_5 1_555 1_555
C12_5 H8_5 1_555 1_555
O6_13 Zr9_3 1_555 1_555
Zr5_7 O15_13 1_555 1_555
Zr7_7 O6_13 1_555 1_555
O16_7 Zr9_3 1_555 1_555
O17_7 Zr9_3 1_555 1_555
O18_7 Zr9_3 1_555 1_555
Zr9_3 O15_13 1_555 1_555
Zr5_7 O18_7 1_555 1_555
Zr5_7 O22_13 1_555 1_555
Zr7_7 O18_7 1_555 1_555
Zr7_7 O23_13 1_555 1_555
Zr4_2 O2_7 1_555 1_555
Zr9_4 O1_5 1_555 1_555
S1_5 C2_5 1_555 1_555
C1_5 C2_5 1_555 1_555
C2_5 C3_5 1_555 1_555
C3_5 C6_5 1_555 1_555
O1_5 C1_5 1_555 1_555
O2_7 Zr9_4 1_555 1_555
O3_5 C1_5 1_555 1_555
O4_7 Zr4_2 1_555 1_555
O5_7 Zr4_2 1_555 1_555
O6_14 Zr9_4 1_555 1_555
C4_5 C5_5 1_555 1_555
C5_5 S1_5 1_555 1_555
C6_5 C5_5 1_555 1_555
O7_5 C4_5 1_555 1_555
O8_5 C4_5 1_555 1_555
Zr3_5 O2_7 1_555 1_555
O13_7 Zr3_5 1_555 1_555
O14_7 Zr3_5 1_555 1_555
O15_14 Zr4_2 1_555 1_555
Zr4_5 O8_5 1_555 1_555
Zr8_3 O7_5 1_555 1_555
O19_7 Zr4_2 1_555 1_555
O20_7 Zr4_2 1_555 1_555
O21_7 Zr3_5 1_555 1_555
O22_14 Zr4_2 1_555 1_555
O23_14 Zr3_5 1_555 1_555
Zr9_4 O15_14 1_555 1_555
O3_5 Zr3_5 1_555 1_555
O6_14 Zr3_5 1_555 1_555
Zr3_5 O19_7 1_555 1_555
C3_5 H1_5 1_555 1_555
C6_5 H2_5 1_555 1_555
O6_15 Zr9_5 1_555 1_555
Zr5_8 O15_15 1_555 1_555
Zr7_8 O6_15 1_555 1_555
O16_8 Zr9_5 1_555 1_555
O17_8 Zr9_5 1_555 1_555
O18_8 Zr9_5 1_555 1_555
Zr9_5 O15_15 1_555 1_555
Zr5_8 O18_8 1_555 1_555
Zr5_8 O22_15 1_555 1_555
Zr7_8 O18_8 1_555 1_555
Zr7_8 O23_15 1_555 1_555
Zr4_3 O2_8 1_555 1_555
Zr9_6 O1_6 1_555 1_555
S1_6 C2_6 1_555 1_555
C1_6 C2_6 1_555 1_555
C2_6 C3_6 1_555 1_555
C3_6 C6_6 1_555 1_555
O1_6 C1_6 1_555 1_555
O2_8 Zr9_6 1_555 1_555
O3_6 C1_6 1_555 1_555
O4_8 Zr4_3 1_555 1_555
O5_8 Zr4_3 1_555 1_555
O6_16 Zr9_6 1_555 1_555
C4_6 C5_6 1_555 1_555
C5_6 S1_6 1_555 1_555
C6_6 C5_6 1_555 1_555
O7_6 C4_6 1_555 1_555
O8_6 C4_6 1_555 1_555
Zr3_6 O2_8 1_555 1_555
O13_8 Zr3_6 1_555 1_555
O14_8 Zr3_6 1_555 1_555
O15_16 Zr4_3 1_555 1_555
Zr4_6 O8_6 1_555 1_555
Zr8_5 O7_6 1_555 1_555
O19_8 Zr4_3 1_555 1_555
O20_8 Zr4_3 1_555 1_555
O21_8 Zr3_6 1_555 1_555
O22_16 Zr4_3 1_555 1_555
O23_16 Zr3_6 1_555 1_555
Zr9_6 O15_16 1_555 1_555
O3_6 Zr3_6 1_555 1_555
O6_16 Zr3_6 1_555 1_555
Zr3_6 O19_8 1_555 1_555
C3_6 H1_6 1_555 1_555
C6_6 H2_6 1_555 1_555
O6_17 Zr8_7 1_555 1_555
Zr5_9 O15_17 1_555 1_555
Zr7_9 O6_17 1_555 1_555
O16_9 Zr8_7 1_555 1_555
O17_9 Zr8_7 1_555 1_555
O18_9 Zr8_7 1_555 1_555
Zr8_7 O15_17 1_555 1_555
Zr5_9 O18_9 1_555 1_555
Zr5_9 O22_17 1_555 1_555
Zr7_9 O18_9 1_555 1_555
Zr7_9 O23_17 1_555 1_555
Zr1_6 O2_9 1_555 1_555
O2_9 Zr8_8 1_555 1_555
O4_9 Zr1_6 1_555 1_555
O5_9 Zr1_6 1_555 1_555
O6_18 Zr8_8 1_555 1_555
S2_6 C8_6 1_555 1_555
C7_6 C8_6 1_555 1_555
C8_6 C9_6 1_555 1_555
C9_6 C12_6 1_555 1_555
O9_6 C7_6 1_555 1_555
O10_6 C7_6 1_555 1_555
C10_6 C11_6 1_555 1_555
C11_6 S2_6 1_555 1_555
C12_6 C11_6 1_555 1_555
O11_6 Zr8_8 1_555 1_555
O12_6 Zr1_6 1_555 1_555
Zr6_5 O2_9 1_555 1_555
O13_9 Zr6_5 1_555 1_555
O14_9 Zr6_5 1_555 1_555
O15_18 Zr1_6 1_555 1_555
Zr6_6 O10_6 1_555 1_555
Zr9_7 O9_6 1_555 1_555
O19_9 Zr1_6 1_555 1_555
O20_9 Zr1_6 1_555 1_555
O21_9 Zr6_5 1_555 1_555
O22_18 Zr1_6 1_555 1_555
O23_18 Zr6_5 1_555 1_555
Zr8_8 O15_18 1_555 1_555
O6_18 Zr6_5 1_555 1_555
C10_6 O11_6 1_555 1_555
C10_6 O12_6 1_555 1_555
Zr6_5 O19_9 1_555 1_555
C9_6 H7_6 1_555 1_555
C12_6 H8_6 1_555 1_555
S1_7 C2_7 1_555 1_555
C1_7 C2_7 1_555 1_555
C2_7 C3_7 1_555 1_555
C3_7 C6_7 1_555 1_555
O17 C1_7 1_555 1_555
O3_7 C1_7 1_555 1_555
O4_10 Zr7 1_555 1_555
O5_10 Zr7 1_555 1_555
C4_7 C5_7 1_555 1_555
C5_7 S1_7 1_555 1_555
C6_7 C5_7 1_555 1_555
O16_4 C4_7 1_555 1_555
O8_7 C4_7 1_555 1_555
S2_7 C8_7 1_555 1_555
C7_7 C8_7 1_555 1_555
C8_7 C9_7 1_555 1_555
C9_7 C12_7 1_555 1_555
O17_6 C7_7 1_555 1_555
O10_7 C7_7 1_555 1_555
C10_7 C11_7 1_555 1_555
C11_7 S2_7 1_555 1_555
C12_7 C11_7 1_555 1_555
O12_7 Zr7 1_555 1_555
O13_10 Zr5 1_555 1_555
O14_10 Zr5 1_555 1_555
Zr7_4 O8_7 1_555 1_555
Zr5_6 O10_7 1_555 1_555
O19_10 Zr7 1_555 1_555
O20_10 Zr7 1_555 1_555
O21_10 Zr5 1_555 1_555
O3_7 Zr5 1_555 1_555
C10_7 O16 1_555 1_555
C10_7 O12_7 1_555 1_555
Zr5 O19_10 1_555 1_555
C3_7 H1_7 1_555 1_555
C6_7 H2_7 1_555 1_555
C9_7 H7_7 1_555 1_555
C12_7 H8_7 1_555 1_555
S1_8 C2_8 1_555 1_555
C1_8 C2_8 1_555 1_555
C2_8 C3_8 1_555 1_555
C3_8 C6_8 1_555 1_555
O17_2 C1_8 1_555 1_555
O3_8 C1_8 1_555 1_555
O4_11 Zr7_2 1_555 1_555
O5_11 Zr7_2 1_555 1_555
C4_8 C5_8 1_555 1_555
C5_8 S1_8 1_555 1_555
C6_8 C5_8 1_555 1_555
O16_5 C4_8 1_555 1_555
O8_8 C4_8 1_555 1_555
S2_8 C8_8 1_555 1_555
C7_8 C8_8 1_555 1_555
C8_8 C9_8 1_555 1_555
C9_8 C12_8 1_555 1_555
O17_7 C7_8 1_555 1_555
O10_8 C7_8 1_555 1_555
C10_8 C11_8 1_555 1_555
C11_8 S2_8 1_555 1_555
C12_8 C11_8 1_555 1_555
O12_8 Zr7_2 1_555 1_555
O13_11 Zr5_2 1_555 1_555
O14_11 Zr5_2 1_555 1_555
Zr7_5 O8_8 1_555 1_555
Zr5_7 O10_8 1_555 1_555
O19_11 Zr7_2 1_555 1_555
O20_11 Zr7_2 1_555 1_555
O21_11 Zr5_2 1_555 1_555
O3_8 Zr5_2 1_555 1_555
C10_8 O16_2 1_555 1_555
C10_8 O12_8 1_555 1_555
Zr5_2 O19_11 1_555 1_555
C3_8 H1_8 1_555 1_555
C6_8 H2_8 1_555 1_555
C9_8 H7_8 1_555 1_555
C12_8 H8_8 1_555 1_555
S1_9 C2_9 1_555 1_555
C1_9 C2_9 1_555 1_555
C2_9 C3_9 1_555 1_555
C3_9 C6_9 1_555 1_555
O17_3 C1_9 1_555 1_555
O3_9 C1_9 1_555 1_555
O4_12 Zr7_3 1_555 1_555
O5_12 Zr7_3 1_555 1_555
C4_9 C5_9 1_555 1_555
C5_9 S1_9 1_555 1_555
C6_9 C5_9 1_555 1_555
O16_9 C4_9 1_555 1_555
O8_9 C4_9 1_555 1_555
S2_9 C8_9 1_555 1_555
C7_9 C8_9 1_555 1_555
C8_9 C9_9 1_555 1_555
C9_9 C12_9 1_555 1_555
O17_8 C7_9 1_555 1_555
O10_9 C7_9 1_555 1_555
C10_9 C11_9 1_555 1_555
C11_9 S2_9 1_555 1_555
C12_9 C11_9 1_555 1_555
O12_9 Zr7_3 1_555 1_555
O13_12 Zr5_3 1_555 1_555
O14_12 Zr5_3 1_555 1_555
Zr7_9 O8_9 1_555 1_555
Zr5_8 O10_9 1_555 1_555
O19_12 Zr7_3 1_555 1_555
O20_12 Zr7_3 1_555 1_555
O21_12 Zr5_3 1_555 1_555
O3_9 Zr5_3 1_555 1_555
C10_9 O16_3 1_555 1_555
C10_9 O12_9 1_555 1_555
Zr5_3 O19_12 1_555 1_555
C3_9 H1_9 1_555 1_555
C6_9 H2_9 1_555 1_555
C9_9 H7_9 1_555 1_555
C12_9 H8_9 1_555 1_555
Zr1_7 O2_10 1_555 1_555
Zr2_9 O1_7 1_555 1_555
S1_10 C2_10 1_555 1_555
C1_10 C2_10 1_555 1_555
C2_10 C3_10 1_555 1_555
C3_10 C6_10 1_555 1_555
O1_7 C1_10 1_555 1_555
O2_10 Zr2_9 1_555 1_555
O3_10 C1_10 1_555 1_555
O4_13 Zr1_7 1_555 1_555
O5_13 Zr1_7 1_555 1_555
O6_19 Zr2_9 1_555 1_555
C4_10 C5_10 1_555 1_555
C5_10 S1_10 1_555 1_555
C6_10 C5_10 1_555 1_555
O7_7 C4_10 1_555 1_555
O8_10 C4_10 1_555 1_555
S2_10 C8_10 1_555 1_555
C7_10 C8_10 1_555 1_555
C8_10 C9_10 1_555 1_555
C9_10 C12_10 1_555 1_555
O9_7 C7_10 1_555 1_555
O10_10 C7_10 1_555 1_555
C10_10 C11_10 1_555 1_555
C11_10 S2_10 1_555 1_555
C12_10 C11_10 1_555 1_555
O11_7 Zr2_9 1_555 1_555
O12_10 Zr1_7 1_555 1_555
Zr3_7 O2_10 1_555 1_555
O13_13 Zr3_7 1_555 1_555
O14_13 Zr3_7 1_555 1_555
O15_19 Zr1_7 1_555 1_555
Zr4_7 O8_10 1_555 1_555
Zr5_10 O15_19 1_555 1_555
Zr4_4 O10_10 1_555 1_555
Zr7_10 O6_19 1_555 1_555
Zr8_9 O9_7 1_555 1_555
Zr9_9 O7_7 1_555 1_555
O16_10 Zr2_9 1_555 1_555
O17_10 Zr2_9 1_555 1_555
O18_10 Zr2_9 1_555 1_555
O19_13 Zr1_7 1_555 1_555
O20_13 Zr1_7 1_555 1_555
O21_13 Zr3_7 1_555 1_555
O22_19 Zr1_7 1_555 1_555
O23_19 Zr3_7 1_555 1_555
Zr2_9 O15_19 1_555 1_555
O3_10 Zr3_7 1_555 1_555
O6_19 Zr3_7 1_555 1_555
C10_10 O11_7 1_555 1_555
C10_10 O12_10 1_555 1_555
Zr3_7 O19_13 1_555 1_555
Zr5_10 O18_10 1_555 1_555
Zr5_10 O22_19 1_555 1_555
Zr7_10 O18_10 1_555 1_555
Zr7_10 O23_19 1_555 1_555
C3_10 H1_10 1_555 1_555
C6_10 H2_10 1_555 1_555
C9_10 H7_10 1_555 1_555
C12_10 H8_10 1_555 1_555
Zr6_6 O2_11 1_555 1_555
O2_11 Zr8_9 1_555 1_555
O4_14 Zr6_6 1_555 1_555
O5_14 Zr6_6 1_555 1_555
O6_20 Zr8_9 1_555 1_555
S2_11 C8_11 1_555 1_555
C7_11 C8_11 1_555 1_555
C8_11 C9_11 1_555 1_555
C9_11 C12_11 1_555 1_555
O9_8 C7_11 1_555 1_555
O10_11 C7_11 1_555 1_555
C10_11 C11_11 1_555 1_555
C11_11 S2_11 1_555 1_555
C12_11 C11_11 1_555 1_555
O11_8 Zr8_9 1_555 1_555
O12_11 Zr6_6 1_555 1_555
Zr4_4 O2_11 1_555 1_555
O13_14 Zr4_4 1_555 1_555
O14_14 Zr4_4 1_555 1_555
O15_20 Zr6_6 1_555 1_555
Zr6_7 O10_11 1_555 1_555
Zr9_9 O9_8 1_555 1_555
O19_14 Zr6_6 1_555 1_555
O22_20 Zr6_6 1_555 1_555
O23_20 Zr4_4 1_555 1_555
Zr8_9 O15_20 1_555 1_555
O6_20 Zr4_4 1_555 1_555
C10_11 O11_8 1_555 1_555
C10_11 O12_11 1_555 1_555
Zr4_4 O19_14 1_555 1_555
C9_11 H7_11 1_555 1_555
C12_11 H8_11 1_555 1_555
O6_21 Zr8_10 1_555 1_555
Zr5_11 O15_21 1_555 1_555
Zr7_11 O6_21 1_555 1_555
O16_11 Zr8_10 1_555 1_555
O17_11 Zr8_10 1_555 1_555
O18_11 Zr8_10 1_555 1_555
Zr8_10 O15_21 1_555 1_555
Zr5_11 O18_11 1_555 1_555
Zr5_11 O22_21 1_555 1_555
Zr7_11 O18_11 1_555 1_555
Zr7_11 O23_21 1_555 1_555
Zr4_7 O2_12 1_555 1_555
O2_12 Zr9_9 1_555 1_555
O4_15 Zr4_7 1_555 1_555
O5_15 Zr4_7 1_555 1_555
O6_22 Zr9_9 1_555 1_555
Zr6_7 O2_12 1_555 1_555
O13_15 Zr6_7 1_555 1_555
O14_15 Zr6_7 1_555 1_555
O15_22 Zr4_7 1_555 1_555
Zr5_12 O15_22 1_555 1_555
Zr7_12 O6_22 1_555 1_555
O16_12 Zr9_9 1_555 1_555
O17_12 Zr9_9 1_555 1_555
O18_12 Zr9_9 1_555 1_555
O19_15 Zr4_7 1_555 1_555
O20_14 Zr4_7 1_555 1_555
O21_14 Zr6_7 1_555 1_555
O22_22 Zr4_7 1_555 1_555
O23_22 Zr6_7 1_555 1_555
Zr9_9 O15_22 1_555 1_555
O6_22 Zr6_7 1_555 1_555
Zr6_7 O19_15 1_555 1_555
Zr5_12 O18_12 1_555 1_555
Zr5_12 O22_22 1_555 1_555
Zr7_12 O18_12 1_555 1_555
Zr7_12 O23_22 1_555 1_555
O22_15 Zr2_10 1_555 1_555
O16_13 Zr2_10 1_555 1_555
O17_13 Zr2_10 1_555 1_555
O18_13 Zr2_10 1_555 1_555
Zr2_10 O23_15 1_555 1_555
Zr7_8 O18_13 1_555 1_555
Zr5_8 O18_13 1_555 1_555
Zr2_11 O1_8 1_555 1_555
S1_11 C2_11 1_555 1_555
C1_11 C2_11 1_555 1_555
C2_11 C3_11 1_555 1_555
C3_11 C6_11 1_555 1_555
O1_8 C1_11 1_555 1_555
O19_8 Zr2_11 1_555 1_555
O20_8 C1_11 1_555 1_555
O22_16 Zr2_11 1_555 1_555
C4_11 C5_11 1_555 1_555
C5_11 S1_11 1_555 1_555
C6_11 C5_11 1_555 1_555
O7_8 C4_11 1_555 1_555
O8_11 C4_11 1_555 1_555
S2_12 C8_12 1_555 1_555
C7_12 C8_12 1_555 1_555
C8_12 C9_12 1_555 1_555
C9_12 C12_12 1_555 1_555
O9_9 C7_12 1_555 1_555
O10_12 C7_12 1_555 1_555
C10_12 C11_12 1_555 1_555
C11_12 S2_12 1_555 1_555
C12_12 C11_12 1_555 1_555
O11_9 Zr2_11 1_555 1_555
Zr4_8 O8_11 1_555 1_555
Zr6_8 O10_12 1_555 1_555
Zr8_11 O9_9 1_555 1_555
Zr9_10 O7_8 1_555 1_555
Zr2_11 O23_16 1_555 1_555
C10_12 O11_9 1_555 1_555
C10_12 O21_8 1_555 1_555
C3_11 H1_11 1_555 1_555
C6_11 H2_11 1_555 1_555
C9_12 H7_12 1_555 1_555
C12_12 H8_12 1_555 1_555
Zr1_8 O2_13 1_555 1_555
Zr2_12 O1_9 1_555 1_555
S1_12 C2_12 1_555 1_555
C1_12 C2_12 1_555 1_555
C2_12 C3_12 1_555 1_555
C3_12 C6_12 1_555 1_555
O1_9 C1_12 1_555 1_555
O2_13 Zr2_12 1_555 1_555
O3_11 C1_12 1_555 1_555
O4_16 Zr1_8 1_555 1_555
O5_16 Zr1_8 1_555 1_555
O6_23 Zr2_12 1_555 1_555
C4_12 C5_12 1_555 1_555
C5_12 S1_12 1_555 1_555
C6_12 C5_12 1_555 1_555
O7_9 C4_12 1_555 1_555
O21_4 C4_12 1_555 1_555
S2_13 C8_13 1_555 1_555
C7_13 C8_13 1_555 1_555
C8_13 C9_13 1_555 1_555
C9_13 C12_13 1_555 1_555
O9_10 C7_13 1_555 1_555
O10_13 C7_13 1_555 1_555
C10_13 C11_13 1_555 1_555
C11_13 S2_13 1_555 1_555
C12_13 C11_13 1_555 1_555
O11_10 Zr2_12 1_555 1_555
O12_12 Zr1_8 1_555 1_555
Zr3_8 O2_13 1_555 1_555
O13_16 Zr3_8 1_555 1_555
O14_16 Zr3_8 1_555 1_555
O15_23 Zr1_8 1_555 1_555
Zr5_13 O15_23 1_555 1_555
Zr6_9 O10_13 1_555 1_555
Zr7_13 O6_23 1_555 1_555
Zr8_12 O9_10 1_555 1_555
Zr9_12 O7_9 1_555 1_555
O16_14 Zr2_12 1_555 1_555
O17_14 Zr2_12 1_555 1_555
O18_14 Zr2_12 1_555 1_555
O19_16 Zr1_8 1_555 1_555
O20_15 Zr1_8 1_555 1_555
O21_15 Zr3_8 1_555 1_555
O22_23 Zr1_8 1_555 1_555
O23_23 Zr3_8 1_555 1_555
Zr2_12 O15_23 1_555 1_555
O3_11 Zr3_8 1_555 1_555
O6_23 Zr3_8 1_555 1_555
C10_13 O11_10 1_555 1_555
C10_13 O12_12 1_555 1_555
Zr3_8 O19_16 1_555 1_555
Zr5_13 O18_14 1_555 1_555
Zr5_13 O22_23 1_555 1_555
Zr7_13 O18_14 1_555 1_555
Zr7_13 O23_23 1_555 1_555
C3_12 H1_12 1_555 1_555
C6_12 H2_12 1_555 1_555
C9_13 H7_13 1_555 1_555
C12_13 H8_13 1_555 1_555
Zr1_9 O2_14 1_555 1_555
Zr2_13 O1_10 1_555 1_555
S1_13 C2_13 1_555 1_555
C1_13 C2_13 1_555 1_555
C2_13 C3_13 1_555 1_555
C3_13 C6_13 1_555 1_555
O1_10 C1_13 1_555 1_555
O2_14 Zr2_13 1_555 1_555
O3_12 C1_13 1_555 1_555
O4_17 Zr1_9 1_555 1_555
O5_17 Zr1_9 1_555 1_555
O6_24 Zr2_13 1_555 1_555
C4_13 C5_13 1_555 1_555
C5_13 S1_13 1_555 1_555
C6_13 C5_13 1_555 1_555
O7_10 C4_13 1_555 1_555
O21_2 C4_13 1_555 1_555
S2_14 C8_14 1_555 1_555
C7_14 C8_14 1_555 1_555
C8_14 C9_14 1_555 1_555
C9_14 C12_14 1_555 1_555
O9_11 C7_14 1_555 1_555
O10_14 C7_14 1_555 1_555
C10_14 C11_14 1_555 1_555
C11_14 S2_14 1_555 1_555
C12_14 C11_14 1_555 1_555
O11_11 Zr2_13 1_555 1_555
O12_13 Zr1_9 1_555 1_555
Zr3_9 O2_14 1_555 1_555
O13_17 Zr3_9 1_555 1_555
O14_17 Zr3_9 1_555 1_555
O15_24 Zr1_9 1_555 1_555
Zr5_14 O15_24 1_555 1_555
Zr6_10 O10_14 1_555 1_555
Zr7_14 O6_24 1_555 1_555
Zr8_13 O9_11 1_555 1_555
Zr9_13 O7_10 1_555 1_555
O16_15 Zr2_13 1_555 1_555
O17_15 Zr2_13 1_555 1_555
O18_15 Zr2_13 1_555 1_555
O19_17 Zr1_9 1_555 1_555
O20_16 Zr1_9 1_555 1_555
O21_16 Zr3_9 1_555 1_555
O22_24 Zr1_9 1_555 1_555
O23_24 Zr3_9 1_555 1_555
Zr2_13 O15_24 1_555 1_555
O3_12 Zr3_9 1_555 1_555
O6_24 Zr3_9 1_555 1_555
C10_14 O11_11 1_555 1_555
C10_14 O12_13 1_555 1_555
Zr3_9 O19_17 1_555 1_555
Zr5_14 O18_15 1_555 1_555
Zr5_14 O22_24 1_555 1_555
Zr7_14 O18_15 1_555 1_555
Zr7_14 O23_24 1_555 1_555
C3_13 H1_13 1_555 1_555
C6_13 H2_13 1_555 1_555
C9_14 H7_14 1_555 1_555
C12_14 H8_14 1_555 1_555
Zr4_8 O2_15 1_555 1_555
Zr9_10 O1_11 1_555 1_555
S1_14 C2_14 1_555 1_555
C1_14 C2_14 1_555 1_555
C2_14 C3_14 1_555 1_555
C3_14 C6_14 1_555 1_555
O1_11 C1_14 1_555 1_555
O2_15 Zr9_10 1_555 1_555
O3_13 C1_14 1_555 1_555
O4_18 Zr4_8 1_555 1_555
O5_18 Zr4_8 1_555 1_555
O6_25 Zr9_10 1_555 1_555
C4_14 C5_14 1_555 1_555
C5_14 S1_14 1_555 1_555
C6_14 C5_14 1_555 1_555
O7_11 C4_14 1_555 1_555
O8_12 C4_14 1_555 1_555
Zr3_10 O2_15 1_555 1_555
O13_18 Zr3_10 1_555 1_555
O14_18 Zr3_10 1_555 1_555
O15_25 Zr4_8 1_555 1_555
Zr4_9 O8_12 1_555 1_555
Zr5_15 O15_25 1_555 1_555
Zr7_15 O6_25 1_555 1_555
Zr8_11 O7_11 1_555 1_555
O16_16 Zr9_10 1_555 1_555
O17_16 Zr9_10 1_555 1_555
O18_16 Zr9_10 1_555 1_555
O19_18 Zr4_8 1_555 1_555
O20_17 Zr4_8 1_555 1_555
O21_17 Zr3_10 1_555 1_555
O22_25 Zr4_8 1_555 1_555
O23_25 Zr3_10 1_555 1_555
Zr9_10 O15_25 1_555 1_555
O3_13 Zr3_10 1_555 1_555
O6_25 Zr3_10 1_555 1_555
Zr3_10 O19_18 1_555 1_555
Zr5_15 O18_16 1_555 1_555
Zr5_15 O22_25 1_555 1_555
Zr7_15 O18_16 1_555 1_555
Zr7_15 O23_25 1_555 1_555
C3_14 H1_14 1_555 1_555
C6_14 H2_14 1_555 1_555
O22_7 Zr9_11 1_555 1_555
O16_17 Zr9_11 1_555 1_555
O17_17 Zr9_11 1_555 1_555
O18_17 Zr9_11 1_555 1_555
Zr9_11 O23_7 1_555 1_555
Zr7_4 O18_17 1_555 1_555
Zr5_4 O18_17 1_555 1_555
Zr9_12 O1_12 1_555 1_555
S1_15 C2_15 1_555 1_555
C1_15 C2_15 1_555 1_555
C2_15 C3_15 1_555 1_555
C3_15 C6_15 1_555 1_555
O1_12 C1_15 1_555 1_555
O19_4 Zr9_12 1_555 1_555
O20_4 C1_15 1_555 1_555
O22_8 Zr9_12 1_555 1_555
C4_15 C5_15 1_555 1_555
C5_15 S1_15 1_555 1_555
C6_15 C5_15 1_555 1_555
O7_12 C4_15 1_555 1_555
O8_13 C4_15 1_555 1_555
Zr4_10 O8_13 1_555 1_555
Zr8_12 O7_12 1_555 1_555
Zr9_12 O23_8 1_555 1_555
C3_15 H1_15 1_555 1_555
C6_15 H2_15 1_555 1_555
Zr1_10 O2_16 1_555 1_555
O2_16 Zr8_13 1_555 1_555
O4_19 Zr1_10 1_555 1_555
O5_19 Zr1_10 1_555 1_555
O6_26 Zr8_13 1_555 1_555
S2_15 C8_15 1_555 1_555
C7_15 C8_15 1_555 1_555
C8_15 C9_15 1_555 1_555
C9_15 C12_15 1_555 1_555
O9_12 C7_15 1_555 1_555
O20_2 C7_15 1_555 1_555
C10_15 C11_15 1_555 1_555
C11_15 S2_15 1_555 1_555
C12_15 C11_15 1_555 1_555
O11_12 Zr8_13 1_555 1_555
O12_14 Zr1_10 1_555 1_555
Zr6_10 O2_16 1_555 1_555
O13_19 Zr6_10 1_555 1_555
O14_19 Zr6_10 1_555 1_555
O15_26 Zr1_10 1_555 1_555
Zr5_16 O15_26 1_555 1_555
Zr7_16 O6_26 1_555 1_555
Zr9_13 O9_12 1_555 1_555
O16_18 Zr8_13 1_555 1_555
O17_18 Zr8_13 1_555 1_555
O18_18 Zr8_13 1_555 1_555
O19_19 Zr1_10 1_555 1_555
O20_18 Zr1_10 1_555 1_555
O21_18 Zr6_10 1_555 1_555
O22_26 Zr1_10 1_555 1_555
O23_26 Zr6_10 1_555 1_555
Zr8_13 O15_26 1_555 1_555
O6_26 Zr6_10 1_555 1_555
C10_15 O11_12 1_555 1_555
C10_15 O12_14 1_555 1_555
Zr6_10 O19_19 1_555 1_555
Zr5_16 O18_18 1_555 1_555
Zr5_16 O22_26 1_555 1_555
Zr7_16 O18_18 1_555 1_555
Zr7_16 O23_26 1_555 1_555
C9_15 H7_15 1_555 1_555
C12_15 H8_15 1_555 1_555
S1_16 C2_16 1_555 1_555
C1_16 C2_16 1_555 1_555
C2_16 C3_16 1_555 1_555
C3_16 C6_16 1_555 1_555
O17_10 C1_16 1_555 1_555
O3_14 C1_16 1_555 1_555
O4_20 Zr7_10 1_555 1_555
O5_20 Zr7_10 1_555 1_555
C4_16 C5_16 1_555 1_555
C5_16 S1_16 1_555 1_555
C6_16 C5_16 1_555 1_555
O16_13 C4_16 1_555 1_555
O8_14 C4_16 1_555 1_555
S2_16 C8_16 1_555 1_555
C7_16 C8_16 1_555 1_555
C8_16 C9_16 1_555 1_555
C9_16 C12_16 1_555 1_555
O17_15 C7_16 1_555 1_555
O10_15 C7_16 1_555 1_555
C10_16 C11_16 1_555 1_555
C11_16 S2_16 1_555 1_555
C12_16 C11_16 1_555 1_555
O12_15 Zr7_10 1_555 1_555
O13_20 Zr5_10 1_555 1_555
O14_20 Zr5_10 1_555 1_555
Zr5_8 O8_14 1_555 1_555
Zr5_14 O10_15 1_555 1_555
O19_20 Zr7_10 1_555 1_555
O20_19 Zr7_10 1_555 1_555
O21_19 Zr5_10 1_555 1_555
O3_14 Zr5_10 1_555 1_555
C10_16 O16_10 1_555 1_555
C10_16 O12_15 1_555 1_555
Zr5_10 O19_20 1_555 1_555
C3_16 H1_16 1_555 1_555
C6_16 H2_16 1_555 1_555
C9_16 H7_16 1_555 1_555
C12_16 H8_16 1_555 1_555
S1_17 C2_17 1_555 1_555
C1_17 C2_17 1_555 1_555
C2_17 C3_17 1_555 1_555
C3_17 C6_17 1_555 1_555
O17_11 C1_17 1_555 1_555
O3_15 C1_17 1_555 1_555
O4_21 Zr7_11 1_555 1_555
O5_21 Zr7_11 1_555 1_555
C4_17 C5_17 1_555 1_555
C5_17 S1_17 1_555 1_555
C6_17 C5_17 1_555 1_555
O16_14 C4_17 1_555 1_555
O8_15 C4_17 1_555 1_555
S2_17 C8_17 1_555 1_555
C7_17 C8_17 1_555 1_555
C8_17 C9_17 1_555 1_555
C9_17 C12_17 1_555 1_555
O17_16 C7_17 1_555 1_555
O10_16 C7_17 1_555 1_555
C10_17 C11_17 1_555 1_555
C11_17 S2_17 1_555 1_555
C12_17 C11_17 1_555 1_555
O12_16 Zr7_11 1_555 1_555
O13_21 Zr5_11 1_555 1_555
O14_21 Zr5_11 1_555 1_555
Zr7_13 O8_15 1_555 1_555
Zr5_15 O10_16 1_555 1_555
O19_21 Zr7_11 1_555 1_555
O20_20 Zr7_11 1_555 1_555
O21_20 Zr5_11 1_555 1_555
O3_15 Zr5_11 1_555 1_555
C10_17 O16_11 1_555 1_555
C10_17 O12_16 1_555 1_555
Zr5_11 O19_21 1_555 1_555
C3_17 H1_17 1_555 1_555
C6_17 H2_17 1_555 1_555
C9_17 H7_17 1_555 1_555
C12_17 H8_17 1_555 1_555
S1_18 C2_18 1_555 1_555
C1_18 C2_18 1_555 1_555
C2_18 C3_18 1_555 1_555
C3_18 C6_18 1_555 1_555
O17_12 C1_18 1_555 1_555
O3_16 C1_18 1_555 1_555
O4_22 Zr7_12 1_555 1_555
O5_22 Zr7_12 1_555 1_555
C4_18 C5_18 1_555 1_555
C5_18 S1_18 1_555 1_555
C6_18 C5_18 1_555 1_555
O16_18 C4_18 1_555 1_555
O8_16 C4_18 1_555 1_555
S2_18 C8_18 1_555 1_555
C7_18 C8_18 1_555 1_555
C8_18 C9_18 1_555 1_555
C9_18 C12_18 1_555 1_555
O17_17 C7_18 1_555 1_555
O10_17 C7_18 1_555 1_555
C10_18 C11_18 1_555 1_555
C11_18 S2_18 1_555 1_555
C12_18 C11_18 1_555 1_555
O12_17 Zr7_12 1_555 1_555
O13_22 Zr5_12 1_555 1_555
O14_22 Zr5_12 1_555 1_555
Zr7_16 O8_16 1_555 1_555
Zr7_4 O10_17 1_555 1_555
O19_22 Zr7_12 1_555 1_555
O20_21 Zr7_12 1_555 1_555
O21_21 Zr5_12 1_555 1_555
O3_16 Zr5_12 1_555 1_555
C10_18 O16_12 1_555 1_555
C10_18 O12_17 1_555 1_555
Zr5_12 O19_22 1_555 1_555
C3_18 H1_18 1_555 1_555
C6_18 H2_18 1_555 1_555
C9_18 H7_18 1_555 1_555
C12_18 H8_18 1_555 1_555
Zr6_9 O2_17 1_555 1_555
Zr2_14 O1_13 1_555 1_555
S1_19 C2_19 1_555 1_555
C1_19 C2_19 1_555 1_555
C2_19 C3_19 1_555 1_555
C3_19 C6_19 1_555 1_555
O1_13 C1_19 1_555 1_555
O2_17 Zr2_14 1_555 1_555
O3_17 C1_19 1_555 1_555
O4_23 Zr6_9 1_555 1_555
O5_23 Zr6_9 1_555 1_555
O6_27 Zr2_14 1_555 1_555
C4_19 C5_19 1_555 1_555
C5_19 S1_19 1_555 1_555
C6_19 C5_19 1_555 1_555
O7_13 C4_19 1_555 1_555
O8_17 C4_19 1_555 1_555
S2_19 C8_19 1_555 1_555
C7_19 C8_19 1_555 1_555
C8_19 C9_19 1_555 1_555
C9_19 C12_19 1_555 1_555
O9_13 C7_19 1_555 1_555
O10_18 C7_19 1_555 1_555
C10_19 C11_19 1_555 1_555
C11_19 S2_19 1_555 1_555
C12_19 C11_19 1_555 1_555
O11_13 Zr2_14 1_555 1_555
O12_18 Zr6_9 1_555 1_555
Zr4_10 O2_17 1_555 1_555
O13_23 Zr4_10 1_555 1_555
O14_23 Zr4_10 1_555 1_555
O15_27 Zr6_9 1_555 1_555
Zr6_3 O8_17 1_555 1_555
Zr5_17 O15_27 1_555 1_555
Zr6_11 O10_18 1_555 1_555
Zr7_17 O6_27 1_555 1_555
Zr8_14 O9_13 1_555 1_555
Zr9_15 O7_13 1_555 1_555
O16_19 Zr2_14 1_555 1_555
O17_19 Zr2_14 1_555 1_555
O18_19 Zr2_14 1_555 1_555
O19_23 Zr6_9 1_555 1_555
O22_27 Zr6_9 1_555 1_555
O23_27 Zr4_10 1_555 1_555
Zr2_14 O15_27 1_555 1_555
O3_17 Zr4_10 1_555 1_555
O6_27 Zr4_10 1_555 1_555
C10_19 O11_13 1_555 1_555
C10_19 O12_18 1_555 1_555
Zr4_10 O19_23 1_555 1_555
Zr5_17 O18_19 1_555 1_555
Zr5_17 O22_27 1_555 1_555
Zr7_17 O18_19 1_555 1_555
Zr7_17 O23_27 1_555 1_555
C3_19 H1_19 1_555 1_555
C6_19 H2_19 1_555 1_555
C9_19 H7_19 1_555 1_555
C12_19 H8_19 1_555 1_555
Zr1_11 O2_18 1_555 1_555
O2_18 Zr8_14 1_555 1_555
O4_24 Zr1_11 1_555 1_555
O5_24 Zr1_11 1_555 1_555
O6_28 Zr8_14 1_555 1_555
S2_20 C8_20 1_555 1_555
C7_20 C8_20 1_555 1_555
C8_20 C9_20 1_555 1_555
C9_20 C12_20 1_555 1_555
O9_14 C7_20 1_555 1_555
O10_19 C7_20 1_555 1_555
C10_20 C11_20 1_555 1_555
C11_20 S2_20 1_555 1_555
C12_20 C11_20 1_555 1_555
O11_14 Zr8_14 1_555 1_555
O12_19 Zr1_11 1_555 1_555
Zr6_11 O2_18 1_555 1_555
O13_24 Zr6_11 1_555 1_555
O14_24 Zr6_11 1_555 1_555
O15_28 Zr1_11 1_555 1_555
Zr5_18 O15_28 1_555 1_555
Zr4_5 O10_19 1_555 1_555
Zr7_18 O6_28 1_555 1_555
Zr9_15 O9_14 1_555 1_555
O16_20 Zr8_14 1_555 1_555
O17_20 Zr8_14 1_555 1_555
O18_20 Zr8_14 1_555 1_555
O19_24 Zr1_11 1_555 1_555
O20_22 Zr1_11 1_555 1_555
O21_22 Zr6_11 1_555 1_555
O22_28 Zr1_11 1_555 1_555
O23_28 Zr6_11 1_555 1_555
Zr8_14 O15_28 1_555 1_555
O6_28 Zr6_11 1_555 1_555
C10_20 O11_14 1_555 1_555
C10_20 O12_19 1_555 1_555
Zr6_11 O19_24 1_555 1_555
Zr5_18 O18_20 1_555 1_555
Zr5_18 O22_28 1_555 1_555
Zr7_18 O18_20 1_555 1_555
Zr7_18 O23_28 1_555 1_555
C9_20 H7_20 1_555 1_555
C12_20 H8_20 1_555 1_555
Zr6_3 O2_19 1_555 1_555
O2_19 Zr9_15 1_555 1_555
O4_25 Zr6_3 1_555 1_555
O5_25 Zr6_3 1_555 1_555
O6_29 Zr9_15 1_555 1_555
Zr4_5 O2_19 1_555 1_555
O13_25 Zr4_5 1_555 1_555
O14_25 Zr4_5 1_555 1_555
O15_29 Zr6_3 1_555 1_555
O19_25 Zr6_3 1_555 1_555
O22_29 Zr6_3 1_555 1_555
O23_29 Zr4_5 1_555 1_555
Zr9_15 O15_29 1_555 1_555
O6_29 Zr4_5 1_555 1_555
Zr4_5 O19_25 1_555 1_555
O6_30 Zr9_16 1_555 1_555
Zr5_19 O15_30 1_555 1_555
Zr7_19 O6_30 1_555 1_555
O16_21 Zr9_16 1_555 1_555
O17_21 Zr9_16 1_555 1_555
O18_21 Zr9_16 1_555 1_555
Zr9_16 O15_30 1_555 1_555
Zr5_19 O18_21 1_555 1_555
Zr5_19 O22_30 1_555 1_555
Zr7_19 O18_21 1_555 1_555
Zr7_19 O23_30 1_555 1_555
Zr1_12 O2_20 1_555 1_555
Zr2_15 O1_14 1_555 1_555
S1_20 C2_20 1_555 1_555
C1_20 C2_20 1_555 1_555
C2_20 C3_20 1_555 1_555
C3_20 C6_20 1_555 1_555
O1_14 C1_20 1_555 1_555
O2_20 Zr2_15 1_555 1_555
O3_18 C1_20 1_555 1_555
O4_26 Zr1_12 1_555 1_555
O5_26 Zr1_12 1_555 1_555
O6_31 Zr2_15 1_555 1_555
C4_20 C5_20 1_555 1_555
C5_20 S1_20 1_555 1_555
C6_20 C5_20 1_555 1_555
O7_14 C4_20 1_555 1_555
O21_18 C4_20 1_555 1_555
S2_21 C8_21 1_555 1_555
C7_21 C8_21 1_555 1_555
C8_21 C9_21 1_555 1_555
C9_21 C12_21 1_555 1_555
O9_15 C7_21 1_555 1_555
O20_3 C7_21 1_555 1_555
C10_21 C11_21 1_555 1_555
C11_21 S2_21 1_555 1_555
C12_21 C11_21 1_555 1_555
O11_15 Zr2_15 1_555 1_555
O12_20 Zr1_12 1_555 1_555
Zr3_11 O2_20 1_555 1_555
O13_26 Zr3_11 1_555 1_555
O14_26 Zr3_11 1_555 1_555
O15_31 Zr1_12 1_555 1_555
Zr5_20 O15_31 1_555 1_555
Zr7_20 O6_31 1_555 1_555
Zr8_15 O9_15 1_555 1_555
Zr9_17 O7_14 1_555 1_555
O16_22 Zr2_15 1_555 1_555
O17_22 Zr2_15 1_555 1_555
O18_22 Zr2_15 1_555 1_555
O19_26 Zr1_12 1_555 1_555
O20_23 Zr1_12 1_555 1_555
O21_23 Zr3_11 1_555 1_555
O22_31 Zr1_12 1_555 1_555
O23_31 Zr3_11 1_555 1_555
Zr2_15 O15_31 1_555 1_555
O3_18 Zr3_11 1_555 1_555
O6_31 Zr3_11 1_555 1_555
C10_21 O11_15 1_555 1_555
C10_21 O12_20 1_555 1_555
Zr3_11 O19_26 1_555 1_555
Zr5_20 O18_22 1_555 1_555
Zr5_20 O22_31 1_555 1_555
Zr7_20 O18_22 1_555 1_555
Zr7_20 O23_31 1_555 1_555
C3_20 H1_20 1_555 1_555
C6_20 H2_20 1_555 1_555
C9_21 H7_21 1_555 1_555
C12_21 H8_21 1_555 1_555
O22_11 Zr2_16 1_555 1_555
O16_23 Zr2_16 1_555 1_555
O17_23 Zr2_16 1_555 1_555
O18_23 Zr2_16 1_555 1_555
Zr2_16 O23_11 1_555 1_555
Zr7_6 O18_23 1_555 1_555
Zr5_6 O18_23 1_555 1_555
Zr2_17 O1_15 1_555 1_555
S1_21 C2_21 1_555 1_555
C1_21 C2_21 1_555 1_555
C2_21 C3_21 1_555 1_555
C3_21 C6_21 1_555 1_555
O1_15 C1_21 1_555 1_555
O19_6 Zr2_17 1_555 1_555
O20_6 C1_21 1_555 1_555
O22_12 Zr2_17 1_555 1_555
C4_21 C5_21 1_555 1_555
C5_21 S1_21 1_555 1_555
C6_21 C5_21 1_555 1_555
O7_15 C4_21 1_555 1_555
O8_18 C4_21 1_555 1_555
S2_22 C8_22 1_555 1_555
C7_22 C8_22 1_555 1_555
C8_22 C9_22 1_555 1_555
C9_22 C12_22 1_555 1_555
O9_16 C7_22 1_555 1_555
O20_13 C7_22 1_555 1_555
C10_22 C11_22 1_555 1_555
C11_22 S2_22 1_555 1_555
C12_22 C11_22 1_555 1_555
O11_16 Zr2_17 1_555 1_555
Zr4_11 O8_18 1_555 1_555
Zr8_17 O9_16 1_555 1_555
Zr9_18 O7_15 1_555 1_555
Zr2_17 O23_12 1_555 1_555
C10_22 O11_16 1_555 1_555
C10_22 O21_6 1_555 1_555
C3_21 H1_21 1_555 1_555
C6_21 H2_21 1_555 1_555
C9_22 H7_22 1_555 1_555
C12_22 H8_22 1_555 1_555
O22_9 Zr2_18 1_555 1_555
O16_24 Zr2_18 1_555 1_555
O17_24 Zr2_18 1_555 1_555
O18_24 Zr2_18 1_555 1_555
Zr2_18 O23_9 1_555 1_555
Zr7_5 O18_24 1_555 1_555
Zr5_5 O18_24 1_555 1_555
Zr2_19 O1_16 1_555 1_555
S1_22 C2_22 1_555 1_555
C1_22 C2_22 1_555 1_555
C2_22 C3_22 1_555 1_555
C3_22 C6_22 1_555 1_555
O1_16 C1_22 1_555 1_555
O19_5 Zr2_19 1_555 1_555
O20_5 C1_22 1_555 1_555
O22_10 Zr2_19 1_555 1_555
C4_22 C5_22 1_555 1_555
C5_22 S1_22 1_555 1_555
C6_22 C5_22 1_555 1_555
O7_16 C4_22 1_555 1_555
O8_19 C4_22 1_555 1_555
S2_23 C8_23 1_555 1_555
C7_23 C8_23 1_555 1_555
C8_23 C9_23 1_555 1_555
C9_23 C12_23 1_555 1_555
O9_17 C7_23 1_555 1_555
O20_17 C7_23 1_555 1_555
C10_23 C11_23 1_555 1_555
C11_23 S2_23 1_555 1_555
C12_23 C11_23 1_555 1_555
O11_17 Zr2_19 1_555 1_555
Zr4_12 O8_19 1_555 1_555
Zr8_18 O9_17 1_555 1_555
Zr9_19 O7_16 1_555 1_555
Zr2_19 O23_10 1_555 1_555
C10_23 O11_17 1_555 1_555
C10_23 O21_5 1_555 1_555
C3_22 H1_22 1_555 1_555
C6_22 H2_22 1_555 1_555
C9_23 H7_23 1_555 1_555
C12_23 H8_23 1_555 1_555
Zr9_17 O1_17 1_555 1_555
S1_23 C2_23 1_555 1_555
C1_23 C2_23 1_555 1_555
C2_23 C3_23 1_555 1_555
C3_23 C6_23 1_555 1_555
O1_17 C1_23 1_555 1_555
O19_19 Zr9_17 1_555 1_555
O20_18 C1_23 1_555 1_555
O22_26 Zr9_17 1_555 1_555
C4_23 C5_23 1_555 1_555
C5_23 S1_23 1_555 1_555
C6_23 C5_23 1_555 1_555
O7_17 C4_23 1_555 1_555
O21_3 C4_23 1_555 1_555
Zr8_15 O7_17 1_555 1_555
O16_25 Zr9_17 1_555 1_555
O17_25 Zr9_17 1_555 1_555
O18_25 Zr9_17 1_555 1_555
Zr9_17 O23_26 1_555 1_555
Zr7_16 O18_25 1_555 1_555
Zr5_16 O18_25 1_555 1_555
C3_23 H1_23 1_555 1_555
C6_23 H2_23 1_555 1_555
Zr4_11 O2_21 1_555 1_555
Zr9_18 O1_18 1_555 1_555
S1_24 C2_24 1_555 1_555
C1_24 C2_24 1_555 1_555
C2_24 C3_24 1_555 1_555
C3_24 C6_24 1_555 1_555
O1_18 C1_24 1_555 1_555
O2_21 Zr9_18 1_555 1_555
O3_19 C1_24 1_555 1_555
O4_27 Zr4_11 1_555 1_555
O5_27 Zr4_11 1_555 1_555
O6_32 Zr9_18 1_555 1_555
C4_24 C5_24 1_555 1_555
C5_24 S1_24 1_555 1_555
C6_24 C5_24 1_555 1_555
O7_18 C4_24 1_555 1_555
O21_13 C4_24 1_555 1_555
Zr3_12 O2_21 1_555 1_555
O13_27 Zr3_12 1_555 1_555
O14_27 Zr3_12 1_555 1_555
O15_32 Zr4_11 1_555 1_555
Zr5_21 O15_32 1_555 1_555
Zr7_21 O6_32 1_555 1_555
Zr8_17 O7_18 1_555 1_555
O16_26 Zr9_18 1_555 1_555
O17_26 Zr9_18 1_555 1_555
O18_26 Zr9_18 1_555 1_555
O19_27 Zr4_11 1_555 1_555
O20_24 Zr4_11 1_555 1_555
O21_24 Zr3_12 1_555 1_555
O22_32 Zr4_11 1_555 1_555
O23_32 Zr3_12 1_555 1_555
Zr9_18 O15_32 1_555 1_555
O3_19 Zr3_12 1_555 1_555
O6_32 Zr3_12 1_555 1_555
Zr3_12 O19_27 1_555 1_555
Zr5_21 O18_26 1_555 1_555
Zr5_21 O22_32 1_555 1_555
Zr7_21 O18_26 1_555 1_555
Zr7_21 O23_32 1_555 1_555
C3_24 H1_24 1_555 1_555
C6_24 H2_24 1_555 1_555
O19_18 Zr8_18 1_555 1_555
O22_25 Zr8_18 1_555 1_555
S2_24 C8_24 1_555 1_555
C7_24 C8_24 1_555 1_555
C8_24 C9_24 1_555 1_555
C9_24 C12_24 1_555 1_555
O9_18 C7_24 1_555 1_555
O10_20 C7_24 1_555 1_555
C10_24 C11_24 1_555 1_555
C11_24 S2_24 1_555 1_555
C12_24 C11_24 1_555 1_555
O11_18 Zr8_18 1_555 1_555
Zr6_12 O10_20 1_555 1_555
Zr9_19 O9_18 1_555 1_555
O16_27 Zr8_18 1_555 1_555
O17_27 Zr8_18 1_555 1_555
O18_27 Zr8_18 1_555 1_555
Zr8_18 O23_25 1_555 1_555
C10_24 O11_18 1_555 1_555
C10_24 O21_17 1_555 1_555
Zr7_15 O18_27 1_555 1_555
Zr5_15 O18_27 1_555 1_555
C9_24 H7_24 1_555 1_555
C12_24 H8_24 1_555 1_555
S1_25 C2_25 1_555 1_555
C1_25 C2_25 1_555 1_555
C2_25 C3_25 1_555 1_555
C3_25 C6_25 1_555 1_555
O17_19 C1_25 1_555 1_555
O3_20 C1_25 1_555 1_555
O4_28 Zr7_17 1_555 1_555
O5_28 Zr7_17 1_555 1_555
C4_25 C5_25 1_555 1_555
C5_25 S1_25 1_555 1_555
C6_25 C5_25 1_555 1_555
O16_22 C4_25 1_555 1_555
O8_20 C4_25 1_555 1_555
S2_25 C8_25 1_555 1_555
C7_25 C8_25 1_555 1_555
C8_25 C9_25 1_555 1_555
C9_25 C12_25 1_555 1_555
O17_24 C7_25 1_555 1_555
O10_21 C7_25 1_555 1_555
C10_25 C11_25 1_555 1_555
C11_25 S2_25 1_555 1_555
C12_25 C11_25 1_555 1_555
O12_21 Zr7_17 1_555 1_555
O13_28 Zr5_17 1_555 1_555
O14_28 Zr5_17 1_555 1_555
Zr7_20 O8_20 1_555 1_555
Zr7_5 O10_21 1_555 1_555
O19_28 Zr7_17 1_555 1_555
O20_25 Zr7_17 1_555 1_555
O21_25 Zr5_17 1_555 1_555
O3_20 Zr5_17 1_555 1_555
C10_25 O16_19 1_555 1_555
C10_25 O12_21 1_555 1_555
Zr5_17 O19_28 1_555 1_555
C3_25 H1_25 1_555 1_555
C6_25 H2_25 1_555 1_555
C9_25 H7_25 1_555 1_555
C12_25 H8_25 1_555 1_555
S1_26 C2_26 1_555 1_555
C1_26 C2_26 1_555 1_555
C2_26 C3_26 1_555 1_555
C3_26 C6_26 1_555 1_555
O17_20 C1_26 1_555 1_555
O3_21 C1_26 1_555 1_555
O4_29 Zr7_18 1_555 1_555
O5_29 Zr7_18 1_555 1_555
C4_26 C5_26 1_555 1_555
C5_26 S1_26 1_555 1_555
C6_26 C5_26 1_555 1_555
O16_23 C4_26 1_555 1_555
O8_21 C4_26 1_555 1_555
S2_26 C8_26 1_555 1_555
C7_26 C8_26 1_555 1_555
C8_26 C9_26 1_555 1_555
C9_26 C12_26 1_555 1_555
O17_25 C7_26 1_555 1_555
O10_22 C7_26 1_555 1_555
C10_26 C11_26 1_555 1_555
C11_26 S2_26 1_555 1_555
C12_26 C11_26 1_555 1_555
O12_22 Zr7_18 1_555 1_555
O13_29 Zr5_18 1_555 1_555
O14_29 Zr5_18 1_555 1_555
Zr5_6 O8_21 1_555 1_555
Zr7_16 O10_22 1_555 1_555
O19_29 Zr7_18 1_555 1_555
O20_26 Zr7_18 1_555 1_555
O21_26 Zr5_18 1_555 1_555
O3_21 Zr5_18 1_555 1_555
C10_26 O16_20 1_555 1_555
C10_26 O12_22 1_555 1_555
Zr5_18 O19_29 1_555 1_555
C3_26 H1_26 1_555 1_555
C6_26 H2_26 1_555 1_555
C9_26 H7_26 1_555 1_555
C12_26 H8_26 1_555 1_555
S1_27 C2_27 1_555 1_555
C1_27 C2_27 1_555 1_555
C2_27 C3_27 1_555 1_555
C3_27 C6_27 1_555 1_555
O17_21 C1_27 1_555 1_555
O3_22 C1_27 1_555 1_555
O4_30 Zr7_19 1_555 1_555
O5_30 Zr7_19 1_555 1_555
C4_27 C5_27 1_555 1_555
C5_27 S1_27 1_555 1_555
C6_27 C5_27 1_555 1_555
O16_27 C4_27 1_555 1_555
O8_22 C4_27 1_555 1_555
S2_27 C8_27 1_555 1_555
C7_27 C8_27 1_555 1_555
C8_27 C9_27 1_555 1_555
C9_27 C12_27 1_555 1_555
O17_26 C7_27 1_555 1_555
O10_23 C7_27 1_555 1_555
C10_27 C11_27 1_555 1_555
C11_27 S2_27 1_555 1_555
C12_27 C11_27 1_555 1_555
O12_23 Zr7_19 1_555 1_555
O13_30 Zr5_19 1_555 1_555
O14_30 Zr5_19 1_555 1_555
Zr5_15 O8_22 1_555 1_555
Zr5_21 O10_23 1_555 1_555
O19_30 Zr7_19 1_555 1_555
O20_27 Zr7_19 1_555 1_555
O21_27 Zr5_19 1_555 1_555
O3_22 Zr5_19 1_555 1_555
C10_27 O16_21 1_555 1_555
C10_27 O12_23 1_555 1_555
Zr5_19 O19_30 1_555 1_555
C3_27 H1_27 1_555 1_555
C6_27 H2_27 1_555 1_555
C9_27 H7_27 1_555 1_555
C12_27 H8_27 1_555 1_555
Zr6_4 O2_22 1_555 1_555
Zr2_20 O1_19 1_555 1_555
S1_28 C2_28 1_555 1_555
C1_28 C2_28 1_555 1_555
C2_28 C3_28 1_555 1_555
C3_28 C6_28 1_555 1_555
O1_19 C1_28 1_555 1_555
O2_22 Zr2_20 1_555 1_555
O3_23 C1_28 1_555 1_555
O4_31 Zr6_4 1_555 1_555
O5_31 Zr6_4 1_555 1_555
O6_33 Zr2_20 1_555 1_555
C4_28 C5_28 1_555 1_555
C5_28 S1_28 1_555 1_555
C6_28 C5_28 1_555 1_555
O7_19 C4_28 1_555 1_555
O8_23 C4_28 1_555 1_555
S2_28 C8_28 1_555 1_555
C7_28 C8_28 1_555 1_555
C8_28 C9_28 1_555 1_555
C9_28 C12_28 1_555 1_555
O9_19 C7_28 1_555 1_555
O10_24 C7_28 1_555 1_555
C10_28 C11_28 1_555 1_555
C11_28 S2_28 1_555 1_555
C12_28 C11_28 1_555 1_555
O11_19 Zr2_20 1_555 1_555
O12_24 Zr6_4 1_555 1_555
Zr4_6 O2_22 1_555 1_555
O13_31 Zr4_6 1_555 1_555
O14_31 Zr4_6 1_555 1_555
O15_33 Zr6_4 1_555 1_555
Zr6_8 O8_23 1_555 1_555
Zr4_12 O10_24 1_555 1_555
Zr8_19 O9_19 1_555 1_555
Zr9_20 O7_19 1_555 1_555
O19_31 Zr6_4 1_555 1_555
O22_33 Zr6_4 1_555 1_555
O23_33 Zr4_6 1_555 1_555
Zr2_20 O15_33 1_555 1_555
O3_23 Zr4_6 1_555 1_555
O6_33 Zr4_6 1_555 1_555
C10_28 O11_19 1_555 1_555
C10_28 O12_24 1_555 1_555
Zr4_6 O19_31 1_555 1_555
C3_28 H1_28 1_555 1_555
C6_28 H2_28 1_555 1_555
C9_28 H7_28 1_555 1_555
C12_28 H8_28 1_555 1_555
O6_34 Zr2_21 1_555 1_555
Zr5_22 O15_34 1_555 1_555
Zr7_22 O6_34 1_555 1_555
O16_28 Zr2_21 1_555 1_555
O17_28 Zr2_21 1_555 1_555
O18_28 Zr2_21 1_555 1_555
Zr2_21 O15_34 1_555 1_555
Zr5_22 O18_28 1_555 1_555
Zr5_22 O22_34 1_555 1_555
Zr7_22 O18_28 1_555 1_555
Zr7_22 O23_34 1_555 1_555
Zr6_12 O2_23 1_555 1_555
O2_23 Zr8_19 1_555 1_555
O4_32 Zr6_12 1_555 1_555
O5_32 Zr6_12 1_555 1_555
O6_35 Zr8_19 1_555 1_555
S2_29 C8_29 1_555 1_555
C7_29 C8_29 1_555 1_555
C8_29 C9_29 1_555 1_555
C9_29 C12_29 1_555 1_555
O9_20 C7_29 1_555 1_555
O10_25 C7_29 1_555 1_555
C10_29 C11_29 1_555 1_555
C11_29 S2_29 1_555 1_555
C12_29 C11_29 1_555 1_555
O11_20 Zr8_19 1_555 1_555
O12_25 Zr6_12 1_555 1_555
Zr4_12 O2_23 1_555 1_555
O13_32 Zr4_12 1_555 1_555
O14_32 Zr4_12 1_555 1_555
O15_35 Zr6_12 1_555 1_555
Zr5_23 O15_35 1_555 1_555
Zr4_9 O10_25 1_555 1_555
Zr7_23 O6_35 1_555 1_555
Zr9_20 O9_20 1_555 1_555
O16_29 Zr8_19 1_555 1_555
O17_29 Zr8_19 1_555 1_555
O18_29 Zr8_19 1_555 1_555
O19_32 Zr6_12 1_555 1_555
O22_35 Zr6_12 1_555 1_555
O23_35 Zr4_12 1_555 1_555
Zr8_19 O15_35 1_555 1_555
O6_35 Zr4_12 1_555 1_555
C10_29 O11_20 1_555 1_555
C10_29 O12_25 1_555 1_555
Zr4_12 O19_32 1_555 1_555
Zr5_23 O18_29 1_555 1_555
Zr5_23 O22_35 1_555 1_555
Zr7_23 O18_29 1_555 1_555
Zr7_23 O23_35 1_555 1_555
C9_29 H7_29 1_555 1_555
C12_29 H8_29 1_555 1_555
Zr6_8 O2_24 1_555 1_555
O2_24 Zr9_20 1_555 1_555
O4_33 Zr6_8 1_555 1_555
O5_33 Zr6_8 1_555 1_555
O6_36 Zr9_20 1_555 1_555
Zr4_9 O2_24 1_555 1_555
O13_33 Zr4_9 1_555 1_555
O14_33 Zr4_9 1_555 1_555
O15_36 Zr6_8 1_555 1_555
Zr5_24 O15_36 1_555 1_555
Zr7_24 O6_36 1_555 1_555
O16_30 Zr9_20 1_555 1_555
O17_30 Zr9_20 1_555 1_555
O18_30 Zr9_20 1_555 1_555
O19_33 Zr6_8 1_555 1_555
O22_36 Zr6_8 1_555 1_555
O23_36 Zr4_9 1_555 1_555
Zr9_20 O15_36 1_555 1_555
O6_36 Zr4_9 1_555 1_555
Zr4_9 O19_33 1_555 1_555
Zr5_24 O18_30 1_555 1_555
Zr5_24 O22_36 1_555 1_555
Zr7_24 O18_30 1_555 1_555
Zr7_24 O23_36 1_555 1_555
Zr2_22 O1_20 1_555 1_555
S1_29 C2_29 1_555 1_555
C1_29 C2_29 1_555 1_555
C2_29 C3_29 1_555 1_555
C3_29 C6_29 1_555 1_555
O1_20 C1_29 1_555 1_555
O19_27 Zr2_22 1_555 1_555
O20_24 C1_29 1_555 1_555
O22_32 Zr2_22 1_555 1_555
C4_29 C5_29 1_555 1_555
C5_29 S1_29 1_555 1_555
C6_29 C5_29 1_555 1_555
O7_20 C4_29 1_555 1_555
O21_9 C4_29 1_555 1_555
S2_30 C8_30 1_555 1_555
C7_30 C8_30 1_555 1_555
C8_30 C9_30 1_555 1_555
C9_30 C12_30 1_555 1_555
O9_21 C7_30 1_555 1_555
O20_14 C7_30 1_555 1_555
C10_30 C11_30 1_555 1_555
C11_30 S2_30 1_555 1_555
C12_30 C11_30 1_555 1_555
O11_21 Zr2_22 1_555 1_555
Zr8_20 O9_21 1_555 1_555
Zr9_22 O7_20 1_555 1_555
O16_31 Zr2_22 1_555 1_555
O17_31 Zr2_22 1_555 1_555
O18_31 Zr2_22 1_555 1_555
Zr2_22 O23_32 1_555 1_555
C10_30 O11_21 1_555 1_555
C10_30 O21_24 1_555 1_555
Zr7_21 O18_31 1_555 1_555
Zr5_21 O18_31 1_555 1_555
C3_29 H1_29 1_555 1_555
C6_29 H2_29 1_555 1_555
C9_30 H7_30 1_555 1_555
C12_30 H8_30 1_555 1_555
Zr2_23 O1_21 1_555 1_555
S1_30 C2_30 1_555 1_555
C1_30 C2_30 1_555 1_555
C2_30 C3_30 1_555 1_555
C3_30 C6_30 1_555 1_555
O1_21 C1_30 1_555 1_555
O19_17 Zr2_23 1_555 1_555
O20_16 C1_30 1_555 1_555
O22_24 Zr2_23 1_555 1_555
C4_30 C5_30 1_555 1_555
C5_30 S1_30 1_555 1_555
C6_30 C5_30 1_555 1_555
O7_21 C4_30 1_555 1_555
O21_23 C4_30 1_555 1_555
S2_31 C8_31 1_555 1_555
C7_31 C8_31 1_555 1_555
C8_31 C9_31 1_555 1_555
C9_31 C12_31 1_555 1_555
O9_22 C7_31 1_555 1_555
O20 C7_31 1_555 1_555
C10_31 C11_31 1_555 1_555
C11_31 S2_31 1_555 1_555
C12_31 C11_31 1_555 1_555
O11_22 Zr2_23 1_555 1_555
Zr8_21 O9_22 1_555 1_555
Zr9_23 O7_21 1_555 1_555
O16_32 Zr2_23 1_555 1_555
O17_32 Zr2_23 1_555 1_555
O18_32 Zr2_23 1_555 1_555
Zr2_23 O23_24 1_555 1_555
C10_31 O11_22 1_555 1_555
C10_31 O21_16 1_555 1_555
Zr7_14 O18_32 1_555 1_555
Zr5_14 O18_32 1_555 1_555
C3_30 H1_30 1_555 1_555
C6_30 H2_30 1_555 1_555
C9_31 H7_31 1_555 1_555
C12_31 H8_31 1_555 1_555
Zr2_24 O1_22 1_555 1_555
S1_31 C2_31 1_555 1_555
C1_31 C2_31 1_555 1_555
C2_31 C3_31 1_555 1_555
C3_31 C6_31 1_555 1_555
O1_22 C1_31 1_555 1_555
O19_16 Zr2_24 1_555 1_555
O20_15 C1_31 1_555 1_555
O22_23 Zr2_24 1_555 1_555
C4_31 C5_31 1_555 1_555
C5_31 S1_31 1_555 1_555
C6_31 C5_31 1_555 1_555
O7_22 C4_31 1_555 1_555
O21_22 C4_31 1_555 1_555
S2_32 C8_32 1_555 1_555
C7_32 C8_32 1_555 1_555
C8_32 C9_32 1_555 1_555
C9_32 C12_32 1_555 1_555
O9_23 C7_32 1_555 1_555
O20_7 C7_32 1_555 1_555
C10_32 C11_32 1_555 1_555
C11_32 S2_32 1_555 1_555
C12_32 C11_32 1_555 1_555
O11_23 Zr2_24 1_555 1_555
Zr8_24 O9_23 1_555 1_555
Zr9_24 O7_22 1_555 1_555
O16_33 Zr2_24 1_555 1_555
O17_33 Zr2_24 1_555 1_555
O18_33 Zr2_24 1_555 1_555
Zr2_24 O23_23 1_555 1_555
C10_32 O11_23 1_555 1_555
C10_32 O21_15 1_555 1_555
Zr7_13 O18_33 1_555 1_555
Zr5_13 O18_33 1_555 1_555
C3_31 H1_31 1_555 1_555
C6_31 H2_31 1_555 1_555
C9_32 H7_32 1_555 1_555
C12_32 H8_32 1_555 1_555
O22_17 Zr9_21 1_555 1_555
O16_34 Zr9_21 1_555 1_555
O17_34 Zr9_21 1_555 1_555
O18_34 Zr9_21 1_555 1_555
Zr9_21 O23_17 1_555 1_555
Zr7_9 O18_34 1_555 1_555
Zr5_9 O18_34 1_555 1_555
Zr9_22 O1_23 1_555 1_555
S1_32 C2_32 1_555 1_555
C1_32 C2_32 1_555 1_555
C2_32 C3_32 1_555 1_555
C3_32 C6_32 1_555 1_555
O1_23 C1_32 1_555 1_555
O19_9 Zr9_22 1_555 1_555
O20_9 C1_32 1_555 1_555
O22_18 Zr9_22 1_555 1_555
C4_32 C5_32 1_555 1_555
C5_32 S1_32 1_555 1_555
C6_32 C5_32 1_555 1_555
O7_23 C4_32 1_555 1_555
O21_14 C4_32 1_555 1_555
Zr8_20 O7_23 1_555 1_555
Zr9_22 O23_18 1_555 1_555
C3_32 H1_32 1_555 1_555
C6_32 H2_32 1_555 1_555
Zr9_23 O1_24 1_555 1_555
S1_33 C2_33 1_555 1_555
C1_33 C2_33 1_555 1_555
C2_33 C3_33 1_555 1_555
C3_33 C6_33 1_555 1_555
O1_24 C1_33 1_555 1_555
O19_26 Zr9_23 1_555 1_555
O20_23 C1_33 1_555 1_555
O22_31 Zr9_23 1_555 1_555
C4_33 C5_33 1_555 1_555
C5_33 S1_33 1_555 1_555
C6_33 C5_33 1_555 1_555
O7_24 C4_33 1_555 1_555
O21 C4_33 1_555 1_555
Zr8_21 O7_24 1_555 1_555
O16_35 Zr9_23 1_555 1_555
O17_35 Zr9_23 1_555 1_555
O18_35 Zr9_23 1_555 1_555
Zr9_23 O23_31 1_555 1_555
Zr7_20 O18_35 1_555 1_555
Zr5_20 O18_35 1_555 1_555
C3_33 H1_33 1_555 1_555
C6_33 H2_33 1_555 1_555
O22_13 Zr8_23 1_555 1_555
O16_36 Zr8_23 1_555 1_555
O17_36 Zr8_23 1_555 1_555
O18_36 Zr8_23 1_555 1_555
Zr8_23 O23_13 1_555 1_555
Zr7_7 O18_36 1_555 1_555
Zr5_7 O18_36 1_555 1_555
O19_7 Zr8_24 1_555 1_555
O22_14 Zr8_24 1_555 1_555
S2_33 C8_33 1_555 1_555
C7_33 C8_33 1_555 1_555
C8_33 C9_33 1_555 1_555
C9_33 C12_33 1_555 1_555
O9_24 C7_33 1_555 1_555
O20_22 C7_33 1_555 1_555
C10_33 C11_33 1_555 1_555
C11_33 S2_33 1_555 1_555
C12_33 C11_33 1_555 1_555
O11_24 Zr8_24 1_555 1_555
Zr9_24 O9_24 1_555 1_555
Zr8_24 O23_14 1_555 1_555
C10_33 O11_24 1_555 1_555
C10_33 O21_7 1_555 1_555
C9_33 H7_33 1_555 1_555
C12_33 H8_33 1_555 1_555
S1_34 C2_34 1_555 1_555
C1_34 C2_34 1_555 1_555
C2_34 C3_34 1_555 1_555
C3_34 C6_34 1_555 1_555
O17_28 C1_34 1_555 1_555
O3_24 C1_34 1_555 1_555
O4_34 Zr7_22 1_555 1_555
O5_34 Zr7_22 1_555 1_555
C4_34 C5_34 1_555 1_555
C5_34 S1_34 1_555 1_555
C6_34 C5_34 1_555 1_555
O16_31 C4_34 1_555 1_555
O8_24 C4_34 1_555 1_555
S2_34 C8_34 1_555 1_555
C7_34 C8_34 1_555 1_555
C8_34 C9_34 1_555 1_555
C9_34 C12_34 1_555 1_555
O17_33 C7_34 1_555 1_555
O10_26 C7_34 1_555 1_555
C10_34 C11_34 1_555 1_555
C11_34 S2_34 1_555 1_555
C12_34 C11_34 1_555 1_555
O12_26 Zr7_22 1_555 1_555
O13_34 Zr5_22 1_555 1_555
O14_34 Zr5_22 1_555 1_555
Zr5_21 O8_24 1_555 1_555
Zr7_13 O10_26 1_555 1_555
O19_34 Zr7_22 1_555 1_555
O20_28 Zr7_22 1_555 1_555
O21_28 Zr5_22 1_555 1_555
O3_24 Zr5_22 1_555 1_555
C10_34 O16_28 1_555 1_555
C10_34 O12_26 1_555 1_555
Zr5_22 O19_34 1_555 1_555
C3_34 H1_34 1_555 1_555
C6_34 H2_34 1_555 1_555
C9_34 H7_34 1_555 1_555
C12_34 H8_34 1_555 1_555
S1_35 C2_35 1_555 1_555
C1_35 C2_35 1_555 1_555
C2_35 C3_35 1_555 1_555
C3_35 C6_35 1_555 1_555
O17_29 C1_35 1_555 1_555
O3_25 C1_35 1_555 1_555
O4_35 Zr7_23 1_555 1_555
O5_35 Zr7_23 1_555 1_555
C4_35 C5_35 1_555 1_555
C5_35 S1_35 1_555 1_555
C6_35 C5_35 1_555 1_555
O16_32 C4_35 1_555 1_555
O8_25 C4_35 1_555 1_555
S2_35 C8_35 1_555 1_555
C7_35 C8_35 1_555 1_555
C8_35 C9_35 1_555 1_555
C9_35 C12_35 1_555 1_555
O17_34 C7_35 1_555 1_555
O10_27 C7_35 1_555 1_555
C10_35 C11_35 1_555 1_555
C11_35 S2_35 1_555 1_555
C12_35 C11_35 1_555 1_555
O12_27 Zr7_23 1_555 1_555
O13_35 Zr5_23 1_555 1_555
O14_35 Zr5_23 1_555 1_555
Zr5_14 O8_25 1_555 1_555
Zr7_9 O10_27 1_555 1_555
O19_35 Zr7_23 1_555 1_555
O20_29 Zr7_23 1_555 1_555
O21_29 Zr5_23 1_555 1_555
O3_25 Zr5_23 1_555 1_555
C10_35 O16_29 1_555 1_555
C10_35 O12_27 1_555 1_555
Zr5_23 O19_35 1_555 1_555
C3_35 H1_35 1_555 1_555
C6_35 H2_35 1_555 1_555
C9_35 H7_35 1_555 1_555
C12_35 H8_35 1_555 1_555
S1_36 C2_36 1_555 1_555
C1_36 C2_36 1_555 1_555
C2_36 C3_36 1_555 1_555
C3_36 C6_36 1_555 1_555
O17_30 C1_36 1_555 1_555
O3_26 C1_36 1_555 1_555
O4_36 Zr7_24 1_555 1_555
O5_36 Zr7_24 1_555 1_555
C4_36 C5_36 1_555 1_555
C5_36 S1_36 1_555 1_555
C6_36 C5_36 1_555 1_555
O16_36 C4_36 1_555 1_555
O8_26 C4_36 1_555 1_555
S2_36 C8_36 1_555 1_555
C7_36 C8_36 1_555 1_555
C8_36 C9_36 1_555 1_555
C9_36 C12_36 1_555 1_555
O17_35 C7_36 1_555 1_555
O10_28 C7_36 1_555 1_555
C10_36 C11_36 1_555 1_555
C11_36 S2_36 1_555 1_555
C12_36 C11_36 1_555 1_555
O12_28 Zr7_24 1_555 1_555
O13_36 Zr5_24 1_555 1_555
O14_36 Zr5_24 1_555 1_555
Zr5_7 O8_26 1_555 1_555
Zr7_20 O10_28 1_555 1_555
O19_36 Zr7_24 1_555 1_555
O20_30 Zr7_24 1_555 1_555
O21_30 Zr5_24 1_555 1_555
O3_26 Zr5_24 1_555 1_555
C10_36 O16_30 1_555 1_555
C10_36 O12_28 1_555 1_555
Zr5_24 O19_36 1_555 1_555
C3_36 H1_36 1_555 1_555
C6_36 H2_36 1_555 1_555
C9_36 H7_36 1_555 1_555
C12_36 H8_36 1_555 1_555
O19_31 Zr8_5 1_555 1_555
O22_33 Zr8_5 1_555 1_555
Zr8_5 O23_33 1_555 1_555
O22_34 Zr8_6 1_555 1_555
O16_37 Zr8_6 1_555 1_555
O17_37 Zr8_6 1_555 1_555
O19_34 Zr8_6 1_555 1_555
Zr8_6 O23_34 1_555 1_555
O19_14 Zr9_7 1_555 1_555
O22_20 Zr9_7 1_555 1_555
Zr9_7 O23_20 1_555 1_555
O22_21 Zr9_8 1_555 1_555
O16_38 Zr9_8 1_555 1_555
O17_38 Zr9_8 1_555 1_555
O19_21 Zr9_8 1_555 1_555
Zr9_8 O23_21 1_555 1_555
O19_25 Zr8_3 1_555 1_555
O22_29 Zr8_3 1_555 1_555
Zr8_3 O23_29 1_555 1_555
O22_30 Zr8_4 1_555 1_555
O16_39 Zr8_4 1_555 1_555
O17_39 Zr8_4 1_555 1_555
O19_30 Zr8_4 1_555 1_555
Zr8_4 O23_30 1_555 1_555
S1_37 C2_37 1_555 1_555
C1_37 C2_37 1_555 1_555
C2_37 C3_37 1_555 1_555
C3_37 C6_37 1_555 1_555
O17_37 C1_37 1_555 1_555
O20_28 C1_37 1_555 1_555
C4_37 C5_37 1_555 1_555
C5_37 S1_37 1_555 1_555
C6_37 C5_37 1_555 1_555
O16_38 C4_37 1_555 1_555
O21_20 C4_37 1_555 1_555
S2_37 C8_37 1_555 1_555
C7_37 C8_37 1_555 1_555
C8_37 C9_37 1_555 1_555
C9_37 C12_37 1_555 1_555
O17_39 C7_37 1_555 1_555
O20_27 C7_37 1_555 1_555
C10_37 C11_37 1_555 1_555
C11_37 S2_37 1_555 1_555
C12_37 C11_37 1_555 1_555
C10_37 O16_37 1_555 1_555
C10_37 O21_28 1_555 1_555
C3_37 H1_37 1_555 1_555
C6_37 H2_37 1_555 1_555
C9_37 H7_37 1_555 1_555
C12_37 H8_37 1_555 1_555
S1_38 C2_38 1_555 1_555
C1_38 C2_38 1_555 1_555
C2_38 C3_38 1_555 1_555
C3_38 C6_38 1_555 1_555
O17_38 C1_38 1_555 1_555
O20_20 C1_38 1_555 1_555
C4_38 C5_38 1_555 1_555
C5_38 S1_38 1_555 1_555
C6_38 C5_38 1_555 1_555
O16_39 C4_38 1_555 1_555
O21_27 C4_38 1_555 1_555
C3_38 H1_38 1_555 1_555
C6_38 H2_38 1_555 1_555
O4_37 Zr7_8 1_555 1_555
O5_37 Zr7_8 1_555 1_555
S2_38 C8_38 1_555 1_555
C7_38 C8_38 1_555 1_555
C8_38 C9_38 1_555 1_555
C9_38 C12_38 1_555 1_555
O17_9 C7_38 1_555 1_555
O10_29 C7_38 1_555 1_555
C10_38 C11_38 1_555 1_555
C11_38 S2_38 1_555 1_555
C12_38 C11_38 1_555 1_555
O12_29 Zr7_8 1_555 1_555
O13_37 Zr5_8 1_555 1_555
O14_37 Zr5_8 1_555 1_555
Zr5_9 O10_29 1_555 1_555
O20_31 Zr7_8 1_555 1_555
C10_38 O16_8 1_555 1_555
C10_38 O12_29 1_555 1_555
C9_38 H7_38 1_555 1_555
C12_38 H8_38 1_555 1_555
O4_38 Zr7_6 1_555 1_555
O5_38 Zr7_6 1_555 1_555
S2_39 C8_39 1_555 1_555
C7_39 C8_39 1_555 1_555
C8_39 C9_39 1_555 1_555
C9_39 C12_39 1_555 1_555
O17_4 C7_39 1_555 1_555
O10_30 C7_39 1_555 1_555
C10_39 C11_39 1_555 1_555
C11_39 S2_39 1_555 1_555
C12_39 C11_39 1_555 1_555
O12_30 Zr7_6 1_555 1_555
O13_38 Zr5_6 1_555 1_555
O14_38 Zr5_6 1_555 1_555
Zr5_4 O10_30 1_555 1_555
O20_32 Zr7_6 1_555 1_555
C10_39 O16_6 1_555 1_555
C10_39 O12_30 1_555 1_555
C9_39 H7_39 1_555 1_555
C12_39 H8_39 1_555 1_555
S1_39 C2_39 1_555 1_555
C1_39 C2_39 1_555 1_555
C2_39 C3_39 1_555 1_555
C3_39 C6_39 1_555 1_555
O17_5 C1_39 1_555 1_555
O3_27 C1_39 1_555 1_555
O4_39 Zr7_5 1_555 1_555
O5_39 Zr7_5 1_555 1_555
C4_39 C5_39 1_555 1_555
C5_39 S1_39 1_555 1_555
C6_39 C5_39 1_555 1_555
O16_7 C4_39 1_555 1_555
O8_27 C4_39 1_555 1_555
O13_39 Zr5_5 1_555 1_555
O14_39 Zr5_5 1_555 1_555
Zr7_7 O8_27 1_555 1_555
O21_31 Zr5_5 1_555 1_555
O3_27 Zr5_5 1_555 1_555
C3_39 H1_39 1_555 1_555
C6_39 H2_39 1_555 1_555
O4_40 Zr7_9 1_555 1_555
O5_40 Zr7_9 1_555 1_555
O13_40 Zr5_9 1_555 1_555
O14_40 Zr5_9 1_555 1_555
O21_32 Zr5_9 1_555 1_555
O4_41 Zr7_4 1_555 1_555
O5_41 Zr7_4 1_555 1_555
O13_41 Zr5_4 1_555 1_555
O14_41 Zr5_4 1_555 1_555
O21_33 Zr5_4 1_555 1_555
O4_42 Zr7_7 1_555 1_555
O5_42 Zr7_7 1_555 1_555
O13_42 Zr5_7 1_555 1_555
O14_42 Zr5_7 1_555 1_555
O20_33 Zr7_7 1_555 1_555
O19_23 Zr8_12 1_555 1_555
O22_27 Zr8_12 1_555 1_555
O16_40 Zr8_12 1_555 1_555
O17_40 Zr8_12 1_555 1_555
O19_28 Zr8_12 1_555 1_555
Zr8_12 O23_27 1_555 1_555
O19_2 Zr9_13 1_555 1_555
O22_3 Zr9_13 1_555 1_555
Zr9_13 O23_3 1_555 1_555
O22_4 Zr9_14 1_555 1_555
O16_41 Zr9_14 1_555 1_555
O17_41 Zr9_14 1_555 1_555
O19_11 Zr9_14 1_555 1_555
Zr9_14 O23_4 1_555 1_555
O19_33 Zr8_11 1_555 1_555
O22_36 Zr8_11 1_555 1_555
O16_42 Zr8_11 1_555 1_555
O17_42 Zr8_11 1_555 1_555
O19_36 Zr8_11 1_555 1_555
Zr8_11 O23_36 1_555 1_555
S1_40 C2_40 1_555 1_555
C1_40 C2_40 1_555 1_555
C2_40 C3_40 1_555 1_555
C3_40 C6_40 1_555 1_555
O17_40 C1_40 1_555 1_555
O20_25 C1_40 1_555 1_555
C4_40 C5_40 1_555 1_555
C5_40 S1_40 1_555 1_555
C6_40 C5_40 1_555 1_555
O16_41 C4_40 1_555 1_555
O21_11 C4_40 1_555 1_555
S2_40 C8_40 1_555 1_555
C7_40 C8_40 1_555 1_555
C8_40 C9_40 1_555 1_555
C9_40 C12_40 1_555 1_555
O17_42 C7_40 1_555 1_555
O20_30 C7_40 1_555 1_555
C10_40 C11_40 1_555 1_555
C11_40 S2_40 1_555 1_555
C12_40 C11_40 1_555 1_555
C10_40 O16_40 1_555 1_555
C10_40 O21_25 1_555 1_555
C3_40 H1_40 1_555 1_555
C6_40 H2_40 1_555 1_555
C9_40 H7_40 1_555 1_555
C12_40 H8_40 1_555 1_555
S1_41 C2_41 1_555 1_555
C1_41 C2_41 1_555 1_555
C2_41 C3_41 1_555 1_555
C3_41 C6_41 1_555 1_555
O17_41 C1_41 1_555 1_555
O20_11 C1_41 1_555 1_555
C4_41 C5_41 1_555 1_555
C5_41 S1_41 1_555 1_555
C6_41 C5_41 1_555 1_555
O16_42 C4_41 1_555 1_555
O21_30 C4_41 1_555 1_555
C3_41 H1_41 1_555 1_555
C6_41 H2_41 1_555 1_555
S2_41 C8_41 1_555 1_555
C7_41 C8_41 1_555 1_555
C8_41 C9_41 1_555 1_555
C9_41 C12_41 1_555 1_555
O17_18 C7_41 1_555 1_555
O10_31 C7_41 1_555 1_555
C10_41 C11_41 1_555 1_555
C11_41 S2_41 1_555 1_555
C12_41 C11_41 1_555 1_555
Zr5_16 O10_31 1_555 1_555
C10_41 O16_17 1_555 1_555
C10_41 O21_33 1_555 1_555
C9_41 H7_41 1_555 1_555
C12_41 H8_41 1_555 1_555
O4_43 Zr7_14 1_555 1_555
O5_43 Zr7_14 1_555 1_555
S2_42 C8_42 1_555 1_555
C7_42 C8_42 1_555 1_555
C8_42 C9_42 1_555 1_555
C9_42 C12_42 1_555 1_555
O17_13 C7_42 1_555 1_555
O20_31 C7_42 1_555 1_555
C10_42 C11_42 1_555 1_555
C11_42 S2_42 1_555 1_555
C12_42 C11_42 1_555 1_555
O12_31 Zr7_14 1_555 1_555
O13_43 Zr5_14 1_555 1_555
O14_43 Zr5_14 1_555 1_555
O20_34 Zr7_14 1_555 1_555
C10_42 O16_15 1_555 1_555
C10_42 O12_31 1_555 1_555
C9_42 H7_42 1_555 1_555
C12_42 H8_42 1_555 1_555
S1_42 C2_42 1_555 1_555
C1_42 C2_42 1_555 1_555
C2_42 C3_42 1_555 1_555
C3_42 C6_42 1_555 1_555
O17_14 C1_42 1_555 1_555
O3_28 C1_42 1_555 1_555
O4_44 Zr7_13 1_555 1_555
O5_44 Zr7_13 1_555 1_555
C4_42 C5_42 1_555 1_555
C5_42 S1_42 1_555 1_555
C6_42 C5_42 1_555 1_555
O16_16 C4_42 1_555 1_555
O8_28 C4_42 1_555 1_555
O13_44 Zr5_13 1_555 1_555
O14_44 Zr5_13 1_555 1_555
Zr7_15 O8_28 1_555 1_555
O21_34 Zr5_13 1_555 1_555
O3_28 Zr5_13 1_555 1_555
C3_42 H1_42 1_555 1_555
C6_42 H2_42 1_555 1_555
O4_45 Zr7_16 1_555 1_555
O5_45 Zr7_16 1_555 1_555
O13_45 Zr5_16 1_555 1_555
O14_45 Zr5_16 1_555 1_555
O21_35 Zr5_16 1_555 1_555
O4_46 Zr7_15 1_555 1_555
O5_46 Zr7_15 1_555 1_555
O13_46 Zr5_15 1_555 1_555
O14_46 Zr5_15 1_555 1_555
O20_35 Zr7_15 1_555 1_555
O19_13 Zr8_17 1_555 1_555
O22_19 Zr8_17 1_555 1_555
O16_43 Zr8_17 1_555 1_555
O17_43 Zr8_17 1_555 1_555
O19_20 Zr8_17 1_555 1_555
Zr8_17 O23_19 1_555 1_555
O19_32 Zr9_19 1_555 1_555
O22_35 Zr9_19 1_555 1_555
O16_44 Zr9_19 1_555 1_555
O17_44 Zr9_19 1_555 1_555
O19_35 Zr9_19 1_555 1_555
Zr9_19 O23_35 1_555 1_555
O19_3 Zr8_15 1_555 1_555
O22_5 Zr8_15 1_555 1_555
Zr8_15 O23_5 1_555 1_555
O22_6 Zr8_16 1_555 1_555
O16_45 Zr8_16 1_555 1_555
O17_45 Zr8_16 1_555 1_555
O19_12 Zr8_16 1_555 1_555
Zr8_16 O23_6 1_555 1_555
S1_43 C2_43 1_555 1_555
C1_43 C2_43 1_555 1_555
C2_43 C3_43 1_555 1_555
C3_43 C6_43 1_555 1_555
O17_43 C1_43 1_555 1_555
O20_19 C1_43 1_555 1_555
C4_43 C5_43 1_555 1_555
C5_43 S1_43 1_555 1_555
C6_43 C5_43 1_555 1_555
O16_44 C4_43 1_555 1_555
O21_29 C4_43 1_555 1_555
S2_43 C8_43 1_555 1_555
C7_43 C8_43 1_555 1_555
C8_43 C9_43 1_555 1_555
C9_43 C12_43 1_555 1_555
O17_45 C7_43 1_555 1_555
O20_12 C7_43 1_555 1_555
C10_43 C11_43 1_555 1_555
C11_43 S2_43 1_555 1_555
C12_43 C11_43 1_555 1_555
C10_43 O16_43 1_555 1_555
C10_43 O21_19 1_555 1_555
C3_43 H1_43 1_555 1_555
C6_43 H2_43 1_555 1_555
C9_43 H7_43 1_555 1_555
C12_43 H8_43 1_555 1_555
S1_44 C2_44 1_555 1_555
C1_44 C2_44 1_555 1_555
C2_44 C3_44 1_555 1_555
C3_44 C6_44 1_555 1_555
O17_44 C1_44 1_555 1_555
O20_29 C1_44 1_555 1_555
C4_44 C5_44 1_555 1_555
C5_44 S1_44 1_555 1_555
C6_44 C5_44 1_555 1_555
O16_45 C4_44 1_555 1_555
O21_12 C4_44 1_555 1_555
C3_44 H1_44 1_555 1_555
C6_44 H2_44 1_555 1_555
O4_47 Zr7_21 1_555 1_555
O5_47 Zr7_21 1_555 1_555
S2_44 C8_44 1_555 1_555
C7_44 C8_44 1_555 1_555
C8_44 C9_44 1_555 1_555
C9_44 C12_44 1_555 1_555
O17_27 C7_44 1_555 1_555
O20_35 C7_44 1_555 1_555
C10_44 C11_44 1_555 1_555
C11_44 S2_44 1_555 1_555
C12_44 C11_44 1_555 1_555
O12_32 Zr7_21 1_555 1_555
O13_47 Zr5_21 1_555 1_555
O14_47 Zr5_21 1_555 1_555
O20_36 Zr7_21 1_555 1_555
C10_44 O16_26 1_555 1_555
C10_44 O12_32 1_555 1_555
C9_44 H7_44 1_555 1_555
C12_44 H8_44 1_555 1_555
S2_45 C8_45 1_555 1_555
C7_45 C8_45 1_555 1_555
C8_45 C9_45 1_555 1_555
C9_45 C12_45 1_555 1_555
O17_22 C7_45 1_555 1_555
O10_32 C7_45 1_555 1_555
C10_45 C11_45 1_555 1_555
C11_45 S2_45 1_555 1_555
C12_45 C11_45 1_555 1_555
Zr5_20 O10_32 1_555 1_555
C10_45 O16_24 1_555 1_555
C10_45 O21_31 1_555 1_555
C9_45 H7_45 1_555 1_555
C12_45 H8_45 1_555 1_555
S1_45 C2_45 1_555 1_555
C1_45 C2_45 1_555 1_555
C2_45 C3_45 1_555 1_555
C3_45 C6_45 1_555 1_555
O17_23 C1_45 1_555 1_555
O20_32 C1_45 1_555 1_555
C4_45 C5_45 1_555 1_555
C5_45 S1_45 1_555 1_555
C6_45 C5_45 1_555 1_555
O16_25 C4_45 1_555 1_555
O21_35 C4_45 1_555 1_555
C3_45 H1_45 1_555 1_555
C6_45 H2_45 1_555 1_555
O4_48 Zr7_20 1_555 1_555
O5_48 Zr7_20 1_555 1_555
O13_48 Zr5_20 1_555 1_555
O14_48 Zr5_20 1_555 1_555
O21_36 Zr5_20 1_555 1_555
O19 Zr8_21 1_555 1_555
O22 Zr8_21 1_555 1_555
Zr8_21 O23 1_555 1_555
O22_2 Zr8_22 1_555 1_555
O16_46 Zr8_22 1_555 1_555
O17_46 Zr8_22 1_555 1_555
O19_10 Zr8_22 1_555 1_555
Zr8_22 O23_2 1_555 1_555
O19_24 Zr9_24 1_555 1_555
O22_28 Zr9_24 1_555 1_555
O16_47 Zr9_24 1_555 1_555
O17_47 Zr9_24 1_555 1_555
O19_29 Zr9_24 1_555 1_555
Zr9_24 O23_28 1_555 1_555
O19_15 Zr8_20 1_555 1_555
O22_22 Zr8_20 1_555 1_555
O16_48 Zr8_20 1_555 1_555
O17_48 Zr8_20 1_555 1_555
O19_22 Zr8_20 1_555 1_555
Zr8_20 O23_22 1_555 1_555
S1_46 C2_46 1_555 1_555
C1_46 C2_46 1_555 1_555
C2_46 C3_46 1_555 1_555
C3_46 C6_46 1_555 1_555
O17_46 C1_46 1_555 1_555
O20_10 C1_46 1_555 1_555
C4_46 C5_46 1_555 1_555
C5_46 S1_46 1_555 1_555
C6_46 C5_46 1_555 1_555
O16_47 C4_46 1_555 1_555
O21_26 C4_46 1_555 1_555
S2_46 C8_46 1_555 1_555
C7_46 C8_46 1_555 1_555
C8_46 C9_46 1_555 1_555
C9_46 C12_46 1_555 1_555
O17_48 C7_46 1_555 1_555
O20_21 C7_46 1_555 1_555
C10_46 C11_46 1_555 1_555
C11_46 S2_46 1_555 1_555
C12_46 C11_46 1_555 1_555
C10_46 O16_46 1_555 1_555
C10_46 O21_10 1_555 1_555
C3_46 H1_46 1_555 1_555
C6_46 H2_46 1_555 1_555
C9_46 H7_46 1_555 1_555
C12_46 H8_46 1_555 1_555
S1_47 C2_47 1_555 1_555
C1_47 C2_47 1_555 1_555
C2_47 C3_47 1_555 1_555
C3_47 C6_47 1_555 1_555
O17_47 C1_47 1_555 1_555
O20_26 C1_47 1_555 1_555
C4_47 C5_47 1_555 1_555
C5_47 S1_47 1_555 1_555
C6_47 C5_47 1_555 1_555
O16_48 C4_47 1_555 1_555
O21_21 C4_47 1_555 1_555
C3_47 H1_47 1_555 1_555
C6_47 H2_47 1_555 1_555
S2_47 C8_47 1_555 1_555
C7_47 C8_47 1_555 1_555
C8_47 C9_47 1_555 1_555
C9_47 C12_47 1_555 1_555
O17_36 C7_47 1_555 1_555
O20_33 C7_47 1_555 1_555
C10_47 C11_47 1_555 1_555
C11_47 S2_47 1_555 1_555
C12_47 C11_47 1_555 1_555
C10_47 O16_35 1_555 1_555
C10_47 O21_36 1_555 1_555
C9_47 H7_47 1_555 1_555
C12_47 H8_47 1_555 1_555
S2_48 C8_48 1_555 1_555
C7_48 C8_48 1_555 1_555
C8_48 C9_48 1_555 1_555
C9_48 C12_48 1_555 1_555
O17_31 C7_48 1_555 1_555
O20_36 C7_48 1_555 1_555
C10_48 C11_48 1_555 1_555
C11_48 S2_48 1_555 1_555
C12_48 C11_48 1_555 1_555
C10_48 O16_33 1_555 1_555
C10_48 O21_34 1_555 1_555
C9_48 H7_48 1_555 1_555
C12_48 H8_48 1_555 1_555
S1_48 C2_48 1_555 1_555
C1_48 C2_48 1_555 1_555
C2_48 C3_48 1_555 1_555
C3_48 C6_48 1_555 1_555
O17_32 C1_48 1_555 1_555
O20_34 C1_48 1_555 1_555
C4_48 C5_48 1_555 1_555
C5_48 S1_48 1_555 1_555
C6_48 C5_48 1_555 1_555
O16_34 C4_48 1_555 1_555
O21_32 C4_48 1_555 1_555
C3_48 H1_48 1_555 1_555
C6_48 H2_48 1_555 1_555

#END
