
###############################################################################
#
# This file contains modified crystal structure data generated from the
# MOF subset of the Cambridge Structural Database (CSD) v543 
# hosted by the Cambridge Crystallographic Data Centre (CCDC).
#
# This work is licensed under the Creative Commons
# Attribution-NonCommercial-ShareAlike 4.0 International License.
# To view a copy of this license, visit
# http://creativecommons.org/licenses/by-nc-sa/4.0/
# or send a letter to
# Creative Commons, PO Box 1866, Mountain View, CA 94042, USA.
#
# CIF created using the CSD Python API on 29 September 2022
# The structure has been converted into the P1 space group
# The structure has a 3D framework
# The original CSD entry OYAHAA is in the hexagonal crystal system
# The original CSD entry OYAHAA is in a Sohncke space group
# The framework has been calculated to contain at least 10.0% void space
# The void calculation uses a probe of radius 1.32A, grid spacing 0.4
# The framework is charged, counterions have been retained in the structure
# H atom positions have been added when not included in the experimental data
# Generated hydrogen atom positions removed from atoms on special positions
#
###############################################################################

data_OYAHAA
_chemical_formula_moiety         '(C384 H360 N24 Ni10 O12 20+)n'
_symmetry_cell_setting           triclinic
_symmetry_space_group_name_H-M   'P 1'
_symmetry_Int_Tables_number      1
_space_group_name_Hall           'P 1'
loop_
_symmetry_equiv_pos_site_id
_symmetry_equiv_pos_as_xyz
1 x,y,z
_cell_length_a                   25.8953(19)
_cell_length_b                   25.8953(19)
_cell_length_c                   17.8576(9)
_cell_angle_alpha                90
_cell_angle_beta                 90
_cell_angle_gamma                120
_cell_volume                     10370.4
loop_
_atom_site_label
_atom_site_type_symbol
_atom_site_fract_x
_atom_site_fract_y
_atom_site_fract_z
Ni1 Ni 0.32826(7) 0.000000 0.500000
N1 N 0.2937(5) 0.0434(5) 0.4399(5)
N2 N 0.0375(5) 0.6340(4) 0.4330(5)
C1 C 0.1863(4) 0.3033(4) 0.0465(4)
C2 C 0.1720(4) 0.3429(4) 0.0966(4)
H1 H 0.137073 0.317241 0.128438
H2 H 0.206300 0.367006 0.130004
C3 C 0.1593(4) 0.3822(4) 0.0525(4)
C4 C 0.1335(3) 0.2670(5) 0.000000
H3 H 0.099533 0.241000 0.032895
C5 C 0.2089(3) 0.4178(6) 0.000000
C6 C 0.1036(4) 0.3416(4) 0.0043(4)
H5 H 0.069531 0.315984 0.037289
C7 C 0.2033(5) 0.2648(5) 0.0986(5)
C8 C 0.1705(5) 0.2045(5) 0.1013(5)
H7 H 0.137581 0.183724 0.068375
C9 C 0.1849(6) 0.1731(6) 0.1518(6)
H8 H 0.162168 0.130800 0.153504
C10 C 0.2351(7) 0.2053(9) 0.2021(5)
C11 C 0.2708(7) 0.2673(7) 0.1911(6)
H9 H 0.307890 0.288784 0.216534
C12 C 0.2534(6) 0.2953(6) 0.1462(5)
H10 H 0.275071 0.337699 0.145313
C13 C 0.2601(7) 0.1807(7) 0.2597(7)
H11 H 0.297842 0.205284 0.282339
C14 C 0.2270(7) 0.1234(7) 0.2770(8)
H12 H 0.189432 0.097980 0.254348
C15 C 0.2546(9) 0.1013(9) 0.3376(6)
C16 C 0.2257(7) 0.0474(8) 0.3573(6)
H13 H 0.186707 0.024591 0.337068
C17 C 0.2434(6) 0.0185(6) 0.4036(5)
C18 C 0.3298(7) 0.1019(7) 0.4277(6)
H15 H 0.367189 0.124085 0.452191
C19 C 0.3078(9) 0.1297(8) 0.3737(7)
H16 H 0.333032 0.170920 0.363483
C20 C 0.1462(6) 0.4224(5) 0.1013(5)
C21 C 0.1373(6) 0.4144(6) 0.1768(7)
H17 H 0.138883 0.382384 0.200639
C22 C 0.1252(6) 0.4552(7) 0.2216(6)
H18 H 0.126489 0.454070 0.274663
C23 C 0.1122(7) 0.4947(6) 0.1875(7)
C24 C 0.1224(9) 0.5032(9) 0.1126(8)
H19 H 0.121361 0.535524 0.088873
C25 C 0.1348(9) 0.4637(8) 0.0685(7)
H20 H 0.135155 0.466435 0.015435
C26 C 0.0978(9) 0.5335(9) 0.2313(8)
H21 H 0.087942 0.558329 0.202861
C27 C 0.0966(9) 0.5386(9) 0.2987(11)
H22 H 0.110525 0.516714 0.326704
C28 C 0.0779(8) 0.5718(7) 0.3425(9)
C29 C 0.0870(9) 0.5789(8) 0.4182(10)
H23 H 0.108415 0.562243 0.441268
C30 C 0.0671(8) 0.6090(7) 0.4633(7)
H24 H 0.074411 0.611852 0.515664
C31 C 0.0347(6) 0.6318(6) 0.3565(7)
H25 H 0.019237 0.654088 0.332925
C32 C 0.0516(6) 0.6016(6) 0.3115(7)
H26 H 0.045541 0.600827 0.258983
O1 O 0.37306(15) 0.08425(17) 0.58733(17)
H30 H 0.245107 0.443881 0.029519
H32 H 0.274111 0.366557 0.026127
Ni4 Ni 0.000000 0.671740(70) 0.500000
N6 N 0.4035(6) 0.0375(5) 0.4330(5)
H40 H 0.023118 0.782643 0.589669
H40_2 H 0.240475 0.023118 0.589669
N1_2 N 0.0434(5) 0.7497(7) 0.4399(5)
C9_2 C 0.1731(6) 0.9882(8) 0.1518(6)
H8_2 H 0.130800 0.968632 0.153504
C10_2 C 0.2053(9) 0.9702(11) 0.2021(5)
C11_2 C 0.2673(7) 0.9965(10) 0.1911(6)
H9_2 H 0.288784 0.980894 0.216534
C13_2 C 0.1807(7) 0.9206(10) 0.2597(7)
H11_2 H 0.205284 0.907442 0.282339
C14_2 C 0.1234(7) 0.8964(10) 0.2770(8)
H12_2 H 0.097980 0.908548 0.254348
C15_2 C 0.1013(9) 0.8467(13) 0.3376(6)
C16_2 C 0.0474(8) 0.8217(11) 0.3573(6)
H13_2 H 0.024591 0.837884 0.337068
C17_2 C 0.0185(6) 0.7751(8) 0.4036(5)
C18_2 C 0.1019(7) 0.7721(10) 0.4277(6)
H15_2 H 0.124085 0.756896 0.452191
C19_2 C 0.1297(8) 0.8219(12) 0.3737(7)
H16_2 H 0.170920 0.837888 0.363483
O1_2 O 0.08425(17) 0.71119(23) 0.58733(17)
C1_2 C 0.8830(6) 0.1863(4) 0.0465(4)
C2_2 C 0.8291(6) 0.1720(4) 0.0966(4)
H1_2 H 0.819832 0.137073 0.128438
H2_2 H 0.839294 0.206300 0.130004
C3_2 C 0.7771(6) 0.1593(4) 0.0525(4)
C4_2 C 0.8665(6) 0.1335(3) 0.000000
H3_2 H 0.858533 0.099533 0.032895
C5_2 C 0.7911(7) 0.2089(3) 0.000000
C6_2 C 0.7620(6) 0.1036(4) 0.0043(4)
H5_2 H 0.753547 0.069531 0.037289
C7_2 C 0.9385(7) 0.2033(5) 0.0986(5)
C8_2 C 0.9660(7) 0.1705(5) 0.1013(5)
H7_2 H 0.953857 0.137581 0.068375
C12_2 C 0.9581(8) 0.2534(6) 0.1462(5)
H10_2 H 0.937372 0.275071 0.145313
C20_2 C 0.7238(8) 0.1462(6) 0.1013(5)
C21_2 C 0.7229(8) 0.1373(6) 0.1768(7)
H17_2 H 0.756499 0.138883 0.200639
C22_2 C 0.6700(9) 0.1252(6) 0.2216(6)
H18_2 H 0.672419 0.126489 0.274663
C23_2 C 0.6175(9) 0.1122(7) 0.1875(7)
C24_2 C 0.6192(13) 0.1224(9) 0.1126(8)
H19_2 H 0.585837 0.121361 0.088873
C25_2 C 0.6711(12) 0.1348(9) 0.0685(7)
H20_2 H 0.668720 0.135155 0.015435
C26_2 C 0.5643(13) 0.0978(9) 0.2313(8)
H21_2 H 0.529613 0.087942 0.202861
C27_2 C 0.5580(13) 0.0966(9) 0.2987(11)
H22_2 H 0.593811 0.110525 0.326704
C28_2 C 0.5061(11) 0.0779(8) 0.3425(9)
C29_2 C 0.5081(12) 0.0870(9) 0.4182(10)
H23_2 H 0.546172 0.108415 0.441268
C30_2 C 0.4581(11) 0.0671(8) 0.4633(7)
H24_2 H 0.462559 0.074411 0.515664
C31_2 C 0.4029(8) 0.0347(6) 0.3565(7)
H25_2 H 0.365149 0.019237 0.332925
C32_2 C 0.4500(8) 0.0516(6) 0.3115(7)
H26_2 H 0.444714 0.045541 0.258983
H30_2 H 0.801226 0.245107 0.029519
H32_2 H 0.907554 0.274111 0.026127
C4_3 C 0.1335(3) 0.2670(5) 1.000000
C5_3 C 0.2089(3) 0.4178(6) 1.000000
H4 H 0.198774 0.443881 0.970481
H6 H 0.092446 0.366557 0.973873
N4 N 0.5965(6) 0.6340(4) 0.5670(5)
C33 C 0.1170(6) 0.3033(4) 0.9535(4)
C34 C 0.1709(6) 0.3429(4) 0.9034(4)
H27 H 0.180168 0.317241 0.871562
H28 H 0.160706 0.367006 0.869996
C35 C 0.2229(6) 0.3822(4) 0.9475(4)
H29 H 0.141467 0.241000 0.967105
C36 C 0.2380(6) 0.3416(4) 0.9957(4)
H31 H 0.246453 0.315984 0.962711
C37 C 0.0615(7) 0.2648(5) 0.9014(5)
C38 C 0.0340(7) 0.2045(5) 0.8987(5)
H33 H 0.046143 0.183724 0.931625
C42 C 0.0419(8) 0.2953(6) 0.8538(5)
H36 H 0.062628 0.337699 0.854687
C50 C 0.2762(8) 0.4224(5) 0.8987(5)
C51 C 0.2771(8) 0.4144(6) 0.8232(7)
H43 H 0.243501 0.382384 0.799361
C52 C 0.3300(9) 0.4552(7) 0.7784(6)
H44 H 0.327581 0.454070 0.725337
C53 C 0.3825(9) 0.4947(6) 0.8125(7)
C54 C 0.3808(13) 0.5032(9) 0.8874(8)
H45 H 0.414163 0.535524 0.911127
C55 C 0.3289(12) 0.4637(8) 0.9315(7)
H46 H 0.331280 0.466435 0.984565
C56 C 0.4357(13) 0.5335(9) 0.7687(8)
H47 H 0.470387 0.558329 0.797139
C57 C 0.4420(13) 0.5386(9) 0.7013(11)
H48 H 0.406189 0.516714 0.673296
C58 C 0.4939(11) 0.5718(7) 0.6575(9)
C59 C 0.4919(12) 0.5789(8) 0.5818(10)
H49 H 0.453828 0.562243 0.558732
C60 C 0.5419(11) 0.6090(7) 0.5367(7)
H50 H 0.537441 0.611852 0.484336
C61 C 0.5971(8) 0.6318(6) 0.6435(7)
H51 H 0.634851 0.654088 0.667075
C62 C 0.5500(8) 0.6016(6) 0.6885(7)
H52 H 0.555286 0.600827 0.741017
Ni2 Ni 0.671740(70) 0.67174(7) 0.500000
N1_3 N 0.7497(7) 0.7063(5) 0.4399(5)
C9_3 C 0.9882(8) 0.8151(6) 0.1518(6)
H8_3 H 0.968632 0.837832 0.153504
C10_3 C 0.9702(11) 0.7649(7) 0.2021(5)
C11_3 C 0.9965(10) 0.7292(7) 0.1911(6)
H9_3 H 0.980894 0.692110 0.216534
C13_3 C 0.9206(10) 0.7399(7) 0.2597(7)
H11_3 H 0.907442 0.702158 0.282339
C14_3 C 0.8964(10) 0.7730(7) 0.2770(8)
H12_3 H 0.908548 0.810568 0.254348
C15_3 C 0.8467(13) 0.7454(9) 0.3376(6)
C16_3 C 0.8217(11) 0.7743(7) 0.3573(6)
H13_3 H 0.837884 0.813293 0.337068
C17_3 C 0.7751(8) 0.7566(6) 0.4036(5)
H14 H 0.759525 0.782643 0.410331
C18_3 C 0.7721(10) 0.6702(7) 0.4277(6)
H15_3 H 0.756896 0.632811 0.452191
C19_3 C 0.8219(12) 0.6922(9) 0.3737(7)
H16_3 H 0.837888 0.666968 0.363483
O1_3 O 0.71119(23) 0.62694(15) 0.58733(17)
O2 O 0.62694(29) 0.71119(23) 0.41267(17)
N5 N 0.7063(9) 0.7497(7) 0.5601(5)
N6_2 N 0.6340(8) 0.5965(6) 0.4330(5)
C1_3 C 0.3033(4) 0.1170(6) 0.0465(4)
C2_3 C 0.3429(4) 0.1709(6) 0.0966(4)
H1_3 H 0.317241 0.180168 0.128438
H2_3 H 0.367006 0.160706 0.130004
C3_3 C 0.3822(4) 0.2229(6) 0.0525(4)
C4_4 C 0.2670(5) 0.1335(6) 0.000000
H3_3 H 0.241000 0.141467 0.032895
C5_4 C 0.4178(6) 0.2089(7) 0.000000
C6_3 C 0.3416(4) 0.2380(6) 0.0043(4)
H5_3 H 0.315984 0.246453 0.037289
C7_3 C 0.2648(5) 0.0615(7) 0.0986(5)
C8_3 C 0.2045(5) 0.0340(7) 0.1013(5)
H7_3 H 0.183724 0.046143 0.068375
C12_3 C 0.2953(6) 0.0419(8) 0.1462(5)
H10_3 H 0.337699 0.062628 0.145313
C20_3 C 0.4224(5) 0.2762(8) 0.1013(5)
C21_3 C 0.4144(6) 0.2771(8) 0.1768(7)
H17_3 H 0.382384 0.243501 0.200639
C22_3 C 0.4552(7) 0.3300(9) 0.2216(6)
H18_3 H 0.454070 0.327581 0.274663
C23_3 C 0.4947(6) 0.3825(9) 0.1875(7)
C24_3 C 0.5032(9) 0.3808(13) 0.1126(8)
H19_3 H 0.535524 0.414163 0.088873
C25_3 C 0.4637(8) 0.3289(12) 0.0685(7)
H20_3 H 0.466435 0.331280 0.015435
C26_3 C 0.5335(9) 0.4357(13) 0.2313(8)
H21_3 H 0.558329 0.470387 0.202861
C27_3 C 0.5386(9) 0.4420(13) 0.2987(11)
H22_3 H 0.516714 0.406189 0.326704
C28_3 C 0.5718(7) 0.4939(11) 0.3425(9)
C29_3 C 0.5789(8) 0.4919(12) 0.4182(10)
H23_3 H 0.562243 0.453828 0.441268
C30_3 C 0.6090(7) 0.5419(11) 0.4633(7)
H24_3 H 0.611852 0.537441 0.515664
C31_3 C 0.6318(6) 0.5971(8) 0.3565(7)
H25_3 H 0.654088 0.634851 0.332925
C32_3 C 0.6016(6) 0.5500(8) 0.3115(7)
H26_3 H 0.600827 0.555286 0.258983
H30_3 H 0.443881 0.198774 0.029519
H32_3 H 0.366557 0.092446 0.026127
C39 C 0.8151(10) 0.9882(8) 0.8482(6)
H34 H 0.837832 0.968632 0.846496
C40 C 0.7649(14) 0.9702(11) 0.7979(5)
C41 C 0.7292(12) 0.9965(10) 0.8089(6)
H35 H 0.692110 0.980894 0.783466
C43 C 0.7399(12) 0.9206(10) 0.7403(7)
H37 H 0.702158 0.907442 0.717661
C44 C 0.7730(12) 0.8964(10) 0.7230(8)
H38 H 0.810568 0.908548 0.745652
C45 C 0.7454(16) 0.8467(13) 0.6624(6)
C46 C 0.7743(14) 0.8217(11) 0.6427(6)
H39 H 0.813293 0.837884 0.662932
C47 C 0.7566(10) 0.7751(8) 0.5964(5)
H40_3 H 0.782643 0.759525 0.589669
C48 C 0.6702(12) 0.7721(10) 0.5723(6)
H41 H 0.632811 0.756896 0.547809
C49 C 0.6922(14) 0.8219(12) 0.6263(7)
H42 H 0.666968 0.837888 0.636517
Ni1_2 Ni 0.32826(7) 1.000000 0.500000
H14_2 H 0.217357 0.976882 0.410331
O2_2 O 0.28881(23) 0.91575(17) 0.41267(17)
N5_2 N 0.2503(7) 0.9566(5) 0.5601(5)
N7 N 0.3660(4) 0.9625(5) 0.5670(5)
Ni4_2 Ni 1.000000 0.671740(70) 0.500000
C4_5 C 0.7330(5) 0.8665(6) 1.000000
C5_5 C 0.5822(6) 0.7911(7) 1.000000
H4_2 H 0.556119 0.754893 0.970481
H6_2 H 0.633443 0.725889 0.973873
N3 N 0.9566(5) 0.7063(9) 0.5601(5)
C33_2 C 0.6967(4) 0.8137(7) 0.9535(4)
C34_2 C 0.6571(4) 0.8280(7) 0.9034(4)
H27_2 H 0.682759 0.862927 0.871562
H28_2 H 0.632994 0.793700 0.869996
C35_2 C 0.6178(4) 0.8407(7) 0.9475(4)
H29_2 H 0.759000 0.900467 0.967105
C36_2 C 0.6584(4) 0.8964(7) 0.9957(4)
H31_2 H 0.684016 0.930469 0.962711
C37_2 C 0.7352(5) 0.7967(9) 0.9014(5)
C38_2 C 0.7955(5) 0.8295(9) 0.8987(5)
H33_2 H 0.816276 0.862419 0.931625
C39_2 C 0.8269(6) 0.8151(10) 0.8482(6)
H34_2 H 0.869200 0.837832 0.846496
C40_2 C 0.7947(9) 0.7649(14) 0.7979(5)
C41_2 C 0.7327(7) 0.7292(12) 0.8089(6)
H35_2 H 0.711216 0.692110 0.783466
C42_2 C 0.7047(6) 0.7466(10) 0.8538(5)
H36_2 H 0.662301 0.724929 0.854687
C43_2 C 0.8193(7) 0.7399(12) 0.7403(7)
H37_2 H 0.794716 0.702158 0.717661
C44_2 C 0.8766(7) 0.7730(12) 0.7230(8)
H38_2 H 0.902020 0.810568 0.745652
C45_2 C 0.8987(9) 0.7454(16) 0.6624(6)
C46_2 C 0.9526(8) 0.7743(14) 0.6427(6)
H39_2 H 0.975409 0.813293 0.662932
C47_2 C 0.9815(6) 0.7566(10) 0.5964(5)
C48_2 C 0.8981(7) 0.6702(12) 0.5723(6)
H41_2 H 0.875915 0.632811 0.547809
C49_2 C 0.8703(8) 0.6922(14) 0.6263(7)
H42_2 H 0.829080 0.666968 0.636517
C50_2 C 0.5776(5) 0.8538(9) 0.8987(5)
C51_2 C 0.5856(6) 0.8627(10) 0.8232(7)
H43_2 H 0.617616 0.861117 0.799361
C52_2 C 0.5448(7) 0.8748(11) 0.7784(6)
H44_2 H 0.545930 0.873511 0.725337
C53_2 C 0.5053(6) 0.8878(11) 0.8125(7)
C54_2 C 0.4968(9) 0.8776(16) 0.8874(8)
H45_2 H 0.464476 0.878639 0.911127
C55_2 C 0.5363(8) 0.8652(14) 0.9315(7)
H46_2 H 0.533565 0.864845 0.984565
C56_2 C 0.4665(9) 0.9022(16) 0.7687(8)
H47_2 H 0.441671 0.912058 0.797139
C57_2 C 0.4614(9) 0.9034(16) 0.7013(11)
H48_2 H 0.483286 0.889475 0.673296
C58_2 C 0.4282(7) 0.9221(13) 0.6575(9)
C59_2 C 0.4211(8) 0.9130(14) 0.5818(10)
H49_2 H 0.437757 0.891585 0.558732
C60_2 C 0.3910(7) 0.9329(13) 0.5367(7)
H50_2 H 0.388148 0.925589 0.484336
C61_2 C 0.3682(6) 0.9653(10) 0.6435(7)
H51_2 H 0.345912 0.980763 0.667075
C62_2 C 0.3984(6) 0.9484(10) 0.6885(7)
H52_2 H 0.399173 0.954459 0.741017
C39_3 C 0.0118(8) 0.8269(6) 0.8482(6)
H34_3 H 0.031368 0.869200 0.846496
C40_3 C 0.0298(11) 0.7947(9) 0.7979(5)
C41_3 C 0.0035(10) 0.7327(7) 0.8089(6)
H35_3 H 0.019106 0.711216 0.783466
C43_3 C 0.0794(10) 0.8193(7) 0.7403(7)
H37_3 H 0.092558 0.794716 0.717661
C44_3 C 0.1036(10) 0.8766(7) 0.7230(8)
H38_3 H 0.091452 0.902020 0.745652
C45_3 C 0.1533(13) 0.8987(9) 0.6624(6)
C46_3 C 0.1783(11) 0.9526(8) 0.6427(6)
H39_3 H 0.162116 0.975409 0.662932
C47_3 C 0.2249(8) 0.9815(6) 0.5964(5)
C48_3 C 0.2279(10) 0.8981(7) 0.5723(6)
H41_3 H 0.243104 0.875915 0.547809
C49_3 C 0.1781(12) 0.8703(8) 0.6263(7)
H42_3 H 0.162112 0.829080 0.636517
H14_3 H 0.976882 0.759525 0.410331
O2_3 O 0.91575(17) 0.62694(29) 0.41267(17)
N7_2 N 0.9625(5) 0.5965(6) 0.5670(5)
C4_6 C 0.8665(6) 0.1335(3) 1.000000
C5_6 C 0.7911(7) 0.2089(3) 1.000000
H4_3 H 0.754893 0.198774 0.970481
H6_3 H 0.725889 0.092446 0.973873
C33_3 C 0.8137(7) 0.1170(6) 0.9535(4)
C34_3 C 0.8280(7) 0.1709(6) 0.9034(4)
H27_3 H 0.862927 0.180168 0.871562
H28_3 H 0.793700 0.160706 0.869996
C35_3 C 0.8407(7) 0.2229(6) 0.9475(4)
H29_3 H 0.900467 0.141467 0.967105
C36_3 C 0.8964(7) 0.2380(6) 0.9957(4)
H31_3 H 0.930469 0.246453 0.962711
C37_3 C 0.7967(9) 0.0615(7) 0.9014(5)
C38_3 C 0.8295(9) 0.0340(7) 0.8987(5)
H33_3 H 0.862419 0.046143 0.931625
C42_3 C 0.7466(10) 0.0419(8) 0.8538(5)
H36_3 H 0.724929 0.062628 0.854687
C50_3 C 0.8538(9) 0.2762(8) 0.8987(5)
C51_3 C 0.8627(10) 0.2771(8) 0.8232(7)
H43_3 H 0.861117 0.243501 0.799361
C52_3 C 0.8748(11) 0.3300(9) 0.7784(6)
H44_3 H 0.873511 0.327581 0.725337
C53_3 C 0.8878(11) 0.3825(9) 0.8125(7)
C54_3 C 0.8776(16) 0.3808(13) 0.8874(8)
H45_3 H 0.878639 0.414163 0.911127
C55_3 C 0.8652(14) 0.3289(12) 0.9315(7)
H46_3 H 0.864845 0.331280 0.984565
C56_3 C 0.9022(16) 0.4357(13) 0.7687(8)
H47_3 H 0.912058 0.470387 0.797139
C57_3 C 0.9034(16) 0.4420(13) 0.7013(11)
H48_3 H 0.889475 0.406189 0.673296
C58_3 C 0.9221(13) 0.4939(11) 0.6575(9)
C59_3 C 0.9130(14) 0.4919(12) 0.5818(10)
H49_3 H 0.891585 0.453828 0.558732
C60_3 C 0.9329(13) 0.5419(11) 0.5367(7)
H50_3 H 0.925589 0.537441 0.484336
C61_3 C 0.9653(10) 0.5971(8) 0.6435(7)
H51_3 H 0.980763 0.634851 0.667075
C62_3 C 0.9484(10) 0.5500(8) 0.6885(7)
H52_3 H 0.954459 0.555286 0.741017
N3_2 N 0.7497(7) 0.0434(5) 0.5601(5)
C39_4 C 0.9882(8) 0.1731(6) 0.8482(6)
H34_4 H 0.968632 0.130800 0.846496
C40_4 C 0.9702(11) 0.2053(9) 0.7979(5)
C41_4 C 0.9965(10) 0.2673(7) 0.8089(6)
H35_4 H 0.980894 0.288784 0.783466
C43_4 C 0.9206(10) 0.1807(7) 0.7403(7)
H37_4 H 0.907442 0.205284 0.717661
C44_4 C 0.8964(10) 0.1234(7) 0.7230(8)
H38_4 H 0.908548 0.097980 0.745652
C45_4 C 0.8467(13) 0.1013(9) 0.6624(6)
C46_4 C 0.8217(11) 0.0474(8) 0.6427(6)
H39_4 H 0.837884 0.024591 0.662932
C47_4 C 0.7751(8) 0.0185(6) 0.5964(5)
C48_4 C 0.7721(10) 0.1019(7) 0.5723(6)
H41_4 H 0.756896 0.124085 0.547809
C49_4 C 0.8219(12) 0.1297(8) 0.6263(7)
H42_4 H 0.837888 0.170920 0.636517
Ni3 Ni 0.67174(7) 0.000000 0.500000
Ni1_3 Ni 0.000000 0.328260(70) 0.500000
H14_4 H 0.023118 0.240475 0.410331
O2_4 O 0.08425(17) 0.37306(29) 0.41267(17)
N5_3 N 0.0434(5) 0.2937(9) 0.5601(5)
N7_3 N 0.0375(5) 0.4035(6) 0.5670(5)
C4_7 C 0.1335(6) 0.8665(3) 1.000000
C5_7 C 0.2089(7) 0.7911(3) 1.000000
H4_4 H 0.245107 0.801226 0.970481
H6_4 H 0.274111 0.907554 0.973873
C33_4 C 0.1863(7) 0.8830(6) 0.9535(4)
C34_4 C 0.1720(7) 0.8291(6) 0.9034(4)
H27_4 H 0.137073 0.819832 0.871562
H28_4 H 0.206300 0.839294 0.869996
C35_4 C 0.1593(7) 0.7771(6) 0.9475(4)
H29_4 H 0.099533 0.858533 0.967105
C36_4 C 0.1036(7) 0.7620(6) 0.9957(4)
H31_4 H 0.069531 0.753547 0.962711
C37_4 C 0.2033(9) 0.9385(7) 0.9014(5)
C38_4 C 0.1705(9) 0.9660(7) 0.8987(5)
H33_4 H 0.137581 0.953857 0.931625
C42_4 C 0.2534(10) 0.9581(8) 0.8538(5)
H36_4 H 0.275071 0.937372 0.854687
C50_4 C 0.1462(9) 0.7238(8) 0.8987(5)
C51_4 C 0.1373(10) 0.7229(8) 0.8232(7)
H43_4 H 0.138883 0.756499 0.799361
C52_4 C 0.1252(11) 0.6700(9) 0.7784(6)
H44_4 H 0.126489 0.672419 0.725337
C53_4 C 0.1122(11) 0.6175(9) 0.8125(7)
C54_4 C 0.1224(16) 0.6192(13) 0.8874(8)
H45_4 H 0.121361 0.585837 0.911127
C55_4 C 0.1348(14) 0.6711(12) 0.9315(7)
H46_4 H 0.135155 0.668720 0.984565
C56_4 C 0.0978(16) 0.5643(13) 0.7687(8)
H47_4 H 0.087942 0.529613 0.797139
C57_4 C 0.0966(16) 0.5580(13) 0.7013(11)
H48_4 H 0.110525 0.593811 0.673296
C58_4 C 0.0779(13) 0.5061(11) 0.6575(9)
C59_4 C 0.0870(14) 0.5081(12) 0.5818(10)
H49_4 H 0.108415 0.546172 0.558732
C60_4 C 0.0671(13) 0.4581(11) 0.5367(7)
H50_4 H 0.074411 0.462559 0.484336
C61_4 C 0.0347(10) 0.4029(8) 0.6435(7)
H51_4 H 0.019237 0.365149 0.667075
C62_4 C 0.0516(10) 0.4500(8) 0.6885(7)
H52_4 H 0.045541 0.444714 0.741017
H14_5 H 0.782643 0.023118 0.410331
O2_5 O 0.71119(23) 0.08425(17) 0.41267(17)
N7_4 N 0.6340(4) 0.0375(5) 0.5670(5)
C4_8 C 0.2670(5) 0.1335(6) 1.000000
C5_8 C 0.4178(6) 0.2089(7) 1.000000
H4_5 H 0.443881 0.245107 0.970481
H6_5 H 0.366557 0.274111 0.973873
C33_5 C 0.3033(4) 0.1863(7) 0.9535(4)
C34_5 C 0.3429(4) 0.1720(7) 0.9034(4)
H27_5 H 0.317241 0.137073 0.871562
H28_5 H 0.367006 0.206300 0.869996
C35_5 C 0.3822(4) 0.1593(7) 0.9475(4)
H29_5 H 0.241000 0.099533 0.967105
C36_5 C 0.3416(4) 0.1036(7) 0.9957(4)
H31_5 H 0.315984 0.069531 0.962711
C37_5 C 0.2648(5) 0.2033(9) 0.9014(5)
C38_5 C 0.2045(5) 0.1705(9) 0.8987(5)
H33_5 H 0.183724 0.137581 0.931625
C39_5 C 0.1731(6) 0.1849(10) 0.8482(6)
H34_5 H 0.130800 0.162168 0.846496
C40_5 C 0.2053(9) 0.2351(14) 0.7979(5)
C41_5 C 0.2673(7) 0.2708(12) 0.8089(6)
H35_5 H 0.288784 0.307890 0.783466
C42_5 C 0.2953(6) 0.2534(10) 0.8538(5)
H36_5 H 0.337699 0.275071 0.854687
C43_5 C 0.1807(7) 0.2601(12) 0.7403(7)
H37_5 H 0.205284 0.297842 0.717661
C44_5 C 0.1234(7) 0.2270(12) 0.7230(8)
H38_5 H 0.097980 0.189432 0.745652
C45_5 C 0.1013(9) 0.2546(16) 0.6624(6)
C46_5 C 0.0474(8) 0.2257(14) 0.6427(6)
H39_5 H 0.024591 0.186707 0.662932
C47_5 C 0.0185(6) 0.2434(10) 0.5964(5)
C48_5 C 0.1019(7) 0.3298(12) 0.5723(6)
H41_5 H 0.124085 0.367189 0.547809
C49_5 C 0.1297(8) 0.3078(14) 0.6263(7)
H42_5 H 0.170920 0.333032 0.636517
C50_5 C 0.4224(5) 0.1462(9) 0.8987(5)
C51_5 C 0.4144(6) 0.1373(10) 0.8232(7)
H43_5 H 0.382384 0.138883 0.799361
C52_5 C 0.4552(7) 0.1252(11) 0.7784(6)
H44_5 H 0.454070 0.126489 0.725337
C53_5 C 0.4947(6) 0.1122(11) 0.8125(7)
C54_5 C 0.5032(9) 0.1224(16) 0.8874(8)
H45_5 H 0.535524 0.121361 0.911127
C55_5 C 0.4637(8) 0.1348(14) 0.9315(7)
H46_5 H 0.466435 0.135155 0.984565
C56_5 C 0.5335(9) 0.0978(16) 0.7687(8)
H47_5 H 0.558329 0.087942 0.797139
C57_5 C 0.5386(9) 0.0966(16) 0.7013(11)
H48_5 H 0.516714 0.110525 0.673296
C58_5 C 0.5718(7) 0.0779(13) 0.6575(9)
C59_5 C 0.5789(8) 0.0870(14) 0.5818(10)
H49_5 H 0.562243 0.108415 0.558732
C60_5 C 0.6090(7) 0.0671(13) 0.5367(7)
H50_5 H 0.611852 0.074411 0.484336
C61_5 C 0.6318(6) 0.0347(10) 0.6435(7)
H51_5 H 0.654088 0.019237 0.667075
C62_5 C 0.6016(6) 0.0516(10) 0.6885(7)
H52_5 H 0.600827 0.045541 0.741017
H40_4 H 0.759525 0.976882 0.589669
Ni3_2 Ni 0.67174(7) 1.000000 0.500000
Ni1_4 Ni 1.000000 0.328260(70) 0.500000
N1_4 N 0.9566(5) 0.2503(7) 0.4399(5)
C9_4 C 0.8269(6) 0.0118(8) 0.1518(6)
H8_4 H 0.869200 0.031368 0.153504
C10_4 C 0.7947(9) 0.0298(11) 0.2021(5)
C11_4 C 0.7327(7) 0.0035(10) 0.1911(6)
H9_4 H 0.711216 0.019106 0.216534
C13_4 C 0.8193(7) 0.0794(10) 0.2597(7)
H11_4 H 0.794716 0.092558 0.282339
C14_4 C 0.8766(7) 0.1036(10) 0.2770(8)
H12_4 H 0.902020 0.091452 0.254348
C15_4 C 0.8987(9) 0.1533(13) 0.3376(6)
C16_4 C 0.9526(8) 0.1783(11) 0.3573(6)
H13_4 H 0.975409 0.162116 0.337068
C17_4 C 0.9815(6) 0.2249(8) 0.4036(5)
C18_4 C 0.8981(7) 0.2279(10) 0.4277(6)
H15_4 H 0.875915 0.243104 0.452191
C19_4 C 0.8703(8) 0.1781(12) 0.3737(7)
H16_4 H 0.829080 0.162112 0.363483
O1_4 O 0.91575(17) 0.28881(23) 0.58733(17)
N6_3 N 0.9625(5) 0.3660(8) 0.4330(5)
N2_2 N 0.5965(6) 0.9625(5) 0.4330(5)
C1_4 C 0.1170(6) 0.8137(4) 0.0465(4)
C2_4 C 0.1709(6) 0.8280(4) 0.0966(4)
H1_4 H 0.180168 0.862927 0.128438
H2_4 H 0.160706 0.793700 0.130004
C3_4 C 0.2229(6) 0.8407(4) 0.0525(4)
C4_9 C 0.1335(6) 0.8665(3) 0.000000
H3_4 H 0.141467 0.900467 0.032895
C5_9 C 0.2089(7) 0.7911(3) 0.000000
C6_4 C 0.2380(6) 0.8964(4) 0.0043(4)
H5_4 H 0.246453 0.930469 0.037289
C7_4 C 0.0615(7) 0.7967(5) 0.0986(5)
C8_4 C 0.0340(7) 0.8295(5) 0.1013(5)
H7_4 H 0.046143 0.862419 0.068375
C12_4 C 0.0419(8) 0.7466(6) 0.1462(5)
H10_4 H 0.062628 0.724929 0.145313
C20_4 C 0.2762(8) 0.8538(6) 0.1013(5)
C21_4 C 0.2771(8) 0.8627(6) 0.1768(7)
H17_4 H 0.243501 0.861117 0.200639
C22_4 C 0.3300(9) 0.8748(6) 0.2216(6)
H18_4 H 0.327581 0.873511 0.274663
C23_4 C 0.3825(9) 0.8878(7) 0.1875(7)
C24_4 C 0.3808(13) 0.8776(9) 0.1126(8)
H19_4 H 0.414163 0.878639 0.088873
C25_4 C 0.3289(12) 0.8652(9) 0.0685(7)
H20_4 H 0.331280 0.864845 0.015435
C26_4 C 0.4357(13) 0.9022(9) 0.2313(8)
H21_4 H 0.470387 0.912058 0.202861
C27_4 C 0.4420(13) 0.9034(9) 0.2987(11)
H22_4 H 0.406189 0.889475 0.326704
C28_4 C 0.4939(11) 0.9221(8) 0.3425(9)
C29_4 C 0.4919(12) 0.9130(9) 0.4182(10)
H23_4 H 0.453828 0.891585 0.441268
C30_4 C 0.5419(11) 0.9329(8) 0.4633(7)
H24_4 H 0.537441 0.925589 0.515664
C31_4 C 0.5971(8) 0.9653(6) 0.3565(7)
H25_4 H 0.634851 0.980763 0.332925
C32_4 C 0.5500(8) 0.9484(6) 0.3115(7)
H26_4 H 0.555286 0.954459 0.258983
H30_4 H 0.198774 0.754893 0.029519
H32_4 H 0.092446 0.725889 0.026127
N1_5 N 0.7063(5) 0.9566(5) 0.4399(5)
C1_5 C 0.8137(4) 0.6967(4) 0.0465(4)
C2_5 C 0.8280(4) 0.6571(4) 0.0966(4)
H1_5 H 0.862927 0.682759 0.128438
H2_5 H 0.793700 0.632994 0.130004
C3_5 C 0.8407(4) 0.6178(4) 0.0525(4)
C4_10 C 0.8665(3) 0.7330(5) 0.000000
H3_5 H 0.900467 0.759000 0.032895
C5_10 C 0.7911(3) 0.5822(6) 0.000000
C6_5 C 0.8964(4) 0.6584(4) 0.0043(4)
H5_5 H 0.930469 0.684016 0.037289
C7_5 C 0.7967(5) 0.7352(5) 0.0986(5)
C8_5 C 0.8295(5) 0.7955(5) 0.1013(5)
H7_5 H 0.862419 0.816276 0.068375
C9_5 C 0.8151(6) 0.8269(6) 0.1518(6)
H8_5 H 0.837832 0.869200 0.153504
C10_5 C 0.7649(7) 0.7947(9) 0.2021(5)
C11_5 C 0.7292(7) 0.7327(7) 0.1911(6)
H9_5 H 0.692110 0.711216 0.216534
C12_5 C 0.7466(6) 0.7047(6) 0.1462(5)
H10_5 H 0.724929 0.662301 0.145313
C13_5 C 0.7399(7) 0.8193(7) 0.2597(7)
H11_5 H 0.702158 0.794716 0.282339
C14_5 C 0.7730(7) 0.8766(7) 0.2770(8)
H12_5 H 0.810568 0.902020 0.254348
C15_5 C 0.7454(9) 0.8987(9) 0.3376(6)
C16_5 C 0.7743(7) 0.9526(8) 0.3573(6)
H13_5 H 0.813293 0.975409 0.337068
C17_5 C 0.7566(6) 0.9815(6) 0.4036(5)
C18_5 C 0.6702(7) 0.8981(7) 0.4277(6)
H15_5 H 0.632811 0.875915 0.452191
C19_5 C 0.6922(9) 0.8703(8) 0.3737(7)
H16_5 H 0.666968 0.829080 0.363483
C20_5 C 0.8538(6) 0.5776(5) 0.1013(5)
C21_5 C 0.8627(6) 0.5856(6) 0.1768(7)
H17_5 H 0.861117 0.617616 0.200639
C22_5 C 0.8748(6) 0.5448(7) 0.2216(6)
H18_5 H 0.873511 0.545930 0.274663
C23_5 C 0.8878(7) 0.5053(6) 0.1875(7)
C24_5 C 0.8776(9) 0.4968(9) 0.1126(8)
H19_5 H 0.878639 0.464476 0.088873
C25_5 C 0.8652(9) 0.5363(8) 0.0685(7)
H20_5 H 0.864845 0.533565 0.015435
C26_5 C 0.9022(9) 0.4665(9) 0.2313(8)
H21_5 H 0.912058 0.441671 0.202861
C27_5 C 0.9034(9) 0.4614(9) 0.2987(11)
H22_5 H 0.889475 0.483286 0.326704
C28_5 C 0.9221(8) 0.4282(7) 0.3425(9)
C29_5 C 0.9130(9) 0.4211(8) 0.4182(10)
H23_5 H 0.891585 0.437757 0.441268
C30_5 C 0.9329(8) 0.3910(7) 0.4633(7)
H24_5 H 0.925589 0.388148 0.515664
C31_5 C 0.9653(6) 0.3682(6) 0.3565(7)
H25_5 H 0.980763 0.345912 0.332925
C32_5 C 0.9484(6) 0.3984(6) 0.3115(7)
H26_5 H 0.954459 0.399173 0.258983
O1_5 O 0.62694(15) 0.91575(17) 0.58733(17)
H30_5 H 0.754893 0.556119 0.029519
H32_5 H 0.725889 0.633443 0.026127
H40_5 H 0.976882 0.217357 0.589669
N2_3 N 0.3660(4) 0.4035(6) 0.4330(5)
C1_6 C 0.6967(4) 0.8830(6) 0.0465(4)
C2_6 C 0.6571(4) 0.8291(6) 0.0966(4)
H1_6 H 0.682759 0.819832 0.128438
H2_6 H 0.632994 0.839294 0.130004
C3_6 C 0.6178(4) 0.7771(6) 0.0525(4)
C4_11 C 0.7330(5) 0.8665(6) 0.000000
H3_6 H 0.759000 0.858533 0.032895
C5_11 C 0.5822(6) 0.7911(7) 0.000000
C6_6 C 0.6584(4) 0.7620(6) 0.0043(4)
H5_6 H 0.684016 0.753547 0.037289
C7_6 C 0.7352(5) 0.9385(7) 0.0986(5)
C8_6 C 0.7955(5) 0.9660(7) 0.1013(5)
H7_6 H 0.816276 0.953857 0.068375
C12_6 C 0.7047(6) 0.9581(8) 0.1462(5)
H10_6 H 0.662301 0.937372 0.145313
C20_6 C 0.5776(5) 0.7238(8) 0.1013(5)
C21_6 C 0.5856(6) 0.7229(8) 0.1768(7)
H17_6 H 0.617616 0.756499 0.200639
C22_6 C 0.5448(7) 0.6700(9) 0.2216(6)
H18_6 H 0.545930 0.672419 0.274663
C23_6 C 0.5053(6) 0.6175(9) 0.1875(7)
C24_6 C 0.4968(9) 0.6192(13) 0.1126(8)
H19_6 H 0.464476 0.585837 0.088873
C25_6 C 0.5363(8) 0.6711(12) 0.0685(7)
H20_6 H 0.533565 0.668720 0.015435
C26_6 C 0.4665(9) 0.5643(13) 0.2313(8)
H21_6 H 0.441671 0.529613 0.202861
C27_6 C 0.4614(9) 0.5580(13) 0.2987(11)
H22_6 H 0.483286 0.593811 0.326704
C28_6 C 0.4282(7) 0.5061(11) 0.3425(9)
C29_6 C 0.4211(8) 0.5081(12) 0.4182(10)
H23_6 H 0.437757 0.546172 0.441268
C30_6 C 0.3910(7) 0.4581(11) 0.4633(7)
H24_6 H 0.388148 0.462559 0.515664
C31_6 C 0.3682(6) 0.4029(8) 0.3565(7)
H25_6 H 0.345912 0.365149 0.332925
C32_6 C 0.3984(6) 0.4500(8) 0.3115(7)
H26_6 H 0.399173 0.444714 0.258983
H30_6 H 0.556119 0.801226 0.029519
H32_6 H 0.633443 0.907554 0.026127
Ni4_3 Ni 0.328260(70) 0.328260(70) 0.500000
N3_3 N 0.2937(9) 0.2503(7) 0.5601(5)
C39_6 C 0.1849(10) 0.0118(8) 0.8482(6)
H34_6 H 0.162168 0.031368 0.846496
C40_6 C 0.2351(14) 0.0298(11) 0.7979(5)
C41_6 C 0.2708(12) 0.0035(10) 0.8089(6)
H35_6 H 0.307890 0.019106 0.783466
C43_6 C 0.2601(12) 0.0794(10) 0.7403(7)
H37_6 H 0.297842 0.092558 0.717661
C44_6 C 0.2270(12) 0.1036(10) 0.7230(8)
H38_6 H 0.189432 0.091452 0.745652
C45_6 C 0.2546(16) 0.1533(13) 0.6624(6)
C46_6 C 0.2257(14) 0.1783(11) 0.6427(6)
H39_6 H 0.186707 0.162116 0.662932
C47_6 C 0.2434(10) 0.2249(8) 0.5964(5)
H40_6 H 0.217357 0.240475 0.589669
C48_6 C 0.3298(12) 0.2279(10) 0.5723(6)
H41_6 H 0.367189 0.243104 0.547809
C49_6 C 0.3078(14) 0.1781(12) 0.6263(7)
H42_6 H 0.333032 0.162112 0.636517
C4_12 C 0.8665(3) 0.7330(5) 1.000000
C5_12 C 0.7911(3) 0.5822(6) 1.000000
H4_6 H 0.801226 0.556119 0.970481
H6_6 H 0.907554 0.633443 0.973873
N4_2 N 0.4035(6) 0.3660(4) 0.5670(5)
C33_6 C 0.8830(6) 0.6967(4) 0.9535(4)
C34_6 C 0.8291(6) 0.6571(4) 0.9034(4)
H27_6 H 0.819832 0.682759 0.871562
H28_6 H 0.839294 0.632994 0.869996
C35_6 C 0.7771(6) 0.6178(4) 0.9475(4)
H29_6 H 0.858533 0.759000 0.967105
C36_6 C 0.7620(6) 0.6584(4) 0.9957(4)
H31_6 H 0.753547 0.684016 0.962711
C37_6 C 0.9385(7) 0.7352(5) 0.9014(5)
C38_6 C 0.9660(7) 0.7955(5) 0.8987(5)
H33_6 H 0.953857 0.816276 0.931625
C42_6 C 0.9581(8) 0.7047(6) 0.8538(5)
H36_6 H 0.937372 0.662301 0.854687
C50_6 C 0.7238(8) 0.5776(5) 0.8987(5)
C51_6 C 0.7229(8) 0.5856(6) 0.8232(7)
H43_6 H 0.756499 0.617616 0.799361
C52_6 C 0.6700(9) 0.5448(7) 0.7784(6)
H44_6 H 0.672419 0.545930 0.725337
C53_6 C 0.6175(9) 0.5053(6) 0.8125(7)
C54_6 C 0.6192(13) 0.4968(9) 0.8874(8)
H45_6 H 0.585837 0.464476 0.911127
C55_6 C 0.6711(12) 0.5363(8) 0.9315(7)
H46_6 H 0.668720 0.533565 0.984565
C56_6 C 0.5643(13) 0.4665(9) 0.7687(8)
H47_6 H 0.529613 0.441671 0.797139
C57_6 C 0.5580(13) 0.4614(9) 0.7013(11)
H48_6 H 0.593811 0.483286 0.673296
C58_6 C 0.5061(11) 0.4282(7) 0.6575(9)
C59_6 C 0.5081(12) 0.4211(8) 0.5818(10)
H49_6 H 0.546172 0.437757 0.558732
C60_6 C 0.4581(11) 0.3910(7) 0.5367(7)
H50_6 H 0.462559 0.388148 0.484336
C61_6 C 0.4029(8) 0.3682(6) 0.6435(7)
H51_6 H 0.365149 0.345912 0.667075
C62_6 C 0.4500(8) 0.3984(6) 0.6885(7)
H52_6 H 0.444714 0.399173 0.741017
N1_6 N 0.2503(7) 0.2937(5) 0.4399(5)
C9_6 C 0.0118(8) 0.1849(6) 0.1518(6)
H8_6 H 0.031368 0.162168 0.153504
C10_6 C 0.0298(11) 0.2351(7) 0.2021(5)
C11_6 C 0.0035(10) 0.2708(7) 0.1911(6)
H9_6 H 0.019106 0.307890 0.216534
C13_6 C 0.0794(10) 0.2601(7) 0.2597(7)
H11_6 H 0.092558 0.297842 0.282339
C14_6 C 0.1036(10) 0.2270(7) 0.2770(8)
H12_6 H 0.091452 0.189432 0.254348
C15_6 C 0.1533(13) 0.2546(9) 0.3376(6)
C16_6 C 0.1783(11) 0.2257(7) 0.3573(6)
H13_6 H 0.162116 0.186707 0.337068
C17_6 C 0.2249(8) 0.2434(6) 0.4036(5)
H14_6 H 0.240475 0.217357 0.410331
C18_6 C 0.2279(10) 0.3298(7) 0.4277(6)
H15_6 H 0.243104 0.367189 0.452191
C19_6 C 0.1781(12) 0.3078(9) 0.3737(7)
H16_6 H 0.162112 0.333032 0.363483
O1_6 O 0.28881(23) 0.37306(15) 0.58733(17)
O2_6 O 0.37306(29) 0.28881(23) 0.41267(17)
loop_
_geom_bond_atom_site_label_1
_geom_bond_atom_site_label_2
_geom_bond_site_symmetry_1
_geom_bond_site_symmetry_2
Ni1 N1 1_555 1_555
N1 C17 1_555 1_555
N2 C30 1_555 1_555
C1 C2 1_555 1_555
C2 H1 1_555 1_555
H2 C2 1_555 1_555
C3 C2 1_555 1_555
C4 C1 1_555 1_555
H3 C4 1_555 1_555
C5 C3 1_555 1_555
C6 C3 1_555 1_555
H5 C6 1_555 1_555
C7 C1 1_555 1_555
C8 C7 1_555 1_555
H7 C8 1_555 1_555
C9 C8 1_555 1_555
H8 C9 1_555 1_555
C10 C9 1_555 1_555
C11 C10 1_555 1_555
H9 C11 1_555 1_555
C12 C7 1_555 1_555
H10 C12 1_555 1_555
C13 C10 1_555 1_555
H11 C13 1_555 1_555
C14 C13 1_555 1_555
H12 C14 1_555 1_555
C15 C14 1_555 1_555
C16 C15 1_555 1_555
H13 C16 1_555 1_555
C17 C16 1_555 1_555
C18 N1 1_555 1_555
H15 C18 1_555 1_555
C19 C15 1_555 1_555
H16 C19 1_555 1_555
C20 C3 1_555 1_555
C21 C20 1_555 1_555
H17 C21 1_555 1_555
C22 C21 1_555 1_555
H18 C22 1_555 1_555
C23 C22 1_555 1_555
C24 C23 1_555 1_555
H19 C24 1_555 1_555
C25 C20 1_555 1_555
H20 C25 1_555 1_555
C26 C23 1_555 1_555
H21 C26 1_555 1_555
C27 C26 1_555 1_555
H22 C27 1_555 1_555
C28 C27 1_555 1_555
C29 C28 1_555 1_555
H23 C29 1_555 1_555
C30 C29 1_555 1_555
H24 C30 1_555 1_555
C31 N2 1_555 1_555
H25 C31 1_555 1_555
C32 C28 1_555 1_555
H26 C32 1_555 1_555
O1 Ni1 1_555 1_555
H30 C5 1_555 1_555
Ni4 N2 1_555 1_555
N6 Ni1 1_555 1_555
C11 C12 1_555 1_555
C18 C19 1_555 1_555
C24 C25 1_555 1_555
C31 C32 1_555 1_555
Ni4 N1_2 1_555 1_555
N1_2 C17_2 1_555 1_555
H8_2 C9_2 1_555 1_555
C10_2 C9_2 1_555 1_555
C11_2 C10_2 1_555 1_555
H9_2 C11_2 1_555 1_555
C13_2 C10_2 1_555 1_555
H11_2 C13_2 1_555 1_555
C14_2 C13_2 1_555 1_555
H12_2 C14_2 1_555 1_555
C15_2 C14_2 1_555 1_555
C16_2 C15_2 1_555 1_555
H13_2 C16_2 1_555 1_555
C17_2 C16_2 1_555 1_555
C18_2 N1_2 1_555 1_555
H15_2 C18_2 1_555 1_555
C19_2 C15_2 1_555 1_555
H16_2 C19_2 1_555 1_555
O1_2 Ni4 1_555 1_555
C18_2 C19_2 1_555 1_555
N6 C30_2 1_555 1_555
C1_2 C2_2 1_555 1_555
C2_2 H1_2 1_555 1_555
H2_2 C2_2 1_555 1_555
C3_2 C2_2 1_555 1_555
C4_2 C1_2 1_555 1_555
H3_2 C4_2 1_555 1_555
C5_2 C3_2 1_555 1_555
C6_2 C3_2 1_555 1_555
H5_2 C6_2 1_555 1_555
C7_2 C1_2 1_555 1_555
C8_2 C7_2 1_555 1_555
H7_2 C8_2 1_555 1_555
C12_2 C7_2 1_555 1_555
H10_2 C12_2 1_555 1_555
C20_2 C3_2 1_555 1_555
C21_2 C20_2 1_555 1_555
H17_2 C21_2 1_555 1_555
C22_2 C21_2 1_555 1_555
H18_2 C22_2 1_555 1_555
C23_2 C22_2 1_555 1_555
C24_2 C23_2 1_555 1_555
H19_2 C24_2 1_555 1_555
C25_2 C20_2 1_555 1_555
H20_2 C25_2 1_555 1_555
C26_2 C23_2 1_555 1_555
H21_2 C26_2 1_555 1_555
C27_2 C26_2 1_555 1_555
H22_2 C27_2 1_555 1_555
C28_2 C27_2 1_555 1_555
C29_2 C28_2 1_555 1_555
H23_2 C29_2 1_555 1_555
C30_2 C29_2 1_555 1_555
H24_2 C30_2 1_555 1_555
C31_2 N6 1_555 1_555
H25_2 C31_2 1_555 1_555
C32_2 C28_2 1_555 1_555
H26_2 C32_2 1_555 1_555
H30_2 C5_2 1_555 1_555
C24_2 C25_2 1_555 1_555
C31_2 C32_2 1_555 1_555
H4 C5_3 1_555 1_555
N4 C60 1_555 1_555
C33 C4_3 1_555 1_555
C34 C33 1_555 1_555
H27 C34 1_555 1_555
H28 C34 1_555 1_555
C35 C5_3 1_555 1_555
H29 C4_3 1_555 1_555
H31 C36 1_555 1_555
C37 C33 1_555 1_555
C38 C37 1_555 1_555
H33 C38 1_555 1_555
C42 C37 1_555 1_555
H36 C42 1_555 1_555
C50 C35 1_555 1_555
C51 C50 1_555 1_555
H43 C51 1_555 1_555
C52 C51 1_555 1_555
H44 C52 1_555 1_555
C53 C52 1_555 1_555
C54 C53 1_555 1_555
H45 C54 1_555 1_555
C55 C50 1_555 1_555
H46 C55 1_555 1_555
C56 C53 1_555 1_555
H47 C56 1_555 1_555
C57 C56 1_555 1_555
H48 C57 1_555 1_555
C58 C57 1_555 1_555
C59 C58 1_555 1_555
H49 C59 1_555 1_555
C60 C59 1_555 1_555
H50 C60 1_555 1_555
C61 N4 1_555 1_555
H51 C61 1_555 1_555
C62 C58 1_555 1_555
H52 C62 1_555 1_555
Ni2 N4 1_555 1_555
C34 C35 1_555 1_555
C35 C36 1_555 1_555
C54 C55 1_555 1_555
C61 C62 1_555 1_555
Ni2 N1_3 1_555 1_555
N1_3 C17_3 1_555 1_555
H8_3 C9_3 1_555 1_555
C10_3 C9_3 1_555 1_555
C11_3 C10_3 1_555 1_555
H9_3 C11_3 1_555 1_555
C13_3 C10_3 1_555 1_555
H11_3 C13_3 1_555 1_555
C14_3 C13_3 1_555 1_555
H12_3 C14_3 1_555 1_555
C15_3 C14_3 1_555 1_555
C16_3 C15_3 1_555 1_555
H13_3 C16_3 1_555 1_555
C17_3 C16_3 1_555 1_555
H14 C17_3 1_555 1_555
C18_3 N1_3 1_555 1_555
H15_3 C18_3 1_555 1_555
C19_3 C15_3 1_555 1_555
H16_3 C19_3 1_555 1_555
O1_3 Ni2 1_555 1_555
O2 Ni2 1_555 1_555
N5 Ni2 1_555 1_555
N6_2 Ni2 1_555 1_555
C18_3 C19_3 1_555 1_555
N6_2 C30_3 1_555 1_555
C1_3 C2_3 1_555 1_555
C2_3 H1_3 1_555 1_555
H2_3 C2_3 1_555 1_555
C3_3 C2_3 1_555 1_555
C4_4 C1_3 1_555 1_555
H3_3 C4_4 1_555 1_555
C5_4 C3_3 1_555 1_555
C6_3 C3_3 1_555 1_555
H5_3 C6_3 1_555 1_555
C7_3 C1_3 1_555 1_555
C8_3 C7_3 1_555 1_555
H7_3 C8_3 1_555 1_555
C12_3 C7_3 1_555 1_555
H10_3 C12_3 1_555 1_555
C20_3 C3_3 1_555 1_555
C21_3 C20_3 1_555 1_555
H17_3 C21_3 1_555 1_555
C22_3 C21_3 1_555 1_555
H18_3 C22_3 1_555 1_555
C23_3 C22_3 1_555 1_555
C24_3 C23_3 1_555 1_555
H19_3 C24_3 1_555 1_555
C25_3 C20_3 1_555 1_555
H20_3 C25_3 1_555 1_555
C26_3 C23_3 1_555 1_555
H21_3 C26_3 1_555 1_555
C27_3 C26_3 1_555 1_555
H22_3 C27_3 1_555 1_555
C28_3 C27_3 1_555 1_555
C29_3 C28_3 1_555 1_555
H23_3 C29_3 1_555 1_555
C30_3 C29_3 1_555 1_555
H24_3 C30_3 1_555 1_555
C31_3 N6_2 1_555 1_555
H25_3 C31_3 1_555 1_555
C32_3 C28_3 1_555 1_555
H26_3 C32_3 1_555 1_555
H30_3 C5_4 1_555 1_555
C24_3 C25_3 1_555 1_555
C31_3 C32_3 1_555 1_555
N5 C47 1_555 1_555
H34 C39 1_555 1_555
C40 C39 1_555 1_555
C41 C40 1_555 1_555
H35 C41 1_555 1_555
C43 C40 1_555 1_555
H37 C43 1_555 1_555
C44 C43 1_555 1_555
H38 C44 1_555 1_555
C45 C44 1_555 1_555
C46 C45 1_555 1_555
H39 C46 1_555 1_555
C47 C46 1_555 1_555
H40_3 C47 1_555 1_555
C48 N5 1_555 1_555
H41 C48 1_555 1_555
C49 C45 1_555 1_555
H42 C49 1_555 1_555
C48 C49 1_555 1_555
O2_2 Ni1_2 1_555 1_555
N5_2 Ni1_2 1_555 1_555
N7 Ni1_2 1_555 1_555
H4_2 C5_5 1_555 1_555
N3 C47_2 1_555 1_555
N7 C60_2 1_555 1_555
C33_2 C4_5 1_555 1_555
C34_2 C33_2 1_555 1_555
H27_2 C34_2 1_555 1_555
H28_2 C34_2 1_555 1_555
C35_2 C5_5 1_555 1_555
H29_2 C4_5 1_555 1_555
H31_2 C36_2 1_555 1_555
C37_2 C33_2 1_555 1_555
C38_2 C37_2 1_555 1_555
H33_2 C38_2 1_555 1_555
C39_2 C38_2 1_555 1_555
H34_2 C39_2 1_555 1_555
C40_2 C39_2 1_555 1_555
C41_2 C40_2 1_555 1_555
H35_2 C41_2 1_555 1_555
C42_2 C37_2 1_555 1_555
H36_2 C42_2 1_555 1_555
C43_2 C40_2 1_555 1_555
H37_2 C43_2 1_555 1_555
C44_2 C43_2 1_555 1_555
H38_2 C44_2 1_555 1_555
C45_2 C44_2 1_555 1_555
C46_2 C45_2 1_555 1_555
H39_2 C46_2 1_555 1_555
C47_2 C46_2 1_555 1_555
C48_2 N3 1_555 1_555
H41_2 C48_2 1_555 1_555
C49_2 C45_2 1_555 1_555
H42_2 C49_2 1_555 1_555
C50_2 C35_2 1_555 1_555
C51_2 C50_2 1_555 1_555
H43_2 C51_2 1_555 1_555
C52_2 C51_2 1_555 1_555
H44_2 C52_2 1_555 1_555
C53_2 C52_2 1_555 1_555
C54_2 C53_2 1_555 1_555
H45_2 C54_2 1_555 1_555
C55_2 C50_2 1_555 1_555
H46_2 C55_2 1_555 1_555
C56_2 C53_2 1_555 1_555
H47_2 C56_2 1_555 1_555
C57_2 C56_2 1_555 1_555
H48_2 C57_2 1_555 1_555
C58_2 C57_2 1_555 1_555
C59_2 C58_2 1_555 1_555
H49_2 C59_2 1_555 1_555
C60_2 C59_2 1_555 1_555
H50_2 C60_2 1_555 1_555
C61_2 N7 1_555 1_555
H51_2 C61_2 1_555 1_555
C62_2 C58_2 1_555 1_555
H52_2 C62_2 1_555 1_555
Ni4_2 N3 1_555 1_555
C34_2 C35_2 1_555 1_555
C35_2 C36_2 1_555 1_555
C41_2 C42_2 1_555 1_555
C48_2 C49_2 1_555 1_555
C54_2 C55_2 1_555 1_555
C61_2 C62_2 1_555 1_555
N5_2 C47_3 1_555 1_555
H34_3 C39_3 1_555 1_555
C40_3 C39_3 1_555 1_555
C41_3 C40_3 1_555 1_555
H35_3 C41_3 1_555 1_555
C43_3 C40_3 1_555 1_555
H37_3 C43_3 1_555 1_555
C44_3 C43_3 1_555 1_555
H38_3 C44_3 1_555 1_555
C45_3 C44_3 1_555 1_555
C46_3 C45_3 1_555 1_555
H39_3 C46_3 1_555 1_555
C47_3 C46_3 1_555 1_555
C48_3 N5_2 1_555 1_555
H41_3 C48_3 1_555 1_555
C49_3 C45_3 1_555 1_555
H42_3 C49_3 1_555 1_555
C48_3 C49_3 1_555 1_555
O2_3 Ni4_2 1_555 1_555
N7_2 Ni4_2 1_555 1_555
H4_3 C5_6 1_555 1_555
N7_2 C60_3 1_555 1_555
C33_3 C4_6 1_555 1_555
C34_3 C33_3 1_555 1_555
H27_3 C34_3 1_555 1_555
H28_3 C34_3 1_555 1_555
C35_3 C5_6 1_555 1_555
H29_3 C4_6 1_555 1_555
H31_3 C36_3 1_555 1_555
C37_3 C33_3 1_555 1_555
C38_3 C37_3 1_555 1_555
H33_3 C38_3 1_555 1_555
C42_3 C37_3 1_555 1_555
H36_3 C42_3 1_555 1_555
C50_3 C35_3 1_555 1_555
C51_3 C50_3 1_555 1_555
H43_3 C51_3 1_555 1_555
C52_3 C51_3 1_555 1_555
H44_3 C52_3 1_555 1_555
C53_3 C52_3 1_555 1_555
C54_3 C53_3 1_555 1_555
H45_3 C54_3 1_555 1_555
C55_3 C50_3 1_555 1_555
H46_3 C55_3 1_555 1_555
C56_3 C53_3 1_555 1_555
H47_3 C56_3 1_555 1_555
C57_3 C56_3 1_555 1_555
H48_3 C57_3 1_555 1_555
C58_3 C57_3 1_555 1_555
C59_3 C58_3 1_555 1_555
H49_3 C59_3 1_555 1_555
C60_3 C59_3 1_555 1_555
H50_3 C60_3 1_555 1_555
C61_3 N7_2 1_555 1_555
H51_3 C61_3 1_555 1_555
C62_3 C58_3 1_555 1_555
H52_3 C62_3 1_555 1_555
C34_3 C35_3 1_555 1_555
C35_3 C36_3 1_555 1_555
C54_3 C55_3 1_555 1_555
C61_3 C62_3 1_555 1_555
N3_2 C47_4 1_555 1_555
H34_4 C39_4 1_555 1_555
C40_4 C39_4 1_555 1_555
C41_4 C40_4 1_555 1_555
H35_4 C41_4 1_555 1_555
C43_4 C40_4 1_555 1_555
H37_4 C43_4 1_555 1_555
C44_4 C43_4 1_555 1_555
H38_4 C44_4 1_555 1_555
C45_4 C44_4 1_555 1_555
C46_4 C45_4 1_555 1_555
H39_4 C46_4 1_555 1_555
C47_4 C46_4 1_555 1_555
C48_4 N3_2 1_555 1_555
H41_4 C48_4 1_555 1_555
C49_4 C45_4 1_555 1_555
H42_4 C49_4 1_555 1_555
Ni3 N3_2 1_555 1_555
C48_4 C49_4 1_555 1_555
O2_4 Ni1_3 1_555 1_555
N5_3 Ni1_3 1_555 1_555
N7_3 Ni1_3 1_555 1_555
H4_4 C5_7 1_555 1_555
N7_3 C60_4 1_555 1_555
C33_4 C4_7 1_555 1_555
C34_4 C33_4 1_555 1_555
H27_4 C34_4 1_555 1_555
H28_4 C34_4 1_555 1_555
C35_4 C5_7 1_555 1_555
H29_4 C4_7 1_555 1_555
H31_4 C36_4 1_555 1_555
C37_4 C33_4 1_555 1_555
C38_4 C37_4 1_555 1_555
H33_4 C38_4 1_555 1_555
C42_4 C37_4 1_555 1_555
H36_4 C42_4 1_555 1_555
C50_4 C35_4 1_555 1_555
C51_4 C50_4 1_555 1_555
H43_4 C51_4 1_555 1_555
C52_4 C51_4 1_555 1_555
H44_4 C52_4 1_555 1_555
C53_4 C52_4 1_555 1_555
C54_4 C53_4 1_555 1_555
H45_4 C54_4 1_555 1_555
C55_4 C50_4 1_555 1_555
H46_4 C55_4 1_555 1_555
C56_4 C53_4 1_555 1_555
H47_4 C56_4 1_555 1_555
C57_4 C56_4 1_555 1_555
H48_4 C57_4 1_555 1_555
C58_4 C57_4 1_555 1_555
C59_4 C58_4 1_555 1_555
H49_4 C59_4 1_555 1_555
C60_4 C59_4 1_555 1_555
H50_4 C60_4 1_555 1_555
C61_4 N7_3 1_555 1_555
H51_4 C61_4 1_555 1_555
C62_4 C58_4 1_555 1_555
H52_4 C62_4 1_555 1_555
C34_4 C35_4 1_555 1_555
C35_4 C36_4 1_555 1_555
C54_4 C55_4 1_555 1_555
C61_4 C62_4 1_555 1_555
O2_5 Ni3 1_555 1_555
N7_4 Ni3 1_555 1_555
H4_5 C5_8 1_555 1_555
N5_3 C47_5 1_555 1_555
N7_4 C60_5 1_555 1_555
C33_5 C4_8 1_555 1_555
C34_5 C33_5 1_555 1_555
H27_5 C34_5 1_555 1_555
H28_5 C34_5 1_555 1_555
C35_5 C5_8 1_555 1_555
H29_5 C4_8 1_555 1_555
H31_5 C36_5 1_555 1_555
C37_5 C33_5 1_555 1_555
C38_5 C37_5 1_555 1_555
H33_5 C38_5 1_555 1_555
C39_5 C38_5 1_555 1_555
H34_5 C39_5 1_555 1_555
C40_5 C39_5 1_555 1_555
C41_5 C40_5 1_555 1_555
H35_5 C41_5 1_555 1_555
C42_5 C37_5 1_555 1_555
H36_5 C42_5 1_555 1_555
C43_5 C40_5 1_555 1_555
H37_5 C43_5 1_555 1_555
C44_5 C43_5 1_555 1_555
H38_5 C44_5 1_555 1_555
C45_5 C44_5 1_555 1_555
C46_5 C45_5 1_555 1_555
H39_5 C46_5 1_555 1_555
C47_5 C46_5 1_555 1_555
C48_5 N5_3 1_555 1_555
H41_5 C48_5 1_555 1_555
C49_5 C45_5 1_555 1_555
H42_5 C49_5 1_555 1_555
C50_5 C35_5 1_555 1_555
C51_5 C50_5 1_555 1_555
H43_5 C51_5 1_555 1_555
C52_5 C51_5 1_555 1_555
H44_5 C52_5 1_555 1_555
C53_5 C52_5 1_555 1_555
C54_5 C53_5 1_555 1_555
H45_5 C54_5 1_555 1_555
C55_5 C50_5 1_555 1_555
H46_5 C55_5 1_555 1_555
C56_5 C53_5 1_555 1_555
H47_5 C56_5 1_555 1_555
C57_5 C56_5 1_555 1_555
H48_5 C57_5 1_555 1_555
C58_5 C57_5 1_555 1_555
C59_5 C58_5 1_555 1_555
H49_5 C59_5 1_555 1_555
C60_5 C59_5 1_555 1_555
H50_5 C60_5 1_555 1_555
C61_5 N7_4 1_555 1_555
H51_5 C61_5 1_555 1_555
C62_5 C58_5 1_555 1_555
H52_5 C62_5 1_555 1_555
C34_5 C35_5 1_555 1_555
C35_5 C36_5 1_555 1_555
C41_5 C42_5 1_555 1_555
C48_5 C49_5 1_555 1_555
C54_5 C55_5 1_555 1_555
C61_5 C62_5 1_555 1_555
Ni1_4 N1_4 1_555 1_555
N1_4 C17_4 1_555 1_555
H8_4 C9_4 1_555 1_555
C10_4 C9_4 1_555 1_555
C11_4 C10_4 1_555 1_555
H9_4 C11_4 1_555 1_555
C13_4 C10_4 1_555 1_555
H11_4 C13_4 1_555 1_555
C14_4 C13_4 1_555 1_555
H12_4 C14_4 1_555 1_555
C15_4 C14_4 1_555 1_555
C16_4 C15_4 1_555 1_555
H13_4 C16_4 1_555 1_555
C17_4 C16_4 1_555 1_555
C18_4 N1_4 1_555 1_555
H15_4 C18_4 1_555 1_555
C19_4 C15_4 1_555 1_555
H16_4 C19_4 1_555 1_555
O1_4 Ni1_4 1_555 1_555
N6_3 Ni1_4 1_555 1_555
C18_4 C19_4 1_555 1_555
N2_2 C30_4 1_555 1_555
C1_4 C2_4 1_555 1_555
C2_4 H1_4 1_555 1_555
H2_4 C2_4 1_555 1_555
C3_4 C2_4 1_555 1_555
C4_9 C1_4 1_555 1_555
H3_4 C4_9 1_555 1_555
C5_9 C3_4 1_555 1_555
C6_4 C3_4 1_555 1_555
H5_4 C6_4 1_555 1_555
C7_4 C1_4 1_555 1_555
C8_4 C7_4 1_555 1_555
H7_4 C8_4 1_555 1_555
C12_4 C7_4 1_555 1_555
H10_4 C12_4 1_555 1_555
C20_4 C3_4 1_555 1_555
C21_4 C20_4 1_555 1_555
H17_4 C21_4 1_555 1_555
C22_4 C21_4 1_555 1_555
H18_4 C22_4 1_555 1_555
C23_4 C22_4 1_555 1_555
C24_4 C23_4 1_555 1_555
H19_4 C24_4 1_555 1_555
C25_4 C20_4 1_555 1_555
H20_4 C25_4 1_555 1_555
C26_4 C23_4 1_555 1_555
H21_4 C26_4 1_555 1_555
C27_4 C26_4 1_555 1_555
H22_4 C27_4 1_555 1_555
C28_4 C27_4 1_555 1_555
C29_4 C28_4 1_555 1_555
H23_4 C29_4 1_555 1_555
C30_4 C29_4 1_555 1_555
H24_4 C30_4 1_555 1_555
C31_4 N2_2 1_555 1_555
H25_4 C31_4 1_555 1_555
C32_4 C28_4 1_555 1_555
H26_4 C32_4 1_555 1_555
H30_4 C5_9 1_555 1_555
Ni3_2 N2_2 1_555 1_555
C24_4 C25_4 1_555 1_555
C31_4 C32_4 1_555 1_555
Ni3_2 N1_5 1_555 1_555
N1_5 C17_5 1_555 1_555
N6_3 C30_5 1_555 1_555
C1_5 C2_5 1_555 1_555
C2_5 H1_5 1_555 1_555
H2_5 C2_5 1_555 1_555
C3_5 C2_5 1_555 1_555
C4_10 C1_5 1_555 1_555
H3_5 C4_10 1_555 1_555
C5_10 C3_5 1_555 1_555
C6_5 C3_5 1_555 1_555
H5_5 C6_5 1_555 1_555
C7_5 C1_5 1_555 1_555
C8_5 C7_5 1_555 1_555
H7_5 C8_5 1_555 1_555
C9_5 C8_5 1_555 1_555
H8_5 C9_5 1_555 1_555
C10_5 C9_5 1_555 1_555
C11_5 C10_5 1_555 1_555
H9_5 C11_5 1_555 1_555
C12_5 C7_5 1_555 1_555
H10_5 C12_5 1_555 1_555
C13_5 C10_5 1_555 1_555
H11_5 C13_5 1_555 1_555
C14_5 C13_5 1_555 1_555
H12_5 C14_5 1_555 1_555
C15_5 C14_5 1_555 1_555
C16_5 C15_5 1_555 1_555
H13_5 C16_5 1_555 1_555
C17_5 C16_5 1_555 1_555
C18_5 N1_5 1_555 1_555
H15_5 C18_5 1_555 1_555
C19_5 C15_5 1_555 1_555
H16_5 C19_5 1_555 1_555
C20_5 C3_5 1_555 1_555
C21_5 C20_5 1_555 1_555
H17_5 C21_5 1_555 1_555
C22_5 C21_5 1_555 1_555
H18_5 C22_5 1_555 1_555
C23_5 C22_5 1_555 1_555
C24_5 C23_5 1_555 1_555
H19_5 C24_5 1_555 1_555
C25_5 C20_5 1_555 1_555
H20_5 C25_5 1_555 1_555
C26_5 C23_5 1_555 1_555
H21_5 C26_5 1_555 1_555
C27_5 C26_5 1_555 1_555
H22_5 C27_5 1_555 1_555
C28_5 C27_5 1_555 1_555
C29_5 C28_5 1_555 1_555
H23_5 C29_5 1_555 1_555
C30_5 C29_5 1_555 1_555
H24_5 C30_5 1_555 1_555
C31_5 N6_3 1_555 1_555
H25_5 C31_5 1_555 1_555
C32_5 C28_5 1_555 1_555
H26_5 C32_5 1_555 1_555
O1_5 Ni3_2 1_555 1_555
H30_5 C5_10 1_555 1_555
C11_5 C12_5 1_555 1_555
C18_5 C19_5 1_555 1_555
C24_5 C25_5 1_555 1_555
C31_5 C32_5 1_555 1_555
N2_3 C30_6 1_555 1_555
C1_6 C2_6 1_555 1_555
C2_6 H1_6 1_555 1_555
H2_6 C2_6 1_555 1_555
C3_6 C2_6 1_555 1_555
C4_11 C1_6 1_555 1_555
H3_6 C4_11 1_555 1_555
C5_11 C3_6 1_555 1_555
C6_6 C3_6 1_555 1_555
H5_6 C6_6 1_555 1_555
C7_6 C1_6 1_555 1_555
C8_6 C7_6 1_555 1_555
H7_6 C8_6 1_555 1_555
C12_6 C7_6 1_555 1_555
H10_6 C12_6 1_555 1_555
C20_6 C3_6 1_555 1_555
C21_6 C20_6 1_555 1_555
H17_6 C21_6 1_555 1_555
C22_6 C21_6 1_555 1_555
H18_6 C22_6 1_555 1_555
C23_6 C22_6 1_555 1_555
C24_6 C23_6 1_555 1_555
H19_6 C24_6 1_555 1_555
C25_6 C20_6 1_555 1_555
H20_6 C25_6 1_555 1_555
C26_6 C23_6 1_555 1_555
H21_6 C26_6 1_555 1_555
C27_6 C26_6 1_555 1_555
H22_6 C27_6 1_555 1_555
C28_6 C27_6 1_555 1_555
C29_6 C28_6 1_555 1_555
H23_6 C29_6 1_555 1_555
C30_6 C29_6 1_555 1_555
H24_6 C30_6 1_555 1_555
C31_6 N2_3 1_555 1_555
H25_6 C31_6 1_555 1_555
C32_6 C28_6 1_555 1_555
H26_6 C32_6 1_555 1_555
H30_6 C5_11 1_555 1_555
Ni4_3 N2_3 1_555 1_555
C24_6 C25_6 1_555 1_555
C31_6 C32_6 1_555 1_555
N3_3 C47_6 1_555 1_555
H34_6 C39_6 1_555 1_555
C40_6 C39_6 1_555 1_555
C41_6 C40_6 1_555 1_555
H35_6 C41_6 1_555 1_555
C43_6 C40_6 1_555 1_555
H37_6 C43_6 1_555 1_555
C44_6 C43_6 1_555 1_555
H38_6 C44_6 1_555 1_555
C45_6 C44_6 1_555 1_555
C46_6 C45_6 1_555 1_555
H39_6 C46_6 1_555 1_555
C47_6 C46_6 1_555 1_555
H40_6 C47_6 1_555 1_555
C48_6 N3_3 1_555 1_555
H41_6 C48_6 1_555 1_555
C49_6 C45_6 1_555 1_555
H42_6 C49_6 1_555 1_555
Ni4_3 N3_3 1_555 1_555
C48_6 C49_6 1_555 1_555
H4_6 C5_12 1_555 1_555
N4_2 C60_6 1_555 1_555
C33_6 C4_12 1_555 1_555
C34_6 C33_6 1_555 1_555
H27_6 C34_6 1_555 1_555
H28_6 C34_6 1_555 1_555
C35_6 C5_12 1_555 1_555
H29_6 C4_12 1_555 1_555
H31_6 C36_6 1_555 1_555
C37_6 C33_6 1_555 1_555
C38_6 C37_6 1_555 1_555
H33_6 C38_6 1_555 1_555
C42_6 C37_6 1_555 1_555
H36_6 C42_6 1_555 1_555
C50_6 C35_6 1_555 1_555
C51_6 C50_6 1_555 1_555
H43_6 C51_6 1_555 1_555
C52_6 C51_6 1_555 1_555
H44_6 C52_6 1_555 1_555
C53_6 C52_6 1_555 1_555
C54_6 C53_6 1_555 1_555
H45_6 C54_6 1_555 1_555
C55_6 C50_6 1_555 1_555
H46_6 C55_6 1_555 1_555
C56_6 C53_6 1_555 1_555
H47_6 C56_6 1_555 1_555
C57_6 C56_6 1_555 1_555
H48_6 C57_6 1_555 1_555
C58_6 C57_6 1_555 1_555
C59_6 C58_6 1_555 1_555
H49_6 C59_6 1_555 1_555
C60_6 C59_6 1_555 1_555
H50_6 C60_6 1_555 1_555
C61_6 N4_2 1_555 1_555
H51_6 C61_6 1_555 1_555
C62_6 C58_6 1_555 1_555
H52_6 C62_6 1_555 1_555
Ni4_3 N4_2 1_555 1_555
C34_6 C35_6 1_555 1_555
C35_6 C36_6 1_555 1_555
C54_6 C55_6 1_555 1_555
C61_6 C62_6 1_555 1_555
Ni4_3 N1_6 1_555 1_555
N1_6 C17_6 1_555 1_555
H8_6 C9_6 1_555 1_555
C10_6 C9_6 1_555 1_555
C11_6 C10_6 1_555 1_555
H9_6 C11_6 1_555 1_555
C13_6 C10_6 1_555 1_555
H11_6 C13_6 1_555 1_555
C14_6 C13_6 1_555 1_555
H12_6 C14_6 1_555 1_555
C15_6 C14_6 1_555 1_555
C16_6 C15_6 1_555 1_555
H13_6 C16_6 1_555 1_555
C17_6 C16_6 1_555 1_555
H14_6 C17_6 1_555 1_555
C18_6 N1_6 1_555 1_555
H15_6 C18_6 1_555 1_555
C19_6 C15_6 1_555 1_555
H16_6 C19_6 1_555 1_555
O1_6 Ni4_3 1_555 1_555
O2_6 Ni4_3 1_555 1_555
C18_6 C19_6 1_555 1_555

#END
