
###############################################################################
#
# This file contains modified crystal structure data generated from the
# MOF subset of the Cambridge Structural Database (CSD) v543 
# hosted by the Cambridge Crystallographic Data Centre (CCDC).
#
# This work is licensed under the Creative Commons
# Attribution-NonCommercial-ShareAlike 4.0 International License.
# To view a copy of this license, visit
# http://creativecommons.org/licenses/by-nc-sa/4.0/
# or send a letter to
# Creative Commons, PO Box 1866, Mountain View, CA 94042, USA.
#
# CIF created using the CSD Python API on 29 September 2022
# The structure has been converted into the P1 space group
# The structure has a 3D framework
# The original CSD entry OYEBIE is in the monoclinic crystal system
# The framework has been calculated to contain at least 10.0% void space
# The void calculation uses a probe of radius 1.32A, grid spacing 0.4
#
###############################################################################

data_OYEBIE
_chemical_formula_moiety         '(C160 H128 N16 O30 Zn8)n'
_symmetry_cell_setting           triclinic
_symmetry_space_group_name_H-M   'P 1'
_symmetry_Int_Tables_number      1
_space_group_name_Hall           'P 1'
loop_
_symmetry_equiv_pos_site_id
_symmetry_equiv_pos_as_xyz
1 x,y,z
_cell_length_a                   20.6609(11)
_cell_length_b                   9.4792(5)
_cell_length_c                   22.1265(12)
_cell_angle_alpha                90
_cell_angle_beta                 103.703(1)
_cell_angle_gamma                90
_cell_volume                     4210.1
loop_
_atom_site_label
_atom_site_type_symbol
_atom_site_fract_x
_atom_site_fract_y
_atom_site_fract_z
Zn1 Zn 0.166748(11) 0.24569(2) 0.379895(10)
O1 O 0.21501(8) 0.07456(15) 0.41350(7)
O3 O 0.11917(8) 0.30154(17) 0.43997(7)
O4 O 0.08418(8) 0.47482(19) 0.37671(7)
N1 N 0.24517(8) 0.38156(18) 0.39095(8)
N2 N 0.38076(9) 0.71053(19) 0.20562(8)
C1 C 0.30049(11) 0.3507(2) 0.43262(10)
H1 H 0.3025 0.2659 0.4541
C2 C 0.35501(11) 0.4373(2) 0.44579(10)
H2 H 0.3926 0.4101 0.4758
C3 C 0.35521(11) 0.5632(2) 0.41563(9)
C4 C 0.29759(12) 0.5966(2) 0.37347(11)
H3 H 0.2942 0.6817 0.3520
C5 C 0.24458(12) 0.5050(2) 0.36253(11)
H4 H 0.2060 0.5310 0.3335
C6 C 0.41538(13) 0.6577(3) 0.42830(11)
H5 H 0.4374 0.6524 0.4721
H6 H 0.4010 0.7545 0.4192
C7 C 0.46448(11) 0.6194(3) 0.39042(10)
H7 H 0.5054 0.6719 0.4054
H8 H 0.4748 0.5196 0.3952
C8 C 0.38458(18) 0.5797(3) 0.22676(12)
H9 H 0.3670 0.5075 0.1993
C9 C 0.41234(18) 0.5470(3) 0.28537(12)
H10 H 0.4145 0.4537 0.2986
C10 C 0.43727(10) 0.6510(2) 0.32543(10)
C11 C 0.43376(15) 0.7857(3) 0.30301(12)
H11 H 0.4513 0.8597 0.3295
C12 C 0.40570(14) 0.8117(3) 0.24396(11)
H12 H 0.4037 0.9041 0.2295
C18 C 0.04133(10) 0.4595(2) 0.46353(10)
C19 C 0.05282(12) 0.4110(3) 0.52131(11)
H16 H 0.0885 0.3507 0.5366
C20 C 0.08462(10) 0.4112(2) 0.42363(10)
Zn3 Zn 0.333252(11) 0.74569(2) 0.120105(10)
N4 N 0.11924(9) 0.21053(19) 0.29438(8)
C37 C 0.01158(12) 0.4509(3) 0.55770(11)
H31 H 0.0193 0.4167 0.5982
O2 O 0.88110(8) 0.96311(17) 0.09541(8)
C13 C 0.81666(11) 0.7349(2) 0.02656(10)
H13 H 0.8619 0.7252 0.0447
C14 C 0.78352(10) 0.8562(2) 0.03692(9)
C15 C 0.71656(11) 0.8704(2) 0.00998(9)
H14 H 0.6940 0.9516 0.0167
C16 C 0.82064(11) 0.9711(2) 0.07596(9)
C3_2 C 0.14479(11) 0.0632(2) 0.08437(9)
C4_2 C 0.20241(12) 0.0966(2) 0.12653(11)
H3_2 H 0.2058 0.1817 0.1480
C5_2 C 0.25542(12) 0.0050(2) 0.13747(11)
H4_2 H 0.2940 0.0310 0.1665
C6_2 C 0.08462(13) 0.1577(3) 0.07170(11)
H5_2 H 0.0626 0.1524 0.0279
H6_2 H 0.0990 0.2545 0.0808
C7_2 C 0.03552(11) 0.1194(3) 0.10958(10)
H8_2 H 0.0252 0.0196 0.1048
C8_2 C 0.11542(18) 0.0797(3) 0.27324(12)
H9_2 H 0.1330 0.0075 0.3007
C9_2 C 0.08766(18) 0.0470(3) 0.21463(12)
C10_2 C 0.06273(10) 0.1510(2) 0.17457(10)
C11_2 C 0.06624(15) 0.2857(3) 0.19699(12)
H11_2 H 0.0487 0.3597 0.1705
C12_2 C 0.09430(14) 0.3117(3) 0.25604(11)
H12_2 H 0.0963 0.4041 0.2705
C17 C 0.51158(12) 0.0491(3) 0.05770(11)
H15 H 0.5193 0.0833 0.0982
C39 C 0.55282(12) 0.0890(3) 0.02131(11)
H32 H 0.5885 0.1493 0.0366
O1_2 O 0.28499(8) 0.57456(15) 0.08650(7)
O2_2 O 0.38110(8) 0.46311(17) 0.09541(8)
O3_2 O 0.38083(8) 0.80154(17) 0.06003(7)
O4_2 O 0.41582(8) 0.97482(19) 0.12329(7)
N1_2 N 0.25483(8) 0.88156(18) 0.10905(8)
C1_2 C 0.19951(11) 0.8507(2) 0.06738(10)
H1_2 H 0.1975 0.7659 0.0459
C2_2 C 0.14499(11) 0.9373(2) 0.05421(10)
H2_2 H 0.1074 0.9101 0.0242
H10_2 H 0.0855 0.9537 0.2014
C13_2 C 0.31666(11) 0.2349(2) 0.02656(10)
H13_2 H 0.3619 0.2252 0.0447
C14_2 C 0.28352(10) 0.3562(2) 0.03692(9)
C15_2 C 0.21656(11) 0.3704(2) 0.00998(9)
H14_2 H 0.1940 0.4516 0.0167
C16_2 C 0.32064(11) 0.4711(2) 0.07596(9)
C18_2 C 0.45867(10) 0.9595(2) 0.03647(10)
C20_2 C 0.41538(10) 0.9112(2) 0.07637(10)
O2_3 O 0.11890(8) 0.96311(17) 0.40459(8)
C13_3 C 0.18334(11) 0.7349(2) 0.47344(10)
H13_3 H 0.1381 0.7252 0.4553
C14_3 C 0.21648(10) 0.8562(2) 0.46308(9)
C15_3 C 0.28344(11) 0.8704(2) 0.49002(9)
H14_3 H 0.3060 0.9516 0.4833
C16_3 C 0.17936(11) 0.9711(2) 0.42404(9)
Zn2 Zn 0.333252(11) 0.25431(2) 0.620105(10)
O5 O 0.28499(8) 0.42544(15) 0.58650(7)
O7 O 0.38110(8) 0.53689(17) 0.59541(8)
C33 C 0.31666(11) 0.7651(2) 0.52656(10)
H29 H 0.3619 0.7748 0.5447
C34 C 0.28352(10) 0.6438(2) 0.53692(9)
C35 C 0.21656(11) 0.6296(2) 0.50998(9)
H30 H 0.1940 0.5484 0.5167
C36 C 0.32064(11) 0.5289(2) 0.57596(9)
Zn4 Zn 0.166748(11) 0.75431(2) 0.879895(10)
O6 O 0.21501(8) 0.92544(15) 0.91350(7)
O8 O 0.11917(8) 0.69846(17) 0.93997(7)
O9 O 0.08418(8) 0.52518(19) 0.87671(7)
N3 N 0.24517(8) 0.61844(18) 0.89095(8)
N5 N 0.11924(9) 0.78947(19) 0.79438(8)
N6 N 0.38076(9) 0.28947(19) 0.70562(8)
C21 C 0.30049(11) 0.6493(2) 0.93262(10)
H17 H 0.3025 0.7341 0.9541
C22 C 0.35501(11) 0.5627(2) 0.94579(10)
H18 H 0.3926 0.5899 0.9758
C23 C 0.35521(11) 0.4368(2) 0.91563(9)
C24 C 0.29759(12) 0.4034(2) 0.87347(11)
H19 H 0.2942 0.3183 0.8520
C25 C 0.24458(12) 0.4950(2) 0.86253(11)
H20 H 0.2060 0.4690 0.8335
C26 C 0.41538(13) 0.3423(3) 0.92830(11)
H21 H 0.4374 0.3476 0.9721
H22 H 0.4010 0.2455 0.9192
C27 C 0.46448(11) 0.3806(3) 0.89042(10)
H23 H 0.5054 0.3281 0.9054
H24 H 0.4748 0.4804 0.8952
C28 C 0.38458(18) 0.4203(3) 0.72676(12)
H25 H 0.3670 0.4925 0.6993
C29 C 0.41234(18) 0.4530(3) 0.78537(12)
H26 H 0.4145 0.5463 0.7986
C30 C 0.43727(10) 0.3490(2) 0.82543(10)
C31 C 0.43376(15) 0.2143(3) 0.80301(12)
H27 H 0.4513 0.1403 0.8295
C32 C 0.40570(14) 0.1883(3) 0.74396(11)
H28 H 0.4037 0.0959 0.7295
C38 C 0.04133(10) 0.5405(2) 0.96353(10)
C40 C 0.08462(10) 0.5888(2) 0.92363(10)
Zn1_2 Zn 0.833252(11) 0.24569(2) 0.120105(10)
O1_3 O 0.78499(8) 0.07456(15) 0.08650(7)
O3_3 O 0.88083(8) 0.30154(17) 0.06003(7)
O4_3 O 0.91582(8) 0.47482(19) 0.12329(7)
N1_3 N 0.75483(8) 0.38156(18) 0.10905(8)
N2_2 N 0.61924(9) 0.71053(19) 0.29438(8)
C1_3 C 0.69951(11) 0.3507(2) 0.06738(10)
H1_3 H 0.6975 0.2659 0.0459
C2_3 C 0.64499(11) 0.4373(2) 0.05421(10)
H2_3 H 0.6074 0.4101 0.0242
C3_3 C 0.64479(11) 0.5632(2) 0.08437(9)
C4_3 C 0.70241(12) 0.5966(2) 0.12653(11)
H3_3 H 0.7058 0.6817 0.1480
C5_3 C 0.75542(12) 0.5050(2) 0.13747(11)
H4_3 H 0.7940 0.5310 0.1665
C6_3 C 0.58462(13) 0.6577(3) 0.07170(11)
H5_3 H 0.5626 0.6524 0.0279
H6_3 H 0.5990 0.7545 0.0808
C7_3 C 0.53552(11) 0.6194(3) 0.10958(10)
H7_2 H 0.4946 0.6719 0.0946
H8_3 H 0.5252 0.5196 0.1048
C8_3 C 0.61542(18) 0.5797(3) 0.27324(12)
H9_3 H 0.6330 0.5075 0.3007
C9_3 C 0.58766(18) 0.5470(3) 0.21463(12)
H10_3 H 0.5855 0.4537 0.2014
C10_3 C 0.56273(10) 0.6510(2) 0.17457(10)
C11_3 C 0.56624(15) 0.7857(3) 0.19699(12)
H11_3 H 0.5487 0.8597 0.1705
C12_3 C 0.59430(14) 0.8117(3) 0.25604(11)
H12_3 H 0.5963 0.9041 0.2705
C18_3 C 0.95867(10) 0.4595(2) 0.03647(10)
C20_3 C 0.91538(10) 0.4112(2) 0.07637(10)
Zn3_2 Zn 0.666748(11) 0.74569(2) 0.379895(10)
N4_2 N 0.88076(9) 0.21053(19) 0.20562(8)
C3_4 C 0.85521(11) 0.0632(2) 0.41563(9)
C4_4 C 0.79759(12) 0.0966(2) 0.37347(11)
H3_4 H 0.7942 0.1817 0.3520
C5_4 C 0.74458(12) 0.0050(2) 0.36253(11)
H4_4 H 0.7060 0.0310 0.3335
C6_4 C 0.91538(13) 0.1577(3) 0.42830(11)
H5_4 H 0.9374 0.1524 0.4721
H6_4 H 0.9010 0.2545 0.4192
C7_4 C 0.96448(11) 0.1194(3) 0.39042(10)
H8_4 H 0.9748 0.0196 0.3952
C8_4 C 0.88458(18) 0.0797(3) 0.22676(12)
H9_4 H 0.8670 0.0075 0.1993
C9_4 C 0.91234(18) 0.0470(3) 0.28537(12)
C10_4 C 0.93727(10) 0.1510(2) 0.32543(10)
C11_4 C 0.93376(15) 0.2857(3) 0.30301(12)
H11_4 H 0.9513 0.3597 0.3295
C12_4 C 0.90570(14) 0.3117(3) 0.24396(11)
H12_4 H 0.9037 0.4041 0.2295
C17_2 C 0.48842(12) 0.0491(3) 0.44230(11)
H15_2 H 0.4807 0.0833 0.4018
O8_2 O 0.38083(8) 0.19846(17) 0.56003(7)
O9_2 O 0.41582(8) 0.02518(19) 0.62329(7)
N3_2 N 0.25483(8) 0.11844(18) 0.60905(8)
C21_2 C 0.19951(11) 0.1493(2) 0.56738(10)
H17_2 H 0.1975 0.2341 0.5459
C22_2 C 0.14499(11) 0.0627(2) 0.55421(10)
H18_2 H 0.1074 0.0899 0.5242
H26_2 H 0.0855 0.0463 0.7014
C38_2 C 0.45867(10) 0.0405(2) 0.53647(10)
C39_2 C 0.44718(12) 0.0890(3) 0.47869(11)
H32_2 H 0.4115 0.1493 0.4634
C40_2 C 0.41538(10) 0.0888(2) 0.57637(10)
O1_4 O 0.71501(8) 0.57456(15) 0.41350(7)
O2_4 O 0.61890(8) 0.46311(17) 0.40459(8)
O3_4 O 0.61917(8) 0.80154(17) 0.43997(7)
O4_4 O 0.58418(8) 0.97482(19) 0.37671(7)
N1_4 N 0.74517(8) 0.88156(18) 0.39095(8)
C1_4 C 0.80049(11) 0.8507(2) 0.43262(10)
H1_4 H 0.8025 0.7659 0.4541
C2_4 C 0.85501(11) 0.9373(2) 0.44579(10)
H2_4 H 0.8926 0.9101 0.4758
H10_4 H 0.9145 0.9537 0.2986
C13_4 C 0.68334(11) 0.2349(2) 0.47344(10)
H13_4 H 0.6381 0.2252 0.4553
C14_4 C 0.71648(10) 0.3562(2) 0.46308(9)
C15_4 C 0.78344(11) 0.3704(2) 0.49002(9)
H14_4 H 0.8060 0.4516 0.4833
C16_4 C 0.67936(11) 0.4711(2) 0.42404(9)
C18_4 C 0.54133(10) 0.9595(2) 0.46353(10)
C19_2 C 0.55282(12) 0.9110(3) 0.52131(11)
H16_2 H 0.5885 0.8507 0.5366
C20_4 C 0.58462(10) 0.9112(2) 0.42363(10)
O7_2 O 0.88110(8) 0.03689(17) 0.59541(8)
C23_2 C 0.14479(11) 0.9368(2) 0.58437(9)
C24_2 C 0.20241(12) 0.9034(2) 0.62653(11)
H19_2 H 0.2058 0.8183 0.6480
C25_2 C 0.25542(12) 0.9950(2) 0.63747(11)
H20_2 H 0.2940 0.9690 0.6665
C26_2 C 0.08462(13) 0.8423(3) 0.57170(11)
H21_2 H 0.0626 0.8476 0.5279
H22_2 H 0.0990 0.7455 0.5808
C27_2 C 0.03552(11) 0.8806(3) 0.60958(10)
H24_2 H 0.0252 0.9804 0.6048
C28_2 C 0.11542(18) 0.9203(3) 0.77324(12)
H25_2 H 0.1330 0.9925 0.8007
C29_2 C 0.08766(18) 0.9530(3) 0.71463(12)
C30_2 C 0.06273(10) 0.8490(2) 0.67457(10)
C31_2 C 0.06624(15) 0.7143(3) 0.69699(12)
H27_2 H 0.0487 0.6403 0.6705
C32_2 C 0.09430(14) 0.6883(3) 0.75604(11)
H28_2 H 0.0963 0.5959 0.7705
C33_2 C 0.81666(11) 0.2651(2) 0.52656(10)
H29_2 H 0.8619 0.2748 0.5447
C34_2 C 0.78352(10) 0.1438(2) 0.53692(9)
C35_2 C 0.71656(11) 0.1296(2) 0.50998(9)
H30_2 H 0.6940 0.0484 0.5167
C36_2 C 0.82064(11) 0.0289(2) 0.57596(9)
C37_2 C 0.51158(12) 0.9509(3) 0.55770(11)
H31_2 H 0.5193 0.9167 0.5982
C17_3 C 0.98842(12) 0.5491(3) 0.44230(11)
H15_3 H 0.9807 0.5833 0.4018
Zn4_2 Zn 0.833252(11) 0.75431(2) 0.620105(10)
Zn5 Zn 0.666748(11) 0.25431(2) 0.879895(10)
O6_2 O 0.78499(8) 0.92544(15) 0.58650(7)
O8_3 O 0.88083(8) 0.69846(17) 0.56003(7)
O9_3 O 0.91582(8) 0.52518(19) 0.62329(7)
N3_3 N 0.75483(8) 0.61844(18) 0.60905(8)
N5_2 N 0.88076(9) 0.78947(19) 0.70562(8)
N6_2 N 0.61924(9) 0.28947(19) 0.79438(8)
C21_3 C 0.69951(11) 0.6493(2) 0.56738(10)
H17_3 H 0.6975 0.7341 0.5459
C22_3 C 0.64499(11) 0.5627(2) 0.55421(10)
H18_3 H 0.6074 0.5899 0.5242
C23_3 C 0.64479(11) 0.4368(2) 0.58437(9)
C24_3 C 0.70241(12) 0.4034(2) 0.62653(11)
H19_3 H 0.7058 0.3183 0.6480
C25_3 C 0.75542(12) 0.4950(2) 0.63747(11)
H20_3 H 0.7940 0.4690 0.6665
C26_3 C 0.58462(13) 0.3423(3) 0.57170(11)
H21_3 H 0.5626 0.3476 0.5279
H22_3 H 0.5990 0.2455 0.5808
C27_3 C 0.53552(11) 0.3806(3) 0.60958(10)
H23_2 H 0.4946 0.3281 0.5946
H24_3 H 0.5252 0.4804 0.6048
C28_3 C 0.61542(18) 0.4203(3) 0.77324(12)
H25_3 H 0.6330 0.4925 0.8007
C29_3 C 0.58766(18) 0.4530(3) 0.71463(12)
H26_3 H 0.5855 0.5463 0.7014
C30_3 C 0.56273(10) 0.3490(2) 0.67457(10)
C31_3 C 0.56624(15) 0.2143(3) 0.69699(12)
H27_3 H 0.5487 0.1403 0.6705
C32_3 C 0.59430(14) 0.1883(3) 0.75604(11)
H28_3 H 0.5963 0.0959 0.7705
C38_3 C 0.95867(10) 0.5405(2) 0.53647(10)
C39_3 C 0.94718(12) 0.5890(3) 0.47869(11)
H32_3 H 0.9115 0.6493 0.4634
C40_3 C 0.91538(10) 0.5888(2) 0.57637(10)
O5_2 O 0.71501(8) 0.42544(15) 0.91350(7)
O7_3 O 0.61890(8) 0.53689(17) 0.90459(8)
C33_3 C 0.68334(11) 0.7651(2) 0.97344(10)
H29_3 H 0.6381 0.7748 0.9553
C34_3 C 0.71648(10) 0.6438(2) 0.96308(9)
C35_3 C 0.78344(11) 0.6296(2) 0.99002(9)
H30_3 H 0.8060 0.5484 0.9833
C36_3 C 0.67936(11) 0.5289(2) 0.92404(9)
O8_4 O 0.61917(8) 0.19846(17) 0.93997(7)
O9_4 O 0.58418(8) 0.02518(19) 0.87671(7)
N3_4 N 0.74517(8) 0.11844(18) 0.89095(8)
C21_4 C 0.80049(11) 0.1493(2) 0.93262(10)
H17_4 H 0.8025 0.2341 0.9541
C22_4 C 0.85501(11) 0.0627(2) 0.94579(10)
H18_4 H 0.8926 0.0899 0.9758
H26_4 H 0.9145 0.0463 0.7986
C38_4 C 0.54133(10) 0.0405(2) 0.96353(10)
C40_4 C 0.58462(10) 0.0888(2) 0.92363(10)
C19_3 C 0.44718(12) 0.9110(3) 0.97869(11)
H16_3 H 0.4115 0.8507 0.9634
O7_4 O 0.11890(8) 0.03689(17) 0.90459(8)
C23_4 C 0.85521(11) 0.9368(2) 0.91563(9)
C24_4 C 0.79759(12) 0.9034(2) 0.87347(11)
H19_4 H 0.7942 0.8183 0.8520
C25_4 C 0.74458(12) 0.9950(2) 0.86253(11)
H20_4 H 0.7060 0.9690 0.8335
C26_4 C 0.91538(13) 0.8423(3) 0.92830(11)
H21_4 H 0.9374 0.8476 0.9721
H22_4 H 0.9010 0.7455 0.9192
C27_4 C 0.96448(11) 0.8806(3) 0.89042(10)
H24_4 H 0.9748 0.9804 0.8952
C28_4 C 0.88458(18) 0.9203(3) 0.72676(12)
H25_4 H 0.8670 0.9925 0.6993
C29_4 C 0.91234(18) 0.9530(3) 0.78537(12)
C30_4 C 0.93727(10) 0.8490(2) 0.82543(10)
C31_4 C 0.93376(15) 0.7143(3) 0.80301(12)
H27_4 H 0.9513 0.6403 0.8295
C32_4 C 0.90570(14) 0.6883(3) 0.74396(11)
H28_4 H 0.9037 0.5959 0.7295
C33_4 C 0.18334(11) 0.2651(2) 0.97344(10)
H29_4 H 0.1381 0.2748 0.9553
C34_4 C 0.21648(10) 0.1438(2) 0.96308(9)
C35_4 C 0.28344(11) 0.1296(2) 0.99002(9)
H30_4 H 0.3060 0.0484 0.9833
C36_4 C 0.17936(11) 0.0289(2) 0.92404(9)
C37_3 C 0.48842(12) 0.9509(3) 0.94230(11)
H31_3 H 0.4807 0.9167 0.9018
C17_4 C 0.01158(12) 0.5491(3) 0.05770(11)
H15_4 H 0.0193 0.5833 0.0982
C39_4 C 0.05282(12) 0.5890(3) 0.02131(11)
H32_4 H 0.0885 0.6493 0.0366
C19_4 C 0.94718(12) 0.4110(3) 0.97869(11)
H16_4 H 0.9115 0.3507 0.9634
C37_4 C 0.98842(12) 0.4509(3) 0.94230(11)
H31_4 H 0.9807 0.4167 0.9018
H7_3 H 0.0054 0.1719 0.4054
H23_3 H 0.9946 0.8281 0.5946
H23_4 H 0.0054 0.8281 0.9054
H7_4 H 0.9946 0.1719 0.0946
loop_
_geom_bond_atom_site_label_1
_geom_bond_atom_site_label_2
_geom_bond_site_symmetry_1
_geom_bond_site_symmetry_2
Zn1 O1 1_555 1_555
O3 Zn1 1_555 1_555
O4 C20 1_555 1_555
N1 Zn1 1_555 1_555
N2 C8 1_555 1_555
C1 N1 1_555 1_555
H1 C1 1_555 1_555
C2 C1 1_555 1_555
H2 C2 1_555 1_555
C3 C2 1_555 1_555
C4 C3 1_555 1_555
H3 C4 1_555 1_555
C5 N1 1_555 1_555
H4 C5 1_555 1_555
C6 C3 1_555 1_555
H5 C6 1_555 1_555
H6 C6 1_555 1_555
C7 C6 1_555 1_555
H7 C7 1_555 1_555
H8 C7 1_555 1_555
C8 H9 1_555 1_555
C9 C8 1_555 1_555
H10 C9 1_555 1_555
C10 C7 1_555 1_555
C11 C10 1_555 1_555
H11 C11 1_555 1_555
C12 N2 1_555 1_555
H12 C12 1_555 1_555
C19 C18 1_555 1_555
H16 C19 1_555 1_555
C20 O3 1_555 1_555
Zn3 N2 1_555 1_555
N4 Zn1 1_555 1_555
C37 C19 1_555 1_555
H31 C37 1_555 1_555
C4 C5 1_555 1_555
C9 C10 1_555 1_555
C11 C12 1_555 1_555
C18 C20 1_555 1_555
O2 C16 1_555 1_555
C13 H13 1_555 1_555
C14 C13 1_555 1_555
C15 C14 1_555 1_555
H14 C15 1_555 1_555
C16 C14 1_555 1_555
N4 C8_2 1_555 1_555
C4_2 C3_2 1_555 1_555
H3_2 C4_2 1_555 1_555
H4_2 C5_2 1_555 1_555
C6_2 C3_2 1_555 1_555
H5_2 C6_2 1_555 1_555
H6_2 C6_2 1_555 1_555
C7_2 C6_2 1_555 1_555
H8_2 C7_2 1_555 1_555
C8_2 H9_2 1_555 1_555
C9_2 C8_2 1_555 1_555
C10_2 C7_2 1_555 1_555
C11_2 C10_2 1_555 1_555
H11_2 C11_2 1_555 1_555
C12_2 N4 1_555 1_555
H12_2 C12_2 1_555 1_555
C17 H15 1_555 1_555
C39 C17 1_555 1_555
H32 C39 1_555 1_555
C4_2 C5_2 1_555 1_555
C9_2 C10_2 1_555 1_555
C11_2 C12_2 1_555 1_555
Zn3 O1_2 1_555 1_555
O1_2 C16_2 1_555 1_555
O2_2 C16_2 1_555 1_555
O3_2 Zn3 1_555 1_555
O4_2 C20_2 1_555 1_555
N1_2 Zn3 1_555 1_555
C1_2 N1_2 1_555 1_555
H1_2 C1_2 1_555 1_555
C2_2 C1_2 1_555 1_555
H2_2 C2_2 1_555 1_555
C13_2 H13_2 1_555 1_555
C14_2 C13_2 1_555 1_555
C15_2 C14_2 1_555 1_555
H14_2 C15_2 1_555 1_555
C16_2 C14_2 1_555 1_555
C20_2 O3_2 1_555 1_555
C18_2 C20_2 1_555 1_555
O2_3 C16_3 1_555 1_555
C13_3 H13_3 1_555 1_555
C14_3 C13_3 1_555 1_555
C15_3 C14_3 1_555 1_555
H14_3 C15_3 1_555 1_555
C16_3 C14_3 1_555 1_555
Zn2 O5 1_555 1_555
O5 C36 1_555 1_555
O7 C36 1_555 1_555
C33 C15_3 1_555 1_555
H29 C33 1_555 1_555
C34 C33 1_555 1_555
C35 C13_3 1_555 1_555
H30 C35 1_555 1_555
C36 C34 1_555 1_555
C34 C35 1_555 1_555
Zn4 O6 1_555 1_555
Zn2 N6 1_555 1_555
O8 Zn4 1_555 1_555
O9 C40 1_555 1_555
N3 Zn4 1_555 1_555
N5 Zn4 1_555 1_555
N6 C28 1_555 1_555
C21 N3 1_555 1_555
H17 C21 1_555 1_555
C22 C21 1_555 1_555
H18 C22 1_555 1_555
C23 C22 1_555 1_555
C24 C23 1_555 1_555
H19 C24 1_555 1_555
C25 N3 1_555 1_555
H20 C25 1_555 1_555
C26 C23 1_555 1_555
H21 C26 1_555 1_555
H22 C26 1_555 1_555
C27 C26 1_555 1_555
H23 C27 1_555 1_555
H24 C27 1_555 1_555
C28 H25 1_555 1_555
C29 C28 1_555 1_555
H26 C29 1_555 1_555
C30 C27 1_555 1_555
C31 C30 1_555 1_555
H27 C31 1_555 1_555
C32 N6 1_555 1_555
H28 C32 1_555 1_555
C40 O8 1_555 1_555
C24 C25 1_555 1_555
C29 C30 1_555 1_555
C31 C32 1_555 1_555
C38 C40 1_555 1_555
Zn1_2 O1_3 1_555 1_555
O3_3 Zn1_2 1_555 1_555
O4_3 C20_3 1_555 1_555
N1_3 Zn1_2 1_555 1_555
N2_2 C8_3 1_555 1_555
C1_3 N1_3 1_555 1_555
H1_3 C1_3 1_555 1_555
C2_3 C1_3 1_555 1_555
H2_3 C2_3 1_555 1_555
C3_3 C2_3 1_555 1_555
C4_3 C3_3 1_555 1_555
H3_3 C4_3 1_555 1_555
C5_3 N1_3 1_555 1_555
H4_3 C5_3 1_555 1_555
C6_3 C3_3 1_555 1_555
H5_3 C6_3 1_555 1_555
H6_3 C6_3 1_555 1_555
C7_3 C6_3 1_555 1_555
H7_2 C7_3 1_555 1_555
H8_3 C7_3 1_555 1_555
C8_3 H9_3 1_555 1_555
C9_3 C8_3 1_555 1_555
H10_3 C9_3 1_555 1_555
C10_3 C7_3 1_555 1_555
C11_3 C10_3 1_555 1_555
H11_3 C11_3 1_555 1_555
C12_3 N2_2 1_555 1_555
H12_3 C12_3 1_555 1_555
C20_3 O3_3 1_555 1_555
Zn3_2 N2_2 1_555 1_555
N4_2 Zn1_2 1_555 1_555
C4_3 C5_3 1_555 1_555
C9_3 C10_3 1_555 1_555
C11_3 C12_3 1_555 1_555
C18_3 C20_3 1_555 1_555
N4_2 C8_4 1_555 1_555
C4_4 C3_4 1_555 1_555
H3_4 C4_4 1_555 1_555
H4_4 C5_4 1_555 1_555
C6_4 C3_4 1_555 1_555
H5_4 C6_4 1_555 1_555
H6_4 C6_4 1_555 1_555
C7_4 C6_4 1_555 1_555
H8_4 C7_4 1_555 1_555
C8_4 H9_4 1_555 1_555
C9_4 C8_4 1_555 1_555
C10_4 C7_4 1_555 1_555
C11_4 C10_4 1_555 1_555
H11_4 C11_4 1_555 1_555
C12_4 N4_2 1_555 1_555
H12_4 C12_4 1_555 1_555
C17_2 H15_2 1_555 1_555
O8_2 Zn2 1_555 1_555
O9_2 C40_2 1_555 1_555
N3_2 Zn2 1_555 1_555
C21_2 N3_2 1_555 1_555
H17_2 C21_2 1_555 1_555
C22_2 C21_2 1_555 1_555
H18_2 C22_2 1_555 1_555
C39_2 C17_2 1_555 1_555
H32_2 C39_2 1_555 1_555
C40_2 O8_2 1_555 1_555
C4_4 C5_4 1_555 1_555
C9_4 C10_4 1_555 1_555
C11_4 C12_4 1_555 1_555
C38_2 C39_2 1_555 1_555
C38_2 C40_2 1_555 1_555
Zn3_2 O1_4 1_555 1_555
O1_4 C16_4 1_555 1_555
O2_4 C16_4 1_555 1_555
O3_4 Zn3_2 1_555 1_555
O4_4 C20_4 1_555 1_555
N1_4 Zn3_2 1_555 1_555
C1_4 N1_4 1_555 1_555
H1_4 C1_4 1_555 1_555
C2_4 C1_4 1_555 1_555
H2_4 C2_4 1_555 1_555
C13_4 H13_4 1_555 1_555
C14_4 C13_4 1_555 1_555
C15_4 C14_4 1_555 1_555
H14_4 C15_4 1_555 1_555
C16_4 C14_4 1_555 1_555
C19_2 C18_4 1_555 1_555
H16_2 C19_2 1_555 1_555
C20_4 O3_4 1_555 1_555
O7_2 C36_2 1_555 1_555
N5 C28_2 1_555 1_555
C24_2 C23_2 1_555 1_555
H19_2 C24_2 1_555 1_555
H20_2 C25_2 1_555 1_555
C26_2 C23_2 1_555 1_555
H21_2 C26_2 1_555 1_555
H22_2 C26_2 1_555 1_555
C27_2 C26_2 1_555 1_555
H24_2 C27_2 1_555 1_555
C28_2 H25_2 1_555 1_555
C29_2 C28_2 1_555 1_555
C30_2 C27_2 1_555 1_555
C31_2 C30_2 1_555 1_555
H27_2 C31_2 1_555 1_555
C32_2 N5 1_555 1_555
H28_2 C32_2 1_555 1_555
C33_2 C15_4 1_555 1_555
H29_2 C33_2 1_555 1_555
C34_2 C33_2 1_555 1_555
C35_2 C13_4 1_555 1_555
H30_2 C35_2 1_555 1_555
C36_2 C34_2 1_555 1_555
C37_2 C19_2 1_555 1_555
H31_2 C37_2 1_555 1_555
C18_4 C20_4 1_555 1_555
C24_2 C25_2 1_555 1_555
C29_2 C30_2 1_555 1_555
C31_2 C32_2 1_555 1_555
C34_2 C35_2 1_555 1_555
C17_3 H15_3 1_555 1_555
Zn4_2 O6_2 1_555 1_555
Zn5 N6_2 1_555 1_555
O8_3 Zn4_2 1_555 1_555
O9_3 C40_3 1_555 1_555
N3_3 Zn4_2 1_555 1_555
N5_2 Zn4_2 1_555 1_555
N6_2 C28_3 1_555 1_555
C21_3 N3_3 1_555 1_555
H17_3 C21_3 1_555 1_555
C22_3 C21_3 1_555 1_555
H18_3 C22_3 1_555 1_555
C23_3 C22_3 1_555 1_555
C24_3 C23_3 1_555 1_555
H19_3 C24_3 1_555 1_555
C25_3 N3_3 1_555 1_555
H20_3 C25_3 1_555 1_555
C26_3 C23_3 1_555 1_555
H21_3 C26_3 1_555 1_555
H22_3 C26_3 1_555 1_555
C27_3 C26_3 1_555 1_555
H23_2 C27_3 1_555 1_555
H24_3 C27_3 1_555 1_555
C28_3 H25_3 1_555 1_555
C29_3 C28_3 1_555 1_555
H26_3 C29_3 1_555 1_555
C30_3 C27_3 1_555 1_555
C31_3 C30_3 1_555 1_555
H27_3 C31_3 1_555 1_555
C32_3 N6_2 1_555 1_555
H28_3 C32_3 1_555 1_555
C39_3 C17_3 1_555 1_555
H32_3 C39_3 1_555 1_555
C40_3 O8_3 1_555 1_555
C24_3 C25_3 1_555 1_555
C29_3 C30_3 1_555 1_555
C31_3 C32_3 1_555 1_555
C38_3 C39_3 1_555 1_555
C38_3 C40_3 1_555 1_555
Zn5 O5_2 1_555 1_555
O5_2 C36_3 1_555 1_555
O7_3 C36_3 1_555 1_555
H29_3 C33_3 1_555 1_555
C34_3 C33_3 1_555 1_555
H30_3 C35_3 1_555 1_555
C36_3 C34_3 1_555 1_555
C34_3 C35_3 1_555 1_555
O8_4 Zn5 1_555 1_555
O9_4 C40_4 1_555 1_555
N3_4 Zn5 1_555 1_555
C21_4 N3_4 1_555 1_555
H17_4 C21_4 1_555 1_555
C22_4 C21_4 1_555 1_555
H18_4 C22_4 1_555 1_555
C40_4 O8_4 1_555 1_555
C38_4 C40_4 1_555 1_555
H16_3 C19_3 1_555 1_555
O7_4 C36_4 1_555 1_555
N5_2 C28_4 1_555 1_555
C24_4 C23_4 1_555 1_555
H19_4 C24_4 1_555 1_555
H20_4 C25_4 1_555 1_555
C26_4 C23_4 1_555 1_555
H21_4 C26_4 1_555 1_555
H22_4 C26_4 1_555 1_555
C27_4 C26_4 1_555 1_555
H24_4 C27_4 1_555 1_555
C28_4 H25_4 1_555 1_555
C29_4 C28_4 1_555 1_555
C30_4 C27_4 1_555 1_555
C31_4 C30_4 1_555 1_555
H27_4 C31_4 1_555 1_555
C32_4 N5_2 1_555 1_555
H28_4 C32_4 1_555 1_555
H29_4 C33_4 1_555 1_555
C34_4 C33_4 1_555 1_555
H30_4 C35_4 1_555 1_555
C36_4 C34_4 1_555 1_555
C37_3 C19_3 1_555 1_555
H31_3 C37_3 1_555 1_555
C24_4 C25_4 1_555 1_555
C29_4 C30_4 1_555 1_555
C31_4 C32_4 1_555 1_555
C34_4 C35_4 1_555 1_555
C17_4 H15_4 1_555 1_555
C39_4 C17_4 1_555 1_555
H32_4 C39_4 1_555 1_555
H16_4 C19_4 1_555 1_555
C37_4 C19_4 1_555 1_555
H31_4 C37_4 1_555 1_555

#END
