
###############################################################################
#
# This file contains modified crystal structure data generated from the
# MOF subset of the Cambridge Structural Database (CSD) v543 
# hosted by the Cambridge Crystallographic Data Centre (CCDC).
#
# This work is licensed under the Creative Commons
# Attribution-NonCommercial-ShareAlike 4.0 International License.
# To view a copy of this license, visit
# http://creativecommons.org/licenses/by-nc-sa/4.0/
# or send a letter to
# Creative Commons, PO Box 1866, Mountain View, CA 94042, USA.
#
# CIF created using the CSD Python API on 29 September 2022
# The structure has been converted into the P1 space group
# The structure has a 3D framework
# The original CSD entry OYERIV is in the hexagonal crystal system
# The framework has been calculated to contain at least 10.0% void space
# The void calculation uses a probe of radius 1.32A, grid spacing 0.4
# The framework is charged, counterions have been retained in the structure
# H atom positions have been added when not included in the experimental data
#
###############################################################################

data_OYERIV
_chemical_formula_moiety         '(C156 H132 Cl20 Cr12 Mn15 N24 O64 2+)n'
_symmetry_cell_setting           triclinic
_symmetry_space_group_name_H-M   'P 1'
_symmetry_Int_Tables_number      1
_space_group_name_Hall           'P 1'
loop_
_symmetry_equiv_pos_site_id
_symmetry_equiv_pos_as_xyz
1 x,y,z
_cell_length_a                   22.045(2)
_cell_length_b                   22.045(2)
_cell_length_c                   21.768(2)
_cell_angle_alpha                90
_cell_angle_beta                 90
_cell_angle_gamma                120
_cell_volume                     9161.56
loop_
_atom_site_label
_atom_site_type_symbol
_atom_site_fract_x
_atom_site_fract_y
_atom_site_fract_z
Mn2 Mn -0.0000 0.5000 0.0000
Cl5 Cl -0.0000 0.55939(12) 0.09714(8)
Mn6 Mn -0.0000 0.5000 0.5000
N14 N 0.0846(2) 0.4783(3) 0.03870(19)
Mn2_2 Mn -0.0000 0.5000 1.0000
Cl2 Cl -0.0000 0.44061(12) 0.90286(8)
N13 N 0.0846(2) 0.6063(4) 0.96130(19)
Mn1 Mn 0.5000 0.0000 0.0000
Cl1 Cl 0.55939(12) -0.0000 0.09714(8)
Cr1 Cr 0.66517(6) 0.24606(6) 0.2500
O1 O 0.6667 0.3333 0.2500
O2 O 0.59406(18) 0.20389(17) 0.18512(14)
O3 O 0.53641(19) 0.2637(2) 0.1858(2)
C1 C 0.5486(3) 0.2171(3) 0.1662(2)
C2 C 0.5036(3) 0.1736(3) 0.1139(2)
C3 C 0.5172(3) 0.1260(3) 0.0857(2)
H1 H 0.5557 0.1219 0.0999
N1 N 0.4783(3) 0.0846(2) 0.03870(19)
C4 C 0.4229(4) 0.0907(4) 0.0212(3)
C5 C 0.4058(4) 0.1371(4) 0.0467(4)
H3 H 0.3667 0.1399 0.0319
C6 C 0.4465(4) 0.1799(3) 0.0945(3)
H4 H 0.4358 0.2123 0.1134
O4 O 0.6669(3) 0.1550(3) 0.2500
C7 C 0.6084(11) 0.0866(10) 0.2500
Mn2_3 Mn 1.0000 0.5000 0.0000
Cr2 Cr 0.75394(6) 0.41911(8) 0.2500
O5 O 0.79611(17) 0.39017(25) 0.18512(14)
O6 O 0.7363(2) 0.27271(28) 0.1858(2)
C8 C 0.7829(3) 0.3315(4) 0.1662(2)
C9 C 0.8264(3) 0.3300(4) 0.1139(2)
C10 C 0.8740(3) 0.3912(4) 0.0857(2)
H5 H 0.8781 0.4338 0.0999
N2 N 0.9154(2) 0.3937(4) 0.03870(19)
C11 C 0.9093(4) 0.3322(6) 0.0212(3)
C12 C 0.8629(4) 0.2687(6) 0.0467(4)
H7 H 0.8601 0.2268 0.0319
C13 C 0.8201(3) 0.2666(5) 0.0945(3)
H8 H 0.7877 0.2235 0.1134
O7 O 0.8450(3) 0.5119(4) 0.2500
C14 C 0.9134(10) 0.5218(15) 0.2500
Mn3 Mn 0.5000 0.5000 0.0000
Cr3 Cr 0.58089(8) 0.33483(6) 0.2500
O8 O 0.60983(25) 0.40594(18) 0.18512(14)
O9 O 0.72729(28) 0.46359(19) 0.1858(2)
C15 C 0.6685(4) 0.4514(3) 0.1662(2)
C16 C 0.6700(4) 0.4964(3) 0.1139(2)
C17 C 0.6088(4) 0.4828(3) 0.0857(2)
H9 H 0.5662 0.4443 0.0999
N3 N 0.6063(4) 0.5217(3) 0.03870(19)
C18 C 0.6678(6) 0.5771(4) 0.0212(3)
C19 C 0.7313(6) 0.5942(4) 0.0467(4)
H11 H 0.7732 0.6333 0.0319
C20 C 0.7334(5) 0.5535(4) 0.0945(3)
H12 H 0.7765 0.5642 0.1134
O10 O 0.4881(4) 0.3331(3) 0.2500
C21 C 0.4782(15) 0.3916(11) 0.2500
H14 H 0.9389 0.6061 0.0108
H18 H 0.3939 0.3328 0.0108
H22 H 0.6672 0.0611 0.0108
O22 O 0.59406(18) 0.20389(17) 0.31488(14)
O23 O 0.53641(19) 0.2637(2) 0.3142(2)
C48 C 0.5486(3) 0.2171(3) 0.3338(2)
C49 C 0.5036(3) 0.1736(3) 0.3861(2)
C50 C 0.5172(3) 0.1260(3) 0.4143(2)
H29 H 0.5557 0.1219 0.4001
N8 N 0.4783(3) 0.0846(2) 0.46130(19)
C51 C 0.4229(4) 0.0907(4) 0.4788(3)
H30 H 0.3939 0.0611 0.5108
C52 C 0.4058(4) 0.1371(4) 0.4533(4)
H31 H 0.3667 0.1399 0.4681
C53 C 0.4465(4) 0.1799(3) 0.4055(3)
H32 H 0.4358 0.2123 0.3866
H34 H 0.3328 0.3939 0.0108
O26 O 0.60983(25) 0.40594(18) 0.31488(14)
O27 O 0.72729(28) 0.46359(19) 0.3142(2)
C60 C 0.6685(4) 0.4514(3) 0.3338(2)
C61 C 0.6700(4) 0.4964(3) 0.3861(2)
C62 C 0.6088(4) 0.4828(3) 0.4143(2)
H37 H 0.5662 0.4443 0.4001
N10 N 0.6063(4) 0.5217(3) 0.46130(19)
C63 C 0.6678(6) 0.5771(4) 0.4788(3)
H38 H 0.6672 0.6061 0.5108
C64 C 0.7313(6) 0.5942(4) 0.4533(4)
H39 H 0.7732 0.6333 0.4681
C65 C 0.7334(5) 0.5535(4) 0.4055(3)
H40 H 0.7765 0.5642 0.3866
O28 O 0.79611(17) 0.39017(25) 0.31488(14)
O29 O 0.7363(2) 0.27271(28) 0.3142(2)
C66 C 0.7829(3) 0.3315(4) 0.3338(2)
C67 C 0.8264(3) 0.3300(4) 0.3861(2)
C68 C 0.8740(3) 0.3912(4) 0.4143(2)
H41 H 0.8781 0.4338 0.4001
N11 N 0.9154(2) 0.3937(4) 0.46130(19)
C69 C 0.9093(4) 0.3322(6) 0.4788(3)
H42 H 0.9389 0.3328 0.5108
C70 C 0.8629(4) 0.2687(6) 0.4533(4)
H43 H 0.8601 0.2268 0.4681
C71 C 0.8201(3) 0.2666(5) 0.4055(3)
H44 H 0.7877 0.2235 0.3866
Cl5_2 Cl 1.0000 0.55939(12) 0.09714(8)
Cl6 Cl 0.44061(12) 0.44061(12) 0.09714(8)
Mn4 Mn 0.5000 0.0000 0.5000
Mn5 Mn 0.5000 0.5000 0.5000
Mn6_2 Mn 1.0000 0.5000 0.5000
N15 N 0.5217(3) 0.6063(4) 0.03870(19)
H49 H 0.920786 0.497699 0.209153
H50 H 0.951402 0.577641 0.25
H51 H 0.920786 0.497699 0.290847
H52 H 0.576913 0.0792143 0.209153
H53 H 0.626239 0.0485983 0.25
H54 H 0.576913 0.0792143 0.290847
H55 H 0.502301 0.423087 0.209153
H56 H 0.422359 0.373761 0.25
H57 H 0.502301 0.423087 0.290847
Mn1_2 Mn 0.5000 0.0000 1.0000
H2 H 0.3939 0.0611 0.9892
Mn2_4 Mn 1.0000 0.5000 1.0000
H6 H 0.9389 0.3328 0.9892
Mn3_2 Mn 0.5000 0.5000 1.0000
H10 H 0.6672 0.6061 0.9892
Cl2_2 Cl 1.0000 0.44061(12) 0.90286(8)
Cr4 Cr 0.75394(6) 0.33483(6) 0.7500
O11 O 0.6667 0.3333 0.7500
O12 O 0.79611(17) 0.40594(18) 0.81488(14)
O13 O 0.7363(2) 0.46359(19) 0.8142(2)
C22 C 0.7829(3) 0.4514(3) 0.8338(2)
C23 C 0.8264(3) 0.4964(3) 0.8861(2)
C24 C 0.8740(3) 0.4828(3) 0.9143(2)
H13 H 0.8781 0.4443 0.9001
N4 N 0.9154(2) 0.5217(3) 0.96130(19)
C25 C 0.9093(4) 0.5771(4) 0.9788(3)
C26 C 0.8629(4) 0.5942(4) 0.9533(4)
H15 H 0.8601 0.6333 0.9681
C27 C 0.8201(3) 0.5535(4) 0.9055(3)
H16 H 0.7877 0.5642 0.8866
O14 O 0.8450(3) 0.3331(3) 0.7500
C28 C 0.9134(10) 0.3916(11) 0.7500
Cl3 Cl 0.55939(12) 0.55939(12) 0.90286(8)
Cr5 Cr 0.66517(6) 0.41911(8) 0.7500
O15 O 0.59406(18) 0.39017(25) 0.81488(14)
O16 O 0.53641(19) 0.27271(28) 0.8142(2)
C29 C 0.5486(3) 0.3315(4) 0.8338(2)
C30 C 0.5036(3) 0.3300(4) 0.8861(2)
C31 C 0.5172(3) 0.3912(4) 0.9143(2)
H17 H 0.5557 0.4338 0.9001
N5 N 0.4783(3) 0.3937(4) 0.96130(19)
C32 C 0.4229(4) 0.3322(6) 0.9788(3)
C33 C 0.4058(4) 0.2687(6) 0.9533(4)
H19 H 0.3667 0.2268 0.9681
C34 C 0.4465(4) 0.2666(5) 0.9055(3)
H20 H 0.4358 0.2235 0.8866
O17 O 0.6669(3) 0.5119(4) 0.7500
C35 C 0.6084(11) 0.5218(15) 0.7500
Cl4 Cl 0.44061(12) 0.0000 0.90286(8)
O18 O 0.60983(25) 0.20389(17) 0.81488(14)
O19 O 0.72729(28) 0.2637(2) 0.8142(2)
C36 C 0.6685(4) 0.2171(3) 0.8338(2)
C37 C 0.6700(4) 0.1736(3) 0.8861(2)
C38 C 0.6088(4) 0.1260(3) 0.9143(2)
H21 H 0.5662 0.1219 0.9001
N6 N 0.6063(4) 0.0846(2) 0.96130(19)
C39 C 0.6678(6) 0.0907(4) 0.9788(3)
C40 C 0.7313(6) 0.1371(4) 0.9533(4)
H23 H 0.7732 0.1399 0.9681
C41 C 0.7334(5) 0.1799(3) 0.9055(3)
H24 H 0.7765 0.2123 0.8866
O24 O 0.39017(25) 0.59406(18) 0.81488(14)
O25 O 0.27271(28) 0.53641(19) 0.8142(2)
C54 C 0.3315(4) 0.5486(3) 0.8338(2)
C55 C 0.3300(4) 0.5036(3) 0.8861(2)
C56 C 0.3912(4) 0.5172(3) 0.9143(2)
H33 H 0.4338 0.5557 0.9001
N9 N 0.3937(4) 0.4783(3) 0.96130(19)
C57 C 0.3322(6) 0.4229(4) 0.9788(3)
C58 C 0.2687(6) 0.4058(4) 0.9533(4)
H35 H 0.2268 0.3667 0.9681
C59 C 0.2666(5) 0.4465(4) 0.9055(3)
H36 H 0.2235 0.4358 0.8866
Cr9 Cr 0.41911(8) 0.66517(6) 0.7500
Cr10 Cr 0.24606(6) 0.58089(8) 0.7500
Cr12 Cr 0.58089(8) 0.24606(6) 0.7500
O35 O 0.59406(18) 0.39017(25) 0.68512(14)
O36 O 0.79611(17) 0.40594(18) 0.68512(14)
O38 O 0.72729(28) 0.2637(2) 0.6858(2)
O39 O 0.7363(2) 0.46359(19) 0.6858(2)
H58 H 0.576913 0.497699 0.790847
H59 H 0.626239 0.577641 0.75
H60 H 0.576913 0.497699 0.709153
H61 H 0.920786 0.423087 0.790847
H62 H 0.951402 0.373761 0.75
H63 H 0.920786 0.423087 0.709153
Mn1_3 Mn 0.5000 1.0000 0.0000
Cl1_2 Cl 0.55939(12) 1.0000 0.09714(8)
H26 H 0.6061 0.9389 0.0108
Cr6 Cr 0.41911(8) 0.75394(6) 0.2500
O30 O 0.39017(25) 0.79611(17) 0.18512(14)
O31 O 0.27271(28) 0.7363(2) 0.1858(2)
C72 C 0.3315(4) 0.7829(3) 0.1662(2)
C73 C 0.3300(4) 0.8264(3) 0.1139(2)
C74 C 0.3912(4) 0.8740(3) 0.0857(2)
H45 H 0.4338 0.8781 0.0999
N12 N 0.3937(4) 0.9154(2) 0.03870(19)
C75 C 0.3322(6) 0.9093(4) 0.0212(3)
C76 C 0.2687(6) 0.8629(4) 0.0467(4)
H47 H 0.2268 0.8601 0.0319
C77 C 0.2666(5) 0.8201(3) 0.0945(3)
H48 H 0.2235 0.7877 0.1134
O32 O 0.5119(4) 0.8450(3) 0.2500
C78 C 0.5218(15) 0.9134(10) 0.2500
Mn4_2 Mn 0.5000 1.0000 0.5000
Cr11 Cr 0.24606(6) 0.66517(6) 0.2500
O33 O 0.3334 0.6667 0.2500
O34 O 0.39017(25) 0.79611(17) 0.31488(14)
O37 O 0.46359(19) 0.72729(28) 0.3142(2)
O40 O 0.46359(19) 0.72729(28) 0.1858(2)
H64 H 0.497699 0.920786 0.290847
H65 H 0.577641 0.951402 0.25
H66 H 0.497699 0.920786 0.209153
Mn1_4 Mn 0.5000 1.0000 1.0000
Cl4_2 Cl 0.44061(12) 1.0000 0.90286(8)
O20 O 0.40594(18) 0.79611(17) 0.81488(14)
O21 O 0.46359(19) 0.7363(2) 0.8142(2)
C42 C 0.4514(3) 0.7829(3) 0.8338(2)
C43 C 0.4964(3) 0.8264(3) 0.8861(2)
C44 C 0.4828(3) 0.8740(3) 0.9143(2)
H25 H 0.4443 0.8781 0.9001
N7 N 0.5217(3) 0.9154(2) 0.96130(19)
C45 C 0.5771(4) 0.9093(4) 0.9788(3)
C46 C 0.5942(4) 0.8629(4) 0.9533(4)
H27 H 0.6333 0.8601 0.9681
C47 C 0.5535(4) 0.8201(3) 0.9055(3)
H28 H 0.5642 0.7877 0.8866
H46 H 0.3328 0.9389 0.9892
Cr7 Cr 0.33483(6) 0.75394(6) 0.7500
Cl1_3 Cl 0.44061(12) 0.0000 0.59714(8)
Cl4_3 Cl 0.55939(12) -0.0000 0.40286(8)
O30_2 O 0.60983(25) 0.20389(17) 0.68512(14)
C72_2 C 0.6685(4) 0.2171(3) 0.6662(2)
C73_2 C 0.6700(4) 0.1736(3) 0.6139(2)
C74_2 C 0.6088(4) 0.1260(3) 0.5857(2)
H45_2 H 0.5662 0.1219 0.5999
N12_2 N 0.6063(4) 0.0846(2) 0.53870(19)
C75_2 C 0.6678(6) 0.0907(4) 0.5212(3)
H46_2 H 0.6672 0.0611 0.4892
C76_2 C 0.7313(6) 0.1371(4) 0.5467(4)
H47_2 H 0.7732 0.1399 0.5319
C77_2 C 0.7334(5) 0.1799(3) 0.5945(3)
H48_2 H 0.7765 0.2123 0.6134
O32_2 O 0.4881(4) 0.1550(3) 0.7500
C78_2 C 0.4782(15) 0.0866(10) 0.7500
O40_2 O 0.53641(19) 0.27271(28) 0.6858(2)
H64_2 H 0.502301 0.0792143 0.790847
H65_2 H 0.422359 0.0485983 0.75
H66_2 H 0.502301 0.0792143 0.709153
H42_2 H 0.0611 0.6672 0.0108
Cl1_4 Cl 0.44061(12) 1.0000 0.59714(8)
O1_2 O 0.3333 0.6667 0.7500
O2_2 O 0.40594(18) 0.79611(17) 0.68512(14)
O3_2 O 0.46359(19) 0.7363(2) 0.6858(2)
C1_2 C 0.4514(3) 0.7829(3) 0.6662(2)
C2_2 C 0.4964(3) 0.8264(3) 0.6139(2)
C3_2 C 0.4828(3) 0.8740(3) 0.5857(2)
H1_2 H 0.4443 0.8781 0.5999
N1_2 N 0.5217(3) 0.9154(2) 0.53870(19)
C4_2 C 0.5771(4) 0.9093(4) 0.5212(3)
H2_2 H 0.6061 0.9389 0.4892
C5_2 C 0.5942(4) 0.8629(4) 0.5467(4)
H3_2 H 0.6333 0.8601 0.5319
C6_2 C 0.5535(4) 0.8201(3) 0.5945(3)
H4_2 H 0.5642 0.7877 0.6134
O4_2 O 0.3331(3) 0.8450(3) 0.7500
C7_2 C 0.3916(11) 0.9134(10) 0.7500
O5_2 O 0.20389(17) 0.60983(25) 0.68512(14)
O6_2 O 0.2637(2) 0.72729(28) 0.6858(2)
C8_2 C 0.2171(3) 0.6685(4) 0.6662(2)
C9_2 C 0.1736(3) 0.6700(4) 0.6139(2)
C10_2 C 0.1260(3) 0.6088(4) 0.5857(2)
H5_2 H 0.1219 0.5662 0.5999
N2_2 N 0.0846(2) 0.6063(4) 0.53870(19)
C11_2 C 0.0907(4) 0.6678(6) 0.5212(3)
H6_2 H 0.0611 0.6672 0.4892
C12_2 C 0.1371(4) 0.7313(6) 0.5467(4)
H7_2 H 0.1399 0.7732 0.5319
C13_2 C 0.1799(3) 0.7334(5) 0.5945(3)
H8_2 H 0.2123 0.7765 0.6134
O7_2 O 0.1550(3) 0.4881(4) 0.7500
C14_2 C 0.0866(10) 0.4782(15) 0.7500
O8_2 O 0.39017(25) 0.59406(18) 0.68512(14)
O9_2 O 0.27271(28) 0.53641(19) 0.6858(2)
C15_2 C 0.3315(4) 0.5486(3) 0.6662(2)
C16_2 C 0.3300(4) 0.5036(3) 0.6139(2)
C17_2 C 0.3912(4) 0.5172(3) 0.5857(2)
H9_2 H 0.4338 0.5557 0.5999
N3_2 N 0.3937(4) 0.4783(3) 0.53870(19)
C18_2 C 0.3322(6) 0.4229(4) 0.5212(3)
H10_2 H 0.3328 0.3939 0.4892
C19_2 C 0.2687(6) 0.4058(4) 0.5467(4)
H11_2 H 0.2268 0.3667 0.5319
C20_2 C 0.2666(5) 0.4465(4) 0.5945(3)
H12_2 H 0.2235 0.4358 0.6134
O10_2 O 0.5119(4) 0.6669(3) 0.7500
C21_2 C 0.5218(15) 0.6084(11) 0.7500
Cl2_3 Cl 0.0000 0.55939(12) 0.40286(8)
O12_2 O 0.20389(17) 0.59406(18) 0.31488(14)
O13_2 O 0.2637(2) 0.53641(19) 0.3142(2)
C22_2 C 0.2171(3) 0.5486(3) 0.3338(2)
C23_2 C 0.1736(3) 0.5036(3) 0.3861(2)
C24_2 C 0.1260(3) 0.5172(3) 0.4143(2)
H13_2 H 0.1219 0.5557 0.4001
N4_2 N 0.0846(2) 0.4783(3) 0.46130(19)
C25_2 C 0.0907(4) 0.4229(4) 0.4788(3)
H14_2 H 0.0611 0.3939 0.5108
C26_2 C 0.1371(4) 0.4058(4) 0.4533(4)
H15_2 H 0.1399 0.3667 0.4681
C27_2 C 0.1799(3) 0.4465(4) 0.4055(3)
H16_2 H 0.2123 0.4358 0.3866
O14_2 O 0.1550(3) 0.6669(3) 0.2500
C28_2 C 0.0866(10) 0.6084(11) 0.2500
Cl3_2 Cl 0.44061(12) 0.44061(12) 0.40286(8)
Cr5_2 Cr 0.33483(6) 0.58089(8) 0.2500
O15_2 O 0.40594(18) 0.60983(25) 0.31488(14)
C29_2 C 0.4514(3) 0.6685(4) 0.3338(2)
C30_2 C 0.4964(3) 0.6700(4) 0.3861(2)
C31_2 C 0.4828(3) 0.6088(4) 0.4143(2)
H17_2 H 0.4443 0.5662 0.4001
N5_2 N 0.5217(3) 0.6063(4) 0.46130(19)
C32_2 C 0.5771(4) 0.6678(6) 0.4788(3)
H18_2 H 0.6061 0.6672 0.5108
C33_2 C 0.5942(4) 0.7313(6) 0.4533(4)
H19_2 H 0.6333 0.7732 0.4681
C34_2 C 0.5535(4) 0.7334(5) 0.4055(3)
H20_2 H 0.5642 0.7765 0.3866
O17_2 O 0.3331(3) 0.4881(4) 0.2500
C35_2 C 0.3916(11) 0.4782(15) 0.2500
Cl4_4 Cl 0.55939(12) 1.0000 0.40286(8)
O19_2 O 0.27271(28) 0.7363(2) 0.3142(2)
C36_2 C 0.3315(4) 0.7829(3) 0.3338(2)
C37_2 C 0.3300(4) 0.8264(3) 0.3861(2)
C38_2 C 0.3912(4) 0.8740(3) 0.4143(2)
H21_2 H 0.4338 0.8781 0.4001
N6_2 N 0.3937(4) 0.9154(2) 0.46130(19)
C39_2 C 0.3322(6) 0.9093(4) 0.4788(3)
H22_2 H 0.3328 0.9389 0.5108
C40_2 C 0.2687(6) 0.8629(4) 0.4533(4)
H23_2 H 0.2268 0.8601 0.4681
C41_2 C 0.2666(5) 0.8201(3) 0.4055(3)
H24_2 H 0.2235 0.7877 0.3866
O28_2 O 0.20389(17) 0.60983(25) 0.81488(14)
O29_2 O 0.2637(2) 0.72729(28) 0.8142(2)
C66_2 C 0.2171(3) 0.6685(4) 0.8338(2)
C67_2 C 0.1736(3) 0.6700(4) 0.8861(2)
C68_2 C 0.1260(3) 0.6088(4) 0.9143(2)
H41_2 H 0.1219 0.5662 0.9001
C69_2 C 0.0907(4) 0.6678(6) 0.9788(3)
C70_2 C 0.1371(4) 0.7313(6) 0.9533(4)
H43_2 H 0.1399 0.7732 0.9681
C71_2 C 0.1799(3) 0.7334(5) 0.9055(3)
H44_2 H 0.2123 0.7765 0.8866
Cl5_3 Cl 0.0000 0.44061(12) 0.59714(8)
Cl6_2 Cl 0.55939(12) 0.55939(12) 0.59714(8)
O35_2 O 0.40594(18) 0.60983(25) 0.18512(14)
O36_2 O 0.20389(17) 0.59406(18) 0.18512(14)
O39_2 O 0.2637(2) 0.53641(19) 0.1858(2)
N15_2 N 0.4783(3) 0.3937(4) 0.53870(19)
H49_2 H 0.0792143 0.502301 0.709153
H50_2 H 0.0485983 0.422359 0.75
H51_2 H 0.0792143 0.502301 0.790847
H52_2 H 0.423087 0.920786 0.709153
H53_2 H 0.373761 0.951402 0.75
H54_2 H 0.423087 0.920786 0.790847
H55_2 H 0.497699 0.576913 0.709153
H56_2 H 0.577641 0.626239 0.75
H57_2 H 0.497699 0.576913 0.790847
H58_2 H 0.423087 0.502301 0.290847
H59_2 H 0.373761 0.422359 0.25
H60_2 H 0.423087 0.502301 0.209153
H61_2 H 0.0792143 0.576913 0.290847
H62_2 H 0.0485983 0.626239 0.25
H63_2 H 0.0792143 0.576913 0.209153
Cl2_4 Cl 1.0000 0.55939(12) 0.40286(8)
Cl5_4 Cl 1.0000 0.44061(12) 0.59714(8)
N14_2 N 0.9154(2) 0.5217(3) 0.53870(19)
C72_3 C 0.2171(3) 0.5486(5) 0.1662(2)
C73_3 C 0.1736(3) 0.5036(5) 0.1139(2)
C74_3 C 0.1260(3) 0.5172(5) 0.0857(2)
H45_3 H 0.1219 0.5557 0.0999
C75_3 C 0.0907(4) 0.4229(7) 0.0212(3)
C76_3 C 0.1371(4) 0.4058(7) 0.0467(4)
H47_3 H 0.1399 0.3667 0.0319
C77_3 C 0.1799(3) 0.4465(6) 0.0945(3)
H48_3 H 0.2123 0.4358 0.1134
H46_3 H 0.0611 0.3939 0.9892
C72_4 C 0.4514(5) 0.6685(4) 0.1662(2)
C73_4 C 0.4964(5) 0.6700(4) 0.1139(2)
C74_4 C 0.4828(5) 0.6088(4) 0.0857(2)
H45_4 H 0.4443 0.5662 0.0999
C75_4 C 0.5771(7) 0.6678(6) 0.0212(3)
C76_4 C 0.5942(7) 0.7313(6) 0.0467(4)
H47_4 H 0.6333 0.7732 0.0319
C77_4 C 0.5535(6) 0.7334(5) 0.0945(3)
H48_4 H 0.5642 0.7765 0.1134
H46_4 H 0.6061 0.6672 0.9892
C72_5 C 0.5486(5) 0.3315(4) 0.6662(2)
C73_5 C 0.5036(5) 0.3300(4) 0.6139(2)
C74_5 C 0.5172(5) 0.3912(4) 0.5857(2)
H45_5 H 0.5557 0.4338 0.5999
C75_5 C 0.4229(7) 0.3322(6) 0.5212(3)
H46_5 H 0.3939 0.3328 0.4892
C76_5 C 0.4058(7) 0.2687(6) 0.5467(4)
H47_5 H 0.3667 0.2268 0.5319
C77_5 C 0.4465(6) 0.2666(5) 0.5945(3)
H48_5 H 0.4358 0.2235 0.6134
C72_6 C 0.7829(3) 0.4514(5) 0.6662(2)
C73_6 C 0.8264(3) 0.4964(5) 0.6139(2)
C74_6 C 0.8740(3) 0.4828(5) 0.5857(2)
H45_6 H 0.8781 0.4443 0.5999
C75_6 C 0.9093(4) 0.5771(7) 0.5212(3)
H46_6 H 0.9389 0.6061 0.4892
C76_6 C 0.8629(4) 0.5942(7) 0.5467(4)
H47_6 H 0.8601 0.6333 0.5319
C77_6 C 0.8201(3) 0.5535(6) 0.5945(3)
H48_6 H 0.7877 0.5642 0.6134
loop_
_geom_bond_atom_site_label_1
_geom_bond_atom_site_label_2
_geom_bond_site_symmetry_1
_geom_bond_site_symmetry_2
Cl5 Mn2 1_555 1_555
N14 Mn2 1_555 1_555
Cl2 Mn2_2 1_555 1_555
N13 Mn2_2 1_555 1_555
Mn1 Cl1 1_555 1_555
Cr1 O1 1_555 1_555
O1 Cr2 1_555 1_555
O2 Cr1 1_555 1_555
O3 C1 1_555 1_555
C1 O2 1_555 1_555
C2 C1 1_555 1_555
C3 C2 1_555 1_555
H1 C3 1_555 1_555
N1 Mn1 1_555 1_555
C4 N1 1_555 1_555
C5 C4 1_555 1_555
H3 C5 1_555 1_555
C6 C2 1_555 1_555
H4 C6 1_555 1_555
O4 Cr1 1_555 1_555
C7 O4 1_555 1_555
Mn2_3 N2 1_555 1_555
Cr2 O5 1_555 1_555
O5 C8 1_555 1_555
O6 Cr1 1_555 1_555
C8 O6 1_555 1_555
C9 C8 1_555 1_555
C10 C9 1_555 1_555
H5 C10 1_555 1_555
N2 C10 1_555 1_555
C11 N2 1_555 1_555
C12 C11 1_555 1_555
H7 C12 1_555 1_555
C13 C9 1_555 1_555
H8 C13 1_555 1_555
O7 Cr2 1_555 1_555
C14 O7 1_555 1_555
Mn3 N3 1_555 1_555
Cr3 O1 1_555 1_555
O8 Cr3 1_555 1_555
O9 Cr2 1_555 1_555
C15 O8 1_555 1_555
C16 C15 1_555 1_555
C17 C16 1_555 1_555
H9 C17 1_555 1_555
N3 C17 1_555 1_555
C18 N3 1_555 1_555
C19 C18 1_555 1_555
H11 C19 1_555 1_555
C20 C16 1_555 1_555
H12 C20 1_555 1_555
O10 Cr3 1_555 1_555
C21 O10 1_555 1_555
O22 Cr1 1_555 1_555
O23 Cr3 1_555 1_555
C48 O22 1_555 1_555
C49 C48 1_555 1_555
C50 C49 1_555 1_555
H29 C50 1_555 1_555
N8 C50 1_555 1_555
C51 N8 1_555 1_555
H30 C51 1_555 1_555
C52 C51 1_555 1_555
H31 C52 1_555 1_555
C53 C49 1_555 1_555
H32 C53 1_555 1_555
O26 Cr3 1_555 1_555
O27 Cr2 1_555 1_555
C60 O26 1_555 1_555
C61 C60 1_555 1_555
C62 C61 1_555 1_555
H37 C62 1_555 1_555
N10 C62 1_555 1_555
C63 N10 1_555 1_555
H38 C63 1_555 1_555
C64 C63 1_555 1_555
H39 C64 1_555 1_555
C65 C61 1_555 1_555
H40 C65 1_555 1_555
O28 Cr2 1_555 1_555
O29 Cr1 1_555 1_555
C66 O28 1_555 1_555
C67 C66 1_555 1_555
C68 C67 1_555 1_555
H41 C68 1_555 1_555
N11 C68 1_555 1_555
C69 N11 1_555 1_555
H42 C69 1_555 1_555
C70 C69 1_555 1_555
H43 C70 1_555 1_555
C71 C67 1_555 1_555
H44 C71 1_555 1_555
Cl5_2 Mn2_3 1_555 1_555
Cl6 Mn3 1_555 1_555
Mn4 N8 1_555 1_555
Mn5 N10 1_555 1_555
Mn6_2 N11 1_555 1_555
N15 Mn3 1_555 1_555
O3 Cr3 1_555 1_555
C3 N1 1_555 1_555
C5 C6 1_555 1_555
C12 C13 1_555 1_555
O9 C15 1_555 1_555
C19 C20 1_555 1_555
O23 C48 1_555 1_555
C52 C53 1_555 1_555
O27 C60 1_555 1_555
C64 C65 1_555 1_555
O29 C66 1_555 1_555
C70 C71 1_555 1_555
C14 H49 1_555 1_555
C14 H50 1_555 1_555
C14 H51 1_555 1_555
C7 H52 1_555 1_555
C7 H53 1_555 1_555
C7 H54 1_555 1_555
C21 H55 1_555 1_555
C21 H56 1_555 1_555
C21 H57 1_555 1_555
Cl2_2 Mn2_4 1_555 1_555
Cr4 O11 1_555 1_555
O11 Cr5 1_555 1_555
O12 Cr4 1_555 1_555
O13 C22 1_555 1_555
C22 O12 1_555 1_555
C23 C22 1_555 1_555
C24 C23 1_555 1_555
H13 C24 1_555 1_555
N4 Mn2_4 1_555 1_555
C25 N4 1_555 1_555
C26 C25 1_555 1_555
H15 C26 1_555 1_555
C27 C23 1_555 1_555
H16 C27 1_555 1_555
O14 Cr4 1_555 1_555
C28 O14 1_555 1_555
Cl3 Mn3_2 1_555 1_555
Cr5 O13 1_555 1_555
O15 Cr5 1_555 1_555
O16 C29 1_555 1_555
C29 O15 1_555 1_555
C30 C29 1_555 1_555
C31 C30 1_555 1_555
H17 C31 1_555 1_555
N5 Mn3_2 1_555 1_555
C32 N5 1_555 1_555
C33 C32 1_555 1_555
H19 C33 1_555 1_555
C34 C30 1_555 1_555
H20 C34 1_555 1_555
O17 Cr5 1_555 1_555
C35 O17 1_555 1_555
Cl4 Mn1_2 1_555 1_555
O18 C36 1_555 1_555
O19 Cr4 1_555 1_555
C36 O19 1_555 1_555
C37 C36 1_555 1_555
C38 C37 1_555 1_555
H21 C38 1_555 1_555
N6 Mn1_2 1_555 1_555
C39 N6 1_555 1_555
C40 C39 1_555 1_555
H23 C40 1_555 1_555
C41 C37 1_555 1_555
H24 C41 1_555 1_555
O24 C54 1_555 1_555
O25 C54 1_555 1_555
C54 C55 1_555 1_555
C55 C56 1_555 1_555
C56 H33 1_555 1_555
N9 Mn3_2 1_555 1_555
C57 N9 1_555 1_555
C58 C57 1_555 1_555
H35 C58 1_555 1_555
C59 C55 1_555 1_555
H36 C59 1_555 1_555
Cr9 O24 1_555 1_555
Cr10 O25 1_555 1_555
Cr12 O11 1_555 1_555
O35 Cr5 1_555 1_555
O36 Cr4 1_555 1_555
O38 Cr4 1_555 1_555
O39 Cr5 1_555 1_555
C24 N4 1_555 1_555
C26 C27 1_555 1_555
O16 Cr12 1_555 1_555
C31 N5 1_555 1_555
C33 C34 1_555 1_555
O18 Cr12 1_555 1_555
C38 N6 1_555 1_555
C40 C41 1_555 1_555
C56 N9 1_555 1_555
C58 C59 1_555 1_555
C35 H58 1_555 1_555
C35 H59 1_555 1_555
C35 H60 1_555 1_555
C28 H61 1_555 1_555
C28 H62 1_555 1_555
C28 H63 1_555 1_555
Mn1_3 Cl1_2 1_555 1_555
Cr6 O30 1_555 1_555
O30 C72 1_555 1_555
O31 C72 1_555 1_555
C72 C73 1_555 1_555
C73 C74 1_555 1_555
C74 H45 1_555 1_555
N12 Mn1_3 1_555 1_555
C75 N12 1_555 1_555
C76 C75 1_555 1_555
H47 C76 1_555 1_555
C77 C73 1_555 1_555
H48 C77 1_555 1_555
O32 Cr6 1_555 1_555
C78 O32 1_555 1_555
Cr11 O31 1_555 1_555
O33 Cr6 1_555 1_555
O34 Cr6 1_555 1_555
O37 Cr6 1_555 1_555
O40 Cr6 1_555 1_555
C74 N12 1_555 1_555
C76 C77 1_555 1_555
Cr11 O33 1_555 1_555
C78 H64 1_555 1_555
C78 H65 1_555 1_555
C78 H66 1_555 1_555
Cl4_2 Mn1_4 1_555 1_555
O20 C42 1_555 1_555
O21 C42 1_555 1_555
C42 C43 1_555 1_555
C43 C44 1_555 1_555
C44 H25 1_555 1_555
N7 Mn1_4 1_555 1_555
C45 N7 1_555 1_555
C46 C45 1_555 1_555
H27 C46 1_555 1_555
C47 C43 1_555 1_555
H28 C47 1_555 1_555
Cr7 O20 1_555 1_555
Cr9 O21 1_555 1_555
C44 N7 1_555 1_555
C46 C47 1_555 1_555
Mn4 Cl1_3 1_555 1_555
Cl4_3 Mn4 1_555 1_555
Cr12 O30_2 1_555 1_555
O30_2 C72_2 1_555 1_555
O38 C72_2 1_555 1_555
C72_2 C73_2 1_555 1_555
C73_2 C74_2 1_555 1_555
C74_2 H45_2 1_555 1_555
N12_2 Mn4 1_555 1_555
C75_2 N12_2 1_555 1_555
H46_2 C75_2 1_555 1_555
C76_2 C75_2 1_555 1_555
H47_2 C76_2 1_555 1_555
C77_2 C73_2 1_555 1_555
H48_2 C77_2 1_555 1_555
O32_2 Cr12 1_555 1_555
C78_2 O32_2 1_555 1_555
O40_2 Cr12 1_555 1_555
C74_2 N12_2 1_555 1_555
C76_2 C77_2 1_555 1_555
C78_2 H64_2 1_555 1_555
C78_2 H65_2 1_555 1_555
C78_2 H66_2 1_555 1_555
Mn4_2 Cl1_4 1_555 1_555
Cr7 O1_2 1_555 1_555
O1_2 Cr10 1_555 1_555
O2_2 Cr7 1_555 1_555
O3_2 C1_2 1_555 1_555
C1_2 O2_2 1_555 1_555
C2_2 C1_2 1_555 1_555
C3_2 C2_2 1_555 1_555
H1_2 C3_2 1_555 1_555
N1_2 Mn4_2 1_555 1_555
C4_2 N1_2 1_555 1_555
H2_2 C4_2 1_555 1_555
C5_2 C4_2 1_555 1_555
H3_2 C5_2 1_555 1_555
C6_2 C2_2 1_555 1_555
H4_2 C6_2 1_555 1_555
O4_2 Cr7 1_555 1_555
C7_2 O4_2 1_555 1_555
Mn6 N2_2 1_555 1_555
Cr10 O5_2 1_555 1_555
O5_2 C8_2 1_555 1_555
O6_2 Cr7 1_555 1_555
C8_2 O6_2 1_555 1_555
C9_2 C8_2 1_555 1_555
C10_2 C9_2 1_555 1_555
H5_2 C10_2 1_555 1_555
N2_2 C10_2 1_555 1_555
C11_2 N2_2 1_555 1_555
H6_2 C11_2 1_555 1_555
C12_2 C11_2 1_555 1_555
H7_2 C12_2 1_555 1_555
C13_2 C9_2 1_555 1_555
H8_2 C13_2 1_555 1_555
O7_2 Cr10 1_555 1_555
C14_2 O7_2 1_555 1_555
Mn5 N3_2 1_555 1_555
Cr9 O1_2 1_555 1_555
O8_2 Cr9 1_555 1_555
O9_2 Cr10 1_555 1_555
C15_2 O8_2 1_555 1_555
C16_2 C15_2 1_555 1_555
C17_2 C16_2 1_555 1_555
H9_2 C17_2 1_555 1_555
N3_2 C17_2 1_555 1_555
C18_2 N3_2 1_555 1_555
H10_2 C18_2 1_555 1_555
C19_2 C18_2 1_555 1_555
H11_2 C19_2 1_555 1_555
C20_2 C16_2 1_555 1_555
H12_2 C20_2 1_555 1_555
O10_2 Cr9 1_555 1_555
C21_2 O10_2 1_555 1_555
Cl2_3 Mn6 1_555 1_555
O33 Cr5_2 1_555 1_555
O12_2 Cr11 1_555 1_555
O13_2 C22_2 1_555 1_555
C22_2 O12_2 1_555 1_555
C23_2 C22_2 1_555 1_555
C24_2 C23_2 1_555 1_555
H13_2 C24_2 1_555 1_555
N4_2 Mn6 1_555 1_555
C25_2 N4_2 1_555 1_555
H14_2 C25_2 1_555 1_555
C26_2 C25_2 1_555 1_555
H15_2 C26_2 1_555 1_555
C27_2 C23_2 1_555 1_555
H16_2 C27_2 1_555 1_555
O14_2 Cr11 1_555 1_555
C28_2 O14_2 1_555 1_555
Cl3_2 Mn5 1_555 1_555
Cr5_2 O13_2 1_555 1_555
O15_2 Cr5_2 1_555 1_555
O37 C29_2 1_555 1_555
C29_2 O15_2 1_555 1_555
C30_2 C29_2 1_555 1_555
C31_2 C30_2 1_555 1_555
H17_2 C31_2 1_555 1_555
N5_2 Mn5 1_555 1_555
C32_2 N5_2 1_555 1_555
H18_2 C32_2 1_555 1_555
C33_2 C32_2 1_555 1_555
H19_2 C33_2 1_555 1_555
C34_2 C30_2 1_555 1_555
H20_2 C34_2 1_555 1_555
O17_2 Cr5_2 1_555 1_555
C35_2 O17_2 1_555 1_555
Cl4_4 Mn4_2 1_555 1_555
O34 C36_2 1_555 1_555
O19_2 Cr11 1_555 1_555
C36_2 O19_2 1_555 1_555
C37_2 C36_2 1_555 1_555
C38_2 C37_2 1_555 1_555
H21_2 C38_2 1_555 1_555
N6_2 Mn4_2 1_555 1_555
C39_2 N6_2 1_555 1_555
H22_2 C39_2 1_555 1_555
C40_2 C39_2 1_555 1_555
H23_2 C40_2 1_555 1_555
C41_2 C37_2 1_555 1_555
H24_2 C41_2 1_555 1_555
O28_2 Cr10 1_555 1_555
O29_2 Cr7 1_555 1_555
C66_2 O28_2 1_555 1_555
C67_2 C66_2 1_555 1_555
C68_2 C67_2 1_555 1_555
H41_2 C68_2 1_555 1_555
N13 C68_2 1_555 1_555
C69_2 N13 1_555 1_555
C70_2 C69_2 1_555 1_555
H43_2 C70_2 1_555 1_555
C71_2 C67_2 1_555 1_555
H44_2 C71_2 1_555 1_555
Cl5_3 Mn6 1_555 1_555
Cl6_2 Mn5 1_555 1_555
O35_2 Cr5_2 1_555 1_555
O36_2 Cr11 1_555 1_555
O39_2 Cr5_2 1_555 1_555
N15_2 Mn5 1_555 1_555
O3_2 Cr9 1_555 1_555
C3_2 N1_2 1_555 1_555
C5_2 C6_2 1_555 1_555
C12_2 C13_2 1_555 1_555
O9_2 C15_2 1_555 1_555
C19_2 C20_2 1_555 1_555
C24_2 N4_2 1_555 1_555
C26_2 C27_2 1_555 1_555
C31_2 N5_2 1_555 1_555
C33_2 C34_2 1_555 1_555
C38_2 N6_2 1_555 1_555
C40_2 C41_2 1_555 1_555
O29_2 C66_2 1_555 1_555
C70_2 C71_2 1_555 1_555
C14_2 H49_2 1_555 1_555
C14_2 H50_2 1_555 1_555
C14_2 H51_2 1_555 1_555
C7_2 H52_2 1_555 1_555
C7_2 H53_2 1_555 1_555
C7_2 H54_2 1_555 1_555
C21_2 H55_2 1_555 1_555
C21_2 H56_2 1_555 1_555
C21_2 H57_2 1_555 1_555
C35_2 H58_2 1_555 1_555
C35_2 H59_2 1_555 1_555
C35_2 H60_2 1_555 1_555
C28_2 H61_2 1_555 1_555
C28_2 H62_2 1_555 1_555
C28_2 H63_2 1_555 1_555
Cl2_4 Mn6_2 1_555 1_555
Cl5_4 Mn6_2 1_555 1_555
N14_2 Mn6_2 1_555 1_555
O36_2 C72_3 1_555 1_555
O39_2 C72_3 1_555 1_555
C72_3 C73_3 1_555 1_555
C73_3 C74_3 1_555 1_555
C74_3 H45_3 1_555 1_555
C75_3 N14 1_555 1_555
C76_3 C75_3 1_555 1_555
H47_3 C76_3 1_555 1_555
C77_3 C73_3 1_555 1_555
H48_3 C77_3 1_555 1_555
C74_3 N14 1_555 1_555
C76_3 C77_3 1_555 1_555
O35_2 C72_4 1_555 1_555
O40 C72_4 1_555 1_555
C72_4 C73_4 1_555 1_555
C73_4 C74_4 1_555 1_555
C74_4 H45_4 1_555 1_555
C75_4 N15 1_555 1_555
C76_4 C75_4 1_555 1_555
H47_4 C76_4 1_555 1_555
C77_4 C73_4 1_555 1_555
H48_4 C77_4 1_555 1_555
C74_4 N15 1_555 1_555
C76_4 C77_4 1_555 1_555
O35 C72_5 1_555 1_555
O40_2 C72_5 1_555 1_555
C72_5 C73_5 1_555 1_555
C73_5 C74_5 1_555 1_555
C74_5 H45_5 1_555 1_555
C75_5 N15_2 1_555 1_555
H46_5 C75_5 1_555 1_555
C76_5 C75_5 1_555 1_555
H47_5 C76_5 1_555 1_555
C77_5 C73_5 1_555 1_555
H48_5 C77_5 1_555 1_555
C74_5 N15_2 1_555 1_555
C76_5 C77_5 1_555 1_555
O36 C72_6 1_555 1_555
O39 C72_6 1_555 1_555
C72_6 C73_6 1_555 1_555
C73_6 C74_6 1_555 1_555
C74_6 H45_6 1_555 1_555
C75_6 N14_2 1_555 1_555
H46_6 C75_6 1_555 1_555
C76_6 C75_6 1_555 1_555
H47_6 C76_6 1_555 1_555
C77_6 C73_6 1_555 1_555
H48_6 C77_6 1_555 1_555
C74_6 N14_2 1_555 1_555
C76_6 C77_6 1_555 1_555

#END
