
###############################################################################
#
# This file contains modified crystal structure data generated from the
# MOF subset of the Cambridge Structural Database (CSD) v543 
# hosted by the Cambridge Crystallographic Data Centre (CCDC).
#
# This work is licensed under the Creative Commons
# Attribution-NonCommercial-ShareAlike 4.0 International License.
# To view a copy of this license, visit
# http://creativecommons.org/licenses/by-nc-sa/4.0/
# or send a letter to
# Creative Commons, PO Box 1866, Mountain View, CA 94042, USA.
#
# CIF created using the CSD Python API on 29 September 2022
# The structure has been converted into the P1 space group
# The structure has a 3D framework
# The original CSD entry OYERER is in the hexagonal crystal system
# The framework has been calculated to contain at least 10.0% void space
# The void calculation uses a probe of radius 1.32A, grid spacing 0.4
# The framework is charged, counterions have been retained in the structure
# H atom positions have been added when not included in the experimental data
# Generated hydrogen atom positions removed from atoms on special positions
#
###############################################################################

data_OYERER
_chemical_formula_moiety         '(C72 H192 Cr6 Cu15 N12 O56 31+)n'
_symmetry_cell_setting           triclinic
_symmetry_space_group_name_H-M   'P 1'
_symmetry_Int_Tables_number      1
_space_group_name_Hall           'P 1'
loop_
_symmetry_equiv_pos_site_id
_symmetry_equiv_pos_as_xyz
1 x,y,z
_cell_length_a                   20.772(9)
_cell_length_b                   20.772(9)
_cell_length_c                   21.0530(10)
_cell_angle_alpha                90
_cell_angle_beta                 90
_cell_angle_gamma                120
_cell_volume                     7866.86
loop_
_atom_site_label
_atom_site_type_symbol
_atom_site_fract_x
_atom_site_fract_y
_atom_site_fract_z
Cu3 Cu 0.0000 0.5000 0.5000
O13 O 0.0411(10) 0.5271(7) 0.4043(6)
O16 O 0.0813(10) 0.4515(7) 0.5174(6)
O22 O 0.2622(6) 0.7318(5) 0.6819(3)
O23 O 0.1968(7) 0.6077(5) 0.6836(3)
C25 C 0.2135(8) 0.6688(6) 0.6616(5)
C26 C 0.1716(11) 0.6731(8) 0.6061(5)
C27 C 0.1186(10) 0.6058(7) 0.5781(6)
H17 H 0.1112 0.5608 0.5964
N5 N 0.0777(11) 0.6012(8) 0.5271(6)
C28 C 0.0917(16) 0.6665(12) 0.5007(8)
H18 H 0.0617 0.6642 0.4658
C29 C 0.1466(17) 0.7365(12) 0.5205(10)
H19 H 0.1574 0.7802 0.4977
C30 C 0.1852(12) 0.7394(8) 0.5759(8)
H20 H 0.2206 0.7861 0.5932
Cr5 Cr 0.24024(12) 0.57646(12) 0.7500
Cr6 Cr 0.33622(17) 0.75976(12) 0.7500
Cr1 Cr 0.75976(12) 0.42354(12) 0.2500
O1 O 0.6667 0.3333 0.2500
Cu1 Cu 0.5000 0.5000 0.5000
O2 O 0.8609(6) 0.5209(6) 0.2500
O3 O 0.4729(7) 0.5140(7) 0.4043(6)
O4 O 0.7318(5) 0.4696(4) 0.3181(3)
O5 O 0.6077(5) 0.4109(5) 0.3164(3)
C1 C 0.6688(6) 0.4553(6) 0.3384(5)
C2 C 0.6731(8) 0.5015(7) 0.3939(5)
C3 C 0.6058(7) 0.4872(7) 0.4219(6)
H1 H 0.5608 0.4496 0.4036
N1 N 0.6012(8) 0.5235(8) 0.4729(6)
C4 C 0.6665(12) 0.5748(11) 0.4993(8)
H2 H 0.6642 0.6025 0.5342
C5 C 0.7365(12) 0.5899(12) 0.4795(10)
H3 H 0.7802 0.6228 0.5023
C6 C 0.7394(8) 0.5542(9) 0.4241(8)
H4 H 0.7861 0.5655 0.4068
O6 O 0.5485(7) 0.6298(7) 0.5174(6)
Cr2 Cr 0.57646(12) 0.33622(17) 0.2500
Cu2 Cu 0.5000 0.0000 0.5000
O7 O 0.4791(6) 0.3400(8) 0.2500
O9 O 0.5304(4) 0.2622(6) 0.3181(3)
O10 O 0.5891(5) 0.1968(7) 0.3164(3)
C7 C 0.5447(6) 0.2135(8) 0.3384(5)
C8 C 0.4985(7) 0.1716(11) 0.3939(5)
C9 C 0.5128(7) 0.1186(10) 0.4219(6)
H5 H 0.5504 0.1112 0.4036
N2 N 0.4765(8) 0.0777(11) 0.4729(6)
C10 C 0.4252(11) 0.0917(16) 0.4993(8)
H6 H 0.3975 0.0617 0.5342
C11 C 0.4101(12) 0.1466(17) 0.4795(10)
H7 H 0.3772 0.1574 0.5023
C12 C 0.4458(9) 0.1852(12) 0.4241(8)
H8 H 0.4345 0.2206 0.4068
Cr3 Cr 0.66378(17) 0.24024(12) 0.2500
Cu3_2 Cu 1.0000 0.5000 0.5000
O12 O 0.6600(8) 0.1391(6) 0.2500
O14 O 0.7378(6) 0.2682(5) 0.3181(3)
O15 O 0.8032(7) 0.3923(5) 0.3164(3)
C13 C 0.7865(8) 0.3312(6) 0.3384(5)
C14 C 0.8284(11) 0.3269(8) 0.3939(5)
C15 C 0.8814(10) 0.3942(7) 0.4219(6)
H9 H 0.8888 0.4392 0.4036
N3 N 0.9223(11) 0.3988(8) 0.4729(6)
C16 C 0.9083(16) 0.3335(12) 0.4993(8)
H10 H 0.9383 0.3358 0.5342
C17 C 0.8534(17) 0.2635(12) 0.4795(10)
H11 H 0.8426 0.2198 0.5023
C18 C 0.8148(12) 0.2606(8) 0.4241(8)
H12 H 0.7794 0.2139 0.4068
O17 O 0.5271(7) 0.4860(7) 0.5957(6)
O18 O 0.2682(5) 0.5304(4) 0.6819(3)
O19 O 0.3923(5) 0.5891(5) 0.6836(3)
C19 C 0.3312(6) 0.5447(6) 0.6616(5)
C20 C 0.3269(8) 0.4985(7) 0.6061(5)
C21 C 0.3942(7) 0.5128(7) 0.5781(6)
H13 H 0.4392 0.5504 0.5964
N4 N 0.3988(8) 0.4765(8) 0.5271(6)
C22 C 0.3335(12) 0.4252(11) 0.5007(8)
H14 H 0.3358 0.3975 0.4658
C23 C 0.2635(12) 0.4101(12) 0.5205(10)
H15 H 0.2198 0.3772 0.4977
C24 C 0.2606(8) 0.4458(9) 0.5759(8)
H16 H 0.2139 0.4345 0.5932
O20 O 0.4515(7) 0.3702(7) 0.4826(6)
O21 O 0.9589(10) 0.4729(7) 0.5957(6)
O24 O 0.9187(10) 0.5485(7) 0.4826(6)
O25 O 0.7318(5) 0.4696(4) 0.1819(3)
O26 O 0.6077(5) 0.4109(5) 0.1836(3)
C31 C 0.6688(6) 0.4553(6) 0.1616(5)
C32 C 0.6731(8) 0.5015(7) 0.1061(5)
C33 C 0.6058(7) 0.4872(7) 0.0781(6)
H21 H 0.5608 0.4496 0.0964
N6 N 0.6012(8) 0.5235(8) 0.0271(6)
C34 C 0.6665(12) 0.5748(11) 0.0007(8)
C35 C 0.7365(12) 0.5899(12) 0.0205(10)
C36 C 0.7394(8) 0.5542(9) 0.0759(8)
H24 H 0.7861 0.5655 0.0932
O27 O 0.5140(7) 0.0411(10) 0.5957(6)
O28 O 0.6298(7) 0.0813(10) 0.4826(6)
Cr7 Cr 0.42354(12) 0.66378(17) 0.7500
Cu4 Cu 0.5000 0.5000 0.0000
O29 O 0.7378(6) 0.2682(5) 0.1819(3)
O30 O 0.5304(4) 0.2622(6) 0.1819(3)
O31 O 0.8032(7) 0.3923(5) 0.1836(3)
O32 O 0.5891(5) 0.1968(7) 0.1836(3)
H22 H 0.6642 0.6025 0.9658
H23 H 0.7802 0.6228 0.9977
Cu4_2 Cu 0.5000 0.5000 1.0000
Cu2_2 Cu 0.5000 1.0000 0.5000
O8 O 0.4860(7) 0.9589(10) 0.4043(6)
O11 O 0.3702(7) 0.9187(10) 0.5174(6)
N7 N 0.5235(8) 0.9223(11) 0.5271(6)
Cu2_3 Cu 0.5000 -0.0000 0.0000
O11_2 O 0.6298(7) 0.0813(10) 0.0174(6)
N7_2 N 0.4765(8) 0.0777(11) 0.0271(6)
Cu2_4 Cu 0.5000 0.0000 1.0000
O8_2 O 0.5140(7) 0.0411(10) 0.9043(6)
H2_2 H 0.3358 0.3975 0.0342
H3_2 H 0.2198 0.3772 0.0023
O6_2 O 0.4515(7) 0.3702(7) 0.0174(6)
Cu2_5 Cu 0.5000 1.0000 0.0000
H6_2 H 0.6025 0.9383 0.0342
H7_2 H 0.6228 0.8426 0.0023
Cu3_3 Cu -0.0000 0.5000 0.0000
H10_2 H 0.0617 0.6642 0.0342
H11_2 H 0.1574 0.7802 0.0023
O17_2 O 0.4729(7) 0.5140(7) 0.0957(6)
O21_2 O 0.0411(10) 0.5271(7) 0.0957(6)
O27_2 O 0.4860(7) 0.9589(10) 0.0957(6)
H46 H 0.543085 0.652983 0.0219794
H50 H 0.109898 0.456915 0.0219794
H52 H 0.347017 0.890102 0.0219794
O1_2 O 0.3333 0.6667 0.7500
O2_2 O 0.1391(6) 0.4791(6) 0.7500
O3_2 O 0.5271(7) 0.4860(7) 0.9043(6)
O4_2 O 0.2682(5) 0.5304(4) 0.8181(3)
O5_2 O 0.3923(5) 0.5891(5) 0.8164(3)
C1_2 C 0.3312(6) 0.5447(6) 0.8384(5)
C2_2 C 0.3269(8) 0.4985(7) 0.8939(5)
C3_2 C 0.3942(7) 0.5128(7) 0.9219(6)
H1_2 H 0.4392 0.5504 0.9036
N1_2 N 0.3988(8) 0.4765(8) 0.9729(6)
C4_2 C 0.3335(12) 0.4252(11) 0.9993(8)
C5_2 C 0.2635(12) 0.4101(12) 0.9795(10)
C6_2 C 0.2606(8) 0.4458(9) 0.9241(8)
H4_2 H 0.2139 0.4345 0.9068
Cu2_6 Cu 0.5000 1.0000 1.0000
O7_2 O 0.5209(6) 0.6600(8) 0.7500
O9_2 O 0.4696(4) 0.7378(6) 0.8181(3)
O10_2 O 0.4109(5) 0.8032(7) 0.8164(3)
C7_2 C 0.4553(6) 0.7865(8) 0.8384(5)
C8_2 C 0.5015(7) 0.8284(11) 0.8939(5)
C9_2 C 0.4872(7) 0.8814(10) 0.9219(6)
H5_2 H 0.4496 0.8888 0.9036
N2_2 N 0.5235(8) 0.9223(11) 0.9729(6)
C10_2 C 0.5748(11) 0.9083(16) 0.9993(8)
C11_2 C 0.5899(12) 0.8534(17) 0.9795(10)
C12_2 C 0.5542(9) 0.8148(12) 0.9241(8)
H8_2 H 0.5655 0.7794 0.9068
Cu3_4 Cu -0.0000 0.5000 1.0000
O12_2 O 0.3400(8) 0.8609(6) 0.7500
O14_2 O 0.2622(6) 0.7318(5) 0.8181(3)
O15_2 O 0.1968(7) 0.6077(5) 0.8164(3)
C13_2 C 0.2135(8) 0.6688(6) 0.8384(5)
C14_2 C 0.1716(11) 0.6731(8) 0.8939(5)
C15_2 C 0.1186(10) 0.6058(7) 0.9219(6)
H9_2 H 0.1112 0.5608 0.9036
N3_2 N 0.0777(11) 0.6012(8) 0.9729(6)
C16_2 C 0.0917(16) 0.6665(12) 0.9993(8)
C17_2 C 0.1466(17) 0.7365(12) 0.9795(10)
C18_2 C 0.1852(12) 0.7394(8) 0.9241(8)
H12_2 H 0.2206 0.7861 0.9068
O20_2 O 0.5485(7) 0.6298(7) 0.9826(6)
O24_2 O 0.0813(10) 0.4515(7) 0.9826(6)
O28_2 O 0.3702(7) 0.9187(10) 0.9826(6)
O30_2 O 0.4696(4) 0.7378(6) 0.6819(3)
O32_2 O 0.4109(5) 0.8032(7) 0.6836(3)
Cu3_5 Cu 1.0000 0.5000 0.0000
O16_2 O 0.9187(10) 0.5485(7) 0.0174(6)
C25_2 C 0.7865(8) 0.3312(6) 0.1616(5)
C26_2 C 0.8284(11) 0.3269(8) 0.1061(5)
C27_2 C 0.8814(10) 0.3942(7) 0.0781(6)
H17_2 H 0.8888 0.4392 0.0964
N5_2 N 0.9223(11) 0.3988(8) 0.0271(6)
C28_2 C 0.9083(16) 0.3335(12) 0.0007(8)
C29_2 C 0.8534(17) 0.2635(12) 0.0205(10)
C30_2 C 0.8148(12) 0.2606(8) 0.0759(8)
H20_2 H 0.7794 0.2139 0.0932
Cu3_6 Cu 1.0000 0.5000 1.0000
O13_2 O 0.9589(10) 0.4729(7) 0.9043(6)
H18_2 H 0.9383 0.3358 0.9658
H19_2 H 0.8426 0.2198 0.9977
C31_2 C 0.5447(6) 0.2135(8) 0.1616(5)
C32_2 C 0.4985(7) 0.1716(11) 0.1061(5)
C33_2 C 0.5128(7) 0.1186(10) 0.0781(6)
H21_2 H 0.5504 0.1112 0.0964
C34_2 C 0.4252(11) 0.0917(16) 0.0007(8)
C35_2 C 0.4101(12) 0.1466(17) 0.0205(10)
C36_2 C 0.4458(9) 0.1852(12) 0.0759(8)
H24_2 H 0.4345 0.2206 0.0932
H22_2 H 0.3975 0.0617 0.9658
H23_2 H 0.3772 0.1574 0.9977
C19_2 C 0.4553(6) 0.7865(8) 0.6616(5)
C20_2 C 0.5015(7) 0.8284(11) 0.6061(5)
C21_2 C 0.4872(7) 0.8814(10) 0.5781(6)
H13_2 H 0.4496 0.8888 0.5964
C22_2 C 0.5748(11) 0.9083(16) 0.5007(8)
H14_2 H 0.6025 0.9383 0.4658
C23_2 C 0.5899(12) 0.8534(17) 0.5205(10)
H15_2 H 0.6228 0.8426 0.4977
C24_2 C 0.5542(9) 0.8148(12) 0.5759(8)
H16_2 H 0.5655 0.7794 0.5932
H46_2 H 0.456915 0.347017 0.978021
H50_2 H 0.890102 0.543085 0.978021
H52_2 H 0.652983 0.109898 0.978021
loop_
_geom_bond_atom_site_label_1
_geom_bond_atom_site_label_2
_geom_bond_site_symmetry_1
_geom_bond_site_symmetry_2
Cu3 O13 1_555 1_555
O16 Cu3 1_555 1_555
O22 C25 1_555 1_555
O23 C25 1_555 1_555
C25 C26 1_555 1_555
C26 C27 1_555 1_555
C27 H17 1_555 1_555
N5 Cu3 1_555 1_555
C28 N5 1_555 1_555
H18 C28 1_555 1_555
C29 C28 1_555 1_555
H19 C29 1_555 1_555
C30 C26 1_555 1_555
H20 C30 1_555 1_555
Cr5 O23 1_555 1_555
Cr6 O22 1_555 1_555
C27 N5 1_555 1_555
C29 C30 1_555 1_555
Cr1 O1 1_555 1_555
O1 Cr2 1_555 1_555
Cu1 O3 1_555 1_555
O2 Cr1 1_555 1_555
O4 Cr1 1_555 1_555
O5 C1 1_555 1_555
C1 O4 1_555 1_555
C2 C1 1_555 1_555
C3 C2 1_555 1_555
H1 C3 1_555 1_555
N1 Cu1 1_555 1_555
C4 N1 1_555 1_555
H2 C4 1_555 1_555
C5 C4 1_555 1_555
H3 C5 1_555 1_555
C6 C2 1_555 1_555
H4 C6 1_555 1_555
O6 Cu1 1_555 1_555
Cr2 O5 1_555 1_555
O7 Cr2 1_555 1_555
O9 Cr2 1_555 1_555
O10 C7 1_555 1_555
C7 O9 1_555 1_555
C8 C7 1_555 1_555
C9 C8 1_555 1_555
H5 C9 1_555 1_555
N2 Cu2 1_555 1_555
C10 N2 1_555 1_555
H6 C10 1_555 1_555
C11 C10 1_555 1_555
H7 C11 1_555 1_555
C12 C8 1_555 1_555
H8 C12 1_555 1_555
Cr3 O1 1_555 1_555
O12 Cr3 1_555 1_555
O14 Cr3 1_555 1_555
O15 Cr1 1_555 1_555
C13 O14 1_555 1_555
C14 C13 1_555 1_555
C15 C14 1_555 1_555
H9 C15 1_555 1_555
N3 Cu3_2 1_555 1_555
C16 N3 1_555 1_555
H10 C16 1_555 1_555
C17 C16 1_555 1_555
H11 C17 1_555 1_555
C18 C14 1_555 1_555
H12 C18 1_555 1_555
O17 Cu1 1_555 1_555
O18 C19 1_555 1_555
O19 C19 1_555 1_555
C19 C20 1_555 1_555
C20 C21 1_555 1_555
C21 H13 1_555 1_555
N4 Cu1 1_555 1_555
C22 N4 1_555 1_555
H14 C22 1_555 1_555
C23 C22 1_555 1_555
H15 C23 1_555 1_555
C24 C20 1_555 1_555
H16 C24 1_555 1_555
O20 Cu1 1_555 1_555
O21 Cu3_2 1_555 1_555
O24 Cu3_2 1_555 1_555
O25 Cr1 1_555 1_555
O26 Cr2 1_555 1_555
C31 O25 1_555 1_555
C32 C31 1_555 1_555
C33 C32 1_555 1_555
H21 C33 1_555 1_555
N6 C33 1_555 1_555
C34 N6 1_555 1_555
C35 C34 1_555 1_555
C36 C32 1_555 1_555
H24 C36 1_555 1_555
O27 Cu2 1_555 1_555
O28 Cu2 1_555 1_555
Cr5 O18 1_555 1_555
Cr7 O19 1_555 1_555
Cu4 N6 1_555 1_555
O29 Cr3 1_555 1_555
O30 Cr2 1_555 1_555
O31 Cr1 1_555 1_555
O32 Cr3 1_555 1_555
C3 N1 1_555 1_555
C5 C6 1_555 1_555
O10 Cr3 1_555 1_555
C9 N2 1_555 1_555
C11 C12 1_555 1_555
O15 C13 1_555 1_555
C15 N3 1_555 1_555
C17 C18 1_555 1_555
C21 N4 1_555 1_555
C23 C24 1_555 1_555
O26 C31 1_555 1_555
C35 C36 1_555 1_555
Cu2_2 O8 1_555 1_555
O11 Cu2_2 1_555 1_555
N7 Cu2_2 1_555 1_555
O11_2 Cu2_3 1_555 1_555
N7_2 Cu2_3 1_555 1_555
Cu2_4 O8_2 1_555 1_555
O6_2 Cu4 1_555 1_555
O17_2 Cu4 1_555 1_555
O21_2 Cu3_3 1_555 1_555
O27_2 Cu2_5 1_555 1_555
Cr5 O1_2 1_555 1_555
O1_2 Cr7 1_555 1_555
Cu4_2 O3_2 1_555 1_555
O2_2 Cr5 1_555 1_555
O4_2 Cr5 1_555 1_555
O5_2 C1_2 1_555 1_555
C1_2 O4_2 1_555 1_555
C2_2 C1_2 1_555 1_555
C3_2 C2_2 1_555 1_555
H1_2 C3_2 1_555 1_555
N1_2 Cu4_2 1_555 1_555
C4_2 N1_2 1_555 1_555
C5_2 C4_2 1_555 1_555
C6_2 C2_2 1_555 1_555
H4_2 C6_2 1_555 1_555
Cr7 O5_2 1_555 1_555
O7_2 Cr7 1_555 1_555
O9_2 Cr7 1_555 1_555
O10_2 C7_2 1_555 1_555
C7_2 O9_2 1_555 1_555
C8_2 C7_2 1_555 1_555
C9_2 C8_2 1_555 1_555
H5_2 C9_2 1_555 1_555
N2_2 Cu2_6 1_555 1_555
C10_2 N2_2 1_555 1_555
C11_2 C10_2 1_555 1_555
C12_2 C8_2 1_555 1_555
H8_2 C12_2 1_555 1_555
Cr6 O1_2 1_555 1_555
O12_2 Cr6 1_555 1_555
O14_2 Cr6 1_555 1_555
O15_2 Cr5 1_555 1_555
C13_2 O14_2 1_555 1_555
C14_2 C13_2 1_555 1_555
C15_2 C14_2 1_555 1_555
H9_2 C15_2 1_555 1_555
N3_2 Cu3_4 1_555 1_555
C16_2 N3_2 1_555 1_555
C17_2 C16_2 1_555 1_555
C18_2 C14_2 1_555 1_555
H12_2 C18_2 1_555 1_555
O20_2 Cu4_2 1_555 1_555
O24_2 Cu3_4 1_555 1_555
O28_2 Cu2_6 1_555 1_555
O30_2 Cr7 1_555 1_555
O32_2 Cr6 1_555 1_555
C3_2 N1_2 1_555 1_555
C5_2 C6_2 1_555 1_555
O10_2 Cr6 1_555 1_555
C9_2 N2_2 1_555 1_555
C11_2 C12_2 1_555 1_555
O15_2 C13_2 1_555 1_555
C15_2 N3_2 1_555 1_555
C17_2 C18_2 1_555 1_555
O16_2 Cu3_5 1_555 1_555
O29 C25_2 1_555 1_555
O31 C25_2 1_555 1_555
C25_2 C26_2 1_555 1_555
C26_2 C27_2 1_555 1_555
C27_2 H17_2 1_555 1_555
N5_2 Cu3_5 1_555 1_555
C28_2 N5_2 1_555 1_555
C29_2 C28_2 1_555 1_555
C30_2 C26_2 1_555 1_555
H20_2 C30_2 1_555 1_555
C27_2 N5_2 1_555 1_555
C29_2 C30_2 1_555 1_555
Cu3_6 O13_2 1_555 1_555
C31_2 O30 1_555 1_555
C32_2 C31_2 1_555 1_555
C33_2 C32_2 1_555 1_555
H21_2 C33_2 1_555 1_555
N7_2 C33_2 1_555 1_555
C34_2 N7_2 1_555 1_555
C35_2 C34_2 1_555 1_555
C36_2 C32_2 1_555 1_555
H24_2 C36_2 1_555 1_555
O32 C31_2 1_555 1_555
C35_2 C36_2 1_555 1_555
O30_2 C19_2 1_555 1_555
O32_2 C19_2 1_555 1_555
C19_2 C20_2 1_555 1_555
C20_2 C21_2 1_555 1_555
C21_2 H13_2 1_555 1_555
C22_2 N7 1_555 1_555
H14_2 C22_2 1_555 1_555
C23_2 C22_2 1_555 1_555
H15_2 C23_2 1_555 1_555
C24_2 C20_2 1_555 1_555
H16_2 C24_2 1_555 1_555
C21_2 N7 1_555 1_555
C23_2 C24_2 1_555 1_555

#END
