
###############################################################################
#
# This file contains modified crystal structure data generated from the
# MOF subset of the Cambridge Structural Database (CSD) v543 
# hosted by the Cambridge Crystallographic Data Centre (CCDC).
#
# This work is licensed under the Creative Commons
# Attribution-NonCommercial-ShareAlike 4.0 International License.
# To view a copy of this license, visit
# http://creativecommons.org/licenses/by-nc-sa/4.0/
# or send a letter to
# Creative Commons, PO Box 1866, Mountain View, CA 94042, USA.
#
# CIF created using the CSD Python API on 29 September 2022
# The structure has been converted into the P1 space group
# The structure has a 3D framework
# The original CSD entry OYEWEW is in the orthorhombic crystal system
# The framework has been calculated to contain at least 10.0% void space
# The void calculation uses a probe of radius 1.32A, grid spacing 0.4
# H atom positions have been added when not included in the experimental data
#
###############################################################################

data_OYEWEW
_chemical_formula_moiety         '(C336 H240 Al24 N16 O124)n'
_symmetry_cell_setting           triclinic
_symmetry_space_group_name_H-M   'P 1'
_symmetry_Int_Tables_number      1
_space_group_name_Hall           'P 1'
loop_
_symmetry_equiv_pos_site_id
_symmetry_equiv_pos_as_xyz
1 x,y,z
_cell_length_a                   30.3249(6)
_cell_length_b                   15.7864(2)
_cell_length_c                   40.4555(5)
_cell_angle_alpha                90
_cell_angle_beta                 90
_cell_angle_gamma                90
_cell_volume                     19366.9
loop_
_atom_site_label
_atom_site_type_symbol
_atom_site_fract_x
_atom_site_fract_y
_atom_site_fract_z
Al17 Al 0.27100(2) 0.03070(4) 0.843321(19)
Al19 Al 0.70218(2) 0.03211(4) 0.415284(19)
Al1 Al 0.44962(2) 0.54022(4) 0.585498(18)
Al2 Al 0.47754(2) 0.46924(4) 0.655957(18)
Al3 Al 0.53361(2) 0.61432(4) 0.62151(2)
Al5 Al 0.22900(2) 0.03070(4) 0.343321(19)
C1 C 0.53487(10) 0.55981(17) 0.55363(8)
C2 C 0.56371(12) 0.5466(2) 0.52364(9)
C3 C 0.54572(14) 0.5556(2) 0.49295(9)
H1 H 0.5158 0.5665 0.4905
C4 C 0.57286(17) 0.5482(3) 0.46534(10)
H2 H 0.5608 0.5550 0.4444
C5 C 0.61621(15) 0.53136(16) 0.46829(10)
C6 C 0.63315(15) 0.5159(2) 0.50047(10)
H3 H 0.6620 0.4969 0.5030
C7 C 0.60766(13) 0.5284(2) 0.52738(10)
H4 H 0.6199 0.5247 0.5484
C8 C 0.69896(10) 0.85394(14) 0.39460(7)
C9 C 0.68667(11) 0.77053(14) 0.40550(7)
C10 C 0.68558(13) 0.70103(15) 0.38482(8)
H5 H 0.6944 0.7073 0.3629
C11 C 0.67192(16) 0.62313(18) 0.39557(10)
H6 H 0.6710 0.5781 0.3808
C12 C 0.65936(13) 0.6100(2) 0.42816(9)
C13 C 0.66219(18) 0.6788(2) 0.44972(10)
H7 H 0.6557 0.6714 0.4720
C14 C 0.67448(16) 0.75719(19) 0.43830(9)
H8 H 0.6747 0.8027 0.4529
C15 C 0.72009(10) 0.21081(18) 0.41180(8)
C16 C 0.70194(10) 0.29426(17) 0.41862(8)
C17 C 0.72513(12) 0.36968(18) 0.41207(10)
H9 H 0.7529 0.3661 0.4024
C18 C 0.70890(13) 0.44625(19) 0.41919(10)
H10 H 0.7260 0.4944 0.4158
C19 C 0.66452(14) 0.4539(2) 0.43218(10)
C20 C 0.64123(14) 0.3787(2) 0.43816(13)
H11 H 0.6121 0.3808 0.4454
C21 C 0.66167(13) 0.3020(2) 0.43328(12)
H12 H 0.6474 0.2531 0.4403
C22 C 0.32186(9) 0.04084(15) 0.34794(7)
C23 C 0.36526(9) 0.08066(19) 0.33874(8)
C24 C 0.40507(11) 0.0389(2) 0.34545(11)
C25 C 0.44512(11) 0.0743(2) 0.33456(11)
H14 H 0.4715 0.0458 0.3383
C26 C 0.44534(8) 0.1496(2) 0.31869(9)
C27 C 0.40583(10) 0.1952(2) 0.31380(11)
C28 C 0.36675(10) 0.1595(2) 0.32316(9)
H15 H 0.3406 0.1883 0.3191
C29 C 0.64435(9) 0.04399(16) 0.36002(7)
C30 C 0.60217(8) 0.08136(18) 0.34600(7)
C31 C 0.59541(12) 0.0828(3) 0.31288(9)
H16 H 0.6167 0.0614 0.2986
C32 C 0.55597(11) 0.1169(3) 0.30005(9)
H17 H 0.5503 0.1147 0.2775
C33 C 0.52660(8) 0.1527(3) 0.32067(9)
C34 C 0.53438(10) 0.1585(3) 0.35400(9)
H18 H 0.5140 0.1845 0.3678
C35 C 0.57388(11) 0.1242(3) 0.36717(9)
H19 H 0.5807 0.1304 0.3895
C36 C 0.49258(8) 0.37663(16) 0.18878(7)
C37 C 0.49191(9) 0.3274(2) 0.21972(8)
C38 C 0.51373(12) 0.3555(2) 0.24773(9)
H20 H 0.5285 0.4071 0.2477
C39 C 0.51324(13) 0.3040(3) 0.27659(11)
H21 H 0.5309 0.3190 0.2945
C40 C 0.48779(9) 0.2338(3) 0.27866(9)
C41 C 0.46488(12) 0.2075(2) 0.25027(11)
H22 H 0.4477 0.1588 0.2510
C42 C 0.46778(12) 0.2528(2) 0.22188(9)
H23 H 0.4531 0.2332 0.2032
C43 C 0.44947(8) 0.36458(15) 0.60095(7)
C44 C 0.43699(11) 0.28061(19) 0.58889(8)
C45 C 0.42426(13) 0.26715(18) 0.55651(9)
H24 H 0.4253 0.3121 0.5417
C46 C 0.40985(15) 0.18793(17) 0.54531(10)
H25 H 0.3994 0.1821 0.5238
C47 C 0.41112(14) 0.11647(17) 0.56658(9)
C48 C 0.42294(15) 0.1301(2) 0.59977(10)
H26 H 0.4217 0.0856 0.6148
C49 C 0.43665(13) 0.21049(19) 0.61017(9)
H27 H 0.4458 0.2176 0.6319
C54 C 0.37136(16) 0.02946(18) 0.52625(11)
C55 C 0.32853(16) 0.0626(2) 0.52554(10)
H30 H 0.3184 0.0968 0.5426
C56 C 0.30111(15) 0.0433(2) 0.49845(10)
H31 H 0.2726 0.0646 0.4974
H33 H 0.4750 0.0033 0.5789
C64 C 0.39152(7) 0.53728(17) 0.64175(7)
C65 C 0.35101(8) 0.5776(2) 0.65592(7)
C66 C 0.31987(10) 0.6122(2) 0.63436(8)
H36 H 0.3249 0.6122 0.6117
C67 C 0.28126(10) 0.6466(3) 0.64724(10)
H37 H 0.2600 0.6684 0.6330
C68 C 0.27439(8) 0.6485(2) 0.68082(9)
C69 C 0.30493(11) 0.6124(3) 0.70258(9)
H38 H 0.2996 0.6121 0.7252
C70 C 0.34377(10) 0.5767(3) 0.68982(9)
H39 H 0.3645 0.5527 0.7039
C71 C 0.07193(9) 0.53686(19) 0.65202(7)
C72 C 0.11346(8) 0.57699(19) 0.66178(8)
C73 C 0.15350(11) 0.5322(2) 0.65857(10)
H40 H 0.1528 0.4785 0.6492
C74 C 0.19153(10) 0.5625(3) 0.66814(11)
H41 H 0.2169 0.5297 0.6662
C75 C 0.19411(10) 0.6472(2) 0.68182(10)
C76 C 0.15435(10) 0.6909(3) 0.68539(11)
H42 H 0.1547 0.7446 0.6948
C77 C 0.11501(9) 0.6575(2) 0.67546(9)
H43 H 0.0892 0.6887 0.6779
C78 C 0.24090(9) 0.87758(18) 0.81194(8)
C79 C 0.23913(9) 0.82357(18) 0.78088(8)
C80 C 0.21191(12) 0.7535(3) 0.77970(10)
H44 H 0.1953 0.7380 0.7980
C81 C 0.20971(13) 0.7061(2) 0.75045(10)
H45 H 0.1913 0.6590 0.7493
C82 C 0.23505(8) 0.7293(2) 0.72295(9)
C83 C 0.26204(12) 0.7993(3) 0.72510(11)
H46 H 0.2788 0.8152 0.7069
C84 C 0.26463(11) 0.8460(3) 0.75369(10)
H47 H 0.2834 0.8925 0.7548
N1 N 0.64375(11) 0.53269(18) 0.43903(8)
N2 N 0.48575(7) 0.1872(2) 0.30809(8)
N3 N 0.39852(11) 0.0379(2) 0.55423(8)
N4 N 0.23337(8) 0.6801(3) 0.69361(9)
O1 O 0.49465(7) 0.54938(15) 0.55216(6)
O2 O 0.55590(7) 0.57976(15) 0.57945(6)
O3 O 0.71401(7) 0.86894(13) 0.36633(5)
O4 O 0.69272(8) 0.91568(12) 0.41489(5)
O5 O 0.75575(8) 0.20448(12) 0.39467(6)
O6 O 0.70293(8) 0.14994(11) 0.42538(6)
O7 O 0.28809(6) 0.07132(13) 0.33969(5)
O9 O 0.65074(7) 0.05153(17) 0.39012(6)
O10 O 0.66758(7) 0.00211(14) 0.34060(6)
O11 O 0.47890(8) 0.33755(13) 0.16306(5)
O12 O 0.50588(7) 0.45126(12) 0.18958(5)
O13 O 0.44974(8) 0.42457(13) 0.57964(5)
O14 O 0.45895(6) 0.37220(10) 0.63052(5)
O19 O 0.39707(7) 0.53613(16) 0.61205(5)
O20 O 0.41971(6) 0.50587(13) 0.66290(5)
O21 O 0.26031(9) 0.94400(14) 0.81097(5)
O22 O 0.22190(8) 0.84762(14) 0.83659(5)
O23 O 0.07387(7) 0.46045(12) 0.64103(7)
O24 O 0.03605(6) 0.57640(11) 0.65644(5)
O25 O 0.48750(5) 0.54109(10) 0.62130(4)
O26 O 0.58390(7) 0.69155(12) 0.62086(7)
H48 H 0.6014 0.6928 0.6045
H49 H 0.5883 0.7240 0.6373
O27 O 0.41009(7) 0.53900(12) 0.54840(5)
H50 H 0.4202 0.5417 0.5288
H51 H 0.3824 0.5359 0.5516
O28 O 0.46735(7) 0.39604(13) 0.69297(5)
H52 H 0.4585 0.3455 0.6899
H53 H 0.4717 0.4142 0.7125
O30 O 0.21657(8) 0.09891(14) 0.30551(5)
H54 H 0.2369 0.1284 0.2967
H55 H 0.1907 0.0999 0.2975
Al8 Al 0.52246(2) 0.53076(4) 0.155957(18)
Al11 Al 0.46639(2) 0.38568(4) 0.12151(2)
Al12 Al 0.03361(2) 0.38568(4) 0.62151(2)
Al13 Al 0.78628(2) 0.10905(4) 0.38001(2)
Al14 Al 0.21372(2) 0.89095(4) 0.88001(2)
Al16 Al 0.72900(2) 0.96930(4) 0.343321(19)
O33 O 0.21401(7) 0.13106(13) 0.36633(5)
O34 O 0.19272(8) 0.08432(12) 0.41489(5)
O39 O 0.52110(8) 0.66245(13) 0.66306(5)
O40 O 0.49412(7) 0.54874(12) 0.68958(5)
O41 O 0.44020(8) 0.65839(14) 0.58525(6)
O42 O 0.50465(7) 0.71001(12) 0.60280(6)
O45 O 0.57387(7) 0.53955(12) 0.64103(7)
O46 O 0.53605(6) 0.42360(11) 0.65644(5)
H60 H 0.406502 0.25804 0.302706
Al4 Al 0.28628(2) 0.89095(4) 0.38001(2)
Al6 Al 0.20218(2) 0.96789(4) 0.415284(19)
H13 H 0.4050 0.9881 0.3570
C50 C 0.28659(10) 0.96623(15) 0.44554(7)
C51 C 0.31667(11) 0.9934(2) 0.47396(7)
C52 C 0.35896(14) 0.9652(3) 0.47294(11)
H28 H 0.3691 0.9357 0.4546
C53 C 0.38847(16) 0.9814(4) 0.50075(15)
H29 H 0.4171 0.9606 0.5013
C57 C 0.46709(9) 0.71691(15) 0.59135(7)
C58 C 0.44880(11) 0.80524(17) 0.58495(9)
C59 C 0.47606(13) 0.8749(2) 0.58634(10)
H32 H 0.5054 0.8700 0.5928
C60 C 0.45770(15) 0.95484(18) 0.57751(12)
C61 C 0.41565(14) 0.96130(17) 0.56711(12)
C62 C 0.38862(13) 0.89236(19) 0.56817(11)
H34 H 0.3591 0.8984 0.5625
C63 C 0.40433(13) 0.8134(2) 0.57758(11)
H35 H 0.3855 0.7671 0.5789
O8 O 0.32697(7) 0.97210(15) 0.36410(8)
O15 O 0.30395(8) 0.91995(14) 0.42348(6)
O16 O 0.24784(7) 0.99173(15) 0.44614(5)
O29 O 0.23888(5) 0.96251(9) 0.37954(4)
O31 O 0.16241(8) 0.97191(14) 0.45326(5)
H56 H 0.1727 0.9821 0.4724
H57 H 0.1349 0.9637 0.4507
O32 O 0.33695(7) 0.81728(14) 0.38110(6)
H58 H 0.3531 0.8152 0.3982
H59 H 0.3430 0.7867 0.3644
O35 O 0.25575(8) 0.79552(12) 0.39467(6)
O36 O 0.20293(8) 0.85006(11) 0.42538(6)
O37 O 0.15074(7) 0.94847(17) 0.39012(6)
O38 O 0.16758(7) 0.99789(14) 0.34060(6)
O43 O 0.23969(9) 0.94400(14) 0.31097(5)
O44 O 0.27810(8) 0.84762(14) 0.33659(5)
Al9 Al 0.97754(2) 0.53076(4) 0.655957(18)
Al9_2 Al 0.02246(2) 0.46924(4) 0.155957(18)
C53_2 C 0.61153(16) 0.0186(4) 0.00075(15)
H29_2 H 0.5829 0.0394 0.0013
C57_2 C 0.53291(9) 0.28309(15) 0.09135(7)
C58_2 C 0.55120(11) 0.19476(17) 0.08495(9)
C59_2 C 0.52394(13) 0.1251(2) 0.08634(10)
H32_2 H 0.4946 0.1300 0.0928
C60_2 C 0.54230(15) 0.04516(18) 0.07751(12)
C61_2 C 0.58435(14) 0.03870(17) 0.06711(12)
C62_2 C 0.61138(13) 0.10764(19) 0.06817(11)
H34_2 H 0.6409 0.1016 0.0625
C63_2 C 0.59567(13) 0.1866(2) 0.07758(11)
H35_2 H 0.6145 0.2329 0.0789
O17 O 0.55980(8) 0.34161(14) 0.08525(6)
O18 O 0.49535(7) 0.28999(12) 0.10280(6)
Al7 Al 0.55038(2) 0.45978(4) 0.085498(18)
Al4_2 Al 0.71372(2) 0.10905(4) 0.88001(2)
Al6_2 Al 0.79782(2) 0.03211(4) 0.915284(19)
H13_2 H 0.5950 0.0119 0.8570
C50_2 C 0.71341(10) 0.03377(15) 0.94554(7)
C51_2 C 0.68333(11) 0.0066(2) 0.97396(7)
C52_2 C 0.64104(14) 0.0348(3) 0.97294(11)
H28_2 H 0.6309 0.0643 0.9546
O8_2 O 0.67303(7) 0.02790(15) 0.86410(8)
O15_2 O 0.69605(8) 0.08005(14) 0.92348(6)
O16_2 O 0.75216(7) 0.00827(15) 0.94614(5)
O29_2 O 0.76112(5) 0.03749(9) 0.87954(4)
O31_2 O 0.83759(8) 0.02809(14) 0.95326(5)
H56_2 H 0.8273 0.0179 0.9724
H57_2 H 0.8651 0.0363 0.9507
O32_2 O 0.66305(7) 0.18272(14) 0.88110(6)
H58_2 H 0.6469 0.1848 0.8982
H59_2 H 0.6570 0.2133 0.8644
O35_2 O 0.74425(8) 0.20448(12) 0.89467(6)
O36_2 O 0.79707(8) 0.14994(11) 0.92538(6)
O37_2 O 0.84926(7) 0.05153(17) 0.89012(6)
O38_2 O 0.83242(7) 0.00211(14) 0.84060(6)
O43_2 O 0.76031(9) 0.05600(14) 0.81097(5)
O44_2 O 0.72190(8) 0.15238(14) 0.83659(5)
C1_2 C 0.46513(10) 0.44019(17) 0.05363(8)
C2_2 C 0.43629(12) 0.4534(2) 0.02364(9)
C6_2 C 0.36685(15) 0.4841(2) 0.00047(10)
H3_2 H 0.3380 0.5031 0.0030
C7_2 C 0.39234(13) 0.4716(2) 0.02738(10)
H4_2 H 0.3801 0.4753 0.0484
C43_2 C 0.55053(8) 0.63542(15) 0.10095(7)
C44_2 C 0.56301(11) 0.71939(19) 0.08889(8)
C45_2 C 0.57574(13) 0.73285(18) 0.05651(9)
H24_2 H 0.5747 0.6879 0.0417
C46_2 C 0.59015(15) 0.81207(17) 0.04531(10)
H25_2 H 0.6006 0.8179 0.0238
C47_2 C 0.58888(14) 0.88353(17) 0.06658(9)
C48_2 C 0.57706(15) 0.8699(2) 0.09977(10)
H26_2 H 0.5783 0.9144 0.1148
C49_2 C 0.56335(13) 0.78951(19) 0.11017(9)
H27_2 H 0.5542 0.7824 0.1319
C54_2 C 0.62864(16) 0.97054(18) 0.02625(11)
C55_2 C 0.67147(16) 0.9374(2) 0.02554(10)
H30_2 H 0.6816 0.9032 0.0426
H33_2 H 0.5250 0.9967 0.0789
C64_2 C 0.60848(7) 0.46272(17) 0.14175(7)
C65_2 C 0.64899(8) 0.4224(2) 0.15592(7)
C66_2 C 0.68013(10) 0.3878(2) 0.13436(8)
H36_2 H 0.6751 0.3878 0.1117
C67_2 C 0.71874(10) 0.3534(3) 0.14724(10)
H37_2 H 0.7400 0.3316 0.1330
C68_2 C 0.72561(8) 0.3515(2) 0.18082(9)
C69_2 C 0.69507(11) 0.3876(3) 0.20258(9)
H38_2 H 0.7004 0.3879 0.2252
C70_2 C 0.65623(10) 0.4233(3) 0.18982(9)
H39_2 H 0.6355 0.4473 0.2039
C71_2 C 0.92807(9) 0.46314(19) 0.15202(7)
C72_2 C 0.88654(8) 0.42301(19) 0.16178(8)
C73_2 C 0.84650(11) 0.4678(2) 0.15857(10)
H40_2 H 0.8472 0.5215 0.1492
C74_2 C 0.80847(10) 0.4375(3) 0.16814(11)
H41_2 H 0.7831 0.4703 0.1662
C75_2 C 0.80589(10) 0.3528(2) 0.18182(10)
C76_2 C 0.84565(10) 0.3091(3) 0.18539(11)
H42_2 H 0.8453 0.2554 0.1948
C77_2 C 0.88499(9) 0.3425(2) 0.17546(9)
H43_2 H 0.9108 0.3113 0.1779
C78_2 C 0.75910(9) 0.12242(18) 0.31194(8)
C79_2 C 0.76087(9) 0.17643(18) 0.28088(8)
C80_2 C 0.78809(12) 0.2465(3) 0.27970(10)
H44_2 H 0.8047 0.2620 0.2980
C81_2 C 0.79029(13) 0.2939(2) 0.25045(10)
H45_2 H 0.8087 0.3410 0.2493
C82_2 C 0.76495(8) 0.2707(2) 0.22295(9)
C83_2 C 0.73796(12) 0.2007(3) 0.22510(11)
H46_2 H 0.7212 0.1848 0.2069
C84_2 C 0.73537(11) 0.1540(3) 0.25369(10)
H47_2 H 0.7166 0.1075 0.2548
N3_2 N 0.60148(11) 0.9621(2) 0.05423(8)
N4_2 N 0.76663(8) 0.3199(3) 0.19361(9)
O1_2 O 0.50535(7) 0.45062(15) 0.05216(6)
O2_2 O 0.44410(7) 0.42024(15) 0.07945(6)
O13_2 O 0.55026(8) 0.57543(13) 0.07964(5)
O14_2 O 0.54105(6) 0.62780(10) 0.13052(5)
O19_2 O 0.60293(7) 0.46387(16) 0.11205(5)
O20_2 O 0.58029(6) 0.49413(13) 0.16290(5)
O21_2 O 0.73969(9) 0.05600(14) 0.31097(5)
O22_2 O 0.77810(8) 0.15238(14) 0.33659(5)
O23_2 O 0.92613(7) 0.53955(12) 0.14103(7)
O24_2 O 0.96395(6) 0.42360(11) 0.15644(5)
O25_2 O 0.51250(5) 0.45891(10) 0.12130(4)
O26_2 O 0.41610(7) 0.30845(12) 0.12086(7)
H48_2 H 0.3986 0.3072 0.1045
H49_2 H 0.4117 0.2760 0.1373
O27_2 O 0.58991(7) 0.46100(12) 0.04840(5)
H50_2 H 0.5798 0.4583 0.0288
H51_2 H 0.6176 0.4641 0.0516
O28_2 O 0.53265(7) 0.60396(13) 0.19297(5)
H52_2 H 0.5415 0.6545 0.1899
H53_2 H 0.5283 0.5858 0.2125
Al12_2 Al 0.96639(2) 0.61432(4) 0.12151(2)
O45_2 O 0.42613(7) 0.46045(12) 0.14103(7)
O46_2 O 0.46395(6) 0.57640(11) 0.15644(5)
Al5_2 Al 0.77100(2) 0.96930(4) 0.843321(19)
C3_2 C 0.45428(14) 0.4444(2) 0.99295(9)
H1_2 H 0.4842 0.4335 0.9905
C4_2 C 0.42714(17) 0.4518(3) 0.96534(10)
H2_2 H 0.4392 0.4450 0.9444
C5_2 C 0.38379(15) 0.46864(16) 0.96829(10)
C8_2 C 0.30104(10) 0.14606(14) 0.89460(7)
C9_2 C 0.31333(11) 0.22947(14) 0.90550(7)
C10_2 C 0.31442(13) 0.29897(15) 0.88482(8)
H5_2 H 0.3056 0.2927 0.8629
C11_2 C 0.32808(16) 0.37687(18) 0.89557(10)
H6_2 H 0.3290 0.4219 0.8808
C12_2 C 0.34064(13) 0.3900(2) 0.92816(9)
C13_2 C 0.33781(18) 0.3212(2) 0.94972(10)
H7_2 H 0.3443 0.3286 0.9720
C14_2 C 0.32552(16) 0.24281(19) 0.93830(9)
H8_2 H 0.3253 0.1973 0.9529
C15_2 C 0.27991(10) 0.78919(18) 0.91180(8)
C16_2 C 0.29806(10) 0.70574(17) 0.91862(8)
C17_2 C 0.27487(12) 0.63032(18) 0.91207(10)
H9_2 H 0.2471 0.6339 0.9024
C18_2 C 0.29110(13) 0.55375(19) 0.91919(10)
H10_2 H 0.2740 0.5056 0.9158
C19_2 C 0.33548(14) 0.5461(2) 0.93218(10)
C20_2 C 0.35877(14) 0.6213(2) 0.93816(13)
H11_2 H 0.3879 0.6192 0.9454
C21_2 C 0.33833(13) 0.6980(2) 0.93328(12)
H12_2 H 0.3526 0.7469 0.9403
C22_2 C 0.67814(9) 0.95916(15) 0.84794(7)
C23_2 C 0.63474(9) 0.91934(19) 0.83874(8)
C24_2 C 0.59493(11) 0.9611(2) 0.84545(11)
C25_2 C 0.55488(11) 0.9257(2) 0.83456(11)
H14_2 H 0.5285 0.9542 0.8383
C26_2 C 0.55466(8) 0.8504(2) 0.81869(9)
C27_2 C 0.59417(10) 0.8048(2) 0.81380(11)
C28_2 C 0.63325(10) 0.8405(2) 0.82316(9)
H15_2 H 0.6594 0.8117 0.8191
C29_2 C 0.35565(9) 0.95601(16) 0.86002(7)
C30_2 C 0.39783(8) 0.91864(18) 0.84600(7)
C31_2 C 0.40459(12) 0.9172(3) 0.81288(9)
H16_2 H 0.3833 0.9386 0.7986
C32_2 C 0.44403(11) 0.8831(3) 0.80005(9)
H17_2 H 0.4497 0.8853 0.7775
C33_2 C 0.47340(8) 0.8473(3) 0.82067(9)
C34_2 C 0.46562(10) 0.8415(3) 0.85400(9)
H18_2 H 0.4860 0.8155 0.8678
C35_2 C 0.42612(11) 0.8758(3) 0.86717(9)
H19_2 H 0.4193 0.8696 0.8895
C36_2 C 0.50742(8) 0.62337(16) 0.68878(7)
C37_2 C 0.50809(9) 0.6726(2) 0.71972(8)
C38_2 C 0.48627(12) 0.6445(2) 0.74773(9)
H20_2 H 0.4715 0.5929 0.7477
C39_2 C 0.48676(13) 0.6960(3) 0.77659(11)
H21_2 H 0.4691 0.6810 0.7945
C40_2 C 0.51221(9) 0.7662(3) 0.77866(9)
C41_2 C 0.53512(12) 0.7925(2) 0.75027(11)
H22_2 H 0.5523 0.8412 0.7510
C42_2 C 0.53222(12) 0.7472(2) 0.72188(9)
H23_2 H 0.5469 0.7668 0.7032
C56_2 C 0.69889(15) 0.9567(2) 0.99845(10)
H31_2 H 0.7274 0.9354 0.9974
N1_2 N 0.35625(11) 0.46731(18) 0.93903(8)
N2_2 N 0.51425(7) 0.8128(2) 0.80809(8)
O3_2 O 0.28599(7) 0.13106(13) 0.86633(5)
O4_2 O 0.30728(8) 0.08432(12) 0.91489(5)
O5_2 O 0.24425(8) 0.79552(12) 0.89467(6)
O6_2 O 0.29707(8) 0.85006(11) 0.92538(6)
O7_2 O 0.71191(6) 0.92868(13) 0.83969(5)
O9_2 O 0.34926(7) 0.94847(17) 0.89012(6)
O10_2 O 0.33242(7) 0.99789(14) 0.84060(6)
O30_2 O 0.78343(8) 0.90109(14) 0.80551(5)
H54_2 H 0.7631 0.8716 0.7967
H55_2 H 0.8093 0.9001 0.7975
Al18 Al 0.29782(2) 0.96789(4) 0.915284(19)
O33_2 O 0.78599(7) 0.86894(13) 0.86633(5)
O34_2 O 0.80728(8) 0.91568(12) 0.91489(5)
H60_2 H 0.593498 0.74196 0.802706
H32_3 H 0.0054 0.1300 0.5928
O18_2 O 0.00465(7) 0.28999(12) 0.60280(6)
C1_3 C 0.03487(10) 0.44019(17) 0.55363(8)
C2_3 C 0.06371(12) 0.4534(2) 0.52364(9)
C3_3 C 0.04572(14) 0.4444(2) 0.49295(9)
H1_3 H 0.0158 0.4335 0.4905
C4_3 C 0.07286(17) 0.4518(3) 0.46534(10)
H2_3 H 0.0608 0.4450 0.4444
C5_3 C 0.11621(15) 0.46864(16) 0.46829(10)
C6_3 C 0.13315(15) 0.4841(2) 0.50047(10)
H3_3 H 0.1620 0.5031 0.5030
C7_3 C 0.10766(13) 0.4716(2) 0.52738(10)
H4_3 H 0.1199 0.4753 0.5484
C8_3 C 0.19896(10) 0.14606(14) 0.39460(7)
C9_3 C 0.18667(11) 0.22947(14) 0.40550(7)
C10_3 C 0.18558(13) 0.29897(15) 0.38482(8)
H5_3 H 0.1944 0.2927 0.3629
C11_3 C 0.17192(16) 0.37687(18) 0.39557(10)
H6_3 H 0.1710 0.4219 0.3808
C12_3 C 0.15936(13) 0.3900(2) 0.42816(9)
C13_3 C 0.16219(18) 0.3212(2) 0.44972(10)
H7_3 H 0.1557 0.3286 0.4720
C14_3 C 0.17448(16) 0.24281(19) 0.43830(9)
H8_3 H 0.1747 0.1973 0.4529
C15_3 C 0.22009(10) 0.78919(18) 0.41180(8)
C16_3 C 0.20194(10) 0.70574(17) 0.41862(8)
C17_3 C 0.22513(12) 0.63032(18) 0.41207(10)
H9_3 H 0.2529 0.6339 0.4024
C18_3 C 0.20890(13) 0.55375(19) 0.41919(10)
H10_3 H 0.2260 0.5056 0.4158
C19_3 C 0.16452(14) 0.5461(2) 0.43218(10)
C20_3 C 0.14123(14) 0.6213(2) 0.43816(13)
H11_3 H 0.1121 0.6192 0.4454
C21_3 C 0.16167(13) 0.6980(2) 0.43328(12)
H12_3 H 0.1474 0.7469 0.4403
C29_3 C 0.14435(9) 0.95601(16) 0.36002(7)
C30_3 C 0.10217(8) 0.91864(18) 0.34600(7)
C31_3 C 0.09541(12) 0.9172(3) 0.31288(9)
H16_3 H 0.1167 0.9386 0.2986
C32_3 C 0.05597(11) 0.8831(3) 0.30005(9)
H17_3 H 0.0503 0.8853 0.2775
C33_3 C 0.02660(8) 0.8473(3) 0.32067(9)
C34_3 C 0.03438(10) 0.8415(3) 0.35400(9)
H18_3 H 0.0140 0.8155 0.3678
C35_3 C 0.07388(11) 0.8758(3) 0.36717(9)
H19_3 H 0.0807 0.8696 0.3895
C38_3 C 0.01373(12) 0.6445(2) 0.24773(9)
H20_3 H 0.0285 0.5929 0.2477
C39_3 C 0.01324(13) 0.6960(3) 0.27659(11)
H21_3 H 0.0309 0.6810 0.2945
N1_3 N 0.14375(11) 0.46731(18) 0.43903(8)
O2_3 O 0.05590(7) 0.42024(15) 0.57945(6)
O12_2 O 0.00588(7) 0.54874(12) 0.18958(5)
O26_3 O 0.08390(7) 0.30845(12) 0.62086(7)
H48_3 H 0.1014 0.3072 0.6045
H49_3 H 0.0883 0.2760 0.6373
O39_2 O 0.02110(8) 0.33755(13) 0.66306(5)
H13_3 H 0.9050 0.0119 0.3570
C50_3 C 0.78659(10) 0.03377(15) 0.44554(7)
C51_3 C 0.81667(11) 0.0066(2) 0.47396(7)
C52_3 C 0.85896(14) 0.0348(3) 0.47294(11)
H28_3 H 0.8691 0.0643 0.4546
C53_3 C 0.88847(16) 0.0186(4) 0.50075(15)
H29_3 H 0.9171 0.0394 0.5013
C57_3 C 0.96709(9) 0.28309(15) 0.59135(7)
C58_3 C 0.94880(11) 0.19476(17) 0.58495(9)
C59_3 C 0.97606(13) 0.1251(2) 0.58634(10)
C60_3 C 0.95770(15) 0.04516(18) 0.57751(12)
C61_3 C 0.91565(14) 0.03870(17) 0.56711(12)
C62_3 C 0.88862(13) 0.10764(19) 0.56817(11)
H34_3 H 0.8591 0.1016 0.5625
C63_3 C 0.90433(13) 0.1866(2) 0.57758(11)
H35_3 H 0.8855 0.2329 0.5789
O8_3 O 0.82697(7) 0.02790(15) 0.36410(8)
O15_3 O 0.80395(8) 0.08005(14) 0.42348(6)
O16_3 O 0.74784(7) 0.00827(15) 0.44614(5)
O17_2 O 0.94020(8) 0.34161(14) 0.58525(6)
O29_3 O 0.73888(5) 0.03749(9) 0.37954(4)
O31_3 O 0.66241(8) 0.02809(14) 0.45326(5)
H56_3 H 0.6727 0.0179 0.4724
H57_3 H 0.6349 0.0363 0.4507
O32_3 O 0.83695(7) 0.18272(14) 0.38110(6)
H58_3 H 0.8531 0.1848 0.3982
H59_3 H 0.8430 0.2133 0.3644
Al7_2 Al 0.94962(2) 0.45978(4) 0.585498(18)
C22_3 C 0.82186(9) 0.95916(15) 0.34794(7)
C23_3 C 0.86526(9) 0.91934(19) 0.33874(8)
C24_3 C 0.90507(11) 0.9611(2) 0.34545(11)
C25_3 C 0.94512(11) 0.9257(2) 0.33456(11)
H14_3 H 0.9715 0.9542 0.3383
C26_3 C 0.94534(8) 0.8504(2) 0.31869(9)
C27_3 C 0.90583(10) 0.8048(2) 0.31380(11)
C28_3 C 0.86675(10) 0.8405(2) 0.32316(9)
H15_3 H 0.8406 0.8117 0.3191
C36_3 C 0.99258(8) 0.62337(16) 0.18878(7)
C37_3 C 0.99191(9) 0.6726(2) 0.21972(8)
C40_3 C 0.98779(9) 0.7662(3) 0.27866(9)
C41_3 C 0.96488(12) 0.7925(2) 0.25027(11)
H22_3 H 0.9477 0.8412 0.2510
C42_3 C 0.96778(12) 0.7472(2) 0.22188(9)
H23_3 H 0.9531 0.7668 0.2032
C43_3 C 0.94947(8) 0.63542(15) 0.60095(7)
C44_3 C 0.93699(11) 0.71939(19) 0.58889(8)
C45_3 C 0.92426(13) 0.73285(18) 0.55651(9)
H24_3 H 0.9253 0.6879 0.5417
C46_3 C 0.90985(15) 0.81207(17) 0.54531(10)
H25_3 H 0.8994 0.8179 0.5238
C47_3 C 0.91112(14) 0.88353(17) 0.56658(9)
C48_3 C 0.92294(15) 0.8699(2) 0.59977(10)
H26_3 H 0.9217 0.9144 0.6148
C49_3 C 0.93665(13) 0.78951(19) 0.61017(9)
H27_3 H 0.9458 0.7824 0.6319
C54_3 C 0.87136(16) 0.97054(18) 0.52625(11)
C55_3 C 0.82853(16) 0.9374(2) 0.52554(10)
H30_3 H 0.8184 0.9032 0.5426
C56_3 C 0.80111(15) 0.9567(2) 0.49845(10)
H31_3 H 0.7726 0.9354 0.4974
H33_3 H 0.9750 0.9967 0.5789
C64_3 C 0.89152(7) 0.46272(17) 0.64175(7)
C65_3 C 0.85101(8) 0.4224(2) 0.65592(7)
C66_3 C 0.81987(10) 0.3878(2) 0.63436(8)
H36_3 H 0.8249 0.3878 0.6117
C67_3 C 0.78126(10) 0.3534(3) 0.64724(10)
H37_3 H 0.7600 0.3316 0.6330
C68_3 C 0.77439(8) 0.3515(2) 0.68082(9)
C69_3 C 0.80493(11) 0.3876(3) 0.70258(9)
H38_3 H 0.7996 0.3879 0.7252
C70_3 C 0.84377(10) 0.4233(3) 0.68982(9)
H39_3 H 0.8645 0.4473 0.7039
C71_3 C 0.57193(9) 0.46314(19) 0.65202(7)
C72_3 C 0.61346(8) 0.42301(19) 0.66178(8)
C73_3 C 0.65350(11) 0.4678(2) 0.65857(10)
H40_3 H 0.6528 0.5215 0.6492
C74_3 C 0.69153(10) 0.4375(3) 0.66814(11)
H41_3 H 0.7169 0.4703 0.6662
C75_3 C 0.69411(10) 0.3528(2) 0.68182(10)
C76_3 C 0.65435(10) 0.3091(3) 0.68539(11)
H42_3 H 0.6547 0.2554 0.6948
C77_3 C 0.61501(9) 0.3425(2) 0.67546(9)
H43_3 H 0.5892 0.3113 0.6779
C78_3 C 0.74090(9) 0.12242(18) 0.81194(8)
C79_3 C 0.73913(9) 0.17643(18) 0.78088(8)
C80_3 C 0.71191(12) 0.2465(3) 0.77970(10)
H44_3 H 0.6953 0.2620 0.7980
C81_3 C 0.70971(13) 0.2939(2) 0.75045(10)
H45_3 H 0.6913 0.3410 0.7493
C82_3 C 0.73505(8) 0.2707(2) 0.72295(9)
C83_3 C 0.76204(12) 0.2007(3) 0.72510(11)
H46_3 H 0.7788 0.1848 0.7069
C84_3 C 0.76463(11) 0.1540(3) 0.75369(10)
H47_3 H 0.7834 0.1075 0.7548
N2_3 N 0.98575(7) 0.8128(2) 0.30809(8)
N3_3 N 0.89852(11) 0.9621(2) 0.55423(8)
N4_3 N 0.73337(8) 0.3199(3) 0.69361(9)
O1_3 O 0.99465(7) 0.45062(15) 0.55216(6)
O7_3 O 0.78809(6) 0.92868(13) 0.33969(5)
O11_2 O 0.97890(8) 0.66245(13) 0.16306(5)
O13_3 O 0.94974(8) 0.57543(13) 0.57964(5)
O14_3 O 0.95895(6) 0.62780(10) 0.63052(5)
O19_3 O 0.89707(7) 0.46387(16) 0.61205(5)
O20_3 O 0.91971(6) 0.49413(13) 0.66290(5)
O25_3 O 0.98750(5) 0.45891(10) 0.62130(4)
O27_3 O 0.91009(7) 0.46100(12) 0.54840(5)
H50_3 H 0.9202 0.4583 0.5288
H51_3 H 0.8824 0.4641 0.5516
O28_3 O 0.96735(7) 0.60396(13) 0.69297(5)
H52_3 H 0.9585 0.6545 0.6899
H53_3 H 0.9717 0.5858 0.7125
O30_3 O 0.71657(8) 0.90109(14) 0.30551(5)
H54_3 H 0.7369 0.8716 0.2967
H55_3 H 0.6907 0.9001 0.2975
O40_2 O 0.99412(7) 0.45126(12) 0.68958(5)
H60_3 H 0.906502 0.74196 0.302706
Al1_2 Al 0.05038(2) 0.54022(4) 0.085498(18)
C43_4 C 0.05053(8) 0.36458(15) 0.10095(7)
C44_4 C 0.06301(11) 0.28061(19) 0.08889(8)
C45_4 C 0.07574(13) 0.26715(18) 0.05651(9)
H24_4 H 0.0747 0.3121 0.0417
C46_4 C 0.09015(15) 0.18793(17) 0.04531(10)
H25_4 H 0.1006 0.1821 0.0238
C47_4 C 0.08888(14) 0.11647(17) 0.06658(9)
C48_4 C 0.07706(15) 0.1301(2) 0.09977(10)
H26_4 H 0.0783 0.0856 0.1148
C49_4 C 0.06335(13) 0.21049(19) 0.11017(9)
H27_4 H 0.0542 0.2176 0.1319
C54_4 C 0.12864(16) 0.02946(18) 0.02625(11)
C55_4 C 0.17147(16) 0.0626(2) 0.02554(10)
H30_4 H 0.1816 0.0968 0.0426
H33_4 H 0.0250 0.0033 0.0789
C64_4 C 0.10848(7) 0.53728(17) 0.14175(7)
C65_4 C 0.14899(8) 0.5776(2) 0.15592(7)
C66_4 C 0.18013(10) 0.6122(2) 0.13436(8)
H36_4 H 0.1751 0.6122 0.1117
C67_4 C 0.21874(10) 0.6466(3) 0.14724(10)
H37_4 H 0.2400 0.6684 0.1330
C68_4 C 0.22561(8) 0.6485(2) 0.18082(9)
C69_4 C 0.19507(11) 0.6124(3) 0.20258(9)
H38_4 H 0.2004 0.6121 0.2252
C70_4 C 0.15623(10) 0.5767(3) 0.18982(9)
H39_4 H 0.1355 0.5527 0.2039
C71_4 C 0.42807(9) 0.53686(19) 0.15202(7)
C72_4 C 0.38654(8) 0.57699(19) 0.16178(8)
C73_4 C 0.34650(11) 0.5322(2) 0.15857(10)
H40_4 H 0.3472 0.4785 0.1492
C74_4 C 0.30847(10) 0.5625(3) 0.16814(11)
H41_4 H 0.2831 0.5297 0.1662
C75_4 C 0.30589(10) 0.6472(2) 0.18182(10)
C76_4 C 0.34565(10) 0.6909(3) 0.18539(11)
H42_4 H 0.3453 0.7446 0.1948
C77_4 C 0.38499(9) 0.6575(2) 0.17546(9)
H43_4 H 0.4108 0.6887 0.1779
C78_4 C 0.25910(9) 0.87758(18) 0.31194(8)
C79_4 C 0.26087(9) 0.82357(18) 0.28088(8)
C80_4 C 0.28809(12) 0.7535(3) 0.27970(10)
H44_4 H 0.3047 0.7380 0.2980
C81_4 C 0.29029(13) 0.7061(2) 0.25045(10)
H45_4 H 0.3087 0.6590 0.2493
C82_4 C 0.26495(8) 0.7293(2) 0.22295(9)
C83_4 C 0.23796(12) 0.7993(3) 0.22510(11)
H46_4 H 0.2212 0.8152 0.2069
C84_4 C 0.23537(11) 0.8460(3) 0.25369(10)
H47_4 H 0.2166 0.8925 0.2548
N3_4 N 0.10148(11) 0.0379(2) 0.05423(8)
N4_4 N 0.26663(8) 0.6801(3) 0.19361(9)
O1_4 O 0.00535(7) 0.54938(15) 0.05216(6)
O13_4 O 0.05026(8) 0.42457(13) 0.07964(5)
O14_4 O 0.04105(6) 0.37220(10) 0.13052(5)
O19_4 O 0.10293(7) 0.53613(16) 0.11205(5)
O20_4 O 0.08029(6) 0.50587(13) 0.16290(5)
O25_4 O 0.01250(5) 0.54109(10) 0.12130(4)
O27_4 O 0.08991(7) 0.53900(12) 0.04840(5)
H50_4 H 0.0798 0.5417 0.0288
H51_4 H 0.1176 0.5359 0.0516
O28_4 O 0.03265(7) 0.39604(13) 0.19297(5)
H52_4 H 0.0415 0.3455 0.1899
H53_4 H 0.0283 0.4142 0.2125
O41_2 O 0.05980(8) 0.65839(14) 0.08525(6)
C22_4 C 0.17814(9) 0.04084(15) 0.84794(7)
C23_4 C 0.13474(9) 0.08066(19) 0.83874(8)
C24_4 C 0.09493(11) 0.0389(2) 0.84545(11)
C25_4 C 0.05488(11) 0.0743(2) 0.83456(11)
H14_4 H 0.0285 0.0458 0.8383
C26_4 C 0.05466(8) 0.1496(2) 0.81869(9)
C27_4 C 0.09417(10) 0.1952(2) 0.81380(11)
C28_4 C 0.13325(10) 0.1595(2) 0.82316(9)
H15_4 H 0.1594 0.1883 0.8191
C36_4 C 0.00742(8) 0.37663(16) 0.68878(7)
C37_4 C 0.00809(9) 0.3274(2) 0.71972(8)
C40_4 C 0.01221(9) 0.2338(3) 0.77866(9)
C41_4 C 0.03512(12) 0.2075(2) 0.75027(11)
H22_4 H 0.0523 0.1588 0.7510
C42_4 C 0.03222(12) 0.2528(2) 0.72188(9)
H23_4 H 0.0469 0.2332 0.7032
C56_4 C 0.19889(15) 0.0433(2) 0.99845(10)
H31_4 H 0.2274 0.0646 0.9974
N2_4 N 0.01425(7) 0.1872(2) 0.80809(8)
O7_4 O 0.21191(6) 0.07132(13) 0.83969(5)
O30_4 O 0.28343(8) 0.09891(14) 0.80551(5)
H54_4 H 0.2631 0.1284 0.7967
H55_4 H 0.3093 0.0999 0.7975
H60_4 H 0.0934978 0.25804 0.802706
C53_4 C 0.11153(16) 0.9814(4) 0.00075(15)
H29_4 H 0.0829 0.9606 0.0013
C57_4 C 0.03291(9) 0.71691(15) 0.09135(7)
C58_4 C 0.05120(11) 0.80524(17) 0.08495(9)
C59_4 C 0.02394(13) 0.8749(2) 0.08634(10)
C60_4 C 0.04230(15) 0.95484(18) 0.07751(12)
C61_4 C 0.08435(14) 0.96130(17) 0.06711(12)
C62_4 C 0.11138(13) 0.89236(19) 0.06817(11)
H34_4 H 0.1409 0.8984 0.0625
C63_4 C 0.09567(13) 0.8134(2) 0.07758(11)
H35_4 H 0.1145 0.7671 0.0789
H13_4 H 0.0950 0.9881 0.8570
C50_4 C 0.21341(10) 0.96623(15) 0.94554(7)
C51_4 C 0.18333(11) 0.9934(2) 0.97396(7)
C52_4 C 0.14104(14) 0.9652(3) 0.97294(11)
H28_4 H 0.1309 0.9357 0.9546
O8_4 O 0.17303(7) 0.97210(15) 0.86410(8)
O15_4 O 0.19605(8) 0.91995(14) 0.92348(6)
O16_4 O 0.25216(7) 0.99173(15) 0.94614(5)
O29_4 O 0.26112(5) 0.96251(9) 0.87954(4)
O31_4 O 0.33759(8) 0.97191(14) 0.95326(5)
H56_4 H 0.3273 0.9821 0.9724
H57_4 H 0.3651 0.9637 0.9507
O32_4 O 0.16305(7) 0.81728(14) 0.88110(6)
H58_4 H 0.1469 0.8152 0.8982
H59_4 H 0.1570 0.7867 0.8644
C1_4 C 0.96513(10) 0.55981(17) 0.05363(8)
C2_4 C 0.93629(12) 0.5466(2) 0.02364(9)
C6_4 C 0.86685(15) 0.5159(2) 0.00047(10)
H3_4 H 0.8380 0.4969 0.0030
C7_4 C 0.89234(13) 0.5284(2) 0.02738(10)
H4_4 H 0.8801 0.5247 0.0484
O2_4 O 0.94410(7) 0.57976(15) 0.07945(6)
O26_4 O 0.91610(7) 0.69155(12) 0.12086(7)
H48_4 H 0.8986 0.6928 0.1045
H49_4 H 0.9117 0.7240 0.1373
O42_2 O 0.99535(7) 0.71001(12) 0.10280(6)
C3_4 C 0.95428(14) 0.5556(2) 0.99295(9)
H1_4 H 0.9842 0.5665 0.9905
C4_4 C 0.92714(17) 0.5482(3) 0.96534(10)
H2_4 H 0.9392 0.5550 0.9444
C5_4 C 0.88379(15) 0.53136(16) 0.96829(10)
C8_4 C 0.80104(10) 0.85394(14) 0.89460(7)
C9_4 C 0.81333(11) 0.77053(14) 0.90550(7)
C10_4 C 0.81442(13) 0.70103(15) 0.88482(8)
H5_4 H 0.8056 0.7073 0.8629
C11_4 C 0.82808(16) 0.62313(18) 0.89557(10)
H6_4 H 0.8290 0.5781 0.8808
C12_4 C 0.84064(13) 0.6100(2) 0.92816(9)
C13_4 C 0.83781(18) 0.6788(2) 0.94972(10)
H7_4 H 0.8443 0.6714 0.9720
C14_4 C 0.82552(16) 0.75719(19) 0.93830(9)
H8_4 H 0.8253 0.8027 0.9529
C15_4 C 0.77991(10) 0.21081(18) 0.91180(8)
C16_4 C 0.79806(10) 0.29426(17) 0.91862(8)
C17_4 C 0.77487(12) 0.36968(18) 0.91207(10)
H9_4 H 0.7471 0.3661 0.9024
C18_4 C 0.79110(13) 0.44625(19) 0.91919(10)
H10_4 H 0.7740 0.4944 0.9158
C19_4 C 0.83548(14) 0.4539(2) 0.93218(10)
C20_4 C 0.85877(14) 0.3787(2) 0.93816(13)
H11_4 H 0.8879 0.3808 0.9454
C21_4 C 0.83833(13) 0.3020(2) 0.93328(12)
H12_4 H 0.8526 0.2531 0.9403
C29_4 C 0.85565(9) 0.04399(16) 0.86002(7)
C30_4 C 0.89783(8) 0.08136(18) 0.84600(7)
C31_4 C 0.90459(12) 0.0828(3) 0.81288(9)
H16_4 H 0.8833 0.0614 0.7986
C32_4 C 0.94403(11) 0.1169(3) 0.80005(9)
H17_4 H 0.9497 0.1147 0.7775
C33_4 C 0.97340(8) 0.1527(3) 0.82067(9)
C34_4 C 0.96562(10) 0.1585(3) 0.85400(9)
H18_4 H 0.9860 0.1845 0.8678
C35_4 C 0.92612(11) 0.1242(3) 0.86717(9)
H19_4 H 0.9193 0.1304 0.8895
C38_4 C 0.98627(12) 0.3555(2) 0.74773(9)
H20_4 H 0.9715 0.4071 0.7477
C39_4 C 0.98676(13) 0.3040(3) 0.77659(11)
H21_4 H 0.9691 0.3190 0.7945
N1_4 N 0.85625(11) 0.53269(18) 0.93903(8)
H32_4 H 0.9946 0.8700 0.0928
loop_
_geom_bond_atom_site_label_1
_geom_bond_atom_site_label_2
_geom_bond_site_symmetry_1
_geom_bond_site_symmetry_2
Al1 O1 1_555 1_555
Al2 O14 1_555 1_555
Al3 O2 1_555 1_555
Al5 O7 1_555 1_555
C1 C2 1_555 1_555
C2 C3 1_555 1_555
C3 H1 1_555 1_555
C4 C3 1_555 1_555
H2 C4 1_555 1_555
C5 C4 1_555 1_555
C6 C5 1_555 1_555
H3 C6 1_555 1_555
C7 C2 1_555 1_555
H4 C7 1_555 1_555
C8 C9 1_555 1_555
C9 C10 1_555 1_555
C10 H5 1_555 1_555
C11 C10 1_555 1_555
H6 C11 1_555 1_555
C12 C11 1_555 1_555
C13 C12 1_555 1_555
H7 C13 1_555 1_555
C14 C9 1_555 1_555
H8 C14 1_555 1_555
C15 C16 1_555 1_555
C16 C17 1_555 1_555
C17 H9 1_555 1_555
C18 C17 1_555 1_555
H10 C18 1_555 1_555
C19 C18 1_555 1_555
C20 C19 1_555 1_555
H11 C20 1_555 1_555
C21 C16 1_555 1_555
H12 C21 1_555 1_555
C22 C23 1_555 1_555
C23 C24 1_555 1_555
C25 C24 1_555 1_555
H14 C25 1_555 1_555
C26 C25 1_555 1_555
C27 C26 1_555 1_555
C28 C23 1_555 1_555
H15 C28 1_555 1_555
C29 C30 1_555 1_555
C30 C31 1_555 1_555
C31 H16 1_555 1_555
C32 C31 1_555 1_555
H17 C32 1_555 1_555
C33 C32 1_555 1_555
C34 C33 1_555 1_555
H18 C34 1_555 1_555
C35 C30 1_555 1_555
H19 C35 1_555 1_555
C36 C37 1_555 1_555
C37 C38 1_555 1_555
C38 H20 1_555 1_555
C39 C38 1_555 1_555
H21 C39 1_555 1_555
C40 C39 1_555 1_555
C41 C40 1_555 1_555
H22 C41 1_555 1_555
C42 C37 1_555 1_555
H23 C42 1_555 1_555
C43 C44 1_555 1_555
C44 C45 1_555 1_555
C45 H24 1_555 1_555
C46 C45 1_555 1_555
H25 C46 1_555 1_555
C47 C46 1_555 1_555
C48 C47 1_555 1_555
H26 C48 1_555 1_555
C49 C44 1_555 1_555
H27 C49 1_555 1_555
C55 C54 1_555 1_555
H30 C55 1_555 1_555
H31 C56 1_555 1_555
C64 C65 1_555 1_555
C65 C66 1_555 1_555
C66 H36 1_555 1_555
C67 C66 1_555 1_555
H37 C67 1_555 1_555
C68 C67 1_555 1_555
C69 C68 1_555 1_555
H38 C69 1_555 1_555
C70 C65 1_555 1_555
H39 C70 1_555 1_555
C71 C72 1_555 1_555
C72 C73 1_555 1_555
C73 H40 1_555 1_555
C74 C73 1_555 1_555
H41 C74 1_555 1_555
C75 C74 1_555 1_555
C76 C75 1_555 1_555
H42 C76 1_555 1_555
C77 C72 1_555 1_555
H43 C77 1_555 1_555
C78 C79 1_555 1_555
C79 C80 1_555 1_555
C80 H44 1_555 1_555
C81 C80 1_555 1_555
H45 C81 1_555 1_555
C82 C81 1_555 1_555
C83 C82 1_555 1_555
H46 C83 1_555 1_555
C84 C79 1_555 1_555
H47 C84 1_555 1_555
N1 C5 1_555 1_555
N2 C26 1_555 1_555
N3 C47 1_555 1_555
N4 C68 1_555 1_555
O1 C1 1_555 1_555
O2 C1 1_555 1_555
O3 C8 1_555 1_555
O4 C8 1_555 1_555
O5 C15 1_555 1_555
O6 C15 1_555 1_555
O7 C22 1_555 1_555
O9 C29 1_555 1_555
O10 C29 1_555 1_555
O11 C36 1_555 1_555
O12 C36 1_555 1_555
O13 Al1 1_555 1_555
O14 C43 1_555 1_555
O19 Al1 1_555 1_555
O20 Al2 1_555 1_555
O21 C78 1_555 1_555
O22 C78 1_555 1_555
O23 C71 1_555 1_555
O24 C71 1_555 1_555
O25 Al1 1_555 1_555
O26 Al3 1_555 1_555
H48 O26 1_555 1_555
H49 O26 1_555 1_555
O27 Al1 1_555 1_555
H50 O27 1_555 1_555
H51 O27 1_555 1_555
O28 Al2 1_555 1_555
H52 O28 1_555 1_555
H53 O28 1_555 1_555
O30 Al5 1_555 1_555
H54 O30 1_555 1_555
H55 O30 1_555 1_555
Al8 O12 1_555 1_555
Al11 O11 1_555 1_555
Al12 O23 1_555 1_555
Al13 O5 1_555 1_555
Al14 O22 1_555 1_555
Al16 O3 1_555 1_555
Al19 O6 1_555 1_555
O33 Al5 1_555 1_555
O39 Al3 1_555 1_555
O40 Al2 1_555 1_555
O41 Al1 1_555 1_555
O42 Al3 1_555 1_555
O45 Al3 1_555 1_555
O46 Al2 1_555 1_555
Al2 O25 1_555 1_555
Al3 O25 1_555 1_555
C6 C7 1_555 1_555
C12 N1 1_555 1_555
C13 C14 1_555 1_555
C19 N1 1_555 1_555
C20 C21 1_555 1_555
C27 C28 1_555 1_555
C33 N2 1_555 1_555
C34 C35 1_555 1_555
C40 N2 1_555 1_555
C41 C42 1_555 1_555
C43 O13 1_555 1_555
C48 C49 1_555 1_555
C54 N3 1_555 1_555
C55 C56 1_555 1_555
C64 O19 1_555 1_555
C64 O20 1_555 1_555
C69 C70 1_555 1_555
C75 N4 1_555 1_555
C76 C77 1_555 1_555
C82 N4 1_555 1_555
C83 C84 1_555 1_555
O9 Al19 1_555 1_555
C27 H60 1_555 1_555
Al4 O8 1_555 1_555
Al6 O16 1_555 1_555
C50 C51 1_555 1_555
C51 C52 1_555 1_555
C52 H28 1_555 1_555
C53 C52 1_555 1_555
H29 C53 1_555 1_555
C57 C58 1_555 1_555
C58 C59 1_555 1_555
C59 H32 1_555 1_555
C60 C59 1_555 1_555
C61 C60 1_555 1_555
C62 C61 1_555 1_555
H34 C62 1_555 1_555
C63 C58 1_555 1_555
H35 C63 1_555 1_555
O15 Al4 1_555 1_555
O16 C50 1_555 1_555
O41 C57 1_555 1_555
O42 C57 1_555 1_555
O29 Al4 1_555 1_555
O31 Al6 1_555 1_555
H56 O31 1_555 1_555
H57 O31 1_555 1_555
O32 Al4 1_555 1_555
H58 O32 1_555 1_555
H59 O32 1_555 1_555
O35 Al4 1_555 1_555
O36 Al6 1_555 1_555
O37 Al6 1_555 1_555
O44 Al4 1_555 1_555
Al6 O29 1_555 1_555
C50 O15 1_555 1_555
C62 C63 1_555 1_555
H29_2 C53_2 1_555 1_555
C57_2 C58_2 1_555 1_555
C58_2 C59_2 1_555 1_555
C59_2 H32_2 1_555 1_555
C60_2 C59_2 1_555 1_555
C61_2 C60_2 1_555 1_555
C62_2 C61_2 1_555 1_555
H34_2 C62_2 1_555 1_555
C63_2 C58_2 1_555 1_555
H35_2 C63_2 1_555 1_555
O17 C57_2 1_555 1_555
O18 C57_2 1_555 1_555
Al7 O17 1_555 1_555
Al11 O18 1_555 1_555
C62_2 C63_2 1_555 1_555
Al4_2 O8_2 1_555 1_555
Al6_2 O16_2 1_555 1_555
C50_2 C51_2 1_555 1_555
C51_2 C52_2 1_555 1_555
C52_2 H28_2 1_555 1_555
O15_2 Al4_2 1_555 1_555
O16_2 C50_2 1_555 1_555
O29_2 Al4_2 1_555 1_555
O31_2 Al6_2 1_555 1_555
H56_2 O31_2 1_555 1_555
H57_2 O31_2 1_555 1_555
O32_2 Al4_2 1_555 1_555
H58_2 O32_2 1_555 1_555
H59_2 O32_2 1_555 1_555
O35_2 Al4_2 1_555 1_555
O36_2 Al6_2 1_555 1_555
O37_2 Al6_2 1_555 1_555
O44_2 Al4_2 1_555 1_555
Al6_2 O29_2 1_555 1_555
C50_2 O15_2 1_555 1_555
Al7 O1_2 1_555 1_555
Al8 O14_2 1_555 1_555
Al11 O2_2 1_555 1_555
C1_2 C2_2 1_555 1_555
H3_2 C6_2 1_555 1_555
C7_2 C2_2 1_555 1_555
H4_2 C7_2 1_555 1_555
C43_2 C44_2 1_555 1_555
C44_2 C45_2 1_555 1_555
C45_2 H24_2 1_555 1_555
C46_2 C45_2 1_555 1_555
H25_2 C46_2 1_555 1_555
C47_2 C46_2 1_555 1_555
C48_2 C47_2 1_555 1_555
H26_2 C48_2 1_555 1_555
C49_2 C44_2 1_555 1_555
H27_2 C49_2 1_555 1_555
C55_2 C54_2 1_555 1_555
H30_2 C55_2 1_555 1_555
C64_2 C65_2 1_555 1_555
C65_2 C66_2 1_555 1_555
C66_2 H36_2 1_555 1_555
C67_2 C66_2 1_555 1_555
H37_2 C67_2 1_555 1_555
C68_2 C67_2 1_555 1_555
C69_2 C68_2 1_555 1_555
H38_2 C69_2 1_555 1_555
C70_2 C65_2 1_555 1_555
H39_2 C70_2 1_555 1_555
C71_2 C72_2 1_555 1_555
C72_2 C73_2 1_555 1_555
C73_2 H40_2 1_555 1_555
C74_2 C73_2 1_555 1_555
H41_2 C74_2 1_555 1_555
C75_2 C74_2 1_555 1_555
C76_2 C75_2 1_555 1_555
H42_2 C76_2 1_555 1_555
C77_2 C72_2 1_555 1_555
H43_2 C77_2 1_555 1_555
C78_2 C79_2 1_555 1_555
C79_2 C80_2 1_555 1_555
C80_2 H44_2 1_555 1_555
C81_2 C80_2 1_555 1_555
H45_2 C81_2 1_555 1_555
C82_2 C81_2 1_555 1_555
C83_2 C82_2 1_555 1_555
H46_2 C83_2 1_555 1_555
C84_2 C79_2 1_555 1_555
H47_2 C84_2 1_555 1_555
N3_2 C47_2 1_555 1_555
N4_2 C68_2 1_555 1_555
O1_2 C1_2 1_555 1_555
O2_2 C1_2 1_555 1_555
O13_2 Al7 1_555 1_555
O14_2 C43_2 1_555 1_555
O19_2 Al7 1_555 1_555
O20_2 Al8 1_555 1_555
O21_2 C78_2 1_555 1_555
O22_2 C78_2 1_555 1_555
O23_2 C71_2 1_555 1_555
O24_2 C71_2 1_555 1_555
O25_2 Al7 1_555 1_555
O26_2 Al11 1_555 1_555
H48_2 O26_2 1_555 1_555
H49_2 O26_2 1_555 1_555
O27_2 Al7 1_555 1_555
H50_2 O27_2 1_555 1_555
H51_2 O27_2 1_555 1_555
O28_2 Al8 1_555 1_555
H52_2 O28_2 1_555 1_555
H53_2 O28_2 1_555 1_555
Al12_2 O23_2 1_555 1_555
Al13 O22_2 1_555 1_555
O45_2 Al11 1_555 1_555
O46_2 Al8 1_555 1_555
Al8 O25_2 1_555 1_555
Al11 O25_2 1_555 1_555
C6_2 C7_2 1_555 1_555
C43_2 O13_2 1_555 1_555
C48_2 C49_2 1_555 1_555
C54_2 N3_2 1_555 1_555
C64_2 O19_2 1_555 1_555
C64_2 O20_2 1_555 1_555
C69_2 C70_2 1_555 1_555
C75_2 N4_2 1_555 1_555
C76_2 C77_2 1_555 1_555
C82_2 N4_2 1_555 1_555
C83_2 C84_2 1_555 1_555
Al5_2 O7_2 1_555 1_555
C3_2 H1_2 1_555 1_555
C4_2 C3_2 1_555 1_555
H2_2 C4_2 1_555 1_555
C5_2 C4_2 1_555 1_555
C8_2 C9_2 1_555 1_555
C9_2 C10_2 1_555 1_555
C10_2 H5_2 1_555 1_555
C11_2 C10_2 1_555 1_555
H6_2 C11_2 1_555 1_555
C12_2 C11_2 1_555 1_555
C13_2 C12_2 1_555 1_555
H7_2 C13_2 1_555 1_555
C14_2 C9_2 1_555 1_555
H8_2 C14_2 1_555 1_555
C15_2 C16_2 1_555 1_555
C16_2 C17_2 1_555 1_555
C17_2 H9_2 1_555 1_555
C18_2 C17_2 1_555 1_555
H10_2 C18_2 1_555 1_555
C19_2 C18_2 1_555 1_555
C20_2 C19_2 1_555 1_555
H11_2 C20_2 1_555 1_555
C21_2 C16_2 1_555 1_555
H12_2 C21_2 1_555 1_555
C22_2 C23_2 1_555 1_555
C23_2 C24_2 1_555 1_555
C25_2 C24_2 1_555 1_555
H14_2 C25_2 1_555 1_555
C26_2 C25_2 1_555 1_555
C27_2 C26_2 1_555 1_555
C28_2 C23_2 1_555 1_555
H15_2 C28_2 1_555 1_555
C29_2 C30_2 1_555 1_555
C30_2 C31_2 1_555 1_555
C31_2 H16_2 1_555 1_555
C32_2 C31_2 1_555 1_555
H17_2 C32_2 1_555 1_555
C33_2 C32_2 1_555 1_555
C34_2 C33_2 1_555 1_555
H18_2 C34_2 1_555 1_555
C35_2 C30_2 1_555 1_555
H19_2 C35_2 1_555 1_555
C36_2 C37_2 1_555 1_555
C37_2 C38_2 1_555 1_555
C38_2 H20_2 1_555 1_555
C39_2 C38_2 1_555 1_555
H21_2 C39_2 1_555 1_555
C40_2 C39_2 1_555 1_555
C41_2 C40_2 1_555 1_555
H22_2 C41_2 1_555 1_555
C42_2 C37_2 1_555 1_555
H23_2 C42_2 1_555 1_555
H31_2 C56_2 1_555 1_555
N1_2 C5_2 1_555 1_555
N2_2 C26_2 1_555 1_555
O3_2 C8_2 1_555 1_555
O4_2 C8_2 1_555 1_555
O5_2 C15_2 1_555 1_555
O6_2 C15_2 1_555 1_555
O7_2 C22_2 1_555 1_555
O9_2 C29_2 1_555 1_555
O10_2 C29_2 1_555 1_555
O39 C36_2 1_555 1_555
O40 C36_2 1_555 1_555
O30_2 Al5_2 1_555 1_555
H54_2 O30_2 1_555 1_555
H55_2 O30_2 1_555 1_555
Al14 O5_2 1_555 1_555
Al17 O3_2 1_555 1_555
Al18 O6_2 1_555 1_555
O33_2 Al5_2 1_555 1_555
C12_2 N1_2 1_555 1_555
C13_2 C14_2 1_555 1_555
C19_2 N1_2 1_555 1_555
C20_2 C21_2 1_555 1_555
C27_2 C28_2 1_555 1_555
C33_2 N2_2 1_555 1_555
C34_2 C35_2 1_555 1_555
C40_2 N2_2 1_555 1_555
C41_2 C42_2 1_555 1_555
O9_2 Al18 1_555 1_555
C27_2 H60_2 1_555 1_555
Al12 O18_2 1_555 1_555
Al12 O2_3 1_555 1_555
C1_3 C2_3 1_555 1_555
C2_3 C3_3 1_555 1_555
C3_3 H1_3 1_555 1_555
C4_3 C3_3 1_555 1_555
H2_3 C4_3 1_555 1_555
C5_3 C4_3 1_555 1_555
C6_3 C5_3 1_555 1_555
H3_3 C6_3 1_555 1_555
C7_3 C2_3 1_555 1_555
H4_3 C7_3 1_555 1_555
C8_3 C9_3 1_555 1_555
C9_3 C10_3 1_555 1_555
C10_3 H5_3 1_555 1_555
C11_3 C10_3 1_555 1_555
H6_3 C11_3 1_555 1_555
C12_3 C11_3 1_555 1_555
C13_3 C12_3 1_555 1_555
H7_3 C13_3 1_555 1_555
C14_3 C9_3 1_555 1_555
H8_3 C14_3 1_555 1_555
C15_3 C16_3 1_555 1_555
C16_3 C17_3 1_555 1_555
C17_3 H9_3 1_555 1_555
C18_3 C17_3 1_555 1_555
H10_3 C18_3 1_555 1_555
C19_3 C18_3 1_555 1_555
C20_3 C19_3 1_555 1_555
H11_3 C20_3 1_555 1_555
C21_3 C16_3 1_555 1_555
H12_3 C21_3 1_555 1_555
C29_3 C30_3 1_555 1_555
C30_3 C31_3 1_555 1_555
C31_3 H16_3 1_555 1_555
C32_3 C31_3 1_555 1_555
H17_3 C32_3 1_555 1_555
C33_3 C32_3 1_555 1_555
C34_3 C33_3 1_555 1_555
H18_3 C34_3 1_555 1_555
C35_3 C30_3 1_555 1_555
H19_3 C35_3 1_555 1_555
C38_3 H20_3 1_555 1_555
C39_3 C38_3 1_555 1_555
H21_3 C39_3 1_555 1_555
N1_3 C5_3 1_555 1_555
O2_3 C1_3 1_555 1_555
O33 C8_3 1_555 1_555
O34 C8_3 1_555 1_555
O35 C15_3 1_555 1_555
O36 C15_3 1_555 1_555
O37 C29_3 1_555 1_555
O38 C29_3 1_555 1_555
O26_3 Al12 1_555 1_555
H48_3 O26_3 1_555 1_555
H49_3 O26_3 1_555 1_555
Al9_2 O12_2 1_555 1_555
O39_2 Al12 1_555 1_555
C6_3 C7_3 1_555 1_555
C12_3 N1_3 1_555 1_555
C13_3 C14_3 1_555 1_555
C19_3 N1_3 1_555 1_555
C20_3 C21_3 1_555 1_555
C34_3 C35_3 1_555 1_555
Al13 O8_3 1_555 1_555
Al19 O16_3 1_555 1_555
C50_3 C51_3 1_555 1_555
C51_3 C52_3 1_555 1_555
C52_3 H28_3 1_555 1_555
C53_3 C52_3 1_555 1_555
H29_3 C53_3 1_555 1_555
C57_3 C58_3 1_555 1_555
C58_3 C59_3 1_555 1_555
C60_3 C59_3 1_555 1_555
C61_3 C60_3 1_555 1_555
C62_3 C61_3 1_555 1_555
H34_3 C62_3 1_555 1_555
C63_3 C58_3 1_555 1_555
H35_3 C63_3 1_555 1_555
O15_3 Al13 1_555 1_555
O16_3 C50_3 1_555 1_555
O17_2 C57_3 1_555 1_555
O29_3 Al13 1_555 1_555
O31_3 Al19 1_555 1_555
H56_3 O31_3 1_555 1_555
H57_3 O31_3 1_555 1_555
O32_3 Al13 1_555 1_555
H58_3 O32_3 1_555 1_555
H59_3 O32_3 1_555 1_555
Al7_2 O17_2 1_555 1_555
Al19 O29_3 1_555 1_555
C50_3 O15_3 1_555 1_555
C62_3 C63_3 1_555 1_555
Al7_2 O1_3 1_555 1_555
Al9 O14_3 1_555 1_555
Al16 O7_3 1_555 1_555
C22_3 C23_3 1_555 1_555
C23_3 C24_3 1_555 1_555
C25_3 C24_3 1_555 1_555
H14_3 C25_3 1_555 1_555
C26_3 C25_3 1_555 1_555
C27_3 C26_3 1_555 1_555
C28_3 C23_3 1_555 1_555
H15_3 C28_3 1_555 1_555
C36_3 C37_3 1_555 1_555
C41_3 C40_3 1_555 1_555
H22_3 C41_3 1_555 1_555
C42_3 C37_3 1_555 1_555
H23_3 C42_3 1_555 1_555
C43_3 C44_3 1_555 1_555
C44_3 C45_3 1_555 1_555
C45_3 H24_3 1_555 1_555
C46_3 C45_3 1_555 1_555
H25_3 C46_3 1_555 1_555
C47_3 C46_3 1_555 1_555
C48_3 C47_3 1_555 1_555
H26_3 C48_3 1_555 1_555
C49_3 C44_3 1_555 1_555
H27_3 C49_3 1_555 1_555
C55_3 C54_3 1_555 1_555
H30_3 C55_3 1_555 1_555
H31_3 C56_3 1_555 1_555
C64_3 C65_3 1_555 1_555
C65_3 C66_3 1_555 1_555
C66_3 H36_3 1_555 1_555
C67_3 C66_3 1_555 1_555
H37_3 C67_3 1_555 1_555
C68_3 C67_3 1_555 1_555
C69_3 C68_3 1_555 1_555
H38_3 C69_3 1_555 1_555
C70_3 C65_3 1_555 1_555
H39_3 C70_3 1_555 1_555
C71_3 C72_3 1_555 1_555
C72_3 C73_3 1_555 1_555
C73_3 H40_3 1_555 1_555
C74_3 C73_3 1_555 1_555
H41_3 C74_3 1_555 1_555
C75_3 C74_3 1_555 1_555
C76_3 C75_3 1_555 1_555
H42_3 C76_3 1_555 1_555
C77_3 C72_3 1_555 1_555
H43_3 C77_3 1_555 1_555
C78_3 C79_3 1_555 1_555
C79_3 C80_3 1_555 1_555
C80_3 H44_3 1_555 1_555
C81_3 C80_3 1_555 1_555
H45_3 C81_3 1_555 1_555
C82_3 C81_3 1_555 1_555
C83_3 C82_3 1_555 1_555
H46_3 C83_3 1_555 1_555
C84_3 C79_3 1_555 1_555
H47_3 C84_3 1_555 1_555
N2_3 C26_3 1_555 1_555
N3_3 C47_3 1_555 1_555
N4_3 C68_3 1_555 1_555
O7_3 C22_3 1_555 1_555
O11_2 C36_3 1_555 1_555
O13_3 Al7_2 1_555 1_555
O14_3 C43_3 1_555 1_555
O19_3 Al7_2 1_555 1_555
O20_3 Al9 1_555 1_555
O43_2 C78_3 1_555 1_555
O44_2 C78_3 1_555 1_555
O45 C71_3 1_555 1_555
O46 C71_3 1_555 1_555
O25_3 Al7_2 1_555 1_555
O27_3 Al7_2 1_555 1_555
H50_3 O27_3 1_555 1_555
H51_3 O27_3 1_555 1_555
O28_3 Al9 1_555 1_555
H52_3 O28_3 1_555 1_555
H53_3 O28_3 1_555 1_555
O30_3 Al16 1_555 1_555
H54_3 O30_3 1_555 1_555
H55_3 O30_3 1_555 1_555
Al12_2 O11_2 1_555 1_555
O40_2 Al9 1_555 1_555
Al9 O25_3 1_555 1_555
C27_3 C28_3 1_555 1_555
C40_3 N2_3 1_555 1_555
C41_3 C42_3 1_555 1_555
C43_3 O13_3 1_555 1_555
C48_3 C49_3 1_555 1_555
C54_3 N3_3 1_555 1_555
C55_3 C56_3 1_555 1_555
C64_3 O19_3 1_555 1_555
C64_3 O20_3 1_555 1_555
C69_3 C70_3 1_555 1_555
C75_3 N4_3 1_555 1_555
C76_3 C77_3 1_555 1_555
C82_3 N4_3 1_555 1_555
C83_3 C84_3 1_555 1_555
C27_3 H60_3 1_555 1_555
Al1_2 O1_4 1_555 1_555
Al9_2 O14_4 1_555 1_555
C43_4 C44_4 1_555 1_555
C44_4 C45_4 1_555 1_555
C45_4 H24_4 1_555 1_555
C46_4 C45_4 1_555 1_555
H25_4 C46_4 1_555 1_555
C47_4 C46_4 1_555 1_555
C48_4 C47_4 1_555 1_555
H26_4 C48_4 1_555 1_555
C49_4 C44_4 1_555 1_555
H27_4 C49_4 1_555 1_555
C55_4 C54_4 1_555 1_555
H30_4 C55_4 1_555 1_555
C64_4 C65_4 1_555 1_555
C65_4 C66_4 1_555 1_555
C66_4 H36_4 1_555 1_555
C67_4 C66_4 1_555 1_555
H37_4 C67_4 1_555 1_555
C68_4 C67_4 1_555 1_555
C69_4 C68_4 1_555 1_555
H38_4 C69_4 1_555 1_555
C70_4 C65_4 1_555 1_555
H39_4 C70_4 1_555 1_555
C71_4 C72_4 1_555 1_555
C72_4 C73_4 1_555 1_555
C73_4 H40_4 1_555 1_555
C74_4 C73_4 1_555 1_555
H41_4 C74_4 1_555 1_555
C75_4 C74_4 1_555 1_555
C76_4 C75_4 1_555 1_555
H42_4 C76_4 1_555 1_555
C77_4 C72_4 1_555 1_555
H43_4 C77_4 1_555 1_555
C78_4 C79_4 1_555 1_555
C79_4 C80_4 1_555 1_555
C80_4 H44_4 1_555 1_555
C81_4 C80_4 1_555 1_555
H45_4 C81_4 1_555 1_555
C82_4 C81_4 1_555 1_555
C83_4 C82_4 1_555 1_555
H46_4 C83_4 1_555 1_555
C84_4 C79_4 1_555 1_555
H47_4 C84_4 1_555 1_555
N3_4 C47_4 1_555 1_555
N4_4 C68_4 1_555 1_555
O13_4 Al1_2 1_555 1_555
O14_4 C43_4 1_555 1_555
O19_4 Al1_2 1_555 1_555
O20_4 Al9_2 1_555 1_555
O43 C78_4 1_555 1_555
O44 C78_4 1_555 1_555
O45_2 C71_4 1_555 1_555
O46_2 C71_4 1_555 1_555
O25_4 Al1_2 1_555 1_555
O27_4 Al1_2 1_555 1_555
H50_4 O27_4 1_555 1_555
H51_4 O27_4 1_555 1_555
O28_4 Al9_2 1_555 1_555
H52_4 O28_4 1_555 1_555
H53_4 O28_4 1_555 1_555
O41_2 Al1_2 1_555 1_555
Al9_2 O25_4 1_555 1_555
C43_4 O13_4 1_555 1_555
C48_4 C49_4 1_555 1_555
C54_4 N3_4 1_555 1_555
C64_4 O19_4 1_555 1_555
C64_4 O20_4 1_555 1_555
C69_4 C70_4 1_555 1_555
C75_4 N4_4 1_555 1_555
C76_4 C77_4 1_555 1_555
C82_4 N4_4 1_555 1_555
C83_4 C84_4 1_555 1_555
Al17 O7_4 1_555 1_555
C22_4 C23_4 1_555 1_555
C23_4 C24_4 1_555 1_555
C25_4 C24_4 1_555 1_555
H14_4 C25_4 1_555 1_555
C26_4 C25_4 1_555 1_555
C27_4 C26_4 1_555 1_555
C28_4 C23_4 1_555 1_555
H15_4 C28_4 1_555 1_555
C36_4 C37_4 1_555 1_555
C41_4 C40_4 1_555 1_555
H22_4 C41_4 1_555 1_555
C42_4 C37_4 1_555 1_555
H23_4 C42_4 1_555 1_555
H31_4 C56_4 1_555 1_555
N2_4 C26_4 1_555 1_555
O7_4 C22_4 1_555 1_555
O39_2 C36_4 1_555 1_555
O30_4 Al17 1_555 1_555
H54_4 O30_4 1_555 1_555
H55_4 O30_4 1_555 1_555
C27_4 C28_4 1_555 1_555
C40_4 N2_4 1_555 1_555
C41_4 C42_4 1_555 1_555
C27_4 H60_4 1_555 1_555
H29_4 C53_4 1_555 1_555
C57_4 C58_4 1_555 1_555
C58_4 C59_4 1_555 1_555
C60_4 C59_4 1_555 1_555
C61_4 C60_4 1_555 1_555
C62_4 C61_4 1_555 1_555
H34_4 C62_4 1_555 1_555
C63_4 C58_4 1_555 1_555
H35_4 C63_4 1_555 1_555
O41_2 C57_4 1_555 1_555
C62_4 C63_4 1_555 1_555
Al14 O8_4 1_555 1_555
Al18 O16_4 1_555 1_555
C50_4 C51_4 1_555 1_555
C51_4 C52_4 1_555 1_555
C52_4 H28_4 1_555 1_555
O15_4 Al14 1_555 1_555
O16_4 C50_4 1_555 1_555
O29_4 Al14 1_555 1_555
O31_4 Al18 1_555 1_555
H56_4 O31_4 1_555 1_555
H57_4 O31_4 1_555 1_555
O32_4 Al14 1_555 1_555
H58_4 O32_4 1_555 1_555
H59_4 O32_4 1_555 1_555
Al18 O29_4 1_555 1_555
C50_4 O15_4 1_555 1_555
Al12_2 O2_4 1_555 1_555
C1_4 C2_4 1_555 1_555
H3_4 C6_4 1_555 1_555
C7_4 C2_4 1_555 1_555
H4_4 C7_4 1_555 1_555
O2_4 C1_4 1_555 1_555
O26_4 Al12_2 1_555 1_555
H48_4 O26_4 1_555 1_555
H49_4 O26_4 1_555 1_555
O42_2 Al12_2 1_555 1_555
C6_4 C7_4 1_555 1_555
C3_4 H1_4 1_555 1_555
C4_4 C3_4 1_555 1_555
H2_4 C4_4 1_555 1_555
C5_4 C4_4 1_555 1_555
C8_4 C9_4 1_555 1_555
C9_4 C10_4 1_555 1_555
C10_4 H5_4 1_555 1_555
C11_4 C10_4 1_555 1_555
H6_4 C11_4 1_555 1_555
C12_4 C11_4 1_555 1_555
C13_4 C12_4 1_555 1_555
H7_4 C13_4 1_555 1_555
C14_4 C9_4 1_555 1_555
H8_4 C14_4 1_555 1_555
C15_4 C16_4 1_555 1_555
C16_4 C17_4 1_555 1_555
C17_4 H9_4 1_555 1_555
C18_4 C17_4 1_555 1_555
H10_4 C18_4 1_555 1_555
C19_4 C18_4 1_555 1_555
C20_4 C19_4 1_555 1_555
H11_4 C20_4 1_555 1_555
C21_4 C16_4 1_555 1_555
H12_4 C21_4 1_555 1_555
C29_4 C30_4 1_555 1_555
C30_4 C31_4 1_555 1_555
C31_4 H16_4 1_555 1_555
C32_4 C31_4 1_555 1_555
H17_4 C32_4 1_555 1_555
C33_4 C32_4 1_555 1_555
C34_4 C33_4 1_555 1_555
H18_4 C34_4 1_555 1_555
C35_4 C30_4 1_555 1_555
H19_4 C35_4 1_555 1_555
C38_4 H20_4 1_555 1_555
C39_4 C38_4 1_555 1_555
H21_4 C39_4 1_555 1_555
N1_4 C5_4 1_555 1_555
O33_2 C8_4 1_555 1_555
O34_2 C8_4 1_555 1_555
O35_2 C15_4 1_555 1_555
O36_2 C15_4 1_555 1_555
O37_2 C29_4 1_555 1_555
O38_2 C29_4 1_555 1_555
C12_4 N1_4 1_555 1_555
C13_4 C14_4 1_555 1_555
C19_4 N1_4 1_555 1_555
C20_4 C21_4 1_555 1_555
C34_4 C35_4 1_555 1_555

#END
