
###############################################################################
#
# This file contains modified crystal structure data generated from the
# MOF subset of the Cambridge Structural Database (CSD) v543 
# hosted by the Cambridge Crystallographic Data Centre (CCDC).
#
# This work is licensed under the Creative Commons
# Attribution-NonCommercial-ShareAlike 4.0 International License.
# To view a copy of this license, visit
# http://creativecommons.org/licenses/by-nc-sa/4.0/
# or send a letter to
# Creative Commons, PO Box 1866, Mountain View, CA 94042, USA.
#
# CIF created using the CSD Python API on 29 September 2022
# The structure has been converted into the P1 space group
# The structure has a 3D framework
# The original CSD entry OYIPEU is in the monoclinic crystal system
# The framework has been calculated to contain at least 10.0% void space
# The void calculation uses a probe of radius 1.32A, grid spacing 0.4
#
###############################################################################

data_OYIPEU
_chemical_formula_moiety         '(C184 H144 Co16 O132)n'
_symmetry_cell_setting           triclinic
_symmetry_space_group_name_H-M   'P 1'
_symmetry_Int_Tables_number      1
_space_group_name_Hall           'P 1'
loop_
_symmetry_equiv_pos_site_id
_symmetry_equiv_pos_as_xyz
1 x,y,z
_cell_length_a                   24.1721(8)
_cell_length_b                   14.7569(5)
_cell_length_c                   19.8894(6)
_cell_angle_alpha                90
_cell_angle_beta                 127.42
_cell_angle_gamma                90
_cell_volume                     5634.59
loop_
_atom_site_label
_atom_site_type_symbol
_atom_site_fract_x
_atom_site_fract_y
_atom_site_fract_z
O6 O 0.30969(12) 0.11429(15) 0.38245(14)
H3 H 0.285103 0.148957 0.336390
H4 H 0.346071 0.148980 0.419710
O9 O 0.44336(12) 0.05075(16) 0.43775(15)
H5 H 0.441764 0.109394 0.450826
H6 H 0.463795 0.056562 0.411619
O16 O 0.37674(17) 0.03310(17) 0.71664(18)
Co4 Co 0.34290(2) 0.00584(3) 0.85759(2)
O19 O 0.33560(12) 0.06448(15) 0.26156(14)
Co1 Co 0.83173(2) 0.74086(3) 0.82072(2)
Co2 Co 0.34290(2) 0.99416(3) 0.35759(2)
O1 O 0.35502(12) 0.93714(15) 0.45933(14)
O2 O 0.88708(11) 0.61885(14) 0.83604(13)
O3 O 0.33560(12) 0.93552(15) 0.76156(14)
O4 O 0.79221(12) 0.86818(16) 0.81872(16)
H1 H 0.804579 0.909631 0.797765
H2 H 0.811991 0.887704 0.871022
O5 O 0.73930(11) 0.54219(15) 0.76945(14)
O7 O 0.42604(12) 0.69380(15) 0.39566(14)
O8 O 0.73445(11) 0.68956(16) 0.73714(15)
O10 O 0.48643(12) 0.46270(16) 0.61418(17)
O11 O 0.50947(12) 0.79837(16) 0.46159(15)
O12 O 0.19446(13) 0.37676(17) 0.47812(16)
H7 H 0.164450 0.336813 0.447826
O13 O 0.33841(15) 0.79024(16) 0.42495(16)
O14 O 0.82262(14) 0.78234(18) 0.71289(15)
H8 H 0.862871 0.775246 0.721682
H9 H 0.815034 0.841382 0.704957
O15 O 0.25076(13) 0.31102(17) 0.43349(16)
O17 O 0.33720(16) 0.63743(16) 0.65041(17)
C1 C 0.34681(17) 0.8555(2) 0.4700(2)
C2 C 0.59457(16) 0.6702(2) 0.5983(2)
H10 H 0.619249 0.719020 0.596545
C3 C 0.52291(16) 0.6617(2) 0.5353(2)
C4 C 0.3470(2) 0.8344(2) 0.5443(2)
C5 C 0.48606(16) 0.5932(2) 0.5405(2)
H11 H 0.437215 0.587422 0.498116
C6 C 0.62990(16) 0.6071(2) 0.6637(2)
C7 C 0.70760(16) 0.6137(2) 0.72887(19)
C8 C 0.48361(16) 0.7227(2) 0.4593(2)
C9 C 0.59310(16) 0.5384(2) 0.6688(2)
H12 H 0.616792 0.495144 0.713363
C10 C 0.42225(17) 0.4811(2) 0.5962(2)
C11 C 0.41341(17) 0.5553(2) 0.6318(2)
H13 H 0.449983 0.597713 0.665536
C12 C 0.35492(19) 0.9559(2) 0.7176(2)
C13 C 0.29665(18) 0.5032(2) 0.5698(2)
H14 H 0.254136 0.509866 0.562370
C14 C 0.3413(2) 0.7449(2) 0.5602(2)
H15 H 0.336739 0.697997 0.524455
C15 C 0.30659(17) 0.4304(2) 0.5340(2)
C16 C 0.52122(17) 0.5339(2) 0.6079(2)
C17 C 0.36912(17) 0.4193(2) 0.5459(2)
H16 H 0.375315 0.370289 0.520146
C18 C 0.3423(2) 0.7245(2) 0.6290(2)
C19 C 0.3454(2) 0.7924(2) 0.6791(2)
H17 H 0.343773 0.777856 0.724402
C20 C 0.3528(2) 0.9034(2) 0.5958(2)
H18 H 0.357917 0.964535 0.585542
C21 C 0.24823(17) 0.3662(2) 0.4768(2)
C22 C 0.34962(19) 0.5657(2) 0.6165(2)
C23 C 0.3509(2) 0.8823(2) 0.6625(2)
Co3 Co 0.33173(2) 0.75914(3) 0.32072(2)
Co5 Co 0.84290(2) 0.50584(3) 0.85759(2)
O18 O 0.38708(11) 0.88115(14) 0.33604(13)
O20 O 0.23930(11) 0.95781(15) 0.26945(14)
O21 O 0.92604(12) 0.80620(15) 0.89566(14)
O22 O 0.83841(15) 0.70976(16) 0.92495(16)
Co1_2 Co 0.33173(2) 0.24086(3) 0.82072(2)
O2_2 O 0.38708(11) 0.11885(14) 0.83604(13)
O4_2 O 0.29221(12) 0.36818(16) 0.81872(16)
H1_2 H 0.304579 0.409631 0.797765
H2_2 H 0.311991 0.387704 0.871022
O5_2 O 0.23930(11) 0.04219(15) 0.76945(14)
O8_2 O 0.23445(11) 0.18956(16) 0.73714(15)
O11_2 O 0.00947(12) 0.29837(16) 0.46159(15)
O14_2 O 0.32262(14) 0.28234(18) 0.71289(15)
H8_2 H 0.362871 0.275246 0.721682
H9_2 H 0.315034 0.341382 0.704957
C2_2 C 0.09457(16) 0.1702(2) 0.5983(2)
H10_2 H 0.119249 0.219020 0.596545
C3_2 C 0.02291(16) 0.1617(2) 0.5353(2)
C6_2 C 0.12990(16) 0.1071(2) 0.6637(2)
C7_2 C 0.20760(16) 0.1137(2) 0.72887(19)
C9_2 C 0.09310(16) 0.0384(2) 0.6688(2)
C16_2 C 0.02122(17) 0.0339(2) 0.6079(2)
O21_2 O 0.42604(12) 0.30620(15) 0.89566(14)
O22_2 O 0.33841(15) 0.20976(16) 0.92495(16)
Co2_2 Co 0.84290(2) 0.49416(3) 0.35759(2)
O1_2 O 0.85502(12) 0.43714(15) 0.45933(14)
O3_2 O 0.83560(12) 0.43552(15) 0.76156(14)
O6_2 O 0.80969(12) 0.61429(15) 0.38245(14)
H3_2 H 0.785103 0.648957 0.336390
H4_2 H 0.846071 0.648980 0.419710
O7_2 O 0.92604(12) 0.19380(15) 0.39566(14)
O9_2 O 0.94336(12) 0.55075(16) 0.43775(15)
H5_2 H 0.941764 0.609394 0.450826
H6_2 H 0.963795 0.556562 0.411619
O13_2 O 0.83841(15) 0.29024(16) 0.42495(16)
O16_2 O 0.87674(17) 0.53310(17) 0.71664(18)
O17_2 O 0.83720(16) 0.13743(16) 0.65041(17)
C1_2 C 0.84681(17) 0.3555(2) 0.4700(2)
C4_2 C 0.8470(2) 0.3344(2) 0.5443(2)
C5_2 C 0.98606(16) 0.0932(2) 0.5405(2)
H11_2 H 0.937215 0.087422 0.498116
C8_2 C 0.98361(16) 0.2227(2) 0.4593(2)
C11_2 C 0.91341(17) 0.0553(2) 0.6318(2)
H13_2 H 0.949983 0.097713 0.665536
C12_2 C 0.85492(19) 0.4559(2) 0.7176(2)
C13_2 C 0.79665(18) 0.0032(2) 0.5698(2)
H14_2 H 0.754136 0.009866 0.562370
C14_2 C 0.8413(2) 0.2449(2) 0.5602(2)
H15_2 H 0.836739 0.197997 0.524455
C18_2 C 0.8423(2) 0.2245(2) 0.6290(2)
C19_2 C 0.8454(2) 0.2924(2) 0.6791(2)
H17_2 H 0.843773 0.277856 0.724402
C20_2 C 0.8528(2) 0.4034(2) 0.5958(2)
H18_2 H 0.857917 0.464535 0.585542
C22_2 C 0.84962(19) 0.0657(2) 0.6165(2)
C23_2 C 0.8509(2) 0.3823(2) 0.6625(2)
Co3_2 Co 0.83173(2) 0.25914(3) 0.32072(2)
O18_2 O 0.88708(11) 0.38115(14) 0.33604(13)
O19_2 O 0.83560(12) 0.56448(15) 0.26156(14)
O20_2 O 0.73930(11) 0.45781(15) 0.26945(14)
O4_3 O 0.79221(12) 0.13182(16) 0.31872(16)
H1_3 H 0.804579 0.090369 0.297765
H2_3 H 0.811991 0.112296 0.371022
O8_3 O 0.73445(11) 0.31044(16) 0.23714(15)
O10_2 O 0.48643(12) 0.53730(16) 0.11418(17)
O14_3 O 0.82262(14) 0.21766(18) 0.21289(15)
H8_3 H 0.862871 0.224754 0.221682
H9_3 H 0.815034 0.158618 0.204957
O17_3 O 0.33720(16) 0.36257(16) 0.15041(17)
C2_3 C 0.59457(16) 0.3298(2) 0.0983(2)
H10_3 H 0.619249 0.280980 0.096545
C3_3 C 0.52291(16) 0.3383(2) 0.0353(2)
C4_3 C 0.3470(2) 0.1656(2) 0.0443(2)
C5_3 C 0.48606(16) 0.4068(2) 0.0405(2)
C6_3 C 0.62990(16) 0.3929(2) 0.1637(2)
C7_3 C 0.70760(16) 0.3863(2) 0.22887(19)
C9_3 C 0.59310(16) 0.4616(2) 0.1688(2)
H12_2 H 0.616792 0.504856 0.213363
C10_2 C 0.42225(17) 0.5189(2) 0.0962(2)
C11_3 C 0.41341(17) 0.4447(2) 0.1318(2)
H13_3 H 0.449983 0.402287 0.165536
C12_3 C 0.35492(19) 0.0441(2) 0.2176(2)
C13_3 C 0.29665(18) 0.4968(2) 0.0698(2)
H14_3 H 0.254136 0.490134 0.062370
C14_3 C 0.3413(2) 0.2551(2) 0.0602(2)
H15_3 H 0.336739 0.302003 0.024455
C15_2 C 0.30659(17) 0.5696(2) 0.0340(2)
C16_3 C 0.52122(17) 0.4661(2) 0.1079(2)
C17_2 C 0.36912(17) 0.5807(2) 0.0459(2)
H16_2 H 0.375315 0.629711 0.020146
C18_3 C 0.3423(2) 0.2755(2) 0.1290(2)
C19_3 C 0.3454(2) 0.2076(2) 0.1791(2)
H17_3 H 0.343773 0.222144 0.224402
C20_3 C 0.3528(2) 0.0966(2) 0.0958(2)
H18_3 H 0.357917 0.035465 0.085542
C22_3 C 0.34962(19) 0.4343(2) 0.1165(2)
C23_3 C 0.3509(2) 0.1177(2) 0.1625(2)
O1_3 O 0.35502(12) 0.06286(15) 0.95933(14)
O11_3 O 0.50947(12) 0.20163(16) 0.96159(15)
O12_2 O 0.19446(13) 0.62324(17) 0.97812(16)
H7_2 H 0.164450 0.663187 0.947826
O15_2 O 0.25076(13) 0.68898(17) 0.93349(16)
C1_3 C 0.34681(17) 0.1445(2) 0.9700(2)
H11_3 H 0.437215 0.412578 0.998116
C8_3 C 0.48361(16) 0.2773(2) 0.9593(2)
C21_2 C 0.24823(17) 0.6338(2) 0.9768(2)
O16_3 O 0.37674(17) 0.96690(17) 0.21664(18)
O6_3 O 0.30969(12) 0.88571(15) 0.88245(14)
H3_3 H 0.285103 0.851043 0.836390
H4_3 H 0.346071 0.851020 0.919710
O9_3 O 0.44336(12) 0.94925(16) 0.93775(15)
H5_3 H 0.441764 0.890606 0.950826
H6_3 H 0.463795 0.943438 0.911619
O4_4 O 0.29221(12) 0.63182(16) 0.31872(16)
H1_4 H 0.304579 0.590369 0.297765
H2_4 H 0.311991 0.612296 0.371022
O8_4 O 0.23445(11) 0.81044(16) 0.23714(15)
O14_4 O 0.32262(14) 0.71766(18) 0.21289(15)
H8_4 H 0.362871 0.724754 0.221682
H9_4 H 0.315034 0.658618 0.204957
C2_4 C 0.09457(16) 0.8298(2) 0.0983(2)
H10_4 H 0.119249 0.780980 0.096545
C3_4 C 0.02291(16) 0.8383(2) 0.0353(2)
C6_4 C 0.12990(16) 0.8929(2) 0.1637(2)
C7_4 C 0.20760(16) 0.8863(2) 0.22887(19)
C9_4 C 0.09310(16) 0.9616(2) 0.1688(2)
C16_4 C 0.02122(17) 0.9661(2) 0.1079(2)
O16_4 O 0.87674(17) 0.46690(17) 0.21664(18)
O17_4 O 0.83720(16) 0.86257(16) 0.15041(17)
C4_4 C 0.8470(2) 0.6656(2) 0.0443(2)
C5_4 C 0.98606(16) 0.9068(2) 0.0405(2)
C11_4 C 0.91341(17) 0.9447(2) 0.1318(2)
H13_4 H 0.949983 0.902287 0.165536
C12_4 C 0.85492(19) 0.5441(2) 0.2176(2)
C13_4 C 0.79665(18) 0.9968(2) 0.0698(2)
H14_4 H 0.754136 0.990134 0.062370
C14_4 C 0.8413(2) 0.7551(2) 0.0602(2)
H15_4 H 0.836739 0.802003 0.024455
C18_4 C 0.8423(2) 0.7755(2) 0.1290(2)
C19_4 C 0.8454(2) 0.7076(2) 0.1791(2)
H17_4 H 0.843773 0.722144 0.224402
C20_4 C 0.8528(2) 0.5966(2) 0.0958(2)
H18_4 H 0.857917 0.535465 0.085542
C22_4 C 0.84962(19) 0.9343(2) 0.1165(2)
C23_4 C 0.8509(2) 0.6177(2) 0.1625(2)
O1_4 O 0.85502(12) 0.56286(15) 0.95933(14)
O6_4 O 0.80969(12) 0.38571(15) 0.88245(14)
H3_4 H 0.785103 0.351043 0.836390
H4_4 H 0.846071 0.351020 0.919710
O9_4 O 0.94336(12) 0.44925(16) 0.93775(15)
H5_4 H 0.941764 0.390606 0.950826
H6_4 H 0.963795 0.443438 0.911619
C1_4 C 0.84681(17) 0.6445(2) 0.9700(2)
H11_4 H 0.937215 0.912578 0.998116
C8_4 C 0.98361(16) 0.7773(2) 0.9593(2)
O6_5 O 0.69031(12) 0.11429(15) 0.11755(14)
H3_5 H 0.714897 0.148957 0.163610
H4_5 H 0.653929 0.148980 0.080290
O9_5 O 0.55664(12) 0.05075(16) 0.06225(15)
H5_5 H 0.558236 0.109394 0.049174
H6_5 H 0.536205 0.056562 0.088381
O19_3 O 0.66440(12) 0.06448(15) 0.23844(14)
O16_5 O 0.62326(17) 0.03310(17) 0.78336(18)
Co4_2 Co 0.65710(2) 0.00584(3) 0.64241(2)
Co2_3 Co 0.65710(2) 0.99416(3) 0.14241(2)
O1_5 O 0.64498(12) 0.93714(15) 0.04067(14)
O7_3 O 0.57396(12) 0.69380(15) 0.10434(14)
O11_4 O 0.49053(12) 0.79837(16) 0.03841(15)
O12_3 O 0.80554(13) 0.37676(17) 0.02188(16)
H7_3 H 0.835550 0.336813 0.052174
O13_3 O 0.66159(15) 0.79024(16) 0.07505(16)
O15_3 O 0.74924(13) 0.31102(17) 0.06651(16)
C1_5 C 0.65319(17) 0.8555(2) 0.0300(2)
H11_5 H 0.562785 0.587422 0.001884
C8_5 C 0.51639(16) 0.7227(2) 0.0407(2)
C21_3 C 0.75177(17) 0.3662(2) 0.0232(2)
Co3_3 Co 0.66827(2) 0.75914(3) 0.17928(2)
O18_3 O 0.61292(11) 0.88115(14) 0.16396(13)
O20_3 O 0.76070(11) 0.95781(15) 0.23055(14)
Co1_3 Co 0.16827(2) 0.74086(3) 0.67928(2)
O2_3 O 0.11292(11) 0.61885(14) 0.66396(13)
O3_3 O 0.66440(12) 0.93552(15) 0.73844(14)
O4_5 O 0.20779(12) 0.86818(16) 0.68128(16)
H1_5 H 0.195421 0.909631 0.702235
H2_5 H 0.188009 0.887704 0.628978
O5_3 O 0.26070(11) 0.54219(15) 0.73055(14)
O8_5 O 0.26555(11) 0.68956(16) 0.76286(15)
O10_3 O 0.51357(12) 0.46270(16) 0.88582(17)
O14_5 O 0.17738(14) 0.78234(18) 0.78711(15)
H8_5 H 0.137129 0.775246 0.778318
H9_5 H 0.184966 0.841382 0.795043
O17_5 O 0.66280(16) 0.63743(16) 0.84959(17)
C2_5 C 0.40543(16) 0.6702(2) 0.9017(2)
H10_5 H 0.380751 0.719020 0.903455
C3_5 C 0.47709(16) 0.6617(2) 0.9647(2)
C4_5 C 0.6530(2) 0.8344(2) 0.9557(2)
C5_5 C 0.51394(16) 0.5932(2) 0.9595(2)
C6_5 C 0.37010(16) 0.6071(2) 0.8363(2)
C7_5 C 0.29240(16) 0.6137(2) 0.77113(19)
C9_5 C 0.40690(16) 0.5384(2) 0.8312(2)
H12_3 H 0.383208 0.495144 0.786637
C10_3 C 0.57775(17) 0.4811(2) 0.9038(2)
C11_5 C 0.58659(17) 0.5553(2) 0.8682(2)
H13_5 H 0.550017 0.597713 0.834464
C12_5 C 0.64508(19) 0.9559(2) 0.7824(2)
C13_5 C 0.70335(18) 0.5032(2) 0.9302(2)
H14_5 H 0.745864 0.509866 0.937630
C14_5 C 0.6587(2) 0.7449(2) 0.9398(2)
H15_5 H 0.663261 0.697997 0.975545
C15_3 C 0.69341(17) 0.4304(2) 0.9660(2)
C16_5 C 0.47878(17) 0.5339(2) 0.8921(2)
C17_3 C 0.63088(17) 0.4193(2) 0.9541(2)
H16_3 H 0.624685 0.370289 0.979854
C18_5 C 0.6577(2) 0.7245(2) 0.8710(2)
C19_5 C 0.6546(2) 0.7924(2) 0.8209(2)
H17_5 H 0.656227 0.777856 0.775598
C20_5 C 0.6472(2) 0.9034(2) 0.9042(2)
H18_5 H 0.642083 0.964535 0.914458
C22_5 C 0.65038(19) 0.5657(2) 0.8835(2)
C23_5 C 0.6491(2) 0.8823(2) 0.8375(2)
Co5_2 Co 0.15710(2) 0.50584(3) 0.64241(2)
O21_3 O 0.07396(12) 0.80620(15) 0.60434(14)
O22_3 O 0.16159(15) 0.70976(16) 0.57505(16)
Co2_4 Co 0.15710(2) 0.49416(3) 0.14241(2)
O1_6 O 0.14498(12) 0.43714(15) 0.04067(14)
O6_6 O 0.19031(12) 0.61429(15) 0.11755(14)
H3_6 H 0.214897 0.648957 0.163610
H4_6 H 0.153929 0.648980 0.080290
O7_4 O 0.07396(12) 0.19380(15) 0.10434(14)
O9_6 O 0.05664(12) 0.55075(16) 0.06225(15)
H5_6 H 0.058236 0.609394 0.049174
H6_6 H 0.036205 0.556562 0.088381
O13_4 O 0.16159(15) 0.29024(16) 0.07505(16)
C1_6 C 0.15319(17) 0.3555(2) 0.0300(2)
H11_6 H 0.062785 0.087422 0.001884
C8_6 C 0.01639(16) 0.2227(2) 0.0407(2)
Co3_4 Co 0.16827(2) 0.25914(3) 0.17928(2)
O18_4 O 0.11292(11) 0.38115(14) 0.16396(13)
O19_4 O 0.16440(12) 0.56448(15) 0.23844(14)
O20_4 O 0.26070(11) 0.45781(15) 0.23055(14)
O3_4 O 0.16440(12) 0.43552(15) 0.73844(14)
O16_6 O 0.12326(17) 0.53310(17) 0.78336(18)
O17_6 O 0.16280(16) 0.13743(16) 0.84959(17)
C4_6 C 0.1530(2) 0.3344(2) 0.9557(2)
C5_6 C 0.01394(16) 0.0932(2) 0.9595(2)
C11_6 C 0.08659(17) 0.0553(2) 0.8682(2)
H13_6 H 0.050017 0.097713 0.834464
C12_6 C 0.14508(19) 0.4559(2) 0.7824(2)
C13_6 C 0.20335(18) 0.0032(2) 0.9302(2)
H14_6 H 0.245864 0.009866 0.937630
C14_6 C 0.1587(2) 0.2449(2) 0.9398(2)
H15_6 H 0.163261 0.197997 0.975545
C18_6 C 0.1577(2) 0.2245(2) 0.8710(2)
C19_6 C 0.1546(2) 0.2924(2) 0.8209(2)
H17_6 H 0.156227 0.277856 0.775598
C20_6 C 0.1472(2) 0.4034(2) 0.9042(2)
H18_6 H 0.142083 0.464535 0.914458
C22_6 C 0.15038(19) 0.0657(2) 0.8835(2)
C23_6 C 0.1491(2) 0.3823(2) 0.8375(2)
Co1_4 Co 0.66827(2) 0.24086(3) 0.67928(2)
O2_4 O 0.61292(11) 0.11885(14) 0.66396(13)
O4_6 O 0.70779(12) 0.36818(16) 0.68128(16)
H1_6 H 0.695421 0.409631 0.702235
H2_6 H 0.688009 0.387704 0.628978
O5_4 O 0.76070(11) 0.04219(15) 0.73055(14)
O8_6 O 0.76555(11) 0.18956(16) 0.76286(15)
O14_6 O 0.67738(14) 0.28234(18) 0.78711(15)
H8_6 H 0.637129 0.275246 0.778318
H9_6 H 0.684966 0.341382 0.795043
C2_6 C 0.90543(16) 0.1702(2) 0.9017(2)
H10_6 H 0.880751 0.219020 0.903455
C3_6 C 0.97709(16) 0.1617(2) 0.9647(2)
C6_6 C 0.87010(16) 0.1071(2) 0.8363(2)
C7_6 C 0.79240(16) 0.1137(2) 0.77113(19)
C9_6 C 0.90690(16) 0.0384(2) 0.8312(2)
C16_6 C 0.97878(17) 0.0339(2) 0.8921(2)
O21_4 O 0.57396(12) 0.30620(15) 0.60434(14)
O22_4 O 0.66159(15) 0.20976(16) 0.57505(16)
O1_7 O 0.64498(12) 0.06286(15) 0.54067(14)
O4_7 O 0.20779(12) 0.13182(16) 0.18128(16)
H1_7 H 0.195421 0.090369 0.202235
H2_7 H 0.188009 0.112296 0.128978
O8_7 O 0.26555(11) 0.31044(16) 0.26286(15)
O10_4 O 0.51357(12) 0.53730(16) 0.38582(17)
O11_5 O 0.49053(12) 0.20163(16) 0.53841(15)
O12_4 O 0.80554(13) 0.62324(17) 0.52188(16)
H7_4 H 0.835550 0.663187 0.552174
O14_7 O 0.17738(14) 0.21766(18) 0.28711(15)
H8_7 H 0.137129 0.224754 0.278318
H9_7 H 0.184966 0.158618 0.295043
O15_4 O 0.74924(13) 0.68898(17) 0.56651(16)
O17_7 O 0.66280(16) 0.36257(16) 0.34959(17)
C1_7 C 0.65319(17) 0.1445(2) 0.5300(2)
C2_7 C 0.40543(16) 0.3298(2) 0.4017(2)
H10_7 H 0.380751 0.280980 0.403455
C3_7 C 0.47709(16) 0.3383(2) 0.4647(2)
C4_7 C 0.6530(2) 0.1656(2) 0.4557(2)
C5_7 C 0.51394(16) 0.4068(2) 0.4595(2)
H11_7 H 0.562785 0.412578 0.501884
C6_7 C 0.37010(16) 0.3929(2) 0.3363(2)
C7_7 C 0.29240(16) 0.3863(2) 0.27113(19)
C8_7 C 0.51639(16) 0.2773(2) 0.5407(2)
C9_7 C 0.40690(16) 0.4616(2) 0.3312(2)
H12_4 H 0.383208 0.504856 0.286637
C10_4 C 0.57775(17) 0.5189(2) 0.4038(2)
C11_7 C 0.58659(17) 0.4447(2) 0.3682(2)
H13_7 H 0.550017 0.402287 0.334464
C12_7 C 0.64508(19) 0.0441(2) 0.2824(2)
C13_7 C 0.70335(18) 0.4968(2) 0.4302(2)
H14_7 H 0.745864 0.490134 0.437630
C14_7 C 0.6587(2) 0.2551(2) 0.4398(2)
H15_7 H 0.663261 0.302003 0.475545
C15_4 C 0.69341(17) 0.5696(2) 0.4660(2)
C16_7 C 0.47878(17) 0.4661(2) 0.3921(2)
C17_4 C 0.63088(17) 0.5807(2) 0.4541(2)
H16_4 H 0.624685 0.629711 0.479854
C18_7 C 0.6577(2) 0.2755(2) 0.3710(2)
C19_7 C 0.6546(2) 0.2076(2) 0.3209(2)
H17_7 H 0.656227 0.222144 0.275598
C20_7 C 0.6472(2) 0.0966(2) 0.4042(2)
H18_7 H 0.642083 0.035465 0.414458
C21_4 C 0.75177(17) 0.6338(2) 0.5232(2)
C22_7 C 0.65038(19) 0.4343(2) 0.3835(2)
C23_7 C 0.6491(2) 0.1177(2) 0.3375(2)
O6_7 O 0.69031(12) 0.88571(15) 0.61755(14)
H3_7 H 0.714897 0.851043 0.663610
H4_7 H 0.653929 0.851020 0.580290
O9_7 O 0.55664(12) 0.94925(16) 0.56225(15)
H5_7 H 0.558236 0.890606 0.549174
H6_7 H 0.536205 0.943438 0.588381
O16_7 O 0.62326(17) 0.96690(17) 0.28336(18)
O1_8 O 0.14498(12) 0.56286(15) 0.54067(14)
O6_8 O 0.19031(12) 0.38571(15) 0.61755(14)
H3_8 H 0.214897 0.351043 0.663610
H4_8 H 0.153929 0.351020 0.580290
O9_8 O 0.05664(12) 0.44925(16) 0.56225(15)
H5_8 H 0.058236 0.390606 0.549174
H6_8 H 0.036205 0.443438 0.588381
O16_8 O 0.12326(17) 0.46690(17) 0.28336(18)
O17_8 O 0.16280(16) 0.86257(16) 0.34959(17)
C1_8 C 0.15319(17) 0.6445(2) 0.5300(2)
C4_8 C 0.1530(2) 0.6656(2) 0.4557(2)
C5_8 C 0.01394(16) 0.9068(2) 0.4595(2)
H11_8 H 0.062785 0.912578 0.501884
C8_8 C 0.01639(16) 0.7773(2) 0.5407(2)
C11_8 C 0.08659(17) 0.9447(2) 0.3682(2)
H13_8 H 0.050017 0.902287 0.334464
C12_8 C 0.14508(19) 0.5441(2) 0.2824(2)
C13_8 C 0.20335(18) 0.9968(2) 0.4302(2)
H14_8 H 0.245864 0.990134 0.437630
C14_8 C 0.1587(2) 0.7551(2) 0.4398(2)
H15_8 H 0.163261 0.802003 0.475545
C18_8 C 0.1577(2) 0.7755(2) 0.3710(2)
C19_8 C 0.1546(2) 0.7076(2) 0.3209(2)
H17_8 H 0.156227 0.722144 0.275598
C20_8 C 0.1472(2) 0.5966(2) 0.4042(2)
H18_8 H 0.142083 0.535465 0.414458
C22_8 C 0.15038(19) 0.9343(2) 0.3835(2)
C23_8 C 0.1491(2) 0.6177(2) 0.3375(2)
O4_8 O 0.70779(12) 0.63182(16) 0.18128(16)
H1_8 H 0.695421 0.590369 0.202235
H2_8 H 0.688009 0.612296 0.128978
O8_8 O 0.76555(11) 0.81044(16) 0.26286(15)
O11_6 O 0.99053(12) 0.70163(16) 0.53841(15)
O14_8 O 0.67738(14) 0.71766(18) 0.28711(15)
H8_8 H 0.637129 0.724754 0.278318
H9_8 H 0.684966 0.658618 0.295043
C2_8 C 0.90543(16) 0.8298(2) 0.4017(2)
H10_8 H 0.880751 0.780980 0.403455
C3_8 C 0.97709(16) 0.8383(2) 0.4647(2)
C6_8 C 0.87010(16) 0.8929(2) 0.3363(2)
C7_8 C 0.79240(16) 0.8863(2) 0.27113(19)
C9_8 C 0.90690(16) 0.9616(2) 0.3312(2)
C16_8 C 0.97878(17) 0.9661(2) 0.3921(2)
H12_5 H 0.116792 0.995144 0.713363
O10_5 O 0.98643(12) 0.96270(16) 0.61418(17)
O12_5 O 0.69446(13) 0.87676(17) 0.47812(16)
H7_5 H 0.664450 0.836813 0.447826
O15_5 O 0.75076(13) 0.81102(17) 0.43349(16)
C10_5 C 0.92225(17) 0.9811(2) 0.5962(2)
C15_5 C 0.80659(17) 0.9304(2) 0.5340(2)
C17_5 C 0.86912(17) 0.9193(2) 0.5459(2)
H16_5 H 0.875315 0.870289 0.520146
C21_5 C 0.74823(17) 0.8662(2) 0.4768(2)
O12_6 O 0.30554(13) 0.87676(17) 0.02188(16)
H7_6 H 0.335550 0.836813 0.052174
O15_6 O 0.24924(13) 0.81102(17) 0.06651(16)
C21_6 C 0.25177(17) 0.8662(2) 0.0232(2)
O10_6 O 0.01357(12) 0.96270(16) 0.88582(17)
C10_6 C 0.07775(17) 0.9811(2) 0.9038(2)
C15_6 C 0.19341(17) 0.9304(2) 0.9660(2)
C17_6 C 0.13088(17) 0.9193(2) 0.9541(2)
H16_6 H 0.124685 0.870289 0.979854
O11_7 O 0.99053(12) 0.29837(16) 0.03841(15)
H12_6 H 0.883208 0.995144 0.786637
O10_7 O 0.01357(12) 0.03730(16) 0.38582(17)
O12_7 O 0.30554(13) 0.12324(17) 0.52188(16)
H7_7 H 0.335550 0.163187 0.552174
O15_7 O 0.24924(13) 0.18898(17) 0.56651(16)
C10_7 C 0.07775(17) 0.0189(2) 0.4038(2)
C15_7 C 0.19341(17) 0.0696(2) 0.4660(2)
C17_7 C 0.13088(17) 0.0807(2) 0.4541(2)
H16_7 H 0.124685 0.129711 0.479854
C21_7 C 0.25177(17) 0.1338(2) 0.5232(2)
H12_7 H 0.883208 0.004856 0.286637
H12_8 H 0.116792 0.004856 0.213363
O11_8 O 0.00947(12) 0.70163(16) 0.96159(15)
O10_8 O 0.98643(12) 0.03730(16) 0.11418(17)
C10_8 C 0.92225(17) 0.0189(2) 0.0962(2)
C15_8 C 0.80659(17) 0.0696(2) 0.0340(2)
C17_8 C 0.86912(17) 0.0807(2) 0.0459(2)
H16_8 H 0.875315 0.129711 0.020146
O12_8 O 0.69446(13) 0.12324(17) 0.97812(16)
H7_8 H 0.664450 0.163187 0.947826
O15_8 O 0.75076(13) 0.18898(17) 0.93349(16)
C21_8 C 0.74823(17) 0.1338(2) 0.9768(2)
loop_
_geom_bond_atom_site_label_1
_geom_bond_atom_site_label_2
_geom_bond_site_symmetry_1
_geom_bond_site_symmetry_2
H3 O6 1_555 1_555
H4 O6 1_555 1_555
H5 O9 1_555 1_555
H6 O9 1_555 1_555
Co1 O2 1_555 1_555
Co2 O1 1_555 1_555
O1 C1 1_555 1_555
O2 Co5 1_555 1_555
O3 C12 1_555 1_555
O4 Co1 1_555 1_555
H1 O4 1_555 1_555
H2 O4 1_555 1_555
O5 C7 1_555 1_555
O7 C8 1_555 1_555
O8 Co1 1_555 1_555
O10 C10 1_555 1_555
O11 C8 1_555 1_555
O12 H7 1_555 1_555
O13 C1 1_555 1_555
O14 Co1 1_555 1_555
H8 O14 1_555 1_555
H9 O14 1_555 1_555
O15 C21 1_555 1_555
O17 C18 1_555 1_555
C1 C4 1_555 1_555
C2 H10 1_555 1_555
C3 C2 1_555 1_555
C4 C14 1_555 1_555
C5 C3 1_555 1_555
H11 C5 1_555 1_555
C6 C2 1_555 1_555
C7 O8 1_555 1_555
C8 C3 1_555 1_555
C9 C6 1_555 1_555
H12 C9 1_555 1_555
C10 C11 1_555 1_555
C11 H13 1_555 1_555
C12 C23 1_555 1_555
C13 H14 1_555 1_555
C14 H15 1_555 1_555
C15 C13 1_555 1_555
C16 O10 1_555 1_555
C17 C10 1_555 1_555
H16 C17 1_555 1_555
C18 C14 1_555 1_555
C19 C18 1_555 1_555
H17 C19 1_555 1_555
C20 C4 1_555 1_555
H18 C20 1_555 1_555
C21 O12 1_555 1_555
C22 O17 1_555 1_555
C23 C19 1_555 1_555
Co3 O7 1_555 1_555
Co5 O5 1_555 1_555
O18 Co2 1_555 1_555
O20 Co2 1_555 1_555
O21 Co1 1_555 1_555
O22 Co1 1_555 1_555
O13 Co3 1_555 1_555
C5 C16 1_555 1_555
C6 C7 1_555 1_555
C9 C16 1_555 1_555
C11 C22 1_555 1_555
C13 C22 1_555 1_555
C15 C17 1_555 1_555
C15 C21 1_555 1_555
C20 C23 1_555 1_555
Co3 O18 1_555 1_555
Co1_2 O2_2 1_555 1_555
O2_2 Co4 1_555 1_555
O4_2 Co1_2 1_555 1_555
H1_2 O4_2 1_555 1_555
H2_2 O4_2 1_555 1_555
O5_2 C7_2 1_555 1_555
O8_2 Co1_2 1_555 1_555
O14_2 Co1_2 1_555 1_555
H8_2 O14_2 1_555 1_555
H9_2 O14_2 1_555 1_555
C2_2 H10_2 1_555 1_555
C3_2 C2_2 1_555 1_555
C6_2 C2_2 1_555 1_555
C7_2 O8_2 1_555 1_555
C9_2 C6_2 1_555 1_555
Co4 O5_2 1_555 1_555
O21_2 Co1_2 1_555 1_555
O22_2 Co1_2 1_555 1_555
C6_2 C7_2 1_555 1_555
C9_2 C16_2 1_555 1_555
Co2_2 O1_2 1_555 1_555
O1_2 C1_2 1_555 1_555
O3_2 C12_2 1_555 1_555
O6_2 Co2_2 1_555 1_555
H3_2 O6_2 1_555 1_555
H4_2 O6_2 1_555 1_555
O7_2 C8_2 1_555 1_555
O9_2 Co2_2 1_555 1_555
H5_2 O9_2 1_555 1_555
H6_2 O9_2 1_555 1_555
O13_2 C1_2 1_555 1_555
O16_2 C12_2 1_555 1_555
O17_2 C18_2 1_555 1_555
C1_2 C4_2 1_555 1_555
C4_2 C14_2 1_555 1_555
H11_2 C5_2 1_555 1_555
C11_2 H13_2 1_555 1_555
C12_2 C23_2 1_555 1_555
C13_2 H14_2 1_555 1_555
C14_2 H15_2 1_555 1_555
C18_2 C14_2 1_555 1_555
C19_2 C18_2 1_555 1_555
H17_2 C19_2 1_555 1_555
C20_2 C4_2 1_555 1_555
H18_2 C20_2 1_555 1_555
C22_2 O17_2 1_555 1_555
C23_2 C19_2 1_555 1_555
Co3_2 O7_2 1_555 1_555
Co5 O3_2 1_555 1_555
O18_2 Co2_2 1_555 1_555
O19_2 Co2_2 1_555 1_555
O20_2 Co2_2 1_555 1_555
O13_2 Co3_2 1_555 1_555
C11_2 C22_2 1_555 1_555
C13_2 C22_2 1_555 1_555
C20_2 C23_2 1_555 1_555
Co3_2 O18_2 1_555 1_555
O19 C12_3 1_555 1_555
O4_3 Co3_2 1_555 1_555
H1_3 O4_3 1_555 1_555
H2_3 O4_3 1_555 1_555
O20_2 C7_3 1_555 1_555
O8_3 Co3_2 1_555 1_555
O10_2 C10_2 1_555 1_555
O14_3 Co3_2 1_555 1_555
H8_3 O14_3 1_555 1_555
H9_3 O14_3 1_555 1_555
O17_3 C18_3 1_555 1_555
C2_3 H10_3 1_555 1_555
C3_3 C2_3 1_555 1_555
C4_3 C14_3 1_555 1_555
C5_3 C3_3 1_555 1_555
C6_3 C2_3 1_555 1_555
C7_3 O8_3 1_555 1_555
C9_3 C6_3 1_555 1_555
H12_2 C9_3 1_555 1_555
C10_2 C11_3 1_555 1_555
C11_3 H13_3 1_555 1_555
C12_3 C23_3 1_555 1_555
C13_3 H14_3 1_555 1_555
C14_3 H15_3 1_555 1_555
C15_2 C13_3 1_555 1_555
C16_3 O10_2 1_555 1_555
C17_2 C10_2 1_555 1_555
H16_2 C17_2 1_555 1_555
C18_3 C14_3 1_555 1_555
C19_3 C18_3 1_555 1_555
H17_3 C19_3 1_555 1_555
C20_3 C4_3 1_555 1_555
H18_3 C20_3 1_555 1_555
C22_3 O17_3 1_555 1_555
C23_3 C19_3 1_555 1_555
C5_3 C16_3 1_555 1_555
C6_3 C7_3 1_555 1_555
C9_3 C16_3 1_555 1_555
C11_3 C22_3 1_555 1_555
C13_3 C22_3 1_555 1_555
C15_2 C17_2 1_555 1_555
C20_3 C23_3 1_555 1_555
Co4 O1_3 1_555 1_555
O1_3 C1_3 1_555 1_555
O21_2 C8_3 1_555 1_555
O11_3 C8_3 1_555 1_555
O12_2 H7_2 1_555 1_555
O22_2 C1_3 1_555 1_555
O15_2 C21_2 1_555 1_555
C21_2 O12_2 1_555 1_555
H3_3 O6_3 1_555 1_555
H4_3 O6_3 1_555 1_555
H5_3 O9_3 1_555 1_555
H6_3 O9_3 1_555 1_555
O4_4 Co3 1_555 1_555
H1_4 O4_4 1_555 1_555
H2_4 O4_4 1_555 1_555
O20 C7_4 1_555 1_555
O8_4 Co3 1_555 1_555
O14_4 Co3 1_555 1_555
H8_4 O14_4 1_555 1_555
H9_4 O14_4 1_555 1_555
C2_4 H10_4 1_555 1_555
C3_4 C2_4 1_555 1_555
C6_4 C2_4 1_555 1_555
C7_4 O8_4 1_555 1_555
C9_4 C6_4 1_555 1_555
C6_4 C7_4 1_555 1_555
C9_4 C16_4 1_555 1_555
O19_2 C12_4 1_555 1_555
O16_4 C12_4 1_555 1_555
O17_4 C18_4 1_555 1_555
C4_4 C14_4 1_555 1_555
C11_4 H13_4 1_555 1_555
C12_4 C23_4 1_555 1_555
C13_4 H14_4 1_555 1_555
C14_4 H15_4 1_555 1_555
C18_4 C14_4 1_555 1_555
C19_4 C18_4 1_555 1_555
H17_4 C19_4 1_555 1_555
C20_4 C4_4 1_555 1_555
H18_4 C20_4 1_555 1_555
C22_4 O17_4 1_555 1_555
C23_4 C19_4 1_555 1_555
C11_4 C22_4 1_555 1_555
C13_4 C22_4 1_555 1_555
C20_4 C23_4 1_555 1_555
Co5 O1_4 1_555 1_555
O1_4 C1_4 1_555 1_555
O6_4 Co5 1_555 1_555
H3_4 O6_4 1_555 1_555
H4_4 O6_4 1_555 1_555
O21 C8_4 1_555 1_555
O9_4 Co5 1_555 1_555
H5_4 O9_4 1_555 1_555
H6_4 O9_4 1_555 1_555
O22 C1_4 1_555 1_555
H3_5 O6_5 1_555 1_555
H4_5 O6_5 1_555 1_555
H5_5 O9_5 1_555 1_555
H6_5 O9_5 1_555 1_555
Co2_3 O1_5 1_555 1_555
O1_5 C1_5 1_555 1_555
O7_3 C8_5 1_555 1_555
O11_4 C8_5 1_555 1_555
O12_3 H7_3 1_555 1_555
O13_3 C1_5 1_555 1_555
O15_3 C21_3 1_555 1_555
C21_3 O12_3 1_555 1_555
Co3_3 O7_3 1_555 1_555
O18_3 Co2_3 1_555 1_555
O20_3 Co2_3 1_555 1_555
O13_3 Co3_3 1_555 1_555
Co3_3 O18_3 1_555 1_555
Co1_3 O2_3 1_555 1_555
O2_3 Co5_2 1_555 1_555
O3_3 C12_5 1_555 1_555
O4_5 Co1_3 1_555 1_555
H1_5 O4_5 1_555 1_555
H2_5 O4_5 1_555 1_555
O5_3 C7_5 1_555 1_555
O8_5 Co1_3 1_555 1_555
O10_3 C10_3 1_555 1_555
O14_5 Co1_3 1_555 1_555
H8_5 O14_5 1_555 1_555
H9_5 O14_5 1_555 1_555
O17_5 C18_5 1_555 1_555
C2_5 H10_5 1_555 1_555
C3_5 C2_5 1_555 1_555
C4_5 C14_5 1_555 1_555
C5_5 C3_5 1_555 1_555
C6_5 C2_5 1_555 1_555
C7_5 O8_5 1_555 1_555
C9_5 C6_5 1_555 1_555
H12_3 C9_5 1_555 1_555
C10_3 C11_5 1_555 1_555
C11_5 H13_5 1_555 1_555
C12_5 C23_5 1_555 1_555
C13_5 H14_5 1_555 1_555
C14_5 H15_5 1_555 1_555
C15_3 C13_5 1_555 1_555
C16_5 O10_3 1_555 1_555
C17_3 C10_3 1_555 1_555
H16_3 C17_3 1_555 1_555
C18_5 C14_5 1_555 1_555
C19_5 C18_5 1_555 1_555
H17_5 C19_5 1_555 1_555
C20_5 C4_5 1_555 1_555
H18_5 C20_5 1_555 1_555
C22_5 O17_5 1_555 1_555
C23_5 C19_5 1_555 1_555
Co5_2 O5_3 1_555 1_555
O21_3 Co1_3 1_555 1_555
O22_3 Co1_3 1_555 1_555
C5_5 C16_5 1_555 1_555
C6_5 C7_5 1_555 1_555
C9_5 C16_5 1_555 1_555
C11_5 C22_5 1_555 1_555
C13_5 C22_5 1_555 1_555
C15_3 C17_3 1_555 1_555
C20_5 C23_5 1_555 1_555
Co2_4 O1_6 1_555 1_555
O1_6 C1_6 1_555 1_555
O6_6 Co2_4 1_555 1_555
H3_6 O6_6 1_555 1_555
H4_6 O6_6 1_555 1_555
O7_4 C8_6 1_555 1_555
O9_6 Co2_4 1_555 1_555
H5_6 O9_6 1_555 1_555
H6_6 O9_6 1_555 1_555
O13_4 C1_6 1_555 1_555
Co3_4 O7_4 1_555 1_555
O18_4 Co2_4 1_555 1_555
O19_4 Co2_4 1_555 1_555
O20_4 Co2_4 1_555 1_555
O13_4 Co3_4 1_555 1_555
Co3_4 O18_4 1_555 1_555
O3_4 C12_6 1_555 1_555
O16_6 C12_6 1_555 1_555
O17_6 C18_6 1_555 1_555
C4_6 C14_6 1_555 1_555
C11_6 H13_6 1_555 1_555
C12_6 C23_6 1_555 1_555
C13_6 H14_6 1_555 1_555
C14_6 H15_6 1_555 1_555
C18_6 C14_6 1_555 1_555
C19_6 C18_6 1_555 1_555
H17_6 C19_6 1_555 1_555
C20_6 C4_6 1_555 1_555
H18_6 C20_6 1_555 1_555
C22_6 O17_6 1_555 1_555
C23_6 C19_6 1_555 1_555
Co5_2 O3_4 1_555 1_555
C11_6 C22_6 1_555 1_555
C13_6 C22_6 1_555 1_555
C20_6 C23_6 1_555 1_555
Co1_4 O2_4 1_555 1_555
O2_4 Co4_2 1_555 1_555
O4_6 Co1_4 1_555 1_555
H1_6 O4_6 1_555 1_555
H2_6 O4_6 1_555 1_555
O5_4 C7_6 1_555 1_555
O8_6 Co1_4 1_555 1_555
O14_6 Co1_4 1_555 1_555
H8_6 O14_6 1_555 1_555
H9_6 O14_6 1_555 1_555
C2_6 H10_6 1_555 1_555
C3_6 C2_6 1_555 1_555
C6_6 C2_6 1_555 1_555
C7_6 O8_6 1_555 1_555
C9_6 C6_6 1_555 1_555
Co4_2 O5_4 1_555 1_555
O21_4 Co1_4 1_555 1_555
O22_4 Co1_4 1_555 1_555
C6_6 C7_6 1_555 1_555
C9_6 C16_6 1_555 1_555
Co4_2 O1_7 1_555 1_555
O1_7 C1_7 1_555 1_555
O19_3 C12_7 1_555 1_555
O4_7 Co3_4 1_555 1_555
H1_7 O4_7 1_555 1_555
H2_7 O4_7 1_555 1_555
O20_4 C7_7 1_555 1_555
O21_4 C8_7 1_555 1_555
O8_7 Co3_4 1_555 1_555
O10_4 C10_4 1_555 1_555
O11_5 C8_7 1_555 1_555
O12_4 H7_4 1_555 1_555
O22_4 C1_7 1_555 1_555
O14_7 Co3_4 1_555 1_555
H8_7 O14_7 1_555 1_555
H9_7 O14_7 1_555 1_555
O15_4 C21_4 1_555 1_555
O17_7 C18_7 1_555 1_555
C1_7 C4_7 1_555 1_555
C2_7 H10_7 1_555 1_555
C3_7 C2_7 1_555 1_555
C4_7 C14_7 1_555 1_555
C5_7 C3_7 1_555 1_555
H11_7 C5_7 1_555 1_555
C6_7 C2_7 1_555 1_555
C7_7 O8_7 1_555 1_555
C8_7 C3_7 1_555 1_555
C9_7 C6_7 1_555 1_555
H12_4 C9_7 1_555 1_555
C10_4 C11_7 1_555 1_555
C11_7 H13_7 1_555 1_555
C12_7 C23_7 1_555 1_555
C13_7 H14_7 1_555 1_555
C14_7 H15_7 1_555 1_555
C15_4 C13_7 1_555 1_555
C16_7 O10_4 1_555 1_555
C17_4 C10_4 1_555 1_555
H16_4 C17_4 1_555 1_555
C18_7 C14_7 1_555 1_555
C19_7 C18_7 1_555 1_555
H17_7 C19_7 1_555 1_555
C20_7 C4_7 1_555 1_555
H18_7 C20_7 1_555 1_555
C21_4 O12_4 1_555 1_555
C22_7 O17_7 1_555 1_555
C23_7 C19_7 1_555 1_555
C5_7 C16_7 1_555 1_555
C6_7 C7_7 1_555 1_555
C9_7 C16_7 1_555 1_555
C11_7 C22_7 1_555 1_555
C13_7 C22_7 1_555 1_555
C15_4 C17_4 1_555 1_555
C15_4 C21_4 1_555 1_555
C20_7 C23_7 1_555 1_555
H3_7 O6_7 1_555 1_555
H4_7 O6_7 1_555 1_555
H5_7 O9_7 1_555 1_555
H6_7 O9_7 1_555 1_555
Co5_2 O1_8 1_555 1_555
O1_8 C1_8 1_555 1_555
O19_4 C12_8 1_555 1_555
O6_8 Co5_2 1_555 1_555
H3_8 O6_8 1_555 1_555
H4_8 O6_8 1_555 1_555
O21_3 C8_8 1_555 1_555
O9_8 Co5_2 1_555 1_555
H5_8 O9_8 1_555 1_555
H6_8 O9_8 1_555 1_555
O22_3 C1_8 1_555 1_555
O16_8 C12_8 1_555 1_555
O17_8 C18_8 1_555 1_555
C1_8 C4_8 1_555 1_555
C4_8 C14_8 1_555 1_555
H11_8 C5_8 1_555 1_555
C11_8 H13_8 1_555 1_555
C12_8 C23_8 1_555 1_555
C13_8 H14_8 1_555 1_555
C14_8 H15_8 1_555 1_555
C18_8 C14_8 1_555 1_555
C19_8 C18_8 1_555 1_555
H17_8 C19_8 1_555 1_555
C20_8 C4_8 1_555 1_555
H18_8 C20_8 1_555 1_555
C22_8 O17_8 1_555 1_555
C23_8 C19_8 1_555 1_555
C11_8 C22_8 1_555 1_555
C13_8 C22_8 1_555 1_555
C20_8 C23_8 1_555 1_555
O4_8 Co3_3 1_555 1_555
H1_8 O4_8 1_555 1_555
H2_8 O4_8 1_555 1_555
O20_3 C7_8 1_555 1_555
O8_8 Co3_3 1_555 1_555
O14_8 Co3_3 1_555 1_555
H8_8 O14_8 1_555 1_555
H9_8 O14_8 1_555 1_555
C2_8 H10_8 1_555 1_555
C3_8 C2_8 1_555 1_555
C6_8 C2_8 1_555 1_555
C7_8 O8_8 1_555 1_555
C9_8 C6_8 1_555 1_555
C6_8 C7_8 1_555 1_555
C9_8 C16_8 1_555 1_555
O10_5 C10_5 1_555 1_555
O12_5 H7_5 1_555 1_555
O15_5 C21_5 1_555 1_555
C17_5 C10_5 1_555 1_555
H16_5 C17_5 1_555 1_555
C21_5 O12_5 1_555 1_555
C15_5 C17_5 1_555 1_555
C15_5 C21_5 1_555 1_555
O12_6 H7_6 1_555 1_555
O15_6 C21_6 1_555 1_555
C21_6 O12_6 1_555 1_555
O10_6 C10_6 1_555 1_555
C17_6 C10_6 1_555 1_555
H16_6 C17_6 1_555 1_555
C15_6 C17_6 1_555 1_555
O10_7 C10_7 1_555 1_555
O12_7 H7_7 1_555 1_555
O15_7 C21_7 1_555 1_555
C17_7 C10_7 1_555 1_555
H16_7 C17_7 1_555 1_555
C21_7 O12_7 1_555 1_555
C15_7 C17_7 1_555 1_555
C15_7 C21_7 1_555 1_555
O10_8 C10_8 1_555 1_555
C17_8 C10_8 1_555 1_555
H16_8 C17_8 1_555 1_555
C15_8 C17_8 1_555 1_555
O12_8 H7_8 1_555 1_555
O15_8 C21_8 1_555 1_555
C21_8 O12_8 1_555 1_555

#END
