
###############################################################################
#
# This file contains modified crystal structure data generated from the
# MOF subset of the Cambridge Structural Database (CSD) v543 
# hosted by the Cambridge Crystallographic Data Centre (CCDC).
#
# This work is licensed under the Creative Commons
# Attribution-NonCommercial-ShareAlike 4.0 International License.
# To view a copy of this license, visit
# http://creativecommons.org/licenses/by-nc-sa/4.0/
# or send a letter to
# Creative Commons, PO Box 1866, Mountain View, CA 94042, USA.
#
# CIF created using the CSD Python API on 29 September 2022
# The structure has been converted into the P1 space group
# The structure has a 3D framework
# The original CSD entry OYIVEY is in the orthorhombic crystal system
# The framework has been calculated to contain at least 10.0% void space
# The void calculation uses a probe of radius 1.32A, grid spacing 0.4
# H atom positions have been added when not included in the experimental data
#
###############################################################################

data_OYIVEY
_chemical_formula_moiety         '(C172 H108 Cu21 N80 O34)n'
_symmetry_cell_setting           triclinic
_symmetry_space_group_name_H-M   'P 1'
_symmetry_Int_Tables_number      1
_space_group_name_Hall           'P 1'
loop_
_symmetry_equiv_pos_site_id
_symmetry_equiv_pos_as_xyz
1 x,y,z
_cell_length_a                   13.464(8)
_cell_length_b                   29.985(17)
_cell_length_c                   19.717(11)
_cell_angle_alpha                90
_cell_angle_beta                 90
_cell_angle_gamma                90
_cell_volume                     7960.11
loop_
_atom_site_label
_atom_site_type_symbol
_atom_site_fract_x
_atom_site_fract_y
_atom_site_fract_z
C53 C 0.1476(12) 0.6227(5) 0.0517(8)
C54 C 0.093(3) 0.7024(11) 0.0557(19)
H30 H 0.0281 0.6894 0.0537
H31 H 0.0923 0.7309 0.0335
H32 H 0.1124 0.7062 0.1022
Cu15 Cu 0.15019(7) 0.19931(3) 0.03105(13)
Cu19 Cu 0.02667(7) 0.54216(3) 0.03010(14)
C86 C 0.1682(12) 0.6715(5) 0.0198(13)
H49 H 0.2359 0.6810 0.0287
O30 O 0.0667(6) 0.6093(2) 0.0391(7)
O33 O 0.1106(7) 0.5233(4) 0.1039(5)
H53 H 0.155991 0.624616 0.106556
H54 H 0.201882 0.599403 0.0311734
H11 H 0.0482 0.2620 0.8658
C33 C 0.0033(10) 0.2401(5) 0.2272(7)
H18 H 0.0674 0.2454 0.2116
H19 H 0.0156 0.2781 0.3138
O1 O 0.0573(6) 0.2131(3) 0.9621(4)
O3 O 0.0533(10) 0.2031(4) 0.1063(7)
O7 O 0.0259(9) 0.6032(4) 0.5823(6)
O8 O 0.0262(7) 0.6016(3) 0.4748(5)
Cu7 Cu 0.11557(7) 0.64195(3) 0.53057(13)
H50 H 0.1572 0.6714 0.9711
O23 O 0.1305(7) 0.5247(4) 0.9646(5)
Cu10 Cu 0.38443(7) 0.14195(3) 0.03057(13)
Cu12 Cu 0.93115(7) 0.11918(3) 0.03164(13)
Cu23 Cu 0.97333(7) 0.45784(3) 0.03010(14)
O35 O 0.0649(8) 0.4537(4) 0.1027(6)
O36 O 0.9351(8) 0.5463(4) 0.1027(6)
C1 C 0.3318(12) 0.4535(6) 0.6875(8)
C2 C 0.2321(6) 0.5094(2) 0.8412(4)
H1 H 0.2353 0.5369 0.8627
C3 C 0.2848(6) 0.5021(3) 0.7817(4)
H2 H 0.3234 0.5248 0.7633
C4 C 0.2800(6) 0.4608(3) 0.7496(3)
C5 C 0.2224(7) 0.4269(2) 0.7772(5)
H3 H 0.2192 0.3993 0.7557
C6 C 0.1697(6) 0.4342(3) 0.8367(5)
H4 H 0.1311 0.4115 0.8551
C7 C 0.1745(5) 0.4754(3) 0.8688(3)
C8 C 0.1188(11) 0.4832(5) 0.9360(7)
C9 C 0.1312(14) 0.4860(7) 0.1202(10)
C12 C 0.9808(9) 0.1962(4) 0.9374(6)
C13 C 0.9370(6) 0.2169(3) 0.8728(4)
C14 C 0.8507(6) 0.2020(3) 0.8414(5)
H8 H 0.8150 0.1784 0.8602
C15 C 0.8179(6) 0.2222(4) 0.7821(5)
H9 H 0.7602 0.2122 0.7611
C16 C 0.8714(7) 0.2573(4) 0.7541(4)
C17 C 0.9577(7) 0.2722(3) 0.7855(4)
H10 H 0.9934 0.2957 0.7667
C18 C 0.9905(5) 0.2520(3) 0.8448(4)
C19 C 0.8289(12) 0.2799(5) 0.3674(8)
C20 C 0.8464(9) 0.2730(4) 0.6853(6)
C21 C 0.7182(6) 0.4401(3) 0.5330(10)
C22 C 0.7899(3) 0.47722(15) 0.5333(5)
C23 C 0.8141(6) 0.4995(2) 0.5929(4)
H12 H 0.7869 0.4903 0.6339
C24 C 0.8791(6) 0.5355(2) 0.5911(5)
H13 H 0.8953 0.5504 0.6309
C25 C 0.9199(4) 0.54923(17) 0.5298(6)
C26 C 0.8957(6) 0.5269(3) 0.4702(5)
H14 H 0.9229 0.5361 0.4292
C27 C 0.8307(6) 0.4909(2) 0.4720(4)
H15 H 0.8145 0.4760 0.4321
C28 C 0.9929(5) 0.5858(2) 0.5369(7)
C29 C 0.8764(9) 0.2524(4) 0.3089(6)
C30 C 0.8184(7) 0.2228(3) 0.2760(5)
H16 H 0.7571 0.2145 0.2936
C31 C 0.852(2) 0.2052(9) 0.2157(13)
H17 H 0.8104 0.1867 0.1906
C32 C 0.9461(15) 0.2144(6) 0.1916(9)
C34 C 0.9728(10) 0.2603(4) 0.2885(7)
C35 C 0.9683(12) 0.1873(6) 0.1248(9)
C36 C 0.2022(7) 0.4760(3) 0.1766(4)
C37 C 0.2500(7) 0.5118(3) 0.2074(5)
H20 H 0.2455 0.5402 0.1885
C38 C 0.3044(7) 0.5052(3) 0.2664(5)
H21 H 0.3364 0.5291 0.2870
C39 C 0.3111(7) 0.4628(3) 0.2947(4)
C40 C 0.2634(7) 0.4271(2) 0.2639(5)
H22 H 0.2678 0.3987 0.2827
C41 C 0.2089(7) 0.4337(3) 0.2048(5)
H23 H 0.1769 0.4098 0.1842
Cu1 Cu 0.5000 0.5000 0.52798(17)
Cu2 Cu 0.88443(7) 0.35805(3) 0.53057(13)
Cu3 Cu 0.43115(7) 0.38082(3) 0.53164(13)
Cu4 Cu 0.65019(7) 0.30069(3) 0.53105(13)
N1 N 0.3403(12) 0.4165(5) 0.6582(8)
N2 N 0.3768(8) 0.4872(4) 0.6567(6)
N3 N 0.4181(7) 0.4659(3) 0.6074(5)
N4 N 0.3978(7) 0.4267(3) 0.6040(5)
N5 N 0.5883(4) 0.4007(2) 0.5239(6)
N6 N 0.6222(4) 0.44276(18) 0.5251(6)
N7 N 0.7475(5) 0.3970(2) 0.5220(5)
N8 N 0.6617(5) 0.3730(2) 0.5325(9)
N9 N 0.4031(6) 0.4887(2) 0.4005(4)
N10 N 0.4292(6) 0.4689(3) 0.4636(3)
N11 N 0.3930(7) 0.4245(2) 0.4638(4)
N12 N 0.3446(7) 0.4167(2) 0.4009(5)
C42 C 0.3509(6) 0.4564(3) 0.3618(3)
N13 N 0.8457(7) 0.3159(4) 0.4577(5)
N14 N 0.7560(8) 0.2961(4) 0.4555(5)
N15 N 0.7521(9) 0.2715(4) 0.3975(6)
N16 N 0.9013(7) 0.3074(3) 0.4031(4)
N17 N 0.8335(9) 0.3187(5) 0.6019(7)
N18 N 0.7607(10) 0.2896(4) 0.6023(7)
N19 N 0.7582(7) 0.2630(3) 0.6520(5)
N20 N 0.8865(11) 0.3042(6) 0.6546(8)
O2 O 0.9075(8) 0.1672(4) 0.9698(5)
O4 O 0.9349(6) 0.1614(3) 0.1042(4)
O5 O 0.0847(7) 0.4503(3) 0.9611(5)
C44 C 0.6682(12) 0.5465(6) 0.6875(8)
C45 C 0.7679(6) 0.4906(2) 0.8412(4)
H26 H 0.7647 0.4631 0.8627
C46 C 0.7152(6) 0.4979(3) 0.7817(4)
H27 H 0.6766 0.4752 0.7633
C47 C 0.7200(6) 0.5392(3) 0.7496(3)
C48 C 0.7776(7) 0.5731(2) 0.7772(5)
H28 H 0.7808 0.6007 0.7557
C49 C 0.8303(6) 0.5658(3) 0.8367(5)
H29 H 0.8689 0.5885 0.8551
C50 C 0.8255(5) 0.5246(3) 0.8688(3)
C51 C 0.8812(11) 0.5168(5) 0.9360(7)
C52 C 0.8688(14) 0.5140(7) 0.1202(10)
C55 C 0.4808(9) 0.3038(4) 0.4374(6)
C56 C 0.4370(6) 0.2831(3) 0.3728(4)
C57 C 0.3507(6) 0.2980(3) 0.3414(5)
H33 H 0.3150 0.3216 0.3602
C58 C 0.3179(6) 0.2778(4) 0.2821(5)
H34 H 0.2602 0.2878 0.2611
C59 C 0.3714(7) 0.2427(4) 0.2541(4)
C60 C 0.4577(7) 0.2278(3) 0.2855(4)
H35 H 0.4934 0.2043 0.2667
C61 C 0.4905(5) 0.2480(3) 0.3448(4)
H36 H 0.5482 0.2380 0.3658
C62 C 0.3289(12) 0.2201(5) 0.8674(8)
C63 C 0.3464(9) 0.2270(4) 0.1853(6)
C64 C 0.2818(6) 0.5599(3) 0.5330(10)
C65 C 0.2101(3) 0.52278(15) 0.5333(5)
C66 C 0.1859(6) 0.5005(2) 0.5929(4)
H37 H 0.2131 0.5097 0.6339
C67 C 0.1209(6) 0.4645(2) 0.5911(5)
H38 H 0.1047 0.4496 0.6309
C68 C 0.0801(4) 0.45077(17) 0.5298(6)
C69 C 0.1043(6) 0.4731(3) 0.4702(5)
H39 H 0.0771 0.4639 0.4292
C70 C 0.1693(6) 0.5091(2) 0.4720(4)
H40 H 0.1855 0.5240 0.4321
C71 C 0.0071(5) 0.4142(2) 0.5369(7)
C72 C 0.3764(9) 0.2476(4) 0.8089(6)
C73 C 0.3184(7) 0.2772(3) 0.7760(5)
H41 H 0.2571 0.2855 0.7936
C74 C 0.352(2) 0.2948(9) 0.7157(13)
H42 H 0.3104 0.3133 0.6906
C75 C 0.4461(15) 0.2856(6) 0.6916(9)
C76 C 0.5033(10) 0.2599(5) 0.7272(7)
H43 H 0.5674 0.2546 0.7116
C77 C 0.4728(10) 0.2397(4) 0.7885(7)
H44 H 0.5156 0.2219 0.8138
C78 C 0.4683(12) 0.3127(6) 0.6248(9)
C79 C 0.7978(7) 0.5240(3) 0.1766(4)
C80 C 0.7500(7) 0.4882(3) 0.2074(5)
H45 H 0.7545 0.4598 0.1885
C81 C 0.6956(7) 0.4948(3) 0.2664(5)
H46 H 0.6636 0.4709 0.2870
C82 C 0.6889(7) 0.5372(3) 0.2947(4)
C83 C 0.7366(7) 0.5729(2) 0.2639(5)
H47 H 0.7322 0.6013 0.2827
C84 C 0.7911(7) 0.5663(3) 0.2048(5)
H48 H 0.8231 0.5902 0.1842
Cu11 Cu 0.56885(7) 0.61918(3) 0.53164(13)
Cu14 Cu 0.34981(7) 0.69931(3) 0.53105(13)
N21 N 0.6597(12) 0.5835(5) 0.6582(8)
N22 N 0.6232(8) 0.5128(4) 0.6567(6)
N23 N 0.5819(7) 0.5341(3) 0.6074(5)
N24 N 0.6022(7) 0.5733(3) 0.6040(5)
N25 N 0.4117(4) 0.5993(2) 0.5239(6)
N26 N 0.3778(4) 0.55724(18) 0.5251(6)
N27 N 0.2525(5) 0.6030(2) 0.5220(5)
N28 N 0.3383(5) 0.6270(2) 0.5325(9)
N29 N 0.5969(6) 0.5113(2) 0.4005(4)
N30 N 0.5708(6) 0.5311(3) 0.4636(3)
N31 N 0.6070(7) 0.5755(2) 0.4638(4)
N32 N 0.6554(7) 0.5833(2) 0.4009(5)
C85 C 0.6491(6) 0.5436(3) 0.3618(3)
N33 N 0.3457(7) 0.1841(4) 0.9577(5)
N34 N 0.1543(7) 0.6841(4) 0.4577(5)
N35 N 0.2560(8) 0.2039(4) 0.9555(5)
N36 N 0.2440(8) 0.7039(4) 0.4555(5)
N37 N 0.2521(9) 0.2285(4) 0.8975(6)
N38 N 0.4013(7) 0.1926(3) 0.9031(4)
N39 N 0.3335(9) 0.1813(5) 0.1019(7)
N40 N 0.1665(9) 0.6813(5) 0.6019(7)
N41 N 0.2607(10) 0.2104(4) 0.1023(7)
N42 N 0.2393(10) 0.7104(4) 0.6023(7)
N43 N 0.2582(7) 0.2370(3) 0.1520(5)
N44 N 0.3865(11) 0.1958(6) 0.1546(8)
O12 O 0.5573(6) 0.2869(3) 0.4621(4)
O13 O 0.4427(6) 0.7131(3) 0.4621(4)
O14 O 0.4075(8) 0.3328(4) 0.4698(5)
O15 O 0.5925(8) 0.6672(4) 0.4698(5)
O16 O 0.5533(10) 0.2969(4) 0.6063(7)
O17 O 0.4467(10) 0.7031(4) 0.6063(7)
O18 O 0.4349(6) 0.3386(3) 0.6042(4)
O19 O 0.5651(6) 0.6614(3) 0.6042(4)
O20 O 0.9153(7) 0.5497(3) 0.9611(5)
O21 O 0.8695(7) 0.4753(4) 0.9646(5)
O25 O 0.9741(9) 0.3968(4) 0.5823(6)
O28 O 0.9738(7) 0.3984(3) 0.4748(5)
O31 O 0.8894(7) 0.4767(4) 0.1039(5)
C10 C 0.8524(12) 0.3773(5) 0.0517(8)
C11 C 0.907(3) 0.2976(11) 0.0557(19)
H5 H 0.9719 0.3106 0.0537
H6 H 0.9077 0.2691 0.0335
H7 H 0.8876 0.2938 0.1022
C43 C 0.8318(12) 0.3285(5) 0.0198(13)
H24 H 0.7641 0.3190 0.0287
O9 O 0.9333(6) 0.3907(2) 0.0391(7)
H51 H 0.844009 0.375384 0.106556
H52 H 0.798118 0.400597 0.0311734
H25 H 0.8428 0.3286 0.9711
Cu10_2 Cu 0.61557(7) 0.85805(3) 0.03057(13)
Cu12_2 Cu 0.06885(7) 0.88082(3) 0.03164(13)
Cu18 Cu 0.84981(7) 0.80069(3) 0.03105(13)
C12_2 C 0.0192(9) 0.8038(4) 0.9374(6)
C13_2 C 0.0630(6) 0.7831(3) 0.8728(4)
C14_2 C 0.1493(6) 0.7980(3) 0.8414(5)
H8_2 H 0.1850 0.8216 0.8602
C15_2 C 0.1821(6) 0.7778(4) 0.7821(5)
H9_2 H 0.2398 0.7878 0.7611
C16_2 C 0.1286(7) 0.7427(4) 0.7541(4)
C17_2 C 0.0423(7) 0.7278(3) 0.7855(4)
H10_2 H 0.0066 0.7043 0.7667
C18_2 C 0.0095(5) 0.7480(3) 0.8448(4)
C19_2 C 0.1711(12) 0.7201(5) 0.3674(8)
C20_2 C 0.1536(9) 0.7270(4) 0.6853(6)
C29_2 C 0.1236(9) 0.7476(4) 0.3089(6)
C30_2 C 0.1816(7) 0.7772(3) 0.2760(5)
H16_2 H 0.2429 0.7855 0.2936
C31_2 C 0.148(2) 0.7948(9) 0.2157(13)
H17_2 H 0.1896 0.8133 0.1906
C32_2 C 0.0539(15) 0.7856(6) 0.1916(9)
C34_2 C 0.0272(10) 0.7397(4) 0.2885(7)
C35_2 C 0.0317(12) 0.8127(6) 0.1248(9)
N15_2 N 0.2479(9) 0.7285(4) 0.3975(6)
N16_2 N 0.0987(7) 0.6926(3) 0.4031(4)
N19_2 N 0.2418(7) 0.7370(3) 0.6520(5)
N20_2 N 0.1135(11) 0.6958(6) 0.6546(8)
O2_2 O 0.0925(8) 0.8328(4) 0.9698(5)
O4_2 O 0.0651(6) 0.8386(3) 0.1042(4)
C55_2 C 0.5192(9) 0.6962(4) 0.4374(6)
C56_2 C 0.5630(6) 0.7169(3) 0.3728(4)
C57_2 C 0.6493(6) 0.7020(3) 0.3414(5)
H33_2 H 0.6850 0.6784 0.3602
C58_2 C 0.6821(6) 0.7222(4) 0.2821(5)
H34_2 H 0.7398 0.7122 0.2611
C59_2 C 0.6286(7) 0.7573(4) 0.2541(4)
C60_2 C 0.5423(7) 0.7722(3) 0.2855(4)
H35_2 H 0.5066 0.7957 0.2667
C61_2 C 0.5095(5) 0.7520(3) 0.3448(4)
H36_2 H 0.4518 0.7620 0.3658
C62_2 C 0.6711(12) 0.7799(5) 0.8674(8)
C63_2 C 0.6536(9) 0.7730(4) 0.1853(6)
C72_2 C 0.6236(9) 0.7524(4) 0.8089(6)
C73_2 C 0.6816(7) 0.7228(3) 0.7760(5)
H41_2 H 0.7429 0.7145 0.7936
C74_2 C 0.648(2) 0.7052(9) 0.7157(13)
H42_2 H 0.6896 0.6867 0.6906
C75_2 C 0.5539(15) 0.7144(6) 0.6916(9)
C76_2 C 0.4967(10) 0.7401(5) 0.7272(7)
H43_2 H 0.4326 0.7454 0.7116
C77_2 C 0.5272(10) 0.7603(4) 0.7885(7)
H44_2 H 0.4844 0.7781 0.8138
C78_2 C 0.5317(12) 0.6873(6) 0.6248(9)
N33_2 N 0.6543(7) 0.8159(4) 0.9577(5)
N35_2 N 0.7440(8) 0.7961(4) 0.9555(5)
N37_2 N 0.7479(9) 0.7715(4) 0.8975(6)
N38_2 N 0.5987(7) 0.8074(3) 0.9031(4)
N39_2 N 0.6665(9) 0.8187(5) 0.1019(7)
N41_2 N 0.7393(10) 0.7896(4) 0.1023(7)
N43_2 N 0.7418(7) 0.7630(3) 0.1520(5)
N44_2 N 0.6135(11) 0.8042(6) 0.1546(8)
H11_2 H 0.9518 0.7380 0.8658
C33_2 C 0.9967(10) 0.7599(5) 0.2272(7)
H18_2 H 0.9326 0.7546 0.2116
H19_2 H 0.9844 0.7219 0.3138
O1_2 O 0.9427(6) 0.7869(3) 0.9621(4)
O3_2 O 0.9467(10) 0.7969(4) 0.1063(7)
C2_2 C 0.2679(6) 0.0094(2) 0.3412(4)
H1_2 H 0.2647 0.0369 0.3627
C3_2 C 0.2152(6) 0.0021(3) 0.2817(4)
H2_2 H 0.1766 0.0248 0.2633
Cu1_2 Cu 0.0000 -0.0000 0.02798(17)
O6 O 0.3695(7) 0.0247(4) 0.4646(5)
C64_2 C 0.2182(6) 0.0599(3) 0.0330(10)
C65_2 C 0.2899(3) 0.02278(15) 0.0333(5)
C66_2 C 0.3141(6) 0.0005(2) 0.0929(4)
H37_2 H 0.2869 0.0097 0.1339
Cu20 Cu 0.47333(7) 0.04216(3) 0.53010(14)
N25_2 N 0.0883(4) 0.0993(2) 0.0239(6)
N26_2 N 0.1222(4) 0.05724(18) 0.0251(6)
N27_2 N 0.2475(5) 0.1030(2) 0.0220(5)
N28_2 N 0.1617(5) 0.1270(2) 0.0325(9)
O26 O 0.4741(9) 0.1032(4) 0.0823(6)
C37_2 C 0.2500(7) 0.0118(3) 0.7074(5)
H20_2 H 0.2545 0.0402 0.6885
C38_2 C 0.1956(7) 0.0052(3) 0.7664(5)
H21_2 H 0.1636 0.0291 0.7870
O10 O 0.3894(7) 0.0233(4) 0.6039(5)
C70_2 C 0.3307(6) 0.0091(2) 0.9720(4)
H40_2 H 0.3145 0.0240 0.9321
O29 O 0.4738(7) 0.1016(3) 0.9748(5)
C1_2 C 0.1682(12) 0.9535(6) 0.1875(8)
C4_2 C 0.2200(6) 0.9608(3) 0.2496(3)
C5_2 C 0.2776(7) 0.9269(2) 0.2772(5)
H3_2 H 0.2808 0.8993 0.2557
C6_2 C 0.3303(6) 0.9342(3) 0.3367(5)
H4_2 H 0.3689 0.9115 0.3551
C7_2 C 0.3255(5) 0.9754(3) 0.3688(3)
C8_2 C 0.3812(11) 0.9832(5) 0.4360(7)
C10_2 C 0.6476(12) 0.8773(5) 0.5517(8)
C11_2 C 0.593(3) 0.7976(11) 0.5557(19)
H5_2 H 0.5281 0.8106 0.5537
H6_2 H 0.5923 0.7691 0.5335
H7_2 H 0.6124 0.7938 0.6022
Cu1_3 Cu 0.0000 1.0000 0.02798(17)
Cu5 Cu 0.52667(7) 0.95784(3) 0.53010(14)
N1_2 N 0.1597(12) 0.9165(5) 0.1582(8)
N2_2 N 0.1232(8) 0.9872(4) 0.1567(6)
N3_2 N 0.0819(7) 0.9659(3) 0.1074(5)
N4_2 N 0.1022(7) 0.9267(3) 0.1040(5)
C43_2 C 0.6682(12) 0.8285(5) 0.5198(13)
H24_2 H 0.7359 0.8190 0.5287
H25_2 H 0.6572 0.8286 0.4711
O5_2 O 0.4153(7) 0.9503(3) 0.4611(5)
O9_2 O 0.5667(6) 0.8907(2) 0.5391(7)
C67_2 C 0.3791(6) 0.9645(2) 0.0911(5)
H38_2 H 0.3953 0.9496 0.1309
C68_2 C 0.4199(4) 0.95077(17) 0.0298(6)
C71_2 C 0.4929(5) 0.9142(2) 0.0369(7)
O22 O 0.6305(7) 0.9753(4) 0.4646(5)
O24 O 0.5259(9) 0.8968(4) 0.0823(6)
O32 O 0.6106(7) 0.9767(4) 0.6039(5)
O35_2 O 0.4351(8) 0.9537(4) 0.6027(6)
H51_2 H 0.655991 0.875384 0.606556
H52_2 H 0.701882 0.900597 0.531173
C9_2 C 0.3688(14) 0.9860(7) 0.6202(10)
C36_2 C 0.2978(7) 0.9760(3) 0.6766(4)
C39_2 C 0.1889(7) 0.9628(3) 0.7947(4)
C40_2 C 0.2366(7) 0.9271(2) 0.7639(5)
H22_2 H 0.2322 0.8987 0.7827
C41_2 C 0.2911(7) 0.9337(3) 0.7048(5)
H23_2 H 0.3231 0.9098 0.6842
N9_2 N 0.0969(6) 0.9887(2) 0.9005(4)
N10_2 N 0.0708(6) 0.9689(3) 0.9636(3)
N11_2 N 0.1070(7) 0.9245(2) 0.9638(4)
N12_2 N 0.1554(7) 0.9167(2) 0.9009(5)
C42_2 C 0.1491(6) 0.9564(3) 0.8618(3)
C69_2 C 0.3957(6) 0.9731(3) 0.9702(5)
H39_2 H 0.4229 0.9639 0.9292
O27 O 0.5262(7) 0.8984(3) 0.9748(5)
C24_2 C 0.6209(6) 0.0355(2) 0.0911(5)
H13_2 H 0.6047 0.0504 0.1309
C25_2 C 0.5801(4) 0.04923(17) 0.0298(6)
C28_2 C 0.5071(5) 0.0858(2) 0.0369(7)
Cu1_4 Cu 1.0000 -0.0000 0.02798(17)
C44_2 C 0.8318(12) 0.0465(6) 0.1875(8)
C47_2 C 0.7800(6) 0.0392(3) 0.2496(3)
C48_2 C 0.7224(7) 0.0731(2) 0.2772(5)
H28_2 H 0.7192 0.1007 0.2557
C49_2 C 0.6697(6) 0.0658(3) 0.3367(5)
H29_2 H 0.6311 0.0885 0.3551
C50_2 C 0.6745(5) 0.0246(3) 0.3688(3)
C51_2 C 0.6188(11) 0.0168(5) 0.4360(7)
C53_2 C 0.3524(12) 0.1227(5) 0.5517(8)
C54_2 C 0.407(3) 0.2024(11) 0.5557(19)
H30_2 H 0.4719 0.1894 0.5537
H31_2 H 0.4077 0.2309 0.5335
H32_2 H 0.3876 0.2062 0.6022
N21_2 N 0.8403(12) 0.0835(5) 0.1582(8)
N22_2 N 0.8768(8) 0.0128(4) 0.1567(6)
N23_2 N 0.9181(7) 0.0341(3) 0.1074(5)
N24_2 N 0.8978(7) 0.0733(3) 0.1040(5)
C86_2 C 0.3318(12) 0.1715(5) 0.5198(13)
H49_2 H 0.2641 0.1810 0.5287
H50_2 H 0.3428 0.1714 0.4711
O20_2 O 0.5847(7) 0.0497(3) 0.4611(5)
O30_2 O 0.4333(6) 0.1093(2) 0.5391(7)
O36_2 O 0.5649(8) 0.0463(4) 0.6027(6)
H53_2 H 0.344009 0.124616 0.606556
H54_2 H 0.298118 0.0994033 0.531173
C26_2 C 0.6043(6) 0.0269(3) 0.9702(5)
H14_2 H 0.5771 0.0361 0.9292
C52_2 C 0.6312(14) 0.0140(7) 0.6202(10)
C79_2 C 0.7022(7) 0.0240(3) 0.6766(4)
C82_2 C 0.8111(7) 0.0372(3) 0.7947(4)
C83_2 C 0.7634(7) 0.0729(2) 0.7639(5)
H47_2 H 0.7678 0.1013 0.7827
C84_2 C 0.7089(7) 0.0663(3) 0.7048(5)
H48_2 H 0.6769 0.0902 0.6842
N29_2 N 0.9031(6) 0.0113(2) 0.9005(4)
N30_2 N 0.9292(6) 0.0311(3) 0.9636(3)
N31_2 N 0.8930(7) 0.0755(2) 0.9638(4)
N32_2 N 0.8446(7) 0.0833(2) 0.9009(5)
C85_2 C 0.8509(6) 0.0436(3) 0.8618(3)
C21_2 C 0.7818(6) 0.9401(3) 0.0330(10)
C22_2 C 0.7101(3) 0.97722(15) 0.0333(5)
C23_2 C 0.6859(6) 0.9995(2) 0.0929(4)
H12_2 H 0.7131 0.9903 0.1339
Cu1_5 Cu 1.0000 1.0000 0.02798(17)
N5_2 N 0.9117(4) 0.9007(2) 0.0239(6)
N6_2 N 0.8778(4) 0.94276(18) 0.0251(6)
N7_2 N 0.7525(5) 0.8970(2) 0.0220(5)
N8_2 N 0.8383(5) 0.8730(2) 0.0325(9)
C45_2 C 0.7321(6) 0.9906(2) 0.3412(4)
H26_2 H 0.7353 0.9631 0.3627
C46_2 C 0.7848(6) 0.9979(3) 0.2817(4)
H27_2 H 0.8234 0.9752 0.2633
C27_2 C 0.6693(6) 0.9909(2) 0.9720(4)
H15_2 H 0.6855 0.9760 0.9321
C80_2 C 0.7500(7) 0.9882(3) 0.7074(5)
H45_2 H 0.7455 0.9598 0.6885
C81_2 C 0.8044(7) 0.9948(3) 0.7664(5)
H46_2 H 0.8364 0.9709 0.7870
loop_
_geom_bond_atom_site_label_1
_geom_bond_atom_site_label_2
_geom_bond_site_symmetry_1
_geom_bond_site_symmetry_2
C53 C86 1_555 1_555
C54 H30 1_555 1_555
H31 C54 1_555 1_555
H32 C54 1_555 1_555
C86 C54 1_555 1_555
H49 C86 1_555 1_555
O30 C53 1_555 1_555
O33 Cu19 1_555 1_555
Cu19 O30 1_555 1_555
C53 H53 1_555 1_555
C53 H54 1_555 1_555
H18 C33 1_555 1_555
Cu7 O7 1_555 1_555
Cu15 O3 1_555 1_555
O8 Cu7 1_555 1_555
C1 C4 1_555 1_555
C2 H1 1_555 1_555
C3 C2 1_555 1_555
H2 C3 1_555 1_555
C4 C3 1_555 1_555
C5 C4 1_555 1_555
H3 C5 1_555 1_555
C6 C5 1_555 1_555
H4 C6 1_555 1_555
C7 C2 1_555 1_555
C8 C7 1_555 1_555
C9 C36 1_555 1_555
C12 C13 1_555 1_555
C13 C14 1_555 1_555
C14 H8 1_555 1_555
C15 C14 1_555 1_555
H9 C15 1_555 1_555
C16 C15 1_555 1_555
C17 C16 1_555 1_555
H10 C17 1_555 1_555
C18 C13 1_555 1_555
C19 C29 1_555 1_555
C20 C16 1_555 1_555
C21 C22 1_555 1_555
C22 C23 1_555 1_555
C23 H12 1_555 1_555
C24 C23 1_555 1_555
H13 C24 1_555 1_555
C25 C24 1_555 1_555
C26 C25 1_555 1_555
H14 C26 1_555 1_555
C27 C22 1_555 1_555
H15 C27 1_555 1_555
C28 C25 1_555 1_555
C29 C30 1_555 1_555
C30 H16 1_555 1_555
C31 C30 1_555 1_555
H17 C31 1_555 1_555
C32 C31 1_555 1_555
C34 C29 1_555 1_555
C35 C32 1_555 1_555
C36 C37 1_555 1_555
C37 H20 1_555 1_555
C38 C37 1_555 1_555
H21 C38 1_555 1_555
C39 C38 1_555 1_555
C40 C39 1_555 1_555
H22 C40 1_555 1_555
C41 C36 1_555 1_555
H23 C41 1_555 1_555
Cu1 N3 1_555 1_555
Cu2 N7 1_555 1_555
Cu3 N4 1_555 1_555
Cu4 N8 1_555 1_555
N1 C1 1_555 1_555
N2 C1 1_555 1_555
N3 N2 1_555 1_555
N4 N1 1_555 1_555
N5 Cu3 1_555 1_555
N6 C21 1_555 1_555
N7 C21 1_555 1_555
N8 N5 1_555 1_555
N9 N10 1_555 1_555
N10 Cu1 1_555 1_555
N11 Cu3 1_555 1_555
N12 N11 1_555 1_555
C42 C39 1_555 1_555
N13 Cu2 1_555 1_555
N14 Cu4 1_555 1_555
N15 C19 1_555 1_555
N16 C19 1_555 1_555
N17 Cu2 1_555 1_555
N18 Cu4 1_555 1_555
N19 C20 1_555 1_555
N20 C20 1_555 1_555
O2 C12 1_555 1_555
O4 C35 1_555 1_555
O5 C8 1_555 1_555
O23 C8 1_555 1_555
O33 C9 1_555 1_555
O35 C9 1_555 1_555
C44 C47 1_555 1_555
C45 H26 1_555 1_555
C46 C45 1_555 1_555
H27 C46 1_555 1_555
C47 C46 1_555 1_555
C48 C47 1_555 1_555
H28 C48 1_555 1_555
C49 C48 1_555 1_555
H29 C49 1_555 1_555
C50 C45 1_555 1_555
C51 C50 1_555 1_555
C52 C79 1_555 1_555
C55 C56 1_555 1_555
C56 C57 1_555 1_555
C57 H33 1_555 1_555
C58 C57 1_555 1_555
H34 C58 1_555 1_555
C59 C58 1_555 1_555
C60 C59 1_555 1_555
H35 C60 1_555 1_555
C61 C56 1_555 1_555
H36 C61 1_555 1_555
C62 C72 1_555 1_555
C63 C59 1_555 1_555
C64 C65 1_555 1_555
C65 C66 1_555 1_555
C66 H37 1_555 1_555
C67 C66 1_555 1_555
H38 C67 1_555 1_555
C68 C67 1_555 1_555
C69 C68 1_555 1_555
H39 C69 1_555 1_555
C70 C65 1_555 1_555
H40 C70 1_555 1_555
C71 C68 1_555 1_555
C72 C73 1_555 1_555
C73 H41 1_555 1_555
C74 C73 1_555 1_555
H42 C74 1_555 1_555
C75 C74 1_555 1_555
C76 C75 1_555 1_555
H43 C76 1_555 1_555
C77 C72 1_555 1_555
H44 C77 1_555 1_555
C78 C75 1_555 1_555
C79 C80 1_555 1_555
C80 H45 1_555 1_555
C81 C80 1_555 1_555
H46 C81 1_555 1_555
C82 C81 1_555 1_555
C83 C82 1_555 1_555
H47 C83 1_555 1_555
C84 C79 1_555 1_555
H48 C84 1_555 1_555
Cu7 N27 1_555 1_555
Cu10 N39 1_555 1_555
Cu11 N24 1_555 1_555
Cu12 O4 1_555 1_555
Cu14 N28 1_555 1_555
Cu15 N41 1_555 1_555
N21 C44 1_555 1_555
N22 C44 1_555 1_555
N23 Cu1 1_555 1_555
N24 N21 1_555 1_555
N25 Cu11 1_555 1_555
N26 Cu1 1_555 1_555
N27 C64 1_555 1_555
N28 N25 1_555 1_555
N29 N30 1_555 1_555
N30 Cu1 1_555 1_555
N31 Cu11 1_555 1_555
N32 N31 1_555 1_555
C85 C82 1_555 1_555
N33 N35 1_555 1_555
N34 Cu7 1_555 1_555
N35 N37 1_555 1_555
N36 Cu14 1_555 1_555
N37 C62 1_555 1_555
N38 C62 1_555 1_555
N39 N41 1_555 1_555
N40 Cu7 1_555 1_555
N41 N43 1_555 1_555
N42 Cu14 1_555 1_555
N43 C63 1_555 1_555
N44 C63 1_555 1_555
O12 Cu4 1_555 1_555
O13 Cu14 1_555 1_555
O14 Cu3 1_555 1_555
O15 Cu11 1_555 1_555
O16 Cu4 1_555 1_555
O17 Cu14 1_555 1_555
O18 Cu3 1_555 1_555
O19 Cu11 1_555 1_555
O20 C51 1_555 1_555
O21 C51 1_555 1_555
O25 Cu2 1_555 1_555
O28 Cu2 1_555 1_555
O31 C52 1_555 1_555
O36 C52 1_555 1_555
C6 C7 1_555 1_555
C17 C18 1_555 1_555
C26 C27 1_555 1_555
C40 C41 1_555 1_555
Cu1 N6 1_555 1_555
N3 N4 1_555 1_555
N5 N6 1_555 1_555
N7 N8 1_555 1_555
N9 C42 1_555 1_555
N10 N11 1_555 1_555
N12 C42 1_555 1_555
N13 N14 1_555 1_555
N13 N16 1_555 1_555
N14 N15 1_555 1_555
N17 N18 1_555 1_555
N17 N20 1_555 1_555
N18 N19 1_555 1_555
C49 C50 1_555 1_555
C55 O12 1_555 1_555
C55 O14 1_555 1_555
C60 C61 1_555 1_555
C64 N26 1_555 1_555
C69 C70 1_555 1_555
C76 C77 1_555 1_555
C78 O16 1_555 1_555
C78 O18 1_555 1_555
C83 C84 1_555 1_555
Cu23 O31 1_555 1_555
N22 N23 1_555 1_555
N23 N24 1_555 1_555
N25 N26 1_555 1_555
N27 N28 1_555 1_555
N29 C85 1_555 1_555
N30 N31 1_555 1_555
N32 C85 1_555 1_555
N33 N38 1_555 1_555
N34 N36 1_555 1_555
N39 N44 1_555 1_555
N40 N42 1_555 1_555
C10 C43 1_555 1_555
C11 H5 1_555 1_555
H6 C11 1_555 1_555
H7 C11 1_555 1_555
C43 C11 1_555 1_555
H24 C43 1_555 1_555
O9 C10 1_555 1_555
Cu23 O9 1_555 1_555
C10 H51 1_555 1_555
C10 H52 1_555 1_555
C12_2 C13_2 1_555 1_555
C13_2 C14_2 1_555 1_555
C14_2 H8_2 1_555 1_555
C15_2 C14_2 1_555 1_555
H9_2 C15_2 1_555 1_555
C16_2 C15_2 1_555 1_555
C17_2 C16_2 1_555 1_555
H10_2 C17_2 1_555 1_555
C18_2 C13_2 1_555 1_555
C19_2 C29_2 1_555 1_555
C20_2 C16_2 1_555 1_555
C29_2 C30_2 1_555 1_555
C30_2 H16_2 1_555 1_555
C31_2 C30_2 1_555 1_555
H17_2 C31_2 1_555 1_555
C32_2 C31_2 1_555 1_555
C34_2 C29_2 1_555 1_555
C35_2 C32_2 1_555 1_555
N15_2 C19_2 1_555 1_555
N16_2 C19_2 1_555 1_555
N19_2 C20_2 1_555 1_555
N20_2 C20_2 1_555 1_555
O2_2 C12_2 1_555 1_555
O4_2 C35_2 1_555 1_555
C55_2 C56_2 1_555 1_555
C56_2 C57_2 1_555 1_555
C57_2 H33_2 1_555 1_555
C58_2 C57_2 1_555 1_555
H34_2 C58_2 1_555 1_555
C59_2 C58_2 1_555 1_555
C60_2 C59_2 1_555 1_555
H35_2 C60_2 1_555 1_555
C61_2 C56_2 1_555 1_555
H36_2 C61_2 1_555 1_555
C62_2 C72_2 1_555 1_555
C63_2 C59_2 1_555 1_555
C72_2 C73_2 1_555 1_555
C73_2 H41_2 1_555 1_555
C74_2 C73_2 1_555 1_555
H42_2 C74_2 1_555 1_555
C75_2 C74_2 1_555 1_555
C76_2 C75_2 1_555 1_555
H43_2 C76_2 1_555 1_555
C77_2 C72_2 1_555 1_555
H44_2 C77_2 1_555 1_555
C78_2 C75_2 1_555 1_555
Cu10_2 N39_2 1_555 1_555
Cu12_2 O4_2 1_555 1_555
Cu18 N41_2 1_555 1_555
N33_2 N35_2 1_555 1_555
N35_2 N37_2 1_555 1_555
N37_2 C62_2 1_555 1_555
N38_2 C62_2 1_555 1_555
N39_2 N41_2 1_555 1_555
N41_2 N43_2 1_555 1_555
N43_2 C63_2 1_555 1_555
N44_2 C63_2 1_555 1_555
C17_2 C18_2 1_555 1_555
N34 N16_2 1_555 1_555
N36 N15_2 1_555 1_555
N40 N20_2 1_555 1_555
N42 N19_2 1_555 1_555
C55_2 O13 1_555 1_555
C55_2 O15 1_555 1_555
C60_2 C61_2 1_555 1_555
C76_2 C77_2 1_555 1_555
C78_2 O17 1_555 1_555
C78_2 O19 1_555 1_555
N33_2 N38_2 1_555 1_555
N39_2 N44_2 1_555 1_555
H18_2 C33_2 1_555 1_555
Cu18 O3_2 1_555 1_555
C2_2 H1_2 1_555 1_555
C3_2 C2_2 1_555 1_555
H2_2 C3_2 1_555 1_555
C64_2 C65_2 1_555 1_555
C65_2 C66_2 1_555 1_555
C66_2 H37_2 1_555 1_555
Cu10 N27_2 1_555 1_555
Cu15 N28_2 1_555 1_555
N26_2 Cu1_2 1_555 1_555
N27_2 C64_2 1_555 1_555
N28_2 N25_2 1_555 1_555
O26 Cu10 1_555 1_555
O6 Cu20 1_555 1_555
C64_2 N26_2 1_555 1_555
N25_2 N26_2 1_555 1_555
N27_2 N28_2 1_555 1_555
C37_2 H20_2 1_555 1_555
C38_2 C37_2 1_555 1_555
H21_2 C38_2 1_555 1_555
H40_2 C70_2 1_555 1_555
Cu20 O10 1_555 1_555
C1_2 C4_2 1_555 1_555
C5_2 C4_2 1_555 1_555
H3_2 C5_2 1_555 1_555
C6_2 C5_2 1_555 1_555
H4_2 C6_2 1_555 1_555
C8_2 C7_2 1_555 1_555
C10_2 C43_2 1_555 1_555
C11_2 H5_2 1_555 1_555
H6_2 C11_2 1_555 1_555
H7_2 C11_2 1_555 1_555
Cu1_3 N3_2 1_555 1_555
Cu12_2 N4_2 1_555 1_555
Cu5 O5_2 1_555 1_555
N1_2 C1_2 1_555 1_555
N2_2 C1_2 1_555 1_555
N3_2 N2_2 1_555 1_555
N4_2 N1_2 1_555 1_555
C43_2 C11_2 1_555 1_555
H24_2 C43_2 1_555 1_555
H25_2 C43_2 1_555 1_555
O5_2 C8_2 1_555 1_555
O9_2 C10_2 1_555 1_555
H38_2 C67_2 1_555 1_555
C68_2 C67_2 1_555 1_555
C71_2 C68_2 1_555 1_555
Cu10_2 O24 1_555 1_555
O22 Cu5 1_555 1_555
O24 C71_2 1_555 1_555
O32 Cu5 1_555 1_555
O35_2 Cu5 1_555 1_555
C6_2 C7_2 1_555 1_555
Cu5 O9_2 1_555 1_555
N3_2 N4_2 1_555 1_555
C10_2 H51_2 1_555 1_555
C10_2 H52_2 1_555 1_555
C9_2 C36_2 1_555 1_555
C40_2 C39_2 1_555 1_555
H22_2 C40_2 1_555 1_555
C41_2 C36_2 1_555 1_555
H23_2 C41_2 1_555 1_555
N9_2 N10_2 1_555 1_555
N12_2 N11_2 1_555 1_555
C42_2 C39_2 1_555 1_555
O35_2 C9_2 1_555 1_555
H39_2 C69_2 1_555 1_555
C40_2 C41_2 1_555 1_555
N9_2 C42_2 1_555 1_555
N10_2 N11_2 1_555 1_555
N12_2 C42_2 1_555 1_555
H13_2 C24_2 1_555 1_555
C25_2 C24_2 1_555 1_555
C28_2 C25_2 1_555 1_555
O26 C28_2 1_555 1_555
C44_2 C47_2 1_555 1_555
C48_2 C47_2 1_555 1_555
H28_2 C48_2 1_555 1_555
C49_2 C48_2 1_555 1_555
H29_2 C49_2 1_555 1_555
C51_2 C50_2 1_555 1_555
C53_2 C86_2 1_555 1_555
C54_2 H30_2 1_555 1_555
H31_2 C54_2 1_555 1_555
H32_2 C54_2 1_555 1_555
Cu12 N24_2 1_555 1_555
N21_2 C44_2 1_555 1_555
N22_2 C44_2 1_555 1_555
N23_2 Cu1_4 1_555 1_555
N24_2 N21_2 1_555 1_555
C86_2 C54_2 1_555 1_555
H49_2 C86_2 1_555 1_555
H50_2 C86_2 1_555 1_555
O20_2 C51_2 1_555 1_555
O30_2 C53_2 1_555 1_555
O36_2 Cu20 1_555 1_555
C49_2 C50_2 1_555 1_555
Cu20 O20_2 1_555 1_555
Cu20 O30_2 1_555 1_555
N22_2 N23_2 1_555 1_555
N23_2 N24_2 1_555 1_555
C53_2 H53_2 1_555 1_555
C53_2 H54_2 1_555 1_555
H14_2 C26_2 1_555 1_555
C52_2 C79_2 1_555 1_555
C83_2 C82_2 1_555 1_555
H47_2 C83_2 1_555 1_555
C84_2 C79_2 1_555 1_555
H48_2 C84_2 1_555 1_555
N29_2 N30_2 1_555 1_555
N32_2 N31_2 1_555 1_555
C85_2 C82_2 1_555 1_555
O36_2 C52_2 1_555 1_555
C83_2 C84_2 1_555 1_555
N29_2 C85_2 1_555 1_555
N30_2 N31_2 1_555 1_555
N32_2 C85_2 1_555 1_555
C21_2 C22_2 1_555 1_555
C22_2 C23_2 1_555 1_555
C23_2 H12_2 1_555 1_555
Cu10_2 N7_2 1_555 1_555
Cu18 N8_2 1_555 1_555
N6_2 C21_2 1_555 1_555
N7_2 C21_2 1_555 1_555
N8_2 N5_2 1_555 1_555
C45_2 H26_2 1_555 1_555
C46_2 C45_2 1_555 1_555
H27_2 C46_2 1_555 1_555
Cu1_5 N6_2 1_555 1_555
N5_2 N6_2 1_555 1_555
N7_2 N8_2 1_555 1_555
H15_2 C27_2 1_555 1_555
C80_2 H45_2 1_555 1_555
C81_2 C80_2 1_555 1_555
H46_2 C81_2 1_555 1_555

#END
