
###############################################################################
#
# This file contains modified crystal structure data generated from the
# MOF subset of the Cambridge Structural Database (CSD) v543 
# hosted by the Cambridge Crystallographic Data Centre (CCDC).
#
# This work is licensed under the Creative Commons
# Attribution-NonCommercial-ShareAlike 4.0 International License.
# To view a copy of this license, visit
# http://creativecommons.org/licenses/by-nc-sa/4.0/
# or send a letter to
# Creative Commons, PO Box 1866, Mountain View, CA 94042, USA.
#
# CIF created using the CSD Python API on 29 September 2022
# The structure has been converted into the P1 space group
# The structure has a 3D framework
# The original CSD entry OYODAI is in the rhombohedral crystal system
# The framework has been calculated to contain at least 10.0% void space
# The void calculation uses a probe of radius 1.32A, grid spacing 0.4
#
###############################################################################

data_OYODAI
_chemical_formula_moiety         '(C1368 H1368 B72 N432 O180 Zn56)n'
_symmetry_cell_setting           triclinic
_symmetry_space_group_name_H-M   'P 1'
_symmetry_Int_Tables_number      1
_space_group_name_Hall           'P 1'
loop_
_symmetry_equiv_pos_site_id
_symmetry_equiv_pos_as_xyz
1 x,y,z
_cell_length_a                   27.2749(18)
_cell_length_b                   27.2749(18)
_cell_length_c                   87.561(5)
_cell_angle_alpha                90
_cell_angle_beta                 90
_cell_angle_gamma                120
_cell_volume                     56411.5
loop_
_atom_site_label
_atom_site_type_symbol
_atom_site_fract_x
_atom_site_fract_y
_atom_site_fract_z
Zn1 Zn 0.01260(2) 0.200552(19) 0.093218(5)
Zn2 Zn 0.355920(18) 0.362572(19) 0.136864(5)
O1 O 0.00032(10) 0.25272(9) 0.08014(3)
N1 N 0.08899(14) 0.28420(12) 0.13343(4)
N2 N 0.03520(14) 0.23567(15) 0.11413(4)
N3 N 0.18689(13) 0.31830(12) 0.14264(4)
N4 N 0.15614(16) 0.19420(14) 0.08003(3)
N5 N 0.27415(15) 0.33156(16) 0.14105(4)
N6 N 0.07551(19) 0.19184(18) 0.08415(3)
N7 N 0.1943(3) 0.0617(3) 0.09753(5)
N8 N 0.29140(15) 0.24734(14) 0.04664(3)
N9 N 0.24544(18) 0.20670(17) 0.06800(4)
N10 N 0.21520(19) 0.15257(19) 0.09205(4)
N11 N 0.11766(15) 0.32290(13) 0.15984(3)
N12 N 0.07331(16) 0.32572(16) 0.18078(4)
C2 C 0.07907(17) 0.28071(18) 0.11902(5)
C4 C 0.2435(2) 0.3551(2) 0.14170(5)
H2 H 0.0032 0.3372 0.0680
C7 C 0.12029(19) 0.19363(18) 0.09066(4)
C8 C 0.11611(18) 0.32292(19) 0.10759(5)
H3 H 0.1468 0.3545 0.1127
H4 H 0.0946 0.3357 0.1019
H5 H 0.1309 0.3059 0.1008
C9 C 0.10211(19) 0.29306(19) 0.18392(5)
H6 H 0.1016 0.2758 0.1931
C10 C 0.08573(17) 0.34014(19) 0.16669(5)
C11 C 0.2339(2) 0.26958(17) 0.14111(5)
H7 H 0.2429 0.2409 0.1408
C12 C 0.04189(19) 0.2331(2) 0.14009(5)
H8 H 0.0350 0.2244 0.1504
C15 C 0.26786(18) 0.41639(16) 0.14306(5)
H11 H 0.3083 0.4346 0.1421
H12 H 0.2582 0.4252 0.1528
H13 H 0.2531 0.4296 0.1351
C16 C 0.1308(2) 0.1945(2) 0.10735(4)
H14 H 0.1003 0.1945 0.1128
H15 H 0.1657 0.2280 0.1099
H16 H 0.1330 0.1617 0.1101
C17 C 0.0615(3) 0.3713(3) 0.15873(6)
H17 H 0.0400 0.3797 0.1658
H18 H 0.0373 0.3483 0.1506
H19 H 0.0916 0.4059 0.1546
C18 C 0.1861(2) 0.1000(2) 0.09012(6)
C19 C 0.01102(18) 0.20190(19) 0.12843(5)
H21 H 0.0029 0.4498 0.0164
C21 C 0.2742(5) 0.3099(3) 0.06394(7)
H22 H 0.2949 0.3381 0.0563
H23 H 0.2931 0.3225 0.0736
H24 H 0.2366 0.3042 0.0647
H26 H 0.0027 0.5397 0.0212
C25 C 0.2582(2) 0.1610(2) 0.10257(6)
H27 H 0.2841 0.1945 0.1074
C28 C 0.2507(3) 0.1684(2) 0.05930(6)
H28 H 0.2377 0.1308 0.0620
C29 C 0.2532(2) 0.1124(3) 0.10398(8)
H29 H 0.2810 0.1067 0.1083
C30 C 0.2775(3) 0.1931(2) 0.04633(6)
H30 H 0.2852 0.1753 0.0384
C31 C 0.0820(2) 0.1899(2) 0.06840(4)
H31 H 0.0568 0.1879 0.0610
C32 C 0.1307(2) 0.1913(2) 0.06600(4)
H32 H 0.1455 0.1905 0.0565
C34 C 0.2712(2) 0.2549(2) 0.05952(5)
C35 C 0.12939(18) 0.0729(2) 0.08132(5)
H33 H 0.1255 0.1019 0.0762
H34 H 0.0986 0.0532 0.0884
H35 H 0.1288 0.0467 0.0739
C36 C 0.1283(2) 0.29280(19) 0.17149(5)
H36 H 0.1504 0.2758 0.1704
C37 C 0.1830(2) 0.26334(18) 0.14165(5)
H37 H 0.1493 0.2288 0.1414
B1 B 0.1371(2) 0.3291(3) 0.14339(6)
B2 B 0.2155(3) 0.1997(3) 0.08346(5)
Zn5 Zn 0.326681(26) 0.304095(19) 0.029803(5)
Zn6 Zn 0.029239(19) 0.339985(26) 0.196469(5)
O6 O 0.35274(16) 0.29082(23) 0.13345(4)
N14 N 0.37739(21) 0.41933(14) 0.12003(3)
N15 N 0.41426(23) 0.40664(16) 0.15255(4)
Zn3 Zn 0.187952(28) 0.98740(2) 0.093218(5)
O2 O 0.98059(16) 0.60474(16) 0.03322(4)
O3 O 0.96480(14) 0.17993(12) 0.06398(4)
O4 O 0.8951(2) 0.56242(19) 0.04243(6)
O5 O 0.9255(2) 0.35086(17) 0.02497(5)
C1 C 0.97731(15) 0.22958(14) 0.06754(4)
C3 C 0.96237(13) 0.26277(14) 0.05677(4)
C5 C 0.93059(15) 0.23762(15) 0.04398(4)
H1 H 0.9174 0.1994 0.0422
C6 C 0.98163(15) 0.31968(15) 0.05934(5)
C13 C 0.9694(2) 0.34995(16) 0.04937(5)
H9 H 0.9822 0.3881 0.0512
C14 C 0.91778(17) 0.26715(17) 0.03374(5)
H10 H 0.8962 0.2493 0.0251
H20 H 0.9799 0.1655 0.1290
C20 C 0.9751(3) 0.4508(3) 0.02227(9)
C22 C 0.8930(5) 0.4065(3) 0.03773(10)
H25 H 0.8659 0.3731 0.0423
C23 C 0.9755(3) 0.5061(2) 0.02562(8)
C24 C 0.9387(3) 0.5634(3) 0.03698(7)
C26 C 0.9360(3) 0.5059(3) 0.03513(7)
C27 C 0.9328(3) 0.4047(3) 0.02830(8)
C33 C 0.9371(2) 0.32335(19) 0.03628(5)
C38 C 0.8917(4) 0.4578(3) 0.04075(8)
H38 H 0.8625 0.4579 0.0462
Zn4 Zn 0.977413(18) 0.673319(26) 0.029803(5)
N13 N 0.9383(3) 0.1326(4) 0.09753(5)
N8_2 N 0.75266(14) 0.04406(21) 0.04664(3)
N9_2 N 0.79330(17) 0.03874(25) 0.06800(4)
N10_2 N 0.84743(19) 0.06263(27) 0.09205(4)
H7_2 H 0.7591 0.0020 0.1408
C18_2 C 0.9000(2) 0.0861(3) 0.09012(6)
C25_2 C 0.8390(2) 0.0972(3) 0.10257(6)
H27_2 H 0.8055 0.0896 0.1074
C28_2 C 0.8316(2) 0.0823(4) 0.05930(6)
H28_2 H 0.8692 0.1069 0.0620
C29_2 C 0.8876(3) 0.1408(4) 0.10398(8)
H29_2 H 0.8933 0.1743 0.1083
C30_2 C 0.8069(2) 0.0844(4) 0.04633(6)
H30_2 H 0.8247 0.1099 0.0384
C34_2 C 0.7451(2) 0.0163(3) 0.05952(5)
C35_2 C 0.9271(2) 0.05649(27) 0.08132(5)
H33_2 H 0.8981 0.0236 0.0762
H34_2 H 0.9468 0.0454 0.0884
H35_2 H 0.9533 0.0821 0.0739
B2_2 B 0.8003(3) 0.0158(4) 0.08346(5)
Zn5_2 Zn 0.695905(19) 0.022587(32) 0.029803(5)
O6_2 O 0.70918(23) 0.06193(28) 0.13345(4)
N15_2 N 0.59336(16) 0.00761(28) 0.15255(4)
Zn1_2 Zn 0.799448(19) 0.812048(28) 0.093218(5)
Zn2_2 Zn 0.637428(19) 0.993348(26) 0.136864(5)
O1_2 O 0.74728(9) 0.74760(13) 0.08014(3)
O2_2 O 0.39526(16) 0.37585(23) 0.03322(4)
O3_2 O 0.82007(12) 0.78487(18) 0.06398(4)
O4_2 O 0.43758(19) 0.33268(28) 0.04243(6)
O5_2 O 0.64914(17) 0.57464(26) 0.02497(5)
N1_2 N 0.71580(12) 0.80479(18) 0.13343(4)
N2_2 N 0.76433(15) 0.79953(21) 0.11413(4)
N3_2 N 0.68170(12) 0.86859(18) 0.14264(4)
N4_2 N 0.80580(14) 0.96194(21) 0.08003(3)
N5_2 N 0.66844(16) 0.94259(22) 0.14105(4)
N6_2 N 0.80816(18) 0.88367(26) 0.08415(3)
N11_2 N 0.67710(13) 0.79476(20) 0.15984(3)
N12_2 N 0.67428(16) 0.74759(23) 0.18078(4)
C1_2 C 0.77042(14) 0.74773(21) 0.06754(4)
C2_2 C 0.71929(18) 0.79836(25) 0.11902(5)
C3_2 C 0.73723(14) 0.69960(19) 0.05677(4)
C4_2 C 0.6449(2) 0.8884(3) 0.14170(5)
C5_2 C 0.76238(15) 0.69297(21) 0.04398(4)
H1_2 H 0.8006 0.7180 0.0422
C6_2 C 0.68032(15) 0.66195(21) 0.05934(5)
H2_2 H 0.6628 0.6660 0.0680
C7_2 C 0.80637(18) 0.92666(26) 0.09066(4)
C8_2 C 0.67708(19) 0.79319(26) 0.10759(5)
H3_2 H 0.6455 0.7923 0.1127
H4_2 H 0.6643 0.7589 0.1019
H5_2 H 0.6941 0.8250 0.1008
C9_2 C 0.70694(19) 0.80905(27) 0.18392(5)
H6_2 H 0.7242 0.8258 0.1931
C10_2 C 0.65986(19) 0.74559(25) 0.16669(5)
C11_2 C 0.73042(17) 0.96432(26) 0.14111(5)
C12_2 C 0.7669(2) 0.80879(28) 0.14009(5)
H8_2 H 0.7756 0.8106 0.1504
C13_2 C 0.65005(16) 0.61945(26) 0.04937(5)
H9_2 H 0.6119 0.5941 0.0512
C14_2 C 0.73285(17) 0.65063(24) 0.03374(5)
H10_2 H 0.7507 0.6469 0.0251
C15_2 C 0.58361(16) 0.85147(24) 0.14306(5)
H11_2 H 0.5654 0.8737 0.1421
H12_2 H 0.5748 0.8330 0.1528
H13_2 H 0.5704 0.8235 0.1351
C16_2 C 0.8055(2) 0.9363(3) 0.10735(4)
H14_2 H 0.8055 0.9058 0.1128
H15_2 H 0.7720 0.9377 0.1099
H16_2 H 0.8383 0.9713 0.1101
C17_2 C 0.6287(3) 0.6902(4) 0.15873(6)
H17_2 H 0.6203 0.6603 0.1658
H18_2 H 0.6517 0.6890 0.1506
H19_2 H 0.5941 0.6857 0.1546
C19_2 C 0.79810(19) 0.80912(26) 0.12843(5)
H20_2 H 0.8345 0.8144 0.1290
C20_2 C 0.5492(3) 0.5243(4) 0.02227(9)
H21_2 H 0.5502 0.5531 0.0164
C21_2 C 0.6901(3) 0.9643(6) 0.06394(7)
H22_2 H 0.6619 0.9568 0.0563
H23_2 H 0.6775 0.9706 0.0736
H24_2 H 0.6958 0.9324 0.0647
C22_2 C 0.5935(3) 0.4865(6) 0.03773(10)
H25_2 H 0.6269 0.4928 0.0423
C23_2 C 0.4939(2) 0.4694(4) 0.02562(8)
H26_2 H 0.4603 0.4630 0.0212
C24_2 C 0.4366(3) 0.3753(4) 0.03698(7)
C26_2 C 0.4941(3) 0.4301(4) 0.03513(7)
C27_2 C 0.5953(3) 0.5281(4) 0.02830(8)
C31_2 C 0.8101(2) 0.8921(3) 0.06840(4)
H31_2 H 0.8121 0.8689 0.0610
C32_2 C 0.8087(2) 0.9394(3) 0.06600(4)
H32_2 H 0.8095 0.9550 0.0565
C33_2 C 0.67665(19) 0.61375(28) 0.03628(5)
C36_2 C 0.70720(19) 0.83550(28) 0.17149(5)
H36_2 H 0.7242 0.8746 0.1704
C37_2 C 0.73666(18) 0.91966(27) 0.14165(5)
H37_2 H 0.7712 0.9205 0.1414
C38_2 C 0.5422(3) 0.4339(5) 0.04075(8)
H38_2 H 0.5421 0.4046 0.0462
B1_2 B 0.6709(3) 0.8080(4) 0.14339(6)
Zn6_2 Zn 0.660015(26) 0.689253(32) 0.196469(5)
N13_2 N 0.8674(4) 0.8057(5) 0.09753(5)
N14_2 N 0.58067(14) 0.95807(25) 0.12003(3)
O2_3 O 0.62415(23) 0.01941(16) 0.03322(4)
O3_3 O 0.21513(18) 0.03520(14) 0.06398(4)
O4_3 O 0.66732(28) 0.1049(2) 0.04243(6)
O5_3 O 0.42536(26) 0.0745(2) 0.02497(5)
C1_3 C 0.25227(21) 0.02269(15) 0.06754(4)
C3_3 C 0.30040(19) 0.03763(13) 0.05677(4)
C5_3 C 0.30703(21) 0.06941(15) 0.04398(4)
H1_3 H 0.2820 0.0826 0.0422
C6_3 C 0.33805(21) 0.01837(15) 0.05934(5)
C13_3 C 0.38055(26) 0.0306(2) 0.04937(5)
H9_3 H 0.4059 0.0178 0.0512
C14_3 C 0.34937(24) 0.08222(17) 0.03374(5)
H10_3 H 0.3531 0.1038 0.0251
H20_3 H 0.1856 0.0201 0.1290
C20_3 C 0.4757(4) 0.0249(3) 0.02227(9)
C22_3 C 0.5135(6) 0.1070(5) 0.03773(10)
H25_3 H 0.5072 0.1341 0.0423
C23_3 C 0.5306(4) 0.0245(3) 0.02562(8)
C24_3 C 0.6247(4) 0.0613(3) 0.03698(7)
C26_3 C 0.5699(4) 0.0640(3) 0.03513(7)
C27_3 C 0.4719(4) 0.0672(3) 0.02830(8)
C33_3 C 0.38625(28) 0.0629(2) 0.03628(5)
C38_3 C 0.5661(5) 0.1083(4) 0.04075(8)
H38_3 H 0.5954 0.1375 0.0462
Zn2_3 Zn 0.006652(26) 0.644080(18) 0.136864(5)
O1_3 O 0.25240(13) 0.99968(10) 0.08014(3)
N1_3 N 0.19521(18) 0.91101(14) 0.13343(4)
N2_3 N 0.20047(21) 0.96480(14) 0.11413(4)
N3_3 N 0.13141(18) 0.81311(13) 0.14264(4)
N4_3 N 0.03806(21) 0.84386(16) 0.08003(3)
N5_3 N 0.05741(22) 0.72585(15) 0.14105(4)
N6_3 N 0.11633(26) 0.92449(19) 0.08415(3)
N11_3 N 0.20524(20) 0.88234(15) 0.15984(3)
N12_3 N 0.25241(23) 0.92669(16) 0.18078(4)
C2_3 C 0.20164(25) 0.92093(17) 0.11902(5)
C4_3 C 0.1116(3) 0.7565(2) 0.14170(5)
H2_3 H 0.3340 0.9968 0.0680
C7_3 C 0.07334(26) 0.87971(19) 0.09066(4)
C8_3 C 0.20681(26) 0.88389(18) 0.10759(5)
H3_3 H 0.2077 0.8532 0.1127
H4_3 H 0.2411 0.9054 0.1019
H5_3 H 0.1750 0.8691 0.1008
C9_3 C 0.19095(27) 0.89789(19) 0.18392(5)
H6_3 H 0.1742 0.8984 0.1931
C10_3 C 0.25441(25) 0.91427(17) 0.16669(5)
C11_3 C 0.03568(26) 0.7661(2) 0.14111(5)
C12_3 C 0.19121(28) 0.95811(19) 0.14009(5)
H8_3 H 0.1894 0.9650 0.1504
C15_3 C 0.14853(24) 0.73214(18) 0.14306(5)
H11_3 H 0.1263 0.6917 0.1421
H12_3 H 0.1670 0.7418 0.1528
H13_3 H 0.1765 0.7469 0.1351
C16_3 C 0.0637(3) 0.8692(2) 0.10735(4)
H14_3 H 0.0942 0.8997 0.1128
H15_3 H 0.0623 0.8343 0.1099
H16_3 H 0.0287 0.8670 0.1101
C17_3 C 0.3098(4) 0.9385(3) 0.15873(6)
H17_3 H 0.3397 0.9600 0.1658
H18_3 H 0.3110 0.9627 0.1506
H19_3 H 0.3143 0.9084 0.1546
C19_3 C 0.19088(26) 0.98898(18) 0.12843(5)
H21_3 H 0.4469 0.9971 0.0164
C21_3 C 0.0357(6) 0.7258(5) 0.06394(7)
H22_3 H 0.0432 0.7051 0.0563
H23_3 H 0.0294 0.7069 0.0736
H24_3 H 0.0676 0.7634 0.0647
H26_3 H 0.5370 0.9973 0.0212
C31_3 C 0.1079(3) 0.9180(2) 0.06840(4)
H31_3 H 0.1311 0.9432 0.0610
C32_3 C 0.0606(3) 0.8693(2) 0.06600(4)
H32_3 H 0.0450 0.8545 0.0565
C36_3 C 0.16450(28) 0.8717(2) 0.17149(5)
H36_3 H 0.1254 0.8496 0.1704
C37_3 C 0.08034(27) 0.8170(2) 0.14165(5)
H37_3 H 0.0795 0.8507 0.1414
B1_3 B 0.1920(4) 0.8629(2) 0.14339(6)
Zn6_3 Zn 0.310747(32) 0.970761(19) 0.196469(5)
N14_3 N 0.04193(25) 0.62261(21) 0.12003(3)
N8_3 N 0.95594(21) 0.70860(15) 0.04664(3)
N9_3 N 0.96126(25) 0.75456(18) 0.06800(4)
N10_3 N 0.93737(27) 0.78480(19) 0.09205(4)
H7_3 H 0.9980 0.7571 0.1408
C18_3 C 0.9139(3) 0.8139(2) 0.09012(6)
C25_3 C 0.9028(3) 0.7418(2) 0.10257(6)
H27_3 H 0.9104 0.7159 0.1074
C28_3 C 0.9177(4) 0.7493(3) 0.05930(6)
H28_3 H 0.8931 0.7623 0.0620
C29_3 C 0.8592(4) 0.7468(2) 0.10398(8)
H29_3 H 0.8257 0.7190 0.1083
C30_3 C 0.9156(4) 0.7225(3) 0.04633(6)
H30_3 H 0.8901 0.7148 0.0384
C34_3 C 0.9837(3) 0.7288(2) 0.05952(5)
C35_3 C 0.94351(27) 0.87061(18) 0.08132(5)
H33_3 H 0.9764 0.8745 0.0762
H34_3 H 0.9546 0.9014 0.0884
H35_3 H 0.9179 0.8712 0.0739
B2_3 B 0.9842(4) 0.7845(3) 0.08346(5)
O6_3 O 0.93807(28) 0.64726(16) 0.13345(4)
N15_3 N 0.99239(28) 0.58574(23) 0.15255(4)
Zn1_3 Zn 0.200552(19) 0.01260(2) 0.406782(5)
Zn2_4 Zn 0.362572(19) 0.355920(18) 0.363136(5)
O1_4 O 0.25272(9) 0.00032(10) 0.41986(3)
N1_4 N 0.28420(12) 0.08899(14) 0.36657(4)
N2_4 N 0.23567(15) 0.03520(14) 0.38587(4)
N3_4 N 0.31830(12) 0.18689(13) 0.35736(4)
N4_4 N 0.19420(14) 0.15614(16) 0.41997(3)
N5_4 N 0.33156(16) 0.27415(15) 0.35895(4)
N6_4 N 0.19184(18) 0.07551(19) 0.41585(3)
N7_2 N 0.0617(3) 0.1943(3) 0.40247(5)
N8_4 N 0.24734(14) 0.29140(15) 0.45336(3)
N9_4 N 0.20670(17) 0.24544(18) 0.43200(4)
N10_4 N 0.15257(19) 0.21520(19) 0.40795(4)
N11_4 N 0.32290(13) 0.11766(15) 0.34016(3)
N12_4 N 0.32572(16) 0.07331(16) 0.31922(4)
C2_4 C 0.28071(18) 0.07907(17) 0.38098(5)
C4_4 C 0.3551(2) 0.2435(2) 0.35830(5)
H2_4 H 0.3372 0.0032 0.4320
C7_4 C 0.19363(18) 0.12029(19) 0.40934(4)
C8_4 C 0.32292(19) 0.11611(18) 0.39241(5)
H3_4 H 0.3545 0.1468 0.3873
H4_4 H 0.3357 0.0946 0.3981
H5_4 H 0.3059 0.1309 0.3992
C9_4 C 0.29306(19) 0.10211(19) 0.31608(5)
H6_4 H 0.2758 0.1016 0.3069
C10_4 C 0.34014(19) 0.08573(17) 0.33331(5)
C11_4 C 0.26958(17) 0.2339(2) 0.35889(5)
H7_4 H 0.2409 0.2429 0.3592
C12_4 C 0.2331(2) 0.04189(19) 0.35991(5)
H8_4 H 0.2244 0.0350 0.3496
C15_4 C 0.41639(16) 0.26786(18) 0.35694(5)
H11_4 H 0.4346 0.3083 0.3579
H12_4 H 0.4252 0.2582 0.3472
H13_4 H 0.4296 0.2531 0.3649
C16_4 C 0.1945(2) 0.1308(2) 0.39265(4)
H14_4 H 0.1945 0.1003 0.3872
H15_4 H 0.2280 0.1657 0.3901
H16_4 H 0.1617 0.1330 0.3899
C17_4 C 0.3713(3) 0.0615(3) 0.34127(6)
H17_4 H 0.3797 0.0400 0.3342
H18_4 H 0.3483 0.0373 0.3494
H19_4 H 0.4059 0.0916 0.3454
C18_4 C 0.1000(2) 0.1861(2) 0.40988(6)
C19_4 C 0.20190(19) 0.01102(18) 0.37157(5)
H21_4 H 0.4498 0.0029 0.4836
C21_4 C 0.3099(3) 0.2742(5) 0.43606(7)
H22_4 H 0.3381 0.2949 0.4437
H23_4 H 0.3225 0.2931 0.4264
H24_4 H 0.3042 0.2366 0.4353
H26_4 H 0.5397 0.0027 0.4788
C25_4 C 0.1610(2) 0.2582(2) 0.39743(6)
H27_4 H 0.1945 0.2841 0.3926
C28_4 C 0.1684(2) 0.2507(3) 0.44070(6)
H28_4 H 0.1308 0.2377 0.4380
C29_4 C 0.1124(3) 0.2532(2) 0.39602(8)
H29_4 H 0.1067 0.2810 0.3917
C30_4 C 0.1931(2) 0.2775(3) 0.45367(6)
H30_4 H 0.1753 0.2852 0.4616
C31_4 C 0.1899(2) 0.0820(2) 0.43160(4)
H31_4 H 0.1879 0.0568 0.4390
C32_4 C 0.1913(2) 0.1307(2) 0.43400(4)
H32_4 H 0.1905 0.1455 0.4435
C34_4 C 0.2549(2) 0.2712(2) 0.44048(5)
C35_4 C 0.0729(2) 0.12939(18) 0.41868(5)
H33_4 H 0.1019 0.1255 0.4238
H34_4 H 0.0532 0.0986 0.4116
H35_4 H 0.0467 0.1288 0.4261
C36_4 C 0.29280(19) 0.1283(2) 0.32851(5)
H36_4 H 0.2758 0.1504 0.3296
C37_4 C 0.26334(18) 0.1830(2) 0.35835(5)
H37_4 H 0.2288 0.1493 0.3586
B1_4 B 0.3291(3) 0.1371(2) 0.35661(6)
B2_4 B 0.1997(3) 0.2155(3) 0.41654(5)
Zn5_3 Zn 0.304095(19) 0.326681(26) 0.470197(5)
Zn6_4 Zn 0.339985(26) 0.029239(19) 0.303531(5)
O6_4 O 0.29082(23) 0.35274(16) 0.36655(4)
N14_4 N 0.41933(14) 0.37739(21) 0.37997(3)
N15_4 N 0.40664(16) 0.41426(23) 0.34745(4)
O2_4 O 0.60474(16) 0.98059(16) 0.46678(4)
O3_4 O 0.17993(12) 0.96480(14) 0.43602(4)
O4_4 O 0.56242(19) 0.8951(2) 0.45757(6)
O5_4 O 0.35086(17) 0.9255(2) 0.47503(5)
C1_4 C 0.22958(14) 0.97731(15) 0.43246(4)
C3_4 C 0.26277(14) 0.96237(13) 0.44323(4)
C5_4 C 0.23762(15) 0.93059(15) 0.45602(4)
H1_4 H 0.1994 0.9174 0.4578
C6_4 C 0.31968(15) 0.98163(15) 0.44066(5)
C13_4 C 0.34995(16) 0.9694(2) 0.45063(5)
H9_4 H 0.3881 0.9822 0.4488
C14_4 C 0.26715(17) 0.91778(17) 0.46626(5)
H10_4 H 0.2493 0.8962 0.4749
H20_4 H 0.1655 0.9799 0.3710
C20_4 C 0.4508(3) 0.9751(3) 0.47773(9)
C22_4 C 0.4065(3) 0.8930(5) 0.46227(10)
H25_4 H 0.3731 0.8659 0.4577
C23_4 C 0.5061(2) 0.9755(3) 0.47438(8)
C24_4 C 0.5634(3) 0.9387(3) 0.46302(7)
C26_4 C 0.5059(3) 0.9360(3) 0.46487(7)
C27_4 C 0.4047(3) 0.9328(3) 0.47170(8)
C33_4 C 0.32335(19) 0.9371(2) 0.46372(5)
C38_4 C 0.4578(3) 0.8917(4) 0.45925(8)
H38_4 H 0.4579 0.8625 0.4538
Zn4_2 Zn 0.673319(26) 0.977413(18) 0.470197(5)
N13_3 N 0.1326(4) 0.9383(3) 0.40247(5)
Zn3_2 Zn 0.98740(2) 0.187952(28) 0.406782(5)
O2_5 O 0.01941(16) 0.62415(23) 0.46678(4)
O3_5 O 0.03520(14) 0.21513(18) 0.43602(4)
O4_5 O 0.1049(2) 0.66732(28) 0.45757(6)
O5_5 O 0.0745(2) 0.42536(26) 0.47503(5)
C1_5 C 0.02269(15) 0.25227(21) 0.43246(4)
C3_5 C 0.03763(13) 0.30040(19) 0.44323(4)
C5_5 C 0.06941(15) 0.30703(21) 0.45602(4)
H1_5 H 0.0826 0.2820 0.4578
C6_5 C 0.01837(15) 0.33805(21) 0.44066(5)
C13_5 C 0.0306(2) 0.38055(26) 0.45063(5)
H9_5 H 0.0178 0.4059 0.4488
C14_5 C 0.08222(17) 0.34937(24) 0.46626(5)
H10_5 H 0.1038 0.3531 0.4749
H20_5 H 0.0201 0.1856 0.3710
C20_5 C 0.0249(3) 0.4757(4) 0.47773(9)
C22_5 C 0.1070(5) 0.5135(6) 0.46227(10)
H25_5 H 0.1341 0.5072 0.4577
C23_5 C 0.0245(3) 0.5306(4) 0.47438(8)
C24_5 C 0.0613(3) 0.6247(4) 0.46302(7)
C26_5 C 0.0640(3) 0.5699(4) 0.46487(7)
C27_5 C 0.0672(3) 0.4719(4) 0.47170(8)
C33_5 C 0.0629(2) 0.38625(28) 0.46372(5)
C38_5 C 0.1083(4) 0.5661(5) 0.45925(8)
H38_5 H 0.1375 0.5954 0.4538
Zn4_3 Zn 0.022587(18) 0.695905(32) 0.470197(5)
Zn2_5 Zn 0.644080(18) 0.006652(26) 0.363136(5)
O1_5 O 0.99968(10) 0.25240(13) 0.41986(3)
N1_5 N 0.91101(14) 0.19521(18) 0.36657(4)
N2_5 N 0.96480(14) 0.20047(21) 0.38587(4)
N3_5 N 0.81311(13) 0.13141(18) 0.35736(4)
N4_5 N 0.84386(16) 0.03806(21) 0.41997(3)
N5_5 N 0.72585(15) 0.05741(22) 0.35895(4)
N6_5 N 0.92449(19) 0.11633(26) 0.41585(3)
N11_5 N 0.88234(15) 0.20524(20) 0.34016(3)
N12_5 N 0.92669(16) 0.25241(23) 0.31922(4)
C2_5 C 0.92093(17) 0.20164(25) 0.38098(5)
C4_5 C 0.7565(2) 0.1116(3) 0.35830(5)
H2_5 H 0.9968 0.3340 0.4320
C7_5 C 0.87971(19) 0.07334(26) 0.40934(4)
C8_5 C 0.88389(18) 0.20681(26) 0.39241(5)
H3_5 H 0.8532 0.2077 0.3873
H4_5 H 0.9054 0.2411 0.3981
H5_5 H 0.8691 0.1750 0.3992
C9_5 C 0.89789(19) 0.19095(27) 0.31608(5)
H6_5 H 0.8984 0.1742 0.3069
C10_5 C 0.91427(17) 0.25441(25) 0.33331(5)
C11_5 C 0.7661(2) 0.03568(26) 0.35889(5)
C12_5 C 0.95811(19) 0.19121(28) 0.35991(5)
H8_5 H 0.9650 0.1894 0.3496
C15_5 C 0.73214(18) 0.14853(24) 0.35694(5)
H11_5 H 0.6917 0.1263 0.3579
H12_5 H 0.7418 0.1670 0.3472
H13_5 H 0.7469 0.1765 0.3649
C16_5 C 0.8692(2) 0.0637(3) 0.39265(4)
H14_5 H 0.8997 0.0942 0.3872
H15_5 H 0.8343 0.0623 0.3901
H16_5 H 0.8670 0.0287 0.3899
C17_5 C 0.9385(3) 0.3098(4) 0.34127(6)
H17_5 H 0.9600 0.3397 0.3342
H18_5 H 0.9627 0.3110 0.3494
H19_5 H 0.9084 0.3143 0.3454
C19_5 C 0.98898(18) 0.19088(26) 0.37157(5)
H21_5 H 0.9971 0.4469 0.4836
C21_5 C 0.7258(5) 0.0357(6) 0.43606(7)
H22_5 H 0.7051 0.0432 0.4437
H23_5 H 0.7069 0.0294 0.4264
H24_5 H 0.7634 0.0676 0.4353
H26_5 H 0.9973 0.5370 0.4788
C31_5 C 0.9180(2) 0.1079(3) 0.43160(4)
H31_5 H 0.9432 0.1311 0.4390
C32_5 C 0.8693(2) 0.0606(3) 0.43400(4)
H32_5 H 0.8545 0.0450 0.4435
C36_5 C 0.8717(2) 0.16450(28) 0.32851(5)
H36_5 H 0.8496 0.1254 0.3296
C37_5 C 0.8170(2) 0.08034(27) 0.35835(5)
H37_5 H 0.8507 0.0795 0.3586
B1_5 B 0.8629(2) 0.1920(4) 0.35661(6)
Zn6_5 Zn 0.970761(19) 0.310747(32) 0.303531(5)
N14_5 N 0.62261(21) 0.04193(25) 0.37997(3)
N7_3 N 0.8057(3) 0.8674(4) 0.40247(5)
N8_5 N 0.70860(15) 0.95594(21) 0.45336(3)
N9_5 N 0.75456(18) 0.96126(25) 0.43200(4)
N10_5 N 0.78480(19) 0.93737(27) 0.40795(4)
H7_5 H 0.7571 0.9980 0.3592
C18_5 C 0.8139(2) 0.9139(3) 0.40988(6)
C25_5 C 0.7418(2) 0.9028(3) 0.39743(6)
H27_5 H 0.7159 0.9104 0.3926
C28_5 C 0.7493(3) 0.9177(4) 0.44070(6)
H28_5 H 0.7623 0.8931 0.4380
C29_5 C 0.7468(2) 0.8592(4) 0.39602(8)
H29_5 H 0.7190 0.8257 0.3917
C30_5 C 0.7225(3) 0.9156(4) 0.45367(6)
H30_5 H 0.7148 0.8901 0.4616
C34_5 C 0.7288(2) 0.9837(3) 0.44048(5)
C35_5 C 0.87061(18) 0.94351(27) 0.41868(5)
H33_5 H 0.8745 0.9764 0.4238
H34_5 H 0.9014 0.9546 0.4116
H35_5 H 0.8712 0.9179 0.4261
B2_5 B 0.7845(3) 0.9842(4) 0.41654(5)
Zn3_3 Zn 0.812048(28) 0.799448(34) 0.406782(5)
O6_5 O 0.64726(16) 0.93807(28) 0.36655(4)
N15_5 N 0.58574(23) 0.99239(28) 0.34745(4)
N8_6 N 0.04406(21) 0.75266(14) 0.45336(3)
N9_6 N 0.03874(25) 0.79330(17) 0.43200(4)
N10_6 N 0.06263(27) 0.84743(19) 0.40795(4)
H7_6 H 0.0020 0.7591 0.3592
C18_6 C 0.0861(3) 0.9000(2) 0.40988(6)
C25_6 C 0.0972(3) 0.8390(2) 0.39743(6)
H27_6 H 0.0896 0.8055 0.3926
C28_6 C 0.0823(4) 0.8316(2) 0.44070(6)
H28_6 H 0.1069 0.8692 0.4380
C29_6 C 0.1408(4) 0.8876(3) 0.39602(8)
H29_6 H 0.1743 0.8933 0.3917
C30_6 C 0.0844(4) 0.8069(2) 0.45367(6)
H30_6 H 0.1099 0.8247 0.4616
C34_6 C 0.0163(3) 0.7451(2) 0.44048(5)
C35_6 C 0.05649(27) 0.9271(2) 0.41868(5)
H33_6 H 0.0236 0.8981 0.4238
H34_6 H 0.0454 0.9468 0.4116
H35_6 H 0.0821 0.9533 0.4261
B2_6 B 0.0158(4) 0.8003(3) 0.41654(5)
O6_6 O 0.06193(28) 0.70918(23) 0.36655(4)
N15_6 N 0.00761(28) 0.59336(16) 0.34745(4)
Zn2_6 Zn 0.993348(26) 0.637428(19) 0.363136(5)
O1_6 O 0.74760(13) 0.74728(9) 0.41986(3)
O2_6 O 0.37585(23) 0.39526(16) 0.46678(4)
O3_6 O 0.78487(18) 0.82007(12) 0.43602(4)
O4_6 O 0.33268(28) 0.43758(19) 0.45757(6)
O5_6 O 0.57464(26) 0.64914(17) 0.47503(5)
N1_6 N 0.80479(18) 0.71580(12) 0.36657(4)
N2_6 N 0.79953(21) 0.76433(15) 0.38587(4)
N3_6 N 0.86859(18) 0.68170(12) 0.35736(4)
N4_6 N 0.96194(21) 0.80580(14) 0.41997(3)
N5_6 N 0.94259(22) 0.66844(16) 0.35895(4)
N6_6 N 0.88367(26) 0.80816(18) 0.41585(3)
N11_6 N 0.79476(20) 0.67710(13) 0.34016(3)
N12_6 N 0.74759(23) 0.67428(16) 0.31922(4)
C1_6 C 0.74773(21) 0.77042(14) 0.43246(4)
C2_6 C 0.79836(25) 0.71929(18) 0.38098(5)
C3_6 C 0.69960(19) 0.73723(14) 0.44323(4)
C4_6 C 0.8884(3) 0.6449(2) 0.35830(5)
C5_6 C 0.69297(21) 0.76238(15) 0.45602(4)
H1_6 H 0.7180 0.8006 0.4578
C6_6 C 0.66195(21) 0.68032(15) 0.44066(5)
H2_6 H 0.6660 0.6628 0.4320
C7_6 C 0.92666(26) 0.80637(18) 0.40934(4)
C8_6 C 0.79319(26) 0.67708(19) 0.39241(5)
H3_6 H 0.7923 0.6455 0.3873
H4_6 H 0.7589 0.6643 0.3981
H5_6 H 0.8250 0.6941 0.3992
C9_6 C 0.80905(27) 0.70694(19) 0.31608(5)
H6_6 H 0.8258 0.7242 0.3069
C10_6 C 0.74559(25) 0.65986(19) 0.33331(5)
C11_6 C 0.96432(26) 0.73042(17) 0.35889(5)
C12_6 C 0.80879(28) 0.7669(2) 0.35991(5)
H8_6 H 0.8106 0.7756 0.3496
C13_6 C 0.61945(26) 0.65005(16) 0.45063(5)
H9_6 H 0.5941 0.6119 0.4488
C14_6 C 0.65063(24) 0.73285(17) 0.46626(5)
H10_6 H 0.6469 0.7507 0.4749
C15_6 C 0.85147(24) 0.58361(16) 0.35694(5)
H11_6 H 0.8737 0.5654 0.3579
H12_6 H 0.8330 0.5748 0.3472
H13_6 H 0.8235 0.5704 0.3649
C16_6 C 0.9363(3) 0.8055(2) 0.39265(4)
H14_6 H 0.9058 0.8055 0.3872
H15_6 H 0.9377 0.7720 0.3901
H16_6 H 0.9713 0.8383 0.3899
C17_6 C 0.6902(4) 0.6287(3) 0.34127(6)
H17_6 H 0.6603 0.6203 0.3342
H18_6 H 0.6890 0.6517 0.3494
H19_6 H 0.6857 0.5941 0.3454
C19_6 C 0.80912(26) 0.79810(19) 0.37157(5)
H20_6 H 0.8144 0.8345 0.3710
C20_6 C 0.5243(4) 0.5492(3) 0.47773(9)
H21_6 H 0.5531 0.5502 0.4836
C21_6 C 0.9643(6) 0.6901(3) 0.43606(7)
H22_6 H 0.9568 0.6619 0.4437
H23_6 H 0.9706 0.6775 0.4264
H24_6 H 0.9324 0.6958 0.4353
C22_6 C 0.4865(6) 0.5935(3) 0.46227(10)
H25_6 H 0.4928 0.6269 0.4577
C23_6 C 0.4694(4) 0.4939(2) 0.47438(8)
H26_6 H 0.4630 0.4603 0.4788
C24_6 C 0.3753(4) 0.4366(3) 0.46302(7)
C26_6 C 0.4301(4) 0.4941(3) 0.46487(7)
C27_6 C 0.5281(4) 0.5953(3) 0.47170(8)
C31_6 C 0.8921(3) 0.8101(2) 0.43160(4)
H31_6 H 0.8689 0.8121 0.4390
C32_6 C 0.9394(3) 0.8087(2) 0.43400(4)
H32_6 H 0.9550 0.8095 0.4435
C33_6 C 0.61375(28) 0.67665(19) 0.46372(5)
C36_6 C 0.83550(28) 0.70720(19) 0.32851(5)
H36_6 H 0.8746 0.7242 0.3296
C37_6 C 0.91966(27) 0.73666(18) 0.35835(5)
H37_6 H 0.9205 0.7712 0.3586
C38_6 C 0.4339(5) 0.5422(3) 0.45925(8)
H38_6 H 0.4046 0.5421 0.4538
B1_6 B 0.8080(4) 0.6709(3) 0.35661(6)
Zn6_6 Zn 0.689253(32) 0.660015(26) 0.303531(5)
N14_6 N 0.95807(25) 0.58067(14) 0.37997(3)
N15_7 N 0.08092(23) 0.73998(16) 0.48589(4)
Zn1_4 Zn 0.67927(2) 0.533885(19) 0.426551(5)
O1_7 O 0.66699(10) 0.58605(9) 0.41347(3)
O3_7 O 0.63147(14) 0.51326(12) 0.39731(4)
O4_7 O 0.5618(2) 0.89575(19) 0.37576(6)
O5_7 O 0.5922(2) 0.68419(17) 0.35830(5)
N1_7 N 0.75566(14) 0.61753(12) 0.46676(4)
N2_7 N 0.70187(14) 0.56900(15) 0.44746(4)
N3_7 N 0.85356(13) 0.65163(12) 0.47597(4)
N4_7 N 0.82281(16) 0.52753(14) 0.41336(3)
N5_7 N 0.94082(15) 0.66489(16) 0.47438(4)
N6_7 N 0.74218(19) 0.52517(18) 0.41748(3)
N7_4 N 0.8610(3) 0.3950(3) 0.43086(5)
N9_7 N 0.91211(18) 0.54003(17) 0.40133(4)
N10_7 N 0.88187(19) 0.48590(19) 0.42538(4)
N11_7 N 0.78433(15) 0.65623(13) 0.49317(3)
N12_7 N 0.73998(16) 0.65905(16) 0.51411(4)
C1_7 C 0.64398(15) 0.56291(14) 0.40087(4)
C2_7 C 0.74574(17) 0.61404(18) 0.45235(5)
C3_7 C 0.62904(13) 0.59610(14) 0.39010(4)
C4_7 C 0.9102(2) 0.6884(2) 0.47503(5)
C5_7 C 0.59726(15) 0.57095(15) 0.37731(4)
H1_7 H 0.5841 0.5327 0.3755
C6_7 C 0.64830(15) 0.65301(15) 0.39267(5)
H2_7 H 0.6699 0.6705 0.4013
C7_7 C 0.78696(19) 0.52696(18) 0.42399(4)
C8_7 C 0.78278(18) 0.65625(19) 0.44092(5)
H3_7 H 0.8135 0.6878 0.4460
H4_7 H 0.7613 0.6690 0.4352
H5_7 H 0.7976 0.6392 0.4341
C9_7 C 0.76878(19) 0.62639(19) 0.51725(5)
H6_7 H 0.7683 0.6091 0.5264
C10_7 C 0.75240(17) 0.67347(19) 0.50002(5)
C11_7 C 0.9006(2) 0.60291(17) 0.47444(5)
H7_7 H 0.9096 0.5742 0.4741
C12_7 C 0.70856(19) 0.5664(2) 0.47342(5)
H8_7 H 0.7017 0.5577 0.4837
C13_7 C 0.6361(2) 0.68328(16) 0.38270(5)
H9_7 H 0.6489 0.7214 0.3845
C14_7 C 0.58445(17) 0.60048(17) 0.36707(5)
H10_7 H 0.5629 0.5826 0.3584
C15_7 C 0.93453(18) 0.74972(16) 0.47639(5)
H11_7 H 0.9750 0.7679 0.4754
H12_7 H 0.9249 0.7585 0.4861
H13_7 H 0.9198 0.7629 0.4684
C16_7 C 0.7975(2) 0.5278(2) 0.44068(4)
H14_7 H 0.7670 0.5278 0.4461
H15_7 H 0.8324 0.5613 0.4432
H16_7 H 0.7997 0.4950 0.4434
C17_7 C 0.7282(3) 0.7046(3) 0.49206(6)
H17_7 H 0.7067 0.7130 0.4991
H18_7 H 0.7040 0.6816 0.4839
H19_7 H 0.7583 0.7392 0.4879
C18_7 C 0.8528(2) 0.4333(2) 0.42345(6)
C19_7 C 0.67769(18) 0.53523(19) 0.46176(5)
H20_7 H 0.6466 0.4988 0.4623
C20_7 C 0.6418(3) 0.7841(3) 0.35560(9)
H21_7 H 0.6696 0.7831 0.3497
C21_7 C 0.9409(5) 0.6432(3) 0.39727(7)
H22_7 H 0.9616 0.6714 0.3896
H23_7 H 0.9598 0.6558 0.4069
H24_7 H 0.9033 0.6375 0.3980
C22_7 C 0.5597(5) 0.7398(3) 0.37106(10)
H25_7 H 0.5326 0.7064 0.3756
C23_7 C 0.6422(3) 0.8394(2) 0.35895(8)
H26_7 H 0.6694 0.8730 0.3545
C24_7 C 0.6054(3) 0.8967(3) 0.37031(7)
C25_7 C 0.9249(2) 0.4943(2) 0.43590(6)
H27_7 H 0.9508 0.5278 0.4407
C26_7 C 0.6027(3) 0.8392(3) 0.36846(7)
C27_7 C 0.5995(3) 0.7380(3) 0.36163(8)
C28_7 C 0.9174(3) 0.5017(2) 0.39263(6)
H28_7 H 0.9044 0.4641 0.3953
C29_7 C 0.9199(2) 0.4457(3) 0.43731(8)
H29_7 H 0.9477 0.4400 0.4416
C30_7 C 0.9442(3) 0.5264(2) 0.37966(6)
H30_7 H 0.9519 0.5086 0.3717
C31_7 C 0.7487(2) 0.5232(2) 0.40173(4)
H31_7 H 0.7235 0.5212 0.3943
C32_7 C 0.7974(2) 0.5246(2) 0.39933(4)
H32_7 H 0.8122 0.5238 0.3898
C33_7 C 0.6038(2) 0.65668(19) 0.36961(5)
C34_7 C 0.9379(2) 0.5882(2) 0.39285(5)
C35_7 C 0.79606(18) 0.4062(2) 0.41465(5)
H33_7 H 0.7922 0.4352 0.4095
H34_7 H 0.7653 0.3865 0.4217
H35_7 H 0.7955 0.3800 0.4072
C36_7 C 0.7950(2) 0.62613(19) 0.50482(5)
H36_7 H 0.8171 0.6091 0.5037
C37_7 C 0.8497(2) 0.59667(18) 0.47498(5)
H37_7 H 0.8160 0.5621 0.4747
C38_7 C 0.5584(4) 0.7911(3) 0.37408(8)
H38_7 H 0.5292 0.7912 0.3795
B1_7 B 0.8038(2) 0.6624(3) 0.47672(6)
B2_7 B 0.8822(3) 0.5330(3) 0.41679(5)
Zn3_4 Zn 0.854619(28) 0.32073(2) 0.426551(5)
Zn6_7 Zn 0.695905(19) 0.673319(26) 0.529803(5)
N13_4 N 0.6050(3) 0.4659(4) 0.43086(5)
Zn1_5 Zn 0.466115(19) 0.145381(28) 0.426551(5)
O1_8 O 0.41395(9) 0.08093(13) 0.41347(3)
O3_8 O 0.48674(12) 0.11820(18) 0.39731(4)
N1_8 N 0.38247(12) 0.13812(18) 0.46676(4)
N2_8 N 0.43100(15) 0.13286(21) 0.44746(4)
N3_8 N 0.34837(12) 0.20192(18) 0.47597(4)
N4_8 N 0.47247(14) 0.29527(21) 0.41336(3)
N5_8 N 0.33511(16) 0.27592(22) 0.47438(4)
N6_8 N 0.47483(18) 0.21700(26) 0.41748(3)
N9_8 N 0.45997(17) 0.37207(25) 0.40133(4)
N10_8 N 0.51410(19) 0.39596(27) 0.42538(4)
N11_8 N 0.34377(13) 0.12809(20) 0.49317(3)
N12_8 N 0.34095(16) 0.08092(23) 0.51411(4)
C1_8 C 0.43709(14) 0.08106(21) 0.40087(4)
C2_8 C 0.38596(18) 0.13169(25) 0.45235(5)
C3_8 C 0.40390(14) 0.03293(19) 0.39010(4)
C4_8 C 0.3116(2) 0.2217(3) 0.47503(5)
C5_8 C 0.42905(15) 0.02630(21) 0.37731(4)
H1_8 H 0.4673 0.0513 0.3755
C7_8 C 0.47304(18) 0.25999(26) 0.42399(4)
C8_8 C 0.34375(19) 0.12652(26) 0.44092(5)
H3_8 H 0.3122 0.1256 0.4460
H4_8 H 0.3310 0.0922 0.4352
H5_8 H 0.3608 0.1583 0.4341
C9_8 C 0.37361(19) 0.14238(27) 0.51725(5)
H6_8 H 0.3909 0.1591 0.5264
C10_8 C 0.32653(19) 0.07892(25) 0.50002(5)
C11_8 C 0.39709(17) 0.29765(26) 0.47444(5)
H7_8 H 0.4258 0.3353 0.4741
C12_8 C 0.4336(2) 0.14212(28) 0.47342(5)
H8_8 H 0.4423 0.1439 0.4837
C15_8 C 0.25028(16) 0.18480(24) 0.47639(5)
H11_8 H 0.2321 0.2070 0.4754
H12_8 H 0.2415 0.1663 0.4861
H13_8 H 0.2371 0.1568 0.4684
C16_8 C 0.4722(2) 0.2696(3) 0.44068(4)
H14_8 H 0.4722 0.2391 0.4461
H15_8 H 0.4387 0.2710 0.4432
H16_8 H 0.5050 0.3046 0.4434
C17_8 C 0.2954(3) 0.0235(4) 0.49206(6)
H18_8 H 0.3184 0.0223 0.4839
H19_8 H 0.2608 0.0190 0.4879
C18_8 C 0.5667(2) 0.4194(3) 0.42345(6)
C19_8 C 0.46477(19) 0.14245(26) 0.46176(5)
H20_8 H 0.5012 0.1477 0.4623
C21_8 C 0.3568(3) 0.2976(6) 0.39727(7)
H22_8 H 0.3286 0.2901 0.3896
H23_8 H 0.3442 0.3039 0.4069
H24_8 H 0.3625 0.2657 0.3980
C25_8 C 0.5057(2) 0.4305(3) 0.43590(6)
H27_8 H 0.4722 0.4229 0.4407
C28_8 C 0.4983(2) 0.4156(4) 0.39263(6)
H28_8 H 0.5359 0.4402 0.3953
C29_8 C 0.5543(3) 0.4741(4) 0.43731(8)
H29_8 H 0.5600 0.5076 0.4416
C30_8 C 0.4736(2) 0.4177(4) 0.37966(6)
H30_8 H 0.4914 0.4432 0.3717
C31_8 C 0.4768(2) 0.2254(3) 0.40173(4)
H31_8 H 0.4788 0.2022 0.3943
C32_8 C 0.4754(2) 0.2727(3) 0.39933(4)
H32_8 H 0.4762 0.2883 0.3898
C34_8 C 0.4118(2) 0.3496(3) 0.39285(5)
C35_8 C 0.5938(2) 0.38982(27) 0.41465(5)
H33_8 H 0.5648 0.3569 0.4095
H34_8 H 0.6135 0.3787 0.4217
H35_8 H 0.6200 0.4154 0.4072
C36_8 C 0.37387(19) 0.16883(28) 0.50482(5)
H36_8 H 0.3909 0.2079 0.5037
C37_8 C 0.40333(18) 0.25299(27) 0.47498(5)
H37_8 H 0.4379 0.2538 0.4747
B1_8 B 0.3376(3) 0.1413(4) 0.47672(6)
B2_8 B 0.4670(3) 0.3491(4) 0.41679(5)
Zn6_8 Zn 0.326681(26) 0.022587(32) 0.529803(5)
N13_5 N 0.5341(4) 0.1390(5) 0.43086(5)
N15_8 N 0.26002(16) 0.34095(28) 0.48589(4)
O4_8 O 0.10425(19) 0.66601(28) 0.37576(6)
O5_8 O 0.31581(17) 0.90797(26) 0.35830(5)
C6_8 C 0.34699(15) 0.99528(21) 0.39267(5)
H2_8 H 0.3295 0.9993 0.4013
C13_8 C 0.31672(16) 0.95278(26) 0.38270(5)
H9_8 H 0.2786 0.9274 0.3845
C14_8 C 0.39952(17) 0.98396(24) 0.36707(5)
H10_8 H 0.4174 0.9802 0.3584
H17_8 H 0.2870 0.9936 0.4991
C20_8 C 0.2159(3) 0.8576(4) 0.35560(9)
H21_8 H 0.2169 0.8864 0.3497
C22_8 C 0.2602(3) 0.8198(6) 0.37106(10)
H25_8 H 0.2936 0.8261 0.3756
C23_8 C 0.1606(2) 0.8027(4) 0.35895(8)
H26_8 H 0.1270 0.7963 0.3545
C24_8 C 0.1033(3) 0.7086(4) 0.37031(7)
C26_8 C 0.1608(3) 0.7634(4) 0.36846(7)
C27_8 C 0.2620(3) 0.8614(4) 0.36163(8)
C33_8 C 0.34332(19) 0.94708(28) 0.36961(5)
C38_8 C 0.2089(3) 0.7672(5) 0.37408(8)
H38_8 H 0.2088 0.7379 0.3795
O4_9 O 0.33399(28) 0.4382(2) 0.37576(6)
O5_9 O 0.09203(26) 0.4078(2) 0.35830(5)
C6_9 C 0.00472(21) 0.35170(15) 0.39267(5)
H2_9 H 0.0007 0.3301 0.4013
C13_9 C 0.04722(26) 0.3639(2) 0.38270(5)
H9_9 H 0.0726 0.3511 0.3845
C14_9 C 0.01604(24) 0.41555(17) 0.36707(5)
H10_9 H 0.0198 0.4371 0.3584
H17_9 H 0.0064 0.2933 0.4991
C20_9 C 0.1424(4) 0.3582(3) 0.35560(9)
H21_9 H 0.1136 0.3304 0.3497
C22_9 C 0.1802(6) 0.4403(5) 0.37106(10)
H25_9 H 0.1739 0.4674 0.3756
C23_9 C 0.1973(4) 0.3578(3) 0.35895(8)
H26_9 H 0.2037 0.3306 0.3545
C24_9 C 0.2914(4) 0.3946(3) 0.37031(7)
C26_9 C 0.2366(4) 0.3973(3) 0.36846(7)
C27_9 C 0.1386(4) 0.4005(3) 0.36163(8)
C33_9 C 0.05292(28) 0.3962(2) 0.36961(5)
C38_9 C 0.2328(5) 0.4416(4) 0.37408(8)
H38_9 H 0.2621 0.4708 0.3795
O1_9 O 0.91907(13) 0.33301(10) 0.41347(3)
O3_9 O 0.88180(18) 0.36853(14) 0.39731(4)
N1_9 N 0.86188(18) 0.24434(14) 0.46676(4)
N2_9 N 0.86714(21) 0.29813(14) 0.44746(4)
N3_9 N 0.79808(18) 0.14644(13) 0.47597(4)
N4_9 N 0.70473(21) 0.17719(16) 0.41336(3)
N5_9 N 0.72408(22) 0.05918(15) 0.47438(4)
N6_9 N 0.78300(26) 0.25782(19) 0.41748(3)
N9_9 N 0.62793(25) 0.08789(18) 0.40133(4)
N10_9 N 0.60404(27) 0.11813(19) 0.42538(4)
N11_9 N 0.87191(20) 0.21567(15) 0.49317(3)
N12_9 N 0.91908(23) 0.26002(16) 0.51411(4)
C1_9 C 0.91894(21) 0.35602(15) 0.40087(4)
C2_9 C 0.86831(25) 0.25426(17) 0.45235(5)
C3_9 C 0.96707(19) 0.37096(13) 0.39010(4)
C4_9 C 0.7783(3) 0.0898(2) 0.47503(5)
C5_9 C 0.97370(21) 0.40274(15) 0.37731(4)
H1_9 H 0.9487 0.4159 0.3755
C7_9 C 0.74001(26) 0.21304(19) 0.42399(4)
C8_9 C 0.87348(26) 0.21722(18) 0.44092(5)
H3_9 H 0.8744 0.1865 0.4460
H4_9 H 0.9078 0.2387 0.4352
H5_9 H 0.8417 0.2024 0.4341
C9_9 C 0.85762(27) 0.23122(19) 0.51725(5)
H6_9 H 0.8409 0.2317 0.5264
C10_9 C 0.92108(25) 0.24760(17) 0.50002(5)
C11_9 C 0.70235(26) 0.0994(2) 0.47444(5)
H7_9 H 0.6647 0.0904 0.4741
C12_9 C 0.85788(28) 0.29144(19) 0.47342(5)
H8_9 H 0.8561 0.2983 0.4837
C15_9 C 0.81520(24) 0.06547(18) 0.47639(5)
H11_9 H 0.7930 0.0250 0.4754
H12_9 H 0.8337 0.0751 0.4861
H13_9 H 0.8432 0.0802 0.4684
C16_9 C 0.7304(3) 0.2025(2) 0.44068(4)
H14_9 H 0.7609 0.2330 0.4461
H15_9 H 0.7290 0.1676 0.4432
H16_9 H 0.6954 0.2003 0.4434
C17_9 C 0.9765(4) 0.2718(3) 0.49206(6)
H18_9 H 0.9777 0.2960 0.4839
H19_9 H 0.9810 0.2417 0.4879
C18_9 C 0.5806(3) 0.1472(2) 0.42345(6)
C19_9 C 0.85755(26) 0.32231(18) 0.46176(5)
H20_9 H 0.8523 0.3534 0.4623
C21_9 C 0.7024(6) 0.0591(5) 0.39727(7)
H22_9 H 0.7099 0.0384 0.3896
H23_9 H 0.6961 0.0402 0.4069
H24_9 H 0.7343 0.0967 0.3980
C25_9 C 0.5695(3) 0.0751(2) 0.43590(6)
H27_9 H 0.5771 0.0492 0.4407
C28_9 C 0.5844(4) 0.0826(3) 0.39263(6)
H28_9 H 0.5598 0.0956 0.3953
C29_9 C 0.5259(4) 0.0801(2) 0.43731(8)
H29_9 H 0.4924 0.0523 0.4416
C30_9 C 0.5823(4) 0.0558(3) 0.37966(6)
H30_9 H 0.5568 0.0481 0.3717
C31_9 C 0.7746(3) 0.2513(2) 0.40173(4)
H31_9 H 0.7978 0.2765 0.3943
C32_9 C 0.7273(3) 0.2026(2) 0.39933(4)
H32_9 H 0.7117 0.1878 0.3898
C34_9 C 0.6504(3) 0.0621(2) 0.39285(5)
C35_9 C 0.61018(27) 0.20394(18) 0.41465(5)
H33_9 H 0.6431 0.2078 0.4095
H34_9 H 0.6213 0.2347 0.4217
H35_9 H 0.5846 0.2045 0.4072
C36_9 C 0.83117(28) 0.2050(2) 0.50482(5)
H36_9 H 0.7921 0.1829 0.5037
C37_9 C 0.74701(27) 0.1503(2) 0.47498(5)
H37_9 H 0.7462 0.1840 0.4747
B1_9 B 0.8587(4) 0.1962(2) 0.47672(6)
B2_9 B 0.6509(4) 0.1178(3) 0.41679(5)
Zn6_9 Zn 0.977413(32) 0.304095(19) 0.529803(5)
N15_9 N 0.65905(28) 0.91908(23) 0.48589(4)
Zn2_7 Zn 0.029239(19) 0.689253(18) 0.696469(5)
O2_7 O 0.27141(16) 0.31392(16) 0.80011(4)
O4_10 O 0.22909(19) 0.2284(2) 0.79090(6)
O5_10 O 0.01753(17) 0.2588(2) 0.80836(5)
C4_10 C 0.0218(2) 0.5768(2) 0.69163(5)
H2_10 H 0.0039 0.3365 0.7653
H3_10 H 0.0212 0.4801 0.7206
H4_10 H 0.0024 0.4279 0.7314
C10_10 C 0.00681(19) 0.41906(17) 0.66664(5)
C13_10 C 0.01662(16) 0.3027(2) 0.78396(5)
H9_10 H 0.0548 0.3155 0.7821
C15_10 C 0.08306(16) 0.60119(18) 0.69027(5)
H11_10 H 0.1013 0.6416 0.6912
H12_10 H 0.0919 0.5915 0.6805
H13_10 H 0.0963 0.5864 0.6982
C17_10 C 0.0380(3) 0.3948(3) 0.67460(6)
H17_10 H 0.0464 0.3733 0.6675
H18_10 H 0.0150 0.3706 0.6827
H19_10 H 0.0726 0.4249 0.6787
C20_10 C 0.1175(3) 0.3084(3) 0.81106(9)
H21_10 H 0.1165 0.3362 0.8169
H22_10 H 0.0048 0.6282 0.7770
C22_10 C 0.0732(3) 0.2263(5) 0.79560(10)
H25_10 H 0.0398 0.1992 0.7910
C23_10 C 0.1728(2) 0.3088(3) 0.80771(8)
H26_10 H 0.2064 0.3360 0.8121
C24_10 C 0.2301(3) 0.2720(3) 0.79635(7)
C26_10 C 0.1726(3) 0.2693(3) 0.79820(7)
C27_10 C 0.0714(3) 0.2661(3) 0.80503(8)
C38_10 C 0.1245(3) 0.2250(4) 0.79258(8)
H38_10 H 0.1246 0.1958 0.7871
Zn4_4 Zn 0.339985(26) 0.310747(18) 0.803531(5)
Zn6_10 Zn 0.006652(26) 0.362572(19) 0.636864(5)
N14_7 N 0.08599(14) 0.71073(21) 0.71331(3)
N15_10 N 0.07331(16) 0.74759(23) 0.68078(4)
Zn1_6 Zn 0.867219(19) 0.34593(2) 0.740115(5)
O1_10 O 0.91939(9) 0.33365(10) 0.75319(3)
O3_10 O 0.84660(12) 0.29813(14) 0.76935(4)
N1_10 N 0.95087(12) 0.42232(14) 0.69990(4)
N2_10 N 0.90234(15) 0.36853(14) 0.71920(4)
N3_10 N 0.98497(12) 0.52022(13) 0.69069(4)
N4_10 N 0.86087(14) 0.48947(16) 0.75330(3)
N5_10 N 0.99823(16) 0.60748(15) 0.69228(4)
N6_10 N 0.85851(18) 0.40884(19) 0.74918(3)
N7_5 N 0.7284(3) 0.5276(3) 0.73580(5)
N8_7 N 0.91401(14) 0.62473(15) 0.78669(3)
N9_10 N 0.87337(17) 0.57877(18) 0.76533(4)
N10_10 N 0.81924(19) 0.54853(19) 0.74128(4)
N11_10 N 0.98957(13) 0.45099(15) 0.67349(3)
N12_10 N 0.99239(16) 0.40664(16) 0.65255(4)
C1_10 C 0.89625(14) 0.31064(15) 0.76579(4)
C2_10 C 0.94738(18) 0.41240(17) 0.71431(5)
C3_10 C 0.92944(14) 0.29570(13) 0.77656(4)
C5_10 C 0.90429(15) 0.26392(15) 0.78935(4)
H1_10 H 0.8661 0.2507 0.7911
C6_10 C 0.98635(15) 0.31496(15) 0.77399(5)
C7_10 C 0.86030(18) 0.45362(19) 0.74267(4)
C8_10 C 0.98959(19) 0.44944(18) 0.72574(5)
H5_10 H 0.9726 0.4642 0.7325
C9_10 C 0.95973(19) 0.43544(19) 0.64941(5)
H6_10 H 0.9425 0.4349 0.6402
C11_10 C 0.93625(17) 0.5672(2) 0.69222(5)
H7_10 H 0.9076 0.5762 0.6925
C12_10 C 0.8998(2) 0.37522(19) 0.69324(5)
H8_10 H 0.8911 0.3683 0.6829
C14_10 C 0.93382(17) 0.25111(17) 0.79959(5)
H10_10 H 0.9160 0.2295 0.8082
C16_10 C 0.8612(2) 0.4641(2) 0.72598(4)
H14_10 H 0.8612 0.4336 0.7205
H15_10 H 0.8947 0.4990 0.7234
H16_10 H 0.8284 0.4663 0.7232
C18_10 C 0.7667(2) 0.5194(2) 0.74321(6)
C19_10 C 0.86857(19) 0.34435(18) 0.70490(5)
H20_10 H 0.8322 0.3132 0.7043
C21_10 C 0.9766(3) 0.6075(5) 0.76939(7)
H23_10 H 0.9892 0.6264 0.7597
H24_10 H 0.9709 0.5699 0.7686
C25_10 C 0.8277(2) 0.5915(2) 0.73076(6)
H27_10 H 0.8612 0.6174 0.7259
C28_10 C 0.8351(2) 0.5840(3) 0.77403(6)
H28_10 H 0.7975 0.5710 0.7713
C29_10 C 0.7791(3) 0.5865(2) 0.72935(8)
H29_10 H 0.7734 0.6143 0.7250
C30_10 C 0.8598(2) 0.6108(3) 0.78700(6)
H30_10 H 0.8420 0.6185 0.7949
C31_10 C 0.8566(2) 0.4153(2) 0.76493(4)
H31_10 H 0.8546 0.3901 0.7723
C32_10 C 0.8580(2) 0.4640(2) 0.76733(4)
H32_10 H 0.8572 0.4788 0.7768
C33_10 C 0.99002(19) 0.2704(2) 0.79705(5)
C34_10 C 0.9216(2) 0.6045(2) 0.77381(5)
C35_10 C 0.7396(2) 0.46272(18) 0.75201(5)
H33_10 H 0.7686 0.4588 0.7571
H34_10 H 0.7199 0.4319 0.7449
H35_10 H 0.7134 0.4621 0.7594
C36_10 C 0.95947(19) 0.4616(2) 0.66184(5)
H36_10 H 0.9425 0.4837 0.6629
C37_10 C 0.93001(18) 0.5163(2) 0.69168(5)
H37_10 H 0.8955 0.4826 0.6919
B1_10 B 0.9958(3) 0.4704(2) 0.68994(6)
B2_10 B 0.8664(3) 0.5488(3) 0.74987(5)
Zn3_5 Zn 0.65407(2) 0.521285(28) 0.740115(5)
Zn5_4 Zn 0.970761(19) 0.660015(26) 0.803531(5)
O6_7 O 0.95748(23) 0.68608(16) 0.69989(4)
N13_6 N 0.7993(4) 0.2716(3) 0.73580(5)
O4_11 O 0.7716(2) 0.00065(28) 0.79090(6)
Zn4_5 Zn 0.689253(18) 0.029239(32) 0.803531(5)
Zn2_8 Zn 0.310747(18) 0.339985(26) 0.696469(5)
O1_11 O 0.66635(10) 0.58573(13) 0.75319(3)
O2_8 O 0.68608(16) 0.95748(23) 0.80011(4)
O3_11 O 0.70187(14) 0.54846(18) 0.76935(4)
O5_11 O 0.7412(2) 0.75869(26) 0.80836(5)
N1_11 N 0.57768(14) 0.52854(18) 0.69990(4)
N2_11 N 0.63147(14) 0.53380(21) 0.71920(4)
N3_11 N 0.47978(13) 0.46474(18) 0.69069(4)
N4_11 N 0.51053(16) 0.37139(21) 0.75330(3)
N5_11 N 0.39252(15) 0.39074(22) 0.69228(4)
N6_11 N 0.59116(19) 0.44966(26) 0.74918(3)
N7_6 N 0.4724(3) 0.2007(4) 0.73580(5)
N8_8 N 0.37527(15) 0.28927(21) 0.78669(3)
N9_11 N 0.42123(18) 0.29459(25) 0.76533(4)
N10_11 N 0.45147(19) 0.27070(27) 0.74128(4)
N11_11 N 0.54901(15) 0.53857(20) 0.67349(3)
N12_11 N 0.59336(16) 0.58574(23) 0.65255(4)
C1_11 C 0.68936(15) 0.58560(21) 0.76579(4)
C2_11 C 0.58760(17) 0.53497(25) 0.71431(5)
C3_11 C 0.70430(13) 0.63373(19) 0.77656(4)
C4_11 C 0.4232(2) 0.4449(3) 0.69163(5)
C5_11 C 0.73608(15) 0.64036(21) 0.78935(4)
H1_11 H 0.7493 0.6153 0.7911
C6_11 C 0.68504(15) 0.67138(21) 0.77399(5)
H2_11 H 0.6635 0.6673 0.7653
C7_11 C 0.54638(19) 0.40667(26) 0.74267(4)
C8_11 C 0.55056(18) 0.54014(26) 0.72574(5)
H3_11 H 0.5199 0.5410 0.7206
H4_11 H 0.5721 0.5744 0.7314
H5_11 H 0.5358 0.5083 0.7325
C9_11 C 0.56456(19) 0.52428(27) 0.64941(5)
H6_11 H 0.5651 0.5075 0.6402
C10_11 C 0.58094(17) 0.58774(25) 0.66664(5)
C11_11 C 0.4328(2) 0.36901(26) 0.69222(5)
H7_11 H 0.4238 0.3313 0.6925
C12_11 C 0.62478(19) 0.52454(28) 0.69324(5)
H8_11 H 0.6317 0.5227 0.6829
C13_11 C 0.6973(2) 0.71388(26) 0.78396(5)
H9_11 H 0.6845 0.7392 0.7821
C14_11 C 0.74889(17) 0.68270(24) 0.79959(5)
H10_11 H 0.7705 0.6864 0.8082
C15_11 C 0.39881(18) 0.48186(24) 0.69027(5)
H11_11 H 0.3584 0.4596 0.6912
H12_11 H 0.4085 0.5003 0.6805
H13_11 H 0.4136 0.5098 0.6982
C16_11 C 0.5359(2) 0.3970(3) 0.72598(4)
H14_11 H 0.5664 0.4275 0.7205
H15_11 H 0.5010 0.3956 0.7234
H16_11 H 0.5337 0.3620 0.7232
C17_11 C 0.6052(3) 0.6431(4) 0.67460(6)
H17_11 H 0.6267 0.6730 0.6675
H18_11 H 0.6294 0.6443 0.6827
H19_11 H 0.5751 0.6476 0.6787
C18_11 C 0.4806(2) 0.2472(3) 0.74321(6)
C19_11 C 0.65565(18) 0.52421(26) 0.70490(5)
H20_11 H 0.6868 0.5189 0.7043
C20_11 C 0.6916(3) 0.8090(4) 0.81106(9)
H21_11 H 0.6638 0.7802 0.8169
C21_11 C 0.3925(5) 0.3690(6) 0.76939(7)
H22_11 H 0.3718 0.3765 0.7770
H23_11 H 0.3736 0.3627 0.7597
H24_11 H 0.4301 0.4009 0.7686
C22_11 C 0.7737(5) 0.8468(6) 0.79560(10)
H25_11 H 0.8008 0.8405 0.7910
C23_11 C 0.6912(3) 0.8639(4) 0.80771(8)
H26_11 H 0.6640 0.8703 0.8121
C24_11 C 0.7280(3) 0.9580(4) 0.79635(7)
C25_11 C 0.4085(2) 0.2361(3) 0.73076(6)
H27_11 H 0.3826 0.2437 0.7259
C26_11 C 0.7307(3) 0.9032(4) 0.79820(7)
C27_11 C 0.7339(3) 0.8052(4) 0.80503(8)
C28_11 C 0.4160(3) 0.2510(4) 0.77403(6)
H28_11 H 0.4290 0.2264 0.7713
C29_11 C 0.4135(2) 0.1925(4) 0.72935(8)
H29_11 H 0.3857 0.1590 0.7250
C30_11 C 0.3892(3) 0.2489(4) 0.78700(6)
H30_11 H 0.3815 0.2234 0.7949
C31_11 C 0.5847(2) 0.4412(3) 0.76493(4)
H31_11 H 0.6099 0.4644 0.7723
C32_11 C 0.5360(2) 0.3939(3) 0.76733(4)
H32_11 H 0.5212 0.3783 0.7768
C33_11 C 0.7296(2) 0.71958(28) 0.79705(5)
C34_11 C 0.3955(2) 0.3170(3) 0.77381(5)
C35_11 C 0.53728(18) 0.27684(27) 0.75201(5)
H33_11 H 0.5412 0.3097 0.7571
H34_11 H 0.5681 0.2879 0.7449
H35_11 H 0.5379 0.2512 0.7594
C36_11 C 0.5384(2) 0.49783(28) 0.66184(5)
H36_11 H 0.5163 0.4587 0.6629
C37_11 C 0.4837(2) 0.41367(27) 0.69168(5)
H37_11 H 0.5174 0.4128 0.6919
C38_11 C 0.7750(4) 0.8994(5) 0.79258(8)
H38_11 H 0.8042 0.9287 0.7871
B1_11 B 0.5296(2) 0.5253(4) 0.68994(6)
B2_11 B 0.4512(3) 0.3175(4) 0.74987(5)
Zn3_6 Zn 0.478715(28) 0.132781(34) 0.740115(5)
Zn6_11 Zn 0.637428(19) 0.644080(32) 0.636864(5)
O6_8 O 0.31392(16) 0.27141(28) 0.69989(4)
N14_8 N 0.28927(21) 0.37527(25) 0.71331(3)
N15_11 N 0.25241(23) 0.32572(28) 0.68078(4)
O1_12 O 0.41427(13) 0.08061(9) 0.75319(3)
O3_12 O 0.45154(18) 0.15340(12) 0.76935(4)
N1_12 N 0.47146(18) 0.04913(12) 0.69990(4)
N2_12 N 0.46620(21) 0.09766(15) 0.71920(4)
N3_12 N 0.53526(18) 0.01503(12) 0.69069(4)
N4_12 N 0.62861(21) 0.13913(14) 0.75330(3)
N5_12 N 0.60926(22) 0.00177(16) 0.69228(4)
N6_12 N 0.55034(26) 0.14149(18) 0.74918(3)
N8_9 N 0.71073(21) 0.08599(14) 0.78669(3)
N9_12 N 0.70541(25) 0.12663(17) 0.76533(4)
N10_12 N 0.72930(27) 0.18076(19) 0.74128(4)
N11_12 N 0.46143(20) 0.01043(13) 0.67349(3)
N12_12 N 0.41426(23) 0.00761(16) 0.65255(4)
C1_12 C 0.41440(21) 0.10375(14) 0.76579(4)
C2_12 C 0.46503(25) 0.05262(18) 0.71431(5)
C3_12 C 0.36627(19) 0.07056(14) 0.77656(4)
C5_12 C 0.35964(21) 0.09571(15) 0.78935(4)
H1_12 H 0.3847 0.1339 0.7911
C6_12 C 0.32862(21) 0.01365(15) 0.77399(5)
C7_12 C 0.59333(26) 0.13970(18) 0.74267(4)
C8_12 C 0.45986(26) 0.01041(19) 0.72574(5)
H5_12 H 0.4917 0.0274 0.7325
C9_12 C 0.47572(27) 0.04027(19) 0.64941(5)
H6_12 H 0.4925 0.0575 0.6402
C11_12 C 0.63099(26) 0.06375(17) 0.69222(5)
H7_12 H 0.6687 0.0924 0.6925
C12_12 C 0.47546(28) 0.1002(2) 0.69324(5)
H8_12 H 0.4773 0.1089 0.6829
C14_12 C 0.31730(24) 0.06618(17) 0.79959(5)
H10_12 H 0.3136 0.0840 0.8082
C16_12 C 0.6030(3) 0.1388(2) 0.72598(4)
H14_12 H 0.5725 0.1388 0.7205
H15_12 H 0.6044 0.1053 0.7234
H16_12 H 0.6380 0.1716 0.7232
C18_12 C 0.7528(3) 0.2333(2) 0.74321(6)
C19_12 C 0.47579(26) 0.13143(19) 0.70490(5)
H20_12 H 0.4811 0.1678 0.7043
C21_12 C 0.6310(6) 0.0234(3) 0.76939(7)
H23_12 H 0.6373 0.0108 0.7597
H24_12 H 0.5991 0.0291 0.7686
C25_12 C 0.7639(3) 0.1723(2) 0.73076(6)
H27_12 H 0.7563 0.1388 0.7259
C28_12 C 0.7490(4) 0.1649(2) 0.77403(6)
H28_12 H 0.7736 0.2025 0.7713
C29_12 C 0.8075(4) 0.2209(3) 0.72935(8)
H29_12 H 0.8410 0.2266 0.7250
C30_12 C 0.7511(4) 0.1402(2) 0.78700(6)
H30_12 H 0.7766 0.1580 0.7949
C31_12 C 0.5588(3) 0.1434(2) 0.76493(4)
H31_12 H 0.5356 0.1454 0.7723
C32_12 C 0.6061(3) 0.1420(2) 0.76733(4)
H32_12 H 0.6217 0.1428 0.7768
C33_12 C 0.28042(28) 0.00998(19) 0.79705(5)
C34_12 C 0.6830(3) 0.0784(2) 0.77381(5)
C35_12 C 0.72316(27) 0.2604(2) 0.75201(5)
H33_12 H 0.6903 0.2314 0.7571
H34_12 H 0.7121 0.2801 0.7449
H35_12 H 0.7488 0.2866 0.7594
C36_12 C 0.50217(28) 0.04053(19) 0.66184(5)
H36_12 H 0.5413 0.0575 0.6629
C37_12 C 0.58633(27) 0.06999(18) 0.69168(5)
H37_12 H 0.5872 0.1045 0.6919
B1_12 B 0.4747(4) 0.0042(3) 0.68994(6)
B2_12 B 0.6825(4) 0.1336(3) 0.74987(5)
O6_9 O 0.72859(28) 0.04252(23) 0.69989(4)
Zn2_9 Zn 0.660015(26) 0.970761(19) 0.696469(5)
O2_9 O 0.04252(23) 0.72859(16) 0.80011(4)
O5_12 O 0.24131(26) 0.98247(17) 0.80836(5)
C4_12 C 0.5551(3) 0.9782(2) 0.69163(5)
H2_12 H 0.3327 0.9961 0.7653
H3_12 H 0.4590 0.9788 0.7206
H4_12 H 0.4256 0.9976 0.7314
C10_12 C 0.41226(25) 0.99319(19) 0.66664(5)
C13_12 C 0.28612(26) 0.98338(16) 0.78396(5)
H9_12 H 0.2608 0.9452 0.7821
C15_12 C 0.51814(24) 0.91694(16) 0.69027(5)
H11_12 H 0.5404 0.8987 0.6912
H12_12 H 0.4997 0.9081 0.6805
H13_12 H 0.4902 0.9037 0.6982
C17_12 C 0.3569(4) 0.9620(3) 0.67460(6)
H17_12 H 0.3270 0.9536 0.6675
H18_12 H 0.3557 0.9850 0.6827
H19_12 H 0.3524 0.9274 0.6787
C20_12 C 0.1910(4) 0.8825(3) 0.81106(9)
H21_12 H 0.2198 0.8835 0.8169
H22_12 H 0.6235 0.9952 0.7770
C22_12 C 0.1532(6) 0.9268(3) 0.79560(10)
H25_12 H 0.1595 0.9602 0.7910
C23_12 C 0.1361(4) 0.8272(2) 0.80771(8)
H26_12 H 0.1297 0.7936 0.8121
C24_12 C 0.0420(4) 0.7699(3) 0.79635(7)
C26_12 C 0.0968(4) 0.8274(3) 0.79820(7)
C27_12 C 0.1948(4) 0.9286(3) 0.80503(8)
C38_12 C 0.1006(5) 0.8755(3) 0.79258(8)
H38_12 H 0.0713 0.8754 0.7871
Zn6_12 Zn 0.355920(32) 0.993348(26) 0.636864(5)
N14_9 N 0.62473(25) 0.91401(14) 0.71331(3)
N15_12 N 0.67428(28) 0.92669(16) 0.68078(4)
O4_12 O 0.99935(28) 0.77091(19) 0.79090(6)
O4_13 O 0.2284(2) 0.22909(19) 0.70910(6)
O5_13 O 0.2588(2) 0.01753(17) 0.69164(5)
C4_13 C 0.5768(2) 0.0218(2) 0.80837(5)
H2_13 H 0.3365 0.0039 0.7347
H3_13 H 0.4801 0.0212 0.7794
H4_13 H 0.4279 0.0024 0.7686
C10_13 C 0.41906(17) 0.00681(19) 0.83336(5)
C13_13 C 0.3027(2) 0.01662(16) 0.71604(5)
H9_13 H 0.3155 0.0548 0.7179
C15_13 C 0.60119(18) 0.08306(16) 0.80973(5)
H11_13 H 0.6416 0.1013 0.8088
H12_13 H 0.5915 0.0919 0.8195
H13_13 H 0.5864 0.0963 0.8018
C17_13 C 0.3948(3) 0.0380(3) 0.82540(6)
H17_13 H 0.3733 0.0464 0.8325
H18_13 H 0.3706 0.0150 0.8173
H19_13 H 0.4249 0.0726 0.8213
C20_13 C 0.3084(3) 0.1175(3) 0.68894(9)
H21_13 H 0.3362 0.1165 0.6831
H22_13 H 0.6282 0.0048 0.7230
C22_13 C 0.2263(5) 0.0732(3) 0.70440(10)
H25_13 H 0.1992 0.0398 0.7090
C23_13 C 0.3088(3) 0.1728(2) 0.69229(8)
H26_13 H 0.3360 0.2064 0.6879
C24_13 C 0.2720(3) 0.2301(3) 0.70365(7)
C26_13 C 0.2693(3) 0.1726(3) 0.70180(7)
C27_13 C 0.2661(3) 0.0714(3) 0.69497(8)
C38_13 C 0.2250(4) 0.1245(3) 0.70742(8)
H38_13 H 0.1958 0.1246 0.7129
Zn6_13 Zn 0.362572(19) 0.006652(26) 0.863136(5)
N15_13 N 0.74759(23) 0.07331(16) 0.81922(4)
Zn1_7 Zn 0.34593(2) 0.867219(19) 0.759885(5)
O1_13 O 0.33365(10) 0.91939(9) 0.74681(3)
O3_13 O 0.29813(14) 0.84660(12) 0.73065(4)
N1_13 N 0.42232(14) 0.95087(12) 0.80010(4)
N2_13 N 0.36853(14) 0.90234(15) 0.78080(4)
N3_13 N 0.52022(13) 0.98497(12) 0.80931(4)
N4_13 N 0.48947(16) 0.86087(14) 0.74670(3)
N5_13 N 0.60748(15) 0.99823(16) 0.80772(4)
N6_13 N 0.40884(19) 0.85851(18) 0.75082(3)
N7_7 N 0.5276(3) 0.7284(3) 0.76420(5)
N9_13 N 0.57877(18) 0.87337(17) 0.73467(4)
N10_13 N 0.54853(19) 0.81924(19) 0.75872(4)
N11_13 N 0.45099(15) 0.98957(13) 0.82651(3)
N12_13 N 0.40664(16) 0.99239(16) 0.84745(4)
C1_13 C 0.31064(15) 0.89625(14) 0.73421(4)
C2_13 C 0.41240(17) 0.94738(18) 0.78569(5)
C3_13 C 0.29570(13) 0.92944(14) 0.72344(4)
C5_13 C 0.26392(15) 0.90429(15) 0.71065(4)
H1_13 H 0.2507 0.8661 0.7089
C6_13 C 0.31496(15) 0.98635(15) 0.72601(5)
C7_13 C 0.45362(19) 0.86030(18) 0.75733(4)
C8_13 C 0.44944(18) 0.98959(19) 0.77426(5)
H5_13 H 0.4642 0.9726 0.7675
C9_13 C 0.43544(19) 0.95973(19) 0.85059(5)
H6_13 H 0.4349 0.9425 0.8598
C11_13 C 0.5672(2) 0.93625(17) 0.80778(5)
H7_13 H 0.5762 0.9076 0.8075
C12_13 C 0.37522(19) 0.8998(2) 0.80676(5)
H8_13 H 0.3683 0.8911 0.8171
C14_13 C 0.25111(17) 0.93382(17) 0.70041(5)
H10_13 H 0.2295 0.9160 0.6918
C16_13 C 0.4641(2) 0.8612(2) 0.77402(4)
H14_13 H 0.4336 0.8612 0.7795
H15_13 H 0.4990 0.8947 0.7766
H16_13 H 0.4663 0.8284 0.7768
C18_13 C 0.5194(2) 0.7667(2) 0.75679(6)
C19_13 C 0.34435(18) 0.86857(19) 0.79510(5)
H20_13 H 0.3132 0.8322 0.7957
C21_13 C 0.6075(5) 0.9766(3) 0.73061(7)
H23_13 H 0.6264 0.9892 0.7403
H24_13 H 0.5699 0.9709 0.7314
C25_13 C 0.5915(2) 0.8277(2) 0.76924(6)
H27_13 H 0.6174 0.8612 0.7741
C28_13 C 0.5840(3) 0.8351(2) 0.72597(6)
H28_13 H 0.5710 0.7975 0.7287
C29_13 C 0.5865(2) 0.7791(3) 0.77065(8)
H29_13 H 0.6143 0.7734 0.7750
C30_13 C 0.6108(3) 0.8598(2) 0.71300(6)
H30_13 H 0.6185 0.8420 0.7051
C31_13 C 0.4153(2) 0.8566(2) 0.73507(4)
H31_13 H 0.3901 0.8546 0.7277
C32_13 C 0.4640(2) 0.8580(2) 0.73267(4)
H32_13 H 0.4788 0.8572 0.7232
C33_13 C 0.2704(2) 0.99002(19) 0.70295(5)
C34_13 C 0.6045(2) 0.9216(2) 0.72619(5)
C35_13 C 0.46272(18) 0.7396(2) 0.74799(5)
H33_13 H 0.4588 0.7686 0.7429
H34_13 H 0.4319 0.7199 0.7551
H35_13 H 0.4621 0.7134 0.7406
C36_13 C 0.4616(2) 0.95947(19) 0.83816(5)
H36_13 H 0.4837 0.9425 0.8371
C37_13 C 0.5163(2) 0.93001(18) 0.80832(5)
H37_13 H 0.4826 0.8955 0.8081
B1_13 B 0.4704(2) 0.9958(3) 0.81006(6)
B2_13 B 0.5488(3) 0.8664(3) 0.75013(5)
Zn3_7 Zn 0.521285(28) 0.65407(2) 0.759885(5)
N13_7 N 0.2716(3) 0.7993(4) 0.76420(5)
Zn1_8 Zn 0.132781(19) 0.478715(28) 0.759885(5)
O1_14 O 0.08061(9) 0.41427(13) 0.74681(3)
O3_14 O 0.15340(12) 0.45154(18) 0.73065(4)
N1_14 N 0.04913(12) 0.47146(18) 0.80010(4)
N2_14 N 0.09766(15) 0.46620(21) 0.78080(4)
N3_14 N 0.01503(12) 0.53526(18) 0.80931(4)
N4_14 N 0.13913(14) 0.62861(21) 0.74670(3)
N5_14 N 0.00177(16) 0.60926(22) 0.80772(4)
N6_14 N 0.14149(18) 0.55034(26) 0.75082(3)
N9_14 N 0.12663(17) 0.70541(25) 0.73467(4)
N10_14 N 0.18076(19) 0.72930(27) 0.75872(4)
N11_14 N 0.01043(13) 0.46143(20) 0.82651(3)
N12_14 N 0.00761(16) 0.41426(23) 0.84745(4)
C1_14 C 0.10375(14) 0.41440(21) 0.73421(4)
C2_14 C 0.05262(18) 0.46503(25) 0.78569(5)
C3_14 C 0.07056(14) 0.36627(19) 0.72344(4)
C5_14 C 0.09571(15) 0.35964(21) 0.71065(4)
H1_14 H 0.1339 0.3847 0.7089
C6_14 C 0.01365(15) 0.32862(21) 0.72601(5)
C7_14 C 0.13970(18) 0.59333(26) 0.75733(4)
C8_14 C 0.01041(19) 0.45986(26) 0.77426(5)
H5_14 H 0.0274 0.4917 0.7675
C9_14 C 0.04027(19) 0.47572(27) 0.85059(5)
H6_14 H 0.0575 0.4925 0.8598
C11_14 C 0.06375(17) 0.63099(26) 0.80778(5)
H7_14 H 0.0924 0.6687 0.8075
C12_14 C 0.1002(2) 0.47546(28) 0.80676(5)
H8_14 H 0.1089 0.4773 0.8171
C14_14 C 0.06618(17) 0.31730(24) 0.70041(5)
H10_14 H 0.0840 0.3136 0.6918
C16_14 C 0.1388(2) 0.6030(3) 0.77402(4)
H14_14 H 0.1388 0.5725 0.7795
H15_14 H 0.1053 0.6044 0.7766
H16_14 H 0.1716 0.6380 0.7768
C18_14 C 0.2333(2) 0.7528(3) 0.75679(6)
C19_14 C 0.13143(19) 0.47579(26) 0.79510(5)
H20_14 H 0.1678 0.4811 0.7957
C21_14 C 0.0234(3) 0.6310(6) 0.73061(7)
H23_14 H 0.0108 0.6373 0.7403
H24_14 H 0.0291 0.5991 0.7314
C25_14 C 0.1723(2) 0.7639(3) 0.76924(6)
H27_14 H 0.1388 0.7563 0.7741
C28_14 C 0.1649(2) 0.7490(4) 0.72597(6)
H28_14 H 0.2025 0.7736 0.7287
C29_14 C 0.2209(3) 0.8075(4) 0.77065(8)
H29_14 H 0.2266 0.8410 0.7750
C30_14 C 0.1402(2) 0.7511(4) 0.71300(6)
H30_14 H 0.1580 0.7766 0.7051
C31_14 C 0.1434(2) 0.5588(3) 0.73507(4)
H31_14 H 0.1454 0.5356 0.7277
C32_14 C 0.1420(2) 0.6061(3) 0.73267(4)
H32_14 H 0.1428 0.6217 0.7232
C33_14 C 0.00998(19) 0.28042(28) 0.70295(5)
C34_14 C 0.0784(2) 0.6830(3) 0.72619(5)
C35_14 C 0.2604(2) 0.72316(27) 0.74799(5)
H33_14 H 0.2314 0.6903 0.7429
H34_14 H 0.2801 0.7121 0.7551
H35_14 H 0.2866 0.7488 0.7406
C36_14 C 0.04053(19) 0.50217(28) 0.83816(5)
H36_14 H 0.0575 0.5413 0.8371
C37_14 C 0.06999(18) 0.58633(27) 0.80832(5)
H37_14 H 0.1045 0.5872 0.8081
B1_14 B 0.0042(3) 0.4747(4) 0.81006(6)
B2_14 B 0.1336(3) 0.6825(4) 0.75013(5)
N13_8 N 0.2007(4) 0.4724(5) 0.76420(5)
O5_14 O 0.98247(17) 0.24131(26) 0.69164(5)
C4_14 C 0.9782(2) 0.5551(3) 0.80837(5)
H2_14 H 0.9961 0.3327 0.7347
H3_14 H 0.9788 0.4590 0.7794
H4_14 H 0.9976 0.4256 0.7686
C10_14 C 0.99319(19) 0.41226(25) 0.83336(5)
C13_14 C 0.98338(16) 0.28612(26) 0.71604(5)
H9_14 H 0.9452 0.2608 0.7179
C15_14 C 0.91694(16) 0.51814(24) 0.80973(5)
H11_14 H 0.8987 0.5404 0.8088
H12_14 H 0.9081 0.4997 0.8195
H13_14 H 0.9037 0.4902 0.8018
C17_14 C 0.9620(3) 0.3569(4) 0.82540(6)
H17_14 H 0.9536 0.3270 0.8325
H18_14 H 0.9850 0.3557 0.8173
H19_14 H 0.9274 0.3524 0.8213
C20_14 C 0.8825(3) 0.1910(4) 0.68894(9)
H21_14 H 0.8835 0.2198 0.6831
H22_14 H 0.9952 0.6235 0.7230
C22_14 C 0.9268(3) 0.1532(6) 0.70440(10)
H25_14 H 0.9602 0.1595 0.7090
C23_14 C 0.8272(2) 0.1361(4) 0.69229(8)
H26_14 H 0.7936 0.1297 0.6879
C24_14 C 0.7699(3) 0.0420(4) 0.70365(7)
C26_14 C 0.8274(3) 0.0968(4) 0.70180(7)
C27_14 C 0.9286(3) 0.1948(4) 0.69497(8)
C38_14 C 0.8755(3) 0.1006(5) 0.70742(8)
H38_14 H 0.8754 0.0713 0.7129
Zn6_14 Zn 0.993348(26) 0.355920(32) 0.863136(5)
N15_14 N 0.92669(16) 0.67428(28) 0.81922(4)
O4_14 O 0.77091(19) 0.99935(28) 0.70910(6)
O4_15 O 0.00065(28) 0.7716(2) 0.70910(6)
O1_15 O 0.58573(13) 0.66635(10) 0.74681(3)
O3_15 O 0.54846(18) 0.70187(14) 0.73065(4)
O5_15 O 0.75869(26) 0.7412(2) 0.69164(5)
N1_15 N 0.52854(18) 0.57768(14) 0.80010(4)
N2_15 N 0.53380(21) 0.63147(14) 0.78080(4)
N3_15 N 0.46474(18) 0.47978(13) 0.80931(4)
N4_15 N 0.37139(21) 0.51053(16) 0.74670(3)
N5_15 N 0.39074(22) 0.39252(15) 0.80772(4)
N6_15 N 0.44966(26) 0.59116(19) 0.75082(3)
N9_15 N 0.29459(25) 0.42123(18) 0.73467(4)
N10_15 N 0.27070(27) 0.45147(19) 0.75872(4)
N11_15 N 0.53857(20) 0.54901(15) 0.82651(3)
N12_15 N 0.58574(23) 0.59336(16) 0.84745(4)
C1_15 C 0.58560(21) 0.68936(15) 0.73421(4)
C2_15 C 0.53497(25) 0.58760(17) 0.78569(5)
C3_15 C 0.63373(19) 0.70430(13) 0.72344(4)
C4_15 C 0.4449(3) 0.4232(2) 0.80837(5)
C5_15 C 0.64036(21) 0.73608(15) 0.71065(4)
H1_15 H 0.6153 0.7493 0.7089
C6_15 C 0.67138(21) 0.68504(15) 0.72601(5)
H2_15 H 0.6673 0.6635 0.7347
C7_15 C 0.40667(26) 0.54638(19) 0.75733(4)
C8_15 C 0.54014(26) 0.55056(18) 0.77426(5)
H3_15 H 0.5410 0.5199 0.7794
H4_15 H 0.5744 0.5721 0.7686
H5_15 H 0.5083 0.5358 0.7675
C9_15 C 0.52428(27) 0.56456(19) 0.85059(5)
H6_15 H 0.5075 0.5651 0.8598
C10_15 C 0.58774(25) 0.58094(17) 0.83336(5)
C11_15 C 0.36901(26) 0.4328(2) 0.80778(5)
H7_15 H 0.3313 0.4238 0.8075
C12_15 C 0.52454(28) 0.62478(19) 0.80676(5)
H8_15 H 0.5227 0.6317 0.8171
C13_15 C 0.71388(26) 0.6973(2) 0.71604(5)
H9_15 H 0.7392 0.6845 0.7179
C14_15 C 0.68270(24) 0.74889(17) 0.70041(5)
H10_15 H 0.6864 0.7705 0.6918
C15_15 C 0.48186(24) 0.39881(18) 0.80973(5)
H11_15 H 0.4596 0.3584 0.8088
H12_15 H 0.5003 0.4085 0.8195
H13_15 H 0.5098 0.4136 0.8018
C16_15 C 0.3970(3) 0.5359(2) 0.77402(4)
H14_15 H 0.4275 0.5664 0.7795
H15_15 H 0.3956 0.5010 0.7766
H16_15 H 0.3620 0.5337 0.7768
C17_15 C 0.6431(4) 0.6052(3) 0.82540(6)
H17_15 H 0.6730 0.6267 0.8325
H18_15 H 0.6443 0.6294 0.8173
H19_15 H 0.6476 0.5751 0.8213
C18_15 C 0.2472(3) 0.4806(2) 0.75679(6)
C19_15 C 0.52421(26) 0.65565(18) 0.79510(5)
H20_15 H 0.5189 0.6868 0.7957
C20_15 C 0.8090(4) 0.6916(3) 0.68894(9)
H21_15 H 0.7802 0.6638 0.6831
C21_15 C 0.3690(6) 0.3925(5) 0.73061(7)
H22_15 H 0.3765 0.3718 0.7230
H23_15 H 0.3627 0.3736 0.7403
H24_15 H 0.4009 0.4301 0.7314
C22_15 C 0.8468(6) 0.7737(5) 0.70440(10)
H25_15 H 0.8405 0.8008 0.7090
C23_15 C 0.8639(4) 0.6912(3) 0.69229(8)
H26_15 H 0.8703 0.6640 0.6879
C24_15 C 0.9580(4) 0.7280(3) 0.70365(7)
C25_15 C 0.2361(3) 0.4085(2) 0.76924(6)
H27_15 H 0.2437 0.3826 0.7741
C26_15 C 0.9032(4) 0.7307(3) 0.70180(7)
C27_15 C 0.8052(4) 0.7339(3) 0.69497(8)
C28_15 C 0.2510(4) 0.4160(3) 0.72597(6)
H28_15 H 0.2264 0.4290 0.7287
C29_15 C 0.1925(4) 0.4135(2) 0.77065(8)
H29_15 H 0.1590 0.3857 0.7750
C30_15 C 0.2489(4) 0.3892(3) 0.71300(6)
H30_15 H 0.2234 0.3815 0.7051
C31_15 C 0.4412(3) 0.5847(2) 0.73507(4)
H31_15 H 0.4644 0.6099 0.7277
C32_15 C 0.3939(3) 0.5360(2) 0.73267(4)
H32_15 H 0.3783 0.5212 0.7232
C33_15 C 0.71958(28) 0.7296(2) 0.70295(5)
C34_15 C 0.3170(3) 0.3955(2) 0.72619(5)
C35_15 C 0.27684(27) 0.53728(18) 0.74799(5)
H33_15 H 0.3097 0.5412 0.7429
H34_15 H 0.2879 0.5681 0.7551
H35_15 H 0.2512 0.5379 0.7406
C36_15 C 0.49783(28) 0.5384(2) 0.83816(5)
H36_15 H 0.4587 0.5163 0.8371
C37_15 C 0.41367(27) 0.4837(2) 0.80832(5)
H37_15 H 0.4128 0.5174 0.8081
C38_15 C 0.8994(5) 0.7750(4) 0.70742(8)
H38_15 H 0.9287 0.8042 0.7129
B1_15 B 0.5253(4) 0.5296(2) 0.81006(6)
B2_15 B 0.3175(4) 0.4512(3) 0.75013(5)
Zn6_15 Zn 0.644080(32) 0.637428(19) 0.863136(5)
N15_15 N 0.32572(28) 0.25241(23) 0.81922(4)
N15_16 N 0.73998(16) 0.08092(23) 0.01411(4)
Zn1_9 Zn 0.533885(19) 0.67927(2) 0.073449(5)
O1_16 O 0.58605(9) 0.66699(10) 0.08653(3)
O3_16 O 0.51326(12) 0.63147(14) 0.10269(4)
O4_16 O 0.89575(19) 0.5618(2) 0.12424(6)
O5_16 O 0.68419(17) 0.5922(2) 0.14170(5)
N1_16 N 0.61753(12) 0.75566(14) 0.03324(4)
N2_16 N 0.56900(15) 0.70187(14) 0.05254(4)
N3_16 N 0.65163(12) 0.85356(13) 0.02403(4)
N4_16 N 0.52753(14) 0.82281(16) 0.08664(3)
N5_16 N 0.66489(16) 0.94082(15) 0.02562(4)
N6_16 N 0.52517(18) 0.74218(19) 0.08252(3)
N7_8 N 0.3950(3) 0.8610(3) 0.06914(5)
N9_16 N 0.54003(17) 0.91211(18) 0.09867(4)
N10_16 N 0.48590(19) 0.88187(19) 0.07462(4)
N11_16 N 0.65623(13) 0.78433(15) 0.00683(3)
C1_16 C 0.56291(14) 0.64398(15) 0.09913(4)
C2_16 C 0.61404(18) 0.74574(17) 0.04765(5)
C3_16 C 0.59610(14) 0.62904(13) 0.10990(4)
C4_16 C 0.6884(2) 0.9102(2) 0.02497(5)
C5_16 C 0.57095(15) 0.59726(15) 0.12269(4)
H1_16 H 0.5327 0.5841 0.1245
C6_16 C 0.65301(15) 0.64830(15) 0.10733(5)
H2_16 H 0.6705 0.6699 0.0987
C7_16 C 0.52696(18) 0.78696(19) 0.07601(4)
C8_16 C 0.65625(19) 0.78278(18) 0.05908(5)
H3_16 H 0.6878 0.8135 0.0540
H4_16 H 0.6690 0.7613 0.0648
H5_16 H 0.6392 0.7976 0.0659
C11_16 C 0.60291(17) 0.9006(2) 0.02556(5)
H7_16 H 0.5742 0.9096 0.0259
C12_16 C 0.5664(2) 0.70856(19) 0.02658(5)
H8_16 H 0.5577 0.7017 0.0163
C13_16 C 0.68328(16) 0.6361(2) 0.11730(5)
H9_16 H 0.7214 0.6489 0.1155
C14_16 C 0.60048(17) 0.58445(17) 0.13293(5)
H10_16 H 0.5826 0.5629 0.1416
C15_16 C 0.74972(16) 0.93453(18) 0.02361(5)
H11_16 H 0.7679 0.9750 0.0246
H12_16 H 0.7585 0.9249 0.0139
H13_16 H 0.7629 0.9198 0.0316
C16_16 C 0.5278(2) 0.7975(2) 0.05932(4)
H14_16 H 0.5278 0.7670 0.0539
H15_16 H 0.5613 0.8324 0.0568
H16_16 H 0.4950 0.7997 0.0566
C17_16 C 0.7046(3) 0.7282(3) 0.00794(6)
H17_16 H 0.7130 0.7067 0.0009
H18_16 H 0.6816 0.7040 0.0161
H19_16 H 0.7392 0.7583 0.0121
C18_16 C 0.4333(2) 0.8528(2) 0.07655(6)
C19_16 C 0.53523(19) 0.67769(18) 0.03824(5)
H20_16 H 0.4988 0.6466 0.0377
C20_16 C 0.7841(3) 0.6418(3) 0.14440(9)
H21_16 H 0.7831 0.6696 0.1503
C21_16 C 0.6432(3) 0.9409(5) 0.10273(7)
H22_16 H 0.6714 0.9616 0.1104
H23_16 H 0.6558 0.9598 0.0931
H24_16 H 0.6375 0.9033 0.1020
C22_16 C 0.7398(3) 0.5597(5) 0.12894(10)
H25_16 H 0.7064 0.5326 0.1244
C23_16 C 0.8394(2) 0.6422(3) 0.14105(8)
H26_16 H 0.8730 0.6694 0.1455
C24_16 C 0.8967(3) 0.6054(3) 0.12969(7)
C25_16 C 0.4943(2) 0.9249(2) 0.06410(6)
H27_16 H 0.5278 0.9508 0.0593
C26_16 C 0.8392(3) 0.6027(3) 0.13154(7)
C27_16 C 0.7380(3) 0.5995(3) 0.13837(8)
C28_16 C 0.5017(2) 0.9174(3) 0.10737(6)
H28_16 H 0.4641 0.9044 0.1047
C29_16 C 0.4457(3) 0.9199(2) 0.06269(8)
H29_16 H 0.4400 0.9477 0.0584
C30_16 C 0.5264(2) 0.9442(3) 0.12034(6)
H30_16 H 0.5086 0.9519 0.1283
C31_16 C 0.5232(2) 0.7487(2) 0.09827(4)
H31_16 H 0.5212 0.7235 0.1057
C32_16 C 0.5246(2) 0.7974(2) 0.10067(4)
H32_16 H 0.5238 0.8122 0.1102
C33_16 C 0.65668(19) 0.6038(2) 0.13039(5)
C34_16 C 0.5882(2) 0.9379(2) 0.10715(5)
C35_16 C 0.4062(2) 0.79606(18) 0.08535(5)
H33_16 H 0.4352 0.7922 0.0905
H34_16 H 0.3865 0.7653 0.0783
H35_16 H 0.3800 0.7955 0.0928
C37_16 C 0.59667(18) 0.8497(2) 0.02502(5)
H37_16 H 0.5621 0.8160 0.0253
C38_16 C 0.7911(3) 0.5584(4) 0.12592(8)
H38_16 H 0.7912 0.5292 0.1205
B1_16 B 0.6624(3) 0.8038(2) 0.02328(6)
B2_16 B 0.5330(3) 0.8822(3) 0.08321(5)
Zn3_8 Zn 0.32073(2) 0.854619(28) 0.073449(5)
N13_9 N 0.4659(4) 0.6050(3) 0.06914(5)
N12_16 N 0.65905(16) 0.73998(16) 0.98589(4)
C9_16 C 0.62639(19) 0.76878(19) 0.98275(5)
H6_16 H 0.6091 0.7683 0.9736
C10_16 C 0.67347(19) 0.75240(17) 0.99998(5)
C36_16 C 0.62613(19) 0.7950(2) 0.99518(5)
H36_16 H 0.6091 0.8171 0.9963
Zn6_16 Zn 0.673319(26) 0.695905(19) 0.970197(5)
O4_17 O 0.4382(2) 0.33399(28) 0.12424(6)
O5_17 O 0.4078(2) 0.09203(26) 0.14170(5)
C6_17 C 0.35170(15) 0.00472(21) 0.10733(5)
H2_17 H 0.3301 0.0007 0.0987
C13_17 C 0.3639(2) 0.04722(26) 0.11730(5)
H9_17 H 0.3511 0.0726 0.1155
C14_17 C 0.41555(17) 0.01604(24) 0.13293(5)
H10_17 H 0.4371 0.0198 0.1416
H17_17 H 0.2933 0.0064 0.0009
C20_17 C 0.3582(3) 0.1424(4) 0.14440(9)
H21_17 H 0.3304 0.1136 0.1503
C22_17 C 0.4403(5) 0.1802(6) 0.12894(10)
H25_17 H 0.4674 0.1739 0.1244
C23_17 C 0.3578(3) 0.1973(4) 0.14105(8)
H26_17 H 0.3306 0.2037 0.1455
C24_17 C 0.3946(3) 0.2914(4) 0.12969(7)
C26_17 C 0.3973(3) 0.2366(4) 0.13154(7)
C27_17 C 0.4005(3) 0.1386(4) 0.13837(8)
C33_17 C 0.3962(2) 0.05292(28) 0.13039(5)
C38_17 C 0.4416(4) 0.2328(5) 0.12592(8)
H38_17 H 0.4708 0.2621 0.1205
O1_17 O 0.33301(10) 0.91907(13) 0.08653(3)
O3_17 O 0.36853(14) 0.88180(18) 0.10269(4)
N1_17 N 0.24434(14) 0.86188(18) 0.03324(4)
N2_17 N 0.29813(14) 0.86714(21) 0.05254(4)
N3_17 N 0.14644(13) 0.79808(18) 0.02403(4)
N4_17 N 0.17719(16) 0.70473(21) 0.08664(3)
N5_17 N 0.05918(15) 0.72408(22) 0.02562(4)
N6_17 N 0.25782(19) 0.78300(26) 0.08252(3)
N7_9 N 0.1390(3) 0.5341(4) 0.06914(5)
N9_17 N 0.08789(18) 0.62793(25) 0.09867(4)
N10_17 N 0.11813(19) 0.60404(27) 0.07462(4)
N11_17 N 0.21567(15) 0.87191(20) 0.00683(3)
C1_17 C 0.35602(15) 0.91894(21) 0.09913(4)
C2_17 C 0.25426(17) 0.86831(25) 0.04765(5)
C3_17 C 0.37096(13) 0.96707(19) 0.10990(4)
C4_17 C 0.0898(2) 0.7783(3) 0.02497(5)
C5_17 C 0.40274(15) 0.97370(21) 0.12269(4)
H1_17 H 0.4159 0.9487 0.1245
C7_17 C 0.21304(19) 0.74001(26) 0.07601(4)
C8_17 C 0.21722(18) 0.87348(26) 0.05908(5)
H3_17 H 0.1865 0.8744 0.0540
H4_17 H 0.2387 0.9078 0.0648
H5_17 H 0.2024 0.8417 0.0659
C11_17 C 0.0994(2) 0.70235(26) 0.02556(5)
H7_17 H 0.0904 0.6647 0.0259
C12_17 C 0.29144(19) 0.85788(28) 0.02658(5)
H8_17 H 0.2983 0.8561 0.0163
C15_17 C 0.06547(18) 0.81520(24) 0.02361(5)
H11_17 H 0.0250 0.7930 0.0246
H12_17 H 0.0751 0.8337 0.0139
H13_17 H 0.0802 0.8432 0.0316
C16_17 C 0.2025(2) 0.7304(3) 0.05932(4)
H14_17 H 0.2330 0.7609 0.0539
H15_17 H 0.1676 0.7290 0.0568
H16_17 H 0.2003 0.6954 0.0566
C17_17 C 0.2718(3) 0.9765(4) 0.00794(6)
H18_17 H 0.2960 0.9777 0.0161
H19_17 H 0.2417 0.9810 0.0121
C18_17 C 0.1472(2) 0.5806(3) 0.07655(6)
C19_17 C 0.32231(18) 0.85755(26) 0.03824(5)
H20_17 H 0.3534 0.8523 0.0377
C21_17 C 0.0591(5) 0.7024(6) 0.10273(7)
H22_17 H 0.0384 0.7099 0.1104
H23_17 H 0.0402 0.6961 0.0931
H24_17 H 0.0967 0.7343 0.1020
C25_17 C 0.0751(2) 0.5695(3) 0.06410(6)
H27_17 H 0.0492 0.5771 0.0593
C28_17 C 0.0826(3) 0.5844(4) 0.10737(6)
H28_17 H 0.0956 0.5598 0.1047
C29_17 C 0.0801(2) 0.5259(4) 0.06269(8)
H29_17 H 0.0523 0.4924 0.0584
C30_17 C 0.0558(3) 0.5823(4) 0.12034(6)
H30_17 H 0.0481 0.5568 0.1283
C31_17 C 0.2513(2) 0.7746(3) 0.09827(4)
H31_17 H 0.2765 0.7978 0.1057
C32_17 C 0.2026(2) 0.7273(3) 0.10067(4)
H32_17 H 0.1878 0.7117 0.1102
C34_17 C 0.0621(2) 0.6504(3) 0.10715(5)
C35_17 C 0.20394(18) 0.61018(27) 0.08535(5)
H33_17 H 0.2078 0.6431 0.0905
H34_17 H 0.2347 0.6213 0.0783
H35_17 H 0.2045 0.5846 0.0928
C37_17 C 0.1503(2) 0.74701(27) 0.02502(5)
H37_17 H 0.1840 0.7462 0.0253
B1_17 B 0.1962(2) 0.8587(4) 0.02328(6)
B2_17 B 0.1178(3) 0.6509(4) 0.08321(5)
Zn3_9 Zn 0.145381(28) 0.466115(34) 0.073449(5)
N12_17 N 0.26002(16) 0.91908(23) 0.98589(4)
C9_17 C 0.23122(19) 0.85762(27) 0.98275(5)
H6_17 H 0.2317 0.8409 0.9736
C10_17 C 0.24760(17) 0.92108(25) 0.99998(5)
C36_17 C 0.2050(2) 0.83117(28) 0.99518(5)
H36_17 H 0.1829 0.7921 0.9963
Zn6_17 Zn 0.304095(19) 0.977413(32) 0.970197(5)
N15_17 N 0.91908(23) 0.65905(28) 0.01411(4)
O1_18 O 0.08093(13) 0.41395(9) 0.08653(3)
O3_18 O 0.11820(18) 0.48674(12) 0.10269(4)
N1_18 N 0.13812(18) 0.38247(12) 0.03324(4)
N2_18 N 0.13286(21) 0.43100(15) 0.05254(4)
N3_18 N 0.20192(18) 0.34837(12) 0.02403(4)
N4_18 N 0.29527(21) 0.47247(14) 0.08664(3)
N5_18 N 0.27592(22) 0.33511(16) 0.02562(4)
N6_18 N 0.21700(26) 0.47483(18) 0.08252(3)
N9_18 N 0.37207(25) 0.45997(17) 0.09867(4)
N10_18 N 0.39596(27) 0.51410(19) 0.07462(4)
N11_18 N 0.12809(20) 0.34377(13) 0.00683(3)
C1_18 C 0.08106(21) 0.43709(14) 0.09913(4)
C2_18 C 0.13169(25) 0.38596(18) 0.04765(5)
C3_18 C 0.03293(19) 0.40390(14) 0.10990(4)
C4_18 C 0.2217(3) 0.3116(2) 0.02497(5)
C5_18 C 0.02630(21) 0.42905(15) 0.12269(4)
H1_18 H 0.0513 0.4673 0.1245
C7_18 C 0.25999(26) 0.47304(18) 0.07601(4)
C8_18 C 0.12652(26) 0.34375(19) 0.05908(5)
H3_18 H 0.1256 0.3122 0.0540
H4_18 H 0.0922 0.3310 0.0648
H5_18 H 0.1583 0.3608 0.0659
C11_18 C 0.29765(26) 0.39709(17) 0.02556(5)
H7_18 H 0.3353 0.4258 0.0259
C12_18 C 0.14212(28) 0.4336(2) 0.02658(5)
H8_18 H 0.1439 0.4423 0.0163
C15_18 C 0.18480(24) 0.25028(16) 0.02361(5)
H11_18 H 0.2070 0.2321 0.0246
H12_18 H 0.1663 0.2415 0.0139
H13_18 H 0.1568 0.2371 0.0316
C16_18 C 0.2696(3) 0.4722(2) 0.05932(4)
H14_18 H 0.2391 0.4722 0.0539
H15_18 H 0.2710 0.4387 0.0568
H16_18 H 0.3046 0.5050 0.0566
C17_18 C 0.0235(4) 0.2954(3) 0.00794(6)
H18_18 H 0.0223 0.3184 0.0161
H19_18 H 0.0190 0.2608 0.0121
C18_18 C 0.4194(3) 0.5667(2) 0.07655(6)
C19_18 C 0.14245(26) 0.46477(19) 0.03824(5)
H20_18 H 0.1477 0.5012 0.0377
C21_18 C 0.2976(6) 0.3568(3) 0.10273(7)
H22_18 H 0.2901 0.3286 0.1104
H23_18 H 0.3039 0.3442 0.0931
H24_18 H 0.2657 0.3625 0.1020
C25_18 C 0.4305(3) 0.5057(2) 0.06410(6)
H27_18 H 0.4229 0.4722 0.0593
C28_18 C 0.4156(4) 0.4983(2) 0.10737(6)
H28_18 H 0.4402 0.5359 0.1047
C29_18 C 0.4741(4) 0.5543(3) 0.06269(8)
H29_18 H 0.5076 0.5600 0.0584
C30_18 C 0.4177(4) 0.4736(2) 0.12034(6)
H30_18 H 0.4432 0.4914 0.1283
C31_18 C 0.2254(3) 0.4768(2) 0.09827(4)
H31_18 H 0.2022 0.4788 0.1057
C32_18 C 0.2727(3) 0.4754(2) 0.10067(4)
H32_18 H 0.2883 0.4762 0.1102
C34_18 C 0.3496(3) 0.4118(2) 0.10715(5)
C35_18 C 0.38982(27) 0.5938(2) 0.08535(5)
H33_18 H 0.3569 0.5648 0.0905
H34_18 H 0.3787 0.6135 0.0783
H35_18 H 0.4154 0.6200 0.0928
C37_18 C 0.25299(27) 0.40333(18) 0.02502(5)
H37_18 H 0.2538 0.4379 0.0253
B1_18 B 0.1413(4) 0.3376(3) 0.02328(6)
B2_18 B 0.3491(4) 0.4670(3) 0.08321(5)
N15_18 N 0.34095(28) 0.26002(16) 0.01411(4)
N12_18 N 0.08092(23) 0.34095(16) 0.98589(4)
C9_18 C 0.14238(27) 0.37361(19) 0.98275(5)
H6_18 H 0.1591 0.3909 0.9736
C10_18 C 0.07892(25) 0.32653(19) 0.99998(5)
C36_18 C 0.16883(28) 0.37387(19) 0.99518(5)
H36_18 H 0.2079 0.3909 0.9963
Zn6_18 Zn 0.022587(32) 0.326681(26) 0.970197(5)
O4_18 O 0.66601(28) 0.10425(19) 0.12424(6)
O5_18 O 0.90797(26) 0.31581(17) 0.14170(5)
C6_18 C 0.99528(21) 0.34699(15) 0.10733(5)
H2_18 H 0.9993 0.3295 0.0987
C13_18 C 0.95278(26) 0.31672(16) 0.11730(5)
H9_18 H 0.9274 0.2786 0.1155
C14_18 C 0.98396(24) 0.39952(17) 0.13293(5)
H10_18 H 0.9802 0.4174 0.1416
H17_18 H 0.9936 0.2870 0.0009
C20_18 C 0.8576(4) 0.2159(3) 0.14440(9)
H21_18 H 0.8864 0.2169 0.1503
C22_18 C 0.8198(6) 0.2602(3) 0.12894(10)
H25_18 H 0.8261 0.2936 0.1244
C23_18 C 0.8027(4) 0.1606(2) 0.14105(8)
H26_18 H 0.7963 0.1270 0.1455
C24_18 C 0.7086(4) 0.1033(3) 0.12969(7)
C26_18 C 0.7634(4) 0.1608(3) 0.13154(7)
C27_18 C 0.8614(4) 0.2620(3) 0.13837(8)
C33_18 C 0.94708(28) 0.34332(19) 0.13039(5)
C38_18 C 0.7672(5) 0.2089(3) 0.12592(8)
H38_18 H 0.7379 0.2088 0.1205
O2_10 O 0.01941(16) 0.39526(16) 0.96678(4)
O3_19 O 0.03520(14) 0.82007(12) 0.93602(4)
O4_19 O 0.1049(2) 0.43758(19) 0.95757(6)
O5_19 O 0.0745(2) 0.64914(17) 0.97503(5)
C1_19 C 0.02269(15) 0.77042(14) 0.93246(4)
C3_19 C 0.03763(13) 0.73723(14) 0.94323(4)
C5_19 C 0.06941(15) 0.76238(15) 0.95602(4)
H1_19 H 0.0826 0.8006 0.9578
C6_19 C 0.01837(15) 0.68032(15) 0.94066(5)
C13_19 C 0.0306(2) 0.65005(16) 0.95063(5)
H9_19 H 0.0178 0.6119 0.9488
C14_19 C 0.08222(17) 0.73285(17) 0.96626(5)
H10_19 H 0.1038 0.7507 0.9749
H20_19 H 0.0201 0.8345 0.8710
C20_19 C 0.0249(3) 0.5492(3) 0.97773(9)
C22_19 C 0.1070(5) 0.5935(3) 0.96227(10)
H25_19 H 0.1341 0.6269 0.9577
C23_19 C 0.0245(3) 0.4939(2) 0.97438(8)
C24_19 C 0.0613(3) 0.4366(3) 0.96302(7)
C26_19 C 0.0640(3) 0.4941(3) 0.96487(7)
C27_19 C 0.0672(3) 0.5953(3) 0.97170(8)
C33_19 C 0.0629(2) 0.67665(19) 0.96372(5)
C38_19 C 0.1083(4) 0.5422(3) 0.95925(8)
H38_19 H 0.1375 0.5421 0.9538
N13_10 N 0.0617(3) 0.8674(4) 0.90247(5)
Zn3_10 Zn 0.812048(28) 0.01260(2) 0.906782(5)
Zn1_10 Zn 0.98740(2) 0.799448(19) 0.906782(5)
O1_19 O 0.99968(10) 0.74728(9) 0.91986(3)
N1_19 N 0.91101(14) 0.71580(12) 0.86657(4)
N2_19 N 0.96480(14) 0.76433(15) 0.88587(4)
N3_19 N 0.81311(13) 0.68170(12) 0.85736(4)
N4_19 N 0.84386(16) 0.80580(14) 0.91997(3)
N5_19 N 0.72585(15) 0.66844(16) 0.85895(4)
N6_19 N 0.92449(19) 0.80816(18) 0.91585(3)
N7_10 N 0.8057(3) 0.9383(3) 0.90247(5)
N8_10 N 0.70860(15) 0.75266(14) 0.95336(3)
N9_19 N 0.75456(18) 0.79330(17) 0.93200(4)
N10_19 N 0.78480(19) 0.84743(19) 0.90795(4)
N11_19 N 0.88234(15) 0.67710(13) 0.84016(3)
C2_19 C 0.92093(17) 0.71929(18) 0.88098(5)
C4_19 C 0.7565(2) 0.6449(2) 0.85830(5)
H2_19 H 0.9968 0.6628 0.9320
C7_19 C 0.87971(19) 0.80637(18) 0.90934(4)
C8_19 C 0.88389(18) 0.67708(19) 0.89241(5)
H3_19 H 0.8532 0.6455 0.8873
H4_19 H 0.9054 0.6643 0.8981
H5_19 H 0.8691 0.6941 0.8992
C9_19 C 0.89789(19) 0.70694(19) 0.81608(5)
H6_19 H 0.8984 0.7242 0.8069
C10_19 C 0.91427(17) 0.65986(19) 0.83331(5)
C11_19 C 0.7661(2) 0.73042(17) 0.85889(5)
H7_19 H 0.7571 0.7591 0.8592
C12_19 C 0.95811(19) 0.7669(2) 0.85991(5)
H8_19 H 0.9650 0.7756 0.8496
C15_19 C 0.73214(18) 0.58361(16) 0.85694(5)
H11_19 H 0.6917 0.5654 0.8579
H12_19 H 0.7418 0.5748 0.8472
H13_19 H 0.7469 0.5704 0.8649
C16_19 C 0.8692(2) 0.8055(2) 0.89265(4)
H14_19 H 0.8997 0.8055 0.8872
H15_19 H 0.8343 0.7720 0.8901
H16_19 H 0.8670 0.8383 0.8899
C17_19 C 0.9385(3) 0.6287(3) 0.84127(6)
H17_19 H 0.9600 0.6203 0.8342
H18_19 H 0.9627 0.6517 0.8494
H19_19 H 0.9084 0.5941 0.8454
C18_19 C 0.8139(2) 0.9000(2) 0.90988(6)
C19_19 C 0.98898(18) 0.79810(19) 0.87157(5)
H21_19 H 0.9971 0.5502 0.9836
C21_19 C 0.7258(5) 0.6901(3) 0.93606(7)
H22_19 H 0.7051 0.6619 0.9437
H23_19 H 0.7069 0.6775 0.9264
H24_19 H 0.7634 0.6958 0.9353
H26_19 H 0.9973 0.4603 0.9788
C25_19 C 0.7418(2) 0.8390(2) 0.89743(6)
H27_19 H 0.7159 0.8055 0.8926
C28_19 C 0.7493(3) 0.8316(2) 0.94070(6)
H28_19 H 0.7623 0.8692 0.9380
C29_19 C 0.7468(2) 0.8876(3) 0.89602(8)
H29_19 H 0.7190 0.8933 0.8917
C30_19 C 0.7225(3) 0.8069(2) 0.95367(6)
H30_19 H 0.7148 0.8247 0.9616
C31_19 C 0.9180(2) 0.8101(2) 0.93160(4)
H31_19 H 0.9432 0.8121 0.9390
C32_19 C 0.8693(2) 0.8087(2) 0.93400(4)
H32_19 H 0.8545 0.8095 0.9435
C34_19 C 0.7288(2) 0.7451(2) 0.94048(5)
C35_19 C 0.87061(18) 0.9271(2) 0.91868(5)
H33_19 H 0.8745 0.8981 0.9238
H34_19 H 0.9014 0.9468 0.9116
H35_19 H 0.8712 0.9533 0.9261
C36_19 C 0.8717(2) 0.70720(19) 0.82851(5)
H36_19 H 0.8496 0.7242 0.8296
C37_19 C 0.8170(2) 0.73666(18) 0.85835(5)
H37_19 H 0.8507 0.7712 0.8586
B1_19 B 0.8629(2) 0.6709(3) 0.85661(6)
B2_19 B 0.7845(3) 0.8003(3) 0.91654(5)
O6_10 O 0.64726(16) 0.70918(23) 0.86655(4)
N14_10 N 0.62261(21) 0.58067(14) 0.87997(3)
Zn1_11 Zn 0.200552(19) 0.187952(28) 0.906782(5)
O1_20 O 0.25272(9) 0.25240(13) 0.91986(3)
O2_11 O 0.60474(16) 0.62415(23) 0.96678(4)
O3_20 O 0.17993(12) 0.21513(18) 0.93602(4)
O4_20 O 0.56242(19) 0.66732(28) 0.95757(6)
O5_20 O 0.35086(17) 0.42536(26) 0.97503(5)
N1_20 N 0.28420(12) 0.19521(18) 0.86657(4)
N2_20 N 0.23567(15) 0.20047(21) 0.88587(4)
N3_20 N 0.31830(12) 0.13141(18) 0.85736(4)
N4_20 N 0.19420(14) 0.03806(21) 0.91997(3)
N5_20 N 0.33156(16) 0.05741(22) 0.85895(4)
N6_20 N 0.19184(18) 0.11633(26) 0.91585(3)
N11_20 N 0.32290(13) 0.20524(20) 0.84016(3)
C1_20 C 0.22958(14) 0.25227(21) 0.93246(4)
C2_20 C 0.28071(18) 0.20164(25) 0.88098(5)
C3_20 C 0.26277(14) 0.30040(19) 0.94323(4)
C4_20 C 0.3551(2) 0.1116(3) 0.85830(5)
C5_20 C 0.23762(15) 0.30703(21) 0.95602(4)
H1_20 H 0.1994 0.2820 0.9578
C6_20 C 0.31968(15) 0.33805(21) 0.94066(5)
H2_20 H 0.3372 0.3340 0.9320
C7_20 C 0.19363(18) 0.07334(26) 0.90934(4)
C8_20 C 0.32292(19) 0.20681(26) 0.89241(5)
H3_20 H 0.3545 0.2077 0.8873
H4_20 H 0.3357 0.2411 0.8981
H5_20 H 0.3059 0.1750 0.8992
C9_20 C 0.29306(19) 0.19095(27) 0.81608(5)
H6_20 H 0.2758 0.1742 0.8069
C10_20 C 0.34014(19) 0.25441(25) 0.83331(5)
C11_20 C 0.26958(17) 0.03568(26) 0.85889(5)
C12_20 C 0.2331(2) 0.19121(28) 0.85991(5)
H8_20 H 0.2244 0.1894 0.8496
C13_20 C 0.34995(16) 0.38055(26) 0.95063(5)
H9_20 H 0.3881 0.4059 0.9488
C14_20 C 0.26715(17) 0.34937(24) 0.96626(5)
H10_20 H 0.2493 0.3531 0.9749
C15_20 C 0.41639(16) 0.14853(24) 0.85694(5)
H11_20 H 0.4346 0.1263 0.8579
H12_20 H 0.4252 0.1670 0.8472
H13_20 H 0.4296 0.1765 0.8649
C16_20 C 0.1945(2) 0.0637(3) 0.89265(4)
H14_20 H 0.1945 0.0942 0.8872
H15_20 H 0.2280 0.0623 0.8901
H16_20 H 0.1617 0.0287 0.8899
C17_20 C 0.3713(3) 0.3098(4) 0.84127(6)
H17_20 H 0.3797 0.3397 0.8342
H18_20 H 0.3483 0.3110 0.8494
H19_20 H 0.4059 0.3143 0.8454
C19_20 C 0.20190(19) 0.19088(26) 0.87157(5)
H20_20 H 0.1655 0.1856 0.8710
C20_20 C 0.4508(3) 0.4757(4) 0.97773(9)
H21_20 H 0.4498 0.4469 0.9836
C21_20 C 0.3099(3) 0.0357(6) 0.93606(7)
H22_20 H 0.3381 0.0432 0.9437
H23_20 H 0.3225 0.0294 0.9264
H24_20 H 0.3042 0.0676 0.9353
C22_20 C 0.4065(3) 0.5135(6) 0.96227(10)
H25_20 H 0.3731 0.5072 0.9577
C23_20 C 0.5061(2) 0.5306(4) 0.97438(8)
H26_20 H 0.5397 0.5370 0.9788
C24_20 C 0.5634(3) 0.6247(4) 0.96302(7)
C26_20 C 0.5059(3) 0.5699(4) 0.96487(7)
C27_20 C 0.4047(3) 0.4719(4) 0.97170(8)
C31_20 C 0.1899(2) 0.1079(3) 0.93160(4)
H31_20 H 0.1879 0.1311 0.9390
C32_20 C 0.1913(2) 0.0606(3) 0.93400(4)
H32_20 H 0.1905 0.0450 0.9435
C33_20 C 0.32335(19) 0.38625(28) 0.96372(5)
C36_20 C 0.29280(19) 0.16450(28) 0.82851(5)
H36_20 H 0.2758 0.1254 0.8296
C37_20 C 0.26334(18) 0.08034(27) 0.85835(5)
H37_20 H 0.2288 0.0795 0.8586
C38_20 C 0.4578(3) 0.5661(5) 0.95925(8)
H38_20 H 0.4579 0.5954 0.9538
B1_20 B 0.3291(3) 0.1920(4) 0.85661(6)
N13_11 N 0.1326(4) 0.1943(5) 0.90247(5)
N14_11 N 0.41933(14) 0.04193(25) 0.87997(3)
N8_11 N 0.24734(14) 0.95594(21) 0.95336(3)
N9_20 N 0.20670(17) 0.96126(25) 0.93200(4)
N10_20 N 0.15257(19) 0.93737(27) 0.90795(4)
H7_20 H 0.2409 0.9980 0.8592
C18_20 C 0.1000(2) 0.9139(3) 0.90988(6)
C25_20 C 0.1610(2) 0.9028(3) 0.89743(6)
H27_20 H 0.1945 0.9104 0.8926
C28_20 C 0.1684(2) 0.9177(4) 0.94070(6)
H28_20 H 0.1308 0.8931 0.9380
C29_20 C 0.1124(3) 0.8592(4) 0.89602(8)
H29_20 H 0.1067 0.8257 0.8917
C30_20 C 0.1931(2) 0.9156(4) 0.95367(6)
H30_20 H 0.1753 0.8901 0.9616
C34_20 C 0.2549(2) 0.9837(3) 0.94048(5)
C35_20 C 0.0729(2) 0.94351(27) 0.91868(5)
H33_20 H 0.1019 0.9764 0.9238
H34_20 H 0.0532 0.9546 0.9116
H35_20 H 0.0467 0.9179 0.9261
B2_20 B 0.1997(3) 0.9842(4) 0.91654(5)
O6_11 O 0.29082(23) 0.93807(28) 0.86655(4)
N8_12 N 0.04406(21) 0.29140(15) 0.95336(3)
N9_21 N 0.03874(25) 0.24544(18) 0.93200(4)
N10_21 N 0.06263(27) 0.21520(19) 0.90795(4)
H7_21 H 0.0020 0.2429 0.8592
C18_21 C 0.0861(3) 0.1861(2) 0.90988(6)
C25_21 C 0.0972(3) 0.2582(2) 0.89743(6)
H27_21 H 0.0896 0.2841 0.8926
C28_21 C 0.0823(4) 0.2507(3) 0.94070(6)
H28_21 H 0.1069 0.2377 0.9380
C29_21 C 0.1408(4) 0.2532(2) 0.89602(8)
H29_21 H 0.1743 0.2810 0.8917
C30_21 C 0.0844(4) 0.2775(3) 0.95367(6)
H30_21 H 0.1099 0.2852 0.9616
C34_21 C 0.0163(3) 0.2712(2) 0.94048(5)
C35_21 C 0.05649(27) 0.12939(18) 0.91868(5)
H33_21 H 0.0236 0.1255 0.9238
H34_21 H 0.0454 0.0986 0.9116
H35_21 H 0.0821 0.1288 0.9261
B2_21 B 0.0158(4) 0.2155(3) 0.91654(5)
O6_12 O 0.06193(28) 0.35274(16) 0.86655(4)
O1_21 O 0.74760(13) 0.00032(10) 0.91986(3)
N1_21 N 0.80479(18) 0.08899(14) 0.86657(4)
N2_21 N 0.79953(21) 0.03520(14) 0.88587(4)
N3_21 N 0.86859(18) 0.18689(13) 0.85736(4)
N4_21 N 0.96194(21) 0.15614(16) 0.91997(3)
N5_21 N 0.94259(22) 0.27415(15) 0.85895(4)
N6_21 N 0.88367(26) 0.07551(19) 0.91585(3)
N11_21 N 0.79476(20) 0.11766(15) 0.84016(3)
C2_21 C 0.79836(25) 0.07907(17) 0.88098(5)
C4_21 C 0.8884(3) 0.2435(2) 0.85830(5)
H2_21 H 0.6660 0.0032 0.9320
C7_21 C 0.92666(26) 0.12029(19) 0.90934(4)
C8_21 C 0.79319(26) 0.11611(18) 0.89241(5)
H3_21 H 0.7923 0.1468 0.8873
H4_21 H 0.7589 0.0946 0.8981
H5_21 H 0.8250 0.1309 0.8992
C9_21 C 0.80905(27) 0.10211(19) 0.81608(5)
H6_21 H 0.8258 0.1016 0.8069
C10_21 C 0.74559(25) 0.08573(17) 0.83331(5)
C11_21 C 0.96432(26) 0.2339(2) 0.85889(5)
C12_21 C 0.80879(28) 0.04189(19) 0.85991(5)
H8_21 H 0.8106 0.0350 0.8496
C15_21 C 0.85147(24) 0.26786(18) 0.85694(5)
H11_21 H 0.8737 0.3083 0.8579
H12_21 H 0.8330 0.2582 0.8472
H13_21 H 0.8235 0.2531 0.8649
C16_21 C 0.9363(3) 0.1308(2) 0.89265(4)
H14_21 H 0.9058 0.1003 0.8872
H15_21 H 0.9377 0.1657 0.8901
H16_21 H 0.9713 0.1330 0.8899
C17_21 C 0.6902(4) 0.0615(3) 0.84127(6)
H17_21 H 0.6603 0.0400 0.8342
H18_21 H 0.6890 0.0373 0.8494
H19_21 H 0.6857 0.0916 0.8454
C19_21 C 0.80912(26) 0.01102(18) 0.87157(5)
H21_21 H 0.5531 0.0029 0.9836
C21_21 C 0.9643(6) 0.2742(5) 0.93606(7)
H22_21 H 0.9568 0.2949 0.9437
H23_21 H 0.9706 0.2931 0.9264
H24_21 H 0.9324 0.2366 0.9353
H26_21 H 0.4630 0.0027 0.9788
C31_21 C 0.8921(3) 0.0820(2) 0.93160(4)
H31_21 H 0.8689 0.0568 0.9390
C32_21 C 0.9394(3) 0.1307(2) 0.93400(4)
H32_21 H 0.9550 0.1455 0.9435
C36_21 C 0.83550(28) 0.1283(2) 0.82851(5)
H36_21 H 0.8746 0.1504 0.8296
C37_21 C 0.91966(27) 0.1830(2) 0.85835(5)
H37_21 H 0.9205 0.1493 0.8586
B1_21 B 0.8080(4) 0.1371(2) 0.85661(6)
N14_12 N 0.95807(25) 0.37739(21) 0.87997(3)
O2_12 O 0.37585(23) 0.98059(16) 0.96678(4)
O3_21 O 0.78487(18) 0.96480(14) 0.93602(4)
O4_21 O 0.33268(28) 0.8951(2) 0.95757(6)
O5_21 O 0.57464(26) 0.9255(2) 0.97503(5)
C1_21 C 0.74773(21) 0.97731(15) 0.93246(4)
C3_21 C 0.69960(19) 0.96237(13) 0.94323(4)
C5_21 C 0.69297(21) 0.93059(15) 0.95602(4)
H1_21 H 0.7180 0.9174 0.9578
C6_21 C 0.66195(21) 0.98163(15) 0.94066(5)
C13_21 C 0.61945(26) 0.9694(2) 0.95063(5)
H9_21 H 0.5941 0.9822 0.9488
C14_21 C 0.65063(24) 0.91778(17) 0.96626(5)
H10_21 H 0.6469 0.8962 0.9749
H20_21 H 0.8144 0.9799 0.8710
C20_21 C 0.5243(4) 0.9751(3) 0.97773(9)
C22_21 C 0.4865(6) 0.8930(5) 0.96227(10)
H25_21 H 0.4928 0.8659 0.9577
C23_21 C 0.4694(4) 0.9755(3) 0.97438(8)
C24_21 C 0.3753(4) 0.9387(3) 0.96302(7)
C26_21 C 0.4301(4) 0.9360(3) 0.96487(7)
C27_21 C 0.5281(4) 0.9328(3) 0.97170(8)
C33_21 C 0.61375(28) 0.9371(2) 0.96372(5)
C38_21 C 0.4339(5) 0.8917(4) 0.95925(8)
H38_21 H 0.4046 0.8625 0.9538
Zn3_11 Zn 0.01260(2) 0.812048(28) 0.593218(5)
O2_13 O 0.39526(16) 0.01941(16) 0.53322(4)
O3_22 O 0.82007(12) 0.03520(14) 0.56398(4)
O4_22 O 0.43758(19) 0.1049(2) 0.54243(6)
O5_22 O 0.64914(17) 0.0745(2) 0.52497(5)
C1_22 C 0.77042(14) 0.02269(15) 0.56754(4)
C3_22 C 0.73723(14) 0.03763(13) 0.55677(4)
C5_22 C 0.76238(15) 0.06941(15) 0.54398(4)
H1_22 H 0.8006 0.0826 0.5422
C6_22 C 0.68032(15) 0.01837(15) 0.55934(5)
C13_22 C 0.65005(16) 0.0306(2) 0.54937(5)
H9_22 H 0.6119 0.0178 0.5512
C14_22 C 0.73285(17) 0.08222(17) 0.53374(5)
H10_22 H 0.7507 0.1038 0.5251
H20_22 H 0.8345 0.0201 0.6290
C20_22 C 0.5492(3) 0.0249(3) 0.52227(9)
C22_22 C 0.5935(3) 0.1070(5) 0.53773(10)
H25_22 H 0.6269 0.1341 0.5423
C23_22 C 0.4939(2) 0.0245(3) 0.52562(8)
C24_22 C 0.4366(3) 0.0613(3) 0.53698(7)
C26_22 C 0.4941(3) 0.0640(3) 0.53513(7)
C27_22 C 0.5953(3) 0.0672(3) 0.52830(8)
C33_22 C 0.67665(19) 0.0629(2) 0.53628(5)
C38_22 C 0.5422(3) 0.1083(4) 0.54075(8)
H38_22 H 0.5421 0.1375 0.5462
N13_12 N 0.8674(4) 0.0617(3) 0.59753(5)
Zn1_12 Zn 0.799448(19) 0.98740(2) 0.593218(5)
O1_22 O 0.74728(9) 0.99968(10) 0.58014(3)
N1_22 N 0.71580(12) 0.91101(14) 0.63343(4)
N2_22 N 0.76433(15) 0.96480(14) 0.61413(4)
N3_22 N 0.68170(12) 0.81311(13) 0.64264(4)
N4_22 N 0.80580(14) 0.84386(16) 0.58003(3)
N5_22 N 0.66844(16) 0.72585(15) 0.64105(4)
N6_22 N 0.80816(18) 0.92449(19) 0.58415(3)
N7_11 N 0.9383(3) 0.8057(3) 0.59753(5)
N8_13 N 0.75266(14) 0.70860(15) 0.54664(3)
N9_22 N 0.79330(17) 0.75456(18) 0.56800(4)
N10_22 N 0.84743(19) 0.78480(19) 0.59205(4)
N11_22 N 0.67710(13) 0.88234(15) 0.65984(3)
C2_22 C 0.71929(18) 0.92093(17) 0.61902(5)
C4_22 C 0.6449(2) 0.7565(2) 0.64170(5)
H2_22 H 0.6628 0.9968 0.5680
C7_22 C 0.80637(18) 0.87971(19) 0.59066(4)
C8_22 C 0.67708(19) 0.88389(18) 0.60759(5)
H3_22 H 0.6455 0.8532 0.6127
H4_22 H 0.6643 0.9054 0.6019
H5_22 H 0.6941 0.8691 0.6008
C9_22 C 0.70694(19) 0.89789(19) 0.68392(5)
H6_22 H 0.7242 0.8984 0.6931
C10_22 C 0.65986(19) 0.91427(17) 0.66669(5)
C11_22 C 0.73042(17) 0.7661(2) 0.64111(5)
H7_22 H 0.7591 0.7571 0.6408
C12_22 C 0.7669(2) 0.95811(19) 0.64009(5)
H8_22 H 0.7756 0.9650 0.6504
C15_22 C 0.58361(16) 0.73214(18) 0.64306(5)
H11_22 H 0.5654 0.6917 0.6421
H12_22 H 0.5748 0.7418 0.6528
H13_22 H 0.5704 0.7469 0.6351
C16_22 C 0.8055(2) 0.8692(2) 0.60735(4)
H14_22 H 0.8055 0.8997 0.6128
H15_22 H 0.7720 0.8343 0.6099
H16_22 H 0.8383 0.8670 0.6101
C17_22 C 0.6287(3) 0.9385(3) 0.65873(6)
H17_22 H 0.6203 0.9600 0.6658
H18_22 H 0.6517 0.9627 0.6506
H19_22 H 0.5941 0.9084 0.6546
C18_22 C 0.9000(2) 0.8139(2) 0.59012(6)
C19_22 C 0.79810(19) 0.98898(18) 0.62843(5)
H21_22 H 0.5502 0.9971 0.5164
C21_22 C 0.6901(3) 0.7258(5) 0.56394(7)
H22_22 H 0.6619 0.7051 0.5563
H23_22 H 0.6775 0.7069 0.5736
H24_22 H 0.6958 0.7634 0.5647
H26_22 H 0.4603 0.9973 0.5212
C25_22 C 0.8390(2) 0.7418(2) 0.60257(6)
H27_22 H 0.8055 0.7159 0.6074
C28_22 C 0.8316(2) 0.7493(3) 0.55930(6)
H28_22 H 0.8692 0.7623 0.5620
C29_22 C 0.8876(3) 0.7468(2) 0.60398(8)
H29_22 H 0.8933 0.7190 0.6083
C30_22 C 0.8069(2) 0.7225(3) 0.54633(6)
H30_22 H 0.8247 0.7148 0.5384
C31_22 C 0.8101(2) 0.9180(2) 0.56840(4)
H31_22 H 0.8121 0.9432 0.5610
C32_22 C 0.8087(2) 0.8693(2) 0.56600(4)
H32_22 H 0.8095 0.8545 0.5565
C34_22 C 0.7451(2) 0.7288(2) 0.55952(5)
C35_22 C 0.9271(2) 0.87061(18) 0.58132(5)
H33_22 H 0.8981 0.8745 0.5762
H34_22 H 0.9468 0.9014 0.5884
H35_22 H 0.9533 0.8712 0.5739
C36_22 C 0.70720(19) 0.8717(2) 0.67149(5)
H36_22 H 0.7242 0.8496 0.6704
C37_22 C 0.73666(18) 0.8170(2) 0.64165(5)
H37_22 H 0.7712 0.8507 0.6414
B1_22 B 0.6709(3) 0.8629(2) 0.64339(6)
B2_22 B 0.8003(3) 0.7845(3) 0.58346(5)
O6_13 O 0.70918(23) 0.64726(16) 0.63345(4)
N14_13 N 0.58067(14) 0.62261(21) 0.62003(3)
N7_12 N 0.1943(3) 0.1326(4) 0.59753(5)
N8_14 N 0.29140(15) 0.04406(21) 0.54664(3)
N9_23 N 0.24544(18) 0.03874(25) 0.56800(4)
N10_23 N 0.21520(19) 0.06263(27) 0.59205(4)
H7_23 H 0.2429 0.0020 0.6408
C18_23 C 0.1861(2) 0.0861(3) 0.59012(6)
C25_23 C 0.2582(2) 0.0972(3) 0.60257(6)
H27_23 H 0.2841 0.0896 0.6074
C28_23 C 0.2507(3) 0.0823(4) 0.55930(6)
H28_23 H 0.2377 0.1069 0.5620
C29_23 C 0.2532(2) 0.1408(4) 0.60398(8)
H29_23 H 0.2810 0.1743 0.6083
C30_23 C 0.2775(3) 0.0844(4) 0.54633(6)
H30_23 H 0.2852 0.1099 0.5384
C34_23 C 0.2712(2) 0.0163(3) 0.55952(5)
C35_23 C 0.12939(18) 0.05649(27) 0.58132(5)
H33_23 H 0.1255 0.0236 0.5762
H34_23 H 0.0986 0.0454 0.5884
H35_23 H 0.1288 0.0821 0.5739
B2_23 B 0.2155(3) 0.0158(4) 0.58346(5)
Zn3_12 Zn 0.187952(28) 0.200552(34) 0.593218(5)
O6_14 O 0.35274(16) 0.06193(28) 0.63345(4)
O1_23 O 0.00032(10) 0.74760(13) 0.58014(3)
N1_23 N 0.08899(14) 0.80479(18) 0.63343(4)
N2_23 N 0.03520(14) 0.79953(21) 0.61413(4)
N3_23 N 0.18689(13) 0.86859(18) 0.64264(4)
N4_23 N 0.15614(16) 0.96194(21) 0.58003(3)
N5_23 N 0.27415(15) 0.94259(22) 0.64105(4)
N6_23 N 0.07551(19) 0.88367(26) 0.58415(3)
N11_23 N 0.11766(15) 0.79476(20) 0.65984(3)
C2_23 C 0.07907(17) 0.79836(25) 0.61902(5)
C4_23 C 0.2435(2) 0.8884(3) 0.64170(5)
H2_23 H 0.0032 0.6660 0.5680
C7_23 C 0.12029(19) 0.92666(26) 0.59066(4)
C8_23 C 0.11611(18) 0.79319(26) 0.60759(5)
H3_23 H 0.1468 0.7923 0.6127
H4_23 H 0.0946 0.7589 0.6019
H5_23 H 0.1309 0.8250 0.6008
C9_23 C 0.10211(19) 0.80905(27) 0.68392(5)
H6_23 H 0.1016 0.8258 0.6931
C10_23 C 0.08573(17) 0.74559(25) 0.66669(5)
C11_23 C 0.2339(2) 0.96432(26) 0.64111(5)
C12_23 C 0.04189(19) 0.80879(28) 0.64009(5)
H8_23 H 0.0350 0.8106 0.6504
C15_23 C 0.26786(18) 0.85147(24) 0.64306(5)
H11_23 H 0.3083 0.8737 0.6421
H12_23 H 0.2582 0.8330 0.6528
H13_23 H 0.2531 0.8235 0.6351
C16_23 C 0.1308(2) 0.9363(3) 0.60735(4)
H14_23 H 0.1003 0.9058 0.6128
H15_23 H 0.1657 0.9377 0.6099
H16_23 H 0.1330 0.9713 0.6101
C17_23 C 0.0615(3) 0.6902(4) 0.65873(6)
H17_23 H 0.0400 0.6603 0.6658
H18_23 H 0.0373 0.6890 0.6506
H19_23 H 0.0916 0.6857 0.6546
C19_23 C 0.01102(18) 0.80912(26) 0.62843(5)
H21_23 H 0.0029 0.5531 0.5164
C21_23 C 0.2742(5) 0.9643(6) 0.56394(7)
H22_23 H 0.2949 0.9568 0.5563
H23_23 H 0.2931 0.9706 0.5736
H24_23 H 0.2366 0.9324 0.5647
H26_23 H 0.0027 0.4630 0.5212
C31_23 C 0.0820(2) 0.8921(3) 0.56840(4)
H31_23 H 0.0568 0.8689 0.5610
C32_23 C 0.1307(2) 0.9394(3) 0.56600(4)
H32_23 H 0.1455 0.9550 0.5565
C36_23 C 0.1283(2) 0.83550(28) 0.67149(5)
H36_23 H 0.1504 0.8746 0.6704
C37_23 C 0.1830(2) 0.91966(27) 0.64165(5)
H37_23 H 0.1493 0.9205 0.6414
B1_23 B 0.1371(2) 0.8080(4) 0.64339(6)
N14_14 N 0.37739(21) 0.95807(25) 0.62003(3)
O2_14 O 0.98059(16) 0.37585(23) 0.53322(4)
O3_23 O 0.96480(14) 0.78487(18) 0.56398(4)
O4_23 O 0.8951(2) 0.33268(28) 0.54243(6)
O5_23 O 0.9255(2) 0.57464(26) 0.52497(5)
C1_23 C 0.97731(15) 0.74773(21) 0.56754(4)
C3_23 C 0.96237(13) 0.69960(19) 0.55677(4)
C5_23 C 0.93059(15) 0.69297(21) 0.54398(4)
H1_23 H 0.9174 0.7180 0.5422
C6_23 C 0.98163(15) 0.66195(21) 0.55934(5)
C13_23 C 0.9694(2) 0.61945(26) 0.54937(5)
H9_23 H 0.9822 0.5941 0.5512
C14_23 C 0.91778(17) 0.65063(24) 0.53374(5)
H10_23 H 0.8962 0.6469 0.5251
H20_23 H 0.9799 0.8144 0.6290
C20_23 C 0.9751(3) 0.5243(4) 0.52227(9)
C22_23 C 0.8930(5) 0.4865(6) 0.53773(10)
H25_23 H 0.8659 0.4928 0.5423
C23_23 C 0.9755(3) 0.4694(4) 0.52562(8)
C24_23 C 0.9387(3) 0.3753(4) 0.53698(7)
C26_23 C 0.9360(3) 0.4301(4) 0.53513(7)
C27_23 C 0.9328(3) 0.5281(4) 0.52830(8)
C33_23 C 0.9371(2) 0.61375(28) 0.53628(5)
C38_23 C 0.8917(4) 0.4339(5) 0.54075(8)
H38_23 H 0.8625 0.4046 0.5462
O1_24 O 0.25240(13) 0.25272(9) 0.58014(3)
O2_15 O 0.62415(23) 0.60474(16) 0.53322(4)
O3_24 O 0.21513(18) 0.17993(12) 0.56398(4)
O4_24 O 0.66732(28) 0.56242(19) 0.54243(6)
O5_24 O 0.42536(26) 0.35086(17) 0.52497(5)
N1_24 N 0.19521(18) 0.28420(12) 0.63343(4)
N2_24 N 0.20047(21) 0.23567(15) 0.61413(4)
N3_24 N 0.13141(18) 0.31830(12) 0.64264(4)
N4_24 N 0.03806(21) 0.19420(14) 0.58003(3)
N5_24 N 0.05741(22) 0.33156(16) 0.64105(4)
N6_24 N 0.11633(26) 0.19184(18) 0.58415(3)
N11_24 N 0.20524(20) 0.32290(13) 0.65984(3)
C1_24 C 0.25227(21) 0.22958(14) 0.56754(4)
C2_24 C 0.20164(25) 0.28071(18) 0.61902(5)
C3_24 C 0.30040(19) 0.26277(14) 0.55677(4)
C4_24 C 0.1116(3) 0.3551(2) 0.64170(5)
C5_24 C 0.30703(21) 0.23762(15) 0.54398(4)
H1_24 H 0.2820 0.1994 0.5422
C6_24 C 0.33805(21) 0.31968(15) 0.55934(5)
H2_24 H 0.3340 0.3372 0.5680
C7_24 C 0.07334(26) 0.19363(18) 0.59066(4)
C8_24 C 0.20681(26) 0.32292(19) 0.60759(5)
H3_24 H 0.2077 0.3545 0.6127
H4_24 H 0.2411 0.3357 0.6019
H5_24 H 0.1750 0.3059 0.6008
C9_24 C 0.19095(27) 0.29306(19) 0.68392(5)
H6_24 H 0.1742 0.2758 0.6931
C10_24 C 0.25441(25) 0.34014(19) 0.66669(5)
C11_24 C 0.03568(26) 0.26958(17) 0.64111(5)
C12_24 C 0.19121(28) 0.2331(2) 0.64009(5)
H8_24 H 0.1894 0.2244 0.6504
C13_24 C 0.38055(26) 0.34995(16) 0.54937(5)
H9_24 H 0.4059 0.3881 0.5512
C14_24 C 0.34937(24) 0.26715(17) 0.53374(5)
H10_24 H 0.3531 0.2493 0.5251
C15_24 C 0.14853(24) 0.41639(16) 0.64306(5)
H11_24 H 0.1263 0.4346 0.6421
H12_24 H 0.1670 0.4252 0.6528
H13_24 H 0.1765 0.4296 0.6351
C16_24 C 0.0637(3) 0.1945(2) 0.60735(4)
H14_24 H 0.0942 0.1945 0.6128
H15_24 H 0.0623 0.2280 0.6099
H16_24 H 0.0287 0.1617 0.6101
C17_24 C 0.3098(4) 0.3713(3) 0.65873(6)
H17_24 H 0.3397 0.3797 0.6658
H18_24 H 0.3110 0.3483 0.6506
H19_24 H 0.3143 0.4059 0.6546
C19_24 C 0.19088(26) 0.20190(19) 0.62843(5)
H20_24 H 0.1856 0.1655 0.6290
C20_24 C 0.4757(4) 0.4508(3) 0.52227(9)
H21_24 H 0.4469 0.4498 0.5164
C21_24 C 0.0357(6) 0.3099(3) 0.56394(7)
H22_24 H 0.0432 0.3381 0.5563
H23_24 H 0.0294 0.3225 0.5736
H24_24 H 0.0676 0.3042 0.5647
C22_24 C 0.5135(6) 0.4065(3) 0.53773(10)
H25_24 H 0.5072 0.3731 0.5423
C23_24 C 0.5306(4) 0.5061(2) 0.52562(8)
H26_24 H 0.5370 0.5397 0.5212
C24_24 C 0.6247(4) 0.5634(3) 0.53698(7)
C26_24 C 0.5699(4) 0.5059(3) 0.53513(7)
C27_24 C 0.4719(4) 0.4047(3) 0.52830(8)
C31_24 C 0.1079(3) 0.1899(2) 0.56840(4)
H31_24 H 0.1311 0.1879 0.5610
C32_24 C 0.0606(3) 0.1913(2) 0.56600(4)
H32_24 H 0.0450 0.1905 0.5565
C33_24 C 0.38625(28) 0.32335(19) 0.53628(5)
C36_24 C 0.16450(28) 0.29280(19) 0.67149(5)
H36_24 H 0.1254 0.2758 0.6704
C37_24 C 0.08034(27) 0.26334(18) 0.64165(5)
H37_24 H 0.0795 0.2288 0.6414
C38_24 C 0.5661(5) 0.4578(3) 0.54075(8)
H38_24 H 0.5954 0.4579 0.5462
B1_24 B 0.1920(4) 0.3291(3) 0.64339(6)
N14_15 N 0.04193(25) 0.41933(14) 0.62003(3)
N8_15 N 0.95594(21) 0.24734(14) 0.54664(3)
N9_24 N 0.96126(25) 0.20670(17) 0.56800(4)
N10_24 N 0.93737(27) 0.15257(19) 0.59205(4)
H7_24 H 0.9980 0.2409 0.6408
C18_24 C 0.9139(3) 0.1000(2) 0.59012(6)
C25_24 C 0.9028(3) 0.1610(2) 0.60257(6)
H27_24 H 0.9104 0.1945 0.6074
C28_24 C 0.9177(4) 0.1684(2) 0.55930(6)
H28_24 H 0.8931 0.1308 0.5620
C29_24 C 0.8592(4) 0.1124(3) 0.60398(8)
H29_24 H 0.8257 0.1067 0.6083
C30_24 C 0.9156(4) 0.1931(2) 0.54633(6)
H30_24 H 0.8901 0.1753 0.5384
C34_24 C 0.9837(3) 0.2549(2) 0.55952(5)
C35_24 C 0.94351(27) 0.0729(2) 0.58132(5)
H33_24 H 0.9764 0.1019 0.5762
H34_24 H 0.9546 0.0532 0.5884
H35_24 H 0.9179 0.0467 0.5739
B2_24 B 0.9842(4) 0.1997(3) 0.58346(5)
O6_15 O 0.93807(28) 0.29082(23) 0.63345(4)
Zn1_13 Zn 0.32073(2) 0.466115(19) 0.573449(5)
O1_25 O 0.33301(10) 0.41395(9) 0.58653(3)
O3_25 O 0.36853(14) 0.48674(12) 0.60269(4)
O4_25 O 0.4382(2) 0.10425(19) 0.62424(6)
O5_25 O 0.4078(2) 0.31581(17) 0.64170(5)
N1_25 N 0.24434(14) 0.38247(12) 0.53324(4)
N2_25 N 0.29813(14) 0.43100(15) 0.55254(4)
N3_25 N 0.14644(13) 0.34837(12) 0.52403(4)
N4_25 N 0.17719(16) 0.47247(14) 0.58664(3)
N5_25 N 0.05918(15) 0.33511(16) 0.52562(4)
N6_25 N 0.25782(19) 0.47483(18) 0.58252(3)
N7_13 N 0.1390(3) 0.6050(3) 0.56914(5)
N9_25 N 0.08789(18) 0.45997(17) 0.59867(4)
N10_25 N 0.11813(19) 0.51410(19) 0.57462(4)
N11_25 N 0.21567(15) 0.34377(13) 0.50683(3)
C1_25 C 0.35602(15) 0.43709(14) 0.59913(4)
C2_25 C 0.25426(17) 0.38596(18) 0.54765(5)
C3_25 C 0.37096(13) 0.40390(14) 0.60990(4)
C4_25 C 0.0898(2) 0.3116(2) 0.52497(5)
C5_25 C 0.40274(15) 0.42905(15) 0.62269(4)
H1_25 H 0.4159 0.4673 0.6245
C6_25 C 0.35170(15) 0.34699(15) 0.60733(5)
H2_25 H 0.3301 0.3295 0.5987
C7_25 C 0.21304(19) 0.47304(18) 0.57601(4)
C8_25 C 0.21722(18) 0.34375(19) 0.55908(5)
H3_25 H 0.1865 0.3122 0.5540
H4_25 H 0.2387 0.3310 0.5648
H5_25 H 0.2024 0.3608 0.5659
C9_25 C 0.23122(19) 0.37361(19) 0.48275(5)
H6_25 H 0.2317 0.3909 0.4736
C10_25 C 0.24760(17) 0.32653(19) 0.49998(5)
C11_25 C 0.0994(2) 0.39709(17) 0.52556(5)
H7_25 H 0.0904 0.4258 0.5259
C12_25 C 0.29144(19) 0.4336(2) 0.52658(5)
H8_25 H 0.2983 0.4423 0.5163
C13_25 C 0.3639(2) 0.31672(16) 0.61730(5)
H9_25 H 0.3511 0.2786 0.6155
C14_25 C 0.41555(17) 0.39952(17) 0.63293(5)
H10_25 H 0.4371 0.4174 0.6416
C15_25 C 0.06547(18) 0.25028(16) 0.52361(5)
H11_25 H 0.0250 0.2321 0.5246
H12_25 H 0.0751 0.2415 0.5139
H13_25 H 0.0802 0.2371 0.5316
C16_25 C 0.2025(2) 0.4722(2) 0.55932(4)
H14_25 H 0.2330 0.4722 0.5539
H15_25 H 0.1676 0.4387 0.5568
H16_25 H 0.2003 0.5050 0.5566
C17_25 C 0.2718(3) 0.2954(3) 0.50794(6)
H17_25 H 0.2933 0.2870 0.5009
H18_25 H 0.2960 0.3184 0.5161
H19_25 H 0.2417 0.2608 0.5121
C18_25 C 0.1472(2) 0.5667(2) 0.57655(6)
C19_25 C 0.32231(18) 0.46477(19) 0.53824(5)
H20_25 H 0.3534 0.5012 0.5377
C20_25 C 0.3582(3) 0.2159(3) 0.64440(9)
H21_25 H 0.3304 0.2169 0.6503
C21_25 C 0.0591(5) 0.3568(3) 0.60273(7)
H22_25 H 0.0384 0.3286 0.6104
H23_25 H 0.0402 0.3442 0.5931
H24_25 H 0.0967 0.3625 0.6020
C22_25 C 0.4403(5) 0.2602(3) 0.62894(10)
H25_25 H 0.4674 0.2936 0.6244
C23_25 C 0.3578(3) 0.1606(2) 0.64105(8)
H26_25 H 0.3306 0.1270 0.6455
C24_25 C 0.3946(3) 0.1033(3) 0.62969(7)
C25_25 C 0.0751(2) 0.5057(2) 0.56410(6)
H27_25 H 0.0492 0.4722 0.5593
C26_25 C 0.3973(3) 0.1608(3) 0.63154(7)
C27_25 C 0.4005(3) 0.2620(3) 0.63837(8)
C28_25 C 0.0826(3) 0.4983(2) 0.60737(6)
H28_25 H 0.0956 0.5359 0.6047
C29_25 C 0.0801(2) 0.5543(3) 0.56269(8)
H29_25 H 0.0523 0.5600 0.5584
C30_25 C 0.0558(3) 0.4736(2) 0.62034(6)
H30_25 H 0.0481 0.4914 0.6283
C31_25 C 0.2513(2) 0.4768(2) 0.59827(4)
H31_25 H 0.2765 0.4788 0.6057
C32_25 C 0.2026(2) 0.4754(2) 0.60067(4)
H32_25 H 0.1878 0.4762 0.6102
C33_25 C 0.3962(2) 0.34332(19) 0.63039(5)
C34_25 C 0.0621(2) 0.4118(2) 0.60715(5)
C35_25 C 0.20394(18) 0.5938(2) 0.58535(5)
H33_25 H 0.2078 0.5648 0.5905
H34_25 H 0.2347 0.6135 0.5783
H35_25 H 0.2045 0.6200 0.5928
C36_25 C 0.2050(2) 0.37387(19) 0.49518(5)
H36_25 H 0.1829 0.3909 0.4963
C37_25 C 0.1503(2) 0.40333(18) 0.52502(5)
H37_25 H 0.1840 0.4379 0.5253
C38_25 C 0.4416(4) 0.2089(3) 0.62592(8)
H38_25 H 0.4708 0.2088 0.6205
B1_25 B 0.1962(2) 0.3376(3) 0.52328(6)
B2_25 B 0.1178(3) 0.4670(3) 0.58321(5)
Zn3_13 Zn 0.145381(28) 0.67927(2) 0.573449(5)
N13_13 N 0.3950(3) 0.5341(4) 0.56914(5)
O4_26 O 0.89575(19) 0.33399(28) 0.62424(6)
O5_26 O 0.68419(17) 0.09203(26) 0.64170(5)
C6_26 C 0.65301(15) 0.00472(21) 0.60733(5)
H2_26 H 0.6705 0.0007 0.5987
C13_26 C 0.68328(16) 0.04722(26) 0.61730(5)
H9_26 H 0.7214 0.0726 0.6155
C14_26 C 0.60048(17) 0.01604(24) 0.63293(5)
H10_26 H 0.5826 0.0198 0.6416
H17_26 H 0.7130 0.0064 0.5009
C20_26 C 0.7841(3) 0.1424(4) 0.64440(9)
H21_26 H 0.7831 0.1136 0.6503
C22_26 C 0.7398(3) 0.1802(6) 0.62894(10)
H25_26 H 0.7064 0.1739 0.6244
C23_26 C 0.8394(2) 0.1973(4) 0.64105(8)
H26_26 H 0.8730 0.2037 0.6455
C24_26 C 0.8967(3) 0.2914(4) 0.62969(7)
C26_26 C 0.8392(3) 0.2366(4) 0.63154(7)
C27_26 C 0.7380(3) 0.1386(4) 0.63837(8)
C33_26 C 0.65668(19) 0.05292(28) 0.63039(5)
C38_26 C 0.7911(3) 0.2328(5) 0.62592(8)
H38_26 H 0.7912 0.2621 0.6205
Zn1_14 Zn 0.533885(19) 0.854619(28) 0.573449(5)
O1_26 O 0.58605(9) 0.91907(13) 0.58653(3)
O3_26 O 0.51326(12) 0.88180(18) 0.60269(4)
N1_26 N 0.61753(12) 0.86188(18) 0.53324(4)
N2_26 N 0.56900(15) 0.86714(21) 0.55254(4)
N3_26 N 0.65163(12) 0.79808(18) 0.52403(4)
N4_26 N 0.52753(14) 0.70473(21) 0.58664(3)
N5_26 N 0.66489(16) 0.72408(22) 0.52562(4)
N6_26 N 0.52517(18) 0.78300(26) 0.58252(3)
N9_26 N 0.54003(17) 0.62793(25) 0.59867(4)
N10_26 N 0.48590(19) 0.60404(27) 0.57462(4)
N11_26 N 0.65623(13) 0.87191(20) 0.50683(3)
C1_26 C 0.56291(14) 0.91894(21) 0.59913(4)
C2_26 C 0.61404(18) 0.86831(25) 0.54765(5)
C3_26 C 0.59610(14) 0.96707(19) 0.60990(4)
C4_26 C 0.6884(2) 0.7783(3) 0.52497(5)
C5_26 C 0.57095(15) 0.97370(21) 0.62269(4)
H1_26 H 0.5327 0.9487 0.6245
C7_26 C 0.52696(18) 0.74001(26) 0.57601(4)
C8_26 C 0.65625(19) 0.87348(26) 0.55908(5)
H3_26 H 0.6878 0.8744 0.5540
H4_26 H 0.6690 0.9078 0.5648
H5_26 H 0.6392 0.8417 0.5659
C9_26 C 0.62639(19) 0.85762(27) 0.48275(5)
H6_26 H 0.6091 0.8409 0.4736
C10_26 C 0.67347(19) 0.92108(25) 0.49998(5)
C11_26 C 0.60291(17) 0.70235(26) 0.52556(5)
H7_26 H 0.5742 0.6647 0.5259
C12_26 C 0.5664(2) 0.85788(28) 0.52658(5)
H8_26 H 0.5577 0.8561 0.5163
C15_26 C 0.74972(16) 0.81520(24) 0.52361(5)
H11_26 H 0.7679 0.7930 0.5246
H12_26 H 0.7585 0.8337 0.5139
H13_26 H 0.7629 0.8432 0.5316
C16_26 C 0.5278(2) 0.7304(3) 0.55932(4)
H14_26 H 0.5278 0.7609 0.5539
H15_26 H 0.5613 0.7290 0.5568
H16_26 H 0.4950 0.6954 0.5566
C17_26 C 0.7046(3) 0.9765(4) 0.50794(6)
H18_26 H 0.6816 0.9777 0.5161
H19_26 H 0.7392 0.9810 0.5121
C18_26 C 0.4333(2) 0.5806(3) 0.57655(6)
C19_26 C 0.53523(19) 0.85755(26) 0.53824(5)
H20_26 H 0.4988 0.8523 0.5377
C21_26 C 0.6432(3) 0.7024(6) 0.60273(7)
H22_26 H 0.6714 0.7099 0.6104
H23_26 H 0.6558 0.6961 0.5931
H24_26 H 0.6375 0.7343 0.6020
C25_26 C 0.4943(2) 0.5695(3) 0.56410(6)
H27_26 H 0.5278 0.5771 0.5593
C28_26 C 0.5017(2) 0.5844(4) 0.60737(6)
H28_26 H 0.4641 0.5598 0.6047
C29_26 C 0.4457(3) 0.5259(4) 0.56269(8)
H29_26 H 0.4400 0.4924 0.5584
C30_26 C 0.5264(2) 0.5823(4) 0.62034(6)
H30_26 H 0.5086 0.5568 0.6283
C31_26 C 0.5232(2) 0.7746(3) 0.59827(4)
H31_26 H 0.5212 0.7978 0.6057
C32_26 C 0.5246(2) 0.7273(3) 0.60067(4)
H32_26 H 0.5238 0.7117 0.6102
C34_26 C 0.5882(2) 0.6504(3) 0.60715(5)
C35_26 C 0.4062(2) 0.61018(27) 0.58535(5)
H33_26 H 0.4352 0.6431 0.5905
H34_26 H 0.3865 0.6213 0.5783
H35_26 H 0.3800 0.5846 0.5928
C36_26 C 0.62613(19) 0.83117(28) 0.49518(5)
H36_26 H 0.6091 0.7921 0.4963
C37_26 C 0.59667(18) 0.74701(27) 0.52502(5)
H37_26 H 0.5621 0.7462 0.5253
B1_26 B 0.6624(3) 0.8587(4) 0.52328(6)
B2_26 B 0.5330(3) 0.6509(4) 0.58321(5)
N13_14 N 0.4659(4) 0.8610(5) 0.56914(5)
O1_27 O 0.08093(13) 0.66699(10) 0.58653(3)
O3_27 O 0.11820(18) 0.63147(14) 0.60269(4)
N1_27 N 0.13812(18) 0.75566(14) 0.53324(4)
N2_27 N 0.13286(21) 0.70187(14) 0.55254(4)
N3_27 N 0.20192(18) 0.85356(13) 0.52403(4)
N4_27 N 0.29527(21) 0.82281(16) 0.58664(3)
N5_27 N 0.27592(22) 0.94082(15) 0.52562(4)
N6_27 N 0.21700(26) 0.74218(19) 0.58252(3)
N9_27 N 0.37207(25) 0.91211(18) 0.59867(4)
N10_27 N 0.39596(27) 0.88187(19) 0.57462(4)
N11_27 N 0.12809(20) 0.78433(15) 0.50683(3)
C1_27 C 0.08106(21) 0.64398(15) 0.59913(4)
C2_27 C 0.13169(25) 0.74574(17) 0.54765(5)
C3_27 C 0.03293(19) 0.62904(13) 0.60990(4)
C4_27 C 0.2217(3) 0.9102(2) 0.52497(5)
C5_27 C 0.02630(21) 0.59726(15) 0.62269(4)
H1_27 H 0.0513 0.5841 0.6245
C7_27 C 0.25999(26) 0.78696(19) 0.57601(4)
C8_27 C 0.12652(26) 0.78278(18) 0.55908(5)
H3_27 H 0.1256 0.8135 0.5540
H4_27 H 0.0922 0.7613 0.5648
H5_27 H 0.1583 0.7976 0.5659
C9_27 C 0.14238(27) 0.76878(19) 0.48275(5)
H6_27 H 0.1591 0.7683 0.4736
C10_27 C 0.07892(25) 0.75240(17) 0.49998(5)
C11_27 C 0.29765(26) 0.9006(2) 0.52556(5)
H7_27 H 0.3353 0.9096 0.5259
C12_27 C 0.14212(28) 0.70856(19) 0.52658(5)
H8_27 H 0.1439 0.7017 0.5163
C15_27 C 0.18480(24) 0.93453(18) 0.52361(5)
H11_27 H 0.2070 0.9750 0.5246
H12_27 H 0.1663 0.9249 0.5139
H13_27 H 0.1568 0.9198 0.5316
C16_27 C 0.2696(3) 0.7975(2) 0.55932(4)
H14_27 H 0.2391 0.7670 0.5539
H15_27 H 0.2710 0.8324 0.5568
H16_27 H 0.3046 0.7997 0.5566
C17_27 C 0.0235(4) 0.7282(3) 0.50794(6)
H18_27 H 0.0223 0.7040 0.5161
H19_27 H 0.0190 0.7583 0.5121
C18_27 C 0.4194(3) 0.8528(2) 0.57655(6)
C19_27 C 0.14245(26) 0.67769(18) 0.53824(5)
H20_27 H 0.1477 0.6466 0.5377
C21_27 C 0.2976(6) 0.9409(5) 0.60273(7)
H22_27 H 0.2901 0.9616 0.6104
H23_27 H 0.3039 0.9598 0.5931
H24_27 H 0.2657 0.9033 0.6020
C25_27 C 0.4305(3) 0.9249(2) 0.56410(6)
H27_27 H 0.4229 0.9508 0.5593
C28_27 C 0.4156(4) 0.9174(3) 0.60737(6)
H28_27 H 0.4402 0.9044 0.6047
C29_27 C 0.4741(4) 0.9199(2) 0.56269(8)
H29_27 H 0.5076 0.9477 0.5584
C30_27 C 0.4177(4) 0.9442(3) 0.62034(6)
H30_27 H 0.4432 0.9519 0.6283
C31_27 C 0.2254(3) 0.7487(2) 0.59827(4)
H31_27 H 0.2022 0.7235 0.6057
C32_27 C 0.2727(3) 0.7974(2) 0.60067(4)
H32_27 H 0.2883 0.8122 0.6102
C34_27 C 0.3496(3) 0.9379(2) 0.60715(5)
C35_27 C 0.38982(27) 0.79606(18) 0.58535(5)
H33_27 H 0.3569 0.7922 0.5905
H34_27 H 0.3787 0.7653 0.5783
H35_27 H 0.4154 0.7955 0.5928
C36_27 C 0.16883(28) 0.7950(2) 0.49518(5)
H36_27 H 0.2079 0.8171 0.4963
C37_27 C 0.25299(27) 0.8497(2) 0.52502(5)
H37_27 H 0.2538 0.8160 0.5253
B1_27 B 0.1413(4) 0.8038(2) 0.52328(6)
B2_27 B 0.3491(4) 0.8822(3) 0.58321(5)
O4_27 O 0.66601(28) 0.5618(2) 0.62424(6)
O5_27 O 0.90797(26) 0.5922(2) 0.64170(5)
C6_27 C 0.99528(21) 0.64830(15) 0.60733(5)
H2_27 H 0.9993 0.6699 0.5987
C13_27 C 0.95278(26) 0.6361(2) 0.61730(5)
H9_27 H 0.9274 0.6489 0.6155
C14_27 C 0.98396(24) 0.58445(17) 0.63293(5)
H10_27 H 0.9802 0.5629 0.6416
H17_27 H 0.9936 0.7067 0.5009
C20_27 C 0.8576(4) 0.6418(3) 0.64440(9)
H21_27 H 0.8864 0.6696 0.6503
C22_27 C 0.8198(6) 0.5597(5) 0.62894(10)
H25_27 H 0.8261 0.5326 0.6244
C23_27 C 0.8027(4) 0.6422(3) 0.64105(8)
H26_27 H 0.7963 0.6694 0.6455
C24_27 C 0.7086(4) 0.6054(3) 0.62969(7)
C26_27 C 0.7634(4) 0.6027(3) 0.63154(7)
C27_27 C 0.8614(4) 0.5995(3) 0.63837(8)
C33_27 C 0.94708(28) 0.6038(2) 0.63039(5)
C38_27 C 0.7672(5) 0.5584(4) 0.62592(8)
H38_27 H 0.7379 0.5292 0.6205
Zn1_15 Zn 0.132781(19) 0.65407(2) 0.259885(5)
O1_28 O 0.08061(9) 0.66635(10) 0.24681(3)
O3_28 O 0.15340(12) 0.70187(14) 0.23065(4)
N1_28 N 0.04913(12) 0.57768(14) 0.30010(4)
N2_28 N 0.09766(15) 0.63147(14) 0.28080(4)
N3_28 N 0.01503(12) 0.47978(13) 0.30931(4)
N4_28 N 0.13913(14) 0.51053(16) 0.24670(3)
N5_28 N 0.00177(16) 0.39252(15) 0.30772(4)
N6_28 N 0.14149(18) 0.59116(19) 0.25082(3)
N7_14 N 0.2716(3) 0.4724(3) 0.26420(5)
N8_16 N 0.08599(14) 0.37527(15) 0.21331(3)
N9_28 N 0.12663(17) 0.42123(18) 0.23467(4)
N10_28 N 0.18076(19) 0.45147(19) 0.25872(4)
N11_28 N 0.01043(13) 0.54901(15) 0.32651(3)
C1_28 C 0.10375(14) 0.68936(15) 0.23421(4)
C2_28 C 0.05262(18) 0.58760(17) 0.28569(5)
C3_28 C 0.07056(14) 0.70430(13) 0.22344(4)
C5_28 C 0.09571(15) 0.73608(15) 0.21065(4)
H1_28 H 0.1339 0.7493 0.2089
C6_28 C 0.01365(15) 0.68504(15) 0.22601(5)
C7_28 C 0.13970(18) 0.54638(19) 0.25733(4)
C8_28 C 0.01041(19) 0.55056(18) 0.27426(5)
H5_28 H 0.0274 0.5358 0.2675
C9_28 C 0.04027(19) 0.56456(19) 0.35059(5)
H6_28 H 0.0575 0.5651 0.3598
C11_28 C 0.06375(17) 0.4328(2) 0.30778(5)
H7_28 H 0.0924 0.4238 0.3075
C12_28 C 0.1002(2) 0.62478(19) 0.30676(5)
H8_28 H 0.1089 0.6317 0.3171
C14_28 C 0.06618(17) 0.74889(17) 0.20041(5)
H10_28 H 0.0840 0.7705 0.1918
C16_28 C 0.1388(2) 0.5359(2) 0.27402(4)
H14_28 H 0.1388 0.5664 0.2795
H15_28 H 0.1053 0.5010 0.2766
H16_28 H 0.1716 0.5337 0.2768
C18_28 C 0.2333(2) 0.4806(2) 0.25679(6)
C19_28 C 0.13143(19) 0.65565(18) 0.29510(5)
H20_28 H 0.1678 0.6868 0.2957
C21_28 C 0.0234(3) 0.3925(5) 0.23061(7)
H23_28 H 0.0108 0.3736 0.2403
H24_28 H 0.0291 0.4301 0.2314
C25_28 C 0.1723(2) 0.4085(2) 0.26924(6)
H27_28 H 0.1388 0.3826 0.2741
C28_28 C 0.1649(2) 0.4160(3) 0.22597(6)
H28_28 H 0.2025 0.4290 0.2287
C29_28 C 0.2209(3) 0.4135(2) 0.27065(8)
H29_28 H 0.2266 0.3857 0.2750
C30_28 C 0.1402(2) 0.3892(3) 0.21300(6)
H30_28 H 0.1580 0.3815 0.2051
C31_28 C 0.1434(2) 0.5847(2) 0.23507(4)
H31_28 H 0.1454 0.6099 0.2277
C32_28 C 0.1420(2) 0.5360(2) 0.23267(4)
H32_28 H 0.1428 0.5212 0.2232
C33_28 C 0.00998(19) 0.7296(2) 0.20295(5)
C34_28 C 0.0784(2) 0.3955(2) 0.22619(5)
C35_28 C 0.2604(2) 0.53728(18) 0.24799(5)
H33_28 H 0.2314 0.5412 0.2429
H34_28 H 0.2801 0.5681 0.2551
H35_28 H 0.2866 0.5379 0.2406
C36_28 C 0.04053(19) 0.5384(2) 0.33816(5)
H36_28 H 0.0575 0.5163 0.3371
C37_28 C 0.06999(18) 0.4837(2) 0.30832(5)
H37_28 H 0.1045 0.5174 0.3081
B1_28 B 0.0042(3) 0.5296(2) 0.31006(6)
B2_28 B 0.1336(3) 0.4512(3) 0.25013(5)
Zn3_14 Zn 0.34593(2) 0.478715(28) 0.259885(5)
O6_16 O 0.04252(23) 0.31392(16) 0.30011(4)
N13_15 N 0.2007(4) 0.7284(3) 0.26420(5)
O2_16 O 0.72859(16) 0.68608(16) 0.19989(4)
O4_28 O 0.77091(19) 0.7716(2) 0.20910(6)
O5_28 O 0.98247(17) 0.7412(2) 0.19164(5)
C4_28 C 0.9782(2) 0.4232(2) 0.30837(5)
H2_28 H 0.9961 0.6635 0.2347
H3_28 H 0.9788 0.5199 0.2794
H4_28 H 0.9976 0.5721 0.2686
C10_28 C 0.99319(19) 0.58094(17) 0.33336(5)
C13_28 C 0.98338(16) 0.6973(2) 0.21604(5)
H9_28 H 0.9452 0.6845 0.2179
C15_28 C 0.91694(16) 0.39881(18) 0.30973(5)
H11_28 H 0.8987 0.3584 0.3088
H12_28 H 0.9081 0.4085 0.3195
H13_28 H 0.9037 0.4136 0.3018
C17_28 C 0.9620(3) 0.6052(3) 0.32540(6)
H17_28 H 0.9536 0.6267 0.3325
H18_28 H 0.9850 0.6294 0.3173
H19_28 H 0.9274 0.5751 0.3213
C20_28 C 0.8825(3) 0.6916(3) 0.18894(9)
H21_28 H 0.8835 0.6638 0.1831
H22_28 H 0.9952 0.3718 0.2230
C22_28 C 0.9268(3) 0.7737(5) 0.20440(10)
H25_28 H 0.9602 0.8008 0.2090
C23_28 C 0.8272(2) 0.6912(3) 0.19229(8)
H26_28 H 0.7936 0.6640 0.1879
C24_28 C 0.7699(3) 0.7280(3) 0.20365(7)
C26_28 C 0.8274(3) 0.7307(3) 0.20180(7)
C27_28 C 0.9286(3) 0.7339(3) 0.19497(8)
C38_28 C 0.8755(3) 0.7750(4) 0.20742(8)
H38_28 H 0.8754 0.8042 0.2129
N14_16 N 0.91401(14) 0.28927(21) 0.28669(3)
O1_29 O 0.33365(10) 0.41427(13) 0.24681(3)
O2_17 O 0.31392(16) 0.04252(23) 0.19989(4)
O3_29 O 0.29813(14) 0.45154(18) 0.23065(4)
O5_29 O 0.2588(2) 0.24131(26) 0.19164(5)
N1_29 N 0.42232(14) 0.47146(18) 0.30010(4)
N2_29 N 0.36853(14) 0.46620(21) 0.28080(4)
N3_29 N 0.52022(13) 0.53526(18) 0.30931(4)
N4_29 N 0.48947(16) 0.62861(21) 0.24670(3)
N5_29 N 0.60748(15) 0.60926(22) 0.30772(4)
N6_29 N 0.40884(19) 0.55034(26) 0.25082(3)
N7_15 N 0.5276(3) 0.7993(4) 0.26420(5)
N8_17 N 0.62473(15) 0.71073(21) 0.21331(3)
N9_29 N 0.57877(18) 0.70541(25) 0.23467(4)
N10_29 N 0.54853(19) 0.72930(27) 0.25872(4)
N11_29 N 0.45099(15) 0.46143(20) 0.32651(3)
C1_29 C 0.31064(15) 0.41440(21) 0.23421(4)
C2_29 C 0.41240(17) 0.46503(25) 0.28569(5)
C3_29 C 0.29570(13) 0.36627(19) 0.22344(4)
C4_29 C 0.5768(2) 0.5551(3) 0.30837(5)
C5_29 C 0.26392(15) 0.35964(21) 0.21065(4)
H1_29 H 0.2507 0.3847 0.2089
C6_29 C 0.31496(15) 0.32862(21) 0.22601(5)
H2_29 H 0.3365 0.3327 0.2347
C7_29 C 0.45362(19) 0.59333(26) 0.25733(4)
C8_29 C 0.44944(18) 0.45986(26) 0.27426(5)
H3_29 H 0.4801 0.4590 0.2794
H4_29 H 0.4279 0.4256 0.2686
H5_29 H 0.4642 0.4917 0.2675
C9_29 C 0.43544(19) 0.47572(27) 0.35059(5)
H6_29 H 0.4349 0.4925 0.3598
C10_29 C 0.41906(17) 0.41226(25) 0.33336(5)
C11_29 C 0.5672(2) 0.63099(26) 0.30778(5)
H7_29 H 0.5762 0.6687 0.3075
C12_29 C 0.37522(19) 0.47546(28) 0.30676(5)
H8_29 H 0.3683 0.4773 0.3171
C13_29 C 0.3027(2) 0.28612(26) 0.21604(5)
H9_29 H 0.3155 0.2608 0.2179
C14_29 C 0.25111(17) 0.31730(24) 0.20041(5)
H10_29 H 0.2295 0.3136 0.1918
C15_29 C 0.60119(18) 0.51814(24) 0.30973(5)
H11_29 H 0.6416 0.5404 0.3088
H12_29 H 0.5915 0.4997 0.3195
H13_29 H 0.5864 0.4902 0.3018
C16_29 C 0.4641(2) 0.6030(3) 0.27402(4)
H14_29 H 0.4336 0.5725 0.2795
H15_29 H 0.4990 0.6044 0.2766
H16_29 H 0.4663 0.6380 0.2768
C17_29 C 0.3948(3) 0.3569(4) 0.32540(6)
H17_29 H 0.3733 0.3270 0.3325
H18_29 H 0.3706 0.3557 0.3173
H19_29 H 0.4249 0.3524 0.3213
C18_29 C 0.5194(2) 0.7528(3) 0.25679(6)
C19_29 C 0.34435(18) 0.47579(26) 0.29510(5)
H20_29 H 0.3132 0.4811 0.2957
C20_29 C 0.3084(3) 0.1910(4) 0.18894(9)
H21_29 H 0.3362 0.2198 0.1831
C21_29 C 0.6075(5) 0.6310(6) 0.23061(7)
H22_29 H 0.6282 0.6235 0.2230
H23_29 H 0.6264 0.6373 0.2403
H24_29 H 0.5699 0.5991 0.2314
C22_29 C 0.2263(5) 0.1532(6) 0.20440(10)
H25_29 H 0.1992 0.1595 0.2090
C23_29 C 0.3088(3) 0.1361(4) 0.19229(8)
H26_29 H 0.3360 0.1297 0.1879
C24_29 C 0.2720(3) 0.0420(4) 0.20365(7)
C25_29 C 0.5915(2) 0.7639(3) 0.26924(6)
H27_29 H 0.6174 0.7563 0.2741
C26_29 C 0.2693(3) 0.0968(4) 0.20180(7)
C27_29 C 0.2661(3) 0.1948(4) 0.19497(8)
C28_29 C 0.5840(3) 0.7490(4) 0.22597(6)
H28_29 H 0.5710 0.7736 0.2287
C29_29 C 0.5865(2) 0.8075(4) 0.27065(8)
H29_29 H 0.6143 0.8410 0.2750
C30_29 C 0.6108(3) 0.7511(4) 0.21300(6)
H30_29 H 0.6185 0.7766 0.2051
C31_29 C 0.4153(2) 0.5588(3) 0.23507(4)
H31_29 H 0.3901 0.5356 0.2277
C32_29 C 0.4640(2) 0.6061(3) 0.23267(4)
H32_29 H 0.4788 0.6217 0.2232
C33_29 C 0.2704(2) 0.28042(28) 0.20295(5)
C34_29 C 0.6045(2) 0.6830(3) 0.22619(5)
C35_29 C 0.46272(18) 0.72316(27) 0.24799(5)
H33_29 H 0.4588 0.6903 0.2429
H34_29 H 0.4319 0.7121 0.2551
H35_29 H 0.4621 0.7488 0.2406
C36_29 C 0.4616(2) 0.50217(28) 0.33816(5)
H36_29 H 0.4837 0.5413 0.3371
C37_29 C 0.5163(2) 0.58633(27) 0.30832(5)
H37_29 H 0.4826 0.5872 0.3081
C38_29 C 0.2250(4) 0.1006(5) 0.20742(8)
H38_29 H 0.1958 0.0713 0.2129
B1_29 B 0.4704(2) 0.4747(4) 0.31006(6)
B2_29 B 0.5488(3) 0.6825(4) 0.25013(5)
Zn3_15 Zn 0.521285(28) 0.867219(34) 0.259885(5)
O6_17 O 0.68608(16) 0.72859(28) 0.30011(4)
N14_17 N 0.71073(21) 0.62473(25) 0.28669(3)
O4_29 O 0.2284(2) 0.99935(28) 0.20910(6)
O4_30 O 0.00065(28) 0.22909(19) 0.20910(6)
O2_18 O 0.95748(23) 0.27141(16) 0.19989(4)
O5_30 O 0.75869(26) 0.01753(17) 0.19164(5)
C4_30 C 0.4449(3) 0.0218(2) 0.30837(5)
H2_30 H 0.6673 0.0039 0.2347
H3_30 H 0.5410 0.0212 0.2794
H4_30 H 0.5744 0.0024 0.2686
C10_30 C 0.58774(25) 0.00681(19) 0.33336(5)
C13_30 C 0.71388(26) 0.01662(16) 0.21604(5)
H9_30 H 0.7392 0.0548 0.2179
C15_30 C 0.48186(24) 0.08306(16) 0.30973(5)
H11_30 H 0.4596 0.1013 0.3088
H12_30 H 0.5003 0.0919 0.3195
H13_30 H 0.5098 0.0963 0.3018
C17_30 C 0.6431(4) 0.0380(3) 0.32540(6)
H17_30 H 0.6730 0.0464 0.3325
H18_30 H 0.6443 0.0150 0.3173
H19_30 H 0.6476 0.0726 0.3213
C20_30 C 0.8090(4) 0.1175(3) 0.18894(9)
H21_30 H 0.7802 0.1165 0.1831
H22_30 H 0.3765 0.0048 0.2230
C22_30 C 0.8468(6) 0.0732(3) 0.20440(10)
H25_30 H 0.8405 0.0398 0.2090
C23_30 C 0.8639(4) 0.1728(2) 0.19229(8)
H26_30 H 0.8703 0.2064 0.1879
C24_30 C 0.9580(4) 0.2301(3) 0.20365(7)
C26_30 C 0.9032(4) 0.1726(3) 0.20180(7)
C27_30 C 0.8052(4) 0.0714(3) 0.19497(8)
C38_30 C 0.8994(5) 0.1245(3) 0.20742(8)
H38_30 H 0.9287 0.1246 0.2129
N14_18 N 0.37527(25) 0.08599(14) 0.28669(3)
O1_30 O 0.58573(13) 0.91939(9) 0.24681(3)
O3_30 O 0.54846(18) 0.84660(12) 0.23065(4)
N1_30 N 0.52854(18) 0.95087(12) 0.30010(4)
N2_30 N 0.53380(21) 0.90234(15) 0.28080(4)
N3_30 N 0.46474(18) 0.98497(12) 0.30931(4)
N4_30 N 0.37139(21) 0.86087(14) 0.24670(3)
N5_30 N 0.39074(22) 0.99823(16) 0.30772(4)
N6_30 N 0.44966(26) 0.85851(18) 0.25082(3)
N8_18 N 0.28927(21) 0.91401(14) 0.21331(3)
N9_30 N 0.29459(25) 0.87337(17) 0.23467(4)
N10_30 N 0.27070(27) 0.81924(19) 0.25872(4)
N11_30 N 0.53857(20) 0.98957(13) 0.32651(3)
C1_30 C 0.58560(21) 0.89625(14) 0.23421(4)
C2_30 C 0.53497(25) 0.94738(18) 0.28569(5)
C3_30 C 0.63373(19) 0.92944(14) 0.22344(4)
C5_30 C 0.64036(21) 0.90429(15) 0.21065(4)
H1_30 H 0.6153 0.8661 0.2089
C6_30 C 0.67138(21) 0.98635(15) 0.22601(5)
C7_30 C 0.40667(26) 0.86030(18) 0.25733(4)
C8_30 C 0.54014(26) 0.98959(19) 0.27426(5)
H5_30 H 0.5083 0.9726 0.2675
C9_30 C 0.52428(27) 0.95973(19) 0.35059(5)
H6_30 H 0.5075 0.9425 0.3598
C11_30 C 0.36901(26) 0.93625(17) 0.30778(5)
H7_30 H 0.3313 0.9076 0.3075
C12_30 C 0.52454(28) 0.8998(2) 0.30676(5)
H8_30 H 0.5227 0.8911 0.3171
C14_30 C 0.68270(24) 0.93382(17) 0.20041(5)
H10_30 H 0.6864 0.9160 0.1918
C16_30 C 0.3970(3) 0.8612(2) 0.27402(4)
H14_30 H 0.4275 0.8612 0.2795
H15_30 H 0.3956 0.8947 0.2766
H16_30 H 0.3620 0.8284 0.2768
C18_30 C 0.2472(3) 0.7667(2) 0.25679(6)
C19_30 C 0.52421(26) 0.86857(19) 0.29510(5)
H20_30 H 0.5189 0.8322 0.2957
C21_30 C 0.3690(6) 0.9766(3) 0.23061(7)
H23_30 H 0.3627 0.9892 0.2403
H24_30 H 0.4009 0.9709 0.2314
C25_30 C 0.2361(3) 0.8277(2) 0.26924(6)
H27_30 H 0.2437 0.8612 0.2741
C28_30 C 0.2510(4) 0.8351(2) 0.22597(6)
H28_30 H 0.2264 0.7975 0.2287
C29_30 C 0.1925(4) 0.7791(3) 0.27065(8)
H29_30 H 0.1590 0.7734 0.2750
C30_30 C 0.2489(4) 0.8598(2) 0.21300(6)
H30_30 H 0.2234 0.8420 0.2051
C31_30 C 0.4412(3) 0.8566(2) 0.23507(4)
H31_30 H 0.4644 0.8546 0.2277
C32_30 C 0.3939(3) 0.8580(2) 0.23267(4)
H32_30 H 0.3783 0.8572 0.2232
C33_30 C 0.71958(28) 0.99002(19) 0.20295(5)
C34_30 C 0.3170(3) 0.9216(2) 0.22619(5)
C35_30 C 0.27684(27) 0.7396(2) 0.24799(5)
H33_30 H 0.3097 0.7686 0.2429
H34_30 H 0.2879 0.7199 0.2551
H35_30 H 0.2512 0.7134 0.2406
C36_30 C 0.49783(28) 0.95947(19) 0.33816(5)
H36_30 H 0.4587 0.9425 0.3371
C37_30 C 0.41367(27) 0.93001(18) 0.30832(5)
H37_30 H 0.4128 0.8955 0.3081
B1_30 B 0.5253(4) 0.9958(3) 0.31006(6)
B2_30 B 0.3175(4) 0.8664(3) 0.25013(5)
O6_18 O 0.27141(28) 0.95748(23) 0.30011(4)
Zn1_16 Zn 0.65407(2) 0.132781(19) 0.240115(5)
O1_31 O 0.66635(10) 0.08061(9) 0.25319(3)
O3_31 O 0.70187(14) 0.15340(12) 0.26935(4)
N1_31 N 0.57768(14) 0.04913(12) 0.19990(4)
N2_31 N 0.63147(14) 0.09766(15) 0.21920(4)
N3_31 N 0.47978(13) 0.01503(12) 0.19069(4)
N4_31 N 0.51053(16) 0.13913(14) 0.25330(3)
N5_31 N 0.39252(15) 0.00177(16) 0.19228(4)
N6_31 N 0.59116(19) 0.14149(18) 0.24918(3)
N7_16 N 0.4724(3) 0.2716(3) 0.23580(5)
N9_31 N 0.42123(18) 0.12663(17) 0.26533(4)
N10_31 N 0.45147(19) 0.18076(19) 0.24128(4)
N11_31 N 0.54901(15) 0.01043(13) 0.17349(3)
C1_31 C 0.68936(15) 0.10375(14) 0.26579(4)
C2_31 C 0.58760(17) 0.05262(18) 0.21431(5)
C3_31 C 0.70430(13) 0.07056(14) 0.27656(4)
C5_31 C 0.73608(15) 0.09571(15) 0.28935(4)
H1_31 H 0.7493 0.1339 0.2911
C6_31 C 0.68504(15) 0.01365(15) 0.27399(5)
C7_31 C 0.54638(19) 0.13970(18) 0.24267(4)
C8_31 C 0.55056(18) 0.01041(19) 0.22574(5)
H5_31 H 0.5358 0.0274 0.2325
C9_31 C 0.56456(19) 0.04027(19) 0.14941(5)
H6_31 H 0.5651 0.0575 0.1402
C11_31 C 0.4328(2) 0.06375(17) 0.19222(5)
H7_31 H 0.4238 0.0924 0.1925
C12_31 C 0.62478(19) 0.1002(2) 0.19324(5)
H8_31 H 0.6317 0.1089 0.1829
C14_31 C 0.74889(17) 0.06618(17) 0.29959(5)
H10_31 H 0.7705 0.0840 0.3082
C16_31 C 0.5359(2) 0.1388(2) 0.22598(4)
H14_31 H 0.5664 0.1388 0.2205
H15_31 H 0.5010 0.1053 0.2234
H16_31 H 0.5337 0.1716 0.2232
C18_31 C 0.4806(2) 0.2333(2) 0.24321(6)
C19_31 C 0.65565(18) 0.13143(19) 0.20490(5)
H20_31 H 0.6868 0.1678 0.2043
C21_31 C 0.3925(5) 0.0234(3) 0.26939(7)
H23_31 H 0.3736 0.0108 0.2597
H24_31 H 0.4301 0.0291 0.2686
C25_31 C 0.4085(2) 0.1723(2) 0.23076(6)
H27_31 H 0.3826 0.1388 0.2259
C28_31 C 0.4160(3) 0.1649(2) 0.27403(6)
H28_31 H 0.4290 0.2025 0.2713
C29_31 C 0.4135(2) 0.2209(3) 0.22935(8)
H29_31 H 0.3857 0.2266 0.2250
C30_31 C 0.3892(3) 0.1402(2) 0.28700(6)
H30_31 H 0.3815 0.1580 0.2949
C31_31 C 0.5847(2) 0.1434(2) 0.26493(4)
H31_31 H 0.6099 0.1454 0.2723
C32_31 C 0.5360(2) 0.1420(2) 0.26733(4)
H32_31 H 0.5212 0.1428 0.2768
C33_31 C 0.7296(2) 0.00998(19) 0.29705(5)
C34_31 C 0.3955(2) 0.0784(2) 0.27381(5)
C35_31 C 0.53728(18) 0.2604(2) 0.25201(5)
H33_31 H 0.5412 0.2314 0.2571
H34_31 H 0.5681 0.2801 0.2449
H35_31 H 0.5379 0.2866 0.2594
C36_31 C 0.5384(2) 0.04053(19) 0.16184(5)
H36_31 H 0.5163 0.0575 0.1629
C37_31 C 0.4837(2) 0.06999(18) 0.19168(5)
H37_31 H 0.5174 0.1045 0.1919
B1_31 B 0.5296(2) 0.0042(3) 0.18994(6)
B2_31 B 0.4512(3) 0.1336(3) 0.24987(5)
Zn3_16 Zn 0.478715(28) 0.34593(2) 0.240115(5)
N13_16 N 0.7284(3) 0.2007(4) 0.23580(5)
O4_31 O 0.7716(2) 0.77091(19) 0.29090(6)
O5_31 O 0.7412(2) 0.98247(17) 0.30836(5)
C4_31 C 0.4232(2) 0.9782(2) 0.19163(5)
H2_31 H 0.6635 0.9961 0.2653
H3_31 H 0.5199 0.9788 0.2206
H4_31 H 0.5721 0.9976 0.2314
C10_31 C 0.58094(17) 0.99319(19) 0.16664(5)
C13_31 C 0.6973(2) 0.98338(16) 0.28396(5)
H9_31 H 0.6845 0.9452 0.2821
C15_31 C 0.39881(18) 0.91694(16) 0.19027(5)
H11_31 H 0.3584 0.8987 0.1912
H12_31 H 0.4085 0.9081 0.1805
H13_31 H 0.4136 0.9037 0.1982
C17_31 C 0.6052(3) 0.9620(3) 0.17460(6)
H17_31 H 0.6267 0.9536 0.1675
H18_31 H 0.6294 0.9850 0.1827
H19_31 H 0.5751 0.9274 0.1787
C20_31 C 0.6916(3) 0.8825(3) 0.31106(9)
H21_31 H 0.6638 0.8835 0.3169
H22_31 H 0.3718 0.9952 0.2770
C22_31 C 0.7737(5) 0.9268(3) 0.29560(10)
H25_31 H 0.8008 0.9602 0.2910
C23_31 C 0.6912(3) 0.8272(2) 0.30771(8)
H26_31 H 0.6640 0.7936 0.3121
C24_31 C 0.7280(3) 0.7699(3) 0.29635(7)
C26_31 C 0.7307(3) 0.8274(3) 0.29820(7)
C27_31 C 0.7339(3) 0.9286(3) 0.30503(8)
C38_31 C 0.7750(4) 0.8755(3) 0.29258(8)
H38_31 H 0.8042 0.8754 0.2871
O4_32 O 0.22909(19) 0.00065(28) 0.29090(6)
O5_32 O 0.01753(17) 0.75869(26) 0.30836(5)
C4_32 C 0.0218(2) 0.4449(3) 0.19163(5)
H2_32 H 0.0039 0.6673 0.2653
H3_32 H 0.0212 0.5410 0.2206
H4_32 H 0.0024 0.5744 0.2314
C10_32 C 0.00681(19) 0.58774(25) 0.16664(5)
C13_32 C 0.01662(16) 0.71388(26) 0.28396(5)
H9_32 H 0.0548 0.7392 0.2821
C15_32 C 0.08306(16) 0.48186(24) 0.19027(5)
H11_32 H 0.1013 0.4596 0.1912
H12_32 H 0.0919 0.5003 0.1805
H13_32 H 0.0963 0.5098 0.1982
C17_32 C 0.0380(3) 0.6431(4) 0.17460(6)
H17_32 H 0.0464 0.6730 0.1675
H18_32 H 0.0150 0.6443 0.1827
H19_32 H 0.0726 0.6476 0.1787
C20_32 C 0.1175(3) 0.8090(4) 0.31106(9)
H21_32 H 0.1165 0.7802 0.3169
H22_32 H 0.0048 0.3765 0.2770
C22_32 C 0.0732(3) 0.8468(6) 0.29560(10)
H25_32 H 0.0398 0.8405 0.2910
C23_32 C 0.1728(2) 0.8639(4) 0.30771(8)
H26_32 H 0.2064 0.8703 0.3121
C24_32 C 0.2301(3) 0.9580(4) 0.29635(7)
C26_32 C 0.1726(3) 0.9032(4) 0.29820(7)
C27_32 C 0.0714(3) 0.8052(4) 0.30503(8)
C38_32 C 0.1245(3) 0.8994(5) 0.29258(8)
H38_32 H 0.1246 0.9287 0.2871
Zn1_17 Zn 0.867219(19) 0.521285(28) 0.240115(5)
O1_32 O 0.91939(9) 0.58573(13) 0.25319(3)
O3_32 O 0.84660(12) 0.54846(18) 0.26935(4)
N1_32 N 0.95087(12) 0.52854(18) 0.19990(4)
N2_32 N 0.90234(15) 0.53380(21) 0.21920(4)
N3_32 N 0.98497(12) 0.46474(18) 0.19069(4)
N4_32 N 0.86087(14) 0.37139(21) 0.25330(3)
N5_32 N 0.99823(16) 0.39074(22) 0.19228(4)
N6_32 N 0.85851(18) 0.44966(26) 0.24918(3)
N9_32 N 0.87337(17) 0.29459(25) 0.26533(4)
N10_32 N 0.81924(19) 0.27070(27) 0.24128(4)
N11_32 N 0.98957(13) 0.53857(20) 0.17349(3)
C1_32 C 0.89625(14) 0.58560(21) 0.26579(4)
C2_32 C 0.94738(18) 0.53497(25) 0.21431(5)
C3_32 C 0.92944(14) 0.63373(19) 0.27656(4)
C5_32 C 0.90429(15) 0.64036(21) 0.28935(4)
H1_32 H 0.8661 0.6153 0.2911
C6_32 C 0.98635(15) 0.67138(21) 0.27399(5)
C7_32 C 0.86030(18) 0.40667(26) 0.24267(4)
C8_32 C 0.98959(19) 0.54014(26) 0.22574(5)
H5_32 H 0.9726 0.5083 0.2325
C9_32 C 0.95973(19) 0.52428(27) 0.14941(5)
H6_32 H 0.9425 0.5075 0.1402
C11_32 C 0.93625(17) 0.36901(26) 0.19222(5)
H7_32 H 0.9076 0.3313 0.1925
C12_32 C 0.8998(2) 0.52454(28) 0.19324(5)
H8_32 H 0.8911 0.5227 0.1829
C14_32 C 0.93382(17) 0.68270(24) 0.29959(5)
H10_32 H 0.9160 0.6864 0.3082
C16_32 C 0.8612(2) 0.3970(3) 0.22598(4)
H14_32 H 0.8612 0.4275 0.2205
H15_32 H 0.8947 0.3956 0.2234
H16_32 H 0.8284 0.3620 0.2232
C18_32 C 0.7667(2) 0.2472(3) 0.24321(6)
C19_32 C 0.86857(19) 0.52421(26) 0.20490(5)
H20_32 H 0.8322 0.5189 0.2043
C21_32 C 0.9766(3) 0.3690(6) 0.26939(7)
H23_32 H 0.9892 0.3627 0.2597
H24_32 H 0.9709 0.4009 0.2686
C25_32 C 0.8277(2) 0.2361(3) 0.23076(6)
H27_32 H 0.8612 0.2437 0.2259
C28_32 C 0.8351(2) 0.2510(4) 0.27403(6)
H28_32 H 0.7975 0.2264 0.2713
C29_32 C 0.7791(3) 0.1925(4) 0.22935(8)
H29_32 H 0.7734 0.1590 0.2250
C30_32 C 0.8598(2) 0.2489(4) 0.28700(6)
H30_32 H 0.8420 0.2234 0.2949
C31_32 C 0.8566(2) 0.4412(3) 0.26493(4)
H31_32 H 0.8546 0.4644 0.2723
C32_32 C 0.8580(2) 0.3939(3) 0.26733(4)
H32_32 H 0.8572 0.3783 0.2768
C33_32 C 0.99002(19) 0.71958(28) 0.29705(5)
C34_32 C 0.9216(2) 0.3170(3) 0.27381(5)
C35_32 C 0.7396(2) 0.27684(27) 0.25201(5)
H33_32 H 0.7686 0.3097 0.2571
H34_32 H 0.7199 0.2879 0.2449
H35_32 H 0.7134 0.2512 0.2594
C36_32 C 0.95947(19) 0.49783(28) 0.16184(5)
H36_32 H 0.9425 0.4587 0.1629
C37_32 C 0.93001(18) 0.41367(27) 0.19168(5)
H37_32 H 0.8955 0.4128 0.1919
B1_32 B 0.9958(3) 0.5253(4) 0.18994(6)
B2_32 B 0.8664(3) 0.3175(4) 0.24987(5)
N13_17 N 0.7993(4) 0.5276(5) 0.23580(5)
O1_33 O 0.41427(13) 0.33365(10) 0.25319(3)
O3_33 O 0.45154(18) 0.29813(14) 0.26935(4)
O5_33 O 0.24131(26) 0.2588(2) 0.30836(5)
N1_33 N 0.47146(18) 0.42232(14) 0.19990(4)
N2_33 N 0.46620(21) 0.36853(14) 0.21920(4)
N3_33 N 0.53526(18) 0.52022(13) 0.19069(4)
N4_33 N 0.62861(21) 0.48947(16) 0.25330(3)
N5_33 N 0.60926(22) 0.60748(15) 0.19228(4)
N6_33 N 0.55034(26) 0.40884(19) 0.24918(3)
N9_33 N 0.70541(25) 0.57877(18) 0.26533(4)
N10_33 N 0.72930(27) 0.54853(19) 0.24128(4)
N11_33 N 0.46143(20) 0.45099(15) 0.17349(3)
C1_33 C 0.41440(21) 0.31064(15) 0.26579(4)
C2_33 C 0.46503(25) 0.41240(17) 0.21431(5)
C3_33 C 0.36627(19) 0.29570(13) 0.27656(4)
C4_33 C 0.5551(3) 0.5768(2) 0.19163(5)
C5_33 C 0.35964(21) 0.26392(15) 0.28935(4)
H1_33 H 0.3847 0.2507 0.2911
C6_33 C 0.32862(21) 0.31496(15) 0.27399(5)
H2_33 H 0.3327 0.3365 0.2653
C7_33 C 0.59333(26) 0.45362(19) 0.24267(4)
C8_33 C 0.45986(26) 0.44944(18) 0.22574(5)
H3_33 H 0.4590 0.4801 0.2206
H4_33 H 0.4256 0.4279 0.2314
H5_33 H 0.4917 0.4642 0.2325
C9_33 C 0.47572(27) 0.43544(19) 0.14941(5)
H6_33 H 0.4925 0.4349 0.1402
C10_33 C 0.41226(25) 0.41906(17) 0.16664(5)
C11_33 C 0.63099(26) 0.5672(2) 0.19222(5)
H7_33 H 0.6687 0.5762 0.1925
C12_33 C 0.47546(28) 0.37522(19) 0.19324(5)
H8_33 H 0.4773 0.3683 0.1829
C13_33 C 0.28612(26) 0.3027(2) 0.28396(5)
H9_33 H 0.2608 0.3155 0.2821
C14_33 C 0.31730(24) 0.25111(17) 0.29959(5)
H10_33 H 0.3136 0.2295 0.3082
C15_33 C 0.51814(24) 0.60119(18) 0.19027(5)
H11_33 H 0.5404 0.6416 0.1912
H12_33 H 0.4997 0.5915 0.1805
H13_33 H 0.4902 0.5864 0.1982
C16_33 C 0.6030(3) 0.4641(2) 0.22598(4)
H14_33 H 0.5725 0.4336 0.2205
H15_33 H 0.6044 0.4990 0.2234
H16_33 H 0.6380 0.4663 0.2232
C17_33 C 0.3569(4) 0.3948(3) 0.17460(6)
H17_33 H 0.3270 0.3733 0.1675
H18_33 H 0.3557 0.3706 0.1827
H19_33 H 0.3524 0.4249 0.1787
C18_33 C 0.7528(3) 0.5194(2) 0.24321(6)
C19_33 C 0.47579(26) 0.34435(18) 0.20490(5)
H20_33 H 0.4811 0.3132 0.2043
C20_33 C 0.1910(4) 0.3084(3) 0.31106(9)
H21_33 H 0.2198 0.3362 0.3169
C21_33 C 0.6310(6) 0.6075(5) 0.26939(7)
H22_33 H 0.6235 0.6282 0.2770
H23_33 H 0.6373 0.6264 0.2597
H24_33 H 0.5991 0.5699 0.2686
C22_33 C 0.1532(6) 0.2263(5) 0.29560(10)
H25_33 H 0.1595 0.1992 0.2910
C23_33 C 0.1361(4) 0.3088(3) 0.30771(8)
H26_33 H 0.1297 0.3360 0.3121
C24_33 C 0.0420(4) 0.2720(3) 0.29635(7)
C25_33 C 0.7639(3) 0.5915(2) 0.23076(6)
H27_33 H 0.7563 0.6174 0.2259
C26_33 C 0.0968(4) 0.2693(3) 0.29820(7)
C27_33 C 0.1948(4) 0.2661(3) 0.30503(8)
C28_33 C 0.7490(4) 0.5840(3) 0.27403(6)
H28_33 H 0.7736 0.5710 0.2713
C29_33 C 0.8075(4) 0.5865(2) 0.22935(8)
H29_33 H 0.8410 0.6143 0.2250
C30_33 C 0.7511(4) 0.6108(3) 0.28700(6)
H30_33 H 0.7766 0.6185 0.2949
C31_33 C 0.5588(3) 0.4153(2) 0.26493(4)
H31_33 H 0.5356 0.3901 0.2723
C32_33 C 0.6061(3) 0.4640(2) 0.26733(4)
H32_33 H 0.6217 0.4788 0.2768
C33_33 C 0.28042(28) 0.2704(2) 0.29705(5)
C34_33 C 0.6830(3) 0.6045(2) 0.27381(5)
C35_33 C 0.72316(27) 0.46272(18) 0.25201(5)
H33_33 H 0.6903 0.4588 0.2571
H34_33 H 0.7121 0.4319 0.2449
H35_33 H 0.7488 0.4621 0.2594
C36_33 C 0.50217(28) 0.4616(2) 0.16184(5)
H36_33 H 0.5413 0.4837 0.1629
C37_33 C 0.58633(27) 0.5163(2) 0.19168(5)
H37_33 H 0.5872 0.4826 0.1919
C38_33 C 0.1006(5) 0.2250(4) 0.29258(8)
H38_33 H 0.0713 0.1958 0.2871
B1_33 B 0.4747(4) 0.4704(2) 0.18994(6)
B2_33 B 0.6825(4) 0.5488(3) 0.24987(5)
O4_33 O 0.99935(28) 0.2284(2) 0.29090(6)
C9_34 C 0.37361(19) 0.23122(19) 0.01725(5)
H6_34 H 0.3909 0.2317 0.0264
C10_34 C 0.32653(19) 0.24760(17) 0.00002(5)
C36_34 C 0.37387(19) 0.2050(2) 0.00482(5)
H36_34 H 0.3909 0.1829 0.0037
Zn1_18 Zn 0.466115(19) 0.32073(2) 0.926551(5)
O1_34 O 0.41395(9) 0.33301(10) 0.91347(3)
O3_34 O 0.48674(12) 0.36853(14) 0.89731(4)
O4_34 O 0.10425(19) 0.4382(2) 0.87576(6)
O5_34 O 0.31581(17) 0.4078(2) 0.85830(5)
N1_34 N 0.38247(12) 0.24434(14) 0.96676(4)
N2_34 N 0.43100(15) 0.29813(14) 0.94746(4)
N3_34 N 0.34837(12) 0.14644(13) 0.97597(4)
N4_34 N 0.47247(14) 0.17719(16) 0.91336(3)
N5_34 N 0.33511(16) 0.05918(15) 0.97438(4)
N6_34 N 0.47483(18) 0.25782(19) 0.91748(3)
N7_17 N 0.6050(3) 0.1390(3) 0.93086(5)
N9_34 N 0.45997(17) 0.08789(18) 0.90133(4)
N10_34 N 0.51410(19) 0.11813(19) 0.92538(4)
N11_34 N 0.34377(13) 0.21567(15) 0.99317(3)
C1_34 C 0.43709(14) 0.35602(15) 0.90087(4)
C2_34 C 0.38596(18) 0.25426(17) 0.95235(5)
C3_34 C 0.40390(14) 0.37096(13) 0.89010(4)
C4_34 C 0.3116(2) 0.0898(2) 0.97503(5)
C5_34 C 0.42905(15) 0.40274(15) 0.87731(4)
H1_34 H 0.4673 0.4159 0.8755
C6_34 C 0.34699(15) 0.35170(15) 0.89267(5)
H2_34 H 0.3295 0.3301 0.9013
C7_34 C 0.47304(18) 0.21304(19) 0.92399(4)
C8_34 C 0.34375(19) 0.21722(18) 0.94092(5)
H3_34 H 0.3122 0.1865 0.9460
H4_34 H 0.3310 0.2387 0.9352
H5_34 H 0.3608 0.2024 0.9341
C11_34 C 0.39709(17) 0.0994(2) 0.97444(5)
H7_34 H 0.4258 0.0904 0.9741
C12_34 C 0.4336(2) 0.29144(19) 0.97342(5)
H8_34 H 0.4423 0.2983 0.9837
C13_34 C 0.31672(16) 0.3639(2) 0.88270(5)
H9_34 H 0.2786 0.3511 0.8845
C14_34 C 0.39952(17) 0.41555(17) 0.86707(5)
H10_34 H 0.4174 0.4371 0.8584
C15_34 C 0.25028(16) 0.06547(18) 0.97639(5)
H11_34 H 0.2321 0.0250 0.9754
H12_34 H 0.2415 0.0751 0.9861
H13_34 H 0.2371 0.0802 0.9684
C16_34 C 0.4722(2) 0.2025(2) 0.94068(4)
H14_34 H 0.4722 0.2330 0.9461
H15_34 H 0.4387 0.1676 0.9432
H16_34 H 0.5050 0.2003 0.9434
C17_34 C 0.2954(3) 0.2718(3) 0.99206(6)
H17_34 H 0.2870 0.2933 0.9991
H18_34 H 0.3184 0.2960 0.9839
H19_34 H 0.2608 0.2417 0.9879
C18_34 C 0.5667(2) 0.1472(2) 0.92345(6)
C19_34 C 0.46477(19) 0.32231(18) 0.96176(5)
H20_34 H 0.5012 0.3534 0.9623
C20_34 C 0.2159(3) 0.3582(3) 0.85560(9)
H21_34 H 0.2169 0.3304 0.8497
C21_34 C 0.3568(3) 0.0591(5) 0.89727(7)
H22_34 H 0.3286 0.0384 0.8896
H23_34 H 0.3442 0.0402 0.9069
H24_34 H 0.3625 0.0967 0.8980
C22_34 C 0.2602(3) 0.4403(5) 0.87106(10)
H25_34 H 0.2936 0.4674 0.8756
C23_34 C 0.1606(2) 0.3578(3) 0.85895(8)
H26_34 H 0.1270 0.3306 0.8545
C24_34 C 0.1033(3) 0.3946(3) 0.87031(7)
C25_34 C 0.5057(2) 0.0751(2) 0.93590(6)
H27_34 H 0.4722 0.0492 0.9407
C26_34 C 0.1608(3) 0.3973(3) 0.86846(7)
C27_34 C 0.2620(3) 0.4005(3) 0.86163(8)
C28_34 C 0.4983(2) 0.0826(3) 0.89263(6)
H28_34 H 0.5359 0.0956 0.8953
C29_34 C 0.5543(3) 0.0801(2) 0.93731(8)
H29_34 H 0.5600 0.0523 0.9416
C30_34 C 0.4736(2) 0.0558(3) 0.87966(6)
H30_34 H 0.4914 0.0481 0.8717
C31_34 C 0.4768(2) 0.2513(2) 0.90173(4)
H31_34 H 0.4788 0.2765 0.8943
C32_34 C 0.4754(2) 0.2026(2) 0.89933(4)
H32_34 H 0.4762 0.1878 0.8898
C33_34 C 0.34332(19) 0.3962(2) 0.86961(5)
C34_34 C 0.4118(2) 0.0621(2) 0.89285(5)
C35_34 C 0.5938(2) 0.20394(18) 0.91465(5)
H33_34 H 0.5648 0.2078 0.9095
H34_34 H 0.6135 0.2347 0.9217
H35_34 H 0.6200 0.2045 0.9072
C37_34 C 0.40333(18) 0.1503(2) 0.97498(5)
H37_34 H 0.4379 0.1840 0.9747
C38_34 C 0.2089(3) 0.4416(4) 0.87408(8)
H38_34 H 0.2088 0.4708 0.8795
B1_34 B 0.3376(3) 0.1962(2) 0.97672(6)
B2_34 B 0.4670(3) 0.1178(3) 0.91679(5)
Zn3_17 Zn 0.67927(2) 0.145381(28) 0.926551(5)
N13_18 N 0.5341(4) 0.3950(3) 0.93086(5)
C9_35 C 0.76878(19) 0.14238(27) 0.01725(5)
H6_35 H 0.7683 0.1591 0.0264
C10_35 C 0.75240(17) 0.07892(25) 0.00002(5)
C36_35 C 0.7950(2) 0.16883(28) 0.00482(5)
H36_35 H 0.8171 0.2079 0.0037
O1_35 O 0.66699(10) 0.08093(13) 0.91347(3)
O3_35 O 0.63147(14) 0.11820(18) 0.89731(4)
N1_35 N 0.75566(14) 0.13812(18) 0.96676(4)
N2_35 N 0.70187(14) 0.13286(21) 0.94746(4)
N3_35 N 0.85356(13) 0.20192(18) 0.97597(4)
N4_35 N 0.82281(16) 0.29527(21) 0.91336(3)
N5_35 N 0.94082(15) 0.27592(22) 0.97438(4)
N6_35 N 0.74218(19) 0.21700(26) 0.91748(3)
N7_18 N 0.8610(3) 0.4659(4) 0.93086(5)
N9_35 N 0.91211(18) 0.37207(25) 0.90133(4)
N10_35 N 0.88187(19) 0.39596(27) 0.92538(4)
N11_35 N 0.78433(15) 0.12809(20) 0.99317(3)
C1_35 C 0.64398(15) 0.08106(21) 0.90087(4)
C2_35 C 0.74574(17) 0.13169(25) 0.95235(5)
C3_35 C 0.62904(13) 0.03293(19) 0.89010(4)
C4_35 C 0.9102(2) 0.2217(3) 0.97503(5)
C5_35 C 0.59726(15) 0.02630(21) 0.87731(4)
H1_35 H 0.5841 0.0513 0.8755
C7_35 C 0.78696(19) 0.25999(26) 0.92399(4)
C8_35 C 0.78278(18) 0.12652(26) 0.94092(5)
H3_35 H 0.8135 0.1256 0.9460
H4_35 H 0.7613 0.0922 0.9352
H5_35 H 0.7976 0.1583 0.9341
C11_35 C 0.9006(2) 0.29765(26) 0.97444(5)
H7_35 H 0.9096 0.3353 0.9741
C12_35 C 0.70856(19) 0.14212(28) 0.97342(5)
H8_35 H 0.7017 0.1439 0.9837
C15_35 C 0.93453(18) 0.18480(24) 0.97639(5)
H11_35 H 0.9750 0.2070 0.9754
H12_35 H 0.9249 0.1663 0.9861
H13_35 H 0.9198 0.1568 0.9684
C16_35 C 0.7975(2) 0.2696(3) 0.94068(4)
H14_35 H 0.7670 0.2391 0.9461
H15_35 H 0.8324 0.2710 0.9432
H16_35 H 0.7997 0.3046 0.9434
C17_35 C 0.7282(3) 0.0235(4) 0.99206(6)
H18_35 H 0.7040 0.0223 0.9839
H19_35 H 0.7583 0.0190 0.9879
C18_35 C 0.8528(2) 0.4194(3) 0.92345(6)
C19_35 C 0.67769(18) 0.14245(26) 0.96176(5)
H20_35 H 0.6466 0.1477 0.9623
C21_35 C 0.9409(5) 0.2976(6) 0.89727(7)
H22_35 H 0.9616 0.2901 0.8896
H23_35 H 0.9598 0.3039 0.9069
H24_35 H 0.9033 0.2657 0.8980
C25_35 C 0.9249(2) 0.4305(3) 0.93590(6)
H27_35 H 0.9508 0.4229 0.9407
C28_35 C 0.9174(3) 0.4156(4) 0.89263(6)
H28_35 H 0.9044 0.4402 0.8953
C29_35 C 0.9199(2) 0.4741(4) 0.93731(8)
H29_35 H 0.9477 0.5076 0.9416
C30_35 C 0.9442(3) 0.4177(4) 0.87966(6)
H30_35 H 0.9519 0.4432 0.8717
C31_35 C 0.7487(2) 0.2254(3) 0.90173(4)
H31_35 H 0.7235 0.2022 0.8943
C32_35 C 0.7974(2) 0.2727(3) 0.89933(4)
H32_35 H 0.8122 0.2883 0.8898
C34_35 C 0.9379(2) 0.3496(3) 0.89285(5)
C35_35 C 0.79606(18) 0.38982(27) 0.91465(5)
H33_35 H 0.7922 0.3569 0.9095
H34_35 H 0.7653 0.3787 0.9217
H35_35 H 0.7955 0.4154 0.9072
C37_35 C 0.8497(2) 0.25299(27) 0.97498(5)
H37_35 H 0.8160 0.2538 0.9747
B1_35 B 0.8038(2) 0.1413(4) 0.97672(6)
B2_35 B 0.8822(3) 0.3491(4) 0.91679(5)
Zn3_18 Zn 0.854619(28) 0.533885(34) 0.926551(5)
O4_35 O 0.5618(2) 0.66601(28) 0.87576(6)
O5_35 O 0.5922(2) 0.90797(26) 0.85830(5)
C6_35 C 0.64830(15) 0.99528(21) 0.89267(5)
H2_35 H 0.6699 0.9993 0.9013
C13_35 C 0.6361(2) 0.95278(26) 0.88270(5)
H9_35 H 0.6489 0.9274 0.8845
C14_35 C 0.58445(17) 0.98396(24) 0.86707(5)
H10_35 H 0.5629 0.9802 0.8584
H17_35 H 0.7067 0.9936 0.9991
C20_35 C 0.6418(3) 0.8576(4) 0.85560(9)
H21_35 H 0.6696 0.8864 0.8497
C22_35 C 0.5597(5) 0.8198(6) 0.87106(10)
H25_35 H 0.5326 0.8261 0.8756
C23_35 C 0.6422(3) 0.8027(4) 0.85895(8)
H26_35 H 0.6694 0.7963 0.8545
C24_35 C 0.6054(3) 0.7086(4) 0.87031(7)
C26_35 C 0.6027(3) 0.7634(4) 0.86846(7)
C27_35 C 0.5995(3) 0.8614(4) 0.86163(8)
C33_35 C 0.6038(2) 0.94708(28) 0.86961(5)
C38_35 C 0.5584(4) 0.7672(5) 0.87408(8)
H38_35 H 0.5292 0.7379 0.8795
O4_36 O 0.33399(28) 0.89575(19) 0.87576(6)
O5_36 O 0.09203(26) 0.68419(17) 0.85830(5)
C6_36 C 0.00472(21) 0.65301(15) 0.89267(5)
H2_36 H 0.0007 0.6705 0.9013
C13_36 C 0.04722(26) 0.68328(16) 0.88270(5)
H9_36 H 0.0726 0.7214 0.8845
C14_36 C 0.01604(24) 0.60048(17) 0.86707(5)
H10_36 H 0.0198 0.5826 0.8584
H17_36 H 0.0064 0.7130 0.9991
C20_36 C 0.1424(4) 0.7841(3) 0.85560(9)
H21_36 H 0.1136 0.7831 0.8497
C22_36 C 0.1802(6) 0.7398(3) 0.87106(10)
H25_36 H 0.1739 0.7064 0.8756
C23_36 C 0.1973(4) 0.8394(2) 0.85895(8)
H26_36 H 0.2037 0.8730 0.8545
C24_36 C 0.2914(4) 0.8967(3) 0.87031(7)
C26_36 C 0.2366(4) 0.8392(3) 0.86846(7)
C27_36 C 0.1386(4) 0.7380(3) 0.86163(8)
C33_36 C 0.05292(28) 0.65668(19) 0.86961(5)
C38_36 C 0.2328(5) 0.7911(3) 0.87408(8)
H38_36 H 0.2621 0.7912 0.8795
C9_36 C 0.85762(27) 0.62639(19) 0.01725(5)
H6_36 H 0.8409 0.6091 0.0264
C10_36 C 0.92108(25) 0.67347(19) 0.00002(5)
C36_36 C 0.83117(28) 0.62613(19) 0.00482(5)
H36_36 H 0.7921 0.6091 0.0037
O1_36 O 0.91907(13) 0.58605(9) 0.91347(3)
O3_36 O 0.88180(18) 0.51326(12) 0.89731(4)
N1_36 N 0.86188(18) 0.61753(12) 0.96676(4)
N2_36 N 0.86714(21) 0.56900(15) 0.94746(4)
N3_36 N 0.79808(18) 0.65163(12) 0.97597(4)
N4_36 N 0.70473(21) 0.52753(14) 0.91336(3)
N5_36 N 0.72408(22) 0.66489(16) 0.97438(4)
N6_36 N 0.78300(26) 0.52517(18) 0.91748(3)
N9_36 N 0.62793(25) 0.54003(17) 0.90133(4)
N10_36 N 0.60404(27) 0.48590(19) 0.92538(4)
N11_36 N 0.87191(20) 0.65623(13) 0.99317(3)
C1_36 C 0.91894(21) 0.56291(14) 0.90087(4)
C2_36 C 0.86831(25) 0.61404(18) 0.95235(5)
C3_36 C 0.96707(19) 0.59610(14) 0.89010(4)
C4_36 C 0.7783(3) 0.6884(2) 0.97503(5)
C5_36 C 0.97370(21) 0.57095(15) 0.87731(4)
H1_36 H 0.9487 0.5327 0.8755
C7_36 C 0.74001(26) 0.52696(18) 0.92399(4)
C8_36 C 0.87348(26) 0.65625(19) 0.94092(5)
H3_36 H 0.8744 0.6878 0.9460
H4_36 H 0.9078 0.6690 0.9352
H5_36 H 0.8417 0.6392 0.9341
C11_36 C 0.70235(26) 0.60291(17) 0.97444(5)
H7_36 H 0.6647 0.5742 0.9741
C12_36 C 0.85788(28) 0.5664(2) 0.97342(5)
H8_36 H 0.8561 0.5577 0.9837
C15_36 C 0.81520(24) 0.74972(16) 0.97639(5)
H11_36 H 0.7930 0.7679 0.9754
H12_36 H 0.8337 0.7585 0.9861
H13_36 H 0.8432 0.7629 0.9684
C16_36 C 0.7304(3) 0.5278(2) 0.94068(4)
H14_36 H 0.7609 0.5278 0.9461
H15_36 H 0.7290 0.5613 0.9432
H16_36 H 0.6954 0.4950 0.9434
C17_36 C 0.9765(4) 0.7046(3) 0.99206(6)
H18_36 H 0.9777 0.6816 0.9839
H19_36 H 0.9810 0.7392 0.9879
C18_36 C 0.5806(3) 0.4333(2) 0.92345(6)
C19_36 C 0.85755(26) 0.53523(19) 0.96176(5)
H20_36 H 0.8523 0.4988 0.9623
C21_36 C 0.7024(6) 0.6432(3) 0.89727(7)
H22_36 H 0.7099 0.6714 0.8896
H23_36 H 0.6961 0.6558 0.9069
H24_36 H 0.7343 0.6375 0.8980
C25_36 C 0.5695(3) 0.4943(2) 0.93590(6)
H27_36 H 0.5771 0.5278 0.9407
C28_36 C 0.5844(4) 0.5017(2) 0.89263(6)
H28_36 H 0.5598 0.4641 0.8953
C29_36 C 0.5259(4) 0.4457(3) 0.93731(8)
H29_36 H 0.4924 0.4400 0.9416
C30_36 C 0.5823(4) 0.5264(2) 0.87966(6)
H30_36 H 0.5568 0.5086 0.8717
C31_36 C 0.7746(3) 0.5232(2) 0.90173(4)
H31_36 H 0.7978 0.5212 0.8943
C32_36 C 0.7273(3) 0.5246(2) 0.89933(4)
H32_36 H 0.7117 0.5238 0.8898
C34_36 C 0.6504(3) 0.5882(2) 0.89285(5)
C35_36 C 0.61018(27) 0.4062(2) 0.91465(5)
H33_36 H 0.6431 0.4352 0.9095
H34_36 H 0.6213 0.3865 0.9217
H35_36 H 0.5846 0.3800 0.9072
C37_36 C 0.74701(27) 0.59667(18) 0.97498(5)
H37_36 H 0.7462 0.5621 0.9747
B1_36 B 0.8587(4) 0.6624(3) 0.97672(6)
B2_36 B 0.6509(4) 0.5330(3) 0.91679(5)
loop_
_geom_bond_atom_site_label_1
_geom_bond_atom_site_label_2
_geom_bond_site_symmetry_1
_geom_bond_site_symmetry_2
Zn1 O1 1_555 1_555
Zn2 N5 1_555 1_555
N1 C2 1_555 1_555
N2 Zn1 1_555 1_555
N3 C4 1_555 1_555
N4 C7 1_555 1_555
N5 C4 1_555 1_555
N6 Zn1 1_555 1_555
N7 C18 1_555 1_555
N8 C30 1_555 1_555
N9 C28 1_555 1_555
N10 C18 1_555 1_555
N11 C10 1_555 1_555
N12 C9 1_555 1_555
C2 N2 1_555 1_555
C4 C15 1_555 1_555
C7 N6 1_555 1_555
C8 C2 1_555 1_555
H3 C8 1_555 1_555
H4 C8 1_555 1_555
H5 C8 1_555 1_555
C9 H6 1_555 1_555
C10 N12 1_555 1_555
C11 N5 1_555 1_555
H7 C11 1_555 1_555
C12 N1 1_555 1_555
H8 C12 1_555 1_555
C15 H11 1_555 1_555
H12 C15 1_555 1_555
H13 C15 1_555 1_555
C16 C7 1_555 1_555
H14 C16 1_555 1_555
H15 C16 1_555 1_555
H16 C16 1_555 1_555
C17 C10 1_555 1_555
H17 C17 1_555 1_555
H18 C17 1_555 1_555
H19 C17 1_555 1_555
C18 C35 1_555 1_555
C19 N2 1_555 1_555
C21 H22 1_555 1_555
H23 C21 1_555 1_555
H24 C21 1_555 1_555
C25 N10 1_555 1_555
H27 C25 1_555 1_555
C28 H28 1_555 1_555
C29 N7 1_555 1_555
H29 C29 1_555 1_555
C30 C28 1_555 1_555
H30 C30 1_555 1_555
C31 N6 1_555 1_555
H31 C31 1_555 1_555
C32 N4 1_555 1_555
H32 C32 1_555 1_555
C34 N8 1_555 1_555
C35 H33 1_555 1_555
H34 C35 1_555 1_555
H35 C35 1_555 1_555
C36 N11 1_555 1_555
H36 C36 1_555 1_555
C37 N3 1_555 1_555
H37 C37 1_555 1_555
B1 N1 1_555 1_555
B2 N4 1_555 1_555
Zn5 N8 1_555 1_555
Zn6 N12 1_555 1_555
O6 Zn2 1_555 1_555
N14 Zn2 1_555 1_555
N15 Zn2 1_555 1_555
N3 B1 1_555 1_555
N9 C34 1_555 1_555
N9 B2 1_555 1_555
N10 B2 1_555 1_555
N11 B1 1_555 1_555
C9 C36 1_555 1_555
C11 C37 1_555 1_555
C12 C19 1_555 1_555
C21 C34 1_555 1_555
C25 C29 1_555 1_555
C31 C32 1_555 1_555
O2 C24 1_555 1_555
O3 C1 1_555 1_555
O4 C24 1_555 1_555
O5 C27 1_555 1_555
C1 C3 1_555 1_555
C3 C5 1_555 1_555
C5 H1 1_555 1_555
C6 C3 1_555 1_555
C13 C6 1_555 1_555
H9 C13 1_555 1_555
C14 C5 1_555 1_555
H10 C14 1_555 1_555
C22 H25 1_555 1_555
C23 C20 1_555 1_555
C24 C26 1_555 1_555
C26 C23 1_555 1_555
C27 C20 1_555 1_555
C33 O5 1_555 1_555
C38 C22 1_555 1_555
H38 C38 1_555 1_555
Zn4 O2 1_555 1_555
C13 C33 1_555 1_555
C14 C33 1_555 1_555
C22 C27 1_555 1_555
C26 C38 1_555 1_555
N13 C18_2 1_555 1_555
N8_2 C30_2 1_555 1_555
N9_2 C28_2 1_555 1_555
N10_2 C18_2 1_555 1_555
C18_2 C35_2 1_555 1_555
C25_2 N10_2 1_555 1_555
H27_2 C25_2 1_555 1_555
C28_2 H28_2 1_555 1_555
C29_2 N13 1_555 1_555
H29_2 C29_2 1_555 1_555
C30_2 C28_2 1_555 1_555
H30_2 C30_2 1_555 1_555
C34_2 N8_2 1_555 1_555
C35_2 H33_2 1_555 1_555
H34_2 C35_2 1_555 1_555
H35_2 C35_2 1_555 1_555
Zn5_2 N8_2 1_555 1_555
N9_2 C34_2 1_555 1_555
N9_2 B2_2 1_555 1_555
N10_2 B2_2 1_555 1_555
C25_2 C29_2 1_555 1_555
Zn1_2 O1_2 1_555 1_555
Zn2_2 N5_2 1_555 1_555
O1_2 C1_2 1_555 1_555
O2_2 C24_2 1_555 1_555
O3_2 C1_2 1_555 1_555
O4_2 C24_2 1_555 1_555
O5_2 C27_2 1_555 1_555
N1_2 C2_2 1_555 1_555
N2_2 Zn1_2 1_555 1_555
N3_2 C4_2 1_555 1_555
N4_2 C7_2 1_555 1_555
N5_2 C4_2 1_555 1_555
N6_2 Zn1_2 1_555 1_555
N11_2 C10_2 1_555 1_555
N12_2 C9_2 1_555 1_555
C1_2 C3_2 1_555 1_555
C2_2 N2_2 1_555 1_555
C3_2 C5_2 1_555 1_555
C4_2 C15_2 1_555 1_555
C5_2 H1_2 1_555 1_555
C6_2 C3_2 1_555 1_555
H2_2 C6_2 1_555 1_555
C7_2 N6_2 1_555 1_555
C8_2 C2_2 1_555 1_555
H3_2 C8_2 1_555 1_555
H4_2 C8_2 1_555 1_555
H5_2 C8_2 1_555 1_555
C9_2 H6_2 1_555 1_555
C10_2 N12_2 1_555 1_555
C11_2 N5_2 1_555 1_555
C12_2 N1_2 1_555 1_555
H8_2 C12_2 1_555 1_555
C13_2 C6_2 1_555 1_555
H9_2 C13_2 1_555 1_555
C14_2 C5_2 1_555 1_555
H10_2 C14_2 1_555 1_555
C15_2 H11_2 1_555 1_555
H12_2 C15_2 1_555 1_555
H13_2 C15_2 1_555 1_555
C16_2 C7_2 1_555 1_555
H14_2 C16_2 1_555 1_555
H15_2 C16_2 1_555 1_555
H16_2 C16_2 1_555 1_555
C17_2 C10_2 1_555 1_555
H17_2 C17_2 1_555 1_555
H18_2 C17_2 1_555 1_555
H19_2 C17_2 1_555 1_555
C19_2 N2_2 1_555 1_555
H20_2 C19_2 1_555 1_555
C20_2 H21_2 1_555 1_555
C21_2 H22_2 1_555 1_555
H23_2 C21_2 1_555 1_555
H24_2 C21_2 1_555 1_555
C22_2 H25_2 1_555 1_555
C23_2 C20_2 1_555 1_555
H26_2 C23_2 1_555 1_555
C24_2 C26_2 1_555 1_555
C26_2 C23_2 1_555 1_555
C27_2 C20_2 1_555 1_555
C31_2 N6_2 1_555 1_555
H31_2 C31_2 1_555 1_555
C32_2 N4_2 1_555 1_555
H32_2 C32_2 1_555 1_555
C33_2 O5_2 1_555 1_555
C36_2 N11_2 1_555 1_555
H36_2 C36_2 1_555 1_555
C37_2 N3_2 1_555 1_555
H37_2 C37_2 1_555 1_555
C38_2 C22_2 1_555 1_555
H38_2 C38_2 1_555 1_555
B1_2 N1_2 1_555 1_555
Zn5 O2_2 1_555 1_555
Zn6_2 N12_2 1_555 1_555
N13_2 Zn1_2 1_555 1_555
N14_2 Zn2_2 1_555 1_555
N3_2 B1_2 1_555 1_555
N11_2 B1_2 1_555 1_555
C9_2 C36_2 1_555 1_555
C11_2 C37_2 1_555 1_555
C12_2 C19_2 1_555 1_555
C13_2 C33_2 1_555 1_555
C14_2 C33_2 1_555 1_555
C22_2 C27_2 1_555 1_555
C26_2 C38_2 1_555 1_555
C31_2 C32_2 1_555 1_555
O2_3 C24_3 1_555 1_555
O3_3 C1_3 1_555 1_555
O4_3 C24_3 1_555 1_555
O5_3 C27_3 1_555 1_555
C1_3 C3_3 1_555 1_555
C3_3 C5_3 1_555 1_555
C5_3 H1_3 1_555 1_555
C6_3 C3_3 1_555 1_555
C13_3 C6_3 1_555 1_555
H9_3 C13_3 1_555 1_555
C14_3 C5_3 1_555 1_555
H10_3 C14_3 1_555 1_555
C22_3 H25_3 1_555 1_555
C23_3 C20_3 1_555 1_555
C24_3 C26_3 1_555 1_555
C26_3 C23_3 1_555 1_555
C27_3 C20_3 1_555 1_555
C33_3 O5_3 1_555 1_555
C38_3 C22_3 1_555 1_555
H38_3 C38_3 1_555 1_555
Zn5_2 O2_3 1_555 1_555
C13_3 C33_3 1_555 1_555
C14_3 C33_3 1_555 1_555
C22_3 C27_3 1_555 1_555
C26_3 C38_3 1_555 1_555
Zn3 O1_3 1_555 1_555
Zn2_3 N5_3 1_555 1_555
N1_3 C2_3 1_555 1_555
N2_3 Zn3 1_555 1_555
N3_3 C4_3 1_555 1_555
N4_3 C7_3 1_555 1_555
N5_3 C4_3 1_555 1_555
N6_3 Zn3 1_555 1_555
N11_3 C10_3 1_555 1_555
N12_3 C9_3 1_555 1_555
C2_3 N2_3 1_555 1_555
C4_3 C15_3 1_555 1_555
C7_3 N6_3 1_555 1_555
C8_3 C2_3 1_555 1_555
H3_3 C8_3 1_555 1_555
H4_3 C8_3 1_555 1_555
H5_3 C8_3 1_555 1_555
C9_3 H6_3 1_555 1_555
C10_3 N12_3 1_555 1_555
C11_3 N5_3 1_555 1_555
C12_3 N1_3 1_555 1_555
H8_3 C12_3 1_555 1_555
C15_3 H11_3 1_555 1_555
H12_3 C15_3 1_555 1_555
H13_3 C15_3 1_555 1_555
C16_3 C7_3 1_555 1_555
H14_3 C16_3 1_555 1_555
H15_3 C16_3 1_555 1_555
H16_3 C16_3 1_555 1_555
C17_3 C10_3 1_555 1_555
H17_3 C17_3 1_555 1_555
H18_3 C17_3 1_555 1_555
H19_3 C17_3 1_555 1_555
C19_3 N2_3 1_555 1_555
C21_3 H22_3 1_555 1_555
H23_3 C21_3 1_555 1_555
H24_3 C21_3 1_555 1_555
C31_3 N6_3 1_555 1_555
H31_3 C31_3 1_555 1_555
C32_3 N4_3 1_555 1_555
H32_3 C32_3 1_555 1_555
C36_3 N11_3 1_555 1_555
H36_3 C36_3 1_555 1_555
C37_3 N3_3 1_555 1_555
H37_3 C37_3 1_555 1_555
B1_3 N1_3 1_555 1_555
Zn6_3 N12_3 1_555 1_555
N14_3 Zn2_3 1_555 1_555
N3_3 B1_3 1_555 1_555
N11_3 B1_3 1_555 1_555
C9_3 C36_3 1_555 1_555
C11_3 C37_3 1_555 1_555
C12_3 C19_3 1_555 1_555
C31_3 C32_3 1_555 1_555
N13_2 C18_3 1_555 1_555
N8_3 C30_3 1_555 1_555
N9_3 C28_3 1_555 1_555
N10_3 C18_3 1_555 1_555
C18_3 C35_3 1_555 1_555
C25_3 N10_3 1_555 1_555
H27_3 C25_3 1_555 1_555
C28_3 H28_3 1_555 1_555
C29_3 N13_2 1_555 1_555
H29_3 C29_3 1_555 1_555
C30_3 C28_3 1_555 1_555
H30_3 C30_3 1_555 1_555
C34_3 N8_3 1_555 1_555
C35_3 H33_3 1_555 1_555
H34_3 C35_3 1_555 1_555
H35_3 C35_3 1_555 1_555
Zn4 N8_3 1_555 1_555
N9_3 C34_3 1_555 1_555
N9_3 B2_3 1_555 1_555
N10_3 B2_3 1_555 1_555
C25_3 C29_3 1_555 1_555
Zn1_3 O1_4 1_555 1_555
Zn2_4 N5_4 1_555 1_555
N1_4 C2_4 1_555 1_555
N2_4 Zn1_3 1_555 1_555
N3_4 C4_4 1_555 1_555
N4_4 C7_4 1_555 1_555
N5_4 C4_4 1_555 1_555
N6_4 Zn1_3 1_555 1_555
N7_2 C18_4 1_555 1_555
N8_4 C30_4 1_555 1_555
N9_4 C28_4 1_555 1_555
N10_4 C18_4 1_555 1_555
N11_4 C10_4 1_555 1_555
N12_4 C9_4 1_555 1_555
C2_4 N2_4 1_555 1_555
C4_4 C15_4 1_555 1_555
C7_4 N6_4 1_555 1_555
C8_4 C2_4 1_555 1_555
H3_4 C8_4 1_555 1_555
H4_4 C8_4 1_555 1_555
H5_4 C8_4 1_555 1_555
C9_4 H6_4 1_555 1_555
C10_4 N12_4 1_555 1_555
C11_4 N5_4 1_555 1_555
H7_4 C11_4 1_555 1_555
C12_4 N1_4 1_555 1_555
H8_4 C12_4 1_555 1_555
C15_4 H11_4 1_555 1_555
H12_4 C15_4 1_555 1_555
H13_4 C15_4 1_555 1_555
C16_4 C7_4 1_555 1_555
H14_4 C16_4 1_555 1_555
H15_4 C16_4 1_555 1_555
H16_4 C16_4 1_555 1_555
C17_4 C10_4 1_555 1_555
H17_4 C17_4 1_555 1_555
H18_4 C17_4 1_555 1_555
H19_4 C17_4 1_555 1_555
C18_4 C35_4 1_555 1_555
C19_4 N2_4 1_555 1_555
C21_4 H22_4 1_555 1_555
H23_4 C21_4 1_555 1_555
H24_4 C21_4 1_555 1_555
C25_4 N10_4 1_555 1_555
H27_4 C25_4 1_555 1_555
C28_4 H28_4 1_555 1_555
C29_4 N7_2 1_555 1_555
H29_4 C29_4 1_555 1_555
C30_4 C28_4 1_555 1_555
H30_4 C30_4 1_555 1_555
C31_4 N6_4 1_555 1_555
H31_4 C31_4 1_555 1_555
C32_4 N4_4 1_555 1_555
H32_4 C32_4 1_555 1_555
C34_4 N8_4 1_555 1_555
C35_4 H33_4 1_555 1_555
H34_4 C35_4 1_555 1_555
H35_4 C35_4 1_555 1_555
C36_4 N11_4 1_555 1_555
H36_4 C36_4 1_555 1_555
C37_4 N3_4 1_555 1_555
H37_4 C37_4 1_555 1_555
B1_4 N1_4 1_555 1_555
B2_4 N4_4 1_555 1_555
Zn5_3 N8_4 1_555 1_555
Zn6_4 N12_4 1_555 1_555
O6_4 Zn2_4 1_555 1_555
N14_4 Zn2_4 1_555 1_555
N15_4 Zn2_4 1_555 1_555
N3_4 B1_4 1_555 1_555
N9_4 C34_4 1_555 1_555
N9_4 B2_4 1_555 1_555
N10_4 B2_4 1_555 1_555
N11_4 B1_4 1_555 1_555
C9_4 C36_4 1_555 1_555
C11_4 C37_4 1_555 1_555
C12_4 C19_4 1_555 1_555
C21_4 C34_4 1_555 1_555
C25_4 C29_4 1_555 1_555
C31_4 C32_4 1_555 1_555
O2_4 C24_4 1_555 1_555
O3_4 C1_4 1_555 1_555
O4_4 C24_4 1_555 1_555
O5_4 C27_4 1_555 1_555
C1_4 C3_4 1_555 1_555
C3_4 C5_4 1_555 1_555
C5_4 H1_4 1_555 1_555
C6_4 C3_4 1_555 1_555
C13_4 C6_4 1_555 1_555
H9_4 C13_4 1_555 1_555
C14_4 C5_4 1_555 1_555
H10_4 C14_4 1_555 1_555
C22_4 H25_4 1_555 1_555
C23_4 C20_4 1_555 1_555
C24_4 C26_4 1_555 1_555
C26_4 C23_4 1_555 1_555
C27_4 C20_4 1_555 1_555
C33_4 O5_4 1_555 1_555
C38_4 C22_4 1_555 1_555
H38_4 C38_4 1_555 1_555
Zn4_2 O2_4 1_555 1_555
C13_4 C33_4 1_555 1_555
C14_4 C33_4 1_555 1_555
C22_4 C27_4 1_555 1_555
C26_4 C38_4 1_555 1_555
O2_5 C24_5 1_555 1_555
O3_5 C1_5 1_555 1_555
O4_5 C24_5 1_555 1_555
O5_5 C27_5 1_555 1_555
C1_5 C3_5 1_555 1_555
C3_5 C5_5 1_555 1_555
C5_5 H1_5 1_555 1_555
C6_5 C3_5 1_555 1_555
C13_5 C6_5 1_555 1_555
H9_5 C13_5 1_555 1_555
C14_5 C5_5 1_555 1_555
H10_5 C14_5 1_555 1_555
C22_5 H25_5 1_555 1_555
C23_5 C20_5 1_555 1_555
C24_5 C26_5 1_555 1_555
C26_5 C23_5 1_555 1_555
C27_5 C20_5 1_555 1_555
C33_5 O5_5 1_555 1_555
C38_5 C22_5 1_555 1_555
H38_5 C38_5 1_555 1_555
Zn4_3 O2_5 1_555 1_555
C13_5 C33_5 1_555 1_555
C14_5 C33_5 1_555 1_555
C22_5 C27_5 1_555 1_555
C26_5 C38_5 1_555 1_555
Zn3_2 O1_5 1_555 1_555
Zn2_5 N5_5 1_555 1_555
N1_5 C2_5 1_555 1_555
N2_5 Zn3_2 1_555 1_555
N3_5 C4_5 1_555 1_555
N4_5 C7_5 1_555 1_555
N5_5 C4_5 1_555 1_555
N6_5 Zn3_2 1_555 1_555
N11_5 C10_5 1_555 1_555
N12_5 C9_5 1_555 1_555
C2_5 N2_5 1_555 1_555
C4_5 C15_5 1_555 1_555
C7_5 N6_5 1_555 1_555
C8_5 C2_5 1_555 1_555
H3_5 C8_5 1_555 1_555
H4_5 C8_5 1_555 1_555
H5_5 C8_5 1_555 1_555
C9_5 H6_5 1_555 1_555
C10_5 N12_5 1_555 1_555
C11_5 N5_5 1_555 1_555
C12_5 N1_5 1_555 1_555
H8_5 C12_5 1_555 1_555
C15_5 H11_5 1_555 1_555
H12_5 C15_5 1_555 1_555
H13_5 C15_5 1_555 1_555
C16_5 C7_5 1_555 1_555
H14_5 C16_5 1_555 1_555
H15_5 C16_5 1_555 1_555
H16_5 C16_5 1_555 1_555
C17_5 C10_5 1_555 1_555
H17_5 C17_5 1_555 1_555
H18_5 C17_5 1_555 1_555
H19_5 C17_5 1_555 1_555
C19_5 N2_5 1_555 1_555
C21_5 H22_5 1_555 1_555
H23_5 C21_5 1_555 1_555
H24_5 C21_5 1_555 1_555
C31_5 N6_5 1_555 1_555
H31_5 C31_5 1_555 1_555
C32_5 N4_5 1_555 1_555
H32_5 C32_5 1_555 1_555
C36_5 N11_5 1_555 1_555
H36_5 C36_5 1_555 1_555
C37_5 N3_5 1_555 1_555
H37_5 C37_5 1_555 1_555
B1_5 N1_5 1_555 1_555
Zn6_5 N12_5 1_555 1_555
N14_5 Zn2_5 1_555 1_555
N3_5 B1_5 1_555 1_555
N11_5 B1_5 1_555 1_555
C9_5 C36_5 1_555 1_555
C11_5 C37_5 1_555 1_555
C12_5 C19_5 1_555 1_555
C31_5 C32_5 1_555 1_555
N7_3 C18_5 1_555 1_555
N8_5 C30_5 1_555 1_555
N9_5 C28_5 1_555 1_555
N10_5 C18_5 1_555 1_555
C18_5 C35_5 1_555 1_555
C25_5 N10_5 1_555 1_555
H27_5 C25_5 1_555 1_555
C28_5 H28_5 1_555 1_555
C29_5 N7_3 1_555 1_555
H29_5 C29_5 1_555 1_555
C30_5 C28_5 1_555 1_555
H30_5 C30_5 1_555 1_555
C34_5 N8_5 1_555 1_555
C35_5 H33_5 1_555 1_555
H34_5 C35_5 1_555 1_555
H35_5 C35_5 1_555 1_555
Zn3_3 N7_3 1_555 1_555
Zn4_2 N8_5 1_555 1_555
N9_5 C34_5 1_555 1_555
N9_5 B2_5 1_555 1_555
N10_5 B2_5 1_555 1_555
C25_5 C29_5 1_555 1_555
N13_3 C18_6 1_555 1_555
N8_6 C30_6 1_555 1_555
N9_6 C28_6 1_555 1_555
N10_6 C18_6 1_555 1_555
C18_6 C35_6 1_555 1_555
C25_6 N10_6 1_555 1_555
H27_6 C25_6 1_555 1_555
C28_6 H28_6 1_555 1_555
C29_6 N13_3 1_555 1_555
H29_6 C29_6 1_555 1_555
C30_6 C28_6 1_555 1_555
H30_6 C30_6 1_555 1_555
C34_6 N8_6 1_555 1_555
C35_6 H33_6 1_555 1_555
H34_6 C35_6 1_555 1_555
H35_6 C35_6 1_555 1_555
Zn4_3 N8_6 1_555 1_555
N9_6 C34_6 1_555 1_555
N9_6 B2_6 1_555 1_555
N10_6 B2_6 1_555 1_555
C25_6 C29_6 1_555 1_555
Zn3_3 O1_6 1_555 1_555
Zn2_6 N5_6 1_555 1_555
O1_6 C1_6 1_555 1_555
O2_6 C24_6 1_555 1_555
O3_6 C1_6 1_555 1_555
O4_6 C24_6 1_555 1_555
O5_6 C27_6 1_555 1_555
N1_6 C2_6 1_555 1_555
N2_6 Zn3_3 1_555 1_555
N3_6 C4_6 1_555 1_555
N4_6 C7_6 1_555 1_555
N5_6 C4_6 1_555 1_555
N6_6 Zn3_3 1_555 1_555
N11_6 C10_6 1_555 1_555
N12_6 C9_6 1_555 1_555
C1_6 C3_6 1_555 1_555
C2_6 N2_6 1_555 1_555
C3_6 C5_6 1_555 1_555
C4_6 C15_6 1_555 1_555
C5_6 H1_6 1_555 1_555
C6_6 C3_6 1_555 1_555
H2_6 C6_6 1_555 1_555
C7_6 N6_6 1_555 1_555
C8_6 C2_6 1_555 1_555
H3_6 C8_6 1_555 1_555
H4_6 C8_6 1_555 1_555
H5_6 C8_6 1_555 1_555
C9_6 H6_6 1_555 1_555
C10_6 N12_6 1_555 1_555
C11_6 N5_6 1_555 1_555
C12_6 N1_6 1_555 1_555
H8_6 C12_6 1_555 1_555
C13_6 C6_6 1_555 1_555
H9_6 C13_6 1_555 1_555
C14_6 C5_6 1_555 1_555
H10_6 C14_6 1_555 1_555
C15_6 H11_6 1_555 1_555
H12_6 C15_6 1_555 1_555
H13_6 C15_6 1_555 1_555
C16_6 C7_6 1_555 1_555
H14_6 C16_6 1_555 1_555
H15_6 C16_6 1_555 1_555
H16_6 C16_6 1_555 1_555
C17_6 C10_6 1_555 1_555
H17_6 C17_6 1_555 1_555
H18_6 C17_6 1_555 1_555
H19_6 C17_6 1_555 1_555
C19_6 N2_6 1_555 1_555
H20_6 C19_6 1_555 1_555
C20_6 H21_6 1_555 1_555
C21_6 H22_6 1_555 1_555
H23_6 C21_6 1_555 1_555
H24_6 C21_6 1_555 1_555
C22_6 H25_6 1_555 1_555
C23_6 C20_6 1_555 1_555
H26_6 C23_6 1_555 1_555
C24_6 C26_6 1_555 1_555
C26_6 C23_6 1_555 1_555
C27_6 C20_6 1_555 1_555
C31_6 N6_6 1_555 1_555
H31_6 C31_6 1_555 1_555
C32_6 N4_6 1_555 1_555
H32_6 C32_6 1_555 1_555
C33_6 O5_6 1_555 1_555
C36_6 N11_6 1_555 1_555
H36_6 C36_6 1_555 1_555
C37_6 N3_6 1_555 1_555
H37_6 C37_6 1_555 1_555
C38_6 C22_6 1_555 1_555
H38_6 C38_6 1_555 1_555
B1_6 N1_6 1_555 1_555
Zn5_3 O2_6 1_555 1_555
Zn6_6 N12_6 1_555 1_555
N14_6 Zn2_6 1_555 1_555
N3_6 B1_6 1_555 1_555
N11_6 B1_6 1_555 1_555
C9_6 C36_6 1_555 1_555
C11_6 C37_6 1_555 1_555
C12_6 C19_6 1_555 1_555
C13_6 C33_6 1_555 1_555
C14_6 C33_6 1_555 1_555
C22_6 C27_6 1_555 1_555
C26_6 C38_6 1_555 1_555
C31_6 C32_6 1_555 1_555
N15_7 Zn4_3 1_555 1_555
Zn1_4 O1_7 1_555 1_555
O1_7 C1_7 1_555 1_555
O6_5 C24_7 1_555 1_555
O3_7 C1_7 1_555 1_555
O4_7 C24_7 1_555 1_555
O5_7 C27_7 1_555 1_555
N1_7 C2_7 1_555 1_555
N2_7 Zn1_4 1_555 1_555
N3_7 C4_7 1_555 1_555
N4_7 C7_7 1_555 1_555
N5_7 C4_7 1_555 1_555
N6_7 Zn1_4 1_555 1_555
N7_4 C18_7 1_555 1_555
N14_6 C30_7 1_555 1_555
N9_7 C28_7 1_555 1_555
N10_7 C18_7 1_555 1_555
N11_7 C10_7 1_555 1_555
N12_7 C9_7 1_555 1_555
C1_7 C3_7 1_555 1_555
C2_7 N2_7 1_555 1_555
C3_7 C5_7 1_555 1_555
C4_7 C15_7 1_555 1_555
C5_7 H1_7 1_555 1_555
C6_7 C3_7 1_555 1_555
H2_7 C6_7 1_555 1_555
C7_7 N6_7 1_555 1_555
C8_7 C2_7 1_555 1_555
H3_7 C8_7 1_555 1_555
H4_7 C8_7 1_555 1_555
H5_7 C8_7 1_555 1_555
C9_7 H6_7 1_555 1_555
C10_7 N12_7 1_555 1_555
C11_7 N5_7 1_555 1_555
H7_7 C11_7 1_555 1_555
C12_7 N1_7 1_555 1_555
H8_7 C12_7 1_555 1_555
C13_7 C6_7 1_555 1_555
H9_7 C13_7 1_555 1_555
C14_7 C5_7 1_555 1_555
H10_7 C14_7 1_555 1_555
C15_7 H11_7 1_555 1_555
H12_7 C15_7 1_555 1_555
H13_7 C15_7 1_555 1_555
C16_7 C7_7 1_555 1_555
H14_7 C16_7 1_555 1_555
H15_7 C16_7 1_555 1_555
H16_7 C16_7 1_555 1_555
C17_7 C10_7 1_555 1_555
H17_7 C17_7 1_555 1_555
H18_7 C17_7 1_555 1_555
H19_7 C17_7 1_555 1_555
C18_7 C35_7 1_555 1_555
C19_7 N2_7 1_555 1_555
H20_7 C19_7 1_555 1_555
C20_7 H21_7 1_555 1_555
C21_7 H22_7 1_555 1_555
H23_7 C21_7 1_555 1_555
H24_7 C21_7 1_555 1_555
C22_7 H25_7 1_555 1_555
C23_7 C20_7 1_555 1_555
H26_7 C23_7 1_555 1_555
C24_7 C26_7 1_555 1_555
C25_7 N10_7 1_555 1_555
H27_7 C25_7 1_555 1_555
C26_7 C23_7 1_555 1_555
C27_7 C20_7 1_555 1_555
C28_7 H28_7 1_555 1_555
C29_7 N7_4 1_555 1_555
H29_7 C29_7 1_555 1_555
C30_7 C28_7 1_555 1_555
H30_7 C30_7 1_555 1_555
C31_7 N6_7 1_555 1_555
H31_7 C31_7 1_555 1_555
C32_7 N4_7 1_555 1_555
H32_7 C32_7 1_555 1_555
C33_7 O5_7 1_555 1_555
C34_7 N14_6 1_555 1_555
C35_7 H33_7 1_555 1_555
H34_7 C35_7 1_555 1_555
H35_7 C35_7 1_555 1_555
C36_7 N11_7 1_555 1_555
H36_7 C36_7 1_555 1_555
C37_7 N3_7 1_555 1_555
H37_7 C37_7 1_555 1_555
C38_7 C22_7 1_555 1_555
H38_7 C38_7 1_555 1_555
B1_7 N1_7 1_555 1_555
B2_7 N4_7 1_555 1_555
Zn3_4 N7_4 1_555 1_555
Zn6_7 N12_7 1_555 1_555
N13_4 Zn1_4 1_555 1_555
N3_7 B1_7 1_555 1_555
N9_7 C34_7 1_555 1_555
N9_7 B2_7 1_555 1_555
N10_7 B2_7 1_555 1_555
N11_7 B1_7 1_555 1_555
C9_7 C36_7 1_555 1_555
C11_7 C37_7 1_555 1_555
C12_7 C19_7 1_555 1_555
C13_7 C33_7 1_555 1_555
C14_7 C33_7 1_555 1_555
C21_7 C34_7 1_555 1_555
C22_7 C27_7 1_555 1_555
C25_7 C29_7 1_555 1_555
C26_7 C38_7 1_555 1_555
C31_7 C32_7 1_555 1_555
Zn1_5 O1_8 1_555 1_555
Zn5_3 N5_8 1_555 1_555
O1_8 C1_8 1_555 1_555
O3_8 C1_8 1_555 1_555
N1_8 C2_8 1_555 1_555
N2_8 Zn1_5 1_555 1_555
N3_8 C4_8 1_555 1_555
N4_8 C7_8 1_555 1_555
N5_8 C4_8 1_555 1_555
N6_8 Zn1_5 1_555 1_555
N13_4 C18_8 1_555 1_555
N14_4 C30_8 1_555 1_555
N9_8 C28_8 1_555 1_555
N10_8 C18_8 1_555 1_555
N11_8 C10_8 1_555 1_555
N12_8 C9_8 1_555 1_555
C1_8 C3_8 1_555 1_555
C2_8 N2_8 1_555 1_555
C3_8 C5_8 1_555 1_555
C4_8 C15_8 1_555 1_555
C5_8 H1_8 1_555 1_555
C7_8 N6_8 1_555 1_555
C8_8 C2_8 1_555 1_555
H3_8 C8_8 1_555 1_555
H4_8 C8_8 1_555 1_555
H5_8 C8_8 1_555 1_555
C9_8 H6_8 1_555 1_555
C10_8 N12_8 1_555 1_555
C11_8 N5_8 1_555 1_555
H7_8 C11_8 1_555 1_555
C12_8 N1_8 1_555 1_555
H8_8 C12_8 1_555 1_555
C15_8 H11_8 1_555 1_555
H12_8 C15_8 1_555 1_555
H13_8 C15_8 1_555 1_555
C16_8 C7_8 1_555 1_555
H14_8 C16_8 1_555 1_555
H15_8 C16_8 1_555 1_555
H16_8 C16_8 1_555 1_555
C17_8 C10_8 1_555 1_555
H18_8 C17_8 1_555 1_555
H19_8 C17_8 1_555 1_555
C18_8 C35_8 1_555 1_555
C19_8 N2_8 1_555 1_555
H20_8 C19_8 1_555 1_555
C21_8 H22_8 1_555 1_555
H23_8 C21_8 1_555 1_555
H24_8 C21_8 1_555 1_555
C25_8 N10_8 1_555 1_555
H27_8 C25_8 1_555 1_555
C28_8 H28_8 1_555 1_555
C29_8 N13_4 1_555 1_555
H29_8 C29_8 1_555 1_555
C30_8 C28_8 1_555 1_555
H30_8 C30_8 1_555 1_555
C31_8 N6_8 1_555 1_555
H31_8 C31_8 1_555 1_555
C32_8 N4_8 1_555 1_555
H32_8 C32_8 1_555 1_555
C34_8 N14_4 1_555 1_555
C35_8 H33_8 1_555 1_555
H34_8 C35_8 1_555 1_555
H35_8 C35_8 1_555 1_555
C36_8 N11_8 1_555 1_555
H36_8 C36_8 1_555 1_555
C37_8 N3_8 1_555 1_555
H37_8 C37_8 1_555 1_555
B1_8 N1_8 1_555 1_555
B2_8 N4_8 1_555 1_555
Zn6_8 N12_8 1_555 1_555
N13_5 Zn1_5 1_555 1_555
N15_8 Zn5_3 1_555 1_555
N3_8 B1_8 1_555 1_555
N9_8 C34_8 1_555 1_555
N9_8 B2_8 1_555 1_555
N10_8 B2_8 1_555 1_555
N11_8 B1_8 1_555 1_555
C9_8 C36_8 1_555 1_555
C11_8 C37_8 1_555 1_555
C12_8 C19_8 1_555 1_555
C21_8 C34_8 1_555 1_555
C25_8 C29_8 1_555 1_555
C31_8 C32_8 1_555 1_555
O6_6 C24_8 1_555 1_555
O4_8 C24_8 1_555 1_555
O5_8 C27_8 1_555 1_555
H2_8 C6_8 1_555 1_555
C13_8 C6_8 1_555 1_555
H9_8 C13_8 1_555 1_555
H10_8 C14_8 1_555 1_555
C20_8 H21_8 1_555 1_555
C22_8 H25_8 1_555 1_555
C23_8 C20_8 1_555 1_555
H26_8 C23_8 1_555 1_555
C24_8 C26_8 1_555 1_555
C26_8 C23_8 1_555 1_555
C27_8 C20_8 1_555 1_555
C33_8 O5_8 1_555 1_555
C38_8 C22_8 1_555 1_555
H38_8 C38_8 1_555 1_555
C13_8 C33_8 1_555 1_555
C14_8 C33_8 1_555 1_555
C22_8 C27_8 1_555 1_555
C26_8 C38_8 1_555 1_555
O6_4 C24_9 1_555 1_555
O4_9 C24_9 1_555 1_555
O5_9 C27_9 1_555 1_555
H2_9 C6_9 1_555 1_555
C13_9 C6_9 1_555 1_555
H9_9 C13_9 1_555 1_555
H10_9 C14_9 1_555 1_555
C20_9 H21_9 1_555 1_555
C22_9 H25_9 1_555 1_555
C23_9 C20_9 1_555 1_555
H26_9 C23_9 1_555 1_555
C24_9 C26_9 1_555 1_555
C26_9 C23_9 1_555 1_555
C27_9 C20_9 1_555 1_555
C33_9 O5_9 1_555 1_555
C38_9 C22_9 1_555 1_555
H38_9 C38_9 1_555 1_555
C13_9 C33_9 1_555 1_555
C14_9 C33_9 1_555 1_555
C22_9 C27_9 1_555 1_555
C26_9 C38_9 1_555 1_555
Zn3_4 O1_9 1_555 1_555
O1_9 C1_9 1_555 1_555
O3_9 C1_9 1_555 1_555
N1_9 C2_9 1_555 1_555
N2_9 Zn3_4 1_555 1_555
N3_9 C4_9 1_555 1_555
N4_9 C7_9 1_555 1_555
N5_9 C4_9 1_555 1_555
N6_9 Zn3_4 1_555 1_555
N13_5 C18_9 1_555 1_555
N14_5 C30_9 1_555 1_555
N9_9 C28_9 1_555 1_555
N10_9 C18_9 1_555 1_555
N11_9 C10_9 1_555 1_555
N12_9 C9_9 1_555 1_555
C1_9 C3_9 1_555 1_555
C2_9 N2_9 1_555 1_555
C3_9 C5_9 1_555 1_555
C4_9 C15_9 1_555 1_555
C5_9 H1_9 1_555 1_555
C7_9 N6_9 1_555 1_555
C8_9 C2_9 1_555 1_555
H3_9 C8_9 1_555 1_555
H4_9 C8_9 1_555 1_555
H5_9 C8_9 1_555 1_555
C9_9 H6_9 1_555 1_555
C10_9 N12_9 1_555 1_555
C11_9 N5_9 1_555 1_555
H7_9 C11_9 1_555 1_555
C12_9 N1_9 1_555 1_555
H8_9 C12_9 1_555 1_555
C15_9 H11_9 1_555 1_555
H12_9 C15_9 1_555 1_555
H13_9 C15_9 1_555 1_555
C16_9 C7_9 1_555 1_555
H14_9 C16_9 1_555 1_555
H15_9 C16_9 1_555 1_555
H16_9 C16_9 1_555 1_555
C17_9 C10_9 1_555 1_555
H18_9 C17_9 1_555 1_555
H19_9 C17_9 1_555 1_555
C18_9 C35_9 1_555 1_555
C19_9 N2_9 1_555 1_555
H20_9 C19_9 1_555 1_555
C21_9 H22_9 1_555 1_555
H23_9 C21_9 1_555 1_555
H24_9 C21_9 1_555 1_555
C25_9 N10_9 1_555 1_555
H27_9 C25_9 1_555 1_555
C28_9 H28_9 1_555 1_555
C29_9 N13_5 1_555 1_555
H29_9 C29_9 1_555 1_555
C30_9 C28_9 1_555 1_555
H30_9 C30_9 1_555 1_555
C31_9 N6_9 1_555 1_555
H31_9 C31_9 1_555 1_555
C32_9 N4_9 1_555 1_555
H32_9 C32_9 1_555 1_555
C34_9 N14_5 1_555 1_555
C35_9 H33_9 1_555 1_555
H34_9 C35_9 1_555 1_555
H35_9 C35_9 1_555 1_555
C36_9 N11_9 1_555 1_555
H36_9 C36_9 1_555 1_555
C37_9 N3_9 1_555 1_555
H37_9 C37_9 1_555 1_555
B1_9 N1_9 1_555 1_555
B2_9 N4_9 1_555 1_555
Zn6_9 N12_9 1_555 1_555
N3_9 B1_9 1_555 1_555
N9_9 C34_9 1_555 1_555
N9_9 B2_9 1_555 1_555
N10_9 B2_9 1_555 1_555
N11_9 B1_9 1_555 1_555
C9_9 C36_9 1_555 1_555
C11_9 C37_9 1_555 1_555
C12_9 C19_9 1_555 1_555
C21_9 C34_9 1_555 1_555
C25_9 C29_9 1_555 1_555
C31_9 C32_9 1_555 1_555
N15_9 Zn4_2 1_555 1_555
O2_7 C24_10 1_555 1_555
O4_10 C24_10 1_555 1_555
O5_10 C27_10 1_555 1_555
C4_10 C15_10 1_555 1_555
H9_10 C13_10 1_555 1_555
C15_10 H11_10 1_555 1_555
H12_10 C15_10 1_555 1_555
H13_10 C15_10 1_555 1_555
C17_10 C10_10 1_555 1_555
H17_10 C17_10 1_555 1_555
H18_10 C17_10 1_555 1_555
H19_10 C17_10 1_555 1_555
C20_10 H21_10 1_555 1_555
C22_10 H25_10 1_555 1_555
C23_10 C20_10 1_555 1_555
H26_10 C23_10 1_555 1_555
C24_10 C26_10 1_555 1_555
C26_10 C23_10 1_555 1_555
C27_10 C20_10 1_555 1_555
C38_10 C22_10 1_555 1_555
H38_10 C38_10 1_555 1_555
Zn4_4 O2_7 1_555 1_555
N14_7 Zn2_7 1_555 1_555
N15_10 Zn2_7 1_555 1_555
C22_10 C27_10 1_555 1_555
C26_10 C38_10 1_555 1_555
Zn1_6 O1_10 1_555 1_555
O1_10 C1_10 1_555 1_555
O3_10 C1_10 1_555 1_555
N1_10 C2_10 1_555 1_555
N2_10 Zn1_6 1_555 1_555
N4_10 C7_10 1_555 1_555
N6_10 Zn1_6 1_555 1_555
N7_5 C18_10 1_555 1_555
N8_7 C30_10 1_555 1_555
N9_10 C28_10 1_555 1_555
N10_10 C18_10 1_555 1_555
N12_10 C9_10 1_555 1_555
C1_10 C3_10 1_555 1_555
C2_10 N2_10 1_555 1_555
C3_10 C5_10 1_555 1_555
C5_10 H1_10 1_555 1_555
C6_10 C3_10 1_555 1_555
C7_10 N6_10 1_555 1_555
C8_10 C2_10 1_555 1_555
H5_10 C8_10 1_555 1_555
C9_10 H6_10 1_555 1_555
C11_10 N5_10 1_555 1_555
H7_10 C11_10 1_555 1_555
C12_10 N1_10 1_555 1_555
H8_10 C12_10 1_555 1_555
C14_10 C5_10 1_555 1_555
H10_10 C14_10 1_555 1_555
C16_10 C7_10 1_555 1_555
H14_10 C16_10 1_555 1_555
H15_10 C16_10 1_555 1_555
H16_10 C16_10 1_555 1_555
C18_10 C35_10 1_555 1_555
C19_10 N2_10 1_555 1_555
H20_10 C19_10 1_555 1_555
H23_10 C21_10 1_555 1_555
H24_10 C21_10 1_555 1_555
C25_10 N10_10 1_555 1_555
H27_10 C25_10 1_555 1_555
C28_10 H28_10 1_555 1_555
C29_10 N7_5 1_555 1_555
H29_10 C29_10 1_555 1_555
C30_10 C28_10 1_555 1_555
H30_10 C30_10 1_555 1_555
C31_10 N6_10 1_555 1_555
H31_10 C31_10 1_555 1_555
C32_10 N4_10 1_555 1_555
H32_10 C32_10 1_555 1_555
C34_10 N8_7 1_555 1_555
C35_10 H33_10 1_555 1_555
H34_10 C35_10 1_555 1_555
H35_10 C35_10 1_555 1_555
C36_10 N11_10 1_555 1_555
H36_10 C36_10 1_555 1_555
C37_10 N3_10 1_555 1_555
H37_10 C37_10 1_555 1_555
B1_10 N1_10 1_555 1_555
B2_10 N4_10 1_555 1_555
Zn3_5 N7_5 1_555 1_555
Zn5_4 N8_7 1_555 1_555
N13_6 Zn1_6 1_555 1_555
N3_10 B1_10 1_555 1_555
N9_10 C34_10 1_555 1_555
N9_10 B2_10 1_555 1_555
N10_10 B2_10 1_555 1_555
N11_10 B1_10 1_555 1_555
C9_10 C36_10 1_555 1_555
C11_10 C37_10 1_555 1_555
C12_10 C19_10 1_555 1_555
C14_10 C33_10 1_555 1_555
C21_10 C34_10 1_555 1_555
C25_10 C29_10 1_555 1_555
C31_10 C32_10 1_555 1_555
Zn3_5 O1_11 1_555 1_555
Zn2_8 N5_11 1_555 1_555
O1_11 C1_11 1_555 1_555
O2_8 C24_11 1_555 1_555
O3_11 C1_11 1_555 1_555
O5_11 C27_11 1_555 1_555
N1_11 C2_11 1_555 1_555
N2_11 Zn3_5 1_555 1_555
N3_11 C4_11 1_555 1_555
N4_11 C7_11 1_555 1_555
N5_11 C4_11 1_555 1_555
N6_11 Zn3_5 1_555 1_555
N7_6 C18_11 1_555 1_555
N8_8 C30_11 1_555 1_555
N9_11 C28_11 1_555 1_555
N10_11 C18_11 1_555 1_555
N11_11 C10_11 1_555 1_555
N12_11 C9_11 1_555 1_555
C1_11 C3_11 1_555 1_555
C2_11 N2_11 1_555 1_555
C3_11 C5_11 1_555 1_555
C4_11 C15_11 1_555 1_555
C5_11 H1_11 1_555 1_555
C6_11 C3_11 1_555 1_555
H2_11 C6_11 1_555 1_555
C7_11 N6_11 1_555 1_555
C8_11 C2_11 1_555 1_555
H3_11 C8_11 1_555 1_555
H4_11 C8_11 1_555 1_555
H5_11 C8_11 1_555 1_555
C9_11 H6_11 1_555 1_555
C10_11 N12_11 1_555 1_555
C11_11 N5_11 1_555 1_555
H7_11 C11_11 1_555 1_555
C12_11 N1_11 1_555 1_555
H8_11 C12_11 1_555 1_555
C13_11 C6_11 1_555 1_555
H9_11 C13_11 1_555 1_555
C14_11 C5_11 1_555 1_555
H10_11 C14_11 1_555 1_555
C15_11 H11_11 1_555 1_555
H12_11 C15_11 1_555 1_555
H13_11 C15_11 1_555 1_555
C16_11 C7_11 1_555 1_555
H14_11 C16_11 1_555 1_555
H15_11 C16_11 1_555 1_555
H16_11 C16_11 1_555 1_555
C17_11 C10_11 1_555 1_555
H17_11 C17_11 1_555 1_555
H18_11 C17_11 1_555 1_555
H19_11 C17_11 1_555 1_555
C18_11 C35_11 1_555 1_555
C19_11 N2_11 1_555 1_555
H20_11 C19_11 1_555 1_555
C20_11 H21_11 1_555 1_555
C21_11 H22_11 1_555 1_555
H23_11 C21_11 1_555 1_555
H24_11 C21_11 1_555 1_555
C22_11 H25_11 1_555 1_555
C23_11 C20_11 1_555 1_555
H26_11 C23_11 1_555 1_555
C24_11 C26_11 1_555 1_555
C25_11 N10_11 1_555 1_555
H27_11 C25_11 1_555 1_555
C26_11 C23_11 1_555 1_555
C27_11 C20_11 1_555 1_555
C28_11 H28_11 1_555 1_555
C29_11 N7_6 1_555 1_555
H29_11 C29_11 1_555 1_555
C30_11 C28_11 1_555 1_555
H30_11 C30_11 1_555 1_555
C31_11 N6_11 1_555 1_555
H31_11 C31_11 1_555 1_555
C32_11 N4_11 1_555 1_555
H32_11 C32_11 1_555 1_555
C33_11 O5_11 1_555 1_555
C34_11 N8_8 1_555 1_555
C35_11 H33_11 1_555 1_555
H34_11 C35_11 1_555 1_555
H35_11 C35_11 1_555 1_555
C36_11 N11_11 1_555 1_555
H36_11 C36_11 1_555 1_555
C37_11 N3_11 1_555 1_555
H37_11 C37_11 1_555 1_555
C38_11 C22_11 1_555 1_555
H38_11 C38_11 1_555 1_555
B1_11 N1_11 1_555 1_555
B2_11 N4_11 1_555 1_555
Zn3_6 N7_6 1_555 1_555
Zn4_4 N8_8 1_555 1_555
Zn6_11 N12_11 1_555 1_555
O6_8 Zn2_8 1_555 1_555
N14_8 Zn2_8 1_555 1_555
N15_11 Zn2_8 1_555 1_555
N3_11 B1_11 1_555 1_555
N9_11 C34_11 1_555 1_555
N9_11 B2_11 1_555 1_555
N10_11 B2_11 1_555 1_555
N11_11 B1_11 1_555 1_555
C9_11 C36_11 1_555 1_555
C11_11 C37_11 1_555 1_555
C12_11 C19_11 1_555 1_555
C13_11 C33_11 1_555 1_555
C14_11 C33_11 1_555 1_555
C21_11 C34_11 1_555 1_555
C22_11 C27_11 1_555 1_555
C25_11 C29_11 1_555 1_555
C26_11 C38_11 1_555 1_555
C31_11 C32_11 1_555 1_555
Zn3_6 O1_12 1_555 1_555
O1_12 C1_12 1_555 1_555
O3_12 C1_12 1_555 1_555
N1_12 C2_12 1_555 1_555
N2_12 Zn3_6 1_555 1_555
N4_12 C7_12 1_555 1_555
N6_12 Zn3_6 1_555 1_555
N13_6 C18_12 1_555 1_555
N8_9 C30_12 1_555 1_555
N9_12 C28_12 1_555 1_555
N10_12 C18_12 1_555 1_555
N12_12 C9_12 1_555 1_555
C1_12 C3_12 1_555 1_555
C2_12 N2_12 1_555 1_555
C3_12 C5_12 1_555 1_555
C5_12 H1_12 1_555 1_555
C6_12 C3_12 1_555 1_555
C7_12 N6_12 1_555 1_555
C8_12 C2_12 1_555 1_555
H5_12 C8_12 1_555 1_555
C9_12 H6_12 1_555 1_555
C11_12 N5_12 1_555 1_555
H7_12 C11_12 1_555 1_555
C12_12 N1_12 1_555 1_555
H8_12 C12_12 1_555 1_555
C14_12 C5_12 1_555 1_555
H10_12 C14_12 1_555 1_555
C16_12 C7_12 1_555 1_555
H14_12 C16_12 1_555 1_555
H15_12 C16_12 1_555 1_555
H16_12 C16_12 1_555 1_555
C18_12 C35_12 1_555 1_555
C19_12 N2_12 1_555 1_555
H20_12 C19_12 1_555 1_555
H23_12 C21_12 1_555 1_555
H24_12 C21_12 1_555 1_555
C25_12 N10_12 1_555 1_555
H27_12 C25_12 1_555 1_555
C28_12 H28_12 1_555 1_555
C29_12 N13_6 1_555 1_555
H29_12 C29_12 1_555 1_555
C30_12 C28_12 1_555 1_555
H30_12 C30_12 1_555 1_555
C31_12 N6_12 1_555 1_555
H31_12 C31_12 1_555 1_555
C32_12 N4_12 1_555 1_555
H32_12 C32_12 1_555 1_555
C34_12 N8_9 1_555 1_555
C35_12 H33_12 1_555 1_555
H34_12 C35_12 1_555 1_555
H35_12 C35_12 1_555 1_555
C36_12 N11_12 1_555 1_555
H36_12 C36_12 1_555 1_555
C37_12 N3_12 1_555 1_555
H37_12 C37_12 1_555 1_555
B1_12 N1_12 1_555 1_555
B2_12 N4_12 1_555 1_555
Zn4_5 N8_9 1_555 1_555
N3_12 B1_12 1_555 1_555
N9_12 C34_12 1_555 1_555
N9_12 B2_12 1_555 1_555
N10_12 B2_12 1_555 1_555
N11_12 B1_12 1_555 1_555
C9_12 C36_12 1_555 1_555
C11_12 C37_12 1_555 1_555
C12_12 C19_12 1_555 1_555
C14_12 C33_12 1_555 1_555
C21_12 C34_12 1_555 1_555
C25_12 C29_12 1_555 1_555
C31_12 C32_12 1_555 1_555
O2_9 C24_12 1_555 1_555
O5_12 C27_12 1_555 1_555
C4_12 C15_12 1_555 1_555
H9_12 C13_12 1_555 1_555
C15_12 H11_12 1_555 1_555
H12_12 C15_12 1_555 1_555
H13_12 C15_12 1_555 1_555
C17_12 C10_12 1_555 1_555
H17_12 C17_12 1_555 1_555
H18_12 C17_12 1_555 1_555
H19_12 C17_12 1_555 1_555
C20_12 H21_12 1_555 1_555
C22_12 H25_12 1_555 1_555
C23_12 C20_12 1_555 1_555
H26_12 C23_12 1_555 1_555
C24_12 C26_12 1_555 1_555
C26_12 C23_12 1_555 1_555
C27_12 C20_12 1_555 1_555
C38_12 C22_12 1_555 1_555
H38_12 C38_12 1_555 1_555
N14_9 Zn2_9 1_555 1_555
N15_12 Zn2_9 1_555 1_555
C22_12 C27_12 1_555 1_555
C26_12 C38_12 1_555 1_555
O6_8 C24_13 1_555 1_555
O4_13 C24_13 1_555 1_555
O5_13 C27_13 1_555 1_555
C4_13 C15_13 1_555 1_555
H9_13 C13_13 1_555 1_555
C15_13 H11_13 1_555 1_555
H12_13 C15_13 1_555 1_555
H13_13 C15_13 1_555 1_555
C17_13 C10_13 1_555 1_555
H17_13 C17_13 1_555 1_555
H18_13 C17_13 1_555 1_555
H19_13 C17_13 1_555 1_555
C20_13 H21_13 1_555 1_555
C22_13 H25_13 1_555 1_555
C23_13 C20_13 1_555 1_555
H26_13 C23_13 1_555 1_555
C24_13 C26_13 1_555 1_555
C26_13 C23_13 1_555 1_555
C27_13 C20_13 1_555 1_555
C38_13 C22_13 1_555 1_555
H38_13 C38_13 1_555 1_555
N15_13 Zn4_5 1_555 1_555
C22_13 C27_13 1_555 1_555
C26_13 C38_13 1_555 1_555
Zn1_7 O1_13 1_555 1_555
O1_13 C1_13 1_555 1_555
O3_13 C1_13 1_555 1_555
N1_13 C2_13 1_555 1_555
N2_13 Zn1_7 1_555 1_555
N4_13 C7_13 1_555 1_555
N6_13 Zn1_7 1_555 1_555
N7_7 C18_13 1_555 1_555
N14_9 C30_13 1_555 1_555
N9_13 C28_13 1_555 1_555
N10_13 C18_13 1_555 1_555
N12_13 C9_13 1_555 1_555
C1_13 C3_13 1_555 1_555
C2_13 N2_13 1_555 1_555
C3_13 C5_13 1_555 1_555
C5_13 H1_13 1_555 1_555
C6_13 C3_13 1_555 1_555
C7_13 N6_13 1_555 1_555
C8_13 C2_13 1_555 1_555
H5_13 C8_13 1_555 1_555
C9_13 H6_13 1_555 1_555
C11_13 N5_13 1_555 1_555
H7_13 C11_13 1_555 1_555
C12_13 N1_13 1_555 1_555
H8_13 C12_13 1_555 1_555
C14_13 C5_13 1_555 1_555
H10_13 C14_13 1_555 1_555
C16_13 C7_13 1_555 1_555
H14_13 C16_13 1_555 1_555
H15_13 C16_13 1_555 1_555
H16_13 C16_13 1_555 1_555
C18_13 C35_13 1_555 1_555
C19_13 N2_13 1_555 1_555
H20_13 C19_13 1_555 1_555
H23_13 C21_13 1_555 1_555
H24_13 C21_13 1_555 1_555
C25_13 N10_13 1_555 1_555
H27_13 C25_13 1_555 1_555
C28_13 H28_13 1_555 1_555
C29_13 N7_7 1_555 1_555
H29_13 C29_13 1_555 1_555
C30_13 C28_13 1_555 1_555
H30_13 C30_13 1_555 1_555
C31_13 N6_13 1_555 1_555
H31_13 C31_13 1_555 1_555
C32_13 N4_13 1_555 1_555
H32_13 C32_13 1_555 1_555
C34_13 N14_9 1_555 1_555
C35_13 H33_13 1_555 1_555
H34_13 C35_13 1_555 1_555
H35_13 C35_13 1_555 1_555
C36_13 N11_13 1_555 1_555
H36_13 C36_13 1_555 1_555
C37_13 N3_13 1_555 1_555
H37_13 C37_13 1_555 1_555
B1_13 N1_13 1_555 1_555
B2_13 N4_13 1_555 1_555
Zn3_7 N7_7 1_555 1_555
N13_7 Zn1_7 1_555 1_555
N3_13 B1_13 1_555 1_555
N9_13 C34_13 1_555 1_555
N9_13 B2_13 1_555 1_555
N10_13 B2_13 1_555 1_555
N11_13 B1_13 1_555 1_555
C9_13 C36_13 1_555 1_555
C11_13 C37_13 1_555 1_555
C12_13 C19_13 1_555 1_555
C14_13 C33_13 1_555 1_555
C21_13 C34_13 1_555 1_555
C25_13 C29_13 1_555 1_555
C31_13 C32_13 1_555 1_555
Zn1_8 O1_14 1_555 1_555
O1_14 C1_14 1_555 1_555
O3_14 C1_14 1_555 1_555
N1_14 C2_14 1_555 1_555
N2_14 Zn1_8 1_555 1_555
N4_14 C7_14 1_555 1_555
N6_14 Zn1_8 1_555 1_555
N13_7 C18_14 1_555 1_555
N14_7 C30_14 1_555 1_555
N9_14 C28_14 1_555 1_555
N10_14 C18_14 1_555 1_555
N12_14 C9_14 1_555 1_555
C1_14 C3_14 1_555 1_555
C2_14 N2_14 1_555 1_555
C3_14 C5_14 1_555 1_555
C5_14 H1_14 1_555 1_555
C6_14 C3_14 1_555 1_555
C7_14 N6_14 1_555 1_555
C8_14 C2_14 1_555 1_555
H5_14 C8_14 1_555 1_555
C9_14 H6_14 1_555 1_555
C11_14 N5_14 1_555 1_555
H7_14 C11_14 1_555 1_555
C12_14 N1_14 1_555 1_555
H8_14 C12_14 1_555 1_555
C14_14 C5_14 1_555 1_555
H10_14 C14_14 1_555 1_555
C16_14 C7_14 1_555 1_555
H14_14 C16_14 1_555 1_555
H15_14 C16_14 1_555 1_555
H16_14 C16_14 1_555 1_555
C18_14 C35_14 1_555 1_555
C19_14 N2_14 1_555 1_555
H20_14 C19_14 1_555 1_555
H23_14 C21_14 1_555 1_555
H24_14 C21_14 1_555 1_555
C25_14 N10_14 1_555 1_555
H27_14 C25_14 1_555 1_555
C28_14 H28_14 1_555 1_555
C29_14 N13_7 1_555 1_555
H29_14 C29_14 1_555 1_555
C30_14 C28_14 1_555 1_555
H30_14 C30_14 1_555 1_555
C31_14 N6_14 1_555 1_555
H31_14 C31_14 1_555 1_555
C32_14 N4_14 1_555 1_555
H32_14 C32_14 1_555 1_555
C34_14 N14_7 1_555 1_555
C35_14 H33_14 1_555 1_555
H34_14 C35_14 1_555 1_555
H35_14 C35_14 1_555 1_555
C36_14 N11_14 1_555 1_555
H36_14 C36_14 1_555 1_555
C37_14 N3_14 1_555 1_555
H37_14 C37_14 1_555 1_555
B1_14 N1_14 1_555 1_555
B2_14 N4_14 1_555 1_555
N13_8 Zn1_8 1_555 1_555
N3_14 B1_14 1_555 1_555
N9_14 C34_14 1_555 1_555
N9_14 B2_14 1_555 1_555
N10_14 B2_14 1_555 1_555
N11_14 B1_14 1_555 1_555
C9_14 C36_14 1_555 1_555
C11_14 C37_14 1_555 1_555
C12_14 C19_14 1_555 1_555
C14_14 C33_14 1_555 1_555
C21_14 C34_14 1_555 1_555
C25_14 C29_14 1_555 1_555
C31_14 C32_14 1_555 1_555
O6_9 C24_14 1_555 1_555
O5_14 C27_14 1_555 1_555
C4_14 C15_14 1_555 1_555
H9_14 C13_14 1_555 1_555
C15_14 H11_14 1_555 1_555
H12_14 C15_14 1_555 1_555
H13_14 C15_14 1_555 1_555
C17_14 C10_14 1_555 1_555
H17_14 C17_14 1_555 1_555
H18_14 C17_14 1_555 1_555
H19_14 C17_14 1_555 1_555
C20_14 H21_14 1_555 1_555
C22_14 H25_14 1_555 1_555
C23_14 C20_14 1_555 1_555
H26_14 C23_14 1_555 1_555
C24_14 C26_14 1_555 1_555
C26_14 C23_14 1_555 1_555
C27_14 C20_14 1_555 1_555
C38_14 C22_14 1_555 1_555
H38_14 C38_14 1_555 1_555
N15_14 Zn5_4 1_555 1_555
C22_14 C27_14 1_555 1_555
C26_14 C38_14 1_555 1_555
Zn3_7 O1_15 1_555 1_555
Zn4_4 N5_15 1_555 1_555
O1_15 C1_15 1_555 1_555
O6_7 C24_15 1_555 1_555
O3_15 C1_15 1_555 1_555
O5_15 C27_15 1_555 1_555
N1_15 C2_15 1_555 1_555
N2_15 Zn3_7 1_555 1_555
N3_15 C4_15 1_555 1_555
N4_15 C7_15 1_555 1_555
N5_15 C4_15 1_555 1_555
N6_15 Zn3_7 1_555 1_555
N13_8 C18_15 1_555 1_555
N14_8 C30_15 1_555 1_555
N9_15 C28_15 1_555 1_555
N10_15 C18_15 1_555 1_555
N11_15 C10_15 1_555 1_555
N12_15 C9_15 1_555 1_555
C1_15 C3_15 1_555 1_555
C2_15 N2_15 1_555 1_555
C3_15 C5_15 1_555 1_555
C4_15 C15_15 1_555 1_555
C5_15 H1_15 1_555 1_555
C6_15 C3_15 1_555 1_555
H2_15 C6_15 1_555 1_555
C7_15 N6_15 1_555 1_555
C8_15 C2_15 1_555 1_555
H3_15 C8_15 1_555 1_555
H4_15 C8_15 1_555 1_555
H5_15 C8_15 1_555 1_555
C9_15 H6_15 1_555 1_555
C10_15 N12_15 1_555 1_555
C11_15 N5_15 1_555 1_555
H7_15 C11_15 1_555 1_555
C12_15 N1_15 1_555 1_555
H8_15 C12_15 1_555 1_555
C13_15 C6_15 1_555 1_555
H9_15 C13_15 1_555 1_555
C14_15 C5_15 1_555 1_555
H10_15 C14_15 1_555 1_555
C15_15 H11_15 1_555 1_555
H12_15 C15_15 1_555 1_555
H13_15 C15_15 1_555 1_555
C16_15 C7_15 1_555 1_555
H14_15 C16_15 1_555 1_555
H15_15 C16_15 1_555 1_555
H16_15 C16_15 1_555 1_555
C17_15 C10_15 1_555 1_555
H17_15 C17_15 1_555 1_555
H18_15 C17_15 1_555 1_555
H19_15 C17_15 1_555 1_555
C18_15 C35_15 1_555 1_555
C19_15 N2_15 1_555 1_555
H20_15 C19_15 1_555 1_555
C20_15 H21_15 1_555 1_555
C21_15 H22_15 1_555 1_555
H23_15 C21_15 1_555 1_555
H24_15 C21_15 1_555 1_555
C22_15 H25_15 1_555 1_555
C23_15 C20_15 1_555 1_555
H26_15 C23_15 1_555 1_555
C24_15 C26_15 1_555 1_555
C25_15 N10_15 1_555 1_555
H27_15 C25_15 1_555 1_555
C26_15 C23_15 1_555 1_555
C27_15 C20_15 1_555 1_555
C28_15 H28_15 1_555 1_555
C29_15 N13_8 1_555 1_555
H29_15 C29_15 1_555 1_555
C30_15 C28_15 1_555 1_555
H30_15 C30_15 1_555 1_555
C31_15 N6_15 1_555 1_555
H31_15 C31_15 1_555 1_555
C32_15 N4_15 1_555 1_555
H32_15 C32_15 1_555 1_555
C33_15 O5_15 1_555 1_555
C34_15 N14_8 1_555 1_555
C35_15 H33_15 1_555 1_555
H34_15 C35_15 1_555 1_555
H35_15 C35_15 1_555 1_555
C36_15 N11_15 1_555 1_555
H36_15 C36_15 1_555 1_555
C37_15 N3_15 1_555 1_555
H37_15 C37_15 1_555 1_555
C38_15 C22_15 1_555 1_555
H38_15 C38_15 1_555 1_555
B1_15 N1_15 1_555 1_555
B2_15 N4_15 1_555 1_555
Zn6_15 N12_15 1_555 1_555
N15_15 Zn4_4 1_555 1_555
N3_15 B1_15 1_555 1_555
N9_15 C34_15 1_555 1_555
N9_15 B2_15 1_555 1_555
N10_15 B2_15 1_555 1_555
N11_15 B1_15 1_555 1_555
C9_15 C36_15 1_555 1_555
C11_15 C37_15 1_555 1_555
C12_15 C19_15 1_555 1_555
C13_15 C33_15 1_555 1_555
C14_15 C33_15 1_555 1_555
C21_15 C34_15 1_555 1_555
C22_15 C27_15 1_555 1_555
C25_15 C29_15 1_555 1_555
C26_15 C38_15 1_555 1_555
C31_15 C32_15 1_555 1_555
N15_16 Zn5_2 1_555 1_555
Zn1_9 O1_16 1_555 1_555
O1_16 C1_16 1_555 1_555
O6_3 C24_16 1_555 1_555
O3_16 C1_16 1_555 1_555
O4_16 C24_16 1_555 1_555
O5_16 C27_16 1_555 1_555
N1_16 C2_16 1_555 1_555
N2_16 Zn1_9 1_555 1_555
N3_16 C4_16 1_555 1_555
N4_16 C7_16 1_555 1_555
N5_16 C4_16 1_555 1_555
N6_16 Zn1_9 1_555 1_555
N7_8 C18_16 1_555 1_555
N14_2 C30_16 1_555 1_555
N9_16 C28_16 1_555 1_555
N10_16 C18_16 1_555 1_555
C1_16 C3_16 1_555 1_555
C2_16 N2_16 1_555 1_555
C3_16 C5_16 1_555 1_555
C4_16 C15_16 1_555 1_555
C5_16 H1_16 1_555 1_555
C6_16 C3_16 1_555 1_555
H2_16 C6_16 1_555 1_555
C7_16 N6_16 1_555 1_555
C8_16 C2_16 1_555 1_555
H3_16 C8_16 1_555 1_555
H4_16 C8_16 1_555 1_555
H5_16 C8_16 1_555 1_555
C11_16 N5_16 1_555 1_555
H7_16 C11_16 1_555 1_555
C12_16 N1_16 1_555 1_555
H8_16 C12_16 1_555 1_555
C13_16 C6_16 1_555 1_555
H9_16 C13_16 1_555 1_555
C14_16 C5_16 1_555 1_555
H10_16 C14_16 1_555 1_555
C15_16 H11_16 1_555 1_555
H12_16 C15_16 1_555 1_555
H13_16 C15_16 1_555 1_555
C16_16 C7_16 1_555 1_555
H14_16 C16_16 1_555 1_555
H15_16 C16_16 1_555 1_555
H16_16 C16_16 1_555 1_555
H17_16 C17_16 1_555 1_555
H18_16 C17_16 1_555 1_555
H19_16 C17_16 1_555 1_555
C18_16 C35_16 1_555 1_555
C19_16 N2_16 1_555 1_555
H20_16 C19_16 1_555 1_555
C20_16 H21_16 1_555 1_555
C21_16 H22_16 1_555 1_555
H23_16 C21_16 1_555 1_555
H24_16 C21_16 1_555 1_555
C22_16 H25_16 1_555 1_555
C23_16 C20_16 1_555 1_555
H26_16 C23_16 1_555 1_555
C24_16 C26_16 1_555 1_555
C25_16 N10_16 1_555 1_555
H27_16 C25_16 1_555 1_555
C26_16 C23_16 1_555 1_555
C27_16 C20_16 1_555 1_555
C28_16 H28_16 1_555 1_555
C29_16 N7_8 1_555 1_555
H29_16 C29_16 1_555 1_555
C30_16 C28_16 1_555 1_555
H30_16 C30_16 1_555 1_555
C31_16 N6_16 1_555 1_555
H31_16 C31_16 1_555 1_555
C32_16 N4_16 1_555 1_555
H32_16 C32_16 1_555 1_555
C33_16 O5_16 1_555 1_555
C34_16 N14_2 1_555 1_555
C35_16 H33_16 1_555 1_555
H34_16 C35_16 1_555 1_555
H35_16 C35_16 1_555 1_555
C37_16 N3_16 1_555 1_555
H37_16 C37_16 1_555 1_555
C38_16 C22_16 1_555 1_555
H38_16 C38_16 1_555 1_555
B1_16 N1_16 1_555 1_555
B2_16 N4_16 1_555 1_555
Zn3_8 N7_8 1_555 1_555
N13_9 Zn1_9 1_555 1_555
N3_16 B1_16 1_555 1_555
N9_16 C34_16 1_555 1_555
N9_16 B2_16 1_555 1_555
N10_16 B2_16 1_555 1_555
N11_16 B1_16 1_555 1_555
C11_16 C37_16 1_555 1_555
C12_16 C19_16 1_555 1_555
C13_16 C33_16 1_555 1_555
C14_16 C33_16 1_555 1_555
C21_16 C34_16 1_555 1_555
C22_16 C27_16 1_555 1_555
C25_16 C29_16 1_555 1_555
C26_16 C38_16 1_555 1_555
C31_16 C32_16 1_555 1_555
N12_16 C9_16 1_555 1_555
C9_16 H6_16 1_555 1_555
C10_16 N12_16 1_555 1_555
H36_16 C36_16 1_555 1_555
Zn6_16 N12_16 1_555 1_555
C9_16 C36_16 1_555 1_555
O6 C24_17 1_555 1_555
O4_17 C24_17 1_555 1_555
O5_17 C27_17 1_555 1_555
H2_17 C6_17 1_555 1_555
C13_17 C6_17 1_555 1_555
H9_17 C13_17 1_555 1_555
H10_17 C14_17 1_555 1_555
C20_17 H21_17 1_555 1_555
C22_17 H25_17 1_555 1_555
C23_17 C20_17 1_555 1_555
H26_17 C23_17 1_555 1_555
C24_17 C26_17 1_555 1_555
C26_17 C23_17 1_555 1_555
C27_17 C20_17 1_555 1_555
C33_17 O5_17 1_555 1_555
C38_17 C22_17 1_555 1_555
H38_17 C38_17 1_555 1_555
C13_17 C33_17 1_555 1_555
C14_17 C33_17 1_555 1_555
C22_17 C27_17 1_555 1_555
C26_17 C38_17 1_555 1_555
Zn3_8 O1_17 1_555 1_555
O1_17 C1_17 1_555 1_555
O3_17 C1_17 1_555 1_555
N1_17 C2_17 1_555 1_555
N2_17 Zn3_8 1_555 1_555
N3_17 C4_17 1_555 1_555
N4_17 C7_17 1_555 1_555
N5_17 C4_17 1_555 1_555
N6_17 Zn3_8 1_555 1_555
N7_9 C18_17 1_555 1_555
N14_3 C30_17 1_555 1_555
N9_17 C28_17 1_555 1_555
N10_17 C18_17 1_555 1_555
C1_17 C3_17 1_555 1_555
C2_17 N2_17 1_555 1_555
C3_17 C5_17 1_555 1_555
C4_17 C15_17 1_555 1_555
C5_17 H1_17 1_555 1_555
C7_17 N6_17 1_555 1_555
C8_17 C2_17 1_555 1_555
H3_17 C8_17 1_555 1_555
H4_17 C8_17 1_555 1_555
H5_17 C8_17 1_555 1_555
C11_17 N5_17 1_555 1_555
H7_17 C11_17 1_555 1_555
C12_17 N1_17 1_555 1_555
H8_17 C12_17 1_555 1_555
C15_17 H11_17 1_555 1_555
H12_17 C15_17 1_555 1_555
H13_17 C15_17 1_555 1_555
C16_17 C7_17 1_555 1_555
H14_17 C16_17 1_555 1_555
H15_17 C16_17 1_555 1_555
H16_17 C16_17 1_555 1_555
H18_17 C17_17 1_555 1_555
H19_17 C17_17 1_555 1_555
C18_17 C35_17 1_555 1_555
C19_17 N2_17 1_555 1_555
H20_17 C19_17 1_555 1_555
C21_17 H22_17 1_555 1_555
H23_17 C21_17 1_555 1_555
H24_17 C21_17 1_555 1_555
C25_17 N10_17 1_555 1_555
H27_17 C25_17 1_555 1_555
C28_17 H28_17 1_555 1_555
C29_17 N7_9 1_555 1_555
H29_17 C29_17 1_555 1_555
C30_17 C28_17 1_555 1_555
H30_17 C30_17 1_555 1_555
C31_17 N6_17 1_555 1_555
H31_17 C31_17 1_555 1_555
C32_17 N4_17 1_555 1_555
H32_17 C32_17 1_555 1_555
C34_17 N14_3 1_555 1_555
C35_17 H33_17 1_555 1_555
H34_17 C35_17 1_555 1_555
H35_17 C35_17 1_555 1_555
C37_17 N3_17 1_555 1_555
H37_17 C37_17 1_555 1_555
B1_17 N1_17 1_555 1_555
B2_17 N4_17 1_555 1_555
Zn3_9 N7_9 1_555 1_555
N3_17 B1_17 1_555 1_555
N9_17 C34_17 1_555 1_555
N9_17 B2_17 1_555 1_555
N10_17 B2_17 1_555 1_555
N11_17 B1_17 1_555 1_555
C11_17 C37_17 1_555 1_555
C12_17 C19_17 1_555 1_555
C21_17 C34_17 1_555 1_555
C25_17 C29_17 1_555 1_555
C31_17 C32_17 1_555 1_555
N12_17 C9_17 1_555 1_555
C9_17 H6_17 1_555 1_555
C10_17 N12_17 1_555 1_555
H36_17 C36_17 1_555 1_555
Zn6_17 N12_17 1_555 1_555
C9_17 C36_17 1_555 1_555
N15_17 Zn4 1_555 1_555
Zn3_9 O1_18 1_555 1_555
Zn5 N5_18 1_555 1_555
O1_18 C1_18 1_555 1_555
O3_18 C1_18 1_555 1_555
N1_18 C2_18 1_555 1_555
N2_18 Zn3_9 1_555 1_555
N3_18 C4_18 1_555 1_555
N4_18 C7_18 1_555 1_555
N5_18 C4_18 1_555 1_555
N6_18 Zn3_9 1_555 1_555
N13_9 C18_18 1_555 1_555
N14 C30_18 1_555 1_555
N9_18 C28_18 1_555 1_555
N10_18 C18_18 1_555 1_555
C1_18 C3_18 1_555 1_555
C2_18 N2_18 1_555 1_555
C3_18 C5_18 1_555 1_555
C4_18 C15_18 1_555 1_555
C5_18 H1_18 1_555 1_555
C7_18 N6_18 1_555 1_555
C8_18 C2_18 1_555 1_555
H3_18 C8_18 1_555 1_555
H4_18 C8_18 1_555 1_555
H5_18 C8_18 1_555 1_555
C11_18 N5_18 1_555 1_555
H7_18 C11_18 1_555 1_555
C12_18 N1_18 1_555 1_555
H8_18 C12_18 1_555 1_555
C15_18 H11_18 1_555 1_555
H12_18 C15_18 1_555 1_555
H13_18 C15_18 1_555 1_555
C16_18 C7_18 1_555 1_555
H14_18 C16_18 1_555 1_555
H15_18 C16_18 1_555 1_555
H16_18 C16_18 1_555 1_555
H18_18 C17_18 1_555 1_555
H19_18 C17_18 1_555 1_555
C18_18 C35_18 1_555 1_555
C19_18 N2_18 1_555 1_555
H20_18 C19_18 1_555 1_555
C21_18 H22_18 1_555 1_555
H23_18 C21_18 1_555 1_555
H24_18 C21_18 1_555 1_555
C25_18 N10_18 1_555 1_555
H27_18 C25_18 1_555 1_555
C28_18 H28_18 1_555 1_555
C29_18 N13_9 1_555 1_555
H29_18 C29_18 1_555 1_555
C30_18 C28_18 1_555 1_555
H30_18 C30_18 1_555 1_555
C31_18 N6_18 1_555 1_555
H31_18 C31_18 1_555 1_555
C32_18 N4_18 1_555 1_555
H32_18 C32_18 1_555 1_555
C34_18 N14 1_555 1_555
C35_18 H33_18 1_555 1_555
H34_18 C35_18 1_555 1_555
H35_18 C35_18 1_555 1_555
C37_18 N3_18 1_555 1_555
H37_18 C37_18 1_555 1_555
B1_18 N1_18 1_555 1_555
B2_18 N4_18 1_555 1_555
N15_18 Zn5 1_555 1_555
N3_18 B1_18 1_555 1_555
N9_18 C34_18 1_555 1_555
N9_18 B2_18 1_555 1_555
N10_18 B2_18 1_555 1_555
N11_18 B1_18 1_555 1_555
C11_18 C37_18 1_555 1_555
C12_18 C19_18 1_555 1_555
C21_18 C34_18 1_555 1_555
C25_18 C29_18 1_555 1_555
C31_18 C32_18 1_555 1_555
N12_18 C9_18 1_555 1_555
C9_18 H6_18 1_555 1_555
C10_18 N12_18 1_555 1_555
H36_18 C36_18 1_555 1_555
Zn6_18 N12_18 1_555 1_555
C9_18 C36_18 1_555 1_555
O6_2 C24_18 1_555 1_555
O4_18 C24_18 1_555 1_555
O5_18 C27_18 1_555 1_555
H2_18 C6_18 1_555 1_555
C13_18 C6_18 1_555 1_555
H9_18 C13_18 1_555 1_555
H10_18 C14_18 1_555 1_555
C20_18 H21_18 1_555 1_555
C22_18 H25_18 1_555 1_555
C23_18 C20_18 1_555 1_555
H26_18 C23_18 1_555 1_555
C24_18 C26_18 1_555 1_555
C26_18 C23_18 1_555 1_555
C27_18 C20_18 1_555 1_555
C33_18 O5_18 1_555 1_555
C38_18 C22_18 1_555 1_555
H38_18 C38_18 1_555 1_555
C13_18 C33_18 1_555 1_555
C14_18 C33_18 1_555 1_555
C22_18 C27_18 1_555 1_555
C26_18 C38_18 1_555 1_555
O2_10 C24_19 1_555 1_555
O3_19 C1_19 1_555 1_555
O4_19 C24_19 1_555 1_555
O5_19 C27_19 1_555 1_555
C1_19 C3_19 1_555 1_555
C3_19 C5_19 1_555 1_555
C5_19 H1_19 1_555 1_555
C6_19 C3_19 1_555 1_555
C13_19 C6_19 1_555 1_555
H9_19 C13_19 1_555 1_555
C14_19 C5_19 1_555 1_555
H10_19 C14_19 1_555 1_555
C22_19 H25_19 1_555 1_555
C23_19 C20_19 1_555 1_555
C24_19 C26_19 1_555 1_555
C26_19 C23_19 1_555 1_555
C27_19 C20_19 1_555 1_555
C33_19 O5_19 1_555 1_555
C38_19 C22_19 1_555 1_555
H38_19 C38_19 1_555 1_555
Zn6_18 O2_10 1_555 1_555
C13_19 C33_19 1_555 1_555
C14_19 C33_19 1_555 1_555
C22_19 C27_19 1_555 1_555
C26_19 C38_19 1_555 1_555
Zn1_10 O1_19 1_555 1_555
Zn6_15 N5_19 1_555 1_555
N1_19 C2_19 1_555 1_555
N2_19 Zn1_10 1_555 1_555
N3_19 C4_19 1_555 1_555
N4_19 C7_19 1_555 1_555
N5_19 C4_19 1_555 1_555
N6_19 Zn1_10 1_555 1_555
N7_10 C18_19 1_555 1_555
N8_10 C30_19 1_555 1_555
N9_19 C28_19 1_555 1_555
N10_19 C18_19 1_555 1_555
N11_19 C10_19 1_555 1_555
N15_14 C9_19 1_555 1_555
C2_19 N2_19 1_555 1_555
C4_19 C15_19 1_555 1_555
C7_19 N6_19 1_555 1_555
C8_19 C2_19 1_555 1_555
H3_19 C8_19 1_555 1_555
H4_19 C8_19 1_555 1_555
H5_19 C8_19 1_555 1_555
C9_19 H6_19 1_555 1_555
C10_19 N15_14 1_555 1_555
C11_19 N5_19 1_555 1_555
H7_19 C11_19 1_555 1_555
C12_19 N1_19 1_555 1_555
H8_19 C12_19 1_555 1_555
C15_19 H11_19 1_555 1_555
H12_19 C15_19 1_555 1_555
H13_19 C15_19 1_555 1_555
C16_19 C7_19 1_555 1_555
H14_19 C16_19 1_555 1_555
H15_19 C16_19 1_555 1_555
H16_19 C16_19 1_555 1_555
C17_19 C10_19 1_555 1_555
H17_19 C17_19 1_555 1_555
H18_19 C17_19 1_555 1_555
H19_19 C17_19 1_555 1_555
C18_19 C35_19 1_555 1_555
C19_19 N2_19 1_555 1_555
C21_19 H22_19 1_555 1_555
H23_19 C21_19 1_555 1_555
H24_19 C21_19 1_555 1_555
C25_19 N10_19 1_555 1_555
H27_19 C25_19 1_555 1_555
C28_19 H28_19 1_555 1_555
C29_19 N7_10 1_555 1_555
H29_19 C29_19 1_555 1_555
C30_19 C28_19 1_555 1_555
H30_19 C30_19 1_555 1_555
C31_19 N6_19 1_555 1_555
H31_19 C31_19 1_555 1_555
C32_19 N4_19 1_555 1_555
H32_19 C32_19 1_555 1_555
C34_19 N8_10 1_555 1_555
C35_19 H33_19 1_555 1_555
H34_19 C35_19 1_555 1_555
H35_19 C35_19 1_555 1_555
C36_19 N11_19 1_555 1_555
H36_19 C36_19 1_555 1_555
C37_19 N3_19 1_555 1_555
H37_19 C37_19 1_555 1_555
B1_19 N1_19 1_555 1_555
B2_19 N4_19 1_555 1_555
Zn6_16 N8_10 1_555 1_555
O6_10 Zn6_15 1_555 1_555
N14_10 Zn6_15 1_555 1_555
N3_19 B1_19 1_555 1_555
N9_19 C34_19 1_555 1_555
N9_19 B2_19 1_555 1_555
N10_19 B2_19 1_555 1_555
N11_19 B1_19 1_555 1_555
C9_19 C36_19 1_555 1_555
C11_19 C37_19 1_555 1_555
C12_19 C19_19 1_555 1_555
C21_19 C34_19 1_555 1_555
C25_19 C29_19 1_555 1_555
C31_19 C32_19 1_555 1_555
Zn1_11 O1_20 1_555 1_555
Zn6_13 N5_20 1_555 1_555
O1_20 C1_20 1_555 1_555
O2_11 C24_20 1_555 1_555
O3_20 C1_20 1_555 1_555
O4_20 C24_20 1_555 1_555
O5_20 C27_20 1_555 1_555
N1_20 C2_20 1_555 1_555
N2_20 Zn1_11 1_555 1_555
N3_20 C4_20 1_555 1_555
N4_20 C7_20 1_555 1_555
N5_20 C4_20 1_555 1_555
N6_20 Zn1_11 1_555 1_555
N11_20 C10_20 1_555 1_555
N15_15 C9_20 1_555 1_555
C1_20 C3_20 1_555 1_555
C2_20 N2_20 1_555 1_555
C3_20 C5_20 1_555 1_555
C4_20 C15_20 1_555 1_555
C5_20 H1_20 1_555 1_555
C6_20 C3_20 1_555 1_555
H2_20 C6_20 1_555 1_555
C7_20 N6_20 1_555 1_555
C8_20 C2_20 1_555 1_555
H3_20 C8_20 1_555 1_555
H4_20 C8_20 1_555 1_555
H5_20 C8_20 1_555 1_555
C9_20 H6_20 1_555 1_555
C10_20 N15_15 1_555 1_555
C11_20 N5_20 1_555 1_555
C12_20 N1_20 1_555 1_555
H8_20 C12_20 1_555 1_555
C13_20 C6_20 1_555 1_555
H9_20 C13_20 1_555 1_555
C14_20 C5_20 1_555 1_555
H10_20 C14_20 1_555 1_555
C15_20 H11_20 1_555 1_555
H12_20 C15_20 1_555 1_555
H13_20 C15_20 1_555 1_555
C16_20 C7_20 1_555 1_555
H14_20 C16_20 1_555 1_555
H15_20 C16_20 1_555 1_555
H16_20 C16_20 1_555 1_555
C17_20 C10_20 1_555 1_555
H17_20 C17_20 1_555 1_555
H18_20 C17_20 1_555 1_555
H19_20 C17_20 1_555 1_555
C19_20 N2_20 1_555 1_555
H20_20 C19_20 1_555 1_555
C20_20 H21_20 1_555 1_555
C21_20 H22_20 1_555 1_555
H23_20 C21_20 1_555 1_555
H24_20 C21_20 1_555 1_555
C22_20 H25_20 1_555 1_555
C23_20 C20_20 1_555 1_555
H26_20 C23_20 1_555 1_555
C24_20 C26_20 1_555 1_555
C26_20 C23_20 1_555 1_555
C27_20 C20_20 1_555 1_555
C31_20 N6_20 1_555 1_555
H31_20 C31_20 1_555 1_555
C32_20 N4_20 1_555 1_555
H32_20 C32_20 1_555 1_555
C33_20 O5_20 1_555 1_555
C36_20 N11_20 1_555 1_555
H36_20 C36_20 1_555 1_555
C37_20 N3_20 1_555 1_555
H37_20 C37_20 1_555 1_555
C38_20 C22_20 1_555 1_555
H38_20 C38_20 1_555 1_555
B1_20 N1_20 1_555 1_555
Zn6_16 O2_11 1_555 1_555
N13_11 Zn1_11 1_555 1_555
N14_11 Zn6_13 1_555 1_555
N3_20 B1_20 1_555 1_555
N11_20 B1_20 1_555 1_555
C9_20 C36_20 1_555 1_555
C11_20 C37_20 1_555 1_555
C12_20 C19_20 1_555 1_555
C13_20 C33_20 1_555 1_555
C14_20 C33_20 1_555 1_555
C22_20 C27_20 1_555 1_555
C26_20 C38_20 1_555 1_555
C31_20 C32_20 1_555 1_555
N13_10 C18_20 1_555 1_555
N8_11 C30_20 1_555 1_555
N9_20 C28_20 1_555 1_555
N10_20 C18_20 1_555 1_555
C18_20 C35_20 1_555 1_555
C25_20 N10_20 1_555 1_555
H27_20 C25_20 1_555 1_555
C28_20 H28_20 1_555 1_555
C29_20 N13_10 1_555 1_555
H29_20 C29_20 1_555 1_555
C30_20 C28_20 1_555 1_555
H30_20 C30_20 1_555 1_555
C34_20 N8_11 1_555 1_555
C35_20 H33_20 1_555 1_555
H34_20 C35_20 1_555 1_555
H35_20 C35_20 1_555 1_555
Zn6_17 N8_11 1_555 1_555
N9_20 C34_20 1_555 1_555
N9_20 B2_20 1_555 1_555
N10_20 B2_20 1_555 1_555
C25_20 C29_20 1_555 1_555
N13_11 C18_21 1_555 1_555
N8_12 C30_21 1_555 1_555
N9_21 C28_21 1_555 1_555
N10_21 C18_21 1_555 1_555
C18_21 C35_21 1_555 1_555
C25_21 N10_21 1_555 1_555
H27_21 C25_21 1_555 1_555
C28_21 H28_21 1_555 1_555
C29_21 N13_11 1_555 1_555
H29_21 C29_21 1_555 1_555
C30_21 C28_21 1_555 1_555
H30_21 C30_21 1_555 1_555
C34_21 N8_12 1_555 1_555
C35_21 H33_21 1_555 1_555
H34_21 C35_21 1_555 1_555
H35_21 C35_21 1_555 1_555
Zn6_18 N8_12 1_555 1_555
N9_21 C34_21 1_555 1_555
N9_21 B2_21 1_555 1_555
N10_21 B2_21 1_555 1_555
C25_21 C29_21 1_555 1_555
Zn3_10 O1_21 1_555 1_555
Zn6_14 N5_21 1_555 1_555
N1_21 C2_21 1_555 1_555
N2_21 Zn3_10 1_555 1_555
N3_21 C4_21 1_555 1_555
N4_21 C7_21 1_555 1_555
N5_21 C4_21 1_555 1_555
N6_21 Zn3_10 1_555 1_555
N11_21 C10_21 1_555 1_555
N15_13 C9_21 1_555 1_555
C2_21 N2_21 1_555 1_555
C4_21 C15_21 1_555 1_555
C7_21 N6_21 1_555 1_555
C8_21 C2_21 1_555 1_555
H3_21 C8_21 1_555 1_555
H4_21 C8_21 1_555 1_555
H5_21 C8_21 1_555 1_555
C9_21 H6_21 1_555 1_555
C10_21 N15_13 1_555 1_555
C11_21 N5_21 1_555 1_555
C12_21 N1_21 1_555 1_555
H8_21 C12_21 1_555 1_555
C15_21 H11_21 1_555 1_555
H12_21 C15_21 1_555 1_555
H13_21 C15_21 1_555 1_555
C16_21 C7_21 1_555 1_555
H14_21 C16_21 1_555 1_555
H15_21 C16_21 1_555 1_555
H16_21 C16_21 1_555 1_555
C17_21 C10_21 1_555 1_555
H17_21 C17_21 1_555 1_555
H18_21 C17_21 1_555 1_555
H19_21 C17_21 1_555 1_555
C19_21 N2_21 1_555 1_555
C21_21 H22_21 1_555 1_555
H23_21 C21_21 1_555 1_555
H24_21 C21_21 1_555 1_555
C31_21 N6_21 1_555 1_555
H31_21 C31_21 1_555 1_555
C32_21 N4_21 1_555 1_555
H32_21 C32_21 1_555 1_555
C36_21 N11_21 1_555 1_555
H36_21 C36_21 1_555 1_555
C37_21 N3_21 1_555 1_555
H37_21 C37_21 1_555 1_555
B1_21 N1_21 1_555 1_555
N14_12 Zn6_14 1_555 1_555
N3_21 B1_21 1_555 1_555
N11_21 B1_21 1_555 1_555
C9_21 C36_21 1_555 1_555
C11_21 C37_21 1_555 1_555
C12_21 C19_21 1_555 1_555
C31_21 C32_21 1_555 1_555
O2_12 C24_21 1_555 1_555
O3_21 C1_21 1_555 1_555
O4_21 C24_21 1_555 1_555
O5_21 C27_21 1_555 1_555
C1_21 C3_21 1_555 1_555
C3_21 C5_21 1_555 1_555
C5_21 H1_21 1_555 1_555
C6_21 C3_21 1_555 1_555
C13_21 C6_21 1_555 1_555
H9_21 C13_21 1_555 1_555
C14_21 C5_21 1_555 1_555
H10_21 C14_21 1_555 1_555
C22_21 H25_21 1_555 1_555
C23_21 C20_21 1_555 1_555
C24_21 C26_21 1_555 1_555
C26_21 C23_21 1_555 1_555
C27_21 C20_21 1_555 1_555
C33_21 O5_21 1_555 1_555
C38_21 C22_21 1_555 1_555
H38_21 C38_21 1_555 1_555
Zn6_17 O2_12 1_555 1_555
C13_21 C33_21 1_555 1_555
C14_21 C33_21 1_555 1_555
C22_21 C27_21 1_555 1_555
C26_21 C38_21 1_555 1_555
O2_13 C24_22 1_555 1_555
O3_22 C1_22 1_555 1_555
O4_22 C24_22 1_555 1_555
O5_22 C27_22 1_555 1_555
C1_22 C3_22 1_555 1_555
C3_22 C5_22 1_555 1_555
C5_22 H1_22 1_555 1_555
C6_22 C3_22 1_555 1_555
C13_22 C6_22 1_555 1_555
H9_22 C13_22 1_555 1_555
C14_22 C5_22 1_555 1_555
H10_22 C14_22 1_555 1_555
C22_22 H25_22 1_555 1_555
C23_22 C20_22 1_555 1_555
C24_22 C26_22 1_555 1_555
C26_22 C23_22 1_555 1_555
C27_22 C20_22 1_555 1_555
C33_22 O5_22 1_555 1_555
C38_22 C22_22 1_555 1_555
H38_22 C38_22 1_555 1_555
Zn6_8 O2_13 1_555 1_555
C13_22 C33_22 1_555 1_555
C14_22 C33_22 1_555 1_555
C22_22 C27_22 1_555 1_555
C26_22 C38_22 1_555 1_555
Zn1_12 O1_22 1_555 1_555
Zn6_11 N5_22 1_555 1_555
N1_22 C2_22 1_555 1_555
N2_22 Zn1_12 1_555 1_555
N3_22 C4_22 1_555 1_555
N4_22 C7_22 1_555 1_555
N5_22 C4_22 1_555 1_555
N6_22 Zn1_12 1_555 1_555
N7_11 C18_22 1_555 1_555
N8_13 C30_22 1_555 1_555
N9_22 C28_22 1_555 1_555
N10_22 C18_22 1_555 1_555
N11_22 C10_22 1_555 1_555
N15_12 C9_22 1_555 1_555
C2_22 N2_22 1_555 1_555
C4_22 C15_22 1_555 1_555
C7_22 N6_22 1_555 1_555
C8_22 C2_22 1_555 1_555
H3_22 C8_22 1_555 1_555
H4_22 C8_22 1_555 1_555
H5_22 C8_22 1_555 1_555
C9_22 H6_22 1_555 1_555
C10_22 N15_12 1_555 1_555
C11_22 N5_22 1_555 1_555
H7_22 C11_22 1_555 1_555
C12_22 N1_22 1_555 1_555
H8_22 C12_22 1_555 1_555
C15_22 H11_22 1_555 1_555
H12_22 C15_22 1_555 1_555
H13_22 C15_22 1_555 1_555
C16_22 C7_22 1_555 1_555
H14_22 C16_22 1_555 1_555
H15_22 C16_22 1_555 1_555
H16_22 C16_22 1_555 1_555
C17_22 C10_22 1_555 1_555
H17_22 C17_22 1_555 1_555
H18_22 C17_22 1_555 1_555
H19_22 C17_22 1_555 1_555
C18_22 C35_22 1_555 1_555
C19_22 N2_22 1_555 1_555
C21_22 H22_22 1_555 1_555
H23_22 C21_22 1_555 1_555
H24_22 C21_22 1_555 1_555
C25_22 N10_22 1_555 1_555
H27_22 C25_22 1_555 1_555
C28_22 H28_22 1_555 1_555
C29_22 N7_11 1_555 1_555
H29_22 C29_22 1_555 1_555
C30_22 C28_22 1_555 1_555
H30_22 C30_22 1_555 1_555
C31_22 N6_22 1_555 1_555
H31_22 C31_22 1_555 1_555
C32_22 N4_22 1_555 1_555
H32_22 C32_22 1_555 1_555
C34_22 N8_13 1_555 1_555
C35_22 H33_22 1_555 1_555
H34_22 C35_22 1_555 1_555
H35_22 C35_22 1_555 1_555
C36_22 N11_22 1_555 1_555
H36_22 C36_22 1_555 1_555
C37_22 N3_22 1_555 1_555
H37_22 C37_22 1_555 1_555
B1_22 N1_22 1_555 1_555
B2_22 N4_22 1_555 1_555
Zn6_7 N8_13 1_555 1_555
O6_13 Zn6_11 1_555 1_555
N14_13 Zn6_11 1_555 1_555
N3_22 B1_22 1_555 1_555
N9_22 C34_22 1_555 1_555
N9_22 B2_22 1_555 1_555
N10_22 B2_22 1_555 1_555
N11_22 B1_22 1_555 1_555
C9_22 C36_22 1_555 1_555
C11_22 C37_22 1_555 1_555
C12_22 C19_22 1_555 1_555
C21_22 C34_22 1_555 1_555
C25_22 C29_22 1_555 1_555
C31_22 C32_22 1_555 1_555
N7_12 C18_23 1_555 1_555
N8_14 C30_23 1_555 1_555
N9_23 C28_23 1_555 1_555
N10_23 C18_23 1_555 1_555
C18_23 C35_23 1_555 1_555
C25_23 N10_23 1_555 1_555
H27_23 C25_23 1_555 1_555
C28_23 H28_23 1_555 1_555
C29_23 N7_12 1_555 1_555
H29_23 C29_23 1_555 1_555
C30_23 C28_23 1_555 1_555
H30_23 C30_23 1_555 1_555
C34_23 N8_14 1_555 1_555
C35_23 H33_23 1_555 1_555
H34_23 C35_23 1_555 1_555
H35_23 C35_23 1_555 1_555
Zn3_12 N7_12 1_555 1_555
Zn6_8 N8_14 1_555 1_555
N9_23 C34_23 1_555 1_555
N9_23 B2_23 1_555 1_555
N10_23 B2_23 1_555 1_555
C25_23 C29_23 1_555 1_555
Zn3_11 O1_23 1_555 1_555
Zn6_12 N5_23 1_555 1_555
N1_23 C2_23 1_555 1_555
N2_23 Zn3_11 1_555 1_555
N3_23 C4_23 1_555 1_555
N4_23 C7_23 1_555 1_555
N5_23 C4_23 1_555 1_555
N6_23 Zn3_11 1_555 1_555
N11_23 C10_23 1_555 1_555
N15_10 C9_23 1_555 1_555
C2_23 N2_23 1_555 1_555
C4_23 C15_23 1_555 1_555
C7_23 N6_23 1_555 1_555
C8_23 C2_23 1_555 1_555
H3_23 C8_23 1_555 1_555
H4_23 C8_23 1_555 1_555
H5_23 C8_23 1_555 1_555
C9_23 H6_23 1_555 1_555
C10_23 N15_10 1_555 1_555
C11_23 N5_23 1_555 1_555
C12_23 N1_23 1_555 1_555
H8_23 C12_23 1_555 1_555
C15_23 H11_23 1_555 1_555
H12_23 C15_23 1_555 1_555
H13_23 C15_23 1_555 1_555
C16_23 C7_23 1_555 1_555
H14_23 C16_23 1_555 1_555
H15_23 C16_23 1_555 1_555
H16_23 C16_23 1_555 1_555
C17_23 C10_23 1_555 1_555
H17_23 C17_23 1_555 1_555
H18_23 C17_23 1_555 1_555
H19_23 C17_23 1_555 1_555
C19_23 N2_23 1_555 1_555
C21_23 H22_23 1_555 1_555
H23_23 C21_23 1_555 1_555
H24_23 C21_23 1_555 1_555
C31_23 N6_23 1_555 1_555
H31_23 C31_23 1_555 1_555
C32_23 N4_23 1_555 1_555
H32_23 C32_23 1_555 1_555
C36_23 N11_23 1_555 1_555
H36_23 C36_23 1_555 1_555
C37_23 N3_23 1_555 1_555
H37_23 C37_23 1_555 1_555
B1_23 N1_23 1_555 1_555
N14_14 Zn6_12 1_555 1_555
N3_23 B1_23 1_555 1_555
N11_23 B1_23 1_555 1_555
C9_23 C36_23 1_555 1_555
C11_23 C37_23 1_555 1_555
C12_23 C19_23 1_555 1_555
C31_23 C32_23 1_555 1_555
O2_14 C24_23 1_555 1_555
O3_23 C1_23 1_555 1_555
O4_23 C24_23 1_555 1_555
O5_23 C27_23 1_555 1_555
C1_23 C3_23 1_555 1_555
C3_23 C5_23 1_555 1_555
C5_23 H1_23 1_555 1_555
C6_23 C3_23 1_555 1_555
C13_23 C6_23 1_555 1_555
H9_23 C13_23 1_555 1_555
C14_23 C5_23 1_555 1_555
H10_23 C14_23 1_555 1_555
C22_23 H25_23 1_555 1_555
C23_23 C20_23 1_555 1_555
C24_23 C26_23 1_555 1_555
C26_23 C23_23 1_555 1_555
C27_23 C20_23 1_555 1_555
C33_23 O5_23 1_555 1_555
C38_23 C22_23 1_555 1_555
H38_23 C38_23 1_555 1_555
Zn6_9 O2_14 1_555 1_555
C13_23 C33_23 1_555 1_555
C14_23 C33_23 1_555 1_555
C22_23 C27_23 1_555 1_555
C26_23 C38_23 1_555 1_555
Zn3_12 O1_24 1_555 1_555
Zn6_10 N5_24 1_555 1_555
O1_24 C1_24 1_555 1_555
O2_15 C24_24 1_555 1_555
O3_24 C1_24 1_555 1_555
O4_24 C24_24 1_555 1_555
O5_24 C27_24 1_555 1_555
N1_24 C2_24 1_555 1_555
N2_24 Zn3_12 1_555 1_555
N3_24 C4_24 1_555 1_555
N4_24 C7_24 1_555 1_555
N5_24 C4_24 1_555 1_555
N6_24 Zn3_12 1_555 1_555
N11_24 C10_24 1_555 1_555
N15_11 C9_24 1_555 1_555
C1_24 C3_24 1_555 1_555
C2_24 N2_24 1_555 1_555
C3_24 C5_24 1_555 1_555
C4_24 C15_24 1_555 1_555
C5_24 H1_24 1_555 1_555
C6_24 C3_24 1_555 1_555
H2_24 C6_24 1_555 1_555
C7_24 N6_24 1_555 1_555
C8_24 C2_24 1_555 1_555
H3_24 C8_24 1_555 1_555
H4_24 C8_24 1_555 1_555
H5_24 C8_24 1_555 1_555
C9_24 H6_24 1_555 1_555
C10_24 N15_11 1_555 1_555
C11_24 N5_24 1_555 1_555
C12_24 N1_24 1_555 1_555
H8_24 C12_24 1_555 1_555
C13_24 C6_24 1_555 1_555
H9_24 C13_24 1_555 1_555
C14_24 C5_24 1_555 1_555
H10_24 C14_24 1_555 1_555
C15_24 H11_24 1_555 1_555
H12_24 C15_24 1_555 1_555
H13_24 C15_24 1_555 1_555
C16_24 C7_24 1_555 1_555
H14_24 C16_24 1_555 1_555
H15_24 C16_24 1_555 1_555
H16_24 C16_24 1_555 1_555
C17_24 C10_24 1_555 1_555
H17_24 C17_24 1_555 1_555
H18_24 C17_24 1_555 1_555
H19_24 C17_24 1_555 1_555
C19_24 N2_24 1_555 1_555
H20_24 C19_24 1_555 1_555
C20_24 H21_24 1_555 1_555
C21_24 H22_24 1_555 1_555
H23_24 C21_24 1_555 1_555
H24_24 C21_24 1_555 1_555
C22_24 H25_24 1_555 1_555
C23_24 C20_24 1_555 1_555
H26_24 C23_24 1_555 1_555
C24_24 C26_24 1_555 1_555
C26_24 C23_24 1_555 1_555
C27_24 C20_24 1_555 1_555
C31_24 N6_24 1_555 1_555
H31_24 C31_24 1_555 1_555
C32_24 N4_24 1_555 1_555
H32_24 C32_24 1_555 1_555
C33_24 O5_24 1_555 1_555
C36_24 N11_24 1_555 1_555
H36_24 C36_24 1_555 1_555
C37_24 N3_24 1_555 1_555
H37_24 C37_24 1_555 1_555
C38_24 C22_24 1_555 1_555
H38_24 C38_24 1_555 1_555
B1_24 N1_24 1_555 1_555
Zn6_7 O2_15 1_555 1_555
N14_15 Zn6_10 1_555 1_555
N3_24 B1_24 1_555 1_555
N11_24 B1_24 1_555 1_555
C9_24 C36_24 1_555 1_555
C11_24 C37_24 1_555 1_555
C12_24 C19_24 1_555 1_555
C13_24 C33_24 1_555 1_555
C14_24 C33_24 1_555 1_555
C22_24 C27_24 1_555 1_555
C26_24 C38_24 1_555 1_555
C31_24 C32_24 1_555 1_555
N13_12 C18_24 1_555 1_555
N8_15 C30_24 1_555 1_555
N9_24 C28_24 1_555 1_555
N10_24 C18_24 1_555 1_555
C18_24 C35_24 1_555 1_555
C25_24 N10_24 1_555 1_555
H27_24 C25_24 1_555 1_555
C28_24 H28_24 1_555 1_555
C29_24 N13_12 1_555 1_555
H29_24 C29_24 1_555 1_555
C30_24 C28_24 1_555 1_555
H30_24 C30_24 1_555 1_555
C34_24 N8_15 1_555 1_555
C35_24 H33_24 1_555 1_555
H34_24 C35_24 1_555 1_555
H35_24 C35_24 1_555 1_555
Zn6_9 N8_15 1_555 1_555
N9_24 C34_24 1_555 1_555
N9_24 B2_24 1_555 1_555
N10_24 B2_24 1_555 1_555
C25_24 C29_24 1_555 1_555
Zn1_13 O1_25 1_555 1_555
O1_25 C1_25 1_555 1_555
O6_14 C24_25 1_555 1_555
O3_25 C1_25 1_555 1_555
O4_25 C24_25 1_555 1_555
O5_25 C27_25 1_555 1_555
N1_25 C2_25 1_555 1_555
N2_25 Zn1_13 1_555 1_555
N3_25 C4_25 1_555 1_555
N4_25 C7_25 1_555 1_555
N5_25 C4_25 1_555 1_555
N6_25 Zn1_13 1_555 1_555
N7_13 C18_25 1_555 1_555
N14_15 C30_25 1_555 1_555
N9_25 C28_25 1_555 1_555
N10_25 C18_25 1_555 1_555
N11_25 C10_25 1_555 1_555
N15_8 C9_25 1_555 1_555
C1_25 C3_25 1_555 1_555
C2_25 N2_25 1_555 1_555
C3_25 C5_25 1_555 1_555
C4_25 C15_25 1_555 1_555
C5_25 H1_25 1_555 1_555
C6_25 C3_25 1_555 1_555
H2_25 C6_25 1_555 1_555
C7_25 N6_25 1_555 1_555
C8_25 C2_25 1_555 1_555
H3_25 C8_25 1_555 1_555
H4_25 C8_25 1_555 1_555
H5_25 C8_25 1_555 1_555
C9_25 H6_25 1_555 1_555
C10_25 N15_8 1_555 1_555
C11_25 N5_25 1_555 1_555
H7_25 C11_25 1_555 1_555
C12_25 N1_25 1_555 1_555
H8_25 C12_25 1_555 1_555
C13_25 C6_25 1_555 1_555
H9_25 C13_25 1_555 1_555
C14_25 C5_25 1_555 1_555
H10_25 C14_25 1_555 1_555
C15_25 H11_25 1_555 1_555
H12_25 C15_25 1_555 1_555
H13_25 C15_25 1_555 1_555
C16_25 C7_25 1_555 1_555
H14_25 C16_25 1_555 1_555
H15_25 C16_25 1_555 1_555
H16_25 C16_25 1_555 1_555
C17_25 C10_25 1_555 1_555
H17_25 C17_25 1_555 1_555
H18_25 C17_25 1_555 1_555
H19_25 C17_25 1_555 1_555
C18_25 C35_25 1_555 1_555
C19_25 N2_25 1_555 1_555
H20_25 C19_25 1_555 1_555
C20_25 H21_25 1_555 1_555
C21_25 H22_25 1_555 1_555
H23_25 C21_25 1_555 1_555
H24_25 C21_25 1_555 1_555
C22_25 H25_25 1_555 1_555
C23_25 C20_25 1_555 1_555
H26_25 C23_25 1_555 1_555
C24_25 C26_25 1_555 1_555
C25_25 N10_25 1_555 1_555
H27_25 C25_25 1_555 1_555
C26_25 C23_25 1_555 1_555
C27_25 C20_25 1_555 1_555
C28_25 H28_25 1_555 1_555
C29_25 N7_13 1_555 1_555
H29_25 C29_25 1_555 1_555
C30_25 C28_25 1_555 1_555
H30_25 C30_25 1_555 1_555
C31_25 N6_25 1_555 1_555
H31_25 C31_25 1_555 1_555
C32_25 N4_25 1_555 1_555
H32_25 C32_25 1_555 1_555
C33_25 O5_25 1_555 1_555
C34_25 N14_15 1_555 1_555
C35_25 H33_25 1_555 1_555
H34_25 C35_25 1_555 1_555
H35_25 C35_25 1_555 1_555
C36_25 N11_25 1_555 1_555
H36_25 C36_25 1_555 1_555
C37_25 N3_25 1_555 1_555
H37_25 C37_25 1_555 1_555
C38_25 C22_25 1_555 1_555
H38_25 C38_25 1_555 1_555
B1_25 N1_25 1_555 1_555
B2_25 N4_25 1_555 1_555
Zn3_13 N7_13 1_555 1_555
N13_13 Zn1_13 1_555 1_555
N3_25 B1_25 1_555 1_555
N9_25 C34_25 1_555 1_555
N9_25 B2_25 1_555 1_555
N10_25 B2_25 1_555 1_555
N11_25 B1_25 1_555 1_555
C9_25 C36_25 1_555 1_555
C11_25 C37_25 1_555 1_555
C12_25 C19_25 1_555 1_555
C13_25 C33_25 1_555 1_555
C14_25 C33_25 1_555 1_555
C21_25 C34_25 1_555 1_555
C22_25 C27_25 1_555 1_555
C25_25 C29_25 1_555 1_555
C26_25 C38_25 1_555 1_555
C31_25 C32_25 1_555 1_555
O6_15 C24_26 1_555 1_555
O4_26 C24_26 1_555 1_555
O5_26 C27_26 1_555 1_555
H2_26 C6_26 1_555 1_555
C13_26 C6_26 1_555 1_555
H9_26 C13_26 1_555 1_555
H10_26 C14_26 1_555 1_555
C20_26 H21_26 1_555 1_555
C22_26 H25_26 1_555 1_555
C23_26 C20_26 1_555 1_555
H26_26 C23_26 1_555 1_555
C24_26 C26_26 1_555 1_555
C26_26 C23_26 1_555 1_555
C27_26 C20_26 1_555 1_555
C33_26 O5_26 1_555 1_555
C38_26 C22_26 1_555 1_555
H38_26 C38_26 1_555 1_555
C13_26 C33_26 1_555 1_555
C14_26 C33_26 1_555 1_555
C22_26 C27_26 1_555 1_555
C26_26 C38_26 1_555 1_555
Zn1_14 O1_26 1_555 1_555
Zn6_7 N5_26 1_555 1_555
O1_26 C1_26 1_555 1_555
O3_26 C1_26 1_555 1_555
N1_26 C2_26 1_555 1_555
N2_26 Zn1_14 1_555 1_555
N3_26 C4_26 1_555 1_555
N4_26 C7_26 1_555 1_555
N5_26 C4_26 1_555 1_555
N6_26 Zn1_14 1_555 1_555
N13_13 C18_26 1_555 1_555
N14_13 C30_26 1_555 1_555
N9_26 C28_26 1_555 1_555
N10_26 C18_26 1_555 1_555
N11_26 C10_26 1_555 1_555
N15_9 C9_26 1_555 1_555
C1_26 C3_26 1_555 1_555
C2_26 N2_26 1_555 1_555
C3_26 C5_26 1_555 1_555
C4_26 C15_26 1_555 1_555
C5_26 H1_26 1_555 1_555
C7_26 N6_26 1_555 1_555
C8_26 C2_26 1_555 1_555
H3_26 C8_26 1_555 1_555
H4_26 C8_26 1_555 1_555
H5_26 C8_26 1_555 1_555
C9_26 H6_26 1_555 1_555
C10_26 N15_9 1_555 1_555
C11_26 N5_26 1_555 1_555
H7_26 C11_26 1_555 1_555
C12_26 N1_26 1_555 1_555
H8_26 C12_26 1_555 1_555
C15_26 H11_26 1_555 1_555
H12_26 C15_26 1_555 1_555
H13_26 C15_26 1_555 1_555
C16_26 C7_26 1_555 1_555
H14_26 C16_26 1_555 1_555
H15_26 C16_26 1_555 1_555
H16_26 C16_26 1_555 1_555
C17_26 C10_26 1_555 1_555
H18_26 C17_26 1_555 1_555
H19_26 C17_26 1_555 1_555
C18_26 C35_26 1_555 1_555
C19_26 N2_26 1_555 1_555
H20_26 C19_26 1_555 1_555
C21_26 H22_26 1_555 1_555
H23_26 C21_26 1_555 1_555
H24_26 C21_26 1_555 1_555
C25_26 N10_26 1_555 1_555
H27_26 C25_26 1_555 1_555
C28_26 H28_26 1_555 1_555
C29_26 N13_13 1_555 1_555
H29_26 C29_26 1_555 1_555
C30_26 C28_26 1_555 1_555
H30_26 C30_26 1_555 1_555
C31_26 N6_26 1_555 1_555
H31_26 C31_26 1_555 1_555
C32_26 N4_26 1_555 1_555
H32_26 C32_26 1_555 1_555
C34_26 N14_13 1_555 1_555
C35_26 H33_26 1_555 1_555
H34_26 C35_26 1_555 1_555
H35_26 C35_26 1_555 1_555
C36_26 N11_26 1_555 1_555
H36_26 C36_26 1_555 1_555
C37_26 N3_26 1_555 1_555
H37_26 C37_26 1_555 1_555
B1_26 N1_26 1_555 1_555
B2_26 N4_26 1_555 1_555
N13_14 Zn1_14 1_555 1_555
N3_26 B1_26 1_555 1_555
N9_26 C34_26 1_555 1_555
N9_26 B2_26 1_555 1_555
N10_26 B2_26 1_555 1_555
N11_26 B1_26 1_555 1_555
C9_26 C36_26 1_555 1_555
C11_26 C37_26 1_555 1_555
C12_26 C19_26 1_555 1_555
C21_26 C34_26 1_555 1_555
C25_26 C29_26 1_555 1_555
C31_26 C32_26 1_555 1_555
Zn3_13 O1_27 1_555 1_555
O1_27 C1_27 1_555 1_555
O3_27 C1_27 1_555 1_555
N1_27 C2_27 1_555 1_555
N2_27 Zn3_13 1_555 1_555
N3_27 C4_27 1_555 1_555
N4_27 C7_27 1_555 1_555
N5_27 C4_27 1_555 1_555
N6_27 Zn3_13 1_555 1_555
N13_14 C18_27 1_555 1_555
N14_14 C30_27 1_555 1_555
N9_27 C28_27 1_555 1_555
N10_27 C18_27 1_555 1_555
N11_27 C10_27 1_555 1_555
N15_7 C9_27 1_555 1_555
C1_27 C3_27 1_555 1_555
C2_27 N2_27 1_555 1_555
C3_27 C5_27 1_555 1_555
C4_27 C15_27 1_555 1_555
C5_27 H1_27 1_555 1_555
C7_27 N6_27 1_555 1_555
C8_27 C2_27 1_555 1_555
H3_27 C8_27 1_555 1_555
H4_27 C8_27 1_555 1_555
H5_27 C8_27 1_555 1_555
C9_27 H6_27 1_555 1_555
C10_27 N15_7 1_555 1_555
C11_27 N5_27 1_555 1_555
H7_27 C11_27 1_555 1_555
C12_27 N1_27 1_555 1_555
H8_27 C12_27 1_555 1_555
C15_27 H11_27 1_555 1_555
H12_27 C15_27 1_555 1_555
H13_27 C15_27 1_555 1_555
C16_27 C7_27 1_555 1_555
H14_27 C16_27 1_555 1_555
H15_27 C16_27 1_555 1_555
H16_27 C16_27 1_555 1_555
C17_27 C10_27 1_555 1_555
H18_27 C17_27 1_555 1_555
H19_27 C17_27 1_555 1_555
C18_27 C35_27 1_555 1_555
C19_27 N2_27 1_555 1_555
H20_27 C19_27 1_555 1_555
C21_27 H22_27 1_555 1_555
H23_27 C21_27 1_555 1_555
H24_27 C21_27 1_555 1_555
C25_27 N10_27 1_555 1_555
H27_27 C25_27 1_555 1_555
C28_27 H28_27 1_555 1_555
C29_27 N13_14 1_555 1_555
H29_27 C29_27 1_555 1_555
C30_27 C28_27 1_555 1_555
H30_27 C30_27 1_555 1_555
C31_27 N6_27 1_555 1_555
H31_27 C31_27 1_555 1_555
C32_27 N4_27 1_555 1_555
H32_27 C32_27 1_555 1_555
C34_27 N14_14 1_555 1_555
C35_27 H33_27 1_555 1_555
H34_27 C35_27 1_555 1_555
H35_27 C35_27 1_555 1_555
C36_27 N11_27 1_555 1_555
H36_27 C36_27 1_555 1_555
C37_27 N3_27 1_555 1_555
H37_27 C37_27 1_555 1_555
B1_27 N1_27 1_555 1_555
B2_27 N4_27 1_555 1_555
N3_27 B1_27 1_555 1_555
N9_27 C34_27 1_555 1_555
N9_27 B2_27 1_555 1_555
N10_27 B2_27 1_555 1_555
N11_27 B1_27 1_555 1_555
C9_27 C36_27 1_555 1_555
C11_27 C37_27 1_555 1_555
C12_27 C19_27 1_555 1_555
C21_27 C34_27 1_555 1_555
C25_27 C29_27 1_555 1_555
C31_27 C32_27 1_555 1_555
O6_13 C24_27 1_555 1_555
O4_27 C24_27 1_555 1_555
O5_27 C27_27 1_555 1_555
H2_27 C6_27 1_555 1_555
C13_27 C6_27 1_555 1_555
H9_27 C13_27 1_555 1_555
H10_27 C14_27 1_555 1_555
C20_27 H21_27 1_555 1_555
C22_27 H25_27 1_555 1_555
C23_27 C20_27 1_555 1_555
H26_27 C23_27 1_555 1_555
C24_27 C26_27 1_555 1_555
C26_27 C23_27 1_555 1_555
C27_27 C20_27 1_555 1_555
C33_27 O5_27 1_555 1_555
C38_27 C22_27 1_555 1_555
H38_27 C38_27 1_555 1_555
C13_27 C33_27 1_555 1_555
C14_27 C33_27 1_555 1_555
C22_27 C27_27 1_555 1_555
C26_27 C38_27 1_555 1_555
Zn1_15 O1_28 1_555 1_555
O1_28 C1_28 1_555 1_555
O3_28 C1_28 1_555 1_555
N1_28 C2_28 1_555 1_555
N2_28 Zn1_15 1_555 1_555
N4_28 C7_28 1_555 1_555
N6_28 Zn1_15 1_555 1_555
N7_14 C18_28 1_555 1_555
N8_16 C30_28 1_555 1_555
N9_28 C28_28 1_555 1_555
N10_28 C18_28 1_555 1_555
N15_6 C9_28 1_555 1_555
C1_28 C3_28 1_555 1_555
C2_28 N2_28 1_555 1_555
C3_28 C5_28 1_555 1_555
C5_28 H1_28 1_555 1_555
C6_28 C3_28 1_555 1_555
C7_28 N6_28 1_555 1_555
C8_28 C2_28 1_555 1_555
H5_28 C8_28 1_555 1_555
C9_28 H6_28 1_555 1_555
C11_28 N5_28 1_555 1_555
H7_28 C11_28 1_555 1_555
C12_28 N1_28 1_555 1_555
H8_28 C12_28 1_555 1_555
C14_28 C5_28 1_555 1_555
H10_28 C14_28 1_555 1_555
C16_28 C7_28 1_555 1_555
H14_28 C16_28 1_555 1_555
H15_28 C16_28 1_555 1_555
H16_28 C16_28 1_555 1_555
C18_28 C35_28 1_555 1_555
C19_28 N2_28 1_555 1_555
H20_28 C19_28 1_555 1_555
H23_28 C21_28 1_555 1_555
H24_28 C21_28 1_555 1_555
C25_28 N10_28 1_555 1_555
H27_28 C25_28 1_555 1_555
C28_28 H28_28 1_555 1_555
C29_28 N7_14 1_555 1_555
H29_28 C29_28 1_555 1_555
C30_28 C28_28 1_555 1_555
H30_28 C30_28 1_555 1_555
C31_28 N6_28 1_555 1_555
H31_28 C31_28 1_555 1_555
C32_28 N4_28 1_555 1_555
H32_28 C32_28 1_555 1_555
C34_28 N8_16 1_555 1_555
C35_28 H33_28 1_555 1_555
H34_28 C35_28 1_555 1_555
H35_28 C35_28 1_555 1_555
C36_28 N11_28 1_555 1_555
H36_28 C36_28 1_555 1_555
C37_28 N3_28 1_555 1_555
H37_28 C37_28 1_555 1_555
B1_28 N1_28 1_555 1_555
B2_28 N4_28 1_555 1_555
Zn3_14 N7_14 1_555 1_555
Zn6 N8_16 1_555 1_555
N13_15 Zn1_15 1_555 1_555
N3_28 B1_28 1_555 1_555
N9_28 C34_28 1_555 1_555
N9_28 B2_28 1_555 1_555
N10_28 B2_28 1_555 1_555
N11_28 B1_28 1_555 1_555
C9_28 C36_28 1_555 1_555
C11_28 C37_28 1_555 1_555
C12_28 C19_28 1_555 1_555
C14_28 C33_28 1_555 1_555
C21_28 C34_28 1_555 1_555
C25_28 C29_28 1_555 1_555
C31_28 C32_28 1_555 1_555
O2_16 C24_28 1_555 1_555
O4_28 C24_28 1_555 1_555
O5_28 C27_28 1_555 1_555
C4_28 C15_28 1_555 1_555
H9_28 C13_28 1_555 1_555
C15_28 H11_28 1_555 1_555
H12_28 C15_28 1_555 1_555
H13_28 C15_28 1_555 1_555
C17_28 C10_28 1_555 1_555
H17_28 C17_28 1_555 1_555
H18_28 C17_28 1_555 1_555
H19_28 C17_28 1_555 1_555
C20_28 H21_28 1_555 1_555
C22_28 H25_28 1_555 1_555
C23_28 C20_28 1_555 1_555
H26_28 C23_28 1_555 1_555
C24_28 C26_28 1_555 1_555
C26_28 C23_28 1_555 1_555
C27_28 C20_28 1_555 1_555
C38_28 C22_28 1_555 1_555
H38_28 C38_28 1_555 1_555
Zn6_2 O2_16 1_555 1_555
N14_16 Zn6_5 1_555 1_555
C22_28 C27_28 1_555 1_555
C26_28 C38_28 1_555 1_555
Zn3_14 O1_29 1_555 1_555
Zn6_6 N5_29 1_555 1_555
O1_29 C1_29 1_555 1_555
O2_17 C24_29 1_555 1_555
O3_29 C1_29 1_555 1_555
O5_29 C27_29 1_555 1_555
N1_29 C2_29 1_555 1_555
N2_29 Zn3_14 1_555 1_555
N3_29 C4_29 1_555 1_555
N4_29 C7_29 1_555 1_555
N5_29 C4_29 1_555 1_555
N6_29 Zn3_14 1_555 1_555
N7_15 C18_29 1_555 1_555
N8_17 C30_29 1_555 1_555
N9_29 C28_29 1_555 1_555
N10_29 C18_29 1_555 1_555
N11_29 C10_29 1_555 1_555
N15_4 C9_29 1_555 1_555
C1_29 C3_29 1_555 1_555
C2_29 N2_29 1_555 1_555
C3_29 C5_29 1_555 1_555
C4_29 C15_29 1_555 1_555
C5_29 H1_29 1_555 1_555
C6_29 C3_29 1_555 1_555
H2_29 C6_29 1_555 1_555
C7_29 N6_29 1_555 1_555
C8_29 C2_29 1_555 1_555
H3_29 C8_29 1_555 1_555
H4_29 C8_29 1_555 1_555
H5_29 C8_29 1_555 1_555
C9_29 H6_29 1_555 1_555
C10_29 N15_4 1_555 1_555
C11_29 N5_29 1_555 1_555
H7_29 C11_29 1_555 1_555
C12_29 N1_29 1_555 1_555
H8_29 C12_29 1_555 1_555
C13_29 C6_29 1_555 1_555
H9_29 C13_29 1_555 1_555
C14_29 C5_29 1_555 1_555
H10_29 C14_29 1_555 1_555
C15_29 H11_29 1_555 1_555
H12_29 C15_29 1_555 1_555
H13_29 C15_29 1_555 1_555
C16_29 C7_29 1_555 1_555
H14_29 C16_29 1_555 1_555
H15_29 C16_29 1_555 1_555
H16_29 C16_29 1_555 1_555
C17_29 C10_29 1_555 1_555
H17_29 C17_29 1_555 1_555
H18_29 C17_29 1_555 1_555
H19_29 C17_29 1_555 1_555
C18_29 C35_29 1_555 1_555
C19_29 N2_29 1_555 1_555
H20_29 C19_29 1_555 1_555
C20_29 H21_29 1_555 1_555
C21_29 H22_29 1_555 1_555
H23_29 C21_29 1_555 1_555
H24_29 C21_29 1_555 1_555
C22_29 H25_29 1_555 1_555
C23_29 C20_29 1_555 1_555
H26_29 C23_29 1_555 1_555
C24_29 C26_29 1_555 1_555
C25_29 N10_29 1_555 1_555
H27_29 C25_29 1_555 1_555
C26_29 C23_29 1_555 1_555
C27_29 C20_29 1_555 1_555
C28_29 H28_29 1_555 1_555
C29_29 N7_15 1_555 1_555
H29_29 C29_29 1_555 1_555
C30_29 C28_29 1_555 1_555
H30_29 C30_29 1_555 1_555
C31_29 N6_29 1_555 1_555
H31_29 C31_29 1_555 1_555
C32_29 N4_29 1_555 1_555
H32_29 C32_29 1_555 1_555
C33_29 O5_29 1_555 1_555
C34_29 N8_17 1_555 1_555
C35_29 H33_29 1_555 1_555
H34_29 C35_29 1_555 1_555
H35_29 C35_29 1_555 1_555
C36_29 N11_29 1_555 1_555
H36_29 C36_29 1_555 1_555
C37_29 N3_29 1_555 1_555
H37_29 C37_29 1_555 1_555
C38_29 C22_29 1_555 1_555
H38_29 C38_29 1_555 1_555
B1_29 N1_29 1_555 1_555
B2_29 N4_29 1_555 1_555
Zn3_15 N7_15 1_555 1_555
Zn6_2 N8_17 1_555 1_555
O6_17 Zn6_6 1_555 1_555
N14_17 Zn6_6 1_555 1_555
N3_29 B1_29 1_555 1_555
N9_29 C34_29 1_555 1_555
N9_29 B2_29 1_555 1_555
N10_29 B2_29 1_555 1_555
N11_29 B1_29 1_555 1_555
C9_29 C36_29 1_555 1_555
C11_29 C37_29 1_555 1_555
C12_29 C19_29 1_555 1_555
C13_29 C33_29 1_555 1_555
C14_29 C33_29 1_555 1_555
C21_29 C34_29 1_555 1_555
C22_29 C27_29 1_555 1_555
C25_29 C29_29 1_555 1_555
C26_29 C38_29 1_555 1_555
C31_29 C32_29 1_555 1_555
O2_18 C24_30 1_555 1_555
O5_30 C27_30 1_555 1_555
C4_30 C15_30 1_555 1_555
H9_30 C13_30 1_555 1_555
C15_30 H11_30 1_555 1_555
H12_30 C15_30 1_555 1_555
H13_30 C15_30 1_555 1_555
C17_30 C10_30 1_555 1_555
H17_30 C17_30 1_555 1_555
H18_30 C17_30 1_555 1_555
H19_30 C17_30 1_555 1_555
C20_30 H21_30 1_555 1_555
C22_30 H25_30 1_555 1_555
C23_30 C20_30 1_555 1_555
H26_30 C23_30 1_555 1_555
C24_30 C26_30 1_555 1_555
C26_30 C23_30 1_555 1_555
C27_30 C20_30 1_555 1_555
C38_30 C22_30 1_555 1_555
H38_30 C38_30 1_555 1_555
N14_18 Zn6_4 1_555 1_555
C22_30 C27_30 1_555 1_555
C26_30 C38_30 1_555 1_555
Zn3_15 O1_30 1_555 1_555
O1_30 C1_30 1_555 1_555
O3_30 C1_30 1_555 1_555
N1_30 C2_30 1_555 1_555
N2_30 Zn3_15 1_555 1_555
N4_30 C7_30 1_555 1_555
N6_30 Zn3_15 1_555 1_555
N13_15 C18_30 1_555 1_555
N8_18 C30_30 1_555 1_555
N9_30 C28_30 1_555 1_555
N10_30 C18_30 1_555 1_555
N15_5 C9_30 1_555 1_555
C1_30 C3_30 1_555 1_555
C2_30 N2_30 1_555 1_555
C3_30 C5_30 1_555 1_555
C5_30 H1_30 1_555 1_555
C6_30 C3_30 1_555 1_555
C7_30 N6_30 1_555 1_555
C8_30 C2_30 1_555 1_555
H5_30 C8_30 1_555 1_555
C9_30 H6_30 1_555 1_555
C11_30 N5_30 1_555 1_555
H7_30 C11_30 1_555 1_555
C12_30 N1_30 1_555 1_555
H8_30 C12_30 1_555 1_555
C14_30 C5_30 1_555 1_555
H10_30 C14_30 1_555 1_555
C16_30 C7_30 1_555 1_555
H14_30 C16_30 1_555 1_555
H15_30 C16_30 1_555 1_555
H16_30 C16_30 1_555 1_555
C18_30 C35_30 1_555 1_555
C19_30 N2_30 1_555 1_555
H20_30 C19_30 1_555 1_555
H23_30 C21_30 1_555 1_555
H24_30 C21_30 1_555 1_555
C25_30 N10_30 1_555 1_555
H27_30 C25_30 1_555 1_555
C28_30 H28_30 1_555 1_555
C29_30 N13_15 1_555 1_555
H29_30 C29_30 1_555 1_555
C30_30 C28_30 1_555 1_555
H30_30 C30_30 1_555 1_555
C31_30 N6_30 1_555 1_555
H31_30 C31_30 1_555 1_555
C32_30 N4_30 1_555 1_555
H32_30 C32_30 1_555 1_555
C34_30 N8_18 1_555 1_555
C35_30 H33_30 1_555 1_555
H34_30 C35_30 1_555 1_555
H35_30 C35_30 1_555 1_555
C36_30 N11_30 1_555 1_555
H36_30 C36_30 1_555 1_555
C37_30 N3_30 1_555 1_555
H37_30 C37_30 1_555 1_555
B1_30 N1_30 1_555 1_555
B2_30 N4_30 1_555 1_555
Zn6_3 N8_18 1_555 1_555
N3_30 B1_30 1_555 1_555
N9_30 C34_30 1_555 1_555
N9_30 B2_30 1_555 1_555
N10_30 B2_30 1_555 1_555
N11_30 B1_30 1_555 1_555
C9_30 C36_30 1_555 1_555
C11_30 C37_30 1_555 1_555
C12_30 C19_30 1_555 1_555
C14_30 C33_30 1_555 1_555
C21_30 C34_30 1_555 1_555
C25_30 C29_30 1_555 1_555
C31_30 C32_30 1_555 1_555
Zn1_16 O1_31 1_555 1_555
O1_31 C1_31 1_555 1_555
O3_31 C1_31 1_555 1_555
N1_31 C2_31 1_555 1_555
N2_31 Zn1_16 1_555 1_555
N4_31 C7_31 1_555 1_555
N6_31 Zn1_16 1_555 1_555
N7_16 C18_31 1_555 1_555
N14_18 C30_31 1_555 1_555
N9_31 C28_31 1_555 1_555
N10_31 C18_31 1_555 1_555
N15_2 C9_31 1_555 1_555
C1_31 C3_31 1_555 1_555
C2_31 N2_31 1_555 1_555
C3_31 C5_31 1_555 1_555
C5_31 H1_31 1_555 1_555
C6_31 C3_31 1_555 1_555
C7_31 N6_31 1_555 1_555
C8_31 C2_31 1_555 1_555
H5_31 C8_31 1_555 1_555
C9_31 H6_31 1_555 1_555
C11_31 N5_31 1_555 1_555
H7_31 C11_31 1_555 1_555
C12_31 N1_31 1_555 1_555
H8_31 C12_31 1_555 1_555
C14_31 C5_31 1_555 1_555
H10_31 C14_31 1_555 1_555
C16_31 C7_31 1_555 1_555
H14_31 C16_31 1_555 1_555
H15_31 C16_31 1_555 1_555
H16_31 C16_31 1_555 1_555
C18_31 C35_31 1_555 1_555
C19_31 N2_31 1_555 1_555
H20_31 C19_31 1_555 1_555
H23_31 C21_31 1_555 1_555
H24_31 C21_31 1_555 1_555
C25_31 N10_31 1_555 1_555
H27_31 C25_31 1_555 1_555
C28_31 H28_31 1_555 1_555
C29_31 N7_16 1_555 1_555
H29_31 C29_31 1_555 1_555
C30_31 C28_31 1_555 1_555
H30_31 C30_31 1_555 1_555
C31_31 N6_31 1_555 1_555
H31_31 C31_31 1_555 1_555
C32_31 N4_31 1_555 1_555
H32_31 C32_31 1_555 1_555
C34_31 N14_18 1_555 1_555
C35_31 H33_31 1_555 1_555
H34_31 C35_31 1_555 1_555
H35_31 C35_31 1_555 1_555
C36_31 N11_31 1_555 1_555
H36_31 C36_31 1_555 1_555
C37_31 N3_31 1_555 1_555
H37_31 C37_31 1_555 1_555
B1_31 N1_31 1_555 1_555
B2_31 N4_31 1_555 1_555
Zn3_16 N7_16 1_555 1_555
N13_16 Zn1_16 1_555 1_555
N3_31 B1_31 1_555 1_555
N9_31 C34_31 1_555 1_555
N9_31 B2_31 1_555 1_555
N10_31 B2_31 1_555 1_555
N11_31 B1_31 1_555 1_555
C9_31 C36_31 1_555 1_555
C11_31 C37_31 1_555 1_555
C12_31 C19_31 1_555 1_555
C14_31 C33_31 1_555 1_555
C21_31 C34_31 1_555 1_555
C25_31 C29_31 1_555 1_555
C31_31 C32_31 1_555 1_555
O6_17 C24_31 1_555 1_555
O4_31 C24_31 1_555 1_555
O5_31 C27_31 1_555 1_555
C4_31 C15_31 1_555 1_555
H9_31 C13_31 1_555 1_555
C15_31 H11_31 1_555 1_555
H12_31 C15_31 1_555 1_555
H13_31 C15_31 1_555 1_555
C17_31 C10_31 1_555 1_555
H17_31 C17_31 1_555 1_555
H18_31 C17_31 1_555 1_555
H19_31 C17_31 1_555 1_555
C20_31 H21_31 1_555 1_555
C22_31 H25_31 1_555 1_555
C23_31 C20_31 1_555 1_555
H26_31 C23_31 1_555 1_555
C24_31 C26_31 1_555 1_555
C26_31 C23_31 1_555 1_555
C27_31 C20_31 1_555 1_555
C38_31 C22_31 1_555 1_555
H38_31 C38_31 1_555 1_555
C22_31 C27_31 1_555 1_555
C26_31 C38_31 1_555 1_555
O6_18 C24_32 1_555 1_555
O5_32 C27_32 1_555 1_555
C4_32 C15_32 1_555 1_555
H9_32 C13_32 1_555 1_555
C15_32 H11_32 1_555 1_555
H12_32 C15_32 1_555 1_555
H13_32 C15_32 1_555 1_555
C17_32 C10_32 1_555 1_555
H17_32 C17_32 1_555 1_555
H18_32 C17_32 1_555 1_555
H19_32 C17_32 1_555 1_555
C20_32 H21_32 1_555 1_555
C22_32 H25_32 1_555 1_555
C23_32 C20_32 1_555 1_555
H26_32 C23_32 1_555 1_555
C24_32 C26_32 1_555 1_555
C26_32 C23_32 1_555 1_555
C27_32 C20_32 1_555 1_555
C38_32 C22_32 1_555 1_555
H38_32 C38_32 1_555 1_555
C22_32 C27_32 1_555 1_555
C26_32 C38_32 1_555 1_555
Zn1_17 O1_32 1_555 1_555
O1_32 C1_32 1_555 1_555
O3_32 C1_32 1_555 1_555
N1_32 C2_32 1_555 1_555
N2_32 Zn1_17 1_555 1_555
N4_32 C7_32 1_555 1_555
N6_32 Zn1_17 1_555 1_555
N13_16 C18_32 1_555 1_555
N14_16 C30_32 1_555 1_555
N9_32 C28_32 1_555 1_555
N10_32 C18_32 1_555 1_555
N15_3 C9_32 1_555 1_555
C1_32 C3_32 1_555 1_555
C2_32 N2_32 1_555 1_555
C3_32 C5_32 1_555 1_555
C5_32 H1_32 1_555 1_555
C6_32 C3_32 1_555 1_555
C7_32 N6_32 1_555 1_555
C8_32 C2_32 1_555 1_555
H5_32 C8_32 1_555 1_555
C9_32 H6_32 1_555 1_555
C11_32 N5_32 1_555 1_555
H7_32 C11_32 1_555 1_555
C12_32 N1_32 1_555 1_555
H8_32 C12_32 1_555 1_555
C14_32 C5_32 1_555 1_555
H10_32 C14_32 1_555 1_555
C16_32 C7_32 1_555 1_555
H14_32 C16_32 1_555 1_555
H15_32 C16_32 1_555 1_555
H16_32 C16_32 1_555 1_555
C18_32 C35_32 1_555 1_555
C19_32 N2_32 1_555 1_555
H20_32 C19_32 1_555 1_555
H23_32 C21_32 1_555 1_555
H24_32 C21_32 1_555 1_555
C25_32 N10_32 1_555 1_555
H27_32 C25_32 1_555 1_555
C28_32 H28_32 1_555 1_555
C29_32 N13_16 1_555 1_555
H29_32 C29_32 1_555 1_555
C30_32 C28_32 1_555 1_555
H30_32 C30_32 1_555 1_555
C31_32 N6_32 1_555 1_555
H31_32 C31_32 1_555 1_555
C32_32 N4_32 1_555 1_555
H32_32 C32_32 1_555 1_555
C34_32 N14_16 1_555 1_555
C35_32 H33_32 1_555 1_555
H34_32 C35_32 1_555 1_555
H35_32 C35_32 1_555 1_555
C36_32 N11_32 1_555 1_555
H36_32 C36_32 1_555 1_555
C37_32 N3_32 1_555 1_555
H37_32 C37_32 1_555 1_555
B1_32 N1_32 1_555 1_555
B2_32 N4_32 1_555 1_555
N13_17 Zn1_17 1_555 1_555
N3_32 B1_32 1_555 1_555
N9_32 C34_32 1_555 1_555
N9_32 B2_32 1_555 1_555
N10_32 B2_32 1_555 1_555
N11_32 B1_32 1_555 1_555
C9_32 C36_32 1_555 1_555
C11_32 C37_32 1_555 1_555
C12_32 C19_32 1_555 1_555
C14_32 C33_32 1_555 1_555
C21_32 C34_32 1_555 1_555
C25_32 C29_32 1_555 1_555
C31_32 C32_32 1_555 1_555
Zn3_16 O1_33 1_555 1_555
Zn6_2 N5_33 1_555 1_555
O1_33 C1_33 1_555 1_555
O6_16 C24_33 1_555 1_555
O3_33 C1_33 1_555 1_555
O5_33 C27_33 1_555 1_555
N1_33 C2_33 1_555 1_555
N2_33 Zn3_16 1_555 1_555
N3_33 C4_33 1_555 1_555
N4_33 C7_33 1_555 1_555
N5_33 C4_33 1_555 1_555
N6_33 Zn3_16 1_555 1_555
N13_17 C18_33 1_555 1_555
N14_17 C30_33 1_555 1_555
N9_33 C28_33 1_555 1_555
N10_33 C18_33 1_555 1_555
N11_33 C10_33 1_555 1_555
N15 C9_33 1_555 1_555
C1_33 C3_33 1_555 1_555
C2_33 N2_33 1_555 1_555
C3_33 C5_33 1_555 1_555
C4_33 C15_33 1_555 1_555
C5_33 H1_33 1_555 1_555
C6_33 C3_33 1_555 1_555
H2_33 C6_33 1_555 1_555
C7_33 N6_33 1_555 1_555
C8_33 C2_33 1_555 1_555
H3_33 C8_33 1_555 1_555
H4_33 C8_33 1_555 1_555
H5_33 C8_33 1_555 1_555
C9_33 H6_33 1_555 1_555
C10_33 N15 1_555 1_555
C11_33 N5_33 1_555 1_555
H7_33 C11_33 1_555 1_555
C12_33 N1_33 1_555 1_555
H8_33 C12_33 1_555 1_555
C13_33 C6_33 1_555 1_555
H9_33 C13_33 1_555 1_555
C14_33 C5_33 1_555 1_555
H10_33 C14_33 1_555 1_555
C15_33 H11_33 1_555 1_555
H12_33 C15_33 1_555 1_555
H13_33 C15_33 1_555 1_555
C16_33 C7_33 1_555 1_555
H14_33 C16_33 1_555 1_555
H15_33 C16_33 1_555 1_555
H16_33 C16_33 1_555 1_555
C17_33 C10_33 1_555 1_555
H17_33 C17_33 1_555 1_555
H18_33 C17_33 1_555 1_555
H19_33 C17_33 1_555 1_555
C18_33 C35_33 1_555 1_555
C19_33 N2_33 1_555 1_555
H20_33 C19_33 1_555 1_555
C20_33 H21_33 1_555 1_555
C21_33 H22_33 1_555 1_555
H23_33 C21_33 1_555 1_555
H24_33 C21_33 1_555 1_555
C22_33 H25_33 1_555 1_555
C23_33 C20_33 1_555 1_555
H26_33 C23_33 1_555 1_555
C24_33 C26_33 1_555 1_555
C25_33 N10_33 1_555 1_555
H27_33 C25_33 1_555 1_555
C26_33 C23_33 1_555 1_555
C27_33 C20_33 1_555 1_555
C28_33 H28_33 1_555 1_555
C29_33 N13_17 1_555 1_555
H29_33 C29_33 1_555 1_555
C30_33 C28_33 1_555 1_555
H30_33 C30_33 1_555 1_555
C31_33 N6_33 1_555 1_555
H31_33 C31_33 1_555 1_555
C32_33 N4_33 1_555 1_555
H32_33 C32_33 1_555 1_555
C33_33 O5_33 1_555 1_555
C34_33 N14_17 1_555 1_555
C35_33 H33_33 1_555 1_555
H34_33 C35_33 1_555 1_555
H35_33 C35_33 1_555 1_555
C36_33 N11_33 1_555 1_555
H36_33 C36_33 1_555 1_555
C37_33 N3_33 1_555 1_555
H37_33 C37_33 1_555 1_555
C38_33 C22_33 1_555 1_555
H38_33 C38_33 1_555 1_555
B1_33 N1_33 1_555 1_555
B2_33 N4_33 1_555 1_555
N3_33 B1_33 1_555 1_555
N9_33 C34_33 1_555 1_555
N9_33 B2_33 1_555 1_555
N10_33 B2_33 1_555 1_555
N11_33 B1_33 1_555 1_555
C9_33 C36_33 1_555 1_555
C11_33 C37_33 1_555 1_555
C12_33 C19_33 1_555 1_555
C13_33 C33_33 1_555 1_555
C14_33 C33_33 1_555 1_555
C21_33 C34_33 1_555 1_555
C22_33 C27_33 1_555 1_555
C25_33 C29_33 1_555 1_555
C26_33 C38_33 1_555 1_555
C31_33 C32_33 1_555 1_555
N15_18 C9_34 1_555 1_555
C9_34 H6_34 1_555 1_555
C10_34 N15_18 1_555 1_555
H36_34 C36_34 1_555 1_555
C9_34 C36_34 1_555 1_555
Zn1_18 O1_34 1_555 1_555
O1_34 C1_34 1_555 1_555
O6_12 C24_34 1_555 1_555
O3_34 C1_34 1_555 1_555
O4_34 C24_34 1_555 1_555
O5_34 C27_34 1_555 1_555
N1_34 C2_34 1_555 1_555
N2_34 Zn1_18 1_555 1_555
N3_34 C4_34 1_555 1_555
N4_34 C7_34 1_555 1_555
N5_34 C4_34 1_555 1_555
N6_34 Zn1_18 1_555 1_555
N7_17 C18_34 1_555 1_555
N14_11 C30_34 1_555 1_555
N9_34 C28_34 1_555 1_555
N10_34 C18_34 1_555 1_555
C1_34 C3_34 1_555 1_555
C2_34 N2_34 1_555 1_555
C3_34 C5_34 1_555 1_555
C4_34 C15_34 1_555 1_555
C5_34 H1_34 1_555 1_555
C6_34 C3_34 1_555 1_555
H2_34 C6_34 1_555 1_555
C7_34 N6_34 1_555 1_555
C8_34 C2_34 1_555 1_555
H3_34 C8_34 1_555 1_555
H4_34 C8_34 1_555 1_555
H5_34 C8_34 1_555 1_555
C11_34 N5_34 1_555 1_555
H7_34 C11_34 1_555 1_555
C12_34 N1_34 1_555 1_555
H8_34 C12_34 1_555 1_555
C13_34 C6_34 1_555 1_555
H9_34 C13_34 1_555 1_555
C14_34 C5_34 1_555 1_555
H10_34 C14_34 1_555 1_555
C15_34 H11_34 1_555 1_555
H12_34 C15_34 1_555 1_555
H13_34 C15_34 1_555 1_555
C16_34 C7_34 1_555 1_555
H14_34 C16_34 1_555 1_555
H15_34 C16_34 1_555 1_555
H16_34 C16_34 1_555 1_555
H17_34 C17_34 1_555 1_555
H18_34 C17_34 1_555 1_555
H19_34 C17_34 1_555 1_555
C18_34 C35_34 1_555 1_555
C19_34 N2_34 1_555 1_555
H20_34 C19_34 1_555 1_555
C20_34 H21_34 1_555 1_555
C21_34 H22_34 1_555 1_555
H23_34 C21_34 1_555 1_555
H24_34 C21_34 1_555 1_555
C22_34 H25_34 1_555 1_555
C23_34 C20_34 1_555 1_555
H26_34 C23_34 1_555 1_555
C24_34 C26_34 1_555 1_555
C25_34 N10_34 1_555 1_555
H27_34 C25_34 1_555 1_555
C26_34 C23_34 1_555 1_555
C27_34 C20_34 1_555 1_555
C28_34 H28_34 1_555 1_555
C29_34 N7_17 1_555 1_555
H29_34 C29_34 1_555 1_555
C30_34 C28_34 1_555 1_555
H30_34 C30_34 1_555 1_555
C31_34 N6_34 1_555 1_555
H31_34 C31_34 1_555 1_555
C32_34 N4_34 1_555 1_555
H32_34 C32_34 1_555 1_555
C33_34 O5_34 1_555 1_555
C34_34 N14_11 1_555 1_555
C35_34 H33_34 1_555 1_555
H34_34 C35_34 1_555 1_555
H35_34 C35_34 1_555 1_555
C37_34 N3_34 1_555 1_555
H37_34 C37_34 1_555 1_555
C38_34 C22_34 1_555 1_555
H38_34 C38_34 1_555 1_555
B1_34 N1_34 1_555 1_555
B2_34 N4_34 1_555 1_555
Zn3_17 N7_17 1_555 1_555
N13_18 Zn1_18 1_555 1_555
N3_34 B1_34 1_555 1_555
N9_34 C34_34 1_555 1_555
N9_34 B2_34 1_555 1_555
N10_34 B2_34 1_555 1_555
N11_34 B1_34 1_555 1_555
C11_34 C37_34 1_555 1_555
C12_34 C19_34 1_555 1_555
C13_34 C33_34 1_555 1_555
C14_34 C33_34 1_555 1_555
C21_34 C34_34 1_555 1_555
C22_34 C27_34 1_555 1_555
C25_34 C29_34 1_555 1_555
C26_34 C38_34 1_555 1_555
C31_34 C32_34 1_555 1_555
N15_16 C9_35 1_555 1_555
C9_35 H6_35 1_555 1_555
C10_35 N15_16 1_555 1_555
H36_35 C36_35 1_555 1_555
C9_35 C36_35 1_555 1_555
Zn3_17 O1_35 1_555 1_555
O1_35 C1_35 1_555 1_555
O3_35 C1_35 1_555 1_555
N1_35 C2_35 1_555 1_555
N2_35 Zn3_17 1_555 1_555
N3_35 C4_35 1_555 1_555
N4_35 C7_35 1_555 1_555
N5_35 C4_35 1_555 1_555
N6_35 Zn3_17 1_555 1_555
N7_18 C18_35 1_555 1_555
N14_12 C30_35 1_555 1_555
N9_35 C28_35 1_555 1_555
N10_35 C18_35 1_555 1_555
C1_35 C3_35 1_555 1_555
C2_35 N2_35 1_555 1_555
C3_35 C5_35 1_555 1_555
C4_35 C15_35 1_555 1_555
C5_35 H1_35 1_555 1_555
C7_35 N6_35 1_555 1_555
C8_35 C2_35 1_555 1_555
H3_35 C8_35 1_555 1_555
H4_35 C8_35 1_555 1_555
H5_35 C8_35 1_555 1_555
C11_35 N5_35 1_555 1_555
H7_35 C11_35 1_555 1_555
C12_35 N1_35 1_555 1_555
H8_35 C12_35 1_555 1_555
C15_35 H11_35 1_555 1_555
H12_35 C15_35 1_555 1_555
H13_35 C15_35 1_555 1_555
C16_35 C7_35 1_555 1_555
H14_35 C16_35 1_555 1_555
H15_35 C16_35 1_555 1_555
H16_35 C16_35 1_555 1_555
H18_35 C17_35 1_555 1_555
H19_35 C17_35 1_555 1_555
C18_35 C35_35 1_555 1_555
C19_35 N2_35 1_555 1_555
H20_35 C19_35 1_555 1_555
C21_35 H22_35 1_555 1_555
H23_35 C21_35 1_555 1_555
H24_35 C21_35 1_555 1_555
C25_35 N10_35 1_555 1_555
H27_35 C25_35 1_555 1_555
C28_35 H28_35 1_555 1_555
C29_35 N7_18 1_555 1_555
H29_35 C29_35 1_555 1_555
C30_35 C28_35 1_555 1_555
H30_35 C30_35 1_555 1_555
C31_35 N6_35 1_555 1_555
H31_35 C31_35 1_555 1_555
C32_35 N4_35 1_555 1_555
H32_35 C32_35 1_555 1_555
C34_35 N14_12 1_555 1_555
C35_35 H33_35 1_555 1_555
H34_35 C35_35 1_555 1_555
H35_35 C35_35 1_555 1_555
C37_35 N3_35 1_555 1_555
H37_35 C37_35 1_555 1_555
B1_35 N1_35 1_555 1_555
B2_35 N4_35 1_555 1_555
Zn3_18 N7_18 1_555 1_555
N3_35 B1_35 1_555 1_555
N9_35 C34_35 1_555 1_555
N9_35 B2_35 1_555 1_555
N10_35 B2_35 1_555 1_555
N11_35 B1_35 1_555 1_555
C11_35 C37_35 1_555 1_555
C12_35 C19_35 1_555 1_555
C21_35 C34_35 1_555 1_555
C25_35 C29_35 1_555 1_555
C31_35 C32_35 1_555 1_555
O6_10 C24_35 1_555 1_555
O4_35 C24_35 1_555 1_555
O5_35 C27_35 1_555 1_555
H2_35 C6_35 1_555 1_555
C13_35 C6_35 1_555 1_555
H9_35 C13_35 1_555 1_555
H10_35 C14_35 1_555 1_555
C20_35 H21_35 1_555 1_555
C22_35 H25_35 1_555 1_555
C23_35 C20_35 1_555 1_555
H26_35 C23_35 1_555 1_555
C24_35 C26_35 1_555 1_555
C26_35 C23_35 1_555 1_555
C27_35 C20_35 1_555 1_555
C33_35 O5_35 1_555 1_555
C38_35 C22_35 1_555 1_555
H38_35 C38_35 1_555 1_555
C13_35 C33_35 1_555 1_555
C14_35 C33_35 1_555 1_555
C22_35 C27_35 1_555 1_555
C26_35 C38_35 1_555 1_555
O6_11 C24_36 1_555 1_555
O4_36 C24_36 1_555 1_555
O5_36 C27_36 1_555 1_555
H2_36 C6_36 1_555 1_555
C13_36 C6_36 1_555 1_555
H9_36 C13_36 1_555 1_555
H10_36 C14_36 1_555 1_555
C20_36 H21_36 1_555 1_555
C22_36 H25_36 1_555 1_555
C23_36 C20_36 1_555 1_555
H26_36 C23_36 1_555 1_555
C24_36 C26_36 1_555 1_555
C26_36 C23_36 1_555 1_555
C27_36 C20_36 1_555 1_555
C33_36 O5_36 1_555 1_555
C38_36 C22_36 1_555 1_555
H38_36 C38_36 1_555 1_555
C13_36 C33_36 1_555 1_555
C14_36 C33_36 1_555 1_555
C22_36 C27_36 1_555 1_555
C26_36 C38_36 1_555 1_555
N15_17 C9_36 1_555 1_555
C9_36 H6_36 1_555 1_555
C10_36 N15_17 1_555 1_555
H36_36 C36_36 1_555 1_555
C9_36 C36_36 1_555 1_555
Zn3_18 O1_36 1_555 1_555
Zn6_16 N5_36 1_555 1_555
O1_36 C1_36 1_555 1_555
O3_36 C1_36 1_555 1_555
N1_36 C2_36 1_555 1_555
N2_36 Zn3_18 1_555 1_555
N3_36 C4_36 1_555 1_555
N4_36 C7_36 1_555 1_555
N5_36 C4_36 1_555 1_555
N6_36 Zn3_18 1_555 1_555
N13_18 C18_36 1_555 1_555
N14_10 C30_36 1_555 1_555
N9_36 C28_36 1_555 1_555
N10_36 C18_36 1_555 1_555
C1_36 C3_36 1_555 1_555
C2_36 N2_36 1_555 1_555
C3_36 C5_36 1_555 1_555
C4_36 C15_36 1_555 1_555
C5_36 H1_36 1_555 1_555
C7_36 N6_36 1_555 1_555
C8_36 C2_36 1_555 1_555
H3_36 C8_36 1_555 1_555
H4_36 C8_36 1_555 1_555
H5_36 C8_36 1_555 1_555
C11_36 N5_36 1_555 1_555
H7_36 C11_36 1_555 1_555
C12_36 N1_36 1_555 1_555
H8_36 C12_36 1_555 1_555
C15_36 H11_36 1_555 1_555
H12_36 C15_36 1_555 1_555
H13_36 C15_36 1_555 1_555
C16_36 C7_36 1_555 1_555
H14_36 C16_36 1_555 1_555
H15_36 C16_36 1_555 1_555
H16_36 C16_36 1_555 1_555
H18_36 C17_36 1_555 1_555
H19_36 C17_36 1_555 1_555
C18_36 C35_36 1_555 1_555
C19_36 N2_36 1_555 1_555
H20_36 C19_36 1_555 1_555
C21_36 H22_36 1_555 1_555
H23_36 C21_36 1_555 1_555
H24_36 C21_36 1_555 1_555
C25_36 N10_36 1_555 1_555
H27_36 C25_36 1_555 1_555
C28_36 H28_36 1_555 1_555
C29_36 N13_18 1_555 1_555
H29_36 C29_36 1_555 1_555
C30_36 C28_36 1_555 1_555
H30_36 C30_36 1_555 1_555
C31_36 N6_36 1_555 1_555
H31_36 C31_36 1_555 1_555
C32_36 N4_36 1_555 1_555
H32_36 C32_36 1_555 1_555
C34_36 N14_10 1_555 1_555
C35_36 H33_36 1_555 1_555
H34_36 C35_36 1_555 1_555
H35_36 C35_36 1_555 1_555
C37_36 N3_36 1_555 1_555
H37_36 C37_36 1_555 1_555
B1_36 N1_36 1_555 1_555
B2_36 N4_36 1_555 1_555
N3_36 B1_36 1_555 1_555
N9_36 C34_36 1_555 1_555
N9_36 B2_36 1_555 1_555
N10_36 B2_36 1_555 1_555
N11_36 B1_36 1_555 1_555
C11_36 C37_36 1_555 1_555
C12_36 C19_36 1_555 1_555
C21_36 C34_36 1_555 1_555
C25_36 C29_36 1_555 1_555
C31_36 C32_36 1_555 1_555

#END
