
###############################################################################
#
# This file contains modified crystal structure data generated from the
# MOF subset of the Cambridge Structural Database (CSD) v543 
# hosted by the Cambridge Crystallographic Data Centre (CCDC).
#
# This work is licensed under the Creative Commons
# Attribution-NonCommercial-ShareAlike 4.0 International License.
# To view a copy of this license, visit
# http://creativecommons.org/licenses/by-nc-sa/4.0/
# or send a letter to
# Creative Commons, PO Box 1866, Mountain View, CA 94042, USA.
#
# CIF created using the CSD Python API on 29 September 2022
# The structure has been converted into the P1 space group
# The structure has a 3D framework
# The original CSD entry OYODEM is in the tetragonal crystal system
# The framework has been calculated to contain at least 10.0% void space
# The void calculation uses a probe of radius 1.32A, grid spacing 0.4
#
###############################################################################

data_OYODEM
_chemical_formula_moiety         '(C156 H164 B8 N48 O16 Zn8)n'
_symmetry_cell_setting           triclinic
_symmetry_space_group_name_H-M   'P 1'
_symmetry_Int_Tables_number      1
_space_group_name_Hall           'P 1'
loop_
_symmetry_equiv_pos_site_id
_symmetry_equiv_pos_as_xyz
1 x,y,z
_cell_length_a                   18.8569(4)
_cell_length_b                   18.8569(4)
_cell_length_c                   16.0871(7)
_cell_angle_alpha                90
_cell_angle_beta                 90
_cell_angle_gamma                90
_cell_volume                     5720.29
loop_
_atom_site_label
_atom_site_type_symbol
_atom_site_fract_x
_atom_site_fract_y
_atom_site_fract_z
C1 C 0.0318(4) 0.0237(4) 0.3840(4)
C2 C 0.0318(4) 0.0960(4) 0.3557(5)
C5 C 0.0890(5) 0.1375(5) 0.3714(6)
H2 H 0.0883 0.1859 0.3549
C9 C 0.1478(6) 0.1107(6) 0.4108(7)
H5 H 0.1877 0.1405 0.4200
C11 C 0.1502(4) 0.0393(5) 0.4381(6)
H6 H 0.1911 0.0217 0.4655
N2 N 0.0212(3) 0.2017(4) 0.7979(4)
H8 H 0.0262 0.3053 0.7576
H14 H 0.0021 0.0903 0.9049
C16 C -0.0000(5) 0.2714(6) 0.7823(7)
Zn3 Zn 0.11558(5) 0.15697(5) 0.77436(6)
C7 C 0.0947(4) 0.9971(4) 0.4251(5)
H4 H 0.0964 0.9491 0.4429
Zn2 Zn 0.15697(5) 0.88442(5) 0.22564(6)
O3 O 0.0667(3) 0.9144(3) 0.2695(4)
N9 N 0.2017(4) 0.9788(3) 0.2021(4)
N11 N 0.1401(4) 0.8326(4) 0.1190(4)
N16 N 0.2213(4) 0.8382(4) 0.3084(4)
O4 O 0.0393(4) 0.8106(4) 0.3142(5)
C29 C 0.0293(5) 0.8735(5) 0.3117(5)
Zn1 Zn 0.84303(5) 0.11558(5) 0.22564(6)
O1 O 0.9333(3) 0.0856(3) 0.2695(4)
N3 N 0.8599(4) 0.1674(4) 0.1190(4)
C3 C 0.9201(6) 0.2290(6) 0.0251(7)
H1 H 0.9556 0.2575 0.0000
C4 C 0.8265(5) 0.1649(5) 0.0477(6)
O2 O 0.9607(4) 0.1894(4) 0.3142(5)
C10 C 0.9707(5) 0.1265(5) 0.3117(5)
C12 C 0.9181(5) 0.2076(5) 0.1054(6)
H7 H 0.9527 0.2191 0.1462
C13 C 0.7562(5) 0.1338(7) 0.0300(7)
H9 H 0.7384 0.1097 0.0798
H11 H 0.7232 0.1715 0.0140
N8 N 0.7983(4) 0.0212(3) 0.2021(4)
N15 N 0.7787(4) 0.1618(4) 0.3084(4)
C26 C 0.9053(4) 0.0029(4) 0.4251(5)
H24 H 0.9036 0.0509 0.4429
H28 H 0.6947 0.0262 0.2424
H34 H 0.9097 0.0021 0.0951
C35 C 0.7286(6) 0.0000(5) 0.2177(7)
N1 N 0.8609(4) 0.2016(4) 0.9869(4)
N4 N 0.9123(4) 0.2183(4) 0.8467(4)
H1_2 H 0.9556 0.2575 1.0000
C6 C 0.7800(6) 0.3222(6) 0.9250(7)
H3 H 0.7982 0.3287 0.9795
N5 N 0.7920(4) 0.2650(4) 0.8762(4)
N6 N 0.7213(4) 0.3382(4) 0.8084(4)
C8 C 0.9661(5) 0.1731(5) 0.8361(5)
H10 H 0.7604 0.0995 0.9844
C14 C 0.9632(5) 0.0988(5) 0.8658(7)
H12 H 0.9178 0.0904 0.8938
H13 H 0.9676 0.0665 0.8184
C15 C 0.7379(6) 0.3689(6) 0.8837(6)
H15 H 0.7228 0.4141 0.9030
C16_2 C 1.0000(5) 0.2714(6) 0.7823(7)
C17 C 0.9342(5) 0.2812(6) 0.8124(6)
H16 H 0.9077 0.3240 0.8103
C18 C 0.7547(5) 0.2763(5) 0.8072(6)
B1 B 0.8422(6) 0.2036(7) 0.8948(7)
C19 C 0.7567(9) 0.2279(6) 0.7369(8)
H17 H 0.7252 0.2455 0.6930
H18 H 0.7409 0.1808 0.7548
H19 H 0.8053 0.2249 0.7156
H20 H 0.811(4) 0.166(4) 0.866(5)
Zn4 Zn 0.65697(5) 0.38442(5) 0.72564(6)
Zn6 Zn 0.61558(5) 0.65697(5) 0.27436(6)
N7 N 0.7984(4) 0.8609(4) 0.0131(4)
C20 C 0.9682(4) 0.9763(4) 0.3840(4)
C21 C 0.9682(4) 0.9040(4) 0.3557(5)
N12 N 0.7817(4) 0.9123(4) 0.1533(4)
H21 H 0.7425 0.9556 0.0000
C24 C 0.9110(5) 0.8625(5) 0.3714(6)
H22 H 0.9117 0.8141 0.3549
C25 C 0.6778(6) 0.7800(6) 0.0750(7)
H23 H 0.6713 0.7982 0.0205
N13 N 0.7350(4) 0.7920(4) 0.1238(4)
N14 N 0.6618(4) 0.7213(4) 0.1916(4)
C27 C 0.8269(5) 0.9661(5) 0.1639(5)
C28 C 0.8522(6) 0.8893(6) 0.4108(7)
H25 H 0.8123 0.8595 0.4200
C30 C 0.8498(4) 0.9607(5) 0.4381(6)
H26 H 0.8089 0.9783 0.4655
H30 H 0.9005 0.7604 0.0156
C33 C 0.9012(5) 0.9632(5) 0.1342(7)
H32 H 0.9096 0.9178 0.1062
H33 H 0.9335 0.9676 0.1816
C34 C 0.6311(6) 0.7379(6) 0.1163(6)
H35 H 0.5859 0.7228 0.0970
C35_2 C 0.7286(6) 1.0000(5) 0.2177(7)
C36 C 0.7188(6) 0.9342(5) 0.1876(6)
H36 H 0.6760 0.9077 0.1897
C37 C 0.7237(5) 0.7547(5) 0.1928(6)
B2 B 0.7964(7) 0.8422(6) 0.1052(7)
C38 C 0.7721(6) 0.7567(9) 0.2631(8)
H37 H 0.7545 0.7252 0.3070
H38 H 0.8192 0.7409 0.2452
H39 H 0.7751 0.8053 0.2844
H40 H 0.834(4) 0.811(4) 0.134(5)
Zn5 Zn 0.88442(5) 0.84303(5) 0.77436(6)
N10 N 0.8326(4) 0.8599(4) 0.8810(4)
C22 C 0.7710(6) 0.9201(6) 0.9749(7)
H21_2 H 0.7425 0.9556 1.0000
C23 C 0.8351(5) 0.8265(5) 0.9523(6)
C31 C 0.7924(5) 0.9181(5) 0.8946(6)
H27 H 0.7809 0.9527 0.8538
C32 C 0.8662(7) 0.7562(5) 0.9700(7)
H29 H 0.8903 0.7384 0.9202
H31 H 0.8285 0.7232 0.9860
N1_2 N 0.2016(4) 0.1391(4) 0.0131(4)
N4_2 N 0.2183(4) 0.0877(4) 0.1533(4)
H1_3 H 0.2575 0.0444 0.0000
C6_2 C 0.3222(6) 0.2200(6) 0.0750(7)
H3_2 H 0.3287 0.2018 0.0205
N5_2 N 0.2650(4) 0.2080(4) 0.1238(4)
N6_2 N 0.3382(4) 0.2787(4) 0.1916(4)
C8_2 C 0.1731(5) 0.0339(5) 0.1639(5)
H10_2 H 0.0995 0.2396 0.0156
C14_2 C 0.0988(5) 0.0368(5) 0.1342(7)
H12_2 H 0.0904 0.0822 0.1062
H13_2 H 0.0665 0.0324 0.1816
C15_2 C 0.3689(6) 0.2621(6) 0.1163(6)
H15_2 H 0.4141 0.2772 0.0970
C16_3 C 0.2714(6) 0.0000(5) 0.2177(7)
C17_2 C 0.2812(6) 0.0658(5) 0.1876(6)
H16_2 H 0.3240 0.0923 0.1897
C18_2 C 0.2763(5) 0.2453(5) 0.1928(6)
B1_2 B 0.2036(7) 0.1578(6) 0.1052(7)
C19_2 C 0.2279(6) 0.2433(9) 0.2631(8)
H17_2 H 0.2455 0.2748 0.3070
H18_2 H 0.1808 0.2591 0.2452
H19_2 H 0.2249 0.1947 0.2844
H20_2 H 0.166(4) 0.189(4) 0.134(5)
Zn4_2 Zn 0.38442(5) 0.34303(5) 0.27436(6)
O1_2 O 0.0856(3) 0.0667(3) 0.7305(4)
N3_2 N 0.1674(4) 0.1401(4) 0.8810(4)
C3_2 C 0.2290(6) 0.0799(6) 0.9749(7)
H1_4 H 0.2575 0.0444 1.0000
C4_2 C 0.1649(5) 0.1735(5) 0.9523(6)
O2_2 O 0.1894(4) 0.0393(4) 0.6858(5)
C10_2 C 0.1265(5) 0.0293(5) 0.6883(5)
C12_2 C 0.2076(5) 0.0819(5) 0.8946(6)
H7_2 H 0.2191 0.0473 0.8538
C13_2 C 0.1338(7) 0.2438(5) 0.9700(7)
H9_2 H 0.1097 0.2616 0.9202
H11_2 H 0.1715 0.2768 0.9860
N15_2 N 0.1618(4) 0.2213(4) 0.6916(4)
C26_2 C 0.0029(4) 0.0947(4) 0.5749(5)
H24_2 H 0.0509 0.0964 0.5571
H8_2 H 0.3053 0.9738 0.2424
H14_2 H 0.0903 0.9979 0.0951
C16_4 C 0.2714(6) 1.0000(5) 0.2177(7)
C1_2 C 0.0237(4) 0.9682(4) 0.6160(4)
C2_2 C 0.0960(4) 0.9682(4) 0.6443(5)
C5_2 C 0.1375(5) 0.9110(5) 0.6286(6)
H2_2 H 0.1859 0.9117 0.6451
C9_2 C 0.1107(6) 0.8522(6) 0.5892(7)
H5_2 H 0.1405 0.8123 0.5800
C11_2 C 0.0393(5) 0.8498(4) 0.5619(6)
H6_2 H 0.0217 0.8089 0.5345
C20_2 C 0.9763(4) 0.0318(4) 0.6160(4)
C21_2 C 0.9040(4) 0.0318(4) 0.6443(5)
C24_2 C 0.8625(5) 0.0890(5) 0.6286(6)
H22_2 H 0.8141 0.0883 0.6451
C28_2 C 0.8893(6) 0.1478(6) 0.5892(7)
H25_2 H 0.8595 0.1877 0.5800
C30_2 C 0.9607(5) 0.1502(4) 0.5619(6)
H26_2 H 0.9783 0.1911 0.5345
C7_2 C 0.9971(4) 0.9053(4) 0.5749(5)
H4_2 H 0.9491 0.9036 0.5571
O3_2 O 0.9144(3) 0.9333(3) 0.7305(4)
N9_2 N 0.9788(3) 0.7983(4) 0.7979(4)
N16_2 N 0.8382(4) 0.7787(4) 0.6916(4)
O4_2 O 0.8106(4) 0.9607(4) 0.6858(5)
C29_2 C 0.8735(5) 0.9707(5) 0.6883(5)
C3_3 C 0.0799(6) 0.7710(6) 0.0251(7)
H1_5 H 0.0444 0.7425 0.0000
C4_3 C 0.1735(5) 0.8351(5) 0.0477(6)
C12_3 C 0.0819(5) 0.7924(5) 0.1054(6)
H7_3 H 0.0473 0.7809 0.1462
C13_3 C 0.2438(5) 0.8662(7) 0.0300(7)
H9_3 H 0.2616 0.8903 0.0798
H11_3 H 0.2768 0.8285 0.0140
N1_3 N 0.1391(4) 0.7984(4) 0.9869(4)
N4_3 N 0.0877(4) 0.7817(4) 0.8467(4)
H1_6 H 0.0444 0.7425 1.0000
C6_3 C 0.2200(6) 0.6778(6) 0.9250(7)
H3_3 H 0.2018 0.6713 0.9795
N5_3 N 0.2080(4) 0.7350(4) 0.8762(4)
N6_3 N 0.2787(4) 0.6618(4) 0.8084(4)
C8_3 C 0.0339(5) 0.8269(5) 0.8361(5)
H10_3 H 0.2396 0.9005 0.9844
C14_3 C 0.0368(5) 0.9012(5) 0.8658(7)
H12_3 H 0.0822 0.9096 0.8938
H13_3 H 0.0324 0.9335 0.8184
C15_3 C 0.2621(6) 0.6311(6) 0.8837(6)
H15_3 H 0.2772 0.5859 0.9030
C16_5 C 0.0000(5) 0.7286(6) 0.7823(7)
C17_3 C 0.0658(5) 0.7188(6) 0.8124(6)
H16_3 H 0.0923 0.6760 0.8103
C18_3 C 0.2453(5) 0.7237(5) 0.8072(6)
B1_3 B 0.1578(6) 0.7964(7) 0.8948(7)
C19_3 C 0.2433(9) 0.7721(6) 0.7369(8)
H17_3 H 0.2748 0.7545 0.6930
H18_3 H 0.2591 0.8192 0.7548
H19_3 H 0.1947 0.7751 0.7156
H20_3 H 0.189(4) 0.834(4) 0.866(5)
Zn4_3 Zn 0.34303(5) 0.61558(5) 0.72564(6)
H8_3 H 0.9738 0.6947 0.7576
H14_3 H 0.9979 0.9097 0.9049
C16_6 C 1.0000(5) 0.7286(6) 0.7823(7)
O1_3 O 0.4333(3) 0.5856(3) 0.7695(4)
N1_4 N 0.3609(4) 0.7016(4) 0.4869(4)
N2_2 N 0.5212(3) 0.7017(4) 0.2979(4)
N3_3 N 0.3599(4) 0.6674(4) 0.6190(4)
C1_3 C 0.5318(4) 0.5237(4) 0.8840(4)
C2_3 C 0.5318(4) 0.5960(4) 0.8557(5)
N4_4 N 0.4123(4) 0.7183(4) 0.3467(4)
C3_4 C 0.4201(6) 0.7290(6) 0.5251(7)
H1_7 H 0.4556 0.7575 0.5000
C4_4 C 0.3265(5) 0.6649(5) 0.5477(6)
C5_3 C 0.5890(5) 0.6375(5) 0.8714(6)
H2_3 H 0.5883 0.6859 0.8549
C6_4 C 0.2800(6) 0.8222(6) 0.4250(7)
H3_4 H 0.2982 0.8287 0.4795
N5_4 N 0.2920(4) 0.7650(4) 0.3762(4)
C7_3 C 0.5947(4) 0.4971(4) 0.9251(5)
H4_3 H 0.5964 0.4491 0.9429
O2_3 O 0.4607(4) 0.6894(4) 0.8142(5)
C8_4 C 0.4661(5) 0.6731(5) 0.3361(5)
C9_3 C 0.6478(6) 0.6107(6) 0.9108(7)
H5_3 H 0.6877 0.6405 0.9200
C10_3 C 0.4707(5) 0.6265(5) 0.8117(5)
C11_3 C 0.6502(4) 0.5393(5) 0.9381(6)
H6_3 H 0.6911 0.5217 0.9655
C12_4 C 0.4181(5) 0.7076(5) 0.6054(6)
H7_4 H 0.4527 0.7191 0.6462
H8_4 H 0.5262 0.8053 0.2576
C13_4 C 0.2562(5) 0.6338(7) 0.5300(7)
H9_4 H 0.2384 0.6097 0.5798
H10_4 H 0.2604 0.5995 0.4844
H11_4 H 0.2232 0.6715 0.5140
C14_4 C 0.4632(5) 0.5988(5) 0.3658(7)
H12_4 H 0.4178 0.5904 0.3938
H13_4 H 0.4676 0.5665 0.3184
H14_4 H 0.5021 0.5903 0.4049
C15_4 C 0.2379(6) 0.8689(6) 0.3837(6)
H15_4 H 0.2228 0.9141 0.4030
C16_7 C 0.5000(5) 0.7714(6) 0.2823(7)
C17_4 C 0.4342(5) 0.7812(6) 0.3124(6)
H16_4 H 0.4077 0.8240 0.3103
C18_4 C 0.2547(5) 0.7763(5) 0.3072(6)
B1_4 B 0.3422(6) 0.7036(7) 0.3948(7)
C19_4 C 0.2567(9) 0.7279(6) 0.2369(8)
H17_4 H 0.2252 0.7455 0.1930
H18_4 H 0.2409 0.6808 0.2548
H19_4 H 0.3053 0.7249 0.2156
H20_4 H 0.311(4) 0.666(4) 0.366(5)
O3_3 O 0.5667(3) 0.4144(3) 0.7695(4)
N7_2 N 0.2984(4) 0.3609(4) 0.5131(4)
N8_2 N 0.2983(4) 0.5212(3) 0.7021(4)
N9_3 N 0.7017(4) 0.4788(3) 0.7021(4)
N10_2 N 0.3326(4) 0.3599(4) 0.3810(4)
N11_2 N 0.6401(4) 0.3326(4) 0.6190(4)
C20_3 C 0.4682(4) 0.4763(4) 0.8840(4)
C21_3 C 0.4682(4) 0.4040(4) 0.8557(5)
N12_2 N 0.2817(4) 0.4123(4) 0.6533(4)
C22_2 C 0.2710(6) 0.4201(6) 0.4749(7)
H21_3 H 0.2425 0.4556 0.5000
C23_2 C 0.3351(5) 0.3265(5) 0.4523(6)
C24_3 C 0.4110(5) 0.3625(5) 0.8714(6)
H22_3 H 0.4117 0.3141 0.8549
C25_2 C 0.1778(6) 0.2800(6) 0.5750(7)
H23_2 H 0.1713 0.2982 0.5205
N13_2 N 0.2350(4) 0.2920(4) 0.6238(4)
C26_3 C 0.4053(4) 0.5029(4) 0.9251(5)
H24_3 H 0.4036 0.5509 0.9429
O4_3 O 0.5393(4) 0.3106(4) 0.8142(5)
C27_2 C 0.3269(5) 0.4661(5) 0.6639(5)
C28_3 C 0.3522(6) 0.3893(6) 0.9108(7)
H25_3 H 0.3123 0.3595 0.9200
C29_3 C 0.5293(5) 0.3735(5) 0.8117(5)
C30_3 C 0.3498(4) 0.4607(5) 0.9381(6)
H26_3 H 0.3089 0.4783 0.9655
C31_2 C 0.2924(5) 0.4181(5) 0.3946(6)
H27_2 H 0.2809 0.4527 0.3538
H28_2 H 0.1947 0.5262 0.7424
C32_2 C 0.3662(7) 0.2562(5) 0.4700(7)
H29_2 H 0.3903 0.2384 0.4202
H30_2 H 0.4005 0.2604 0.5156
H31_2 H 0.3285 0.2232 0.4860
C33_2 C 0.4012(5) 0.4632(5) 0.6342(7)
H32_2 H 0.4096 0.4178 0.6062
H33_2 H 0.4335 0.4676 0.6816
H34_2 H 0.4097 0.5021 0.5951
C34_2 C 0.1311(6) 0.2379(6) 0.6163(6)
H35_2 H 0.0859 0.2228 0.5970
C35_3 C 0.2286(6) 0.5000(5) 0.7177(7)
C36_2 C 0.2188(6) 0.4342(5) 0.6876(6)
H36_2 H 0.1760 0.4077 0.6897
C37_2 C 0.2237(5) 0.2547(5) 0.6928(6)
B2_2 B 0.2964(7) 0.3422(6) 0.6052(7)
C38_2 C 0.2721(6) 0.2567(9) 0.7631(8)
H37_2 H 0.2545 0.2252 0.8070
H38_2 H 0.3192 0.2409 0.7452
H39_2 H 0.2751 0.3053 0.7844
H40_2 H 0.334(4) 0.311(4) 0.634(5)
O1_4 O 0.5856(3) 0.5667(3) 0.2305(4)
N1_5 N 0.7016(4) 0.6391(4) 0.5131(4)
N3_4 N 0.6674(4) 0.6401(4) 0.3810(4)
C1_4 C 0.5237(4) 0.4682(4) 0.1160(4)
C2_4 C 0.5960(4) 0.4682(4) 0.1443(5)
N4_5 N 0.7183(4) 0.5877(4) 0.6533(4)
C3_5 C 0.7290(6) 0.5799(6) 0.4749(7)
H1_8 H 0.7575 0.5444 0.5000
C4_5 C 0.6649(5) 0.6735(5) 0.4523(6)
C5_4 C 0.6375(5) 0.4110(5) 0.1286(6)
H2_4 H 0.6859 0.4117 0.1451
C6_5 C 0.8222(6) 0.7200(6) 0.5750(7)
H3_5 H 0.8287 0.7018 0.5205
N5_5 N 0.7650(4) 0.7080(4) 0.6238(4)
C7_4 C 0.4971(4) 0.4053(4) 0.0749(5)
H4_4 H 0.4491 0.4036 0.0571
O2_4 O 0.6894(4) 0.5393(4) 0.1858(5)
C8_5 C 0.6731(5) 0.5339(5) 0.6639(5)
C9_4 C 0.6107(6) 0.3522(6) 0.0892(7)
H5_4 H 0.6405 0.3123 0.0800
C10_4 C 0.6265(5) 0.5293(5) 0.1883(5)
C11_4 C 0.5393(5) 0.3498(4) 0.0619(6)
H6_4 H 0.5217 0.3089 0.0345
C12_5 C 0.7076(5) 0.5819(5) 0.3946(6)
H7_5 H 0.7191 0.5473 0.3538
H8_5 H 0.8053 0.4738 0.7424
C13_5 C 0.6338(7) 0.7438(5) 0.4700(7)
H9_5 H 0.6097 0.7616 0.4202
H10_5 H 0.5995 0.7396 0.5156
H11_5 H 0.6715 0.7768 0.4860
C14_5 C 0.5988(5) 0.5368(5) 0.6342(7)
H12_5 H 0.5904 0.5822 0.6062
H13_5 H 0.5665 0.5324 0.6816
H14_5 H 0.5903 0.4979 0.5951
C15_5 C 0.8689(6) 0.7621(6) 0.6163(6)
H15_5 H 0.9141 0.7772 0.5970
C16_8 C 0.7714(6) 0.5000(5) 0.7177(7)
C17_5 C 0.7812(6) 0.5658(5) 0.6876(6)
H16_5 H 0.8240 0.5923 0.6897
C18_5 C 0.7763(5) 0.7453(5) 0.6928(6)
B1_5 B 0.7036(7) 0.6578(6) 0.6052(7)
C19_5 C 0.7279(6) 0.7433(9) 0.7631(8)
H17_5 H 0.7455 0.7748 0.8070
H18_5 H 0.6808 0.7591 0.7452
H19_5 H 0.7249 0.6947 0.7844
H20_5 H 0.666(4) 0.689(4) 0.634(5)
O3_4 O 0.4144(3) 0.4333(3) 0.2305(4)
N9_4 N 0.4788(3) 0.2983(4) 0.2979(4)
C20_4 C 0.4763(4) 0.5318(4) 0.1160(4)
C21_4 C 0.4040(4) 0.5318(4) 0.1443(5)
C24_4 C 0.3625(5) 0.5890(5) 0.1286(6)
H22_4 H 0.3141 0.5883 0.1451
C26_4 C 0.5029(4) 0.5947(4) 0.0749(5)
H24_4 H 0.5509 0.5964 0.0571
O4_4 O 0.3106(4) 0.4607(4) 0.1858(5)
C28_4 C 0.3893(6) 0.6478(6) 0.0892(7)
H25_4 H 0.3595 0.6877 0.0800
C29_4 C 0.3735(5) 0.4707(5) 0.1883(5)
C30_4 C 0.4607(5) 0.6502(4) 0.0619(6)
H26_4 H 0.4783 0.6911 0.0345
N1_6 N 0.6391(4) 0.2984(4) 0.4869(4)
N4_6 N 0.5877(4) 0.2817(4) 0.3467(4)
C3_6 C 0.5799(6) 0.2710(6) 0.5251(7)
H1_9 H 0.5444 0.2425 0.5000
C4_6 C 0.6735(5) 0.3351(5) 0.5477(6)
C6_6 C 0.7200(6) 0.1778(6) 0.4250(7)
H3_6 H 0.7018 0.1713 0.4795
N5_6 N 0.7080(4) 0.2350(4) 0.3762(4)
C8_6 C 0.5339(5) 0.3269(5) 0.3361(5)
C12_6 C 0.5819(5) 0.2924(5) 0.6054(6)
H7_6 H 0.5473 0.2809 0.6462
H8_6 H 0.4738 0.1947 0.2576
C13_6 C 0.7438(5) 0.3662(7) 0.5300(7)
H9_6 H 0.7616 0.3903 0.5798
H10_6 H 0.7396 0.4005 0.4844
H11_6 H 0.7768 0.3285 0.5140
C14_6 C 0.5368(5) 0.4012(5) 0.3658(7)
H12_6 H 0.5822 0.4096 0.3938
H13_6 H 0.5324 0.4335 0.3184
H14_6 H 0.4979 0.4097 0.4049
C15_6 C 0.7621(6) 0.1311(6) 0.3837(6)
H15_6 H 0.7772 0.0859 0.4030
C16_9 C 0.5000(5) 0.2286(6) 0.2823(7)
C17_6 C 0.5658(5) 0.2188(6) 0.3124(6)
H16_6 H 0.5923 0.1760 0.3103
C18_6 C 0.7453(5) 0.2237(5) 0.3072(6)
B1_6 B 0.6578(6) 0.2964(7) 0.3948(7)
C19_6 C 0.7433(9) 0.2721(6) 0.2369(8)
H17_6 H 0.7748 0.2545 0.1930
H18_6 H 0.7591 0.3192 0.2548
H19_6 H 0.6947 0.2751 0.2156
H20_6 H 0.689(4) 0.334(4) 0.366(5)
loop_
_geom_bond_atom_site_label_1
_geom_bond_atom_site_label_2
_geom_bond_site_symmetry_1
_geom_bond_site_symmetry_2
C1 C2 1_555 1_555
C2 C5 1_555 1_555
C5 H2 1_555 1_555
C9 C5 1_555 1_555
H5 C9 1_555 1_555
H6 C11 1_555 1_555
C9 C11 1_555 1_555
H8 C16 1_555 1_555
C16 N2 1_555 1_555
Zn3 N2 1_555 1_555
H4 C7 1_555 1_555
Zn2 O3 1_555 1_555
O3 C29 1_555 1_555
N9 Zn2 1_555 1_555
N11 Zn2 1_555 1_555
N16 Zn2 1_555 1_555
O4 C29 1_555 1_555
Zn1 O1 1_555 1_555
O1 C10 1_555 1_555
N3 Zn1 1_555 1_555
C3 H1 1_555 1_555
O2 C10 1_555 1_555
C12 N3 1_555 1_555
H7 C12 1_555 1_555
C13 C4 1_555 1_555
H9 C13 1_555 1_555
H11 C13 1_555 1_555
N8 Zn1 1_555 1_555
N15 Zn1 1_555 1_555
H24 C26 1_555 1_555
H28 C35 1_555 1_555
C35 N8 1_555 1_555
N3 C4 1_555 1_555
C3 C12 1_555 1_555
N4 C8 1_555 1_555
C6 H3 1_555 1_555
N5 C6 1_555 1_555
N6 C15 1_555 1_555
C8 C14 1_555 1_555
C14 H12 1_555 1_555
H13 C14 1_555 1_555
C15 C6 1_555 1_555
H15 C15 1_555 1_555
C17 N4 1_555 1_555
H16 C17 1_555 1_555
C18 N5 1_555 1_555
B1 N1 1_555 1_555
C19 C18 1_555 1_555
H17 C19 1_555 1_555
H18 C19 1_555 1_555
H19 C19 1_555 1_555
H20 B1 1_555 1_555
Zn4 N6 1_555 1_555
N4 B1 1_555 1_555
N5 B1 1_555 1_555
N6 C18 1_555 1_555
C16_2 C17 1_555 1_555
Zn6 N14 1_555 1_555
C21 C20 1_555 1_555
N12 C27 1_555 1_555
C24 C21 1_555 1_555
H22 C24 1_555 1_555
C25 H23 1_555 1_555
N13 C25 1_555 1_555
N14 C34 1_555 1_555
C28 C24 1_555 1_555
H25 C28 1_555 1_555
H26 C30 1_555 1_555
C33 C27 1_555 1_555
H32 C33 1_555 1_555
H33 C33 1_555 1_555
C34 C25 1_555 1_555
H35 C34 1_555 1_555
C36 N12 1_555 1_555
H36 C36 1_555 1_555
C37 N13 1_555 1_555
B2 N7 1_555 1_555
C38 C37 1_555 1_555
H37 C38 1_555 1_555
H38 C38 1_555 1_555
H39 C38 1_555 1_555
H40 B2 1_555 1_555
N12 B2 1_555 1_555
N13 B2 1_555 1_555
N14 C37 1_555 1_555
C28 C30 1_555 1_555
C35_2 C36 1_555 1_555
Zn5 N10 1_555 1_555
N10 C23 1_555 1_555
C22 H21_2 1_555 1_555
C31 N10 1_555 1_555
H27 C31 1_555 1_555
C32 C23 1_555 1_555
H29 C32 1_555 1_555
H31 C32 1_555 1_555
C22 C31 1_555 1_555
N4_2 C8_2 1_555 1_555
C6_2 H3_2 1_555 1_555
N5_2 C6_2 1_555 1_555
N6_2 C15_2 1_555 1_555
C8_2 C14_2 1_555 1_555
C14_2 H12_2 1_555 1_555
H13_2 C14_2 1_555 1_555
C15_2 C6_2 1_555 1_555
H15_2 C15_2 1_555 1_555
C17_2 N4_2 1_555 1_555
H16_2 C17_2 1_555 1_555
C18_2 N5_2 1_555 1_555
B1_2 N1_2 1_555 1_555
C19_2 C18_2 1_555 1_555
H17_2 C19_2 1_555 1_555
H18_2 C19_2 1_555 1_555
H19_2 C19_2 1_555 1_555
H20_2 B1_2 1_555 1_555
Zn4_2 N6_2 1_555 1_555
N4_2 B1_2 1_555 1_555
N5_2 B1_2 1_555 1_555
N6_2 C18_2 1_555 1_555
C16_3 C17_2 1_555 1_555
Zn3 O1_2 1_555 1_555
O1_2 C10_2 1_555 1_555
N3_2 Zn3 1_555 1_555
C3_2 H1_4 1_555 1_555
O2_2 C10_2 1_555 1_555
C12_2 N3_2 1_555 1_555
H7_2 C12_2 1_555 1_555
C13_2 C4_2 1_555 1_555
H9_2 C13_2 1_555 1_555
H11_2 C13_2 1_555 1_555
N15_2 Zn3 1_555 1_555
H24_2 C26_2 1_555 1_555
N3_2 C4_2 1_555 1_555
C3_2 C12_2 1_555 1_555
H8_2 C16_4 1_555 1_555
C16_4 N9 1_555 1_555
C1_2 C2_2 1_555 1_555
C2_2 C5_2 1_555 1_555
C5_2 H2_2 1_555 1_555
C9_2 C5_2 1_555 1_555
H5_2 C9_2 1_555 1_555
H6_2 C11_2 1_555 1_555
C9_2 C11_2 1_555 1_555
C21_2 C20_2 1_555 1_555
C24_2 C21_2 1_555 1_555
H22_2 C24_2 1_555 1_555
C28_2 C24_2 1_555 1_555
H25_2 C28_2 1_555 1_555
H26_2 C30_2 1_555 1_555
C28_2 C30_2 1_555 1_555
H4_2 C7_2 1_555 1_555
Zn5 O3_2 1_555 1_555
O3_2 C29_2 1_555 1_555
N9_2 Zn5 1_555 1_555
N16_2 Zn5 1_555 1_555
O4_2 C29_2 1_555 1_555
C3_3 H1_5 1_555 1_555
C12_3 N11 1_555 1_555
H7_3 C12_3 1_555 1_555
C13_3 C4_3 1_555 1_555
H9_3 C13_3 1_555 1_555
H11_3 C13_3 1_555 1_555
N11 C4_3 1_555 1_555
C3_3 C12_3 1_555 1_555
N4_3 C8_3 1_555 1_555
C6_3 H3_3 1_555 1_555
N5_3 C6_3 1_555 1_555
N6_3 C15_3 1_555 1_555
C8_3 C14_3 1_555 1_555
C14_3 H12_3 1_555 1_555
H13_3 C14_3 1_555 1_555
C15_3 C6_3 1_555 1_555
H15_3 C15_3 1_555 1_555
C17_3 N4_3 1_555 1_555
H16_3 C17_3 1_555 1_555
C18_3 N5_3 1_555 1_555
B1_3 N1_3 1_555 1_555
C19_3 C18_3 1_555 1_555
H17_3 C19_3 1_555 1_555
H18_3 C19_3 1_555 1_555
H19_3 C19_3 1_555 1_555
H20_3 B1_3 1_555 1_555
Zn4_3 N6_3 1_555 1_555
N4_3 B1_3 1_555 1_555
N5_3 B1_3 1_555 1_555
N6_3 C18_3 1_555 1_555
C16_5 C17_3 1_555 1_555
H8_3 C16_6 1_555 1_555
C16_6 N9_2 1_555 1_555
Zn4_3 O1_3 1_555 1_555
O1_3 C10_3 1_555 1_555
N1_4 C3_4 1_555 1_555
N2_2 C8_4 1_555 1_555
N3_3 Zn4_3 1_555 1_555
C1_3 C2_3 1_555 1_555
C2_3 C5_3 1_555 1_555
N4_4 C8_4 1_555 1_555
C3_4 H1_7 1_555 1_555
C4_4 N1_4 1_555 1_555
C5_3 H2_3 1_555 1_555
C6_4 H3_4 1_555 1_555
N5_4 C6_4 1_555 1_555
N16 C15_4 1_555 1_555
C7_3 C1_3 1_555 1_555
H4_3 C7_3 1_555 1_555
O2_3 C10_3 1_555 1_555
C8_4 C14_4 1_555 1_555
C9_3 C5_3 1_555 1_555
H5_3 C9_3 1_555 1_555
C10_3 C2_3 1_555 1_555
C11_3 C7_3 1_555 1_555
H6_3 C11_3 1_555 1_555
C12_4 N3_3 1_555 1_555
H7_4 C12_4 1_555 1_555
H8_4 C16_7 1_555 1_555
C13_4 C4_4 1_555 1_555
H9_4 C13_4 1_555 1_555
H10_4 C13_4 1_555 1_555
H11_4 C13_4 1_555 1_555
C14_4 H12_4 1_555 1_555
H13_4 C14_4 1_555 1_555
H14_4 C14_4 1_555 1_555
C15_4 C6_4 1_555 1_555
H15_4 C15_4 1_555 1_555
C16_7 N2_2 1_555 1_555
C17_4 N4_4 1_555 1_555
H16_4 C17_4 1_555 1_555
C18_4 N5_4 1_555 1_555
B1_4 N1_4 1_555 1_555
C19_4 C18_4 1_555 1_555
H17_4 C19_4 1_555 1_555
H18_4 C19_4 1_555 1_555
H19_4 C19_4 1_555 1_555
H20_4 B1_4 1_555 1_555
Zn4 O3_3 1_555 1_555
Zn6 N2_2 1_555 1_555
Zn4_2 N10_2 1_555 1_555
O3_3 C29_3 1_555 1_555
N7_2 C22_2 1_555 1_555
N8_2 Zn4_3 1_555 1_555
N9_3 Zn4 1_555 1_555
N10_2 C23_2 1_555 1_555
N11_2 Zn4 1_555 1_555
C20_3 C1_3 1_555 1_555
C21_3 C20_3 1_555 1_555
N12_2 C27_2 1_555 1_555
C22_2 H21_3 1_555 1_555
C23_2 N7_2 1_555 1_555
C24_3 C21_3 1_555 1_555
H22_3 C24_3 1_555 1_555
C25_2 H23_2 1_555 1_555
N13_2 C25_2 1_555 1_555
N15_2 C34_2 1_555 1_555
C26_3 C20_3 1_555 1_555
H24_3 C26_3 1_555 1_555
O4_3 C29_3 1_555 1_555
C27_2 N8_2 1_555 1_555
C28_3 C24_3 1_555 1_555
H25_3 C28_3 1_555 1_555
C29_3 C21_3 1_555 1_555
C30_3 C26_3 1_555 1_555
H26_3 C30_3 1_555 1_555
C31_2 N10_2 1_555 1_555
H27_2 C31_2 1_555 1_555
H28_2 C35_3 1_555 1_555
C32_2 C23_2 1_555 1_555
H29_2 C32_2 1_555 1_555
H30_2 C32_2 1_555 1_555
H31_2 C32_2 1_555 1_555
C33_2 C27_2 1_555 1_555
H32_2 C33_2 1_555 1_555
H33_2 C33_2 1_555 1_555
H34_2 C33_2 1_555 1_555
C34_2 C25_2 1_555 1_555
H35_2 C34_2 1_555 1_555
C35_3 N8_2 1_555 1_555
C36_2 N12_2 1_555 1_555
H36_2 C36_2 1_555 1_555
C37_2 N13_2 1_555 1_555
B2_2 N7_2 1_555 1_555
C38_2 C37_2 1_555 1_555
H37_2 C38_2 1_555 1_555
H38_2 C38_2 1_555 1_555
H39_2 C38_2 1_555 1_555
H40_2 B2_2 1_555 1_555
N3_3 C4_4 1_555 1_555
N4_4 B1_4 1_555 1_555
C3_4 C12_4 1_555 1_555
N5_4 B1_4 1_555 1_555
N16 C18_4 1_555 1_555
C9_3 C11_3 1_555 1_555
C16_7 C17_4 1_555 1_555
N12_2 B2_2 1_555 1_555
C22_2 C31_2 1_555 1_555
N13_2 B2_2 1_555 1_555
N15_2 C37_2 1_555 1_555
C28_3 C30_3 1_555 1_555
C35_3 C36_2 1_555 1_555
Zn6 O1_4 1_555 1_555
O1_4 C10_4 1_555 1_555
N1_5 C3_5 1_555 1_555
N9_3 C8_5 1_555 1_555
N3_4 Zn6 1_555 1_555
C1_4 C2_4 1_555 1_555
C2_4 C5_4 1_555 1_555
N4_5 C8_5 1_555 1_555
C3_5 H1_8 1_555 1_555
C4_5 N1_5 1_555 1_555
C5_4 H2_4 1_555 1_555
C6_5 H3_5 1_555 1_555
N5_5 C6_5 1_555 1_555
N16_2 C15_5 1_555 1_555
C7_4 C1_4 1_555 1_555
H4_4 C7_4 1_555 1_555
O2_4 C10_4 1_555 1_555
C8_5 C14_5 1_555 1_555
C9_4 C5_4 1_555 1_555
H5_4 C9_4 1_555 1_555
C10_4 C2_4 1_555 1_555
C11_4 C7_4 1_555 1_555
H6_4 C11_4 1_555 1_555
C12_5 N3_4 1_555 1_555
H7_5 C12_5 1_555 1_555
H8_5 C16_8 1_555 1_555
C13_5 C4_5 1_555 1_555
H9_5 C13_5 1_555 1_555
H10_5 C13_5 1_555 1_555
H11_5 C13_5 1_555 1_555
C14_5 H12_5 1_555 1_555
H13_5 C14_5 1_555 1_555
H14_5 C14_5 1_555 1_555
C15_5 C6_5 1_555 1_555
H15_5 C15_5 1_555 1_555
C16_8 N9_3 1_555 1_555
C17_5 N4_5 1_555 1_555
H16_5 C17_5 1_555 1_555
C18_5 N5_5 1_555 1_555
B1_5 N1_5 1_555 1_555
C19_5 C18_5 1_555 1_555
H17_5 C19_5 1_555 1_555
H18_5 C19_5 1_555 1_555
H19_5 C19_5 1_555 1_555
H20_5 B1_5 1_555 1_555
Zn4_2 O3_4 1_555 1_555
O3_4 C29_4 1_555 1_555
N9_4 Zn4_2 1_555 1_555
C20_4 C1_4 1_555 1_555
C21_4 C20_4 1_555 1_555
C24_4 C21_4 1_555 1_555
H22_4 C24_4 1_555 1_555
C26_4 C20_4 1_555 1_555
H24_4 C26_4 1_555 1_555
O4_4 C29_4 1_555 1_555
C28_4 C24_4 1_555 1_555
H25_4 C28_4 1_555 1_555
C29_4 C21_4 1_555 1_555
C30_4 C26_4 1_555 1_555
H26_4 C30_4 1_555 1_555
N3_4 C4_5 1_555 1_555
N4_5 B1_5 1_555 1_555
C3_5 C12_5 1_555 1_555
N5_5 B1_5 1_555 1_555
N16_2 C18_5 1_555 1_555
C9_4 C11_4 1_555 1_555
C16_8 C17_5 1_555 1_555
C28_4 C30_4 1_555 1_555
N1_6 C3_6 1_555 1_555
N9_4 C8_6 1_555 1_555
N4_6 C8_6 1_555 1_555
C3_6 H1_9 1_555 1_555
C4_6 N1_6 1_555 1_555
C6_6 H3_6 1_555 1_555
N5_6 C6_6 1_555 1_555
N15 C15_6 1_555 1_555
C8_6 C14_6 1_555 1_555
C12_6 N11_2 1_555 1_555
H7_6 C12_6 1_555 1_555
H8_6 C16_9 1_555 1_555
C13_6 C4_6 1_555 1_555
H9_6 C13_6 1_555 1_555
H10_6 C13_6 1_555 1_555
H11_6 C13_6 1_555 1_555
C14_6 H12_6 1_555 1_555
H13_6 C14_6 1_555 1_555
H14_6 C14_6 1_555 1_555
C15_6 C6_6 1_555 1_555
H15_6 C15_6 1_555 1_555
C16_9 N9_4 1_555 1_555
C17_6 N4_6 1_555 1_555
H16_6 C17_6 1_555 1_555
C18_6 N5_6 1_555 1_555
B1_6 N1_6 1_555 1_555
C19_6 C18_6 1_555 1_555
H17_6 C19_6 1_555 1_555
H18_6 C19_6 1_555 1_555
H19_6 C19_6 1_555 1_555
H20_6 B1_6 1_555 1_555
N11_2 C4_6 1_555 1_555
N4_6 B1_6 1_555 1_555
C3_6 C12_6 1_555 1_555
N5_6 B1_6 1_555 1_555
N15 C18_6 1_555 1_555
C16_9 C17_6 1_555 1_555

#END
