
###############################################################################
#
# This file contains modified crystal structure data generated from the
# MOF subset of the Cambridge Structural Database (CSD) v543 
# hosted by the Cambridge Crystallographic Data Centre (CCDC).
#
# This work is licensed under the Creative Commons
# Attribution-NonCommercial-ShareAlike 4.0 International License.
# To view a copy of this license, visit
# http://creativecommons.org/licenses/by-nc-sa/4.0/
# or send a letter to
# Creative Commons, PO Box 1866, Mountain View, CA 94042, USA.
#
# CIF created using the CSD Python API on 29 September 2022
# The structure has been converted into the P1 space group
# The structure has a 3D framework
# The original CSD entry OYOWUX is in the monoclinic crystal system
# The framework has been calculated to contain at least 10.0% void space
# The void calculation uses a probe of radius 1.32A, grid spacing 0.4
# The framework is charged, counterions have been retained in the structure
# H atom positions have been added when not included in the experimental data
#
###############################################################################

data_OYOWUX
_chemical_formula_moiety         '(C392 H264 N40 O84 Pb12)n'
_symmetry_cell_setting           triclinic
_symmetry_space_group_name_H-M   'P 1'
_symmetry_Int_Tables_number      1
_space_group_name_Hall           'P 1'
loop_
_symmetry_equiv_pos_site_id
_symmetry_equiv_pos_as_xyz
1 x,y,z
_cell_length_a                   20.504(4)
_cell_length_b                   20.005(4)
_cell_length_c                   24.046(5)
_cell_angle_alpha                90
_cell_angle_beta                 101.23(3)
_cell_angle_gamma                90
_cell_volume                     9674.4
loop_
_atom_site_label
_atom_site_type_symbol
_atom_site_fract_x
_atom_site_fract_y
_atom_site_fract_z
C1 C 0.7813(10) 0.0814(9) 0.6217(8)
C2 C 0.7619(9) 0.0246(8) 0.6567(6)
C3 C 0.6949(9) 0.0023(8) 0.6455(7)
H1 H 0.6644 0.0213 0.6161
H6 H 0.8500 0.0131 0.7074
O1 O 0.8257(6) 0.1197(6) 0.6439(6)
O2 O 0.7497(10) 0.0875(8) 0.5723(6)
Pb5 Pb 0.85743(3) 0.21341(3) 0.59452(2)
Pb1 Pb 0.64257(3) 0.71341(3) 0.90548(2)
Pb2 Pb 0.48676(3) 0.21695(3) 0.56260(3)
C4 C 0.6751(9) 0.9520(8) 0.6785(6)
H2 H 0.6312 0.9371 0.6713
C5 C 0.7221(8) 0.9237(7) 0.7230(7)
C6 C 0.7044(7) 0.8731(7) 0.7591(6)
H3 H 0.6610 0.8569 0.7518
C7 C 0.7489(8) 0.8475(8) 0.8043(6)
C8 C 0.8155(9) 0.8709(9) 0.8138(8)
H4 H 0.8469 0.8532 0.8433
C9 C 0.8334(8) 0.9183(8) 0.7803(6)
H5 H 0.8774 0.9328 0.7876
C10 C 0.7888(9) 0.9475(8) 0.7345(6)
C11 C 0.8064(10) 0.9975(9) 0.7003(7)
C12 C 0.7262(10) 0.7970(10) 0.8405(7)
C13 C 0.5337(9) 0.6305(9) 0.8499(8)
C14 C 0.5076(8) 0.5756(7) 0.8102(7)
C15 C 0.5117(9) 0.5820(8) 0.7544(7)
H7 H 0.5232 0.6228 0.7404
C16 C 0.4984(8) 0.5263(8) 0.7182(7)
C17 C 0.5037(9) 0.5292(8) 0.6605(8)
H8 H 0.5100 0.5705 0.6447
C18 C 0.4998(9) 0.4730(9) 0.6267(7)
H9 H 0.5039 0.4765 0.5890
C19 C 0.4896(8) 0.4104(8) 0.6501(7)
C20 C 0.4817(9) 0.4049(9) 0.7048(7)
H10 H 0.4743 0.3633 0.7196
C21 C 0.4847(8) 0.4638(8) 0.7396(7)
C22 C 0.4745(10) 0.4614(9) 0.7970(7)
H11 H 0.4585 0.4222 0.8103
C23 C 0.4873(9) 0.5140(8) 0.8320(7)
H12 H 0.4831 0.5105 0.8697
C24 C 0.4896(8) 0.3496(9) 0.6161(8)
C25 C 0.4820(9) 0.0960(9) 0.6333(7)
C26 C 0.4986(8) 0.0477(9) 0.6816(7)
C32 C 0.5866(8) 0.0045(8) 0.8807(7)
H16 H 0.6027 0.0209 0.9170
C33 C 0.5637(8) 0.0465(8) 0.8373(7)
H17 H 0.5630 0.0921 0.8449
C34 C 0.5412(8) 0.0253(8) 0.7824(7)
C35 C 0.5202(8) 0.0694(7) 0.7376(7)
H18 H 0.5205 0.1151 0.7452
C37 C 0.3454(11) 0.2495(11) 0.5115(9)
C38 C 0.2716(11) 0.2565(11) 0.4985(8)
C39 C 0.2430(11) 0.3033(10) 0.4540(8)
H19 H 0.2695 0.3254 0.4325
C40 C 0.1771(10) 0.3135(11) 0.4449(8)
H20 H 0.1580 0.3442 0.4175
C41 C 0.1378(11) 0.2802(11) 0.4747(8)
C42 C 0.0642(10) 0.2974(10) 0.4607(8)
H21 H 0.0471 0.3305 0.4348
C43 C 0.0247(11) 0.2605(11) 0.4894(8)
C44 C 0.0524(11) 0.2117(10) 0.5303(8)
H22 H 0.0246 0.1856 0.5476
C45 C 0.1220(11) 0.2024(10) 0.5447(8)
H23 H 0.1407 0.1732 0.5736
C46 C 0.1603(11) 0.2367(11) 0.5157(8)
C47 C 0.2354(10) 0.2268(11) 0.5274(8)
H24 H 0.2549 0.1983 0.5565
O3 O 0.6680(6) 0.7738(6) 0.8263(5)
O4 O 0.7636(6) 0.7800(6) 0.8859(5)
O5 O 0.5440(8) 0.6176(7) 0.9042(5)
O6 O 0.5491(6) 0.6879(5) 0.8319(5)
O7 O 0.4810(6) 0.3549(5) 0.5631(4)
O8 O 0.4981(7) 0.2927(6) 0.6399(5)
O9 O 0.4836(6) 0.1580(5) 0.6471(5)
O10 O 0.4674(7) 0.0767(6) 0.5844(5)
O13 O 0.3713(6) 0.2241(6) 0.5621(5)
O14 O 0.3786(7) 0.2643(7) 0.4780(6)
O21 O 0.6262(9) 0.1840(10) 0.5988(7)
O22 O 0.6743(6) 0.6197(6) 0.8561(6)
O23 O 0.5870(6) 0.8281(6) 0.9120(5)
H65 H 0.642698 0.202312 0.637357
H66 H 0.631698 0.134672 0.599526
Pb7 Pb 0.69036(5) 0.81419(5) 0.04647(3)
C27 C 0.4952(9) 0.9773(9) 0.6717(8)
H13 H 0.4795 0.9610 0.6354
C28 C 0.5150(8) 0.9334(8) 0.7162(7)
H14 H 0.5120 0.8876 0.7095
C29 C 0.5397(8) 0.9568(8) 0.7714(7)
C30 C 0.5611(7) 0.9127(8) 0.8161(7)
H15 H 0.5585 0.8669 0.8093
C31 C 0.5858(9) 0.9353(8) 0.8698(7)
C36 C 0.6096(10) 0.8867(10) 0.9173(8)
O12 O 0.6467(6) 0.9099(6) 0.9627(5)
Pb3 Pb 0.80964(5) 0.31419(5) 0.45353(3)
C48 C 0.9467(11) 0.2715(12) 0.4758(9)
C49 C 0.7683(12) 0.4251(10) 0.3722(8)
C50 C 0.7571(8) 0.4791(9) 0.3290(8)
C51 C 0.8056(8) 0.4976(8) 0.2998(8)
H25 H 0.8456 0.4744 0.3044
C52 C 0.7932(8) 0.5523(9) 0.2633(8)
C53 C 0.8423(8) 0.5755(9) 0.2371(8)
H26 H 0.8849 0.5577 0.2462
C54 C 0.8279(8) 0.6258(9) 0.1968(8)
H27 H 0.8598 0.6382 0.1761
C55 C 0.7672(8) 0.6578(9) 0.1871(8)
C56 C 0.7175(8) 0.6364(9) 0.2143(7)
H28 H 0.6753 0.6553 0.2060
C57 C 0.7325(8) 0.5856(9) 0.2547(8)
C58 C 0.6826(8) 0.5623(9) 0.2803(8)
H29 H 0.6406 0.5817 0.2721
C59 C 0.6952(8) 0.5102(9) 0.3180(8)
H30 H 0.6619 0.4955 0.3363
C60 C 0.7518(13) 0.7115(10) 0.1419(9)
O15 O 0.9244(8) 0.3221(8) 0.4502(6)
O16 O 0.9129(6) 0.2277(6) 0.4913(5)
O17 O 0.7251(9) 0.4186(7) 0.4011(6)
O18 O 0.8165(9) 0.3875(8) 0.3788(6)
O19 O 0.7992(9) 0.7379(10) 0.1257(8)
O20 O 0.6964(8) 0.7342(9) 0.1252(6)
O24 O 0.8533(6) 0.4099(6) 0.5373(5)
O25 O 0.8036(8) 0.2342(9) 0.3748(6)
C52_2 C 0.7068(8) 0.0523(9) 0.2367(8)
C53_2 C 0.6577(8) 0.0755(9) 0.2629(8)
H26_2 H 0.6151 0.0577 0.2538
C54_2 C 0.6721(8) 0.1258(9) 0.3032(8)
H27_2 H 0.6402 0.1382 0.3239
C55_2 C 0.7328(8) 0.1578(9) 0.3129(8)
C56_2 C 0.7825(8) 0.1364(9) 0.2857(7)
H28_2 H 0.8247 0.1553 0.2940
C57_2 C 0.7675(8) 0.0856(9) 0.2453(8)
C58_2 C 0.8174(8) 0.0623(9) 0.2197(8)
H29_2 H 0.8594 0.0817 0.2279
C59_2 C 0.8048(8) 0.0102(9) 0.1820(8)
C60_2 C 0.7482(13) 0.2115(10) 0.3581(9)
O19_2 O 0.7008(9) 0.2379(10) 0.3743(8)
C38_2 C 0.2284(11) 0.7565(11) 0.0015(8)
C39_2 C 0.2570(11) 0.8033(10) 0.0460(8)
H19_2 H 0.2305 0.8254 0.0675
C40_2 C 0.3229(10) 0.8135(11) 0.0551(8)
H20_2 H 0.3420 0.8442 0.0825
C41_2 C 0.3622(11) 0.7802(11) 0.0253(8)
C42_2 C 0.4358(10) 0.7974(10) 0.0393(8)
H21_2 H 0.4529 0.8305 0.0652
C43_2 C 0.4753(11) 0.7605(11) 0.0106(8)
C48_2 C 0.5533(11) 0.7715(12) 0.0242(9)
C49_2 C 0.7317(12) 0.9251(10) 0.1278(8)
C50_2 C 0.7429(8) 0.9791(9) 0.1710(8)
C51_2 C 0.6944(8) 0.9976(8) 0.2002(8)
H25_2 H 0.6544 0.9744 0.1956
H30_2 H 0.8381 0.9955 0.1637
O14_2 O 0.1214(7) 0.7643(7) 0.0220(6)
O15_2 O 0.5756(8) 0.8221(8) 0.0498(6)
O16_2 O 0.5871(6) 0.7277(6) 0.0087(5)
O17_2 O 0.7749(9) 0.9186(7) 0.0989(6)
O18_2 O 0.6835(9) 0.8875(8) 0.1212(6)
Pb2_2 Pb 0.01324(3) 0.71695(3) 0.93740(3)
C18_2 C 0.0002(9) 0.9730(9) 0.8733(7)
C19_2 C 0.0104(8) 0.9104(8) 0.8499(7)
C20_2 C 0.0183(9) 0.9049(9) 0.7952(7)
H10_2 H 0.0257 0.8633 0.7804
C21_2 C 0.0153(8) 0.9638(8) 0.7604(7)
C22_2 C 0.0255(10) 0.9614(9) 0.7030(7)
H11_2 H 0.0415 0.9222 0.6897
C24_2 C 0.0104(8) 0.8496(9) 0.8839(8)
C25_2 C 0.0180(9) 0.5960(9) 0.8667(7)
C26_2 C 0.0014(8) 0.5477(9) 0.8184(7)
C27_2 C 0.0048(9) 0.4773(9) 0.8283(8)
H13_2 H 0.0205 0.4610 0.8646
C37_2 C 0.1546(11) 0.7495(11) 0.9885(9)
C44_2 C 0.4476(11) 0.7117(10) 0.9697(8)
H22_2 H 0.4754 0.6856 0.9524
C45_2 C 0.3780(11) 0.7024(10) 0.9553(8)
H23_2 H 0.3593 0.6732 0.9264
C46_2 C 0.3397(11) 0.7367(11) 0.9843(8)
C47_2 C 0.2646(10) 0.7268(11) 0.9726(8)
H24_2 H 0.2451 0.6983 0.9435
O7_2 O 0.0190(6) 0.8549(5) 0.9369(4)
O8_2 O 0.0019(7) 0.7927(6) 0.8601(5)
O9_2 O 0.0164(6) 0.6580(5) 0.8529(5)
O10_2 O 0.0326(7) 0.5767(6) 0.9156(5)
O13_2 O 0.1287(6) 0.7241(6) 0.9379(5)
C1_2 C 0.7187(10) 0.5814(9) 0.8783(8)
C2_2 C 0.7381(9) 0.5246(8) 0.8433(6)
C3_2 C 0.8051(9) 0.5023(8) 0.8545(7)
H1_2 H 0.8356 0.5213 0.8839
C4_2 C 0.8249(9) 0.4520(8) 0.8215(6)
H2_2 H 0.8688 0.4371 0.8287
C5_2 C 0.7779(8) 0.4237(7) 0.7770(7)
C6_2 C 0.7956(7) 0.3731(7) 0.7409(6)
H3_2 H 0.8390 0.3569 0.7482
C7_2 C 0.7511(8) 0.3475(8) 0.6957(6)
C8_2 C 0.6845(9) 0.3709(9) 0.6862(8)
H4_2 H 0.6531 0.3532 0.6567
C9_2 C 0.6666(8) 0.4183(8) 0.7197(6)
H5_2 H 0.6226 0.4328 0.7124
C10_2 C 0.7112(9) 0.4475(8) 0.7655(6)
C11_2 C 0.6936(10) 0.4975(9) 0.7997(7)
H6_2 H 0.6500 0.5131 0.7926
C12_2 C 0.7738(10) 0.2970(10) 0.6595(7)
C13_2 C 0.9663(9) 0.1305(9) 0.6501(8)
C14_2 C 0.9924(8) 0.0756(7) 0.6898(7)
C15_2 C 0.9883(9) 0.0820(8) 0.7456(7)
H7_2 H 0.9768 0.1228 0.7596
C17_2 C 0.9963(9) 0.0292(8) 0.8395(8)
H8_2 H 0.9900 0.0705 0.8553
O2_2 O 0.7503(10) 0.5875(8) 0.9277(6)
O3_2 O 0.8320(6) 0.2738(6) 0.6737(5)
O4_2 O 0.7364(6) 0.2800(6) 0.6141(5)
O5_2 O 0.9560(8) 0.1176(7) 0.5958(5)
O6_2 O 0.9509(6) 0.1879(5) 0.6681(5)
O23_2 O 0.9130(6) 0.3281(6) 0.5880(5)
H9_2 H 0.9961 0.9765 0.9110
C28_2 C 0.9850(8) 0.4334(8) 0.7838(7)
H14_2 H 0.9880 0.3876 0.7905
C29_2 C 0.9603(8) 0.4568(8) 0.7286(7)
C30_2 C 0.9389(7) 0.4127(8) 0.6839(7)
H15_2 H 0.9415 0.3669 0.6907
C31_2 C 0.9142(9) 0.4353(8) 0.6302(7)
C32_2 C 0.9134(8) 0.5045(8) 0.6193(7)
H16_2 H 0.8973 0.5209 0.5830
C33_2 C 0.9363(8) 0.5465(8) 0.6627(7)
H17_2 H 0.9370 0.5921 0.6551
C34_2 C 0.9588(8) 0.5253(8) 0.7176(7)
C35_2 C 0.9798(8) 0.5694(7) 0.7624(7)
H18_2 H 0.9795 0.6151 0.7548
C36_2 C 0.8904(10) 0.3867(10) 0.5827(8)
O21_2 O 0.8738(9) 0.6840(10) 0.9012(7)
H65_2 H 0.857302 0.702312 0.862643
H66_2 H 0.868302 0.634672 0.900474
C16_2 C 0.0016(8) 0.0263(8) 0.7818(7)
C23_2 C 0.0127(9) 0.0140(8) 0.6680(7)
H12_2 H 0.0169 0.0105 0.6303
Pb3_2 Pb 0.19036(5) 0.68581(5) 0.54647(3)
C48_3 C 0.0533(11) 0.7285(12) 0.5242(9)
C49_3 C 0.2317(12) 0.5749(10) 0.6278(8)
C50_3 C 0.2429(8) 0.5209(9) 0.6710(8)
C51_3 C 0.1944(8) 0.5024(8) 0.7002(8)
H25_3 H 0.1544 0.5256 0.6956
C52_3 C 0.2068(8) 0.4477(9) 0.7367(8)
C53_3 C 0.1577(8) 0.4245(9) 0.7629(8)
H26_3 H 0.1151 0.4423 0.7538
C54_3 C 0.1721(8) 0.3742(9) 0.8032(8)
H27_3 H 0.1402 0.3618 0.8239
C55_3 C 0.2328(8) 0.3422(9) 0.8129(8)
C56_3 C 0.2825(8) 0.3636(9) 0.7857(7)
H28_3 H 0.3247 0.3447 0.7940
C57_3 C 0.2675(8) 0.4144(9) 0.7453(8)
C58_3 C 0.3174(8) 0.4377(9) 0.7197(8)
H29_3 H 0.3594 0.4183 0.7279
C59_3 C 0.3048(8) 0.4898(9) 0.6820(8)
H30_3 H 0.3381 0.5045 0.6637
C60_3 C 0.2482(13) 0.2885(10) 0.8581(9)
O15_3 O 0.0756(8) 0.6779(8) 0.5498(6)
O16_3 O 0.0871(6) 0.7723(6) 0.5087(5)
O17_3 O 0.2749(9) 0.5814(7) 0.5989(6)
O18_3 O 0.1835(9) 0.6125(8) 0.6212(6)
O19_3 O 0.2008(9) 0.2621(10) 0.8743(8)
O20_2 O 0.3036(8) 0.2658(9) 0.8748(6)
Pb6 Pb 0.30964(5) 0.18581(5) 0.95353(3)
O24_2 O 0.1467(6) 0.5901(6) 0.4627(5)
O25_2 O 0.1964(8) 0.7658(9) 0.6252(6)
C27_3 C 0.5048(9) 0.0227(9) 0.3283(8)
H13_3 H 0.5205 0.0390 0.3646
C28_3 C 0.4850(8) 0.0666(8) 0.2838(7)
H14_3 H 0.4880 0.1124 0.2905
C29_3 C 0.4603(8) 0.0432(8) 0.2286(7)
C30_3 C 0.4389(7) 0.0873(8) 0.1839(7)
H15_3 H 0.4415 0.1331 0.1907
C31_3 C 0.4142(9) 0.0647(8) 0.1302(7)
C36_3 C 0.3904(10) 0.1133(10) 0.0827(8)
O11 O 0.4130(6) 0.1719(6) 0.0880(5)
O12_2 O 0.3533(6) 0.0901(6) 0.0373(5)
Pb4 Pb 0.35743(3) 0.28659(3) 0.09452(2)
Pb2_3 Pb 0.51324(3) 0.78305(3) 0.43740(3)
C4_3 C 0.3249(9) 0.0480(8) 0.3215(6)
H2_3 H 0.3688 0.0629 0.3287
C5_3 C 0.2779(8) 0.0763(7) 0.2770(7)
C6_3 C 0.2956(7) 0.1269(7) 0.2409(6)
H3_3 H 0.3390 0.1431 0.2482
C7_3 C 0.2511(8) 0.1525(8) 0.1957(6)
C8_3 C 0.1845(9) 0.1291(9) 0.1862(8)
H4_3 H 0.1531 0.1468 0.1567
C9_3 C 0.1666(8) 0.0817(8) 0.2197(6)
H5_3 H 0.1226 0.0672 0.2124
C10_3 C 0.2112(9) 0.0525(8) 0.2655(6)
C11_3 C 0.1936(10) 0.0025(9) 0.2997(7)
C12_3 C 0.2738(10) 0.2030(10) 0.1595(7)
C13_3 C 0.4663(9) 0.3695(9) 0.1501(8)
C14_3 C 0.4924(8) 0.4244(7) 0.1898(7)
C15_3 C 0.4883(9) 0.4180(8) 0.2456(7)
H7_3 H 0.4768 0.3772 0.2596
C16_3 C 0.5016(8) 0.4737(8) 0.2818(7)
C17_3 C 0.4963(9) 0.4708(8) 0.3395(8)
H8_3 H 0.4900 0.4295 0.3553
C18_3 C 0.5002(9) 0.5270(9) 0.3733(7)
H9_3 H 0.4961 0.5235 0.4110
C19_3 C 0.5104(8) 0.5896(8) 0.3499(7)
C20_3 C 0.5183(9) 0.5951(9) 0.2952(7)
H10_3 H 0.5257 0.6367 0.2804
C21_3 C 0.5153(8) 0.5362(8) 0.2604(7)
C22_3 C 0.5255(10) 0.5386(9) 0.2030(7)
H11_3 H 0.5415 0.5778 0.1897
C23_3 C 0.5127(9) 0.4860(8) 0.1680(7)
H12_3 H 0.5169 0.4895 0.1303
C24_3 C 0.5104(8) 0.6504(9) 0.3839(8)
C25_3 C 0.5180(9) 0.9040(9) 0.3667(7)
C26_3 C 0.5014(8) 0.9523(9) 0.3184(7)
C32_3 C 0.4134(8) 0.9955(8) 0.1193(7)
H16_3 H 0.3973 0.9791 0.0830
C33_3 C 0.4363(8) 0.9535(8) 0.1627(7)
H17_3 H 0.4370 0.9079 0.1551
C34_3 C 0.4588(8) 0.9747(8) 0.2176(7)
C35_3 C 0.4798(8) 0.9306(7) 0.2624(7)
H18_3 H 0.4795 0.8849 0.2548
C37_3 C 0.6546(11) 0.7505(11) 0.4885(9)
C38_3 C 0.7284(11) 0.7435(11) 0.5015(8)
C39_3 C 0.7570(11) 0.6967(10) 0.5460(8)
H19_3 H 0.7305 0.6746 0.5675
C40_3 C 0.8229(10) 0.6865(11) 0.5551(8)
H20_3 H 0.8420 0.6558 0.5825
C41_3 C 0.8622(11) 0.7198(11) 0.5253(8)
C42_3 C 0.9358(10) 0.7026(10) 0.5393(8)
H21_3 H 0.9529 0.6695 0.5652
C43_3 C 0.9753(11) 0.7395(11) 0.5106(8)
C44_3 C 0.9476(11) 0.7883(10) 0.4697(8)
H22_3 H 0.9754 0.8144 0.4524
C45_3 C 0.8780(11) 0.7976(10) 0.4553(8)
H23_3 H 0.8593 0.8268 0.4264
C46_3 C 0.8397(11) 0.7633(11) 0.4843(8)
C47_3 C 0.7646(10) 0.7732(11) 0.4726(8)
H24_3 H 0.7451 0.8017 0.4435
O3_3 O 0.3320(6) 0.2262(6) 0.1737(5)
O4_3 O 0.2364(6) 0.2200(6) 0.1141(5)
O5_3 O 0.4560(8) 0.3824(7) 0.0958(5)
O6_3 O 0.4509(6) 0.3121(5) 0.1681(5)
O7_3 O 0.5190(6) 0.6451(5) 0.4369(4)
O8_3 O 0.5019(7) 0.7073(6) 0.3601(5)
O9_3 O 0.5164(6) 0.8420(5) 0.3529(5)
O10_3 O 0.5326(7) 0.9233(6) 0.4156(5)
O13_3 O 0.6287(6) 0.7759(6) 0.4379(5)
O14_3 O 0.6214(7) 0.7357(7) 0.5220(6)
O21_3 O 0.3738(9) 0.8160(10) 0.4012(7)
O22_2 O 0.3257(6) 0.3803(6) 0.1439(6)
H65_3 H 0.357302 0.797688 0.362643
H66_3 H 0.368302 0.865328 0.400474
C1_3 C 0.2187(10) 0.9186(9) 0.3783(8)
C2_3 C 0.2381(9) 0.9754(8) 0.3433(6)
C3_3 C 0.3051(9) 0.9977(8) 0.3545(7)
H1_3 H 0.3356 0.9787 0.3839
H6_3 H 0.1500 0.9869 0.2926
O1_2 O 0.1743(6) 0.8803(6) 0.3561(6)
O2_3 O 0.2503(10) 0.9125(8) 0.4277(6)
Pb5_2 Pb 0.14257(3) 0.78659(3) 0.40548(2)
H9_4 H 0.0039 0.0235 0.0890
C28_4 C 0.0150(8) 0.5666(8) 0.2162(7)
H14_4 H 0.0120 0.6124 0.2095
C29_4 C 0.0397(8) 0.5432(8) 0.2714(7)
C30_4 C 0.0611(7) 0.5873(8) 0.3161(7)
H15_4 H 0.0585 0.6331 0.3093
C31_4 C 0.0858(9) 0.5647(8) 0.3698(7)
C32_4 C 0.0866(8) 0.4955(8) 0.3807(7)
H16_4 H 0.1027 0.4791 0.4170
C33_4 C 0.0637(8) 0.4535(8) 0.3373(7)
H17_4 H 0.0630 0.4079 0.3449
C34_4 C 0.0412(8) 0.4747(8) 0.2824(7)
C35_4 C 0.0202(8) 0.4306(7) 0.2376(7)
H18_4 H 0.0205 0.3849 0.2452
C36_4 C 0.1096(10) 0.6133(10) 0.4173(8)
O11_2 O 0.0870(6) 0.6719(6) 0.4120(5)
O21_4 O 0.1262(9) 0.3160(10) 0.0988(7)
H65_4 H 0.142698 0.297688 0.137357
H66_4 H 0.131698 0.365328 0.0995258
C1_4 C 0.2813(10) 0.4186(9) 0.1217(8)
C2_4 C 0.2619(9) 0.4754(8) 0.1567(6)
C3_4 C 0.1949(9) 0.4977(8) 0.1455(7)
H1_4 H 0.1644 0.4787 0.1161
C4_4 C 0.1751(9) 0.5480(8) 0.1785(6)
H2_4 H 0.1312 0.5629 0.1713
C5_4 C 0.2221(8) 0.5763(7) 0.2230(7)
C6_4 C 0.2044(7) 0.6269(7) 0.2591(6)
H3_4 H 0.1610 0.6431 0.2518
C7_4 C 0.2489(8) 0.6525(8) 0.3043(6)
C8_4 C 0.3155(9) 0.6291(9) 0.3138(8)
H4_4 H 0.3469 0.6468 0.3433
C9_4 C 0.3334(8) 0.5817(8) 0.2803(6)
H5_4 H 0.3774 0.5672 0.2876
C10_4 C 0.2888(9) 0.5525(8) 0.2345(6)
C11_4 C 0.3064(10) 0.5025(9) 0.2003(7)
H6_4 H 0.3500 0.4869 0.2074
C12_4 C 0.2262(10) 0.7030(10) 0.3405(7)
C13_4 C 0.0337(9) 0.8695(9) 0.3499(8)
C14_4 C 0.0076(8) 0.9244(7) 0.3102(7)
C15_4 C 0.0117(9) 0.9180(8) 0.2544(7)
H7_4 H 0.0232 0.8772 0.2404
C17_4 C 0.0037(9) 0.9708(8) 0.1605(8)
H8_4 H 0.0100 0.9295 0.1447
O2_4 O 0.2497(10) 0.4125(8) 0.0723(6)
O3_4 O 0.1680(6) 0.7262(6) 0.3263(5)
O4_4 O 0.2636(6) 0.7200(6) 0.3859(5)
O5_4 O 0.0440(8) 0.8824(7) 0.4042(5)
O6_4 O 0.0491(6) 0.8121(5) 0.3319(5)
Pb2_4 Pb 0.98676(3) 0.28305(3) 0.06260(3)
C18_4 C 0.9998(9) 0.0270(9) 0.1267(7)
C19_4 C 0.9896(8) 0.0896(8) 0.1501(7)
C20_4 C 0.9817(9) 0.0951(9) 0.2048(7)
H10_4 H 0.9743 0.1367 0.2196
C21_4 C 0.9847(8) 0.0362(8) 0.2396(7)
C22_4 C 0.9745(10) 0.0386(9) 0.2970(7)
H11_4 H 0.9585 0.0778 0.3103
C24_4 C 0.9896(8) 0.1504(9) 0.1161(8)
C25_4 C 0.9820(9) 0.4040(9) 0.1333(7)
C26_4 C 0.9986(8) 0.4523(9) 0.1816(7)
C27_4 C 0.9952(9) 0.5227(9) 0.1717(8)
H13_4 H 0.9795 0.5390 0.1354
C37_4 C 0.8454(11) 0.2505(11) 0.0115(9)
C44_4 C 0.5524(11) 0.2883(10) 0.0303(8)
H22_4 H 0.5246 0.3144 0.0476
C45_4 C 0.6220(11) 0.2976(10) 0.0447(8)
H23_4 H 0.6407 0.3268 0.0736
C46_4 C 0.6603(11) 0.2633(11) 0.0157(8)
C47_4 C 0.7354(10) 0.2732(11) 0.0274(8)
H24_4 H 0.7549 0.3017 0.0565
O7_4 O 0.9810(6) 0.1451(5) 0.0631(4)
O8_4 O 0.9981(7) 0.2073(6) 0.1399(5)
O9_4 O 0.9836(6) 0.3420(5) 0.1471(5)
O10_4 O 0.9674(7) 0.4233(6) 0.0844(5)
O13_4 O 0.8713(6) 0.2759(6) 0.0621(5)
C38_4 C 0.7716(11) 0.2435(11) 0.9985(8)
C39_4 C 0.7430(11) 0.1967(10) 0.9540(8)
H19_4 H 0.7695 0.1746 0.9325
C40_4 C 0.6771(10) 0.1865(11) 0.9449(8)
H20_4 H 0.6580 0.1558 0.9175
C41_4 C 0.6378(11) 0.2198(11) 0.9747(8)
C42_4 C 0.5642(10) 0.2026(10) 0.9607(8)
H21_4 H 0.5471 0.1695 0.9348
C43_4 C 0.5247(11) 0.2395(11) 0.9894(8)
C48_4 C 0.4467(11) 0.2285(12) 0.9758(9)
C49_4 C 0.2683(12) 0.0749(10) 0.8722(8)
C50_4 C 0.2571(8) 0.0209(9) 0.8290(8)
C51_4 C 0.3056(8) 0.0024(8) 0.7998(8)
H25_4 H 0.3456 0.0256 0.8044
H30_4 H 0.1619 0.0045 0.8363
O14_4 O 0.8786(7) 0.2357(7) 0.9780(6)
O15_4 O 0.4244(8) 0.1779(8) 0.9502(6)
O16_4 O 0.4129(6) 0.2723(6) 0.9913(5)
O17_4 O 0.2251(9) 0.0814(7) 0.9011(6)
O18_4 O 0.3165(9) 0.1125(8) 0.8788(6)
C52_4 C 0.2932(8) 0.9477(9) 0.7633(8)
C53_4 C 0.3423(8) 0.9245(9) 0.7371(8)
H26_4 H 0.3849 0.9423 0.7462
C54_4 C 0.3279(8) 0.8742(9) 0.6968(8)
H27_4 H 0.3598 0.8618 0.6761
C55_4 C 0.2672(8) 0.8422(9) 0.6871(8)
C56_4 C 0.2175(8) 0.8636(9) 0.7143(7)
H28_4 H 0.1753 0.8447 0.7060
C57_4 C 0.2325(8) 0.9144(9) 0.7547(8)
C58_4 C 0.1826(8) 0.9377(9) 0.7803(8)
H29_4 H 0.1406 0.9183 0.7721
C59_4 C 0.1952(8) 0.9898(9) 0.8180(8)
C60_4 C 0.2518(13) 0.7885(10) 0.6419(9)
O19_4 O 0.2992(9) 0.7621(10) 0.6257(8)
C16_4 C 0.9984(8) 0.9737(8) 0.2182(7)
C23_4 C 0.9873(9) 0.9860(8) 0.3320(7)
H12_4 H 0.9831 0.9895 0.3697
C61 C 0.1889(11) 0.2728(11) 0.6785(8)
H31 H 0.2313 0.2840 0.6733
C62 C 0.1051(12) 0.2259(12) 0.7087(10)
H32 H 0.0815 0.1982 0.7288
C63 C 0.0795(11) 0.2733(11) 0.6737(10)
H33 H 0.0347 0.2844 0.6637
C64 C 0.1263(10) 0.3572(13) 0.6172(8)
C65 C 0.0667(10) 0.3930(12) 0.6020(8)
H34 H 0.0292 0.3805 0.6157
C66 C 0.0648(10) 0.4474(12) 0.5661(8)
H35 H 0.0251 0.4702 0.5538
C67 C 0.1231(9) 0.4681(13) 0.5484(8)
H36 H 0.1254 0.5067 0.5273
C68 C 0.1770(10) 0.4258(13) 0.5653(8)
C69 C 0.2447(10) 0.4836(9) 0.5052(8)
H37 H 0.2116 0.5124 0.4872
C70 C 0.2984(8) 0.4085(10) 0.5628(8)
H38 H 0.3092 0.3760 0.5907
C71 C 0.3398(8) 0.4346(8) 0.5317(7)
H39 H 0.3844 0.4233 0.5347
C72 C 0.3276(9) 0.5140(9) 0.4480(7)
H40 H 0.3747 0.5242 0.4586
H41 H 0.3036 0.5556 0.4390
C73 C 0.3153(8) 0.4683(8) 0.3971(7)
C74 C 0.3595(10) 0.4203(10) 0.3904(8)
H42 H 0.3984 0.4158 0.4175
C75 C 0.3484(10) 0.3786(10) 0.3448(8)
H43 H 0.3808 0.3481 0.3394
C76 C 0.2877(10) 0.3818(7) 0.3061(7)
C77 C 0.2438(9) 0.4301(9) 0.3136(7)
H44 H 0.2045 0.4345 0.2871
C78 C 0.2554(9) 0.4722(9) 0.3587(7)
H45 H 0.2235 0.5035 0.3638
C79 C 0.2738(10) 0.3325(10) 0.2571(8)
H46 H 0.2642 0.3565 0.2214
H47 H 0.3127 0.3047 0.2573
C80 C 0.2143(9) 0.2478(8) 0.3051(7)
H48 H 0.2499 0.2360 0.3336
C81 C 0.1527(11) 0.2948(9) 0.2311(8)
H49 H 0.1398 0.3218 0.1994
C82 C 0.1136(10) 0.2549(10) 0.2531(8)
H50 H 0.0684 0.2481 0.2397
C83 C 0.1297(9) 0.1854(10) 0.3392(8)
C84 C 0.0641(11) 0.1846(10) 0.3447(9)
H51 H 0.0324 0.2094 0.3203
C85 C 0.0459(9) 0.1463(10) 0.3873(8)
H52 H 0.0018 0.1450 0.3916
C86 C 0.0932(10) 0.1105(9) 0.4228(8)
H53 H 0.0822 0.0844 0.4517
C87 C 0.1587(9) 0.1143(9) 0.4145(7)
C88 C 0.2066(9) 0.0390(9) 0.4904(8)
H54 H 0.1661 0.0218 0.4957
C89 C 0.2798(9) 0.0958(10) 0.4565(8)
H55 H 0.2987 0.1251 0.4342
C90 C 0.3120(9) 0.0602(10) 0.5003(8)
H56 H 0.3577 0.0597 0.5137
C92 C 0.2627(9) 0.0290(8) 0.6219(8)
C93 C 0.3095(12) 0.0781(12) 0.6465(10)
H59 H 0.3507 0.0795 0.6358
C94 C 0.2964(12) 0.1236(11) 0.6853(8)
H60 H 0.3276 0.1559 0.6998
C95 C 0.2374(10) 0.1209(10) 0.7022(7)
C96 C 0.1902(9) 0.0762(9) 0.6797(7)
H61 H 0.1487 0.0772 0.6898
C97 C 0.2040(11) 0.0291(10) 0.6414(8)
C98 C 0.2216(10) 0.1774(9) 0.7429(7)
H63 H 0.2033 0.1578 0.7734
H64 H 0.2621 0.2009 0.7594
N1 N 0.1744(9) 0.2235(9) 0.7113(7)
N2 N 0.1318(8) 0.3041(9) 0.6539(7)
N3 N 0.1810(8) 0.3736(10) 0.5991(7)
N4 N 0.2369(6) 0.4384(7) 0.5462(6)
N5 N 0.3053(7) 0.4810(7) 0.4945(6)
N6 N 0.2158(8) 0.2895(7) 0.2628(5)
N7 N 0.1510(6) 0.2256(7) 0.2989(6)
N8 N 0.1763(7) 0.1516(7) 0.3747(5)
N9 N 0.2131(8) 0.0811(7) 0.4507(6)
N10 N 0.2647(9) 0.0238(8) 0.5222(6)
C91 C 0.2777(11) 0.9858(10) 0.5757(7)
H57 H 0.3238 0.9718 0.5844
H58 H 0.2499 0.9461 0.5721
H62 H 0.1724 0.9963 0.6285
H37_2 H 0.2884 0.0124 0.0128
C72_2 C 0.1724(9) 0.0140(9) 0.0520(7)
H40_2 H 0.1253 0.0242 0.0414
H41_2 H 0.1964 0.0556 0.0610
H45_2 H 0.2765 0.0035 0.1362
H36_2 H 0.3746 0.0067 0.9727
C73_2 C 0.1847(8) 0.9683(8) 0.1029(7)
C74_2 C 0.1405(10) 0.9203(10) 0.1096(8)
H42_2 H 0.1016 0.9158 0.0825
C75_2 C 0.1516(10) 0.8786(10) 0.1552(8)
H43_2 H 0.1192 0.8481 0.1606
C76_2 C 0.2123(10) 0.8818(7) 0.1939(7)
C77_2 C 0.2562(9) 0.9301(9) 0.1864(7)
H44_2 H 0.2955 0.9345 0.2129
C78_2 C 0.2446(9) 0.9722(9) 0.1413(7)
C79_2 C 0.2262(10) 0.8325(10) 0.2429(8)
H46_2 H 0.2358 0.8565 0.2786
H47_2 H 0.1873 0.8047 0.2427
C80_2 C 0.2857(9) 0.7478(8) 0.1949(7)
H48_2 H 0.2501 0.7360 0.1664
C81_2 C 0.3473(11) 0.7948(9) 0.2689(8)
H49_2 H 0.3602 0.8218 0.3006
C82_2 C 0.3864(10) 0.7549(10) 0.2469(8)
H50_2 H 0.4316 0.7481 0.2603
C83_2 C 0.3703(9) 0.6854(10) 0.1608(8)
C84_2 C 0.4359(11) 0.6846(10) 0.1553(9)
H51_2 H 0.4676 0.7094 0.1797
C85_2 C 0.4541(9) 0.6463(10) 0.1127(8)
H52_2 H 0.4982 0.6450 0.1084
C86_2 C 0.4068(10) 0.6105(9) 0.0772(8)
H53_2 H 0.4178 0.5844 0.0483
C87_2 C 0.3413(9) 0.6143(9) 0.0855(7)
C88_2 C 0.2934(9) 0.5390(9) 0.0096(8)
H54_2 H 0.3339 0.5218 0.0043
C89_2 C 0.2202(9) 0.5958(10) 0.0435(8)
H55_2 H 0.2013 0.6251 0.0658
N5_2 N 0.1947(7) 0.9810(7) 0.0055(6)
N6_2 N 0.2842(8) 0.7895(7) 0.2372(5)
N7_2 N 0.3490(6) 0.7256(7) 0.2011(6)
N8_2 N 0.3237(7) 0.6516(7) 0.1253(5)
N9_2 N 0.2869(8) 0.5811(7) 0.0493(6)
C61_2 C 0.3111(11) 0.7728(11) 0.8215(8)
H31_2 H 0.2687 0.7840 0.8267
C62_2 C 0.3949(12) 0.7259(12) 0.7913(10)
H32_2 H 0.4185 0.6982 0.7712
C63_2 C 0.4205(11) 0.7733(11) 0.8263(10)
H33_2 H 0.4653 0.7844 0.8363
C64_2 C 0.3737(10) 0.8572(13) 0.8828(8)
C65_2 C 0.4333(10) 0.8930(12) 0.8980(8)
H34_2 H 0.4708 0.8805 0.8843
C66_2 C 0.4352(10) 0.9474(12) 0.9339(8)
H35_2 H 0.4749 0.9702 0.9462
C67_2 C 0.3769(9) 0.9681(13) 0.9516(8)
C68_2 C 0.3230(10) 0.9258(13) 0.9347(8)
C69_2 C 0.2553(10) 0.9836(9) 0.9948(8)
C70_2 C 0.2016(8) 0.9085(10) 0.9372(8)
H38_2 H 0.1908 0.8760 0.9093
C71_2 C 0.1602(8) 0.9346(8) 0.9683(7)
H39_2 H 0.1156 0.9233 0.9653
C90_2 C 0.1880(9) 0.5602(10) 0.9997(8)
H56_2 H 0.1423 0.5597 0.9863
C91_2 C 0.2223(11) 0.4858(10) 0.9243(7)
H57_2 H 0.1762 0.4718 0.9156
H58_2 H 0.2501 0.4461 0.9279
C92_2 C 0.2373(9) 0.5290(8) 0.8781(8)
C93_2 C 0.1905(12) 0.5781(12) 0.8535(10)
H59_2 H 0.1493 0.5795 0.8642
C94_2 C 0.2036(12) 0.6236(11) 0.8147(8)
H60_2 H 0.1724 0.6559 0.8002
C95_2 C 0.2626(10) 0.6209(10) 0.7978(7)
C96_2 C 0.3098(9) 0.5762(9) 0.8203(7)
H61_2 H 0.3513 0.5772 0.8102
C97_2 C 0.2960(11) 0.5291(10) 0.8586(8)
H62_2 H 0.3276 0.4963 0.8715
C98_2 C 0.2784(10) 0.6774(9) 0.7571(7)
H63_2 H 0.2967 0.6578 0.7266
H64_2 H 0.2379 0.7009 0.7406
N1_2 N 0.3256(9) 0.7235(9) 0.7887(7)
N2_2 N 0.3682(8) 0.8041(9) 0.8461(7)
N3_2 N 0.3190(8) 0.8736(10) 0.9009(7)
N4_2 N 0.2631(6) 0.9384(7) 0.9538(6)
N10_2 N 0.2353(9) 0.5238(8) 0.9778(6)
C91_3 C 0.7223(11) 0.0142(10) 0.4243(7)
H57_3 H 0.6762 0.0282 0.4156
H58_3 H 0.7501 0.0539 0.4279
H62_3 H 0.8276 0.0037 0.3715
C61_3 C 0.8111(11) 0.7272(11) 0.3215(8)
H31_3 H 0.7687 0.7160 0.3267
C62_3 C 0.8949(12) 0.7741(12) 0.2913(10)
H32_3 H 0.9185 0.8018 0.2712
C63_3 C 0.9205(11) 0.7267(11) 0.3263(10)
H33_3 H 0.9653 0.7156 0.3363
C64_3 C 0.8737(10) 0.6428(13) 0.3828(8)
C65_3 C 0.9333(10) 0.6070(12) 0.3980(8)
H34_3 H 0.9708 0.6195 0.3843
C66_3 C 0.9352(10) 0.5526(12) 0.4339(8)
H35_3 H 0.9749 0.5298 0.4462
C67_3 C 0.8769(9) 0.5319(13) 0.4516(8)
H36_3 H 0.8746 0.4933 0.4727
C68_3 C 0.8230(10) 0.5742(13) 0.4347(8)
C69_3 C 0.7553(10) 0.5164(9) 0.4948(8)
H37_3 H 0.7884 0.4876 0.5128
C70_3 C 0.7016(8) 0.5915(10) 0.4372(8)
H38_3 H 0.6908 0.6240 0.4093
C71_3 C 0.6602(8) 0.5654(8) 0.4683(7)
H39_3 H 0.6156 0.5767 0.4653
C72_3 C 0.6724(9) 0.4860(9) 0.5520(7)
H40_3 H 0.6253 0.4758 0.5414
H41_3 H 0.6964 0.4444 0.5610
C73_3 C 0.6847(8) 0.5317(8) 0.6029(7)
C74_3 C 0.6405(10) 0.5797(10) 0.6096(8)
H42_3 H 0.6016 0.5842 0.5825
C75_3 C 0.6516(10) 0.6214(10) 0.6552(8)
H43_3 H 0.6192 0.6519 0.6606
C76_3 C 0.7123(10) 0.6182(7) 0.6939(7)
C77_3 C 0.7562(9) 0.5699(9) 0.6864(7)
H44_3 H 0.7955 0.5655 0.7129
C78_3 C 0.7446(9) 0.5278(9) 0.6413(7)
H45_3 H 0.7765 0.4965 0.6362
C79_3 C 0.7262(10) 0.6675(10) 0.7429(8)
H46_3 H 0.7358 0.6435 0.7786
H47_3 H 0.6873 0.6953 0.7427
C80_3 C 0.7857(9) 0.7522(8) 0.6949(7)
H48_3 H 0.7501 0.7640 0.6664
C81_3 C 0.8473(11) 0.7052(9) 0.7689(8)
H49_3 H 0.8602 0.6782 0.8006
C82_3 C 0.8864(10) 0.7451(10) 0.7469(8)
H50_3 H 0.9316 0.7519 0.7603
C83_3 C 0.8703(9) 0.8146(10) 0.6608(8)
C84_3 C 0.9359(11) 0.8154(10) 0.6553(9)
H51_3 H 0.9676 0.7906 0.6797
C85_3 C 0.9541(9) 0.8537(10) 0.6127(8)
H52_3 H 0.9982 0.8550 0.6084
C86_3 C 0.9068(10) 0.8895(9) 0.5772(8)
H53_3 H 0.9178 0.9156 0.5483
C87_3 C 0.8413(9) 0.8857(9) 0.5855(7)
C88_3 C 0.7934(9) 0.9610(9) 0.5096(8)
H54_3 H 0.8339 0.9782 0.5043
C89_3 C 0.7202(9) 0.9042(10) 0.5435(8)
H55_3 H 0.7013 0.8749 0.5658
C90_3 C 0.6880(9) 0.9398(10) 0.4997(8)
H56_3 H 0.6423 0.9403 0.4863
C92_3 C 0.7373(9) 0.9710(8) 0.3781(8)
C93_3 C 0.6905(12) 0.9219(12) 0.3535(10)
H59_3 H 0.6493 0.9205 0.3642
C94_3 C 0.7036(12) 0.8764(11) 0.3147(8)
H60_3 H 0.6724 0.8441 0.3002
C95_3 C 0.7626(10) 0.8791(10) 0.2978(7)
C96_3 C 0.8098(9) 0.9238(9) 0.3203(7)
H61_3 H 0.8513 0.9228 0.3102
C97_3 C 0.7960(11) 0.9709(10) 0.3586(8)
C98_3 C 0.7784(10) 0.8226(9) 0.2571(7)
H63_3 H 0.7967 0.8422 0.2266
H64_3 H 0.7379 0.7991 0.2406
N1_3 N 0.8256(9) 0.7765(9) 0.2887(7)
N2_3 N 0.8682(8) 0.6959(9) 0.3461(7)
N3_3 N 0.8190(8) 0.6264(10) 0.4009(7)
N4_3 N 0.7631(6) 0.5616(7) 0.4538(6)
N5_3 N 0.6947(7) 0.5190(7) 0.5055(6)
N6_3 N 0.7842(8) 0.7105(7) 0.7372(5)
N7_3 N 0.8490(6) 0.7744(7) 0.7011(6)
N8_3 N 0.8237(7) 0.8484(7) 0.6253(5)
N9_3 N 0.7869(8) 0.9189(7) 0.5493(6)
N10_3 N 0.7353(9) 0.9762(8) 0.4778(6)
C61_4 C 0.6889(11) 0.2272(11) 0.1785(8)
H31_4 H 0.7313 0.2160 0.1733
C62_4 C 0.6051(12) 0.2741(12) 0.2087(10)
H32_4 H 0.5815 0.3018 0.2288
C63_4 C 0.5795(11) 0.2267(11) 0.1737(10)
H33_4 H 0.5347 0.2156 0.1637
C64_4 C 0.6263(10) 0.1428(13) 0.1172(8)
C65_4 C 0.5667(10) 0.1070(12) 0.1020(8)
H34_4 H 0.5292 0.1195 0.1157
C66_4 C 0.5648(10) 0.0526(12) 0.0661(8)
H35_4 H 0.5251 0.0298 0.0538
C67_4 C 0.6231(9) 0.0319(13) 0.0484(8)
C68_4 C 0.6770(10) 0.0742(13) 0.0653(8)
C69_4 C 0.7447(10) 0.0164(9) 0.0052(8)
C70_4 C 0.7984(8) 0.0915(10) 0.0628(8)
H38_4 H 0.8092 0.1240 0.0907
C71_4 C 0.8398(8) 0.0654(8) 0.0317(7)
H39_4 H 0.8844 0.0767 0.0347
C90_4 C 0.8120(9) 0.4398(10) 0.0003(8)
H56_4 H 0.8577 0.4403 0.0137
C91_4 C 0.7777(11) 0.5142(10) 0.0757(7)
H57_4 H 0.8238 0.5282 0.0844
H58_4 H 0.7499 0.5539 0.0721
C92_4 C 0.7627(9) 0.4710(8) 0.1219(8)
C93_4 C 0.8095(12) 0.4219(12) 0.1465(10)
H59_4 H 0.8507 0.4205 0.1358
C94_4 C 0.7964(12) 0.3764(11) 0.1853(8)
H60_4 H 0.8276 0.3441 0.1998
C95_4 C 0.7374(10) 0.3791(10) 0.2022(7)
C96_4 C 0.6902(9) 0.4238(9) 0.1797(7)
H61_4 H 0.6487 0.4228 0.1898
C97_4 C 0.7040(11) 0.4709(10) 0.1414(8)
H62_4 H 0.6724 0.5037 0.1285
C98_4 C 0.7216(10) 0.3226(9) 0.2429(7)
H63_4 H 0.7033 0.3422 0.2734
H64_4 H 0.7621 0.2991 0.2594
N1_4 N 0.6744(9) 0.2765(9) 0.2113(7)
N2_4 N 0.6318(8) 0.1959(9) 0.1539(7)
N3_4 N 0.6810(8) 0.1264(10) 0.0991(7)
N4_4 N 0.7369(6) 0.0616(7) 0.0462(6)
N10_4 N 0.7647(9) 0.4762(8) 0.0222(6)
C73_4 C 0.8153(8) 0.0317(8) 0.8971(7)
C74_4 C 0.8595(10) 0.0797(10) 0.8904(8)
H42_4 H 0.8984 0.0842 0.9175
C75_4 C 0.8484(10) 0.1214(10) 0.8448(8)
H43_4 H 0.8808 0.1519 0.8394
C76_4 C 0.7877(10) 0.1182(7) 0.8061(7)
C77_4 C 0.7438(9) 0.0699(9) 0.8136(7)
H44_4 H 0.7045 0.0655 0.7871
C78_4 C 0.7554(9) 0.0278(9) 0.8587(7)
C79_4 C 0.7738(10) 0.1675(10) 0.7571(8)
H46_4 H 0.7642 0.1435 0.7214
H47_4 H 0.8127 0.1953 0.7573
C80_4 C 0.7143(9) 0.2522(8) 0.8051(7)
H48_4 H 0.7499 0.2640 0.8336
C81_4 C 0.6527(11) 0.2052(9) 0.7311(8)
H49_4 H 0.6398 0.1782 0.6994
C82_4 C 0.6136(10) 0.2451(10) 0.7531(8)
H50_4 H 0.5684 0.2519 0.7397
C83_4 C 0.6297(9) 0.3146(10) 0.8392(8)
C84_4 C 0.5641(11) 0.3154(10) 0.8447(9)
H51_4 H 0.5324 0.2906 0.8203
C85_4 C 0.5459(9) 0.3537(10) 0.8873(8)
H52_4 H 0.5018 0.3550 0.8916
C86_4 C 0.5932(10) 0.3895(9) 0.9228(8)
H53_4 H 0.5822 0.4156 0.9517
C87_4 C 0.6587(9) 0.3857(9) 0.9145(7)
C88_4 C 0.7066(9) 0.4610(9) 0.9904(8)
H54_4 H 0.6661 0.4782 0.9957
C89_4 C 0.7798(9) 0.4042(10) 0.9565(8)
H55_4 H 0.7987 0.3749 0.9342
N5_4 N 0.8053(7) 0.0190(7) 0.9945(6)
N6_4 N 0.7158(8) 0.2105(7) 0.7628(5)
N7_4 N 0.6510(6) 0.2744(7) 0.7989(6)
N8_4 N 0.6763(7) 0.3484(7) 0.8747(5)
N9_4 N 0.7131(8) 0.4189(7) 0.9507(6)
H36_4 H 0.6254 0.9933 0.0273
H37_4 H 0.7116 0.9876 0.9872
C72_4 C 0.8276(9) 0.9860(9) 0.9480(7)
H40_4 H 0.8747 0.9758 0.9586
H41_4 H 0.8036 0.9444 0.9390
H45_4 H 0.7235 0.9965 0.8638
loop_
_geom_bond_atom_site_label_1
_geom_bond_atom_site_label_2
_geom_bond_site_symmetry_1
_geom_bond_site_symmetry_2
C1 C2 1_555 1_555
C2 C3 1_555 1_555
C3 H1 1_555 1_555
O1 C1 1_555 1_555
O2 C1 1_555 1_555
Pb5 O1 1_555 1_555
Pb1 O3 1_555 1_555
Pb2 O7 1_555 1_555
H2 C4 1_555 1_555
C5 C4 1_555 1_555
C6 C5 1_555 1_555
H3 C6 1_555 1_555
C7 C6 1_555 1_555
C8 C7 1_555 1_555
H4 C8 1_555 1_555
C9 C8 1_555 1_555
H5 C9 1_555 1_555
C10 C5 1_555 1_555
C12 C7 1_555 1_555
C13 C14 1_555 1_555
C14 C15 1_555 1_555
C15 H7 1_555 1_555
C16 C15 1_555 1_555
C17 C16 1_555 1_555
H8 C17 1_555 1_555
C18 C17 1_555 1_555
H9 C18 1_555 1_555
C19 C18 1_555 1_555
C20 C19 1_555 1_555
H10 C20 1_555 1_555
C21 C16 1_555 1_555
C22 C21 1_555 1_555
H11 C22 1_555 1_555
C23 C14 1_555 1_555
H12 C23 1_555 1_555
C24 C19 1_555 1_555
C25 C26 1_555 1_555
H16 C32 1_555 1_555
C33 C32 1_555 1_555
H17 C33 1_555 1_555
C35 C26 1_555 1_555
H18 C35 1_555 1_555
C37 C38 1_555 1_555
C38 C39 1_555 1_555
C39 H19 1_555 1_555
C40 C39 1_555 1_555
H20 C40 1_555 1_555
C41 C40 1_555 1_555
C42 C41 1_555 1_555
H21 C42 1_555 1_555
C43 C42 1_555 1_555
C44 C43 1_555 1_555
H22 C44 1_555 1_555
C45 C44 1_555 1_555
H23 C45 1_555 1_555
C46 C41 1_555 1_555
C47 C38 1_555 1_555
H24 C47 1_555 1_555
O3 C12 1_555 1_555
O4 C12 1_555 1_555
O5 Pb1 1_555 1_555
O6 Pb1 1_555 1_555
O7 C24 1_555 1_555
O8 Pb2 1_555 1_555
O9 Pb2 1_555 1_555
O10 Pb2 1_555 1_555
O13 Pb2 1_555 1_555
O14 Pb2 1_555 1_555
O21 Pb2 1_555 1_555
O22 Pb1 1_555 1_555
O23 Pb1 1_555 1_555
C9 C10 1_555 1_555
C10 C11 1_555 1_555
C13 O5 1_555 1_555
C13 O6 1_555 1_555
C20 C21 1_555 1_555
C22 C23 1_555 1_555
C24 O8 1_555 1_555
C25 O9 1_555 1_555
C25 O10 1_555 1_555
C33 C34 1_555 1_555
C34 C35 1_555 1_555
C37 O13 1_555 1_555
C37 O14 1_555 1_555
C45 C46 1_555 1_555
C46 C47 1_555 1_555
O21 H65 1_555 1_555
O21 H66 1_555 1_555
C27 H13 1_555 1_555
C28 C27 1_555 1_555
H14 C28 1_555 1_555
C29 C28 1_555 1_555
C30 C29 1_555 1_555
H15 C30 1_555 1_555
C31 C30 1_555 1_555
C36 C31 1_555 1_555
O23 C36 1_555 1_555
O12 C36 1_555 1_555
Pb3 O15 1_555 1_555
C49 C50 1_555 1_555
C50 C51 1_555 1_555
C51 H25 1_555 1_555
C52 C51 1_555 1_555
C53 C52 1_555 1_555
H26 C53 1_555 1_555
C54 C53 1_555 1_555
H27 C54 1_555 1_555
C55 C54 1_555 1_555
C56 C55 1_555 1_555
H28 C56 1_555 1_555
C57 C52 1_555 1_555
C58 C57 1_555 1_555
H29 C58 1_555 1_555
C59 C50 1_555 1_555
H30 C59 1_555 1_555
C60 C55 1_555 1_555
O15 C48 1_555 1_555
O16 Pb3 1_555 1_555
O17 Pb3 1_555 1_555
O18 Pb3 1_555 1_555
O19 C60 1_555 1_555
O20 C60 1_555 1_555
Pb7 O20 1_555 1_555
O24 Pb3 1_555 1_555
O25 Pb3 1_555 1_555
C48 O16 1_555 1_555
C49 O17 1_555 1_555
C49 O18 1_555 1_555
C56 C57 1_555 1_555
C58 C59 1_555 1_555
C53_2 C52_2 1_555 1_555
H26_2 C53_2 1_555 1_555
C54_2 C53_2 1_555 1_555
H27_2 C54_2 1_555 1_555
C55_2 C54_2 1_555 1_555
C56_2 C55_2 1_555 1_555
H28_2 C56_2 1_555 1_555
C57_2 C52_2 1_555 1_555
C58_2 C57_2 1_555 1_555
H29_2 C58_2 1_555 1_555
C60_2 C55_2 1_555 1_555
O19_2 C60_2 1_555 1_555
O25 C60_2 1_555 1_555
C56_2 C57_2 1_555 1_555
C58_2 C59_2 1_555 1_555
Pb7 O15_2 1_555 1_555
C38_2 C39_2 1_555 1_555
C39_2 H19_2 1_555 1_555
C40_2 C39_2 1_555 1_555
H20_2 C40_2 1_555 1_555
C41_2 C40_2 1_555 1_555
C42_2 C41_2 1_555 1_555
H21_2 C42_2 1_555 1_555
C43_2 C42_2 1_555 1_555
C48_2 C43_2 1_555 1_555
C49_2 C50_2 1_555 1_555
C50_2 C51_2 1_555 1_555
C51_2 H25_2 1_555 1_555
O15_2 C48_2 1_555 1_555
O16_2 Pb7 1_555 1_555
O17_2 Pb7 1_555 1_555
O18_2 Pb7 1_555 1_555
C48_2 O16_2 1_555 1_555
C49_2 O17_2 1_555 1_555
C49_2 O18_2 1_555 1_555
Pb2_2 O7_2 1_555 1_555
C19_2 C18_2 1_555 1_555
C20_2 C19_2 1_555 1_555
H10_2 C20_2 1_555 1_555
C22_2 C21_2 1_555 1_555
H11_2 C22_2 1_555 1_555
C24_2 C19_2 1_555 1_555
C25_2 C26_2 1_555 1_555
C26_2 C27_2 1_555 1_555
C27_2 H13_2 1_555 1_555
H22_2 C44_2 1_555 1_555
C45_2 C44_2 1_555 1_555
H23_2 C45_2 1_555 1_555
H24_2 C47_2 1_555 1_555
O7_2 C24_2 1_555 1_555
O8_2 Pb2_2 1_555 1_555
O9_2 Pb2_2 1_555 1_555
O10_2 Pb2_2 1_555 1_555
O13_2 Pb2_2 1_555 1_555
C20_2 C21_2 1_555 1_555
C24_2 O8_2 1_555 1_555
C25_2 O9_2 1_555 1_555
C25_2 O10_2 1_555 1_555
C37_2 O13_2 1_555 1_555
C45_2 C46_2 1_555 1_555
C46_2 C47_2 1_555 1_555
Pb5 O3_2 1_555 1_555
C1_2 C2_2 1_555 1_555
C2_2 C3_2 1_555 1_555
C3_2 H1_2 1_555 1_555
C4_2 C3_2 1_555 1_555
H2_2 C4_2 1_555 1_555
C5_2 C4_2 1_555 1_555
C6_2 C5_2 1_555 1_555
H3_2 C6_2 1_555 1_555
C7_2 C6_2 1_555 1_555
C8_2 C7_2 1_555 1_555
H4_2 C8_2 1_555 1_555
C9_2 C8_2 1_555 1_555
H5_2 C9_2 1_555 1_555
C10_2 C5_2 1_555 1_555
C11_2 C2_2 1_555 1_555
H6_2 C11_2 1_555 1_555
C12_2 C7_2 1_555 1_555
C13_2 C14_2 1_555 1_555
C14_2 C15_2 1_555 1_555
C15_2 H7_2 1_555 1_555
H8_2 C17_2 1_555 1_555
O22 C1_2 1_555 1_555
O2_2 C1_2 1_555 1_555
O3_2 C12_2 1_555 1_555
O4_2 C12_2 1_555 1_555
O5_2 Pb5 1_555 1_555
O6_2 Pb5 1_555 1_555
O23_2 Pb5 1_555 1_555
C9_2 C10_2 1_555 1_555
C10_2 C11_2 1_555 1_555
C13_2 O5_2 1_555 1_555
C13_2 O6_2 1_555 1_555
H14_2 C28_2 1_555 1_555
C29_2 C28_2 1_555 1_555
C30_2 C29_2 1_555 1_555
H15_2 C30_2 1_555 1_555
C31_2 C30_2 1_555 1_555
C32_2 C31_2 1_555 1_555
H16_2 C32_2 1_555 1_555
C33_2 C32_2 1_555 1_555
H17_2 C33_2 1_555 1_555
C34_2 C29_2 1_555 1_555
H18_2 C35_2 1_555 1_555
C36_2 C31_2 1_555 1_555
O23_2 C36_2 1_555 1_555
O24 C36_2 1_555 1_555
C33_2 C34_2 1_555 1_555
C34_2 C35_2 1_555 1_555
O21_2 H65_2 1_555 1_555
O21_2 H66_2 1_555 1_555
H12_2 C23_2 1_555 1_555
Pb3_2 O15_3 1_555 1_555
C49_3 C50_3 1_555 1_555
C50_3 C51_3 1_555 1_555
C51_3 H25_3 1_555 1_555
C52_3 C51_3 1_555 1_555
C53_3 C52_3 1_555 1_555
H26_3 C53_3 1_555 1_555
C54_3 C53_3 1_555 1_555
H27_3 C54_3 1_555 1_555
C55_3 C54_3 1_555 1_555
C56_3 C55_3 1_555 1_555
H28_3 C56_3 1_555 1_555
C57_3 C52_3 1_555 1_555
C58_3 C57_3 1_555 1_555
H29_3 C58_3 1_555 1_555
C59_3 C50_3 1_555 1_555
H30_3 C59_3 1_555 1_555
C60_3 C55_3 1_555 1_555
O15_3 C48_3 1_555 1_555
O16_3 Pb3_2 1_555 1_555
O17_3 Pb3_2 1_555 1_555
O18_3 Pb3_2 1_555 1_555
O19_3 C60_3 1_555 1_555
O20_2 C60_3 1_555 1_555
Pb6 O20_2 1_555 1_555
O24_2 Pb3_2 1_555 1_555
O25_2 Pb3_2 1_555 1_555
C48_3 O16_3 1_555 1_555
C49_3 O17_3 1_555 1_555
C49_3 O18_3 1_555 1_555
C56_3 C57_3 1_555 1_555
C58_3 C59_3 1_555 1_555
C27_3 H13_3 1_555 1_555
C28_3 C27_3 1_555 1_555
H14_3 C28_3 1_555 1_555
C29_3 C28_3 1_555 1_555
C30_3 C29_3 1_555 1_555
H15_3 C30_3 1_555 1_555
C31_3 C30_3 1_555 1_555
C36_3 C31_3 1_555 1_555
O11 C36_3 1_555 1_555
O12_2 C36_3 1_555 1_555
Pb4 O11 1_555 1_555
Pb4 O3_3 1_555 1_555
Pb2_3 O7_3 1_555 1_555
H2_3 C4_3 1_555 1_555
C5_3 C4_3 1_555 1_555
C6_3 C5_3 1_555 1_555
H3_3 C6_3 1_555 1_555
C7_3 C6_3 1_555 1_555
C8_3 C7_3 1_555 1_555
H4_3 C8_3 1_555 1_555
C9_3 C8_3 1_555 1_555
H5_3 C9_3 1_555 1_555
C10_3 C5_3 1_555 1_555
C12_3 C7_3 1_555 1_555
C13_3 C14_3 1_555 1_555
C14_3 C15_3 1_555 1_555
C15_3 H7_3 1_555 1_555
C16_3 C15_3 1_555 1_555
C17_3 C16_3 1_555 1_555
H8_3 C17_3 1_555 1_555
C18_3 C17_3 1_555 1_555
H9_3 C18_3 1_555 1_555
C19_3 C18_3 1_555 1_555
C20_3 C19_3 1_555 1_555
H10_3 C20_3 1_555 1_555
C21_3 C16_3 1_555 1_555
C22_3 C21_3 1_555 1_555
H11_3 C22_3 1_555 1_555
C23_3 C14_3 1_555 1_555
H12_3 C23_3 1_555 1_555
C24_3 C19_3 1_555 1_555
C25_3 C26_3 1_555 1_555
H16_3 C32_3 1_555 1_555
C33_3 C32_3 1_555 1_555
H17_3 C33_3 1_555 1_555
C35_3 C26_3 1_555 1_555
H18_3 C35_3 1_555 1_555
C37_3 C38_3 1_555 1_555
C38_3 C39_3 1_555 1_555
C39_3 H19_3 1_555 1_555
C40_3 C39_3 1_555 1_555
H20_3 C40_3 1_555 1_555
C41_3 C40_3 1_555 1_555
C42_3 C41_3 1_555 1_555
H21_3 C42_3 1_555 1_555
C43_3 C42_3 1_555 1_555
C44_3 C43_3 1_555 1_555
H22_3 C44_3 1_555 1_555
C45_3 C44_3 1_555 1_555
H23_3 C45_3 1_555 1_555
C46_3 C41_3 1_555 1_555
C47_3 C38_3 1_555 1_555
H24_3 C47_3 1_555 1_555
O3_3 C12_3 1_555 1_555
O4_3 C12_3 1_555 1_555
O5_3 Pb4 1_555 1_555
O6_3 Pb4 1_555 1_555
O7_3 C24_3 1_555 1_555
O8_3 Pb2_3 1_555 1_555
O9_3 Pb2_3 1_555 1_555
O10_3 Pb2_3 1_555 1_555
O13_3 Pb2_3 1_555 1_555
O14_3 Pb2_3 1_555 1_555
O21_3 Pb2_3 1_555 1_555
O22_2 Pb4 1_555 1_555
C9_3 C10_3 1_555 1_555
C10_3 C11_3 1_555 1_555
C13_3 O5_3 1_555 1_555
C13_3 O6_3 1_555 1_555
C20_3 C21_3 1_555 1_555
C22_3 C23_3 1_555 1_555
C24_3 O8_3 1_555 1_555
C25_3 O9_3 1_555 1_555
C25_3 O10_3 1_555 1_555
C33_3 C34_3 1_555 1_555
C34_3 C35_3 1_555 1_555
C37_3 O13_3 1_555 1_555
C37_3 O14_3 1_555 1_555
C45_3 C46_3 1_555 1_555
C46_3 C47_3 1_555 1_555
O21_3 H65_3 1_555 1_555
O21_3 H66_3 1_555 1_555
C1_3 C2_3 1_555 1_555
C2_3 C3_3 1_555 1_555
C3_3 H1_3 1_555 1_555
O1_2 C1_3 1_555 1_555
O2_3 C1_3 1_555 1_555
Pb5_2 O1_2 1_555 1_555
H14_4 C28_4 1_555 1_555
C29_4 C28_4 1_555 1_555
C30_4 C29_4 1_555 1_555
H15_4 C30_4 1_555 1_555
C31_4 C30_4 1_555 1_555
C32_4 C31_4 1_555 1_555
H16_4 C32_4 1_555 1_555
C33_4 C32_4 1_555 1_555
H17_4 C33_4 1_555 1_555
C34_4 C29_4 1_555 1_555
H18_4 C35_4 1_555 1_555
C36_4 C31_4 1_555 1_555
O11_2 C36_4 1_555 1_555
O24_2 C36_4 1_555 1_555
Pb5_2 O11_2 1_555 1_555
C33_4 C34_4 1_555 1_555
C34_4 C35_4 1_555 1_555
O21_4 H65_4 1_555 1_555
O21_4 H66_4 1_555 1_555
Pb5_2 O3_4 1_555 1_555
C1_4 C2_4 1_555 1_555
C2_4 C3_4 1_555 1_555
C3_4 H1_4 1_555 1_555
C4_4 C3_4 1_555 1_555
H2_4 C4_4 1_555 1_555
C5_4 C4_4 1_555 1_555
C6_4 C5_4 1_555 1_555
H3_4 C6_4 1_555 1_555
C7_4 C6_4 1_555 1_555
C8_4 C7_4 1_555 1_555
H4_4 C8_4 1_555 1_555
C9_4 C8_4 1_555 1_555
H5_4 C9_4 1_555 1_555
C10_4 C5_4 1_555 1_555
C11_4 C2_4 1_555 1_555
H6_4 C11_4 1_555 1_555
C12_4 C7_4 1_555 1_555
C13_4 C14_4 1_555 1_555
C14_4 C15_4 1_555 1_555
C15_4 H7_4 1_555 1_555
H8_4 C17_4 1_555 1_555
O22_2 C1_4 1_555 1_555
O2_4 C1_4 1_555 1_555
O3_4 C12_4 1_555 1_555
O4_4 C12_4 1_555 1_555
O5_4 Pb5_2 1_555 1_555
O6_4 Pb5_2 1_555 1_555
C9_4 C10_4 1_555 1_555
C10_4 C11_4 1_555 1_555
C13_4 O5_4 1_555 1_555
C13_4 O6_4 1_555 1_555
Pb2_4 O7_4 1_555 1_555
C19_4 C18_4 1_555 1_555
C20_4 C19_4 1_555 1_555
H10_4 C20_4 1_555 1_555
C22_4 C21_4 1_555 1_555
H11_4 C22_4 1_555 1_555
C24_4 C19_4 1_555 1_555
C25_4 C26_4 1_555 1_555
C26_4 C27_4 1_555 1_555
C27_4 H13_4 1_555 1_555
H22_4 C44_4 1_555 1_555
C45_4 C44_4 1_555 1_555
H23_4 C45_4 1_555 1_555
H24_4 C47_4 1_555 1_555
O7_4 C24_4 1_555 1_555
O8_4 Pb2_4 1_555 1_555
O9_4 Pb2_4 1_555 1_555
O10_4 Pb2_4 1_555 1_555
O13_4 Pb2_4 1_555 1_555
C20_4 C21_4 1_555 1_555
C24_4 O8_4 1_555 1_555
C25_4 O9_4 1_555 1_555
C25_4 O10_4 1_555 1_555
C37_4 O13_4 1_555 1_555
C45_4 C46_4 1_555 1_555
C46_4 C47_4 1_555 1_555
Pb6 O15_4 1_555 1_555
C38_4 C39_4 1_555 1_555
C39_4 H19_4 1_555 1_555
C40_4 C39_4 1_555 1_555
H20_4 C40_4 1_555 1_555
C41_4 C40_4 1_555 1_555
C42_4 C41_4 1_555 1_555
H21_4 C42_4 1_555 1_555
C43_4 C42_4 1_555 1_555
C48_4 C43_4 1_555 1_555
C49_4 C50_4 1_555 1_555
C50_4 C51_4 1_555 1_555
C51_4 H25_4 1_555 1_555
O15_4 C48_4 1_555 1_555
O16_4 Pb6 1_555 1_555
O17_4 Pb6 1_555 1_555
O18_4 Pb6 1_555 1_555
C48_4 O16_4 1_555 1_555
C49_4 O17_4 1_555 1_555
C49_4 O18_4 1_555 1_555
C53_4 C52_4 1_555 1_555
H26_4 C53_4 1_555 1_555
C54_4 C53_4 1_555 1_555
H27_4 C54_4 1_555 1_555
C55_4 C54_4 1_555 1_555
C56_4 C55_4 1_555 1_555
H28_4 C56_4 1_555 1_555
C57_4 C52_4 1_555 1_555
C58_4 C57_4 1_555 1_555
H29_4 C58_4 1_555 1_555
C60_4 C55_4 1_555 1_555
O19_4 C60_4 1_555 1_555
O25_2 C60_4 1_555 1_555
C56_4 C57_4 1_555 1_555
C58_4 C59_4 1_555 1_555
H12_4 C23_4 1_555 1_555
C61 H31 1_555 1_555
C62 H32 1_555 1_555
C63 C62 1_555 1_555
H33 C63 1_555 1_555
C64 C65 1_555 1_555
C65 H34 1_555 1_555
C66 C65 1_555 1_555
H35 C66 1_555 1_555
C67 C66 1_555 1_555
H36 C67 1_555 1_555
C68 C67 1_555 1_555
C69 H37 1_555 1_555
C70 H38 1_555 1_555
C71 C70 1_555 1_555
H39 C71 1_555 1_555
C72 H40 1_555 1_555
H41 C72 1_555 1_555
C73 C72 1_555 1_555
C74 C73 1_555 1_555
H42 C74 1_555 1_555
C75 C74 1_555 1_555
H43 C75 1_555 1_555
C76 C75 1_555 1_555
C77 C76 1_555 1_555
H44 C77 1_555 1_555
C78 C73 1_555 1_555
H45 C78 1_555 1_555
C79 C76 1_555 1_555
H46 C79 1_555 1_555
H47 C79 1_555 1_555
C80 H48 1_555 1_555
C81 H49 1_555 1_555
C82 C81 1_555 1_555
H50 C82 1_555 1_555
C83 C84 1_555 1_555
C84 H51 1_555 1_555
C85 C84 1_555 1_555
H52 C85 1_555 1_555
C86 C85 1_555 1_555
H53 C86 1_555 1_555
C87 C86 1_555 1_555
C88 H54 1_555 1_555
C89 H55 1_555 1_555
C90 C89 1_555 1_555
H56 C90 1_555 1_555
C93 C92 1_555 1_555
H59 C93 1_555 1_555
C94 C93 1_555 1_555
H60 C94 1_555 1_555
C95 C94 1_555 1_555
C96 C95 1_555 1_555
H61 C96 1_555 1_555
C97 C92 1_555 1_555
C98 C95 1_555 1_555
H63 C98 1_555 1_555
H64 C98 1_555 1_555
N1 C61 1_555 1_555
N2 C61 1_555 1_555
N3 C64 1_555 1_555
N4 C68 1_555 1_555
N5 C69 1_555 1_555
N6 C79 1_555 1_555
N7 C80 1_555 1_555
N8 C83 1_555 1_555
N9 C87 1_555 1_555
N10 C88 1_555 1_555
C62 N1 1_555 1_555
C63 N2 1_555 1_555
C64 N2 1_555 1_555
C68 N3 1_555 1_555
C69 N4 1_555 1_555
C70 N4 1_555 1_555
C71 N5 1_555 1_555
C72 N5 1_555 1_555
C77 C78 1_555 1_555
C80 N6 1_555 1_555
C81 N6 1_555 1_555
C82 N7 1_555 1_555
C83 N7 1_555 1_555
C87 N8 1_555 1_555
C88 N9 1_555 1_555
C89 N9 1_555 1_555
C90 N10 1_555 1_555
C96 C97 1_555 1_555
C98 N1 1_555 1_555
C91 H57 1_555 1_555
H58 C91 1_555 1_555
C72_2 H40_2 1_555 1_555
H41_2 C72_2 1_555 1_555
C74_2 C73_2 1_555 1_555
H42_2 C74_2 1_555 1_555
C75_2 C74_2 1_555 1_555
H43_2 C75_2 1_555 1_555
C76_2 C75_2 1_555 1_555
C77_2 C76_2 1_555 1_555
H44_2 C77_2 1_555 1_555
C78_2 C73_2 1_555 1_555
C79_2 C76_2 1_555 1_555
H46_2 C79_2 1_555 1_555
H47_2 C79_2 1_555 1_555
C80_2 H48_2 1_555 1_555
C81_2 H49_2 1_555 1_555
C82_2 C81_2 1_555 1_555
H50_2 C82_2 1_555 1_555
C83_2 C84_2 1_555 1_555
C84_2 H51_2 1_555 1_555
C85_2 C84_2 1_555 1_555
H52_2 C85_2 1_555 1_555
C86_2 C85_2 1_555 1_555
H53_2 C86_2 1_555 1_555
C87_2 C86_2 1_555 1_555
C88_2 H54_2 1_555 1_555
C89_2 H55_2 1_555 1_555
N6_2 C79_2 1_555 1_555
N7_2 C80_2 1_555 1_555
N8_2 C83_2 1_555 1_555
N9_2 C87_2 1_555 1_555
C77_2 C78_2 1_555 1_555
C80_2 N6_2 1_555 1_555
C81_2 N6_2 1_555 1_555
C82_2 N7_2 1_555 1_555
C83_2 N7_2 1_555 1_555
C87_2 N8_2 1_555 1_555
C88_2 N9_2 1_555 1_555
C89_2 N9_2 1_555 1_555
C61_2 H31_2 1_555 1_555
C62_2 H32_2 1_555 1_555
C63_2 C62_2 1_555 1_555
H33_2 C63_2 1_555 1_555
C64_2 C65_2 1_555 1_555
C65_2 H34_2 1_555 1_555
C66_2 C65_2 1_555 1_555
H35_2 C66_2 1_555 1_555
C67_2 C66_2 1_555 1_555
C68_2 C67_2 1_555 1_555
C70_2 H38_2 1_555 1_555
C71_2 C70_2 1_555 1_555
H39_2 C71_2 1_555 1_555
H56_2 C90_2 1_555 1_555
C91_2 H57_2 1_555 1_555
H58_2 C91_2 1_555 1_555
C92_2 C91_2 1_555 1_555
C93_2 C92_2 1_555 1_555
H59_2 C93_2 1_555 1_555
C94_2 C93_2 1_555 1_555
H60_2 C94_2 1_555 1_555
C95_2 C94_2 1_555 1_555
C96_2 C95_2 1_555 1_555
H61_2 C96_2 1_555 1_555
C97_2 C92_2 1_555 1_555
H62_2 C97_2 1_555 1_555
C98_2 C95_2 1_555 1_555
H63_2 C98_2 1_555 1_555
H64_2 C98_2 1_555 1_555
N1_2 C61_2 1_555 1_555
N2_2 C61_2 1_555 1_555
N3_2 C64_2 1_555 1_555
N4_2 C68_2 1_555 1_555
C62_2 N1_2 1_555 1_555
C63_2 N2_2 1_555 1_555
C64_2 N2_2 1_555 1_555
C68_2 N3_2 1_555 1_555
C69_2 N4_2 1_555 1_555
C70_2 N4_2 1_555 1_555
C90_2 N10_2 1_555 1_555
C91_2 N10_2 1_555 1_555
C96_2 C97_2 1_555 1_555
C98_2 N1_2 1_555 1_555
C91_3 H57_3 1_555 1_555
H58_3 C91_3 1_555 1_555
C61_3 H31_3 1_555 1_555
C62_3 H32_3 1_555 1_555
C63_3 C62_3 1_555 1_555
H33_3 C63_3 1_555 1_555
C64_3 C65_3 1_555 1_555
C65_3 H34_3 1_555 1_555
C66_3 C65_3 1_555 1_555
H35_3 C66_3 1_555 1_555
C67_3 C66_3 1_555 1_555
H36_3 C67_3 1_555 1_555
C68_3 C67_3 1_555 1_555
C69_3 H37_3 1_555 1_555
C70_3 H38_3 1_555 1_555
C71_3 C70_3 1_555 1_555
H39_3 C71_3 1_555 1_555
C72_3 H40_3 1_555 1_555
H41_3 C72_3 1_555 1_555
C73_3 C72_3 1_555 1_555
C74_3 C73_3 1_555 1_555
H42_3 C74_3 1_555 1_555
C75_3 C74_3 1_555 1_555
H43_3 C75_3 1_555 1_555
C76_3 C75_3 1_555 1_555
C77_3 C76_3 1_555 1_555
H44_3 C77_3 1_555 1_555
C78_3 C73_3 1_555 1_555
H45_3 C78_3 1_555 1_555
C79_3 C76_3 1_555 1_555
H46_3 C79_3 1_555 1_555
H47_3 C79_3 1_555 1_555
C80_3 H48_3 1_555 1_555
C81_3 H49_3 1_555 1_555
C82_3 C81_3 1_555 1_555
H50_3 C82_3 1_555 1_555
C83_3 C84_3 1_555 1_555
C84_3 H51_3 1_555 1_555
C85_3 C84_3 1_555 1_555
H52_3 C85_3 1_555 1_555
C86_3 C85_3 1_555 1_555
H53_3 C86_3 1_555 1_555
C87_3 C86_3 1_555 1_555
C88_3 H54_3 1_555 1_555
C89_3 H55_3 1_555 1_555
C90_3 C89_3 1_555 1_555
H56_3 C90_3 1_555 1_555
C93_3 C92_3 1_555 1_555
H59_3 C93_3 1_555 1_555
C94_3 C93_3 1_555 1_555
H60_3 C94_3 1_555 1_555
C95_3 C94_3 1_555 1_555
C96_3 C95_3 1_555 1_555
H61_3 C96_3 1_555 1_555
C97_3 C92_3 1_555 1_555
C98_3 C95_3 1_555 1_555
H63_3 C98_3 1_555 1_555
H64_3 C98_3 1_555 1_555
N1_3 C61_3 1_555 1_555
N2_3 C61_3 1_555 1_555
N3_3 C64_3 1_555 1_555
N4_3 C68_3 1_555 1_555
N5_3 C69_3 1_555 1_555
N6_3 C79_3 1_555 1_555
N7_3 C80_3 1_555 1_555
N8_3 C83_3 1_555 1_555
N9_3 C87_3 1_555 1_555
N10_3 C88_3 1_555 1_555
C62_3 N1_3 1_555 1_555
C63_3 N2_3 1_555 1_555
C64_3 N2_3 1_555 1_555
C68_3 N3_3 1_555 1_555
C69_3 N4_3 1_555 1_555
C70_3 N4_3 1_555 1_555
C71_3 N5_3 1_555 1_555
C72_3 N5_3 1_555 1_555
C77_3 C78_3 1_555 1_555
C80_3 N6_3 1_555 1_555
C81_3 N6_3 1_555 1_555
C82_3 N7_3 1_555 1_555
C83_3 N7_3 1_555 1_555
C87_3 N8_3 1_555 1_555
C88_3 N9_3 1_555 1_555
C89_3 N9_3 1_555 1_555
C90_3 N10_3 1_555 1_555
C96_3 C97_3 1_555 1_555
C98_3 N1_3 1_555 1_555
C61_4 H31_4 1_555 1_555
C62_4 H32_4 1_555 1_555
C63_4 C62_4 1_555 1_555
H33_4 C63_4 1_555 1_555
C64_4 C65_4 1_555 1_555
C65_4 H34_4 1_555 1_555
C66_4 C65_4 1_555 1_555
H35_4 C66_4 1_555 1_555
C67_4 C66_4 1_555 1_555
C68_4 C67_4 1_555 1_555
C70_4 H38_4 1_555 1_555
C71_4 C70_4 1_555 1_555
H39_4 C71_4 1_555 1_555
H56_4 C90_4 1_555 1_555
C91_4 H57_4 1_555 1_555
H58_4 C91_4 1_555 1_555
C92_4 C91_4 1_555 1_555
C93_4 C92_4 1_555 1_555
H59_4 C93_4 1_555 1_555
C94_4 C93_4 1_555 1_555
H60_4 C94_4 1_555 1_555
C95_4 C94_4 1_555 1_555
C96_4 C95_4 1_555 1_555
H61_4 C96_4 1_555 1_555
C97_4 C92_4 1_555 1_555
H62_4 C97_4 1_555 1_555
C98_4 C95_4 1_555 1_555
H63_4 C98_4 1_555 1_555
H64_4 C98_4 1_555 1_555
N1_4 C61_4 1_555 1_555
N2_4 C61_4 1_555 1_555
N3_4 C64_4 1_555 1_555
N4_4 C68_4 1_555 1_555
C62_4 N1_4 1_555 1_555
C63_4 N2_4 1_555 1_555
C64_4 N2_4 1_555 1_555
C68_4 N3_4 1_555 1_555
C69_4 N4_4 1_555 1_555
C70_4 N4_4 1_555 1_555
C90_4 N10_4 1_555 1_555
C91_4 N10_4 1_555 1_555
C96_4 C97_4 1_555 1_555
C98_4 N1_4 1_555 1_555
C74_4 C73_4 1_555 1_555
H42_4 C74_4 1_555 1_555
C75_4 C74_4 1_555 1_555
H43_4 C75_4 1_555 1_555
C76_4 C75_4 1_555 1_555
C77_4 C76_4 1_555 1_555
H44_4 C77_4 1_555 1_555
C78_4 C73_4 1_555 1_555
C79_4 C76_4 1_555 1_555
H46_4 C79_4 1_555 1_555
H47_4 C79_4 1_555 1_555
C80_4 H48_4 1_555 1_555
C81_4 H49_4 1_555 1_555
C82_4 C81_4 1_555 1_555
H50_4 C82_4 1_555 1_555
C83_4 C84_4 1_555 1_555
C84_4 H51_4 1_555 1_555
C85_4 C84_4 1_555 1_555
H52_4 C85_4 1_555 1_555
C86_4 C85_4 1_555 1_555
H53_4 C86_4 1_555 1_555
C87_4 C86_4 1_555 1_555
C88_4 H54_4 1_555 1_555
C89_4 H55_4 1_555 1_555
N6_4 C79_4 1_555 1_555
N7_4 C80_4 1_555 1_555
N8_4 C83_4 1_555 1_555
N9_4 C87_4 1_555 1_555
C77_4 C78_4 1_555 1_555
C80_4 N6_4 1_555 1_555
C81_4 N6_4 1_555 1_555
C82_4 N7_4 1_555 1_555
C83_4 N7_4 1_555 1_555
C87_4 N8_4 1_555 1_555
C88_4 N9_4 1_555 1_555
C89_4 N9_4 1_555 1_555
C72_4 H40_4 1_555 1_555
H41_4 C72_4 1_555 1_555

#END
