
###############################################################################
#
# This file contains modified crystal structure data generated from the
# MOF subset of the Cambridge Structural Database (CSD) v543 
# hosted by the Cambridge Crystallographic Data Centre (CCDC).
#
# This work is licensed under the Creative Commons
# Attribution-NonCommercial-ShareAlike 4.0 International License.
# To view a copy of this license, visit
# http://creativecommons.org/licenses/by-nc-sa/4.0/
# or send a letter to
# Creative Commons, PO Box 1866, Mountain View, CA 94042, USA.
#
# CIF created using the CSD Python API on 29 September 2022
# The structure has been converted into the P1 space group
# The structure has a 3D framework
# The original CSD entry OYUJUO is in the cubic crystal system
# The framework has been calculated to contain at least 10.0% void space
# The void calculation uses a probe of radius 1.32A, grid spacing 0.4
#
###############################################################################

data_OYUJUO
_chemical_formula_moiety         '(C240 H144 N24 Ni24 O102)n'
_symmetry_cell_setting           triclinic
_symmetry_space_group_name_H-M   'P 1'
_symmetry_Int_Tables_number      1
_space_group_name_Hall           'P 1'
loop_
_symmetry_equiv_pos_site_id
_symmetry_equiv_pos_as_xyz
1 x,y,z
_cell_length_a                   21.6623(19)
_cell_length_b                   21.6623(19)
_cell_length_c                   21.6623(19)
_cell_angle_alpha                90
_cell_angle_beta                 90
_cell_angle_gamma                90
_cell_volume                     10165.1
loop_
_atom_site_label
_atom_site_type_symbol
_atom_site_fract_x
_atom_site_fract_y
_atom_site_fract_z
C95 C 0.0160(2) 0.74340(15) 0.06149(15)
C96 C 0.06149(15) 0.74340(15) 0.0160(2)
H69 H 0.0270 0.7409 0.1029
H72 H 0.1029 0.7409 0.0270
C52 C 0.04525(12) 0.74710(12) 0.9547(2)
C120 C 0.09479(12) 0.75470(12) 0.9052(2)
Ni25 Ni 0.118800(18) 0.768040(14) 0.768040(14)
Ni26 Ni 0.231960(14) 0.768040(14) 0.881200(18)
O60 O 0.07662(9) 0.75888(9) 0.85184(12)
O61 O 0.14816(12) 0.75888(9) 0.92338(9)
C10 C 0.20314(18) 0.20314(13) 0.41426(13)
C11 C 0.41426(13) 0.20314(13) 0.20314(18)
C16 C 0.70314(13) 0.08574(13) 0.29686(18)
C24 C 0.24796(14) 0.17137(13) 0.44634(14)
C25 C 0.17137(13) 0.24796(14) 0.44634(14)
C26 C 0.44634(14) 0.17137(13) 0.24796(14)
C27 C 0.44634(14) 0.24796(14) 0.17137(13)
C36 C 0.74796(14) 0.05366(14) 0.32863(13)
C37 C 0.67137(13) 0.05366(14) 0.25204(14)
H9 H 0.2699 0.1397 0.4274
H10 H 0.1397 0.2699 0.4274
H11 H 0.4274 0.1397 0.2699
H12 H 0.4274 0.2699 0.1397
H21 H 0.7699 0.0726 0.3603
H22 H 0.6397 0.0726 0.2301
C45 C 0.25290(12) 0.04525(12) 0.0453(2)
C47 C 0.0453(2) 0.04525(12) 0.25290(12)
C54 C 0.31312(13) 0.00616(12) 0.24031(15)
C55 C 0.24031(15) 0.00616(12) 0.31312(13)
C58 C 0.25969(15) 0.18688(13) 0.50616(12)
C59 C 0.18688(13) 0.25969(15) 0.50616(12)
C60 C 0.50616(12) 0.18688(13) 0.25969(15)
C61 C 0.50616(12) 0.25969(15) 0.18688(13)
H28 H 0.3361 0.0274 0.2110
H29 H 0.2110 0.0274 0.3361
H32 H 0.2890 0.1639 0.5274
H33 H 0.1639 0.2890 0.5274
H34 H 0.5274 0.1639 0.2890
H35 H 0.5274 0.2890 0.1639
C101 C 0.19189(17) 0.19189(12) 0.34608(12)
C102 C 0.34608(12) 0.19189(12) 0.19189(17)
C107 C 0.69189(12) 0.15392(12) 0.30811(17)
C113 C 0.24530(12) 0.09479(12) 0.0948(2)
C115 C 0.0948(2) 0.09479(12) 0.24530(12)
N2 N 0.26774(10) 0.03583(10) 0.26774(11)
N4 N 0.23226(11) 0.23226(10) 0.53583(10)
N5 N 0.53583(10) 0.23226(10) 0.23226(11)
Ni2 Ni 0.231960(14) 0.118800(18) 0.231960(14)
Ni12 Ni 0.268040(14) 0.268040(14) 0.618800(18)
Ni13 Ni 0.118800(18) 0.231960(14) 0.231960(14)
Ni14 Ni 0.618800(18) 0.268040(14) 0.268040(14)
Ni15 Ni 0.231960(14) 0.231960(14) 0.118800(18)
Ni27 Ni 0.731960(14) 0.268040(14) 0.381200(18)
O9 O 0.22567(10) 0.15252(8) 0.32121(8)
O10 O 0.15252(8) 0.22567(10) 0.32121(8)
O11 O 0.32121(8) 0.15252(8) 0.22567(10)
O12 O 0.32121(8) 0.22567(10) 0.15252(8)
O21 O 0.72567(10) 0.17879(8) 0.34748(8)
O22 O 0.65252(8) 0.17879(8) 0.27433(10)
O37 O 0.17879(8) 0.27433(10) 0.65252(8)
O38 O 0.27433(10) 0.17879(8) 0.65252(8)
O46 O 0.24112(9) 0.07662(9) 0.14816(12)
O47 O 0.24112(9) 0.14816(12) 0.07662(9)
O50 O 0.14816(12) 0.07662(9) 0.24112(9)
O51 O 0.07662(9) 0.14816(12) 0.24112(9)
O71 O 0.35184(12) 0.25888(9) 0.57662(9)
O72 O 0.25888(9) 0.35184(12) 0.57662(9)
O73 O 0.19929(11) 0.19929(11) 0.19929(11)
O78 O 0.30071(11) 0.30071(11) 0.69929(11)
C83 C 0.25660(15) 0.06149(15) 0.9840(2)
C84 C 0.25660(15) 0.0160(2) 0.93851(15)
H57 H 0.2591 0.1029 0.9730
H60 H 0.2591 0.0270 0.8971
C1 C 0.58574(13) 0.79686(13) 0.20314(18)
C2 C 0.55366(14) 0.75204(14) 0.17137(13)
H1 H 0.5726 0.7301 0.1397
C3 C 0.45475(12) 0.5453(2) 0.24710(12)
C4 C 0.49384(12) 0.74031(15) 0.18688(13)
H2 H 0.4726 0.7110 0.1639
C5 C 0.43851(15) 0.4840(2) 0.24340(15)
H3 H 0.3971 0.4730 0.2409
C6 C 0.65392(12) 0.80811(12) 0.19189(17)
C7 C 0.40521(12) 0.5948(2) 0.25470(12)
N1 N 0.46417(10) 0.76774(10) 0.23226(11)
Ni1 Ni 0.381200(18) 0.731960(14) 0.268040(14)
O1 O 0.67879(8) 0.77433(10) 0.15252(8)
O2 O 0.42338(9) 0.64816(12) 0.25888(9)
O3 O 0.30071(11) 0.69929(11) 0.30071(11)
C8 C 0.29686(13) 0.91426(13) 0.29686(18)
C9 C 0.29686(13) 0.70314(18) 0.08574(13)
C15 C 0.79686(13) 0.58574(13) 0.20314(18)
C17 C 0.79686(18) 0.79686(13) 0.41426(13)
C18 C 0.20314(18) 0.79686(13) 0.58574(13)
C19 C 0.55366(14) 0.82863(13) 0.24796(14)
C20 C 0.32863(13) 0.94634(14) 0.25204(14)
C21 C 0.25204(14) 0.94634(14) 0.32863(13)
C22 C 0.32863(13) 0.74796(14) 0.05366(14)
C23 C 0.25204(14) 0.67137(13) 0.05366(14)
C34 C 0.75204(14) 0.55366(14) 0.17137(13)
C35 C 0.82863(13) 0.55366(14) 0.24796(14)
C38 C 0.75204(14) 0.82863(13) 0.44634(14)
C39 C 0.82863(13) 0.75204(14) 0.44634(14)
C40 C 0.17137(13) 0.75204(14) 0.55366(14)
C41 C 0.24796(14) 0.82863(13) 0.55366(14)
H4 H 0.5726 0.8603 0.2699
H5 H 0.3603 0.9274 0.2301
H6 H 0.2301 0.9274 0.3603
H7 H 0.3603 0.7699 0.0726
H8 H 0.2301 0.6397 0.0726
H19 H 0.7301 0.5726 0.1397
H20 H 0.8603 0.5726 0.2699
H23 H 0.7301 0.8603 0.4274
H24 H 0.8603 0.7301 0.4274
H25 H 0.1397 0.7301 0.5726
H26 H 0.2699 0.8603 0.5726
C42 C 0.5453(2) 0.45475(12) 0.24710(12)
C43 C 0.45475(12) 0.75290(12) 0.4547(2)
C44 C 0.5453(2) 0.75290(12) 0.54525(12)
C51 C 0.9547(2) 0.74710(12) 0.04525(12)
C53 C 0.49384(12) 0.81312(13) 0.25969(15)
C66 C 0.75969(15) 0.68688(13) 0.00616(12)
C67 C 0.68688(13) 0.75969(15) 0.00616(12)
C68 C 0.74031(15) 0.49384(12) 0.18688(13)
C69 C 0.81312(13) 0.49384(12) 0.25969(15)
C70 C 0.75969(15) 0.99384(12) 0.31312(13)
C71 C 0.68688(13) 0.99384(12) 0.24031(15)
C72 C 0.74031(15) 0.81312(13) 0.50616(12)
C73 C 0.81312(13) 0.74031(15) 0.50616(12)
C74 C 0.18688(13) 0.74031(15) 0.49384(12)
C75 C 0.25969(15) 0.81312(13) 0.49384(12)
H27 H 0.4726 0.8361 0.2890
H40 H 0.7890 0.6639 0.0274
H41 H 0.6639 0.7890 0.0274
H42 H 0.7110 0.4726 0.1639
H43 H 0.8361 0.4726 0.2890
H44 H 0.7890 0.9726 0.3361
H45 H 0.6639 0.9726 0.2110
H46 H 0.7110 0.8361 0.5274
H47 H 0.8361 0.7110 0.5274
H48 H 0.1639 0.7110 0.4726
H49 H 0.2890 0.8361 0.4726
C76 C 0.4840(2) 0.43851(15) 0.24340(15)
C77 C 0.56149(15) 0.5160(2) 0.24340(15)
C78 C 0.5160(2) 0.56149(15) 0.24340(15)
C79 C 0.43851(15) 0.75660(15) 0.5160(2)
C80 C 0.4840(2) 0.75660(15) 0.56149(15)
C81 C 0.56149(15) 0.75660(15) 0.4840(2)
C82 C 0.5160(2) 0.75660(15) 0.43851(15)
C85 C 0.25660(15) 0.93851(15) 0.0160(2)
C86 C 0.25660(15) 0.9840(2) 0.06149(15)
C89 C 0.0160(2) 0.93851(15) 0.25660(15)
C90 C 0.06149(15) 0.9840(2) 0.25660(15)
H50 H 0.5270 0.6029 0.2409
H51 H 0.6029 0.5270 0.2409
H52 H 0.4730 0.3971 0.2409
H53 H 0.3971 0.7591 0.5270
H54 H 0.5270 0.7591 0.3971
H55 H 0.6029 0.7591 0.4730
H56 H 0.4730 0.7591 0.6029
H58 H 0.2591 0.9730 0.1029
H59 H 0.2591 0.8971 0.0270
H62 H 0.1029 0.9730 0.2591
H63 H 0.0270 0.8971 0.2591
C99 C 0.30811(12) 0.84608(12) 0.30811(17)
C100 C 0.30811(12) 0.69189(17) 0.15392(12)
C106 C 0.80811(12) 0.65392(12) 0.19189(17)
C108 C 0.80811(17) 0.80811(12) 0.34608(12)
C109 C 0.19189(17) 0.80811(12) 0.65392(12)
C110 C 0.5948(2) 0.40521(12) 0.25470(12)
C111 C 0.40521(12) 0.74530(12) 0.4052(2)
C112 C 0.5948(2) 0.74530(12) 0.59479(12)
C119 C 0.9052(2) 0.75470(12) 0.09479(12)
N8 N 0.73226(11) 0.73226(10) 0.03583(10)
N9 N 0.76774(10) 0.46417(10) 0.23226(11)
N10 N 0.73226(10) 0.96417(10) 0.26774(11)
N11 N 0.76774(11) 0.76774(10) 0.53583(10)
N12 N 0.23226(11) 0.76774(10) 0.46417(10)
N13 N 0.23226(10) 0.53583(10) 0.23226(11)
N15 N 0.53583(10) 0.76774(10) 0.76774(11)
Ni4 Ni 0.768040(14) 0.768040(14) 0.118800(18)
Ni5 Ni 0.768040(14) 0.881200(18) 0.231960(14)
Ni6 Ni 0.268040(14) 0.731960(14) 0.381200(18)
Ni7 Ni 0.268040(14) 0.618800(18) 0.268040(14)
Ni8 Ni 0.731960(14) 0.381200(18) 0.268040(14)
Ni10 Ni 0.731960(14) 0.731960(14) 0.618800(18)
Ni11 Ni 0.618800(18) 0.731960(14) 0.731960(14)
Ni24 Ni 0.881200(18) 0.768040(14) 0.231960(14)
Ni29 Ni 0.231960(14) 0.881200(18) 0.768040(14)
O4 O 0.67879(8) 0.84748(8) 0.22567(10)
O5 O 0.34748(8) 0.82121(8) 0.27433(10)
O6 O 0.27433(10) 0.82121(8) 0.34748(8)
O7 O 0.34748(8) 0.72567(10) 0.17879(8)
O8 O 0.27433(10) 0.65252(8) 0.17879(8)
O19 O 0.77433(10) 0.67879(8) 0.15252(8)
O20 O 0.84748(8) 0.67879(8) 0.22567(10)
O23 O 0.77433(10) 0.84748(8) 0.32121(8)
O24 O 0.84748(8) 0.77433(10) 0.32121(8)
O25 O 0.15252(8) 0.77433(10) 0.67879(8)
O26 O 0.22567(10) 0.84748(8) 0.67879(8)
O27 O 0.17879(8) 0.72567(10) 0.34748(8)
O28 O 0.17879(8) 0.65252(8) 0.27433(10)
O29 O 0.82121(8) 0.34748(8) 0.27433(10)
O30 O 0.72567(10) 0.34748(8) 0.17879(8)
O32 O 0.65252(8) 0.27433(10) 0.17879(8)
O33 O 0.82121(8) 0.72567(10) 0.65252(8)
O34 O 0.72567(10) 0.82121(8) 0.65252(8)
O35 O 0.65252(8) 0.72567(10) 0.82121(8)
O36 O 0.65252(8) 0.82121(8) 0.72567(10)
O39 O 0.35184(12) 0.57662(9) 0.25888(9)
O40 O 0.64816(12) 0.42338(9) 0.25888(9)
O41 O 0.57662(9) 0.35184(12) 0.25888(9)
O42 O 0.42338(9) 0.74112(9) 0.35184(12)
O43 O 0.35184(12) 0.74112(9) 0.42338(9)
O44 O 0.64816(12) 0.74112(9) 0.57662(9)
O45 O 0.57662(9) 0.74112(9) 0.64816(12)
O58 O 0.85184(12) 0.75888(9) 0.07662(9)
O59 O 0.92338(9) 0.75888(9) 0.14816(12)
O62 O 0.75888(9) 0.85184(12) 0.07662(9)
O63 O 0.85184(12) 0.92338(9) 0.24112(9)
O64 O 0.75888(9) 0.92338(9) 0.14816(12)
O65 O 0.25888(9) 0.64816(12) 0.42338(9)
O66 O 0.25888(9) 0.57662(9) 0.35184(12)
O67 O 0.74112(9) 0.42338(9) 0.35184(12)
O68 O 0.57662(9) 0.25888(9) 0.35184(12)
O69 O 0.74112(9) 0.64816(12) 0.57662(9)
O70 O 0.57662(9) 0.64816(12) 0.74112(9)
O75 O 0.80071(11) 0.80071(11) 0.19929(11)
O76 O 0.69929(11) 0.30071(11) 0.30071(11)
O77 O 0.69929(11) 0.69929(11) 0.69929(11)
C12 C 0.20314(13) 0.58574(13) 0.79686(18)
C13 C 0.41426(13) 0.79686(13) 0.79686(18)
C14 C 0.70314(18) 0.70314(13) 0.91426(13)
C28 C 0.24796(14) 0.55366(14) 0.82863(13)
C29 C 0.17137(13) 0.55366(14) 0.75204(14)
C30 C 0.44634(14) 0.75204(14) 0.82863(13)
C31 C 0.44634(14) 0.82863(13) 0.75204(14)
C32 C 0.74796(14) 0.67137(13) 0.94634(14)
C33 C 0.67137(13) 0.74796(14) 0.94634(14)
H13 H 0.2699 0.5726 0.8603
H14 H 0.1397 0.5726 0.7301
H15 H 0.4274 0.7301 0.8603
H16 H 0.4274 0.8603 0.7301
H17 H 0.7699 0.6397 0.9274
H18 H 0.6397 0.7699 0.9274
C46 C 0.25290(12) 0.9547(2) 0.95475(12)
C56 C 0.31312(13) 0.75969(15) 0.99384(12)
C57 C 0.24031(15) 0.68688(13) 0.99384(12)
C62 C 0.25969(15) 0.49384(12) 0.81312(13)
C63 C 0.18688(13) 0.49384(12) 0.74031(15)
C64 C 0.50616(12) 0.74031(15) 0.81312(13)
C65 C 0.50616(12) 0.81312(13) 0.74031(15)
H30 H 0.3361 0.7890 0.9726
H31 H 0.2110 0.6639 0.9726
H36 H 0.2890 0.4726 0.8361
H37 H 0.1639 0.4726 0.7110
H38 H 0.5274 0.7110 0.8361
H39 H 0.5274 0.8361 0.7110
C97 C 0.9840(2) 0.74340(15) 0.93851(15)
C98 C 0.93851(15) 0.74340(15) 0.9840(2)
H70 H 0.8971 0.7409 0.9730
H71 H 0.9730 0.7409 0.8971
C103 C 0.19189(12) 0.65392(12) 0.80811(17)
C104 C 0.34608(12) 0.80811(12) 0.80811(17)
C105 C 0.69189(17) 0.69189(12) 0.84608(12)
C114 C 0.24530(12) 0.9052(2) 0.90521(12)
N3 N 0.26774(10) 0.73226(11) 0.96417(10)
N6 N 0.23226(10) 0.46417(10) 0.76774(11)
Ni19 Ni 0.268040(14) 0.381200(18) 0.731960(14)
Ni23 Ni 0.731960(14) 0.618800(18) 0.731960(14)
O13 O 0.22567(10) 0.67879(8) 0.84748(8)
O14 O 0.15252(8) 0.67879(8) 0.77433(10)
O15 O 0.32121(8) 0.77433(10) 0.84748(8)
O16 O 0.32121(8) 0.84748(8) 0.77433(10)
O17 O 0.72567(10) 0.65252(8) 0.82121(8)
O48 O 0.24112(9) 0.85184(12) 0.92338(9)
O49 O 0.24112(9) 0.92338(9) 0.85184(12)
O74 O 0.19929(11) 0.80071(11) 0.80071(11)
C87 C 0.9840(2) 0.06149(15) 0.25660(15)
C88 C 0.93851(15) 0.0160(2) 0.25660(15)
H61 H 0.9730 0.1029 0.2591
H64 H 0.8971 0.0270 0.2591
C48 C 0.95475(12) 0.9547(2) 0.25290(12)
C116 C 0.90521(12) 0.9052(2) 0.24530(12)
O52 O 0.92338(9) 0.85184(12) 0.24112(9)
C87_2 C 0.06149(15) 0.0160(2) 0.74340(15)
C88_2 C 0.0160(2) 0.06149(15) 0.74340(15)
H61_2 H 0.1029 0.0270 0.7409
H64_2 H 0.0270 0.1029 0.7409
C16_2 C 0.08574(13) 0.29686(13) 0.70314(18)
C36_2 C 0.05366(14) 0.25204(14) 0.67137(13)
C37_2 C 0.05366(14) 0.32863(13) 0.74796(14)
H21_2 H 0.0726 0.2301 0.6397
H22_2 H 0.0726 0.3603 0.7699
C47_2 C 0.04525(12) 0.9547(2) 0.74710(12)
C54_2 C 0.00616(12) 0.68688(13) 0.75969(15)
C55_2 C 0.00616(12) 0.75969(15) 0.68688(13)
H28_2 H 0.0274 0.6639 0.7890
H29_2 H 0.0274 0.7890 0.6639
C107_2 C 0.15392(12) 0.30811(12) 0.69189(17)
C115_2 C 0.09479(12) 0.9052(2) 0.75470(12)
N2_2 N 0.03583(10) 0.73226(10) 0.73226(11)
O22_2 O 0.17879(8) 0.34748(8) 0.72567(10)
O50_2 O 0.07662(9) 0.85184(12) 0.75888(9)
O51_2 O 0.14816(12) 0.92338(9) 0.75888(9)
C91 C 0.74340(15) 0.0160(2) 0.06149(15)
C92 C 0.74340(15) 0.06149(15) 0.0160(2)
H65 H 0.7409 0.0270 0.1029
H68 H 0.7409 0.1029 0.0270
C48_2 C 0.9547(2) 0.04525(12) 0.74710(12)
C50 C 0.74710(12) 0.04525(12) 0.9547(2)
C116_2 C 0.9052(2) 0.09479(12) 0.75470(12)
C118 C 0.75470(12) 0.09479(12) 0.9052(2)
Ni17 Ni 0.768040(14) 0.118800(18) 0.768040(14)
Ni18 Ni 0.881200(18) 0.231960(14) 0.768040(14)
Ni22 Ni 0.768040(14) 0.231960(14) 0.881200(18)
O52_2 O 0.85184(12) 0.07662(9) 0.75888(9)
O53 O 0.92338(9) 0.14816(12) 0.75888(9)
O56 O 0.75888(9) 0.07662(9) 0.85184(12)
O57 O 0.75888(9) 0.14816(12) 0.92338(9)
C14_2 C 0.70314(13) 0.29686(18) 0.08574(13)
C32_2 C 0.67137(13) 0.25204(14) 0.05366(14)
C33_2 C 0.74796(14) 0.32863(13) 0.05366(14)
H17_2 H 0.6397 0.2301 0.0726
H18_2 H 0.7699 0.3603 0.0726
C49 C 0.74710(12) 0.9547(2) 0.04525(12)
C105_2 C 0.69189(12) 0.30811(17) 0.15392(12)
C117 C 0.75470(12) 0.9052(2) 0.09479(12)
C1_2 C 0.79686(13) 0.41426(13) 0.79686(18)
C2_2 C 0.75204(14) 0.44634(14) 0.82863(13)
H1_2 H 0.7301 0.4274 0.8603
C3_2 C 0.5453(2) 0.54525(12) 0.75290(12)
C4_2 C 0.74031(15) 0.50616(12) 0.81312(13)
H2_2 H 0.7110 0.5274 0.8361
C5_2 C 0.4840(2) 0.56149(15) 0.75660(15)
H3_2 H 0.4730 0.6029 0.7591
C6_2 C 0.80811(12) 0.34608(12) 0.80811(17)
C7_2 C 0.5948(2) 0.59479(12) 0.74530(12)
N1_2 N 0.76774(10) 0.53583(10) 0.76774(11)
O1_2 O 0.77433(10) 0.32121(8) 0.84748(8)
O2_2 O 0.64816(12) 0.57662(9) 0.74112(9)
C8_2 C 0.91426(13) 0.70314(13) 0.70314(18)
C15_2 C 0.58574(13) 0.20314(13) 0.79686(18)
C17_2 C 0.79686(13) 0.20314(18) 0.58574(13)
C19_2 C 0.82863(13) 0.44634(14) 0.75204(14)
C20_2 C 0.94634(14) 0.67137(13) 0.74796(14)
C21_2 C 0.94634(14) 0.74796(14) 0.67137(13)
C34_2 C 0.55366(14) 0.24796(14) 0.82863(13)
C35_2 C 0.55366(14) 0.17137(13) 0.75204(14)
C38_2 C 0.82863(13) 0.24796(14) 0.55366(14)
C39_2 C 0.75204(14) 0.17137(13) 0.55366(14)
H4_2 H 0.8603 0.4274 0.7301
H5_2 H 0.9274 0.6397 0.7699
H6_2 H 0.9274 0.7699 0.6397
H19_2 H 0.5726 0.2699 0.8603
H20_2 H 0.5726 0.1397 0.7301
H23_2 H 0.8603 0.2699 0.5726
H24_2 H 0.7301 0.1397 0.5726
C42_2 C 0.45475(12) 0.4547(2) 0.75290(12)
C43_2 C 0.75290(12) 0.54525(12) 0.5453(2)
C44_2 C 0.75290(12) 0.4547(2) 0.45475(12)
C53_2 C 0.81312(13) 0.50616(12) 0.74031(15)
C66_2 C 0.68688(13) 0.24031(15) 0.99384(12)
C67_2 C 0.75969(15) 0.31312(13) 0.99384(12)
C68_2 C 0.49384(12) 0.25969(15) 0.81312(13)
C69_2 C 0.49384(12) 0.18688(13) 0.74031(15)
C70_2 C 0.99384(12) 0.24031(15) 0.68688(13)
C71_2 C 0.99384(12) 0.31312(13) 0.75969(15)
C72_2 C 0.81312(13) 0.25969(15) 0.49384(12)
C73_2 C 0.74031(15) 0.18688(13) 0.49384(12)
H27_2 H 0.8361 0.5274 0.7110
H40_2 H 0.6639 0.2110 0.9726
H41_2 H 0.7890 0.3361 0.9726
H42_2 H 0.4726 0.2890 0.8361
H43_2 H 0.4726 0.1639 0.7110
H44_2 H 0.9726 0.2110 0.6639
H45_2 H 0.9726 0.3361 0.7890
H46_2 H 0.8361 0.2890 0.4726
H47_2 H 0.7110 0.1639 0.4726
C76_2 C 0.43851(15) 0.5160(2) 0.75660(15)
C77_2 C 0.5160(2) 0.43851(15) 0.75660(15)
C78_2 C 0.56149(15) 0.4840(2) 0.75660(15)
C79_2 C 0.75660(15) 0.56149(15) 0.4840(2)
C80_2 C 0.75660(15) 0.5160(2) 0.43851(15)
C81_2 C 0.75660(15) 0.43851(15) 0.5160(2)
C82_2 C 0.75660(15) 0.4840(2) 0.56149(15)
C89_2 C 0.93851(15) 0.9840(2) 0.74340(15)
C90_2 C 0.9840(2) 0.93851(15) 0.74340(15)
C93 C 0.74340(15) 0.9840(2) 0.93851(15)
C94 C 0.74340(15) 0.93851(15) 0.9840(2)
H50_2 H 0.6029 0.4730 0.7591
H51_2 H 0.5270 0.3971 0.7591
H52_2 H 0.3971 0.5270 0.7591
H53_2 H 0.7591 0.6029 0.4730
H54_2 H 0.7591 0.4730 0.6029
H55_2 H 0.7591 0.3971 0.5270
H56_2 H 0.7591 0.5270 0.3971
H62_2 H 0.9730 0.8971 0.7409
H63_2 H 0.8971 0.9730 0.7409
H66 H 0.7409 0.8971 0.9730
H67 H 0.7409 0.9730 0.8971
C99_2 C 0.84608(12) 0.69189(12) 0.69189(17)
C106_2 C 0.65392(12) 0.19189(12) 0.80811(17)
C108_2 C 0.80811(12) 0.19189(17) 0.65392(12)
C110_2 C 0.40521(12) 0.4052(2) 0.74530(12)
C111_2 C 0.74530(12) 0.59479(12) 0.5948(2)
C112_2 C 0.74530(12) 0.4052(2) 0.40521(12)
N8_2 N 0.73226(10) 0.26774(11) 0.96417(10)
N9_2 N 0.46417(10) 0.23226(10) 0.76774(11)
N10_2 N 0.96417(10) 0.26774(10) 0.73226(11)
N11_2 N 0.76774(10) 0.23226(11) 0.46417(10)
Ni8_2 Ni 0.381200(18) 0.268040(14) 0.731960(14)
O4_2 O 0.84748(8) 0.32121(8) 0.77433(10)
O5_2 O 0.82121(8) 0.65252(8) 0.72567(10)
O19_2 O 0.67879(8) 0.22567(10) 0.84748(8)
O20_2 O 0.67879(8) 0.15252(8) 0.77433(10)
O23_2 O 0.84748(8) 0.22567(10) 0.67879(8)
O24_2 O 0.77433(10) 0.15252(8) 0.67879(8)
O29_2 O 0.34748(8) 0.17879(8) 0.72567(10)
O30_2 O 0.34748(8) 0.27433(10) 0.82121(8)
O32_2 O 0.27433(10) 0.34748(8) 0.82121(8)
O34_2 O 0.82121(8) 0.27433(10) 0.34748(8)
O40_2 O 0.42338(9) 0.35184(12) 0.74112(9)
O41_2 O 0.35184(12) 0.42338(9) 0.74112(9)
O42_2 O 0.74112(9) 0.57662(9) 0.64816(12)
O44_2 O 0.74112(9) 0.35184(12) 0.42338(9)
O62_2 O 0.85184(12) 0.24112(9) 0.92338(9)
O64_2 O 0.92338(9) 0.24112(9) 0.85184(12)
O67_2 O 0.42338(9) 0.25888(9) 0.64816(12)
O68_2 O 0.25888(9) 0.42338(9) 0.64816(12)
O69_2 O 0.64816(12) 0.25888(9) 0.42338(9)
O75_2 O 0.80071(11) 0.19929(11) 0.80071(11)
C50_2 C 0.04525(12) 0.25290(12) 0.0453(2)
C118_2 C 0.09479(12) 0.24530(12) 0.0948(2)
O56_2 O 0.07662(9) 0.24112(9) 0.14816(12)
O57_2 O 0.14816(12) 0.24112(9) 0.07662(9)
C91_2 C 0.0160(2) 0.25660(15) 0.93851(15)
C92_2 C 0.06149(15) 0.25660(15) 0.9840(2)
H65_2 H 0.0270 0.2591 0.8971
H68_2 H 0.1029 0.2591 0.9730
C15_3 C 0.20314(13) 0.41426(13) 0.20314(18)
C34_3 C 0.24796(14) 0.44634(14) 0.17137(13)
C35_3 C 0.17137(13) 0.44634(14) 0.24796(14)
H19_3 H 0.2699 0.4274 0.1397
H20_3 H 0.1397 0.4274 0.2699
C43_3 C 0.54525(12) 0.24710(12) 0.4547(2)
C44_3 C 0.4547(2) 0.24710(12) 0.54525(12)
C66_3 C 0.24031(15) 0.31312(13) 0.00616(12)
C67_3 C 0.31312(13) 0.24031(15) 0.00616(12)
C68_3 C 0.25969(15) 0.50616(12) 0.18688(13)
C69_3 C 0.18688(13) 0.50616(12) 0.25969(15)
H40_3 H 0.2110 0.3361 0.0274
H41_3 H 0.3361 0.2110 0.0274
H42_3 H 0.2890 0.5274 0.1639
H43_3 H 0.1639 0.5274 0.2890
C79_3 C 0.56149(15) 0.24340(15) 0.5160(2)
C80_3 C 0.5160(2) 0.24340(15) 0.56149(15)
C81_3 C 0.43851(15) 0.24340(15) 0.4840(2)
C82_3 C 0.4840(2) 0.24340(15) 0.43851(15)
C93_2 C 0.9840(2) 0.25660(15) 0.06149(15)
C94_2 C 0.93851(15) 0.25660(15) 0.0160(2)
H53_3 H 0.6029 0.2409 0.5270
H54_3 H 0.4730 0.2409 0.3971
H55_3 H 0.3971 0.2409 0.4730
H56_3 H 0.5270 0.2409 0.6029
H66_2 H 0.8971 0.2591 0.0270
H67_2 H 0.9730 0.2591 0.1029
C106_3 C 0.19189(12) 0.34608(12) 0.19189(17)
C111_3 C 0.59479(12) 0.25470(12) 0.4052(2)
C112_3 C 0.4052(2) 0.25470(12) 0.59479(12)
N8_3 N 0.26774(11) 0.26774(10) 0.03583(10)
O19_3 O 0.22567(10) 0.32121(8) 0.15252(8)
O20_3 O 0.15252(8) 0.32121(8) 0.22567(10)
C14_3 C 0.29686(18) 0.29686(13) 0.91426(13)
C32_3 C 0.25204(14) 0.32863(13) 0.94634(14)
C33_3 C 0.32863(13) 0.25204(14) 0.94634(14)
H17_3 H 0.2301 0.3603 0.9274
H18_3 H 0.3603 0.2301 0.9274
C49_2 C 0.9547(2) 0.25290(12) 0.95475(12)
C105_3 C 0.30811(17) 0.30811(12) 0.84608(12)
C117_2 C 0.9052(2) 0.24530(12) 0.90521(12)
C43_4 C 0.24710(12) 0.45475(12) 0.5453(2)
C44_4 C 0.24710(12) 0.5453(2) 0.45475(12)
C79_4 C 0.24340(15) 0.43851(15) 0.4840(2)
C80_4 C 0.24340(15) 0.4840(2) 0.43851(15)
C81_4 C 0.24340(15) 0.56149(15) 0.5160(2)
C82_4 C 0.24340(15) 0.5160(2) 0.56149(15)
H53_4 H 0.2409 0.3971 0.4730
H54_4 H 0.2409 0.5270 0.6029
H55_4 H 0.2409 0.6029 0.5270
H56_4 H 0.2409 0.4730 0.3971
C111_4 C 0.25470(12) 0.40521(12) 0.5948(2)
C112_4 C 0.25470(12) 0.5948(2) 0.40521(12)
C8_3 C 0.29686(13) 0.08574(13) 0.70314(18)
C20_3 C 0.32863(13) 0.05366(14) 0.74796(14)
C21_3 C 0.25204(14) 0.05366(14) 0.67137(13)
H5_3 H 0.3603 0.0726 0.7699
H6_3 H 0.2301 0.0726 0.6397
C70_3 C 0.75969(15) 0.00616(12) 0.68688(13)
C71_3 C 0.68688(13) 0.00616(12) 0.75969(15)
H44_3 H 0.7890 0.0274 0.6639
H45_3 H 0.6639 0.0274 0.7890
C99_3 C 0.30811(12) 0.15392(12) 0.69189(17)
N10_3 N 0.73226(10) 0.03583(10) 0.73226(11)
C16_3 C 0.70314(13) 0.91426(13) 0.70314(18)
C36_3 C 0.74796(14) 0.94634(14) 0.67137(13)
C37_3 C 0.67137(13) 0.94634(14) 0.74796(14)
H21_3 H 0.7699 0.9274 0.6397
H22_3 H 0.6397 0.9274 0.7699
C54_3 C 0.31312(13) 0.99384(12) 0.75969(15)
C55_3 C 0.24031(15) 0.99384(12) 0.68688(13)
H28_3 H 0.3361 0.9726 0.7890
H29_3 H 0.2110 0.9726 0.6639
C107_3 C 0.69189(12) 0.84608(12) 0.69189(17)
N2_3 N 0.26774(10) 0.96417(10) 0.73226(11)
C8_4 C 0.08574(13) 0.70314(13) 0.29686(18)
C20_4 C 0.05366(14) 0.67137(13) 0.25204(14)
C21_4 C 0.05366(14) 0.74796(14) 0.32863(13)
H5_4 H 0.0726 0.6397 0.2301
H6_4 H 0.0726 0.7699 0.3603
C70_4 C 0.00616(12) 0.24031(15) 0.31312(13)
C71_4 C 0.00616(12) 0.31312(13) 0.24031(15)
H44_4 H 0.0274 0.2110 0.3361
H45_4 H 0.0274 0.3361 0.2110
C99_4 C 0.15392(12) 0.69189(12) 0.30811(17)
N10_4 N 0.03583(10) 0.26774(10) 0.26774(11)
C16_4 C 0.91426(13) 0.29686(13) 0.29686(18)
C36_4 C 0.94634(14) 0.25204(14) 0.32863(13)
C37_4 C 0.94634(14) 0.32863(13) 0.25204(14)
H21_4 H 0.9274 0.2301 0.3603
H22_4 H 0.9274 0.3603 0.2301
C54_4 C 0.99384(12) 0.68688(13) 0.24031(15)
C55_4 C 0.99384(12) 0.75969(15) 0.31312(13)
H28_4 H 0.9726 0.6639 0.2110
H29_4 H 0.9726 0.7890 0.3361
C107_4 C 0.84608(12) 0.30811(12) 0.30811(17)
N2_4 N 0.96417(10) 0.73226(10) 0.26774(11)
loop_
_geom_bond_atom_site_label_1
_geom_bond_atom_site_label_2
_geom_bond_site_symmetry_1
_geom_bond_site_symmetry_2
C95 C96 1_555 1_555
C96 H72 1_555 1_555
H69 C95 1_555 1_555
C120 C52 1_555 1_555
Ni25 O60 1_555 1_555
Ni26 O61 1_555 1_555
O60 C120 1_555 1_555
O61 C120 1_555 1_555
C10 C24 1_555 1_555
C11 C26 1_555 1_555
C16 C36 1_555 1_555
C24 H9 1_555 1_555
C25 C10 1_555 1_555
C26 H11 1_555 1_555
C27 C11 1_555 1_555
C36 H21 1_555 1_555
C37 C16 1_555 1_555
H10 C25 1_555 1_555
H12 C27 1_555 1_555
H22 C37 1_555 1_555
C58 C24 1_555 1_555
C59 C25 1_555 1_555
C60 C26 1_555 1_555
C61 C27 1_555 1_555
H28 C54 1_555 1_555
H29 C55 1_555 1_555
H32 C58 1_555 1_555
H33 C59 1_555 1_555
H34 C60 1_555 1_555
H35 C61 1_555 1_555
C101 C10 1_555 1_555
C102 C11 1_555 1_555
C107 C16 1_555 1_555
C113 C45 1_555 1_555
C115 C47 1_555 1_555
N2 C54 1_555 1_555
N4 C58 1_555 1_555
N5 C60 1_555 1_555
Ni2 N2 1_555 1_555
Ni12 N4 1_555 1_555
Ni13 O10 1_555 1_555
Ni14 N5 1_555 1_555
Ni15 O12 1_555 1_555
Ni27 O21 1_555 1_555
O9 C101 1_555 1_555
O10 C101 1_555 1_555
O11 C102 1_555 1_555
O12 C102 1_555 1_555
O21 C107 1_555 1_555
O22 C107 1_555 1_555
O37 Ni12 1_555 1_555
O38 Ni12 1_555 1_555
O46 C113 1_555 1_555
O47 C113 1_555 1_555
O50 C115 1_555 1_555
O51 C115 1_555 1_555
O71 Ni12 1_555 1_555
O72 Ni12 1_555 1_555
O73 Ni2 1_555 1_555
O78 Ni12 1_555 1_555
C55 N2 1_555 1_555
C59 N4 1_555 1_555
C61 N5 1_555 1_555
Ni2 O9 1_555 1_555
Ni2 O11 1_555 1_555
Ni2 O46 1_555 1_555
Ni2 O50 1_555 1_555
Ni13 O51 1_555 1_555
Ni13 O73 1_555 1_555
Ni14 O22 1_555 1_555
Ni15 O47 1_555 1_555
Ni15 O73 1_555 1_555
C83 C84 1_555 1_555
C84 H60 1_555 1_555
H57 C83 1_555 1_555
C1 C2 1_555 1_555
C2 H1 1_555 1_555
C3 C5 1_555 1_555
C4 C2 1_555 1_555
H2 C4 1_555 1_555
C5 H3 1_555 1_555
C6 C1 1_555 1_555
C7 C3 1_555 1_555
N1 C4 1_555 1_555
Ni1 N1 1_555 1_555
O1 C6 1_555 1_555
O2 C7 1_555 1_555
O3 Ni1 1_555 1_555
C8 C20 1_555 1_555
C9 C22 1_555 1_555
C15 C34 1_555 1_555
C17 C38 1_555 1_555
C18 C40 1_555 1_555
C19 C1 1_555 1_555
C20 H5 1_555 1_555
C21 C8 1_555 1_555
C22 H7 1_555 1_555
C23 C9 1_555 1_555
C34 H19 1_555 1_555
C35 C15 1_555 1_555
C38 H23 1_555 1_555
C39 C17 1_555 1_555
C40 H25 1_555 1_555
C41 C18 1_555 1_555
H4 C19 1_555 1_555
H6 C21 1_555 1_555
H8 C23 1_555 1_555
H20 C35 1_555 1_555
H24 C39 1_555 1_555
H26 C41 1_555 1_555
C42 C76 1_555 1_555
C43 C79 1_555 1_555
C44 C80 1_555 1_555
C53 N1 1_555 1_555
C68 C34 1_555 1_555
C69 C35 1_555 1_555
C72 C38 1_555 1_555
C73 C39 1_555 1_555
C74 C40 1_555 1_555
C75 C41 1_555 1_555
H27 C53 1_555 1_555
H40 C66 1_555 1_555
H41 C67 1_555 1_555
H42 C68 1_555 1_555
H43 C69 1_555 1_555
H44 C70 1_555 1_555
H45 C71 1_555 1_555
H46 C72 1_555 1_555
H47 C73 1_555 1_555
H48 C74 1_555 1_555
H49 C75 1_555 1_555
C76 C5 1_555 1_555
C77 C42 1_555 1_555
C78 C3 1_555 1_555
C79 C80 1_555 1_555
C80 H56 1_555 1_555
C81 C44 1_555 1_555
C82 C43 1_555 1_555
H50 C78 1_555 1_555
H51 C77 1_555 1_555
H52 C76 1_555 1_555
H53 C79 1_555 1_555
H54 C82 1_555 1_555
H55 C81 1_555 1_555
H58 C86 1_555 1_555
H59 C85 1_555 1_555
H62 C90 1_555 1_555
H63 C89 1_555 1_555
C99 C8 1_555 1_555
C100 C9 1_555 1_555
C106 C15 1_555 1_555
C108 C17 1_555 1_555
C109 C18 1_555 1_555
C110 C42 1_555 1_555
C111 C43 1_555 1_555
C112 C44 1_555 1_555
C119 C51 1_555 1_555
N8 C66 1_555 1_555
N9 C68 1_555 1_555
N10 C70 1_555 1_555
N11 C72 1_555 1_555
N12 C74 1_555 1_555
N13 Ni7 1_555 1_555
N15 Ni11 1_555 1_555
Ni4 O1 1_555 1_555
Ni5 N10 1_555 1_555
Ni6 O3 1_555 1_555
Ni7 O3 1_555 1_555
Ni8 N9 1_555 1_555
Ni10 N11 1_555 1_555
Ni11 O35 1_555 1_555
Ni24 O20 1_555 1_555
Ni25 O25 1_555 1_555
Ni29 O26 1_555 1_555
O4 C6 1_555 1_555
O5 Ni1 1_555 1_555
O6 C99 1_555 1_555
O7 Ni1 1_555 1_555
O8 C100 1_555 1_555
O19 C106 1_555 1_555
O20 C106 1_555 1_555
O23 C108 1_555 1_555
O24 C108 1_555 1_555
O25 C109 1_555 1_555
O26 C109 1_555 1_555
O27 Ni6 1_555 1_555
O28 Ni7 1_555 1_555
O29 Ni8 1_555 1_555
O30 Ni8 1_555 1_555
O32 Ni14 1_555 1_555
O33 Ni10 1_555 1_555
O34 Ni10 1_555 1_555
O36 Ni11 1_555 1_555
O39 C7 1_555 1_555
O40 C110 1_555 1_555
O41 C110 1_555 1_555
O42 Ni1 1_555 1_555
O43 C111 1_555 1_555
O44 C112 1_555 1_555
O45 C112 1_555 1_555
O58 C119 1_555 1_555
O59 C119 1_555 1_555
O62 Ni4 1_555 1_555
O63 Ni5 1_555 1_555
O64 Ni5 1_555 1_555
O65 Ni6 1_555 1_555
O66 Ni7 1_555 1_555
O67 Ni8 1_555 1_555
O68 Ni14 1_555 1_555
O69 Ni10 1_555 1_555
O70 Ni11 1_555 1_555
O75 Ni4 1_555 1_555
O76 Ni8 1_555 1_555
O77 Ni10 1_555 1_555
Ni1 O2 1_555 1_555
C19 C53 1_555 1_555
C67 N8 1_555 1_555
C69 N9 1_555 1_555
C71 N10 1_555 1_555
C73 N11 1_555 1_555
C75 N12 1_555 1_555
C77 C78 1_555 1_555
C81 C82 1_555 1_555
C85 C86 1_555 1_555
C89 C90 1_555 1_555
C99 O5 1_555 1_555
C100 O7 1_555 1_555
C111 O42 1_555 1_555
N8 Ni4 1_555 1_555
N12 Ni6 1_555 1_555
Ni4 O19 1_555 1_555
Ni4 O58 1_555 1_555
Ni5 O4 1_555 1_555
Ni5 O23 1_555 1_555
Ni5 O75 1_555 1_555
Ni6 O6 1_555 1_555
Ni6 O43 1_555 1_555
Ni7 O8 1_555 1_555
Ni7 O39 1_555 1_555
Ni8 O40 1_555 1_555
Ni14 O41 1_555 1_555
Ni14 O76 1_555 1_555
Ni10 O44 1_555 1_555
Ni11 O45 1_555 1_555
Ni11 O77 1_555 1_555
Ni24 O24 1_555 1_555
Ni24 O59 1_555 1_555
Ni24 O75 1_555 1_555
C12 C28 1_555 1_555
C13 C30 1_555 1_555
C14 C32 1_555 1_555
C28 H13 1_555 1_555
C29 C12 1_555 1_555
C30 H15 1_555 1_555
C31 C13 1_555 1_555
C32 H17 1_555 1_555
C33 C14 1_555 1_555
H14 C29 1_555 1_555
H16 C31 1_555 1_555
H18 C33 1_555 1_555
C62 C28 1_555 1_555
C63 C29 1_555 1_555
C64 C30 1_555 1_555
C65 C31 1_555 1_555
H30 C56 1_555 1_555
H31 C57 1_555 1_555
H36 C62 1_555 1_555
H37 C63 1_555 1_555
H38 C64 1_555 1_555
H39 C65 1_555 1_555
H70 C98 1_555 1_555
H71 C97 1_555 1_555
C103 C12 1_555 1_555
C104 C13 1_555 1_555
C105 C14 1_555 1_555
C114 C46 1_555 1_555
N3 C56 1_555 1_555
N6 C62 1_555 1_555
N15 C64 1_555 1_555
Ni26 N3 1_555 1_555
Ni29 O16 1_555 1_555
Ni19 N6 1_555 1_555
Ni25 O14 1_555 1_555
Ni23 O17 1_555 1_555
O13 C103 1_555 1_555
O14 C103 1_555 1_555
O15 C104 1_555 1_555
O16 C104 1_555 1_555
O17 C105 1_555 1_555
O35 C105 1_555 1_555
O48 C114 1_555 1_555
O49 C114 1_555 1_555
O74 Ni26 1_555 1_555
C57 N3 1_555 1_555
C63 N6 1_555 1_555
C65 N15 1_555 1_555
C97 C98 1_555 1_555
Ni26 O13 1_555 1_555
Ni26 O15 1_555 1_555
Ni26 O48 1_555 1_555
Ni29 O49 1_555 1_555
Ni29 O74 1_555 1_555
Ni25 O74 1_555 1_555
C87 C88 1_555 1_555
C88 H64 1_555 1_555
H61 C87 1_555 1_555
C116 C48 1_555 1_555
Ni24 O52 1_555 1_555
O52 C116 1_555 1_555
O63 C116 1_555 1_555
C87_2 C88_2 1_555 1_555
C88_2 H64_2 1_555 1_555
H61_2 C87_2 1_555 1_555
C16_2 C36_2 1_555 1_555
C36_2 H21_2 1_555 1_555
C37_2 C16_2 1_555 1_555
H22_2 C37_2 1_555 1_555
H28_2 C54_2 1_555 1_555
H29_2 C55_2 1_555 1_555
C107_2 C16_2 1_555 1_555
C115_2 C47_2 1_555 1_555
N2_2 C54_2 1_555 1_555
Ni25 N2_2 1_555 1_555
O37 C107_2 1_555 1_555
O22_2 C107_2 1_555 1_555
O50_2 C115_2 1_555 1_555
O51_2 C115_2 1_555 1_555
C55_2 N2_2 1_555 1_555
Ni25 O50_2 1_555 1_555
Ni29 O51_2 1_555 1_555
Ni19 O22_2 1_555 1_555
C91 C92 1_555 1_555
C92 H68 1_555 1_555
H65 C91 1_555 1_555
C116_2 C48_2 1_555 1_555
C118 C50 1_555 1_555
Ni17 O52_2 1_555 1_555
Ni18 O53 1_555 1_555
Ni22 O57 1_555 1_555
O52_2 C116_2 1_555 1_555
O53 C116_2 1_555 1_555
O56 C118 1_555 1_555
O57 C118 1_555 1_555
Ni17 O56 1_555 1_555
C14_2 C32_2 1_555 1_555
C32_2 H17_2 1_555 1_555
C33_2 C14_2 1_555 1_555
H18_2 C33_2 1_555 1_555
C105_2 C14_2 1_555 1_555
C117 C49 1_555 1_555
O32 C105_2 1_555 1_555
O30 C105_2 1_555 1_555
O62 C117 1_555 1_555
O64 C117 1_555 1_555
C1_2 C2_2 1_555 1_555
C2_2 H1_2 1_555 1_555
C3_2 C5_2 1_555 1_555
C4_2 C2_2 1_555 1_555
H2_2 C4_2 1_555 1_555
C5_2 H3_2 1_555 1_555
C6_2 C1_2 1_555 1_555
C7_2 C3_2 1_555 1_555
N1_2 C4_2 1_555 1_555
Ni23 N1_2 1_555 1_555
O1_2 C6_2 1_555 1_555
O2_2 C7_2 1_555 1_555
O77 Ni23 1_555 1_555
C8_2 C20_2 1_555 1_555
C15_2 C34_2 1_555 1_555
C17_2 C38_2 1_555 1_555
C19_2 C1_2 1_555 1_555
C20_2 H5_2 1_555 1_555
C21_2 C8_2 1_555 1_555
C34_2 H19_2 1_555 1_555
C35_2 C15_2 1_555 1_555
C38_2 H23_2 1_555 1_555
C39_2 C17_2 1_555 1_555
H4_2 C19_2 1_555 1_555
H6_2 C21_2 1_555 1_555
H20_2 C35_2 1_555 1_555
H24_2 C39_2 1_555 1_555
C42_2 C76_2 1_555 1_555
C43_2 C79_2 1_555 1_555
C44_2 C80_2 1_555 1_555
C53_2 N1_2 1_555 1_555
C68_2 C34_2 1_555 1_555
C69_2 C35_2 1_555 1_555
C72_2 C38_2 1_555 1_555
C73_2 C39_2 1_555 1_555
H27_2 C53_2 1_555 1_555
H40_2 C66_2 1_555 1_555
H41_2 C67_2 1_555 1_555
H42_2 C68_2 1_555 1_555
H43_2 C69_2 1_555 1_555
H44_2 C70_2 1_555 1_555
H45_2 C71_2 1_555 1_555
H46_2 C72_2 1_555 1_555
H47_2 C73_2 1_555 1_555
C76_2 C5_2 1_555 1_555
C77_2 C42_2 1_555 1_555
C78_2 C3_2 1_555 1_555
C79_2 C80_2 1_555 1_555
C80_2 H56_2 1_555 1_555
C81_2 C44_2 1_555 1_555
C82_2 C43_2 1_555 1_555
H50_2 C78_2 1_555 1_555
H51_2 C77_2 1_555 1_555
H52_2 C76_2 1_555 1_555
H53_2 C79_2 1_555 1_555
H54_2 C82_2 1_555 1_555
H55_2 C81_2 1_555 1_555
H62_2 C90_2 1_555 1_555
H63_2 C89_2 1_555 1_555
H66 C94 1_555 1_555
H67 C93 1_555 1_555
C99_2 C8_2 1_555 1_555
C106_2 C15_2 1_555 1_555
C108_2 C17_2 1_555 1_555
C110_2 C42_2 1_555 1_555
C111_2 C43_2 1_555 1_555
C112_2 C44_2 1_555 1_555
N8_2 C66_2 1_555 1_555
N9_2 C68_2 1_555 1_555
N10_2 C70_2 1_555 1_555
N11_2 C72_2 1_555 1_555
Ni22 O1_2 1_555 1_555
Ni18 N10_2 1_555 1_555
Ni8_2 N9_2 1_555 1_555
Ni27 N11_2 1_555 1_555
Ni17 O20_2 1_555 1_555
O4_2 C6_2 1_555 1_555
O5_2 Ni23 1_555 1_555
O33 C99_2 1_555 1_555
O19_2 C106_2 1_555 1_555
O20_2 C106_2 1_555 1_555
O23_2 C108_2 1_555 1_555
O24_2 C108_2 1_555 1_555
O29_2 Ni8_2 1_555 1_555
O30_2 Ni8_2 1_555 1_555
O32_2 Ni19 1_555 1_555
O34_2 Ni27 1_555 1_555
O70 C7_2 1_555 1_555
O40_2 C110_2 1_555 1_555
O41_2 C110_2 1_555 1_555
O42_2 Ni23 1_555 1_555
O69 C111_2 1_555 1_555
O44_2 C112_2 1_555 1_555
O67 C112_2 1_555 1_555
O62_2 Ni22 1_555 1_555
O64_2 Ni18 1_555 1_555
O67_2 Ni8_2 1_555 1_555
O68_2 Ni19 1_555 1_555
O69_2 Ni27 1_555 1_555
O75_2 Ni22 1_555 1_555
O78 Ni8_2 1_555 1_555
O76 Ni27 1_555 1_555
Ni23 O2_2 1_555 1_555
C19_2 C53_2 1_555 1_555
C67_2 N8_2 1_555 1_555
C69_2 N9_2 1_555 1_555
C71_2 N10_2 1_555 1_555
C73_2 N11_2 1_555 1_555
C77_2 C78_2 1_555 1_555
C81_2 C82_2 1_555 1_555
C89_2 C90_2 1_555 1_555
C93 C94 1_555 1_555
C99_2 O5_2 1_555 1_555
C111_2 O42_2 1_555 1_555
N8_2 Ni22 1_555 1_555
Ni22 O19_2 1_555 1_555
Ni18 O4_2 1_555 1_555
Ni18 O23_2 1_555 1_555
Ni18 O75_2 1_555 1_555
Ni8_2 O40_2 1_555 1_555
Ni19 O41_2 1_555 1_555
Ni19 O78 1_555 1_555
Ni27 O44_2 1_555 1_555
Ni17 O24_2 1_555 1_555
Ni17 O75_2 1_555 1_555
C118_2 C50_2 1_555 1_555
Ni15 O57_2 1_555 1_555
O56_2 C118_2 1_555 1_555
O57_2 C118_2 1_555 1_555
Ni13 O56_2 1_555 1_555
C91_2 C92_2 1_555 1_555
C92_2 H68_2 1_555 1_555
H65_2 C91_2 1_555 1_555
C15_3 C34_3 1_555 1_555
C34_3 H19_3 1_555 1_555
C35_3 C15_3 1_555 1_555
H20_3 C35_3 1_555 1_555
C43_3 C79_3 1_555 1_555
C44_3 C80_3 1_555 1_555
C68_3 C34_3 1_555 1_555
C69_3 C35_3 1_555 1_555
H40_3 C66_3 1_555 1_555
H41_3 C67_3 1_555 1_555
H42_3 C68_3 1_555 1_555
H43_3 C69_3 1_555 1_555
C79_3 C80_3 1_555 1_555
C80_3 H56_3 1_555 1_555
C81_3 C44_3 1_555 1_555
C82_3 C43_3 1_555 1_555
H53_3 C79_3 1_555 1_555
H54_3 C82_3 1_555 1_555
H55_3 C81_3 1_555 1_555
H66_2 C94_2 1_555 1_555
H67_2 C93_2 1_555 1_555
C106_3 C15_3 1_555 1_555
C111_3 C43_3 1_555 1_555
C112_3 C44_3 1_555 1_555
N8_3 C66_3 1_555 1_555
N13 C68_3 1_555 1_555
Ni13 O20_3 1_555 1_555
O19_3 C106_3 1_555 1_555
O20_3 C106_3 1_555 1_555
O69_2 C111_3 1_555 1_555
O71 C112_3 1_555 1_555
O67_2 C112_3 1_555 1_555
C67_3 N8_3 1_555 1_555
C69_3 N13 1_555 1_555
C81_3 C82_3 1_555 1_555
C93_2 C94_2 1_555 1_555
C111_3 O68 1_555 1_555
N8_3 Ni15 1_555 1_555
Ni15 O19_3 1_555 1_555
C14_3 C32_3 1_555 1_555
C32_3 H17_3 1_555 1_555
C33_3 C14_3 1_555 1_555
H18_3 C33_3 1_555 1_555
C105_3 C14_3 1_555 1_555
C117_2 C49_2 1_555 1_555
O32_2 C105_3 1_555 1_555
O30_2 C105_3 1_555 1_555
O62_2 C117_2 1_555 1_555
O64_2 C117_2 1_555 1_555
C43_4 C79_4 1_555 1_555
C44_4 C80_4 1_555 1_555
C79_4 C80_4 1_555 1_555
C80_4 H56_4 1_555 1_555
C81_4 C44_4 1_555 1_555
C82_4 C43_4 1_555 1_555
H53_4 C79_4 1_555 1_555
H54_4 C82_4 1_555 1_555
H55_4 C81_4 1_555 1_555
C111_4 C43_4 1_555 1_555
C112_4 C44_4 1_555 1_555
O72 C111_4 1_555 1_555
O65 C112_4 1_555 1_555
O66 C112_4 1_555 1_555
C81_4 C82_4 1_555 1_555
C111_4 O68_2 1_555 1_555
C8_3 C20_3 1_555 1_555
C20_3 H5_3 1_555 1_555
C21_3 C8_3 1_555 1_555
H6_3 C21_3 1_555 1_555
H44_3 C70_3 1_555 1_555
H45_3 C71_3 1_555 1_555
C99_3 C8_3 1_555 1_555
N10_3 C70_3 1_555 1_555
Ni17 N10_3 1_555 1_555
O38 C99_3 1_555 1_555
C71_3 N10_3 1_555 1_555
C99_3 O29_2 1_555 1_555
C16_3 C36_3 1_555 1_555
C36_3 H21_3 1_555 1_555
C37_3 C16_3 1_555 1_555
H22_3 C37_3 1_555 1_555
H28_3 C54_3 1_555 1_555
H29_3 C55_3 1_555 1_555
C107_3 C16_3 1_555 1_555
N2_3 C54_3 1_555 1_555
Ni29 N2_3 1_555 1_555
O34 C107_3 1_555 1_555
O36 C107_3 1_555 1_555
C55_3 N2_3 1_555 1_555
C8_4 C20_4 1_555 1_555
C20_4 H5_4 1_555 1_555
C21_4 C8_4 1_555 1_555
H6_4 C21_4 1_555 1_555
H44_4 C70_4 1_555 1_555
H45_4 C71_4 1_555 1_555
C99_4 C8_4 1_555 1_555
N10_4 C70_4 1_555 1_555
Ni13 N10_4 1_555 1_555
O27 C99_4 1_555 1_555
C71_4 N10_4 1_555 1_555
C99_4 O28 1_555 1_555
C16_4 C36_4 1_555 1_555
C36_4 H21_4 1_555 1_555
C37_4 C16_4 1_555 1_555
H22_4 C37_4 1_555 1_555
H28_4 C54_4 1_555 1_555
H29_4 C55_4 1_555 1_555
C107_4 C16_4 1_555 1_555
N2_4 C54_4 1_555 1_555
Ni24 N2_4 1_555 1_555
O34_2 C107_4 1_555 1_555
O29 C107_4 1_555 1_555
C55_4 N2_4 1_555 1_555

#END
