
###############################################################################
#
# This file contains modified crystal structure data generated from the
# MOF subset of the Cambridge Structural Database (CSD) v543 
# hosted by the Cambridge Crystallographic Data Centre (CCDC).
#
# This work is licensed under the Creative Commons
# Attribution-NonCommercial-ShareAlike 4.0 International License.
# To view a copy of this license, visit
# http://creativecommons.org/licenses/by-nc-sa/4.0/
# or send a letter to
# Creative Commons, PO Box 1866, Mountain View, CA 94042, USA.
#
# CIF created using the CSD Python API on 29 September 2022
# The structure has been converted into the P1 space group
# The structure has a 3D framework
# The original CSD entry OZEMOW is in the rhombohedral crystal system
# The framework has been calculated to contain at least 10.0% void space
# The void calculation uses a probe of radius 1.32A, grid spacing 0.4
# The framework is charged, counterions have been retained in the structure
# H atom positions have been added when not included in the experimental data
# Generated hydrogen atom positions removed from atoms on special positions
#
###############################################################################

data_OZEMOW
_chemical_formula_moiety         '(C180 H432 Cl10 Cu73 Dy18 N66 Na36 O431 24+)n'
_symmetry_cell_setting           triclinic
_symmetry_space_group_name_H-M   'P 1'
_symmetry_Int_Tables_number      1
_space_group_name_Hall           'P 1'
loop_
_symmetry_equiv_pos_site_id
_symmetry_equiv_pos_as_xyz
1 x,y,z
_cell_length_a                   29.4923(4)
_cell_length_b                   29.4923(4)
_cell_length_c                   36.1205(7)
_cell_angle_alpha                90
_cell_angle_beta                 90
_cell_angle_gamma                120
_cell_volume                     27208.3
loop_
_atom_site_label
_atom_site_type_symbol
_atom_site_fract_x
_atom_site_fract_y
_atom_site_fract_z
Cl1 Cl -0.0000 0.0000 0.0000
Cl1_2 Cl 0.0000 0.0000 1.0000
Cl1_3 Cl -0.0000 1.0000 0.0000
Cl1_4 Cl -0.0000 1.0000 1.0000
Cl1_5 Cl 1.0000 0.0000 0.0000
Cl1_6 Cl 1.0000 0.0000 1.0000
Cl1_7 Cl 1.0000 1.0000 0.0000
Cl1_8 Cl 1.0000 1.0000 1.0000
Cl1_9 Cl 0.6667 0.3333 0.3333
Cl1_10 Cl 0.3333 0.6667 0.6667
N1 N 0.7669(3) 0.8866(2) 0.05934(17)
O1 O 0.7539(4) 0.8686(4) 0.02282(17)
O2 O 0.7760(2) 0.8489(2) 0.0746(3)
O3 O 0.7812(3) 0.9318(3) 0.0802(2)
N1_2 N 0.1134(2) 0.8803(4) 0.05934(17)
O1_2 O 0.1314(4) 0.8853(6) 0.02282(17)
O2_2 O 0.1511(2) 0.9271(3) 0.0746(3)
O3_2 O 0.0682(3) 0.8494(4) 0.0802(2)
N1_3 N 0.1197(4) 0.2331(3) 0.05934(17)
O1_3 O 0.1147(6) 0.2461(4) 0.02282(17)
O2_3 O 0.0729(3) 0.2240(2) 0.0746(3)
O3_3 O 0.1506(4) 0.2188(3) 0.0802(2)
N1_4 N 0.4336(3) 0.2199(2) 0.39267(17)
O1_4 O 0.4206(4) 0.2019(4) 0.35615(17)
O2_4 O 0.4427(2) 0.1822(2) 0.4079(3)
O3_4 O 0.4479(3) 0.2651(3) 0.4135(2)
N1_5 N 0.7801(2) 0.2136(4) 0.39267(17)
O1_5 O 0.7981(4) 0.2186(6) 0.35615(17)
O2_5 O 0.8178(2) 0.2604(3) 0.4079(3)
O3_5 O 0.7349(3) 0.1827(4) 0.4135(2)
N1_6 N 0.7864(4) 0.5664(3) 0.39267(17)
O1_6 O 0.7814(6) 0.5794(4) 0.35615(17)
O2_6 O 0.7396(3) 0.5573(2) 0.4079(3)
O3_6 O 0.8173(4) 0.5521(3) 0.4135(2)
N1_7 N 0.1002(3) 0.5533(2) 0.72601(17)
O1_7 O 0.0872(4) 0.5353(4) 0.68949(17)
O2_7 O 0.1093(2) 0.5156(2) 0.7413(3)
O3_7 O 0.1145(3) 0.5985(3) 0.7469(2)
N1_8 N 0.4467(2) 0.5470(4) 0.72601(17)
O1_8 O 0.4647(4) 0.5520(6) 0.68949(17)
O2_8 O 0.4844(2) 0.5938(3) 0.7413(3)
O3_8 O 0.4015(3) 0.5161(4) 0.7469(2)
N1_9 N 0.4530(4) 0.8998(3) 0.72601(17)
O1_9 O 0.4480(6) 0.9128(4) 0.68949(17)
O2_9 O 0.4062(3) 0.8907(2) 0.7413(3)
O3_9 O 0.4839(4) 0.8855(3) 0.7469(2)
N1_10 N 0.2331(3) 0.1134(2) 0.94066(17)
O1_10 O 0.2461(4) 0.1314(4) 0.97718(17)
O2_10 O 0.2240(2) 0.1511(2) 0.9254(3)
O3_10 O 0.2188(3) 0.0682(3) 0.9198(2)
N1_11 N 0.8866(2) 0.1197(4) 0.94066(17)
O1_11 O 0.8686(4) 0.1147(6) 0.97718(17)
O2_11 O 0.8489(2) 0.0729(3) 0.9254(3)
O3_11 O 0.9318(3) 0.1506(4) 0.9198(2)
N1_12 N 0.8803(4) 0.7669(3) 0.94066(17)
O1_12 O 0.8853(6) 0.7539(4) 0.97718(17)
O2_12 O 0.9271(3) 0.7760(2) 0.9254(3)
O3_12 O 0.8494(4) 0.7812(3) 0.9198(2)
N1_13 N 0.5664(3) 0.7801(2) 0.60733(17)
O1_13 O 0.5794(4) 0.7981(4) 0.64385(17)
O2_13 O 0.5573(2) 0.8178(2) 0.5921(3)
O3_13 O 0.5521(3) 0.7349(3) 0.5865(2)
N1_14 N 0.2199(2) 0.7864(4) 0.60733(17)
O1_14 O 0.2019(4) 0.7814(6) 0.64385(17)
O2_14 O 0.1822(2) 0.7396(3) 0.5921(3)
O3_14 O 0.2651(3) 0.8173(4) 0.5865(2)
N1_15 N 0.2136(4) 0.4336(3) 0.60733(17)
O1_15 O 0.2186(6) 0.4206(4) 0.64385(17)
O2_15 O 0.2604(3) 0.4427(2) 0.5921(3)
O3_15 O 0.1827(4) 0.4479(3) 0.5865(2)
N1_16 N 0.8998(3) 0.4467(2) 0.27399(17)
O1_16 O 0.9128(4) 0.4647(4) 0.31051(17)
O2_16 O 0.8907(2) 0.4844(2) 0.2587(3)
O3_16 O 0.8855(3) 0.4015(3) 0.2531(2)
N1_17 N 0.5533(2) 0.4530(4) 0.27399(17)
O1_17 O 0.5353(4) 0.4480(6) 0.31051(17)
O2_17 O 0.5156(2) 0.4062(3) 0.2587(3)
O3_17 O 0.5985(3) 0.4839(4) 0.2531(2)
N1_18 N 0.5470(4) 0.1002(3) 0.27399(17)
O1_18 O 0.5520(6) 0.0872(4) 0.31051(17)
O2_18 O 0.5938(3) 0.1093(2) 0.2587(3)
O3_18 O 0.5161(4) 0.1145(3) 0.2531(2)
N2 N -0.0000 0.0000 0.1777(8)
O5 O 0.0597(4) 0.0240(6) 0.1743(2)
N2_2 N -0.0000 1.0000 0.1777(8)
N2_3 N 1.0000 0.0000 0.1777(8)
O6 O 0.9760(6) 0.0357(4) 0.1743(2)
N2_4 N 1.0000 1.0000 0.1777(8)
O4 O 0.9643(4) 0.9403(4) 0.1743(2)
N2_5 N 0.6667 0.3333 0.5110(8)
O4_2 O 0.6310(4) 0.2736(4) 0.5076(2)
O5_2 O 0.7264(4) 0.3573(6) 0.5076(2)
O6_2 O 0.6427(6) 0.3690(4) 0.5076(2)
N2_6 N 0.3333 0.6667 0.8444(8)
O4_3 O 0.2976(4) 0.6070(4) 0.8410(2)
O5_3 O 0.3930(4) 0.6907(6) 0.8410(2)
O6_3 O 0.3093(6) 0.7024(4) 0.8410(2)
N2_7 N 0.0000 -0.0000 0.8223(8)
O4_4 O 0.0357(4) 0.0597(4) 0.8257(2)
N2_8 N -0.0000 1.0000 0.8223(8)
O6_4 O 0.0240(6) 0.9643(4) 0.8257(2)
N2_9 N 1.0000 -0.0000 0.8223(8)
N2_10 N 1.0000 1.0000 0.8223(8)
O5_4 O 0.9403(4) 0.9760(6) 0.8257(2)
N2_11 N 0.3333 0.6667 0.4890(8)
O4_5 O 0.3690(4) 0.7264(4) 0.4924(2)
O5_5 O 0.2736(4) 0.6427(6) 0.4924(2)
O6_5 O 0.3573(6) 0.6310(4) 0.4924(2)
N2_12 N 0.6667 0.3333 0.1556(8)
O4_6 O 0.7024(4) 0.3930(4) 0.1590(2)
O5_6 O 0.6070(4) 0.3093(6) 0.1590(2)
O6_6 O 0.6907(6) 0.2976(4) 0.1590(2)
Dy3 Dy 0.157046(8) 0.076635(12) 0.078476(7)
Cu6 Cu 0.20903(3) 0.04892(5) 0.15871(3)
Cu12 Cu 0.28170(4) 0.08608(6) 0.08595(3)
Cu17 Cu 0.03834(3) 0.07600(2) 0.075840(17)
Cu28 Cu 0.11425(2) 0.11426(2) 0.000350(16)
Na4 Na 0.38386(11) 0.13681(15) 0.24695(8)
Na5 Na 0.28281(11) 0.19652(15) 0.08638(8)
Na14 Na 0.45735(10) 0.17425(16) 0.17278(8)
Na17 Na 0.20932(10) 0.15908(16) 0.16055(8)
N9 N 0.0151(5) 0.1906(4) 0.18994(19)
N12 N 0.3122(3) 0.0592(5) 0.0516(2)
C12 C 0.2506(7) 0.0492(10) 0.2245(6)
C17 C 0.1972(8) 0.0060(15) 0.2268(4)
H13 H 0.1751 0.0181 0.2390
H21 H 0.0222 0.2186 0.2422
O28 O 0.2780(6) 0.0597(8) 0.2503(5)
C25 C 0.0959(22) 0.2074(15) 0.1713(13)
H26 H 0.1136 0.2316 0.1918
H31 H 0.0914 0.2264 0.1507
H36 H 0.1169 0.1920 0.1632
C30 C 0.0482(7) 0.1688(5) 0.1828(4)
C35 C 0.0321(5) 0.1439(4) 0.1424(2)
C38 C 0.3857(9) 0.1237(12) 0.0910(7)
C43 C 0.3740(13) 0.0938(18) 0.0511(10)
H39 H 0.3863 0.1190 0.0303
H44 H 0.3906 0.0718 0.0494
O34 O 0.4302(7) 0.1411(10) 0.1002(6)
C48 C 0.2808(5) 0.0334(7) 0.0229(3)
H49 H 0.2967 0.0637 0.0054
H66 H 0.0410 0.2992 0.0058
C58 C 0.2280(3) 0.0294(4) 0.0249(2)
O38 O 0.2653(2) 0.0724(4) 0.19458(17)
O43 O 0.14528(15) 0.01477(21) 0.12858(11)
O51 O 0.06221(21) 0.12800(15) 0.12819(12)
O54 O 0.3496(2) 0.1168(3) 0.11211(18)
O59 O 0.22107(14) 0.05412(21) 0.05390(13)
O64 O 0.19451(16) 0.00352(21) 0.00056(12)
O68 O 0.2378(3) 0.1046(4) 0.1196(2)
O72 O 0.4289(3) 0.2287(4) 0.2137(2)
O79 O 0.15010(12) 0.07520(17) 0.01176(10)
O84 O 0.06477(12) 0.03202(16) 0.09601(9)
O93 O 0.10809(12) 0.11734(17) 0.05418(10)
O102 O 0.00995(17) 0.11703(12) 0.05315(10)
O104 O 0.4210(3) 0.0858(6) 0.2067(3)
O110 O 0.4915(3) 0.2335(4) 0.13642(19)
O114 O 0.3469(3) 0.1605(4) 0.2813(2)
O119 O 0.3710(3) 0.1372(4) 0.1888(3)
O124 O 0.22164(15) 0.16230(23) 0.05842(13)
O128 O 0.44503(15) 0.17103(23) 0.27491(13)
O133 O 0.15030(16) 0.12639(24) 0.12850(12)
O138 O 0.51637(16) 0.20694(24) 0.20483(12)
O142 O 0.2455(3) 0.0088(4) 0.1207(2)
H81 H 0.0363369 0.228725 0.182211
H82 H 0.308271 0.0282414 0.0664819
H85 H 0.0486458 0.143034 0.204214
Cu21 Cu 0.07600(2) 0.03766(2) 0.924160(17)
Cu24 Cu 0.11426(2) 0.00001(3) 0.999650(16)
Cu26 Cu -0.00001(3) 0.11425(2) 0.999650(16)
C55 C 0.0054(9) 0.2875(5) 0.9969(4)
H54 H 0.3177 0.0003 0.9956
H61 H 0.0010 0.2720 0.9722
O82 O 0.07490(12) 0.15010(12) 0.98824(10)
O89 O 0.03275(11) 0.06477(12) 0.90399(9)
O94 O 0.11734(17) 0.00925(12) 0.94582(10)
O18 O 0.00925(12) 0.89191(12) 0.05418(10)
O20 O 0.0018(5) 0.7543(3) 0.1266(3)
Cu15 Cu 0.03766(2) 0.96166(3) 0.075840(17)
Cu22 Cu 0.00001(3) 0.88575(2) 0.000350(16)
N6 N 0.1755(3) 0.9849(5) 0.18994(19)
H18 H 0.1964 0.9778 0.2422
C22 C 0.1115(16) 0.9041(22) 0.1713(13)
H23 H 0.1180 0.8864 0.1918
H28 H 0.1350 0.9086 0.1507
H33 H 0.0751 0.8831 0.1632
C27 C 0.1206(5) 0.9518(7) 0.1828(4)
C32 C 0.1118(3) 0.9679(5) 0.1424(2)
H52 H 0.0003 0.6826 0.0044
H64 H 0.2582 0.9590 0.0058
O48 O 0.06579(14) 0.93779(21) 0.12819(12)
O98 O 0.10708(12) 0.99005(17) 0.05315(10)
H80 H 0.192388 0.963663 0.182211
H87 H 0.0943881 0.951354 0.204214
Dy4 Dy 0.076635(12) 0.919589(9) 0.921524(7)
Cu7 Cu 0.04892(5) 0.83989(4) 0.84129(3)
Cu10 Cu 0.08608(6) 0.80438(4) 0.91405(3)
Cu24_2 Cu 0.11426(2) 1.00001(3) 0.999650(16)
Na6 Na 0.19652(15) 0.91371(10) 0.91362(8)
Na8 Na 0.13681(15) 0.75296(10) 0.75305(8)
Na13 Na 0.17425(16) 0.71690(12) 0.82722(8)
Na18 Na 0.15908(16) 0.94977(12) 0.83945(8)
N10 N 0.0592(5) 0.7470(4) 0.9484(2)
C13 C 0.0492(10) 0.7986(7) 0.7755(6)
C18 C 0.0060(15) 0.8088(13) 0.7732(4)
H14 H 0.0181 0.8430 0.7610
O29 O 0.0597(8) 0.7817(6) 0.7497(5)
C36 C 0.1237(12) 0.7380(8) 0.9090(7)
C41 C 0.0938(18) 0.7198(13) 0.9489(10)
H37 H 0.1190 0.7327 0.9697
H42 H 0.0718 0.6812 0.9506
O32 O 0.1411(10) 0.7109(7) 0.8998(6)
C46 C 0.0334(7) 0.7526(5) 0.9771(3)
H47 H 0.0637 0.7670 0.9946
C53 C 0.2821(7) 0.9946(9) 0.9969(4)
H59 H 0.2710 0.9990 0.9722
C56 C 0.0294(4) 0.8014(3) 0.9751(2)
O39 O 0.0724(4) 0.8071(3) 0.80542(17)
O44 O 0.01477(21) 0.86949(15) 0.87142(11)
O52 O 0.1168(3) 0.7672(2) 0.88789(18)
O57 O 0.05412(21) 0.83305(16) 0.94610(13)
O62 O 0.00352(21) 0.80901(14) 0.99944(12)
O69 O 0.1046(4) 0.8668(3) 0.8804(2)
O73 O 0.2287(4) 0.7999(3) 0.7863(2)
O77 O 0.07520(17) 0.92510(12) 0.98824(10)
O86 O 0.03202(16) 0.96725(11) 0.90399(9)
O105 O 0.0858(6) 0.6649(5) 0.7933(3)
O109 O 0.2335(4) 0.7420(3) 0.86358(19)
O115 O 0.1605(4) 0.8137(3) 0.7187(2)
O120 O 0.1372(4) 0.7663(3) 0.8112(3)
O125 O 0.16230(23) 0.94066(17) 0.94158(13)
O129 O 0.17103(23) 0.72601(17) 0.72509(13)
O134 O 0.12639(24) 0.97609(18) 0.87150(12)
O137 O 0.20694(24) 0.69058(18) 0.79517(12)
O143 O 0.0088(4) 0.7633(2) 0.8793(2)
H76 H 0.0282414 0.71997 0.933518
Dy6 Dy 0.923365(12) 0.080411(9) 0.078476(7)
Cu9 Cu 0.95108(5) 0.16011(4) 0.15871(3)
Cu14 Cu 0.91392(6) 0.19562(4) 0.08595(3)
Cu25 Cu 0.88574(2) -0.00001(3) 0.000350(16)
Na10 Na 0.86319(15) 0.24704(10) 0.24695(8)
Na11 Na 0.80348(15) 0.08629(10) 0.08638(8)
Na16 Na 0.82575(16) 0.28310(12) 0.17278(8)
Na20 Na 0.84092(16) 0.05023(12) 0.16055(8)
N14 N 0.9408(5) 0.2530(4) 0.0516(2)
C15 C 0.9508(10) 0.2014(7) 0.2245(6)
C20 C 0.9940(15) 0.1912(13) 0.2268(4)
H16 H 0.9819 0.1570 0.2390
O31 O 0.9403(8) 0.2183(6) 0.2503(5)
C40 C 0.8763(12) 0.2620(8) 0.0910(7)
C45 C 0.9062(18) 0.2802(13) 0.0511(10)
H41 H 0.8810 0.2673 0.0303
H46 H 0.9282 0.3188 0.0494
O36 O 0.8589(10) 0.2891(7) 0.1002(6)
C50 C 0.9666(7) 0.2474(5) 0.0229(3)
H51 H 0.9363 0.2330 0.0054
C54 C 0.7179(7) 0.0054(9) 0.0031(4)
H60 H 0.7290 0.0010 0.0278
C60 C 0.9706(4) 0.1986(3) 0.0249(2)
O41 O 0.9276(4) 0.1929(3) 0.19458(17)
O46 O 0.98523(21) 0.13051(15) 0.12858(11)
O56 O 0.8832(3) 0.2328(2) 0.11211(18)
O61 O 0.94588(21) 0.16695(16) 0.05390(13)
O66 O 0.99648(21) 0.19099(14) 0.00056(12)
O71 O 0.8954(4) 0.1332(3) 0.1196(2)
O75 O 0.7713(4) 0.2001(3) 0.2137(2)
O80 O 0.92480(17) 0.07490(12) 0.01176(10)
O83 O 0.96798(16) 0.03275(11) 0.09601(9)
O107 O 0.9142(6) 0.3351(5) 0.2067(3)
O112 O 0.7665(4) 0.2580(3) 0.13642(19)
O117 O 0.8395(4) 0.1863(3) 0.2813(2)
O122 O 0.8628(4) 0.2337(3) 0.1888(3)
O127 O 0.83770(23) 0.05934(17) 0.05842(13)
O131 O 0.82897(23) 0.27399(17) 0.27491(13)
O136 O 0.87361(24) 0.02391(18) 0.12850(12)
O140 O 0.79306(24) 0.30942(18) 0.20483(12)
O145 O 0.9912(4) 0.2367(2) 0.1207(2)
H83 H 0.971759 0.28003 0.0664819
Cu19 Cu 0.96234(2) 0.03834(3) 0.924160(17)
Cu26_2 Cu 0.99999(3) 0.11425(2) 0.999650(16)
N8 N 0.8245(3) 0.0151(5) 0.81006(19)
H20 H 0.8036 0.0222 0.7578
C24 C 0.8885(16) 0.0959(22) 0.8287(13)
H25 H 0.8820 0.1136 0.8082
H30 H 0.8650 0.0914 0.8493
H35 H 0.9249 0.1169 0.8368
C29 C 0.8794(5) 0.0482(7) 0.8172(4)
C34 C 0.8882(3) 0.0321(5) 0.8576(2)
H56 H 0.9997 0.3174 0.9956
H65 H 0.7418 0.0410 0.9942
O50 O 0.93421(14) 0.06221(21) 0.87181(12)
O97 O 0.99075(12) 0.10809(12) 0.94582(10)
O101 O 0.89292(12) 0.00995(17) 0.94685(10)
H77 H 0.807612 0.0363369 0.817789
H88 H 0.905612 0.0486458 0.795786
Dy1 Dy 0.919589(9) 0.842954(8) 0.078476(7)
Cu1 Cu 0.83989(4) 0.79097(3) 0.15871(3)
Cu2 Cu 0.80438(4) 0.71830(4) 0.08595(3)
Cu3 Cu 0.92400(2) 0.96234(2) 0.075840(17)
Na1 Na 0.91371(10) 0.71719(11) 0.08638(8)
Na2 Na 0.71690(12) 0.54265(10) 0.17278(8)
N3 N 0.8094(4) 0.8245(3) 0.18994(19)
N4 N 0.7470(4) 0.6878(3) 0.0516(2)
C1 C 0.7986(7) 0.7494(7) 0.2245(6)
C2 C 0.8088(13) 0.8028(8) 0.2268(4)
H1 H 0.8430 0.8249 0.2390
H2 H 0.7814 0.8036 0.2422
O7 O 0.7817(6) 0.7220(6) 0.2503(5)
C3 C 0.7926(15) 0.8885(16) 0.1713(13)
H3 H 0.7684 0.8820 0.1918
H4 H 0.7736 0.8650 0.1507
H5 H 0.8080 0.9249 0.1632
C4 C 0.8312(5) 0.8794(5) 0.1828(4)
C5 C 0.8561(4) 0.8882(3) 0.1424(2)
C6 C 0.7380(8) 0.6143(9) 0.0910(7)
C7 C 0.7198(13) 0.6260(13) 0.0511(10)
H6 H 0.7327 0.6137 0.0303
H7 H 0.6812 0.6094 0.0494
O8 O 0.7109(7) 0.5698(7) 0.1002(6)
C8 C 0.7526(5) 0.7192(5) 0.0229(3)
H8 H 0.7670 0.7033 0.0054
H11 H 0.7008 0.7418 0.0058
C10 C 0.8014(3) 0.7720(3) 0.0249(2)
O9 O 0.8071(3) 0.7347(2) 0.19458(17)
O10 O 0.86949(15) 0.85472(15) 0.12858(11)
O11 O 0.87200(15) 0.93421(14) 0.12819(12)
O12 O 0.7672(2) 0.6504(2) 0.11211(18)
O13 O 0.83305(16) 0.77893(14) 0.05390(13)
O14 O 0.80901(14) 0.80549(16) 0.00056(12)
O15 O 0.8668(3) 0.7622(3) 0.1196(2)
O16 O 0.92510(12) 0.84990(12) 0.01176(10)
O17 O 0.96725(11) 0.93523(12) 0.09601(9)
O19 O 0.88297(12) 0.89292(12) 0.05315(10)
O21 O 0.7420(3) 0.5085(3) 0.13642(19)
O22 O 0.8530(3) 0.6802(3) 0.0520(2)
O23 O 0.9004(3) 0.7043(3) 0.1445(3)
O24 O 0.94066(17) 0.77836(15) 0.05842(13)
O25 O 0.97609(18) 0.84970(16) 0.12850(12)
O26 O 0.7633(2) 0.7545(3) 0.1207(2)
Dy2 Dy 0.747078(9) 0.490379(8) 0.254857(7)
Cu5 Cu 0.82678(4) 0.54236(3) 0.17462(3)
Cu11 Cu 0.86229(4) 0.61503(4) 0.24738(3)
Cu16 Cu 0.74267(2) 0.37099(2) 0.257493(17)
Cu20 Cu 0.62901(2) 0.37167(3) 0.257493(17)
Cu22_2 Cu 1.00001(3) 0.88575(2) 0.000350(16)
Cu23 Cu 0.78092(2) 0.44759(2) 0.333683(16)
Cu25_2 Cu 0.88574(2) 0.99999(3) 0.000350(16)
Cu27 Cu 0.66666(3) 0.44758(2) 0.332983(16)
Na3 Na 0.75296(10) 0.61614(11) 0.24695(8)
Na12 Na 0.94977(12) 0.79068(10) 0.16055(8)
N5 N 0.8573(4) 0.5088(3) 0.14339(19)
N11 N 0.9197(4) 0.6455(3) 0.2817(2)
C11 C 0.8681(7) 0.5839(7) 0.1088(6)
C16 C 0.8579(13) 0.5305(8) 0.1065(4)
H12 H 0.8237 0.5084 0.0943
H17 H 0.8853 0.5297 0.0911
O27 O 0.8850(6) 0.6113(6) 0.0830(5)
C21 C 0.8741(15) 0.4448(16) 0.1620(13)
H22 H 0.8983 0.4513 0.1415
H27 H 0.8931 0.4683 0.1826
H32 H 0.8587 0.4084 0.1701
C26 C 0.8355(5) 0.4539(5) 0.1505(4)
C31 C 0.8106(4) 0.4451(3) 0.1909(2)
C37 C 0.9287(8) 0.7190(9) 0.2423(7)
C42 C 0.9469(13) 0.7073(13) 0.2822(10)
H38 H 0.9340 0.7196 0.3030
H43 H 0.9855 0.7239 0.2839
O33 O 0.9558(7) 0.7635(7) 0.2331(6)
C47 C 0.9141(5) 0.6141(5) 0.3104(3)
H48 H 0.8997 0.6300 0.3279
C51 C 0.9946(9) 0.7125(5) 0.0031(4)
C52 C 0.9542(5) 0.6154(7) 0.3364(4)
H53 H 0.9841 0.6510 0.3377
H55 H 0.6823 0.9997 0.0044
H57 H 0.9990 0.7280 0.0278
H58 H 0.9387 0.6043 0.3611
H63 H 0.9659 0.5915 0.3275
C57 C 0.8653(3) 0.5613(3) 0.3084(2)
O37 O 0.8596(3) 0.5986(2) 0.13875(17)
O42 O 0.79718(15) 0.47861(15) 0.20475(11)
O47 O 0.79467(15) 0.39912(14) 0.20514(12)
O53 O 0.8995(2) 0.6829(2) 0.22122(18)
O58 O 0.83362(16) 0.55440(14) 0.27943(13)
O63 O 0.85766(14) 0.52784(16) 0.33277(12)
O67 O 0.7999(3) 0.5711(3) 0.2137(2)
O78 O 0.74157(12) 0.48343(12) 0.32157(10)
O81 O 0.81677(12) 0.40853(17) 0.34509(10)
O85 O 0.69942(11) 0.39810(12) 0.23732(9)
O88 O 0.69869(16) 0.30058(11) 0.23732(9)
O90 O 0.88266(17) 0.99075(12) 0.05418(10)
O92 O 0.65742(12) 0.44142(12) 0.27915(10)
O95 O 0.78401(17) 0.34258(12) 0.27915(10)
O96 O 0.77476(12) 0.45067(17) 0.38751(10)
O100 O 0.78370(12) 0.44041(12) 0.28018(10)
O103 O 0.6649(5) 0.5790(3) 0.2067(3)
O108 O 0.9247(3) 0.8248(3) 0.19691(19)
O113 O 0.8137(3) 0.6531(3) 0.2813(2)
O118 O 0.7663(3) 0.6290(3) 0.1888(3)
O123 O 0.72601(17) 0.55497(15) 0.27491(13)
O132 O 0.69058(18) 0.48363(16) 0.20483(12)
O141 O 0.9034(2) 0.5788(3) 0.2126(2)
H67 H 0.71997 0.691729 0.0664819
H68 H 0.856966 0.905612 0.204214
H69 H 0.771275 0.807612 0.182211
H74 H 0.895391 0.525721 0.151122
H75 H 0.946696 0.641604 0.266851
H84 H 0.809701 0.427721 0.129119
Cu4 Cu 0.88575(2) 0.88574(2) 0.999650(16)
C9 C 0.7125(5) 0.7179(7) 0.9969(4)
H9 H 0.6826 0.6823 0.9956
H10 H 0.7280 0.7290 0.9722
Dy5 Dy 0.842954(8) 0.923365(12) 0.921524(7)
Cu8 Cu 0.79097(3) 0.95108(5) 0.84129(3)
Cu13 Cu 0.71830(4) 0.91392(6) 0.91405(3)
Cu18 Cu 0.96166(3) 0.92400(2) 0.924160(17)
Na7 Na 0.71719(11) 0.80348(15) 0.91362(8)
Na9 Na 0.61614(11) 0.86319(15) 0.75305(8)
Na15 Na 0.54265(10) 0.82575(16) 0.82722(8)
Na19 Na 0.79068(10) 0.84092(16) 0.83945(8)
N7 N 0.9849(5) 0.8094(4) 0.81006(19)
N13 N 0.6878(3) 0.9408(5) 0.9484(2)
C14 C 0.7494(7) 0.9508(10) 0.7755(6)
C19 C 0.8028(8) 0.9940(15) 0.7732(4)
H15 H 0.8249 0.9819 0.7610
H19 H 0.9778 0.7814 0.7578
O30 O 0.7220(6) 0.9403(8) 0.7497(5)
C23 C 0.9041(22) 0.7926(15) 0.8287(13)
H24 H 0.8864 0.7684 0.8082
H29 H 0.9086 0.7736 0.8493
H34 H 0.8831 0.8080 0.8368
C28 C 0.9518(7) 0.8312(5) 0.8172(4)
C33 C 0.9679(5) 0.8561(4) 0.8576(2)
C39 C 0.6143(9) 0.8763(12) 0.9090(7)
C44 C 0.6260(13) 0.9062(18) 0.9489(10)
H40 H 0.6137 0.8810 0.9697
H45 H 0.6094 0.9282 0.9506
O35 O 0.5698(7) 0.8589(10) 0.8998(6)
C49 C 0.7192(5) 0.9666(7) 0.9771(3)
H50 H 0.7033 0.9363 0.9946
H62 H 0.9590 0.7008 0.9942
C59 C 0.7720(3) 0.9706(4) 0.9751(2)
O40 O 0.7347(2) 0.9276(4) 0.80542(17)
O45 O 0.85472(15) 0.98523(21) 0.87142(11)
O49 O 0.93779(21) 0.87200(15) 0.87181(12)
O55 O 0.6504(2) 0.8832(3) 0.88789(18)
O60 O 0.77893(14) 0.94588(21) 0.94610(13)
O65 O 0.80549(16) 0.99648(21) 0.99944(12)
O70 O 0.7622(3) 0.8954(4) 0.8804(2)
O74 O 0.5711(3) 0.7713(4) 0.7863(2)
O76 O 0.84990(12) 0.92480(17) 0.98824(10)
O87 O 0.93523(12) 0.96798(16) 0.90399(9)
O91 O 0.89191(12) 0.88266(17) 0.94582(10)
O99 O 0.99005(17) 0.88297(12) 0.94685(10)
O106 O 0.5790(3) 0.9142(6) 0.7933(3)
O111 O 0.5085(3) 0.7665(4) 0.86358(19)
O116 O 0.6531(3) 0.8395(4) 0.7187(2)
O121 O 0.6290(3) 0.8628(4) 0.8112(3)
O126 O 0.77836(15) 0.83770(23) 0.94158(13)
O130 O 0.55497(15) 0.82897(23) 0.72509(13)
O135 O 0.84970(16) 0.87361(24) 0.87150(12)
O139 O 0.48363(16) 0.79306(24) 0.79517(12)
O144 O 0.7545(3) 0.9912(4) 0.8793(2)
H78 H 0.691729 0.971759 0.933518
H79 H 0.963663 0.771275 0.817789
H86 H 0.951354 0.856966 0.795786
O20_2 O 0.2457(3) 0.2475(6) 0.1266(3)
O22_2 O 0.3198(3) 0.1728(4) 0.0520(2)
O23_2 O 0.2957(3) 0.1961(4) 0.1445(3)
Dy2_2 Dy 0.509621(8) 0.256698(12) 0.254857(7)
Cu5_2 Cu 0.45764(3) 0.28441(5) 0.17462(3)
Cu11_2 Cu 0.38497(4) 0.24725(6) 0.24738(3)
Cu20_2 Cu 0.62833(3) 0.25733(4) 0.257493(17)
Cu23_2 Cu 0.55241(2) 0.33332(3) 0.333683(16)
Cu27_2 Cu 0.55242(2) 0.21907(4) 0.332983(16)
N5_2 N 0.4912(3) 0.3484(5) 0.14339(19)
N11_2 N 0.3545(3) 0.2741(5) 0.2817(2)
C11_2 C 0.4161(7) 0.2841(10) 0.1088(6)
C16_2 C 0.4695(8) 0.3273(15) 0.1065(4)
H12_2 H 0.4916 0.3152 0.0943
H17_2 H 0.4703 0.3555 0.0911
O27_2 O 0.3887(6) 0.2736(8) 0.0830(5)
C21_2 C 0.5552(16) 0.4292(22) 0.1620(13)
H22_2 H 0.5487 0.4469 0.1415
H27_2 H 0.5317 0.4247 0.1826
H32_2 H 0.5916 0.4502 0.1701
C26_2 C 0.5461(5) 0.3815(7) 0.1505(4)
C31_2 C 0.5549(3) 0.3654(5) 0.1909(2)
C37_2 C 0.2810(9) 0.2096(12) 0.2423(7)
C42_2 C 0.2927(13) 0.2395(18) 0.2822(10)
H38_2 H 0.2804 0.2143 0.3030
H43_2 H 0.2761 0.2615 0.2839
O33_2 O 0.2365(7) 0.1922(10) 0.2331(6)
C47_2 C 0.3859(5) 0.2999(7) 0.3104(3)
H48_2 H 0.3700 0.2696 0.3279
C51_2 C 0.2875(5) 0.2821(10) 0.0031(4)
C52_2 C 0.3846(7) 0.3387(9) 0.3364(4)
H52_2 H 0.3174 0.3177 0.0044
H53_2 H 0.3490 0.3330 0.3377
H57_2 H 0.2720 0.2710 0.0278
H58_2 H 0.3957 0.3343 0.3611
H63_2 H 0.4085 0.3743 0.3275
C57_2 C 0.4387(3) 0.3039(4) 0.3084(2)
O37_2 O 0.4014(2) 0.2609(4) 0.13875(17)
O42_2 O 0.52139(15) 0.31856(21) 0.20475(11)
O47_2 O 0.60088(14) 0.39554(21) 0.20514(12)
O53_2 O 0.3171(2) 0.2165(3) 0.22122(18)
O58_2 O 0.44560(14) 0.27921(21) 0.27943(13)
O63_2 O 0.47216(16) 0.32981(21) 0.33277(12)
O78_2 O 0.51657(12) 0.25813(17) 0.32157(10)
O81_2 O 0.59147(17) 0.40823(21) 0.34509(10)
O85_2 O 0.60190(12) 0.30131(16) 0.23732(9)
O92_2 O 0.55858(12) 0.21599(17) 0.27915(10)
O96_2 O 0.54933(17) 0.32408(21) 0.38751(10)
O100_2 O 0.55959(12) 0.34328(17) 0.28018(10)
O108_2 O 0.1752(3) 0.0998(4) 0.19691(19)
O141_2 O 0.4212(3) 0.3245(4) 0.2126(2)
H74_2 H 0.474279 0.36967 0.151122
H75_2 H 0.358396 0.305092 0.266851
H84_2 H 0.572279 0.381979 0.129119
Dy4_2 Dy 0.080411(9) 0.157046(15) 0.921524(7)
Cu7_2 Cu 0.16011(4) 0.20903(6) 0.84129(3)
Cu10_2 Cu 0.19562(4) 0.28170(7) 0.91405(3)
Na6_2 Na 0.08629(10) 0.28281(18) 0.91362(8)
Na8_2 Na 0.24704(10) 0.38386(18) 0.75305(8)
Na13_2 Na 0.28310(12) 0.45735(20) 0.82722(8)
Na18_2 Na 0.05023(12) 0.20932(20) 0.83945(8)
N7_2 N 0.1906(4) 0.1755(6) 0.81006(19)
N10_2 N 0.2530(4) 0.3122(6) 0.9484(2)
C13_2 C 0.2014(7) 0.2506(12) 0.7755(6)
C18_2 C 0.1912(13) 0.1972(20) 0.7732(4)
H14_2 H 0.1570 0.1751 0.7610
H19_2 H 0.2186 0.1964 0.7578
O29_2 O 0.2183(6) 0.2780(10) 0.7497(5)
C23_2 C 0.2074(15) 0.1115(27) 0.8287(13)
H24_2 H 0.2316 0.1180 0.8082
H29_2 H 0.2264 0.1350 0.8493
H34_2 H 0.1920 0.0751 0.8368
C28_2 C 0.1688(5) 0.1206(9) 0.8172(4)
C33_2 C 0.1439(4) 0.1118(6) 0.8576(2)
C36_2 C 0.2620(8) 0.3857(14) 0.9090(7)
C41_2 C 0.2802(13) 0.3740(22) 0.9489(10)
H37_2 H 0.2673 0.3863 0.9697
H42_2 H 0.3188 0.3906 0.9506
O32_2 O 0.2891(7) 0.4302(12) 0.8998(6)
C46_2 C 0.2474(5) 0.2808(9) 0.9771(3)
H47_2 H 0.2330 0.2967 0.9946
H62_2 H 0.2992 0.2582 0.9942
C56_2 C 0.1986(3) 0.2280(5) 0.9751(2)
O39_2 O 0.1929(3) 0.2653(5) 0.80542(17)
O44_2 O 0.13051(15) 0.14528(26) 0.87142(11)
O49_2 O 0.12800(15) 0.06579(26) 0.87181(12)
O52_2 O 0.2328(2) 0.3496(4) 0.88789(18)
O57_2 O 0.16695(16) 0.22107(26) 0.94610(13)
O62_2 O 0.19099(14) 0.19451(25) 0.99944(12)
O69_2 O 0.1332(3) 0.2378(5) 0.8804(2)
O73_2 O 0.2001(3) 0.4289(5) 0.7863(2)
O99_2 O 0.11703(12) 0.10708(21) 0.94685(10)
O105_2 O 0.3351(5) 0.4210(8) 0.7933(3)
O109_2 O 0.2580(3) 0.4915(5) 0.86358(19)
O115_2 O 0.1863(3) 0.3469(5) 0.7187(2)
O120_2 O 0.2337(3) 0.3710(5) 0.8112(3)
O125_2 O 0.05934(17) 0.22164(29) 0.94158(13)
O129_2 O 0.27399(17) 0.44503(29) 0.72509(13)
O134_2 O 0.02391(18) 0.15030(30) 0.87150(12)
O137_2 O 0.30942(18) 0.51637(30) 0.79517(12)
O143_2 O 0.2367(2) 0.2455(4) 0.8793(2)
H76_2 H 0.28003 0.308271 0.933518
H79_2 H 0.228725 0.192388 0.817789
H86_2 H 0.143034 0.0943881 0.795786
O22_3 O 0.8272(4) 0.1470(3) 0.0520(2)
O23_3 O 0.8039(4) 0.0996(3) 0.1445(3)
Dy2_3 Dy 0.743302(12) 0.252922(9) 0.254857(7)
Cu5_3 Cu 0.71559(5) 0.17322(4) 0.17462(3)
Cu11_3 Cu 0.75275(6) 0.13771(4) 0.24738(3)
Cu23_3 Cu 0.66668(3) 0.21908(2) 0.333683(16)
Cu27_3 Cu 0.78093(4) 0.33334(3) 0.332983(16)
N5_3 N 0.6516(5) 0.1427(4) 0.14339(19)
N11_3 N 0.7259(5) 0.0803(4) 0.2817(2)
C11_3 C 0.7159(10) 0.1319(7) 0.1088(6)
C16_3 C 0.6727(15) 0.1421(13) 0.1065(4)
H12_3 H 0.6848 0.1763 0.0943
H17_3 H 0.6445 0.1147 0.0911
O27_3 O 0.7264(8) 0.1150(6) 0.0830(5)
C21_3 C 0.5708(22) 0.1259(15) 0.1620(13)
H22_3 H 0.5531 0.1017 0.1415
H27_3 H 0.5753 0.1069 0.1826
H32_3 H 0.5498 0.1413 0.1701
C26_3 C 0.6185(7) 0.1645(5) 0.1505(4)
C31_3 C 0.6346(5) 0.1894(4) 0.1909(2)
C37_3 C 0.7904(12) 0.0713(8) 0.2423(7)
C42_3 C 0.7605(18) 0.0531(13) 0.2822(10)
H38_3 H 0.7857 0.0660 0.3030
H43_3 H 0.7385 0.0145 0.2839
O33_3 O 0.8078(10) 0.0442(7) 0.2331(6)
C47_3 C 0.7001(7) 0.0859(5) 0.3104(3)
H48_3 H 0.7304 0.1003 0.3279
C52_3 C 0.6613(9) 0.0458(5) 0.3364(4)
H53_3 H 0.6670 0.0159 0.3377
H58_3 H 0.6657 0.0613 0.3611
H63_3 H 0.6257 0.0341 0.3275
C57_3 C 0.6961(4) 0.1347(3) 0.3084(2)
O37_3 O 0.7391(4) 0.1404(3) 0.13875(17)
O42_3 O 0.68144(21) 0.20282(15) 0.20475(11)
O47_3 O 0.60446(21) 0.20533(15) 0.20514(12)
O53_3 O 0.7835(3) 0.1005(2) 0.22122(18)
O58_3 O 0.72079(21) 0.16638(16) 0.27943(13)
O63_3 O 0.67019(21) 0.14234(14) 0.33277(12)
O78_3 O 0.74187(17) 0.25843(12) 0.32157(10)
O81_3 O 0.59177(21) 0.18323(12) 0.34509(10)
O96_3 O 0.67592(21) 0.22524(12) 0.38751(10)
O100_3 O 0.65672(17) 0.21630(12) 0.28018(10)
O108_3 O 0.9002(4) 0.0753(3) 0.19691(19)
O141_3 O 0.6755(4) 0.0966(2) 0.2126(2)
H74_3 H 0.63033 0.104609 0.151122
H75_3 H 0.694908 0.0533036 0.266851
H84_3 H 0.618021 0.190299 0.129119
O20_3 O 0.7525(6) 0.9982(5) 0.1266(3)
Na4_2 Na 0.05052(11) 0.47015(15) 0.58029(8)
Na14_2 Na 0.12402(10) 0.50758(16) 0.50611(8)
C38_2 C 0.0524(9) 0.4570(12) 0.4243(7)
C43_2 C 0.0407(13) 0.4271(18) 0.3844(10)
H39_2 H 0.0530 0.4523 0.3636
H44_2 H 0.0573 0.4051 0.3827
O34_2 O 0.0969(7) 0.4744(10) 0.4335(6)
O54_2 O 0.0163(2) 0.4501(3) 0.44544(18)
O72_2 O 0.0955(3) 0.5621(4) 0.5471(2)
O104_2 O 0.0876(3) 0.4192(6) 0.5401(3)
O110_2 O 0.1582(3) 0.5668(4) 0.46975(19)
O114_2 O 0.0135(3) 0.4939(4) 0.6147(2)
O119_2 O 0.0376(3) 0.4706(4) 0.5222(3)
O128_2 O 0.11169(15) 0.50437(23) 0.60825(13)
O138_2 O 0.18303(16) 0.54028(24) 0.53817(12)
H98 H 0.0388791 0.528901 0.624727
Dy1_2 Dy 0.586256(9) 0.176287(8) 0.411809(7)
Cu1_2 Cu 0.50656(4) 0.12430(3) 0.49204(3)
Cu2_2 Cu 0.47105(4) 0.05163(4) 0.41928(3)
Cu3_2 Cu 0.59067(2) 0.29567(2) 0.409173(17)
Na1_2 Na 0.58038(10) 0.05052(11) 0.41971(8)
N3_2 N 0.4761(4) 0.1578(3) 0.52327(19)
N4_2 N 0.4137(4) 0.0211(3) 0.3849(2)
C1_2 C 0.4653(7) 0.0827(7) 0.5578(6)
C2_2 C 0.4755(13) 0.1361(8) 0.5601(4)
H1_2 H 0.5097 0.1582 0.5723
H2_2 H 0.4481 0.1369 0.5755
O7_2 O 0.4484(6) 0.0553(6) 0.5836(5)
C3_2 C 0.4593(15) 0.2218(16) 0.5046(13)
H3_2 H 0.4351 0.2153 0.5251
H4_2 H 0.4403 0.1983 0.4840
H5_2 H 0.4747 0.2582 0.4965
C4_2 C 0.4979(5) 0.2127(5) 0.5161(4)
C5_2 C 0.5228(4) 0.2215(3) 0.4757(2)
C8_2 C 0.4193(5) 0.0525(5) 0.3562(3)
H8_2 H 0.4337 0.0366 0.3387
C9_2 C 0.3792(5) 0.0512(7) 0.3302(4)
H9_2 H 0.3493 0.0156 0.3289
H10_2 H 0.3947 0.0623 0.3055
H11_2 H 0.3675 0.0751 0.3391
C10_2 C 0.4681(3) 0.1053(3) 0.3582(2)
O9_2 O 0.4738(3) 0.0680(2) 0.52791(17)
O10_2 O 0.53616(15) 0.18805(15) 0.46191(11)
O11_2 O 0.53867(15) 0.26754(14) 0.46152(12)
O13_2 O 0.49972(16) 0.11226(14) 0.38723(13)
O14_2 O 0.47568(14) 0.13882(16) 0.33389(12)
O15_2 O 0.5335(3) 0.0955(3) 0.4529(2)
O17_2 O 0.63392(11) 0.26856(12) 0.42934(9)
O19_2 O 0.54964(12) 0.22625(12) 0.38648(10)
O20_4 O 0.6685(5) 0.0876(3) 0.4599(3)
O22_4 O 0.5197(3) 0.0135(3) 0.3853(2)
O23_4 O 0.5671(3) 0.0376(3) 0.4778(3)
O24_2 O 0.60733(17) 0.11169(15) 0.39175(13)
O25_2 O 0.64276(18) 0.18303(16) 0.46183(12)
O26_2 O 0.4300(2) 0.0878(3) 0.4540(2)
Dy3_2 Dy 0.823713(8) 0.409968(12) 0.411809(7)
Dy6_2 Dy 0.590032(12) 0.413744(9) 0.411809(7)
Cu6_2 Cu 0.87570(3) 0.38225(5) 0.49204(3)
Cu9_2 Cu 0.61775(5) 0.49344(4) 0.49204(3)
Cu12_2 Cu 0.94837(4) 0.41941(6) 0.41928(3)
Cu14_2 Cu 0.58059(6) 0.52895(4) 0.41928(3)
Cu15_2 Cu 0.70433(2) 0.29499(3) 0.409173(17)
Cu17_2 Cu 0.70501(3) 0.40933(2) 0.409173(17)
Na5_2 Na 0.94948(11) 0.52985(15) 0.41971(8)
Na10_2 Na 0.52985(15) 0.58038(10) 0.58029(8)
Na11_2 Na 0.47015(15) 0.41962(10) 0.41971(8)
Na12_2 Na 0.61643(12) 0.12402(10) 0.49389(8)
Na16_2 Na 0.49242(16) 0.61643(12) 0.50611(8)
Na17_2 Na 0.87598(10) 0.49242(16) 0.49389(8)
Na20_2 Na 0.50758(16) 0.38357(12) 0.49389(8)
N6_2 N 0.8422(3) 0.3182(5) 0.52327(19)
N9_2 N 0.6818(5) 0.5239(4) 0.52327(19)
N12_2 N 0.9789(3) 0.3925(5) 0.3849(2)
N14_2 N 0.6075(5) 0.5863(4) 0.3849(2)
C12_2 C 0.9173(7) 0.3825(10) 0.5578(6)
C15_2 C 0.6175(10) 0.5347(7) 0.5578(6)
C17_2 C 0.8639(8) 0.3393(15) 0.5601(4)
C20_2 C 0.6607(15) 0.5245(13) 0.5601(4)
H13_2 H 0.8418 0.3514 0.5723
H16_2 H 0.6486 0.4903 0.5723
H18_2 H 0.8631 0.3111 0.5755
H21_2 H 0.6889 0.5519 0.5755
O28_2 O 0.9447(6) 0.3930(8) 0.5836(5)
O31_2 O 0.6070(8) 0.5516(6) 0.5836(5)
C22_2 C 0.7782(16) 0.2374(22) 0.5046(13)
C25_2 C 0.7626(22) 0.5407(15) 0.5046(13)
H23_2 H 0.7847 0.2197 0.5251
H26_2 H 0.7803 0.5649 0.5251
H28_2 H 0.8017 0.2419 0.4840
H31_2 H 0.7581 0.5597 0.4840
H33_2 H 0.7418 0.2164 0.4965
H36_2 H 0.7836 0.5253 0.4965
C27_2 C 0.7873(5) 0.2851(7) 0.5161(4)
C30_2 C 0.7149(7) 0.5021(5) 0.5161(4)
C32_2 C 0.7785(3) 0.3012(5) 0.4757(2)
C35_2 C 0.6988(5) 0.4772(4) 0.4757(2)
C37_4 C 0.5953(8) 0.0524(9) 0.5757(7)
C40_2 C 0.5430(12) 0.5953(8) 0.4243(7)
C42_4 C 0.6135(13) 0.0407(13) 0.6156(10)
C45_2 C 0.5729(18) 0.6135(13) 0.3844(10)
H38_4 H 0.6006 0.0530 0.6364
H41_2 H 0.5477 0.6006 0.3636
H43_4 H 0.6521 0.0573 0.6173
H46_2 H 0.5949 0.6521 0.3827
O33_4 O 0.6224(7) 0.0969(7) 0.5665(6)
O36_2 O 0.5256(10) 0.6224(7) 0.4335(6)
C48_2 C 0.9475(5) 0.3667(7) 0.3562(3)
C50_2 C 0.6333(7) 0.5807(5) 0.3562(3)
H49_2 H 0.9634 0.3970 0.3387
H51_2 H 0.6030 0.5663 0.3387
C53_2 C 0.9488(7) 0.3279(9) 0.3302(4)
C55_2 C 0.6721(9) 0.6208(5) 0.3302(4)
H54_2 H 0.9844 0.3336 0.3289
H56_2 H 0.6664 0.6507 0.3289
H59_2 H 0.9377 0.3323 0.3055
H61_2 H 0.6677 0.6053 0.3055
H64_2 H 0.9249 0.2923 0.3391
H66_2 H 0.7077 0.6325 0.3391
C58_2 C 0.8947(3) 0.3627(4) 0.3582(2)
C60_2 C 0.6373(4) 0.5319(3) 0.3582(2)
O38_2 O 0.9320(2) 0.4057(4) 0.52791(17)
O41_2 O 0.5943(4) 0.5262(3) 0.52791(17)
O43_2 O 0.81195(15) 0.34810(21) 0.46191(11)
O46_2 O 0.65190(21) 0.46384(15) 0.46191(11)
O48_2 O 0.73246(14) 0.27112(21) 0.46152(12)
O51_2 O 0.72888(21) 0.46133(15) 0.46152(12)
O53_4 O 0.5661(2) 0.0163(2) 0.55456(18)
O56_2 O 0.5499(3) 0.5661(2) 0.44544(18)
O59_2 O 0.88774(14) 0.38745(21) 0.38723(13)
O61_2 O 0.61255(21) 0.50028(16) 0.38723(13)
O64_2 O 0.86118(16) 0.33685(21) 0.33389(12)
O66_2 O 0.66315(21) 0.52432(14) 0.33389(12)
O68_2 O 0.9045(3) 0.4379(4) 0.4529(2)
O71_2 O 0.5621(4) 0.4665(3) 0.4529(2)
O75_2 O 0.4379(4) 0.5335(3) 0.5471(2)
O83_2 O 0.63465(16) 0.36608(11) 0.42934(9)
O84_2 O 0.73144(12) 0.36535(16) 0.42934(9)
O98_2 O 0.77375(12) 0.32338(17) 0.38648(10)
O102_2 O 0.67662(17) 0.45036(12) 0.38648(10)
O107_2 O 0.5808(6) 0.6685(5) 0.5401(3)
O108_4 O 0.5913(3) 0.1582(3) 0.53025(19)
O112_2 O 0.4332(4) 0.5913(3) 0.46975(19)
O117_2 O 0.5061(4) 0.5197(3) 0.6147(2)
O122_2 O 0.5294(4) 0.5671(3) 0.5222(3)
O124_2 O 0.88831(15) 0.49563(23) 0.39175(13)
O127_2 O 0.50437(23) 0.39267(17) 0.39175(13)
O131_2 O 0.49563(23) 0.60733(17) 0.60825(13)
O133_2 O 0.81697(16) 0.45972(24) 0.46183(12)
O136_2 O 0.54028(24) 0.35724(18) 0.46183(12)
O140_2 O 0.45972(24) 0.64276(18) 0.53817(12)
O142_2 O 0.9122(3) 0.3421(4) 0.4540(2)
O145_2 O 0.6579(4) 0.5700(2) 0.4540(2)
H67_2 H 0.386637 0.0250622 0.399815
H68_2 H 0.523633 0.238945 0.537548
H69_2 H 0.437942 0.140945 0.515545
H72 H 0.514905 0.0396883 0.371136
H80_2 H 0.859055 0.296996 0.515545
H81_2 H 0.703004 0.562058 0.515545
H82_2 H 0.974938 0.361575 0.399815
H83_2 H 0.638425 0.613363 0.399815
H85_2 H 0.715312 0.476367 0.537548
H87_2 H 0.761055 0.284688 0.537548
H97 H 0.997886 0.468486 0.635352
H105 H 0.4706 0.00211372 0.635352
Na2_2 Na 0.38357(12) 0.87598(10) 0.50611(8)
C6_2 C 0.4047(8) 0.9476(9) 0.4243(7)
C7_2 C 0.3865(13) 0.9593(13) 0.3844(10)
H6_2 H 0.3994 0.9470 0.3636
H7_2 H 0.3479 0.9427 0.3827
O8_2 O 0.3776(7) 0.9031(7) 0.4335(6)
O12_2 O 0.4339(2) 0.9837(2) 0.44544(18)
O21_2 O 0.4087(3) 0.8418(3) 0.46975(19)
Dy2_4 Dy 0.413744(9) 0.823713(8) 0.588191(7)
Cu5_4 Cu 0.49344(4) 0.87570(3) 0.50796(3)
Cu11_4 Cu 0.52895(4) 0.94837(4) 0.58072(3)
Cu16_2 Cu 0.40933(2) 0.70433(2) 0.590827(17)
Cu20_3 Cu 0.29567(2) 0.70501(3) 0.590827(17)
Cu23_4 Cu 0.44758(2) 0.78093(2) 0.667017(16)
Cu27_4 Cu 0.33332(3) 0.78092(2) 0.666317(16)
Na3_2 Na 0.41962(10) 0.94948(11) 0.58029(8)
N5_4 N 0.5239(4) 0.8422(3) 0.47673(19)
N11_4 N 0.5863(4) 0.9789(3) 0.6151(2)
C11_4 C 0.5347(7) 0.9173(7) 0.4422(6)
C16_4 C 0.5245(13) 0.8639(8) 0.4399(4)
H12_4 H 0.4903 0.8418 0.4277
H17_4 H 0.5519 0.8631 0.4245
O27_4 O 0.5516(6) 0.9447(6) 0.4164(5)
C21_4 C 0.5407(15) 0.7782(16) 0.4954(13)
H22_4 H 0.5649 0.7847 0.4749
H27_4 H 0.5597 0.8017 0.5160
H32_4 H 0.5253 0.7418 0.5035
C26_4 C 0.5021(5) 0.7873(5) 0.4839(4)
C31_4 C 0.4772(4) 0.7785(3) 0.5243(2)
C47_4 C 0.5807(5) 0.9475(5) 0.6438(3)
H48_4 H 0.5663 0.9634 0.6613
C52_4 C 0.6208(5) 0.9488(7) 0.6698(4)
H53_4 H 0.6507 0.9844 0.6711
H58_4 H 0.6053 0.9377 0.6945
H63_4 H 0.6325 0.9249 0.6609
C57_4 C 0.5319(3) 0.8947(3) 0.6418(2)
O37_4 O 0.5262(3) 0.9320(2) 0.47209(17)
O42_4 O 0.46384(15) 0.81195(15) 0.53809(11)
O47_4 O 0.46133(15) 0.73246(14) 0.53848(12)
O58_4 O 0.50028(16) 0.88774(14) 0.61277(13)
O63_4 O 0.52432(14) 0.86118(16) 0.66611(12)
O67_2 O 0.4665(3) 0.9045(3) 0.5471(2)
O78_4 O 0.40823(12) 0.81677(12) 0.65491(10)
O81_4 O 0.48343(12) 0.74187(17) 0.67843(10)
O85_3 O 0.36608(11) 0.73144(12) 0.57066(9)
O88_2 O 0.36535(16) 0.63392(11) 0.57066(9)
O92_3 O 0.32408(12) 0.77476(12) 0.61249(10)
O95_2 O 0.45067(17) 0.67592(12) 0.61249(10)
O96_4 O 0.44142(12) 0.78401(17) 0.72085(10)
O100_4 O 0.45036(12) 0.77375(12) 0.61352(10)
O103_2 O 0.3315(5) 0.9124(3) 0.5401(3)
O113_2 O 0.4803(3) 0.9865(3) 0.6147(2)
O118_2 O 0.4329(3) 0.9624(3) 0.5222(3)
O123_2 O 0.39267(17) 0.88831(15) 0.60825(13)
O132_2 O 0.35724(18) 0.81697(16) 0.53817(12)
O141_4 O 0.5700(2) 0.9122(3) 0.5460(2)
H73 H 0.526404 0.991509 0.367921
H74_4 H 0.562058 0.859055 0.484455
H75_4 H 0.613363 0.974938 0.600185
H84_4 H 0.476367 0.761055 0.462452
H106 H 0.490022 0.961121 0.624727
Dy2_5 Dy 0.176287(8) 0.590032(12) 0.588191(7)
Cu5_5 Cu 0.12430(3) 0.61775(5) 0.50796(3)
Cu11_5 Cu 0.05163(4) 0.58059(6) 0.58072(3)
Cu20_4 Cu 0.29499(3) 0.59067(4) 0.590827(17)
Cu23_5 Cu 0.21907(2) 0.66666(3) 0.667017(16)
Cu27_5 Cu 0.21908(2) 0.55241(4) 0.666317(16)
N5_5 N 0.1578(3) 0.6818(5) 0.47673(19)
N11_5 N 0.0211(3) 0.6075(5) 0.6151(2)
C11_5 C 0.0827(7) 0.6175(10) 0.4422(6)
C16_5 C 0.1361(8) 0.6607(15) 0.4399(4)
H12_5 H 0.1582 0.6486 0.4277
H17_5 H 0.1369 0.6889 0.4245
O27_5 O 0.0553(6) 0.6070(8) 0.4164(5)
C21_5 C 0.2218(16) 0.7626(22) 0.4954(13)
H22_5 H 0.2153 0.7803 0.4749
H27_5 H 0.1983 0.7581 0.5160
H32_5 H 0.2582 0.7836 0.5035
C26_5 C 0.2127(5) 0.7149(7) 0.4839(4)
C31_5 C 0.2215(3) 0.6988(5) 0.5243(2)
C47_5 C 0.0525(5) 0.6333(7) 0.6438(3)
H48_5 H 0.0366 0.6030 0.6613
C52_5 C 0.0512(7) 0.6721(9) 0.6698(4)
H53_5 H 0.0156 0.6664 0.6711
H58_5 H 0.0623 0.6677 0.6945
H63_5 H 0.0751 0.7077 0.6609
C57_5 C 0.1053(3) 0.6373(4) 0.6418(2)
O37_5 O 0.0680(2) 0.5943(4) 0.47209(17)
O42_5 O 0.18805(15) 0.65190(21) 0.53809(11)
O47_5 O 0.26754(14) 0.72888(21) 0.53848(12)
O58_5 O 0.11226(14) 0.61255(21) 0.61277(13)
O63_5 O 0.13882(16) 0.66315(21) 0.66611(12)
O78_5 O 0.18323(12) 0.59147(17) 0.65491(10)
O81_5 O 0.25813(17) 0.74157(21) 0.67843(10)
O85_4 O 0.26856(12) 0.63465(16) 0.57066(9)
O92_4 O 0.22524(12) 0.54933(17) 0.61249(10)
O96_5 O 0.21599(17) 0.65742(21) 0.72085(10)
O100_5 O 0.22625(12) 0.67662(17) 0.61352(10)
O141_5 O 0.0878(3) 0.6579(4) 0.5460(2)
H73_2 H 0.00849146 0.534896 0.367921
H74_5 H 0.140945 0.703004 0.484455
H75_5 H 0.0250622 0.638425 0.600185
H84_5 H 0.238945 0.715312 0.462452
O20_5 O 0.9124(3) 0.5808(6) 0.4599(3)
O22_5 O 0.9865(3) 0.5061(4) 0.3853(2)
O23_5 O 0.9624(3) 0.5294(4) 0.4778(3)
C37_5 C 0.9476(9) 0.5430(12) 0.5757(7)
C42_5 C 0.9593(13) 0.5729(18) 0.6156(10)
H38_5 H 0.9470 0.5477 0.6364
H43_5 H 0.9427 0.5949 0.6173
O33_5 O 0.9031(7) 0.5256(10) 0.5665(6)
O53_5 O 0.9837(2) 0.5499(3) 0.55456(18)
O108_5 O 0.8418(3) 0.4332(4) 0.53025(19)
H72_2 H 0.960312 0.475216 0.371136
O20_6 O 0.4192(6) 0.3315(5) 0.4599(3)
O22_6 O 0.4939(4) 0.4803(3) 0.3853(2)
O23_6 O 0.4706(4) 0.4329(3) 0.4778(3)
Dy2_6 Dy 0.409968(12) 0.586256(9) 0.588191(7)
Cu5_6 Cu 0.38225(5) 0.50656(4) 0.50796(3)
Cu11_6 Cu 0.41941(6) 0.47105(4) 0.58072(3)
Cu23_6 Cu 0.33334(3) 0.55242(2) 0.667017(16)
Cu27_6 Cu 0.44759(4) 0.66668(3) 0.666317(16)
N5_6 N 0.3182(5) 0.4761(4) 0.47673(19)
N11_6 N 0.3925(5) 0.4137(4) 0.6151(2)
C11_6 C 0.3825(10) 0.4653(7) 0.4422(6)
C16_6 C 0.3393(15) 0.4755(13) 0.4399(4)
H12_6 H 0.3514 0.5097 0.4277
H17_6 H 0.3111 0.4481 0.4245
O27_6 O 0.3930(8) 0.4484(6) 0.4164(5)
C21_6 C 0.2374(22) 0.4593(15) 0.4954(13)
H22_6 H 0.2197 0.4351 0.4749
H27_6 H 0.2419 0.4403 0.5160
H32_6 H 0.2164 0.4747 0.5035
C26_6 C 0.2851(7) 0.4979(5) 0.4839(4)
C31_6 C 0.3012(5) 0.5228(4) 0.5243(2)
C37_6 C 0.4570(12) 0.4047(8) 0.5757(7)
C42_6 C 0.4271(18) 0.3865(13) 0.6156(10)
H38_6 H 0.4523 0.3994 0.6364
H43_6 H 0.4051 0.3479 0.6173
O33_6 O 0.4744(10) 0.3776(7) 0.5665(6)
C47_6 C 0.3667(7) 0.4193(5) 0.6438(3)
H48_6 H 0.3970 0.4337 0.6613
C52_6 C 0.3279(9) 0.3792(5) 0.6698(4)
H53_6 H 0.3336 0.3493 0.6711
H58_6 H 0.3323 0.3947 0.6945
H63_6 H 0.2923 0.3675 0.6609
C57_6 C 0.3627(4) 0.4681(3) 0.6418(2)
O37_6 O 0.4057(4) 0.4738(3) 0.47209(17)
O42_6 O 0.34810(21) 0.53616(15) 0.53809(11)
O47_6 O 0.27112(21) 0.53867(15) 0.53848(12)
O53_6 O 0.4501(3) 0.4339(2) 0.55456(18)
O58_6 O 0.38745(21) 0.49972(16) 0.61277(13)
O63_6 O 0.33685(21) 0.47568(14) 0.66611(12)
O78_6 O 0.40853(17) 0.59177(12) 0.65491(10)
O81_6 O 0.25843(21) 0.51657(12) 0.67843(10)
O96_6 O 0.34258(21) 0.55858(12) 0.72085(10)
O100_6 O 0.32338(17) 0.54964(12) 0.61352(10)
O108_6 O 0.5668(4) 0.4087(3) 0.53025(19)
O141_6 O 0.3421(4) 0.4300(2) 0.5460(2)
H74_6 H 0.296996 0.437942 0.484455
H75_6 H 0.361575 0.386637 0.600185
H84_6 H 0.284688 0.523633 0.462452
O107_3 O 0.2475(6) 0.0018(5) 0.8734(3)
Dy1_3 Dy 0.252922(9) 0.509621(8) 0.745143(7)
Cu1_3 Cu 0.17322(4) 0.45764(3) 0.82538(3)
Cu2_3 Cu 0.13771(4) 0.38497(4) 0.75262(3)
Cu3_3 Cu 0.25733(2) 0.62901(2) 0.742507(17)
N3_3 N 0.1427(4) 0.4912(3) 0.85661(19)
N4_3 N 0.0803(4) 0.3545(3) 0.7183(2)
C1_3 C 0.1319(7) 0.4161(7) 0.8912(6)
C2_3 C 0.1421(13) 0.4695(8) 0.8935(4)
H1_3 H 0.1763 0.4916 0.9057
H2_3 H 0.1147 0.4703 0.9089
O7_3 O 0.1150(6) 0.3887(6) 0.9170(5)
C3_3 C 0.1259(15) 0.5552(16) 0.8380(13)
H3_3 H 0.1017 0.5487 0.8585
H4_3 H 0.1069 0.5317 0.8174
H5_3 H 0.1413 0.5916 0.8299
C4_3 C 0.1645(5) 0.5461(5) 0.8495(4)
C5_3 C 0.1894(4) 0.5549(3) 0.8091(2)
C6_3 C 0.0713(8) 0.2810(9) 0.7577(7)
C7_3 C 0.0531(13) 0.2927(13) 0.7178(10)
H6_3 H 0.0660 0.2804 0.6970
H7_3 H 0.0145 0.2761 0.7161
O8_3 O 0.0442(7) 0.2365(7) 0.7669(6)
C8_3 C 0.0859(5) 0.3859(5) 0.6896(3)
H8_3 H 0.1003 0.3700 0.6721
C9_3 C 0.0458(5) 0.3846(7) 0.6636(4)
H9_3 H 0.0159 0.3490 0.6623
H10_3 H 0.0613 0.3957 0.6389
H11_3 H 0.0341 0.4085 0.6725
C10_3 C 0.1347(3) 0.4387(3) 0.6916(2)
O9_3 O 0.1404(3) 0.4014(2) 0.86125(17)
O10_3 O 0.20282(15) 0.52139(15) 0.79525(11)
O11_3 O 0.20533(15) 0.60088(14) 0.79486(12)
O12_3 O 0.1005(2) 0.3171(2) 0.77878(18)
O13_3 O 0.16638(16) 0.44560(14) 0.72057(13)
O14_3 O 0.14234(14) 0.47216(16) 0.66723(12)
O17_3 O 0.30058(11) 0.60190(12) 0.76268(9)
O19_3 O 0.21630(12) 0.55959(12) 0.71982(10)
O21_3 O 0.0753(3) 0.1752(3) 0.80309(19)
O26_3 O 0.0966(2) 0.4212(3) 0.7874(2)
Dy3_3 Dy 0.490379(8) 0.743302(12) 0.745143(7)
Dy6_3 Dy 0.256698(12) 0.747078(9) 0.745143(7)
Cu6_3 Cu 0.54236(3) 0.71559(5) 0.82538(3)
Cu9_3 Cu 0.28441(5) 0.82678(4) 0.82538(3)
Cu12_3 Cu 0.61503(4) 0.75275(6) 0.75262(3)
Cu14_3 Cu 0.24725(6) 0.86229(4) 0.75262(3)
Cu15_3 Cu 0.37099(2) 0.62833(3) 0.742507(17)
Cu17_3 Cu 0.37167(3) 0.74267(2) 0.742507(17)
N6_3 N 0.5088(3) 0.6516(5) 0.85661(19)
N9_3 N 0.3484(5) 0.8573(4) 0.85661(19)
N12_3 N 0.6455(3) 0.7259(5) 0.7183(2)
N14_3 N 0.2741(5) 0.9197(4) 0.7183(2)
C12_3 C 0.5839(7) 0.7159(10) 0.8912(6)
C15_3 C 0.2841(10) 0.8681(7) 0.8912(6)
C17_3 C 0.5305(8) 0.6727(15) 0.8935(4)
C20_3 C 0.3273(15) 0.8579(13) 0.8935(4)
H13_3 H 0.5084 0.6848 0.9057
H16_3 H 0.3152 0.8237 0.9057
H18_3 H 0.5297 0.6445 0.9089
H21_3 H 0.3555 0.8853 0.9089
O28_3 O 0.6113(6) 0.7264(8) 0.9170(5)
O31_3 O 0.2736(8) 0.8850(6) 0.9170(5)
C22_3 C 0.4448(16) 0.5708(22) 0.8380(13)
C25_3 C 0.4292(22) 0.8741(15) 0.8380(13)
H23_3 H 0.4513 0.5531 0.8585
H26_3 H 0.4469 0.8983 0.8585
H28_3 H 0.4683 0.5753 0.8174
H31_3 H 0.4247 0.8931 0.8174
H33_3 H 0.4084 0.5498 0.8299
H36_3 H 0.4502 0.8587 0.8299
C27_3 C 0.4539(5) 0.6185(7) 0.8495(4)
C30_3 C 0.3815(7) 0.8355(5) 0.8495(4)
C32_3 C 0.4451(3) 0.6346(5) 0.8091(2)
C35_3 C 0.3654(5) 0.8106(4) 0.8091(2)
C38_3 C 0.7190(9) 0.7904(12) 0.7577(7)
C40_3 C 0.2096(12) 0.9287(8) 0.7577(7)
C43_3 C 0.7073(13) 0.7605(18) 0.7178(10)
C45_3 C 0.2395(18) 0.9469(13) 0.7178(10)
H39_3 H 0.7196 0.7857 0.6970
H41_3 H 0.2143 0.9340 0.6970
H44_3 H 0.7239 0.7385 0.7161
H46_3 H 0.2615 0.9855 0.7161
O34_3 O 0.7635(7) 0.8078(10) 0.7669(6)
O36_3 O 0.1922(10) 0.9558(7) 0.7669(6)
C48_3 C 0.6141(5) 0.7001(7) 0.6896(3)
C50_3 C 0.2999(7) 0.9141(5) 0.6896(3)
H49_3 H 0.6300 0.7304 0.6721
H51_3 H 0.2696 0.8997 0.6721
C53_3 C 0.6154(7) 0.6613(9) 0.6636(4)
C55_3 C 0.3387(9) 0.9542(5) 0.6636(4)
H54_3 H 0.6510 0.6670 0.6623
H56_3 H 0.3330 0.9841 0.6623
H59_3 H 0.6043 0.6657 0.6389
H61_3 H 0.3343 0.9387 0.6389
H64_3 H 0.5915 0.6257 0.6725
H66_3 H 0.3743 0.9659 0.6725
C58_3 C 0.5613(3) 0.6961(4) 0.6916(2)
C60_3 C 0.3039(4) 0.8653(3) 0.6916(2)
O38_3 O 0.5986(2) 0.7391(4) 0.86125(17)
O41_3 O 0.2609(4) 0.8596(3) 0.86125(17)
O43_3 O 0.47861(15) 0.68144(21) 0.79525(11)
O46_3 O 0.31856(21) 0.79718(15) 0.79525(11)
O48_3 O 0.39912(14) 0.60446(21) 0.79486(12)
O51_3 O 0.39554(21) 0.79467(15) 0.79486(12)
O54_3 O 0.6829(2) 0.7835(3) 0.77878(18)
O56_3 O 0.2165(3) 0.8995(2) 0.77878(18)
O59_3 O 0.55440(14) 0.72079(21) 0.72057(13)
O61_3 O 0.27921(21) 0.83362(16) 0.72057(13)
O64_3 O 0.52784(16) 0.67019(21) 0.66723(12)
O66_3 O 0.32981(21) 0.85766(14) 0.66723(12)
O83_3 O 0.30131(16) 0.69942(11) 0.76268(9)
O84_3 O 0.39810(12) 0.69869(16) 0.76268(9)
O98_3 O 0.44041(12) 0.65672(17) 0.71982(10)
O102_3 O 0.34328(17) 0.78370(12) 0.71982(10)
O104_3 O 0.7543(3) 0.7525(6) 0.8734(3)
O110_3 O 0.8248(3) 0.9002(4) 0.80309(19)
O112_3 O 0.0998(4) 0.9247(3) 0.80309(19)
O113_3 O 0.1470(3) 0.3198(3) 0.9480(2)
O114_3 O 0.6802(3) 0.8272(4) 0.9480(2)
O117_3 O 0.1728(4) 0.8530(3) 0.9480(2)
O118_3 O 0.0996(3) 0.2957(3) 0.8555(3)
O119_3 O 0.7043(3) 0.8039(4) 0.8555(3)
O122_3 O 0.1961(4) 0.9004(3) 0.8555(3)
O142_3 O 0.5788(3) 0.6755(4) 0.7874(2)
O145_3 O 0.3245(4) 0.9034(2) 0.7874(2)
H67_3 H 0.0533036 0.358396 0.733149
H68_3 H 0.190299 0.572279 0.870881
H69_3 H 0.104609 0.474279 0.848878
H80_3 H 0.525721 0.63033 0.848878
H81_3 H 0.36967 0.895391 0.848878
H82_3 H 0.641604 0.694908 0.733149
H83_3 H 0.305092 0.946696 0.733149
H85_3 H 0.381979 0.809701 0.870881
H87_3 H 0.427721 0.618021 0.870881
H99 H 0.0145659 0.503988 0.398976
O103_3 O 0.9982(5) 0.2457(3) 0.8734(3)
H100 H 0.961121 0.471099 0.375273
H102 H 0.509978 0.0388791 0.375273
H101 H 0.489422 0.985434 0.398976
H73_3 H 0.473596 0.00849146 0.632079
H72_3 H 0.485095 0.960312 0.628864
H97_2 H 0.00211372 0.531514 0.364648
H105_2 H 0.5294 0.997886 0.364648
H72_4 H 0.0396883 0.524784 0.628864
H73_4 H 0.991509 0.465104 0.632079
H99_2 H 0.985434 0.496012 0.601024
H101_2 H 0.510578 0.0145659 0.601024
loop_
_geom_bond_atom_site_label_1
_geom_bond_atom_site_label_2
_geom_bond_site_symmetry_1
_geom_bond_site_symmetry_2
N1 O1 1_555 1_555
O2 N1 1_555 1_555
O3 N1 1_555 1_555
N1_2 O1_2 1_555 1_555
O2_2 N1_2 1_555 1_555
O3_2 N1_2 1_555 1_555
N1_3 O1_3 1_555 1_555
O2_3 N1_3 1_555 1_555
O3_3 N1_3 1_555 1_555
N1_4 O1_4 1_555 1_555
O2_4 N1_4 1_555 1_555
O3_4 N1_4 1_555 1_555
N1_5 O1_5 1_555 1_555
O2_5 N1_5 1_555 1_555
O3_5 N1_5 1_555 1_555
N1_6 O1_6 1_555 1_555
O2_6 N1_6 1_555 1_555
O3_6 N1_6 1_555 1_555
N1_7 O1_7 1_555 1_555
O2_7 N1_7 1_555 1_555
O3_7 N1_7 1_555 1_555
N1_8 O1_8 1_555 1_555
O2_8 N1_8 1_555 1_555
O3_8 N1_8 1_555 1_555
N1_9 O1_9 1_555 1_555
O2_9 N1_9 1_555 1_555
O3_9 N1_9 1_555 1_555
N1_10 O1_10 1_555 1_555
O2_10 N1_10 1_555 1_555
O3_10 N1_10 1_555 1_555
N1_11 O1_11 1_555 1_555
O2_11 N1_11 1_555 1_555
O3_11 N1_11 1_555 1_555
N1_12 O1_12 1_555 1_555
O2_12 N1_12 1_555 1_555
O3_12 N1_12 1_555 1_555
N1_13 O1_13 1_555 1_555
O2_13 N1_13 1_555 1_555
O3_13 N1_13 1_555 1_555
N1_14 O1_14 1_555 1_555
O2_14 N1_14 1_555 1_555
O3_14 N1_14 1_555 1_555
N1_15 O1_15 1_555 1_555
O2_15 N1_15 1_555 1_555
O3_15 N1_15 1_555 1_555
N1_16 O1_16 1_555 1_555
O2_16 N1_16 1_555 1_555
O3_16 N1_16 1_555 1_555
N1_17 O1_17 1_555 1_555
O2_17 N1_17 1_555 1_555
O3_17 N1_17 1_555 1_555
N1_18 O1_18 1_555 1_555
O2_18 N1_18 1_555 1_555
O3_18 N1_18 1_555 1_555
O5 N2 1_555 1_555
O6 N2_3 1_555 1_555
N2_4 O4 1_555 1_555
N2_5 O4_2 1_555 1_555
O5_2 N2_5 1_555 1_555
O6_2 N2_5 1_555 1_555
N2_6 O4_3 1_555 1_555
O5_3 N2_6 1_555 1_555
O6_3 N2_6 1_555 1_555
N2_7 O4_4 1_555 1_555
O6_4 N2_8 1_555 1_555
O5_4 N2_10 1_555 1_555
N2_11 O4_5 1_555 1_555
O5_5 N2_11 1_555 1_555
O6_5 N2_11 1_555 1_555
N2_12 O4_6 1_555 1_555
O5_6 N2_12 1_555 1_555
O6_6 N2_12 1_555 1_555
Dy3 O43 1_555 1_555
Cu12 N12 1_555 1_555
Cu17 O51 1_555 1_555
Cu28 O79 1_555 1_555
Na4 O28 1_555 1_555
Na5 O68 1_555 1_555
Na14 O34 1_555 1_555
Na17 O68 1_555 1_555
N12 C43 1_555 1_555
C12 C17 1_555 1_555
C17 H13 1_555 1_555
O28 C12 1_555 1_555
C25 H26 1_555 1_555
H31 C25 1_555 1_555
H36 C25 1_555 1_555
C30 N9 1_555 1_555
C35 C30 1_555 1_555
C38 C43 1_555 1_555
C43 H39 1_555 1_555
H44 C43 1_555 1_555
O34 C38 1_555 1_555
C48 N12 1_555 1_555
H49 C48 1_555 1_555
C58 C48 1_555 1_555
O38 Cu6 1_555 1_555
O43 Cu6 1_555 1_555
O51 C35 1_555 1_555
O54 Cu12 1_555 1_555
O59 Dy3 1_555 1_555
O64 C58 1_555 1_555
O68 Dy3 1_555 1_555
O72 Na4 1_555 1_555
O79 Dy3 1_555 1_555
O84 Dy3 1_555 1_555
O93 Dy3 1_555 1_555
O104 Na4 1_555 1_555
O110 Na14 1_555 1_555
O114 Na4 1_555 1_555
O119 Na4 1_555 1_555
O124 Dy3 1_555 1_555
O128 Na4 1_555 1_555
O133 Dy3 1_555 1_555
O138 Na14 1_555 1_555
O142 Cu6 1_555 1_555
Cu6 O68 1_555 1_555
Cu12 O59 1_555 1_555
Cu12 O68 1_555 1_555
Cu12 O142 1_555 1_555
Cu17 O84 1_555 1_555
Cu17 O93 1_555 1_555
Cu17 O102 1_555 1_555
Cu28 O93 1_555 1_555
Na5 O124 1_555 1_555
Na14 O72 1_555 1_555
Na14 O104 1_555 1_555
Na14 O119 1_555 1_555
Na17 O133 1_555 1_555
C12 O38 1_555 1_555
C25 C30 1_555 1_555
C38 O54 1_555 1_555
C58 O59 1_555 1_555
N9 H81 1_555 1_555
N12 H82 1_555 1_555
C30 H85 1_555 1_555
H61 C55 1_555 1_555
O82 Cu26 1_555 1_555
Cu21 O89 1_555 1_555
Cu21 O94 1_555 1_555
Cu24 O94 1_555 1_555
C22 H23 1_555 1_555
H28 C22 1_555 1_555
H33 C22 1_555 1_555
C27 N6 1_555 1_555
C32 C27 1_555 1_555
O48 Cu15 1_555 1_555
O18 Cu15 1_555 1_555
O18 Cu22 1_555 1_555
Cu15 O98 1_555 1_555
C22 C27 1_555 1_555
C32 O48 1_555 1_555
N6 H80 1_555 1_555
C27 H87 1_555 1_555
Dy4 O44 1_555 1_555
Cu10 N10 1_555 1_555
Na6 O69 1_555 1_555
Na8 O29 1_555 1_555
Na13 O32 1_555 1_555
Na18 O69 1_555 1_555
N10 C41 1_555 1_555
C13 C18 1_555 1_555
C18 H14 1_555 1_555
O29 C13 1_555 1_555
C36 C41 1_555 1_555
C41 H37 1_555 1_555
H42 C41 1_555 1_555
O32 C36 1_555 1_555
C46 N10 1_555 1_555
H47 C46 1_555 1_555
H59 C53 1_555 1_555
C56 C46 1_555 1_555
O39 Cu7 1_555 1_555
O44 Cu7 1_555 1_555
O52 Cu10 1_555 1_555
O57 Dy4 1_555 1_555
O69 Dy4 1_555 1_555
O73 Na8 1_555 1_555
O77 Dy4 1_555 1_555
O86 Dy4 1_555 1_555
O105 Na8 1_555 1_555
O109 Na13 1_555 1_555
O115 Na8 1_555 1_555
O120 Na8 1_555 1_555
O125 Dy4 1_555 1_555
O129 Na8 1_555 1_555
O134 Dy4 1_555 1_555
O137 Na13 1_555 1_555
O143 Cu7 1_555 1_555
Cu7 O69 1_555 1_555
Cu10 O57 1_555 1_555
Cu10 O69 1_555 1_555
Cu10 O143 1_555 1_555
Cu24_2 O77 1_555 1_555
Na6 O125 1_555 1_555
Na13 O73 1_555 1_555
Na13 O105 1_555 1_555
Na13 O120 1_555 1_555
Na18 O134 1_555 1_555
C13 O39 1_555 1_555
C36 O52 1_555 1_555
C56 O57 1_555 1_555
C56 O62 1_555 1_555
N10 H76 1_555 1_555
Dy6 O46 1_555 1_555
Cu14 N14 1_555 1_555
Na10 O31 1_555 1_555
Na11 O71 1_555 1_555
Na16 O36 1_555 1_555
Na20 O71 1_555 1_555
N14 C45 1_555 1_555
C15 C20 1_555 1_555
C20 H16 1_555 1_555
O31 C15 1_555 1_555
C40 C45 1_555 1_555
C45 H41 1_555 1_555
H46 C45 1_555 1_555
O36 C40 1_555 1_555
C50 N14 1_555 1_555
H51 C50 1_555 1_555
H60 C54 1_555 1_555
C60 C50 1_555 1_555
O41 Cu9 1_555 1_555
O46 Cu9 1_555 1_555
O56 Cu14 1_555 1_555
O61 Dy6 1_555 1_555
O66 C60 1_555 1_555
O71 Dy6 1_555 1_555
O75 Na10 1_555 1_555
O80 Dy6 1_555 1_555
O107 Na10 1_555 1_555
O112 Na16 1_555 1_555
O117 Na10 1_555 1_555
O122 Na10 1_555 1_555
O127 Dy6 1_555 1_555
O131 Na10 1_555 1_555
O136 Dy6 1_555 1_555
O140 Na16 1_555 1_555
O145 Cu9 1_555 1_555
Dy6 O83 1_555 1_555
Cu9 O71 1_555 1_555
Cu14 O61 1_555 1_555
Cu14 O71 1_555 1_555
Cu14 O145 1_555 1_555
Cu25 O80 1_555 1_555
Na11 O127 1_555 1_555
Na16 O75 1_555 1_555
Na16 O107 1_555 1_555
Na16 O122 1_555 1_555
Na20 O136 1_555 1_555
C15 O41 1_555 1_555
C40 O56 1_555 1_555
C60 O61 1_555 1_555
N14 H83 1_555 1_555
Cu19 O50 1_555 1_555
C24 H25 1_555 1_555
H30 C24 1_555 1_555
H35 C24 1_555 1_555
C29 N8 1_555 1_555
C34 C29 1_555 1_555
O50 C34 1_555 1_555
O97 Cu19 1_555 1_555
Cu19 O101 1_555 1_555
Cu26_2 O97 1_555 1_555
C24 C29 1_555 1_555
N8 H77 1_555 1_555
C29 H88 1_555 1_555
Dy1 O10 1_555 1_555
Cu1 N3 1_555 1_555
Cu2 N4 1_555 1_555
Cu3 O11 1_555 1_555
Na1 O15 1_555 1_555
Na2 O8 1_555 1_555
N3 C2 1_555 1_555
N4 C7 1_555 1_555
C1 C2 1_555 1_555
C2 H1 1_555 1_555
H2 C2 1_555 1_555
O7 C1 1_555 1_555
C3 H3 1_555 1_555
H4 C3 1_555 1_555
H5 C3 1_555 1_555
C4 N3 1_555 1_555
C5 C4 1_555 1_555
C6 C7 1_555 1_555
C7 H6 1_555 1_555
H7 C7 1_555 1_555
O8 C6 1_555 1_555
C8 N4 1_555 1_555
H8 C8 1_555 1_555
C10 C8 1_555 1_555
O9 Cu1 1_555 1_555
O10 Cu1 1_555 1_555
O11 C5 1_555 1_555
O12 Cu2 1_555 1_555
O13 Dy1 1_555 1_555
O14 C10 1_555 1_555
O15 Dy1 1_555 1_555
O16 Dy1 1_555 1_555
O17 Dy1 1_555 1_555
O19 Dy1 1_555 1_555
O21 Na2 1_555 1_555
O22 Na1 1_555 1_555
O23 Na1 1_555 1_555
O24 Dy1 1_555 1_555
O25 Dy1 1_555 1_555
O26 Cu1 1_555 1_555
Dy2 O42 1_555 1_555
Cu5 N5 1_555 1_555
Cu11 N11 1_555 1_555
Cu16 O47 1_555 1_555
Cu20 O85 1_555 1_555
Cu22_2 O16 1_555 1_555
Cu23 O63 1_555 1_555
Cu27 O78 1_555 1_555
Na3 O7 1_555 1_555
Na12 O15 1_555 1_555
N5 C16 1_555 1_555
N11 C42 1_555 1_555
C11 C16 1_555 1_555
C16 H12 1_555 1_555
H17 C16 1_555 1_555
O27 Na1 1_555 1_555
C21 H22 1_555 1_555
H27 C21 1_555 1_555
H32 C21 1_555 1_555
C26 N5 1_555 1_555
C31 C26 1_555 1_555
C37 C42 1_555 1_555
C42 H38 1_555 1_555
H43 C42 1_555 1_555
O33 Na12 1_555 1_555
C47 N11 1_555 1_555
H48 C47 1_555 1_555
C52 C47 1_555 1_555
H53 C52 1_555 1_555
H57 C51 1_555 1_555
H58 C52 1_555 1_555
H63 C52 1_555 1_555
C57 C47 1_555 1_555
O37 Cu5 1_555 1_555
O42 Cu5 1_555 1_555
O47 C31 1_555 1_555
O53 Cu11 1_555 1_555
O58 Dy2 1_555 1_555
O63 C57 1_555 1_555
O67 Na2 1_555 1_555
O78 Dy2 1_555 1_555
O81 Cu23 1_555 1_555
O85 Dy2 1_555 1_555
O88 Cu16 1_555 1_555
O90 Cu3 1_555 1_555
O92 Dy2 1_555 1_555
O95 Cu16 1_555 1_555
O96 Cu23 1_555 1_555
O100 Dy2 1_555 1_555
O103 Na2 1_555 1_555
O108 Na12 1_555 1_555
O113 Na3 1_555 1_555
O118 Na2 1_555 1_555
O123 Dy2 1_555 1_555
O132 Na2 1_555 1_555
O141 Cu5 1_555 1_555
Cu1 O15 1_555 1_555
Cu2 O13 1_555 1_555
Cu2 O15 1_555 1_555
Cu2 O26 1_555 1_555
Cu3 O17 1_555 1_555
Cu3 O19 1_555 1_555
Na1 O24 1_555 1_555
C1 O9 1_555 1_555
C3 C4 1_555 1_555
C5 O10 1_555 1_555
C6 O12 1_555 1_555
C10 O13 1_555 1_555
O23 Na12 1_555 1_555
O25 Na12 1_555 1_555
Dy2 O67 1_555 1_555
Dy2 O132 1_555 1_555
Cu5 O67 1_555 1_555
Cu11 O58 1_555 1_555
Cu11 O67 1_555 1_555
Cu11 O141 1_555 1_555
Cu16 O85 1_555 1_555
Cu16 O100 1_555 1_555
Cu20 O92 1_555 1_555
Cu23 O78 1_555 1_555
Cu23 O100 1_555 1_555
Cu25_2 O90 1_555 1_555
Cu27 O92 1_555 1_555
Na3 O67 1_555 1_555
Na3 O103 1_555 1_555
Na3 O118 1_555 1_555
Na3 O123 1_555 1_555
C11 O27 1_555 1_555
C11 O37 1_555 1_555
C21 C26 1_555 1_555
C31 O42 1_555 1_555
C37 O33 1_555 1_555
C37 O53 1_555 1_555
C57 O58 1_555 1_555
N4 H67 1_555 1_555
C4 H68 1_555 1_555
N3 H69 1_555 1_555
N5 H74 1_555 1_555
N11 H75 1_555 1_555
C26 H84 1_555 1_555
H9 C9 1_555 1_555
H10 C9 1_555 1_555
Dy5 O45 1_555 1_555
Cu13 N13 1_555 1_555
Cu18 O49 1_555 1_555
Na7 O70 1_555 1_555
Na9 O30 1_555 1_555
Na15 O35 1_555 1_555
Na19 O70 1_555 1_555
N13 C44 1_555 1_555
C14 C19 1_555 1_555
C19 H15 1_555 1_555
O30 C14 1_555 1_555
C23 H24 1_555 1_555
H29 C23 1_555 1_555
H34 C23 1_555 1_555
C28 N7 1_555 1_555
C33 C28 1_555 1_555
C39 C44 1_555 1_555
C44 H40 1_555 1_555
H45 C44 1_555 1_555
O35 C39 1_555 1_555
C49 N13 1_555 1_555
H50 C49 1_555 1_555
C59 C49 1_555 1_555
O40 Cu8 1_555 1_555
O45 Cu8 1_555 1_555
O49 C33 1_555 1_555
O55 Cu13 1_555 1_555
O60 Dy5 1_555 1_555
O65 C59 1_555 1_555
O70 Dy5 1_555 1_555
O74 Na9 1_555 1_555
O76 Cu4 1_555 1_555
O87 Dy5 1_555 1_555
O91 Cu4 1_555 1_555
O106 Na9 1_555 1_555
O111 Na15 1_555 1_555
O116 Na9 1_555 1_555
O121 Na9 1_555 1_555
O126 Dy5 1_555 1_555
O130 Na9 1_555 1_555
O135 Dy5 1_555 1_555
O139 Na15 1_555 1_555
O144 Cu8 1_555 1_555
Dy5 O76 1_555 1_555
Dy5 O91 1_555 1_555
Cu8 O70 1_555 1_555
Cu13 O60 1_555 1_555
Cu13 O70 1_555 1_555
Cu13 O144 1_555 1_555
Cu18 O87 1_555 1_555
Cu18 O91 1_555 1_555
Cu18 O99 1_555 1_555
Na7 O126 1_555 1_555
Na15 O74 1_555 1_555
Na15 O106 1_555 1_555
Na15 O121 1_555 1_555
Na19 O135 1_555 1_555
C14 O40 1_555 1_555
C23 C28 1_555 1_555
C39 O55 1_555 1_555
C59 O60 1_555 1_555
N13 H78 1_555 1_555
N7 H79 1_555 1_555
C28 H86 1_555 1_555
O20_2 Na5 1_555 1_555
O22_2 Na5 1_555 1_555
O23_2 Na5 1_555 1_555
Dy2_2 O42_2 1_555 1_555
Cu5_2 N5_2 1_555 1_555
Cu11_2 N11_2 1_555 1_555
Cu20 O47_2 1_555 1_555
Cu20_2 O85_2 1_555 1_555
Cu23_2 O63_2 1_555 1_555
Cu27_2 O78_2 1_555 1_555
N5_2 C16_2 1_555 1_555
N11_2 C42_2 1_555 1_555
C11_2 C16_2 1_555 1_555
C16_2 H12_2 1_555 1_555
H17_2 C16_2 1_555 1_555
O27_2 Na5 1_555 1_555
C21_2 H22_2 1_555 1_555
H27_2 C21_2 1_555 1_555
H32_2 C21_2 1_555 1_555
C26_2 N5_2 1_555 1_555
C31_2 C26_2 1_555 1_555
C37_2 C42_2 1_555 1_555
C42_2 H38_2 1_555 1_555
H43_2 C42_2 1_555 1_555
O33_2 Na17 1_555 1_555
C47_2 N11_2 1_555 1_555
H48_2 C47_2 1_555 1_555
C52_2 C47_2 1_555 1_555
H52_2 C51_2 1_555 1_555
H53_2 C52_2 1_555 1_555
H57_2 C51_2 1_555 1_555
H58_2 C52_2 1_555 1_555
H63_2 C52_2 1_555 1_555
C57_2 C47_2 1_555 1_555
O37_2 Cu5_2 1_555 1_555
O42_2 Cu5_2 1_555 1_555
O47_2 C31_2 1_555 1_555
O53_2 Cu11_2 1_555 1_555
O58_2 Dy2_2 1_555 1_555
O63_2 C57_2 1_555 1_555
O78_2 Dy2_2 1_555 1_555
O81_2 Cu23_2 1_555 1_555
O85_2 Dy2_2 1_555 1_555
O92_2 Dy2_2 1_555 1_555
O96_2 Cu23_2 1_555 1_555
O100_2 Dy2_2 1_555 1_555
O108_2 Na17 1_555 1_555
O128 Dy2_2 1_555 1_555
O141_2 Cu5_2 1_555 1_555
O20_2 Na17 1_555 1_555
O23_2 Na17 1_555 1_555
Dy2_2 O72 1_555 1_555
Dy2_2 O138 1_555 1_555
Cu5_2 O72 1_555 1_555
Cu11_2 O58_2 1_555 1_555
Cu11_2 O72 1_555 1_555
Cu11_2 O141_2 1_555 1_555
Cu20 O85_2 1_555 1_555
Cu20 O100_2 1_555 1_555
Cu20_2 O92_2 1_555 1_555
Cu23_2 O78_2 1_555 1_555
Cu23_2 O100_2 1_555 1_555
Cu27_2 O92_2 1_555 1_555
C11_2 O27_2 1_555 1_555
C11_2 O37_2 1_555 1_555
C21_2 C26_2 1_555 1_555
C31_2 O42_2 1_555 1_555
C37_2 O33_2 1_555 1_555
C37_2 O53_2 1_555 1_555
C57_2 O58_2 1_555 1_555
N5_2 H74_2 1_555 1_555
N11_2 H75_2 1_555 1_555
C26_2 H84_2 1_555 1_555
Dy4_2 O44_2 1_555 1_555
Cu7_2 N7_2 1_555 1_555
Cu10_2 N10_2 1_555 1_555
Cu21 O49_2 1_555 1_555
Na6_2 O69_2 1_555 1_555
Na8_2 O29_2 1_555 1_555
Na13_2 O32_2 1_555 1_555
Na18_2 O69_2 1_555 1_555
N7_2 C18_2 1_555 1_555
N10_2 C41_2 1_555 1_555
C13_2 C18_2 1_555 1_555
C18_2 H14_2 1_555 1_555
H19_2 C18_2 1_555 1_555
O29_2 C13_2 1_555 1_555
C23_2 H24_2 1_555 1_555
H29_2 C23_2 1_555 1_555
H34_2 C23_2 1_555 1_555
C28_2 N7_2 1_555 1_555
C33_2 C28_2 1_555 1_555
C36_2 C41_2 1_555 1_555
C41_2 H37_2 1_555 1_555
H42_2 C41_2 1_555 1_555
O32_2 C36_2 1_555 1_555
C46_2 N10_2 1_555 1_555
H47_2 C46_2 1_555 1_555
C56_2 C46_2 1_555 1_555
O39_2 Cu7_2 1_555 1_555
O44_2 Cu7_2 1_555 1_555
O49_2 C33_2 1_555 1_555
O52_2 Cu10_2 1_555 1_555
O57_2 Dy4_2 1_555 1_555
O69_2 Dy4_2 1_555 1_555
O73_2 Na8_2 1_555 1_555
O82 Dy4_2 1_555 1_555
O89 Dy4_2 1_555 1_555
O99_2 Dy4_2 1_555 1_555
O105_2 Na8_2 1_555 1_555
O109_2 Na13_2 1_555 1_555
O115_2 Na8_2 1_555 1_555
O120_2 Na8_2 1_555 1_555
O125_2 Dy4_2 1_555 1_555
O129_2 Na8_2 1_555 1_555
O134_2 Dy4_2 1_555 1_555
O137_2 Na13_2 1_555 1_555
O143_2 Cu7_2 1_555 1_555
Cu7_2 O69_2 1_555 1_555
Cu10_2 O57_2 1_555 1_555
Cu10_2 O69_2 1_555 1_555
Cu10_2 O143_2 1_555 1_555
Cu21 O99_2 1_555 1_555
Na6_2 O125_2 1_555 1_555
Na13_2 O73_2 1_555 1_555
Na13_2 O105_2 1_555 1_555
Na13_2 O120_2 1_555 1_555
Na18_2 O134_2 1_555 1_555
C13_2 O39_2 1_555 1_555
C23_2 C28_2 1_555 1_555
C33_2 O44_2 1_555 1_555
C36_2 O52_2 1_555 1_555
C56_2 O57_2 1_555 1_555
C56_2 O62_2 1_555 1_555
N10_2 H76_2 1_555 1_555
N7_2 H79_2 1_555 1_555
C28_2 H86_2 1_555 1_555
O22_3 Na11 1_555 1_555
O23_3 Na11 1_555 1_555
Dy2_3 O42_3 1_555 1_555
Cu5_3 N5_3 1_555 1_555
Cu11_3 N11_3 1_555 1_555
Cu20_2 O47_3 1_555 1_555
Cu23_3 O63_3 1_555 1_555
Cu27_3 O78_3 1_555 1_555
N5_3 C16_3 1_555 1_555
N11_3 C42_3 1_555 1_555
C11_3 C16_3 1_555 1_555
C16_3 H12_3 1_555 1_555
H17_3 C16_3 1_555 1_555
O27_3 Na11 1_555 1_555
C21_3 H22_3 1_555 1_555
H27_3 C21_3 1_555 1_555
H32_3 C21_3 1_555 1_555
C26_3 N5_3 1_555 1_555
C31_3 C26_3 1_555 1_555
C37_3 C42_3 1_555 1_555
C42_3 H38_3 1_555 1_555
H43_3 C42_3 1_555 1_555
O33_3 Na20 1_555 1_555
C47_3 N11_3 1_555 1_555
H48_3 C47_3 1_555 1_555
C52_3 C47_3 1_555 1_555
H53_3 C52_3 1_555 1_555
H58_3 C52_3 1_555 1_555
H63_3 C52_3 1_555 1_555
C57_3 C47_3 1_555 1_555
O37_3 Cu5_3 1_555 1_555
O42_3 Cu5_3 1_555 1_555
O47_3 C31_3 1_555 1_555
O53_3 Cu11_3 1_555 1_555
O58_3 Dy2_3 1_555 1_555
O63_3 C57_3 1_555 1_555
O78_3 Dy2_3 1_555 1_555
O81_3 Cu23_3 1_555 1_555
O88 Dy2_3 1_555 1_555
O95 Dy2_3 1_555 1_555
O96_3 Cu23_3 1_555 1_555
O100_3 Dy2_3 1_555 1_555
O108_3 Na20 1_555 1_555
O131 Dy2_3 1_555 1_555
O141_3 Cu5_3 1_555 1_555
O23_3 Na20 1_555 1_555
Dy2_3 O75 1_555 1_555
Dy2_3 O140 1_555 1_555
Cu5_3 O75 1_555 1_555
Cu11_3 O58_3 1_555 1_555
Cu11_3 O75 1_555 1_555
Cu11_3 O141_3 1_555 1_555
Cu20_2 O88 1_555 1_555
Cu20_2 O100_3 1_555 1_555
Cu23_3 O78_3 1_555 1_555
Cu23_3 O100_3 1_555 1_555
Cu27_3 O95 1_555 1_555
C11_3 O27_3 1_555 1_555
C11_3 O37_3 1_555 1_555
C21_3 C26_3 1_555 1_555
C31_3 O42_3 1_555 1_555
C37_3 O33_3 1_555 1_555
C37_3 O53_3 1_555 1_555
C57_3 O58_3 1_555 1_555
N5_3 H74_3 1_555 1_555
N11_3 H75_3 1_555 1_555
C26_3 H84_3 1_555 1_555
Na14_2 O34_2 1_555 1_555
C38_2 C43_2 1_555 1_555
C43_2 H39_2 1_555 1_555
H44_2 C43_2 1_555 1_555
O34_2 C38_2 1_555 1_555
O72_2 Na4_2 1_555 1_555
O104_2 Na4_2 1_555 1_555
O110_2 Na14_2 1_555 1_555
O114_2 Na4_2 1_555 1_555
O119_2 Na4_2 1_555 1_555
O128_2 Na4_2 1_555 1_555
O138_2 Na14_2 1_555 1_555
Na14_2 O72_2 1_555 1_555
Na14_2 O104_2 1_555 1_555
Na14_2 O119_2 1_555 1_555
C38_2 O54_2 1_555 1_555
O114_2 H98 1_555 1_555
Dy1_2 O10_2 1_555 1_555
Cu1_2 N3_2 1_555 1_555
Cu2_2 N4_2 1_555 1_555
Cu3_2 O11_2 1_555 1_555
Cu27_2 O14_2 1_555 1_555
Na1_2 O15_2 1_555 1_555
N3_2 C2_2 1_555 1_555
C1_2 C2_2 1_555 1_555
C2_2 H1_2 1_555 1_555
H2_2 C2_2 1_555 1_555
O7_2 C1_2 1_555 1_555
C3_2 H3_2 1_555 1_555
H4_2 C3_2 1_555 1_555
H5_2 C3_2 1_555 1_555
C4_2 N3_2 1_555 1_555
C5_2 C4_2 1_555 1_555
C8_2 N4_2 1_555 1_555
H8_2 C8_2 1_555 1_555
C9_2 C8_2 1_555 1_555
H9_2 C9_2 1_555 1_555
H10_2 C9_2 1_555 1_555
H11_2 C9_2 1_555 1_555
C10_2 C8_2 1_555 1_555
O9_2 Cu1_2 1_555 1_555
O10_2 Cu1_2 1_555 1_555
O11_2 C5_2 1_555 1_555
O13_2 Dy1_2 1_555 1_555
O14_2 C10_2 1_555 1_555
O15_2 Dy1_2 1_555 1_555
O81_3 Dy1_2 1_555 1_555
O17_2 Dy1_2 1_555 1_555
O96_3 Dy1_2 1_555 1_555
O19_2 Dy1_2 1_555 1_555
O20_4 Na1_2 1_555 1_555
O22_4 Na1_2 1_555 1_555
O23_4 Na1_2 1_555 1_555
O24_2 Dy1_2 1_555 1_555
O25_2 Dy1_2 1_555 1_555
O26_2 Cu1_2 1_555 1_555
Dy3_2 O43_2 1_555 1_555
Dy6_2 O46_2 1_555 1_555
Cu6_2 N6_2 1_555 1_555
Cu9_2 N9_2 1_555 1_555
Cu12_2 N12_2 1_555 1_555
Cu14_2 N14_2 1_555 1_555
Cu15_2 O17_2 1_555 1_555
Cu17_2 O51_2 1_555 1_555
Cu27_3 O64_2 1_555 1_555
Cu27 O66_2 1_555 1_555
Na5_2 O68_2 1_555 1_555
Na10_2 O31_2 1_555 1_555
Na11_2 O71_2 1_555 1_555
Na12_2 O15_2 1_555 1_555
Na16_2 O36_2 1_555 1_555
Na17_2 O68_2 1_555 1_555
Na20_2 O71_2 1_555 1_555
N6_2 C17_2 1_555 1_555
N9_2 C20_2 1_555 1_555
N14_2 C45_2 1_555 1_555
C12_2 C17_2 1_555 1_555
C15_2 C20_2 1_555 1_555
C17_2 H13_2 1_555 1_555
C20_2 H16_2 1_555 1_555
H18_2 C17_2 1_555 1_555
H21_2 C20_2 1_555 1_555
O28_2 C12_2 1_555 1_555
O31_2 C15_2 1_555 1_555
C22_2 H23_2 1_555 1_555
C25_2 H26_2 1_555 1_555
H28_2 C22_2 1_555 1_555
H31_2 C25_2 1_555 1_555
H33_2 C22_2 1_555 1_555
H36_2 C25_2 1_555 1_555
C27_2 N6_2 1_555 1_555
C30_2 N9_2 1_555 1_555
C32_2 C27_2 1_555 1_555
C35_2 C30_2 1_555 1_555
C37_4 C42_4 1_555 1_555
C40_2 C45_2 1_555 1_555
C42_4 H38_4 1_555 1_555
C45_2 H41_2 1_555 1_555
H43_4 C42_4 1_555 1_555
H46_2 C45_2 1_555 1_555
O33_4 Na12_2 1_555 1_555
O36_2 C40_2 1_555 1_555
C48_2 N12_2 1_555 1_555
C50_2 N14_2 1_555 1_555
H49_2 C48_2 1_555 1_555
H51_2 C50_2 1_555 1_555
C53_2 C48_2 1_555 1_555
C55_2 C50_2 1_555 1_555
H54_2 C53_2 1_555 1_555
H56_2 C55_2 1_555 1_555
H59_2 C53_2 1_555 1_555
H61_2 C55_2 1_555 1_555
H64_2 C53_2 1_555 1_555
H66_2 C55_2 1_555 1_555
C58_2 C48_2 1_555 1_555
C60_2 C50_2 1_555 1_555
O38_2 Cu6_2 1_555 1_555
O41_2 Cu9_2 1_555 1_555
O43_2 Cu6_2 1_555 1_555
O46_2 Cu9_2 1_555 1_555
O48_2 Cu15_2 1_555 1_555
O51_2 C35_2 1_555 1_555
O56_2 Cu14_2 1_555 1_555
O59_2 Dy3_2 1_555 1_555
O61_2 Dy6_2 1_555 1_555
O64_2 C58_2 1_555 1_555
O66_2 C60_2 1_555 1_555
O68_2 Dy3_2 1_555 1_555
O71_2 Dy6_2 1_555 1_555
O75_2 Na10_2 1_555 1_555
O81 Dy3_2 1_555 1_555
O81_2 Dy6_2 1_555 1_555
O83_2 Cu3_2 1_555 1_555
O84_2 Dy3_2 1_555 1_555
O96_2 Cu3_2 1_555 1_555
O96 Dy3_2 1_555 1_555
O98_2 Dy3_2 1_555 1_555
O102_2 Dy6_2 1_555 1_555
O107_2 Na10_2 1_555 1_555
O108_4 Na12_2 1_555 1_555
O112_2 Na16_2 1_555 1_555
O117_2 Na10_2 1_555 1_555
O122_2 Na10_2 1_555 1_555
O124_2 Dy3_2 1_555 1_555
O127_2 Dy6_2 1_555 1_555
O131_2 Na10_2 1_555 1_555
O133_2 Dy3_2 1_555 1_555
O136_2 Dy6_2 1_555 1_555
O140_2 Na16_2 1_555 1_555
O142_2 Cu6_2 1_555 1_555
O145_2 Cu9_2 1_555 1_555
Cu1_2 O15_2 1_555 1_555
Cu2_2 O13_2 1_555 1_555
Cu2_2 O15_2 1_555 1_555
Cu2_2 O26_2 1_555 1_555
Cu3_2 O17_2 1_555 1_555
Cu3_2 O19_2 1_555 1_555
Cu27_2 O81_3 1_555 1_555
Cu27_2 O19_2 1_555 1_555
Na1_2 O24_2 1_555 1_555
C1_2 O9_2 1_555 1_555
C3_2 C4_2 1_555 1_555
C5_2 O10_2 1_555 1_555
C10_2 O13_2 1_555 1_555
O96_3 Cu15_2 1_555 1_555
O20_4 Na12_2 1_555 1_555
O23_4 Na12_2 1_555 1_555
O25_2 Na12_2 1_555 1_555
Dy6_2 O83_2 1_555 1_555
Dy6_2 O96_2 1_555 1_555
Cu6_2 O68_2 1_555 1_555
Cu9_2 O71_2 1_555 1_555
Cu12_2 O59_2 1_555 1_555
Cu12_2 O68_2 1_555 1_555
Cu12_2 O142_2 1_555 1_555
Cu14_2 O61_2 1_555 1_555
Cu14_2 O71_2 1_555 1_555
Cu14_2 O145_2 1_555 1_555
Cu15_2 O84_2 1_555 1_555
Cu15_2 O98_2 1_555 1_555
Cu17_2 O83_2 1_555 1_555
Cu17_2 O84_2 1_555 1_555
Cu17_2 O96 1_555 1_555
Cu17_2 O102_2 1_555 1_555
Cu27_3 O81 1_555 1_555
Cu27_3 O98_2 1_555 1_555
Cu27 O81_2 1_555 1_555
Cu27 O102_2 1_555 1_555
Na5_2 O124_2 1_555 1_555
Na11_2 O127_2 1_555 1_555
Na16_2 O75_2 1_555 1_555
Na16_2 O107_2 1_555 1_555
Na16_2 O122_2 1_555 1_555
Na17_2 O133_2 1_555 1_555
Na20_2 O136_2 1_555 1_555
C12_2 O38_2 1_555 1_555
C15_2 O41_2 1_555 1_555
C22_2 C27_2 1_555 1_555
C25_2 C30_2 1_555 1_555
C32_2 O43_2 1_555 1_555
C32_2 O48_2 1_555 1_555
C35_2 O46_2 1_555 1_555
C37_4 O33_4 1_555 1_555
C37_4 O53_4 1_555 1_555
C40_2 O56_2 1_555 1_555
C58_2 O59_2 1_555 1_555
C60_2 O61_2 1_555 1_555
N4_2 H67_2 1_555 1_555
C4_2 H68_2 1_555 1_555
N3_2 H69_2 1_555 1_555
O22_4 H72 1_555 1_555
N6_2 H80_2 1_555 1_555
N9_2 H81_2 1_555 1_555
N12_2 H82_2 1_555 1_555
N14_2 H83_2 1_555 1_555
C30_2 H85_2 1_555 1_555
C27_2 H87_2 1_555 1_555
Na2_2 O8_2 1_555 1_555
C6_2 C7_2 1_555 1_555
C7_2 H6_2 1_555 1_555
H7_2 C7_2 1_555 1_555
O8_2 C6_2 1_555 1_555
O21_2 Na2_2 1_555 1_555
Dy2_4 O42_4 1_555 1_555
Cu5_4 N5_4 1_555 1_555
Cu11_4 N11_4 1_555 1_555
Cu16_2 O47_4 1_555 1_555
Cu20_3 O85_3 1_555 1_555
Cu23_4 O63_4 1_555 1_555
Cu27_4 O78_4 1_555 1_555
N5_4 C16_4 1_555 1_555
C11_4 C16_4 1_555 1_555
C16_4 H12_4 1_555 1_555
H17_4 C16_4 1_555 1_555
C21_4 H22_4 1_555 1_555
H27_4 C21_4 1_555 1_555
H32_4 C21_4 1_555 1_555
C26_4 N5_4 1_555 1_555
C31_4 C26_4 1_555 1_555
C47_4 N11_4 1_555 1_555
H48_4 C47_4 1_555 1_555
C52_4 C47_4 1_555 1_555
H53_4 C52_4 1_555 1_555
H58_4 C52_4 1_555 1_555
H63_4 C52_4 1_555 1_555
C57_4 C47_4 1_555 1_555
O37_4 Cu5_4 1_555 1_555
O42_4 Cu5_4 1_555 1_555
O47_4 C31_4 1_555 1_555
O58_4 Dy2_4 1_555 1_555
O63_4 C57_4 1_555 1_555
O67_2 Na2_2 1_555 1_555
O78_4 Dy2_4 1_555 1_555
O81_4 Cu23_4 1_555 1_555
O85_3 Dy2_4 1_555 1_555
O88_2 Cu16_2 1_555 1_555
O92_3 Dy2_4 1_555 1_555
O95_2 Cu16_2 1_555 1_555
O96_4 Cu23_4 1_555 1_555
O100_4 Dy2_4 1_555 1_555
O103_2 Na2_2 1_555 1_555
O113_2 Na3_2 1_555 1_555
O118_2 Na2_2 1_555 1_555
O123_2 Dy2_4 1_555 1_555
O132_2 Na2_2 1_555 1_555
O141_4 Cu5_4 1_555 1_555
C6_2 O12_2 1_555 1_555
Dy2_4 O67_2 1_555 1_555
Dy2_4 O132_2 1_555 1_555
Cu5_4 O67_2 1_555 1_555
Cu11_4 O58_4 1_555 1_555
Cu11_4 O67_2 1_555 1_555
Cu11_4 O141_4 1_555 1_555
Cu16_2 O85_3 1_555 1_555
Cu16_2 O100_4 1_555 1_555
Cu20_3 O92_3 1_555 1_555
Cu23_4 O78_4 1_555 1_555
Cu23_4 O100_4 1_555 1_555
Cu27_4 O92_3 1_555 1_555
Na3_2 O67_2 1_555 1_555
Na3_2 O103_2 1_555 1_555
Na3_2 O118_2 1_555 1_555
Na3_2 O123_2 1_555 1_555
C11_4 O27_4 1_555 1_555
C11_4 O37_4 1_555 1_555
C21_4 C26_4 1_555 1_555
C31_4 O42_4 1_555 1_555
C57_4 O58_4 1_555 1_555
N5_4 H74_4 1_555 1_555
N11_4 H75_4 1_555 1_555
C26_4 H84_4 1_555 1_555
O113_2 H106 1_555 1_555
Dy2_5 O42_5 1_555 1_555
Cu5_5 N5_5 1_555 1_555
Cu11_5 N11_5 1_555 1_555
Cu20_3 O47_5 1_555 1_555
Cu20_4 O85_4 1_555 1_555
Cu23_5 O63_5 1_555 1_555
Cu27_5 O78_5 1_555 1_555
N5_5 C16_5 1_555 1_555
C11_5 C16_5 1_555 1_555
C16_5 H12_5 1_555 1_555
H17_5 C16_5 1_555 1_555
C21_5 H22_5 1_555 1_555
H27_5 C21_5 1_555 1_555
H32_5 C21_5 1_555 1_555
C26_5 N5_5 1_555 1_555
C31_5 C26_5 1_555 1_555
C47_5 N11_5 1_555 1_555
H48_5 C47_5 1_555 1_555
C52_5 C47_5 1_555 1_555
H53_5 C52_5 1_555 1_555
H58_5 C52_5 1_555 1_555
H63_5 C52_5 1_555 1_555
C57_5 C47_5 1_555 1_555
O37_5 Cu5_5 1_555 1_555
O42_5 Cu5_5 1_555 1_555
O47_5 C31_5 1_555 1_555
O58_5 Dy2_5 1_555 1_555
O63_5 C57_5 1_555 1_555
O78_5 Dy2_5 1_555 1_555
O81_5 Cu23_5 1_555 1_555
O85_4 Dy2_5 1_555 1_555
O92_4 Dy2_5 1_555 1_555
O96_5 Cu23_5 1_555 1_555
O100_5 Dy2_5 1_555 1_555
O128_2 Dy2_5 1_555 1_555
O141_5 Cu5_5 1_555 1_555
Dy2_5 O72_2 1_555 1_555
Dy2_5 O138_2 1_555 1_555
Cu5_5 O72_2 1_555 1_555
Cu11_5 O58_5 1_555 1_555
Cu11_5 O72_2 1_555 1_555
Cu11_5 O141_5 1_555 1_555
Cu20_3 O85_4 1_555 1_555
Cu20_3 O100_5 1_555 1_555
Cu20_4 O92_4 1_555 1_555
Cu23_5 O78_5 1_555 1_555
Cu23_5 O100_5 1_555 1_555
Cu27_5 O92_4 1_555 1_555
C11_5 O27_5 1_555 1_555
C11_5 O37_5 1_555 1_555
C21_5 C26_5 1_555 1_555
C31_5 O42_5 1_555 1_555
C57_5 O58_5 1_555 1_555
N5_5 H74_5 1_555 1_555
N11_5 H75_5 1_555 1_555
C26_5 H84_5 1_555 1_555
O20_5 Na5_2 1_555 1_555
O22_5 Na5_2 1_555 1_555
O23_5 Na5_2 1_555 1_555
C37_5 C42_5 1_555 1_555
C42_5 H38_5 1_555 1_555
H43_5 C42_5 1_555 1_555
O33_5 Na17_2 1_555 1_555
O108_5 Na17_2 1_555 1_555
O20_5 Na17_2 1_555 1_555
O23_5 Na17_2 1_555 1_555
C37_5 O33_5 1_555 1_555
C37_5 O53_5 1_555 1_555
O22_5 H72_2 1_555 1_555
O20_6 Na11_2 1_555 1_555
O22_6 Na11_2 1_555 1_555
O23_6 Na11_2 1_555 1_555
Dy2_6 O42_6 1_555 1_555
Cu5_6 N5_6 1_555 1_555
Cu11_6 N11_6 1_555 1_555
Cu20_4 O47_6 1_555 1_555
Cu23_6 O63_6 1_555 1_555
Cu27_6 O78_6 1_555 1_555
N5_6 C16_6 1_555 1_555
N11_6 C42_6 1_555 1_555
C11_6 C16_6 1_555 1_555
C16_6 H12_6 1_555 1_555
H17_6 C16_6 1_555 1_555
O27_6 Na11_2 1_555 1_555
C21_6 H22_6 1_555 1_555
H27_6 C21_6 1_555 1_555
H32_6 C21_6 1_555 1_555
C26_6 N5_6 1_555 1_555
C31_6 C26_6 1_555 1_555
C37_6 C42_6 1_555 1_555
C42_6 H38_6 1_555 1_555
H43_6 C42_6 1_555 1_555
O33_6 Na20_2 1_555 1_555
C47_6 N11_6 1_555 1_555
H48_6 C47_6 1_555 1_555
C52_6 C47_6 1_555 1_555
H53_6 C52_6 1_555 1_555
H58_6 C52_6 1_555 1_555
H63_6 C52_6 1_555 1_555
C57_6 C47_6 1_555 1_555
O37_6 Cu5_6 1_555 1_555
O42_6 Cu5_6 1_555 1_555
O47_6 C31_6 1_555 1_555
O53_6 Cu11_6 1_555 1_555
O58_6 Dy2_6 1_555 1_555
O63_6 C57_6 1_555 1_555
O78_6 Dy2_6 1_555 1_555
O81_6 Cu23_6 1_555 1_555
O88_2 Dy2_6 1_555 1_555
O95_2 Dy2_6 1_555 1_555
O96_6 Cu23_6 1_555 1_555
O100_6 Dy2_6 1_555 1_555
O108_6 Na20_2 1_555 1_555
O131_2 Dy2_6 1_555 1_555
O141_6 Cu5_6 1_555 1_555
O20_6 Na20_2 1_555 1_555
O23_6 Na20_2 1_555 1_555
Dy2_6 O75_2 1_555 1_555
Dy2_6 O140_2 1_555 1_555
Cu5_6 O75_2 1_555 1_555
Cu11_6 O58_6 1_555 1_555
Cu11_6 O75_2 1_555 1_555
Cu11_6 O141_6 1_555 1_555
Cu20_4 O88_2 1_555 1_555
Cu20_4 O100_6 1_555 1_555
Cu23_6 O78_6 1_555 1_555
Cu23_6 O100_6 1_555 1_555
Cu27_6 O95_2 1_555 1_555
C11_6 O27_6 1_555 1_555
C11_6 O37_6 1_555 1_555
C21_6 C26_6 1_555 1_555
C31_6 O42_6 1_555 1_555
C37_6 O33_6 1_555 1_555
C37_6 O53_6 1_555 1_555
C57_6 O58_6 1_555 1_555
N5_6 H74_6 1_555 1_555
N11_6 H75_6 1_555 1_555
C26_6 H84_6 1_555 1_555
Dy1_3 O10_3 1_555 1_555
Cu1_3 N3_3 1_555 1_555
Cu2_3 N4_3 1_555 1_555
Cu3_3 O11_3 1_555 1_555
Cu27_5 O14_3 1_555 1_555
Na18_2 O8_3 1_555 1_555
N3_3 C2_3 1_555 1_555
N4_3 C7_3 1_555 1_555
C1_3 C2_3 1_555 1_555
C2_3 H1_3 1_555 1_555
H2_3 C2_3 1_555 1_555
O7_3 C1_3 1_555 1_555
C3_3 H3_3 1_555 1_555
H4_3 C3_3 1_555 1_555
H5_3 C3_3 1_555 1_555
C4_3 N3_3 1_555 1_555
C5_3 C4_3 1_555 1_555
C6_3 C7_3 1_555 1_555
C7_3 H6_3 1_555 1_555
H7_3 C7_3 1_555 1_555
O8_3 C6_3 1_555 1_555
C8_3 N4_3 1_555 1_555
H8_3 C8_3 1_555 1_555
C9_3 C8_3 1_555 1_555
H9_3 C9_3 1_555 1_555
H10_3 C9_3 1_555 1_555
H11_3 C9_3 1_555 1_555
C10_3 C8_3 1_555 1_555
O9_3 Cu1_3 1_555 1_555
O10_3 Cu1_3 1_555 1_555
O11_3 C5_3 1_555 1_555
O12_3 Cu2_3 1_555 1_555
O13_3 Dy1_3 1_555 1_555
O14_3 C10_3 1_555 1_555
O73_2 Dy1_3 1_555 1_555
O81_6 Dy1_3 1_555 1_555
O17_3 Dy1_3 1_555 1_555
O96_6 Dy1_3 1_555 1_555
O19_3 Dy1_3 1_555 1_555
O21_3 Na18_2 1_555 1_555
O129_2 Dy1_3 1_555 1_555
O137_2 Dy1_3 1_555 1_555
O26_3 Cu1_3 1_555 1_555
Dy3_3 O43_3 1_555 1_555
Dy6_3 O46_3 1_555 1_555
Cu6_3 N6_3 1_555 1_555
Cu9_3 N9_3 1_555 1_555
Cu12_3 N12_3 1_555 1_555
Cu14_3 N14_3 1_555 1_555
Cu15_3 O17_3 1_555 1_555
Cu17_3 O51_3 1_555 1_555
Cu27_6 O64_3 1_555 1_555
Cu27_4 O66_3 1_555 1_555
Na6_2 O7_3 1_555 1_555
Na7 O28_3 1_555 1_555
Na6 O31_3 1_555 1_555
Na19 O34_3 1_555 1_555
Na18 O36_3 1_555 1_555
N6_3 C17_3 1_555 1_555
N9_3 C20_3 1_555 1_555
N12_3 C43_3 1_555 1_555
N14_3 C45_3 1_555 1_555
C12_3 C17_3 1_555 1_555
C15_3 C20_3 1_555 1_555
C17_3 H13_3 1_555 1_555
C20_3 H16_3 1_555 1_555
H18_3 C17_3 1_555 1_555
H21_3 C20_3 1_555 1_555
O28_3 C12_3 1_555 1_555
O31_3 C15_3 1_555 1_555
C22_3 H23_3 1_555 1_555
C25_3 H26_3 1_555 1_555
H28_3 C22_3 1_555 1_555
H31_3 C25_3 1_555 1_555
H33_3 C22_3 1_555 1_555
H36_3 C25_3 1_555 1_555
C27_3 N6_3 1_555 1_555
C30_3 N9_3 1_555 1_555
C32_3 C27_3 1_555 1_555
C35_3 C30_3 1_555 1_555
C38_3 C43_3 1_555 1_555
C40_3 C45_3 1_555 1_555
C43_3 H39_3 1_555 1_555
C45_3 H41_3 1_555 1_555
H44_3 C43_3 1_555 1_555
H46_3 C45_3 1_555 1_555
O34_3 C38_3 1_555 1_555
O36_3 C40_3 1_555 1_555
C48_3 N12_3 1_555 1_555
C50_3 N14_3 1_555 1_555
H49_3 C48_3 1_555 1_555
H51_3 C50_3 1_555 1_555
C53_3 C48_3 1_555 1_555
C55_3 C50_3 1_555 1_555
H54_3 C53_3 1_555 1_555
H56_3 C55_3 1_555 1_555
H59_3 C53_3 1_555 1_555
H61_3 C55_3 1_555 1_555
H64_3 C53_3 1_555 1_555
H66_3 C55_3 1_555 1_555
C58_3 C48_3 1_555 1_555
C60_3 C50_3 1_555 1_555
O38_3 Cu6_3 1_555 1_555
O41_3 Cu9_3 1_555 1_555
O43_3 Cu6_3 1_555 1_555
O46_3 Cu9_3 1_555 1_555
O48_3 Cu15_3 1_555 1_555
O51_3 C35_3 1_555 1_555
O54_3 Cu12_3 1_555 1_555
O56_3 Cu14_3 1_555 1_555
O59_3 Dy3_3 1_555 1_555
O61_3 Dy6_3 1_555 1_555
O64_3 C58_3 1_555 1_555
O66_3 C60_3 1_555 1_555
O74 Dy3_3 1_555 1_555
O73 Dy6_3 1_555 1_555
O81_4 Dy3_3 1_555 1_555
O81_5 Dy6_3 1_555 1_555
O83_3 Cu3_3 1_555 1_555
O84_3 Dy3_3 1_555 1_555
O96_5 Cu3_3 1_555 1_555
O96_4 Dy3_3 1_555 1_555
O98_3 Dy3_3 1_555 1_555
O102_3 Dy6_3 1_555 1_555
O104_3 Na7 1_555 1_555
O110_3 Na19 1_555 1_555
O112_3 Na18 1_555 1_555
O113_3 Na6_2 1_555 1_555
O114_3 Na7 1_555 1_555
O117_3 Na6 1_555 1_555
O118_3 Na18_2 1_555 1_555
O119_3 Na7 1_555 1_555
O122_3 Na6 1_555 1_555
O130 Dy3_3 1_555 1_555
O129 Dy6_3 1_555 1_555
O139 Dy3_3 1_555 1_555
O137 Dy6_3 1_555 1_555
O142_3 Cu6_3 1_555 1_555
O145_3 Cu9_3 1_555 1_555
Cu1_3 O73_2 1_555 1_555
Cu2_3 O13_3 1_555 1_555
Cu2_3 O73_2 1_555 1_555
Cu2_3 O26_3 1_555 1_555
Cu3_3 O17_3 1_555 1_555
Cu3_3 O19_3 1_555 1_555
Cu27_5 O81_6 1_555 1_555
Cu27_5 O19_3 1_555 1_555
C1_3 O9_3 1_555 1_555
C3_3 C4_3 1_555 1_555
C5_3 O10_3 1_555 1_555
C6_3 O12_3 1_555 1_555
C10_3 O13_3 1_555 1_555
O96_6 Cu15_3 1_555 1_555
Dy6_3 O83_3 1_555 1_555
Dy6_3 O96_5 1_555 1_555
Cu6_3 O74 1_555 1_555
Cu9_3 O73 1_555 1_555
Cu12_3 O59_3 1_555 1_555
Cu12_3 O74 1_555 1_555
Cu12_3 O142_3 1_555 1_555
Cu14_3 O61_3 1_555 1_555
Cu14_3 O73 1_555 1_555
Cu14_3 O145_3 1_555 1_555
Cu15_3 O84_3 1_555 1_555
Cu15_3 O98_3 1_555 1_555
Cu17_3 O83_3 1_555 1_555
Cu17_3 O84_3 1_555 1_555
Cu17_3 O96_4 1_555 1_555
Cu17_3 O102_3 1_555 1_555
Cu27_6 O81_4 1_555 1_555
Cu27_6 O98_3 1_555 1_555
Cu27_4 O81_5 1_555 1_555
Cu27_4 O102_3 1_555 1_555
Na6_2 O118_3 1_555 1_555
Na19 O104_3 1_555 1_555
Na19 O119_3 1_555 1_555
Na18 O122_3 1_555 1_555
C12_3 O38_3 1_555 1_555
C15_3 O41_3 1_555 1_555
C22_3 C27_3 1_555 1_555
C25_3 C30_3 1_555 1_555
C32_3 O43_3 1_555 1_555
C32_3 O48_3 1_555 1_555
C35_3 O46_3 1_555 1_555
C38_3 O54_3 1_555 1_555
C40_3 O56_3 1_555 1_555
C58_3 O59_3 1_555 1_555
C60_3 O61_3 1_555 1_555
N4_3 H67_3 1_555 1_555
C4_3 H68_3 1_555 1_555
N3_3 H69_3 1_555 1_555
N6_3 H80_3 1_555 1_555
N9_3 H81_3 1_555 1_555
N12_3 H82_3 1_555 1_555
N14_3 H83_3 1_555 1_555
C30_3 H85_3 1_555 1_555
C27_3 H87_3 1_555 1_555
O22_5 H100 1_555 1_555
O22_4 H102 1_555 1_555
O113_2 H72_3 1_555 1_555
O114_2 H72_4 1_555 1_555

#END
