
###############################################################################
#
# This file contains modified crystal structure data generated from the
# MOF subset of the Cambridge Structural Database (CSD) v543 
# hosted by the Cambridge Crystallographic Data Centre (CCDC).
#
# This work is licensed under the Creative Commons
# Attribution-NonCommercial-ShareAlike 4.0 International License.
# To view a copy of this license, visit
# http://creativecommons.org/licenses/by-nc-sa/4.0/
# or send a letter to
# Creative Commons, PO Box 1866, Mountain View, CA 94042, USA.
#
# CIF created using the CSD Python API on 29 September 2022
# The structure has been converted into the P1 space group
# The structure has a 3D framework
# The original CSD entry OZEMIQ is in the rhombohedral crystal system
# The framework has been calculated to contain at least 10.0% void space
# The void calculation uses a probe of radius 1.32A, grid spacing 0.4
# The framework is charged, counterions have been retained in the structure
# H atom positions have been added when not included in the experimental data
# Generated hydrogen atom positions removed from atoms on special positions
#
###############################################################################

data_OZEMIQ
_chemical_formula_moiety         '(C180 H432 Cl10 Cu70 Gd18 N66 Na36 O431 16+)n'
_symmetry_cell_setting           triclinic
_symmetry_space_group_name_H-M   'P 1'
_symmetry_Int_Tables_number      1
_space_group_name_Hall           'P 1'
loop_
_symmetry_equiv_pos_site_id
_symmetry_equiv_pos_as_xyz
1 x,y,z
_cell_length_a                   29.5532(4)
_cell_length_b                   29.5532(4)
_cell_length_c                   36.1951(7)
_cell_angle_alpha                90
_cell_angle_beta                 90
_cell_angle_gamma                120
_cell_volume                     27377.2
loop_
_atom_site_label
_atom_site_type_symbol
_atom_site_fract_x
_atom_site_fract_y
_atom_site_fract_z
N1 N 0.7729(5) 0.8894(4) 0.0601(4)
O1 O 0.7505(5) 0.8683(5) 0.0189(2)
O2 O 0.7766(3) 0.8476(4) 0.0756(4)
O3 O 0.7802(3) 0.9398(4) 0.0816(3)
N1_2 N 0.1106(4) 0.8835(6) 0.0601(4)
O1_2 O 0.1317(5) 0.8822(7) 0.0189(2)
O2_2 O 0.1524(4) 0.9290(5) 0.0756(4)
O3_2 O 0.0602(4) 0.8404(5) 0.0816(3)
N1_3 N 0.1165(6) 0.2271(5) 0.0601(4)
O1_3 O 0.1178(7) 0.2495(5) 0.0189(2)
O2_3 O 0.0710(5) 0.2234(3) 0.0756(4)
O3_3 O 0.1596(5) 0.2198(3) 0.0816(3)
N1_4 N 0.4396(5) 0.2227(4) 0.3934(4)
O1_4 O 0.4172(5) 0.2016(5) 0.3522(2)
O2_4 O 0.4433(3) 0.1809(4) 0.4089(4)
O3_4 O 0.4469(3) 0.2731(4) 0.4149(3)
N1_5 N 0.7773(4) 0.2168(6) 0.3934(4)
O1_5 O 0.7984(5) 0.2155(7) 0.3522(2)
O2_5 O 0.8191(4) 0.2623(5) 0.4089(4)
O3_5 O 0.7269(4) 0.1737(5) 0.4149(3)
N1_6 N 0.7832(6) 0.5604(5) 0.3934(4)
O1_6 O 0.7845(7) 0.5828(5) 0.3522(2)
O2_6 O 0.7377(5) 0.5567(3) 0.4089(4)
O3_6 O 0.8263(5) 0.5531(3) 0.4149(3)
N1_7 N 0.1062(5) 0.5561(4) 0.7268(4)
O1_7 O 0.0838(5) 0.5350(5) 0.6856(2)
O2_7 O 0.1099(3) 0.5143(4) 0.7423(4)
O3_7 O 0.1135(3) 0.6065(4) 0.7483(3)
N1_8 N 0.4439(4) 0.5502(6) 0.7268(4)
O1_8 O 0.4650(5) 0.5489(7) 0.6856(2)
O2_8 O 0.4857(4) 0.5957(5) 0.7423(4)
O3_8 O 0.3935(4) 0.5071(5) 0.7483(3)
N1_9 N 0.4498(6) 0.8938(5) 0.7268(4)
O1_9 O 0.4511(7) 0.9162(5) 0.6856(2)
O2_9 O 0.4043(5) 0.8901(3) 0.7423(4)
O3_9 O 0.4929(5) 0.8865(3) 0.7483(3)
N1_10 N 0.2271(5) 0.1106(4) 0.9399(4)
O1_10 O 0.2495(5) 0.1317(5) 0.9811(2)
O2_10 O 0.2234(3) 0.1524(4) 0.9244(4)
O3_10 O 0.2198(3) 0.0602(4) 0.9184(3)
N1_11 N 0.8894(4) 0.1165(6) 0.9399(4)
O1_11 O 0.8683(5) 0.1178(7) 0.9811(2)
O2_11 O 0.8476(4) 0.0710(5) 0.9244(4)
O3_11 O 0.9398(4) 0.1596(5) 0.9184(3)
N1_12 N 0.8835(6) 0.7729(5) 0.9399(4)
O1_12 O 0.8822(7) 0.7505(5) 0.9811(2)
O2_12 O 0.9290(5) 0.7766(3) 0.9244(4)
O3_12 O 0.8404(5) 0.7802(3) 0.9184(3)
N1_13 N 0.5604(5) 0.7773(4) 0.6066(4)
O1_13 O 0.5828(5) 0.7984(5) 0.6478(2)
O2_13 O 0.5567(3) 0.8191(4) 0.5911(4)
O3_13 O 0.5531(3) 0.7269(4) 0.5851(3)
N1_14 N 0.2227(4) 0.7832(6) 0.6066(4)
O1_14 O 0.2016(5) 0.7845(7) 0.6478(2)
O2_14 O 0.1809(4) 0.7377(5) 0.5911(4)
O3_14 O 0.2731(4) 0.8263(5) 0.5851(3)
N1_15 N 0.2168(6) 0.4396(5) 0.6066(4)
O1_15 O 0.2155(7) 0.4172(5) 0.6478(2)
O2_15 O 0.2623(5) 0.4433(3) 0.5911(4)
O3_15 O 0.1737(5) 0.4469(3) 0.5851(3)
N1_16 N 0.8938(5) 0.4439(4) 0.2732(4)
O1_16 O 0.9162(5) 0.4650(5) 0.3144(2)
O2_16 O 0.8901(3) 0.4857(4) 0.2577(4)
O3_16 O 0.8865(3) 0.3935(4) 0.2517(3)
N1_17 N 0.5561(4) 0.4498(6) 0.2732(4)
O1_17 O 0.5350(5) 0.4511(7) 0.3144(2)
O2_17 O 0.5143(4) 0.4043(5) 0.2577(4)
O3_17 O 0.6065(4) 0.4929(5) 0.2517(3)
N1_18 N 0.5502(6) 0.1062(5) 0.2732(4)
O1_18 O 0.5489(7) 0.0838(5) 0.3144(2)
O2_18 O 0.5957(5) 0.1099(3) 0.2577(4)
O3_18 O 0.5071(5) 0.1135(3) 0.2517(3)
N2 N 0.0000 -0.0000 0.1733(6)
O5 O 0.0595(5) 0.0239(8) 0.1733(3)
N2_2 N 0.0000 1.0000 0.1733(6)
N2_3 N 1.0000 -0.0000 0.1733(6)
O6 O 0.9761(8) 0.0356(6) 0.1733(3)
N2_4 N 1.0000 1.0000 0.1733(6)
O4 O 0.9644(6) 0.9405(5) 0.1733(3)
N2_5 N 0.6667 0.3333 0.5066(6)
O4_2 O 0.6311(6) 0.2738(5) 0.5066(3)
O5_2 O 0.7262(5) 0.3572(8) 0.5066(3)
O6_2 O 0.6428(8) 0.3689(6) 0.5066(3)
N2_6 N 0.3333 0.6667 0.8400(6)
O4_3 O 0.2977(6) 0.6072(5) 0.8400(3)
O5_3 O 0.3928(5) 0.6906(8) 0.8400(3)
O6_3 O 0.3094(8) 0.7023(6) 0.8400(3)
N2_7 N 0.0000 0.0000 0.8267(6)
O4_4 O 0.0356(6) 0.0595(5) 0.8267(3)
N2_8 N 0.0000 1.0000 0.8267(6)
O6_4 O 0.0239(8) 0.9644(6) 0.8267(3)
N2_9 N 1.0000 0.0000 0.8267(6)
N2_10 N 1.0000 1.0000 0.8267(6)
O5_4 O 0.9405(5) 0.9761(8) 0.8267(3)
N2_11 N 0.3333 0.6667 0.4934(6)
O4_5 O 0.3689(6) 0.7262(5) 0.4934(3)
O5_5 O 0.2738(5) 0.6428(8) 0.4934(3)
O6_5 O 0.3572(8) 0.6311(6) 0.4934(3)
N2_12 N 0.6667 0.3333 0.1600(6)
O4_6 O 0.7023(6) 0.3928(5) 0.1600(3)
O5_6 O 0.6072(5) 0.3094(8) 0.1600(3)
O6_6 O 0.6906(8) 0.2977(6) 0.1600(3)
Gd2 Gd 0.157557(11) 0.077663(16) 0.078722(8)
Cu10 Cu 0.11409(2) 0.11413(3) 0.000190(18)
Cu14 Cu 0.03821(3) 0.07614(2) 0.075850(19)
Cu21 Cu 0.28212(5) 0.08613(7) 0.08604(4)
Cu24 Cu 0.20920(5) 0.04858(7) 0.15882(4)
Na4 Na 0.38409(9) 0.13648(13) 0.24710(7)
Na8 Na 0.28258(9) 0.19685(13) 0.08623(7)
Na14 Na 0.45732(9) 0.17360(13) 0.17324(7)
Na17 Na 0.20935(9) 0.15973(13) 0.16009(7)
N9 N 0.0164(5) 0.1907(4) 0.1914(2)
H19 H 0.0339 0.2225 0.1789
N12 N 0.3116(4) 0.0553(6) 0.0528(3)
H22 H 0.3038 0.0264 0.0674
C11 C 0.2538(5) 0.0409(9) 0.2223(4)
C20 C 0.0141(12) 0.2137(10) 0.2266(3)
H29 H 0.0438 0.2497 0.2295
H34 H 0.0135 0.1922 0.2478
C25 C 0.1005(11) 0.1923(8) 0.1895(6)
H39 H 0.1074 0.2094 0.2137
H44 H 0.1234 0.2176 0.1710
H49 H 0.1073 0.1631 0.1907
C30 C 0.0493(10) 0.1739(8) 0.1800(6)
H54 H 0.0341 0.1416 0.1956
C35 C 0.0310(6) 0.1450(5) 0.1413(3)
C38 C 0.3835(5) 0.1095(9) 0.0928(5)
C43 C 0.3682(6) 0.0812(10) 0.0571(6)
H57 H 0.3854 0.1061 0.0365
H62 H 0.3796 0.0549 0.0564
C48 C 0.2805(7) 0.0290(10) 0.0248(4)
H67 H 0.2978 0.0587 0.0070
H84 H 0.0492 0.2932 0.0032
C58 C 0.2282(4) 0.0292(6) 0.0254(3)
O27 O 0.2900(5) 0.0486(8) 0.2380(4)
O32 O 0.2658(3) 0.0719(4) 0.1942(2)
O37 O 0.14680(19) 0.01604(26) 0.12874(13)
O46 O 0.06250(25) 0.12794(19) 0.12805(14)
O49 O 0.4226(5) 0.1290(8) 0.1059(4)
O54 O 0.3497(3) 0.1179(4) 0.1122(2)
O59 O 0.22145(16) 0.05440(24) 0.05451(14)
O64 O 0.19438(19) 0.00292(26) 0.00062(13)
O68 O 0.2392(3) 0.1086(5) 0.1193(3)
O72 O 0.4275(3) 0.2247(5) 0.2140(3)
O78 O 0.14977(14) 0.07463(20) 0.01132(10)
O84 O 0.06483(14) 0.03245(20) 0.09590(11)
O92 O 0.10776(14) 0.11766(20) 0.05391(11)
O102 O 0.00981(20) 0.11697(14) 0.05360(11)
O104 O 0.4208(4) 0.0867(7) 0.2071(4)
O110 O 0.4919(4) 0.2385(6) 0.1360(3)
O114 O 0.3461(3) 0.1622(5) 0.2825(3)
O119 O 0.3736(5) 0.1378(9) 0.1885(4)
O124 O 0.22271(17) 0.16401(26) 0.05764(15)
O128 O 0.44396(17) 0.16932(26) 0.27569(15)
O133 O 0.14992(18) 0.12762(27) 0.12960(13)
O138 O 0.51675(18) 0.20571(27) 0.20373(13)
O143 O 0.2470(4) 0.0101(5) 0.1209(3)
Cu7 Cu 0.11413(3) 0.00004(4) 0.999810(18)
Cu18 Cu 0.07614(2) 0.03793(2) 0.924150(19)
C55 C 0.0150(15) 0.2871(7) 0.9949(6)
H74 H 0.0161 0.3206 0.9922
H79 H 0.0064 0.2690 0.9710
O82 O 0.07514(14) 0.14977(14) 0.98868(10)
O89 O 0.03238(14) 0.06483(14) 0.90410(11)
O94 O 0.11766(20) 0.00990(14) 0.94609(11)
O18 O 0.00990(14) 0.89224(14) 0.05391(11)
Cu5 Cu 0.00004(4) 0.88591(2) 0.000190(18)
Cu12 Cu 0.03793(2) 0.96179(3) 0.075850(19)
N5 N 0.1743(3) 0.9836(5) 0.1914(2)
H15 H 0.1886 0.9661 0.1789
C16 C 0.1996(6) 0.9859(12) 0.2266(3)
H25 H 0.2059 0.9562 0.2295
H30 H 0.1787 0.9865 0.2478
C21 C 0.0918(8) 0.8995(11) 0.1895(6)
H35 H 0.1020 0.8926 0.2137
H40 H 0.0942 0.8766 0.1710
H45 H 0.0558 0.8927 0.1907
C26 C 0.1246(6) 0.9507(10) 0.1800(6)
H50 H 0.1075 0.9659 0.1956
C31 C 0.1140(4) 0.9690(6) 0.1413(3)
H82 H 0.2440 0.9508 0.0032
O42 O 0.06544(17) 0.93750(25) 0.12805(14)
O99 O 0.10716(14) 0.99019(20) 0.05360(11)
O103 O 0.0008(6) 0.7541(4) 0.1262(4)
Gd4 Gd 0.077663(16) 0.920106(11) 0.921278(8)
Cu19 Cu 0.08613(7) 0.80401(5) 0.91396(4)
Cu26 Cu 0.04858(7) 0.83938(5) 0.84118(4)
Na5 Na 0.13648(13) 0.75239(9) 0.75290(7)
Na9 Na 0.19685(13) 0.91428(9) 0.91377(7)
Na13 Na 0.17360(13) 0.71628(10) 0.82676(7)
Na18 Na 0.15973(13) 0.95039(10) 0.83991(7)
N10 N 0.0553(6) 0.7437(5) 0.9472(3)
H20 H 0.0264 0.7226 0.9326
C13 C 0.0409(9) 0.7871(8) 0.7777(4)
C36 C 0.1095(9) 0.7260(8) 0.9072(5)
C41 C 0.0812(10) 0.7130(8) 0.9429(6)
H55 H 0.1061 0.7207 0.9635
H60 H 0.0549 0.6753 0.9436
C46 C 0.0290(10) 0.7485(7) 0.9752(4)
H65 H 0.0587 0.7609 0.9930
C53 C 0.2721(13) 0.9850(15) 0.9949(6)
H72 H 0.3045 0.9839 0.9922
H77 H 0.2626 0.9936 0.9710
C56 C 0.0292(6) 0.8010(4) 0.9746(3)
O29 O 0.0486(8) 0.7586(6) 0.7620(4)
O34 O 0.0719(4) 0.8061(3) 0.8058(2)
O39 O 0.01604(26) 0.86924(18) 0.87126(13)
O47 O 0.1290(8) 0.7064(6) 0.8941(4)
O52 O 0.1179(4) 0.7682(3) 0.8878(2)
O57 O 0.05440(24) 0.83295(18) 0.94549(14)
O62 O 0.00292(26) 0.80854(18) 0.99938(13)
O69 O 0.1086(5) 0.8694(4) 0.8807(3)
O73 O 0.2247(5) 0.7973(4) 0.7860(3)
O77 O 0.07463(20) 0.92486(14) 0.98868(10)
O86 O 0.03245(20) 0.96762(14) 0.90410(11)
O105 O 0.0867(7) 0.6659(6) 0.7929(4)
O109 O 0.2385(6) 0.7466(5) 0.8640(3)
O115 O 0.1622(5) 0.8161(4) 0.7175(3)
O120 O 0.1378(9) 0.7642(7) 0.8115(4)
O125 O 0.16401(26) 0.9413(2) 0.94236(15)
O129 O 0.16932(26) 0.7254(2) 0.72431(15)
O134 O 0.12762(27) 0.9777(2) 0.87040(13)
O137 O 0.20571(27) 0.6890(2) 0.79627(13)
O141 O 0.0101(5) 0.7631(3) 0.8791(3)
Gd6 Gd 0.922337(16) 0.079894(11) 0.078722(8)
Cu23 Cu 0.91387(7) 0.19599(5) 0.08604(4)
Cu28 Cu 0.95142(7) 0.16062(5) 0.15882(4)
Na7 Na 0.86352(13) 0.24761(9) 0.24710(7)
Na11 Na 0.80315(13) 0.08572(9) 0.08623(7)
Na16 Na 0.82640(13) 0.28372(10) 0.17324(7)
Na20 Na 0.84027(13) 0.04961(10) 0.16009(7)
N14 N 0.9447(6) 0.2563(5) 0.0528(3)
H24 H 0.9736 0.2774 0.0674
C15 C 0.9591(9) 0.2129(8) 0.2223(4)
C40 C 0.8905(9) 0.2740(8) 0.0928(5)
C45 C 0.9188(10) 0.2870(8) 0.0571(6)
H59 H 0.8939 0.2793 0.0365
H64 H 0.9451 0.3247 0.0564
C50 C 0.9710(10) 0.2515(7) 0.0248(4)
H69 H 0.9413 0.2391 0.0070
C54 C 0.7279(13) 0.0150(15) 0.0051(6)
H73 H 0.6955 0.0161 0.0078
H78 H 0.7374 0.0064 0.0290
C60 C 0.9708(6) 0.1990(4) 0.0254(3)
O31 O 0.9514(8) 0.2414(6) 0.2380(4)
O36 O 0.9281(4) 0.1939(3) 0.1942(2)
O41 O 0.98396(26) 0.13076(18) 0.12874(13)
O51 O 0.8710(8) 0.2936(6) 0.1059(4)
O56 O 0.8821(4) 0.2318(3) 0.1122(2)
O61 O 0.94560(24) 0.16705(18) 0.05451(14)
O66 O 0.99708(26) 0.19146(18) 0.00062(13)
O71 O 0.8914(5) 0.1306(4) 0.1193(3)
O75 O 0.7753(5) 0.2027(4) 0.2140(3)
O80 O 0.92537(20) 0.07514(14) 0.01132(10)
O83 O 0.96755(20) 0.03238(14) 0.09590(11)
O107 O 0.9133(7) 0.3341(6) 0.2071(4)
O112 O 0.7615(6) 0.2534(5) 0.1360(3)
O117 O 0.8378(5) 0.1839(4) 0.2825(3)
O122 O 0.8622(9) 0.2358(7) 0.1885(4)
O127 O 0.83599(26) 0.0587(2) 0.05764(15)
O131 O 0.83068(26) 0.2746(2) 0.27569(15)
O136 O 0.87238(27) 0.0223(2) 0.12960(13)
O140 O 0.79429(27) 0.3110(2) 0.20373(13)
O145 O 0.9899(5) 0.2369(3) 0.1209(3)
Cu9 Cu 0.99996(4) 0.11409(2) 0.999810(18)
Cu16 Cu 0.96207(2) 0.03821(3) 0.924150(19)
N8 N 0.8257(3) 0.0164(5) 0.8086(2)
H18 H 0.8114 0.0339 0.8211
C19 C 0.8004(6) 0.0141(12) 0.7734(3)
H28 H 0.7941 0.0438 0.7705
H33 H 0.8213 0.0135 0.7522
C24 C 0.9082(8) 0.1005(11) 0.8105(6)
H38 H 0.8980 0.1074 0.7863
H43 H 0.9058 0.1234 0.8290
H48 H 0.9442 0.1073 0.8093
C29 C 0.8754(6) 0.0493(10) 0.8200(6)
H53 H 0.8925 0.0341 0.8044
C34 C 0.8860(4) 0.0310(6) 0.8587(3)
H83 H 0.7560 0.0492 0.9968
O45 O 0.93456(17) 0.06250(25) 0.87195(14)
O97 O 0.99010(14) 0.10776(14) 0.94609(11)
O101 O 0.89284(14) 0.00981(20) 0.94640(11)
Gd1 Gd 0.920106(11) 0.842443(11) 0.078722(8)
Cu2 Cu 0.92386(2) 0.96207(2) 0.075850(19)
Cu3 Cu 0.80401(5) 0.71788(5) 0.08604(4)
Cu4 Cu 0.83938(5) 0.79080(5) 0.15882(4)
Na1 Na 0.75239(9) 0.61591(9) 0.24710(7)
Na2 Na 0.71628(10) 0.54268(9) 0.17324(7)
N3 N 0.8093(4) 0.8257(3) 0.1914(2)
H1 H 0.7775 0.8114 0.1789
N4 N 0.7437(5) 0.6884(4) 0.0528(3)
H2 H 0.7226 0.6962 0.0674
C1 C 0.7871(8) 0.7462(5) 0.2223(4)
C2 C 0.7863(10) 0.8004(6) 0.2266(3)
H3 H 0.7503 0.7941 0.2295
H4 H 0.8078 0.8213 0.2478
C3 C 0.8077(8) 0.9082(8) 0.1895(6)
H5 H 0.7906 0.8980 0.2137
H6 H 0.7824 0.9058 0.1710
H7 H 0.8369 0.9442 0.1907
C4 C 0.8261(8) 0.8754(6) 0.1800(6)
H8 H 0.8584 0.8925 0.1956
C5 C 0.8550(5) 0.8860(4) 0.1413(3)
C6 C 0.7260(8) 0.6165(5) 0.0928(5)
C7 C 0.7130(8) 0.6318(6) 0.0571(6)
H9 H 0.7207 0.6146 0.0365
H10 H 0.6753 0.6204 0.0564
C8 C 0.7485(7) 0.7195(7) 0.0248(4)
H11 H 0.7609 0.7022 0.0070
H14 H 0.7068 0.7560 0.0032
C10 C 0.8010(4) 0.7718(4) 0.0254(3)
O7 O 0.7586(6) 0.7100(5) 0.2380(4)
O8 O 0.8061(3) 0.7342(3) 0.1942(2)
O9 O 0.86924(18) 0.85320(19) 0.12874(13)
O10 O 0.87206(19) 0.93456(17) 0.12805(14)
O11 O 0.7064(6) 0.5774(5) 0.1059(4)
O12 O 0.7682(3) 0.6503(3) 0.1122(2)
O13 O 0.83295(18) 0.77855(16) 0.05451(14)
O14 O 0.80854(18) 0.80562(19) 0.00062(13)
O15 O 0.8694(4) 0.7608(3) 0.1193(3)
O16 O 0.92486(14) 0.85023(14) 0.01132(10)
O17 O 0.96762(14) 0.93517(14) 0.09590(11)
O19 O 0.88303(14) 0.89284(14) 0.05360(11)
O20 O 0.6659(6) 0.5792(4) 0.2071(4)
O21 O 0.7466(5) 0.5081(4) 0.1360(3)
O22 O 0.8161(4) 0.6539(3) 0.2825(3)
O23 O 0.7642(7) 0.6264(5) 0.1885(4)
O24 O 0.9413(2) 0.77729(17) 0.05764(15)
O25 O 0.9777(2) 0.85008(18) 0.12960(13)
O26 O 0.7631(3) 0.7530(4) 0.1209(3)
Gd3 Gd 0.746561(11) 0.490890(11) 0.254611(8)
Cu6 Cu 0.78076(2) 0.44746(3) 0.333523(18)
Cu8 Cu 0.88587(3) 0.99996(4) 0.000190(18)
Cu11 Cu 0.66663(4) 0.44742(2) 0.333143(18)
Cu13 Cu 0.74281(2) 0.37126(2) 0.257483(19)
Cu17 Cu 0.62874(2) 0.37154(3) 0.257483(19)
Cu20 Cu 0.86266(5) 0.61545(5) 0.24729(4)
Cu25 Cu 0.82729(5) 0.54253(5) 0.17451(4)
Na3 Na 0.91428(9) 0.71742(9) 0.08623(7)
Na12 Na 0.95039(10) 0.79065(9) 0.16009(7)
N6 N 0.8574(4) 0.5076(3) 0.1419(2)
H16 H 0.8892 0.5219 0.1544
N11 N 0.9230(5) 0.6449(4) 0.2805(3)
H21 H 0.9441 0.6371 0.2659
C12 C 0.8796(8) 0.5871(5) 0.1110(4)
C17 C 0.8804(10) 0.5329(6) 0.1067(3)
H26 H 0.9164 0.5392 0.1038
H31 H 0.8589 0.5120 0.0855
C22 C 0.8590(8) 0.4251(8) 0.1438(6)
H36 H 0.8761 0.4353 0.1196
H41 H 0.8843 0.4275 0.1623
H46 H 0.8298 0.3891 0.1426
C27 C 0.8406(8) 0.4579(6) 0.1533(6)
H51 H 0.8083 0.4408 0.1377
C32 C 0.8117(5) 0.4473(4) 0.1920(3)
C37 C 0.9407(8) 0.7168(5) 0.2405(5)
C42 C 0.9537(8) 0.7015(6) 0.2762(6)
H56 H 0.9460 0.7187 0.2968
H61 H 0.9914 0.7129 0.2769
C47 C 0.9182(7) 0.6138(7) 0.3085(4)
H66 H 0.9058 0.6311 0.3263
C51 C 0.9850(15) 0.7129(7) 0.0051(6)
C52 C 0.9538(7) 0.6054(13) 0.3384(6)
H70 H 0.9839 0.6794 0.0078
H71 H 0.9873 0.6378 0.3411
H75 H 0.9936 0.7310 0.0290
H76 H 0.9357 0.5959 0.3623
H81 H 0.9599 0.5773 0.3301
C57 C 0.8657(4) 0.5615(4) 0.3079(3)
O28 O 0.9081(6) 0.6233(5) 0.0953(4)
O33 O 0.8606(3) 0.5991(3) 0.1391(2)
O38 O 0.79743(18) 0.48013(19) 0.20459(13)
O43 O 0.79461(19) 0.39877(17) 0.20528(14)
O48 O 0.9603(6) 0.7559(5) 0.2274(4)
O53 O 0.8985(3) 0.6830(3) 0.2211(2)
O58 O 0.83372(18) 0.55478(16) 0.27882(14)
O63 O 0.85813(18) 0.52771(19) 0.33271(13)
O67 O 0.7973(4) 0.5725(3) 0.2140(3)
O79 O 0.74181(14) 0.48310(14) 0.32201(10)
O81 O 0.81644(14) 0.40796(20) 0.34465(10)
O85 O 0.69905(14) 0.39816(14) 0.23743(11)
O88 O 0.69912(20) 0.30095(14) 0.23743(11)
O91 O 0.88234(20) 0.99010(14) 0.05391(11)
O93 O 0.65677(14) 0.44109(14) 0.27942(11)
O95 O 0.77443(14) 0.45099(20) 0.38724(11)
O96 O 0.78433(20) 0.34323(14) 0.27942(11)
O100 O 0.78364(14) 0.44049(14) 0.27973(11)
O108 O 0.9201(5) 0.8252(4) 0.1973(3)
O113 O 0.8506(4) 0.6794(3) 0.0508(3)
O118 O 0.9025(7) 0.7069(5) 0.1448(4)
O123 O 0.7254(2) 0.55604(17) 0.27569(15)
O132 O 0.6890(2) 0.48325(18) 0.20373(13)
O142 O 0.9036(3) 0.5803(4) 0.2124(3)
Cu1 Cu 0.88591(2) 0.88587(3) 0.999810(18)
C9 C 0.7129(7) 0.7279(13) 0.9949(6)
H12 H 0.6794 0.6955 0.9922
H13 H 0.7310 0.7374 0.9710
Gd5 Gd 0.842443(11) 0.922337(16) 0.921278(8)
Cu15 Cu 0.96179(3) 0.92386(2) 0.924150(19)
Cu22 Cu 0.71788(5) 0.91387(7) 0.91396(4)
Cu27 Cu 0.79080(5) 0.95142(7) 0.84118(4)
Na6 Na 0.61591(9) 0.86352(13) 0.75290(7)
Na10 Na 0.71742(9) 0.80315(13) 0.91377(7)
Na15 Na 0.54268(9) 0.82640(13) 0.82676(7)
Na19 Na 0.79065(9) 0.84027(13) 0.83991(7)
N7 N 0.9836(5) 0.8093(4) 0.8086(2)
H17 H 0.9661 0.7775 0.8211
N13 N 0.6884(4) 0.9447(6) 0.9472(3)
H23 H 0.6962 0.9736 0.9326
C14 C 0.7462(5) 0.9591(9) 0.7777(4)
C18 C 0.9859(12) 0.7863(10) 0.7734(3)
H27 H 0.9562 0.7503 0.7705
H32 H 0.9865 0.8078 0.7522
C23 C 0.8995(11) 0.8077(8) 0.8105(6)
H37 H 0.8926 0.7906 0.7863
H42 H 0.8766 0.7824 0.8290
H47 H 0.8927 0.8369 0.8093
C28 C 0.9507(10) 0.8261(8) 0.8200(6)
H52 H 0.9659 0.8584 0.8044
C33 C 0.9690(6) 0.8550(5) 0.8587(3)
C39 C 0.6165(5) 0.8905(9) 0.9072(5)
C44 C 0.6318(6) 0.9188(10) 0.9429(6)
H58 H 0.6146 0.8939 0.9635
H63 H 0.6204 0.9451 0.9436
C49 C 0.7195(7) 0.9710(10) 0.9752(4)
H68 H 0.7022 0.9413 0.9930
H80 H 0.9508 0.7068 0.9968
C59 C 0.7718(4) 0.9708(6) 0.9746(3)
O30 O 0.7100(5) 0.9514(8) 0.7620(4)
O35 O 0.7342(3) 0.9281(4) 0.8058(2)
O40 O 0.85320(19) 0.98396(26) 0.87126(13)
O44 O 0.93750(25) 0.87206(19) 0.87195(14)
O50 O 0.5774(5) 0.8710(8) 0.8941(4)
O55 O 0.6503(3) 0.8821(4) 0.8878(2)
O60 O 0.77855(16) 0.94560(24) 0.94549(14)
O65 O 0.80562(19) 0.99708(26) 0.99938(13)
O70 O 0.7608(3) 0.8914(5) 0.8807(3)
O74 O 0.5725(3) 0.7753(5) 0.7860(3)
O76 O 0.85023(14) 0.92537(20) 0.98868(10)
O87 O 0.93517(14) 0.96755(20) 0.90410(11)
O90 O 0.89224(14) 0.88234(20) 0.94609(11)
O98 O 0.99019(20) 0.88303(14) 0.94640(11)
O106 O 0.5792(4) 0.9133(7) 0.7929(4)
O111 O 0.5081(4) 0.7615(6) 0.8640(3)
O116 O 0.6539(3) 0.8378(5) 0.7175(3)
O121 O 0.6264(5) 0.8622(9) 0.8115(4)
O126 O 0.77729(17) 0.83599(26) 0.94236(15)
O130 O 0.55604(17) 0.83068(26) 0.72431(15)
O135 O 0.85008(18) 0.87238(27) 0.87040(13)
O139 O 0.48325(18) 0.79429(27) 0.79627(13)
O144 O 0.7530(4) 0.9899(5) 0.8791(3)
Gd3_2 Gd 0.509110(11) 0.255670(16) 0.254611(8)
Cu6_2 Cu 0.55254(3) 0.33329(4) 0.333523(18)
Cu11_2 Cu 0.55258(2) 0.21920(4) 0.333143(18)
Cu17_2 Cu 0.62846(3) 0.25719(4) 0.257483(19)
Cu20_2 Cu 0.38455(5) 0.24720(7) 0.24729(4)
Cu25_2 Cu 0.45747(5) 0.28475(7) 0.17451(4)
N6_2 N 0.4924(3) 0.3497(5) 0.1419(2)
H16_2 H 0.4781 0.3672 0.1544
N11_2 N 0.3551(4) 0.2780(6) 0.2805(3)
H21_2 H 0.3629 0.3069 0.2659
C12_2 C 0.4129(5) 0.2924(9) 0.1110(4)
C17_2 C 0.4671(6) 0.3474(12) 0.1067(3)
H26_2 H 0.4608 0.3771 0.1038
H31_2 H 0.4880 0.3468 0.0855
C22_2 C 0.5749(8) 0.4338(11) 0.1438(6)
H36_2 H 0.5647 0.4407 0.1196
H41_2 H 0.5725 0.4567 0.1623
H46_2 H 0.6109 0.4406 0.1426
C27_2 C 0.5421(6) 0.3826(10) 0.1533(6)
H51_2 H 0.5592 0.3674 0.1377
C32_2 C 0.5527(4) 0.3643(6) 0.1920(3)
C37_2 C 0.2832(5) 0.2238(9) 0.2405(5)
C42_2 C 0.2985(6) 0.2521(10) 0.2762(6)
H56_2 H 0.2813 0.2272 0.2968
H61_2 H 0.2871 0.2784 0.2769
C47_2 C 0.3862(7) 0.3043(10) 0.3085(4)
H66_2 H 0.3689 0.2746 0.3263
C51_2 C 0.2871(7) 0.2721(17) 0.0051(6)
C52_2 C 0.3946(13) 0.3483(15) 0.3384(6)
H70_2 H 0.3206 0.3045 0.0078
H71_2 H 0.3622 0.3494 0.3411
H75_2 H 0.2690 0.2626 0.0290
H76_2 H 0.4041 0.3397 0.3623
H81_2 H 0.4227 0.3825 0.3301
C57_2 C 0.4385(4) 0.3041(6) 0.3079(3)
O28_2 O 0.3767(5) 0.2847(8) 0.0953(4)
O33_2 O 0.4009(3) 0.2614(4) 0.1391(2)
O38_2 O 0.51987(19) 0.31729(26) 0.20459(13)
O43_2 O 0.60123(17) 0.39583(25) 0.20528(14)
O48_2 O 0.2441(5) 0.2043(8) 0.2274(4)
O53_2 O 0.3170(3) 0.2154(4) 0.2211(2)
O58_2 O 0.44522(16) 0.27893(24) 0.27882(14)
O63_2 O 0.47229(19) 0.33041(26) 0.33271(13)
O79_2 O 0.51690(14) 0.25870(20) 0.32201(10)
O81_2 O 0.59204(20) 0.40847(24) 0.34465(10)
O85_2 O 0.60184(14) 0.30088(20) 0.23743(11)
O93_2 O 0.55891(14) 0.21567(20) 0.27942(11)
O95_2 O 0.54901(20) 0.32343(24) 0.38724(11)
O100_2 O 0.55951(14) 0.34314(20) 0.27973(11)
O103_2 O 0.2459(4) 0.2466(7) 0.1262(4)
O108_2 O 0.1748(4) 0.0948(6) 0.1973(3)
O113_2 O 0.3206(3) 0.1711(5) 0.0508(3)
O118_2 O 0.2931(5) 0.1955(9) 0.1448(4)
O142_2 O 0.4197(4) 0.3232(5) 0.2124(3)
Gd4_2 Gd 0.079894(11) 0.157557(19) 0.921278(8)
Cu19_2 Cu 0.19599(5) 0.28212(9) 0.91396(4)
Cu26_2 Cu 0.16062(5) 0.20920(9) 0.84118(4)
Na5_2 Na 0.24761(9) 0.38409(16) 0.75290(7)
Na9_2 Na 0.08572(9) 0.28258(16) 0.91377(7)
Na13_2 Na 0.28372(10) 0.45732(16) 0.82676(7)
Na18_2 Na 0.04961(10) 0.20935(16) 0.83991(7)
N7_2 N 0.1907(4) 0.1743(6) 0.8086(2)
H17_2 H 0.2225 0.1886 0.8211
N10_2 N 0.2563(5) 0.3116(8) 0.9472(3)
H20_2 H 0.2774 0.3038 0.9326
C13_2 C 0.2129(8) 0.2538(12) 0.7777(4)
C18_2 C 0.2137(10) 0.1996(16) 0.7734(3)
H27_2 H 0.2497 0.2059 0.7705
H32_2 H 0.1922 0.1787 0.7522
C23_2 C 0.1923(8) 0.0918(14) 0.8105(6)
H37_2 H 0.2094 0.1020 0.7863
H42_2 H 0.2176 0.0942 0.8290
H47_2 H 0.1631 0.0558 0.8093
C28_2 C 0.1739(8) 0.1246(13) 0.8200(6)
H52_2 H 0.1416 0.1075 0.8044
C33_2 C 0.1450(5) 0.1140(8) 0.8587(3)
C36_2 C 0.2740(8) 0.3835(12) 0.9072(5)
C41_2 C 0.2870(8) 0.3682(13) 0.9429(6)
H55_2 H 0.2793 0.3854 0.9635
H60_2 H 0.3247 0.3796 0.9436
C46_2 C 0.2515(7) 0.2805(12) 0.9752(4)
H65_2 H 0.2391 0.2978 0.9930
H80_2 H 0.2932 0.2440 0.9968
C56_2 C 0.1990(4) 0.2282(7) 0.9746(3)
O29_2 O 0.2414(6) 0.2900(10) 0.7620(4)
O34_2 O 0.1939(3) 0.2658(5) 0.8058(2)
O39_2 O 0.13076(18) 0.14680(32) 0.87126(13)
O44_2 O 0.12794(19) 0.06544(31) 0.87195(14)
O47_2 O 0.2936(6) 0.4226(10) 0.8941(4)
O52_2 O 0.2318(3) 0.3497(5) 0.8878(2)
O57_2 O 0.16705(18) 0.22145(30) 0.94549(14)
O62_2 O 0.19146(18) 0.19438(32) 0.99938(13)
O69_2 O 0.1306(4) 0.2392(6) 0.8807(3)
O73_2 O 0.2027(4) 0.4275(6) 0.7860(3)
O98_2 O 0.11697(14) 0.10716(24) 0.94640(11)
O105_2 O 0.3341(6) 0.4208(9) 0.7929(4)
O109_2 O 0.2534(5) 0.4919(8) 0.8640(3)
O115_2 O 0.1839(4) 0.3461(6) 0.7175(3)
O120_2 O 0.2358(7) 0.3736(11) 0.8115(4)
O125_2 O 0.0587(2) 0.22271(33) 0.94236(15)
O129_2 O 0.2746(2) 0.44396(33) 0.72431(15)
O134_2 O 0.0223(2) 0.14992(34) 0.87040(13)
O137_2 O 0.3110(2) 0.51675(34) 0.79627(13)
O141_2 O 0.2369(3) 0.2470(6) 0.8791(3)
Gd3_3 Gd 0.744330(16) 0.253439(11) 0.254611(8)
Cu6_3 Cu 0.66671(4) 0.21924(2) 0.333523(18)
Cu11_3 Cu 0.78080(4) 0.33337(4) 0.333143(18)
Cu20_3 Cu 0.75280(7) 0.13734(5) 0.24729(4)
Cu25_3 Cu 0.71525(7) 0.17271(5) 0.17451(4)
N6_3 N 0.6503(5) 0.1426(4) 0.1419(2)
H16_3 H 0.6328 0.1108 0.1544
N11_3 N 0.7220(6) 0.0770(5) 0.2805(3)
H21_3 H 0.6931 0.0559 0.2659
C12_3 C 0.7076(9) 0.1204(8) 0.1110(4)
C17_3 C 0.6526(12) 0.1196(10) 0.1067(3)
H26_3 H 0.6229 0.0836 0.1038
H31_3 H 0.6532 0.1411 0.0855
C22_3 C 0.5662(11) 0.1410(8) 0.1438(6)
H36_3 H 0.5593 0.1239 0.1196
H41_3 H 0.5433 0.1157 0.1623
H46_3 H 0.5594 0.1702 0.1426
C27_3 C 0.6174(10) 0.1594(8) 0.1533(6)
H51_3 H 0.6326 0.1917 0.1377
C32_3 C 0.6357(6) 0.1883(5) 0.1920(3)
C37_3 C 0.7762(9) 0.0593(8) 0.2405(5)
C42_3 C 0.7479(10) 0.0463(8) 0.2762(6)
H56_3 H 0.7728 0.0540 0.2968
H61_3 H 0.7216 0.0086 0.2769
C47_3 C 0.6957(10) 0.0818(7) 0.3085(4)
H66_3 H 0.7254 0.0942 0.3263
C52_3 C 0.6517(15) 0.0462(7) 0.3384(6)
H71_3 H 0.6506 0.0127 0.3411
H76_3 H 0.6603 0.0643 0.3623
H81_3 H 0.6175 0.0401 0.3301
C57_3 C 0.6959(6) 0.1343(4) 0.3079(3)
O28_3 O 0.7153(8) 0.0919(6) 0.0953(4)
O33_3 O 0.7386(4) 0.1394(3) 0.1391(2)
O38_3 O 0.68271(26) 0.20257(18) 0.20459(13)
O43_3 O 0.60417(25) 0.20539(19) 0.20528(14)
O48_3 O 0.7957(8) 0.0397(6) 0.2274(4)
O53_3 O 0.7846(4) 0.1015(3) 0.2211(2)
O58_3 O 0.72107(24) 0.16628(18) 0.27882(14)
O63_3 O 0.66959(26) 0.14187(18) 0.33271(13)
O79_3 O 0.74130(20) 0.25819(14) 0.32201(10)
O81_3 O 0.59153(24) 0.18356(14) 0.34465(10)
O95_3 O 0.67657(24) 0.22557(14) 0.38724(11)
O100_3 O 0.65686(20) 0.21636(14) 0.27973(11)
O108_3 O 0.9052(6) 0.0799(5) 0.1973(3)
O113_3 O 0.8289(5) 0.1494(4) 0.0508(3)
O118_3 O 0.8045(9) 0.0975(7) 0.1448(4)
O142_3 O 0.6768(5) 0.0964(3) 0.2124(3)
O103_3 O 0.7534(7) 0.9992(6) 0.1262(4)
Na4_2 Na 0.05076(9) 0.46981(13) 0.58043(7)
Na14_2 Na 0.12399(9) 0.50693(13) 0.50657(7)
C38_2 C 0.0502(5) 0.4428(9) 0.4261(5)
C43_2 C 0.0349(6) 0.4145(10) 0.3904(6)
H57_2 H 0.0521 0.4394 0.3698
H62_2 H 0.0463 0.3882 0.3897
O49_2 O 0.0893(5) 0.4623(8) 0.4392(4)
O54_2 O 0.0164(3) 0.4512(4) 0.4455(2)
O72_2 O 0.0941(3) 0.5581(5) 0.5474(3)
O104_2 O 0.0875(4) 0.4200(7) 0.5404(4)
O110_2 O 0.1586(4) 0.5718(6) 0.4693(3)
O114_2 O 0.0128(3) 0.4955(5) 0.6158(3)
O119_2 O 0.0403(5) 0.4711(9) 0.5218(4)
O128_2 O 0.11062(17) 0.50266(26) 0.60903(15)
O138_2 O 0.18341(18) 0.53905(27) 0.53707(13)
H106 H 0.0382572 0.530658 0.625523
Gd1_2 Gd 0.586773(11) 0.175776(11) 0.412055(8)
Cu2_2 Cu 0.59053(2) 0.29540(2) 0.409183(19)
Cu3_2 Cu 0.47068(5) 0.05121(5) 0.41937(4)
Cu4_2 Cu 0.50605(5) 0.12413(5) 0.49215(4)
N3_2 N 0.4760(4) 0.1590(3) 0.5247(2)
H1_2 H 0.4442 0.1447 0.5122
N4_2 N 0.4104(5) 0.0217(4) 0.3861(3)
H2_2 H 0.3893 0.0295 0.4007
C1_2 C 0.4538(8) 0.0795(5) 0.5556(4)
C2_2 C 0.4530(10) 0.1337(6) 0.5599(3)
H3_2 H 0.4170 0.1274 0.5628
H4_2 H 0.4745 0.1546 0.5811
C3_2 C 0.4744(8) 0.2415(8) 0.5228(6)
H5_2 H 0.4573 0.2313 0.5470
H6_2 H 0.4491 0.2391 0.5043
H7_2 H 0.5036 0.2775 0.5240
C4_2 C 0.4928(8) 0.2087(6) 0.5133(6)
H8_2 H 0.5251 0.2258 0.5289
C5_2 C 0.5217(5) 0.2193(4) 0.4746(3)
C8_2 C 0.4152(7) 0.0528(7) 0.3581(4)
H11_2 H 0.4276 0.0355 0.3403
C9_2 C 0.3796(7) 0.0612(13) 0.3282(6)
H12_2 H 0.3461 0.0288 0.3255
H13_2 H 0.3977 0.0707 0.3043
H14_2 H 0.3735 0.0893 0.3365
C10_2 C 0.4677(4) 0.1051(4) 0.3587(3)
O7_2 O 0.4253(6) 0.0433(5) 0.5713(4)
O8_2 O 0.4728(3) 0.0675(3) 0.5275(2)
O9_2 O 0.53591(18) 0.18653(19) 0.46207(13)
O10_2 O 0.53873(19) 0.26789(17) 0.46138(14)
O13_2 O 0.49962(18) 0.11188(16) 0.38784(14)
O14_2 O 0.47521(18) 0.13895(19) 0.33395(13)
O15_2 O 0.5361(4) 0.0941(3) 0.4526(3)
O17_2 O 0.63429(14) 0.26850(14) 0.42923(11)
O19_2 O 0.54970(14) 0.22617(14) 0.38693(11)
O24_2 O 0.6080(2) 0.11062(17) 0.39097(15)
O25_2 O 0.6444(2) 0.18341(18) 0.46293(13)
O26_2 O 0.4298(3) 0.0863(4) 0.4542(3)
Gd2_2 Gd 0.824224(11) 0.410996(16) 0.412055(8)
Gd6_2 Gd 0.589004(16) 0.413227(11) 0.412055(8)
Cu12_2 Cu 0.70460(2) 0.29512(3) 0.409183(19)
Cu14_2 Cu 0.70488(3) 0.40947(2) 0.409183(19)
Cu21_2 Cu 0.94879(5) 0.41946(7) 0.41937(4)
Cu23_2 Cu 0.58054(7) 0.52932(5) 0.41937(4)
Cu24_2 Cu 0.87587(5) 0.38191(7) 0.49215(4)
Cu28_2 Cu 0.61809(7) 0.49395(5) 0.49215(4)
Na3_2 Na 0.58094(9) 0.05076(9) 0.41957(7)
Na7_2 Na 0.53019(13) 0.58094(9) 0.58043(7)
Na8_2 Na 0.94924(9) 0.53019(13) 0.41957(7)
Na11_2 Na 0.46981(13) 0.41906(9) 0.41957(7)
Na12_2 Na 0.61705(10) 0.12399(9) 0.49343(7)
Na16_2 Na 0.49307(13) 0.61705(10) 0.50657(7)
Na17_2 Na 0.87601(9) 0.49307(13) 0.49343(7)
Na20_2 Na 0.50693(13) 0.38295(10) 0.49343(7)
N5_2 N 0.8410(3) 0.3169(5) 0.5247(2)
N9_2 N 0.6831(5) 0.5240(4) 0.5247(2)
H15_2 H 0.8553 0.2994 0.5122
H19_2 H 0.7006 0.5558 0.5122
N12_2 N 0.9783(4) 0.3886(6) 0.3861(3)
N14_2 N 0.6114(6) 0.5896(5) 0.3861(3)
H22_2 H 0.9705 0.3597 0.4007
H24_2 H 0.6403 0.6107 0.4007
C11_2 C 0.9205(5) 0.3742(9) 0.5556(4)
C15_2 C 0.6258(9) 0.5462(8) 0.5556(4)
C16_2 C 0.8663(6) 0.3192(12) 0.5599(3)
C20_2 C 0.6808(12) 0.5470(10) 0.5599(3)
H25_2 H 0.8726 0.2895 0.5628
H29_2 H 0.7105 0.5830 0.5628
H30_2 H 0.8454 0.3198 0.5811
H34_2 H 0.6802 0.5255 0.5811
C21_2 C 0.7585(8) 0.2328(11) 0.5228(6)
C25_2 C 0.7672(11) 0.5256(8) 0.5228(6)
H35_2 H 0.7687 0.2259 0.5470
H39_2 H 0.7741 0.5427 0.5470
H40_2 H 0.7609 0.2099 0.5043
H44_2 H 0.7901 0.5509 0.5043
H45_2 H 0.7225 0.2260 0.5240
H49_2 H 0.7740 0.4964 0.5240
C26_2 C 0.7913(6) 0.2840(10) 0.5133(6)
C30_2 C 0.7160(10) 0.5072(8) 0.5133(6)
H50_2 H 0.7742 0.2992 0.5289
H54_2 H 0.7008 0.4749 0.5289
C31_2 C 0.7807(4) 0.3023(6) 0.4746(3)
C35_2 C 0.6977(6) 0.4783(5) 0.4746(3)
C37_4 C 0.6073(8) 0.0502(5) 0.5739(5)
C40_2 C 0.5572(9) 0.6073(8) 0.4261(5)
C42_4 C 0.6203(8) 0.0349(6) 0.6096(6)
C45_2 C 0.5855(10) 0.6203(8) 0.3904(6)
H56_4 H 0.6126 0.0521 0.6302
H59_2 H 0.5606 0.6126 0.3698
H61_4 H 0.6580 0.0463 0.6103
H64_2 H 0.6118 0.6580 0.3897
C48_2 C 0.9472(7) 0.3623(10) 0.3581(4)
C50_2 C 0.6377(10) 0.5848(7) 0.3581(4)
H67_2 H 0.9645 0.3920 0.3403
H69_2 H 0.6080 0.5724 0.3403
C53_2 C 0.9388(13) 0.3183(15) 0.3282(6)
C55_2 C 0.6817(15) 0.6204(7) 0.3282(6)
H72_2 H 0.9712 0.3172 0.3255
H74_2 H 0.6828 0.6539 0.3255
H77_2 H 0.9293 0.3269 0.3043
H79_2 H 0.6731 0.6023 0.3043
H82_2 H 0.9107 0.2841 0.3365
H84_2 H 0.7159 0.6265 0.3365
C58_2 C 0.8949(4) 0.3625(6) 0.3587(3)
C60_2 C 0.6375(6) 0.5323(4) 0.3587(3)
O27_2 O 0.9567(5) 0.3819(8) 0.5713(4)
O31_2 O 0.6181(8) 0.5747(6) 0.5713(4)
O32_2 O 0.9325(3) 0.4052(4) 0.5275(2)
O36_2 O 0.5948(4) 0.5272(3) 0.5275(2)
O37_2 O 0.81347(19) 0.34937(26) 0.46207(13)
O41_2 O 0.65063(26) 0.46409(18) 0.46207(13)
O42_2 O 0.73211(17) 0.27083(25) 0.46138(14)
O46_2 O 0.72917(25) 0.46127(19) 0.46138(14)
O48_4 O 0.6269(6) 0.0893(5) 0.5608(4)
O51_2 O 0.5377(8) 0.6269(6) 0.4392(4)
O53_4 O 0.5651(3) 0.0164(3) 0.5545(2)
O56_2 O 0.5488(4) 0.5651(3) 0.4455(2)
O59_2 O 0.88812(16) 0.38773(24) 0.38784(14)
O61_2 O 0.61227(24) 0.50038(18) 0.38784(14)
O64_2 O 0.86105(19) 0.33625(26) 0.33395(13)
O66_2 O 0.66375(26) 0.52479(18) 0.33395(13)
O68_2 O 0.9059(3) 0.4419(5) 0.4526(3)
O71_2 O 0.5581(5) 0.4639(4) 0.4526(3)
O75_2 O 0.4419(5) 0.5361(4) 0.5474(3)
O83_2 O 0.63422(20) 0.36571(14) 0.42923(11)
O84_2 O 0.73150(14) 0.36578(20) 0.42923(11)
O99_2 O 0.77383(14) 0.32352(20) 0.38693(11)
O102_2 O 0.67648(20) 0.45030(14) 0.38693(11)
O103_4 O 0.6674(6) 0.0875(4) 0.4596(4)
O107_2 O 0.5800(7) 0.6674(6) 0.5404(4)
O108_4 O 0.5867(5) 0.1586(4) 0.5307(3)
O112_2 O 0.4282(6) 0.5867(5) 0.4693(3)
O113_4 O 0.5172(4) 0.0128(3) 0.3842(3)
O117_2 O 0.5045(5) 0.5172(4) 0.6158(3)
O118_4 O 0.5691(7) 0.0403(5) 0.4782(4)
O122_2 O 0.5289(9) 0.5691(7) 0.5218(4)
O124_2 O 0.88938(17) 0.49734(26) 0.39097(15)
O127_2 O 0.50266(26) 0.3920(2) 0.39097(15)
O131_2 O 0.49734(26) 0.6080(2) 0.60903(15)
O133_2 O 0.81659(18) 0.46095(27) 0.46293(13)
O136_2 O 0.53905(27) 0.3556(2) 0.46293(13)
O140_2 O 0.46095(27) 0.6444(2) 0.53707(13)
O143_2 O 0.9137(4) 0.3434(5) 0.4542(3)
O145_2 O 0.6566(5) 0.5702(3) 0.4542(3)
H85 H 0.473457 0.00279874 0.636732
H91 H 0.512394 0.039068 0.370346
H105 H 0.997201 0.470658 0.636732
Na1_2 Na 0.41906(9) 0.94924(9) 0.58043(7)
Na2_2 Na 0.38295(10) 0.87601(9) 0.50657(7)
C6_2 C 0.3927(8) 0.9498(5) 0.4261(5)
C7_2 C 0.3797(8) 0.9651(6) 0.3904(6)
H9_2 H 0.3874 0.9479 0.3698
H10_2 H 0.3420 0.9537 0.3897
O11_2 O 0.3731(6) 0.9107(5) 0.4392(4)
O12_2 O 0.4349(3) 0.9836(3) 0.4455(2)
O20_2 O 0.3326(6) 0.9125(4) 0.5404(4)
O21_2 O 0.4133(5) 0.8414(4) 0.4693(3)
O22_2 O 0.4828(4) 0.9872(3) 0.6158(3)
O23_2 O 0.4309(7) 0.9597(5) 0.5218(4)
Gd3_4 Gd 0.413227(11) 0.824224(11) 0.587945(8)
Cu6_4 Cu 0.44742(2) 0.78080(3) 0.666857(18)
Cu11_4 Cu 0.33329(4) 0.78076(2) 0.666477(18)
Cu13_2 Cu 0.40947(2) 0.70460(2) 0.590817(19)
Cu17_3 Cu 0.29540(2) 0.70488(3) 0.590817(19)
Cu20_4 Cu 0.52932(5) 0.94879(5) 0.58063(4)
Cu25_4 Cu 0.49395(5) 0.87587(5) 0.50785(4)
N6_4 N 0.5240(4) 0.8410(3) 0.4753(2)
H16_4 H 0.5558 0.8553 0.4878
N11_4 N 0.5896(5) 0.9783(4) 0.6139(3)
H21_4 H 0.6107 0.9705 0.5993
C12_4 C 0.5462(8) 0.9205(5) 0.4444(4)
C17_4 C 0.5470(10) 0.8663(6) 0.4401(3)
H26_4 H 0.5830 0.8726 0.4372
H31_4 H 0.5255 0.8454 0.4189
C22_4 C 0.5256(8) 0.7585(8) 0.4772(6)
H36_4 H 0.5427 0.7687 0.4530
H41_4 H 0.5509 0.7609 0.4957
H46_4 H 0.4964 0.7225 0.4760
C27_4 C 0.5072(8) 0.7913(6) 0.4867(6)
H51_4 H 0.4749 0.7742 0.4711
C32_4 C 0.4783(5) 0.7807(4) 0.5254(3)
C47_4 C 0.5848(7) 0.9472(7) 0.6419(4)
H66_4 H 0.5724 0.9645 0.6597
C52_4 C 0.6204(7) 0.9388(13) 0.6718(6)
H71_4 H 0.6539 0.9712 0.6745
H76_4 H 0.6023 0.9293 0.6957
H81_4 H 0.6265 0.9107 0.6635
C57_4 C 0.5323(4) 0.8949(4) 0.6413(3)
O28_4 O 0.5747(6) 0.9567(5) 0.4287(4)
O33_4 O 0.5272(3) 0.9325(3) 0.4725(2)
O38_4 O 0.46409(18) 0.81347(19) 0.53793(13)
O43_4 O 0.46127(19) 0.73211(17) 0.53862(14)
O58_4 O 0.50038(18) 0.88812(16) 0.61216(14)
O63_4 O 0.52479(18) 0.86105(19) 0.66605(13)
O67_2 O 0.4639(4) 0.9059(3) 0.5474(3)
O79_4 O 0.40847(14) 0.81644(14) 0.65535(10)
O81_4 O 0.48310(14) 0.74130(20) 0.67799(10)
O85_3 O 0.36571(14) 0.73150(14) 0.57077(11)
O88_2 O 0.36578(20) 0.63429(14) 0.57077(11)
O93_3 O 0.32343(14) 0.77443(14) 0.61276(11)
O95_4 O 0.44109(14) 0.78433(20) 0.72058(11)
O96_2 O 0.45099(20) 0.67657(14) 0.61276(11)
O100_4 O 0.45030(14) 0.77383(14) 0.61307(11)
O123_2 O 0.3920(2) 0.88938(17) 0.60903(15)
O132_2 O 0.3556(2) 0.81659(18) 0.53707(13)
O142_4 O 0.5702(3) 0.9137(4) 0.5458(3)
H86 H 0.4924 0.961743 0.625523
H92 H 0.52361 0.990883 0.366468
Gd3_5 Gd 0.175776(11) 0.589004(16) 0.587945(8)
Cu6_5 Cu 0.21920(3) 0.66663(4) 0.666857(18)
Cu11_5 Cu 0.21924(2) 0.55254(4) 0.666477(18)
Cu17_4 Cu 0.29512(3) 0.59053(4) 0.590817(19)
Cu20_5 Cu 0.05121(5) 0.58054(7) 0.58063(4)
Cu25_5 Cu 0.12413(5) 0.61809(7) 0.50785(4)
N6_5 N 0.1590(3) 0.6831(5) 0.4753(2)
H16_5 H 0.1447 0.7006 0.4878
N11_5 N 0.0217(4) 0.6114(6) 0.6139(3)
H21_5 H 0.0295 0.6403 0.5993
C12_5 C 0.0795(5) 0.6258(9) 0.4444(4)
C17_5 C 0.1337(6) 0.6808(12) 0.4401(3)
H26_5 H 0.1274 0.7105 0.4372
H31_5 H 0.1546 0.6802 0.4189
C22_5 C 0.2415(8) 0.7672(11) 0.4772(6)
H36_5 H 0.2313 0.7741 0.4530
H41_5 H 0.2391 0.7901 0.4957
H46_5 H 0.2775 0.7740 0.4760
C27_5 C 0.2087(6) 0.7160(10) 0.4867(6)
H51_5 H 0.2258 0.7008 0.4711
C32_5 C 0.2193(4) 0.6977(6) 0.5254(3)
C47_5 C 0.0528(7) 0.6377(10) 0.6419(4)
H66_5 H 0.0355 0.6080 0.6597
C52_5 C 0.0612(13) 0.6817(15) 0.6718(6)
H71_5 H 0.0288 0.6828 0.6745
H76_5 H 0.0707 0.6731 0.6957
H81_5 H 0.0893 0.7159 0.6635
C57_5 C 0.1051(4) 0.6375(6) 0.6413(3)
O28_5 O 0.0433(5) 0.6181(8) 0.4287(4)
O33_5 O 0.0675(3) 0.5948(4) 0.4725(2)
O38_5 O 0.18653(19) 0.65063(26) 0.53793(13)
O43_5 O 0.26789(17) 0.72917(25) 0.53862(14)
O58_5 O 0.11188(16) 0.61227(24) 0.61216(14)
O63_5 O 0.13895(19) 0.66375(26) 0.66605(13)
O79_5 O 0.18356(14) 0.59204(20) 0.65535(10)
O81_5 O 0.25870(20) 0.74181(24) 0.67799(10)
O85_4 O 0.26850(14) 0.63422(20) 0.57077(11)
O93_4 O 0.22557(14) 0.54901(20) 0.61276(11)
O95_5 O 0.21567(20) 0.65677(24) 0.72058(11)
O100_5 O 0.22617(14) 0.67648(20) 0.61307(11)
O142_5 O 0.0863(4) 0.6566(5) 0.5458(3)
H92_2 H 0.00911701 0.532727 0.366468
C37_5 C 0.9498(5) 0.5572(9) 0.5739(5)
C42_5 C 0.9651(6) 0.5855(10) 0.6096(6)
H56_5 H 0.9479 0.5606 0.6302
H61_5 H 0.9537 0.6118 0.6103
O48_5 O 0.9107(5) 0.5377(8) 0.5608(4)
O53_5 O 0.9836(3) 0.5488(4) 0.5545(2)
O103_5 O 0.9125(4) 0.5800(7) 0.4596(4)
O108_5 O 0.8414(4) 0.4282(6) 0.5307(3)
O113_5 O 0.9872(3) 0.5045(5) 0.3842(3)
O118_5 O 0.9597(5) 0.5289(9) 0.4782(4)
H91_2 H 0.960932 0.473326 0.370346
Gd3_6 Gd 0.410996(16) 0.586773(11) 0.587945(8)
Cu6_6 Cu 0.33337(4) 0.55258(2) 0.666857(18)
Cu11_6 Cu 0.44746(4) 0.66671(4) 0.666477(18)
Cu20_6 Cu 0.41946(7) 0.47068(5) 0.58063(4)
Cu25_6 Cu 0.38191(7) 0.50605(5) 0.50785(4)
N6_6 N 0.3169(5) 0.4760(4) 0.4753(2)
H16_6 H 0.2994 0.4442 0.4878
N11_6 N 0.3886(6) 0.4104(5) 0.6139(3)
H21_6 H 0.3597 0.3893 0.5993
C12_6 C 0.3742(9) 0.4538(8) 0.4444(4)
C17_6 C 0.3192(12) 0.4530(10) 0.4401(3)
H26_6 H 0.2895 0.4170 0.4372
H31_6 H 0.3198 0.4745 0.4189
C22_6 C 0.2328(11) 0.4744(8) 0.4772(6)
H36_6 H 0.2259 0.4573 0.4530
H41_6 H 0.2099 0.4491 0.4957
H46_6 H 0.2260 0.5036 0.4760
C27_6 C 0.2840(10) 0.4928(8) 0.4867(6)
H51_6 H 0.2992 0.5251 0.4711
C32_6 C 0.3023(6) 0.5217(5) 0.5254(3)
C37_6 C 0.4428(9) 0.3927(8) 0.5739(5)
C42_6 C 0.4145(10) 0.3797(8) 0.6096(6)
H56_6 H 0.4394 0.3874 0.6302
H61_6 H 0.3882 0.3420 0.6103
C47_6 C 0.3623(10) 0.4152(7) 0.6419(4)
H66_6 H 0.3920 0.4276 0.6597
C52_6 C 0.3183(15) 0.3796(7) 0.6718(6)
H71_6 H 0.3172 0.3461 0.6745
H76_6 H 0.3269 0.3977 0.6957
H81_6 H 0.2841 0.3735 0.6635
C57_6 C 0.3625(6) 0.4677(4) 0.6413(3)
O28_6 O 0.3819(8) 0.4253(6) 0.4287(4)
O33_6 O 0.4052(4) 0.4728(3) 0.4725(2)
O38_6 O 0.34937(26) 0.53591(18) 0.53793(13)
O43_6 O 0.27083(25) 0.53873(19) 0.53862(14)
O48_6 O 0.4623(8) 0.3731(6) 0.5608(4)
O53_6 O 0.4512(4) 0.4349(3) 0.5545(2)
O58_6 O 0.38773(24) 0.49962(18) 0.61216(14)
O63_6 O 0.33625(26) 0.47521(18) 0.66605(13)
O79_6 O 0.40796(20) 0.59153(14) 0.65535(10)
O81_6 O 0.25819(24) 0.51690(14) 0.67799(10)
O95_6 O 0.34323(24) 0.55891(14) 0.72058(11)
O100_6 O 0.32352(20) 0.54970(14) 0.61307(11)
O103_6 O 0.4200(7) 0.3326(6) 0.4596(4)
O108_6 O 0.5718(6) 0.4133(5) 0.5307(3)
O113_6 O 0.4955(5) 0.4828(4) 0.3842(3)
O118_6 O 0.4711(9) 0.4309(7) 0.4782(4)
O142_6 O 0.3434(5) 0.4298(3) 0.5458(3)
O107_3 O 0.2466(7) 0.0008(6) 0.8738(4)
Gd1_3 Gd 0.253439(11) 0.509110(11) 0.745389(8)
Cu2_3 Cu 0.25719(2) 0.62874(2) 0.742517(19)
Cu3_3 Cu 0.13734(5) 0.38455(5) 0.75271(4)
Cu4_3 Cu 0.17271(5) 0.45747(5) 0.82549(4)
N3_3 N 0.1426(4) 0.4924(3) 0.8581(2)
H1_3 H 0.1108 0.4781 0.8456
N4_3 N 0.0770(5) 0.3551(4) 0.7195(3)
H2_3 H 0.0559 0.3629 0.7341
C1_3 C 0.1204(8) 0.4129(5) 0.8890(4)
C2_3 C 0.1196(10) 0.4671(6) 0.8933(3)
H3_3 H 0.0836 0.4608 0.8962
H4_3 H 0.1411 0.4880 0.9145
C3_3 C 0.1410(8) 0.5749(8) 0.8562(6)
H5_3 H 0.1239 0.5647 0.8804
H6_3 H 0.1157 0.5725 0.8377
H7_3 H 0.1702 0.6109 0.8574
C4_3 C 0.1594(8) 0.5421(6) 0.8467(6)
H8_3 H 0.1917 0.5592 0.8623
C5_3 C 0.1883(5) 0.5527(4) 0.8080(3)
C6_3 C 0.0593(8) 0.2832(5) 0.7595(5)
C7_3 C 0.0463(8) 0.2985(6) 0.7238(6)
H9_3 H 0.0540 0.2813 0.7032
H10_3 H 0.0086 0.2871 0.7231
C8_3 C 0.0818(7) 0.3862(7) 0.6915(4)
H11_3 H 0.0942 0.3689 0.6737
C9_3 C 0.0462(7) 0.3946(13) 0.6616(6)
H12_3 H 0.0127 0.3622 0.6589
H13_3 H 0.0643 0.4041 0.6377
H14_3 H 0.0401 0.4227 0.6699
C10_3 C 0.1343(4) 0.4385(4) 0.6921(3)
O7_3 O 0.0919(6) 0.3767(5) 0.9047(4)
O8_3 O 0.1394(3) 0.4009(3) 0.8609(2)
O9_3 O 0.20257(18) 0.51987(19) 0.79541(13)
O10_3 O 0.20539(19) 0.60123(17) 0.79472(14)
O11_3 O 0.0397(6) 0.2441(5) 0.7726(4)
O12_3 O 0.1015(3) 0.3170(3) 0.7789(2)
O13_3 O 0.16628(18) 0.44522(16) 0.72118(14)
O14_3 O 0.14187(18) 0.47229(19) 0.66729(13)
O17_3 O 0.30095(14) 0.60184(14) 0.76257(11)
O19_3 O 0.21636(14) 0.55951(14) 0.72027(11)
O21_3 O 0.0799(5) 0.1748(4) 0.8027(3)
O22_3 O 0.1494(4) 0.3206(3) 0.9492(3)
O23_3 O 0.0975(7) 0.2931(5) 0.8552(4)
O26_3 O 0.0964(3) 0.4197(4) 0.7876(3)
Gd2_3 Gd 0.490890(11) 0.744330(16) 0.745389(8)
Gd6_3 Gd 0.255670(16) 0.746561(11) 0.745389(8)
Cu12_3 Cu 0.37126(2) 0.62846(3) 0.742517(19)
Cu14_3 Cu 0.37154(3) 0.74281(2) 0.742517(19)
Cu21_3 Cu 0.61545(5) 0.75280(7) 0.75271(4)
Cu23_3 Cu 0.24720(7) 0.86266(5) 0.75271(4)
Cu24_3 Cu 0.54253(5) 0.71525(7) 0.82549(4)
Cu28_3 Cu 0.28475(7) 0.82729(5) 0.82549(4)
N5_3 N 0.5076(3) 0.6503(5) 0.8581(2)
N9_3 N 0.3497(5) 0.8574(4) 0.8581(2)
H15_3 H 0.5219 0.6328 0.8456
H19_3 H 0.3672 0.8892 0.8456
N12_3 N 0.6449(4) 0.7220(6) 0.7195(3)
N14_3 N 0.2780(6) 0.9230(5) 0.7195(3)
H22_3 H 0.6371 0.6931 0.7341
H24_3 H 0.3069 0.9441 0.7341
C11_3 C 0.5871(5) 0.7076(9) 0.8890(4)
C15_3 C 0.2924(9) 0.8796(8) 0.8890(4)
C16_3 C 0.5329(6) 0.6526(12) 0.8933(3)
C20_3 C 0.3474(12) 0.8804(10) 0.8933(3)
H25_3 H 0.5392 0.6229 0.8962
H29_3 H 0.3771 0.9164 0.8962
H30_3 H 0.5120 0.6532 0.9145
H34_3 H 0.3468 0.8589 0.9145
C21_3 C 0.4251(8) 0.5662(11) 0.8562(6)
C25_3 C 0.4338(11) 0.8590(8) 0.8562(6)
H35_3 H 0.4353 0.5593 0.8804
H39_3 H 0.4407 0.8761 0.8804
H40_3 H 0.4275 0.5433 0.8377
H44_3 H 0.4567 0.8843 0.8377
H45_3 H 0.3891 0.5594 0.8574
H49_3 H 0.4406 0.8298 0.8574
C26_3 C 0.4579(6) 0.6174(10) 0.8467(6)
C30_3 C 0.3826(10) 0.8406(8) 0.8467(6)
H50_3 H 0.4408 0.6326 0.8623
H54_3 H 0.3674 0.8083 0.8623
C31_3 C 0.4473(4) 0.6357(6) 0.8080(3)
C35_3 C 0.3643(6) 0.8117(5) 0.8080(3)
C38_3 C 0.7168(5) 0.7762(9) 0.7595(5)
C40_3 C 0.2238(9) 0.9407(8) 0.7595(5)
C43_3 C 0.7015(6) 0.7479(10) 0.7238(6)
C45_3 C 0.2521(10) 0.9537(8) 0.7238(6)
H57_3 H 0.7187 0.7728 0.7032
H59_3 H 0.2272 0.9460 0.7032
H62_3 H 0.7129 0.7216 0.7231
H64_3 H 0.2784 0.9914 0.7231
C48_3 C 0.6138(7) 0.6957(10) 0.6915(4)
C50_3 C 0.3043(10) 0.9182(7) 0.6915(4)
H67_3 H 0.6311 0.7254 0.6737
H69_3 H 0.2746 0.9058 0.6737
C53_3 C 0.6054(13) 0.6517(15) 0.6616(6)
C55_3 C 0.3483(15) 0.9538(7) 0.6616(6)
H72_3 H 0.6378 0.6506 0.6589
H74_3 H 0.3494 0.9873 0.6589
H77_3 H 0.5959 0.6603 0.6377
H79_3 H 0.3397 0.9357 0.6377
H82_3 H 0.5773 0.6175 0.6699
H84_3 H 0.3825 0.9599 0.6699
C58_3 C 0.5615(4) 0.6959(6) 0.6921(3)
C60_3 C 0.3041(6) 0.8657(4) 0.6921(3)
O27_3 O 0.6233(5) 0.7153(8) 0.9047(4)
O31_3 O 0.2847(8) 0.9081(6) 0.9047(4)
O32_3 O 0.5991(3) 0.7386(4) 0.8609(2)
O36_3 O 0.2614(4) 0.8606(3) 0.8609(2)
O37_3 O 0.48013(19) 0.68271(26) 0.79541(13)
O41_3 O 0.31729(26) 0.79743(18) 0.79541(13)
O42_3 O 0.39877(17) 0.60417(25) 0.79472(14)
O46_3 O 0.39583(25) 0.79461(19) 0.79472(14)
O49_3 O 0.7559(5) 0.7957(8) 0.7726(4)
O51_3 O 0.2043(8) 0.9603(6) 0.7726(4)
O54_3 O 0.6830(3) 0.7846(4) 0.7789(2)
O56_3 O 0.2154(4) 0.8985(3) 0.7789(2)
O59_3 O 0.55478(16) 0.72107(24) 0.72118(14)
O61_3 O 0.27893(24) 0.83372(18) 0.72118(14)
O64_3 O 0.52771(19) 0.66959(26) 0.66729(13)
O66_3 O 0.33041(26) 0.85813(18) 0.66729(13)
O83_3 O 0.30088(20) 0.69905(14) 0.76257(11)
O84_3 O 0.39816(14) 0.69912(20) 0.76257(11)
O99_3 O 0.44049(14) 0.65686(20) 0.72027(11)
O102_3 O 0.34314(20) 0.78364(14) 0.72027(11)
O104_3 O 0.7541(4) 0.7534(7) 0.8738(4)
O110_3 O 0.8252(4) 0.9052(6) 0.8027(3)
O112_3 O 0.0948(6) 0.9201(5) 0.8027(3)
O114_3 O 0.6794(3) 0.8289(5) 0.9492(3)
O117_3 O 0.1711(5) 0.8506(4) 0.9492(3)
O119_3 O 0.7069(5) 0.8045(9) 0.8552(4)
O122_3 O 0.1955(9) 0.9025(7) 0.8552(4)
O143_3 O 0.5803(4) 0.6768(5) 0.7876(3)
O145_3 O 0.3232(5) 0.9036(3) 0.7876(3)
H103 H 0.0152804 0.502447 0.397869
O20_3 O 0.9992(6) 0.2459(4) 0.8738(4)
H104 H 0.961743 0.469342 0.374477
H100 H 0.5076 0.0382572 0.374477
H99 H 0.487167 0.98472 0.397869
H92_3 H 0.47639 0.00911701 0.633532
H85_2 H 0.526543 0.997201 0.363268
H91_3 H 0.487606 0.960932 0.629654
H105_2 H 0.00279874 0.529342 0.363268
H91_4 H 0.039068 0.526674 0.629654
H92_4 H 0.990883 0.467273 0.633532
H103_2 H 0.98472 0.497553 0.602131
H99_2 H 0.512833 0.0152804 0.602131
Cl1 Cl 0.0000 0.0000 0.0000
Cl1_2 Cl 0.0000 -0.0000 1.0000
Cl1_3 Cl 0.0000 1.0000 0.0000
Cl1_4 Cl 0.0000 1.0000 1.0000
Cl1_5 Cl 1.0000 0.0000 0.0000
Cl1_6 Cl 1.0000 -0.0000 1.0000
Cl1_7 Cl 1.0000 1.0000 0.0000
Cl1_8 Cl 1.0000 1.0000 1.0000
Cl1_9 Cl 0.6667 0.3333 0.3333
Cl1_10 Cl 0.3333 0.6667 0.6667
loop_
_geom_bond_atom_site_label_1
_geom_bond_atom_site_label_2
_geom_bond_site_symmetry_1
_geom_bond_site_symmetry_2
N1 O1 1_555 1_555
O2 N1 1_555 1_555
O3 N1 1_555 1_555
N1_2 O1_2 1_555 1_555
O2_2 N1_2 1_555 1_555
O3_2 N1_2 1_555 1_555
N1_3 O1_3 1_555 1_555
O2_3 N1_3 1_555 1_555
O3_3 N1_3 1_555 1_555
N1_4 O1_4 1_555 1_555
O2_4 N1_4 1_555 1_555
O3_4 N1_4 1_555 1_555
N1_5 O1_5 1_555 1_555
O2_5 N1_5 1_555 1_555
O3_5 N1_5 1_555 1_555
N1_6 O1_6 1_555 1_555
O2_6 N1_6 1_555 1_555
O3_6 N1_6 1_555 1_555
N1_7 O1_7 1_555 1_555
O2_7 N1_7 1_555 1_555
O3_7 N1_7 1_555 1_555
N1_8 O1_8 1_555 1_555
O2_8 N1_8 1_555 1_555
O3_8 N1_8 1_555 1_555
N1_9 O1_9 1_555 1_555
O2_9 N1_9 1_555 1_555
O3_9 N1_9 1_555 1_555
N1_10 O1_10 1_555 1_555
O2_10 N1_10 1_555 1_555
O3_10 N1_10 1_555 1_555
N1_11 O1_11 1_555 1_555
O2_11 N1_11 1_555 1_555
O3_11 N1_11 1_555 1_555
N1_12 O1_12 1_555 1_555
O2_12 N1_12 1_555 1_555
O3_12 N1_12 1_555 1_555
N1_13 O1_13 1_555 1_555
O2_13 N1_13 1_555 1_555
O3_13 N1_13 1_555 1_555
N1_14 O1_14 1_555 1_555
O2_14 N1_14 1_555 1_555
O3_14 N1_14 1_555 1_555
N1_15 O1_15 1_555 1_555
O2_15 N1_15 1_555 1_555
O3_15 N1_15 1_555 1_555
N1_16 O1_16 1_555 1_555
O2_16 N1_16 1_555 1_555
O3_16 N1_16 1_555 1_555
N1_17 O1_17 1_555 1_555
O2_17 N1_17 1_555 1_555
O3_17 N1_17 1_555 1_555
N1_18 O1_18 1_555 1_555
O2_18 N1_18 1_555 1_555
O3_18 N1_18 1_555 1_555
O5 N2 1_555 1_555
O6 N2_3 1_555 1_555
N2_4 O4 1_555 1_555
N2_5 O4_2 1_555 1_555
O5_2 N2_5 1_555 1_555
O6_2 N2_5 1_555 1_555
N2_6 O4_3 1_555 1_555
O5_3 N2_6 1_555 1_555
O6_3 N2_6 1_555 1_555
N2_7 O4_4 1_555 1_555
O6_4 N2_8 1_555 1_555
O5_4 N2_10 1_555 1_555
N2_11 O4_5 1_555 1_555
O5_5 N2_11 1_555 1_555
O6_5 N2_11 1_555 1_555
N2_12 O4_6 1_555 1_555
O5_6 N2_12 1_555 1_555
O6_6 N2_12 1_555 1_555
Gd2 O37 1_555 1_555
Cu10 O78 1_555 1_555
Cu14 O46 1_555 1_555
Cu21 N12 1_555 1_555
Na4 O27 1_555 1_555
Na8 O68 1_555 1_555
Na14 O49 1_555 1_555
Na17 O68 1_555 1_555
N9 H19 1_555 1_555
N12 H22 1_555 1_555
C20 N9 1_555 1_555
H29 C20 1_555 1_555
H34 C20 1_555 1_555
C25 H39 1_555 1_555
H44 C25 1_555 1_555
H49 C25 1_555 1_555
C30 N9 1_555 1_555
H54 C30 1_555 1_555
C35 C30 1_555 1_555
C38 C43 1_555 1_555
C43 N12 1_555 1_555
H57 C43 1_555 1_555
H62 C43 1_555 1_555
C48 N12 1_555 1_555
H67 C48 1_555 1_555
C58 C48 1_555 1_555
O27 C11 1_555 1_555
O32 Cu24 1_555 1_555
O37 Cu24 1_555 1_555
O46 C35 1_555 1_555
O49 C38 1_555 1_555
O54 Cu21 1_555 1_555
O59 Gd2 1_555 1_555
O64 C58 1_555 1_555
O68 Gd2 1_555 1_555
O72 Na4 1_555 1_555
O78 Gd2 1_555 1_555
O84 Gd2 1_555 1_555
O92 Gd2 1_555 1_555
O104 Na4 1_555 1_555
O110 Na14 1_555 1_555
O114 Na4 1_555 1_555
O119 Na4 1_555 1_555
O124 Gd2 1_555 1_555
O128 Na4 1_555 1_555
O133 Gd2 1_555 1_555
O138 Na14 1_555 1_555
O143 Cu21 1_555 1_555
Cu10 O92 1_555 1_555
Cu14 O84 1_555 1_555
Cu14 O92 1_555 1_555
Cu14 O102 1_555 1_555
Cu21 O59 1_555 1_555
Cu21 O68 1_555 1_555
Cu24 O68 1_555 1_555
Cu24 O143 1_555 1_555
Na8 O124 1_555 1_555
Na14 O72 1_555 1_555
Na14 O104 1_555 1_555
Na14 O119 1_555 1_555
Na17 O133 1_555 1_555
C11 O32 1_555 1_555
C25 C30 1_555 1_555
C38 O54 1_555 1_555
C58 O59 1_555 1_555
H74 C55 1_555 1_555
H79 C55 1_555 1_555
Cu7 O94 1_555 1_555
Cu18 O89 1_555 1_555
Cu18 O94 1_555 1_555
N5 H15 1_555 1_555
C16 N5 1_555 1_555
H25 C16 1_555 1_555
H30 C16 1_555 1_555
C21 H35 1_555 1_555
H40 C21 1_555 1_555
H45 C21 1_555 1_555
C26 N5 1_555 1_555
H50 C26 1_555 1_555
C31 C26 1_555 1_555
O42 Cu12 1_555 1_555
O18 Cu5 1_555 1_555
O18 Cu12 1_555 1_555
Cu12 O99 1_555 1_555
C21 C26 1_555 1_555
C31 O42 1_555 1_555
Gd4 O39 1_555 1_555
Cu19 N10 1_555 1_555
Na5 O29 1_555 1_555
Na9 O69 1_555 1_555
Na13 O47 1_555 1_555
Na18 O69 1_555 1_555
N10 H20 1_555 1_555
C36 C41 1_555 1_555
C41 N10 1_555 1_555
H55 C41 1_555 1_555
H60 C41 1_555 1_555
C46 N10 1_555 1_555
H65 C46 1_555 1_555
H72 C53 1_555 1_555
H77 C53 1_555 1_555
C56 C46 1_555 1_555
O29 C13 1_555 1_555
O34 Cu26 1_555 1_555
O39 Cu26 1_555 1_555
O47 C36 1_555 1_555
O52 Cu19 1_555 1_555
O57 Gd4 1_555 1_555
O69 Gd4 1_555 1_555
O73 Na5 1_555 1_555
O77 Gd4 1_555 1_555
O86 Gd4 1_555 1_555
O105 Na5 1_555 1_555
O109 Na13 1_555 1_555
O115 Na5 1_555 1_555
O120 Na5 1_555 1_555
O125 Gd4 1_555 1_555
O129 Na5 1_555 1_555
O134 Gd4 1_555 1_555
O137 Na13 1_555 1_555
O141 Cu19 1_555 1_555
Cu19 O57 1_555 1_555
Cu19 O69 1_555 1_555
Cu26 O69 1_555 1_555
Cu26 O141 1_555 1_555
Na9 O125 1_555 1_555
Na13 O73 1_555 1_555
Na13 O105 1_555 1_555
Na13 O120 1_555 1_555
Na18 O134 1_555 1_555
C13 O34 1_555 1_555
C36 O52 1_555 1_555
C56 O57 1_555 1_555
C56 O62 1_555 1_555
Gd6 O41 1_555 1_555
Cu23 N14 1_555 1_555
Na7 O31 1_555 1_555
Na11 O71 1_555 1_555
Na16 O51 1_555 1_555
Na20 O71 1_555 1_555
N14 H24 1_555 1_555
C40 C45 1_555 1_555
C45 N14 1_555 1_555
H59 C45 1_555 1_555
H64 C45 1_555 1_555
C50 N14 1_555 1_555
H69 C50 1_555 1_555
H73 C54 1_555 1_555
H78 C54 1_555 1_555
C60 C50 1_555 1_555
O31 C15 1_555 1_555
O36 Cu28 1_555 1_555
O41 Cu28 1_555 1_555
O51 C40 1_555 1_555
O56 Cu23 1_555 1_555
O61 Gd6 1_555 1_555
O66 C60 1_555 1_555
O71 Gd6 1_555 1_555
O75 Na7 1_555 1_555
O80 Gd6 1_555 1_555
O107 Na7 1_555 1_555
O112 Na16 1_555 1_555
O117 Na7 1_555 1_555
O122 Na7 1_555 1_555
O127 Gd6 1_555 1_555
O131 Na7 1_555 1_555
O136 Gd6 1_555 1_555
O140 Na16 1_555 1_555
O145 Cu23 1_555 1_555
Gd6 O83 1_555 1_555
Cu23 O61 1_555 1_555
Cu23 O71 1_555 1_555
Cu28 O71 1_555 1_555
Cu28 O145 1_555 1_555
Na11 O127 1_555 1_555
Na16 O75 1_555 1_555
Na16 O107 1_555 1_555
Na16 O122 1_555 1_555
Na20 O136 1_555 1_555
C15 O36 1_555 1_555
C40 O56 1_555 1_555
C60 O61 1_555 1_555
Cu16 O45 1_555 1_555
N8 H18 1_555 1_555
C19 N8 1_555 1_555
H28 C19 1_555 1_555
H33 C19 1_555 1_555
C24 H38 1_555 1_555
H43 C24 1_555 1_555
H48 C24 1_555 1_555
C29 N8 1_555 1_555
H53 C29 1_555 1_555
C34 C29 1_555 1_555
O45 C34 1_555 1_555
O97 Cu9 1_555 1_555
Cu16 O97 1_555 1_555
Cu16 O101 1_555 1_555
C24 C29 1_555 1_555
Gd1 O9 1_555 1_555
Cu2 O10 1_555 1_555
Cu3 N4 1_555 1_555
Cu4 N3 1_555 1_555
Na1 O7 1_555 1_555
Na2 O11 1_555 1_555
N3 H1 1_555 1_555
N4 H2 1_555 1_555
C1 C2 1_555 1_555
C2 N3 1_555 1_555
H3 C2 1_555 1_555
H4 C2 1_555 1_555
C3 H5 1_555 1_555
H6 C3 1_555 1_555
H7 C3 1_555 1_555
C4 N3 1_555 1_555
H8 C4 1_555 1_555
C5 C4 1_555 1_555
C6 C7 1_555 1_555
C7 N4 1_555 1_555
H9 C7 1_555 1_555
H10 C7 1_555 1_555
C8 N4 1_555 1_555
H11 C8 1_555 1_555
C10 C8 1_555 1_555
O7 C1 1_555 1_555
O8 Cu4 1_555 1_555
O9 Cu4 1_555 1_555
O10 C5 1_555 1_555
O11 C6 1_555 1_555
O12 Cu3 1_555 1_555
O13 Gd1 1_555 1_555
O14 C10 1_555 1_555
O15 Gd1 1_555 1_555
O16 Gd1 1_555 1_555
O17 Gd1 1_555 1_555
O19 Gd1 1_555 1_555
O20 Na1 1_555 1_555
O21 Na2 1_555 1_555
O22 Na1 1_555 1_555
O23 Na1 1_555 1_555
O24 Gd1 1_555 1_555
O25 Gd1 1_555 1_555
O26 Cu3 1_555 1_555
Gd3 O38 1_555 1_555
Cu6 O63 1_555 1_555
Cu11 O79 1_555 1_555
Cu13 O43 1_555 1_555
Cu17 O85 1_555 1_555
Cu20 N11 1_555 1_555
Cu25 N6 1_555 1_555
Na3 O15 1_555 1_555
Na12 O15 1_555 1_555
N6 H16 1_555 1_555
N11 H21 1_555 1_555
C12 C17 1_555 1_555
C17 N6 1_555 1_555
H26 C17 1_555 1_555
H31 C17 1_555 1_555
C22 H36 1_555 1_555
H41 C22 1_555 1_555
H46 C22 1_555 1_555
C27 N6 1_555 1_555
H51 C27 1_555 1_555
C32 C27 1_555 1_555
C37 C42 1_555 1_555
C42 N11 1_555 1_555
H56 C42 1_555 1_555
H61 C42 1_555 1_555
C47 N11 1_555 1_555
H66 C47 1_555 1_555
C52 C47 1_555 1_555
H70 C51 1_555 1_555
H71 C52 1_555 1_555
H75 C51 1_555 1_555
H76 C52 1_555 1_555
H81 C52 1_555 1_555
C57 C47 1_555 1_555
O28 Na3 1_555 1_555
O33 Cu25 1_555 1_555
O38 Cu25 1_555 1_555
O43 C32 1_555 1_555
O48 Na12 1_555 1_555
O53 Cu20 1_555 1_555
O58 Gd3 1_555 1_555
O63 C57 1_555 1_555
O67 Na1 1_555 1_555
O79 Gd3 1_555 1_555
O81 Cu6 1_555 1_555
O85 Gd3 1_555 1_555
O88 Cu13 1_555 1_555
O91 Cu2 1_555 1_555
O93 Gd3 1_555 1_555
O95 Cu6 1_555 1_555
O96 Cu13 1_555 1_555
O100 Gd3 1_555 1_555
O108 Na12 1_555 1_555
O113 Na3 1_555 1_555
O118 Na3 1_555 1_555
O123 Na1 1_555 1_555
O132 Na2 1_555 1_555
O142 Cu20 1_555 1_555
Cu2 O17 1_555 1_555
Cu2 O19 1_555 1_555
Cu3 O13 1_555 1_555
Cu3 O15 1_555 1_555
Cu4 O15 1_555 1_555
Cu4 O26 1_555 1_555
Na2 O20 1_555 1_555
Na2 O23 1_555 1_555
Na2 O67 1_555 1_555
C1 O8 1_555 1_555
C3 C4 1_555 1_555
C5 O9 1_555 1_555
C6 O12 1_555 1_555
C10 O13 1_555 1_555
O24 Na3 1_555 1_555
O25 Na12 1_555 1_555
Gd3 O67 1_555 1_555
Gd3 O123 1_555 1_555
Gd3 O132 1_555 1_555
Cu6 O79 1_555 1_555
Cu6 O100 1_555 1_555
Cu8 O91 1_555 1_555
Cu11 O93 1_555 1_555
Cu13 O85 1_555 1_555
Cu13 O100 1_555 1_555
Cu17 O93 1_555 1_555
Cu20 O58 1_555 1_555
Cu20 O67 1_555 1_555
Cu25 O67 1_555 1_555
Cu25 O142 1_555 1_555
Na12 O118 1_555 1_555
C12 O28 1_555 1_555
C12 O33 1_555 1_555
C22 C27 1_555 1_555
C32 O38 1_555 1_555
C37 O48 1_555 1_555
C37 O53 1_555 1_555
C57 O58 1_555 1_555
H12 C9 1_555 1_555
H13 C9 1_555 1_555
Gd5 O40 1_555 1_555
Cu15 O44 1_555 1_555
Cu22 N13 1_555 1_555
Na6 O30 1_555 1_555
Na10 O70 1_555 1_555
Na15 O50 1_555 1_555
Na19 O70 1_555 1_555
N7 H17 1_555 1_555
N13 H23 1_555 1_555
C18 N7 1_555 1_555
H27 C18 1_555 1_555
H32 C18 1_555 1_555
C23 H37 1_555 1_555
H42 C23 1_555 1_555
H47 C23 1_555 1_555
C28 N7 1_555 1_555
H52 C28 1_555 1_555
C33 C28 1_555 1_555
C39 C44 1_555 1_555
C44 N13 1_555 1_555
H58 C44 1_555 1_555
H63 C44 1_555 1_555
C49 N13 1_555 1_555
H68 C49 1_555 1_555
C59 C49 1_555 1_555
O30 C14 1_555 1_555
O35 Cu27 1_555 1_555
O40 Cu27 1_555 1_555
O44 C33 1_555 1_555
O50 C39 1_555 1_555
O55 Cu22 1_555 1_555
O60 Gd5 1_555 1_555
O65 C59 1_555 1_555
O70 Gd5 1_555 1_555
O74 Na6 1_555 1_555
O76 Cu1 1_555 1_555
O87 Gd5 1_555 1_555
O90 Cu1 1_555 1_555
O106 Na6 1_555 1_555
O111 Na15 1_555 1_555
O116 Na6 1_555 1_555
O121 Na6 1_555 1_555
O126 Gd5 1_555 1_555
O130 Na6 1_555 1_555
O135 Gd5 1_555 1_555
O139 Na15 1_555 1_555
O144 Cu22 1_555 1_555
Gd5 O76 1_555 1_555
Gd5 O90 1_555 1_555
Cu15 O87 1_555 1_555
Cu15 O90 1_555 1_555
Cu15 O98 1_555 1_555
Cu22 O60 1_555 1_555
Cu22 O70 1_555 1_555
Cu27 O70 1_555 1_555
Cu27 O144 1_555 1_555
Na10 O126 1_555 1_555
Na15 O74 1_555 1_555
Na15 O106 1_555 1_555
Na15 O121 1_555 1_555
Na19 O135 1_555 1_555
C14 O35 1_555 1_555
C23 C28 1_555 1_555
C39 O55 1_555 1_555
C59 O60 1_555 1_555
Gd3_2 O38_2 1_555 1_555
Cu6_2 O63_2 1_555 1_555
Cu11_2 O79_2 1_555 1_555
Cu17 O43_2 1_555 1_555
Cu17_2 O85_2 1_555 1_555
Cu20_2 N11_2 1_555 1_555
Cu25_2 N6_2 1_555 1_555
N6_2 H16_2 1_555 1_555
N11_2 H21_2 1_555 1_555
C12_2 C17_2 1_555 1_555
C17_2 N6_2 1_555 1_555
H26_2 C17_2 1_555 1_555
H31_2 C17_2 1_555 1_555
C22_2 H36_2 1_555 1_555
H41_2 C22_2 1_555 1_555
H46_2 C22_2 1_555 1_555
C27_2 N6_2 1_555 1_555
H51_2 C27_2 1_555 1_555
C32_2 C27_2 1_555 1_555
C37_2 C42_2 1_555 1_555
C42_2 N11_2 1_555 1_555
H56_2 C42_2 1_555 1_555
H61_2 C42_2 1_555 1_555
C47_2 N11_2 1_555 1_555
H66_2 C47_2 1_555 1_555
C52_2 C47_2 1_555 1_555
H70_2 C51_2 1_555 1_555
H71_2 C52_2 1_555 1_555
H75_2 C51_2 1_555 1_555
H76_2 C52_2 1_555 1_555
H81_2 C52_2 1_555 1_555
C57_2 C47_2 1_555 1_555
O28_2 Na8 1_555 1_555
O33_2 Cu25_2 1_555 1_555
O38_2 Cu25_2 1_555 1_555
O43_2 C32_2 1_555 1_555
O48_2 Na17 1_555 1_555
O53_2 Cu20_2 1_555 1_555
O58_2 Gd3_2 1_555 1_555
O63_2 C57_2 1_555 1_555
O79_2 Gd3_2 1_555 1_555
O81_2 Cu6_2 1_555 1_555
O85_2 Gd3_2 1_555 1_555
O93_2 Gd3_2 1_555 1_555
O95_2 Cu6_2 1_555 1_555
O100_2 Gd3_2 1_555 1_555
O103_2 Na8 1_555 1_555
O108_2 Na17 1_555 1_555
O113_2 Na8 1_555 1_555
O118_2 Na8 1_555 1_555
O142_2 Cu20_2 1_555 1_555
Gd3_2 O72 1_555 1_555
Gd3_2 O128 1_555 1_555
Gd3_2 O138 1_555 1_555
Cu6_2 O79_2 1_555 1_555
Cu6_2 O100_2 1_555 1_555
Cu11_2 O93_2 1_555 1_555
Cu17 O85_2 1_555 1_555
Cu17 O100_2 1_555 1_555
Cu17_2 O93_2 1_555 1_555
Cu20_2 O58_2 1_555 1_555
Cu20_2 O72 1_555 1_555
Cu25_2 O72 1_555 1_555
Cu25_2 O142_2 1_555 1_555
Na17 O103_2 1_555 1_555
Na17 O118_2 1_555 1_555
C12_2 O28_2 1_555 1_555
C12_2 O33_2 1_555 1_555
C22_2 C27_2 1_555 1_555
C32_2 O38_2 1_555 1_555
C37_2 O48_2 1_555 1_555
C37_2 O53_2 1_555 1_555
C57_2 O58_2 1_555 1_555
Gd4_2 O39_2 1_555 1_555
Cu18 O44_2 1_555 1_555
Cu19_2 N10_2 1_555 1_555
Cu26_2 N7_2 1_555 1_555
Na5_2 O29_2 1_555 1_555
Na9_2 O69_2 1_555 1_555
Na13_2 O47_2 1_555 1_555
Na18_2 O69_2 1_555 1_555
N7_2 H17_2 1_555 1_555
N10_2 H20_2 1_555 1_555
C13_2 C18_2 1_555 1_555
C18_2 N7_2 1_555 1_555
H27_2 C18_2 1_555 1_555
H32_2 C18_2 1_555 1_555
C23_2 H37_2 1_555 1_555
H42_2 C23_2 1_555 1_555
H47_2 C23_2 1_555 1_555
C28_2 N7_2 1_555 1_555
H52_2 C28_2 1_555 1_555
C33_2 C28_2 1_555 1_555
C36_2 C41_2 1_555 1_555
C41_2 N10_2 1_555 1_555
H55_2 C41_2 1_555 1_555
H60_2 C41_2 1_555 1_555
C46_2 N10_2 1_555 1_555
H65_2 C46_2 1_555 1_555
C56_2 C46_2 1_555 1_555
O29_2 C13_2 1_555 1_555
O34_2 Cu26_2 1_555 1_555
O39_2 Cu26_2 1_555 1_555
O44_2 C33_2 1_555 1_555
O47_2 C36_2 1_555 1_555
O52_2 Cu19_2 1_555 1_555
O57_2 Gd4_2 1_555 1_555
O69_2 Gd4_2 1_555 1_555
O73_2 Na5_2 1_555 1_555
O82 Gd4_2 1_555 1_555
O89 Gd4_2 1_555 1_555
O98_2 Gd4_2 1_555 1_555
O105_2 Na5_2 1_555 1_555
O109_2 Na13_2 1_555 1_555
O115_2 Na5_2 1_555 1_555
O120_2 Na5_2 1_555 1_555
O125_2 Gd4_2 1_555 1_555
O129_2 Na5_2 1_555 1_555
O134_2 Gd4_2 1_555 1_555
O137_2 Na13_2 1_555 1_555
O141_2 Cu19_2 1_555 1_555
Cu18 O98_2 1_555 1_555
Cu19_2 O57_2 1_555 1_555
Cu19_2 O69_2 1_555 1_555
Cu26_2 O69_2 1_555 1_555
Cu26_2 O141_2 1_555 1_555
Na9_2 O125_2 1_555 1_555
Na13_2 O73_2 1_555 1_555
Na13_2 O105_2 1_555 1_555
Na13_2 O120_2 1_555 1_555
Na18_2 O134_2 1_555 1_555
C13_2 O34_2 1_555 1_555
C23_2 C28_2 1_555 1_555
C33_2 O39_2 1_555 1_555
C36_2 O52_2 1_555 1_555
C56_2 O57_2 1_555 1_555
C56_2 O62_2 1_555 1_555
Gd3_3 O38_3 1_555 1_555
Cu6_3 O63_3 1_555 1_555
Cu11_3 O79_3 1_555 1_555
Cu17_2 O43_3 1_555 1_555
Cu20_3 N11_3 1_555 1_555
Cu25_3 N6_3 1_555 1_555
N6_3 H16_3 1_555 1_555
N11_3 H21_3 1_555 1_555
C12_3 C17_3 1_555 1_555
C17_3 N6_3 1_555 1_555
H26_3 C17_3 1_555 1_555
H31_3 C17_3 1_555 1_555
C22_3 H36_3 1_555 1_555
H41_3 C22_3 1_555 1_555
H46_3 C22_3 1_555 1_555
C27_3 N6_3 1_555 1_555
H51_3 C27_3 1_555 1_555
C32_3 C27_3 1_555 1_555
C37_3 C42_3 1_555 1_555
C42_3 N11_3 1_555 1_555
H56_3 C42_3 1_555 1_555
H61_3 C42_3 1_555 1_555
C47_3 N11_3 1_555 1_555
H66_3 C47_3 1_555 1_555
C52_3 C47_3 1_555 1_555
H71_3 C52_3 1_555 1_555
H76_3 C52_3 1_555 1_555
H81_3 C52_3 1_555 1_555
C57_3 C47_3 1_555 1_555
O28_3 Na11 1_555 1_555
O33_3 Cu25_3 1_555 1_555
O38_3 Cu25_3 1_555 1_555
O43_3 C32_3 1_555 1_555
O48_3 Na20 1_555 1_555
O53_3 Cu20_3 1_555 1_555
O58_3 Gd3_3 1_555 1_555
O63_3 C57_3 1_555 1_555
O79_3 Gd3_3 1_555 1_555
O81_3 Cu6_3 1_555 1_555
O88 Gd3_3 1_555 1_555
O96 Gd3_3 1_555 1_555
O95_3 Cu6_3 1_555 1_555
O100_3 Gd3_3 1_555 1_555
O108_3 Na20 1_555 1_555
O113_3 Na11 1_555 1_555
O118_3 Na11 1_555 1_555
O142_3 Cu20_3 1_555 1_555
Gd3_3 O75 1_555 1_555
Gd3_3 O131 1_555 1_555
Gd3_3 O140 1_555 1_555
Cu6_3 O79_3 1_555 1_555
Cu6_3 O100_3 1_555 1_555
Cu11_3 O96 1_555 1_555
Cu17_2 O88 1_555 1_555
Cu17_2 O100_3 1_555 1_555
Cu20_3 O58_3 1_555 1_555
Cu20_3 O75 1_555 1_555
Cu25_3 O75 1_555 1_555
Cu25_3 O142_3 1_555 1_555
Na20 O118_3 1_555 1_555
C12_3 O28_3 1_555 1_555
C12_3 O33_3 1_555 1_555
C22_3 C27_3 1_555 1_555
C32_3 O38_3 1_555 1_555
C37_3 O48_3 1_555 1_555
C37_3 O53_3 1_555 1_555
C57_3 O58_3 1_555 1_555
Na14_2 O49_2 1_555 1_555
C38_2 C43_2 1_555 1_555
H57_2 C43_2 1_555 1_555
H62_2 C43_2 1_555 1_555
O49_2 C38_2 1_555 1_555
O72_2 Na4_2 1_555 1_555
O104_2 Na4_2 1_555 1_555
O110_2 Na14_2 1_555 1_555
O114_2 Na4_2 1_555 1_555
O119_2 Na4_2 1_555 1_555
O128_2 Na4_2 1_555 1_555
O138_2 Na14_2 1_555 1_555
Na14_2 O72_2 1_555 1_555
Na14_2 O104_2 1_555 1_555
Na14_2 O119_2 1_555 1_555
C38_2 O54_2 1_555 1_555
O114_2 H106 1_555 1_555
Gd1_2 O9_2 1_555 1_555
Cu11_2 O14_2 1_555 1_555
Cu2_2 O10_2 1_555 1_555
Cu3_2 N4_2 1_555 1_555
Cu4_2 N3_2 1_555 1_555
N3_2 H1_2 1_555 1_555
N4_2 H2_2 1_555 1_555
C1_2 C2_2 1_555 1_555
C2_2 N3_2 1_555 1_555
H3_2 C2_2 1_555 1_555
H4_2 C2_2 1_555 1_555
C3_2 H5_2 1_555 1_555
H6_2 C3_2 1_555 1_555
H7_2 C3_2 1_555 1_555
C4_2 N3_2 1_555 1_555
H8_2 C4_2 1_555 1_555
C5_2 C4_2 1_555 1_555
C8_2 N4_2 1_555 1_555
H11_2 C8_2 1_555 1_555
C9_2 C8_2 1_555 1_555
H12_2 C9_2 1_555 1_555
H13_2 C9_2 1_555 1_555
H14_2 C9_2 1_555 1_555
C10_2 C8_2 1_555 1_555
O7_2 C1_2 1_555 1_555
O8_2 Cu4_2 1_555 1_555
O9_2 Cu4_2 1_555 1_555
O10_2 C5_2 1_555 1_555
O13_2 Gd1_2 1_555 1_555
O14_2 C10_2 1_555 1_555
O15_2 Gd1_2 1_555 1_555
O81_3 Gd1_2 1_555 1_555
O17_2 Gd1_2 1_555 1_555
O95_3 Gd1_2 1_555 1_555
O19_2 Gd1_2 1_555 1_555
O24_2 Gd1_2 1_555 1_555
O25_2 Gd1_2 1_555 1_555
O26_2 Cu3_2 1_555 1_555
Gd2_2 O37_2 1_555 1_555
Gd6_2 O41_2 1_555 1_555
Cu11_3 O64_2 1_555 1_555
Cu11 O66_2 1_555 1_555
Cu12_2 O17_2 1_555 1_555
Cu14_2 O46_2 1_555 1_555
Cu21_2 N12_2 1_555 1_555
Cu23_2 N14_2 1_555 1_555
Cu24_2 N5_2 1_555 1_555
Cu28_2 N9_2 1_555 1_555
Na3_2 O15_2 1_555 1_555
Na7_2 O31_2 1_555 1_555
Na8_2 O68_2 1_555 1_555
Na11_2 O71_2 1_555 1_555
Na12_2 O15_2 1_555 1_555
Na16_2 O51_2 1_555 1_555
Na17_2 O68_2 1_555 1_555
Na20_2 O71_2 1_555 1_555
N5_2 H15_2 1_555 1_555
N9_2 H19_2 1_555 1_555
N12_2 H22_2 1_555 1_555
N14_2 H24_2 1_555 1_555
C11_2 C16_2 1_555 1_555
C15_2 C20_2 1_555 1_555
C16_2 N5_2 1_555 1_555
C20_2 N9_2 1_555 1_555
H25_2 C16_2 1_555 1_555
H29_2 C20_2 1_555 1_555
H30_2 C16_2 1_555 1_555
H34_2 C20_2 1_555 1_555
C21_2 H35_2 1_555 1_555
C25_2 H39_2 1_555 1_555
H40_2 C21_2 1_555 1_555
H44_2 C25_2 1_555 1_555
H45_2 C21_2 1_555 1_555
H49_2 C25_2 1_555 1_555
C26_2 N5_2 1_555 1_555
C30_2 N9_2 1_555 1_555
H50_2 C26_2 1_555 1_555
H54_2 C30_2 1_555 1_555
C31_2 C26_2 1_555 1_555
C35_2 C30_2 1_555 1_555
C37_4 C42_4 1_555 1_555
C40_2 C45_2 1_555 1_555
C45_2 N14_2 1_555 1_555
H56_4 C42_4 1_555 1_555
H59_2 C45_2 1_555 1_555
H61_4 C42_4 1_555 1_555
H64_2 C45_2 1_555 1_555
C48_2 N12_2 1_555 1_555
C50_2 N14_2 1_555 1_555
H67_2 C48_2 1_555 1_555
H69_2 C50_2 1_555 1_555
C53_2 C48_2 1_555 1_555
C55_2 C50_2 1_555 1_555
H72_2 C53_2 1_555 1_555
H74_2 C55_2 1_555 1_555
H77_2 C53_2 1_555 1_555
H79_2 C55_2 1_555 1_555
H82_2 C53_2 1_555 1_555
H84_2 C55_2 1_555 1_555
C58_2 C48_2 1_555 1_555
C60_2 C50_2 1_555 1_555
O27_2 C11_2 1_555 1_555
O31_2 C15_2 1_555 1_555
O32_2 Cu24_2 1_555 1_555
O36_2 Cu28_2 1_555 1_555
O37_2 Cu24_2 1_555 1_555
O41_2 Cu28_2 1_555 1_555
O42_2 Cu12_2 1_555 1_555
O46_2 C35_2 1_555 1_555
O48_4 Na12_2 1_555 1_555
O51_2 C40_2 1_555 1_555
O56_2 Cu23_2 1_555 1_555
O59_2 Gd2_2 1_555 1_555
O61_2 Gd6_2 1_555 1_555
O64_2 C58_2 1_555 1_555
O66_2 C60_2 1_555 1_555
O68_2 Gd2_2 1_555 1_555
O71_2 Gd6_2 1_555 1_555
O75_2 Na7_2 1_555 1_555
O81 Gd2_2 1_555 1_555
O81_2 Gd6_2 1_555 1_555
O83_2 Cu2_2 1_555 1_555
O84_2 Gd2_2 1_555 1_555
O95_2 Cu2_2 1_555 1_555
O95 Gd2_2 1_555 1_555
O99_2 Gd2_2 1_555 1_555
O102_2 Gd6_2 1_555 1_555
O103_4 Na3_2 1_555 1_555
O107_2 Na7_2 1_555 1_555
O108_4 Na12_2 1_555 1_555
O112_2 Na16_2 1_555 1_555
O113_4 Na3_2 1_555 1_555
O117_2 Na7_2 1_555 1_555
O118_4 Na3_2 1_555 1_555
O122_2 Na7_2 1_555 1_555
O124_2 Gd2_2 1_555 1_555
O127_2 Gd6_2 1_555 1_555
O131_2 Na7_2 1_555 1_555
O133_2 Gd2_2 1_555 1_555
O136_2 Gd6_2 1_555 1_555
O140_2 Na16_2 1_555 1_555
O143_2 Cu21_2 1_555 1_555
O145_2 Cu23_2 1_555 1_555
Cu11_2 O81_3 1_555 1_555
Cu11_2 O19_2 1_555 1_555
Cu2_2 O17_2 1_555 1_555
Cu2_2 O19_2 1_555 1_555
Cu3_2 O13_2 1_555 1_555
Cu3_2 O15_2 1_555 1_555
Cu4_2 O15_2 1_555 1_555
Cu4_2 O26_2 1_555 1_555
C1_2 O8_2 1_555 1_555
C3_2 C4_2 1_555 1_555
C5_2 O9_2 1_555 1_555
C10_2 O13_2 1_555 1_555
O95_3 Cu12_2 1_555 1_555
O24_2 Na3_2 1_555 1_555
O25_2 Na12_2 1_555 1_555
Gd6_2 O83_2 1_555 1_555
Gd6_2 O95_2 1_555 1_555
Cu11_3 O81 1_555 1_555
Cu11_3 O99_2 1_555 1_555
Cu11 O81_2 1_555 1_555
Cu11 O102_2 1_555 1_555
Cu12_2 O84_2 1_555 1_555
Cu12_2 O99_2 1_555 1_555
Cu14_2 O83_2 1_555 1_555
Cu14_2 O84_2 1_555 1_555
Cu14_2 O95 1_555 1_555
Cu14_2 O102_2 1_555 1_555
Cu21_2 O59_2 1_555 1_555
Cu21_2 O68_2 1_555 1_555
Cu23_2 O61_2 1_555 1_555
Cu23_2 O71_2 1_555 1_555
Cu24_2 O68_2 1_555 1_555
Cu24_2 O143_2 1_555 1_555
Cu28_2 O71_2 1_555 1_555
Cu28_2 O145_2 1_555 1_555
Na8_2 O124_2 1_555 1_555
Na11_2 O127_2 1_555 1_555
Na12_2 O103_4 1_555 1_555
Na12_2 O118_4 1_555 1_555
Na16_2 O75_2 1_555 1_555
Na16_2 O107_2 1_555 1_555
Na16_2 O122_2 1_555 1_555
Na17_2 O133_2 1_555 1_555
Na20_2 O136_2 1_555 1_555
C11_2 O32_2 1_555 1_555
C15_2 O36_2 1_555 1_555
C21_2 C26_2 1_555 1_555
C25_2 C30_2 1_555 1_555
C31_2 O37_2 1_555 1_555
C31_2 O42_2 1_555 1_555
C35_2 O41_2 1_555 1_555
C37_4 O48_4 1_555 1_555
C37_4 O53_4 1_555 1_555
C40_2 O56_2 1_555 1_555
C58_2 O59_2 1_555 1_555
C60_2 O61_2 1_555 1_555
O113_4 H91 1_555 1_555
Na2_2 O11_2 1_555 1_555
C6_2 C7_2 1_555 1_555
H9_2 C7_2 1_555 1_555
H10_2 C7_2 1_555 1_555
O11_2 C6_2 1_555 1_555
O20_2 Na1_2 1_555 1_555
O21_2 Na2_2 1_555 1_555
O22_2 Na1_2 1_555 1_555
O23_2 Na1_2 1_555 1_555
Gd3_4 O38_4 1_555 1_555
Cu6_4 O63_4 1_555 1_555
Cu11_4 O79_4 1_555 1_555
Cu13_2 O43_4 1_555 1_555
Cu17_3 O85_3 1_555 1_555
Cu20_4 N11_4 1_555 1_555
Cu25_4 N6_4 1_555 1_555
N6_4 H16_4 1_555 1_555
N11_4 H21_4 1_555 1_555
C12_4 C17_4 1_555 1_555
C17_4 N6_4 1_555 1_555
H26_4 C17_4 1_555 1_555
H31_4 C17_4 1_555 1_555
C22_4 H36_4 1_555 1_555
H41_4 C22_4 1_555 1_555
H46_4 C22_4 1_555 1_555
C27_4 N6_4 1_555 1_555
H51_4 C27_4 1_555 1_555
C32_4 C27_4 1_555 1_555
C47_4 N11_4 1_555 1_555
H66_4 C47_4 1_555 1_555
C52_4 C47_4 1_555 1_555
H71_4 C52_4 1_555 1_555
H76_4 C52_4 1_555 1_555
H81_4 C52_4 1_555 1_555
C57_4 C47_4 1_555 1_555
O33_4 Cu25_4 1_555 1_555
O38_4 Cu25_4 1_555 1_555
O43_4 C32_4 1_555 1_555
O58_4 Gd3_4 1_555 1_555
O63_4 C57_4 1_555 1_555
O67_2 Na1_2 1_555 1_555
O79_4 Gd3_4 1_555 1_555
O81_4 Cu6_4 1_555 1_555
O85_3 Gd3_4 1_555 1_555
O88_2 Cu13_2 1_555 1_555
O93_3 Gd3_4 1_555 1_555
O95_4 Cu6_4 1_555 1_555
O96_2 Cu13_2 1_555 1_555
O100_4 Gd3_4 1_555 1_555
O123_2 Na1_2 1_555 1_555
O132_2 Na2_2 1_555 1_555
O142_4 Cu20_4 1_555 1_555
Na2_2 O20_2 1_555 1_555
Na2_2 O23_2 1_555 1_555
Na2_2 O67_2 1_555 1_555
C6_2 O12_2 1_555 1_555
Gd3_4 O67_2 1_555 1_555
Gd3_4 O123_2 1_555 1_555
Gd3_4 O132_2 1_555 1_555
Cu6_4 O79_4 1_555 1_555
Cu6_4 O100_4 1_555 1_555
Cu11_4 O93_3 1_555 1_555
Cu13_2 O85_3 1_555 1_555
Cu13_2 O100_4 1_555 1_555
Cu17_3 O93_3 1_555 1_555
Cu20_4 O58_4 1_555 1_555
Cu20_4 O67_2 1_555 1_555
Cu25_4 O67_2 1_555 1_555
Cu25_4 O142_4 1_555 1_555
C12_4 O28_4 1_555 1_555
C12_4 O33_4 1_555 1_555
C22_4 C27_4 1_555 1_555
C32_4 O38_4 1_555 1_555
C57_4 O58_4 1_555 1_555
O22_2 H86 1_555 1_555
Gd3_5 O38_5 1_555 1_555
Cu6_5 O63_5 1_555 1_555
Cu11_5 O79_5 1_555 1_555
Cu17_3 O43_5 1_555 1_555
Cu17_4 O85_4 1_555 1_555
Cu20_5 N11_5 1_555 1_555
Cu25_5 N6_5 1_555 1_555
N6_5 H16_5 1_555 1_555
N11_5 H21_5 1_555 1_555
C12_5 C17_5 1_555 1_555
C17_5 N6_5 1_555 1_555
H26_5 C17_5 1_555 1_555
H31_5 C17_5 1_555 1_555
C22_5 H36_5 1_555 1_555
H41_5 C22_5 1_555 1_555
H46_5 C22_5 1_555 1_555
C27_5 N6_5 1_555 1_555
H51_5 C27_5 1_555 1_555
C32_5 C27_5 1_555 1_555
C47_5 N11_5 1_555 1_555
H66_5 C47_5 1_555 1_555
C52_5 C47_5 1_555 1_555
H71_5 C52_5 1_555 1_555
H76_5 C52_5 1_555 1_555
H81_5 C52_5 1_555 1_555
C57_5 C47_5 1_555 1_555
O33_5 Cu25_5 1_555 1_555
O38_5 Cu25_5 1_555 1_555
O43_5 C32_5 1_555 1_555
O58_5 Gd3_5 1_555 1_555
O63_5 C57_5 1_555 1_555
O79_5 Gd3_5 1_555 1_555
O81_5 Cu6_5 1_555 1_555
O85_4 Gd3_5 1_555 1_555
O93_4 Gd3_5 1_555 1_555
O95_5 Cu6_5 1_555 1_555
O100_5 Gd3_5 1_555 1_555
O142_5 Cu20_5 1_555 1_555
Gd3_5 O72_2 1_555 1_555
Gd3_5 O128_2 1_555 1_555
Gd3_5 O138_2 1_555 1_555
Cu6_5 O79_5 1_555 1_555
Cu6_5 O100_5 1_555 1_555
Cu11_5 O93_4 1_555 1_555
Cu17_3 O85_4 1_555 1_555
Cu17_3 O100_5 1_555 1_555
Cu17_4 O93_4 1_555 1_555
Cu20_5 O58_5 1_555 1_555
Cu20_5 O72_2 1_555 1_555
Cu25_5 O72_2 1_555 1_555
Cu25_5 O142_5 1_555 1_555
C12_5 O28_5 1_555 1_555
C12_5 O33_5 1_555 1_555
C22_5 C27_5 1_555 1_555
C32_5 O38_5 1_555 1_555
C57_5 O58_5 1_555 1_555
C37_5 C42_5 1_555 1_555
H56_5 C42_5 1_555 1_555
H61_5 C42_5 1_555 1_555
O48_5 Na17_2 1_555 1_555
O103_5 Na8_2 1_555 1_555
O108_5 Na17_2 1_555 1_555
O113_5 Na8_2 1_555 1_555
O118_5 Na8_2 1_555 1_555
Na17_2 O103_5 1_555 1_555
Na17_2 O118_5 1_555 1_555
C37_5 O48_5 1_555 1_555
C37_5 O53_5 1_555 1_555
O113_5 H91_2 1_555 1_555
Gd3_6 O38_6 1_555 1_555
Cu6_6 O63_6 1_555 1_555
Cu11_6 O79_6 1_555 1_555
Cu17_4 O43_6 1_555 1_555
Cu20_6 N11_6 1_555 1_555
Cu25_6 N6_6 1_555 1_555
N6_6 H16_6 1_555 1_555
N11_6 H21_6 1_555 1_555
C12_6 C17_6 1_555 1_555
C17_6 N6_6 1_555 1_555
H26_6 C17_6 1_555 1_555
H31_6 C17_6 1_555 1_555
C22_6 H36_6 1_555 1_555
H41_6 C22_6 1_555 1_555
H46_6 C22_6 1_555 1_555
C27_6 N6_6 1_555 1_555
H51_6 C27_6 1_555 1_555
C32_6 C27_6 1_555 1_555
C37_6 C42_6 1_555 1_555
C42_6 N11_6 1_555 1_555
H56_6 C42_6 1_555 1_555
H61_6 C42_6 1_555 1_555
C47_6 N11_6 1_555 1_555
H66_6 C47_6 1_555 1_555
C52_6 C47_6 1_555 1_555
H71_6 C52_6 1_555 1_555
H76_6 C52_6 1_555 1_555
H81_6 C52_6 1_555 1_555
C57_6 C47_6 1_555 1_555
O28_6 Na11_2 1_555 1_555
O33_6 Cu25_6 1_555 1_555
O38_6 Cu25_6 1_555 1_555
O43_6 C32_6 1_555 1_555
O48_6 Na20_2 1_555 1_555
O53_6 Cu20_6 1_555 1_555
O58_6 Gd3_6 1_555 1_555
O63_6 C57_6 1_555 1_555
O79_6 Gd3_6 1_555 1_555
O81_6 Cu6_6 1_555 1_555
O88_2 Gd3_6 1_555 1_555
O96_2 Gd3_6 1_555 1_555
O95_6 Cu6_6 1_555 1_555
O100_6 Gd3_6 1_555 1_555
O103_6 Na11_2 1_555 1_555
O108_6 Na20_2 1_555 1_555
O113_6 Na11_2 1_555 1_555
O118_6 Na11_2 1_555 1_555
O142_6 Cu20_6 1_555 1_555
Gd3_6 O75_2 1_555 1_555
Gd3_6 O131_2 1_555 1_555
Gd3_6 O140_2 1_555 1_555
Cu6_6 O79_6 1_555 1_555
Cu6_6 O100_6 1_555 1_555
Cu11_6 O96_2 1_555 1_555
Cu17_4 O88_2 1_555 1_555
Cu17_4 O100_6 1_555 1_555
Cu20_6 O58_6 1_555 1_555
Cu20_6 O75_2 1_555 1_555
Cu25_6 O75_2 1_555 1_555
Cu25_6 O142_6 1_555 1_555
Na20_2 O103_6 1_555 1_555
Na20_2 O118_6 1_555 1_555
C12_6 O28_6 1_555 1_555
C12_6 O33_6 1_555 1_555
C22_6 C27_6 1_555 1_555
C32_6 O38_6 1_555 1_555
C37_6 O48_6 1_555 1_555
C37_6 O53_6 1_555 1_555
C57_6 O58_6 1_555 1_555
Gd1_3 O9_3 1_555 1_555
Cu11_5 O14_3 1_555 1_555
Cu2_3 O10_3 1_555 1_555
Cu3_3 N4_3 1_555 1_555
Cu4_3 N3_3 1_555 1_555
Na9_2 O7_3 1_555 1_555
Na18_2 O11_3 1_555 1_555
N3_3 H1_3 1_555 1_555
N4_3 H2_3 1_555 1_555
C1_3 C2_3 1_555 1_555
C2_3 N3_3 1_555 1_555
H3_3 C2_3 1_555 1_555
H4_3 C2_3 1_555 1_555
C3_3 H5_3 1_555 1_555
H6_3 C3_3 1_555 1_555
H7_3 C3_3 1_555 1_555
C4_3 N3_3 1_555 1_555
H8_3 C4_3 1_555 1_555
C5_3 C4_3 1_555 1_555
C6_3 C7_3 1_555 1_555
C7_3 N4_3 1_555 1_555
H9_3 C7_3 1_555 1_555
H10_3 C7_3 1_555 1_555
C8_3 N4_3 1_555 1_555
H11_3 C8_3 1_555 1_555
C9_3 C8_3 1_555 1_555
H12_3 C9_3 1_555 1_555
H13_3 C9_3 1_555 1_555
H14_3 C9_3 1_555 1_555
C10_3 C8_3 1_555 1_555
O7_3 C1_3 1_555 1_555
O8_3 Cu4_3 1_555 1_555
O9_3 Cu4_3 1_555 1_555
O10_3 C5_3 1_555 1_555
O11_3 C6_3 1_555 1_555
O12_3 Cu3_3 1_555 1_555
O13_3 Gd1_3 1_555 1_555
O14_3 C10_3 1_555 1_555
O73_2 Gd1_3 1_555 1_555
O81_6 Gd1_3 1_555 1_555
O17_3 Gd1_3 1_555 1_555
O95_6 Gd1_3 1_555 1_555
O19_3 Gd1_3 1_555 1_555
O21_3 Na18_2 1_555 1_555
O22_3 Na9_2 1_555 1_555
O23_3 Na9_2 1_555 1_555
O129_2 Gd1_3 1_555 1_555
O137_2 Gd1_3 1_555 1_555
O26_3 Cu3_3 1_555 1_555
Gd2_3 O37_3 1_555 1_555
Gd6_3 O41_3 1_555 1_555
Cu11_6 O64_3 1_555 1_555
Cu11_4 O66_3 1_555 1_555
Cu12_3 O17_3 1_555 1_555
Cu14_3 O46_3 1_555 1_555
Cu21_3 N12_3 1_555 1_555
Cu23_3 N14_3 1_555 1_555
Cu24_3 N5_3 1_555 1_555
Cu28_3 N9_3 1_555 1_555
Na10 O27_3 1_555 1_555
Na9 O31_3 1_555 1_555
Na19 O49_3 1_555 1_555
Na18 O51_3 1_555 1_555
N5_3 H15_3 1_555 1_555
N9_3 H19_3 1_555 1_555
N12_3 H22_3 1_555 1_555
N14_3 H24_3 1_555 1_555
C11_3 C16_3 1_555 1_555
C15_3 C20_3 1_555 1_555
C16_3 N5_3 1_555 1_555
C20_3 N9_3 1_555 1_555
H25_3 C16_3 1_555 1_555
H29_3 C20_3 1_555 1_555
H30_3 C16_3 1_555 1_555
H34_3 C20_3 1_555 1_555
C21_3 H35_3 1_555 1_555
C25_3 H39_3 1_555 1_555
H40_3 C21_3 1_555 1_555
H44_3 C25_3 1_555 1_555
H45_3 C21_3 1_555 1_555
H49_3 C25_3 1_555 1_555
C26_3 N5_3 1_555 1_555
C30_3 N9_3 1_555 1_555
H50_3 C26_3 1_555 1_555
H54_3 C30_3 1_555 1_555
C31_3 C26_3 1_555 1_555
C35_3 C30_3 1_555 1_555
C38_3 C43_3 1_555 1_555
C40_3 C45_3 1_555 1_555
C43_3 N12_3 1_555 1_555
C45_3 N14_3 1_555 1_555
H57_3 C43_3 1_555 1_555
H59_3 C45_3 1_555 1_555
H62_3 C43_3 1_555 1_555
H64_3 C45_3 1_555 1_555
C48_3 N12_3 1_555 1_555
C50_3 N14_3 1_555 1_555
H67_3 C48_3 1_555 1_555
H69_3 C50_3 1_555 1_555
C53_3 C48_3 1_555 1_555
C55_3 C50_3 1_555 1_555
H72_3 C53_3 1_555 1_555
H74_3 C55_3 1_555 1_555
H77_3 C53_3 1_555 1_555
H79_3 C55_3 1_555 1_555
H82_3 C53_3 1_555 1_555
H84_3 C55_3 1_555 1_555
C58_3 C48_3 1_555 1_555
C60_3 C50_3 1_555 1_555
O27_3 C11_3 1_555 1_555
O31_3 C15_3 1_555 1_555
O32_3 Cu24_3 1_555 1_555
O36_3 Cu28_3 1_555 1_555
O37_3 Cu24_3 1_555 1_555
O41_3 Cu28_3 1_555 1_555
O42_3 Cu12_3 1_555 1_555
O46_3 C35_3 1_555 1_555
O49_3 C38_3 1_555 1_555
O51_3 C40_3 1_555 1_555
O54_3 Cu21_3 1_555 1_555
O56_3 Cu23_3 1_555 1_555
O59_3 Gd2_3 1_555 1_555
O61_3 Gd6_3 1_555 1_555
O64_3 C58_3 1_555 1_555
O66_3 C60_3 1_555 1_555
O74 Gd2_3 1_555 1_555
O73 Gd6_3 1_555 1_555
O81_4 Gd2_3 1_555 1_555
O81_5 Gd6_3 1_555 1_555
O83_3 Cu2_3 1_555 1_555
O84_3 Gd2_3 1_555 1_555
O95_5 Cu2_3 1_555 1_555
O95_4 Gd2_3 1_555 1_555
O99_3 Gd2_3 1_555 1_555
O102_3 Gd6_3 1_555 1_555
O104_3 Na10 1_555 1_555
O110_3 Na19 1_555 1_555
O112_3 Na18 1_555 1_555
O114_3 Na10 1_555 1_555
O117_3 Na9 1_555 1_555
O119_3 Na10 1_555 1_555
O122_3 Na9 1_555 1_555
O130 Gd2_3 1_555 1_555
O129 Gd6_3 1_555 1_555
O139 Gd2_3 1_555 1_555
O137 Gd6_3 1_555 1_555
O143_3 Cu21_3 1_555 1_555
O145_3 Cu23_3 1_555 1_555
Cu11_5 O81_6 1_555 1_555
Cu11_5 O19_3 1_555 1_555
Cu2_3 O17_3 1_555 1_555
Cu2_3 O19_3 1_555 1_555
Cu3_3 O13_3 1_555 1_555
Cu3_3 O73_2 1_555 1_555
Cu4_3 O73_2 1_555 1_555
Cu4_3 O26_3 1_555 1_555
Na18_2 O23_3 1_555 1_555
C1_3 O8_3 1_555 1_555
C3_3 C4_3 1_555 1_555
C5_3 O9_3 1_555 1_555
C6_3 O12_3 1_555 1_555
C10_3 O13_3 1_555 1_555
O95_6 Cu12_3 1_555 1_555
Gd6_3 O83_3 1_555 1_555
Gd6_3 O95_5 1_555 1_555
Cu11_6 O81_4 1_555 1_555
Cu11_6 O99_3 1_555 1_555
Cu11_4 O81_5 1_555 1_555
Cu11_4 O102_3 1_555 1_555
Cu12_3 O84_3 1_555 1_555
Cu12_3 O99_3 1_555 1_555
Cu14_3 O83_3 1_555 1_555
Cu14_3 O84_3 1_555 1_555
Cu14_3 O95_4 1_555 1_555
Cu14_3 O102_3 1_555 1_555
Cu21_3 O59_3 1_555 1_555
Cu21_3 O74 1_555 1_555
Cu23_3 O61_3 1_555 1_555
Cu23_3 O73 1_555 1_555
Cu24_3 O74 1_555 1_555
Cu24_3 O143_3 1_555 1_555
Cu28_3 O73 1_555 1_555
Cu28_3 O145_3 1_555 1_555
Na19 O104_3 1_555 1_555
Na19 O119_3 1_555 1_555
Na18 O122_3 1_555 1_555
C11_3 O32_3 1_555 1_555
C15_3 O36_3 1_555 1_555
C21_3 C26_3 1_555 1_555
C25_3 C30_3 1_555 1_555
C31_3 O37_3 1_555 1_555
C31_3 O42_3 1_555 1_555
C35_3 O41_3 1_555 1_555
C38_3 O54_3 1_555 1_555
C40_3 O56_3 1_555 1_555
C58_3 O59_3 1_555 1_555
C60_3 O61_3 1_555 1_555
O113_5 H104 1_555 1_555
O113_4 H100 1_555 1_555
O22_2 H91_3 1_555 1_555
O114_2 H91_4 1_555 1_555

#END
