
###############################################################################
#
# This file contains modified crystal structure data generated from the
# MOF subset of the Cambridge Structural Database (CSD) v543 
# hosted by the Cambridge Crystallographic Data Centre (CCDC).
#
# This work is licensed under the Creative Commons
# Attribution-NonCommercial-ShareAlike 4.0 International License.
# To view a copy of this license, visit
# http://creativecommons.org/licenses/by-nc-sa/4.0/
# or send a letter to
# Creative Commons, PO Box 1866, Mountain View, CA 94042, USA.
#
# CIF created using the CSD Python API on 29 September 2022
# The structure has been converted into the P1 space group
# The structure has a 3D framework
# The original CSD entry OZIMUI is in the rhombohedral crystal system
# The framework has been calculated to contain at least 10.0% void space
# The void calculation uses a probe of radius 1.32A, grid spacing 0.4
# The framework is charged, counterions have been retained in the structure
#
###############################################################################

data_OZIMUI
_chemical_formula_moiety         '(C540 H432 Ag27 Bi36 F144 N100 P48 21-)n'
_symmetry_cell_setting           triclinic
_symmetry_space_group_name_H-M   'P 1'
_symmetry_Int_Tables_number      1
_space_group_name_Hall           'P 1'
loop_
_symmetry_equiv_pos_site_id
_symmetry_equiv_pos_as_xyz
1 x,y,z
_cell_length_a                   14.6602(2)
_cell_length_b                   14.6602(2)
_cell_length_c                   105.129(3)
_cell_angle_alpha                90
_cell_angle_beta                 90
_cell_angle_gamma                120
_cell_volume                     19567.4
loop_
_atom_site_label
_atom_site_type_symbol
_atom_site_fract_x
_atom_site_fract_y
_atom_site_fract_z
Ag1 Ag -0.000000 0.000000 0.500000
Ag3 Ag 0.44433(4) 0.33333(6) 0.583333
C19 C 0.1563(5) 0.0211(7) 0.52568(6)
H15 H 0.132347 0.066825 0.528588
H16 H 0.229065 0.023813 0.542465
C21 C 0.3859(4) 0.0233(6) 0.55651(5)
C22 C 0.4783(5) 0.1149(7) 0.55613(7)
H17 H 0.532009 0.122237 0.550458
C23 C 0.4957(5) 0.1977(7) 0.56385(7)
H18 H 0.561882 0.260757 0.563217
N5 N 0.4268(3) 0.1957(4) 0.57207(4)
C24 C 0.3377(5) 0.1048(6) 0.57281(6)
H19 H 0.287248 0.098364 0.578948
C25 C 0.3134(5) 0.0190(6) 0.56527(6)
Bi3 Bi 0.10796(3) 0.46190(2) 0.54264(2)
C31 C 0.0638(6) 0.3202(4) 0.53006(5)
C32 C 0.1037(8) 0.3327(5) 0.51805(6)
H25 H 0.149040 0.401433 0.514838
C33 C 0.0787(8) 0.2463(6) 0.51059(7)
H26 H 0.108672 0.258855 0.502320
N7 N 0.0169(6) 0.1482(4) 0.51397(5)
C35 C 0.0028(7) 0.2192(5) 0.53402(7)
H32 H 0.043286 0.290090 0.566067
C41 C 0.2231(6) 0.4336(4) 0.55401(5)
C42 C 0.2554(6) 0.4775(4) 0.56571(6)
H33 H 0.233044 0.523802 0.568884
C43 C 0.3197(7) 0.4558(5) 0.57297(6)
H34 H 0.337408 0.484984 0.581282
N9 N 0.3587(6) 0.3960(4) 0.56900(5)
C44 C 0.3299(7) 0.3545(5) 0.55740(6)
H35 H 0.356559 0.311624 0.554261
C45 C 0.2631(6) 0.3710(5) 0.54976(6)
H36 H 0.244462 0.339563 0.541570
Bi4 Bi 0.46190(2) 0.35394(2) 0.45736(2)
C46 C 0.3202(4) 0.2564(4) 0.46994(5)
C47 C 0.3327(5) 0.2290(6) 0.48195(6)
H37 H 0.401433 0.252393 0.485162
C48 C 0.2463(6) 0.1676(6) 0.48941(7)
H38 H 0.258855 0.150183 0.497680
N10 N 0.1482(4) 0.1313(4) 0.48603(5)
C49 C 0.1352(5) 0.1563(5) 0.47432(6)
H39 H 0.065522 0.132347 0.471412
C50 C 0.2192(5) 0.2164(5) 0.46598(7)
H40 H 0.205252 0.229065 0.457535
C51 C 0.3626(4) 0.3859(4) 0.44349(5)
C52 C 0.3634(5) 0.4783(5) 0.44387(7)
H41 H 0.409772 0.532009 0.449542
C53 C 0.2980(5) 0.4957(5) 0.43615(7)
H42 H 0.301125 0.561882 0.436783
N11 N 0.2311(3) 0.4268(3) 0.42793(4)
C54 C 0.2329(4) 0.3377(5) 0.42719(6)
H43 H 0.188884 0.287248 0.421052
C55 C 0.2944(4) 0.3134(5) 0.43473(6)
H44 H 0.290090 0.246804 0.433933
C56 C 0.4336(4) 0.2105(4) 0.44599(5)
C57 C 0.4775(4) 0.2221(4) 0.43429(6)
H45 H 0.523802 0.290758 0.431116
C58 C 0.4558(5) 0.1361(5) 0.42703(6)
H46 H 0.484984 0.147576 0.418718
N12 N 0.3960(4) 0.0373(4) 0.43100(5)
C59 C 0.3545(5) 0.0246(5) 0.44260(6)
C60 C 0.3710(5) 0.1079(4) 0.45024(6)
H48 H 0.339563 0.095101 0.458430
H59 H 0.044935 0.356559 0.445739
Ag5 Ag 0.11100(4) 0.44433(4) 0.416667
N21 N 0.5644(3) 0.4710(4) 0.59460(4)
N22 N 0.2960(4) 0.2707(4) 0.59767(5)
Ag1_2 Ag -0.000000 1.000000 0.500000
Bi2 Bi 0.35394(2) 0.89204(3) 0.54264(2)
C16 C 0.2564(4) 0.9362(6) 0.53006(5)
C17 C 0.2290(6) 0.8963(8) 0.51805(6)
H13 H 0.252393 0.850960 0.514838
C18 C 0.1676(6) 0.9213(8) 0.51059(7)
H14 H 0.150183 0.891328 0.502320
N4 N 0.1313(4) 0.9831(6) 0.51397(5)
C20 C 0.2164(5) 0.9972(7) 0.53402(7)
H20 H 0.246804 0.956714 0.566067
C26 C 0.2105(4) 0.7769(6) 0.55401(5)
C27 C 0.2221(4) 0.7446(6) 0.56571(6)
H21 H 0.290758 0.766956 0.568884
C28 C 0.1361(5) 0.6803(7) 0.57297(6)
H22 H 0.147576 0.662592 0.581282
N6 N 0.0373(4) 0.6413(6) 0.56900(5)
C29 C 0.0246(5) 0.6701(7) 0.55740(6)
C30 C 0.1079(4) 0.7369(6) 0.54976(6)
H24 H 0.095101 0.755538 0.541570
H47 H 0.311624 0.955065 0.445739
C79 C 0.0211(7) 0.8648(5) 0.47432(6)
H63 H 0.066825 0.934478 0.471412
H64 H 0.023813 0.794748 0.457535
C81 C 0.0233(6) 0.6374(4) 0.44349(5)
C82 C 0.1149(7) 0.6366(5) 0.44387(7)
H65 H 0.122237 0.590228 0.449542
C83 C 0.1977(7) 0.7020(5) 0.43615(7)
H66 H 0.260757 0.698875 0.436783
N17 N 0.1957(4) 0.7689(3) 0.42793(4)
C84 C 0.1048(6) 0.7671(4) 0.42719(6)
H67 H 0.098364 0.811116 0.421052
C85 C 0.0190(6) 0.7056(4) 0.43473(6)
Ag7 Ag 0.33333(6) 0.88900(4) 0.416667
Ag1_3 Ag 1.000000 0.000000 0.500000
H11 H 0.688376 0.044935 0.554261
Ag4 Ag 0.66667(6) 0.11100(4) 0.583333
C34 C 0.9789(7) 0.1352(5) 0.52568(6)
H27 H 0.933175 0.065522 0.528588
H28 H 0.976187 0.205252 0.542465
C36 C 0.9767(6) 0.3626(4) 0.55651(5)
C37 C 0.8851(7) 0.3634(5) 0.55613(7)
H29 H 0.877763 0.409772 0.550458
C38 C 0.8023(7) 0.2980(5) 0.56385(7)
H30 H 0.739243 0.301125 0.563217
N8 N 0.8043(4) 0.2311(3) 0.57207(4)
C39 C 0.8952(6) 0.2329(4) 0.57281(6)
H31 H 0.901636 0.188884 0.578948
C40 C 0.9810(6) 0.2944(4) 0.56527(6)
Bi5 Bi 0.64606(2) 0.10796(3) 0.45736(2)
C61 C 0.7436(4) 0.0638(6) 0.46994(5)
C62 C 0.7710(6) 0.1037(8) 0.48195(6)
H49 H 0.747607 0.149040 0.485162
C63 C 0.8324(6) 0.0787(8) 0.48941(7)
H50 H 0.849817 0.108672 0.497680
N13 N 0.8687(4) 0.0169(6) 0.48603(5)
C65 C 0.7836(5) 0.0028(7) 0.46598(7)
H56 H 0.753196 0.043286 0.433933
C71 C 0.7895(4) 0.2231(6) 0.44599(5)
C72 C 0.7779(4) 0.2554(6) 0.43429(6)
H57 H 0.709242 0.233044 0.431116
C73 C 0.8639(5) 0.3197(7) 0.42703(6)
H58 H 0.852424 0.337408 0.418718
N15 N 0.9627(4) 0.3587(6) 0.43100(5)
C74 C 0.9754(5) 0.3299(7) 0.44260(6)
C75 C 0.8921(4) 0.2631(6) 0.45024(6)
H60 H 0.904899 0.244462 0.458430
N20 N 0.5290(4) 0.0935(3) 0.59460(4)
N24 N 0.7293(4) 0.0254(6) 0.59767(5)
Bi1 Bi 0.53810(2) 0.64606(2) 0.54264(2)
Ag1_4 Ag 1.000000 1.000000 0.500000
Ag2 Ag 0.88900(4) 0.55567(4) 0.583333
C1 C 0.6798(4) 0.7436(4) 0.53006(5)
C2 C 0.6673(5) 0.7710(6) 0.51805(6)
H1 H 0.598567 0.747607 0.514838
C3 C 0.7537(6) 0.8324(6) 0.51059(7)
H2 H 0.741145 0.849817 0.502320
N1 N 0.8518(4) 0.8687(4) 0.51397(5)
C4 C 0.8648(5) 0.8437(5) 0.52568(6)
H3 H 0.934478 0.867653 0.528588
C5 C 0.7808(5) 0.7836(5) 0.53402(7)
H4 H 0.794748 0.770935 0.542465
C6 C 0.6374(4) 0.6141(4) 0.55651(5)
C7 C 0.6366(5) 0.5217(5) 0.55613(7)
H5 H 0.590228 0.467991 0.550458
C8 C 0.7020(5) 0.5043(5) 0.56385(7)
H6 H 0.698875 0.438118 0.563217
N2 N 0.7689(3) 0.5732(3) 0.57207(4)
C9 C 0.7671(4) 0.6623(5) 0.57281(6)
H7 H 0.811116 0.712752 0.578948
C10 C 0.7056(4) 0.6866(5) 0.56527(6)
H8 H 0.709910 0.753196 0.566067
C11 C 0.5664(4) 0.7895(4) 0.55401(5)
C12 C 0.5225(4) 0.7779(4) 0.56571(6)
H9 H 0.476198 0.709242 0.568884
C13 C 0.5442(5) 0.8639(5) 0.57297(6)
H10 H 0.515016 0.852424 0.581282
N3 N 0.6040(4) 0.9627(4) 0.56900(5)
C14 C 0.6455(5) 0.9754(5) 0.55740(6)
C15 C 0.6290(5) 0.8921(4) 0.54976(6)
H12 H 0.660437 0.904899 0.541570
H23 H 0.955065 0.643441 0.554261
C64 C 0.8437(5) 0.9789(7) 0.47432(6)
H51 H 0.867653 0.933175 0.471412
H52 H 0.770935 0.976187 0.457535
C66 C 0.6141(4) 0.9767(6) 0.44349(5)
C67 C 0.5217(5) 0.8851(7) 0.44387(7)
H53 H 0.467991 0.877763 0.449542
C68 C 0.5043(5) 0.8023(7) 0.43615(7)
H54 H 0.438118 0.739243 0.436783
N14 N 0.5732(3) 0.8043(4) 0.42793(4)
C69 C 0.6623(5) 0.8952(6) 0.42719(6)
H55 H 0.712752 0.901636 0.421052
C70 C 0.6866(5) 0.9810(6) 0.43473(6)
Bi6 Bi 0.89204(3) 0.53810(2) 0.45736(2)
C76 C 0.9362(6) 0.6798(4) 0.46994(5)
C77 C 0.8963(8) 0.6673(5) 0.48195(6)
H61 H 0.850960 0.598567 0.485162
C78 C 0.9213(8) 0.7537(6) 0.48941(7)
H62 H 0.891328 0.741145 0.497680
N16 N 0.9831(6) 0.8518(4) 0.48603(5)
C80 C 0.9972(7) 0.7808(5) 0.46598(7)
H68 H 0.956714 0.709910 0.433933
C86 C 0.7769(6) 0.5664(4) 0.44599(5)
C87 C 0.7446(6) 0.5225(4) 0.43429(6)
H69 H 0.766956 0.476198 0.431116
C88 C 0.6803(7) 0.5442(5) 0.42703(6)
H70 H 0.662592 0.515016 0.418718
N18 N 0.6413(6) 0.6040(4) 0.43100(5)
C89 C 0.6701(7) 0.6455(5) 0.44260(6)
H71 H 0.643441 0.688376 0.445739
C90 C 0.7369(6) 0.6290(5) 0.45024(6)
H72 H 0.755538 0.660437 0.458430
Ag6 Ag 0.55567(4) 0.66667(6) 0.416667
N19 N 0.9065(3) 0.4356(3) 0.59460(4)
N23 N 0.9746(6) 0.7040(4) 0.59767(5)
Ag1_5 Ag 0.000000 0.000000 0.000000
Bi4_2 Bi 0.35394(2) 0.46190(2) 0.04264(2)
C46_2 C 0.2564(4) 0.3202(4) 0.03006(5)
C47_2 C 0.2290(6) 0.3327(5) 0.01805(6)
H37_2 H 0.252393 0.401433 0.014838
C48_2 C 0.1676(6) 0.2463(6) 0.01059(7)
H38_2 H 0.150183 0.258855 0.002320
N10_2 N 0.1313(4) 0.1482(4) 0.01397(5)
C49_2 C 0.1563(5) 0.1352(5) 0.02568(6)
H39_2 H 0.132347 0.065522 0.028588
C50_2 C 0.2164(5) 0.2192(5) 0.03402(7)
H40_2 H 0.229065 0.205252 0.042465
C51_2 C 0.3859(4) 0.3626(4) 0.05651(5)
C52_2 C 0.4783(5) 0.3634(5) 0.05613(7)
H41_2 H 0.532009 0.409772 0.050458
C53_2 C 0.4957(5) 0.2980(5) 0.06385(7)
H42_2 H 0.561882 0.301125 0.063217
N11_2 N 0.4268(3) 0.2311(3) 0.07207(4)
C54_2 C 0.3377(5) 0.2329(4) 0.07281(6)
H43_2 H 0.287248 0.188884 0.078948
C55_2 C 0.3134(5) 0.2944(4) 0.06527(6)
H44_2 H 0.246804 0.290090 0.066067
C56_2 C 0.2105(4) 0.4336(4) 0.05401(5)
C57_2 C 0.2221(4) 0.4775(4) 0.06571(6)
H45_2 H 0.290758 0.523802 0.068884
C58_2 C 0.1361(5) 0.4558(5) 0.07297(6)
H46_2 H 0.147576 0.484984 0.081282
N12_2 N 0.0373(4) 0.3960(4) 0.06900(5)
C59_2 C 0.0246(5) 0.3545(5) 0.05740(6)
C60_2 C 0.1079(4) 0.3710(5) 0.04976(6)
H48_2 H 0.095101 0.339563 0.041570
H59_2 H 0.356559 0.044935 0.054261
Ag5_2 Ag 0.44433(4) 0.11100(4) 0.083333
Ag1_6 Ag 0.000000 0.000000 1.000000
Ag3_2 Ag 0.33333(6) 0.44433(4) 0.916667
C19_2 C 0.0211(7) 0.1563(5) 0.97432(6)
H15_2 H 0.066825 0.132347 0.971412
H16_2 H 0.023813 0.229065 0.957535
C21_2 C 0.0233(6) 0.3859(4) 0.94349(5)
C22_2 C 0.1149(7) 0.4783(5) 0.94387(7)
H17_2 H 0.122237 0.532009 0.949542
C23_2 C 0.1977(7) 0.4957(5) 0.93615(7)
H18_2 H 0.260757 0.561882 0.936783
N5_2 N 0.1957(4) 0.4268(3) 0.92793(4)
C24_2 C 0.1048(6) 0.3377(5) 0.92719(6)
H19_2 H 0.098364 0.287248 0.921052
C25_2 C 0.0190(6) 0.3134(5) 0.93473(6)
Bi3_2 Bi 0.46190(2) 0.10796(3) 0.95736(2)
C31_2 C 0.3202(4) 0.0638(6) 0.96994(5)
C32_2 C 0.3327(5) 0.1037(8) 0.98195(6)
H25_2 H 0.401433 0.149040 0.985162
C33_2 C 0.2463(6) 0.0787(8) 0.98941(7)
H26_2 H 0.258855 0.108672 0.997680
N7_2 N 0.1482(4) 0.0169(6) 0.98603(5)
C35_2 C 0.2192(5) 0.0028(7) 0.96598(7)
H32_2 H 0.290090 0.043286 0.933933
C41_2 C 0.4336(4) 0.2231(6) 0.94599(5)
C42_2 C 0.4775(4) 0.2554(6) 0.93429(6)
H33_2 H 0.523802 0.233044 0.931116
C43_2 C 0.4558(5) 0.3197(7) 0.92703(6)
H34_2 H 0.484984 0.337408 0.918718
N9_2 N 0.3960(4) 0.3587(6) 0.93100(5)
C44_2 C 0.3545(5) 0.3299(7) 0.94260(6)
H35_2 H 0.311624 0.356559 0.945739
C45_2 C 0.3710(5) 0.2631(6) 0.95024(6)
H36_2 H 0.339563 0.244462 0.958430
N21_2 N 0.4710(4) 0.5644(3) 0.90540(4)
N22_2 N 0.2707(4) 0.2960(4) 0.90233(5)
Ag1_7 Ag -0.000000 1.000000 0.000000
Bi5_2 Bi 0.10796(3) 0.64606(2) 0.04264(2)
C61_2 C 0.0638(6) 0.7436(4) 0.03006(5)
C62_2 C 0.1037(8) 0.7710(6) 0.01805(6)
H49_2 H 0.149040 0.747607 0.014838
C63_2 C 0.0787(8) 0.8324(6) 0.01059(7)
H50_2 H 0.108672 0.849817 0.002320
N13_2 N 0.0169(6) 0.8687(4) 0.01397(5)
C65_2 C 0.0028(7) 0.7836(5) 0.03402(7)
H56_2 H 0.043286 0.753196 0.066067
C71_2 C 0.2231(6) 0.7895(4) 0.05401(5)
C72_2 C 0.2554(6) 0.7779(4) 0.06571(6)
H57_2 H 0.233044 0.709242 0.068884
C73_2 C 0.3197(7) 0.8639(5) 0.07297(6)
H58_2 H 0.337408 0.852424 0.081282
N15_2 N 0.3587(6) 0.9627(4) 0.06900(5)
C74_2 C 0.3299(7) 0.9754(5) 0.05740(6)
C75_2 C 0.2631(6) 0.8921(4) 0.04976(6)
H60_2 H 0.244462 0.904899 0.041570
Ag1_8 Ag -0.000000 1.000000 1.000000
H11_2 H 0.044935 0.688376 0.945739
Ag4_2 Ag 0.11100(4) 0.66667(6) 0.916667
C34_2 C 0.1352(5) 0.9789(7) 0.97432(6)
H27_2 H 0.065522 0.933175 0.971412
H28_2 H 0.205252 0.976187 0.957535
C36_2 C 0.3626(4) 0.9767(6) 0.94349(5)
C37_2 C 0.3634(5) 0.8851(7) 0.94387(7)
H29_2 H 0.409772 0.877763 0.949542
C38_2 C 0.2980(5) 0.8023(7) 0.93615(7)
H30_2 H 0.301125 0.739243 0.936783
N8_2 N 0.2311(3) 0.8043(4) 0.92793(4)
C39_2 C 0.2329(4) 0.8952(6) 0.92719(6)
H31_2 H 0.188884 0.901636 0.921052
C40_2 C 0.2944(4) 0.9810(6) 0.93473(6)
N20_2 N 0.0935(3) 0.5290(4) 0.90540(4)
N24_2 N 0.0254(6) 0.7293(4) 0.90233(5)
Ag1_9 Ag 1.000000 0.000000 0.000000
H47_2 H 0.955065 0.311624 0.054261
C79_2 C 0.8648(5) 0.0211(7) 0.02568(6)
H63_2 H 0.934478 0.066825 0.028588
H64_2 H 0.794748 0.023813 0.042465
C81_2 C 0.6374(4) 0.0233(6) 0.05651(5)
C82_2 C 0.6366(5) 0.1149(7) 0.05613(7)
H65_2 H 0.590228 0.122237 0.050458
C83_2 C 0.7020(5) 0.1977(7) 0.06385(7)
H66_2 H 0.698875 0.260757 0.063217
N17_2 N 0.7689(3) 0.1957(4) 0.07207(4)
C84_2 C 0.7671(4) 0.1048(6) 0.07281(6)
H67_2 H 0.811116 0.098364 0.078948
C85_2 C 0.7056(4) 0.0190(6) 0.06527(6)
Ag7_2 Ag 0.88900(4) 0.33333(6) 0.083333
Ag1_10 Ag 1.000000 0.000000 1.000000
Bi2_2 Bi 0.89204(3) 0.35394(2) 0.95736(2)
C16_2 C 0.9362(6) 0.2564(4) 0.96994(5)
C17_2 C 0.8963(8) 0.2290(6) 0.98195(6)
H13_2 H 0.850960 0.252393 0.985162
C18_2 C 0.9213(8) 0.1676(6) 0.98941(7)
H14_2 H 0.891328 0.150183 0.997680
N4_2 N 0.9831(6) 0.1313(4) 0.98603(5)
C20_2 C 0.9972(7) 0.2164(5) 0.96598(7)
H20_2 H 0.956714 0.246804 0.933933
C26_2 C 0.7769(6) 0.2105(4) 0.94599(5)
C27_2 C 0.7446(6) 0.2221(4) 0.93429(6)
H21_2 H 0.766956 0.290758 0.931116
C28_2 C 0.6803(7) 0.1361(5) 0.92703(6)
H22_2 H 0.662592 0.147576 0.918718
N6_2 N 0.6413(6) 0.0373(4) 0.93100(5)
C29_2 C 0.6701(7) 0.0246(5) 0.94260(6)
C30_2 C 0.7369(6) 0.1079(4) 0.95024(6)
H24_2 H 0.755538 0.095101 0.958430
Ag1_11 Ag 1.000000 1.000000 0.000000
C64_2 C 0.9789(7) 0.8437(5) 0.02568(6)
H51_2 H 0.933175 0.867653 0.028588
H52_2 H 0.976187 0.770935 0.042465
C66_2 C 0.9767(6) 0.6141(4) 0.05651(5)
C67_2 C 0.8851(7) 0.5217(5) 0.05613(7)
H53_2 H 0.877763 0.467991 0.050458
C68_2 C 0.8023(7) 0.5043(5) 0.06385(7)
H54_2 H 0.739243 0.438118 0.063217
N14_2 N 0.8043(4) 0.5732(3) 0.07207(4)
C69_2 C 0.8952(6) 0.6623(5) 0.07281(6)
H55_2 H 0.901636 0.712752 0.078948
C70_2 C 0.9810(6) 0.6866(5) 0.06527(6)
Bi6_2 Bi 0.53810(2) 0.89204(3) 0.04264(2)
C76_2 C 0.6798(4) 0.9362(6) 0.03006(5)
C77_2 C 0.6673(5) 0.8963(8) 0.01805(6)
H61_2 H 0.598567 0.850960 0.014838
C78_2 C 0.7537(6) 0.9213(8) 0.01059(7)
H62_2 H 0.741145 0.891328 0.002320
N16_2 N 0.8518(4) 0.9831(6) 0.01397(5)
C80_2 C 0.7808(5) 0.9972(7) 0.03402(7)
H68_2 H 0.709910 0.956714 0.066067
C86_2 C 0.5664(4) 0.7769(6) 0.05401(5)
C87_2 C 0.5225(4) 0.7446(6) 0.06571(6)
H69_2 H 0.476198 0.766956 0.068884
C88_2 C 0.5442(5) 0.6803(7) 0.07297(6)
H70_2 H 0.515016 0.662592 0.081282
N18_2 N 0.6040(4) 0.6413(6) 0.06900(5)
C89_2 C 0.6455(5) 0.6701(7) 0.05740(6)
H71_2 H 0.688376 0.643441 0.054261
C90_2 C 0.6290(5) 0.7369(6) 0.04976(6)
H72_2 H 0.660437 0.755538 0.041570
Ag6_2 Ag 0.66667(6) 0.55567(4) 0.083333
Bi1_2 Bi 0.64606(2) 0.53810(2) 0.95736(2)
Ag1_12 Ag 1.000000 1.000000 1.000000
Ag2_2 Ag 0.55567(4) 0.88900(4) 0.916667
C1_2 C 0.7436(4) 0.6798(4) 0.96994(5)
C2_2 C 0.7710(6) 0.6673(5) 0.98195(6)
H1_2 H 0.747607 0.598567 0.985162
C3_2 C 0.8324(6) 0.7537(6) 0.98941(7)
H2_2 H 0.849817 0.741145 0.997680
N1_2 N 0.8687(4) 0.8518(4) 0.98603(5)
C4_2 C 0.8437(5) 0.8648(5) 0.97432(6)
H3_2 H 0.867653 0.934478 0.971412
C5_2 C 0.7836(5) 0.7808(5) 0.96598(7)
H4_2 H 0.770935 0.794748 0.957535
C6_2 C 0.6141(4) 0.6374(4) 0.94349(5)
C7_2 C 0.5217(5) 0.6366(5) 0.94387(7)
H5_2 H 0.467991 0.590228 0.949542
C8_2 C 0.5043(5) 0.7020(5) 0.93615(7)
H6_2 H 0.438118 0.698875 0.936783
N2_2 N 0.5732(3) 0.7689(3) 0.92793(4)
C9_2 C 0.6623(5) 0.7671(4) 0.92719(6)
H7_2 H 0.712752 0.811116 0.921052
C10_2 C 0.6866(5) 0.7056(4) 0.93473(6)
H8_2 H 0.753196 0.709910 0.933933
C11_2 C 0.7895(4) 0.5664(4) 0.94599(5)
C12_2 C 0.7779(4) 0.5225(4) 0.93429(6)
H9_2 H 0.709242 0.476198 0.931116
C13_2 C 0.8639(5) 0.5442(5) 0.92703(6)
H10_2 H 0.852424 0.515016 0.918718
N3_2 N 0.9627(4) 0.6040(4) 0.93100(5)
C14_2 C 0.9754(5) 0.6455(5) 0.94260(6)
C15_2 C 0.8921(4) 0.6290(5) 0.95024(6)
H12_2 H 0.904899 0.660437 0.958430
H23_2 H 0.643441 0.955065 0.945739
N19_2 N 0.4356(3) 0.9065(3) 0.90540(4)
N23_2 N 0.7040(4) 0.9746(6) 0.90233(5)
Bi2_3 Bi 0.02061(2) 0.22537(3) 0.87597(2)
C21_3 C 0.0526(4) 0.3566(6) 0.88984(5)
C22_3 C 0.1450(5) 0.4482(7) 0.88946(7)
H17_3 H 0.198676 0.455570 0.883791
C23_3 C 0.1624(5) 0.5310(7) 0.89718(7)
H18_3 H 0.228549 0.594090 0.896550
C24_3 C 0.0044(5) 0.4381(6) 0.90614(6)
H34_3 H 0.004075 0.818317 0.914615
H35_3 H 0.023226 0.644957 0.887594
Bi4_3 Bi 0.12857(2) 0.68727(2) 0.79069(2)
H37_3 H 0.068100 0.585726 0.818495
C51_3 C 0.0293(4) 0.7192(4) 0.77682(5)
C52_3 C 0.0301(5) 0.8116(5) 0.77720(7)
H41_3 H 0.076439 0.865342 0.782875
C56_3 C 0.1003(4) 0.5438(4) 0.77932(5)
C57_3 C 0.1442(4) 0.5554(4) 0.76762(6)
H45_3 H 0.190469 0.624091 0.764449
C58_3 C 0.1225(5) 0.4694(5) 0.76036(6)
H46_3 H 0.151651 0.480909 0.752051
N12_3 N 0.0627(4) 0.3706(4) 0.76433(5)
C59_3 C 0.0212(5) 0.3579(5) 0.77593(6)
C60_3 C 0.0377(5) 0.4412(4) 0.78357(6)
H48_3 H 0.006230 0.428434 0.791763
Ag7_3 Ag -0.00000(6) 0.22233(4) 0.750000
Ag1_13 Ag 0.666667 0.333333 0.833333
C1_3 C 0.3465(4) 0.0769(4) 0.86339(5)
C2_3 C 0.3340(5) 0.1043(6) 0.85138(6)
H1_3 H 0.265234 0.080940 0.848171
C3_3 C 0.4204(6) 0.1657(6) 0.84392(7)
H2_3 H 0.407812 0.183150 0.835653
N1_3 N 0.5185(4) 0.2020(4) 0.84730(5)
C4_3 C 0.5315(5) 0.1770(5) 0.85901(6)
H3_3 H 0.601145 0.200986 0.861921
C5_3 C 0.4475(5) 0.1169(5) 0.86735(7)
H4_3 H 0.461415 0.104268 0.875798
H7_3 H 0.477783 0.046085 0.912281
C10_3 C 0.3723(4) 0.0199(5) 0.89860(6)
H8_3 H 0.376577 0.086529 0.899400
C11_3 C 0.2331(4) 0.1228(4) 0.88734(5)
C12_3 C 0.1892(4) 0.1112(4) 0.89904(6)
H9_3 H 0.142865 0.042575 0.902217
C13_3 C 0.2109(5) 0.1972(5) 0.90630(6)
H10_3 H 0.181683 0.185757 0.914615
C14_3 C 0.3122(5) 0.3087(5) 0.89073(6)
H11_3 H 0.355043 0.378268 0.887594
C15_3 C 0.2957(5) 0.2254(4) 0.88309(6)
H12_3 H 0.327104 0.238232 0.874903
C16_3 C 0.9231(4) 0.2695(6) 0.86339(5)
C17_3 C 0.8957(6) 0.2296(8) 0.85138(6)
H13_3 H 0.919060 0.184293 0.848171
C18_3 C 0.8343(6) 0.2546(8) 0.84392(7)
H14_3 H 0.816850 0.224661 0.835653
N4_3 N 0.7980(4) 0.3164(6) 0.84730(5)
C19_3 C 0.8230(5) 0.3544(7) 0.85901(6)
H15_3 H 0.799014 0.400158 0.861921
C20_3 C 0.8831(5) 0.3305(7) 0.86735(7)
H16_3 H 0.895732 0.357146 0.875798
H19_3 H 0.953915 0.431697 0.912281
C25_3 C 0.9801(5) 0.3523(6) 0.89860(6)
H20_3 H 0.913471 0.290047 0.899400
C26_3 C 0.8772(4) 0.1102(6) 0.88734(5)
C27_3 C 0.8888(4) 0.0779(6) 0.89904(6)
H21_3 H 0.957425 0.100289 0.902217
C28_3 C 0.8028(5) 0.0136(7) 0.90630(6)
C29_3 C 0.6913(5) 0.0034(7) 0.89073(6)
C30_3 C 0.7746(4) 0.0702(6) 0.88309(6)
H24_3 H 0.761768 0.088871 0.874903
Bi3_3 Bi 0.77463(3) 0.79523(2) 0.87597(2)
C31_3 C 0.7305(6) 0.6535(4) 0.86339(5)
C32_3 C 0.7704(8) 0.6660(5) 0.85138(6)
H25_3 H 0.815707 0.734766 0.848171
C33_3 C 0.7454(8) 0.5796(6) 0.84392(7)
H26_3 H 0.775339 0.592188 0.835653
N7_3 N 0.6836(6) 0.4815(4) 0.84730(5)
C34_3 C 0.6456(7) 0.4685(5) 0.85901(6)
H27_3 H 0.599842 0.398855 0.861921
C35_3 C 0.6695(7) 0.5525(5) 0.86735(7)
H28_3 H 0.642854 0.538585 0.875798
C36_3 C 0.6434(6) 0.6959(4) 0.88984(5)
C37_3 C 0.5518(7) 0.6967(5) 0.88946(7)
H29_3 H 0.544430 0.743105 0.883791
C38_3 C 0.4690(7) 0.6313(5) 0.89718(7)
H30_3 H 0.405910 0.634458 0.896550
C39_3 C 0.5619(6) 0.5662(4) 0.90614(6)
H31_3 H 0.568303 0.522217 0.912281
C40_3 C 0.6477(6) 0.6277(4) 0.89860(6)
H32_3 H 0.709953 0.623423 0.899400
C41_3 C 0.8898(6) 0.7669(4) 0.88734(5)
C42_3 C 0.9221(6) 0.8108(4) 0.89904(6)
H33_3 H 0.899711 0.857135 0.902217
C43_3 C 0.9864(7) 0.7891(5) 0.90630(6)
C44_3 C 0.9966(7) 0.6878(5) 0.89073(6)
C45_3 C 0.9298(6) 0.7043(5) 0.88309(6)
H36_3 H 0.911129 0.672896 0.874903
C46_3 C 0.9869(4) 0.5897(4) 0.80327(5)
C47_3 C 0.9994(5) 0.5623(6) 0.81528(6)
C48_3 C 0.9130(6) 0.5009(6) 0.82274(7)
H38_3 H 0.925522 0.483516 0.831013
N10_3 N 0.8149(4) 0.4646(4) 0.81936(5)
C49_3 C 0.8019(5) 0.4896(5) 0.80765(6)
H39_3 H 0.732189 0.465680 0.804745
C50_3 C 0.8859(5) 0.5497(5) 0.79931(7)
H40_3 H 0.871919 0.562398 0.790868
C53_3 C 0.9647(5) 0.8290(5) 0.76948(7)
H42_3 H 0.967792 0.895215 0.770116
N11_3 N 0.8978(3) 0.7601(3) 0.76126(4)
C54_3 C 0.8996(4) 0.6710(5) 0.76052(6)
H43_3 H 0.855551 0.620581 0.754385
C55_3 C 0.9611(4) 0.6467(5) 0.76806(6)
H44_3 H 0.956757 0.580137 0.767266
H47_3 H 0.978291 0.288398 0.779072
Bi5_3 Bi 0.31273(2) 0.44129(3) 0.79069(2)
C61_3 C 0.4103(4) 0.3971(6) 0.80327(5)
C62_3 C 0.4377(6) 0.4370(8) 0.81528(6)
H49_3 H 0.414274 0.482373 0.818495
C63_3 C 0.4991(6) 0.4120(8) 0.82274(7)
H50_3 H 0.516484 0.442005 0.831013
N13_3 N 0.5354(4) 0.3502(6) 0.81936(5)
C64_3 C 0.5104(5) 0.3122(7) 0.80765(6)
H51_3 H 0.534320 0.266508 0.804745
C65_3 C 0.4503(5) 0.3361(7) 0.79931(7)
H52_3 H 0.437602 0.309520 0.790868
C66_3 C 0.2808(4) 0.3100(6) 0.77682(5)
C67_3 C 0.1884(5) 0.2184(7) 0.77720(7)
H53_3 H 0.134658 0.211096 0.782875
C68_3 C 0.1710(5) 0.1356(7) 0.76948(7)
H54_3 H 0.104785 0.072576 0.770116
N14_3 N 0.2399(3) 0.1376(4) 0.76126(4)
C69_3 C 0.3290(5) 0.2285(6) 0.76052(6)
H55_3 H 0.379419 0.234969 0.754385
C70_3 C 0.3533(5) 0.3143(6) 0.76806(6)
H56_3 H 0.419863 0.376619 0.767266
C71_3 C 0.4562(4) 0.5564(6) 0.77932(5)
C72_3 C 0.4446(4) 0.5887(6) 0.76762(6)
H57_3 H 0.375909 0.566377 0.764449
C73_3 C 0.5306(5) 0.6530(7) 0.76036(6)
H58_3 H 0.519091 0.670741 0.752051
N15_3 N 0.6294(4) 0.6920(6) 0.76433(5)
C74_3 C 0.6421(5) 0.6632(7) 0.77593(6)
H59_3 H 0.711602 0.689892 0.779072
C75_3 C 0.5588(4) 0.5964(6) 0.78357(6)
H60_3 H 0.571566 0.577795 0.791763
C76_3 C 0.6029(6) 0.0131(4) 0.80327(5)
C77_3 C 0.5630(8) 0.0006(5) 0.81528(6)
C78_3 C 0.5880(8) 0.0870(6) 0.82274(7)
H62_3 H 0.557995 0.074478 0.831013
N16_3 N 0.6498(6) 0.1851(4) 0.81936(5)
C79_3 C 0.6878(7) 0.1981(5) 0.80765(6)
H63_3 H 0.733492 0.267811 0.804745
C80_3 C 0.6639(7) 0.1141(5) 0.79931(7)
H64_3 H 0.690480 0.128081 0.790868
C83_3 C 0.8644(7) 0.0353(5) 0.76948(7)
H66_3 H 0.927424 0.032208 0.770116
N17_3 N 0.8624(4) 0.1022(3) 0.76126(4)
C84_3 C 0.7715(6) 0.1004(4) 0.76052(6)
H67_3 H 0.765031 0.144449 0.754385
C85_3 C 0.6857(6) 0.0389(4) 0.76806(6)
H68_3 H 0.623381 0.043243 0.767266
H71_3 H 0.310108 0.021709 0.779072
Ag5_3 Ag 0.77767(4) 0.77766(4) 0.750000
Ag6_3 Ag 0.22234(4) 0.00000(6) 0.750000
Ag7_4 Ag 1.00000(6) 0.22233(4) 0.750000
Bi1_3 Bi 0.20477(2) 0.97939(2) 0.87597(2)
C6_3 C 0.3041(4) 0.9474(4) 0.88984(5)
C7_3 C 0.3033(5) 0.8550(5) 0.88946(7)
H5_3 H 0.256895 0.801324 0.883791
C8_3 C 0.3687(5) 0.8376(5) 0.89718(7)
H6_3 H 0.365542 0.771451 0.896550
C9_3 C 0.4338(4) 0.9956(5) 0.90614(6)
H22_3 H 0.814243 0.995925 0.914615
H23_3 H 0.621732 0.976774 0.887594
Bi6_3 Bi 0.55871(3) 0.87143(2) 0.79069(2)
H61_3 H 0.517627 0.931900 0.818495
C81_3 C 0.6900(6) 0.9707(4) 0.77682(5)
C82_3 C 0.7816(7) 0.9699(5) 0.77720(7)
H65_3 H 0.788904 0.923561 0.782875
C86_3 C 0.4436(6) 0.8997(4) 0.77932(5)
C87_3 C 0.4113(6) 0.8558(4) 0.76762(6)
H69_3 H 0.433623 0.809531 0.764449
C88_3 C 0.3470(7) 0.8775(5) 0.76036(6)
H70_3 H 0.329259 0.848349 0.752051
N18_3 N 0.3080(6) 0.9373(4) 0.76433(5)
C89_3 C 0.3368(7) 0.9788(5) 0.77593(6)
C90_3 C 0.4036(6) 0.9623(5) 0.78357(6)
H72_3 H 0.422205 0.993770 0.791763
Ag6_4 Ag 0.22234(4) 1.00000(6) 0.750000
Ag3_3 Ag -0.00000(6) 0.77766(4) 0.250000
Bi3_4 Bi 0.12857(2) 0.44129(3) 0.29069(2)
H25_4 H 0.068100 0.482373 0.318495
C36_4 C 0.0293(4) 0.3100(6) 0.27682(5)
C37_4 C 0.0301(5) 0.2184(7) 0.27720(7)
H29_4 H 0.076439 0.211096 0.282875
C41_4 C 0.1003(4) 0.5564(6) 0.27932(5)
C42_4 C 0.1442(4) 0.5887(6) 0.26762(6)
H33_4 H 0.190469 0.566377 0.264449
C43_4 C 0.1225(5) 0.6530(7) 0.26036(6)
H34_4 H 0.151651 0.670741 0.252051
N9_3 N 0.0627(4) 0.6920(6) 0.26433(5)
C44_4 C 0.0212(5) 0.6632(7) 0.27593(6)
C45_4 C 0.0377(5) 0.5964(6) 0.28357(6)
H36_4 H 0.006230 0.577795 0.291763
Bi4_4 Bi 0.02061(2) 0.79523(2) 0.37597(2)
C51_4 C 0.0526(4) 0.6959(4) 0.38984(5)
C52_4 C 0.1450(5) 0.6967(5) 0.38946(7)
H41_4 H 0.198676 0.743105 0.383791
C53_4 C 0.1624(5) 0.6313(5) 0.39718(7)
H42_4 H 0.228549 0.634458 0.396550
N11_4 N 0.0935(3) 0.5644(3) 0.40540(4)
C54_4 C 0.0044(5) 0.5662(4) 0.40614(6)
H58_4 H 0.004075 0.185757 0.414615
N15_4 N 0.0254(6) 0.2960(4) 0.40233(5)
H59_4 H 0.023226 0.378268 0.387594
N21_3 N 0.1376(4) 0.8978(3) 0.23874(4)
Ag1_14 Ag 0.666667 0.333333 0.333333
Ag2_3 Ag 0.22234(4) 0.22233(4) 0.250000
C1_4 C 0.4103(4) 0.0131(4) 0.30327(5)
C2_4 C 0.4377(6) 0.0006(5) 0.31528(6)
C3_4 C 0.4991(6) 0.0870(6) 0.32274(7)
H2_4 H 0.516484 0.074478 0.331013
N1_4 N 0.5354(4) 0.1851(4) 0.31936(5)
C4_4 C 0.5104(5) 0.1981(5) 0.30765(6)
H3_4 H 0.534320 0.267811 0.304745
C5_4 C 0.4503(5) 0.1141(5) 0.29931(7)
H4_4 H 0.437602 0.128081 0.290868
C8_4 C 0.1710(5) 0.0353(5) 0.26948(7)
H6_4 H 0.104785 0.032208 0.270116
N2_3 N 0.2399(3) 0.1022(3) 0.26126(4)
C9_4 C 0.3290(5) 0.1004(4) 0.26052(6)
H7_4 H 0.379419 0.144449 0.254385
C10_4 C 0.3533(5) 0.0389(4) 0.26806(6)
H8_4 H 0.419863 0.043243 0.267266
H11_4 H 0.711602 0.021709 0.279072
Bi2_4 Bi 0.55871(3) 0.68727(2) 0.29069(2)
Ag3_4 Ag 1.00000(6) 0.77766(4) 0.250000
C16_4 C 0.6029(6) 0.5897(4) 0.30327(5)
C17_4 C 0.5630(8) 0.5623(6) 0.31528(6)
H13_4 H 0.517627 0.585726 0.318495
C18_4 C 0.5880(8) 0.5009(6) 0.32274(7)
H14_4 H 0.557995 0.483516 0.331013
N4_4 N 0.6498(6) 0.4646(4) 0.31936(5)
C19_4 C 0.6878(7) 0.4896(5) 0.30765(6)
H15_4 H 0.733492 0.465680 0.304745
C20_4 C 0.6639(7) 0.5497(5) 0.29931(7)
H16_4 H 0.690480 0.562398 0.290868
C21_4 C 0.6900(6) 0.7192(4) 0.27682(5)
C22_4 C 0.7816(7) 0.8116(5) 0.27720(7)
H17_4 H 0.788904 0.865342 0.282875
C23_4 C 0.8644(7) 0.8290(5) 0.26948(7)
H18_4 H 0.927424 0.895215 0.270116
N5_3 N 0.8624(4) 0.7601(3) 0.26126(4)
C24_4 C 0.7715(6) 0.6710(5) 0.26052(6)
H19_4 H 0.765031 0.620581 0.254385
C25_4 C 0.6857(6) 0.6467(5) 0.26806(6)
H20_4 H 0.623381 0.580137 0.267266
C26_4 C 0.4436(6) 0.5438(4) 0.27932(5)
C27_4 C 0.4113(6) 0.5554(4) 0.26762(6)
H21_4 H 0.433623 0.624091 0.264449
C28_4 C 0.3470(7) 0.4694(5) 0.26036(6)
H22_4 H 0.329259 0.480909 0.252051
N6_3 N 0.3080(6) 0.3706(4) 0.26433(5)
C29_4 C 0.3368(7) 0.3579(5) 0.27593(6)
H23_4 H 0.310108 0.288398 0.279072
C30_4 C 0.4036(6) 0.4412(4) 0.28357(6)
H24_4 H 0.422205 0.428434 0.291763
Ag4_3 Ag 0.77767(4) 0.00000(6) 0.250000
C31_4 C 0.9869(4) 0.3971(6) 0.30327(5)
C32_4 C 0.9994(5) 0.4370(8) 0.31528(6)
C33_4 C 0.9130(6) 0.4120(8) 0.32274(7)
H26_4 H 0.925522 0.442005 0.331013
N7_4 N 0.8149(4) 0.3502(6) 0.31936(5)
C34_4 C 0.8019(5) 0.3122(7) 0.30765(6)
H27_4 H 0.732189 0.266508 0.304745
C35_4 C 0.8859(5) 0.3361(7) 0.29931(7)
H28_4 H 0.871919 0.309520 0.290868
C38_4 C 0.9647(5) 0.1356(7) 0.26948(7)
H30_4 H 0.967792 0.072576 0.270116
N8_3 N 0.8978(3) 0.1376(4) 0.26126(4)
C39_4 C 0.8996(4) 0.2285(6) 0.26052(6)
H31_4 H 0.855551 0.234969 0.254385
C40_4 C 0.9611(4) 0.3143(6) 0.26806(6)
H32_4 H 0.956757 0.376619 0.267266
H35_4 H 0.978291 0.689892 0.279072
C46_4 C 0.9231(4) 0.6535(4) 0.36339(5)
C47_4 C 0.8957(6) 0.6660(5) 0.35138(6)
H37_4 H 0.919060 0.734766 0.348171
C48_4 C 0.8343(6) 0.5796(6) 0.34392(7)
H38_4 H 0.816850 0.592188 0.335653
N10_4 N 0.7980(4) 0.4815(4) 0.34730(5)
C49_4 C 0.8230(5) 0.4685(5) 0.35901(6)
H39_4 H 0.799014 0.398855 0.361921
C50_4 C 0.8831(5) 0.5525(5) 0.36735(7)
H40_4 H 0.895732 0.538585 0.375798
H43_4 H 0.953915 0.522217 0.412281
C55_4 C 0.9801(5) 0.6277(4) 0.39860(6)
H44_4 H 0.913471 0.623423 0.399400
C56_4 C 0.8772(4) 0.7669(4) 0.38734(5)
C57_4 C 0.8888(4) 0.8108(4) 0.39904(6)
H45_4 H 0.957425 0.857135 0.402217
C58_4 C 0.8028(5) 0.7891(5) 0.40630(6)
H46_4 H 0.814243 0.818317 0.414615
N12_4 N 0.7040(4) 0.7293(4) 0.40233(5)
C59_4 C 0.6913(5) 0.6878(5) 0.39073(6)
H47_4 H 0.621732 0.644957 0.387594
C60_4 C 0.7746(4) 0.7043(5) 0.38309(6)
H48_4 H 0.761768 0.672896 0.374903
C61_4 C 0.7305(6) 0.0769(4) 0.36339(5)
C62_4 C 0.7704(8) 0.1043(6) 0.35138(6)
H49_4 H 0.815707 0.080940 0.348171
C63_4 C 0.7454(8) 0.1657(6) 0.34392(7)
H50_4 H 0.775339 0.183150 0.335653
N13_4 N 0.6836(6) 0.2020(4) 0.34730(5)
C64_4 C 0.6456(7) 0.1770(5) 0.35901(6)
H51_4 H 0.599842 0.200986 0.361921
C65_4 C 0.6695(7) 0.1169(5) 0.36735(7)
H52_4 H 0.642854 0.104268 0.375798
H55_4 H 0.568303 0.046085 0.412281
C70_4 C 0.6477(6) 0.0199(5) 0.39860(6)
H56_4 H 0.709953 0.086529 0.399400
C71_4 C 0.8898(6) 0.1228(4) 0.38734(5)
C72_4 C 0.9221(6) 0.1112(4) 0.39904(6)
H57_4 H 0.899711 0.042575 0.402217
C73_4 C 0.9864(7) 0.1972(5) 0.40630(6)
C74_4 C 0.9966(7) 0.3087(5) 0.39073(6)
C75_4 C 0.9298(6) 0.2254(4) 0.38309(6)
H60_4 H 0.911129 0.238232 0.374903
Bi6_4 Bi 0.20477(2) 0.22537(3) 0.37597(2)
C76_4 C 0.3465(4) 0.2695(6) 0.36339(5)
C77_4 C 0.3340(5) 0.2296(8) 0.35138(6)
H61_4 H 0.265234 0.184293 0.348171
C78_4 C 0.4204(6) 0.2546(8) 0.34392(7)
H62_4 H 0.407812 0.224661 0.335653
N16_4 N 0.5185(4) 0.3164(6) 0.34730(5)
C79_4 C 0.5315(5) 0.3544(7) 0.35901(6)
H63_4 H 0.601145 0.400158 0.361921
C80_4 C 0.4475(5) 0.3305(7) 0.36735(7)
H64_4 H 0.461415 0.357146 0.375798
C81_4 C 0.3041(4) 0.3566(6) 0.38984(5)
C82_4 C 0.3033(5) 0.4482(7) 0.38946(7)
H65_4 H 0.256895 0.455570 0.383791
C83_4 C 0.3687(5) 0.5310(7) 0.39718(7)
H66_4 H 0.365542 0.594090 0.396550
N17_4 N 0.4356(3) 0.5290(4) 0.40540(4)
C84_4 C 0.4338(4) 0.4381(6) 0.40614(6)
H67_4 H 0.477783 0.431697 0.412281
C85_4 C 0.3723(4) 0.3523(6) 0.39860(6)
H68_4 H 0.376577 0.290047 0.399400
C86_4 C 0.2331(4) 0.1102(6) 0.38734(5)
C87_4 C 0.1892(4) 0.0779(6) 0.39904(6)
H69_4 H 0.142865 0.100289 0.402217
C88_4 C 0.2109(5) 0.0136(7) 0.40630(6)
C89_4 C 0.3122(5) 0.0034(7) 0.39073(6)
C90_4 C 0.2957(5) 0.0702(6) 0.38309(6)
H72_4 H 0.327104 0.088871 0.374903
N19_3 N 0.1022(3) 0.2399(3) 0.23874(4)
N22_3 N 0.9373(4) 0.6294(4) 0.23567(5)
N23_3 N 0.3706(4) 0.3080(6) 0.23567(5)
N24_3 N 0.6920(6) 0.0627(4) 0.23567(5)
Bi1_4 Bi 0.31273(2) 0.87143(2) 0.29069(2)
H1_4 H 0.414274 0.931900 0.318495
C6_4 C 0.2808(4) 0.9707(4) 0.27682(5)
C7_4 C 0.1884(5) 0.9699(5) 0.27720(7)
H5_4 H 0.134658 0.923561 0.282875
C11_4 C 0.4562(4) 0.8997(4) 0.27932(5)
C12_4 C 0.4446(4) 0.8558(4) 0.26762(6)
H9_4 H 0.375909 0.809531 0.264449
C13_4 C 0.5306(5) 0.8775(5) 0.26036(6)
H10_4 H 0.519091 0.848349 0.252051
N3_3 N 0.6294(4) 0.9373(4) 0.26433(5)
C14_4 C 0.6421(5) 0.9788(5) 0.27593(6)
C15_4 C 0.5588(4) 0.9623(5) 0.28357(6)
H12_4 H 0.571566 0.993770 0.291763
Ag4_4 Ag 0.77767(4) 1.00000(6) 0.250000
Bi5_4 Bi 0.77463(3) 0.97939(2) 0.37597(2)
C66_4 C 0.6434(6) 0.9474(4) 0.38984(5)
C67_4 C 0.5518(7) 0.8550(5) 0.38946(7)
H53_4 H 0.544430 0.801324 0.383791
C68_4 C 0.4690(7) 0.8376(5) 0.39718(7)
H54_4 H 0.405910 0.771451 0.396550
N14_4 N 0.4710(4) 0.9065(3) 0.40540(4)
C69_4 C 0.5619(6) 0.9956(5) 0.40614(6)
H70_4 H 0.181683 0.995925 0.414615
N18_4 N 0.2707(4) 0.9746(6) 0.40233(5)
H71_4 H 0.355043 0.976774 0.387594
N20_3 N 0.7601(3) 0.8624(4) 0.23874(4)
Bi3_5 Bi 0.44129(3) 0.12857(2) 0.20931(2)
H25_5 H 0.482373 0.068100 0.181505
C36_5 C 0.3100(6) 0.0293(4) 0.22318(5)
C37_5 C 0.2184(7) 0.0301(5) 0.22280(7)
H29_5 H 0.211096 0.076439 0.217125
C41_5 C 0.5564(6) 0.1003(4) 0.22068(5)
C42_5 C 0.5887(6) 0.1442(4) 0.23238(6)
H33_5 H 0.566377 0.190469 0.235551
C43_5 C 0.6530(7) 0.1225(5) 0.23964(6)
H34_5 H 0.670741 0.151651 0.247949
C44_5 C 0.6632(7) 0.0212(5) 0.22407(6)
C45_5 C 0.5964(6) 0.0377(5) 0.21643(6)
H36_5 H 0.577795 0.006230 0.208237
Bi4_5 Bi 0.79523(2) 0.02061(2) 0.12403(2)
C51_5 C 0.6959(4) 0.0526(4) 0.11016(5)
C52_5 C 0.6967(5) 0.1450(5) 0.11054(7)
H41_5 H 0.743105 0.198676 0.116209
C53_5 C 0.6313(5) 0.1624(5) 0.10282(7)
H42_5 H 0.634458 0.228549 0.103450
N11_5 N 0.5644(3) 0.0935(3) 0.09460(4)
C54_5 C 0.5662(4) 0.0044(5) 0.09386(6)
H58_5 H 0.185757 0.004075 0.085385
N15_5 N 0.2960(4) 0.0254(6) 0.09767(5)
H59_5 H 0.378268 0.023226 0.112406
Ag1_15 Ag 0.333333 0.666667 0.166667
C1_5 C 0.0131(4) 0.4103(4) 0.19673(5)
C2_5 C 0.0006(5) 0.4377(6) 0.18472(6)
C3_5 C 0.0870(6) 0.4991(6) 0.17726(7)
H2_5 H 0.074478 0.516484 0.168987
N1_5 N 0.1851(4) 0.5354(4) 0.18064(5)
C4_5 C 0.1981(5) 0.5104(5) 0.19235(6)
H3_5 H 0.267811 0.534320 0.195255
C5_5 C 0.1141(5) 0.4503(5) 0.20069(7)
H4_5 H 0.128081 0.437602 0.209132
C8_5 C 0.0353(5) 0.1710(5) 0.23052(7)
H6_5 H 0.032208 0.104785 0.229884
C9_5 C 0.1004(4) 0.3290(5) 0.23948(6)
H7_5 H 0.144449 0.379419 0.245615
C10_5 C 0.0389(4) 0.3533(5) 0.23194(6)
H8_5 H 0.043243 0.419863 0.232734
H11_5 H 0.021709 0.711602 0.220928
Bi2_5 Bi 0.68727(2) 0.55871(3) 0.20931(2)
C16_5 C 0.5897(4) 0.6029(6) 0.19673(5)
C17_5 C 0.5623(6) 0.5630(8) 0.18472(6)
H13_5 H 0.585726 0.517627 0.181505
C18_5 C 0.5009(6) 0.5880(8) 0.17726(7)
H14_5 H 0.483516 0.557995 0.168987
N4_5 N 0.4646(4) 0.6498(6) 0.18064(5)
C19_5 C 0.4896(5) 0.6878(7) 0.19235(6)
H15_5 H 0.465680 0.733492 0.195255
C20_5 C 0.5497(5) 0.6639(7) 0.20069(7)
H16_5 H 0.562398 0.690480 0.209132
C21_5 C 0.7192(4) 0.6900(6) 0.22318(5)
C22_5 C 0.8116(5) 0.7816(7) 0.22280(7)
H17_5 H 0.865342 0.788904 0.217125
C23_5 C 0.8290(5) 0.8644(7) 0.23052(7)
H18_5 H 0.895215 0.927424 0.229884
C24_5 C 0.6710(5) 0.7715(6) 0.23948(6)
H19_5 H 0.620581 0.765031 0.245615
C25_5 C 0.6467(5) 0.6857(6) 0.23194(6)
H20_5 H 0.580137 0.623381 0.232734
C26_5 C 0.5438(4) 0.4436(6) 0.22068(5)
C27_5 C 0.5554(4) 0.4113(6) 0.23238(6)
H21_5 H 0.624091 0.433623 0.235551
C28_5 C 0.4694(5) 0.3470(7) 0.23964(6)
H22_5 H 0.480909 0.329259 0.247949
C29_5 C 0.3579(5) 0.3368(7) 0.22407(6)
H23_5 H 0.288398 0.310108 0.220928
C30_5 C 0.4412(4) 0.4036(6) 0.21643(6)
H24_5 H 0.428434 0.422205 0.208237
C31_5 C 0.3971(6) 0.9869(4) 0.19673(5)
C32_5 C 0.4370(8) 0.9994(5) 0.18472(6)
C33_5 C 0.4120(8) 0.9130(6) 0.17726(7)
H26_5 H 0.442005 0.925522 0.168987
N7_5 N 0.3502(6) 0.8149(4) 0.18064(5)
C34_5 C 0.3122(7) 0.8019(5) 0.19235(6)
H27_5 H 0.266508 0.732189 0.195255
C35_5 C 0.3361(7) 0.8859(5) 0.20069(7)
H28_5 H 0.309520 0.871919 0.209132
C38_5 C 0.1356(7) 0.9647(5) 0.23052(7)
H30_5 H 0.072576 0.967792 0.229884
C39_5 C 0.2285(6) 0.8996(4) 0.23948(6)
H31_5 H 0.234969 0.855551 0.245615
C40_5 C 0.3143(6) 0.9611(4) 0.23194(6)
H32_5 H 0.376619 0.956757 0.232734
H35_5 H 0.689892 0.978291 0.220928
C46_5 C 0.6535(4) 0.9231(4) 0.13661(5)
C47_5 C 0.6660(5) 0.8957(6) 0.14862(6)
H37_5 H 0.734766 0.919060 0.151829
C48_5 C 0.5796(6) 0.8343(6) 0.15608(7)
H38_5 H 0.592188 0.816850 0.164347
N10_5 N 0.4815(4) 0.7980(4) 0.15270(5)
C49_5 C 0.4685(5) 0.8230(5) 0.14099(6)
H39_5 H 0.398855 0.799014 0.138079
C50_5 C 0.5525(5) 0.8831(5) 0.13265(7)
H40_5 H 0.538585 0.895732 0.124202
H43_5 H 0.522217 0.953915 0.087719
C55_5 C 0.6277(4) 0.9801(5) 0.10140(6)
H44_5 H 0.623423 0.913471 0.100600
C56_5 C 0.7669(4) 0.8772(4) 0.11266(5)
C57_5 C 0.8108(4) 0.8888(4) 0.10096(6)
H45_5 H 0.857135 0.957425 0.097783
C58_5 C 0.7891(5) 0.8028(5) 0.09370(6)
H46_5 H 0.818317 0.814243 0.085385
N12_5 N 0.7293(4) 0.7040(4) 0.09767(5)
C59_5 C 0.6878(5) 0.6913(5) 0.10927(6)
H47_5 H 0.644957 0.621732 0.112406
C60_5 C 0.7043(5) 0.7746(4) 0.11691(6)
H48_5 H 0.672896 0.761768 0.125097
C61_5 C 0.0769(4) 0.7305(6) 0.13661(5)
C62_5 C 0.1043(6) 0.7704(8) 0.14862(6)
H49_5 H 0.080940 0.815707 0.151829
C63_5 C 0.1657(6) 0.7454(8) 0.15608(7)
H50_5 H 0.183150 0.775339 0.164347
N13_5 N 0.2020(4) 0.6836(6) 0.15270(5)
C64_5 C 0.1770(5) 0.6456(7) 0.14099(6)
H51_5 H 0.200986 0.599842 0.138079
C65_5 C 0.1169(5) 0.6695(7) 0.13265(7)
H52_5 H 0.104268 0.642854 0.124202
H55_5 H 0.046085 0.568303 0.087719
C70_5 C 0.0199(5) 0.6477(6) 0.10140(6)
H56_5 H 0.086529 0.709953 0.100600
C71_5 C 0.1228(4) 0.8898(6) 0.11266(5)
C72_5 C 0.1112(4) 0.9221(6) 0.10096(6)
H57_5 H 0.042575 0.899711 0.097783
C73_5 C 0.1972(5) 0.9864(7) 0.09370(6)
C74_5 C 0.3087(5) 0.9966(7) 0.10927(6)
C75_5 C 0.2254(4) 0.9298(6) 0.11691(6)
H60_5 H 0.238232 0.911129 0.125097
Bi6_5 Bi 0.22537(3) 0.20477(2) 0.12403(2)
C76_5 C 0.2695(6) 0.3465(4) 0.13661(5)
C77_5 C 0.2296(8) 0.3340(5) 0.14862(6)
H61_5 H 0.184293 0.265234 0.151829
C78_5 C 0.2546(8) 0.4204(6) 0.15608(7)
H62_5 H 0.224661 0.407812 0.164347
N16_5 N 0.3164(6) 0.5185(4) 0.15270(5)
C79_5 C 0.3544(7) 0.5315(5) 0.14099(6)
H63_5 H 0.400158 0.601145 0.138079
C80_5 C 0.3305(7) 0.4475(5) 0.13265(7)
H64_5 H 0.357146 0.461415 0.124202
C81_5 C 0.3566(6) 0.3041(4) 0.11016(5)
C82_5 C 0.4482(7) 0.3033(5) 0.11054(7)
H65_5 H 0.455570 0.256895 0.116209
C83_5 C 0.5310(7) 0.3687(5) 0.10282(7)
H66_5 H 0.594090 0.365542 0.103450
N17_5 N 0.5290(4) 0.4356(3) 0.09460(4)
C84_5 C 0.4381(6) 0.4338(4) 0.09386(6)
H67_5 H 0.431697 0.477783 0.087719
C85_5 C 0.3523(6) 0.3723(4) 0.10140(6)
H68_5 H 0.290047 0.376577 0.100600
C86_5 C 0.1102(6) 0.2331(4) 0.11266(5)
C87_5 C 0.0779(6) 0.1892(4) 0.10096(6)
H69_5 H 0.100289 0.142865 0.097783
C88_5 C 0.0136(7) 0.2109(5) 0.09370(6)
C89_5 C 0.0034(7) 0.3122(5) 0.10927(6)
C90_5 C 0.0702(6) 0.2957(5) 0.11691(6)
H72_5 H 0.088871 0.327104 0.125097
Bi1_5 Bi 0.87143(2) 0.31273(2) 0.20931(2)
H1_5 H 0.931900 0.414274 0.181505
C6_5 C 0.9707(4) 0.2808(4) 0.22318(5)
C7_5 C 0.9699(5) 0.1884(5) 0.22280(7)
H5_5 H 0.923561 0.134658 0.217125
C11_5 C 0.8997(4) 0.4562(4) 0.22068(5)
C12_5 C 0.8558(4) 0.4446(4) 0.23238(6)
H9_5 H 0.809531 0.375909 0.235551
C13_5 C 0.8775(5) 0.5306(5) 0.23964(6)
H10_5 H 0.848349 0.519091 0.247949
C14_5 C 0.9788(5) 0.6421(5) 0.22407(6)
C15_5 C 0.9623(5) 0.5588(4) 0.21643(6)
H12_5 H 0.993770 0.571566 0.208237
Bi5_5 Bi 0.97939(2) 0.77463(3) 0.12403(2)
C66_5 C 0.9474(4) 0.6434(6) 0.11016(5)
C67_5 C 0.8550(5) 0.5518(7) 0.11054(7)
H53_5 H 0.801324 0.544430 0.116209
C68_5 C 0.8376(5) 0.4690(7) 0.10282(7)
H54_5 H 0.771451 0.405910 0.103450
N14_5 N 0.9065(3) 0.4710(4) 0.09460(4)
C69_5 C 0.9956(5) 0.5619(6) 0.09386(6)
H70_5 H 0.995925 0.181683 0.085385
N18_5 N 0.9746(6) 0.2707(4) 0.09767(5)
H71_5 H 0.976774 0.355043 0.112406
Bi2_6 Bi 0.22537(3) 0.02061(2) 0.62403(2)
C21_6 C 0.3566(6) 0.0526(4) 0.61016(5)
C22_6 C 0.4482(7) 0.1450(5) 0.61054(7)
H17_6 H 0.455570 0.198676 0.616209
C23_6 C 0.5310(7) 0.1624(5) 0.60282(7)
H18_6 H 0.594090 0.228549 0.603450
C24_6 C 0.4381(6) 0.0044(5) 0.59386(6)
H34_6 H 0.818317 0.004075 0.585385
H35_6 H 0.644957 0.023226 0.612406
Bi4_6 Bi 0.68727(2) 0.12857(2) 0.70931(2)
H37_6 H 0.585726 0.068100 0.681505
C51_6 C 0.7192(4) 0.0293(4) 0.72318(5)
C52_6 C 0.8116(5) 0.0301(5) 0.72280(7)
H41_6 H 0.865342 0.076439 0.717125
C56_6 C 0.5438(4) 0.1003(4) 0.72068(5)
C57_6 C 0.5554(4) 0.1442(4) 0.73238(6)
H45_6 H 0.624091 0.190469 0.735551
C58_6 C 0.4694(5) 0.1225(5) 0.73964(6)
H46_6 H 0.480909 0.151651 0.747949
N12_6 N 0.3706(4) 0.0627(4) 0.73567(5)
C59_6 C 0.3579(5) 0.0212(5) 0.72407(6)
C60_6 C 0.4412(4) 0.0377(5) 0.71643(6)
H48_6 H 0.428434 0.006230 0.708237
Ag1_16 Ag 0.333333 0.666667 0.666667
C1_6 C 0.0769(4) 0.3465(4) 0.63661(5)
C2_6 C 0.1043(6) 0.3340(5) 0.64862(6)
H1_6 H 0.080940 0.265234 0.651829
C3_6 C 0.1657(6) 0.4204(6) 0.65608(7)
H2_6 H 0.183150 0.407812 0.664347
N1_6 N 0.2020(4) 0.5185(4) 0.65270(5)
C4_6 C 0.1770(5) 0.5315(5) 0.64099(6)
H3_6 H 0.200986 0.601145 0.638079
C5_6 C 0.1169(5) 0.4475(5) 0.63265(7)
H4_6 H 0.104268 0.461415 0.624202
H7_6 H 0.046085 0.477783 0.587719
C10_6 C 0.0199(5) 0.3723(4) 0.60140(6)
H8_6 H 0.086529 0.376577 0.600600
C11_6 C 0.1228(4) 0.2331(4) 0.61266(5)
C12_6 C 0.1112(4) 0.1892(4) 0.60096(6)
H9_6 H 0.042575 0.142865 0.597783
C13_6 C 0.1972(5) 0.2109(5) 0.59370(6)
H10_6 H 0.185757 0.181683 0.585385
C14_6 C 0.3087(5) 0.3122(5) 0.60927(6)
H11_6 H 0.378268 0.355043 0.612406
C15_6 C 0.2254(4) 0.2957(5) 0.61691(6)
H12_6 H 0.238232 0.327104 0.625097
C16_6 C 0.2695(6) 0.9231(4) 0.63661(5)
C17_6 C 0.2296(8) 0.8957(6) 0.64862(6)
H13_6 H 0.184293 0.919060 0.651829
C18_6 C 0.2546(8) 0.8343(6) 0.65608(7)
H14_6 H 0.224661 0.816850 0.664347
N4_6 N 0.3164(6) 0.7980(4) 0.65270(5)
C19_6 C 0.3544(7) 0.8230(5) 0.64099(6)
H15_6 H 0.400158 0.799014 0.638079
C20_6 C 0.3305(7) 0.8831(5) 0.63265(7)
H16_6 H 0.357146 0.895732 0.624202
H19_6 H 0.431697 0.953915 0.587719
C25_6 C 0.3523(6) 0.9801(5) 0.60140(6)
H20_6 H 0.290047 0.913471 0.600600
C26_6 C 0.1102(6) 0.8772(4) 0.61266(5)
C27_6 C 0.0779(6) 0.8888(4) 0.60096(6)
H21_6 H 0.100289 0.957425 0.597783
C28_6 C 0.0136(7) 0.8028(5) 0.59370(6)
C29_6 C 0.0034(7) 0.6913(5) 0.60927(6)
C30_6 C 0.0702(6) 0.7746(4) 0.61691(6)
H24_6 H 0.088871 0.761768 0.625097
Bi3_6 Bi 0.79523(2) 0.77463(3) 0.62403(2)
C31_6 C 0.6535(4) 0.7305(6) 0.63661(5)
C32_6 C 0.6660(5) 0.7704(8) 0.64862(6)
H25_6 H 0.734766 0.815707 0.651829
C33_6 C 0.5796(6) 0.7454(8) 0.65608(7)
H26_6 H 0.592188 0.775339 0.664347
N7_6 N 0.4815(4) 0.6836(6) 0.65270(5)
C34_6 C 0.4685(5) 0.6456(7) 0.64099(6)
H27_6 H 0.398855 0.599842 0.638079
C35_6 C 0.5525(5) 0.6695(7) 0.63265(7)
H28_6 H 0.538585 0.642854 0.624202
C36_6 C 0.6959(4) 0.6434(6) 0.61016(5)
C37_6 C 0.6967(5) 0.5518(7) 0.61054(7)
H29_6 H 0.743105 0.544430 0.616209
C38_6 C 0.6313(5) 0.4690(7) 0.60282(7)
H30_6 H 0.634458 0.405910 0.603450
C39_6 C 0.5662(4) 0.5619(6) 0.59386(6)
H31_6 H 0.522217 0.568303 0.587719
C40_6 C 0.6277(4) 0.6477(6) 0.60140(6)
H32_6 H 0.623423 0.709953 0.600600
C41_6 C 0.7669(4) 0.8898(6) 0.61266(5)
C42_6 C 0.8108(4) 0.9221(6) 0.60096(6)
H33_6 H 0.857135 0.899711 0.597783
C43_6 C 0.7891(5) 0.9864(7) 0.59370(6)
C44_6 C 0.6878(5) 0.9966(7) 0.60927(6)
C45_6 C 0.7043(5) 0.9298(6) 0.61691(6)
H36_6 H 0.672896 0.911129 0.625097
C46_6 C 0.5897(4) 0.9869(4) 0.69673(5)
C47_6 C 0.5623(6) 0.9994(5) 0.68472(6)
C48_6 C 0.5009(6) 0.9130(6) 0.67726(7)
H38_6 H 0.483516 0.925522 0.668987
N10_6 N 0.4646(4) 0.8149(4) 0.68064(5)
C49_6 C 0.4896(5) 0.8019(5) 0.69235(6)
H39_6 H 0.465680 0.732189 0.695255
C50_6 C 0.5497(5) 0.8859(5) 0.70069(7)
H40_6 H 0.562398 0.871919 0.709132
C53_6 C 0.8290(5) 0.9647(5) 0.73052(7)
H42_6 H 0.895215 0.967792 0.729884
N11_6 N 0.7601(3) 0.8978(3) 0.73874(4)
C54_6 C 0.6710(5) 0.8996(4) 0.73948(6)
H43_6 H 0.620581 0.855551 0.745615
C55_6 C 0.6467(5) 0.9611(4) 0.73194(6)
H44_6 H 0.580137 0.956757 0.732734
H47_6 H 0.288398 0.978291 0.720928
Bi5_6 Bi 0.44129(3) 0.31273(2) 0.70931(2)
C61_6 C 0.3971(6) 0.4103(4) 0.69673(5)
C62_6 C 0.4370(8) 0.4377(6) 0.68472(6)
H49_6 H 0.482373 0.414274 0.681505
C63_6 C 0.4120(8) 0.4991(6) 0.67726(7)
H50_6 H 0.442005 0.516484 0.668987
N13_6 N 0.3502(6) 0.5354(4) 0.68064(5)
C64_6 C 0.3122(7) 0.5104(5) 0.69235(6)
H51_6 H 0.266508 0.534320 0.695255
C65_6 C 0.3361(7) 0.4503(5) 0.70069(7)
H52_6 H 0.309520 0.437602 0.709132
C66_6 C 0.3100(6) 0.2808(4) 0.72318(5)
C67_6 C 0.2184(7) 0.1884(5) 0.72280(7)
H53_6 H 0.211096 0.134658 0.717125
C68_6 C 0.1356(7) 0.1710(5) 0.73052(7)
H54_6 H 0.072576 0.104785 0.729884
N14_6 N 0.1376(4) 0.2399(3) 0.73874(4)
C69_6 C 0.2285(6) 0.3290(5) 0.73948(6)
H55_6 H 0.234969 0.379419 0.745615
C70_6 C 0.3143(6) 0.3533(5) 0.73194(6)
H56_6 H 0.376619 0.419863 0.732734
C71_6 C 0.5564(6) 0.4562(4) 0.72068(5)
C72_6 C 0.5887(6) 0.4446(4) 0.73238(6)
H57_6 H 0.566377 0.375909 0.735551
C73_6 C 0.6530(7) 0.5306(5) 0.73964(6)
H58_6 H 0.670741 0.519091 0.747949
N15_6 N 0.6920(6) 0.6294(4) 0.73567(5)
C74_6 C 0.6632(7) 0.6421(5) 0.72407(6)
H59_6 H 0.689892 0.711602 0.720928
C75_6 C 0.5964(6) 0.5588(4) 0.71643(6)
H60_6 H 0.577795 0.571566 0.708237
C76_6 C 0.0131(4) 0.6029(6) 0.69673(5)
C77_6 C 0.0006(5) 0.5630(8) 0.68472(6)
C78_6 C 0.0870(6) 0.5880(8) 0.67726(7)
H62_6 H 0.074478 0.557995 0.668987
N16_6 N 0.1851(4) 0.6498(6) 0.68064(5)
C79_6 C 0.1981(5) 0.6878(7) 0.69235(6)
H63_6 H 0.267811 0.733492 0.695255
C80_6 C 0.1141(5) 0.6639(7) 0.70069(7)
H64_6 H 0.128081 0.690480 0.709132
C83_6 C 0.0353(5) 0.8644(7) 0.73052(7)
H66_6 H 0.032208 0.927424 0.729884
N17_6 N 0.1022(3) 0.8624(4) 0.73874(4)
C84_6 C 0.1004(4) 0.7715(6) 0.73948(6)
H67_6 H 0.144449 0.765031 0.745615
C85_6 C 0.0389(4) 0.6857(6) 0.73194(6)
H68_6 H 0.043243 0.623381 0.732734
H71_6 H 0.021709 0.310108 0.720928
Bi1_6 Bi 0.97939(2) 0.20477(2) 0.62403(2)
C6_6 C 0.9474(4) 0.3041(4) 0.61016(5)
C7_6 C 0.8550(5) 0.3033(5) 0.61054(7)
H5_6 H 0.801324 0.256895 0.616209
C8_6 C 0.8376(5) 0.3687(5) 0.60282(7)
H6_6 H 0.771451 0.365542 0.603450
C9_6 C 0.9956(5) 0.4338(4) 0.59386(6)
H22_6 H 0.995925 0.814243 0.585385
H23_6 H 0.976774 0.621732 0.612406
Bi6_6 Bi 0.87143(2) 0.55871(3) 0.70931(2)
H61_6 H 0.931900 0.517627 0.681505
C81_6 C 0.9707(4) 0.6900(6) 0.72318(5)
C82_6 C 0.9699(5) 0.7816(7) 0.72280(7)
H65_6 H 0.923561 0.788904 0.717125
C86_6 C 0.8997(4) 0.4436(6) 0.72068(5)
C87_6 C 0.8558(4) 0.4113(6) 0.73238(6)
H69_6 H 0.809531 0.433623 0.735551
C88_6 C 0.8775(5) 0.3470(7) 0.73964(6)
H70_6 H 0.848349 0.329259 0.747949
N18_6 N 0.9373(4) 0.3080(6) 0.73567(5)
C89_6 C 0.9788(5) 0.3368(7) 0.72407(6)
C90_6 C 0.9623(5) 0.4036(6) 0.71643(6)
H72_6 H 0.993770 0.422205 0.708237
P1 P 0.333333 0.666667 0.51547(3)
F1 F 0.4313(3) 0.7393(3) 0.52413(4)
F2 F 0.3574(4) 0.7653(3) 0.50728(5)
F3 F 0.2607(3) 0.6920(4) 0.52413(4)
F4 F 0.2347(3) 0.5921(5) 0.50728(5)
F5 F 0.3080(4) 0.5687(3) 0.52413(4)
F6 F 0.4079(5) 0.6426(4) 0.50728(5)
P1_2 P 0.666667 0.333333 0.98453(3)
F1_2 F 0.7393(3) 0.4313(3) 0.97587(4)
F2_2 F 0.7653(3) 0.3574(4) 0.99272(5)
F3_2 F 0.6920(4) 0.2607(3) 0.97587(4)
F4_2 F 0.5921(5) 0.2347(3) 0.99272(5)
F5_2 F 0.5687(3) 0.3080(4) 0.97587(4)
F6_2 F 0.6426(4) 0.4079(5) 0.99272(5)
P1_3 P -0.000000 0.000000 0.84880(3)
F1_3 F 0.0980(3) 0.0726(3) 0.85746(4)
F2_3 F 0.0241(4) 0.0986(3) 0.84061(5)
P1_4 P -0.000000 1.000000 0.84880(3)
F6_3 F 0.0746(5) 0.9759(4) 0.84061(5)
P1_5 P 1.000000 0.000000 0.84880(3)
F3_3 F 0.9274(3) 0.0253(4) 0.85746(4)
P1_6 P 1.000000 1.000000 0.84880(3)
F4_3 F 0.9014(3) 0.9254(5) 0.84061(5)
F5_3 F 0.9747(4) 0.9020(3) 0.85746(4)
P1_7 P 0.333334 0.666666 0.31786(3)
F1_4 F 0.4060(3) 0.7646(3) 0.30920(4)
F2_4 F 0.4320(3) 0.6907(4) 0.32605(5)
F3_4 F 0.3587(4) 0.5940(3) 0.30920(4)
F4_4 F 0.2588(5) 0.5680(3) 0.32605(5)
F5_4 F 0.2354(3) 0.6413(4) 0.30920(4)
F6_4 F 0.3093(4) 0.7412(5) 0.32605(5)
P1_8 P 0.666666 0.333334 0.18214(3)
F1_5 F 0.7646(3) 0.4060(3) 0.19080(4)
F2_5 F 0.6907(4) 0.4320(3) 0.17395(5)
F3_5 F 0.5940(3) 0.3587(4) 0.19080(4)
F4_5 F 0.5680(3) 0.2588(5) 0.17395(5)
F5_5 F 0.6413(4) 0.2354(3) 0.19080(4)
F6_5 F 0.7412(5) 0.3093(4) 0.17395(5)
P1_9 P 0.000000 -0.000000 0.65120(3)
F1_6 F 0.0726(3) 0.0980(3) 0.64254(4)
F2_6 F 0.0986(3) 0.0241(4) 0.65939(5)
P1_10 P 0.000000 1.000000 0.65120(3)
F3_6 F 0.0253(4) 0.9274(3) 0.64254(4)
P1_11 P 1.000000 -0.000000 0.65120(3)
F6_6 F 0.9759(4) 0.0746(5) 0.65939(5)
P1_12 P 1.000000 1.000000 0.65120(3)
F4_6 F 0.9254(5) 0.9014(3) 0.65939(5)
F5_6 F 0.9020(3) 0.9747(4) 0.64254(4)
P1_13 P 0.666667 0.333333 0.48453(3)
F1_7 F 0.5687(3) 0.2607(3) 0.47587(4)
F2_7 F 0.6426(4) 0.2347(3) 0.49272(5)
F3_7 F 0.7393(3) 0.3080(4) 0.47587(4)
F4_7 F 0.7653(3) 0.4079(5) 0.49272(5)
F5_7 F 0.6920(4) 0.4313(3) 0.47587(4)
F6_7 F 0.5921(5) 0.3574(4) 0.49272(5)
P1_14 P 0.333333 0.666667 0.01547(3)
F1_8 F 0.2607(3) 0.5687(3) 0.02413(4)
F2_8 F 0.2347(3) 0.6426(4) 0.00728(5)
F3_8 F 0.3080(4) 0.7393(3) 0.02413(4)
F4_8 F 0.4079(5) 0.7653(3) 0.00728(5)
F5_8 F 0.4313(3) 0.6920(4) 0.02413(4)
F6_8 F 0.3574(4) 0.5921(5) 0.00728(5)
P1_15 P 0.000000 -0.000000 0.15120(3)
F4_9 F 0.0986(3) 0.0746(5) 0.15939(5)
F5_9 F 0.0253(4) 0.0980(3) 0.14254(4)
P1_16 P 0.000000 1.000000 0.15120(3)
F3_9 F 0.0726(3) 0.9747(4) 0.14254(4)
P1_17 P 1.000000 -0.000000 0.15120(3)
F6_9 F 0.9254(5) 0.0241(4) 0.15939(5)
P1_18 P 1.000000 1.000000 0.15120(3)
F1_9 F 0.9020(3) 0.9274(3) 0.14254(4)
F2_9 F 0.9759(4) 0.9014(3) 0.15939(5)
P1_19 P 0.666666 0.333334 0.68214(3)
F1_10 F 0.5940(3) 0.2354(3) 0.69080(4)
F2_10 F 0.5680(3) 0.3093(4) 0.67395(5)
F3_10 F 0.6413(4) 0.4060(3) 0.69080(4)
F4_10 F 0.7412(5) 0.4320(3) 0.67395(5)
F5_10 F 0.7646(3) 0.3587(4) 0.69080(4)
F6_10 F 0.6907(4) 0.2588(5) 0.67395(5)
P1_20 P 0.333334 0.666666 0.81786(3)
F1_11 F 0.2354(3) 0.5940(3) 0.80920(4)
F2_11 F 0.3093(4) 0.5680(3) 0.82605(5)
F3_11 F 0.4060(3) 0.6413(4) 0.80920(4)
F4_11 F 0.4320(3) 0.7412(5) 0.82605(5)
F5_11 F 0.3587(4) 0.7646(3) 0.80920(4)
F6_11 F 0.2588(5) 0.6907(4) 0.82605(5)
P1_21 P -0.000000 0.000000 0.34880(3)
F4_12 F 0.0746(5) 0.0986(3) 0.34061(5)
F5_12 F 0.0980(3) 0.0253(4) 0.35746(4)
P1_22 P -0.000000 1.000000 0.34880(3)
F6_12 F 0.0241(4) 0.9254(5) 0.34061(5)
P1_23 P 1.000000 0.000000 0.34880(3)
F3_12 F 0.9747(4) 0.0726(3) 0.35746(4)
P1_24 P 1.000000 1.000000 0.34880(3)
F1_12 F 0.9274(3) 0.9020(3) 0.35746(4)
F2_12 F 0.9014(3) 0.9759(4) 0.34061(5)
P2 P 0.000000 0.000000 0.56373(2)
F10 F 0.0907(4) 0.0840(6) 0.55546(5)
F11 F 0.0066(4) 0.0907(3) 0.57212(4)
P2_2 P 0.000000 1.000000 0.56373(2)
F9 F 0.0841(3) 0.9934(4) 0.57212(4)
P2_3 P 1.000000 0.000000 0.56373(2)
F12 F 0.9160(6) 0.0067(4) 0.55546(5)
P2_4 P 1.000000 1.000000 0.56373(2)
F7 F 0.9093(3) 0.9159(3) 0.57212(4)
F8 F 0.9933(4) 0.9093(4) 0.55546(5)
P2_5 P -0.000000 -0.000000 0.93627(2)
F10_2 F 0.0840(6) 0.0907(4) 0.94454(5)
F11_2 F 0.0907(3) 0.0066(4) 0.92788(4)
P2_6 P -0.000000 1.000000 0.93627(2)
F12_2 F 0.0067(4) 0.9160(6) 0.94454(5)
P2_7 P 1.000000 -0.000000 0.93627(2)
F9_2 F 0.9934(4) 0.0841(3) 0.92788(4)
P2_8 P 1.000000 1.000000 0.93627(2)
F7_2 F 0.9159(3) 0.9093(3) 0.92788(4)
F8_2 F 0.9093(4) 0.9933(4) 0.94454(5)
P2_9 P 0.666667 0.333333 0.89706(2)
F7_3 F 0.5760(3) 0.2492(3) 0.90545(4)
F8_3 F 0.6600(4) 0.2426(4) 0.88879(5)
F9_3 F 0.7508(3) 0.3267(4) 0.90545(4)
F10_3 F 0.7574(4) 0.4173(6) 0.88879(5)
F11_3 F 0.6733(4) 0.4240(3) 0.90545(4)
F12_3 F 0.5827(6) 0.3400(4) 0.88879(5)
P2_10 P 0.666667 0.333333 0.26960(2)
F7_4 F 0.5826(3) 0.2426(3) 0.26121(4)
F8_4 F 0.5760(4) 0.3266(4) 0.27787(5)
F9_4 F 0.6601(4) 0.4174(3) 0.26121(4)
F10_4 F 0.7507(6) 0.4240(4) 0.27787(5)
F11_4 F 0.7574(3) 0.3399(4) 0.26121(4)
F12_4 F 0.6734(4) 0.2493(6) 0.27787(5)
P2_11 P 0.333333 0.666667 0.23040(2)
F7_5 F 0.2426(3) 0.5826(3) 0.23879(4)
F8_5 F 0.3266(4) 0.5760(4) 0.22213(5)
F9_5 F 0.4174(3) 0.6601(4) 0.23879(4)
F10_5 F 0.4240(4) 0.7507(6) 0.22213(5)
F11_5 F 0.3399(4) 0.7574(3) 0.23879(4)
F12_5 F 0.2493(6) 0.6734(4) 0.22213(5)
P2_12 P 0.333333 0.666667 0.60294(2)
F7_6 F 0.2492(3) 0.5760(3) 0.59455(4)
F8_6 F 0.2426(4) 0.6600(4) 0.61121(5)
F9_6 F 0.3267(4) 0.7508(3) 0.59455(4)
F10_6 F 0.4173(6) 0.7574(4) 0.61121(5)
F11_6 F 0.4240(3) 0.6733(4) 0.59455(4)
F12_6 F 0.3400(4) 0.5827(6) 0.61121(5)
P2_13 P 0.000000 0.000000 0.43627(2)
F7_7 F 0.0907(3) 0.0841(3) 0.42788(4)
F8_7 F 0.0067(4) 0.0907(4) 0.44454(5)
P2_14 P -0.000000 1.000000 0.43627(2)
F12_7 F 0.0840(6) 0.9933(4) 0.44454(5)
P2_15 P 1.000000 0.000000 0.43627(2)
F9_7 F 0.9159(3) 0.0066(4) 0.42788(4)
P2_16 P 1.000000 1.000000 0.43627(2)
F10_7 F 0.9093(4) 0.9160(6) 0.44454(5)
F11_7 F 0.9934(4) 0.9093(3) 0.42788(4)
P2_17 P 0.000000 0.000000 0.06373(2)
F7_8 F 0.0841(3) 0.0907(3) 0.07212(4)
F8_8 F 0.0907(4) 0.0067(4) 0.05546(5)
P2_18 P -0.000000 1.000000 0.06373(2)
F9_8 F 0.0066(4) 0.9159(3) 0.07212(4)
P2_19 P 1.000000 0.000000 0.06373(2)
F12_8 F 0.9933(4) 0.0840(6) 0.05546(5)
P2_20 P 1.000000 1.000000 0.06373(2)
F10_8 F 0.9160(6) 0.9093(4) 0.05546(5)
F11_8 F 0.9093(3) 0.9934(4) 0.07212(4)
P2_21 P 0.333333 0.666667 0.10294(2)
F7_9 F 0.4240(3) 0.7508(3) 0.09455(4)
F8_9 F 0.3400(4) 0.7574(4) 0.11121(5)
F9_9 F 0.2492(3) 0.6733(4) 0.09455(4)
F10_9 F 0.2426(4) 0.5827(6) 0.11121(5)
F11_9 F 0.3267(4) 0.5760(3) 0.09455(4)
F12_9 F 0.4173(6) 0.6600(4) 0.11121(5)
P2_22 P 0.333333 0.666667 0.73040(2)
F7_10 F 0.4174(3) 0.7574(3) 0.73879(4)
F8_10 F 0.4240(4) 0.6734(4) 0.72213(5)
F9_10 F 0.3399(4) 0.5826(3) 0.73879(4)
F10_10 F 0.2493(6) 0.5760(4) 0.72213(5)
F11_10 F 0.2426(3) 0.6601(4) 0.73879(4)
F12_10 F 0.3266(4) 0.7507(6) 0.72213(5)
P2_23 P 0.666667 0.333333 0.76960(2)
F7_11 F 0.7574(3) 0.4174(3) 0.76121(4)
F8_11 F 0.6734(4) 0.4240(4) 0.77787(5)
F9_11 F 0.5826(3) 0.3399(4) 0.76121(4)
F10_11 F 0.5760(4) 0.2493(6) 0.77787(5)
F11_11 F 0.6601(4) 0.2426(3) 0.76121(4)
F12_11 F 0.7507(6) 0.3266(4) 0.77787(5)
P2_24 P 0.666667 0.333333 0.39706(2)
F7_12 F 0.7508(3) 0.4240(3) 0.40545(4)
F8_12 F 0.7574(4) 0.3400(4) 0.38879(5)
F9_12 F 0.6733(4) 0.2492(3) 0.40545(4)
F10_12 F 0.5827(6) 0.2426(4) 0.38879(5)
F11_12 F 0.5760(3) 0.3267(4) 0.40545(4)
F12_12 F 0.6600(4) 0.4173(6) 0.38879(5)
loop_
_geom_bond_atom_site_label_1
_geom_bond_atom_site_label_2
_geom_bond_site_symmetry_1
_geom_bond_site_symmetry_2
Ag3 N5 1_555 1_555
H15 C19 1_555 1_555
C22 C21 1_555 1_555
H17 C22 1_555 1_555
C23 C22 1_555 1_555
H18 C23 1_555 1_555
N5 C23 1_555 1_555
C24 N5 1_555 1_555
H19 C24 1_555 1_555
C25 C21 1_555 1_555
Bi3 C31 1_555 1_555
C31 C32 1_555 1_555
C32 H25 1_555 1_555
C33 C32 1_555 1_555
H26 C33 1_555 1_555
N7 Ag1 1_555 1_555
C35 C31 1_555 1_555
C41 Bi3 1_555 1_555
C42 C41 1_555 1_555
H33 C42 1_555 1_555
C43 C42 1_555 1_555
H34 C43 1_555 1_555
N9 Ag3 1_555 1_555
C44 N9 1_555 1_555
H35 C44 1_555 1_555
C45 C41 1_555 1_555
H36 C45 1_555 1_555
Bi4 C46 1_555 1_555
C46 C47 1_555 1_555
C47 H37 1_555 1_555
C48 C47 1_555 1_555
H38 C48 1_555 1_555
N10 Ag1 1_555 1_555
C49 N10 1_555 1_555
H39 C49 1_555 1_555
C50 C46 1_555 1_555
H40 C50 1_555 1_555
C51 Bi4 1_555 1_555
C52 C51 1_555 1_555
H41 C52 1_555 1_555
C53 C52 1_555 1_555
H42 C53 1_555 1_555
N11 C53 1_555 1_555
C54 N11 1_555 1_555
H43 C54 1_555 1_555
C55 C51 1_555 1_555
H44 C55 1_555 1_555
C56 Bi4 1_555 1_555
C57 C56 1_555 1_555
H45 C57 1_555 1_555
C58 C57 1_555 1_555
H46 C58 1_555 1_555
N12 C58 1_555 1_555
C59 N12 1_555 1_555
C60 C56 1_555 1_555
H48 C60 1_555 1_555
Ag5 N11 1_555 1_555
N21 Ag3 1_555 1_555
N22 Ag3 1_555 1_555
C24 C25 1_555 1_555
C33 N7 1_555 1_555
C43 N9 1_555 1_555
C44 C45 1_555 1_555
C48 N10 1_555 1_555
C49 C50 1_555 1_555
C54 C55 1_555 1_555
C59 C60 1_555 1_555
Bi2 C16 1_555 1_555
C16 C17 1_555 1_555
C17 H13 1_555 1_555
C18 C17 1_555 1_555
H14 C18 1_555 1_555
N4 Ag1_2 1_555 1_555
C20 C16 1_555 1_555
C26 Bi2 1_555 1_555
C27 C26 1_555 1_555
H21 C27 1_555 1_555
C28 C27 1_555 1_555
H22 C28 1_555 1_555
C29 N6 1_555 1_555
C30 C26 1_555 1_555
H24 C30 1_555 1_555
H63 C79 1_555 1_555
C82 C81 1_555 1_555
H65 C82 1_555 1_555
C83 C82 1_555 1_555
H66 C83 1_555 1_555
N17 C83 1_555 1_555
C84 N17 1_555 1_555
H67 C84 1_555 1_555
C85 C81 1_555 1_555
C18 N4 1_555 1_555
C28 N6 1_555 1_555
C29 C30 1_555 1_555
N17 Ag7 1_555 1_555
C84 C85 1_555 1_555
H27 C34 1_555 1_555
C37 C36 1_555 1_555
H29 C37 1_555 1_555
C38 C37 1_555 1_555
H30 C38 1_555 1_555
N8 Ag4 1_555 1_555
C39 N8 1_555 1_555
H31 C39 1_555 1_555
C40 C36 1_555 1_555
Bi5 C61 1_555 1_555
C61 C62 1_555 1_555
C62 H49 1_555 1_555
C63 C62 1_555 1_555
H50 C63 1_555 1_555
N13 Ag1_3 1_555 1_555
C65 C61 1_555 1_555
C71 Bi5 1_555 1_555
C72 C71 1_555 1_555
H57 C72 1_555 1_555
C73 C72 1_555 1_555
H58 C73 1_555 1_555
N15 C73 1_555 1_555
C74 N15 1_555 1_555
C75 C71 1_555 1_555
H60 C75 1_555 1_555
N20 Ag4 1_555 1_555
N24 Ag4 1_555 1_555
C38 N8 1_555 1_555
C39 C40 1_555 1_555
C63 N13 1_555 1_555
C74 C75 1_555 1_555
Bi1 C1 1_555 1_555
Ag1_4 N1 1_555 1_555
Ag2 N2 1_555 1_555
C1 C2 1_555 1_555
C2 H1 1_555 1_555
C3 C2 1_555 1_555
H2 C3 1_555 1_555
N1 C3 1_555 1_555
C4 N1 1_555 1_555
H3 C4 1_555 1_555
C5 C1 1_555 1_555
H4 C5 1_555 1_555
C6 Bi1 1_555 1_555
C7 C6 1_555 1_555
H5 C7 1_555 1_555
C8 C7 1_555 1_555
H6 C8 1_555 1_555
N2 C8 1_555 1_555
C9 N2 1_555 1_555
H7 C9 1_555 1_555
C10 C6 1_555 1_555
H8 C10 1_555 1_555
C11 Bi1 1_555 1_555
C12 C11 1_555 1_555
H9 C12 1_555 1_555
C13 C12 1_555 1_555
H10 C13 1_555 1_555
N3 C13 1_555 1_555
C14 N3 1_555 1_555
C15 C11 1_555 1_555
H12 C15 1_555 1_555
H51 C64 1_555 1_555
C67 C66 1_555 1_555
H53 C67 1_555 1_555
C68 C67 1_555 1_555
H54 C68 1_555 1_555
N14 C68 1_555 1_555
C69 N14 1_555 1_555
H55 C69 1_555 1_555
C70 C66 1_555 1_555
Bi6 C76 1_555 1_555
C76 C77 1_555 1_555
C77 H61 1_555 1_555
C78 C77 1_555 1_555
H62 C78 1_555 1_555
N16 Ag1_4 1_555 1_555
C80 C76 1_555 1_555
C86 Bi6 1_555 1_555
C87 C86 1_555 1_555
H69 C87 1_555 1_555
C88 C87 1_555 1_555
H70 C88 1_555 1_555
N18 C88 1_555 1_555
C89 N18 1_555 1_555
H71 C89 1_555 1_555
C90 C86 1_555 1_555
H72 C90 1_555 1_555
Ag6 N14 1_555 1_555
N19 Ag2 1_555 1_555
N23 Ag2 1_555 1_555
C4 C5 1_555 1_555
C9 C10 1_555 1_555
C14 C15 1_555 1_555
C69 C70 1_555 1_555
C78 N16 1_555 1_555
N18 Ag6 1_555 1_555
C89 C90 1_555 1_555
Bi4_2 C46_2 1_555 1_555
C46_2 C47_2 1_555 1_555
C47_2 H37_2 1_555 1_555
C48_2 C47_2 1_555 1_555
H38_2 C48_2 1_555 1_555
N10_2 Ag1_5 1_555 1_555
C49_2 N10_2 1_555 1_555
H39_2 C49_2 1_555 1_555
C50_2 C46_2 1_555 1_555
H40_2 C50_2 1_555 1_555
C51_2 Bi4_2 1_555 1_555
C52_2 C51_2 1_555 1_555
H41_2 C52_2 1_555 1_555
C53_2 C52_2 1_555 1_555
H42_2 C53_2 1_555 1_555
N11_2 C53_2 1_555 1_555
C54_2 N11_2 1_555 1_555
H43_2 C54_2 1_555 1_555
C55_2 C51_2 1_555 1_555
H44_2 C55_2 1_555 1_555
C56_2 Bi4_2 1_555 1_555
C57_2 C56_2 1_555 1_555
H45_2 C57_2 1_555 1_555
C58_2 C57_2 1_555 1_555
H46_2 C58_2 1_555 1_555
N12_2 C58_2 1_555 1_555
C59_2 N12_2 1_555 1_555
C60_2 C56_2 1_555 1_555
H48_2 C60_2 1_555 1_555
Ag5_2 N11_2 1_555 1_555
C48_2 N10_2 1_555 1_555
C49_2 C50_2 1_555 1_555
C54_2 C55_2 1_555 1_555
C59_2 C60_2 1_555 1_555
Ag3_2 N5_2 1_555 1_555
H15_2 C19_2 1_555 1_555
C22_2 C21_2 1_555 1_555
H17_2 C22_2 1_555 1_555
C23_2 C22_2 1_555 1_555
H18_2 C23_2 1_555 1_555
N5_2 C23_2 1_555 1_555
C24_2 N5_2 1_555 1_555
H19_2 C24_2 1_555 1_555
C25_2 C21_2 1_555 1_555
Bi3_2 C31_2 1_555 1_555
C31_2 C32_2 1_555 1_555
C32_2 H25_2 1_555 1_555
C33_2 C32_2 1_555 1_555
H26_2 C33_2 1_555 1_555
N7_2 Ag1_6 1_555 1_555
C35_2 C31_2 1_555 1_555
C41_2 Bi3_2 1_555 1_555
C42_2 C41_2 1_555 1_555
H33_2 C42_2 1_555 1_555
C43_2 C42_2 1_555 1_555
H34_2 C43_2 1_555 1_555
N9_2 Ag3_2 1_555 1_555
C44_2 N9_2 1_555 1_555
H35_2 C44_2 1_555 1_555
C45_2 C41_2 1_555 1_555
H36_2 C45_2 1_555 1_555
N21_2 Ag3_2 1_555 1_555
N22_2 Ag3_2 1_555 1_555
C24_2 C25_2 1_555 1_555
C33_2 N7_2 1_555 1_555
C43_2 N9_2 1_555 1_555
C44_2 C45_2 1_555 1_555
Bi5_2 C61_2 1_555 1_555
C61_2 C62_2 1_555 1_555
C62_2 H49_2 1_555 1_555
C63_2 C62_2 1_555 1_555
H50_2 C63_2 1_555 1_555
N13_2 Ag1_7 1_555 1_555
C65_2 C61_2 1_555 1_555
C71_2 Bi5_2 1_555 1_555
C72_2 C71_2 1_555 1_555
H57_2 C72_2 1_555 1_555
C73_2 C72_2 1_555 1_555
H58_2 C73_2 1_555 1_555
N15_2 C73_2 1_555 1_555
C74_2 N15_2 1_555 1_555
C75_2 C71_2 1_555 1_555
H60_2 C75_2 1_555 1_555
C63_2 N13_2 1_555 1_555
C74_2 C75_2 1_555 1_555
H27_2 C34_2 1_555 1_555
C37_2 C36_2 1_555 1_555
H29_2 C37_2 1_555 1_555
C38_2 C37_2 1_555 1_555
H30_2 C38_2 1_555 1_555
N8_2 Ag4_2 1_555 1_555
C39_2 N8_2 1_555 1_555
H31_2 C39_2 1_555 1_555
C40_2 C36_2 1_555 1_555
N20_2 Ag4_2 1_555 1_555
N24_2 Ag4_2 1_555 1_555
C38_2 N8_2 1_555 1_555
C39_2 C40_2 1_555 1_555
H63_2 C79_2 1_555 1_555
C82_2 C81_2 1_555 1_555
H65_2 C82_2 1_555 1_555
C83_2 C82_2 1_555 1_555
H66_2 C83_2 1_555 1_555
N17_2 C83_2 1_555 1_555
C84_2 N17_2 1_555 1_555
H67_2 C84_2 1_555 1_555
C85_2 C81_2 1_555 1_555
N17_2 Ag7_2 1_555 1_555
C84_2 C85_2 1_555 1_555
Bi2_2 C16_2 1_555 1_555
C16_2 C17_2 1_555 1_555
C17_2 H13_2 1_555 1_555
C18_2 C17_2 1_555 1_555
H14_2 C18_2 1_555 1_555
N4_2 Ag1_10 1_555 1_555
C20_2 C16_2 1_555 1_555
C26_2 Bi2_2 1_555 1_555
C27_2 C26_2 1_555 1_555
H21_2 C27_2 1_555 1_555
C28_2 C27_2 1_555 1_555
H22_2 C28_2 1_555 1_555
C29_2 N6_2 1_555 1_555
C30_2 C26_2 1_555 1_555
H24_2 C30_2 1_555 1_555
C18_2 N4_2 1_555 1_555
C28_2 N6_2 1_555 1_555
C29_2 C30_2 1_555 1_555
H51_2 C64_2 1_555 1_555
C67_2 C66_2 1_555 1_555
H53_2 C67_2 1_555 1_555
C68_2 C67_2 1_555 1_555
H54_2 C68_2 1_555 1_555
N14_2 C68_2 1_555 1_555
C69_2 N14_2 1_555 1_555
H55_2 C69_2 1_555 1_555
C70_2 C66_2 1_555 1_555
Bi6_2 C76_2 1_555 1_555
C76_2 C77_2 1_555 1_555
C77_2 H61_2 1_555 1_555
C78_2 C77_2 1_555 1_555
H62_2 C78_2 1_555 1_555
N16_2 Ag1_11 1_555 1_555
C80_2 C76_2 1_555 1_555
C86_2 Bi6_2 1_555 1_555
C87_2 C86_2 1_555 1_555
H69_2 C87_2 1_555 1_555
C88_2 C87_2 1_555 1_555
H70_2 C88_2 1_555 1_555
N18_2 C88_2 1_555 1_555
C89_2 N18_2 1_555 1_555
H71_2 C89_2 1_555 1_555
C90_2 C86_2 1_555 1_555
H72_2 C90_2 1_555 1_555
Ag6_2 N14_2 1_555 1_555
C69_2 C70_2 1_555 1_555
C78_2 N16_2 1_555 1_555
N18_2 Ag6_2 1_555 1_555
C89_2 C90_2 1_555 1_555
Bi1_2 C1_2 1_555 1_555
Ag1_12 N1_2 1_555 1_555
Ag2_2 N2_2 1_555 1_555
C1_2 C2_2 1_555 1_555
C2_2 H1_2 1_555 1_555
C3_2 C2_2 1_555 1_555
H2_2 C3_2 1_555 1_555
N1_2 C3_2 1_555 1_555
C4_2 N1_2 1_555 1_555
H3_2 C4_2 1_555 1_555
C5_2 C1_2 1_555 1_555
H4_2 C5_2 1_555 1_555
C6_2 Bi1_2 1_555 1_555
C7_2 C6_2 1_555 1_555
H5_2 C7_2 1_555 1_555
C8_2 C7_2 1_555 1_555
H6_2 C8_2 1_555 1_555
N2_2 C8_2 1_555 1_555
C9_2 N2_2 1_555 1_555
H7_2 C9_2 1_555 1_555
C10_2 C6_2 1_555 1_555
H8_2 C10_2 1_555 1_555
C11_2 Bi1_2 1_555 1_555
C12_2 C11_2 1_555 1_555
H9_2 C12_2 1_555 1_555
C13_2 C12_2 1_555 1_555
H10_2 C13_2 1_555 1_555
N3_2 C13_2 1_555 1_555
C14_2 N3_2 1_555 1_555
C15_2 C11_2 1_555 1_555
H12_2 C15_2 1_555 1_555
N19_2 Ag2_2 1_555 1_555
N23_2 Ag2_2 1_555 1_555
C4_2 C5_2 1_555 1_555
C9_2 C10_2 1_555 1_555
C14_2 C15_2 1_555 1_555
C21_3 Bi2_3 1_555 1_555
C22_3 C21_3 1_555 1_555
H17_3 C22_3 1_555 1_555
C23_3 C22_3 1_555 1_555
H18_3 C23_3 1_555 1_555
N20_2 C23_3 1_555 1_555
C24_3 N20_2 1_555 1_555
C51_3 Bi4_3 1_555 1_555
C52_3 C51_3 1_555 1_555
H41_3 C52_3 1_555 1_555
C56_3 Bi4_3 1_555 1_555
C57_3 C56_3 1_555 1_555
H45_3 C57_3 1_555 1_555
C58_3 C57_3 1_555 1_555
H46_3 C58_3 1_555 1_555
N12_3 C58_3 1_555 1_555
C59_3 N12_3 1_555 1_555
C60_3 C56_3 1_555 1_555
H48_3 C60_3 1_555 1_555
Ag7_3 N12_3 1_555 1_555
C59_3 C60_3 1_555 1_555
Ag1_13 N1_3 1_555 1_555
C1_3 C2_3 1_555 1_555
C2_3 H1_3 1_555 1_555
C3_3 C2_3 1_555 1_555
H2_3 C3_3 1_555 1_555
N1_3 C3_3 1_555 1_555
C4_3 N1_3 1_555 1_555
H3_3 C4_3 1_555 1_555
C5_3 C1_3 1_555 1_555
H4_3 C5_3 1_555 1_555
H8_3 C10_3 1_555 1_555
C12_3 C11_3 1_555 1_555
H9_3 C12_3 1_555 1_555
C13_3 C12_3 1_555 1_555
H10_3 C13_3 1_555 1_555
N22_2 C13_3 1_555 1_555
C14_3 N22_2 1_555 1_555
H11_3 C14_3 1_555 1_555
C15_3 C11_3 1_555 1_555
H12_3 C15_3 1_555 1_555
C16_3 C17_3 1_555 1_555
C17_3 H13_3 1_555 1_555
C18_3 C17_3 1_555 1_555
H14_3 C18_3 1_555 1_555
N4_3 Ag1_13 1_555 1_555
C19_3 N4_3 1_555 1_555
H15_3 C19_3 1_555 1_555
C20_3 C16_3 1_555 1_555
H16_3 C20_3 1_555 1_555
H20_3 C25_3 1_555 1_555
C27_3 C26_3 1_555 1_555
H21_3 C27_3 1_555 1_555
C28_3 C27_3 1_555 1_555
C30_3 C26_3 1_555 1_555
H24_3 C30_3 1_555 1_555
Bi3_3 C31_3 1_555 1_555
C31_3 C32_3 1_555 1_555
C32_3 H25_3 1_555 1_555
C33_3 C32_3 1_555 1_555
H26_3 C33_3 1_555 1_555
N7_3 Ag1_13 1_555 1_555
C34_3 N7_3 1_555 1_555
H27_3 C34_3 1_555 1_555
C35_3 C31_3 1_555 1_555
H28_3 C35_3 1_555 1_555
C36_3 Bi3_3 1_555 1_555
C37_3 C36_3 1_555 1_555
H29_3 C37_3 1_555 1_555
C38_3 C37_3 1_555 1_555
H30_3 C38_3 1_555 1_555
C39_3 N21_2 1_555 1_555
H31_3 C39_3 1_555 1_555
C40_3 C36_3 1_555 1_555
H32_3 C40_3 1_555 1_555
C41_3 Bi3_3 1_555 1_555
C42_3 C41_3 1_555 1_555
H33_3 C42_3 1_555 1_555
C43_3 C42_3 1_555 1_555
C45_3 C41_3 1_555 1_555
H36_3 C45_3 1_555 1_555
C46_3 C47_3 1_555 1_555
C48_3 C47_3 1_555 1_555
H38_3 C48_3 1_555 1_555
N10_3 Ag1_13 1_555 1_555
C49_3 N10_3 1_555 1_555
H39_3 C49_3 1_555 1_555
C50_3 C46_3 1_555 1_555
H40_3 C50_3 1_555 1_555
H42_3 C53_3 1_555 1_555
N11_3 C53_3 1_555 1_555
C54_3 N11_3 1_555 1_555
H43_3 C54_3 1_555 1_555
H44_3 C55_3 1_555 1_555
Bi5_3 C61_3 1_555 1_555
C61_3 C62_3 1_555 1_555
C62_3 H49_3 1_555 1_555
C63_3 C62_3 1_555 1_555
H50_3 C63_3 1_555 1_555
N13_3 Ag1_13 1_555 1_555
C64_3 N13_3 1_555 1_555
H51_3 C64_3 1_555 1_555
C65_3 C61_3 1_555 1_555
H52_3 C65_3 1_555 1_555
C66_3 Bi5_3 1_555 1_555
C67_3 C66_3 1_555 1_555
H53_3 C67_3 1_555 1_555
C68_3 C67_3 1_555 1_555
H54_3 C68_3 1_555 1_555
N14_3 C68_3 1_555 1_555
C69_3 N14_3 1_555 1_555
H55_3 C69_3 1_555 1_555
C70_3 C66_3 1_555 1_555
H56_3 C70_3 1_555 1_555
C71_3 Bi5_3 1_555 1_555
C72_3 C71_3 1_555 1_555
H57_3 C72_3 1_555 1_555
C73_3 C72_3 1_555 1_555
H58_3 C73_3 1_555 1_555
N15_3 C73_3 1_555 1_555
C74_3 N15_3 1_555 1_555
H59_3 C74_3 1_555 1_555
C75_3 C71_3 1_555 1_555
H60_3 C75_3 1_555 1_555
C76_3 C77_3 1_555 1_555
C78_3 C77_3 1_555 1_555
H62_3 C78_3 1_555 1_555
N16_3 Ag1_13 1_555 1_555
C79_3 N16_3 1_555 1_555
H63_3 C79_3 1_555 1_555
C80_3 C76_3 1_555 1_555
H64_3 C80_3 1_555 1_555
H66_3 C83_3 1_555 1_555
N17_3 C83_3 1_555 1_555
C84_3 N17_3 1_555 1_555
H67_3 C84_3 1_555 1_555
H68_3 C85_3 1_555 1_555
Ag5_3 N11_3 1_555 1_555
Ag6_3 N14_3 1_555 1_555
C4_3 C5_3 1_555 1_555
C14_3 C15_3 1_555 1_555
C18_3 N4_3 1_555 1_555
C19_3 C20_3 1_555 1_555
C29_3 C30_3 1_555 1_555
C33_3 N7_3 1_555 1_555
C34_3 C35_3 1_555 1_555
C38_3 N21_2 1_555 1_555
C39_3 C40_3 1_555 1_555
C44_3 C45_3 1_555 1_555
C48_3 N10_3 1_555 1_555
C49_3 C50_3 1_555 1_555
C54_3 C55_3 1_555 1_555
C63_3 N13_3 1_555 1_555
C64_3 C65_3 1_555 1_555
C69_3 C70_3 1_555 1_555
N15_3 Ag5_3 1_555 1_555
C74_3 C75_3 1_555 1_555
C78_3 N16_3 1_555 1_555
C79_3 C80_3 1_555 1_555
N17_3 Ag7_4 1_555 1_555
C84_3 C85_3 1_555 1_555
C6_3 Bi1_3 1_555 1_555
C7_3 C6_3 1_555 1_555
H5_3 C7_3 1_555 1_555
C8_3 C7_3 1_555 1_555
H6_3 C8_3 1_555 1_555
N19_2 C8_3 1_555 1_555
C9_3 N19_2 1_555 1_555
C81_3 Bi6_3 1_555 1_555
C82_3 C81_3 1_555 1_555
H65_3 C82_3 1_555 1_555
C86_3 Bi6_3 1_555 1_555
C87_3 C86_3 1_555 1_555
H69_3 C87_3 1_555 1_555
C88_3 C87_3 1_555 1_555
H70_3 C88_3 1_555 1_555
N18_3 C88_3 1_555 1_555
C89_3 N18_3 1_555 1_555
C90_3 C86_3 1_555 1_555
H72_3 C90_3 1_555 1_555
N18_3 Ag6_4 1_555 1_555
C89_3 C90_3 1_555 1_555
C36_4 Bi3_4 1_555 1_555
C37_4 C36_4 1_555 1_555
H29_4 C37_4 1_555 1_555
C41_4 Bi3_4 1_555 1_555
C42_4 C41_4 1_555 1_555
H33_4 C42_4 1_555 1_555
C43_4 C42_4 1_555 1_555
H34_4 C43_4 1_555 1_555
N9_3 Ag3_3 1_555 1_555
C44_4 N9_3 1_555 1_555
C45_4 C41_4 1_555 1_555
H36_4 C45_4 1_555 1_555
C51_4 Bi4_4 1_555 1_555
C52_4 C51_4 1_555 1_555
H41_4 C52_4 1_555 1_555
C53_4 C52_4 1_555 1_555
H42_4 C53_4 1_555 1_555
N11_4 C53_4 1_555 1_555
C54_4 N11_4 1_555 1_555
Ag5 N11_4 1_555 1_555
N21_3 Ag3_3 1_555 1_555
C43_4 N9_3 1_555 1_555
C44_4 C45_4 1_555 1_555
N15_4 Ag5 1_555 1_555
Ag1_14 N1_4 1_555 1_555
Ag2_3 N2_3 1_555 1_555
C1_4 C2_4 1_555 1_555
C3_4 C2_4 1_555 1_555
H2_4 C3_4 1_555 1_555
N1_4 C3_4 1_555 1_555
C4_4 N1_4 1_555 1_555
H3_4 C4_4 1_555 1_555
C5_4 C1_4 1_555 1_555
H4_4 C5_4 1_555 1_555
H6_4 C8_4 1_555 1_555
N2_3 C8_4 1_555 1_555
C9_4 N2_3 1_555 1_555
H7_4 C9_4 1_555 1_555
H8_4 C10_4 1_555 1_555
Bi2_4 C16_4 1_555 1_555
Ag3_4 N5_3 1_555 1_555
C16_4 C17_4 1_555 1_555
C17_4 H13_4 1_555 1_555
C18_4 C17_4 1_555 1_555
H14_4 C18_4 1_555 1_555
N4_4 Ag1_14 1_555 1_555
C19_4 N4_4 1_555 1_555
H15_4 C19_4 1_555 1_555
C20_4 C16_4 1_555 1_555
H16_4 C20_4 1_555 1_555
C21_4 Bi2_4 1_555 1_555
C22_4 C21_4 1_555 1_555
H17_4 C22_4 1_555 1_555
C23_4 C22_4 1_555 1_555
H18_4 C23_4 1_555 1_555
N5_3 C23_4 1_555 1_555
C24_4 N5_3 1_555 1_555
H19_4 C24_4 1_555 1_555
C25_4 C21_4 1_555 1_555
H20_4 C25_4 1_555 1_555
C26_4 Bi2_4 1_555 1_555
C27_4 C26_4 1_555 1_555
H21_4 C27_4 1_555 1_555
C28_4 C27_4 1_555 1_555
H22_4 C28_4 1_555 1_555
N6_3 Ag2_3 1_555 1_555
C29_4 N6_3 1_555 1_555
H23_4 C29_4 1_555 1_555
C30_4 C26_4 1_555 1_555
H24_4 C30_4 1_555 1_555
C31_4 C32_4 1_555 1_555
C33_4 C32_4 1_555 1_555
H26_4 C33_4 1_555 1_555
N7_4 Ag1_14 1_555 1_555
C34_4 N7_4 1_555 1_555
H27_4 C34_4 1_555 1_555
C35_4 C31_4 1_555 1_555
H28_4 C35_4 1_555 1_555
H30_4 C38_4 1_555 1_555
N8_3 Ag4_3 1_555 1_555
C39_4 N8_3 1_555 1_555
H31_4 C39_4 1_555 1_555
H32_4 C40_4 1_555 1_555
C46_4 C47_4 1_555 1_555
C47_4 H37_4 1_555 1_555
C48_4 C47_4 1_555 1_555
H38_4 C48_4 1_555 1_555
N10_4 Ag1_14 1_555 1_555
C49_4 N10_4 1_555 1_555
H39_4 C49_4 1_555 1_555
C50_4 C46_4 1_555 1_555
H40_4 C50_4 1_555 1_555
H44_4 C55_4 1_555 1_555
C57_4 C56_4 1_555 1_555
H45_4 C57_4 1_555 1_555
C58_4 C57_4 1_555 1_555
H46_4 C58_4 1_555 1_555
N12_4 C58_4 1_555 1_555
C59_4 N12_4 1_555 1_555
H47_4 C59_4 1_555 1_555
C60_4 C56_4 1_555 1_555
H48_4 C60_4 1_555 1_555
C61_4 C62_4 1_555 1_555
C62_4 H49_4 1_555 1_555
C63_4 C62_4 1_555 1_555
H50_4 C63_4 1_555 1_555
N13_4 Ag1_14 1_555 1_555
C64_4 N13_4 1_555 1_555
H51_4 C64_4 1_555 1_555
C65_4 C61_4 1_555 1_555
H52_4 C65_4 1_555 1_555
H56_4 C70_4 1_555 1_555
C72_4 C71_4 1_555 1_555
H57_4 C72_4 1_555 1_555
C73_4 C72_4 1_555 1_555
C75_4 C71_4 1_555 1_555
H60_4 C75_4 1_555 1_555
Bi6_4 C76_4 1_555 1_555
C76_4 C77_4 1_555 1_555
C77_4 H61_4 1_555 1_555
C78_4 C77_4 1_555 1_555
H62_4 C78_4 1_555 1_555
N16_4 Ag1_14 1_555 1_555
C79_4 N16_4 1_555 1_555
H63_4 C79_4 1_555 1_555
C80_4 C76_4 1_555 1_555
H64_4 C80_4 1_555 1_555
C81_4 Bi6_4 1_555 1_555
C82_4 C81_4 1_555 1_555
H65_4 C82_4 1_555 1_555
C83_4 C82_4 1_555 1_555
H66_4 C83_4 1_555 1_555
N17_4 C83_4 1_555 1_555
C84_4 N17_4 1_555 1_555
H67_4 C84_4 1_555 1_555
C85_4 C81_4 1_555 1_555
H68_4 C85_4 1_555 1_555
C86_4 Bi6_4 1_555 1_555
C87_4 C86_4 1_555 1_555
H69_4 C87_4 1_555 1_555
C88_4 C87_4 1_555 1_555
C90_4 C86_4 1_555 1_555
H72_4 C90_4 1_555 1_555
Ag6 N12_4 1_555 1_555
N19_3 Ag2_3 1_555 1_555
N22_3 Ag3_4 1_555 1_555
N23_3 Ag2_3 1_555 1_555
N24_3 Ag4_3 1_555 1_555
C4_4 C5_4 1_555 1_555
C9_4 C10_4 1_555 1_555
C18_4 N4_4 1_555 1_555
C19_4 C20_4 1_555 1_555
C24_4 C25_4 1_555 1_555
C28_4 N6_3 1_555 1_555
C29_4 C30_4 1_555 1_555
C33_4 N7_4 1_555 1_555
C34_4 C35_4 1_555 1_555
C38_4 N8_3 1_555 1_555
C39_4 C40_4 1_555 1_555
C48_4 N10_4 1_555 1_555
C49_4 C50_4 1_555 1_555
C59_4 C60_4 1_555 1_555
C63_4 N13_4 1_555 1_555
C64_4 C65_4 1_555 1_555
C74_4 C75_4 1_555 1_555
C78_4 N16_4 1_555 1_555
C79_4 C80_4 1_555 1_555
N17_4 Ag6 1_555 1_555
C84_4 C85_4 1_555 1_555
C89_4 C90_4 1_555 1_555
C6_4 Bi1_4 1_555 1_555
C7_4 C6_4 1_555 1_555
H5_4 C7_4 1_555 1_555
C11_4 Bi1_4 1_555 1_555
C12_4 C11_4 1_555 1_555
H9_4 C12_4 1_555 1_555
C13_4 C12_4 1_555 1_555
H10_4 C13_4 1_555 1_555
N3_3 C13_4 1_555 1_555
C14_4 N3_3 1_555 1_555
C15_4 C11_4 1_555 1_555
H12_4 C15_4 1_555 1_555
Ag4_4 N3_3 1_555 1_555
C66_4 Bi5_4 1_555 1_555
C67_4 C66_4 1_555 1_555
H53_4 C67_4 1_555 1_555
C68_4 C67_4 1_555 1_555
H54_4 C68_4 1_555 1_555
N14_4 C68_4 1_555 1_555
C69_4 N14_4 1_555 1_555
Ag7 N14_4 1_555 1_555
N20_3 Ag4_4 1_555 1_555
C14_4 C15_4 1_555 1_555
N18_4 Ag7 1_555 1_555
C36_5 Bi3_5 1_555 1_555
C37_5 C36_5 1_555 1_555
H29_5 C37_5 1_555 1_555
C41_5 Bi3_5 1_555 1_555
C42_5 C41_5 1_555 1_555
H33_5 C42_5 1_555 1_555
C43_5 C42_5 1_555 1_555
H34_5 C43_5 1_555 1_555
C44_5 N24_3 1_555 1_555
C45_5 C41_5 1_555 1_555
H36_5 C45_5 1_555 1_555
C51_5 Bi4_5 1_555 1_555
C52_5 C51_5 1_555 1_555
H41_5 C52_5 1_555 1_555
C53_5 C52_5 1_555 1_555
H42_5 C53_5 1_555 1_555
N11_5 C53_5 1_555 1_555
C54_5 N11_5 1_555 1_555
Ag5_2 N11_5 1_555 1_555
C43_5 N24_3 1_555 1_555
C44_5 C45_5 1_555 1_555
N15_5 Ag5_2 1_555 1_555
Ag1_15 N1_5 1_555 1_555
C1_5 C2_5 1_555 1_555
C3_5 C2_5 1_555 1_555
H2_5 C3_5 1_555 1_555
N1_5 C3_5 1_555 1_555
C4_5 N1_5 1_555 1_555
H3_5 C4_5 1_555 1_555
C5_5 C1_5 1_555 1_555
H4_5 C5_5 1_555 1_555
H6_5 C8_5 1_555 1_555
N19_3 C8_5 1_555 1_555
C9_5 N19_3 1_555 1_555
H7_5 C9_5 1_555 1_555
H8_5 C10_5 1_555 1_555
Bi2_5 C16_5 1_555 1_555
C16_5 C17_5 1_555 1_555
C17_5 H13_5 1_555 1_555
C18_5 C17_5 1_555 1_555
H14_5 C18_5 1_555 1_555
N4_5 Ag1_15 1_555 1_555
C19_5 N4_5 1_555 1_555
H15_5 C19_5 1_555 1_555
C20_5 C16_5 1_555 1_555
H16_5 C20_5 1_555 1_555
C21_5 Bi2_5 1_555 1_555
C22_5 C21_5 1_555 1_555
H17_5 C22_5 1_555 1_555
C23_5 C22_5 1_555 1_555
H18_5 C23_5 1_555 1_555
N20_3 C23_5 1_555 1_555
C24_5 N20_3 1_555 1_555
H19_5 C24_5 1_555 1_555
C25_5 C21_5 1_555 1_555
H20_5 C25_5 1_555 1_555
C26_5 Bi2_5 1_555 1_555
C27_5 C26_5 1_555 1_555
H21_5 C27_5 1_555 1_555
C28_5 C27_5 1_555 1_555
H22_5 C28_5 1_555 1_555
C29_5 N23_3 1_555 1_555
H23_5 C29_5 1_555 1_555
C30_5 C26_5 1_555 1_555
H24_5 C30_5 1_555 1_555
C31_5 C32_5 1_555 1_555
C33_5 C32_5 1_555 1_555
H26_5 C33_5 1_555 1_555
N7_5 Ag1_15 1_555 1_555
C34_5 N7_5 1_555 1_555
H27_5 C34_5 1_555 1_555
C35_5 C31_5 1_555 1_555
H28_5 C35_5 1_555 1_555
H30_5 C38_5 1_555 1_555
C39_5 N21_3 1_555 1_555
H31_5 C39_5 1_555 1_555
H32_5 C40_5 1_555 1_555
C46_5 C47_5 1_555 1_555
C47_5 H37_5 1_555 1_555
C48_5 C47_5 1_555 1_555
H38_5 C48_5 1_555 1_555
N10_5 Ag1_15 1_555 1_555
C49_5 N10_5 1_555 1_555
H39_5 C49_5 1_555 1_555
C50_5 C46_5 1_555 1_555
H40_5 C50_5 1_555 1_555
H44_5 C55_5 1_555 1_555
C57_5 C56_5 1_555 1_555
H45_5 C57_5 1_555 1_555
C58_5 C57_5 1_555 1_555
H46_5 C58_5 1_555 1_555
N12_5 C58_5 1_555 1_555
C59_5 N12_5 1_555 1_555
H47_5 C59_5 1_555 1_555
C60_5 C56_5 1_555 1_555
H48_5 C60_5 1_555 1_555
C61_5 C62_5 1_555 1_555
C62_5 H49_5 1_555 1_555
C63_5 C62_5 1_555 1_555
H50_5 C63_5 1_555 1_555
N13_5 Ag1_15 1_555 1_555
C64_5 N13_5 1_555 1_555
H51_5 C64_5 1_555 1_555
C65_5 C61_5 1_555 1_555
H52_5 C65_5 1_555 1_555
H56_5 C70_5 1_555 1_555
C72_5 C71_5 1_555 1_555
H57_5 C72_5 1_555 1_555
C73_5 C72_5 1_555 1_555
C75_5 C71_5 1_555 1_555
H60_5 C75_5 1_555 1_555
Bi6_5 C76_5 1_555 1_555
C76_5 C77_5 1_555 1_555
C77_5 H61_5 1_555 1_555
C78_5 C77_5 1_555 1_555
H62_5 C78_5 1_555 1_555
N16_5 Ag1_15 1_555 1_555
C79_5 N16_5 1_555 1_555
H63_5 C79_5 1_555 1_555
C80_5 C76_5 1_555 1_555
H64_5 C80_5 1_555 1_555
C81_5 Bi6_5 1_555 1_555
C82_5 C81_5 1_555 1_555
H65_5 C82_5 1_555 1_555
C83_5 C82_5 1_555 1_555
H66_5 C83_5 1_555 1_555
N17_5 C83_5 1_555 1_555
C84_5 N17_5 1_555 1_555
H67_5 C84_5 1_555 1_555
C85_5 C81_5 1_555 1_555
H68_5 C85_5 1_555 1_555
C86_5 Bi6_5 1_555 1_555
C87_5 C86_5 1_555 1_555
H69_5 C87_5 1_555 1_555
C88_5 C87_5 1_555 1_555
C90_5 C86_5 1_555 1_555
H72_5 C90_5 1_555 1_555
Ag6_2 N12_5 1_555 1_555
C4_5 C5_5 1_555 1_555
C9_5 C10_5 1_555 1_555
C18_5 N4_5 1_555 1_555
C19_5 C20_5 1_555 1_555
C24_5 C25_5 1_555 1_555
C28_5 N23_3 1_555 1_555
C29_5 C30_5 1_555 1_555
C33_5 N7_5 1_555 1_555
C34_5 C35_5 1_555 1_555
C38_5 N21_3 1_555 1_555
C39_5 C40_5 1_555 1_555
C48_5 N10_5 1_555 1_555
C49_5 C50_5 1_555 1_555
C59_5 C60_5 1_555 1_555
C63_5 N13_5 1_555 1_555
C64_5 C65_5 1_555 1_555
C74_5 C75_5 1_555 1_555
C78_5 N16_5 1_555 1_555
C79_5 C80_5 1_555 1_555
N17_5 Ag6_2 1_555 1_555
C84_5 C85_5 1_555 1_555
C89_5 C90_5 1_555 1_555
C6_5 Bi1_5 1_555 1_555
C7_5 C6_5 1_555 1_555
H5_5 C7_5 1_555 1_555
C11_5 Bi1_5 1_555 1_555
C12_5 C11_5 1_555 1_555
H9_5 C12_5 1_555 1_555
C13_5 C12_5 1_555 1_555
H10_5 C13_5 1_555 1_555
N22_3 C13_5 1_555 1_555
C14_5 N22_3 1_555 1_555
C15_5 C11_5 1_555 1_555
H12_5 C15_5 1_555 1_555
C66_5 Bi5_5 1_555 1_555
C67_5 C66_5 1_555 1_555
H53_5 C67_5 1_555 1_555
C68_5 C67_5 1_555 1_555
H54_5 C68_5 1_555 1_555
N14_5 C68_5 1_555 1_555
C69_5 N14_5 1_555 1_555
Ag7_2 N14_5 1_555 1_555
C14_5 C15_5 1_555 1_555
N18_5 Ag7_2 1_555 1_555
C21_6 Bi2_6 1_555 1_555
C22_6 C21_6 1_555 1_555
H17_6 C22_6 1_555 1_555
C23_6 C22_6 1_555 1_555
H18_6 C23_6 1_555 1_555
N20 C23_6 1_555 1_555
C24_6 N20 1_555 1_555
C51_6 Bi4_6 1_555 1_555
C52_6 C51_6 1_555 1_555
H41_6 C52_6 1_555 1_555
C56_6 Bi4_6 1_555 1_555
C57_6 C56_6 1_555 1_555
H45_6 C57_6 1_555 1_555
C58_6 C57_6 1_555 1_555
H46_6 C58_6 1_555 1_555
N12_6 C58_6 1_555 1_555
C59_6 N12_6 1_555 1_555
C60_6 C56_6 1_555 1_555
H48_6 C60_6 1_555 1_555
Ag6_3 N12_6 1_555 1_555
C59_6 C60_6 1_555 1_555
Ag1_16 N1_6 1_555 1_555
C1_6 C2_6 1_555 1_555
C2_6 H1_6 1_555 1_555
C3_6 C2_6 1_555 1_555
H2_6 C3_6 1_555 1_555
N1_6 C3_6 1_555 1_555
C4_6 N1_6 1_555 1_555
H3_6 C4_6 1_555 1_555
C5_6 C1_6 1_555 1_555
H4_6 C5_6 1_555 1_555
H8_6 C10_6 1_555 1_555
C12_6 C11_6 1_555 1_555
H9_6 C12_6 1_555 1_555
C13_6 C12_6 1_555 1_555
H10_6 C13_6 1_555 1_555
N22 C13_6 1_555 1_555
C14_6 N22 1_555 1_555
H11_6 C14_6 1_555 1_555
C15_6 C11_6 1_555 1_555
H12_6 C15_6 1_555 1_555
C16_6 C17_6 1_555 1_555
C17_6 H13_6 1_555 1_555
C18_6 C17_6 1_555 1_555
H14_6 C18_6 1_555 1_555
N4_6 Ag1_16 1_555 1_555
C19_6 N4_6 1_555 1_555
H15_6 C19_6 1_555 1_555
C20_6 C16_6 1_555 1_555
H16_6 C20_6 1_555 1_555
H20_6 C25_6 1_555 1_555
C27_6 C26_6 1_555 1_555
H21_6 C27_6 1_555 1_555
C28_6 C27_6 1_555 1_555
C30_6 C26_6 1_555 1_555
H24_6 C30_6 1_555 1_555
Bi3_6 C31_6 1_555 1_555
C31_6 C32_6 1_555 1_555
C32_6 H25_6 1_555 1_555
C33_6 C32_6 1_555 1_555
H26_6 C33_6 1_555 1_555
N7_6 Ag1_16 1_555 1_555
C34_6 N7_6 1_555 1_555
H27_6 C34_6 1_555 1_555
C35_6 C31_6 1_555 1_555
H28_6 C35_6 1_555 1_555
C36_6 Bi3_6 1_555 1_555
C37_6 C36_6 1_555 1_555
H29_6 C37_6 1_555 1_555
C38_6 C37_6 1_555 1_555
H30_6 C38_6 1_555 1_555
C39_6 N21 1_555 1_555
H31_6 C39_6 1_555 1_555
C40_6 C36_6 1_555 1_555
H32_6 C40_6 1_555 1_555
C41_6 Bi3_6 1_555 1_555
C42_6 C41_6 1_555 1_555
H33_6 C42_6 1_555 1_555
C43_6 C42_6 1_555 1_555
C45_6 C41_6 1_555 1_555
H36_6 C45_6 1_555 1_555
C46_6 C47_6 1_555 1_555
C48_6 C47_6 1_555 1_555
H38_6 C48_6 1_555 1_555
N10_6 Ag1_16 1_555 1_555
C49_6 N10_6 1_555 1_555
H39_6 C49_6 1_555 1_555
C50_6 C46_6 1_555 1_555
H40_6 C50_6 1_555 1_555
H42_6 C53_6 1_555 1_555
N11_6 C53_6 1_555 1_555
C54_6 N11_6 1_555 1_555
H43_6 C54_6 1_555 1_555
H44_6 C55_6 1_555 1_555
Bi5_6 C61_6 1_555 1_555
C61_6 C62_6 1_555 1_555
C62_6 H49_6 1_555 1_555
C63_6 C62_6 1_555 1_555
H50_6 C63_6 1_555 1_555
N13_6 Ag1_16 1_555 1_555
C64_6 N13_6 1_555 1_555
H51_6 C64_6 1_555 1_555
C65_6 C61_6 1_555 1_555
H52_6 C65_6 1_555 1_555
C66_6 Bi5_6 1_555 1_555
C67_6 C66_6 1_555 1_555
H53_6 C67_6 1_555 1_555
C68_6 C67_6 1_555 1_555
H54_6 C68_6 1_555 1_555
N14_6 C68_6 1_555 1_555
C69_6 N14_6 1_555 1_555
H55_6 C69_6 1_555 1_555
C70_6 C66_6 1_555 1_555
H56_6 C70_6 1_555 1_555
C71_6 Bi5_6 1_555 1_555
C72_6 C71_6 1_555 1_555
H57_6 C72_6 1_555 1_555
C73_6 C72_6 1_555 1_555
H58_6 C73_6 1_555 1_555
N15_6 C73_6 1_555 1_555
C74_6 N15_6 1_555 1_555
H59_6 C74_6 1_555 1_555
C75_6 C71_6 1_555 1_555
H60_6 C75_6 1_555 1_555
C76_6 C77_6 1_555 1_555
C78_6 C77_6 1_555 1_555
H62_6 C78_6 1_555 1_555
N16_6 Ag1_16 1_555 1_555
C79_6 N16_6 1_555 1_555
H63_6 C79_6 1_555 1_555
C80_6 C76_6 1_555 1_555
H64_6 C80_6 1_555 1_555
H66_6 C83_6 1_555 1_555
N17_6 C83_6 1_555 1_555
C84_6 N17_6 1_555 1_555
H67_6 C84_6 1_555 1_555
H68_6 C85_6 1_555 1_555
Ag5_3 N11_6 1_555 1_555
Ag7_3 N14_6 1_555 1_555
C4_6 C5_6 1_555 1_555
C14_6 C15_6 1_555 1_555
C18_6 N4_6 1_555 1_555
C19_6 C20_6 1_555 1_555
C29_6 C30_6 1_555 1_555
C33_6 N7_6 1_555 1_555
C34_6 C35_6 1_555 1_555
C38_6 N21 1_555 1_555
C39_6 C40_6 1_555 1_555
C44_6 C45_6 1_555 1_555
C48_6 N10_6 1_555 1_555
C49_6 C50_6 1_555 1_555
C54_6 C55_6 1_555 1_555
C63_6 N13_6 1_555 1_555
C64_6 C65_6 1_555 1_555
C69_6 C70_6 1_555 1_555
N15_6 Ag5_3 1_555 1_555
C74_6 C75_6 1_555 1_555
C78_6 N16_6 1_555 1_555
C79_6 C80_6 1_555 1_555
N17_6 Ag6_4 1_555 1_555
C84_6 C85_6 1_555 1_555
C6_6 Bi1_6 1_555 1_555
C7_6 C6_6 1_555 1_555
H5_6 C7_6 1_555 1_555
C8_6 C7_6 1_555 1_555
H6_6 C8_6 1_555 1_555
N19 C8_6 1_555 1_555
C9_6 N19 1_555 1_555
C81_6 Bi6_6 1_555 1_555
C82_6 C81_6 1_555 1_555
H65_6 C82_6 1_555 1_555
C86_6 Bi6_6 1_555 1_555
C87_6 C86_6 1_555 1_555
H69_6 C87_6 1_555 1_555
C88_6 C87_6 1_555 1_555
H70_6 C88_6 1_555 1_555
N18_6 C88_6 1_555 1_555
C89_6 N18_6 1_555 1_555
C90_6 C86_6 1_555 1_555
H72_6 C90_6 1_555 1_555
N18_6 Ag7_4 1_555 1_555
C89_6 C90_6 1_555 1_555
P1 F1 1_555 1_555
F2 P1 1_555 1_555
F3 P1 1_555 1_555
F4 P1 1_555 1_555
F5 P1 1_555 1_555
F6 P1 1_555 1_555
P1_2 F1_2 1_555 1_555
F2_2 P1_2 1_555 1_555
F3_2 P1_2 1_555 1_555
F4_2 P1_2 1_555 1_555
F5_2 P1_2 1_555 1_555
F6_2 P1_2 1_555 1_555
P1_3 F1_3 1_555 1_555
F2_3 P1_3 1_555 1_555
F6_3 P1_4 1_555 1_555
F3_3 P1_5 1_555 1_555
F4_3 P1_6 1_555 1_555
F5_3 P1_6 1_555 1_555
P1_7 F1_4 1_555 1_555
F2_4 P1_7 1_555 1_555
F3_4 P1_7 1_555 1_555
F4_4 P1_7 1_555 1_555
F5_4 P1_7 1_555 1_555
F6_4 P1_7 1_555 1_555
P1_8 F1_5 1_555 1_555
F2_5 P1_8 1_555 1_555
F3_5 P1_8 1_555 1_555
F4_5 P1_8 1_555 1_555
F5_5 P1_8 1_555 1_555
F6_5 P1_8 1_555 1_555
P1_9 F1_6 1_555 1_555
F2_6 P1_9 1_555 1_555
F3_6 P1_10 1_555 1_555
F6_6 P1_11 1_555 1_555
F4_6 P1_12 1_555 1_555
F5_6 P1_12 1_555 1_555
P1_13 F1_7 1_555 1_555
F2_7 P1_13 1_555 1_555
F3_7 P1_13 1_555 1_555
F4_7 P1_13 1_555 1_555
F5_7 P1_13 1_555 1_555
F6_7 P1_13 1_555 1_555
P1_14 F1_8 1_555 1_555
F2_8 P1_14 1_555 1_555
F3_8 P1_14 1_555 1_555
F4_8 P1_14 1_555 1_555
F5_8 P1_14 1_555 1_555
F6_8 P1_14 1_555 1_555
F4_9 P1_15 1_555 1_555
F5_9 P1_15 1_555 1_555
F3_9 P1_16 1_555 1_555
F6_9 P1_17 1_555 1_555
P1_18 F1_9 1_555 1_555
F2_9 P1_18 1_555 1_555
P1_19 F1_10 1_555 1_555
F2_10 P1_19 1_555 1_555
F3_10 P1_19 1_555 1_555
F4_10 P1_19 1_555 1_555
F5_10 P1_19 1_555 1_555
F6_10 P1_19 1_555 1_555
P1_20 F1_11 1_555 1_555
F2_11 P1_20 1_555 1_555
F3_11 P1_20 1_555 1_555
F4_11 P1_20 1_555 1_555
F5_11 P1_20 1_555 1_555
F6_11 P1_20 1_555 1_555
F4_12 P1_21 1_555 1_555
F5_12 P1_21 1_555 1_555
F6_12 P1_22 1_555 1_555
F3_12 P1_23 1_555 1_555
P1_24 F1_12 1_555 1_555
F2_12 P1_24 1_555 1_555
F10 P2 1_555 1_555
F11 P2 1_555 1_555
F9 P2_2 1_555 1_555
F12 P2_3 1_555 1_555
P2_4 F7 1_555 1_555
F8 P2_4 1_555 1_555
F10_2 P2_5 1_555 1_555
F11_2 P2_5 1_555 1_555
F12_2 P2_6 1_555 1_555
F9_2 P2_7 1_555 1_555
P2_8 F7_2 1_555 1_555
F8_2 P2_8 1_555 1_555
P2_9 F7_3 1_555 1_555
F8_3 P2_9 1_555 1_555
F9_3 P2_9 1_555 1_555
F10_3 P2_9 1_555 1_555
F11_3 P2_9 1_555 1_555
F12_3 P2_9 1_555 1_555
P2_10 F7_4 1_555 1_555
F8_4 P2_10 1_555 1_555
F9_4 P2_10 1_555 1_555
F10_4 P2_10 1_555 1_555
F11_4 P2_10 1_555 1_555
F12_4 P2_10 1_555 1_555
P2_11 F7_5 1_555 1_555
F8_5 P2_11 1_555 1_555
F9_5 P2_11 1_555 1_555
F10_5 P2_11 1_555 1_555
F11_5 P2_11 1_555 1_555
F12_5 P2_11 1_555 1_555
P2_12 F7_6 1_555 1_555
F8_6 P2_12 1_555 1_555
F9_6 P2_12 1_555 1_555
F10_6 P2_12 1_555 1_555
F11_6 P2_12 1_555 1_555
F12_6 P2_12 1_555 1_555
P2_13 F7_7 1_555 1_555
F8_7 P2_13 1_555 1_555
F12_7 P2_14 1_555 1_555
F9_7 P2_15 1_555 1_555
F10_7 P2_16 1_555 1_555
F11_7 P2_16 1_555 1_555
P2_17 F7_8 1_555 1_555
F8_8 P2_17 1_555 1_555
F9_8 P2_18 1_555 1_555
F12_8 P2_19 1_555 1_555
F10_8 P2_20 1_555 1_555
F11_8 P2_20 1_555 1_555
P2_21 F7_9 1_555 1_555
F8_9 P2_21 1_555 1_555
F9_9 P2_21 1_555 1_555
F10_9 P2_21 1_555 1_555
F11_9 P2_21 1_555 1_555
F12_9 P2_21 1_555 1_555
P2_22 F7_10 1_555 1_555
F8_10 P2_22 1_555 1_555
F9_10 P2_22 1_555 1_555
F10_10 P2_22 1_555 1_555
F11_10 P2_22 1_555 1_555
F12_10 P2_22 1_555 1_555
P2_23 F7_11 1_555 1_555
F8_11 P2_23 1_555 1_555
F9_11 P2_23 1_555 1_555
F10_11 P2_23 1_555 1_555
F11_11 P2_23 1_555 1_555
F12_11 P2_23 1_555 1_555
P2_24 F7_12 1_555 1_555
F8_12 P2_24 1_555 1_555
F9_12 P2_24 1_555 1_555
F10_12 P2_24 1_555 1_555
F11_12 P2_24 1_555 1_555
F12_12 P2_24 1_555 1_555

#END
