
###############################################################################
#
# This file contains modified crystal structure data generated from the
# MOF subset of the Cambridge Structural Database (CSD) v543 
# hosted by the Cambridge Crystallographic Data Centre (CCDC).
#
# This work is licensed under the Creative Commons
# Attribution-NonCommercial-ShareAlike 4.0 International License.
# To view a copy of this license, visit
# http://creativecommons.org/licenses/by-nc-sa/4.0/
# or send a letter to
# Creative Commons, PO Box 1866, Mountain View, CA 94042, USA.
#
# CIF created using the CSD Python API on 29 September 2022
# The structure has been converted into the P1 space group
# The structure has a 3D framework
# The original CSD entry OZOGAN is in the cubic crystal system
# The framework has been calculated to contain at least 10.0% void space
# The void calculation uses a probe of radius 1.32A, grid spacing 0.4
# The framework is charged, counterions have been retained in the structure
#
###############################################################################

data_OZOGAN
_chemical_formula_moiety         '(C480 H480 N48 O85 Zn25 12+)n'
_symmetry_cell_setting           triclinic
_symmetry_space_group_name_H-M   'P 1'
_symmetry_Int_Tables_number      1
_space_group_name_Hall           'P 1'
loop_
_symmetry_equiv_pos_site_id
_symmetry_equiv_pos_as_xyz
1 x,y,z
_cell_length_a                   25.8200
_cell_length_b                   25.8200
_cell_length_c                   25.8200
_cell_angle_alpha                90
_cell_angle_beta                 90
_cell_angle_gamma                90
_cell_volume                     17213.5
loop_
_atom_site_label
_atom_site_type_symbol
_atom_site_fract_x
_atom_site_fract_y
_atom_site_fract_z
_atom_site_U_iso_or_equiv
_atom_site_thermal_displace_type
O5 O 0.1324 0.0302 0.0997 0.0000 Uiso
Zn5 Zn 0.0192 0.0192 0.0192 0.0000 Uiso
Zn7 Zn 0.0976 0.0976 0.0976 0.0000 Uiso
O5_2 O 0.0997 0.1324 0.0302 0.0000 Uiso
O5_3 O 0.0302 0.0997 0.1324 0.0000 Uiso
C1 C 0.3479 0.7846 0.3018 0.0000 Uiso
C2 C 0.3641 0.8118 0.3510 0.0000 Uiso
C3 C 0.3705 0.7883 0.3961 0.0000 Uiso
C4 C 0.3826 0.8113 0.4411 0.0000 Uiso
C5 C 0.3914 0.8647 0.4427 0.0000 Uiso
C6 C 0.3851 0.8916 0.3961 0.0000 Uiso
C7 C 0.3703 0.8667 0.3520 0.0000 Uiso
C8 C 0.4065 0.8949 0.4907 0.0000 Uiso
C9 C 0.2663 0.7516 0.3389 0.0000 Uiso
C10 C 0.2679 0.8300 0.2856 0.0000 Uiso
H1 H 0.3661 0.7525 0.3966 0.0000 Uiso
H2 H 0.3851 0.7918 0.4712 0.0000 Uiso
H3 H 0.3910 0.9271 0.3952 0.0000 Uiso
H4 H 0.3640 0.8858 0.3221 0.0000 Uiso
H5 H 0.2944 0.8557 0.2925 0.0000 Uiso
H6 H 0.2398 0.8364 0.3097 0.0000 Uiso
H7 H 0.3630 0.7502 0.3011 0.0000 Uiso
H8 H 0.3611 0.8036 0.2722 0.0000 Uiso
H9 H 0.2656 0.7738 0.3692 0.0000 Uiso
H10 H 0.2887 0.7225 0.3468 0.0000 Uiso
N1 N 0.2892 0.7801 0.2973 0.0000 Uiso
O1 O 0.4003 0.8676 0.5302 0.0000 Uiso
O2 O 0.4198 0.9384 0.4887 0.0000 Uiso
Zn1 Zn 0.2692 0.7308 0.2308 0.0000 Uiso
Zn2 Zn 0.4024 0.9024 0.5976 0.0000 Uiso
C11 C 0.1982 0.6521 0.2846 0.0000 Uiso
C12 C 0.1490 0.6359 0.3118 0.0000 Uiso
C13 C 0.1039 0.6295 0.2883 0.0000 Uiso
C14 C 0.0589 0.6174 0.3113 0.0000 Uiso
C15 C 0.0573 0.6086 0.3647 0.0000 Uiso
C16 C 0.1039 0.6149 0.3916 0.0000 Uiso
C17 C 0.1480 0.6297 0.3667 0.0000 Uiso
C18 C 0.0093 0.5935 0.3949 0.0000 Uiso
C19 C 0.1611 0.7337 0.2516 0.0000 Uiso
C20 C 0.2144 0.7321 0.3300 0.0000 Uiso
H11 H 0.1034 0.6339 0.2525 0.0000 Uiso
H12 H 0.0288 0.6149 0.2918 0.0000 Uiso
H13 H 0.1048 0.6090 0.4271 0.0000 Uiso
H14 H 0.1779 0.6360 0.3858 0.0000 Uiso
H15 H 0.2075 0.7056 0.3557 0.0000 Uiso
H16 H 0.1903 0.7602 0.3364 0.0000 Uiso
H17 H 0.1989 0.6370 0.2502 0.0000 Uiso
H18 H 0.2278 0.6389 0.3036 0.0000 Uiso
H19 H 0.1308 0.7344 0.2738 0.0000 Uiso
H20 H 0.1532 0.7113 0.2225 0.0000 Uiso
N2 N 0.2027 0.7108 0.2801 0.0000 Uiso
O4 O 0.0113 0.5802 0.4384 0.0000 Uiso
C21 C 0.2154 0.8018 0.1521 0.0000 Uiso
C22 C 0.1882 0.8510 0.1359 0.0000 Uiso
C23 C 0.2117 0.8961 0.1295 0.0000 Uiso
C24 C 0.1887 0.9411 0.1174 0.0000 Uiso
C25 C 0.1353 0.9427 0.1086 0.0000 Uiso
C26 C 0.1084 0.8961 0.1149 0.0000 Uiso
C27 C 0.1333 0.8520 0.1297 0.0000 Uiso
C28 C 0.1051 0.9907 0.0935 0.0000 Uiso
C29 C 0.2484 0.8389 0.2337 0.0000 Uiso
C30 C 0.1700 0.7856 0.2321 0.0000 Uiso
H21 H 0.2475 0.8966 0.1339 0.0000 Uiso
H22 H 0.2082 0.9712 0.1149 0.0000 Uiso
H23 H 0.0729 0.8952 0.1090 0.0000 Uiso
H24 H 0.1142 0.8221 0.1360 0.0000 Uiso
H25 H 0.1443 0.7925 0.2056 0.0000 Uiso
H26 H 0.1636 0.8097 0.2602 0.0000 Uiso
H27 H 0.2498 0.8011 0.1370 0.0000 Uiso
H28 H 0.1964 0.7722 0.1389 0.0000 Uiso
H29 H 0.2262 0.8692 0.2344 0.0000 Uiso
H30 H 0.2775 0.8468 0.2113 0.0000 Uiso
N3 N 0.2199 0.7973 0.2108 0.0000 Uiso
O6 O 0.0616 0.9887 0.0802 0.0000 Uiso
O7 O 0.4698 0.9003 0.6324 0.0000 Uiso
O8 O 0.3676 0.9698 0.5997 0.0000 Uiso
O9 O 0.3116 0.6698 0.2613 0.0000 Uiso
O10 O 0.3302 0.7613 0.1884 0.0000 Uiso
O11 O 0.2387 0.6884 0.1698 0.0000 Uiso
Zn4 Zn 0.4808 0.9808 0.5192 0.0000 Uiso
O3 O 0.9698 0.5997 0.3676 0.0000 Uiso
Zn3 Zn 0.9808 0.5192 0.4808 0.0000 Uiso
Zn6 Zn 0.9024 0.5976 0.4024 0.0000 Uiso
O3_2 O 0.0302 0.9003 0.3676 0.0000 Uiso
Zn3_2 Zn 0.0192 0.9808 0.4808 0.0000 Uiso
Zn6_2 Zn 0.0976 0.9024 0.4024 0.0000 Uiso
C1_2 C 0.6521 0.7154 0.3018 0.0000 Uiso
C2_2 C 0.6359 0.6882 0.3510 0.0000 Uiso
C3_2 C 0.6295 0.7117 0.3961 0.0000 Uiso
C4_2 C 0.6174 0.6887 0.4411 0.0000 Uiso
C5_2 C 0.6086 0.6353 0.4427 0.0000 Uiso
C6_2 C 0.6149 0.6084 0.3961 0.0000 Uiso
C7_2 C 0.6297 0.6333 0.3520 0.0000 Uiso
C8_2 C 0.5935 0.6051 0.4907 0.0000 Uiso
C9_2 C 0.7337 0.7484 0.3389 0.0000 Uiso
C10_2 C 0.7321 0.6700 0.2856 0.0000 Uiso
H1_2 H 0.6339 0.7475 0.3966 0.0000 Uiso
H2_2 H 0.6149 0.7082 0.4712 0.0000 Uiso
H3_2 H 0.6090 0.5729 0.3952 0.0000 Uiso
H4_2 H 0.6360 0.6142 0.3221 0.0000 Uiso
H5_2 H 0.7056 0.6443 0.2925 0.0000 Uiso
H6_2 H 0.7602 0.6636 0.3097 0.0000 Uiso
H7_2 H 0.6370 0.7498 0.3011 0.0000 Uiso
H8_2 H 0.6389 0.6964 0.2722 0.0000 Uiso
H9_2 H 0.7344 0.7262 0.3692 0.0000 Uiso
H10_2 H 0.7113 0.7775 0.3468 0.0000 Uiso
N1_2 N 0.7108 0.7199 0.2973 0.0000 Uiso
O1_2 O 0.5997 0.6324 0.5302 0.0000 Uiso
O2_2 O 0.5802 0.5616 0.4887 0.0000 Uiso
Zn1_2 Zn 0.7308 0.7692 0.2308 0.0000 Uiso
Zn2_2 Zn 0.5976 0.5976 0.5976 0.0000 Uiso
C11_2 C 0.8018 0.8479 0.2846 0.0000 Uiso
C12_2 C 0.8510 0.8641 0.3118 0.0000 Uiso
C13_2 C 0.8961 0.8705 0.2883 0.0000 Uiso
C14_2 C 0.9411 0.8826 0.3113 0.0000 Uiso
C15_2 C 0.9427 0.8914 0.3647 0.0000 Uiso
C16_2 C 0.8961 0.8851 0.3916 0.0000 Uiso
C17_2 C 0.8520 0.8703 0.3667 0.0000 Uiso
C18_2 C 0.9907 0.9065 0.3949 0.0000 Uiso
C19_2 C 0.8389 0.7663 0.2516 0.0000 Uiso
C20_2 C 0.7856 0.7679 0.3300 0.0000 Uiso
H11_2 H 0.8966 0.8661 0.2525 0.0000 Uiso
H12_2 H 0.9712 0.8851 0.2918 0.0000 Uiso
H13_2 H 0.8952 0.8910 0.4271 0.0000 Uiso
H14_2 H 0.8221 0.8640 0.3858 0.0000 Uiso
H15_2 H 0.7925 0.7944 0.3557 0.0000 Uiso
H16_2 H 0.8097 0.7398 0.3364 0.0000 Uiso
H17_2 H 0.8011 0.8630 0.2502 0.0000 Uiso
H18_2 H 0.7722 0.8611 0.3036 0.0000 Uiso
H19_2 H 0.8692 0.7656 0.2738 0.0000 Uiso
H20_2 H 0.8468 0.7887 0.2225 0.0000 Uiso
N2_2 N 0.7973 0.7892 0.2801 0.0000 Uiso
O4_2 O 0.9887 0.9198 0.4384 0.0000 Uiso
C21_2 C 0.7846 0.6982 0.1521 0.0000 Uiso
C22_2 C 0.8118 0.6490 0.1359 0.0000 Uiso
C23_2 C 0.7883 0.6039 0.1295 0.0000 Uiso
C24_2 C 0.8113 0.5589 0.1174 0.0000 Uiso
C25_2 C 0.8647 0.5573 0.1086 0.0000 Uiso
C26_2 C 0.8916 0.6039 0.1149 0.0000 Uiso
C27_2 C 0.8667 0.6480 0.1297 0.0000 Uiso
C28_2 C 0.8949 0.5093 0.0935 0.0000 Uiso
C29_2 C 0.7516 0.6611 0.2337 0.0000 Uiso
C30_2 C 0.8300 0.7144 0.2321 0.0000 Uiso
H21_2 H 0.7525 0.6034 0.1339 0.0000 Uiso
H22_2 H 0.7918 0.5288 0.1149 0.0000 Uiso
H23_2 H 0.9271 0.6048 0.1090 0.0000 Uiso
H24_2 H 0.8858 0.6779 0.1360 0.0000 Uiso
H25_2 H 0.8557 0.7075 0.2056 0.0000 Uiso
H26_2 H 0.8364 0.6903 0.2602 0.0000 Uiso
H27_2 H 0.7502 0.6989 0.1370 0.0000 Uiso
H28_2 H 0.8036 0.7278 0.1389 0.0000 Uiso
H29_2 H 0.7738 0.6308 0.2344 0.0000 Uiso
H30_2 H 0.7225 0.6532 0.2113 0.0000 Uiso
N3_2 N 0.7801 0.7027 0.2108 0.0000 Uiso
O5_4 O 0.8676 0.4698 0.0997 0.0000 Uiso
O6_2 O 0.9384 0.5113 0.0802 0.0000 Uiso
O7_2 O 0.5302 0.5997 0.6324 0.0000 Uiso
O8_2 O 0.6324 0.5302 0.5997 0.0000 Uiso
O9_2 O 0.6884 0.8302 0.2613 0.0000 Uiso
O10_2 O 0.6698 0.7387 0.1884 0.0000 Uiso
O11_2 O 0.7613 0.8116 0.1698 0.0000 Uiso
Zn4_2 Zn 0.5192 0.5192 0.5192 0.0000 Uiso
Zn5_2 Zn 0.9808 0.4808 0.0192 0.0000 Uiso
Zn7_2 Zn 0.9024 0.4024 0.0976 0.0000 Uiso
C1_3 C 0.3479 0.2154 0.1982 0.0000 Uiso
C2_3 C 0.3641 0.1882 0.1490 0.0000 Uiso
C3_3 C 0.3705 0.2117 0.1039 0.0000 Uiso
C4_3 C 0.3826 0.1887 0.0589 0.0000 Uiso
C5_3 C 0.3914 0.1353 0.0573 0.0000 Uiso
C6_3 C 0.3851 0.1084 0.1039 0.0000 Uiso
C7_3 C 0.3703 0.1333 0.1480 0.0000 Uiso
C8_3 C 0.4065 0.1051 0.0093 0.0000 Uiso
C9_3 C 0.2663 0.2484 0.1611 0.0000 Uiso
C10_3 C 0.2679 0.1700 0.2144 0.0000 Uiso
H1_3 H 0.3661 0.2475 0.1034 0.0000 Uiso
H2_3 H 0.3851 0.2082 0.0288 0.0000 Uiso
H3_3 H 0.3910 0.0729 0.1048 0.0000 Uiso
H4_3 H 0.3640 0.1142 0.1779 0.0000 Uiso
H5_3 H 0.2944 0.1443 0.2075 0.0000 Uiso
H6_3 H 0.2398 0.1636 0.1903 0.0000 Uiso
H7_3 H 0.3630 0.2498 0.1989 0.0000 Uiso
H8_3 H 0.3611 0.1964 0.2278 0.0000 Uiso
H9_3 H 0.2656 0.2262 0.1308 0.0000 Uiso
H10_3 H 0.2887 0.2775 0.1532 0.0000 Uiso
N1_3 N 0.2892 0.2199 0.2027 0.0000 Uiso
O2_3 O 0.4198 0.0616 0.0113 0.0000 Uiso
Zn1_3 Zn 0.2692 0.2692 0.2692 0.0000 Uiso
C11_3 C 0.1982 0.3479 0.2154 0.0000 Uiso
C12_3 C 0.1490 0.3641 0.1882 0.0000 Uiso
C13_3 C 0.1039 0.3705 0.2117 0.0000 Uiso
C14_3 C 0.0589 0.3826 0.1887 0.0000 Uiso
C15_3 C 0.0573 0.3914 0.1353 0.0000 Uiso
C16_3 C 0.1039 0.3851 0.1084 0.0000 Uiso
C17_3 C 0.1480 0.3703 0.1333 0.0000 Uiso
C18_3 C 0.0093 0.4065 0.1051 0.0000 Uiso
C19_3 C 0.1611 0.2663 0.2484 0.0000 Uiso
C20_3 C 0.2144 0.2679 0.1700 0.0000 Uiso
H11_3 H 0.1034 0.3661 0.2475 0.0000 Uiso
H12_3 H 0.0288 0.3851 0.2082 0.0000 Uiso
H13_3 H 0.1048 0.3910 0.0729 0.0000 Uiso
H14_3 H 0.1779 0.3640 0.1142 0.0000 Uiso
H15_3 H 0.2075 0.2944 0.1443 0.0000 Uiso
H16_3 H 0.1903 0.2398 0.1636 0.0000 Uiso
H17_3 H 0.1989 0.3630 0.2498 0.0000 Uiso
H18_3 H 0.2278 0.3611 0.1964 0.0000 Uiso
H19_3 H 0.1308 0.2656 0.2262 0.0000 Uiso
H20_3 H 0.1532 0.2887 0.2775 0.0000 Uiso
N2_3 N 0.2027 0.2892 0.2199 0.0000 Uiso
O4_3 O 0.0113 0.4198 0.0616 0.0000 Uiso
C21_3 C 0.2154 0.1982 0.3479 0.0000 Uiso
C22_3 C 0.1882 0.1490 0.3641 0.0000 Uiso
C23_3 C 0.2117 0.1039 0.3705 0.0000 Uiso
C24_3 C 0.1887 0.0589 0.3826 0.0000 Uiso
C25_3 C 0.1353 0.0573 0.3914 0.0000 Uiso
C26_3 C 0.1084 0.1039 0.3851 0.0000 Uiso
C27_3 C 0.1333 0.1480 0.3703 0.0000 Uiso
C28_3 C 0.1051 0.0093 0.4065 0.0000 Uiso
C29_3 C 0.2484 0.1611 0.2663 0.0000 Uiso
C30_3 C 0.1700 0.2144 0.2679 0.0000 Uiso
H21_3 H 0.2475 0.1034 0.3661 0.0000 Uiso
H22_3 H 0.2082 0.0288 0.3851 0.0000 Uiso
H23_3 H 0.0729 0.1048 0.3910 0.0000 Uiso
H24_3 H 0.1142 0.1779 0.3640 0.0000 Uiso
H25_3 H 0.1443 0.2075 0.2944 0.0000 Uiso
H26_3 H 0.1636 0.1903 0.2398 0.0000 Uiso
H27_3 H 0.2498 0.1989 0.3630 0.0000 Uiso
H28_3 H 0.1964 0.2278 0.3611 0.0000 Uiso
H29_3 H 0.2262 0.1308 0.2656 0.0000 Uiso
H30_3 H 0.2775 0.1532 0.2887 0.0000 Uiso
N3_3 N 0.2199 0.2027 0.2892 0.0000 Uiso
O6_3 O 0.0616 0.0113 0.4198 0.0000 Uiso
O9_3 O 0.3116 0.3302 0.2387 0.0000 Uiso
O10_3 O 0.3302 0.2387 0.3116 0.0000 Uiso
O11_3 O 0.2387 0.3116 0.3302 0.0000 Uiso
O1_3 O 0.4003 0.1324 0.9698 0.0000 Uiso
Zn2_3 Zn 0.4024 0.0976 0.9024 0.0000 Uiso
O7_3 O 0.4698 0.0997 0.8676 0.0000 Uiso
O8_3 O 0.3676 0.0302 0.9003 0.0000 Uiso
Zn4_3 Zn 0.4808 0.0192 0.9808 0.0000 Uiso
O5_5 O 0.1324 0.9698 0.4003 0.0000 Uiso
O3_3 O 0.9698 0.4003 0.1324 0.0000 Uiso
C1_4 C 0.1521 0.7846 0.6982 0.0000 Uiso
C2_4 C 0.1359 0.8118 0.6490 0.0000 Uiso
C3_4 C 0.1295 0.7883 0.6039 0.0000 Uiso
C4_4 C 0.1174 0.8113 0.5589 0.0000 Uiso
C5_4 C 0.1086 0.8647 0.5573 0.0000 Uiso
C6_4 C 0.1149 0.8916 0.6039 0.0000 Uiso
C7_4 C 0.1297 0.8667 0.6480 0.0000 Uiso
C8_4 C 0.0935 0.8949 0.5093 0.0000 Uiso
C9_4 C 0.2337 0.7516 0.6611 0.0000 Uiso
C10_4 C 0.2321 0.8300 0.7144 0.0000 Uiso
H1_4 H 0.1339 0.7525 0.6034 0.0000 Uiso
H2_4 H 0.1149 0.7918 0.5288 0.0000 Uiso
H3_4 H 0.1090 0.9271 0.6048 0.0000 Uiso
H4_4 H 0.1360 0.8858 0.6779 0.0000 Uiso
H5_4 H 0.2056 0.8557 0.7075 0.0000 Uiso
H6_4 H 0.2602 0.8364 0.6903 0.0000 Uiso
H7_4 H 0.1370 0.7502 0.6989 0.0000 Uiso
H8_4 H 0.1389 0.8036 0.7278 0.0000 Uiso
H9_4 H 0.2344 0.7738 0.6308 0.0000 Uiso
H10_4 H 0.2113 0.7225 0.6532 0.0000 Uiso
N1_4 N 0.2108 0.7801 0.7027 0.0000 Uiso
O1_4 O 0.0997 0.8676 0.4698 0.0000 Uiso
O2_4 O 0.0802 0.9384 0.5113 0.0000 Uiso
Zn1_4 Zn 0.2308 0.7308 0.7692 0.0000 Uiso
C11_4 C 0.3018 0.6521 0.7154 0.0000 Uiso
C12_4 C 0.3510 0.6359 0.6882 0.0000 Uiso
C13_4 C 0.3961 0.6295 0.7117 0.0000 Uiso
C14_4 C 0.4411 0.6174 0.6887 0.0000 Uiso
C15_4 C 0.4427 0.6086 0.6353 0.0000 Uiso
C16_4 C 0.3961 0.6149 0.6084 0.0000 Uiso
C17_4 C 0.3520 0.6297 0.6333 0.0000 Uiso
C18_4 C 0.4907 0.5935 0.6051 0.0000 Uiso
C19_4 C 0.3389 0.7337 0.7484 0.0000 Uiso
C20_4 C 0.2856 0.7321 0.6700 0.0000 Uiso
H11_4 H 0.3966 0.6339 0.7475 0.0000 Uiso
H12_4 H 0.4712 0.6149 0.7082 0.0000 Uiso
H13_4 H 0.3952 0.6090 0.5729 0.0000 Uiso
H14_4 H 0.3221 0.6360 0.6142 0.0000 Uiso
H15_4 H 0.2925 0.7056 0.6443 0.0000 Uiso
H16_4 H 0.3097 0.7602 0.6636 0.0000 Uiso
H17_4 H 0.3011 0.6370 0.7498 0.0000 Uiso
H18_4 H 0.2722 0.6389 0.6964 0.0000 Uiso
H19_4 H 0.3692 0.7344 0.7262 0.0000 Uiso
H20_4 H 0.3468 0.7113 0.7775 0.0000 Uiso
N2_4 N 0.2973 0.7108 0.7199 0.0000 Uiso
O4_4 O 0.4887 0.5802 0.5616 0.0000 Uiso
C21_4 C 0.2846 0.8018 0.8479 0.0000 Uiso
C22_4 C 0.3118 0.8510 0.8641 0.0000 Uiso
C23_4 C 0.2883 0.8961 0.8705 0.0000 Uiso
C24_4 C 0.3113 0.9411 0.8826 0.0000 Uiso
C25_4 C 0.3647 0.9427 0.8914 0.0000 Uiso
C26_4 C 0.3916 0.8961 0.8851 0.0000 Uiso
C27_4 C 0.3667 0.8520 0.8703 0.0000 Uiso
C28_4 C 0.3949 0.9907 0.9065 0.0000 Uiso
C29_4 C 0.2516 0.8389 0.7663 0.0000 Uiso
C30_4 C 0.3300 0.7856 0.7679 0.0000 Uiso
H21_4 H 0.2525 0.8966 0.8661 0.0000 Uiso
H22_4 H 0.2918 0.9712 0.8851 0.0000 Uiso
H23_4 H 0.4271 0.8952 0.8910 0.0000 Uiso
H24_4 H 0.3858 0.8221 0.8640 0.0000 Uiso
H25_4 H 0.3557 0.7925 0.7944 0.0000 Uiso
H26_4 H 0.3364 0.8097 0.7398 0.0000 Uiso
H27_4 H 0.2502 0.8011 0.8630 0.0000 Uiso
H28_4 H 0.3036 0.7722 0.8611 0.0000 Uiso
H29_4 H 0.2738 0.8692 0.7656 0.0000 Uiso
H30_4 H 0.2225 0.8468 0.7887 0.0000 Uiso
N3_4 N 0.2801 0.7973 0.7892 0.0000 Uiso
O6_4 O 0.4384 0.9887 0.9198 0.0000 Uiso
O9_4 O 0.1884 0.6698 0.7387 0.0000 Uiso
O10_4 O 0.1698 0.7613 0.8116 0.0000 Uiso
O11_4 O 0.2613 0.6884 0.8302 0.0000 Uiso
C1_5 C 0.3018 0.3479 0.7846 0.0000 Uiso
C2_5 C 0.3510 0.3641 0.8118 0.0000 Uiso
C3_5 C 0.3961 0.3705 0.7883 0.0000 Uiso
C4_5 C 0.4411 0.3826 0.8113 0.0000 Uiso
C5_5 C 0.4427 0.3914 0.8647 0.0000 Uiso
C6_5 C 0.3961 0.3851 0.8916 0.0000 Uiso
C7_5 C 0.3520 0.3703 0.8667 0.0000 Uiso
C8_5 C 0.4907 0.4065 0.8949 0.0000 Uiso
C9_5 C 0.3389 0.2663 0.7516 0.0000 Uiso
C10_5 C 0.2856 0.2679 0.8300 0.0000 Uiso
H1_5 H 0.3966 0.3661 0.7525 0.0000 Uiso
H2_5 H 0.4712 0.3851 0.7918 0.0000 Uiso
H3_5 H 0.3952 0.3910 0.9271 0.0000 Uiso
H4_5 H 0.3221 0.3640 0.8858 0.0000 Uiso
H5_5 H 0.2925 0.2944 0.8557 0.0000 Uiso
H6_5 H 0.3097 0.2398 0.8364 0.0000 Uiso
H7_5 H 0.3011 0.3630 0.7502 0.0000 Uiso
H8_5 H 0.2722 0.3611 0.8036 0.0000 Uiso
H9_5 H 0.3692 0.2656 0.7738 0.0000 Uiso
H10_5 H 0.3468 0.2887 0.7225 0.0000 Uiso
N1_5 N 0.2973 0.2892 0.7801 0.0000 Uiso
O1_5 O 0.5302 0.4003 0.8676 0.0000 Uiso
O2_5 O 0.4887 0.4198 0.9384 0.0000 Uiso
Zn1_5 Zn 0.2308 0.2692 0.7308 0.0000 Uiso
Zn2_4 Zn 0.5976 0.4024 0.9024 0.0000 Uiso
C11_5 C 0.2846 0.1982 0.6521 0.0000 Uiso
C12_5 C 0.3118 0.1490 0.6359 0.0000 Uiso
C13_5 C 0.2883 0.1039 0.6295 0.0000 Uiso
C14_5 C 0.3113 0.0589 0.6174 0.0000 Uiso
C15_5 C 0.3647 0.0573 0.6086 0.0000 Uiso
C16_5 C 0.3916 0.1039 0.6149 0.0000 Uiso
C17_5 C 0.3667 0.1480 0.6297 0.0000 Uiso
C18_5 C 0.3949 0.0093 0.5935 0.0000 Uiso
C19_5 C 0.2516 0.1611 0.7337 0.0000 Uiso
C20_5 C 0.3300 0.2144 0.7321 0.0000 Uiso
H11_5 H 0.2525 0.1034 0.6339 0.0000 Uiso
H12_5 H 0.2918 0.0288 0.6149 0.0000 Uiso
H13_5 H 0.4271 0.1048 0.6090 0.0000 Uiso
H14_5 H 0.3858 0.1779 0.6360 0.0000 Uiso
H15_5 H 0.3557 0.2075 0.7056 0.0000 Uiso
H16_5 H 0.3364 0.1903 0.7602 0.0000 Uiso
H17_5 H 0.2502 0.1989 0.6370 0.0000 Uiso
H18_5 H 0.3036 0.2278 0.6389 0.0000 Uiso
H19_5 H 0.2738 0.1308 0.7344 0.0000 Uiso
H20_5 H 0.2225 0.1532 0.7113 0.0000 Uiso
N2_5 N 0.2801 0.2027 0.7108 0.0000 Uiso
O4_5 O 0.4384 0.0113 0.5802 0.0000 Uiso
C21_5 C 0.1521 0.2154 0.8018 0.0000 Uiso
C22_5 C 0.1359 0.1882 0.8510 0.0000 Uiso
C23_5 C 0.1295 0.2117 0.8961 0.0000 Uiso
C24_5 C 0.1174 0.1887 0.9411 0.0000 Uiso
C25_5 C 0.1086 0.1353 0.9427 0.0000 Uiso
C26_5 C 0.1149 0.1084 0.8961 0.0000 Uiso
C27_5 C 0.1297 0.1333 0.8520 0.0000 Uiso
C28_5 C 0.0935 0.1051 0.9907 0.0000 Uiso
C29_5 C 0.2337 0.2484 0.8389 0.0000 Uiso
C30_5 C 0.2321 0.1700 0.7856 0.0000 Uiso
H21_5 H 0.1339 0.2475 0.8966 0.0000 Uiso
H22_5 H 0.1149 0.2082 0.9712 0.0000 Uiso
H23_5 H 0.1090 0.0729 0.8952 0.0000 Uiso
H24_5 H 0.1360 0.1142 0.8221 0.0000 Uiso
H25_5 H 0.2056 0.1443 0.7925 0.0000 Uiso
H26_5 H 0.2602 0.1636 0.8097 0.0000 Uiso
H27_5 H 0.1370 0.2498 0.8011 0.0000 Uiso
H28_5 H 0.1389 0.1964 0.7722 0.0000 Uiso
H29_5 H 0.2344 0.2262 0.8692 0.0000 Uiso
H30_5 H 0.2113 0.2775 0.8468 0.0000 Uiso
N3_5 N 0.2108 0.2199 0.7973 0.0000 Uiso
O6_5 O 0.0802 0.0616 0.9887 0.0000 Uiso
O7_4 O 0.6324 0.4698 0.9003 0.0000 Uiso
O8_4 O 0.5997 0.3676 0.9698 0.0000 Uiso
O9_5 O 0.2613 0.3116 0.6698 0.0000 Uiso
O10_5 O 0.1884 0.3302 0.7613 0.0000 Uiso
O11_5 O 0.1698 0.2387 0.6884 0.0000 Uiso
Zn4_4 Zn 0.5192 0.4808 0.9808 0.0000 Uiso
C1_6 C 0.7846 0.3018 0.3479 0.0000 Uiso
C2_6 C 0.8118 0.3510 0.3641 0.0000 Uiso
C3_6 C 0.7883 0.3961 0.3705 0.0000 Uiso
C4_6 C 0.8113 0.4411 0.3826 0.0000 Uiso
C5_6 C 0.8647 0.4427 0.3914 0.0000 Uiso
C6_6 C 0.8916 0.3961 0.3851 0.0000 Uiso
C7_6 C 0.8667 0.3520 0.3703 0.0000 Uiso
C8_6 C 0.8949 0.4907 0.4065 0.0000 Uiso
C9_6 C 0.7516 0.3389 0.2663 0.0000 Uiso
C10_6 C 0.8300 0.2856 0.2679 0.0000 Uiso
H1_6 H 0.7525 0.3966 0.3661 0.0000 Uiso
H2_6 H 0.7918 0.4712 0.3851 0.0000 Uiso
H3_6 H 0.9271 0.3952 0.3910 0.0000 Uiso
H4_6 H 0.8858 0.3221 0.3640 0.0000 Uiso
H5_6 H 0.8557 0.2925 0.2944 0.0000 Uiso
H6_6 H 0.8364 0.3097 0.2398 0.0000 Uiso
H7_6 H 0.7502 0.3011 0.3630 0.0000 Uiso
H8_6 H 0.8036 0.2722 0.3611 0.0000 Uiso
H9_6 H 0.7738 0.3692 0.2656 0.0000 Uiso
H10_6 H 0.7225 0.3468 0.2887 0.0000 Uiso
N1_6 N 0.7801 0.2973 0.2892 0.0000 Uiso
O1_6 O 0.8676 0.5302 0.4003 0.0000 Uiso
O2_6 O 0.9384 0.4887 0.4198 0.0000 Uiso
Zn1_6 Zn 0.7308 0.2308 0.2692 0.0000 Uiso
C11_6 C 0.6521 0.2846 0.1982 0.0000 Uiso
C12_6 C 0.6359 0.3118 0.1490 0.0000 Uiso
C13_6 C 0.6295 0.2883 0.1039 0.0000 Uiso
C14_6 C 0.6174 0.3113 0.0589 0.0000 Uiso
C15_6 C 0.6086 0.3647 0.0573 0.0000 Uiso
C16_6 C 0.6149 0.3916 0.1039 0.0000 Uiso
C17_6 C 0.6297 0.3667 0.1480 0.0000 Uiso
C18_6 C 0.5935 0.3949 0.0093 0.0000 Uiso
C19_6 C 0.7337 0.2516 0.1611 0.0000 Uiso
C20_6 C 0.7321 0.3300 0.2144 0.0000 Uiso
H11_6 H 0.6339 0.2525 0.1034 0.0000 Uiso
H12_6 H 0.6149 0.2918 0.0288 0.0000 Uiso
H13_6 H 0.6090 0.4271 0.1048 0.0000 Uiso
H14_6 H 0.6360 0.3858 0.1779 0.0000 Uiso
H15_6 H 0.7056 0.3557 0.2075 0.0000 Uiso
H16_6 H 0.7602 0.3364 0.1903 0.0000 Uiso
H17_6 H 0.6370 0.2502 0.1989 0.0000 Uiso
H18_6 H 0.6389 0.3036 0.2278 0.0000 Uiso
H19_6 H 0.7344 0.2738 0.1308 0.0000 Uiso
H20_6 H 0.7113 0.2225 0.1532 0.0000 Uiso
N2_6 N 0.7108 0.2801 0.2027 0.0000 Uiso
O4_6 O 0.5802 0.4384 0.0113 0.0000 Uiso
C21_6 C 0.8018 0.1521 0.2154 0.0000 Uiso
C22_6 C 0.8510 0.1359 0.1882 0.0000 Uiso
C23_6 C 0.8961 0.1295 0.2117 0.0000 Uiso
C24_6 C 0.9411 0.1174 0.1887 0.0000 Uiso
C25_6 C 0.9427 0.1086 0.1353 0.0000 Uiso
C26_6 C 0.8961 0.1149 0.1084 0.0000 Uiso
C27_6 C 0.8520 0.1297 0.1333 0.0000 Uiso
C28_6 C 0.9907 0.0935 0.1051 0.0000 Uiso
C29_6 C 0.8389 0.2337 0.2484 0.0000 Uiso
C30_6 C 0.7856 0.2321 0.1700 0.0000 Uiso
H21_6 H 0.8966 0.1339 0.2475 0.0000 Uiso
H22_6 H 0.9712 0.1149 0.2082 0.0000 Uiso
H23_6 H 0.8952 0.1090 0.0729 0.0000 Uiso
H24_6 H 0.8221 0.1360 0.1142 0.0000 Uiso
H25_6 H 0.7925 0.2056 0.1443 0.0000 Uiso
H26_6 H 0.8097 0.2602 0.1636 0.0000 Uiso
H27_6 H 0.8011 0.1370 0.2498 0.0000 Uiso
H28_6 H 0.7722 0.1389 0.1964 0.0000 Uiso
H29_6 H 0.8692 0.2344 0.2262 0.0000 Uiso
H30_6 H 0.8468 0.2113 0.2775 0.0000 Uiso
N3_6 N 0.7973 0.2108 0.2199 0.0000 Uiso
O6_6 O 0.9887 0.0802 0.0616 0.0000 Uiso
O7_5 O 0.9003 0.6324 0.4698 0.0000 Uiso
O9_6 O 0.6698 0.2613 0.3116 0.0000 Uiso
O10_6 O 0.7613 0.1884 0.3302 0.0000 Uiso
O11_6 O 0.6884 0.1698 0.2387 0.0000 Uiso
O5_6 O 0.9003 0.3676 0.0302 0.0000 Uiso
C1_7 C 0.6982 0.1521 0.7846 0.0000 Uiso
C2_7 C 0.6490 0.1359 0.8118 0.0000 Uiso
C3_7 C 0.6039 0.1295 0.7883 0.0000 Uiso
C4_7 C 0.5589 0.1174 0.8113 0.0000 Uiso
C5_7 C 0.5573 0.1086 0.8647 0.0000 Uiso
C6_7 C 0.6039 0.1149 0.8916 0.0000 Uiso
C7_7 C 0.6480 0.1297 0.8667 0.0000 Uiso
C8_7 C 0.5093 0.0935 0.8949 0.0000 Uiso
C9_7 C 0.6611 0.2337 0.7516 0.0000 Uiso
C10_7 C 0.7144 0.2321 0.8300 0.0000 Uiso
H1_7 H 0.6034 0.1339 0.7525 0.0000 Uiso
H2_7 H 0.5288 0.1149 0.7918 0.0000 Uiso
H3_7 H 0.6048 0.1090 0.9271 0.0000 Uiso
H4_7 H 0.6779 0.1360 0.8858 0.0000 Uiso
H5_7 H 0.7075 0.2056 0.8557 0.0000 Uiso
H6_7 H 0.6903 0.2602 0.8364 0.0000 Uiso
H7_7 H 0.6989 0.1370 0.7502 0.0000 Uiso
H8_7 H 0.7278 0.1389 0.8036 0.0000 Uiso
H9_7 H 0.6308 0.2344 0.7738 0.0000 Uiso
H10_7 H 0.6532 0.2113 0.7225 0.0000 Uiso
N1_7 N 0.7027 0.2108 0.7801 0.0000 Uiso
O2_7 O 0.5113 0.0802 0.9384 0.0000 Uiso
Zn1_7 Zn 0.7692 0.2308 0.7308 0.0000 Uiso
C11_7 C 0.7154 0.3018 0.6521 0.0000 Uiso
C12_7 C 0.6882 0.3510 0.6359 0.0000 Uiso
C13_7 C 0.7117 0.3961 0.6295 0.0000 Uiso
C14_7 C 0.6887 0.4411 0.6174 0.0000 Uiso
C15_7 C 0.6353 0.4427 0.6086 0.0000 Uiso
C16_7 C 0.6084 0.3961 0.6149 0.0000 Uiso
C17_7 C 0.6333 0.3520 0.6297 0.0000 Uiso
C18_7 C 0.6051 0.4907 0.5935 0.0000 Uiso
C19_7 C 0.7484 0.3389 0.7337 0.0000 Uiso
C20_7 C 0.6700 0.2856 0.7321 0.0000 Uiso
H11_7 H 0.7475 0.3966 0.6339 0.0000 Uiso
H12_7 H 0.7082 0.4712 0.6149 0.0000 Uiso
H13_7 H 0.5729 0.3952 0.6090 0.0000 Uiso
H14_7 H 0.6142 0.3221 0.6360 0.0000 Uiso
H15_7 H 0.6443 0.2925 0.7056 0.0000 Uiso
H16_7 H 0.6636 0.3097 0.7602 0.0000 Uiso
H17_7 H 0.7498 0.3011 0.6370 0.0000 Uiso
H18_7 H 0.6964 0.2722 0.6389 0.0000 Uiso
H19_7 H 0.7262 0.3692 0.7344 0.0000 Uiso
H20_7 H 0.7775 0.3468 0.7113 0.0000 Uiso
N2_7 N 0.7199 0.2973 0.7108 0.0000 Uiso
O4_7 O 0.5616 0.4887 0.5802 0.0000 Uiso
C21_7 C 0.8479 0.2846 0.8018 0.0000 Uiso
C22_7 C 0.8641 0.3118 0.8510 0.0000 Uiso
C23_7 C 0.8705 0.2883 0.8961 0.0000 Uiso
C24_7 C 0.8826 0.3113 0.9411 0.0000 Uiso
C25_7 C 0.8914 0.3647 0.9427 0.0000 Uiso
C26_7 C 0.8851 0.3916 0.8961 0.0000 Uiso
C27_7 C 0.8703 0.3667 0.8520 0.0000 Uiso
C28_7 C 0.9065 0.3949 0.9907 0.0000 Uiso
C29_7 C 0.7663 0.2516 0.8389 0.0000 Uiso
C30_7 C 0.7679 0.3300 0.7856 0.0000 Uiso
H21_7 H 0.8661 0.2525 0.8966 0.0000 Uiso
H22_7 H 0.8851 0.2918 0.9712 0.0000 Uiso
H23_7 H 0.8910 0.4271 0.8952 0.0000 Uiso
H24_7 H 0.8640 0.3858 0.8221 0.0000 Uiso
H25_7 H 0.7944 0.3557 0.7925 0.0000 Uiso
H26_7 H 0.7398 0.3364 0.8097 0.0000 Uiso
H27_7 H 0.8630 0.2502 0.8011 0.0000 Uiso
H28_7 H 0.8611 0.3036 0.7722 0.0000 Uiso
H29_7 H 0.7656 0.2738 0.8692 0.0000 Uiso
H30_7 H 0.7887 0.2225 0.8468 0.0000 Uiso
N3_7 N 0.7892 0.2801 0.7973 0.0000 Uiso
O6_7 O 0.9198 0.4384 0.9887 0.0000 Uiso
O9_7 O 0.7387 0.1884 0.6698 0.0000 Uiso
O10_7 O 0.8116 0.1698 0.7613 0.0000 Uiso
O11_7 O 0.8302 0.2613 0.6884 0.0000 Uiso
C1_8 C 0.0346 0.5979 0.5518 0.0000 Uiso
C2_8 C 0.0618 0.6141 0.6010 0.0000 Uiso
C3_8 C 0.0383 0.6205 0.6461 0.0000 Uiso
C4_8 C 0.0613 0.6326 0.6911 0.0000 Uiso
C5_8 C 0.1147 0.6414 0.6927 0.0000 Uiso
C6_8 C 0.1416 0.6351 0.6461 0.0000 Uiso
C7_8 C 0.1167 0.6203 0.6020 0.0000 Uiso
C8_8 C 0.1449 0.6565 0.7407 0.0000 Uiso
C9_8 C 0.0016 0.5163 0.5889 0.0000 Uiso
C10_8 C 0.0800 0.5179 0.5356 0.0000 Uiso
H1_8 H 0.0025 0.6161 0.6466 0.0000 Uiso
H2_8 H 0.0418 0.6351 0.7212 0.0000 Uiso
H3_8 H 0.1771 0.6410 0.6452 0.0000 Uiso
H4_8 H 0.1358 0.6140 0.5721 0.0000 Uiso
H5_8 H 0.1057 0.5444 0.5425 0.0000 Uiso
H6_8 H 0.0864 0.4898 0.5597 0.0000 Uiso
H7_8 H 0.0002 0.6130 0.5511 0.0000 Uiso
H8_8 H 0.0536 0.6111 0.5222 0.0000 Uiso
H9_8 H 0.0238 0.5156 0.6192 0.0000 Uiso
N1_8 N 0.0301 0.5392 0.5473 0.0000 Uiso
O1_7 O 0.1176 0.6503 0.7802 0.0000 Uiso
Zn2_5 Zn 0.1524 0.6524 0.8476 0.0000 Uiso
H16_8 H 0.0102 0.4403 0.5864 0.0000 Uiso
C21_8 C 0.0518 0.4654 0.4021 0.0000 Uiso
C22_8 C 0.1010 0.4382 0.3859 0.0000 Uiso
C23_8 C 0.1461 0.4617 0.3795 0.0000 Uiso
C24_8 C 0.1911 0.4387 0.3674 0.0000 Uiso
C25_8 C 0.1927 0.3853 0.3586 0.0000 Uiso
C26_8 C 0.1461 0.3584 0.3649 0.0000 Uiso
C27_8 C 0.1020 0.3833 0.3797 0.0000 Uiso
C28_8 C 0.2407 0.3551 0.3435 0.0000 Uiso
C29_8 C 0.0889 0.4984 0.4837 0.0000 Uiso
C30_8 C 0.0356 0.4200 0.4821 0.0000 Uiso
H21_8 H 0.1466 0.4975 0.3839 0.0000 Uiso
H22_8 H 0.2212 0.4582 0.3649 0.0000 Uiso
H23_8 H 0.1452 0.3229 0.3590 0.0000 Uiso
H24_8 H 0.0721 0.3642 0.3860 0.0000 Uiso
H25_8 H 0.0425 0.3943 0.4556 0.0000 Uiso
H26_8 H 0.0597 0.4136 0.5102 0.0000 Uiso
H27_8 H 0.0511 0.4998 0.3870 0.0000 Uiso
H28_8 H 0.0222 0.4464 0.3889 0.0000 Uiso
H29_8 H 0.1192 0.4762 0.4844 0.0000 Uiso
H30_8 H 0.0968 0.5275 0.4613 0.0000 Uiso
N3_8 N 0.0473 0.4699 0.4608 0.0000 Uiso
O5_7 O 0.2802 0.3824 0.3497 0.0000 Uiso
O7_6 O 0.1503 0.7198 0.8824 0.0000 Uiso
O8_5 O 0.2198 0.6176 0.8497 0.0000 Uiso
Zn7_3 Zn 0.3476 0.3476 0.3476 0.0000 Uiso
H10_8 H 0.9725 0.5387 0.5968 0.0000 Uiso
C11_8 C 0.9021 0.4482 0.5346 0.0000 Uiso
C12_8 C 0.8859 0.3990 0.5618 0.0000 Uiso
C13_8 C 0.8795 0.3539 0.5383 0.0000 Uiso
C14_8 C 0.8674 0.3089 0.5613 0.0000 Uiso
C15_8 C 0.8586 0.3073 0.6147 0.0000 Uiso
C16_8 C 0.8649 0.3539 0.6416 0.0000 Uiso
C17_8 C 0.8797 0.3980 0.6167 0.0000 Uiso
C18_8 C 0.8435 0.2593 0.6449 0.0000 Uiso
C19_8 C 0.9837 0.4111 0.5016 0.0000 Uiso
C20_8 C 0.9821 0.4644 0.5800 0.0000 Uiso
H11_8 H 0.8839 0.3534 0.5025 0.0000 Uiso
H12_8 H 0.8649 0.2788 0.5418 0.0000 Uiso
H13_8 H 0.8590 0.3548 0.6771 0.0000 Uiso
H14_8 H 0.8860 0.4279 0.6358 0.0000 Uiso
H15_8 H 0.9556 0.4575 0.6057 0.0000 Uiso
H17_8 H 0.8870 0.4489 0.5002 0.0000 Uiso
H18_8 H 0.8889 0.4778 0.5536 0.0000 Uiso
H19_8 H 0.9844 0.3808 0.5238 0.0000 Uiso
H20_8 H 0.9613 0.4032 0.4725 0.0000 Uiso
N2_8 N 0.9608 0.4527 0.5301 0.0000 Uiso
O3_4 O 0.8497 0.2198 0.6176 0.0000 Uiso
O9_8 O 0.9198 0.5616 0.5113 0.0000 Uiso
Zn6_3 Zn 0.8476 0.1524 0.6524 0.0000 Uiso
C11_9 C 0.0979 0.0518 0.5346 0.0000 Uiso
C12_9 C 0.1141 0.1010 0.5618 0.0000 Uiso
C13_9 C 0.1205 0.1461 0.5383 0.0000 Uiso
C14_9 C 0.1326 0.1911 0.5613 0.0000 Uiso
C15_9 C 0.1414 0.1927 0.6147 0.0000 Uiso
C16_9 C 0.1351 0.1461 0.6416 0.0000 Uiso
C17_9 C 0.1203 0.1020 0.6167 0.0000 Uiso
C18_9 C 0.1565 0.2407 0.6449 0.0000 Uiso
C19_9 C 0.0163 0.0889 0.5016 0.0000 Uiso
C20_9 C 0.0179 0.0356 0.5800 0.0000 Uiso
H11_9 H 0.1161 0.1466 0.5025 0.0000 Uiso
H12_9 H 0.1351 0.2212 0.5418 0.0000 Uiso
H13_9 H 0.1410 0.1452 0.6771 0.0000 Uiso
H14_9 H 0.1140 0.0721 0.6358 0.0000 Uiso
H15_9 H 0.0444 0.0425 0.6057 0.0000 Uiso
H17_9 H 0.1130 0.0511 0.5002 0.0000 Uiso
H18_9 H 0.1111 0.0222 0.5536 0.0000 Uiso
H19_9 H 0.0156 0.1192 0.5238 0.0000 Uiso
H20_9 H 0.0387 0.0968 0.4725 0.0000 Uiso
N2_9 N 0.0392 0.0473 0.5301 0.0000 Uiso
O3_5 O 0.1503 0.2802 0.6176 0.0000 Uiso
Zn6_4 Zn 0.1524 0.3476 0.6524 0.0000 Uiso
H10_9 H 0.0275 0.9613 0.5968 0.0000 Uiso
H6_9 H 0.9136 0.0102 0.5597 0.0000 Uiso
H16_9 H 0.9898 0.0597 0.5864 0.0000 Uiso
C21_9 C 0.9482 0.0346 0.4021 0.0000 Uiso
C22_9 C 0.8990 0.0618 0.3859 0.0000 Uiso
C23_9 C 0.8539 0.0383 0.3795 0.0000 Uiso
C24_9 C 0.8089 0.0613 0.3674 0.0000 Uiso
C25_9 C 0.8073 0.1147 0.3586 0.0000 Uiso
C26_9 C 0.8539 0.1416 0.3649 0.0000 Uiso
C27_9 C 0.8980 0.1167 0.3797 0.0000 Uiso
C28_9 C 0.7593 0.1449 0.3435 0.0000 Uiso
C29_9 C 0.9111 0.0016 0.4837 0.0000 Uiso
C30_9 C 0.9644 0.0800 0.4821 0.0000 Uiso
H21_9 H 0.8534 0.0025 0.3839 0.0000 Uiso
H22_9 H 0.7788 0.0418 0.3649 0.0000 Uiso
H23_9 H 0.8548 0.1771 0.3590 0.0000 Uiso
H24_9 H 0.9279 0.1358 0.3860 0.0000 Uiso
H25_9 H 0.9575 0.1057 0.4556 0.0000 Uiso
H26_9 H 0.9403 0.0864 0.5102 0.0000 Uiso
H27_9 H 0.9489 0.0002 0.3870 0.0000 Uiso
H28_9 H 0.9778 0.0536 0.3889 0.0000 Uiso
H29_9 H 0.8808 0.0238 0.4844 0.0000 Uiso
N3_9 N 0.9527 0.0301 0.4608 0.0000 Uiso
O5_8 O 0.7198 0.1176 0.3497 0.0000 Uiso
Zn7_4 Zn 0.6524 0.1524 0.3476 0.0000 Uiso
C1_9 C 0.9654 0.9021 0.5518 0.0000 Uiso
C2_9 C 0.9382 0.8859 0.6010 0.0000 Uiso
C3_9 C 0.9617 0.8795 0.6461 0.0000 Uiso
C4_9 C 0.9387 0.8674 0.6911 0.0000 Uiso
C5_9 C 0.8853 0.8586 0.6927 0.0000 Uiso
C6_9 C 0.8584 0.8649 0.6461 0.0000 Uiso
C7_9 C 0.8833 0.8797 0.6020 0.0000 Uiso
C8_9 C 0.8551 0.8435 0.7407 0.0000 Uiso
C9_9 C 0.9984 0.9837 0.5889 0.0000 Uiso
C10_9 C 0.9200 0.9821 0.5356 0.0000 Uiso
H1_9 H 0.9975 0.8839 0.6466 0.0000 Uiso
H2_9 H 0.9582 0.8649 0.7212 0.0000 Uiso
H3_9 H 0.8229 0.8590 0.6452 0.0000 Uiso
H4_9 H 0.8642 0.8860 0.5721 0.0000 Uiso
H5_9 H 0.8943 0.9556 0.5425 0.0000 Uiso
H7_9 H 0.9998 0.8870 0.5511 0.0000 Uiso
H8_9 H 0.9464 0.8889 0.5222 0.0000 Uiso
H9_9 H 0.9762 0.9844 0.6192 0.0000 Uiso
N1_9 N 0.9699 0.9608 0.5473 0.0000 Uiso
O1_8 O 0.8824 0.8497 0.7802 0.0000 Uiso
O2_8 O 0.8116 0.8302 0.7387 0.0000 Uiso
Zn2_6 Zn 0.8476 0.8476 0.8476 0.0000 Uiso
H30_9 H 0.9032 0.9725 0.4613 0.0000 Uiso
O7_7 O 0.8497 0.7802 0.8824 0.0000 Uiso
O8_6 O 0.7802 0.8824 0.8497 0.0000 Uiso
Zn4_5 Zn 0.7692 0.7692 0.7692 0.0000 Uiso
C1_10 C 0.4654 0.5979 0.4482 0.0000 Uiso
C2_10 C 0.4382 0.6141 0.3990 0.0000 Uiso
C3_10 C 0.4617 0.6205 0.3539 0.0000 Uiso
C4_10 C 0.4387 0.6326 0.3089 0.0000 Uiso
C5_10 C 0.3853 0.6414 0.3073 0.0000 Uiso
C6_10 C 0.3584 0.6351 0.3539 0.0000 Uiso
C7_10 C 0.3833 0.6203 0.3980 0.0000 Uiso
C8_10 C 0.3551 0.6565 0.2593 0.0000 Uiso
C9_10 C 0.4984 0.5163 0.4111 0.0000 Uiso
C10_10 C 0.4200 0.5179 0.4644 0.0000 Uiso
H1_10 H 0.4975 0.6161 0.3534 0.0000 Uiso
H2_10 H 0.4582 0.6351 0.2788 0.0000 Uiso
H3_10 H 0.3229 0.6410 0.3548 0.0000 Uiso
H4_10 H 0.3642 0.6140 0.4279 0.0000 Uiso
H5_10 H 0.3943 0.5444 0.4575 0.0000 Uiso
H6_10 H 0.4136 0.4898 0.4403 0.0000 Uiso
H7_10 H 0.4998 0.6130 0.4489 0.0000 Uiso
H8_10 H 0.4464 0.6111 0.4778 0.0000 Uiso
H9_10 H 0.4762 0.5156 0.3808 0.0000 Uiso
H10_10 H 0.5275 0.5387 0.4032 0.0000 Uiso
N1_10 N 0.4699 0.5392 0.4527 0.0000 Uiso
O1_9 O 0.3824 0.6503 0.2198 0.0000 Uiso
Zn2_7 Zn 0.3476 0.6524 0.1524 0.0000 Uiso
C11_10 C 0.5979 0.4482 0.4654 0.0000 Uiso
C12_10 C 0.6141 0.3990 0.4382 0.0000 Uiso
C13_10 C 0.6205 0.3539 0.4617 0.0000 Uiso
C14_10 C 0.6326 0.3089 0.4387 0.0000 Uiso
C15_10 C 0.6414 0.3073 0.3853 0.0000 Uiso
C16_10 C 0.6351 0.3539 0.3584 0.0000 Uiso
C17_10 C 0.6203 0.3980 0.3833 0.0000 Uiso
C18_10 C 0.6565 0.2593 0.3551 0.0000 Uiso
C19_10 C 0.5163 0.4111 0.4984 0.0000 Uiso
C20_10 C 0.5179 0.4644 0.4200 0.0000 Uiso
H11_10 H 0.6161 0.3534 0.4975 0.0000 Uiso
H12_10 H 0.6351 0.2788 0.4582 0.0000 Uiso
H13_10 H 0.6410 0.3548 0.3229 0.0000 Uiso
H14_10 H 0.6140 0.4279 0.3642 0.0000 Uiso
H15_10 H 0.5444 0.4575 0.3943 0.0000 Uiso
H16_10 H 0.4898 0.4403 0.4136 0.0000 Uiso
H17_10 H 0.6130 0.4489 0.4998 0.0000 Uiso
H18_10 H 0.6111 0.4778 0.4464 0.0000 Uiso
H19_10 H 0.5156 0.3808 0.4762 0.0000 Uiso
H20_10 H 0.5387 0.4032 0.5275 0.0000 Uiso
N2_10 N 0.5392 0.4527 0.4699 0.0000 Uiso
O3_6 O 0.6503 0.2198 0.3824 0.0000 Uiso
C21_10 C 0.4482 0.4654 0.5979 0.0000 Uiso
C22_10 C 0.3990 0.4382 0.6141 0.0000 Uiso
C23_10 C 0.3539 0.4617 0.6205 0.0000 Uiso
C24_10 C 0.3089 0.4387 0.6326 0.0000 Uiso
C25_10 C 0.3073 0.3853 0.6414 0.0000 Uiso
C26_10 C 0.3539 0.3584 0.6351 0.0000 Uiso
C27_10 C 0.3980 0.3833 0.6203 0.0000 Uiso
C28_10 C 0.2593 0.3551 0.6565 0.0000 Uiso
C29_10 C 0.4111 0.4984 0.5163 0.0000 Uiso
C30_10 C 0.4644 0.4200 0.5179 0.0000 Uiso
H21_10 H 0.3534 0.4975 0.6161 0.0000 Uiso
H22_10 H 0.2788 0.4582 0.6351 0.0000 Uiso
H23_10 H 0.3548 0.3229 0.6410 0.0000 Uiso
H24_10 H 0.4279 0.3642 0.6140 0.0000 Uiso
H25_10 H 0.4575 0.3943 0.5444 0.0000 Uiso
H26_10 H 0.4403 0.4136 0.4898 0.0000 Uiso
H27_10 H 0.4489 0.4998 0.6130 0.0000 Uiso
H28_10 H 0.4778 0.4464 0.6111 0.0000 Uiso
H29_10 H 0.3808 0.4762 0.5156 0.0000 Uiso
H30_10 H 0.4032 0.5275 0.5387 0.0000 Uiso
N3_10 N 0.4527 0.4699 0.5392 0.0000 Uiso
O5_9 O 0.2198 0.3824 0.6503 0.0000 Uiso
O7_8 O 0.3497 0.7198 0.1176 0.0000 Uiso
O8_7 O 0.2802 0.6176 0.1503 0.0000 Uiso
C21_11 C 0.0518 0.5346 0.0979 0.0000 Uiso
C22_11 C 0.1010 0.5618 0.1141 0.0000 Uiso
C23_11 C 0.1461 0.5383 0.1205 0.0000 Uiso
C24_11 C 0.1911 0.5613 0.1326 0.0000 Uiso
C25_11 C 0.1927 0.6147 0.1414 0.0000 Uiso
C26_11 C 0.1461 0.6416 0.1351 0.0000 Uiso
C27_11 C 0.1020 0.6167 0.1203 0.0000 Uiso
C28_11 C 0.2407 0.6449 0.1565 0.0000 Uiso
C29_11 C 0.0889 0.5016 0.0163 0.0000 Uiso
C30_11 C 0.0356 0.5800 0.0179 0.0000 Uiso
H21_11 H 0.1466 0.5025 0.1161 0.0000 Uiso
H22_11 H 0.2212 0.5418 0.1351 0.0000 Uiso
H23_11 H 0.1452 0.6771 0.1410 0.0000 Uiso
H24_11 H 0.0721 0.6358 0.1140 0.0000 Uiso
H25_11 H 0.0425 0.6057 0.0444 0.0000 Uiso
H27_11 H 0.0511 0.5002 0.1130 0.0000 Uiso
H28_11 H 0.0222 0.5536 0.1111 0.0000 Uiso
H29_11 H 0.1192 0.5238 0.0156 0.0000 Uiso
H30_11 H 0.0968 0.4725 0.0387 0.0000 Uiso
N3_11 N 0.0473 0.5301 0.0392 0.0000 Uiso
C1_11 C 0.0346 0.4021 0.9482 0.0000 Uiso
C2_11 C 0.0618 0.3859 0.8990 0.0000 Uiso
C3_11 C 0.0383 0.3795 0.8539 0.0000 Uiso
C4_11 C 0.0613 0.3674 0.8089 0.0000 Uiso
C5_11 C 0.1147 0.3586 0.8073 0.0000 Uiso
C6_11 C 0.1416 0.3649 0.8539 0.0000 Uiso
C7_11 C 0.1167 0.3797 0.8980 0.0000 Uiso
C8_11 C 0.1449 0.3435 0.7593 0.0000 Uiso
C9_11 C 0.0016 0.4837 0.9111 0.0000 Uiso
C10_11 C 0.0800 0.4821 0.9644 0.0000 Uiso
H1_11 H 0.0025 0.3839 0.8534 0.0000 Uiso
H2_11 H 0.0418 0.3649 0.7788 0.0000 Uiso
H3_11 H 0.1771 0.3590 0.8548 0.0000 Uiso
H4_11 H 0.1358 0.3860 0.9279 0.0000 Uiso
H5_11 H 0.1057 0.4556 0.9575 0.0000 Uiso
H6_11 H 0.0864 0.5102 0.9403 0.0000 Uiso
H7_11 H 0.0002 0.3870 0.9489 0.0000 Uiso
H8_11 H 0.0536 0.3889 0.9778 0.0000 Uiso
H9_11 H 0.0238 0.4844 0.8808 0.0000 Uiso
N1_11 N 0.0301 0.4608 0.9527 0.0000 Uiso
O1_10 O 0.1176 0.3497 0.7198 0.0000 Uiso
H16_11 H 0.0102 0.5597 0.9136 0.0000 Uiso
H26_11 H 0.0597 0.5864 0.9898 0.0000 Uiso
H20_11 H 0.9613 0.5968 0.0275 0.0000 Uiso
H10_11 H 0.9725 0.4613 0.9032 0.0000 Uiso
C11_11 C 0.9021 0.5518 0.9654 0.0000 Uiso
C12_11 C 0.8859 0.6010 0.9382 0.0000 Uiso
C13_11 C 0.8795 0.6461 0.9617 0.0000 Uiso
C14_11 C 0.8674 0.6911 0.9387 0.0000 Uiso
C15_11 C 0.8586 0.6927 0.8853 0.0000 Uiso
C16_11 C 0.8649 0.6461 0.8584 0.0000 Uiso
C17_11 C 0.8797 0.6020 0.8833 0.0000 Uiso
C18_11 C 0.8435 0.7407 0.8551 0.0000 Uiso
C19_11 C 0.9837 0.5889 0.9984 0.0000 Uiso
C20_11 C 0.9821 0.5356 0.9200 0.0000 Uiso
H11_11 H 0.8839 0.6466 0.9975 0.0000 Uiso
H12_11 H 0.8649 0.7212 0.9582 0.0000 Uiso
H13_11 H 0.8590 0.6452 0.8229 0.0000 Uiso
H14_11 H 0.8860 0.5721 0.8642 0.0000 Uiso
H15_11 H 0.9556 0.5425 0.8943 0.0000 Uiso
H17_11 H 0.8870 0.5511 0.9998 0.0000 Uiso
H18_11 H 0.8889 0.5222 0.9464 0.0000 Uiso
H19_11 H 0.9844 0.6192 0.9762 0.0000 Uiso
N2_11 N 0.9608 0.5473 0.9699 0.0000 Uiso
O4_8 O 0.8302 0.7387 0.8116 0.0000 Uiso
C1_12 C 0.5979 0.5518 0.0346 0.0000 Uiso
C2_12 C 0.6141 0.6010 0.0618 0.0000 Uiso
C3_12 C 0.6205 0.6461 0.0383 0.0000 Uiso
C4_12 C 0.6326 0.6911 0.0613 0.0000 Uiso
C5_12 C 0.6414 0.6927 0.1147 0.0000 Uiso
C6_12 C 0.6351 0.6461 0.1416 0.0000 Uiso
C7_12 C 0.6203 0.6020 0.1167 0.0000 Uiso
C8_12 C 0.6565 0.7407 0.1449 0.0000 Uiso
C9_12 C 0.5163 0.5889 0.0016 0.0000 Uiso
C10_12 C 0.5179 0.5356 0.0800 0.0000 Uiso
H1_12 H 0.6161 0.6466 0.0025 0.0000 Uiso
H2_12 H 0.6351 0.7212 0.0418 0.0000 Uiso
H3_12 H 0.6410 0.6452 0.1771 0.0000 Uiso
H4_12 H 0.6140 0.5721 0.1358 0.0000 Uiso
H5_12 H 0.5444 0.5425 0.1057 0.0000 Uiso
H6_12 H 0.4898 0.5597 0.0864 0.0000 Uiso
H7_12 H 0.6130 0.5511 0.0002 0.0000 Uiso
H8_12 H 0.6111 0.5222 0.0536 0.0000 Uiso
H9_12 H 0.5156 0.6192 0.0238 0.0000 Uiso
N1_12 N 0.5392 0.5473 0.0301 0.0000 Uiso
O1_11 O 0.6503 0.7802 0.1176 0.0000 Uiso
Zn2_8 Zn 0.6524 0.8476 0.1524 0.0000 Uiso
H16_12 H 0.4403 0.5864 0.0102 0.0000 Uiso
C21_12 C 0.4654 0.4021 0.0518 0.0000 Uiso
C22_12 C 0.4382 0.3859 0.1010 0.0000 Uiso
C23_12 C 0.4617 0.3795 0.1461 0.0000 Uiso
C24_12 C 0.4387 0.3674 0.1911 0.0000 Uiso
C25_12 C 0.3853 0.3586 0.1927 0.0000 Uiso
C26_12 C 0.3584 0.3649 0.1461 0.0000 Uiso
C27_12 C 0.3833 0.3797 0.1020 0.0000 Uiso
C28_12 C 0.3551 0.3435 0.2407 0.0000 Uiso
C29_12 C 0.4984 0.4837 0.0889 0.0000 Uiso
C30_12 C 0.4200 0.4821 0.0356 0.0000 Uiso
H21_12 H 0.4975 0.3839 0.1466 0.0000 Uiso
H22_12 H 0.4582 0.3649 0.2212 0.0000 Uiso
H23_12 H 0.3229 0.3590 0.1452 0.0000 Uiso
H24_12 H 0.3642 0.3860 0.0721 0.0000 Uiso
H25_12 H 0.3943 0.4556 0.0425 0.0000 Uiso
H26_12 H 0.4136 0.5102 0.0597 0.0000 Uiso
H27_12 H 0.4998 0.3870 0.0511 0.0000 Uiso
H28_12 H 0.4464 0.3889 0.0222 0.0000 Uiso
H29_12 H 0.4762 0.4844 0.1192 0.0000 Uiso
H30_12 H 0.5275 0.4613 0.0968 0.0000 Uiso
N3_12 N 0.4699 0.4608 0.0473 0.0000 Uiso
O5_10 O 0.3824 0.3497 0.2802 0.0000 Uiso
O7_9 O 0.7198 0.8824 0.1503 0.0000 Uiso
O8_8 O 0.6176 0.8497 0.2198 0.0000 Uiso
H10_12 H 0.5387 0.5968 0.9725 0.0000 Uiso
C11_12 C 0.4482 0.5346 0.9021 0.0000 Uiso
C12_12 C 0.3990 0.5618 0.8859 0.0000 Uiso
C13_12 C 0.3539 0.5383 0.8795 0.0000 Uiso
C14_12 C 0.3089 0.5613 0.8674 0.0000 Uiso
C15_12 C 0.3073 0.6147 0.8586 0.0000 Uiso
C16_12 C 0.3539 0.6416 0.8649 0.0000 Uiso
C17_12 C 0.3980 0.6167 0.8797 0.0000 Uiso
C18_12 C 0.2593 0.6449 0.8435 0.0000 Uiso
C19_12 C 0.4111 0.5016 0.9837 0.0000 Uiso
C20_12 C 0.4644 0.5800 0.9821 0.0000 Uiso
H11_12 H 0.3534 0.5025 0.8839 0.0000 Uiso
H12_12 H 0.2788 0.5418 0.8649 0.0000 Uiso
H13_12 H 0.3548 0.6771 0.8590 0.0000 Uiso
H14_12 H 0.4279 0.6358 0.8860 0.0000 Uiso
H15_12 H 0.4575 0.6057 0.9556 0.0000 Uiso
H17_12 H 0.4489 0.5002 0.8870 0.0000 Uiso
H18_12 H 0.4778 0.5536 0.8889 0.0000 Uiso
H19_12 H 0.3808 0.5238 0.9844 0.0000 Uiso
H20_12 H 0.4032 0.4725 0.9613 0.0000 Uiso
N2_12 N 0.4527 0.5301 0.9608 0.0000 Uiso
O9_9 O 0.5616 0.5113 0.9198 0.0000 Uiso
C1_13 C 0.5518 0.0346 0.5979 0.0000 Uiso
C2_13 C 0.6010 0.0618 0.6141 0.0000 Uiso
C3_13 C 0.6461 0.0383 0.6205 0.0000 Uiso
C4_13 C 0.6911 0.0613 0.6326 0.0000 Uiso
C5_13 C 0.6927 0.1147 0.6414 0.0000 Uiso
C6_13 C 0.6461 0.1416 0.6351 0.0000 Uiso
C7_13 C 0.6020 0.1167 0.6203 0.0000 Uiso
C8_13 C 0.7407 0.1449 0.6565 0.0000 Uiso
C9_13 C 0.5889 0.0016 0.5163 0.0000 Uiso
C10_13 C 0.5356 0.0800 0.5179 0.0000 Uiso
H1_13 H 0.6466 0.0025 0.6161 0.0000 Uiso
H2_13 H 0.7212 0.0418 0.6351 0.0000 Uiso
H3_13 H 0.6452 0.1771 0.6410 0.0000 Uiso
H4_13 H 0.5721 0.1358 0.6140 0.0000 Uiso
H5_13 H 0.5425 0.1057 0.5444 0.0000 Uiso
H6_13 H 0.5597 0.0864 0.4898 0.0000 Uiso
H7_13 H 0.5511 0.0002 0.6130 0.0000 Uiso
H8_13 H 0.5222 0.0536 0.6111 0.0000 Uiso
H9_13 H 0.6192 0.0238 0.5156 0.0000 Uiso
N1_13 N 0.5473 0.0301 0.5392 0.0000 Uiso
O1_12 O 0.7802 0.1176 0.6503 0.0000 Uiso
H16_13 H 0.5864 0.0102 0.4403 0.0000 Uiso
C21_13 C 0.4021 0.0518 0.4654 0.0000 Uiso
C22_13 C 0.3859 0.1010 0.4382 0.0000 Uiso
C23_13 C 0.3795 0.1461 0.4617 0.0000 Uiso
C24_13 C 0.3674 0.1911 0.4387 0.0000 Uiso
C25_13 C 0.3586 0.1927 0.3853 0.0000 Uiso
C26_13 C 0.3649 0.1461 0.3584 0.0000 Uiso
C27_13 C 0.3797 0.1020 0.3833 0.0000 Uiso
C28_13 C 0.3435 0.2407 0.3551 0.0000 Uiso
C29_13 C 0.4837 0.0889 0.4984 0.0000 Uiso
C30_13 C 0.4821 0.0356 0.4200 0.0000 Uiso
H21_13 H 0.3839 0.1466 0.4975 0.0000 Uiso
H22_13 H 0.3649 0.2212 0.4582 0.0000 Uiso
H23_13 H 0.3590 0.1452 0.3229 0.0000 Uiso
H24_13 H 0.3860 0.0721 0.3642 0.0000 Uiso
H25_13 H 0.4556 0.0425 0.3943 0.0000 Uiso
H26_13 H 0.5102 0.0597 0.4136 0.0000 Uiso
H27_13 H 0.3870 0.0511 0.4998 0.0000 Uiso
H28_13 H 0.3889 0.0222 0.4464 0.0000 Uiso
H29_13 H 0.4844 0.1192 0.4762 0.0000 Uiso
H30_13 H 0.4613 0.0968 0.5275 0.0000 Uiso
N3_13 N 0.4608 0.0473 0.4699 0.0000 Uiso
O5_11 O 0.3497 0.2802 0.3824 0.0000 Uiso
O7_10 O 0.8824 0.1503 0.7198 0.0000 Uiso
H10_13 H 0.5968 0.9725 0.5387 0.0000 Uiso
C11_13 C 0.5346 0.9021 0.4482 0.0000 Uiso
C12_13 C 0.5618 0.8859 0.3990 0.0000 Uiso
C13_13 C 0.5383 0.8795 0.3539 0.0000 Uiso
C14_13 C 0.5613 0.8674 0.3089 0.0000 Uiso
C15_13 C 0.6147 0.8586 0.3073 0.0000 Uiso
C16_13 C 0.6416 0.8649 0.3539 0.0000 Uiso
C17_13 C 0.6167 0.8797 0.3980 0.0000 Uiso
C18_13 C 0.6449 0.8435 0.2593 0.0000 Uiso
C19_13 C 0.5016 0.9837 0.4111 0.0000 Uiso
C20_13 C 0.5800 0.9821 0.4644 0.0000 Uiso
H11_13 H 0.5025 0.8839 0.3534 0.0000 Uiso
H12_13 H 0.5418 0.8649 0.2788 0.0000 Uiso
H13_13 H 0.6771 0.8590 0.3548 0.0000 Uiso
H14_13 H 0.6358 0.8860 0.4279 0.0000 Uiso
H15_13 H 0.6057 0.9556 0.4575 0.0000 Uiso
H17_13 H 0.5002 0.8870 0.4489 0.0000 Uiso
H18_13 H 0.5536 0.8889 0.4778 0.0000 Uiso
H19_13 H 0.5238 0.9844 0.3808 0.0000 Uiso
H20_13 H 0.4725 0.9613 0.4032 0.0000 Uiso
N2_13 N 0.5301 0.9608 0.4527 0.0000 Uiso
O9_10 O 0.5113 0.9198 0.5616 0.0000 Uiso
C21_14 C 0.5346 0.0979 0.0518 0.0000 Uiso
C22_14 C 0.5618 0.1141 0.1010 0.0000 Uiso
C23_14 C 0.5383 0.1205 0.1461 0.0000 Uiso
C24_14 C 0.5613 0.1326 0.1911 0.0000 Uiso
C25_14 C 0.6147 0.1414 0.1927 0.0000 Uiso
C26_14 C 0.6416 0.1351 0.1461 0.0000 Uiso
C27_14 C 0.6167 0.1203 0.1020 0.0000 Uiso
C28_14 C 0.6449 0.1565 0.2407 0.0000 Uiso
C29_14 C 0.5016 0.0163 0.0889 0.0000 Uiso
C30_14 C 0.5800 0.0179 0.0356 0.0000 Uiso
H21_14 H 0.5025 0.1161 0.1466 0.0000 Uiso
H22_14 H 0.5418 0.1351 0.2212 0.0000 Uiso
H23_14 H 0.6771 0.1410 0.1452 0.0000 Uiso
H24_14 H 0.6358 0.1140 0.0721 0.0000 Uiso
H25_14 H 0.6057 0.0444 0.0425 0.0000 Uiso
H27_14 H 0.5002 0.1130 0.0511 0.0000 Uiso
H28_14 H 0.5536 0.1111 0.0222 0.0000 Uiso
H29_14 H 0.5238 0.0156 0.1192 0.0000 Uiso
H30_14 H 0.4725 0.0387 0.0968 0.0000 Uiso
N3_14 N 0.5301 0.0392 0.0473 0.0000 Uiso
O5_12 O 0.6176 0.1503 0.2802 0.0000 Uiso
H20_14 H 0.5968 0.0275 0.9613 0.0000 Uiso
C1_14 C 0.4021 0.9482 0.0346 0.0000 Uiso
C2_14 C 0.3859 0.8990 0.0618 0.0000 Uiso
C3_14 C 0.3795 0.8539 0.0383 0.0000 Uiso
C4_14 C 0.3674 0.8089 0.0613 0.0000 Uiso
C5_14 C 0.3586 0.8073 0.1147 0.0000 Uiso
C6_14 C 0.3649 0.8539 0.1416 0.0000 Uiso
C7_14 C 0.3797 0.8980 0.1167 0.0000 Uiso
C8_14 C 0.3435 0.7593 0.1449 0.0000 Uiso
C9_14 C 0.4837 0.9111 0.0016 0.0000 Uiso
C10_14 C 0.4821 0.9644 0.0800 0.0000 Uiso
H1_14 H 0.3839 0.8534 0.0025 0.0000 Uiso
H2_14 H 0.3649 0.7788 0.0418 0.0000 Uiso
H3_14 H 0.3590 0.8548 0.1771 0.0000 Uiso
H4_14 H 0.3860 0.9279 0.1358 0.0000 Uiso
H5_14 H 0.4556 0.9575 0.1057 0.0000 Uiso
H6_14 H 0.5102 0.9403 0.0864 0.0000 Uiso
H7_14 H 0.3870 0.9489 0.0002 0.0000 Uiso
H8_14 H 0.3889 0.9778 0.0536 0.0000 Uiso
H9_14 H 0.4844 0.8808 0.0238 0.0000 Uiso
N1_14 N 0.4608 0.9527 0.0301 0.0000 Uiso
H16_14 H 0.5597 0.9136 0.0102 0.0000 Uiso
H26_14 H 0.5864 0.9898 0.0597 0.0000 Uiso
H10_14 H 0.4613 0.9032 0.9725 0.0000 Uiso
C11_14 C 0.5518 0.9654 0.9021 0.0000 Uiso
C12_14 C 0.6010 0.9382 0.8859 0.0000 Uiso
C13_14 C 0.6461 0.9617 0.8795 0.0000 Uiso
C14_14 C 0.6911 0.9387 0.8674 0.0000 Uiso
C15_14 C 0.6927 0.8853 0.8586 0.0000 Uiso
C16_14 C 0.6461 0.8584 0.8649 0.0000 Uiso
C17_14 C 0.6020 0.8833 0.8797 0.0000 Uiso
C18_14 C 0.7407 0.8551 0.8435 0.0000 Uiso
C19_14 C 0.5889 0.9984 0.9837 0.0000 Uiso
C20_14 C 0.5356 0.9200 0.9821 0.0000 Uiso
H11_14 H 0.6466 0.9975 0.8839 0.0000 Uiso
H12_14 H 0.7212 0.9582 0.8649 0.0000 Uiso
H13_14 H 0.6452 0.8229 0.8590 0.0000 Uiso
H14_14 H 0.5721 0.8642 0.8860 0.0000 Uiso
H15_14 H 0.5425 0.8943 0.9556 0.0000 Uiso
H17_14 H 0.5511 0.9998 0.8870 0.0000 Uiso
H18_14 H 0.5222 0.9464 0.8889 0.0000 Uiso
H19_14 H 0.6192 0.9762 0.9844 0.0000 Uiso
N2_14 N 0.5473 0.9699 0.9608 0.0000 Uiso
O4_9 O 0.7387 0.8116 0.8302 0.0000 Uiso
C1_15 C 0.8479 0.7154 0.6982 0.0000 Uiso
C2_15 C 0.8641 0.6882 0.6490 0.0000 Uiso
C3_15 C 0.8705 0.7117 0.6039 0.0000 Uiso
C4_15 C 0.8826 0.6887 0.5589 0.0000 Uiso
C5_15 C 0.8914 0.6353 0.5573 0.0000 Uiso
C6_15 C 0.8851 0.6084 0.6039 0.0000 Uiso
C7_15 C 0.8703 0.6333 0.6480 0.0000 Uiso
C8_15 C 0.9065 0.6051 0.5093 0.0000 Uiso
C9_15 C 0.7663 0.7484 0.6611 0.0000 Uiso
C10_15 C 0.7679 0.6700 0.7144 0.0000 Uiso
H1_15 H 0.8661 0.7475 0.6034 0.0000 Uiso
H2_15 H 0.8851 0.7082 0.5288 0.0000 Uiso
H3_15 H 0.8910 0.5729 0.6048 0.0000 Uiso
H4_15 H 0.8640 0.6142 0.6779 0.0000 Uiso
H5_15 H 0.7944 0.6443 0.7075 0.0000 Uiso
H6_15 H 0.7398 0.6636 0.6903 0.0000 Uiso
H7_15 H 0.8630 0.7498 0.6989 0.0000 Uiso
H8_15 H 0.8611 0.6964 0.7278 0.0000 Uiso
H9_15 H 0.7656 0.7262 0.6308 0.0000 Uiso
H10_15 H 0.7887 0.7775 0.6532 0.0000 Uiso
N1_15 N 0.7892 0.7199 0.7027 0.0000 Uiso
C11_15 C 0.6982 0.8479 0.7154 0.0000 Uiso
C12_15 C 0.6490 0.8641 0.6882 0.0000 Uiso
C13_15 C 0.6039 0.8705 0.7117 0.0000 Uiso
C14_15 C 0.5589 0.8826 0.6887 0.0000 Uiso
C15_15 C 0.5573 0.8914 0.6353 0.0000 Uiso
C16_15 C 0.6039 0.8851 0.6084 0.0000 Uiso
C17_15 C 0.6480 0.8703 0.6333 0.0000 Uiso
C18_15 C 0.5093 0.9065 0.6051 0.0000 Uiso
C19_15 C 0.6611 0.7663 0.7484 0.0000 Uiso
C20_15 C 0.7144 0.7679 0.6700 0.0000 Uiso
H11_15 H 0.6034 0.8661 0.7475 0.0000 Uiso
H12_15 H 0.5288 0.8851 0.7082 0.0000 Uiso
H13_15 H 0.6048 0.8910 0.5729 0.0000 Uiso
H14_15 H 0.6779 0.8640 0.6142 0.0000 Uiso
H15_15 H 0.7075 0.7944 0.6443 0.0000 Uiso
H16_15 H 0.6903 0.7398 0.6636 0.0000 Uiso
H17_15 H 0.6989 0.8630 0.7498 0.0000 Uiso
H18_15 H 0.7278 0.8611 0.6964 0.0000 Uiso
H19_15 H 0.6308 0.7656 0.7262 0.0000 Uiso
H20_15 H 0.6532 0.7887 0.7775 0.0000 Uiso
N2_15 N 0.7027 0.7892 0.7199 0.0000 Uiso
C21_15 C 0.7154 0.6982 0.8479 0.0000 Uiso
C22_15 C 0.6882 0.6490 0.8641 0.0000 Uiso
C23_15 C 0.7117 0.6039 0.8705 0.0000 Uiso
C24_15 C 0.6887 0.5589 0.8826 0.0000 Uiso
C25_15 C 0.6353 0.5573 0.8914 0.0000 Uiso
C26_15 C 0.6084 0.6039 0.8851 0.0000 Uiso
C27_15 C 0.6333 0.6480 0.8703 0.0000 Uiso
C28_15 C 0.6051 0.5093 0.9065 0.0000 Uiso
C29_15 C 0.7484 0.6611 0.7663 0.0000 Uiso
C30_15 C 0.6700 0.7144 0.7679 0.0000 Uiso
H21_15 H 0.7475 0.6034 0.8661 0.0000 Uiso
H22_15 H 0.7082 0.5288 0.8851 0.0000 Uiso
H23_15 H 0.5729 0.6048 0.8910 0.0000 Uiso
H24_15 H 0.6142 0.6779 0.8640 0.0000 Uiso
H25_15 H 0.6443 0.7075 0.7944 0.0000 Uiso
H26_15 H 0.6636 0.6903 0.7398 0.0000 Uiso
H27_15 H 0.7498 0.6989 0.8630 0.0000 Uiso
H28_15 H 0.6964 0.7278 0.8611 0.0000 Uiso
H29_15 H 0.7262 0.6308 0.7656 0.0000 Uiso
H30_15 H 0.7775 0.6532 0.7887 0.0000 Uiso
N3_15 N 0.7199 0.7027 0.7892 0.0000 Uiso
H10_16 H 0.0275 0.0387 0.9032 0.0000 Uiso
H20_16 H 0.0387 0.9032 0.0275 0.0000 Uiso
C11_16 C 0.0979 0.9482 0.9654 0.0000 Uiso
C12_16 C 0.1141 0.8990 0.9382 0.0000 Uiso
C13_16 C 0.1205 0.8539 0.9617 0.0000 Uiso
C14_16 C 0.1326 0.8089 0.9387 0.0000 Uiso
C15_16 C 0.1414 0.8073 0.8853 0.0000 Uiso
C16_16 C 0.1351 0.8539 0.8584 0.0000 Uiso
C17_16 C 0.1203 0.8980 0.8833 0.0000 Uiso
C18_16 C 0.1565 0.7593 0.8551 0.0000 Uiso
C19_16 C 0.0163 0.9111 0.9984 0.0000 Uiso
C20_16 C 0.0179 0.9644 0.9200 0.0000 Uiso
H11_16 H 0.1161 0.8534 0.9975 0.0000 Uiso
H12_16 H 0.1351 0.7788 0.9582 0.0000 Uiso
H13_16 H 0.1410 0.8548 0.8229 0.0000 Uiso
H14_16 H 0.1140 0.9279 0.8642 0.0000 Uiso
H15_16 H 0.0444 0.9575 0.8943 0.0000 Uiso
H17_16 H 0.1130 0.9489 0.9998 0.0000 Uiso
H18_16 H 0.1111 0.9778 0.9464 0.0000 Uiso
H19_16 H 0.0156 0.8808 0.9762 0.0000 Uiso
N2_16 N 0.0392 0.9527 0.9699 0.0000 Uiso
H30_16 H 0.9032 0.0275 0.0387 0.0000 Uiso
C1_16 C 0.9654 0.0979 0.9482 0.0000 Uiso
C2_16 C 0.9382 0.1141 0.8990 0.0000 Uiso
C3_16 C 0.9617 0.1205 0.8539 0.0000 Uiso
C4_16 C 0.9387 0.1326 0.8089 0.0000 Uiso
C5_16 C 0.8853 0.1414 0.8073 0.0000 Uiso
C6_16 C 0.8584 0.1351 0.8539 0.0000 Uiso
C7_16 C 0.8833 0.1203 0.8980 0.0000 Uiso
C8_16 C 0.8551 0.1565 0.7593 0.0000 Uiso
C9_16 C 0.9984 0.0163 0.9111 0.0000 Uiso
C10_16 C 0.9200 0.0179 0.9644 0.0000 Uiso
H1_16 H 0.9975 0.1161 0.8534 0.0000 Uiso
H2_16 H 0.9582 0.1351 0.7788 0.0000 Uiso
H3_16 H 0.8229 0.1410 0.8548 0.0000 Uiso
H4_16 H 0.8642 0.1140 0.9279 0.0000 Uiso
H5_16 H 0.8943 0.0444 0.9575 0.0000 Uiso
H7_16 H 0.9998 0.1130 0.9489 0.0000 Uiso
H8_16 H 0.9464 0.1111 0.9778 0.0000 Uiso
H9_16 H 0.9762 0.0156 0.8808 0.0000 Uiso
N1_16 N 0.9699 0.0392 0.9527 0.0000 Uiso
C21_16 C 0.9482 0.9654 0.0979 0.0000 Uiso
C22_16 C 0.8990 0.9382 0.1141 0.0000 Uiso
C23_16 C 0.8539 0.9617 0.1205 0.0000 Uiso
C24_16 C 0.8089 0.9387 0.1326 0.0000 Uiso
C25_16 C 0.8073 0.8853 0.1414 0.0000 Uiso
C26_16 C 0.8539 0.8584 0.1351 0.0000 Uiso
C27_16 C 0.8980 0.8833 0.1203 0.0000 Uiso
C28_16 C 0.7593 0.8551 0.1565 0.0000 Uiso
C29_16 C 0.9111 0.9984 0.0163 0.0000 Uiso
C30_16 C 0.9644 0.9200 0.0179 0.0000 Uiso
H21_16 H 0.8534 0.9975 0.1161 0.0000 Uiso
H22_16 H 0.7788 0.9582 0.1351 0.0000 Uiso
H23_16 H 0.8548 0.8229 0.1410 0.0000 Uiso
H24_16 H 0.9279 0.8642 0.1140 0.0000 Uiso
H25_16 H 0.9575 0.8943 0.0444 0.0000 Uiso
H27_16 H 0.9489 0.9998 0.1130 0.0000 Uiso
H28_16 H 0.9778 0.9464 0.1111 0.0000 Uiso
H29_16 H 0.8808 0.9762 0.0156 0.0000 Uiso
N3_16 N 0.9527 0.9699 0.0392 0.0000 Uiso
H6_16 H 0.9136 0.9898 0.9403 0.0000 Uiso
H16_16 H 0.9898 0.9403 0.9136 0.0000 Uiso
H26_16 H 0.9403 0.9136 0.9898 0.0000 Uiso
loop_
_geom_bond_atom_site_label_1
_geom_bond_atom_site_label_2
_geom_bond_site_symmetry_1
_geom_bond_site_symmetry_2
Zn7 O5 1_555 1_555
Zn7 O5_2 1_555 1_555
Zn7 O5_3 1_555 1_555
C1 C2 1_555 1_555
C2 C3 1_555 1_555
C3 C4 1_555 1_555
C4 C5 1_555 1_555
C5 C6 1_555 1_555
C6 C7 1_555 1_555
C7 C2 1_555 1_555
C8 C5 1_555 1_555
C9 H9 1_555 1_555
C10 H5 1_555 1_555
H1 C3 1_555 1_555
H2 C4 1_555 1_555
H3 C6 1_555 1_555
H4 C7 1_555 1_555
H6 C10 1_555 1_555
H7 C1 1_555 1_555
H8 C1 1_555 1_555
H10 C9 1_555 1_555
N1 C1 1_555 1_555
O1 C8 1_555 1_555
O2 C8 1_555 1_555
Zn1 N1 1_555 1_555
Zn2 O1 1_555 1_555
C11 C12 1_555 1_555
C12 C13 1_555 1_555
C13 C14 1_555 1_555
C14 C15 1_555 1_555
C15 C16 1_555 1_555
C16 C17 1_555 1_555
C17 C12 1_555 1_555
C18 C15 1_555 1_555
C19 H19 1_555 1_555
C20 C9 1_555 1_555
H11 C13 1_555 1_555
H12 C14 1_555 1_555
H13 C16 1_555 1_555
H14 C17 1_555 1_555
H15 C20 1_555 1_555
H16 C20 1_555 1_555
H17 C11 1_555 1_555
H18 C11 1_555 1_555
H20 C19 1_555 1_555
N2 Zn1 1_555 1_555
O4 C18 1_555 1_555
C21 C22 1_555 1_555
C22 C23 1_555 1_555
C23 C24 1_555 1_555
C24 C25 1_555 1_555
C25 C26 1_555 1_555
C26 C27 1_555 1_555
C27 C22 1_555 1_555
C28 C25 1_555 1_555
C29 C10 1_555 1_555
C30 C19 1_555 1_555
H21 C23 1_555 1_555
H22 C24 1_555 1_555
H23 C26 1_555 1_555
H24 C27 1_555 1_555
H25 C30 1_555 1_555
H26 C30 1_555 1_555
H27 C21 1_555 1_555
H28 C21 1_555 1_555
H29 C29 1_555 1_555
H30 C29 1_555 1_555
N3 Zn1 1_555 1_555
O6 C28 1_555 1_555
O7 Zn2 1_555 1_555
O8 Zn2 1_555 1_555
O9 Zn1 1_555 1_555
O10 Zn1 1_555 1_555
O11 Zn1 1_555 1_555
Zn4 O2 1_555 1_555
C9 N1 1_555 1_555
C10 N1 1_555 1_555
C11 N2 1_555 1_555
C19 N2 1_555 1_555
C20 N2 1_555 1_555
C21 N3 1_555 1_555
C29 N3 1_555 1_555
C30 N3 1_555 1_555
Zn6 O3 1_555 1_555
Zn6_2 O3_2 1_555 1_555
C1_2 C2_2 1_555 1_555
C2_2 C3_2 1_555 1_555
C3_2 C4_2 1_555 1_555
C4_2 C5_2 1_555 1_555
C5_2 C6_2 1_555 1_555
C6_2 C7_2 1_555 1_555
C7_2 C2_2 1_555 1_555
C8_2 C5_2 1_555 1_555
C9_2 H9_2 1_555 1_555
C10_2 H5_2 1_555 1_555
H1_2 C3_2 1_555 1_555
H2_2 C4_2 1_555 1_555
H3_2 C6_2 1_555 1_555
H4_2 C7_2 1_555 1_555
H6_2 C10_2 1_555 1_555
H7_2 C1_2 1_555 1_555
H8_2 C1_2 1_555 1_555
H10_2 C9_2 1_555 1_555
N1_2 C1_2 1_555 1_555
O1_2 C8_2 1_555 1_555
O2_2 C8_2 1_555 1_555
Zn1_2 N1_2 1_555 1_555
Zn2_2 O1_2 1_555 1_555
C11_2 C12_2 1_555 1_555
C12_2 C13_2 1_555 1_555
C13_2 C14_2 1_555 1_555
C14_2 C15_2 1_555 1_555
C15_2 C16_2 1_555 1_555
C16_2 C17_2 1_555 1_555
C17_2 C12_2 1_555 1_555
C18_2 C15_2 1_555 1_555
C19_2 H19_2 1_555 1_555
C20_2 C9_2 1_555 1_555
H11_2 C13_2 1_555 1_555
H12_2 C14_2 1_555 1_555
H13_2 C16_2 1_555 1_555
H14_2 C17_2 1_555 1_555
H15_2 C20_2 1_555 1_555
H16_2 C20_2 1_555 1_555
H17_2 C11_2 1_555 1_555
H18_2 C11_2 1_555 1_555
H20_2 C19_2 1_555 1_555
N2_2 Zn1_2 1_555 1_555
O4_2 C18_2 1_555 1_555
C21_2 C22_2 1_555 1_555
C22_2 C23_2 1_555 1_555
C23_2 C24_2 1_555 1_555
C24_2 C25_2 1_555 1_555
C25_2 C26_2 1_555 1_555
C26_2 C27_2 1_555 1_555
C27_2 C22_2 1_555 1_555
C28_2 C25_2 1_555 1_555
C29_2 C10_2 1_555 1_555
C30_2 C19_2 1_555 1_555
H21_2 C23_2 1_555 1_555
H22_2 C24_2 1_555 1_555
H23_2 C26_2 1_555 1_555
H24_2 C27_2 1_555 1_555
H25_2 C30_2 1_555 1_555
H26_2 C30_2 1_555 1_555
H27_2 C21_2 1_555 1_555
H28_2 C21_2 1_555 1_555
H29_2 C29_2 1_555 1_555
H30_2 C29_2 1_555 1_555
N3_2 Zn1_2 1_555 1_555
O5_4 C28_2 1_555 1_555
O6_2 C28_2 1_555 1_555
O7_2 Zn2_2 1_555 1_555
O8_2 Zn2_2 1_555 1_555
O9_2 Zn1_2 1_555 1_555
O10_2 Zn1_2 1_555 1_555
O11_2 Zn1_2 1_555 1_555
Zn4_2 O2_2 1_555 1_555
Zn5_2 O6_2 1_555 1_555
Zn7_2 O5_4 1_555 1_555
C9_2 N1_2 1_555 1_555
C10_2 N1_2 1_555 1_555
C11_2 N2_2 1_555 1_555
C19_2 N2_2 1_555 1_555
C20_2 N2_2 1_555 1_555
C21_2 N3_2 1_555 1_555
C29_2 N3_2 1_555 1_555
C30_2 N3_2 1_555 1_555
C1_3 C2_3 1_555 1_555
C2_3 C3_3 1_555 1_555
C3_3 C4_3 1_555 1_555
C4_3 C5_3 1_555 1_555
C5_3 C6_3 1_555 1_555
C6_3 C7_3 1_555 1_555
C7_3 C2_3 1_555 1_555
C8_3 C5_3 1_555 1_555
C9_3 H9_3 1_555 1_555
C10_3 H5_3 1_555 1_555
H1_3 C3_3 1_555 1_555
H2_3 C4_3 1_555 1_555
H3_3 C6_3 1_555 1_555
H4_3 C7_3 1_555 1_555
H6_3 C10_3 1_555 1_555
H7_3 C1_3 1_555 1_555
H8_3 C1_3 1_555 1_555
H10_3 C9_3 1_555 1_555
N1_3 C1_3 1_555 1_555
O2_3 C8_3 1_555 1_555
Zn1_3 N1_3 1_555 1_555
C11_3 C12_3 1_555 1_555
C12_3 C13_3 1_555 1_555
C13_3 C14_3 1_555 1_555
C14_3 C15_3 1_555 1_555
C15_3 C16_3 1_555 1_555
C16_3 C17_3 1_555 1_555
C17_3 C12_3 1_555 1_555
C18_3 C15_3 1_555 1_555
C19_3 H19_3 1_555 1_555
C20_3 C9_3 1_555 1_555
H11_3 C13_3 1_555 1_555
H12_3 C14_3 1_555 1_555
H13_3 C16_3 1_555 1_555
H14_3 C17_3 1_555 1_555
H15_3 C20_3 1_555 1_555
H16_3 C20_3 1_555 1_555
H17_3 C11_3 1_555 1_555
H18_3 C11_3 1_555 1_555
H20_3 C19_3 1_555 1_555
N2_3 Zn1_3 1_555 1_555
O4_3 C18_3 1_555 1_555
C21_3 C22_3 1_555 1_555
C22_3 C23_3 1_555 1_555
C23_3 C24_3 1_555 1_555
C24_3 C25_3 1_555 1_555
C25_3 C26_3 1_555 1_555
C26_3 C27_3 1_555 1_555
C27_3 C22_3 1_555 1_555
C28_3 C25_3 1_555 1_555
C29_3 C10_3 1_555 1_555
C30_3 C19_3 1_555 1_555
H21_3 C23_3 1_555 1_555
H22_3 C24_3 1_555 1_555
H23_3 C26_3 1_555 1_555
H24_3 C27_3 1_555 1_555
H25_3 C30_3 1_555 1_555
H26_3 C30_3 1_555 1_555
H27_3 C21_3 1_555 1_555
H28_3 C21_3 1_555 1_555
H29_3 C29_3 1_555 1_555
H30_3 C29_3 1_555 1_555
N3_3 Zn1_3 1_555 1_555
O6_3 C28_3 1_555 1_555
O9_3 Zn1_3 1_555 1_555
O10_3 Zn1_3 1_555 1_555
O11_3 Zn1_3 1_555 1_555
C9_3 N1_3 1_555 1_555
C10_3 N1_3 1_555 1_555
C11_3 N2_3 1_555 1_555
C19_3 N2_3 1_555 1_555
C20_3 N2_3 1_555 1_555
C21_3 N3_3 1_555 1_555
C29_3 N3_3 1_555 1_555
C30_3 N3_3 1_555 1_555
Zn2_3 O1_3 1_555 1_555
O7_3 Zn2_3 1_555 1_555
O8_3 Zn2_3 1_555 1_555
Zn6_2 O5_5 1_555 1_555
Zn7_2 O3_3 1_555 1_555
C1_4 C2_4 1_555 1_555
C2_4 C3_4 1_555 1_555
C3_4 C4_4 1_555 1_555
C4_4 C5_4 1_555 1_555
C5_4 C6_4 1_555 1_555
C6_4 C7_4 1_555 1_555
C7_4 C2_4 1_555 1_555
C8_4 C5_4 1_555 1_555
C9_4 H9_4 1_555 1_555
C10_4 H5_4 1_555 1_555
H1_4 C3_4 1_555 1_555
H2_4 C4_4 1_555 1_555
H3_4 C6_4 1_555 1_555
H4_4 C7_4 1_555 1_555
H6_4 C10_4 1_555 1_555
H7_4 C1_4 1_555 1_555
H8_4 C1_4 1_555 1_555
H10_4 C9_4 1_555 1_555
N1_4 C1_4 1_555 1_555
O1_4 C8_4 1_555 1_555
O2_4 C8_4 1_555 1_555
Zn1_4 N1_4 1_555 1_555
Zn6_2 O1_4 1_555 1_555
C11_4 C12_4 1_555 1_555
C12_4 C13_4 1_555 1_555
C13_4 C14_4 1_555 1_555
C14_4 C15_4 1_555 1_555
C15_4 C16_4 1_555 1_555
C16_4 C17_4 1_555 1_555
C17_4 C12_4 1_555 1_555
C18_4 C15_4 1_555 1_555
C19_4 H19_4 1_555 1_555
C20_4 C9_4 1_555 1_555
H11_4 C13_4 1_555 1_555
H12_4 C14_4 1_555 1_555
H13_4 C16_4 1_555 1_555
H14_4 C17_4 1_555 1_555
H15_4 C20_4 1_555 1_555
H16_4 C20_4 1_555 1_555
H17_4 C11_4 1_555 1_555
H18_4 C11_4 1_555 1_555
H20_4 C19_4 1_555 1_555
N2_4 Zn1_4 1_555 1_555
O7_2 C18_4 1_555 1_555
O4_4 C18_4 1_555 1_555
C21_4 C22_4 1_555 1_555
C22_4 C23_4 1_555 1_555
C23_4 C24_4 1_555 1_555
C24_4 C25_4 1_555 1_555
C25_4 C26_4 1_555 1_555
C26_4 C27_4 1_555 1_555
C27_4 C22_4 1_555 1_555
C28_4 C25_4 1_555 1_555
C29_4 C10_4 1_555 1_555
C30_4 C19_4 1_555 1_555
H21_4 C23_4 1_555 1_555
H22_4 C24_4 1_555 1_555
H23_4 C26_4 1_555 1_555
H24_4 C27_4 1_555 1_555
H25_4 C30_4 1_555 1_555
H26_4 C30_4 1_555 1_555
H27_4 C21_4 1_555 1_555
H28_4 C21_4 1_555 1_555
H29_4 C29_4 1_555 1_555
H30_4 C29_4 1_555 1_555
N3_4 Zn1_4 1_555 1_555
O6_4 C28_4 1_555 1_555
O9_4 Zn1_4 1_555 1_555
O10_4 Zn1_4 1_555 1_555
O11_4 Zn1_4 1_555 1_555
Zn4_2 O4_4 1_555 1_555
Zn3_2 O2_4 1_555 1_555
C9_4 N1_4 1_555 1_555
C10_4 N1_4 1_555 1_555
C11_4 N2_4 1_555 1_555
C19_4 N2_4 1_555 1_555
C20_4 N2_4 1_555 1_555
C21_4 N3_4 1_555 1_555
C29_4 N3_4 1_555 1_555
C30_4 N3_4 1_555 1_555
C1_5 C2_5 1_555 1_555
C2_5 C3_5 1_555 1_555
C3_5 C4_5 1_555 1_555
C4_5 C5_5 1_555 1_555
C5_5 C6_5 1_555 1_555
C6_5 C7_5 1_555 1_555
C7_5 C2_5 1_555 1_555
C8_5 C5_5 1_555 1_555
C9_5 H9_5 1_555 1_555
C10_5 H5_5 1_555 1_555
H1_5 C3_5 1_555 1_555
H2_5 C4_5 1_555 1_555
H3_5 C6_5 1_555 1_555
H4_5 C7_5 1_555 1_555
H6_5 C10_5 1_555 1_555
H7_5 C1_5 1_555 1_555
H8_5 C1_5 1_555 1_555
H10_5 C9_5 1_555 1_555
N1_5 C1_5 1_555 1_555
O1_5 C8_5 1_555 1_555
O2_5 C8_5 1_555 1_555
Zn1_5 N1_5 1_555 1_555
Zn2_4 O1_5 1_555 1_555
C11_5 C12_5 1_555 1_555
C12_5 C13_5 1_555 1_555
C13_5 C14_5 1_555 1_555
C14_5 C15_5 1_555 1_555
C15_5 C16_5 1_555 1_555
C16_5 C17_5 1_555 1_555
C17_5 C12_5 1_555 1_555
C18_5 C15_5 1_555 1_555
C19_5 H19_5 1_555 1_555
C20_5 C9_5 1_555 1_555
H11_5 C13_5 1_555 1_555
H12_5 C14_5 1_555 1_555
H13_5 C16_5 1_555 1_555
H14_5 C17_5 1_555 1_555
H15_5 C20_5 1_555 1_555
H16_5 C20_5 1_555 1_555
H17_5 C11_5 1_555 1_555
H18_5 C11_5 1_555 1_555
H20_5 C19_5 1_555 1_555
N2_5 Zn1_5 1_555 1_555
O4_5 C18_5 1_555 1_555
C21_5 C22_5 1_555 1_555
C22_5 C23_5 1_555 1_555
C23_5 C24_5 1_555 1_555
C24_5 C25_5 1_555 1_555
C25_5 C26_5 1_555 1_555
C26_5 C27_5 1_555 1_555
C27_5 C22_5 1_555 1_555
C28_5 C25_5 1_555 1_555
C29_5 C10_5 1_555 1_555
C30_5 C19_5 1_555 1_555
H21_5 C23_5 1_555 1_555
H22_5 C24_5 1_555 1_555
H23_5 C26_5 1_555 1_555
H24_5 C27_5 1_555 1_555
H25_5 C30_5 1_555 1_555
H26_5 C30_5 1_555 1_555
H27_5 C21_5 1_555 1_555
H28_5 C21_5 1_555 1_555
H29_5 C29_5 1_555 1_555
H30_5 C29_5 1_555 1_555
N3_5 Zn1_5 1_555 1_555
O6_5 C28_5 1_555 1_555
O7_4 Zn2_4 1_555 1_555
O8_4 Zn2_4 1_555 1_555
O9_5 Zn1_5 1_555 1_555
O10_5 Zn1_5 1_555 1_555
O11_5 Zn1_5 1_555 1_555
Zn4_4 O2_5 1_555 1_555
C9_5 N1_5 1_555 1_555
C10_5 N1_5 1_555 1_555
C11_5 N2_5 1_555 1_555
C19_5 N2_5 1_555 1_555
C20_5 N2_5 1_555 1_555
C21_5 N3_5 1_555 1_555
C29_5 N3_5 1_555 1_555
C30_5 N3_5 1_555 1_555
C1_6 C2_6 1_555 1_555
C2_6 C3_6 1_555 1_555
C3_6 C4_6 1_555 1_555
C4_6 C5_6 1_555 1_555
C5_6 C6_6 1_555 1_555
C6_6 C7_6 1_555 1_555
C7_6 C2_6 1_555 1_555
C8_6 C5_6 1_555 1_555
C9_6 H9_6 1_555 1_555
C10_6 H5_6 1_555 1_555
H1_6 C3_6 1_555 1_555
H2_6 C4_6 1_555 1_555
H3_6 C6_6 1_555 1_555
H4_6 C7_6 1_555 1_555
H6_6 C10_6 1_555 1_555
H7_6 C1_6 1_555 1_555
H8_6 C1_6 1_555 1_555
H10_6 C9_6 1_555 1_555
N1_6 C1_6 1_555 1_555
O1_6 C8_6 1_555 1_555
O2_6 C8_6 1_555 1_555
Zn1_6 N1_6 1_555 1_555
Zn6 O1_6 1_555 1_555
C11_6 C12_6 1_555 1_555
C12_6 C13_6 1_555 1_555
C13_6 C14_6 1_555 1_555
C14_6 C15_6 1_555 1_555
C15_6 C16_6 1_555 1_555
C16_6 C17_6 1_555 1_555
C17_6 C12_6 1_555 1_555
C18_6 C15_6 1_555 1_555
C19_6 H19_6 1_555 1_555
C20_6 C9_6 1_555 1_555
H11_6 C13_6 1_555 1_555
H12_6 C14_6 1_555 1_555
H13_6 C16_6 1_555 1_555
H14_6 C17_6 1_555 1_555
H15_6 C20_6 1_555 1_555
H16_6 C20_6 1_555 1_555
H17_6 C11_6 1_555 1_555
H18_6 C11_6 1_555 1_555
H20_6 C19_6 1_555 1_555
N2_6 Zn1_6 1_555 1_555
O4_6 C18_6 1_555 1_555
C21_6 C22_6 1_555 1_555
C22_6 C23_6 1_555 1_555
C23_6 C24_6 1_555 1_555
C24_6 C25_6 1_555 1_555
C25_6 C26_6 1_555 1_555
C26_6 C27_6 1_555 1_555
C27_6 C22_6 1_555 1_555
C28_6 C25_6 1_555 1_555
C29_6 C10_6 1_555 1_555
C30_6 C19_6 1_555 1_555
H21_6 C23_6 1_555 1_555
H22_6 C24_6 1_555 1_555
H23_6 C26_6 1_555 1_555
H24_6 C27_6 1_555 1_555
H25_6 C30_6 1_555 1_555
H26_6 C30_6 1_555 1_555
H27_6 C21_6 1_555 1_555
H28_6 C21_6 1_555 1_555
H29_6 C29_6 1_555 1_555
H30_6 C29_6 1_555 1_555
N3_6 Zn1_6 1_555 1_555
O6_6 C28_6 1_555 1_555
O7_5 Zn6 1_555 1_555
O9_6 Zn1_6 1_555 1_555
O10_6 Zn1_6 1_555 1_555
O11_6 Zn1_6 1_555 1_555
Zn3 O2_6 1_555 1_555
C9_6 N1_6 1_555 1_555
C10_6 N1_6 1_555 1_555
C11_6 N2_6 1_555 1_555
C19_6 N2_6 1_555 1_555
C20_6 N2_6 1_555 1_555
C21_6 N3_6 1_555 1_555
C29_6 N3_6 1_555 1_555
C30_6 N3_6 1_555 1_555
Zn7_2 O5_6 1_555 1_555
C1_7 C2_7 1_555 1_555
C2_7 C3_7 1_555 1_555
C3_7 C4_7 1_555 1_555
C4_7 C5_7 1_555 1_555
C5_7 C6_7 1_555 1_555
C6_7 C7_7 1_555 1_555
C7_7 C2_7 1_555 1_555
C8_7 C5_7 1_555 1_555
C9_7 H9_7 1_555 1_555
C10_7 H5_7 1_555 1_555
H1_7 C3_7 1_555 1_555
H2_7 C4_7 1_555 1_555
H3_7 C6_7 1_555 1_555
H4_7 C7_7 1_555 1_555
H6_7 C10_7 1_555 1_555
H7_7 C1_7 1_555 1_555
H8_7 C1_7 1_555 1_555
H10_7 C9_7 1_555 1_555
N1_7 C1_7 1_555 1_555
O7_3 C8_7 1_555 1_555
O2_7 C8_7 1_555 1_555
Zn1_7 N1_7 1_555 1_555
C11_7 C12_7 1_555 1_555
C12_7 C13_7 1_555 1_555
C13_7 C14_7 1_555 1_555
C14_7 C15_7 1_555 1_555
C15_7 C16_7 1_555 1_555
C16_7 C17_7 1_555 1_555
C17_7 C12_7 1_555 1_555
C18_7 C15_7 1_555 1_555
C19_7 H19_7 1_555 1_555
C20_7 C9_7 1_555 1_555
H11_7 C13_7 1_555 1_555
H12_7 C14_7 1_555 1_555
H13_7 C16_7 1_555 1_555
H14_7 C17_7 1_555 1_555
H15_7 C20_7 1_555 1_555
H16_7 C20_7 1_555 1_555
H17_7 C11_7 1_555 1_555
H18_7 C11_7 1_555 1_555
H20_7 C19_7 1_555 1_555
N2_7 Zn1_7 1_555 1_555
O8_2 C18_7 1_555 1_555
O4_7 C18_7 1_555 1_555
C21_7 C22_7 1_555 1_555
C22_7 C23_7 1_555 1_555
C23_7 C24_7 1_555 1_555
C24_7 C25_7 1_555 1_555
C25_7 C26_7 1_555 1_555
C26_7 C27_7 1_555 1_555
C27_7 C22_7 1_555 1_555
C28_7 C25_7 1_555 1_555
C29_7 C10_7 1_555 1_555
C30_7 C19_7 1_555 1_555
H21_7 C23_7 1_555 1_555
H22_7 C24_7 1_555 1_555
H23_7 C26_7 1_555 1_555
H24_7 C27_7 1_555 1_555
H25_7 C30_7 1_555 1_555
H26_7 C30_7 1_555 1_555
H27_7 C21_7 1_555 1_555
H28_7 C21_7 1_555 1_555
H29_7 C29_7 1_555 1_555
H30_7 C29_7 1_555 1_555
N3_7 Zn1_7 1_555 1_555
O6_7 C28_7 1_555 1_555
O9_7 Zn1_7 1_555 1_555
O10_7 Zn1_7 1_555 1_555
O11_7 Zn1_7 1_555 1_555
Zn4_2 O4_7 1_555 1_555
Zn4_3 O2_7 1_555 1_555
C9_7 N1_7 1_555 1_555
C10_7 N1_7 1_555 1_555
C11_7 N2_7 1_555 1_555
C19_7 N2_7 1_555 1_555
C20_7 N2_7 1_555 1_555
C21_7 N3_7 1_555 1_555
C29_7 N3_7 1_555 1_555
C30_7 N3_7 1_555 1_555
C1_8 C2_8 1_555 1_555
C2_8 C3_8 1_555 1_555
C3_8 C4_8 1_555 1_555
C4_8 C5_8 1_555 1_555
C5_8 C6_8 1_555 1_555
C6_8 C7_8 1_555 1_555
C7_8 C2_8 1_555 1_555
C8_8 C5_8 1_555 1_555
C9_8 H9_8 1_555 1_555
C10_8 H5_8 1_555 1_555
H1_8 C3_8 1_555 1_555
H2_8 C4_8 1_555 1_555
H3_8 C6_8 1_555 1_555
H4_8 C7_8 1_555 1_555
H6_8 C10_8 1_555 1_555
H7_8 C1_8 1_555 1_555
H8_8 C1_8 1_555 1_555
N1_8 C1_8 1_555 1_555
O1_7 C8_8 1_555 1_555
O9_4 C8_8 1_555 1_555
Zn2_5 O1_7 1_555 1_555
C21_8 C22_8 1_555 1_555
C22_8 C23_8 1_555 1_555
C23_8 C24_8 1_555 1_555
C24_8 C25_8 1_555 1_555
C25_8 C26_8 1_555 1_555
C26_8 C27_8 1_555 1_555
C27_8 C22_8 1_555 1_555
C28_8 C25_8 1_555 1_555
C29_8 C10_8 1_555 1_555
H21_8 C23_8 1_555 1_555
H22_8 C24_8 1_555 1_555
H23_8 C26_8 1_555 1_555
H24_8 C27_8 1_555 1_555
H25_8 C30_8 1_555 1_555
H26_8 C30_8 1_555 1_555
H27_8 C21_8 1_555 1_555
H28_8 C21_8 1_555 1_555
H29_8 C29_8 1_555 1_555
H30_8 C29_8 1_555 1_555
O5_7 C28_8 1_555 1_555
O11_3 C28_8 1_555 1_555
O7_6 Zn2_5 1_555 1_555
O8_5 Zn2_5 1_555 1_555
Zn7_3 O5_7 1_555 1_555
C9_8 N1_8 1_555 1_555
C10_8 N1_8 1_555 1_555
C21_8 N3_8 1_555 1_555
C29_8 N3_8 1_555 1_555
C30_8 N3_8 1_555 1_555
C11_8 C12_8 1_555 1_555
C12_8 C13_8 1_555 1_555
C13_8 C14_8 1_555 1_555
C14_8 C15_8 1_555 1_555
C15_8 C16_8 1_555 1_555
C16_8 C17_8 1_555 1_555
C17_8 C12_8 1_555 1_555
C18_8 C15_8 1_555 1_555
C19_8 H19_8 1_555 1_555
H11_8 C13_8 1_555 1_555
H12_8 C14_8 1_555 1_555
H13_8 C16_8 1_555 1_555
H14_8 C17_8 1_555 1_555
H15_8 C20_8 1_555 1_555
H17_8 C11_8 1_555 1_555
H18_8 C11_8 1_555 1_555
H20_8 C19_8 1_555 1_555
N2_8 Zn3 1_555 1_555
O3_4 C18_8 1_555 1_555
O11_7 C18_8 1_555 1_555
O9_8 Zn3 1_555 1_555
Zn6_3 O3_4 1_555 1_555
C11_8 N2_8 1_555 1_555
C19_8 N2_8 1_555 1_555
C20_8 N2_8 1_555 1_555
C11_9 C12_9 1_555 1_555
C12_9 C13_9 1_555 1_555
C13_9 C14_9 1_555 1_555
C14_9 C15_9 1_555 1_555
C15_9 C16_9 1_555 1_555
C16_9 C17_9 1_555 1_555
C17_9 C12_9 1_555 1_555
C18_9 C15_9 1_555 1_555
C19_9 H19_9 1_555 1_555
H11_9 C13_9 1_555 1_555
H12_9 C14_9 1_555 1_555
H13_9 C16_9 1_555 1_555
H14_9 C17_9 1_555 1_555
H15_9 C20_9 1_555 1_555
H17_9 C11_9 1_555 1_555
H18_9 C11_9 1_555 1_555
H20_9 C19_9 1_555 1_555
O3_5 C18_9 1_555 1_555
O11_5 C18_9 1_555 1_555
Zn6_4 O3_5 1_555 1_555
C11_9 N2_9 1_555 1_555
C19_9 N2_9 1_555 1_555
C20_9 N2_9 1_555 1_555
C21_9 C22_9 1_555 1_555
C22_9 C23_9 1_555 1_555
C23_9 C24_9 1_555 1_555
C24_9 C25_9 1_555 1_555
C25_9 C26_9 1_555 1_555
C26_9 C27_9 1_555 1_555
C27_9 C22_9 1_555 1_555
C28_9 C25_9 1_555 1_555
H21_9 C23_9 1_555 1_555
H22_9 C24_9 1_555 1_555
H23_9 C26_9 1_555 1_555
H24_9 C27_9 1_555 1_555
H25_9 C30_9 1_555 1_555
H26_9 C30_9 1_555 1_555
H27_9 C21_9 1_555 1_555
H28_9 C21_9 1_555 1_555
H29_9 C29_9 1_555 1_555
O5_8 C28_9 1_555 1_555
O10_6 C28_9 1_555 1_555
Zn7_4 O5_8 1_555 1_555
C21_9 N3_9 1_555 1_555
C29_9 N3_9 1_555 1_555
C30_9 N3_9 1_555 1_555
C1_9 C2_9 1_555 1_555
C2_9 C3_9 1_555 1_555
C3_9 C4_9 1_555 1_555
C4_9 C5_9 1_555 1_555
C5_9 C6_9 1_555 1_555
C6_9 C7_9 1_555 1_555
C7_9 C2_9 1_555 1_555
C8_9 C5_9 1_555 1_555
C9_9 H9_9 1_555 1_555
C10_9 H5_9 1_555 1_555
H1_9 C3_9 1_555 1_555
H2_9 C4_9 1_555 1_555
H3_9 C6_9 1_555 1_555
H4_9 C7_9 1_555 1_555
H7_9 C1_9 1_555 1_555
H8_9 C1_9 1_555 1_555
N1_9 C1_9 1_555 1_555
O1_8 C8_9 1_555 1_555
O2_8 C8_9 1_555 1_555
Zn2_6 O1_8 1_555 1_555
O7_7 Zn2_6 1_555 1_555
O8_6 Zn2_6 1_555 1_555
Zn4_5 O2_8 1_555 1_555
C9_9 N1_9 1_555 1_555
C10_9 N1_9 1_555 1_555
C1_10 C2_10 1_555 1_555
C2_10 C3_10 1_555 1_555
C3_10 C4_10 1_555 1_555
C4_10 C5_10 1_555 1_555
C5_10 C6_10 1_555 1_555
C6_10 C7_10 1_555 1_555
C7_10 C2_10 1_555 1_555
C8_10 C5_10 1_555 1_555
C9_10 H9_10 1_555 1_555
C10_10 H5_10 1_555 1_555
H1_10 C3_10 1_555 1_555
H2_10 C4_10 1_555 1_555
H3_10 C6_10 1_555 1_555
H4_10 C7_10 1_555 1_555
H6_10 C10_10 1_555 1_555
H7_10 C1_10 1_555 1_555
H8_10 C1_10 1_555 1_555
H10_10 C9_10 1_555 1_555
N1_10 C1_10 1_555 1_555
O1_9 C8_10 1_555 1_555
O9 C8_10 1_555 1_555
Zn4_2 N1_10 1_555 1_555
Zn2_7 O1_9 1_555 1_555
C11_10 C12_10 1_555 1_555
C12_10 C13_10 1_555 1_555
C13_10 C14_10 1_555 1_555
C14_10 C15_10 1_555 1_555
C15_10 C16_10 1_555 1_555
C16_10 C17_10 1_555 1_555
C17_10 C12_10 1_555 1_555
C18_10 C15_10 1_555 1_555
C19_10 H19_10 1_555 1_555
C20_10 C9_10 1_555 1_555
H11_10 C13_10 1_555 1_555
H12_10 C14_10 1_555 1_555
H13_10 C16_10 1_555 1_555
H14_10 C17_10 1_555 1_555
H15_10 C20_10 1_555 1_555
H16_10 C20_10 1_555 1_555
H17_10 C11_10 1_555 1_555
H18_10 C11_10 1_555 1_555
H20_10 C19_10 1_555 1_555
N2_10 Zn4_2 1_555 1_555
O3_6 C18_10 1_555 1_555
O9_6 C18_10 1_555 1_555
C21_10 C22_10 1_555 1_555
C22_10 C23_10 1_555 1_555
C23_10 C24_10 1_555 1_555
C24_10 C25_10 1_555 1_555
C25_10 C26_10 1_555 1_555
C26_10 C27_10 1_555 1_555
C27_10 C22_10 1_555 1_555
C28_10 C25_10 1_555 1_555
C29_10 C10_10 1_555 1_555
C30_10 C19_10 1_555 1_555
H21_10 C23_10 1_555 1_555
H22_10 C24_10 1_555 1_555
H23_10 C26_10 1_555 1_555
H24_10 C27_10 1_555 1_555
H25_10 C30_10 1_555 1_555
H26_10 C30_10 1_555 1_555
H27_10 C21_10 1_555 1_555
H28_10 C21_10 1_555 1_555
H29_10 C29_10 1_555 1_555
H30_10 C29_10 1_555 1_555
N3_10 Zn4_2 1_555 1_555
O5_9 C28_10 1_555 1_555
O9_5 C28_10 1_555 1_555
O7_8 Zn2_7 1_555 1_555
O8_7 Zn2_7 1_555 1_555
Zn7_4 O3_6 1_555 1_555
Zn6_4 O5_9 1_555 1_555
C9_10 N1_10 1_555 1_555
C10_10 N1_10 1_555 1_555
C11_10 N2_10 1_555 1_555
C19_10 N2_10 1_555 1_555
C20_10 N2_10 1_555 1_555
C21_10 N3_10 1_555 1_555
C29_10 N3_10 1_555 1_555
C30_10 N3_10 1_555 1_555
C21_11 C22_11 1_555 1_555
C22_11 C23_11 1_555 1_555
C23_11 C24_11 1_555 1_555
C24_11 C25_11 1_555 1_555
C25_11 C26_11 1_555 1_555
C26_11 C27_11 1_555 1_555
C27_11 C22_11 1_555 1_555
C28_11 C25_11 1_555 1_555
H21_11 C23_11 1_555 1_555
H22_11 C24_11 1_555 1_555
H23_11 C26_11 1_555 1_555
H24_11 C27_11 1_555 1_555
H25_11 C30_11 1_555 1_555
H27_11 C21_11 1_555 1_555
H28_11 C21_11 1_555 1_555
H29_11 C29_11 1_555 1_555
H30_11 C29_11 1_555 1_555
O8_7 C28_11 1_555 1_555
O11 C28_11 1_555 1_555
C21_11 N3_11 1_555 1_555
C29_11 N3_11 1_555 1_555
C30_11 N3_11 1_555 1_555
C1_11 C2_11 1_555 1_555
C2_11 C3_11 1_555 1_555
C3_11 C4_11 1_555 1_555
C4_11 C5_11 1_555 1_555
C5_11 C6_11 1_555 1_555
C6_11 C7_11 1_555 1_555
C7_11 C2_11 1_555 1_555
C8_11 C5_11 1_555 1_555
C9_11 H9_11 1_555 1_555
C10_11 H5_11 1_555 1_555
H1_11 C3_11 1_555 1_555
H2_11 C4_11 1_555 1_555
H3_11 C6_11 1_555 1_555
H4_11 C7_11 1_555 1_555
H6_11 C10_11 1_555 1_555
H7_11 C1_11 1_555 1_555
H8_11 C1_11 1_555 1_555
N1_11 C1_11 1_555 1_555
O1_10 C8_11 1_555 1_555
O10_5 C8_11 1_555 1_555
Zn6_4 O1_10 1_555 1_555
C9_11 N1_11 1_555 1_555
C10_11 N1_11 1_555 1_555
C11_11 C12_11 1_555 1_555
C12_11 C13_11 1_555 1_555
C13_11 C14_11 1_555 1_555
C14_11 C15_11 1_555 1_555
C15_11 C16_11 1_555 1_555
C16_11 C17_11 1_555 1_555
C17_11 C12_11 1_555 1_555
C18_11 C15_11 1_555 1_555
C19_11 H19_11 1_555 1_555
H11_11 C13_11 1_555 1_555
H12_11 C14_11 1_555 1_555
H13_11 C16_11 1_555 1_555
H14_11 C17_11 1_555 1_555
H15_11 C20_11 1_555 1_555
H17_11 C11_11 1_555 1_555
H18_11 C11_11 1_555 1_555
O7_7 C18_11 1_555 1_555
O4_8 C18_11 1_555 1_555
Zn4_5 O4_8 1_555 1_555
C11_11 N2_11 1_555 1_555
C19_11 N2_11 1_555 1_555
C20_11 N2_11 1_555 1_555
C1_12 C2_12 1_555 1_555
C2_12 C3_12 1_555 1_555
C3_12 C4_12 1_555 1_555
C4_12 C5_12 1_555 1_555
C5_12 C6_12 1_555 1_555
C6_12 C7_12 1_555 1_555
C7_12 C2_12 1_555 1_555
C8_12 C5_12 1_555 1_555
C9_12 H9_12 1_555 1_555
C10_12 H5_12 1_555 1_555
H1_12 C3_12 1_555 1_555
H2_12 C4_12 1_555 1_555
H3_12 C6_12 1_555 1_555
H4_12 C7_12 1_555 1_555
H6_12 C10_12 1_555 1_555
H7_12 C1_12 1_555 1_555
H8_12 C1_12 1_555 1_555
N1_12 C1_12 1_555 1_555
O1_11 C8_12 1_555 1_555
O10_2 C8_12 1_555 1_555
Zn2_8 O1_11 1_555 1_555
C21_12 C22_12 1_555 1_555
C22_12 C23_12 1_555 1_555
C23_12 C24_12 1_555 1_555
C24_12 C25_12 1_555 1_555
C25_12 C26_12 1_555 1_555
C26_12 C27_12 1_555 1_555
C27_12 C22_12 1_555 1_555
C28_12 C25_12 1_555 1_555
C29_12 C10_12 1_555 1_555
H21_12 C23_12 1_555 1_555
H22_12 C24_12 1_555 1_555
H23_12 C26_12 1_555 1_555
H24_12 C27_12 1_555 1_555
H25_12 C30_12 1_555 1_555
H26_12 C30_12 1_555 1_555
H27_12 C21_12 1_555 1_555
H28_12 C21_12 1_555 1_555
H29_12 C29_12 1_555 1_555
H30_12 C29_12 1_555 1_555
O5_10 C28_12 1_555 1_555
O9_3 C28_12 1_555 1_555
O7_9 Zn2_8 1_555 1_555
O8_8 Zn2_8 1_555 1_555
Zn7_3 O5_10 1_555 1_555
C9_12 N1_12 1_555 1_555
C10_12 N1_12 1_555 1_555
C21_12 N3_12 1_555 1_555
C29_12 N3_12 1_555 1_555
C30_12 N3_12 1_555 1_555
C11_12 C12_12 1_555 1_555
C12_12 C13_12 1_555 1_555
C13_12 C14_12 1_555 1_555
C14_12 C15_12 1_555 1_555
C15_12 C16_12 1_555 1_555
C16_12 C17_12 1_555 1_555
C17_12 C12_12 1_555 1_555
C18_12 C15_12 1_555 1_555
C19_12 H19_12 1_555 1_555
H11_12 C13_12 1_555 1_555
H12_12 C14_12 1_555 1_555
H13_12 C16_12 1_555 1_555
H14_12 C17_12 1_555 1_555
H15_12 C20_12 1_555 1_555
H17_12 C11_12 1_555 1_555
H18_12 C11_12 1_555 1_555
H20_12 C19_12 1_555 1_555
N2_12 Zn4_4 1_555 1_555
O8_5 C18_12 1_555 1_555
O11_4 C18_12 1_555 1_555
O9_9 Zn4_4 1_555 1_555
C11_12 N2_12 1_555 1_555
C19_12 N2_12 1_555 1_555
C20_12 N2_12 1_555 1_555
C1_13 C2_13 1_555 1_555
C2_13 C3_13 1_555 1_555
C3_13 C4_13 1_555 1_555
C4_13 C5_13 1_555 1_555
C5_13 C6_13 1_555 1_555
C6_13 C7_13 1_555 1_555
C7_13 C2_13 1_555 1_555
C8_13 C5_13 1_555 1_555
C9_13 H9_13 1_555 1_555
C10_13 H5_13 1_555 1_555
H1_13 C3_13 1_555 1_555
H2_13 C4_13 1_555 1_555
H3_13 C6_13 1_555 1_555
H4_13 C7_13 1_555 1_555
H6_13 C10_13 1_555 1_555
H7_13 C1_13 1_555 1_555
H8_13 C1_13 1_555 1_555
N1_13 C1_13 1_555 1_555
O1_12 C8_13 1_555 1_555
O9_7 C8_13 1_555 1_555
Zn6_3 O1_12 1_555 1_555
C21_13 C22_13 1_555 1_555
C22_13 C23_13 1_555 1_555
C23_13 C24_13 1_555 1_555
C24_13 C25_13 1_555 1_555
C25_13 C26_13 1_555 1_555
C26_13 C27_13 1_555 1_555
C27_13 C22_13 1_555 1_555
C28_13 C25_13 1_555 1_555
C29_13 C10_13 1_555 1_555
H21_13 C23_13 1_555 1_555
H22_13 C24_13 1_555 1_555
H23_13 C26_13 1_555 1_555
H24_13 C27_13 1_555 1_555
H25_13 C30_13 1_555 1_555
H26_13 C30_13 1_555 1_555
H27_13 C21_13 1_555 1_555
H28_13 C21_13 1_555 1_555
H29_13 C29_13 1_555 1_555
H30_13 C29_13 1_555 1_555
O5_11 C28_13 1_555 1_555
O10_3 C28_13 1_555 1_555
O7_10 Zn6_3 1_555 1_555
Zn7_3 O5_11 1_555 1_555
C9_13 N1_13 1_555 1_555
C10_13 N1_13 1_555 1_555
C21_13 N3_13 1_555 1_555
C29_13 N3_13 1_555 1_555
C30_13 N3_13 1_555 1_555
C11_13 C12_13 1_555 1_555
C12_13 C13_13 1_555 1_555
C13_13 C14_13 1_555 1_555
C14_13 C15_13 1_555 1_555
C15_13 C16_13 1_555 1_555
C16_13 C17_13 1_555 1_555
C17_13 C12_13 1_555 1_555
C18_13 C15_13 1_555 1_555
C19_13 H19_13 1_555 1_555
H11_13 C13_13 1_555 1_555
H12_13 C14_13 1_555 1_555
H13_13 C16_13 1_555 1_555
H14_13 C17_13 1_555 1_555
H15_13 C20_13 1_555 1_555
H17_13 C11_13 1_555 1_555
H18_13 C11_13 1_555 1_555
H20_13 C19_13 1_555 1_555
N2_13 Zn4 1_555 1_555
O8_8 C18_13 1_555 1_555
O9_2 C18_13 1_555 1_555
O9_10 Zn4 1_555 1_555
C11_13 N2_13 1_555 1_555
C19_13 N2_13 1_555 1_555
C20_13 N2_13 1_555 1_555
C21_14 C22_14 1_555 1_555
C22_14 C23_14 1_555 1_555
C23_14 C24_14 1_555 1_555
C24_14 C25_14 1_555 1_555
C25_14 C26_14 1_555 1_555
C26_14 C27_14 1_555 1_555
C27_14 C22_14 1_555 1_555
C28_14 C25_14 1_555 1_555
H21_14 C23_14 1_555 1_555
H22_14 C24_14 1_555 1_555
H23_14 C26_14 1_555 1_555
H24_14 C27_14 1_555 1_555
H25_14 C30_14 1_555 1_555
H27_14 C21_14 1_555 1_555
H28_14 C21_14 1_555 1_555
H29_14 C29_14 1_555 1_555
H30_14 C29_14 1_555 1_555
O5_12 C28_14 1_555 1_555
O11_6 C28_14 1_555 1_555
Zn7_4 O5_12 1_555 1_555
C21_14 N3_14 1_555 1_555
C29_14 N3_14 1_555 1_555
C30_14 N3_14 1_555 1_555
C1_14 C2_14 1_555 1_555
C2_14 C3_14 1_555 1_555
C3_14 C4_14 1_555 1_555
C4_14 C5_14 1_555 1_555
C5_14 C6_14 1_555 1_555
C6_14 C7_14 1_555 1_555
C7_14 C2_14 1_555 1_555
C8_14 C5_14 1_555 1_555
C9_14 H9_14 1_555 1_555
C10_14 H5_14 1_555 1_555
H1_14 C3_14 1_555 1_555
H2_14 C4_14 1_555 1_555
H3_14 C6_14 1_555 1_555
H4_14 C7_14 1_555 1_555
H6_14 C10_14 1_555 1_555
H7_14 C1_14 1_555 1_555
H8_14 C1_14 1_555 1_555
N1_14 C1_14 1_555 1_555
O7_8 C8_14 1_555 1_555
O10 C8_14 1_555 1_555
C9_14 N1_14 1_555 1_555
C10_14 N1_14 1_555 1_555
C11_14 C12_14 1_555 1_555
C12_14 C13_14 1_555 1_555
C13_14 C14_14 1_555 1_555
C14_14 C15_14 1_555 1_555
C15_14 C16_14 1_555 1_555
C16_14 C17_14 1_555 1_555
C17_14 C12_14 1_555 1_555
C18_14 C15_14 1_555 1_555
C19_14 H19_14 1_555 1_555
H11_14 C13_14 1_555 1_555
H12_14 C14_14 1_555 1_555
H13_14 C16_14 1_555 1_555
H14_14 C17_14 1_555 1_555
H15_14 C20_14 1_555 1_555
H17_14 C11_14 1_555 1_555
H18_14 C11_14 1_555 1_555
O8_6 C18_14 1_555 1_555
O4_9 C18_14 1_555 1_555
Zn4_5 O4_9 1_555 1_555
C11_14 N2_14 1_555 1_555
C19_14 N2_14 1_555 1_555
C20_14 N2_14 1_555 1_555
C1_15 C2_15 1_555 1_555
C2_15 C3_15 1_555 1_555
C3_15 C4_15 1_555 1_555
C4_15 C5_15 1_555 1_555
C5_15 C6_15 1_555 1_555
C6_15 C7_15 1_555 1_555
C7_15 C2_15 1_555 1_555
C8_15 C5_15 1_555 1_555
C9_15 H9_15 1_555 1_555
C10_15 H5_15 1_555 1_555
H1_15 C3_15 1_555 1_555
H2_15 C4_15 1_555 1_555
H3_15 C6_15 1_555 1_555
H4_15 C7_15 1_555 1_555
H6_15 C10_15 1_555 1_555
H7_15 C1_15 1_555 1_555
H8_15 C1_15 1_555 1_555
H10_15 C9_15 1_555 1_555
N1_15 C1_15 1_555 1_555
O7_5 C8_15 1_555 1_555
O9_8 C8_15 1_555 1_555
Zn4_5 N1_15 1_555 1_555
C11_15 C12_15 1_555 1_555
C12_15 C13_15 1_555 1_555
C13_15 C14_15 1_555 1_555
C14_15 C15_15 1_555 1_555
C15_15 C16_15 1_555 1_555
C16_15 C17_15 1_555 1_555
C17_15 C12_15 1_555 1_555
C18_15 C15_15 1_555 1_555
C19_15 H19_15 1_555 1_555
C20_15 C9_15 1_555 1_555
H11_15 C13_15 1_555 1_555
H12_15 C14_15 1_555 1_555
H13_15 C16_15 1_555 1_555
H14_15 C17_15 1_555 1_555
H15_15 C20_15 1_555 1_555
H16_15 C20_15 1_555 1_555
H17_15 C11_15 1_555 1_555
H18_15 C11_15 1_555 1_555
H20_15 C19_15 1_555 1_555
N2_15 Zn4_5 1_555 1_555
O7 C18_15 1_555 1_555
O9_10 C18_15 1_555 1_555
C21_15 C22_15 1_555 1_555
C22_15 C23_15 1_555 1_555
C23_15 C24_15 1_555 1_555
C24_15 C25_15 1_555 1_555
C25_15 C26_15 1_555 1_555
C26_15 C27_15 1_555 1_555
C27_15 C22_15 1_555 1_555
C28_15 C25_15 1_555 1_555
C29_15 C10_15 1_555 1_555
C30_15 C19_15 1_555 1_555
H21_15 C23_15 1_555 1_555
H22_15 C24_15 1_555 1_555
H23_15 C26_15 1_555 1_555
H24_15 C27_15 1_555 1_555
H25_15 C30_15 1_555 1_555
H26_15 C30_15 1_555 1_555
H27_15 C21_15 1_555 1_555
H28_15 C21_15 1_555 1_555
H29_15 C29_15 1_555 1_555
H30_15 C29_15 1_555 1_555
N3_15 Zn4_5 1_555 1_555
O7_4 C28_15 1_555 1_555
O9_9 C28_15 1_555 1_555
C9_15 N1_15 1_555 1_555
C10_15 N1_15 1_555 1_555
C11_15 N2_15 1_555 1_555
C19_15 N2_15 1_555 1_555
C20_15 N2_15 1_555 1_555
C21_15 N3_15 1_555 1_555
C29_15 N3_15 1_555 1_555
C30_15 N3_15 1_555 1_555
C11_16 C12_16 1_555 1_555
C12_16 C13_16 1_555 1_555
C13_16 C14_16 1_555 1_555
C14_16 C15_16 1_555 1_555
C15_16 C16_16 1_555 1_555
C16_16 C17_16 1_555 1_555
C17_16 C12_16 1_555 1_555
C18_16 C15_16 1_555 1_555
C19_16 H19_16 1_555 1_555
H11_16 C13_16 1_555 1_555
H12_16 C14_16 1_555 1_555
H13_16 C16_16 1_555 1_555
H14_16 C17_16 1_555 1_555
H15_16 C20_16 1_555 1_555
H17_16 C11_16 1_555 1_555
H18_16 C11_16 1_555 1_555
O7_6 C18_16 1_555 1_555
O10_4 C18_16 1_555 1_555
C11_16 N2_16 1_555 1_555
C19_16 N2_16 1_555 1_555
C20_16 N2_16 1_555 1_555
C1_16 C2_16 1_555 1_555
C2_16 C3_16 1_555 1_555
C3_16 C4_16 1_555 1_555
C4_16 C5_16 1_555 1_555
C5_16 C6_16 1_555 1_555
C6_16 C7_16 1_555 1_555
C7_16 C2_16 1_555 1_555
C8_16 C5_16 1_555 1_555
C9_16 H9_16 1_555 1_555
C10_16 H5_16 1_555 1_555
H1_16 C3_16 1_555 1_555
H2_16 C4_16 1_555 1_555
H3_16 C6_16 1_555 1_555
H4_16 C7_16 1_555 1_555
H7_16 C1_16 1_555 1_555
H8_16 C1_16 1_555 1_555
N1_16 C1_16 1_555 1_555
O7_10 C8_16 1_555 1_555
O10_7 C8_16 1_555 1_555
C9_16 N1_16 1_555 1_555
C10_16 N1_16 1_555 1_555
C21_16 C22_16 1_555 1_555
C22_16 C23_16 1_555 1_555
C23_16 C24_16 1_555 1_555
C24_16 C25_16 1_555 1_555
C25_16 C26_16 1_555 1_555
C26_16 C27_16 1_555 1_555
C27_16 C22_16 1_555 1_555
C28_16 C25_16 1_555 1_555
H21_16 C23_16 1_555 1_555
H22_16 C24_16 1_555 1_555
H23_16 C26_16 1_555 1_555
H24_16 C27_16 1_555 1_555
H25_16 C30_16 1_555 1_555
H27_16 C21_16 1_555 1_555
H28_16 C21_16 1_555 1_555
H29_16 C29_16 1_555 1_555
O7_9 C28_16 1_555 1_555
O11_2 C28_16 1_555 1_555
C21_16 N3_16 1_555 1_555
C29_16 N3_16 1_555 1_555
C30_16 N3_16 1_555 1_555

#END
