
###############################################################################
#
# This file contains modified crystal structure data generated from the
# MOF subset of the Cambridge Structural Database (CSD) v543 
# hosted by the Cambridge Crystallographic Data Centre (CCDC).
#
# This work is licensed under the Creative Commons
# Attribution-NonCommercial-ShareAlike 4.0 International License.
# To view a copy of this license, visit
# http://creativecommons.org/licenses/by-nc-sa/4.0/
# or send a letter to
# Creative Commons, PO Box 1866, Mountain View, CA 94042, USA.
#
# CIF created using the CSD Python API on 29 September 2022
# The structure has been converted into the P1 space group
# The structure has a 3D framework
# The original CSD entry OZOPEA is in the orthorhombic crystal system
# The original CSD entry OZOPEA is in a Sohncke space group
# The framework has been calculated to contain at least 10.0% void space
# The void calculation uses a probe of radius 1.32A, grid spacing 0.4
#
###############################################################################

data_OZOPEA
_chemical_formula_moiety         '(C160 H128 Co8 N16 O40)n'
_symmetry_cell_setting           triclinic
_symmetry_space_group_name_H-M   'P 1'
_symmetry_Int_Tables_number      1
_space_group_name_Hall           'P 1'
loop_
_symmetry_equiv_pos_site_id
_symmetry_equiv_pos_as_xyz
1 x,y,z
_cell_length_a                   23.7716(11)
_cell_length_b                   11.4208(7)
_cell_length_c                   16.2480(9)
_cell_angle_alpha                90
_cell_angle_beta                 90
_cell_angle_gamma                90
_cell_volume                     4411.18
loop_
_atom_site_label
_atom_site_type_symbol
_atom_site_fract_x
_atom_site_fract_y
_atom_site_fract_z
N2 N 0.19921(13) 0.6102(3) 0.3454(2)
C1 C 0.19980(16) 0.3636(3) 0.3446(3)
C7 C 0.24466(19) 0.0498(4) 0.3771(3)
H1 H 0.2754 0.0100 0.3989
C8 C 0.15834(19) 0.0480(4) 0.3169(3)
H2 H 0.1272 0.0065 0.2981
C11 C 0.2322(2) 0.5491(4) 0.3954(3)
H5 H 0.2557 0.5900 0.4311
C12 C 0.15708(19) 0.1692(4) 0.3119(3)
H6 H 0.1266 0.2068 0.2876
C14 C 0.1645(2) 0.4283(4) 0.2940(3)
H8 H 0.1396 0.3899 0.2591
C20 C 0.24537(19) 0.1719(4) 0.3773(3)
H13 H 0.2756 0.2117 0.4004
C21 C 0.2338(2) 0.4279(4) 0.3974(3)
H14 H 0.2575 0.3897 0.4341
C22 C 0.1659(2) 0.5485(4) 0.2951(3)
H15 H 0.1425 0.5890 0.2591
C34 C 0.20124(17) 0.2342(3) 0.3432(3)
Co3 Co 0.20114(2) 0.79836(4) 0.34700(3)
Co2 Co 0.30463(2) 0.71919(4) 0.15165(3)
O1 O 0.22212(10) 0.7124(3) 0.12264(18)
O2 O 0.28319(10) 0.8007(3) 0.38149(17)
N3 N 0.20186(13) 0.9875(3) 0.3471(2)
O3 O 0.18389(11) 0.8110(3) 0.22648(17)
O5 O 0.67471(11) 0.7046(3) 0.52277(19)
O7 O 0.32134(12) 0.7175(3) 0.27133(17)
O8 O 0.61083(11) 0.6998(3) 0.61978(19)
N4 N 0.30523(13) 0.5309(3) 0.1553(2)
C2 C 0.30686(17) 0.1551(3) 0.1523(3)
C3 C 0.32395(13) 0.7573(3) 0.3428(3)
C5 C 0.62451(16) 0.6991(4) 0.5456(3)
C6 C 0.18149(13) 0.7602(3) 0.1580(2)
C9 C 0.08126(19) 0.8205(6) 0.1450(4)
H3 H 0.0857 0.8657 0.1921
C15 C 0.58097(18) 0.6833(6) 0.4778(3)
H9 H 0.5882 0.7386 0.4330
C17 C 0.3482(2) 0.0893(4) 0.1899(3)
H11 H 0.3773 0.1264 0.2179
C18 C 0.3423(3) 0.3492(4) 0.2030(5)
H12 H 0.3683 0.3109 0.2361
C19 C 0.37906(15) 0.7515(4) 0.3855(2)
C23 C 0.3396(3) 0.4698(4) 0.2033(4)
H16 H 0.3631 0.5105 0.2391
O10 O 0.52770(13) 0.7072(6) 0.5145(2)
C24 C 0.26533(19) 0.0916(4) 0.1115(3)
H17 H 0.2368 0.1306 0.0836
C25 C 0.2709(2) 0.3490(4) 0.1048(4)
H18 H 0.2464 0.3108 0.0691
C26 C 0.30642(16) 0.2851(3) 0.1536(3)
C27 C 0.2711(2) 0.4688(4) 0.1082(3)
H19 H 0.2456 0.5091 0.0753
C28 C 0.47948(17) 0.7151(6) 0.3826(3)
H20 H 0.5123 0.7027 0.3528
C29 C 0.48107(18) 0.7225(7) 0.4661(3)
C30 C 0.12643(16) 0.7583(4) 0.1141(2)
C31 C 0.0672(2) 0.6867(7) 0.0047(4)
C32 C 0.38212(18) 0.7651(7) 0.4700(3)
H22 H 0.3502 0.7864 0.4995
C33 C 0.4328(2) 0.7468(8) 0.5108(3)
H23 H 0.4343 0.7508 0.5679
C35 C 0.11859(19) 0.6924(6) 0.0433(3)
H24 H 0.1488 0.6511 0.0214
C36 C 0.02264(18) 0.7471(6) 0.0356(3)
C37 C 0.42809(16) 0.7264(5) 0.3422(3)
H25 H 0.4265 0.7169 0.2854
C38 C 0.0291(2) 0.8158(7) 0.1058(4)
C39 C 0.5854(3) 0.5579(7) 0.4461(5)
H27 H 0.6218 0.5459 0.4221
H28 H 0.5802 0.5043 0.4910
H29 H 0.5568 0.5446 0.4053
Co4 Co 0.70114(2) 0.70164(4) 0.65300(3)
N5 N 0.30604(13) 0.9084(3) 0.1493(2)
O11 O 0.32862(11) 0.7127(3) 0.02180(18)
O12 O 0.17471(11) 0.7954(3) 0.47723(19)
O13 O 0.39462(11) 0.7239(3) 0.11584(19)
O14 O 0.11083(11) 0.8002(3) 0.38022(19)
C10 C 0.2665(2) 0.9722(4) 0.1126(3)
H4 H 0.2377 0.9327 0.0857
C13 C 0.34650(19) 0.9692(4) 0.1861(3)
H7 H 0.3756 0.9278 0.2109
O4 O 0.82862(11) 0.7873(3) 0.97820(18)
O6 O 0.89462(11) 0.7761(3) 0.88416(19)
C4 C 0.87939(16) 0.7796(4) 0.9575(3)
O9 O 0.97354(14) 0.7400(5) 0.9922(2)
Co6 Co 0.80463(2) 0.78081(4) 0.84835(3)
C5_2 C 0.12451(16) 0.8009(4) 0.4544(3)
C15_2 C 0.08097(18) 0.8167(6) 0.5222(3)
H9_2 H 0.0882 0.7614 0.5670
O10_2 O 0.02770(13) 0.7928(6) 0.4855(2)
H20_2 H 0.0123 0.7973 0.6472
C39_2 C 0.0854(3) 0.9421(7) 0.5539(5)
H27_2 H 0.1218 0.9541 0.5779
H28_2 H 0.0802 0.9957 0.5090
H29_2 H 0.0568 0.9554 0.5947
N1 N 0.80604(13) 0.5916(3) 0.8507(2)
C2_2 C 0.80686(17) 0.3449(3) 0.8477(3)
C10_2 C 0.7665(2) 0.5278(4) 0.8874(3)
H4_2 H 0.7377 0.5673 0.9143
C13_2 C 0.84650(19) 0.5308(4) 0.8139(3)
H7_2 H 0.8756 0.5722 0.7891
C17_2 C 0.8482(2) 0.4107(4) 0.8101(3)
H11_2 H 0.8773 0.3736 0.7821
C18_2 C 0.8423(3) 0.1508(4) 0.7970(5)
H12_2 H 0.8683 0.1891 0.7639
C23_2 C 0.8396(3) 0.0302(4) 0.7967(4)
C24_2 C 0.76533(19) 0.4084(4) 0.8885(3)
H17_2 H 0.7368 0.3694 0.9164
C25_2 C 0.7709(2) 0.1510(4) 0.8952(4)
H18_2 H 0.7464 0.1892 0.9309
C26_2 C 0.80642(16) 0.2149(3) 0.8464(3)
C27_2 C 0.7711(2) 0.0312(4) 0.8918(3)
C4_2 C 0.37939(16) 0.7204(4) 0.0425(3)
O9_2 O 0.47354(14) 0.7600(5) 0.0078(2)
H21 H 0.5629 0.8584 0.0425
O1_2 O 0.72212(10) 0.7876(3) 0.87736(18)
O2_2 O 0.78319(10) 0.6993(3) 0.61851(17)
N3_2 N 0.70186(13) 0.5125(3) 0.6529(2)
O3_2 O 0.68389(11) 0.6890(3) 0.77352(17)
O7_2 O 0.82134(12) 0.7825(3) 0.72867(17)
C1_2 C 0.69980(16) 0.1364(3) 0.6554(3)
N4_2 N 0.80523(13) 0.9691(3) 0.8447(2)
C3_2 C 0.82395(13) 0.7427(3) 0.6572(3)
C6_2 C 0.68149(13) 0.7398(3) 0.8420(2)
C7_2 C 0.74466(19) 0.4502(4) 0.6229(3)
H1_2 H 0.7754 0.4900 0.6011
C8_2 C 0.65834(19) 0.4520(4) 0.6831(3)
H2_2 H 0.6272 0.4935 0.7019
C9_2 C 0.58126(19) 0.6795(6) 0.8550(4)
H3_2 H 0.5857 0.6343 0.8079
C12_2 C 0.65708(19) 0.3308(4) 0.6881(3)
H6_2 H 0.6266 0.2932 0.7124
C14_2 C 0.6645(2) 0.0717(4) 0.7060(3)
H8_2 H 0.6396 0.1101 0.7409
C16 C 0.42244(18) 0.7238(7) 0.9730(3)
H10 H 0.4268 0.6451 0.9498
C19_2 C 0.87906(15) 0.7485(4) 0.6145(2)
C20_2 C 0.74537(19) 0.3281(4) 0.6227(3)
H13_2 H 0.7756 0.2883 0.5996
C21_2 C 0.7338(2) 0.0721(4) 0.6026(3)
H14_2 H 0.7575 0.1103 0.5659
H16_2 H 0.8631 0.9895 0.7609
H19_2 H 0.7456 0.9909 0.9247
C28_2 C 0.97948(17) 0.7849(6) 0.6174(3)
C29_2 C 0.98107(18) 0.7775(7) 0.5339(3)
C30_2 C 0.62643(16) 0.7417(4) 0.8859(2)
C31_2 C 0.5672(2) 0.8133(7) 0.9953(4)
C32_2 C 0.88212(18) 0.7349(7) 0.5300(3)
H22_2 H 0.8502 0.7136 0.5005
C33_2 C 0.9328(2) 0.7532(8) 0.4892(3)
H23_2 H 0.9343 0.7492 0.4321
C34_2 C 0.70124(17) 0.2658(3) 0.6568(3)
C35_2 C 0.61859(19) 0.8076(6) 0.9567(3)
H24_2 H 0.6488 0.8489 0.9786
C36_2 C 0.52264(18) 0.7529(6) 0.9644(3)
C37_2 C 0.92809(16) 0.7736(5) 0.6578(3)
H25_2 H 0.9265 0.7831 0.7146
C38_2 C 0.5291(2) 0.6842(7) 0.8942(4)
H26 H 0.4988 0.6418 0.8736
C40 C 0.4031(4) 0.8070(11) 0.9066(6)
H30 H 0.3682 0.7799 0.8841
H31 H 0.3981 0.8836 0.9297
H32 H 0.4310 0.8103 0.8638
N6 N 0.69921(13) 0.8898(3) 0.6546(2)
C11_2 C 0.7322(2) 0.9509(4) 0.6046(3)
H5_2 H 0.7557 0.9100 0.5689
C22_2 C 0.6659(2) 0.9515(4) 0.7049(3)
H15_2 H 0.6425 0.9110 0.7409
H21_2 H 0.0629 0.6416 0.9575
C16_2 C 0.92244(18) 0.7762(7) 0.0270(3)
H10_2 H 0.9268 0.8549 0.0502
H26_2 H 0.9988 0.8582 0.1264
C40_2 C 0.9031(4) 0.6930(11) 0.0934(6)
H30_2 H 0.8682 0.7201 0.1159
H31_2 H 0.8981 0.6164 0.0703
H32_2 H 0.9310 0.6897 0.1362
C16_3 C 0.07756(18) 0.2238(7) 0.0270(3)
H10_3 H 0.0732 0.1451 0.0502
H26_3 H 0.0012 0.1418 0.1264
C40_3 C 0.0969(4) 0.3070(11) 0.0934(6)
H30_3 H 0.1318 0.2799 0.1159
H31_3 H 0.1019 0.3836 0.0703
H32_3 H 0.0690 0.3103 0.1362
O4_2 O 0.17138(11) 0.2127(3) 0.97820(18)
O6_2 O 0.10538(11) 0.2239(3) 0.88416(19)
C4_3 C 0.12061(16) 0.2204(4) 0.9575(3)
O9_3 O 0.02646(14) 0.2600(5) 0.9922(2)
Co6_2 Co 0.19537(2) 0.21919(4) 0.84835(3)
N1_2 N 0.69396(13) 0.0916(3) 0.1493(2)
C10_3 C 0.7335(2) 0.0278(4) 0.1126(3)
H4_3 H 0.7623 0.0673 0.0857
C13_3 C 0.65350(19) 0.0308(4) 0.1861(3)
H7_3 H 0.6244 0.0722 0.2109
Co5 Co 0.69537(2) 0.28081(4) 0.15165(3)
Co1 Co 0.79886(2) 0.20164(4) 0.34700(3)
O1_3 O 0.77788(10) 0.2876(3) 0.12264(18)
O2_3 O 0.71681(10) 0.1993(3) 0.38149(17)
N3_3 N 0.79814(13) 0.0125(3) 0.3471(2)
O3_3 O 0.81611(11) 0.1890(3) 0.22648(17)
O5_2 O 0.32529(11) 0.2954(3) 0.52277(19)
O7_3 O 0.67866(12) 0.2825(3) 0.27133(17)
O8_2 O 0.38917(11) 0.3002(3) 0.61978(19)
N4_3 N 0.69477(13) 0.4691(3) 0.1553(2)
C2_3 C 0.69314(17) 0.8449(3) 0.1523(3)
C3_3 C 0.67605(13) 0.2427(3) 0.3428(3)
C5_3 C 0.37549(16) 0.3009(4) 0.5456(3)
C6_3 C 0.81851(13) 0.2398(3) 0.1580(2)
C9_3 C 0.91874(19) 0.1795(6) 0.1450(4)
H3_3 H 0.9143 0.1343 0.1921
C15_3 C 0.41903(18) 0.3167(6) 0.4778(3)
H9_3 H 0.4118 0.2614 0.4330
C17_3 C 0.6518(2) 0.9107(4) 0.1899(3)
H11_3 H 0.6227 0.8736 0.2179
C18_3 C 0.6577(3) 0.6508(4) 0.2030(5)
H12_3 H 0.6317 0.6891 0.2361
C19_3 C 0.62094(15) 0.2485(4) 0.3855(2)
C23_3 C 0.6604(3) 0.5302(4) 0.2033(4)
H16_3 H 0.6369 0.4895 0.2391
O10_3 O 0.47230(13) 0.2928(6) 0.5145(2)
C24_3 C 0.73467(19) 0.9084(4) 0.1115(3)
H17_3 H 0.7632 0.8694 0.0836
C25_3 C 0.7291(2) 0.6510(4) 0.1048(4)
H18_3 H 0.7536 0.6892 0.0691
C26_3 C 0.69358(16) 0.7149(3) 0.1536(3)
C27_3 C 0.7289(2) 0.5312(4) 0.1082(3)
H19_3 H 0.7544 0.4909 0.0753
C28_3 C 0.52052(17) 0.2849(6) 0.3826(3)
H20_3 H 0.4877 0.2973 0.3528
C29_3 C 0.51893(18) 0.2775(7) 0.4661(3)
C30_3 C 0.87357(16) 0.2417(4) 0.1141(2)
C31_3 C 0.9328(2) 0.3133(7) 0.0047(4)
C32_3 C 0.61788(18) 0.2349(7) 0.4700(3)
H22_3 H 0.6498 0.2136 0.4995
C33_3 C 0.5672(2) 0.2532(8) 0.5108(3)
H23_3 H 0.5657 0.2492 0.5679
C35_3 C 0.88141(19) 0.3076(6) 0.0433(3)
H24_3 H 0.8512 0.3489 0.0214
C36_3 C 0.97736(18) 0.2529(6) 0.0356(3)
C37_3 C 0.57191(16) 0.2736(5) 0.3422(3)
H25_3 H 0.5735 0.2831 0.2854
C38_3 C 0.9709(2) 0.1842(7) 0.1058(4)
C39_3 C 0.4146(3) 0.4421(7) 0.4461(5)
H27_3 H 0.3782 0.4541 0.4221
H28_3 H 0.4198 0.4957 0.4910
H29_3 H 0.4432 0.4554 0.4053
Co4_2 Co 0.29886(2) 0.29836(4) 0.65300(3)
N6_2 N 0.80079(13) 0.3898(3) 0.3454(2)
O11_2 O 0.67138(11) 0.2873(3) 0.02180(18)
O12_2 O 0.82529(11) 0.2046(3) 0.47723(19)
O13_2 O 0.60538(11) 0.2761(3) 0.11584(19)
O14_2 O 0.88917(11) 0.1998(3) 0.38022(19)
C1_3 C 0.80020(16) 0.6364(3) 0.3446(3)
C7_3 C 0.75534(19) 0.9502(4) 0.3771(3)
H1_3 H 0.7246 0.9900 0.3989
C8_3 C 0.84166(19) 0.9520(4) 0.3169(3)
H2_3 H 0.8728 0.9935 0.2981
C11_3 C 0.7678(2) 0.4509(4) 0.3954(3)
H5_3 H 0.7443 0.4100 0.4311
C12_3 C 0.84292(19) 0.8308(4) 0.3119(3)
H6_3 H 0.8734 0.7932 0.2876
C14_3 C 0.8355(2) 0.5717(4) 0.2940(3)
H8_3 H 0.8604 0.6101 0.2591
C20_3 C 0.75463(19) 0.8281(4) 0.3773(3)
H13_3 H 0.7244 0.7883 0.4004
C21_3 C 0.7662(2) 0.5721(4) 0.3974(3)
H14_3 H 0.7425 0.6103 0.4341
C22_3 C 0.8341(2) 0.4515(4) 0.2951(3)
H15_3 H 0.8575 0.4110 0.2591
C34_3 C 0.79876(17) 0.7658(3) 0.3432(3)
N2_2 N 0.30079(13) 0.1102(3) 0.6546(2)
C11_4 C 0.2678(2) 0.0491(4) 0.6046(3)
H5_4 H 0.2443 0.0900 0.5689
C22_4 C 0.3341(2) 0.0485(4) 0.7049(3)
H15_4 H 0.3575 0.0890 0.7409
C4_4 C 0.62061(16) 0.2796(4) 0.0425(3)
O9_4 O 0.52646(14) 0.2400(5) 0.0078(2)
H21_3 H 0.4371 0.1416 0.0425
O1_4 O 0.27788(10) 0.2124(3) 0.87736(18)
O2_4 O 0.21681(10) 0.3007(3) 0.61851(17)
N3_4 N 0.29814(13) 0.4875(3) 0.6529(2)
O3_4 O 0.31611(11) 0.3110(3) 0.77352(17)
O7_4 O 0.17866(12) 0.2175(3) 0.72867(17)
C1_4 C 0.30020(16) 0.8636(3) 0.6554(3)
N4_4 N 0.19477(13) 0.0309(3) 0.8447(2)
C3_4 C 0.17605(13) 0.2573(3) 0.6572(3)
C6_4 C 0.31851(13) 0.2602(3) 0.8420(2)
C7_4 C 0.25534(19) 0.5498(4) 0.6229(3)
H1_4 H 0.2246 0.5100 0.6011
C8_4 C 0.34166(19) 0.5480(4) 0.6831(3)
H2_4 H 0.3728 0.5065 0.7019
C9_4 C 0.41874(19) 0.3205(6) 0.8550(4)
H3_4 H 0.4143 0.3657 0.8079
C12_4 C 0.34292(19) 0.6692(4) 0.6881(3)
H6_4 H 0.3734 0.7068 0.7124
C14_4 C 0.3355(2) 0.9283(4) 0.7060(3)
H8_4 H 0.3604 0.8899 0.7409
C16_4 C 0.57756(18) 0.2762(7) 0.9730(3)
H10_4 H 0.5732 0.3549 0.9498
C19_4 C 0.12094(15) 0.2515(4) 0.6145(2)
C20_4 C 0.25463(19) 0.6719(4) 0.6227(3)
H13_4 H 0.2244 0.7117 0.5996
C21_4 C 0.2662(2) 0.9279(4) 0.6026(3)
H14_4 H 0.2425 0.8897 0.5659
H16_4 H 0.1369 0.0105 0.7609
H19_4 H 0.2544 0.0091 0.9247
C28_4 C 0.02052(17) 0.2151(6) 0.6174(3)
C29_4 C 0.01893(18) 0.2225(7) 0.5339(3)
C30_4 C 0.37357(16) 0.2583(4) 0.8859(2)
C31_4 C 0.4328(2) 0.1867(7) 0.9953(4)
C32_4 C 0.11788(18) 0.2651(7) 0.5300(3)
H22_4 H 0.1498 0.2864 0.5005
C33_4 C 0.0672(2) 0.2468(8) 0.4892(3)
H23_4 H 0.0657 0.2508 0.4321
C34_4 C 0.29876(17) 0.7342(3) 0.6568(3)
C35_4 C 0.38141(19) 0.1924(6) 0.9567(3)
H24_4 H 0.3512 0.1511 0.9786
C36_4 C 0.47736(18) 0.2471(6) 0.9644(3)
C37_4 C 0.07191(16) 0.2264(5) 0.6578(3)
H25_4 H 0.0735 0.2169 0.7146
C38_4 C 0.4709(2) 0.3158(7) 0.8942(4)
H26_4 H 0.5012 0.3582 0.8736
C40_4 C 0.5969(4) 0.1930(11) 0.9066(6)
H30_4 H 0.6318 0.2201 0.8841
H31_4 H 0.6019 0.1164 0.9297
H32_4 H 0.5690 0.1897 0.8638
N5_2 N 0.19396(13) 0.4084(3) 0.8507(2)
C2_4 C 0.19314(17) 0.6551(3) 0.8477(3)
C10_4 C 0.2335(2) 0.4722(4) 0.8874(3)
H4_4 H 0.2623 0.4327 0.9143
C13_4 C 0.15350(19) 0.4692(4) 0.8139(3)
H7_4 H 0.1244 0.4278 0.7891
C17_4 C 0.1518(2) 0.5893(4) 0.8101(3)
H11_4 H 0.1227 0.6264 0.7821
C18_4 C 0.1577(3) 0.8492(4) 0.7970(5)
H12_4 H 0.1317 0.8109 0.7639
C23_4 C 0.1604(3) 0.9698(4) 0.7967(4)
C24_4 C 0.23467(19) 0.5916(4) 0.8885(3)
H17_4 H 0.2632 0.6306 0.9164
C25_4 C 0.2291(2) 0.8490(4) 0.8952(4)
H18_4 H 0.2536 0.8108 0.9309
C26_4 C 0.19358(16) 0.7851(3) 0.8464(3)
C27_4 C 0.2289(2) 0.9688(4) 0.8918(3)
C5_4 C 0.87549(16) 0.1991(4) 0.4544(3)
C15_4 C 0.91903(18) 0.1833(6) 0.5222(3)
H9_4 H 0.9118 0.2386 0.5670
O10_4 O 0.97230(13) 0.2072(6) 0.4855(2)
H20_4 H 0.9877 0.2027 0.6472
C39_4 C 0.9146(3) 0.0579(7) 0.5539(5)
H27_4 H 0.8782 0.0459 0.5779
H28_4 H 0.9198 0.0043 0.5090
H29_4 H 0.9432 0.0446 0.5947
H21_4 H 0.9371 0.3584 0.9575
loop_
_geom_bond_atom_site_label_1
_geom_bond_atom_site_label_2
_geom_bond_site_symmetry_1
_geom_bond_site_symmetry_2
N2 C11 1_555 1_555
C1 C14 1_555 1_555
H1 C7 1_555 1_555
H2 C8 1_555 1_555
C11 H5 1_555 1_555
C12 C8 1_555 1_555
H6 C12 1_555 1_555
C14 H8 1_555 1_555
C20 C7 1_555 1_555
H13 C20 1_555 1_555
C21 C1 1_555 1_555
H14 C21 1_555 1_555
C22 N2 1_555 1_555
H15 C22 1_555 1_555
C34 C1 1_555 1_555
Co3 N2 1_555 1_555
C11 C21 1_555 1_555
C12 C34 1_555 1_555
C14 C22 1_555 1_555
C20 C34 1_555 1_555
Co3 O2 1_555 1_555
Co2 O1 1_555 1_555
O1 C6 1_555 1_555
O2 C3 1_555 1_555
N3 Co3 1_555 1_555
O3 Co3 1_555 1_555
O5 C5 1_555 1_555
O7 Co2 1_555 1_555
O8 C5 1_555 1_555
N4 Co2 1_555 1_555
C2 C17 1_555 1_555
C3 O7 1_555 1_555
C5 C15 1_555 1_555
C6 O3 1_555 1_555
C9 H3 1_555 1_555
C15 H9 1_555 1_555
H11 C17 1_555 1_555
C18 H12 1_555 1_555
C19 C3 1_555 1_555
C23 N4 1_555 1_555
H16 C23 1_555 1_555
O10 C15 1_555 1_555
C24 C2 1_555 1_555
H17 C24 1_555 1_555
C25 H18 1_555 1_555
C26 C2 1_555 1_555
C27 N4 1_555 1_555
H19 C27 1_555 1_555
C28 H20 1_555 1_555
C29 O10 1_555 1_555
C30 C6 1_555 1_555
C32 C19 1_555 1_555
H22 C32 1_555 1_555
C33 C29 1_555 1_555
H23 C33 1_555 1_555
C35 C30 1_555 1_555
H24 C35 1_555 1_555
C37 C19 1_555 1_555
H25 C37 1_555 1_555
C38 C9 1_555 1_555
C39 C15 1_555 1_555
H27 C39 1_555 1_555
H28 C39 1_555 1_555
H29 C39 1_555 1_555
Co4 O5 1_555 1_555
N5 Co2 1_555 1_555
O11 Co2 1_555 1_555
O12 Co3 1_555 1_555
O13 Co2 1_555 1_555
O14 Co3 1_555 1_555
O8 Co4 1_555 1_555
C9 C30 1_555 1_555
C18 C23 1_555 1_555
C18 C26 1_555 1_555
C25 C26 1_555 1_555
C25 C27 1_555 1_555
C28 C29 1_555 1_555
C28 C37 1_555 1_555
C31 C35 1_555 1_555
C31 C36 1_555 1_555
C32 C33 1_555 1_555
C36 C38 1_555 1_555
N5 C10 1_555 1_555
C10 H4 1_555 1_555
C13 N5 1_555 1_555
H7 C13 1_555 1_555
O4 C4 1_555 1_555
O6 C4 1_555 1_555
Co6 O4 1_555 1_555
O6 Co6 1_555 1_555
O12 C5_2 1_555 1_555
O14 C5_2 1_555 1_555
C5_2 C15_2 1_555 1_555
C15_2 H9_2 1_555 1_555
O10_2 C15_2 1_555 1_555
C39_2 C15_2 1_555 1_555
H27_2 C39_2 1_555 1_555
H28_2 C39_2 1_555 1_555
H29_2 C39_2 1_555 1_555
N1 C10_2 1_555 1_555
C2_2 C17_2 1_555 1_555
C10_2 H4_2 1_555 1_555
C13_2 N1 1_555 1_555
H7_2 C13_2 1_555 1_555
C17_2 C13_2 1_555 1_555
H11_2 C17_2 1_555 1_555
C18_2 H12_2 1_555 1_555
C24_2 C2_2 1_555 1_555
H17_2 C24_2 1_555 1_555
C25_2 H18_2 1_555 1_555
C26_2 C2_2 1_555 1_555
Co6 N1 1_555 1_555
C10_2 C24_2 1_555 1_555
C18_2 C23_2 1_555 1_555
C18_2 C26_2 1_555 1_555
C25_2 C26_2 1_555 1_555
C25_2 C27_2 1_555 1_555
O11 C4_2 1_555 1_555
O13 C4_2 1_555 1_555
Co4 O2_2 1_555 1_555
Co6 O1_2 1_555 1_555
O1_2 C6_2 1_555 1_555
O2_2 C3_2 1_555 1_555
N3_2 Co4 1_555 1_555
O3_2 Co4 1_555 1_555
O7_2 Co6 1_555 1_555
C1_2 C14_2 1_555 1_555
N4_2 Co6 1_555 1_555
C3_2 O7_2 1_555 1_555
C6_2 O3_2 1_555 1_555
C7_2 N3_2 1_555 1_555
H1_2 C7_2 1_555 1_555
C8_2 N3_2 1_555 1_555
H2_2 C8_2 1_555 1_555
C9_2 H3_2 1_555 1_555
C12_2 C8_2 1_555 1_555
H6_2 C12_2 1_555 1_555
C14_2 H8_2 1_555 1_555
C16 H10 1_555 1_555
C19_2 C3_2 1_555 1_555
C20_2 C7_2 1_555 1_555
H13_2 C20_2 1_555 1_555
C21_2 C1_2 1_555 1_555
H14_2 C21_2 1_555 1_555
C30_2 C6_2 1_555 1_555
C32_2 C19_2 1_555 1_555
H22_2 C32_2 1_555 1_555
C33_2 C29_2 1_555 1_555
H23_2 C33_2 1_555 1_555
C34_2 C1_2 1_555 1_555
C35_2 C30_2 1_555 1_555
H24_2 C35_2 1_555 1_555
C37_2 C19_2 1_555 1_555
H25_2 C37_2 1_555 1_555
C38_2 C9_2 1_555 1_555
H26 C38_2 1_555 1_555
C40 C16 1_555 1_555
H30 C40 1_555 1_555
H31 C40 1_555 1_555
H32 C40 1_555 1_555
N6 Co4 1_555 1_555
C9_2 C30_2 1_555 1_555
C12_2 C34_2 1_555 1_555
C20_2 C34_2 1_555 1_555
C28_2 C29_2 1_555 1_555
C28_2 C37_2 1_555 1_555
C31_2 C35_2 1_555 1_555
C31_2 C36_2 1_555 1_555
C32_2 C33_2 1_555 1_555
C36_2 C38_2 1_555 1_555
N6 C11_2 1_555 1_555
C11_2 H5_2 1_555 1_555
C22_2 N6 1_555 1_555
H15_2 C22_2 1_555 1_555
C16_2 H10_2 1_555 1_555
C40_2 C16_2 1_555 1_555
H30_2 C40_2 1_555 1_555
H31_2 C40_2 1_555 1_555
H32_2 C40_2 1_555 1_555
C16_3 H10_3 1_555 1_555
C40_3 C16_3 1_555 1_555
H30_3 C40_3 1_555 1_555
H31_3 C40_3 1_555 1_555
H32_3 C40_3 1_555 1_555
O4_2 C4_3 1_555 1_555
O6_2 C4_3 1_555 1_555
Co6_2 O4_2 1_555 1_555
O6_2 Co6_2 1_555 1_555
N1_2 C10_3 1_555 1_555
C10_3 H4_3 1_555 1_555
C13_3 N1_2 1_555 1_555
H7_3 C13_3 1_555 1_555
Co5 N1_2 1_555 1_555
Co1 O2_3 1_555 1_555
Co5 O1_3 1_555 1_555
O1_3 C6_3 1_555 1_555
O2_3 C3_3 1_555 1_555
N3_3 Co1 1_555 1_555
O3_3 Co1 1_555 1_555
O5_2 C5_3 1_555 1_555
O7_3 Co5 1_555 1_555
O8_2 C5_3 1_555 1_555
N4_3 Co5 1_555 1_555
C2_3 C17_3 1_555 1_555
C3_3 O7_3 1_555 1_555
C5_3 C15_3 1_555 1_555
C6_3 O3_3 1_555 1_555
C9_3 H3_3 1_555 1_555
C15_3 H9_3 1_555 1_555
H11_3 C17_3 1_555 1_555
C18_3 H12_3 1_555 1_555
C19_3 C3_3 1_555 1_555
C23_3 N4_3 1_555 1_555
H16_3 C23_3 1_555 1_555
O10_3 C15_3 1_555 1_555
C24_3 C2_3 1_555 1_555
H17_3 C24_3 1_555 1_555
C25_3 H18_3 1_555 1_555
C26_3 C2_3 1_555 1_555
C27_3 N4_3 1_555 1_555
H19_3 C27_3 1_555 1_555
C28_3 H20_3 1_555 1_555
C29_3 O10_3 1_555 1_555
C30_3 C6_3 1_555 1_555
C32_3 C19_3 1_555 1_555
H22_3 C32_3 1_555 1_555
C33_3 C29_3 1_555 1_555
H23_3 C33_3 1_555 1_555
C35_3 C30_3 1_555 1_555
H24_3 C35_3 1_555 1_555
C37_3 C19_3 1_555 1_555
H25_3 C37_3 1_555 1_555
C38_3 C9_3 1_555 1_555
C39_3 C15_3 1_555 1_555
H27_3 C39_3 1_555 1_555
H28_3 C39_3 1_555 1_555
H29_3 C39_3 1_555 1_555
Co4_2 O5_2 1_555 1_555
N6_2 Co1 1_555 1_555
O11_2 Co5 1_555 1_555
O12_2 Co1 1_555 1_555
O13_2 Co5 1_555 1_555
O14_2 Co1 1_555 1_555
O8_2 Co4_2 1_555 1_555
C9_3 C30_3 1_555 1_555
C18_3 C23_3 1_555 1_555
C18_3 C26_3 1_555 1_555
C25_3 C26_3 1_555 1_555
C25_3 C27_3 1_555 1_555
C28_3 C29_3 1_555 1_555
C28_3 C37_3 1_555 1_555
C31_3 C35_3 1_555 1_555
C31_3 C36_3 1_555 1_555
C32_3 C33_3 1_555 1_555
C36_3 C38_3 1_555 1_555
N6_2 C11_3 1_555 1_555
C1_3 C14_3 1_555 1_555
H1_3 C7_3 1_555 1_555
H2_3 C8_3 1_555 1_555
C11_3 H5_3 1_555 1_555
C12_3 C8_3 1_555 1_555
H6_3 C12_3 1_555 1_555
C14_3 H8_3 1_555 1_555
C20_3 C7_3 1_555 1_555
H13_3 C20_3 1_555 1_555
C21_3 C1_3 1_555 1_555
H14_3 C21_3 1_555 1_555
C22_3 N6_2 1_555 1_555
H15_3 C22_3 1_555 1_555
C34_3 C1_3 1_555 1_555
C11_3 C21_3 1_555 1_555
C12_3 C34_3 1_555 1_555
C14_3 C22_3 1_555 1_555
C20_3 C34_3 1_555 1_555
N2_2 C11_4 1_555 1_555
C11_4 H5_4 1_555 1_555
C22_4 N2_2 1_555 1_555
H15_4 C22_4 1_555 1_555
Co4_2 N2_2 1_555 1_555
O11_2 C4_4 1_555 1_555
O13_2 C4_4 1_555 1_555
Co4_2 O2_4 1_555 1_555
Co6_2 O1_4 1_555 1_555
O1_4 C6_4 1_555 1_555
O2_4 C3_4 1_555 1_555
N3_4 Co4_2 1_555 1_555
O3_4 Co4_2 1_555 1_555
O7_4 Co6_2 1_555 1_555
C1_4 C14_4 1_555 1_555
N4_4 Co6_2 1_555 1_555
C3_4 O7_4 1_555 1_555
C6_4 O3_4 1_555 1_555
C7_4 N3_4 1_555 1_555
H1_4 C7_4 1_555 1_555
C8_4 N3_4 1_555 1_555
H2_4 C8_4 1_555 1_555
C9_4 H3_4 1_555 1_555
C12_4 C8_4 1_555 1_555
H6_4 C12_4 1_555 1_555
C14_4 H8_4 1_555 1_555
C16_4 H10_4 1_555 1_555
C19_4 C3_4 1_555 1_555
C20_4 C7_4 1_555 1_555
H13_4 C20_4 1_555 1_555
C21_4 C1_4 1_555 1_555
H14_4 C21_4 1_555 1_555
C30_4 C6_4 1_555 1_555
C32_4 C19_4 1_555 1_555
H22_4 C32_4 1_555 1_555
C33_4 C29_4 1_555 1_555
H23_4 C33_4 1_555 1_555
C34_4 C1_4 1_555 1_555
C35_4 C30_4 1_555 1_555
H24_4 C35_4 1_555 1_555
C37_4 C19_4 1_555 1_555
H25_4 C37_4 1_555 1_555
C38_4 C9_4 1_555 1_555
H26_4 C38_4 1_555 1_555
C40_4 C16_4 1_555 1_555
H30_4 C40_4 1_555 1_555
H31_4 C40_4 1_555 1_555
H32_4 C40_4 1_555 1_555
N5_2 Co6_2 1_555 1_555
C9_4 C30_4 1_555 1_555
C12_4 C34_4 1_555 1_555
C20_4 C34_4 1_555 1_555
C28_4 C29_4 1_555 1_555
C28_4 C37_4 1_555 1_555
C31_4 C35_4 1_555 1_555
C31_4 C36_4 1_555 1_555
C32_4 C33_4 1_555 1_555
C36_4 C38_4 1_555 1_555
N5_2 C10_4 1_555 1_555
C2_4 C17_4 1_555 1_555
C10_4 H4_4 1_555 1_555
C13_4 N5_2 1_555 1_555
H7_4 C13_4 1_555 1_555
C17_4 C13_4 1_555 1_555
H11_4 C17_4 1_555 1_555
C18_4 H12_4 1_555 1_555
C24_4 C2_4 1_555 1_555
H17_4 C24_4 1_555 1_555
C25_4 H18_4 1_555 1_555
C26_4 C2_4 1_555 1_555
C10_4 C24_4 1_555 1_555
C18_4 C23_4 1_555 1_555
C18_4 C26_4 1_555 1_555
C25_4 C26_4 1_555 1_555
C25_4 C27_4 1_555 1_555
O12_2 C5_4 1_555 1_555
O14_2 C5_4 1_555 1_555
C5_4 C15_4 1_555 1_555
C15_4 H9_4 1_555 1_555
O10_4 C15_4 1_555 1_555
C39_4 C15_4 1_555 1_555
H27_4 C39_4 1_555 1_555
H28_4 C39_4 1_555 1_555
H29_4 C39_4 1_555 1_555

#END
