
###############################################################################
#
# This file contains modified crystal structure data generated from the
# MOF subset of the Cambridge Structural Database (CSD) v543 
# hosted by the Cambridge Crystallographic Data Centre (CCDC).
#
# This work is licensed under the Creative Commons
# Attribution-NonCommercial-ShareAlike 4.0 International License.
# To view a copy of this license, visit
# http://creativecommons.org/licenses/by-nc-sa/4.0/
# or send a letter to
# Creative Commons, PO Box 1866, Mountain View, CA 94042, USA.
#
# CIF created using the CSD Python API on 29 September 2022
# The structure has been converted into the P1 space group
# The structure has a 3D framework
# The original CSD entry OZOPIE is in the orthorhombic crystal system
# The original CSD entry OZOPIE is in a Sohncke space group
# The framework has been calculated to contain at least 10.0% void space
# The void calculation uses a probe of radius 1.32A, grid spacing 0.4
#
###############################################################################

data_OZOPIE
_chemical_formula_moiety         '(C160 H128 Co8 N14 O40)n'
_symmetry_cell_setting           triclinic
_symmetry_space_group_name_H-M   'P 1'
_symmetry_Int_Tables_number      1
_space_group_name_Hall           'P 1'
loop_
_symmetry_equiv_pos_site_id
_symmetry_equiv_pos_as_xyz
1 x,y,z
_cell_length_a                   23.759(3)
_cell_length_b                   11.4143(15)
_cell_length_c                   16.225(2)
_cell_angle_alpha                90
_cell_angle_beta                 90
_cell_angle_gamma                90
_cell_volume                     4400.1
loop_
_atom_site_label
_atom_site_type_symbol
_atom_site_fract_x
_atom_site_fract_y
_atom_site_fract_z
Co1 Co 0.30466(2) 0.78132(4) 0.15163(4)
Co2 Co 0.20111(2) 0.70218(4) 0.34700(4)
N1 N 0.30608(15) 0.5925(3) 0.1494(2)
O1 O 0.22236(11) 0.7888(3) 0.12265(19)
O2 O 0.28294(11) 0.7005(3) 0.38125(19)
O3 O 0.67446(12) 0.7953(4) 0.5230(2)
O4 O 0.61073(13) 0.8000(4) 0.6198(2)
N3 N 0.20183(15) 0.5124(3) 0.3475(2)
O6 O 0.18403(13) 0.6902(3) 0.22638(18)
C1 C 0.19952(18) 0.1369(3) 0.3439(3)
C2 C 0.30689(19) 0.3452(3) 0.1520(3)
O8 O 0.32129(13) 0.7837(3) 0.27106(18)
C4 C 0.32392(16) 0.7428(3) 0.3421(3)
C5 C 0.62458(18) 0.8005(4) 0.5453(3)
C6 C 0.18138(15) 0.7403(4) 0.1577(3)
C8 C 0.1568(2) 0.3320(4) 0.3121(3)
H2 H 0.1262 0.2948 0.2879
C9 C 0.1651(2) 0.0729(4) 0.2933(3)
H3 H 0.1409 0.1115 0.2573
C10 C 0.2336(2) 0.0723(4) 0.3969(3)
H4 H 0.2574 0.1105 0.4336
C11 C 0.3415(3) 0.1515(5) 0.2036(5)
H5 H 0.3669 0.1903 0.2378
C13 C 0.2701(3) 0.0331(5) 0.1087(3)
C14 C 0.2675(2) 0.5278(4) 0.1131(3)
H8 H 0.2387 0.5672 0.0859
C15 C 0.12656(18) 0.7413(5) 0.1142(3)
C17 C 0.2449(2) 0.3290(4) 0.3771(3)
H10 H 0.2753 0.2895 0.4002
C18 C 0.3458(2) 0.5317(4) 0.1871(3)
H11 H 0.3742 0.5734 0.2135
C19 C 0.37879(17) 0.7486(5) 0.3856(3)
C20 C 0.42820(18) 0.7738(5) 0.3425(3)
H12 H 0.4266 0.7839 0.2857
C21 C 0.1584(2) 0.4527(4) 0.3172(3)
H13 H 0.1275 0.4946 0.2983
C22 C 0.2657(2) 0.4084(4) 0.1118(3)
H14 H 0.2369 0.3698 0.0840
C23 C 0.2442(2) 0.4494(4) 0.3770(3)
H15 H 0.2750 0.4888 0.3987
C24 C 0.2702(3) 0.1515(5) 0.1056(4)
H16 H 0.2454 0.1900 0.0704
C25 C 0.30650(19) 0.2161(4) 0.1539(3)
C26 C 0.3401(3) 0.0315(5) 0.2042(4)
C27 C 0.20111(19) 0.2665(4) 0.3434(3)
C28 C 0.3483(2) 0.4109(5) 0.1902(4)
H18 H 0.3777 0.3740 0.2179
C29 C 0.0225(2) 0.7521(7) 0.0365(3)
C30 C 0.4797(2) 0.7841(7) 0.3821(3)
H19 H 0.5126 0.7953 0.3521
C31 C 0.4810(2) 0.7774(7) 0.4657(3)
C32 C 0.1192(2) 0.8074(7) 0.0445(4)
H20 H 0.1494 0.8493 0.0234
C33 C 0.3821(2) 0.7347(7) 0.4694(3)
H21 H 0.3502 0.7136 0.4991
C34 C 0.0814(2) 0.6807(6) 0.1443(4)
H22 H 0.0854 0.6371 0.1923
C35 C 0.5808(2) 0.8154(6) 0.4781(3)
H23 H 0.5878 0.7589 0.4338
C36 C 0.0295(2) 0.6829(7) 0.1046(4)
O10 O 0.52786(14) 0.7926(6) 0.5146(2)
C37 C 0.4326(2) 0.7518(9) 0.5100(3)
H25 H 0.4341 0.7460 0.5671
C38 C 0.0676(2) 0.8130(8) 0.0049(4)
C39 C 0.5856(3) 0.9393(8) 0.4446(6)
H27 H 0.6222 0.9501 0.4206
H28 H 0.5573 0.9516 0.4033
H29 H 0.5805 0.9944 0.4886
Co6 Co 0.70111(2) 0.79782(4) 0.65300(4)
N5 N 0.19908(14) 0.8909(3) 0.3459(2)
O11 O 0.17446(12) 0.7047(4) 0.4770(2)
O12 O 0.11073(13) 0.7000(4) 0.3802(2)
O13 O 0.32863(13) 0.7879(4) 0.0216(2)
O14 O 0.39460(13) 0.7769(3) 0.1160(2)
N6 N 0.30515(15) 0.9698(3) 0.1551(2)
C7 C 0.2322(2) 0.9529(4) 0.3948(3)
H1 H 0.2561 0.9123 0.4301
H7 H 0.2439 0.9933 0.0766
C16 C 0.1659(2) 0.9514(4) 0.2950(3)
H9 H 0.1423 0.9106 0.2593
H17 H 0.3640 0.9913 0.2397
O5 O 0.82863(13) 0.7121(4) 0.9784(2)
O7 O 0.89460(13) 0.7231(3) 0.8840(2)
C3 C 0.87945(18) 0.7197(5) 0.9579(3)
O9 O 0.97346(15) 0.7593(5) 0.9922(3)
Co4 Co 0.80466(2) 0.71868(4) 0.84837(4)
C5_2 C 0.12458(18) 0.6995(4) 0.4547(3)
H19_2 H 0.0126 0.7047 0.6479
C35_2 C 0.0808(2) 0.6846(6) 0.5219(3)
H23_2 H 0.0878 0.7411 0.5662
O10_2 O 0.02786(14) 0.7074(6) 0.4854(2)
C39_2 C 0.0856(3) 0.5607(8) 0.5554(6)
H27_2 H 0.1222 0.5499 0.5794
H28_2 H 0.0573 0.5484 0.5967
H29_2 H 0.0805 0.5056 0.5114
N2 N 0.69908(14) 0.6091(3) 0.6541(2)
C1_2 C 0.69952(18) 0.3631(3) 0.6561(3)
N4 N 0.80515(15) 0.5302(3) 0.8449(2)
C2_2 C 0.80689(19) 0.1548(3) 0.8480(3)
C7_2 C 0.7322(2) 0.5471(4) 0.6052(3)
H1_2 H 0.7561 0.5877 0.5699
C8_2 C 0.6568(2) 0.1680(4) 0.6879(3)
H2_2 H 0.6262 0.2052 0.7121
C9_2 C 0.6651(2) 0.4271(4) 0.7067(3)
H3_2 H 0.6409 0.3885 0.7427
C10_2 C 0.7336(2) 0.4277(4) 0.6031(3)
H4_2 H 0.7574 0.3895 0.5664
C11_2 C 0.8415(3) 0.3485(5) 0.7964(5)
H5_2 H 0.8669 0.3097 0.7622
C13_2 C 0.7701(3) 0.4669(5) 0.8913(3)
H7_2 H 0.7439 0.5067 0.9234
C16_2 C 0.6659(2) 0.5486(4) 0.7050(3)
H9_2 H 0.6423 0.5894 0.7407
C17_2 C 0.7449(2) 0.1710(4) 0.6229(3)
H10_2 H 0.7753 0.2105 0.5998
C21_2 C 0.6584(2) 0.0473(4) 0.6828(3)
H13_2 H 0.6275 0.0054 0.7017
C22_2 C 0.7657(2) 0.0916(4) 0.8882(3)
H14_2 H 0.7369 0.1302 0.9160
C23_2 C 0.7442(2) 0.0506(4) 0.6230(3)
H15_2 H 0.7750 0.0112 0.6013
C24_2 C 0.7702(3) 0.3485(5) 0.8944(4)
H16_2 H 0.7454 0.3100 0.9296
C25_2 C 0.80650(19) 0.2839(4) 0.8461(3)
C26_2 C 0.8401(3) 0.4685(5) 0.7958(4)
H17_2 H 0.8640 0.5087 0.7603
C27_2 C 0.70111(19) 0.2335(4) 0.6566(3)
C28_2 C 0.8483(2) 0.0891(5) 0.8098(4)
H18_2 H 0.8777 0.1260 0.7821
C3_2 C 0.37945(18) 0.7803(5) 0.0421(3)
O9_2 O 0.47346(15) 0.7407(5) 0.0078(3)
H26 H 0.5634 0.6423 0.0427
N1_2 N 0.80608(15) 0.9075(3) 0.8506(2)
O1_2 O 0.72236(11) 0.7112(3) 0.87735(19)
O2_2 O 0.78294(11) 0.7995(3) 0.61875(19)
N3_2 N 0.70183(15) 0.9876(3) 0.6525(2)
O6_2 O 0.68403(13) 0.8098(3) 0.77362(18)
O8_2 O 0.82129(13) 0.7163(3) 0.72894(18)
C4_2 C 0.82392(16) 0.7572(3) 0.6579(3)
C6_2 C 0.68138(15) 0.7597(4) 0.8423(3)
C12 C 0.4227(2) 0.7754(8) 0.9729(3)
H6 H 0.4274 0.8543 0.9501
C14_2 C 0.7675(2) 0.9722(4) 0.8869(3)
H8_2 H 0.7387 0.9328 0.9141
C15_2 C 0.62656(18) 0.7587(5) 0.8858(3)
C18_2 C 0.8458(2) 0.9683(4) 0.8129(3)
H11_2 H 0.8742 0.9266 0.7865
C19_2 C 0.87879(17) 0.7514(5) 0.6144(3)
C20_2 C 0.92820(18) 0.7262(5) 0.6575(3)
H12_2 H 0.9266 0.7161 0.7143
C29_2 C 0.5225(2) 0.7479(7) 0.9635(3)
C30_2 C 0.9797(2) 0.7159(7) 0.6179(3)
C31_2 C 0.9810(2) 0.7226(7) 0.5343(3)
C32_2 C 0.6192(2) 0.6926(7) 0.9555(4)
H20_2 H 0.6494 0.6507 0.9766
C33_2 C 0.8821(2) 0.7653(7) 0.5306(3)
H21_2 H 0.8502 0.7864 0.5009
C34_2 C 0.5814(2) 0.8193(6) 0.8557(4)
H22_2 H 0.5854 0.8629 0.8077
C36_2 C 0.5295(2) 0.8171(7) 0.8954(4)
H24 H 0.4999 0.8623 0.8758
C37_2 C 0.9326(2) 0.7482(9) 0.4900(3)
H25_2 H 0.9341 0.7540 0.4329
C38_2 C 0.5676(2) 0.6870(8) 0.9951(4)
C40 C 0.4031(4) 0.6952(11) 0.9054(6)
H30 H 0.3680 0.7234 0.8837
H31 H 0.4307 0.6933 0.8622
H32 H 0.3980 0.6177 0.9271
H26_2 H 0.0634 0.8577 0.9573
C12_2 C 0.9227(2) 0.7246(8) 0.0271(3)
H6_2 H 0.9274 0.6457 0.0499
H24_2 H 0.9999 0.6377 0.1242
C40_2 C 0.9031(4) 0.8048(11) 0.0946(6)
H30_2 H 0.8680 0.7766 0.1163
H31_2 H 0.9307 0.8067 0.1378
H32_2 H 0.8980 0.8823 0.0729
C12_3 C 0.0773(2) 0.2754(8) 0.0271(3)
H6_3 H 0.0726 0.3543 0.0499
H24_3 H 0.0001 0.3623 0.1242
C40_3 C 0.0969(4) 0.1952(11) 0.0946(6)
H30_3 H 0.1320 0.2234 0.1163
H31_3 H 0.0693 0.1933 0.1378
H32_3 H 0.1020 0.1177 0.0729
O5_2 O 0.17137(13) 0.2879(4) 0.9784(2)
O7_2 O 0.10540(13) 0.2769(3) 0.8840(2)
C3_3 C 0.12055(18) 0.2803(5) 0.9579(3)
O9_3 O 0.02654(15) 0.2407(5) 0.9922(3)
Co4_2 Co 0.19534(2) 0.28132(4) 0.84837(4)
N2_2 N 0.80092(14) 0.1091(3) 0.3459(2)
N4_2 N 0.69485(15) 0.0302(3) 0.1551(2)
C7_3 C 0.7678(2) 0.0471(4) 0.3948(3)
H1_3 H 0.7439 0.0877 0.4301
H7_3 H 0.7561 0.0067 0.0766
C16_3 C 0.8341(2) 0.0486(4) 0.2950(3)
H9_3 H 0.8577 0.0894 0.2593
H17_3 H 0.6360 0.0087 0.2397
Co3 Co 0.69534(2) 0.21868(4) 0.15163(4)
Co5 Co 0.79889(2) 0.29782(4) 0.34700(4)
N1_3 N 0.69392(15) 0.4075(3) 0.1494(2)
O1_3 O 0.77764(11) 0.2112(3) 0.12265(19)
O2_3 O 0.71706(11) 0.2995(3) 0.38125(19)
O3_2 O 0.32554(12) 0.2047(4) 0.5230(2)
O4_2 O 0.38927(13) 0.2000(4) 0.6198(2)
N3_3 N 0.79817(15) 0.4876(3) 0.3475(2)
O6_3 O 0.81597(13) 0.3098(3) 0.22638(18)
C1_3 C 0.80048(18) 0.8631(3) 0.3439(3)
C2_3 C 0.69311(19) 0.6548(3) 0.1520(3)
O8_3 O 0.67871(13) 0.2163(3) 0.27106(18)
C4_3 C 0.67608(16) 0.2572(3) 0.3421(3)
C5_3 C 0.37542(18) 0.1995(4) 0.5453(3)
C6_3 C 0.81862(15) 0.2597(4) 0.1577(3)
C8_3 C 0.8432(2) 0.6680(4) 0.3121(3)
H2_3 H 0.8738 0.7052 0.2879
C9_3 C 0.8349(2) 0.9271(4) 0.2933(3)
H3_3 H 0.8591 0.8885 0.2573
C10_3 C 0.7664(2) 0.9277(4) 0.3969(3)
H4_3 H 0.7426 0.8895 0.4336
C11_3 C 0.6585(3) 0.8485(5) 0.2036(5)
H5_3 H 0.6331 0.8097 0.2378
C13_3 C 0.7299(3) 0.9669(5) 0.1087(3)
C14_3 C 0.7325(2) 0.4722(4) 0.1131(3)
H8_3 H 0.7613 0.4328 0.0859
C15_3 C 0.87344(18) 0.2587(5) 0.1142(3)
C17_3 C 0.7551(2) 0.6710(4) 0.3771(3)
H10_3 H 0.7247 0.7105 0.4002
C18_3 C 0.6542(2) 0.4683(4) 0.1871(3)
H11_3 H 0.6258 0.4266 0.2135
C19_3 C 0.62121(17) 0.2514(5) 0.3856(3)
C20_3 C 0.57180(18) 0.2262(5) 0.3425(3)
H12_3 H 0.5734 0.2161 0.2857
C21_3 C 0.8416(2) 0.5473(4) 0.3172(3)
H13_3 H 0.8725 0.5054 0.2983
C22_3 C 0.7343(2) 0.5916(4) 0.1118(3)
H14_3 H 0.7631 0.6302 0.0840
C23_3 C 0.7558(2) 0.5506(4) 0.3770(3)
H15_3 H 0.7250 0.5112 0.3987
C24_3 C 0.7298(3) 0.8485(5) 0.1056(4)
H16_3 H 0.7546 0.8100 0.0704
C25_3 C 0.69350(19) 0.7839(4) 0.1539(3)
C26_3 C 0.6599(3) 0.9685(5) 0.2042(4)
C27_3 C 0.79889(19) 0.7335(4) 0.3434(3)
C28_3 C 0.6517(2) 0.5891(5) 0.1902(4)
H18_3 H 0.6223 0.6260 0.2179
C29_3 C 0.9775(2) 0.2479(7) 0.0365(3)
C30_3 C 0.5203(2) 0.2159(7) 0.3821(3)
H19_3 H 0.4874 0.2047 0.3521
C31_3 C 0.5190(2) 0.2226(7) 0.4657(3)
C32_3 C 0.8808(2) 0.1926(7) 0.0445(4)
H20_3 H 0.8506 0.1507 0.0234
C33_3 C 0.6179(2) 0.2653(7) 0.4694(3)
H21_3 H 0.6498 0.2864 0.4991
C34_3 C 0.9186(2) 0.3193(6) 0.1443(4)
H22_3 H 0.9146 0.3629 0.1923
C35_3 C 0.4192(2) 0.1846(6) 0.4781(3)
H23_3 H 0.4122 0.2411 0.4338
C36_3 C 0.9705(2) 0.3171(7) 0.1046(4)
O10_3 O 0.47214(14) 0.2074(6) 0.5146(2)
C37_3 C 0.5674(2) 0.2482(9) 0.5100(3)
H25_3 H 0.5659 0.2540 0.5671
C38_3 C 0.9324(2) 0.1870(8) 0.0049(4)
C39_3 C 0.4144(3) 0.0607(8) 0.4446(6)
H27_3 H 0.3778 0.0499 0.4206
H28_3 H 0.4427 0.0484 0.4033
H29_3 H 0.4195 0.0056 0.4886
Co6_2 Co 0.29889(2) 0.20218(4) 0.65300(4)
O11_2 O 0.82554(12) 0.2953(4) 0.4770(2)
O12_2 O 0.88927(13) 0.3000(4) 0.3802(2)
O13_2 O 0.67137(13) 0.2121(4) 0.0216(2)
O14_2 O 0.60540(13) 0.2231(3) 0.1160(2)
C3_4 C 0.62055(18) 0.2197(5) 0.0421(3)
O9_4 O 0.52654(15) 0.2593(5) 0.0078(3)
H26_3 H 0.4366 0.3577 0.0427
N1_4 N 0.19392(15) 0.0925(3) 0.8506(2)
O1_4 O 0.27764(11) 0.2888(3) 0.87735(19)
O2_4 O 0.21706(11) 0.2005(3) 0.61875(19)
N3_4 N 0.29817(15) 0.0124(3) 0.6525(2)
O6_4 O 0.31597(13) 0.1902(3) 0.77362(18)
O8_4 O 0.17871(13) 0.2837(3) 0.72894(18)
C4_4 C 0.17608(16) 0.2428(3) 0.6579(3)
C6_4 C 0.31862(15) 0.2403(4) 0.8423(3)
C12_4 C 0.5773(2) 0.2246(8) 0.9729(3)
H6_4 H 0.5726 0.1457 0.9501
C14_4 C 0.2325(2) 0.0278(4) 0.8869(3)
H8_4 H 0.2613 0.0672 0.9141
C15_4 C 0.37344(18) 0.2413(5) 0.8858(3)
C18_4 C 0.1542(2) 0.0317(4) 0.8129(3)
H11_4 H 0.1258 0.0734 0.7865
C19_4 C 0.12121(17) 0.2486(5) 0.6144(3)
C20_4 C 0.07180(18) 0.2738(5) 0.6575(3)
H12_4 H 0.0734 0.2839 0.7143
C29_4 C 0.4775(2) 0.2521(7) 0.9635(3)
C30_4 C 0.0203(2) 0.2841(7) 0.6179(3)
C31_4 C 0.0190(2) 0.2774(7) 0.5343(3)
C32_4 C 0.3808(2) 0.3074(7) 0.9555(4)
H20_4 H 0.3506 0.3493 0.9766
C33_4 C 0.1179(2) 0.2347(7) 0.5306(3)
H21_4 H 0.1498 0.2136 0.5009
C34_4 C 0.4186(2) 0.1807(6) 0.8557(4)
H22_4 H 0.4146 0.1371 0.8077
C36_4 C 0.4705(2) 0.1829(7) 0.8954(4)
H24_4 H 0.5001 0.1377 0.8758
C37_4 C 0.0674(2) 0.2518(9) 0.4900(3)
H25_4 H 0.0659 0.2460 0.4329
C38_4 C 0.4324(2) 0.3130(8) 0.9951(4)
C40_4 C 0.5969(4) 0.3048(11) 0.9054(6)
H30_4 H 0.6320 0.2766 0.8837
H31_4 H 0.5693 0.3067 0.8622
H32_4 H 0.6020 0.3823 0.9271
N5_2 N 0.30092(14) 0.3909(3) 0.6541(2)
N6_2 N 0.19485(15) 0.4698(3) 0.8449(2)
C1_4 C 0.30048(18) 0.6369(3) 0.6561(3)
C2_4 C 0.19311(19) 0.8452(3) 0.8480(3)
C7_4 C 0.2678(2) 0.4529(4) 0.6052(3)
H1_4 H 0.2439 0.4123 0.5699
C8_4 C 0.3432(2) 0.8320(4) 0.6879(3)
H2_4 H 0.3738 0.7948 0.7121
C9_4 C 0.3349(2) 0.5729(4) 0.7067(3)
H3_4 H 0.3591 0.6115 0.7427
C10_4 C 0.2664(2) 0.5723(4) 0.6031(3)
H4_4 H 0.2426 0.6105 0.5664
C11_4 C 0.1585(3) 0.6515(5) 0.7964(5)
H5_4 H 0.1331 0.6903 0.7622
C13_4 C 0.2299(3) 0.5331(5) 0.8913(3)
H7_4 H 0.2561 0.4933 0.9234
C16_4 C 0.3341(2) 0.4514(4) 0.7050(3)
H9_4 H 0.3577 0.4106 0.7407
C17_4 C 0.2551(2) 0.8290(4) 0.6229(3)
H10_4 H 0.2247 0.7895 0.5998
C21_4 C 0.3416(2) 0.9527(4) 0.6828(3)
H13_4 H 0.3725 0.9946 0.7017
C22_4 C 0.2343(2) 0.9084(4) 0.8882(3)
H14_4 H 0.2631 0.8698 0.9160
C23_4 C 0.2558(2) 0.9494(4) 0.6230(3)
H15_4 H 0.2250 0.9888 0.6013
C24_4 C 0.2298(3) 0.6515(5) 0.8944(4)
H16_4 H 0.2546 0.6900 0.9296
C25_4 C 0.19350(19) 0.7161(4) 0.8461(3)
C26_4 C 0.1599(3) 0.5315(5) 0.7958(4)
H17_4 H 0.1360 0.4913 0.7603
C27_4 C 0.29889(19) 0.7665(4) 0.6566(3)
C28_4 C 0.1517(2) 0.9109(5) 0.8098(4)
H18_4 H 0.1223 0.8740 0.7821
C5_4 C 0.87542(18) 0.3005(4) 0.4547(3)
H19_4 H 0.9874 0.2953 0.6479
C35_4 C 0.9192(2) 0.3154(6) 0.5219(3)
H23_4 H 0.9122 0.2589 0.5662
O10_4 O 0.97214(14) 0.2926(6) 0.4854(2)
C39_4 C 0.9144(3) 0.4393(8) 0.5554(6)
H27_4 H 0.8778 0.4501 0.5794
H28_4 H 0.9427 0.4516 0.5967
H29_4 H 0.9195 0.4944 0.5114
H26_4 H 0.9366 0.1423 0.9573
loop_
_geom_bond_atom_site_label_1
_geom_bond_atom_site_label_2
_geom_bond_site_symmetry_1
_geom_bond_site_symmetry_2
Co1 N1 1_555 1_555
Co2 O2 1_555 1_555
N1 C14 1_555 1_555
O1 Co1 1_555 1_555
O2 C4 1_555 1_555
O3 C5 1_555 1_555
O4 C5 1_555 1_555
N3 Co2 1_555 1_555
O6 Co2 1_555 1_555
C1 C9 1_555 1_555
C2 C22 1_555 1_555
O8 Co1 1_555 1_555
C4 O8 1_555 1_555
C5 C35 1_555 1_555
C6 O1 1_555 1_555
C8 H2 1_555 1_555
C9 H3 1_555 1_555
C10 C1 1_555 1_555
H4 C10 1_555 1_555
C11 H5 1_555 1_555
C14 H8 1_555 1_555
C15 C6 1_555 1_555
C17 H10 1_555 1_555
C18 N1 1_555 1_555
H11 C18 1_555 1_555
C19 C4 1_555 1_555
C20 C19 1_555 1_555
H12 C20 1_555 1_555
C21 N3 1_555 1_555
H13 C21 1_555 1_555
C22 C14 1_555 1_555
H14 C22 1_555 1_555
C23 N3 1_555 1_555
H15 C23 1_555 1_555
C24 C13 1_555 1_555
H16 C24 1_555 1_555
C25 C2 1_555 1_555
C27 C1 1_555 1_555
C28 C2 1_555 1_555
H18 C28 1_555 1_555
C30 C20 1_555 1_555
H19 C30 1_555 1_555
C31 C30 1_555 1_555
C32 C15 1_555 1_555
H20 C32 1_555 1_555
C33 C19 1_555 1_555
H21 C33 1_555 1_555
C34 C15 1_555 1_555
H22 C34 1_555 1_555
C35 H23 1_555 1_555
C36 C29 1_555 1_555
O10 C31 1_555 1_555
C37 C31 1_555 1_555
H25 C37 1_555 1_555
C38 C29 1_555 1_555
C39 C35 1_555 1_555
H27 C39 1_555 1_555
H28 C39 1_555 1_555
H29 C39 1_555 1_555
Co6 O3 1_555 1_555
N5 Co2 1_555 1_555
O11 Co2 1_555 1_555
O12 Co2 1_555 1_555
O13 Co1 1_555 1_555
O14 Co1 1_555 1_555
N6 Co1 1_555 1_555
O4 Co6 1_555 1_555
O6 C6 1_555 1_555
C8 C21 1_555 1_555
C8 C27 1_555 1_555
C11 C25 1_555 1_555
C11 C26 1_555 1_555
C17 C23 1_555 1_555
C17 C27 1_555 1_555
C18 C28 1_555 1_555
C24 C25 1_555 1_555
C32 C38 1_555 1_555
C33 C37 1_555 1_555
C34 C36 1_555 1_555
C35 O10 1_555 1_555
N5 C7 1_555 1_555
C7 H1 1_555 1_555
C16 N5 1_555 1_555
H9 C16 1_555 1_555
O5 C3 1_555 1_555
O7 C3 1_555 1_555
Co4 O5 1_555 1_555
O7 Co4 1_555 1_555
O11 C5_2 1_555 1_555
O12 C5_2 1_555 1_555
C5_2 C35_2 1_555 1_555
C35_2 H23_2 1_555 1_555
C39_2 C35_2 1_555 1_555
H27_2 C39_2 1_555 1_555
H28_2 C39_2 1_555 1_555
H29_2 C39_2 1_555 1_555
C35_2 O10_2 1_555 1_555
N2 C7_2 1_555 1_555
C1_2 C9_2 1_555 1_555
N4 C13_2 1_555 1_555
C2_2 C22_2 1_555 1_555
C7_2 H1_2 1_555 1_555
C8_2 H2_2 1_555 1_555
C9_2 H3_2 1_555 1_555
C10_2 C1_2 1_555 1_555
H4_2 C10_2 1_555 1_555
C11_2 H5_2 1_555 1_555
C13_2 H7_2 1_555 1_555
C16_2 N2 1_555 1_555
H9_2 C16_2 1_555 1_555
C17_2 H10_2 1_555 1_555
H13_2 C21_2 1_555 1_555
H14_2 C22_2 1_555 1_555
H15_2 C23_2 1_555 1_555
C24_2 C13_2 1_555 1_555
H16_2 C24_2 1_555 1_555
C25_2 C2_2 1_555 1_555
C26_2 N4 1_555 1_555
H17_2 C26_2 1_555 1_555
C27_2 C1_2 1_555 1_555
C28_2 C2_2 1_555 1_555
H18_2 C28_2 1_555 1_555
Co4 N4 1_555 1_555
Co6 N2 1_555 1_555
C7_2 C10_2 1_555 1_555
C8_2 C21_2 1_555 1_555
C8_2 C27_2 1_555 1_555
C9_2 C16_2 1_555 1_555
C11_2 C25_2 1_555 1_555
C11_2 C26_2 1_555 1_555
C17_2 C23_2 1_555 1_555
C17_2 C27_2 1_555 1_555
C24_2 C25_2 1_555 1_555
O13 C3_2 1_555 1_555
O14 C3_2 1_555 1_555
Co4 N1_2 1_555 1_555
Co6 O2_2 1_555 1_555
N1_2 C14_2 1_555 1_555
O1_2 Co4 1_555 1_555
O2_2 C4_2 1_555 1_555
N3_2 Co6 1_555 1_555
O6_2 Co6 1_555 1_555
O8_2 Co4 1_555 1_555
C4_2 O8_2 1_555 1_555
C6_2 O1_2 1_555 1_555
C12 H6 1_555 1_555
C14_2 H8_2 1_555 1_555
C15_2 C6_2 1_555 1_555
C18_2 N1_2 1_555 1_555
H11_2 C18_2 1_555 1_555
C19_2 C4_2 1_555 1_555
C20_2 C19_2 1_555 1_555
H12_2 C20_2 1_555 1_555
C30_2 C20_2 1_555 1_555
C31_2 C30_2 1_555 1_555
C32_2 C15_2 1_555 1_555
H20_2 C32_2 1_555 1_555
C33_2 C19_2 1_555 1_555
H21_2 C33_2 1_555 1_555
C34_2 C15_2 1_555 1_555
H22_2 C34_2 1_555 1_555
C36_2 C29_2 1_555 1_555
H24 C36_2 1_555 1_555
C37_2 C31_2 1_555 1_555
H25_2 C37_2 1_555 1_555
C38_2 C29_2 1_555 1_555
C40 C12 1_555 1_555
H30 C40 1_555 1_555
H31 C40 1_555 1_555
H32 C40 1_555 1_555
O6_2 C6_2 1_555 1_555
C32_2 C38_2 1_555 1_555
C33_2 C37_2 1_555 1_555
C34_2 C36_2 1_555 1_555
C12_2 H6_2 1_555 1_555
C40_2 C12_2 1_555 1_555
H30_2 C40_2 1_555 1_555
H31_2 C40_2 1_555 1_555
H32_2 C40_2 1_555 1_555
C12_3 H6_3 1_555 1_555
C40_3 C12_3 1_555 1_555
H30_3 C40_3 1_555 1_555
H31_3 C40_3 1_555 1_555
H32_3 C40_3 1_555 1_555
O5_2 C3_3 1_555 1_555
O7_2 C3_3 1_555 1_555
Co4_2 O5_2 1_555 1_555
O7_2 Co4_2 1_555 1_555
N2_2 C7_3 1_555 1_555
C7_3 H1_3 1_555 1_555
C16_3 N2_2 1_555 1_555
H9_3 C16_3 1_555 1_555
Co3 N4_2 1_555 1_555
Co5 N2_2 1_555 1_555
Co3 N1_3 1_555 1_555
Co5 O2_3 1_555 1_555
N1_3 C14_3 1_555 1_555
O1_3 Co3 1_555 1_555
O2_3 C4_3 1_555 1_555
O3_2 C5_3 1_555 1_555
O4_2 C5_3 1_555 1_555
N3_3 Co5 1_555 1_555
O6_3 Co5 1_555 1_555
C1_3 C9_3 1_555 1_555
C2_3 C22_3 1_555 1_555
O8_3 Co3 1_555 1_555
C4_3 O8_3 1_555 1_555
C5_3 C35_3 1_555 1_555
C6_3 O1_3 1_555 1_555
C8_3 H2_3 1_555 1_555
C9_3 H3_3 1_555 1_555
C10_3 C1_3 1_555 1_555
H4_3 C10_3 1_555 1_555
C11_3 H5_3 1_555 1_555
C14_3 H8_3 1_555 1_555
C15_3 C6_3 1_555 1_555
C17_3 H10_3 1_555 1_555
C18_3 N1_3 1_555 1_555
H11_3 C18_3 1_555 1_555
C19_3 C4_3 1_555 1_555
C20_3 C19_3 1_555 1_555
H12_3 C20_3 1_555 1_555
C21_3 N3_3 1_555 1_555
H13_3 C21_3 1_555 1_555
C22_3 C14_3 1_555 1_555
H14_3 C22_3 1_555 1_555
C23_3 N3_3 1_555 1_555
H15_3 C23_3 1_555 1_555
C24_3 C13_3 1_555 1_555
H16_3 C24_3 1_555 1_555
C25_3 C2_3 1_555 1_555
C27_3 C1_3 1_555 1_555
C28_3 C2_3 1_555 1_555
H18_3 C28_3 1_555 1_555
C30_3 C20_3 1_555 1_555
H19_3 C30_3 1_555 1_555
C31_3 C30_3 1_555 1_555
C32_3 C15_3 1_555 1_555
H20_3 C32_3 1_555 1_555
C33_3 C19_3 1_555 1_555
H21_3 C33_3 1_555 1_555
C34_3 C15_3 1_555 1_555
H22_3 C34_3 1_555 1_555
C35_3 H23_3 1_555 1_555
C36_3 C29_3 1_555 1_555
O10_3 C31_3 1_555 1_555
C37_3 C31_3 1_555 1_555
H25_3 C37_3 1_555 1_555
C38_3 C29_3 1_555 1_555
C39_3 C35_3 1_555 1_555
H27_3 C39_3 1_555 1_555
H28_3 C39_3 1_555 1_555
H29_3 C39_3 1_555 1_555
Co6_2 O3_2 1_555 1_555
O11_2 Co5 1_555 1_555
O12_2 Co5 1_555 1_555
O13_2 Co3 1_555 1_555
O14_2 Co3 1_555 1_555
O4_2 Co6_2 1_555 1_555
O6_3 C6_3 1_555 1_555
C8_3 C21_3 1_555 1_555
C8_3 C27_3 1_555 1_555
C11_3 C25_3 1_555 1_555
C11_3 C26_3 1_555 1_555
C17_3 C23_3 1_555 1_555
C17_3 C27_3 1_555 1_555
C18_3 C28_3 1_555 1_555
C24_3 C25_3 1_555 1_555
C32_3 C38_3 1_555 1_555
C33_3 C37_3 1_555 1_555
C34_3 C36_3 1_555 1_555
C35_3 O10_3 1_555 1_555
O13_2 C3_4 1_555 1_555
O14_2 C3_4 1_555 1_555
Co4_2 N1_4 1_555 1_555
Co6_2 O2_4 1_555 1_555
N1_4 C14_4 1_555 1_555
O1_4 Co4_2 1_555 1_555
O2_4 C4_4 1_555 1_555
N3_4 Co6_2 1_555 1_555
O6_4 Co6_2 1_555 1_555
O8_4 Co4_2 1_555 1_555
C4_4 O8_4 1_555 1_555
C6_4 O1_4 1_555 1_555
C12_4 H6_4 1_555 1_555
C14_4 H8_4 1_555 1_555
C15_4 C6_4 1_555 1_555
C18_4 N1_4 1_555 1_555
H11_4 C18_4 1_555 1_555
C19_4 C4_4 1_555 1_555
C20_4 C19_4 1_555 1_555
H12_4 C20_4 1_555 1_555
C30_4 C20_4 1_555 1_555
C31_4 C30_4 1_555 1_555
C32_4 C15_4 1_555 1_555
H20_4 C32_4 1_555 1_555
C33_4 C19_4 1_555 1_555
H21_4 C33_4 1_555 1_555
C34_4 C15_4 1_555 1_555
H22_4 C34_4 1_555 1_555
C36_4 C29_4 1_555 1_555
H24_4 C36_4 1_555 1_555
C37_4 C31_4 1_555 1_555
H25_4 C37_4 1_555 1_555
C38_4 C29_4 1_555 1_555
C40_4 C12_4 1_555 1_555
H30_4 C40_4 1_555 1_555
H31_4 C40_4 1_555 1_555
H32_4 C40_4 1_555 1_555
N5_2 Co6_2 1_555 1_555
N6_2 Co4_2 1_555 1_555
O6_4 C6_4 1_555 1_555
C32_4 C38_4 1_555 1_555
C33_4 C37_4 1_555 1_555
C34_4 C36_4 1_555 1_555
N5_2 C7_4 1_555 1_555
C1_4 C9_4 1_555 1_555
N6_2 C13_4 1_555 1_555
C2_4 C22_4 1_555 1_555
C7_4 H1_4 1_555 1_555
C8_4 H2_4 1_555 1_555
C9_4 H3_4 1_555 1_555
C10_4 C1_4 1_555 1_555
H4_4 C10_4 1_555 1_555
C11_4 H5_4 1_555 1_555
C13_4 H7_4 1_555 1_555
C16_4 N5_2 1_555 1_555
H9_4 C16_4 1_555 1_555
C17_4 H10_4 1_555 1_555
H13_4 C21_4 1_555 1_555
H14_4 C22_4 1_555 1_555
H15_4 C23_4 1_555 1_555
C24_4 C13_4 1_555 1_555
H16_4 C24_4 1_555 1_555
C25_4 C2_4 1_555 1_555
C26_4 N6_2 1_555 1_555
H17_4 C26_4 1_555 1_555
C27_4 C1_4 1_555 1_555
C28_4 C2_4 1_555 1_555
H18_4 C28_4 1_555 1_555
C7_4 C10_4 1_555 1_555
C8_4 C21_4 1_555 1_555
C8_4 C27_4 1_555 1_555
C9_4 C16_4 1_555 1_555
C11_4 C25_4 1_555 1_555
C11_4 C26_4 1_555 1_555
C17_4 C23_4 1_555 1_555
C17_4 C27_4 1_555 1_555
C24_4 C25_4 1_555 1_555
O11_2 C5_4 1_555 1_555
O12_2 C5_4 1_555 1_555
C5_4 C35_4 1_555 1_555
C35_4 H23_4 1_555 1_555
C39_4 C35_4 1_555 1_555
H27_4 C39_4 1_555 1_555
H28_4 C39_4 1_555 1_555
H29_4 C39_4 1_555 1_555
C35_4 O10_4 1_555 1_555

#END
