
###############################################################################
#
# This file contains modified crystal structure data generated from the
# MOF subset of the Cambridge Structural Database (CSD) v543 
# hosted by the Cambridge Crystallographic Data Centre (CCDC).
#
# This work is licensed under the Creative Commons
# Attribution-NonCommercial-ShareAlike 4.0 International License.
# To view a copy of this license, visit
# http://creativecommons.org/licenses/by-nc-sa/4.0/
# or send a letter to
# Creative Commons, PO Box 1866, Mountain View, CA 94042, USA.
#
# CIF created using the CSD Python API on 29 September 2022
# The structure has been converted into the P1 space group
# The structure has a 3D framework
# The original CSD entry OZUFOH is in the monoclinic crystal system
# The framework has been calculated to contain at least 10.0% void space
# The void calculation uses a probe of radius 1.32A, grid spacing 0.4
#
###############################################################################

data_OZUFOH
_chemical_formula_moiety         '(C192 H144 N32 Ni8 O32)n'
_symmetry_cell_setting           triclinic
_symmetry_space_group_name_H-M   'P 1'
_symmetry_Int_Tables_number      1
_space_group_name_Hall           'P 1'
loop_
_symmetry_equiv_pos_site_id
_symmetry_equiv_pos_as_xyz
1 x,y,z
_cell_length_a                   29.515(2)
_cell_length_b                   18.5982(13)
_cell_length_c                   10.1617(7)
_cell_angle_alpha                90
_cell_angle_beta                 108.6450(10)
_cell_angle_gamma                90
_cell_volume                     5285.27
loop_
_atom_site_label
_atom_site_type_symbol
_atom_site_fract_x
_atom_site_fract_y
_atom_site_fract_z
N6 N 0.21758(8) 0.70105(12) 0.3108(2)
H21 H 0.1467 0.4833 0.0509
C28 C 0.17457(11) 0.63399(15) 0.0550(3)
C33 C 0.21055(12) 0.68398(18) 0.0729(3)
C34 C 0.18256(12) 0.65340(17) 0.2927(3)
H25 H 0.1727 0.6425 0.3686
C37 C 0.15989(11) 0.61915(17) 0.1692(3)
H28 H 0.1352 0.5867 0.1622
C41 C 0.23096(12) 0.71537(18) 0.1995(3)
H31 H 0.2554 0.7484 0.2090
Ni5 Ni 0.2500 0.7500 0.5000
C20 C 0.14787(13) 0.95472(18) 0.4006(4)
H16 H 0.1334 0.9210 0.4416
C22 C 0.20798(13) 0.98647(17) 0.3013(4)
H18 H 0.2346 0.9746 0.2756
C23 C 0.18903(11) 0.93581(16) 0.3687(3)
C24 C 0.21197(10) 0.86512(15) 0.4116(3)
O3 O 0.19222(7) 0.81934(11) 0.4688(2)
O4 O 0.25171(7) 0.84934(10) 0.3968(2)
Ni1 Ni 1.0000 0.36432(2) 0.7500
Ni2 Ni 0.7500 0.7500 0.0000
N1 N 0.94760(8) 0.44126(12) 0.6997(2)
N2 N 0.78242(8) 0.70105(12) 0.1892(2)
C1 C 0.91647(11) 0.55453(16) 0.7397(3)
H1 H 0.9190 0.5941 0.7975
N3 N 0.84702(10) 0.60581(14) 0.5762(2)
H2 H 0.8389 0.6250 0.6424
C3 C 0.87767(10) 0.48903(16) 0.5332(3)
H3 H 0.8533 0.4833 0.4491
C4 C 0.82543(11) 0.63399(15) 0.4450(3)
C5 C 0.87989(10) 0.55076(15) 0.6136(3)
C6 C 0.94870(10) 0.49972(16) 0.7782(3)
H4 H 0.9728 0.5030 0.8634
C7 C 0.91189(10) 0.43717(15) 0.5803(3)
H5 H 0.9101 0.3965 0.5255
C9 C 0.78945(12) 0.68398(18) 0.4271(3)
H6 H 0.7791 0.6963 0.5014
C10 C 0.81744(12) 0.65340(17) 0.2073(3)
H7 H 0.8273 0.6425 0.1314
C13 C 0.84011(11) 0.61915(17) 0.3308(3)
H10 H 0.8648 0.5867 0.3378
C17 C 0.76904(12) 0.71537(18) 0.3005(3)
H13 H 0.7446 0.7484 0.2910
O5 O 0.94981(8) 0.28568(11) 0.7569(2)
O6 O 0.99230(7) 0.34358(11) 0.9430(2)
C26 C 0.96051(10) 0.29706(15) 0.8868(3)
C35 C 0.90352(13) 0.20288(18) 0.9120(3)
H26 H 0.8969 0.1916 0.8185
C38 C 0.93578(11) 0.25749(16) 0.9705(3)
C42 C 0.88117(15) 0.1652(2) 0.9908(4)
H32 H 0.8587 0.1300 0.9496
O9 O 0.80778(7) 0.81934(11) 0.0312(2)
O11 O 0.74829(7) 0.84934(10) 0.1032(2)
C44 C 0.85213(13) 0.95472(18) 0.0994(4)
H34 H 0.8666 0.9210 0.0584
C46 C 0.79202(13) 0.98647(17) 0.1987(4)
H36 H 0.7654 0.9746 0.2244
C47 C 0.81097(11) 0.93581(16) 0.1313(3)
C48 C 0.78803(10) 0.86512(15) 0.0884(3)
N9 N 0.28242(8) 0.79895(12) 0.6892(2)
O10 O 0.30778(7) 0.68066(11) 0.5312(2)
O12 O 0.24829(7) 0.65066(10) 0.6032(2)
Ni1_2 Ni 0.5000 0.13568(2) 0.2500
N1_2 N 0.55240(8) 0.05874(12) 0.3003(2)
O1 O 0.44981(8) 0.21432(11) 0.2569(2)
O2 O 0.49230(7) 0.15642(11) 0.4430(2)
C2 C 0.46051(10) 0.20294(15) 0.3868(3)
C3_2 C 0.62233(10) 0.01097(16) 0.4668(3)
H3_2 H 0.6467 0.0167 0.5509
C6_2 C 0.55130(10) 0.00028(16) 0.2218(3)
C7_2 C 0.58811(10) 0.06283(15) 0.4197(3)
H5_2 H 0.5899 0.1035 0.4745
C8 C 0.39243(14) 0.32005(17) 0.6334(4)
C11 C 0.40352(13) 0.29712(18) 0.4120(3)
H8 H 0.3969 0.3084 0.3185
C12 C 0.44515(12) 0.22642(17) 0.6095(3)
H9 H 0.4662 0.1893 0.6495
N4 N 0.36967(14) 0.35696(16) 0.7148(4)
H11 H 0.3668 0.3349 0.7861
C14 C 0.43578(11) 0.24251(16) 0.4705(3)
C15 C 0.42352(14) 0.26504(18) 0.6901(4)
H12 H 0.4302 0.2535 0.7834
C16 C 0.35123(14) 0.42650(17) 0.6899(4)
C18 C 0.38117(15) 0.3348(2) 0.4908(4)
H14 H 0.3587 0.3700 0.4496
C19 C 0.37133(14) 0.47791(19) 0.6274(4)
H15 H 0.3984 0.4664 0.6040
C20_2 C 0.35213(13) 0.54528(18) 0.5994(4)
H16_2 H 0.3666 0.5790 0.5584
C21 C 0.31170(15) 0.44585(18) 0.7287(4)
H17 H 0.2985 0.4130 0.7751
C22_2 C 0.29202(13) 0.51353(17) 0.6987(4)
H18_2 H 0.2654 0.5254 0.7244
C23_2 C 0.31097(11) 0.56419(16) 0.6313(3)
C24_2 C 0.28803(10) 0.63488(15) 0.5884(3)
N5 N 0.44760(8) 0.05874(12) 0.1997(2)
O5_2 O 0.55019(8) 0.21432(11) 0.2431(2)
O6_2 O 0.50770(7) 0.15642(11) 0.0570(2)
C26_2 C 0.53949(10) 0.20294(15) 0.1132(3)
C27 C 0.37767(10) 0.01097(16) 0.0332(3)
C30 C 0.44870(10) 0.00028(16) 0.2782(3)
C31 C 0.41189(10) 0.06283(15) 0.0803(3)
H23 H 0.4101 0.1035 0.0255
C35_2 C 0.59648(13) 0.29712(18) 0.0880(3)
H26_2 H 0.6031 0.3084 0.1815
C38_2 C 0.56422(11) 0.24251(16) 0.0295(3)
C42_2 C 0.61883(15) 0.3348(2) 0.0092(4)
H32_2 H 0.6413 0.3700 0.0504
C28_2 C 0.32543(11) 0.86601(15) 0.9450(3)
C33_2 C 0.28945(12) 0.81602(18) 0.9271(3)
C34_2 C 0.31744(12) 0.84660(17) 0.7073(3)
H25_2 H 0.3273 0.8575 0.6314
C37_2 C 0.34011(11) 0.88085(17) 0.8308(3)
H28_2 H 0.3648 0.9133 0.8378
C41_2 C 0.26904(12) 0.78463(18) 0.8005(3)
H31_2 H 0.2446 0.7516 0.7910
Ni1_3 Ni 0.0000 0.36432(2) 0.7500
O1_2 O 0.05019(8) 0.28568(11) 0.7431(2)
O2_2 O 0.00770(7) 0.34358(11) 0.5570(2)
C2_2 C 0.03949(10) 0.29706(15) 0.6132(3)
C8_2 C 0.10757(14) 0.17995(17) 0.3666(4)
C11_2 C 0.09648(13) 0.20288(18) 0.5880(3)
H8_2 H 0.1031 0.1916 0.6815
C12_2 C 0.05485(12) 0.27358(17) 0.3905(3)
H9_2 H 0.0338 0.3107 0.3505
N4_2 N 0.13033(14) 0.14304(16) 0.2852(4)
H11_2 H 0.1332 0.1651 0.2139
C14_2 C 0.06422(11) 0.25749(16) 0.5295(3)
C15_2 C 0.07648(14) 0.23496(18) 0.3099(4)
H12_2 H 0.0698 0.2465 0.2166
C16_2 C 0.14877(14) 0.07350(17) 0.3101(4)
C18_2 C 0.11883(15) 0.1652(2) 0.5092(4)
H14_2 H 0.1413 0.1300 0.5504
C19_2 C 0.12867(14) 0.02209(19) 0.3726(4)
H15_2 H 0.1016 0.0336 0.3960
C21_2 C 0.18830(15) 0.05415(18) 0.2713(4)
H17_2 H 0.2015 0.0870 0.2249
N5_2 N 0.05240(8) 0.44126(12) 0.8003(2)
C25 C 0.08353(11) 0.55453(16) 0.7603(3)
H19 H 0.0810 0.5941 0.7025
N7 N 0.15298(10) 0.60581(14) 0.9238(2)
H20 H 0.1611 0.6250 0.8576
C27_2 C 0.12233(10) 0.48903(16) 0.9668(3)
C29 C 0.12011(10) 0.55076(15) 0.8864(3)
C30_2 C 0.05130(10) 0.49972(16) 0.7218(3)
H22 H 0.0272 0.5030 0.6366
C31_2 C 0.08811(10) 0.43717(15) 0.9197(3)
H23_2 H 0.0899 0.3965 0.9745
H24 H 0.2209 0.6963 0.9986
C32 C 0.89243(14) 0.17995(17) 0.1334(4)
C36 C 0.94515(12) 0.27358(17) 0.1095(3)
H27 H 0.9662 0.3107 0.1495
N8 N 0.86967(14) 0.14304(16) 0.2148(4)
H29 H 0.8668 0.1651 0.2861
C39 C 0.92352(14) 0.23496(18) 0.1901(4)
H30 H 0.9302 0.2465 0.2834
C40 C 0.85123(14) 0.07350(17) 0.1899(4)
C43 C 0.87133(14) 0.02209(19) 0.1274(4)
H33 H 0.8984 0.0336 0.1040
C45 C 0.81170(15) 0.05415(18) 0.2287(4)
H35 H 0.7985 0.0870 0.2751
Ni2_2 Ni 0.7500 0.7500 1.0000
N9_2 N 0.71758(8) 0.79895(12) 0.8108(2)
O10_2 O 0.69222(7) 0.68066(11) 0.9688(2)
O12_2 O 0.75171(7) 0.65066(10) 0.8968(2)
H21_2 H 0.3533 0.0167 0.9491
C32_2 C 0.60757(14) 0.32005(17) 0.8666(4)
C36_2 C 0.55485(12) 0.22642(17) 0.8905(3)
H27_2 H 0.5338 0.1893 0.8505
N8_2 N 0.63033(14) 0.35696(16) 0.7852(4)
H29_2 H 0.6332 0.3349 0.7139
C39_2 C 0.57648(14) 0.26504(18) 0.8099(4)
H30_2 H 0.5698 0.2535 0.7166
C40_2 C 0.64877(14) 0.42650(17) 0.8101(4)
C43_2 C 0.62867(14) 0.47791(19) 0.8726(4)
H33_2 H 0.6016 0.4664 0.8960
C44_2 C 0.64787(13) 0.54528(18) 0.9006(4)
H34_2 H 0.6334 0.5790 0.9416
C45_2 C 0.68830(15) 0.44585(18) 0.7713(4)
H35_2 H 0.7015 0.4130 0.7249
C46_2 C 0.70798(13) 0.51353(17) 0.8013(4)
H36_2 H 0.7346 0.5254 0.7756
C47_2 C 0.68903(11) 0.56419(16) 0.8687(3)
C48_2 C 0.71197(10) 0.63488(15) 0.9116(3)
C1_2 C 0.58353(11) 0.94547(16) 0.2603(3)
H1_2 H 0.5810 0.9059 0.2025
N3_2 N 0.65298(10) 0.89419(14) 0.4238(2)
H2_2 H 0.6611 0.8750 0.3576
C4_2 C 0.67457(11) 0.86601(15) 0.5550(3)
C5_2 C 0.62011(10) 0.94924(15) 0.3864(3)
H4_2 H 0.5272 0.9970 0.1366
C9_2 C 0.71055(12) 0.81602(18) 0.5729(3)
H6_2 H 0.7209 0.8037 0.4986
C10_2 C 0.68256(12) 0.84660(17) 0.7927(3)
H7_2 H 0.6727 0.8575 0.8686
C13_2 C 0.65989(11) 0.88085(17) 0.6692(3)
H10_2 H 0.6352 0.9133 0.6622
C17_2 C 0.73096(12) 0.78463(18) 0.6995(3)
H13_2 H 0.7554 0.7516 0.7090
C25_2 C 0.41647(11) 0.94547(16) 0.2397(3)
H19_2 H 0.4190 0.9059 0.2975
N7_2 N 0.34702(10) 0.89419(14) 0.0762(2)
H20_2 H 0.3389 0.8750 0.1424
C29_2 C 0.37989(10) 0.94924(15) 0.1136(3)
H22_2 H 0.4728 0.9970 0.3634
H24_2 H 0.2791 0.8037 0.0014
N6_2 N 0.71758(8) 0.20105(12) 0.3108(2)
C28_3 C 0.67457(11) 0.13399(15) 0.0550(3)
C33_3 C 0.71055(12) 0.18398(18) 0.0729(3)
C34_3 C 0.68256(12) 0.15340(17) 0.2927(3)
H25_3 H 0.6727 0.1425 0.3686
C37_3 C 0.65989(11) 0.11915(17) 0.1692(3)
H28_3 H 0.6352 0.0867 0.1622
C41_3 C 0.73096(12) 0.21537(18) 0.1995(3)
H31_3 H 0.7554 0.2484 0.2090
Ni5_2 Ni 0.7500 0.2500 0.5000
Ni2_3 Ni 0.2500 0.2500 1.0000
N9_3 N 0.21758(8) 0.29895(12) 0.8108(2)
O10_3 O 0.19222(7) 0.18066(11) 0.9688(2)
O12_3 O 0.25171(7) 0.15066(10) 0.8968(2)
Ni1_4 Ni 0.5000 0.86432(2) 0.7500
N1_3 N 0.44760(8) 0.94126(12) 0.6997(2)
O1_3 O 0.55019(8) 0.78568(11) 0.7431(2)
O2_3 O 0.50770(7) 0.84358(11) 0.5570(2)
C2_3 C 0.53949(10) 0.79706(15) 0.6132(3)
C3_3 C 0.37767(10) 0.98903(16) 0.5332(3)
H3_3 H 0.3533 0.9833 0.4491
C6_3 C 0.44870(10) 0.99972(16) 0.7782(3)
C7_3 C 0.41189(10) 0.93717(15) 0.5803(3)
H5_3 H 0.4101 0.8965 0.5255
C8_3 C 0.60757(14) 0.67995(17) 0.3666(4)
C11_3 C 0.59648(13) 0.70288(18) 0.5880(3)
H8_3 H 0.6031 0.6916 0.6815
C12_3 C 0.55485(12) 0.77358(17) 0.3905(3)
H9_3 H 0.5338 0.8107 0.3505
N4_3 N 0.63033(14) 0.64304(16) 0.2852(4)
H11_3 H 0.6332 0.6651 0.2139
C14_3 C 0.56422(11) 0.75749(16) 0.5295(3)
C15_3 C 0.57648(14) 0.73496(18) 0.3099(4)
H12_3 H 0.5698 0.7465 0.2166
C16_3 C 0.64877(14) 0.57350(17) 0.3101(4)
C18_3 C 0.61883(15) 0.6652(2) 0.5092(4)
H14_3 H 0.6413 0.6300 0.5504
C19_3 C 0.62867(14) 0.52209(19) 0.3726(4)
H15_3 H 0.6016 0.5336 0.3960
C20_3 C 0.64787(13) 0.45472(18) 0.4006(4)
H16_3 H 0.6334 0.4210 0.4416
C21_3 C 0.68830(15) 0.55415(18) 0.2713(4)
H17_3 H 0.7015 0.5870 0.2249
C22_3 C 0.70798(13) 0.48647(17) 0.3013(4)
H18_3 H 0.7346 0.4746 0.2756
C23_3 C 0.68903(11) 0.43581(16) 0.3687(3)
C24_3 C 0.71197(10) 0.36512(15) 0.4116(3)
O3_2 O 0.69222(7) 0.31934(11) 0.4688(2)
O4_2 O 0.75171(7) 0.34934(10) 0.3968(2)
N5_3 N 0.55240(8) 0.94126(12) 0.8003(2)
O5_3 O 0.44981(8) 0.78568(11) 0.7569(2)
O6_3 O 0.49230(7) 0.84358(11) 0.9430(2)
C26_3 C 0.46051(10) 0.79706(15) 0.8868(3)
C27_3 C 0.62233(10) 0.98903(16) 0.9668(3)
C30_3 C 0.55130(10) 0.99972(16) 0.7218(3)
C31_3 C 0.58811(10) 0.93717(15) 0.9197(3)
H23_3 H 0.5899 0.8965 0.9745
C35_3 C 0.40352(13) 0.70288(18) 0.9120(3)
H26_3 H 0.3969 0.6916 0.8185
C38_3 C 0.43578(11) 0.75749(16) 0.9705(3)
C42_3 C 0.38117(15) 0.6652(2) 0.9908(4)
H32_3 H 0.3587 0.6300 0.9496
N9_4 N 0.78242(8) 0.29895(12) 0.6892(2)
O10_4 O 0.80778(7) 0.18066(11) 0.5312(2)
O12_4 O 0.74829(7) 0.15066(10) 0.6032(2)
C44_3 C 0.14787(13) 0.04528(18) 0.9006(4)
H34_3 H 0.1334 0.0790 0.9416
C46_3 C 0.20798(13) 0.01353(17) 0.8013(4)
H36_3 H 0.2346 0.0254 0.7756
C47_3 C 0.18903(11) 0.06419(16) 0.8687(3)
C48_3 C 0.21197(10) 0.13488(15) 0.9116(3)
Ni1_5 Ni -0.0000 0.63568(2) 0.2500
N1_4 N 0.05240(8) 0.55874(12) 0.3003(2)
C1_3 C 0.08353(11) 0.44547(16) 0.2603(3)
H1_3 H 0.0810 0.4059 0.2025
N3_3 N 0.15298(10) 0.39419(14) 0.4238(2)
H2_3 H 0.1611 0.3750 0.3576
C3_4 C 0.12233(10) 0.51097(16) 0.4668(3)
H3_4 H 0.1467 0.5167 0.5509
C4_3 C 0.17457(11) 0.36601(15) 0.5550(3)
C5_3 C 0.12011(10) 0.44924(15) 0.3864(3)
C6_4 C 0.05130(10) 0.50028(16) 0.2218(3)
H4_3 H 0.0272 0.4970 0.1366
C7_4 C 0.08811(10) 0.56283(15) 0.4197(3)
H5_4 H 0.0899 0.6035 0.4745
C9_3 C 0.21055(12) 0.31602(18) 0.5729(3)
H6_3 H 0.2209 0.3037 0.4986
C10_3 C 0.18256(12) 0.34660(17) 0.7927(3)
H7_3 H 0.1727 0.3575 0.8686
C13_3 C 0.15989(11) 0.38085(17) 0.6692(3)
H10_3 H 0.1352 0.4133 0.6622
C17_3 C 0.23096(12) 0.28463(18) 0.6995(3)
H13_3 H 0.2554 0.2516 0.7090
O5_4 O 0.05019(8) 0.71432(11) 0.2431(2)
O6_4 O 0.00770(7) 0.65642(11) 0.0570(2)
C26_4 C 0.03949(10) 0.70294(15) 0.1132(3)
C35_4 C 0.09648(13) 0.79712(18) 0.0880(3)
H26_4 H 0.1031 0.8084 0.1815
C38_4 C 0.06422(11) 0.74251(16) 0.0295(3)
C42_4 C 0.11883(15) 0.8348(2) 0.0092(4)
H32_4 H 0.1413 0.8700 0.0504
C20_4 C 0.85213(13) 0.04528(18) 0.5994(4)
H16_4 H 0.8666 0.0790 0.5584
C22_4 C 0.79202(13) 0.01353(17) 0.6987(4)
H18_4 H 0.7654 0.0254 0.7244
C23_4 C 0.81097(11) 0.06419(16) 0.6313(3)
C24_4 C 0.78803(10) 0.13488(15) 0.5884(3)
H21_3 H 0.8533 0.5167 0.9491
C28_4 C 0.82543(11) 0.36601(15) 0.9450(3)
C33_4 C 0.78945(12) 0.31602(18) 0.9271(3)
C34_4 C 0.81744(12) 0.34660(17) 0.7073(3)
H25_4 H 0.8273 0.3575 0.6314
C37_4 C 0.84011(11) 0.38085(17) 0.8308(3)
H28_4 H 0.8648 0.4133 0.8378
C41_4 C 0.76904(12) 0.28463(18) 0.8005(3)
H31_4 H 0.7446 0.2516 0.7910
Ni2_4 Ni 0.2500 0.2500 0.0000
N2_2 N 0.28242(8) 0.20105(12) 0.1892(2)
C1_4 C 0.41647(11) 0.05453(16) 0.7397(3)
H1_4 H 0.4190 0.0941 0.7975
N3_4 N 0.34702(10) 0.10581(14) 0.5762(2)
H2_4 H 0.3389 0.1250 0.6424
C4_4 C 0.32543(11) 0.13399(15) 0.4450(3)
C5_4 C 0.37989(10) 0.05076(15) 0.6136(3)
H4_4 H 0.4728 0.0030 0.8634
C9_4 C 0.28945(12) 0.18398(18) 0.4271(3)
H6_4 H 0.2791 0.1963 0.5014
C10_4 C 0.31744(12) 0.15340(17) 0.2073(3)
H7_4 H 0.3273 0.1425 0.1314
C13_4 C 0.34011(11) 0.11915(17) 0.3308(3)
H10_4 H 0.3648 0.0867 0.3378
C17_4 C 0.26904(12) 0.21537(18) 0.3005(3)
H13_4 H 0.2446 0.2484 0.2910
C25_3 C 0.58353(11) 0.05453(16) 0.7603(3)
H19_3 H 0.5810 0.0941 0.7025
N7_3 N 0.65298(10) 0.10581(14) 0.9238(2)
H20_3 H 0.6611 0.1250 0.8576
C29_3 C 0.62011(10) 0.05076(15) 0.8864(3)
H22_3 H 0.5272 0.0030 0.6366
H24_3 H 0.7209 0.1963 0.9986
O9_2 O 0.30778(7) 0.31934(11) 0.0312(2)
O11_2 O 0.24829(7) 0.34934(10) 0.1032(2)
H21_4 H 0.6467 0.9833 0.0509
C32_3 C 0.39243(14) 0.67995(17) 0.1334(4)
C36_3 C 0.44515(12) 0.77358(17) 0.1095(3)
H27_3 H 0.4662 0.8107 0.1495
N8_3 N 0.36967(14) 0.64304(16) 0.2148(4)
H29_3 H 0.3668 0.6651 0.2861
C39_3 C 0.42352(14) 0.73496(18) 0.1901(4)
H30_3 H 0.4302 0.7465 0.2834
C40_3 C 0.35123(14) 0.57350(17) 0.1899(4)
C43_3 C 0.37133(14) 0.52209(19) 0.1274(4)
H33_3 H 0.3984 0.5336 0.1040
C44_4 C 0.35213(13) 0.45472(18) 0.0994(4)
H34_4 H 0.3666 0.4210 0.0584
C45_3 C 0.31170(15) 0.55415(18) 0.2287(4)
H35_3 H 0.2985 0.5870 0.2751
C46_4 C 0.29202(13) 0.48647(17) 0.1987(4)
H36_4 H 0.2654 0.4746 0.2244
C47_4 C 0.31097(11) 0.43581(16) 0.1313(3)
C48_4 C 0.28803(10) 0.36512(15) 0.0884(3)
C32_4 C 0.10757(14) 0.82005(17) 0.8666(4)
C36_4 C 0.05485(12) 0.72642(17) 0.8905(3)
H27_4 H 0.0338 0.6893 0.8505
N8_4 N 0.13033(14) 0.85696(16) 0.7852(4)
H29_4 H 0.1332 0.8349 0.7139
C39_4 C 0.07648(14) 0.76504(18) 0.8099(4)
H30_4 H 0.0698 0.7535 0.7166
C40_4 C 0.14877(14) 0.92650(17) 0.8101(4)
C43_4 C 0.12867(14) 0.97791(19) 0.8726(4)
H33_4 H 0.1016 0.9664 0.8960
C45_4 C 0.18830(15) 0.94585(18) 0.7713(4)
H35_4 H 0.2015 0.9130 0.7249
Ni1_6 Ni 1.0000 0.63568(2) 0.2500
O1_4 O 0.94981(8) 0.71432(11) 0.2569(2)
O2_4 O 0.99230(7) 0.65642(11) 0.4430(2)
C2_4 C 0.96051(10) 0.70294(15) 0.3868(3)
C8_4 C 0.89243(14) 0.82005(17) 0.6334(4)
C11_4 C 0.90352(13) 0.79712(18) 0.4120(3)
H8_4 H 0.8969 0.8084 0.3185
C12_4 C 0.94515(12) 0.72642(17) 0.6095(3)
H9_4 H 0.9662 0.6893 0.6495
N4_4 N 0.86967(14) 0.85696(16) 0.7148(4)
H11_4 H 0.8668 0.8349 0.7861
C14_4 C 0.93578(11) 0.74251(16) 0.4705(3)
C15_4 C 0.92352(14) 0.76504(18) 0.6901(4)
H12_4 H 0.9302 0.7535 0.7834
C16_4 C 0.85123(14) 0.92650(17) 0.6899(4)
C18_4 C 0.88117(15) 0.8348(2) 0.4908(4)
H14_4 H 0.8587 0.8700 0.4496
C19_4 C 0.87133(14) 0.97791(19) 0.6274(4)
H15_4 H 0.8984 0.9664 0.6040
C21_4 C 0.81170(15) 0.94585(18) 0.7287(4)
H17_4 H 0.7985 0.9130 0.7751
N5_4 N 0.94760(8) 0.55874(12) 0.1997(2)
C25_4 C 0.91647(11) 0.44547(16) 0.2397(3)
H19_4 H 0.9190 0.4059 0.2975
N7_4 N 0.84702(10) 0.39419(14) 0.0762(2)
H20_4 H 0.8389 0.3750 0.1424
C27_4 C 0.87767(10) 0.51097(16) 0.0332(3)
C29_4 C 0.87989(10) 0.44924(15) 0.1136(3)
C30_4 C 0.94870(10) 0.50028(16) 0.2782(3)
H22_4 H 0.9728 0.4970 0.3634
C31_4 C 0.91189(10) 0.56283(15) 0.0803(3)
H23_4 H 0.9101 0.6035 0.0255
H24_4 H 0.7791 0.3037 0.0014
loop_
_geom_bond_atom_site_label_1
_geom_bond_atom_site_label_2
_geom_bond_site_symmetry_1
_geom_bond_site_symmetry_2
N6 C34 1_555 1_555
C33 C28 1_555 1_555
C34 H25 1_555 1_555
C37 C28 1_555 1_555
H28 C37 1_555 1_555
C41 N6 1_555 1_555
H31 C41 1_555 1_555
Ni5 N6 1_555 1_555
C33 C41 1_555 1_555
C34 C37 1_555 1_555
H16 C20 1_555 1_555
H18 C22 1_555 1_555
C23 C20 1_555 1_555
C24 C23 1_555 1_555
O3 C24 1_555 1_555
O4 C24 1_555 1_555
Ni5 O3 1_555 1_555
C22 C23 1_555 1_555
O4 Ni5 1_555 1_555
Ni1 N1 1_555 1_555
Ni2 N2 1_555 1_555
N1 C6 1_555 1_555
N2 C10 1_555 1_555
C1 H1 1_555 1_555
N3 H2 1_555 1_555
C3 H3 1_555 1_555
C4 N3 1_555 1_555
C5 C1 1_555 1_555
C6 C1 1_555 1_555
H4 C6 1_555 1_555
C7 N1 1_555 1_555
H5 C7 1_555 1_555
C9 C4 1_555 1_555
H6 C9 1_555 1_555
C10 H7 1_555 1_555
C13 C4 1_555 1_555
H10 C13 1_555 1_555
C17 N2 1_555 1_555
H13 C17 1_555 1_555
O5 Ni1 1_555 1_555
O6 Ni1 1_555 1_555
C26 O5 1_555 1_555
C35 H26 1_555 1_555
C38 C26 1_555 1_555
H32 C42 1_555 1_555
O9 Ni2 1_555 1_555
O11 Ni2 1_555 1_555
N3 C5 1_555 1_555
C3 C5 1_555 1_555
C3 C7 1_555 1_555
C9 C17 1_555 1_555
C10 C13 1_555 1_555
O6 C26 1_555 1_555
C35 C38 1_555 1_555
C35 C42 1_555 1_555
H34 C44 1_555 1_555
H36 C46 1_555 1_555
C47 C44 1_555 1_555
C48 C47 1_555 1_555
O9 C48 1_555 1_555
O11 C48 1_555 1_555
C46 C47 1_555 1_555
N9 Ni5 1_555 1_555
O10 Ni5 1_555 1_555
O12 Ni5 1_555 1_555
Ni1_2 N1_2 1_555 1_555
N1_2 C6_2 1_555 1_555
O1 Ni1_2 1_555 1_555
O2 Ni1_2 1_555 1_555
C2 O1 1_555 1_555
C3_2 H3_2 1_555 1_555
C7_2 N1_2 1_555 1_555
H5_2 C7_2 1_555 1_555
C8 N4 1_555 1_555
C11 H8 1_555 1_555
C12 H9 1_555 1_555
N4 H11 1_555 1_555
C14 C2 1_555 1_555
C15 C8 1_555 1_555
H12 C15 1_555 1_555
C16 N4 1_555 1_555
C18 C8 1_555 1_555
H14 C18 1_555 1_555
C19 C16 1_555 1_555
H15 C19 1_555 1_555
C20_2 C19 1_555 1_555
H16_2 C20_2 1_555 1_555
C21 C16 1_555 1_555
H17 C21 1_555 1_555
C22_2 C21 1_555 1_555
H18_2 C22_2 1_555 1_555
C23_2 C20_2 1_555 1_555
C24_2 C23_2 1_555 1_555
O10 C24_2 1_555 1_555
O12 C24_2 1_555 1_555
N5 Ni1_2 1_555 1_555
O5_2 Ni1_2 1_555 1_555
O6_2 Ni1_2 1_555 1_555
C26_2 O5_2 1_555 1_555
C30 N5 1_555 1_555
C31 N5 1_555 1_555
H23 C31 1_555 1_555
C35_2 H26_2 1_555 1_555
C38_2 C26_2 1_555 1_555
H32_2 C42_2 1_555 1_555
O2 C2 1_555 1_555
C3_2 C7_2 1_555 1_555
C11 C14 1_555 1_555
C11 C18 1_555 1_555
C12 C14 1_555 1_555
C12 C15 1_555 1_555
C22_2 C23_2 1_555 1_555
O6_2 C26_2 1_555 1_555
C27 C31 1_555 1_555
C35_2 C38_2 1_555 1_555
C35_2 C42_2 1_555 1_555
N9 C34_2 1_555 1_555
C33_2 C28_2 1_555 1_555
C34_2 H25_2 1_555 1_555
C37_2 C28_2 1_555 1_555
H28_2 C37_2 1_555 1_555
C41_2 N9 1_555 1_555
H31_2 C41_2 1_555 1_555
C33_2 C41_2 1_555 1_555
C34_2 C37_2 1_555 1_555
O1_2 Ni1_3 1_555 1_555
O2_2 Ni1_3 1_555 1_555
C2_2 O1_2 1_555 1_555
C8_2 N4_2 1_555 1_555
C11_2 H8_2 1_555 1_555
C12_2 H9_2 1_555 1_555
N4_2 H11_2 1_555 1_555
C14_2 C2_2 1_555 1_555
C15_2 C8_2 1_555 1_555
H12_2 C15_2 1_555 1_555
C16_2 N4_2 1_555 1_555
C18_2 C8_2 1_555 1_555
H14_2 C18_2 1_555 1_555
C19_2 C16_2 1_555 1_555
H15_2 C19_2 1_555 1_555
C21_2 C16_2 1_555 1_555
H17_2 C21_2 1_555 1_555
N5_2 Ni1_3 1_555 1_555
C25 H19 1_555 1_555
N7 H20 1_555 1_555
C29 C25 1_555 1_555
C30_2 N5_2 1_555 1_555
H22 C30_2 1_555 1_555
C31_2 N5_2 1_555 1_555
H23_2 C31_2 1_555 1_555
O2_2 C2_2 1_555 1_555
C11_2 C14_2 1_555 1_555
C11_2 C18_2 1_555 1_555
C12_2 C14_2 1_555 1_555
C12_2 C15_2 1_555 1_555
C25 C30_2 1_555 1_555
N7 C29 1_555 1_555
C27_2 C29 1_555 1_555
C27_2 C31_2 1_555 1_555
C32 N8 1_555 1_555
C36 H27 1_555 1_555
N8 H29 1_555 1_555
C39 C32 1_555 1_555
H30 C39 1_555 1_555
C40 N8 1_555 1_555
C43 C40 1_555 1_555
H33 C43 1_555 1_555
C45 C40 1_555 1_555
H35 C45 1_555 1_555
C36 C39 1_555 1_555
N9_2 Ni2_2 1_555 1_555
O10_2 Ni2_2 1_555 1_555
O12_2 Ni2_2 1_555 1_555
C32_2 N8_2 1_555 1_555
C36_2 H27_2 1_555 1_555
N8_2 H29_2 1_555 1_555
C39_2 C32_2 1_555 1_555
H30_2 C39_2 1_555 1_555
C40_2 N8_2 1_555 1_555
C43_2 C40_2 1_555 1_555
H33_2 C43_2 1_555 1_555
C44_2 C43_2 1_555 1_555
H34_2 C44_2 1_555 1_555
C45_2 C40_2 1_555 1_555
H35_2 C45_2 1_555 1_555
C46_2 C45_2 1_555 1_555
H36_2 C46_2 1_555 1_555
C47_2 C44_2 1_555 1_555
C48_2 C47_2 1_555 1_555
O10_2 C48_2 1_555 1_555
O12_2 C48_2 1_555 1_555
C36_2 C39_2 1_555 1_555
C46_2 C47_2 1_555 1_555
N9_2 C10_2 1_555 1_555
C1_2 H1_2 1_555 1_555
N3_2 H2_2 1_555 1_555
C4_2 N3_2 1_555 1_555
C5_2 C1_2 1_555 1_555
C9_2 C4_2 1_555 1_555
H6_2 C9_2 1_555 1_555
C10_2 H7_2 1_555 1_555
C13_2 C4_2 1_555 1_555
H10_2 C13_2 1_555 1_555
C17_2 N9_2 1_555 1_555
H13_2 C17_2 1_555 1_555
C25_2 H19_2 1_555 1_555
N7_2 H20_2 1_555 1_555
C29_2 C25_2 1_555 1_555
N3_2 C5_2 1_555 1_555
C9_2 C17_2 1_555 1_555
C10_2 C13_2 1_555 1_555
N7_2 C29_2 1_555 1_555
N6_2 C34_3 1_555 1_555
C33_3 C28_3 1_555 1_555
C34_3 H25_3 1_555 1_555
C37_3 C28_3 1_555 1_555
H28_3 C37_3 1_555 1_555
C41_3 N6_2 1_555 1_555
H31_3 C41_3 1_555 1_555
Ni5_2 N6_2 1_555 1_555
C33_3 C41_3 1_555 1_555
C34_3 C37_3 1_555 1_555
N9_3 Ni2_3 1_555 1_555
O10_3 Ni2_3 1_555 1_555
O12_3 Ni2_3 1_555 1_555
Ni1_4 N1_3 1_555 1_555
N1_3 C6_3 1_555 1_555
O1_3 Ni1_4 1_555 1_555
O2_3 Ni1_4 1_555 1_555
C2_3 O1_3 1_555 1_555
C3_3 H3_3 1_555 1_555
C7_3 N1_3 1_555 1_555
H5_3 C7_3 1_555 1_555
C8_3 N4_3 1_555 1_555
C11_3 H8_3 1_555 1_555
C12_3 H9_3 1_555 1_555
N4_3 H11_3 1_555 1_555
C14_3 C2_3 1_555 1_555
C15_3 C8_3 1_555 1_555
H12_3 C15_3 1_555 1_555
C16_3 N4_3 1_555 1_555
C18_3 C8_3 1_555 1_555
H14_3 C18_3 1_555 1_555
C19_3 C16_3 1_555 1_555
H15_3 C19_3 1_555 1_555
C20_3 C19_3 1_555 1_555
H16_3 C20_3 1_555 1_555
C21_3 C16_3 1_555 1_555
H17_3 C21_3 1_555 1_555
C22_3 C21_3 1_555 1_555
H18_3 C22_3 1_555 1_555
C23_3 C20_3 1_555 1_555
C24_3 C23_3 1_555 1_555
O3_2 C24_3 1_555 1_555
O4_2 C24_3 1_555 1_555
N5_3 Ni1_4 1_555 1_555
O5_3 Ni1_4 1_555 1_555
O6_3 Ni1_4 1_555 1_555
C26_3 O5_3 1_555 1_555
C30_3 N5_3 1_555 1_555
C31_3 N5_3 1_555 1_555
H23_3 C31_3 1_555 1_555
C35_3 H26_3 1_555 1_555
C38_3 C26_3 1_555 1_555
H32_3 C42_3 1_555 1_555
Ni5_2 O3_2 1_555 1_555
O2_3 C2_3 1_555 1_555
C3_3 C7_3 1_555 1_555
C11_3 C14_3 1_555 1_555
C11_3 C18_3 1_555 1_555
C12_3 C14_3 1_555 1_555
C12_3 C15_3 1_555 1_555
C22_3 C23_3 1_555 1_555
O4_2 Ni5_2 1_555 1_555
O6_3 C26_3 1_555 1_555
C27_3 C31_3 1_555 1_555
C35_3 C38_3 1_555 1_555
C35_3 C42_3 1_555 1_555
N9_4 Ni5_2 1_555 1_555
O10_4 Ni5_2 1_555 1_555
O12_4 Ni5_2 1_555 1_555
H34_3 C44_3 1_555 1_555
H36_3 C46_3 1_555 1_555
C47_3 C44_3 1_555 1_555
C48_3 C47_3 1_555 1_555
O10_3 C48_3 1_555 1_555
O12_3 C48_3 1_555 1_555
C46_3 C47_3 1_555 1_555
Ni1_5 N1_4 1_555 1_555
N1_4 C6_4 1_555 1_555
N9_3 C10_3 1_555 1_555
C1_3 H1_3 1_555 1_555
N3_3 H2_3 1_555 1_555
C3_4 H3_4 1_555 1_555
C4_3 N3_3 1_555 1_555
C5_3 C1_3 1_555 1_555
C6_4 C1_3 1_555 1_555
H4_3 C6_4 1_555 1_555
C7_4 N1_4 1_555 1_555
H5_4 C7_4 1_555 1_555
C9_3 C4_3 1_555 1_555
H6_3 C9_3 1_555 1_555
C10_3 H7_3 1_555 1_555
C13_3 C4_3 1_555 1_555
H10_3 C13_3 1_555 1_555
C17_3 N9_3 1_555 1_555
H13_3 C17_3 1_555 1_555
O5_4 Ni1_5 1_555 1_555
O6_4 Ni1_5 1_555 1_555
C26_4 O5_4 1_555 1_555
C35_4 H26_4 1_555 1_555
C38_4 C26_4 1_555 1_555
H32_4 C42_4 1_555 1_555
N3_3 C5_3 1_555 1_555
C3_4 C5_3 1_555 1_555
C3_4 C7_4 1_555 1_555
C9_3 C17_3 1_555 1_555
C10_3 C13_3 1_555 1_555
O6_4 C26_4 1_555 1_555
C35_4 C38_4 1_555 1_555
C35_4 C42_4 1_555 1_555
H16_4 C20_4 1_555 1_555
H18_4 C22_4 1_555 1_555
C23_4 C20_4 1_555 1_555
C24_4 C23_4 1_555 1_555
O10_4 C24_4 1_555 1_555
O12_4 C24_4 1_555 1_555
C22_4 C23_4 1_555 1_555
N9_4 C34_4 1_555 1_555
C33_4 C28_4 1_555 1_555
C34_4 H25_4 1_555 1_555
C37_4 C28_4 1_555 1_555
H28_4 C37_4 1_555 1_555
C41_4 N9_4 1_555 1_555
H31_4 C41_4 1_555 1_555
C33_4 C41_4 1_555 1_555
C34_4 C37_4 1_555 1_555
Ni2_4 N2_2 1_555 1_555
N2_2 C10_4 1_555 1_555
C1_4 H1_4 1_555 1_555
N3_4 H2_4 1_555 1_555
C4_4 N3_4 1_555 1_555
C5_4 C1_4 1_555 1_555
C9_4 C4_4 1_555 1_555
H6_4 C9_4 1_555 1_555
C10_4 H7_4 1_555 1_555
C13_4 C4_4 1_555 1_555
H10_4 C13_4 1_555 1_555
C17_4 N2_2 1_555 1_555
H13_4 C17_4 1_555 1_555
C25_3 H19_3 1_555 1_555
N7_3 H20_3 1_555 1_555
C29_3 C25_3 1_555 1_555
O9_2 Ni2_4 1_555 1_555
O11_2 Ni2_4 1_555 1_555
N3_4 C5_4 1_555 1_555
C9_4 C17_4 1_555 1_555
C10_4 C13_4 1_555 1_555
N7_3 C29_3 1_555 1_555
C32_3 N8_3 1_555 1_555
C36_3 H27_3 1_555 1_555
N8_3 H29_3 1_555 1_555
C39_3 C32_3 1_555 1_555
H30_3 C39_3 1_555 1_555
C40_3 N8_3 1_555 1_555
C43_3 C40_3 1_555 1_555
H33_3 C43_3 1_555 1_555
C44_4 C43_3 1_555 1_555
H34_4 C44_4 1_555 1_555
C45_3 C40_3 1_555 1_555
H35_3 C45_3 1_555 1_555
C46_4 C45_3 1_555 1_555
H36_4 C46_4 1_555 1_555
C47_4 C44_4 1_555 1_555
C48_4 C47_4 1_555 1_555
O9_2 C48_4 1_555 1_555
O11_2 C48_4 1_555 1_555
C36_3 C39_3 1_555 1_555
C46_4 C47_4 1_555 1_555
C32_4 N8_4 1_555 1_555
C36_4 H27_4 1_555 1_555
N8_4 H29_4 1_555 1_555
C39_4 C32_4 1_555 1_555
H30_4 C39_4 1_555 1_555
C40_4 N8_4 1_555 1_555
C43_4 C40_4 1_555 1_555
H33_4 C43_4 1_555 1_555
C45_4 C40_4 1_555 1_555
H35_4 C45_4 1_555 1_555
C36_4 C39_4 1_555 1_555
O1_4 Ni1_6 1_555 1_555
O2_4 Ni1_6 1_555 1_555
C2_4 O1_4 1_555 1_555
C8_4 N4_4 1_555 1_555
C11_4 H8_4 1_555 1_555
C12_4 H9_4 1_555 1_555
N4_4 H11_4 1_555 1_555
C14_4 C2_4 1_555 1_555
C15_4 C8_4 1_555 1_555
H12_4 C15_4 1_555 1_555
C16_4 N4_4 1_555 1_555
C18_4 C8_4 1_555 1_555
H14_4 C18_4 1_555 1_555
C19_4 C16_4 1_555 1_555
H15_4 C19_4 1_555 1_555
C21_4 C16_4 1_555 1_555
H17_4 C21_4 1_555 1_555
N5_4 Ni1_6 1_555 1_555
C25_4 H19_4 1_555 1_555
N7_4 H20_4 1_555 1_555
C29_4 C25_4 1_555 1_555
C30_4 N5_4 1_555 1_555
H22_4 C30_4 1_555 1_555
C31_4 N5_4 1_555 1_555
H23_4 C31_4 1_555 1_555
O2_4 C2_4 1_555 1_555
C11_4 C14_4 1_555 1_555
C11_4 C18_4 1_555 1_555
C12_4 C14_4 1_555 1_555
C12_4 C15_4 1_555 1_555
C25_4 C30_4 1_555 1_555
N7_4 C29_4 1_555 1_555
C27_4 C29_4 1_555 1_555
C27_4 C31_4 1_555 1_555

#END
