
###############################################################################
#
# This file contains modified crystal structure data generated from the
# MOF subset of the Cambridge Structural Database (CSD) v543 
# hosted by the Cambridge Crystallographic Data Centre (CCDC).
#
# This work is licensed under the Creative Commons
# Attribution-NonCommercial-ShareAlike 4.0 International License.
# To view a copy of this license, visit
# http://creativecommons.org/licenses/by-nc-sa/4.0/
# or send a letter to
# Creative Commons, PO Box 1866, Mountain View, CA 94042, USA.
#
# CIF created using the CSD Python API on 29 September 2022
# The structure has been converted into the P1 space group
# The structure has a 3D framework
# The original CSD entry OZUKUR01 is in the rhombohedral crystal system
# The framework has been calculated to contain at least 10.0% void space
# The void calculation uses a probe of radius 1.32A, grid spacing 0.4
#
###############################################################################

data_OZUKUR01
_chemical_formula_moiety         '(C72 H18 Mn6 O54)n'
_symmetry_cell_setting           triclinic
_symmetry_space_group_name_H-M   'P 1'
_symmetry_Int_Tables_number      1
_space_group_name_Hall           'P 1'
loop_
_symmetry_equiv_pos_site_id
_symmetry_equiv_pos_as_xyz
1 x,y,z
_cell_length_a                   26.4363(18)
_cell_length_b                   26.4363(18)
_cell_length_c                   7.1068(5)
_cell_angle_alpha                90
_cell_angle_beta                 90
_cell_angle_gamma                120
_cell_volume                     4301.36
loop_
_atom_site_label
_atom_site_type_symbol
_atom_site_fract_x
_atom_site_fract_y
_atom_site_fract_z
C6 C 0.0002(16) 0.4506(26) 0.081(5)
Mn2 Mn 0.0371(18) 0.357(2) 0.004(7)
Mn3 Mn 0.024(2) 0.6532(27) 0.329(7)
O7 O 0.0309(12) 0.6988(20) 0.129(4)
O9 O 0.0599(16) 0.3127(11) 0.173(5)
C1 C 0.0195(17) 0.5979(21) 0.767(3)
O1 O 0.0261(13) 0.5859(18) 0.599(4)
O2 O 0.0013(16) 0.6358(12) 0.796(4)
C7 C 0.0117(11) 0.4620(13) 0.890(6)
C8 C 0.0144(8) 0.5063(14) 0.823(5)
H2 H 0.0268(15) 0.4927(19) 0.654(6)
O6 O 0.0206(11) 0.4138(12) 0.840(5)
Mn5 Mn 0.0134(27) 0.7038(18) 0.663(7)
C3 C 0.9883(11) 0.5380(13) 0.110(6)
C4 C 0.9856(8) 0.4937(14) 0.177(5)
H1 H 0.9732(15) 0.5073(19) 0.346(6)
O3 O 0.9794(11) 0.5862(12) 0.160(5)
C5 C 0.9805(17) 0.4021(21) 0.233(3)
O4 O 0.9739(13) 0.4141(18) 0.401(4)
O5 O 0.9987(16) 0.3642(12) 0.204(4)
Mn4 Mn 0.9866(27) 0.2962(18) 0.337(7)
Mn1 Mn 0.9629(18) 0.643(2) 0.996(7)
C2 C 0.9998(16) 0.5494(26) 0.919(5)
Mn6 Mn 0.976(2) 0.3468(27) 0.671(7)
O8 O 0.9691(12) 0.3012(20) 0.871(4)
O10 O 0.9401(16) 0.6873(11) 0.827(5)
C3_2 C 0.4620(13) 0.4503(17) 0.110(6)
C4_2 C 0.5063(14) 0.4919(16) 0.177(5)
H1_2 H 0.4927(19) 0.4659(24) 0.346(6)
O3_2 O 0.4138(12) 0.3932(16) 0.160(5)
C5_2 C 0.5979(21) 0.5784(27) 0.233(3)
C6_2 C 0.5494(26) 0.5496(31) 0.081(5)
O4_2 O 0.5859(18) 0.5598(22) 0.401(4)
O5_2 O 0.6358(12) 0.6345(20) 0.204(4)
Mn2_2 Mn 0.643(2) 0.6801(27) 0.004(7)
Mn3_2 Mn 0.3468(27) 0.3704(34) 0.329(7)
Mn4_2 Mn 0.7038(18) 0.6903(32) 0.337(7)
O7_2 O 0.3012(20) 0.3320(23) 0.129(4)
O9_2 O 0.6873(11) 0.7471(19) 0.173(5)
Mn1_2 Mn 0.357(2) 0.3199(27) 0.996(7)
C1_2 C 0.4021(21) 0.4216(27) 0.767(3)
C2_2 C 0.4506(26) 0.4504(31) 0.919(5)
O1_2 O 0.4141(18) 0.4402(22) 0.599(4)
O2_2 O 0.3642(12) 0.3655(20) 0.796(4)
C7_2 C 0.5380(13) 0.5497(17) 0.890(6)
C8_2 C 0.4937(14) 0.5081(16) 0.823(5)
H2_2 H 0.5073(19) 0.5341(24) 0.654(6)
O6_2 O 0.5862(12) 0.6068(16) 0.840(5)
Mn5_2 Mn 0.2962(18) 0.3097(32) 0.663(7)
Mn6_2 Mn 0.6532(27) 0.6296(34) 0.671(7)
O8_2 O 0.6988(20) 0.6680(23) 0.871(4)
O10_2 O 0.3127(11) 0.2529(19) 0.827(5)
C3_3 C 0.5497(17) 0.0117(11) 0.110(6)
C4_3 C 0.5081(16) 0.0144(8) 0.177(5)
H1_3 H 0.5341(24) 0.0268(15) 0.346(6)
O3_3 O 0.6068(16) 0.0206(11) 0.160(5)
C5_3 C 0.4216(27) 0.0195(17) 0.233(3)
O4_3 O 0.4402(22) 0.0261(13) 0.401(4)
O5_3 O 0.3655(20) 0.0013(16) 0.204(4)
Mn4_3 Mn 0.3097(32) 0.0134(27) 0.337(7)
Mn1_3 Mn 0.6801(27) 0.0371(18) 0.996(7)
C2_3 C 0.5496(31) 0.0002(16) 0.919(5)
Mn6_3 Mn 0.3704(34) 0.024(2) 0.671(7)
O8_3 O 0.3320(23) 0.0309(12) 0.871(4)
O10_3 O 0.7471(19) 0.0599(16) 0.827(5)
C6_3 C 0.4504(31) 0.9998(16) 0.081(5)
Mn2_3 Mn 0.3199(27) 0.9629(18) 0.004(7)
Mn3_3 Mn 0.6296(34) 0.976(2) 0.329(7)
O7_3 O 0.6680(23) 0.9691(12) 0.129(4)
O9_3 O 0.2529(19) 0.9401(16) 0.173(5)
C1_3 C 0.5784(27) 0.9805(17) 0.767(3)
O1_3 O 0.5598(22) 0.9739(13) 0.599(4)
O2_3 O 0.6345(20) 0.9987(16) 0.796(4)
C7_3 C 0.4503(17) 0.9883(11) 0.890(6)
C8_3 C 0.4919(16) 0.9856(8) 0.823(5)
H2_3 H 0.4659(24) 0.9732(15) 0.654(6)
O6_3 O 0.3932(16) 0.9794(11) 0.840(5)
Mn5_3 Mn 0.6903(32) 0.9866(27) 0.663(7)
O7_4 O 0.6975(12) 0.0322(20) 0.463(4)
C1_4 C 0.6862(17) 0.9312(21) 0.100(3)
C2_4 C 0.6665(16) 0.8827(26) 0.252(5)
C3_4 C 0.6550(11) 0.8713(13) 0.443(6)
C4_4 C 0.6523(8) 0.8270(14) 0.510(5)
H1_4 H 0.6399(15) 0.8406(19) 0.679(6)
O3_4 O 0.6461(11) 0.9195(12) 0.493(5)
C5_4 C 0.6472(17) 0.7354(21) 0.566(3)
C6_4 C 0.6669(16) 0.7839(26) 0.414(5)
C7_4 C 0.6784(11) 0.7953(13) 0.223(6)
C8_4 C 0.6811(8) 0.8396(14) 0.156(5)
O4_4 O 0.6406(13) 0.7474(18) 0.734(4)
O5_4 O 0.6654(16) 0.6975(12) 0.537(4)
O9_4 O 0.7265(16) 0.6461(11) 0.507(5)
O9_5 O 0.3539(11) 0.0805(19) 0.507(5)
C1_5 C 0.0688(21) 0.7549(27) 0.100(3)
C2_5 C 0.1173(26) 0.7837(31) 0.252(5)
C3_5 C 0.1287(13) 0.7836(17) 0.443(6)
C4_5 C 0.1730(14) 0.8252(16) 0.510(5)
H1_5 H 0.1594(19) 0.7992(24) 0.679(6)
O3_5 O 0.0805(12) 0.7265(16) 0.493(5)
C5_5 C 0.2646(21) 0.9117(27) 0.566(3)
C6_5 C 0.2161(26) 0.8829(31) 0.414(5)
C7_5 C 0.2047(13) 0.8830(17) 0.223(6)
C8_5 C 0.1604(14) 0.8414(16) 0.156(5)
O4_5 O 0.2526(18) 0.8931(22) 0.734(4)
O5_5 O 0.3025(12) 0.9678(20) 0.537(4)
O7_5 O 0.9678(20) 0.6654(23) 0.463(4)
C1_6 C 0.2451(27) 0.3138(17) 0.100(3)
C2_6 C 0.2163(31) 0.3335(16) 0.252(5)
C3_6 C 0.2164(17) 0.3450(11) 0.443(6)
C4_6 C 0.1748(16) 0.3477(8) 0.510(5)
H1_6 H 0.2008(24) 0.3601(15) 0.679(6)
O3_6 O 0.2735(16) 0.3539(11) 0.493(5)
C5_6 C 0.0883(27) 0.3528(17) 0.566(3)
C6_6 C 0.1171(31) 0.3331(16) 0.414(5)
C7_6 C 0.1170(17) 0.3216(11) 0.223(6)
C8_6 C 0.1586(16) 0.3189(8) 0.156(5)
O4_6 O 0.1069(22) 0.3594(13) 0.734(4)
O5_6 O 0.0322(20) 0.3346(16) 0.537(4)
O7_6 O 0.3346(23) 0.3025(12) 0.463(4)
O1_4 O 0.2265(22) 0.3072(13) 0.932(4)
H2_4 H 0.1326(24) 0.3065(15) 0.987(6)
O9_6 O 0.9195(19) 0.2735(16) 0.507(5)
C1_7 C 0.3528(17) 0.2646(21) 0.434(3)
C2_7 C 0.3331(16) 0.2161(26) 0.586(5)
C3_7 C 0.3216(11) 0.2047(13) 0.777(6)
C4_7 C 0.3189(8) 0.1604(14) 0.844(5)
O1_5 O 0.3594(13) 0.2526(18) 0.266(4)
C5_7 C 0.3138(17) 0.0688(21) 0.900(3)
C6_7 C 0.3335(16) 0.1173(26) 0.748(5)
C7_7 C 0.3450(11) 0.1287(13) 0.557(6)
C8_7 C 0.3477(8) 0.1730(14) 0.490(5)
H2_5 H 0.3601(15) 0.1594(19) 0.321(6)
C1_8 C 0.7354(21) 0.0883(27) 0.434(3)
C2_8 C 0.7839(26) 0.1171(31) 0.586(5)
C3_8 C 0.7953(13) 0.1170(17) 0.777(6)
C4_8 C 0.8396(14) 0.1586(16) 0.844(5)
O1_6 O 0.7474(18) 0.1069(22) 0.266(4)
C5_8 C 0.9312(21) 0.2451(27) 0.900(3)
C6_8 C 0.8827(26) 0.2163(31) 0.748(5)
C7_8 C 0.8713(13) 0.2164(17) 0.557(6)
C8_8 C 0.8270(14) 0.1748(16) 0.490(5)
H2_6 H 0.8406(19) 0.2008(24) 0.321(6)
H1_7 H 0.8674(24) 0.6935(15) 0.013(6)
O4_7 O 0.7735(22) 0.6928(13) 0.068(4)
C1_9 C 0.9117(27) 0.6472(17) 0.434(3)
C2_9 C 0.8829(31) 0.6669(16) 0.586(5)
C3_9 C 0.8830(17) 0.6784(11) 0.777(6)
C4_9 C 0.8414(16) 0.6811(8) 0.844(5)
O1_7 O 0.8931(22) 0.6406(13) 0.266(4)
C5_9 C 0.7549(27) 0.6862(17) 0.900(3)
C6_9 C 0.7837(31) 0.6665(16) 0.748(5)
C7_9 C 0.7836(17) 0.6550(11) 0.557(6)
C8_9 C 0.8252(16) 0.6523(8) 0.490(5)
H2_7 H 0.7992(24) 0.6399(15) 0.321(6)
O1_8 O 0.6928(13) 0.9192(18) 0.932(4)
H2_8 H 0.6935(15) 0.8260(19) 0.987(6)
O1_9 O 0.0808(18) 0.7735(22) 0.932(4)
H2_9 H 0.1740(19) 0.8674(24) 0.987(6)
H1_8 H 0.3065(15) 0.1740(19) 0.013(6)
O4_8 O 0.3072(13) 0.0808(18) 0.068(4)
H1_9 H 0.8260(19) 0.1326(24) 0.013(6)
O4_9 O 0.9192(18) 0.2265(22) 0.068(4)
loop_
_geom_bond_atom_site_label_1
_geom_bond_atom_site_label_2
_geom_bond_site_symmetry_1
_geom_bond_site_symmetry_2
O9 Mn2 1_555 1_555
Mn3 O7 1_555 1_555
O1 C1 1_555 1_555
O2 C1 1_555 1_555
H2 C8 1_555 1_555
O6 C7 1_555 1_555
Mn5 O2 1_555 1_555
C7 C8 1_555 1_555
C3 C4 1_555 1_555
C4 H1 1_555 1_555
O4 C5 1_555 1_555
O5 C5 1_555 1_555
Mn4 O5 1_555 1_555
C3 O3 1_555 1_555
O10 Mn1 1_555 1_555
Mn6 O8 1_555 1_555
C3_2 C4_2 1_555 1_555
C4_2 H1_2 1_555 1_555
C5_2 C6_2 1_555 1_555
C6_2 C4_2 1_555 1_555
O4_2 C5_2 1_555 1_555
O5_2 C5_2 1_555 1_555
Mn2_2 O5_2 1_555 1_555
Mn3_2 O3_2 1_555 1_555
Mn4_2 O5_2 1_555 1_555
O9_2 Mn2_2 1_555 1_555
C3_2 O3_2 1_555 1_555
Mn3_2 O7_2 1_555 1_555
Mn4_2 O9_2 1_555 1_555
Mn1_2 O2_2 1_555 1_555
C1_2 C2_2 1_555 1_555
O1_2 C1_2 1_555 1_555
O2_2 C1_2 1_555 1_555
C8_2 C2_2 1_555 1_555
H2_2 C8_2 1_555 1_555
O6_2 C7_2 1_555 1_555
Mn5_2 O2_2 1_555 1_555
Mn6_2 O6_2 1_555 1_555
O10_2 Mn1_2 1_555 1_555
C7_2 C8_2 1_555 1_555
Mn5_2 O10_2 1_555 1_555
Mn6_2 O8_2 1_555 1_555
C3_3 C4_3 1_555 1_555
C4_3 H1_3 1_555 1_555
O4_3 C5_3 1_555 1_555
O5_3 C5_3 1_555 1_555
Mn4_3 O5_3 1_555 1_555
C3_3 O3_3 1_555 1_555
O10_3 Mn1_3 1_555 1_555
Mn6_3 O8_3 1_555 1_555
O9_3 Mn2_3 1_555 1_555
Mn3_3 O7_3 1_555 1_555
O1_3 C1_3 1_555 1_555
O2_3 C1_3 1_555 1_555
H2_3 C8_3 1_555 1_555
O6_3 C7_3 1_555 1_555
Mn5_3 O2_3 1_555 1_555
C7_3 C8_3 1_555 1_555
C1_4 C2_4 1_555 1_555
C2_4 C3_4 1_555 1_555
C3_4 C4_4 1_555 1_555
C4_4 H1_4 1_555 1_555
O7_3 C1_4 1_555 1_555
O3_4 Mn3_3 1_555 1_555
C5_4 C6_4 1_555 1_555
C6_4 C4_4 1_555 1_555
C7_4 C6_4 1_555 1_555
C8_4 C2_4 1_555 1_555
O4_4 C5_4 1_555 1_555
O5_4 C5_4 1_555 1_555
O9_2 C7_4 1_555 1_555
Mn4_2 O5_4 1_555 1_555
Mn5_3 O3_4 1_555 1_555
Mn6_2 O5_4 1_555 1_555
O9_4 Mn4_2 1_555 1_555
C3_4 O3_4 1_555 1_555
C7_4 C8_4 1_555 1_555
Mn6_2 O9_4 1_555 1_555
O9_5 Mn4_3 1_555 1_555
Mn6_3 O9_5 1_555 1_555
C1_5 C2_5 1_555 1_555
C2_5 C3_5 1_555 1_555
C3_5 C4_5 1_555 1_555
C4_5 H1_5 1_555 1_555
O7 C1_5 1_555 1_555
O3_5 Mn3 1_555 1_555
C5_5 C6_5 1_555 1_555
C6_5 C4_5 1_555 1_555
C7_5 C6_5 1_555 1_555
C8_5 C2_5 1_555 1_555
O4_5 C5_5 1_555 1_555
O5_5 C5_5 1_555 1_555
O9_3 C7_5 1_555 1_555
Mn5 O3_5 1_555 1_555
C3_5 O3_5 1_555 1_555
C7_5 C8_5 1_555 1_555
C1_6 C2_6 1_555 1_555
C2_6 C3_6 1_555 1_555
C3_6 C4_6 1_555 1_555
C4_6 H1_6 1_555 1_555
O7_2 C1_6 1_555 1_555
O3_6 Mn3_2 1_555 1_555
C5_6 C6_6 1_555 1_555
C6_6 C4_6 1_555 1_555
C7_6 C6_6 1_555 1_555
C8_6 C2_6 1_555 1_555
O4_6 C5_6 1_555 1_555
O5_6 C5_6 1_555 1_555
O9 C7_6 1_555 1_555
Mn5_2 O3_6 1_555 1_555
O7_6 Mn3_2 1_555 1_555
C3_6 O3_6 1_555 1_555
C7_6 C8_6 1_555 1_555
Mn5_2 O7_6 1_555 1_555
O9_6 Mn4 1_555 1_555
Mn6 O9_6 1_555 1_555
C1_7 C2_7 1_555 1_555
C2_7 C3_7 1_555 1_555
C3_7 C4_7 1_555 1_555
O1_5 C1_7 1_555 1_555
O7_6 C1_7 1_555 1_555
C5_7 C6_7 1_555 1_555
C6_7 C4_7 1_555 1_555
C7_7 C6_7 1_555 1_555
C8_7 C2_7 1_555 1_555
H2_5 C8_7 1_555 1_555
O8_3 C5_7 1_555 1_555
O9_5 C7_7 1_555 1_555
C3_7 O10_2 1_555 1_555
C7_7 C8_7 1_555 1_555
C1_8 C2_8 1_555 1_555
C2_8 C3_8 1_555 1_555
C3_8 C4_8 1_555 1_555
O1_6 C1_8 1_555 1_555
O7_4 C1_8 1_555 1_555
C5_8 C6_8 1_555 1_555
C6_8 C4_8 1_555 1_555
C7_8 C6_8 1_555 1_555
C8_8 C2_8 1_555 1_555
H2_6 C8_8 1_555 1_555
O8 C5_8 1_555 1_555
O9_6 C7_8 1_555 1_555
C3_8 O10_3 1_555 1_555
C7_8 C8_8 1_555 1_555
C1_9 C2_9 1_555 1_555
C2_9 C3_9 1_555 1_555
C3_9 C4_9 1_555 1_555
O1_7 C1_9 1_555 1_555
O7_5 C1_9 1_555 1_555
C5_9 C6_9 1_555 1_555
C6_9 C4_9 1_555 1_555
C7_9 C6_9 1_555 1_555
C8_9 C2_9 1_555 1_555
H2_7 C8_9 1_555 1_555
O8_2 C5_9 1_555 1_555
O9_4 C7_9 1_555 1_555
C3_9 O10 1_555 1_555
C7_9 C8_9 1_555 1_555

#END
