
###############################################################################
#
# This file contains modified crystal structure data generated from the
# MOF subset of the Cambridge Structural Database (CSD) v543 
# hosted by the Cambridge Crystallographic Data Centre (CCDC).
#
# This work is licensed under the Creative Commons
# Attribution-NonCommercial-ShareAlike 4.0 International License.
# To view a copy of this license, visit
# http://creativecommons.org/licenses/by-nc-sa/4.0/
# or send a letter to
# Creative Commons, PO Box 1866, Mountain View, CA 94042, USA.
#
# CIF created using the CSD Python API on 29 September 2022
# The structure has been converted into the P1 space group
# The structure has a 3D framework
# The original CSD entry OZUKUR is in the rhombohedral crystal system
# The framework has been calculated to contain at least 10.0% void space
# The void calculation uses a probe of radius 1.32A, grid spacing 0.4
#
###############################################################################

data_OZUKUR
_chemical_formula_moiety         '(C72 H18 Mn10 O48)n'
_symmetry_cell_setting           triclinic
_symmetry_space_group_name_H-M   'P 1'
_symmetry_Int_Tables_number      1
_space_group_name_Hall           'P 1'
loop_
_symmetry_equiv_pos_site_id
_symmetry_equiv_pos_as_xyz
1 x,y,z
_cell_length_a                   26.2903(7)
_cell_length_b                   26.2903(7)
_cell_length_c                   7.0676(3)
_cell_angle_alpha                90
_cell_angle_beta                 90
_cell_angle_gamma                120
_cell_volume                     4230.52
loop_
_atom_site_label
_atom_site_type_symbol
_atom_site_fract_x
_atom_site_fract_y
_atom_site_fract_z
Mn4 Mn 0.0299(15) 0.6490(21) 0.360(5)
O9 O 0.0314(8) 0.7047(12) 0.133(2)
O11 O 0.0591(13) 0.3110(9) 0.188(3)
C1 C 0.0128(10) 0.5917(13) 0.758(2)
C2 C 0.0069(10) 0.5452(21) 0.895(8)
O1 O 0.0303(9) 0.5923(12) 0.592(3)
O2 O 0.0067(9) 0.6353(8) 0.800(2)
C7 C 0.0098(10) 0.4559(16) 0.913(8)
C8 C 0.0157(6) 0.503(2) 0.8106(19)
H2 H 0.02743 0.50250 0.66276
O6 O 0.0223(9) 0.4147(10) 0.855(3)
Mn2 Mn 0.0475(14) 0.3632(15) 0.973(5)
Mn6 Mn 0.0176(21) 0.7142(14) 0.694(5)
O7 O 0.1047(15) 0.3636(9) 0.741(3)
Mn1 Mn 0.9525(14) 0.6368(15) 0.027(5)
C3 C 0.9902(10) 0.5441(16) 0.087(8)
C4 C 0.9843(6) 0.497(2) 0.1894(19)
H1 H 0.97257 0.49750 0.33724
O3 O 0.9777(9) 0.5853(10) 0.145(3)
C5 C 0.9872(10) 0.4083(13) 0.242(2)
C6 C 0.9931(10) 0.4548(21) 0.105(8)
O4 O 0.9697(9) 0.4077(12) 0.408(3)
O5 O 0.9933(9) 0.3647(8) 0.200(2)
Mn5 Mn 0.9824(21) 0.2858(14) 0.306(5)
Mn8 Mn 0.9701(15) 0.3510(21) 0.640(5)
O8 O 0.8953(15) 0.6364(9) 0.259(3)
O10 O 0.9686(8) 0.2953(12) 0.867(2)
O12 O 0.9409(13) 0.6890(9) 0.812(3)
Mn1_2 Mn 0.3632(15) 0.3157(21) 0.027(5)
C3_2 C 0.4559(16) 0.4461(19) 0.087(8)
C4_2 C 0.503(2) 0.4873(21) 0.1894(19)
H1_2 H 0.50250 0.47507 0.33724
O3_2 O 0.4147(10) 0.3924(13) 0.145(3)
C5_2 C 0.5917(13) 0.5789(16) 0.242(2)
C6_2 C 0.5452(21) 0.5383(23) 0.105(8)
O4_2 O 0.5923(12) 0.5620(15) 0.408(3)
O5_2 O 0.6353(8) 0.6286(12) 0.200(2)
Mn4_2 Mn 0.3510(21) 0.3808(26) 0.360(5)
Mn5_2 Mn 0.7142(14) 0.6965(25) 0.306(5)
Mn8_2 Mn 0.6490(21) 0.6192(26) 0.640(5)
O8_2 O 0.3636(9) 0.2590(17) 0.259(3)
O9_2 O 0.2953(12) 0.3266(14) 0.133(2)
O11_2 O 0.6890(9) 0.7480(16) 0.188(3)
C1_2 C 0.4083(13) 0.4211(16) 0.758(2)
C2_2 C 0.4548(21) 0.4617(23) 0.895(8)
O1_2 O 0.4077(12) 0.4380(15) 0.592(3)
O2_2 O 0.3647(8) 0.3714(12) 0.800(2)
C7_2 C 0.5441(16) 0.5539(19) 0.913(8)
C8_2 C 0.497(2) 0.5127(21) 0.8106(19)
H2_2 H 0.49750 0.52493 0.66276
O6_2 O 0.5853(10) 0.6076(13) 0.855(3)
Mn2_2 Mn 0.6368(15) 0.6843(21) 0.973(5)
Mn6_2 Mn 0.2858(14) 0.3035(25) 0.694(5)
O7_2 O 0.6364(9) 0.7410(17) 0.741(3)
O10_2 O 0.7047(12) 0.6734(14) 0.867(2)
O12_2 O 0.3110(9) 0.2520(16) 0.812(3)
Mn1_3 Mn 0.6843(21) 0.0475(14) 0.027(5)
C3_3 C 0.5539(19) 0.0098(10) 0.087(8)
C4_3 C 0.5127(21) 0.0157(6) 0.1894(19)
H1_3 H 0.52493 0.02743 0.33724
O3_3 O 0.6076(13) 0.0223(9) 0.145(3)
C5_3 C 0.4211(16) 0.0128(10) 0.242(2)
C6_3 C 0.4617(23) 0.0069(10) 0.105(8)
O4_3 O 0.4380(15) 0.0303(9) 0.408(3)
O5_3 O 0.3714(12) 0.0067(9) 0.200(2)
Mn5_3 Mn 0.3035(25) 0.0176(21) 0.306(5)
Mn8_3 Mn 0.3808(26) 0.0299(15) 0.640(5)
O8_3 O 0.7410(17) 0.1047(15) 0.259(3)
O10_3 O 0.3266(14) 0.0314(8) 0.867(2)
O12_3 O 0.7480(16) 0.0591(13) 0.812(3)
Mn4_3 Mn 0.6192(26) 0.9701(15) 0.360(5)
O9_3 O 0.6734(14) 0.9686(8) 0.133(2)
O11_3 O 0.2520(16) 0.9409(13) 0.188(3)
C1_3 C 0.5789(16) 0.9872(10) 0.758(2)
C2_3 C 0.5383(23) 0.9931(10) 0.895(8)
O1_3 O 0.5620(15) 0.9697(9) 0.592(3)
O2_3 O 0.6286(12) 0.9933(9) 0.800(2)
C7_3 C 0.4461(19) 0.9902(10) 0.913(8)
C8_3 C 0.4873(21) 0.9843(6) 0.8106(19)
H2_3 H 0.47507 0.97257 0.66276
O6_3 O 0.3924(13) 0.9777(9) 0.855(3)
Mn2_3 Mn 0.3157(21) 0.9525(14) 0.973(5)
Mn6_3 Mn 0.6965(25) 0.9824(21) 0.694(5)
O7_3 O 0.2590(17) 0.8953(15) 0.741(3)
O9_4 O 0.6980(8) 0.0381(12) 0.467(2)
C1_4 C 0.6795(10) 0.9250(13) 0.091(2)
C2_4 C 0.6736(10) 0.8785(21) 0.228(8)
C3_4 C 0.6569(10) 0.8774(16) 0.420(8)
C4_4 C 0.6510(6) 0.830(2) 0.5227(19)
H1_4 H 0.63924 0.83083 0.67057
O3_4 O 0.6444(9) 0.9186(10) 0.478(3)
C5_4 C 0.6539(10) 0.7416(13) 0.575(2)
C6_4 C 0.6598(10) 0.7881(21) 0.438(8)
C7_4 C 0.6765(10) 0.7892(16) 0.246(8)
C8_4 C 0.6824(6) 0.836(2) 0.1439(19)
O5_4 O 0.6600(9) 0.6980(8) 0.533(2)
O7_4 O 0.7713(15) 0.6970(9) 0.075(3)
O11_4 O 0.7257(13) 0.6444(9) 0.522(3)
O1_4 O 0.6970(9) 0.9256(12) 0.925(3)
H2_4 H 0.69410 0.83583 0.99609
O7_5 O 0.3030(9) 0.0744(17) 0.075(3)
O11_5 O 0.3556(9) 0.0814(16) 0.522(3)
C1_5 C 0.0750(13) 0.7544(16) 0.091(2)
C2_5 C 0.1215(21) 0.7950(23) 0.228(8)
C3_5 C 0.1226(16) 0.7794(19) 0.420(8)
C4_5 C 0.170(2) 0.8206(21) 0.5227(19)
H1_5 H 0.16917 0.80840 0.67057
O3_5 O 0.0814(10) 0.7257(13) 0.478(3)
C5_5 C 0.2584(13) 0.9122(16) 0.575(2)
C6_5 C 0.2119(21) 0.8716(23) 0.438(8)
C7_5 C 0.2108(16) 0.8872(19) 0.246(8)
C8_5 C 0.164(2) 0.8460(21) 0.1439(19)
O5_5 O 0.3020(8) 0.9619(12) 0.533(2)
O1_5 O 0.0744(12) 0.7713(15) 0.925(3)
H2_5 H 0.16417 0.85826 0.99609
O9_5 O 0.9619(12) 0.6600(14) 0.467(2)
C1_6 C 0.2456(16) 0.3205(10) 0.091(2)
C2_6 C 0.2050(23) 0.3264(10) 0.228(8)
C3_6 C 0.2206(19) 0.3431(10) 0.420(8)
C4_6 C 0.1794(21) 0.3490(6) 0.5227(19)
H1_6 H 0.19160 0.36076 0.67057
O3_6 O 0.2743(13) 0.3556(9) 0.478(3)
C5_6 C 0.0878(16) 0.3461(10) 0.575(2)
C6_6 C 0.1284(23) 0.3402(10) 0.438(8)
C7_6 C 0.1128(19) 0.3235(10) 0.246(8)
C8_6 C 0.1540(21) 0.3176(6) 0.1439(19)
O5_6 O 0.0381(12) 0.3400(9) 0.533(2)
O9_6 O 0.3400(14) 0.3020(8) 0.467(2)
O1_6 O 0.2287(15) 0.3030(9) 0.925(3)
H2_6 H 0.14174 0.30590 0.99609
O7_6 O 0.9256(17) 0.2287(15) 0.075(3)
O11_6 O 0.9186(16) 0.2743(13) 0.522(3)
H1_7 H 0.30590 0.16417 0.00391
C1_7 C 0.3461(10) 0.2584(13) 0.425(2)
C2_7 C 0.3402(10) 0.2119(21) 0.562(8)
C3_7 C 0.3235(10) 0.2108(16) 0.754(8)
C4_7 C 0.3176(6) 0.164(2) 0.8561(19)
C5_7 C 0.3205(10) 0.0750(13) 0.909(2)
C6_7 C 0.3264(10) 0.1215(21) 0.772(8)
C7_7 C 0.3431(10) 0.1226(16) 0.580(8)
C8_7 C 0.3490(6) 0.170(2) 0.4773(19)
H2_7 H 0.36076 0.16917 0.32943
H1_8 H 0.83583 0.14174 0.00391
C1_8 C 0.7416(13) 0.0878(16) 0.425(2)
C2_8 C 0.7881(21) 0.1284(23) 0.562(8)
C3_8 C 0.7892(16) 0.1128(19) 0.754(8)
C4_8 C 0.836(2) 0.1540(21) 0.8561(19)
C5_8 C 0.9250(13) 0.2456(16) 0.909(2)
C6_8 C 0.8785(21) 0.2050(23) 0.772(8)
C7_8 C 0.8774(16) 0.2206(19) 0.580(8)
C8_8 C 0.830(2) 0.1794(21) 0.4773(19)
H2_8 H 0.83083 0.19160 0.32943
H1_9 H 0.85826 0.69410 0.00391
C1_9 C 0.9122(16) 0.6539(10) 0.425(2)
C2_9 C 0.8716(23) 0.6598(10) 0.562(8)
C3_9 C 0.8872(19) 0.6765(10) 0.754(8)
C4_9 C 0.8460(21) 0.6824(6) 0.8561(19)
C5_9 C 0.7544(16) 0.6795(10) 0.909(2)
C6_9 C 0.7950(23) 0.6736(10) 0.772(8)
C7_9 C 0.7794(19) 0.6569(10) 0.580(8)
C8_9 C 0.8206(21) 0.6510(6) 0.4773(19)
H2_9 H 0.80840 0.63924 0.32943
loop_
_geom_bond_atom_site_label_1
_geom_bond_atom_site_label_2
_geom_bond_site_symmetry_1
_geom_bond_site_symmetry_2
Mn4 O9 1_555 1_555
C1 C2 1_555 1_555
O1 C1 1_555 1_555
O2 C1 1_555 1_555
C8 C2 1_555 1_555
H2 C8 1_555 1_555
O6 C7 1_555 1_555
Mn4 O1 1_555 1_555
Mn6 O2 1_555 1_555
O7 Mn2 1_555 1_555
C7 C8 1_555 1_555
O6 Mn2 1_555 1_555
C3 C4 1_555 1_555
C4 H1 1_555 1_555
O3 Mn1 1_555 1_555
C5 C6 1_555 1_555
C6 C4 1_555 1_555
O4 C5 1_555 1_555
O5 C5 1_555 1_555
Mn5 O5 1_555 1_555
Mn8 O4 1_555 1_555
O8 Mn1 1_555 1_555
C3 O3 1_555 1_555
Mn8 O10 1_555 1_555
C3_2 C4_2 1_555 1_555
C4_2 H1_2 1_555 1_555
O3_2 Mn1_2 1_555 1_555
C5_2 C6_2 1_555 1_555
C6_2 C4_2 1_555 1_555
O4_2 C5_2 1_555 1_555
O5_2 C5_2 1_555 1_555
Mn4_2 O3_2 1_555 1_555
Mn5_2 O5_2 1_555 1_555
Mn8_2 O4_2 1_555 1_555
O8_2 Mn1_2 1_555 1_555
O9_2 Mn1_2 1_555 1_555
C3_2 O3_2 1_555 1_555
Mn4_2 O9_2 1_555 1_555
Mn5_2 O11_2 1_555 1_555
C1_2 C2_2 1_555 1_555
O1_2 C1_2 1_555 1_555
O2_2 C1_2 1_555 1_555
C8_2 C2_2 1_555 1_555
H2_2 C8_2 1_555 1_555
O6_2 C7_2 1_555 1_555
Mn4_2 O1_2 1_555 1_555
Mn6_2 O2_2 1_555 1_555
Mn8_2 O6_2 1_555 1_555
O7_2 Mn2_2 1_555 1_555
O10_2 Mn2_2 1_555 1_555
C7_2 C8_2 1_555 1_555
O6_2 Mn2_2 1_555 1_555
Mn6_2 O12_2 1_555 1_555
Mn8_2 O10_2 1_555 1_555
C3_3 C4_3 1_555 1_555
C4_3 H1_3 1_555 1_555
O3_3 Mn1_3 1_555 1_555
C5_3 C6_3 1_555 1_555
C6_3 C4_3 1_555 1_555
O4_3 C5_3 1_555 1_555
O5_3 C5_3 1_555 1_555
Mn5_3 O5_3 1_555 1_555
Mn8_3 O4_3 1_555 1_555
O8_3 Mn1_3 1_555 1_555
C3_3 O3_3 1_555 1_555
Mn8_3 O10_3 1_555 1_555
Mn4_3 O9_3 1_555 1_555
C1_3 C2_3 1_555 1_555
O1_3 C1_3 1_555 1_555
O2_3 C1_3 1_555 1_555
C8_3 C2_3 1_555 1_555
H2_3 C8_3 1_555 1_555
O6_3 C7_3 1_555 1_555
Mn4_3 O1_3 1_555 1_555
Mn6_3 O2_3 1_555 1_555
O7_3 Mn2_3 1_555 1_555
C7_3 C8_3 1_555 1_555
O6_3 Mn2_3 1_555 1_555
C1_4 C2_4 1_555 1_555
C2_4 C3_4 1_555 1_555
C3_4 C4_4 1_555 1_555
C4_4 H1_4 1_555 1_555
O9_3 C1_4 1_555 1_555
O3_4 Mn4_3 1_555 1_555
C5_4 C6_4 1_555 1_555
C6_4 C4_4 1_555 1_555
C7_4 C6_4 1_555 1_555
C8_4 C2_4 1_555 1_555
O7_2 C5_4 1_555 1_555
O5_4 C5_4 1_555 1_555
O11_2 C7_4 1_555 1_555
Mn5_2 O5_4 1_555 1_555
Mn6_3 O3_4 1_555 1_555
Mn8_2 O5_4 1_555 1_555
O7_4 Mn5_2 1_555 1_555
O11_4 Mn5_2 1_555 1_555
C3_4 O3_4 1_555 1_555
C7_4 C8_4 1_555 1_555
Mn8_2 O11_4 1_555 1_555
Mn6_3 O1_4 1_555 1_555
O7_5 Mn5_3 1_555 1_555
O11_5 Mn5_3 1_555 1_555
Mn8_3 O11_5 1_555 1_555
C1_5 C2_5 1_555 1_555
C2_5 C3_5 1_555 1_555
C3_5 C4_5 1_555 1_555
C4_5 H1_5 1_555 1_555
O9 C1_5 1_555 1_555
O3_5 Mn4 1_555 1_555
C5_5 C6_5 1_555 1_555
C6_5 C4_5 1_555 1_555
C7_5 C6_5 1_555 1_555
C8_5 C2_5 1_555 1_555
O7_3 C5_5 1_555 1_555
O5_5 C5_5 1_555 1_555
O11_3 C7_5 1_555 1_555
Mn6 O3_5 1_555 1_555
C3_5 O3_5 1_555 1_555
C7_5 C8_5 1_555 1_555
Mn6 O1_5 1_555 1_555
C1_6 C2_6 1_555 1_555
C2_6 C3_6 1_555 1_555
C3_6 C4_6 1_555 1_555
C4_6 H1_6 1_555 1_555
O9_2 C1_6 1_555 1_555
O3_6 Mn4_2 1_555 1_555
C5_6 C6_6 1_555 1_555
C6_6 C4_6 1_555 1_555
C7_6 C6_6 1_555 1_555
C8_6 C2_6 1_555 1_555
O7 C5_6 1_555 1_555
O5_6 C5_6 1_555 1_555
O11 C7_6 1_555 1_555
Mn6_2 O3_6 1_555 1_555
O9_6 Mn4_2 1_555 1_555
C3_6 O3_6 1_555 1_555
C7_6 C8_6 1_555 1_555
Mn6_2 O9_6 1_555 1_555
Mn6_2 O1_6 1_555 1_555
O7_6 Mn5 1_555 1_555
O11_6 Mn5 1_555 1_555
Mn8 O11_6 1_555 1_555
C1_7 C2_7 1_555 1_555
C2_7 C3_7 1_555 1_555
C3_7 C4_7 1_555 1_555
O8_2 C1_7 1_555 1_555
O9_6 C1_7 1_555 1_555
C5_7 C6_7 1_555 1_555
C6_7 C4_7 1_555 1_555
C7_7 C6_7 1_555 1_555
C8_7 C2_7 1_555 1_555
H2_7 C8_7 1_555 1_555
O10_3 C5_7 1_555 1_555
O11_5 C7_7 1_555 1_555
C3_7 O12_2 1_555 1_555
C7_7 C8_7 1_555 1_555
C1_8 C2_8 1_555 1_555
C2_8 C3_8 1_555 1_555
C3_8 C4_8 1_555 1_555
O8_3 C1_8 1_555 1_555
O9_4 C1_8 1_555 1_555
C5_8 C6_8 1_555 1_555
C6_8 C4_8 1_555 1_555
C7_8 C6_8 1_555 1_555
C8_8 C2_8 1_555 1_555
H2_8 C8_8 1_555 1_555
O10 C5_8 1_555 1_555
O11_6 C7_8 1_555 1_555
C3_8 O12_3 1_555 1_555
C7_8 C8_8 1_555 1_555
C1_9 C2_9 1_555 1_555
C2_9 C3_9 1_555 1_555
C3_9 C4_9 1_555 1_555
O8 C1_9 1_555 1_555
O9_5 C1_9 1_555 1_555
C5_9 C6_9 1_555 1_555
C6_9 C4_9 1_555 1_555
C7_9 C6_9 1_555 1_555
C8_9 C2_9 1_555 1_555
H2_9 C8_9 1_555 1_555
O10_2 C5_9 1_555 1_555
O11_4 C7_9 1_555 1_555
C3_9 O12 1_555 1_555
C7_9 C8_9 1_555 1_555

#END
