
###############################################################################
#
# This file contains modified crystal structure data generated from the
# MOF subset of the Cambridge Structural Database (CSD) v543 
# hosted by the Cambridge Crystallographic Data Centre (CCDC).
#
# This work is licensed under the Creative Commons
# Attribution-NonCommercial-ShareAlike 4.0 International License.
# To view a copy of this license, visit
# http://creativecommons.org/licenses/by-nc-sa/4.0/
# or send a letter to
# Creative Commons, PO Box 1866, Mountain View, CA 94042, USA.
#
# CIF created using the CSD Python API on 29 September 2022
# The structure has been converted into the P1 space group
# The structure has a 3D framework
# The original CSD entry OZUKOL is in the rhombohedral crystal system
# The framework has been calculated to contain at least 10.0% void space
# The void calculation uses a probe of radius 1.32A, grid spacing 0.4
#
###############################################################################

data_OZUKOL
_chemical_formula_moiety         '(C72 H18 Mn10 O48)n'
_symmetry_cell_setting           triclinic
_symmetry_space_group_name_H-M   'P 1'
_symmetry_Int_Tables_number      1
_space_group_name_Hall           'P 1'
loop_
_symmetry_equiv_pos_site_id
_symmetry_equiv_pos_as_xyz
1 x,y,z
_cell_length_a                   26.2885(8)
_cell_length_b                   26.2885(8)
_cell_length_c                   7.0608(3)
_cell_angle_alpha                90
_cell_angle_beta                 90
_cell_angle_gamma                120
_cell_volume                     4225.87
loop_
_atom_site_label
_atom_site_type_symbol
_atom_site_fract_x
_atom_site_fract_y
_atom_site_fract_z
Mn4 Mn 0.0321(17) 0.6496(23) 0.355(5)
O9 O 0.0321(7) 0.7032(11) 0.134(3)
O11 O 0.0606(12) 0.3106(9) 0.194(4)
C1 C 0.0156(10) 0.5928(13) 0.759(3)
C2 C 0.0069(10) 0.5457(21) 0.890(7)
O1 O 0.0286(10) 0.5924(13) 0.586(3)
O2 O 0.0045(8) 0.6346(7) 0.801(3)
C7 C 0.0121(10) 0.4579(16) 0.913(8)
C8 C 0.0167(6) 0.505(2) 0.810(2)
H2 H 0.02743 0.50250 0.66276
O6 O 0.0227(9) 0.4166(8) 0.861(4)
Mn2 Mn 0.0491(16) 0.3654(17) 0.978(5)
Mn6 Mn 0.0170(23) 0.7158(16) 0.689(5)
O7 O 0.1029(16) 0.3619(10) 0.747(3)
Mn1 Mn 0.9509(16) 0.6346(17) 0.022(5)
C3 C 0.9879(10) 0.5421(16) 0.087(8)
C4 C 0.9833(6) 0.495(2) 0.190(2)
H1 H 0.97257 0.49750 0.33724
O3 O 0.9773(9) 0.5834(8) 0.139(4)
C5 C 0.9844(10) 0.4072(13) 0.241(3)
C6 C 0.9931(10) 0.4543(21) 0.110(7)
O4 O 0.9714(10) 0.4076(13) 0.414(3)
O5 O 0.9955(8) 0.3654(7) 0.199(3)
Mn5 Mn 0.9830(23) 0.2842(16) 0.311(5)
Mn8 Mn 0.9679(17) 0.3504(23) 0.645(5)
O8 O 0.8971(16) 0.6381(10) 0.253(3)
O10 O 0.9679(7) 0.2968(11) 0.866(3)
O12 O 0.9394(12) 0.6894(9) 0.806(4)
Mn1_2 Mn 0.3654(17) 0.3163(23) 0.022(5)
C3_2 C 0.4579(16) 0.4458(19) 0.087(8)
C4_2 C 0.505(2) 0.4883(21) 0.190(2)
H1_2 H 0.50250 0.47507 0.33724
O3_2 O 0.4166(8) 0.3939(12) 0.139(4)
C5_2 C 0.5928(13) 0.5772(16) 0.241(3)
C6_2 C 0.5457(21) 0.5388(23) 0.110(7)
O4_2 O 0.5924(13) 0.5638(16) 0.414(3)
O5_2 O 0.6346(7) 0.6301(11) 0.199(3)
Mn4_2 Mn 0.3504(23) 0.3824(29) 0.355(5)
Mn5_2 Mn 0.7158(16) 0.6987(28) 0.311(5)
Mn8_2 Mn 0.6496(23) 0.6176(29) 0.645(5)
O8_2 O 0.3619(10) 0.2591(19) 0.253(3)
O9_2 O 0.2968(11) 0.3288(13) 0.134(3)
O11_2 O 0.6894(9) 0.7499(15) 0.194(4)
C1_2 C 0.4072(13) 0.4228(16) 0.759(3)
C2_2 C 0.4543(21) 0.4612(23) 0.890(7)
O1_2 O 0.4076(13) 0.4362(16) 0.586(3)
O2_2 O 0.3654(7) 0.3699(11) 0.801(3)
C7_2 C 0.5421(16) 0.5542(19) 0.913(8)
C8_2 C 0.495(2) 0.5117(21) 0.810(2)
H2_2 H 0.49750 0.52493 0.66276
O6_2 O 0.5834(8) 0.6061(12) 0.861(4)
Mn2_2 Mn 0.6346(17) 0.6837(23) 0.978(5)
Mn6_2 Mn 0.2842(16) 0.3013(28) 0.689(5)
O7_2 O 0.6381(10) 0.7409(19) 0.747(3)
O10_2 O 0.7032(11) 0.6712(13) 0.866(3)
O12_2 O 0.3106(9) 0.2501(15) 0.806(4)
Mn1_3 Mn 0.6837(23) 0.0491(16) 0.022(5)
C3_3 C 0.5542(19) 0.0121(10) 0.087(8)
C4_3 C 0.5117(21) 0.0167(6) 0.190(2)
H1_3 H 0.52493 0.02743 0.33724
O3_3 O 0.6061(12) 0.0227(9) 0.139(4)
C5_3 C 0.4228(16) 0.0156(10) 0.241(3)
C6_3 C 0.4612(23) 0.0069(10) 0.110(7)
O4_3 O 0.4362(16) 0.0286(10) 0.414(3)
O5_3 O 0.3699(11) 0.0045(8) 0.199(3)
Mn5_3 Mn 0.3013(28) 0.0170(23) 0.311(5)
Mn8_3 Mn 0.3824(29) 0.0321(17) 0.645(5)
O8_3 O 0.7409(19) 0.1029(16) 0.253(3)
O10_3 O 0.3288(13) 0.0321(7) 0.866(3)
O12_3 O 0.7499(15) 0.0606(12) 0.806(4)
Mn4_3 Mn 0.6176(29) 0.9679(17) 0.355(5)
O9_3 O 0.6712(13) 0.9679(7) 0.134(3)
O11_3 O 0.2501(15) 0.9394(12) 0.194(4)
C1_3 C 0.5772(16) 0.9844(10) 0.759(3)
C2_3 C 0.5388(23) 0.9931(10) 0.890(7)
O1_3 O 0.5638(16) 0.9714(10) 0.586(3)
O2_3 O 0.6301(11) 0.9955(8) 0.801(3)
C7_3 C 0.4458(19) 0.9879(10) 0.913(8)
C8_3 C 0.4883(21) 0.9833(6) 0.810(2)
H2_3 H 0.47507 0.97257 0.66276
O6_3 O 0.3939(12) 0.9773(9) 0.861(4)
Mn2_3 Mn 0.3163(23) 0.9509(16) 0.978(5)
Mn6_3 Mn 0.6987(28) 0.9830(23) 0.689(5)
O7_3 O 0.2591(19) 0.8971(16) 0.747(3)
O9_4 O 0.6987(7) 0.0366(11) 0.468(3)
C1_4 C 0.6823(10) 0.9261(13) 0.092(3)
C2_4 C 0.6736(10) 0.8790(21) 0.223(7)
C3_4 C 0.6546(10) 0.8754(16) 0.420(8)
C4_4 C 0.6500(6) 0.828(2) 0.523(2)
H1_4 H 0.63924 0.83083 0.67057
O3_4 O 0.6440(9) 0.9167(8) 0.472(4)
C5_4 C 0.6511(10) 0.7405(13) 0.574(3)
C6_4 C 0.6598(10) 0.7876(21) 0.443(7)
C7_4 C 0.6788(10) 0.7912(16) 0.246(8)
C8_4 C 0.6834(6) 0.838(2) 0.143(2)
O5_4 O 0.6622(8) 0.6987(7) 0.532(3)
O7_4 O 0.7695(16) 0.6953(10) 0.081(3)
O11_4 O 0.7272(12) 0.6440(9) 0.528(4)
O1_4 O 0.6953(10) 0.9257(13) 0.919(3)
H2_4 H 0.69410 0.83583 0.99609
O7_5 O 0.3047(10) 0.0743(19) 0.081(3)
O11_5 O 0.3560(9) 0.0833(15) 0.528(4)
C1_5 C 0.0739(13) 0.7561(16) 0.092(3)
C2_5 C 0.1210(21) 0.7945(23) 0.223(7)
C3_5 C 0.1246(16) 0.7791(19) 0.420(8)
C4_5 C 0.172(2) 0.8216(21) 0.523(2)
H1_5 H 0.16917 0.80840 0.67057
O3_5 O 0.0833(8) 0.7272(12) 0.472(4)
C5_5 C 0.2595(13) 0.9105(16) 0.574(3)
C6_5 C 0.2124(21) 0.8721(23) 0.443(7)
C7_5 C 0.2088(16) 0.8875(19) 0.246(8)
C8_5 C 0.162(2) 0.8450(21) 0.143(2)
O5_5 O 0.3013(7) 0.9634(11) 0.532(3)
O1_5 O 0.0743(13) 0.7695(16) 0.919(3)
H2_5 H 0.16417 0.85826 0.99609
O9_5 O 0.9634(11) 0.6622(13) 0.468(3)
C1_6 C 0.2439(16) 0.3177(10) 0.092(3)
C2_6 C 0.2055(23) 0.3264(10) 0.223(7)
C3_6 C 0.2209(19) 0.3454(10) 0.420(8)
C4_6 C 0.1784(21) 0.3500(6) 0.523(2)
H1_6 H 0.19160 0.36076 0.67057
O3_6 O 0.2728(12) 0.3560(9) 0.472(4)
C5_6 C 0.0895(16) 0.3489(10) 0.574(3)
C6_6 C 0.1279(23) 0.3402(10) 0.443(7)
C7_6 C 0.1125(19) 0.3212(10) 0.246(8)
C8_6 C 0.1550(21) 0.3166(6) 0.143(2)
O5_6 O 0.0366(11) 0.3378(8) 0.532(3)
O9_6 O 0.3378(13) 0.3013(7) 0.468(3)
O1_6 O 0.2305(16) 0.3047(10) 0.919(3)
H2_6 H 0.14174 0.30590 0.99609
O7_6 O 0.9257(19) 0.2305(16) 0.081(3)
O11_6 O 0.9167(15) 0.2728(12) 0.528(4)
H1_7 H 0.30590 0.16417 0.00391
C1_7 C 0.3489(10) 0.2595(13) 0.426(3)
C2_7 C 0.3402(10) 0.2124(21) 0.557(7)
C3_7 C 0.3212(10) 0.2088(16) 0.754(8)
C4_7 C 0.3166(6) 0.162(2) 0.857(2)
C5_7 C 0.3177(10) 0.0739(13) 0.908(3)
C6_7 C 0.3264(10) 0.1210(21) 0.777(7)
C7_7 C 0.3454(10) 0.1246(16) 0.580(8)
C8_7 C 0.3500(6) 0.172(2) 0.477(2)
H2_7 H 0.36076 0.16917 0.32943
H1_8 H 0.83583 0.14174 0.00391
C1_8 C 0.7405(13) 0.0895(16) 0.426(3)
C2_8 C 0.7876(21) 0.1279(23) 0.557(7)
C3_8 C 0.7912(16) 0.1125(19) 0.754(8)
C4_8 C 0.838(2) 0.1550(21) 0.857(2)
C5_8 C 0.9261(13) 0.2439(16) 0.908(3)
C6_8 C 0.8790(21) 0.2055(23) 0.777(7)
C7_8 C 0.8754(16) 0.2209(19) 0.580(8)
C8_8 C 0.828(2) 0.1784(21) 0.477(2)
H2_8 H 0.83083 0.19160 0.32943
H1_9 H 0.85826 0.69410 0.00391
C1_9 C 0.9105(16) 0.6511(10) 0.426(3)
C2_9 C 0.8721(23) 0.6598(10) 0.557(7)
C3_9 C 0.8875(19) 0.6788(10) 0.754(8)
C4_9 C 0.8450(21) 0.6834(6) 0.857(2)
C5_9 C 0.7561(16) 0.6823(10) 0.908(3)
C6_9 C 0.7945(23) 0.6736(10) 0.777(7)
C7_9 C 0.7791(19) 0.6546(10) 0.580(8)
C8_9 C 0.8216(21) 0.6500(6) 0.477(2)
H2_9 H 0.80840 0.63924 0.32943
loop_
_geom_bond_atom_site_label_1
_geom_bond_atom_site_label_2
_geom_bond_site_symmetry_1
_geom_bond_site_symmetry_2
Mn4 O9 1_555 1_555
C1 C2 1_555 1_555
O1 C1 1_555 1_555
O2 C1 1_555 1_555
C8 C2 1_555 1_555
H2 C8 1_555 1_555
O6 C7 1_555 1_555
Mn4 O1 1_555 1_555
Mn6 O2 1_555 1_555
O7 Mn2 1_555 1_555
C7 C8 1_555 1_555
O6 Mn2 1_555 1_555
C3 C4 1_555 1_555
C4 H1 1_555 1_555
O3 Mn1 1_555 1_555
C5 C6 1_555 1_555
C6 C4 1_555 1_555
O4 C5 1_555 1_555
O5 C5 1_555 1_555
Mn5 O5 1_555 1_555
Mn8 O4 1_555 1_555
O8 Mn1 1_555 1_555
C3 O3 1_555 1_555
Mn8 O10 1_555 1_555
C3_2 C4_2 1_555 1_555
C4_2 H1_2 1_555 1_555
O3_2 Mn1_2 1_555 1_555
C5_2 C6_2 1_555 1_555
C6_2 C4_2 1_555 1_555
O4_2 C5_2 1_555 1_555
O5_2 C5_2 1_555 1_555
Mn4_2 O3_2 1_555 1_555
Mn5_2 O5_2 1_555 1_555
Mn8_2 O4_2 1_555 1_555
O8_2 Mn1_2 1_555 1_555
O9_2 Mn1_2 1_555 1_555
C3_2 O3_2 1_555 1_555
Mn4_2 O9_2 1_555 1_555
Mn5_2 O11_2 1_555 1_555
C1_2 C2_2 1_555 1_555
O1_2 C1_2 1_555 1_555
O2_2 C1_2 1_555 1_555
C8_2 C2_2 1_555 1_555
H2_2 C8_2 1_555 1_555
O6_2 C7_2 1_555 1_555
Mn4_2 O1_2 1_555 1_555
Mn6_2 O2_2 1_555 1_555
Mn8_2 O6_2 1_555 1_555
O7_2 Mn2_2 1_555 1_555
O10_2 Mn2_2 1_555 1_555
C7_2 C8_2 1_555 1_555
O6_2 Mn2_2 1_555 1_555
Mn6_2 O12_2 1_555 1_555
Mn8_2 O10_2 1_555 1_555
C3_3 C4_3 1_555 1_555
C4_3 H1_3 1_555 1_555
O3_3 Mn1_3 1_555 1_555
C5_3 C6_3 1_555 1_555
C6_3 C4_3 1_555 1_555
O4_3 C5_3 1_555 1_555
O5_3 C5_3 1_555 1_555
Mn5_3 O5_3 1_555 1_555
Mn8_3 O4_3 1_555 1_555
O8_3 Mn1_3 1_555 1_555
C3_3 O3_3 1_555 1_555
Mn8_3 O10_3 1_555 1_555
Mn4_3 O9_3 1_555 1_555
C1_3 C2_3 1_555 1_555
O1_3 C1_3 1_555 1_555
O2_3 C1_3 1_555 1_555
C8_3 C2_3 1_555 1_555
H2_3 C8_3 1_555 1_555
O6_3 C7_3 1_555 1_555
Mn4_3 O1_3 1_555 1_555
Mn6_3 O2_3 1_555 1_555
O7_3 Mn2_3 1_555 1_555
C7_3 C8_3 1_555 1_555
O6_3 Mn2_3 1_555 1_555
C1_4 C2_4 1_555 1_555
C2_4 C3_4 1_555 1_555
C3_4 C4_4 1_555 1_555
C4_4 H1_4 1_555 1_555
O9_3 C1_4 1_555 1_555
O3_4 Mn4_3 1_555 1_555
C5_4 C6_4 1_555 1_555
C6_4 C4_4 1_555 1_555
C7_4 C6_4 1_555 1_555
C8_4 C2_4 1_555 1_555
O7_2 C5_4 1_555 1_555
O5_4 C5_4 1_555 1_555
O11_2 C7_4 1_555 1_555
Mn5_2 O5_4 1_555 1_555
Mn6_3 O3_4 1_555 1_555
Mn8_2 O5_4 1_555 1_555
O7_4 Mn5_2 1_555 1_555
O11_4 Mn5_2 1_555 1_555
C3_4 O3_4 1_555 1_555
C7_4 C8_4 1_555 1_555
Mn8_2 O11_4 1_555 1_555
Mn6_3 O1_4 1_555 1_555
O7_5 Mn5_3 1_555 1_555
O11_5 Mn5_3 1_555 1_555
Mn8_3 O11_5 1_555 1_555
C1_5 C2_5 1_555 1_555
C2_5 C3_5 1_555 1_555
C3_5 C4_5 1_555 1_555
C4_5 H1_5 1_555 1_555
O9 C1_5 1_555 1_555
O3_5 Mn4 1_555 1_555
C5_5 C6_5 1_555 1_555
C6_5 C4_5 1_555 1_555
C7_5 C6_5 1_555 1_555
C8_5 C2_5 1_555 1_555
O7_3 C5_5 1_555 1_555
O5_5 C5_5 1_555 1_555
O11_3 C7_5 1_555 1_555
Mn6 O3_5 1_555 1_555
C3_5 O3_5 1_555 1_555
C7_5 C8_5 1_555 1_555
Mn6 O1_5 1_555 1_555
C1_6 C2_6 1_555 1_555
C2_6 C3_6 1_555 1_555
C3_6 C4_6 1_555 1_555
C4_6 H1_6 1_555 1_555
O9_2 C1_6 1_555 1_555
O3_6 Mn4_2 1_555 1_555
C5_6 C6_6 1_555 1_555
C6_6 C4_6 1_555 1_555
C7_6 C6_6 1_555 1_555
C8_6 C2_6 1_555 1_555
O7 C5_6 1_555 1_555
O5_6 C5_6 1_555 1_555
O11 C7_6 1_555 1_555
Mn6_2 O3_6 1_555 1_555
O9_6 Mn4_2 1_555 1_555
C3_6 O3_6 1_555 1_555
C7_6 C8_6 1_555 1_555
Mn6_2 O9_6 1_555 1_555
Mn6_2 O1_6 1_555 1_555
O7_6 Mn5 1_555 1_555
O11_6 Mn5 1_555 1_555
Mn8 O11_6 1_555 1_555
C1_7 C2_7 1_555 1_555
C2_7 C3_7 1_555 1_555
C3_7 C4_7 1_555 1_555
O8_2 C1_7 1_555 1_555
O9_6 C1_7 1_555 1_555
C5_7 C6_7 1_555 1_555
C6_7 C4_7 1_555 1_555
C7_7 C6_7 1_555 1_555
C8_7 C2_7 1_555 1_555
H2_7 C8_7 1_555 1_555
O10_3 C5_7 1_555 1_555
O11_5 C7_7 1_555 1_555
C3_7 O12_2 1_555 1_555
C7_7 C8_7 1_555 1_555
C1_8 C2_8 1_555 1_555
C2_8 C3_8 1_555 1_555
C3_8 C4_8 1_555 1_555
O8_3 C1_8 1_555 1_555
O9_4 C1_8 1_555 1_555
C5_8 C6_8 1_555 1_555
C6_8 C4_8 1_555 1_555
C7_8 C6_8 1_555 1_555
C8_8 C2_8 1_555 1_555
H2_8 C8_8 1_555 1_555
O10 C5_8 1_555 1_555
O11_6 C7_8 1_555 1_555
C3_8 O12_3 1_555 1_555
C7_8 C8_8 1_555 1_555
C1_9 C2_9 1_555 1_555
C2_9 C3_9 1_555 1_555
C3_9 C4_9 1_555 1_555
O8 C1_9 1_555 1_555
O9_5 C1_9 1_555 1_555
C5_9 C6_9 1_555 1_555
C6_9 C4_9 1_555 1_555
C7_9 C6_9 1_555 1_555
C8_9 C2_9 1_555 1_555
H2_9 C8_9 1_555 1_555
O10_2 C5_9 1_555 1_555
O11_4 C7_9 1_555 1_555
C3_9 O12 1_555 1_555
C7_9 C8_9 1_555 1_555

#END
