
###############################################################################
#
# This file contains modified crystal structure data generated from the
# MOF subset of the Cambridge Structural Database (CSD) v543 
# hosted by the Cambridge Crystallographic Data Centre (CCDC).
#
# This work is licensed under the Creative Commons
# Attribution-NonCommercial-ShareAlike 4.0 International License.
# To view a copy of this license, visit
# http://creativecommons.org/licenses/by-nc-sa/4.0/
# or send a letter to
# Creative Commons, PO Box 1866, Mountain View, CA 94042, USA.
#
# CIF created using the CSD Python API on 29 September 2022
# The structure has been converted into the P1 space group
# The structure has a 3D framework
# The original CSD entry OZUMAZ is in the rhombohedral crystal system
# The framework has been calculated to contain at least 10.0% void space
# The void calculation uses a probe of radius 1.32A, grid spacing 0.4
#
###############################################################################

data_OZUMAZ
_chemical_formula_moiety         '(C72 H18 Cu10 O48)n'
_symmetry_cell_setting           triclinic
_symmetry_space_group_name_H-M   'P 1'
_symmetry_Int_Tables_number      1
_space_group_name_Hall           'P 1'
loop_
_symmetry_equiv_pos_site_id
_symmetry_equiv_pos_as_xyz
1 x,y,z
_cell_length_a                   25.8717(6)
_cell_length_b                   25.8717(6)
_cell_length_c                   6.2631(3)
_cell_angle_alpha                90
_cell_angle_beta                 90
_cell_angle_gamma                120
_cell_volume                     3630.53
loop_
_atom_site_label
_atom_site_type_symbol
_atom_site_fract_x
_atom_site_fract_y
_atom_site_fract_z
O6 O 0.0220(10) 0.3848(10) 0.257(4)
Cu2 Cu 0.0532(7) 0.3683(8) 0.0141(20)
Cu4 Cu 0.0350(8) 0.6484(11) 0.3192(20)
O9 O 0.0515(10) 0.6961(14) 0.076(4)
O11 O 0.0539(12) 0.3041(9) 0.188(3)
C1 C 0.0062(8) 0.5866(12) 0.696(4)
C2 C 0.0220(8) 0.5056(31) 0.799(3)
C3 C 0.0047(10) 0.5454(13) 0.866(8)
H1 H 0.0380(12) 0.5093(18) 0.630(3)
O1 O 0.0424(8) 0.6019(11) 0.539(3)
C6 C 0.0116(12) 0.4568(15) 0.917(9)
O4 O 0.0292(9) 0.4164(8) 0.855(3)
Cu6 Cu 0.0182(11) 0.7199(7) 0.6526(20)
O7 O 0.1072(14) 0.3757(8) 0.794(3)
C4 C 0.9884(12) 0.5432(15) 0.083(9)
O3 O 0.9708(9) 0.5836(8) 0.145(3)
C5 C 0.9953(10) 0.4546(13) 0.134(8)
C7 C 0.9938(8) 0.4134(12) 0.304(4)
O5 O 0.9576(8) 0.3981(11) 0.461(3)
C8 C 0.9780(8) 0.4944(31) 0.201(3)
H2 H 0.9620(12) 0.4907(18) 0.370(3)
Cu5 Cu 0.9818(11) 0.2801(7) 0.3474(20)
Cu8 Cu 0.9650(8) 0.3516(11) 0.6808(20)
O8 O 0.8928(14) 0.6243(8) 0.206(3)
Cu1 Cu 0.9468(7) 0.6317(8) 0.9859(20)
O2 O 0.9780(10) 0.6152(10) 0.743(4)
O10 O 0.9485(10) 0.3039(14) 0.924(4)
O12 O 0.9461(12) 0.6959(9) 0.812(3)
C4_2 C 0.4568(15) 0.4452(19) 0.083(9)
O3_2 O 0.4164(8) 0.3872(12) 0.145(3)
C5_2 C 0.5454(13) 0.5407(16) 0.134(8)
C7_2 C 0.5866(12) 0.5804(14) 0.304(4)
O5_2 O 0.6019(11) 0.5595(14) 0.461(3)
C8_2 C 0.5056(31) 0.4836(32) 0.201(3)
O6_2 O 0.6152(10) 0.6372(14) 0.257(4)
H2_2 H 0.5093(18) 0.4713(22) 0.370(3)
Cu2_2 Cu 0.6317(8) 0.6849(11) 0.0141(20)
Cu4_2 Cu 0.3516(11) 0.3865(14) 0.3192(20)
Cu5_2 Cu 0.7199(7) 0.7016(13) 0.3474(20)
Cu8_2 Cu 0.6484(11) 0.6135(14) 0.6808(20)
O8_2 O 0.3757(8) 0.2686(16) 0.206(3)
O9_2 O 0.3039(14) 0.3553(17) 0.076(4)
O11_2 O 0.6959(9) 0.7497(15) 0.188(3)
Cu1_2 Cu 0.3683(8) 0.3151(11) 0.9859(20)
C1_2 C 0.4134(12) 0.4196(14) 0.696(4)
C2_2 C 0.4944(31) 0.5164(32) 0.799(3)
C3_2 C 0.4546(13) 0.4593(16) 0.866(8)
H1_2 H 0.4907(18) 0.5287(22) 0.630(3)
O1_2 O 0.3981(11) 0.4405(14) 0.539(3)
O2_2 O 0.3848(10) 0.3628(14) 0.743(4)
C6_2 C 0.5432(15) 0.5548(19) 0.917(9)
O4_2 O 0.5836(8) 0.6128(12) 0.855(3)
Cu6_2 Cu 0.2801(7) 0.2984(13) 0.6526(20)
O7_2 O 0.6243(8) 0.7314(16) 0.794(3)
O10_2 O 0.6961(14) 0.6447(17) 0.924(4)
O12_2 O 0.3041(9) 0.2503(15) 0.812(3)
C4_3 C 0.5548(19) 0.0116(12) 0.083(9)
O3_3 O 0.6128(12) 0.0292(9) 0.145(3)
C5_3 C 0.4593(16) 0.0047(10) 0.134(8)
C7_3 C 0.4196(14) 0.0062(8) 0.304(4)
O5_3 O 0.4405(14) 0.0424(8) 0.461(3)
C8_3 C 0.5164(32) 0.0220(8) 0.201(3)
H2_3 H 0.5287(22) 0.0380(12) 0.370(3)
Cu5_3 Cu 0.2984(13) 0.0182(11) 0.3474(20)
Cu8_3 Cu 0.3865(14) 0.0350(8) 0.6808(20)
O8_3 O 0.7314(16) 0.1072(14) 0.206(3)
Cu1_3 Cu 0.6849(11) 0.0532(7) 0.9859(20)
O2_3 O 0.6372(14) 0.0220(10) 0.743(4)
O10_3 O 0.3553(17) 0.0515(10) 0.924(4)
O12_3 O 0.7497(15) 0.0539(12) 0.812(3)
O6_3 O 0.3628(14) 0.9780(10) 0.257(4)
Cu2_3 Cu 0.3151(11) 0.9468(7) 0.0141(20)
Cu4_3 Cu 0.6135(14) 0.9650(8) 0.3192(20)
O9_3 O 0.6447(17) 0.9485(10) 0.076(4)
O11_3 O 0.2503(15) 0.9461(12) 0.188(3)
C1_3 C 0.5804(14) 0.9938(8) 0.696(4)
C2_3 C 0.4836(32) 0.9780(8) 0.799(3)
C3_3 C 0.5407(16) 0.9953(10) 0.866(8)
H1_3 H 0.4713(22) 0.9620(12) 0.630(3)
O1_3 O 0.5595(14) 0.9576(8) 0.539(3)
C6_3 C 0.4452(19) 0.9884(12) 0.917(9)
O4_3 O 0.3872(12) 0.9708(9) 0.855(3)
Cu6_3 Cu 0.7016(13) 0.9818(11) 0.6526(20)
O7_3 O 0.2686(16) 0.8928(14) 0.794(3)
O9_4 O 0.7181(10) 0.0295(14) 0.410(4)
C1_4 C 0.6729(8) 0.9199(12) 0.029(4)
C2_4 C 0.6887(8) 0.8389(31) 0.132(3)
C3_4 C 0.6714(10) 0.8787(13) 0.199(8)
C4_4 C 0.6551(12) 0.8765(15) 0.416(9)
O3_4 O 0.6375(9) 0.9169(8) 0.478(3)
C5_4 C 0.6620(10) 0.7879(13) 0.467(8)
C6_4 C 0.6783(12) 0.7901(15) 0.250(9)
C7_4 C 0.6605(8) 0.7467(12) 0.637(4)
C8_4 C 0.6447(8) 0.8277(31) 0.534(3)
O6_4 O 0.6887(10) 0.7181(10) 0.590(4)
H2_4 H 0.6287(12) 0.8240(18) 0.703(3)
O7_4 O 0.7738(14) 0.7091(8) 0.128(3)
O11_4 O 0.7205(12) 0.6375(9) 0.522(3)
H1_4 H 0.7047(12) 0.8426(18) 0.963(3)
O1_4 O 0.7091(8) 0.9352(11) 0.872(3)
O7_5 O 0.2909(8) 0.0648(16) 0.128(3)
O11_5 O 0.3625(9) 0.0831(15) 0.522(3)
C1_5 C 0.0801(12) 0.7529(14) 0.029(4)
C2_5 C 0.1611(31) 0.8497(32) 0.132(3)
C3_5 C 0.1213(13) 0.7926(16) 0.199(8)
C4_5 C 0.1235(15) 0.7785(19) 0.416(9)
O3_5 O 0.0831(8) 0.7205(12) 0.478(3)
C5_5 C 0.2121(13) 0.8740(16) 0.467(8)
C6_5 C 0.2099(15) 0.8881(19) 0.250(9)
C7_5 C 0.2533(12) 0.9137(14) 0.637(4)
C8_5 C 0.1723(31) 0.8169(32) 0.534(3)
O6_5 O 0.2819(10) 0.9705(14) 0.590(4)
H2_5 H 0.1760(18) 0.8046(22) 0.703(3)
H1_5 H 0.1574(18) 0.8620(22) 0.963(3)
O1_5 O 0.0648(11) 0.7738(14) 0.872(3)
O9_5 O 0.9705(14) 0.6887(17) 0.410(4)
C1_6 C 0.2471(14) 0.3271(8) 0.029(4)
C2_6 C 0.1503(32) 0.3113(8) 0.132(3)
C3_6 C 0.2074(16) 0.3286(10) 0.199(8)
C4_6 C 0.2215(19) 0.3449(12) 0.416(9)
O3_6 O 0.2795(12) 0.3625(9) 0.478(3)
C5_6 C 0.1260(16) 0.3380(10) 0.467(8)
C6_6 C 0.1119(19) 0.3217(12) 0.250(9)
C7_6 C 0.0863(14) 0.3395(8) 0.637(4)
C8_6 C 0.1831(32) 0.3553(8) 0.534(3)
O6_6 O 0.0295(14) 0.3113(10) 0.590(4)
H2_6 H 0.1954(22) 0.3713(12) 0.703(3)
O9_6 O 0.3113(17) 0.2819(10) 0.410(4)
H1_6 H 0.1380(22) 0.2953(12) 0.963(3)
O1_6 O 0.2262(14) 0.2909(8) 0.872(3)
O7_6 O 0.9352(16) 0.2262(14) 0.128(3)
O11_6 O 0.9169(15) 0.2795(12) 0.522(3)
H2_7 H 0.2953(12) 0.1574(18) 0.037(3)
C1_7 C 0.3395(8) 0.2533(12) 0.363(4)
C2_7 C 0.3553(8) 0.1723(31) 0.466(3)
C3_7 C 0.3380(10) 0.2121(13) 0.533(8)
C4_7 C 0.3217(12) 0.2099(15) 0.750(9)
H1_7 H 0.3713(12) 0.1760(18) 0.297(3)
C5_7 C 0.3286(10) 0.1213(13) 0.801(8)
C6_7 C 0.3449(12) 0.1235(15) 0.584(9)
C7_7 C 0.3271(8) 0.0801(12) 0.971(4)
C8_7 C 0.3113(8) 0.1611(31) 0.868(3)
H2_8 H 0.8426(18) 0.1380(22) 0.037(3)
C1_8 C 0.7467(12) 0.0863(14) 0.363(4)
C2_8 C 0.8277(31) 0.1831(32) 0.466(3)
C3_8 C 0.7879(13) 0.1260(16) 0.533(8)
C4_8 C 0.7901(15) 0.1119(19) 0.750(9)
H1_8 H 0.8240(18) 0.1954(22) 0.297(3)
C5_8 C 0.8787(13) 0.2074(16) 0.801(8)
C6_8 C 0.8765(15) 0.2215(19) 0.584(9)
C7_8 C 0.9199(12) 0.2471(14) 0.971(4)
C8_8 C 0.8389(31) 0.1503(32) 0.868(3)
H2_9 H 0.8620(22) 0.7047(12) 0.037(3)
C1_9 C 0.9137(14) 0.6605(8) 0.363(4)
C2_9 C 0.8169(32) 0.6447(8) 0.466(3)
C3_9 C 0.8740(16) 0.6620(10) 0.533(8)
C4_9 C 0.8881(19) 0.6783(12) 0.750(9)
H1_9 H 0.8046(22) 0.6287(12) 0.297(3)
C5_9 C 0.7926(16) 0.6714(10) 0.801(8)
C6_9 C 0.7785(19) 0.6551(12) 0.584(9)
C7_9 C 0.7529(14) 0.6729(8) 0.971(4)
C8_9 C 0.8497(32) 0.6887(8) 0.868(3)
loop_
_geom_bond_atom_site_label_1
_geom_bond_atom_site_label_2
_geom_bond_site_symmetry_1
_geom_bond_site_symmetry_2
O11 Cu2 1_555 1_555
O6 Cu2 1_555 1_555
Cu4 O9 1_555 1_555
C1 C3 1_555 1_555
C2 C3 1_555 1_555
H1 C2 1_555 1_555
O1 C1 1_555 1_555
C6 C2 1_555 1_555
O4 C6 1_555 1_555
Cu4 O1 1_555 1_555
C4 O3 1_555 1_555
C7 C5 1_555 1_555
O5 C7 1_555 1_555
C8 C4 1_555 1_555
H2 C8 1_555 1_555
Cu8 O5 1_555 1_555
C5 C8 1_555 1_555
Cu1 O2 1_555 1_555
O12 Cu1 1_555 1_555
Cu8 O10 1_555 1_555
C4_2 O3_2 1_555 1_555
C7_2 C5_2 1_555 1_555
O5_2 C7_2 1_555 1_555
C8_2 C4_2 1_555 1_555
O6_2 C7_2 1_555 1_555
H2_2 C8_2 1_555 1_555
Cu4_2 O3_2 1_555 1_555
Cu5_2 O6_2 1_555 1_555
Cu8_2 O5_2 1_555 1_555
O11_2 Cu2_2 1_555 1_555
C5_2 C8_2 1_555 1_555
O6_2 Cu2_2 1_555 1_555
Cu4_2 O9_2 1_555 1_555
Cu5_2 O11_2 1_555 1_555
Cu1_2 O2_2 1_555 1_555
C1_2 C3_2 1_555 1_555
C2_2 C3_2 1_555 1_555
H1_2 C2_2 1_555 1_555
O1_2 C1_2 1_555 1_555
O2_2 C1_2 1_555 1_555
C6_2 C2_2 1_555 1_555
O4_2 C6_2 1_555 1_555
Cu4_2 O1_2 1_555 1_555
Cu6_2 O2_2 1_555 1_555
Cu8_2 O4_2 1_555 1_555
O12_2 Cu1_2 1_555 1_555
Cu6_2 O12_2 1_555 1_555
Cu8_2 O10_2 1_555 1_555
C4_3 O3_3 1_555 1_555
C7_3 C5_3 1_555 1_555
O5_3 C7_3 1_555 1_555
C8_3 C4_3 1_555 1_555
H2_3 C8_3 1_555 1_555
Cu8_3 O5_3 1_555 1_555
C5_3 C8_3 1_555 1_555
Cu1_3 O2_3 1_555 1_555
O12_3 Cu1_3 1_555 1_555
Cu8_3 O10_3 1_555 1_555
O11_3 Cu2_3 1_555 1_555
O6_3 Cu2_3 1_555 1_555
Cu4_3 O9_3 1_555 1_555
C1_3 C3_3 1_555 1_555
C2_3 C3_3 1_555 1_555
H1_3 C2_3 1_555 1_555
O1_3 C1_3 1_555 1_555
C6_3 C2_3 1_555 1_555
O4_3 C6_3 1_555 1_555
Cu4_3 O1_3 1_555 1_555
C1_4 C3_4 1_555 1_555
C2_4 C3_4 1_555 1_555
C3_4 C4_4 1_555 1_555
C4_4 O3_4 1_555 1_555
O9_3 C1_4 1_555 1_555
O3_4 Cu4_3 1_555 1_555
C5_4 C6_4 1_555 1_555
C6_4 C2_4 1_555 1_555
O11_2 C6_4 1_555 1_555
C7_4 C5_4 1_555 1_555
O7_2 C7_4 1_555 1_555
C8_4 C4_4 1_555 1_555
O6_4 C7_4 1_555 1_555
H2_4 C8_4 1_555 1_555
Cu6_3 O3_4 1_555 1_555
Cu8_2 O6_4 1_555 1_555
O7_4 Cu5_2 1_555 1_555
O11_4 Cu5_2 1_555 1_555
C5_4 C8_4 1_555 1_555
O6_4 Cu5_2 1_555 1_555
Cu8_2 O11_4 1_555 1_555
Cu6_3 O1_4 1_555 1_555
O7_5 Cu5_3 1_555 1_555
O11_5 Cu5_3 1_555 1_555
Cu8_3 O11_5 1_555 1_555
C1_5 C3_5 1_555 1_555
C2_5 C3_5 1_555 1_555
C3_5 C4_5 1_555 1_555
C4_5 O3_5 1_555 1_555
O9 C1_5 1_555 1_555
O3_5 Cu4 1_555 1_555
C5_5 C6_5 1_555 1_555
C6_5 C2_5 1_555 1_555
O11_3 C6_5 1_555 1_555
C7_5 C5_5 1_555 1_555
O7_3 C7_5 1_555 1_555
C8_5 C4_5 1_555 1_555
O6_5 C7_5 1_555 1_555
H2_5 C8_5 1_555 1_555
Cu6 O3_5 1_555 1_555
C5_5 C8_5 1_555 1_555
Cu6 O1_5 1_555 1_555
C1_6 C3_6 1_555 1_555
C2_6 C3_6 1_555 1_555
C3_6 C4_6 1_555 1_555
C4_6 O3_6 1_555 1_555
O9_2 C1_6 1_555 1_555
O3_6 Cu4_2 1_555 1_555
C5_6 C6_6 1_555 1_555
C6_6 C2_6 1_555 1_555
O11 C6_6 1_555 1_555
C7_6 C5_6 1_555 1_555
O7 C7_6 1_555 1_555
C8_6 C4_6 1_555 1_555
O6_6 C7_6 1_555 1_555
H2_6 C8_6 1_555 1_555
Cu6_2 O3_6 1_555 1_555
O9_6 Cu4_2 1_555 1_555
C5_6 C8_6 1_555 1_555
Cu6_2 O9_6 1_555 1_555
Cu6_2 O1_6 1_555 1_555
O7_6 Cu5 1_555 1_555
O11_6 Cu5 1_555 1_555
Cu8 O11_6 1_555 1_555
C1_7 C3_7 1_555 1_555
C2_7 C3_7 1_555 1_555
C3_7 C4_7 1_555 1_555
C4_7 O12_2 1_555 1_555
H1_7 C2_7 1_555 1_555
O8_2 C1_7 1_555 1_555
O9_6 C1_7 1_555 1_555
C5_7 C6_7 1_555 1_555
C6_7 C2_7 1_555 1_555
O11_5 C6_7 1_555 1_555
C7_7 C5_7 1_555 1_555
C8_7 C4_7 1_555 1_555
O10_3 C7_7 1_555 1_555
C5_7 C8_7 1_555 1_555
C1_8 C3_8 1_555 1_555
C2_8 C3_8 1_555 1_555
C3_8 C4_8 1_555 1_555
C4_8 O12_3 1_555 1_555
H1_8 C2_8 1_555 1_555
O8_3 C1_8 1_555 1_555
O9_4 C1_8 1_555 1_555
C5_8 C6_8 1_555 1_555
C6_8 C2_8 1_555 1_555
O11_6 C6_8 1_555 1_555
C7_8 C5_8 1_555 1_555
C8_8 C4_8 1_555 1_555
O10 C7_8 1_555 1_555
C5_8 C8_8 1_555 1_555
C1_9 C3_9 1_555 1_555
C2_9 C3_9 1_555 1_555
C3_9 C4_9 1_555 1_555
C4_9 O12 1_555 1_555
H1_9 C2_9 1_555 1_555
O8 C1_9 1_555 1_555
O9_5 C1_9 1_555 1_555
C5_9 C6_9 1_555 1_555
C6_9 C2_9 1_555 1_555
O11_4 C6_9 1_555 1_555
C7_9 C5_9 1_555 1_555
C8_9 C4_9 1_555 1_555
O10_2 C7_9 1_555 1_555
C5_9 C8_9 1_555 1_555

#END
