
###############################################################################
#
# This file contains modified crystal structure data generated from the
# MOF subset of the Cambridge Structural Database (CSD) v543 
# hosted by the Cambridge Crystallographic Data Centre (CCDC).
#
# This work is licensed under the Creative Commons
# Attribution-NonCommercial-ShareAlike 4.0 International License.
# To view a copy of this license, visit
# http://creativecommons.org/licenses/by-nc-sa/4.0/
# or send a letter to
# Creative Commons, PO Box 1866, Mountain View, CA 94042, USA.
#
# CIF created using the CSD Python API on 29 September 2022
# The structure has been converted into the P1 space group
# The structure has a 3D framework
# The original CSD entry OZUMAZ01 is in the rhombohedral crystal system
# The framework has been calculated to contain at least 10.0% void space
# The void calculation uses a probe of radius 1.32A, grid spacing 0.4
#
###############################################################################

data_OZUMAZ01
_chemical_formula_moiety         '(C72 H18 Cu10 O48)n'
_symmetry_cell_setting           triclinic
_symmetry_space_group_name_H-M   'P 1'
_symmetry_Int_Tables_number      1
_space_group_name_Hall           'P 1'
loop_
_symmetry_equiv_pos_site_id
_symmetry_equiv_pos_as_xyz
1 x,y,z
_cell_length_a                   25.8761(7)
_cell_length_b                   25.8761(7)
_cell_length_c                   6.2626(3)
_cell_angle_alpha                90
_cell_angle_beta                 90
_cell_angle_gamma                120
_cell_volume                     3631.47
loop_
_atom_site_label
_atom_site_type_symbol
_atom_site_fract_x
_atom_site_fract_y
_atom_site_fract_z
O6 O 0.0204(13) 0.3847(13) 0.276(5)
Cu2 Cu 0.0527(8) 0.3702(12) 0.016(3)
Cu4 Cu 0.0369(12) 0.6508(14) 0.317(3)
O9 O 0.0514(13) 0.6976(18) 0.057(5)
O11 O 0.0534(17) 0.3020(13) 0.168(7)
C1 C 0.0072(13) 0.5892(16) 0.711(5)
C2 C 0.0203(16) 0.5019(34) 0.795(4)
C3 C 0.0053(16) 0.5444(14) 0.859(7)
H1 H 0.0365(18) 0.505(3) 0.629(5)
O1 O 0.0409(11) 0.5991(16) 0.547(5)
C6 C 0.0150(12) 0.4570(15) 0.929(9)
O4 O 0.0313(13) 0.4180(11) 0.835(7)
Cu6 Cu 0.0158(14) 0.7194(8) 0.651(3)
O7 O 0.1085(19) 0.3742(11) 0.786(5)
C4 C 0.9850(12) 0.5430(15) 0.071(9)
O3 O 0.9687(13) 0.5820(11) 0.165(7)
C5 C 0.9947(16) 0.4556(14) 0.141(7)
C7 C 0.9928(13) 0.4108(16) 0.289(5)
O5 O 0.9591(11) 0.4009(16) 0.453(5)
C8 C 0.9797(16) 0.4981(34) 0.205(4)
H2 H 0.9635(18) 0.495(3) 0.371(5)
Cu5 Cu 0.9842(14) 0.2806(8) 0.349(3)
Cu8 Cu 0.9631(12) 0.3492(14) 0.683(3)
O8 O 0.8915(19) 0.6258(11) 0.214(5)
Cu1 Cu 0.9473(8) 0.6298(12) 0.984(3)
O2 O 0.9796(13) 0.6153(13) 0.724(5)
O10 O 0.9486(13) 0.3024(18) 0.943(5)
O12 O 0.9466(17) 0.6980(13) 0.832(7)
C4_2 C 0.4570(15) 0.4420(19) 0.071(9)
O3_2 O 0.4180(11) 0.3867(17) 0.165(7)
C5_2 C 0.5444(14) 0.5391(21) 0.141(7)
C7_2 C 0.5892(16) 0.5820(21) 0.289(5)
O5_2 O 0.5991(16) 0.5582(19) 0.453(5)
C8_2 C 0.5019(34) 0.4816(38) 0.205(4)
O6_2 O 0.6153(13) 0.6357(18) 0.276(5)
H2_2 H 0.505(3) 0.4685(35) 0.371(5)
Cu2_2 Cu 0.6298(12) 0.6825(14) 0.016(3)
Cu4_2 Cu 0.3492(14) 0.3860(18) 0.317(3)
Cu5_2 Cu 0.7194(8) 0.7035(16) 0.349(3)
Cu8_2 Cu 0.6508(14) 0.6140(18) 0.683(3)
O8_2 O 0.3742(11) 0.2658(22) 0.214(5)
O9_2 O 0.3024(18) 0.3537(22) 0.057(5)
O11_2 O 0.6980(13) 0.7513(21) 0.168(7)
Cu1_2 Cu 0.3702(12) 0.3175(14) 0.984(3)
C1_2 C 0.4108(16) 0.4180(21) 0.711(5)
C2_2 C 0.4981(34) 0.5184(38) 0.795(4)
C3_2 C 0.4556(14) 0.4609(21) 0.859(7)
H1_2 H 0.495(3) 0.5315(35) 0.629(5)
O1_2 O 0.4009(16) 0.4418(19) 0.547(5)
O2_2 O 0.3847(13) 0.3643(18) 0.724(5)
C6_2 C 0.5430(15) 0.5580(19) 0.929(9)
O4_2 O 0.5820(11) 0.6133(17) 0.835(7)
Cu6_2 Cu 0.2806(8) 0.2965(16) 0.651(3)
O7_2 O 0.6258(11) 0.7342(22) 0.786(5)
O10_2 O 0.6976(18) 0.6463(22) 0.943(5)
O12_2 O 0.3020(13) 0.2487(21) 0.832(7)
C4_3 C 0.5580(19) 0.0150(12) 0.071(9)
O3_3 O 0.6133(17) 0.0313(13) 0.165(7)
C5_3 C 0.4609(21) 0.0053(16) 0.141(7)
C7_3 C 0.4180(21) 0.0072(13) 0.289(5)
O5_3 O 0.4418(19) 0.0409(11) 0.453(5)
C8_3 C 0.5184(38) 0.0203(16) 0.205(4)
H2_3 H 0.5315(35) 0.0365(18) 0.371(5)
Cu5_3 Cu 0.2965(16) 0.0158(14) 0.349(3)
Cu8_3 Cu 0.3860(18) 0.0369(12) 0.683(3)
O8_3 O 0.7342(22) 0.1085(19) 0.214(5)
Cu1_3 Cu 0.6825(14) 0.0527(8) 0.984(3)
O2_3 O 0.6357(18) 0.0204(13) 0.724(5)
O10_3 O 0.3537(22) 0.0514(13) 0.943(5)
O12_3 O 0.7513(21) 0.0534(17) 0.832(7)
O6_3 O 0.3643(18) 0.9796(13) 0.276(5)
Cu2_3 Cu 0.3175(14) 0.9473(8) 0.016(3)
Cu4_3 Cu 0.6140(18) 0.9631(12) 0.317(3)
O9_3 O 0.6463(22) 0.9486(13) 0.057(5)
O11_3 O 0.2487(21) 0.9466(17) 0.168(7)
C1_3 C 0.5820(21) 0.9928(13) 0.711(5)
C2_3 C 0.4816(38) 0.9797(16) 0.795(4)
C3_3 C 0.5391(21) 0.9947(16) 0.859(7)
H1_3 H 0.4685(35) 0.9635(18) 0.629(5)
O1_3 O 0.5582(19) 0.9591(11) 0.547(5)
C6_3 C 0.4420(19) 0.9850(12) 0.929(9)
O4_3 O 0.3867(17) 0.9687(13) 0.835(7)
Cu6_3 Cu 0.7035(16) 0.9842(14) 0.651(3)
O7_3 O 0.2658(22) 0.8915(19) 0.786(5)
O9_4 O 0.7180(13) 0.0310(18) 0.391(5)
C1_4 C 0.6739(13) 0.9225(16) 0.044(5)
C2_4 C 0.6870(16) 0.8352(34) 0.128(4)
C3_4 C 0.6720(16) 0.8777(14) 0.192(7)
C4_4 C 0.6517(12) 0.8763(15) 0.404(9)
O3_4 O 0.6354(13) 0.9153(11) 0.498(7)
C5_4 C 0.6614(16) 0.7889(14) 0.474(7)
C6_4 C 0.6817(12) 0.7903(15) 0.262(9)
C7_4 C 0.6595(13) 0.7441(16) 0.622(5)
C8_4 C 0.6464(16) 0.8314(34) 0.538(4)
O6_4 O 0.6871(13) 0.7180(13) 0.609(5)
H2_4 H 0.6302(18) 0.828(3) 0.704(5)
O7_4 O 0.7751(19) 0.7076(11) 0.120(5)
O11_4 O 0.7200(17) 0.6354(13) 0.502(7)
H1_4 H 0.7032(18) 0.838(3) 0.962(5)
O1_4 O 0.7076(11) 0.9324(16) 0.880(5)
O7_5 O 0.2924(11) 0.0676(22) 0.120(5)
O11_5 O 0.3646(13) 0.0847(21) 0.502(7)
C1_5 C 0.0775(16) 0.7513(21) 0.044(5)
C2_5 C 0.1648(34) 0.8517(38) 0.128(4)
C3_5 C 0.1223(14) 0.7942(21) 0.192(7)
C4_5 C 0.1237(15) 0.7753(19) 0.404(9)
O3_5 O 0.0847(11) 0.7200(17) 0.498(7)
C5_5 C 0.2111(14) 0.8724(21) 0.474(7)
C6_5 C 0.2097(15) 0.8913(19) 0.262(9)
C7_5 C 0.2559(16) 0.9153(21) 0.622(5)
C8_5 C 0.1686(34) 0.8149(38) 0.538(4)
O6_5 O 0.2820(13) 0.9690(18) 0.609(5)
H2_5 H 0.172(3) 0.8018(35) 0.704(5)
H1_5 H 0.162(3) 0.8648(35) 0.962(5)
O1_5 O 0.0676(16) 0.7751(19) 0.880(5)
O9_5 O 0.9690(18) 0.6871(22) 0.391(5)
C1_6 C 0.2487(21) 0.3261(13) 0.044(5)
C2_6 C 0.1483(38) 0.3130(16) 0.128(4)
C3_6 C 0.2058(21) 0.3280(16) 0.192(7)
C4_6 C 0.2247(19) 0.3483(12) 0.404(9)
O3_6 O 0.2800(17) 0.3646(13) 0.498(7)
C5_6 C 0.1276(21) 0.3386(16) 0.474(7)
C6_6 C 0.1087(19) 0.3183(12) 0.262(9)
C7_6 C 0.0847(21) 0.3405(13) 0.622(5)
C8_6 C 0.1851(38) 0.3536(16) 0.538(4)
O6_6 O 0.0310(18) 0.3129(13) 0.609(5)
H2_6 H 0.1982(35) 0.3698(18) 0.704(5)
O9_6 O 0.3129(22) 0.2820(13) 0.391(5)
H1_6 H 0.1352(35) 0.2968(18) 0.962(5)
O1_6 O 0.2249(19) 0.2924(11) 0.880(5)
O7_6 O 0.9324(22) 0.2249(19) 0.120(5)
O11_6 O 0.9153(21) 0.2800(17) 0.502(7)
H2_7 H 0.2968(18) 0.162(3) 0.038(5)
C1_7 C 0.3405(13) 0.2559(16) 0.378(5)
C2_7 C 0.3536(16) 0.1686(34) 0.462(4)
C3_7 C 0.3386(16) 0.2111(14) 0.526(7)
C4_7 C 0.3183(12) 0.2097(15) 0.738(9)
H1_7 H 0.3698(18) 0.172(3) 0.296(5)
C5_7 C 0.3280(16) 0.1223(14) 0.808(7)
C6_7 C 0.3483(12) 0.1237(15) 0.596(9)
C7_7 C 0.3261(13) 0.0775(16) 0.956(5)
C8_7 C 0.3130(16) 0.1648(34) 0.872(4)
H2_8 H 0.838(3) 0.1352(35) 0.038(5)
C1_8 C 0.7441(16) 0.0847(21) 0.378(5)
C2_8 C 0.8314(34) 0.1851(38) 0.462(4)
C3_8 C 0.7889(14) 0.1276(21) 0.526(7)
C4_8 C 0.7903(15) 0.1087(19) 0.738(9)
H1_8 H 0.828(3) 0.1982(35) 0.296(5)
C5_8 C 0.8777(14) 0.2058(21) 0.808(7)
C6_8 C 0.8763(15) 0.2247(19) 0.596(9)
C7_8 C 0.9225(16) 0.2487(21) 0.956(5)
C8_8 C 0.8352(34) 0.1483(38) 0.872(4)
H2_9 H 0.8648(35) 0.7032(18) 0.038(5)
C1_9 C 0.9153(21) 0.6595(13) 0.378(5)
C2_9 C 0.8149(38) 0.6464(16) 0.462(4)
C3_9 C 0.8724(21) 0.6614(16) 0.526(7)
C4_9 C 0.8913(19) 0.6817(12) 0.738(9)
H1_9 H 0.8018(35) 0.6302(18) 0.296(5)
C5_9 C 0.7942(21) 0.6720(16) 0.808(7)
C6_9 C 0.7753(19) 0.6517(12) 0.596(9)
C7_9 C 0.7513(21) 0.6739(13) 0.956(5)
C8_9 C 0.8517(38) 0.6870(16) 0.872(4)
loop_
_geom_bond_atom_site_label_1
_geom_bond_atom_site_label_2
_geom_bond_site_symmetry_1
_geom_bond_site_symmetry_2
O11 Cu2 1_555 1_555
O6 Cu2 1_555 1_555
Cu4 O9 1_555 1_555
C1 C3 1_555 1_555
C2 C3 1_555 1_555
H1 C2 1_555 1_555
O1 C1 1_555 1_555
C6 C2 1_555 1_555
O4 C6 1_555 1_555
Cu4 O1 1_555 1_555
C4 O3 1_555 1_555
C7 C5 1_555 1_555
O5 C7 1_555 1_555
C8 C4 1_555 1_555
H2 C8 1_555 1_555
Cu8 O5 1_555 1_555
C5 C8 1_555 1_555
Cu1 O2 1_555 1_555
O12 Cu1 1_555 1_555
Cu8 O10 1_555 1_555
C4_2 O3_2 1_555 1_555
C7_2 C5_2 1_555 1_555
O5_2 C7_2 1_555 1_555
C8_2 C4_2 1_555 1_555
O6_2 C7_2 1_555 1_555
H2_2 C8_2 1_555 1_555
Cu4_2 O3_2 1_555 1_555
Cu5_2 O6_2 1_555 1_555
Cu8_2 O5_2 1_555 1_555
O11_2 Cu2_2 1_555 1_555
C5_2 C8_2 1_555 1_555
O6_2 Cu2_2 1_555 1_555
Cu4_2 O9_2 1_555 1_555
Cu5_2 O11_2 1_555 1_555
Cu1_2 O2_2 1_555 1_555
C1_2 C3_2 1_555 1_555
C2_2 C3_2 1_555 1_555
H1_2 C2_2 1_555 1_555
O1_2 C1_2 1_555 1_555
O2_2 C1_2 1_555 1_555
C6_2 C2_2 1_555 1_555
O4_2 C6_2 1_555 1_555
Cu4_2 O1_2 1_555 1_555
Cu6_2 O2_2 1_555 1_555
Cu8_2 O4_2 1_555 1_555
O12_2 Cu1_2 1_555 1_555
Cu6_2 O12_2 1_555 1_555
Cu8_2 O10_2 1_555 1_555
C4_3 O3_3 1_555 1_555
C7_3 C5_3 1_555 1_555
O5_3 C7_3 1_555 1_555
C8_3 C4_3 1_555 1_555
H2_3 C8_3 1_555 1_555
Cu8_3 O5_3 1_555 1_555
C5_3 C8_3 1_555 1_555
Cu1_3 O2_3 1_555 1_555
O12_3 Cu1_3 1_555 1_555
Cu8_3 O10_3 1_555 1_555
O11_3 Cu2_3 1_555 1_555
O6_3 Cu2_3 1_555 1_555
Cu4_3 O9_3 1_555 1_555
C1_3 C3_3 1_555 1_555
C2_3 C3_3 1_555 1_555
H1_3 C2_3 1_555 1_555
O1_3 C1_3 1_555 1_555
C6_3 C2_3 1_555 1_555
O4_3 C6_3 1_555 1_555
Cu4_3 O1_3 1_555 1_555
C1_4 C3_4 1_555 1_555
C2_4 C3_4 1_555 1_555
C3_4 C4_4 1_555 1_555
C4_4 O3_4 1_555 1_555
O9_3 C1_4 1_555 1_555
O3_4 Cu4_3 1_555 1_555
C5_4 C6_4 1_555 1_555
C6_4 C2_4 1_555 1_555
O11_2 C6_4 1_555 1_555
C7_4 C5_4 1_555 1_555
O7_2 C7_4 1_555 1_555
C8_4 C4_4 1_555 1_555
O6_4 C7_4 1_555 1_555
H2_4 C8_4 1_555 1_555
Cu6_3 O3_4 1_555 1_555
Cu8_2 O6_4 1_555 1_555
O7_4 Cu5_2 1_555 1_555
O11_4 Cu5_2 1_555 1_555
C5_4 C8_4 1_555 1_555
O6_4 Cu5_2 1_555 1_555
Cu8_2 O11_4 1_555 1_555
Cu6_3 O1_4 1_555 1_555
O7_5 Cu5_3 1_555 1_555
O11_5 Cu5_3 1_555 1_555
Cu8_3 O11_5 1_555 1_555
C1_5 C3_5 1_555 1_555
C2_5 C3_5 1_555 1_555
C3_5 C4_5 1_555 1_555
C4_5 O3_5 1_555 1_555
O9 C1_5 1_555 1_555
O3_5 Cu4 1_555 1_555
C5_5 C6_5 1_555 1_555
C6_5 C2_5 1_555 1_555
O11_3 C6_5 1_555 1_555
C7_5 C5_5 1_555 1_555
O7_3 C7_5 1_555 1_555
C8_5 C4_5 1_555 1_555
O6_5 C7_5 1_555 1_555
H2_5 C8_5 1_555 1_555
Cu6 O3_5 1_555 1_555
C5_5 C8_5 1_555 1_555
Cu6 O1_5 1_555 1_555
C1_6 C3_6 1_555 1_555
C2_6 C3_6 1_555 1_555
C3_6 C4_6 1_555 1_555
C4_6 O3_6 1_555 1_555
O9_2 C1_6 1_555 1_555
O3_6 Cu4_2 1_555 1_555
C5_6 C6_6 1_555 1_555
C6_6 C2_6 1_555 1_555
O11 C6_6 1_555 1_555
C7_6 C5_6 1_555 1_555
O7 C7_6 1_555 1_555
C8_6 C4_6 1_555 1_555
O6_6 C7_6 1_555 1_555
H2_6 C8_6 1_555 1_555
Cu6_2 O3_6 1_555 1_555
O9_6 Cu4_2 1_555 1_555
C5_6 C8_6 1_555 1_555
Cu6_2 O9_6 1_555 1_555
Cu6_2 O1_6 1_555 1_555
O7_6 Cu5 1_555 1_555
O11_6 Cu5 1_555 1_555
Cu8 O11_6 1_555 1_555
C1_7 C3_7 1_555 1_555
C2_7 C3_7 1_555 1_555
C3_7 C4_7 1_555 1_555
C4_7 O12_2 1_555 1_555
H1_7 C2_7 1_555 1_555
O8_2 C1_7 1_555 1_555
O9_6 C1_7 1_555 1_555
C5_7 C6_7 1_555 1_555
C6_7 C2_7 1_555 1_555
O11_5 C6_7 1_555 1_555
C7_7 C5_7 1_555 1_555
C8_7 C4_7 1_555 1_555
O10_3 C7_7 1_555 1_555
C5_7 C8_7 1_555 1_555
C1_8 C3_8 1_555 1_555
C2_8 C3_8 1_555 1_555
C3_8 C4_8 1_555 1_555
C4_8 O12_3 1_555 1_555
H1_8 C2_8 1_555 1_555
O8_3 C1_8 1_555 1_555
O9_4 C1_8 1_555 1_555
C5_8 C6_8 1_555 1_555
C6_8 C2_8 1_555 1_555
O11_6 C6_8 1_555 1_555
C7_8 C5_8 1_555 1_555
C8_8 C4_8 1_555 1_555
O10 C7_8 1_555 1_555
C5_8 C8_8 1_555 1_555
C1_9 C3_9 1_555 1_555
C2_9 C3_9 1_555 1_555
C3_9 C4_9 1_555 1_555
C4_9 O12 1_555 1_555
H1_9 C2_9 1_555 1_555
O8 C1_9 1_555 1_555
O9_5 C1_9 1_555 1_555
C5_9 C6_9 1_555 1_555
C6_9 C2_9 1_555 1_555
O11_4 C6_9 1_555 1_555
C7_9 C5_9 1_555 1_555
C8_9 C4_9 1_555 1_555
O10_2 C7_9 1_555 1_555
C5_9 C8_9 1_555 1_555

#END
