
###############################################################################
#
# This file contains modified crystal structure data generated from the
# MOF subset of the Cambridge Structural Database (CSD) v543 
# hosted by the Cambridge Crystallographic Data Centre (CCDC).
#
# This work is licensed under the Creative Commons
# Attribution-NonCommercial-ShareAlike 4.0 International License.
# To view a copy of this license, visit
# http://creativecommons.org/licenses/by-nc-sa/4.0/
# or send a letter to
# Creative Commons, PO Box 1866, Mountain View, CA 94042, USA.
#
# CIF created using the CSD Python API on 29 September 2022
# The structure has been converted into the P1 space group
# The structure has a 3D framework
# The original CSD entry OZUMIH is in the rhombohedral crystal system
# The framework has been calculated to contain at least 10.0% void space
# The void calculation uses a probe of radius 1.32A, grid spacing 0.4
#
###############################################################################

data_OZUMIH
_chemical_formula_moiety         '(C72 H18 Cu10 O48)n'
_symmetry_cell_setting           triclinic
_symmetry_space_group_name_H-M   'P 1'
_symmetry_Int_Tables_number      1
_space_group_name_Hall           'P 1'
loop_
_symmetry_equiv_pos_site_id
_symmetry_equiv_pos_as_xyz
1 x,y,z
_cell_length_a                   25.8592(7)
_cell_length_b                   25.8592(7)
_cell_length_c                   6.2696(3)
_cell_angle_alpha                90
_cell_angle_beta                 90
_cell_angle_gamma                120
_cell_volume                     3630.79
loop_
_atom_site_label
_atom_site_type_symbol
_atom_site_fract_x
_atom_site_fract_y
_atom_site_fract_z
O6 O 0.0184(13) 0.3829(14) 0.262(5)
Cu2 Cu 0.0541(8) 0.3705(9) 0.014(3)
Cu4 Cu 0.0372(9) 0.6497(12) 0.319(3)
O9 O 0.0496(14) 0.6978(19) 0.071(5)
O11 O 0.0537(23) 0.3033(18) 0.181(5)
C1 C 0.0050(12) 0.5873(16) 0.710(6)
C2 C 0.0223(16) 0.5019(34) 0.792(4)
C3 C 0.0072(16) 0.5432(20) 0.856(8)
H1 H 0.0349(18) 0.507(2) 0.634(5)
O1 O 0.0387(14) 0.5977(18) 0.549(5)
C6 C 0.0124(15) 0.4549(17) 0.928(9)
O4 O 0.0300(18) 0.4170(14) 0.848(5)
Cu6 Cu 0.0169(12) 0.7208(8) 0.653(3)
O7 O 0.1077(23) 0.3720(14) 0.784(5)
C4 C 0.9876(15) 0.5451(17) 0.072(9)
O3 O 0.9700(18) 0.5830(14) 0.152(5)
C5 C 0.9928(16) 0.4568(20) 0.144(8)
C7 C 0.9950(12) 0.4127(16) 0.290(6)
O5 O 0.9613(14) 0.4023(18) 0.451(5)
C8 C 0.9777(16) 0.4981(34) 0.208(4)
H2 H 0.9651(18) 0.493(2) 0.366(5)
Cu5 Cu 0.9831(12) 0.2792(8) 0.347(3)
Cu8 Cu 0.9628(9) 0.3503(12) 0.681(3)
O8 O 0.8923(23) 0.6280(14) 0.216(5)
Cu1 Cu 0.9459(8) 0.6295(9) 0.986(3)
O2 O 0.9816(13) 0.6171(14) 0.738(5)
O10 O 0.9504(14) 0.3022(19) 0.929(5)
O12 O 0.9463(23) 0.6967(18) 0.819(5)
C4_2 C 0.4549(17) 0.4425(23) 0.072(9)
O3_2 O 0.4170(14) 0.3870(23) 0.152(5)
C5_2 C 0.5432(20) 0.5360(26) 0.144(8)
C7_2 C 0.5873(16) 0.5823(20) 0.290(6)
O5_2 O 0.5977(18) 0.5590(23) 0.451(5)
C8_2 C 0.5019(34) 0.4796(38) 0.208(4)
O6_2 O 0.6171(14) 0.6355(19) 0.262(5)
H2_2 H 0.507(2) 0.4721(27) 0.366(5)
Cu2_2 Cu 0.6295(9) 0.6836(12) 0.014(3)
Cu4_2 Cu 0.3503(12) 0.3874(15) 0.319(3)
Cu5_2 Cu 0.7208(8) 0.7038(14) 0.347(3)
Cu8_2 Cu 0.6497(12) 0.6126(15) 0.681(3)
O8_2 O 0.3720(14) 0.2644(27) 0.216(5)
O9_2 O 0.3022(19) 0.3517(24) 0.071(5)
O11_2 O 0.6967(18) 0.7503(29) 0.181(5)
Cu1_2 Cu 0.3705(9) 0.3164(12) 0.986(3)
C1_2 C 0.4127(16) 0.4177(20) 0.710(6)
C2_2 C 0.4981(34) 0.5204(38) 0.792(4)
C3_2 C 0.4568(20) 0.4640(26) 0.856(8)
H1_2 H 0.493(2) 0.5279(27) 0.634(5)
O1_2 O 0.4023(18) 0.4410(23) 0.549(5)
O2_2 O 0.3829(14) 0.3645(19) 0.738(5)
C6_2 C 0.5451(17) 0.5575(23) 0.928(9)
O4_2 O 0.5830(14) 0.6130(23) 0.848(5)
Cu6_2 Cu 0.2792(8) 0.2962(14) 0.653(3)
O7_2 O 0.6280(14) 0.7356(27) 0.784(5)
O10_2 O 0.6978(19) 0.6483(24) 0.929(5)
O12_2 O 0.3033(18) 0.2497(29) 0.819(5)
C4_3 C 0.5575(23) 0.0124(15) 0.072(9)
O3_3 O 0.6130(23) 0.0300(18) 0.152(5)
C5_3 C 0.4640(26) 0.0072(16) 0.144(8)
C7_3 C 0.4177(20) 0.0050(12) 0.290(6)
O5_3 O 0.4410(23) 0.0387(14) 0.451(5)
C8_3 C 0.5204(38) 0.0223(16) 0.208(4)
H2_3 H 0.5279(27) 0.0349(18) 0.366(5)
Cu5_3 Cu 0.2962(14) 0.0169(12) 0.347(3)
Cu8_3 Cu 0.3874(15) 0.0372(9) 0.681(3)
O8_3 O 0.7356(27) 0.1077(23) 0.216(5)
Cu1_3 Cu 0.6836(12) 0.0541(8) 0.986(3)
O2_3 O 0.6355(19) 0.0184(13) 0.738(5)
O10_3 O 0.3517(24) 0.0496(14) 0.929(5)
O12_3 O 0.7503(29) 0.0537(23) 0.819(5)
O6_3 O 0.3645(19) 0.9816(13) 0.262(5)
Cu2_3 Cu 0.3164(12) 0.9459(8) 0.014(3)
Cu4_3 Cu 0.6126(15) 0.9628(9) 0.319(3)
O9_3 O 0.6483(24) 0.9504(14) 0.071(5)
O11_3 O 0.2497(29) 0.9463(23) 0.181(5)
C1_3 C 0.5823(20) 0.9950(12) 0.710(6)
C2_3 C 0.4796(38) 0.9777(16) 0.792(4)
C3_3 C 0.5360(26) 0.9928(16) 0.856(8)
H1_3 H 0.4721(27) 0.9651(18) 0.634(5)
O1_3 O 0.5590(23) 0.9613(14) 0.549(5)
C6_3 C 0.4425(23) 0.9876(15) 0.928(9)
O4_3 O 0.3870(23) 0.9700(18) 0.848(5)
Cu6_3 Cu 0.7038(14) 0.9831(12) 0.653(3)
O7_3 O 0.2644(27) 0.8923(23) 0.784(5)
O9_4 O 0.7162(14) 0.0312(19) 0.405(5)
C1_4 C 0.6717(12) 0.9206(16) 0.043(6)
C2_4 C 0.6890(16) 0.8352(34) 0.125(4)
C3_4 C 0.6739(16) 0.8765(20) 0.189(8)
C4_4 C 0.6543(15) 0.8784(17) 0.405(9)
O3_4 O 0.6367(18) 0.9163(14) 0.485(5)
C5_4 C 0.6595(16) 0.7901(20) 0.477(8)
C6_4 C 0.6791(15) 0.7882(17) 0.261(9)
C7_4 C 0.6617(12) 0.7460(16) 0.623(6)
C8_4 C 0.6444(16) 0.8314(34) 0.541(4)
O6_4 O 0.6851(13) 0.7162(14) 0.595(5)
H2_4 H 0.6318(18) 0.826(2) 0.699(5)
O7_4 O 0.7743(23) 0.7054(14) 0.118(5)
O11_4 O 0.7203(23) 0.6367(18) 0.515(5)
H1_4 H 0.7016(18) 0.840(2) 0.967(5)
O1_4 O 0.7054(14) 0.9310(18) 0.882(5)
O7_5 O 0.2946(14) 0.0690(27) 0.118(5)
O11_5 O 0.3633(18) 0.0837(29) 0.515(5)
C1_5 C 0.0794(16) 0.7510(20) 0.043(6)
C2_5 C 0.1648(34) 0.8537(38) 0.125(4)
C3_5 C 0.1235(20) 0.7973(26) 0.189(8)
C4_5 C 0.1216(17) 0.7758(23) 0.405(9)
O3_5 O 0.0837(14) 0.7203(23) 0.485(5)
C5_5 C 0.2099(20) 0.8693(26) 0.477(8)
C6_5 C 0.2118(17) 0.8908(23) 0.261(9)
C7_5 C 0.2540(16) 0.9156(20) 0.623(6)
C8_5 C 0.1686(34) 0.8129(38) 0.541(4)
O6_5 O 0.2838(14) 0.9688(19) 0.595(5)
H2_5 H 0.174(2) 0.8054(27) 0.699(5)
H1_5 H 0.160(2) 0.8612(27) 0.967(5)
O1_5 O 0.0690(18) 0.7743(23) 0.882(5)
O9_5 O 0.9688(19) 0.6851(24) 0.405(5)
C1_6 C 0.2490(20) 0.3283(12) 0.043(6)
C2_6 C 0.1463(38) 0.3110(16) 0.125(4)
C3_6 C 0.2027(26) 0.3261(16) 0.189(8)
C4_6 C 0.2242(23) 0.3457(15) 0.405(9)
O3_6 O 0.2797(23) 0.3633(18) 0.485(5)
C5_6 C 0.1307(26) 0.3405(16) 0.477(8)
C6_6 C 0.1092(23) 0.3209(15) 0.261(9)
C7_6 C 0.0844(20) 0.3383(12) 0.623(6)
C8_6 C 0.1871(38) 0.3556(16) 0.541(4)
O6_6 O 0.0312(19) 0.3149(13) 0.595(5)
H2_6 H 0.1946(27) 0.3682(18) 0.699(5)
O9_6 O 0.3149(24) 0.2838(14) 0.405(5)
H1_6 H 0.1388(27) 0.2984(18) 0.967(5)
O1_6 O 0.2257(23) 0.2946(14) 0.882(5)
O7_6 O 0.9310(27) 0.2257(23) 0.118(5)
O11_6 O 0.9163(29) 0.2797(23) 0.515(5)
H2_7 H 0.2984(18) 0.160(2) 0.033(5)
C1_7 C 0.3383(12) 0.2540(16) 0.377(6)
C2_7 C 0.3556(16) 0.1686(34) 0.459(4)
C3_7 C 0.3405(16) 0.2099(20) 0.523(8)
C4_7 C 0.3209(15) 0.2118(17) 0.739(9)
H1_7 H 0.3682(18) 0.174(2) 0.301(5)
C5_7 C 0.3261(16) 0.1235(20) 0.811(8)
C6_7 C 0.3457(15) 0.1216(17) 0.595(9)
C7_7 C 0.3283(12) 0.0794(16) 0.957(6)
C8_7 C 0.3110(16) 0.1648(34) 0.875(4)
H2_8 H 0.840(2) 0.1388(27) 0.033(5)
C1_8 C 0.7460(16) 0.0844(20) 0.377(6)
C2_8 C 0.8314(34) 0.1871(38) 0.459(4)
C3_8 C 0.7901(20) 0.1307(26) 0.523(8)
C4_8 C 0.7882(17) 0.1092(23) 0.739(9)
H1_8 H 0.826(2) 0.1946(27) 0.301(5)
C5_8 C 0.8765(20) 0.2027(26) 0.811(8)
C6_8 C 0.8784(17) 0.2242(23) 0.595(9)
C7_8 C 0.9206(16) 0.2490(20) 0.957(6)
C8_8 C 0.8352(34) 0.1463(38) 0.875(4)
H2_9 H 0.8612(27) 0.7016(18) 0.033(5)
C1_9 C 0.9156(20) 0.6617(12) 0.377(6)
C2_9 C 0.8129(38) 0.6444(16) 0.459(4)
C3_9 C 0.8693(26) 0.6595(16) 0.523(8)
C4_9 C 0.8908(23) 0.6791(15) 0.739(9)
H1_9 H 0.8054(27) 0.6318(18) 0.301(5)
C5_9 C 0.7973(26) 0.6739(16) 0.811(8)
C6_9 C 0.7758(23) 0.6543(15) 0.595(9)
C7_9 C 0.7510(20) 0.6717(12) 0.957(6)
C8_9 C 0.8537(38) 0.6890(16) 0.875(4)
loop_
_geom_bond_atom_site_label_1
_geom_bond_atom_site_label_2
_geom_bond_site_symmetry_1
_geom_bond_site_symmetry_2
O11 Cu2 1_555 1_555
O6 Cu2 1_555 1_555
Cu4 O9 1_555 1_555
C1 C3 1_555 1_555
C2 C3 1_555 1_555
H1 C2 1_555 1_555
O1 C1 1_555 1_555
C6 C2 1_555 1_555
O4 C6 1_555 1_555
Cu4 O1 1_555 1_555
C4 O3 1_555 1_555
C7 C5 1_555 1_555
O5 C7 1_555 1_555
C8 C4 1_555 1_555
H2 C8 1_555 1_555
Cu8 O5 1_555 1_555
C5 C8 1_555 1_555
Cu1 O2 1_555 1_555
O12 Cu1 1_555 1_555
Cu8 O10 1_555 1_555
C4_2 O3_2 1_555 1_555
C7_2 C5_2 1_555 1_555
O5_2 C7_2 1_555 1_555
C8_2 C4_2 1_555 1_555
O6_2 C7_2 1_555 1_555
H2_2 C8_2 1_555 1_555
Cu4_2 O3_2 1_555 1_555
Cu5_2 O6_2 1_555 1_555
Cu8_2 O5_2 1_555 1_555
O11_2 Cu2_2 1_555 1_555
C5_2 C8_2 1_555 1_555
O6_2 Cu2_2 1_555 1_555
Cu4_2 O9_2 1_555 1_555
Cu5_2 O11_2 1_555 1_555
Cu1_2 O2_2 1_555 1_555
C1_2 C3_2 1_555 1_555
C2_2 C3_2 1_555 1_555
H1_2 C2_2 1_555 1_555
O1_2 C1_2 1_555 1_555
O2_2 C1_2 1_555 1_555
C6_2 C2_2 1_555 1_555
O4_2 C6_2 1_555 1_555
Cu4_2 O1_2 1_555 1_555
Cu6_2 O2_2 1_555 1_555
Cu8_2 O4_2 1_555 1_555
O12_2 Cu1_2 1_555 1_555
Cu6_2 O12_2 1_555 1_555
Cu8_2 O10_2 1_555 1_555
C4_3 O3_3 1_555 1_555
C7_3 C5_3 1_555 1_555
O5_3 C7_3 1_555 1_555
C8_3 C4_3 1_555 1_555
H2_3 C8_3 1_555 1_555
Cu8_3 O5_3 1_555 1_555
C5_3 C8_3 1_555 1_555
Cu1_3 O2_3 1_555 1_555
O12_3 Cu1_3 1_555 1_555
Cu8_3 O10_3 1_555 1_555
O11_3 Cu2_3 1_555 1_555
O6_3 Cu2_3 1_555 1_555
Cu4_3 O9_3 1_555 1_555
C1_3 C3_3 1_555 1_555
C2_3 C3_3 1_555 1_555
H1_3 C2_3 1_555 1_555
O1_3 C1_3 1_555 1_555
C6_3 C2_3 1_555 1_555
O4_3 C6_3 1_555 1_555
Cu4_3 O1_3 1_555 1_555
C1_4 C3_4 1_555 1_555
C2_4 C3_4 1_555 1_555
C3_4 C4_4 1_555 1_555
C4_4 O3_4 1_555 1_555
O9_3 C1_4 1_555 1_555
O3_4 Cu4_3 1_555 1_555
C5_4 C6_4 1_555 1_555
C6_4 C2_4 1_555 1_555
O11_2 C6_4 1_555 1_555
C7_4 C5_4 1_555 1_555
O7_2 C7_4 1_555 1_555
C8_4 C4_4 1_555 1_555
O6_4 C7_4 1_555 1_555
H2_4 C8_4 1_555 1_555
Cu6_3 O3_4 1_555 1_555
Cu8_2 O6_4 1_555 1_555
O7_4 Cu5_2 1_555 1_555
O11_4 Cu5_2 1_555 1_555
C5_4 C8_4 1_555 1_555
O6_4 Cu5_2 1_555 1_555
Cu8_2 O11_4 1_555 1_555
Cu6_3 O1_4 1_555 1_555
O7_5 Cu5_3 1_555 1_555
O11_5 Cu5_3 1_555 1_555
Cu8_3 O11_5 1_555 1_555
C1_5 C3_5 1_555 1_555
C2_5 C3_5 1_555 1_555
C3_5 C4_5 1_555 1_555
C4_5 O3_5 1_555 1_555
O9 C1_5 1_555 1_555
O3_5 Cu4 1_555 1_555
C5_5 C6_5 1_555 1_555
C6_5 C2_5 1_555 1_555
O11_3 C6_5 1_555 1_555
C7_5 C5_5 1_555 1_555
O7_3 C7_5 1_555 1_555
C8_5 C4_5 1_555 1_555
O6_5 C7_5 1_555 1_555
H2_5 C8_5 1_555 1_555
Cu6 O3_5 1_555 1_555
C5_5 C8_5 1_555 1_555
Cu6 O1_5 1_555 1_555
C1_6 C3_6 1_555 1_555
C2_6 C3_6 1_555 1_555
C3_6 C4_6 1_555 1_555
C4_6 O3_6 1_555 1_555
O9_2 C1_6 1_555 1_555
O3_6 Cu4_2 1_555 1_555
C5_6 C6_6 1_555 1_555
C6_6 C2_6 1_555 1_555
O11 C6_6 1_555 1_555
C7_6 C5_6 1_555 1_555
O7 C7_6 1_555 1_555
C8_6 C4_6 1_555 1_555
O6_6 C7_6 1_555 1_555
H2_6 C8_6 1_555 1_555
Cu6_2 O3_6 1_555 1_555
O9_6 Cu4_2 1_555 1_555
C5_6 C8_6 1_555 1_555
Cu6_2 O9_6 1_555 1_555
Cu6_2 O1_6 1_555 1_555
O7_6 Cu5 1_555 1_555
O11_6 Cu5 1_555 1_555
Cu8 O11_6 1_555 1_555
C1_7 C3_7 1_555 1_555
C2_7 C3_7 1_555 1_555
C3_7 C4_7 1_555 1_555
C4_7 O12_2 1_555 1_555
H1_7 C2_7 1_555 1_555
O8_2 C1_7 1_555 1_555
O9_6 C1_7 1_555 1_555
C5_7 C6_7 1_555 1_555
C6_7 C2_7 1_555 1_555
O11_5 C6_7 1_555 1_555
C7_7 C5_7 1_555 1_555
C8_7 C4_7 1_555 1_555
O10_3 C7_7 1_555 1_555
C5_7 C8_7 1_555 1_555
C1_8 C3_8 1_555 1_555
C2_8 C3_8 1_555 1_555
C3_8 C4_8 1_555 1_555
C4_8 O12_3 1_555 1_555
H1_8 C2_8 1_555 1_555
O8_3 C1_8 1_555 1_555
O9_4 C1_8 1_555 1_555
C5_8 C6_8 1_555 1_555
C6_8 C2_8 1_555 1_555
O11_6 C6_8 1_555 1_555
C7_8 C5_8 1_555 1_555
C8_8 C4_8 1_555 1_555
O10 C7_8 1_555 1_555
C5_8 C8_8 1_555 1_555
C1_9 C3_9 1_555 1_555
C2_9 C3_9 1_555 1_555
C3_9 C4_9 1_555 1_555
C4_9 O12 1_555 1_555
H1_9 C2_9 1_555 1_555
O8 C1_9 1_555 1_555
O9_5 C1_9 1_555 1_555
C5_9 C6_9 1_555 1_555
C6_9 C2_9 1_555 1_555
O11_4 C6_9 1_555 1_555
C7_9 C5_9 1_555 1_555
C8_9 C4_9 1_555 1_555
O10_2 C7_9 1_555 1_555
C5_9 C8_9 1_555 1_555

#END
