
###############################################################################
#
# This file contains modified crystal structure data generated from the
# MOF subset of the Cambridge Structural Database (CSD) v543 
# hosted by the Cambridge Crystallographic Data Centre (CCDC).
#
# This work is licensed under the Creative Commons
# Attribution-NonCommercial-ShareAlike 4.0 International License.
# To view a copy of this license, visit
# http://creativecommons.org/licenses/by-nc-sa/4.0/
# or send a letter to
# Creative Commons, PO Box 1866, Mountain View, CA 94042, USA.
#
# CIF created using the CSD Python API on 29 September 2022
# The structure has been converted into the P1 space group
# The structure has a 3D framework
# The original CSD entry OZUQAC is in the tetragonal crystal system
# The framework has been calculated to contain at least 10.0% void space
# The void calculation uses a probe of radius 1.32A, grid spacing 0.4
#
###############################################################################

data_OZUQAC
_chemical_formula_moiety         '(C224 H256 N32 Ni16 O96)n'
_symmetry_cell_setting           triclinic
_symmetry_space_group_name_H-M   'P 1'
_symmetry_Int_Tables_number      1
_space_group_name_Hall           'P 1'
loop_
_symmetry_equiv_pos_site_id
_symmetry_equiv_pos_as_xyz
1 x,y,z
_cell_length_a                   22.5486(8)
_cell_length_b                   22.5486(8)
_cell_length_c                   13.2686(9)
_cell_angle_alpha                90
_cell_angle_beta                 90
_cell_angle_gamma                90
_cell_volume                     6746.28
loop_
_atom_site_label
_atom_site_type_symbol
_atom_site_fract_x
_atom_site_fract_y
_atom_site_fract_z
Ni1 Ni 0.439309(15) 0.2500 0.1250
O1 O 0.43839(6) 0.15880(7) 0.09839(12)
O4 O 0.29031(8) 0.03753(8) 0.11188(14)
O6 O 0.19577(7) 0.06473(7) 0.00352(14)
H3 H 0.2207(13) 0.0529(13) 0.048(2)
H4 H 0.1717(13) 0.0455(13) 0.005(2)
N1 N 0.34640(10) 0.2500 0.1250
N2 N 0.03151(10) 0.2500 0.1250
N3 N 0.53288(10) 0.2500 0.1250
N4 N 0.84711(10) 0.2500 0.1250
C1 C 0.31496(8) 0.19958(9) 0.12671(18)
H5 H 0.3355 0.1638 0.1287
C2 C 0.25390(9) 0.19775(9) 0.1256(2)
H6 H 0.2343 0.1614 0.1253
C3 C 0.22167(12) 0.2500 0.1250
C4 C 0.15591(13) 0.2500 0.1250
C5 C 0.12334(9) 0.30201(10) 0.1316(3)
H7 H 0.1429 0.3382 0.1370
C6 C 0.06247(9) 0.30062(11) 0.1303(2)
H8 H 0.0419 0.3363 0.1332
C7 C 0.56372(10) 0.29933(11) 0.1071(2)
H9 H 0.5431 0.3343 0.0944
C8 C 0.62491(10) 0.30073(11) 0.1065(2)
H10 H 0.6444 0.3363 0.0936
C9 C 0.65769(12) 0.2500 0.1250
C10 C 0.72296(12) 0.2500 0.1250
C11 C 0.75534(9) 0.30257(9) 0.1254(2)
H11 H 0.7358 0.3389 0.1254
C12 C 0.81658(9) 0.30077(10) 0.12573(18)
H12 H 0.8374 0.3364 0.1265
C13 C 0.44519(8) 0.12980(10) 0.01813(19)
C14 C 0.44410(10) 0.06265(10) 0.0273(2)
H14 H 0.4818 0.0494 0.0542
C15 C 0.39474(11) 0.03946(10) 0.0940(2)
H15 H 0.3969 0.0596 0.1584
C16 C 0.33243(9) 0.04691(11) 0.05203(18)
Ni4 Ni 0.9383 0.250000(16) 0.1250
Ni5 Ni 0.250000(16) 0.4383 0.3750
O7 O 0.43839(6) 0.34120(7) 0.15161(12)
O8 O 0.45304(9) 0.34801(8) 0.31725(14)
O9 O 0.32684(7) 0.43879(7) 0.28877(11)
O11 O 0.29031(8) 0.46247(8) 0.13812(14)
O12 O 0.43802(8) 0.23298(8) 0.28003(12)
H17 H 0.4404(14) 0.2686(13) 0.297(2)
H18 H 0.4654(13) 0.2193(13) 0.300(2)
C17 C 0.31496(8) 0.30042(9) 0.12329(18)
H21 H 0.3355 0.3362 0.1213
C18 C 0.25390(9) 0.30225(9) 0.1244(2)
H22 H 0.2343 0.3386 0.1247
C19 C 0.12334(9) 0.19799(10) 0.1184(3)
H23 H 0.1429 0.1618 0.1130
C20 C 0.06247(9) 0.19938(11) 0.1197(2)
H24 H 0.0419 0.1637 0.1168
C21 C 0.56372(10) 0.20067(11) 0.1429(2)
H25 H 0.5431 0.1657 0.1556
C22 C 0.62491(10) 0.19927(11) 0.1435(2)
H26 H 0.6444 0.1637 0.1564
C23 C 0.75534(9) 0.19743(9) 0.1246(2)
H27 H 0.7358 0.1611 0.1246
C24 C 0.81658(9) 0.19923(10) 0.12427(18)
H28 H 0.8374 0.1636 0.1235
C25 C 0.44519(8) 0.37020(10) 0.23187(19)
C26 C 0.44410(10) 0.43735(10) 0.2227(2)
H29 H 0.4397 0.4543 0.2895
H30 H 0.4818 0.4506 0.1958
C27 C 0.39474(11) 0.46054(10) 0.1560(2)
H31 H 0.3969 0.4404 0.0916
H32 H 0.4016 0.5024 0.1437
C28 C 0.33243(9) 0.45309(11) 0.19797(18)
Ni2 Ni 0.250000(16) 0.0617 0.8750
O2 O 0.45304(9) 0.15199(8) 0.93275(14)
O3 O 0.32684(7) 0.06121(7) 0.96123(11)
O5 O 0.43802(8) 0.26702(8) 0.96997(12)
H1 H 0.4404(14) 0.2314(13) 0.953(2)
H2 H 0.4654(13) 0.2807(13) 0.950(2)
H13 H 0.4397 0.0457 0.9605
O10 O 0.17316(7) 0.06121(7) 0.78877(11)
O13 O 0.30423(7) 0.06473(7) 0.74648(14)
H19 H 0.2793(13) 0.0529(13) 0.702(2)
H20 H 0.3283(13) 0.0455(13) 0.745(2)
N6 N 0.2500 0.15289(10) 0.8750
N5 N 0.2500 0.96849(10) 0.8750
Ni3 Ni 0.0617 0.750000(16) 0.1250
N5_2 N 0.7500 0.03151(10) 0.8750
Ni1_2 Ni 0.560691(15) 0.7500 0.1250
O1_2 O 0.56161(6) 0.84120(7) 0.09839(12)
O4_2 O 0.70969(8) 0.96247(8) 0.11188(14)
O6_2 O 0.80423(7) 0.93527(7) 0.00352(14)
H3_2 H 0.7793(13) 0.9471(13) 0.048(2)
H4_2 H 0.8283(13) 0.9545(13) 0.005(2)
N1_2 N 0.65360(10) 0.7500 0.1250
N2_2 N 0.96849(10) 0.7500 0.1250
N3_2 N 0.46712(10) 0.7500 0.1250
N4_2 N 0.15289(10) 0.7500 0.1250
C1_2 C 0.68504(8) 0.80042(9) 0.12671(18)
H5_2 H 0.6645 0.8362 0.1287
C2_2 C 0.74610(9) 0.80225(9) 0.1256(2)
H6_2 H 0.7657 0.8386 0.1253
C3_2 C 0.77833(12) 0.7500 0.1250
C4_2 C 0.84409(13) 0.7500 0.1250
C5_2 C 0.87666(9) 0.69799(10) 0.1316(3)
H7_2 H 0.8571 0.6618 0.1370
C6_2 C 0.93753(9) 0.69938(11) 0.1303(2)
H8_2 H 0.9581 0.6637 0.1332
C7_2 C 0.43628(10) 0.70067(11) 0.1071(2)
H9_2 H 0.4569 0.6657 0.0944
C8_2 C 0.37509(10) 0.69927(11) 0.1065(2)
H10_2 H 0.3556 0.6637 0.0936
C9_2 C 0.34231(12) 0.7500 0.1250
C10_2 C 0.27704(12) 0.7500 0.1250
C11_2 C 0.24466(9) 0.69743(9) 0.1254(2)
H11_2 H 0.2642 0.6611 0.1254
C12_2 C 0.18342(9) 0.69923(10) 0.12573(18)
H12_2 H 0.1626 0.6636 0.1265
C13_2 C 0.55481(8) 0.87020(10) 0.01813(19)
C14_2 C 0.55590(10) 0.93735(10) 0.0273(2)
H14_2 H 0.5182 0.9506 0.0542
C15_2 C 0.60526(11) 0.96054(10) 0.0940(2)
H15_2 H 0.6031 0.9404 0.1584
C16_2 C 0.66757(9) 0.95309(11) 0.05203(18)
Ni5_2 Ni 0.750000(16) 0.5617 0.3750
O7_2 O 0.56161(6) 0.65880(7) 0.15161(12)
O8_2 O 0.54696(9) 0.65199(8) 0.31725(14)
O9_2 O 0.67316(7) 0.56121(7) 0.28877(11)
O11_2 O 0.70969(8) 0.53753(8) 0.13812(14)
O12_2 O 0.56198(8) 0.76702(8) 0.28003(12)
H17_2 H 0.5596(14) 0.7314(13) 0.297(2)
H18_2 H 0.5346(13) 0.7807(13) 0.300(2)
C17_2 C 0.68504(8) 0.69958(9) 0.12329(18)
H21_2 H 0.6645 0.6638 0.1213
C18_2 C 0.74610(9) 0.69775(9) 0.1244(2)
H22_2 H 0.7657 0.6614 0.1247
C19_2 C 0.87666(9) 0.80201(10) 0.1184(3)
H23_2 H 0.8571 0.8382 0.1130
C20_2 C 0.93753(9) 0.80062(11) 0.1197(2)
H24_2 H 0.9581 0.8363 0.1168
C21_2 C 0.43628(10) 0.79933(11) 0.1429(2)
H25_2 H 0.4569 0.8343 0.1556
C22_2 C 0.37509(10) 0.80073(11) 0.1435(2)
H26_2 H 0.3556 0.8363 0.1564
C23_2 C 0.24466(9) 0.80257(9) 0.1246(2)
H27_2 H 0.2642 0.8389 0.1246
C24_2 C 0.18342(9) 0.80077(10) 0.12427(18)
H28_2 H 0.1626 0.8364 0.1235
C25_2 C 0.55481(8) 0.62980(10) 0.23187(19)
C26_2 C 0.55590(10) 0.56265(10) 0.2227(2)
H29_2 H 0.5603 0.5457 0.2895
H30_2 H 0.5182 0.5494 0.1958
C27_2 C 0.60526(11) 0.53946(10) 0.1560(2)
H31_2 H 0.6031 0.5596 0.0916
H32_2 H 0.5984 0.4976 0.1437
C28_2 C 0.66757(9) 0.54691(11) 0.19797(18)
Ni2_2 Ni 0.750000(16) 0.9383 0.8750
O2_2 O 0.54696(9) 0.84801(8) 0.93275(14)
O3_2 O 0.67316(7) 0.93879(7) 0.96123(11)
O5_2 O 0.56198(8) 0.73298(8) 0.96997(12)
H1_2 H 0.5596(14) 0.7686(13) 0.953(2)
H2_2 H 0.5346(13) 0.7193(13) 0.950(2)
H13_2 H 0.5603 0.9543 0.9605
O10_2 O 0.82684(7) 0.93879(7) 0.78877(11)
O13_2 O 0.69577(7) 0.93527(7) 0.74648(14)
H19_2 H 0.7207(13) 0.9471(13) 0.702(2)
H20_2 H 0.6717(13) 0.9545(13) 0.745(2)
N6_2 N 0.7500 0.84711(10) 0.8750
O2_3 O 0.15199(8) 0.54696(9) 0.06725(14)
O3_3 O 0.06121(7) 0.67316(7) 0.03877(11)
O5_3 O 0.26702(8) 0.56198(8) 0.03003(12)
H1_3 H 0.2314(13) 0.5596(14) 0.047(2)
H2_3 H 0.2807(13) 0.5346(13) 0.050(2)
H13_3 H 0.0457 0.5603 0.0395
O10_3 O 0.06121(7) 0.82684(7) 0.21123(11)
O13_3 O 0.06473(7) 0.69577(7) 0.25352(14)
H19_3 H 0.0529(13) 0.7207(13) 0.298(2)
H20_3 H 0.0455(13) 0.6717(13) 0.255(2)
Ni1_3 Ni 0.2500 0.560691(15) 0.8750
O1_3 O 0.15880(7) 0.56161(6) 0.90161(12)
O4_3 O 0.03753(8) 0.70969(8) 0.88812(14)
O6_3 O 0.06473(7) 0.80423(7) 0.99648(14)
H3_3 H 0.0529(13) 0.7793(13) 0.952(2)
H4_3 H 0.0455(13) 0.8283(13) 0.995(2)
N1_3 N 0.2500 0.65360(10) 0.8750
N3_3 N 0.2500 0.46712(10) 0.8750
C1_3 C 0.19958(9) 0.68504(8) 0.87329(18)
H5_3 H 0.1638 0.6645 0.8713
C2_3 C 0.19775(9) 0.74610(9) 0.8744(2)
H6_3 H 0.1614 0.7657 0.8747
C3_3 C 0.2500 0.77833(12) 0.8750
C4_3 C 0.2500 0.84409(13) 0.8750
C5_3 C 0.30201(10) 0.87666(9) 0.8684(3)
H7_3 H 0.3382 0.8571 0.8630
C6_3 C 0.30062(11) 0.93753(9) 0.8697(2)
H8_3 H 0.3363 0.9581 0.8668
C7_3 C 0.29933(11) 0.43628(10) 0.8929(2)
H9_3 H 0.3343 0.4569 0.9056
C8_3 C 0.30073(11) 0.37509(10) 0.8935(2)
H10_3 H 0.3363 0.3556 0.9064
C9_3 C 0.2500 0.34231(12) 0.8750
C10_3 C 0.2500 0.27704(12) 0.8750
C11_3 C 0.30257(9) 0.24466(9) 0.8746(2)
H11_3 H 0.3389 0.2642 0.8746
C12_3 C 0.30077(10) 0.18342(9) 0.87427(18)
H12_3 H 0.3364 0.1626 0.8735
C13_3 C 0.12980(10) 0.55481(8) 0.98187(19)
C14_3 C 0.06265(10) 0.55590(10) 0.9727(2)
H14_3 H 0.0494 0.5182 0.9458
C15_3 C 0.03946(10) 0.60526(11) 0.9060(2)
H15_3 H 0.0596 0.6031 0.8416
C16_3 C 0.04691(11) 0.66757(9) 0.94797(18)
Ni5_3 Ni 0.4383 0.750000(16) 0.6250
O7_3 O 0.34120(7) 0.56161(6) 0.84839(12)
O8_3 O 0.34801(8) 0.54696(9) 0.68275(14)
O9_3 O 0.43879(7) 0.67316(7) 0.71123(11)
O11_3 O 0.46247(8) 0.70969(8) 0.86188(14)
O12_3 O 0.23298(8) 0.56198(8) 0.71997(12)
H17_3 H 0.2686(13) 0.5596(14) 0.703(2)
H18_3 H 0.2193(13) 0.5346(13) 0.700(2)
C17_3 C 0.30042(9) 0.68504(8) 0.87671(18)
H21_3 H 0.3362 0.6645 0.8787
C18_3 C 0.30225(9) 0.74610(9) 0.8756(2)
H22_3 H 0.3386 0.7657 0.8753
C19_3 C 0.19799(10) 0.87666(9) 0.8816(3)
H23_3 H 0.1618 0.8571 0.8870
C20_3 C 0.19938(11) 0.93753(9) 0.8803(2)
H24_3 H 0.1637 0.9581 0.8832
C21_3 C 0.20067(11) 0.43628(10) 0.8571(2)
H25_3 H 0.1657 0.4569 0.8444
C22_3 C 0.19927(11) 0.37509(10) 0.8565(2)
H26_3 H 0.1637 0.3556 0.8436
C23_3 C 0.19743(9) 0.24466(9) 0.8754(2)
H27_3 H 0.1611 0.2642 0.8754
C24_3 C 0.19923(10) 0.18342(9) 0.87573(18)
H28_3 H 0.1636 0.1626 0.8765
C25_3 C 0.37020(10) 0.55481(8) 0.76813(19)
C26_3 C 0.43735(10) 0.55590(10) 0.7773(2)
H29_3 H 0.4543 0.5603 0.7105
H30_3 H 0.4506 0.5182 0.8042
C27_3 C 0.46054(10) 0.60526(11) 0.8440(2)
H31_3 H 0.4404 0.6031 0.9084
H32_3 H 0.5024 0.5984 0.8563
C28_3 C 0.45309(11) 0.66757(9) 0.80203(18)
O2_4 O 0.84801(8) 0.45304(9) 0.06725(14)
O3_4 O 0.93879(7) 0.32684(7) 0.03877(11)
O5_4 O 0.73298(8) 0.43802(8) 0.03003(12)
H1_4 H 0.7686(13) 0.4404(14) 0.047(2)
H2_4 H 0.7193(13) 0.4654(13) 0.050(2)
H13_4 H 0.9543 0.4397 0.0395
O10_4 O 0.93879(7) 0.17316(7) 0.21123(11)
O13_4 O 0.93527(7) 0.30423(7) 0.25352(14)
H19_4 H 0.9471(13) 0.2793(13) 0.298(2)
H20_4 H 0.9545(13) 0.3283(13) 0.255(2)
Ni1_4 Ni 0.7500 0.439309(15) 0.8750
O1_4 O 0.84120(7) 0.43839(6) 0.90161(12)
O4_4 O 0.96247(8) 0.29031(8) 0.88812(14)
O6_4 O 0.93527(7) 0.19577(7) 0.99648(14)
H3_4 H 0.9471(13) 0.2207(13) 0.952(2)
H4_4 H 0.9545(13) 0.1717(13) 0.995(2)
N1_4 N 0.7500 0.34640(10) 0.8750
N3_4 N 0.7500 0.53288(10) 0.8750
C1_4 C 0.80042(9) 0.31496(8) 0.87329(18)
H5_4 H 0.8362 0.3355 0.8713
C2_4 C 0.80225(9) 0.25390(9) 0.8744(2)
H6_4 H 0.8386 0.2343 0.8747
C3_4 C 0.7500 0.22167(12) 0.8750
C4_4 C 0.7500 0.15591(13) 0.8750
C5_4 C 0.69799(10) 0.12334(9) 0.8684(3)
H7_4 H 0.6618 0.1429 0.8630
C6_4 C 0.69938(11) 0.06247(9) 0.8697(2)
H8_4 H 0.6637 0.0419 0.8668
C7_4 C 0.70067(11) 0.56372(10) 0.8929(2)
H9_4 H 0.6657 0.5431 0.9056
C8_4 C 0.69927(11) 0.62491(10) 0.8935(2)
H10_4 H 0.6637 0.6444 0.9064
C9_4 C 0.7500 0.65769(12) 0.8750
C10_4 C 0.7500 0.72296(12) 0.8750
C11_4 C 0.69743(9) 0.75534(9) 0.8746(2)
H11_4 H 0.6611 0.7358 0.8746
C12_4 C 0.69923(10) 0.81658(9) 0.87427(18)
H12_4 H 0.6636 0.8374 0.8735
C13_4 C 0.87020(10) 0.44519(8) 0.98187(19)
C14_4 C 0.93735(10) 0.44410(10) 0.9727(2)
H14_4 H 0.9506 0.4818 0.9458
C15_4 C 0.96054(10) 0.39474(11) 0.9060(2)
H15_4 H 0.9404 0.3969 0.8416
C16_4 C 0.95309(11) 0.33243(9) 0.94797(18)
Ni5_4 Ni 0.5617 0.250000(16) 0.6250
O7_4 O 0.65880(7) 0.43839(6) 0.84839(12)
O8_4 O 0.65199(8) 0.45304(9) 0.68275(14)
O9_4 O 0.56121(7) 0.32684(7) 0.71123(11)
O11_4 O 0.53753(8) 0.29031(8) 0.86188(14)
O12_4 O 0.76702(8) 0.43802(8) 0.71997(12)
H17_4 H 0.7314(13) 0.4404(14) 0.703(2)
H18_4 H 0.7807(13) 0.4654(13) 0.700(2)
C17_4 C 0.69958(9) 0.31496(8) 0.87671(18)
H21_4 H 0.6638 0.3355 0.8787
C18_4 C 0.69775(9) 0.25390(9) 0.8756(2)
H22_4 H 0.6614 0.2343 0.8753
C19_4 C 0.80201(10) 0.12334(9) 0.8816(3)
H23_4 H 0.8382 0.1429 0.8870
C20_4 C 0.80062(11) 0.06247(9) 0.8803(2)
H24_4 H 0.8363 0.0419 0.8832
C21_4 C 0.79933(11) 0.56372(10) 0.8571(2)
H25_4 H 0.8343 0.5431 0.8444
C22_4 C 0.80073(11) 0.62491(10) 0.8565(2)
H26_4 H 0.8363 0.6444 0.8436
C23_4 C 0.80257(9) 0.75534(9) 0.8754(2)
H27_4 H 0.8389 0.7358 0.8754
C24_4 C 0.80077(10) 0.81658(9) 0.87573(18)
H28_4 H 0.8364 0.8374 0.8765
C25_4 C 0.62980(10) 0.44519(8) 0.76813(19)
C26_4 C 0.56265(10) 0.44410(10) 0.7773(2)
H29_4 H 0.5457 0.4397 0.7105
H30_4 H 0.5494 0.4818 0.8042
C27_4 C 0.53946(10) 0.39474(11) 0.8440(2)
H31_4 H 0.5596 0.3969 0.9084
H32_4 H 0.4976 0.4016 0.8563
C28_4 C 0.54691(11) 0.33243(9) 0.80203(18)
Ni1_5 Ni 0.060691(15) 0.2500 0.6250
O1_5 O 0.06161(6) 0.15880(7) 0.65161(12)
O2_5 O 0.04696(9) 0.15199(8) 0.81725(14)
O4_5 O 0.20969(8) 0.03753(8) 0.63812(14)
O5_5 O 0.06198(8) 0.26702(8) 0.78003(12)
H1_5 H 0.0596(14) 0.2314(13) 0.797(2)
H2_5 H 0.0346(13) 0.2807(13) 0.800(2)
N1_5 N 0.15360(10) 0.2500 0.6250
N2_3 N 0.46849(10) 0.2500 0.6250
C1_5 C 0.18504(8) 0.19958(9) 0.62329(18)
H5_5 H 0.1645 0.1638 0.6213
C2_5 C 0.24610(9) 0.19775(9) 0.6244(2)
H6_5 H 0.2657 0.1614 0.6247
C3_5 C 0.27833(12) 0.2500 0.6250
C4_5 C 0.34409(13) 0.2500 0.6250
C5_5 C 0.37666(9) 0.30201(10) 0.6184(3)
H7_5 H 0.3571 0.3382 0.6130
C6_5 C 0.43753(9) 0.30062(11) 0.6197(2)
H8_5 H 0.4581 0.3363 0.6168
C13_5 C 0.05481(8) 0.12980(10) 0.73187(19)
C14_5 C 0.05590(10) 0.06265(10) 0.7227(2)
H13_5 H 0.0603 0.0457 0.7895
H14_5 H 0.0182 0.0494 0.6958
C15_5 C 0.10526(11) 0.03946(10) 0.6560(2)
H15_5 H 0.1031 0.0596 0.5916
C16_5 C 0.16757(9) 0.04691(11) 0.69797(18)
O7_5 O 0.06161(6) 0.34120(7) 0.59839(12)
O8_5 O 0.04696(9) 0.34801(8) 0.43275(14)
O9_5 O 0.17316(7) 0.43879(7) 0.46123(11)
O11_5 O 0.20969(8) 0.46247(8) 0.61188(14)
O12_5 O 0.06198(8) 0.23298(8) 0.46997(12)
H17_5 H 0.0596(14) 0.2686(13) 0.453(2)
H18_5 H 0.0346(13) 0.2193(13) 0.450(2)
C17_5 C 0.18504(8) 0.30042(9) 0.62671(18)
H21_5 H 0.1645 0.3362 0.6287
C18_5 C 0.24610(9) 0.30225(9) 0.6256(2)
H22_5 H 0.2657 0.3386 0.6253
C19_5 C 0.37666(9) 0.19799(10) 0.6316(3)
H23_5 H 0.3571 0.1618 0.6370
C20_5 C 0.43753(9) 0.19938(11) 0.6303(2)
H24_5 H 0.4581 0.1637 0.6332
C25_5 C 0.05481(8) 0.37020(10) 0.51813(19)
C26_5 C 0.05590(10) 0.43735(10) 0.5273(2)
H29_5 H 0.0603 0.4543 0.4605
H30_5 H 0.0182 0.4506 0.5542
C27_5 C 0.10526(11) 0.46054(10) 0.5940(2)
H31_5 H 0.1031 0.4404 0.6584
H32_5 H 0.0984 0.5024 0.6063
C28_5 C 0.16757(9) 0.45309(11) 0.55203(18)
H16 H 0.0984 0.9976 0.6437
N3_5 N 0.96712(10) 0.2500 0.6250
N4_3 N 0.65289(10) 0.2500 0.6250
C7_5 C 0.93628(10) 0.29933(11) 0.6429(2)
H9_5 H 0.9569 0.3343 0.6556
C8_5 C 0.87509(10) 0.30073(11) 0.6435(2)
H10_5 H 0.8556 0.3363 0.6564
C9_5 C 0.84231(12) 0.2500 0.6250
C10_5 C 0.77704(12) 0.2500 0.6250
C11_5 C 0.74466(9) 0.30257(9) 0.6246(2)
H11_5 H 0.7642 0.3389 0.6246
C12_5 C 0.68342(9) 0.30077(10) 0.62427(18)
H12_5 H 0.6626 0.3364 0.6235
C21_5 C 0.93628(10) 0.20067(11) 0.6071(2)
H25_5 H 0.9569 0.1657 0.5944
C22_5 C 0.87509(10) 0.19927(11) 0.6065(2)
H26_5 H 0.8556 0.1637 0.5936
C23_5 C 0.74466(9) 0.19743(9) 0.6254(2)
H27_5 H 0.7642 0.1611 0.6254
C24_5 C 0.68342(9) 0.19923(10) 0.62573(18)
H28_5 H 0.6626 0.1636 0.6265
N3_6 N 0.03288(10) 0.7500 0.6250
N4_4 N 0.34711(10) 0.7500 0.6250
C7_6 C 0.06372(10) 0.70067(11) 0.6429(2)
H9_6 H 0.0431 0.6657 0.6556
C8_6 C 0.12491(10) 0.69927(11) 0.6435(2)
H10_6 H 0.1444 0.6637 0.6564
C9_6 C 0.15769(12) 0.7500 0.6250
C10_6 C 0.22296(12) 0.7500 0.6250
C11_6 C 0.25534(9) 0.69743(9) 0.6246(2)
H11_6 H 0.2358 0.6611 0.6246
C12_6 C 0.31658(9) 0.69923(10) 0.62427(18)
H12_6 H 0.3374 0.6636 0.6235
C21_6 C 0.06372(10) 0.79933(11) 0.6071(2)
H25_6 H 0.0431 0.8343 0.5944
C22_6 C 0.12491(10) 0.80073(11) 0.6065(2)
H26_6 H 0.1444 0.8363 0.5936
C23_6 C 0.25534(9) 0.80257(9) 0.6254(2)
H27_6 H 0.2358 0.8389 0.6254
C24_6 C 0.31658(9) 0.80077(10) 0.62573(18)
H28_6 H 0.3374 0.8364 0.6265
H16_2 H 0.9016 0.0024 0.6437
Ni1_6 Ni 0.939309(15) 0.7500 0.6250
O1_6 O 0.93839(6) 0.84120(7) 0.65161(12)
O2_6 O 0.95304(9) 0.84801(8) 0.81725(14)
O4_6 O 0.79031(8) 0.96247(8) 0.63812(14)
O5_6 O 0.93802(8) 0.73298(8) 0.78003(12)
H1_6 H 0.9404(14) 0.7686(13) 0.797(2)
H2_6 H 0.9654(13) 0.7193(13) 0.800(2)
N1_6 N 0.84640(10) 0.7500 0.6250
N2_4 N 0.53151(10) 0.7500 0.6250
C1_6 C 0.81496(8) 0.80042(9) 0.62329(18)
H5_6 H 0.8355 0.8362 0.6213
C2_6 C 0.75390(9) 0.80225(9) 0.6244(2)
H6_6 H 0.7343 0.8386 0.6247
C3_6 C 0.72167(12) 0.7500 0.6250
C4_6 C 0.65591(13) 0.7500 0.6250
C5_6 C 0.62334(9) 0.69799(10) 0.6184(3)
H7_6 H 0.6429 0.6618 0.6130
C6_6 C 0.56247(9) 0.69938(11) 0.6197(2)
H8_6 H 0.5419 0.6637 0.6168
C13_6 C 0.94519(8) 0.87020(10) 0.73187(19)
C14_6 C 0.94410(10) 0.93735(10) 0.7227(2)
H13_6 H 0.9397 0.9543 0.7895
H14_6 H 0.9818 0.9506 0.6958
C15_6 C 0.89474(11) 0.96054(10) 0.6560(2)
H15_6 H 0.8969 0.9404 0.5916
C16_6 C 0.83243(9) 0.95309(11) 0.69797(18)
O7_6 O 0.93839(6) 0.65880(7) 0.59839(12)
O8_6 O 0.95304(9) 0.65199(8) 0.43275(14)
O9_6 O 0.82684(7) 0.56121(7) 0.46123(11)
O11_6 O 0.79031(8) 0.53753(8) 0.61188(14)
O12_6 O 0.93802(8) 0.76702(8) 0.46997(12)
H17_6 H 0.9404(14) 0.7314(13) 0.453(2)
H18_6 H 0.9654(13) 0.7807(13) 0.450(2)
C17_6 C 0.81496(8) 0.69958(9) 0.62671(18)
H21_6 H 0.8355 0.6638 0.6287
C18_6 C 0.75390(9) 0.69775(9) 0.6256(2)
H22_6 H 0.7343 0.6614 0.6253
C19_6 C 0.62334(9) 0.80201(10) 0.6316(3)
H23_6 H 0.6429 0.8382 0.6370
C20_6 C 0.56247(9) 0.80062(11) 0.6303(2)
H24_6 H 0.5419 0.8363 0.6332
C25_6 C 0.94519(8) 0.62980(10) 0.51813(19)
C26_6 C 0.94410(10) 0.56265(10) 0.5273(2)
H29_6 H 0.9397 0.5457 0.4605
H30_6 H 0.9818 0.5494 0.5542
C27_6 C 0.89474(11) 0.53946(10) 0.5940(2)
H31_6 H 0.8969 0.5596 0.6584
H32_6 H 0.9016 0.4976 0.6063
C28_6 C 0.83243(9) 0.54691(11) 0.55203(18)
O6_5 O 0.43527(7) 0.80423(7) 0.75352(14)
H3_5 H 0.4471(13) 0.7793(13) 0.798(2)
H4_5 H 0.4545(13) 0.8283(13) 0.755(2)
O10_5 O 0.43879(7) 0.82684(7) 0.53877(11)
O13_5 O 0.43527(7) 0.69577(7) 0.49648(14)
H19_5 H 0.4471(13) 0.7207(13) 0.452(2)
H20_5 H 0.4545(13) 0.6717(13) 0.495(2)
O6_6 O 0.56473(7) 0.19577(7) 0.75352(14)
H3_6 H 0.5529(13) 0.2207(13) 0.798(2)
H4_6 H 0.5455(13) 0.1717(13) 0.755(2)
O10_6 O 0.56121(7) 0.17316(7) 0.53877(11)
O13_6 O 0.56473(7) 0.30423(7) 0.49648(14)
H19_6 H 0.5529(13) 0.2793(13) 0.452(2)
H20_6 H 0.5455(13) 0.3283(13) 0.495(2)
O6_7 O 0.69577(7) 0.56473(7) 0.50352(14)
H3_7 H 0.7207(13) 0.5529(13) 0.548(2)
H4_7 H 0.6717(13) 0.5455(13) 0.505(2)
O13_7 O 0.80423(7) 0.56473(7) 0.24648(14)
H19_7 H 0.7793(13) 0.5529(13) 0.202(2)
H20_7 H 0.8283(13) 0.5455(13) 0.245(2)
N5_3 N 0.7500 0.46849(10) 0.3750
N6_3 N 0.7500 0.65289(10) 0.3750
O6_8 O 0.30423(7) 0.43527(7) 0.50352(14)
H3_8 H 0.2793(13) 0.4471(13) 0.548(2)
H4_8 H 0.3283(13) 0.4545(13) 0.505(2)
O13_8 O 0.19577(7) 0.43527(7) 0.24648(14)
H19_8 H 0.2207(13) 0.4471(13) 0.202(2)
H20_8 H 0.1717(13) 0.4545(13) 0.245(2)
N5_4 N 0.2500 0.53151(10) 0.3750
N6_4 N 0.2500 0.34711(10) 0.3750
H32_7 H 0.0024 0.0984 0.3563
Ni1_7 Ni 0.7500 0.060691(15) 0.3750
O1_7 O 0.65880(7) 0.06161(6) 0.40161(12)
O2_7 O 0.65199(8) 0.04696(9) 0.56725(14)
O4_7 O 0.53753(8) 0.20969(8) 0.38812(14)
O5_7 O 0.76702(8) 0.06198(8) 0.53003(12)
H1_7 H 0.7314(13) 0.0596(14) 0.547(2)
H2_7 H 0.7807(13) 0.0346(13) 0.550(2)
N1_7 N 0.7500 0.15360(10) 0.3750
C1_7 C 0.69958(9) 0.18504(8) 0.37329(18)
H5_7 H 0.6638 0.1645 0.3713
C2_7 C 0.69775(9) 0.24610(9) 0.3744(2)
H6_7 H 0.6614 0.2657 0.3747
C3_7 C 0.7500 0.27833(12) 0.3750
C4_7 C 0.7500 0.34409(13) 0.3750
C5_7 C 0.80201(10) 0.37666(9) 0.3684(3)
H7_7 H 0.8382 0.3571 0.3630
C6_7 C 0.80062(11) 0.43753(9) 0.3697(2)
H8_7 H 0.8363 0.4581 0.3668
C13_7 C 0.62980(10) 0.05481(8) 0.48187(19)
C14_7 C 0.56265(10) 0.05590(10) 0.4727(2)
H13_7 H 0.5457 0.0603 0.5395
H14_7 H 0.5494 0.0182 0.4458
C15_7 C 0.53946(10) 0.10526(11) 0.4060(2)
H15_7 H 0.5596 0.1031 0.3416
H16_3 H 0.4976 0.0984 0.3937
C16_7 C 0.54691(11) 0.16757(9) 0.44797(18)
O7_7 O 0.84120(7) 0.06161(6) 0.34839(12)
O8_7 O 0.84801(8) 0.04696(9) 0.18275(14)
O11_7 O 0.96247(8) 0.20969(8) 0.36188(14)
O12_7 O 0.73298(8) 0.06198(8) 0.21997(12)
H17_7 H 0.7686(13) 0.0596(14) 0.203(2)
H18_7 H 0.7193(13) 0.0346(13) 0.200(2)
C17_7 C 0.80042(9) 0.18504(8) 0.37671(18)
H21_7 H 0.8362 0.1645 0.3787
C18_7 C 0.80225(9) 0.24610(9) 0.3756(2)
H22_7 H 0.8386 0.2657 0.3753
C19_7 C 0.69799(10) 0.37666(9) 0.3816(3)
H23_7 H 0.6618 0.3571 0.3870
C20_7 C 0.69938(11) 0.43753(9) 0.3803(2)
H24_7 H 0.6637 0.4581 0.3832
C25_7 C 0.87020(10) 0.05481(8) 0.26813(19)
C26_7 C 0.93735(10) 0.05590(10) 0.2773(2)
H29_7 H 0.9543 0.0603 0.2105
H30_7 H 0.9506 0.0182 0.3042
C27_7 C 0.96054(10) 0.10526(11) 0.3440(2)
H31_7 H 0.9404 0.1031 0.4084
C28_7 C 0.95309(11) 0.16757(9) 0.30203(18)
N3_7 N 0.7500 0.96712(10) 0.3750
C7_7 C 0.79933(11) 0.93628(10) 0.3929(2)
H9_7 H 0.8343 0.9569 0.4056
C8_7 C 0.80073(11) 0.87509(10) 0.3935(2)
H10_7 H 0.8363 0.8556 0.4064
C9_7 C 0.7500 0.84231(12) 0.3750
C10_7 C 0.7500 0.77704(12) 0.3750
C11_7 C 0.80257(9) 0.74466(9) 0.3746(2)
H11_7 H 0.8389 0.7642 0.3746
C12_7 C 0.80077(10) 0.68342(9) 0.37427(18)
H12_7 H 0.8364 0.6626 0.3735
C21_7 C 0.70067(11) 0.93628(10) 0.3571(2)
H25_7 H 0.6657 0.9569 0.3444
C22_7 C 0.69927(11) 0.87509(10) 0.3565(2)
H26_7 H 0.6637 0.8556 0.3436
C23_7 C 0.69743(9) 0.74466(9) 0.3754(2)
H27_7 H 0.6611 0.7642 0.3754
C24_7 C 0.69923(10) 0.68342(9) 0.37573(18)
H28_7 H 0.6636 0.6626 0.3765
N3_8 N 0.2500 0.03288(10) 0.3750
C7_8 C 0.20067(11) 0.06372(10) 0.3929(2)
H9_8 H 0.1657 0.0431 0.4056
C8_8 C 0.19927(11) 0.12491(10) 0.3935(2)
H10_8 H 0.1637 0.1444 0.4064
C9_8 C 0.2500 0.15769(12) 0.3750
C10_8 C 0.2500 0.22296(12) 0.3750
C11_8 C 0.19743(9) 0.25534(9) 0.3746(2)
H11_8 H 0.1611 0.2358 0.3746
C12_8 C 0.19923(10) 0.31658(9) 0.37427(18)
H12_8 H 0.1636 0.3374 0.3735
C21_8 C 0.29933(11) 0.06372(10) 0.3571(2)
H25_8 H 0.3343 0.0431 0.3444
C22_8 C 0.30073(11) 0.12491(10) 0.3565(2)
H26_8 H 0.3363 0.1444 0.3436
C23_8 C 0.30257(9) 0.25534(9) 0.3754(2)
H27_8 H 0.3389 0.2358 0.3754
C24_8 C 0.30077(10) 0.31658(9) 0.37573(18)
H28_8 H 0.3364 0.3374 0.3765
Ni1_8 Ni 0.2500 0.939309(15) 0.3750
O1_8 O 0.34120(7) 0.93839(6) 0.40161(12)
O2_8 O 0.34801(8) 0.95304(9) 0.56725(14)
O4_8 O 0.46247(8) 0.79031(8) 0.38812(14)
O5_8 O 0.23298(8) 0.93802(8) 0.53003(12)
H1_8 H 0.2686(13) 0.9404(14) 0.547(2)
H2_8 H 0.2193(13) 0.9654(13) 0.550(2)
N1_8 N 0.2500 0.84640(10) 0.3750
C1_8 C 0.30042(9) 0.81496(8) 0.37329(18)
H5_8 H 0.3362 0.8355 0.3713
C2_8 C 0.30225(9) 0.75390(9) 0.3744(2)
H6_8 H 0.3386 0.7343 0.3747
C3_8 C 0.2500 0.72167(12) 0.3750
C4_8 C 0.2500 0.65591(13) 0.3750
C5_8 C 0.19799(10) 0.62334(9) 0.3684(3)
H7_8 H 0.1618 0.6429 0.3630
C6_8 C 0.19938(11) 0.56247(9) 0.3697(2)
H8_8 H 0.1637 0.5419 0.3668
C13_8 C 0.37020(10) 0.94519(8) 0.48187(19)
C14_8 C 0.43735(10) 0.94410(10) 0.4727(2)
H13_8 H 0.4543 0.9397 0.5395
H14_8 H 0.4506 0.9818 0.4458
C15_8 C 0.46054(10) 0.89474(11) 0.4060(2)
H15_8 H 0.4404 0.8969 0.3416
H16_4 H 0.5024 0.9016 0.3937
C16_8 C 0.45309(11) 0.83243(9) 0.44797(18)
O7_8 O 0.15880(7) 0.93839(6) 0.34839(12)
O8_8 O 0.15199(8) 0.95304(9) 0.18275(14)
O11_8 O 0.03753(8) 0.79031(8) 0.36188(14)
O12_8 O 0.26702(8) 0.93802(8) 0.21997(12)
H17_8 H 0.2314(13) 0.9404(14) 0.203(2)
H18_8 H 0.2807(13) 0.9654(13) 0.200(2)
C17_8 C 0.19958(9) 0.81496(8) 0.37671(18)
H21_8 H 0.1638 0.8355 0.3787
C18_8 C 0.19775(9) 0.75390(9) 0.3756(2)
H22_8 H 0.1614 0.7343 0.3753
C19_8 C 0.30201(10) 0.62334(9) 0.3816(3)
H23_8 H 0.3382 0.6429 0.3870
C20_8 C 0.30062(11) 0.56247(9) 0.3803(2)
H24_8 H 0.3363 0.5419 0.3832
C25_8 C 0.12980(10) 0.94519(8) 0.26813(19)
C26_8 C 0.06265(10) 0.94410(10) 0.2773(2)
H29_8 H 0.0457 0.9397 0.2105
H30_8 H 0.0494 0.9818 0.3042
C27_8 C 0.03946(10) 0.89474(11) 0.3440(2)
H31_8 H 0.0596 0.8969 0.4084
C28_8 C 0.04691(11) 0.83243(9) 0.30203(18)
H32_8 H 0.9976 0.9016 0.3563
H16_5 H 0.4016 0.9976 0.1063
H16_6 H 0.5984 0.0024 0.1063
H16_7 H 0.9976 0.5984 0.8937
H16_8 H 0.0024 0.4016 0.8937
loop_
_geom_bond_atom_site_label_1
_geom_bond_atom_site_label_2
_geom_bond_site_symmetry_1
_geom_bond_site_symmetry_2
Ni1 O1 1_555 1_555
O1 C13 1_555 1_555
O4 C16 1_555 1_555
H3 O6 1_555 1_555
H4 O6 1_555 1_555
N1 Ni1 1_555 1_555
N2 C6 1_555 1_555
N3 Ni1 1_555 1_555
N4 C12 1_555 1_555
C1 N1 1_555 1_555
H5 C1 1_555 1_555
C2 C1 1_555 1_555
H6 C2 1_555 1_555
C3 C2 1_555 1_555
C4 C3 1_555 1_555
C5 C4 1_555 1_555
H7 C5 1_555 1_555
C6 C5 1_555 1_555
H8 C6 1_555 1_555
C7 N3 1_555 1_555
H9 C7 1_555 1_555
C8 C7 1_555 1_555
H10 C8 1_555 1_555
C9 C8 1_555 1_555
C10 C9 1_555 1_555
C11 C10 1_555 1_555
H11 C11 1_555 1_555
C12 C11 1_555 1_555
H12 C12 1_555 1_555
C13 C14 1_555 1_555
H14 C14 1_555 1_555
C15 C14 1_555 1_555
H15 C15 1_555 1_555
C16 C15 1_555 1_555
Ni4 N4 1_555 1_555
Ni5 O9 1_555 1_555
O7 Ni1 1_555 1_555
O8 C25 1_555 1_555
O9 C28 1_555 1_555
O11 C28 1_555 1_555
O12 Ni1 1_555 1_555
H17 O12 1_555 1_555
H18 O12 1_555 1_555
C17 N1 1_555 1_555
H21 C17 1_555 1_555
C18 C3 1_555 1_555
H22 C18 1_555 1_555
C19 C4 1_555 1_555
H23 C19 1_555 1_555
C20 N2 1_555 1_555
H24 C20 1_555 1_555
C21 N3 1_555 1_555
H25 C21 1_555 1_555
C22 C9 1_555 1_555
H26 C22 1_555 1_555
C23 C10 1_555 1_555
H27 C23 1_555 1_555
C24 N4 1_555 1_555
H28 C24 1_555 1_555
C25 O7 1_555 1_555
C26 C25 1_555 1_555
H29 C26 1_555 1_555
H30 C26 1_555 1_555
C27 C26 1_555 1_555
H31 C27 1_555 1_555
H32 C27 1_555 1_555
C28 C27 1_555 1_555
C17 C18 1_555 1_555
C19 C20 1_555 1_555
C21 C22 1_555 1_555
C23 C24 1_555 1_555
Ni2 O3 1_555 1_555
H1 O5 1_555 1_555
H2 O5 1_555 1_555
O10 Ni2 1_555 1_555
O13 Ni2 1_555 1_555
H19 O13 1_555 1_555
H20 O13 1_555 1_555
N6 Ni2 1_555 1_555
Ni1_2 O1_2 1_555 1_555
O1_2 C13_2 1_555 1_555
O4_2 C16_2 1_555 1_555
H3_2 O6_2 1_555 1_555
H4_2 O6_2 1_555 1_555
N1_2 Ni1_2 1_555 1_555
N2_2 C6_2 1_555 1_555
N3_2 Ni1_2 1_555 1_555
N4_2 C12_2 1_555 1_555
C1_2 N1_2 1_555 1_555
H5_2 C1_2 1_555 1_555
C2_2 C1_2 1_555 1_555
H6_2 C2_2 1_555 1_555
C3_2 C2_2 1_555 1_555
C4_2 C3_2 1_555 1_555
C5_2 C4_2 1_555 1_555
H7_2 C5_2 1_555 1_555
C6_2 C5_2 1_555 1_555
H8_2 C6_2 1_555 1_555
C7_2 N3_2 1_555 1_555
H9_2 C7_2 1_555 1_555
C8_2 C7_2 1_555 1_555
H10_2 C8_2 1_555 1_555
C9_2 C8_2 1_555 1_555
C10_2 C9_2 1_555 1_555
C11_2 C10_2 1_555 1_555
H11_2 C11_2 1_555 1_555
C12_2 C11_2 1_555 1_555
H12_2 C12_2 1_555 1_555
C13_2 C14_2 1_555 1_555
H14_2 C14_2 1_555 1_555
C15_2 C14_2 1_555 1_555
H15_2 C15_2 1_555 1_555
C16_2 C15_2 1_555 1_555
Ni3 N4_2 1_555 1_555
Ni5_2 O9_2 1_555 1_555
O7_2 Ni1_2 1_555 1_555
O8_2 C25_2 1_555 1_555
O9_2 C28_2 1_555 1_555
O11_2 C28_2 1_555 1_555
O12_2 Ni1_2 1_555 1_555
H17_2 O12_2 1_555 1_555
H18_2 O12_2 1_555 1_555
C17_2 N1_2 1_555 1_555
H21_2 C17_2 1_555 1_555
C18_2 C3_2 1_555 1_555
H22_2 C18_2 1_555 1_555
C19_2 C4_2 1_555 1_555
H23_2 C19_2 1_555 1_555
C20_2 N2_2 1_555 1_555
H24_2 C20_2 1_555 1_555
C21_2 N3_2 1_555 1_555
H25_2 C21_2 1_555 1_555
C22_2 C9_2 1_555 1_555
H26_2 C22_2 1_555 1_555
C23_2 C10_2 1_555 1_555
H27_2 C23_2 1_555 1_555
C24_2 N4_2 1_555 1_555
H28_2 C24_2 1_555 1_555
C25_2 O7_2 1_555 1_555
C26_2 C25_2 1_555 1_555
H29_2 C26_2 1_555 1_555
H30_2 C26_2 1_555 1_555
C27_2 C26_2 1_555 1_555
H31_2 C27_2 1_555 1_555
H32_2 C27_2 1_555 1_555
C28_2 C27_2 1_555 1_555
C17_2 C18_2 1_555 1_555
C19_2 C20_2 1_555 1_555
C21_2 C22_2 1_555 1_555
C23_2 C24_2 1_555 1_555
Ni2_2 O3_2 1_555 1_555
H1_2 O5_2 1_555 1_555
H2_2 O5_2 1_555 1_555
O10_2 Ni2_2 1_555 1_555
O13_2 Ni2_2 1_555 1_555
H19_2 O13_2 1_555 1_555
H20_2 O13_2 1_555 1_555
N6_2 Ni2_2 1_555 1_555
Ni3 O3_3 1_555 1_555
H1_3 O5_3 1_555 1_555
H2_3 O5_3 1_555 1_555
O10_3 Ni3 1_555 1_555
O13_3 Ni3 1_555 1_555
H19_3 O13_3 1_555 1_555
H20_3 O13_3 1_555 1_555
Ni1_3 O1_3 1_555 1_555
O1_3 C13_3 1_555 1_555
O4_3 C16_3 1_555 1_555
H3_3 O6_3 1_555 1_555
H4_3 O6_3 1_555 1_555
N1_3 Ni1_3 1_555 1_555
N5 C6_3 1_555 1_555
N3_3 Ni1_3 1_555 1_555
N6 C12_3 1_555 1_555
C1_3 N1_3 1_555 1_555
H5_3 C1_3 1_555 1_555
C2_3 C1_3 1_555 1_555
H6_3 C2_3 1_555 1_555
C3_3 C2_3 1_555 1_555
C4_3 C3_3 1_555 1_555
C5_3 C4_3 1_555 1_555
H7_3 C5_3 1_555 1_555
C6_3 C5_3 1_555 1_555
H8_3 C6_3 1_555 1_555
C7_3 N3_3 1_555 1_555
H9_3 C7_3 1_555 1_555
C8_3 C7_3 1_555 1_555
H10_3 C8_3 1_555 1_555
C9_3 C8_3 1_555 1_555
C10_3 C9_3 1_555 1_555
C11_3 C10_3 1_555 1_555
H11_3 C11_3 1_555 1_555
C12_3 C11_3 1_555 1_555
H12_3 C12_3 1_555 1_555
C13_3 C14_3 1_555 1_555
H14_3 C14_3 1_555 1_555
C15_3 C14_3 1_555 1_555
H15_3 C15_3 1_555 1_555
C16_3 C15_3 1_555 1_555
Ni5_3 O9_3 1_555 1_555
O7_3 Ni1_3 1_555 1_555
O8_3 C25_3 1_555 1_555
O9_3 C28_3 1_555 1_555
O11_3 C28_3 1_555 1_555
O12_3 Ni1_3 1_555 1_555
H17_3 O12_3 1_555 1_555
H18_3 O12_3 1_555 1_555
C17_3 N1_3 1_555 1_555
H21_3 C17_3 1_555 1_555
C18_3 C3_3 1_555 1_555
H22_3 C18_3 1_555 1_555
C19_3 C4_3 1_555 1_555
H23_3 C19_3 1_555 1_555
C20_3 N5 1_555 1_555
H24_3 C20_3 1_555 1_555
C21_3 N3_3 1_555 1_555
H25_3 C21_3 1_555 1_555
C22_3 C9_3 1_555 1_555
H26_3 C22_3 1_555 1_555
C23_3 C10_3 1_555 1_555
H27_3 C23_3 1_555 1_555
C24_3 N6 1_555 1_555
H28_3 C24_3 1_555 1_555
C25_3 O7_3 1_555 1_555
C26_3 C25_3 1_555 1_555
H29_3 C26_3 1_555 1_555
H30_3 C26_3 1_555 1_555
C27_3 C26_3 1_555 1_555
H31_3 C27_3 1_555 1_555
H32_3 C27_3 1_555 1_555
C28_3 C27_3 1_555 1_555
C17_3 C18_3 1_555 1_555
C19_3 C20_3 1_555 1_555
C21_3 C22_3 1_555 1_555
C23_3 C24_3 1_555 1_555
Ni4 O3_4 1_555 1_555
H1_4 O5_4 1_555 1_555
H2_4 O5_4 1_555 1_555
O10_4 Ni4 1_555 1_555
O13_4 Ni4 1_555 1_555
H19_4 O13_4 1_555 1_555
H20_4 O13_4 1_555 1_555
Ni1_4 O1_4 1_555 1_555
O1_4 C13_4 1_555 1_555
O4_4 C16_4 1_555 1_555
H3_4 O6_4 1_555 1_555
H4_4 O6_4 1_555 1_555
N1_4 Ni1_4 1_555 1_555
N5_2 C6_4 1_555 1_555
N3_4 Ni1_4 1_555 1_555
N6_2 C12_4 1_555 1_555
C1_4 N1_4 1_555 1_555
H5_4 C1_4 1_555 1_555
C2_4 C1_4 1_555 1_555
H6_4 C2_4 1_555 1_555
C3_4 C2_4 1_555 1_555
C4_4 C3_4 1_555 1_555
C5_4 C4_4 1_555 1_555
H7_4 C5_4 1_555 1_555
C6_4 C5_4 1_555 1_555
H8_4 C6_4 1_555 1_555
C7_4 N3_4 1_555 1_555
H9_4 C7_4 1_555 1_555
C8_4 C7_4 1_555 1_555
H10_4 C8_4 1_555 1_555
C9_4 C8_4 1_555 1_555
C10_4 C9_4 1_555 1_555
C11_4 C10_4 1_555 1_555
H11_4 C11_4 1_555 1_555
C12_4 C11_4 1_555 1_555
H12_4 C12_4 1_555 1_555
C13_4 C14_4 1_555 1_555
H14_4 C14_4 1_555 1_555
C15_4 C14_4 1_555 1_555
H15_4 C15_4 1_555 1_555
C16_4 C15_4 1_555 1_555
Ni5_4 O9_4 1_555 1_555
O7_4 Ni1_4 1_555 1_555
O8_4 C25_4 1_555 1_555
O9_4 C28_4 1_555 1_555
O11_4 C28_4 1_555 1_555
O12_4 Ni1_4 1_555 1_555
H17_4 O12_4 1_555 1_555
H18_4 O12_4 1_555 1_555
C17_4 N1_4 1_555 1_555
H21_4 C17_4 1_555 1_555
C18_4 C3_4 1_555 1_555
H22_4 C18_4 1_555 1_555
C19_4 C4_4 1_555 1_555
H23_4 C19_4 1_555 1_555
C20_4 N5_2 1_555 1_555
H24_4 C20_4 1_555 1_555
C21_4 N3_4 1_555 1_555
H25_4 C21_4 1_555 1_555
C22_4 C9_4 1_555 1_555
H26_4 C22_4 1_555 1_555
C23_4 C10_4 1_555 1_555
H27_4 C23_4 1_555 1_555
C24_4 N6_2 1_555 1_555
H28_4 C24_4 1_555 1_555
C25_4 O7_4 1_555 1_555
C26_4 C25_4 1_555 1_555
H29_4 C26_4 1_555 1_555
H30_4 C26_4 1_555 1_555
C27_4 C26_4 1_555 1_555
H31_4 C27_4 1_555 1_555
H32_4 C27_4 1_555 1_555
C28_4 C27_4 1_555 1_555
C17_4 C18_4 1_555 1_555
C19_4 C20_4 1_555 1_555
C21_4 C22_4 1_555 1_555
C23_4 C24_4 1_555 1_555
Ni1_5 O1_5 1_555 1_555
O1_5 C13_5 1_555 1_555
O2_5 C13_5 1_555 1_555
O10 C16_5 1_555 1_555
O4_5 C16_5 1_555 1_555
O5_5 Ni1_5 1_555 1_555
H1_5 O5_5 1_555 1_555
H2_5 O5_5 1_555 1_555
N1_5 Ni1_5 1_555 1_555
N2_3 C6_5 1_555 1_555
C1_5 N1_5 1_555 1_555
H5_5 C1_5 1_555 1_555
C2_5 C1_5 1_555 1_555
H6_5 C2_5 1_555 1_555
C3_5 C2_5 1_555 1_555
C4_5 C3_5 1_555 1_555
C5_5 C4_5 1_555 1_555
H7_5 C5_5 1_555 1_555
C6_5 C5_5 1_555 1_555
H8_5 C6_5 1_555 1_555
C13_5 C14_5 1_555 1_555
C14_5 H13_5 1_555 1_555
H14_5 C14_5 1_555 1_555
C15_5 C14_5 1_555 1_555
H15_5 C15_5 1_555 1_555
C16_5 C15_5 1_555 1_555
Ni5_4 N2_3 1_555 1_555
Ni5 O9_5 1_555 1_555
O7_5 Ni1_5 1_555 1_555
O8_5 C25_5 1_555 1_555
O9_5 C28_5 1_555 1_555
O11_5 C28_5 1_555 1_555
O12_5 Ni1_5 1_555 1_555
H17_5 O12_5 1_555 1_555
H18_5 O12_5 1_555 1_555
C17_5 N1_5 1_555 1_555
H21_5 C17_5 1_555 1_555
C18_5 C3_5 1_555 1_555
H22_5 C18_5 1_555 1_555
C19_5 C4_5 1_555 1_555
H23_5 C19_5 1_555 1_555
C20_5 N2_3 1_555 1_555
H24_5 C20_5 1_555 1_555
C25_5 O7_5 1_555 1_555
C26_5 C25_5 1_555 1_555
H29_5 C26_5 1_555 1_555
H30_5 C26_5 1_555 1_555
C27_5 C26_5 1_555 1_555
H31_5 C27_5 1_555 1_555
H32_5 C27_5 1_555 1_555
C28_5 C27_5 1_555 1_555
C17_5 C18_5 1_555 1_555
C19_5 C20_5 1_555 1_555
N4_3 C12_5 1_555 1_555
C7_5 N3_5 1_555 1_555
H9_5 C7_5 1_555 1_555
C8_5 C7_5 1_555 1_555
H10_5 C8_5 1_555 1_555
C9_5 C8_5 1_555 1_555
C10_5 C9_5 1_555 1_555
C11_5 C10_5 1_555 1_555
H11_5 C11_5 1_555 1_555
C12_5 C11_5 1_555 1_555
H12_5 C12_5 1_555 1_555
Ni5_4 N4_3 1_555 1_555
C21_5 N3_5 1_555 1_555
H25_5 C21_5 1_555 1_555
C22_5 C9_5 1_555 1_555
H26_5 C22_5 1_555 1_555
C23_5 C10_5 1_555 1_555
H27_5 C23_5 1_555 1_555
C24_5 N4_3 1_555 1_555
H28_5 C24_5 1_555 1_555
C21_5 C22_5 1_555 1_555
C23_5 C24_5 1_555 1_555
N4_4 C12_6 1_555 1_555
C7_6 N3_6 1_555 1_555
H9_6 C7_6 1_555 1_555
C8_6 C7_6 1_555 1_555
H10_6 C8_6 1_555 1_555
C9_6 C8_6 1_555 1_555
C10_6 C9_6 1_555 1_555
C11_6 C10_6 1_555 1_555
H11_6 C11_6 1_555 1_555
C12_6 C11_6 1_555 1_555
H12_6 C12_6 1_555 1_555
Ni5_3 N4_4 1_555 1_555
C21_6 N3_6 1_555 1_555
H25_6 C21_6 1_555 1_555
C22_6 C9_6 1_555 1_555
H26_6 C22_6 1_555 1_555
C23_6 C10_6 1_555 1_555
H27_6 C23_6 1_555 1_555
C24_6 N4_4 1_555 1_555
H28_6 C24_6 1_555 1_555
C21_6 C22_6 1_555 1_555
C23_6 C24_6 1_555 1_555
Ni1_6 O1_6 1_555 1_555
O1_6 C13_6 1_555 1_555
O2_6 C13_6 1_555 1_555
O10_2 C16_6 1_555 1_555
O4_6 C16_6 1_555 1_555
O5_6 Ni1_6 1_555 1_555
H1_6 O5_6 1_555 1_555
H2_6 O5_6 1_555 1_555
N1_6 Ni1_6 1_555 1_555
N2_4 C6_6 1_555 1_555
C1_6 N1_6 1_555 1_555
H5_6 C1_6 1_555 1_555
C2_6 C1_6 1_555 1_555
H6_6 C2_6 1_555 1_555
C3_6 C2_6 1_555 1_555
C4_6 C3_6 1_555 1_555
C5_6 C4_6 1_555 1_555
H7_6 C5_6 1_555 1_555
C6_6 C5_6 1_555 1_555
H8_6 C6_6 1_555 1_555
C13_6 C14_6 1_555 1_555
C14_6 H13_6 1_555 1_555
H14_6 C14_6 1_555 1_555
C15_6 C14_6 1_555 1_555
H15_6 C15_6 1_555 1_555
C16_6 C15_6 1_555 1_555
Ni5_3 N2_4 1_555 1_555
Ni5_2 O9_6 1_555 1_555
O7_6 Ni1_6 1_555 1_555
O8_6 C25_6 1_555 1_555
O9_6 C28_6 1_555 1_555
O11_6 C28_6 1_555 1_555
O12_6 Ni1_6 1_555 1_555
H17_6 O12_6 1_555 1_555
H18_6 O12_6 1_555 1_555
C17_6 N1_6 1_555 1_555
H21_6 C17_6 1_555 1_555
C18_6 C3_6 1_555 1_555
H22_6 C18_6 1_555 1_555
C19_6 C4_6 1_555 1_555
H23_6 C19_6 1_555 1_555
C20_6 N2_4 1_555 1_555
H24_6 C20_6 1_555 1_555
C25_6 O7_6 1_555 1_555
C26_6 C25_6 1_555 1_555
H29_6 C26_6 1_555 1_555
H30_6 C26_6 1_555 1_555
C27_6 C26_6 1_555 1_555
H31_6 C27_6 1_555 1_555
H32_6 C27_6 1_555 1_555
C28_6 C27_6 1_555 1_555
C17_6 C18_6 1_555 1_555
C19_6 C20_6 1_555 1_555
O6_5 Ni5_3 1_555 1_555
H3_5 O6_5 1_555 1_555
H4_5 O6_5 1_555 1_555
O10_5 Ni5_3 1_555 1_555
O13_5 Ni5_3 1_555 1_555
H19_5 O13_5 1_555 1_555
H20_5 O13_5 1_555 1_555
O6_6 Ni5_4 1_555 1_555
H3_6 O6_6 1_555 1_555
H4_6 O6_6 1_555 1_555
O10_6 Ni5_4 1_555 1_555
O13_6 Ni5_4 1_555 1_555
H19_6 O13_6 1_555 1_555
H20_6 O13_6 1_555 1_555
O6_7 Ni5_2 1_555 1_555
H3_7 O6_7 1_555 1_555
H4_7 O6_7 1_555 1_555
O13_7 Ni5_2 1_555 1_555
H19_7 O13_7 1_555 1_555
H20_7 O13_7 1_555 1_555
N5_3 Ni5_2 1_555 1_555
N6_3 Ni5_2 1_555 1_555
O6_8 Ni5 1_555 1_555
H3_8 O6_8 1_555 1_555
H4_8 O6_8 1_555 1_555
O13_8 Ni5 1_555 1_555
H19_8 O13_8 1_555 1_555
H20_8 O13_8 1_555 1_555
N5_4 Ni5 1_555 1_555
N6_4 Ni5 1_555 1_555
Ni1_7 O1_7 1_555 1_555
O1_7 C13_7 1_555 1_555
O2_7 C13_7 1_555 1_555
O10_6 C16_7 1_555 1_555
O4_7 C16_7 1_555 1_555
O5_7 Ni1_7 1_555 1_555
H1_7 O5_7 1_555 1_555
H2_7 O5_7 1_555 1_555
N1_7 Ni1_7 1_555 1_555
N5_3 C6_7 1_555 1_555
C1_7 N1_7 1_555 1_555
H5_7 C1_7 1_555 1_555
C2_7 C1_7 1_555 1_555
H6_7 C2_7 1_555 1_555
C3_7 C2_7 1_555 1_555
C4_7 C3_7 1_555 1_555
C5_7 C4_7 1_555 1_555
H7_7 C5_7 1_555 1_555
C6_7 C5_7 1_555 1_555
H8_7 C6_7 1_555 1_555
C13_7 C14_7 1_555 1_555
C14_7 H13_7 1_555 1_555
H14_7 C14_7 1_555 1_555
C15_7 C14_7 1_555 1_555
H15_7 C15_7 1_555 1_555
H16_3 C15_7 1_555 1_555
C16_7 C15_7 1_555 1_555
O7_7 Ni1_7 1_555 1_555
O8_7 C25_7 1_555 1_555
O10_4 C28_7 1_555 1_555
O11_7 C28_7 1_555 1_555
O12_7 Ni1_7 1_555 1_555
H17_7 O12_7 1_555 1_555
H18_7 O12_7 1_555 1_555
C17_7 N1_7 1_555 1_555
H21_7 C17_7 1_555 1_555
C18_7 C3_7 1_555 1_555
H22_7 C18_7 1_555 1_555
C19_7 C4_7 1_555 1_555
H23_7 C19_7 1_555 1_555
C20_7 N5_3 1_555 1_555
H24_7 C20_7 1_555 1_555
C25_7 O7_7 1_555 1_555
C26_7 C25_7 1_555 1_555
H29_7 C26_7 1_555 1_555
H30_7 C26_7 1_555 1_555
C27_7 C26_7 1_555 1_555
H31_7 C27_7 1_555 1_555
C28_7 C27_7 1_555 1_555
C17_7 C18_7 1_555 1_555
C19_7 C20_7 1_555 1_555
N6_3 C12_7 1_555 1_555
C7_7 N3_7 1_555 1_555
H9_7 C7_7 1_555 1_555
C8_7 C7_7 1_555 1_555
H10_7 C8_7 1_555 1_555
C9_7 C8_7 1_555 1_555
C10_7 C9_7 1_555 1_555
C11_7 C10_7 1_555 1_555
H11_7 C11_7 1_555 1_555
C12_7 C11_7 1_555 1_555
H12_7 C12_7 1_555 1_555
C21_7 N3_7 1_555 1_555
H25_7 C21_7 1_555 1_555
C22_7 C9_7 1_555 1_555
H26_7 C22_7 1_555 1_555
C23_7 C10_7 1_555 1_555
H27_7 C23_7 1_555 1_555
C24_7 N6_3 1_555 1_555
H28_7 C24_7 1_555 1_555
C21_7 C22_7 1_555 1_555
C23_7 C24_7 1_555 1_555
N6_4 C12_8 1_555 1_555
C7_8 N3_8 1_555 1_555
H9_8 C7_8 1_555 1_555
C8_8 C7_8 1_555 1_555
H10_8 C8_8 1_555 1_555
C9_8 C8_8 1_555 1_555
C10_8 C9_8 1_555 1_555
C11_8 C10_8 1_555 1_555
H11_8 C11_8 1_555 1_555
C12_8 C11_8 1_555 1_555
H12_8 C12_8 1_555 1_555
C21_8 N3_8 1_555 1_555
H25_8 C21_8 1_555 1_555
C22_8 C9_8 1_555 1_555
H26_8 C22_8 1_555 1_555
C23_8 C10_8 1_555 1_555
H27_8 C23_8 1_555 1_555
C24_8 N6_4 1_555 1_555
H28_8 C24_8 1_555 1_555
C21_8 C22_8 1_555 1_555
C23_8 C24_8 1_555 1_555
Ni1_8 O1_8 1_555 1_555
O1_8 C13_8 1_555 1_555
O2_8 C13_8 1_555 1_555
O10_5 C16_8 1_555 1_555
O4_8 C16_8 1_555 1_555
O5_8 Ni1_8 1_555 1_555
H1_8 O5_8 1_555 1_555
H2_8 O5_8 1_555 1_555
N1_8 Ni1_8 1_555 1_555
N5_4 C6_8 1_555 1_555
C1_8 N1_8 1_555 1_555
H5_8 C1_8 1_555 1_555
C2_8 C1_8 1_555 1_555
H6_8 C2_8 1_555 1_555
C3_8 C2_8 1_555 1_555
C4_8 C3_8 1_555 1_555
C5_8 C4_8 1_555 1_555
H7_8 C5_8 1_555 1_555
C6_8 C5_8 1_555 1_555
H8_8 C6_8 1_555 1_555
C13_8 C14_8 1_555 1_555
C14_8 H13_8 1_555 1_555
H14_8 C14_8 1_555 1_555
C15_8 C14_8 1_555 1_555
H15_8 C15_8 1_555 1_555
H16_4 C15_8 1_555 1_555
C16_8 C15_8 1_555 1_555
O7_8 Ni1_8 1_555 1_555
O8_8 C25_8 1_555 1_555
O10_3 C28_8 1_555 1_555
O11_8 C28_8 1_555 1_555
O12_8 Ni1_8 1_555 1_555
H17_8 O12_8 1_555 1_555
H18_8 O12_8 1_555 1_555
C17_8 N1_8 1_555 1_555
H21_8 C17_8 1_555 1_555
C18_8 C3_8 1_555 1_555
H22_8 C18_8 1_555 1_555
C19_8 C4_8 1_555 1_555
H23_8 C19_8 1_555 1_555
C20_8 N5_4 1_555 1_555
H24_8 C20_8 1_555 1_555
C25_8 O7_8 1_555 1_555
C26_8 C25_8 1_555 1_555
H29_8 C26_8 1_555 1_555
H30_8 C26_8 1_555 1_555
C27_8 C26_8 1_555 1_555
H31_8 C27_8 1_555 1_555
C28_8 C27_8 1_555 1_555
C17_8 C18_8 1_555 1_555
C19_8 C20_8 1_555 1_555

#END
