
###############################################################################
#
# This file contains modified crystal structure data generated from the
# MOF subset of the Cambridge Structural Database (CSD) v543 
# hosted by the Cambridge Crystallographic Data Centre (CCDC).
#
# This work is licensed under the Creative Commons
# Attribution-NonCommercial-ShareAlike 4.0 International License.
# To view a copy of this license, visit
# http://creativecommons.org/licenses/by-nc-sa/4.0/
# or send a letter to
# Creative Commons, PO Box 1866, Mountain View, CA 94042, USA.
#
# CIF created using the CSD Python API on 29 September 2022
# The structure has been converted into the P1 space group
# The structure has a 3D framework
# The original CSD entry PACGIM is in the rhombohedral crystal system
# The framework has been calculated to contain at least 10.0% void space
# The void calculation uses a probe of radius 1.32A, grid spacing 0.4
# The framework is charged, counterions have been retained in the structure
# H atom positions have been added when not included in the experimental data
# Generated hydrogen atom positions removed from atoms on special positions
#
###############################################################################

data_PACGIM
_chemical_formula_moiety         '(C390 H288 N22 O124 Th24 17-)n'
_symmetry_cell_setting           triclinic
_symmetry_space_group_name_H-M   'P 1'
_symmetry_Int_Tables_number      1
_space_group_name_Hall           'P 1'
loop_
_symmetry_equiv_pos_site_id
_symmetry_equiv_pos_as_xyz
1 x,y,z
_cell_length_a                   24.8612(19)
_cell_length_b                   24.8612(19)
_cell_length_c                   28.260(4)
_cell_angle_alpha                90
_cell_angle_beta                 90
_cell_angle_gamma                120
_cell_volume                     15126.8
loop_
_atom_site_label
_atom_site_type_symbol
_atom_site_fract_x
_atom_site_fract_y
_atom_site_fract_z
Th5 Th -0.0000 0.0000 0.84556(2)
Th7 Th 0.3333 0.6667 0.01223(2)
N3 N 0.01282(16) 0.34612(16) 0.9167
C49 C 0.07050(19) 0.40380(19) 0.9167
C51 C 0.08982(25) 0.44101(17) 0.95686(15)
H29 H 0.0647 0.4279 0.9845
C52 C 0.18352(18) 0.51682(18) 0.9167
C53 C 0.14578(25) 0.49742(17) 0.95708(14)
H30 H 0.1583 0.5227 0.9847
C54 C 0.24382(16) 0.57712(16) 0.9167
O16 O 0.25599(14) 0.61188(10) 0.95234(8)
O17 O 0.05617(12) 0.11261(16) 0.88426(9)
C55 C 0.01182(16) 0.17923(23) 0.88405(13)
C56 C 0.01319(16) 0.29095(23) 0.90487(15)
C57 C 0.00964(17) 0.11899(23) 0.87456(12)
C60 C 0.06407(18) 0.28400(25) 0.91591(17)
H33 H 0.0994 0.3171 0.9308
C61 C 0.06374(18) 0.22913(25) 0.90538(15)
H34 H 0.0991 0.2254 0.9127
C62 C 0.10768(17) 0.42315(25) 0.87647(15)
H35 H 0.0946 0.3980 0.8488
C63 C 0.16409(17) 0.47911(25) 0.87625(14)
H36 H 0.1894 0.4916 0.8486
O19 O 0.27855(10) 0.58932(14) 0.88099(8)
Th5_2 Th -0.0000 1.0000 0.84556(2)
Th10 Th 0.3334 0.6666 0.82110(2)
Th5_3 Th 1.0000 0.0000 0.84556(2)
O20 O 0.3333 0.6667 0.10313(19)
O21 O 0.38950(12) 0.61022(11) 0.05093(9)
O22 O 0.38978(11) 0.77928(16) 0.05093(9)
O23 O 0.22072(16) 0.61050(12) 0.05093(9)
O24 O 0.29443(12) 0.55325(11) 0.02334(10)
O25 O 0.44675(11) 0.74118(16) 0.02334(10)
O26 O 0.25882(16) 0.70557(12) 0.02334(10)
O29 O 0.61188(10) 0.35589(10) 0.04766(8)
O30 O 0.64411(10) 0.25599(14) 0.04766(8)
O31 O 0.74401(14) 0.38812(10) 0.04766(8)
Th1 Th 0.6667 0.3333 0.98777(2)
O1 O 0.61050(12) 0.38978(11) 0.94907(9)
C1 C 0.65485(16) 0.50075(16) 0.94928(13)
C2 C 0.65348(16) 0.61110(17) 0.92846(15)
C3 C 0.65703(17) 0.44269(16) 0.95877(12)
N1 N 0.65388(16) 0.6667 0.9167
C4 C 0.70427(16) 0.61315(16) 0.95222(15)
H1 H 0.7383 0.6520 0.9617
C5 C 0.70469(17) 0.55828(16) 0.96192(14)
H2 H 0.7396 0.5603 0.9774
C6 C 0.60260(18) 0.55327(18) 0.91742(17)
H3 H 0.5673 0.5511 0.9025
C7 C 0.59620(19) 0.6667 0.9167
C8 C 0.60293(18) 0.49873(17) 0.92795(15)
H4 H 0.5676 0.4597 0.9206
C9 C 0.55899(17) 0.64881(19) 0.95686(15)
H5 H 0.5721 0.6368 0.9845
O2 O 0.70557(12) 0.44675(11) 0.97666(10)
C10 C 0.48318(18) 0.6667 0.9167
C11 C 0.50258(17) 0.64836(18) 0.95708(14)
H6 H 0.4773 0.6356 0.9847
C12 C 0.42288(16) 0.6667 0.9167
O3 O 0.38812(10) 0.64411(10) 0.95234(8)
O4 O 0.6667 0.3333 0.89687(19)
O5 O 0.88739(16) 0.94355(11) 0.88426(9)
C13 C 0.82077(23) 0.83258(16) 0.88405(13)
C14 C 0.70905(23) 0.72223(17) 0.90487(15)
C15 C 0.88101(23) 0.89064(16) 0.87456(12)
C16 C 0.75779(23) 0.72018(16) 0.88111(15)
H7 H 0.7530 0.6813 0.8716
C17 C 0.81308(23) 0.77505(16) 0.87141(14)
H8 H 0.8460 0.7730 0.8559
C18 C 0.71600(25) 0.78006(18) 0.91591(17)
H9 H 0.6829 0.7822 0.9308
C19 C 0.77087(25) 0.83460(17) 0.90538(15)
H10 H 0.7746 0.8736 0.9127
C20 C 0.57685(25) 0.68452(19) 0.87647(15)
H11 H 0.6020 0.6965 0.8488
O6 O 0.92549(16) 0.88658(11) 0.85667(10)
C21 C 0.52089(25) 0.68497(18) 0.87625(14)
H12 H 0.5084 0.6977 0.8486
O7 O 0.41068(14) 0.68922(10) 0.88099(8)
O8 O 0.61022(11) 0.22072(16) 0.94907(9)
C22 C 0.49925(16) 0.15410(23) 0.94928(13)
C23 C 0.38890(17) 0.04238(23) 0.92846(15)
C24 C 0.55731(16) 0.21434(23) 0.95877(12)
C25 C 0.38685(16) 0.09112(23) 0.95222(15)
H13 H 0.3480 0.0863 0.9617
C26 C 0.44172(16) 0.14641(23) 0.96192(14)
H14 H 0.4397 0.1793 0.9774
C27 C 0.44673(18) 0.04933(25) 0.91742(17)
H15 H 0.4489 0.0162 0.9025
C29 C 0.50127(17) 0.10420(25) 0.92795(15)
H16 H 0.5403 0.1079 0.9206
O9 O 0.55325(11) 0.25882(16) 0.97666(10)
C37 C 0.27982(16) 0.03760(16) 0.88111(15)
H19 H 0.3187 0.0716 0.8716
C38 C 0.22495(16) 0.03802(17) 0.87141(14)
H20 H 0.2270 0.0729 0.8559
O12 O 0.11342(11) 0.03890(12) 0.85667(10)
O14 O 0.77928(16) 0.38950(12) 0.94907(9)
C43 C 0.84590(23) 0.34515(16) 0.94928(13)
C44 C 0.95762(23) 0.34652(16) 0.92846(15)
C45 C 0.78566(23) 0.34297(17) 0.95877(12)
C46 C 0.90888(23) 0.29573(16) 0.95222(15)
H25 H 0.9137 0.2617 0.9617
C47 C 0.85359(23) 0.29531(17) 0.96192(14)
H26 H 0.8207 0.2604 0.9774
C48 C 0.95067(25) 0.39740(18) 0.91742(17)
H27 H 0.9838 0.4327 0.9025
C50 C 0.89580(25) 0.39707(18) 0.92795(15)
H28 H 0.8921 0.4324 0.9206
O15 O 0.74118(16) 0.29443(12) 0.97666(10)
C58 C 0.96240(16) 0.24221(23) 0.88111(15)
H31 H 0.9284 0.2470 0.8716
C59 C 0.96198(17) 0.18692(23) 0.87141(14)
H32 H 0.9271 0.1540 0.8559
O18 O 0.96110(12) 0.07451(16) 0.85667(10)
Th5_4 Th 1.0000 1.0000 0.84556(2)
O27 O 0.35589(10) 0.74401(14) 0.95234(8)
N2 N 0.3333 0.98718(16) 0.9167
C28 C 0.3333 0.92950(19) 0.9167
C30 C 0.35119(19) 0.91018(25) 0.95686(15)
H17 H 0.3632 0.9353 0.9845
C31 C 0.3333 0.81648(18) 0.9167
C32 C 0.35164(18) 0.85422(25) 0.95708(14)
H18 H 0.3644 0.8417 0.9847
C33 C 0.3333 0.75618(16) 0.9167
O11 O 0.05645(11) 0.94383(12) 0.88426(9)
C34 C 0.16742(16) 0.98818(16) 0.88405(13)
C35 C 0.27777(17) 0.98681(16) 0.90487(15)
C36 C 0.10936(16) 0.99036(17) 0.87456(12)
C39 C 0.21994(18) 0.93593(18) 0.91591(17)
H21 H 0.2178 0.9006 0.9308
C40 C 0.16540(17) 0.93626(18) 0.90538(15)
H22 H 0.1264 0.9009 0.9127
C41 C 0.31548(19) 0.89232(17) 0.87647(15)
H23 H 0.3035 0.9054 0.8488
C42 C 0.31503(18) 0.83591(17) 0.87625(14)
H24 H 0.3023 0.8106 0.8486
O13 O 0.31078(10) 0.72145(10) 0.88099(8)
Th5_5 Th 0.0000 -0.0000 0.65444(2)
Th5_6 Th 0.0000 1.0000 0.65444(2)
N3_2 N 0.34612(16) 0.01282(16) 0.5833
C49_2 C 0.40380(19) 0.07050(19) 0.5833
C51_2 C 0.44101(17) 0.08982(25) 0.54314(15)
H29_2 H 0.4279 0.0647 0.5155
C52_2 C 0.51682(18) 0.18352(18) 0.5833
C53_2 C 0.49742(17) 0.14578(25) 0.54292(14)
H30_2 H 0.5227 0.1583 0.5153
C54_2 C 0.57712(16) 0.24382(16) 0.5833
O16_2 O 0.61188(10) 0.25599(14) 0.54766(8)
O17_2 O 0.11261(16) 0.05617(12) 0.61574(9)
C55_2 C 0.17923(23) 0.01182(16) 0.61595(13)
C56_2 C 0.29095(23) 0.01319(16) 0.59513(15)
C57_2 C 0.11899(23) 0.00964(17) 0.62544(12)
C60_2 C 0.28400(25) 0.06407(18) 0.58409(17)
H33_2 H 0.3171 0.0994 0.5692
C61_2 C 0.22913(25) 0.06374(18) 0.59462(15)
H34_2 H 0.2254 0.0991 0.5873
C62_2 C 0.42315(25) 0.10768(17) 0.62353(15)
H35_2 H 0.3980 0.0946 0.6512
C63_2 C 0.47911(25) 0.16409(17) 0.62375(14)
H36_2 H 0.4916 0.1894 0.6514
O19_2 O 0.58932(14) 0.27855(10) 0.61901(8)
Th5_7 Th 1.0000 -0.0000 0.65444(2)
Th7_2 Th 0.6667 0.3333 0.48777(2)
Th10_2 Th 0.6666 0.3334 0.67890(2)
Th1_2 Th 0.3333 0.6667 0.51223(2)
O1_2 O 0.38978(11) 0.61050(12) 0.55093(9)
C1_2 C 0.50075(16) 0.65485(16) 0.55072(13)
C2_2 C 0.61110(17) 0.65348(16) 0.57154(15)
C3_2 C 0.44269(16) 0.65703(17) 0.54123(12)
N1_2 N 0.6667 0.65388(16) 0.5833
C4_2 C 0.61315(16) 0.70427(16) 0.54778(15)
H1_2 H 0.6520 0.7383 0.5383
C5_2 C 0.55828(16) 0.70469(17) 0.53808(14)
H2_2 H 0.5603 0.7396 0.5226
C6_2 C 0.55327(18) 0.60260(18) 0.58258(17)
H3_2 H 0.5511 0.5673 0.5975
C7_2 C 0.6667 0.59620(19) 0.5833
C8_2 C 0.49873(17) 0.60293(18) 0.57205(15)
H4_2 H 0.4597 0.5676 0.5794
C9_2 C 0.64881(19) 0.55899(17) 0.54314(15)
H5_2 H 0.6368 0.5721 0.5155
O2_2 O 0.44675(11) 0.70557(12) 0.52334(10)
C10_2 C 0.6667 0.48318(18) 0.5833
C11_2 C 0.64836(18) 0.50258(17) 0.54292(14)
H6_2 H 0.6356 0.4773 0.5153
C12_2 C 0.6667 0.42288(16) 0.5833
O3_2 O 0.64411(10) 0.38812(10) 0.54766(8)
O4_2 O 0.3333 0.6667 0.60313(19)
O5_2 O 0.94355(11) 0.88739(16) 0.61574(9)
C13_2 C 0.83258(16) 0.82077(23) 0.61595(13)
C14_2 C 0.72223(17) 0.70905(23) 0.59513(15)
C15_2 C 0.89064(16) 0.88101(23) 0.62544(12)
C16_2 C 0.72018(16) 0.75779(23) 0.61889(15)
H7_2 H 0.6813 0.7530 0.6284
C17_2 C 0.77505(16) 0.81308(23) 0.62859(14)
H8_2 H 0.7730 0.8460 0.6441
C18_2 C 0.78006(18) 0.71600(25) 0.58409(17)
H9_2 H 0.7822 0.6829 0.5692
C19_2 C 0.83460(17) 0.77087(25) 0.59462(15)
H10_2 H 0.8736 0.7746 0.5873
C20_2 C 0.68452(19) 0.57685(25) 0.62353(15)
H11_2 H 0.6965 0.6020 0.6512
O6_2 O 0.88658(11) 0.92549(16) 0.64333(10)
C21_2 C 0.68497(18) 0.52089(25) 0.62375(14)
H12_2 H 0.6977 0.5084 0.6514
O7_2 O 0.68922(10) 0.41068(14) 0.61901(8)
O8_2 O 0.22072(16) 0.61022(11) 0.55093(9)
C22_2 C 0.15410(23) 0.49925(16) 0.55072(13)
C23_2 C 0.04238(23) 0.38890(17) 0.57154(15)
C24_2 C 0.21434(23) 0.55731(16) 0.54123(12)
C25_2 C 0.09112(23) 0.38685(16) 0.54778(15)
H13_2 H 0.0863 0.3480 0.5383
C26_2 C 0.14641(23) 0.44172(16) 0.53808(14)
H14_2 H 0.1793 0.4397 0.5226
C27_2 C 0.04933(25) 0.44673(18) 0.58258(17)
H15_2 H 0.0162 0.4489 0.5975
C29_2 C 0.10420(25) 0.50127(17) 0.57205(15)
H16_2 H 0.1079 0.5403 0.5794
O9_2 O 0.25882(16) 0.55325(11) 0.52334(10)
C37_2 C 0.03760(16) 0.27982(16) 0.61889(15)
H19_2 H 0.0716 0.3187 0.6284
C38_2 C 0.03802(17) 0.22495(16) 0.62859(14)
H20_2 H 0.0729 0.2270 0.6441
O12_2 O 0.03890(12) 0.11342(11) 0.64333(10)
O14_2 O 0.38950(12) 0.77928(16) 0.55093(9)
C43_2 C 0.34515(16) 0.84590(23) 0.55072(13)
C44_2 C 0.34652(16) 0.95762(23) 0.57154(15)
C45_2 C 0.34297(17) 0.78566(23) 0.54123(12)
C46_2 C 0.29573(16) 0.90888(23) 0.54778(15)
H25_2 H 0.2617 0.9137 0.5383
C47_2 C 0.29531(17) 0.85359(23) 0.53808(14)
H26_2 H 0.2604 0.8207 0.5226
C48_2 C 0.39740(18) 0.95067(25) 0.58258(17)
H27_2 H 0.4327 0.9838 0.5975
C50_2 C 0.39707(18) 0.89580(25) 0.57205(15)
H28_2 H 0.4324 0.8921 0.5794
O15_2 O 0.29443(12) 0.74118(16) 0.52334(10)
C58_2 C 0.24221(23) 0.96240(16) 0.61889(15)
H31_2 H 0.2470 0.9284 0.6284
C59_2 C 0.18692(23) 0.96198(17) 0.62859(14)
H32_2 H 0.1540 0.9271 0.6441
O18_2 O 0.07451(16) 0.96110(12) 0.64333(10)
O20_2 O 0.6667 0.3333 0.39687(19)
Th5_8 Th 1.0000 1.0000 0.65444(2)
O21_2 O 0.61022(11) 0.38950(12) 0.44907(9)
O22_2 O 0.77928(16) 0.38978(11) 0.44907(9)
O23_2 O 0.61050(12) 0.22072(16) 0.44907(9)
O24_2 O 0.55325(11) 0.29443(12) 0.47666(10)
O25_2 O 0.74118(16) 0.44675(11) 0.47666(10)
O26_2 O 0.70557(12) 0.25882(16) 0.47666(10)
O27_2 O 0.74401(14) 0.35589(10) 0.54766(8)
O29_2 O 0.35589(10) 0.61188(10) 0.45234(8)
O30_2 O 0.25599(14) 0.64411(10) 0.45234(8)
O31_2 O 0.38812(10) 0.74401(14) 0.45234(8)
N2_2 N 0.98718(16) 0.3333 0.5833
C28_2 C 0.92950(19) 0.3333 0.5833
C30_2 C 0.91018(25) 0.35119(19) 0.54314(15)
H17_2 H 0.9353 0.3632 0.5155
C31_2 C 0.81648(18) 0.3333 0.5833
C32_2 C 0.85422(25) 0.35164(18) 0.54292(14)
H18_2 H 0.8417 0.3644 0.5153
C33_2 C 0.75618(16) 0.3333 0.5833
O11_2 O 0.94383(12) 0.05645(11) 0.61574(9)
C34_2 C 0.98818(16) 0.16742(16) 0.61595(13)
C35_2 C 0.98681(16) 0.27777(17) 0.59513(15)
C36_2 C 0.99036(17) 0.10936(16) 0.62544(12)
C39_2 C 0.93593(18) 0.21994(18) 0.58409(17)
H21_2 H 0.9006 0.2178 0.5692
C40_2 C 0.93626(18) 0.16540(17) 0.59462(15)
H22_2 H 0.9009 0.1264 0.5873
C41_2 C 0.89232(17) 0.31548(19) 0.62353(15)
H23_2 H 0.9054 0.3035 0.6512
C42_2 C 0.83591(17) 0.31503(18) 0.62375(14)
H24_2 H 0.8106 0.3023 0.6514
O13_2 O 0.72145(10) 0.31078(10) 0.61901(8)
Th7_3 Th -0.0000 0.0000 0.34556(2)
Th10_3 Th 0.0000 -0.0000 0.15444(2)
Th7_4 Th -0.0000 1.0000 0.34556(2)
Th10_4 Th 0.0000 1.0000 0.15444(2)
N1_3 N 0.32055(16) 0.0000 0.2500
C7_3 C 0.26287(19) 0.0000 0.2500
C10_3 C 0.14985(18) 0.0000 0.2500
C12_3 C 0.08955(16) 0.0000 0.2500
O5_3 O 0.55405(16) 0.27689(11) 0.21760(9)
C13_3 C 0.48743(23) 0.16592(16) 0.21739(13)
C14_3 C 0.37571(23) 0.05557(17) 0.23821(15)
C15_3 C 0.54767(23) 0.22398(16) 0.20790(12)
C16_3 C 0.42445(23) 0.05352(16) 0.21445(15)
H7_3 H 0.4196 0.0147 0.2050
C17_3 C 0.47974(23) 0.10839(16) 0.20475(14)
H8_3 H 0.5126 0.1064 0.1893
C18_3 C 0.38266(25) 0.11340(18) 0.24925(17)
H9_3 H 0.3495 0.1156 0.2642
C19_3 C 0.43753(25) 0.16794(17) 0.23872(15)
H10_3 H 0.4412 0.2070 0.2461
C20_3 C 0.24351(25) 0.01786(19) 0.20981(15)
H11_3 H 0.2686 0.0299 0.1822
O6_3 O 0.59215(16) 0.21992(11) 0.19001(10)
C21_3 C 0.18755(25) 0.01831(18) 0.20959(14)
H12_3 H 0.1750 0.0311 0.1820
O7_3 O 0.07734(14) 0.02256(10) 0.21433(8)
O20_3 O -0.0000 0.0000 0.43646(19)
Th5_9 Th 0.6666 0.3334 0.17890(2)
Th7_5 Th 1.0000 0.0000 0.34556(2)
Th10_5 Th 1.0000 -0.0000 0.15444(2)
O22_3 O 0.05645(11) 0.11261(16) 0.38426(9)
O25_3 O 0.11342(11) 0.07451(16) 0.35667(10)
O27_3 O 0.02256(10) 0.07734(14) 0.28567(8)
H39 H 0.0422454 0.0299742 0.448176
Th1_3 Th 0.3334 0.6666 0.32110(2)
O1_3 O 0.27717(12) 0.72311(11) 0.28240(9)
C1_3 C 0.32152(16) 0.83408(16) 0.28261(13)
C2_3 C 0.32015(16) 0.94443(17) 0.26179(15)
C3_3 C 0.32370(17) 0.77602(16) 0.29210(12)
N1_4 N 0.32055(16) 1.0000 0.2500
C4_3 C 0.37094(16) 0.94648(16) 0.28555(15)
H1_3 H 0.4050 0.9853 0.2950
C5_3 C 0.37136(17) 0.89161(16) 0.29525(14)
H2_3 H 0.4063 0.8936 0.3107
C6_3 C 0.26927(18) 0.88660(18) 0.25075(17)
H3_3 H 0.2340 0.8844 0.2358
C7_4 C 0.26287(19) 1.0000 0.2500
C8_3 C 0.26960(18) 0.83206(17) 0.26128(15)
H4_3 H 0.2343 0.7930 0.2539
C9_3 C 0.22566(17) 0.98214(19) 0.29019(15)
H5_3 H 0.2388 0.9701 0.3178
O2_3 O 0.37224(12) 0.78008(11) 0.30999(10)
C10_4 C 0.14985(18) 1.0000 0.2500
C11_3 C 0.16925(17) 0.98169(18) 0.29041(14)
H6_3 H 0.1440 0.9689 0.3180
C12_4 C 0.08955(16) 1.0000 0.2500
O3_3 O 0.05479(10) 0.97744(10) 0.28567(8)
O4_3 O 0.3334 0.6666 0.23020(19)
O8_3 O 0.27689(11) 0.55405(16) 0.28240(9)
C22_3 C 0.16592(16) 0.48743(23) 0.28261(13)
C23_3 C 0.05557(17) 0.37571(23) 0.26179(15)
C24_3 C 0.22398(16) 0.54767(23) 0.29210(12)
N2_3 N -0.0000 0.32051(16) 0.2500
C25_3 C 0.05352(16) 0.42445(23) 0.28555(15)
H13_3 H 0.0147 0.4196 0.2950
C26_3 C 0.10839(16) 0.47974(23) 0.29525(14)
H14_3 H 0.1064 0.5126 0.3107
C27_3 C 0.11340(18) 0.38266(25) 0.25075(17)
H15_3 H 0.1156 0.3495 0.2358
C28_3 C -0.0000 0.26283(19) 0.2500
C29_3 C 0.16794(17) 0.43753(25) 0.26128(15)
H16_3 H 0.2070 0.4412 0.2539
C30_3 C 0.01786(19) 0.24351(25) 0.29019(15)
H17_3 H 0.0299 0.2686 0.3178
O9_3 O 0.21992(11) 0.59215(16) 0.30999(10)
C31_3 C -0.0000 0.14981(18) 0.2500
C32_3 C 0.01831(18) 0.18755(25) 0.29041(14)
H18_3 H 0.0311 0.1750 0.3180
C33_3 C -0.0000 0.08951(16) 0.2500
O14_3 O 0.44595(16) 0.72283(12) 0.28240(9)
C43_3 C 0.51257(23) 0.67848(16) 0.28261(13)
C44_3 C 0.62429(23) 0.67985(16) 0.26179(15)
C45_3 C 0.45233(23) 0.67630(17) 0.29210(12)
N3_3 N 0.67949(16) 0.67945(16) 0.2500
C46_3 C 0.57555(23) 0.62906(16) 0.28555(15)
H25_3 H 0.5804 0.5950 0.2950
C47_3 C 0.52026(23) 0.62864(17) 0.29525(14)
H26_3 H 0.4874 0.5937 0.3107
C48_3 C 0.61734(25) 0.73073(18) 0.25075(17)
H27_3 H 0.6505 0.7660 0.2358
C49_3 C 0.73717(19) 0.73713(19) 0.2500
C50_3 C 0.56247(25) 0.73040(18) 0.26128(15)
H28_3 H 0.5588 0.7657 0.2539
C51_3 C 0.75649(25) 0.77434(17) 0.29019(15)
H29_3 H 0.7314 0.7612 0.3178
O15_3 O 0.40785(16) 0.62776(12) 0.30999(10)
C52_3 C 0.85019(18) 0.85015(18) 0.2500
C53_3 C 0.81245(25) 0.83075(17) 0.29041(14)
H30_3 H 0.8250 0.8560 0.3180
C54_3 C 0.91049(16) 0.91045(16) 0.2500
O16_3 O 0.92266(14) 0.94521(10) 0.28567(8)
O17_3 O 0.72283(12) 0.44595(16) 0.21760(9)
C55_3 C 0.67848(16) 0.51257(23) 0.21739(13)
C56_3 C 0.67985(16) 0.62429(23) 0.23821(15)
C57_3 C 0.67630(17) 0.45233(23) 0.20790(12)
C58_3 C 0.62906(16) 0.57555(23) 0.21445(15)
H31_3 H 0.5950 0.5804 0.2050
C59_3 C 0.62864(17) 0.52026(23) 0.20475(14)
H32_3 H 0.5937 0.4874 0.1893
C60_3 C 0.73073(18) 0.61734(25) 0.24925(17)
H33_3 H 0.7660 0.6505 0.2642
C61_3 C 0.73040(18) 0.56247(25) 0.23872(15)
H34_3 H 0.7657 0.5588 0.2461
C62_3 C 0.77434(17) 0.75649(25) 0.20981(15)
H35_3 H 0.7612 0.7314 0.1822
O18_3 O 0.62776(12) 0.40785(16) 0.19001(10)
C63_3 C 0.83075(17) 0.81245(25) 0.20959(14)
H36_3 H 0.8560 0.8250 0.1820
O19_3 O 0.94521(10) 0.92266(14) 0.21433(8)
O20_4 O -0.0000 1.0000 0.43646(19)
Th7_6 Th 1.0000 1.0000 0.34556(2)
Th10_6 Th 1.0000 1.0000 0.15444(2)
O21_3 O 0.05617(12) 0.94355(11) 0.38426(9)
O29_3 O 0.27855(10) 0.68922(10) 0.38099(8)
O30_3 O 0.31078(10) 0.58932(14) 0.38099(8)
O31_3 O 0.41068(14) 0.72145(10) 0.38099(8)
O20_5 O 1.0000 0.0000 0.43646(19)
O26_3 O 0.92549(16) 0.03890(12) 0.35667(10)
H40 H 0.970026 0.0123712 0.448176
N2_4 N 1.0000 0.32051(16) 0.2500
C28_4 C 1.0000 0.26283(19) 0.2500
C31_4 C 1.0000 0.14981(18) 0.2500
C33_4 C 1.0000 0.08951(16) 0.2500
O11_3 O 0.72311(11) 0.27717(12) 0.21760(9)
C34_3 C 0.83408(16) 0.32152(16) 0.21739(13)
C35_3 C 0.94443(17) 0.32015(16) 0.23821(15)
C36_3 C 0.77602(16) 0.32370(17) 0.20790(12)
C37_3 C 0.94648(16) 0.37094(16) 0.21445(15)
H19_3 H 0.9853 0.4050 0.2050
C38_3 C 0.89161(16) 0.37136(17) 0.20475(14)
H20_3 H 0.8936 0.4063 0.1893
C39_3 C 0.88660(18) 0.26927(18) 0.24925(17)
H21_3 H 0.8844 0.2340 0.2642
C40_3 C 0.83206(17) 0.26960(18) 0.23872(15)
H22_3 H 0.7930 0.2343 0.2461
C41_3 C 0.98214(19) 0.22566(17) 0.20981(15)
H23_3 H 0.9701 0.2388 0.1822
O12_3 O 0.78008(11) 0.37224(12) 0.19001(10)
C42_3 C 0.98169(18) 0.16925(17) 0.20959(14)
H24_3 H 0.9689 0.1440 0.1820
O13_3 O 0.97744(10) 0.05479(10) 0.21433(8)
O20_6 O 1.0000 1.0000 0.43646(19)
O23_3 O 0.88739(16) 0.94383(12) 0.38426(9)
O24_3 O 0.96110(12) 0.88658(11) 0.35667(10)
H40_2 H 0.987629 0.957655 0.448176
O4_4 O -0.0000 0.0000 0.93646(19)
O31_4 O 0.05479(10) 0.07734(14) 0.78567(8)
H37 H 0.0434497 0.0218289 0.948176
O4_5 O -0.0000 1.0000 0.93646(19)
O20_7 O 0.3334 0.6666 0.73020(19)
O21_4 O 0.27689(11) 0.72283(12) 0.78240(9)
O22_4 O 0.44595(16) 0.72311(11) 0.78240(9)
O23_4 O 0.27717(12) 0.55405(16) 0.78240(9)
O24_4 O 0.21992(11) 0.62776(12) 0.80999(10)
O25_4 O 0.40785(16) 0.78008(11) 0.80999(10)
O26_4 O 0.37224(12) 0.59215(16) 0.80999(10)
O29_4 O 0.02256(10) 0.94521(10) 0.78567(8)
O4_6 O 1.0000 0.0000 0.93646(19)
H38 H 0.978171 0.0217208 0.948176
O4_7 O 1.0000 1.0000 0.93646(19)
O30_4 O 0.92266(14) 0.97744(10) 0.78567(8)
H37_2 H 0.978379 0.95655 0.948176
O4_8 O 0.0000 -0.0000 0.56354(19)
O31_5 O 0.07734(14) 0.05479(10) 0.71433(8)
H37_3 H 0.0218289 0.0434497 0.551824
O4_9 O 0.0000 1.0000 0.56354(19)
H38_2 H 0.0217208 0.978171 0.551824
O4_10 O 1.0000 -0.0000 0.56354(19)
O20_8 O 0.6666 0.3334 0.76980(19)
O21_5 O 0.72283(12) 0.27689(11) 0.71760(9)
O22_5 O 0.72311(11) 0.44595(16) 0.71760(9)
O23_5 O 0.55405(16) 0.27717(12) 0.71760(9)
O24_5 O 0.62776(12) 0.21992(11) 0.69001(10)
O25_5 O 0.78008(11) 0.40785(16) 0.69001(10)
O26_5 O 0.59215(16) 0.37224(12) 0.69001(10)
O29_5 O 0.94521(10) 0.02256(10) 0.71433(8)
O4_11 O 1.0000 1.0000 0.56354(19)
O30_5 O 0.97744(10) 0.92266(14) 0.71433(8)
H37_4 H 0.95655 0.978379 0.551824
O20_9 O 0.0000 -0.0000 0.06354(19)
O22_6 O 0.11261(16) 0.05645(11) 0.11574(9)
O25_6 O 0.07451(16) 0.11342(11) 0.14333(10)
H39_2 H 0.0299742 0.0422454 0.051824
O20_10 O 0.0000 1.0000 0.06354(19)
O26_6 O 0.03890(12) 0.92549(16) 0.14333(10)
H40_3 H 0.0123712 0.970026 0.051824
O4_12 O 0.6666 0.3334 0.26980(19)
O20_11 O 1.0000 -0.0000 0.06354(19)
O21_6 O 0.94355(11) 0.05617(12) 0.11574(9)
O29_6 O 0.68922(10) 0.27855(10) 0.11901(8)
O30_6 O 0.58932(14) 0.31078(10) 0.11901(8)
O31_6 O 0.72145(10) 0.41068(14) 0.11901(8)
O20_12 O 1.0000 1.0000 0.06354(19)
O23_6 O 0.94383(12) 0.88739(16) 0.11574(9)
O24_6 O 0.88658(11) 0.96110(12) 0.14333(10)
H40_4 H 0.957655 0.987629 0.051824
N2_5 N 0.6667 0.01282(16) 0.0833
C28_5 C 0.6667 0.07050(19) 0.0833
C30_4 C 0.64881(19) 0.08982(25) 0.04314(15)
H17_4 H 0.6368 0.0647 0.0155
C31_5 C 0.6667 0.18352(18) 0.0833
C32_4 C 0.64836(18) 0.14578(25) 0.04292(14)
H18_4 H 0.6356 0.1583 0.0153
C33_5 C 0.6667 0.24382(16) 0.0833
C34_4 C 0.83258(16) 0.01182(16) 0.11595(13)
C35_4 C 0.72223(17) 0.01319(16) 0.09513(15)
C36_4 C 0.89064(16) 0.00964(17) 0.12544(12)
C39_4 C 0.78006(18) 0.06407(18) 0.08409(17)
H21_4 H 0.7822 0.0994 0.0692
C40_4 C 0.83460(17) 0.06374(18) 0.09462(15)
H22_4 H 0.8736 0.0991 0.0873
C41_4 C 0.68452(19) 0.10768(17) 0.12353(15)
H23_4 H 0.6965 0.0946 0.1512
C42_4 C 0.68497(18) 0.16409(17) 0.12375(14)
H24_4 H 0.6977 0.1894 0.1514
C1_4 C 0.34515(16) 0.49925(16) 0.05072(13)
C2_4 C 0.34652(16) 0.38890(17) 0.07154(15)
C3_4 C 0.34297(17) 0.55731(16) 0.04123(12)
N1_5 N 0.34612(16) 0.3333 0.0833
C4_4 C 0.29573(16) 0.38685(16) 0.04778(15)
H1_4 H 0.2617 0.3480 0.0383
C5_4 C 0.29531(17) 0.44172(16) 0.03808(14)
H2_4 H 0.2604 0.4397 0.0226
C6_4 C 0.39740(18) 0.44673(18) 0.08258(17)
H3_4 H 0.4327 0.4489 0.0975
C7_5 C 0.40380(19) 0.3333 0.0833
C8_4 C 0.39707(18) 0.50127(17) 0.07205(15)
H4_4 H 0.4324 0.5403 0.0794
C9_4 C 0.44101(17) 0.35119(19) 0.04314(15)
H5_4 H 0.4279 0.3632 0.0155
C10_5 C 0.51682(18) 0.3333 0.0833
C11_4 C 0.49742(17) 0.35164(18) 0.04292(14)
H6_4 H 0.5227 0.3644 0.0153
C12_5 C 0.57712(16) 0.3333 0.0833
C13_4 C 0.17923(23) 0.16742(16) 0.11595(13)
C14_4 C 0.29095(23) 0.27777(17) 0.09513(15)
C15_4 C 0.11899(23) 0.10936(16) 0.12544(12)
C16_4 C 0.24221(23) 0.27982(16) 0.11889(15)
H7_4 H 0.2470 0.3187 0.1284
C17_4 C 0.18692(23) 0.22495(16) 0.12859(14)
H8_4 H 0.1540 0.2270 0.1441
C18_4 C 0.28400(25) 0.21994(18) 0.08409(17)
H9_4 H 0.3171 0.2178 0.0692
C19_4 C 0.22913(25) 0.16540(17) 0.09462(15)
H10_4 H 0.2254 0.1264 0.0873
C20_4 C 0.42315(25) 0.31548(19) 0.12353(15)
H11_4 H 0.3980 0.3035 0.1512
C21_4 C 0.47911(25) 0.31503(18) 0.12375(14)
H12_4 H 0.4916 0.3023 0.1514
C22_4 C 0.50075(16) 0.84590(23) 0.05072(13)
C23_4 C 0.61110(17) 0.95762(23) 0.07154(15)
C24_4 C 0.44269(16) 0.78566(23) 0.04123(12)
C25_4 C 0.61315(16) 0.90888(23) 0.04778(15)
H13_4 H 0.6520 0.9137 0.0383
C26_4 C 0.55828(16) 0.85359(23) 0.03808(14)
H14_4 H 0.5603 0.8207 0.0226
C27_4 C 0.55327(18) 0.95067(25) 0.08258(17)
H15_4 H 0.5511 0.9838 0.0975
C29_4 C 0.49873(17) 0.89580(25) 0.07205(15)
H16_4 H 0.4597 0.8921 0.0794
C37_4 C 0.72018(16) 0.96240(16) 0.11889(15)
H19_4 H 0.6813 0.9284 0.1284
C38_4 C 0.77505(16) 0.96198(17) 0.12859(14)
H20_4 H 0.7730 0.9271 0.1441
C43_4 C 0.15410(23) 0.65485(16) 0.05072(13)
C44_4 C 0.04238(23) 0.65348(16) 0.07154(15)
C45_4 C 0.21434(23) 0.65703(17) 0.04123(12)
C46_4 C 0.09112(23) 0.70427(16) 0.04778(15)
H25_4 H 0.0863 0.7383 0.0383
C47_4 C 0.14641(23) 0.70469(17) 0.03808(14)
H26_4 H 0.1793 0.7396 0.0226
C48_4 C 0.04933(25) 0.60260(18) 0.08258(17)
H27_4 H 0.0162 0.5673 0.0975
C50_4 C 0.10420(25) 0.60293(18) 0.07205(15)
H28_4 H 0.1079 0.5676 0.0794
C58_4 C 0.03760(16) 0.75779(23) 0.11889(15)
H31_4 H 0.0716 0.7530 0.1284
C59_4 C 0.03802(17) 0.81308(23) 0.12859(14)
H32_4 H 0.0729 0.8460 0.1441
N3_4 N 0.98718(16) 0.65388(16) 0.0833
C49_4 C 0.92950(19) 0.59620(19) 0.0833
C51_4 C 0.91018(25) 0.55899(17) 0.04314(15)
H29_4 H 0.9353 0.5721 0.0155
C52_4 C 0.81648(18) 0.48318(18) 0.0833
C53_4 C 0.85422(25) 0.50258(17) 0.04292(14)
H30_4 H 0.8417 0.4773 0.0153
C54_4 C 0.75618(16) 0.42288(16) 0.0833
C55_4 C 0.98818(16) 0.82077(23) 0.11595(13)
C56_4 C 0.98681(16) 0.70905(23) 0.09513(15)
C57_4 C 0.99036(17) 0.88101(23) 0.12544(12)
C60_4 C 0.93593(18) 0.71600(25) 0.08409(17)
H33_4 H 0.9006 0.6829 0.0692
C61_4 C 0.93626(18) 0.77087(25) 0.09462(15)
H34_4 H 0.9009 0.7746 0.0873
C62_4 C 0.89232(17) 0.57685(25) 0.12353(15)
H35_4 H 0.9054 0.6020 0.1512
C63_4 C 0.83591(17) 0.52089(25) 0.12375(14)
H36_4 H 0.8106 0.5084 0.1514
N2_6 N 0.01282(16) 0.6667 0.4167
C28_6 C 0.07050(19) 0.6667 0.4167
C30_5 C 0.08982(25) 0.64881(19) 0.45686(15)
H17_5 H 0.0647 0.6368 0.4845
C31_6 C 0.18352(18) 0.6667 0.4167
C32_5 C 0.14578(25) 0.64836(18) 0.45708(14)
H18_5 H 0.1583 0.6356 0.4847
C33_6 C 0.24382(16) 0.6667 0.4167
C34_5 C 0.01182(16) 0.83258(16) 0.38405(13)
C35_5 C 0.01319(16) 0.72223(17) 0.40487(15)
C36_5 C 0.00964(17) 0.89064(16) 0.37456(12)
C39_5 C 0.06407(18) 0.78006(18) 0.41591(17)
H21_5 H 0.0994 0.7822 0.4308
C40_5 C 0.06374(18) 0.83460(17) 0.40538(15)
H22_5 H 0.0991 0.8736 0.4127
C41_5 C 0.10768(17) 0.68452(19) 0.37647(15)
H23_5 H 0.0946 0.6965 0.3488
C42_5 C 0.16409(17) 0.68497(18) 0.37625(14)
H24_5 H 0.1894 0.6977 0.3486
C1_5 C 0.49925(16) 0.34515(16) 0.44928(13)
C2_5 C 0.38890(17) 0.34652(16) 0.42846(15)
C3_5 C 0.55731(16) 0.34297(17) 0.45877(12)
N1_6 N 0.3333 0.34612(16) 0.4167
C4_5 C 0.38685(16) 0.29573(16) 0.45222(15)
H1_5 H 0.3480 0.2617 0.4617
C5_5 C 0.44172(16) 0.29531(17) 0.46192(14)
H2_5 H 0.4397 0.2604 0.4774
C6_5 C 0.44673(18) 0.39740(18) 0.41742(17)
H3_5 H 0.4489 0.4327 0.4025
C7_6 C 0.3333 0.40380(19) 0.4167
C8_5 C 0.50127(17) 0.39707(18) 0.42795(15)
H4_5 H 0.5403 0.4324 0.4206
C9_5 C 0.35119(19) 0.44101(17) 0.45686(15)
H5_5 H 0.3632 0.4279 0.4845
C10_6 C 0.3333 0.51682(18) 0.4167
C11_5 C 0.35164(18) 0.49742(17) 0.45708(14)
H6_5 H 0.3644 0.5227 0.4847
C12_6 C 0.3333 0.57712(16) 0.4167
C13_5 C 0.16742(16) 0.17923(23) 0.38405(13)
C14_5 C 0.27777(17) 0.29095(23) 0.40487(15)
C15_5 C 0.10936(16) 0.11899(23) 0.37456(12)
C16_5 C 0.27982(16) 0.24221(23) 0.38111(15)
H7_5 H 0.3187 0.2470 0.3716
C17_5 C 0.22495(16) 0.18692(23) 0.37141(14)
H8_5 H 0.2270 0.1540 0.3559
C18_5 C 0.21994(18) 0.28400(25) 0.41591(17)
H9_5 H 0.2178 0.3171 0.4308
C19_5 C 0.16540(17) 0.22913(25) 0.40538(15)
H10_5 H 0.1264 0.2254 0.4127
C20_5 C 0.31548(19) 0.42315(25) 0.37647(15)
H11_5 H 0.3035 0.3980 0.3488
C21_5 C 0.31503(18) 0.47911(25) 0.37625(14)
H12_5 H 0.3023 0.4916 0.3486
C22_5 C 0.84590(23) 0.50075(16) 0.44928(13)
C23_5 C 0.95762(23) 0.61110(17) 0.42846(15)
C24_5 C 0.78566(23) 0.44269(16) 0.45877(12)
C25_5 C 0.90888(23) 0.61315(16) 0.45222(15)
H13_5 H 0.9137 0.6520 0.4617
C26_5 C 0.85359(23) 0.55828(16) 0.46192(14)
H14_5 H 0.8207 0.5603 0.4774
C27_5 C 0.95067(25) 0.55327(18) 0.41742(17)
H15_5 H 0.9838 0.5511 0.4025
C29_5 C 0.89580(25) 0.49873(17) 0.42795(15)
H16_5 H 0.8921 0.4597 0.4206
C37_5 C 0.96240(16) 0.72018(16) 0.38111(15)
H19_5 H 0.9284 0.6813 0.3716
C38_5 C 0.96198(17) 0.77505(16) 0.37141(14)
H20_5 H 0.9271 0.7730 0.3559
C43_5 C 0.65485(16) 0.15410(23) 0.44928(13)
C44_5 C 0.65348(16) 0.04238(23) 0.42846(15)
C45_5 C 0.65703(17) 0.21434(23) 0.45877(12)
C46_5 C 0.70427(16) 0.09112(23) 0.45222(15)
H25_5 H 0.7383 0.0863 0.4617
C47_5 C 0.70469(17) 0.14641(23) 0.46192(14)
H26_5 H 0.7396 0.1793 0.4774
C48_5 C 0.60260(18) 0.04933(25) 0.41742(17)
H27_5 H 0.5673 0.0162 0.4025
C50_5 C 0.60293(18) 0.10420(25) 0.42795(15)
H28_5 H 0.5676 0.1079 0.4206
C58_5 C 0.75779(23) 0.03760(16) 0.38111(15)
H31_5 H 0.7530 0.0716 0.3716
C59_5 C 0.81308(23) 0.03802(17) 0.37141(14)
H32_5 H 0.8460 0.0729 0.3559
N3_5 N 0.65388(16) 0.98718(16) 0.4167
C49_5 C 0.59620(19) 0.92950(19) 0.4167
C51_5 C 0.55899(17) 0.91018(25) 0.45686(15)
H29_5 H 0.5721 0.9353 0.4845
C52_5 C 0.48318(18) 0.81648(18) 0.4167
C53_5 C 0.50258(17) 0.85422(25) 0.45708(14)
H30_5 H 0.4773 0.8417 0.4847
C54_5 C 0.42288(16) 0.75618(16) 0.4167
C55_5 C 0.82077(23) 0.98818(16) 0.38405(13)
C56_5 C 0.70905(23) 0.98681(16) 0.40487(15)
C57_5 C 0.88101(23) 0.99036(17) 0.37456(12)
C60_5 C 0.71600(25) 0.93593(18) 0.41591(17)
H33_5 H 0.6829 0.9006 0.4308
C61_5 C 0.77087(25) 0.93626(18) 0.40538(15)
H34_5 H 0.7746 0.9009 0.4127
C62_5 C 0.57685(25) 0.89232(17) 0.37647(15)
H35_5 H 0.6020 0.9054 0.3488
C63_5 C 0.52089(25) 0.83591(17) 0.37625(14)
H36_5 H 0.5084 0.8106 0.3486
N2_7 N 0.0000 0.67949(16) 0.7500
C28_7 C 0.0000 0.73717(19) 0.7500
C31_7 C 0.0000 0.85019(18) 0.7500
C33_7 C 0.0000 0.91049(16) 0.7500
C34_6 C 0.16592(16) 0.67848(16) 0.78261(13)
C35_6 C 0.05557(17) 0.67985(16) 0.76179(15)
C36_6 C 0.22398(16) 0.67630(17) 0.79210(12)
C37_6 C 0.05352(16) 0.62906(16) 0.78555(15)
H19_6 H 0.0147 0.5950 0.7950
C38_6 C 0.10839(16) 0.62864(17) 0.79525(14)
H20_6 H 0.1064 0.5937 0.8107
C39_6 C 0.11340(18) 0.73073(18) 0.75075(17)
H21_6 H 0.1156 0.7660 0.7358
C40_6 C 0.16794(17) 0.73040(18) 0.76128(15)
H22_6 H 0.2070 0.7657 0.7539
C41_6 C 0.01786(19) 0.77434(17) 0.79019(15)
H23_6 H 0.0299 0.7612 0.8178
C42_6 C 0.01831(18) 0.83075(17) 0.79041(14)
H24_6 H 0.0311 0.8560 0.8180
H40_5 H 0.0299742 0.987629 0.551824
C1_6 C 0.67848(16) 0.16592(16) 0.71739(13)
C2_6 C 0.67985(16) 0.05557(17) 0.73821(15)
C3_6 C 0.67630(17) 0.22398(16) 0.70790(12)
N1_7 N 0.67945(16) -0.0000 0.7500
C4_6 C 0.62906(16) 0.05352(16) 0.71445(15)
H1_6 H 0.5950 0.0147 0.7050
C5_6 C 0.62864(17) 0.10839(16) 0.70475(14)
H2_6 H 0.5937 0.1064 0.6893
C6_6 C 0.73073(18) 0.11340(18) 0.74925(17)
H3_6 H 0.7660 0.1156 0.7642
C7_7 C 0.73713(19) -0.0000 0.7500
C8_6 C 0.73040(18) 0.16794(17) 0.73872(15)
H4_6 H 0.7657 0.2070 0.7461
C9_6 C 0.77434(17) 0.01786(19) 0.70981(15)
H5_6 H 0.7612 0.0299 0.6822
C10_7 C 0.85015(18) -0.0000 0.7500
C11_6 C 0.83075(17) 0.01831(18) 0.70959(14)
H6_6 H 0.8560 0.0311 0.6820
C12_7 C 0.91045(16) -0.0000 0.7500
C22_6 C 0.83408(16) 0.51257(23) 0.71739(13)
C23_6 C 0.94443(17) 0.62429(23) 0.73821(15)
C24_6 C 0.77602(16) 0.45233(23) 0.70790(12)
N2_8 N 1.0000 0.67949(16) 0.7500
C25_6 C 0.94648(16) 0.57555(23) 0.71445(15)
H13_6 H 0.9853 0.5804 0.7050
C26_6 C 0.89161(16) 0.52026(23) 0.70475(14)
H14_6 H 0.8936 0.4874 0.6893
C27_6 C 0.88660(18) 0.61734(25) 0.74925(17)
H15_6 H 0.8844 0.6505 0.7642
C28_8 C 1.0000 0.73717(19) 0.7500
C29_6 C 0.83206(17) 0.56247(25) 0.73872(15)
H16_6 H 0.7930 0.5588 0.7461
C30_6 C 0.98214(19) 0.75649(25) 0.70981(15)
H17_6 H 0.9701 0.7314 0.6822
C31_8 C 1.0000 0.85019(18) 0.7500
C32_6 C 0.98169(18) 0.81245(25) 0.70959(14)
H18_6 H 0.9689 0.8250 0.6820
C33_8 C 1.0000 0.91049(16) 0.7500
C43_6 C 0.48743(23) 0.32152(16) 0.71739(13)
C44_6 C 0.37571(23) 0.32015(16) 0.73821(15)
C45_6 C 0.54767(23) 0.32370(17) 0.70790(12)
N3_6 N 0.32051(16) 0.32055(16) 0.7500
C46_6 C 0.42445(23) 0.37094(16) 0.71445(15)
H25_6 H 0.4196 0.4050 0.7050
C47_6 C 0.47974(23) 0.37136(17) 0.70475(14)
H26_6 H 0.5126 0.4063 0.6893
C48_6 C 0.38266(25) 0.26927(18) 0.74925(17)
H27_6 H 0.3495 0.2340 0.7642
C49_6 C 0.26283(19) 0.26287(19) 0.7500
C50_6 C 0.43753(25) 0.26960(18) 0.73872(15)
H28_6 H 0.4412 0.2343 0.7461
C51_6 C 0.24351(25) 0.22566(17) 0.70981(15)
H29_6 H 0.2686 0.2388 0.6822
C52_6 C 0.14981(18) 0.14985(18) 0.7500
C53_6 C 0.18755(25) 0.16925(17) 0.70959(14)
H30_6 H 0.1750 0.1440 0.6820
C54_6 C 0.08951(16) 0.08955(16) 0.7500
C55_6 C 0.32152(16) 0.48743(23) 0.78261(13)
C56_6 C 0.32015(16) 0.37571(23) 0.76179(15)
C57_6 C 0.32370(17) 0.54767(23) 0.79210(12)
C58_6 C 0.37094(16) 0.42445(23) 0.78555(15)
H31_6 H 0.4050 0.4196 0.7950
C59_6 C 0.37136(17) 0.47974(23) 0.79525(14)
H32_6 H 0.4063 0.5126 0.8107
C60_6 C 0.26927(18) 0.38266(25) 0.75075(17)
H33_6 H 0.2340 0.3495 0.7358
C61_6 C 0.26960(18) 0.43753(25) 0.76128(15)
H34_6 H 0.2343 0.4412 0.7539
C62_6 C 0.22566(17) 0.24351(25) 0.79019(15)
H35_6 H 0.2388 0.2686 0.8178
C63_6 C 0.16925(17) 0.18755(25) 0.79041(14)
H36_6 H 0.1440 0.1750 0.8180
N1_8 N 0.67945(16) 1.0000 0.7500
C7_8 C 0.73713(19) 1.0000 0.7500
C10_8 C 0.85015(18) 1.0000 0.7500
C12_8 C 0.91045(16) 1.0000 0.7500
C13_6 C 0.51257(23) 0.83408(16) 0.78261(13)
C14_6 C 0.62429(23) 0.94443(17) 0.76179(15)
C15_6 C 0.45233(23) 0.77602(16) 0.79210(12)
C16_6 C 0.57555(23) 0.94648(16) 0.78555(15)
H7_6 H 0.5804 0.9853 0.7950
C17_6 C 0.52026(23) 0.89161(16) 0.79525(14)
H8_6 H 0.4874 0.8936 0.8107
C18_6 C 0.61734(25) 0.88660(18) 0.75075(17)
H9_6 H 0.6505 0.8844 0.7358
C19_6 C 0.56247(25) 0.83206(17) 0.76128(15)
H10_6 H 0.5588 0.7930 0.7539
C20_6 C 0.75649(25) 0.98214(19) 0.79019(15)
H11_6 H 0.7314 0.9701 0.8178
C21_6 C 0.81245(25) 0.98169(18) 0.79041(14)
H12_6 H 0.8250 0.9689 0.8180
H39_3 H 0.957755 0.970026 0.551824
H40_6 H 0.0123712 0.0423454 0.551824
H38_3 H 0.0218289 0.978279 0.051824
H37_5 H 0.95655 0.978171 0.051824
H37_6 H 0.0216208 0.0434497 0.051824
H38_4 H 0.978279 0.0218289 0.448176
H37_7 H 0.978171 0.95655 0.448176
H37_8 H 0.0434497 0.0216208 0.448176
H40_7 H 0.987629 0.0299742 0.948176
H39_4 H 0.970026 0.957755 0.948176
H40_8 H 0.0423454 0.0123712 0.948176
loop_
_geom_bond_atom_site_label_1
_geom_bond_atom_site_label_2
_geom_bond_site_symmetry_1
_geom_bond_site_symmetry_2
N3 C49 1_555 1_555
C49 C51 1_555 1_555
C51 H29 1_555 1_555
C52 C53 1_555 1_555
C53 C51 1_555 1_555
H30 C53 1_555 1_555
C54 C52 1_555 1_555
O16 C54 1_555 1_555
O17 C57 1_555 1_555
C55 C57 1_555 1_555
C56 N3 1_555 1_555
C60 C56 1_555 1_555
H33 C60 1_555 1_555
C61 C55 1_555 1_555
H34 C61 1_555 1_555
C62 C49 1_555 1_555
H35 C62 1_555 1_555
C63 C52 1_555 1_555
H36 C63 1_555 1_555
O19 C54 1_555 1_555
Th5 O17 1_555 1_555
Th10 O19 1_555 1_555
C60 C61 1_555 1_555
C62 C63 1_555 1_555
O20 Th7 1_555 1_555
O21 Th7 1_555 1_555
O22 Th7 1_555 1_555
O23 Th7 1_555 1_555
O24 Th7 1_555 1_555
O25 Th7 1_555 1_555
O26 Th7 1_555 1_555
Th1 O1 1_555 1_555
O1 C3 1_555 1_555
C1 C3 1_555 1_555
C2 N1 1_555 1_555
C3 O2 1_555 1_555
N1 C7 1_555 1_555
C4 C2 1_555 1_555
H1 C4 1_555 1_555
C5 C1 1_555 1_555
H2 C5 1_555 1_555
C6 C2 1_555 1_555
H3 C6 1_555 1_555
C7 C9 1_555 1_555
C8 C1 1_555 1_555
H4 C8 1_555 1_555
C9 H5 1_555 1_555
O2 Th1 1_555 1_555
C10 C11 1_555 1_555
C11 C9 1_555 1_555
H6 C11 1_555 1_555
C12 C10 1_555 1_555
O3 C12 1_555 1_555
O4 Th1 1_555 1_555
O5 C15 1_555 1_555
C13 C15 1_555 1_555
C14 N1 1_555 1_555
C15 O6 1_555 1_555
C16 C14 1_555 1_555
H7 C16 1_555 1_555
C17 C13 1_555 1_555
H8 C17 1_555 1_555
C18 C14 1_555 1_555
H9 C18 1_555 1_555
C19 C13 1_555 1_555
H10 C19 1_555 1_555
C20 C7 1_555 1_555
H11 C20 1_555 1_555
O6 Th5_4 1_555 1_555
C21 C10 1_555 1_555
H12 C21 1_555 1_555
O7 C12 1_555 1_555
O8 Th1 1_555 1_555
C22 C24 1_555 1_555
C24 O8 1_555 1_555
C25 C23 1_555 1_555
H13 C25 1_555 1_555
C26 C22 1_555 1_555
H14 C26 1_555 1_555
C27 C23 1_555 1_555
H15 C27 1_555 1_555
C29 C22 1_555 1_555
H16 C29 1_555 1_555
O9 Th1 1_555 1_555
H19 C37 1_555 1_555
H20 C38 1_555 1_555
O12 Th5 1_555 1_555
O14 Th1 1_555 1_555
C43 C45 1_555 1_555
C45 O14 1_555 1_555
C46 C44 1_555 1_555
H25 C46 1_555 1_555
C47 C43 1_555 1_555
H26 C47 1_555 1_555
C48 C44 1_555 1_555
H27 C48 1_555 1_555
C50 C43 1_555 1_555
H28 C50 1_555 1_555
O15 Th1 1_555 1_555
H31 C58 1_555 1_555
H32 C59 1_555 1_555
O18 Th5_3 1_555 1_555
Th5_4 O5 1_555 1_555
Th10 O7 1_555 1_555
C4 C5 1_555 1_555
C6 C8 1_555 1_555
C16 C17 1_555 1_555
C18 C19 1_555 1_555
C20 C21 1_555 1_555
C24 O9 1_555 1_555
C25 C26 1_555 1_555
C27 C29 1_555 1_555
C37 C38 1_555 1_555
C45 O15 1_555 1_555
C46 C47 1_555 1_555
C48 C50 1_555 1_555
C58 C59 1_555 1_555
N2 C28 1_555 1_555
C28 C30 1_555 1_555
C30 H17 1_555 1_555
C31 C32 1_555 1_555
C32 C30 1_555 1_555
H18 C32 1_555 1_555
C33 C31 1_555 1_555
O27 C33 1_555 1_555
O11 C36 1_555 1_555
C34 C36 1_555 1_555
C35 N2 1_555 1_555
C39 C35 1_555 1_555
H21 C39 1_555 1_555
C40 C34 1_555 1_555
H22 C40 1_555 1_555
C41 C28 1_555 1_555
H23 C41 1_555 1_555
C42 C31 1_555 1_555
H24 C42 1_555 1_555
O13 C33 1_555 1_555
Th5_2 O11 1_555 1_555
Th10 O13 1_555 1_555
C39 C40 1_555 1_555
C41 C42 1_555 1_555
N3_2 C49_2 1_555 1_555
C49_2 C51_2 1_555 1_555
C51_2 H29_2 1_555 1_555
C52_2 C53_2 1_555 1_555
C53_2 C51_2 1_555 1_555
H30_2 C53_2 1_555 1_555
C54_2 C52_2 1_555 1_555
O16_2 C54_2 1_555 1_555
O17_2 C57_2 1_555 1_555
C55_2 C57_2 1_555 1_555
C56_2 N3_2 1_555 1_555
C60_2 C56_2 1_555 1_555
H33_2 C60_2 1_555 1_555
C61_2 C55_2 1_555 1_555
H34_2 C61_2 1_555 1_555
C62_2 C49_2 1_555 1_555
H35_2 C62_2 1_555 1_555
C63_2 C52_2 1_555 1_555
H36_2 C63_2 1_555 1_555
O19_2 C54_2 1_555 1_555
Th5_5 O17_2 1_555 1_555
Th7_2 O16_2 1_555 1_555
Th10_2 O19_2 1_555 1_555
C60_2 C61_2 1_555 1_555
C62_2 C63_2 1_555 1_555
Th1_2 O1_2 1_555 1_555
O1_2 C3_2 1_555 1_555
C1_2 C3_2 1_555 1_555
C2_2 N1_2 1_555 1_555
C3_2 O2_2 1_555 1_555
N1_2 C7_2 1_555 1_555
C4_2 C2_2 1_555 1_555
H1_2 C4_2 1_555 1_555
C5_2 C1_2 1_555 1_555
H2_2 C5_2 1_555 1_555
C6_2 C2_2 1_555 1_555
H3_2 C6_2 1_555 1_555
C7_2 C9_2 1_555 1_555
C8_2 C1_2 1_555 1_555
H4_2 C8_2 1_555 1_555
C9_2 H5_2 1_555 1_555
O2_2 Th1_2 1_555 1_555
C10_2 C11_2 1_555 1_555
C11_2 C9_2 1_555 1_555
H6_2 C11_2 1_555 1_555
C12_2 C10_2 1_555 1_555
O3_2 C12_2 1_555 1_555
O4_2 Th1_2 1_555 1_555
O5_2 C15_2 1_555 1_555
C13_2 C15_2 1_555 1_555
C14_2 N1_2 1_555 1_555
C15_2 O6_2 1_555 1_555
C16_2 C14_2 1_555 1_555
H7_2 C16_2 1_555 1_555
C17_2 C13_2 1_555 1_555
H8_2 C17_2 1_555 1_555
C18_2 C14_2 1_555 1_555
H9_2 C18_2 1_555 1_555
C19_2 C13_2 1_555 1_555
H10_2 C19_2 1_555 1_555
C20_2 C7_2 1_555 1_555
H11_2 C20_2 1_555 1_555
O6_2 Th5_8 1_555 1_555
C21_2 C10_2 1_555 1_555
H12_2 C21_2 1_555 1_555
O7_2 C12_2 1_555 1_555
O8_2 Th1_2 1_555 1_555
C22_2 C24_2 1_555 1_555
C24_2 O8_2 1_555 1_555
C25_2 C23_2 1_555 1_555
H13_2 C25_2 1_555 1_555
C26_2 C22_2 1_555 1_555
H14_2 C26_2 1_555 1_555
C27_2 C23_2 1_555 1_555
H15_2 C27_2 1_555 1_555
C29_2 C22_2 1_555 1_555
H16_2 C29_2 1_555 1_555
O9_2 Th1_2 1_555 1_555
H19_2 C37_2 1_555 1_555
H20_2 C38_2 1_555 1_555
O12_2 Th5_5 1_555 1_555
O14_2 Th1_2 1_555 1_555
C43_2 C45_2 1_555 1_555
C45_2 O14_2 1_555 1_555
C46_2 C44_2 1_555 1_555
H25_2 C46_2 1_555 1_555
C47_2 C43_2 1_555 1_555
H26_2 C47_2 1_555 1_555
C48_2 C44_2 1_555 1_555
H27_2 C48_2 1_555 1_555
C50_2 C43_2 1_555 1_555
H28_2 C50_2 1_555 1_555
O15_2 Th1_2 1_555 1_555
H31_2 C58_2 1_555 1_555
H32_2 C59_2 1_555 1_555
O18_2 Th5_6 1_555 1_555
Th7_2 O3_2 1_555 1_555
O20_2 Th7_2 1_555 1_555
Th5_8 O5_2 1_555 1_555
Th10_2 O7_2 1_555 1_555
O21_2 Th7_2 1_555 1_555
O22_2 Th7_2 1_555 1_555
O23_2 Th7_2 1_555 1_555
O24_2 Th7_2 1_555 1_555
O25_2 Th7_2 1_555 1_555
O26_2 Th7_2 1_555 1_555
O27_2 Th7_2 1_555 1_555
O29_2 Th1_2 1_555 1_555
O30_2 Th1_2 1_555 1_555
O31_2 Th1_2 1_555 1_555
C4_2 C5_2 1_555 1_555
C6_2 C8_2 1_555 1_555
C16_2 C17_2 1_555 1_555
C18_2 C19_2 1_555 1_555
C20_2 C21_2 1_555 1_555
C24_2 O9_2 1_555 1_555
C25_2 C26_2 1_555 1_555
C27_2 C29_2 1_555 1_555
C37_2 C38_2 1_555 1_555
C45_2 O15_2 1_555 1_555
C46_2 C47_2 1_555 1_555
C48_2 C50_2 1_555 1_555
C58_2 C59_2 1_555 1_555
N2_2 C28_2 1_555 1_555
C28_2 C30_2 1_555 1_555
C30_2 H17_2 1_555 1_555
C31_2 C32_2 1_555 1_555
C32_2 C30_2 1_555 1_555
H18_2 C32_2 1_555 1_555
C33_2 C31_2 1_555 1_555
O27_2 C33_2 1_555 1_555
O11_2 C36_2 1_555 1_555
C34_2 C36_2 1_555 1_555
C35_2 N2_2 1_555 1_555
C39_2 C35_2 1_555 1_555
H21_2 C39_2 1_555 1_555
C40_2 C34_2 1_555 1_555
H22_2 C40_2 1_555 1_555
C41_2 C28_2 1_555 1_555
H23_2 C41_2 1_555 1_555
C42_2 C31_2 1_555 1_555
H24_2 C42_2 1_555 1_555
O13_2 C33_2 1_555 1_555
Th5_7 O11_2 1_555 1_555
Th10_2 O13_2 1_555 1_555
C39_2 C40_2 1_555 1_555
C41_2 C42_2 1_555 1_555
N1_3 C7_3 1_555 1_555
C12_3 C10_3 1_555 1_555
O5_3 C15_3 1_555 1_555
C13_3 C15_3 1_555 1_555
C14_3 N1_3 1_555 1_555
C15_3 O6_3 1_555 1_555
C16_3 C14_3 1_555 1_555
H7_3 C16_3 1_555 1_555
C17_3 C13_3 1_555 1_555
H8_3 C17_3 1_555 1_555
C18_3 C14_3 1_555 1_555
H9_3 C18_3 1_555 1_555
C19_3 C13_3 1_555 1_555
H10_3 C19_3 1_555 1_555
C20_3 C7_3 1_555 1_555
H11_3 C20_3 1_555 1_555
O6_3 Th5_9 1_555 1_555
C21_3 C10_3 1_555 1_555
H12_3 C21_3 1_555 1_555
O7_3 C12_3 1_555 1_555
O20_3 Th7_3 1_555 1_555
Th5_9 O5_3 1_555 1_555
Th10_3 O7_3 1_555 1_555
O22_3 Th7_3 1_555 1_555
O25_3 Th7_3 1_555 1_555
O27_3 Th7_3 1_555 1_555
C16_3 C17_3 1_555 1_555
C18_3 C19_3 1_555 1_555
C20_3 C21_3 1_555 1_555
O20_3 H39 1_555 1_555
Th1_3 O1_3 1_555 1_555
O1_3 C3_3 1_555 1_555
C1_3 C3_3 1_555 1_555
C2_3 N1_4 1_555 1_555
C3_3 O2_3 1_555 1_555
N1_4 C7_4 1_555 1_555
C4_3 C2_3 1_555 1_555
H1_3 C4_3 1_555 1_555
C5_3 C1_3 1_555 1_555
H2_3 C5_3 1_555 1_555
C6_3 C2_3 1_555 1_555
H3_3 C6_3 1_555 1_555
C7_4 C9_3 1_555 1_555
C8_3 C1_3 1_555 1_555
H4_3 C8_3 1_555 1_555
C9_3 H5_3 1_555 1_555
O2_3 Th1_3 1_555 1_555
C10_4 C11_3 1_555 1_555
C11_3 C9_3 1_555 1_555
H6_3 C11_3 1_555 1_555
C12_4 C10_4 1_555 1_555
O3_3 C12_4 1_555 1_555
O4_3 Th1_3 1_555 1_555
O8_3 Th1_3 1_555 1_555
C22_3 C24_3 1_555 1_555
C23_3 N2_3 1_555 1_555
C24_3 O8_3 1_555 1_555
N2_3 C28_3 1_555 1_555
C25_3 C23_3 1_555 1_555
H13_3 C25_3 1_555 1_555
C26_3 C22_3 1_555 1_555
H14_3 C26_3 1_555 1_555
C27_3 C23_3 1_555 1_555
H15_3 C27_3 1_555 1_555
C28_3 C30_3 1_555 1_555
C29_3 C22_3 1_555 1_555
H16_3 C29_3 1_555 1_555
C30_3 H17_3 1_555 1_555
O9_3 Th1_3 1_555 1_555
C31_3 C32_3 1_555 1_555
C32_3 C30_3 1_555 1_555
H18_3 C32_3 1_555 1_555
C33_3 C31_3 1_555 1_555
O27_3 C33_3 1_555 1_555
O14_3 Th1_3 1_555 1_555
C43_3 C45_3 1_555 1_555
C44_3 N3_3 1_555 1_555
C45_3 O14_3 1_555 1_555
N3_3 C49_3 1_555 1_555
C46_3 C44_3 1_555 1_555
H25_3 C46_3 1_555 1_555
C47_3 C43_3 1_555 1_555
H26_3 C47_3 1_555 1_555
C48_3 C44_3 1_555 1_555
H27_3 C48_3 1_555 1_555
C49_3 C51_3 1_555 1_555
C50_3 C43_3 1_555 1_555
H28_3 C50_3 1_555 1_555
C51_3 H29_3 1_555 1_555
O15_3 Th1_3 1_555 1_555
C52_3 C53_3 1_555 1_555
C53_3 C51_3 1_555 1_555
H30_3 C53_3 1_555 1_555
C54_3 C52_3 1_555 1_555
O16_3 C54_3 1_555 1_555
O17_3 C57_3 1_555 1_555
C55_3 C57_3 1_555 1_555
C56_3 N3_3 1_555 1_555
C57_3 O18_3 1_555 1_555
C58_3 C56_3 1_555 1_555
H31_3 C58_3 1_555 1_555
C59_3 C55_3 1_555 1_555
H32_3 C59_3 1_555 1_555
C60_3 C56_3 1_555 1_555
H33_3 C60_3 1_555 1_555
C61_3 C55_3 1_555 1_555
H34_3 C61_3 1_555 1_555
C62_3 C49_3 1_555 1_555
H35_3 C62_3 1_555 1_555
O18_3 Th5_9 1_555 1_555
C63_3 C52_3 1_555 1_555
H36_3 C63_3 1_555 1_555
O19_3 C54_3 1_555 1_555
Th7_4 O3_3 1_555 1_555
O20_4 Th7_4 1_555 1_555
Th5_9 O17_3 1_555 1_555
Th7_6 O16_3 1_555 1_555
Th10_6 O19_3 1_555 1_555
O21_3 Th7_4 1_555 1_555
O29_3 Th1_3 1_555 1_555
O30_3 Th1_3 1_555 1_555
O31_3 Th1_3 1_555 1_555
C4_3 C5_3 1_555 1_555
C6_3 C8_3 1_555 1_555
C24_3 O9_3 1_555 1_555
C25_3 C26_3 1_555 1_555
C27_3 C29_3 1_555 1_555
C45_3 O15_3 1_555 1_555
C46_3 C47_3 1_555 1_555
C48_3 C50_3 1_555 1_555
C58_3 C59_3 1_555 1_555
C60_3 C61_3 1_555 1_555
C62_3 C63_3 1_555 1_555
O20_5 Th7_5 1_555 1_555
O26_3 Th7_5 1_555 1_555
O20_5 H40 1_555 1_555
N2_4 C28_4 1_555 1_555
C33_4 C31_4 1_555 1_555
O11_3 C36_3 1_555 1_555
C34_3 C36_3 1_555 1_555
C35_3 N2_4 1_555 1_555
C36_3 O12_3 1_555 1_555
C37_3 C35_3 1_555 1_555
H19_3 C37_3 1_555 1_555
C38_3 C34_3 1_555 1_555
H20_3 C38_3 1_555 1_555
C39_3 C35_3 1_555 1_555
H21_3 C39_3 1_555 1_555
C40_3 C34_3 1_555 1_555
H22_3 C40_3 1_555 1_555
C41_3 C28_4 1_555 1_555
H23_3 C41_3 1_555 1_555
O12_3 Th5_9 1_555 1_555
C42_3 C31_4 1_555 1_555
H24_3 C42_3 1_555 1_555
O13_3 C33_4 1_555 1_555
O20_6 Th7_6 1_555 1_555
Th5_9 O11_3 1_555 1_555
Th10_5 O13_3 1_555 1_555
O23_3 Th7_6 1_555 1_555
O24_3 Th7_6 1_555 1_555
C37_3 C38_3 1_555 1_555
C39_3 C40_3 1_555 1_555
C41_3 C42_3 1_555 1_555
O20_6 H40_2 1_555 1_555
O4_4 Th5 1_555 1_555
O31_4 Th5 1_555 1_555
O4_4 H37 1_555 1_555
O4_5 Th5_2 1_555 1_555
O20_7 Th10 1_555 1_555
O21_4 Th10 1_555 1_555
O22_4 Th10 1_555 1_555
O23_4 Th10 1_555 1_555
O24_4 Th10 1_555 1_555
O25_4 Th10 1_555 1_555
O26_4 Th10 1_555 1_555
O29_4 Th5_2 1_555 1_555
O4_6 Th5_3 1_555 1_555
O4_6 H38 1_555 1_555
O4_7 Th5_4 1_555 1_555
O30_4 Th5_4 1_555 1_555
O4_7 H37_2 1_555 1_555
O4_8 Th5_5 1_555 1_555
O31_5 Th5_5 1_555 1_555
O4_8 H37_3 1_555 1_555
O4_9 Th5_6 1_555 1_555
O4_9 H38_2 1_555 1_555
O4_10 Th5_7 1_555 1_555
O20_8 Th10_2 1_555 1_555
O21_5 Th10_2 1_555 1_555
O22_5 Th10_2 1_555 1_555
O23_5 Th10_2 1_555 1_555
O24_5 Th10_2 1_555 1_555
O25_5 Th10_2 1_555 1_555
O26_5 Th10_2 1_555 1_555
O29_5 Th5_7 1_555 1_555
O4_11 Th5_8 1_555 1_555
O30_5 Th5_8 1_555 1_555
O4_11 H37_4 1_555 1_555
O20_9 Th10_3 1_555 1_555
O22_6 Th10_3 1_555 1_555
O25_6 Th10_3 1_555 1_555
O20_9 H39_2 1_555 1_555
O20_10 Th10_4 1_555 1_555
O26_6 Th10_4 1_555 1_555
O20_10 H40_3 1_555 1_555
O4_12 Th5_9 1_555 1_555
O20_11 Th10_5 1_555 1_555
O21_6 Th10_5 1_555 1_555
O29_6 Th5_9 1_555 1_555
O30_6 Th5_9 1_555 1_555
O31_6 Th5_9 1_555 1_555
O20_12 Th10_6 1_555 1_555
O23_6 Th10_6 1_555 1_555
O24_6 Th10_6 1_555 1_555
O20_12 H40_4 1_555 1_555
N2_5 C28_5 1_555 1_555
C28_5 C30_4 1_555 1_555
C30_4 H17_4 1_555 1_555
C31_5 C32_4 1_555 1_555
C32_4 C30_4 1_555 1_555
H18_4 C32_4 1_555 1_555
C33_5 C31_5 1_555 1_555
O30 C33_5 1_555 1_555
O21_6 C36_4 1_555 1_555
C34_4 C36_4 1_555 1_555
C35_4 N2_5 1_555 1_555
C39_4 C35_4 1_555 1_555
H21_4 C39_4 1_555 1_555
C40_4 C34_4 1_555 1_555
H22_4 C40_4 1_555 1_555
C41_4 C28_5 1_555 1_555
H23_4 C41_4 1_555 1_555
C42_4 C31_5 1_555 1_555
H24_4 C42_4 1_555 1_555
O29_6 C33_5 1_555 1_555
C39_4 C40_4 1_555 1_555
C41_4 C42_4 1_555 1_555
O21 C3_4 1_555 1_555
C1_4 C3_4 1_555 1_555
C2_4 N1_5 1_555 1_555
C3_4 O24 1_555 1_555
N1_5 C7_5 1_555 1_555
C4_4 C2_4 1_555 1_555
H1_4 C4_4 1_555 1_555
C5_4 C1_4 1_555 1_555
H2_4 C5_4 1_555 1_555
C6_4 C2_4 1_555 1_555
H3_4 C6_4 1_555 1_555
C7_5 C9_4 1_555 1_555
C8_4 C1_4 1_555 1_555
H4_4 C8_4 1_555 1_555
C9_4 H5_4 1_555 1_555
C10_5 C11_4 1_555 1_555
C11_4 C9_4 1_555 1_555
H6_4 C11_4 1_555 1_555
C12_5 C10_5 1_555 1_555
O29 C12_5 1_555 1_555
O22_6 C15_4 1_555 1_555
C13_4 C15_4 1_555 1_555
C14_4 N1_5 1_555 1_555
C15_4 O25_6 1_555 1_555
C16_4 C14_4 1_555 1_555
H7_4 C16_4 1_555 1_555
C17_4 C13_4 1_555 1_555
H8_4 C17_4 1_555 1_555
C18_4 C14_4 1_555 1_555
H9_4 C18_4 1_555 1_555
C19_4 C13_4 1_555 1_555
H10_4 C19_4 1_555 1_555
C20_4 C7_5 1_555 1_555
H11_4 C20_4 1_555 1_555
C21_4 C10_5 1_555 1_555
H12_4 C21_4 1_555 1_555
O30_6 C12_5 1_555 1_555
C22_4 C24_4 1_555 1_555
C24_4 O22 1_555 1_555
C25_4 C23_4 1_555 1_555
H13_4 C25_4 1_555 1_555
C26_4 C22_4 1_555 1_555
H14_4 C26_4 1_555 1_555
C27_4 C23_4 1_555 1_555
H15_4 C27_4 1_555 1_555
C29_4 C22_4 1_555 1_555
H16_4 C29_4 1_555 1_555
H19_4 C37_4 1_555 1_555
H20_4 C38_4 1_555 1_555
C43_4 C45_4 1_555 1_555
C45_4 O23 1_555 1_555
C46_4 C44_4 1_555 1_555
H25_4 C46_4 1_555 1_555
C47_4 C43_4 1_555 1_555
H26_4 C47_4 1_555 1_555
C48_4 C44_4 1_555 1_555
H27_4 C48_4 1_555 1_555
C50_4 C43_4 1_555 1_555
H28_4 C50_4 1_555 1_555
H31_4 C58_4 1_555 1_555
H32_4 C59_4 1_555 1_555
C4_4 C5_4 1_555 1_555
C6_4 C8_4 1_555 1_555
C16_4 C17_4 1_555 1_555
C18_4 C19_4 1_555 1_555
C20_4 C21_4 1_555 1_555
C24_4 O25 1_555 1_555
C25_4 C26_4 1_555 1_555
C27_4 C29_4 1_555 1_555
C37_4 C38_4 1_555 1_555
C45_4 O26 1_555 1_555
C46_4 C47_4 1_555 1_555
C48_4 C50_4 1_555 1_555
C58_4 C59_4 1_555 1_555
N3_4 C49_4 1_555 1_555
C49_4 C51_4 1_555 1_555
C51_4 H29_4 1_555 1_555
C52_4 C53_4 1_555 1_555
C53_4 C51_4 1_555 1_555
H30_4 C53_4 1_555 1_555
C54_4 C52_4 1_555 1_555
O31 C54_4 1_555 1_555
O23_6 C57_4 1_555 1_555
C55_4 C57_4 1_555 1_555
C56_4 N3_4 1_555 1_555
C60_4 C56_4 1_555 1_555
H33_4 C60_4 1_555 1_555
C61_4 C55_4 1_555 1_555
H34_4 C61_4 1_555 1_555
C62_4 C49_4 1_555 1_555
H35_4 C62_4 1_555 1_555
C63_4 C52_4 1_555 1_555
H36_4 C63_4 1_555 1_555
O31_6 C54_4 1_555 1_555
C60_4 C61_4 1_555 1_555
C62_4 C63_4 1_555 1_555
N2_6 C28_6 1_555 1_555
C28_6 C30_5 1_555 1_555
C30_5 H17_5 1_555 1_555
C31_6 C32_5 1_555 1_555
C32_5 C30_5 1_555 1_555
H18_5 C32_5 1_555 1_555
C33_6 C31_6 1_555 1_555
O30_2 C33_6 1_555 1_555
O21_3 C36_5 1_555 1_555
C34_5 C36_5 1_555 1_555
C35_5 N2_6 1_555 1_555
C39_5 C35_5 1_555 1_555
H21_5 C39_5 1_555 1_555
C40_5 C34_5 1_555 1_555
H22_5 C40_5 1_555 1_555
C41_5 C28_6 1_555 1_555
H23_5 C41_5 1_555 1_555
C42_5 C31_6 1_555 1_555
H24_5 C42_5 1_555 1_555
O29_3 C33_6 1_555 1_555
C39_5 C40_5 1_555 1_555
C41_5 C42_5 1_555 1_555
O21_2 C3_5 1_555 1_555
C1_5 C3_5 1_555 1_555
C2_5 N1_6 1_555 1_555
C3_5 O24_2 1_555 1_555
N1_6 C7_6 1_555 1_555
C4_5 C2_5 1_555 1_555
H1_5 C4_5 1_555 1_555
C5_5 C1_5 1_555 1_555
H2_5 C5_5 1_555 1_555
C6_5 C2_5 1_555 1_555
H3_5 C6_5 1_555 1_555
C7_6 C9_5 1_555 1_555
C8_5 C1_5 1_555 1_555
H4_5 C8_5 1_555 1_555
C9_5 H5_5 1_555 1_555
C10_6 C11_5 1_555 1_555
C11_5 C9_5 1_555 1_555
H6_5 C11_5 1_555 1_555
C12_6 C10_6 1_555 1_555
O29_2 C12_6 1_555 1_555
O22_3 C15_5 1_555 1_555
C13_5 C15_5 1_555 1_555
C14_5 N1_6 1_555 1_555
C15_5 O25_3 1_555 1_555
C16_5 C14_5 1_555 1_555
H7_5 C16_5 1_555 1_555
C17_5 C13_5 1_555 1_555
H8_5 C17_5 1_555 1_555
C18_5 C14_5 1_555 1_555
H9_5 C18_5 1_555 1_555
C19_5 C13_5 1_555 1_555
H10_5 C19_5 1_555 1_555
C20_5 C7_6 1_555 1_555
H11_5 C20_5 1_555 1_555
C21_5 C10_6 1_555 1_555
H12_5 C21_5 1_555 1_555
O30_3 C12_6 1_555 1_555
C22_5 C24_5 1_555 1_555
C24_5 O22_2 1_555 1_555
C25_5 C23_5 1_555 1_555
H13_5 C25_5 1_555 1_555
C26_5 C22_5 1_555 1_555
H14_5 C26_5 1_555 1_555
C27_5 C23_5 1_555 1_555
H15_5 C27_5 1_555 1_555
C29_5 C22_5 1_555 1_555
H16_5 C29_5 1_555 1_555
H19_5 C37_5 1_555 1_555
H20_5 C38_5 1_555 1_555
C43_5 C45_5 1_555 1_555
C45_5 O23_2 1_555 1_555
C46_5 C44_5 1_555 1_555
H25_5 C46_5 1_555 1_555
C47_5 C43_5 1_555 1_555
H26_5 C47_5 1_555 1_555
C48_5 C44_5 1_555 1_555
H27_5 C48_5 1_555 1_555
C50_5 C43_5 1_555 1_555
H28_5 C50_5 1_555 1_555
H31_5 C58_5 1_555 1_555
H32_5 C59_5 1_555 1_555
C4_5 C5_5 1_555 1_555
C6_5 C8_5 1_555 1_555
C16_5 C17_5 1_555 1_555
C18_5 C19_5 1_555 1_555
C20_5 C21_5 1_555 1_555
C24_5 O25_2 1_555 1_555
C25_5 C26_5 1_555 1_555
C27_5 C29_5 1_555 1_555
C37_5 C38_5 1_555 1_555
C45_5 O26_2 1_555 1_555
C46_5 C47_5 1_555 1_555
C48_5 C50_5 1_555 1_555
C58_5 C59_5 1_555 1_555
N3_5 C49_5 1_555 1_555
C49_5 C51_5 1_555 1_555
C51_5 H29_5 1_555 1_555
C52_5 C53_5 1_555 1_555
C53_5 C51_5 1_555 1_555
H30_5 C53_5 1_555 1_555
C54_5 C52_5 1_555 1_555
O31_2 C54_5 1_555 1_555
O23_3 C57_5 1_555 1_555
C55_5 C57_5 1_555 1_555
C56_5 N3_5 1_555 1_555
C60_5 C56_5 1_555 1_555
H33_5 C60_5 1_555 1_555
C61_5 C55_5 1_555 1_555
H34_5 C61_5 1_555 1_555
C62_5 C49_5 1_555 1_555
H35_5 C62_5 1_555 1_555
C63_5 C52_5 1_555 1_555
H36_5 C63_5 1_555 1_555
O31_3 C54_5 1_555 1_555
C60_5 C61_5 1_555 1_555
C62_5 C63_5 1_555 1_555
N2_7 C28_7 1_555 1_555
C33_7 C31_7 1_555 1_555
O21_4 C36_6 1_555 1_555
C34_6 C36_6 1_555 1_555
C35_6 N2_7 1_555 1_555
C36_6 O24_4 1_555 1_555
C37_6 C35_6 1_555 1_555
H19_6 C37_6 1_555 1_555
C38_6 C34_6 1_555 1_555
H20_6 C38_6 1_555 1_555
C39_6 C35_6 1_555 1_555
H21_6 C39_6 1_555 1_555
C40_6 C34_6 1_555 1_555
H22_6 C40_6 1_555 1_555
C41_6 C28_7 1_555 1_555
H23_6 C41_6 1_555 1_555
C42_6 C31_7 1_555 1_555
H24_6 C42_6 1_555 1_555
O29_4 C33_7 1_555 1_555
C37_6 C38_6 1_555 1_555
C39_6 C40_6 1_555 1_555
C41_6 C42_6 1_555 1_555
O4_9 H40_5 1_555 1_555
O21_5 C3_6 1_555 1_555
C1_6 C3_6 1_555 1_555
C2_6 N1_7 1_555 1_555
C3_6 O24_5 1_555 1_555
N1_7 C7_7 1_555 1_555
C4_6 C2_6 1_555 1_555
H1_6 C4_6 1_555 1_555
C5_6 C1_6 1_555 1_555
H2_6 C5_6 1_555 1_555
C6_6 C2_6 1_555 1_555
H3_6 C6_6 1_555 1_555
C7_7 C9_6 1_555 1_555
C8_6 C1_6 1_555 1_555
H4_6 C8_6 1_555 1_555
C9_6 H5_6 1_555 1_555
C10_7 C11_6 1_555 1_555
C11_6 C9_6 1_555 1_555
H6_6 C11_6 1_555 1_555
C12_7 C10_7 1_555 1_555
O29_5 C12_7 1_555 1_555
C22_6 C24_6 1_555 1_555
C23_6 N2_8 1_555 1_555
C24_6 O22_5 1_555 1_555
N2_8 C28_8 1_555 1_555
C25_6 C23_6 1_555 1_555
H13_6 C25_6 1_555 1_555
C26_6 C22_6 1_555 1_555
H14_6 C26_6 1_555 1_555
C27_6 C23_6 1_555 1_555
H15_6 C27_6 1_555 1_555
C28_8 C30_6 1_555 1_555
C29_6 C22_6 1_555 1_555
H16_6 C29_6 1_555 1_555
C30_6 H17_6 1_555 1_555
C31_8 C32_6 1_555 1_555
C32_6 C30_6 1_555 1_555
H18_6 C32_6 1_555 1_555
C33_8 C31_8 1_555 1_555
O30_5 C33_8 1_555 1_555
C43_6 C45_6 1_555 1_555
C44_6 N3_6 1_555 1_555
C45_6 O23_5 1_555 1_555
N3_6 C49_6 1_555 1_555
C46_6 C44_6 1_555 1_555
H25_6 C46_6 1_555 1_555
C47_6 C43_6 1_555 1_555
H26_6 C47_6 1_555 1_555
C48_6 C44_6 1_555 1_555
H27_6 C48_6 1_555 1_555
C49_6 C51_6 1_555 1_555
C50_6 C43_6 1_555 1_555
H28_6 C50_6 1_555 1_555
C51_6 H29_6 1_555 1_555
C52_6 C53_6 1_555 1_555
C53_6 C51_6 1_555 1_555
H30_6 C53_6 1_555 1_555
C54_6 C52_6 1_555 1_555
O31_5 C54_6 1_555 1_555
O23_4 C57_6 1_555 1_555
C55_6 C57_6 1_555 1_555
C56_6 N3_6 1_555 1_555
C57_6 O26_4 1_555 1_555
C58_6 C56_6 1_555 1_555
H31_6 C58_6 1_555 1_555
C59_6 C55_6 1_555 1_555
H32_6 C59_6 1_555 1_555
C60_6 C56_6 1_555 1_555
H33_6 C60_6 1_555 1_555
C61_6 C55_6 1_555 1_555
H34_6 C61_6 1_555 1_555
C62_6 C49_6 1_555 1_555
H35_6 C62_6 1_555 1_555
C63_6 C52_6 1_555 1_555
H36_6 C63_6 1_555 1_555
O31_4 C54_6 1_555 1_555
C4_6 C5_6 1_555 1_555
C6_6 C8_6 1_555 1_555
C24_6 O25_5 1_555 1_555
C25_6 C26_6 1_555 1_555
C27_6 C29_6 1_555 1_555
C45_6 O26_5 1_555 1_555
C46_6 C47_6 1_555 1_555
C48_6 C50_6 1_555 1_555
C58_6 C59_6 1_555 1_555
C60_6 C61_6 1_555 1_555
C62_6 C63_6 1_555 1_555
N1_8 C7_8 1_555 1_555
C12_8 C10_8 1_555 1_555
O22_4 C15_6 1_555 1_555
C13_6 C15_6 1_555 1_555
C14_6 N1_8 1_555 1_555
C15_6 O25_4 1_555 1_555
C16_6 C14_6 1_555 1_555
H7_6 C16_6 1_555 1_555
C17_6 C13_6 1_555 1_555
H8_6 C17_6 1_555 1_555
C18_6 C14_6 1_555 1_555
H9_6 C18_6 1_555 1_555
C19_6 C13_6 1_555 1_555
H10_6 C19_6 1_555 1_555
C20_6 C7_8 1_555 1_555
H11_6 C20_6 1_555 1_555
C21_6 C10_8 1_555 1_555
H12_6 C21_6 1_555 1_555
O30_4 C12_8 1_555 1_555
C16_6 C17_6 1_555 1_555
C18_6 C19_6 1_555 1_555
C20_6 C21_6 1_555 1_555
O4_11 H39_3 1_555 1_555
O4_8 H40_6 1_555 1_555
O20_10 H38_3 1_555 1_555
O20_12 H37_5 1_555 1_555
O20_9 H37_6 1_555 1_555
O20_5 H38_4 1_555 1_555
O20_6 H37_7 1_555 1_555
O20_3 H37_8 1_555 1_555
O4_6 H40_7 1_555 1_555
O4_7 H39_4 1_555 1_555
O4_4 H40_8 1_555 1_555

#END
