
###############################################################################
#
# This file contains modified crystal structure data generated from the
# MOF subset of the Cambridge Structural Database (CSD) v543 
# hosted by the Cambridge Crystallographic Data Centre (CCDC).
#
# This work is licensed under the Creative Commons
# Attribution-NonCommercial-ShareAlike 4.0 International License.
# To view a copy of this license, visit
# http://creativecommons.org/licenses/by-nc-sa/4.0/
# or send a letter to
# Creative Commons, PO Box 1866, Mountain View, CA 94042, USA.
#
# CIF created using the CSD Python API on 29 September 2022
# The structure has been converted into the P1 space group
# The structure has a 3D framework
# The original CSD entry PACZUQ is in the triclinic crystal system
# The framework has been calculated to contain at least 10.0% void space
# The void calculation uses a probe of radius 1.32A, grid spacing 0.4
# H atom positions have been added when not included in the experimental data
#
###############################################################################

data_PACZUQ
_chemical_formula_moiety         '(C54 H96 N6 O45 Pr6)n'
_symmetry_cell_setting           triclinic
_symmetry_space_group_name_H-M   'P 1'
_symmetry_Int_Tables_number      1
_space_group_name_Hall           'P 1'
loop_
_symmetry_equiv_pos_site_id
_symmetry_equiv_pos_as_xyz
1 x,y,z
_cell_length_a                   12.514(3)
_cell_length_b                   15.767(3)
_cell_length_c                   16.171(3)
_cell_angle_alpha                114.13(3)
_cell_angle_beta                 104.06(3)
_cell_angle_gamma                103.72(3)
_cell_volume                     2612.64
loop_
_atom_site_label
_atom_site_type_symbol
_atom_site_fract_x
_atom_site_fract_y
_atom_site_fract_z
O5 O 0.3956(7) 0.2263(6) 0.0828(6)
H37 H 0.3707 0.2574 0.0580
O6 O 0.6175(7) 0.2762(6) 0.0329(5)
Pr8 Pr 0.13137(4) 0.63678(3) 0.09788(3)
O25 O 0.5910(7) 0.1762(5) 0.1453(5)
H43 H 0.463265 0.274235 0.146539
H44 H 0.676556 0.297956 0.098315
Pr1 Pr 0.46559(4) 0.10626(3) 0.96813(3)
Pr2 Pr 0.00281(4) 0.02366(3) 0.63432(3)
C4 C 0.6302(7) 0.1392(6) 0.8229(7)
C5 C 0.6450(10) 0.0714(9) 0.7290(10)
H5 H 0.6310 0.0984 0.6851
H6 H 0.7277 0.0783 0.7473
H15 H 0.3343 0.0613 0.6530
C13 C 0.3010(8) 0.1840(7) 0.8204(6)
C14 C 0.4007(8) 0.2823(7) 0.8505(7)
H17 H 0.4048 0.3350 0.9110
H18 H 0.4760 0.2736 0.8638
C15 C 0.3864(9) 0.3159(8) 0.7770(8)
H19 H 0.3885 0.2658 0.7181
H20 H 0.4533 0.3778 0.8024
C16 C 0.2504(10) 0.3450(8) 0.6581(7)
H21 H 0.2956 0.4137 0.6770
H22 H 0.2780 0.3012 0.6137
C17 C 0.1208(11) 0.3195(8) 0.6065(7)
H23 H 0.1106 0.3351 0.5537
H24 H 0.0917 0.3599 0.6522
C18 C 0.0489(9) 0.2084(7) 0.5649(6)
C19 C 0.2697(8) 0.4215(7) 0.8338(6)
H25 H 0.2503 0.4668 0.8119
H26 H 0.3477 0.4580 0.8866
C20 C 0.1777(9) 0.3859(6) 0.8712(7)
H27 H 0.1000 0.3485 0.8180
H28 H 0.1978 0.3412 0.8937
C21 C 0.1731(7) 0.4727(6) 0.9535(6)
O1 O 0.5432(6) 0.1054(5) 0.8382(5)
O3 O 0.2527(5) 0.0108(5) 0.9456(5)
O4 O 0.3228(5) 0.1336(5) 0.8613(5)
H38 H 0.6515 0.2740 0.9951
O9 O 0.1295(5) 0.0327(5) 0.5395(4)
O10 O 0.2027(5) 0.1590(4) 0.7580(4)
O11 O 0.0356(6) 0.1820(4) 0.6258(4)
O14 O 0.0150(7) 0.1514(5) 0.4737(5)
H40 H 0.1729 0.0031 0.7735
O17 O 0.7047(6) 0.2271(5) 0.8773(6)
O19 O 0.2479(6) 0.5596(5) 0.9931(5)
O23 O 0.0862(5) 0.4541(4) 0.9804(4)
N2 N 0.2720(6) 0.3332(5) 0.7500(5)
Pr7 Pr 0.86863(4) 0.36322(3) 0.90212(3)
O26 O 0.6067(5) 0.0219(4) 0.9772(4)
C22 C 0.0147(8) 0.8340(6) 0.1396(6)
H35 H 0.2130 0.8715 0.0313
O8 O 0.3933(5) 0.9781(4) 0.0228(4)
O16 O 0.0476(6) 0.7644(4) 0.0979(4)
O20 O 0.3140(7) 0.6292(7) 0.2003(6)
H41 H 0.3468 0.6807 0.2538
O22 O 0.1484(6) 0.7473(5) 0.2670(5)
H42 H 0.1655 0.7221 0.3013
O24 O 0.0382(6) 0.8766(5) 0.2290(4)
Pr4 Pr 0.53441(4) 0.89374(3) 0.03187(3)
O30 O 0.2953(6) 0.7729(5) 0.1227(6)
O32 O 0.0712(8) 0.5334(5) 0.1764(5)
H45 H 0.370069 0.622785 0.166046
H48 H 0.0712501 0.754691 0.264599
C6 C 0.5733(10) 0.9664(10) 0.6742(9)
H7 H 0.6069 0.9346 0.7080
H8 H 0.5807 0.9395 0.6110
C7 C 0.3959(18) 0.8291(9) 0.6320(10)
H9 H 0.3130 0.8021 0.5888
H10 H 0.4355 0.7947 0.5927
C8 C 0.3977(18) 0.7978(9) 0.6992(10)
H11 H 0.4687 0.7827 0.7116
H12 H 0.3305 0.7344 0.6666
C9 C 0.3951(8) 0.8584(7) 0.7973(6)
C10 C 0.3731(12) 0.9465(11) 0.5758(7)
H13 H 0.4267 0.9870 0.5597
H14 H 0.3293 0.8807 0.5179
C11 C 0.2894(11) 0.9926(11) 0.6001(8)
H16 H 0.2433 0.9572 0.6246
C12 C 0.2047(8) 0.9942(7) 0.5181(6)
C25 C 0.0687(8) 0.8644(9) 0.9368(9)
H33 H 0.0638 0.9243 0.9840
H34 H 0.0472 0.8627 0.8741
C26 C 0.1922(8) 0.8699(9) 0.9687(11)
H36 H 0.1962 0.8093 0.9216
C27 C 0.2825(7) 0.9590(7) 0.9791(6)
O2 O 0.3787(5) 0.9382(4) 0.8145(4)
O7 O 0.4090(7) 0.8238(5) 0.8547(5)
O12 O 0.2048(6) 0.9598(6) 0.4357(5)
O15 O 0.1082(7) 0.9590(5) 0.7327(5)
O18 O 0.0563(6) 0.6221(4) 0.9323(4)
N1 N 0.4450(6) 0.9353(5) 0.6560(5)
H46 H 0.120587 0.899709 0.688419
O28 O 0.7952(6) 0.0402(6) 0.5643(5)
O35 O 0.9618(6) 0.1234(5) 0.7710(4)
C23 C 0.9452(10) 0.8684(8) 0.0794(7)
H29 H 0.8807 0.8780 0.1005
H30 H 0.9970 0.9336 0.0940
Pr6 Pr 0.99719(4) 0.97634(3) 0.36568(3)
O33 O 0.9138(5) 0.5459(4) 0.0196(4)
C1 C 0.904(3) 0.5980(11) 0.7992(12)
H1 H 0.8205 0.5685 0.7876
H2 H 0.9097 0.5677 0.7356
C2 C 0.9250(13) 0.6924(10) 0.8243(8)
H3 H 0.9734 0.7091 0.7903
H4 H 0.8491 0.6959 0.7969
C3 C 0.9674(14) 0.5593(8) 0.8558(7)
C24 C 0.8918(8) 0.7996(8) 0.9678(7)
H31 H 0.8547 0.8325 0.9372
H32 H 0.8301 0.7381 0.9513
O13 O 0.8341(8) 0.8960(7) 0.6338(8)
H39 H 0.8394 0.9132 0.6904
O21 O 0.9288(8) 0.4666(5) 0.8236(5)
N3 N 0.9821(6) 0.7739(5) 0.9269(5)
O27 O 0.8705(5) 0.9673(5) 0.4605(4)
O29 O 0.9850(7) 0.8486(5) 0.5263(5)
H47 H 0.8394 0.828983 0.603786
C1_2 C 0.096(3) 0.4020(11) 0.2008(12)
H1_2 H 0.1795 0.4315 0.2124
H2_2 H 0.0903 0.4323 0.2644
C2_2 C 0.0750(13) 0.3076(10) 0.1757(8)
H3_2 H 0.0266 0.2909 0.2097
H4_2 H 0.1509 0.3041 0.2031
C3_2 C 0.0326(14) 0.4407(8) 0.1442(7)
C24_2 C 0.1082(8) 0.2004(8) 0.0322(7)
H31_2 H 0.1453 0.1675 0.0628
H32_2 H 0.1699 0.2619 0.0487
O13_2 O 0.1659(8) 0.1040(7) 0.3662(8)
H39_2 H 0.1606 0.0868 0.3096
N3_2 N 0.0179(6) 0.2261(5) 0.0731(5)
H47_2 H 0.1606 0.171017 0.396214
C23_2 C 0.0548(10) 0.1316(8) 0.9206(7)
H29_2 H 0.1193 0.1220 0.8995
H30_2 H 0.0030 0.0664 0.9060
C6_2 C 0.4267(10) 0.0336(10) 0.3258(9)
H7_2 H 0.3931 0.0654 0.2920
H8_2 H 0.4193 0.0605 0.3890
C7_2 C 0.6041(18) 0.1709(9) 0.3680(10)
H9_2 H 0.6870 0.1979 0.4112
H10_2 H 0.5645 0.2053 0.4073
C8_2 C 0.6023(18) 0.2022(9) 0.3008(10)
H11_2 H 0.5313 0.2173 0.2884
H12_2 H 0.6695 0.2656 0.3334
C9_2 C 0.6049(8) 0.1416(7) 0.2027(6)
C10_2 C 0.6269(12) 0.0535(11) 0.4242(7)
H13_2 H 0.5733 0.0130 0.4403
H14_2 H 0.6707 0.1193 0.4821
C11_2 C 0.7106(11) 0.0074(11) 0.3999(8)
H16_2 H 0.7567 0.0428 0.3754
C12_2 C 0.7953(8) 0.0058(7) 0.4819(6)
C25_2 C 0.9313(8) 0.1356(9) 0.0632(9)
H33_2 H 0.9362 0.0757 0.0160
H34_2 H 0.9528 0.1373 0.1259
C26_2 C 0.8078(8) 0.1301(9) 0.0313(11)
H36_2 H 0.8038 0.1907 0.0784
C27_2 C 0.7175(7) 0.0410(7) 0.0209(6)
O2_2 O 0.6213(5) 0.0618(4) 0.1855(4)
O15_2 O 0.8918(7) 0.0410(5) 0.2673(5)
O18_2 O 0.9437(6) 0.3779(4) 0.0677(4)
N1_2 N 0.5550(6) 0.0647(5) 0.3440(5)
O31 O 0.7521(6) 0.4404(5) 0.0069(5)
H46_2 H 0.879413 0.100291 0.311581
C22_2 C 0.9853(8) 0.1660(6) 0.8604(6)
H35_2 H 0.7870 0.1285 0.9687
O16_2 O 0.9524(6) 0.2356(4) 0.9021(4)
O20_2 O 0.6860(7) 0.3708(7) 0.7997(6)
H41_2 H 0.6532 0.3193 0.7462
O22_2 O 0.8516(6) 0.2527(5) 0.7330(5)
H42_2 H 0.8345 0.2779 0.6987
H45_2 H 0.629931 0.377215 0.833954
H48_2 H 0.92875 0.245309 0.735401
C4_2 C 0.3698(7) 0.8608(6) 0.1771(7)
C5_2 C 0.3550(10) 0.9286(9) 0.2710(10)
H5_2 H 0.3690 0.9016 0.3149
H6_2 H 0.2723 0.9217 0.2527
H15_2 H 0.6657 0.9387 0.3470
C13_2 C 0.6990(8) 0.8160(7) 0.1796(6)
C14_2 C 0.5993(8) 0.7177(7) 0.1495(7)
H17_2 H 0.5952 0.6650 0.0890
H18_2 H 0.5240 0.7264 0.1362
C15_2 C 0.6136(9) 0.6841(8) 0.2230(8)
H19_2 H 0.6115 0.7342 0.2819
H20_2 H 0.5467 0.6222 0.1976
C16_2 C 0.7496(10) 0.6550(8) 0.3419(7)
H21_2 H 0.7044 0.5863 0.3230
H22_2 H 0.7220 0.6988 0.3863
C17_2 C 0.8792(11) 0.6805(8) 0.3935(7)
H23_2 H 0.8894 0.6649 0.4463
H24_2 H 0.9083 0.6401 0.3478
C18_2 C 0.9511(9) 0.7916(7) 0.4351(6)
C19_2 C 0.7303(8) 0.5785(7) 0.1662(6)
H25_2 H 0.7497 0.5332 0.1881
H26_2 H 0.6523 0.5420 0.1134
C20_2 C 0.8223(9) 0.6141(6) 0.1288(7)
H27_2 H 0.9000 0.6515 0.1820
H28_2 H 0.8022 0.6588 0.1063
C21_2 C 0.8269(7) 0.5273(6) 0.0465(6)
O1_2 O 0.4568(6) 0.8946(5) 0.1618(5)
O3_2 O 0.7473(5) 0.9892(5) 0.0544(5)
O4_2 O 0.6772(5) 0.8664(5) 0.1387(5)
H38_2 H 0.3485 0.7260 0.0049
O10_2 O 0.7973(5) 0.8410(4) 0.2420(4)
O11_2 O 0.9644(6) 0.8180(4) 0.3742(4)
H40_2 H 0.8271 0.9969 0.2265
N2_2 N 0.7280(6) 0.6668(5) 0.2500(5)
O5_2 O 0.6044(7) 0.7737(6) 0.9172(6)
H37_2 H 0.6293 0.7426 0.9420
O6_2 O 0.3825(7) 0.7238(6) 0.9671(5)
H43_2 H 0.536735 0.725765 0.853461
H44_2 H 0.323444 0.702044 0.901685
loop_
_geom_bond_atom_site_label_1
_geom_bond_atom_site_label_2
_geom_bond_site_symmetry_1
_geom_bond_site_symmetry_2
H37 O5 1_555 1_555
O5 H43 1_555 1_555
O6 H44 1_555 1_555
Pr1 O1 1_555 1_555
Pr2 O9 1_555 1_555
C4 C5 1_555 1_555
C5 H5 1_555 1_555
H6 C5 1_555 1_555
C13 C14 1_555 1_555
C14 H17 1_555 1_555
H18 C14 1_555 1_555
C15 C14 1_555 1_555
H19 C15 1_555 1_555
H20 C15 1_555 1_555
C16 H21 1_555 1_555
H22 C16 1_555 1_555
C17 C16 1_555 1_555
H23 C17 1_555 1_555
H24 C17 1_555 1_555
C18 C17 1_555 1_555
C19 H25 1_555 1_555
H26 C19 1_555 1_555
C20 C19 1_555 1_555
H27 C20 1_555 1_555
H28 C20 1_555 1_555
C21 C20 1_555 1_555
O1 C4 1_555 1_555
O3 Pr1 1_555 1_555
O4 Pr1 1_555 1_555
O10 Pr2 1_555 1_555
O11 Pr2 1_555 1_555
O14 C18 1_555 1_555
O17 C4 1_555 1_555
O19 C21 1_555 1_555
O23 C21 1_555 1_555
N2 C15 1_555 1_555
Pr7 O17 1_555 1_555
O26 Pr1 1_555 1_555
C13 O4 1_555 1_555
C13 O10 1_555 1_555
C16 N2 1_555 1_555
C18 O11 1_555 1_555
C19 N2 1_555 1_555
Pr8 O16 1_555 1_555
O16 C22 1_555 1_555
O20 Pr8 1_555 1_555
H41 O20 1_555 1_555
O22 Pr8 1_555 1_555
H42 O22 1_555 1_555
O24 C22 1_555 1_555
O30 Pr8 1_555 1_555
O32 Pr8 1_555 1_555
O8 Pr4 1_555 1_555
O20 H45 1_555 1_555
O22 H48 1_555 1_555
H7 C6 1_555 1_555
H8 C6 1_555 1_555
C7 H9 1_555 1_555
H10 C7 1_555 1_555
C8 C7 1_555 1_555
H11 C8 1_555 1_555
H12 C8 1_555 1_555
C9 C8 1_555 1_555
C10 H13 1_555 1_555
H14 C10 1_555 1_555
C11 C10 1_555 1_555
H16 C11 1_555 1_555
C12 C11 1_555 1_555
C25 H33 1_555 1_555
H34 C25 1_555 1_555
C26 C25 1_555 1_555
H36 C26 1_555 1_555
C27 C26 1_555 1_555
O7 C9 1_555 1_555
O12 C12 1_555 1_555
N1 C6 1_555 1_555
C7 N1 1_555 1_555
C9 O2 1_555 1_555
C10 N1 1_555 1_555
O15 H46 1_555 1_555
C23 H29 1_555 1_555
H30 C23 1_555 1_555
C1 H1 1_555 1_555
H2 C1 1_555 1_555
C2 C1 1_555 1_555
H3 C2 1_555 1_555
H4 C2 1_555 1_555
C3 C1 1_555 1_555
H31 C24 1_555 1_555
H32 C24 1_555 1_555
H39 O13 1_555 1_555
O21 C3 1_555 1_555
N3 C2 1_555 1_555
Pr7 O21 1_555 1_555
C24 N3 1_555 1_555
Pr6 O27 1_555 1_555
O13 H47 1_555 1_555
C1_2 H1_2 1_555 1_555
H2_2 C1_2 1_555 1_555
C2_2 C1_2 1_555 1_555
H3_2 C2_2 1_555 1_555
H4_2 C2_2 1_555 1_555
C3_2 C1_2 1_555 1_555
H31_2 C24_2 1_555 1_555
H32_2 C24_2 1_555 1_555
H39_2 O13_2 1_555 1_555
O32 C3_2 1_555 1_555
N3_2 C2_2 1_555 1_555
C24_2 N3_2 1_555 1_555
O13_2 H47_2 1_555 1_555
C23_2 H29_2 1_555 1_555
H30_2 C23_2 1_555 1_555
H7_2 C6_2 1_555 1_555
H8_2 C6_2 1_555 1_555
C7_2 H9_2 1_555 1_555
H10_2 C7_2 1_555 1_555
C8_2 C7_2 1_555 1_555
H11_2 C8_2 1_555 1_555
H12_2 C8_2 1_555 1_555
C9_2 C8_2 1_555 1_555
C10_2 H13_2 1_555 1_555
H14_2 C10_2 1_555 1_555
C11_2 C10_2 1_555 1_555
H16_2 C11_2 1_555 1_555
C12_2 C11_2 1_555 1_555
C25_2 H33_2 1_555 1_555
H34_2 C25_2 1_555 1_555
C26_2 C25_2 1_555 1_555
H36_2 C26_2 1_555 1_555
C27_2 C26_2 1_555 1_555
O25 C9_2 1_555 1_555
O28 C12_2 1_555 1_555
N1_2 C6_2 1_555 1_555
C7_2 N1_2 1_555 1_555
C9_2 O2_2 1_555 1_555
C10_2 N1_2 1_555 1_555
O15_2 H46_2 1_555 1_555
Pr7 O16_2 1_555 1_555
O16_2 C22_2 1_555 1_555
O20_2 Pr7 1_555 1_555
H41_2 O20_2 1_555 1_555
O22_2 Pr7 1_555 1_555
H42_2 O22_2 1_555 1_555
O35 C22_2 1_555 1_555
O20_2 H45_2 1_555 1_555
O22_2 H48_2 1_555 1_555
Pr4 O1_2 1_555 1_555
C4_2 C5_2 1_555 1_555
C5_2 H5_2 1_555 1_555
H6_2 C5_2 1_555 1_555
C13_2 C14_2 1_555 1_555
C14_2 H17_2 1_555 1_555
H18_2 C14_2 1_555 1_555
C15_2 C14_2 1_555 1_555
H19_2 C15_2 1_555 1_555
H20_2 C15_2 1_555 1_555
C16_2 H21_2 1_555 1_555
H22_2 C16_2 1_555 1_555
C17_2 C16_2 1_555 1_555
H23_2 C17_2 1_555 1_555
H24_2 C17_2 1_555 1_555
C18_2 C17_2 1_555 1_555
C19_2 H25_2 1_555 1_555
H26_2 C19_2 1_555 1_555
C20_2 C19_2 1_555 1_555
H27_2 C20_2 1_555 1_555
H28_2 C20_2 1_555 1_555
C21_2 C20_2 1_555 1_555
O1_2 C4_2 1_555 1_555
O3_2 Pr4 1_555 1_555
O4_2 Pr4 1_555 1_555
O10_2 Pr6 1_555 1_555
O11_2 Pr6 1_555 1_555
O29 C18_2 1_555 1_555
O30 C4_2 1_555 1_555
O31 C21_2 1_555 1_555
O33 C21_2 1_555 1_555
N2_2 C15_2 1_555 1_555
C13_2 O4_2 1_555 1_555
C13_2 O10_2 1_555 1_555
C16_2 N2_2 1_555 1_555
C18_2 O11_2 1_555 1_555
C19_2 N2_2 1_555 1_555
H37_2 O5_2 1_555 1_555
O5_2 H43_2 1_555 1_555
O6_2 H44_2 1_555 1_555

#END
