
###############################################################################
#
# This file contains modified crystal structure data generated from the
# MOF subset of the Cambridge Structural Database (CSD) v543 
# hosted by the Cambridge Crystallographic Data Centre (CCDC).
#
# This work is licensed under the Creative Commons
# Attribution-NonCommercial-ShareAlike 4.0 International License.
# To view a copy of this license, visit
# http://creativecommons.org/licenses/by-nc-sa/4.0/
# or send a letter to
# Creative Commons, PO Box 1866, Mountain View, CA 94042, USA.
#
# CIF created using the CSD Python API on 29 September 2022
# The structure has been converted into the P1 space group
# The structure has a 3D framework
# The original CSD entry PADBAZ is in the rhombohedral crystal system
# The framework has been calculated to contain at least 10.0% void space
# The void calculation uses a probe of radius 1.32A, grid spacing 0.4
# The framework is charged, counterions have been retained in the structure
# H atom positions have been added when not included in the experimental data
# Generated hydrogen atom positions removed from atoms on special positions
#
###############################################################################

data_PADBAZ
_chemical_formula_moiety         '(C162 H468 Br18 N18 Nd18 O137)n'
_symmetry_cell_setting           triclinic
_symmetry_space_group_name_H-M   'P 1'
_symmetry_Int_Tables_number      1
_space_group_name_Hall           'P 1'
loop_
_symmetry_equiv_pos_site_id
_symmetry_equiv_pos_as_xyz
1 x,y,z
_cell_length_a                   27.022(6)
_cell_length_b                   27.022(6)
_cell_length_c                   12.681(5)
_cell_angle_alpha                90
_cell_angle_beta                 90
_cell_angle_gamma                120
_cell_volume                     8018.98
loop_
_atom_site_label
_atom_site_type_symbol
_atom_site_fract_x
_atom_site_fract_y
_atom_site_fract_z
Nd1 Nd 0.31145(3) 0.08754(3) 0.22195(5)
C1 C 0.3554(6) 0.1892(6) 0.3600(10)
C2 C 0.3853(8) 0.2421(6) 0.4167(11)
H1 H 0.3618 0.2599 0.4162
H2 H 0.4201 0.2671 0.3785
C3 C 0.3457(5) 0.3320(5) 0.6413(9)
C4 C 0.3580(6) 0.2914(7) 0.7009(12)
H3 H 0.3300 0.2529 0.6799
H4 H 0.3519 0.2950 0.7753
C5 C 0.4154(6) 0.2977(8) 0.6891(11)
C6 C 0.4946(7) 0.3140(7) 0.570(2)
H5 H 0.4989 0.2962 0.5067
H6 H 0.5035 0.2971 0.6290
C7 C 0.4006(7) 0.2386(8) 0.5270(12)
H7 H 0.3660 0.2150 0.5669
H8 H 0.4237 0.2204 0.5288
C8 C 0.5270(6) 0.4136(6) 0.5038(13)
C9 C 0.5355(9) 0.3693(8) 0.567(3)
H9 H 0.5696 0.3706 0.5386
H10 H 0.5438 0.3826 0.6385
O1 O 0.3529(5) 0.1449(4) 0.3967(7)
O2 O 0.4812(4) 0.3975(4) 0.4593(7)
O3 O 0.3051(4) 0.3378(4) 0.6657(7)
O4 O 0.3780(4) 0.3588(4) 0.5641(7)
O5 O 0.3321(4) 0.1872(4) 0.2709(6)
O7 O 0.5688(4) 0.4628(4) 0.5041(10)
O8 O 0.2380(5) 0.0491(6) 0.3690(9)
N1 N 0.4328(4) 0.2958(4) 0.5783(8)
Nd4 Nd 0.35522(3) 0.24579(3) 0.11138(5)
Nd6 Nd 0.42087(3) 0.44276(4) 0.44472(5)
Nd7 Nd 0.22391(4) 0.31145(3) 0.77805(5)
Nd8 Nd 0.57913(3) 0.55724(4) 0.55528(5)
Nd10 Nd 0.44276(4) 0.02188(3) 0.55528(5)
Nd15 Nd 0.91246(3) 0.22391(4) 0.22195(5)
Nd17 Nd 0.75421(3) 0.10942(4) 0.11138(5)
C10 C 0.4995(8) 0.0221(6) 0.3067(10)
C13 C 0.1671(8) 0.3113(6) 0.0267(10)
C14 C 0.8108(6) 0.1662(8) 0.3600(10)
C15 C 0.4765(10) 0.0520(8) 0.2500(11)
C18 C 0.1901(10) 0.2814(8) 0.0834(11)
C19 C 0.7579(6) 0.1432(10) 0.4167(11)
H11 H 0.4352 0.0285 0.2505
H14 H 0.2314 0.3049 0.0829
H15 H 0.7401 0.1019 0.4162
H16 H 0.4863 0.0868 0.2882
H19 H 0.1803 0.2466 0.0452
H20 H 0.7329 0.1530 0.3785
C20 C 0.3470(7) 0.0124(5) 0.0254(9)
C23 C 0.3196(7) 0.3210(5) 0.3080(9)
C24 C 0.6680(5) 0.0137(7) 0.6413(9)
C28 C 0.2667(9) 0.3087(6) 0.3676(12)
C29 C 0.7086(7) 0.0666(9) 0.7009(12)
H24 H 0.2562 0.3367 0.3466
H25 H 0.7471 0.0771 0.6799
H29 H 0.2764 0.3148 0.4420
H30 H 0.7050 0.0569 0.7753
C33 C 0.2156(10) 0.2513(6) 0.3558(11)
C34 C 0.7023(8) 0.1177(10) 0.6891(11)
C35 C 0.5139(10) 0.1613(7) 0.097(2)
C38 C 0.1527(10) 0.1721(7) 0.237(2)
C39 C 0.6860(7) 0.1806(10) 0.570(2)
H31 H 0.5360 0.1656 0.1600
H34 H 0.1306 0.1678 0.1734
H35 H 0.7038 0.2027 0.5067
H36 H 0.5397 0.1702 0.0377
H39 H 0.1269 0.1632 0.2957
H40 H 0.7029 0.2064 0.6290
C40 C 0.4953(11) 0.0673(7) 0.1397(12)
C43 C 0.1713(11) 0.2661(7) 0.1937(12)
C44 C 0.7614(8) 0.1620(11) 0.5270(12)
H41 H 0.4843 0.0327 0.0998
H44 H 0.1823 0.3007 0.2336
H45 H 0.7850 0.1510 0.5669
H46 H 0.5366 0.0904 0.1379
H49 H 0.1300 0.2430 0.1955
H50 H 0.7796 0.2033 0.5288
C45 C 0.4467(8) 0.1937(6) 0.1629(13)
C48 C 0.2199(8) 0.1397(6) 0.1705(13)
C49 C 0.5864(6) 0.1134(8) 0.5038(13)
C50 C 0.4995(12) 0.2022(9) 0.100(3)
C53 C 0.1671(12) 0.1312(9) 0.234(3)
C54 C 0.6307(8) 0.1662(12) 0.567(3)
H51 H 0.5323 0.2363 0.1281
H54 H 0.1343 0.0971 0.2053
H55 H 0.6294 0.1990 0.5386
H56 H 0.4945 0.2105 0.0282
H59 H 0.1721 0.1229 0.3052
H60 H 0.6174 0.1612 0.6385
O9 O 0.5413(6) 0.0196(5) 0.2700(7)
O12 O 0.1253(6) 0.3138(5) 0.0634(7)
O13 O 0.8551(4) 0.2080(6) 0.3967(7)
O14 O 0.4782(4) 0.4587(6) 0.2700(7)
O15 O 0.4170(6) 0.1479(4) 0.2074(7)
O18 O 0.2496(6) 0.1855(4) 0.1260(7)
O19 O 0.6025(4) 0.0837(6) 0.4593(7)
O23 O 0.3378(4) 0.0327(6) 0.3343(7)
O25 O 0.3660(6) 0.3616(4) 0.3324(7)
O27 O 0.6384(4) 0.0045(4) 0.3324(7)
O30 O 0.0282(4) 0.3289(4) 0.0010(7)
O31 O 0.3525(6) 0.0447(4) 0.1026(7)
O34 O 0.3141(6) 0.2887(4) 0.2308(7)
O35 O 0.6412(4) 0.0192(6) 0.5641(7)
O40 O 0.3346(4) 0.1461(4) 0.0624(6)
O42 O 0.8128(4) 0.1449(6) 0.2709(6)
O43 O 0.5218(6) 0.0012(4) 0.6042(6)
O46 O 0.4795(4) 0.4782(6) 0.6042(6)
O47 O 0.5205(4) 0.5218(6) 0.3958(6)
O50 O 0.4328(5) 0.3365(4) 0.1864(9)
O52 O 0.3301(4) 0.4296(6) 0.5198(9)
O53 O 0.4393(6) 0.2355(4) 0.1626(10)
O56 O 0.2273(6) 0.0979(4) 0.1708(10)
O57 O 0.5372(4) 0.1060(6) 0.5041(10)
O60 O 0.4312(4) 0.5372(4) 0.4959(10)
O64 O 0.1444(8) 0.4287(5) 0.0357(9)
O65 O 0.3824(6) 0.4778(8) 0.2977(9)
N2 N 0.4703(6) 0.0995(4) 0.0884(8)
N5 N 0.1963(6) 0.2339(4) 0.2450(8)
N6 N 0.7042(4) 0.1370(6) 0.5783(8)
H61 H 0.415905 0.263245 0.732736
H62 H 0.446563 0.338619 0.723048
H71 H 0.180674 0.250762 0.399402
H72 H 0.225389 0.220104 0.389715
H73 H 0.736755 0.15266 0.732736
H74 H 0.661381 0.107944 0.723048
Nd5 Nd 0.10942(4) 0.35522(3) 0.88862(5)
C12 C 0.3113(6) 0.1441(6) 0.9733(10)
C17 C 0.2814(8) 0.0912(6) 0.9166(11)
H13 H 0.3049 0.0734 0.9171
H18 H 0.2466 0.0662 0.9548
C22 C 0.3210(5) 0.0013(5) 0.6920(9)
C25 C 0.3999(9) 0.0247(6) 0.9658(12)
C27 C 0.3087(6) 0.0419(7) 0.6324(12)
H23 H 0.3367 0.0804 0.6534
H26 H 0.3902 0.0186 0.8914
H28 H 0.3148 0.0383 0.5580
C30 C 0.4510(10) 0.0821(6) 0.9776(11)
C32 C 0.2513(6) 0.0356(8) 0.6442(11)
C37 C 0.1721(7) 0.0193(7) 0.763(2)
H33 H 0.1678 0.0371 0.8266
H38 H 0.1632 0.0362 0.7043
C42 C 0.2661(7) 0.0947(8) 0.8063(12)
H43 H 0.3007 0.1183 0.7664
H48 H 0.2430 0.1129 0.8045
O11 O 0.3138(5) 0.1884(4) 0.9366(7)
O21 O 0.0642(4) 0.2496(6) 0.8740(7)
O29 O 0.3289(4) 0.3006(6) 0.9990(7)
O37 O 0.0255(4) 0.3141(6) 0.7692(7)
O41 O 0.1884(6) 0.3346(4) 0.9376(6)
O45 O 0.1449(6) 0.3321(4) 0.7291(6)
O51 O 0.0962(6) 0.4328(5) 0.8136(9)
O59 O 0.2039(4) 0.4393(6) 0.8374(10)
O63 O 0.4287(5) 0.2842(6) 0.9643(9)
N4 N 0.2339(4) 0.0375(4) 0.7550(8)
H67 H 0.441277 0.113229 0.943619
H68 H 0.485993 0.0825712 0.933931
H70 H 0.250762 0.0700886 0.600598
O6 O 0.2339(5) 0.9968(4) 0.1469(9)
Nd2 Nd 0.55724(4) 0.97812(3) 0.44472(5)
Nd3 Nd 0.08754(3) 0.77609(4) 0.77805(5)
Nd11 Nd 0.24579(3) 0.89058(4) 0.88862(5)
Nd16 Nd 0.68855(3) 0.91246(3) 0.77805(5)
C11 C 0.1892(6) 0.8338(8) 0.6400(10)
C16 C 0.2421(6) 0.8568(10) 0.5833(11)
H12 H 0.2599 0.8981 0.5838
H17 H 0.2671 0.8470 0.6215
C21 C 0.3320(5) 0.9863(7) 0.3587(9)
C26 C 0.2914(7) 0.9334(9) 0.2991(12)
H22 H 0.2529 0.9229 0.3201
H27 H 0.2950 0.9431 0.2247
C31 C 0.2977(8) 0.8823(10) 0.3109(11)
C36 C 0.3140(7) 0.8194(10) 0.430(2)
H32 H 0.2962 0.7973 0.4933
H37 H 0.2971 0.7936 0.3710
C41 C 0.2386(8) 0.8380(11) 0.4730(12)
H42 H 0.2150 0.8490 0.4331
H47 H 0.2204 0.7967 0.4712
C46 C 0.4136(6) 0.8866(8) 0.4962(13)
C51 C 0.3693(8) 0.8338(12) 0.433(3)
H52 H 0.3706 0.8010 0.4614
H57 H 0.3826 0.8388 0.3615
O10 O 0.1449(4) 0.7920(6) 0.6033(7)
O16 O 0.3975(4) 0.9163(6) 0.5407(7)
O20 O 0.1479(4) 0.7308(4) 0.7926(7)
O22 O 0.3006(6) 0.9718(4) 0.0010(7)
O26 O 0.6622(4) 0.9673(6) 0.6657(7)
O28 O 0.0327(6) 0.6949(4) 0.6657(7)
O32 O 0.3588(4) 0.9808(6) 0.4359(7)
O36 O 0.0447(4) 0.6921(4) 0.8974(7)
O38 O 0.4782(6) 0.9988(4) 0.3958(6)
O39 O 0.1872(4) 0.8551(6) 0.7291(6)
O44 O 0.1461(4) 0.8116(6) 0.9376(6)
O48 O 0.5704(6) 0.9006(5) 0.5198(9)
O54 O 0.4628(4) 0.8940(6) 0.4959(10)
O58 O 0.0979(4) 0.8705(4) 0.8292(10)
O61 O 0.5222(8) 0.9047(5) 0.2977(9)
O62 O 0.0491(6) 0.8111(8) 0.6310(9)
N3 N 0.2958(4) 0.8630(6) 0.4217(8)
H75 H 0.338619 0.892056 0.276952
H76 H 0.263245 0.84734 0.267264
H21 H 0.4104 0.9967 0.9868
C47 C 0.1397(6) 0.9197(6) 0.8295(13)
C52 C 0.1312(9) 0.9640(8) 0.766(3)
H53 H 0.0971 0.9627 0.7947
H58 H 0.1229 0.9507 0.6948
O17 O 0.1855(4) 0.9358(4) 0.8740(7)
O24 O 0.3616(4) 0.9955(4) 0.6676(7)
O33 O 0.2887(4) 0.9745(4) 0.7692(7)
H69 H 0.220104 0.994714 0.610285
O49 O 0.9968(4) 0.7629(6) 0.8531(9)
O6_2 O 0.0032(4) 0.2371(6) 0.1469(9)
Nd2_2 Nd 0.02188(3) 0.57913(5) 0.44472(5)
C11_2 C 0.1662(8) 0.3554(10) 0.6400(10)
C16_2 C 0.1432(10) 0.3853(12) 0.5833(11)
H12_2 H 0.1019 0.3618 0.5838
H17_2 H 0.1530 0.4201 0.6215
C21_2 C 0.0137(7) 0.3457(9) 0.3587(9)
C26_2 C 0.0666(9) 0.3580(11) 0.2991(12)
H22_2 H 0.0771 0.3300 0.3201
H27_2 H 0.0569 0.3519 0.2247
C31_2 C 0.1177(10) 0.4154(13) 0.3109(11)
C36_2 C 0.1806(10) 0.4946(12) 0.430(2)
H32_2 H 0.2027 0.4989 0.4933
H37_2 H 0.2064 0.5035 0.3710
C41_2 C 0.1620(11) 0.4006(14) 0.4730(12)
H42_2 H 0.1510 0.3660 0.4331
H47_2 H 0.2033 0.4237 0.4712
C46_2 C 0.1134(8) 0.5270(10) 0.4962(13)
C51_2 C 0.1662(12) 0.5355(14) 0.433(3)
H52_2 H 0.1990 0.5696 0.4614
H57_2 H 0.1612 0.5438 0.3615
O10_2 O 0.2080(6) 0.3529(7) 0.6033(7)
O16_2 O 0.0837(6) 0.4812(7) 0.5407(7)
O20_2 O 0.2692(4) 0.4170(6) 0.7926(7)
O32_2 O 0.0192(6) 0.3780(7) 0.4359(7)
O36_2 O 0.3079(4) 0.3525(6) 0.8974(7)
O38_2 O 0.0012(4) 0.4795(7) 0.3958(6)
O48_2 O 0.0994(5) 0.6699(8) 0.5198(9)
O49_2 O 0.2371(6) 0.2339(7) 0.8531(9)
O54_2 O 0.1060(6) 0.5688(7) 0.4959(10)
O58_2 O 0.1295(4) 0.2273(6) 0.8292(10)
O61_2 O 0.0953(5) 0.6176(9) 0.2977(9)
O62_2 O 0.1889(8) 0.2380(10) 0.6310(9)
N3_2 N 0.1370(6) 0.4328(7) 0.4217(8)
H75_2 H 0.107944 0.446563 0.276952
H76_2 H 0.15266 0.415905 0.267264
H21_2 H 0.0033 0.4138 0.9868
C47_2 C 0.0803(6) 0.2199(8) 0.8295(13)
C52_2 C 0.0360(8) 0.1671(12) 0.766(3)
H53_2 H 0.0373 0.1343 0.7947
H58_2 H 0.0493 0.1721 0.6948
O24_2 O 0.0045(4) 0.3660(6) 0.6676(7)
H69_2 H 0.00528552 0.225389 0.610285
O8_2 O 0.9509(6) 0.1889(8) 0.3690(9)
Nd10_2 Nd 0.97812(3) 0.42087(5) 0.55528(5)
Nd15_2 Nd 0.77609(4) 0.68855(5) 0.22195(5)
Nd17_2 Nd 0.89058(4) 0.64478(5) 0.11138(5)
C10_2 C 0.9779(6) 0.4775(10) 0.3067(10)
C14_2 C 0.8338(8) 0.6446(10) 0.3600(10)
C15_2 C 0.9480(8) 0.4246(13) 0.2500(11)
C19_2 C 0.8568(10) 0.6147(12) 0.4167(11)
H11_2 H 0.9715 0.4068 0.2505
H15_2 H 0.8981 0.6382 0.4162
H16_2 H 0.9132 0.3996 0.2882
H20_2 H 0.8470 0.5799 0.3785
C20_2 C 0.9876(5) 0.3347(9) 0.0254(9)
C24_2 C 0.9863(7) 0.6543(9) 0.6413(9)
C29_2 C 0.9334(9) 0.6420(11) 0.7009(12)
H25_2 H 0.9229 0.6700 0.6799
H30_2 H 0.9431 0.6481 0.7753
C34_2 C 0.8823(10) 0.5846(13) 0.6891(11)
C35_2 C 0.8387(7) 0.3527(12) 0.097(2)
C39_2 C 0.8194(10) 0.5054(12) 0.570(2)
H31_2 H 0.8344 0.3705 0.1600
H35_2 H 0.7973 0.5011 0.5067
H36_2 H 0.8298 0.3696 0.0377
H40_2 H 0.7936 0.4965 0.6290
C40_2 C 0.9327(7) 0.4281(13) 0.1397(12)
C44_2 C 0.8380(11) 0.5994(14) 0.5270(12)
H41_2 H 0.9673 0.4517 0.0998
H45_2 H 0.8490 0.6340 0.5669
H46_2 H 0.9096 0.4463 0.1379
H50_2 H 0.7967 0.5763 0.5288
C45_2 C 0.8063(6) 0.2531(10) 0.1629(13)
C48_2 C 0.8603(6) 0.0803(10) 0.1705(13)
C49_2 C 0.8866(8) 0.4730(10) 0.5038(13)
C50_2 C 0.7978(9) 0.2974(15) 0.100(3)
C53_2 C 0.8688(9) 0.0360(15) 0.234(3)
C54_2 C 0.8338(12) 0.4645(14) 0.567(3)
H51_2 H 0.7637 0.2961 0.1281
H54_2 H 0.9029 0.0373 0.2053
H55_2 H 0.8010 0.4304 0.5386
H56_2 H 0.7895 0.2841 0.0282
H59_2 H 0.8771 0.0493 0.3052
H60_2 H 0.8388 0.4562 0.6385
O9_2 O 0.9804(5) 0.5218(8) 0.2700(7)
O13_2 O 0.7920(6) 0.6471(7) 0.3967(7)
O15_2 O 0.8521(4) 0.2692(7) 0.2074(7)
O18_2 O 0.8145(4) 0.0642(7) 0.1260(7)
O19_2 O 0.9163(6) 0.5188(7) 0.4593(7)
O23_2 O 0.9673(6) 0.3051(7) 0.3343(7)
O27_2 O 0.9955(4) 0.6340(6) 0.3324(7)
O31_2 O 0.9553(4) 0.3079(7) 0.1026(7)
O34_2 O 0.7113(4) 0.0255(7) 0.2308(7)
O35_2 O 0.9808(6) 0.6220(7) 0.5641(7)
O40_2 O 0.8539(4) 0.1884(6) 0.0624(6)
O42_2 O 0.8551(6) 0.6679(7) 0.2709(6)
O43_2 O 0.9988(4) 0.5205(7) 0.6042(6)
O50_2 O 0.6635(4) 0.0962(6) 0.1864(9)
O53_2 O 0.7645(4) 0.2039(7) 0.1626(10)
O56_2 O 0.9021(4) 0.1295(7) 0.1708(10)
O57_2 O 0.8940(6) 0.4312(7) 0.5041(10)
N2_2 N 0.9005(4) 0.3709(7) 0.0884(8)
N6_2 N 0.8630(6) 0.5672(7) 0.5783(8)
H72_2 H 0.779896 0.00528552 0.389715
H73_2 H 0.84734 0.584095 0.732736
H74_2 H 0.892056 0.553437 0.723048
C12_2 C 0.8559(6) 0.1671(8) 0.9733(10)
C17_2 C 0.9088(6) 0.1901(10) 0.9166(11)
H13_2 H 0.9266 0.2314 0.9171
H18_2 H 0.9338 0.1803 0.9548
C22_2 C 0.9987(5) 0.3196(7) 0.6920(9)
C25_2 C 0.9753(6) 0.3753(11) 0.9658(12)
C27_2 C 0.9581(7) 0.2667(9) 0.6324(12)
H23_2 H 0.9196 0.2562 0.6534
H26_2 H 0.9814 0.3717 0.8914
H28_2 H 0.9617 0.2764 0.5580
C30_2 C 0.9179(6) 0.3690(12) 0.9776(11)
C32_2 C 0.9644(8) 0.2156(10) 0.6442(11)
C37_2 C 0.9807(7) 0.1527(10) 0.763(2)
H33_2 H 0.9629 0.1306 0.8266
H38_2 H 0.9638 0.1269 0.7043
C42_2 C 0.9053(8) 0.1713(11) 0.8063(12)
H43_2 H 0.8817 0.1823 0.7664
H48_2 H 0.8871 0.1300 0.8045
O11_2 O 0.8116(4) 0.1253(6) 0.9366(7)
O29_2 O 0.6994(6) 0.0282(7) 0.9990(7)
O63_2 O 0.7158(6) 0.1444(8) 0.9643(9)
N4_2 N 0.9625(4) 0.1963(6) 0.7550(8)
H67_2 H 0.886771 0.328048 0.943619
H68_2 H 0.917429 0.403422 0.933931
H70_2 H 0.929911 0.180674 0.600598
C13_2 C 0.6887(6) 0.8559(10) 0.0267(10)
C18_2 C 0.7186(8) 0.9088(13) 0.0834(11)
H14_2 H 0.6951 0.9266 0.0829
H19_2 H 0.7534 0.9338 0.0452
C23_2 C 0.6790(5) 0.9987(9) 0.3080(9)
C28_2 C 0.6913(6) 0.9581(11) 0.3676(12)
H24_2 H 0.6633 0.9196 0.3466
H29_2 H 0.6852 0.9617 0.4420
C33_2 C 0.7487(6) 0.9644(12) 0.3558(11)
C38_2 C 0.8279(7) 0.9807(12) 0.237(2)
H34_2 H 0.8322 0.9629 0.1734
H39_2 H 0.8368 0.9638 0.2957
C43_2 C 0.7339(7) 0.9053(13) 0.1937(12)
H44_2 H 0.6993 0.8817 0.2336
H49_2 H 0.7570 0.8871 0.1955
O12_2 O 0.6862(5) 0.8116(8) 0.0634(7)
O30_2 O 0.6711(4) 0.6994(6) 0.0010(7)
O64_2 O 0.5713(5) 0.7158(9) 0.0357(9)
N5_2 N 0.7661(4) 0.9625(7) 0.2450(8)
H71_2 H 0.749238 0.929911 0.399402
Nd5_2 Nd 0.64478(3) 0.75421(5) 0.88862(5)
O21_2 O 0.7504(6) 0.8145(7) 0.8740(7)
O37_2 O 0.6859(6) 0.7113(7) 0.7692(7)
O41_2 O 0.6654(4) 0.8539(7) 0.9376(6)
O45_2 O 0.6679(4) 0.8128(7) 0.7291(6)
O51_2 O 0.5672(5) 0.6635(8) 0.8136(9)
O59_2 O 0.5607(6) 0.7645(7) 0.8374(10)
C13_3 C 0.1441(10) 0.8329(8) 0.0267(10)
C18_3 C 0.0912(13) 0.8099(10) 0.0834(11)
H14_3 H 0.0734 0.7686 0.0829
H19_3 H 0.0662 0.8197 0.0452
C23_3 C 0.0013(9) 0.6804(7) 0.3080(9)
C28_3 C 0.0419(11) 0.7333(9) 0.3676(12)
H24_3 H 0.0804 0.7438 0.3466
H29_3 H 0.0383 0.7236 0.4420
C33_3 C 0.0356(12) 0.7844(10) 0.3558(11)
C38_3 C 0.0193(12) 0.8473(10) 0.237(2)
H34_3 H 0.0371 0.8694 0.1734
H39_3 H 0.0362 0.8731 0.2957
C43_3 C 0.0947(13) 0.8287(11) 0.1937(12)
H44_3 H 0.1183 0.8177 0.2336
H49_3 H 0.1129 0.8700 0.1955
O12_3 O 0.1884(8) 0.8747(6) 0.0634(7)
O64_3 O 0.2842(9) 0.8556(8) 0.0357(9)
N5_3 N 0.0375(7) 0.8037(6) 0.2450(8)
H71_3 H 0.0700886 0.819326 0.399402
O51_3 O 0.3365(8) 0.9038(6) 0.8136(9)
O59_3 O 0.2355(7) 0.7961(4) 0.8374(10)
O49_3 O 0.7661(7) 0.0032(4) 0.8531(9)
O6_3 O 0.7629(6) 0.7661(5) 0.1469(9)
O8_3 O 0.8111(8) 0.7620(5) 0.3690(9)
C10_3 C 0.5225(10) 0.5005(8) 0.3067(10)
C11_3 C 0.6446(10) 0.8108(6) 0.6400(10)
C15_3 C 0.5754(13) 0.5235(10) 0.2500(11)
C16_3 C 0.6147(12) 0.7579(6) 0.5833(11)
H11_3 H 0.5932 0.5648 0.2505
H12_3 H 0.6382 0.7401 0.5838
H16_3 H 0.6004 0.5137 0.2882
H17_3 H 0.5799 0.7329 0.6215
C20_3 C 0.6653(9) 0.6530(7) 0.0254(9)
C21_3 C 0.6543(9) 0.6680(5) 0.3587(9)
C26_3 C 0.6420(11) 0.7086(7) 0.2991(12)
H22_3 H 0.6700 0.7471 0.3201
H27_3 H 0.6481 0.7050 0.2247
C31_3 C 0.5846(13) 0.7023(8) 0.3109(11)
C35_3 C 0.6473(12) 0.4861(10) 0.097(2)
C36_3 C 0.5054(12) 0.6860(7) 0.430(2)
H31_3 H 0.6295 0.4640 0.1600
H32_3 H 0.5011 0.7038 0.4933
H36_3 H 0.6304 0.4603 0.0377
H37_3 H 0.4965 0.7029 0.3710
C40_3 C 0.5719(13) 0.5047(11) 0.1397(12)
C41_3 C 0.5994(14) 0.7614(8) 0.4730(12)
H41_3 H 0.5483 0.5157 0.0998
H42_3 H 0.6340 0.7850 0.4331
H46_3 H 0.5537 0.4634 0.1379
H47_3 H 0.5763 0.7796 0.4712
C45_3 C 0.7469(10) 0.5533(8) 0.1629(13)
C46_3 C 0.4730(10) 0.5864(6) 0.4962(13)
C48_3 C 0.9197(10) 0.7801(8) 0.1705(13)
C50_3 C 0.7026(15) 0.5005(12) 0.100(3)
C51_3 C 0.4645(14) 0.6307(8) 0.433(3)
C53_3 C 0.9640(15) 0.8329(12) 0.234(3)
H51_3 H 0.7039 0.4677 0.1281
H52_3 H 0.4304 0.6294 0.4614
H54_3 H 0.9627 0.8657 0.2053
H56_3 H 0.7159 0.5055 0.0282
H57_3 H 0.4562 0.6174 0.3615
H59_3 H 0.9507 0.8279 0.3052
O10_3 O 0.6471(7) 0.8551(4) 0.6033(7)
O15_3 O 0.7308(7) 0.5830(6) 0.2074(7)
O16_3 O 0.5188(7) 0.6025(4) 0.5407(7)
O18_3 O 0.9358(7) 0.7504(6) 0.1260(7)
O20_3 O 0.5830(6) 0.8521(4) 0.7926(7)
O23_3 O 0.6949(7) 0.6622(4) 0.3343(7)
O31_3 O 0.6921(7) 0.6475(6) 0.1026(7)
O32_3 O 0.6220(7) 0.6412(4) 0.4359(7)
O34_3 O 0.9745(7) 0.6859(6) 0.2308(7)
O36_3 O 0.6475(6) 0.9553(4) 0.8974(7)
O40_3 O 0.8116(6) 0.6654(4) 0.0624(6)
O50_3 O 0.9038(6) 0.5672(5) 0.1864(9)
O53_3 O 0.7961(7) 0.5607(6) 0.1626(10)
O56_3 O 0.8705(7) 0.7727(6) 0.1708(10)
O58_3 O 0.7727(6) 0.9021(4) 0.8292(10)
O62_3 O 0.7620(10) 0.9509(6) 0.6310(9)
N2_3 N 0.6291(7) 0.5297(6) 0.0884(8)
N3_3 N 0.5672(7) 0.7042(4) 0.4217(8)
H72_3 H 0.994714 0.774611 0.389715
H75_3 H 0.553437 0.661381 0.276952
H76_3 H 0.584095 0.736755 0.267264
C12_3 C 0.8329(8) 0.6887(6) 0.9733(10)
C17_3 C 0.8099(10) 0.7186(8) 0.9166(11)
H13_3 H 0.7686 0.6951 0.9171
H18_3 H 0.8197 0.7534 0.9548
C22_3 C 0.6804(7) 0.6790(5) 0.6920(9)
C25_3 C 0.6247(11) 0.6001(9) 0.9658(12)
C27_3 C 0.7333(9) 0.6913(6) 0.6324(12)
H21_3 H 0.5862 0.5896 0.9868
H23_3 H 0.7438 0.6633 0.6534
H26_3 H 0.6283 0.6098 0.8914
H28_3 H 0.7236 0.6852 0.5580
C30_3 C 0.6310(12) 0.5490(10) 0.9776(11)
C32_3 C 0.7844(10) 0.7487(6) 0.6442(11)
C37_3 C 0.8473(10) 0.8279(7) 0.763(2)
H33_3 H 0.8694 0.8322 0.8266
H38_3 H 0.8731 0.8368 0.7043
C42_3 C 0.8287(11) 0.7339(7) 0.8063(12)
H43_3 H 0.8177 0.6993 0.7664
H48_3 H 0.8700 0.7570 0.8045
C47_3 C 0.7801(8) 0.8603(6) 0.8295(13)
C52_3 C 0.8329(12) 0.8688(9) 0.766(3)
H53_3 H 0.8657 0.9029 0.7947
H58_3 H 0.8279 0.8771 0.6948
O11_3 O 0.8747(6) 0.6862(5) 0.9366(7)
O24_3 O 0.6340(6) 0.6384(4) 0.6676(7)
O29_3 O 0.9718(7) 0.6711(4) 0.9990(7)
O63_3 O 0.8556(8) 0.5713(5) 0.9643(9)
N4_3 N 0.8037(6) 0.7661(4) 0.7550(8)
H67_3 H 0.671952 0.558723 0.943619
H68_3 H 0.596578 0.514007 0.933931
H69_3 H 0.774611 0.779896 0.610285
H70_3 H 0.819326 0.749238 0.600598
C4_2 C 0.0247(6) 0.6247(7) 0.0342(12)
H4_2 H 0.0186 0.6283 0.1086
C5_2 C 0.0821(6) 0.6310(8) 0.0224(11)
C29_3 C 0.3753(7) 0.3999(9) 0.0342(12)
H25_3 H 0.4138 0.4104 0.0132
H30_3 H 0.3717 0.3902 0.1086
C34_3 C 0.3690(8) 0.4510(10) 0.0224(11)
H61_2 H 0.0825712 0.596578 0.0660689
H62_2 H 0.113229 0.671952 0.0563814
H73_3 H 0.403422 0.485993 0.0660689
H74_3 H 0.328048 0.441277 0.0563814
C1_2 C 0.0221(6) 0.5225(6) 0.6933(10)
C2_2 C 0.0520(8) 0.5754(6) 0.7500(11)
H1_2 H 0.0285 0.5932 0.7495
H2_2 H 0.0868 0.6004 0.7118
C3_2 C 0.0124(5) 0.6653(5) 0.9746(9)
C6_2 C 0.1613(7) 0.6473(7) 0.903(2)
H5_2 H 0.1656 0.6295 0.8400
H6_2 H 0.1702 0.6304 0.9623
C7_2 C 0.0673(7) 0.5719(8) 0.8603(12)
H7_2 H 0.0327 0.5483 0.9002
H8_2 H 0.0904 0.5537 0.8621
C8_2 C 0.1937(6) 0.7469(6) 0.8371(13)
C9_2 C 0.2022(9) 0.7026(8) 0.900(3)
H9_2 H 0.2363 0.7039 0.8719
H10_2 H 0.2105 0.7159 0.9718
O1_2 O 0.0196(5) 0.4782(4) 0.7300(7)
N1_2 N 0.0995(4) 0.6291(4) 0.9116(8)
C14_3 C 0.4775(6) 0.4995(8) 0.6933(10)
C19_3 C 0.4246(6) 0.4765(10) 0.7500(11)
H15_3 H 0.4068 0.4352 0.7495
H20_3 H 0.3996 0.4863 0.7118
C24_3 C 0.3347(5) 0.3470(7) 0.9746(9)
C39_3 C 0.3527(7) 0.5139(10) 0.903(2)
H35_3 H 0.3705 0.5360 0.8400
H40_3 H 0.3696 0.5397 0.9623
C44_3 C 0.4281(8) 0.4953(11) 0.8603(12)
H45_3 H 0.4517 0.4843 0.9002
H50_3 H 0.4463 0.5366 0.8621
C49_3 C 0.2531(6) 0.4467(8) 0.8371(13)
C54_3 C 0.2974(8) 0.4995(12) 0.900(3)
H55_3 H 0.2961 0.5323 0.8719
H60_3 H 0.2841 0.4945 0.9718
O13_3 O 0.5218(4) 0.5413(6) 0.7300(7)
N6_3 N 0.3709(4) 0.4703(6) 0.9116(8)
H83 H 0.000304728 0.767063 0.930969
H3_2 H 0.9967 0.5862 0.0132
O6_4 O 0.9006(5) 0.3301(4) 0.4802(9)
O8_4 O 0.9047(5) 0.3824(6) 0.7023(9)
H25_4 H 0.5896 0.0033 0.0132
C29_4 C 0.6001(9) 0.9753(11) 0.0342(12)
H30_4 H 0.6098 0.9814 0.1086
C34_4 C 0.5490(10) 0.9179(13) 0.0224(11)
H73_4 H 0.514007 0.917429 0.0660689
H74_4 H 0.558723 0.886771 0.0563814
O6_5 O 0.6699(4) 0.5704(6) 0.4802(9)
O8_5 O 0.6176(6) 0.5222(8) 0.7023(9)
C14_4 C 0.5005(8) 0.9779(10) 0.6933(10)
C19_4 C 0.5235(10) 0.9480(12) 0.7500(11)
H15_4 H 0.5648 0.9715 0.7495
H20_4 H 0.5137 0.9132 0.7118
C24_4 C 0.6530(7) 0.9876(9) 0.9746(9)
C39_4 C 0.4861(10) 0.8387(12) 0.903(2)
H35_4 H 0.4640 0.8344 0.8400
H40_4 H 0.4603 0.8298 0.9623
C44_4 C 0.5047(11) 0.9327(14) 0.8603(12)
H45_4 H 0.5157 0.9673 0.9002
H50_4 H 0.4634 0.9096 0.8621
C49_4 C 0.5533(8) 0.8063(10) 0.8371(13)
C54_4 C 0.5005(12) 0.7978(14) 0.900(3)
H55_4 H 0.4677 0.7637 0.8719
H60_4 H 0.5055 0.7895 0.9718
O13_4 O 0.4587(6) 0.9804(7) 0.7300(7)
N6_4 N 0.5297(6) 0.9005(7) 0.9116(8)
O6_6 O 0.4296(6) 0.0994(5) 0.4802(9)
O8_6 O 0.4778(8) 0.0953(5) 0.7023(9)
H83_2 H 0.766758 0.999695 0.930969
H87 H 0.797297 0.997173 0.879442
H87_2 H 0.00282722 0.800124 0.879442
H83_3 H 0.999695 0.232937 0.0690307
H83_4 H 0.233242 0.000304728 0.0690307
H87_3 H 0.202703 0.00282722 0.120558
H87_4 H 0.997173 0.199876 0.120558
Br1 Br 0.91941(11) 0.76903(15) 0.5393(2)
Br1_2 Br 0.23097(15) 0.15038(19) 0.5393(2)
Br1_3 Br 0.84962(19) 0.08059(11) 0.5393(2)
Br1_4 Br 0.58608(11) 0.10236(15) 0.8726(2)
Br1_5 Br 0.89764(15) 0.48371(19) 0.8726(2)
Br1_6 Br 0.51629(19) 0.41392(11) 0.8726(2)
Br1_7 Br 0.25274(11) 0.43570(15) 0.2060(2)
Br1_8 Br 0.56430(15) 0.81705(19) 0.2060(2)
Br1_9 Br 0.18295(19) 0.74726(11) 0.2060(2)
Br1_10 Br 0.08059(11) 0.23097(15) 0.4607(2)
Br1_11 Br 0.76903(15) 0.84962(19) 0.4607(2)
Br1_12 Br 0.15038(19) 0.91941(11) 0.4607(2)
Br1_13 Br 0.41392(11) 0.89764(15) 0.1274(2)
Br1_14 Br 0.10236(15) 0.51629(19) 0.1274(2)
Br1_15 Br 0.48371(19) 0.58608(11) 0.1274(2)
Br1_16 Br 0.74726(11) 0.56430(15) 0.7940(2)
Br1_17 Br 0.43570(15) 0.18295(19) 0.7940(2)
Br1_18 Br 0.81705(19) 0.25274(11) 0.7940(2)
loop_
_geom_bond_atom_site_label_1
_geom_bond_atom_site_label_2
_geom_bond_site_symmetry_1
_geom_bond_site_symmetry_2
Nd1 O1 1_555 1_555
C1 C2 1_555 1_555
C2 H1 1_555 1_555
H2 C2 1_555 1_555
C3 C4 1_555 1_555
C4 H3 1_555 1_555
H4 C4 1_555 1_555
C5 C4 1_555 1_555
C6 H5 1_555 1_555
H6 C6 1_555 1_555
C7 C2 1_555 1_555
H7 C7 1_555 1_555
H8 C7 1_555 1_555
C8 C9 1_555 1_555
C9 C6 1_555 1_555
H9 C9 1_555 1_555
H10 C9 1_555 1_555
O1 C1 1_555 1_555
O2 C8 1_555 1_555
O3 C3 1_555 1_555
O4 C3 1_555 1_555
O5 Nd1 1_555 1_555
O7 C8 1_555 1_555
O8 Nd1 1_555 1_555
N1 C5 1_555 1_555
Nd4 O5 1_555 1_555
Nd6 O2 1_555 1_555
Nd7 O3 1_555 1_555
Nd8 O7 1_555 1_555
Nd15 O13 1_555 1_555
Nd17 O42 1_555 1_555
C10 C15 1_555 1_555
C13 C18 1_555 1_555
C14 C19 1_555 1_555
C15 H11 1_555 1_555
C18 H14 1_555 1_555
C19 H15 1_555 1_555
H16 C15 1_555 1_555
H19 C18 1_555 1_555
H20 C19 1_555 1_555
C23 C28 1_555 1_555
C24 C29 1_555 1_555
C28 H24 1_555 1_555
C29 H25 1_555 1_555
H29 C28 1_555 1_555
H30 C29 1_555 1_555
C33 C28 1_555 1_555
C34 C29 1_555 1_555
C35 H31 1_555 1_555
C38 H34 1_555 1_555
C39 H35 1_555 1_555
H36 C35 1_555 1_555
H39 C38 1_555 1_555
H40 C39 1_555 1_555
C40 C15 1_555 1_555
C43 C18 1_555 1_555
C44 C19 1_555 1_555
H41 C40 1_555 1_555
H44 C43 1_555 1_555
H45 C44 1_555 1_555
H46 C40 1_555 1_555
H49 C43 1_555 1_555
H50 C44 1_555 1_555
C45 C50 1_555 1_555
C48 C53 1_555 1_555
C49 C54 1_555 1_555
C50 C35 1_555 1_555
C53 C38 1_555 1_555
C54 C39 1_555 1_555
H51 C50 1_555 1_555
H54 C53 1_555 1_555
H55 C54 1_555 1_555
H56 C50 1_555 1_555
H59 C53 1_555 1_555
H60 C54 1_555 1_555
O9 C10 1_555 1_555
O12 C13 1_555 1_555
O13 C14 1_555 1_555
O14 Nd6 1_555 1_555
O15 Nd1 1_555 1_555
O18 Nd4 1_555 1_555
O23 Nd1 1_555 1_555
O25 Nd6 1_555 1_555
O31 Nd1 1_555 1_555
O34 Nd4 1_555 1_555
O40 Nd1 1_555 1_555
O42 Nd15 1_555 1_555
O46 Nd6 1_555 1_555
O47 Nd6 1_555 1_555
O50 Nd4 1_555 1_555
O52 Nd6 1_555 1_555
O53 Nd4 1_555 1_555
O56 Nd1 1_555 1_555
O57 Nd10 1_555 1_555
O60 Nd6 1_555 1_555
O65 Nd6 1_555 1_555
N5 C33 1_555 1_555
N6 C34 1_555 1_555
C1 O5 1_555 1_555
C6 N1 1_555 1_555
C7 N1 1_555 1_555
O4 Nd6 1_555 1_555
Nd4 O40 1_555 1_555
Nd8 O46 1_555 1_555
Nd8 O47 1_555 1_555
Nd10 O43 1_555 1_555
C14 O42 1_555 1_555
C20 O31 1_555 1_555
C23 O25 1_555 1_555
C23 O34 1_555 1_555
C24 O35 1_555 1_555
C35 N2 1_555 1_555
C38 N5 1_555 1_555
C39 N6 1_555 1_555
C40 N2 1_555 1_555
C43 N5 1_555 1_555
C44 N6 1_555 1_555
C45 O15 1_555 1_555
C45 O53 1_555 1_555
C48 O18 1_555 1_555
C48 O56 1_555 1_555
C49 O19 1_555 1_555
C49 O57 1_555 1_555
C5 H61 1_555 1_555
C5 H62 1_555 1_555
C33 H71 1_555 1_555
C33 H72 1_555 1_555
C34 H73 1_555 1_555
C34 H74 1_555 1_555
Nd7 O41 1_555 1_555
C12 C17 1_555 1_555
C17 H13 1_555 1_555
H18 C17 1_555 1_555
C22 C27 1_555 1_555
C27 H23 1_555 1_555
H26 C25 1_555 1_555
H28 C27 1_555 1_555
C30 C25 1_555 1_555
C32 C27 1_555 1_555
C37 H33 1_555 1_555
H38 C37 1_555 1_555
C42 C17 1_555 1_555
H43 C42 1_555 1_555
H48 C42 1_555 1_555
O21 Nd5 1_555 1_555
O37 Nd5 1_555 1_555
O41 Nd5 1_555 1_555
O45 Nd5 1_555 1_555
O51 Nd5 1_555 1_555
O59 Nd5 1_555 1_555
N4 C32 1_555 1_555
Nd7 O45 1_555 1_555
C12 O11 1_555 1_555
C37 N4 1_555 1_555
C42 N4 1_555 1_555
C30 H67 1_555 1_555
C30 H68 1_555 1_555
C32 H70 1_555 1_555
Nd3 O10 1_555 1_555
Nd11 O39 1_555 1_555
Nd16 O26 1_555 1_555
C11 C16 1_555 1_555
C16 H12 1_555 1_555
H17 C16 1_555 1_555
C21 C26 1_555 1_555
C26 H22 1_555 1_555
H27 C26 1_555 1_555
C31 C26 1_555 1_555
C36 H32 1_555 1_555
H37 C36 1_555 1_555
C41 C16 1_555 1_555
H42 C41 1_555 1_555
H47 C41 1_555 1_555
C46 C51 1_555 1_555
C51 C36 1_555 1_555
H52 C51 1_555 1_555
H57 C51 1_555 1_555
O10 C11 1_555 1_555
O16 C46 1_555 1_555
O20 Nd3 1_555 1_555
O28 Nd3 1_555 1_555
O36 Nd3 1_555 1_555
O38 Nd2 1_555 1_555
O39 Nd3 1_555 1_555
O44 Nd3 1_555 1_555
O48 Nd2 1_555 1_555
O54 Nd2 1_555 1_555
O58 Nd3 1_555 1_555
O61 Nd2 1_555 1_555
O62 Nd3 1_555 1_555
N3 C31 1_555 1_555
Nd11 O44 1_555 1_555
C11 O39 1_555 1_555
C21 O32 1_555 1_555
C36 N3 1_555 1_555
C41 N3 1_555 1_555
C46 O54 1_555 1_555
C31 H75 1_555 1_555
C31 H76 1_555 1_555
Nd11 O17 1_555 1_555
C47 C52 1_555 1_555
H53 C52 1_555 1_555
H58 C52 1_555 1_555
O17 C47 1_555 1_555
O33 Nd11 1_555 1_555
O58 C47 1_555 1_555
Nd7 O10_2 1_555 1_555
C11_2 C16_2 1_555 1_555
C16_2 H12_2 1_555 1_555
H17_2 C16_2 1_555 1_555
C21_2 C26_2 1_555 1_555
C26_2 H22_2 1_555 1_555
H27_2 C26_2 1_555 1_555
C31_2 C26_2 1_555 1_555
C36_2 H32_2 1_555 1_555
H37_2 C36_2 1_555 1_555
C41_2 C16_2 1_555 1_555
H42_2 C41_2 1_555 1_555
H47_2 C41_2 1_555 1_555
C46_2 C51_2 1_555 1_555
C51_2 C36_2 1_555 1_555
H52_2 C51_2 1_555 1_555
H57_2 C51_2 1_555 1_555
O10_2 C11_2 1_555 1_555
O16_2 C46_2 1_555 1_555
O20_2 Nd7 1_555 1_555
O36_2 Nd7 1_555 1_555
O38_2 Nd2_2 1_555 1_555
O48_2 Nd2_2 1_555 1_555
O49_2 Nd7 1_555 1_555
O54_2 Nd2_2 1_555 1_555
O58_2 Nd7 1_555 1_555
O61_2 Nd2_2 1_555 1_555
O62_2 Nd7 1_555 1_555
N3_2 C31_2 1_555 1_555
C11_2 O45 1_555 1_555
C21_2 O32_2 1_555 1_555
C36_2 N3_2 1_555 1_555
C41_2 N3_2 1_555 1_555
C46_2 O54_2 1_555 1_555
C31_2 H75_2 1_555 1_555
C31_2 H76_2 1_555 1_555
C47_2 C52_2 1_555 1_555
H53_2 C52_2 1_555 1_555
H58_2 C52_2 1_555 1_555
O21 C47_2 1_555 1_555
O58_2 C47_2 1_555 1_555
O8_2 Nd15 1_555 1_555
Nd15_2 O13_2 1_555 1_555
Nd17_2 O42_2 1_555 1_555
C10_2 C15_2 1_555 1_555
C14_2 C19_2 1_555 1_555
C15_2 H11_2 1_555 1_555
C19_2 H15_2 1_555 1_555
H16_2 C15_2 1_555 1_555
H20_2 C19_2 1_555 1_555
C24_2 C29_2 1_555 1_555
C29_2 H25_2 1_555 1_555
H30_2 C29_2 1_555 1_555
C34_2 C29_2 1_555 1_555
C35_2 H31_2 1_555 1_555
C39_2 H35_2 1_555 1_555
H36_2 C35_2 1_555 1_555
H40_2 C39_2 1_555 1_555
C40_2 C15_2 1_555 1_555
C44_2 C19_2 1_555 1_555
H41_2 C40_2 1_555 1_555
H45_2 C44_2 1_555 1_555
H46_2 C40_2 1_555 1_555
H50_2 C44_2 1_555 1_555
C45_2 C50_2 1_555 1_555
C48_2 C53_2 1_555 1_555
C49_2 C54_2 1_555 1_555
C50_2 C35_2 1_555 1_555
C54_2 C39_2 1_555 1_555
H51_2 C50_2 1_555 1_555
H54_2 C53_2 1_555 1_555
H55_2 C54_2 1_555 1_555
H56_2 C50_2 1_555 1_555
H59_2 C53_2 1_555 1_555
H60_2 C54_2 1_555 1_555
O9_2 C10_2 1_555 1_555
O13_2 C14_2 1_555 1_555
O15_2 Nd15 1_555 1_555
O18_2 Nd17 1_555 1_555
O23_2 Nd15 1_555 1_555
O31_2 Nd15 1_555 1_555
O34_2 Nd17 1_555 1_555
O40_2 Nd15 1_555 1_555
O42_2 Nd15_2 1_555 1_555
O50_2 Nd17 1_555 1_555
O53_2 Nd17 1_555 1_555
O56_2 Nd15 1_555 1_555
O57_2 Nd10_2 1_555 1_555
N6_2 C34_2 1_555 1_555
Nd17 O40_2 1_555 1_555
Nd10_2 O43_2 1_555 1_555
C14_2 O42_2 1_555 1_555
C20_2 O31_2 1_555 1_555
C24_2 O35_2 1_555 1_555
C35_2 N2_2 1_555 1_555
C39_2 N6_2 1_555 1_555
C40_2 N2_2 1_555 1_555
C44_2 N6_2 1_555 1_555
C45_2 O15_2 1_555 1_555
C45_2 O53_2 1_555 1_555
C48_2 O18_2 1_555 1_555
C48_2 O56_2 1_555 1_555
C49_2 O19_2 1_555 1_555
C49_2 O57_2 1_555 1_555
C34_2 H73_2 1_555 1_555
C34_2 H74_2 1_555 1_555
C12_2 C17_2 1_555 1_555
C17_2 H13_2 1_555 1_555
H18_2 C17_2 1_555 1_555
C22_2 C27_2 1_555 1_555
C27_2 H23_2 1_555 1_555
H26_2 C25_2 1_555 1_555
H28_2 C27_2 1_555 1_555
C30_2 C25_2 1_555 1_555
C32_2 C27_2 1_555 1_555
C37_2 H33_2 1_555 1_555
H38_2 C37_2 1_555 1_555
C42_2 C17_2 1_555 1_555
H43_2 C42_2 1_555 1_555
H48_2 C42_2 1_555 1_555
N4_2 C32_2 1_555 1_555
C12_2 O11_2 1_555 1_555
C37_2 N4_2 1_555 1_555
C42_2 N4_2 1_555 1_555
C30_2 H67_2 1_555 1_555
C30_2 H68_2 1_555 1_555
C32_2 H70_2 1_555 1_555
C13_2 C18_2 1_555 1_555
C18_2 H14_2 1_555 1_555
H19_2 C18_2 1_555 1_555
C23_2 C28_2 1_555 1_555
C28_2 H24_2 1_555 1_555
H29_2 C28_2 1_555 1_555
C33_2 C28_2 1_555 1_555
C38_2 H34_2 1_555 1_555
H39_2 C38_2 1_555 1_555
C43_2 C18_2 1_555 1_555
H44_2 C43_2 1_555 1_555
H49_2 C43_2 1_555 1_555
O12_2 C13_2 1_555 1_555
N5_2 C33_2 1_555 1_555
C38_2 N5_2 1_555 1_555
C43_2 N5_2 1_555 1_555
C33_2 H71_2 1_555 1_555
Nd16 O41_2 1_555 1_555
O21_2 Nd5_2 1_555 1_555
O37_2 Nd5_2 1_555 1_555
O41_2 Nd5_2 1_555 1_555
O45_2 Nd5_2 1_555 1_555
O51_2 Nd5_2 1_555 1_555
O59_2 Nd5_2 1_555 1_555
Nd16 O45_2 1_555 1_555
C13_3 C18_3 1_555 1_555
C18_3 H14_3 1_555 1_555
H19_3 C18_3 1_555 1_555
C23_3 C28_3 1_555 1_555
C28_3 H24_3 1_555 1_555
H29_3 C28_3 1_555 1_555
C33_3 C28_3 1_555 1_555
C38_3 H34_3 1_555 1_555
H39_3 C38_3 1_555 1_555
C43_3 C18_3 1_555 1_555
H44_3 C43_3 1_555 1_555
H49_3 C43_3 1_555 1_555
O12_3 C13_3 1_555 1_555
N5_3 C33_3 1_555 1_555
C38_3 N5_3 1_555 1_555
C43_3 N5_3 1_555 1_555
C33_3 H71_3 1_555 1_555
O51_3 Nd11 1_555 1_555
O59_3 Nd11 1_555 1_555
O6_3 Nd15_2 1_555 1_555
O8_3 Nd15_2 1_555 1_555
Nd16 O10_3 1_555 1_555
Nd8 O16_3 1_555 1_555
C10_3 C15_3 1_555 1_555
C11_3 C16_3 1_555 1_555
C15_3 H11_3 1_555 1_555
C16_3 H12_3 1_555 1_555
H16_3 C15_3 1_555 1_555
H17_3 C16_3 1_555 1_555
C21_3 C26_3 1_555 1_555
C26_3 H22_3 1_555 1_555
H27_3 C26_3 1_555 1_555
C31_3 C26_3 1_555 1_555
C35_3 H31_3 1_555 1_555
C36_3 H32_3 1_555 1_555
H36_3 C35_3 1_555 1_555
H37_3 C36_3 1_555 1_555
C40_3 C15_3 1_555 1_555
C41_3 C16_3 1_555 1_555
H41_3 C40_3 1_555 1_555
H42_3 C41_3 1_555 1_555
H46_3 C40_3 1_555 1_555
H47_3 C41_3 1_555 1_555
C45_3 C50_3 1_555 1_555
C46_3 C51_3 1_555 1_555
C48_3 C53_3 1_555 1_555
C50_3 C35_3 1_555 1_555
C51_3 C36_3 1_555 1_555
H51_3 C50_3 1_555 1_555
H52_3 C51_3 1_555 1_555
H54_3 C53_3 1_555 1_555
H56_3 C50_3 1_555 1_555
H57_3 C51_3 1_555 1_555
H59_3 C53_3 1_555 1_555
O14 C10_3 1_555 1_555
O10_3 C11_3 1_555 1_555
O15_3 Nd15_2 1_555 1_555
O16_3 C46_3 1_555 1_555
O18_3 Nd17_2 1_555 1_555
O20_3 Nd16 1_555 1_555
O23_3 Nd15_2 1_555 1_555
O31_3 Nd15_2 1_555 1_555
O32_3 Nd8 1_555 1_555
O34_3 Nd17_2 1_555 1_555
O36_3 Nd16 1_555 1_555
O40_3 Nd15_2 1_555 1_555
O50_3 Nd17_2 1_555 1_555
O53_3 Nd17_2 1_555 1_555
O56_3 Nd15_2 1_555 1_555
O58_3 Nd16 1_555 1_555
O62_3 Nd16 1_555 1_555
N3_3 C31_3 1_555 1_555
Nd17_2 O40_3 1_555 1_555
C10_3 O47 1_555 1_555
C11_3 O45_2 1_555 1_555
C20_3 O30_2 1_555 1_555
C20_3 O31_3 1_555 1_555
C21_3 O23_3 1_555 1_555
C21_3 O32_3 1_555 1_555
C35_3 N2_3 1_555 1_555
C36_3 N3_3 1_555 1_555
C40_3 N2_3 1_555 1_555
C41_3 N3_3 1_555 1_555
C45_3 O15_3 1_555 1_555
C45_3 O53_3 1_555 1_555
C46_3 O60 1_555 1_555
C48_3 O18_3 1_555 1_555
C48_3 O56_3 1_555 1_555
C31_3 H75_3 1_555 1_555
C31_3 H76_3 1_555 1_555
Nd8 O24_3 1_555 1_555
C12_3 C17_3 1_555 1_555
C17_3 H13_3 1_555 1_555
H18_3 C17_3 1_555 1_555
C22_3 C27_3 1_555 1_555
C25_3 H21_3 1_555 1_555
C27_3 H23_3 1_555 1_555
H26_3 C25_3 1_555 1_555
H28_3 C27_3 1_555 1_555
C30_3 C25_3 1_555 1_555
C32_3 C27_3 1_555 1_555
C37_3 H33_3 1_555 1_555
H38_3 C37_3 1_555 1_555
C42_3 C17_3 1_555 1_555
H43_3 C42_3 1_555 1_555
H48_3 C42_3 1_555 1_555
C47_3 C52_3 1_555 1_555
C52_3 C37_3 1_555 1_555
H53_3 C52_3 1_555 1_555
H58_3 C52_3 1_555 1_555
O21_2 C47_3 1_555 1_555
O24_3 C22_3 1_555 1_555
O58_3 C47_3 1_555 1_555
N4_3 C32_3 1_555 1_555
C12_3 O11_3 1_555 1_555
C22_3 O37_2 1_555 1_555
C37_3 N4_3 1_555 1_555
C42_3 N4_3 1_555 1_555
C30_3 H67_3 1_555 1_555
C30_3 H68_3 1_555 1_555
C32_3 H69_3 1_555 1_555
C32_3 H70_3 1_555 1_555
H4_2 C4_2 1_555 1_555
C5_2 C4_2 1_555 1_555
C29_3 H25_3 1_555 1_555
H30_3 C29_3 1_555 1_555
C34_3 C29_3 1_555 1_555
C5_2 H61_2 1_555 1_555
C5_2 H62_2 1_555 1_555
C34_3 H73_3 1_555 1_555
C34_3 H74_3 1_555 1_555
C1_2 C2_2 1_555 1_555
C2_2 H1_2 1_555 1_555
H2_2 C2_2 1_555 1_555
C6_2 H5_2 1_555 1_555
H6_2 C6_2 1_555 1_555
C7_2 C2_2 1_555 1_555
H7_2 C7_2 1_555 1_555
H8_2 C7_2 1_555 1_555
C8_2 C9_2 1_555 1_555
C9_2 C6_2 1_555 1_555
H9_2 C9_2 1_555 1_555
H10_2 C9_2 1_555 1_555
O1_2 C1_2 1_555 1_555
O20 C8_2 1_555 1_555
O36 C3_2 1_555 1_555
O59_3 C8_2 1_555 1_555
Nd8 O13_3 1_555 1_555
C14_3 C19_3 1_555 1_555
C19_3 H15_3 1_555 1_555
H20_3 C19_3 1_555 1_555
C39_3 H35_3 1_555 1_555
H40_3 C39_3 1_555 1_555
C44_3 C19_3 1_555 1_555
H45_3 C44_3 1_555 1_555
H50_3 C44_3 1_555 1_555
C49_3 C54_3 1_555 1_555
C54_3 C39_3 1_555 1_555
H55_3 C54_3 1_555 1_555
H60_3 C54_3 1_555 1_555
O13_3 C14_3 1_555 1_555
O29 C24_3 1_555 1_555
C6_2 N1_2 1_555 1_555
C7_2 N1_2 1_555 1_555
C14_3 O46 1_555 1_555
C24_3 O36_2 1_555 1_555
C39_3 N6_3 1_555 1_555
C44_3 N6_3 1_555 1_555
C49_3 O20_2 1_555 1_555
C49_3 O59 1_555 1_555
O6_4 Nd10_2 1_555 1_555
O8_4 Nd10_2 1_555 1_555
H30_4 C29_4 1_555 1_555
C34_4 C29_4 1_555 1_555
C34_4 H73_4 1_555 1_555
C34_4 H74_4 1_555 1_555
O6_5 Nd8 1_555 1_555
O8_5 Nd8 1_555 1_555
C14_4 C19_4 1_555 1_555
C19_4 H15_4 1_555 1_555
H20_4 C19_4 1_555 1_555
C39_4 H35_4 1_555 1_555
H40_4 C39_4 1_555 1_555
C44_4 C19_4 1_555 1_555
H45_4 C44_4 1_555 1_555
H50_4 C44_4 1_555 1_555
C49_4 C54_4 1_555 1_555
C54_4 C39_4 1_555 1_555
H55_4 C54_4 1_555 1_555
H60_4 C54_4 1_555 1_555
O13_4 C14_4 1_555 1_555
C24_4 O36_3 1_555 1_555
C39_4 N6_4 1_555 1_555
C44_4 N6_4 1_555 1_555
C49_4 O20_3 1_555 1_555
C49_4 O59_2 1_555 1_555
O6_6 Nd10 1_555 1_555
O8_6 Nd10 1_555 1_555

#END
