
###############################################################################
#
# This file contains modified crystal structure data generated from the
# MOF subset of the Cambridge Structural Database (CSD) v543 
# hosted by the Cambridge Crystallographic Data Centre (CCDC).
#
# This work is licensed under the Creative Commons
# Attribution-NonCommercial-ShareAlike 4.0 International License.
# To view a copy of this license, visit
# http://creativecommons.org/licenses/by-nc-sa/4.0/
# or send a letter to
# Creative Commons, PO Box 1866, Mountain View, CA 94042, USA.
#
# CIF created using the CSD Python API on 29 September 2022
# The structure has been converted into the P1 space group
# The structure has a 3D framework
# The original CSD entry PADKIP27 is in the orthorhombic crystal system
# The framework has been calculated to contain at least 10.0% void space
# The void calculation uses a probe of radius 1.32A, grid spacing 0.4
# The framework is charged, counterions have been retained in the structure
#
###############################################################################

data_PADKIP27
_chemical_formula_moiety         '(C12 H12 Mn10 O24 10-)n'
_symmetry_cell_setting           triclinic
_symmetry_space_group_name_H-M   'P 1'
_symmetry_Int_Tables_number      1
_space_group_name_Hall           'P 1'
loop_
_symmetry_equiv_pos_site_id
_symmetry_equiv_pos_as_xyz
1 x,y,z
_cell_length_a                   8.6985(3)
_cell_length_b                   12.3141(4)
_cell_length_c                   8.8804(3)
_cell_angle_alpha                90
_cell_angle_beta                 90
_cell_angle_gamma                90
_cell_volume                     951.217
loop_
_atom_site_label
_atom_site_type_symbol
_atom_site_fract_x
_atom_site_fract_y
_atom_site_fract_z
Mn1 Mn 0.0000 0.5000 0.5000
O1 O 0.2159(3) 0.55071(19) 0.3926(2)
O2 O 0.0191(3) 0.33980(18) 0.4032(2)
O3 O 0.3830(3) 0.55614(18) 0.2063(2)
C1 C 0.2743(4) 0.5152(3) 0.2750(4)
H1 H 0.2325 0.4518 0.2354
C2 C 0.0022(5) 0.2500 0.4607(5)
O4 O 0.0191(3) 0.16020(18) 0.4032(2)
Mn3 Mn 0.5000 0.5000 0.0000
Mn4 Mn 0.0000 0.0000 0.5000
O8 O 0.1170(3) 0.44386(18) 0.7063(2)
Mn3_2 Mn 0.5000 0.5000 1.0000
Mn4_2 Mn 0.0000 1.0000 0.5000
Mn1_2 Mn 1.0000 0.5000 0.5000
H2 H 0.9705 0.2500 0.5607
O5 O 0.7841(3) 0.44929(19) 0.6074(2)
O6 O 0.6170(3) 0.44386(18) 0.7937(2)
C3 C 0.7257(4) 0.4848(3) 0.7250(4)
H3 H 0.7675 0.5482 0.7646
Mn4_3 Mn 1.0000 0.0000 0.5000
O7 O 0.9809(3) 0.66020(18) 0.5968(2)
O9 O 0.8830(3) 0.55614(18) 0.2937(2)
Mn4_4 Mn 1.0000 1.0000 0.5000
Mn4_5 Mn 0.5000 -0.0000 0.0000
Mn4_6 Mn 0.5000 0.0000 1.0000
H2_2 H 0.5295 0.7500 0.0607
O5_2 O 0.7159(3) 0.55071(19) 0.1074(2)
C3_2 C 0.7743(4) 0.5152(3) 0.2250(4)
H3_2 H 0.7325 0.4518 0.2646
Mn4_7 Mn 0.5000 1.0000 0.0000
O7_2 O 0.5191(3) 0.33980(18) 0.0968(2)
O1_2 O 0.2841(3) 0.44929(19) 0.8926(2)
O2_2 O 0.4809(3) 0.66020(18) 0.9032(2)
C1_2 C 0.2257(4) 0.4848(3) 0.7750(4)
H1_2 H 0.2675 0.5482 0.7354
C2_2 C 0.4978(5) 0.7500 0.9607(5)
O4_2 O 0.4809(3) 0.83980(18) 0.9032(2)
Mn4_8 Mn 0.5000 1.0000 1.0000
O2_3 O 0.5191(3) 0.16020(18) 0.0968(2)
H1_3 H 0.7325 0.0482 0.2646
C2_3 C 0.5022(5) 0.2500 0.0393(5)
H2_3 H 0.4705 0.2500 0.9393
O5_3 O 0.2841(3) 0.05071(19) 0.8926(2)
O6_2 O 0.1170(3) 0.05614(18) 0.7063(2)
C3_3 C 0.2257(4) 0.0152(3) 0.7750(4)
O8_2 O 0.6170(3) 0.05614(18) 0.7937(2)
O1_3 O 0.7159(3) 0.94929(19) 0.1074(2)
O3_2 O 0.8830(3) 0.94386(18) 0.2937(2)
C1_3 C 0.7743(4) 0.9848(3) 0.2250(4)
O9_2 O 0.3830(3) 0.94386(18) 0.2063(2)
H3_3 H 0.2675 0.9518 0.7354
H3_4 H 0.2325 0.0482 0.2354
H2_4 H 0.0295 0.7500 0.4393
O5_4 O 0.2159(3) 0.94929(19) 0.3926(2)
C3_4 C 0.2743(4) 0.9848(3) 0.2750(4)
O1_4 O 0.7841(3) 0.05071(19) 0.6074(2)
C1_4 C 0.7257(4) 0.0152(3) 0.7250(4)
O2_4 O 0.9809(3) 0.83980(18) 0.5968(2)
H1_4 H 0.7675 0.9518 0.7646
C2_4 C 0.9978(5) 0.7500 0.5393(5)
loop_
_geom_bond_atom_site_label_1
_geom_bond_atom_site_label_2
_geom_bond_site_symmetry_1
_geom_bond_site_symmetry_2
Mn1 O1 1_555 1_555
O1 C1 1_555 1_555
O2 Mn1 1_555 1_555
O3 C1 1_555 1_555
C1 H1 1_555 1_555
C2 O2 1_555 1_555
O4 C2 1_555 1_555
Mn3 O3 1_555 1_555
Mn4 O4 1_555 1_555
O8 Mn1 1_555 1_555
O5 Mn1_2 1_555 1_555
O6 C3 1_555 1_555
C3 O5 1_555 1_555
H3 C3 1_555 1_555
Mn3_2 O6 1_555 1_555
O7 Mn1_2 1_555 1_555
O9 Mn1_2 1_555 1_555
O5_2 Mn3 1_555 1_555
O9 C3_2 1_555 1_555
C3_2 O5_2 1_555 1_555
H3_2 C3_2 1_555 1_555
O7_2 Mn3 1_555 1_555
Mn3_2 O1_2 1_555 1_555
O1_2 C1_2 1_555 1_555
O2_2 Mn3_2 1_555 1_555
O8 C1_2 1_555 1_555
C1_2 H1_2 1_555 1_555
C2_2 O2_2 1_555 1_555
O4_2 C2_2 1_555 1_555
Mn4_8 O4_2 1_555 1_555
O2_3 Mn4_5 1_555 1_555
C2_3 O2_3 1_555 1_555
O7_2 C2_3 1_555 1_555
O5_3 Mn4_6 1_555 1_555
O6_2 C3_3 1_555 1_555
C3_3 O5_3 1_555 1_555
Mn4 O6_2 1_555 1_555
O8_2 Mn4_6 1_555 1_555
Mn4_7 O1_3 1_555 1_555
O1_3 C1_3 1_555 1_555
O3_2 C1_3 1_555 1_555
Mn4_4 O3_2 1_555 1_555
O9_2 Mn4_7 1_555 1_555
O5_4 Mn4_2 1_555 1_555
O9_2 C3_4 1_555 1_555
C3_4 O5_4 1_555 1_555
Mn4_3 O1_4 1_555 1_555
O1_4 C1_4 1_555 1_555
O8_2 C1_4 1_555 1_555
O2_4 Mn4_4 1_555 1_555
C2_4 O2_4 1_555 1_555
O7 C2_4 1_555 1_555

#END
