
###############################################################################
#
# This file contains modified crystal structure data generated from the
# MOF subset of the Cambridge Structural Database (CSD) v543 
# hosted by the Cambridge Crystallographic Data Centre (CCDC).
#
# This work is licensed under the Creative Commons
# Attribution-NonCommercial-ShareAlike 4.0 International License.
# To view a copy of this license, visit
# http://creativecommons.org/licenses/by-nc-sa/4.0/
# or send a letter to
# Creative Commons, PO Box 1866, Mountain View, CA 94042, USA.
#
# CIF created using the CSD Python API on 29 September 2022
# The structure has been converted into the P1 space group
# The structure has a 3D framework
# The original CSD entry PADKIP28 is in the orthorhombic crystal system
# The framework has been calculated to contain at least 10.0% void space
# The void calculation uses a probe of radius 1.32A, grid spacing 0.4
# The framework is charged, counterions have been retained in the structure
#
###############################################################################

data_PADKIP28
_chemical_formula_moiety         '(C12 H12 Mn10 O24 10-)n'
_symmetry_cell_setting           triclinic
_symmetry_space_group_name_H-M   'P 1'
_symmetry_Int_Tables_number      1
_space_group_name_Hall           'P 1'
loop_
_symmetry_equiv_pos_site_id
_symmetry_equiv_pos_as_xyz
1 x,y,z
_cell_length_a                   8.7110(3)
_cell_length_b                   12.3162(4)
_cell_length_c                   8.8734(3)
_cell_angle_alpha                90
_cell_angle_beta                 90
_cell_angle_gamma                90
_cell_volume                     951.995
loop_
_atom_site_label
_atom_site_type_symbol
_atom_site_fract_x
_atom_site_fract_y
_atom_site_fract_z
Mn1 Mn 0.0000 0.5000 0.5000
O1 O 0.2160(3) 0.55022(19) 0.3919(2)
O2 O 0.0183(3) 0.33960(18) 0.4033(3)
O3 O 0.3828(3) 0.55570(19) 0.2061(2)
C1 C 0.2741(4) 0.5145(3) 0.2746(4)
H1 H 0.2322 0.4511 0.2351
C2 C 0.0026(5) 0.2500 0.4612(6)
O4 O 0.0183(3) 0.16040(18) 0.4033(3)
Mn3 Mn 0.5000 0.5000 0.0000
Mn4 Mn 0.0000 0.0000 0.5000
O8 O 0.1172(3) 0.44430(19) 0.7061(2)
Mn3_2 Mn 0.5000 0.5000 1.0000
Mn4_2 Mn 0.0000 1.0000 0.5000
Mn1_2 Mn 1.0000 0.5000 0.5000
H2 H 0.9709 0.2500 0.5612
O5 O 0.7840(3) 0.44978(19) 0.6081(2)
O6 O 0.6172(3) 0.44430(19) 0.7939(2)
C3 C 0.7259(4) 0.4855(3) 0.7254(4)
H3 H 0.7678 0.5489 0.7649
Mn4_3 Mn 1.0000 0.0000 0.5000
O7 O 0.9817(3) 0.66040(18) 0.5967(3)
O9 O 0.8828(3) 0.55570(19) 0.2939(2)
Mn4_4 Mn 1.0000 1.0000 0.5000
Mn4_5 Mn 0.5000 0.0000 -0.0000
Mn4_6 Mn 0.5000 0.0000 1.0000
H2_2 H 0.5291 0.7500 0.0612
O5_2 O 0.7160(3) 0.55022(19) 0.1081(2)
C3_2 C 0.7741(4) 0.5145(3) 0.2254(4)
H3_2 H 0.7322 0.4511 0.2649
Mn4_7 Mn 0.5000 1.0000 -0.0000
O7_2 O 0.5183(3) 0.33960(18) 0.0967(3)
O1_2 O 0.2840(3) 0.44978(19) 0.8919(2)
O2_2 O 0.4817(3) 0.66040(18) 0.9033(3)
C1_2 C 0.2259(4) 0.4855(3) 0.7746(4)
H1_2 H 0.2678 0.5489 0.7351
C2_2 C 0.4974(5) 0.7500 0.9612(6)
O4_2 O 0.4817(3) 0.83960(18) 0.9033(3)
Mn4_8 Mn 0.5000 1.0000 1.0000
O2_3 O 0.5183(3) 0.16040(18) 0.0967(3)
H1_3 H 0.7322 0.0489 0.2649
C2_3 C 0.5026(5) 0.2500 0.0388(6)
H2_3 H 0.4709 0.2500 0.9388
O5_3 O 0.2840(3) 0.05022(19) 0.8919(2)
O6_2 O 0.1172(3) 0.05570(19) 0.7061(2)
C3_3 C 0.2259(4) 0.0145(3) 0.7746(4)
O8_2 O 0.6172(3) 0.05570(19) 0.7939(2)
O1_3 O 0.7160(3) 0.94978(19) 0.1081(2)
O3_2 O 0.8828(3) 0.94430(19) 0.2939(2)
C1_3 C 0.7741(4) 0.9855(3) 0.2254(4)
O9_2 O 0.3828(3) 0.94430(19) 0.2061(2)
H3_3 H 0.2678 0.9511 0.7351
H3_4 H 0.2322 0.0489 0.2351
H2_4 H 0.0291 0.7500 0.4388
O5_4 O 0.2160(3) 0.94978(19) 0.3919(2)
C3_4 C 0.2741(4) 0.9855(3) 0.2746(4)
O1_4 O 0.7840(3) 0.05022(19) 0.6081(2)
C1_4 C 0.7259(4) 0.0145(3) 0.7254(4)
O2_4 O 0.9817(3) 0.83960(18) 0.5967(3)
H1_4 H 0.7678 0.9511 0.7649
C2_4 C 0.9974(5) 0.7500 0.5388(6)
loop_
_geom_bond_atom_site_label_1
_geom_bond_atom_site_label_2
_geom_bond_site_symmetry_1
_geom_bond_site_symmetry_2
Mn1 O1 1_555 1_555
O1 C1 1_555 1_555
O2 Mn1 1_555 1_555
O3 C1 1_555 1_555
C1 H1 1_555 1_555
C2 O2 1_555 1_555
O4 C2 1_555 1_555
Mn3 O3 1_555 1_555
Mn4 O4 1_555 1_555
O8 Mn1 1_555 1_555
O5 Mn1_2 1_555 1_555
O6 C3 1_555 1_555
C3 O5 1_555 1_555
H3 C3 1_555 1_555
Mn3_2 O6 1_555 1_555
O7 Mn1_2 1_555 1_555
O9 Mn1_2 1_555 1_555
O5_2 Mn3 1_555 1_555
O9 C3_2 1_555 1_555
C3_2 O5_2 1_555 1_555
H3_2 C3_2 1_555 1_555
O7_2 Mn3 1_555 1_555
Mn3_2 O1_2 1_555 1_555
O1_2 C1_2 1_555 1_555
O2_2 Mn3_2 1_555 1_555
O8 C1_2 1_555 1_555
C1_2 H1_2 1_555 1_555
C2_2 O2_2 1_555 1_555
O4_2 C2_2 1_555 1_555
Mn4_8 O4_2 1_555 1_555
O2_3 Mn4_5 1_555 1_555
C2_3 O2_3 1_555 1_555
O7_2 C2_3 1_555 1_555
O5_3 Mn4_6 1_555 1_555
O6_2 C3_3 1_555 1_555
C3_3 O5_3 1_555 1_555
Mn4 O6_2 1_555 1_555
O8_2 Mn4_6 1_555 1_555
Mn4_7 O1_3 1_555 1_555
O1_3 C1_3 1_555 1_555
O3_2 C1_3 1_555 1_555
Mn4_4 O3_2 1_555 1_555
O9_2 Mn4_7 1_555 1_555
O5_4 Mn4_2 1_555 1_555
O9_2 C3_4 1_555 1_555
C3_4 O5_4 1_555 1_555
Mn4_3 O1_4 1_555 1_555
O1_4 C1_4 1_555 1_555
O8_2 C1_4 1_555 1_555
O2_4 Mn4_4 1_555 1_555
C2_4 O2_4 1_555 1_555
O7 C2_4 1_555 1_555

#END
