
###############################################################################
#
# This file contains modified crystal structure data generated from the
# MOF subset of the Cambridge Structural Database (CSD) v543 
# hosted by the Cambridge Crystallographic Data Centre (CCDC).
#
# This work is licensed under the Creative Commons
# Attribution-NonCommercial-ShareAlike 4.0 International License.
# To view a copy of this license, visit
# http://creativecommons.org/licenses/by-nc-sa/4.0/
# or send a letter to
# Creative Commons, PO Box 1866, Mountain View, CA 94042, USA.
#
# CIF created using the CSD Python API on 29 September 2022
# The structure has been converted into the P1 space group
# The structure has a 3D framework
# The original CSD entry PADKIP32 is in the orthorhombic crystal system
# The framework has been calculated to contain at least 10.0% void space
# The void calculation uses a probe of radius 1.32A, grid spacing 0.4
# The framework is charged, counterions have been retained in the structure
#
###############################################################################

data_PADKIP32
_chemical_formula_moiety         '(C12 H12 Mn10 O24 10-)n'
_symmetry_cell_setting           triclinic
_symmetry_space_group_name_H-M   'P 1'
_symmetry_Int_Tables_number      1
_space_group_name_Hall           'P 1'
loop_
_symmetry_equiv_pos_site_id
_symmetry_equiv_pos_as_xyz
1 x,y,z
_cell_length_a                   8.7610(3)
_cell_length_b                   12.3507(4)
_cell_length_c                   8.8118(3)
_cell_angle_alpha                90
_cell_angle_beta                 90
_cell_angle_gamma                90
_cell_volume                     953.476
loop_
_atom_site_label
_atom_site_type_symbol
_atom_site_fract_x
_atom_site_fract_y
_atom_site_fract_z
Mn1 Mn 0.0000 0.5000 0.5000
O1 O 0.2149(4) 0.5490(3) 0.3908(5)
O2 O 0.0170(5) 0.3388(3) 0.4046(6)
O3 O 0.3829(4) 0.5528(3) 0.2072(4)
C1 C 0.2717(6) 0.5147(5) 0.2725(7)
H1 H 0.2298 0.4513 0.2330
C2 C 0.0044(8) 0.2500 0.4613(11)
O4 O 0.0170(5) 0.1612(3) 0.4046(6)
Mn3 Mn 0.5000 0.5000 0.0000
Mn4 Mn 0.0000 -0.0000 0.5000
O8 O 0.1171(4) 0.4472(3) 0.7072(4)
Mn3_2 Mn 0.5000 0.5000 1.0000
Mn4_2 Mn -0.0000 1.0000 0.5000
Mn1_2 Mn 1.0000 0.5000 0.5000
H2 H 0.9728 0.2500 0.5613
O5 O 0.7851(4) 0.4510(3) 0.6092(5)
O6 O 0.6171(4) 0.4472(3) 0.7928(4)
C3 C 0.7283(6) 0.4853(5) 0.7275(7)
H3 H 0.7702 0.5487 0.7670
Mn4_3 Mn 1.0000 -0.0000 0.5000
O7 O 0.9830(5) 0.6612(3) 0.5954(6)
O9 O 0.8829(4) 0.5528(3) 0.2928(4)
Mn4_4 Mn 1.0000 1.0000 0.5000
Mn4_5 Mn 0.5000 0.0000 -0.0000
Mn4_6 Mn 0.5000 0.0000 1.0000
H2_2 H 0.5272 0.7500 0.0613
O5_2 O 0.7149(4) 0.5490(3) 0.1092(5)
C3_2 C 0.7717(6) 0.5147(5) 0.2275(7)
H3_2 H 0.7298 0.4513 0.2670
Mn4_7 Mn 0.5000 1.0000 -0.0000
O7_2 O 0.5170(5) 0.3388(3) 0.0954(6)
O1_2 O 0.2851(4) 0.4510(3) 0.8908(5)
O2_2 O 0.4830(5) 0.6612(3) 0.9046(6)
C1_2 C 0.2283(6) 0.4853(5) 0.7725(7)
H1_2 H 0.2702 0.5487 0.7330
C2_2 C 0.4956(8) 0.7500 0.9613(11)
O4_2 O 0.4830(5) 0.8388(3) 0.9046(6)
Mn4_8 Mn 0.5000 1.0000 1.0000
O2_3 O 0.5170(5) 0.1612(3) 0.0954(6)
H1_3 H 0.7298 0.0487 0.2670
C2_3 C 0.5044(8) 0.2500 0.0387(11)
H2_3 H 0.4728 0.2500 0.9387
O5_3 O 0.2851(4) 0.0490(3) 0.8908(5)
O6_2 O 0.1171(4) 0.0528(3) 0.7072(4)
C3_3 C 0.2283(6) 0.0147(5) 0.7725(7)
O8_2 O 0.6171(4) 0.0528(3) 0.7928(4)
O1_3 O 0.7149(4) 0.9510(3) 0.1092(5)
O3_2 O 0.8829(4) 0.9472(3) 0.2928(4)
C1_3 C 0.7717(6) 0.9853(5) 0.2275(7)
O9_2 O 0.3829(4) 0.9472(3) 0.2072(4)
H3_3 H 0.2702 0.9513 0.7330
H3_4 H 0.2298 0.0487 0.2330
H2_4 H 0.0272 0.7500 0.4387
O5_4 O 0.2149(4) 0.9510(3) 0.3908(5)
C3_4 C 0.2717(6) 0.9853(5) 0.2725(7)
O1_4 O 0.7851(4) 0.0490(3) 0.6092(5)
C1_4 C 0.7283(6) 0.0147(5) 0.7275(7)
O2_4 O 0.9830(5) 0.8388(3) 0.5954(6)
H1_4 H 0.7702 0.9513 0.7670
C2_4 C 0.9956(8) 0.7500 0.5387(11)
loop_
_geom_bond_atom_site_label_1
_geom_bond_atom_site_label_2
_geom_bond_site_symmetry_1
_geom_bond_site_symmetry_2
Mn1 O1 1_555 1_555
O1 C1 1_555 1_555
O2 Mn1 1_555 1_555
O3 C1 1_555 1_555
C1 H1 1_555 1_555
C2 O2 1_555 1_555
O4 C2 1_555 1_555
Mn3 O3 1_555 1_555
Mn4 O4 1_555 1_555
O8 Mn1 1_555 1_555
O5 Mn1_2 1_555 1_555
O6 C3 1_555 1_555
C3 O5 1_555 1_555
H3 C3 1_555 1_555
Mn3_2 O6 1_555 1_555
O7 Mn1_2 1_555 1_555
O9 Mn1_2 1_555 1_555
O5_2 Mn3 1_555 1_555
O9 C3_2 1_555 1_555
C3_2 O5_2 1_555 1_555
H3_2 C3_2 1_555 1_555
O7_2 Mn3 1_555 1_555
Mn3_2 O1_2 1_555 1_555
O1_2 C1_2 1_555 1_555
O2_2 Mn3_2 1_555 1_555
O8 C1_2 1_555 1_555
C1_2 H1_2 1_555 1_555
C2_2 O2_2 1_555 1_555
O4_2 C2_2 1_555 1_555
Mn4_8 O4_2 1_555 1_555
O2_3 Mn4_5 1_555 1_555
C2_3 O2_3 1_555 1_555
O7_2 C2_3 1_555 1_555
O5_3 Mn4_6 1_555 1_555
O6_2 C3_3 1_555 1_555
C3_3 O5_3 1_555 1_555
Mn4 O6_2 1_555 1_555
O8_2 Mn4_6 1_555 1_555
Mn4_7 O1_3 1_555 1_555
O1_3 C1_3 1_555 1_555
O3_2 C1_3 1_555 1_555
Mn4_4 O3_2 1_555 1_555
O9_2 Mn4_7 1_555 1_555
O5_4 Mn4_2 1_555 1_555
O9_2 C3_4 1_555 1_555
C3_4 O5_4 1_555 1_555
Mn4_3 O1_4 1_555 1_555
O1_4 C1_4 1_555 1_555
O8_2 C1_4 1_555 1_555
O2_4 Mn4_4 1_555 1_555
C2_4 O2_4 1_555 1_555
O7 C2_4 1_555 1_555

#END
