
###############################################################################
#
# This file contains modified crystal structure data generated from the
# MOF subset of the Cambridge Structural Database (CSD) v543 
# hosted by the Cambridge Crystallographic Data Centre (CCDC).
#
# This work is licensed under the Creative Commons
# Attribution-NonCommercial-ShareAlike 4.0 International License.
# To view a copy of this license, visit
# http://creativecommons.org/licenses/by-nc-sa/4.0/
# or send a letter to
# Creative Commons, PO Box 1866, Mountain View, CA 94042, USA.
#
# CIF created using the CSD Python API on 29 September 2022
# The structure has been converted into the P1 space group
# The structure has a 3D framework
# The original CSD entry PADKIP29 is in the orthorhombic crystal system
# The framework has been calculated to contain at least 10.0% void space
# The void calculation uses a probe of radius 1.32A, grid spacing 0.4
# The framework is charged, counterions have been retained in the structure
#
###############################################################################

data_PADKIP29
_chemical_formula_moiety         '(C12 H12 Mn10 O24 10-)n'
_symmetry_cell_setting           triclinic
_symmetry_space_group_name_H-M   'P 1'
_symmetry_Int_Tables_number      1
_space_group_name_Hall           'P 1'
loop_
_symmetry_equiv_pos_site_id
_symmetry_equiv_pos_as_xyz
1 x,y,z
_cell_length_a                   8.7233(3)
_cell_length_b                   12.3247(4)
_cell_length_c                   8.8668(3)
_cell_angle_alpha                90
_cell_angle_beta                 90
_cell_angle_gamma                90
_cell_volume                     953.288
loop_
_atom_site_label
_atom_site_type_symbol
_atom_site_fract_x
_atom_site_fract_y
_atom_site_fract_z
Mn1 Mn -0.0000 0.5000 0.5000
O1 O 0.2156(3) 0.5501(2) 0.3918(2)
O2 O 0.0178(3) 0.33949(18) 0.4035(3)
O3 O 0.3827(3) 0.55510(19) 0.2068(2)
C1 C 0.2740(4) 0.5148(3) 0.2742(4)
H1 H 0.2322 0.4514 0.2347
C2 C 0.0038(5) 0.2500 0.4614(6)
O4 O 0.0178(3) 0.16051(18) 0.4035(3)
Mn3 Mn 0.5000 0.5000 0.0000
Mn4 Mn 0.0000 0.0000 0.5000
O8 O 0.1173(3) 0.44490(19) 0.7068(2)
Mn3_2 Mn 0.5000 0.5000 1.0000
Mn4_2 Mn -0.0000 1.0000 0.5000
Mn1_2 Mn 1.0000 0.5000 0.5000
H2 H 0.9722 0.2500 0.5614
O5 O 0.7844(3) 0.4499(2) 0.6082(2)
O6 O 0.6173(3) 0.44490(19) 0.7932(2)
C3 C 0.7260(4) 0.4852(3) 0.7258(4)
H3 H 0.7678 0.5486 0.7653
Mn4_3 Mn 1.0000 0.0000 0.5000
O7 O 0.9822(3) 0.66051(18) 0.5965(3)
O9 O 0.8827(3) 0.55510(19) 0.2932(2)
Mn4_4 Mn 1.0000 1.0000 0.5000
Mn4_5 Mn 0.5000 -0.0000 0.0000
Mn4_6 Mn 0.5000 0.0000 1.0000
H2_2 H 0.5278 0.7500 0.0614
O5_2 O 0.7156(3) 0.5501(2) 0.1082(2)
C3_2 C 0.7740(4) 0.5148(3) 0.2258(4)
H3_2 H 0.7322 0.4514 0.2653
Mn4_7 Mn 0.5000 1.0000 0.0000
O7_2 O 0.5178(3) 0.33949(18) 0.0965(3)
O1_2 O 0.2844(3) 0.4499(2) 0.8918(2)
O2_2 O 0.4822(3) 0.66051(18) 0.9035(3)
C1_2 C 0.2260(4) 0.4852(3) 0.7742(4)
H1_2 H 0.2678 0.5486 0.7347
C2_2 C 0.4962(5) 0.7500 0.9614(6)
O4_2 O 0.4822(3) 0.83949(18) 0.9035(3)
Mn4_8 Mn 0.5000 1.0000 1.0000
O2_3 O 0.5178(3) 0.16051(18) 0.0965(3)
H1_3 H 0.7322 0.0486 0.2653
C2_3 C 0.5038(5) 0.2500 0.0386(6)
H2_3 H 0.4722 0.2500 0.9386
O5_3 O 0.2844(3) 0.0501(2) 0.8918(2)
O6_2 O 0.1173(3) 0.05510(19) 0.7068(2)
C3_3 C 0.2260(4) 0.0148(3) 0.7742(4)
O8_2 O 0.6173(3) 0.05510(19) 0.7932(2)
O1_3 O 0.7156(3) 0.9499(2) 0.1082(2)
O3_2 O 0.8827(3) 0.94490(19) 0.2932(2)
C1_3 C 0.7740(4) 0.9852(3) 0.2258(4)
O9_2 O 0.3827(3) 0.94490(19) 0.2068(2)
H3_3 H 0.2678 0.9514 0.7347
H3_4 H 0.2322 0.0486 0.2347
H2_4 H 0.0278 0.7500 0.4386
O5_4 O 0.2156(3) 0.9499(2) 0.3918(2)
C3_4 C 0.2740(4) 0.9852(3) 0.2742(4)
O1_4 O 0.7844(3) 0.0501(2) 0.6082(2)
C1_4 C 0.7260(4) 0.0148(3) 0.7258(4)
O2_4 O 0.9822(3) 0.83949(18) 0.5965(3)
H1_4 H 0.7678 0.9514 0.7653
C2_4 C 0.9962(5) 0.7500 0.5386(6)
loop_
_geom_bond_atom_site_label_1
_geom_bond_atom_site_label_2
_geom_bond_site_symmetry_1
_geom_bond_site_symmetry_2
Mn1 O1 1_555 1_555
O1 C1 1_555 1_555
O2 Mn1 1_555 1_555
O3 C1 1_555 1_555
C1 H1 1_555 1_555
C2 O2 1_555 1_555
O4 C2 1_555 1_555
Mn3 O3 1_555 1_555
Mn4 O4 1_555 1_555
O8 Mn1 1_555 1_555
O5 Mn1_2 1_555 1_555
O6 C3 1_555 1_555
C3 O5 1_555 1_555
H3 C3 1_555 1_555
Mn3_2 O6 1_555 1_555
O7 Mn1_2 1_555 1_555
O9 Mn1_2 1_555 1_555
O5_2 Mn3 1_555 1_555
O9 C3_2 1_555 1_555
C3_2 O5_2 1_555 1_555
H3_2 C3_2 1_555 1_555
O7_2 Mn3 1_555 1_555
Mn3_2 O1_2 1_555 1_555
O1_2 C1_2 1_555 1_555
O2_2 Mn3_2 1_555 1_555
O8 C1_2 1_555 1_555
C1_2 H1_2 1_555 1_555
C2_2 O2_2 1_555 1_555
O4_2 C2_2 1_555 1_555
Mn4_8 O4_2 1_555 1_555
O2_3 Mn4_5 1_555 1_555
C2_3 O2_3 1_555 1_555
O7_2 C2_3 1_555 1_555
O5_3 Mn4_6 1_555 1_555
O6_2 C3_3 1_555 1_555
C3_3 O5_3 1_555 1_555
Mn4 O6_2 1_555 1_555
O8_2 Mn4_6 1_555 1_555
Mn4_7 O1_3 1_555 1_555
O1_3 C1_3 1_555 1_555
O3_2 C1_3 1_555 1_555
Mn4_4 O3_2 1_555 1_555
O9_2 Mn4_7 1_555 1_555
O5_4 Mn4_2 1_555 1_555
O9_2 C3_4 1_555 1_555
C3_4 O5_4 1_555 1_555
Mn4_3 O1_4 1_555 1_555
O1_4 C1_4 1_555 1_555
O8_2 C1_4 1_555 1_555
O2_4 Mn4_4 1_555 1_555
C2_4 O2_4 1_555 1_555
O7 C2_4 1_555 1_555

#END
