
###############################################################################
#
# This file contains modified crystal structure data generated from the
# MOF subset of the Cambridge Structural Database (CSD) v543 
# hosted by the Cambridge Crystallographic Data Centre (CCDC).
#
# This work is licensed under the Creative Commons
# Attribution-NonCommercial-ShareAlike 4.0 International License.
# To view a copy of this license, visit
# http://creativecommons.org/licenses/by-nc-sa/4.0/
# or send a letter to
# Creative Commons, PO Box 1866, Mountain View, CA 94042, USA.
#
# CIF created using the CSD Python API on 29 September 2022
# The structure has been converted into the P1 space group
# The structure has a 3D framework
# The original CSD entry PADKIP26 is in the orthorhombic crystal system
# The framework has been calculated to contain at least 10.0% void space
# The void calculation uses a probe of radius 1.32A, grid spacing 0.4
# The framework is charged, counterions have been retained in the structure
#
###############################################################################

data_PADKIP26
_chemical_formula_moiety         '(C12 H12 Mn10 O24 10-)n'
_symmetry_cell_setting           triclinic
_symmetry_space_group_name_H-M   'P 1'
_symmetry_Int_Tables_number      1
_space_group_name_Hall           'P 1'
loop_
_symmetry_equiv_pos_site_id
_symmetry_equiv_pos_as_xyz
1 x,y,z
_cell_length_a                   8.6939(3)
_cell_length_b                   12.3048(4)
_cell_length_c                   8.8768(3)
_cell_angle_alpha                90
_cell_angle_beta                 90
_cell_angle_gamma                90
_cell_volume                     949.611
loop_
_atom_site_label
_atom_site_type_symbol
_atom_site_fract_x
_atom_site_fract_y
_atom_site_fract_z
Mn1 Mn 0.0000 0.5000 0.5000
O1 O 0.2168(2) 0.55071(18) 0.3931(2)
O2 O 0.0196(2) 0.33977(17) 0.4029(2)
O3 O 0.3836(3) 0.55622(17) 0.2067(2)
C1 C 0.2750(4) 0.5148(3) 0.2753(4)
H1 H 0.2332 0.4514 0.2357
C2 C 0.0019(4) 0.2500 0.4606(5)
O4 O 0.0196(2) 0.16023(17) 0.4029(2)
Mn3 Mn 0.5000 0.5000 0.0000
Mn4 Mn 0.0000 0.0000 0.5000
O8 O 0.1164(3) 0.44378(17) 0.7067(2)
Mn3_2 Mn 0.5000 0.5000 1.0000
Mn4_2 Mn 0.0000 1.0000 0.5000
Mn1_2 Mn 1.0000 0.5000 0.5000
H2 H 0.9702 0.2500 0.5606
O5 O 0.7832(2) 0.44929(18) 0.6069(2)
O6 O 0.6164(3) 0.44378(17) 0.7933(2)
C3 C 0.7250(4) 0.4852(3) 0.7247(4)
H3 H 0.7668 0.5486 0.7643
Mn4_3 Mn 1.0000 0.0000 0.5000
O7 O 0.9804(2) 0.66023(17) 0.5971(2)
O9 O 0.8836(3) 0.55622(17) 0.2933(2)
Mn4_4 Mn 1.0000 1.0000 0.5000
Mn4_5 Mn 0.5000 0.0000 0.0000
Mn4_6 Mn 0.5000 0.0000 1.0000
H2_2 H 0.5298 0.7500 0.0606
O5_2 O 0.7168(2) 0.55071(18) 0.1069(2)
C3_2 C 0.7750(4) 0.5148(3) 0.2247(4)
H3_2 H 0.7332 0.4514 0.2643
Mn4_7 Mn 0.5000 1.0000 0.0000
O7_2 O 0.5196(2) 0.33977(17) 0.0971(2)
O1_2 O 0.2832(2) 0.44929(18) 0.8931(2)
O2_2 O 0.4804(2) 0.66023(17) 0.9029(2)
C1_2 C 0.2250(4) 0.4852(3) 0.7753(4)
H1_2 H 0.2668 0.5486 0.7357
C2_2 C 0.4981(4) 0.7500 0.9606(5)
O4_2 O 0.4804(2) 0.83977(17) 0.9029(2)
Mn4_8 Mn 0.5000 1.0000 1.0000
O2_3 O 0.5196(2) 0.16023(17) 0.0971(2)
H1_3 H 0.7332 0.0486 0.2643
C2_3 C 0.5019(4) 0.2500 0.0394(5)
H2_3 H 0.4702 0.2500 0.9394
O5_3 O 0.2832(2) 0.05071(18) 0.8931(2)
O6_2 O 0.1164(3) 0.05622(17) 0.7067(2)
C3_3 C 0.2250(4) 0.0148(3) 0.7753(4)
O8_2 O 0.6164(3) 0.05622(17) 0.7933(2)
O1_3 O 0.7168(2) 0.94929(18) 0.1069(2)
O3_2 O 0.8836(3) 0.94378(17) 0.2933(2)
C1_3 C 0.7750(4) 0.9852(3) 0.2247(4)
O9_2 O 0.3836(3) 0.94378(17) 0.2067(2)
H3_3 H 0.2668 0.9514 0.7357
H3_4 H 0.2332 0.0486 0.2357
H2_4 H 0.0298 0.7500 0.4394
O5_4 O 0.2168(2) 0.94929(18) 0.3931(2)
C3_4 C 0.2750(4) 0.9852(3) 0.2753(4)
O1_4 O 0.7832(2) 0.05071(18) 0.6069(2)
C1_4 C 0.7250(4) 0.0148(3) 0.7247(4)
O2_4 O 0.9804(2) 0.83977(17) 0.5971(2)
H1_4 H 0.7668 0.9514 0.7643
C2_4 C 0.9981(4) 0.7500 0.5394(5)
loop_
_geom_bond_atom_site_label_1
_geom_bond_atom_site_label_2
_geom_bond_site_symmetry_1
_geom_bond_site_symmetry_2
Mn1 O1 1_555 1_555
O1 C1 1_555 1_555
O2 Mn1 1_555 1_555
O3 C1 1_555 1_555
C1 H1 1_555 1_555
C2 O2 1_555 1_555
O4 C2 1_555 1_555
Mn3 O3 1_555 1_555
Mn4 O4 1_555 1_555
O8 Mn1 1_555 1_555
O5 Mn1_2 1_555 1_555
O6 C3 1_555 1_555
C3 O5 1_555 1_555
H3 C3 1_555 1_555
Mn3_2 O6 1_555 1_555
O7 Mn1_2 1_555 1_555
O9 Mn1_2 1_555 1_555
O5_2 Mn3 1_555 1_555
O9 C3_2 1_555 1_555
C3_2 O5_2 1_555 1_555
H3_2 C3_2 1_555 1_555
O7_2 Mn3 1_555 1_555
Mn3_2 O1_2 1_555 1_555
O1_2 C1_2 1_555 1_555
O2_2 Mn3_2 1_555 1_555
O8 C1_2 1_555 1_555
C1_2 H1_2 1_555 1_555
C2_2 O2_2 1_555 1_555
O4_2 C2_2 1_555 1_555
Mn4_8 O4_2 1_555 1_555
O2_3 Mn4_5 1_555 1_555
C2_3 O2_3 1_555 1_555
O7_2 C2_3 1_555 1_555
O5_3 Mn4_6 1_555 1_555
O6_2 C3_3 1_555 1_555
C3_3 O5_3 1_555 1_555
Mn4 O6_2 1_555 1_555
O8_2 Mn4_6 1_555 1_555
Mn4_7 O1_3 1_555 1_555
O1_3 C1_3 1_555 1_555
O3_2 C1_3 1_555 1_555
Mn4_4 O3_2 1_555 1_555
O9_2 Mn4_7 1_555 1_555
O5_4 Mn4_2 1_555 1_555
O9_2 C3_4 1_555 1_555
C3_4 O5_4 1_555 1_555
Mn4_3 O1_4 1_555 1_555
O1_4 C1_4 1_555 1_555
O8_2 C1_4 1_555 1_555
O2_4 Mn4_4 1_555 1_555
C2_4 O2_4 1_555 1_555
O7 C2_4 1_555 1_555

#END
