
###############################################################################
#
# This file contains modified crystal structure data generated from the
# MOF subset of the Cambridge Structural Database (CSD) v543 
# hosted by the Cambridge Crystallographic Data Centre (CCDC).
#
# This work is licensed under the Creative Commons
# Attribution-NonCommercial-ShareAlike 4.0 International License.
# To view a copy of this license, visit
# http://creativecommons.org/licenses/by-nc-sa/4.0/
# or send a letter to
# Creative Commons, PO Box 1866, Mountain View, CA 94042, USA.
#
# CIF created using the CSD Python API on 29 September 2022
# The structure has been converted into the P1 space group
# The structure has a 3D framework
# The original CSD entry PADRET is in the monoclinic crystal system
# The framework has been calculated to contain at least 10.0% void space
# The void calculation uses a probe of radius 1.32A, grid spacing 0.4
#
###############################################################################

data_PADRET
_chemical_formula_moiety         '(C144 H98 Cu8 N40)n'
_symmetry_cell_setting           triclinic
_symmetry_space_group_name_H-M   'P 1'
_symmetry_Int_Tables_number      1
_space_group_name_Hall           'P 1'
loop_
_symmetry_equiv_pos_site_id
_symmetry_equiv_pos_as_xyz
1 x,y,z
_cell_length_a                   10.596(2)
_cell_length_b                   18.196(4)
_cell_length_c                   18.761(4)
_cell_angle_alpha                90
_cell_angle_beta                 103.37(3)
_cell_angle_gamma                90
_cell_volume                     3519.17
loop_
_atom_site_label
_atom_site_type_symbol
_atom_site_fract_x
_atom_site_fract_y
_atom_site_fract_z
N9 N 0.3203(5) 0.0488(3) 0.5410(3)
N10 N 0.2943(6) 0.2655(3) 0.7126(3)
H10 H 0.0066 0.0000 0.2682
H14 H 0.3370 0.0346 0.4015
C26 C 0.3460(6) 0.0573(3) 0.6133(3)
C27 C 0.3296(6) 0.1284(3) 0.6485(4)
C28 C 0.3297(7) 0.1361(3) 0.7217(4)
H17 H 0.3409 0.0949 0.7518
C29 C 0.3133(6) 0.2043(3) 0.7511(4)
H18 H 0.3159 0.2070 0.8009
C30 C 0.2916(8) 0.2581(4) 0.6422(4)
H19 H 0.2769 0.3003 0.6135
C31 C 0.3088(7) 0.1926(3) 0.6072(4)
H20 H 0.3064 0.1918 0.5574
Cu1 Cu 0.13751(7) 0.86151(4) 0.21425(4)
N6 N 0.2377(5) 0.8848(3) 0.3148(3)
N7 N 0.5654(5) 0.7377(2) 0.6777(3)
N8 N 0.3861(4) 0.9945(2) 0.6518(3)
H10_2 H 0.0066 1.0000 0.2682
C19 C 0.2793(6) 0.9551(3) 0.3271(3)
H13 H 0.2847 0.9842 0.2872
C20 C 0.3139(6) 0.9853(3) 0.3960(3)
C21 C 0.3147(6) 0.9427(3) 0.4572(3)
C22 C 0.2793(7) 0.8696(3) 0.4447(4)
H15 H 0.2812 0.8382 0.4841
C23 C 0.2409(7) 0.8431(3) 0.3734(4)
H16 H 0.2163 0.7941 0.3664
C24 C 0.3449(6) 0.9753(3) 0.5310(3)
C25 C 0.3861(6) 0.9421(3) 0.5988(3)
C32 C 0.4378(6) 0.8682(3) 0.6212(3)
C33 C 0.5325(6) 0.8357(3) 0.5891(3)
H21 H 0.5538 0.8573 0.5485
C34 C 0.5930(6) 0.7719(3) 0.6183(3)
H22 H 0.6552 0.7513 0.5967
C35 C 0.4701(6) 0.7675(3) 0.7051(3)
H23 H 0.4475 0.7438 0.7442
C36 C 0.4036(6) 0.8312(3) 0.6789(3)
H24 H 0.3376 0.8489 0.6994
Cu4 Cu 0.63751(7) 0.63849(4) 0.71425(4)
Cu5 Cu 0.43647(7) 0.97085(4) 0.75128(4)
N11 N 0.2340(5) 0.8973(3) 0.1373(3)
N12 N 0.0654(5) 0.7623(2) 0.1777(3)
Cu2 Cu 0.56353(7) 0.02915(4) 0.24872(4)
N3 N 0.5324(5) 0.0631(2) 0.1517(3)
N4 N 0.4616(5) 0.1171(2) 0.0414(3)
N5 N 0.0706(6) 0.1605(4) 0.1562(5)
C1 C 0.6245(6) 0.0525(3) 0.1122(3)
C2 C 0.5802(6) 0.0859(3) 0.0439(3)
C3 C 0.4351(6) 0.1015(3) 0.1063(3)
C4 C 0.3130(6) 0.1217(3) 0.1259(3)
C5 C 0.2922(6) 0.1162(4) 0.1954(4)
H1 H 0.3579 0.0991 0.2336
C6 C 0.1723(8) 0.1362(4) 0.2085(5)
H2 H 0.1617 0.1325 0.2562
C7 C 0.0941(7) 0.1666(4) 0.0891(5)
H3 H 0.0272 0.1840 0.0518
C8 C 0.2098(7) 0.1491(4) 0.0710(4)
H4 H 0.2193 0.1552 0.0233
H8 H 0.8269 0.0614 0.0347
C14 C 0.7423(6) 0.0089(3) 0.1413(3)
C15 C 0.8361(6) 0.0297(3) 0.2026(4)
H9 H 0.8268 0.0731 0.2271
N13 N 0.6139(4) 0.0055(2) 0.3482(3)
N2 N 0.7660(5) 0.1027(3) 0.8627(3)
C9 C 0.6441(6) 0.0912(3) 0.9822(3)
C10 C 0.5783(7) 0.1155(4) 0.9139(4)
H5 H 0.4917 0.1291 0.9065
C11 C 0.6402(7) 0.1198(4) 0.8560(4)
H6 H 0.5921 0.1352 0.8105
C12 C 0.8310(7) 0.0795(4) 0.9300(4)
H7 H 0.9174 0.0659 0.9362
C13 C 0.7762(7) 0.0751(4) 0.9893(4)
Cu3 Cu 0.86249(7) 0.13849(4) 0.78575(4)
Cu1_2 Cu 0.36249(7) 0.36151(4) 0.28575(4)
Cu2_2 Cu 0.93647(7) 0.52915(4) 0.25128(4)
N1 N 0.5370(5) 0.4215(3) 0.3055(3)
N2_2 N 0.7340(5) 0.6027(3) 0.6373(3)
N3_2 N 0.9676(5) 0.5631(2) 0.3483(3)
N6_2 N 0.2623(5) 0.3848(3) 0.1852(3)
C1_2 C 0.8755(6) 0.5525(3) 0.3878(3)
C2_2 C 0.9198(6) 0.5859(3) 0.4561(3)
C9_2 C 0.8559(6) 0.5912(3) 0.5178(3)
C10_2 C 0.9217(7) 0.6155(4) 0.5861(4)
C11_2 C 0.8598(7) 0.6198(4) 0.6440(4)
H6_2 H 0.9079 0.6352 0.6895
C12_2 C 0.6690(7) 0.5795(4) 0.5700(4)
H7_2 H 0.5826 0.5659 0.5638
C13_2 C 0.7238(7) 0.5751(4) 0.5107(4)
H8_2 H 0.6731 0.5614 0.4653
C14_2 C 0.7577(6) 0.5089(3) 0.3587(3)
C15_2 C 0.6639(6) 0.5297(3) 0.2974(4)
H9_2 H 0.6732 0.5731 0.2729
C16 C 0.5557(6) 0.4851(3) 0.2728(3)
H10_3 H 0.4934 0.5000 0.2318
C17 C 0.6297(6) 0.4013(3) 0.3645(3)
H11 H 0.6200 0.3569 0.3872
C18 C 0.7382(6) 0.4434(3) 0.3929(3)
H12 H 0.7980 0.4279 0.4346
C19_2 C 0.2207(6) 0.4551(3) 0.1729(3)
H13_2 H 0.2153 0.4842 0.2128
C20_2 C 0.1861(6) 0.4853(3) 0.1040(3)
H14_2 H 0.1630 0.5346 0.0985
C21_2 C 0.1853(6) 0.4427(3) 0.0428(3)
C22_2 C 0.2207(7) 0.3696(3) 0.0553(4)
H15_2 H 0.2188 0.3382 0.0159
C23_2 C 0.2591(7) 0.3431(3) 0.1266(4)
H16_2 H 0.2837 0.2941 0.1336
N11_2 N 0.2660(5) 0.3973(3) 0.3627(3)
N12_2 N 0.4346(5) 0.2623(2) 0.3223(3)
N13_2 N 0.8861(4) 0.5055(2) 0.1518(3)
N8_2 N 0.1139(4) 0.4945(2) 0.8482(3)
N9_2 N 0.1797(5) 0.5488(3) 0.9590(3)
N10_2 N 0.2057(6) 0.7655(3) 0.7874(3)
C24_2 C 0.1551(6) 0.4753(3) 0.9690(3)
C25_2 C 0.1139(6) 0.4421(3) 0.9012(3)
C26_2 C 0.1540(6) 0.5573(3) 0.8867(3)
C27_2 C 0.1704(6) 0.6284(3) 0.8515(4)
C28_2 C 0.1703(7) 0.6361(3) 0.7783(4)
H17_2 H 0.1591 0.5949 0.7482
C29_2 C 0.1867(6) 0.7043(3) 0.7489(4)
H18_2 H 0.1841 0.7070 0.6991
C30_2 C 0.2084(8) 0.7581(4) 0.8578(4)
H19_2 H 0.2231 0.8003 0.8865
C31_2 C 0.1912(7) 0.6926(3) 0.8928(4)
H20_2 H 0.1936 0.6918 0.9426
C32_2 C 0.0622(6) 0.3682(3) 0.8788(3)
C35_2 C 0.0299(6) 0.2675(3) 0.7949(3)
H23_2 H 0.0525 0.2438 0.7558
C36_2 C 0.0964(6) 0.3312(3) 0.8211(3)
H24_2 H 0.1624 0.3489 0.8006
Cu5_2 Cu 0.06353(7) 0.47085(4) 0.74872(4)
N7_2 N 0.9346(5) 0.2377(2) 0.8223(3)
C33_2 C 0.9675(6) 0.3357(3) 0.9109(3)
H21_2 H 0.9462 0.3573 0.9515
C34_2 C 0.9070(6) 0.2719(3) 0.8817(3)
H22_2 H 0.8448 0.2513 0.9033
C9_3 C 0.3559(6) 0.9088(3) 0.0178(3)
C10_3 C 0.4217(7) 0.8845(4) 0.0861(4)
H5_2 H 0.5083 0.8709 0.0935
C11_3 C 0.3598(7) 0.8802(4) 0.1440(4)
H6_3 H 0.4079 0.8648 0.1895
C12_3 C 0.1690(7) 0.9205(4) 0.0700(4)
H7_3 H 0.0826 0.9341 0.0638
C13_3 C 0.2238(7) 0.9249(4) 0.0107(4)
N3_3 N 0.4676(5) 0.9369(2) 0.8483(3)
N4_2 N 0.5384(5) 0.8829(2) 0.9586(3)
N5_2 N 0.9294(6) 0.8395(4) 0.8438(5)
C1_3 C 0.3755(6) 0.9475(3) 0.8878(3)
C2_3 C 0.4198(6) 0.9141(3) 0.9561(3)
C3_2 C 0.5649(6) 0.8985(3) 0.8937(3)
C4_2 C 0.6870(6) 0.8783(3) 0.8741(3)
C5_2 C 0.7078(6) 0.8838(4) 0.8046(4)
H1_2 H 0.6421 0.9009 0.7664
C6_2 C 0.8277(8) 0.8638(4) 0.7915(5)
H2_2 H 0.8383 0.8675 0.7438
C7_2 C 0.9059(7) 0.8334(4) 0.9109(5)
H3_2 H 0.9728 0.8160 0.9482
C8_2 C 0.7902(7) 0.8509(4) 0.9290(4)
H4_2 H 0.7807 0.8448 0.9767
H8_3 H 0.1731 0.9386 0.9653
C14_3 C 0.2577(6) 0.9911(3) 0.8587(3)
C15_3 C 0.1639(6) 0.9703(3) 0.7974(4)
H9_3 H 0.1732 0.9269 0.7729
N6_3 N 0.7623(5) 0.1152(3) 0.6852(3)
H10_4 H 0.9934 0.0000 0.7318
C19_3 C 0.7207(6) 0.0449(3) 0.6729(3)
H13_3 H 0.7153 0.0158 0.7128
C20_3 C 0.6861(6) 0.0147(3) 0.6040(3)
C21_3 C 0.6853(6) 0.0573(3) 0.5428(3)
C22_3 C 0.7207(7) 0.1304(3) 0.5553(4)
H15_3 H 0.7188 0.1618 0.5159
C23_3 C 0.7591(7) 0.1569(3) 0.6266(4)
H16_3 H 0.7837 0.2059 0.6336
C24_3 C 0.6551(6) 0.0247(3) 0.4690(3)
C25_3 C 0.6139(6) 0.0579(3) 0.4012(3)
C32_3 C 0.5622(6) 0.1318(3) 0.3788(3)
C33_3 C 0.4675(6) 0.1643(3) 0.4109(3)
H21_3 H 0.4462 0.1427 0.4515
C34_3 C 0.4070(6) 0.2281(3) 0.3817(3)
H22_3 H 0.3448 0.2487 0.4033
C35_3 C 0.5299(6) 0.2325(3) 0.2949(3)
H23_3 H 0.5525 0.2562 0.2558
C36_3 C 0.5964(6) 0.1688(3) 0.3211(3)
H24_3 H 0.6624 0.1511 0.3006
C33_4 C 0.0325(6) 0.6643(3) 0.0891(3)
H21_4 H 0.0538 0.6427 0.0485
C34_4 C 0.0930(6) 0.7281(3) 0.1183(3)
H22_4 H 0.1552 0.7487 0.0967
N9_3 N 0.8203(5) 0.4512(3) 0.0410(3)
N10_3 N 0.7943(6) 0.2345(3) 0.2126(3)
C24_4 C 0.8449(6) 0.5247(3) 0.0310(3)
C25_4 C 0.8861(6) 0.5579(3) 0.0988(3)
C26_3 C 0.8460(6) 0.4427(3) 0.1133(3)
C27_3 C 0.8296(6) 0.3716(3) 0.1485(4)
C28_3 C 0.8297(7) 0.3639(3) 0.2217(4)
H17_3 H 0.8409 0.4051 0.2518
C29_3 C 0.8133(6) 0.2957(3) 0.2511(4)
H18_3 H 0.8159 0.2930 0.3009
C30_3 C 0.7916(8) 0.2419(4) 0.1422(4)
H19_3 H 0.7769 0.1997 0.1135
C31_3 C 0.8088(7) 0.3074(3) 0.1072(4)
H20_3 H 0.8064 0.3082 0.0574
C32_4 C 0.9378(6) 0.6318(3) 0.1212(3)
C35_4 C 0.9701(6) 0.7325(3) 0.2051(3)
H23_4 H 0.9475 0.7562 0.2442
C36_4 C 0.9036(6) 0.6688(3) 0.1789(3)
H24_4 H 0.8376 0.6511 0.1994
N1_2 N 0.4630(5) 0.5785(3) 0.6945(3)
N3_4 N 0.0324(5) 0.4369(2) 0.6517(3)
N6_4 N 0.7377(5) 0.6152(3) 0.8148(3)
C1_4 C 0.1245(6) 0.4475(3) 0.6122(3)
C2_4 C 0.0802(6) 0.4141(3) 0.5439(3)
C9_4 C 0.1441(6) 0.4088(3) 0.4822(3)
C10_4 C 0.0783(7) 0.3845(4) 0.4139(4)
C11_4 C 0.1402(7) 0.3802(4) 0.3560(4)
H6_4 H 0.0921 0.3648 0.3105
C12_4 C 0.3310(7) 0.4205(4) 0.4300(4)
H7_4 H 0.4174 0.4341 0.4362
C13_4 C 0.2762(7) 0.4249(4) 0.4893(4)
H8_4 H 0.3269 0.4386 0.5347
C14_4 C 0.2423(6) 0.4911(3) 0.6413(3)
C15_4 C 0.3361(6) 0.4703(3) 0.7026(4)
H9_4 H 0.3268 0.4269 0.7271
C16_2 C 0.4443(6) 0.5149(3) 0.7272(3)
H10_5 H 0.5066 0.5000 0.7682
C17_2 C 0.3703(6) 0.5987(3) 0.6355(3)
H11_2 H 0.3800 0.6431 0.6128
C18_2 C 0.2618(6) 0.5566(3) 0.6071(3)
H12_2 H 0.2020 0.5721 0.5654
C19_4 C 0.7793(6) 0.5449(3) 0.8271(3)
H13_4 H 0.7847 0.5158 0.7872
C20_4 C 0.8139(6) 0.5147(3) 0.8960(3)
H14_3 H 0.8370 0.4654 0.9015
C21_4 C 0.8147(6) 0.5573(3) 0.9572(3)
C22_4 C 0.7793(7) 0.6304(3) 0.9447(4)
H15_4 H 0.7812 0.6618 0.9841
C23_4 C 0.7409(7) 0.6569(3) 0.8734(4)
H16_4 H 0.7163 0.7059 0.8664
N1_3 N 0.9630(5) 0.9215(3) 0.1945(3)
C16_3 C 0.9443(6) 0.9851(3) 0.2272(3)
C17_3 C 0.8703(6) 0.9013(3) 0.1355(3)
H11_3 H 0.8800 0.8569 0.1128
C18_3 C 0.7618(6) 0.9434(3) 0.1071(3)
H12_3 H 0.7020 0.9279 0.0654
N4_3 N 0.0384(5) 0.6171(2) 0.4586(3)
N5_3 N 0.4294(6) 0.6605(4) 0.3438(5)
C3_3 C 0.0649(6) 0.6015(3) 0.3937(3)
C4_3 C 0.1870(6) 0.6217(3) 0.3741(3)
C5_3 C 0.2078(6) 0.6162(4) 0.3046(4)
H1_3 H 0.1421 0.5991 0.2664
C6_3 C 0.3277(8) 0.6362(4) 0.2915(5)
H2_3 H 0.3383 0.6325 0.2438
C7_3 C 0.4059(7) 0.6666(4) 0.4109(5)
H3_3 H 0.4728 0.6840 0.4482
C8_3 C 0.2902(7) 0.6491(4) 0.4290(4)
H4_3 H 0.2807 0.6552 0.4767
H5_3 H 0.0083 0.6291 0.5935
N1_4 N 0.0370(5) 0.0785(3) 0.8055(3)
C16_4 C 0.0557(6) 0.0149(3) 0.7728(3)
C17_4 C 0.1297(6) 0.0987(3) 0.8645(3)
H11_4 H 0.1200 0.1431 0.8872
C18_4 C 0.2382(6) 0.0566(3) 0.8929(3)
H12_4 H 0.2980 0.0721 0.9346
N9_4 N 0.6797(5) 0.9512(3) 0.4590(3)
N10_4 N 0.7057(6) 0.7345(3) 0.2874(3)
H10_6 H 0.9934 1.0000 0.7318
H14_4 H 0.6630 0.9654 0.5985
C26_4 C 0.6540(6) 0.9427(3) 0.3867(3)
C27_4 C 0.6704(6) 0.8716(3) 0.3515(4)
C28_4 C 0.6703(7) 0.8639(3) 0.2783(4)
H17_4 H 0.6591 0.9051 0.2482
C29_4 C 0.6867(6) 0.7957(3) 0.2489(4)
H18_4 H 0.6841 0.7930 0.1991
C30_4 C 0.7084(8) 0.7419(4) 0.3578(4)
H19_4 H 0.7231 0.6997 0.3865
C31_4 C 0.6912(7) 0.8074(3) 0.3928(4)
H20_4 H 0.6936 0.8082 0.4426
N4_4 N 0.9616(5) 0.3829(2) 0.5414(3)
N5_4 N 0.5706(6) 0.3395(4) 0.6562(5)
C3_4 C 0.9351(6) 0.3985(3) 0.6063(3)
C4_4 C 0.8130(6) 0.3783(3) 0.6259(3)
C5_4 C 0.7922(6) 0.3838(4) 0.6954(4)
H1_4 H 0.8579 0.4009 0.7336
C6_4 C 0.6723(8) 0.3638(4) 0.7085(5)
H2_4 H 0.6617 0.3675 0.7562
C7_4 C 0.5941(7) 0.3334(4) 0.5891(5)
H3_4 H 0.5272 0.3160 0.5518
C8_4 C 0.7098(7) 0.3509(4) 0.5710(4)
H4_4 H 0.7193 0.3448 0.5233
H5_4 H 0.9917 0.3709 0.4065
loop_
_geom_bond_atom_site_label_1
_geom_bond_atom_site_label_2
_geom_bond_site_symmetry_1
_geom_bond_site_symmetry_2
N10 C29 1_555 1_555
C27 C26 1_555 1_555
C28 C27 1_555 1_555
H17 C28 1_555 1_555
C29 C28 1_555 1_555
H18 C29 1_555 1_555
C30 N10 1_555 1_555
H19 C30 1_555 1_555
C31 C27 1_555 1_555
H20 C31 1_555 1_555
N9 C26 1_555 1_555
C30 C31 1_555 1_555
N6 Cu1 1_555 1_555
N7 C34 1_555 1_555
N8 C25 1_555 1_555
C19 N6 1_555 1_555
H13 C19 1_555 1_555
C20 C19 1_555 1_555
C21 C20 1_555 1_555
C22 C21 1_555 1_555
H15 C22 1_555 1_555
C23 N6 1_555 1_555
H16 C23 1_555 1_555
C24 C21 1_555 1_555
C25 C24 1_555 1_555
C32 C25 1_555 1_555
C33 C32 1_555 1_555
H21 C33 1_555 1_555
C34 C33 1_555 1_555
H22 C34 1_555 1_555
C35 N7 1_555 1_555
H23 C35 1_555 1_555
C36 C32 1_555 1_555
H24 C36 1_555 1_555
Cu4 N7 1_555 1_555
Cu5 N8 1_555 1_555
N11 Cu1 1_555 1_555
N12 Cu1 1_555 1_555
C22 C23 1_555 1_555
C35 C36 1_555 1_555
Cu2 N3 1_555 1_555
N3 C1 1_555 1_555
N4 C2 1_555 1_555
N5 C6 1_555 1_555
C1 C2 1_555 1_555
C3 N3 1_555 1_555
C4 C3 1_555 1_555
C5 C4 1_555 1_555
H1 C5 1_555 1_555
C6 C5 1_555 1_555
H2 C6 1_555 1_555
C7 N5 1_555 1_555
H3 C7 1_555 1_555
C8 C4 1_555 1_555
H4 C8 1_555 1_555
C14 C1 1_555 1_555
C15 C14 1_555 1_555
H9 C15 1_555 1_555
N13 Cu2 1_555 1_555
N4 C3 1_555 1_555
C7 C8 1_555 1_555
N2 C11 1_555 1_555
C9 C10 1_555 1_555
C10 H5 1_555 1_555
C11 C10 1_555 1_555
H6 C11 1_555 1_555
C12 N2 1_555 1_555
H7 C12 1_555 1_555
C13 C9 1_555 1_555
Cu3 N2 1_555 1_555
C12 C13 1_555 1_555
Cu1_2 N1 1_555 1_555
Cu2_2 N3_2 1_555 1_555
N1 C16 1_555 1_555
N2_2 C11_2 1_555 1_555
N3_2 C1_2 1_555 1_555
N6_2 Cu1_2 1_555 1_555
C1_2 C2_2 1_555 1_555
C2_2 C9_2 1_555 1_555
C9_2 C10_2 1_555 1_555
C11_2 C10_2 1_555 1_555
H6_2 C11_2 1_555 1_555
C12_2 N2_2 1_555 1_555
H7_2 C12_2 1_555 1_555
C13_2 C9_2 1_555 1_555
H8_2 C13_2 1_555 1_555
C14_2 C1_2 1_555 1_555
C15_2 C14_2 1_555 1_555
H9_2 C15_2 1_555 1_555
C16 C15_2 1_555 1_555
H10_3 C16 1_555 1_555
C17 N1 1_555 1_555
H11 C17 1_555 1_555
C18 C14_2 1_555 1_555
H12 C18 1_555 1_555
C19_2 N6_2 1_555 1_555
H13_2 C19_2 1_555 1_555
C20_2 C19_2 1_555 1_555
H14_2 C20_2 1_555 1_555
C21_2 C20_2 1_555 1_555
C22_2 C21_2 1_555 1_555
H15_2 C22_2 1_555 1_555
C23_2 N6_2 1_555 1_555
H16_2 C23_2 1_555 1_555
Cu4 N2_2 1_555 1_555
N11_2 Cu1_2 1_555 1_555
N12_2 Cu1_2 1_555 1_555
N13_2 Cu2_2 1_555 1_555
C12_2 C13_2 1_555 1_555
C17 C18 1_555 1_555
C22_2 C23_2 1_555 1_555
N8_2 C25_2 1_555 1_555
N9_2 C24_2 1_555 1_555
N10_2 C29_2 1_555 1_555
C25_2 C24_2 1_555 1_555
C26_2 N8_2 1_555 1_555
C27_2 C26_2 1_555 1_555
C28_2 C27_2 1_555 1_555
H17_2 C28_2 1_555 1_555
C29_2 C28_2 1_555 1_555
H18_2 C29_2 1_555 1_555
C30_2 N10_2 1_555 1_555
H19_2 C30_2 1_555 1_555
C31_2 C27_2 1_555 1_555
H20_2 C31_2 1_555 1_555
C32_2 C25_2 1_555 1_555
H23_2 C35_2 1_555 1_555
C36_2 C32_2 1_555 1_555
H24_2 C36_2 1_555 1_555
Cu5_2 N8_2 1_555 1_555
N9_2 C26_2 1_555 1_555
C30_2 C31_2 1_555 1_555
C35_2 C36_2 1_555 1_555
N7_2 C34_2 1_555 1_555
H21_2 C33_2 1_555 1_555
C34_2 C33_2 1_555 1_555
H22_2 C34_2 1_555 1_555
Cu3 N7_2 1_555 1_555
N11 C11_3 1_555 1_555
C9_3 C10_3 1_555 1_555
C10_3 H5_2 1_555 1_555
C11_3 C10_3 1_555 1_555
H6_3 C11_3 1_555 1_555
C12_3 N11 1_555 1_555
H7_3 C12_3 1_555 1_555
C13_3 C9_3 1_555 1_555
C12_3 C13_3 1_555 1_555
Cu5 N3_3 1_555 1_555
N3_3 C1_3 1_555 1_555
N4_2 C2_3 1_555 1_555
N5_2 C6_2 1_555 1_555
C1_3 C2_3 1_555 1_555
C3_2 N3_3 1_555 1_555
C4_2 C3_2 1_555 1_555
C5_2 C4_2 1_555 1_555
H1_2 C5_2 1_555 1_555
C6_2 C5_2 1_555 1_555
H2_2 C6_2 1_555 1_555
C7_2 N5_2 1_555 1_555
H3_2 C7_2 1_555 1_555
C8_2 C4_2 1_555 1_555
H4_2 C8_2 1_555 1_555
C14_3 C1_3 1_555 1_555
C15_3 C14_3 1_555 1_555
H9_3 C15_3 1_555 1_555
N4_2 C3_2 1_555 1_555
C7_2 C8_2 1_555 1_555
N6_3 Cu3 1_555 1_555
N12_2 C34_3 1_555 1_555
N13 C25_3 1_555 1_555
C19_3 N6_3 1_555 1_555
H13_3 C19_3 1_555 1_555
C20_3 C19_3 1_555 1_555
C21_3 C20_3 1_555 1_555
C22_3 C21_3 1_555 1_555
H15_3 C22_3 1_555 1_555
C23_3 N6_3 1_555 1_555
H16_3 C23_3 1_555 1_555
C24_3 C21_3 1_555 1_555
C25_3 C24_3 1_555 1_555
C32_3 C25_3 1_555 1_555
C33_3 C32_3 1_555 1_555
H21_3 C33_3 1_555 1_555
C34_3 C33_3 1_555 1_555
H22_3 C34_3 1_555 1_555
C35_3 N12_2 1_555 1_555
H23_3 C35_3 1_555 1_555
C36_3 C32_3 1_555 1_555
H24_3 C36_3 1_555 1_555
C22_3 C23_3 1_555 1_555
C35_3 C36_3 1_555 1_555
N12 C34_4 1_555 1_555
H21_4 C33_4 1_555 1_555
C34_4 C33_4 1_555 1_555
H22_4 C34_4 1_555 1_555
N13_2 C25_4 1_555 1_555
N9_3 C24_4 1_555 1_555
N10_3 C29_3 1_555 1_555
C25_4 C24_4 1_555 1_555
C26_3 N13_2 1_555 1_555
C27_3 C26_3 1_555 1_555
C28_3 C27_3 1_555 1_555
H17_3 C28_3 1_555 1_555
C29_3 C28_3 1_555 1_555
H18_3 C29_3 1_555 1_555
C30_3 N10_3 1_555 1_555
H19_3 C30_3 1_555 1_555
C31_3 C27_3 1_555 1_555
H20_3 C31_3 1_555 1_555
C32_4 C25_4 1_555 1_555
H23_4 C35_4 1_555 1_555
C36_4 C32_4 1_555 1_555
H24_4 C36_4 1_555 1_555
N9_3 C26_3 1_555 1_555
C30_3 C31_3 1_555 1_555
C35_4 C36_4 1_555 1_555
Cu4 N1_2 1_555 1_555
Cu5_2 N3_4 1_555 1_555
N1_2 C16_2 1_555 1_555
N11_2 C11_4 1_555 1_555
N3_4 C1_4 1_555 1_555
N6_4 Cu4 1_555 1_555
C1_4 C2_4 1_555 1_555
C2_4 C9_4 1_555 1_555
C9_4 C10_4 1_555 1_555
C11_4 C10_4 1_555 1_555
H6_4 C11_4 1_555 1_555
C12_4 N11_2 1_555 1_555
H7_4 C12_4 1_555 1_555
C13_4 C9_4 1_555 1_555
H8_4 C13_4 1_555 1_555
C14_4 C1_4 1_555 1_555
C15_4 C14_4 1_555 1_555
H9_4 C15_4 1_555 1_555
C16_2 C15_4 1_555 1_555
H10_5 C16_2 1_555 1_555
C17_2 N1_2 1_555 1_555
H11_2 C17_2 1_555 1_555
C18_2 C14_4 1_555 1_555
H12_2 C18_2 1_555 1_555
C19_4 N6_4 1_555 1_555
H13_4 C19_4 1_555 1_555
C20_4 C19_4 1_555 1_555
H14_3 C20_4 1_555 1_555
C21_4 C20_4 1_555 1_555
C22_4 C21_4 1_555 1_555
H15_4 C22_4 1_555 1_555
C23_4 N6_4 1_555 1_555
H16_4 C23_4 1_555 1_555
C12_4 C13_4 1_555 1_555
C17_2 C18_2 1_555 1_555
C22_4 C23_4 1_555 1_555
N1_3 C16_3 1_555 1_555
C17_3 N1_3 1_555 1_555
H11_3 C17_3 1_555 1_555
H12_3 C18_3 1_555 1_555
C17_3 C18_3 1_555 1_555
N5_3 C6_3 1_555 1_555
C4_3 C3_3 1_555 1_555
C5_3 C4_3 1_555 1_555
H1_3 C5_3 1_555 1_555
C6_3 C5_3 1_555 1_555
H2_3 C6_3 1_555 1_555
C7_3 N5_3 1_555 1_555
H3_3 C7_3 1_555 1_555
C8_3 C4_3 1_555 1_555
H4_3 C8_3 1_555 1_555
N4_3 C3_3 1_555 1_555
C7_3 C8_3 1_555 1_555
N1_4 C16_4 1_555 1_555
C17_4 N1_4 1_555 1_555
H11_4 C17_4 1_555 1_555
H12_4 C18_4 1_555 1_555
C17_4 C18_4 1_555 1_555
N10_4 C29_4 1_555 1_555
C27_4 C26_4 1_555 1_555
C28_4 C27_4 1_555 1_555
H17_4 C28_4 1_555 1_555
C29_4 C28_4 1_555 1_555
H18_4 C29_4 1_555 1_555
C30_4 N10_4 1_555 1_555
H19_4 C30_4 1_555 1_555
C31_4 C27_4 1_555 1_555
H20_4 C31_4 1_555 1_555
N9_4 C26_4 1_555 1_555
C30_4 C31_4 1_555 1_555
N5_4 C6_4 1_555 1_555
C4_4 C3_4 1_555 1_555
C5_4 C4_4 1_555 1_555
H1_4 C5_4 1_555 1_555
C6_4 C5_4 1_555 1_555
H2_4 C6_4 1_555 1_555
C7_4 N5_4 1_555 1_555
H3_4 C7_4 1_555 1_555
C8_4 C4_4 1_555 1_555
H4_4 C8_4 1_555 1_555
N4_4 C3_4 1_555 1_555
C7_4 C8_4 1_555 1_555

#END
