
###############################################################################
#
# This file contains modified crystal structure data generated from the
# MOF subset of the Cambridge Structural Database (CSD) v543 
# hosted by the Cambridge Crystallographic Data Centre (CCDC).
#
# This work is licensed under the Creative Commons
# Attribution-NonCommercial-ShareAlike 4.0 International License.
# To view a copy of this license, visit
# http://creativecommons.org/licenses/by-nc-sa/4.0/
# or send a letter to
# Creative Commons, PO Box 1866, Mountain View, CA 94042, USA.
#
# CIF created using the CSD Python API on 29 September 2022
# The structure has been converted into the P1 space group
# The structure has a 3D framework
# The original CSD entry PADZED is in the tetragonal crystal system
# The framework has been calculated to contain at least 10.0% void space
# The void calculation uses a probe of radius 1.32A, grid spacing 0.4
# The framework is charged, counterions have been retained in the structure
#
###############################################################################

data_PADZED
_chemical_formula_moiety         '(C368 H384 B32 Cd16 N128)n'
_symmetry_cell_setting           triclinic
_symmetry_space_group_name_H-M   'P 1'
_symmetry_Int_Tables_number      1
_space_group_name_Hall           'P 1'
loop_
_symmetry_equiv_pos_site_id
_symmetry_equiv_pos_as_xyz
1 x,y,z
_cell_length_a                   22.329(3)
_cell_length_b                   22.329(3)
_cell_length_c                   29.514(6)
_cell_angle_alpha                90
_cell_angle_beta                 90
_cell_angle_gamma                90
_cell_volume                     14715.2
loop_
_atom_site_label
_atom_site_type_symbol
_atom_site_fract_x
_atom_site_fract_y
_atom_site_fract_z
Cd1 Cd 0.49742(2) 0.75543(2) 0.37606(2)
N1 N 0.48014(16) 0.74269(13) 0.45394(9)
N2 N 0.43091(12) 0.71776(12) 0.59055(7)
N3 N 0.30751(14) 0.58084(13) 0.61818(8)
N4 N 0.32040(13) 0.91306(12) 0.62773(8)
N5 N 0.43441(13) 0.76971(13) 0.66125(7)
N6 N 0.48318(14) 0.76443(15) 0.79879(8)
C1 C 0.44977(18) 0.67821(16) 0.51454(10)
H1 H 0.439482 0.639092 0.524520
C2 C 0.46628(18) 0.68811(16) 0.47038(10)
H2 H 0.468032 0.654809 0.450388
C3 C 0.47920(16) 0.78824(16) 0.48324(9)
H3 H 0.489840 0.826854 0.472389
C4 C 0.46367(16) 0.78266(15) 0.52842(9)
H4 H 0.463576 0.816601 0.547825
C5 C 0.44831(15) 0.72676(16) 0.54475(9)
C6 C 0.39025(16) 0.67202(16) 0.60098(9)
C7 C 0.39598(16) 0.63482(15) 0.63881(10)
H5 H 0.428158 0.640063 0.659489
C8 C 0.35425(17) 0.59056(16) 0.64553(10)
H6 H 0.358863 0.565293 0.671189
C9 C 0.30089(17) 0.61808(16) 0.58319(11)
H7 H 0.267190 0.612828 0.563944
C10 C 0.34029(16) 0.66371(17) 0.57350(11)
H8 H 0.333452 0.689280 0.548299
C11 C 0.47014(18) 0.74176(15) 0.62595(9)
H9 H 0.494425 0.708995 0.639100
H10 H 0.497781 0.771647 0.612658
C12 C 0.33545(19) 0.80944(19) 0.64277(17)
H11 H 0.318705 0.770678 0.646746
C13 C 0.2989(2) 0.85756(18) 0.63221(19)
H12 H 0.257251 0.850884 0.628014
C14 C 0.3782(2) 0.91942(18) 0.63196(19)
H13 H 0.394270 0.958450 0.627914
C15 C 0.41726(19) 0.87444(19) 0.64172(19)
H14 H 0.458911 0.882318 0.644491
C16 C 0.39561(16) 0.81799(15) 0.64745(10)
C17 C 0.45227(15) 0.76806(15) 0.70636(9)
C18 C 0.41780(18) 0.79747(18) 0.73938(11)
H15 H 0.382837 0.819043 0.731020
C19 C 0.43550(18) 0.79457(19) 0.78433(10)
H16 H 0.412153 0.815378 0.806148
C20 C 0.51532(18) 0.73642(19) 0.76707(10)
H17 H 0.549394 0.714208 0.776506
C21 C 0.50204(18) 0.7378(2) 0.72136(9)
H18 H 0.527291 0.717787 0.700327
N7 N 0.55764(15) 0.83608(15) 0.39318(9)
N8 N 0.43736(14) 0.67377(15) 0.36128(9)
C22 C 0.5884(2) 0.8734(2) 0.39668(17)
C23 C 0.4142(3) 0.6307(3) 0.36176(18)
B1 B 0.6323(7) 0.9287(7) 0.3987(5)
H19 H 0.610213 0.964367 0.408455
H20 H 0.649525 0.935721 0.368632
H21 H 0.664585 0.920408 0.420363
B2 B 0.3688(8) 0.5765(7) 0.3720(5)
H22 H 0.373055 0.563922 0.403617
H23 H 0.378161 0.542693 0.351971
H24 H 0.327625 0.589742 0.366506
Cd2 Cd 0.24457(2) 0.49742(2) 0.62394(2)
Cd3 Cd 0.50258(2) 0.75543(2) 0.87606(2)
Cd4 Cd 0.25543(2) 0.99742(2) 0.62394(2)
N9 N 0.58084(13) 0.69249(14) 0.38182(8)
N10 N 0.41306(12) 0.82040(13) 0.37227(8)
N11 N 0.51682(14) 0.76443(15) 0.29879(8)
Cd1_2 Cd 0.50258(2) 0.24457(2) 0.37606(2)
N1_2 N 0.51986(16) 0.25731(13) 0.45394(9)
N2_2 N 0.56909(12) 0.28224(12) 0.59055(7)
N3_2 N 0.69249(14) 0.41916(13) 0.61818(8)
N4_2 N 0.67960(13) 0.08694(12) 0.62773(8)
N5_2 N 0.56559(13) 0.23029(13) 0.66125(7)
N6_2 N 0.51682(14) 0.23557(15) 0.79879(8)
C1_2 C 0.55023(18) 0.32179(16) 0.51454(10)
H1_2 H 0.560518 0.360908 0.524520
C2_2 C 0.53372(18) 0.31189(16) 0.47038(10)
H2_2 H 0.531968 0.345191 0.450388
C3_2 C 0.52080(16) 0.21176(16) 0.48324(9)
H3_2 H 0.510160 0.173146 0.472389
C4_2 C 0.53633(16) 0.21734(15) 0.52842(9)
H4_2 H 0.536424 0.183399 0.547825
C5_2 C 0.55169(15) 0.27324(16) 0.54475(9)
C6_2 C 0.60975(16) 0.32798(16) 0.60098(9)
C7_2 C 0.60402(16) 0.36518(15) 0.63881(10)
H5_2 H 0.571842 0.359937 0.659489
C8_2 C 0.64575(17) 0.40944(16) 0.64553(10)
H6_2 H 0.641137 0.434707 0.671189
C9_2 C 0.69911(17) 0.38192(16) 0.58319(11)
H7_2 H 0.732810 0.387172 0.563944
C10_2 C 0.65971(16) 0.33629(17) 0.57350(11)
H8_2 H 0.666548 0.310720 0.548299
C11_2 C 0.52986(18) 0.25824(15) 0.62595(9)
H9_2 H 0.505575 0.291005 0.639100
H10_2 H 0.502219 0.228353 0.612658
C12_2 C 0.66455(19) 0.19056(19) 0.64277(17)
H11_2 H 0.681295 0.229322 0.646746
C13_2 C 0.7011(2) 0.14244(18) 0.63221(19)
H12_2 H 0.742749 0.149116 0.628014
C14_2 C 0.6218(2) 0.08058(18) 0.63196(19)
H13_2 H 0.605730 0.041550 0.627914
C15_2 C 0.58274(19) 0.12556(19) 0.64172(19)
H14_2 H 0.541089 0.117682 0.644491
C16_2 C 0.60439(16) 0.18201(15) 0.64745(10)
C17_2 C 0.54773(15) 0.23194(15) 0.70636(9)
C18_2 C 0.58220(18) 0.20253(18) 0.73938(11)
H15_2 H 0.617163 0.180957 0.731020
C19_2 C 0.56450(18) 0.20543(19) 0.78433(10)
H16_2 H 0.587847 0.184622 0.806148
C20_2 C 0.48468(18) 0.26358(19) 0.76707(10)
H17_2 H 0.450606 0.285792 0.776506
C21_2 C 0.49796(18) 0.2622(2) 0.72136(9)
H18_2 H 0.472709 0.282213 0.700327
N7_2 N 0.44236(15) 0.16392(15) 0.39318(9)
N8_2 N 0.56264(14) 0.32623(15) 0.36128(9)
C22_2 C 0.4116(2) 0.1266(2) 0.39668(17)
C23_2 C 0.5858(3) 0.3693(3) 0.36176(18)
B1_2 B 0.3677(7) 0.0713(7) 0.3987(5)
H19_2 H 0.389787 0.035633 0.408455
H20_2 H 0.350475 0.064279 0.368632
H21_2 H 0.335415 0.079592 0.420363
B2_2 B 0.6312(8) 0.4235(7) 0.3720(5)
H22_2 H 0.626945 0.436078 0.403617
H23_2 H 0.621839 0.457307 0.351971
H24_2 H 0.672375 0.410258 0.366506
Cd2_2 Cd 0.75543(2) 0.50258(2) 0.62394(2)
Cd3_2 Cd 0.49742(2) 0.24457(2) 0.87606(2)
Cd4_2 Cd 0.74457(2) 0.00258(2) 0.62394(2)
N9_2 N 0.41916(13) 0.30751(14) 0.38182(8)
N10_2 N 0.58694(12) 0.17960(13) 0.37227(8)
N11_2 N 0.48318(14) 0.23557(15) 0.29879(8)
N1_3 N 0.74269(13) 0.51986(16) 0.54606(9)
N2_3 N 0.71776(12) 0.56909(12) 0.40945(7)
N4_3 N 0.91306(12) 0.67960(13) 0.37227(8)
N5_3 N 0.76971(13) 0.56559(13) 0.33875(7)
N6_3 N 0.76443(15) 0.51682(14) 0.20121(8)
C1_3 C 0.67821(16) 0.55023(18) 0.48546(10)
H1_3 H 0.639092 0.560518 0.475480
C2_3 C 0.68811(16) 0.53372(18) 0.52962(10)
H2_3 H 0.654809 0.531968 0.549612
C3_3 C 0.78824(16) 0.52080(16) 0.51676(9)
H3_3 H 0.826854 0.510160 0.527611
C4_3 C 0.78266(15) 0.53633(16) 0.47158(9)
H4_3 H 0.816601 0.536424 0.452175
C5_3 C 0.72676(16) 0.55169(15) 0.45525(9)
C6_3 C 0.67202(16) 0.60975(16) 0.39902(9)
C7_3 C 0.63482(15) 0.60402(16) 0.36119(10)
H5_3 H 0.640063 0.571842 0.340511
C8_3 C 0.59056(16) 0.64575(17) 0.35447(10)
H6_3 H 0.565293 0.641137 0.328811
C9_3 C 0.61808(16) 0.69911(17) 0.41681(11)
H7_3 H 0.612828 0.732810 0.436056
C10_3 C 0.66371(17) 0.65971(16) 0.42650(11)
H8_3 H 0.689280 0.666548 0.451701
C11_3 C 0.74176(15) 0.52986(18) 0.37405(9)
H9_3 H 0.708995 0.505575 0.360900
H10_3 H 0.771647 0.502219 0.387342
C12_3 C 0.80944(19) 0.66455(19) 0.35723(17)
H11_3 H 0.770678 0.681295 0.353254
C13_3 C 0.85756(18) 0.7011(2) 0.36779(19)
H12_3 H 0.850884 0.742749 0.371986
C14_3 C 0.91942(18) 0.6218(2) 0.36804(19)
H13_3 H 0.958450 0.605730 0.372086
C15_3 C 0.87444(19) 0.58274(19) 0.35828(19)
H14_3 H 0.882318 0.541089 0.355509
C16_3 C 0.81799(15) 0.60439(16) 0.35255(10)
C17_3 C 0.76806(15) 0.54773(15) 0.29364(9)
C18_3 C 0.79747(18) 0.58220(18) 0.26062(11)
H15_3 H 0.819043 0.617163 0.268980
C19_3 C 0.79457(19) 0.56450(18) 0.21567(10)
H16_3 H 0.815378 0.587847 0.193852
C20_3 C 0.73642(19) 0.48468(18) 0.23293(10)
H17_3 H 0.714208 0.450606 0.223494
C21_3 C 0.7378(2) 0.49796(18) 0.27864(9)
H18_3 H 0.717787 0.472709 0.299673
N7_3 N 0.83608(15) 0.44236(15) 0.60682(9)
N8_3 N 0.67377(15) 0.56264(14) 0.63872(9)
C22_3 C 0.8734(2) 0.4116(2) 0.60332(17)
C23_3 C 0.6307(3) 0.5858(3) 0.63824(18)
B1_3 B 0.9287(7) 0.3677(7) 0.6013(5)
H19_3 H 0.964367 0.389787 0.591545
H20_3 H 0.935721 0.350475 0.631368
H21_3 H 0.920408 0.335415 0.579637
B2_3 B 0.5765(7) 0.6312(8) 0.6280(5)
H22_3 H 0.563922 0.626945 0.596383
H23_3 H 0.542693 0.621839 0.648029
H24_3 H 0.589742 0.672375 0.633494
Cd3_3 Cd 0.75543(2) 0.49742(2) 0.12394(2)
Cd4_3 Cd 0.99742(2) 0.74457(2) 0.37606(2)
N10_3 N 0.82040(13) 0.58694(12) 0.62773(8)
N11_3 N 0.76443(15) 0.48318(14) 0.70121(8)
N1_4 N 0.25731(13) 0.48014(16) 0.54606(9)
N2_4 N 0.28224(12) 0.43091(12) 0.40945(7)
N4_4 N 0.08694(12) 0.32040(13) 0.37227(8)
N5_4 N 0.23029(13) 0.43441(13) 0.33875(7)
N6_4 N 0.23557(15) 0.48318(14) 0.20121(8)
C1_4 C 0.32179(16) 0.44977(18) 0.48546(10)
H1_4 H 0.360908 0.439482 0.475480
C2_4 C 0.31189(16) 0.46628(18) 0.52962(10)
H2_4 H 0.345191 0.468032 0.549612
C3_4 C 0.21176(16) 0.47920(16) 0.51676(9)
H3_4 H 0.173146 0.489840 0.527611
C4_4 C 0.21734(15) 0.46367(16) 0.47158(9)
H4_4 H 0.183399 0.463576 0.452175
C5_4 C 0.27324(16) 0.44831(15) 0.45525(9)
C6_4 C 0.32798(16) 0.39025(16) 0.39902(9)
C7_4 C 0.36518(15) 0.39598(16) 0.36119(10)
H5_4 H 0.359937 0.428158 0.340511
C8_4 C 0.40944(16) 0.35425(17) 0.35447(10)
H6_4 H 0.434707 0.358863 0.328811
C9_4 C 0.38192(16) 0.30089(17) 0.41681(11)
H7_4 H 0.387172 0.267190 0.436056
C10_4 C 0.33629(17) 0.34029(16) 0.42650(11)
H8_4 H 0.310720 0.333452 0.451701
C11_4 C 0.25824(15) 0.47014(18) 0.37405(9)
H9_4 H 0.291005 0.494425 0.360900
H10_4 H 0.228353 0.497781 0.387342
C12_4 C 0.19056(19) 0.33545(19) 0.35723(17)
H11_4 H 0.229322 0.318705 0.353254
C13_4 C 0.14244(18) 0.2989(2) 0.36779(19)
H12_4 H 0.149116 0.257251 0.371986
C14_4 C 0.08058(18) 0.3782(2) 0.36804(19)
H13_4 H 0.041550 0.394270 0.372086
C15_4 C 0.12556(19) 0.41726(19) 0.35828(19)
H14_4 H 0.117682 0.458911 0.355509
C16_4 C 0.18201(15) 0.39561(16) 0.35255(10)
C17_4 C 0.23194(15) 0.45227(15) 0.29364(9)
C18_4 C 0.20253(18) 0.41780(18) 0.26062(11)
H15_4 H 0.180957 0.382837 0.268980
C19_4 C 0.20543(19) 0.43550(18) 0.21567(10)
H16_4 H 0.184622 0.412153 0.193852
C20_4 C 0.26358(19) 0.51532(18) 0.23293(10)
H17_4 H 0.285792 0.549394 0.223494
C21_4 C 0.2622(2) 0.50204(18) 0.27864(9)
H18_4 H 0.282213 0.527291 0.299673
N7_4 N 0.16392(15) 0.55764(15) 0.60682(9)
N8_4 N 0.32623(15) 0.43736(14) 0.63872(9)
C22_4 C 0.1266(2) 0.5884(2) 0.60332(17)
C23_4 C 0.3693(3) 0.4142(3) 0.63824(18)
B1_4 B 0.0713(7) 0.6323(7) 0.6013(5)
H19_4 H 0.035633 0.610213 0.591545
H20_4 H 0.064279 0.649525 0.631368
H21_4 H 0.079592 0.664585 0.579637
B2_4 B 0.4235(7) 0.3688(8) 0.6280(5)
H22_4 H 0.436078 0.373055 0.596383
H23_4 H 0.457307 0.378161 0.648029
H24_4 H 0.410258 0.327625 0.633494
Cd3_4 Cd 0.24457(2) 0.50258(2) 0.12394(2)
Cd4_4 Cd 0.00258(2) 0.25543(2) 0.37606(2)
N10_4 N 0.17960(13) 0.41306(12) 0.62773(8)
N11_4 N 0.23557(15) 0.51682(14) 0.70121(8)
N2_5 N 0.43091(12) 0.28224(12) 0.09055(7)
N3_3 N 0.30751(14) 0.41916(13) 0.11818(8)
N4_5 N 0.32040(13) 0.08694(12) 0.12773(8)
N5_5 N 0.43441(13) 0.23029(13) 0.16125(7)
C1_5 C 0.44977(18) 0.32179(16) 0.01454(10)
H1_5 H 0.439482 0.360908 0.024520
C4_5 C 0.46367(16) 0.21734(15) 0.02842(9)
H4_5 H 0.463576 0.183399 0.047825
C5_5 C 0.44831(15) 0.27324(16) 0.04475(9)
C6_5 C 0.39025(16) 0.32798(16) 0.10098(9)
C7_5 C 0.39598(16) 0.36518(15) 0.13881(10)
H5_5 H 0.428158 0.359937 0.159489
C8_5 C 0.35425(17) 0.40944(16) 0.14553(10)
H6_5 H 0.358863 0.434707 0.171189
C9_5 C 0.30089(17) 0.38192(16) 0.08319(11)
H7_5 H 0.267190 0.387172 0.063944
C10_5 C 0.34029(16) 0.33629(17) 0.07350(11)
H8_5 H 0.333452 0.310720 0.048299
C11_5 C 0.47014(18) 0.25824(15) 0.12595(9)
H9_5 H 0.494425 0.291005 0.139100
H10_5 H 0.497781 0.228353 0.112658
C12_5 C 0.33545(19) 0.19056(19) 0.14277(17)
H11_5 H 0.318705 0.229322 0.146746
C13_5 C 0.2989(2) 0.14244(18) 0.13221(19)
H12_5 H 0.257251 0.149116 0.128014
C14_5 C 0.3782(2) 0.08058(18) 0.13196(19)
H13_5 H 0.394270 0.041550 0.127914
C15_5 C 0.41726(19) 0.12556(19) 0.14172(19)
H14_5 H 0.458911 0.117682 0.144491
C16_5 C 0.39561(16) 0.18201(15) 0.14745(10)
C17_5 C 0.45227(15) 0.23194(15) 0.20636(9)
C18_5 C 0.41780(18) 0.20253(18) 0.23938(11)
H15_5 H 0.382837 0.180957 0.231020
C19_5 C 0.43550(18) 0.20543(19) 0.28433(10)
H16_5 H 0.412153 0.184622 0.306148
C20_5 C 0.51532(18) 0.26358(19) 0.26707(10)
H17_5 H 0.549394 0.285792 0.276506
C21_5 C 0.50204(18) 0.2622(2) 0.22136(9)
H18_5 H 0.527291 0.282213 0.200327
Cd4_5 Cd 0.25543(2) 0.00258(2) 0.12394(2)
N1_5 N 0.48014(16) 0.25731(13) 0.95394(9)
C2_5 C 0.46628(18) 0.31189(16) 0.97038(10)
H2_5 H 0.468032 0.345191 0.950388
C3_5 C 0.47920(16) 0.21176(16) 0.98324(9)
H3_5 H 0.489840 0.173146 0.972389
N7_5 N 0.55764(15) 0.16392(15) 0.89318(9)
N8_5 N 0.43736(14) 0.32623(15) 0.86128(9)
C22_5 C 0.5884(2) 0.1266(2) 0.89668(17)
C23_5 C 0.4142(3) 0.3693(3) 0.86176(18)
B1_5 B 0.6323(7) 0.0713(7) 0.8987(5)
H19_5 H 0.610213 0.035633 0.908455
H20_5 H 0.649525 0.064279 0.868632
H21_5 H 0.664585 0.079592 0.920363
B2_5 B 0.3688(8) 0.4235(7) 0.8720(5)
H22_5 H 0.373055 0.436078 0.903617
H23_5 H 0.378161 0.457307 0.851971
H24_5 H 0.327625 0.410258 0.866506
N9_3 N 0.58084(13) 0.30751(14) 0.88182(8)
N10_5 N 0.41306(12) 0.17960(13) 0.87227(8)
N2_6 N 0.56909(12) 0.71776(12) 0.09055(7)
N3_4 N 0.69249(14) 0.58084(13) 0.11818(8)
N4_6 N 0.67960(13) 0.91306(12) 0.12773(8)
N5_6 N 0.56559(13) 0.76971(13) 0.16125(7)
C1_6 C 0.55023(18) 0.67821(16) 0.01454(10)
H1_6 H 0.560518 0.639092 0.024520
C4_6 C 0.53633(16) 0.78266(15) 0.02842(9)
H4_6 H 0.536424 0.816601 0.047825
C5_6 C 0.55169(15) 0.72676(16) 0.04475(9)
C6_6 C 0.60975(16) 0.67202(16) 0.10098(9)
C7_6 C 0.60402(16) 0.63482(15) 0.13881(10)
H5_6 H 0.571842 0.640063 0.159489
C8_6 C 0.64575(17) 0.59056(16) 0.14553(10)
H6_6 H 0.641137 0.565293 0.171189
C9_6 C 0.69911(17) 0.61808(16) 0.08319(11)
H7_6 H 0.732810 0.612828 0.063944
C10_6 C 0.65971(16) 0.66371(17) 0.07350(11)
H8_6 H 0.666548 0.689280 0.048299
C11_6 C 0.52986(18) 0.74176(15) 0.12595(9)
H9_6 H 0.505575 0.708995 0.139100
H10_6 H 0.502219 0.771647 0.112658
C12_6 C 0.66455(19) 0.80944(19) 0.14277(17)
H11_6 H 0.681295 0.770678 0.146746
C13_6 C 0.7011(2) 0.85756(18) 0.13221(19)
H12_6 H 0.742749 0.850884 0.128014
C14_6 C 0.6218(2) 0.91942(18) 0.13196(19)
H13_6 H 0.605730 0.958450 0.127914
C15_6 C 0.58274(19) 0.87444(19) 0.14172(19)
H14_6 H 0.541089 0.882318 0.144491
C16_6 C 0.60439(16) 0.81799(15) 0.14745(10)
C17_6 C 0.54773(15) 0.76806(15) 0.20636(9)
C18_6 C 0.58220(18) 0.79747(18) 0.23938(11)
H15_6 H 0.617163 0.819043 0.231020
C19_6 C 0.56450(18) 0.79457(19) 0.28433(10)
H16_6 H 0.587847 0.815378 0.306148
C20_6 C 0.48468(18) 0.73642(19) 0.26707(10)
H17_6 H 0.450606 0.714208 0.276506
C21_6 C 0.49796(18) 0.7378(2) 0.22136(9)
H18_6 H 0.472709 0.717787 0.200327
Cd4_6 Cd 0.74457(2) 0.99742(2) 0.12394(2)
N1_6 N 0.51986(16) 0.74269(13) 0.95394(9)
C2_6 C 0.53372(18) 0.68811(16) 0.97038(10)
H2_6 H 0.531968 0.654809 0.950388
C3_6 C 0.52080(16) 0.78824(16) 0.98324(9)
H3_6 H 0.510160 0.826854 0.972389
N7_6 N 0.44236(15) 0.83608(15) 0.89318(9)
N8_6 N 0.56264(14) 0.67377(15) 0.86128(9)
C22_6 C 0.4116(2) 0.8734(2) 0.89668(17)
C23_6 C 0.5858(3) 0.6307(3) 0.86176(18)
B1_6 B 0.3677(7) 0.9287(7) 0.8987(5)
H19_6 H 0.389787 0.964367 0.908455
H20_6 H 0.350475 0.935721 0.868632
H21_6 H 0.335415 0.920408 0.920363
B2_6 B 0.6312(8) 0.5765(7) 0.8720(5)
H22_6 H 0.626945 0.563922 0.903617
H23_6 H 0.621839 0.542693 0.851971
H24_6 H 0.672375 0.589742 0.866506
N9_4 N 0.41916(13) 0.69249(14) 0.88182(8)
N10_6 N 0.58694(12) 0.82040(13) 0.87227(8)
N1_7 N 0.74269(13) 0.48014(16) 0.04606(9)
C2_7 C 0.68811(16) 0.46628(18) 0.02962(10)
H2_7 H 0.654809 0.468032 0.049612
C3_7 C 0.78824(16) 0.47920(16) 0.01676(9)
H3_7 H 0.826854 0.489840 0.027611
N7_7 N 0.83608(15) 0.55764(15) 0.10682(9)
N8_7 N 0.67377(15) 0.43736(14) 0.13872(9)
C22_7 C 0.8734(2) 0.5884(2) 0.10332(17)
C23_7 C 0.6307(3) 0.4142(3) 0.13824(18)
B1_7 B 0.9287(7) 0.6323(7) 0.1013(5)
H19_7 H 0.964367 0.610213 0.091545
H20_7 H 0.935721 0.649525 0.131368
H21_7 H 0.920408 0.664585 0.079637
B2_7 B 0.5765(7) 0.3688(8) 0.1280(5)
H22_7 H 0.563922 0.373055 0.096383
H23_7 H 0.542693 0.378161 0.148029
H24_7 H 0.589742 0.327625 0.133494
N10_7 N 0.82040(13) 0.41306(12) 0.12773(8)
N2_7 N 0.71776(12) 0.43091(12) 0.90945(7)
N4_7 N 0.91306(12) 0.32040(13) 0.87227(8)
N5_7 N 0.76971(13) 0.43441(13) 0.83875(7)
C1_7 C 0.67821(16) 0.44977(18) 0.98546(10)
H1_7 H 0.639092 0.439482 0.975480
C4_7 C 0.78266(15) 0.46367(16) 0.97158(9)
H4_7 H 0.816601 0.463576 0.952175
C5_7 C 0.72676(16) 0.44831(15) 0.95525(9)
C6_7 C 0.67202(16) 0.39025(16) 0.89902(9)
C7_7 C 0.63482(15) 0.39598(16) 0.86119(10)
H5_7 H 0.640063 0.428158 0.840511
C8_7 C 0.59056(16) 0.35425(17) 0.85447(10)
H6_7 H 0.565293 0.358863 0.828811
C9_7 C 0.61808(16) 0.30089(17) 0.91681(11)
H7_7 H 0.612828 0.267190 0.936056
C10_7 C 0.66371(17) 0.34029(16) 0.92650(11)
H8_7 H 0.689280 0.333452 0.951701
C11_7 C 0.74176(15) 0.47014(18) 0.87405(9)
H9_7 H 0.708995 0.494425 0.860900
H10_7 H 0.771647 0.497781 0.887342
C12_7 C 0.80944(19) 0.33545(19) 0.85723(17)
H11_7 H 0.770678 0.318705 0.853254
C13_7 C 0.85756(18) 0.2989(2) 0.86779(19)
H12_7 H 0.850884 0.257251 0.871986
C14_7 C 0.91942(18) 0.3782(2) 0.86804(19)
H13_7 H 0.958450 0.394270 0.872086
C15_7 C 0.87444(19) 0.41726(19) 0.85828(19)
H14_7 H 0.882318 0.458911 0.855509
C16_7 C 0.81799(15) 0.39561(16) 0.85255(10)
C17_7 C 0.76806(15) 0.45227(15) 0.79364(9)
C18_7 C 0.79747(18) 0.41780(18) 0.76062(11)
H15_7 H 0.819043 0.382837 0.768980
C19_7 C 0.79457(19) 0.43550(18) 0.71567(10)
H16_7 H 0.815378 0.412153 0.693852
C20_7 C 0.73642(19) 0.51532(18) 0.73293(10)
H17_7 H 0.714208 0.549394 0.723494
C21_7 C 0.7378(2) 0.50204(18) 0.77864(9)
H18_7 H 0.717787 0.527291 0.799673
Cd4_7 Cd 0.99742(2) 0.25543(2) 0.87606(2)
N1_8 N 0.25731(13) 0.51986(16) 0.04606(9)
C2_8 C 0.31189(16) 0.53372(18) 0.02962(10)
H2_8 H 0.345191 0.531968 0.049612
C3_8 C 0.21176(16) 0.52080(16) 0.01676(9)
H3_8 H 0.173146 0.510160 0.027611
N7_8 N 0.16392(15) 0.44236(15) 0.10682(9)
N8_8 N 0.32623(15) 0.56264(14) 0.13872(9)
C22_8 C 0.1266(2) 0.4116(2) 0.10332(17)
C23_8 C 0.3693(3) 0.5858(3) 0.13824(18)
B1_8 B 0.0713(7) 0.3677(7) 0.1013(5)
H19_8 H 0.035633 0.389787 0.091545
H20_8 H 0.064279 0.350475 0.131368
H21_8 H 0.079592 0.335415 0.079637
B2_8 B 0.4235(7) 0.6312(8) 0.1280(5)
H22_8 H 0.436078 0.626945 0.096383
H23_8 H 0.457307 0.621839 0.148029
H24_8 H 0.410258 0.672375 0.133494
N10_8 N 0.17960(13) 0.58694(12) 0.12773(8)
N2_8 N 0.28224(12) 0.56909(12) 0.90945(7)
N4_8 N 0.08694(12) 0.67960(13) 0.87227(8)
N5_8 N 0.23029(13) 0.56559(13) 0.83875(7)
C1_8 C 0.32179(16) 0.55023(18) 0.98546(10)
H1_8 H 0.360908 0.560518 0.975480
C4_8 C 0.21734(15) 0.53633(16) 0.97158(9)
H4_8 H 0.183399 0.536424 0.952175
C5_8 C 0.27324(16) 0.55169(15) 0.95525(9)
C6_8 C 0.32798(16) 0.60975(16) 0.89902(9)
C7_8 C 0.36518(15) 0.60402(16) 0.86119(10)
H5_8 H 0.359937 0.571842 0.840511
C8_8 C 0.40944(16) 0.64575(17) 0.85447(10)
H6_8 H 0.434707 0.641137 0.828811
C9_8 C 0.38192(16) 0.69911(17) 0.91681(11)
H7_8 H 0.387172 0.732810 0.936056
C10_8 C 0.33629(17) 0.65971(16) 0.92650(11)
H8_8 H 0.310720 0.666548 0.951701
C11_8 C 0.25824(15) 0.52986(18) 0.87405(9)
H9_8 H 0.291005 0.505575 0.860900
H10_8 H 0.228353 0.502219 0.887342
C12_8 C 0.19056(19) 0.66455(19) 0.85723(17)
H11_8 H 0.229322 0.681295 0.853254
C13_8 C 0.14244(18) 0.7011(2) 0.86779(19)
H12_8 H 0.149116 0.742749 0.871986
C14_8 C 0.08058(18) 0.6218(2) 0.86804(19)
H13_8 H 0.041550 0.605730 0.872086
C15_8 C 0.12556(19) 0.58274(19) 0.85828(19)
H14_8 H 0.117682 0.541089 0.855509
C16_8 C 0.18201(15) 0.60439(16) 0.85255(10)
C17_8 C 0.23194(15) 0.54773(15) 0.79364(9)
C18_8 C 0.20253(18) 0.58220(18) 0.76062(11)
H15_8 H 0.180957 0.617163 0.768980
C19_8 C 0.20543(19) 0.56450(18) 0.71567(10)
H16_8 H 0.184622 0.587847 0.693852
C20_8 C 0.26358(19) 0.48468(18) 0.73293(10)
H17_8 H 0.285792 0.450606 0.723494
C21_8 C 0.2622(2) 0.49796(18) 0.77864(9)
H18_8 H 0.282213 0.472709 0.799673
Cd4_8 Cd 0.00258(2) 0.74457(2) 0.87606(2)
C20_9 C 0.01532(18) 0.23642(19) 0.26707(10)
H17_9 H 0.049394 0.214208 0.276506
C21_9 C 0.00204(18) 0.2378(2) 0.22136(9)
H18_9 H 0.027291 0.217787 0.200327
N7_9 N 0.05764(15) 0.33608(15) 0.89318(9)
C22_9 C 0.0884(2) 0.3734(2) 0.89668(17)
B1_9 B 0.1323(7) 0.4287(7) 0.8987(5)
H19_9 H 0.110213 0.464367 0.908455
H20_9 H 0.149525 0.435721 0.868632
H21_9 H 0.164585 0.420408 0.920363
N9_5 N 0.08084(13) 0.19249(14) 0.88182(8)
N11_5 N 0.01682(14) 0.26443(15) 0.79879(8)
N2_9 N 0.93091(12) 0.21776(12) 0.09055(7)
N3_5 N 0.80751(14) 0.08084(13) 0.11818(8)
N5_9 N 0.93441(13) 0.26971(13) 0.16125(7)
N6_5 N 0.98318(14) 0.26443(15) 0.29879(8)
C1_9 C 0.94977(18) 0.17821(16) 0.01454(10)
H1_9 H 0.939482 0.139092 0.024520
C4_9 C 0.96367(16) 0.28266(15) 0.02842(9)
H4_9 H 0.963576 0.316601 0.047825
C5_9 C 0.94831(15) 0.22676(16) 0.04475(9)
C6_9 C 0.89025(16) 0.17202(16) 0.10098(9)
C7_9 C 0.89598(16) 0.13482(15) 0.13881(10)
H5_9 H 0.928158 0.140063 0.159489
C8_9 C 0.85425(17) 0.09056(16) 0.14553(10)
H6_9 H 0.858863 0.065293 0.171189
C9_9 C 0.80089(17) 0.11808(16) 0.08319(11)
H7_9 H 0.767190 0.112828 0.063944
C10_9 C 0.84029(16) 0.16371(17) 0.07350(11)
H8_9 H 0.833452 0.189280 0.048299
C11_9 C 0.97014(18) 0.24176(15) 0.12595(9)
H9_9 H 0.994425 0.208995 0.139100
H10_9 H 0.997781 0.271647 0.112658
C12_9 C 0.83545(19) 0.30944(19) 0.14277(17)
H11_9 H 0.818705 0.270678 0.146746
C13_9 C 0.7989(2) 0.35756(18) 0.13221(19)
H12_9 H 0.757251 0.350884 0.128014
C14_9 C 0.8782(2) 0.41942(18) 0.13196(19)
H13_9 H 0.894270 0.458450 0.127914
C15_9 C 0.91726(19) 0.37444(19) 0.14172(19)
H14_9 H 0.958911 0.382318 0.144491
C16_9 C 0.89561(16) 0.31799(15) 0.14745(10)
C17_9 C 0.95227(15) 0.26806(15) 0.20636(9)
C18_9 C 0.91780(18) 0.29747(18) 0.23938(11)
H15_9 H 0.882837 0.319043 0.231020
C19_9 C 0.93550(18) 0.29457(19) 0.28433(10)
H16_9 H 0.912153 0.315378 0.306148
N1_9 N 0.98014(16) 0.24269(13) 0.95394(9)
C2_9 C 0.96628(18) 0.18811(16) 0.97038(10)
H2_9 H 0.968032 0.154809 0.950388
C3_9 C 0.97920(16) 0.28824(16) 0.98324(9)
H3_9 H 0.989840 0.326854 0.972389
N8_9 N 0.93736(14) 0.17377(15) 0.86128(9)
C23_9 C 0.9142(3) 0.1307(3) 0.86176(18)
B2_9 B 0.8688(8) 0.0765(7) 0.8720(5)
H22_9 H 0.873055 0.063922 0.903617
H23_9 H 0.878161 0.042693 0.851971
H24_9 H 0.827625 0.089742 0.866506
N2_10 N 0.06909(12) 0.78224(12) 0.09055(7)
N3_6 N 0.19249(14) 0.91916(13) 0.11818(8)
N5_10 N 0.06559(13) 0.73029(13) 0.16125(7)
N6_6 N 0.01682(14) 0.73557(15) 0.29879(8)
C1_10 C 0.05023(18) 0.82179(16) 0.01454(10)
H1_10 H 0.060518 0.860908 0.024520
C4_10 C 0.03633(16) 0.71734(15) 0.02842(9)
H4_10 H 0.036424 0.683399 0.047825
C5_10 C 0.05169(15) 0.77324(16) 0.04475(9)
C6_10 C 0.10975(16) 0.82798(16) 0.10098(9)
C7_10 C 0.10402(16) 0.86518(15) 0.13881(10)
H5_10 H 0.071842 0.859937 0.159489
C8_10 C 0.14575(17) 0.90944(16) 0.14553(10)
H6_10 H 0.141137 0.934707 0.171189
C9_10 C 0.19911(17) 0.88192(16) 0.08319(11)
H7_10 H 0.232810 0.887172 0.063944
C10_10 C 0.15971(16) 0.83629(17) 0.07350(11)
H8_10 H 0.166548 0.810720 0.048299
C11_10 C 0.02986(18) 0.75824(15) 0.12595(9)
H9_10 H 0.005575 0.791005 0.139100
H10_10 H 0.002219 0.728353 0.112658
C12_10 C 0.16455(19) 0.69056(19) 0.14277(17)
H11_10 H 0.181295 0.729322 0.146746
C13_10 C 0.2011(2) 0.64244(18) 0.13221(19)
H12_10 H 0.242749 0.649116 0.128014
C14_10 C 0.1218(2) 0.58058(18) 0.13196(19)
H13_10 H 0.105730 0.541550 0.127914
C15_10 C 0.08274(19) 0.62556(19) 0.14172(19)
H14_10 H 0.041089 0.617682 0.144491
C16_10 C 0.10439(16) 0.68201(15) 0.14745(10)
C17_10 C 0.04773(15) 0.73194(15) 0.20636(9)
C18_10 C 0.08220(18) 0.70253(18) 0.23938(11)
H15_10 H 0.117163 0.680957 0.231020
C19_10 C 0.06450(18) 0.70543(19) 0.28433(10)
H16_10 H 0.087847 0.684622 0.306148
N1_10 N 0.01986(16) 0.75731(13) 0.95394(9)
C2_10 C 0.03372(18) 0.81189(16) 0.97038(10)
H2_10 H 0.031968 0.845191 0.950388
C3_10 C 0.02080(16) 0.71176(16) 0.98324(9)
H3_10 H 0.010160 0.673146 0.972389
N8_10 N 0.06264(14) 0.82623(15) 0.86128(9)
C23_10 C 0.0858(3) 0.8693(3) 0.86176(18)
B2_10 B 0.1312(8) 0.9235(7) 0.8720(5)
H22_10 H 0.126945 0.936078 0.903617
H23_10 H 0.121839 0.957307 0.851971
H24_10 H 0.172375 0.910258 0.866506
C20_10 C 0.98468(18) 0.76358(19) 0.26707(10)
H17_10 H 0.950606 0.785792 0.276506
C21_10 C 0.99796(18) 0.7622(2) 0.22136(9)
H18_10 H 0.972709 0.782213 0.200327
N7_10 N 0.94236(15) 0.66392(15) 0.89318(9)
C22_10 C 0.9116(2) 0.6266(2) 0.89668(17)
B1_10 B 0.8677(7) 0.5713(7) 0.8987(5)
H19_10 H 0.889787 0.535633 0.908455
H20_10 H 0.850475 0.564279 0.868632
H21_10 H 0.835415 0.579592 0.920363
N9_6 N 0.91916(13) 0.80751(14) 0.88182(8)
N11_6 N 0.98318(14) 0.73557(15) 0.79879(8)
N1_11 N 0.24269(13) 0.01986(16) 0.04606(9)
C2_11 C 0.18811(16) 0.03372(18) 0.02962(10)
H2_11 H 0.154809 0.031968 0.049612
C3_11 C 0.28824(16) 0.02080(16) 0.01676(9)
H3_11 H 0.326854 0.010160 0.027611
N8_11 N 0.17377(15) 0.06264(14) 0.13872(9)
C23_11 C 0.1307(3) 0.0858(3) 0.13824(18)
B2_11 B 0.0765(7) 0.1312(8) 0.1280(5)
H22_11 H 0.063922 0.126945 0.096383
H23_11 H 0.042693 0.121839 0.148029
H24_11 H 0.089742 0.172375 0.133494
N2_11 N 0.21776(12) 0.06909(12) 0.90945(7)
N5_11 N 0.26971(13) 0.06559(13) 0.83875(7)
N6_7 N 0.26443(15) 0.01682(14) 0.70121(8)
C1_11 C 0.17821(16) 0.05023(18) 0.98546(10)
H1_11 H 0.139092 0.060518 0.975480
C4_11 C 0.28266(15) 0.03633(16) 0.97158(9)
H4_11 H 0.316601 0.036424 0.952175
C5_11 C 0.22676(16) 0.05169(15) 0.95525(9)
C6_11 C 0.17202(16) 0.10975(16) 0.89902(9)
C7_11 C 0.13482(15) 0.10402(16) 0.86119(10)
H5_11 H 0.140063 0.071842 0.840511
C8_11 C 0.09056(16) 0.14575(17) 0.85447(10)
H6_11 H 0.065293 0.141137 0.828811
C9_11 C 0.11808(16) 0.19911(17) 0.91681(11)
H7_11 H 0.112828 0.232810 0.936056
C10_11 C 0.16371(17) 0.15971(16) 0.92650(11)
H8_11 H 0.189280 0.166548 0.951701
C11_11 C 0.24176(15) 0.02986(18) 0.87405(9)
H9_11 H 0.208995 0.005575 0.860900
H10_11 H 0.271647 0.002219 0.887342
C12_11 C 0.30944(19) 0.16455(19) 0.85723(17)
H11_11 H 0.270678 0.181295 0.853254
C13_11 C 0.35756(18) 0.2011(2) 0.86779(19)
H12_11 H 0.350884 0.242749 0.871986
C14_11 C 0.41942(18) 0.1218(2) 0.86804(19)
H13_11 H 0.458450 0.105730 0.872086
C15_11 C 0.37444(19) 0.08274(19) 0.85828(19)
H14_11 H 0.382318 0.041089 0.855509
C16_11 C 0.31799(15) 0.10439(16) 0.85255(10)
C17_11 C 0.26806(15) 0.04773(15) 0.79364(9)
C18_11 C 0.29747(18) 0.08220(18) 0.76062(11)
H15_11 H 0.319043 0.117163 0.768980
C19_11 C 0.29457(19) 0.06450(18) 0.71567(10)
H16_11 H 0.315378 0.087847 0.693852
N7_11 N 0.33608(15) 0.94236(15) 0.10682(9)
C22_11 C 0.3734(2) 0.9116(2) 0.10332(17)
B1_11 B 0.4287(7) 0.8677(7) 0.1013(5)
H19_11 H 0.464367 0.889787 0.091545
H20_11 H 0.435721 0.850475 0.131368
H21_11 H 0.420408 0.835415 0.079637
N11_7 N 0.26443(15) 0.98318(14) 0.20121(8)
C20_11 C 0.23642(19) 0.98468(18) 0.73293(10)
H17_11 H 0.214208 0.950606 0.723494
C21_11 C 0.2378(2) 0.99796(18) 0.77864(9)
H18_11 H 0.217787 0.972709 0.799673
N7_12 N 0.66392(15) 0.05764(15) 0.10682(9)
C22_12 C 0.6266(2) 0.0884(2) 0.10332(17)
B1_12 B 0.5713(7) 0.1323(7) 0.1013(5)
H19_12 H 0.535633 0.110213 0.091545
H20_12 H 0.564279 0.149525 0.131368
H21_12 H 0.579592 0.164585 0.079637
N11_8 N 0.73557(15) 0.01682(14) 0.20121(8)
C20_12 C 0.76358(19) 0.01532(18) 0.73293(10)
H17_12 H 0.785792 0.049394 0.723494
C21_12 C 0.7622(2) 0.00204(18) 0.77864(9)
H18_12 H 0.782213 0.027291 0.799673
N1_12 N 0.75731(13) 0.98014(16) 0.04606(9)
C2_12 C 0.81189(16) 0.96628(18) 0.02962(10)
H2_12 H 0.845191 0.968032 0.049612
C3_12 C 0.71176(16) 0.97920(16) 0.01676(9)
H3_12 H 0.673146 0.989840 0.027611
N8_12 N 0.82623(15) 0.93736(14) 0.13872(9)
C23_12 C 0.8693(3) 0.9142(3) 0.13824(18)
B2_12 B 0.9235(7) 0.8688(8) 0.1280(5)
H22_12 H 0.936078 0.873055 0.096383
H23_12 H 0.957307 0.878161 0.148029
H24_12 H 0.910258 0.827625 0.133494
N2_12 N 0.78224(12) 0.93091(12) 0.90945(7)
N5_12 N 0.73029(13) 0.93441(13) 0.83875(7)
N6_8 N 0.73557(15) 0.98318(14) 0.70121(8)
C1_12 C 0.82179(16) 0.94977(18) 0.98546(10)
H1_12 H 0.860908 0.939482 0.975480
C4_12 C 0.71734(15) 0.96367(16) 0.97158(9)
H4_12 H 0.683399 0.963576 0.952175
C5_12 C 0.77324(16) 0.94831(15) 0.95525(9)
C6_12 C 0.82798(16) 0.89025(16) 0.89902(9)
C7_12 C 0.86518(15) 0.89598(16) 0.86119(10)
H5_12 H 0.859937 0.928158 0.840511
C8_12 C 0.90944(16) 0.85425(17) 0.85447(10)
H6_12 H 0.934707 0.858863 0.828811
C9_12 C 0.88192(16) 0.80089(17) 0.91681(11)
H7_12 H 0.887172 0.767190 0.936056
C10_12 C 0.83629(17) 0.84029(16) 0.92650(11)
H8_12 H 0.810720 0.833452 0.951701
C11_12 C 0.75824(15) 0.97014(18) 0.87405(9)
H9_12 H 0.791005 0.994425 0.860900
H10_12 H 0.728353 0.997781 0.887342
C12_12 C 0.69056(19) 0.83545(19) 0.85723(17)
H11_12 H 0.729322 0.818705 0.853254
C13_12 C 0.64244(18) 0.7989(2) 0.86779(19)
H12_12 H 0.649116 0.757251 0.871986
C14_12 C 0.58058(18) 0.8782(2) 0.86804(19)
H13_12 H 0.541550 0.894270 0.872086
C15_12 C 0.62556(19) 0.91726(19) 0.85828(19)
H14_12 H 0.617682 0.958911 0.855509
C16_12 C 0.68201(15) 0.89561(16) 0.85255(10)
C17_12 C 0.73194(15) 0.95227(15) 0.79364(9)
C18_12 C 0.70253(18) 0.91780(18) 0.76062(11)
H15_12 H 0.680957 0.882837 0.768980
C19_12 C 0.70543(19) 0.93550(18) 0.71567(10)
H16_12 H 0.684622 0.912153 0.693852
C20_13 C 0.01532(18) 0.76358(19) 0.76707(10)
H17_13 H 0.049394 0.785792 0.776506
C21_13 C 0.00204(18) 0.7622(2) 0.72136(9)
H18_13 H 0.027291 0.782213 0.700327
N7_13 N 0.05764(15) 0.66392(15) 0.39318(9)
C22_13 C 0.0884(2) 0.6266(2) 0.39668(17)
B1_13 B 0.1323(7) 0.5713(7) 0.3987(5)
H19_13 H 0.110213 0.535633 0.408455
H20_13 H 0.149525 0.564279 0.368632
H21_13 H 0.164585 0.579592 0.420363
N9_7 N 0.08084(13) 0.80751(14) 0.38182(8)
N1_13 N 0.98014(16) 0.75731(13) 0.45394(9)
N2_13 N 0.93091(12) 0.78224(12) 0.59055(7)
N3_7 N 0.80751(14) 0.91916(13) 0.61818(8)
N5_13 N 0.93441(13) 0.73029(13) 0.66125(7)
C1_13 C 0.94977(18) 0.82179(16) 0.51454(10)
H1_13 H 0.939482 0.860908 0.524520
C2_13 C 0.96628(18) 0.81189(16) 0.47038(10)
H2_13 H 0.968032 0.845191 0.450388
C3_13 C 0.97920(16) 0.71176(16) 0.48324(9)
H3_13 H 0.989840 0.673146 0.472389
C4_13 C 0.96367(16) 0.71734(15) 0.52842(9)
H4_13 H 0.963576 0.683399 0.547825
C5_13 C 0.94831(15) 0.77324(16) 0.54475(9)
C6_13 C 0.89025(16) 0.82798(16) 0.60098(9)
C7_13 C 0.89598(16) 0.86518(15) 0.63881(10)
H5_13 H 0.928158 0.859937 0.659489
C8_13 C 0.85425(17) 0.90944(16) 0.64553(10)
H6_13 H 0.858863 0.934707 0.671189
C9_13 C 0.80089(17) 0.88192(16) 0.58319(11)
H7_13 H 0.767190 0.887172 0.563944
C10_13 C 0.84029(16) 0.83629(17) 0.57350(11)
H8_13 H 0.833452 0.810720 0.548299
C11_13 C 0.97014(18) 0.75824(15) 0.62595(9)
H9_13 H 0.994425 0.791005 0.639100
H10_13 H 0.997781 0.728353 0.612658
C12_13 C 0.83545(19) 0.69056(19) 0.64277(17)
H11_13 H 0.818705 0.729322 0.646746
C13_13 C 0.7989(2) 0.64244(18) 0.63221(19)
H12_13 H 0.757251 0.649116 0.628014
C14_13 C 0.8782(2) 0.58058(18) 0.63196(19)
H13_13 H 0.894270 0.541550 0.627914
C15_13 C 0.91726(19) 0.62556(19) 0.64172(19)
H14_13 H 0.958911 0.617682 0.644491
C16_13 C 0.89561(16) 0.68201(15) 0.64745(10)
C17_13 C 0.95227(15) 0.73194(15) 0.70636(9)
C18_13 C 0.91780(18) 0.70253(18) 0.73938(11)
H15_13 H 0.882837 0.680957 0.731020
C19_13 C 0.93550(18) 0.70543(19) 0.78433(10)
H16_13 H 0.912153 0.684622 0.806148
N8_13 N 0.93736(14) 0.82623(15) 0.36128(9)
C23_13 C 0.9142(3) 0.8693(3) 0.36176(18)
B2_13 B 0.8688(8) 0.9235(7) 0.3720(5)
H22_13 H 0.873055 0.936078 0.403617
H23_13 H 0.878161 0.957307 0.351971
H24_13 H 0.827625 0.910258 0.366506
N1_14 N 0.01986(16) 0.24269(13) 0.45394(9)
N2_14 N 0.06909(12) 0.21776(12) 0.59055(7)
N3_8 N 0.19249(14) 0.08084(13) 0.61818(8)
N5_14 N 0.06559(13) 0.26971(13) 0.66125(7)
C1_14 C 0.05023(18) 0.17821(16) 0.51454(10)
H1_14 H 0.060518 0.139092 0.524520
C2_14 C 0.03372(18) 0.18811(16) 0.47038(10)
H2_14 H 0.031968 0.154809 0.450388
C3_14 C 0.02080(16) 0.28824(16) 0.48324(9)
H3_14 H 0.010160 0.326854 0.472389
C4_14 C 0.03633(16) 0.28266(15) 0.52842(9)
H4_14 H 0.036424 0.316601 0.547825
C5_14 C 0.05169(15) 0.22676(16) 0.54475(9)
C6_14 C 0.10975(16) 0.17202(16) 0.60098(9)
C7_14 C 0.10402(16) 0.13482(15) 0.63881(10)
H5_14 H 0.071842 0.140063 0.659489
C8_14 C 0.14575(17) 0.09056(16) 0.64553(10)
H6_14 H 0.141137 0.065293 0.671189
C9_14 C 0.19911(17) 0.11808(16) 0.58319(11)
H7_14 H 0.232810 0.112828 0.563944
C10_14 C 0.15971(16) 0.16371(17) 0.57350(11)
H8_14 H 0.166548 0.189280 0.548299
C11_14 C 0.02986(18) 0.24176(15) 0.62595(9)
H9_14 H 0.005575 0.208995 0.639100
H10_14 H 0.002219 0.271647 0.612658
C12_14 C 0.16455(19) 0.30944(19) 0.64277(17)
H11_14 H 0.181295 0.270678 0.646746
C13_14 C 0.2011(2) 0.35756(18) 0.63221(19)
H12_14 H 0.242749 0.350884 0.628014
C14_14 C 0.1218(2) 0.41942(18) 0.63196(19)
H13_14 H 0.105730 0.458450 0.627914
C15_14 C 0.08274(19) 0.37444(19) 0.64172(19)
H14_14 H 0.041089 0.382318 0.644491
C16_14 C 0.10439(16) 0.31799(15) 0.64745(10)
C17_14 C 0.04773(15) 0.26806(15) 0.70636(9)
C18_14 C 0.08220(18) 0.29747(18) 0.73938(11)
H15_14 H 0.117163 0.319043 0.731020
C19_14 C 0.06450(18) 0.29457(19) 0.78433(10)
H16_14 H 0.087847 0.315378 0.806148
N8_14 N 0.06264(14) 0.17377(15) 0.36128(9)
C23_14 C 0.0858(3) 0.1307(3) 0.36176(18)
B2_14 B 0.1312(8) 0.0765(7) 0.3720(5)
H22_14 H 0.126945 0.063922 0.403617
H23_14 H 0.121839 0.042693 0.351971
H24_14 H 0.172375 0.089742 0.366506
C20_14 C 0.98468(18) 0.23642(19) 0.76707(10)
H17_14 H 0.950606 0.214208 0.776506
C21_14 C 0.99796(18) 0.2378(2) 0.72136(9)
H18_14 H 0.972709 0.217787 0.700327
N7_14 N 0.94236(15) 0.33608(15) 0.39318(9)
C22_14 C 0.9116(2) 0.3734(2) 0.39668(17)
B1_14 B 0.8677(7) 0.4287(7) 0.3987(5)
H19_14 H 0.889787 0.464367 0.408455
H20_14 H 0.850475 0.435721 0.368632
H21_14 H 0.835415 0.420408 0.420363
N9_8 N 0.91916(13) 0.19249(14) 0.38182(8)
C20_15 C 0.23642(19) 0.01532(18) 0.23293(10)
H17_15 H 0.214208 0.049394 0.223494
C21_15 C 0.2378(2) 0.00204(18) 0.27864(9)
H18_15 H 0.217787 0.027291 0.299673
N7_15 N 0.33608(15) 0.05764(15) 0.60682(9)
C22_15 C 0.3734(2) 0.0884(2) 0.60332(17)
B1_15 B 0.4287(7) 0.1323(7) 0.6013(5)
H19_15 H 0.464367 0.110213 0.591545
H20_15 H 0.435721 0.149525 0.631368
H21_15 H 0.420408 0.164585 0.579637
N1_15 N 0.24269(13) 0.98014(16) 0.54606(9)
N2_15 N 0.21776(12) 0.93091(12) 0.40945(7)
N5_15 N 0.26971(13) 0.93441(13) 0.33875(7)
C1_15 C 0.17821(16) 0.94977(18) 0.48546(10)
H1_15 H 0.139092 0.939482 0.475480
C2_15 C 0.18811(16) 0.96628(18) 0.52962(10)
H2_15 H 0.154809 0.968032 0.549612
C3_15 C 0.28824(16) 0.97920(16) 0.51676(9)
H3_15 H 0.326854 0.989840 0.527611
C4_15 C 0.28266(15) 0.96367(16) 0.47158(9)
H4_15 H 0.316601 0.963576 0.452175
C5_15 C 0.22676(16) 0.94831(15) 0.45525(9)
C6_15 C 0.17202(16) 0.89025(16) 0.39902(9)
C7_15 C 0.13482(15) 0.89598(16) 0.36119(10)
H5_15 H 0.140063 0.928158 0.340511
C8_15 C 0.09056(16) 0.85425(17) 0.35447(10)
H6_15 H 0.065293 0.858863 0.328811
C9_15 C 0.11808(16) 0.80089(17) 0.41681(11)
H7_15 H 0.112828 0.767190 0.436056
C10_15 C 0.16371(17) 0.84029(16) 0.42650(11)
H8_15 H 0.189280 0.833452 0.451701
C11_15 C 0.24176(15) 0.97014(18) 0.37405(9)
H9_15 H 0.208995 0.994425 0.360900
H10_15 H 0.271647 0.997781 0.387342
C12_15 C 0.30944(19) 0.83545(19) 0.35723(17)
H11_15 H 0.270678 0.818705 0.353254
C13_15 C 0.35756(18) 0.7989(2) 0.36779(19)
H12_15 H 0.350884 0.757251 0.371986
C14_15 C 0.41942(18) 0.8782(2) 0.36804(19)
H13_15 H 0.458450 0.894270 0.372086
C15_15 C 0.37444(19) 0.91726(19) 0.35828(19)
H14_15 H 0.382318 0.958911 0.355509
C16_15 C 0.31799(15) 0.89561(16) 0.35255(10)
C17_15 C 0.26806(15) 0.95227(15) 0.29364(9)
C18_15 C 0.29747(18) 0.91780(18) 0.26062(11)
H15_15 H 0.319043 0.882837 0.268980
C19_15 C 0.29457(19) 0.93550(18) 0.21567(10)
H16_15 H 0.315378 0.912153 0.193852
N8_15 N 0.17377(15) 0.93736(14) 0.63872(9)
C23_15 C 0.1307(3) 0.9142(3) 0.63824(18)
B2_15 B 0.0765(7) 0.8688(8) 0.6280(5)
H22_15 H 0.063922 0.873055 0.596383
H23_15 H 0.042693 0.878161 0.648029
H24_15 H 0.089742 0.827625 0.633494
N1_16 N 0.75731(13) 0.01986(16) 0.54606(9)
N2_16 N 0.78224(12) 0.06909(12) 0.40945(7)
N5_16 N 0.73029(13) 0.06559(13) 0.33875(7)
C1_16 C 0.82179(16) 0.05023(18) 0.48546(10)
H1_16 H 0.860908 0.060518 0.475480
C2_16 C 0.81189(16) 0.03372(18) 0.52962(10)
H2_16 H 0.845191 0.031968 0.549612
C3_16 C 0.71176(16) 0.02080(16) 0.51676(9)
H3_16 H 0.673146 0.010160 0.527611
C4_16 C 0.71734(15) 0.03633(16) 0.47158(9)
H4_16 H 0.683399 0.036424 0.452175
C5_16 C 0.77324(16) 0.05169(15) 0.45525(9)
C6_16 C 0.82798(16) 0.10975(16) 0.39902(9)
C7_16 C 0.86518(15) 0.10402(16) 0.36119(10)
H5_16 H 0.859937 0.071842 0.340511
C8_16 C 0.90944(16) 0.14575(17) 0.35447(10)
H6_16 H 0.934707 0.141137 0.328811
C9_16 C 0.88192(16) 0.19911(17) 0.41681(11)
H7_16 H 0.887172 0.232810 0.436056
C10_16 C 0.83629(17) 0.15971(16) 0.42650(11)
H8_16 H 0.810720 0.166548 0.451701
C11_16 C 0.75824(15) 0.02986(18) 0.37405(9)
H9_16 H 0.791005 0.005575 0.360900
H10_16 H 0.728353 0.002219 0.387342
C12_16 C 0.69056(19) 0.16455(19) 0.35723(17)
H11_16 H 0.729322 0.181295 0.353254
C13_16 C 0.64244(18) 0.2011(2) 0.36779(19)
H12_16 H 0.649116 0.242749 0.371986
C14_16 C 0.58058(18) 0.1218(2) 0.36804(19)
H13_16 H 0.541550 0.105730 0.372086
C15_16 C 0.62556(19) 0.08274(19) 0.35828(19)
H14_16 H 0.617682 0.041089 0.355509
C16_16 C 0.68201(15) 0.10439(16) 0.35255(10)
C17_16 C 0.73194(15) 0.04773(15) 0.29364(9)
C18_16 C 0.70253(18) 0.08220(18) 0.26062(11)
H15_16 H 0.680957 0.117163 0.268980
C19_16 C 0.70543(19) 0.06450(18) 0.21567(10)
H16_16 H 0.684622 0.087847 0.193852
N8_16 N 0.82623(15) 0.06264(14) 0.63872(9)
C23_16 C 0.8693(3) 0.0858(3) 0.63824(18)
B2_16 B 0.9235(7) 0.1312(8) 0.6280(5)
H22_16 H 0.936078 0.126945 0.596383
H23_16 H 0.957307 0.121839 0.648029
H24_16 H 0.910258 0.172375 0.633494
C20_16 C 0.76358(19) 0.98468(18) 0.23293(10)
H17_16 H 0.785792 0.950606 0.223494
C21_16 C 0.7622(2) 0.99796(18) 0.27864(9)
H18_16 H 0.782213 0.972709 0.299673
N7_16 N 0.66392(15) 0.94236(15) 0.60682(9)
C22_16 C 0.6266(2) 0.9116(2) 0.60332(17)
B1_16 B 0.5713(7) 0.8677(7) 0.6013(5)
H19_16 H 0.535633 0.889787 0.591545
H20_16 H 0.564279 0.850475 0.631368
H21_16 H 0.579592 0.835415 0.579637
loop_
_geom_bond_atom_site_label_1
_geom_bond_atom_site_label_2
_geom_bond_site_symmetry_1
_geom_bond_site_symmetry_2
Cd1 N1 1_555 1_555
N1 C2 1_555 1_555
N2 C5 1_555 1_555
N3 C8 1_555 1_555
N4 C13 1_555 1_555
N5 C11 1_555 1_555
N6 C19 1_555 1_555
C1 H1 1_555 1_555
C2 C1 1_555 1_555
H2 C2 1_555 1_555
C3 N1 1_555 1_555
H3 C3 1_555 1_555
C4 C3 1_555 1_555
H4 C4 1_555 1_555
C5 C1 1_555 1_555
C6 N2 1_555 1_555
C7 C6 1_555 1_555
H5 C7 1_555 1_555
C8 C7 1_555 1_555
H6 C8 1_555 1_555
C9 N3 1_555 1_555
H7 C9 1_555 1_555
C10 C6 1_555 1_555
H8 C10 1_555 1_555
C11 N2 1_555 1_555
H9 C11 1_555 1_555
H10 C11 1_555 1_555
C12 H11 1_555 1_555
C13 C12 1_555 1_555
H12 C13 1_555 1_555
C14 N4 1_555 1_555
H13 C14 1_555 1_555
C15 C14 1_555 1_555
H14 C15 1_555 1_555
C16 N5 1_555 1_555
C17 N5 1_555 1_555
C18 C17 1_555 1_555
H15 C18 1_555 1_555
C19 C18 1_555 1_555
H16 C19 1_555 1_555
C20 N6 1_555 1_555
H17 C20 1_555 1_555
C21 C17 1_555 1_555
H18 C21 1_555 1_555
N7 Cd1 1_555 1_555
N8 Cd1 1_555 1_555
C22 N7 1_555 1_555
C23 N8 1_555 1_555
B1 C22 1_555 1_555
H19 B1 1_555 1_555
H20 B1 1_555 1_555
H21 B1 1_555 1_555
B2 C23 1_555 1_555
H22 B2 1_555 1_555
H23 B2 1_555 1_555
H24 B2 1_555 1_555
Cd2 N3 1_555 1_555
Cd3 N6 1_555 1_555
Cd4 N4 1_555 1_555
N9 Cd1 1_555 1_555
N10 Cd1 1_555 1_555
N11 Cd1 1_555 1_555
C4 C5 1_555 1_555
C9 C10 1_555 1_555
C12 C16 1_555 1_555
C15 C16 1_555 1_555
C20 C21 1_555 1_555
Cd1_2 N1_2 1_555 1_555
N1_2 C2_2 1_555 1_555
N2_2 C5_2 1_555 1_555
N3_2 C8_2 1_555 1_555
N4_2 C13_2 1_555 1_555
N5_2 C11_2 1_555 1_555
N6_2 C19_2 1_555 1_555
C1_2 H1_2 1_555 1_555
C2_2 C1_2 1_555 1_555
H2_2 C2_2 1_555 1_555
C3_2 N1_2 1_555 1_555
H3_2 C3_2 1_555 1_555
C4_2 C3_2 1_555 1_555
H4_2 C4_2 1_555 1_555
C5_2 C1_2 1_555 1_555
C6_2 N2_2 1_555 1_555
C7_2 C6_2 1_555 1_555
H5_2 C7_2 1_555 1_555
C8_2 C7_2 1_555 1_555
H6_2 C8_2 1_555 1_555
C9_2 N3_2 1_555 1_555
H7_2 C9_2 1_555 1_555
C10_2 C6_2 1_555 1_555
H8_2 C10_2 1_555 1_555
C11_2 N2_2 1_555 1_555
H9_2 C11_2 1_555 1_555
H10_2 C11_2 1_555 1_555
C12_2 H11_2 1_555 1_555
C13_2 C12_2 1_555 1_555
H12_2 C13_2 1_555 1_555
C14_2 N4_2 1_555 1_555
H13_2 C14_2 1_555 1_555
C15_2 C14_2 1_555 1_555
H14_2 C15_2 1_555 1_555
C16_2 N5_2 1_555 1_555
C17_2 N5_2 1_555 1_555
C18_2 C17_2 1_555 1_555
H15_2 C18_2 1_555 1_555
C19_2 C18_2 1_555 1_555
H16_2 C19_2 1_555 1_555
C20_2 N6_2 1_555 1_555
H17_2 C20_2 1_555 1_555
C21_2 C17_2 1_555 1_555
H18_2 C21_2 1_555 1_555
N7_2 Cd1_2 1_555 1_555
N8_2 Cd1_2 1_555 1_555
C22_2 N7_2 1_555 1_555
C23_2 N8_2 1_555 1_555
B1_2 C22_2 1_555 1_555
H19_2 B1_2 1_555 1_555
H20_2 B1_2 1_555 1_555
H21_2 B1_2 1_555 1_555
B2_2 C23_2 1_555 1_555
H22_2 B2_2 1_555 1_555
H23_2 B2_2 1_555 1_555
H24_2 B2_2 1_555 1_555
Cd2_2 N3_2 1_555 1_555
Cd3_2 N6_2 1_555 1_555
Cd4_2 N4_2 1_555 1_555
N9_2 Cd1_2 1_555 1_555
N10_2 Cd1_2 1_555 1_555
N11_2 Cd1_2 1_555 1_555
C4_2 C5_2 1_555 1_555
C9_2 C10_2 1_555 1_555
C12_2 C16_2 1_555 1_555
C15_2 C16_2 1_555 1_555
C20_2 C21_2 1_555 1_555
Cd2_2 N1_3 1_555 1_555
N1_3 C2_3 1_555 1_555
N2_3 C5_3 1_555 1_555
N9 C8_3 1_555 1_555
N4_3 C13_3 1_555 1_555
N5_3 C11_3 1_555 1_555
N6_3 C19_3 1_555 1_555
C1_3 H1_3 1_555 1_555
C2_3 C1_3 1_555 1_555
H2_3 C2_3 1_555 1_555
C3_3 N1_3 1_555 1_555
H3_3 C3_3 1_555 1_555
C4_3 C3_3 1_555 1_555
H4_3 C4_3 1_555 1_555
C5_3 C1_3 1_555 1_555
C6_3 N2_3 1_555 1_555
C7_3 C6_3 1_555 1_555
H5_3 C7_3 1_555 1_555
C8_3 C7_3 1_555 1_555
H6_3 C8_3 1_555 1_555
C9_3 N9 1_555 1_555
H7_3 C9_3 1_555 1_555
C10_3 C6_3 1_555 1_555
H8_3 C10_3 1_555 1_555
C11_3 N2_3 1_555 1_555
H9_3 C11_3 1_555 1_555
H10_3 C11_3 1_555 1_555
C12_3 H11_3 1_555 1_555
C13_3 C12_3 1_555 1_555
H12_3 C13_3 1_555 1_555
C14_3 N4_3 1_555 1_555
H13_3 C14_3 1_555 1_555
C15_3 C14_3 1_555 1_555
H14_3 C15_3 1_555 1_555
C16_3 N5_3 1_555 1_555
C17_3 N5_3 1_555 1_555
C18_3 C17_3 1_555 1_555
H15_3 C18_3 1_555 1_555
C19_3 C18_3 1_555 1_555
H16_3 C19_3 1_555 1_555
C20_3 N6_3 1_555 1_555
H17_3 C20_3 1_555 1_555
C21_3 C17_3 1_555 1_555
H18_3 C21_3 1_555 1_555
N7_3 Cd2_2 1_555 1_555
N8_3 Cd2_2 1_555 1_555
C22_3 N7_3 1_555 1_555
C23_3 N8_3 1_555 1_555
B1_3 C22_3 1_555 1_555
H19_3 B1_3 1_555 1_555
H20_3 B1_3 1_555 1_555
H21_3 B1_3 1_555 1_555
B2_3 C23_3 1_555 1_555
H22_3 B2_3 1_555 1_555
H23_3 B2_3 1_555 1_555
H24_3 B2_3 1_555 1_555
Cd3_3 N6_3 1_555 1_555
Cd4_3 N4_3 1_555 1_555
N10_3 Cd2_2 1_555 1_555
N11_3 Cd2_2 1_555 1_555
C4_3 C5_3 1_555 1_555
C9_3 C10_3 1_555 1_555
C12_3 C16_3 1_555 1_555
C15_3 C16_3 1_555 1_555
C20_3 C21_3 1_555 1_555
Cd2 N1_4 1_555 1_555
N1_4 C2_4 1_555 1_555
N2_4 C5_4 1_555 1_555
N9_2 C8_4 1_555 1_555
N4_4 C13_4 1_555 1_555
N5_4 C11_4 1_555 1_555
N6_4 C19_4 1_555 1_555
C1_4 H1_4 1_555 1_555
C2_4 C1_4 1_555 1_555
H2_4 C2_4 1_555 1_555
C3_4 N1_4 1_555 1_555
H3_4 C3_4 1_555 1_555
C4_4 C3_4 1_555 1_555
H4_4 C4_4 1_555 1_555
C5_4 C1_4 1_555 1_555
C6_4 N2_4 1_555 1_555
C7_4 C6_4 1_555 1_555
H5_4 C7_4 1_555 1_555
C8_4 C7_4 1_555 1_555
H6_4 C8_4 1_555 1_555
C9_4 N9_2 1_555 1_555
H7_4 C9_4 1_555 1_555
C10_4 C6_4 1_555 1_555
H8_4 C10_4 1_555 1_555
C11_4 N2_4 1_555 1_555
H9_4 C11_4 1_555 1_555
H10_4 C11_4 1_555 1_555
C12_4 H11_4 1_555 1_555
C13_4 C12_4 1_555 1_555
H12_4 C13_4 1_555 1_555
C14_4 N4_4 1_555 1_555
H13_4 C14_4 1_555 1_555
C15_4 C14_4 1_555 1_555
H14_4 C15_4 1_555 1_555
C16_4 N5_4 1_555 1_555
C17_4 N5_4 1_555 1_555
C18_4 C17_4 1_555 1_555
H15_4 C18_4 1_555 1_555
C19_4 C18_4 1_555 1_555
H16_4 C19_4 1_555 1_555
C20_4 N6_4 1_555 1_555
H17_4 C20_4 1_555 1_555
C21_4 C17_4 1_555 1_555
H18_4 C21_4 1_555 1_555
N7_4 Cd2 1_555 1_555
N8_4 Cd2 1_555 1_555
C22_4 N7_4 1_555 1_555
C23_4 N8_4 1_555 1_555
B1_4 C22_4 1_555 1_555
H19_4 B1_4 1_555 1_555
H20_4 B1_4 1_555 1_555
H21_4 B1_4 1_555 1_555
B2_4 C23_4 1_555 1_555
H22_4 B2_4 1_555 1_555
H23_4 B2_4 1_555 1_555
H24_4 B2_4 1_555 1_555
Cd3_4 N6_4 1_555 1_555
Cd4_4 N4_4 1_555 1_555
N10_4 Cd2 1_555 1_555
N11_4 Cd2 1_555 1_555
C4_4 C5_4 1_555 1_555
C9_4 C10_4 1_555 1_555
C12_4 C16_4 1_555 1_555
C15_4 C16_4 1_555 1_555
C20_4 C21_4 1_555 1_555
N2_5 C5_5 1_555 1_555
N3_3 C8_5 1_555 1_555
N4_5 C13_5 1_555 1_555
N5_5 C11_5 1_555 1_555
N11_2 C19_5 1_555 1_555
C1_5 H1_5 1_555 1_555
H4_5 C4_5 1_555 1_555
C5_5 C1_5 1_555 1_555
C6_5 N2_5 1_555 1_555
C7_5 C6_5 1_555 1_555
H5_5 C7_5 1_555 1_555
C8_5 C7_5 1_555 1_555
H6_5 C8_5 1_555 1_555
C9_5 N3_3 1_555 1_555
H7_5 C9_5 1_555 1_555
C10_5 C6_5 1_555 1_555
H8_5 C10_5 1_555 1_555
C11_5 N2_5 1_555 1_555
H9_5 C11_5 1_555 1_555
H10_5 C11_5 1_555 1_555
C12_5 H11_5 1_555 1_555
C13_5 C12_5 1_555 1_555
H12_5 C13_5 1_555 1_555
C14_5 N4_5 1_555 1_555
H13_5 C14_5 1_555 1_555
C15_5 C14_5 1_555 1_555
H14_5 C15_5 1_555 1_555
C16_5 N5_5 1_555 1_555
C17_5 N5_5 1_555 1_555
C18_5 C17_5 1_555 1_555
H15_5 C18_5 1_555 1_555
C19_5 C18_5 1_555 1_555
H16_5 C19_5 1_555 1_555
C20_5 N11_2 1_555 1_555
H17_5 C20_5 1_555 1_555
C21_5 C17_5 1_555 1_555
H18_5 C21_5 1_555 1_555
Cd3_4 N3_3 1_555 1_555
Cd4_5 N4_5 1_555 1_555
C4_5 C5_5 1_555 1_555
C9_5 C10_5 1_555 1_555
C12_5 C16_5 1_555 1_555
C15_5 C16_5 1_555 1_555
C20_5 C21_5 1_555 1_555
Cd3_2 N1_5 1_555 1_555
N1_5 C2_5 1_555 1_555
H2_5 C2_5 1_555 1_555
C3_5 N1_5 1_555 1_555
H3_5 C3_5 1_555 1_555
N7_5 Cd3_2 1_555 1_555
N8_5 Cd3_2 1_555 1_555
C22_5 N7_5 1_555 1_555
C23_5 N8_5 1_555 1_555
B1_5 C22_5 1_555 1_555
H19_5 B1_5 1_555 1_555
H20_5 B1_5 1_555 1_555
H21_5 B1_5 1_555 1_555
B2_5 C23_5 1_555 1_555
H22_5 B2_5 1_555 1_555
H23_5 B2_5 1_555 1_555
H24_5 B2_5 1_555 1_555
N9_3 Cd3_2 1_555 1_555
N10_5 Cd3_2 1_555 1_555
N2_6 C5_6 1_555 1_555
N3_4 C8_6 1_555 1_555
N4_6 C13_6 1_555 1_555
N5_6 C11_6 1_555 1_555
N11 C19_6 1_555 1_555
C1_6 H1_6 1_555 1_555
H4_6 C4_6 1_555 1_555
C5_6 C1_6 1_555 1_555
C6_6 N2_6 1_555 1_555
C7_6 C6_6 1_555 1_555
H5_6 C7_6 1_555 1_555
C8_6 C7_6 1_555 1_555
H6_6 C8_6 1_555 1_555
C9_6 N3_4 1_555 1_555
H7_6 C9_6 1_555 1_555
C10_6 C6_6 1_555 1_555
H8_6 C10_6 1_555 1_555
C11_6 N2_6 1_555 1_555
H9_6 C11_6 1_555 1_555
H10_6 C11_6 1_555 1_555
C12_6 H11_6 1_555 1_555
C13_6 C12_6 1_555 1_555
H12_6 C13_6 1_555 1_555
C14_6 N4_6 1_555 1_555
H13_6 C14_6 1_555 1_555
C15_6 C14_6 1_555 1_555
H14_6 C15_6 1_555 1_555
C16_6 N5_6 1_555 1_555
C17_6 N5_6 1_555 1_555
C18_6 C17_6 1_555 1_555
H15_6 C18_6 1_555 1_555
C19_6 C18_6 1_555 1_555
H16_6 C19_6 1_555 1_555
C20_6 N11 1_555 1_555
H17_6 C20_6 1_555 1_555
C21_6 C17_6 1_555 1_555
H18_6 C21_6 1_555 1_555
Cd3_3 N3_4 1_555 1_555
Cd4_6 N4_6 1_555 1_555
C4_6 C5_6 1_555 1_555
C9_6 C10_6 1_555 1_555
C12_6 C16_6 1_555 1_555
C15_6 C16_6 1_555 1_555
C20_6 C21_6 1_555 1_555
Cd3 N1_6 1_555 1_555
N1_6 C2_6 1_555 1_555
H2_6 C2_6 1_555 1_555
C3_6 N1_6 1_555 1_555
H3_6 C3_6 1_555 1_555
N7_6 Cd3 1_555 1_555
N8_6 Cd3 1_555 1_555
C22_6 N7_6 1_555 1_555
C23_6 N8_6 1_555 1_555
B1_6 C22_6 1_555 1_555
H19_6 B1_6 1_555 1_555
H20_6 B1_6 1_555 1_555
H21_6 B1_6 1_555 1_555
B2_6 C23_6 1_555 1_555
H22_6 B2_6 1_555 1_555
H23_6 B2_6 1_555 1_555
H24_6 B2_6 1_555 1_555
N9_4 Cd3 1_555 1_555
N10_6 Cd3 1_555 1_555
Cd3_3 N1_7 1_555 1_555
N1_7 C2_7 1_555 1_555
H2_7 C2_7 1_555 1_555
C3_7 N1_7 1_555 1_555
H3_7 C3_7 1_555 1_555
N7_7 Cd3_3 1_555 1_555
N8_7 Cd3_3 1_555 1_555
C22_7 N7_7 1_555 1_555
C23_7 N8_7 1_555 1_555
B1_7 C22_7 1_555 1_555
H19_7 B1_7 1_555 1_555
H20_7 B1_7 1_555 1_555
H21_7 B1_7 1_555 1_555
B2_7 C23_7 1_555 1_555
H22_7 B2_7 1_555 1_555
H23_7 B2_7 1_555 1_555
H24_7 B2_7 1_555 1_555
N10_7 Cd3_3 1_555 1_555
N2_7 C5_7 1_555 1_555
N9_3 C8_7 1_555 1_555
N4_7 C13_7 1_555 1_555
N5_7 C11_7 1_555 1_555
N11_3 C19_7 1_555 1_555
C1_7 H1_7 1_555 1_555
H4_7 C4_7 1_555 1_555
C5_7 C1_7 1_555 1_555
C6_7 N2_7 1_555 1_555
C7_7 C6_7 1_555 1_555
H5_7 C7_7 1_555 1_555
C8_7 C7_7 1_555 1_555
H6_7 C8_7 1_555 1_555
C9_7 N9_3 1_555 1_555
H7_7 C9_7 1_555 1_555
C10_7 C6_7 1_555 1_555
H8_7 C10_7 1_555 1_555
C11_7 N2_7 1_555 1_555
H9_7 C11_7 1_555 1_555
H10_7 C11_7 1_555 1_555
C12_7 H11_7 1_555 1_555
C13_7 C12_7 1_555 1_555
H12_7 C13_7 1_555 1_555
C14_7 N4_7 1_555 1_555
H13_7 C14_7 1_555 1_555
C15_7 C14_7 1_555 1_555
H14_7 C15_7 1_555 1_555
C16_7 N5_7 1_555 1_555
C17_7 N5_7 1_555 1_555
C18_7 C17_7 1_555 1_555
H15_7 C18_7 1_555 1_555
C19_7 C18_7 1_555 1_555
H16_7 C19_7 1_555 1_555
C20_7 N11_3 1_555 1_555
H17_7 C20_7 1_555 1_555
C21_7 C17_7 1_555 1_555
H18_7 C21_7 1_555 1_555
Cd4_7 N4_7 1_555 1_555
C4_7 C5_7 1_555 1_555
C9_7 C10_7 1_555 1_555
C12_7 C16_7 1_555 1_555
C15_7 C16_7 1_555 1_555
C20_7 C21_7 1_555 1_555
Cd3_4 N1_8 1_555 1_555
N1_8 C2_8 1_555 1_555
H2_8 C2_8 1_555 1_555
C3_8 N1_8 1_555 1_555
H3_8 C3_8 1_555 1_555
N7_8 Cd3_4 1_555 1_555
N8_8 Cd3_4 1_555 1_555
C22_8 N7_8 1_555 1_555
C23_8 N8_8 1_555 1_555
B1_8 C22_8 1_555 1_555
H19_8 B1_8 1_555 1_555
H20_8 B1_8 1_555 1_555
H21_8 B1_8 1_555 1_555
B2_8 C23_8 1_555 1_555
H22_8 B2_8 1_555 1_555
H23_8 B2_8 1_555 1_555
H24_8 B2_8 1_555 1_555
N10_8 Cd3_4 1_555 1_555
N2_8 C5_8 1_555 1_555
N9_4 C8_8 1_555 1_555
N4_8 C13_8 1_555 1_555
N5_8 C11_8 1_555 1_555
N11_4 C19_8 1_555 1_555
C1_8 H1_8 1_555 1_555
H4_8 C4_8 1_555 1_555
C5_8 C1_8 1_555 1_555
C6_8 N2_8 1_555 1_555
C7_8 C6_8 1_555 1_555
H5_8 C7_8 1_555 1_555
C8_8 C7_8 1_555 1_555
H6_8 C8_8 1_555 1_555
C9_8 N9_4 1_555 1_555
H7_8 C9_8 1_555 1_555
C10_8 C6_8 1_555 1_555
H8_8 C10_8 1_555 1_555
C11_8 N2_8 1_555 1_555
H9_8 C11_8 1_555 1_555
H10_8 C11_8 1_555 1_555
C12_8 H11_8 1_555 1_555
C13_8 C12_8 1_555 1_555
H12_8 C13_8 1_555 1_555
C14_8 N4_8 1_555 1_555
H13_8 C14_8 1_555 1_555
C15_8 C14_8 1_555 1_555
H14_8 C15_8 1_555 1_555
C16_8 N5_8 1_555 1_555
C17_8 N5_8 1_555 1_555
C18_8 C17_8 1_555 1_555
H15_8 C18_8 1_555 1_555
C19_8 C18_8 1_555 1_555
H16_8 C19_8 1_555 1_555
C20_8 N11_4 1_555 1_555
H17_8 C20_8 1_555 1_555
C21_8 C17_8 1_555 1_555
H18_8 C21_8 1_555 1_555
Cd4_8 N4_8 1_555 1_555
C4_8 C5_8 1_555 1_555
C9_8 C10_8 1_555 1_555
C12_8 C16_8 1_555 1_555
C15_8 C16_8 1_555 1_555
C20_8 C21_8 1_555 1_555
H17_9 C20_9 1_555 1_555
H18_9 C21_9 1_555 1_555
C20_9 C21_9 1_555 1_555
C22_9 N7_9 1_555 1_555
B1_9 C22_9 1_555 1_555
H19_9 B1_9 1_555 1_555
H20_9 B1_9 1_555 1_555
H21_9 B1_9 1_555 1_555
N2_9 C5_9 1_555 1_555
N3_5 C8_9 1_555 1_555
N10_7 C13_9 1_555 1_555
N5_9 C11_9 1_555 1_555
N6_5 C19_9 1_555 1_555
C1_9 H1_9 1_555 1_555
H4_9 C4_9 1_555 1_555
C5_9 C1_9 1_555 1_555
C6_9 N2_9 1_555 1_555
C7_9 C6_9 1_555 1_555
H5_9 C7_9 1_555 1_555
C8_9 C7_9 1_555 1_555
H6_9 C8_9 1_555 1_555
C9_9 N3_5 1_555 1_555
H7_9 C9_9 1_555 1_555
C10_9 C6_9 1_555 1_555
H8_9 C10_9 1_555 1_555
C11_9 N2_9 1_555 1_555
H9_9 C11_9 1_555 1_555
H10_9 C11_9 1_555 1_555
C12_9 H11_9 1_555 1_555
C13_9 C12_9 1_555 1_555
H12_9 C13_9 1_555 1_555
C14_9 N10_7 1_555 1_555
H13_9 C14_9 1_555 1_555
C15_9 C14_9 1_555 1_555
H14_9 C15_9 1_555 1_555
C16_9 N5_9 1_555 1_555
C17_9 N5_9 1_555 1_555
C18_9 C17_9 1_555 1_555
H15_9 C18_9 1_555 1_555
C19_9 C18_9 1_555 1_555
H16_9 C19_9 1_555 1_555
C4_9 C5_9 1_555 1_555
C9_9 C10_9 1_555 1_555
C12_9 C16_9 1_555 1_555
C15_9 C16_9 1_555 1_555
Cd4_7 N1_9 1_555 1_555
N1_9 C2_9 1_555 1_555
H2_9 C2_9 1_555 1_555
C3_9 N1_9 1_555 1_555
H3_9 C3_9 1_555 1_555
N8_9 Cd4_7 1_555 1_555
C23_9 N8_9 1_555 1_555
B2_9 C23_9 1_555 1_555
H22_9 B2_9 1_555 1_555
H23_9 B2_9 1_555 1_555
H24_9 B2_9 1_555 1_555
N2_10 C5_10 1_555 1_555
N3_6 C8_10 1_555 1_555
N10_8 C13_10 1_555 1_555
N5_10 C11_10 1_555 1_555
N6_6 C19_10 1_555 1_555
C1_10 H1_10 1_555 1_555
H4_10 C4_10 1_555 1_555
C5_10 C1_10 1_555 1_555
C6_10 N2_10 1_555 1_555
C7_10 C6_10 1_555 1_555
H5_10 C7_10 1_555 1_555
C8_10 C7_10 1_555 1_555
H6_10 C8_10 1_555 1_555
C9_10 N3_6 1_555 1_555
H7_10 C9_10 1_555 1_555
C10_10 C6_10 1_555 1_555
H8_10 C10_10 1_555 1_555
C11_10 N2_10 1_555 1_555
H9_10 C11_10 1_555 1_555
H10_10 C11_10 1_555 1_555
C12_10 H11_10 1_555 1_555
C13_10 C12_10 1_555 1_555
H12_10 C13_10 1_555 1_555
C14_10 N10_8 1_555 1_555
H13_10 C14_10 1_555 1_555
C15_10 C14_10 1_555 1_555
H14_10 C15_10 1_555 1_555
C16_10 N5_10 1_555 1_555
C17_10 N5_10 1_555 1_555
C18_10 C17_10 1_555 1_555
H15_10 C18_10 1_555 1_555
C19_10 C18_10 1_555 1_555
H16_10 C19_10 1_555 1_555
C4_10 C5_10 1_555 1_555
C9_10 C10_10 1_555 1_555
C12_10 C16_10 1_555 1_555
C15_10 C16_10 1_555 1_555
Cd4_8 N1_10 1_555 1_555
N1_10 C2_10 1_555 1_555
H2_10 C2_10 1_555 1_555
C3_10 N1_10 1_555 1_555
H3_10 C3_10 1_555 1_555
N8_10 Cd4_8 1_555 1_555
C23_10 N8_10 1_555 1_555
B2_10 C23_10 1_555 1_555
H22_10 B2_10 1_555 1_555
H23_10 B2_10 1_555 1_555
H24_10 B2_10 1_555 1_555
H17_10 C20_10 1_555 1_555
H18_10 C21_10 1_555 1_555
C20_10 C21_10 1_555 1_555
C22_10 N7_10 1_555 1_555
B1_10 C22_10 1_555 1_555
H19_10 B1_10 1_555 1_555
H20_10 B1_10 1_555 1_555
H21_10 B1_10 1_555 1_555
Cd4_5 N1_11 1_555 1_555
N1_11 C2_11 1_555 1_555
H2_11 C2_11 1_555 1_555
C3_11 N1_11 1_555 1_555
H3_11 C3_11 1_555 1_555
N8_11 Cd4_5 1_555 1_555
C23_11 N8_11 1_555 1_555
B2_11 C23_11 1_555 1_555
H22_11 B2_11 1_555 1_555
H23_11 B2_11 1_555 1_555
H24_11 B2_11 1_555 1_555
N2_11 C5_11 1_555 1_555
N9_5 C8_11 1_555 1_555
N10_5 C13_11 1_555 1_555
N5_11 C11_11 1_555 1_555
N6_7 C19_11 1_555 1_555
C1_11 H1_11 1_555 1_555
H4_11 C4_11 1_555 1_555
C5_11 C1_11 1_555 1_555
C6_11 N2_11 1_555 1_555
C7_11 C6_11 1_555 1_555
H5_11 C7_11 1_555 1_555
C8_11 C7_11 1_555 1_555
H6_11 C8_11 1_555 1_555
C9_11 N9_5 1_555 1_555
H7_11 C9_11 1_555 1_555
C10_11 C6_11 1_555 1_555
H8_11 C10_11 1_555 1_555
C11_11 N2_11 1_555 1_555
H9_11 C11_11 1_555 1_555
H10_11 C11_11 1_555 1_555
C12_11 H11_11 1_555 1_555
C13_11 C12_11 1_555 1_555
H12_11 C13_11 1_555 1_555
C14_11 N10_5 1_555 1_555
H13_11 C14_11 1_555 1_555
C15_11 C14_11 1_555 1_555
H14_11 C15_11 1_555 1_555
C16_11 N5_11 1_555 1_555
C17_11 N5_11 1_555 1_555
C18_11 C17_11 1_555 1_555
H15_11 C18_11 1_555 1_555
C19_11 C18_11 1_555 1_555
H16_11 C19_11 1_555 1_555
C4_11 C5_11 1_555 1_555
C9_11 C10_11 1_555 1_555
C12_11 C16_11 1_555 1_555
C15_11 C16_11 1_555 1_555
C22_11 N7_11 1_555 1_555
B1_11 C22_11 1_555 1_555
H19_11 B1_11 1_555 1_555
H20_11 B1_11 1_555 1_555
H21_11 B1_11 1_555 1_555
H17_11 C20_11 1_555 1_555
H18_11 C21_11 1_555 1_555
C20_11 C21_11 1_555 1_555
C22_12 N7_12 1_555 1_555
B1_12 C22_12 1_555 1_555
H19_12 B1_12 1_555 1_555
H20_12 B1_12 1_555 1_555
H21_12 B1_12 1_555 1_555
H17_12 C20_12 1_555 1_555
H18_12 C21_12 1_555 1_555
C20_12 C21_12 1_555 1_555
Cd4_6 N1_12 1_555 1_555
N1_12 C2_12 1_555 1_555
H2_12 C2_12 1_555 1_555
C3_12 N1_12 1_555 1_555
H3_12 C3_12 1_555 1_555
N8_12 Cd4_6 1_555 1_555
C23_12 N8_12 1_555 1_555
B2_12 C23_12 1_555 1_555
H22_12 B2_12 1_555 1_555
H23_12 B2_12 1_555 1_555
H24_12 B2_12 1_555 1_555
N2_12 C5_12 1_555 1_555
N9_6 C8_12 1_555 1_555
N10_6 C13_12 1_555 1_555
N5_12 C11_12 1_555 1_555
N6_8 C19_12 1_555 1_555
C1_12 H1_12 1_555 1_555
H4_12 C4_12 1_555 1_555
C5_12 C1_12 1_555 1_555
C6_12 N2_12 1_555 1_555
C7_12 C6_12 1_555 1_555
H5_12 C7_12 1_555 1_555
C8_12 C7_12 1_555 1_555
H6_12 C8_12 1_555 1_555
C9_12 N9_6 1_555 1_555
H7_12 C9_12 1_555 1_555
C10_12 C6_12 1_555 1_555
H8_12 C10_12 1_555 1_555
C11_12 N2_12 1_555 1_555
H9_12 C11_12 1_555 1_555
H10_12 C11_12 1_555 1_555
C12_12 H11_12 1_555 1_555
C13_12 C12_12 1_555 1_555
H12_12 C13_12 1_555 1_555
C14_12 N10_6 1_555 1_555
H13_12 C14_12 1_555 1_555
C15_12 C14_12 1_555 1_555
H14_12 C15_12 1_555 1_555
C16_12 N5_12 1_555 1_555
C17_12 N5_12 1_555 1_555
C18_12 C17_12 1_555 1_555
H15_12 C18_12 1_555 1_555
C19_12 C18_12 1_555 1_555
H16_12 C19_12 1_555 1_555
C4_12 C5_12 1_555 1_555
C9_12 C10_12 1_555 1_555
C12_12 C16_12 1_555 1_555
C15_12 C16_12 1_555 1_555
H17_13 C20_13 1_555 1_555
H18_13 C21_13 1_555 1_555
C22_13 N7_13 1_555 1_555
B1_13 C22_13 1_555 1_555
H19_13 B1_13 1_555 1_555
H20_13 B1_13 1_555 1_555
H21_13 B1_13 1_555 1_555
C20_13 C21_13 1_555 1_555
Cd4_3 N1_13 1_555 1_555
N1_13 C2_13 1_555 1_555
N2_13 C5_13 1_555 1_555
N3_7 C8_13 1_555 1_555
N10_3 C13_13 1_555 1_555
N5_13 C11_13 1_555 1_555
N11_6 C19_13 1_555 1_555
C1_13 H1_13 1_555 1_555
C2_13 C1_13 1_555 1_555
H2_13 C2_13 1_555 1_555
C3_13 N1_13 1_555 1_555
H3_13 C3_13 1_555 1_555
C4_13 C3_13 1_555 1_555
H4_13 C4_13 1_555 1_555
C5_13 C1_13 1_555 1_555
C6_13 N2_13 1_555 1_555
C7_13 C6_13 1_555 1_555
H5_13 C7_13 1_555 1_555
C8_13 C7_13 1_555 1_555
H6_13 C8_13 1_555 1_555
C9_13 N3_7 1_555 1_555
H7_13 C9_13 1_555 1_555
C10_13 C6_13 1_555 1_555
H8_13 C10_13 1_555 1_555
C11_13 N2_13 1_555 1_555
H9_13 C11_13 1_555 1_555
H10_13 C11_13 1_555 1_555
C12_13 H11_13 1_555 1_555
C13_13 C12_13 1_555 1_555
H12_13 C13_13 1_555 1_555
C14_13 N10_3 1_555 1_555
H13_13 C14_13 1_555 1_555
C15_13 C14_13 1_555 1_555
H14_13 C15_13 1_555 1_555
C16_13 N5_13 1_555 1_555
C17_13 N5_13 1_555 1_555
C18_13 C17_13 1_555 1_555
H15_13 C18_13 1_555 1_555
C19_13 C18_13 1_555 1_555
H16_13 C19_13 1_555 1_555
N8_13 Cd4_3 1_555 1_555
C23_13 N8_13 1_555 1_555
B2_13 C23_13 1_555 1_555
H22_13 B2_13 1_555 1_555
H23_13 B2_13 1_555 1_555
H24_13 B2_13 1_555 1_555
C4_13 C5_13 1_555 1_555
C9_13 C10_13 1_555 1_555
C12_13 C16_13 1_555 1_555
C15_13 C16_13 1_555 1_555
Cd4_4 N1_14 1_555 1_555
N1_14 C2_14 1_555 1_555
N2_14 C5_14 1_555 1_555
N3_8 C8_14 1_555 1_555
N10_4 C13_14 1_555 1_555
N5_14 C11_14 1_555 1_555
N11_5 C19_14 1_555 1_555
C1_14 H1_14 1_555 1_555
C2_14 C1_14 1_555 1_555
H2_14 C2_14 1_555 1_555
C3_14 N1_14 1_555 1_555
H3_14 C3_14 1_555 1_555
C4_14 C3_14 1_555 1_555
H4_14 C4_14 1_555 1_555
C5_14 C1_14 1_555 1_555
C6_14 N2_14 1_555 1_555
C7_14 C6_14 1_555 1_555
H5_14 C7_14 1_555 1_555
C8_14 C7_14 1_555 1_555
H6_14 C8_14 1_555 1_555
C9_14 N3_8 1_555 1_555
H7_14 C9_14 1_555 1_555
C10_14 C6_14 1_555 1_555
H8_14 C10_14 1_555 1_555
C11_14 N2_14 1_555 1_555
H9_14 C11_14 1_555 1_555
H10_14 C11_14 1_555 1_555
C12_14 H11_14 1_555 1_555
C13_14 C12_14 1_555 1_555
H12_14 C13_14 1_555 1_555
C14_14 N10_4 1_555 1_555
H13_14 C14_14 1_555 1_555
C15_14 C14_14 1_555 1_555
H14_14 C15_14 1_555 1_555
C16_14 N5_14 1_555 1_555
C17_14 N5_14 1_555 1_555
C18_14 C17_14 1_555 1_555
H15_14 C18_14 1_555 1_555
C19_14 C18_14 1_555 1_555
H16_14 C19_14 1_555 1_555
N8_14 Cd4_4 1_555 1_555
C23_14 N8_14 1_555 1_555
B2_14 C23_14 1_555 1_555
H22_14 B2_14 1_555 1_555
H23_14 B2_14 1_555 1_555
H24_14 B2_14 1_555 1_555
C4_14 C5_14 1_555 1_555
C9_14 C10_14 1_555 1_555
C12_14 C16_14 1_555 1_555
C15_14 C16_14 1_555 1_555
H17_14 C20_14 1_555 1_555
H18_14 C21_14 1_555 1_555
C22_14 N7_14 1_555 1_555
B1_14 C22_14 1_555 1_555
H19_14 B1_14 1_555 1_555
H20_14 B1_14 1_555 1_555
H21_14 B1_14 1_555 1_555
C20_14 C21_14 1_555 1_555
H17_15 C20_15 1_555 1_555
H18_15 C21_15 1_555 1_555
C22_15 N7_15 1_555 1_555
B1_15 C22_15 1_555 1_555
H19_15 B1_15 1_555 1_555
H20_15 B1_15 1_555 1_555
H21_15 B1_15 1_555 1_555
C20_15 C21_15 1_555 1_555
Cd4 N1_15 1_555 1_555
N1_15 C2_15 1_555 1_555
N2_15 C5_15 1_555 1_555
N9_7 C8_15 1_555 1_555
N10 C13_15 1_555 1_555
N5_15 C11_15 1_555 1_555
N11_7 C19_15 1_555 1_555
C1_15 H1_15 1_555 1_555
C2_15 C1_15 1_555 1_555
H2_15 C2_15 1_555 1_555
C3_15 N1_15 1_555 1_555
H3_15 C3_15 1_555 1_555
C4_15 C3_15 1_555 1_555
H4_15 C4_15 1_555 1_555
C5_15 C1_15 1_555 1_555
C6_15 N2_15 1_555 1_555
C7_15 C6_15 1_555 1_555
H5_15 C7_15 1_555 1_555
C8_15 C7_15 1_555 1_555
H6_15 C8_15 1_555 1_555
C9_15 N9_7 1_555 1_555
H7_15 C9_15 1_555 1_555
C10_15 C6_15 1_555 1_555
H8_15 C10_15 1_555 1_555
C11_15 N2_15 1_555 1_555
H9_15 C11_15 1_555 1_555
H10_15 C11_15 1_555 1_555
C12_15 H11_15 1_555 1_555
C13_15 C12_15 1_555 1_555
H12_15 C13_15 1_555 1_555
C14_15 N10 1_555 1_555
H13_15 C14_15 1_555 1_555
C15_15 C14_15 1_555 1_555
H14_15 C15_15 1_555 1_555
C16_15 N5_15 1_555 1_555
C17_15 N5_15 1_555 1_555
C18_15 C17_15 1_555 1_555
H15_15 C18_15 1_555 1_555
C19_15 C18_15 1_555 1_555
H16_15 C19_15 1_555 1_555
N8_15 Cd4 1_555 1_555
C23_15 N8_15 1_555 1_555
B2_15 C23_15 1_555 1_555
H22_15 B2_15 1_555 1_555
H23_15 B2_15 1_555 1_555
H24_15 B2_15 1_555 1_555
C4_15 C5_15 1_555 1_555
C9_15 C10_15 1_555 1_555
C12_15 C16_15 1_555 1_555
C15_15 C16_15 1_555 1_555
Cd4_2 N1_16 1_555 1_555
N1_16 C2_16 1_555 1_555
N2_16 C5_16 1_555 1_555
N9_8 C8_16 1_555 1_555
N10_2 C13_16 1_555 1_555
N5_16 C11_16 1_555 1_555
N11_8 C19_16 1_555 1_555
C1_16 H1_16 1_555 1_555
C2_16 C1_16 1_555 1_555
H2_16 C2_16 1_555 1_555
C3_16 N1_16 1_555 1_555
H3_16 C3_16 1_555 1_555
C4_16 C3_16 1_555 1_555
H4_16 C4_16 1_555 1_555
C5_16 C1_16 1_555 1_555
C6_16 N2_16 1_555 1_555
C7_16 C6_16 1_555 1_555
H5_16 C7_16 1_555 1_555
C8_16 C7_16 1_555 1_555
H6_16 C8_16 1_555 1_555
C9_16 N9_8 1_555 1_555
H7_16 C9_16 1_555 1_555
C10_16 C6_16 1_555 1_555
H8_16 C10_16 1_555 1_555
C11_16 N2_16 1_555 1_555
H9_16 C11_16 1_555 1_555
H10_16 C11_16 1_555 1_555
C12_16 H11_16 1_555 1_555
C13_16 C12_16 1_555 1_555
H12_16 C13_16 1_555 1_555
C14_16 N10_2 1_555 1_555
H13_16 C14_16 1_555 1_555
C15_16 C14_16 1_555 1_555
H14_16 C15_16 1_555 1_555
C16_16 N5_16 1_555 1_555
C17_16 N5_16 1_555 1_555
C18_16 C17_16 1_555 1_555
H15_16 C18_16 1_555 1_555
C19_16 C18_16 1_555 1_555
H16_16 C19_16 1_555 1_555
N8_16 Cd4_2 1_555 1_555
C23_16 N8_16 1_555 1_555
B2_16 C23_16 1_555 1_555
H22_16 B2_16 1_555 1_555
H23_16 B2_16 1_555 1_555
H24_16 B2_16 1_555 1_555
C4_16 C5_16 1_555 1_555
C9_16 C10_16 1_555 1_555
C12_16 C16_16 1_555 1_555
C15_16 C16_16 1_555 1_555
H17_16 C20_16 1_555 1_555
H18_16 C21_16 1_555 1_555
C22_16 N7_16 1_555 1_555
B1_16 C22_16 1_555 1_555
H19_16 B1_16 1_555 1_555
H20_16 B1_16 1_555 1_555
H21_16 B1_16 1_555 1_555
C20_16 C21_16 1_555 1_555

#END
