
###############################################################################
#
# This file contains modified crystal structure data generated from the
# MOF subset of the Cambridge Structural Database (CSD) v543 
# hosted by the Cambridge Crystallographic Data Centre (CCDC).
#
# This work is licensed under the Creative Commons
# Attribution-NonCommercial-ShareAlike 4.0 International License.
# To view a copy of this license, visit
# http://creativecommons.org/licenses/by-nc-sa/4.0/
# or send a letter to
# Creative Commons, PO Box 1866, Mountain View, CA 94042, USA.
#
# CIF created using the CSD Python API on 29 September 2022
# The structure has been converted into the P1 space group
# The structure has a 3D framework
# The original CSD entry PADZIH is in the tetragonal crystal system
# The framework has been calculated to contain at least 10.0% void space
# The void calculation uses a probe of radius 1.32A, grid spacing 0.4
# The framework is charged, counterions have been retained in the structure
#
###############################################################################

data_PADZIH
_chemical_formula_moiety         '(C368 H384 B32 N128 Zn16)n'
_symmetry_cell_setting           triclinic
_symmetry_space_group_name_H-M   'P 1'
_symmetry_Int_Tables_number      1
_space_group_name_Hall           'P 1'
loop_
_symmetry_equiv_pos_site_id
_symmetry_equiv_pos_as_xyz
1 x,y,z
_cell_length_a                   21.918(3)
_cell_length_b                   21.918(3)
_cell_length_c                   28.820(6)
_cell_angle_alpha                90
_cell_angle_beta                 90
_cell_angle_gamma                90
_cell_volume                     13845.1
loop_
_atom_site_label
_atom_site_type_symbol
_atom_site_fract_x
_atom_site_fract_y
_atom_site_fract_z
Zn1 Zn 0.24596(2) 0.00104(2) 0.37488(2)
N1 N 0.30612(11) 0.07798(11) 0.36691(8)
N2 N 0.48006(12) 0.24385(10) 0.19872(8)
N3 N 0.42952(11) 0.21986(10) 0.33844(7)
N4 N 0.47786(11) 0.26207(11) 0.55220(8)
N5 N 0.42958(11) 0.27378(10) 0.41098(7)
N6 N 0.31572(11) 0.42400(11) 0.38199(8)
C1 C 0.39417(13) 0.13667(13) 0.38900(9)
H1 H 0.4255 0.1442 0.4111
C2 C 0.35249(13) 0.08989(13) 0.39559(9)
H2 H 0.3572 0.0647 0.4222
C3 C 0.29964(13) 0.11447(13) 0.33000(9)
H3 H 0.2660 0.1076 0.3099
C4 C 0.33926(13) 0.16156(12) 0.31964(9)
H4 H 0.3329 0.1861 0.2929
C5 C 0.38904(12) 0.17263(12) 0.34901(9)
C6 C 0.44684(12) 0.22855(12) 0.29152(8)
C7 C 0.45358(14) 0.17873(12) 0.26213(9)
H5 H 0.4469 0.1385 0.2733
C8 C 0.47001(14) 0.18844(13) 0.21660(9)
H6 H 0.4744 0.1540 0.1969
C9 C 0.47494(13) 0.29196(13) 0.22734(9)
H7 H 0.4824 0.3316 0.2152
C10 C 0.45913(14) 0.28642(13) 0.27426(9)
H8 H 0.4569 0.3213 0.2937
C11 C 0.46728(12) 0.24666(12) 0.37472(9)
H9 H 0.4940 0.2784 0.3611
H10 H 0.4937 0.2147 0.3884
C12 C 0.40558(14) 0.28527(15) 0.49236(9)
H11 H 0.3657 0.2987 0.4844
C13 C 0.42277(13) 0.28106(14) 0.53820(9)
H12 H 0.3939 0.2923 0.5612
C14 C 0.51739(14) 0.24677(13) 0.51888(9)
H13 H 0.5566 0.2328 0.5280
C15 C 0.50489(13) 0.25002(13) 0.47195(10)
H14 H 0.5351 0.2390 0.4498
C16 C 0.44720(12) 0.26969(12) 0.45748(8)
C17 C 0.39179(12) 0.32468(12) 0.39908(8)
C18 C 0.33789(14) 0.31754(13) 0.37493(11)
H15 H 0.3260 0.2785 0.3639
C19 C 0.30133(15) 0.36806(14) 0.36697(11)
H16 H 0.2645 0.3627 0.3501
C20 C 0.36860(14) 0.43094(13) 0.40456(10)
H17 H 0.3799 0.4706 0.4148
C21 C 0.40733(13) 0.38282(13) 0.41351(11)
H18 H 0.4446 0.3896 0.4295
N8 N 0.16896(11) 0.05797(12) 0.35955(8)
B2 B 0.0679(6) 0.1262(6) 0.3635(4)
H22 H 0.0408 0.1110 0.3879
H23 H 0.0467 0.1249 0.3336
H24 H 0.0796 0.1684 0.3704
C23 C 0.12556(17) 0.08596(17) 0.36116(12)
Zn2 Zn 0.50104(2) 0.25404(2) 0.12512(2)
Zn3 Zn 0.25404(2) 0.50104(2) 0.37488(2)
Zn4 Zn 0.49896(2) 0.25404(2) 0.62512(2)
N10 N 0.23793(11) 0.02214(11) 0.44780(8)
N7 N 0.32265(12) 0.94353(12) 0.38972(8)
B1 B 0.4176(6) 0.8651(6) 0.3838(5)
H19 H 0.4090 0.8279 0.4015
H20 H 0.4573 0.8815 0.3932
H21 H 0.4184 0.8555 0.3506
C22 C 0.3647(2) 0.9153(3) 0.3939(2)
N9 N 0.25615(10) 0.98006(12) 0.30128(8)
N11 N 0.18428(11) 0.92400(11) 0.38199(8)
N7_2 N 0.67735(12) 0.05647(12) 0.38972(8)
B1_2 B 0.5824(6) 0.1349(6) 0.3838(5)
H19_2 H 0.5910 0.1721 0.4015
H20_2 H 0.5427 0.1185 0.3932
H21_2 H 0.5816 0.1445 0.3506
C22_2 C 0.6353(2) 0.0847(3) 0.3939(2)
N9_2 N 0.74385(10) 0.01994(12) 0.30128(8)
N11_2 N 0.81572(11) 0.07600(11) 0.38199(8)
Zn1_2 Zn 0.75404(2) 0.99896(2) 0.37488(2)
N1_2 N 0.69388(11) 0.92202(11) 0.36691(8)
N2_2 N 0.51994(12) 0.75615(10) 0.19872(8)
N3_2 N 0.57048(11) 0.78014(10) 0.33844(7)
N4_2 N 0.52214(11) 0.73793(11) 0.55220(8)
N5_2 N 0.57042(11) 0.72622(10) 0.41098(7)
N6_2 N 0.68428(11) 0.57600(11) 0.38199(8)
C1_2 C 0.60583(13) 0.86333(13) 0.38900(9)
H1_2 H 0.5745 0.8558 0.4111
C2_2 C 0.64751(13) 0.91011(13) 0.39559(9)
H2_2 H 0.6428 0.9353 0.4222
C3_2 C 0.70036(13) 0.88553(13) 0.33000(9)
H3_2 H 0.7340 0.8924 0.3099
C4_2 C 0.66074(13) 0.83844(12) 0.31964(9)
H4_2 H 0.6671 0.8139 0.2929
C5_2 C 0.61096(12) 0.82737(12) 0.34901(9)
C6_2 C 0.55316(12) 0.77145(12) 0.29152(8)
C7_2 C 0.54642(14) 0.82127(12) 0.26213(9)
H5_2 H 0.5531 0.8615 0.2733
C8_2 C 0.52999(14) 0.81156(13) 0.21660(9)
H6_2 H 0.5256 0.8460 0.1969
C9_2 C 0.52506(13) 0.70804(13) 0.22734(9)
H7_2 H 0.5176 0.6684 0.2152
C10_2 C 0.54087(14) 0.71358(13) 0.27426(9)
H8_2 H 0.5431 0.6787 0.2937
C11_2 C 0.53272(12) 0.75334(12) 0.37472(9)
H9_2 H 0.5060 0.7216 0.3611
H10_2 H 0.5063 0.7853 0.3884
C12_2 C 0.59442(14) 0.71473(15) 0.49236(9)
H11_2 H 0.6343 0.7013 0.4844
C13_2 C 0.57723(13) 0.71894(14) 0.53820(9)
H12_2 H 0.6061 0.7077 0.5612
C14_2 C 0.48261(14) 0.75323(13) 0.51888(9)
H13_2 H 0.4434 0.7672 0.5280
C15_2 C 0.49511(13) 0.74998(13) 0.47195(10)
H14_2 H 0.4649 0.7610 0.4498
C16_2 C 0.55280(12) 0.73031(12) 0.45748(8)
C17_2 C 0.60821(12) 0.67532(12) 0.39908(8)
C18_2 C 0.66211(14) 0.68246(13) 0.37493(11)
H15_2 H 0.6740 0.7215 0.3639
C19_2 C 0.69867(15) 0.63194(14) 0.36697(11)
H16_2 H 0.7355 0.6373 0.3501
C20_2 C 0.63140(14) 0.56906(13) 0.40456(10)
H17_2 H 0.6201 0.5294 0.4148
C21_2 C 0.59267(13) 0.61718(13) 0.41351(11)
H18_2 H 0.5554 0.6104 0.4295
N8_2 N 0.83104(11) 0.94203(12) 0.35955(8)
B2_2 B 0.9321(6) 0.8738(6) 0.3635(4)
H22_2 H 0.9592 0.8890 0.3879
H23_2 H 0.9533 0.8751 0.3336
H24_2 H 0.9204 0.8316 0.3704
C23_2 C 0.87444(17) 0.91404(17) 0.36116(12)
Zn2_2 Zn 0.49896(2) 0.74596(2) 0.12512(2)
Zn3_2 Zn 0.74596(2) 0.49896(2) 0.37488(2)
Zn4_2 Zn 0.50104(2) 0.74596(2) 0.62512(2)
N10_2 N 0.76207(11) 0.97786(11) 0.44780(8)
Zn1_3 Zn 0.00104(2) 0.75404(2) 0.62512(2)
N1_3 N 0.07798(11) 0.69388(11) 0.63309(8)
N2_3 N 0.24385(10) 0.51994(12) 0.80128(8)
N3_3 N 0.21986(10) 0.57048(11) 0.66156(7)
N4_3 N 0.26207(11) 0.52214(11) 0.44780(8)
N5_3 N 0.27378(10) 0.57042(11) 0.58902(7)
N6_3 N 0.42400(11) 0.68428(11) 0.61801(8)
C1_3 C 0.13667(13) 0.60583(13) 0.61100(9)
H1_3 H 0.1442 0.5745 0.5889
C2_3 C 0.08989(13) 0.64751(13) 0.60441(9)
H2_3 H 0.0647 0.6428 0.5778
C3_3 C 0.11447(13) 0.70036(13) 0.67000(9)
H3_3 H 0.1076 0.7340 0.6901
C4_3 C 0.16156(12) 0.66074(13) 0.68036(9)
H4_3 H 0.1861 0.6671 0.7071
C5_3 C 0.17263(12) 0.61096(12) 0.65099(9)
C6_3 C 0.22855(12) 0.55316(12) 0.70848(8)
C7_3 C 0.17873(12) 0.54642(14) 0.73787(9)
H5_3 H 0.1385 0.5531 0.7267
C8_3 C 0.18844(13) 0.52999(14) 0.78340(9)
H6_3 H 0.1540 0.5256 0.8031
C9_3 C 0.29196(13) 0.52506(13) 0.77266(9)
H7_3 H 0.3316 0.5176 0.7848
C10_3 C 0.28642(13) 0.54087(14) 0.72574(9)
H8_3 H 0.3213 0.5431 0.7063
C11_3 C 0.24666(12) 0.53272(12) 0.62528(9)
H9_3 H 0.2784 0.5060 0.6389
H10_3 H 0.2147 0.5063 0.6116
C12_3 C 0.28527(15) 0.59442(14) 0.50764(9)
H11_3 H 0.2987 0.6343 0.5156
C13_3 C 0.28106(14) 0.57723(13) 0.46180(9)
H12_3 H 0.2923 0.6061 0.4388
C14_3 C 0.24677(13) 0.48261(14) 0.48112(9)
H13_3 H 0.2328 0.4434 0.4720
C15_3 C 0.25002(13) 0.49511(13) 0.52805(10)
H14_3 H 0.2390 0.4649 0.5502
C16_3 C 0.26969(12) 0.55280(12) 0.54252(8)
C17_3 C 0.32468(12) 0.60821(12) 0.60092(8)
C18_3 C 0.31754(13) 0.66211(14) 0.62507(11)
H15_3 H 0.2785 0.6740 0.6361
C19_3 C 0.36806(14) 0.69867(15) 0.63303(11)
H16_3 H 0.3627 0.7355 0.6499
C20_3 C 0.43094(13) 0.63140(14) 0.59544(10)
H17_3 H 0.4706 0.6201 0.5852
C21_3 C 0.38282(13) 0.59267(13) 0.58649(11)
H18_3 H 0.3896 0.5554 0.5705
N8_3 N 0.05797(12) 0.83104(11) 0.64045(8)
B2_3 B 0.1262(6) 0.9321(6) 0.6365(4)
H22_3 H 0.1110 0.9592 0.6121
H23_3 H 0.1249 0.9533 0.6664
H24_3 H 0.1684 0.9204 0.6296
C23_3 C 0.08596(17) 0.87444(17) 0.63884(12)
Zn2_3 Zn 0.25404(2) 0.49896(2) 0.87488(2)
N10_3 N 0.02214(11) 0.76207(11) 0.55220(8)
N7_3 N 0.94353(12) 0.67735(12) 0.61028(8)
B1_3 B 0.8651(6) 0.5824(6) 0.6162(5)
H19_3 H 0.8279 0.5910 0.5985
H20_3 H 0.8815 0.5427 0.6068
H21_3 H 0.8555 0.5816 0.6494
C22_3 C 0.9153(3) 0.6353(2) 0.6061(2)
N9_3 N 0.98006(12) 0.74385(10) 0.69872(8)
N11_3 N 0.92400(11) 0.81572(11) 0.61801(8)
N7_4 N 0.05647(12) 0.32265(12) 0.61028(8)
B1_4 B 0.1349(6) 0.4176(6) 0.6162(5)
H19_4 H 0.1721 0.4090 0.5985
H20_4 H 0.1185 0.4573 0.6068
H21_4 H 0.1445 0.4184 0.6494
C22_4 C 0.0847(3) 0.3647(2) 0.6061(2)
N9_4 N 0.01994(12) 0.25615(10) 0.69872(8)
N11_4 N 0.07600(11) 0.18428(11) 0.61801(8)
Zn1_4 Zn 0.99896(2) 0.24596(2) 0.62512(2)
N1_4 N 0.92202(11) 0.30612(11) 0.63309(8)
N2_4 N 0.75615(10) 0.48006(12) 0.80128(8)
N3_4 N 0.78014(10) 0.42952(11) 0.66156(7)
N4_4 N 0.73793(11) 0.47786(11) 0.44780(8)
N5_4 N 0.72622(10) 0.42958(11) 0.58902(7)
N6_4 N 0.57600(11) 0.31572(11) 0.61801(8)
C1_4 C 0.86333(13) 0.39417(13) 0.61100(9)
H1_4 H 0.8558 0.4255 0.5889
C2_4 C 0.91011(13) 0.35249(13) 0.60441(9)
H2_4 H 0.9353 0.3572 0.5778
C3_4 C 0.88553(13) 0.29964(13) 0.67000(9)
H3_4 H 0.8924 0.2660 0.6901
C4_4 C 0.83844(12) 0.33926(13) 0.68036(9)
H4_4 H 0.8139 0.3329 0.7071
C5_4 C 0.82737(12) 0.38904(12) 0.65099(9)
C6_4 C 0.77145(12) 0.44684(12) 0.70848(8)
C7_4 C 0.82127(12) 0.45358(14) 0.73787(9)
H5_4 H 0.8615 0.4469 0.7267
C8_4 C 0.81156(13) 0.47001(14) 0.78340(9)
H6_4 H 0.8460 0.4744 0.8031
C9_4 C 0.70804(13) 0.47494(13) 0.77266(9)
H7_4 H 0.6684 0.4824 0.7848
C10_4 C 0.71358(13) 0.45913(14) 0.72574(9)
H8_4 H 0.6787 0.4569 0.7063
C11_4 C 0.75334(12) 0.46728(12) 0.62528(9)
H9_4 H 0.7216 0.4940 0.6389
H10_4 H 0.7853 0.4937 0.6116
C12_4 C 0.71473(15) 0.40558(14) 0.50764(9)
H11_4 H 0.7013 0.3657 0.5156
C13_4 C 0.71894(14) 0.42277(13) 0.46180(9)
H12_4 H 0.7077 0.3939 0.4388
C14_4 C 0.75323(13) 0.51739(14) 0.48112(9)
H13_4 H 0.7672 0.5566 0.4720
C15_4 C 0.74998(13) 0.50489(13) 0.52805(10)
H14_4 H 0.7610 0.5351 0.5502
C16_4 C 0.73031(12) 0.44720(12) 0.54252(8)
C17_4 C 0.67532(12) 0.39179(12) 0.60092(8)
C18_4 C 0.68246(13) 0.33789(14) 0.62507(11)
H15_4 H 0.7215 0.3260 0.6361
C19_4 C 0.63194(14) 0.30133(15) 0.63303(11)
H16_4 H 0.6373 0.2645 0.6499
C20_4 C 0.56906(13) 0.36860(14) 0.59544(10)
H17_4 H 0.5294 0.3799 0.5852
C21_4 C 0.61718(13) 0.40733(13) 0.58649(11)
H18_4 H 0.6104 0.4446 0.5705
N8_4 N 0.94203(12) 0.16896(11) 0.64045(8)
B2_4 B 0.8738(6) 0.0679(6) 0.6365(4)
H22_4 H 0.8890 0.0408 0.6121
H23_4 H 0.8751 0.0467 0.6664
H24_4 H 0.8316 0.0796 0.6296
C23_4 C 0.91404(17) 0.12556(17) 0.63884(12)
Zn2_4 Zn 0.74596(2) 0.50104(2) 0.87488(2)
N10_4 N 0.97786(11) 0.23793(11) 0.55220(8)
N7_5 N 0.32265(12) 0.05647(12) 0.88972(8)
B1_5 B 0.4176(6) 0.1349(6) 0.8838(5)
H19_5 H 0.4090 0.1721 0.9015
H20_5 H 0.4573 0.1185 0.8932
H21_5 H 0.4184 0.1445 0.8506
C22_5 C 0.3647(2) 0.0847(3) 0.8939(2)
N9_5 N 0.25615(10) 0.01994(12) 0.80128(8)
N11_5 N 0.18428(11) 0.07600(11) 0.88199(8)
N4_5 N 0.47786(11) 0.73793(11) 0.05220(8)
C13_5 C 0.42277(13) 0.71894(14) 0.03820(9)
H12_5 H 0.3939 0.7077 0.0612
C14_5 C 0.51739(14) 0.75323(13) 0.01888(9)
H13_5 H 0.5566 0.7672 0.0280
Zn1_5 Zn 0.24596(2) 0.99896(2) 0.87488(2)
N1_5 N 0.30612(11) 0.92202(11) 0.86691(8)
N2_5 N 0.48006(12) 0.75615(10) 0.69872(8)
N3_5 N 0.42952(11) 0.78014(10) 0.83844(7)
N5_5 N 0.42958(11) 0.72622(10) 0.91098(7)
N6_5 N 0.31572(11) 0.57600(11) 0.88199(8)
C1_5 C 0.39417(13) 0.86333(13) 0.88900(9)
H1_5 H 0.4255 0.8558 0.9111
C2_5 C 0.35249(13) 0.91011(13) 0.89559(9)
H2_5 H 0.3572 0.9353 0.9222
C3_5 C 0.29964(13) 0.88553(13) 0.83000(9)
H3_5 H 0.2660 0.8924 0.8099
C4_5 C 0.33926(13) 0.83844(12) 0.81964(9)
H4_5 H 0.3329 0.8139 0.7929
C5_5 C 0.38904(12) 0.82737(12) 0.84901(9)
C6_5 C 0.44684(12) 0.77145(12) 0.79152(8)
C7_5 C 0.45358(14) 0.82127(12) 0.76213(9)
H5_5 H 0.4469 0.8615 0.7733
C8_5 C 0.47001(14) 0.81156(13) 0.71660(9)
H6_5 H 0.4744 0.8460 0.6969
C9_5 C 0.47494(13) 0.70804(13) 0.72734(9)
H7_5 H 0.4824 0.6684 0.7152
C10_5 C 0.45913(14) 0.71358(13) 0.77426(9)
H8_5 H 0.4569 0.6787 0.7937
C11_5 C 0.46728(12) 0.75334(12) 0.87472(9)
H9_5 H 0.4940 0.7216 0.8611
H10_5 H 0.4937 0.7853 0.8884
C12_5 C 0.40558(14) 0.71473(15) 0.99236(9)
H11_5 H 0.3657 0.7013 0.9844
C15_5 C 0.50489(13) 0.74998(13) 0.97195(10)
H14_5 H 0.5351 0.7610 0.9498
C16_5 C 0.44720(12) 0.73031(12) 0.95748(8)
C17_5 C 0.39179(12) 0.67532(12) 0.89908(8)
C18_5 C 0.33789(14) 0.68246(13) 0.87493(11)
H15_5 H 0.3260 0.7215 0.8639
C19_5 C 0.30133(15) 0.63194(14) 0.86697(11)
H16_5 H 0.2645 0.6373 0.8501
C20_5 C 0.36860(14) 0.56906(13) 0.90456(10)
H17_5 H 0.3799 0.5294 0.9148
C21_5 C 0.40733(13) 0.61718(13) 0.91351(11)
H18_5 H 0.4446 0.6104 0.9295
N8_5 N 0.16896(11) 0.94203(12) 0.85955(8)
B2_5 B 0.0679(6) 0.8738(6) 0.8635(4)
H22_5 H 0.0408 0.8890 0.8879
H23_5 H 0.0467 0.8751 0.8336
H24_5 H 0.0796 0.8316 0.8704
C23_5 C 0.12556(17) 0.91404(17) 0.86116(12)
N10_5 N 0.23793(11) 0.97786(11) 0.94780(8)
N4_6 N 0.52214(11) 0.26207(11) 0.05220(8)
C13_6 C 0.57723(13) 0.28106(14) 0.03820(9)
H12_6 H 0.6061 0.2923 0.0612
C14_6 C 0.48261(14) 0.24677(13) 0.01888(9)
H13_6 H 0.4434 0.2328 0.0280
Zn1_6 Zn 0.75404(2) 0.00104(2) 0.87488(2)
N1_6 N 0.69388(11) 0.07798(11) 0.86691(8)
N2_6 N 0.51994(12) 0.24385(10) 0.69872(8)
N3_6 N 0.57048(11) 0.21986(10) 0.83844(7)
N5_6 N 0.57042(11) 0.27378(10) 0.91098(7)
N6_6 N 0.68428(11) 0.42400(11) 0.88199(8)
C1_6 C 0.60583(13) 0.13667(13) 0.88900(9)
H1_6 H 0.5745 0.1442 0.9111
C2_6 C 0.64751(13) 0.08989(13) 0.89559(9)
H2_6 H 0.6428 0.0647 0.9222
C3_6 C 0.70036(13) 0.11447(13) 0.83000(9)
H3_6 H 0.7340 0.1076 0.8099
C4_6 C 0.66074(13) 0.16156(12) 0.81964(9)
H4_6 H 0.6671 0.1861 0.7929
C5_6 C 0.61096(12) 0.17263(12) 0.84901(9)
C6_6 C 0.55316(12) 0.22855(12) 0.79152(8)
C7_6 C 0.54642(14) 0.17873(12) 0.76213(9)
H5_6 H 0.5531 0.1385 0.7733
C8_6 C 0.52999(14) 0.18844(13) 0.71660(9)
H6_6 H 0.5256 0.1540 0.6969
C9_6 C 0.52506(13) 0.29196(13) 0.72734(9)
H7_6 H 0.5176 0.3316 0.7152
C10_6 C 0.54087(14) 0.28642(13) 0.77426(9)
H8_6 H 0.5431 0.3213 0.7937
C11_6 C 0.53272(12) 0.24666(12) 0.87472(9)
H9_6 H 0.5060 0.2784 0.8611
H10_6 H 0.5063 0.2147 0.8884
C12_6 C 0.59442(14) 0.28527(15) 0.99236(9)
H11_6 H 0.6343 0.2987 0.9844
C15_6 C 0.49511(13) 0.25002(13) 0.97195(10)
H14_6 H 0.4649 0.2390 0.9498
C16_6 C 0.55280(12) 0.26969(12) 0.95748(8)
C17_6 C 0.60821(12) 0.32468(12) 0.89908(8)
C18_6 C 0.66211(14) 0.31754(13) 0.87493(11)
H15_6 H 0.6740 0.2785 0.8639
C19_6 C 0.69867(15) 0.36806(14) 0.86697(11)
H16_6 H 0.7355 0.3627 0.8501
C20_6 C 0.63140(14) 0.43094(13) 0.90456(10)
H17_6 H 0.6201 0.4706 0.9148
C21_6 C 0.59267(13) 0.38282(13) 0.91351(11)
H18_6 H 0.5554 0.3896 0.9295
N8_6 N 0.83104(11) 0.05797(12) 0.85955(8)
B2_6 B 0.9321(6) 0.1262(6) 0.8635(4)
H22_6 H 0.9592 0.1110 0.8879
H23_6 H 0.9533 0.1249 0.8336
H24_6 H 0.9204 0.1684 0.8704
C23_6 C 0.87444(17) 0.08596(17) 0.86116(12)
N10_6 N 0.76207(11) 0.02214(11) 0.94780(8)
N7_6 N 0.67735(12) 0.94353(12) 0.88972(8)
B1_6 B 0.5824(6) 0.8651(6) 0.8838(5)
H19_6 H 0.5910 0.8279 0.9015
H20_6 H 0.5427 0.8815 0.8932
H21_6 H 0.5816 0.8555 0.8506
C22_6 C 0.6353(2) 0.9153(3) 0.8939(2)
N9_6 N 0.74385(10) 0.98006(12) 0.80128(8)
N11_6 N 0.81572(11) 0.92400(11) 0.88199(8)
Zn1_7 Zn 0.00104(2) 0.24596(2) 0.12512(2)
N1_7 N 0.07798(11) 0.30612(11) 0.13309(8)
N2_7 N 0.24385(10) 0.48006(12) 0.30128(8)
N3_7 N 0.21986(10) 0.42952(11) 0.16156(7)
N5_7 N 0.27378(10) 0.42958(11) 0.08902(7)
N6_7 N 0.42400(11) 0.31572(11) 0.11801(8)
C1_7 C 0.13667(13) 0.39417(13) 0.11100(9)
H1_7 H 0.1442 0.4255 0.0889
C2_7 C 0.08989(13) 0.35249(13) 0.10441(9)
H2_7 H 0.0647 0.3572 0.0778
C3_7 C 0.11447(13) 0.29964(13) 0.17000(9)
H3_7 H 0.1076 0.2660 0.1901
C4_7 C 0.16156(12) 0.33926(13) 0.18036(9)
H4_7 H 0.1861 0.3329 0.2071
C5_7 C 0.17263(12) 0.38904(12) 0.15099(9)
C6_7 C 0.22855(12) 0.44684(12) 0.20848(8)
C7_7 C 0.17873(12) 0.45358(14) 0.23787(9)
H5_7 H 0.1385 0.4469 0.2267
C8_7 C 0.18844(13) 0.47001(14) 0.28340(9)
H6_7 H 0.1540 0.4744 0.3031
C9_7 C 0.29196(13) 0.47494(13) 0.27266(9)
H7_7 H 0.3316 0.4824 0.2848
C10_7 C 0.28642(13) 0.45913(14) 0.22574(9)
H8_7 H 0.3213 0.4569 0.2063
C11_7 C 0.24666(12) 0.46728(12) 0.12528(9)
H9_7 H 0.2784 0.4940 0.1389
H10_7 H 0.2147 0.4937 0.1116
C12_7 C 0.28527(15) 0.40558(14) 0.00764(9)
H11_7 H 0.2987 0.3657 0.0156
C15_7 C 0.25002(13) 0.50489(13) 0.02805(10)
H14_7 H 0.2390 0.5351 0.0502
C16_7 C 0.26969(12) 0.44720(12) 0.04252(8)
C17_7 C 0.32468(12) 0.39179(12) 0.10092(8)
C18_7 C 0.31754(13) 0.33789(14) 0.12507(11)
H15_7 H 0.2785 0.3260 0.1361
C19_7 C 0.36806(14) 0.30133(15) 0.13303(11)
H16_7 H 0.3627 0.2645 0.1499
C20_7 C 0.43094(13) 0.36860(14) 0.09544(10)
H17_7 H 0.4706 0.3799 0.0852
C21_7 C 0.38282(13) 0.40733(13) 0.08649(11)
H18_7 H 0.3896 0.4446 0.0705
N8_7 N 0.05797(12) 0.16896(11) 0.14045(8)
B2_7 B 0.1262(6) 0.0679(6) 0.1365(4)
H22_7 H 0.1110 0.0408 0.1121
H23_7 H 0.1249 0.0467 0.1664
H24_7 H 0.1684 0.0796 0.1296
C23_7 C 0.08596(17) 0.12556(17) 0.13884(12)
N10_7 N 0.02214(11) 0.23793(11) 0.05220(8)
N4_7 N 0.26207(11) 0.47786(11) 0.94780(8)
C13_7 C 0.28106(14) 0.42277(13) 0.96180(9)
H12_7 H 0.2923 0.3939 0.9388
C14_7 C 0.24677(13) 0.51739(14) 0.98112(9)
H13_7 H 0.2328 0.5566 0.9720
N7_7 N 0.94353(12) 0.32265(12) 0.11028(8)
B1_7 B 0.8651(6) 0.4176(6) 0.1162(5)
H19_7 H 0.8279 0.4090 0.0985
H20_7 H 0.8815 0.4573 0.1068
H21_7 H 0.8555 0.4184 0.1494
C22_7 C 0.9153(3) 0.3647(2) 0.1061(2)
N9_7 N 0.98006(12) 0.25615(10) 0.19872(8)
N11_7 N 0.92400(11) 0.18428(11) 0.11801(8)
N7_8 N 0.05647(12) 0.67735(12) 0.11028(8)
B1_8 B 0.1349(6) 0.5824(6) 0.1162(5)
H19_8 H 0.1721 0.5910 0.0985
H20_8 H 0.1185 0.5427 0.1068
H21_8 H 0.1445 0.5816 0.1494
C22_8 C 0.0847(3) 0.6353(2) 0.1061(2)
N9_8 N 0.01994(12) 0.74385(10) 0.19872(8)
N11_8 N 0.07600(11) 0.81572(11) 0.11801(8)
Zn1_8 Zn 0.99896(2) 0.75404(2) 0.12512(2)
N1_8 N 0.92202(11) 0.69388(11) 0.13309(8)
N2_8 N 0.75615(10) 0.51994(12) 0.30128(8)
N3_8 N 0.78014(10) 0.57048(11) 0.16156(7)
N5_8 N 0.72622(10) 0.57042(11) 0.08902(7)
N6_8 N 0.57600(11) 0.68428(11) 0.11801(8)
C1_8 C 0.86333(13) 0.60583(13) 0.11100(9)
H1_8 H 0.8558 0.5745 0.0889
C2_8 C 0.91011(13) 0.64751(13) 0.10441(9)
H2_8 H 0.9353 0.6428 0.0778
C3_8 C 0.88553(13) 0.70036(13) 0.17000(9)
H3_8 H 0.8924 0.7340 0.1901
C4_8 C 0.83844(12) 0.66074(13) 0.18036(9)
H4_8 H 0.8139 0.6671 0.2071
C5_8 C 0.82737(12) 0.61096(12) 0.15099(9)
C6_8 C 0.77145(12) 0.55316(12) 0.20848(8)
C7_8 C 0.82127(12) 0.54642(14) 0.23787(9)
H5_8 H 0.8615 0.5531 0.2267
C8_8 C 0.81156(13) 0.52999(14) 0.28340(9)
H6_8 H 0.8460 0.5256 0.3031
C9_8 C 0.70804(13) 0.52506(13) 0.27266(9)
H7_8 H 0.6684 0.5176 0.2848
C10_8 C 0.71358(13) 0.54087(14) 0.22574(9)
H8_8 H 0.6787 0.5431 0.2063
C11_8 C 0.75334(12) 0.53272(12) 0.12528(9)
H9_8 H 0.7216 0.5060 0.1389
H10_8 H 0.7853 0.5063 0.1116
C12_8 C 0.71473(15) 0.59442(14) 0.00764(9)
H11_8 H 0.7013 0.6343 0.0156
C15_8 C 0.74998(13) 0.49511(13) 0.02805(10)
H14_8 H 0.7610 0.4649 0.0502
C16_8 C 0.73031(12) 0.55280(12) 0.04252(8)
C17_8 C 0.67532(12) 0.60821(12) 0.10092(8)
C18_8 C 0.68246(13) 0.66211(14) 0.12507(11)
H15_8 H 0.7215 0.6740 0.1361
C19_8 C 0.63194(14) 0.69867(15) 0.13303(11)
H16_8 H 0.6373 0.7355 0.1499
C20_8 C 0.56906(13) 0.63140(14) 0.09544(10)
H17_8 H 0.5294 0.6201 0.0852
C21_8 C 0.61718(13) 0.59267(13) 0.08649(11)
H18_8 H 0.6104 0.5554 0.0705
N8_8 N 0.94203(12) 0.83104(11) 0.14045(8)
B2_8 B 0.8738(6) 0.9321(6) 0.1365(4)
H22_8 H 0.8890 0.9592 0.1121
H23_8 H 0.8751 0.9533 0.1664
H24_8 H 0.8316 0.9204 0.1296
C23_8 C 0.91404(17) 0.87444(17) 0.13884(12)
N10_8 N 0.97786(11) 0.76207(11) 0.05220(8)
N4_8 N 0.73793(11) 0.52214(11) 0.94780(8)
C13_8 C 0.71894(14) 0.57723(13) 0.96180(9)
H12_8 H 0.7077 0.6061 0.9388
C14_8 C 0.75323(13) 0.48261(14) 0.98112(9)
H13_8 H 0.7672 0.4434 0.9720
C15_9 C 0.00489(13) 0.75002(13) 0.97195(10)
H14_9 H 0.0351 0.7390 0.9498
C13_9 C 0.92277(13) 0.78106(14) 0.03820(9)
H12_9 H 0.8939 0.7923 0.0612
N1_9 N 0.80612(11) 0.57798(11) 0.86691(8)
N3_9 N 0.92952(11) 0.71986(10) 0.83844(7)
N5_9 N 0.92958(11) 0.77378(10) 0.91098(7)
C1_9 C 0.89417(13) 0.63667(13) 0.88900(9)
H1_9 H 0.9255 0.6442 0.9111
C2_9 C 0.85249(13) 0.58989(13) 0.89559(9)
H2_9 H 0.8572 0.5647 0.9222
C3_9 C 0.79964(13) 0.61447(13) 0.83000(9)
H3_9 H 0.7660 0.6076 0.8099
C4_9 C 0.83926(13) 0.66156(12) 0.81964(9)
H4_9 H 0.8329 0.6861 0.7929
C5_9 C 0.88904(12) 0.67263(12) 0.84901(9)
C6_9 C 0.94684(12) 0.72855(12) 0.79152(8)
C7_9 C 0.95358(14) 0.67873(12) 0.76213(9)
H5_9 H 0.9469 0.6385 0.7733
C8_9 C 0.97001(14) 0.68844(13) 0.71660(9)
H6_9 H 0.9744 0.6540 0.6969
C9_9 C 0.97494(13) 0.79196(13) 0.72734(9)
H7_9 H 0.9824 0.8316 0.7152
C10_9 C 0.95913(14) 0.78642(13) 0.77426(9)
H8_9 H 0.9569 0.8213 0.7937
C11_9 C 0.96728(12) 0.74666(12) 0.87472(9)
H9_9 H 0.9940 0.7784 0.8611
H10_9 H 0.9937 0.7147 0.8884
C12_9 C 0.90558(14) 0.78527(15) 0.99236(9)
H11_9 H 0.8657 0.7987 0.9844
C16_9 C 0.94720(12) 0.76969(12) 0.95748(8)
C17_9 C 0.89179(12) 0.82468(12) 0.89908(8)
C18_9 C 0.83789(14) 0.81754(13) 0.87493(11)
H15_9 H 0.8260 0.7785 0.8639
C19_9 C 0.80133(15) 0.86806(14) 0.86697(11)
H16_9 H 0.7645 0.8627 0.8501
C20_9 C 0.86860(14) 0.93094(13) 0.90456(10)
H17_9 H 0.8799 0.9706 0.9148
C21_9 C 0.90733(13) 0.88282(13) 0.91351(11)
H18_9 H 0.9446 0.8896 0.9295
N7_9 N 0.82265(12) 0.44353(12) 0.88972(8)
N8_9 N 0.66896(11) 0.55797(12) 0.85955(8)
B1_9 B 0.9176(6) 0.3651(6) 0.8838(5)
H19_9 H 0.9090 0.3279 0.9015
H20_9 H 0.9573 0.3815 0.8932
H21_9 H 0.9184 0.3555 0.8506
B2_9 B 0.5679(6) 0.6262(6) 0.8635(4)
H22_9 H 0.5408 0.6110 0.8879
H23_9 H 0.5467 0.6249 0.8336
H24_9 H 0.5796 0.6684 0.8704
C22_9 C 0.8647(2) 0.4153(3) 0.8939(2)
C23_9 C 0.62556(17) 0.58596(17) 0.86116(12)
C13_10 C 0.07723(13) 0.21894(14) 0.03820(9)
H12_10 H 0.1061 0.2077 0.0612
N1_10 N 0.19388(11) 0.42202(11) 0.86691(8)
N3_10 N 0.07048(11) 0.28014(10) 0.83844(7)
N5_10 N 0.07042(11) 0.22622(10) 0.91098(7)
C1_10 C 0.10583(13) 0.36333(13) 0.88900(9)
H1_10 H 0.0745 0.3558 0.9111
C2_10 C 0.14751(13) 0.41011(13) 0.89559(9)
H2_10 H 0.1428 0.4353 0.9222
C3_10 C 0.20036(13) 0.38553(13) 0.83000(9)
H3_10 H 0.2340 0.3924 0.8099
C4_10 C 0.16074(13) 0.33844(12) 0.81964(9)
H4_10 H 0.1671 0.3139 0.7929
C5_10 C 0.11096(12) 0.32737(12) 0.84901(9)
C6_10 C 0.05316(12) 0.27145(12) 0.79152(8)
C7_10 C 0.04642(14) 0.32127(12) 0.76213(9)
H5_10 H 0.0531 0.3615 0.7733
C8_10 C 0.02999(14) 0.31156(13) 0.71660(9)
H6_10 H 0.0256 0.3460 0.6969
C9_10 C 0.02506(13) 0.20804(13) 0.72734(9)
H7_10 H 0.0176 0.1684 0.7152
C10_10 C 0.04087(14) 0.21358(13) 0.77426(9)
H8_10 H 0.0431 0.1787 0.7937
C11_10 C 0.03272(12) 0.25334(12) 0.87472(9)
H9_10 H 0.0060 0.2216 0.8611
H10_10 H 0.0063 0.2853 0.8884
C12_10 C 0.09442(14) 0.21473(15) 0.99236(9)
H11_10 H 0.1343 0.2013 0.9844
C16_10 C 0.05280(12) 0.23031(12) 0.95748(8)
C17_10 C 0.10821(12) 0.17532(12) 0.89908(8)
C18_10 C 0.16211(14) 0.18246(13) 0.87493(11)
H15_10 H 0.1740 0.2215 0.8639
C19_10 C 0.19867(15) 0.13194(14) 0.86697(11)
H16_10 H 0.2355 0.1373 0.8501
C20_10 C 0.13140(14) 0.06906(13) 0.90456(10)
H17_10 H 0.1201 0.0294 0.9148
C21_10 C 0.09267(13) 0.11718(13) 0.91351(11)
H18_10 H 0.0554 0.1104 0.9295
N7_10 N 0.17735(12) 0.55647(12) 0.88972(8)
N8_10 N 0.33104(11) 0.44203(12) 0.85955(8)
B1_10 B 0.0824(6) 0.6349(6) 0.8838(5)
H19_10 H 0.0910 0.6721 0.9015
H20_10 H 0.0427 0.6185 0.8932
H21_10 H 0.0816 0.6445 0.8506
B2_10 B 0.4321(6) 0.3738(6) 0.8635(4)
H22_10 H 0.4592 0.3890 0.8879
H23_10 H 0.4533 0.3751 0.8336
H24_10 H 0.4204 0.3316 0.8704
C22_10 C 0.1353(2) 0.5847(3) 0.8939(2)
C23_10 C 0.37444(17) 0.41404(17) 0.86116(12)
C15_10 C 0.99511(13) 0.24998(13) 0.97195(10)
H14_10 H 0.9649 0.2610 0.9498
N1_11 N 0.57798(11) 0.19388(11) 0.13309(8)
N3_11 N 0.71986(10) 0.07048(11) 0.16156(7)
N5_11 N 0.77378(10) 0.07042(11) 0.08902(7)
C1_11 C 0.63667(13) 0.10583(13) 0.11100(9)
H1_11 H 0.6442 0.0745 0.0889
C2_11 C 0.58989(13) 0.14751(13) 0.10441(9)
H2_11 H 0.5647 0.1428 0.0778
C3_11 C 0.61447(13) 0.20036(13) 0.17000(9)
H3_11 H 0.6076 0.2340 0.1901
C4_11 C 0.66156(12) 0.16074(13) 0.18036(9)
H4_11 H 0.6861 0.1671 0.2071
C5_11 C 0.67263(12) 0.11096(12) 0.15099(9)
C6_11 C 0.72855(12) 0.05316(12) 0.20848(8)
C7_11 C 0.67873(12) 0.04642(14) 0.23787(9)
H5_11 H 0.6385 0.0531 0.2267
C8_11 C 0.68844(13) 0.02999(14) 0.28340(9)
H6_11 H 0.6540 0.0256 0.3031
C9_11 C 0.79196(13) 0.02506(13) 0.27266(9)
H7_11 H 0.8316 0.0176 0.2848
C10_11 C 0.78642(13) 0.04087(14) 0.22574(9)
H8_11 H 0.8213 0.0431 0.2063
C11_11 C 0.74666(12) 0.03272(12) 0.12528(9)
H9_11 H 0.7784 0.0060 0.1389
H10_11 H 0.7147 0.0063 0.1116
C12_11 C 0.78527(15) 0.09442(14) 0.00764(9)
H11_11 H 0.7987 0.1343 0.0156
C16_11 C 0.76969(12) 0.05280(12) 0.04252(8)
C17_11 C 0.82468(12) 0.10821(12) 0.10092(8)
C18_11 C 0.81754(13) 0.16211(14) 0.12507(11)
H15_11 H 0.7785 0.1740 0.1361
C19_11 C 0.86806(14) 0.19867(15) 0.13303(11)
H16_11 H 0.8627 0.2355 0.1499
C20_11 C 0.93094(13) 0.13140(14) 0.09544(10)
H17_11 H 0.9706 0.1201 0.0852
C21_11 C 0.88282(13) 0.09267(13) 0.08649(11)
H18_11 H 0.8896 0.0554 0.0705
N7_11 N 0.44353(12) 0.17735(12) 0.11028(8)
N8_11 N 0.55797(12) 0.33104(11) 0.14045(8)
B1_11 B 0.3651(6) 0.0824(6) 0.1162(5)
H19_11 H 0.3279 0.0910 0.0985
H20_11 H 0.3815 0.0427 0.1068
H21_11 H 0.3555 0.0816 0.1494
B2_11 B 0.6262(6) 0.4321(6) 0.1365(4)
H22_11 H 0.6110 0.4592 0.1121
H23_11 H 0.6249 0.4533 0.1664
H24_11 H 0.6684 0.4204 0.1296
C22_11 C 0.4153(3) 0.1353(2) 0.1061(2)
C23_11 C 0.58596(17) 0.37444(17) 0.13884(12)
C13_11 C 0.78106(14) 0.07723(13) 0.96180(9)
H12_11 H 0.7923 0.1061 0.9388
C15_11 C 0.75002(13) 0.99511(13) 0.02805(10)
H14_11 H 0.7390 0.9649 0.0502
C15_12 C 0.24998(13) 0.00489(13) 0.02805(10)
H14_12 H 0.2610 0.0351 0.0502
N1_12 N 0.42202(11) 0.80612(11) 0.13309(8)
N3_12 N 0.28014(10) 0.92952(11) 0.16156(7)
N5_12 N 0.22622(10) 0.92958(11) 0.08902(7)
C1_12 C 0.36333(13) 0.89417(13) 0.11100(9)
H1_12 H 0.3558 0.9255 0.0889
C2_12 C 0.41011(13) 0.85249(13) 0.10441(9)
H2_12 H 0.4353 0.8572 0.0778
C3_12 C 0.38553(13) 0.79964(13) 0.17000(9)
H3_12 H 0.3924 0.7660 0.1901
C4_12 C 0.33844(12) 0.83926(13) 0.18036(9)
H4_12 H 0.3139 0.8329 0.2071
C5_12 C 0.32737(12) 0.88904(12) 0.15099(9)
C6_12 C 0.27145(12) 0.94684(12) 0.20848(8)
C7_12 C 0.32127(12) 0.95358(14) 0.23787(9)
H5_12 H 0.3615 0.9469 0.2267
C8_12 C 0.31156(13) 0.97001(14) 0.28340(9)
H6_12 H 0.3460 0.9744 0.3031
C9_12 C 0.20804(13) 0.97494(13) 0.27266(9)
H7_12 H 0.1684 0.9824 0.2848
C10_12 C 0.21358(13) 0.95913(14) 0.22574(9)
H8_12 H 0.1787 0.9569 0.2063
C11_12 C 0.25334(12) 0.96728(12) 0.12528(9)
H9_12 H 0.2216 0.9940 0.1389
H10_12 H 0.2853 0.9937 0.1116
C12_12 C 0.21473(15) 0.90558(14) 0.00764(9)
H11_12 H 0.2013 0.8657 0.0156
C16_12 C 0.23031(12) 0.94720(12) 0.04252(8)
C17_12 C 0.17532(12) 0.89179(12) 0.10092(8)
C18_12 C 0.18246(13) 0.83789(14) 0.12507(11)
H15_12 H 0.2215 0.8260 0.1361
C19_12 C 0.13194(14) 0.80133(15) 0.13303(11)
H16_12 H 0.1373 0.7645 0.1499
C20_12 C 0.06906(13) 0.86860(14) 0.09544(10)
H17_12 H 0.0294 0.8799 0.0852
C21_12 C 0.11718(13) 0.90733(13) 0.08649(11)
H18_12 H 0.1104 0.9446 0.0705
N7_12 N 0.55647(12) 0.82265(12) 0.11028(8)
N8_12 N 0.44203(12) 0.66896(11) 0.14045(8)
B1_12 B 0.6349(6) 0.9176(6) 0.1162(5)
H19_12 H 0.6721 0.9090 0.0985
H20_12 H 0.6185 0.9573 0.1068
H21_12 H 0.6445 0.9184 0.1494
B2_12 B 0.3738(6) 0.5679(6) 0.1365(4)
H22_12 H 0.3890 0.5408 0.1121
H23_12 H 0.3751 0.5467 0.1664
H24_12 H 0.3316 0.5796 0.1296
C22_12 C 0.5847(3) 0.8647(2) 0.1061(2)
C23_12 C 0.41404(17) 0.62556(17) 0.13884(12)
C13_12 C 0.21894(14) 0.92277(13) 0.96180(9)
H12_12 H 0.2077 0.8939 0.9388
C14_9 C 0.01739(14) 0.25323(13) 0.51888(9)
H13_9 H 0.0566 0.2672 0.5280
C15_13 C 0.00489(13) 0.24998(13) 0.47195(10)
H14_13 H 0.0351 0.2610 0.4498
N1_13 N 0.80612(11) 0.42202(11) 0.36691(8)
N3_13 N 0.92952(11) 0.28014(10) 0.33844(7)
N5_13 N 0.92958(11) 0.22622(10) 0.41098(7)
C1_13 C 0.89417(13) 0.36333(13) 0.38900(9)
H1_13 H 0.9255 0.3558 0.4111
C2_13 C 0.85249(13) 0.41011(13) 0.39559(9)
H2_13 H 0.8572 0.4353 0.4222
C3_13 C 0.79964(13) 0.38553(13) 0.33000(9)
H3_13 H 0.7660 0.3924 0.3099
C4_13 C 0.83926(13) 0.33844(12) 0.31964(9)
H4_13 H 0.8329 0.3139 0.2929
C5_13 C 0.88904(12) 0.32737(12) 0.34901(9)
C6_13 C 0.94684(12) 0.27145(12) 0.29152(8)
C7_13 C 0.95358(14) 0.32127(12) 0.26213(9)
H5_13 H 0.9469 0.3615 0.2733
C8_13 C 0.97001(14) 0.31156(13) 0.21660(9)
H6_13 H 0.9744 0.3460 0.1969
C9_13 C 0.97494(13) 0.20804(13) 0.22734(9)
H7_13 H 0.9824 0.1684 0.2152
C10_13 C 0.95913(14) 0.21358(13) 0.27426(9)
H8_13 H 0.9569 0.1787 0.2937
C11_13 C 0.96728(12) 0.25334(12) 0.37472(9)
H9_13 H 0.9940 0.2216 0.3611
H10_13 H 0.9937 0.2853 0.3884
C12_13 C 0.90558(14) 0.21473(15) 0.49236(9)
H11_13 H 0.8657 0.2013 0.4844
C13_13 C 0.92277(13) 0.21894(14) 0.53820(9)
H12_13 H 0.8939 0.2077 0.5612
C16_13 C 0.94720(12) 0.23031(12) 0.45748(8)
C17_13 C 0.89179(12) 0.17532(12) 0.39908(8)
C18_13 C 0.83789(14) 0.18246(13) 0.37493(11)
H15_13 H 0.8260 0.2215 0.3639
C19_13 C 0.80133(15) 0.13194(14) 0.36697(11)
H16_13 H 0.7645 0.1373 0.3501
C20_13 C 0.86860(14) 0.06906(13) 0.40456(10)
H17_13 H 0.8799 0.0294 0.4148
C21_13 C 0.90733(13) 0.11718(13) 0.41351(11)
H18_13 H 0.9446 0.1104 0.4295
N7_13 N 0.82265(12) 0.55647(12) 0.38972(8)
N8_13 N 0.66896(11) 0.44203(12) 0.35955(8)
B1_13 B 0.9176(6) 0.6349(6) 0.3838(5)
H19_13 H 0.9090 0.6721 0.4015
H20_13 H 0.9573 0.6185 0.3932
H21_13 H 0.9184 0.6445 0.3506
B2_13 B 0.5679(6) 0.3738(6) 0.3635(4)
H22_13 H 0.5408 0.3890 0.3879
H23_13 H 0.5467 0.3751 0.3336
H24_13 H 0.5796 0.3316 0.3704
C22_13 C 0.8647(2) 0.5847(3) 0.3939(2)
C23_13 C 0.62556(17) 0.41404(17) 0.36116(12)
N1_14 N 0.19388(11) 0.57798(11) 0.36691(8)
N3_14 N 0.07048(11) 0.71986(10) 0.33844(7)
N5_14 N 0.07042(11) 0.77378(10) 0.41098(7)
C1_14 C 0.10583(13) 0.63667(13) 0.38900(9)
H1_14 H 0.0745 0.6442 0.4111
C2_14 C 0.14751(13) 0.58989(13) 0.39559(9)
H2_14 H 0.1428 0.5647 0.4222
C3_14 C 0.20036(13) 0.61447(13) 0.33000(9)
H3_14 H 0.2340 0.6076 0.3099
C4_14 C 0.16074(13) 0.66156(12) 0.31964(9)
H4_14 H 0.1671 0.6861 0.2929
C5_14 C 0.11096(12) 0.67263(12) 0.34901(9)
C6_14 C 0.05316(12) 0.72855(12) 0.29152(8)
C7_14 C 0.04642(14) 0.67873(12) 0.26213(9)
H5_14 H 0.0531 0.6385 0.2733
C8_14 C 0.02999(14) 0.68844(13) 0.21660(9)
H6_14 H 0.0256 0.6540 0.1969
C9_14 C 0.02506(13) 0.79196(13) 0.22734(9)
H7_14 H 0.0176 0.8316 0.2152
C10_14 C 0.04087(14) 0.78642(13) 0.27426(9)
H8_14 H 0.0431 0.8213 0.2937
C11_14 C 0.03272(12) 0.74666(12) 0.37472(9)
H9_14 H 0.0060 0.7784 0.3611
H10_14 H 0.0063 0.7147 0.3884
C12_14 C 0.09442(14) 0.78527(15) 0.49236(9)
H11_14 H 0.1343 0.7987 0.4844
C13_14 C 0.07723(13) 0.78106(14) 0.53820(9)
H12_14 H 0.1061 0.7923 0.5612
C16_14 C 0.05280(12) 0.76969(12) 0.45748(8)
C17_14 C 0.10821(12) 0.82468(12) 0.39908(8)
C18_14 C 0.16211(14) 0.81754(13) 0.37493(11)
H15_14 H 0.1740 0.7785 0.3639
C19_14 C 0.19867(15) 0.86806(14) 0.36697(11)
H16_14 H 0.2355 0.8627 0.3501
C20_14 C 0.13140(14) 0.93094(13) 0.40456(10)
H17_14 H 0.1201 0.9706 0.4148
C21_14 C 0.09267(13) 0.88282(13) 0.41351(11)
H18_14 H 0.0554 0.8896 0.4295
N7_14 N 0.17735(12) 0.44353(12) 0.38972(8)
N8_14 N 0.33104(11) 0.55797(12) 0.35955(8)
B1_14 B 0.0824(6) 0.3651(6) 0.3838(5)
H19_14 H 0.0910 0.3279 0.4015
H20_14 H 0.0427 0.3815 0.3932
H21_14 H 0.0816 0.3555 0.3506
B2_14 B 0.4321(6) 0.6262(6) 0.3635(4)
H22_14 H 0.4592 0.6110 0.3879
H23_14 H 0.4533 0.6249 0.3336
H24_14 H 0.4204 0.6684 0.3704
C22_14 C 0.1353(2) 0.4153(3) 0.3939(2)
C23_14 C 0.37444(17) 0.58596(17) 0.36116(12)
C14_10 C 0.98261(14) 0.74677(13) 0.51888(9)
H13_10 H 0.9434 0.7328 0.5280
C15_14 C 0.99511(13) 0.75002(13) 0.47195(10)
H14_14 H 0.9649 0.7390 0.4498
C14_11 C 0.74677(13) 0.01739(14) 0.48112(9)
H13_11 H 0.7328 0.0566 0.4720
C15_15 C 0.75002(13) 0.00489(13) 0.52805(10)
H14_15 H 0.7390 0.0351 0.5502
N1_15 N 0.57798(11) 0.80612(11) 0.63309(8)
N3_15 N 0.71986(10) 0.92952(11) 0.66156(7)
N5_15 N 0.77378(10) 0.92958(11) 0.58902(7)
C1_15 C 0.63667(13) 0.89417(13) 0.61100(9)
H1_15 H 0.6442 0.9255 0.5889
C2_15 C 0.58989(13) 0.85249(13) 0.60441(9)
H2_15 H 0.5647 0.8572 0.5778
C3_15 C 0.61447(13) 0.79964(13) 0.67000(9)
H3_15 H 0.6076 0.7660 0.6901
C4_15 C 0.66156(12) 0.83926(13) 0.68036(9)
H4_15 H 0.6861 0.8329 0.7071
C5_15 C 0.67263(12) 0.88904(12) 0.65099(9)
C6_15 C 0.72855(12) 0.94684(12) 0.70848(8)
C7_15 C 0.67873(12) 0.95358(14) 0.73787(9)
H5_15 H 0.6385 0.9469 0.7267
C8_15 C 0.68844(13) 0.97001(14) 0.78340(9)
H6_15 H 0.6540 0.9744 0.8031
C9_15 C 0.79196(13) 0.97494(13) 0.77266(9)
H7_15 H 0.8316 0.9824 0.7848
C10_15 C 0.78642(13) 0.95913(14) 0.72574(9)
H8_15 H 0.8213 0.9569 0.7063
C11_15 C 0.74666(12) 0.96728(12) 0.62528(9)
H9_15 H 0.7784 0.9940 0.6389
H10_15 H 0.7147 0.9937 0.6116
C12_15 C 0.78527(15) 0.90558(14) 0.50764(9)
H11_15 H 0.7987 0.8657 0.5156
C13_15 C 0.78106(14) 0.92277(13) 0.46180(9)
H12_15 H 0.7923 0.8939 0.4388
C16_15 C 0.76969(12) 0.94720(12) 0.54252(8)
C17_15 C 0.82468(12) 0.89179(12) 0.60092(8)
C18_15 C 0.81754(13) 0.83789(14) 0.62507(11)
H15_15 H 0.7785 0.8260 0.6361
C19_15 C 0.86806(14) 0.80133(15) 0.63303(11)
H16_15 H 0.8627 0.7645 0.6499
C20_15 C 0.93094(13) 0.86860(14) 0.59544(10)
H17_15 H 0.9706 0.8799 0.5852
C21_15 C 0.88282(13) 0.90733(13) 0.58649(11)
H18_15 H 0.8896 0.9446 0.5705
N7_15 N 0.44353(12) 0.82265(12) 0.61028(8)
N8_15 N 0.55797(12) 0.66896(11) 0.64045(8)
B1_15 B 0.3651(6) 0.9176(6) 0.6162(5)
H19_15 H 0.3279 0.9090 0.5985
H20_15 H 0.3815 0.9573 0.6068
H21_15 H 0.3555 0.9184 0.6494
B2_15 B 0.6262(6) 0.5679(6) 0.6365(4)
H22_15 H 0.6110 0.5408 0.6121
H23_15 H 0.6249 0.5467 0.6664
H24_15 H 0.6684 0.5796 0.6296
C22_15 C 0.4153(3) 0.8647(2) 0.6061(2)
C23_15 C 0.58596(17) 0.62556(17) 0.63884(12)
N1_16 N 0.42202(11) 0.19388(11) 0.63309(8)
N3_16 N 0.28014(10) 0.07048(11) 0.66156(7)
N5_16 N 0.22622(10) 0.07042(11) 0.58902(7)
C1_16 C 0.36333(13) 0.10583(13) 0.61100(9)
H1_16 H 0.3558 0.0745 0.5889
C2_16 C 0.41011(13) 0.14751(13) 0.60441(9)
H2_16 H 0.4353 0.1428 0.5778
C3_16 C 0.38553(13) 0.20036(13) 0.67000(9)
H3_16 H 0.3924 0.2340 0.6901
C4_16 C 0.33844(12) 0.16074(13) 0.68036(9)
H4_16 H 0.3139 0.1671 0.7071
C5_16 C 0.32737(12) 0.11096(12) 0.65099(9)
C6_16 C 0.27145(12) 0.05316(12) 0.70848(8)
C7_16 C 0.32127(12) 0.04642(14) 0.73787(9)
H5_16 H 0.3615 0.0531 0.7267
C8_16 C 0.31156(13) 0.02999(14) 0.78340(9)
H6_16 H 0.3460 0.0256 0.8031
C9_16 C 0.20804(13) 0.02506(13) 0.77266(9)
H7_16 H 0.1684 0.0176 0.7848
C10_16 C 0.21358(13) 0.04087(14) 0.72574(9)
H8_16 H 0.1787 0.0431 0.7063
C11_16 C 0.25334(12) 0.03272(12) 0.62528(9)
H9_16 H 0.2216 0.0060 0.6389
H10_16 H 0.2853 0.0063 0.6116
C12_16 C 0.21473(15) 0.09442(14) 0.50764(9)
H11_16 H 0.2013 0.1343 0.5156
C13_16 C 0.21894(14) 0.07723(13) 0.46180(9)
H12_16 H 0.2077 0.1061 0.4388
C16_16 C 0.23031(12) 0.05280(12) 0.54252(8)
C17_16 C 0.17532(12) 0.10821(12) 0.60092(8)
C18_16 C 0.18246(13) 0.16211(14) 0.62507(11)
H15_16 H 0.2215 0.1740 0.6361
C19_16 C 0.13194(14) 0.19867(15) 0.63303(11)
H16_16 H 0.1373 0.2355 0.6499
C20_16 C 0.06906(13) 0.13140(14) 0.59544(10)
H17_16 H 0.0294 0.1201 0.5852
C21_16 C 0.11718(13) 0.09267(13) 0.58649(11)
H18_16 H 0.1104 0.0554 0.5705
N7_16 N 0.55647(12) 0.17735(12) 0.61028(8)
N8_16 N 0.44203(12) 0.33104(11) 0.64045(8)
B1_16 B 0.6349(6) 0.0824(6) 0.6162(5)
H19_16 H 0.6721 0.0910 0.5985
H20_16 H 0.6185 0.0427 0.6068
H21_16 H 0.6445 0.0816 0.6494
B2_16 B 0.3738(6) 0.4321(6) 0.6365(4)
H22_16 H 0.3890 0.4592 0.6121
H23_16 H 0.3751 0.4533 0.6664
H24_16 H 0.3316 0.4204 0.6296
C22_16 C 0.5847(3) 0.1353(2) 0.6061(2)
C23_16 C 0.41404(17) 0.37444(17) 0.63884(12)
C14_12 C 0.25323(13) 0.98261(14) 0.48112(9)
H13_12 H 0.2672 0.9434 0.4720
C15_16 C 0.24998(13) 0.99511(13) 0.52805(10)
H14_16 H 0.2610 0.9649 0.5502
C14_13 C 0.01739(14) 0.74677(13) 0.01888(9)
H13_13 H 0.0566 0.7328 0.0280
C14_14 C 0.98261(14) 0.25323(13) 0.01888(9)
H13_14 H 0.9434 0.2672 0.0280
C14_15 C 0.74677(13) 0.98261(14) 0.98112(9)
H13_15 H 0.7328 0.9434 0.9720
C14_16 C 0.25323(13) 0.01739(14) 0.98112(9)
H13_16 H 0.2672 0.0566 0.9720
loop_
_geom_bond_atom_site_label_1
_geom_bond_atom_site_label_2
_geom_bond_site_symmetry_1
_geom_bond_site_symmetry_2
Zn1 N1 1_555 1_555
N1 C2 1_555 1_555
N2 C8 1_555 1_555
N3 C5 1_555 1_555
N4 C13 1_555 1_555
N5 C11 1_555 1_555
N6 C19 1_555 1_555
C1 H1 1_555 1_555
C2 C1 1_555 1_555
H2 C2 1_555 1_555
C3 N1 1_555 1_555
H3 C3 1_555 1_555
C4 C3 1_555 1_555
H4 C4 1_555 1_555
C5 C1 1_555 1_555
C6 N3 1_555 1_555
C7 C6 1_555 1_555
H5 C7 1_555 1_555
C8 C7 1_555 1_555
H6 C8 1_555 1_555
C9 N2 1_555 1_555
H7 C9 1_555 1_555
C10 C6 1_555 1_555
H8 C10 1_555 1_555
C11 N3 1_555 1_555
H9 C11 1_555 1_555
H10 C11 1_555 1_555
C12 H11 1_555 1_555
C13 C12 1_555 1_555
H12 C13 1_555 1_555
C14 N4 1_555 1_555
H13 C14 1_555 1_555
C15 C14 1_555 1_555
H14 C15 1_555 1_555
C16 N5 1_555 1_555
C17 N5 1_555 1_555
C18 C17 1_555 1_555
H15 C18 1_555 1_555
C19 C18 1_555 1_555
H16 C19 1_555 1_555
C20 N6 1_555 1_555
H17 C20 1_555 1_555
C21 C17 1_555 1_555
H18 C21 1_555 1_555
N8 Zn1 1_555 1_555
B2 H22 1_555 1_555
H23 B2 1_555 1_555
H24 B2 1_555 1_555
C23 N8 1_555 1_555
Zn2 N2 1_555 1_555
Zn3 N6 1_555 1_555
Zn4 N4 1_555 1_555
N10 Zn1 1_555 1_555
C4 C5 1_555 1_555
C9 C10 1_555 1_555
C12 C16 1_555 1_555
C15 C16 1_555 1_555
C20 C21 1_555 1_555
B2 C23 1_555 1_555
B1 H19 1_555 1_555
H20 B1 1_555 1_555
H21 B1 1_555 1_555
C22 N7 1_555 1_555
B1 C22 1_555 1_555
B1_2 H19_2 1_555 1_555
H20_2 B1_2 1_555 1_555
H21_2 B1_2 1_555 1_555
C22_2 N7_2 1_555 1_555
B1_2 C22_2 1_555 1_555
Zn1_2 N1_2 1_555 1_555
N1_2 C2_2 1_555 1_555
N2_2 C8_2 1_555 1_555
N3_2 C5_2 1_555 1_555
N4_2 C13_2 1_555 1_555
N5_2 C11_2 1_555 1_555
N6_2 C19_2 1_555 1_555
C1_2 H1_2 1_555 1_555
C2_2 C1_2 1_555 1_555
H2_2 C2_2 1_555 1_555
C3_2 N1_2 1_555 1_555
H3_2 C3_2 1_555 1_555
C4_2 C3_2 1_555 1_555
H4_2 C4_2 1_555 1_555
C5_2 C1_2 1_555 1_555
C6_2 N3_2 1_555 1_555
C7_2 C6_2 1_555 1_555
H5_2 C7_2 1_555 1_555
C8_2 C7_2 1_555 1_555
H6_2 C8_2 1_555 1_555
C9_2 N2_2 1_555 1_555
H7_2 C9_2 1_555 1_555
C10_2 C6_2 1_555 1_555
H8_2 C10_2 1_555 1_555
C11_2 N3_2 1_555 1_555
H9_2 C11_2 1_555 1_555
H10_2 C11_2 1_555 1_555
C12_2 H11_2 1_555 1_555
C13_2 C12_2 1_555 1_555
H12_2 C13_2 1_555 1_555
C14_2 N4_2 1_555 1_555
H13_2 C14_2 1_555 1_555
C15_2 C14_2 1_555 1_555
H14_2 C15_2 1_555 1_555
C16_2 N5_2 1_555 1_555
C17_2 N5_2 1_555 1_555
C18_2 C17_2 1_555 1_555
H15_2 C18_2 1_555 1_555
C19_2 C18_2 1_555 1_555
H16_2 C19_2 1_555 1_555
C20_2 N6_2 1_555 1_555
H17_2 C20_2 1_555 1_555
C21_2 C17_2 1_555 1_555
H18_2 C21_2 1_555 1_555
N8_2 Zn1_2 1_555 1_555
B2_2 H22_2 1_555 1_555
H23_2 B2_2 1_555 1_555
H24_2 B2_2 1_555 1_555
C23_2 N8_2 1_555 1_555
Zn2_2 N2_2 1_555 1_555
Zn3_2 N6_2 1_555 1_555
Zn4_2 N4_2 1_555 1_555
N10_2 Zn1_2 1_555 1_555
C4_2 C5_2 1_555 1_555
C9_2 C10_2 1_555 1_555
C12_2 C16_2 1_555 1_555
C15_2 C16_2 1_555 1_555
C20_2 C21_2 1_555 1_555
B2_2 C23_2 1_555 1_555
Zn1_3 N1_3 1_555 1_555
N1_3 C2_3 1_555 1_555
N2_3 C8_3 1_555 1_555
N3_3 C5_3 1_555 1_555
N4_3 C13_3 1_555 1_555
N5_3 C11_3 1_555 1_555
N6_3 C19_3 1_555 1_555
C1_3 H1_3 1_555 1_555
C2_3 C1_3 1_555 1_555
H2_3 C2_3 1_555 1_555
C3_3 N1_3 1_555 1_555
H3_3 C3_3 1_555 1_555
C4_3 C3_3 1_555 1_555
H4_3 C4_3 1_555 1_555
C5_3 C1_3 1_555 1_555
C6_3 N3_3 1_555 1_555
C7_3 C6_3 1_555 1_555
H5_3 C7_3 1_555 1_555
C8_3 C7_3 1_555 1_555
H6_3 C8_3 1_555 1_555
C9_3 N2_3 1_555 1_555
H7_3 C9_3 1_555 1_555
C10_3 C6_3 1_555 1_555
H8_3 C10_3 1_555 1_555
C11_3 N3_3 1_555 1_555
H9_3 C11_3 1_555 1_555
H10_3 C11_3 1_555 1_555
C12_3 H11_3 1_555 1_555
C13_3 C12_3 1_555 1_555
H12_3 C13_3 1_555 1_555
C14_3 N4_3 1_555 1_555
H13_3 C14_3 1_555 1_555
C15_3 C14_3 1_555 1_555
H14_3 C15_3 1_555 1_555
C16_3 N5_3 1_555 1_555
C17_3 N5_3 1_555 1_555
C18_3 C17_3 1_555 1_555
H15_3 C18_3 1_555 1_555
C19_3 C18_3 1_555 1_555
H16_3 C19_3 1_555 1_555
C20_3 N6_3 1_555 1_555
H17_3 C20_3 1_555 1_555
C21_3 C17_3 1_555 1_555
H18_3 C21_3 1_555 1_555
N8_3 Zn1_3 1_555 1_555
B2_3 H22_3 1_555 1_555
H23_3 B2_3 1_555 1_555
H24_3 B2_3 1_555 1_555
C23_3 N8_3 1_555 1_555
Zn2_3 N2_3 1_555 1_555
Zn4_2 N6_3 1_555 1_555
Zn3 N4_3 1_555 1_555
N10_3 Zn1_3 1_555 1_555
C4_3 C5_3 1_555 1_555
C9_3 C10_3 1_555 1_555
C12_3 C16_3 1_555 1_555
C15_3 C16_3 1_555 1_555
C20_3 C21_3 1_555 1_555
B2_3 C23_3 1_555 1_555
B1_3 H19_3 1_555 1_555
H20_3 B1_3 1_555 1_555
H21_3 B1_3 1_555 1_555
C22_3 N7_3 1_555 1_555
B1_3 C22_3 1_555 1_555
B1_4 H19_4 1_555 1_555
H20_4 B1_4 1_555 1_555
H21_4 B1_4 1_555 1_555
C22_4 N7_4 1_555 1_555
B1_4 C22_4 1_555 1_555
Zn1_4 N1_4 1_555 1_555
N1_4 C2_4 1_555 1_555
N2_4 C8_4 1_555 1_555
N3_4 C5_4 1_555 1_555
N4_4 C13_4 1_555 1_555
N5_4 C11_4 1_555 1_555
N6_4 C19_4 1_555 1_555
C1_4 H1_4 1_555 1_555
C2_4 C1_4 1_555 1_555
H2_4 C2_4 1_555 1_555
C3_4 N1_4 1_555 1_555
H3_4 C3_4 1_555 1_555
C4_4 C3_4 1_555 1_555
H4_4 C4_4 1_555 1_555
C5_4 C1_4 1_555 1_555
C6_4 N3_4 1_555 1_555
C7_4 C6_4 1_555 1_555
H5_4 C7_4 1_555 1_555
C8_4 C7_4 1_555 1_555
H6_4 C8_4 1_555 1_555
C9_4 N2_4 1_555 1_555
H7_4 C9_4 1_555 1_555
C10_4 C6_4 1_555 1_555
H8_4 C10_4 1_555 1_555
C11_4 N3_4 1_555 1_555
H9_4 C11_4 1_555 1_555
H10_4 C11_4 1_555 1_555
C12_4 H11_4 1_555 1_555
C13_4 C12_4 1_555 1_555
H12_4 C13_4 1_555 1_555
C14_4 N4_4 1_555 1_555
H13_4 C14_4 1_555 1_555
C15_4 C14_4 1_555 1_555
H14_4 C15_4 1_555 1_555
C16_4 N5_4 1_555 1_555
C17_4 N5_4 1_555 1_555
C18_4 C17_4 1_555 1_555
H15_4 C18_4 1_555 1_555
C19_4 C18_4 1_555 1_555
H16_4 C19_4 1_555 1_555
C20_4 N6_4 1_555 1_555
H17_4 C20_4 1_555 1_555
C21_4 C17_4 1_555 1_555
H18_4 C21_4 1_555 1_555
N8_4 Zn1_4 1_555 1_555
B2_4 H22_4 1_555 1_555
H23_4 B2_4 1_555 1_555
H24_4 B2_4 1_555 1_555
C23_4 N8_4 1_555 1_555
Zn2_4 N2_4 1_555 1_555
Zn4 N6_4 1_555 1_555
Zn3_2 N4_4 1_555 1_555
N10_4 Zn1_4 1_555 1_555
C4_4 C5_4 1_555 1_555
C9_4 C10_4 1_555 1_555
C12_4 C16_4 1_555 1_555
C15_4 C16_4 1_555 1_555
C20_4 C21_4 1_555 1_555
B2_4 C23_4 1_555 1_555
B1_5 H19_5 1_555 1_555
H20_5 B1_5 1_555 1_555
H21_5 B1_5 1_555 1_555
C22_5 N7_5 1_555 1_555
B1_5 C22_5 1_555 1_555
N4_5 C13_5 1_555 1_555
H12_5 C13_5 1_555 1_555
C14_5 N4_5 1_555 1_555
H13_5 C14_5 1_555 1_555
Zn2_2 N4_5 1_555 1_555
Zn1_5 N1_5 1_555 1_555
N1_5 C2_5 1_555 1_555
N2_5 C8_5 1_555 1_555
N3_5 C5_5 1_555 1_555
N5_5 C11_5 1_555 1_555
N6_5 C19_5 1_555 1_555
C1_5 H1_5 1_555 1_555
C2_5 C1_5 1_555 1_555
H2_5 C2_5 1_555 1_555
C3_5 N1_5 1_555 1_555
H3_5 C3_5 1_555 1_555
C4_5 C3_5 1_555 1_555
H4_5 C4_5 1_555 1_555
C5_5 C1_5 1_555 1_555
C6_5 N3_5 1_555 1_555
C7_5 C6_5 1_555 1_555
H5_5 C7_5 1_555 1_555
C8_5 C7_5 1_555 1_555
H6_5 C8_5 1_555 1_555
C9_5 N2_5 1_555 1_555
H7_5 C9_5 1_555 1_555
C10_5 C6_5 1_555 1_555
H8_5 C10_5 1_555 1_555
C11_5 N3_5 1_555 1_555
H9_5 C11_5 1_555 1_555
H10_5 C11_5 1_555 1_555
C12_5 H11_5 1_555 1_555
H14_5 C15_5 1_555 1_555
C16_5 N5_5 1_555 1_555
C17_5 N5_5 1_555 1_555
C18_5 C17_5 1_555 1_555
H15_5 C18_5 1_555 1_555
C19_5 C18_5 1_555 1_555
H16_5 C19_5 1_555 1_555
C20_5 N6_5 1_555 1_555
H17_5 C20_5 1_555 1_555
C21_5 C17_5 1_555 1_555
H18_5 C21_5 1_555 1_555
N8_5 Zn1_5 1_555 1_555
B2_5 H22_5 1_555 1_555
H23_5 B2_5 1_555 1_555
H24_5 B2_5 1_555 1_555
C23_5 N8_5 1_555 1_555
Zn4_2 N2_5 1_555 1_555
Zn2_3 N6_5 1_555 1_555
N10_5 Zn1_5 1_555 1_555
C4_5 C5_5 1_555 1_555
C9_5 C10_5 1_555 1_555
C12_5 C16_5 1_555 1_555
C15_5 C16_5 1_555 1_555
C20_5 C21_5 1_555 1_555
B2_5 C23_5 1_555 1_555
N4_6 C13_6 1_555 1_555
H12_6 C13_6 1_555 1_555
C14_6 N4_6 1_555 1_555
H13_6 C14_6 1_555 1_555
Zn2 N4_6 1_555 1_555
Zn1_6 N1_6 1_555 1_555
N1_6 C2_6 1_555 1_555
N2_6 C8_6 1_555 1_555
N3_6 C5_6 1_555 1_555
N5_6 C11_6 1_555 1_555
N6_6 C19_6 1_555 1_555
C1_6 H1_6 1_555 1_555
C2_6 C1_6 1_555 1_555
H2_6 C2_6 1_555 1_555
C3_6 N1_6 1_555 1_555
H3_6 C3_6 1_555 1_555
C4_6 C3_6 1_555 1_555
H4_6 C4_6 1_555 1_555
C5_6 C1_6 1_555 1_555
C6_6 N3_6 1_555 1_555
C7_6 C6_6 1_555 1_555
H5_6 C7_6 1_555 1_555
C8_6 C7_6 1_555 1_555
H6_6 C8_6 1_555 1_555
C9_6 N2_6 1_555 1_555
H7_6 C9_6 1_555 1_555
C10_6 C6_6 1_555 1_555
H8_6 C10_6 1_555 1_555
C11_6 N3_6 1_555 1_555
H9_6 C11_6 1_555 1_555
H10_6 C11_6 1_555 1_555
C12_6 H11_6 1_555 1_555
H14_6 C15_6 1_555 1_555
C16_6 N5_6 1_555 1_555
C17_6 N5_6 1_555 1_555
C18_6 C17_6 1_555 1_555
H15_6 C18_6 1_555 1_555
C19_6 C18_6 1_555 1_555
H16_6 C19_6 1_555 1_555
C20_6 N6_6 1_555 1_555
H17_6 C20_6 1_555 1_555
C21_6 C17_6 1_555 1_555
H18_6 C21_6 1_555 1_555
N8_6 Zn1_6 1_555 1_555
B2_6 H22_6 1_555 1_555
H23_6 B2_6 1_555 1_555
H24_6 B2_6 1_555 1_555
C23_6 N8_6 1_555 1_555
Zn4 N2_6 1_555 1_555
Zn2_4 N6_6 1_555 1_555
N10_6 Zn1_6 1_555 1_555
C4_6 C5_6 1_555 1_555
C9_6 C10_6 1_555 1_555
C12_6 C16_6 1_555 1_555
C15_6 C16_6 1_555 1_555
C20_6 C21_6 1_555 1_555
B2_6 C23_6 1_555 1_555
B1_6 H19_6 1_555 1_555
H20_6 B1_6 1_555 1_555
H21_6 B1_6 1_555 1_555
C22_6 N7_6 1_555 1_555
B1_6 C22_6 1_555 1_555
Zn1_7 N1_7 1_555 1_555
N1_7 C2_7 1_555 1_555
N2_7 C8_7 1_555 1_555
N3_7 C5_7 1_555 1_555
N5_7 C11_7 1_555 1_555
N6_7 C19_7 1_555 1_555
C1_7 H1_7 1_555 1_555
C2_7 C1_7 1_555 1_555
H2_7 C2_7 1_555 1_555
C3_7 N1_7 1_555 1_555
H3_7 C3_7 1_555 1_555
C4_7 C3_7 1_555 1_555
H4_7 C4_7 1_555 1_555
C5_7 C1_7 1_555 1_555
C6_7 N3_7 1_555 1_555
C7_7 C6_7 1_555 1_555
H5_7 C7_7 1_555 1_555
C8_7 C7_7 1_555 1_555
H6_7 C8_7 1_555 1_555
C9_7 N2_7 1_555 1_555
H7_7 C9_7 1_555 1_555
C10_7 C6_7 1_555 1_555
H8_7 C10_7 1_555 1_555
C11_7 N3_7 1_555 1_555
H9_7 C11_7 1_555 1_555
H10_7 C11_7 1_555 1_555
C12_7 H11_7 1_555 1_555
H14_7 C15_7 1_555 1_555
C16_7 N5_7 1_555 1_555
C17_7 N5_7 1_555 1_555
C18_7 C17_7 1_555 1_555
H15_7 C18_7 1_555 1_555
C19_7 C18_7 1_555 1_555
H16_7 C19_7 1_555 1_555
C20_7 N6_7 1_555 1_555
H17_7 C20_7 1_555 1_555
C21_7 C17_7 1_555 1_555
H18_7 C21_7 1_555 1_555
N8_7 Zn1_7 1_555 1_555
B2_7 H22_7 1_555 1_555
H23_7 B2_7 1_555 1_555
H24_7 B2_7 1_555 1_555
C23_7 N8_7 1_555 1_555
Zn3 N2_7 1_555 1_555
Zn2 N6_7 1_555 1_555
N10_7 Zn1_7 1_555 1_555
C4_7 C5_7 1_555 1_555
C9_7 C10_7 1_555 1_555
C12_7 C16_7 1_555 1_555
C15_7 C16_7 1_555 1_555
C20_7 C21_7 1_555 1_555
B2_7 C23_7 1_555 1_555
N4_7 C13_7 1_555 1_555
H12_7 C13_7 1_555 1_555
C14_7 N4_7 1_555 1_555
H13_7 C14_7 1_555 1_555
Zn2_3 N4_7 1_555 1_555
B1_7 H19_7 1_555 1_555
H20_7 B1_7 1_555 1_555
H21_7 B1_7 1_555 1_555
C22_7 N7_7 1_555 1_555
B1_7 C22_7 1_555 1_555
B1_8 H19_8 1_555 1_555
H20_8 B1_8 1_555 1_555
H21_8 B1_8 1_555 1_555
C22_8 N7_8 1_555 1_555
B1_8 C22_8 1_555 1_555
Zn1_8 N1_8 1_555 1_555
N1_8 C2_8 1_555 1_555
N2_8 C8_8 1_555 1_555
N3_8 C5_8 1_555 1_555
N5_8 C11_8 1_555 1_555
N6_8 C19_8 1_555 1_555
C1_8 H1_8 1_555 1_555
C2_8 C1_8 1_555 1_555
H2_8 C2_8 1_555 1_555
C3_8 N1_8 1_555 1_555
H3_8 C3_8 1_555 1_555
C4_8 C3_8 1_555 1_555
H4_8 C4_8 1_555 1_555
C5_8 C1_8 1_555 1_555
C6_8 N3_8 1_555 1_555
C7_8 C6_8 1_555 1_555
H5_8 C7_8 1_555 1_555
C8_8 C7_8 1_555 1_555
H6_8 C8_8 1_555 1_555
C9_8 N2_8 1_555 1_555
H7_8 C9_8 1_555 1_555
C10_8 C6_8 1_555 1_555
H8_8 C10_8 1_555 1_555
C11_8 N3_8 1_555 1_555
H9_8 C11_8 1_555 1_555
H10_8 C11_8 1_555 1_555
C12_8 H11_8 1_555 1_555
H14_8 C15_8 1_555 1_555
C16_8 N5_8 1_555 1_555
C17_8 N5_8 1_555 1_555
C18_8 C17_8 1_555 1_555
H15_8 C18_8 1_555 1_555
C19_8 C18_8 1_555 1_555
H16_8 C19_8 1_555 1_555
C20_8 N6_8 1_555 1_555
H17_8 C20_8 1_555 1_555
C21_8 C17_8 1_555 1_555
H18_8 C21_8 1_555 1_555
N8_8 Zn1_8 1_555 1_555
B2_8 H22_8 1_555 1_555
H23_8 B2_8 1_555 1_555
H24_8 B2_8 1_555 1_555
C23_8 N8_8 1_555 1_555
Zn3_2 N2_8 1_555 1_555
Zn2_2 N6_8 1_555 1_555
N10_8 Zn1_8 1_555 1_555
C4_8 C5_8 1_555 1_555
C9_8 C10_8 1_555 1_555
C12_8 C16_8 1_555 1_555
C15_8 C16_8 1_555 1_555
C20_8 C21_8 1_555 1_555
B2_8 C23_8 1_555 1_555
N4_8 C13_8 1_555 1_555
H12_8 C13_8 1_555 1_555
C14_8 N4_8 1_555 1_555
H13_8 C14_8 1_555 1_555
Zn2_4 N4_8 1_555 1_555
H14_9 C15_9 1_555 1_555
N10_8 C13_9 1_555 1_555
H12_9 C13_9 1_555 1_555
Zn2_4 N1_9 1_555 1_555
N1_9 C2_9 1_555 1_555
N9_3 C8_9 1_555 1_555
N3_9 C5_9 1_555 1_555
N5_9 C11_9 1_555 1_555
N11_6 C19_9 1_555 1_555
C1_9 H1_9 1_555 1_555
C2_9 C1_9 1_555 1_555
H2_9 C2_9 1_555 1_555
C3_9 N1_9 1_555 1_555
H3_9 C3_9 1_555 1_555
C4_9 C3_9 1_555 1_555
H4_9 C4_9 1_555 1_555
C5_9 C1_9 1_555 1_555
C6_9 N3_9 1_555 1_555
C7_9 C6_9 1_555 1_555
H5_9 C7_9 1_555 1_555
C8_9 C7_9 1_555 1_555
H6_9 C8_9 1_555 1_555
C9_9 N9_3 1_555 1_555
H7_9 C9_9 1_555 1_555
C10_9 C6_9 1_555 1_555
H8_9 C10_9 1_555 1_555
C11_9 N3_9 1_555 1_555
H9_9 C11_9 1_555 1_555
H10_9 C11_9 1_555 1_555
C12_9 H11_9 1_555 1_555
C16_9 N5_9 1_555 1_555
C17_9 N5_9 1_555 1_555
C18_9 C17_9 1_555 1_555
H15_9 C18_9 1_555 1_555
C19_9 C18_9 1_555 1_555
H16_9 C19_9 1_555 1_555
C20_9 N11_6 1_555 1_555
H17_9 C20_9 1_555 1_555
C21_9 C17_9 1_555 1_555
H18_9 C21_9 1_555 1_555
N7_9 Zn2_4 1_555 1_555
N8_9 Zn2_4 1_555 1_555
B1_9 H19_9 1_555 1_555
H20_9 B1_9 1_555 1_555
H21_9 B1_9 1_555 1_555
B2_9 H22_9 1_555 1_555
H23_9 B2_9 1_555 1_555
H24_9 B2_9 1_555 1_555
C22_9 N7_9 1_555 1_555
C23_9 N8_9 1_555 1_555
C4_9 C5_9 1_555 1_555
C9_9 C10_9 1_555 1_555
C12_9 C16_9 1_555 1_555
C20_9 C21_9 1_555 1_555
B1_9 C22_9 1_555 1_555
B2_9 C23_9 1_555 1_555
N10_7 C13_10 1_555 1_555
H12_10 C13_10 1_555 1_555
Zn2_3 N1_10 1_555 1_555
N1_10 C2_10 1_555 1_555
N9_4 C8_10 1_555 1_555
N3_10 C5_10 1_555 1_555
N5_10 C11_10 1_555 1_555
N11_5 C19_10 1_555 1_555
C1_10 H1_10 1_555 1_555
C2_10 C1_10 1_555 1_555
H2_10 C2_10 1_555 1_555
C3_10 N1_10 1_555 1_555
H3_10 C3_10 1_555 1_555
C4_10 C3_10 1_555 1_555
H4_10 C4_10 1_555 1_555
C5_10 C1_10 1_555 1_555
C6_10 N3_10 1_555 1_555
C7_10 C6_10 1_555 1_555
H5_10 C7_10 1_555 1_555
C8_10 C7_10 1_555 1_555
H6_10 C8_10 1_555 1_555
C9_10 N9_4 1_555 1_555
H7_10 C9_10 1_555 1_555
C10_10 C6_10 1_555 1_555
H8_10 C10_10 1_555 1_555
C11_10 N3_10 1_555 1_555
H9_10 C11_10 1_555 1_555
H10_10 C11_10 1_555 1_555
C12_10 H11_10 1_555 1_555
C16_10 N5_10 1_555 1_555
C17_10 N5_10 1_555 1_555
C18_10 C17_10 1_555 1_555
H15_10 C18_10 1_555 1_555
C19_10 C18_10 1_555 1_555
H16_10 C19_10 1_555 1_555
C20_10 N11_5 1_555 1_555
H17_10 C20_10 1_555 1_555
C21_10 C17_10 1_555 1_555
H18_10 C21_10 1_555 1_555
N7_10 Zn2_3 1_555 1_555
N8_10 Zn2_3 1_555 1_555
B1_10 H19_10 1_555 1_555
H20_10 B1_10 1_555 1_555
H21_10 B1_10 1_555 1_555
B2_10 H22_10 1_555 1_555
H23_10 B2_10 1_555 1_555
H24_10 B2_10 1_555 1_555
C22_10 N7_10 1_555 1_555
C23_10 N8_10 1_555 1_555
C4_10 C5_10 1_555 1_555
C9_10 C10_10 1_555 1_555
C12_10 C16_10 1_555 1_555
C20_10 C21_10 1_555 1_555
B1_10 C22_10 1_555 1_555
B2_10 C23_10 1_555 1_555
H14_10 C15_10 1_555 1_555
Zn2 N1_11 1_555 1_555
N1_11 C2_11 1_555 1_555
N9_2 C8_11 1_555 1_555
N3_11 C5_11 1_555 1_555
N5_11 C11_11 1_555 1_555
N11_7 C19_11 1_555 1_555
C1_11 H1_11 1_555 1_555
C2_11 C1_11 1_555 1_555
H2_11 C2_11 1_555 1_555
C3_11 N1_11 1_555 1_555
H3_11 C3_11 1_555 1_555
C4_11 C3_11 1_555 1_555
H4_11 C4_11 1_555 1_555
C5_11 C1_11 1_555 1_555
C6_11 N3_11 1_555 1_555
C7_11 C6_11 1_555 1_555
H5_11 C7_11 1_555 1_555
C8_11 C7_11 1_555 1_555
H6_11 C8_11 1_555 1_555
C9_11 N9_2 1_555 1_555
H7_11 C9_11 1_555 1_555
C10_11 C6_11 1_555 1_555
H8_11 C10_11 1_555 1_555
C11_11 N3_11 1_555 1_555
H9_11 C11_11 1_555 1_555
H10_11 C11_11 1_555 1_555
C12_11 H11_11 1_555 1_555
C16_11 N5_11 1_555 1_555
C17_11 N5_11 1_555 1_555
C18_11 C17_11 1_555 1_555
H15_11 C18_11 1_555 1_555
C19_11 C18_11 1_555 1_555
H16_11 C19_11 1_555 1_555
C20_11 N11_7 1_555 1_555
H17_11 C20_11 1_555 1_555
C21_11 C17_11 1_555 1_555
H18_11 C21_11 1_555 1_555
N7_11 Zn2 1_555 1_555
N8_11 Zn2 1_555 1_555
B1_11 H19_11 1_555 1_555
H20_11 B1_11 1_555 1_555
H21_11 B1_11 1_555 1_555
B2_11 H22_11 1_555 1_555
H23_11 B2_11 1_555 1_555
H24_11 B2_11 1_555 1_555
C22_11 N7_11 1_555 1_555
C23_11 N8_11 1_555 1_555
C4_11 C5_11 1_555 1_555
C9_11 C10_11 1_555 1_555
C12_11 C16_11 1_555 1_555
C20_11 C21_11 1_555 1_555
B1_11 C22_11 1_555 1_555
B2_11 C23_11 1_555 1_555
N10_6 C13_11 1_555 1_555
H12_11 C13_11 1_555 1_555
H14_11 C15_11 1_555 1_555
H14_12 C15_12 1_555 1_555
Zn2_2 N1_12 1_555 1_555
N1_12 C2_12 1_555 1_555
N9 C8_12 1_555 1_555
N3_12 C5_12 1_555 1_555
N5_12 C11_12 1_555 1_555
N11_8 C19_12 1_555 1_555
C1_12 H1_12 1_555 1_555
C2_12 C1_12 1_555 1_555
H2_12 C2_12 1_555 1_555
C3_12 N1_12 1_555 1_555
H3_12 C3_12 1_555 1_555
C4_12 C3_12 1_555 1_555
H4_12 C4_12 1_555 1_555
C5_12 C1_12 1_555 1_555
C6_12 N3_12 1_555 1_555
C7_12 C6_12 1_555 1_555
H5_12 C7_12 1_555 1_555
C8_12 C7_12 1_555 1_555
H6_12 C8_12 1_555 1_555
C9_12 N9 1_555 1_555
H7_12 C9_12 1_555 1_555
C10_12 C6_12 1_555 1_555
H8_12 C10_12 1_555 1_555
C11_12 N3_12 1_555 1_555
H9_12 C11_12 1_555 1_555
H10_12 C11_12 1_555 1_555
C12_12 H11_12 1_555 1_555
C16_12 N5_12 1_555 1_555
C17_12 N5_12 1_555 1_555
C18_12 C17_12 1_555 1_555
H15_12 C18_12 1_555 1_555
C19_12 C18_12 1_555 1_555
H16_12 C19_12 1_555 1_555
C20_12 N11_8 1_555 1_555
H17_12 C20_12 1_555 1_555
C21_12 C17_12 1_555 1_555
H18_12 C21_12 1_555 1_555
N7_12 Zn2_2 1_555 1_555
N8_12 Zn2_2 1_555 1_555
B1_12 H19_12 1_555 1_555
H20_12 B1_12 1_555 1_555
H21_12 B1_12 1_555 1_555
B2_12 H22_12 1_555 1_555
H23_12 B2_12 1_555 1_555
H24_12 B2_12 1_555 1_555
C22_12 N7_12 1_555 1_555
C23_12 N8_12 1_555 1_555
C4_12 C5_12 1_555 1_555
C9_12 C10_12 1_555 1_555
C12_12 C16_12 1_555 1_555
C20_12 C21_12 1_555 1_555
B1_12 C22_12 1_555 1_555
B2_12 C23_12 1_555 1_555
N10_5 C13_12 1_555 1_555
H12_12 C13_12 1_555 1_555
H13_9 C14_9 1_555 1_555
C15_13 C14_9 1_555 1_555
H14_13 C15_13 1_555 1_555
Zn3_2 N1_13 1_555 1_555
N1_13 C2_13 1_555 1_555
N9_7 C8_13 1_555 1_555
N3_13 C5_13 1_555 1_555
N10_4 C13_13 1_555 1_555
N5_13 C11_13 1_555 1_555
N11_2 C19_13 1_555 1_555
C1_13 H1_13 1_555 1_555
C2_13 C1_13 1_555 1_555
H2_13 C2_13 1_555 1_555
C3_13 N1_13 1_555 1_555
H3_13 C3_13 1_555 1_555
C4_13 C3_13 1_555 1_555
H4_13 C4_13 1_555 1_555
C5_13 C1_13 1_555 1_555
C6_13 N3_13 1_555 1_555
C7_13 C6_13 1_555 1_555
H5_13 C7_13 1_555 1_555
C8_13 C7_13 1_555 1_555
H6_13 C8_13 1_555 1_555
C9_13 N9_7 1_555 1_555
H7_13 C9_13 1_555 1_555
C10_13 C6_13 1_555 1_555
H8_13 C10_13 1_555 1_555
C11_13 N3_13 1_555 1_555
H9_13 C11_13 1_555 1_555
H10_13 C11_13 1_555 1_555
C12_13 H11_13 1_555 1_555
C13_13 C12_13 1_555 1_555
H12_13 C13_13 1_555 1_555
C16_13 N5_13 1_555 1_555
C17_13 N5_13 1_555 1_555
C18_13 C17_13 1_555 1_555
H15_13 C18_13 1_555 1_555
C19_13 C18_13 1_555 1_555
H16_13 C19_13 1_555 1_555
C20_13 N11_2 1_555 1_555
H17_13 C20_13 1_555 1_555
C21_13 C17_13 1_555 1_555
H18_13 C21_13 1_555 1_555
N7_13 Zn3_2 1_555 1_555
N8_13 Zn3_2 1_555 1_555
B1_13 H19_13 1_555 1_555
H20_13 B1_13 1_555 1_555
H21_13 B1_13 1_555 1_555
B2_13 H22_13 1_555 1_555
H23_13 B2_13 1_555 1_555
H24_13 B2_13 1_555 1_555
C22_13 N7_13 1_555 1_555
C23_13 N8_13 1_555 1_555
C4_13 C5_13 1_555 1_555
C9_13 C10_13 1_555 1_555
C12_13 C16_13 1_555 1_555
C20_13 C21_13 1_555 1_555
B1_13 C22_13 1_555 1_555
B2_13 C23_13 1_555 1_555
Zn3 N1_14 1_555 1_555
N1_14 C2_14 1_555 1_555
N9_8 C8_14 1_555 1_555
N3_14 C5_14 1_555 1_555
N10_3 C13_14 1_555 1_555
N5_14 C11_14 1_555 1_555
N11 C19_14 1_555 1_555
C1_14 H1_14 1_555 1_555
C2_14 C1_14 1_555 1_555
H2_14 C2_14 1_555 1_555
C3_14 N1_14 1_555 1_555
H3_14 C3_14 1_555 1_555
C4_14 C3_14 1_555 1_555
H4_14 C4_14 1_555 1_555
C5_14 C1_14 1_555 1_555
C6_14 N3_14 1_555 1_555
C7_14 C6_14 1_555 1_555
H5_14 C7_14 1_555 1_555
C8_14 C7_14 1_555 1_555
H6_14 C8_14 1_555 1_555
C9_14 N9_8 1_555 1_555
H7_14 C9_14 1_555 1_555
C10_14 C6_14 1_555 1_555
H8_14 C10_14 1_555 1_555
C11_14 N3_14 1_555 1_555
H9_14 C11_14 1_555 1_555
H10_14 C11_14 1_555 1_555
C12_14 H11_14 1_555 1_555
C13_14 C12_14 1_555 1_555
H12_14 C13_14 1_555 1_555
C16_14 N5_14 1_555 1_555
C17_14 N5_14 1_555 1_555
C18_14 C17_14 1_555 1_555
H15_14 C18_14 1_555 1_555
C19_14 C18_14 1_555 1_555
H16_14 C19_14 1_555 1_555
C20_14 N11 1_555 1_555
H17_14 C20_14 1_555 1_555
C21_14 C17_14 1_555 1_555
H18_14 C21_14 1_555 1_555
N7_14 Zn3 1_555 1_555
N8_14 Zn3 1_555 1_555
B1_14 H19_14 1_555 1_555
H20_14 B1_14 1_555 1_555
H21_14 B1_14 1_555 1_555
B2_14 H22_14 1_555 1_555
H23_14 B2_14 1_555 1_555
H24_14 B2_14 1_555 1_555
C22_14 N7_14 1_555 1_555
C23_14 N8_14 1_555 1_555
C4_14 C5_14 1_555 1_555
C9_14 C10_14 1_555 1_555
C12_14 C16_14 1_555 1_555
C20_14 C21_14 1_555 1_555
B1_14 C22_14 1_555 1_555
B2_14 C23_14 1_555 1_555
H13_10 C14_10 1_555 1_555
C15_14 C14_10 1_555 1_555
H14_14 C15_14 1_555 1_555
H13_11 C14_11 1_555 1_555
C15_15 C14_11 1_555 1_555
H14_15 C15_15 1_555 1_555
Zn4_2 N1_15 1_555 1_555
N1_15 C2_15 1_555 1_555
N9_6 C8_15 1_555 1_555
N3_15 C5_15 1_555 1_555
N10_2 C13_15 1_555 1_555
N5_15 C11_15 1_555 1_555
N11_3 C19_15 1_555 1_555
C1_15 H1_15 1_555 1_555
C2_15 C1_15 1_555 1_555
H2_15 C2_15 1_555 1_555
C3_15 N1_15 1_555 1_555
H3_15 C3_15 1_555 1_555
C4_15 C3_15 1_555 1_555
H4_15 C4_15 1_555 1_555
C5_15 C1_15 1_555 1_555
C6_15 N3_15 1_555 1_555
C7_15 C6_15 1_555 1_555
H5_15 C7_15 1_555 1_555
C8_15 C7_15 1_555 1_555
H6_15 C8_15 1_555 1_555
C9_15 N9_6 1_555 1_555
H7_15 C9_15 1_555 1_555
C10_15 C6_15 1_555 1_555
H8_15 C10_15 1_555 1_555
C11_15 N3_15 1_555 1_555
H9_15 C11_15 1_555 1_555
H10_15 C11_15 1_555 1_555
C12_15 H11_15 1_555 1_555
C13_15 C12_15 1_555 1_555
H12_15 C13_15 1_555 1_555
C16_15 N5_15 1_555 1_555
C17_15 N5_15 1_555 1_555
C18_15 C17_15 1_555 1_555
H15_15 C18_15 1_555 1_555
C19_15 C18_15 1_555 1_555
H16_15 C19_15 1_555 1_555
C20_15 N11_3 1_555 1_555
H17_15 C20_15 1_555 1_555
C21_15 C17_15 1_555 1_555
H18_15 C21_15 1_555 1_555
N7_15 Zn4_2 1_555 1_555
N8_15 Zn4_2 1_555 1_555
B1_15 H19_15 1_555 1_555
H20_15 B1_15 1_555 1_555
H21_15 B1_15 1_555 1_555
B2_15 H22_15 1_555 1_555
H23_15 B2_15 1_555 1_555
H24_15 B2_15 1_555 1_555
C22_15 N7_15 1_555 1_555
C23_15 N8_15 1_555 1_555
C4_15 C5_15 1_555 1_555
C9_15 C10_15 1_555 1_555
C12_15 C16_15 1_555 1_555
C20_15 C21_15 1_555 1_555
B1_15 C22_15 1_555 1_555
B2_15 C23_15 1_555 1_555
Zn4 N1_16 1_555 1_555
N1_16 C2_16 1_555 1_555
N9_5 C8_16 1_555 1_555
N3_16 C5_16 1_555 1_555
N10 C13_16 1_555 1_555
N5_16 C11_16 1_555 1_555
N11_4 C19_16 1_555 1_555
C1_16 H1_16 1_555 1_555
C2_16 C1_16 1_555 1_555
H2_16 C2_16 1_555 1_555
C3_16 N1_16 1_555 1_555
H3_16 C3_16 1_555 1_555
C4_16 C3_16 1_555 1_555
H4_16 C4_16 1_555 1_555
C5_16 C1_16 1_555 1_555
C6_16 N3_16 1_555 1_555
C7_16 C6_16 1_555 1_555
H5_16 C7_16 1_555 1_555
C8_16 C7_16 1_555 1_555
H6_16 C8_16 1_555 1_555
C9_16 N9_5 1_555 1_555
H7_16 C9_16 1_555 1_555
C10_16 C6_16 1_555 1_555
H8_16 C10_16 1_555 1_555
C11_16 N3_16 1_555 1_555
H9_16 C11_16 1_555 1_555
H10_16 C11_16 1_555 1_555
C12_16 H11_16 1_555 1_555
C13_16 C12_16 1_555 1_555
H12_16 C13_16 1_555 1_555
C16_16 N5_16 1_555 1_555
C17_16 N5_16 1_555 1_555
C18_16 C17_16 1_555 1_555
H15_16 C18_16 1_555 1_555
C19_16 C18_16 1_555 1_555
H16_16 C19_16 1_555 1_555
C20_16 N11_4 1_555 1_555
H17_16 C20_16 1_555 1_555
C21_16 C17_16 1_555 1_555
H18_16 C21_16 1_555 1_555
N7_16 Zn4 1_555 1_555
N8_16 Zn4 1_555 1_555
B1_16 H19_16 1_555 1_555
H20_16 B1_16 1_555 1_555
H21_16 B1_16 1_555 1_555
B2_16 H22_16 1_555 1_555
H23_16 B2_16 1_555 1_555
H24_16 B2_16 1_555 1_555
C22_16 N7_16 1_555 1_555
C23_16 N8_16 1_555 1_555
C4_16 C5_16 1_555 1_555
C9_16 C10_16 1_555 1_555
C12_16 C16_16 1_555 1_555
C20_16 C21_16 1_555 1_555
B1_16 C22_16 1_555 1_555
B2_16 C23_16 1_555 1_555
H13_12 C14_12 1_555 1_555
C15_16 C14_12 1_555 1_555
H14_16 C15_16 1_555 1_555
H13_13 C14_13 1_555 1_555
H13_14 C14_14 1_555 1_555
H13_15 C14_15 1_555 1_555
H13_16 C14_16 1_555 1_555

#END
