
###############################################################################
#
# This file contains modified crystal structure data generated from the
# MOF subset of the Cambridge Structural Database (CSD) v543 
# hosted by the Cambridge Crystallographic Data Centre (CCDC).
#
# This work is licensed under the Creative Commons
# Attribution-NonCommercial-ShareAlike 4.0 International License.
# To view a copy of this license, visit
# http://creativecommons.org/licenses/by-nc-sa/4.0/
# or send a letter to
# Creative Commons, PO Box 1866, Mountain View, CA 94042, USA.
#
# CIF created using the CSD Python API on 29 September 2022
# The structure has been converted into the P1 space group
# The structure has a 3D framework
# The original CSD entry PAFNES is in the monoclinic crystal system
# The framework has been calculated to contain at least 10.0% void space
# The void calculation uses a probe of radius 1.32A, grid spacing 0.4
#
###############################################################################

data_PAFNES
_chemical_formula_moiety         '(C108 H120 Cd8 N24 O40)n'
_symmetry_cell_setting           triclinic
_symmetry_space_group_name_H-M   'P 1'
_symmetry_Int_Tables_number      1
_space_group_name_Hall           'P 1'
loop_
_symmetry_equiv_pos_site_id
_symmetry_equiv_pos_as_xyz
1 x,y,z
_cell_length_a                   14.877(3)
_cell_length_b                   16.998(3)
_cell_length_c                   16.095(3)
_cell_angle_alpha                90
_cell_angle_beta                 112.498(3)
_cell_angle_gamma                90
_cell_volume                     3760.33
loop_
_atom_site_label
_atom_site_type_symbol
_atom_site_fract_x
_atom_site_fract_y
_atom_site_fract_z
N4 N 0.5429(3) 0.2641(2) 0.1654(2)
N5 N 0.4427(3) 0.2762(2) 0.1305(2)
N6 N 0.5036(3) 0.3386(2) 0.0448(2)
H13 H 0.6435 0.4304 0.0411
C16 C 0.5773(3) 0.3026(3) 0.1131(3)
H17 H 0.6427 0.3050 0.1214
C17 C 0.4216(3) 0.3206(3) 0.0592(3)
H18 H 0.3593 0.3374 0.0233
Cd3 Cd 0.61809(2) 0.196024(18) 0.301272(19)
Cd6 Cd 0.33358(2) 0.222951(19) 0.18731(2)
O1 O 0.7390(3) 0.2872(3) 0.3996(3)
O2 O 0.7611(3) 0.2540(2) 0.2800(3)
O3 O 0.8068(3) 0.4978(2) 0.1543(3)
O4 O 0.8370(3) 0.5892(2) 0.2617(2)
O5 O 0.1927(3) 0.2716(2) 0.1986(3)
O6 O 0.2322(3) 0.3316(3) 0.0985(3)
O7 O 0.1730(2) 0.6108(2) 0.2347(2)
O8 O 0.0329(2) 0.62714(19) 0.2467(2)
O9 O 0.6744(5) 0.1229(3) 0.4273(3)
H1 H 0.6000(19) 0.104(3) 0.403(2)
H2 H 0.678(4) 0.134(5) 0.480(2)
O10 O 0.2741(3) 0.1466(2) 0.0596(2)
H3 H 0.265(3) 0.162(3) 0.0048(19)
H4 H 0.330(2) 0.119(2) 0.0762(18)
N1 N 0.5187(3) 0.2789(2) 0.3604(3)
N2 N 0.4197(3) 0.2854(2) 0.3255(3)
N3 N 0.4754(3) 0.3477(2) 0.4539(2)
C1 C 0.5136(4) 0.5369(3) 0.7600(3)
H5 H 0.4615 0.5751 0.7451
H6 H 0.5748 0.5653 0.7796
C2 C 0.5020(4) 0.4892(3) 0.6775(3)
C3 C 0.4148(4) 0.4866(3) 0.6039(3)
H7 H 0.3626 0.5168 0.6034
C4 C 0.4046(4) 0.4388(3) 0.5300(3)
H8 H 0.3453 0.4360 0.4813
C5 C 0.4827(3) 0.3962(3) 0.5302(3)
C6 C 0.5699(4) 0.3990(3) 0.6031(3)
H9 H 0.6224 0.3692 0.6034
C7 C 0.5793(4) 0.4462(3) 0.6760(3)
H10 H 0.6387 0.4489 0.7245
C8 C 0.5119(3) 0.4847(3) 0.8362(3)
C9 C 0.4313(4) 0.4407(3) 0.8262(3)
H11 H 0.3772 0.4440 0.7725
C10 C 0.4274(3) 0.3913(3) 0.8936(3)
H12 H 0.3724 0.3613 0.8853
C11 C 0.5086(3) 0.3881(3) 0.9741(3)
C12 C 0.5901(3) 0.4321(3) 0.9868(3)
C13 C 0.5913(3) 0.4793(3) 0.9168(3)
H14 H 0.6470 0.5082 0.9244
C14 C 0.5506(4) 0.3167(3) 0.4366(3)
H15 H 0.6158 0.3217 0.4740
C15 C 0.3953(3) 0.3264(3) 0.3818(3)
H16 H 0.3318 0.3394 0.3738
C18 C 0.7880(3) 0.2896(3) 0.3531(3)
C19 C 0.8829(4) 0.3337(3) 0.3859(3)
H19 H 0.9358 0.2966 0.3975
H20 H 0.8917 0.3596 0.4422
C20 C 0.8881(4) 0.3957(3) 0.3183(4)
H21 H 0.9507 0.4221 0.3431
H22 H 0.8837 0.3695 0.2634
C21 C 0.8083(4) 0.4565(3) 0.2960(4)
H23 H 0.8108 0.4816 0.3510
H24 H 0.7457 0.4308 0.2685
C22 C 0.8182(4) 0.5189(3) 0.2322(4)
C23 C 0.1771(4) 0.3232(3) 0.1391(3)
C24 C 0.0922(4) 0.3803(3) 0.1224(4)
H25 H 0.0611 0.3917 0.0586
H26 H 0.0443 0.3566 0.1419
C25 C 0.1294(4) 0.4548(3) 0.1733(4)
H27 H 0.1747 0.4792 0.1510
H28 H 0.1648 0.4421 0.2362
C26 C 0.0510(4) 0.5128(3) 0.1663(5)
H29 H 0.0053 0.4881 0.1879
H30 H 0.0160 0.5259 0.1034
C27 C 0.0879(3) 0.5885(3) 0.2187(3)
Cd5 Cd 0.88191(2) 0.696024(18) 0.198728(19)
Cd7 Cd 0.16642(2) 0.722951(19) 0.31269(2)
O11 O 0.6630(3) 0.0892(2) 0.2383(2)
O12 O 0.3270(2) 0.1108(2) 0.2653(2)
O13 O 0.4671(2) 0.12714(19) 0.2533(2)
C26_2 C 0.4490(4) 0.0128(3) 0.3337(5)
H30_2 H 0.4840 0.0259 0.3966
C27_2 C 0.4121(3) 0.0885(3) 0.2813(3)
O5_2 O 0.3073(3) 0.7716(2) 0.3014(3)
O6_2 O 0.2678(3) 0.8316(3) 0.4015(3)
O10_2 O 0.2259(3) 0.6466(2) 0.4404(2)
H3_2 H 0.235(3) 0.662(3) 0.4952(19)
H4_2 H 0.170(2) 0.619(2) 0.4238(18)
N2_2 N 0.0803(3) 0.7854(2) 0.1745(3)
N3_2 N 0.0246(3) 0.8477(2) 0.0461(2)
H8_2 H 0.1547 0.9360 0.0187
C15_2 C 0.1047(3) 0.8264(3) 0.1182(3)
H16_2 H 0.1682 0.8394 0.1262
C23_2 C 0.3229(4) 0.8232(3) 0.3609(3)
C24_2 C 0.4078(4) 0.8803(3) 0.3776(4)
H25_2 H 0.4389 0.8917 0.4414
H26_2 H 0.4557 0.8566 0.3581
C25_2 C 0.3706(4) 0.9548(3) 0.3267(4)
H27_2 H 0.3253 0.9792 0.3490
H28_2 H 0.3352 0.9421 0.2638
H29_2 H 0.4947 0.9881 0.3121
N8 N 0.0573(3) 0.7762(2) 0.3695(2)
C3_2 C 0.0852(4) 0.9866(3) 0.8961(3)
C4_2 C 0.0954(4) 0.9388(3) 0.9700(3)
C5_2 C 0.0173(3) 0.8962(3) 0.9698(3)
C9_2 C 0.0687(4) 0.9407(3) 0.6738(3)
H11_2 H 0.1228 0.9440 0.7275
C10_2 C 0.0726(3) 0.8913(3) 0.6064(3)
H12_2 H 0.1276 0.8613 0.6147
C17_2 C 0.0784(3) 0.8206(3) 0.4408(3)
H18_2 H 0.1407 0.8374 0.4767
C22_2 C 0.6818(4) 0.0189(3) 0.2678(4)
O1_2 O 0.7610(3) 0.7872(3) 0.1004(3)
O2_2 O 0.7389(3) 0.7540(2) 0.2200(3)
O3_2 O 0.6932(3) 0.9978(2) 0.3457(3)
O9_2 O 0.8256(5) 0.6229(3) 0.0727(3)
H1_2 H 0.9000(19) 0.604(3) 0.097(2)
H2_2 H 0.822(4) 0.634(5) 0.020(2)
N1_2 N 0.9813(3) 0.7789(2) 0.1396(3)
C14_2 C 0.9494(4) 0.8167(3) 0.0634(3)
H15_2 H 0.8842 0.8217 0.0260
C18_2 C 0.7120(3) 0.7896(3) 0.1469(3)
C19_2 C 0.6171(4) 0.8337(3) 0.1141(3)
H19_2 H 0.5642 0.7966 0.1025
H20_2 H 0.6083 0.8596 0.0578
C20_2 C 0.6119(4) 0.8957(3) 0.1817(4)
H21_2 H 0.5493 0.9221 0.1569
H22_2 H 0.6163 0.8695 0.2366
C21_2 C 0.6917(4) 0.9565(3) 0.2040(4)
H23_2 H 0.6892 0.9816 0.1490
H24_2 H 0.7543 0.9308 0.2315
N7 N 0.9571(3) 0.7641(2) 0.3346(2)
N6_2 N 0.9964(3) 0.8386(2) 0.4552(2)
C2_2 C 0.9980(4) 0.9892(3) 0.8225(3)
C6_2 C 0.9301(4) 0.8990(3) 0.8969(3)
H9_2 H 0.8776 0.8692 0.8966
C7_2 C 0.9207(4) 0.9462(3) 0.8240(3)
H10_2 H 0.8613 0.9489 0.7755
C8_2 C 0.9881(3) 0.9847(3) 0.6638(3)
C11_2 C 0.9914(3) 0.8881(3) 0.5259(3)
C12_2 C 0.9099(3) 0.9321(3) 0.5132(3)
H13_2 H 0.8565 0.9304 0.4589
C13_2 C 0.9087(3) 0.9793(3) 0.5832(3)
C16_2 C 0.9227(3) 0.8026(3) 0.3869(3)
H17_2 H 0.8573 0.8050 0.3786
H5_2 H 0.0385 0.0751 0.7549
H7_2 H 0.1374 0.0168 0.8966
C1_2 C 0.9864(4) 0.0369(3) 0.7400(3)
H6_2 H 0.9252 0.0653 0.7204
H14_2 H 0.8530 0.0082 0.5756
Cd4 Cd 0.11809(2) 0.303976(18) 0.801272(19)
Cd1 Cd 0.38191(2) 0.803976(18) 0.698728(19)
Cd2 Cd 0.66642(2) 0.777049(19) 0.81269(2)
O1_3 O 0.2610(3) 0.7128(3) 0.6004(3)
O2_3 O 0.2389(3) 0.7460(2) 0.7200(3)
O3_3 O 0.1932(3) 0.5022(2) 0.8457(3)
O4_2 O 0.1630(3) 0.4108(2) 0.7383(2)
O5_3 O 0.8073(3) 0.7284(2) 0.8014(3)
O6_3 O 0.7678(3) 0.6684(3) 0.9015(3)
O7_2 O 0.8270(2) 0.3892(2) 0.7653(2)
O8_2 O 0.9671(2) 0.37286(19) 0.7533(2)
O9_3 O 0.3256(5) 0.8771(3) 0.5727(3)
H1_3 H 0.4000(19) 0.896(3) 0.597(2)
H2_3 H 0.322(4) 0.866(5) 0.520(2)
O10_3 O 0.7259(3) 0.8534(2) 0.9404(2)
H3_3 H 0.735(3) 0.838(3) 0.9952(19)
H4_3 H 0.670(2) 0.881(2) 0.9238(18)
N1_3 N 0.4813(3) 0.7211(2) 0.6396(3)
N2_3 N 0.5803(3) 0.7146(2) 0.6745(3)
N3_3 N 0.5246(3) 0.6523(2) 0.5461(2)
C1_3 C 0.4864(4) 0.4631(3) 0.2400(3)
H5_3 H 0.5385 0.4249 0.2549
H6_3 H 0.4252 0.4347 0.2204
C2_3 C 0.4980(4) 0.5108(3) 0.3225(3)
C3_3 C 0.5852(4) 0.5134(3) 0.3961(3)
H7_3 H 0.6374 0.4832 0.3966
C4_3 C 0.5954(4) 0.5612(3) 0.4700(3)
H8_3 H 0.6547 0.5640 0.5187
C5_3 C 0.5173(3) 0.6038(3) 0.4698(3)
C6_3 C 0.4301(4) 0.6010(3) 0.3969(3)
H9_3 H 0.3776 0.6308 0.3966
C7_3 C 0.4207(4) 0.5538(3) 0.3240(3)
H10_3 H 0.3613 0.5511 0.2755
C8_3 C 0.4881(3) 0.5153(3) 0.1638(3)
C9_3 C 0.5687(4) 0.5593(3) 0.1738(3)
H11_3 H 0.6228 0.5560 0.2275
C10_3 C 0.5726(3) 0.6087(3) 0.1064(3)
H12_3 H 0.6276 0.6387 0.1147
C11_3 C 0.4914(3) 0.6119(3) 0.0259(3)
C12_3 C 0.4099(3) 0.5679(3) 0.0132(3)
C13_3 C 0.4087(3) 0.5207(3) 0.0832(3)
H14_3 H 0.3530 0.4918 0.0756
C14_3 C 0.4494(4) 0.6833(3) 0.5634(3)
H15_3 H 0.3842 0.6783 0.5260
C15_3 C 0.6047(3) 0.6736(3) 0.6182(3)
H16_3 H 0.6682 0.6606 0.6262
C18_3 C 0.2120(3) 0.7104(3) 0.6469(3)
C19_3 C 0.1171(4) 0.6663(3) 0.6141(3)
H19_3 H 0.0642 0.7034 0.6025
H20_3 H 0.1083 0.6404 0.5578
C20_3 C 0.1119(4) 0.6043(3) 0.6817(4)
H21_3 H 0.0493 0.5779 0.6569
H22_3 H 0.1163 0.6305 0.7366
C21_3 C 0.1917(4) 0.5435(3) 0.7040(4)
H23_3 H 0.1892 0.5184 0.6490
H24_3 H 0.2543 0.5692 0.7315
C22_3 C 0.1818(4) 0.4811(3) 0.7678(4)
C23_3 C 0.8229(4) 0.6768(3) 0.8609(3)
C24_3 C 0.9078(4) 0.6197(3) 0.8776(4)
H25_3 H 0.9389 0.6083 0.9414
H26_3 H 0.9557 0.6434 0.8581
C25_3 C 0.8706(4) 0.5452(3) 0.8267(4)
H27_3 H 0.8253 0.5208 0.8490
H28_3 H 0.8352 0.5579 0.7638
C26_3 C 0.9490(4) 0.4872(3) 0.8337(5)
H29_3 H 0.9947 0.5119 0.8121
H30_3 H 0.9840 0.4741 0.8966
C27_3 C 0.9121(3) 0.4115(3) 0.7813(3)
Cd7_2 Cd 0.83358(2) 0.277049(19) 0.68731(2)
O11_2 O 0.3370(3) 0.9108(2) 0.7617(2)
O12_2 O 0.6730(2) 0.8892(2) 0.7347(2)
O13_2 O 0.5329(2) 0.87286(19) 0.7467(2)
N7_2 N 0.4571(3) 0.7359(2) 0.8346(2)
N8_2 N 0.5573(3) 0.7238(2) 0.8695(2)
N6_3 N 0.4964(3) 0.6614(2) 0.9552(2)
H13_3 H 0.3565 0.5696 0.9589
C16_3 C 0.4227(3) 0.6974(3) 0.8869(3)
H17_3 H 0.3573 0.6950 0.8786
C17_3 C 0.5784(3) 0.6794(3) 0.9408(3)
H18_3 H 0.6407 0.6626 0.9767
N4_2 N 0.0429(3) 0.2359(2) 0.6654(2)
N6_4 N 0.0036(3) 0.1614(2) 0.5448(2)
C2_4 C 0.0020(4) 0.0108(3) 0.1775(3)
C6_4 C 0.0699(4) 0.1010(3) 0.1031(3)
H9_4 H 0.1224 0.1308 0.1034
C7_4 C 0.0793(4) 0.0538(3) 0.1760(3)
H10_4 H 0.1387 0.0511 0.2245
C8_4 C 0.0119(3) 0.0153(3) 0.3362(3)
C11_4 C 0.0086(3) 0.1119(3) 0.4741(3)
C12_4 C 0.0901(3) 0.0679(3) 0.4868(3)
H13_4 H 0.1435 0.0696 0.5411
C13_4 C 0.0913(3) 0.0207(3) 0.4168(3)
C16_4 C 0.0773(3) 0.1974(3) 0.6131(3)
H17_4 H 0.1427 0.1950 0.6214
O1_4 O 0.2390(3) 0.2128(3) 0.8996(3)
O2_4 O 0.2611(3) 0.2460(2) 0.7800(3)
O3_4 O 0.3068(3) 0.0022(2) 0.6543(3)
O9_4 O 0.1744(5) 0.3771(3) 0.9273(3)
H1_4 H 0.1000(19) 0.396(3) 0.903(2)
H2_4 H 0.178(4) 0.366(5) 0.980(2)
N1_4 N 0.0187(3) 0.2211(2) 0.8604(3)
C14_4 C 0.0506(4) 0.1833(3) 0.9366(3)
H15_4 H 0.1158 0.1783 0.9740
C18_4 C 0.2880(3) 0.2104(3) 0.8531(3)
C19_4 C 0.3829(4) 0.1663(3) 0.8859(3)
H19_4 H 0.4358 0.2034 0.8975
H20_4 H 0.3917 0.1404 0.9422
C20_4 C 0.3881(4) 0.1043(3) 0.8183(4)
H21_4 H 0.4507 0.0779 0.8431
H22_4 H 0.3837 0.1305 0.7634
C21_4 C 0.3083(4) 0.0435(3) 0.7960(4)
H23_4 H 0.3108 0.0184 0.8510
H24_4 H 0.2457 0.0692 0.7685
C22_4 C 0.3182(4) 0.9811(3) 0.7322(4)
N5_2 N 0.9427(3) 0.2238(2) 0.6305(2)
C3_4 C 0.9148(4) 0.0134(3) 0.1039(3)
C4_4 C 0.9046(4) 0.0612(3) 0.0300(3)
C5_4 C 0.9827(3) 0.1038(3) 0.0302(3)
C9_4 C 0.9313(4) 0.0593(3) 0.3262(3)
H11_4 H 0.8772 0.0560 0.2725
C10_4 C 0.9274(3) 0.1087(3) 0.3936(3)
H12_4 H 0.8724 0.1387 0.3853
C17_4 C 0.9216(3) 0.1794(3) 0.5592(3)
H18_4 H 0.8593 0.1626 0.5233
O5_4 O 0.6927(3) 0.2284(2) 0.6986(3)
O6_4 O 0.7322(3) 0.1684(3) 0.5985(3)
O10_4 O 0.7741(3) 0.3534(2) 0.5596(2)
H3_4 H 0.765(3) 0.338(3) 0.5048(19)
H4_4 H 0.830(2) 0.381(2) 0.5762(18)
N2_4 N 0.9197(3) 0.2146(2) 0.8255(3)
N3_4 N 0.9754(3) 0.1523(2) 0.9539(2)
H8_4 H 0.8453 0.0640 0.9813
C15_4 C 0.8953(3) 0.1736(3) 0.8818(3)
H16_4 H 0.8318 0.1606 0.8738
C23_4 C 0.6771(4) 0.1768(3) 0.6391(3)
C24_4 C 0.5922(4) 0.1197(3) 0.6224(4)
H25_4 H 0.5611 0.1083 0.5586
H26_4 H 0.5443 0.1434 0.6419
C25_4 C 0.6294(4) 0.0452(3) 0.6733(4)
H27_4 H 0.6747 0.0208 0.6510
H28_4 H 0.6648 0.0579 0.7362
H29_4 H 0.5053 0.0119 0.6879
C26_4 C 0.5510(4) 0.9872(3) 0.6663(5)
H30_4 H 0.5160 0.9741 0.6034
C27_4 C 0.5879(3) 0.9115(3) 0.7187(3)
C1_4 C 0.0136(4) 0.9631(3) 0.2600(3)
H6_4 H 0.0748 0.9347 0.2796
H14_4 H 0.1470 0.9918 0.4244
H5_4 H 0.9615 0.9249 0.2451
H7_4 H 0.8626 0.9832 0.1034
loop_
_geom_bond_atom_site_label_1
_geom_bond_atom_site_label_2
_geom_bond_site_symmetry_1
_geom_bond_site_symmetry_2
N4 N5 1_555 1_555
N5 C17 1_555 1_555
C16 N4 1_555 1_555
H17 C16 1_555 1_555
C17 N6 1_555 1_555
H18 C17 1_555 1_555
Cd3 N4 1_555 1_555
Cd6 N5 1_555 1_555
N6 C16 1_555 1_555
Cd3 O1 1_555 1_555
Cd6 O5 1_555 1_555
O1 C18 1_555 1_555
O2 Cd3 1_555 1_555
O3 C22 1_555 1_555
O4 C22 1_555 1_555
O5 C23 1_555 1_555
O6 Cd6 1_555 1_555
O7 C27 1_555 1_555
O8 C27 1_555 1_555
O9 Cd3 1_555 1_555
H1 O9 1_555 1_555
H2 O9 1_555 1_555
O10 Cd6 1_555 1_555
H3 O10 1_555 1_555
H4 O10 1_555 1_555
N1 Cd3 1_555 1_555
N2 Cd6 1_555 1_555
N3 C5 1_555 1_555
C1 H5 1_555 1_555
H6 C1 1_555 1_555
C2 C1 1_555 1_555
C3 C2 1_555 1_555
H7 C3 1_555 1_555
C4 C3 1_555 1_555
H8 C4 1_555 1_555
C5 C4 1_555 1_555
C6 C5 1_555 1_555
H9 C6 1_555 1_555
C7 C2 1_555 1_555
H10 C7 1_555 1_555
C8 C1 1_555 1_555
C9 C8 1_555 1_555
H11 C9 1_555 1_555
C10 C9 1_555 1_555
H12 C10 1_555 1_555
C11 C10 1_555 1_555
C12 C11 1_555 1_555
C13 C8 1_555 1_555
H14 C13 1_555 1_555
C14 N1 1_555 1_555
H15 C14 1_555 1_555
C15 N2 1_555 1_555
H16 C15 1_555 1_555
C18 O2 1_555 1_555
C19 C18 1_555 1_555
H19 C19 1_555 1_555
H20 C19 1_555 1_555
C20 C19 1_555 1_555
H21 C20 1_555 1_555
H22 C20 1_555 1_555
C21 C20 1_555 1_555
H23 C21 1_555 1_555
H24 C21 1_555 1_555
C22 C21 1_555 1_555
C23 O6 1_555 1_555
C24 C23 1_555 1_555
H25 C24 1_555 1_555
H26 C24 1_555 1_555
C25 C24 1_555 1_555
H27 C25 1_555 1_555
H28 C25 1_555 1_555
C26 C25 1_555 1_555
H29 C26 1_555 1_555
H30 C26 1_555 1_555
C27 C26 1_555 1_555
Cd5 O4 1_555 1_555
Cd7 O7 1_555 1_555
O11 Cd3 1_555 1_555
O12 Cd6 1_555 1_555
O13 Cd3 1_555 1_555
Cd6 O13 1_555 1_555
O8 Cd7 1_555 1_555
N1 N2 1_555 1_555
N3 C14 1_555 1_555
N3 C15 1_555 1_555
C6 C7 1_555 1_555
C12 C13 1_555 1_555
O12 C27_2 1_555 1_555
O13 C27_2 1_555 1_555
H30_2 C26_2 1_555 1_555
C27_2 C26_2 1_555 1_555
Cd7 O5_2 1_555 1_555
O5_2 C23_2 1_555 1_555
O6_2 Cd7 1_555 1_555
O10_2 Cd7 1_555 1_555
H3_2 O10_2 1_555 1_555
H4_2 O10_2 1_555 1_555
N2_2 Cd7 1_555 1_555
C15_2 N2_2 1_555 1_555
H16_2 C15_2 1_555 1_555
C23_2 O6_2 1_555 1_555
C24_2 C23_2 1_555 1_555
H25_2 C24_2 1_555 1_555
H26_2 C24_2 1_555 1_555
C25_2 C24_2 1_555 1_555
H27_2 C25_2 1_555 1_555
H28_2 C25_2 1_555 1_555
N8 Cd7 1_555 1_555
N3_2 C15_2 1_555 1_555
N8 C17_2 1_555 1_555
C4_2 C3_2 1_555 1_555
C5_2 C4_2 1_555 1_555
H11_2 C9_2 1_555 1_555
C10_2 C9_2 1_555 1_555
H12_2 C10_2 1_555 1_555
H18_2 C17_2 1_555 1_555
O11 C22_2 1_555 1_555
Cd5 O1_2 1_555 1_555
O1_2 C18_2 1_555 1_555
O2_2 Cd5 1_555 1_555
O9_2 Cd5 1_555 1_555
H1_2 O9_2 1_555 1_555
H2_2 O9_2 1_555 1_555
N1_2 Cd5 1_555 1_555
C14_2 N1_2 1_555 1_555
H15_2 C14_2 1_555 1_555
C18_2 O2_2 1_555 1_555
C19_2 C18_2 1_555 1_555
H19_2 C19_2 1_555 1_555
H20_2 C19_2 1_555 1_555
C20_2 C19_2 1_555 1_555
H21_2 C20_2 1_555 1_555
H22_2 C20_2 1_555 1_555
C21_2 C20_2 1_555 1_555
H23_2 C21_2 1_555 1_555
H24_2 C21_2 1_555 1_555
N7 Cd5 1_555 1_555
N6_2 C11_2 1_555 1_555
H9_2 C6_2 1_555 1_555
C7_2 C2_2 1_555 1_555
H10_2 C7_2 1_555 1_555
C12_2 C11_2 1_555 1_555
H13_2 C12_2 1_555 1_555
C13_2 C8_2 1_555 1_555
C16_2 N7 1_555 1_555
H17_2 C16_2 1_555 1_555
N6_2 C16_2 1_555 1_555
C6_2 C7_2 1_555 1_555
C12_2 C13_2 1_555 1_555
H6_2 C1_2 1_555 1_555
Cd1 O1_3 1_555 1_555
Cd2 O5_3 1_555 1_555
O1_3 C18_3 1_555 1_555
O2_3 Cd1 1_555 1_555
O3_3 C22_3 1_555 1_555
O4_2 C22_3 1_555 1_555
O5_3 C23_3 1_555 1_555
O6_3 Cd2 1_555 1_555
O7_2 C27_3 1_555 1_555
O8_2 C27_3 1_555 1_555
O9_3 Cd1 1_555 1_555
H1_3 O9_3 1_555 1_555
H2_3 O9_3 1_555 1_555
O10_3 Cd2 1_555 1_555
H3_3 O10_3 1_555 1_555
H4_3 O10_3 1_555 1_555
N1_3 Cd1 1_555 1_555
N2_3 Cd2 1_555 1_555
N3_3 C5_3 1_555 1_555
C1_3 H5_3 1_555 1_555
H6_3 C1_3 1_555 1_555
C2_3 C1_3 1_555 1_555
C3_3 C2_3 1_555 1_555
H7_3 C3_3 1_555 1_555
C4_3 C3_3 1_555 1_555
H8_3 C4_3 1_555 1_555
C5_3 C4_3 1_555 1_555
C6_3 C5_3 1_555 1_555
H9_3 C6_3 1_555 1_555
C7_3 C2_3 1_555 1_555
H10_3 C7_3 1_555 1_555
C8_3 C1_3 1_555 1_555
C9_3 C8_3 1_555 1_555
H11_3 C9_3 1_555 1_555
C10_3 C9_3 1_555 1_555
H12_3 C10_3 1_555 1_555
C11_3 C10_3 1_555 1_555
C12_3 C11_3 1_555 1_555
C13_3 C8_3 1_555 1_555
H14_3 C13_3 1_555 1_555
C14_3 N1_3 1_555 1_555
H15_3 C14_3 1_555 1_555
C15_3 N2_3 1_555 1_555
H16_3 C15_3 1_555 1_555
C18_3 O2_3 1_555 1_555
C19_3 C18_3 1_555 1_555
H19_3 C19_3 1_555 1_555
H20_3 C19_3 1_555 1_555
C20_3 C19_3 1_555 1_555
H21_3 C20_3 1_555 1_555
H22_3 C20_3 1_555 1_555
C21_3 C20_3 1_555 1_555
H23_3 C21_3 1_555 1_555
H24_3 C21_3 1_555 1_555
C22_3 C21_3 1_555 1_555
C23_3 O6_3 1_555 1_555
C24_3 C23_3 1_555 1_555
H25_3 C24_3 1_555 1_555
H26_3 C24_3 1_555 1_555
C25_3 C24_3 1_555 1_555
H27_3 C25_3 1_555 1_555
H28_3 C25_3 1_555 1_555
C26_3 C25_3 1_555 1_555
H29_3 C26_3 1_555 1_555
H30_3 C26_3 1_555 1_555
C27_3 C26_3 1_555 1_555
Cd4 O4_2 1_555 1_555
Cd7_2 O7_2 1_555 1_555
O11_2 Cd1 1_555 1_555
O12_2 Cd2 1_555 1_555
O13_2 Cd1 1_555 1_555
N7_2 Cd1 1_555 1_555
N8_2 Cd2 1_555 1_555
Cd2 O13_2 1_555 1_555
O8_2 Cd7_2 1_555 1_555
N1_3 N2_3 1_555 1_555
N3_3 C14_3 1_555 1_555
N3_3 C15_3 1_555 1_555
C6_3 C7_3 1_555 1_555
C12_3 C13_3 1_555 1_555
N7_2 N8_2 1_555 1_555
N8_2 C17_3 1_555 1_555
C16_3 N7_2 1_555 1_555
H17_3 C16_3 1_555 1_555
C17_3 N6_3 1_555 1_555
H18_3 C17_3 1_555 1_555
N6_3 C16_3 1_555 1_555
N6_4 C11_4 1_555 1_555
H9_4 C6_4 1_555 1_555
C7_4 C2_4 1_555 1_555
H10_4 C7_4 1_555 1_555
C12_4 C11_4 1_555 1_555
H13_4 C12_4 1_555 1_555
C13_4 C8_4 1_555 1_555
C16_4 N4_2 1_555 1_555
H17_4 C16_4 1_555 1_555
Cd4 N4_2 1_555 1_555
N6_4 C16_4 1_555 1_555
C6_4 C7_4 1_555 1_555
C12_4 C13_4 1_555 1_555
Cd4 O1_4 1_555 1_555
O1_4 C18_4 1_555 1_555
O2_4 Cd4 1_555 1_555
O9_4 Cd4 1_555 1_555
H1_4 O9_4 1_555 1_555
H2_4 O9_4 1_555 1_555
N1_4 Cd4 1_555 1_555
C14_4 N1_4 1_555 1_555
H15_4 C14_4 1_555 1_555
C18_4 O2_4 1_555 1_555
C19_4 C18_4 1_555 1_555
H19_4 C19_4 1_555 1_555
H20_4 C19_4 1_555 1_555
C20_4 C19_4 1_555 1_555
H21_4 C20_4 1_555 1_555
H22_4 C20_4 1_555 1_555
C21_4 C20_4 1_555 1_555
H23_4 C21_4 1_555 1_555
H24_4 C21_4 1_555 1_555
O11_2 C22_4 1_555 1_555
N5_2 C17_4 1_555 1_555
C4_4 C3_4 1_555 1_555
C5_4 C4_4 1_555 1_555
H11_4 C9_4 1_555 1_555
C10_4 C9_4 1_555 1_555
H12_4 C10_4 1_555 1_555
H18_4 C17_4 1_555 1_555
Cd7_2 N5_2 1_555 1_555
Cd7_2 O5_4 1_555 1_555
O5_4 C23_4 1_555 1_555
O6_4 Cd7_2 1_555 1_555
O10_4 Cd7_2 1_555 1_555
H3_4 O10_4 1_555 1_555
H4_4 O10_4 1_555 1_555
N2_4 Cd7_2 1_555 1_555
C15_4 N2_4 1_555 1_555
H16_4 C15_4 1_555 1_555
C23_4 O6_4 1_555 1_555
C24_4 C23_4 1_555 1_555
H25_4 C24_4 1_555 1_555
H26_4 C24_4 1_555 1_555
C25_4 C24_4 1_555 1_555
H27_4 C25_4 1_555 1_555
H28_4 C25_4 1_555 1_555
N3_4 C15_4 1_555 1_555
O12_2 C27_4 1_555 1_555
O13_2 C27_4 1_555 1_555
H30_4 C26_4 1_555 1_555
C27_4 C26_4 1_555 1_555
H6_4 C1_4 1_555 1_555

#END
