
###############################################################################
#
# This file contains modified crystal structure data generated from the
# MOF subset of the Cambridge Structural Database (CSD) v543 
# hosted by the Cambridge Crystallographic Data Centre (CCDC).
#
# This work is licensed under the Creative Commons
# Attribution-NonCommercial-ShareAlike 4.0 International License.
# To view a copy of this license, visit
# http://creativecommons.org/licenses/by-nc-sa/4.0/
# or send a letter to
# Creative Commons, PO Box 1866, Mountain View, CA 94042, USA.
#
# CIF created using the CSD Python API on 29 September 2022
# The structure has been converted into the P1 space group
# The structure has a 3D framework
# The original CSD entry PAFPOF is in the triclinic crystal system
# The framework has been calculated to contain at least 10.0% void space
# The void calculation uses a probe of radius 1.32A, grid spacing 0.4
# H atom positions have been added when not included in the experimental data
#
###############################################################################

data_PAFPOF
_chemical_formula_moiety         '(C86 H78 Cd4 N6 O26)n'
_symmetry_cell_setting           triclinic
_symmetry_space_group_name_H-M   'P 1'
_symmetry_Int_Tables_number      1
_space_group_name_Hall           'P 1'
loop_
_symmetry_equiv_pos_site_id
_symmetry_equiv_pos_as_xyz
1 x,y,z
_cell_length_a                   14.5356(14)
_cell_length_b                   15.8989(16)
_cell_length_c                   17.2554(19)
_cell_angle_alpha                112.547(4)
_cell_angle_beta                 111.545(9)
_cell_angle_gamma                95.787(8)
_cell_volume                     3287.27
loop_
_atom_site_label
_atom_site_type_symbol
_atom_site_fract_x
_atom_site_fract_y
_atom_site_fract_z
C9 C 0.7014(4) 0.2404(4) 0.0075(3)
O2 O 0.7821(3) 0.2918(3) 0.0160(3)
O3 O 0.6494(3) 0.2751(3) 0.0470(3)
Cd5 Cd 0.76231(3) 0.42209(3) 0.11116(3)
O9 O 0.7803(3) 0.5166(3) 0.0485(3)
Cd7 Cd 0.82943(3) 0.66152(3) 0.18644(3)
C1 C 0.5348(4) 0.7089(3) 0.6387(3)
C2 C 0.5468(4) 0.8523(4) 0.7560(4)
H1 H 0.5095 0.8144 0.7703
C3 C 0.5836(4) 0.9447(4) 0.8076(4)
H2 H 0.6856 0.9802 0.7637
C8 C 0.5476(5) 0.9793(4) 0.8743(4)
H5 H 0.4968 0.9393 0.8749
C10 C 0.3812(4) 0.6121(4) 0.5076(4)
H6 H 0.4223 0.5770 0.4869
C11 C 0.2860(4) 0.6009(4) 0.4488(4)
C12 C 0.2326(4) 0.6690(5) 0.4601(5)
H7 H 0.2641 0.7282 0.5121
C13 C 0.1325(4) 0.6491(4) 0.3940(5)
H8 H 0.0977 0.6955 0.4019
C14 C 0.0837(5) 0.5608(4) 0.3165(4)
C15 C 0.1379(4) 0.4921(4) 0.3058(4)
H9 H 0.1064 0.4324 0.2544
C16 C 0.2371(4) 0.5125(4) 0.3708(4)
H10 H 0.2722 0.4664 0.3627
C18 C 0.6290(4) 0.6555(4) 0.7527(4)
H11 H 0.6874 0.6836 0.7514
C19 C 0.6346(4) 0.6158(4) 0.8033(4)
C20 C 0.7396(4) 0.6231(3) 0.8623(4)
H12 H 0.7956 0.6547 0.8604
C21 C 0.7530(4) 0.5815(4) 0.9211(3)
H13 H 0.8197 0.5870 0.9610
C22 C 0.6719(4) 0.5325(3) 0.9227(4)
C23 C 0.5725(4) 0.5228(4) 0.8686(4)
H14 H 0.5186 0.4913 0.8731
C24 C 0.5527(4) 0.5625(4) 0.8042(4)
H15 H 0.4853 0.5528 0.7629
C25 C 0.6925(4) 0.4921(4) 0.9862(4)
C26 C 0.5919(4) 0.7061(4) 0.5359(4)
H16 H 0.5768 0.7641 0.5505
C27 C 0.6242(4) 0.6648(4) 0.4634(4)
C28 C 0.6325(4) 0.5742(4) 0.4382(4)
H17 H 0.6150 0.5395 0.4661
C29 C 0.6669(4) 0.5342(4) 0.3711(4)
H18 H 0.6743 0.4732 0.3554
C30 C 0.6902(4) 0.5841(4) 0.3274(4)
C31 C 0.6812(4) 0.6748(4) 0.3540(3)
H19 H 0.6983 0.7093 0.3258
C32 C 0.6477(3) 0.7169(4) 0.4209(3)
H20 H 0.6411 0.7781 0.4371
C33 C 0.7173(4) 0.5401(4) 0.2465(4)
C42 C 0.1042(4) 0.5793(4) 0.0426(4)
H27 H 0.1778 0.6009 0.0779
H29 H 0.0765 0.5325 0.0566
C43 C 0.0625(5) 0.7505(4) 0.0544(4)
H30 H 0.1064 0.7520 0.0245
H31 H 0.0892 0.8068 0.1130
N3 N 0.0583(3) 0.6654(3) 0.0693(3)
O1 O 0.5666(3) 0.8151(2) 0.6797(2)
O4 O 0.4204(3) 0.6815(2) 0.6065(3)
O7 O 0.5258(3) 0.6559(2) 0.6951(3)
O8 O 0.6257(3) 0.4339(3) 0.9786(3)
O10 O 0.5849(3) 0.6517(2) 0.5829(3)
O11 O 0.7391(3) 0.4628(3) 0.2314(3)
O12 O 0.7074(3) 0.5886(3) 0.2016(3)
O13 O 0.0061(3) 0.7357(2) 0.1908(2)
H36 H 0.617953 0.843031 0.798513
H37 H 0.352225 0.556918 0.522295
H38 H 0.637408 0.72236 0.809144
H39 H 0.672028 0.742454 0.586836
C17 C 0.9786(4) 0.5528(4) 0.2602(4)
C34 C 0.7172(4) 0.7670(4) 0.0747(4)
C35 C 0.8034(4) 0.8222(3) 0.0824(3)
H21 H 0.8690 0.8231 0.1196
C36 C 0.7911(4) 0.8767(4) 0.0337(4)
H22 H 0.8486 0.9140 0.0387
C39 C 0.6181(4) 0.7656(4) 0.0189(4)
C40 C 0.6069(4) 0.6748(4) 0.0858(4)
H25 H 0.5769 0.6320 0.1002
C41 C 0.9952(4) 0.6691(4) 0.1183(4)
H26 H 0.9408 0.6154 0.0922
H32 H 0.9943 0.7475 0.0149
N1 N 0.7076(3) 0.7069(3) 0.1160(3)
N2 N 0.5531(3) 0.7129(3) 0.0309(3)
O5 O 0.9300(3) 0.4611(3) 0.1933(2)
O6 O 0.9354(3) 0.6100(3) 0.2684(2)
O14 O 0.8962(2) 0.8028(2) 0.3232(2)
H33 H 0.9403 0.8345 0.3069
H34 H 0.9255 0.7757 0.3644
H35 H 0.475633 0.702473 0.00364467
C37 C 0.6930(4) 0.8746(4) 0.9783(4)
H23 H 0.6847 0.9105 0.9458
C38 C 0.6076(4) 0.8196(4) 0.9709(4)
H24 H 0.5421 0.8187 0.9332
C4 C 0.6609(4) 0.0038(4) 0.8081(4)
C5 C 0.7012(4) 0.0978(4) 0.8746(4)
H3 H 0.7530 0.1375 0.8749
C6 C 0.6648(4) 0.1326(4) 0.9404(4)
C7 C 0.5880(4) 0.0743(4) 0.9403(4)
H4 H 0.5630 0.0985 0.9844
H28 H 0.0863 0.5519 0.9770
C37_2 C 0.3070(4) 0.1254(4) 0.0217(4)
H23_2 H 0.3153 0.0895 0.0542
C38_2 C 0.3924(4) 0.1804(4) 0.0291(4)
H24_2 H 0.4579 0.1813 0.0668
O17 O 0.3743(3) 0.5661(3) 0.0214(3)
C17_2 C 0.0214(4) 0.4472(4) 0.7398(4)
C34_2 C 0.2828(4) 0.2330(4) 0.9253(4)
C35_2 C 0.1966(4) 0.1778(3) 0.9176(3)
H21_2 H 0.1310 0.1769 0.8804
C36_2 C 0.2089(4) 0.1233(4) 0.9663(4)
H22_2 H 0.1514 0.0860 0.9613
C39_2 C 0.3819(4) 0.2344(4) 0.9811(4)
C40_2 C 0.3931(4) 0.3252(4) 0.9142(4)
H25_2 H 0.4231 0.3680 0.8998
C41_2 C 0.0048(4) 0.3309(4) 0.8817(4)
H26_2 H 0.0592 0.3846 0.9078
H32_2 H 0.0057 0.2525 0.9851
Cd1 Cd 0.23769(3) 0.57791(3) 0.88884(3)
Cd2 Cd 0.17057(3) 0.33848(3) 0.81356(3)
N1_2 N 0.2924(3) 0.2931(3) 0.8840(3)
N2_2 N 0.4469(3) 0.2871(3) 0.9691(3)
O5_2 O 0.0700(3) 0.5389(3) 0.8067(2)
O6_2 O 0.0646(3) 0.3900(3) 0.7316(2)
O14_2 O 0.1038(2) 0.1972(2) 0.6768(2)
H33_2 H 0.0597 0.1655 0.6931
H34_2 H 0.0745 0.2243 0.6356
O15 O 0.2179(3) 0.7082(3) 0.9840(3)
O16 O 0.3506(3) 0.7249(3) 0.9530(3)
O18 O 0.2197(3) 0.4834(3) 0.9515(3)
O19 O 0.2609(3) 0.5372(3) 0.7686(3)
O20 O 0.2926(3) 0.4114(3) 0.7984(3)
H35_2 H 0.524367 0.297527 0.996355
C1_2 C 0.4652(4) 0.2911(3) 0.3613(3)
C2_2 C 0.4532(4) 0.1477(4) 0.2440(4)
H1_2 H 0.4905 0.1856 0.2297
C3_2 C 0.4164(4) 0.0553(4) 0.1924(4)
H2_2 H 0.3144 0.0198 0.2363
C8_2 C 0.4524(5) 0.0207(4) 0.1257(4)
H5_2 H 0.5032 0.0607 0.1251
C10_2 C 0.6188(4) 0.3879(4) 0.4924(4)
H6_2 H 0.5777 0.4230 0.5131
C11_2 C 0.7140(4) 0.3991(4) 0.5512(4)
C12_2 C 0.7674(4) 0.3310(5) 0.5399(5)
H7_2 H 0.7359 0.2718 0.4879
C13_2 C 0.8675(4) 0.3509(4) 0.6060(5)
H8_2 H 0.9023 0.3045 0.5981
C14_2 C 0.9163(5) 0.4392(4) 0.6835(4)
C15_2 C 0.8621(4) 0.5079(4) 0.6942(4)
H9_2 H 0.8936 0.5676 0.7456
C16_2 C 0.7629(4) 0.4875(4) 0.6292(4)
H10_2 H 0.7278 0.5336 0.6373
C18_2 C 0.3710(4) 0.3445(4) 0.2473(4)
H11_2 H 0.3126 0.3164 0.2486
C19_2 C 0.3654(4) 0.3842(4) 0.1967(4)
C20_2 C 0.2604(4) 0.3769(3) 0.1377(4)
H12_2 H 0.2044 0.3453 0.1396
C21_2 C 0.2470(4) 0.4185(4) 0.0789(3)
H13_2 H 0.1803 0.4130 0.0390
C22_2 C 0.3281(4) 0.4675(3) 0.0773(4)
C23_2 C 0.4275(4) 0.4772(4) 0.1314(4)
H14_2 H 0.4814 0.5087 0.1269
C24_2 C 0.4473(4) 0.4375(4) 0.1958(4)
H15_2 H 0.5147 0.4472 0.2371
C25_2 C 0.3075(4) 0.5079(4) 0.0138(4)
C26_2 C 0.4081(4) 0.2939(4) 0.4641(4)
H16_2 H 0.4232 0.2359 0.4495
C27_2 C 0.3758(4) 0.3352(4) 0.5366(4)
C28_2 C 0.3675(4) 0.4258(4) 0.5618(4)
H17_2 H 0.3850 0.4605 0.5339
C29_2 C 0.3331(4) 0.4658(4) 0.6289(4)
H18_2 H 0.3257 0.5268 0.6446
C30_2 C 0.3098(4) 0.4159(4) 0.6726(4)
C31_2 C 0.3188(4) 0.3252(4) 0.6460(3)
H19_2 H 0.3017 0.2907 0.6742
C32_2 C 0.3523(3) 0.2831(4) 0.5791(3)
H20_2 H 0.3589 0.2219 0.5629
C33_2 C 0.2827(4) 0.4599(4) 0.7535(4)
C42_2 C 0.8958(4) 0.4207(4) 0.9574(4)
H27_2 H 0.8222 0.3991 0.9221
H29_2 H 0.9235 0.4675 0.9434
C43_2 C 0.9375(5) 0.2495(4) 0.9456(4)
H30_2 H 0.8936 0.2480 0.9755
H31_2 H 0.9108 0.1932 0.8870
N3_2 N 0.9417(3) 0.3346(3) 0.9307(3)
O1_2 O 0.4334(3) 0.1849(2) 0.3203(2)
O4_2 O 0.5796(3) 0.3185(2) 0.3935(3)
O7_2 O 0.4742(3) 0.3441(2) 0.3049(3)
O10_2 O 0.4151(3) 0.3483(2) 0.4171(3)
O13_2 O 0.9939(3) 0.2643(2) 0.8092(2)
H36_2 H 0.382047 0.156969 0.201487
H37_2 H 0.647775 0.443082 0.477705
H38_2 H 0.362592 0.27764 0.190856
H39_2 H 0.327972 0.257546 0.413164
C9_2 C 0.2986(4) 0.7596(4) 0.9925(3)
H28_2 H 0.9137 0.4481 0.0230
C4_2 C 0.3391(4) 0.9962(4) 0.1919(4)
C5_2 C 0.2988(4) 0.9022(4) 0.1254(4)
H3_2 H 0.2470 0.8625 0.1251
C6_2 C 0.3352(4) 0.8674(4) 0.0596(4)
C7_2 C 0.4120(4) 0.9257(4) 0.0597(4)
H4_2 H 0.4370 0.9015 0.0156
loop_
_geom_bond_atom_site_label_1
_geom_bond_atom_site_label_2
_geom_bond_site_symmetry_1
_geom_bond_site_symmetry_2
O2 C9 1_555 1_555
O3 C9 1_555 1_555
Cd5 O2 1_555 1_555
O3 Cd5 1_555 1_555
Cd7 O9 1_555 1_555
O9 Cd5 1_555 1_555
C1 O1 1_555 1_555
C2 H1 1_555 1_555
C3 C2 1_555 1_555
C8 C3 1_555 1_555
H5 C8 1_555 1_555
C10 H6 1_555 1_555
C11 C10 1_555 1_555
C12 C11 1_555 1_555
H7 C12 1_555 1_555
C13 C12 1_555 1_555
H8 C13 1_555 1_555
C14 C13 1_555 1_555
C15 C14 1_555 1_555
H9 C15 1_555 1_555
C16 C11 1_555 1_555
H10 C16 1_555 1_555
C18 H11 1_555 1_555
C19 C18 1_555 1_555
C20 C19 1_555 1_555
H12 C20 1_555 1_555
C21 C20 1_555 1_555
H13 C21 1_555 1_555
C22 C21 1_555 1_555
C23 C22 1_555 1_555
H14 C23 1_555 1_555
C24 C19 1_555 1_555
H15 C24 1_555 1_555
C25 C22 1_555 1_555
C26 H16 1_555 1_555
C27 C26 1_555 1_555
C28 C27 1_555 1_555
H17 C28 1_555 1_555
C29 C28 1_555 1_555
H18 C29 1_555 1_555
C30 C29 1_555 1_555
C31 C30 1_555 1_555
H19 C31 1_555 1_555
C32 C27 1_555 1_555
H20 C32 1_555 1_555
C33 C30 1_555 1_555
C42 H27 1_555 1_555
H29 C42 1_555 1_555
C43 H30 1_555 1_555
H31 C43 1_555 1_555
O1 C2 1_555 1_555
O4 C1 1_555 1_555
O7 C1 1_555 1_555
O8 C25 1_555 1_555
O10 C1 1_555 1_555
O11 C33 1_555 1_555
O12 C33 1_555 1_555
Cd5 O11 1_555 1_555
Cd7 O12 1_555 1_555
C10 O4 1_555 1_555
C15 C16 1_555 1_555
C18 O7 1_555 1_555
C23 C24 1_555 1_555
C26 O10 1_555 1_555
C31 C32 1_555 1_555
C42 N3 1_555 1_555
C43 N3 1_555 1_555
C2 H36 1_555 1_555
C10 H37 1_555 1_555
C18 H38 1_555 1_555
C26 H39 1_555 1_555
C34 C35 1_555 1_555
C35 H21 1_555 1_555
C36 C35 1_555 1_555
H22 C36 1_555 1_555
C39 C34 1_555 1_555
C40 H25 1_555 1_555
C41 H26 1_555 1_555
Cd5 O5 1_555 1_555
Cd7 N1 1_555 1_555
N1 C34 1_555 1_555
N2 C39 1_555 1_555
O5 C17 1_555 1_555
O6 C17 1_555 1_555
O14 Cd7 1_555 1_555
H33 O14 1_555 1_555
H34 O14 1_555 1_555
C40 N1 1_555 1_555
C40 N2 1_555 1_555
Cd7 O6 1_555 1_555
N2 H35 1_555 1_555
H23 C37 1_555 1_555
C38 C37 1_555 1_555
H24 C38 1_555 1_555
C5 C4 1_555 1_555
H3 C5 1_555 1_555
C6 C5 1_555 1_555
C7 C6 1_555 1_555
H4 C7 1_555 1_555
H23_2 C37_2 1_555 1_555
C38_2 C37_2 1_555 1_555
H24_2 C38_2 1_555 1_555
C34_2 C35_2 1_555 1_555
C35_2 H21_2 1_555 1_555
C36_2 C35_2 1_555 1_555
H22_2 C36_2 1_555 1_555
C39_2 C34_2 1_555 1_555
C40_2 H25_2 1_555 1_555
C41_2 H26_2 1_555 1_555
Cd1 O5_2 1_555 1_555
Cd2 N1_2 1_555 1_555
N1_2 C34_2 1_555 1_555
N2_2 C39_2 1_555 1_555
O5_2 C17_2 1_555 1_555
O6_2 C17_2 1_555 1_555
O14_2 Cd2 1_555 1_555
H33_2 O14_2 1_555 1_555
H34_2 O14_2 1_555 1_555
O15 Cd1 1_555 1_555
O16 Cd1 1_555 1_555
O18 Cd1 1_555 1_555
O19 Cd1 1_555 1_555
O20 Cd2 1_555 1_555
C40_2 N1_2 1_555 1_555
C40_2 N2_2 1_555 1_555
Cd2 O6_2 1_555 1_555
Cd2 O18 1_555 1_555
N2_2 H35_2 1_555 1_555
C1_2 O1_2 1_555 1_555
C2_2 H1_2 1_555 1_555
C3_2 C2_2 1_555 1_555
C8_2 C3_2 1_555 1_555
H5_2 C8_2 1_555 1_555
C10_2 H6_2 1_555 1_555
C11_2 C10_2 1_555 1_555
C12_2 C11_2 1_555 1_555
H7_2 C12_2 1_555 1_555
C13_2 C12_2 1_555 1_555
H8_2 C13_2 1_555 1_555
C14_2 C13_2 1_555 1_555
C15_2 C14_2 1_555 1_555
H9_2 C15_2 1_555 1_555
C16_2 C11_2 1_555 1_555
H10_2 C16_2 1_555 1_555
C18_2 H11_2 1_555 1_555
C19_2 C18_2 1_555 1_555
C20_2 C19_2 1_555 1_555
H12_2 C20_2 1_555 1_555
C21_2 C20_2 1_555 1_555
H13_2 C21_2 1_555 1_555
C22_2 C21_2 1_555 1_555
C23_2 C22_2 1_555 1_555
H14_2 C23_2 1_555 1_555
C24_2 C19_2 1_555 1_555
H15_2 C24_2 1_555 1_555
C25_2 C22_2 1_555 1_555
C26_2 H16_2 1_555 1_555
C27_2 C26_2 1_555 1_555
C28_2 C27_2 1_555 1_555
H17_2 C28_2 1_555 1_555
C29_2 C28_2 1_555 1_555
H18_2 C29_2 1_555 1_555
C30_2 C29_2 1_555 1_555
C31_2 C30_2 1_555 1_555
H19_2 C31_2 1_555 1_555
C32_2 C27_2 1_555 1_555
H20_2 C32_2 1_555 1_555
C33_2 C30_2 1_555 1_555
C42_2 H27_2 1_555 1_555
H29_2 C42_2 1_555 1_555
C43_2 H30_2 1_555 1_555
H31_2 C43_2 1_555 1_555
O1_2 C2_2 1_555 1_555
O4_2 C1_2 1_555 1_555
O7_2 C1_2 1_555 1_555
O17 C25_2 1_555 1_555
O10_2 C1_2 1_555 1_555
O19 C33_2 1_555 1_555
O20 C33_2 1_555 1_555
C10_2 O4_2 1_555 1_555
C15_2 C16_2 1_555 1_555
C18_2 O7_2 1_555 1_555
C23_2 C24_2 1_555 1_555
C26_2 O10_2 1_555 1_555
C31_2 C32_2 1_555 1_555
C42_2 N3_2 1_555 1_555
C43_2 N3_2 1_555 1_555
C2_2 H36_2 1_555 1_555
C10_2 H37_2 1_555 1_555
C18_2 H38_2 1_555 1_555
C26_2 H39_2 1_555 1_555
O15 C9_2 1_555 1_555
O16 C9_2 1_555 1_555
C5_2 C4_2 1_555 1_555
H3_2 C5_2 1_555 1_555
C6_2 C5_2 1_555 1_555
C7_2 C6_2 1_555 1_555
H4_2 C7_2 1_555 1_555

#END
