
###############################################################################
#
# This file contains modified crystal structure data generated from the
# MOF subset of the Cambridge Structural Database (CSD) v543 
# hosted by the Cambridge Crystallographic Data Centre (CCDC).
#
# This work is licensed under the Creative Commons
# Attribution-NonCommercial-ShareAlike 4.0 International License.
# To view a copy of this license, visit
# http://creativecommons.org/licenses/by-nc-sa/4.0/
# or send a letter to
# Creative Commons, PO Box 1866, Mountain View, CA 94042, USA.
#
# CIF created using the CSD Python API on 29 September 2022
# The structure has been converted into the P1 space group
# The structure has a 3D framework
# The original CSD entry PAFPAQ is in the tetragonal crystal system
# The original CSD entry PAFPAQ is in a Sohncke space group
# The framework has been calculated to contain at least 10.0% void space
# The void calculation uses a probe of radius 1.32A, grid spacing 0.4
#
###############################################################################

data_PAFPAQ
_chemical_formula_moiety         '(C192 H160 N64 O16 Zn18)n'
_symmetry_cell_setting           triclinic
_symmetry_space_group_name_H-M   'P 1'
_symmetry_Int_Tables_number      1
_space_group_name_Hall           'P 1'
loop_
_symmetry_equiv_pos_site_id
_symmetry_equiv_pos_as_xyz
1 x,y,z
_cell_length_a                   11.69630(10)
_cell_length_b                   11.69630(10)
_cell_length_c                   47.2239(7)
_cell_angle_alpha                90
_cell_angle_beta                 90
_cell_angle_gamma                90
_cell_volume                     6460.39
loop_
_atom_site_label
_atom_site_type_symbol
_atom_site_fract_x
_atom_site_fract_y
_atom_site_fract_z
N9 N 0.1609(3) 0.2178(3) 0.21264(7)
C26 C 0.1412(3) 0.2687(3) 0.18804(7)
H21 H 0.1693 0.3403 0.1830
N15 N 0.0751(3) 0.2029(3) 0.17139(7)
C29 C 0.0922(5) 0.3045(5) 0.12697(10)
H24 H 0.1600 0.3357 0.1338
C30 C 0.0330(4) 0.2326(4) 0.14358(8)
C33 C 0.1060(4) 0.1131(4) 0.21138(10)
H27 H 0.1049 0.0588 0.2257
C34 C 0.0551(5) 0.1027(4) 0.18635(10)
H28 H 0.0137 0.0398 0.1800
C44 C 0.0557(5) 0.3337(4) 0.09999(11)
H36 H 0.0986 0.3814 0.0883
Zn6 Zn 0.24044(5) 0.29504(4) 0.245067(10)
N3 N 0.4423(3) 0.9329(3) 0.03167(6)
C1 C 0.5302(3) 0.7141(3) 0.15156(7)
N4 N 0.4374(3) 0.8354(3) 0.07145(7)
N5 N 0.5371(3) 0.5832(3) 0.22009(7)
C3 C 0.4978(4) 0.9110(3) 0.05550(7)
H2 H 0.5678 0.9427 0.0606
C4 C 0.3414(4) 0.8712(4) 0.03263(9)
H3 H 0.2851 0.8709 0.0187
N8 N 0.5566(3) 0.6714(3) 0.17902(7)
C7 C 0.4892(3) 0.6054(3) 0.19510(7)
H5 H 0.4179 0.5785 0.1895
C13 C 0.5436(5) 0.8547(4) 0.11533(10)
H10 H 0.5743 0.9231 0.1087
C15 C 0.4709(4) 0.7938(3) 0.09844(7)
C16 C 0.4547(5) 0.6516(5) 0.13449(11)
H12 H 0.4238 0.5833 0.1411
C17 C 0.4264(5) 0.6912(4) 0.10812(9)
H13 H 0.3772 0.6492 0.0967
C19 C 0.3383(4) 0.8122(4) 0.05686(9)
H15 H 0.2796 0.7641 0.0628
C21 C 0.6536(4) 0.6935(4) 0.19500(10)
H17 H 0.7156 0.7384 0.1897
C23 C 0.6407(4) 0.6379(5) 0.21954(10)
H19 H 0.6942 0.6364 0.2341
C24 C 0.5726(5) 0.8156(5) 0.14252(10)
H20 H 0.6201 0.8588 0.1542
Zn8 Zn 0.44962(6) 0.5000 0.2500
N11 N 0.5577(3) 0.9329(3) 0.96833(6)
C25 C 0.4698(3) 0.7141(3) 0.84844(7)
N12 N 0.5626(3) 0.8354(3) 0.92855(7)
N13 N 0.4629(3) 0.5832(3) 0.77991(7)
C27 C 0.5022(4) 0.9110(3) 0.94450(7)
H22 H 0.4322 0.9427 0.9394
C28 C 0.6586(4) 0.8712(4) 0.96737(9)
H23 H 0.7149 0.8709 0.9813
N16 N 0.4434(3) 0.6714(3) 0.82098(7)
C31 C 0.5108(3) 0.6054(3) 0.80490(7)
H25 H 0.5821 0.5785 0.8105
C37 C 0.4564(5) 0.8547(4) 0.88467(10)
H30 H 0.4257 0.9231 0.8913
C39 C 0.5291(4) 0.7938(3) 0.90156(7)
C40 C 0.5453(5) 0.6516(5) 0.86551(11)
H32 H 0.5762 0.5833 0.8589
C41 C 0.5736(5) 0.6912(4) 0.89188(9)
H33 H 0.6228 0.6492 0.9033
C43 C 0.6617(4) 0.8122(4) 0.94314(9)
H35 H 0.7204 0.7641 0.9372
C45 C 0.3464(4) 0.6935(4) 0.80500(10)
H37 H 0.2844 0.7384 0.8103
C47 C 0.3593(4) 0.6379(5) 0.78046(10)
H39 H 0.3058 0.6364 0.7659
C48 C 0.4274(5) 0.8156(5) 0.85748(10)
H40 H 0.3799 0.8588 0.8458
Zn7 Zn 0.55038(6) 0.5000 0.7500
N1 N 0.8391(3) 0.2178(3) 0.78736(7)
C2 C 0.8588(3) 0.2687(3) 0.81196(7)
H1 H 0.8307 0.3403 0.8170
N7 N 0.9249(3) 0.2029(3) 0.82861(7)
C5 C 0.9078(5) 0.3045(5) 0.87303(10)
H4 H 0.8400 0.3357 0.8662
C6 C 0.9670(4) 0.2326(4) 0.85642(8)
C9 C 0.8940(4) 0.1131(4) 0.78862(10)
H7 H 0.8951 0.0588 0.7743
C10 C 0.9449(5) 0.1027(4) 0.81365(10)
H8 H 0.9863 0.0398 0.8200
C20 C 0.9443(5) 0.3337(4) 0.90001(11)
H16 H 0.9014 0.3814 0.9117
Zn5 Zn 0.75956(5) 0.29504(4) 0.754933(10)
N1_2 N 0.1609(3) 0.7822(3) 0.28736(7)
C2_2 C 0.1412(3) 0.7313(3) 0.31196(7)
H1_2 H 0.1693 0.6597 0.3170
N7_2 N 0.0751(3) 0.7971(3) 0.32861(7)
C5_2 C 0.0922(5) 0.6955(5) 0.37303(10)
H4_2 H 0.1600 0.6643 0.3662
C6_2 C 0.0330(4) 0.7674(4) 0.35642(8)
C9_2 C 0.1060(4) 0.8869(4) 0.28862(10)
H7_2 H 0.1049 0.9412 0.2743
C10_2 C 0.0551(5) 0.8973(4) 0.31365(10)
H8_2 H 0.0137 0.9602 0.3200
C20_2 C 0.0557(5) 0.6663(4) 0.40001(11)
H16_2 H 0.0986 0.6186 0.4117
Zn5_2 Zn 0.24044(5) 0.70496(4) 0.254933(10)
N3_2 N 0.5577(3) 0.0671(3) 0.53167(6)
C1_2 C 0.4698(3) 0.2859(3) 0.65156(7)
N4_2 N 0.5626(3) 0.1646(3) 0.57145(7)
N5_2 N 0.4629(3) 0.4168(3) 0.72009(7)
C3_2 C 0.5022(4) 0.0890(3) 0.55550(7)
H2_2 H 0.4322 0.0573 0.5606
C4_2 C 0.6586(4) 0.1288(4) 0.53263(9)
H3_2 H 0.7149 0.1291 0.5187
N8_2 N 0.4434(3) 0.3286(3) 0.67902(7)
C7_2 C 0.5108(3) 0.3946(3) 0.69510(7)
H5_2 H 0.5821 0.4215 0.6895
C13_2 C 0.4564(5) 0.1453(4) 0.61533(10)
H10_2 H 0.4257 0.0769 0.6087
C15_2 C 0.5291(4) 0.2062(3) 0.59844(7)
C16_2 C 0.5453(5) 0.3484(5) 0.63449(11)
H12_2 H 0.5762 0.4167 0.6411
C17_2 C 0.5736(5) 0.3088(4) 0.60812(9)
H13_2 H 0.6228 0.3508 0.5967
C19_2 C 0.6617(4) 0.1878(4) 0.55686(9)
H15_2 H 0.7204 0.2359 0.5628
C21_2 C 0.3464(4) 0.3065(4) 0.69500(10)
H17_2 H 0.2844 0.2616 0.6897
C23_2 C 0.3593(4) 0.3621(5) 0.71954(10)
H19_2 H 0.3058 0.3636 0.7341
C24_2 C 0.4274(5) 0.1844(5) 0.64252(10)
H20_2 H 0.3799 0.1412 0.6542
N11_2 N 0.4423(3) 0.0671(3) 0.46833(6)
C25_2 C 0.5302(3) 0.2859(3) 0.34844(7)
N12_2 N 0.4374(3) 0.1646(3) 0.42855(7)
N13_2 N 0.5371(3) 0.4168(3) 0.27991(7)
C27_2 C 0.4978(4) 0.0890(3) 0.44450(7)
H22_2 H 0.5678 0.0573 0.4394
C28_2 C 0.3414(4) 0.1288(4) 0.46737(9)
H23_2 H 0.2851 0.1291 0.4813
N16_2 N 0.5566(3) 0.3286(3) 0.32098(7)
C31_2 C 0.4892(3) 0.3946(3) 0.30490(7)
H25_2 H 0.4179 0.4215 0.3105
C37_2 C 0.5436(5) 0.1453(4) 0.38467(10)
H30_2 H 0.5743 0.0769 0.3913
C39_2 C 0.4709(4) 0.2062(3) 0.40156(7)
C40_2 C 0.4547(5) 0.3484(5) 0.36551(11)
H32_2 H 0.4238 0.4167 0.3589
C41_2 C 0.4264(5) 0.3088(4) 0.39188(9)
H33_2 H 0.3772 0.3508 0.4033
C43_2 C 0.3383(4) 0.1878(4) 0.44314(9)
H35_2 H 0.2796 0.2359 0.4372
C45_2 C 0.6536(4) 0.3065(4) 0.30500(10)
H37_2 H 0.7156 0.2616 0.3103
C47_2 C 0.6407(4) 0.3621(5) 0.28046(10)
H39_2 H 0.6942 0.3636 0.2659
C48_2 C 0.5726(5) 0.1844(5) 0.35748(10)
H40_2 H 0.6201 0.1412 0.3458
N9_2 N 0.8391(3) 0.7822(3) 0.71264(7)
C26_2 C 0.8588(3) 0.7313(3) 0.68804(7)
H21_2 H 0.8307 0.6597 0.6830
N15_2 N 0.9249(3) 0.7971(3) 0.67139(7)
C29_2 C 0.9078(5) 0.6955(5) 0.62697(10)
H24_2 H 0.8400 0.6643 0.6338
C30_2 C 0.9670(4) 0.7674(4) 0.64358(8)
C33_2 C 0.8940(4) 0.8869(4) 0.71138(10)
H27_2 H 0.8951 0.9412 0.7257
C34_2 C 0.9449(5) 0.8973(4) 0.68635(10)
H28_2 H 0.9863 0.9602 0.6800
C44_2 C 0.9443(5) 0.6663(4) 0.59999(11)
H36_2 H 0.9014 0.6186 0.5883
Zn6_2 Zn 0.75956(5) 0.70496(4) 0.745067(10)
Zn2 Zn 0.96705(6) 0.5000 0.7500
N2 N 0.6961(3) 0.1841(3) 0.72646(7)
O1 O 0.8790(3) 0.3752(3) 0.73355(6)
N6 N 0.6808(3) 0.0910(3) 0.68667(7)
C8 C 0.5933(4) 0.1282(4) 0.72612(9)
H6 H 0.5392 0.1311 0.7405
C11 C 0.5815(4) 0.0676(4) 0.70163(9)
H9 H 0.5208 0.0213 0.6962
C12 C 0.7112(3) 0.0469(3) 0.65860(8)
C14 C 0.7459(4) 0.1607(3) 0.70176(8)
H11 H 0.8163 0.1893 0.6959
C18 C 0.7809(5) 0.1106(4) 0.64167(11)
H14 H 0.8083 0.1811 0.6477
C22 C 0.8104(5) 0.0680(5) 0.61512(11)
H18 H 0.8596 0.1091 0.6034
O2 O 0.6469(4) 0.3947(4) 0.77100(8)
N10 N 0.6961(3) 0.8159(3) 0.77354(7)
O3 O 0.8790(3) 0.6248(3) 0.76645(6)
N14 N 0.6808(3) 0.9090(3) 0.81333(7)
C32 C 0.5933(4) 0.8718(4) 0.77388(9)
H26 H 0.5392 0.8689 0.7595
C35 C 0.5815(4) 0.9324(4) 0.79837(9)
H29 H 0.5208 0.9787 0.8038
C36 C 0.7112(3) 0.9531(3) 0.84140(8)
C38 C 0.7459(4) 0.8393(3) 0.79824(8)
H31 H 0.8163 0.8107 0.8041
C42 C 0.7809(5) 0.8894(4) 0.85833(11)
H34 H 0.8083 0.8189 0.8523
C46 C 0.8104(5) 0.9320(5) 0.88488(11)
H38 H 0.8596 0.8909 0.8966
O4 O 0.6469(4) 0.6053(4) 0.72900(8)
Zn2_2 Zn 0.03295(6) 0.5000 0.2500
N2_2 N 0.3039(3) 0.8159(3) 0.22646(7)
O1_2 O 0.1210(3) 0.6248(3) 0.23355(6)
N6_2 N 0.3192(3) 0.9090(3) 0.18667(7)
C8_2 C 0.4067(4) 0.8718(4) 0.22612(9)
H6_2 H 0.4608 0.8689 0.2405
C11_2 C 0.4185(4) 0.9324(4) 0.20163(9)
H9_2 H 0.4792 0.9787 0.1962
C12_2 C 0.2888(3) 0.9531(3) 0.15860(8)
C14_2 C 0.2541(4) 0.8393(3) 0.20176(8)
H11_2 H 0.1837 0.8107 0.1959
C18_2 C 0.2191(5) 0.8894(4) 0.14167(11)
H14_2 H 0.1917 0.8189 0.1477
C22_2 C 0.1896(5) 0.9320(5) 0.11512(11)
H18_2 H 0.1404 0.8909 0.1034
O2_2 O 0.3531(4) 0.6053(4) 0.27100(8)
N10_2 N 0.3039(3) 0.1841(3) 0.27354(7)
O3_2 O 0.1210(3) 0.3752(3) 0.26645(6)
N14_2 N 0.3192(3) 0.0910(3) 0.31333(7)
C32_2 C 0.4067(4) 0.1282(4) 0.27388(9)
H26_2 H 0.4608 0.1311 0.2595
C35_2 C 0.4185(4) 0.0676(4) 0.29837(9)
H29_2 H 0.4792 0.0213 0.3038
C36_2 C 0.2888(3) 0.0469(3) 0.34140(8)
C38_2 C 0.2541(4) 0.1607(3) 0.29824(8)
H31_2 H 0.1837 0.1893 0.3041
C42_2 C 0.2191(5) 0.1106(4) 0.35833(11)
H34_2 H 0.1917 0.1811 0.3523
C46_2 C 0.1896(5) 0.0680(5) 0.38488(11)
H38_2 H 0.1404 0.1091 0.3966
O4_2 O 0.3531(4) 0.3947(4) 0.22900(8)
Zn1 Zn 0.29504(4) 0.24044(5) 0.004933(10)
Zn2_3 Zn 0.5000 0.03295(6) 0.0000
Zn3 Zn 0.5000 0.44962(6) 0.0000
O2_3 O 0.3947(4) 0.3531(4) 0.02100(8)
N10_3 N 0.8159(3) 0.3039(3) 0.02354(7)
O3_3 O 0.6248(3) 0.1210(3) 0.01645(6)
N14_3 N 0.9090(3) 0.3192(3) 0.06333(7)
C32_3 C 0.8718(4) 0.4067(4) 0.02388(9)
H26_3 H 0.8689 0.4608 0.0095
C35_3 C 0.9324(4) 0.4185(4) 0.04837(9)
H29_3 H 0.9787 0.4792 0.0538
C36_3 C 0.9531(3) 0.2888(3) 0.09140(8)
C38_3 C 0.8393(3) 0.2541(4) 0.04824(8)
H31_3 H 0.8107 0.1837 0.0541
C42_3 C 0.8894(4) 0.2191(5) 0.10833(11)
H34_3 H 0.8189 0.1917 0.1023
C46_3 C 0.9320(5) 0.1896(5) 0.13488(11)
H38_3 H 0.8909 0.1404 0.1466
N17 N 0.2178(3) 0.1609(3) 0.03736(7)
N20 N 0.5832(3) 0.5371(3) 0.02991(7)
Zn2_4 Zn 0.5000 0.03295(6) 1.0000
Zn3_2 Zn 0.5000 0.44962(6) 1.0000
N2_3 N 0.1841(3) 0.3039(3) 0.97646(7)
O1_3 O 0.3752(3) 0.1210(3) 0.98355(6)
N6_3 N 0.0910(3) 0.3192(3) 0.93667(7)
C8_3 C 0.1282(4) 0.4067(4) 0.97612(9)
H6_3 H 0.1311 0.4608 0.9905
C11_3 C 0.0676(4) 0.4185(4) 0.95163(9)
H9_3 H 0.0213 0.4792 0.9462
C12_3 C 0.0469(3) 0.2888(3) 0.90860(8)
C14_3 C 0.1607(3) 0.2541(4) 0.95176(8)
H11_3 H 0.1893 0.1837 0.9459
C18_3 C 0.1106(4) 0.2191(5) 0.89167(11)
H14_3 H 0.1811 0.1917 0.8977
C22_3 C 0.0680(5) 0.1896(5) 0.86512(11)
H18_3 H 0.1091 0.1404 0.8534
Zn4 Zn 0.70496(4) 0.24044(5) 0.995067(10)
O4_3 O 0.6053(4) 0.3531(4) 0.97900(8)
N18 N 0.7822(3) 0.1609(3) 0.96264(7)
N19 N 0.4168(3) 0.5371(3) 0.97009(7)
Zn1_2 Zn 0.70496(4) 0.75956(5) 0.504933(10)
Zn2_5 Zn 0.5000 0.96705(6) 0.5000
Zn3_3 Zn 0.5000 0.55038(6) 0.5000
N2_4 N 0.8159(3) 0.6961(3) 0.47646(7)
O1_4 O 0.6248(3) 0.8790(3) 0.48355(6)
N6_4 N 0.9090(3) 0.6808(3) 0.43667(7)
C8_4 C 0.8718(4) 0.5933(4) 0.47612(9)
H6_4 H 0.8689 0.5392 0.4905
C11_4 C 0.9324(4) 0.5815(4) 0.45163(9)
H9_4 H 0.9787 0.5208 0.4462
C12_4 C 0.9531(3) 0.7112(3) 0.40860(8)
C14_4 C 0.8393(3) 0.7459(4) 0.45176(8)
H11_4 H 0.8107 0.8163 0.4459
C18_4 C 0.8894(4) 0.7809(5) 0.39167(11)
H14_4 H 0.8189 0.8083 0.3977
C22_4 C 0.9320(5) 0.8104(5) 0.36512(11)
H18_4 H 0.8909 0.8596 0.3534
O2_4 O 0.6053(4) 0.6469(4) 0.52100(8)
Zn4_2 Zn 0.29504(4) 0.75956(5) 0.495067(10)
N10_4 N 0.1841(3) 0.6961(3) 0.52354(7)
O3_4 O 0.3752(3) 0.8790(3) 0.51645(6)
N14_4 N 0.0910(3) 0.6808(3) 0.56333(7)
C32_4 C 0.1282(4) 0.5933(4) 0.52388(9)
H26_4 H 0.1311 0.5392 0.5095
C35_4 C 0.0676(4) 0.5815(4) 0.54837(9)
H29_4 H 0.0213 0.5208 0.5538
C36_4 C 0.0469(3) 0.7112(3) 0.59140(8)
C38_4 C 0.1607(3) 0.7459(4) 0.54824(8)
H31_4 H 0.1893 0.8163 0.5541
C42_4 C 0.1106(4) 0.7809(5) 0.60833(11)
H34_4 H 0.1811 0.8083 0.6023
C46_4 C 0.0680(5) 0.8104(5) 0.63488(11)
H38_4 H 0.1091 0.8596 0.6466
O4_4 O 0.3947(4) 0.6469(4) 0.47900(8)
N17_2 N 0.7822(3) 0.8391(3) 0.53736(7)
N18_2 N 0.2178(3) 0.8391(3) 0.46264(7)
N19_2 N 0.5832(3) 0.4629(3) 0.47009(7)
N20_2 N 0.4168(3) 0.4629(3) 0.52991(7)
N3_3 N 0.0671(3) 0.4423(3) 0.78167(6)
C1_3 C 0.2859(3) 0.5302(3) 0.90156(7)
N4_3 N 0.1646(3) 0.4374(3) 0.82145(7)
C3_3 C 0.0890(3) 0.4978(4) 0.80550(7)
H2_3 H 0.0573 0.5678 0.8106
C4_3 C 0.1288(4) 0.3414(4) 0.78263(9)
H3_3 H 0.1291 0.2851 0.7687
N8_3 N 0.3286(3) 0.5566(3) 0.92902(7)
C7_3 C 0.3946(3) 0.4892(3) 0.94510(7)
H5_3 H 0.4215 0.4179 0.9395
C13_3 C 0.1453(4) 0.5436(5) 0.86533(10)
H10_3 H 0.0769 0.5743 0.8587
C15_3 C 0.2062(3) 0.4709(4) 0.84844(7)
C16_3 C 0.3484(5) 0.4547(5) 0.88449(11)
H12_3 H 0.4167 0.4238 0.8911
C17_3 C 0.3088(4) 0.4264(5) 0.85812(9)
H13_3 H 0.3508 0.3772 0.8467
C19_3 C 0.1878(4) 0.3383(4) 0.80686(9)
H15_3 H 0.2359 0.2796 0.8128
C21_3 C 0.3065(4) 0.6536(4) 0.94500(10)
H17_3 H 0.2616 0.7156 0.9397
C23_3 C 0.3621(5) 0.6407(4) 0.96954(10)
H19_3 H 0.3636 0.6942 0.9841
C24_3 C 0.1844(5) 0.5726(5) 0.89252(10)
H20_3 H 0.1412 0.6201 0.9042
N11_3 N 0.0671(3) 0.5577(3) 0.71833(6)
C25_3 C 0.2859(3) 0.4698(3) 0.59844(7)
N12_3 N 0.1646(3) 0.5626(3) 0.67855(7)
C27_3 C 0.0890(3) 0.5022(4) 0.69450(7)
H22_3 H 0.0573 0.4322 0.6894
C28_3 C 0.1288(4) 0.6586(4) 0.71737(9)
H23_3 H 0.1291 0.7149 0.7313
N16_3 N 0.3286(3) 0.4434(3) 0.57098(7)
C31_3 C 0.3946(3) 0.5108(3) 0.55490(7)
H25_3 H 0.4215 0.5821 0.5605
C37_3 C 0.1453(4) 0.4564(5) 0.63467(10)
H30_3 H 0.0769 0.4257 0.6413
C39_3 C 0.2062(3) 0.5291(4) 0.65156(7)
C40_3 C 0.3484(5) 0.5453(5) 0.61551(11)
H32_3 H 0.4167 0.5762 0.6089
C41_3 C 0.3088(4) 0.5736(5) 0.64188(9)
H33_3 H 0.3508 0.6228 0.6533
C43_3 C 0.1878(4) 0.6617(4) 0.69314(9)
H35_3 H 0.2359 0.7204 0.6872
C45_3 C 0.3065(4) 0.3464(4) 0.55500(10)
H37_3 H 0.2616 0.2844 0.5603
C47_3 C 0.3621(5) 0.3593(4) 0.53046(10)
H39_3 H 0.3636 0.3058 0.5159
C48_3 C 0.1844(5) 0.4274(5) 0.60748(10)
H40_3 H 0.1412 0.3799 0.5958
C26_3 C 0.7313(3) 0.1412(3) 0.93804(7)
H21_3 H 0.6597 0.1693 0.9330
N15_3 N 0.7971(3) 0.0751(3) 0.92139(7)
C29_3 C 0.6955(5) 0.0922(5) 0.87697(10)
H24_3 H 0.6643 0.1600 0.8838
C30_3 C 0.7674(4) 0.0330(4) 0.89358(8)
C33_3 C 0.8869(4) 0.1060(4) 0.96138(10)
H27_3 H 0.9412 0.1049 0.9757
C34_3 C 0.8973(4) 0.0551(5) 0.93635(10)
H28_3 H 0.9602 0.0137 0.9300
C44_3 C 0.6663(4) 0.0557(5) 0.84999(11)
H36_3 H 0.6186 0.0986 0.8383
C2_3 C 0.7313(3) 0.8588(3) 0.56196(7)
H1_3 H 0.6597 0.8307 0.5670
N7_3 N 0.7971(3) 0.9249(3) 0.57861(7)
C5_3 C 0.6955(5) 0.9078(5) 0.62303(10)
H4_3 H 0.6643 0.8400 0.6162
C6_3 C 0.7674(4) 0.9670(4) 0.60642(8)
C9_3 C 0.8869(4) 0.8940(4) 0.53862(10)
H7_3 H 0.9412 0.8951 0.5243
C10_3 C 0.8973(4) 0.9449(5) 0.56365(10)
H8_3 H 0.9602 0.9863 0.5700
C20_3 C 0.6663(4) 0.9443(5) 0.65001(11)
H16_3 H 0.6186 0.9014 0.6617
C2_4 C 0.2687(3) 0.1412(3) 0.06196(7)
H1_4 H 0.3403 0.1693 0.0670
N7_4 N 0.2029(3) 0.0751(3) 0.07861(7)
C5_4 C 0.3045(5) 0.0922(5) 0.12303(10)
H4_4 H 0.3357 0.1600 0.1162
C6_4 C 0.2326(4) 0.0330(4) 0.10642(8)
C9_4 C 0.1131(4) 0.1060(4) 0.03862(10)
H7_4 H 0.0588 0.1049 0.0243
C10_4 C 0.1027(4) 0.0551(5) 0.06365(10)
H8_4 H 0.0398 0.0137 0.0700
C20_4 C 0.3337(4) 0.0557(5) 0.15001(11)
H16_4 H 0.3814 0.0986 0.1617
C26_4 C 0.2687(3) 0.8588(3) 0.43804(7)
H21_4 H 0.3403 0.8307 0.4330
N15_4 N 0.2029(3) 0.9249(3) 0.42139(7)
C29_4 C 0.3045(5) 0.9078(5) 0.37697(10)
H24_4 H 0.3357 0.8400 0.3838
C30_4 C 0.2326(4) 0.9670(4) 0.39358(8)
C33_4 C 0.1131(4) 0.8940(4) 0.46138(10)
H27_4 H 0.0588 0.8951 0.4757
C34_4 C 0.1027(4) 0.9449(5) 0.43635(10)
H28_4 H 0.0398 0.9863 0.4300
C44_4 C 0.3337(4) 0.9443(5) 0.34999(11)
H36_4 H 0.3814 0.9014 0.3383
N3_4 N 0.9329(3) 0.5577(3) 0.28167(6)
C1_4 C 0.7141(3) 0.4698(3) 0.40156(7)
N4_4 N 0.8354(3) 0.5626(3) 0.32145(7)
C3_4 C 0.9110(3) 0.5022(4) 0.30550(7)
H2_4 H 0.9427 0.4322 0.3106
C4_4 C 0.8712(4) 0.6586(4) 0.28263(9)
H3_4 H 0.8709 0.7149 0.2687
N8_4 N 0.6714(3) 0.4434(3) 0.42902(7)
C7_4 C 0.6054(3) 0.5108(3) 0.44510(7)
H5_4 H 0.5785 0.5821 0.4395
C13_4 C 0.8547(4) 0.4564(5) 0.36533(10)
H10_4 H 0.9231 0.4257 0.3587
C15_4 C 0.7938(3) 0.5291(4) 0.34844(7)
C16_4 C 0.6516(5) 0.5453(5) 0.38449(11)
H12_4 H 0.5833 0.5762 0.3911
C17_4 C 0.6912(4) 0.5736(5) 0.35812(9)
H13_4 H 0.6492 0.6228 0.3467
C19_4 C 0.8122(4) 0.6617(4) 0.30686(9)
H15_4 H 0.7641 0.7204 0.3128
C21_4 C 0.6935(4) 0.3464(4) 0.44500(10)
H17_4 H 0.7384 0.2844 0.4397
C23_4 C 0.6379(5) 0.3593(4) 0.46954(10)
H19_4 H 0.6364 0.3058 0.4841
C24_4 C 0.8156(5) 0.4274(5) 0.39252(10)
H20_4 H 0.8588 0.3799 0.4042
N11_4 N 0.9329(3) 0.4423(3) 0.21833(6)
C25_4 C 0.7141(3) 0.5302(3) 0.09844(7)
N12_4 N 0.8354(3) 0.4374(3) 0.17855(7)
C27_4 C 0.9110(3) 0.4978(4) 0.19450(7)
H22_4 H 0.9427 0.5678 0.1894
C28_4 C 0.8712(4) 0.3414(4) 0.21737(9)
H23_4 H 0.8709 0.2851 0.2313
N16_4 N 0.6714(3) 0.5566(3) 0.07098(7)
C31_4 C 0.6054(3) 0.4892(3) 0.05490(7)
H25_4 H 0.5785 0.4179 0.0605
C37_4 C 0.8547(4) 0.5436(5) 0.13467(10)
H30_4 H 0.9231 0.5743 0.1413
C39_4 C 0.7938(3) 0.4709(4) 0.15156(7)
C40_4 C 0.6516(5) 0.4547(5) 0.11551(11)
H32_4 H 0.5833 0.4238 0.1089
C41_4 C 0.6912(4) 0.4264(5) 0.14188(9)
H33_4 H 0.6492 0.3772 0.1533
C43_4 C 0.8122(4) 0.3383(4) 0.19314(9)
H35_4 H 0.7641 0.2796 0.1872
C45_4 C 0.6935(4) 0.6536(4) 0.05500(10)
H37_4 H 0.7384 0.7156 0.0603
C47_4 C 0.6379(5) 0.6407(4) 0.03046(10)
H39_4 H 0.6364 0.6942 0.0159
C48_4 C 0.8156(5) 0.5726(5) 0.10748(10)
H40_4 H 0.8588 0.6201 0.0958
loop_
_geom_bond_atom_site_label_1
_geom_bond_atom_site_label_2
_geom_bond_site_symmetry_1
_geom_bond_site_symmetry_2
N9 C26 1_555 1_555
C26 H21 1_555 1_555
N15 C26 1_555 1_555
C29 H24 1_555 1_555
C30 N15 1_555 1_555
C33 N9 1_555 1_555
H27 C33 1_555 1_555
C34 N15 1_555 1_555
H28 C34 1_555 1_555
C44 C29 1_555 1_555
H36 C44 1_555 1_555
Zn6 N9 1_555 1_555
C29 C30 1_555 1_555
C33 C34 1_555 1_555
C1 N8 1_555 1_555
N4 C3 1_555 1_555
N5 C7 1_555 1_555
C3 N3 1_555 1_555
H2 C3 1_555 1_555
C4 N3 1_555 1_555
H3 C4 1_555 1_555
N8 C7 1_555 1_555
C7 H5 1_555 1_555
C13 H10 1_555 1_555
C15 N4 1_555 1_555
C16 C1 1_555 1_555
H12 C16 1_555 1_555
C17 C15 1_555 1_555
H13 C17 1_555 1_555
C19 N4 1_555 1_555
H15 C19 1_555 1_555
C21 N8 1_555 1_555
H17 C21 1_555 1_555
C23 N5 1_555 1_555
H19 C23 1_555 1_555
C24 C1 1_555 1_555
H20 C24 1_555 1_555
Zn8 N5 1_555 1_555
C4 C19 1_555 1_555
C13 C15 1_555 1_555
C13 C24 1_555 1_555
C16 C17 1_555 1_555
C21 C23 1_555 1_555
C25 N16 1_555 1_555
N12 C27 1_555 1_555
N13 C31 1_555 1_555
C27 N11 1_555 1_555
H22 C27 1_555 1_555
C28 N11 1_555 1_555
H23 C28 1_555 1_555
N16 C31 1_555 1_555
C31 H25 1_555 1_555
C37 H30 1_555 1_555
C39 N12 1_555 1_555
C40 C25 1_555 1_555
H32 C40 1_555 1_555
C41 C39 1_555 1_555
H33 C41 1_555 1_555
C43 N12 1_555 1_555
H35 C43 1_555 1_555
C45 N16 1_555 1_555
H37 C45 1_555 1_555
C47 N13 1_555 1_555
H39 C47 1_555 1_555
C48 C25 1_555 1_555
H40 C48 1_555 1_555
Zn7 N13 1_555 1_555
C28 C43 1_555 1_555
C37 C39 1_555 1_555
C37 C48 1_555 1_555
C40 C41 1_555 1_555
C45 C47 1_555 1_555
N1 C2 1_555 1_555
C2 H1 1_555 1_555
N7 C2 1_555 1_555
C5 H4 1_555 1_555
C6 N7 1_555 1_555
C9 N1 1_555 1_555
H7 C9 1_555 1_555
C10 N7 1_555 1_555
H8 C10 1_555 1_555
C20 C5 1_555 1_555
H16 C20 1_555 1_555
Zn5 N1 1_555 1_555
C5 C6 1_555 1_555
C9 C10 1_555 1_555
N1_2 C2_2 1_555 1_555
C2_2 H1_2 1_555 1_555
N7_2 C2_2 1_555 1_555
C5_2 H4_2 1_555 1_555
C6_2 N7_2 1_555 1_555
C9_2 N1_2 1_555 1_555
H7_2 C9_2 1_555 1_555
C10_2 N7_2 1_555 1_555
H8_2 C10_2 1_555 1_555
C20_2 C5_2 1_555 1_555
H16_2 C20_2 1_555 1_555
Zn5_2 N1_2 1_555 1_555
C5_2 C6_2 1_555 1_555
C9_2 C10_2 1_555 1_555
C1_2 N8_2 1_555 1_555
N4_2 C3_2 1_555 1_555
N5_2 C7_2 1_555 1_555
C3_2 N3_2 1_555 1_555
H2_2 C3_2 1_555 1_555
C4_2 N3_2 1_555 1_555
H3_2 C4_2 1_555 1_555
N8_2 C7_2 1_555 1_555
C7_2 H5_2 1_555 1_555
C13_2 H10_2 1_555 1_555
C15_2 N4_2 1_555 1_555
C16_2 C1_2 1_555 1_555
H12_2 C16_2 1_555 1_555
C17_2 C15_2 1_555 1_555
H13_2 C17_2 1_555 1_555
C19_2 N4_2 1_555 1_555
H15_2 C19_2 1_555 1_555
C21_2 N8_2 1_555 1_555
H17_2 C21_2 1_555 1_555
C23_2 N5_2 1_555 1_555
H19_2 C23_2 1_555 1_555
C24_2 C1_2 1_555 1_555
H20_2 C24_2 1_555 1_555
C25_2 N16_2 1_555 1_555
N12_2 C27_2 1_555 1_555
N13_2 C31_2 1_555 1_555
C27_2 N11_2 1_555 1_555
H22_2 C27_2 1_555 1_555
C28_2 N11_2 1_555 1_555
H23_2 C28_2 1_555 1_555
N16_2 C31_2 1_555 1_555
C31_2 H25_2 1_555 1_555
C37_2 H30_2 1_555 1_555
C39_2 N12_2 1_555 1_555
C40_2 C25_2 1_555 1_555
H32_2 C40_2 1_555 1_555
C41_2 C39_2 1_555 1_555
H33_2 C41_2 1_555 1_555
C43_2 N12_2 1_555 1_555
H35_2 C43_2 1_555 1_555
C45_2 N16_2 1_555 1_555
H37_2 C45_2 1_555 1_555
C47_2 N13_2 1_555 1_555
H39_2 C47_2 1_555 1_555
C48_2 C25_2 1_555 1_555
H40_2 C48_2 1_555 1_555
Zn8 N13_2 1_555 1_555
Zn7 N5_2 1_555 1_555
C4_2 C19_2 1_555 1_555
C13_2 C15_2 1_555 1_555
C13_2 C24_2 1_555 1_555
C16_2 C17_2 1_555 1_555
C21_2 C23_2 1_555 1_555
C28_2 C43_2 1_555 1_555
C37_2 C39_2 1_555 1_555
C37_2 C48_2 1_555 1_555
C40_2 C41_2 1_555 1_555
C45_2 C47_2 1_555 1_555
N9_2 C26_2 1_555 1_555
C26_2 H21_2 1_555 1_555
N15_2 C26_2 1_555 1_555
C29_2 H24_2 1_555 1_555
C30_2 N15_2 1_555 1_555
C33_2 N9_2 1_555 1_555
H27_2 C33_2 1_555 1_555
C34_2 N15_2 1_555 1_555
H28_2 C34_2 1_555 1_555
C44_2 C29_2 1_555 1_555
H36_2 C44_2 1_555 1_555
Zn6_2 N9_2 1_555 1_555
C29_2 C30_2 1_555 1_555
C33_2 C34_2 1_555 1_555
Zn5 N2 1_555 1_555
Zn2 O1 1_555 1_555
Zn7 O2 1_555 1_555
N2 C8 1_555 1_555
O1 Zn5 1_555 1_555
N6 C11 1_555 1_555
C8 H6 1_555 1_555
C11 C8 1_555 1_555
H9 C11 1_555 1_555
C12 N6 1_555 1_555
C14 N2 1_555 1_555
H11 C14 1_555 1_555
C18 C12 1_555 1_555
H14 C18 1_555 1_555
H18 C22 1_555 1_555
O2 Zn5 1_555 1_555
Zn6_2 N10 1_555 1_555
N10 C32 1_555 1_555
O3 Zn2 1_555 1_555
N14 C35 1_555 1_555
C32 H26 1_555 1_555
C35 C32 1_555 1_555
H29 C35 1_555 1_555
C36 N14 1_555 1_555
C38 N10 1_555 1_555
H31 C38 1_555 1_555
C42 C36 1_555 1_555
H34 C42 1_555 1_555
H38 C46 1_555 1_555
O4 Zn7 1_555 1_555
N6 C14 1_555 1_555
C18 C22 1_555 1_555
Zn6_2 O3 1_555 1_555
Zn6_2 O4 1_555 1_555
N14 C38 1_555 1_555
C42 C46 1_555 1_555
Zn5_2 N2_2 1_555 1_555
Zn2_2 O1_2 1_555 1_555
Zn8 O2_2 1_555 1_555
N2_2 C8_2 1_555 1_555
O1_2 Zn5_2 1_555 1_555
N6_2 C11_2 1_555 1_555
C8_2 H6_2 1_555 1_555
C11_2 C8_2 1_555 1_555
H9_2 C11_2 1_555 1_555
C12_2 N6_2 1_555 1_555
C14_2 N2_2 1_555 1_555
H11_2 C14_2 1_555 1_555
C18_2 C12_2 1_555 1_555
H14_2 C18_2 1_555 1_555
H18_2 C22_2 1_555 1_555
O2_2 Zn5_2 1_555 1_555
Zn6 N10_2 1_555 1_555
N10_2 C32_2 1_555 1_555
O3_2 Zn2_2 1_555 1_555
N14_2 C35_2 1_555 1_555
C32_2 H26_2 1_555 1_555
C35_2 C32_2 1_555 1_555
H29_2 C35_2 1_555 1_555
C36_2 N14_2 1_555 1_555
C38_2 N10_2 1_555 1_555
H31_2 C38_2 1_555 1_555
C42_2 C36_2 1_555 1_555
H34_2 C42_2 1_555 1_555
H38_2 C46_2 1_555 1_555
O4_2 Zn8 1_555 1_555
N6_2 C14_2 1_555 1_555
C18_2 C22_2 1_555 1_555
Zn6 O3_2 1_555 1_555
Zn6 O4_2 1_555 1_555
N14_2 C38_2 1_555 1_555
C42_2 C46_2 1_555 1_555
Zn3 O2_3 1_555 1_555
O2_3 Zn1 1_555 1_555
N10_3 C32_3 1_555 1_555
O3_3 Zn2_3 1_555 1_555
N14_3 C35_3 1_555 1_555
C32_3 H26_3 1_555 1_555
C35_3 C32_3 1_555 1_555
H29_3 C35_3 1_555 1_555
C36_3 N14_3 1_555 1_555
C38_3 N10_3 1_555 1_555
H31_3 C38_3 1_555 1_555
C42_3 C36_3 1_555 1_555
H34_3 C42_3 1_555 1_555
H38_3 C46_3 1_555 1_555
N17 Zn1 1_555 1_555
N20 Zn3 1_555 1_555
N14_3 C38_3 1_555 1_555
C42_3 C46_3 1_555 1_555
Zn2_4 O1_3 1_555 1_555
N2_3 C8_3 1_555 1_555
N6_3 C11_3 1_555 1_555
C8_3 H6_3 1_555 1_555
C11_3 C8_3 1_555 1_555
H9_3 C11_3 1_555 1_555
C12_3 N6_3 1_555 1_555
C14_3 N2_3 1_555 1_555
H11_3 C14_3 1_555 1_555
C18_3 C12_3 1_555 1_555
H14_3 C18_3 1_555 1_555
H18_3 C22_3 1_555 1_555
O4_3 Zn3_2 1_555 1_555
N18 Zn4 1_555 1_555
N19 Zn3_2 1_555 1_555
N6_3 C14_3 1_555 1_555
C18_3 C22_3 1_555 1_555
Zn4 O4_3 1_555 1_555
Zn1_2 N2_4 1_555 1_555
Zn2_5 O1_4 1_555 1_555
Zn3_3 O2_4 1_555 1_555
N2_4 C8_4 1_555 1_555
O1_4 Zn1_2 1_555 1_555
N6_4 C11_4 1_555 1_555
C8_4 H6_4 1_555 1_555
C11_4 C8_4 1_555 1_555
H9_4 C11_4 1_555 1_555
C12_4 N6_4 1_555 1_555
C14_4 N2_4 1_555 1_555
H11_4 C14_4 1_555 1_555
C18_4 C12_4 1_555 1_555
H14_4 C18_4 1_555 1_555
H18_4 C22_4 1_555 1_555
O2_4 Zn1_2 1_555 1_555
Zn4_2 N10_4 1_555 1_555
N10_4 C32_4 1_555 1_555
O3_4 Zn2_5 1_555 1_555
N14_4 C35_4 1_555 1_555
C32_4 H26_4 1_555 1_555
C35_4 C32_4 1_555 1_555
H29_4 C35_4 1_555 1_555
C36_4 N14_4 1_555 1_555
C38_4 N10_4 1_555 1_555
H31_4 C38_4 1_555 1_555
C42_4 C36_4 1_555 1_555
H34_4 C42_4 1_555 1_555
H38_4 C46_4 1_555 1_555
O4_4 Zn3_3 1_555 1_555
N17_2 Zn1_2 1_555 1_555
N18_2 Zn4_2 1_555 1_555
N19_2 Zn3_3 1_555 1_555
N20_2 Zn3_3 1_555 1_555
N6_4 C14_4 1_555 1_555
C18_4 C22_4 1_555 1_555
Zn4_2 O3_4 1_555 1_555
Zn4_2 O4_4 1_555 1_555
N14_4 C38_4 1_555 1_555
C42_4 C46_4 1_555 1_555
C1_3 N8_3 1_555 1_555
N4_3 C3_3 1_555 1_555
N19 C7_3 1_555 1_555
C3_3 N3_3 1_555 1_555
H2_3 C3_3 1_555 1_555
C4_3 N3_3 1_555 1_555
H3_3 C4_3 1_555 1_555
N8_3 C7_3 1_555 1_555
C7_3 H5_3 1_555 1_555
C13_3 H10_3 1_555 1_555
C15_3 N4_3 1_555 1_555
C16_3 C1_3 1_555 1_555
H12_3 C16_3 1_555 1_555
C17_3 C15_3 1_555 1_555
H13_3 C17_3 1_555 1_555
C19_3 N4_3 1_555 1_555
H15_3 C19_3 1_555 1_555
C21_3 N8_3 1_555 1_555
H17_3 C21_3 1_555 1_555
C23_3 N19 1_555 1_555
H19_3 C23_3 1_555 1_555
C24_3 C1_3 1_555 1_555
H20_3 C24_3 1_555 1_555
C25_3 N16_3 1_555 1_555
N12_3 C27_3 1_555 1_555
N20_2 C31_3 1_555 1_555
C27_3 N11_3 1_555 1_555
H22_3 C27_3 1_555 1_555
C28_3 N11_3 1_555 1_555
H23_3 C28_3 1_555 1_555
N16_3 C31_3 1_555 1_555
C31_3 H25_3 1_555 1_555
C37_3 H30_3 1_555 1_555
C39_3 N12_3 1_555 1_555
C40_3 C25_3 1_555 1_555
H32_3 C40_3 1_555 1_555
C41_3 C39_3 1_555 1_555
H33_3 C41_3 1_555 1_555
C43_3 N12_3 1_555 1_555
H35_3 C43_3 1_555 1_555
C45_3 N16_3 1_555 1_555
H37_3 C45_3 1_555 1_555
C47_3 N20_2 1_555 1_555
H39_3 C47_3 1_555 1_555
C48_3 C25_3 1_555 1_555
H40_3 C48_3 1_555 1_555
C4_3 C19_3 1_555 1_555
C13_3 C15_3 1_555 1_555
C13_3 C24_3 1_555 1_555
C16_3 C17_3 1_555 1_555
C21_3 C23_3 1_555 1_555
C28_3 C43_3 1_555 1_555
C37_3 C39_3 1_555 1_555
C37_3 C48_3 1_555 1_555
C40_3 C41_3 1_555 1_555
C45_3 C47_3 1_555 1_555
N18 C26_3 1_555 1_555
C26_3 H21_3 1_555 1_555
N15_3 C26_3 1_555 1_555
C29_3 H24_3 1_555 1_555
C30_3 N15_3 1_555 1_555
C33_3 N18 1_555 1_555
H27_3 C33_3 1_555 1_555
C34_3 N15_3 1_555 1_555
H28_3 C34_3 1_555 1_555
C44_3 C29_3 1_555 1_555
H36_3 C44_3 1_555 1_555
C29_3 C30_3 1_555 1_555
C33_3 C34_3 1_555 1_555
N17_2 C2_3 1_555 1_555
C2_3 H1_3 1_555 1_555
N7_3 C2_3 1_555 1_555
C5_3 H4_3 1_555 1_555
C6_3 N7_3 1_555 1_555
C9_3 N17_2 1_555 1_555
H7_3 C9_3 1_555 1_555
C10_3 N7_3 1_555 1_555
H8_3 C10_3 1_555 1_555
C20_3 C5_3 1_555 1_555
H16_3 C20_3 1_555 1_555
C5_3 C6_3 1_555 1_555
C9_3 C10_3 1_555 1_555
N17 C2_4 1_555 1_555
C2_4 H1_4 1_555 1_555
N7_4 C2_4 1_555 1_555
C5_4 H4_4 1_555 1_555
C6_4 N7_4 1_555 1_555
C9_4 N17 1_555 1_555
H7_4 C9_4 1_555 1_555
C10_4 N7_4 1_555 1_555
H8_4 C10_4 1_555 1_555
C20_4 C5_4 1_555 1_555
H16_4 C20_4 1_555 1_555
C5_4 C6_4 1_555 1_555
C9_4 C10_4 1_555 1_555
N18_2 C26_4 1_555 1_555
C26_4 H21_4 1_555 1_555
N15_4 C26_4 1_555 1_555
C29_4 H24_4 1_555 1_555
C30_4 N15_4 1_555 1_555
C33_4 N18_2 1_555 1_555
H27_4 C33_4 1_555 1_555
C34_4 N15_4 1_555 1_555
H28_4 C34_4 1_555 1_555
C44_4 C29_4 1_555 1_555
H36_4 C44_4 1_555 1_555
C29_4 C30_4 1_555 1_555
C33_4 C34_4 1_555 1_555
C1_4 N8_4 1_555 1_555
N4_4 C3_4 1_555 1_555
N19_2 C7_4 1_555 1_555
C3_4 N3_4 1_555 1_555
H2_4 C3_4 1_555 1_555
C4_4 N3_4 1_555 1_555
H3_4 C4_4 1_555 1_555
N8_4 C7_4 1_555 1_555
C7_4 H5_4 1_555 1_555
C13_4 H10_4 1_555 1_555
C15_4 N4_4 1_555 1_555
C16_4 C1_4 1_555 1_555
H12_4 C16_4 1_555 1_555
C17_4 C15_4 1_555 1_555
H13_4 C17_4 1_555 1_555
C19_4 N4_4 1_555 1_555
H15_4 C19_4 1_555 1_555
C21_4 N8_4 1_555 1_555
H17_4 C21_4 1_555 1_555
C23_4 N19_2 1_555 1_555
H19_4 C23_4 1_555 1_555
C24_4 C1_4 1_555 1_555
H20_4 C24_4 1_555 1_555
C25_4 N16_4 1_555 1_555
N12_4 C27_4 1_555 1_555
N20 C31_4 1_555 1_555
C27_4 N11_4 1_555 1_555
H22_4 C27_4 1_555 1_555
C28_4 N11_4 1_555 1_555
H23_4 C28_4 1_555 1_555
N16_4 C31_4 1_555 1_555
C31_4 H25_4 1_555 1_555
C37_4 H30_4 1_555 1_555
C39_4 N12_4 1_555 1_555
C40_4 C25_4 1_555 1_555
H32_4 C40_4 1_555 1_555
C41_4 C39_4 1_555 1_555
H33_4 C41_4 1_555 1_555
C43_4 N12_4 1_555 1_555
H35_4 C43_4 1_555 1_555
C45_4 N16_4 1_555 1_555
H37_4 C45_4 1_555 1_555
C47_4 N20 1_555 1_555
H39_4 C47_4 1_555 1_555
C48_4 C25_4 1_555 1_555
H40_4 C48_4 1_555 1_555
C4_4 C19_4 1_555 1_555
C13_4 C15_4 1_555 1_555
C13_4 C24_4 1_555 1_555
C16_4 C17_4 1_555 1_555
C21_4 C23_4 1_555 1_555
C28_4 C43_4 1_555 1_555
C37_4 C39_4 1_555 1_555
C37_4 C48_4 1_555 1_555
C40_4 C41_4 1_555 1_555
C45_4 C47_4 1_555 1_555

#END
