
###############################################################################
#
# This file contains modified crystal structure data generated from the
# MOF subset of the Cambridge Structural Database (CSD) v543 
# hosted by the Cambridge Crystallographic Data Centre (CCDC).
#
# This work is licensed under the Creative Commons
# Attribution-NonCommercial-ShareAlike 4.0 International License.
# To view a copy of this license, visit
# http://creativecommons.org/licenses/by-nc-sa/4.0/
# or send a letter to
# Creative Commons, PO Box 1866, Mountain View, CA 94042, USA.
#
# CIF created using the CSD Python API on 29 September 2022
# The structure has been converted into the P1 space group
# The structure has a 3D framework
# The original CSD entry PAGSOJ is in the orthorhombic crystal system
# The framework has been calculated to contain at least 10.0% void space
# The void calculation uses a probe of radius 1.32A, grid spacing 0.4
# H atom positions have been added when not included in the experimental data
#
###############################################################################

data_PAGSOJ
_chemical_formula_moiety         '(C320 H224 Cu16 N64 S32)n'
_symmetry_cell_setting           triclinic
_symmetry_space_group_name_H-M   'P 1'
_symmetry_Int_Tables_number      1
_space_group_name_Hall           'P 1'
loop_
_symmetry_equiv_pos_site_id
_symmetry_equiv_pos_as_xyz
1 x,y,z
_cell_length_a                   13.6258(12)
_cell_length_b                   18.3469(14)
_cell_length_c                   32.846(3)
_cell_angle_alpha                90
_cell_angle_beta                 90
_cell_angle_gamma                90
_cell_volume                     8211.21
loop_
_atom_site_label
_atom_site_type_symbol
_atom_site_fract_x
_atom_site_fract_y
_atom_site_fract_z
H7 H 0.042891 0.276491 0.121057
C12 C 0.0297(3) 0.2179(2) 0.17253(11)
H8 H 0.091216 0.196020 0.171277
S1 S 0.45694(7) 0.16758(5) 0.32959(3)
C2 C 0.2203(3) 0.0321(2) 0.17253(11)
H2 H 0.158784 0.053980 0.171277
C3 C 0.2826(3) 0.0466(2) 0.20420(11)
H3 H 0.263740 0.077708 0.225133
C5 C 0.3743(3) 0.0139(2) 0.20446(11)
C6 C 0.4784(3) 0.0989(2) 0.29417(10)
Cu1 Cu 0.625000 0.125000 0.34639(2)
N2 N 0.5629(2) 0.06155(17) 0.30084(9)
C8 C 0.4427(3) 0.0284(2) 0.23846(10)
C9 C 0.4179(3) 0.08436(19) 0.26337(9)
C10 C 0.5859(3) 0.0057(2) 0.27590(10)
S2 S 0.79306(7) 0.08242(5) 0.32959(3)
N3 N 0.9117(2) 0.29813(18) 0.14169(9)
C11 C 0.9995(3) 0.2662(2) 0.14212(11)
C13 C 0.9674(3) 0.2034(2) 0.20420(11)
H9 H 0.986260 0.172292 0.225133
C14 C 0.8506(3) 0.2825(2) 0.17237(10)
H10 H 0.788473 0.303544 0.172341
C15 C 0.8757(3) 0.2361(2) 0.20446(11)
C16 C 0.7716(3) 0.1511(2) 0.29417(10)
C17 C 0.7234(3) 0.2634(2) 0.24371(10)
H11 H 0.708098 0.302057 0.226503
N4 N 0.6871(2) 0.18845(17) 0.30084(9)
C18 C 0.8073(3) 0.2216(2) 0.23846(10)
C19 C 0.8321(3) 0.16564(19) 0.26337(9)
C20 C 0.6641(3) 0.2443(2) 0.27590(10)
H12 H 0.606772 0.270475 0.280574
N5 N 0.5883(2) 0.04813(18) 0.39169(9)
N6 N 0.6617(2) 0.20187(18) 0.39169(9)
Cu2 Cu 0.875000 0.375000 0.09639(2)
H13 H 0.351391 0.116055 0.258414
H14 H 0.898609 0.133945 0.258414
N1 N 0.3383(2) 0.95187(18) 0.14169(9)
C1 C 0.2505(3) 0.9838(2) 0.14212(11)
H1 H 0.207109 0.973509 0.121057
C4 C 0.3994(3) 0.9675(2) 0.17237(10)
H4 H 0.461527 0.946456 0.172341
C7 C 0.5266(3) 0.9866(2) 0.24371(10)
H5 H 0.541902 0.947943 0.226503
H6 H 0.643228 0.979525 0.280574
Cu3 Cu 0.375000 0.875000 0.09639(2)
S1_2 S 0.29306(7) 0.58242(5) 0.32959(3)
N1_2 N 0.4117(2) 0.79813(18) 0.14169(9)
C1_2 C 0.4995(3) 0.7662(2) 0.14212(11)
H1_2 H 0.542891 0.776491 0.121057
C2_2 C 0.5297(3) 0.7179(2) 0.17253(11)
H2_2 H 0.591216 0.696020 0.171277
C3_2 C 0.4674(3) 0.7034(2) 0.20420(11)
H3_2 H 0.486260 0.672292 0.225133
C4_2 C 0.3506(3) 0.7825(2) 0.17237(10)
H4_2 H 0.288473 0.803544 0.172341
C5_2 C 0.3757(3) 0.7361(2) 0.20446(11)
C6_2 C 0.2716(3) 0.6511(2) 0.29417(10)
C7_2 C 0.2234(3) 0.7634(2) 0.24371(10)
H5_2 H 0.208098 0.802057 0.226503
Cu1_2 Cu 0.125000 0.625000 0.34639(2)
N2_2 N 0.1871(2) 0.68845(17) 0.30084(9)
C8_2 C 0.3073(3) 0.7216(2) 0.23846(10)
C9_2 C 0.3321(3) 0.66564(19) 0.26337(9)
C10_2 C 0.1641(3) 0.7443(2) 0.27590(10)
H6_2 H 0.106772 0.770475 0.280574
C17_2 C 0.0266(3) 0.4866(2) 0.24371(10)
H11_2 H 0.041902 0.447943 0.226503
N4_2 N 0.0629(2) 0.56155(17) 0.30084(9)
C20_2 C 0.0859(3) 0.5057(2) 0.27590(10)
H12_2 H 0.143228 0.479525 0.280574
N5_2 N 0.1617(2) 0.70187(18) 0.39169(9)
N6_2 N 0.0883(2) 0.54813(18) 0.39169(9)
H13_2 H 0.398609 0.633945 0.258414
S2_2 S 0.95694(7) 0.66758(5) 0.32959(3)
N3_2 N 0.8383(2) 0.45187(18) 0.14169(9)
C11_2 C 0.7505(3) 0.4838(2) 0.14212(11)
H7_2 H 0.707109 0.473509 0.121057
C12_2 C 0.7203(3) 0.5321(2) 0.17253(11)
H8_2 H 0.658784 0.553980 0.171277
C13_2 C 0.7826(3) 0.5466(2) 0.20420(11)
H9_2 H 0.763740 0.577708 0.225133
C14_2 C 0.8994(3) 0.4675(2) 0.17237(10)
H10_2 H 0.961527 0.446456 0.172341
C15_2 C 0.8743(3) 0.5139(2) 0.20446(11)
C16_2 C 0.9784(3) 0.5989(2) 0.29417(10)
C18_2 C 0.9427(3) 0.5284(2) 0.23846(10)
C19_2 C 0.9179(3) 0.58436(19) 0.26337(9)
H14_2 H 0.851391 0.616055 0.258414
S1_3 S 0.45694(7) 0.66758(5) 0.82959(3)
N1_3 N 0.3383(2) 0.45187(18) 0.64169(9)
C1_3 C 0.2505(3) 0.4838(2) 0.64212(11)
H1_3 H 0.207109 0.473509 0.621057
C2_3 C 0.2203(3) 0.5321(2) 0.67253(11)
H2_3 H 0.158784 0.553980 0.671277
C3_3 C 0.2826(3) 0.5466(2) 0.70420(11)
H3_3 H 0.263740 0.577708 0.725133
C4_3 C 0.3994(3) 0.4675(2) 0.67237(10)
H4_3 H 0.461527 0.446456 0.672341
C5_3 C 0.3743(3) 0.5139(2) 0.70446(11)
C6_3 C 0.4784(3) 0.5989(2) 0.79417(10)
C7_3 C 0.5266(3) 0.4866(2) 0.74371(10)
H5_3 H 0.541902 0.447943 0.726503
Cu1_3 Cu 0.625000 0.625000 0.84639(2)
N2_3 N 0.5629(2) 0.56155(17) 0.80084(9)
C8_3 C 0.4427(3) 0.5284(2) 0.73846(10)
C9_3 C 0.4179(3) 0.58436(19) 0.76337(9)
C10_3 C 0.5859(3) 0.5057(2) 0.77590(10)
H6_3 H 0.643228 0.479525 0.780574
S2_3 S 0.79306(7) 0.58242(5) 0.82959(3)
N3_3 N 0.9117(2) 0.79813(18) 0.64169(9)
C11_3 C 0.9995(3) 0.7662(2) 0.64212(11)
C13_3 C 0.9674(3) 0.7034(2) 0.70420(11)
H9_3 H 0.986260 0.672292 0.725133
C14_3 C 0.8506(3) 0.7825(2) 0.67237(10)
H10_3 H 0.788473 0.803544 0.672341
C15_3 C 0.8757(3) 0.7361(2) 0.70446(11)
C16_3 C 0.7716(3) 0.6511(2) 0.79417(10)
C17_3 C 0.7234(3) 0.7634(2) 0.74371(10)
H11_3 H 0.708098 0.802057 0.726503
N4_3 N 0.6871(2) 0.68845(17) 0.80084(9)
C18_3 C 0.8073(3) 0.7216(2) 0.73846(10)
C19_3 C 0.8321(3) 0.66564(19) 0.76337(9)
C20_3 C 0.6641(3) 0.7443(2) 0.77590(10)
H12_3 H 0.606772 0.770475 0.780574
N5_3 N 0.5883(2) 0.54813(18) 0.89169(9)
N6_3 N 0.6617(2) 0.70187(18) 0.89169(9)
Cu2_2 Cu 0.875000 0.875000 0.59639(2)
Cu3_2 Cu 0.375000 0.375000 0.59639(2)
H13_3 H 0.351391 0.616055 0.758414
H14_3 H 0.898609 0.633945 0.758414
S1_4 S 0.29306(7) 0.08242(5) 0.82959(3)
N1_4 N 0.4117(2) 0.29813(18) 0.64169(9)
C1_4 C 0.4995(3) 0.2662(2) 0.64212(11)
H1_4 H 0.542891 0.276491 0.621057
C2_4 C 0.5297(3) 0.2179(2) 0.67253(11)
H2_4 H 0.591216 0.196020 0.671277
C3_4 C 0.4674(3) 0.2034(2) 0.70420(11)
H3_4 H 0.486260 0.172292 0.725133
C4_4 C 0.3506(3) 0.2825(2) 0.67237(10)
H4_4 H 0.288473 0.303544 0.672341
C5_4 C 0.3757(3) 0.2361(2) 0.70446(11)
C6_4 C 0.2716(3) 0.1511(2) 0.79417(10)
C7_4 C 0.2234(3) 0.2634(2) 0.74371(10)
H5_4 H 0.208098 0.302057 0.726503
Cu1_4 Cu 0.125000 0.125000 0.84639(2)
N2_4 N 0.1871(2) 0.18845(17) 0.80084(9)
C8_4 C 0.3073(3) 0.2216(2) 0.73846(10)
C9_4 C 0.3321(3) 0.16564(19) 0.76337(9)
C10_4 C 0.1641(3) 0.2443(2) 0.77590(10)
H6_4 H 0.106772 0.270475 0.780574
N4_4 N 0.0629(2) 0.06155(17) 0.80084(9)
C20_4 C 0.0859(3) 0.0057(2) 0.77590(10)
N5_4 N 0.1617(2) 0.20187(18) 0.89169(9)
N6_4 N 0.0883(2) 0.04813(18) 0.89169(9)
H13_4 H 0.398609 0.133945 0.758414
N3_4 N 0.8383(2) 0.95187(18) 0.64169(9)
C11_4 C 0.7505(3) 0.9838(2) 0.64212(11)
H7_3 H 0.707109 0.973509 0.621057
C14_4 C 0.8994(3) 0.9675(2) 0.67237(10)
H10_4 H 0.961527 0.946456 0.672341
S2_4 S 0.04306(7) 0.91758(5) 0.57959(3)
C11_5 C 0.2495(3) 0.7338(2) 0.39212(11)
H7_4 H 0.292891 0.723509 0.371057
C12_3 C 0.2797(3) 0.7821(2) 0.42253(11)
H8_3 H 0.341216 0.803980 0.421277
C13_4 C 0.2174(3) 0.7966(2) 0.45420(11)
H9_4 H 0.236260 0.827708 0.475133
C14_5 C 0.1006(3) 0.7175(2) 0.42237(10)
H10_5 H 0.038473 0.696456 0.422341
C15_4 C 0.1257(3) 0.7639(2) 0.45446(11)
C16_4 C 0.0216(3) 0.8489(2) 0.54417(10)
C18_4 C 0.0573(3) 0.7784(2) 0.48846(10)
C19_4 C 0.0821(3) 0.83436(19) 0.51337(9)
H14_4 H 0.148609 0.866055 0.508414
C1_5 C 0.5005(3) 0.0162(2) 0.39212(11)
H1_5 H 0.457109 0.026491 0.371057
C4_5 C 0.6494(3) 0.0325(2) 0.42237(10)
H4_5 H 0.711527 0.053544 0.422341
C7_5 C 0.7766(3) 0.0134(2) 0.49371(10)
H5_5 H 0.791902 0.052057 0.476503
H6_5 H 0.893228 0.020475 0.530574
S1_5 S 0.70694(7) 0.83242(5) 0.57959(3)
C2_5 C 0.4703(3) 0.9679(2) 0.42253(11)
H2_5 H 0.408784 0.946020 0.421277
C3_5 C 0.5326(3) 0.9534(2) 0.45420(11)
H3_5 H 0.513740 0.922292 0.475133
C5_5 C 0.6243(3) 0.9861(2) 0.45446(11)
C6_5 C 0.7284(3) 0.9011(2) 0.54417(10)
N2_5 N 0.8129(2) 0.93845(17) 0.55084(9)
C8_5 C 0.6927(3) 0.9716(2) 0.48846(10)
C9_5 C 0.6679(3) 0.91564(19) 0.51337(9)
C10_5 C 0.8359(3) 0.9943(2) 0.52590(10)
C17_4 C 0.9734(3) 0.7366(2) 0.49371(10)
H11_4 H 0.958098 0.697943 0.476503
N4_5 N 0.9371(2) 0.81155(17) 0.55084(9)
C20_5 C 0.9141(3) 0.7557(2) 0.52590(10)
H12_4 H 0.856772 0.729525 0.530574
H13_5 H 0.601391 0.883945 0.508414
S1_6 S 0.54306(7) 0.41758(5) 0.57959(3)
C1_6 C 0.7495(3) 0.2338(2) 0.39212(11)
H1_6 H 0.792891 0.223509 0.371057
C2_6 C 0.7797(3) 0.2821(2) 0.42253(11)
H2_6 H 0.841216 0.303980 0.421277
C3_6 C 0.7174(3) 0.2966(2) 0.45420(11)
H3_6 H 0.736260 0.327708 0.475133
C4_6 C 0.6006(3) 0.2175(2) 0.42237(10)
H4_6 H 0.538473 0.196456 0.422341
C5_6 C 0.6257(3) 0.2639(2) 0.45446(11)
C6_6 C 0.5216(3) 0.3489(2) 0.54417(10)
C7_6 C 0.4734(3) 0.2366(2) 0.49371(10)
H5_6 H 0.458098 0.197943 0.476503
N2_6 N 0.4371(2) 0.31155(17) 0.55084(9)
C8_6 C 0.5573(3) 0.2784(2) 0.48846(10)
C9_6 C 0.5821(3) 0.33436(19) 0.51337(9)
C10_6 C 0.4141(3) 0.2557(2) 0.52590(10)
H6_6 H 0.356772 0.229525 0.530574
S2_5 S 0.20694(7) 0.33242(5) 0.57959(3)
C11_6 C 0.0005(3) 0.5162(2) 0.39212(11)
C13_5 C 0.0326(3) 0.4534(2) 0.45420(11)
H9_5 H 0.013740 0.422292 0.475133
C14_6 C 0.1494(3) 0.5325(2) 0.42237(10)
H10_6 H 0.211527 0.553544 0.422341
C15_5 C 0.1243(3) 0.4861(2) 0.45446(11)
C16_5 C 0.2284(3) 0.4011(2) 0.54417(10)
C17_5 C 0.2766(3) 0.5134(2) 0.49371(10)
H11_5 H 0.291902 0.552057 0.476503
N4_6 N 0.3129(2) 0.43845(17) 0.55084(9)
C18_5 C 0.1927(3) 0.4716(2) 0.48846(10)
C19_5 C 0.1679(3) 0.41564(19) 0.51337(9)
C20_6 C 0.3359(3) 0.4943(2) 0.52590(10)
H12_5 H 0.393228 0.520475 0.530574
H13_6 H 0.648609 0.366055 0.508414
H14_5 H 0.101391 0.383945 0.508414
C11_7 C 0.2495(3) 0.2338(2) 0.89212(11)
H7_5 H 0.292891 0.223509 0.871057
C12_4 C 0.2797(3) 0.2821(2) 0.92253(11)
H8_4 H 0.341216 0.303980 0.921277
C13_6 C 0.2174(3) 0.2966(2) 0.95420(11)
H9_6 H 0.236260 0.327708 0.975133
C14_7 C 0.1006(3) 0.2175(2) 0.92237(10)
H10_7 H 0.038473 0.196456 0.922341
C15_6 C 0.1257(3) 0.2639(2) 0.95446(11)
C18_6 C 0.0573(3) 0.2784(2) 0.98846(10)
S1_7 S 0.70694(7) 0.33242(5) 0.07959(3)
C6_7 C 0.7284(3) 0.4011(2) 0.04417(10)
N2_7 N 0.8129(2) 0.43845(17) 0.05084(9)
C9_7 C 0.6679(3) 0.41564(19) 0.01337(9)
C10_7 C 0.8359(3) 0.4943(2) 0.02590(10)
H6_7 H 0.893228 0.520475 0.030574
N4_7 N 0.9371(2) 0.31155(17) 0.05084(9)
C20_7 C 0.9141(3) 0.2557(2) 0.02590(10)
H12_6 H 0.856772 0.229525 0.030574
H13_7 H 0.601391 0.383945 0.00841365
C1_7 C 0.5005(3) 0.5162(2) 0.89212(11)
H1_7 H 0.457109 0.526491 0.871057
C2_7 C 0.4703(3) 0.4679(2) 0.92253(11)
H2_7 H 0.408784 0.446020 0.921277
C3_7 C 0.5326(3) 0.4534(2) 0.95420(11)
H3_7 H 0.513740 0.422292 0.975133
C4_7 C 0.6494(3) 0.5325(2) 0.92237(10)
H4_7 H 0.711527 0.553544 0.922341
C5_7 C 0.6243(3) 0.4861(2) 0.95446(11)
C7_7 C 0.7766(3) 0.5134(2) 0.99371(10)
H5_7 H 0.791902 0.552057 0.976503
C8_7 C 0.6927(3) 0.4716(2) 0.98846(10)
C17_6 C 0.9734(3) 0.2366(2) 0.99371(10)
H11_6 H 0.958098 0.197943 0.976503
C11_8 C 0.0005(3) 0.0162(2) 0.89212(11)
C14_8 C 0.1494(3) 0.0325(2) 0.92237(10)
H10_8 H 0.211527 0.053544 0.922341
C17_7 C 0.2766(3) 0.0134(2) 0.99371(10)
H11_7 H 0.291902 0.052057 0.976503
S1_8 S 0.54306(7) 0.91758(5) 0.07959(3)
C6_8 C 0.5216(3) 0.8489(2) 0.04417(10)
N2_8 N 0.4371(2) 0.81155(17) 0.05084(9)
C9_8 C 0.5821(3) 0.83436(19) 0.01337(9)
C10_8 C 0.4141(3) 0.7557(2) 0.02590(10)
H6_8 H 0.356772 0.729525 0.030574
S2_6 S 0.20694(7) 0.83242(5) 0.07959(3)
C16_6 C 0.2284(3) 0.9011(2) 0.04417(10)
N4_8 N 0.3129(2) 0.93845(17) 0.05084(9)
C19_6 C 0.1679(3) 0.91564(19) 0.01337(9)
C20_8 C 0.3359(3) 0.9943(2) 0.02590(10)
H13_8 H 0.648609 0.866055 0.00841365
H14_6 H 0.101391 0.883945 0.00841365
C1_8 C 0.7495(3) 0.7338(2) 0.89212(11)
H1_8 H 0.792891 0.723509 0.871057
C2_8 C 0.7797(3) 0.7821(2) 0.92253(11)
H2_8 H 0.841216 0.803980 0.921277
C3_8 C 0.7174(3) 0.7966(2) 0.95420(11)
H3_8 H 0.736260 0.827708 0.975133
C4_8 C 0.6006(3) 0.7175(2) 0.92237(10)
H4_8 H 0.538473 0.696456 0.922341
C5_8 C 0.6257(3) 0.7639(2) 0.95446(11)
C7_8 C 0.4734(3) 0.7366(2) 0.99371(10)
H5_8 H 0.458098 0.697943 0.976503
C8_8 C 0.5573(3) 0.7784(2) 0.98846(10)
C13_7 C 0.0326(3) 0.9534(2) 0.95420(11)
H9_7 H 0.013740 0.922292 0.975133
C15_7 C 0.1243(3) 0.9861(2) 0.95446(11)
C18_7 C 0.1927(3) 0.9716(2) 0.98846(10)
S1_9 S 0.29306(7) 0.16758(5) 0.42041(3)
C2_9 C 0.5297(3) 0.0321(2) 0.57747(11)
H2_9 H 0.591216 0.053980 0.578723
C3_9 C 0.4674(3) 0.0466(2) 0.54580(11)
H3_9 H 0.486260 0.077708 0.524867
C5_9 C 0.3757(3) 0.0139(2) 0.54554(11)
C6_9 C 0.2716(3) 0.0989(2) 0.45583(10)
Cu1_5 Cu 0.125000 0.125000 0.40361(2)
N2_9 N 0.1871(2) 0.06155(17) 0.44916(9)
C8_9 C 0.3073(3) 0.0284(2) 0.51154(10)
C9_9 C 0.3321(3) 0.08436(19) 0.48663(9)
C10_9 C 0.1641(3) 0.0057(2) 0.47410(10)
C17_8 C 0.0266(3) 0.2634(2) 0.50629(10)
H11_8 H 0.041902 0.302057 0.523497
N4_9 N 0.0629(2) 0.18845(17) 0.44916(9)
C20_9 C 0.0859(3) 0.2443(2) 0.47410(10)
H12_7 H 0.143228 0.270475 0.469426
N5_5 N 0.1617(2) 0.04813(18) 0.35831(9)
N6_5 N 0.0883(2) 0.20187(18) 0.35831(9)
H13_9 H 0.398609 0.116055 0.491586
N1_5 N 0.4117(2) 0.95187(18) 0.60831(9)
C1_9 C 0.4995(3) 0.9838(2) 0.60788(11)
H1_9 H 0.542891 0.973509 0.628943
C4_9 C 0.3506(3) 0.9675(2) 0.57763(10)
H4_9 H 0.288473 0.946456 0.577659
C7_9 C 0.2234(3) 0.9866(2) 0.50629(10)
H5_9 H 0.208098 0.947943 0.523497
H6_9 H 0.106772 0.979525 0.469426
Cu3_3 Cu 0.375000 0.875000 0.65361(2)
S2_7 S 0.95694(7) 0.08242(5) 0.42041(3)
N3_5 N 0.8383(2) 0.29813(18) 0.60831(9)
C11_9 C 0.7505(3) 0.2662(2) 0.60788(11)
H7_6 H 0.707109 0.276491 0.628943
C12_5 C 0.7203(3) 0.2179(2) 0.57747(11)
H8_5 H 0.658784 0.196020 0.578723
C13_8 C 0.7826(3) 0.2034(2) 0.54580(11)
H9_8 H 0.763740 0.172292 0.524867
C14_9 C 0.8994(3) 0.2825(2) 0.57763(10)
H10_9 H 0.961527 0.303544 0.577659
C15_8 C 0.8743(3) 0.2361(2) 0.54554(11)
C16_7 C 0.9784(3) 0.1511(2) 0.45583(10)
C18_8 C 0.9427(3) 0.2216(2) 0.51154(10)
C19_7 C 0.9179(3) 0.16564(19) 0.48663(9)
Cu2_3 Cu 0.875000 0.375000 0.65361(2)
H14_7 H 0.851391 0.133945 0.491586
S1_10 S 0.45694(7) 0.58242(5) 0.42041(3)
N1_6 N 0.3383(2) 0.79813(18) 0.60831(9)
C1_10 C 0.2505(3) 0.7662(2) 0.60788(11)
H1_10 H 0.207109 0.776491 0.628943
C2_10 C 0.2203(3) 0.7179(2) 0.57747(11)
H2_10 H 0.158784 0.696020 0.578723
C3_10 C 0.2826(3) 0.7034(2) 0.54580(11)
H3_10 H 0.263740 0.672292 0.524867
C4_10 C 0.3994(3) 0.7825(2) 0.57763(10)
H4_10 H 0.461527 0.803544 0.577659
C5_10 C 0.3743(3) 0.7361(2) 0.54554(11)
C6_10 C 0.4784(3) 0.6511(2) 0.45583(10)
C7_10 C 0.5266(3) 0.7634(2) 0.50629(10)
H5_10 H 0.541902 0.802057 0.523497
Cu1_6 Cu 0.625000 0.625000 0.40361(2)
N2_10 N 0.5629(2) 0.68845(17) 0.44916(9)
C8_10 C 0.4427(3) 0.7216(2) 0.51154(10)
C9_10 C 0.4179(3) 0.66564(19) 0.48663(9)
C10_10 C 0.5859(3) 0.7443(2) 0.47410(10)
H6_10 H 0.643228 0.770475 0.469426
S2_8 S 0.79306(7) 0.66758(5) 0.42041(3)
N3_6 N 0.9117(2) 0.45187(18) 0.60831(9)
C11_10 C 0.9995(3) 0.4838(2) 0.60788(11)
C13_9 C 0.9674(3) 0.5466(2) 0.54580(11)
H9_9 H 0.986260 0.577708 0.524867
C14_10 C 0.8506(3) 0.4675(2) 0.57763(10)
H10_10 H 0.788473 0.446456 0.577659
C15_9 C 0.8757(3) 0.5139(2) 0.54554(11)
C16_8 C 0.7716(3) 0.5989(2) 0.45583(10)
C17_9 C 0.7234(3) 0.4866(2) 0.50629(10)
H11_9 H 0.708098 0.447943 0.523497
N4_10 N 0.6871(2) 0.56155(17) 0.44916(9)
C18_9 C 0.8073(3) 0.5284(2) 0.51154(10)
C19_8 C 0.8321(3) 0.58436(19) 0.48663(9)
C20_10 C 0.6641(3) 0.5057(2) 0.47410(10)
H12_8 H 0.606772 0.479525 0.469426
N5_6 N 0.5883(2) 0.70187(18) 0.35831(9)
N6_6 N 0.6617(2) 0.54813(18) 0.35831(9)
H13_10 H 0.351391 0.633945 0.491586
H14_8 H 0.898609 0.616055 0.491586
N1_7 N 0.4117(2) 0.45187(18) 0.10831(9)
C1_11 C 0.4995(3) 0.4838(2) 0.10788(11)
H1_11 H 0.542891 0.473509 0.128943
C2_11 C 0.5297(3) 0.5321(2) 0.07747(11)
H2_11 H 0.591216 0.553980 0.078723
C3_11 C 0.4674(3) 0.5466(2) 0.04580(11)
H3_11 H 0.486260 0.577708 0.024867
C4_11 C 0.3506(3) 0.4675(2) 0.07763(10)
H4_11 H 0.288473 0.446456 0.077659
C5_11 C 0.3757(3) 0.5139(2) 0.04554(11)
C7_11 C 0.2234(3) 0.4866(2) 0.00629(10)
H5_11 H 0.208098 0.447943 0.023497
C8_11 C 0.3073(3) 0.5284(2) 0.01154(10)
C17_10 C 0.0266(3) 0.7634(2) 0.00629(10)
H11_10 H 0.041902 0.802057 0.023497
Cu3_4 Cu 0.375000 0.375000 0.15361(2)
S1_11 S 0.29306(7) 0.66758(5) 0.92041(3)
C6_11 C 0.2716(3) 0.5989(2) 0.95583(10)
Cu1_7 Cu 0.125000 0.625000 0.90361(2)
N2_11 N 0.1871(2) 0.56155(17) 0.94916(9)
C9_11 C 0.3321(3) 0.58436(19) 0.98663(9)
C10_11 C 0.1641(3) 0.5057(2) 0.97410(10)
H6_11 H 0.106772 0.479525 0.969426
N4_11 N 0.0629(2) 0.68845(17) 0.94916(9)
C20_11 C 0.0859(3) 0.7443(2) 0.97410(10)
H12_9 H 0.143228 0.770475 0.969426
N5_7 N 0.1617(2) 0.54813(18) 0.85831(9)
N6_7 N 0.0883(2) 0.70187(18) 0.85831(9)
H13_11 H 0.398609 0.616055 0.991586
N3_7 N 0.8383(2) 0.79813(18) 0.10831(9)
C11_11 C 0.7505(3) 0.7662(2) 0.10788(11)
H7_7 H 0.707109 0.776491 0.128943
C12_6 C 0.7203(3) 0.7179(2) 0.07747(11)
H8_6 H 0.658784 0.696020 0.078723
C13_10 C 0.7826(3) 0.7034(2) 0.04580(11)
H9_10 H 0.763740 0.672292 0.024867
C14_11 C 0.8994(3) 0.7825(2) 0.07763(10)
H10_11 H 0.961527 0.803544 0.077659
C15_10 C 0.8743(3) 0.7361(2) 0.04554(11)
C18_10 C 0.9427(3) 0.7216(2) 0.01154(10)
Cu2_4 Cu 0.875000 0.875000 0.15361(2)
N1_8 N 0.3383(2) 0.29813(18) 0.10831(9)
C1_12 C 0.2505(3) 0.2662(2) 0.10788(11)
H1_12 H 0.207109 0.276491 0.128943
C2_12 C 0.2203(3) 0.2179(2) 0.07747(11)
H2_12 H 0.158784 0.196020 0.078723
C3_12 C 0.2826(3) 0.2034(2) 0.04580(11)
H3_12 H 0.263740 0.172292 0.024867
C4_12 C 0.3994(3) 0.2825(2) 0.07763(10)
H4_12 H 0.461527 0.303544 0.077659
C5_12 C 0.3743(3) 0.2361(2) 0.04554(11)
C7_12 C 0.5266(3) 0.2634(2) 0.00629(10)
H5_12 H 0.541902 0.302057 0.023497
C8_12 C 0.4427(3) 0.2216(2) 0.01154(10)
C13_11 C 0.9674(3) 0.0466(2) 0.04580(11)
H9_11 H 0.986260 0.077708 0.024867
C15_11 C 0.8757(3) 0.0139(2) 0.04554(11)
C18_11 C 0.8073(3) 0.0284(2) 0.01154(10)
S1_12 S 0.45694(7) 0.08242(5) 0.92041(3)
C6_12 C 0.4784(3) 0.1511(2) 0.95583(10)
Cu1_8 Cu 0.625000 0.125000 0.90361(2)
N2_12 N 0.5629(2) 0.18845(17) 0.94916(9)
C9_12 C 0.4179(3) 0.16564(19) 0.98663(9)
C10_12 C 0.5859(3) 0.2443(2) 0.97410(10)
H6_12 H 0.643228 0.270475 0.969426
S2_9 S 0.79306(7) 0.16758(5) 0.92041(3)
C16_9 C 0.7716(3) 0.0989(2) 0.95583(10)
N4_12 N 0.6871(2) 0.06155(17) 0.94916(9)
C19_9 C 0.8321(3) 0.08436(19) 0.98663(9)
C20_12 C 0.6641(3) 0.0057(2) 0.97410(10)
N5_8 N 0.5883(2) 0.20187(18) 0.85831(9)
N6_8 N 0.6617(2) 0.04813(18) 0.85831(9)
H13_12 H 0.351391 0.133945 0.991586
H14_9 H 0.898609 0.116055 0.991586
N3_8 N 0.9117(2) 0.95187(18) 0.10831(9)
C11_12 C 0.9995(3) 0.9838(2) 0.10788(11)
C14_12 C 0.8506(3) 0.9675(2) 0.07763(10)
H10_12 H 0.788473 0.946456 0.077659
C17_11 C 0.7234(3) 0.9866(2) 0.00629(10)
H11_11 H 0.708098 0.947943 0.023497
C1_13 C 0.7495(3) 0.0162(2) 0.85788(11)
H1_13 H 0.792891 0.026491 0.878943
C4_13 C 0.6006(3) 0.0325(2) 0.82763(10)
H4_13 H 0.538473 0.053544 0.827659
C7_13 C 0.4734(3) 0.0134(2) 0.75629(10)
H5_13 H 0.458098 0.052057 0.773497
H6_13 H 0.356772 0.020475 0.719426
S1_13 S 0.54306(7) 0.83242(5) 0.67041(3)
C2_13 C 0.7797(3) 0.9679(2) 0.82747(11)
H2_13 H 0.841216 0.946020 0.828723
C3_13 C 0.7174(3) 0.9534(2) 0.79580(11)
H3_13 H 0.736260 0.922292 0.774867
C5_13 C 0.6257(3) 0.9861(2) 0.79554(11)
C6_13 C 0.5216(3) 0.9011(2) 0.70583(10)
N2_13 N 0.4371(2) 0.93845(17) 0.69916(9)
C8_13 C 0.5573(3) 0.9716(2) 0.76154(10)
C9_13 C 0.5821(3) 0.91564(19) 0.73663(9)
C10_13 C 0.4141(3) 0.9943(2) 0.72410(10)
S2_10 S 0.20694(7) 0.91758(5) 0.67041(3)
C11_13 C 0.0005(3) 0.7338(2) 0.85788(11)
C13_12 C 0.0326(3) 0.7966(2) 0.79580(11)
H9_12 H 0.013740 0.827708 0.774867
C14_13 C 0.1494(3) 0.7175(2) 0.82763(10)
H10_13 H 0.211527 0.696456 0.827659
C15_12 C 0.1243(3) 0.7639(2) 0.79554(11)
C16_10 C 0.2284(3) 0.8489(2) 0.70583(10)
C17_12 C 0.2766(3) 0.7366(2) 0.75629(10)
H11_12 H 0.291902 0.697943 0.773497
N4_13 N 0.3129(2) 0.81155(17) 0.69916(9)
C18_12 C 0.1927(3) 0.7784(2) 0.76154(10)
C19_10 C 0.1679(3) 0.83436(19) 0.73663(9)
C20_13 C 0.3359(3) 0.7557(2) 0.72410(10)
H12_10 H 0.393228 0.729525 0.719426
H13_13 H 0.648609 0.883945 0.741586
H14_10 H 0.101391 0.866055 0.741586
S2_11 S 0.04306(7) 0.33242(5) 0.67041(3)
C11_14 C 0.2495(3) 0.5162(2) 0.85788(11)
H7_8 H 0.292891 0.526491 0.878943
C12_7 C 0.2797(3) 0.4679(2) 0.82747(11)
H8_7 H 0.341216 0.446020 0.828723
C13_13 C 0.2174(3) 0.4534(2) 0.79580(11)
H9_13 H 0.236260 0.422292 0.774867
C14_14 C 0.1006(3) 0.5325(2) 0.82763(10)
H10_14 H 0.038473 0.553544 0.827659
C15_13 C 0.1257(3) 0.4861(2) 0.79554(11)
C16_11 C 0.0216(3) 0.4011(2) 0.70583(10)
C18_13 C 0.0573(3) 0.4716(2) 0.76154(10)
C19_11 C 0.0821(3) 0.41564(19) 0.73663(9)
H14_11 H 0.148609 0.383945 0.741586
S1_14 S 0.70694(7) 0.41758(5) 0.67041(3)
C1_14 C 0.5005(3) 0.2338(2) 0.85788(11)
H1_14 H 0.457109 0.223509 0.878943
C2_14 C 0.4703(3) 0.2821(2) 0.82747(11)
H2_14 H 0.408784 0.303980 0.828723
C3_14 C 0.5326(3) 0.2966(2) 0.79580(11)
H3_14 H 0.513740 0.327708 0.774867
C4_14 C 0.6494(3) 0.2175(2) 0.82763(10)
H4_14 H 0.711527 0.196456 0.827659
C5_14 C 0.6243(3) 0.2639(2) 0.79554(11)
C6_14 C 0.7284(3) 0.3489(2) 0.70583(10)
C7_14 C 0.7766(3) 0.2366(2) 0.75629(10)
H5_14 H 0.791902 0.197943 0.773497
N2_14 N 0.8129(2) 0.31155(17) 0.69916(9)
C8_14 C 0.6927(3) 0.2784(2) 0.76154(10)
C9_14 C 0.6679(3) 0.33436(19) 0.73663(9)
C10_14 C 0.8359(3) 0.2557(2) 0.72410(10)
H6_14 H 0.893228 0.229525 0.719426
C17_13 C 0.9734(3) 0.5134(2) 0.75629(10)
H11_13 H 0.958098 0.552057 0.773497
N4_14 N 0.9371(2) 0.43845(17) 0.69916(9)
C20_14 C 0.9141(3) 0.4943(2) 0.72410(10)
H12_11 H 0.856772 0.520475 0.719426
H13_14 H 0.601391 0.366055 0.741586
S1_15 S 0.54306(7) 0.33242(5) 0.17041(3)
C1_15 C 0.7495(3) 0.5162(2) 0.35788(11)
H1_15 H 0.792891 0.526491 0.378943
C2_15 C 0.7797(3) 0.4679(2) 0.32747(11)
H2_15 H 0.841216 0.446020 0.328723
C3_15 C 0.7174(3) 0.4534(2) 0.29580(11)
H3_15 H 0.736260 0.422292 0.274867
C4_15 C 0.6006(3) 0.5325(2) 0.32763(10)
H4_15 H 0.538473 0.553544 0.327659
C5_15 C 0.6257(3) 0.4861(2) 0.29554(11)
C6_15 C 0.5216(3) 0.4011(2) 0.20583(10)
C7_15 C 0.4734(3) 0.5134(2) 0.25629(10)
H5_15 H 0.458098 0.552057 0.273497
N2_15 N 0.4371(2) 0.43845(17) 0.19916(9)
C8_15 C 0.5573(3) 0.4716(2) 0.26154(10)
C9_15 C 0.5821(3) 0.41564(19) 0.23663(9)
C10_15 C 0.4141(3) 0.4943(2) 0.22410(10)
H6_15 H 0.356772 0.520475 0.219426
S2_12 S 0.20694(7) 0.41758(5) 0.17041(3)
C11_15 C 0.0005(3) 0.2338(2) 0.35788(11)
C13_14 C 0.0326(3) 0.2966(2) 0.29580(11)
H9_14 H 0.013740 0.327708 0.274867
C14_15 C 0.1494(3) 0.2175(2) 0.32763(10)
H10_15 H 0.211527 0.196456 0.327659
C15_14 C 0.1243(3) 0.2639(2) 0.29554(11)
C16_12 C 0.2284(3) 0.3489(2) 0.20583(10)
C17_14 C 0.2766(3) 0.2366(2) 0.25629(10)
H11_14 H 0.291902 0.197943 0.273497
N4_15 N 0.3129(2) 0.31155(17) 0.19916(9)
C18_14 C 0.1927(3) 0.2784(2) 0.26154(10)
C19_12 C 0.1679(3) 0.33436(19) 0.23663(9)
C20_15 C 0.3359(3) 0.2557(2) 0.22410(10)
H12_12 H 0.393228 0.229525 0.219426
H13_15 H 0.648609 0.383945 0.241586
H14_12 H 0.101391 0.366055 0.241586
C11_16 C 0.2495(3) 0.0162(2) 0.35788(11)
H7_9 H 0.292891 0.026491 0.378943
C14_16 C 0.1006(3) 0.0325(2) 0.32763(10)
H10_16 H 0.038473 0.053544 0.327659
S1_16 S 0.70694(7) 0.91758(5) 0.17041(3)
C1_16 C 0.5005(3) 0.7338(2) 0.35788(11)
H1_16 H 0.457109 0.723509 0.378943
C2_16 C 0.4703(3) 0.7821(2) 0.32747(11)
H2_16 H 0.408784 0.803980 0.328723
C3_16 C 0.5326(3) 0.7966(2) 0.29580(11)
H3_16 H 0.513740 0.827708 0.274867
C4_16 C 0.6494(3) 0.7175(2) 0.32763(10)
H4_16 H 0.711527 0.696456 0.327659
C5_16 C 0.6243(3) 0.7639(2) 0.29554(11)
C6_16 C 0.7284(3) 0.8489(2) 0.20583(10)
C7_16 C 0.7766(3) 0.7366(2) 0.25629(10)
H5_16 H 0.791902 0.697943 0.273497
N2_16 N 0.8129(2) 0.81155(17) 0.19916(9)
C8_16 C 0.6927(3) 0.7784(2) 0.26154(10)
C9_16 C 0.6679(3) 0.83436(19) 0.23663(9)
C10_16 C 0.8359(3) 0.7557(2) 0.22410(10)
H6_16 H 0.893228 0.729525 0.219426
N4_16 N 0.9371(2) 0.93845(17) 0.19916(9)
C20_16 C 0.9141(3) 0.9943(2) 0.22410(10)
H13_16 H 0.601391 0.866055 0.241586
H7_10 H 0.042891 0.473509 0.628943
C12_8 C 0.0297(3) 0.5321(2) 0.57747(11)
H8_8 H 0.091216 0.553980 0.578723
H7_11 H 0.042891 0.776491 0.621057
C12_9 C 0.0297(3) 0.7179(2) 0.67253(11)
H8_9 H 0.091216 0.696020 0.671277
C17_15 C 0.0266(3) 0.9866(2) 0.74371(10)
H11_15 H 0.041902 0.947943 0.726503
H12_13 H 0.143228 0.979525 0.780574
S2_13 S 0.95694(7) 0.16758(5) 0.82959(3)
C12_10 C 0.7203(3) 0.0321(2) 0.67253(11)
H8_10 H 0.658784 0.053980 0.671277
C13_15 C 0.7826(3) 0.0466(2) 0.70420(11)
H9_15 H 0.763740 0.077708 0.725133
C15_15 C 0.8743(3) 0.0139(2) 0.70446(11)
C16_13 C 0.9784(3) 0.0989(2) 0.79417(10)
C18_15 C 0.9427(3) 0.0284(2) 0.73846(10)
C19_13 C 0.9179(3) 0.08436(19) 0.76337(9)
H14_13 H 0.851391 0.116055 0.758414
S2_14 S 0.95694(7) 0.58242(5) 0.92041(3)
C16_14 C 0.9784(3) 0.6511(2) 0.95583(10)
C19_14 C 0.9179(3) 0.66564(19) 0.98663(9)
H14_14 H 0.851391 0.633945 0.991586
C12_11 C 0.0297(3) 0.0321(2) 0.07747(11)
H8_11 H 0.091216 0.053980 0.078723
H7_12 H 0.042891 0.973509 0.128943
H12_14 H 0.606772 0.979525 0.969426
H7_13 H 0.957109 0.723509 0.878943
C12_12 C 0.9703(3) 0.7821(2) 0.82747(11)
H8_12 H 0.908784 0.803980 0.828723
H7_14 H 0.957109 0.526491 0.371057
C12_13 C 0.9703(3) 0.4679(2) 0.42253(11)
H8_13 H 0.908784 0.446020 0.421277
H7_15 H 0.957109 0.223509 0.378943
C12_14 C 0.9703(3) 0.2821(2) 0.32747(11)
H8_14 H 0.908784 0.303980 0.328723
S2_15 S 0.04306(7) 0.83242(5) 0.17041(3)
C12_15 C 0.2797(3) 0.9679(2) 0.32747(11)
H8_15 H 0.341216 0.946020 0.328723
C13_16 C 0.2174(3) 0.9534(2) 0.29580(11)
H9_16 H 0.236260 0.922292 0.274867
C15_16 C 0.1257(3) 0.9861(2) 0.29554(11)
C16_15 C 0.0216(3) 0.9011(2) 0.20583(10)
C18_16 C 0.0573(3) 0.9716(2) 0.26154(10)
C19_15 C 0.0821(3) 0.91564(19) 0.23663(9)
H14_15 H 0.148609 0.883945 0.241586
C17_16 C 0.9734(3) 0.0134(2) 0.25629(10)
H11_16 H 0.958098 0.052057 0.273497
H12_15 H 0.856772 0.020475 0.219426
S2_16 S 0.04306(7) 0.41758(5) 0.07959(3)
C16_16 C 0.0216(3) 0.3489(2) 0.04417(10)
C19_16 C 0.0821(3) 0.33436(19) 0.01337(9)
H14_16 H 0.148609 0.366055 0.00841365
H12_16 H 0.393228 0.020475 0.030574
H7_16 H 0.957109 0.026491 0.871057
C12_16 C 0.9703(3) 0.9679(2) 0.92253(11)
H8_16 H 0.908784 0.946020 0.921277
loop_
_geom_bond_atom_site_label_1
_geom_bond_atom_site_label_2
_geom_bond_site_symmetry_1
_geom_bond_site_symmetry_2
H8 C12 1_555 1_555
S1 C6 1_555 1_555
H2 C2 1_555 1_555
C3 C2 1_555 1_555
H3 C3 1_555 1_555
C5 C3 1_555 1_555
C6 N2 1_555 1_555
Cu1 S1 1_555 1_555
N2 Cu1 1_555 1_555
C8 C5 1_555 1_555
C9 C6 1_555 1_555
S2 Cu1 1_555 1_555
N3 C11 1_555 1_555
H9 C13 1_555 1_555
C14 N3 1_555 1_555
H10 C14 1_555 1_555
C15 C13 1_555 1_555
C16 S2 1_555 1_555
C17 H11 1_555 1_555
N4 Cu1 1_555 1_555
C18 C15 1_555 1_555
C19 C16 1_555 1_555
C20 C17 1_555 1_555
H12 C20 1_555 1_555
N5 Cu1 1_555 1_555
N6 Cu1 1_555 1_555
Cu2 N3 1_555 1_555
N2 C10 1_555 1_555
C8 C9 1_555 1_555
C14 C15 1_555 1_555
C16 N4 1_555 1_555
C17 C18 1_555 1_555
N4 C20 1_555 1_555
C18 C19 1_555 1_555
C9 H13 1_555 1_555
C19 H14 1_555 1_555
N1 C1 1_555 1_555
C1 H1 1_555 1_555
C4 N1 1_555 1_555
H4 C4 1_555 1_555
C7 H5 1_555 1_555
Cu3 N1 1_555 1_555
S1_2 C6_2 1_555 1_555
N1_2 C1_2 1_555 1_555
C1_2 H1_2 1_555 1_555
C2_2 C1_2 1_555 1_555
H2_2 C2_2 1_555 1_555
C3_2 C2_2 1_555 1_555
H3_2 C3_2 1_555 1_555
C4_2 N1_2 1_555 1_555
H4_2 C4_2 1_555 1_555
C5_2 C3_2 1_555 1_555
C6_2 N2_2 1_555 1_555
C7_2 H5_2 1_555 1_555
Cu1_2 S1_2 1_555 1_555
N2_2 Cu1_2 1_555 1_555
C8_2 C5_2 1_555 1_555
C9_2 C6_2 1_555 1_555
C10_2 C7_2 1_555 1_555
H6_2 C10_2 1_555 1_555
C17_2 H11_2 1_555 1_555
N4_2 Cu1_2 1_555 1_555
C20_2 C17_2 1_555 1_555
H12_2 C20_2 1_555 1_555
N5_2 Cu1_2 1_555 1_555
N6_2 Cu1_2 1_555 1_555
Cu3 N1_2 1_555 1_555
C4_2 C5_2 1_555 1_555
C7_2 C8_2 1_555 1_555
N2_2 C10_2 1_555 1_555
C8_2 C9_2 1_555 1_555
N4_2 C20_2 1_555 1_555
C9_2 H13_2 1_555 1_555
N3_2 C11_2 1_555 1_555
C11_2 H7_2 1_555 1_555
C12_2 C11_2 1_555 1_555
H8_2 C12_2 1_555 1_555
C13_2 C12_2 1_555 1_555
H9_2 C13_2 1_555 1_555
C14_2 N3_2 1_555 1_555
H10_2 C14_2 1_555 1_555
C15_2 C13_2 1_555 1_555
C16_2 S2_2 1_555 1_555
C18_2 C15_2 1_555 1_555
C19_2 C16_2 1_555 1_555
Cu2 N3_2 1_555 1_555
C14_2 C15_2 1_555 1_555
C18_2 C19_2 1_555 1_555
C19_2 H14_2 1_555 1_555
S1_3 C6_3 1_555 1_555
N1_3 C1_3 1_555 1_555
C1_3 H1_3 1_555 1_555
C2_3 C1_3 1_555 1_555
H2_3 C2_3 1_555 1_555
C3_3 C2_3 1_555 1_555
H3_3 C3_3 1_555 1_555
C4_3 N1_3 1_555 1_555
H4_3 C4_3 1_555 1_555
C5_3 C3_3 1_555 1_555
C6_3 N2_3 1_555 1_555
C7_3 H5_3 1_555 1_555
Cu1_3 S1_3 1_555 1_555
N2_3 Cu1_3 1_555 1_555
C8_3 C5_3 1_555 1_555
C9_3 C6_3 1_555 1_555
C10_3 C7_3 1_555 1_555
H6_3 C10_3 1_555 1_555
S2_3 Cu1_3 1_555 1_555
N3_3 C11_3 1_555 1_555
H9_3 C13_3 1_555 1_555
C14_3 N3_3 1_555 1_555
H10_3 C14_3 1_555 1_555
C15_3 C13_3 1_555 1_555
C16_3 S2_3 1_555 1_555
C17_3 H11_3 1_555 1_555
N4_3 Cu1_3 1_555 1_555
C18_3 C15_3 1_555 1_555
C19_3 C16_3 1_555 1_555
C20_3 C17_3 1_555 1_555
H12_3 C20_3 1_555 1_555
N5_3 Cu1_3 1_555 1_555
N6_3 Cu1_3 1_555 1_555
Cu2_2 N3_3 1_555 1_555
Cu3_2 N1_3 1_555 1_555
C4_3 C5_3 1_555 1_555
C7_3 C8_3 1_555 1_555
N2_3 C10_3 1_555 1_555
C8_3 C9_3 1_555 1_555
C14_3 C15_3 1_555 1_555
C16_3 N4_3 1_555 1_555
C17_3 C18_3 1_555 1_555
N4_3 C20_3 1_555 1_555
C18_3 C19_3 1_555 1_555
C9_3 H13_3 1_555 1_555
C19_3 H14_3 1_555 1_555
S1_4 C6_4 1_555 1_555
N1_4 C1_4 1_555 1_555
C1_4 H1_4 1_555 1_555
C2_4 C1_4 1_555 1_555
H2_4 C2_4 1_555 1_555
C3_4 C2_4 1_555 1_555
H3_4 C3_4 1_555 1_555
C4_4 N1_4 1_555 1_555
H4_4 C4_4 1_555 1_555
C5_4 C3_4 1_555 1_555
C6_4 N2_4 1_555 1_555
C7_4 H5_4 1_555 1_555
Cu1_4 S1_4 1_555 1_555
N2_4 Cu1_4 1_555 1_555
C8_4 C5_4 1_555 1_555
C9_4 C6_4 1_555 1_555
C10_4 C7_4 1_555 1_555
H6_4 C10_4 1_555 1_555
N4_4 Cu1_4 1_555 1_555
N5_4 Cu1_4 1_555 1_555
N6_4 Cu1_4 1_555 1_555
Cu3_2 N1_4 1_555 1_555
C4_4 C5_4 1_555 1_555
C7_4 C8_4 1_555 1_555
N2_4 C10_4 1_555 1_555
C8_4 C9_4 1_555 1_555
N4_4 C20_4 1_555 1_555
C9_4 H13_4 1_555 1_555
N3_4 C11_4 1_555 1_555
C11_4 H7_3 1_555 1_555
C14_4 N3_4 1_555 1_555
H10_4 C14_4 1_555 1_555
Cu2_2 N3_4 1_555 1_555
N5_2 C11_5 1_555 1_555
C11_5 H7_4 1_555 1_555
C12_3 C11_5 1_555 1_555
H8_3 C12_3 1_555 1_555
C13_4 C12_3 1_555 1_555
H9_4 C13_4 1_555 1_555
C14_5 N5_2 1_555 1_555
H10_5 C14_5 1_555 1_555
C15_4 C13_4 1_555 1_555
C16_4 S2_4 1_555 1_555
C18_4 C15_4 1_555 1_555
C19_4 C16_4 1_555 1_555
C14_5 C15_4 1_555 1_555
C18_4 C19_4 1_555 1_555
C19_4 H14_4 1_555 1_555
N5 C1_5 1_555 1_555
C1_5 H1_5 1_555 1_555
C4_5 N5 1_555 1_555
H4_5 C4_5 1_555 1_555
C7_5 H5_5 1_555 1_555
S1_5 C6_5 1_555 1_555
H2_5 C2_5 1_555 1_555
C3_5 C2_5 1_555 1_555
H3_5 C3_5 1_555 1_555
C5_5 C3_5 1_555 1_555
C6_5 N2_5 1_555 1_555
Cu2_2 S1_5 1_555 1_555
N2_5 Cu2_2 1_555 1_555
C8_5 C5_5 1_555 1_555
C9_5 C6_5 1_555 1_555
C17_4 H11_4 1_555 1_555
N4_5 Cu2_2 1_555 1_555
C20_5 C17_4 1_555 1_555
H12_4 C20_5 1_555 1_555
N2_5 C10_5 1_555 1_555
C8_5 C9_5 1_555 1_555
N4_5 C20_5 1_555 1_555
C9_5 H13_5 1_555 1_555
S1_6 C6_6 1_555 1_555
N6 C1_6 1_555 1_555
C1_6 H1_6 1_555 1_555
C2_6 C1_6 1_555 1_555
H2_6 C2_6 1_555 1_555
C3_6 C2_6 1_555 1_555
H3_6 C3_6 1_555 1_555
C4_6 N6 1_555 1_555
H4_6 C4_6 1_555 1_555
C5_6 C3_6 1_555 1_555
C6_6 N2_6 1_555 1_555
C7_6 H5_6 1_555 1_555
Cu3_2 S1_6 1_555 1_555
N2_6 Cu3_2 1_555 1_555
C8_6 C5_6 1_555 1_555
C9_6 C6_6 1_555 1_555
C10_6 C7_6 1_555 1_555
H6_6 C10_6 1_555 1_555
S2_5 Cu3_2 1_555 1_555
N6_2 C11_6 1_555 1_555
H9_5 C13_5 1_555 1_555
C14_6 N6_2 1_555 1_555
H10_6 C14_6 1_555 1_555
C15_5 C13_5 1_555 1_555
C16_5 S2_5 1_555 1_555
C17_5 H11_5 1_555 1_555
N4_6 Cu3_2 1_555 1_555
C18_5 C15_5 1_555 1_555
C19_5 C16_5 1_555 1_555
C20_6 C17_5 1_555 1_555
H12_5 C20_6 1_555 1_555
C4_6 C5_6 1_555 1_555
C7_6 C8_6 1_555 1_555
N2_6 C10_6 1_555 1_555
C8_6 C9_6 1_555 1_555
C14_6 C15_5 1_555 1_555
C16_5 N4_6 1_555 1_555
C17_5 C18_5 1_555 1_555
N4_6 C20_6 1_555 1_555
C18_5 C19_5 1_555 1_555
C9_6 H13_6 1_555 1_555
C19_5 H14_5 1_555 1_555
N5_4 C11_7 1_555 1_555
C11_7 H7_5 1_555 1_555
C12_4 C11_7 1_555 1_555
H8_4 C12_4 1_555 1_555
C13_6 C12_4 1_555 1_555
H9_6 C13_6 1_555 1_555
C14_7 N5_4 1_555 1_555
H10_7 C14_7 1_555 1_555
C15_6 C13_6 1_555 1_555
C18_6 C15_6 1_555 1_555
C14_7 C15_6 1_555 1_555
S1_7 C6_7 1_555 1_555
C6_7 N2_7 1_555 1_555
Cu2 S1_7 1_555 1_555
N2_7 Cu2 1_555 1_555
C9_7 C6_7 1_555 1_555
H6_7 C10_7 1_555 1_555
N4_7 Cu2 1_555 1_555
H12_6 C20_7 1_555 1_555
N2_7 C10_7 1_555 1_555
N4_7 C20_7 1_555 1_555
C9_7 H13_7 1_555 1_555
N5_3 C1_7 1_555 1_555
C1_7 H1_7 1_555 1_555
C2_7 C1_7 1_555 1_555
H2_7 C2_7 1_555 1_555
C3_7 C2_7 1_555 1_555
H3_7 C3_7 1_555 1_555
C4_7 N5_3 1_555 1_555
H4_7 C4_7 1_555 1_555
C5_7 C3_7 1_555 1_555
C7_7 H5_7 1_555 1_555
C8_7 C5_7 1_555 1_555
C17_6 H11_6 1_555 1_555
C4_7 C5_7 1_555 1_555
C7_7 C8_7 1_555 1_555
N6_4 C11_8 1_555 1_555
C14_8 N6_4 1_555 1_555
H10_8 C14_8 1_555 1_555
C17_7 H11_7 1_555 1_555
S1_8 C6_8 1_555 1_555
C6_8 N2_8 1_555 1_555
Cu3 S1_8 1_555 1_555
N2_8 Cu3 1_555 1_555
C9_8 C6_8 1_555 1_555
H6_8 C10_8 1_555 1_555
S2_6 Cu3 1_555 1_555
C16_6 S2_6 1_555 1_555
N4_8 Cu3 1_555 1_555
C19_6 C16_6 1_555 1_555
N2_8 C10_8 1_555 1_555
C16_6 N4_8 1_555 1_555
N4_8 C20_8 1_555 1_555
C9_8 H13_8 1_555 1_555
C19_6 H14_6 1_555 1_555
N6_3 C1_8 1_555 1_555
C1_8 H1_8 1_555 1_555
C2_8 C1_8 1_555 1_555
H2_8 C2_8 1_555 1_555
C3_8 C2_8 1_555 1_555
H3_8 C3_8 1_555 1_555
C4_8 N6_3 1_555 1_555
H4_8 C4_8 1_555 1_555
C5_8 C3_8 1_555 1_555
C7_8 H5_8 1_555 1_555
C8_8 C5_8 1_555 1_555
H9_7 C13_7 1_555 1_555
C15_7 C13_7 1_555 1_555
C18_7 C15_7 1_555 1_555
C4_8 C5_8 1_555 1_555
C7_8 C8_8 1_555 1_555
S1_9 C6_9 1_555 1_555
H2_9 C2_9 1_555 1_555
C3_9 C2_9 1_555 1_555
H3_9 C3_9 1_555 1_555
C5_9 C3_9 1_555 1_555
C6_9 N2_9 1_555 1_555
Cu1_5 S1_9 1_555 1_555
N2_9 Cu1_5 1_555 1_555
C8_9 C5_9 1_555 1_555
C9_9 C6_9 1_555 1_555
C17_8 H11_8 1_555 1_555
N4_9 Cu1_5 1_555 1_555
C20_9 C17_8 1_555 1_555
H12_7 C20_9 1_555 1_555
N5_5 Cu1_5 1_555 1_555
N6_5 Cu1_5 1_555 1_555
N2_9 C10_9 1_555 1_555
C8_9 C9_9 1_555 1_555
N4_9 C20_9 1_555 1_555
C9_9 H13_9 1_555 1_555
N1_5 C1_9 1_555 1_555
C1_9 H1_9 1_555 1_555
C4_9 N1_5 1_555 1_555
H4_9 C4_9 1_555 1_555
C7_9 H5_9 1_555 1_555
Cu3_3 N1_5 1_555 1_555
N3_5 C11_9 1_555 1_555
C11_9 H7_6 1_555 1_555
C12_5 C11_9 1_555 1_555
H8_5 C12_5 1_555 1_555
C13_8 C12_5 1_555 1_555
H9_8 C13_8 1_555 1_555
C14_9 N3_5 1_555 1_555
H10_9 C14_9 1_555 1_555
C15_8 C13_8 1_555 1_555
C16_7 S2_7 1_555 1_555
C18_8 C15_8 1_555 1_555
C19_7 C16_7 1_555 1_555
Cu2_3 N3_5 1_555 1_555
C14_9 C15_8 1_555 1_555
C18_8 C19_7 1_555 1_555
C19_7 H14_7 1_555 1_555
S1_10 C6_10 1_555 1_555
N1_6 C1_10 1_555 1_555
C1_10 H1_10 1_555 1_555
C2_10 C1_10 1_555 1_555
H2_10 C2_10 1_555 1_555
C3_10 C2_10 1_555 1_555
H3_10 C3_10 1_555 1_555
C4_10 N1_6 1_555 1_555
H4_10 C4_10 1_555 1_555
C5_10 C3_10 1_555 1_555
C6_10 N2_10 1_555 1_555
C7_10 H5_10 1_555 1_555
Cu1_6 S1_10 1_555 1_555
N2_10 Cu1_6 1_555 1_555
C8_10 C5_10 1_555 1_555
C9_10 C6_10 1_555 1_555
C10_10 C7_10 1_555 1_555
H6_10 C10_10 1_555 1_555
S2_8 Cu1_6 1_555 1_555
N3_6 C11_10 1_555 1_555
H9_9 C13_9 1_555 1_555
C14_10 N3_6 1_555 1_555
H10_10 C14_10 1_555 1_555
C15_9 C13_9 1_555 1_555
C16_8 S2_8 1_555 1_555
C17_9 H11_9 1_555 1_555
N4_10 Cu1_6 1_555 1_555
C18_9 C15_9 1_555 1_555
C19_8 C16_8 1_555 1_555
C20_10 C17_9 1_555 1_555
H12_8 C20_10 1_555 1_555
N5_6 Cu1_6 1_555 1_555
N6_6 Cu1_6 1_555 1_555
Cu2_3 N3_6 1_555 1_555
Cu3_3 N1_6 1_555 1_555
C4_10 C5_10 1_555 1_555
C7_10 C8_10 1_555 1_555
N2_10 C10_10 1_555 1_555
C8_10 C9_10 1_555 1_555
C14_10 C15_9 1_555 1_555
C16_8 N4_10 1_555 1_555
C17_9 C18_9 1_555 1_555
N4_10 C20_10 1_555 1_555
C18_9 C19_8 1_555 1_555
C9_10 H13_10 1_555 1_555
C19_8 H14_8 1_555 1_555
N1_7 C1_11 1_555 1_555
C1_11 H1_11 1_555 1_555
C2_11 C1_11 1_555 1_555
H2_11 C2_11 1_555 1_555
C3_11 C2_11 1_555 1_555
H3_11 C3_11 1_555 1_555
C4_11 N1_7 1_555 1_555
H4_11 C4_11 1_555 1_555
C5_11 C3_11 1_555 1_555
C7_11 H5_11 1_555 1_555
C8_11 C5_11 1_555 1_555
C17_10 H11_10 1_555 1_555
Cu3_4 N1_7 1_555 1_555
C4_11 C5_11 1_555 1_555
C7_11 C8_11 1_555 1_555
S1_11 C6_11 1_555 1_555
C6_11 N2_11 1_555 1_555
Cu1_7 S1_11 1_555 1_555
N2_11 Cu1_7 1_555 1_555
C9_11 C6_11 1_555 1_555
H6_11 C10_11 1_555 1_555
N4_11 Cu1_7 1_555 1_555
H12_9 C20_11 1_555 1_555
N5_7 Cu1_7 1_555 1_555
N6_7 Cu1_7 1_555 1_555
N2_11 C10_11 1_555 1_555
N4_11 C20_11 1_555 1_555
C9_11 H13_11 1_555 1_555
N3_7 C11_11 1_555 1_555
C11_11 H7_7 1_555 1_555
C12_6 C11_11 1_555 1_555
H8_6 C12_6 1_555 1_555
C13_10 C12_6 1_555 1_555
H9_10 C13_10 1_555 1_555
C14_11 N3_7 1_555 1_555
H10_11 C14_11 1_555 1_555
C15_10 C13_10 1_555 1_555
C18_10 C15_10 1_555 1_555
Cu2_4 N3_7 1_555 1_555
C14_11 C15_10 1_555 1_555
N1_8 C1_12 1_555 1_555
C1_12 H1_12 1_555 1_555
C2_12 C1_12 1_555 1_555
H2_12 C2_12 1_555 1_555
C3_12 C2_12 1_555 1_555
H3_12 C3_12 1_555 1_555
C4_12 N1_8 1_555 1_555
H4_12 C4_12 1_555 1_555
C5_12 C3_12 1_555 1_555
C7_12 H5_12 1_555 1_555
C8_12 C5_12 1_555 1_555
H9_11 C13_11 1_555 1_555
C15_11 C13_11 1_555 1_555
C18_11 C15_11 1_555 1_555
Cu3_4 N1_8 1_555 1_555
C4_12 C5_12 1_555 1_555
C7_12 C8_12 1_555 1_555
S1_12 C6_12 1_555 1_555
C6_12 N2_12 1_555 1_555
Cu1_8 S1_12 1_555 1_555
N2_12 Cu1_8 1_555 1_555
C9_12 C6_12 1_555 1_555
H6_12 C10_12 1_555 1_555
S2_9 Cu1_8 1_555 1_555
C16_9 S2_9 1_555 1_555
N4_12 Cu1_8 1_555 1_555
C19_9 C16_9 1_555 1_555
N5_8 Cu1_8 1_555 1_555
N6_8 Cu1_8 1_555 1_555
N2_12 C10_12 1_555 1_555
C16_9 N4_12 1_555 1_555
N4_12 C20_12 1_555 1_555
C9_12 H13_12 1_555 1_555
C19_9 H14_9 1_555 1_555
N3_8 C11_12 1_555 1_555
C14_12 N3_8 1_555 1_555
H10_12 C14_12 1_555 1_555
C17_11 H11_11 1_555 1_555
Cu2_4 N3_8 1_555 1_555
N6_8 C1_13 1_555 1_555
C1_13 H1_13 1_555 1_555
C4_13 N6_8 1_555 1_555
H4_13 C4_13 1_555 1_555
C7_13 H5_13 1_555 1_555
S1_13 C6_13 1_555 1_555
H2_13 C2_13 1_555 1_555
C3_13 C2_13 1_555 1_555
H3_13 C3_13 1_555 1_555
C5_13 C3_13 1_555 1_555
C6_13 N2_13 1_555 1_555
Cu3_3 S1_13 1_555 1_555
N2_13 Cu3_3 1_555 1_555
C8_13 C5_13 1_555 1_555
C9_13 C6_13 1_555 1_555
S2_10 Cu3_3 1_555 1_555
N6_7 C11_13 1_555 1_555
H9_12 C13_12 1_555 1_555
C14_13 N6_7 1_555 1_555
H10_13 C14_13 1_555 1_555
C15_12 C13_12 1_555 1_555
C16_10 S2_10 1_555 1_555
C17_12 H11_12 1_555 1_555
N4_13 Cu3_3 1_555 1_555
C18_12 C15_12 1_555 1_555
C19_10 C16_10 1_555 1_555
C20_13 C17_12 1_555 1_555
H12_10 C20_13 1_555 1_555
N2_13 C10_13 1_555 1_555
C8_13 C9_13 1_555 1_555
C14_13 C15_12 1_555 1_555
C16_10 N4_13 1_555 1_555
C17_12 C18_12 1_555 1_555
N4_13 C20_13 1_555 1_555
C18_12 C19_10 1_555 1_555
C9_13 H13_13 1_555 1_555
C19_10 H14_10 1_555 1_555
N5_7 C11_14 1_555 1_555
C11_14 H7_8 1_555 1_555
C12_7 C11_14 1_555 1_555
H8_7 C12_7 1_555 1_555
C13_13 C12_7 1_555 1_555
H9_13 C13_13 1_555 1_555
C14_14 N5_7 1_555 1_555
H10_14 C14_14 1_555 1_555
C15_13 C13_13 1_555 1_555
C16_11 S2_11 1_555 1_555
C18_13 C15_13 1_555 1_555
C19_11 C16_11 1_555 1_555
C14_14 C15_13 1_555 1_555
C18_13 C19_11 1_555 1_555
C19_11 H14_11 1_555 1_555
S1_14 C6_14 1_555 1_555
N5_8 C1_14 1_555 1_555
C1_14 H1_14 1_555 1_555
C2_14 C1_14 1_555 1_555
H2_14 C2_14 1_555 1_555
C3_14 C2_14 1_555 1_555
H3_14 C3_14 1_555 1_555
C4_14 N5_8 1_555 1_555
H4_14 C4_14 1_555 1_555
C5_14 C3_14 1_555 1_555
C6_14 N2_14 1_555 1_555
C7_14 H5_14 1_555 1_555
Cu2_3 S1_14 1_555 1_555
N2_14 Cu2_3 1_555 1_555
C8_14 C5_14 1_555 1_555
C9_14 C6_14 1_555 1_555
C10_14 C7_14 1_555 1_555
H6_14 C10_14 1_555 1_555
C17_13 H11_13 1_555 1_555
N4_14 Cu2_3 1_555 1_555
C20_14 C17_13 1_555 1_555
H12_11 C20_14 1_555 1_555
C4_14 C5_14 1_555 1_555
C7_14 C8_14 1_555 1_555
N2_14 C10_14 1_555 1_555
C8_14 C9_14 1_555 1_555
N4_14 C20_14 1_555 1_555
C9_14 H13_14 1_555 1_555
S1_15 C6_15 1_555 1_555
N6_6 C1_15 1_555 1_555
C1_15 H1_15 1_555 1_555
C2_15 C1_15 1_555 1_555
H2_15 C2_15 1_555 1_555
C3_15 C2_15 1_555 1_555
H3_15 C3_15 1_555 1_555
C4_15 N6_6 1_555 1_555
H4_15 C4_15 1_555 1_555
C5_15 C3_15 1_555 1_555
C6_15 N2_15 1_555 1_555
C7_15 H5_15 1_555 1_555
Cu3_4 S1_15 1_555 1_555
N2_15 Cu3_4 1_555 1_555
C8_15 C5_15 1_555 1_555
C9_15 C6_15 1_555 1_555
C10_15 C7_15 1_555 1_555
H6_15 C10_15 1_555 1_555
S2_12 Cu3_4 1_555 1_555
N6_5 C11_15 1_555 1_555
H9_14 C13_14 1_555 1_555
C14_15 N6_5 1_555 1_555
H10_15 C14_15 1_555 1_555
C15_14 C13_14 1_555 1_555
C16_12 S2_12 1_555 1_555
C17_14 H11_14 1_555 1_555
N4_15 Cu3_4 1_555 1_555
C18_14 C15_14 1_555 1_555
C19_12 C16_12 1_555 1_555
C20_15 C17_14 1_555 1_555
H12_12 C20_15 1_555 1_555
C4_15 C5_15 1_555 1_555
C7_15 C8_15 1_555 1_555
N2_15 C10_15 1_555 1_555
C8_15 C9_15 1_555 1_555
C14_15 C15_14 1_555 1_555
C16_12 N4_15 1_555 1_555
C17_14 C18_14 1_555 1_555
N4_15 C20_15 1_555 1_555
C18_14 C19_12 1_555 1_555
C9_15 H13_15 1_555 1_555
C19_12 H14_12 1_555 1_555
N5_5 C11_16 1_555 1_555
C11_16 H7_9 1_555 1_555
C14_16 N5_5 1_555 1_555
H10_16 C14_16 1_555 1_555
S1_16 C6_16 1_555 1_555
N5_6 C1_16 1_555 1_555
C1_16 H1_16 1_555 1_555
C2_16 C1_16 1_555 1_555
H2_16 C2_16 1_555 1_555
C3_16 C2_16 1_555 1_555
H3_16 C3_16 1_555 1_555
C4_16 N5_6 1_555 1_555
H4_16 C4_16 1_555 1_555
C5_16 C3_16 1_555 1_555
C6_16 N2_16 1_555 1_555
C7_16 H5_16 1_555 1_555
Cu2_4 S1_16 1_555 1_555
N2_16 Cu2_4 1_555 1_555
C8_16 C5_16 1_555 1_555
C9_16 C6_16 1_555 1_555
C10_16 C7_16 1_555 1_555
H6_16 C10_16 1_555 1_555
N4_16 Cu2_4 1_555 1_555
C4_16 C5_16 1_555 1_555
C7_16 C8_16 1_555 1_555
N2_16 C10_16 1_555 1_555
C8_16 C9_16 1_555 1_555
N4_16 C20_16 1_555 1_555
C9_16 H13_16 1_555 1_555
H8_8 C12_8 1_555 1_555
H8_9 C12_9 1_555 1_555
C17_15 H11_15 1_555 1_555
H8_10 C12_10 1_555 1_555
C13_15 C12_10 1_555 1_555
H9_15 C13_15 1_555 1_555
C15_15 C13_15 1_555 1_555
C16_13 S2_13 1_555 1_555
C18_15 C15_15 1_555 1_555
C19_13 C16_13 1_555 1_555
C18_15 C19_13 1_555 1_555
C19_13 H14_13 1_555 1_555
C16_14 S2_14 1_555 1_555
C19_14 C16_14 1_555 1_555
C19_14 H14_14 1_555 1_555
H8_11 C12_11 1_555 1_555
H8_12 C12_12 1_555 1_555
H8_13 C12_13 1_555 1_555
H8_14 C12_14 1_555 1_555
H8_15 C12_15 1_555 1_555
C13_16 C12_15 1_555 1_555
H9_16 C13_16 1_555 1_555
C15_16 C13_16 1_555 1_555
C16_15 S2_15 1_555 1_555
C18_16 C15_16 1_555 1_555
C19_15 C16_15 1_555 1_555
C18_16 C19_15 1_555 1_555
C19_15 H14_15 1_555 1_555
C17_16 H11_16 1_555 1_555
C16_16 S2_16 1_555 1_555
C19_16 C16_16 1_555 1_555
C19_16 H14_16 1_555 1_555
H8_16 C12_16 1_555 1_555

#END
