
###############################################################################
#
# This file contains modified crystal structure data generated from the
# MOF subset of the Cambridge Structural Database (CSD) v543 
# hosted by the Cambridge Crystallographic Data Centre (CCDC).
#
# This work is licensed under the Creative Commons
# Attribution-NonCommercial-ShareAlike 4.0 International License.
# To view a copy of this license, visit
# http://creativecommons.org/licenses/by-nc-sa/4.0/
# or send a letter to
# Creative Commons, PO Box 1866, Mountain View, CA 94042, USA.
#
# CIF created using the CSD Python API on 29 September 2022
# The structure has been converted into the P1 space group
# The structure has a 3D framework
# The original CSD entry PAGSAV is in the orthorhombic crystal system
# The framework has been calculated to contain at least 10.0% void space
# The void calculation uses a probe of radius 1.32A, grid spacing 0.4
#
###############################################################################

data_PAGSAV
_chemical_formula_moiety         '(C256 H320 N16 O128 Zn24)n'
_symmetry_cell_setting           triclinic
_symmetry_space_group_name_H-M   'P 1'
_symmetry_Int_Tables_number      1
_space_group_name_Hall           'P 1'
loop_
_symmetry_equiv_pos_site_id
_symmetry_equiv_pos_as_xyz
1 x,y,z
_cell_length_a                   20.7992(8)
_cell_length_b                   15.2528(12)
_cell_length_c                   27.7139(13)
_cell_angle_alpha                90
_cell_angle_beta                 90
_cell_angle_gamma                90
_cell_volume                     8792.12
loop_
_atom_site_label
_atom_site_type_symbol
_atom_site_fract_x
_atom_site_fract_y
_atom_site_fract_z
Zn1 Zn 0.37927(4) 0.16603(7) 0.56236(4)
Zn2 Zn 0.74986(4) 0.28741(6) 0.37427(3)
Zn3 Zn 0.61879(4) 0.24146(7) 0.31125(4)
O1 O 0.6854(2) 0.3317(3) 0.3201(2)
O2 O 0.3150(2) 0.2592(3) 0.5725(2)
O3 O 0.3243(2) 0.3101(4) 0.1732(2)
O4 O 0.7547(2) 0.6621(4) 0.3438(2)
O5 O 0.6761(2) 0.2654(4) 0.4220(2)
O6 O 0.2470(2) 0.5865(4) 0.5954(2)
O7 O 0.1667(3) 0.5600(4) 0.5423(2)
O8 O 0.4544(3) 0.1671(4) 0.5225(2)
O9 O 0.5432(3) 0.2452(4) 0.2712(2)
O10 O 0.4073(3) 0.3560(5) 0.1290(2)
O11 O 0.8364(3) 0.6345(4) 0.2920(2)
O12 O 0.5895(3) 0.2258(5) 0.3777(2)
O13 O 0.4700(3) 0.3044(6) 0.5490(3)
O14 O 0.5265(3) 0.3770(5) 0.3033(3)
C1 C 0.3792(3) 0.3341(5) 0.1668(3)
O15 O 0.6693(5) 0.3718(6) 0.2441(3)
C2 C 0.2475(3) 0.4584(6) 0.5517(3)
C3 C 0.2705(4) 0.3883(6) 0.5438(3)
C4 C 0.3068(4) 0.3082(6) 0.5348(3)
C5 C 0.7848(4) 0.6160(5) 0.3131(3)
C6 C 0.7550(3) 0.5333(6) 0.3012(3)
C7 C 0.4221(3) 0.3360(6) 0.2098(3)
C8 C 0.2200(4) 0.5415(6) 0.5648(3)
C9 C 0.4613(4) 0.3300(6) 0.2403(4)
C10 C 0.6182(3) 0.2455(6) 0.4156(3)
C11 C 0.7289(4) 0.4628(5) 0.2929(3)
C12 C 0.4848(4) 0.2412(6) 0.5242(3)
C13 C 0.5135(4) 0.3196(7) 0.2749(3)
C14 C 0.6923(4) 0.3841(6) 0.2838(3)
C15 C 0.5774(4) 0.2456(6) 0.4583(3)
C16 C 0.5375(4) 0.2454(7) 0.4903(3)
O16 O 0.3286(4) 0.2905(5) 0.4948(2)
Zn4 Zn 0.37927(4) 0.33397(7) 0.06236(4)
Zn5 Zn 0.12073(4) 0.66603(7) 0.56236(4)
Zn6 Zn 0.24986(4) 0.21259(6) 0.62573(3)
Zn7 Zn 0.25014(4) 0.71259(6) 0.62573(3)
Zn8 Zn 0.24986(4) 0.28741(6) 0.12573(3)
Zn9 Zn 0.75014(4) 0.78741(6) 0.37427(3)
Zn10 Zn 0.88121(4) 0.74146(7) 0.31125(4)
O17 O 0.8150(2) 0.2408(3) 0.4275(2)
O18 O 0.8243(2) 0.3101(4) 0.3268(2)
O19 O 0.7453(2) 0.1621(4) 0.3438(2)
O20 O 0.7530(2) 0.4135(4) 0.4046(2)
O21 O 0.3333(3) 0.0600(4) 0.5423(2)
O22 O 0.4073(3) 0.1440(5) 0.6290(2)
O23 O 0.6636(3) 0.1345(4) 0.2920(2)
Zn1_2 Zn 0.12073(4) 0.83397(7) 0.06236(4)
O2_2 O 0.1850(2) 0.7408(3) 0.0725(2)
O6_2 O 0.2530(2) 0.4135(4) 0.0954(2)
O7_2 O 0.3333(3) 0.4400(4) 0.0423(2)
O8_2 O 0.0456(3) 0.8329(4) 0.0225(2)
O13_2 O 0.0300(3) 0.6956(6) 0.0490(3)
C2_2 C 0.2525(3) 0.5416(6) 0.0517(3)
C3_2 C 0.2295(4) 0.6117(6) 0.0438(3)
C4_2 C 0.1932(4) 0.6918(6) 0.0348(3)
C8_2 C 0.2800(4) 0.4585(6) 0.0648(3)
C12_2 C 0.0152(4) 0.7588(6) 0.0242(3)
Zn6_2 Zn 0.25014(4) 0.78741(6) 0.12573(3)
O21_2 O 0.1667(3) 0.9400(4) 0.0423(2)
O22_2 O 0.0927(3) 0.8560(5) 0.1290(2)
O3_2 O 0.1757(2) 0.6899(4) 0.6732(2)
O10_2 O 0.0927(3) 0.6440(5) 0.6290(2)
C1_2 C 0.1208(3) 0.6659(5) 0.6668(3)
C7_2 C 0.0779(3) 0.6640(6) 0.7098(3)
C9_2 C 0.0387(4) 0.6700(6) 0.7403(4)
O16_2 O 0.1714(4) 0.7095(5) 0.9948(2)
Zn2_2 Zn 0.75014(4) 0.71259(6) 0.87427(3)
Zn3_2 Zn 0.88121(4) 0.75854(7) 0.81125(4)
O1_2 O 0.8146(2) 0.6683(3) 0.8201(2)
O4_2 O 0.7453(2) 0.3379(4) 0.8438(2)
O5_2 O 0.8239(2) 0.7346(4) 0.9220(2)
O9_2 O 0.9568(3) 0.7548(4) 0.7712(2)
O11_2 O 0.6636(3) 0.3655(4) 0.7920(2)
O12_2 O 0.9105(3) 0.7742(5) 0.8777(2)
O14_2 O 0.9735(3) 0.6230(5) 0.8033(3)
O15_2 O 0.8307(5) 0.6282(6) 0.7441(3)
C5_2 C 0.7152(4) 0.3840(5) 0.8131(3)
C6_2 C 0.7450(3) 0.4667(6) 0.8012(3)
C10_2 C 0.8818(3) 0.7545(6) 0.9156(3)
C11_2 C 0.7711(4) 0.5372(5) 0.7929(3)
C13_2 C 0.9865(4) 0.6804(7) 0.7749(3)
C14_2 C 0.8077(4) 0.6159(6) 0.7838(3)
C15_2 C 0.9226(4) 0.7544(6) 0.9583(3)
C16_2 C 0.9625(4) 0.7546(7) 0.9903(3)
Zn9_2 Zn 0.74986(4) 0.21259(6) 0.87427(3)
Zn10_2 Zn 0.61879(4) 0.25854(7) 0.81125(4)
O17_2 O 0.6850(2) 0.7592(3) 0.9275(2)
O18_2 O 0.6757(2) 0.6899(4) 0.8268(2)
O19_2 O 0.7547(2) 0.8379(4) 0.8438(2)
O20_2 O 0.7470(2) 0.5865(4) 0.9046(2)
O23_2 O 0.8364(3) 0.8655(4) 0.7920(2)
O4_3 O 0.2453(2) 0.1621(4) 0.1562(2)
O11_3 O 0.1636(3) 0.1345(4) 0.2080(2)
C5_3 C 0.2152(4) 0.1160(5) 0.1869(3)
C6_3 C 0.2450(3) 0.0333(6) 0.1988(3)
Zn10_3 Zn 0.11879(4) 0.24146(7) 0.18875(4)
O6_3 O 0.7530(2) 0.0865(4) 0.9046(2)
O7_3 O 0.8333(3) 0.0600(4) 0.9577(2)
C8_3 C 0.7800(4) 0.0415(6) 0.9352(3)
Zn5_2 Zn 0.87927(4) 0.16603(7) 0.93764(4)
Zn3_3 Zn 0.38121(4) 0.74146(7) 0.18875(4)
O1_3 O 0.3146(2) 0.8317(3) 0.1799(2)
O3_3 O 0.6757(2) 0.8101(4) 0.3268(2)
O5_3 O 0.3239(2) 0.7654(4) 0.0780(2)
O9_3 O 0.4568(3) 0.7452(4) 0.2288(2)
O10_3 O 0.5927(3) 0.8560(5) 0.3710(2)
O12_3 O 0.4105(3) 0.7258(5) 0.1223(2)
O14_3 O 0.4735(3) 0.8770(5) 0.1967(3)
C1_3 C 0.6208(3) 0.8341(5) 0.3332(3)
O15_3 O 0.3307(5) 0.8718(6) 0.2559(3)
C7_3 C 0.5779(3) 0.8360(6) 0.2902(3)
C9_3 C 0.5387(4) 0.8300(6) 0.2597(4)
C10_3 C 0.3818(3) 0.7455(6) 0.0844(3)
C11_3 C 0.2711(4) 0.9628(5) 0.2071(3)
C13_3 C 0.4865(4) 0.8196(7) 0.2251(3)
C14_3 C 0.3077(4) 0.8841(6) 0.2162(3)
C15_3 C 0.4226(4) 0.7456(6) 0.0417(3)
C16_3 C 0.4625(4) 0.7454(7) 0.0097(3)
O16_3 O 0.6714(4) 0.7905(5) 0.0052(2)
Zn4_2 Zn 0.62073(4) 0.83397(7) 0.43764(4)
O18_3 O 0.1757(2) 0.8101(4) 0.1732(2)
O19_3 O 0.2547(2) 0.6621(4) 0.1562(2)
O20_3 O 0.2470(2) 0.9135(4) 0.0954(2)
O23_3 O 0.3364(3) 0.6345(4) 0.2080(2)
Zn1_3 Zn 0.62073(4) 0.66603(7) 0.93764(4)
O8_3 O 0.5456(3) 0.6671(4) 0.9775(2)
O13_3 O 0.5300(3) 0.8044(6) 0.9510(3)
C2_3 C 0.7525(3) 0.9584(6) 0.9483(3)
C3_3 C 0.7295(4) 0.8883(6) 0.9562(3)
C4_3 C 0.6932(4) 0.8082(6) 0.9652(3)
C12_3 C 0.5152(4) 0.7412(6) 0.9758(3)
O21_3 O 0.6667(3) 0.5600(4) 0.9577(2)
O22_3 O 0.5927(3) 0.6440(5) 0.8710(2)
Zn3_4 Zn 0.11879(4) 0.25854(7) 0.68875(4)
O1_4 O 0.1854(2) 0.1683(3) 0.6799(2)
O5_4 O 0.1761(2) 0.2346(4) 0.5780(2)
O9_4 O 0.0432(3) 0.2548(4) 0.7288(2)
O12_4 O 0.0895(3) 0.2742(5) 0.6223(2)
O14_4 O 0.0265(3) 0.1230(5) 0.6967(3)
O15_4 O 0.1693(5) 0.1282(6) 0.7559(3)
C10_4 C 0.1182(3) 0.2545(6) 0.5844(3)
C11_4 C 0.2289(4) 0.0372(5) 0.7071(3)
C13_4 C 0.0135(4) 0.1804(7) 0.7251(3)
C14_4 C 0.1923(4) 0.1159(6) 0.7162(3)
C15_4 C 0.0774(4) 0.2544(6) 0.5417(3)
C16_4 C 0.0375(4) 0.2546(7) 0.5097(3)
O18_4 O 0.3243(2) 0.1899(4) 0.6732(2)
O19_4 O 0.2453(2) 0.3379(4) 0.6562(2)
O20_4 O 0.2530(2) 0.0865(4) 0.5954(2)
O23_4 O 0.1636(3) 0.3655(4) 0.7080(2)
O4_4 O 0.2547(2) 0.8379(4) 0.6562(2)
O11_4 O 0.3364(3) 0.8655(4) 0.7080(2)
C5_4 C 0.2848(4) 0.8840(5) 0.6869(3)
C6_4 C 0.2550(3) 0.9667(6) 0.6988(3)
Zn10_4 Zn 0.38121(4) 0.75854(7) 0.68875(4)
Zn1_4 Zn 0.87927(4) 0.33397(7) 0.43764(4)
O3_4 O 0.8243(2) 0.1899(4) 0.8268(2)
O8_4 O 0.9544(3) 0.3329(4) 0.4775(2)
O10_4 O 0.9073(3) 0.1440(5) 0.8710(2)
O13_4 O 0.9700(3) 0.1956(6) 0.4510(3)
C1_4 C 0.8792(3) 0.1659(5) 0.8332(3)
C2_4 C 0.7475(3) 0.0416(6) 0.4483(3)
C3_4 C 0.7705(4) 0.1117(6) 0.4562(3)
C4_4 C 0.8068(4) 0.1918(6) 0.4652(3)
C7_4 C 0.9221(3) 0.1640(6) 0.7902(3)
C9_4 C 0.9613(4) 0.1700(6) 0.7597(4)
C12_4 C 0.9848(4) 0.2588(6) 0.4758(3)
O16_4 O 0.8286(4) 0.2095(5) 0.5052(2)
O21_4 O 0.8333(3) 0.4400(4) 0.4577(2)
O22_4 O 0.9073(3) 0.3560(5) 0.3710(2)
O6_4 O 0.7470(2) 0.9135(4) 0.4046(2)
O7_4 O 0.6667(3) 0.9400(4) 0.4577(2)
C8_4 C 0.7200(4) 0.9585(6) 0.4352(3)
O1_5 O 0.3146(2) 0.6683(3) 0.6799(2)
O2_3 O 0.6850(2) 0.7408(3) 0.4275(2)
O5_5 O 0.3239(2) 0.7346(4) 0.5780(2)
O8_5 O 0.5456(3) 0.8329(4) 0.4775(2)
O9_5 O 0.4568(3) 0.7548(4) 0.7288(2)
O12_5 O 0.4105(3) 0.7742(5) 0.6223(2)
O13_5 O 0.5300(3) 0.6956(6) 0.4510(3)
O14_5 O 0.4735(3) 0.6230(5) 0.6967(3)
C1_5 C 0.6208(3) 0.6659(5) 0.8332(3)
O15_5 O 0.3307(5) 0.6282(6) 0.7559(3)
C2_5 C 0.7525(3) 0.5416(6) 0.4483(3)
C3_5 C 0.7295(4) 0.6117(6) 0.4562(3)
C4_5 C 0.6932(4) 0.6918(6) 0.4652(3)
C5_5 C 0.2152(4) 0.3840(5) 0.6869(3)
C6_5 C 0.2450(3) 0.4667(6) 0.6988(3)
C7_5 C 0.5779(3) 0.6640(6) 0.7902(3)
C8_5 C 0.7800(4) 0.4585(6) 0.4352(3)
C9_5 C 0.5387(4) 0.6700(6) 0.7597(4)
C10_5 C 0.3818(3) 0.7545(6) 0.5844(3)
C11_5 C 0.2711(4) 0.5372(5) 0.7071(3)
C12_5 C 0.5152(4) 0.7588(6) 0.4758(3)
C13_5 C 0.4865(4) 0.6804(7) 0.7251(3)
C14_5 C 0.3077(4) 0.6159(6) 0.7162(3)
C15_5 C 0.4226(4) 0.7544(6) 0.5417(3)
C16_5 C 0.4625(4) 0.7546(7) 0.5097(3)
O16_5 O 0.6714(4) 0.7095(5) 0.5052(2)
O17_3 O 0.1850(2) 0.7592(3) 0.5725(2)
O1_6 O 0.1854(2) 0.3317(3) 0.1799(2)
O5_6 O 0.1761(2) 0.2654(4) 0.0780(2)
O9_6 O 0.0432(3) 0.2452(4) 0.2288(2)
O12_6 O 0.0895(3) 0.2258(5) 0.1223(2)
O14_6 O 0.0265(3) 0.3770(5) 0.1967(3)
O15_6 O 0.1693(5) 0.3718(6) 0.2559(3)
C5_6 C 0.2848(4) 0.6160(5) 0.1869(3)
C6_6 C 0.2550(3) 0.5333(6) 0.1988(3)
C10_6 C 0.1182(3) 0.2455(6) 0.0844(3)
C11_6 C 0.2289(4) 0.4628(5) 0.2071(3)
C13_6 C 0.0135(4) 0.3196(7) 0.2251(3)
C14_6 C 0.1923(4) 0.3841(6) 0.2162(3)
C15_6 C 0.0774(4) 0.2456(6) 0.0417(3)
C16_6 C 0.0375(4) 0.2454(7) 0.0097(3)
O17_4 O 0.3150(2) 0.2408(3) 0.0725(2)
C1_6 C 0.8792(3) 0.3341(5) 0.3332(3)
C7_6 C 0.9221(3) 0.3360(6) 0.2902(3)
C9_6 C 0.9613(4) 0.3300(6) 0.2597(4)
O16_6 O 0.8286(4) 0.2905(5) 0.0052(2)
O2_4 O 0.8150(2) 0.2592(3) 0.9275(2)
O8_6 O 0.9544(3) 0.1671(4) 0.9775(2)
O13_6 O 0.9700(3) 0.3044(6) 0.9510(3)
C2_6 C 0.7475(3) 0.4584(6) 0.9483(3)
C3_6 C 0.7705(4) 0.3883(6) 0.9562(3)
C4_6 C 0.8068(4) 0.3082(6) 0.9652(3)
C8_6 C 0.7200(4) 0.5415(6) 0.9352(3)
C12_6 C 0.9848(4) 0.2412(6) 0.9758(3)
O8_7 O 0.4544(3) 0.3329(4) 0.0225(2)
O13_7 O 0.4700(3) 0.1956(6) 0.0490(3)
C2_7 C 0.2475(3) 0.0416(6) 0.0517(3)
C3_7 C 0.2705(4) 0.1117(6) 0.0438(3)
C4_7 C 0.3068(4) 0.1918(6) 0.0348(3)
C12_7 C 0.4848(4) 0.2588(6) 0.0242(3)
O1_7 O 0.6854(2) 0.1683(3) 0.8201(2)
O5_7 O 0.6761(2) 0.2346(4) 0.9220(2)
O9_7 O 0.5432(3) 0.2548(4) 0.7712(2)
O12_7 O 0.5895(3) 0.2742(5) 0.8777(2)
O14_7 O 0.5265(3) 0.1230(5) 0.8033(3)
C1_7 C 0.3792(3) 0.1659(5) 0.6668(3)
O15_7 O 0.6693(5) 0.1282(6) 0.7441(3)
C7_7 C 0.4221(3) 0.1640(6) 0.7098(3)
C9_7 C 0.4613(4) 0.1700(6) 0.7403(4)
C10_7 C 0.6182(3) 0.2545(6) 0.9156(3)
C11_7 C 0.7289(4) 0.0372(5) 0.7929(3)
C13_7 C 0.5135(4) 0.1804(7) 0.7749(3)
C14_7 C 0.6923(4) 0.1159(6) 0.7838(3)
C15_7 C 0.5774(4) 0.2544(6) 0.9583(3)
C16_7 C 0.5375(4) 0.2546(7) 0.9903(3)
O16_7 O 0.3286(4) 0.2095(5) 0.9948(2)
C8_7 C 0.2200(4) 0.9585(6) 0.0648(3)
C5_7 C 0.7848(4) 0.8840(5) 0.8131(3)
C6_7 C 0.7550(3) 0.9667(6) 0.8012(3)
C8_8 C 0.2800(4) 0.0415(6) 0.5648(3)
O8_8 O 0.0456(3) 0.6671(4) 0.5225(2)
O13_8 O 0.0300(3) 0.8044(6) 0.5490(3)
C1_8 C 0.1208(3) 0.8341(5) 0.1668(3)
C2_8 C 0.2525(3) 0.9584(6) 0.5517(3)
C3_8 C 0.2295(4) 0.8883(6) 0.5438(3)
C4_8 C 0.1932(4) 0.8082(6) 0.5348(3)
C7_8 C 0.0779(3) 0.8360(6) 0.2098(3)
C9_8 C 0.0387(4) 0.8300(6) 0.2403(4)
C12_8 C 0.0152(4) 0.7412(6) 0.5242(3)
O16_8 O 0.1714(4) 0.7905(5) 0.4948(2)
C5_8 C 0.7152(4) 0.1160(5) 0.3131(3)
C6_8 C 0.7450(3) 0.0333(6) 0.3012(3)
O1_8 O 0.8146(2) 0.8317(3) 0.3201(2)
O5_8 O 0.8239(2) 0.7654(4) 0.4220(2)
O9_8 O 0.9568(3) 0.7452(4) 0.2712(2)
O12_8 O 0.9105(3) 0.7258(5) 0.3777(2)
O14_8 O 0.9735(3) 0.8770(5) 0.3033(3)
O15_8 O 0.8307(5) 0.8718(6) 0.2441(3)
C10_8 C 0.8818(3) 0.7455(6) 0.4156(3)
C11_8 C 0.7711(4) 0.9628(5) 0.2929(3)
C13_8 C 0.9865(4) 0.8196(7) 0.2749(3)
C14_8 C 0.8077(4) 0.8841(6) 0.2838(3)
C15_8 C 0.9226(4) 0.7456(6) 0.4583(3)
C16_8 C 0.9625(4) 0.7454(7) 0.4903(3)
C17 C 0.5960(10) 0.5284(15) 0.3825(7)
H1 H 0.5800 0.5067 0.4127
H2 H 0.6321 0.5662 0.3882
H3 H 0.6091 0.4801 0.3626
N1 N 0.4781(8) 0.5394(13) 0.3528(6)
H4 H 0.4893 0.4814 0.3402
C18 C 0.4616(11) 0.5170(14) 0.4030(7)
H5 H 0.4247 0.5522 0.4121
H6 H 0.4972 0.5352 0.4232
C19 C 0.5431(8) 0.5799(16) 0.3568(7)
H7 H 0.5381 0.6359 0.3738
C20 C 0.4148(10) 0.6598(13) 0.3363(8)
H8 H 0.3727 0.6574 0.3504
H9 H 0.4152 0.7024 0.3108
H10 H 0.4456 0.6762 0.3605
C21 C 0.3737(9) 0.5111(16) 0.3140(8)
H11 H 0.3799 0.4665 0.2900
H12 H 0.3367 0.5456 0.3058
H13 H 0.3673 0.4842 0.3449
C22 C 0.4457(10) 0.4188(14) 0.4158(8)
H14 H 0.4222 0.3926 0.3898
H15 H 0.4202 0.4170 0.4447
H16 H 0.4850 0.3871 0.4209
C23 C 0.5724(10) 0.6000(15) 0.3063(7)
H17 H 0.6185 0.6004 0.3086
H18 H 0.5577 0.6563 0.2955
H19 H 0.5592 0.5557 0.2838
C24 C 0.4324(9) 0.5694(13) 0.3158(8)
H20 H 0.4529 0.5742 0.2841
N1_2 N 0.0219(8) 0.4606(13) 0.8528(6)
H4_2 H 0.0107 0.5186 0.8402
C18_2 C 0.0384(11) 0.4830(14) 0.9030(7)
H5_2 H 0.0753 0.4478 0.9121
H6_2 H 0.0028 0.4648 0.9232
C20_2 C 0.0852(10) 0.3402(13) 0.8363(8)
H8_2 H 0.1273 0.3426 0.8504
H9_2 H 0.0848 0.2976 0.8108
H10_2 H 0.0544 0.3238 0.8605
C21_2 C 0.1263(9) 0.4889(16) 0.8140(8)
H11_2 H 0.1201 0.5335 0.7900
H12_2 H 0.1633 0.4544 0.8058
H13_2 H 0.1327 0.5158 0.8449
C22_2 C 0.0543(10) 0.5812(14) 0.9158(8)
H14_2 H 0.0778 0.6074 0.8898
H15_2 H 0.0798 0.5830 0.9447
H16_2 H 0.0150 0.6129 0.9209
C24_2 C 0.0676(9) 0.4306(13) 0.8158(8)
H20_2 H 0.0471 0.4258 0.7841
C17_2 C 0.9040(10) 0.4716(15) 0.8825(7)
H1_2 H 0.9200 0.4933 0.9127
H2_2 H 0.8679 0.4338 0.8882
H3_2 H 0.8909 0.5199 0.8626
C19_2 C 0.9569(8) 0.4201(16) 0.8568(7)
H7_2 H 0.9619 0.3641 0.8738
C23_2 C 0.9276(10) 0.4000(15) 0.8063(7)
H17_2 H 0.8815 0.3996 0.8086
H18_2 H 0.9423 0.3437 0.7955
H19_2 H 0.9408 0.4443 0.7838
C17_3 C 0.4040(10) 0.0284(15) 0.1175(7)
H1_3 H 0.4200 0.0067 0.0873
H2_3 H 0.3679 0.0662 0.1118
N1_3 N 0.5219(8) 0.0394(13) 0.1472(6)
C18_3 C 0.5384(11) 0.0170(14) 0.0970(7)
H5_3 H 0.5753 0.0522 0.0879
H6_3 H 0.5028 0.0352 0.0768
C19_3 C 0.4569(8) 0.0799(16) 0.1432(7)
H7_3 H 0.4619 0.1359 0.1262
C20_3 C 0.5852(10) 0.1598(13) 0.1637(8)
H8_3 H 0.6273 0.1574 0.1496
H9_3 H 0.5848 0.2024 0.1892
H10_3 H 0.5544 0.1762 0.1395
C21_3 C 0.6263(9) 0.0111(16) 0.1860(8)
H12_3 H 0.6633 0.0456 0.1942
C23_3 C 0.4276(10) 0.1000(15) 0.1937(7)
H17_3 H 0.3815 0.1004 0.1914
H18_3 H 0.4423 0.1563 0.2045
H19_3 H 0.4408 0.0557 0.2162
C24_3 C 0.5676(9) 0.0694(13) 0.1842(8)
H20_3 H 0.5471 0.0742 0.2159
H3_3 H 0.3909 0.9801 0.1374
H4_3 H 0.5107 0.9814 0.1598
H11_3 H 0.6201 0.9665 0.2100
H13_3 H 0.6327 0.9842 0.1551
C22_3 C 0.5543(10) 0.9188(14) 0.0842(8)
H14_3 H 0.5778 0.8926 0.1102
H15_3 H 0.5798 0.9170 0.0553
H16_3 H 0.5150 0.8871 0.0791
H3_4 H 0.1091 0.0199 0.6374
C17_4 C 0.0960(10) 0.9716(15) 0.6175(7)
H1_4 H 0.0800 0.9933 0.5873
H2_4 H 0.1321 0.9338 0.6118
C19_4 C 0.0431(8) 0.9201(16) 0.6432(7)
H7_4 H 0.0381 0.8641 0.6262
C23_4 C 0.0724(10) 0.9000(15) 0.6937(7)
H17_4 H 0.1185 0.8996 0.6914
H18_4 H 0.0577 0.8437 0.7045
H19_4 H 0.0592 0.9443 0.7162
H4_4 H 0.9893 0.0186 0.6598
H11_4 H 0.8799 0.0335 0.7100
H13_4 H 0.8673 0.0158 0.6551
C22_4 C 0.9457(10) 0.0812(14) 0.5842(8)
H14_4 H 0.9222 0.1074 0.6102
H15_4 H 0.9202 0.0830 0.5553
H16_4 H 0.9850 0.1129 0.5791
N1_4 N 0.9781(8) 0.9606(13) 0.6472(6)
C18_4 C 0.9616(11) 0.9830(14) 0.5970(7)
H5_4 H 0.9247 0.9478 0.5879
H6_4 H 0.9972 0.9648 0.5768
C20_4 C 0.9148(10) 0.8402(13) 0.6637(8)
H8_4 H 0.8727 0.8426 0.6496
H9_4 H 0.9152 0.7976 0.6892
H10_4 H 0.9456 0.8238 0.6395
C21_4 C 0.8737(9) 0.9889(16) 0.6860(8)
H12_4 H 0.8367 0.9544 0.6942
C24_4 C 0.9324(9) 0.9306(13) 0.6842(8)
H20_4 H 0.9529 0.9258 0.7159
C17_5 C 0.4040(10) 0.4716(15) 0.6175(7)
H1_5 H 0.4200 0.4933 0.5873
H2_5 H 0.3679 0.4338 0.6118
H3_5 H 0.3909 0.5199 0.6374
N1_5 N 0.5219(8) 0.4606(13) 0.6472(6)
H4_5 H 0.5107 0.5186 0.6598
C18_5 C 0.5384(11) 0.4830(14) 0.5970(7)
H5_5 H 0.5753 0.4478 0.5879
H6_5 H 0.5028 0.4648 0.5768
C19_5 C 0.4569(8) 0.4201(16) 0.6432(7)
H7_5 H 0.4619 0.3641 0.6262
C20_5 C 0.5852(10) 0.3402(13) 0.6637(8)
H8_5 H 0.6273 0.3426 0.6496
H9_5 H 0.5848 0.2976 0.6892
H10_5 H 0.5544 0.3238 0.6395
C21_5 C 0.6263(9) 0.4889(16) 0.6860(8)
H11_5 H 0.6201 0.5335 0.7100
H12_5 H 0.6633 0.4544 0.6942
H13_5 H 0.6327 0.5158 0.6551
C22_5 C 0.5543(10) 0.5812(14) 0.5842(8)
H14_5 H 0.5778 0.6074 0.6102
H15_5 H 0.5798 0.5830 0.5553
H16_5 H 0.5150 0.6129 0.5791
C23_5 C 0.4276(10) 0.4000(15) 0.6937(7)
H17_5 H 0.3815 0.3996 0.6914
H18_5 H 0.4423 0.3437 0.7045
H19_5 H 0.4408 0.4443 0.7162
C24_5 C 0.5676(9) 0.4306(13) 0.6842(8)
H20_5 H 0.5471 0.4258 0.7159
C17_6 C 0.0960(10) 0.5284(15) 0.1175(7)
H1_6 H 0.0800 0.5067 0.0873
H2_6 H 0.1321 0.5662 0.1118
H3_6 H 0.1091 0.4801 0.1374
C19_6 C 0.0431(8) 0.5799(16) 0.1432(7)
H7_6 H 0.0381 0.6359 0.1262
C23_6 C 0.0724(10) 0.6000(15) 0.1937(7)
H17_6 H 0.1185 0.6004 0.1914
H18_6 H 0.0577 0.6563 0.2045
H19_6 H 0.0592 0.5557 0.2162
N1_6 N 0.9781(8) 0.5394(13) 0.1472(6)
H4_6 H 0.9893 0.4814 0.1598
C18_6 C 0.9616(11) 0.5170(14) 0.0970(7)
H5_6 H 0.9247 0.5522 0.0879
H6_6 H 0.9972 0.5352 0.0768
C20_6 C 0.9148(10) 0.6598(13) 0.1637(8)
H8_6 H 0.8727 0.6574 0.1496
H9_6 H 0.9152 0.7024 0.1892
H10_6 H 0.9456 0.6762 0.1395
C21_6 C 0.8737(9) 0.5111(16) 0.1860(8)
H11_6 H 0.8799 0.4665 0.2100
H12_6 H 0.8367 0.5456 0.1942
H13_6 H 0.8673 0.4842 0.1551
C22_6 C 0.9457(10) 0.4188(14) 0.0842(8)
H14_6 H 0.9222 0.3926 0.1102
H15_6 H 0.9202 0.4170 0.0553
H16_6 H 0.9850 0.3871 0.0791
C24_6 C 0.9324(9) 0.5694(13) 0.1842(8)
H20_6 H 0.9529 0.5742 0.2159
H3_7 H 0.6091 0.0199 0.8626
H4_7 H 0.4893 0.0186 0.8402
H11_7 H 0.3799 0.0335 0.7900
H13_7 H 0.3673 0.0158 0.8449
C22_7 C 0.4457(10) 0.0812(14) 0.9158(8)
H14_7 H 0.4222 0.1074 0.8898
H15_7 H 0.4202 0.0830 0.9447
H16_7 H 0.4850 0.1129 0.9209
C17_7 C 0.5960(10) 0.9716(15) 0.8825(7)
H1_7 H 0.5800 0.9933 0.9127
H2_7 H 0.6321 0.9338 0.8882
N1_7 N 0.4781(8) 0.9606(13) 0.8528(6)
C18_7 C 0.4616(11) 0.9830(14) 0.9030(7)
H5_7 H 0.4247 0.9478 0.9121
H6_7 H 0.4972 0.9648 0.9232
C19_7 C 0.5431(8) 0.9201(16) 0.8568(7)
H7_7 H 0.5381 0.8641 0.8738
C20_7 C 0.4148(10) 0.8402(13) 0.8363(8)
H8_7 H 0.3727 0.8426 0.8504
H9_7 H 0.4152 0.7976 0.8108
H10_7 H 0.4456 0.8238 0.8605
C21_7 C 0.3737(9) 0.9889(16) 0.8140(8)
H12_7 H 0.3367 0.9544 0.8058
C23_7 C 0.5724(10) 0.9000(15) 0.8063(7)
H17_7 H 0.6185 0.8996 0.8086
H18_7 H 0.5577 0.8437 0.7955
H19_7 H 0.5592 0.9443 0.7838
C24_7 C 0.4324(9) 0.9306(13) 0.8158(8)
H20_7 H 0.4529 0.9258 0.7841
N1_8 N 0.0219(8) 0.0394(13) 0.3528(6)
C18_8 C 0.0384(11) 0.0170(14) 0.4030(7)
H5_8 H 0.0753 0.0522 0.4121
H6_8 H 0.0028 0.0352 0.4232
C20_8 C 0.0852(10) 0.1598(13) 0.3363(8)
H8_8 H 0.1273 0.1574 0.3504
H9_8 H 0.0848 0.2024 0.3108
H10_8 H 0.0544 0.1762 0.3605
C21_8 C 0.1263(9) 0.0111(16) 0.3140(8)
H12_8 H 0.1633 0.0456 0.3058
C24_8 C 0.0676(9) 0.0694(13) 0.3158(8)
H20_8 H 0.0471 0.0742 0.2841
H4_8 H 0.0107 0.9814 0.3402
H11_8 H 0.1201 0.9665 0.2900
H13_8 H 0.1327 0.9842 0.3449
C22_8 C 0.0543(10) 0.9188(14) 0.4158(8)
H14_8 H 0.0778 0.8926 0.3898
H15_8 H 0.0798 0.9170 0.4447
H16_8 H 0.0150 0.8871 0.4209
C17_8 C 0.9040(10) 0.0284(15) 0.3825(7)
H1_8 H 0.9200 0.0067 0.4127
H2_8 H 0.8679 0.0662 0.3882
C19_8 C 0.9569(8) 0.0799(16) 0.3568(7)
H7_8 H 0.9619 0.1359 0.3738
C23_8 C 0.9276(10) 0.1000(15) 0.3063(7)
H17_8 H 0.8815 0.1004 0.3086
H18_8 H 0.9423 0.1563 0.2955
H19_8 H 0.9408 0.0557 0.2838
H3_8 H 0.8909 0.9801 0.3626
N2 N 0.4067(11) 0.0470(15) 0.3834(8)
H21 H 0.3907 0.0589 0.3508
C25 C 0.5081(13) 0.025(2) 0.4299(9)
H22 H 0.4862 0.0604 0.4535
H23 H 0.5526 0.0419 0.4287
C26 C 0.3824(11) 0.1174(19) 0.4166(11)
H25 H 0.3908 0.1748 0.4029
H26 H 0.4039 0.1137 0.4476
C27 C 0.3080(11) 0.103(2) 0.4231(10)
H27 H 0.2877 0.1015 0.3920
H28 H 0.2904 0.1508 0.4416
H29 H 0.3005 0.0490 0.4397
C28 C 0.5015(13) 0.046(2) 0.3284(8)
H30 H 0.4659 0.0360 0.3070
H31 H 0.5339 0.0023 0.3227
H32 H 0.5191 0.1031 0.3226
C29 C 0.4780(12) 0.040(2) 0.3814(8)
H33 H 0.4823 0.1031 0.3851
H24 H 0.5047 0.9645 0.4385
C30 C 0.3852(14) 0.9588(16) 0.3979(9)
H34 H 0.3390 0.9526 0.3921
C31 C 0.4230(12) 0.8971(19) 0.3643(10)
H35 H 0.4410 0.9303 0.3381
H36 H 0.3946 0.8531 0.3516
H37 H 0.4570 0.8694 0.3821
C32 C 0.4001(13) 0.944(2) 0.4518(9)
H38 H 0.4423 0.9653 0.4590
H39 H 0.3983 0.8819 0.4587
H40 H 0.3690 0.9739 0.4711
C30_2 C 0.1148(14) 0.0412(16) 0.8979(9)
H34_2 H 0.1610 0.0474 0.8921
C31_2 C 0.0770(12) 0.1029(19) 0.8643(10)
H35_2 H 0.0590 0.0697 0.8381
H36_2 H 0.1054 0.1469 0.8516
H37_2 H 0.0430 0.1306 0.8821
C32_2 C 0.0999(13) 0.056(2) 0.9518(9)
H38_2 H 0.0577 0.0347 0.9590
H39_2 H 0.1017 0.1181 0.9587
H40_2 H 0.1310 0.0261 0.9711
N2_2 N 0.0933(11) 0.9530(15) 0.8834(8)
H21_2 H 0.1093 0.9411 0.8508
H22_2 H 0.0138 0.9396 0.9535
C26_2 C 0.1176(11) 0.8826(19) 0.9166(11)
H25_2 H 0.1092 0.8252 0.9029
H26_2 H 0.0961 0.8863 0.9476
C27_2 C 0.1920(11) 0.897(2) 0.9231(10)
H27_2 H 0.2123 0.8985 0.8920
H28_2 H 0.2096 0.8492 0.9416
H29_2 H 0.1995 0.9510 0.9397
H30_2 H 0.0341 0.9640 0.8070
C29_2 C 0.0220(12) 0.960(2) 0.8814(8)
H33_2 H 0.0177 0.8969 0.8851
H24_2 H 0.9953 0.0355 0.9385
C25_2 C 0.9919(13) 0.975(2) 0.9299(9)
H23_2 H 0.9474 0.9581 0.9287
C28_2 C 0.9985(13) 0.954(2) 0.8284(8)
H31_2 H 0.9661 0.9977 0.8227
H32_2 H 0.9809 0.8969 0.8226
N2_3 N 0.5933(11) 0.5470(15) 0.1166(8)
H21_3 H 0.6093 0.5589 0.1492
C25_3 C 0.4919(13) 0.525(2) 0.0701(9)
H22_3 H 0.5138 0.5604 0.0465
H23_3 H 0.4474 0.5419 0.0713
H24_3 H 0.4953 0.4645 0.0615
C26_3 C 0.6176(11) 0.6174(19) 0.0834(11)
H25_3 H 0.6092 0.6748 0.0971
H26_3 H 0.5961 0.6137 0.0524
C27_3 C 0.6920(11) 0.603(2) 0.0769(10)
H27_3 H 0.7123 0.6015 0.1080
H28_3 H 0.7096 0.6508 0.0584
H29_3 H 0.6995 0.5490 0.0603
C28_3 C 0.4985(13) 0.546(2) 0.1716(8)
H30_3 H 0.5341 0.5360 0.1930
H31_3 H 0.4661 0.5023 0.1773
H32_3 H 0.4809 0.6031 0.1774
C29_3 C 0.5220(12) 0.540(2) 0.1186(8)
H33_3 H 0.5177 0.6031 0.1149
C30_3 C 0.6148(14) 0.4588(16) 0.1021(9)
H34_3 H 0.6610 0.4526 0.1079
C31_3 C 0.5770(12) 0.3971(19) 0.1357(10)
H35_3 H 0.5590 0.4303 0.1619
H36_3 H 0.6054 0.3531 0.1484
H37_3 H 0.5430 0.3694 0.1179
C32_3 C 0.5999(13) 0.444(2) 0.0482(9)
H38_3 H 0.5577 0.4653 0.0410
H39_3 H 0.6017 0.3819 0.0413
H40_3 H 0.6310 0.4739 0.0289
C25_4 C 0.0081(13) 0.475(2) 0.5701(9)
H23_4 H 0.0526 0.4581 0.5713
H24_4 H 0.0047 0.5355 0.5615
C28_4 C 0.0015(13) 0.454(2) 0.6716(8)
H31_4 H 0.0339 0.4977 0.6773
H32_4 H 0.0191 0.3969 0.6774
N2_4 N 0.9067(11) 0.4530(15) 0.6166(8)
H21_4 H 0.8907 0.4411 0.6492
H22_4 H 0.9862 0.4396 0.5465
C26_4 C 0.8824(11) 0.3826(19) 0.5834(11)
H25_4 H 0.8908 0.3252 0.5971
H26_4 H 0.9039 0.3863 0.5524
C27_4 C 0.8080(11) 0.397(2) 0.5769(10)
H27_4 H 0.7877 0.3985 0.6080
H28_4 H 0.7904 0.3492 0.5584
H29_4 H 0.8005 0.4510 0.5603
H30_4 H 0.9659 0.4640 0.6930
C29_4 C 0.9780(12) 0.460(2) 0.6186(8)
H33_4 H 0.9823 0.3969 0.6149
C30_4 C 0.8852(14) 0.5412(16) 0.6021(9)
H34_4 H 0.8390 0.5474 0.6079
C31_4 C 0.9230(12) 0.6029(19) 0.6357(10)
H35_4 H 0.9410 0.5697 0.6619
H36_4 H 0.8946 0.6469 0.6484
H37_4 H 0.9570 0.6306 0.6179
C32_4 C 0.9001(13) 0.556(2) 0.5482(9)
H38_4 H 0.9423 0.5347 0.5410
H39_4 H 0.8983 0.6181 0.5413
H40_4 H 0.8690 0.5261 0.5289
H24_5 H 0.4953 0.0355 0.5615
C30_5 C 0.6148(14) 0.0412(16) 0.6021(9)
H34_5 H 0.6610 0.0474 0.6079
C31_5 C 0.5770(12) 0.1029(19) 0.6357(10)
H35_5 H 0.5590 0.0697 0.6619
H36_5 H 0.6054 0.1469 0.6484
H37_5 H 0.5430 0.1306 0.6179
C32_5 C 0.5999(13) 0.056(2) 0.5482(9)
H38_5 H 0.5577 0.0347 0.5410
H39_5 H 0.6017 0.1181 0.5413
H40_5 H 0.6310 0.0261 0.5289
N2_5 N 0.5933(11) 0.9530(15) 0.6166(8)
H21_5 H 0.6093 0.9411 0.6492
C25_5 C 0.4919(13) 0.975(2) 0.5701(9)
H22_5 H 0.5138 0.9396 0.5465
H23_5 H 0.4474 0.9581 0.5713
C26_5 C 0.6176(11) 0.8826(19) 0.5834(11)
H25_5 H 0.6092 0.8252 0.5971
H26_5 H 0.5961 0.8863 0.5524
C27_5 C 0.6920(11) 0.897(2) 0.5769(10)
H27_5 H 0.7123 0.8985 0.6080
H28_5 H 0.7096 0.8492 0.5584
H29_5 H 0.6995 0.9510 0.5603
C28_5 C 0.4985(13) 0.954(2) 0.6716(8)
H30_5 H 0.5341 0.9640 0.6930
H31_5 H 0.4661 0.9977 0.6773
H32_5 H 0.4809 0.8969 0.6774
C29_5 C 0.5220(12) 0.960(2) 0.6186(8)
H33_5 H 0.5177 0.8969 0.6149
C25_6 C 0.0081(13) 0.025(2) 0.0701(9)
H23_6 H 0.0526 0.0419 0.0713
C28_6 C 0.0015(13) 0.046(2) 0.1716(8)
H31_6 H 0.0339 0.0023 0.1773
H32_6 H 0.0191 0.1031 0.1774
H24_6 H 0.0047 0.9645 0.0615
N2_6 N 0.9067(11) 0.0470(15) 0.1166(8)
H21_6 H 0.8907 0.0589 0.1492
H22_6 H 0.9862 0.0604 0.0465
C26_6 C 0.8824(11) 0.1174(19) 0.0834(11)
H25_6 H 0.8908 0.1748 0.0971
H26_6 H 0.9039 0.1137 0.0524
C27_6 C 0.8080(11) 0.103(2) 0.0769(10)
H27_6 H 0.7877 0.1015 0.1080
H28_6 H 0.7904 0.1508 0.0584
H29_6 H 0.8005 0.0490 0.0603
H30_6 H 0.9659 0.0360 0.1930
C29_6 C 0.9780(12) 0.040(2) 0.1186(8)
H33_6 H 0.9823 0.1031 0.1149
C30_6 C 0.8852(14) 0.9588(16) 0.1021(9)
H34_6 H 0.8390 0.9526 0.1079
C31_6 C 0.9230(12) 0.8971(19) 0.1357(10)
H35_6 H 0.9410 0.9303 0.1619
H36_6 H 0.8946 0.8531 0.1484
H37_6 H 0.9570 0.8694 0.1179
C32_6 C 0.9001(13) 0.944(2) 0.0482(9)
H38_6 H 0.9423 0.9653 0.0410
H39_6 H 0.8983 0.8819 0.0413
H40_6 H 0.8690 0.9739 0.0289
N2_7 N 0.4067(11) 0.4530(15) 0.8834(8)
H21_7 H 0.3907 0.4411 0.8508
C25_7 C 0.5081(13) 0.475(2) 0.9299(9)
H22_7 H 0.4862 0.4396 0.9535
H23_7 H 0.5526 0.4581 0.9287
H24_7 H 0.5047 0.5355 0.9385
C26_7 C 0.3824(11) 0.3826(19) 0.9166(11)
H25_7 H 0.3908 0.3252 0.9029
H26_7 H 0.4039 0.3863 0.9476
C27_7 C 0.3080(11) 0.397(2) 0.9231(10)
H27_7 H 0.2877 0.3985 0.8920
H28_7 H 0.2904 0.3492 0.9416
H29_7 H 0.3005 0.4510 0.9397
C28_7 C 0.5015(13) 0.454(2) 0.8284(8)
H30_7 H 0.4659 0.4640 0.8070
H31_7 H 0.5339 0.4977 0.8227
H32_7 H 0.5191 0.3969 0.8226
C29_7 C 0.4780(12) 0.460(2) 0.8814(8)
H33_7 H 0.4823 0.3969 0.8851
C30_7 C 0.3852(14) 0.5412(16) 0.8979(9)
H34_7 H 0.3390 0.5474 0.8921
C31_7 C 0.4230(12) 0.6029(19) 0.8643(10)
H35_7 H 0.4410 0.5697 0.8381
H36_7 H 0.3946 0.6469 0.8516
H37_7 H 0.4570 0.6306 0.8821
C32_7 C 0.4001(13) 0.556(2) 0.9518(9)
H38_7 H 0.4423 0.5347 0.9590
H39_7 H 0.3983 0.6181 0.9587
H40_7 H 0.3690 0.5261 0.9711
N2_8 N 0.0933(11) 0.5470(15) 0.3834(8)
H21_8 H 0.1093 0.5589 0.3508
H22_8 H 0.0138 0.5604 0.4535
C26_8 C 0.1176(11) 0.6174(19) 0.4166(11)
H25_8 H 0.1092 0.6748 0.4029
H26_8 H 0.0961 0.6137 0.4476
C27_8 C 0.1920(11) 0.603(2) 0.4231(10)
H27_8 H 0.2123 0.6015 0.3920
H28_8 H 0.2096 0.6508 0.4416
H29_8 H 0.1995 0.5490 0.4397
H30_8 H 0.0341 0.5360 0.3070
C29_8 C 0.0220(12) 0.540(2) 0.3814(8)
H33_8 H 0.0177 0.6031 0.3851
C30_8 C 0.1148(14) 0.4588(16) 0.3979(9)
H34_8 H 0.1610 0.4526 0.3921
C31_8 C 0.0770(12) 0.3971(19) 0.3643(10)
H35_8 H 0.0590 0.4303 0.3381
H36_8 H 0.1054 0.3531 0.3516
H37_8 H 0.0430 0.3694 0.3821
C32_8 C 0.0999(13) 0.444(2) 0.4518(9)
H38_8 H 0.0577 0.4653 0.4590
H39_8 H 0.1017 0.3819 0.4587
H40_8 H 0.1310 0.4739 0.4711
C25_8 C 0.9919(13) 0.525(2) 0.4299(9)
H23_8 H 0.9474 0.5419 0.4287
H24_8 H 0.9953 0.4645 0.4385
C28_8 C 0.9985(13) 0.546(2) 0.3284(8)
H31_8 H 0.9661 0.5023 0.3227
H32_8 H 0.9809 0.6031 0.3226
loop_
_geom_bond_atom_site_label_1
_geom_bond_atom_site_label_2
_geom_bond_site_symmetry_1
_geom_bond_site_symmetry_2
Zn1 O2 1_555 1_555
Zn2 O1 1_555 1_555
Zn3 O1 1_555 1_555
O1 C14 1_555 1_555
O2 C4 1_555 1_555
O3 C1 1_555 1_555
O4 C5 1_555 1_555
O5 Zn2 1_555 1_555
O6 C8 1_555 1_555
O7 C8 1_555 1_555
O8 Zn1 1_555 1_555
O9 Zn3 1_555 1_555
O10 C1 1_555 1_555
O11 C5 1_555 1_555
O12 Zn3 1_555 1_555
O13 C12 1_555 1_555
O14 C13 1_555 1_555
C1 C7 1_555 1_555
O15 C14 1_555 1_555
C2 C3 1_555 1_555
C3 C4 1_555 1_555
C4 O16 1_555 1_555
C5 C6 1_555 1_555
C6 C11 1_555 1_555
C7 C9 1_555 1_555
C8 C2 1_555 1_555
C9 C13 1_555 1_555
C10 O5 1_555 1_555
C11 C14 1_555 1_555
C12 O8 1_555 1_555
C13 O9 1_555 1_555
C15 C10 1_555 1_555
C16 C12 1_555 1_555
Zn4 O10 1_555 1_555
Zn5 O7 1_555 1_555
Zn6 O2 1_555 1_555
Zn7 O6 1_555 1_555
Zn8 O3 1_555 1_555
Zn9 O4 1_555 1_555
Zn10 O11 1_555 1_555
O17 Zn2 1_555 1_555
O18 Zn2 1_555 1_555
O19 Zn2 1_555 1_555
O20 Zn2 1_555 1_555
O21 Zn1 1_555 1_555
O22 Zn1 1_555 1_555
O23 Zn3 1_555 1_555
O12 C10 1_555 1_555
C15 C16 1_555 1_555
Zn1_2 O2_2 1_555 1_555
O2_2 C4_2 1_555 1_555
O6_2 C8_2 1_555 1_555
O7_2 C8_2 1_555 1_555
O8_2 Zn1_2 1_555 1_555
O13_2 C12_2 1_555 1_555
C2_2 C3_2 1_555 1_555
C3_2 C4_2 1_555 1_555
C8_2 C2_2 1_555 1_555
C12_2 O8_2 1_555 1_555
Zn4 O7_2 1_555 1_555
Zn6_2 O2_2 1_555 1_555
Zn8 O6_2 1_555 1_555
O21_2 Zn1_2 1_555 1_555
O22_2 Zn1_2 1_555 1_555
O3_2 C1_2 1_555 1_555
O10_2 C1_2 1_555 1_555
C1_2 C7_2 1_555 1_555
C7_2 C9_2 1_555 1_555
Zn5 O10_2 1_555 1_555
Zn7 O3_2 1_555 1_555
Zn2_2 O1_2 1_555 1_555
Zn3_2 O1_2 1_555 1_555
O1_2 C14_2 1_555 1_555
O4_2 C5_2 1_555 1_555
O5_2 Zn2_2 1_555 1_555
O9_2 Zn3_2 1_555 1_555
O11_2 C5_2 1_555 1_555
O12_2 Zn3_2 1_555 1_555
O14_2 C13_2 1_555 1_555
O15_2 C14_2 1_555 1_555
C5_2 C6_2 1_555 1_555
C6_2 C11_2 1_555 1_555
C10_2 O5_2 1_555 1_555
C11_2 C14_2 1_555 1_555
C13_2 O9_2 1_555 1_555
C15_2 C10_2 1_555 1_555
Zn9_2 O4_2 1_555 1_555
Zn10_2 O11_2 1_555 1_555
O17_2 Zn2_2 1_555 1_555
O18_2 Zn2_2 1_555 1_555
O19_2 Zn2_2 1_555 1_555
O20_2 Zn2_2 1_555 1_555
O23_2 Zn3_2 1_555 1_555
O12_2 C10_2 1_555 1_555
C15_2 C16_2 1_555 1_555
O4_3 C5_3 1_555 1_555
O11_3 C5_3 1_555 1_555
C5_3 C6_3 1_555 1_555
Zn8 O4_3 1_555 1_555
Zn10_3 O11_3 1_555 1_555
O6_3 C8_3 1_555 1_555
O7_3 C8_3 1_555 1_555
Zn5_2 O7_3 1_555 1_555
Zn9_2 O6_3 1_555 1_555
Zn6_2 O1_3 1_555 1_555
Zn3_3 O1_3 1_555 1_555
O1_3 C14_3 1_555 1_555
O3_3 C1_3 1_555 1_555
O5_3 Zn6_2 1_555 1_555
O9_3 Zn3_3 1_555 1_555
O10_3 C1_3 1_555 1_555
O12_3 Zn3_3 1_555 1_555
O14_3 C13_3 1_555 1_555
C1_3 C7_3 1_555 1_555
O15_3 C14_3 1_555 1_555
C7_3 C9_3 1_555 1_555
C9_3 C13_3 1_555 1_555
C10_3 O5_3 1_555 1_555
C11_3 C14_3 1_555 1_555
C13_3 O9_3 1_555 1_555
C15_3 C10_3 1_555 1_555
Zn4_2 O10_3 1_555 1_555
Zn9 O3_3 1_555 1_555
O18_3 Zn6_2 1_555 1_555
O19_3 Zn6_2 1_555 1_555
O20_3 Zn6_2 1_555 1_555
O23_3 Zn3_3 1_555 1_555
O12_3 C10_3 1_555 1_555
C15_3 C16_3 1_555 1_555
Zn1_3 O17_2 1_555 1_555
O17_2 C4_3 1_555 1_555
O8_3 Zn1_3 1_555 1_555
O13_3 C12_3 1_555 1_555
C2_3 C3_3 1_555 1_555
C3_3 C4_3 1_555 1_555
C12_3 O8_3 1_555 1_555
O21_3 Zn1_3 1_555 1_555
O22_3 Zn1_3 1_555 1_555
Zn6 O1_4 1_555 1_555
Zn3_4 O1_4 1_555 1_555
O1_4 C14_4 1_555 1_555
O5_4 Zn6 1_555 1_555
O9_4 Zn3_4 1_555 1_555
O12_4 Zn3_4 1_555 1_555
O14_4 C13_4 1_555 1_555
O15_4 C14_4 1_555 1_555
C10_4 O5_4 1_555 1_555
C11_4 C14_4 1_555 1_555
C13_4 O9_4 1_555 1_555
C15_4 C10_4 1_555 1_555
O18_4 Zn6 1_555 1_555
O19_4 Zn6 1_555 1_555
O20_4 Zn6 1_555 1_555
O23_4 Zn3_4 1_555 1_555
O12_4 C10_4 1_555 1_555
C15_4 C16_4 1_555 1_555
O4_4 C5_4 1_555 1_555
O11_4 C5_4 1_555 1_555
C5_4 C6_4 1_555 1_555
Zn7 O4_4 1_555 1_555
Zn10_4 O11_4 1_555 1_555
Zn1_4 O17 1_555 1_555
O17 C4_4 1_555 1_555
O3_4 C1_4 1_555 1_555
O8_4 Zn1_4 1_555 1_555
O10_4 C1_4 1_555 1_555
O13_4 C12_4 1_555 1_555
C1_4 C7_4 1_555 1_555
C2_4 C3_4 1_555 1_555
C3_4 C4_4 1_555 1_555
C4_4 O16_4 1_555 1_555
C7_4 C9_4 1_555 1_555
C12_4 O8_4 1_555 1_555
Zn5_2 O10_4 1_555 1_555
Zn9_2 O3_4 1_555 1_555
O21_4 Zn1_4 1_555 1_555
O22_4 Zn1_4 1_555 1_555
O6_4 C8_4 1_555 1_555
O7_4 C8_4 1_555 1_555
Zn4_2 O7_4 1_555 1_555
Zn9 O6_4 1_555 1_555
Zn4_2 O2_3 1_555 1_555
Zn7 O1_5 1_555 1_555
Zn10_4 O1_5 1_555 1_555
O1_5 C14_5 1_555 1_555
O2_3 C4_5 1_555 1_555
O18_2 C1_5 1_555 1_555
O19_4 C5_5 1_555 1_555
O5_5 Zn7 1_555 1_555
O20 C8_5 1_555 1_555
O21_4 C8_5 1_555 1_555
O8_5 Zn4_2 1_555 1_555
O9_5 Zn10_4 1_555 1_555
O22_3 C1_5 1_555 1_555
O23_4 C5_5 1_555 1_555
O12_5 Zn10_4 1_555 1_555
O13_5 C12_5 1_555 1_555
O14_5 C13_5 1_555 1_555
C1_5 C7_5 1_555 1_555
O15_5 C14_5 1_555 1_555
C2_5 C3_5 1_555 1_555
C3_5 C4_5 1_555 1_555
C4_5 O16_5 1_555 1_555
C5_5 C6_5 1_555 1_555
C6_5 C11_5 1_555 1_555
C7_5 C9_5 1_555 1_555
C8_5 C2_5 1_555 1_555
C9_5 C13_5 1_555 1_555
C10_5 O5_5 1_555 1_555
C11_5 C14_5 1_555 1_555
C12_5 O8_5 1_555 1_555
C13_5 O9_5 1_555 1_555
C15_5 C10_5 1_555 1_555
C16_5 C12_5 1_555 1_555
Zn9 O2_3 1_555 1_555
O17_3 Zn7 1_555 1_555
O12_5 C10_5 1_555 1_555
C15_5 C16_5 1_555 1_555
Zn8 O1_6 1_555 1_555
Zn10_3 O1_6 1_555 1_555
O1_6 C14_6 1_555 1_555
O19_3 C5_6 1_555 1_555
O5_6 Zn8 1_555 1_555
O9_6 Zn10_3 1_555 1_555
O23_3 C5_6 1_555 1_555
O12_6 Zn10_3 1_555 1_555
O14_6 C13_6 1_555 1_555
O15_6 C14_6 1_555 1_555
C5_6 C6_6 1_555 1_555
C6_6 C11_6 1_555 1_555
C10_6 O5_6 1_555 1_555
C11_6 C14_6 1_555 1_555
C13_6 O9_6 1_555 1_555
C15_6 C10_6 1_555 1_555
O17_4 Zn8 1_555 1_555
O12_6 C10_6 1_555 1_555
C15_6 C16_6 1_555 1_555
O18 C1_6 1_555 1_555
O22_4 C1_6 1_555 1_555
C1_6 C7_6 1_555 1_555
C7_6 C9_6 1_555 1_555
Zn5_2 O2_4 1_555 1_555
O2_4 C4_6 1_555 1_555
O20_2 C8_6 1_555 1_555
O21_3 C8_6 1_555 1_555
O8_6 Zn5_2 1_555 1_555
O13_6 C12_6 1_555 1_555
C2_6 C3_6 1_555 1_555
C3_6 C4_6 1_555 1_555
C8_6 C2_6 1_555 1_555
C12_6 O8_6 1_555 1_555
Zn9_2 O2_4 1_555 1_555
Zn4 O17_4 1_555 1_555
O17_4 C4_7 1_555 1_555
O8_7 Zn4 1_555 1_555
O13_7 C12_7 1_555 1_555
C2_7 C3_7 1_555 1_555
C3_7 C4_7 1_555 1_555
C12_7 O8_7 1_555 1_555
Zn9_2 O1_7 1_555 1_555
Zn10_2 O1_7 1_555 1_555
O1_7 C14_7 1_555 1_555
O18_4 C1_7 1_555 1_555
O5_7 Zn9_2 1_555 1_555
O9_7 Zn10_2 1_555 1_555
O22 C1_7 1_555 1_555
O12_7 Zn10_2 1_555 1_555
O14_7 C13_7 1_555 1_555
C1_7 C7_7 1_555 1_555
O15_7 C14_7 1_555 1_555
C7_7 C9_7 1_555 1_555
C9_7 C13_7 1_555 1_555
C10_7 O5_7 1_555 1_555
C11_7 C14_7 1_555 1_555
C13_7 O9_7 1_555 1_555
C15_7 C10_7 1_555 1_555
O12_7 C10_7 1_555 1_555
C15_7 C16_7 1_555 1_555
O20_3 C8_7 1_555 1_555
O21_2 C8_7 1_555 1_555
O19_2 C5_7 1_555 1_555
O23_2 C5_7 1_555 1_555
C5_7 C6_7 1_555 1_555
O20_4 C8_8 1_555 1_555
O21 C8_8 1_555 1_555
Zn5 O17_3 1_555 1_555
O17_3 C4_8 1_555 1_555
O18_3 C1_8 1_555 1_555
O8_8 Zn5 1_555 1_555
O22_2 C1_8 1_555 1_555
O13_8 C12_8 1_555 1_555
C1_8 C7_8 1_555 1_555
C2_8 C3_8 1_555 1_555
C3_8 C4_8 1_555 1_555
C4_8 O16_8 1_555 1_555
C7_8 C9_8 1_555 1_555
C12_8 O8_8 1_555 1_555
O19 C5_8 1_555 1_555
O23 C5_8 1_555 1_555
C5_8 C6_8 1_555 1_555
Zn9 O1_8 1_555 1_555
Zn10 O1_8 1_555 1_555
O1_8 C14_8 1_555 1_555
O5_8 Zn9 1_555 1_555
O9_8 Zn10 1_555 1_555
O12_8 Zn10 1_555 1_555
O14_8 C13_8 1_555 1_555
O15_8 C14_8 1_555 1_555
C10_8 O5_8 1_555 1_555
C11_8 C14_8 1_555 1_555
C13_8 O9_8 1_555 1_555
C15_8 C10_8 1_555 1_555
O12_8 C10_8 1_555 1_555
C15_8 C16_8 1_555 1_555
C17 H1 1_555 1_555
H2 C17 1_555 1_555
H3 C17 1_555 1_555
N1 H4 1_555 1_555
C18 N1 1_555 1_555
H5 C18 1_555 1_555
H6 C18 1_555 1_555
C19 C17 1_555 1_555
H7 C19 1_555 1_555
C20 H8 1_555 1_555
H9 C20 1_555 1_555
H10 C20 1_555 1_555
C21 H11 1_555 1_555
H12 C21 1_555 1_555
H13 C21 1_555 1_555
C22 C18 1_555 1_555
H14 C22 1_555 1_555
H15 C22 1_555 1_555
H16 C22 1_555 1_555
C23 C19 1_555 1_555
H17 C23 1_555 1_555
H18 C23 1_555 1_555
H19 C23 1_555 1_555
C24 N1 1_555 1_555
H20 C24 1_555 1_555
N1 C19 1_555 1_555
C20 C24 1_555 1_555
C21 C24 1_555 1_555
N1_2 H4_2 1_555 1_555
C18_2 N1_2 1_555 1_555
H5_2 C18_2 1_555 1_555
H6_2 C18_2 1_555 1_555
C20_2 H8_2 1_555 1_555
H9_2 C20_2 1_555 1_555
H10_2 C20_2 1_555 1_555
C21_2 H11_2 1_555 1_555
H12_2 C21_2 1_555 1_555
H13_2 C21_2 1_555 1_555
C22_2 C18_2 1_555 1_555
H14_2 C22_2 1_555 1_555
H15_2 C22_2 1_555 1_555
H16_2 C22_2 1_555 1_555
C24_2 N1_2 1_555 1_555
H20_2 C24_2 1_555 1_555
C20_2 C24_2 1_555 1_555
C21_2 C24_2 1_555 1_555
C17_2 H1_2 1_555 1_555
H2_2 C17_2 1_555 1_555
H3_2 C17_2 1_555 1_555
C19_2 C17_2 1_555 1_555
H7_2 C19_2 1_555 1_555
C23_2 C19_2 1_555 1_555
H17_2 C23_2 1_555 1_555
H18_2 C23_2 1_555 1_555
H19_2 C23_2 1_555 1_555
C17_3 H1_3 1_555 1_555
H2_3 C17_3 1_555 1_555
C18_3 N1_3 1_555 1_555
H5_3 C18_3 1_555 1_555
H6_3 C18_3 1_555 1_555
C19_3 C17_3 1_555 1_555
H7_3 C19_3 1_555 1_555
C20_3 H8_3 1_555 1_555
H9_3 C20_3 1_555 1_555
H10_3 C20_3 1_555 1_555
H12_3 C21_3 1_555 1_555
C23_3 C19_3 1_555 1_555
H17_3 C23_3 1_555 1_555
H18_3 C23_3 1_555 1_555
H19_3 C23_3 1_555 1_555
C24_3 N1_3 1_555 1_555
H20_3 C24_3 1_555 1_555
N1_3 C19_3 1_555 1_555
C20_3 C24_3 1_555 1_555
C21_3 C24_3 1_555 1_555
H14_3 C22_3 1_555 1_555
H15_3 C22_3 1_555 1_555
H16_3 C22_3 1_555 1_555
C17_4 H1_4 1_555 1_555
H2_4 C17_4 1_555 1_555
C19_4 C17_4 1_555 1_555
H7_4 C19_4 1_555 1_555
C23_4 C19_4 1_555 1_555
H17_4 C23_4 1_555 1_555
H18_4 C23_4 1_555 1_555
H19_4 C23_4 1_555 1_555
H14_4 C22_4 1_555 1_555
H15_4 C22_4 1_555 1_555
H16_4 C22_4 1_555 1_555
C18_4 N1_4 1_555 1_555
H5_4 C18_4 1_555 1_555
H6_4 C18_4 1_555 1_555
C20_4 H8_4 1_555 1_555
H9_4 C20_4 1_555 1_555
H10_4 C20_4 1_555 1_555
H12_4 C21_4 1_555 1_555
C24_4 N1_4 1_555 1_555
H20_4 C24_4 1_555 1_555
C20_4 C24_4 1_555 1_555
C21_4 C24_4 1_555 1_555
C17_5 H1_5 1_555 1_555
H2_5 C17_5 1_555 1_555
H3_5 C17_5 1_555 1_555
N1_5 H4_5 1_555 1_555
C18_5 N1_5 1_555 1_555
H5_5 C18_5 1_555 1_555
H6_5 C18_5 1_555 1_555
C19_5 C17_5 1_555 1_555
H7_5 C19_5 1_555 1_555
C20_5 H8_5 1_555 1_555
H9_5 C20_5 1_555 1_555
H10_5 C20_5 1_555 1_555
C21_5 H11_5 1_555 1_555
H12_5 C21_5 1_555 1_555
H13_5 C21_5 1_555 1_555
C22_5 C18_5 1_555 1_555
H14_5 C22_5 1_555 1_555
H15_5 C22_5 1_555 1_555
H16_5 C22_5 1_555 1_555
C23_5 C19_5 1_555 1_555
H17_5 C23_5 1_555 1_555
H18_5 C23_5 1_555 1_555
H19_5 C23_5 1_555 1_555
C24_5 N1_5 1_555 1_555
H20_5 C24_5 1_555 1_555
N1_5 C19_5 1_555 1_555
C20_5 C24_5 1_555 1_555
C21_5 C24_5 1_555 1_555
C17_6 H1_6 1_555 1_555
H2_6 C17_6 1_555 1_555
H3_6 C17_6 1_555 1_555
C19_6 C17_6 1_555 1_555
H7_6 C19_6 1_555 1_555
C23_6 C19_6 1_555 1_555
H17_6 C23_6 1_555 1_555
H18_6 C23_6 1_555 1_555
H19_6 C23_6 1_555 1_555
N1_6 H4_6 1_555 1_555
C18_6 N1_6 1_555 1_555
H5_6 C18_6 1_555 1_555
H6_6 C18_6 1_555 1_555
C20_6 H8_6 1_555 1_555
H9_6 C20_6 1_555 1_555
H10_6 C20_6 1_555 1_555
C21_6 H11_6 1_555 1_555
H12_6 C21_6 1_555 1_555
H13_6 C21_6 1_555 1_555
C22_6 C18_6 1_555 1_555
H14_6 C22_6 1_555 1_555
H15_6 C22_6 1_555 1_555
H16_6 C22_6 1_555 1_555
C24_6 N1_6 1_555 1_555
H20_6 C24_6 1_555 1_555
C20_6 C24_6 1_555 1_555
C21_6 C24_6 1_555 1_555
H14_7 C22_7 1_555 1_555
H15_7 C22_7 1_555 1_555
H16_7 C22_7 1_555 1_555
C17_7 H1_7 1_555 1_555
H2_7 C17_7 1_555 1_555
C18_7 N1_7 1_555 1_555
H5_7 C18_7 1_555 1_555
H6_7 C18_7 1_555 1_555
C19_7 C17_7 1_555 1_555
H7_7 C19_7 1_555 1_555
C20_7 H8_7 1_555 1_555
H9_7 C20_7 1_555 1_555
H10_7 C20_7 1_555 1_555
H12_7 C21_7 1_555 1_555
C23_7 C19_7 1_555 1_555
H17_7 C23_7 1_555 1_555
H18_7 C23_7 1_555 1_555
H19_7 C23_7 1_555 1_555
C24_7 N1_7 1_555 1_555
H20_7 C24_7 1_555 1_555
N1_7 C19_7 1_555 1_555
C20_7 C24_7 1_555 1_555
C21_7 C24_7 1_555 1_555
C18_8 N1_8 1_555 1_555
H5_8 C18_8 1_555 1_555
H6_8 C18_8 1_555 1_555
C20_8 H8_8 1_555 1_555
H9_8 C20_8 1_555 1_555
H10_8 C20_8 1_555 1_555
H12_8 C21_8 1_555 1_555
C24_8 N1_8 1_555 1_555
H20_8 C24_8 1_555 1_555
C20_8 C24_8 1_555 1_555
C21_8 C24_8 1_555 1_555
H14_8 C22_8 1_555 1_555
H15_8 C22_8 1_555 1_555
H16_8 C22_8 1_555 1_555
C17_8 H1_8 1_555 1_555
H2_8 C17_8 1_555 1_555
C19_8 C17_8 1_555 1_555
H7_8 C19_8 1_555 1_555
C23_8 C19_8 1_555 1_555
H17_8 C23_8 1_555 1_555
H18_8 C23_8 1_555 1_555
H19_8 C23_8 1_555 1_555
N2 H21 1_555 1_555
C25 H22 1_555 1_555
H23 C25 1_555 1_555
C26 N2 1_555 1_555
H25 C26 1_555 1_555
H26 C26 1_555 1_555
C27 C26 1_555 1_555
H27 C27 1_555 1_555
H28 C27 1_555 1_555
H29 C27 1_555 1_555
C28 H30 1_555 1_555
H31 C28 1_555 1_555
H32 C28 1_555 1_555
C29 N2 1_555 1_555
H33 C29 1_555 1_555
C25 C29 1_555 1_555
C28 C29 1_555 1_555
H34 C30 1_555 1_555
C31 C30 1_555 1_555
H35 C31 1_555 1_555
H36 C31 1_555 1_555
H37 C31 1_555 1_555
C32 C30 1_555 1_555
H38 C32 1_555 1_555
H39 C32 1_555 1_555
H40 C32 1_555 1_555
H34_2 C30_2 1_555 1_555
C31_2 C30_2 1_555 1_555
H35_2 C31_2 1_555 1_555
H36_2 C31_2 1_555 1_555
H37_2 C31_2 1_555 1_555
C32_2 C30_2 1_555 1_555
H38_2 C32_2 1_555 1_555
H39_2 C32_2 1_555 1_555
H40_2 C32_2 1_555 1_555
N2_2 H21_2 1_555 1_555
C26_2 N2_2 1_555 1_555
H25_2 C26_2 1_555 1_555
H26_2 C26_2 1_555 1_555
C27_2 C26_2 1_555 1_555
H27_2 C27_2 1_555 1_555
H28_2 C27_2 1_555 1_555
H29_2 C27_2 1_555 1_555
C29_2 N2_2 1_555 1_555
H33_2 C29_2 1_555 1_555
H23_2 C25_2 1_555 1_555
H31_2 C28_2 1_555 1_555
H32_2 C28_2 1_555 1_555
N2_3 H21_3 1_555 1_555
C25_3 H22_3 1_555 1_555
H23_3 C25_3 1_555 1_555
H24_3 C25_3 1_555 1_555
C26_3 N2_3 1_555 1_555
H25_3 C26_3 1_555 1_555
H26_3 C26_3 1_555 1_555
C27_3 C26_3 1_555 1_555
H27_3 C27_3 1_555 1_555
H28_3 C27_3 1_555 1_555
H29_3 C27_3 1_555 1_555
C28_3 H30_3 1_555 1_555
H31_3 C28_3 1_555 1_555
H32_3 C28_3 1_555 1_555
C29_3 N2_3 1_555 1_555
H33_3 C29_3 1_555 1_555
C30_3 N2_3 1_555 1_555
H34_3 C30_3 1_555 1_555
C31_3 C30_3 1_555 1_555
H35_3 C31_3 1_555 1_555
H36_3 C31_3 1_555 1_555
H37_3 C31_3 1_555 1_555
C32_3 C30_3 1_555 1_555
H38_3 C32_3 1_555 1_555
H39_3 C32_3 1_555 1_555
H40_3 C32_3 1_555 1_555
C25_3 C29_3 1_555 1_555
C28_3 C29_3 1_555 1_555
H23_4 C25_4 1_555 1_555
H24_4 C25_4 1_555 1_555
H31_4 C28_4 1_555 1_555
H32_4 C28_4 1_555 1_555
N2_4 H21_4 1_555 1_555
C26_4 N2_4 1_555 1_555
H25_4 C26_4 1_555 1_555
H26_4 C26_4 1_555 1_555
C27_4 C26_4 1_555 1_555
H27_4 C27_4 1_555 1_555
H28_4 C27_4 1_555 1_555
H29_4 C27_4 1_555 1_555
C29_4 N2_4 1_555 1_555
H33_4 C29_4 1_555 1_555
C30_4 N2_4 1_555 1_555
H34_4 C30_4 1_555 1_555
C31_4 C30_4 1_555 1_555
H35_4 C31_4 1_555 1_555
H36_4 C31_4 1_555 1_555
H37_4 C31_4 1_555 1_555
C32_4 C30_4 1_555 1_555
H38_4 C32_4 1_555 1_555
H39_4 C32_4 1_555 1_555
H40_4 C32_4 1_555 1_555
H34_5 C30_5 1_555 1_555
C31_5 C30_5 1_555 1_555
H35_5 C31_5 1_555 1_555
H36_5 C31_5 1_555 1_555
H37_5 C31_5 1_555 1_555
C32_5 C30_5 1_555 1_555
H38_5 C32_5 1_555 1_555
H39_5 C32_5 1_555 1_555
H40_5 C32_5 1_555 1_555
N2_5 H21_5 1_555 1_555
C25_5 H22_5 1_555 1_555
H23_5 C25_5 1_555 1_555
C26_5 N2_5 1_555 1_555
H25_5 C26_5 1_555 1_555
H26_5 C26_5 1_555 1_555
C27_5 C26_5 1_555 1_555
H27_5 C27_5 1_555 1_555
H28_5 C27_5 1_555 1_555
H29_5 C27_5 1_555 1_555
C28_5 H30_5 1_555 1_555
H31_5 C28_5 1_555 1_555
H32_5 C28_5 1_555 1_555
C29_5 N2_5 1_555 1_555
H33_5 C29_5 1_555 1_555
C25_5 C29_5 1_555 1_555
C28_5 C29_5 1_555 1_555
H23_6 C25_6 1_555 1_555
H31_6 C28_6 1_555 1_555
H32_6 C28_6 1_555 1_555
N2_6 H21_6 1_555 1_555
C26_6 N2_6 1_555 1_555
H25_6 C26_6 1_555 1_555
H26_6 C26_6 1_555 1_555
C27_6 C26_6 1_555 1_555
H27_6 C27_6 1_555 1_555
H28_6 C27_6 1_555 1_555
H29_6 C27_6 1_555 1_555
C29_6 N2_6 1_555 1_555
H33_6 C29_6 1_555 1_555
H34_6 C30_6 1_555 1_555
C31_6 C30_6 1_555 1_555
H35_6 C31_6 1_555 1_555
H36_6 C31_6 1_555 1_555
H37_6 C31_6 1_555 1_555
C32_6 C30_6 1_555 1_555
H38_6 C32_6 1_555 1_555
H39_6 C32_6 1_555 1_555
H40_6 C32_6 1_555 1_555
N2_7 H21_7 1_555 1_555
C25_7 H22_7 1_555 1_555
H23_7 C25_7 1_555 1_555
H24_7 C25_7 1_555 1_555
C26_7 N2_7 1_555 1_555
H25_7 C26_7 1_555 1_555
H26_7 C26_7 1_555 1_555
C27_7 C26_7 1_555 1_555
H27_7 C27_7 1_555 1_555
H28_7 C27_7 1_555 1_555
H29_7 C27_7 1_555 1_555
C28_7 H30_7 1_555 1_555
H31_7 C28_7 1_555 1_555
H32_7 C28_7 1_555 1_555
C29_7 N2_7 1_555 1_555
H33_7 C29_7 1_555 1_555
C30_7 N2_7 1_555 1_555
H34_7 C30_7 1_555 1_555
C31_7 C30_7 1_555 1_555
H35_7 C31_7 1_555 1_555
H36_7 C31_7 1_555 1_555
H37_7 C31_7 1_555 1_555
C32_7 C30_7 1_555 1_555
H38_7 C32_7 1_555 1_555
H39_7 C32_7 1_555 1_555
H40_7 C32_7 1_555 1_555
C25_7 C29_7 1_555 1_555
C28_7 C29_7 1_555 1_555
N2_8 H21_8 1_555 1_555
C26_8 N2_8 1_555 1_555
H25_8 C26_8 1_555 1_555
H26_8 C26_8 1_555 1_555
C27_8 C26_8 1_555 1_555
H27_8 C27_8 1_555 1_555
H28_8 C27_8 1_555 1_555
H29_8 C27_8 1_555 1_555
C29_8 N2_8 1_555 1_555
H33_8 C29_8 1_555 1_555
C30_8 N2_8 1_555 1_555
H34_8 C30_8 1_555 1_555
C31_8 C30_8 1_555 1_555
H35_8 C31_8 1_555 1_555
H36_8 C31_8 1_555 1_555
H37_8 C31_8 1_555 1_555
C32_8 C30_8 1_555 1_555
H38_8 C32_8 1_555 1_555
H39_8 C32_8 1_555 1_555
H40_8 C32_8 1_555 1_555
H23_8 C25_8 1_555 1_555
H24_8 C25_8 1_555 1_555
H31_8 C28_8 1_555 1_555
H32_8 C28_8 1_555 1_555

#END
