
###############################################################################
#
# This file contains modified crystal structure data generated from the
# MOF subset of the Cambridge Structural Database (CSD) v543 
# hosted by the Cambridge Crystallographic Data Centre (CCDC).
#
# This work is licensed under the Creative Commons
# Attribution-NonCommercial-ShareAlike 4.0 International License.
# To view a copy of this license, visit
# http://creativecommons.org/licenses/by-nc-sa/4.0/
# or send a letter to
# Creative Commons, PO Box 1866, Mountain View, CA 94042, USA.
#
# CIF created using the CSD Python API on 29 September 2022
# The structure has been converted into the P1 space group
# The structure has a 3D framework
# The original CSD entry PAGTEA is in the monoclinic crystal system
# The framework has been calculated to contain at least 10.0% void space
# The void calculation uses a probe of radius 1.32A, grid spacing 0.4
# H atom positions have been added when not included in the experimental data
#
###############################################################################

data_PAGTEA
_chemical_formula_moiety         '(C252 H168 N12 O82 Pr12)n'
_symmetry_cell_setting           triclinic
_symmetry_space_group_name_H-M   'P 1'
_symmetry_Int_Tables_number      1
_space_group_name_Hall           'P 1'
loop_
_symmetry_equiv_pos_site_id
_symmetry_equiv_pos_as_xyz
1 x,y,z
_cell_length_a                   14.5746(3)
_cell_length_b                   23.3584(4)
_cell_length_c                   24.9936(5)
_cell_angle_alpha                90
_cell_angle_beta                 102.564(2)
_cell_angle_gamma                90
_cell_volume                     8305.05
loop_
_atom_site_label
_atom_site_type_symbol
_atom_site_fract_x
_atom_site_fract_y
_atom_site_fract_z
O9 O 0.6728(4) 0.2734(2) 0.5097(2)
O13 O 0.6048(4) 0.2091(2) 0.5528(2)
O16 O 0.1868(4) 0.6482(2) 0.5148(2)
O17 O 0.3136(4) 0.6346(2) 0.5802(2)
N3 N 0.2594(5) 0.3802(3) 0.4822(3)
C3 C 0.5115(5) 0.2872(3) 0.5124(3)
C11 C 0.6012(5) 0.2545(3) 0.5250(3)
C12 C 0.5032(6) 0.3379(3) 0.4826(3)
H4 H 0.5547 0.3513 0.4684
C18 C 0.2535(6) 0.6167(3) 0.5406(3)
C20 C 0.3449(6) 0.3496(3) 0.4928(3)
C32 C 0.2578(6) 0.5553(3) 0.5235(3)
C34 C 0.0087(6) 0.3394(3) 0.4344(3)
C37 C 0.0135(5) 0.2981(3) 0.3953(3)
C42 C 0.1759(6) 0.3517(3) 0.4540(3)
C43 C 0.1815(6) 0.3082(3) 0.4170(3)
H17 H 0.2411 0.2964 0.4114
C44 C 0.1951(6) 0.4771(3) 0.4636(3)
H18 H 0.1512 0.4635 0.4324
C45 C 0.3533(6) 0.2989(4) 0.5226(3)
H19 H 0.3017 0.2856 0.5367
C48 C 0.1008(6) 0.2820(4) 0.3884(3)
H22 H 0.1057 0.2522 0.3633
C49 C 0.4355(6) 0.2675(4) 0.5319(3)
H23 H 0.4398 0.2325 0.5517
C50 C 0.2584(5) 0.4398(3) 0.4943(3)
C56 C 0.0882(6) 0.3655(3) 0.4635(3)
H29 H 0.0833 0.3933 0.4905
C57 C 0.3230(6) 0.4609(3) 0.5400(4)
H30 H 0.3671 0.4356 0.5616
C59 C 0.3229(6) 0.5187(4) 0.5539(3)
H32 H 0.3678 0.5329 0.5844
C60 C 0.1950(6) 0.5340(3) 0.4780(3)
H33 H 0.1509 0.5592 0.4562
C62 C 0.4211(6) 0.3687(4) 0.4737(3)
H35 H 0.4168 0.4038 0.4540
Pr7 Pr 0.74318(3) 0.26346(2) 0.43035(2)
Pr10 Pr 0.25682(3) 0.73654(2) 0.56965(2)
Pr14 Pr 0.76873(3) 0.22130(2) 0.60682(2)
O19 O 0.0777(5) 0.7986(3) 0.3379(3)
O20 O 0.1365(4) 0.8194(3) 0.2650(3)
C33 C 0.0706(6) 0.8193(4) 0.2913(4)
H34 H 0.0271 0.8823 0.2008
Pr6 Pr 0.23667(3) 0.75510(2) 0.22947(2)
Pr13 Pr 0.23127(3) 0.77870(2) 0.39318(2)
Pr1 Pr 0.76333(3) 0.25510(2) 0.27053(2)
Pr3 Pr 0.76873(3) 0.27870(2) 0.10682(2)
O1 O 0.7951(4) 0.1993(2) 0.1932(2)
O2 O 0.6825(4) 0.1897(2) 0.1181(2)
O3 O 0.8698(5) 0.1980(2) 0.0866(2)
O4 O 0.8472(3) 0.2930(2) 0.36598(19)
O5 O 0.9311(4) 0.2373(2) 0.3245(2)
O6 O 0.6741(4) 0.3028(2) 0.17484(19)
O7 O 0.2685(5) 0.6584(2) 0.2012(3)
O8 O 0.5952(4) 0.2432(2) 0.2171(2)
O10 O 0.7590(5) 0.3851(3) 0.1114(3)
O15 O 0.2227(5) 0.6782(3) 0.1129(3)
O21 O 0.6022(5) 0.1968(3) 0.4213(3)
N1 N 0.2581(5) 0.4069(3) 0.0982(3)
C1 C 0.2496(6) 0.6445(3) 0.1524(4)
C2 C 0.5962(5) 0.2840(3) 0.1847(3)
C4 C 0.9267(5) 0.2736(3) 0.3607(3)
C5 C 0.5072(6) 0.3155(3) 0.1604(3)
C6 C 0.0788(6) 0.3054(3) 0.0231(3)
H1 H 0.0755 0.2726 0.0003
C8 C 0.7379(6) 0.1062(3) 0.1659(3)
C10 C 0.8003(6) 0.0202(3) 0.2141(3)
H3 H 0.8452 0.0022 0.2424
C13 C 0.4212(5) 0.2936(3) 0.1650(3)
H5 H 0.4188 0.2582 0.1833
C17 C 0.5089(6) 0.3676(3) 0.1334(3)
H7 H 0.5671 0.3834 0.1295
C19 C 0.3388(6) 0.3224(3) 0.1433(3)
H8 H 0.2801 0.3061 0.1458
C21 C 0.0023(6) 0.3752(3) 0.0674(3)
C22 C 0.0889(6) 0.4017(3) 0.0881(3)
H10 H 0.0915 0.4350 0.1101
C24 C 0.1703(6) 0.3798(3) 0.0767(3)
C26 C 0.7371(6) 0.1684(3) 0.1583(3)
C27 C 0.2597(5) 0.4671(3) 0.1108(3)
C28 C 0.2556(6) 0.5828(3) 0.1370(3)
C29 C 0.2981(6) 0.4850(3) 0.1629(3)
H12 H 0.3264 0.4581 0.1900
C30 C 0.1649(6) 0.3309(3) 0.0437(3)
H13 H 0.2204 0.3153 0.0354
H14 H 0.9492 0.3499 0.4412
C40 C 0.4261(6) 0.3962(4) 0.1125(4)
H16 H 0.4279 0.4315 0.0939
C41 C 0.3413(6) 0.3745(3) 0.1180(3)
C46 C 0.6733(6) 0.0728(3) 0.1297(3)
H20 H 0.6305 0.0904 0.1002
C51 C 0.2956(6) 0.5425(3) 0.1761(3)
H24 H 0.3216 0.5546 0.2125
C53 C 0.6710(6) 0.0138(3) 0.1366(3)
C55 C 0.2225(7) 0.5062(4) 0.0710(3)
H28 H 0.1987 0.4937 0.0344
C58 C 0.2196(7) 0.5630(3) 0.0838(3)
H31 H 0.1927 0.5895 0.0559
C63 C 0.8020(6) 0.0783(3) 0.2073(3)
H36 H 0.8482 0.1002 0.2314
Pr9 Pr 0.25682(3) 0.76346(2) 0.06965(2)
O22 O 0.7315(5) 0.1584(2) 0.2988(3)
O24 O 0.6728(4) 0.2266(2) 0.0097(2)
O25 O 0.9032(4) 0.2380(3) 0.4759(2)
O26 O 0.6475(4) 0.2750(2) 0.33558(18)
O27 O 0.6048(4) 0.2909(2) 0.0528(2)
O28 O 0.6789(4) 0.3463(2) 0.2840(2)
O29 O 0.7773(5) 0.1782(3) 0.3871(3)
O30 O 0.8132(4) 0.3518(2) 0.4852(2)
O31 O 0.6864(4) 0.3654(2) 0.4198(2)
O32 O 0.8328(4) 0.3130(3) 0.0297(2)
O33 O 0.9223(5) 0.2986(3) 0.1621(3)
O34 O 0.8635(4) 0.3194(3) 0.2350(3)
H37 H 0.834605 0.161419 0.0850371
H38 H 0.88696 0.204896 0.050809
H39 H 0.81832 0.40037 0.134251
H40 H 0.749382 0.401264 0.0738437
H41 H 0.620713 0.157455 0.412908
H42 H 0.580309 0.196501 0.456248
O12 O 0.3525(4) 0.7750(2) 0.16442(18)
O14 O 0.3211(4) 0.8463(2) 0.2160(2)
N2 N 0.7272(5) 0.9270(3) 0.1881(3)
C7 C 0.6235(6) 0.8449(3) 0.1724(3)
H2 H 0.6721 0.8234 0.1619
C9 C 0.7328(5) 0.9876(3) 0.1796(3)
C14 C 0.4811(6) 0.9074(3) 0.2039(3)
H6 H 0.4335 0.9287 0.2156
C16 C 0.6382(5) 0.9020(3) 0.1881(3)
C23 C 0.3746(5) 0.8226(3) 0.1893(3)
C25 C 0.5666(6) 0.9328(3) 0.2032(3)
H11 H 0.5763 0.9719 0.2132
C31 C 0.9793(6) 0.8466(3) 0.2635(3)
C35 C 0.9015(6) 0.8415(4) 0.2858(3)
H15 H 0.9060 0.8210 0.3191
C36 C 0.4648(5) 0.8503(3) 0.1873(3)
C39 C 0.8114(6) 0.8982(3) 0.2132(3)
C47 C 0.8906(6) 0.9036(3) 0.1918(3)
H21 H 0.8874 0.9254 0.1594
C52 C 0.8169(6) 0.8657(4) 0.2605(3)
H25 H 0.7627 0.8602 0.2752
H26 H 0.6269 0.9913 0.1116
C54 C 0.5364(6) 0.8196(3) 0.1722(3)
H27 H 0.5263 0.7806 0.1616
C61 C 0.9734(6) 0.8782(4) 0.2163(3)
C15 C 0.9975(6) 0.3271(3) 0.0352(3)
H9 H 0.9466 0.3905 0.0757
C38 C 0.9047(6) 0.2993(3) 0.0119(3)
O11 O 0.9032(4) 0.2620(3) 0.9759(2)
Pr11 Pr 0.74318(3) 0.23654(2) 0.93035(2)
O11_2 O 0.0968(4) 0.7620(3) 0.5241(2)
O18 O 0.1672(4) 0.8130(3) 0.4703(2)
C15_2 C 0.0025(6) 0.8271(3) 0.4648(3)
H9_2 H 0.0534 0.8905 0.4243
C38_2 C 0.0953(6) 0.7993(3) 0.4881(3)
C1_2 C 0.7504(6) 0.1445(3) 0.3476(4)
C28_2 C 0.7444(6) 0.0828(3) 0.3630(3)
C51_2 C 0.7044(6) 0.0425(3) 0.3239(3)
H24_2 H 0.6784 0.0546 0.2875
C55_2 C 0.7775(7) 0.0062(4) 0.4290(3)
C58_2 C 0.7804(7) 0.0630(3) 0.4162(3)
H31_2 H 0.8073 0.0895 0.4441
O1_2 O 0.2049(4) 0.6993(2) 0.3068(2)
O2_2 O 0.3175(4) 0.6897(2) 0.3819(2)
O3_2 O 0.1302(5) 0.6980(2) 0.4134(2)
O4_2 O 0.1528(3) 0.7930(2) 0.13402(19)
O5_2 O 0.0689(4) 0.7373(2) 0.1755(2)
O6_2 O 0.3259(4) 0.8028(2) 0.32516(19)
O8_2 O 0.4048(4) 0.7432(2) 0.2829(2)
O10_2 O 0.2410(5) 0.8851(3) 0.3886(3)
O21_2 O 0.3978(5) 0.6968(3) 0.0787(3)
N1_2 N 0.7419(5) 0.9069(3) 0.4018(3)
N2_2 N 0.2728(5) 0.4270(3) 0.3119(3)
C2_2 C 0.4038(5) 0.7840(3) 0.3153(3)
C4_2 C 0.0733(5) 0.7736(3) 0.1393(3)
C5_2 C 0.4928(6) 0.8155(3) 0.3396(3)
C6_2 C 0.9212(6) 0.8054(3) 0.4769(3)
H1_2 H 0.9245 0.7726 0.4997
C7_2 C 0.3765(6) 0.3449(3) 0.3276(3)
H2_2 H 0.3279 0.3234 0.3381
C8_2 C 0.2621(6) 0.6062(3) 0.3341(3)
C9_2 C 0.2672(5) 0.4876(3) 0.3204(3)
C10_2 C 0.1997(6) 0.5202(3) 0.2859(3)
H3_2 H 0.1548 0.5022 0.2576
C13_2 C 0.5788(5) 0.7936(3) 0.3350(3)
H5_2 H 0.5812 0.7582 0.3167
C14_2 C 0.5189(6) 0.4074(3) 0.2961(3)
H6_2 H 0.5665 0.4287 0.2844
C16_2 C 0.3618(5) 0.4020(3) 0.3119(3)
C17_2 C 0.4911(6) 0.8676(3) 0.3666(3)
H7_2 H 0.4329 0.8834 0.3705
C19_2 C 0.6612(6) 0.8224(3) 0.3567(3)
H8_2 H 0.7199 0.8061 0.3542
C21_2 C 0.9977(6) 0.8752(3) 0.4326(3)
C22_2 C 0.9111(6) 0.9017(3) 0.4119(3)
H10_2 H 0.9085 0.9350 0.3899
C23_2 C 0.6254(5) 0.3226(3) 0.3107(3)
C24_2 C 0.8297(6) 0.8798(3) 0.4233(3)
C25_2 C 0.4334(6) 0.4328(3) 0.2968(3)
H11_2 H 0.4237 0.4719 0.2868
C26_2 C 0.2629(6) 0.6684(3) 0.3417(3)
C27_2 C 0.7403(5) 0.9671(3) 0.3892(3)
C29_2 C 0.7019(6) 0.9850(3) 0.3371(3)
H12_2 H 0.6736 0.9581 0.3100
C30_2 C 0.8351(6) 0.8309(3) 0.4563(3)
H13_2 H 0.7796 0.8153 0.4646
C31_2 C 0.0207(6) 0.3466(3) 0.2365(3)
H14_2 H 0.0508 0.8499 0.0588
C35_2 C 0.0985(6) 0.3415(4) 0.2142(3)
H15_2 H 0.0940 0.3210 0.1809
C36_2 C 0.5352(5) 0.3503(3) 0.3127(3)
C39_2 C 0.1886(6) 0.3982(3) 0.2868(3)
C40_2 C 0.5739(6) 0.8962(4) 0.3875(4)
H16_2 H 0.5721 0.9315 0.4061
C41_2 C 0.6587(6) 0.8745(3) 0.3820(3)
C46_2 C 0.3267(6) 0.5728(3) 0.3703(3)
H20_2 H 0.3695 0.5904 0.3998
C47_2 C 0.1094(6) 0.4036(3) 0.3082(3)
H21_2 H 0.1126 0.4254 0.3406
C52_2 C 0.1831(6) 0.3657(4) 0.2395(3)
H25_2 H 0.2373 0.3602 0.2248
C53_2 C 0.3290(6) 0.5138(3) 0.3634(3)
H26_2 H 0.3731 0.4913 0.3884
C54_2 C 0.4636(6) 0.3196(3) 0.3278(3)
H27_2 H 0.4737 0.2806 0.3384
H28_2 H 0.8013 0.9937 0.4656
C61_2 C 0.0266(6) 0.3782(4) 0.2837(3)
C63_2 C 0.1980(6) 0.5783(3) 0.2927(3)
H36_2 H 0.1518 0.6002 0.2686
O24_2 O 0.3272(4) 0.7266(2) 0.4903(2)
O25_2 O 0.0968(4) 0.7380(3) 0.0241(2)
O27_2 O 0.3952(4) 0.7909(2) 0.4472(2)
O30_2 O 0.1868(4) 0.8518(2) 0.0148(2)
O31_2 O 0.3136(4) 0.8654(2) 0.0802(2)
H37_2 H 0.165395 0.661419 0.414963
H38_2 H 0.11304 0.704896 0.449191
H39_2 H 0.18168 0.90037 0.365749
H40_2 H 0.250618 0.901264 0.426156
H41_2 H 0.379287 0.657455 0.0870915
H42_2 H 0.419691 0.696501 0.0437519
O23 O 0.3272(4) 0.7734(2) 0.9903(2)
O16_2 O 0.8132(4) 0.1482(2) 0.9852(2)
O17_2 O 0.6864(4) 0.1346(2) 0.9198(2)
C18_2 C 0.7465(6) 0.1167(3) 0.9594(3)
C32_2 C 0.7422(6) 0.0553(3) 0.9765(3)
C59_2 C 0.6771(6) 0.0187(4) 0.9461(3)
H32_2 H 0.6322 0.0329 0.9156
N3_2 N 0.7406(5) 0.8802(3) 0.0178(3)
C12_2 C 0.4968(6) 0.8379(3) 0.0174(3)
H4_2 H 0.4453 0.8513 0.0316
C20_2 C 0.6551(6) 0.8496(3) 0.0072(3)
C33_2 C 0.9294(6) 0.3193(4) 0.2087(4)
C34_2 C 0.9913(6) 0.8394(3) 0.0656(3)
C37_2 C 0.9865(5) 0.7981(3) 0.1047(3)
C42_2 C 0.8241(6) 0.8517(3) 0.0460(3)
C43_2 C 0.8185(6) 0.8082(3) 0.0830(3)
H17_2 H 0.7589 0.7964 0.0886
C44_2 C 0.8049(6) 0.9771(3) 0.0364(3)
H18_2 H 0.8488 0.9635 0.0676
C48_2 C 0.8992(6) 0.7820(4) 0.1116(3)
H22_2 H 0.8943 0.7522 0.1367
C50_2 C 0.7416(5) 0.9398(3) 0.0057(3)
C56_2 C 0.9118(6) 0.8655(3) 0.0365(3)
H29_2 H 0.9167 0.8933 0.0095
H34_2 H 0.9729 0.3823 0.2992
C62_2 C 0.5789(6) 0.8687(4) 0.0263(3)
H35_2 H 0.5832 0.9038 0.0460
O13_2 O 0.3952(4) 0.7091(2) 0.9472(2)
C3_2 C 0.4885(5) 0.7872(3) 0.9876(3)
C11_2 C 0.3988(5) 0.7545(3) 0.9750(3)
C45_2 C 0.6467(6) 0.7989(4) 0.9774(3)
H19_2 H 0.6983 0.7856 0.9633
C49_2 C 0.5645(6) 0.7675(4) 0.9681(3)
H23_2 H 0.5602 0.7325 0.9483
C57_2 C 0.6770(6) 0.9609(3) 0.9600(4)
H30_2 H 0.6329 0.9356 0.9384
Pr14_2 Pr 0.23127(3) 0.72130(2) 0.89318(2)
O18_2 O 0.1672(4) 0.6870(3) 0.9703(2)
C15_3 C 0.0025(6) 0.6729(3) 0.9648(3)
H9_3 H 0.0534 0.6095 0.9243
C38_3 C 0.0953(6) 0.7007(3) 0.9881(3)
O12_2 O 0.6475(4) 0.2250(2) 0.83558(18)
O14_2 O 0.6789(4) 0.1537(2) 0.7840(2)
N2_3 N 0.2728(5) 0.0730(3) 0.8119(3)
C7_3 C 0.3765(6) 0.1551(3) 0.8276(3)
H2_3 H 0.3279 0.1766 0.8381
C9_3 C 0.2672(5) 0.0124(3) 0.8204(3)
C14_3 C 0.5189(6) 0.0926(3) 0.7961(3)
H6_3 H 0.5665 0.0713 0.7844
C16_3 C 0.3618(5) 0.0980(3) 0.8119(3)
C23_3 C 0.6254(5) 0.1774(3) 0.8107(3)
C25_3 C 0.4334(6) 0.0672(3) 0.7968(3)
H11_3 H 0.4237 0.0281 0.7868
C31_3 C 0.0207(6) 0.1534(3) 0.7365(3)
C35_3 C 0.0985(6) 0.1585(4) 0.7142(3)
H15_3 H 0.0940 0.1790 0.6809
C36_3 C 0.5352(5) 0.1497(3) 0.8127(3)
C39_3 C 0.1886(6) 0.1018(3) 0.7868(3)
C47_3 C 0.1094(6) 0.0964(3) 0.8082(3)
H21_3 H 0.1126 0.0746 0.8406
C52_3 C 0.1831(6) 0.1343(4) 0.7395(3)
H25_3 H 0.2373 0.1398 0.7248
H26_3 H 0.3731 0.0087 0.8884
C54_3 C 0.4636(6) 0.1804(3) 0.8278(3)
H27_3 H 0.4737 0.2194 0.8384
C61_3 C 0.0266(6) 0.1218(4) 0.7837(3)
Pr4 Pr 0.76333(3) 0.24490(2) 0.77053(2)
Pr1_2 Pr 0.23667(3) 0.74490(2) 0.72947(2)
O1_3 O 0.2049(4) 0.8007(2) 0.8068(2)
O2_3 O 0.3175(4) 0.8103(2) 0.8819(2)
O3_3 O 0.1302(5) 0.8020(2) 0.9134(2)
O4_3 O 0.1528(3) 0.7070(2) 0.63402(19)
O5_3 O 0.0689(4) 0.7627(2) 0.6755(2)
O6_3 O 0.3259(4) 0.6972(2) 0.82516(19)
O7_2 O 0.7315(5) 0.3416(2) 0.7988(3)
O8_3 O 0.4048(4) 0.7568(2) 0.7829(2)
O10_3 O 0.2410(5) 0.6149(3) 0.8886(3)
O15_2 O 0.7773(5) 0.3218(3) 0.8871(3)
O21_3 O 0.3978(5) 0.8032(3) 0.5787(3)
N1_3 N 0.7419(5) 0.5931(3) 0.9018(3)
C1_3 C 0.7504(6) 0.3555(3) 0.8476(4)
C2_3 C 0.4038(5) 0.7160(3) 0.8153(3)
C4_3 C 0.0733(5) 0.7264(3) 0.6393(3)
C5_3 C 0.4928(6) 0.6845(3) 0.8396(3)
C6_3 C 0.9212(6) 0.6946(3) 0.9769(3)
H1_3 H 0.9245 0.7274 0.9997
C8_3 C 0.2621(6) 0.8938(3) 0.8341(3)
C10_3 C 0.1997(6) 0.9798(3) 0.7859(3)
H3_3 H 0.1548 0.9978 0.7576
C13_3 C 0.5788(5) 0.7064(3) 0.8350(3)
H5_3 H 0.5812 0.7418 0.8167
C17_3 C 0.4911(6) 0.6324(3) 0.8666(3)
H7_3 H 0.4329 0.6166 0.8705
C19_3 C 0.6612(6) 0.6776(3) 0.8567(3)
H8_3 H 0.7199 0.6939 0.8542
C21_3 C 0.9977(6) 0.6248(3) 0.9326(3)
C22_3 C 0.9111(6) 0.5983(3) 0.9119(3)
H10_3 H 0.9085 0.5650 0.8899
C24_3 C 0.8297(6) 0.6202(3) 0.9233(3)
C26_3 C 0.2629(6) 0.8316(3) 0.8417(3)
C27_3 C 0.7403(5) 0.5329(3) 0.8892(3)
C28_3 C 0.7444(6) 0.4172(3) 0.8630(3)
C29_3 C 0.7019(6) 0.5150(3) 0.8371(3)
H12_3 H 0.6736 0.5419 0.8100
C30_3 C 0.8351(6) 0.6691(3) 0.9563(3)
H13_3 H 0.7796 0.6847 0.9646
H14_3 H 0.0508 0.6501 0.5588
C40_3 C 0.5739(6) 0.6038(4) 0.8875(4)
H16_3 H 0.5721 0.5685 0.9061
C41_3 C 0.6587(6) 0.6255(3) 0.8820(3)
C46_3 C 0.3267(6) 0.9272(3) 0.8703(3)
H20_3 H 0.3695 0.9096 0.8998
C51_3 C 0.7044(6) 0.4575(3) 0.8239(3)
H24_3 H 0.6784 0.4454 0.7875
C53_3 C 0.3290(6) 0.9862(3) 0.8634(3)
C55_3 C 0.7775(7) 0.4938(4) 0.9290(3)
H28_3 H 0.8013 0.5063 0.9656
C58_3 C 0.7804(7) 0.4370(3) 0.9162(3)
H31_3 H 0.8073 0.4105 0.9441
C63_3 C 0.1980(6) 0.9217(3) 0.7927(3)
H36_3 H 0.1518 0.8998 0.7686
O22_2 O 0.2685(5) 0.8416(2) 0.7012(3)
O26_2 O 0.3525(4) 0.7250(2) 0.66442(18)
O28_2 O 0.3211(4) 0.6537(2) 0.7160(2)
O29_2 O 0.2227(5) 0.8218(3) 0.6129(3)
O33_2 O 0.0777(5) 0.7014(3) 0.8379(3)
O34_2 O 0.1365(4) 0.6806(3) 0.7650(3)
H37_3 H 0.165395 0.838581 0.914963
H38_3 H 0.11304 0.795104 0.949191
H39_3 H 0.18168 0.59963 0.865749
H40_3 H 0.250618 0.598736 0.926156
H41_3 H 0.379287 0.842545 0.587092
H42_3 H 0.419691 0.803499 0.543752
O19_2 O 0.9223(5) 0.2014(3) 0.6621(3)
O20_2 O 0.8635(4) 0.1806(3) 0.7350(3)
C33_3 C 0.9294(6) 0.1807(4) 0.7087(4)
H34_3 H 0.9729 0.1177 0.7992
N3_3 N 0.7406(5) 0.6198(3) 0.5178(3)
C3_3 C 0.4885(5) 0.7128(3) 0.4876(3)
C11_3 C 0.3988(5) 0.7455(3) 0.4750(3)
C12_3 C 0.4968(6) 0.6621(3) 0.5174(3)
H4_3 H 0.4453 0.6487 0.5316
C18_3 C 0.7465(6) 0.3833(3) 0.4594(3)
C20_3 C 0.6551(6) 0.6504(3) 0.5072(3)
C32_3 C 0.7422(6) 0.4447(3) 0.4765(3)
C34_3 C 0.9913(6) 0.6606(3) 0.5656(3)
C37_3 C 0.9865(5) 0.7019(3) 0.6047(3)
C42_3 C 0.8241(6) 0.6483(3) 0.5460(3)
C43_3 C 0.8185(6) 0.6918(3) 0.5830(3)
H17_3 H 0.7589 0.7036 0.5886
C44_3 C 0.8049(6) 0.5229(3) 0.5364(3)
H18_3 H 0.8488 0.5365 0.5676
C45_3 C 0.6467(6) 0.7011(4) 0.4774(3)
H19_3 H 0.6983 0.7144 0.4633
C48_3 C 0.8992(6) 0.7180(4) 0.6116(3)
H22_3 H 0.8943 0.7478 0.6367
C49_3 C 0.5645(6) 0.7325(4) 0.4681(3)
H23_3 H 0.5602 0.7675 0.4483
C50_3 C 0.7416(5) 0.5602(3) 0.5057(3)
C56_3 C 0.9118(6) 0.6345(3) 0.5365(3)
H29_3 H 0.9167 0.6067 0.5095
C57_3 C 0.6770(6) 0.5391(3) 0.4600(4)
H30_3 H 0.6329 0.5644 0.4384
C59_3 C 0.6771(6) 0.4813(4) 0.4461(3)
H32_3 H 0.6322 0.4671 0.4156
C60_2 C 0.8050(6) 0.4660(3) 0.5220(3)
H33_2 H 0.8491 0.4408 0.5438
C62_3 C 0.5789(6) 0.6313(4) 0.5263(3)
H35_3 H 0.5832 0.5962 0.5460
C3_4 C 0.5115(5) 0.2128(3) 0.0124(3)
C11_4 C 0.6012(5) 0.2455(3) 0.0250(3)
C45_4 C 0.3533(6) 0.2011(4) 0.0226(3)
H19_4 H 0.3017 0.2144 0.0367
C49_4 C 0.4355(6) 0.2325(4) 0.0319(3)
H23_4 H 0.4398 0.2675 0.0517
C57_4 C 0.3230(6) 0.0391(3) 0.0400(4)
H30_4 H 0.3671 0.0644 0.0616
N3_4 N 0.2594(5) 0.1198(3) 0.9822(3)
C12_4 C 0.5032(6) 0.1621(3) 0.9826(3)
H4_4 H 0.5547 0.1487 0.9684
C20_4 C 0.3449(6) 0.1504(3) 0.9928(3)
C33_4 C 0.0706(6) 0.6807(4) 0.7913(4)
C34_4 C 0.0087(6) 0.1606(3) 0.9344(3)
C37_4 C 0.0135(5) 0.2019(3) 0.8953(3)
C42_4 C 0.1759(6) 0.1483(3) 0.9540(3)
C43_4 C 0.1815(6) 0.1918(3) 0.9170(3)
H17_4 H 0.2411 0.2036 0.9114
C44_4 C 0.1951(6) 0.0229(3) 0.9636(3)
H18_4 H 0.1512 0.0365 0.9324
C48_4 C 0.1008(6) 0.2180(4) 0.8884(3)
H22_4 H 0.1057 0.2478 0.8633
C50_4 C 0.2584(5) 0.0602(3) 0.9943(3)
C56_4 C 0.0882(6) 0.1345(3) 0.9635(3)
H29_4 H 0.0833 0.1067 0.9905
H34_4 H 0.0271 0.6177 0.7008
C62_4 C 0.4211(6) 0.1313(4) 0.9737(3)
H35_4 H 0.4168 0.0962 0.9540
C18_4 C 0.2535(6) 0.8833(3) 0.0406(3)
C32_4 C 0.2578(6) 0.9447(3) 0.0235(3)
C59_4 C 0.3229(6) 0.9813(4) 0.0539(3)
H32_4 H 0.3678 0.9671 0.0844
O1_4 O 0.7951(4) 0.3007(2) 0.6932(2)
O2_4 O 0.6825(4) 0.3103(2) 0.6181(2)
O3_4 O 0.8698(5) 0.3020(2) 0.5866(2)
O4_4 O 0.8472(3) 0.2070(2) 0.86598(19)
O5_4 O 0.9311(4) 0.2627(2) 0.8245(2)
O6_4 O 0.6741(4) 0.1972(2) 0.67484(19)
O8_4 O 0.5952(4) 0.2568(2) 0.7171(2)
O10_4 O 0.7590(5) 0.1149(3) 0.6114(3)
O21_4 O 0.6022(5) 0.3032(3) 0.9213(3)
N1_4 N 0.2581(5) 0.0931(3) 0.5982(3)
N2_4 N 0.7272(5) 0.5730(3) 0.6881(3)
C2_4 C 0.5962(5) 0.2160(3) 0.6847(3)
C4_4 C 0.9267(5) 0.2264(3) 0.8607(3)
C5_4 C 0.5072(6) 0.1845(3) 0.6604(3)
C6_4 C 0.0788(6) 0.1946(3) 0.5231(3)
H1_4 H 0.0755 0.2274 0.5003
C7_4 C 0.6235(6) 0.6551(3) 0.6724(3)
H2_4 H 0.6721 0.6766 0.6619
C8_4 C 0.7379(6) 0.3938(3) 0.6659(3)
C9_4 C 0.7328(5) 0.5124(3) 0.6796(3)
C10_4 C 0.8003(6) 0.4798(3) 0.7141(3)
H3_4 H 0.8452 0.4978 0.7424
C13_4 C 0.4212(5) 0.2064(3) 0.6650(3)
H5_4 H 0.4188 0.2418 0.6833
C14_4 C 0.4811(6) 0.5926(3) 0.7039(3)
H6_4 H 0.4335 0.5713 0.7156
C16_4 C 0.6382(5) 0.5980(3) 0.6881(3)
C17_4 C 0.5089(6) 0.1324(3) 0.6334(3)
H7_4 H 0.5671 0.1166 0.6295
C19_4 C 0.3388(6) 0.1776(3) 0.6433(3)
H8_4 H 0.2801 0.1939 0.6458
C21_4 C 0.0023(6) 0.1248(3) 0.5674(3)
C22_4 C 0.0889(6) 0.0983(3) 0.5881(3)
H10_4 H 0.0915 0.0650 0.6101
C23_4 C 0.3746(5) 0.6774(3) 0.6893(3)
C24_4 C 0.1703(6) 0.1202(3) 0.5767(3)
C25_4 C 0.5666(6) 0.5672(3) 0.7032(3)
H11_4 H 0.5763 0.5281 0.7132
C26_4 C 0.7371(6) 0.3316(3) 0.6583(3)
C27_4 C 0.2597(5) 0.0329(3) 0.6108(3)
C29_4 C 0.2981(6) 0.0150(3) 0.6629(3)
H12_4 H 0.3264 0.0419 0.6900
C30_4 C 0.1649(6) 0.1691(3) 0.5437(3)
H13_4 H 0.2204 0.1847 0.5354
C31_4 C 0.9793(6) 0.6534(3) 0.7635(3)
H14_4 H 0.9492 0.1501 0.9412
C35_4 C 0.9015(6) 0.6585(4) 0.7858(3)
H15_4 H 0.9060 0.6790 0.8191
C36_4 C 0.4648(5) 0.6497(3) 0.6873(3)
C39_4 C 0.8114(6) 0.6018(3) 0.7132(3)
C40_4 C 0.4261(6) 0.1038(4) 0.6125(4)
H16_4 H 0.4279 0.0685 0.5939
C41_4 C 0.3413(6) 0.1255(3) 0.6180(3)
C46_4 C 0.6733(6) 0.4272(3) 0.6297(3)
H20_4 H 0.6305 0.4096 0.6002
C47_4 C 0.8906(6) 0.5964(3) 0.6918(3)
H21_4 H 0.8874 0.5746 0.6594
C52_4 C 0.8169(6) 0.6343(4) 0.7605(3)
H25_4 H 0.7627 0.6398 0.7752
C53_4 C 0.6710(6) 0.4862(3) 0.6366(3)
H26_4 H 0.6269 0.5087 0.6116
C54_4 C 0.5364(6) 0.6804(3) 0.6722(3)
H27_4 H 0.5263 0.7194 0.6616
H28_4 H 0.1987 0.0063 0.5344
C61_4 C 0.9734(6) 0.6218(4) 0.7163(3)
C63_4 C 0.8020(6) 0.4217(3) 0.7073(3)
H36_4 H 0.8482 0.3998 0.7314
O32_2 O 0.8328(4) 0.1870(3) 0.5297(2)
H37_4 H 0.834605 0.338581 0.585037
H38_4 H 0.88696 0.295104 0.550809
H39_4 H 0.81832 0.0996303 0.634251
H40_4 H 0.749382 0.0987363 0.573844
H41_4 H 0.620713 0.342545 0.912908
H42_4 H 0.580309 0.303499 0.956248
C1_4 C 0.2496(6) 0.8555(3) 0.6524(4)
C28_4 C 0.2556(6) 0.9172(3) 0.6370(3)
C51_4 C 0.2956(6) 0.9575(3) 0.6761(3)
H24_4 H 0.3216 0.9454 0.7125
C55_4 C 0.2225(7) 0.9938(4) 0.5710(3)
C58_4 C 0.2196(7) 0.9370(3) 0.5838(3)
H31_4 H 0.1927 0.9105 0.5559
C15_4 C 0.9975(6) 0.1729(3) 0.5352(3)
H9_4 H 0.9466 0.1095 0.5757
C38_4 C 0.9047(6) 0.2007(3) 0.5119(3)
C60_3 C 0.8050(6) 0.0340(3) 0.0220(3)
H33_3 H 0.8491 0.0592 0.0438
C60_4 C 0.1950(6) 0.9660(3) 0.9780(3)
H33_4 H 0.1509 0.9408 0.9562
loop_
_geom_bond_atom_site_label_1
_geom_bond_atom_site_label_2
_geom_bond_site_symmetry_1
_geom_bond_site_symmetry_2
O9 C11 1_555 1_555
O13 C11 1_555 1_555
O16 C18 1_555 1_555
O17 C18 1_555 1_555
N3 C20 1_555 1_555
C3 C11 1_555 1_555
C12 C3 1_555 1_555
H4 C12 1_555 1_555
C18 C32 1_555 1_555
C20 C45 1_555 1_555
C32 C59 1_555 1_555
C42 N3 1_555 1_555
C43 C42 1_555 1_555
H17 C43 1_555 1_555
C44 H18 1_555 1_555
C45 H19 1_555 1_555
C48 C37 1_555 1_555
H22 C48 1_555 1_555
C49 C3 1_555 1_555
H23 C49 1_555 1_555
C50 N3 1_555 1_555
C56 C34 1_555 1_555
H29 C56 1_555 1_555
C57 C50 1_555 1_555
H30 C57 1_555 1_555
C59 C57 1_555 1_555
H32 C59 1_555 1_555
C60 C32 1_555 1_555
H33 C60 1_555 1_555
C62 C12 1_555 1_555
H35 C62 1_555 1_555
Pr7 O9 1_555 1_555
Pr10 O16 1_555 1_555
Pr14 O9 1_555 1_555
O13 Pr14 1_555 1_555
O17 Pr10 1_555 1_555
C20 C62 1_555 1_555
C34 C37 1_555 1_555
C42 C56 1_555 1_555
C43 C48 1_555 1_555
C44 C50 1_555 1_555
C44 C60 1_555 1_555
C45 C49 1_555 1_555
O19 C33 1_555 1_555
O20 C33 1_555 1_555
Pr6 O20 1_555 1_555
Pr13 O19 1_555 1_555
Pr1 O1 1_555 1_555
Pr7 O4 1_555 1_555
Pr3 O1 1_555 1_555
O1 C26 1_555 1_555
O2 Pr3 1_555 1_555
O3 Pr3 1_555 1_555
O4 Pr1 1_555 1_555
O5 Pr1 1_555 1_555
O6 Pr1 1_555 1_555
O7 C1 1_555 1_555
O8 Pr1 1_555 1_555
O10 Pr3 1_555 1_555
O15 C1 1_555 1_555
O21 Pr7 1_555 1_555
N1 C24 1_555 1_555
C1 C28 1_555 1_555
C2 O6 1_555 1_555
C4 O4 1_555 1_555
C5 C2 1_555 1_555
C6 H1 1_555 1_555
C8 C26 1_555 1_555
C10 H3 1_555 1_555
C13 C5 1_555 1_555
H5 C13 1_555 1_555
C17 C5 1_555 1_555
H7 C17 1_555 1_555
C19 C13 1_555 1_555
H8 C19 1_555 1_555
C22 C21 1_555 1_555
H10 C22 1_555 1_555
C24 C22 1_555 1_555
C26 O2 1_555 1_555
C27 N1 1_555 1_555
C28 C51 1_555 1_555
C29 C27 1_555 1_555
H12 C29 1_555 1_555
C30 C6 1_555 1_555
H13 C30 1_555 1_555
C40 C17 1_555 1_555
H16 C40 1_555 1_555
C41 N1 1_555 1_555
C46 C8 1_555 1_555
H20 C46 1_555 1_555
C51 C29 1_555 1_555
H24 C51 1_555 1_555
C55 C27 1_555 1_555
H28 C55 1_555 1_555
C58 C28 1_555 1_555
H31 C58 1_555 1_555
C63 C8 1_555 1_555
H36 C63 1_555 1_555
Pr6 O7 1_555 1_555
Pr9 O15 1_555 1_555
O22 Pr1 1_555 1_555
O24 Pr3 1_555 1_555
O25 Pr7 1_555 1_555
O26 Pr1 1_555 1_555
O27 Pr3 1_555 1_555
O28 Pr1 1_555 1_555
O29 Pr7 1_555 1_555
O30 Pr7 1_555 1_555
O31 Pr7 1_555 1_555
O32 Pr3 1_555 1_555
O33 Pr3 1_555 1_555
O34 Pr1 1_555 1_555
Pr7 O26 1_555 1_555
Pr3 O6 1_555 1_555
O5 C4 1_555 1_555
O8 C2 1_555 1_555
C10 C63 1_555 1_555
C19 C41 1_555 1_555
C24 C30 1_555 1_555
C40 C41 1_555 1_555
C46 C53 1_555 1_555
C55 C58 1_555 1_555
O3 H37 1_555 1_555
O3 H38 1_555 1_555
O10 H39 1_555 1_555
O10 H40 1_555 1_555
O21 H41 1_555 1_555
O21 H42 1_555 1_555
O12 C23 1_555 1_555
O14 C23 1_555 1_555
N2 C9 1_555 1_555
C7 H2 1_555 1_555
C14 H6 1_555 1_555
C16 N2 1_555 1_555
C23 C36 1_555 1_555
C25 C14 1_555 1_555
H11 C25 1_555 1_555
C35 C31 1_555 1_555
H15 C35 1_555 1_555
C36 C14 1_555 1_555
C39 N2 1_555 1_555
C47 C39 1_555 1_555
H21 C47 1_555 1_555
C52 C35 1_555 1_555
H25 C52 1_555 1_555
C54 C7 1_555 1_555
H27 C54 1_555 1_555
C61 C31 1_555 1_555
Pr6 O12 1_555 1_555
Pr9 O12 1_555 1_555
O14 Pr6 1_555 1_555
C7 C16 1_555 1_555
C16 C25 1_555 1_555
C36 C54 1_555 1_555
C39 C52 1_555 1_555
C47 C61 1_555 1_555
O32 C38 1_555 1_555
C38 C15 1_555 1_555
Pr11 O11 1_555 1_555
O11_2 C38_2 1_555 1_555
O18 C38_2 1_555 1_555
C38_2 C15_2 1_555 1_555
Pr10 O11_2 1_555 1_555
Pr13 O18 1_555 1_555
O22 C1_2 1_555 1_555
O29 C1_2 1_555 1_555
C1_2 C28_2 1_555 1_555
C28_2 C51_2 1_555 1_555
H24_2 C51_2 1_555 1_555
C58_2 C28_2 1_555 1_555
H31_2 C58_2 1_555 1_555
C55_2 C58_2 1_555 1_555
Pr6 O1_2 1_555 1_555
Pr9 O4_2 1_555 1_555
Pr13 O1_2 1_555 1_555
O1_2 C26_2 1_555 1_555
O2_2 Pr13 1_555 1_555
O3_2 Pr13 1_555 1_555
O4_2 Pr6 1_555 1_555
O5_2 Pr6 1_555 1_555
O6_2 Pr6 1_555 1_555
O8_2 Pr6 1_555 1_555
O10_2 Pr13 1_555 1_555
O26 C23_2 1_555 1_555
O28 C23_2 1_555 1_555
O21_2 Pr9 1_555 1_555
N1_2 C24_2 1_555 1_555
N2_2 C9_2 1_555 1_555
C2_2 O6_2 1_555 1_555
C4_2 O4_2 1_555 1_555
C5_2 C2_2 1_555 1_555
C6_2 H1_2 1_555 1_555
C7_2 H2_2 1_555 1_555
C8_2 C26_2 1_555 1_555
C9_2 C10_2 1_555 1_555
C10_2 H3_2 1_555 1_555
C13_2 C5_2 1_555 1_555
H5_2 C13_2 1_555 1_555
C14_2 H6_2 1_555 1_555
C16_2 N2_2 1_555 1_555
C17_2 C5_2 1_555 1_555
H7_2 C17_2 1_555 1_555
C19_2 C13_2 1_555 1_555
H8_2 C19_2 1_555 1_555
C22_2 C21_2 1_555 1_555
H10_2 C22_2 1_555 1_555
C23_2 C36_2 1_555 1_555
C24_2 C22_2 1_555 1_555
C25_2 C14_2 1_555 1_555
H11_2 C25_2 1_555 1_555
C26_2 O2_2 1_555 1_555
C27_2 N1_2 1_555 1_555
C29_2 C27_2 1_555 1_555
H12_2 C29_2 1_555 1_555
C30_2 C6_2 1_555 1_555
H13_2 C30_2 1_555 1_555
C35_2 C31_2 1_555 1_555
H15_2 C35_2 1_555 1_555
C36_2 C14_2 1_555 1_555
C39_2 N2_2 1_555 1_555
C40_2 C17_2 1_555 1_555
H16_2 C40_2 1_555 1_555
C41_2 N1_2 1_555 1_555
C46_2 C8_2 1_555 1_555
H20_2 C46_2 1_555 1_555
C47_2 C39_2 1_555 1_555
H21_2 C47_2 1_555 1_555
C52_2 C35_2 1_555 1_555
H25_2 C52_2 1_555 1_555
C53_2 C9_2 1_555 1_555
H26_2 C53_2 1_555 1_555
C54_2 C7_2 1_555 1_555
H27_2 C54_2 1_555 1_555
C61_2 C31_2 1_555 1_555
C63_2 C8_2 1_555 1_555
H36_2 C63_2 1_555 1_555
O24_2 Pr13 1_555 1_555
O25_2 Pr9 1_555 1_555
O27_2 Pr13 1_555 1_555
O30_2 Pr9 1_555 1_555
O31_2 Pr9 1_555 1_555
Pr13 O6_2 1_555 1_555
O5_2 C4_2 1_555 1_555
O8_2 C2_2 1_555 1_555
C7_2 C16_2 1_555 1_555
C10_2 C63_2 1_555 1_555
C16_2 C25_2 1_555 1_555
C19_2 C41_2 1_555 1_555
C24_2 C30_2 1_555 1_555
C36_2 C54_2 1_555 1_555
C39_2 C52_2 1_555 1_555
C40_2 C41_2 1_555 1_555
C46_2 C53_2 1_555 1_555
C47_2 C61_2 1_555 1_555
O3_2 H37_2 1_555 1_555
O3_2 H38_2 1_555 1_555
O10_2 H39_2 1_555 1_555
O10_2 H40_2 1_555 1_555
O21_2 H41_2 1_555 1_555
O21_2 H42_2 1_555 1_555
O16_2 C18_2 1_555 1_555
O17_2 C18_2 1_555 1_555
C18_2 C32_2 1_555 1_555
C32_2 C59_2 1_555 1_555
H32_2 C59_2 1_555 1_555
Pr11 O16_2 1_555 1_555
O17_2 Pr11 1_555 1_555
O33 C33_2 1_555 1_555
O34 C33_2 1_555 1_555
N3_2 C20_2 1_555 1_555
H4_2 C12_2 1_555 1_555
C42_2 N3_2 1_555 1_555
C43_2 C42_2 1_555 1_555
H17_2 C43_2 1_555 1_555
C44_2 H18_2 1_555 1_555
C48_2 C37_2 1_555 1_555
H22_2 C48_2 1_555 1_555
C50_2 N3_2 1_555 1_555
C56_2 C34_2 1_555 1_555
H29_2 C56_2 1_555 1_555
C62_2 C12_2 1_555 1_555
H35_2 C62_2 1_555 1_555
C20_2 C62_2 1_555 1_555
C34_2 C37_2 1_555 1_555
C42_2 C56_2 1_555 1_555
C43_2 C48_2 1_555 1_555
C44_2 C50_2 1_555 1_555
O23 C11_2 1_555 1_555
O13_2 C11_2 1_555 1_555
C3_2 C11_2 1_555 1_555
C45_2 H19_2 1_555 1_555
C49_2 C3_2 1_555 1_555
H23_2 C49_2 1_555 1_555
H30_2 C57_2 1_555 1_555
Pr14_2 O23 1_555 1_555
O13_2 Pr14_2 1_555 1_555
C45_2 C49_2 1_555 1_555
O18_2 C38_3 1_555 1_555
C38_3 C15_3 1_555 1_555
Pr14_2 O18_2 1_555 1_555
O12_2 C23_3 1_555 1_555
O14_2 C23_3 1_555 1_555
N2_3 C9_3 1_555 1_555
C7_3 H2_3 1_555 1_555
C14_3 H6_3 1_555 1_555
C16_3 N2_3 1_555 1_555
C23_3 C36_3 1_555 1_555
C25_3 C14_3 1_555 1_555
H11_3 C25_3 1_555 1_555
C35_3 C31_3 1_555 1_555
H15_3 C35_3 1_555 1_555
C36_3 C14_3 1_555 1_555
C39_3 N2_3 1_555 1_555
C47_3 C39_3 1_555 1_555
H21_3 C47_3 1_555 1_555
C52_3 C35_3 1_555 1_555
H25_3 C52_3 1_555 1_555
C54_3 C7_3 1_555 1_555
H27_3 C54_3 1_555 1_555
C61_3 C31_3 1_555 1_555
Pr4 O12_2 1_555 1_555
Pr11 O12_2 1_555 1_555
O14_2 Pr4 1_555 1_555
C7_3 C16_3 1_555 1_555
C16_3 C25_3 1_555 1_555
C36_3 C54_3 1_555 1_555
C39_3 C52_3 1_555 1_555
C47_3 C61_3 1_555 1_555
Pr1_2 O1_3 1_555 1_555
Pr10 O4_3 1_555 1_555
Pr14_2 O1_3 1_555 1_555
O1_3 C26_3 1_555 1_555
O2_3 Pr14_2 1_555 1_555
O3_3 Pr14_2 1_555 1_555
O4_3 Pr1_2 1_555 1_555
O5_3 Pr1_2 1_555 1_555
O6_3 Pr1_2 1_555 1_555
O7_2 C1_3 1_555 1_555
O8_3 Pr1_2 1_555 1_555
O10_3 Pr14_2 1_555 1_555
O15_2 C1_3 1_555 1_555
O21_3 Pr10 1_555 1_555
N1_3 C24_3 1_555 1_555
C1_3 C28_3 1_555 1_555
C2_3 O6_3 1_555 1_555
C4_3 O4_3 1_555 1_555
C5_3 C2_3 1_555 1_555
C6_3 H1_3 1_555 1_555
C8_3 C26_3 1_555 1_555
C10_3 H3_3 1_555 1_555
C13_3 C5_3 1_555 1_555
H5_3 C13_3 1_555 1_555
C17_3 C5_3 1_555 1_555
H7_3 C17_3 1_555 1_555
C19_3 C13_3 1_555 1_555
H8_3 C19_3 1_555 1_555
C22_3 C21_3 1_555 1_555
H10_3 C22_3 1_555 1_555
C24_3 C22_3 1_555 1_555
C26_3 O2_3 1_555 1_555
C27_3 N1_3 1_555 1_555
C28_3 C51_3 1_555 1_555
C29_3 C27_3 1_555 1_555
H12_3 C29_3 1_555 1_555
C30_3 C6_3 1_555 1_555
H13_3 C30_3 1_555 1_555
C40_3 C17_3 1_555 1_555
H16_3 C40_3 1_555 1_555
C41_3 N1_3 1_555 1_555
C46_3 C8_3 1_555 1_555
H20_3 C46_3 1_555 1_555
C51_3 C29_3 1_555 1_555
H24_3 C51_3 1_555 1_555
C55_3 C27_3 1_555 1_555
H28_3 C55_3 1_555 1_555
C58_3 C28_3 1_555 1_555
H31_3 C58_3 1_555 1_555
C63_3 C8_3 1_555 1_555
H36_3 C63_3 1_555 1_555
Pr4 O7_2 1_555 1_555
Pr11 O15_2 1_555 1_555
O22_2 Pr1_2 1_555 1_555
O24_2 Pr10 1_555 1_555
O26_2 Pr1_2 1_555 1_555
O28_2 Pr1_2 1_555 1_555
O29_2 Pr10 1_555 1_555
O33_2 Pr14_2 1_555 1_555
O34_2 Pr1_2 1_555 1_555
Pr10 O26_2 1_555 1_555
Pr14_2 O6_3 1_555 1_555
O5_3 C4_3 1_555 1_555
O8_3 C2_3 1_555 1_555
C10_3 C63_3 1_555 1_555
C19_3 C41_3 1_555 1_555
C24_3 C30_3 1_555 1_555
C40_3 C41_3 1_555 1_555
C46_3 C53_3 1_555 1_555
C55_3 C58_3 1_555 1_555
O3_3 H37_3 1_555 1_555
O3_3 H38_3 1_555 1_555
O10_3 H39_3 1_555 1_555
O10_3 H40_3 1_555 1_555
O21_3 H41_3 1_555 1_555
O21_3 H42_3 1_555 1_555
O19_2 C33_3 1_555 1_555
O20_2 C33_3 1_555 1_555
Pr4 O20_2 1_555 1_555
Pr14 O19_2 1_555 1_555
O24_2 C11_3 1_555 1_555
O27_2 C11_3 1_555 1_555
O30 C18_3 1_555 1_555
O31 C18_3 1_555 1_555
N3_3 C20_3 1_555 1_555
C3_3 C11_3 1_555 1_555
C12_3 C3_3 1_555 1_555
H4_3 C12_3 1_555 1_555
C18_3 C32_3 1_555 1_555
C20_3 C45_3 1_555 1_555
C32_3 C59_3 1_555 1_555
C42_3 N3_3 1_555 1_555
C43_3 C42_3 1_555 1_555
H17_3 C43_3 1_555 1_555
C44_3 H18_3 1_555 1_555
C45_3 H19_3 1_555 1_555
C48_3 C37_3 1_555 1_555
H22_3 C48_3 1_555 1_555
C49_3 C3_3 1_555 1_555
H23_3 C49_3 1_555 1_555
C50_3 N3_3 1_555 1_555
C56_3 C34_3 1_555 1_555
H29_3 C56_3 1_555 1_555
C57_3 C50_3 1_555 1_555
H30_3 C57_3 1_555 1_555
C59_3 C57_3 1_555 1_555
H32_3 C59_3 1_555 1_555
C60_2 C32_3 1_555 1_555
H33_2 C60_2 1_555 1_555
C62_3 C12_3 1_555 1_555
H35_3 C62_3 1_555 1_555
C20_3 C62_3 1_555 1_555
C34_3 C37_3 1_555 1_555
C42_3 C56_3 1_555 1_555
C43_3 C48_3 1_555 1_555
C44_3 C50_3 1_555 1_555
C44_3 C60_2 1_555 1_555
C45_3 C49_3 1_555 1_555
O24 C11_4 1_555 1_555
O27 C11_4 1_555 1_555
C3_4 C11_4 1_555 1_555
C45_4 H19_4 1_555 1_555
C49_4 C3_4 1_555 1_555
H23_4 C49_4 1_555 1_555
H30_4 C57_4 1_555 1_555
C45_4 C49_4 1_555 1_555
O33_2 C33_4 1_555 1_555
O34_2 C33_4 1_555 1_555
N3_4 C20_4 1_555 1_555
H4_4 C12_4 1_555 1_555
C42_4 N3_4 1_555 1_555
C43_4 C42_4 1_555 1_555
H17_4 C43_4 1_555 1_555
C44_4 H18_4 1_555 1_555
C48_4 C37_4 1_555 1_555
H22_4 C48_4 1_555 1_555
C50_4 N3_4 1_555 1_555
C56_4 C34_4 1_555 1_555
H29_4 C56_4 1_555 1_555
C62_4 C12_4 1_555 1_555
H35_4 C62_4 1_555 1_555
C20_4 C62_4 1_555 1_555
C34_4 C37_4 1_555 1_555
C42_4 C56_4 1_555 1_555
C43_4 C48_4 1_555 1_555
C44_4 C50_4 1_555 1_555
O30_2 C18_4 1_555 1_555
O31_2 C18_4 1_555 1_555
C18_4 C32_4 1_555 1_555
C32_4 C59_4 1_555 1_555
H32_4 C59_4 1_555 1_555
Pr4 O1_4 1_555 1_555
Pr11 O4_4 1_555 1_555
Pr14 O1_4 1_555 1_555
O1_4 C26_4 1_555 1_555
O2_4 Pr14 1_555 1_555
O3_4 Pr14 1_555 1_555
O4_4 Pr4 1_555 1_555
O5_4 Pr4 1_555 1_555
O6_4 Pr4 1_555 1_555
O8_4 Pr4 1_555 1_555
O10_4 Pr14 1_555 1_555
O26_2 C23_4 1_555 1_555
O28_2 C23_4 1_555 1_555
O21_4 Pr11 1_555 1_555
N1_4 C24_4 1_555 1_555
N2_4 C9_4 1_555 1_555
C2_4 O6_4 1_555 1_555
C4_4 O4_4 1_555 1_555
C5_4 C2_4 1_555 1_555
C6_4 H1_4 1_555 1_555
C7_4 H2_4 1_555 1_555
C8_4 C26_4 1_555 1_555
C9_4 C10_4 1_555 1_555
C10_4 H3_4 1_555 1_555
C13_4 C5_4 1_555 1_555
H5_4 C13_4 1_555 1_555
C14_4 H6_4 1_555 1_555
C16_4 N2_4 1_555 1_555
C17_4 C5_4 1_555 1_555
H7_4 C17_4 1_555 1_555
C19_4 C13_4 1_555 1_555
H8_4 C19_4 1_555 1_555
C22_4 C21_4 1_555 1_555
H10_4 C22_4 1_555 1_555
C23_4 C36_4 1_555 1_555
C24_4 C22_4 1_555 1_555
C25_4 C14_4 1_555 1_555
H11_4 C25_4 1_555 1_555
C26_4 O2_4 1_555 1_555
C27_4 N1_4 1_555 1_555
C29_4 C27_4 1_555 1_555
H12_4 C29_4 1_555 1_555
C30_4 C6_4 1_555 1_555
H13_4 C30_4 1_555 1_555
C35_4 C31_4 1_555 1_555
H15_4 C35_4 1_555 1_555
C36_4 C14_4 1_555 1_555
C39_4 N2_4 1_555 1_555
C40_4 C17_4 1_555 1_555
H16_4 C40_4 1_555 1_555
C41_4 N1_4 1_555 1_555
C46_4 C8_4 1_555 1_555
H20_4 C46_4 1_555 1_555
C47_4 C39_4 1_555 1_555
H21_4 C47_4 1_555 1_555
C52_4 C35_4 1_555 1_555
H25_4 C52_4 1_555 1_555
C53_4 C9_4 1_555 1_555
H26_4 C53_4 1_555 1_555
C54_4 C7_4 1_555 1_555
H27_4 C54_4 1_555 1_555
C61_4 C31_4 1_555 1_555
C63_4 C8_4 1_555 1_555
H36_4 C63_4 1_555 1_555
O32_2 Pr14 1_555 1_555
Pr14 O6_4 1_555 1_555
O5_4 C4_4 1_555 1_555
O8_4 C2_4 1_555 1_555
C7_4 C16_4 1_555 1_555
C10_4 C63_4 1_555 1_555
C16_4 C25_4 1_555 1_555
C19_4 C41_4 1_555 1_555
C24_4 C30_4 1_555 1_555
C36_4 C54_4 1_555 1_555
C39_4 C52_4 1_555 1_555
C40_4 C41_4 1_555 1_555
C46_4 C53_4 1_555 1_555
C47_4 C61_4 1_555 1_555
O3_4 H37_4 1_555 1_555
O3_4 H38_4 1_555 1_555
O10_4 H39_4 1_555 1_555
O10_4 H40_4 1_555 1_555
O21_4 H41_4 1_555 1_555
O21_4 H42_4 1_555 1_555
O22_2 C1_4 1_555 1_555
O29_2 C1_4 1_555 1_555
C1_4 C28_4 1_555 1_555
C28_4 C51_4 1_555 1_555
H24_4 C51_4 1_555 1_555
C58_4 C28_4 1_555 1_555
H31_4 C58_4 1_555 1_555
C55_4 C58_4 1_555 1_555
O25 C38_4 1_555 1_555
O32_2 C38_4 1_555 1_555
C38_4 C15_4 1_555 1_555
H33_3 C60_3 1_555 1_555
H33_4 C60_4 1_555 1_555

#END
