
###############################################################################
#
# This file contains modified crystal structure data generated from the
# MOF subset of the Cambridge Structural Database (CSD) v543 
# hosted by the Cambridge Crystallographic Data Centre (CCDC).
#
# This work is licensed under the Creative Commons
# Attribution-NonCommercial-ShareAlike 4.0 International License.
# To view a copy of this license, visit
# http://creativecommons.org/licenses/by-nc-sa/4.0/
# or send a letter to
# Creative Commons, PO Box 1866, Mountain View, CA 94042, USA.
#
# CIF created using the CSD Python API on 29 September 2022
# The structure has been converted into the P1 space group
# The structure has a 3D framework
# The original CSD entry PAHLET is in the monoclinic crystal system
# The framework has been calculated to contain at least 10.0% void space
# The void calculation uses a probe of radius 1.32A, grid spacing 0.4
#
###############################################################################

data_PAHLET
_chemical_formula_moiety         '(C164 H104 Mn8 N16 O42)n'
_symmetry_cell_setting           triclinic
_symmetry_space_group_name_H-M   'P 1'
_symmetry_Int_Tables_number      1
_space_group_name_Hall           'P 1'
loop_
_symmetry_equiv_pos_site_id
_symmetry_equiv_pos_as_xyz
1 x,y,z
_cell_length_a                   15.6867(16)
_cell_length_b                   14.8573(15)
_cell_length_c                   18.9889(19)
_cell_angle_alpha                90
_cell_angle_beta                 93.799(4)
_cell_angle_gamma                90
_cell_volume                     4415.87
loop_
_atom_site_label
_atom_site_type_symbol
_atom_site_fract_x
_atom_site_fract_y
_atom_site_fract_z
O4 O 0.12220(9) 0.02181(9) 0.44308(8)
Mn5 Mn 0.06505(2) 0.14512(2) 0.47857(2)
Mn6 Mn 0.93495(2) 0.64512(2) 0.02143(2)
Mn1 Mn 0.01418(2) 0.44114(2) 0.43089(2)
O3 O 0.01294(8) 0.92786(9) 0.45218(8)
O6 O 0.03508(12) 0.93442(12) 0.18732(9)
O7 O 0.14714(9) 0.48554(10) 0.46542(8)
O8 O 0.12426(9) 0.57413(9) 0.55781(7)
O9 O 0.57554(11) 0.52734(14) 0.60898(11)
H1 H 0.6247 0.5429 0.6202
O10 O 0.56821(12) 0.66324(15) 0.56048(13)
N1 N 0.02084(11) 0.85394(11) 0.61821(9)
N2 N 0.13107(10) 0.83262(12) 0.69405(9)
N3 N 0.71279(12) 0.64648(14) 0.87002(10)
N4 N 0.83608(11) 0.64071(12) 0.93274(9)
C2 C 0.09077(12) 0.94528(12) 0.44972(10)
C3 C 0.15186(12) 0.86742(12) 0.45704(10)
C4 C 0.13285(11) 0.78469(12) 0.42458(9)
C5 C 0.05896(12) 0.77486(12) 0.37140(9)
C11 C 0.05401(13) 0.82626(13) 0.30985(10)
H6 H 0.0974 0.8668 0.3017
C12 C 0.18474(12) 0.71095(13) 0.44219(10)
H7 H 0.1734 0.6562 0.4198
C13 C 0.25334(12) 0.71726(13) 0.49268(10)
C14 C 0.30376(12) 0.63731(13) 0.51757(10)
C15 C 0.26624(13) 0.55337(14) 0.52829(11)
C16 C 0.17131(13) 0.53699(13) 0.51618(11)
C17 C 0.31699(15) 0.48250(16) 0.55473(14)
H8 H 0.2923 0.4264 0.5608
C18 C 0.40312(15) 0.49391(16) 0.57208(13)
H9 H 0.4355 0.4464 0.5914
C19 C 0.44118(13) 0.57589(16) 0.56078(12)
C20 C 0.53483(15) 0.5935(2) 0.57685(13)
C21 C 0.39154(13) 0.64657(15) 0.53318(11)
H10 H 0.4175 0.7015 0.5249
C22 C 0.27288(13) 0.80105(14) 0.52224(12)
H11 H 0.3195 0.8070 0.5548
C23 C 0.22365(13) 0.87534(14) 0.50357(12)
H12 H 0.2387 0.9314 0.5223
C24 C 0.09257(13) 0.80919(14) 0.63094(11)
H13 H 0.1140 0.7670 0.6005
C25 C 0.21245(13) 0.80206(15) 0.72239(11)
C26 C 0.26027(15) 0.85711(17) 0.76861(13)
H14 H 0.2386 0.9123 0.7820
C27 C 0.34041(15) 0.82970(18) 0.79474(14)
H15 H 0.3722 0.8664 0.8263
C28 C 0.37392(15) 0.74787(19) 0.77437(13)
C29 C 0.32447(16) 0.69315(19) 0.72874(15)
H16 H 0.3459 0.6379 0.7152
C30 C 0.24319(15) 0.71987(17) 0.70297(14)
H17 H 0.2101 0.6824 0.6729
C31 C 0.46181(15) 0.72030(19) 0.80006(13)
C32 C 0.49642(17) 0.7468(2) 0.86636(15)
H18 H 0.4640 0.7817 0.8952
C33 C 0.57875(16) 0.7216(2) 0.88993(15)
H19 H 0.6006 0.7383 0.9348
C34 C 0.62773(15) 0.67228(19) 0.84693(13)
C35 C 0.76118(14) 0.68004(16) 0.92536(12)
H20 H 0.7435 0.7255 0.9547
C36 C 0.83631(15) 0.57979(18) 0.87929(14)
H21 H 0.8817 0.5419 0.8708
C37 C 0.76190(16) 0.5823(2) 0.84069(15)
H22 H 0.7465 0.5471 0.8014
C38 C 0.59428(18) 0.6455(3) 0.78206(16)
H23 H 0.6270 0.6111 0.7531
C39 C 0.51173(18) 0.6697(3) 0.75947(16)
H24 H 0.4897 0.6507 0.7153
C40 C 0.07985(13) 0.89570(15) 0.72305(11)
H25 H 0.0895 0.9241 0.7665
C41 C 0.01291(14) 0.90812(14) 0.67601(12)
O12 O 0.01364(9) 0.41898(9) 0.55020(8)
O14 O 0.07696(11) 0.36064(10) 0.35271(7)
Mn2 Mn 0.93495(2) 0.85488(2) 0.52143(2)
O1 O 0.98636(9) 0.58102(9) 0.44980(8)
O2 O 0.98304(9) 0.70936(9) 0.50562(7)
O5 O 0.92304(11) 0.86064(10) 0.14729(7)
O11 O 0.83911(10) 0.77793(11) 0.57957(9)
H2 H 0.8171 0.8280 0.5945
H3 H 0.8647 0.7392 0.6086
C1 C 0.98809(11) 0.66569(12) 0.45004(10)
C6 C 0.99260(12) 0.71449(12) 0.38148(9)
C7 C 0.92572(13) 0.70322(14) 0.33076(10)
H4 H 0.8837 0.6604 0.3372
C8 C 0.92170(13) 0.75580(14) 0.27057(10)
H5 H 0.8763 0.7494 0.2369
C9 C 0.98522(13) 0.81771(13) 0.26056(9)
C10 C 0.98146(14) 0.87491(14) 0.19503(10)
H26 H 0.9679 0.9476 0.6818
Mn3 Mn 0.98582(2) 0.94114(2) 0.06911(2)
Mn4 Mn 0.98582(2) 0.55886(2) 0.56911(2)
O13 O 0.87780(9) 0.97819(9) 0.55692(8)
O15 O 0.96492(12) 0.43442(12) 0.31268(9)
O16 O 0.87574(9) 0.42587(9) 0.44219(7)
N5 N 0.83608(11) 0.85929(12) 0.43274(9)
O1_2 O 0.01364(9) 0.08102(9) 0.05020(8)
C1_2 C 0.01191(11) 0.16569(12) 0.04996(10)
C6_2 C 0.00740(12) 0.21449(12) 0.11852(9)
C7_2 C 0.07428(13) 0.20322(14) 0.16924(10)
H4_2 H 0.1163 0.1604 0.1628
C8_2 C 0.07830(13) 0.25580(14) 0.22943(10)
H5_2 H 0.1237 0.2494 0.2631
C9_2 C 0.01478(13) 0.31771(13) 0.23944(9)
C10_2 C 0.01854(14) 0.37491(14) 0.30497(10)
N5_2 N 0.16392(11) 0.35929(12) 0.06726(9)
Mn2_2 Mn 0.06505(2) 0.35488(2) 0.97857(2)
O2_2 O 0.01696(9) 0.20936(9) 0.99438(7)
O11_2 O 0.16089(10) 0.27793(11) 0.92043(9)
H2_2 H 0.1829 0.3280 0.9055
H3_2 H 0.1353 0.2392 0.8914
H26_2 H 0.0321 0.4476 0.8182
Mn4_2 Mn 0.01418(2) 0.05886(2) 0.93089(2)
O13_2 O 0.12220(9) 0.47819(9) 0.94308(8)
O16_2 O 0.12426(9) 0.92587(9) 0.05781(7)
O3_2 O 0.98706(8) 0.42786(9) 0.04782(8)
O4_2 O 0.87780(9) 0.52181(9) 0.05692(8)
C2_2 C 0.90923(12) 0.44528(12) 0.05028(10)
C3_2 C 0.84814(12) 0.36742(12) 0.04296(10)
C4_2 C 0.86715(11) 0.28469(12) 0.07542(9)
C5_2 C 0.94104(12) 0.27486(12) 0.12860(9)
C11_2 C 0.94599(13) 0.32626(13) 0.19015(10)
H6_2 H 0.9026 0.3668 0.1983
C12_2 C 0.81526(12) 0.21095(13) 0.05781(10)
H7_2 H 0.8266 0.1562 0.0802
C13_2 C 0.74666(12) 0.21726(13) 0.00732(10)
O8_2 O 0.87574(9) 0.07413(9) 0.94219(7)
O9_2 O 0.42446(11) 0.02734(14) 0.89102(11)
H1_2 H 0.3753 0.0429 0.8798
O10_2 O 0.43179(12) 0.16324(15) 0.93952(13)
N1_2 N 0.97916(11) 0.35394(11) 0.88179(9)
N2_2 N 0.86893(10) 0.33262(12) 0.80595(9)
N3_2 N 0.28721(12) 0.14648(14) 0.62998(10)
N4_2 N 0.16392(11) 0.14071(12) 0.56726(9)
C14_2 C 0.69624(12) 0.13731(13) 0.98243(10)
C15_2 C 0.73376(13) 0.05337(14) 0.97171(11)
C16_2 C 0.82869(13) 0.03699(13) 0.98382(11)
C19_2 C 0.55882(13) 0.07589(16) 0.93922(12)
C20_2 C 0.46517(15) 0.0935(2) 0.92315(13)
C21_2 C 0.60846(13) 0.14657(15) 0.96682(11)
H10_2 H 0.5825 0.2015 0.9751
C22_2 C 0.72712(13) 0.30105(14) 0.97776(12)
H11_2 H 0.6805 0.3070 0.9452
C23_2 C 0.77635(13) 0.37534(14) 0.99643(12)
H12_2 H 0.7613 0.4314 0.9777
C24_2 C 0.90743(13) 0.30919(14) 0.86906(11)
H13_2 H 0.8860 0.2670 0.8995
C25_2 C 0.78755(13) 0.30206(15) 0.77761(11)
C26_2 C 0.73973(15) 0.35711(17) 0.73139(13)
H14_2 H 0.7614 0.4123 0.7180
C27_2 C 0.65959(15) 0.32970(18) 0.70526(14)
H15_2 H 0.6278 0.3664 0.6737
C28_2 C 0.62608(15) 0.24787(19) 0.72563(13)
C29_2 C 0.67553(16) 0.19315(19) 0.77126(15)
H16_2 H 0.6541 0.1379 0.7848
C30_2 C 0.75681(15) 0.21987(17) 0.79703(14)
H17_2 H 0.7899 0.1824 0.8271
C31_2 C 0.53819(15) 0.22030(19) 0.69994(13)
C32_2 C 0.50358(17) 0.2468(2) 0.63364(15)
H18_2 H 0.5360 0.2817 0.6048
C33_2 C 0.42125(16) 0.2216(2) 0.61007(15)
H19_2 H 0.3994 0.2383 0.5652
C34_2 C 0.37227(15) 0.17228(19) 0.65307(13)
C35_2 C 0.23882(14) 0.18004(16) 0.57464(12)
H20_2 H 0.2565 0.2255 0.5453
C36_2 C 0.16369(15) 0.07979(18) 0.62071(14)
H21_2 H 0.1183 0.0419 0.6292
C37_2 C 0.23810(16) 0.0823(2) 0.65931(15)
H22_2 H 0.2535 0.0471 0.6986
C38_2 C 0.40572(18) 0.1455(3) 0.71794(16)
H23_2 H 0.3730 0.1111 0.7469
C39_2 C 0.48827(18) 0.1697(3) 0.74053(16)
H24_2 H 0.5103 0.1507 0.7847
C40_2 C 0.92015(13) 0.39570(15) 0.77695(11)
H25_2 H 0.9105 0.4241 0.7335
C41_2 C 0.98709(14) 0.40812(14) 0.82399(12)
O7_2 O 0.85286(9) 0.98554(10) 0.03458(8)
C17_2 C 0.68301(15) 0.98250(16) 0.94527(14)
H8_2 H 0.7077 0.9264 0.9392
C18_2 C 0.59688(15) 0.99391(16) 0.92792(13)
H9_2 H 0.5645 0.9464 0.9086
O12_2 O 0.98636(9) 0.91898(9) 0.94980(8)
O2_3 O 0.01696(9) 0.29064(9) 0.49438(7)
O5_2 O 0.07696(11) 0.13936(10) 0.85271(7)
O11_3 O 0.16089(10) 0.22207(11) 0.42043(9)
H2_3 H 0.1829 0.1720 0.4055
H3_3 H 0.1353 0.2608 0.3914
C1_3 C 0.01191(11) 0.33431(12) 0.54996(10)
C6_3 C 0.00740(12) 0.28551(12) 0.61852(9)
C7_3 C 0.07428(13) 0.29678(14) 0.66924(10)
H4_3 H 0.1163 0.3396 0.6628
C8_3 C 0.07830(13) 0.24420(14) 0.72943(10)
H5_3 H 0.1237 0.2506 0.7631
C9_3 C 0.01478(13) 0.18229(13) 0.73944(9)
C10_3 C 0.01854(14) 0.12509(14) 0.80497(10)
H26_3 H 0.0321 0.0524 0.3182
O15_2 O 0.03508(12) 0.56558(12) 0.68732(9)
O3_3 O 0.98706(8) 0.07214(9) 0.54782(8)
O6_2 O 0.96492(12) 0.06558(12) 0.81268(9)
O7_3 O 0.85286(9) 0.51446(10) 0.53458(8)
O9_3 O 0.42446(11) 0.47266(14) 0.39102(11)
H1_3 H 0.3753 0.4571 0.3798
O10_3 O 0.43179(12) 0.33676(15) 0.43952(13)
N1_3 N 0.97916(11) 0.14606(11) 0.38179(9)
N2_3 N 0.86893(10) 0.16738(12) 0.30595(9)
N3_3 N 0.28721(12) 0.35352(14) 0.12998(10)
C2_3 C 0.90923(12) 0.05472(12) 0.55028(10)
C3_3 C 0.84814(12) 0.13258(12) 0.54296(10)
C4_3 C 0.86715(11) 0.21531(12) 0.57542(9)
C5_3 C 0.94104(12) 0.22514(12) 0.62860(9)
C11_3 C 0.94599(13) 0.17374(13) 0.69015(10)
H6_3 H 0.9026 0.1332 0.6983
C12_3 C 0.81526(12) 0.28905(13) 0.55781(10)
H7_3 H 0.8266 0.3438 0.5802
C13_3 C 0.74666(12) 0.28274(13) 0.50732(10)
C14_3 C 0.69624(12) 0.36269(13) 0.48243(10)
C15_3 C 0.73376(13) 0.44663(14) 0.47171(11)
C16_3 C 0.82869(13) 0.46301(13) 0.48382(11)
C17_3 C 0.68301(15) 0.51750(16) 0.44527(14)
H8_3 H 0.7077 0.5736 0.4392
C18_3 C 0.59688(15) 0.50609(16) 0.42792(13)
H9_3 H 0.5645 0.5536 0.4086
C19_3 C 0.55882(13) 0.42411(16) 0.43922(12)
C20_3 C 0.46517(15) 0.4065(2) 0.42315(13)
C21_3 C 0.60846(13) 0.35343(15) 0.46682(11)
H10_3 H 0.5825 0.2985 0.4751
C22_3 C 0.72712(13) 0.19895(14) 0.47776(12)
H11_3 H 0.6805 0.1930 0.4452
C23_3 C 0.77635(13) 0.12466(14) 0.49643(12)
H12_3 H 0.7613 0.0686 0.4777
C24_3 C 0.90743(13) 0.19081(14) 0.36906(11)
H13_3 H 0.8860 0.2330 0.3995
C25_3 C 0.78755(13) 0.19794(15) 0.27761(11)
C26_3 C 0.73973(15) 0.14289(17) 0.23139(13)
H14_3 H 0.7614 0.0877 0.2180
C27_3 C 0.65959(15) 0.17030(18) 0.20526(14)
H15_3 H 0.6278 0.1336 0.1737
C28_3 C 0.62608(15) 0.25213(19) 0.22563(13)
C29_3 C 0.67553(16) 0.30685(19) 0.27126(15)
H16_3 H 0.6541 0.3621 0.2848
C30_3 C 0.75681(15) 0.28013(17) 0.29703(14)
H17_3 H 0.7899 0.3176 0.3271
C31_3 C 0.53819(15) 0.27970(19) 0.19994(13)
C32_3 C 0.50358(17) 0.2532(2) 0.13364(15)
H18_3 H 0.5360 0.2183 0.1048
C33_3 C 0.42125(16) 0.2784(2) 0.11007(15)
H19_3 H 0.3994 0.2617 0.0652
C34_3 C 0.37227(15) 0.32772(19) 0.15307(13)
C35_3 C 0.23882(14) 0.31996(16) 0.07464(12)
H20_3 H 0.2565 0.2745 0.0453
C36_3 C 0.16369(15) 0.42021(18) 0.12071(14)
H21_3 H 0.1183 0.4581 0.1292
C37_3 C 0.23810(16) 0.4177(2) 0.15931(15)
H22_3 H 0.2535 0.4529 0.1986
C38_3 C 0.40572(18) 0.3545(3) 0.21794(16)
H23_3 H 0.3730 0.3889 0.2469
C39_3 C 0.48827(18) 0.3303(3) 0.24053(16)
H24_3 H 0.5103 0.3493 0.2847
C40_3 C 0.92015(13) 0.10430(15) 0.27695(11)
H25_3 H 0.9105 0.0759 0.2335
C41_3 C 0.98709(14) 0.09188(14) 0.32399(12)
O14_2 O 0.92304(11) 0.63936(10) 0.64729(7)
C17_4 C 0.31699(15) 0.01750(16) 0.05473(14)
H8_4 H 0.2923 0.0736 0.0608
C18_4 C 0.40312(15) 0.00609(16) 0.07208(13)
H9_4 H 0.4355 0.0536 0.0914
O7_4 O 0.14714(9) 0.01446(10) 0.96542(8)
O9_4 O 0.57554(11) 0.97266(14) 0.10898(11)
H1_4 H 0.6247 0.9571 0.1202
O10_4 O 0.56821(12) 0.83676(15) 0.06048(13)
N1_4 N 0.02084(11) 0.64606(11) 0.11821(9)
N2_4 N 0.13107(10) 0.66738(12) 0.19405(9)
N3_4 N 0.71279(12) 0.85352(14) 0.37002(10)
C14_4 C 0.30376(12) 0.86269(13) 0.01757(10)
C15_4 C 0.26624(13) 0.94663(14) 0.02829(11)
C16_4 C 0.17131(13) 0.96301(13) 0.01618(11)
C19_4 C 0.44118(13) 0.92411(16) 0.06078(12)
C20_4 C 0.53483(15) 0.9065(2) 0.07685(13)
C21_4 C 0.39154(13) 0.85343(15) 0.03318(11)
H10_4 H 0.4175 0.7985 0.0249
C22_4 C 0.27288(13) 0.69895(14) 0.02224(12)
H11_4 H 0.3195 0.6930 0.0548
C23_4 C 0.22365(13) 0.62466(14) 0.00357(12)
H12_4 H 0.2387 0.5686 0.0223
C24_4 C 0.09257(13) 0.69081(14) 0.13094(11)
H13_4 H 0.1140 0.7330 0.1005
C25_4 C 0.21245(13) 0.69794(15) 0.22239(11)
C26_4 C 0.26027(15) 0.64289(17) 0.26861(13)
H14_4 H 0.2386 0.5877 0.2820
C27_4 C 0.34041(15) 0.67030(18) 0.29474(14)
H15_4 H 0.3722 0.6336 0.3263
C28_4 C 0.37392(15) 0.75213(19) 0.27437(13)
C29_4 C 0.32447(16) 0.80685(19) 0.22874(15)
H16_4 H 0.3459 0.8621 0.2152
C30_4 C 0.24319(15) 0.78013(17) 0.20297(14)
H17_4 H 0.2101 0.8176 0.1729
C31_4 C 0.46181(15) 0.77970(19) 0.30006(13)
C32_4 C 0.49642(17) 0.7532(2) 0.36636(15)
H18_4 H 0.4640 0.7183 0.3952
C33_4 C 0.57875(16) 0.7784(2) 0.38993(15)
H19_4 H 0.6006 0.7617 0.4348
C34_4 C 0.62773(15) 0.82772(19) 0.34693(13)
C35_4 C 0.76118(14) 0.81996(16) 0.42536(12)
H20_4 H 0.7435 0.7745 0.4547
C36_4 C 0.83631(15) 0.92021(18) 0.37929(14)
H21_4 H 0.8817 0.9581 0.3708
C37_4 C 0.76190(16) 0.9177(2) 0.34069(15)
H22_4 H 0.7465 0.9529 0.3014
C38_4 C 0.59428(18) 0.8545(3) 0.28206(16)
H23_4 H 0.6270 0.8889 0.2531
C39_4 C 0.51173(18) 0.8303(3) 0.25947(16)
H24_4 H 0.4897 0.8493 0.2153
C40_4 C 0.07985(13) 0.60430(15) 0.22305(11)
H25_4 H 0.0895 0.5759 0.2665
C41_4 C 0.01291(14) 0.59188(14) 0.17601(12)
O3_4 O 0.01294(8) 0.57214(9) 0.95218(8)
C2_4 C 0.09077(12) 0.55472(12) 0.94972(10)
C3_4 C 0.15186(12) 0.63258(12) 0.95704(10)
C4_4 C 0.13285(11) 0.71531(12) 0.92458(9)
C5_4 C 0.05896(12) 0.72514(12) 0.87140(9)
C11_4 C 0.05401(13) 0.67374(13) 0.80985(10)
H6_4 H 0.0974 0.6332 0.8017
C12_4 C 0.18474(12) 0.78905(13) 0.94219(10)
H7_4 H 0.1734 0.8438 0.9198
C13_4 C 0.25334(12) 0.78274(13) 0.99268(10)
O2_4 O 0.98304(9) 0.79064(9) 0.00562(7)
O11_4 O 0.83911(10) 0.72207(11) 0.07957(9)
H2_4 H 0.8171 0.6720 0.0945
H3_4 H 0.8647 0.7608 0.1086
H26_4 H 0.9679 0.5524 0.1818
C1_4 C 0.98809(11) 0.83431(12) 0.95004(10)
C6_4 C 0.99260(12) 0.78551(12) 0.88148(9)
C7_4 C 0.92572(13) 0.79678(14) 0.83076(10)
H4_4 H 0.8837 0.8396 0.8372
C8_4 C 0.92170(13) 0.74420(14) 0.77057(10)
H5_4 H 0.8763 0.7506 0.7369
C9_4 C 0.98522(13) 0.68229(13) 0.76056(9)
C10_4 C 0.98146(14) 0.62509(14) 0.69503(10)
loop_
_geom_bond_atom_site_label_1
_geom_bond_atom_site_label_2
_geom_bond_site_symmetry_1
_geom_bond_site_symmetry_2
Mn5 O4 1_555 1_555
O7 Mn1 1_555 1_555
O8 C16 1_555 1_555
O9 H1 1_555 1_555
O10 C20 1_555 1_555
N2 C24 1_555 1_555
N3 C34 1_555 1_555
N4 C35 1_555 1_555
C2 O3 1_555 1_555
C3 C2 1_555 1_555
C4 C3 1_555 1_555
C5 C4 1_555 1_555
C11 C5 1_555 1_555
H6 C11 1_555 1_555
C12 C4 1_555 1_555
H7 C12 1_555 1_555
C13 C12 1_555 1_555
C14 C13 1_555 1_555
C15 C14 1_555 1_555
C16 O7 1_555 1_555
C17 C15 1_555 1_555
H8 C17 1_555 1_555
C18 C17 1_555 1_555
H9 C18 1_555 1_555
C19 C18 1_555 1_555
C20 O9 1_555 1_555
C21 C14 1_555 1_555
H10 C21 1_555 1_555
C22 C13 1_555 1_555
H11 C22 1_555 1_555
C23 C3 1_555 1_555
H12 C23 1_555 1_555
C24 N1 1_555 1_555
H13 C24 1_555 1_555
C25 N2 1_555 1_555
C26 C25 1_555 1_555
H14 C26 1_555 1_555
C27 C26 1_555 1_555
H15 C27 1_555 1_555
C28 C27 1_555 1_555
C29 C28 1_555 1_555
H16 C29 1_555 1_555
C30 C25 1_555 1_555
H17 C30 1_555 1_555
C31 C28 1_555 1_555
C32 C31 1_555 1_555
H18 C32 1_555 1_555
C33 C32 1_555 1_555
H19 C33 1_555 1_555
C34 C33 1_555 1_555
C35 N3 1_555 1_555
H20 C35 1_555 1_555
C36 N4 1_555 1_555
H21 C36 1_555 1_555
C37 N3 1_555 1_555
H22 C37 1_555 1_555
C38 C34 1_555 1_555
H23 C38 1_555 1_555
C39 C31 1_555 1_555
H24 C39 1_555 1_555
C40 N2 1_555 1_555
H25 C40 1_555 1_555
C41 N1 1_555 1_555
O12 Mn1 1_555 1_555
O14 Mn1 1_555 1_555
C15 C16 1_555 1_555
C19 C20 1_555 1_555
C19 C21 1_555 1_555
C22 C23 1_555 1_555
C29 C30 1_555 1_555
C36 C37 1_555 1_555
C38 C39 1_555 1_555
C40 C41 1_555 1_555
Mn2 O2 1_555 1_555
O1 C1 1_555 1_555
O2 C1 1_555 1_555
O5 C10 1_555 1_555
O11 Mn2 1_555 1_555
H2 O11 1_555 1_555
H3 O11 1_555 1_555
C1 C6 1_555 1_555
C7 C6 1_555 1_555
H4 C7 1_555 1_555
C8 C7 1_555 1_555
H5 C8 1_555 1_555
C9 C8 1_555 1_555
C10 C9 1_555 1_555
Mn3 O5 1_555 1_555
Mn4 O1 1_555 1_555
O13 Mn2 1_555 1_555
N5 Mn2 1_555 1_555
O1_2 C1_2 1_555 1_555
O14 C10_2 1_555 1_555
C1_2 C6_2 1_555 1_555
C7_2 C6_2 1_555 1_555
H4_2 C7_2 1_555 1_555
C8_2 C7_2 1_555 1_555
H5_2 C8_2 1_555 1_555
C9_2 C8_2 1_555 1_555
C10_2 C9_2 1_555 1_555
Mn2_2 O2_2 1_555 1_555
O11_2 Mn2_2 1_555 1_555
H2_2 O11_2 1_555 1_555
H3_2 O11_2 1_555 1_555
O13_2 Mn2_2 1_555 1_555
O4_2 C2_2 1_555 1_555
C2_2 O3_2 1_555 1_555
C3_2 C2_2 1_555 1_555
C4_2 C3_2 1_555 1_555
C5_2 C4_2 1_555 1_555
C11_2 C5_2 1_555 1_555
H6_2 C11_2 1_555 1_555
C12_2 C4_2 1_555 1_555
H7_2 C12_2 1_555 1_555
C13_2 C12_2 1_555 1_555
Mn6 O4_2 1_555 1_555
O8_2 C16_2 1_555 1_555
O9_2 H1_2 1_555 1_555
O10_2 C20_2 1_555 1_555
N2_2 C24_2 1_555 1_555
N3_2 C34_2 1_555 1_555
N4_2 C35_2 1_555 1_555
C15_2 C14_2 1_555 1_555
C20_2 O9_2 1_555 1_555
C21_2 C14_2 1_555 1_555
H10_2 C21_2 1_555 1_555
H11_2 C22_2 1_555 1_555
H12_2 C23_2 1_555 1_555
C24_2 N1_2 1_555 1_555
H13_2 C24_2 1_555 1_555
C25_2 N2_2 1_555 1_555
C26_2 C25_2 1_555 1_555
H14_2 C26_2 1_555 1_555
C27_2 C26_2 1_555 1_555
H15_2 C27_2 1_555 1_555
C28_2 C27_2 1_555 1_555
C29_2 C28_2 1_555 1_555
H16_2 C29_2 1_555 1_555
C30_2 C25_2 1_555 1_555
H17_2 C30_2 1_555 1_555
C31_2 C28_2 1_555 1_555
C32_2 C31_2 1_555 1_555
H18_2 C32_2 1_555 1_555
C33_2 C32_2 1_555 1_555
H19_2 C33_2 1_555 1_555
C34_2 C33_2 1_555 1_555
C35_2 N3_2 1_555 1_555
H20_2 C35_2 1_555 1_555
C36_2 N4_2 1_555 1_555
H21_2 C36_2 1_555 1_555
C37_2 N3_2 1_555 1_555
H22_2 C37_2 1_555 1_555
C38_2 C34_2 1_555 1_555
H23_2 C38_2 1_555 1_555
C39_2 C31_2 1_555 1_555
H24_2 C39_2 1_555 1_555
C40_2 N2_2 1_555 1_555
H25_2 C40_2 1_555 1_555
C41_2 N1_2 1_555 1_555
Mn5 N4_2 1_555 1_555
C15_2 C16_2 1_555 1_555
C19_2 C20_2 1_555 1_555
C19_2 C21_2 1_555 1_555
C22_2 C23_2 1_555 1_555
C29_2 C30_2 1_555 1_555
C36_2 C37_2 1_555 1_555
C38_2 C39_2 1_555 1_555
C40_2 C41_2 1_555 1_555
O7_2 Mn3 1_555 1_555
H8_2 C17_2 1_555 1_555
C18_2 C17_2 1_555 1_555
H9_2 C18_2 1_555 1_555
Mn5 O2_3 1_555 1_555
O12 C1_3 1_555 1_555
O2_3 C1_3 1_555 1_555
O5_2 C10_3 1_555 1_555
O11_3 Mn5 1_555 1_555
H2_3 O11_3 1_555 1_555
H3_3 O11_3 1_555 1_555
C1_3 C6_3 1_555 1_555
C7_3 C6_3 1_555 1_555
H4_3 C7_3 1_555 1_555
C8_3 C7_3 1_555 1_555
H5_3 C8_3 1_555 1_555
C9_3 C8_3 1_555 1_555
C10_3 C9_3 1_555 1_555
Mn4_2 O5_2 1_555 1_555
O7_3 Mn4 1_555 1_555
O16 C16_3 1_555 1_555
O9_3 H1_3 1_555 1_555
O10_3 C20_3 1_555 1_555
N2_3 C24_3 1_555 1_555
N3_3 C34_3 1_555 1_555
N5_2 C35_3 1_555 1_555
C2_3 O3_3 1_555 1_555
C3_3 C2_3 1_555 1_555
C4_3 C3_3 1_555 1_555
C5_3 C4_3 1_555 1_555
C11_3 C5_3 1_555 1_555
H6_3 C11_3 1_555 1_555
C12_3 C4_3 1_555 1_555
H7_3 C12_3 1_555 1_555
C13_3 C12_3 1_555 1_555
C14_3 C13_3 1_555 1_555
C15_3 C14_3 1_555 1_555
C16_3 O7_3 1_555 1_555
C17_3 C15_3 1_555 1_555
H8_3 C17_3 1_555 1_555
C18_3 C17_3 1_555 1_555
H9_3 C18_3 1_555 1_555
C19_3 C18_3 1_555 1_555
C20_3 O9_3 1_555 1_555
C21_3 C14_3 1_555 1_555
H10_3 C21_3 1_555 1_555
C22_3 C13_3 1_555 1_555
H11_3 C22_3 1_555 1_555
C23_3 C3_3 1_555 1_555
H12_3 C23_3 1_555 1_555
C24_3 N1_3 1_555 1_555
H13_3 C24_3 1_555 1_555
C25_3 N2_3 1_555 1_555
C26_3 C25_3 1_555 1_555
H14_3 C26_3 1_555 1_555
C27_3 C26_3 1_555 1_555
H15_3 C27_3 1_555 1_555
C28_3 C27_3 1_555 1_555
C29_3 C28_3 1_555 1_555
H16_3 C29_3 1_555 1_555
C30_3 C25_3 1_555 1_555
H17_3 C30_3 1_555 1_555
C31_3 C28_3 1_555 1_555
C32_3 C31_3 1_555 1_555
H18_3 C32_3 1_555 1_555
C33_3 C32_3 1_555 1_555
H19_3 C33_3 1_555 1_555
C34_3 C33_3 1_555 1_555
C35_3 N3_3 1_555 1_555
H20_3 C35_3 1_555 1_555
C36_3 N5_2 1_555 1_555
H21_3 C36_3 1_555 1_555
C37_3 N3_3 1_555 1_555
H22_3 C37_3 1_555 1_555
C38_3 C34_3 1_555 1_555
H23_3 C38_3 1_555 1_555
C39_3 C31_3 1_555 1_555
H24_3 C39_3 1_555 1_555
C40_3 N2_3 1_555 1_555
H25_3 C40_3 1_555 1_555
C41_3 N1_3 1_555 1_555
O14_2 Mn4 1_555 1_555
C15_3 C16_3 1_555 1_555
C19_3 C20_3 1_555 1_555
C19_3 C21_3 1_555 1_555
C22_3 C23_3 1_555 1_555
C29_3 C30_3 1_555 1_555
C36_3 C37_3 1_555 1_555
C38_3 C39_3 1_555 1_555
C40_3 C41_3 1_555 1_555
H8_4 C17_4 1_555 1_555
C18_4 C17_4 1_555 1_555
H9_4 C18_4 1_555 1_555
O7_4 Mn4_2 1_555 1_555
O16_2 C16_4 1_555 1_555
O9_4 H1_4 1_555 1_555
O10_4 C20_4 1_555 1_555
N2_4 C24_4 1_555 1_555
N3_4 C34_4 1_555 1_555
N5 C35_4 1_555 1_555
C15_4 C14_4 1_555 1_555
C20_4 O9_4 1_555 1_555
C21_4 C14_4 1_555 1_555
H10_4 C21_4 1_555 1_555
H11_4 C22_4 1_555 1_555
H12_4 C23_4 1_555 1_555
C24_4 N1_4 1_555 1_555
H13_4 C24_4 1_555 1_555
C25_4 N2_4 1_555 1_555
C26_4 C25_4 1_555 1_555
H14_4 C26_4 1_555 1_555
C27_4 C26_4 1_555 1_555
H15_4 C27_4 1_555 1_555
C28_4 C27_4 1_555 1_555
C29_4 C28_4 1_555 1_555
H16_4 C29_4 1_555 1_555
C30_4 C25_4 1_555 1_555
H17_4 C30_4 1_555 1_555
C31_4 C28_4 1_555 1_555
C32_4 C31_4 1_555 1_555
H18_4 C32_4 1_555 1_555
C33_4 C32_4 1_555 1_555
H19_4 C33_4 1_555 1_555
C34_4 C33_4 1_555 1_555
C35_4 N3_4 1_555 1_555
H20_4 C35_4 1_555 1_555
C36_4 N5 1_555 1_555
H21_4 C36_4 1_555 1_555
C37_4 N3_4 1_555 1_555
H22_4 C37_4 1_555 1_555
C38_4 C34_4 1_555 1_555
H23_4 C38_4 1_555 1_555
C39_4 C31_4 1_555 1_555
H24_4 C39_4 1_555 1_555
C40_4 N2_4 1_555 1_555
H25_4 C40_4 1_555 1_555
C41_4 N1_4 1_555 1_555
C15_4 C16_4 1_555 1_555
C19_4 C20_4 1_555 1_555
C19_4 C21_4 1_555 1_555
C22_4 C23_4 1_555 1_555
C29_4 C30_4 1_555 1_555
C36_4 C37_4 1_555 1_555
C38_4 C39_4 1_555 1_555
C40_4 C41_4 1_555 1_555
O13_2 C2_4 1_555 1_555
C2_4 O3_4 1_555 1_555
C3_4 C2_4 1_555 1_555
C4_4 C3_4 1_555 1_555
C5_4 C4_4 1_555 1_555
C11_4 C5_4 1_555 1_555
H6_4 C11_4 1_555 1_555
C12_4 C4_4 1_555 1_555
H7_4 C12_4 1_555 1_555
C13_4 C12_4 1_555 1_555
Mn6 O2_4 1_555 1_555
O11_4 Mn6 1_555 1_555
H2_4 O11_4 1_555 1_555
H3_4 O11_4 1_555 1_555
O12_2 C1_4 1_555 1_555
O14_2 C10_4 1_555 1_555
C1_4 C6_4 1_555 1_555
C7_4 C6_4 1_555 1_555
H4_4 C7_4 1_555 1_555
C8_4 C7_4 1_555 1_555
H5_4 C8_4 1_555 1_555
C9_4 C8_4 1_555 1_555
C10_4 C9_4 1_555 1_555

#END
