
###############################################################################
#
# This file contains modified crystal structure data generated from the
# MOF subset of the Cambridge Structural Database (CSD) v543 
# hosted by the Cambridge Crystallographic Data Centre (CCDC).
#
# This work is licensed under the Creative Commons
# Attribution-NonCommercial-ShareAlike 4.0 International License.
# To view a copy of this license, visit
# http://creativecommons.org/licenses/by-nc-sa/4.0/
# or send a letter to
# Creative Commons, PO Box 1866, Mountain View, CA 94042, USA.
#
# CIF created using the CSD Python API on 29 September 2022
# The structure has been converted into the P1 space group
# The structure has a 3D framework
# The original CSD entry PAHPOG is in the triclinic crystal system
# The framework has been calculated to contain at least 10.0% void space
# The void calculation uses a probe of radius 1.32A, grid spacing 0.4
# The framework is charged, counterions have been retained in the structure
#
###############################################################################

data_PAHPOG
_chemical_formula_moiety         '(C232 H136 Ag4 F72 Fe4 N40 O16 P12 1-)n'
_symmetry_cell_setting           triclinic
_symmetry_space_group_name_H-M   'P 1'
_symmetry_Int_Tables_number      1
_space_group_name_Hall           'P 1'
loop_
_symmetry_equiv_pos_site_id
_symmetry_equiv_pos_as_xyz
1 x,y,z
_cell_length_a                   17.3266(2)
_cell_length_b                   21.9786(3)
_cell_length_c                   23.2172(2)
_cell_angle_alpha                99.590(1)
_cell_angle_beta                 108.832(1)
_cell_angle_gamma                107.228(1)
_cell_volume                     7649.13
loop_
_atom_site_label
_atom_site_type_symbol
_atom_site_fract_x
_atom_site_fract_y
_atom_site_fract_z
P1 P 0.50043(8) 0.00953(6) 0.70571(6)
F1 F 0.49147(18) 0.01626(13) 0.63674(10)
F3 F 0.51036(19) 0.00232(14) 0.77447(10)
F4 F 0.60156(14) 0.02071(14) 0.72342(14)
F5 F 0.52645(19) 0.08708(10) 0.73136(13)
F2 F 0.39988(14) 0.99723(16) 0.68769(14)
F6 F 0.4756(2) 0.93144(10) 0.68011(13)
F2_2 F 0.60012(14) 0.00277(16) 0.31231(14)
F6_2 F 0.5244(2) 0.06856(10) 0.31989(13)
P1_2 P 0.49957(8) 0.99047(6) 0.29429(6)
F1_2 F 0.50853(18) 0.98374(13) 0.36326(10)
F3_2 F 0.48964(19) 0.99768(14) 0.22553(10)
F4_2 F 0.39844(14) 0.97929(14) 0.27658(14)
F5_2 F 0.47355(19) 0.91292(10) 0.26864(13)
P2 P 0.88672(9) 0.29198(7) 0.43336(6)
F7 F 0.8206(5) 0.3252(5) 0.4433(3)
F8 F 0.9634(4) 0.3457(3) 0.4956(3)
F9 F 0.9532(5) 0.2583(5) 0.4237(3)
F10 F 0.8105(6) 0.2392(7) 0.3700(6)
F11 F 0.9110(6) 0.3381(4) 0.3913(4)
F12 F 0.8623(6) 0.2443(4) 0.4746(4)
P2_2 P 0.11328(9) 0.70802(7) 0.56664(6)
F7_2 F 0.1794(5) 0.6748(5) 0.5567(3)
F8_2 F 0.0366(4) 0.6543(3) 0.5044(3)
F9_2 F 0.0468(5) 0.7417(5) 0.5763(3)
F10_2 F 0.1895(6) 0.7608(7) 0.6300(6)
F11_2 F 0.0890(6) 0.6619(4) 0.6087(4)
F12_2 F 0.1377(6) 0.7557(4) 0.5254(4)
P3 P 0.17066(10) 0.12023(7) 0.71720(7)
F13 F 0.2364(5) 0.1063(3) 0.6871(3)
F14 F 0.0902(4) 0.06461(18) 0.6576(2)
F15 F 0.1037(5) 0.1336(3) 0.7462(4)
F16 F 0.2508(4) 0.17533(18) 0.7765(2)
F17 F 0.1623(2) 0.17454(14) 0.68090(15)
F18 F 0.1791(2) 0.06554(15) 0.75314(16)
P3_2 P 0.82934(10) 0.87977(7) 0.28280(7)
F13_2 F 0.7636(5) 0.8937(3) 0.3129(3)
F14_2 F 0.9098(4) 0.93539(18) 0.3424(2)
F15_2 F 0.8963(5) 0.8664(3) 0.2538(4)
F16_2 F 0.7492(4) 0.82467(18) 0.2235(2)
F17_2 F 0.8377(2) 0.82546(14) 0.31910(15)
F18_2 F 0.8209(2) 0.93446(15) 0.24686(16)
P4 P 0.45246(14) 0.24961(9) 0.23221(10)
F19 F 0.4579(4) 0.2539(3) 0.16548(18)
F20 F 0.3531(2) 0.2444(3) 0.2039(3)
F21 F 0.4462(4) 0.2453(2) 0.29780(17)
F22 F 0.5513(2) 0.2548(2) 0.2592(3)
F23 F 0.4198(3) 0.17086(13) 0.2080(3)
F24 F 0.4849(3) 0.32840(13) 0.2554(3)
P4_2 P 0.54754(14) 0.75039(9) 0.76779(10)
F19_2 F 0.5421(4) 0.7461(3) 0.83452(18)
F20_2 F 0.6469(2) 0.7556(3) 0.7961(3)
F21_2 F 0.5538(4) 0.7547(2) 0.70220(17)
F22_2 F 0.4487(2) 0.7452(2) 0.7408(3)
F23_2 F 0.5802(3) 0.82914(13) 0.7920(3)
F24_2 F 0.5151(3) 0.67160(13) 0.7446(3)
P5 P 0.47830(10) 0.51533(7) 0.20379(8)
F25 F 0.57794(17) 0.5208(2) 0.22645(18)
F26 F 0.4775(2) 0.51951(16) 0.13612(12)
F27 F 0.37951(16) 0.5094(2) 0.18179(17)
F28 F 0.4802(2) 0.51108(17) 0.27219(12)
F29 F 0.5115(3) 0.59391(11) 0.22835(17)
F30 F 0.4470(3) 0.43667(11) 0.18031(17)
P5_2 P 0.52170(10) 0.48467(7) 0.79621(8)
F25_2 F 0.42206(17) 0.4792(2) 0.77355(18)
F26_2 F 0.5225(2) 0.48049(16) 0.86388(12)
F27_2 F 0.62049(16) 0.4906(2) 0.81821(17)
F28_2 F 0.5198(2) 0.48892(17) 0.72781(12)
F29_2 F 0.4885(3) 0.40609(11) 0.77165(17)
F30_2 F 0.5530(3) 0.56333(11) 0.81969(17)
P6 P 0.00786(11) 0.30764(12) 0.09495(8)
F31 F 0.0619(2) 0.2822(2) 0.05926(17)
F32 F 0.0157(3) 0.36760(17) 0.06480(17)
F34 F 0.0009(2) 0.24759(17) 0.12568(17)
F36 F 0.09684(17) 0.3526(2) 0.15422(14)
F33 F 0.95373(19) 0.33228(17) 0.13076(13)
F35 F 0.91891(19) 0.26262(18) 0.03573(13)
F33_2 F 0.04627(19) 0.66772(17) 0.86924(13)
F35_2 F 0.08109(19) 0.73738(18) 0.96427(13)
P6_2 P 0.99214(11) 0.69236(12) 0.90505(8)
F31_2 F 0.9381(2) 0.7178(2) 0.94074(17)
F32_2 F 0.9843(3) 0.63240(17) 0.93520(17)
F34_2 F 0.9991(2) 0.75241(17) 0.87432(17)
F36_2 F 0.90316(17) 0.6474(2) 0.84578(14)
C98 C 0.0026(3) 0.1744(2) 0.5494(2)
C110 C 0.0361(3) 0.2427(2) 0.5724(2)
H50 H 0.0051 0.1530 0.5114
N19 N 0.0340(3) 0.27512(18) 0.62512(18)
H62 H 0.0621 0.2680 0.5494
Ag4 Ag 0.09824(2) 0.387449(15) 0.662515(17)
N23 N 0.2055(2) 0.39232(18) 0.76048(17)
N24 N 0.1975(3) 0.42545(18) 0.61309(19)
N25 N 0.0403(3) 0.4655(2) 0.6656(2)
C94 C 0.0137(4) 0.5516(2) 0.7237(2)
C105 C 0.0071(4) 0.4832(3) 0.6134(2)
C106 C 0.0425(4) 0.4995(3) 0.7195(2)
H46 H 0.0182 0.5754 0.7635
H57 H 0.0050 0.4597 0.5743
H58 H 0.0649 0.4873 0.7570
Ag1 Ag 0.07168(2) 0.876551(15) 0.171788(16)
N1 N 0.1919(2) 0.88446(18) 0.26521(17)
N2 N 0.0100(3) 0.76471(18) 0.13771(18)
N3 N 0.0309(3) 0.96442(18) 0.18317(18)
N4 N 0.1630(3) 0.91056(19) 0.11276(18)
C1 C 0.2288(3) 0.8389(2) 0.2602(2)
C2 C 0.2236(3) 0.9276(2) 0.3218(2)
C4 C 0.0286(3) 0.7314(2) 0.0934(3)
C5 C 0.2966(3) 0.8366(2) 0.3098(2)
H1 H 0.2069 0.8066 0.2202
H2 H 0.1990 0.9606 0.3262
C6 C 0.2894(3) 0.9287(2) 0.3748(2)
H4 H 0.0616 0.7561 0.0736
C8 C 0.0018(4) 0.6627(2) 0.0752(3)
C9 C 0.3279(3) 0.8818(2) 0.36884(19)
H5 H 0.3216 0.8042 0.3036
H6 H 0.3082 0.9605 0.4145
H8 H 0.0161 0.6411 0.0434
C11 C 0.3982(3) 0.8803(2) 0.4236(2)
O1 O 0.43735(19) 0.83684(15) 0.40972(13)
C13 C 0.4319(3) 0.9122(2) 0.4866(2)
C15 C 0.4990(3) 0.8422(2) 0.46726(19)
C16 C 0.4976(3) 0.8873(2) 0.5162(2)
H9 H 0.4154 0.9445 0.5069
C19 C 0.5550(3) 0.8084(2) 0.47616(19)
C20 C 0.5554(3) 0.8968(2) 0.57786(19)
N5 N 0.6106(2) 0.81811(16) 0.53513(15)
H11 H 0.5542 0.7786 0.4410
C23 C 0.6093(3) 0.86096(18) 0.58561(18)
H12 H 0.5576 0.9270 0.6133
Fe1 Fe 0.70133(4) 0.77885(3) 0.56034(2)
C25 C 0.6700(3) 0.86292(19) 0.64719(18)
N7 N 0.7912(2) 0.74890(16) 0.61156(16)
N8 N 0.7148(2) 0.82288(15) 0.64161(15)
N9 N 0.6080(2) 0.69192(16) 0.54245(16)
N10 N 0.6910(2) 0.73797(15) 0.47848(15)
N11 N 0.7861(2) 0.85460(15) 0.55043(15)
C27 C 0.6842(3) 0.8999(2) 0.70747(19)
C29 C 0.8200(3) 0.70411(19) 0.58862(19)
C30 C 0.8157(3) 0.77190(19) 0.67598(18)
C31 C 0.7747(3) 0.81810(19) 0.69370(19)
C32 C 0.5677(3) 0.6747(2) 0.58107(19)
C33 C 0.5807(3) 0.6496(2) 0.48297(19)
C34 C 0.6321(3) 0.67619(19) 0.44739(19)
C35 C 0.7410(3) 0.7732(2) 0.4522(2)
C36 C 0.7934(3) 0.84222(19) 0.49241(19)
C37 C 0.8234(3) 0.9167(2) 0.58861(19)
C38 C 0.7436(3) 0.8939(2) 0.7604(2)
H15 H 0.6534 0.9286 0.7119
H17 H 0.8051 0.6886 0.5443
C49 C 0.8718(3) 0.6810(2) 0.6310(2)
C50 C 0.8687(3) 0.7509(2) 0.7196(2)
C51 C 0.7904(3) 0.8533(2) 0.7542(2)
H18 H 0.5871 0.7030 0.6227
C52 C 0.4976(3) 0.6149(2) 0.5589(2)
C53 C 0.5103(3) 0.5896(2) 0.4590(2)
C54 C 0.6223(3) 0.6444(2) 0.3870(2)
C55 C 0.7355(3) 0.7450(2) 0.3924(2)
C56 C 0.8394(3) 0.8910(2) 0.4722(2)
C57 C 0.8667(3) 0.96687(19) 0.5691(2)
H19 H 0.8200 0.9262 0.6290
H20 H 0.7526 0.9178 0.8015
O3 O 0.9006(2) 0.63146(14) 0.61512(13)
C67 C 0.8978(3) 0.7030(2) 0.6963(2)
H25 H 0.8850 0.7683 0.7639
H26 H 0.8321 0.8498 0.7907
O4 O 0.4484(2) 0.59088(14) 0.59061(14)
C68 C 0.4658(3) 0.5716(2) 0.4982(2)
H27 H 0.4925 0.5615 0.4174
H28 H 0.5808 0.6003 0.3647
C69 C 0.6756(4) 0.6796(3) 0.3602(2)
H29 H 0.7711 0.7692 0.3738
H30 H 0.8458 0.8804 0.4330
C70 C 0.8759(3) 0.9560(2) 0.5112(2)
C75 C 0.9457(3) 0.6231(2) 0.6725(2)
C76 C 0.9457(3) 0.6642(2) 0.7223(2)
C77 C 0.3822(3) 0.5324(2) 0.5483(2)
C78 C 0.3905(3) 0.5184(2) 0.4924(2)
H37 H 0.6712 0.6588 0.3193
C87 C 0.9782(3) 0.5690(2) 0.6691(2)
H39 H 0.9721 0.6669 0.7659
C88 C 0.3198(3) 0.4962(2) 0.5718(2)
H40 H 0.3536 0.4807 0.4565
C93 C 0.9756(4) 0.5338(2) 0.6139(2)
C95 C 0.3397(3) 0.5040(2) 0.6356(2)
C96 C 0.2367(3) 0.4521(2) 0.5290(2)
H45 H 0.9521 0.5443 0.5755
H47 H 0.3954 0.5345 0.6664
C107 C 0.2769(3) 0.4664(2) 0.6542(2)
C108 C 0.1781(3) 0.4182(2) 0.5512(2)
H48 H 0.2207 0.4456 0.4846
H59 H 0.2917 0.4704 0.6981
H60 H 0.1214 0.3883 0.5215
C111 C 0.0097(3) 0.9902(3) 0.1346(2)
C112 C 0.0194(3) 0.9896(2) 0.2346(2)
H63 H 0.0192 0.9741 0.0979
H64 H 0.0354 0.9725 0.2698
H10 H 0.9323 0.5190 0.9975
C22 C 0.8283(3) 0.3799(2) 0.9907(2)
H14 H 0.8377 0.3699 0.9526
C26 C 0.7258(3) 0.2613(2) 0.9672(2)
N15 N 0.6724(2) 0.22641(16) 0.99072(16)
C28 C 0.7270(3) 0.2320(2) 0.9095(2)
C44 C 0.5403(3) 0.3017(2) 0.98230(19)
C45 C 0.6152(3) 0.1637(2) 0.9583(2)
C46 C 0.5586(3) 0.1369(2) 0.99120(19)
H16 H 0.7659 0.2563 0.8931
C48 C 0.6710(3) 0.1674(2) 0.8768(2)
C63 C 0.4870(3) 0.3376(2) 0.97132(18)
H22 H 0.5421 0.2727 0.9480
C64 C 0.6139(3) 0.1326(2) 0.9011(2)
C65 C 0.4896(3) 0.0765(2) 0.9654(2)
H24 H 0.6711 0.1465 0.8376
O7 O 0.4328(2) 0.33552(15) 0.91292(13)
H35 H 0.5746 0.0880 0.8786
H36 H 0.4768 0.0478 0.9253
C83 C 0.4248(3) 0.4114(2) 0.9872(2)
C84 C 0.3961(3) 0.3819(2) 0.9250(2)
C85 C 0.3620(3) 0.0043(2) 0.9927(2)
C91 C 0.3304(3) 0.38536(19) 0.86823(19)
C101 C 0.2897(3) 0.3335(2) 0.8127(2)
C102 C 0.3086(3) 0.4415(2) 0.8692(2)
H53 H 0.3041 0.2949 0.8102
C113 C 0.2276(3) 0.3388(2) 0.7608(2)
C114 C 0.2470(3) 0.4424(2) 0.8153(2)
H54 H 0.3359 0.4783 0.9065
H65 H 0.1988 0.3024 0.7231
H66 H 0.2324 0.4809 0.8164
C92 C 0.2833(3) 0.9827(2) 0.0690(2)
C103 C 0.3033(3) 0.9940(2) 0.1336(2)
C104 C 0.2015(3) 0.9357(2) 0.0267(2)
C115 C 0.2404(3) 0.9554(2) 0.1517(2)
C116 C 0.1444(3) 0.9011(2) 0.0503(2)
H67 H 0.2549 0.9621 0.1960
H68 H 0.0890 0.8689 0.0209
O5 O 0.8984(2) 0.03244(14) 0.59993(15)
C79 C 0.9176(3) 0.0205(2) 0.5067(2)
C80 C 0.9289(3) 0.0642(2) 0.5601(2)
H41 H 0.9341 0.0307 0.4731
C89 C 0.9647(3) 0.1372(2) 0.5835(2)
C97 C 0.9619(3) 0.1702(2) 0.6372(2)
H49 H 0.9362 0.1462 0.6611
C109 C 0.9969(4) 0.2390(2) 0.6568(2)
H61 H 0.9944 0.2616 0.6945
C3 C 0.9633(4) 0.7289(2) 0.1643(2)
C7 C 0.9335(4) 0.6603(2) 0.1492(2)
H3 H 0.9496 0.7519 0.1956
C10 C 0.9542(3) 0.6260(2) 0.1036(2)
H7 H 0.8998 0.6369 0.1693
C12 C 0.9213(3) 0.5536(2) 0.0820(2)
O2 O 0.8864(2) 0.52090(14) 0.11901(15)
C14 C 0.9116(4) 0.5088(2) 0.0293(3)
C17 C 0.8517(3) 0.4546(2) 0.0869(2)
C18 C 0.8651(3) 0.4445(2) 0.0305(2)
C21 C 0.8046(3) 0.40448(19) 0.1038(2)
N6 N 0.7653(2) 0.34154(17) 0.06330(16)
H13 H 0.7993 0.4133 0.1436
C24 C 0.7772(3) 0.3301(2) 0.0079(2)
Fe2 Fe 0.67591(4) 0.26649(3) 0.07026(3)
N12 N 0.7610(2) 0.23471(15) 0.12385(15)
N13 N 0.6850(2) 0.30996(15) 0.15070(16)
N14 N 0.5896(2) 0.30890(16) 0.04262(15)
N16 N 0.5797(2) 0.18090(16) 0.04880(15)
C39 C 0.7923(3) 0.1906(2) 0.1032(2)
C40 C 0.7815(3) 0.25718(19) 0.18816(19)
C41 C 0.7411(3) 0.30358(19) 0.20319(19)
C42 C 0.6405(3) 0.3500(2) 0.15469(19)
C43 C 0.5856(3) 0.35048(19) 0.09155(19)
C47 C 0.5313(3) 0.1640(2) 0.08299(19)
H21 H 0.7800 0.1755 0.0592
C58 C 0.8429(3) 0.1675(2) 0.1466(2)
C59 C 0.8347(3) 0.23721(19) 0.23314(19)
C60 C 0.7539(3) 0.3384(2) 0.2638(2)
C61 C 0.6493(3) 0.3850(2) 0.2132(2)
C62 C 0.5345(3) 0.3887(2) 0.08175(19)
C66 C 0.4632(3) 0.1037(2) 0.0591(2)
H23 H 0.5442 0.1933 0.1228
O6 O 0.8761(2) 0.12100(15) 0.13270(14)
C71 C 0.8654(3) 0.1902(2) 0.2119(2)
H31 H 0.8497 0.2551 0.2772
H32 H 0.7935 0.3344 0.3010
C72 C 0.7070(4) 0.3790(3) 0.2679(2)
H33 H 0.6167 0.4125 0.2161
H34 H 0.5339 0.4179 0.1166
C73 C 0.4842(3) 0.3832(2) 0.01941(19)
C74 C 0.4383(3) 0.0589(2) 0.0008(2)
O8 O 0.4082(2) 0.07935(14) 0.08826(14)
C81 C 0.9198(3) 0.1127(2) 0.1911(2)
C82 C 0.9164(3) 0.1531(2) 0.2397(2)
H38 H 0.7141 0.4031 0.3085
C86 C 0.3468(3) 0.0186(2) 0.0466(2)
C90 C 0.9610(3) 0.0636(2) 0.1884(2)
H42 H 0.9424 0.1567 0.2835
H43 H 0.4087 0.4448 0.0063
C99 C 0.9746(4) 0.0391(2) 0.1352(2)
C100 C 0.9860(3) 0.0388(2) 0.2402(2)
H51 H 0.9600 0.0556 0.0995
H52 H 0.9800 0.0554 0.2783
H55 H 0.3575 0.0267 0.1642
H44 H 0.3287 0.9659 0.9570
H56 H 0.1853 0.9275 0.9822
H44_2 H 0.6713 0.0341 0.0430
H56_2 H 0.8147 0.0725 0.0178
C92_2 C 0.7167(3) 0.0173(2) 0.9310(2)
C103_2 C 0.6967(3) 0.0060(2) 0.8664(2)
C104_2 C 0.7985(3) 0.0643(2) 0.9733(2)
C115_2 C 0.7596(3) 0.0446(2) 0.8483(2)
C116_2 C 0.8556(3) 0.0989(2) 0.9497(2)
H67_2 H 0.7451 0.0379 0.8040
H68_2 H 0.9110 0.1311 0.9791
N22 N 0.8370(3) 0.08944(19) 0.88724(18)
Ag7 Ag 0.92832(2) 0.123449(15) 0.828212(16)
H10_2 H 0.0677 0.4810 0.0025
C22_2 C 0.1717(3) 0.6201(2) 0.0093(2)
H14_2 H 0.1623 0.6301 0.0474
C26_2 C 0.2742(3) 0.7387(2) 0.0328(2)
N15_2 N 0.3276(2) 0.77359(16) 0.00928(16)
C28_2 C 0.2730(3) 0.7680(2) 0.0905(2)
C44_2 C 0.4597(3) 0.6983(2) 0.01770(19)
C45_2 C 0.3848(3) 0.8363(2) 0.0417(2)
C46_2 C 0.4414(3) 0.8631(2) 0.00880(19)
H16_2 H 0.2341 0.7437 0.1069
C48_2 C 0.3290(3) 0.8326(2) 0.1232(2)
C63_2 C 0.5130(3) 0.6624(2) 0.02868(18)
H22_2 H 0.4579 0.7273 0.0520
C64_2 C 0.3861(3) 0.8674(2) 0.0989(2)
C65_2 C 0.5104(3) 0.9235(2) 0.0346(2)
H24_2 H 0.3289 0.8535 0.1624
O7_2 O 0.5672(2) 0.66448(15) 0.08708(13)
H35_2 H 0.4254 0.9120 0.1214
H36_2 H 0.5232 0.9522 0.0747
C83_2 C 0.5752(3) 0.5886(2) 0.0128(2)
C84_2 C 0.6039(3) 0.6181(2) 0.0750(2)
C85_2 C 0.6380(3) 0.9957(2) 0.0073(2)
C91_2 C 0.6696(3) 0.61464(19) 0.13177(19)
C101_2 C 0.7103(3) 0.6665(2) 0.1873(2)
C102_2 C 0.6914(3) 0.5585(2) 0.1308(2)
H53_2 H 0.6959 0.7051 0.1898
C113_2 C 0.7724(3) 0.6612(2) 0.2392(2)
C114_2 C 0.7530(3) 0.5576(2) 0.1847(2)
H54_2 H 0.6641 0.5217 0.0935
N20 N 0.7945(2) 0.60768(18) 0.23952(17)
H65_2 H 0.8012 0.6976 0.2769
H66_2 H 0.7676 0.5191 0.1836
Ag6 Ag 0.90176(2) 0.612551(15) 0.337485(17)
C111_2 C 0.9903(3) 0.0098(3) 0.8654(2)
C112_2 C 0.9806(3) 0.0104(2) 0.7654(2)
H63_2 H 0.9808 0.0259 0.9021
H64_2 H 0.9646 0.0275 0.7302
N21 N 0.9691(3) 0.03558(18) 0.81683(18)
N1_2 N 0.8081(2) 0.11554(18) 0.73479(17)
N2_2 N 0.9900(3) 0.23529(18) 0.86229(18)
C1_2 C 0.7712(3) 0.1611(2) 0.7398(2)
C2_2 C 0.7764(3) 0.0724(2) 0.6782(2)
C4_2 C 0.9714(3) 0.2686(2) 0.9066(3)
C5_2 C 0.7034(3) 0.1634(2) 0.6902(2)
H1_2 H 0.7931 0.1934 0.7798
H2_2 H 0.8010 0.0394 0.6738
C6_2 C 0.7106(3) 0.0713(2) 0.6252(2)
H4_2 H 0.9384 0.2439 0.9264
C8_2 C 0.9982(4) 0.3373(2) 0.9248(3)
C9_2 C 0.6721(3) 0.1182(2) 0.63116(19)
H5_2 H 0.6784 0.1958 0.6964
H6_2 H 0.6918 0.0395 0.5855
H8_2 H 0.9839 0.3589 0.9566
C11_2 C 0.6018(3) 0.1197(2) 0.5764(2)
O1_2 O 0.56265(19) 0.16316(15) 0.59028(13)
C13_2 C 0.5681(3) 0.0878(2) 0.5134(2)
C15_2 C 0.5010(3) 0.1578(2) 0.53274(19)
C16_2 C 0.5024(3) 0.1127(2) 0.4838(2)
H9_2 H 0.5846 0.0555 0.4931
C19_2 C 0.4450(3) 0.1916(2) 0.52384(19)
C20_2 C 0.4446(3) 0.1032(2) 0.42214(19)
N5_2 N 0.3894(2) 0.18189(16) 0.46487(15)
H11_2 H 0.4458 0.2214 0.5590
C23_2 C 0.3907(3) 0.13904(18) 0.41439(18)
H12_2 H 0.4424 0.0730 0.3867
Fe1_2 Fe 0.29867(4) 0.22115(3) 0.43966(2)
C25_2 C 0.3300(3) 0.13708(19) 0.35281(18)
N7_2 N 0.2088(2) 0.25110(16) 0.38844(16)
N8_2 N 0.2852(2) 0.17712(15) 0.35839(15)
N9_2 N 0.3920(2) 0.30808(16) 0.45755(16)
N10_2 N 0.3090(2) 0.26203(15) 0.52152(15)
N11_2 N 0.2139(2) 0.14540(15) 0.44957(15)
C27_2 C 0.3158(3) 0.1001(2) 0.29253(19)
C29_2 C 0.1800(3) 0.29589(19) 0.41138(19)
C30_2 C 0.1843(3) 0.22810(19) 0.32402(18)
C31_2 C 0.2253(3) 0.18190(19) 0.30630(19)
C32_2 C 0.4323(3) 0.3253(2) 0.41893(19)
C33_2 C 0.4193(3) 0.3504(2) 0.51703(19)
C34_2 C 0.3679(3) 0.32381(19) 0.55261(19)
C35_2 C 0.2590(3) 0.2268(2) 0.5478(2)
C36_2 C 0.2066(3) 0.15778(19) 0.50759(19)
C37_2 C 0.1766(3) 0.0833(2) 0.41139(19)
C38_2 C 0.2564(3) 0.1061(2) 0.2396(2)
H15_2 H 0.3466 0.0714 0.2881
H17_2 H 0.1949 0.3114 0.4557
C49_2 C 0.1282(3) 0.3190(2) 0.3690(2)
C50_2 C 0.1313(3) 0.2491(2) 0.2804(2)
C51_2 C 0.2096(3) 0.1467(2) 0.2458(2)
H18_2 H 0.4129 0.2970 0.3773
C52_2 C 0.5024(3) 0.3851(2) 0.4411(2)
C53_2 C 0.4897(3) 0.4104(2) 0.5410(2)
C54_2 C 0.3777(3) 0.3556(2) 0.6130(2)
C55_2 C 0.2645(3) 0.2550(2) 0.6076(2)
C56_2 C 0.1606(3) 0.1090(2) 0.5278(2)
C57_2 C 0.1333(3) 0.03313(19) 0.4309(2)
H19_2 H 0.1800 0.0738 0.3710
H20_2 H 0.2474 0.0822 0.1985
O3_2 O 0.0994(2) 0.36854(14) 0.38488(13)
C67_2 C 0.1022(3) 0.2970(2) 0.3037(2)
H25_2 H 0.1150 0.2317 0.2361
H26_2 H 0.1679 0.1502 0.2093
O4_2 O 0.5516(2) 0.40912(14) 0.40939(14)
C68_2 C 0.5342(3) 0.4284(2) 0.5018(2)
H27_2 H 0.5075 0.4385 0.5826
H28_2 H 0.4192 0.3997 0.6353
C69_2 C 0.3244(4) 0.3204(3) 0.6398(2)
H29_2 H 0.2289 0.2308 0.6262
H30_2 H 0.1542 0.1196 0.5670
C70_2 C 0.1241(3) 0.0440(2) 0.4888(2)
C75_2 C 0.0543(3) 0.3769(2) 0.3275(2)
C76_2 C 0.0543(3) 0.3358(2) 0.2777(2)
C77_2 C 0.6178(3) 0.4676(2) 0.4517(2)
C78_2 C 0.6095(3) 0.4816(2) 0.5076(2)
H37_2 H 0.3288 0.3412 0.6807
C87_2 C 0.0218(3) 0.4310(2) 0.3309(2)
H39_2 H 0.0279 0.3331 0.2341
C88_2 C 0.6802(3) 0.5038(2) 0.4282(2)
H40_2 H 0.6464 0.5193 0.5435
C93_2 C 0.0244(4) 0.4662(2) 0.3861(2)
C95_2 C 0.6603(3) 0.4960(2) 0.3644(2)
C96_2 C 0.7633(3) 0.5479(2) 0.4710(2)
H45_2 H 0.0479 0.4557 0.4245
H47_2 H 0.6046 0.4655 0.3336
C107_2 C 0.7231(3) 0.5336(2) 0.3458(2)
C108_2 C 0.8219(3) 0.5818(2) 0.4488(2)
H48_2 H 0.7793 0.5544 0.5154
N18 N 0.8025(3) 0.57455(18) 0.38691(19)
H59_2 H 0.7083 0.5296 0.3019
H60_2 H 0.8786 0.6117 0.4785
C94_2 C 0.9863(4) 0.4484(2) 0.2763(2)
C105_2 C 0.9929(4) 0.5168(3) 0.3866(2)
C106_2 C 0.9575(4) 0.5005(3) 0.2805(2)
H46_2 H 0.9818 0.4246 0.2365
N17 N 0.9597(3) 0.5345(2) 0.3344(2)
H57_2 H 0.9950 0.5403 0.4257
H58_2 H 0.9351 0.5127 0.2430
C98_2 C 0.9974(3) 0.8256(2) 0.4506(2)
C110_2 C 0.9639(3) 0.7573(2) 0.4276(2)
H50_2 H 0.9949 0.8470 0.4886
N19_2 N 0.9660(3) 0.72488(18) 0.37488(18)
H62_2 H 0.9379 0.7320 0.4506
C3_2 C 0.0367(4) 0.2711(2) 0.8357(2)
C7_2 C 0.0665(4) 0.3397(2) 0.8508(2)
H3_2 H 0.0504 0.2481 0.8044
C10_2 C 0.0458(3) 0.3740(2) 0.8964(2)
H7_2 H 0.1002 0.3631 0.8307
C12_2 C 0.0787(3) 0.4464(2) 0.9180(2)
O2_2 O 0.1136(2) 0.47910(14) 0.88099(15)
C14_2 C 0.0884(4) 0.4912(2) 0.9707(3)
C17_2 C 0.1483(3) 0.5454(2) 0.9131(2)
C18_2 C 0.1349(3) 0.5555(2) 0.9695(2)
C21_2 C 0.1954(3) 0.59552(19) 0.8962(2)
N6_2 N 0.2347(2) 0.65846(17) 0.93670(16)
H13_2 H 0.2007 0.5867 0.8564
C24_2 C 0.2228(3) 0.6699(2) 0.9921(2)
Fe2_2 Fe 0.32409(4) 0.73351(3) 0.92974(3)
N12_2 N 0.2390(2) 0.76529(15) 0.87615(15)
N13_2 N 0.3150(2) 0.69004(15) 0.84930(16)
N14_2 N 0.4104(2) 0.69110(16) 0.95738(15)
N16_2 N 0.4203(2) 0.81910(16) 0.95120(15)
C39_2 C 0.2077(3) 0.8094(2) 0.8968(2)
C40_2 C 0.2185(3) 0.74282(19) 0.81184(19)
C41_2 C 0.2589(3) 0.69642(19) 0.79681(19)
C42_2 C 0.3595(3) 0.6500(2) 0.84531(19)
C43_2 C 0.4144(3) 0.64952(19) 0.90845(19)
C47_2 C 0.4687(3) 0.8360(2) 0.91701(19)
H21_2 H 0.2200 0.8245 0.9408
C58_2 C 0.1571(3) 0.8325(2) 0.8534(2)
C59_2 C 0.1653(3) 0.76279(19) 0.76686(19)
C60_2 C 0.2461(3) 0.6616(2) 0.7362(2)
C61_2 C 0.3507(3) 0.6150(2) 0.7868(2)
C62_2 C 0.4655(3) 0.6113(2) 0.91825(19)
C66_2 C 0.5368(3) 0.8963(2) 0.9409(2)
H23_2 H 0.4558 0.8067 0.8772
O6_2 O 0.1239(2) 0.87900(15) 0.86730(14)
C71_2 C 0.1346(3) 0.8098(2) 0.7881(2)
H31_2 H 0.1503 0.7449 0.7228
H32_2 H 0.2065 0.6656 0.6990
C72_2 C 0.2930(4) 0.6210(3) 0.7321(2)
H33_2 H 0.3833 0.5875 0.7839
H34_2 H 0.4661 0.5821 0.8834
C73_2 C 0.5158(3) 0.6168(2) 0.98059(19)
C74_2 C 0.5617(3) 0.9411(2) 0.9992(2)
O8_2 O 0.5918(2) 0.92065(14) 0.91174(14)
C81_2 C 0.0802(3) 0.8873(2) 0.8089(2)
C82_2 C 0.0836(3) 0.8469(2) 0.7603(2)
H38_2 H 0.2859 0.5969 0.6915
C86_2 C 0.6532(3) 0.9814(2) 0.9534(2)
C90_2 C 0.0390(3) 0.9364(2) 0.8116(2)
H42_2 H 0.0576 0.8433 0.7165
H43_2 H 0.5913 0.5552 0.9937
C99_2 C 0.0254(4) 0.9609(2) 0.8648(2)
C100_2 C 0.0140(3) 0.9612(2) 0.7598(2)
H51_2 H 0.0400 0.9444 0.9005
H52_2 H 0.0200 0.9446 0.7217
H55_2 H 0.6425 0.9733 0.8358
O5_2 O 0.1016(2) 0.96756(14) 0.40007(15)
C79_2 C 0.0824(3) 0.9795(2) 0.4933(2)
C80_2 C 0.0711(3) 0.9358(2) 0.4399(2)
H41_2 H 0.0659 0.9693 0.5269
C89_2 C 0.0353(3) 0.8628(2) 0.4165(2)
C97_2 C 0.0381(3) 0.8298(2) 0.3628(2)
H49_2 H 0.0638 0.8538 0.3389
C109_2 C 0.0031(4) 0.7610(2) 0.3432(2)
H61_2 H 0.0056 0.7384 0.3055
loop_
_geom_bond_atom_site_label_1
_geom_bond_atom_site_label_2
_geom_bond_site_symmetry_1
_geom_bond_site_symmetry_2
P1 F1 1_555 1_555
F3 P1 1_555 1_555
F4 P1 1_555 1_555
F5 P1 1_555 1_555
P1_2 F1_2 1_555 1_555
F3_2 P1_2 1_555 1_555
F4_2 P1_2 1_555 1_555
F5_2 P1_2 1_555 1_555
P2 F7 1_555 1_555
F8 P2 1_555 1_555
F9 P2 1_555 1_555
F10 P2 1_555 1_555
F11 P2 1_555 1_555
F12 P2 1_555 1_555
P2_2 F7_2 1_555 1_555
F8_2 P2_2 1_555 1_555
F9_2 P2_2 1_555 1_555
F10_2 P2_2 1_555 1_555
F11_2 P2_2 1_555 1_555
F12_2 P2_2 1_555 1_555
P3 F13 1_555 1_555
F14 P3 1_555 1_555
F15 P3 1_555 1_555
F16 P3 1_555 1_555
F17 P3 1_555 1_555
F18 P3 1_555 1_555
P3_2 F13_2 1_555 1_555
F14_2 P3_2 1_555 1_555
F15_2 P3_2 1_555 1_555
F16_2 P3_2 1_555 1_555
F17_2 P3_2 1_555 1_555
F18_2 P3_2 1_555 1_555
P4 F19 1_555 1_555
F20 P4 1_555 1_555
F21 P4 1_555 1_555
F22 P4 1_555 1_555
F23 P4 1_555 1_555
F24 P4 1_555 1_555
P4_2 F19_2 1_555 1_555
F20_2 P4_2 1_555 1_555
F21_2 P4_2 1_555 1_555
F22_2 P4_2 1_555 1_555
F23_2 P4_2 1_555 1_555
F24_2 P4_2 1_555 1_555
P5 F25 1_555 1_555
F26 P5 1_555 1_555
F27 P5 1_555 1_555
F28 P5 1_555 1_555
F29 P5 1_555 1_555
F30 P5 1_555 1_555
P5_2 F25_2 1_555 1_555
F26_2 P5_2 1_555 1_555
F27_2 P5_2 1_555 1_555
F28_2 P5_2 1_555 1_555
F29_2 P5_2 1_555 1_555
F30_2 P5_2 1_555 1_555
P6 F31 1_555 1_555
F32 P6 1_555 1_555
F34 P6 1_555 1_555
F36 P6 1_555 1_555
P6_2 F31_2 1_555 1_555
F32_2 P6_2 1_555 1_555
F34_2 P6_2 1_555 1_555
F36_2 P6_2 1_555 1_555
C110 C98 1_555 1_555
H50 C98 1_555 1_555
H62 C110 1_555 1_555
Ag4 N19 1_555 1_555
N23 Ag4 1_555 1_555
N24 Ag4 1_555 1_555
N25 Ag4 1_555 1_555
C110 N19 1_555 1_555
C106 C94 1_555 1_555
H46 C94 1_555 1_555
N25 C105 1_555 1_555
H57 C105 1_555 1_555
H58 C106 1_555 1_555
C106 N25 1_555 1_555
Ag1 N1 1_555 1_555
N1 C1 1_555 1_555
N2 Ag1 1_555 1_555
N3 Ag1 1_555 1_555
N4 Ag1 1_555 1_555
C1 C5 1_555 1_555
C2 N1 1_555 1_555
C4 N2 1_555 1_555
C5 C9 1_555 1_555
H1 C1 1_555 1_555
H2 C2 1_555 1_555
C6 C2 1_555 1_555
H4 C4 1_555 1_555
C8 C4 1_555 1_555
C9 C6 1_555 1_555
H5 C5 1_555 1_555
H6 C6 1_555 1_555
H8 C8 1_555 1_555
C11 C9 1_555 1_555
O1 C11 1_555 1_555
C13 C11 1_555 1_555
C15 O1 1_555 1_555
C16 C13 1_555 1_555
H9 C13 1_555 1_555
C19 C15 1_555 1_555
C20 C16 1_555 1_555
N5 C19 1_555 1_555
H11 C19 1_555 1_555
C23 C20 1_555 1_555
H12 C20 1_555 1_555
Fe1 N5 1_555 1_555
C25 C23 1_555 1_555
N7 Fe1 1_555 1_555
N8 Fe1 1_555 1_555
N9 Fe1 1_555 1_555
N10 Fe1 1_555 1_555
N11 Fe1 1_555 1_555
C27 C25 1_555 1_555
C29 N7 1_555 1_555
C30 N7 1_555 1_555
C31 N8 1_555 1_555
C32 N9 1_555 1_555
C33 N9 1_555 1_555
C34 N10 1_555 1_555
C35 N10 1_555 1_555
C36 N11 1_555 1_555
C37 N11 1_555 1_555
C38 C27 1_555 1_555
H15 C27 1_555 1_555
H17 C29 1_555 1_555
C49 C29 1_555 1_555
C50 C30 1_555 1_555
C51 C31 1_555 1_555
H18 C32 1_555 1_555
C52 C32 1_555 1_555
C53 C33 1_555 1_555
C54 C34 1_555 1_555
C55 C35 1_555 1_555
C56 C36 1_555 1_555
C57 C37 1_555 1_555
H19 C37 1_555 1_555
H20 C38 1_555 1_555
O3 C49 1_555 1_555
C67 C49 1_555 1_555
H25 C50 1_555 1_555
H26 C51 1_555 1_555
O4 C52 1_555 1_555
C68 C52 1_555 1_555
H27 C53 1_555 1_555
H28 C54 1_555 1_555
C69 C54 1_555 1_555
H29 C55 1_555 1_555
H30 C56 1_555 1_555
C70 C56 1_555 1_555
C75 O3 1_555 1_555
C76 C67 1_555 1_555
C77 O4 1_555 1_555
C78 C68 1_555 1_555
H37 C69 1_555 1_555
C87 C75 1_555 1_555
H39 C76 1_555 1_555
C88 C77 1_555 1_555
H40 C78 1_555 1_555
C93 C87 1_555 1_555
C95 C88 1_555 1_555
C96 C88 1_555 1_555
H45 C93 1_555 1_555
H47 C95 1_555 1_555
C107 C95 1_555 1_555
C108 C96 1_555 1_555
H48 C96 1_555 1_555
N24 C107 1_555 1_555
H59 C107 1_555 1_555
H60 C108 1_555 1_555
C15 C16 1_555 1_555
N5 C23 1_555 1_555
C25 N8 1_555 1_555
C30 C31 1_555 1_555
C33 C34 1_555 1_555
C35 C36 1_555 1_555
C38 C51 1_555 1_555
C50 C67 1_555 1_555
C53 C68 1_555 1_555
C55 C69 1_555 1_555
C57 C70 1_555 1_555
C75 C76 1_555 1_555
C77 C78 1_555 1_555
C108 N24 1_555 1_555
H63 C111 1_555 1_555
H64 C112 1_555 1_555
N3 C111 1_555 1_555
C112 N3 1_555 1_555
H14 C22 1_555 1_555
C28 C26 1_555 1_555
C45 N15 1_555 1_555
H16 C28 1_555 1_555
C48 C28 1_555 1_555
C63 C44 1_555 1_555
H22 C44 1_555 1_555
C64 C45 1_555 1_555
C65 C46 1_555 1_555
H24 C48 1_555 1_555
O7 C63 1_555 1_555
H35 C64 1_555 1_555
H36 C65 1_555 1_555
C84 O7 1_555 1_555
C91 C84 1_555 1_555
C101 C91 1_555 1_555
C102 C91 1_555 1_555
H53 C101 1_555 1_555
C113 C101 1_555 1_555
C114 C102 1_555 1_555
H54 C102 1_555 1_555
N23 C113 1_555 1_555
H65 C113 1_555 1_555
H66 C114 1_555 1_555
C26 N15 1_555 1_555
C45 C46 1_555 1_555
C48 C64 1_555 1_555
C83 C84 1_555 1_555
C114 N23 1_555 1_555
C103 C92 1_555 1_555
C104 C92 1_555 1_555
C115 C103 1_555 1_555
C116 C104 1_555 1_555
H67 C115 1_555 1_555
H68 C116 1_555 1_555
N4 C115 1_555 1_555
C116 N4 1_555 1_555
C80 O5 1_555 1_555
H41 C79 1_555 1_555
C89 C80 1_555 1_555
C97 C89 1_555 1_555
H49 C97 1_555 1_555
C109 C97 1_555 1_555
H61 C109 1_555 1_555
C79 C80 1_555 1_555
C7 C3 1_555 1_555
H3 C3 1_555 1_555
C10 C7 1_555 1_555
H7 C7 1_555 1_555
C12 C10 1_555 1_555
O2 C12 1_555 1_555
C14 C12 1_555 1_555
C17 O2 1_555 1_555
C18 C14 1_555 1_555
C21 C17 1_555 1_555
N6 C21 1_555 1_555
H13 C21 1_555 1_555
Fe2 N6 1_555 1_555
N12 Fe2 1_555 1_555
N13 Fe2 1_555 1_555
N14 Fe2 1_555 1_555
N16 Fe2 1_555 1_555
C39 N12 1_555 1_555
C40 N12 1_555 1_555
C41 N13 1_555 1_555
C42 N13 1_555 1_555
C43 N14 1_555 1_555
C47 N16 1_555 1_555
H21 C39 1_555 1_555
C58 C39 1_555 1_555
C59 C40 1_555 1_555
C60 C41 1_555 1_555
C61 C42 1_555 1_555
C62 C43 1_555 1_555
C66 C47 1_555 1_555
H23 C47 1_555 1_555
O6 C58 1_555 1_555
C71 C58 1_555 1_555
H31 C59 1_555 1_555
H32 C60 1_555 1_555
C72 C60 1_555 1_555
H33 C61 1_555 1_555
H34 C62 1_555 1_555
C73 C62 1_555 1_555
O8 C66 1_555 1_555
C81 O6 1_555 1_555
C82 C71 1_555 1_555
H38 C72 1_555 1_555
C86 O8 1_555 1_555
C90 C81 1_555 1_555
H42 C82 1_555 1_555
C99 C90 1_555 1_555
C100 C90 1_555 1_555
H51 C99 1_555 1_555
H52 C100 1_555 1_555
C17 C18 1_555 1_555
N6 C24 1_555 1_555
C40 C41 1_555 1_555
C42 C43 1_555 1_555
C59 C71 1_555 1_555
C61 C72 1_555 1_555
C66 C74 1_555 1_555
C81 C82 1_555 1_555
C103_2 C92_2 1_555 1_555
C104_2 C92_2 1_555 1_555
C115_2 C103_2 1_555 1_555
C116_2 C104_2 1_555 1_555
H67_2 C115_2 1_555 1_555
H68_2 C116_2 1_555 1_555
N22 C115_2 1_555 1_555
Ag7 N22 1_555 1_555
C116_2 N22 1_555 1_555
H14_2 C22_2 1_555 1_555
C28_2 C26_2 1_555 1_555
C45_2 N15_2 1_555 1_555
H16_2 C28_2 1_555 1_555
C48_2 C28_2 1_555 1_555
C63_2 C44_2 1_555 1_555
H22_2 C44_2 1_555 1_555
C64_2 C45_2 1_555 1_555
C65_2 C46_2 1_555 1_555
H24_2 C48_2 1_555 1_555
O7_2 C63_2 1_555 1_555
H35_2 C64_2 1_555 1_555
H36_2 C65_2 1_555 1_555
C84_2 O7_2 1_555 1_555
C91_2 C84_2 1_555 1_555
C101_2 C91_2 1_555 1_555
C102_2 C91_2 1_555 1_555
H53_2 C101_2 1_555 1_555
C113_2 C101_2 1_555 1_555
C114_2 C102_2 1_555 1_555
H54_2 C102_2 1_555 1_555
N20 C113_2 1_555 1_555
H65_2 C113_2 1_555 1_555
H66_2 C114_2 1_555 1_555
Ag6 N20 1_555 1_555
C26_2 N15_2 1_555 1_555
C45_2 C46_2 1_555 1_555
C48_2 C64_2 1_555 1_555
C83_2 C84_2 1_555 1_555
C114_2 N20 1_555 1_555
H63_2 C111_2 1_555 1_555
H64_2 C112_2 1_555 1_555
N21 C111_2 1_555 1_555
Ag7 N21 1_555 1_555
C112_2 N21 1_555 1_555
Ag7 N1_2 1_555 1_555
N1_2 C1_2 1_555 1_555
N2_2 Ag7 1_555 1_555
C1_2 C5_2 1_555 1_555
C2_2 N1_2 1_555 1_555
C4_2 N2_2 1_555 1_555
C5_2 C9_2 1_555 1_555
H1_2 C1_2 1_555 1_555
H2_2 C2_2 1_555 1_555
C6_2 C2_2 1_555 1_555
H4_2 C4_2 1_555 1_555
C8_2 C4_2 1_555 1_555
C9_2 C6_2 1_555 1_555
H5_2 C5_2 1_555 1_555
H6_2 C6_2 1_555 1_555
H8_2 C8_2 1_555 1_555
C11_2 C9_2 1_555 1_555
O1_2 C11_2 1_555 1_555
C13_2 C11_2 1_555 1_555
C15_2 O1_2 1_555 1_555
C16_2 C13_2 1_555 1_555
H9_2 C13_2 1_555 1_555
C19_2 C15_2 1_555 1_555
C20_2 C16_2 1_555 1_555
N5_2 C19_2 1_555 1_555
H11_2 C19_2 1_555 1_555
C23_2 C20_2 1_555 1_555
H12_2 C20_2 1_555 1_555
Fe1_2 N5_2 1_555 1_555
C25_2 C23_2 1_555 1_555
N7_2 Fe1_2 1_555 1_555
N8_2 Fe1_2 1_555 1_555
N9_2 Fe1_2 1_555 1_555
N10_2 Fe1_2 1_555 1_555
N11_2 Fe1_2 1_555 1_555
C27_2 C25_2 1_555 1_555
C29_2 N7_2 1_555 1_555
C30_2 N7_2 1_555 1_555
C31_2 N8_2 1_555 1_555
C32_2 N9_2 1_555 1_555
C33_2 N9_2 1_555 1_555
C34_2 N10_2 1_555 1_555
C35_2 N10_2 1_555 1_555
C36_2 N11_2 1_555 1_555
C37_2 N11_2 1_555 1_555
C38_2 C27_2 1_555 1_555
H15_2 C27_2 1_555 1_555
H17_2 C29_2 1_555 1_555
C49_2 C29_2 1_555 1_555
C50_2 C30_2 1_555 1_555
C51_2 C31_2 1_555 1_555
H18_2 C32_2 1_555 1_555
C52_2 C32_2 1_555 1_555
C53_2 C33_2 1_555 1_555
C54_2 C34_2 1_555 1_555
C55_2 C35_2 1_555 1_555
C56_2 C36_2 1_555 1_555
C57_2 C37_2 1_555 1_555
H19_2 C37_2 1_555 1_555
H20_2 C38_2 1_555 1_555
O3_2 C49_2 1_555 1_555
C67_2 C49_2 1_555 1_555
H25_2 C50_2 1_555 1_555
H26_2 C51_2 1_555 1_555
O4_2 C52_2 1_555 1_555
C68_2 C52_2 1_555 1_555
H27_2 C53_2 1_555 1_555
H28_2 C54_2 1_555 1_555
C69_2 C54_2 1_555 1_555
H29_2 C55_2 1_555 1_555
H30_2 C56_2 1_555 1_555
C70_2 C56_2 1_555 1_555
C75_2 O3_2 1_555 1_555
C76_2 C67_2 1_555 1_555
C77_2 O4_2 1_555 1_555
C78_2 C68_2 1_555 1_555
H37_2 C69_2 1_555 1_555
C87_2 C75_2 1_555 1_555
H39_2 C76_2 1_555 1_555
C88_2 C77_2 1_555 1_555
H40_2 C78_2 1_555 1_555
C93_2 C87_2 1_555 1_555
C95_2 C88_2 1_555 1_555
C96_2 C88_2 1_555 1_555
H45_2 C93_2 1_555 1_555
H47_2 C95_2 1_555 1_555
C107_2 C95_2 1_555 1_555
C108_2 C96_2 1_555 1_555
H48_2 C96_2 1_555 1_555
N18 C107_2 1_555 1_555
H59_2 C107_2 1_555 1_555
H60_2 C108_2 1_555 1_555
Ag6 N18 1_555 1_555
C15_2 C16_2 1_555 1_555
N5_2 C23_2 1_555 1_555
C25_2 N8_2 1_555 1_555
C30_2 C31_2 1_555 1_555
C33_2 C34_2 1_555 1_555
C35_2 C36_2 1_555 1_555
C38_2 C51_2 1_555 1_555
C50_2 C67_2 1_555 1_555
C53_2 C68_2 1_555 1_555
C55_2 C69_2 1_555 1_555
C57_2 C70_2 1_555 1_555
C75_2 C76_2 1_555 1_555
C77_2 C78_2 1_555 1_555
C108_2 N18 1_555 1_555
C106_2 C94_2 1_555 1_555
H46_2 C94_2 1_555 1_555
N17 C105_2 1_555 1_555
H57_2 C105_2 1_555 1_555
H58_2 C106_2 1_555 1_555
Ag6 N17 1_555 1_555
C106_2 N17 1_555 1_555
C110_2 C98_2 1_555 1_555
H50_2 C98_2 1_555 1_555
H62_2 C110_2 1_555 1_555
Ag6 N19_2 1_555 1_555
C110_2 N19_2 1_555 1_555
C7_2 C3_2 1_555 1_555
H3_2 C3_2 1_555 1_555
C10_2 C7_2 1_555 1_555
H7_2 C7_2 1_555 1_555
C12_2 C10_2 1_555 1_555
O2_2 C12_2 1_555 1_555
C14_2 C12_2 1_555 1_555
C17_2 O2_2 1_555 1_555
C18_2 C14_2 1_555 1_555
C21_2 C17_2 1_555 1_555
N6_2 C21_2 1_555 1_555
H13_2 C21_2 1_555 1_555
Fe2_2 N6_2 1_555 1_555
N12_2 Fe2_2 1_555 1_555
N13_2 Fe2_2 1_555 1_555
N14_2 Fe2_2 1_555 1_555
N16_2 Fe2_2 1_555 1_555
C39_2 N12_2 1_555 1_555
C40_2 N12_2 1_555 1_555
C41_2 N13_2 1_555 1_555
C42_2 N13_2 1_555 1_555
C43_2 N14_2 1_555 1_555
C47_2 N16_2 1_555 1_555
H21_2 C39_2 1_555 1_555
C58_2 C39_2 1_555 1_555
C59_2 C40_2 1_555 1_555
C60_2 C41_2 1_555 1_555
C61_2 C42_2 1_555 1_555
C62_2 C43_2 1_555 1_555
C66_2 C47_2 1_555 1_555
H23_2 C47_2 1_555 1_555
O6_2 C58_2 1_555 1_555
C71_2 C58_2 1_555 1_555
H31_2 C59_2 1_555 1_555
H32_2 C60_2 1_555 1_555
C72_2 C60_2 1_555 1_555
H33_2 C61_2 1_555 1_555
H34_2 C62_2 1_555 1_555
C73_2 C62_2 1_555 1_555
O8_2 C66_2 1_555 1_555
C81_2 O6_2 1_555 1_555
C82_2 C71_2 1_555 1_555
H38_2 C72_2 1_555 1_555
C86_2 O8_2 1_555 1_555
C90_2 C81_2 1_555 1_555
H42_2 C82_2 1_555 1_555
C99_2 C90_2 1_555 1_555
C100_2 C90_2 1_555 1_555
H51_2 C99_2 1_555 1_555
H52_2 C100_2 1_555 1_555
C17_2 C18_2 1_555 1_555
N6_2 C24_2 1_555 1_555
C40_2 C41_2 1_555 1_555
C42_2 C43_2 1_555 1_555
C59_2 C71_2 1_555 1_555
C61_2 C72_2 1_555 1_555
C66_2 C74_2 1_555 1_555
C81_2 C82_2 1_555 1_555
C80_2 O5_2 1_555 1_555
H41_2 C79_2 1_555 1_555
C89_2 C80_2 1_555 1_555
C97_2 C89_2 1_555 1_555
H49_2 C97_2 1_555 1_555
C109_2 C97_2 1_555 1_555
H61_2 C109_2 1_555 1_555
C79_2 C80_2 1_555 1_555

#END
