
###############################################################################
#
# This file contains modified crystal structure data generated from the
# MOF subset of the Cambridge Structural Database (CSD) v543 
# hosted by the Cambridge Crystallographic Data Centre (CCDC).
#
# This work is licensed under the Creative Commons
# Attribution-NonCommercial-ShareAlike 4.0 International License.
# To view a copy of this license, visit
# http://creativecommons.org/licenses/by-nc-sa/4.0/
# or send a letter to
# Creative Commons, PO Box 1866, Mountain View, CA 94042, USA.
#
# CIF created using the CSD Python API on 29 September 2022
# The structure has been converted into the P1 space group
# The structure has a 3D framework
# The original CSD entry PAHXUV is in the cubic crystal system
# The framework has been calculated to contain at least 10.0% void space
# The void calculation uses a probe of radius 1.32A, grid spacing 0.4
# H atom positions have been added when not included in the experimental data
#
###############################################################################

data_PAHXUV
_chemical_formula_moiety         '(C960 H576 N48 Ni48 O240)n'
_symmetry_cell_setting           triclinic
_symmetry_space_group_name_H-M   'P 1'
_symmetry_Int_Tables_number      1
_space_group_name_Hall           'P 1'
loop_
_symmetry_equiv_pos_site_id
_symmetry_equiv_pos_as_xyz
1 x,y,z
_cell_length_a                   45.920(5)
_cell_length_b                   45.920(5)
_cell_length_c                   45.920(5)
_cell_angle_alpha                90
_cell_angle_beta                 90
_cell_angle_gamma                90
_cell_volume                     96829
loop_
_atom_site_label
_atom_site_type_symbol
_atom_site_fract_x
_atom_site_fract_y
_atom_site_fract_z
O3 O 0.1460(2) 0.0158(2) 0.4307(3)
O4 O 0.1967(3) 0.0249(3) 0.4225(3)
C8 C 0.1651(3) 0.0104(3) 0.3823(2)
C9 C 0.1380(3) 0.0038(3) 0.3704(3)
H4 H 0.121167 0.003758 0.382499
C12 C 0.1872(3) 0.0040(3) 0.3352(3)
H5 H 0.203986 0.004059 0.323104
C13 C 0.1897(2) 0.0105(3) 0.3646(3)
H6 H 0.208158 0.015013 0.372696
C27 C 0.1694(4) 0.0195(4) 0.4146(4)
H13 H 0.222144 0.007306 0.183295
H14 H 0.259612 0.003705 0.148945
C39 C 0.1945(5) 0.0010(4) 0.2311(4)
H19 H 0.196603 0.015981 0.216902
C40 C 0.1726(5) 0.0030(4) 0.2520(5)
H20 H 0.159900 0.019313 0.252095
Ni3 Ni 0.14853(5) 0.02069(5) 0.47313(5)
Ni6 Ni 0.20524(5) 0.02944(6) 0.46310(7)
O13 O 0.3419(3) 0.0198(3) 0.9770(2)
O14 O 0.2914(2) 0.0137(2) 0.9647(2)
O1 O 0.3429(3) 0.9732(2) 0.0132(3)
O2 O 0.2925(3) 0.9699(3) 0.0078(5)
O5 O 0.0198(3) 0.9770(2) 0.3419(3)
O6 O 0.0137(2) 0.9647(2) 0.2914(2)
O7 O 0.4366(2) 0.9648(3) 0.1449(3)
O8 O 0.4284(3) 0.9614(3) 0.1948(3)
N1 N 0.1498(4) 0.9903(4) 0.2978(4)
N2 N 0.2998(4) 0.9591(4) 0.1444(4)
C1 C 0.0286(4) 0.9736(5) 0.3138(4)
C2 C 0.0607(2) 0.9750(3) 0.3078(4)
C3 C 0.0797(4) 0.9848(3) 0.3292(2)
H1 H 0.072602 0.988690 0.348277
C4 C 0.1090(3) 0.9888(3) 0.3229(3)
C5 C 0.1194(2) 0.9831(3) 0.2950(4)
C6 C 0.1004(4) 0.9733(3) 0.2735(2)
H2 H 0.107503 0.969330 0.254500
C7 C 0.0711(3) 0.9692(3) 0.2799(3)
H3 H 0.058155 0.962518 0.265231
C10 C 0.1355(3) 0.9973(3) 0.3410(3)
C11 C 0.1601(4) 0.9974(3) 0.3233(2)
C14 C 0.3870(2) 0.9633(3) 0.1617(4)
C15 C 0.3746(3) 0.9646(3) 0.1341(3)
H7 H 0.386748 0.966762 0.117480
C16 C 0.3446(4) 0.9627(3) 0.1309(3)
C17 C 0.3269(2) 0.9596(3) 0.1552(4)
C18 C 0.3392(3) 0.9583(3) 0.1828(3)
H8 H 0.327137 0.956111 0.199456
C19 C 0.3693(3) 0.9601(3) 0.1861(3)
H9 H 0.377699 0.959264 0.204957
C20 C 0.3165(5) 0.9712(4) 0.0220(4)
C21 C 0.3093(3) 0.9673(3) 0.0546(2)
C22 C 0.2807(3) 0.9654(3) 0.0642(3)
H10 H 0.265138 0.965864 0.050611
C23 C 0.2748(2) 0.9630(3) 0.0938(4)
H11 H 0.255234 0.961711 0.100424
C24 C 0.2976(3) 0.9623(3) 0.1138(2)
C25 C 0.3262(3) 0.9641(3) 0.1042(3)
C26 C 0.3321(2) 0.9666(3) 0.0746(3)
H12 H 0.351651 0.967864 0.067979
C28 C 0.4204(4) 0.9633(6) 0.1684(4)
C29 C 0.2300(4) 0.9684(6) 0.2031(4)
C30 C 0.2344(4) 0.9906(4) 0.1831(6)
C31 C 0.2566(5) 0.9885(5) 0.1626(5)
C32 C 0.2746(4) 0.9641(6) 0.1623(4)
C33 C 0.2702(4) 0.9418(4) 0.1823(6)
H15 H 0.282455 0.925160 0.182097
C34 C 0.2480(5) 0.9440(5) 0.2027(5)
H16 H 0.244988 0.928761 0.216447
C35 C 0.1695(4) 0.9812(5) 0.2727(4)
C36 C 0.1882(5) 0.9573(4) 0.2725(4)
H17 H 0.186005 0.942385 0.286603
C37 C 0.2100(5) 0.9553(4) 0.2515(5)
H18 H 0.222708 0.939053 0.251411
C38 C 0.2131(4) 0.9772(5) 0.2308(4)
Ni5 Ni 0.47931(5) 0.97313(5) 0.14853(5)
Ni8 Ni 0.47056(6) 0.96310(7) 0.20524(5)
Ni1 Ni 0.35147(5) 0.97931(5) 0.97313(5)
Ni2 Ni 0.29476(5) 0.97056(6) 0.96310(7)
O9 O 0.2519(2) 0.9625(4) 0.9567(3)
O10 O 0.3933(3) 0.9865(3) 0.9795(3)
O11 O 0.3540(2) 0.9842(2) 0.9307(3)
O12 O 0.3033(3) 0.9751(3) 0.9225(3)
O15 O 0.3551(3) 0.9366(2) 0.9648(3)
O16 O 0.3052(3) 0.9284(3) 0.9614(3)
H21 H 0.402293 0.969096 0.988656
H22 H 0.402907 0.990441 0.960532
H23 H 0.24017 0.978206 0.96583
H24 H 0.247781 0.961833 0.935482
Ni4 Ni 0.97931(5) 0.97313(5) 0.35147(5)
Ni7 Ni 0.97056(6) 0.96310(7) 0.29476(5)
O1_2 O 0.1571(3) 0.0268(2) 0.5132(3)
O2_2 O 0.2075(3) 0.0301(3) 0.5078(5)
O5_2 O 0.4802(3) 0.0230(2) 0.8419(3)
O6_2 O 0.4863(2) 0.0353(2) 0.7914(2)
O7_2 O 0.0634(2) 0.0352(3) 0.6449(3)
O8_2 O 0.0716(3) 0.0386(3) 0.6948(3)
O9_2 O 0.2481(2) 0.0375(4) 0.4567(3)
O10_2 O 0.1067(3) 0.0135(3) 0.4795(3)
N1_2 N 0.3502(4) 0.0097(4) 0.7978(4)
N2_2 N 0.2002(4) 0.0409(4) 0.6444(4)
C1_2 C 0.4714(4) 0.0264(5) 0.8138(4)
C2_2 C 0.4393(2) 0.0250(3) 0.8078(4)
C3_2 C 0.4203(4) 0.0152(3) 0.8292(2)
H1_2 H 0.427398 0.011310 0.848277
C4_2 C 0.3910(3) 0.0112(3) 0.8229(3)
C5_2 C 0.3806(2) 0.0169(3) 0.7950(4)
C6_2 C 0.3996(4) 0.0267(3) 0.7735(2)
H2_2 H 0.392497 0.030670 0.754500
C7_2 C 0.4289(3) 0.0308(3) 0.7799(3)
H3_2 H 0.441845 0.037482 0.765231
C10_2 C 0.3645(3) 0.0027(3) 0.8410(3)
C11_2 C 0.3399(4) 0.0026(3) 0.8233(2)
C14_2 C 0.1130(2) 0.0367(3) 0.6617(4)
C15_2 C 0.1254(3) 0.0354(3) 0.6341(3)
H7_2 H 0.113252 0.033238 0.617480
C16_2 C 0.1554(4) 0.0373(3) 0.6309(3)
C17_2 C 0.1731(2) 0.0404(3) 0.6552(4)
C18_2 C 0.1608(3) 0.0417(3) 0.6828(3)
H8_2 H 0.172863 0.043889 0.699456
C19_2 C 0.1307(3) 0.0399(3) 0.6861(3)
H9_2 H 0.122301 0.040736 0.704957
C20_2 C 0.1835(5) 0.0288(4) 0.5220(4)
C21_2 C 0.1907(3) 0.0327(3) 0.5546(2)
C22_2 C 0.2193(3) 0.0346(3) 0.5642(3)
H10_2 H 0.234862 0.034136 0.550611
C23_2 C 0.2252(2) 0.0370(3) 0.5938(4)
H11_2 H 0.244766 0.038289 0.600424
C24_2 C 0.2024(3) 0.0377(3) 0.6138(2)
C25_2 C 0.1738(3) 0.0359(3) 0.6042(3)
C26_2 C 0.1679(2) 0.0334(3) 0.5746(3)
H12_2 H 0.148349 0.032136 0.567979
C28_2 C 0.0796(4) 0.0367(6) 0.6684(4)
C29_2 C 0.2700(4) 0.0316(6) 0.7031(4)
C30_2 C 0.2656(4) 0.0094(4) 0.6831(6)
C31_2 C 0.2434(5) 0.0115(5) 0.6626(5)
C32_2 C 0.2254(4) 0.0359(6) 0.6623(4)
C33_2 C 0.2298(4) 0.0582(4) 0.6823(6)
H15_2 H 0.217545 0.074840 0.682097
C34_2 C 0.2520(5) 0.0560(5) 0.7027(5)
H16_2 H 0.255012 0.071239 0.716447
C35_2 C 0.3305(4) 0.0188(5) 0.7727(4)
C36_2 C 0.3118(5) 0.0427(4) 0.7725(4)
H17_2 H 0.313995 0.057615 0.786603
C37_2 C 0.2900(5) 0.0447(4) 0.7515(5)
H18_2 H 0.277292 0.060947 0.751411
C38_2 C 0.2869(4) 0.0228(5) 0.7308(4)
Ni4_2 Ni 0.52069(5) 0.02687(5) 0.85147(5)
Ni5_2 Ni 0.02069(5) 0.02687(5) 0.64853(5)
Ni7_2 Ni 0.52944(6) 0.03690(7) 0.79476(5)
Ni8_2 Ni 0.02944(6) 0.03690(7) 0.70524(5)
O15_2 O 0.1449(3) 0.0634(2) 0.4648(3)
O16_2 O 0.1948(3) 0.0716(3) 0.4614(3)
H21_2 H 0.097707 0.0309043 0.488656
H22_2 H 0.0970931 0.00955895 0.460532
H23_2 H 0.25983 0.021794 0.46583
H24_2 H 0.252219 0.0381671 0.435482
C8_2 C 0.3349(3) 0.9896(3) 0.8823(2)
C9_2 C 0.3620(3) 0.9962(3) 0.8704(3)
H4_2 H 0.378833 0.996242 0.882499
C12_2 C 0.3128(3) 0.9960(3) 0.8352(3)
H5_2 H 0.296014 0.995941 0.823104
C13_2 C 0.3103(2) 0.9895(3) 0.8646(3)
H6_2 H 0.291842 0.984987 0.872696
C27_2 C 0.3306(4) 0.9805(4) 0.9146(4)
H13_2 H 0.277856 0.992694 0.683295
H14_2 H 0.240388 0.996295 0.648945
C39_2 C 0.3055(5) 0.9990(4) 0.7311(4)
H19_2 H 0.303397 0.984019 0.716902
C40_2 C 0.3274(5) 0.9970(4) 0.7520(5)
H20_2 H 0.340100 0.980687 0.752095
O13_2 O 0.1581(3) 0.9802(3) 0.4770(2)
O14_2 O 0.2086(2) 0.9863(2) 0.4647(2)
Ni4_3 Ni 0.02069(5) 0.47313(5) 0.14853(5)
Ni7_3 Ni 0.02944(6) 0.46310(7) 0.20524(5)
Ni1_2 Ni 0.64853(5) 0.47931(5) 0.52687(5)
Ni2_2 Ni 0.70524(5) 0.47056(6) 0.53690(7)
O1_3 O 0.6571(3) 0.4732(2) 0.4868(3)
O2_3 O 0.7075(3) 0.4699(3) 0.4922(5)
O3_2 O 0.8540(2) 0.5158(2) 0.0693(3)
O4_2 O 0.8033(3) 0.5249(3) 0.0775(3)
O5_3 O 0.9802(3) 0.4770(2) 0.1581(3)
O6_3 O 0.9863(2) 0.4647(2) 0.2086(2)
O7_3 O 0.5634(2) 0.4648(3) 0.3551(3)
O8_3 O 0.5716(3) 0.4614(3) 0.3052(3)
O9_3 O 0.7481(2) 0.4625(4) 0.5433(3)
O10_3 O 0.6067(3) 0.4865(3) 0.5205(3)
N1_3 N 0.8502(4) 0.4903(4) 0.2022(4)
N2_3 N 0.7002(4) 0.4591(4) 0.3556(4)
C1_3 C 0.9714(4) 0.4736(5) 0.1862(4)
C2_3 C 0.9393(2) 0.4750(3) 0.1922(4)
C3_3 C 0.9203(4) 0.4848(3) 0.1708(2)
H1_3 H 0.927398 0.488690 0.151723
C4_3 C 0.8910(3) 0.4888(3) 0.1771(3)
C5_3 C 0.8806(2) 0.4831(3) 0.2050(4)
C6_3 C 0.8996(4) 0.4733(3) 0.2265(2)
H2_3 H 0.892497 0.469330 0.245500
C7_3 C 0.9289(3) 0.4692(3) 0.2201(3)
H3_3 H 0.941845 0.462518 0.234769
C8_3 C 0.8349(3) 0.5104(3) 0.1177(2)
C9_3 C 0.8620(3) 0.5038(3) 0.1296(3)
H4_3 H 0.878833 0.503758 0.117501
C10_3 C 0.8645(3) 0.4973(3) 0.1590(3)
C11_3 C 0.8399(4) 0.4974(3) 0.1767(2)
C12_3 C 0.8128(3) 0.5040(3) 0.1648(3)
H5_3 H 0.796014 0.504059 0.176896
C13_3 C 0.8103(2) 0.5105(3) 0.1354(3)
H6_3 H 0.791842 0.515013 0.127304
C14_3 C 0.6130(2) 0.4633(3) 0.3383(4)
C15_3 C 0.6254(3) 0.4646(3) 0.3659(3)
H7_3 H 0.613252 0.466762 0.382520
C16_3 C 0.6554(4) 0.4627(3) 0.3691(3)
C17_3 C 0.6731(2) 0.4596(3) 0.3448(4)
C18_3 C 0.6608(3) 0.4583(3) 0.3172(3)
H8_3 H 0.672863 0.456111 0.300544
C19_3 C 0.6307(3) 0.4601(3) 0.3139(3)
H9_3 H 0.622301 0.459264 0.295043
C20_3 C 0.6835(5) 0.4712(4) 0.4780(4)
C21_3 C 0.6907(3) 0.4673(3) 0.4454(2)
C22_3 C 0.7193(3) 0.4654(3) 0.4358(3)
H10_3 H 0.734862 0.465864 0.449389
C23_3 C 0.7252(2) 0.4630(3) 0.4062(4)
H11_3 H 0.744766 0.461711 0.399576
C24_3 C 0.7024(3) 0.4623(3) 0.3862(2)
C25_3 C 0.6738(3) 0.4641(3) 0.3958(3)
C26_3 C 0.6679(2) 0.4666(3) 0.4254(3)
H12_3 H 0.648349 0.467864 0.432021
C27_3 C 0.8306(4) 0.5195(4) 0.0854(4)
C28_3 C 0.5796(4) 0.4633(6) 0.3316(4)
C29_3 C 0.7700(4) 0.4684(6) 0.2969(4)
C30_3 C 0.7656(4) 0.4906(4) 0.3169(6)
H13_3 H 0.777856 0.507306 0.316705
C31_3 C 0.7434(5) 0.4885(5) 0.3374(5)
H14_3 H 0.740388 0.503705 0.351055
C32_3 C 0.7254(4) 0.4641(6) 0.3377(4)
C33_3 C 0.7298(4) 0.4418(4) 0.3177(6)
H15_3 H 0.717545 0.425160 0.317903
C34_3 C 0.7520(5) 0.4440(5) 0.2973(5)
H16_3 H 0.755012 0.428761 0.283553
C35_3 C 0.8305(4) 0.4812(5) 0.2273(4)
C36_3 C 0.8118(5) 0.4573(4) 0.2275(4)
H17_3 H 0.813995 0.442385 0.213397
C37_3 C 0.7900(5) 0.4553(4) 0.2485(5)
H18_3 H 0.777292 0.439053 0.248589
C38_3 C 0.7869(4) 0.4772(5) 0.2692(4)
C39_3 C 0.8055(5) 0.5010(4) 0.2689(4)
H19_3 H 0.803397 0.515981 0.283098
C40_3 C 0.8274(5) 0.5030(4) 0.2480(5)
H20_3 H 0.840100 0.519313 0.247905
Ni3_2 Ni 0.85147(5) 0.52069(5) 0.02687(5)
Ni5_3 Ni 0.52069(5) 0.47313(5) 0.35147(5)
Ni6_2 Ni 0.79476(5) 0.52944(6) 0.03690(7)
Ni8_3 Ni 0.52944(6) 0.46310(7) 0.29476(5)
O11_2 O 0.6460(2) 0.4842(2) 0.5693(3)
O12_2 O 0.6967(3) 0.4751(3) 0.5775(3)
O13_3 O 0.6581(3) 0.5198(3) 0.5230(2)
O14_3 O 0.7086(2) 0.5137(2) 0.5353(2)
O15_3 O 0.6449(3) 0.4366(2) 0.5352(3)
O16_3 O 0.6948(3) 0.4284(3) 0.5386(3)
H21_3 H 0.597707 0.469096 0.511344
H22_3 H 0.597093 0.490441 0.539468
H23_3 H 0.75983 0.478206 0.53417
H24_3 H 0.752219 0.461833 0.564518
O9_4 O 0.7519(2) 0.5375(4) 0.0433(3)
O10_4 O 0.8933(3) 0.5135(3) 0.0205(3)
O13_4 O 0.8419(3) 0.4802(3) 0.0230(2)
O14_4 O 0.7914(2) 0.4863(2) 0.0353(2)
O15_4 O 0.8551(3) 0.5634(2) 0.0352(3)
O16_4 O 0.8052(3) 0.5716(3) 0.0386(3)
H21_4 H 0.902293 0.530904 0.0113438
H22_4 H 0.902907 0.509559 0.0394683
H23_4 H 0.74017 0.521794 0.0341703
H24_4 H 0.747781 0.538167 0.0645181
O1_4 O 0.8429(3) 0.5268(2) 0.9868(3)
O2_4 O 0.7925(3) 0.5301(3) 0.9922(5)
O5_4 O 0.5198(3) 0.5230(2) 0.6581(3)
O6_4 O 0.5137(2) 0.5353(2) 0.7086(2)
O7_4 O 0.9366(2) 0.5352(3) 0.8551(3)
O8_4 O 0.9284(3) 0.5386(3) 0.8052(3)
N1_4 N 0.6498(4) 0.5097(4) 0.7022(4)
N2_4 N 0.7998(4) 0.5409(4) 0.8556(4)
C1_4 C 0.5286(4) 0.5264(5) 0.6862(4)
C2_4 C 0.5607(2) 0.5250(3) 0.6922(4)
C3_4 C 0.5797(4) 0.5152(3) 0.6708(2)
H1_4 H 0.572602 0.511310 0.651723
C4_4 C 0.6090(3) 0.5112(3) 0.6771(3)
C5_4 C 0.6194(2) 0.5169(3) 0.7050(4)
C6_4 C 0.6004(4) 0.5267(3) 0.7265(2)
H2_4 H 0.607503 0.530670 0.745500
C7_4 C 0.5711(3) 0.5308(3) 0.7201(3)
H3_4 H 0.558155 0.537482 0.734769
C8_4 C 0.6651(3) 0.4896(3) 0.6177(2)
C9_4 C 0.6380(3) 0.4962(3) 0.6296(3)
H4_4 H 0.621167 0.496242 0.617501
C10_4 C 0.6355(3) 0.5027(3) 0.6590(3)
C11_4 C 0.6601(4) 0.5026(3) 0.6767(2)
C12_4 C 0.6872(3) 0.4960(3) 0.6648(3)
H5_4 H 0.703986 0.495941 0.676896
C13_4 C 0.6897(2) 0.4895(3) 0.6354(3)
H6_4 H 0.708158 0.484987 0.627304
C14_4 C 0.8870(2) 0.5367(3) 0.8383(4)
C15_4 C 0.8746(3) 0.5354(3) 0.8659(3)
H7_4 H 0.886748 0.533238 0.882520
C16_4 C 0.8446(4) 0.5373(3) 0.8691(3)
C17_4 C 0.8269(2) 0.5404(3) 0.8448(4)
C18_4 C 0.8392(3) 0.5417(3) 0.8172(3)
H8_4 H 0.827137 0.543889 0.800544
C19_4 C 0.8693(3) 0.5399(3) 0.8139(3)
H9_4 H 0.877699 0.540736 0.795043
C20_4 C 0.8165(5) 0.5288(4) 0.9780(4)
C21_4 C 0.8093(3) 0.5327(3) 0.9454(2)
C22_4 C 0.7807(3) 0.5346(3) 0.9358(3)
H10_4 H 0.765138 0.534136 0.949389
C23_4 C 0.7748(2) 0.5370(3) 0.9062(4)
H11_4 H 0.755234 0.538289 0.899576
C24_4 C 0.7976(3) 0.5377(3) 0.8862(2)
C25_4 C 0.8262(3) 0.5359(3) 0.8958(3)
C26_4 C 0.8321(2) 0.5334(3) 0.9254(3)
H12_4 H 0.851651 0.532136 0.932021
C27_4 C 0.6694(4) 0.4805(4) 0.5854(4)
C28_4 C 0.9204(4) 0.5367(6) 0.8316(4)
C29_4 C 0.7300(4) 0.5316(6) 0.7969(4)
C30_4 C 0.7344(4) 0.5094(4) 0.8169(6)
H13_4 H 0.722144 0.492694 0.816705
C31_4 C 0.7566(5) 0.5115(5) 0.8374(5)
H14_4 H 0.759612 0.496295 0.851055
C32_4 C 0.7746(4) 0.5359(6) 0.8377(4)
C33_4 C 0.7702(4) 0.5582(4) 0.8177(6)
H15_4 H 0.782455 0.574840 0.817903
C34_4 C 0.7480(5) 0.5560(5) 0.7973(5)
H16_4 H 0.744988 0.571239 0.783553
C35_4 C 0.6695(4) 0.5188(5) 0.7273(4)
C36_4 C 0.6882(5) 0.5427(4) 0.7275(4)
H17_4 H 0.686005 0.557615 0.713397
C37_4 C 0.7100(5) 0.5447(4) 0.7485(5)
H18_4 H 0.722708 0.560947 0.748589
C38_4 C 0.7131(4) 0.5228(5) 0.7692(4)
C39_4 C 0.6945(5) 0.4990(4) 0.7689(4)
H19_4 H 0.696603 0.484019 0.783098
C40_4 C 0.6726(5) 0.4970(4) 0.7480(5)
H20_4 H 0.659900 0.480687 0.747905
Ni4_4 Ni 0.47931(5) 0.52687(5) 0.64853(5)
Ni5_4 Ni 0.97931(5) 0.52687(5) 0.85147(5)
Ni7_4 Ni 0.47056(6) 0.53690(7) 0.70524(5)
Ni8_4 Ni 0.97056(6) 0.53690(7) 0.79476(5)
O3_3 O 0.4307(3) 0.1460(2) 0.0158(2)
O4_3 O 0.4225(3) 0.1967(3) 0.0249(3)
C8_5 C 0.3823(2) 0.1651(3) 0.0104(3)
C9_5 C 0.3704(3) 0.1380(3) 0.0038(3)
H4_5 H 0.382499 0.121167 0.003758
C12_5 C 0.3352(3) 0.1872(3) 0.0040(3)
H5_5 H 0.323104 0.203986 0.004059
C13_5 C 0.3646(3) 0.1897(2) 0.0105(3)
H6_5 H 0.372696 0.208158 0.015013
C27_5 C 0.4146(4) 0.1694(4) 0.0195(4)
H13_5 H 0.183295 0.222144 0.007306
H14_5 H 0.148945 0.259612 0.003705
C39_5 C 0.2311(4) 0.1945(5) 0.0010(4)
H19_5 H 0.216902 0.196603 0.015981
C40_5 C 0.2520(5) 0.1726(5) 0.0030(4)
H20_5 H 0.252095 0.159900 0.019313
Ni3_3 Ni 0.47313(5) 0.14853(5) 0.02069(5)
Ni6_3 Ni 0.46310(7) 0.20524(5) 0.02944(6)
O1_5 O 0.0132(3) 0.3429(3) 0.9732(2)
O2_5 O 0.0078(5) 0.2925(3) 0.9699(3)
O7_5 O 0.1449(3) 0.4366(2) 0.9648(3)
O8_5 O 0.1948(3) 0.4284(3) 0.9614(3)
N1_5 N 0.2978(4) 0.1498(4) 0.9903(4)
N2_5 N 0.1444(4) 0.2998(4) 0.9591(4)
C1_5 C 0.3138(4) 0.0286(4) 0.9736(5)
C2_5 C 0.3078(4) 0.0607(2) 0.9750(3)
C3_5 C 0.3292(2) 0.0797(4) 0.9848(3)
H1_5 H 0.348277 0.072602 0.988690
C4_5 C 0.3229(3) 0.1090(3) 0.9888(3)
C5_5 C 0.2950(4) 0.1194(2) 0.9831(3)
C6_5 C 0.2735(2) 0.1004(4) 0.9733(3)
H2_5 H 0.254500 0.107503 0.969330
C7_5 C 0.2799(3) 0.0711(3) 0.9692(3)
H3_5 H 0.265231 0.058155 0.962518
C10_5 C 0.3410(3) 0.1355(3) 0.9973(3)
C11_5 C 0.3233(2) 0.1601(4) 0.9974(3)
C14_5 C 0.1617(4) 0.3870(2) 0.9633(3)
C15_5 C 0.1341(3) 0.3746(3) 0.9646(3)
H7_5 H 0.117480 0.386748 0.966762
C16_5 C 0.1309(3) 0.3446(4) 0.9627(3)
C17_5 C 0.1552(4) 0.3269(2) 0.9596(3)
C18_5 C 0.1828(3) 0.3392(3) 0.9583(3)
H8_5 H 0.199456 0.327137 0.956111
C19_5 C 0.1861(3) 0.3693(3) 0.9601(3)
H9_5 H 0.204957 0.377699 0.959264
C20_5 C 0.0220(4) 0.3165(5) 0.9712(4)
C21_5 C 0.0546(2) 0.3093(3) 0.9673(3)
C22_5 C 0.0642(3) 0.2807(3) 0.9654(3)
H10_5 H 0.050611 0.265138 0.965864
C23_5 C 0.0938(4) 0.2748(2) 0.9630(3)
H11_5 H 0.100424 0.255234 0.961711
C24_5 C 0.1138(2) 0.2976(3) 0.9623(3)
C25_5 C 0.1042(3) 0.3262(3) 0.9641(3)
C26_5 C 0.0746(3) 0.3321(2) 0.9666(3)
H12_5 H 0.067979 0.351651 0.967864
C28_5 C 0.1684(4) 0.4204(4) 0.9633(6)
C29_5 C 0.2031(4) 0.2300(4) 0.9684(6)
C30_5 C 0.1831(6) 0.2344(4) 0.9906(4)
C31_5 C 0.1626(5) 0.2566(5) 0.9885(5)
C32_5 C 0.1623(4) 0.2746(4) 0.9641(6)
C33_5 C 0.1823(6) 0.2702(4) 0.9418(4)
H15_5 H 0.182097 0.282455 0.925160
C34_5 C 0.2027(5) 0.2480(5) 0.9440(5)
H16_5 H 0.216447 0.244988 0.928761
C35_5 C 0.2727(4) 0.1695(4) 0.9812(5)
C36_5 C 0.2725(4) 0.1882(5) 0.9573(4)
H17_5 H 0.286603 0.186005 0.942385
C37_5 C 0.2515(5) 0.2100(5) 0.9553(4)
H18_5 H 0.251411 0.222708 0.939053
C38_5 C 0.2308(4) 0.2131(4) 0.9772(5)
Ni5_5 Ni 0.14853(5) 0.47931(5) 0.97313(5)
Ni8_5 Ni 0.20524(5) 0.47056(6) 0.96310(7)
O13_5 O 0.9770(2) 0.3419(3) 0.0198(3)
O14_5 O 0.9647(2) 0.2914(2) 0.0137(2)
Ni1_3 Ni 0.97313(5) 0.35147(5) 0.97931(5)
Ni2_3 Ni 0.96310(7) 0.29476(5) 0.97056(6)
O9_5 O 0.9567(3) 0.2519(2) 0.9625(4)
O10_5 O 0.9795(3) 0.3933(3) 0.9865(3)
O11_3 O 0.9307(3) 0.3540(2) 0.9842(2)
O12_3 O 0.9225(3) 0.3033(3) 0.9751(3)
O15_5 O 0.9648(3) 0.3551(3) 0.9366(2)
O16_5 O 0.9614(3) 0.3052(3) 0.9284(3)
H21_5 H 0.988656 0.402293 0.969096
H22_5 H 0.960532 0.402907 0.990441
H23_5 H 0.96583 0.24017 0.978206
H24_5 H 0.935482 0.247781 0.961833
O1_6 O 0.5132(3) 0.1571(3) 0.0268(2)
O2_6 O 0.5078(5) 0.2075(3) 0.0301(3)
O7_6 O 0.6449(3) 0.0634(2) 0.0352(3)
O8_6 O 0.6948(3) 0.0716(3) 0.0386(3)
O9_6 O 0.4567(3) 0.2481(2) 0.0375(4)
O10_6 O 0.4795(3) 0.1067(3) 0.0135(3)
N1_6 N 0.7978(4) 0.3502(4) 0.0097(4)
N2_6 N 0.6444(4) 0.2002(4) 0.0409(4)
C1_6 C 0.8138(4) 0.4714(4) 0.0264(5)
C2_6 C 0.8078(4) 0.4393(2) 0.0250(3)
C3_6 C 0.8292(2) 0.4203(4) 0.0152(3)
H1_6 H 0.848277 0.427398 0.011310
C4_6 C 0.8229(3) 0.3910(3) 0.0112(3)
C5_6 C 0.7950(4) 0.3806(2) 0.0169(3)
C6_6 C 0.7735(2) 0.3996(4) 0.0267(3)
H2_6 H 0.754500 0.392497 0.030670
C7_6 C 0.7799(3) 0.4289(3) 0.0308(3)
H3_6 H 0.765231 0.441845 0.037482
C10_6 C 0.8410(3) 0.3645(3) 0.0027(3)
C11_6 C 0.8233(2) 0.3399(4) 0.0026(3)
C14_6 C 0.6617(4) 0.1130(2) 0.0367(3)
C15_6 C 0.6341(3) 0.1254(3) 0.0354(3)
H7_6 H 0.617480 0.113252 0.033238
C16_6 C 0.6309(3) 0.1554(4) 0.0373(3)
C17_6 C 0.6552(4) 0.1731(2) 0.0404(3)
C18_6 C 0.6828(3) 0.1608(3) 0.0417(3)
H8_6 H 0.699456 0.172863 0.043889
C19_6 C 0.6861(3) 0.1307(3) 0.0399(3)
H9_6 H 0.704957 0.122301 0.040736
C20_6 C 0.5220(4) 0.1835(5) 0.0288(4)
C21_6 C 0.5546(2) 0.1907(3) 0.0327(3)
C22_6 C 0.5642(3) 0.2193(3) 0.0346(3)
H10_6 H 0.550611 0.234862 0.034136
C23_6 C 0.5938(4) 0.2252(2) 0.0370(3)
H11_6 H 0.600424 0.244766 0.038289
C24_6 C 0.6138(2) 0.2024(3) 0.0377(3)
C25_6 C 0.6042(3) 0.1738(3) 0.0359(3)
C26_6 C 0.5746(3) 0.1679(2) 0.0334(3)
H12_6 H 0.567979 0.148349 0.032136
C28_6 C 0.6684(4) 0.0796(4) 0.0367(6)
C29_6 C 0.7031(4) 0.2700(4) 0.0316(6)
C30_6 C 0.6831(6) 0.2656(4) 0.0094(4)
C31_6 C 0.6626(5) 0.2434(5) 0.0115(5)
C32_6 C 0.6623(4) 0.2254(4) 0.0359(6)
C33_6 C 0.6823(6) 0.2298(4) 0.0582(4)
H15_6 H 0.682097 0.217545 0.074840
C34_6 C 0.7027(5) 0.2520(5) 0.0560(5)
H16_6 H 0.716447 0.255012 0.071239
C35_6 C 0.7727(4) 0.3305(4) 0.0188(5)
C36_6 C 0.7725(4) 0.3118(5) 0.0427(4)
H17_6 H 0.786603 0.313995 0.057615
C37_6 C 0.7515(5) 0.2900(5) 0.0447(4)
H18_6 H 0.751411 0.277292 0.060947
C38_6 C 0.7308(4) 0.2869(4) 0.0228(5)
Ni5_6 Ni 0.64853(5) 0.02069(5) 0.02687(5)
Ni8_6 Ni 0.70524(5) 0.02944(6) 0.03690(7)
O15_6 O 0.4648(3) 0.1449(3) 0.0634(2)
O16_6 O 0.4614(3) 0.1948(3) 0.0716(3)
H21_6 H 0.488656 0.097707 0.0309043
H22_6 H 0.460532 0.0970931 0.00955895
H23_6 H 0.46583 0.25983 0.021794
H24_6 H 0.435482 0.252219 0.0381671
C8_6 C 0.8823(2) 0.3349(3) 0.9896(3)
C9_6 C 0.8704(3) 0.3620(3) 0.9962(3)
H4_6 H 0.882499 0.378833 0.996242
C12_6 C 0.8352(3) 0.3128(3) 0.9960(3)
H5_6 H 0.823104 0.296014 0.995941
C13_6 C 0.8646(3) 0.3103(2) 0.9895(3)
H6_6 H 0.872696 0.291842 0.984987
C27_6 C 0.9146(4) 0.3306(4) 0.9805(4)
H13_6 H 0.683295 0.277856 0.992694
H14_6 H 0.648945 0.240388 0.996295
C39_6 C 0.7311(4) 0.3055(5) 0.9990(4)
H19_6 H 0.716902 0.303397 0.984019
C40_6 C 0.7520(5) 0.3274(5) 0.9970(4)
H20_6 H 0.752095 0.340100 0.980687
O13_6 O 0.4770(2) 0.1581(3) 0.9802(3)
O14_6 O 0.4647(2) 0.2086(2) 0.9863(2)
Ni1_4 Ni 0.52687(5) 0.64853(5) 0.47931(5)
Ni2_4 Ni 0.53690(7) 0.70524(5) 0.47056(6)
O1_7 O 0.4868(3) 0.6571(3) 0.4732(2)
O2_7 O 0.4922(5) 0.7075(3) 0.4699(3)
O3_4 O 0.0693(3) 0.8540(2) 0.5158(2)
O4_4 O 0.0775(3) 0.8033(3) 0.5249(3)
O7_7 O 0.3551(3) 0.5634(2) 0.4648(3)
O8_7 O 0.3052(3) 0.5716(3) 0.4614(3)
O9_7 O 0.5433(3) 0.7481(2) 0.4625(4)
O10_7 O 0.5205(3) 0.6067(3) 0.4865(3)
N1_7 N 0.2022(4) 0.8502(4) 0.4903(4)
N2_7 N 0.3556(4) 0.7002(4) 0.4591(4)
C1_7 C 0.1862(4) 0.9714(4) 0.4736(5)
C2_7 C 0.1922(4) 0.9393(2) 0.4750(3)
C3_7 C 0.1708(2) 0.9203(4) 0.4848(3)
H1_7 H 0.151723 0.927398 0.488690
C4_7 C 0.1771(3) 0.8910(3) 0.4888(3)
C5_7 C 0.2050(4) 0.8806(2) 0.4831(3)
C6_7 C 0.2265(2) 0.8996(4) 0.4733(3)
H2_7 H 0.245500 0.892497 0.469330
C7_7 C 0.2201(3) 0.9289(3) 0.4692(3)
H3_7 H 0.234769 0.941845 0.462518
C8_7 C 0.1177(2) 0.8349(3) 0.5104(3)
C9_7 C 0.1296(3) 0.8620(3) 0.5038(3)
H4_7 H 0.117501 0.878833 0.503758
C10_7 C 0.1590(3) 0.8645(3) 0.4973(3)
C11_7 C 0.1767(2) 0.8399(4) 0.4974(3)
C12_7 C 0.1648(3) 0.8128(3) 0.5040(3)
H5_7 H 0.176896 0.796014 0.504059
C13_7 C 0.1354(3) 0.8103(2) 0.5105(3)
H6_7 H 0.127304 0.791842 0.515013
C14_7 C 0.3383(4) 0.6130(2) 0.4633(3)
C15_7 C 0.3659(3) 0.6254(3) 0.4646(3)
H7_7 H 0.382520 0.613252 0.466762
C16_7 C 0.3691(3) 0.6554(4) 0.4627(3)
C17_7 C 0.3448(4) 0.6731(2) 0.4596(3)
C18_7 C 0.3172(3) 0.6608(3) 0.4583(3)
H8_7 H 0.300544 0.672863 0.456111
C19_7 C 0.3139(3) 0.6307(3) 0.4601(3)
H9_7 H 0.295043 0.622301 0.459264
C20_7 C 0.4780(4) 0.6835(5) 0.4712(4)
C21_7 C 0.4454(2) 0.6907(3) 0.4673(3)
C22_7 C 0.4358(3) 0.7193(3) 0.4654(3)
H10_7 H 0.449389 0.734862 0.465864
C23_7 C 0.4062(4) 0.7252(2) 0.4630(3)
H11_7 H 0.399576 0.744766 0.461711
C24_7 C 0.3862(2) 0.7024(3) 0.4623(3)
C25_7 C 0.3958(3) 0.6738(3) 0.4641(3)
C26_7 C 0.4254(3) 0.6679(2) 0.4666(3)
H12_7 H 0.432021 0.648349 0.467864
C27_7 C 0.0854(4) 0.8306(4) 0.5195(4)
C28_7 C 0.3316(4) 0.5796(4) 0.4633(6)
C29_7 C 0.2969(4) 0.7700(4) 0.4684(6)
C30_7 C 0.3169(6) 0.7656(4) 0.4906(4)
H13_7 H 0.316705 0.777856 0.507306
C31_7 C 0.3374(5) 0.7434(5) 0.4885(5)
H14_7 H 0.351055 0.740388 0.503705
C32_7 C 0.3377(4) 0.7254(4) 0.4641(6)
C33_7 C 0.3177(6) 0.7298(4) 0.4418(4)
H15_7 H 0.317903 0.717545 0.425160
C34_7 C 0.2973(5) 0.7520(5) 0.4440(5)
H16_7 H 0.283553 0.755012 0.428761
C35_7 C 0.2273(4) 0.8305(4) 0.4812(5)
C36_7 C 0.2275(4) 0.8118(5) 0.4573(4)
H17_7 H 0.213397 0.813995 0.442385
C37_7 C 0.2485(5) 0.7900(5) 0.4553(4)
H18_7 H 0.248589 0.777292 0.439053
C38_7 C 0.2692(4) 0.7869(4) 0.4772(5)
C39_7 C 0.2689(4) 0.8055(5) 0.5010(4)
H19_7 H 0.283098 0.803397 0.515981
C40_7 C 0.2480(5) 0.8274(5) 0.5030(4)
H20_7 H 0.247905 0.840100 0.519313
Ni3_4 Ni 0.02687(5) 0.85147(5) 0.52069(5)
Ni5_7 Ni 0.35147(5) 0.52069(5) 0.47313(5)
Ni6_4 Ni 0.03690(7) 0.79476(5) 0.52944(6)
Ni8_7 Ni 0.29476(5) 0.52944(6) 0.46310(7)
O11_4 O 0.5693(3) 0.6460(2) 0.4842(2)
O12_4 O 0.5775(3) 0.6967(3) 0.4751(3)
O13_7 O 0.5230(2) 0.6581(3) 0.5198(3)
O14_7 O 0.5353(2) 0.7086(2) 0.5137(2)
O15_7 O 0.5352(3) 0.6449(3) 0.4366(2)
O16_7 O 0.5386(3) 0.6948(3) 0.4284(3)
H21_7 H 0.511344 0.597707 0.469096
H22_7 H 0.539468 0.597093 0.490441
H23_7 H 0.53417 0.75983 0.478206
H24_7 H 0.564518 0.752219 0.461833
O9_8 O 0.0433(3) 0.7519(2) 0.5375(4)
O10_8 O 0.0205(3) 0.8933(3) 0.5135(3)
O13_8 O 0.0230(2) 0.8419(3) 0.4802(3)
O14_8 O 0.0353(2) 0.7914(2) 0.4863(2)
O15_8 O 0.0352(3) 0.8551(3) 0.5634(2)
O16_8 O 0.0386(3) 0.8052(3) 0.5716(3)
H21_8 H 0.0113438 0.902293 0.530904
H22_8 H 0.0394683 0.902907 0.509559
H23_8 H 0.0341703 0.74017 0.521794
H24_8 H 0.0645181 0.747781 0.538167
O1_8 O 0.9868(3) 0.8429(3) 0.5268(2)
O2_8 O 0.9922(5) 0.7925(3) 0.5301(3)
O7_8 O 0.8551(3) 0.9366(2) 0.5352(3)
O8_8 O 0.8052(3) 0.9284(3) 0.5386(3)
N1_8 N 0.7022(4) 0.6498(4) 0.5097(4)
N2_8 N 0.8556(4) 0.7998(4) 0.5409(4)
C1_8 C 0.6862(4) 0.5286(4) 0.5264(5)
C2_8 C 0.6922(4) 0.5607(2) 0.5250(3)
C3_8 C 0.6708(2) 0.5797(4) 0.5152(3)
H1_8 H 0.651723 0.572602 0.511310
C4_8 C 0.6771(3) 0.6090(3) 0.5112(3)
C5_8 C 0.7050(4) 0.6194(2) 0.5169(3)
C6_8 C 0.7265(2) 0.6004(4) 0.5267(3)
H2_8 H 0.745500 0.607503 0.530670
C7_8 C 0.7201(3) 0.5711(3) 0.5308(3)
H3_8 H 0.734769 0.558155 0.537482
C8_8 C 0.6177(2) 0.6651(3) 0.4896(3)
C9_8 C 0.6296(3) 0.6380(3) 0.4962(3)
H4_8 H 0.617501 0.621167 0.496242
C10_8 C 0.6590(3) 0.6355(3) 0.5027(3)
C11_8 C 0.6767(2) 0.6601(4) 0.5026(3)
C12_8 C 0.6648(3) 0.6872(3) 0.4960(3)
H5_8 H 0.676896 0.703986 0.495941
C13_8 C 0.6354(3) 0.6897(2) 0.4895(3)
H6_8 H 0.627304 0.708158 0.484987
C14_8 C 0.8383(4) 0.8870(2) 0.5367(3)
C15_8 C 0.8659(3) 0.8746(3) 0.5354(3)
H7_8 H 0.882520 0.886748 0.533238
C16_8 C 0.8691(3) 0.8446(4) 0.5373(3)
C17_8 C 0.8448(4) 0.8269(2) 0.5404(3)
C18_8 C 0.8172(3) 0.8392(3) 0.5417(3)
H8_8 H 0.800544 0.827137 0.543889
C19_8 C 0.8139(3) 0.8693(3) 0.5399(3)
H9_8 H 0.795043 0.877699 0.540736
C20_8 C 0.9780(4) 0.8165(5) 0.5288(4)
C21_8 C 0.9454(2) 0.8093(3) 0.5327(3)
C22_8 C 0.9358(3) 0.7807(3) 0.5346(3)
H10_8 H 0.949389 0.765138 0.534136
C23_8 C 0.9062(4) 0.7748(2) 0.5370(3)
H11_8 H 0.899576 0.755234 0.538289
C24_8 C 0.8862(2) 0.7976(3) 0.5377(3)
C25_8 C 0.8958(3) 0.8262(3) 0.5359(3)
C26_8 C 0.9254(3) 0.8321(2) 0.5334(3)
H12_8 H 0.932021 0.851651 0.532136
C27_8 C 0.5854(4) 0.6694(4) 0.4805(4)
C28_8 C 0.8316(4) 0.9204(4) 0.5367(6)
C29_8 C 0.7969(4) 0.7300(4) 0.5316(6)
C30_8 C 0.8169(6) 0.7344(4) 0.5094(4)
H13_8 H 0.816705 0.722144 0.492694
C31_8 C 0.8374(5) 0.7566(5) 0.5115(5)
H14_8 H 0.851055 0.759612 0.496295
C32_8 C 0.8377(4) 0.7746(4) 0.5359(6)
C33_8 C 0.8177(6) 0.7702(4) 0.5582(4)
H15_8 H 0.817903 0.782455 0.574840
C34_8 C 0.7973(5) 0.7480(5) 0.5560(5)
H16_8 H 0.783553 0.744988 0.571239
C35_8 C 0.7273(4) 0.6695(4) 0.5188(5)
C36_8 C 0.7275(4) 0.6882(5) 0.5427(4)
H17_8 H 0.713397 0.686005 0.557615
C37_8 C 0.7485(5) 0.7100(5) 0.5447(4)
H18_8 H 0.748589 0.722708 0.560947
C38_8 C 0.7692(4) 0.7131(4) 0.5228(5)
C39_8 C 0.7689(4) 0.6945(5) 0.4990(4)
H19_8 H 0.783098 0.696603 0.484019
C40_8 C 0.7480(5) 0.6726(5) 0.4970(4)
H20_8 H 0.747905 0.659900 0.480687
Ni5_8 Ni 0.85147(5) 0.97931(5) 0.52687(5)
Ni8_8 Ni 0.79476(5) 0.97056(6) 0.53690(7)
O3_5 O 0.0158(2) 0.4307(3) 0.1460(2)
O4_5 O 0.0249(3) 0.4225(3) 0.1967(3)
C8_9 C 0.0104(3) 0.3823(2) 0.1651(3)
C9_9 C 0.0038(3) 0.3704(3) 0.1380(3)
H4_9 H 0.003758 0.382499 0.121167
C12_9 C 0.0040(3) 0.3352(3) 0.1872(3)
H5_9 H 0.004059 0.323104 0.203986
C13_9 C 0.0105(3) 0.3646(3) 0.1897(2)
H6_9 H 0.015013 0.372696 0.208158
C27_9 C 0.0195(4) 0.4146(4) 0.1694(4)
H13_9 H 0.007306 0.183295 0.222144
H14_9 H 0.003705 0.148945 0.259612
C39_9 C 0.0010(4) 0.2311(4) 0.1945(5)
H19_9 H 0.015981 0.216902 0.196603
C40_9 C 0.0030(4) 0.2520(5) 0.1726(5)
H20_9 H 0.019313 0.252095 0.159900
O1_9 O 0.9732(2) 0.0132(3) 0.3429(3)
O2_9 O 0.9699(3) 0.0078(5) 0.2925(3)
O7_9 O 0.9648(3) 0.1449(3) 0.4366(2)
O8_9 O 0.9614(3) 0.1948(3) 0.4284(3)
N1_9 N 0.9903(4) 0.2978(4) 0.1498(4)
N2_9 N 0.9591(4) 0.1444(4) 0.2998(4)
C1_9 C 0.9736(5) 0.3138(4) 0.0286(4)
C2_9 C 0.9750(3) 0.3078(4) 0.0607(2)
C3_9 C 0.9848(3) 0.3292(2) 0.0797(4)
H1_9 H 0.988690 0.348277 0.072602
C4_9 C 0.9888(3) 0.3229(3) 0.1090(3)
C5_9 C 0.9831(3) 0.2950(4) 0.1194(2)
C6_9 C 0.9733(3) 0.2735(2) 0.1004(4)
H2_9 H 0.969330 0.254500 0.107503
C7_9 C 0.9692(3) 0.2799(3) 0.0711(3)
H3_9 H 0.962518 0.265231 0.058155
C10_9 C 0.9973(3) 0.3410(3) 0.1355(3)
C11_9 C 0.9974(3) 0.3233(2) 0.1601(4)
C14_9 C 0.9633(3) 0.1617(4) 0.3870(2)
C15_9 C 0.9646(3) 0.1341(3) 0.3746(3)
H7_9 H 0.966762 0.117480 0.386748
C16_9 C 0.9627(3) 0.1309(3) 0.3446(4)
C17_9 C 0.9596(3) 0.1552(4) 0.3269(2)
C18_9 C 0.9583(3) 0.1828(3) 0.3392(3)
H8_9 H 0.956111 0.199456 0.327137
C19_9 C 0.9601(3) 0.1861(3) 0.3693(3)
H9_9 H 0.959264 0.204957 0.377699
C20_9 C 0.9712(4) 0.0220(4) 0.3165(5)
C21_9 C 0.9673(3) 0.0546(2) 0.3093(3)
C22_9 C 0.9654(3) 0.0642(3) 0.2807(3)
H10_9 H 0.965864 0.050611 0.265138
C23_9 C 0.9630(3) 0.0938(4) 0.2748(2)
H11_9 H 0.961711 0.100424 0.255234
C24_9 C 0.9623(3) 0.1138(2) 0.2976(3)
C25_9 C 0.9641(3) 0.1042(3) 0.3262(3)
C26_9 C 0.9666(3) 0.0746(3) 0.3321(2)
H12_9 H 0.967864 0.067979 0.351651
C28_9 C 0.9633(6) 0.1684(4) 0.4204(4)
C29_9 C 0.9684(6) 0.2031(4) 0.2300(4)
C30_9 C 0.9906(4) 0.1831(6) 0.2344(4)
C31_9 C 0.9885(5) 0.1626(5) 0.2566(5)
C32_9 C 0.9641(6) 0.1623(4) 0.2746(4)
C33_9 C 0.9418(4) 0.1823(6) 0.2702(4)
H15_9 H 0.925160 0.182097 0.282455
C34_9 C 0.9440(5) 0.2027(5) 0.2480(5)
H16_9 H 0.928761 0.216447 0.244988
C35_9 C 0.9812(5) 0.2727(4) 0.1695(4)
C36_9 C 0.9573(4) 0.2725(4) 0.1882(5)
H17_9 H 0.942385 0.286603 0.186005
C37_9 C 0.9553(4) 0.2515(5) 0.2100(5)
H18_9 H 0.939053 0.251411 0.222708
C38_9 C 0.9772(5) 0.2308(4) 0.2131(4)
Ni5_9 Ni 0.97313(5) 0.14853(5) 0.47931(5)
Ni8_9 Ni 0.96310(7) 0.20524(5) 0.47056(6)
O9_9 O 0.9625(4) 0.9567(3) 0.2519(2)
O10_9 O 0.9865(3) 0.9795(3) 0.3933(3)
O11_5 O 0.9842(2) 0.9307(3) 0.3540(2)
O12_5 O 0.9751(3) 0.9225(3) 0.3033(3)
O15_9 O 0.9366(2) 0.9648(3) 0.3551(3)
O16_9 O 0.9284(3) 0.9614(3) 0.3052(3)
H21_9 H 0.969096 0.988656 0.402293
H22_9 H 0.990441 0.960532 0.402907
H23_9 H 0.978206 0.96583 0.24017
H24_9 H 0.961833 0.935482 0.247781
O1_10 O 0.0268(2) 0.5132(3) 0.1571(3)
O2_10 O 0.0301(3) 0.5078(5) 0.2075(3)
O7_10 O 0.0352(3) 0.6449(3) 0.0634(2)
O8_10 O 0.0386(3) 0.6948(3) 0.0716(3)
O9_10 O 0.0375(4) 0.4567(3) 0.2481(2)
O10_10 O 0.0135(3) 0.4795(3) 0.1067(3)
N1_10 N 0.0097(4) 0.7978(4) 0.3502(4)
N2_10 N 0.0409(4) 0.6444(4) 0.2002(4)
C1_10 C 0.0264(5) 0.8138(4) 0.4714(4)
C2_10 C 0.0250(3) 0.8078(4) 0.4393(2)
C3_10 C 0.0152(3) 0.8292(2) 0.4203(4)
H1_10 H 0.011310 0.848277 0.427398
C4_10 C 0.0112(3) 0.8229(3) 0.3910(3)
C5_10 C 0.0169(3) 0.7950(4) 0.3806(2)
C6_10 C 0.0267(3) 0.7735(2) 0.3996(4)
H2_10 H 0.030670 0.754500 0.392497
C7_10 C 0.0308(3) 0.7799(3) 0.4289(3)
H3_10 H 0.037482 0.765231 0.441845
C10_10 C 0.0027(3) 0.8410(3) 0.3645(3)
C11_10 C 0.0026(3) 0.8233(2) 0.3399(4)
C14_10 C 0.0367(3) 0.6617(4) 0.1130(2)
C15_10 C 0.0354(3) 0.6341(3) 0.1254(3)
H7_10 H 0.033238 0.617480 0.113252
C16_10 C 0.0373(3) 0.6309(3) 0.1554(4)
C17_10 C 0.0404(3) 0.6552(4) 0.1731(2)
C18_10 C 0.0417(3) 0.6828(3) 0.1608(3)
H8_10 H 0.043889 0.699456 0.172863
C19_10 C 0.0399(3) 0.6861(3) 0.1307(3)
H9_10 H 0.040736 0.704957 0.122301
C20_10 C 0.0288(4) 0.5220(4) 0.1835(5)
C21_10 C 0.0327(3) 0.5546(2) 0.1907(3)
C22_10 C 0.0346(3) 0.5642(3) 0.2193(3)
H10_10 H 0.034136 0.550611 0.234862
C23_10 C 0.0370(3) 0.5938(4) 0.2252(2)
H11_10 H 0.038289 0.600424 0.244766
C24_10 C 0.0377(3) 0.6138(2) 0.2024(3)
C25_10 C 0.0359(3) 0.6042(3) 0.1738(3)
C26_10 C 0.0334(3) 0.5746(3) 0.1679(2)
H12_10 H 0.032136 0.567979 0.148349
C28_10 C 0.0367(6) 0.6684(4) 0.0796(4)
C29_10 C 0.0316(6) 0.7031(4) 0.2700(4)
C30_10 C 0.0094(4) 0.6831(6) 0.2656(4)
C31_10 C 0.0115(5) 0.6626(5) 0.2434(5)
C32_10 C 0.0359(6) 0.6623(4) 0.2254(4)
C33_10 C 0.0582(4) 0.6823(6) 0.2298(4)
H15_10 H 0.074840 0.682097 0.217545
C34_10 C 0.0560(5) 0.7027(5) 0.2520(5)
H16_10 H 0.071239 0.716447 0.255012
C35_10 C 0.0188(5) 0.7727(4) 0.3305(4)
C36_10 C 0.0427(4) 0.7725(4) 0.3118(5)
H17_10 H 0.057615 0.786603 0.313995
C37_10 C 0.0447(4) 0.7515(5) 0.2900(5)
H18_10 H 0.060947 0.751411 0.277292
C38_10 C 0.0228(5) 0.7308(4) 0.2869(4)
Ni5_10 Ni 0.02687(5) 0.64853(5) 0.02069(5)
Ni8_10 Ni 0.03690(7) 0.70524(5) 0.02944(6)
O15_10 O 0.0634(2) 0.4648(3) 0.1449(3)
O16_10 O 0.0716(3) 0.4614(3) 0.1948(3)
H21_10 H 0.0309043 0.488656 0.097707
H22_10 H 0.00955895 0.460532 0.0970931
H23_10 H 0.021794 0.46583 0.25983
H24_10 H 0.0381671 0.435482 0.252219
C8_10 C 0.9896(3) 0.8823(2) 0.3349(3)
C9_10 C 0.9962(3) 0.8704(3) 0.3620(3)
H4_10 H 0.996242 0.882499 0.378833
C12_10 C 0.9960(3) 0.8352(3) 0.3128(3)
H5_10 H 0.995941 0.823104 0.296014
C13_10 C 0.9895(3) 0.8646(3) 0.3103(2)
H6_10 H 0.984987 0.872696 0.291842
C27_10 C 0.9805(4) 0.9146(4) 0.3306(4)
H13_10 H 0.992694 0.683295 0.277856
H14_10 H 0.996295 0.648945 0.240388
C39_10 C 0.9990(4) 0.7311(4) 0.3055(5)
H19_10 H 0.984019 0.716902 0.303397
C40_10 C 0.9970(4) 0.7520(5) 0.3274(5)
H20_10 H 0.980687 0.752095 0.340100
O1_11 O 0.4732(2) 0.4868(3) 0.6571(3)
O2_11 O 0.4699(3) 0.4922(5) 0.7075(3)
O3_6 O 0.5158(2) 0.0693(3) 0.8540(2)
O4_6 O 0.5249(3) 0.0775(3) 0.8033(3)
O7_11 O 0.4648(3) 0.3551(3) 0.5634(2)
O8_11 O 0.4614(3) 0.3052(3) 0.5716(3)
O9_11 O 0.4625(4) 0.5433(3) 0.7481(2)
O10_11 O 0.4865(3) 0.5205(3) 0.6067(3)
N1_11 N 0.4903(4) 0.2022(4) 0.8502(4)
N2_11 N 0.4591(4) 0.3556(4) 0.7002(4)
C1_11 C 0.4736(5) 0.1862(4) 0.9714(4)
C2_11 C 0.4750(3) 0.1922(4) 0.9393(2)
C3_11 C 0.4848(3) 0.1708(2) 0.9203(4)
H1_11 H 0.488690 0.151723 0.927398
C4_11 C 0.4888(3) 0.1771(3) 0.8910(3)
C5_11 C 0.4831(3) 0.2050(4) 0.8806(2)
C6_11 C 0.4733(3) 0.2265(2) 0.8996(4)
H2_11 H 0.469330 0.245500 0.892497
C7_11 C 0.4692(3) 0.2201(3) 0.9289(3)
H3_11 H 0.462518 0.234769 0.941845
C8_11 C 0.5104(3) 0.1177(2) 0.8349(3)
C9_11 C 0.5038(3) 0.1296(3) 0.8620(3)
H4_11 H 0.503758 0.117501 0.878833
C10_11 C 0.4973(3) 0.1590(3) 0.8645(3)
C11_11 C 0.4974(3) 0.1767(2) 0.8399(4)
C12_11 C 0.5040(3) 0.1648(3) 0.8128(3)
H5_11 H 0.504059 0.176896 0.796014
C13_11 C 0.5105(3) 0.1354(3) 0.8103(2)
H6_11 H 0.515013 0.127304 0.791842
C14_11 C 0.4633(3) 0.3383(4) 0.6130(2)
C15_11 C 0.4646(3) 0.3659(3) 0.6254(3)
H7_11 H 0.466762 0.382520 0.613252
C16_11 C 0.4627(3) 0.3691(3) 0.6554(4)
C17_11 C 0.4596(3) 0.3448(4) 0.6731(2)
C18_11 C 0.4583(3) 0.3172(3) 0.6608(3)
H8_11 H 0.456111 0.300544 0.672863
C19_11 C 0.4601(3) 0.3139(3) 0.6307(3)
H9_11 H 0.459264 0.295043 0.622301
C20_11 C 0.4712(4) 0.4780(4) 0.6835(5)
C21_11 C 0.4673(3) 0.4454(2) 0.6907(3)
C22_11 C 0.4654(3) 0.4358(3) 0.7193(3)
H10_11 H 0.465864 0.449389 0.734862
C23_11 C 0.4630(3) 0.4062(4) 0.7252(2)
H11_11 H 0.461711 0.399576 0.744766
C24_11 C 0.4623(3) 0.3862(2) 0.7024(3)
C25_11 C 0.4641(3) 0.3958(3) 0.6738(3)
C26_11 C 0.4666(3) 0.4254(3) 0.6679(2)
H12_11 H 0.467864 0.432021 0.648349
C27_11 C 0.5195(4) 0.0854(4) 0.8306(4)
C28_11 C 0.4633(6) 0.3316(4) 0.5796(4)
C29_11 C 0.4684(6) 0.2969(4) 0.7700(4)
C30_11 C 0.4906(4) 0.3169(6) 0.7656(4)
H13_11 H 0.507306 0.316705 0.777856
C31_11 C 0.4885(5) 0.3374(5) 0.7434(5)
H14_11 H 0.503705 0.351055 0.740388
C32_11 C 0.4641(6) 0.3377(4) 0.7254(4)
C33_11 C 0.4418(4) 0.3177(6) 0.7298(4)
H15_11 H 0.425160 0.317903 0.717545
C34_11 C 0.4440(5) 0.2973(5) 0.7520(5)
H16_11 H 0.428761 0.283553 0.755012
C35_11 C 0.4812(5) 0.2273(4) 0.8305(4)
C36_11 C 0.4573(4) 0.2275(4) 0.8118(5)
H17_11 H 0.442385 0.213397 0.813995
C37_11 C 0.4553(4) 0.2485(5) 0.7900(5)
H18_11 H 0.439053 0.248589 0.777292
C38_11 C 0.4772(5) 0.2692(4) 0.7869(4)
C39_11 C 0.5010(4) 0.2689(4) 0.8055(5)
H19_11 H 0.515981 0.283098 0.803397
C40_11 C 0.5030(4) 0.2480(5) 0.8274(5)
H20_11 H 0.519313 0.247905 0.840100
Ni5_11 Ni 0.47313(5) 0.35147(5) 0.52069(5)
Ni8_11 Ni 0.46310(7) 0.29476(5) 0.52944(6)
O11_6 O 0.4842(2) 0.5693(3) 0.6460(2)
O12_6 O 0.4751(3) 0.5775(3) 0.6967(3)
O15_11 O 0.4366(2) 0.5352(3) 0.6449(3)
O16_11 O 0.4284(3) 0.5386(3) 0.6948(3)
H21_11 H 0.469096 0.511344 0.597707
H22_11 H 0.490441 0.539468 0.597093
H23_11 H 0.478206 0.53417 0.75983
H24_11 H 0.461833 0.564518 0.752219
O9_12 O 0.5375(4) 0.0433(3) 0.7519(2)
O10_12 O 0.5135(3) 0.0205(3) 0.8933(3)
O15_12 O 0.5634(2) 0.0352(3) 0.8551(3)
O16_12 O 0.5716(3) 0.0386(3) 0.8052(3)
H21_12 H 0.530904 0.0113438 0.902293
H22_12 H 0.509559 0.0394683 0.902907
H23_12 H 0.521794 0.0341703 0.74017
H24_12 H 0.538167 0.0645181 0.747781
O1_12 O 0.5268(2) 0.9868(3) 0.8429(3)
O2_12 O 0.5301(3) 0.9922(5) 0.7925(3)
O7_12 O 0.5352(3) 0.8551(3) 0.9366(2)
O8_12 O 0.5386(3) 0.8052(3) 0.9284(3)
N1_12 N 0.5097(4) 0.7022(4) 0.6498(4)
N2_12 N 0.5409(4) 0.8556(4) 0.7998(4)
C1_12 C 0.5264(5) 0.6862(4) 0.5286(4)
C2_12 C 0.5250(3) 0.6922(4) 0.5607(2)
C3_12 C 0.5152(3) 0.6708(2) 0.5797(4)
H1_12 H 0.511310 0.651723 0.572602
C4_12 C 0.5112(3) 0.6771(3) 0.6090(3)
C5_12 C 0.5169(3) 0.7050(4) 0.6194(2)
C6_12 C 0.5267(3) 0.7265(2) 0.6004(4)
H2_12 H 0.530670 0.745500 0.607503
C7_12 C 0.5308(3) 0.7201(3) 0.5711(3)
H3_12 H 0.537482 0.734769 0.558155
C8_12 C 0.4896(3) 0.6177(2) 0.6651(3)
C9_12 C 0.4962(3) 0.6296(3) 0.6380(3)
H4_12 H 0.496242 0.617501 0.621167
C10_12 C 0.5027(3) 0.6590(3) 0.6355(3)
C11_12 C 0.5026(3) 0.6767(2) 0.6601(4)
C12_12 C 0.4960(3) 0.6648(3) 0.6872(3)
H5_12 H 0.495941 0.676896 0.703986
C13_12 C 0.4895(3) 0.6354(3) 0.6897(2)
H6_12 H 0.484987 0.627304 0.708158
C14_12 C 0.5367(3) 0.8383(4) 0.8870(2)
C15_12 C 0.5354(3) 0.8659(3) 0.8746(3)
H7_12 H 0.533238 0.882520 0.886748
C16_12 C 0.5373(3) 0.8691(3) 0.8446(4)
C17_12 C 0.5404(3) 0.8448(4) 0.8269(2)
C18_12 C 0.5417(3) 0.8172(3) 0.8392(3)
H8_12 H 0.543889 0.800544 0.827137
C19_12 C 0.5399(3) 0.8139(3) 0.8693(3)
H9_12 H 0.540736 0.795043 0.877699
C20_12 C 0.5288(4) 0.9780(4) 0.8165(5)
C21_12 C 0.5327(3) 0.9454(2) 0.8093(3)
C22_12 C 0.5346(3) 0.9358(3) 0.7807(3)
H10_12 H 0.534136 0.949389 0.765138
C23_12 C 0.5370(3) 0.9062(4) 0.7748(2)
H11_12 H 0.538289 0.899576 0.755234
C24_12 C 0.5377(3) 0.8862(2) 0.7976(3)
C25_12 C 0.5359(3) 0.8958(3) 0.8262(3)
C26_12 C 0.5334(3) 0.9254(3) 0.8321(2)
H12_12 H 0.532136 0.932021 0.851651
C27_12 C 0.4805(4) 0.5854(4) 0.6694(4)
C28_12 C 0.5367(6) 0.8316(4) 0.9204(4)
C29_12 C 0.5316(6) 0.7969(4) 0.7300(4)
C30_12 C 0.5094(4) 0.8169(6) 0.7344(4)
H13_12 H 0.492694 0.816705 0.722144
C31_12 C 0.5115(5) 0.8374(5) 0.7566(5)
H14_12 H 0.496295 0.851055 0.759612
C32_12 C 0.5359(6) 0.8377(4) 0.7746(4)
C33_12 C 0.5582(4) 0.8177(6) 0.7702(4)
H15_12 H 0.574840 0.817903 0.782455
C34_12 C 0.5560(5) 0.7973(5) 0.7480(5)
H16_12 H 0.571239 0.783553 0.744988
C35_12 C 0.5188(5) 0.7273(4) 0.6695(4)
C36_12 C 0.5427(4) 0.7275(4) 0.6882(5)
H17_12 H 0.557615 0.713397 0.686005
C37_12 C 0.5447(4) 0.7485(5) 0.7100(5)
H18_12 H 0.560947 0.748589 0.722708
C38_12 C 0.5228(5) 0.7692(4) 0.7131(4)
C39_12 C 0.4990(4) 0.7689(4) 0.6945(5)
H19_12 H 0.484019 0.783098 0.696603
C40_12 C 0.4970(4) 0.7480(5) 0.6726(5)
H20_12 H 0.480687 0.747905 0.659900
Ni5_12 Ni 0.52687(5) 0.85147(5) 0.97931(5)
Ni8_12 Ni 0.53690(7) 0.79476(5) 0.97056(6)
O9_13 O 0.7481(2) 0.0375(4) 0.0433(3)
O10_13 O 0.6067(3) 0.0135(3) 0.0205(3)
O11_7 O 0.6460(2) 0.0158(2) 0.0693(3)
O12_7 O 0.6967(3) 0.0249(3) 0.0775(3)
H21_13 H 0.597707 0.0309043 0.0113438
H22_13 H 0.597093 0.00955895 0.0394683
H23_13 H 0.75983 0.021794 0.0341703
H24_13 H 0.752219 0.0381671 0.0645181
O1_13 O 0.6571(3) 0.0268(2) 0.9868(3)
O2_13 O 0.7075(3) 0.0301(3) 0.9922(5)
O5_5 O 0.9802(3) 0.0230(2) 0.6581(3)
O6_5 O 0.9863(2) 0.0353(2) 0.7086(2)
N1_13 N 0.8502(4) 0.0097(4) 0.7022(4)
N2_13 N 0.7002(4) 0.0409(4) 0.8556(4)
C1_13 C 0.9714(4) 0.0264(5) 0.6862(4)
C2_13 C 0.9393(2) 0.0250(3) 0.6922(4)
C3_13 C 0.9203(4) 0.0152(3) 0.6708(2)
H1_13 H 0.927398 0.011310 0.651723
C4_13 C 0.8910(3) 0.0112(3) 0.6771(3)
C5_13 C 0.8806(2) 0.0169(3) 0.7050(4)
C6_13 C 0.8996(4) 0.0267(3) 0.7265(2)
H2_13 H 0.892497 0.030670 0.745500
C7_13 C 0.9289(3) 0.0308(3) 0.7201(3)
H3_13 H 0.941845 0.037482 0.734769
C10_13 C 0.8645(3) 0.0027(3) 0.6590(3)
C11_13 C 0.8399(4) 0.0026(3) 0.6767(2)
C14_13 C 0.6130(2) 0.0367(3) 0.8383(4)
C15_13 C 0.6254(3) 0.0354(3) 0.8659(3)
H7_13 H 0.613252 0.033238 0.882520
C16_13 C 0.6554(4) 0.0373(3) 0.8691(3)
C17_13 C 0.6731(2) 0.0404(3) 0.8448(4)
C18_13 C 0.6608(3) 0.0417(3) 0.8172(3)
H8_13 H 0.672863 0.043889 0.800544
C19_13 C 0.6307(3) 0.0399(3) 0.8139(3)
H9_13 H 0.622301 0.040736 0.795043
C20_13 C 0.6835(5) 0.0288(4) 0.9780(4)
C21_13 C 0.6907(3) 0.0327(3) 0.9454(2)
C22_13 C 0.7193(3) 0.0346(3) 0.9358(3)
H10_13 H 0.734862 0.034136 0.949389
C23_13 C 0.7252(2) 0.0370(3) 0.9062(4)
H11_13 H 0.744766 0.038289 0.899576
C24_13 C 0.7024(3) 0.0377(3) 0.8862(2)
C25_13 C 0.6738(3) 0.0359(3) 0.8958(3)
C26_13 C 0.6679(2) 0.0334(3) 0.9254(3)
H12_13 H 0.648349 0.032136 0.932021
C28_13 C 0.5796(4) 0.0367(6) 0.8316(4)
C29_13 C 0.7700(4) 0.0316(6) 0.7969(4)
C30_13 C 0.7656(4) 0.0094(4) 0.8169(6)
C31_13 C 0.7434(5) 0.0115(5) 0.8374(5)
C32_13 C 0.7254(4) 0.0359(6) 0.8377(4)
C33_13 C 0.7298(4) 0.0582(4) 0.8177(6)
H15_13 H 0.717545 0.074840 0.817903
C34_13 C 0.7520(5) 0.0560(5) 0.7973(5)
H16_13 H 0.755012 0.071239 0.783553
C35_13 C 0.8305(4) 0.0188(5) 0.7273(4)
C36_13 C 0.8118(5) 0.0427(4) 0.7275(4)
H17_13 H 0.813995 0.057615 0.713397
C37_13 C 0.7900(5) 0.0447(4) 0.7485(5)
H18_13 H 0.777292 0.060947 0.748589
C38_13 C 0.7869(4) 0.0228(5) 0.7692(4)
O13_9 O 0.6581(3) 0.9802(3) 0.0230(2)
O14_9 O 0.7086(2) 0.9863(2) 0.0353(2)
O3_7 O 0.8540(2) 0.9842(2) 0.5693(3)
O4_7 O 0.8033(3) 0.9751(3) 0.5775(3)
C8_13 C 0.8349(3) 0.9896(3) 0.6177(2)
C9_13 C 0.8620(3) 0.9962(3) 0.6296(3)
H4_13 H 0.878833 0.996242 0.617501
C12_13 C 0.8128(3) 0.9960(3) 0.6648(3)
H5_13 H 0.796014 0.995941 0.676896
C13_13 C 0.8103(2) 0.9895(3) 0.6354(3)
H6_13 H 0.791842 0.984987 0.627304
C27_13 C 0.8306(4) 0.9805(4) 0.5854(4)
H13_13 H 0.777856 0.992694 0.816705
H14_13 H 0.740388 0.996295 0.851055
C39_13 C 0.8055(5) 0.9990(4) 0.7689(4)
H19_13 H 0.803397 0.984019 0.783098
C40_13 C 0.8274(5) 0.9970(4) 0.7480(5)
H20_13 H 0.840100 0.980687 0.747905
C8_14 C 0.6651(3) 0.0104(3) 0.1177(2)
C9_14 C 0.6380(3) 0.0038(3) 0.1296(3)
H4_14 H 0.621167 0.003758 0.117501
C12_14 C 0.6872(3) 0.0040(3) 0.1648(3)
H5_14 H 0.703986 0.004059 0.176896
C13_14 C 0.6897(2) 0.0105(3) 0.1354(3)
H6_14 H 0.708158 0.015013 0.127304
C27_14 C 0.6694(4) 0.0195(4) 0.0854(4)
H13_14 H 0.722144 0.007306 0.316705
H14_14 H 0.759612 0.003705 0.351055
C39_14 C 0.6945(5) 0.0010(4) 0.2689(4)
H19_14 H 0.696603 0.015981 0.283098
C40_14 C 0.6726(5) 0.0030(4) 0.2480(5)
H20_14 H 0.659900 0.019313 0.247905
O13_10 O 0.8419(3) 0.0198(3) 0.5230(2)
O14_10 O 0.7914(2) 0.0137(2) 0.5353(2)
O1_14 O 0.8429(3) 0.9732(2) 0.4868(3)
O2_14 O 0.7925(3) 0.9699(3) 0.4922(5)
O5_6 O 0.5198(3) 0.9770(2) 0.1581(3)
O6_6 O 0.5137(2) 0.9647(2) 0.2086(2)
O9_14 O 0.7519(2) 0.9625(4) 0.5433(3)
O10_14 O 0.8933(3) 0.9865(3) 0.5205(3)
N1_14 N 0.6498(4) 0.9903(4) 0.2022(4)
N2_14 N 0.7998(4) 0.9591(4) 0.3556(4)
C1_14 C 0.5286(4) 0.9736(5) 0.1862(4)
C2_14 C 0.5607(2) 0.9750(3) 0.1922(4)
C3_14 C 0.5797(4) 0.9848(3) 0.1708(2)
H1_14 H 0.572602 0.988690 0.151723
C4_14 C 0.6090(3) 0.9888(3) 0.1771(3)
C5_14 C 0.6194(2) 0.9831(3) 0.2050(4)
C6_14 C 0.6004(4) 0.9733(3) 0.2265(2)
H2_14 H 0.607503 0.969330 0.245500
C7_14 C 0.5711(3) 0.9692(3) 0.2201(3)
H3_14 H 0.558155 0.962518 0.234769
C10_14 C 0.6355(3) 0.9973(3) 0.1590(3)
C11_14 C 0.6601(4) 0.9974(3) 0.1767(2)
C14_14 C 0.8870(2) 0.9633(3) 0.3383(4)
C15_14 C 0.8746(3) 0.9646(3) 0.3659(3)
H7_14 H 0.886748 0.966762 0.382520
C16_14 C 0.8446(4) 0.9627(3) 0.3691(3)
C17_14 C 0.8269(2) 0.9596(3) 0.3448(4)
C18_14 C 0.8392(3) 0.9583(3) 0.3172(3)
H8_14 H 0.827137 0.956111 0.300544
C19_14 C 0.8693(3) 0.9601(3) 0.3139(3)
H9_14 H 0.877699 0.959264 0.295043
C20_14 C 0.8165(5) 0.9712(4) 0.4780(4)
C21_14 C 0.8093(3) 0.9673(3) 0.4454(2)
C22_14 C 0.7807(3) 0.9654(3) 0.4358(3)
H10_14 H 0.765138 0.965864 0.449389
C23_14 C 0.7748(2) 0.9630(3) 0.4062(4)
H11_14 H 0.755234 0.961711 0.399576
C24_14 C 0.7976(3) 0.9623(3) 0.3862(2)
C25_14 C 0.8262(3) 0.9641(3) 0.3958(3)
C26_14 C 0.8321(2) 0.9666(3) 0.4254(3)
H12_14 H 0.851651 0.967864 0.432021
C28_14 C 0.9204(4) 0.9633(6) 0.3316(4)
C29_14 C 0.7300(4) 0.9684(6) 0.2969(4)
C30_14 C 0.7344(4) 0.9906(4) 0.3169(6)
C31_14 C 0.7566(5) 0.9885(5) 0.3374(5)
C32_14 C 0.7746(4) 0.9641(6) 0.3377(4)
C33_14 C 0.7702(4) 0.9418(4) 0.3177(6)
H15_14 H 0.782455 0.925160 0.317903
C34_14 C 0.7480(5) 0.9440(5) 0.2973(5)
H16_14 H 0.744988 0.928761 0.283553
C35_14 C 0.6695(4) 0.9812(5) 0.2273(4)
C36_14 C 0.6882(5) 0.9573(4) 0.2275(4)
H17_14 H 0.686005 0.942385 0.213397
C37_14 C 0.7100(5) 0.9553(4) 0.2485(5)
H18_14 H 0.722708 0.939053 0.248589
C38_14 C 0.7131(4) 0.9772(5) 0.2692(4)
H21_14 H 0.902293 0.969096 0.511344
H22_14 H 0.902907 0.990441 0.539468
H23_14 H 0.74017 0.978206 0.53417
H24_14 H 0.747781 0.961833 0.564518
O1_15 O 0.3429(3) 0.5268(2) 0.5132(3)
O2_15 O 0.2925(3) 0.5301(3) 0.5078(5)
O3_8 O 0.1460(2) 0.4842(2) 0.9307(3)
O4_8 O 0.1967(3) 0.4751(3) 0.9225(3)
O5_7 O 0.0198(3) 0.5230(2) 0.8419(3)
O6_7 O 0.0137(2) 0.5353(2) 0.7914(2)
O9_15 O 0.2519(2) 0.5375(4) 0.4567(3)
O10_15 O 0.3933(3) 0.5135(3) 0.4795(3)
N1_15 N 0.1498(4) 0.5097(4) 0.7978(4)
N2_15 N 0.2998(4) 0.5409(4) 0.6444(4)
C1_15 C 0.0286(4) 0.5264(5) 0.8138(4)
C2_15 C 0.0607(2) 0.5250(3) 0.8078(4)
C3_15 C 0.0797(4) 0.5152(3) 0.8292(2)
H1_15 H 0.072602 0.511310 0.848277
C4_15 C 0.1090(3) 0.5112(3) 0.8229(3)
C5_15 C 0.1194(2) 0.5169(3) 0.7950(4)
C6_15 C 0.1004(4) 0.5267(3) 0.7735(2)
H2_15 H 0.107503 0.530670 0.754500
C7_15 C 0.0711(3) 0.5308(3) 0.7799(3)
H3_15 H 0.058155 0.537482 0.765231
C8_15 C 0.1651(3) 0.4896(3) 0.8823(2)
C9_15 C 0.1380(3) 0.4962(3) 0.8704(3)
H4_15 H 0.121167 0.496242 0.882499
C10_15 C 0.1355(3) 0.5027(3) 0.8410(3)
C11_15 C 0.1601(4) 0.5026(3) 0.8233(2)
C12_15 C 0.1872(3) 0.4960(3) 0.8352(3)
H5_15 H 0.203986 0.495941 0.823104
C13_15 C 0.1897(2) 0.4895(3) 0.8646(3)
H6_15 H 0.208158 0.484987 0.872696
C14_15 C 0.3870(2) 0.5367(3) 0.6617(4)
C15_15 C 0.3746(3) 0.5354(3) 0.6341(3)
H7_15 H 0.386748 0.533238 0.617480
C16_15 C 0.3446(4) 0.5373(3) 0.6309(3)
C17_15 C 0.3269(2) 0.5404(3) 0.6552(4)
C18_15 C 0.3392(3) 0.5417(3) 0.6828(3)
H8_15 H 0.327137 0.543889 0.699456
C19_15 C 0.3693(3) 0.5399(3) 0.6861(3)
H9_15 H 0.377699 0.540736 0.704957
C20_15 C 0.3165(5) 0.5288(4) 0.5220(4)
C21_15 C 0.3093(3) 0.5327(3) 0.5546(2)
C22_15 C 0.2807(3) 0.5346(3) 0.5642(3)
H10_15 H 0.265138 0.534136 0.550611
C23_15 C 0.2748(2) 0.5370(3) 0.5938(4)
H11_15 H 0.255234 0.538289 0.600424
C24_15 C 0.2976(3) 0.5377(3) 0.6138(2)
C25_15 C 0.3262(3) 0.5359(3) 0.6042(3)
C26_15 C 0.3321(2) 0.5334(3) 0.5746(3)
H12_15 H 0.351651 0.532136 0.567979
C27_15 C 0.1694(4) 0.4805(4) 0.9146(4)
C28_15 C 0.4204(4) 0.5367(6) 0.6684(4)
C29_15 C 0.2300(4) 0.5316(6) 0.7031(4)
C30_15 C 0.2344(4) 0.5094(4) 0.6831(6)
H13_15 H 0.222144 0.492694 0.683295
C31_15 C 0.2566(5) 0.5115(5) 0.6626(5)
H14_15 H 0.259612 0.496295 0.648945
C32_15 C 0.2746(4) 0.5359(6) 0.6623(4)
C33_15 C 0.2702(4) 0.5582(4) 0.6823(6)
H15_15 H 0.282455 0.574840 0.682097
C34_15 C 0.2480(5) 0.5560(5) 0.7027(5)
H16_15 H 0.244988 0.571239 0.716447
C35_15 C 0.1695(4) 0.5188(5) 0.7727(4)
C36_15 C 0.1882(5) 0.5427(4) 0.7725(4)
H17_15 H 0.186005 0.557615 0.786603
C37_15 C 0.2100(5) 0.5447(4) 0.7515(5)
H18_15 H 0.222708 0.560947 0.751411
C38_15 C 0.2131(4) 0.5228(5) 0.7308(4)
C39_15 C 0.1945(5) 0.4990(4) 0.7311(4)
H19_15 H 0.196603 0.484019 0.716902
C40_15 C 0.1726(5) 0.4970(4) 0.7520(5)
H20_15 H 0.159900 0.480687 0.752095
O11_8 O 0.3540(2) 0.5158(2) 0.4307(3)
O12_8 O 0.3033(3) 0.5249(3) 0.4225(3)
O13_11 O 0.3419(3) 0.4802(3) 0.4770(2)
O14_11 O 0.2914(2) 0.4863(2) 0.4647(2)
H21_15 H 0.402293 0.530904 0.488656
H22_15 H 0.402907 0.509559 0.460532
H23_15 H 0.24017 0.521794 0.46583
H24_15 H 0.247781 0.538167 0.435482
O1_16 O 0.1571(3) 0.4732(2) 0.0132(3)
O2_16 O 0.2075(3) 0.4699(3) 0.0078(5)
O5_8 O 0.4802(3) 0.4770(2) 0.3419(3)
O6_8 O 0.4863(2) 0.4647(2) 0.2914(2)
N1_16 N 0.3502(4) 0.4903(4) 0.2978(4)
N2_16 N 0.2002(4) 0.4591(4) 0.1444(4)
C1_16 C 0.4714(4) 0.4736(5) 0.3138(4)
C2_16 C 0.4393(2) 0.4750(3) 0.3078(4)
C3_16 C 0.4203(4) 0.4848(3) 0.3292(2)
H1_16 H 0.427398 0.488690 0.348277
C4_16 C 0.3910(3) 0.4888(3) 0.3229(3)
C5_16 C 0.3806(2) 0.4831(3) 0.2950(4)
C6_16 C 0.3996(4) 0.4733(3) 0.2735(2)
H2_16 H 0.392497 0.469330 0.254500
C7_16 C 0.4289(3) 0.4692(3) 0.2799(3)
H3_16 H 0.441845 0.462518 0.265231
C8_16 C 0.3349(3) 0.5104(3) 0.3823(2)
C9_16 C 0.3620(3) 0.5038(3) 0.3704(3)
H4_16 H 0.378833 0.503758 0.382499
C10_16 C 0.3645(3) 0.4973(3) 0.3410(3)
C11_16 C 0.3399(4) 0.4974(3) 0.3233(2)
C12_16 C 0.3128(3) 0.5040(3) 0.3352(3)
H5_16 H 0.296014 0.504059 0.323104
C13_16 C 0.3103(2) 0.5105(3) 0.3646(3)
H6_16 H 0.291842 0.515013 0.372696
C14_16 C 0.1130(2) 0.4633(3) 0.1617(4)
C15_16 C 0.1254(3) 0.4646(3) 0.1341(3)
H7_16 H 0.113252 0.466762 0.117480
C16_16 C 0.1554(4) 0.4627(3) 0.1309(3)
C17_16 C 0.1731(2) 0.4596(3) 0.1552(4)
C18_16 C 0.1608(3) 0.4583(3) 0.1828(3)
H8_16 H 0.172863 0.456111 0.199456
C19_16 C 0.1307(3) 0.4601(3) 0.1861(3)
H9_16 H 0.122301 0.459264 0.204957
C20_16 C 0.1835(5) 0.4712(4) 0.0220(4)
C21_16 C 0.1907(3) 0.4673(3) 0.0546(2)
C22_16 C 0.2193(3) 0.4654(3) 0.0642(3)
H10_16 H 0.234862 0.465864 0.050611
C23_16 C 0.2252(2) 0.4630(3) 0.0938(4)
H11_16 H 0.244766 0.461711 0.100424
C24_16 C 0.2024(3) 0.4623(3) 0.1138(2)
C25_16 C 0.1738(3) 0.4641(3) 0.1042(3)
C26_16 C 0.1679(2) 0.4666(3) 0.0746(3)
H12_16 H 0.148349 0.467864 0.067979
C27_16 C 0.3306(4) 0.5195(4) 0.4146(4)
C28_16 C 0.0796(4) 0.4633(6) 0.1684(4)
C29_16 C 0.2700(4) 0.4684(6) 0.2031(4)
C30_16 C 0.2656(4) 0.4906(4) 0.1831(6)
H13_16 H 0.277856 0.507306 0.183295
C31_16 C 0.2434(5) 0.4885(5) 0.1626(5)
H14_16 H 0.240388 0.503705 0.148945
C32_16 C 0.2254(4) 0.4641(6) 0.1623(4)
C33_16 C 0.2298(4) 0.4418(4) 0.1823(6)
H15_16 H 0.217545 0.425160 0.182097
C34_16 C 0.2520(5) 0.4440(5) 0.2027(5)
H16_16 H 0.255012 0.428761 0.216447
C35_16 C 0.3305(4) 0.4812(5) 0.2727(4)
C36_16 C 0.3118(5) 0.4573(4) 0.2725(4)
H17_16 H 0.313995 0.442385 0.286603
C37_16 C 0.2900(5) 0.4553(4) 0.2515(5)
H18_16 H 0.277292 0.439053 0.251411
C38_16 C 0.2869(4) 0.4772(5) 0.2308(4)
C39_16 C 0.3055(5) 0.5010(4) 0.2311(4)
H19_16 H 0.303397 0.515981 0.216902
C40_16 C 0.3274(5) 0.5030(4) 0.2520(5)
H20_16 H 0.340100 0.519313 0.252095
O9_16 O 0.2481(2) 0.4625(4) 0.9567(3)
O10_16 O 0.1067(3) 0.4865(3) 0.9795(3)
O13_12 O 0.1581(3) 0.5198(3) 0.9770(2)
O14_12 O 0.2086(2) 0.5137(2) 0.9647(2)
H21_16 H 0.097707 0.469096 0.988656
H22_16 H 0.0970931 0.490441 0.960532
H23_16 H 0.25983 0.478206 0.96583
H24_16 H 0.252219 0.461833 0.935482
O9_17 O 0.0433(3) 0.7481(2) 0.0375(4)
O10_17 O 0.0205(3) 0.6067(3) 0.0135(3)
O11_9 O 0.0693(3) 0.6460(2) 0.0158(2)
O12_9 O 0.0775(3) 0.6967(3) 0.0249(3)
H21_17 H 0.0113438 0.597707 0.0309043
H22_17 H 0.0394683 0.597093 0.00955895
H23_17 H 0.0341703 0.75983 0.021794
H24_17 H 0.0645181 0.752219 0.0381671
O13_13 O 0.0230(2) 0.6581(3) 0.9802(3)
O14_13 O 0.0353(2) 0.7086(2) 0.9863(2)
O1_17 O 0.9868(3) 0.6571(3) 0.0268(2)
O2_17 O 0.9922(5) 0.7075(3) 0.0301(3)
N1_17 N 0.7022(4) 0.8502(4) 0.0097(4)
N2_17 N 0.8556(4) 0.7002(4) 0.0409(4)
C1_17 C 0.6862(4) 0.9714(4) 0.0264(5)
C2_17 C 0.6922(4) 0.9393(2) 0.0250(3)
C3_17 C 0.6708(2) 0.9203(4) 0.0152(3)
H1_17 H 0.651723 0.927398 0.011310
C4_17 C 0.6771(3) 0.8910(3) 0.0112(3)
C5_17 C 0.7050(4) 0.8806(2) 0.0169(3)
C6_17 C 0.7265(2) 0.8996(4) 0.0267(3)
H2_17 H 0.745500 0.892497 0.030670
C7_17 C 0.7201(3) 0.9289(3) 0.0308(3)
H3_17 H 0.734769 0.941845 0.037482
C10_17 C 0.6590(3) 0.8645(3) 0.0027(3)
C11_17 C 0.6767(2) 0.8399(4) 0.0026(3)
C14_17 C 0.8383(4) 0.6130(2) 0.0367(3)
C15_17 C 0.8659(3) 0.6254(3) 0.0354(3)
H7_17 H 0.882520 0.613252 0.033238
C16_17 C 0.8691(3) 0.6554(4) 0.0373(3)
C17_17 C 0.8448(4) 0.6731(2) 0.0404(3)
C18_17 C 0.8172(3) 0.6608(3) 0.0417(3)
H8_17 H 0.800544 0.672863 0.043889
C19_17 C 0.8139(3) 0.6307(3) 0.0399(3)
H9_17 H 0.795043 0.622301 0.040736
C20_17 C 0.9780(4) 0.6835(5) 0.0288(4)
C21_17 C 0.9454(2) 0.6907(3) 0.0327(3)
C22_17 C 0.9358(3) 0.7193(3) 0.0346(3)
H10_17 H 0.949389 0.734862 0.034136
C23_17 C 0.9062(4) 0.7252(2) 0.0370(3)
H11_17 H 0.899576 0.744766 0.038289
C24_17 C 0.8862(2) 0.7024(3) 0.0377(3)
C25_17 C 0.8958(3) 0.6738(3) 0.0359(3)
C26_17 C 0.9254(3) 0.6679(2) 0.0334(3)
H12_17 H 0.932021 0.648349 0.032136
C28_17 C 0.8316(4) 0.5796(4) 0.0367(6)
C29_17 C 0.7969(4) 0.7700(4) 0.0316(6)
C30_17 C 0.8169(6) 0.7656(4) 0.0094(4)
C31_17 C 0.8374(5) 0.7434(5) 0.0115(5)
C32_17 C 0.8377(4) 0.7254(4) 0.0359(6)
C33_17 C 0.8177(6) 0.7298(4) 0.0582(4)
H15_17 H 0.817903 0.717545 0.074840
C34_17 C 0.7973(5) 0.7520(5) 0.0560(5)
H16_17 H 0.783553 0.755012 0.071239
C35_17 C 0.7273(4) 0.8305(4) 0.0188(5)
C36_17 C 0.7275(4) 0.8118(5) 0.0427(4)
H17_17 H 0.713397 0.813995 0.057615
C37_17 C 0.7485(5) 0.7900(5) 0.0447(4)
H18_17 H 0.748589 0.777292 0.060947
C38_17 C 0.7692(4) 0.7869(4) 0.0228(5)
O3_9 O 0.5693(3) 0.8540(2) 0.9842(2)
O4_9 O 0.5775(3) 0.8033(3) 0.9751(3)
C8_17 C 0.6177(2) 0.8349(3) 0.9896(3)
C9_17 C 0.6296(3) 0.8620(3) 0.9962(3)
H4_17 H 0.617501 0.878833 0.996242
C12_17 C 0.6648(3) 0.8128(3) 0.9960(3)
H5_17 H 0.676896 0.796014 0.995941
C13_17 C 0.6354(3) 0.8103(2) 0.9895(3)
H6_17 H 0.627304 0.791842 0.984987
C27_17 C 0.5854(4) 0.8306(4) 0.9805(4)
H13_17 H 0.816705 0.777856 0.992694
H14_17 H 0.851055 0.740388 0.996295
C39_17 C 0.7689(4) 0.8055(5) 0.9990(4)
H19_17 H 0.783098 0.803397 0.984019
C40_17 C 0.7480(5) 0.8274(5) 0.9970(4)
H20_17 H 0.747905 0.840100 0.980687
C8_18 C 0.1177(2) 0.6651(3) 0.0104(3)
C9_18 C 0.1296(3) 0.6380(3) 0.0038(3)
H4_18 H 0.117501 0.621167 0.003758
C12_18 C 0.1648(3) 0.6872(3) 0.0040(3)
H5_18 H 0.176896 0.703986 0.004059
C13_18 C 0.1354(3) 0.6897(2) 0.0105(3)
H6_18 H 0.127304 0.708158 0.015013
C27_18 C 0.0854(4) 0.6694(4) 0.0195(4)
H13_18 H 0.316705 0.722144 0.007306
H14_18 H 0.351055 0.759612 0.003705
C39_18 C 0.2689(4) 0.6945(5) 0.0010(4)
H19_18 H 0.283098 0.696603 0.015981
C40_18 C 0.2480(5) 0.6726(5) 0.0030(4)
H20_18 H 0.247905 0.659900 0.019313
O13_14 O 0.5230(2) 0.8419(3) 0.0198(3)
O14_14 O 0.5353(2) 0.7914(2) 0.0137(2)
O1_18 O 0.4868(3) 0.8429(3) 0.9732(2)
O2_18 O 0.4922(5) 0.7925(3) 0.9699(3)
O9_18 O 0.5433(3) 0.7519(2) 0.9625(4)
O10_18 O 0.5205(3) 0.8933(3) 0.9865(3)
N1_18 N 0.2022(4) 0.6498(4) 0.9903(4)
N2_18 N 0.3556(4) 0.7998(4) 0.9591(4)
C1_18 C 0.1862(4) 0.5286(4) 0.9736(5)
C2_18 C 0.1922(4) 0.5607(2) 0.9750(3)
C3_18 C 0.1708(2) 0.5797(4) 0.9848(3)
H1_18 H 0.151723 0.572602 0.988690
C4_18 C 0.1771(3) 0.6090(3) 0.9888(3)
C5_18 C 0.2050(4) 0.6194(2) 0.9831(3)
C6_18 C 0.2265(2) 0.6004(4) 0.9733(3)
H2_18 H 0.245500 0.607503 0.969330
C7_18 C 0.2201(3) 0.5711(3) 0.9692(3)
H3_18 H 0.234769 0.558155 0.962518
C10_18 C 0.1590(3) 0.6355(3) 0.9973(3)
C11_18 C 0.1767(2) 0.6601(4) 0.9974(3)
C14_18 C 0.3383(4) 0.8870(2) 0.9633(3)
C15_18 C 0.3659(3) 0.8746(3) 0.9646(3)
H7_18 H 0.382520 0.886748 0.966762
C16_18 C 0.3691(3) 0.8446(4) 0.9627(3)
C17_18 C 0.3448(4) 0.8269(2) 0.9596(3)
C18_18 C 0.3172(3) 0.8392(3) 0.9583(3)
H8_18 H 0.300544 0.827137 0.956111
C19_18 C 0.3139(3) 0.8693(3) 0.9601(3)
H9_18 H 0.295043 0.877699 0.959264
C20_18 C 0.4780(4) 0.8165(5) 0.9712(4)
C21_18 C 0.4454(2) 0.8093(3) 0.9673(3)
C22_18 C 0.4358(3) 0.7807(3) 0.9654(3)
H10_18 H 0.449389 0.765138 0.965864
C23_18 C 0.4062(4) 0.7748(2) 0.9630(3)
H11_18 H 0.399576 0.755234 0.961711
C24_18 C 0.3862(2) 0.7976(3) 0.9623(3)
C25_18 C 0.3958(3) 0.8262(3) 0.9641(3)
C26_18 C 0.4254(3) 0.8321(2) 0.9666(3)
H12_18 H 0.432021 0.851651 0.967864
C28_18 C 0.3316(4) 0.9204(4) 0.9633(6)
C29_18 C 0.2969(4) 0.7300(4) 0.9684(6)
C30_18 C 0.3169(6) 0.7344(4) 0.9906(4)
C31_18 C 0.3374(5) 0.7566(5) 0.9885(5)
C32_18 C 0.3377(4) 0.7746(4) 0.9641(6)
C33_18 C 0.3177(6) 0.7702(4) 0.9418(4)
H15_18 H 0.317903 0.782455 0.925160
C34_18 C 0.2973(5) 0.7480(5) 0.9440(5)
H16_18 H 0.283553 0.744988 0.928761
C35_18 C 0.2273(4) 0.6695(4) 0.9812(5)
C36_18 C 0.2275(4) 0.6882(5) 0.9573(4)
H17_18 H 0.213397 0.686005 0.942385
C37_18 C 0.2485(5) 0.7100(5) 0.9553(4)
H18_18 H 0.248589 0.722708 0.939053
C38_18 C 0.2692(4) 0.7131(4) 0.9772(5)
H21_18 H 0.511344 0.902293 0.969096
H22_18 H 0.539468 0.902907 0.990441
H23_18 H 0.53417 0.74017 0.978206
H24_18 H 0.564518 0.747781 0.961833
O1_19 O 0.5132(3) 0.3429(3) 0.5268(2)
O2_19 O 0.5078(5) 0.2925(3) 0.5301(3)
O3_10 O 0.9307(3) 0.1460(2) 0.4842(2)
O4_10 O 0.9225(3) 0.1967(3) 0.4751(3)
O9_19 O 0.4567(3) 0.2519(2) 0.5375(4)
O10_19 O 0.4795(3) 0.3933(3) 0.5135(3)
N1_19 N 0.7978(4) 0.1498(4) 0.5097(4)
N2_19 N 0.6444(4) 0.2998(4) 0.5409(4)
C1_19 C 0.8138(4) 0.0286(4) 0.5264(5)
C2_19 C 0.8078(4) 0.0607(2) 0.5250(3)
C3_19 C 0.8292(2) 0.0797(4) 0.5152(3)
H1_19 H 0.848277 0.072602 0.511310
C4_19 C 0.8229(3) 0.1090(3) 0.5112(3)
C5_19 C 0.7950(4) 0.1194(2) 0.5169(3)
C6_19 C 0.7735(2) 0.1004(4) 0.5267(3)
H2_19 H 0.754500 0.107503 0.530670
C7_19 C 0.7799(3) 0.0711(3) 0.5308(3)
H3_19 H 0.765231 0.058155 0.537482
C8_19 C 0.8823(2) 0.1651(3) 0.4896(3)
C9_19 C 0.8704(3) 0.1380(3) 0.4962(3)
H4_19 H 0.882499 0.121167 0.496242
C10_19 C 0.8410(3) 0.1355(3) 0.5027(3)
C11_19 C 0.8233(2) 0.1601(4) 0.5026(3)
C12_19 C 0.8352(3) 0.1872(3) 0.4960(3)
H5_19 H 0.823104 0.203986 0.495941
C13_19 C 0.8646(3) 0.1897(2) 0.4895(3)
H6_19 H 0.872696 0.208158 0.484987
C14_19 C 0.6617(4) 0.3870(2) 0.5367(3)
C15_19 C 0.6341(3) 0.3746(3) 0.5354(3)
H7_19 H 0.617480 0.386748 0.533238
C16_19 C 0.6309(3) 0.3446(4) 0.5373(3)
C17_19 C 0.6552(4) 0.3269(2) 0.5404(3)
C18_19 C 0.6828(3) 0.3392(3) 0.5417(3)
H8_19 H 0.699456 0.327137 0.543889
C19_19 C 0.6861(3) 0.3693(3) 0.5399(3)
H9_19 H 0.704957 0.377699 0.540736
C20_19 C 0.5220(4) 0.3165(5) 0.5288(4)
C21_19 C 0.5546(2) 0.3093(3) 0.5327(3)
C22_19 C 0.5642(3) 0.2807(3) 0.5346(3)
H10_19 H 0.550611 0.265138 0.534136
C23_19 C 0.5938(4) 0.2748(2) 0.5370(3)
H11_19 H 0.600424 0.255234 0.538289
C24_19 C 0.6138(2) 0.2976(3) 0.5377(3)
C25_19 C 0.6042(3) 0.3262(3) 0.5359(3)
C26_19 C 0.5746(3) 0.3321(2) 0.5334(3)
H12_19 H 0.567979 0.351651 0.532136
C27_19 C 0.9146(4) 0.1694(4) 0.4805(4)
C28_19 C 0.6684(4) 0.4204(4) 0.5367(6)
C29_19 C 0.7031(4) 0.2300(4) 0.5316(6)
C30_19 C 0.6831(6) 0.2344(4) 0.5094(4)
H13_19 H 0.683295 0.222144 0.492694
C31_19 C 0.6626(5) 0.2566(5) 0.5115(5)
H14_19 H 0.648945 0.259612 0.496295
C32_19 C 0.6623(4) 0.2746(4) 0.5359(6)
C33_19 C 0.6823(6) 0.2702(4) 0.5582(4)
H15_19 H 0.682097 0.282455 0.574840
C34_19 C 0.7027(5) 0.2480(5) 0.5560(5)
H16_19 H 0.716447 0.244988 0.571239
C35_19 C 0.7727(4) 0.1695(4) 0.5188(5)
C36_19 C 0.7725(4) 0.1882(5) 0.5427(4)
H17_19 H 0.786603 0.186005 0.557615
C37_19 C 0.7515(5) 0.2100(5) 0.5447(4)
H18_19 H 0.751411 0.222708 0.560947
C38_19 C 0.7308(4) 0.2131(4) 0.5228(5)
C39_19 C 0.7311(4) 0.1945(5) 0.4990(4)
H19_19 H 0.716902 0.196603 0.484019
C40_19 C 0.7520(5) 0.1726(5) 0.4970(4)
H20_19 H 0.752095 0.159900 0.480687
O11_10 O 0.4307(3) 0.3540(2) 0.5158(2)
O12_10 O 0.4225(3) 0.3033(3) 0.5249(3)
O13_15 O 0.4770(2) 0.3419(3) 0.4802(3)
O14_15 O 0.4647(2) 0.2914(2) 0.4863(2)
H21_19 H 0.488656 0.402293 0.530904
H22_19 H 0.460532 0.402907 0.509559
H23_19 H 0.46583 0.24017 0.521794
H24_19 H 0.435482 0.247781 0.538167
O1_20 O 0.0132(3) 0.1571(3) 0.4732(2)
O2_20 O 0.0078(5) 0.2075(3) 0.4699(3)
N1_20 N 0.2978(4) 0.3502(4) 0.4903(4)
N2_20 N 0.1444(4) 0.2002(4) 0.4591(4)
C1_20 C 0.3138(4) 0.4714(4) 0.4736(5)
C2_20 C 0.3078(4) 0.4393(2) 0.4750(3)
C3_20 C 0.3292(2) 0.4203(4) 0.4848(3)
H1_20 H 0.348277 0.427398 0.488690
C4_20 C 0.3229(3) 0.3910(3) 0.4888(3)
C5_20 C 0.2950(4) 0.3806(2) 0.4831(3)
C6_20 C 0.2735(2) 0.3996(4) 0.4733(3)
H2_20 H 0.254500 0.392497 0.469330
C7_20 C 0.2799(3) 0.4289(3) 0.4692(3)
H3_20 H 0.265231 0.441845 0.462518
C8_20 C 0.3823(2) 0.3349(3) 0.5104(3)
C9_20 C 0.3704(3) 0.3620(3) 0.5038(3)
H4_20 H 0.382499 0.378833 0.503758
C10_20 C 0.3410(3) 0.3645(3) 0.4973(3)
C11_20 C 0.3233(2) 0.3399(4) 0.4974(3)
C12_20 C 0.3352(3) 0.3128(3) 0.5040(3)
H5_20 H 0.323104 0.296014 0.504059
C13_20 C 0.3646(3) 0.3103(2) 0.5105(3)
H6_20 H 0.372696 0.291842 0.515013
C14_20 C 0.1617(4) 0.1130(2) 0.4633(3)
C15_20 C 0.1341(3) 0.1254(3) 0.4646(3)
H7_20 H 0.117480 0.113252 0.466762
C16_20 C 0.1309(3) 0.1554(4) 0.4627(3)
C17_20 C 0.1552(4) 0.1731(2) 0.4596(3)
C18_20 C 0.1828(3) 0.1608(3) 0.4583(3)
H8_20 H 0.199456 0.172863 0.456111
C19_20 C 0.1861(3) 0.1307(3) 0.4601(3)
H9_20 H 0.204957 0.122301 0.459264
C20_20 C 0.0220(4) 0.1835(5) 0.4712(4)
C21_20 C 0.0546(2) 0.1907(3) 0.4673(3)
C22_20 C 0.0642(3) 0.2193(3) 0.4654(3)
H10_20 H 0.050611 0.234862 0.465864
C23_20 C 0.0938(4) 0.2252(2) 0.4630(3)
H11_20 H 0.100424 0.244766 0.461711
C24_20 C 0.1138(2) 0.2024(3) 0.4623(3)
C25_20 C 0.1042(3) 0.1738(3) 0.4641(3)
C26_20 C 0.0746(3) 0.1679(2) 0.4666(3)
H12_20 H 0.067979 0.148349 0.467864
C27_20 C 0.4146(4) 0.3306(4) 0.5195(4)
C28_20 C 0.1684(4) 0.0796(4) 0.4633(6)
C29_20 C 0.2031(4) 0.2700(4) 0.4684(6)
C30_20 C 0.1831(6) 0.2656(4) 0.4906(4)
H13_20 H 0.183295 0.277856 0.507306
C31_20 C 0.1626(5) 0.2434(5) 0.4885(5)
H14_20 H 0.148945 0.240388 0.503705
C32_20 C 0.1623(4) 0.2254(4) 0.4641(6)
C33_20 C 0.1823(6) 0.2298(4) 0.4418(4)
H15_20 H 0.182097 0.217545 0.425160
C34_20 C 0.2027(5) 0.2520(5) 0.4440(5)
H16_20 H 0.216447 0.255012 0.428761
C35_20 C 0.2727(4) 0.3305(4) 0.4812(5)
C36_20 C 0.2725(4) 0.3118(5) 0.4573(4)
H17_20 H 0.286603 0.313995 0.442385
C37_20 C 0.2515(5) 0.2900(5) 0.4553(4)
H18_20 H 0.251411 0.277292 0.439053
C38_20 C 0.2308(4) 0.2869(4) 0.4772(5)
C39_20 C 0.2311(4) 0.3055(5) 0.5010(4)
H19_20 H 0.216902 0.303397 0.515981
C40_20 C 0.2520(5) 0.3274(5) 0.5030(4)
H20_20 H 0.252095 0.340100 0.519313
O9_20 O 0.9567(3) 0.2481(2) 0.4625(4)
O10_20 O 0.9795(3) 0.1067(3) 0.4865(3)
O13_16 O 0.9770(2) 0.1581(3) 0.5198(3)
O14_16 O 0.9647(2) 0.2086(2) 0.5137(2)
H21_20 H 0.988656 0.097707 0.469096
H22_20 H 0.960532 0.0970931 0.490441
H23_20 H 0.96583 0.25983 0.478206
H24_20 H 0.935482 0.252219 0.461833
O9_21 O 0.0375(4) 0.0433(3) 0.7481(2)
O10_21 O 0.0135(3) 0.0205(3) 0.6067(3)
O11_11 O 0.0158(2) 0.0693(3) 0.6460(2)
O12_11 O 0.0249(3) 0.0775(3) 0.6967(3)
H21_21 H 0.0309043 0.0113438 0.597707
H22_21 H 0.00955895 0.0394683 0.597093
H23_21 H 0.021794 0.0341703 0.75983
H24_21 H 0.0381671 0.0645181 0.752219
O1_21 O 0.0268(2) 0.9868(3) 0.6571(3)
O2_21 O 0.0301(3) 0.9922(5) 0.7075(3)
N1_21 N 0.0097(4) 0.7022(4) 0.8502(4)
N2_21 N 0.0409(4) 0.8556(4) 0.7002(4)
C1_21 C 0.0264(5) 0.6862(4) 0.9714(4)
C2_21 C 0.0250(3) 0.6922(4) 0.9393(2)
C3_21 C 0.0152(3) 0.6708(2) 0.9203(4)
H1_21 H 0.011310 0.651723 0.927398
C4_21 C 0.0112(3) 0.6771(3) 0.8910(3)
C5_21 C 0.0169(3) 0.7050(4) 0.8806(2)
C6_21 C 0.0267(3) 0.7265(2) 0.8996(4)
H2_21 H 0.030670 0.745500 0.892497
C7_21 C 0.0308(3) 0.7201(3) 0.9289(3)
H3_21 H 0.037482 0.734769 0.941845
C10_21 C 0.0027(3) 0.6590(3) 0.8645(3)
C11_21 C 0.0026(3) 0.6767(2) 0.8399(4)
C14_21 C 0.0367(3) 0.8383(4) 0.6130(2)
C15_21 C 0.0354(3) 0.8659(3) 0.6254(3)
H7_21 H 0.033238 0.882520 0.613252
C16_21 C 0.0373(3) 0.8691(3) 0.6554(4)
C17_21 C 0.0404(3) 0.8448(4) 0.6731(2)
C18_21 C 0.0417(3) 0.8172(3) 0.6608(3)
H8_21 H 0.043889 0.800544 0.672863
C19_21 C 0.0399(3) 0.8139(3) 0.6307(3)
H9_21 H 0.040736 0.795043 0.622301
C20_21 C 0.0288(4) 0.9780(4) 0.6835(5)
C21_21 C 0.0327(3) 0.9454(2) 0.6907(3)
C22_21 C 0.0346(3) 0.9358(3) 0.7193(3)
H10_21 H 0.034136 0.949389 0.734862
C23_21 C 0.0370(3) 0.9062(4) 0.7252(2)
H11_21 H 0.038289 0.899576 0.744766
C24_21 C 0.0377(3) 0.8862(2) 0.7024(3)
C25_21 C 0.0359(3) 0.8958(3) 0.6738(3)
C26_21 C 0.0334(3) 0.9254(3) 0.6679(2)
H12_21 H 0.032136 0.932021 0.648349
C28_21 C 0.0367(6) 0.8316(4) 0.5796(4)
C29_21 C 0.0316(6) 0.7969(4) 0.7700(4)
C30_21 C 0.0094(4) 0.8169(6) 0.7656(4)
C31_21 C 0.0115(5) 0.8374(5) 0.7434(5)
C32_21 C 0.0359(6) 0.8377(4) 0.7254(4)
C33_21 C 0.0582(4) 0.8177(6) 0.7298(4)
H15_21 H 0.074840 0.817903 0.717545
C34_21 C 0.0560(5) 0.7973(5) 0.7520(5)
H16_21 H 0.071239 0.783553 0.755012
C35_21 C 0.0188(5) 0.7273(4) 0.8305(4)
C36_21 C 0.0427(4) 0.7275(4) 0.8118(5)
H17_21 H 0.057615 0.713397 0.813995
C37_21 C 0.0447(4) 0.7485(5) 0.7900(5)
H18_21 H 0.060947 0.748589 0.777292
C38_21 C 0.0228(5) 0.7692(4) 0.7869(4)
O3_11 O 0.9842(2) 0.5693(3) 0.8540(2)
O4_11 O 0.9751(3) 0.5775(3) 0.8033(3)
C8_21 C 0.9896(3) 0.6177(2) 0.8349(3)
C9_21 C 0.9962(3) 0.6296(3) 0.8620(3)
H4_21 H 0.996242 0.617501 0.878833
C12_21 C 0.9960(3) 0.6648(3) 0.8128(3)
H5_21 H 0.995941 0.676896 0.796014
C13_21 C 0.9895(3) 0.6354(3) 0.8103(2)
H6_21 H 0.984987 0.627304 0.791842
C27_21 C 0.9805(4) 0.5854(4) 0.8306(4)
H13_21 H 0.992694 0.816705 0.777856
H14_21 H 0.996295 0.851055 0.740388
C39_21 C 0.9990(4) 0.7689(4) 0.8055(5)
H19_21 H 0.984019 0.783098 0.803397
C40_21 C 0.9970(4) 0.7480(5) 0.8274(5)
H20_21 H 0.980687 0.747905 0.840100
C8_22 C 0.0104(3) 0.1177(2) 0.6651(3)
C9_22 C 0.0038(3) 0.1296(3) 0.6380(3)
H4_22 H 0.003758 0.117501 0.621167
C12_22 C 0.0040(3) 0.1648(3) 0.6872(3)
H5_22 H 0.004059 0.176896 0.703986
C13_22 C 0.0105(3) 0.1354(3) 0.6897(2)
H6_22 H 0.015013 0.127304 0.708158
C27_22 C 0.0195(4) 0.0854(4) 0.6694(4)
H13_22 H 0.007306 0.316705 0.722144
H14_22 H 0.003705 0.351055 0.759612
C39_22 C 0.0010(4) 0.2689(4) 0.6945(5)
H19_22 H 0.015981 0.283098 0.696603
C40_22 C 0.0030(4) 0.2480(5) 0.6726(5)
H20_22 H 0.019313 0.247905 0.659900
O1_22 O 0.9732(2) 0.4868(3) 0.8429(3)
O2_22 O 0.9699(3) 0.4922(5) 0.7925(3)
O9_22 O 0.9625(4) 0.5433(3) 0.7519(2)
O10_22 O 0.9865(3) 0.5205(3) 0.8933(3)
N1_22 N 0.9903(4) 0.2022(4) 0.6498(4)
N2_22 N 0.9591(4) 0.3556(4) 0.7998(4)
C1_22 C 0.9736(5) 0.1862(4) 0.5286(4)
C2_22 C 0.9750(3) 0.1922(4) 0.5607(2)
C3_22 C 0.9848(3) 0.1708(2) 0.5797(4)
H1_22 H 0.988690 0.151723 0.572602
C4_22 C 0.9888(3) 0.1771(3) 0.6090(3)
C5_22 C 0.9831(3) 0.2050(4) 0.6194(2)
C6_22 C 0.9733(3) 0.2265(2) 0.6004(4)
H2_22 H 0.969330 0.245500 0.607503
C7_22 C 0.9692(3) 0.2201(3) 0.5711(3)
H3_22 H 0.962518 0.234769 0.558155
C10_22 C 0.9973(3) 0.1590(3) 0.6355(3)
C11_22 C 0.9974(3) 0.1767(2) 0.6601(4)
C14_22 C 0.9633(3) 0.3383(4) 0.8870(2)
C15_22 C 0.9646(3) 0.3659(3) 0.8746(3)
H7_22 H 0.966762 0.382520 0.886748
C16_22 C 0.9627(3) 0.3691(3) 0.8446(4)
C17_22 C 0.9596(3) 0.3448(4) 0.8269(2)
C18_22 C 0.9583(3) 0.3172(3) 0.8392(3)
H8_22 H 0.956111 0.300544 0.827137
C19_22 C 0.9601(3) 0.3139(3) 0.8693(3)
H9_22 H 0.959264 0.295043 0.877699
C20_22 C 0.9712(4) 0.4780(4) 0.8165(5)
C21_22 C 0.9673(3) 0.4454(2) 0.8093(3)
C22_22 C 0.9654(3) 0.4358(3) 0.7807(3)
H10_22 H 0.965864 0.449389 0.765138
C23_22 C 0.9630(3) 0.4062(4) 0.7748(2)
H11_22 H 0.961711 0.399576 0.755234
C24_22 C 0.9623(3) 0.3862(2) 0.7976(3)
C25_22 C 0.9641(3) 0.3958(3) 0.8262(3)
C26_22 C 0.9666(3) 0.4254(3) 0.8321(2)
H12_22 H 0.967864 0.432021 0.851651
C28_22 C 0.9633(6) 0.3316(4) 0.9204(4)
C29_22 C 0.9684(6) 0.2969(4) 0.7300(4)
C30_22 C 0.9906(4) 0.3169(6) 0.7344(4)
C31_22 C 0.9885(5) 0.3374(5) 0.7566(5)
C32_22 C 0.9641(6) 0.3377(4) 0.7746(4)
C33_22 C 0.9418(4) 0.3177(6) 0.7702(4)
H15_22 H 0.925160 0.317903 0.782455
C34_22 C 0.9440(5) 0.2973(5) 0.7480(5)
H16_22 H 0.928761 0.283553 0.744988
C35_22 C 0.9812(5) 0.2273(4) 0.6695(4)
C36_22 C 0.9573(4) 0.2275(4) 0.6882(5)
H17_22 H 0.942385 0.213397 0.686005
C37_22 C 0.9553(4) 0.2485(5) 0.7100(5)
H18_22 H 0.939053 0.248589 0.722708
C38_22 C 0.9772(5) 0.2692(4) 0.7131(4)
H21_22 H 0.969096 0.511344 0.902293
H22_22 H 0.990441 0.539468 0.902907
H23_22 H 0.978206 0.53417 0.74017
H24_22 H 0.961833 0.564518 0.747781
O1_23 O 0.5268(2) 0.5132(3) 0.3429(3)
O2_23 O 0.5301(3) 0.5078(5) 0.2925(3)
O3_12 O 0.4842(2) 0.9307(3) 0.1460(2)
O4_12 O 0.4751(3) 0.9225(3) 0.1967(3)
O9_23 O 0.5375(4) 0.4567(3) 0.2519(2)
O10_23 O 0.5135(3) 0.4795(3) 0.3933(3)
N1_23 N 0.5097(4) 0.7978(4) 0.1498(4)
N2_23 N 0.5409(4) 0.6444(4) 0.2998(4)
C1_23 C 0.5264(5) 0.8138(4) 0.0286(4)
C2_23 C 0.5250(3) 0.8078(4) 0.0607(2)
C3_23 C 0.5152(3) 0.8292(2) 0.0797(4)
H1_23 H 0.511310 0.848277 0.072602
C4_23 C 0.5112(3) 0.8229(3) 0.1090(3)
C5_23 C 0.5169(3) 0.7950(4) 0.1194(2)
C6_23 C 0.5267(3) 0.7735(2) 0.1004(4)
H2_23 H 0.530670 0.754500 0.107503
C7_23 C 0.5308(3) 0.7799(3) 0.0711(3)
H3_23 H 0.537482 0.765231 0.058155
C8_23 C 0.4896(3) 0.8823(2) 0.1651(3)
C9_23 C 0.4962(3) 0.8704(3) 0.1380(3)
H4_23 H 0.496242 0.882499 0.121167
C10_23 C 0.5027(3) 0.8410(3) 0.1355(3)
C11_23 C 0.5026(3) 0.8233(2) 0.1601(4)
C12_23 C 0.4960(3) 0.8352(3) 0.1872(3)
H5_23 H 0.495941 0.823104 0.203986
C13_23 C 0.4895(3) 0.8646(3) 0.1897(2)
H6_23 H 0.484987 0.872696 0.208158
C14_23 C 0.5367(3) 0.6617(4) 0.3870(2)
C15_23 C 0.5354(3) 0.6341(3) 0.3746(3)
H7_23 H 0.533238 0.617480 0.386748
C16_23 C 0.5373(3) 0.6309(3) 0.3446(4)
C17_23 C 0.5404(3) 0.6552(4) 0.3269(2)
C18_23 C 0.5417(3) 0.6828(3) 0.3392(3)
H8_23 H 0.543889 0.699456 0.327137
C19_23 C 0.5399(3) 0.6861(3) 0.3693(3)
H9_23 H 0.540736 0.704957 0.377699
C20_23 C 0.5288(4) 0.5220(4) 0.3165(5)
C21_23 C 0.5327(3) 0.5546(2) 0.3093(3)
C22_23 C 0.5346(3) 0.5642(3) 0.2807(3)
H10_23 H 0.534136 0.550611 0.265138
C23_23 C 0.5370(3) 0.5938(4) 0.2748(2)
H11_23 H 0.538289 0.600424 0.255234
C24_23 C 0.5377(3) 0.6138(2) 0.2976(3)
C25_23 C 0.5359(3) 0.6042(3) 0.3262(3)
C26_23 C 0.5334(3) 0.5746(3) 0.3321(2)
H12_23 H 0.532136 0.567979 0.351651
C27_23 C 0.4805(4) 0.9146(4) 0.1694(4)
C28_23 C 0.5367(6) 0.6684(4) 0.4204(4)
C29_23 C 0.5316(6) 0.7031(4) 0.2300(4)
C30_23 C 0.5094(4) 0.6831(6) 0.2344(4)
H13_23 H 0.492694 0.683295 0.222144
C31_23 C 0.5115(5) 0.6626(5) 0.2566(5)
H14_23 H 0.496295 0.648945 0.259612
C32_23 C 0.5359(6) 0.6623(4) 0.2746(4)
C33_23 C 0.5582(4) 0.6823(6) 0.2702(4)
H15_23 H 0.574840 0.682097 0.282455
C34_23 C 0.5560(5) 0.7027(5) 0.2480(5)
H16_23 H 0.571239 0.716447 0.244988
C35_23 C 0.5188(5) 0.7727(4) 0.1695(4)
C36_23 C 0.5427(4) 0.7725(4) 0.1882(5)
H17_23 H 0.557615 0.786603 0.186005
C37_23 C 0.5447(4) 0.7515(5) 0.2100(5)
H18_23 H 0.560947 0.751411 0.222708
C38_23 C 0.5228(5) 0.7308(4) 0.2131(4)
C39_23 C 0.4990(4) 0.7311(4) 0.1945(5)
H19_23 H 0.484019 0.716902 0.196603
C40_23 C 0.4970(4) 0.7520(5) 0.1726(5)
H20_23 H 0.480687 0.752095 0.159900
O11_12 O 0.5158(2) 0.4307(3) 0.3540(2)
O12_12 O 0.5249(3) 0.4225(3) 0.3033(3)
H21_23 H 0.530904 0.488656 0.402293
H22_23 H 0.509559 0.460532 0.402907
H23_23 H 0.521794 0.46583 0.24017
H24_23 H 0.538167 0.435482 0.247781
O1_24 O 0.4732(2) 0.0132(3) 0.1571(3)
O2_24 O 0.4699(3) 0.0078(5) 0.2075(3)
N1_24 N 0.4903(4) 0.2978(4) 0.3502(4)
N2_24 N 0.4591(4) 0.1444(4) 0.2002(4)
C1_24 C 0.4736(5) 0.3138(4) 0.4714(4)
C2_24 C 0.4750(3) 0.3078(4) 0.4393(2)
C3_24 C 0.4848(3) 0.3292(2) 0.4203(4)
H1_24 H 0.488690 0.348277 0.427398
C4_24 C 0.4888(3) 0.3229(3) 0.3910(3)
C5_24 C 0.4831(3) 0.2950(4) 0.3806(2)
C6_24 C 0.4733(3) 0.2735(2) 0.3996(4)
H2_24 H 0.469330 0.254500 0.392497
C7_24 C 0.4692(3) 0.2799(3) 0.4289(3)
H3_24 H 0.462518 0.265231 0.441845
C8_24 C 0.5104(3) 0.3823(2) 0.3349(3)
C9_24 C 0.5038(3) 0.3704(3) 0.3620(3)
H4_24 H 0.503758 0.382499 0.378833
C10_24 C 0.4973(3) 0.3410(3) 0.3645(3)
C11_24 C 0.4974(3) 0.3233(2) 0.3399(4)
C12_24 C 0.5040(3) 0.3352(3) 0.3128(3)
H5_24 H 0.504059 0.323104 0.296014
C13_24 C 0.5105(3) 0.3646(3) 0.3103(2)
H6_24 H 0.515013 0.372696 0.291842
C14_24 C 0.4633(3) 0.1617(4) 0.1130(2)
C15_24 C 0.4646(3) 0.1341(3) 0.1254(3)
H7_24 H 0.466762 0.117480 0.113252
C16_24 C 0.4627(3) 0.1309(3) 0.1554(4)
C17_24 C 0.4596(3) 0.1552(4) 0.1731(2)
C18_24 C 0.4583(3) 0.1828(3) 0.1608(3)
H8_24 H 0.456111 0.199456 0.172863
C19_24 C 0.4601(3) 0.1861(3) 0.1307(3)
H9_24 H 0.459264 0.204957 0.122301
C20_24 C 0.4712(4) 0.0220(4) 0.1835(5)
C21_24 C 0.4673(3) 0.0546(2) 0.1907(3)
C22_24 C 0.4654(3) 0.0642(3) 0.2193(3)
H10_24 H 0.465864 0.050611 0.234862
C23_24 C 0.4630(3) 0.0938(4) 0.2252(2)
H11_24 H 0.461711 0.100424 0.244766
C24_24 C 0.4623(3) 0.1138(2) 0.2024(3)
C25_24 C 0.4641(3) 0.1042(3) 0.1738(3)
C26_24 C 0.4666(3) 0.0746(3) 0.1679(2)
H12_24 H 0.467864 0.067979 0.148349
C27_24 C 0.5195(4) 0.4146(4) 0.3306(4)
C28_24 C 0.4633(6) 0.1684(4) 0.0796(4)
C29_24 C 0.4684(6) 0.2031(4) 0.2700(4)
C30_24 C 0.4906(4) 0.1831(6) 0.2656(4)
H13_24 H 0.507306 0.183295 0.277856
C31_24 C 0.4885(5) 0.1626(5) 0.2434(5)
H14_24 H 0.503705 0.148945 0.240388
C32_24 C 0.4641(6) 0.1623(4) 0.2254(4)
C33_24 C 0.4418(4) 0.1823(6) 0.2298(4)
H15_24 H 0.425160 0.182097 0.217545
C34_24 C 0.4440(5) 0.2027(5) 0.2520(5)
H16_24 H 0.428761 0.216447 0.255012
C35_24 C 0.4812(5) 0.2727(4) 0.3305(4)
C36_24 C 0.4573(4) 0.2725(4) 0.3118(5)
H17_24 H 0.442385 0.286603 0.313995
C37_24 C 0.4553(4) 0.2515(5) 0.2900(5)
H18_24 H 0.439053 0.251411 0.277292
C38_24 C 0.4772(5) 0.2308(4) 0.2869(4)
C39_24 C 0.5010(4) 0.2311(4) 0.3055(5)
H19_24 H 0.515981 0.216902 0.303397
C40_24 C 0.5030(4) 0.2520(5) 0.3274(5)
H20_24 H 0.519313 0.252095 0.340100
O9_24 O 0.4625(4) 0.9567(3) 0.2481(2)
O10_24 O 0.4865(3) 0.9795(3) 0.1067(3)
H21_24 H 0.469096 0.988656 0.097707
H22_24 H 0.490441 0.960532 0.0970931
H23_24 H 0.478206 0.96583 0.25983
H24_24 H 0.461833 0.935482 0.252219
loop_
_geom_bond_atom_site_label_1
_geom_bond_atom_site_label_2
_geom_bond_site_symmetry_1
_geom_bond_site_symmetry_2
O3 C27 1_555 1_555
O4 C27 1_555 1_555
C8 C9 1_555 1_555
C9 H4 1_555 1_555
H5 C12 1_555 1_555
C13 C8 1_555 1_555
H6 C13 1_555 1_555
C27 C8 1_555 1_555
H19 C39 1_555 1_555
H20 C40 1_555 1_555
Ni3 O3 1_555 1_555
Ni6 O4 1_555 1_555
C12 C13 1_555 1_555
C39 C40 1_555 1_555
O1 C20 1_555 1_555
O2 C20 1_555 1_555
O5 C1 1_555 1_555
O6 C1 1_555 1_555
O7 C28 1_555 1_555
O8 C28 1_555 1_555
N1 C5 1_555 1_555
N2 C17 1_555 1_555
C1 C2 1_555 1_555
C2 C3 1_555 1_555
C3 H1 1_555 1_555
C4 C3 1_555 1_555
C5 C4 1_555 1_555
C6 C5 1_555 1_555
H2 C6 1_555 1_555
C7 C2 1_555 1_555
H3 C7 1_555 1_555
C10 C4 1_555 1_555
C11 N1 1_555 1_555
C14 C15 1_555 1_555
C15 H7 1_555 1_555
C16 C15 1_555 1_555
C17 C16 1_555 1_555
C18 C17 1_555 1_555
H8 C18 1_555 1_555
C19 C14 1_555 1_555
H9 C19 1_555 1_555
C20 C21 1_555 1_555
C21 C22 1_555 1_555
C22 H10 1_555 1_555
C23 C22 1_555 1_555
H11 C23 1_555 1_555
C24 N2 1_555 1_555
C25 C16 1_555 1_555
C26 C21 1_555 1_555
H12 C26 1_555 1_555
C28 C14 1_555 1_555
C29 C30 1_555 1_555
C31 C30 1_555 1_555
C32 N2 1_555 1_555
C33 C32 1_555 1_555
H15 C33 1_555 1_555
C34 C29 1_555 1_555
H16 C34 1_555 1_555
C35 N1 1_555 1_555
C36 C35 1_555 1_555
H17 C36 1_555 1_555
C37 C36 1_555 1_555
H18 C37 1_555 1_555
C38 C29 1_555 1_555
Ni5 O7 1_555 1_555
Ni8 O8 1_555 1_555
C6 C7 1_555 1_555
C10 C11 1_555 1_555
C18 C19 1_555 1_555
C23 C24 1_555 1_555
C24 C25 1_555 1_555
C25 C26 1_555 1_555
C31 C32 1_555 1_555
C33 C34 1_555 1_555
C37 C38 1_555 1_555
O9 Ni2 1_555 1_555
O10 Ni1 1_555 1_555
O11 Ni1 1_555 1_555
O12 Ni2 1_555 1_555
O15 Ni1 1_555 1_555
O16 Ni2 1_555 1_555
O10 H21 1_555 1_555
O10 H22 1_555 1_555
O9 H23 1_555 1_555
O9 H24 1_555 1_555
Ni3 O1_2 1_555 1_555
Ni6 O2_2 1_555 1_555
O1_2 C20_2 1_555 1_555
O2_2 C20_2 1_555 1_555
O5_2 C1_2 1_555 1_555
O6_2 C1_2 1_555 1_555
O7_2 C28_2 1_555 1_555
O8_2 C28_2 1_555 1_555
O9_2 Ni6 1_555 1_555
O10_2 Ni3 1_555 1_555
N1_2 C5_2 1_555 1_555
N2_2 C17_2 1_555 1_555
C1_2 C2_2 1_555 1_555
C2_2 C3_2 1_555 1_555
C3_2 H1_2 1_555 1_555
C4_2 C3_2 1_555 1_555
C5_2 C4_2 1_555 1_555
C6_2 C5_2 1_555 1_555
H2_2 C6_2 1_555 1_555
C7_2 C2_2 1_555 1_555
H3_2 C7_2 1_555 1_555
C10_2 C4_2 1_555 1_555
C11_2 N1_2 1_555 1_555
C14_2 C15_2 1_555 1_555
C15_2 H7_2 1_555 1_555
C16_2 C15_2 1_555 1_555
C17_2 C16_2 1_555 1_555
C18_2 C17_2 1_555 1_555
H8_2 C18_2 1_555 1_555
C19_2 C14_2 1_555 1_555
H9_2 C19_2 1_555 1_555
C20_2 C21_2 1_555 1_555
C21_2 C22_2 1_555 1_555
C22_2 H10_2 1_555 1_555
C23_2 C22_2 1_555 1_555
H11_2 C23_2 1_555 1_555
C24_2 N2_2 1_555 1_555
C25_2 C16_2 1_555 1_555
C26_2 C21_2 1_555 1_555
H12_2 C26_2 1_555 1_555
C28_2 C14_2 1_555 1_555
C29_2 C30_2 1_555 1_555
C31_2 C30_2 1_555 1_555
C32_2 N2_2 1_555 1_555
C33_2 C32_2 1_555 1_555
H15_2 C33_2 1_555 1_555
C34_2 C29_2 1_555 1_555
H16_2 C34_2 1_555 1_555
C35_2 N1_2 1_555 1_555
C36_2 C35_2 1_555 1_555
H17_2 C36_2 1_555 1_555
C37_2 C36_2 1_555 1_555
H18_2 C37_2 1_555 1_555
C38_2 C29_2 1_555 1_555
Ni4_2 O5_2 1_555 1_555
Ni5_2 O7_2 1_555 1_555
Ni7_2 O6_2 1_555 1_555
Ni8_2 O8_2 1_555 1_555
O15_2 Ni3 1_555 1_555
O16_2 Ni6 1_555 1_555
C6_2 C7_2 1_555 1_555
C10_2 C11_2 1_555 1_555
C18_2 C19_2 1_555 1_555
C23_2 C24_2 1_555 1_555
C24_2 C25_2 1_555 1_555
C25_2 C26_2 1_555 1_555
C31_2 C32_2 1_555 1_555
C33_2 C34_2 1_555 1_555
C37_2 C38_2 1_555 1_555
O10_2 H21_2 1_555 1_555
O10_2 H22_2 1_555 1_555
O9_2 H23_2 1_555 1_555
O9_2 H24_2 1_555 1_555
O11 C27_2 1_555 1_555
O12 C27_2 1_555 1_555
C8_2 C9_2 1_555 1_555
C9_2 H4_2 1_555 1_555
H5_2 C12_2 1_555 1_555
C13_2 C8_2 1_555 1_555
H6_2 C13_2 1_555 1_555
C27_2 C8_2 1_555 1_555
H19_2 C39_2 1_555 1_555
H20_2 C40_2 1_555 1_555
C12_2 C13_2 1_555 1_555
C39_2 C40_2 1_555 1_555
Ni1_2 O1_3 1_555 1_555
Ni2_2 O2_3 1_555 1_555
O1_3 C20_3 1_555 1_555
O2_3 C20_3 1_555 1_555
O3_2 C27_3 1_555 1_555
O4_2 C27_3 1_555 1_555
O5_3 C1_3 1_555 1_555
O6_3 C1_3 1_555 1_555
O7_3 C28_3 1_555 1_555
O8_3 C28_3 1_555 1_555
O9_3 Ni2_2 1_555 1_555
O10_3 Ni1_2 1_555 1_555
N1_3 C5_3 1_555 1_555
N2_3 C17_3 1_555 1_555
C1_3 C2_3 1_555 1_555
C2_3 C3_3 1_555 1_555
C3_3 H1_3 1_555 1_555
C4_3 C3_3 1_555 1_555
C5_3 C4_3 1_555 1_555
C6_3 C5_3 1_555 1_555
H2_3 C6_3 1_555 1_555
C7_3 C2_3 1_555 1_555
H3_3 C7_3 1_555 1_555
C8_3 C9_3 1_555 1_555
C9_3 H4_3 1_555 1_555
C10_3 C4_3 1_555 1_555
C11_3 N1_3 1_555 1_555
C12_3 C11_3 1_555 1_555
H5_3 C12_3 1_555 1_555
C13_3 C8_3 1_555 1_555
H6_3 C13_3 1_555 1_555
C14_3 C15_3 1_555 1_555
C15_3 H7_3 1_555 1_555
C16_3 C15_3 1_555 1_555
C17_3 C16_3 1_555 1_555
C18_3 C17_3 1_555 1_555
H8_3 C18_3 1_555 1_555
C19_3 C14_3 1_555 1_555
H9_3 C19_3 1_555 1_555
C20_3 C21_3 1_555 1_555
C21_3 C22_3 1_555 1_555
C22_3 H10_3 1_555 1_555
C23_3 C22_3 1_555 1_555
H11_3 C23_3 1_555 1_555
C24_3 N2_3 1_555 1_555
C25_3 C16_3 1_555 1_555
C26_3 C21_3 1_555 1_555
H12_3 C26_3 1_555 1_555
C27_3 C8_3 1_555 1_555
C28_3 C14_3 1_555 1_555
C29_3 C30_3 1_555 1_555
C30_3 H13_3 1_555 1_555
C31_3 C30_3 1_555 1_555
H14_3 C31_3 1_555 1_555
C32_3 N2_3 1_555 1_555
C33_3 C32_3 1_555 1_555
H15_3 C33_3 1_555 1_555
C34_3 C29_3 1_555 1_555
H16_3 C34_3 1_555 1_555
C35_3 N1_3 1_555 1_555
C36_3 C35_3 1_555 1_555
H17_3 C36_3 1_555 1_555
C37_3 C36_3 1_555 1_555
H18_3 C37_3 1_555 1_555
C38_3 C29_3 1_555 1_555
C39_3 C38_3 1_555 1_555
H19_3 C39_3 1_555 1_555
C40_3 C35_3 1_555 1_555
H20_3 C40_3 1_555 1_555
Ni3_2 O3_2 1_555 1_555
Ni5_3 O7_3 1_555 1_555
Ni6_2 O4_2 1_555 1_555
Ni8_3 O8_3 1_555 1_555
O11_2 Ni1_2 1_555 1_555
O12_2 Ni2_2 1_555 1_555
O13_3 Ni1_2 1_555 1_555
O14_3 Ni2_2 1_555 1_555
O15_3 Ni1_2 1_555 1_555
O16_3 Ni2_2 1_555 1_555
C6_3 C7_3 1_555 1_555
C9_3 C10_3 1_555 1_555
C10_3 C11_3 1_555 1_555
C12_3 C13_3 1_555 1_555
C18_3 C19_3 1_555 1_555
C23_3 C24_3 1_555 1_555
C24_3 C25_3 1_555 1_555
C25_3 C26_3 1_555 1_555
C31_3 C32_3 1_555 1_555
C33_3 C34_3 1_555 1_555
C37_3 C38_3 1_555 1_555
C39_3 C40_3 1_555 1_555
O10_3 H21_3 1_555 1_555
O10_3 H22_3 1_555 1_555
O9_3 H23_3 1_555 1_555
O9_3 H24_3 1_555 1_555
O9_4 Ni6_2 1_555 1_555
O10_4 Ni3_2 1_555 1_555
O13_4 Ni3_2 1_555 1_555
O14_4 Ni6_2 1_555 1_555
O15_4 Ni3_2 1_555 1_555
O16_4 Ni6_2 1_555 1_555
O10_4 H21_4 1_555 1_555
O10_4 H22_4 1_555 1_555
O9_4 H23_4 1_555 1_555
O9_4 H24_4 1_555 1_555
O1_4 C20_4 1_555 1_555
O2_4 C20_4 1_555 1_555
O11_2 C27_4 1_555 1_555
O12_2 C27_4 1_555 1_555
O5_4 C1_4 1_555 1_555
O6_4 C1_4 1_555 1_555
O7_4 C28_4 1_555 1_555
O8_4 C28_4 1_555 1_555
N1_4 C5_4 1_555 1_555
N2_4 C17_4 1_555 1_555
C1_4 C2_4 1_555 1_555
C2_4 C3_4 1_555 1_555
C3_4 H1_4 1_555 1_555
C4_4 C3_4 1_555 1_555
C5_4 C4_4 1_555 1_555
C6_4 C5_4 1_555 1_555
H2_4 C6_4 1_555 1_555
C7_4 C2_4 1_555 1_555
H3_4 C7_4 1_555 1_555
C8_4 C9_4 1_555 1_555
C9_4 H4_4 1_555 1_555
C10_4 C4_4 1_555 1_555
C11_4 N1_4 1_555 1_555
C12_4 C11_4 1_555 1_555
H5_4 C12_4 1_555 1_555
C13_4 C8_4 1_555 1_555
H6_4 C13_4 1_555 1_555
C14_4 C15_4 1_555 1_555
C15_4 H7_4 1_555 1_555
C16_4 C15_4 1_555 1_555
C17_4 C16_4 1_555 1_555
C18_4 C17_4 1_555 1_555
H8_4 C18_4 1_555 1_555
C19_4 C14_4 1_555 1_555
H9_4 C19_4 1_555 1_555
C20_4 C21_4 1_555 1_555
C21_4 C22_4 1_555 1_555
C22_4 H10_4 1_555 1_555
C23_4 C22_4 1_555 1_555
H11_4 C23_4 1_555 1_555
C24_4 N2_4 1_555 1_555
C25_4 C16_4 1_555 1_555
C26_4 C21_4 1_555 1_555
H12_4 C26_4 1_555 1_555
C27_4 C8_4 1_555 1_555
C28_4 C14_4 1_555 1_555
C29_4 C30_4 1_555 1_555
C30_4 H13_4 1_555 1_555
C31_4 C30_4 1_555 1_555
H14_4 C31_4 1_555 1_555
C32_4 N2_4 1_555 1_555
C33_4 C32_4 1_555 1_555
H15_4 C33_4 1_555 1_555
C34_4 C29_4 1_555 1_555
H16_4 C34_4 1_555 1_555
C35_4 N1_4 1_555 1_555
C36_4 C35_4 1_555 1_555
H17_4 C36_4 1_555 1_555
C37_4 C36_4 1_555 1_555
H18_4 C37_4 1_555 1_555
C38_4 C29_4 1_555 1_555
C39_4 C38_4 1_555 1_555
H19_4 C39_4 1_555 1_555
C40_4 C35_4 1_555 1_555
H20_4 C40_4 1_555 1_555
Ni4_4 O5_4 1_555 1_555
Ni5_4 O7_4 1_555 1_555
Ni7_4 O6_4 1_555 1_555
Ni8_4 O8_4 1_555 1_555
C6_4 C7_4 1_555 1_555
C9_4 C10_4 1_555 1_555
C10_4 C11_4 1_555 1_555
C12_4 C13_4 1_555 1_555
C18_4 C19_4 1_555 1_555
C23_4 C24_4 1_555 1_555
C24_4 C25_4 1_555 1_555
C25_4 C26_4 1_555 1_555
C31_4 C32_4 1_555 1_555
C33_4 C34_4 1_555 1_555
C37_4 C38_4 1_555 1_555
C39_4 C40_4 1_555 1_555
O3_3 C27_5 1_555 1_555
O4_3 C27_5 1_555 1_555
C8_5 C9_5 1_555 1_555
C9_5 H4_5 1_555 1_555
H5_5 C12_5 1_555 1_555
C13_5 C8_5 1_555 1_555
H6_5 C13_5 1_555 1_555
C27_5 C8_5 1_555 1_555
H19_5 C39_5 1_555 1_555
H20_5 C40_5 1_555 1_555
Ni3_3 O3_3 1_555 1_555
Ni6_3 O4_3 1_555 1_555
C12_5 C13_5 1_555 1_555
C39_5 C40_5 1_555 1_555
O1_5 C20_5 1_555 1_555
O2_5 C20_5 1_555 1_555
O13 C1_5 1_555 1_555
O14 C1_5 1_555 1_555
O7_5 C28_5 1_555 1_555
O8_5 C28_5 1_555 1_555
N1_5 C5_5 1_555 1_555
N2_5 C17_5 1_555 1_555
C1_5 C2_5 1_555 1_555
C2_5 C3_5 1_555 1_555
C3_5 H1_5 1_555 1_555
C4_5 C3_5 1_555 1_555
C5_5 C4_5 1_555 1_555
C6_5 C5_5 1_555 1_555
H2_5 C6_5 1_555 1_555
C7_5 C2_5 1_555 1_555
H3_5 C7_5 1_555 1_555
C10_5 C4_5 1_555 1_555
C11_5 N1_5 1_555 1_555
C14_5 C15_5 1_555 1_555
C15_5 H7_5 1_555 1_555
C16_5 C15_5 1_555 1_555
C17_5 C16_5 1_555 1_555
C18_5 C17_5 1_555 1_555
H8_5 C18_5 1_555 1_555
C19_5 C14_5 1_555 1_555
H9_5 C19_5 1_555 1_555
C20_5 C21_5 1_555 1_555
C21_5 C22_5 1_555 1_555
C22_5 H10_5 1_555 1_555
C23_5 C22_5 1_555 1_555
H11_5 C23_5 1_555 1_555
C24_5 N2_5 1_555 1_555
C25_5 C16_5 1_555 1_555
C26_5 C21_5 1_555 1_555
H12_5 C26_5 1_555 1_555
C28_5 C14_5 1_555 1_555
C29_5 C30_5 1_555 1_555
C31_5 C30_5 1_555 1_555
C32_5 N2_5 1_555 1_555
C33_5 C32_5 1_555 1_555
H15_5 C33_5 1_555 1_555
C34_5 C29_5 1_555 1_555
H16_5 C34_5 1_555 1_555
C35_5 N1_5 1_555 1_555
C36_5 C35_5 1_555 1_555
H17_5 C36_5 1_555 1_555
C37_5 C36_5 1_555 1_555
H18_5 C37_5 1_555 1_555
C38_5 C29_5 1_555 1_555
Ni5_5 O7_5 1_555 1_555
Ni8_5 O8_5 1_555 1_555
C6_5 C7_5 1_555 1_555
C10_5 C11_5 1_555 1_555
C18_5 C19_5 1_555 1_555
C23_5 C24_5 1_555 1_555
C24_5 C25_5 1_555 1_555
C25_5 C26_5 1_555 1_555
C31_5 C32_5 1_555 1_555
C33_5 C34_5 1_555 1_555
C37_5 C38_5 1_555 1_555
O9_5 Ni2_3 1_555 1_555
O10_5 Ni1_3 1_555 1_555
O11_3 Ni1_3 1_555 1_555
O12_3 Ni2_3 1_555 1_555
O15_5 Ni1_3 1_555 1_555
O16_5 Ni2_3 1_555 1_555
O10_5 H21_5 1_555 1_555
O10_5 H22_5 1_555 1_555
O9_5 H23_5 1_555 1_555
O9_5 H24_5 1_555 1_555
Ni3_3 O1_6 1_555 1_555
Ni6_3 O2_6 1_555 1_555
O1_6 C20_6 1_555 1_555
O2_6 C20_6 1_555 1_555
O13_4 C1_6 1_555 1_555
O14_4 C1_6 1_555 1_555
O7_6 C28_6 1_555 1_555
O8_6 C28_6 1_555 1_555
O9_6 Ni6_3 1_555 1_555
O10_6 Ni3_3 1_555 1_555
N1_6 C5_6 1_555 1_555
N2_6 C17_6 1_555 1_555
C1_6 C2_6 1_555 1_555
C2_6 C3_6 1_555 1_555
C3_6 H1_6 1_555 1_555
C4_6 C3_6 1_555 1_555
C5_6 C4_6 1_555 1_555
C6_6 C5_6 1_555 1_555
H2_6 C6_6 1_555 1_555
C7_6 C2_6 1_555 1_555
H3_6 C7_6 1_555 1_555
C10_6 C4_6 1_555 1_555
C11_6 N1_6 1_555 1_555
C14_6 C15_6 1_555 1_555
C15_6 H7_6 1_555 1_555
C16_6 C15_6 1_555 1_555
C17_6 C16_6 1_555 1_555
C18_6 C17_6 1_555 1_555
H8_6 C18_6 1_555 1_555
C19_6 C14_6 1_555 1_555
H9_6 C19_6 1_555 1_555
C20_6 C21_6 1_555 1_555
C21_6 C22_6 1_555 1_555
C22_6 H10_6 1_555 1_555
C23_6 C22_6 1_555 1_555
H11_6 C23_6 1_555 1_555
C24_6 N2_6 1_555 1_555
C25_6 C16_6 1_555 1_555
C26_6 C21_6 1_555 1_555
H12_6 C26_6 1_555 1_555
C28_6 C14_6 1_555 1_555
C29_6 C30_6 1_555 1_555
C31_6 C30_6 1_555 1_555
C32_6 N2_6 1_555 1_555
C33_6 C32_6 1_555 1_555
H15_6 C33_6 1_555 1_555
C34_6 C29_6 1_555 1_555
H16_6 C34_6 1_555 1_555
C35_6 N1_6 1_555 1_555
C36_6 C35_6 1_555 1_555
H17_6 C36_6 1_555 1_555
C37_6 C36_6 1_555 1_555
H18_6 C37_6 1_555 1_555
C38_6 C29_6 1_555 1_555
Ni5_6 O7_6 1_555 1_555
Ni8_6 O8_6 1_555 1_555
O15_6 Ni3_3 1_555 1_555
O16_6 Ni6_3 1_555 1_555
C6_6 C7_6 1_555 1_555
C10_6 C11_6 1_555 1_555
C18_6 C19_6 1_555 1_555
C23_6 C24_6 1_555 1_555
C24_6 C25_6 1_555 1_555
C25_6 C26_6 1_555 1_555
C31_6 C32_6 1_555 1_555
C33_6 C34_6 1_555 1_555
C37_6 C38_6 1_555 1_555
O10_6 H21_6 1_555 1_555
O10_6 H22_6 1_555 1_555
O9_6 H23_6 1_555 1_555
O9_6 H24_6 1_555 1_555
O11_3 C27_6 1_555 1_555
O12_3 C27_6 1_555 1_555
C8_6 C9_6 1_555 1_555
C9_6 H4_6 1_555 1_555
H5_6 C12_6 1_555 1_555
C13_6 C8_6 1_555 1_555
H6_6 C13_6 1_555 1_555
C27_6 C8_6 1_555 1_555
H19_6 C39_6 1_555 1_555
H20_6 C40_6 1_555 1_555
C12_6 C13_6 1_555 1_555
C39_6 C40_6 1_555 1_555
Ni1_4 O1_7 1_555 1_555
Ni2_4 O2_7 1_555 1_555
O1_7 C20_7 1_555 1_555
O2_7 C20_7 1_555 1_555
O3_4 C27_7 1_555 1_555
O4_4 C27_7 1_555 1_555
O13_2 C1_7 1_555 1_555
O14_2 C1_7 1_555 1_555
O7_7 C28_7 1_555 1_555
O8_7 C28_7 1_555 1_555
O9_7 Ni2_4 1_555 1_555
O10_7 Ni1_4 1_555 1_555
N1_7 C5_7 1_555 1_555
N2_7 C17_7 1_555 1_555
C1_7 C2_7 1_555 1_555
C2_7 C3_7 1_555 1_555
C3_7 H1_7 1_555 1_555
C4_7 C3_7 1_555 1_555
C5_7 C4_7 1_555 1_555
C6_7 C5_7 1_555 1_555
H2_7 C6_7 1_555 1_555
C7_7 C2_7 1_555 1_555
H3_7 C7_7 1_555 1_555
C8_7 C9_7 1_555 1_555
C9_7 H4_7 1_555 1_555
C10_7 C4_7 1_555 1_555
C11_7 N1_7 1_555 1_555
C12_7 C11_7 1_555 1_555
H5_7 C12_7 1_555 1_555
C13_7 C8_7 1_555 1_555
H6_7 C13_7 1_555 1_555
C14_7 C15_7 1_555 1_555
C15_7 H7_7 1_555 1_555
C16_7 C15_7 1_555 1_555
C17_7 C16_7 1_555 1_555
C18_7 C17_7 1_555 1_555
H8_7 C18_7 1_555 1_555
C19_7 C14_7 1_555 1_555
H9_7 C19_7 1_555 1_555
C20_7 C21_7 1_555 1_555
C21_7 C22_7 1_555 1_555
C22_7 H10_7 1_555 1_555
C23_7 C22_7 1_555 1_555
H11_7 C23_7 1_555 1_555
C24_7 N2_7 1_555 1_555
C25_7 C16_7 1_555 1_555
C26_7 C21_7 1_555 1_555
H12_7 C26_7 1_555 1_555
C27_7 C8_7 1_555 1_555
C28_7 C14_7 1_555 1_555
C29_7 C30_7 1_555 1_555
C30_7 H13_7 1_555 1_555
C31_7 C30_7 1_555 1_555
H14_7 C31_7 1_555 1_555
C32_7 N2_7 1_555 1_555
C33_7 C32_7 1_555 1_555
H15_7 C33_7 1_555 1_555
C34_7 C29_7 1_555 1_555
H16_7 C34_7 1_555 1_555
C35_7 N1_7 1_555 1_555
C36_7 C35_7 1_555 1_555
H17_7 C36_7 1_555 1_555
C37_7 C36_7 1_555 1_555
H18_7 C37_7 1_555 1_555
C38_7 C29_7 1_555 1_555
C39_7 C38_7 1_555 1_555
H19_7 C39_7 1_555 1_555
C40_7 C35_7 1_555 1_555
H20_7 C40_7 1_555 1_555
Ni3_4 O3_4 1_555 1_555
Ni5_7 O7_7 1_555 1_555
Ni6_4 O4_4 1_555 1_555
Ni8_7 O8_7 1_555 1_555
O11_4 Ni1_4 1_555 1_555
O12_4 Ni2_4 1_555 1_555
O13_7 Ni1_4 1_555 1_555
O14_7 Ni2_4 1_555 1_555
O15_7 Ni1_4 1_555 1_555
O16_7 Ni2_4 1_555 1_555
C6_7 C7_7 1_555 1_555
C9_7 C10_7 1_555 1_555
C10_7 C11_7 1_555 1_555
C12_7 C13_7 1_555 1_555
C18_7 C19_7 1_555 1_555
C23_7 C24_7 1_555 1_555
C24_7 C25_7 1_555 1_555
C25_7 C26_7 1_555 1_555
C31_7 C32_7 1_555 1_555
C33_7 C34_7 1_555 1_555
C37_7 C38_7 1_555 1_555
C39_7 C40_7 1_555 1_555
O10_7 H21_7 1_555 1_555
O10_7 H22_7 1_555 1_555
O9_7 H23_7 1_555 1_555
O9_7 H24_7 1_555 1_555
O9_8 Ni6_4 1_555 1_555
O10_8 Ni3_4 1_555 1_555
O13_8 Ni3_4 1_555 1_555
O14_8 Ni6_4 1_555 1_555
O15_8 Ni3_4 1_555 1_555
O16_8 Ni6_4 1_555 1_555
O10_8 H21_8 1_555 1_555
O10_8 H22_8 1_555 1_555
O9_8 H23_8 1_555 1_555
O9_8 H24_8 1_555 1_555
O1_8 C20_8 1_555 1_555
O2_8 C20_8 1_555 1_555
O11_4 C27_8 1_555 1_555
O12_4 C27_8 1_555 1_555
O13_3 C1_8 1_555 1_555
O14_3 C1_8 1_555 1_555
O7_8 C28_8 1_555 1_555
O8_8 C28_8 1_555 1_555
N1_8 C5_8 1_555 1_555
N2_8 C17_8 1_555 1_555
C1_8 C2_8 1_555 1_555
C2_8 C3_8 1_555 1_555
C3_8 H1_8 1_555 1_555
C4_8 C3_8 1_555 1_555
C5_8 C4_8 1_555 1_555
C6_8 C5_8 1_555 1_555
H2_8 C6_8 1_555 1_555
C7_8 C2_8 1_555 1_555
H3_8 C7_8 1_555 1_555
C8_8 C9_8 1_555 1_555
C9_8 H4_8 1_555 1_555
C10_8 C4_8 1_555 1_555
C11_8 N1_8 1_555 1_555
C12_8 C11_8 1_555 1_555
H5_8 C12_8 1_555 1_555
C13_8 C8_8 1_555 1_555
H6_8 C13_8 1_555 1_555
C14_8 C15_8 1_555 1_555
C15_8 H7_8 1_555 1_555
C16_8 C15_8 1_555 1_555
C17_8 C16_8 1_555 1_555
C18_8 C17_8 1_555 1_555
H8_8 C18_8 1_555 1_555
C19_8 C14_8 1_555 1_555
H9_8 C19_8 1_555 1_555
C20_8 C21_8 1_555 1_555
C21_8 C22_8 1_555 1_555
C22_8 H10_8 1_555 1_555
C23_8 C22_8 1_555 1_555
H11_8 C23_8 1_555 1_555
C24_8 N2_8 1_555 1_555
C25_8 C16_8 1_555 1_555
C26_8 C21_8 1_555 1_555
H12_8 C26_8 1_555 1_555
C27_8 C8_8 1_555 1_555
C28_8 C14_8 1_555 1_555
C29_8 C30_8 1_555 1_555
C30_8 H13_8 1_555 1_555
C31_8 C30_8 1_555 1_555
H14_8 C31_8 1_555 1_555
C32_8 N2_8 1_555 1_555
C33_8 C32_8 1_555 1_555
H15_8 C33_8 1_555 1_555
C34_8 C29_8 1_555 1_555
H16_8 C34_8 1_555 1_555
C35_8 N1_8 1_555 1_555
C36_8 C35_8 1_555 1_555
H17_8 C36_8 1_555 1_555
C37_8 C36_8 1_555 1_555
H18_8 C37_8 1_555 1_555
C38_8 C29_8 1_555 1_555
C39_8 C38_8 1_555 1_555
H19_8 C39_8 1_555 1_555
C40_8 C35_8 1_555 1_555
H20_8 C40_8 1_555 1_555
Ni5_8 O7_8 1_555 1_555
Ni8_8 O8_8 1_555 1_555
C6_8 C7_8 1_555 1_555
C9_8 C10_8 1_555 1_555
C10_8 C11_8 1_555 1_555
C12_8 C13_8 1_555 1_555
C18_8 C19_8 1_555 1_555
C23_8 C24_8 1_555 1_555
C24_8 C25_8 1_555 1_555
C25_8 C26_8 1_555 1_555
C31_8 C32_8 1_555 1_555
C33_8 C34_8 1_555 1_555
C37_8 C38_8 1_555 1_555
C39_8 C40_8 1_555 1_555
O3_5 C27_9 1_555 1_555
O4_5 C27_9 1_555 1_555
C8_9 C9_9 1_555 1_555
C9_9 H4_9 1_555 1_555
H5_9 C12_9 1_555 1_555
C13_9 C8_9 1_555 1_555
H6_9 C13_9 1_555 1_555
C27_9 C8_9 1_555 1_555
H19_9 C39_9 1_555 1_555
H20_9 C40_9 1_555 1_555
Ni4_3 O3_5 1_555 1_555
Ni7_3 O4_5 1_555 1_555
C12_9 C13_9 1_555 1_555
C39_9 C40_9 1_555 1_555
O1_9 C20_9 1_555 1_555
O2_9 C20_9 1_555 1_555
O13_5 C1_9 1_555 1_555
O14_5 C1_9 1_555 1_555
O7_9 C28_9 1_555 1_555
O8_9 C28_9 1_555 1_555
N1_9 C5_9 1_555 1_555
N2_9 C17_9 1_555 1_555
C1_9 C2_9 1_555 1_555
C2_9 C3_9 1_555 1_555
C3_9 H1_9 1_555 1_555
C4_9 C3_9 1_555 1_555
C5_9 C4_9 1_555 1_555
C6_9 C5_9 1_555 1_555
H2_9 C6_9 1_555 1_555
C7_9 C2_9 1_555 1_555
H3_9 C7_9 1_555 1_555
C10_9 C4_9 1_555 1_555
C11_9 N1_9 1_555 1_555
C14_9 C15_9 1_555 1_555
C15_9 H7_9 1_555 1_555
C16_9 C15_9 1_555 1_555
C17_9 C16_9 1_555 1_555
C18_9 C17_9 1_555 1_555
H8_9 C18_9 1_555 1_555
C19_9 C14_9 1_555 1_555
H9_9 C19_9 1_555 1_555
C20_9 C21_9 1_555 1_555
C21_9 C22_9 1_555 1_555
C22_9 H10_9 1_555 1_555
C23_9 C22_9 1_555 1_555
H11_9 C23_9 1_555 1_555
C24_9 N2_9 1_555 1_555
C25_9 C16_9 1_555 1_555
C26_9 C21_9 1_555 1_555
H12_9 C26_9 1_555 1_555
C28_9 C14_9 1_555 1_555
C29_9 C30_9 1_555 1_555
C31_9 C30_9 1_555 1_555
C32_9 N2_9 1_555 1_555
C33_9 C32_9 1_555 1_555
H15_9 C33_9 1_555 1_555
C34_9 C29_9 1_555 1_555
H16_9 C34_9 1_555 1_555
C35_9 N1_9 1_555 1_555
C36_9 C35_9 1_555 1_555
H17_9 C36_9 1_555 1_555
C37_9 C36_9 1_555 1_555
H18_9 C37_9 1_555 1_555
C38_9 C29_9 1_555 1_555
Ni5_9 O7_9 1_555 1_555
Ni8_9 O8_9 1_555 1_555
C6_9 C7_9 1_555 1_555
C10_9 C11_9 1_555 1_555
C18_9 C19_9 1_555 1_555
C23_9 C24_9 1_555 1_555
C24_9 C25_9 1_555 1_555
C25_9 C26_9 1_555 1_555
C31_9 C32_9 1_555 1_555
C33_9 C34_9 1_555 1_555
C37_9 C38_9 1_555 1_555
O9_9 Ni7 1_555 1_555
O10_9 Ni4 1_555 1_555
O11_5 Ni4 1_555 1_555
O12_5 Ni7 1_555 1_555
O15_9 Ni4 1_555 1_555
O16_9 Ni7 1_555 1_555
O10_9 H21_9 1_555 1_555
O10_9 H22_9 1_555 1_555
O9_9 H23_9 1_555 1_555
O9_9 H24_9 1_555 1_555
Ni4_3 O1_10 1_555 1_555
Ni7_3 O2_10 1_555 1_555
O1_10 C20_10 1_555 1_555
O2_10 C20_10 1_555 1_555
O13_8 C1_10 1_555 1_555
O14_8 C1_10 1_555 1_555
O7_10 C28_10 1_555 1_555
O8_10 C28_10 1_555 1_555
O9_10 Ni7_3 1_555 1_555
O10_10 Ni4_3 1_555 1_555
N1_10 C5_10 1_555 1_555
N2_10 C17_10 1_555 1_555
C1_10 C2_10 1_555 1_555
C2_10 C3_10 1_555 1_555
C3_10 H1_10 1_555 1_555
C4_10 C3_10 1_555 1_555
C5_10 C4_10 1_555 1_555
C6_10 C5_10 1_555 1_555
H2_10 C6_10 1_555 1_555
C7_10 C2_10 1_555 1_555
H3_10 C7_10 1_555 1_555
C10_10 C4_10 1_555 1_555
C11_10 N1_10 1_555 1_555
C14_10 C15_10 1_555 1_555
C15_10 H7_10 1_555 1_555
C16_10 C15_10 1_555 1_555
C17_10 C16_10 1_555 1_555
C18_10 C17_10 1_555 1_555
H8_10 C18_10 1_555 1_555
C19_10 C14_10 1_555 1_555
H9_10 C19_10 1_555 1_555
C20_10 C21_10 1_555 1_555
C21_10 C22_10 1_555 1_555
C22_10 H10_10 1_555 1_555
C23_10 C22_10 1_555 1_555
H11_10 C23_10 1_555 1_555
C24_10 N2_10 1_555 1_555
C25_10 C16_10 1_555 1_555
C26_10 C21_10 1_555 1_555
H12_10 C26_10 1_555 1_555
C28_10 C14_10 1_555 1_555
C29_10 C30_10 1_555 1_555
C31_10 C30_10 1_555 1_555
C32_10 N2_10 1_555 1_555
C33_10 C32_10 1_555 1_555
H15_10 C33_10 1_555 1_555
C34_10 C29_10 1_555 1_555
H16_10 C34_10 1_555 1_555
C35_10 N1_10 1_555 1_555
C36_10 C35_10 1_555 1_555
H17_10 C36_10 1_555 1_555
C37_10 C36_10 1_555 1_555
H18_10 C37_10 1_555 1_555
C38_10 C29_10 1_555 1_555
Ni5_10 O7_10 1_555 1_555
Ni8_10 O8_10 1_555 1_555
O15_10 Ni4_3 1_555 1_555
O16_10 Ni7_3 1_555 1_555
C6_10 C7_10 1_555 1_555
C10_10 C11_10 1_555 1_555
C18_10 C19_10 1_555 1_555
C23_10 C24_10 1_555 1_555
C24_10 C25_10 1_555 1_555
C25_10 C26_10 1_555 1_555
C31_10 C32_10 1_555 1_555
C33_10 C34_10 1_555 1_555
C37_10 C38_10 1_555 1_555
O10_10 H21_10 1_555 1_555
O10_10 H22_10 1_555 1_555
O9_10 H23_10 1_555 1_555
O9_10 H24_10 1_555 1_555
O11_5 C27_10 1_555 1_555
O12_5 C27_10 1_555 1_555
C8_10 C9_10 1_555 1_555
C9_10 H4_10 1_555 1_555
H5_10 C12_10 1_555 1_555
C13_10 C8_10 1_555 1_555
H6_10 C13_10 1_555 1_555
C27_10 C8_10 1_555 1_555
H19_10 C39_10 1_555 1_555
H20_10 C40_10 1_555 1_555
C12_10 C13_10 1_555 1_555
C39_10 C40_10 1_555 1_555
Ni4_4 O1_11 1_555 1_555
Ni7_4 O2_11 1_555 1_555
O1_11 C20_11 1_555 1_555
O2_11 C20_11 1_555 1_555
O3_6 C27_11 1_555 1_555
O4_6 C27_11 1_555 1_555
O13_6 C1_11 1_555 1_555
O14_6 C1_11 1_555 1_555
O7_11 C28_11 1_555 1_555
O8_11 C28_11 1_555 1_555
O9_11 Ni7_4 1_555 1_555
O10_11 Ni4_4 1_555 1_555
N1_11 C5_11 1_555 1_555
N2_11 C17_11 1_555 1_555
C1_11 C2_11 1_555 1_555
C2_11 C3_11 1_555 1_555
C3_11 H1_11 1_555 1_555
C4_11 C3_11 1_555 1_555
C5_11 C4_11 1_555 1_555
C6_11 C5_11 1_555 1_555
H2_11 C6_11 1_555 1_555
C7_11 C2_11 1_555 1_555
H3_11 C7_11 1_555 1_555
C8_11 C9_11 1_555 1_555
C9_11 H4_11 1_555 1_555
C10_11 C4_11 1_555 1_555
C11_11 N1_11 1_555 1_555
C12_11 C11_11 1_555 1_555
H5_11 C12_11 1_555 1_555
C13_11 C8_11 1_555 1_555
H6_11 C13_11 1_555 1_555
C14_11 C15_11 1_555 1_555
C15_11 H7_11 1_555 1_555
C16_11 C15_11 1_555 1_555
C17_11 C16_11 1_555 1_555
C18_11 C17_11 1_555 1_555
H8_11 C18_11 1_555 1_555
C19_11 C14_11 1_555 1_555
H9_11 C19_11 1_555 1_555
C20_11 C21_11 1_555 1_555
C21_11 C22_11 1_555 1_555
C22_11 H10_11 1_555 1_555
C23_11 C22_11 1_555 1_555
H11_11 C23_11 1_555 1_555
C24_11 N2_11 1_555 1_555
C25_11 C16_11 1_555 1_555
C26_11 C21_11 1_555 1_555
H12_11 C26_11 1_555 1_555
C27_11 C8_11 1_555 1_555
C28_11 C14_11 1_555 1_555
C29_11 C30_11 1_555 1_555
C30_11 H13_11 1_555 1_555
C31_11 C30_11 1_555 1_555
H14_11 C31_11 1_555 1_555
C32_11 N2_11 1_555 1_555
C33_11 C32_11 1_555 1_555
H15_11 C33_11 1_555 1_555
C34_11 C29_11 1_555 1_555
H16_11 C34_11 1_555 1_555
C35_11 N1_11 1_555 1_555
C36_11 C35_11 1_555 1_555
H17_11 C36_11 1_555 1_555
C37_11 C36_11 1_555 1_555
H18_11 C37_11 1_555 1_555
C38_11 C29_11 1_555 1_555
C39_11 C38_11 1_555 1_555
H19_11 C39_11 1_555 1_555
C40_11 C35_11 1_555 1_555
H20_11 C40_11 1_555 1_555
Ni4_2 O3_6 1_555 1_555
Ni5_11 O7_11 1_555 1_555
Ni7_2 O4_6 1_555 1_555
Ni8_11 O8_11 1_555 1_555
O11_6 Ni4_4 1_555 1_555
O12_6 Ni7_4 1_555 1_555
O15_11 Ni4_4 1_555 1_555
O16_11 Ni7_4 1_555 1_555
C6_11 C7_11 1_555 1_555
C9_11 C10_11 1_555 1_555
C10_11 C11_11 1_555 1_555
C12_11 C13_11 1_555 1_555
C18_11 C19_11 1_555 1_555
C23_11 C24_11 1_555 1_555
C24_11 C25_11 1_555 1_555
C25_11 C26_11 1_555 1_555
C31_11 C32_11 1_555 1_555
C33_11 C34_11 1_555 1_555
C37_11 C38_11 1_555 1_555
C39_11 C40_11 1_555 1_555
O10_11 H21_11 1_555 1_555
O10_11 H22_11 1_555 1_555
O9_11 H23_11 1_555 1_555
O9_11 H24_11 1_555 1_555
O9_12 Ni7_2 1_555 1_555
O10_12 Ni4_2 1_555 1_555
O15_12 Ni4_2 1_555 1_555
O16_12 Ni7_2 1_555 1_555
O10_12 H21_12 1_555 1_555
O10_12 H22_12 1_555 1_555
O9_12 H23_12 1_555 1_555
O9_12 H24_12 1_555 1_555
O1_12 C20_12 1_555 1_555
O2_12 C20_12 1_555 1_555
O11_6 C27_12 1_555 1_555
O12_6 C27_12 1_555 1_555
O13_7 C1_12 1_555 1_555
O14_7 C1_12 1_555 1_555
O7_12 C28_12 1_555 1_555
O8_12 C28_12 1_555 1_555
N1_12 C5_12 1_555 1_555
N2_12 C17_12 1_555 1_555
C1_12 C2_12 1_555 1_555
C2_12 C3_12 1_555 1_555
C3_12 H1_12 1_555 1_555
C4_12 C3_12 1_555 1_555
C5_12 C4_12 1_555 1_555
C6_12 C5_12 1_555 1_555
H2_12 C6_12 1_555 1_555
C7_12 C2_12 1_555 1_555
H3_12 C7_12 1_555 1_555
C8_12 C9_12 1_555 1_555
C9_12 H4_12 1_555 1_555
C10_12 C4_12 1_555 1_555
C11_12 N1_12 1_555 1_555
C12_12 C11_12 1_555 1_555
H5_12 C12_12 1_555 1_555
C13_12 C8_12 1_555 1_555
H6_12 C13_12 1_555 1_555
C14_12 C15_12 1_555 1_555
C15_12 H7_12 1_555 1_555
C16_12 C15_12 1_555 1_555
C17_12 C16_12 1_555 1_555
C18_12 C17_12 1_555 1_555
H8_12 C18_12 1_555 1_555
C19_12 C14_12 1_555 1_555
H9_12 C19_12 1_555 1_555
C20_12 C21_12 1_555 1_555
C21_12 C22_12 1_555 1_555
C22_12 H10_12 1_555 1_555
C23_12 C22_12 1_555 1_555
H11_12 C23_12 1_555 1_555
C24_12 N2_12 1_555 1_555
C25_12 C16_12 1_555 1_555
C26_12 C21_12 1_555 1_555
H12_12 C26_12 1_555 1_555
C27_12 C8_12 1_555 1_555
C28_12 C14_12 1_555 1_555
C29_12 C30_12 1_555 1_555
C30_12 H13_12 1_555 1_555
C31_12 C30_12 1_555 1_555
H14_12 C31_12 1_555 1_555
C32_12 N2_12 1_555 1_555
C33_12 C32_12 1_555 1_555
H15_12 C33_12 1_555 1_555
C34_12 C29_12 1_555 1_555
H16_12 C34_12 1_555 1_555
C35_12 N1_12 1_555 1_555
C36_12 C35_12 1_555 1_555
H17_12 C36_12 1_555 1_555
C37_12 C36_12 1_555 1_555
H18_12 C37_12 1_555 1_555
C38_12 C29_12 1_555 1_555
C39_12 C38_12 1_555 1_555
H19_12 C39_12 1_555 1_555
C40_12 C35_12 1_555 1_555
H20_12 C40_12 1_555 1_555
Ni5_12 O7_12 1_555 1_555
Ni8_12 O8_12 1_555 1_555
C6_12 C7_12 1_555 1_555
C9_12 C10_12 1_555 1_555
C10_12 C11_12 1_555 1_555
C12_12 C13_12 1_555 1_555
C18_12 C19_12 1_555 1_555
C23_12 C24_12 1_555 1_555
C24_12 C25_12 1_555 1_555
C25_12 C26_12 1_555 1_555
C31_12 C32_12 1_555 1_555
C33_12 C34_12 1_555 1_555
C37_12 C38_12 1_555 1_555
C39_12 C40_12 1_555 1_555
O9_13 Ni8_6 1_555 1_555
O10_13 Ni5_6 1_555 1_555
O11_7 Ni5_6 1_555 1_555
O12_7 Ni8_6 1_555 1_555
O10_13 H21_13 1_555 1_555
O10_13 H22_13 1_555 1_555
O9_13 H23_13 1_555 1_555
O9_13 H24_13 1_555 1_555
O1_13 C20_13 1_555 1_555
O2_13 C20_13 1_555 1_555
O5_5 C1_13 1_555 1_555
O6_5 C1_13 1_555 1_555
O15_12 C28_13 1_555 1_555
O16_12 C28_13 1_555 1_555
N1_13 C5_13 1_555 1_555
N2_13 C17_13 1_555 1_555
C1_13 C2_13 1_555 1_555
C2_13 C3_13 1_555 1_555
C3_13 H1_13 1_555 1_555
C4_13 C3_13 1_555 1_555
C5_13 C4_13 1_555 1_555
C6_13 C5_13 1_555 1_555
H2_13 C6_13 1_555 1_555
C7_13 C2_13 1_555 1_555
H3_13 C7_13 1_555 1_555
C10_13 C4_13 1_555 1_555
C11_13 N1_13 1_555 1_555
C14_13 C15_13 1_555 1_555
C15_13 H7_13 1_555 1_555
C16_13 C15_13 1_555 1_555
C17_13 C16_13 1_555 1_555
C18_13 C17_13 1_555 1_555
H8_13 C18_13 1_555 1_555
C19_13 C14_13 1_555 1_555
H9_13 C19_13 1_555 1_555
C20_13 C21_13 1_555 1_555
C21_13 C22_13 1_555 1_555
C22_13 H10_13 1_555 1_555
C23_13 C22_13 1_555 1_555
H11_13 C23_13 1_555 1_555
C24_13 N2_13 1_555 1_555
C25_13 C16_13 1_555 1_555
C26_13 C21_13 1_555 1_555
H12_13 C26_13 1_555 1_555
C28_13 C14_13 1_555 1_555
C29_13 C30_13 1_555 1_555
C31_13 C30_13 1_555 1_555
C32_13 N2_13 1_555 1_555
C33_13 C32_13 1_555 1_555
H15_13 C33_13 1_555 1_555
C34_13 C29_13 1_555 1_555
H16_13 C34_13 1_555 1_555
C35_13 N1_13 1_555 1_555
C36_13 C35_13 1_555 1_555
H17_13 C36_13 1_555 1_555
C37_13 C36_13 1_555 1_555
H18_13 C37_13 1_555 1_555
C38_13 C29_13 1_555 1_555
C6_13 C7_13 1_555 1_555
C10_13 C11_13 1_555 1_555
C18_13 C19_13 1_555 1_555
C23_13 C24_13 1_555 1_555
C24_13 C25_13 1_555 1_555
C25_13 C26_13 1_555 1_555
C31_13 C32_13 1_555 1_555
C33_13 C34_13 1_555 1_555
C37_13 C38_13 1_555 1_555
O3_7 C27_13 1_555 1_555
O4_7 C27_13 1_555 1_555
C8_13 C9_13 1_555 1_555
C9_13 H4_13 1_555 1_555
H5_13 C12_13 1_555 1_555
C13_13 C8_13 1_555 1_555
H6_13 C13_13 1_555 1_555
C27_13 C8_13 1_555 1_555
H19_13 C39_13 1_555 1_555
H20_13 C40_13 1_555 1_555
Ni5_8 O3_7 1_555 1_555
Ni8_8 O4_7 1_555 1_555
C12_13 C13_13 1_555 1_555
C39_13 C40_13 1_555 1_555
O11_7 C27_14 1_555 1_555
O12_7 C27_14 1_555 1_555
C8_14 C9_14 1_555 1_555
C9_14 H4_14 1_555 1_555
H5_14 C12_14 1_555 1_555
C13_14 C8_14 1_555 1_555
H6_14 C13_14 1_555 1_555
C27_14 C8_14 1_555 1_555
H19_14 C39_14 1_555 1_555
H20_14 C40_14 1_555 1_555
C12_14 C13_14 1_555 1_555
C39_14 C40_14 1_555 1_555
Ni5_8 O1_14 1_555 1_555
Ni8_8 O2_14 1_555 1_555
O1_14 C20_14 1_555 1_555
O2_14 C20_14 1_555 1_555
O5_6 C1_14 1_555 1_555
O6_6 C1_14 1_555 1_555
O15_9 C28_14 1_555 1_555
O16_9 C28_14 1_555 1_555
O9_14 Ni8_8 1_555 1_555
O10_14 Ni5_8 1_555 1_555
N1_14 C5_14 1_555 1_555
N2_14 C17_14 1_555 1_555
C1_14 C2_14 1_555 1_555
C2_14 C3_14 1_555 1_555
C3_14 H1_14 1_555 1_555
C4_14 C3_14 1_555 1_555
C5_14 C4_14 1_555 1_555
C6_14 C5_14 1_555 1_555
H2_14 C6_14 1_555 1_555
C7_14 C2_14 1_555 1_555
H3_14 C7_14 1_555 1_555
C10_14 C4_14 1_555 1_555
C11_14 N1_14 1_555 1_555
C14_14 C15_14 1_555 1_555
C15_14 H7_14 1_555 1_555
C16_14 C15_14 1_555 1_555
C17_14 C16_14 1_555 1_555
C18_14 C17_14 1_555 1_555
H8_14 C18_14 1_555 1_555
C19_14 C14_14 1_555 1_555
H9_14 C19_14 1_555 1_555
C20_14 C21_14 1_555 1_555
C21_14 C22_14 1_555 1_555
C22_14 H10_14 1_555 1_555
C23_14 C22_14 1_555 1_555
H11_14 C23_14 1_555 1_555
C24_14 N2_14 1_555 1_555
C25_14 C16_14 1_555 1_555
C26_14 C21_14 1_555 1_555
H12_14 C26_14 1_555 1_555
C28_14 C14_14 1_555 1_555
C29_14 C30_14 1_555 1_555
C31_14 C30_14 1_555 1_555
C32_14 N2_14 1_555 1_555
C33_14 C32_14 1_555 1_555
H15_14 C33_14 1_555 1_555
C34_14 C29_14 1_555 1_555
H16_14 C34_14 1_555 1_555
C35_14 N1_14 1_555 1_555
C36_14 C35_14 1_555 1_555
H17_14 C36_14 1_555 1_555
C37_14 C36_14 1_555 1_555
H18_14 C37_14 1_555 1_555
C38_14 C29_14 1_555 1_555
Ni5 O5_6 1_555 1_555
Ni8 O6_6 1_555 1_555
C6_14 C7_14 1_555 1_555
C10_14 C11_14 1_555 1_555
C18_14 C19_14 1_555 1_555
C23_14 C24_14 1_555 1_555
C24_14 C25_14 1_555 1_555
C25_14 C26_14 1_555 1_555
C31_14 C32_14 1_555 1_555
C33_14 C34_14 1_555 1_555
C37_14 C38_14 1_555 1_555
O10_14 H21_14 1_555 1_555
O10_14 H22_14 1_555 1_555
O9_14 H23_14 1_555 1_555
O9_14 H24_14 1_555 1_555
Ni5_7 O1_15 1_555 1_555
Ni8_7 O2_15 1_555 1_555
O1_15 C20_15 1_555 1_555
O2_15 C20_15 1_555 1_555
O3_8 C27_15 1_555 1_555
O4_8 C27_15 1_555 1_555
O5_7 C1_15 1_555 1_555
O6_7 C1_15 1_555 1_555
O15_11 C28_15 1_555 1_555
O16_11 C28_15 1_555 1_555
O9_15 Ni8_7 1_555 1_555
O10_15 Ni5_7 1_555 1_555
N1_15 C5_15 1_555 1_555
N2_15 C17_15 1_555 1_555
C1_15 C2_15 1_555 1_555
C2_15 C3_15 1_555 1_555
C3_15 H1_15 1_555 1_555
C4_15 C3_15 1_555 1_555
C5_15 C4_15 1_555 1_555
C6_15 C5_15 1_555 1_555
H2_15 C6_15 1_555 1_555
C7_15 C2_15 1_555 1_555
H3_15 C7_15 1_555 1_555
C8_15 C9_15 1_555 1_555
C9_15 H4_15 1_555 1_555
C10_15 C4_15 1_555 1_555
C11_15 N1_15 1_555 1_555
C12_15 C11_15 1_555 1_555
H5_15 C12_15 1_555 1_555
C13_15 C8_15 1_555 1_555
H6_15 C13_15 1_555 1_555
C14_15 C15_15 1_555 1_555
C15_15 H7_15 1_555 1_555
C16_15 C15_15 1_555 1_555
C17_15 C16_15 1_555 1_555
C18_15 C17_15 1_555 1_555
H8_15 C18_15 1_555 1_555
C19_15 C14_15 1_555 1_555
H9_15 C19_15 1_555 1_555
C20_15 C21_15 1_555 1_555
C21_15 C22_15 1_555 1_555
C22_15 H10_15 1_555 1_555
C23_15 C22_15 1_555 1_555
H11_15 C23_15 1_555 1_555
C24_15 N2_15 1_555 1_555
C25_15 C16_15 1_555 1_555
C26_15 C21_15 1_555 1_555
H12_15 C26_15 1_555 1_555
C27_15 C8_15 1_555 1_555
C28_15 C14_15 1_555 1_555
C29_15 C30_15 1_555 1_555
C30_15 H13_15 1_555 1_555
C31_15 C30_15 1_555 1_555
H14_15 C31_15 1_555 1_555
C32_15 N2_15 1_555 1_555
C33_15 C32_15 1_555 1_555
H15_15 C33_15 1_555 1_555
C34_15 C29_15 1_555 1_555
H16_15 C34_15 1_555 1_555
C35_15 N1_15 1_555 1_555
C36_15 C35_15 1_555 1_555
H17_15 C36_15 1_555 1_555
C37_15 C36_15 1_555 1_555
H18_15 C37_15 1_555 1_555
C38_15 C29_15 1_555 1_555
C39_15 C38_15 1_555 1_555
H19_15 C39_15 1_555 1_555
C40_15 C35_15 1_555 1_555
H20_15 C40_15 1_555 1_555
Ni5_5 O3_8 1_555 1_555
Ni8_5 O4_8 1_555 1_555
O11_8 Ni5_7 1_555 1_555
O12_8 Ni8_7 1_555 1_555
O13_11 Ni5_7 1_555 1_555
O14_11 Ni8_7 1_555 1_555
C6_15 C7_15 1_555 1_555
C9_15 C10_15 1_555 1_555
C10_15 C11_15 1_555 1_555
C12_15 C13_15 1_555 1_555
C18_15 C19_15 1_555 1_555
C23_15 C24_15 1_555 1_555
C24_15 C25_15 1_555 1_555
C25_15 C26_15 1_555 1_555
C31_15 C32_15 1_555 1_555
C33_15 C34_15 1_555 1_555
C37_15 C38_15 1_555 1_555
C39_15 C40_15 1_555 1_555
O10_15 H21_15 1_555 1_555
O10_15 H22_15 1_555 1_555
O9_15 H23_15 1_555 1_555
O9_15 H24_15 1_555 1_555
O1_16 C20_16 1_555 1_555
O2_16 C20_16 1_555 1_555
O11_8 C27_16 1_555 1_555
O12_8 C27_16 1_555 1_555
O5_8 C1_16 1_555 1_555
O6_8 C1_16 1_555 1_555
O15_10 C28_16 1_555 1_555
O16_10 C28_16 1_555 1_555
N1_16 C5_16 1_555 1_555
N2_16 C17_16 1_555 1_555
C1_16 C2_16 1_555 1_555
C2_16 C3_16 1_555 1_555
C3_16 H1_16 1_555 1_555
C4_16 C3_16 1_555 1_555
C5_16 C4_16 1_555 1_555
C6_16 C5_16 1_555 1_555
H2_16 C6_16 1_555 1_555
C7_16 C2_16 1_555 1_555
H3_16 C7_16 1_555 1_555
C8_16 C9_16 1_555 1_555
C9_16 H4_16 1_555 1_555
C10_16 C4_16 1_555 1_555
C11_16 N1_16 1_555 1_555
C12_16 C11_16 1_555 1_555
H5_16 C12_16 1_555 1_555
C13_16 C8_16 1_555 1_555
H6_16 C13_16 1_555 1_555
C14_16 C15_16 1_555 1_555
C15_16 H7_16 1_555 1_555
C16_16 C15_16 1_555 1_555
C17_16 C16_16 1_555 1_555
C18_16 C17_16 1_555 1_555
H8_16 C18_16 1_555 1_555
C19_16 C14_16 1_555 1_555
H9_16 C19_16 1_555 1_555
C20_16 C21_16 1_555 1_555
C21_16 C22_16 1_555 1_555
C22_16 H10_16 1_555 1_555
C23_16 C22_16 1_555 1_555
H11_16 C23_16 1_555 1_555
C24_16 N2_16 1_555 1_555
C25_16 C16_16 1_555 1_555
C26_16 C21_16 1_555 1_555
H12_16 C26_16 1_555 1_555
C27_16 C8_16 1_555 1_555
C28_16 C14_16 1_555 1_555
C29_16 C30_16 1_555 1_555
C30_16 H13_16 1_555 1_555
C31_16 C30_16 1_555 1_555
H14_16 C31_16 1_555 1_555
C32_16 N2_16 1_555 1_555
C33_16 C32_16 1_555 1_555
H15_16 C33_16 1_555 1_555
C34_16 C29_16 1_555 1_555
H16_16 C34_16 1_555 1_555
C35_16 N1_16 1_555 1_555
C36_16 C35_16 1_555 1_555
H17_16 C36_16 1_555 1_555
C37_16 C36_16 1_555 1_555
H18_16 C37_16 1_555 1_555
C38_16 C29_16 1_555 1_555
C39_16 C38_16 1_555 1_555
H19_16 C39_16 1_555 1_555
C40_16 C35_16 1_555 1_555
H20_16 C40_16 1_555 1_555
Ni5_3 O5_8 1_555 1_555
Ni8_3 O6_8 1_555 1_555
C6_16 C7_16 1_555 1_555
C9_16 C10_16 1_555 1_555
C10_16 C11_16 1_555 1_555
C12_16 C13_16 1_555 1_555
C18_16 C19_16 1_555 1_555
C23_16 C24_16 1_555 1_555
C24_16 C25_16 1_555 1_555
C25_16 C26_16 1_555 1_555
C31_16 C32_16 1_555 1_555
C33_16 C34_16 1_555 1_555
C37_16 C38_16 1_555 1_555
C39_16 C40_16 1_555 1_555
O9_16 Ni8_5 1_555 1_555
O10_16 Ni5_5 1_555 1_555
O13_12 Ni5_5 1_555 1_555
O14_12 Ni8_5 1_555 1_555
O10_16 H21_16 1_555 1_555
O10_16 H22_16 1_555 1_555
O9_16 H23_16 1_555 1_555
O9_16 H24_16 1_555 1_555
O9_17 Ni8_10 1_555 1_555
O10_17 Ni5_10 1_555 1_555
O11_9 Ni5_10 1_555 1_555
O12_9 Ni8_10 1_555 1_555
O10_17 H21_17 1_555 1_555
O10_17 H22_17 1_555 1_555
O9_17 H23_17 1_555 1_555
O9_17 H24_17 1_555 1_555
O1_17 C20_17 1_555 1_555
O2_17 C20_17 1_555 1_555
O13_9 C1_17 1_555 1_555
O14_9 C1_17 1_555 1_555
O15_4 C28_17 1_555 1_555
O16_4 C28_17 1_555 1_555
N1_17 C5_17 1_555 1_555
N2_17 C17_17 1_555 1_555
C1_17 C2_17 1_555 1_555
C2_17 C3_17 1_555 1_555
C3_17 H1_17 1_555 1_555
C4_17 C3_17 1_555 1_555
C5_17 C4_17 1_555 1_555
C6_17 C5_17 1_555 1_555
H2_17 C6_17 1_555 1_555
C7_17 C2_17 1_555 1_555
H3_17 C7_17 1_555 1_555
C10_17 C4_17 1_555 1_555
C11_17 N1_17 1_555 1_555
C14_17 C15_17 1_555 1_555
C15_17 H7_17 1_555 1_555
C16_17 C15_17 1_555 1_555
C17_17 C16_17 1_555 1_555
C18_17 C17_17 1_555 1_555
H8_17 C18_17 1_555 1_555
C19_17 C14_17 1_555 1_555
H9_17 C19_17 1_555 1_555
C20_17 C21_17 1_555 1_555
C21_17 C22_17 1_555 1_555
C22_17 H10_17 1_555 1_555
C23_17 C22_17 1_555 1_555
H11_17 C23_17 1_555 1_555
C24_17 N2_17 1_555 1_555
C25_17 C16_17 1_555 1_555
C26_17 C21_17 1_555 1_555
H12_17 C26_17 1_555 1_555
C28_17 C14_17 1_555 1_555
C29_17 C30_17 1_555 1_555
C31_17 C30_17 1_555 1_555
C32_17 N2_17 1_555 1_555
C33_17 C32_17 1_555 1_555
H15_17 C33_17 1_555 1_555
C34_17 C29_17 1_555 1_555
H16_17 C34_17 1_555 1_555
C35_17 N1_17 1_555 1_555
C36_17 C35_17 1_555 1_555
H17_17 C36_17 1_555 1_555
C37_17 C36_17 1_555 1_555
H18_17 C37_17 1_555 1_555
C38_17 C29_17 1_555 1_555
C6_17 C7_17 1_555 1_555
C10_17 C11_17 1_555 1_555
C18_17 C19_17 1_555 1_555
C23_17 C24_17 1_555 1_555
C24_17 C25_17 1_555 1_555
C25_17 C26_17 1_555 1_555
C31_17 C32_17 1_555 1_555
C33_17 C34_17 1_555 1_555
C37_17 C38_17 1_555 1_555
O3_9 C27_17 1_555 1_555
O4_9 C27_17 1_555 1_555
C8_17 C9_17 1_555 1_555
C9_17 H4_17 1_555 1_555
H5_17 C12_17 1_555 1_555
C13_17 C8_17 1_555 1_555
H6_17 C13_17 1_555 1_555
C27_17 C8_17 1_555 1_555
H19_17 C39_17 1_555 1_555
H20_17 C40_17 1_555 1_555
Ni5_12 O3_9 1_555 1_555
Ni8_12 O4_9 1_555 1_555
C12_17 C13_17 1_555 1_555
C39_17 C40_17 1_555 1_555
O11_9 C27_18 1_555 1_555
O12_9 C27_18 1_555 1_555
C8_18 C9_18 1_555 1_555
C9_18 H4_18 1_555 1_555
H5_18 C12_18 1_555 1_555
C13_18 C8_18 1_555 1_555
H6_18 C13_18 1_555 1_555
C27_18 C8_18 1_555 1_555
H19_18 C39_18 1_555 1_555
H20_18 C40_18 1_555 1_555
C12_18 C13_18 1_555 1_555
C39_18 C40_18 1_555 1_555
Ni5_12 O1_18 1_555 1_555
Ni8_12 O2_18 1_555 1_555
O1_18 C20_18 1_555 1_555
O2_18 C20_18 1_555 1_555
O13_12 C1_18 1_555 1_555
O14_12 C1_18 1_555 1_555
O15 C28_18 1_555 1_555
O16 C28_18 1_555 1_555
O9_18 Ni8_12 1_555 1_555
O10_18 Ni5_12 1_555 1_555
N1_18 C5_18 1_555 1_555
N2_18 C17_18 1_555 1_555
C1_18 C2_18 1_555 1_555
C2_18 C3_18 1_555 1_555
C3_18 H1_18 1_555 1_555
C4_18 C3_18 1_555 1_555
C5_18 C4_18 1_555 1_555
C6_18 C5_18 1_555 1_555
H2_18 C6_18 1_555 1_555
C7_18 C2_18 1_555 1_555
H3_18 C7_18 1_555 1_555
C10_18 C4_18 1_555 1_555
C11_18 N1_18 1_555 1_555
C14_18 C15_18 1_555 1_555
C15_18 H7_18 1_555 1_555
C16_18 C15_18 1_555 1_555
C17_18 C16_18 1_555 1_555
C18_18 C17_18 1_555 1_555
H8_18 C18_18 1_555 1_555
C19_18 C14_18 1_555 1_555
H9_18 C19_18 1_555 1_555
C20_18 C21_18 1_555 1_555
C21_18 C22_18 1_555 1_555
C22_18 H10_18 1_555 1_555
C23_18 C22_18 1_555 1_555
H11_18 C23_18 1_555 1_555
C24_18 N2_18 1_555 1_555
C25_18 C16_18 1_555 1_555
C26_18 C21_18 1_555 1_555
H12_18 C26_18 1_555 1_555
C28_18 C14_18 1_555 1_555
C29_18 C30_18 1_555 1_555
C31_18 C30_18 1_555 1_555
C32_18 N2_18 1_555 1_555
C33_18 C32_18 1_555 1_555
H15_18 C33_18 1_555 1_555
C34_18 C29_18 1_555 1_555
H16_18 C34_18 1_555 1_555
C35_18 N1_18 1_555 1_555
C36_18 C35_18 1_555 1_555
H17_18 C36_18 1_555 1_555
C37_18 C36_18 1_555 1_555
H18_18 C37_18 1_555 1_555
C38_18 C29_18 1_555 1_555
C6_18 C7_18 1_555 1_555
C10_18 C11_18 1_555 1_555
C18_18 C19_18 1_555 1_555
C23_18 C24_18 1_555 1_555
C24_18 C25_18 1_555 1_555
C25_18 C26_18 1_555 1_555
C31_18 C32_18 1_555 1_555
C33_18 C34_18 1_555 1_555
C37_18 C38_18 1_555 1_555
O10_18 H21_18 1_555 1_555
O10_18 H22_18 1_555 1_555
O9_18 H23_18 1_555 1_555
O9_18 H24_18 1_555 1_555
Ni5_11 O1_19 1_555 1_555
Ni8_11 O2_19 1_555 1_555
O1_19 C20_19 1_555 1_555
O2_19 C20_19 1_555 1_555
O3_10 C27_19 1_555 1_555
O4_10 C27_19 1_555 1_555
O13_10 C1_19 1_555 1_555
O14_10 C1_19 1_555 1_555
O15_3 C28_19 1_555 1_555
O16_3 C28_19 1_555 1_555
O9_19 Ni8_11 1_555 1_555
O10_19 Ni5_11 1_555 1_555
N1_19 C5_19 1_555 1_555
N2_19 C17_19 1_555 1_555
C1_19 C2_19 1_555 1_555
C2_19 C3_19 1_555 1_555
C3_19 H1_19 1_555 1_555
C4_19 C3_19 1_555 1_555
C5_19 C4_19 1_555 1_555
C6_19 C5_19 1_555 1_555
H2_19 C6_19 1_555 1_555
C7_19 C2_19 1_555 1_555
H3_19 C7_19 1_555 1_555
C8_19 C9_19 1_555 1_555
C9_19 H4_19 1_555 1_555
C10_19 C4_19 1_555 1_555
C11_19 N1_19 1_555 1_555
C12_19 C11_19 1_555 1_555
H5_19 C12_19 1_555 1_555
C13_19 C8_19 1_555 1_555
H6_19 C13_19 1_555 1_555
C14_19 C15_19 1_555 1_555
C15_19 H7_19 1_555 1_555
C16_19 C15_19 1_555 1_555
C17_19 C16_19 1_555 1_555
C18_19 C17_19 1_555 1_555
H8_19 C18_19 1_555 1_555
C19_19 C14_19 1_555 1_555
H9_19 C19_19 1_555 1_555
C20_19 C21_19 1_555 1_555
C21_19 C22_19 1_555 1_555
C22_19 H10_19 1_555 1_555
C23_19 C22_19 1_555 1_555
H11_19 C23_19 1_555 1_555
C24_19 N2_19 1_555 1_555
C25_19 C16_19 1_555 1_555
C26_19 C21_19 1_555 1_555
H12_19 C26_19 1_555 1_555
C27_19 C8_19 1_555 1_555
C28_19 C14_19 1_555 1_555
C29_19 C30_19 1_555 1_555
C30_19 H13_19 1_555 1_555
C31_19 C30_19 1_555 1_555
H14_19 C31_19 1_555 1_555
C32_19 N2_19 1_555 1_555
C33_19 C32_19 1_555 1_555
H15_19 C33_19 1_555 1_555
C34_19 C29_19 1_555 1_555
H16_19 C34_19 1_555 1_555
C35_19 N1_19 1_555 1_555
C36_19 C35_19 1_555 1_555
H17_19 C36_19 1_555 1_555
C37_19 C36_19 1_555 1_555
H18_19 C37_19 1_555 1_555
C38_19 C29_19 1_555 1_555
C39_19 C38_19 1_555 1_555
H19_19 C39_19 1_555 1_555
C40_19 C35_19 1_555 1_555
H20_19 C40_19 1_555 1_555
Ni5_9 O3_10 1_555 1_555
Ni8_9 O4_10 1_555 1_555
O11_10 Ni5_11 1_555 1_555
O12_10 Ni8_11 1_555 1_555
O13_15 Ni5_11 1_555 1_555
O14_15 Ni8_11 1_555 1_555
C6_19 C7_19 1_555 1_555
C9_19 C10_19 1_555 1_555
C10_19 C11_19 1_555 1_555
C12_19 C13_19 1_555 1_555
C18_19 C19_19 1_555 1_555
C23_19 C24_19 1_555 1_555
C24_19 C25_19 1_555 1_555
C25_19 C26_19 1_555 1_555
C31_19 C32_19 1_555 1_555
C33_19 C34_19 1_555 1_555
C37_19 C38_19 1_555 1_555
C39_19 C40_19 1_555 1_555
O10_19 H21_19 1_555 1_555
O10_19 H22_19 1_555 1_555
O9_19 H23_19 1_555 1_555
O9_19 H24_19 1_555 1_555
O1_20 C20_20 1_555 1_555
O2_20 C20_20 1_555 1_555
O11_10 C27_20 1_555 1_555
O12_10 C27_20 1_555 1_555
O13_11 C1_20 1_555 1_555
O14_11 C1_20 1_555 1_555
O15_2 C28_20 1_555 1_555
O16_2 C28_20 1_555 1_555
N1_20 C5_20 1_555 1_555
N2_20 C17_20 1_555 1_555
C1_20 C2_20 1_555 1_555
C2_20 C3_20 1_555 1_555
C3_20 H1_20 1_555 1_555
C4_20 C3_20 1_555 1_555
C5_20 C4_20 1_555 1_555
C6_20 C5_20 1_555 1_555
H2_20 C6_20 1_555 1_555
C7_20 C2_20 1_555 1_555
H3_20 C7_20 1_555 1_555
C8_20 C9_20 1_555 1_555
C9_20 H4_20 1_555 1_555
C10_20 C4_20 1_555 1_555
C11_20 N1_20 1_555 1_555
C12_20 C11_20 1_555 1_555
H5_20 C12_20 1_555 1_555
C13_20 C8_20 1_555 1_555
H6_20 C13_20 1_555 1_555
C14_20 C15_20 1_555 1_555
C15_20 H7_20 1_555 1_555
C16_20 C15_20 1_555 1_555
C17_20 C16_20 1_555 1_555
C18_20 C17_20 1_555 1_555
H8_20 C18_20 1_555 1_555
C19_20 C14_20 1_555 1_555
H9_20 C19_20 1_555 1_555
C20_20 C21_20 1_555 1_555
C21_20 C22_20 1_555 1_555
C22_20 H10_20 1_555 1_555
C23_20 C22_20 1_555 1_555
H11_20 C23_20 1_555 1_555
C24_20 N2_20 1_555 1_555
C25_20 C16_20 1_555 1_555
C26_20 C21_20 1_555 1_555
H12_20 C26_20 1_555 1_555
C27_20 C8_20 1_555 1_555
C28_20 C14_20 1_555 1_555
C29_20 C30_20 1_555 1_555
C30_20 H13_20 1_555 1_555
C31_20 C30_20 1_555 1_555
H14_20 C31_20 1_555 1_555
C32_20 N2_20 1_555 1_555
C33_20 C32_20 1_555 1_555
H15_20 C33_20 1_555 1_555
C34_20 C29_20 1_555 1_555
H16_20 C34_20 1_555 1_555
C35_20 N1_20 1_555 1_555
C36_20 C35_20 1_555 1_555
H17_20 C36_20 1_555 1_555
C37_20 C36_20 1_555 1_555
H18_20 C37_20 1_555 1_555
C38_20 C29_20 1_555 1_555
C39_20 C38_20 1_555 1_555
H19_20 C39_20 1_555 1_555
C40_20 C35_20 1_555 1_555
H20_20 C40_20 1_555 1_555
C6_20 C7_20 1_555 1_555
C9_20 C10_20 1_555 1_555
C10_20 C11_20 1_555 1_555
C12_20 C13_20 1_555 1_555
C18_20 C19_20 1_555 1_555
C23_20 C24_20 1_555 1_555
C24_20 C25_20 1_555 1_555
C25_20 C26_20 1_555 1_555
C31_20 C32_20 1_555 1_555
C33_20 C34_20 1_555 1_555
C37_20 C38_20 1_555 1_555
C39_20 C40_20 1_555 1_555
O9_20 Ni8_9 1_555 1_555
O10_20 Ni5_9 1_555 1_555
O13_16 Ni5_9 1_555 1_555
O14_16 Ni8_9 1_555 1_555
O10_20 H21_20 1_555 1_555
O10_20 H22_20 1_555 1_555
O9_20 H23_20 1_555 1_555
O9_20 H24_20 1_555 1_555
O9_21 Ni8_2 1_555 1_555
O10_21 Ni5_2 1_555 1_555
O11_11 Ni5_2 1_555 1_555
O12_11 Ni8_2 1_555 1_555
O10_21 H21_21 1_555 1_555
O10_21 H22_21 1_555 1_555
O9_21 H23_21 1_555 1_555
O9_21 H24_21 1_555 1_555
O1_21 C20_21 1_555 1_555
O2_21 C20_21 1_555 1_555
O13_13 C1_21 1_555 1_555
O14_13 C1_21 1_555 1_555
O15_8 C28_21 1_555 1_555
O16_8 C28_21 1_555 1_555
N1_21 C5_21 1_555 1_555
N2_21 C17_21 1_555 1_555
C1_21 C2_21 1_555 1_555
C2_21 C3_21 1_555 1_555
C3_21 H1_21 1_555 1_555
C4_21 C3_21 1_555 1_555
C5_21 C4_21 1_555 1_555
C6_21 C5_21 1_555 1_555
H2_21 C6_21 1_555 1_555
C7_21 C2_21 1_555 1_555
H3_21 C7_21 1_555 1_555
C10_21 C4_21 1_555 1_555
C11_21 N1_21 1_555 1_555
C14_21 C15_21 1_555 1_555
C15_21 H7_21 1_555 1_555
C16_21 C15_21 1_555 1_555
C17_21 C16_21 1_555 1_555
C18_21 C17_21 1_555 1_555
H8_21 C18_21 1_555 1_555
C19_21 C14_21 1_555 1_555
H9_21 C19_21 1_555 1_555
C20_21 C21_21 1_555 1_555
C21_21 C22_21 1_555 1_555
C22_21 H10_21 1_555 1_555
C23_21 C22_21 1_555 1_555
H11_21 C23_21 1_555 1_555
C24_21 N2_21 1_555 1_555
C25_21 C16_21 1_555 1_555
C26_21 C21_21 1_555 1_555
H12_21 C26_21 1_555 1_555
C28_21 C14_21 1_555 1_555
C29_21 C30_21 1_555 1_555
C31_21 C30_21 1_555 1_555
C32_21 N2_21 1_555 1_555
C33_21 C32_21 1_555 1_555
H15_21 C33_21 1_555 1_555
C34_21 C29_21 1_555 1_555
H16_21 C34_21 1_555 1_555
C35_21 N1_21 1_555 1_555
C36_21 C35_21 1_555 1_555
H17_21 C36_21 1_555 1_555
C37_21 C36_21 1_555 1_555
H18_21 C37_21 1_555 1_555
C38_21 C29_21 1_555 1_555
C6_21 C7_21 1_555 1_555
C10_21 C11_21 1_555 1_555
C18_21 C19_21 1_555 1_555
C23_21 C24_21 1_555 1_555
C24_21 C25_21 1_555 1_555
C25_21 C26_21 1_555 1_555
C31_21 C32_21 1_555 1_555
C33_21 C34_21 1_555 1_555
C37_21 C38_21 1_555 1_555
O3_11 C27_21 1_555 1_555
O4_11 C27_21 1_555 1_555
C8_21 C9_21 1_555 1_555
C9_21 H4_21 1_555 1_555
H5_21 C12_21 1_555 1_555
C13_21 C8_21 1_555 1_555
H6_21 C13_21 1_555 1_555
C27_21 C8_21 1_555 1_555
H19_21 C39_21 1_555 1_555
H20_21 C40_21 1_555 1_555
Ni5_4 O3_11 1_555 1_555
Ni8_4 O4_11 1_555 1_555
C12_21 C13_21 1_555 1_555
C39_21 C40_21 1_555 1_555
O11_11 C27_22 1_555 1_555
O12_11 C27_22 1_555 1_555
C8_22 C9_22 1_555 1_555
C9_22 H4_22 1_555 1_555
H5_22 C12_22 1_555 1_555
C13_22 C8_22 1_555 1_555
H6_22 C13_22 1_555 1_555
C27_22 C8_22 1_555 1_555
H19_22 C39_22 1_555 1_555
H20_22 C40_22 1_555 1_555
C12_22 C13_22 1_555 1_555
C39_22 C40_22 1_555 1_555
Ni5_4 O1_22 1_555 1_555
Ni8_4 O2_22 1_555 1_555
O1_22 C20_22 1_555 1_555
O2_22 C20_22 1_555 1_555
O13_16 C1_22 1_555 1_555
O14_16 C1_22 1_555 1_555
O15_5 C28_22 1_555 1_555
O16_5 C28_22 1_555 1_555
O9_22 Ni8_4 1_555 1_555
O10_22 Ni5_4 1_555 1_555
N1_22 C5_22 1_555 1_555
N2_22 C17_22 1_555 1_555
C1_22 C2_22 1_555 1_555
C2_22 C3_22 1_555 1_555
C3_22 H1_22 1_555 1_555
C4_22 C3_22 1_555 1_555
C5_22 C4_22 1_555 1_555
C6_22 C5_22 1_555 1_555
H2_22 C6_22 1_555 1_555
C7_22 C2_22 1_555 1_555
H3_22 C7_22 1_555 1_555
C10_22 C4_22 1_555 1_555
C11_22 N1_22 1_555 1_555
C14_22 C15_22 1_555 1_555
C15_22 H7_22 1_555 1_555
C16_22 C15_22 1_555 1_555
C17_22 C16_22 1_555 1_555
C18_22 C17_22 1_555 1_555
H8_22 C18_22 1_555 1_555
C19_22 C14_22 1_555 1_555
H9_22 C19_22 1_555 1_555
C20_22 C21_22 1_555 1_555
C21_22 C22_22 1_555 1_555
C22_22 H10_22 1_555 1_555
C23_22 C22_22 1_555 1_555
H11_22 C23_22 1_555 1_555
C24_22 N2_22 1_555 1_555
C25_22 C16_22 1_555 1_555
C26_22 C21_22 1_555 1_555
H12_22 C26_22 1_555 1_555
C28_22 C14_22 1_555 1_555
C29_22 C30_22 1_555 1_555
C31_22 C30_22 1_555 1_555
C32_22 N2_22 1_555 1_555
C33_22 C32_22 1_555 1_555
H15_22 C33_22 1_555 1_555
C34_22 C29_22 1_555 1_555
H16_22 C34_22 1_555 1_555
C35_22 N1_22 1_555 1_555
C36_22 C35_22 1_555 1_555
H17_22 C36_22 1_555 1_555
C37_22 C36_22 1_555 1_555
H18_22 C37_22 1_555 1_555
C38_22 C29_22 1_555 1_555
C6_22 C7_22 1_555 1_555
C10_22 C11_22 1_555 1_555
C18_22 C19_22 1_555 1_555
C23_22 C24_22 1_555 1_555
C24_22 C25_22 1_555 1_555
C25_22 C26_22 1_555 1_555
C31_22 C32_22 1_555 1_555
C33_22 C34_22 1_555 1_555
C37_22 C38_22 1_555 1_555
O10_22 H21_22 1_555 1_555
O10_22 H22_22 1_555 1_555
O9_22 H23_22 1_555 1_555
O9_22 H24_22 1_555 1_555
Ni5_3 O1_23 1_555 1_555
Ni8_3 O2_23 1_555 1_555
O1_23 C20_23 1_555 1_555
O2_23 C20_23 1_555 1_555
O3_12 C27_23 1_555 1_555
O4_12 C27_23 1_555 1_555
O13_14 C1_23 1_555 1_555
O14_14 C1_23 1_555 1_555
O15_7 C28_23 1_555 1_555
O16_7 C28_23 1_555 1_555
O9_23 Ni8_3 1_555 1_555
O10_23 Ni5_3 1_555 1_555
N1_23 C5_23 1_555 1_555
N2_23 C17_23 1_555 1_555
C1_23 C2_23 1_555 1_555
C2_23 C3_23 1_555 1_555
C3_23 H1_23 1_555 1_555
C4_23 C3_23 1_555 1_555
C5_23 C4_23 1_555 1_555
C6_23 C5_23 1_555 1_555
H2_23 C6_23 1_555 1_555
C7_23 C2_23 1_555 1_555
H3_23 C7_23 1_555 1_555
C8_23 C9_23 1_555 1_555
C9_23 H4_23 1_555 1_555
C10_23 C4_23 1_555 1_555
C11_23 N1_23 1_555 1_555
C12_23 C11_23 1_555 1_555
H5_23 C12_23 1_555 1_555
C13_23 C8_23 1_555 1_555
H6_23 C13_23 1_555 1_555
C14_23 C15_23 1_555 1_555
C15_23 H7_23 1_555 1_555
C16_23 C15_23 1_555 1_555
C17_23 C16_23 1_555 1_555
C18_23 C17_23 1_555 1_555
H8_23 C18_23 1_555 1_555
C19_23 C14_23 1_555 1_555
H9_23 C19_23 1_555 1_555
C20_23 C21_23 1_555 1_555
C21_23 C22_23 1_555 1_555
C22_23 H10_23 1_555 1_555
C23_23 C22_23 1_555 1_555
H11_23 C23_23 1_555 1_555
C24_23 N2_23 1_555 1_555
C25_23 C16_23 1_555 1_555
C26_23 C21_23 1_555 1_555
H12_23 C26_23 1_555 1_555
C27_23 C8_23 1_555 1_555
C28_23 C14_23 1_555 1_555
C29_23 C30_23 1_555 1_555
C30_23 H13_23 1_555 1_555
C31_23 C30_23 1_555 1_555
H14_23 C31_23 1_555 1_555
C32_23 N2_23 1_555 1_555
C33_23 C32_23 1_555 1_555
H15_23 C33_23 1_555 1_555
C34_23 C29_23 1_555 1_555
H16_23 C34_23 1_555 1_555
C35_23 N1_23 1_555 1_555
C36_23 C35_23 1_555 1_555
H17_23 C36_23 1_555 1_555
C37_23 C36_23 1_555 1_555
H18_23 C37_23 1_555 1_555
C38_23 C29_23 1_555 1_555
C39_23 C38_23 1_555 1_555
H19_23 C39_23 1_555 1_555
C40_23 C35_23 1_555 1_555
H20_23 C40_23 1_555 1_555
Ni5 O3_12 1_555 1_555
Ni8 O4_12 1_555 1_555
O11_12 Ni5_3 1_555 1_555
O12_12 Ni8_3 1_555 1_555
C6_23 C7_23 1_555 1_555
C9_23 C10_23 1_555 1_555
C10_23 C11_23 1_555 1_555
C12_23 C13_23 1_555 1_555
C18_23 C19_23 1_555 1_555
C23_23 C24_23 1_555 1_555
C24_23 C25_23 1_555 1_555
C25_23 C26_23 1_555 1_555
C31_23 C32_23 1_555 1_555
C33_23 C34_23 1_555 1_555
C37_23 C38_23 1_555 1_555
C39_23 C40_23 1_555 1_555
O10_23 H21_23 1_555 1_555
O10_23 H22_23 1_555 1_555
O9_23 H23_23 1_555 1_555
O9_23 H24_23 1_555 1_555
O1_24 C20_24 1_555 1_555
O2_24 C20_24 1_555 1_555
O11_12 C27_24 1_555 1_555
O12_12 C27_24 1_555 1_555
O13_15 C1_24 1_555 1_555
O14_15 C1_24 1_555 1_555
O15_6 C28_24 1_555 1_555
O16_6 C28_24 1_555 1_555
N1_24 C5_24 1_555 1_555
N2_24 C17_24 1_555 1_555
C1_24 C2_24 1_555 1_555
C2_24 C3_24 1_555 1_555
C3_24 H1_24 1_555 1_555
C4_24 C3_24 1_555 1_555
C5_24 C4_24 1_555 1_555
C6_24 C5_24 1_555 1_555
H2_24 C6_24 1_555 1_555
C7_24 C2_24 1_555 1_555
H3_24 C7_24 1_555 1_555
C8_24 C9_24 1_555 1_555
C9_24 H4_24 1_555 1_555
C10_24 C4_24 1_555 1_555
C11_24 N1_24 1_555 1_555
C12_24 C11_24 1_555 1_555
H5_24 C12_24 1_555 1_555
C13_24 C8_24 1_555 1_555
H6_24 C13_24 1_555 1_555
C14_24 C15_24 1_555 1_555
C15_24 H7_24 1_555 1_555
C16_24 C15_24 1_555 1_555
C17_24 C16_24 1_555 1_555
C18_24 C17_24 1_555 1_555
H8_24 C18_24 1_555 1_555
C19_24 C14_24 1_555 1_555
H9_24 C19_24 1_555 1_555
C20_24 C21_24 1_555 1_555
C21_24 C22_24 1_555 1_555
C22_24 H10_24 1_555 1_555
C23_24 C22_24 1_555 1_555
H11_24 C23_24 1_555 1_555
C24_24 N2_24 1_555 1_555
C25_24 C16_24 1_555 1_555
C26_24 C21_24 1_555 1_555
H12_24 C26_24 1_555 1_555
C27_24 C8_24 1_555 1_555
C28_24 C14_24 1_555 1_555
C29_24 C30_24 1_555 1_555
C30_24 H13_24 1_555 1_555
C31_24 C30_24 1_555 1_555
H14_24 C31_24 1_555 1_555
C32_24 N2_24 1_555 1_555
C33_24 C32_24 1_555 1_555
H15_24 C33_24 1_555 1_555
C34_24 C29_24 1_555 1_555
H16_24 C34_24 1_555 1_555
C35_24 N1_24 1_555 1_555
C36_24 C35_24 1_555 1_555
H17_24 C36_24 1_555 1_555
C37_24 C36_24 1_555 1_555
H18_24 C37_24 1_555 1_555
C38_24 C29_24 1_555 1_555
C39_24 C38_24 1_555 1_555
H19_24 C39_24 1_555 1_555
C40_24 C35_24 1_555 1_555
H20_24 C40_24 1_555 1_555
C6_24 C7_24 1_555 1_555
C9_24 C10_24 1_555 1_555
C10_24 C11_24 1_555 1_555
C12_24 C13_24 1_555 1_555
C18_24 C19_24 1_555 1_555
C23_24 C24_24 1_555 1_555
C24_24 C25_24 1_555 1_555
C25_24 C26_24 1_555 1_555
C31_24 C32_24 1_555 1_555
C33_24 C34_24 1_555 1_555
C37_24 C38_24 1_555 1_555
C39_24 C40_24 1_555 1_555
O9_24 Ni8 1_555 1_555
O10_24 Ni5 1_555 1_555
O10_24 H21_24 1_555 1_555
O10_24 H22_24 1_555 1_555
O9_24 H23_24 1_555 1_555
O9_24 H24_24 1_555 1_555

#END
