
###############################################################################
#
# This file contains modified crystal structure data generated from the
# MOF subset of the Cambridge Structural Database (CSD) v543 
# hosted by the Cambridge Crystallographic Data Centre (CCDC).
#
# This work is licensed under the Creative Commons
# Attribution-NonCommercial-ShareAlike 4.0 International License.
# To view a copy of this license, visit
# http://creativecommons.org/licenses/by-nc-sa/4.0/
# or send a letter to
# Creative Commons, PO Box 1866, Mountain View, CA 94042, USA.
#
# CIF created using the CSD Python API on 29 September 2022
# The structure has been converted into the P1 space group
# The structure has a 3D framework
# The original CSD entry PAHYIK is in the cubic crystal system
# The framework has been calculated to contain at least 10.0% void space
# The void calculation uses a probe of radius 1.32A, grid spacing 0.4
# H atom positions have been added when not included in the experimental data
#
###############################################################################

data_PAHYIK
_chemical_formula_moiety         '(C960 H576 N48 O240 Zn48)n'
_symmetry_cell_setting           triclinic
_symmetry_space_group_name_H-M   'P 1'
_symmetry_Int_Tables_number      1
_space_group_name_Hall           'P 1'
loop_
_symmetry_equiv_pos_site_id
_symmetry_equiv_pos_as_xyz
1 x,y,z
_cell_length_a                   45.610(5)
_cell_length_b                   45.610(5)
_cell_length_c                   45.610(5)
_cell_angle_alpha                90
_cell_angle_beta                 90
_cell_angle_gamma                90
_cell_volume                     94881.2
loop_
_atom_site_label
_atom_site_type_symbol
_atom_site_fract_x
_atom_site_fract_y
_atom_site_fract_z
O3 O 0.14593(14) 0.01585(13) 0.42531(14)
O4 O 0.19304(16) 0.03034(15) 0.41454(15)
C8 C 0.16246(15) 0.01391(17) 0.37524(11)
C9 C 0.13479(13) 0.00572(16) 0.36543(12)
H4 H 0.118606 0.005942 0.378548
C12 C 0.18214(12) 0.0051(2) 0.32706(15)
H5 H 0.198316 0.004871 0.313943
C13 C 0.18613(12) 0.01359(19) 0.35605(16)
H6 H 0.205043 0.019190 0.362747
C27 C 0.1669(3) 0.0195(2) 0.4065(3)
H13 H 0.219733 0.002680 0.175207
H19 H 0.181552 0.005117 0.202686
H20 H 0.148919 0.012048 0.241663
Zn3 Zn 0.14462(2) 0.02322(2) 0.46826(2)
Zn6 Zn 0.20766(2) 0.03473(2) 0.45545(2)
O13 O 0.33746(15) 0.01739(14) 0.97445(14)
O14 O 0.29118(14) 0.00859(16) 0.95835(14)
O1 O 0.34093(15) 0.96667(14) 0.00888(13)
O5 O 0.01739(14) 0.97445(14) 0.33746(15)
O6 O 0.00859(16) 0.95835(14) 0.29118(14)
O7 O 0.43361(13) 0.95957(15) 0.14113(15)
O8 O 0.42479(14) 0.95690(16) 0.19009(16)
N1 N 0.14449(19) 0.9881(3) 0.29082(17)
N2 N 0.29648(17) 0.9523(3) 0.13831(17)
C1 C 0.0267(2) 0.9683(2) 0.3119(3)
C2 C 0.05703(11) 0.97132(16) 0.30452(14)
C3 C 0.07570(14) 0.98258(14) 0.32581(11)
H1 H 0.068423 0.986853 0.344849
C4 C 0.10504(13) 0.98760(16) 0.31923(12)
C5 C 0.11569(12) 0.9814(2) 0.29137(14)
C6 C 0.09701(16) 0.9701(2) 0.27008(11)
H2 H 0.104294 0.965826 0.251043
C7 C 0.06768(15) 0.96508(18) 0.27666(13)
H3 H 0.054916 0.957378 0.262113
C10 C 0.13079(11) 0.99722(17) 0.33644(13)
C11 C 0.15447(14) 0.9969(2) 0.31725(11)
C14 C 0.38442(10) 0.95608(17) 0.15794(14)
C15 C 0.37377(11) 0.95700(17) 0.12940(12)
H7 H 0.387028 0.958001 0.113368
C16 C 0.34373(12) 0.95647(19) 0.12433(11)
C17 C 0.32433(9) 0.9550(2) 0.14779(13)
C18 C 0.33498(13) 0.9541(2) 0.17633(12)
H8 H 0.321728 0.953095 0.192363
C19 C 0.36503(14) 0.9546(2) 0.18141(11)
H9 H 0.372307 0.953994 0.200911
C20 C 0.3147(2) 0.9651(2) 0.0177(2)
C21 C 0.30772(13) 0.96211(18) 0.04829(10)
C22 C 0.27894(11) 0.9611(2) 0.05828(13)
H10 H 0.263168 0.962014 0.044717
C23 C 0.27326(10) 0.9586(2) 0.08812(14)
H11 H 0.253591 0.957901 0.094951
C24 C 0.29634(13) 0.9572(2) 0.10797(10)
C25 C 0.32511(11) 0.9583(2) 0.09798(12)
C26 C 0.33080(9) 0.96072(18) 0.06814(13)
H12 H 0.350465 0.961434 0.061313
C28 C 0.4158(3) 0.95673(18) 0.1636(3)
C29 C 0.22548(15) 0.9637(2) 0.19633(16)
C30 C 0.23142(17) 0.98545(19) 0.1758(2)
C31 C 0.2545(2) 0.9820(2) 0.15617(18)
H14 H 0.258529 0.996835 0.142149
C32 C 0.27157(16) 0.9568(2) 0.15706(18)
C33 C 0.26563(17) 0.9350(2) 0.1776(2)
H15 H 0.277324 0.917809 0.178177
C34 C 0.24259(18) 0.9385(2) 0.19721(17)
H16 H 0.238528 0.923653 0.211236
C35 C 0.1656(2) 0.9798(3) 0.2677(2)
C36 C 0.1871(3) 0.9582(3) 0.2695(2)
H17 H 0.188473 0.946289 0.286472
C37 C 0.2065(3) 0.9541(3) 0.2463(3)
H18 H 0.221106 0.939359 0.247494
C38 C 0.2044(3) 0.9716(3) 0.2214(2)
C39 C 0.1830(3) 0.9932(3) 0.2197(2)
C40 C 0.1636(3) 0.9973(3) 0.2428(3)
Zn5 Zn 0.47678(2) 0.96826(2) 0.14462(2)
Zn8 Zn 0.46527(2) 0.95545(2) 0.20766(2)
Zn1 Zn 0.35538(2) 0.97678(2) 0.96826(2)
Zn2 Zn 0.29234(2) 0.96527(2) 0.95545(2)
O2 O 0.29182(17) 0.96445(17) 0.9991(2)
O9 O 0.25016(16) 0.9564(2) 0.9469(2)
O10 O 0.39675(14) 0.98620(19) 0.9769(2)
O11 O 0.35407(14) 0.98415(13) 0.92531(14)
O12 O 0.30696(16) 0.96966(15) 0.91454(15)
O15 O 0.35887(15) 0.93361(13) 0.95957(15)
O16 O 0.30991(16) 0.92479(14) 0.95690(16)
H21 H 0.237562 0.971744 0.955836
H22 H 0.247033 0.956082 0.925356
H23 H 0.406486 0.968793 0.985629
H24 H 0.406935 0.991732 0.95847
Zn4 Zn 0.97678(2) 0.96826(2) 0.35538(2)
Zn7 Zn 0.96527(2) 0.95545(2) 0.29234(2)
O1_2 O 0.15907(15) 0.03333(14) 0.50888(13)
O2_2 O 0.20818(17) 0.03555(17) 0.4991(2)
O5_2 O 0.48261(14) 0.02555(14) 0.83746(15)
O6_2 O 0.49141(16) 0.04165(14) 0.79118(14)
O7_2 O 0.06639(13) 0.04043(15) 0.64113(15)
O8_2 O 0.07521(14) 0.04310(16) 0.69009(16)
O9_2 O 0.24984(16) 0.0436(2) 0.4469(2)
O10_2 O 0.10325(14) 0.01380(19) 0.4769(2)
N1_2 N 0.35551(19) 0.0119(3) 0.79082(17)
N2_2 N 0.20352(17) 0.0477(3) 0.63831(17)
C1_2 C 0.4733(2) 0.0317(2) 0.8119(3)
C2_2 C 0.44297(11) 0.02868(16) 0.80452(14)
C3_2 C 0.42430(14) 0.01742(14) 0.82581(11)
H1_2 H 0.431577 0.013147 0.844849
C4_2 C 0.39496(13) 0.01240(16) 0.81923(12)
C5_2 C 0.38431(12) 0.0186(2) 0.79137(14)
C6_2 C 0.40299(16) 0.0299(2) 0.77008(11)
H2_2 H 0.395706 0.034174 0.751043
C7_2 C 0.43232(15) 0.03492(18) 0.77666(13)
H3_2 H 0.445084 0.042622 0.762113
C10_2 C 0.36921(11) 0.00278(17) 0.83644(13)
C11_2 C 0.34553(14) 0.0031(2) 0.81725(11)
C14_2 C 0.11558(10) 0.04392(17) 0.65794(14)
C15_2 C 0.12623(11) 0.04300(17) 0.62940(12)
H7_2 H 0.112972 0.041999 0.613368
C16_2 C 0.15627(12) 0.04353(19) 0.62433(11)
C17_2 C 0.17567(9) 0.0450(2) 0.64779(13)
C18_2 C 0.16502(13) 0.0459(2) 0.67633(12)
H8_2 H 0.178272 0.046905 0.692363
C19_2 C 0.13497(14) 0.0454(2) 0.68141(11)
H9_2 H 0.127693 0.046006 0.700911
C20_2 C 0.1853(2) 0.0349(2) 0.5177(2)
C21_2 C 0.19228(13) 0.03789(18) 0.54829(10)
C22_2 C 0.22106(11) 0.0389(2) 0.55828(13)
H10_2 H 0.236832 0.037986 0.544717
C23_2 C 0.22674(10) 0.0414(2) 0.58812(14)
H11_2 H 0.246409 0.042099 0.594951
C24_2 C 0.20366(13) 0.0428(2) 0.60797(10)
C25_2 C 0.17489(11) 0.0417(2) 0.59798(12)
C26_2 C 0.16920(9) 0.03928(18) 0.56814(13)
H12_2 H 0.149535 0.038566 0.561313
C28_2 C 0.0842(3) 0.04327(18) 0.6636(3)
C29_2 C 0.27452(15) 0.0363(2) 0.69633(16)
C30_2 C 0.26858(17) 0.01455(19) 0.6758(2)
C31_2 C 0.2455(2) 0.0180(2) 0.65617(18)
H14_2 H 0.241471 0.003165 0.642149
C32_2 C 0.22843(16) 0.0432(2) 0.65706(18)
C33_2 C 0.23437(17) 0.0650(2) 0.6776(2)
H15_2 H 0.222676 0.082191 0.678177
C34_2 C 0.25741(18) 0.0615(2) 0.69721(17)
H16_2 H 0.261472 0.076347 0.711236
C35_2 C 0.3344(2) 0.0202(3) 0.7677(2)
C36_2 C 0.3129(3) 0.0418(3) 0.7695(2)
H17_2 H 0.311527 0.053711 0.786472
C37_2 C 0.2935(3) 0.0459(3) 0.7463(3)
H18_2 H 0.278894 0.060641 0.747494
C38_2 C 0.2956(3) 0.0284(3) 0.7214(2)
C39_2 C 0.3170(3) 0.0068(3) 0.7197(2)
C40_2 C 0.3364(3) 0.0027(3) 0.7428(3)
Zn4_2 Zn 0.52322(2) 0.03174(2) 0.85538(2)
Zn5_2 Zn 0.02322(2) 0.03174(2) 0.64462(2)
Zn7_2 Zn 0.53473(2) 0.04455(2) 0.79234(2)
Zn8_2 Zn 0.03473(2) 0.04455(2) 0.70766(2)
O15_2 O 0.14113(15) 0.06639(13) 0.45957(15)
O16_2 O 0.19009(16) 0.07521(14) 0.45690(16)
H21_2 H 0.262438 0.0282563 0.455836
H22_2 H 0.252967 0.0439179 0.425356
H23_2 H 0.0935137 0.0312072 0.485629
H24_2 H 0.0930649 0.00826818 0.45847
C8_2 C 0.33754(15) 0.98609(17) 0.87524(11)
C9_2 C 0.36521(13) 0.99428(16) 0.86543(12)
H4_2 H 0.381394 0.994058 0.878548
C12_2 C 0.31786(12) 0.9949(2) 0.82706(15)
H5_2 H 0.301684 0.995129 0.813943
C13_2 C 0.31387(12) 0.98641(19) 0.85605(16)
H6_2 H 0.294957 0.980810 0.862747
C27_2 C 0.3331(3) 0.9805(2) 0.9065(3)
H13_2 H 0.280267 0.997320 0.675207
H19_2 H 0.318448 0.994883 0.702686
H20_2 H 0.351081 0.987952 0.741663
O13_2 O 0.16254(15) 0.98261(14) 0.47445(14)
O14_2 O 0.20882(14) 0.99141(16) 0.45835(14)
Zn4_3 Zn 0.02322(2) 0.46826(2) 0.14462(2)
Zn7_3 Zn 0.03473(2) 0.45545(2) 0.20766(2)
Zn1_2 Zn 0.64462(2) 0.47678(2) 0.53174(2)
Zn2_2 Zn 0.70766(2) 0.46527(2) 0.54455(2)
O1_3 O 0.65907(15) 0.46667(14) 0.49112(13)
O2_3 O 0.70818(17) 0.46445(17) 0.5009(2)
O3_2 O 0.85407(14) 0.51585(13) 0.07469(14)
O4_2 O 0.80696(16) 0.53034(15) 0.08546(15)
O5_3 O 0.98261(14) 0.47445(14) 0.16254(15)
O6_3 O 0.99141(16) 0.45835(14) 0.20882(14)
O7_3 O 0.56639(13) 0.45957(15) 0.35887(15)
O8_3 O 0.57521(14) 0.45690(16) 0.30991(16)
O9_3 O 0.74984(16) 0.4564(2) 0.5531(2)
O10_3 O 0.60325(14) 0.48620(19) 0.5231(2)
N1_3 N 0.85551(19) 0.4881(3) 0.20918(17)
N2_3 N 0.70352(17) 0.4523(3) 0.36169(17)
C1_3 C 0.9733(2) 0.4683(2) 0.1881(3)
C2_3 C 0.94297(11) 0.47132(16) 0.19548(14)
C3_3 C 0.92430(14) 0.48258(14) 0.17419(11)
H1_3 H 0.931577 0.486853 0.155151
C4_3 C 0.89496(13) 0.48760(16) 0.18077(12)
C5_3 C 0.88431(12) 0.4814(2) 0.20863(14)
C6_3 C 0.90299(16) 0.4701(2) 0.22992(11)
H2_3 H 0.895706 0.465826 0.248957
C7_3 C 0.93232(15) 0.46508(18) 0.22334(13)
H3_3 H 0.945084 0.457378 0.237887
C8_3 C 0.83754(15) 0.51391(17) 0.12476(11)
C9_3 C 0.86521(13) 0.50572(16) 0.13457(12)
H4_3 H 0.881394 0.505942 0.121452
C10_3 C 0.86921(11) 0.49722(17) 0.16356(13)
C11_3 C 0.84553(14) 0.4969(2) 0.18275(11)
C12_3 C 0.81786(12) 0.5051(2) 0.17294(15)
H5_3 H 0.801684 0.504871 0.186057
C13_3 C 0.81387(12) 0.51359(19) 0.14395(16)
H6_3 H 0.794957 0.519190 0.137253
C14_3 C 0.61558(10) 0.45608(17) 0.34206(14)
C15_3 C 0.62623(11) 0.45700(17) 0.37060(12)
H7_3 H 0.612972 0.458001 0.386632
C16_3 C 0.65627(12) 0.45647(19) 0.37567(11)
C17_3 C 0.67567(9) 0.4550(2) 0.35221(13)
C18_3 C 0.66502(13) 0.4541(2) 0.32367(12)
H8_3 H 0.678272 0.453095 0.307637
C19_3 C 0.63497(14) 0.4546(2) 0.31859(11)
H9_3 H 0.627693 0.453994 0.299089
C20_3 C 0.6853(2) 0.4651(2) 0.4823(2)
C21_3 C 0.69228(13) 0.46211(18) 0.45171(10)
C22_3 C 0.72106(11) 0.4611(2) 0.44172(13)
H10_3 H 0.736832 0.462014 0.455283
C23_3 C 0.72674(10) 0.4586(2) 0.41188(14)
H11_3 H 0.746409 0.457901 0.405049
C24_3 C 0.70366(13) 0.4572(2) 0.39203(10)
C25_3 C 0.67489(11) 0.4583(2) 0.40202(12)
C26_3 C 0.66920(9) 0.46072(18) 0.43186(13)
H12_3 H 0.649535 0.461434 0.438687
C27_3 C 0.8331(3) 0.5195(2) 0.0935(3)
C28_3 C 0.5842(3) 0.45673(18) 0.3364(3)
C29_3 C 0.77452(15) 0.4637(2) 0.30367(16)
C30_3 C 0.76858(17) 0.48545(19) 0.3242(2)
H13_3 H 0.780267 0.502680 0.324793
C31_3 C 0.7455(2) 0.4820(2) 0.34383(18)
H14_3 H 0.741471 0.496835 0.357851
C32_3 C 0.72843(16) 0.4568(2) 0.34294(18)
C33_3 C 0.73437(17) 0.4350(2) 0.3224(2)
H15_3 H 0.722676 0.417809 0.321823
C34_3 C 0.75741(18) 0.4385(2) 0.30279(17)
H16_3 H 0.761472 0.423653 0.288764
C35_3 C 0.8344(2) 0.4798(3) 0.2323(2)
C36_3 C 0.8129(3) 0.4582(3) 0.2305(2)
H17_3 H 0.811527 0.446289 0.213528
C37_3 C 0.7935(3) 0.4541(3) 0.2537(3)
H18_3 H 0.778894 0.439359 0.252506
C38_3 C 0.7956(3) 0.4716(3) 0.2786(2)
C39_3 C 0.8170(3) 0.4932(3) 0.2803(2)
H19_3 H 0.818448 0.505117 0.297314
C40_3 C 0.8364(3) 0.4973(3) 0.2572(3)
H20_3 H 0.851081 0.512048 0.258337
Zn3_2 Zn 0.85538(2) 0.52322(2) 0.03174(2)
Zn5_3 Zn 0.52322(2) 0.46826(2) 0.35538(2)
Zn6_2 Zn 0.79234(2) 0.53473(2) 0.04455(2)
Zn8_3 Zn 0.53473(2) 0.45545(2) 0.29234(2)
O11_2 O 0.64593(14) 0.48415(13) 0.57469(14)
O12_2 O 0.69304(16) 0.46966(15) 0.58546(15)
O13_3 O 0.66254(15) 0.51739(14) 0.52555(14)
O14_3 O 0.70882(14) 0.50859(16) 0.54165(14)
O15_3 O 0.64113(15) 0.43361(13) 0.54043(15)
O16_3 O 0.69009(16) 0.42479(14) 0.54310(16)
H21_3 H 0.762438 0.471744 0.544164
H22_3 H 0.752967 0.456082 0.574644
H23_3 H 0.593514 0.468793 0.514371
H24_3 H 0.593065 0.491732 0.54153
O2_4 O 0.79182(17) 0.53555(17) 0.0009(2)
O9_4 O 0.75016(16) 0.5436(2) 0.0531(2)
O10_4 O 0.89675(14) 0.51380(19) 0.0231(2)
O13_4 O 0.83746(15) 0.48261(14) 0.02555(14)
O14_4 O 0.79118(14) 0.49141(16) 0.04165(14)
O15_4 O 0.85887(15) 0.56639(13) 0.04043(15)
O16_4 O 0.80991(16) 0.57521(14) 0.04310(16)
H21_4 H 0.737562 0.528256 0.044164
H22_4 H 0.747033 0.543918 0.0746435
H23_4 H 0.906486 0.531207 0.0143711
H24_4 H 0.906935 0.508268 0.0415299
O1_4 O 0.84093(15) 0.53333(14) 0.99112(13)
O5_4 O 0.51739(14) 0.52555(14) 0.66254(15)
O6_4 O 0.50859(16) 0.54165(14) 0.70882(14)
O7_4 O 0.93361(13) 0.54043(15) 0.85887(15)
O8_4 O 0.92479(14) 0.54310(16) 0.80991(16)
N1_4 N 0.64449(19) 0.5119(3) 0.70918(17)
N2_4 N 0.79648(17) 0.5477(3) 0.86169(17)
C1_4 C 0.5267(2) 0.5317(2) 0.6881(3)
C2_4 C 0.55703(11) 0.52868(16) 0.69548(14)
C3_4 C 0.57570(14) 0.51742(14) 0.67419(11)
H1_4 H 0.568423 0.513147 0.655151
C4_4 C 0.60504(13) 0.51240(16) 0.68077(12)
C5_4 C 0.61569(12) 0.5186(2) 0.70863(14)
C6_4 C 0.59701(16) 0.5299(2) 0.72992(11)
H2_4 H 0.604294 0.534174 0.748957
C7_4 C 0.56768(15) 0.53492(18) 0.72334(13)
H3_4 H 0.554916 0.542622 0.737887
C8_4 C 0.66246(15) 0.48609(17) 0.62476(11)
C9_4 C 0.63479(13) 0.49428(16) 0.63457(12)
H4_4 H 0.618606 0.494058 0.621452
C10_4 C 0.63079(11) 0.50278(17) 0.66356(13)
C11_4 C 0.65447(14) 0.5031(2) 0.68275(11)
C12_4 C 0.68214(12) 0.4949(2) 0.67294(15)
H5_4 H 0.698316 0.495129 0.686057
C13_4 C 0.68613(12) 0.48641(19) 0.64395(16)
H6_4 H 0.705043 0.480810 0.637253
C14_4 C 0.88442(10) 0.54392(17) 0.84206(14)
C15_4 C 0.87377(11) 0.54300(17) 0.87060(12)
H7_4 H 0.887028 0.541999 0.886632
C16_4 C 0.84373(12) 0.54353(19) 0.87567(11)
C17_4 C 0.82433(9) 0.5450(2) 0.85221(13)
C18_4 C 0.83498(13) 0.5459(2) 0.82367(12)
H8_4 H 0.821728 0.546905 0.807637
C19_4 C 0.86503(14) 0.5454(2) 0.81859(11)
H9_4 H 0.872307 0.546006 0.799089
C20_4 C 0.8147(2) 0.5349(2) 0.9823(2)
C21_4 C 0.80772(13) 0.53789(18) 0.95171(10)
C22_4 C 0.77894(11) 0.5389(2) 0.94172(13)
H10_4 H 0.763168 0.537986 0.955283
C23_4 C 0.77326(10) 0.5414(2) 0.91188(14)
H11_4 H 0.753591 0.542099 0.905049
C24_4 C 0.79634(13) 0.5428(2) 0.89203(10)
C25_4 C 0.82511(11) 0.5417(2) 0.90202(12)
C26_4 C 0.83080(9) 0.53928(18) 0.93186(13)
H12_4 H 0.850465 0.538566 0.938687
C27_4 C 0.6669(3) 0.4805(2) 0.5935(3)
C28_4 C 0.9158(3) 0.54327(18) 0.8364(3)
C29_4 C 0.72548(15) 0.5363(2) 0.80367(16)
C30_4 C 0.73142(17) 0.51455(19) 0.8242(2)
H13_4 H 0.719733 0.497320 0.824793
C31_4 C 0.7545(2) 0.5180(2) 0.84383(18)
H14_4 H 0.758529 0.503165 0.857851
C32_4 C 0.77157(16) 0.5432(2) 0.84294(18)
C33_4 C 0.76563(17) 0.5650(2) 0.8224(2)
H15_4 H 0.777324 0.582191 0.821823
C34_4 C 0.74259(18) 0.5615(2) 0.80279(17)
H16_4 H 0.738528 0.576347 0.788764
C35_4 C 0.6656(2) 0.5202(3) 0.7323(2)
C36_4 C 0.6871(3) 0.5418(3) 0.7305(2)
H17_4 H 0.688473 0.553711 0.713528
C37_4 C 0.7065(3) 0.5459(3) 0.7537(3)
H18_4 H 0.721106 0.560641 0.752506
C38_4 C 0.7044(3) 0.5284(3) 0.7786(2)
C39_4 C 0.6830(3) 0.5068(3) 0.7803(2)
H19_4 H 0.681552 0.494883 0.797314
C40_4 C 0.6636(3) 0.5027(3) 0.7572(3)
H20_4 H 0.648919 0.487952 0.758337
Zn4_4 Zn 0.47678(2) 0.53174(2) 0.64462(2)
Zn5_4 Zn 0.97678(2) 0.53174(2) 0.85538(2)
Zn7_4 Zn 0.46527(2) 0.54455(2) 0.70766(2)
Zn8_4 Zn 0.96527(2) 0.54455(2) 0.79234(2)
O3_3 O 0.42531(14) 0.14593(14) 0.01585(13)
O4_3 O 0.41454(15) 0.19304(16) 0.03034(15)
C8_5 C 0.37524(11) 0.16246(15) 0.01391(17)
C9_5 C 0.36543(12) 0.13479(13) 0.00572(16)
H4_5 H 0.378548 0.118606 0.005942
C12_5 C 0.32706(15) 0.18214(12) 0.0051(2)
H5_5 H 0.313943 0.198316 0.004871
C13_5 C 0.35605(16) 0.18613(12) 0.01359(19)
H6_5 H 0.362747 0.205043 0.019190
C27_5 C 0.4065(3) 0.1669(3) 0.0195(2)
H13_5 H 0.175207 0.219733 0.002680
H19_5 H 0.202686 0.181552 0.005117
H20_5 H 0.241663 0.148919 0.012048
Zn3_3 Zn 0.46826(2) 0.14462(2) 0.02322(2)
Zn6_3 Zn 0.45545(2) 0.20766(2) 0.03473(2)
O1_5 O 0.00888(13) 0.34093(15) 0.96667(14)
O7_5 O 0.14113(15) 0.43361(13) 0.95957(15)
O8_5 O 0.19009(16) 0.42479(14) 0.95690(16)
N1_5 N 0.29082(17) 0.14449(19) 0.9881(3)
N2_5 N 0.13831(17) 0.29648(17) 0.9523(3)
C1_5 C 0.3119(3) 0.0267(2) 0.9683(2)
C2_5 C 0.30452(14) 0.05703(11) 0.97132(16)
C3_5 C 0.32581(11) 0.07570(14) 0.98258(14)
H1_5 H 0.344849 0.068423 0.986853
C4_5 C 0.31923(12) 0.10504(13) 0.98760(16)
C5_5 C 0.29137(14) 0.11569(12) 0.9814(2)
C6_5 C 0.27008(11) 0.09701(16) 0.9701(2)
H2_5 H 0.251043 0.104294 0.965826
C7_5 C 0.27666(13) 0.06768(15) 0.96508(18)
H3_5 H 0.262113 0.054916 0.957378
C10_5 C 0.33644(13) 0.13079(11) 0.99722(17)
C11_5 C 0.31725(11) 0.15447(14) 0.9969(2)
C14_5 C 0.15794(14) 0.38442(10) 0.95608(17)
C15_5 C 0.12940(12) 0.37377(11) 0.95700(17)
H7_5 H 0.113368 0.387028 0.958001
C16_5 C 0.12433(11) 0.34373(12) 0.95647(19)
C17_5 C 0.14779(13) 0.32433(9) 0.9550(2)
C18_5 C 0.17633(12) 0.33498(13) 0.9541(2)
H8_5 H 0.192363 0.321728 0.953095
C19_5 C 0.18141(11) 0.36503(14) 0.9546(2)
H9_5 H 0.200911 0.372307 0.953994
C20_5 C 0.0177(2) 0.3147(2) 0.9651(2)
C21_5 C 0.04829(10) 0.30772(13) 0.96211(18)
C22_5 C 0.05828(13) 0.27894(11) 0.9611(2)
H10_5 H 0.044717 0.263168 0.962014
C23_5 C 0.08812(14) 0.27326(10) 0.9586(2)
H11_5 H 0.094951 0.253591 0.957901
C24_5 C 0.10797(10) 0.29634(13) 0.9572(2)
C25_5 C 0.09798(12) 0.32511(11) 0.9583(2)
C26_5 C 0.06814(13) 0.33080(9) 0.96072(18)
H12_5 H 0.061313 0.350465 0.961434
C28_5 C 0.1636(3) 0.4158(3) 0.95673(18)
C29_5 C 0.19633(16) 0.22548(15) 0.9637(2)
C30_5 C 0.1758(2) 0.23142(17) 0.98545(19)
C31_5 C 0.15617(18) 0.2545(2) 0.9820(2)
H14_5 H 0.142149 0.258529 0.996835
C32_5 C 0.15706(18) 0.27157(16) 0.9568(2)
C33_5 C 0.1776(2) 0.26563(17) 0.9350(2)
H15_5 H 0.178177 0.277324 0.917809
C34_5 C 0.19721(17) 0.24259(18) 0.9385(2)
H16_5 H 0.211236 0.238528 0.923653
C35_5 C 0.2677(2) 0.1656(2) 0.9798(3)
C36_5 C 0.2695(2) 0.1871(3) 0.9582(3)
H17_5 H 0.286472 0.188473 0.946289
C37_5 C 0.2463(3) 0.2065(3) 0.9541(3)
H18_5 H 0.247494 0.221106 0.939359
C38_5 C 0.2214(2) 0.2044(3) 0.9716(3)
C39_5 C 0.2197(2) 0.1830(3) 0.9932(3)
C40_5 C 0.2428(3) 0.1636(3) 0.9973(3)
Zn5_5 Zn 0.14462(2) 0.47678(2) 0.96826(2)
Zn8_5 Zn 0.20766(2) 0.46527(2) 0.95545(2)
O13_5 O 0.97445(14) 0.33746(15) 0.01739(14)
O14_5 O 0.95835(14) 0.29118(14) 0.00859(16)
Zn1_3 Zn 0.96826(2) 0.35538(2) 0.97678(2)
Zn2_3 Zn 0.95545(2) 0.29234(2) 0.96527(2)
O2_5 O 0.9991(2) 0.29182(17) 0.96445(17)
O9_5 O 0.9469(2) 0.25016(16) 0.9564(2)
O10_5 O 0.9769(2) 0.39675(14) 0.98620(19)
O11_3 O 0.92531(14) 0.35407(14) 0.98415(13)
O12_3 O 0.91454(15) 0.30696(16) 0.96966(15)
O15_5 O 0.95957(15) 0.35887(15) 0.93361(13)
O16_5 O 0.95690(16) 0.30991(16) 0.92479(14)
H21_5 H 0.955836 0.237562 0.971744
H22_5 H 0.925356 0.247033 0.956082
H23_5 H 0.985629 0.406486 0.968793
H24_5 H 0.95847 0.406935 0.991732
O1_6 O 0.50888(13) 0.15907(15) 0.03333(14)
O2_6 O 0.4991(2) 0.20818(17) 0.03555(17)
O7_6 O 0.64113(15) 0.06639(13) 0.04043(15)
O8_6 O 0.69009(16) 0.07521(14) 0.04310(16)
O9_6 O 0.4469(2) 0.24984(16) 0.0436(2)
O10_6 O 0.4769(2) 0.10325(14) 0.01380(19)
N1_6 N 0.79082(17) 0.35551(19) 0.0119(3)
N2_6 N 0.63831(17) 0.20352(17) 0.0477(3)
C1_6 C 0.8119(3) 0.4733(2) 0.0317(2)
C2_6 C 0.80452(14) 0.44297(11) 0.02868(16)
C3_6 C 0.82581(11) 0.42430(14) 0.01742(14)
H1_6 H 0.844849 0.431577 0.013147
C4_6 C 0.81923(12) 0.39496(13) 0.01240(16)
C5_6 C 0.79137(14) 0.38431(12) 0.0186(2)
C6_6 C 0.77008(11) 0.40299(16) 0.0299(2)
H2_6 H 0.751043 0.395706 0.034174
C7_6 C 0.77666(13) 0.43232(15) 0.03492(18)
H3_6 H 0.762113 0.445084 0.042622
C10_6 C 0.83644(13) 0.36921(11) 0.00278(17)
C11_6 C 0.81725(11) 0.34553(14) 0.0031(2)
C14_6 C 0.65794(14) 0.11558(10) 0.04392(17)
C15_6 C 0.62940(12) 0.12623(11) 0.04300(17)
H7_6 H 0.613368 0.112972 0.041999
C16_6 C 0.62433(11) 0.15627(12) 0.04353(19)
C17_6 C 0.64779(13) 0.17567(9) 0.0450(2)
C18_6 C 0.67633(12) 0.16502(13) 0.0459(2)
H8_6 H 0.692363 0.178272 0.046905
C19_6 C 0.68141(11) 0.13497(14) 0.0454(2)
H9_6 H 0.700911 0.127693 0.046006
C20_6 C 0.5177(2) 0.1853(2) 0.0349(2)
C21_6 C 0.54829(10) 0.19228(13) 0.03789(18)
C22_6 C 0.55828(13) 0.22106(11) 0.0389(2)
H10_6 H 0.544717 0.236832 0.037986
C23_6 C 0.58812(14) 0.22674(10) 0.0414(2)
H11_6 H 0.594951 0.246409 0.042099
C24_6 C 0.60797(10) 0.20366(13) 0.0428(2)
C25_6 C 0.59798(12) 0.17489(11) 0.0417(2)
C26_6 C 0.56814(13) 0.16920(9) 0.03928(18)
H12_6 H 0.561313 0.149535 0.038566
C28_6 C 0.6636(3) 0.0842(3) 0.04327(18)
C29_6 C 0.69633(16) 0.27452(15) 0.0363(2)
C30_6 C 0.6758(2) 0.26858(17) 0.01455(19)
C31_6 C 0.65617(18) 0.2455(2) 0.0180(2)
H14_6 H 0.642149 0.241471 0.003165
C32_6 C 0.65706(18) 0.22843(16) 0.0432(2)
C33_6 C 0.6776(2) 0.23437(17) 0.0650(2)
H15_6 H 0.678177 0.222676 0.082191
C34_6 C 0.69721(17) 0.25741(18) 0.0615(2)
H16_6 H 0.711236 0.261472 0.076347
C35_6 C 0.7677(2) 0.3344(2) 0.0202(3)
C36_6 C 0.7695(2) 0.3129(3) 0.0418(3)
H17_6 H 0.786472 0.311527 0.053711
C37_6 C 0.7463(3) 0.2935(3) 0.0459(3)
H18_6 H 0.747494 0.278894 0.060641
C38_6 C 0.7214(2) 0.2956(3) 0.0284(3)
C39_6 C 0.7197(2) 0.3170(3) 0.0068(3)
C40_6 C 0.7428(3) 0.3364(3) 0.0027(3)
Zn5_6 Zn 0.64462(2) 0.02322(2) 0.03174(2)
Zn8_6 Zn 0.70766(2) 0.03473(2) 0.04455(2)
O15_6 O 0.45957(15) 0.14113(15) 0.06639(13)
O16_6 O 0.45690(16) 0.19009(16) 0.07521(14)
H21_6 H 0.455836 0.262438 0.0282563
H22_6 H 0.425356 0.252967 0.0439179
H23_6 H 0.485629 0.0935137 0.0312072
H24_6 H 0.45847 0.0930649 0.00826818
C8_6 C 0.87524(11) 0.33754(15) 0.98609(17)
C9_6 C 0.86543(12) 0.36521(13) 0.99428(16)
H4_6 H 0.878548 0.381394 0.994058
C12_6 C 0.82706(15) 0.31786(12) 0.9949(2)
H5_6 H 0.813943 0.301684 0.995129
C13_6 C 0.85605(16) 0.31387(12) 0.98641(19)
H6_6 H 0.862747 0.294957 0.980810
C27_6 C 0.9065(3) 0.3331(3) 0.9805(2)
H13_6 H 0.675207 0.280267 0.997320
H19_6 H 0.702686 0.318448 0.994883
H20_6 H 0.741663 0.351081 0.987952
O13_6 O 0.47445(14) 0.16254(15) 0.98261(14)
O14_6 O 0.45835(14) 0.20882(14) 0.99141(16)
Zn1_4 Zn 0.53174(2) 0.64462(2) 0.47678(2)
Zn2_4 Zn 0.54455(2) 0.70766(2) 0.46527(2)
O1_7 O 0.49112(13) 0.65907(15) 0.46667(14)
O2_7 O 0.5009(2) 0.70818(17) 0.46445(17)
O3_4 O 0.07469(14) 0.85407(14) 0.51585(13)
O4_4 O 0.08546(15) 0.80696(16) 0.53034(15)
O7_7 O 0.35887(15) 0.56639(13) 0.45957(15)
O8_7 O 0.30991(16) 0.57521(14) 0.45690(16)
O9_7 O 0.5531(2) 0.74984(16) 0.4564(2)
O10_7 O 0.5231(2) 0.60325(14) 0.48620(19)
N1_7 N 0.20918(17) 0.85551(19) 0.4881(3)
N2_7 N 0.36169(17) 0.70352(17) 0.4523(3)
C1_7 C 0.1881(3) 0.9733(2) 0.4683(2)
C2_7 C 0.19548(14) 0.94297(11) 0.47132(16)
C3_7 C 0.17419(11) 0.92430(14) 0.48258(14)
H1_7 H 0.155151 0.931577 0.486853
C4_7 C 0.18077(12) 0.89496(13) 0.48760(16)
C5_7 C 0.20863(14) 0.88431(12) 0.4814(2)
C6_7 C 0.22992(11) 0.90299(16) 0.4701(2)
H2_7 H 0.248957 0.895706 0.465826
C7_7 C 0.22334(13) 0.93232(15) 0.46508(18)
H3_7 H 0.237887 0.945084 0.457378
C8_7 C 0.12476(11) 0.83754(15) 0.51391(17)
C9_7 C 0.13457(12) 0.86521(13) 0.50572(16)
H4_7 H 0.121452 0.881394 0.505942
C10_7 C 0.16356(13) 0.86921(11) 0.49722(17)
C11_7 C 0.18275(11) 0.84553(14) 0.4969(2)
C12_7 C 0.17294(15) 0.81786(12) 0.5051(2)
H5_7 H 0.186057 0.801684 0.504871
C13_7 C 0.14395(16) 0.81387(12) 0.51359(19)
H6_7 H 0.137253 0.794957 0.519190
C14_7 C 0.34206(14) 0.61558(10) 0.45608(17)
C15_7 C 0.37060(12) 0.62623(11) 0.45700(17)
H7_7 H 0.386632 0.612972 0.458001
C16_7 C 0.37567(11) 0.65627(12) 0.45647(19)
C17_7 C 0.35221(13) 0.67567(9) 0.4550(2)
C18_7 C 0.32367(12) 0.66502(13) 0.4541(2)
H8_7 H 0.307637 0.678272 0.453095
C19_7 C 0.31859(11) 0.63497(14) 0.4546(2)
H9_7 H 0.299089 0.627693 0.453994
C20_7 C 0.4823(2) 0.6853(2) 0.4651(2)
C21_7 C 0.45171(10) 0.69228(13) 0.46211(18)
C22_7 C 0.44172(13) 0.72106(11) 0.4611(2)
H10_7 H 0.455283 0.736832 0.462014
C23_7 C 0.41188(14) 0.72674(10) 0.4586(2)
H11_7 H 0.405049 0.746409 0.457901
C24_7 C 0.39203(10) 0.70366(13) 0.4572(2)
C25_7 C 0.40202(12) 0.67489(11) 0.4583(2)
C26_7 C 0.43186(13) 0.66920(9) 0.46072(18)
H12_7 H 0.438687 0.649535 0.461434
C27_7 C 0.0935(3) 0.8331(3) 0.5195(2)
C28_7 C 0.3364(3) 0.5842(3) 0.45673(18)
C29_7 C 0.30367(16) 0.77452(15) 0.4637(2)
C30_7 C 0.3242(2) 0.76858(17) 0.48545(19)
H13_7 H 0.324793 0.780267 0.502680
C31_7 C 0.34383(18) 0.7455(2) 0.4820(2)
H14_7 H 0.357851 0.741471 0.496835
C32_7 C 0.34294(18) 0.72843(16) 0.4568(2)
C33_7 C 0.3224(2) 0.73437(17) 0.4350(2)
H15_7 H 0.321823 0.722676 0.417809
C34_7 C 0.30279(17) 0.75741(18) 0.4385(2)
H16_7 H 0.288764 0.761472 0.423653
C35_7 C 0.2323(2) 0.8344(2) 0.4798(3)
C36_7 C 0.2305(2) 0.8129(3) 0.4582(3)
H17_7 H 0.213528 0.811527 0.446289
C37_7 C 0.2537(3) 0.7935(3) 0.4541(3)
H18_7 H 0.252506 0.778894 0.439359
C38_7 C 0.2786(2) 0.7956(3) 0.4716(3)
C39_7 C 0.2803(2) 0.8170(3) 0.4932(3)
H19_7 H 0.297314 0.818448 0.505117
C40_7 C 0.2572(3) 0.8364(3) 0.4973(3)
H20_7 H 0.258337 0.851081 0.512048
Zn3_4 Zn 0.03174(2) 0.85538(2) 0.52322(2)
Zn5_7 Zn 0.35538(2) 0.52322(2) 0.46826(2)
Zn6_4 Zn 0.04455(2) 0.79234(2) 0.53473(2)
Zn8_7 Zn 0.29234(2) 0.53473(2) 0.45545(2)
O11_4 O 0.57469(14) 0.64593(14) 0.48415(13)
O12_4 O 0.58546(15) 0.69304(16) 0.46966(15)
O13_7 O 0.52555(14) 0.66254(15) 0.51739(14)
O14_7 O 0.54165(14) 0.70882(14) 0.50859(16)
O15_7 O 0.54043(15) 0.64113(15) 0.43361(13)
O16_7 O 0.54310(16) 0.69009(16) 0.42479(14)
H21_7 H 0.544164 0.762438 0.471744
H22_7 H 0.574644 0.752967 0.456082
H23_7 H 0.514371 0.593514 0.468793
H24_7 H 0.54153 0.593065 0.491732
O2_8 O 0.0009(2) 0.79182(17) 0.53555(17)
O9_8 O 0.0531(2) 0.75016(16) 0.5436(2)
O10_8 O 0.0231(2) 0.89675(14) 0.51380(19)
O13_8 O 0.02555(14) 0.83746(15) 0.48261(14)
O14_8 O 0.04165(14) 0.79118(14) 0.49141(16)
O15_8 O 0.04043(15) 0.85887(15) 0.56639(13)
O16_8 O 0.04310(16) 0.80991(16) 0.57521(14)
H21_8 H 0.044164 0.737562 0.528256
H22_8 H 0.0746435 0.747033 0.543918
H23_8 H 0.0143711 0.906486 0.531207
H24_8 H 0.0415299 0.906935 0.508268
O1_8 O 0.99112(13) 0.84093(15) 0.53333(14)
O7_8 O 0.85887(15) 0.93361(13) 0.54043(15)
O8_8 O 0.80991(16) 0.92479(14) 0.54310(16)
N1_8 N 0.70918(17) 0.64449(19) 0.5119(3)
N2_8 N 0.86169(17) 0.79648(17) 0.5477(3)
C1_8 C 0.6881(3) 0.5267(2) 0.5317(2)
C2_8 C 0.69548(14) 0.55703(11) 0.52868(16)
C3_8 C 0.67419(11) 0.57570(14) 0.51742(14)
H1_8 H 0.655151 0.568423 0.513147
C4_8 C 0.68077(12) 0.60504(13) 0.51240(16)
C5_8 C 0.70863(14) 0.61569(12) 0.5186(2)
C6_8 C 0.72992(11) 0.59701(16) 0.5299(2)
H2_8 H 0.748957 0.604294 0.534174
C7_8 C 0.72334(13) 0.56768(15) 0.53492(18)
H3_8 H 0.737887 0.554916 0.542622
C8_8 C 0.62476(11) 0.66246(15) 0.48609(17)
C9_8 C 0.63457(12) 0.63479(13) 0.49428(16)
H4_8 H 0.621452 0.618606 0.494058
C10_8 C 0.66356(13) 0.63079(11) 0.50278(17)
C11_8 C 0.68275(11) 0.65447(14) 0.5031(2)
C12_8 C 0.67294(15) 0.68214(12) 0.4949(2)
H5_8 H 0.686057 0.698316 0.495129
C13_8 C 0.64395(16) 0.68613(12) 0.48641(19)
H6_8 H 0.637253 0.705043 0.480810
C14_8 C 0.84206(14) 0.88442(10) 0.54392(17)
C15_8 C 0.87060(12) 0.87377(11) 0.54300(17)
H7_8 H 0.886632 0.887028 0.541999
C16_8 C 0.87567(11) 0.84373(12) 0.54353(19)
C17_8 C 0.85221(13) 0.82433(9) 0.5450(2)
C18_8 C 0.82367(12) 0.83498(13) 0.5459(2)
H8_8 H 0.807637 0.821728 0.546905
C19_8 C 0.81859(11) 0.86503(14) 0.5454(2)
H9_8 H 0.799089 0.872307 0.546006
C20_8 C 0.9823(2) 0.8147(2) 0.5349(2)
C21_8 C 0.95171(10) 0.80772(13) 0.53789(18)
C22_8 C 0.94172(13) 0.77894(11) 0.5389(2)
H10_8 H 0.955283 0.763168 0.537986
C23_8 C 0.91188(14) 0.77326(10) 0.5414(2)
H11_8 H 0.905049 0.753591 0.542099
C24_8 C 0.89203(10) 0.79634(13) 0.5428(2)
C25_8 C 0.90202(12) 0.82511(11) 0.5417(2)
C26_8 C 0.93186(13) 0.83080(9) 0.53928(18)
H12_8 H 0.938687 0.850465 0.538566
C27_8 C 0.5935(3) 0.6669(3) 0.4805(2)
C28_8 C 0.8364(3) 0.9158(3) 0.54327(18)
C29_8 C 0.80367(16) 0.72548(15) 0.5363(2)
C30_8 C 0.8242(2) 0.73142(17) 0.51455(19)
H13_8 H 0.824793 0.719733 0.497320
C31_8 C 0.84383(18) 0.7545(2) 0.5180(2)
H14_8 H 0.857851 0.758529 0.503165
C32_8 C 0.84294(18) 0.77157(16) 0.5432(2)
C33_8 C 0.8224(2) 0.76563(17) 0.5650(2)
H15_8 H 0.821823 0.777324 0.582191
C34_8 C 0.80279(17) 0.74259(18) 0.5615(2)
H16_8 H 0.788764 0.738528 0.576347
C35_8 C 0.7323(2) 0.6656(2) 0.5202(3)
C36_8 C 0.7305(2) 0.6871(3) 0.5418(3)
H17_8 H 0.713528 0.688473 0.553711
C37_8 C 0.7537(3) 0.7065(3) 0.5459(3)
H18_8 H 0.752506 0.721106 0.560641
C38_8 C 0.7786(2) 0.7044(3) 0.5284(3)
C39_8 C 0.7803(2) 0.6830(3) 0.5068(3)
H19_8 H 0.797314 0.681552 0.494883
C40_8 C 0.7572(3) 0.6636(3) 0.5027(3)
H20_8 H 0.758337 0.648919 0.487952
Zn5_8 Zn 0.85538(2) 0.97678(2) 0.53174(2)
Zn8_8 Zn 0.79234(2) 0.96527(2) 0.54455(2)
O3_5 O 0.01585(13) 0.42531(14) 0.14593(14)
O4_5 O 0.03034(15) 0.41454(15) 0.19304(16)
C8_9 C 0.01391(17) 0.37524(11) 0.16246(15)
C9_9 C 0.00572(16) 0.36543(12) 0.13479(13)
H4_9 H 0.005942 0.378548 0.118606
C12_9 C 0.0051(2) 0.32706(15) 0.18214(12)
H5_9 H 0.004871 0.313943 0.198316
C13_9 C 0.01359(19) 0.35605(16) 0.18613(12)
H6_9 H 0.019190 0.362747 0.205043
C27_9 C 0.0195(2) 0.4065(3) 0.1669(3)
H13_9 H 0.002680 0.175207 0.219733
H19_9 H 0.005117 0.202686 0.181552
H20_9 H 0.012048 0.241663 0.148919
O1_9 O 0.96667(14) 0.00888(13) 0.34093(15)
O7_9 O 0.95957(15) 0.14113(15) 0.43361(13)
O8_9 O 0.95690(16) 0.19009(16) 0.42479(14)
N1_9 N 0.9881(3) 0.29082(17) 0.14449(19)
N2_9 N 0.9523(3) 0.13831(17) 0.29648(17)
C1_9 C 0.9683(2) 0.3119(3) 0.0267(2)
C2_9 C 0.97132(16) 0.30452(14) 0.05703(11)
C3_9 C 0.98258(14) 0.32581(11) 0.07570(14)
H1_9 H 0.986853 0.344849 0.068423
C4_9 C 0.98760(16) 0.31923(12) 0.10504(13)
C5_9 C 0.9814(2) 0.29137(14) 0.11569(12)
C6_9 C 0.9701(2) 0.27008(11) 0.09701(16)
H2_9 H 0.965826 0.251043 0.104294
C7_9 C 0.96508(18) 0.27666(13) 0.06768(15)
H3_9 H 0.957378 0.262113 0.054916
C10_9 C 0.99722(17) 0.33644(13) 0.13079(11)
C11_9 C 0.9969(2) 0.31725(11) 0.15447(14)
C14_9 C 0.95608(17) 0.15794(14) 0.38442(10)
C15_9 C 0.95700(17) 0.12940(12) 0.37377(11)
H7_9 H 0.958001 0.113368 0.387028
C16_9 C 0.95647(19) 0.12433(11) 0.34373(12)
C17_9 C 0.9550(2) 0.14779(13) 0.32433(9)
C18_9 C 0.9541(2) 0.17633(12) 0.33498(13)
H8_9 H 0.953095 0.192363 0.321728
C19_9 C 0.9546(2) 0.18141(11) 0.36503(14)
H9_9 H 0.953994 0.200911 0.372307
C20_9 C 0.9651(2) 0.0177(2) 0.3147(2)
C21_9 C 0.96211(18) 0.04829(10) 0.30772(13)
C22_9 C 0.9611(2) 0.05828(13) 0.27894(11)
H10_9 H 0.962014 0.044717 0.263168
C23_9 C 0.9586(2) 0.08812(14) 0.27326(10)
H11_9 H 0.957901 0.094951 0.253591
C24_9 C 0.9572(2) 0.10797(10) 0.29634(13)
C25_9 C 0.9583(2) 0.09798(12) 0.32511(11)
C26_9 C 0.96072(18) 0.06814(13) 0.33080(9)
H12_9 H 0.961434 0.061313 0.350465
C28_9 C 0.95673(18) 0.1636(3) 0.4158(3)
C29_9 C 0.9637(2) 0.19633(16) 0.22548(15)
C30_9 C 0.98545(19) 0.1758(2) 0.23142(17)
C31_9 C 0.9820(2) 0.15617(18) 0.2545(2)
H14_9 H 0.996835 0.142149 0.258529
C32_9 C 0.9568(2) 0.15706(18) 0.27157(16)
C33_9 C 0.9350(2) 0.1776(2) 0.26563(17)
H15_9 H 0.917809 0.178177 0.277324
C34_9 C 0.9385(2) 0.19721(17) 0.24259(18)
H16_9 H 0.923653 0.211236 0.238528
C35_9 C 0.9798(3) 0.2677(2) 0.1656(2)
C36_9 C 0.9582(3) 0.2695(2) 0.1871(3)
H17_9 H 0.946289 0.286472 0.188473
C37_9 C 0.9541(3) 0.2463(3) 0.2065(3)
H18_9 H 0.939359 0.247494 0.221106
C38_9 C 0.9716(3) 0.2214(2) 0.2044(3)
C39_9 C 0.9932(3) 0.2197(2) 0.1830(3)
C40_9 C 0.9973(3) 0.2428(3) 0.1636(3)
Zn5_9 Zn 0.96826(2) 0.14462(2) 0.47678(2)
Zn8_9 Zn 0.95545(2) 0.20766(2) 0.46527(2)
O2_9 O 0.96445(17) 0.9991(2) 0.29182(17)
O9_9 O 0.9564(2) 0.9469(2) 0.25016(16)
O10_9 O 0.98620(19) 0.9769(2) 0.39675(14)
O11_5 O 0.98415(13) 0.92531(14) 0.35407(14)
O12_5 O 0.96966(15) 0.91454(15) 0.30696(16)
O15_9 O 0.93361(13) 0.95957(15) 0.35887(15)
O16_9 O 0.92479(14) 0.95690(16) 0.30991(16)
H21_9 H 0.971744 0.955836 0.237562
H22_9 H 0.956082 0.925356 0.247033
H23_9 H 0.968793 0.985629 0.406486
H24_9 H 0.991732 0.95847 0.406935
O1_10 O 0.03333(14) 0.50888(13) 0.15907(15)
O2_10 O 0.03555(17) 0.4991(2) 0.20818(17)
O7_10 O 0.04043(15) 0.64113(15) 0.06639(13)
O8_10 O 0.04310(16) 0.69009(16) 0.07521(14)
O9_10 O 0.0436(2) 0.4469(2) 0.24984(16)
O10_10 O 0.01380(19) 0.4769(2) 0.10325(14)
N1_10 N 0.0119(3) 0.79082(17) 0.35551(19)
N2_10 N 0.0477(3) 0.63831(17) 0.20352(17)
C1_10 C 0.0317(2) 0.8119(3) 0.4733(2)
C2_10 C 0.02868(16) 0.80452(14) 0.44297(11)
C3_10 C 0.01742(14) 0.82581(11) 0.42430(14)
H1_10 H 0.013147 0.844849 0.431577
C4_10 C 0.01240(16) 0.81923(12) 0.39496(13)
C5_10 C 0.0186(2) 0.79137(14) 0.38431(12)
C6_10 C 0.0299(2) 0.77008(11) 0.40299(16)
H2_10 H 0.034174 0.751043 0.395706
C7_10 C 0.03492(18) 0.77666(13) 0.43232(15)
H3_10 H 0.042622 0.762113 0.445084
C10_10 C 0.00278(17) 0.83644(13) 0.36921(11)
C11_10 C 0.0031(2) 0.81725(11) 0.34553(14)
C14_10 C 0.04392(17) 0.65794(14) 0.11558(10)
C15_10 C 0.04300(17) 0.62940(12) 0.12623(11)
H7_10 H 0.041999 0.613368 0.112972
C16_10 C 0.04353(19) 0.62433(11) 0.15627(12)
C17_10 C 0.0450(2) 0.64779(13) 0.17567(9)
C18_10 C 0.0459(2) 0.67633(12) 0.16502(13)
H8_10 H 0.046905 0.692363 0.178272
C19_10 C 0.0454(2) 0.68141(11) 0.13497(14)
H9_10 H 0.046006 0.700911 0.127693
C20_10 C 0.0349(2) 0.5177(2) 0.1853(2)
C21_10 C 0.03789(18) 0.54829(10) 0.19228(13)
C22_10 C 0.0389(2) 0.55828(13) 0.22106(11)
H10_10 H 0.037986 0.544717 0.236832
C23_10 C 0.0414(2) 0.58812(14) 0.22674(10)
H11_10 H 0.042099 0.594951 0.246409
C24_10 C 0.0428(2) 0.60797(10) 0.20366(13)
C25_10 C 0.0417(2) 0.59798(12) 0.17489(11)
C26_10 C 0.03928(18) 0.56814(13) 0.16920(9)
H12_10 H 0.038566 0.561313 0.149535
C28_10 C 0.04327(18) 0.6636(3) 0.0842(3)
C29_10 C 0.0363(2) 0.69633(16) 0.27452(15)
C30_10 C 0.01455(19) 0.6758(2) 0.26858(17)
C31_10 C 0.0180(2) 0.65617(18) 0.2455(2)
H14_10 H 0.003165 0.642149 0.241471
C32_10 C 0.0432(2) 0.65706(18) 0.22843(16)
C33_10 C 0.0650(2) 0.6776(2) 0.23437(17)
H15_10 H 0.082191 0.678177 0.222676
C34_10 C 0.0615(2) 0.69721(17) 0.25741(18)
H16_10 H 0.076347 0.711236 0.261472
C35_10 C 0.0202(3) 0.7677(2) 0.3344(2)
C36_10 C 0.0418(3) 0.7695(2) 0.3129(3)
H17_10 H 0.053711 0.786472 0.311527
C37_10 C 0.0459(3) 0.7463(3) 0.2935(3)
H18_10 H 0.060641 0.747494 0.278894
C38_10 C 0.0284(3) 0.7214(2) 0.2956(3)
C39_10 C 0.0068(3) 0.7197(2) 0.3170(3)
C40_10 C 0.0027(3) 0.7428(3) 0.3364(3)
Zn5_10 Zn 0.03174(2) 0.64462(2) 0.02322(2)
Zn8_10 Zn 0.04455(2) 0.70766(2) 0.03473(2)
O15_10 O 0.06639(13) 0.45957(15) 0.14113(15)
O16_10 O 0.07521(14) 0.45690(16) 0.19009(16)
H21_10 H 0.0282563 0.455836 0.262438
H22_10 H 0.0439179 0.425356 0.252967
H23_10 H 0.0312072 0.485629 0.0935137
H24_10 H 0.00826818 0.45847 0.0930649
C8_10 C 0.98609(17) 0.87524(11) 0.33754(15)
C9_10 C 0.99428(16) 0.86543(12) 0.36521(13)
H4_10 H 0.994058 0.878548 0.381394
C12_10 C 0.9949(2) 0.82706(15) 0.31786(12)
H5_10 H 0.995129 0.813943 0.301684
C13_10 C 0.98641(19) 0.85605(16) 0.31387(12)
H6_10 H 0.980810 0.862747 0.294957
C27_10 C 0.9805(2) 0.9065(3) 0.3331(3)
H13_10 H 0.997320 0.675207 0.280267
H19_10 H 0.994883 0.702686 0.318448
H20_10 H 0.987952 0.741663 0.351081
O1_11 O 0.46667(14) 0.49112(13) 0.65907(15)
O2_11 O 0.46445(17) 0.5009(2) 0.70818(17)
O3_6 O 0.51585(13) 0.07469(14) 0.85407(14)
O4_6 O 0.53034(15) 0.08546(15) 0.80696(16)
O7_11 O 0.45957(15) 0.35887(15) 0.56639(13)
O8_11 O 0.45690(16) 0.30991(16) 0.57521(14)
O9_11 O 0.4564(2) 0.5531(2) 0.74984(16)
O10_11 O 0.48620(19) 0.5231(2) 0.60325(14)
N1_11 N 0.4881(3) 0.20918(17) 0.85551(19)
N2_11 N 0.4523(3) 0.36169(17) 0.70352(17)
C1_11 C 0.4683(2) 0.1881(3) 0.9733(2)
C2_11 C 0.47132(16) 0.19548(14) 0.94297(11)
C3_11 C 0.48258(14) 0.17419(11) 0.92430(14)
H1_11 H 0.486853 0.155151 0.931577
C4_11 C 0.48760(16) 0.18077(12) 0.89496(13)
C5_11 C 0.4814(2) 0.20863(14) 0.88431(12)
C6_11 C 0.4701(2) 0.22992(11) 0.90299(16)
H2_11 H 0.465826 0.248957 0.895706
C7_11 C 0.46508(18) 0.22334(13) 0.93232(15)
H3_11 H 0.457378 0.237887 0.945084
C8_11 C 0.51391(17) 0.12476(11) 0.83754(15)
C9_11 C 0.50572(16) 0.13457(12) 0.86521(13)
H4_11 H 0.505942 0.121452 0.881394
C10_11 C 0.49722(17) 0.16356(13) 0.86921(11)
C11_11 C 0.4969(2) 0.18275(11) 0.84553(14)
C12_11 C 0.5051(2) 0.17294(15) 0.81786(12)
H5_11 H 0.504871 0.186057 0.801684
C13_11 C 0.51359(19) 0.14395(16) 0.81387(12)
H6_11 H 0.519190 0.137253 0.794957
C14_11 C 0.45608(17) 0.34206(14) 0.61558(10)
C15_11 C 0.45700(17) 0.37060(12) 0.62623(11)
H7_11 H 0.458001 0.386632 0.612972
C16_11 C 0.45647(19) 0.37567(11) 0.65627(12)
C17_11 C 0.4550(2) 0.35221(13) 0.67567(9)
C18_11 C 0.4541(2) 0.32367(12) 0.66502(13)
H8_11 H 0.453095 0.307637 0.678272
C19_11 C 0.4546(2) 0.31859(11) 0.63497(14)
H9_11 H 0.453994 0.299089 0.627693
C20_11 C 0.4651(2) 0.4823(2) 0.6853(2)
C21_11 C 0.46211(18) 0.45171(10) 0.69228(13)
C22_11 C 0.4611(2) 0.44172(13) 0.72106(11)
H10_11 H 0.462014 0.455283 0.736832
C23_11 C 0.4586(2) 0.41188(14) 0.72674(10)
H11_11 H 0.457901 0.405049 0.746409
C24_11 C 0.4572(2) 0.39203(10) 0.70366(13)
C25_11 C 0.4583(2) 0.40202(12) 0.67489(11)
C26_11 C 0.46072(18) 0.43186(13) 0.66920(9)
H12_11 H 0.461434 0.438687 0.649535
C27_11 C 0.5195(2) 0.0935(3) 0.8331(3)
C28_11 C 0.45673(18) 0.3364(3) 0.5842(3)
C29_11 C 0.4637(2) 0.30367(16) 0.77452(15)
C30_11 C 0.48545(19) 0.3242(2) 0.76858(17)
H13_11 H 0.502680 0.324793 0.780267
C31_11 C 0.4820(2) 0.34383(18) 0.7455(2)
H14_11 H 0.496835 0.357851 0.741471
C32_11 C 0.4568(2) 0.34294(18) 0.72843(16)
C33_11 C 0.4350(2) 0.3224(2) 0.73437(17)
H15_11 H 0.417809 0.321823 0.722676
C34_11 C 0.4385(2) 0.30279(17) 0.75741(18)
H16_11 H 0.423653 0.288764 0.761472
C35_11 C 0.4798(3) 0.2323(2) 0.8344(2)
C36_11 C 0.4582(3) 0.2305(2) 0.8129(3)
H17_11 H 0.446289 0.213528 0.811527
C37_11 C 0.4541(3) 0.2537(3) 0.7935(3)
H18_11 H 0.439359 0.252506 0.778894
C38_11 C 0.4716(3) 0.2786(2) 0.7956(3)
C39_11 C 0.4932(3) 0.2803(2) 0.8170(3)
H19_11 H 0.505117 0.297314 0.818448
C40_11 C 0.4973(3) 0.2572(3) 0.8364(3)
H20_11 H 0.512048 0.258337 0.851081
Zn5_11 Zn 0.46826(2) 0.35538(2) 0.52322(2)
Zn8_11 Zn 0.45545(2) 0.29234(2) 0.53473(2)
O11_6 O 0.48415(13) 0.57469(14) 0.64593(14)
O12_6 O 0.46966(15) 0.58546(15) 0.69304(16)
O15_11 O 0.43361(13) 0.54043(15) 0.64113(15)
O16_11 O 0.42479(14) 0.54310(16) 0.69009(16)
H21_11 H 0.471744 0.544164 0.762438
H22_11 H 0.456082 0.574644 0.752967
H23_11 H 0.468793 0.514371 0.593514
H24_11 H 0.491732 0.54153 0.593065
O2_12 O 0.53555(17) 0.0009(2) 0.79182(17)
O9_12 O 0.5436(2) 0.0531(2) 0.75016(16)
O10_12 O 0.51380(19) 0.0231(2) 0.89675(14)
O15_12 O 0.56639(13) 0.04043(15) 0.85887(15)
O16_12 O 0.57521(14) 0.04310(16) 0.80991(16)
H21_12 H 0.528256 0.044164 0.737562
H22_12 H 0.543918 0.0746435 0.747033
H23_12 H 0.531207 0.0143711 0.906486
H24_12 H 0.508268 0.0415299 0.906935
O1_12 O 0.53333(14) 0.99112(13) 0.84093(15)
O7_12 O 0.54043(15) 0.85887(15) 0.93361(13)
O8_12 O 0.54310(16) 0.80991(16) 0.92479(14)
N1_12 N 0.5119(3) 0.70918(17) 0.64449(19)
N2_12 N 0.5477(3) 0.86169(17) 0.79648(17)
C1_12 C 0.5317(2) 0.6881(3) 0.5267(2)
C2_12 C 0.52868(16) 0.69548(14) 0.55703(11)
C3_12 C 0.51742(14) 0.67419(11) 0.57570(14)
H1_12 H 0.513147 0.655151 0.568423
C4_12 C 0.51240(16) 0.68077(12) 0.60504(13)
C5_12 C 0.5186(2) 0.70863(14) 0.61569(12)
C6_12 C 0.5299(2) 0.72992(11) 0.59701(16)
H2_12 H 0.534174 0.748957 0.604294
C7_12 C 0.53492(18) 0.72334(13) 0.56768(15)
H3_12 H 0.542622 0.737887 0.554916
C8_12 C 0.48609(17) 0.62476(11) 0.66246(15)
C9_12 C 0.49428(16) 0.63457(12) 0.63479(13)
H4_12 H 0.494058 0.621452 0.618606
C10_12 C 0.50278(17) 0.66356(13) 0.63079(11)
C11_12 C 0.5031(2) 0.68275(11) 0.65447(14)
C12_12 C 0.4949(2) 0.67294(15) 0.68214(12)
H5_12 H 0.495129 0.686057 0.698316
C13_12 C 0.48641(19) 0.64395(16) 0.68613(12)
H6_12 H 0.480810 0.637253 0.705043
C14_12 C 0.54392(17) 0.84206(14) 0.88442(10)
C15_12 C 0.54300(17) 0.87060(12) 0.87377(11)
H7_12 H 0.541999 0.886632 0.887028
C16_12 C 0.54353(19) 0.87567(11) 0.84373(12)
C17_12 C 0.5450(2) 0.85221(13) 0.82433(9)
C18_12 C 0.5459(2) 0.82367(12) 0.83498(13)
H8_12 H 0.546905 0.807637 0.821728
C19_12 C 0.5454(2) 0.81859(11) 0.86503(14)
H9_12 H 0.546006 0.799089 0.872307
C20_12 C 0.5349(2) 0.9823(2) 0.8147(2)
C21_12 C 0.53789(18) 0.95171(10) 0.80772(13)
C22_12 C 0.5389(2) 0.94172(13) 0.77894(11)
H10_12 H 0.537986 0.955283 0.763168
C23_12 C 0.5414(2) 0.91188(14) 0.77326(10)
H11_12 H 0.542099 0.905049 0.753591
C24_12 C 0.5428(2) 0.89203(10) 0.79634(13)
C25_12 C 0.5417(2) 0.90202(12) 0.82511(11)
C26_12 C 0.53928(18) 0.93186(13) 0.83080(9)
H12_12 H 0.538566 0.938687 0.850465
C27_12 C 0.4805(2) 0.5935(3) 0.6669(3)
C28_12 C 0.54327(18) 0.8364(3) 0.9158(3)
C29_12 C 0.5363(2) 0.80367(16) 0.72548(15)
C30_12 C 0.51455(19) 0.8242(2) 0.73142(17)
H13_12 H 0.497320 0.824793 0.719733
C31_12 C 0.5180(2) 0.84383(18) 0.7545(2)
H14_12 H 0.503165 0.857851 0.758529
C32_12 C 0.5432(2) 0.84294(18) 0.77157(16)
C33_12 C 0.5650(2) 0.8224(2) 0.76563(17)
H15_12 H 0.582191 0.821823 0.777324
C34_12 C 0.5615(2) 0.80279(17) 0.74259(18)
H16_12 H 0.576347 0.788764 0.738528
C35_12 C 0.5202(3) 0.7323(2) 0.6656(2)
C36_12 C 0.5418(3) 0.7305(2) 0.6871(3)
H17_12 H 0.553711 0.713528 0.688473
C37_12 C 0.5459(3) 0.7537(3) 0.7065(3)
H18_12 H 0.560641 0.752506 0.721106
C38_12 C 0.5284(3) 0.7786(2) 0.7044(3)
C39_12 C 0.5068(3) 0.7803(2) 0.6830(3)
H19_12 H 0.494883 0.797314 0.681552
C40_12 C 0.5027(3) 0.7572(3) 0.6636(3)
H20_12 H 0.487952 0.758337 0.648919
Zn5_12 Zn 0.53174(2) 0.85538(2) 0.97678(2)
Zn8_12 Zn 0.54455(2) 0.79234(2) 0.96527(2)
O2_13 O 0.70818(17) 0.03555(17) 0.0009(2)
O9_13 O 0.74984(16) 0.0436(2) 0.0531(2)
O10_13 O 0.60325(14) 0.01380(19) 0.0231(2)
O11_7 O 0.64593(14) 0.01585(13) 0.07469(14)
O12_7 O 0.69304(16) 0.03034(15) 0.08546(15)
H21_13 H 0.762438 0.0282563 0.044164
H22_13 H 0.752967 0.0439179 0.0746435
H23_13 H 0.593514 0.0312072 0.0143711
H24_13 H 0.593065 0.00826818 0.0415299
O1_13 O 0.65907(15) 0.03333(14) 0.99112(13)
O5_5 O 0.98261(14) 0.02555(14) 0.66254(15)
O6_5 O 0.99141(16) 0.04165(14) 0.70882(14)
N1_13 N 0.85551(19) 0.0119(3) 0.70918(17)
N2_13 N 0.70352(17) 0.0477(3) 0.86169(17)
C1_13 C 0.9733(2) 0.0317(2) 0.6881(3)
C2_13 C 0.94297(11) 0.02868(16) 0.69548(14)
C3_13 C 0.92430(14) 0.01742(14) 0.67419(11)
H1_13 H 0.931577 0.013147 0.655151
C4_13 C 0.89496(13) 0.01240(16) 0.68077(12)
C5_13 C 0.88431(12) 0.0186(2) 0.70863(14)
C6_13 C 0.90299(16) 0.0299(2) 0.72992(11)
H2_13 H 0.895706 0.034174 0.748957
C7_13 C 0.93232(15) 0.03492(18) 0.72334(13)
H3_13 H 0.945084 0.042622 0.737887
C10_13 C 0.86921(11) 0.00278(17) 0.66356(13)
C11_13 C 0.84553(14) 0.0031(2) 0.68275(11)
C14_13 C 0.61558(10) 0.04392(17) 0.84206(14)
C15_13 C 0.62623(11) 0.04300(17) 0.87060(12)
H7_13 H 0.612972 0.041999 0.886632
C16_13 C 0.65627(12) 0.04353(19) 0.87567(11)
C17_13 C 0.67567(9) 0.0450(2) 0.85221(13)
C18_13 C 0.66502(13) 0.0459(2) 0.82367(12)
H8_13 H 0.678272 0.046905 0.807637
C19_13 C 0.63497(14) 0.0454(2) 0.81859(11)
H9_13 H 0.627693 0.046006 0.799089
C20_13 C 0.6853(2) 0.0349(2) 0.9823(2)
C21_13 C 0.69228(13) 0.03789(18) 0.95171(10)
C22_13 C 0.72106(11) 0.0389(2) 0.94172(13)
H10_13 H 0.736832 0.037986 0.955283
C23_13 C 0.72674(10) 0.0414(2) 0.91188(14)
H11_13 H 0.746409 0.042099 0.905049
C24_13 C 0.70366(13) 0.0428(2) 0.89203(10)
C25_13 C 0.67489(11) 0.0417(2) 0.90202(12)
C26_13 C 0.66920(9) 0.03928(18) 0.93186(13)
H12_13 H 0.649535 0.038566 0.938687
C28_13 C 0.5842(3) 0.04327(18) 0.8364(3)
C29_13 C 0.77452(15) 0.0363(2) 0.80367(16)
C30_13 C 0.76858(17) 0.01455(19) 0.8242(2)
C31_13 C 0.7455(2) 0.0180(2) 0.84383(18)
H14_13 H 0.741471 0.003165 0.857851
C32_13 C 0.72843(16) 0.0432(2) 0.84294(18)
C33_13 C 0.73437(17) 0.0650(2) 0.8224(2)
H15_13 H 0.722676 0.082191 0.821823
C34_13 C 0.75741(18) 0.0615(2) 0.80279(17)
H16_13 H 0.761472 0.076347 0.788764
C35_13 C 0.8344(2) 0.0202(3) 0.7323(2)
C36_13 C 0.8129(3) 0.0418(3) 0.7305(2)
H17_13 H 0.811527 0.053711 0.713528
C37_13 C 0.7935(3) 0.0459(3) 0.7537(3)
H18_13 H 0.778894 0.060641 0.752506
C38_13 C 0.7956(3) 0.0284(3) 0.7786(2)
C39_13 C 0.8170(3) 0.0068(3) 0.7803(2)
C40_13 C 0.8364(3) 0.0027(3) 0.7572(3)
O13_9 O 0.66254(15) 0.98261(14) 0.02555(14)
O14_9 O 0.70882(14) 0.99141(16) 0.04165(14)
O3_7 O 0.85407(14) 0.98415(13) 0.57469(14)
O4_7 O 0.80696(16) 0.96966(15) 0.58546(15)
C8_13 C 0.83754(15) 0.98609(17) 0.62476(11)
C9_13 C 0.86521(13) 0.99428(16) 0.63457(12)
H4_13 H 0.881394 0.994058 0.621452
C12_13 C 0.81786(12) 0.9949(2) 0.67294(15)
H5_13 H 0.801684 0.995129 0.686057
C13_13 C 0.81387(12) 0.98641(19) 0.64395(16)
H6_13 H 0.794957 0.980810 0.637253
C27_13 C 0.8331(3) 0.9805(2) 0.5935(3)
H13_13 H 0.780267 0.997320 0.824793
H19_13 H 0.818448 0.994883 0.797314
H20_13 H 0.851081 0.987952 0.758337
C8_14 C 0.66246(15) 0.01391(17) 0.12476(11)
C9_14 C 0.63479(13) 0.00572(16) 0.13457(12)
H4_14 H 0.618606 0.005942 0.121452
C12_14 C 0.68214(12) 0.0051(2) 0.17294(15)
H5_14 H 0.698316 0.004871 0.186057
C13_14 C 0.68613(12) 0.01359(19) 0.14395(16)
H6_14 H 0.705043 0.019190 0.137253
C27_14 C 0.6669(3) 0.0195(2) 0.0935(3)
H13_14 H 0.719733 0.002680 0.324793
H19_14 H 0.681552 0.005117 0.297314
H20_14 H 0.648919 0.012048 0.258337
O13_10 O 0.83746(15) 0.01739(14) 0.52555(14)
O14_10 O 0.79118(14) 0.00859(16) 0.54165(14)
O1_14 O 0.84093(15) 0.96667(14) 0.49112(13)
O2_14 O 0.79182(17) 0.96445(17) 0.5009(2)
O5_6 O 0.51739(14) 0.97445(14) 0.16254(15)
O6_6 O 0.50859(16) 0.95835(14) 0.20882(14)
O9_14 O 0.75016(16) 0.9564(2) 0.5531(2)
O10_14 O 0.89675(14) 0.98620(19) 0.5231(2)
N1_14 N 0.64449(19) 0.9881(3) 0.20918(17)
N2_14 N 0.79648(17) 0.9523(3) 0.36169(17)
C1_14 C 0.5267(2) 0.9683(2) 0.1881(3)
C2_14 C 0.55703(11) 0.97132(16) 0.19548(14)
C3_14 C 0.57570(14) 0.98258(14) 0.17419(11)
H1_14 H 0.568423 0.986853 0.155151
C4_14 C 0.60504(13) 0.98760(16) 0.18077(12)
C5_14 C 0.61569(12) 0.9814(2) 0.20863(14)
C6_14 C 0.59701(16) 0.9701(2) 0.22992(11)
H2_14 H 0.604294 0.965826 0.248957
C7_14 C 0.56768(15) 0.96508(18) 0.22334(13)
H3_14 H 0.554916 0.957378 0.237887
C10_14 C 0.63079(11) 0.99722(17) 0.16356(13)
C11_14 C 0.65447(14) 0.9969(2) 0.18275(11)
C14_14 C 0.88442(10) 0.95608(17) 0.34206(14)
C15_14 C 0.87377(11) 0.95700(17) 0.37060(12)
H7_14 H 0.887028 0.958001 0.386632
C16_14 C 0.84373(12) 0.95647(19) 0.37567(11)
C17_14 C 0.82433(9) 0.9550(2) 0.35221(13)
C18_14 C 0.83498(13) 0.9541(2) 0.32367(12)
H8_14 H 0.821728 0.953095 0.307637
C19_14 C 0.86503(14) 0.9546(2) 0.31859(11)
H9_14 H 0.872307 0.953994 0.299089
C20_14 C 0.8147(2) 0.9651(2) 0.4823(2)
C21_14 C 0.80772(13) 0.96211(18) 0.45171(10)
C22_14 C 0.77894(11) 0.9611(2) 0.44172(13)
H10_14 H 0.763168 0.962014 0.455283
C23_14 C 0.77326(10) 0.9586(2) 0.41188(14)
H11_14 H 0.753591 0.957901 0.405049
C24_14 C 0.79634(13) 0.9572(2) 0.39203(10)
C25_14 C 0.82511(11) 0.9583(2) 0.40202(12)
C26_14 C 0.83080(9) 0.96072(18) 0.43186(13)
H12_14 H 0.850465 0.961434 0.438687
C28_14 C 0.9158(3) 0.95673(18) 0.3364(3)
C29_14 C 0.72548(15) 0.9637(2) 0.30367(16)
C30_14 C 0.73142(17) 0.98545(19) 0.3242(2)
C31_14 C 0.7545(2) 0.9820(2) 0.34383(18)
H14_14 H 0.758529 0.996835 0.357851
C32_14 C 0.77157(16) 0.9568(2) 0.34294(18)
C33_14 C 0.76563(17) 0.9350(2) 0.3224(2)
H15_14 H 0.777324 0.917809 0.321823
C34_14 C 0.74259(18) 0.9385(2) 0.30279(17)
H16_14 H 0.738528 0.923653 0.288764
C35_14 C 0.6656(2) 0.9798(3) 0.2323(2)
C36_14 C 0.6871(3) 0.9582(3) 0.2305(2)
H17_14 H 0.688473 0.946289 0.213528
C37_14 C 0.7065(3) 0.9541(3) 0.2537(3)
H18_14 H 0.721106 0.939359 0.252506
C38_14 C 0.7044(3) 0.9716(3) 0.2786(2)
C39_14 C 0.6830(3) 0.9932(3) 0.2803(2)
C40_14 C 0.6636(3) 0.9973(3) 0.2572(3)
H21_14 H 0.737562 0.971744 0.544164
H22_14 H 0.747033 0.956082 0.574644
H23_14 H 0.906486 0.968793 0.514371
H24_14 H 0.906935 0.991732 0.54153
O1_15 O 0.34093(15) 0.53333(14) 0.50888(13)
O2_15 O 0.29182(17) 0.53555(17) 0.4991(2)
O3_8 O 0.14593(14) 0.48415(13) 0.92531(14)
O4_8 O 0.19304(16) 0.46966(15) 0.91454(15)
O5_7 O 0.01739(14) 0.52555(14) 0.83746(15)
O6_7 O 0.00859(16) 0.54165(14) 0.79118(14)
O9_15 O 0.25016(16) 0.5436(2) 0.4469(2)
O10_15 O 0.39675(14) 0.51380(19) 0.4769(2)
N1_15 N 0.14449(19) 0.5119(3) 0.79082(17)
N2_15 N 0.29648(17) 0.5477(3) 0.63831(17)
C1_15 C 0.0267(2) 0.5317(2) 0.8119(3)
C2_15 C 0.05703(11) 0.52868(16) 0.80452(14)
C3_15 C 0.07570(14) 0.51742(14) 0.82581(11)
H1_15 H 0.068423 0.513147 0.844849
C4_15 C 0.10504(13) 0.51240(16) 0.81923(12)
C5_15 C 0.11569(12) 0.5186(2) 0.79137(14)
C6_15 C 0.09701(16) 0.5299(2) 0.77008(11)
H2_15 H 0.104294 0.534174 0.751043
C7_15 C 0.06768(15) 0.53492(18) 0.77666(13)
H3_15 H 0.054916 0.542622 0.762113
C8_15 C 0.16246(15) 0.48609(17) 0.87524(11)
C9_15 C 0.13479(13) 0.49428(16) 0.86543(12)
H4_15 H 0.118606 0.494058 0.878548
C10_15 C 0.13079(11) 0.50278(17) 0.83644(13)
C11_15 C 0.15447(14) 0.5031(2) 0.81725(11)
C12_15 C 0.18214(12) 0.4949(2) 0.82706(15)
H5_15 H 0.198316 0.495129 0.813943
C13_15 C 0.18613(12) 0.48641(19) 0.85605(16)
H6_15 H 0.205043 0.480810 0.862747
C14_15 C 0.38442(10) 0.54392(17) 0.65794(14)
C15_15 C 0.37377(11) 0.54300(17) 0.62940(12)
H7_15 H 0.387028 0.541999 0.613368
C16_15 C 0.34373(12) 0.54353(19) 0.62433(11)
C17_15 C 0.32433(9) 0.5450(2) 0.64779(13)
C18_15 C 0.33498(13) 0.5459(2) 0.67633(12)
H8_15 H 0.321728 0.546905 0.692363
C19_15 C 0.36503(14) 0.5454(2) 0.68141(11)
H9_15 H 0.372307 0.546006 0.700911
C20_15 C 0.3147(2) 0.5349(2) 0.5177(2)
C21_15 C 0.30772(13) 0.53789(18) 0.54829(10)
C22_15 C 0.27894(11) 0.5389(2) 0.55828(13)
H10_15 H 0.263168 0.537986 0.544717
C23_15 C 0.27326(10) 0.5414(2) 0.58812(14)
H11_15 H 0.253591 0.542099 0.594951
C24_15 C 0.29634(13) 0.5428(2) 0.60797(10)
C25_15 C 0.32511(11) 0.5417(2) 0.59798(12)
C26_15 C 0.33080(9) 0.53928(18) 0.56814(13)
H12_15 H 0.350465 0.538566 0.561313
C27_15 C 0.1669(3) 0.4805(2) 0.9065(3)
C28_15 C 0.4158(3) 0.54327(18) 0.6636(3)
C29_15 C 0.22548(15) 0.5363(2) 0.69633(16)
C30_15 C 0.23142(17) 0.51455(19) 0.6758(2)
H13_15 H 0.219733 0.497320 0.675207
C31_15 C 0.2545(2) 0.5180(2) 0.65617(18)
H14_15 H 0.258529 0.503165 0.642149
C32_15 C 0.27157(16) 0.5432(2) 0.65706(18)
C33_15 C 0.26563(17) 0.5650(2) 0.6776(2)
H15_15 H 0.277324 0.582191 0.678177
C34_15 C 0.24259(18) 0.5615(2) 0.69721(17)
H16_15 H 0.238528 0.576347 0.711236
C35_15 C 0.1656(2) 0.5202(3) 0.7677(2)
C36_15 C 0.1871(3) 0.5418(3) 0.7695(2)
H17_15 H 0.188473 0.553711 0.786472
C37_15 C 0.2065(3) 0.5459(3) 0.7463(3)
H18_15 H 0.221106 0.560641 0.747494
C38_15 C 0.2044(3) 0.5284(3) 0.7214(2)
C39_15 C 0.1830(3) 0.5068(3) 0.7197(2)
H19_15 H 0.181552 0.494883 0.702686
C40_15 C 0.1636(3) 0.5027(3) 0.7428(3)
H20_15 H 0.148919 0.487952 0.741663
O11_8 O 0.35407(14) 0.51585(13) 0.42531(14)
O12_8 O 0.30696(16) 0.53034(15) 0.41454(15)
O13_11 O 0.33746(15) 0.48261(14) 0.47445(14)
O14_11 O 0.29118(14) 0.49141(16) 0.45835(14)
H21_15 H 0.237562 0.528256 0.455836
H22_15 H 0.247033 0.543918 0.425356
H23_15 H 0.406486 0.531207 0.485629
H24_15 H 0.406935 0.508268 0.45847
O1_16 O 0.15907(15) 0.46667(14) 0.00888(13)
O5_8 O 0.48261(14) 0.47445(14) 0.33746(15)
O6_8 O 0.49141(16) 0.45835(14) 0.29118(14)
N1_16 N 0.35551(19) 0.4881(3) 0.29082(17)
N2_16 N 0.20352(17) 0.4523(3) 0.13831(17)
C1_16 C 0.4733(2) 0.4683(2) 0.3119(3)
C2_16 C 0.44297(11) 0.47132(16) 0.30452(14)
C3_16 C 0.42430(14) 0.48258(14) 0.32581(11)
H1_16 H 0.431577 0.486853 0.344849
C4_16 C 0.39496(13) 0.48760(16) 0.31923(12)
C5_16 C 0.38431(12) 0.4814(2) 0.29137(14)
C6_16 C 0.40299(16) 0.4701(2) 0.27008(11)
H2_16 H 0.395706 0.465826 0.251043
C7_16 C 0.43232(15) 0.46508(18) 0.27666(13)
H3_16 H 0.445084 0.457378 0.262113
C8_16 C 0.33754(15) 0.51391(17) 0.37524(11)
C9_16 C 0.36521(13) 0.50572(16) 0.36543(12)
H4_16 H 0.381394 0.505942 0.378548
C10_16 C 0.36921(11) 0.49722(17) 0.33644(13)
C11_16 C 0.34553(14) 0.4969(2) 0.31725(11)
C12_16 C 0.31786(12) 0.5051(2) 0.32706(15)
H5_16 H 0.301684 0.504871 0.313943
C13_16 C 0.31387(12) 0.51359(19) 0.35605(16)
H6_16 H 0.294957 0.519190 0.362747
C14_16 C 0.11558(10) 0.45608(17) 0.15794(14)
C15_16 C 0.12623(11) 0.45700(17) 0.12940(12)
H7_16 H 0.112972 0.458001 0.113368
C16_16 C 0.15627(12) 0.45647(19) 0.12433(11)
C17_16 C 0.17567(9) 0.4550(2) 0.14779(13)
C18_16 C 0.16502(13) 0.4541(2) 0.17633(12)
H8_16 H 0.178272 0.453095 0.192363
C19_16 C 0.13497(14) 0.4546(2) 0.18141(11)
H9_16 H 0.127693 0.453994 0.200911
C20_16 C 0.1853(2) 0.4651(2) 0.0177(2)
C21_16 C 0.19228(13) 0.46211(18) 0.04829(10)
C22_16 C 0.22106(11) 0.4611(2) 0.05828(13)
H10_16 H 0.236832 0.462014 0.044717
C23_16 C 0.22674(10) 0.4586(2) 0.08812(14)
H11_16 H 0.246409 0.457901 0.094951
C24_16 C 0.20366(13) 0.4572(2) 0.10797(10)
C25_16 C 0.17489(11) 0.4583(2) 0.09798(12)
C26_16 C 0.16920(9) 0.46072(18) 0.06814(13)
H12_16 H 0.149535 0.461434 0.061313
C27_16 C 0.3331(3) 0.5195(2) 0.4065(3)
C28_16 C 0.0842(3) 0.45673(18) 0.1636(3)
C29_16 C 0.27452(15) 0.4637(2) 0.19633(16)
C30_16 C 0.26858(17) 0.48545(19) 0.1758(2)
H13_16 H 0.280267 0.502680 0.175207
C31_16 C 0.2455(2) 0.4820(2) 0.15617(18)
H14_16 H 0.241471 0.496835 0.142149
C32_16 C 0.22843(16) 0.4568(2) 0.15706(18)
C33_16 C 0.23437(17) 0.4350(2) 0.1776(2)
H15_16 H 0.222676 0.417809 0.178177
C34_16 C 0.25741(18) 0.4385(2) 0.19721(17)
H16_16 H 0.261472 0.423653 0.211236
C35_16 C 0.3344(2) 0.4798(3) 0.2677(2)
C36_16 C 0.3129(3) 0.4582(3) 0.2695(2)
H17_16 H 0.311527 0.446289 0.286472
C37_16 C 0.2935(3) 0.4541(3) 0.2463(3)
H18_16 H 0.278894 0.439359 0.247494
C38_16 C 0.2956(3) 0.4716(3) 0.2214(2)
C39_16 C 0.3170(3) 0.4932(3) 0.2197(2)
H19_16 H 0.318448 0.505117 0.202686
C40_16 C 0.3364(3) 0.4973(3) 0.2428(3)
H20_16 H 0.351081 0.512048 0.241663
O2_16 O 0.20818(17) 0.46445(17) 0.9991(2)
O9_16 O 0.24984(16) 0.4564(2) 0.9469(2)
O10_16 O 0.10325(14) 0.48620(19) 0.9769(2)
O13_12 O 0.16254(15) 0.51739(14) 0.97445(14)
O14_12 O 0.20882(14) 0.50859(16) 0.95835(14)
H21_16 H 0.262438 0.471744 0.955836
H22_16 H 0.252967 0.456082 0.925356
H23_16 H 0.0935137 0.468793 0.985629
H24_16 H 0.0930649 0.491732 0.95847
O2_17 O 0.0009(2) 0.70818(17) 0.03555(17)
O9_17 O 0.0531(2) 0.74984(16) 0.0436(2)
O10_17 O 0.0231(2) 0.60325(14) 0.01380(19)
O11_9 O 0.07469(14) 0.64593(14) 0.01585(13)
O12_9 O 0.08546(15) 0.69304(16) 0.03034(15)
H21_17 H 0.044164 0.762438 0.0282563
H22_17 H 0.0746435 0.752967 0.0439179
H23_17 H 0.0143711 0.593514 0.0312072
H24_17 H 0.0415299 0.593065 0.00826818
O13_13 O 0.02555(14) 0.66254(15) 0.98261(14)
O14_13 O 0.04165(14) 0.70882(14) 0.99141(16)
O1_17 O 0.99112(13) 0.65907(15) 0.03333(14)
N1_17 N 0.70918(17) 0.85551(19) 0.0119(3)
N2_17 N 0.86169(17) 0.70352(17) 0.0477(3)
C1_17 C 0.6881(3) 0.9733(2) 0.0317(2)
C2_17 C 0.69548(14) 0.94297(11) 0.02868(16)
C3_17 C 0.67419(11) 0.92430(14) 0.01742(14)
H1_17 H 0.655151 0.931577 0.013147
C4_17 C 0.68077(12) 0.89496(13) 0.01240(16)
C5_17 C 0.70863(14) 0.88431(12) 0.0186(2)
C6_17 C 0.72992(11) 0.90299(16) 0.0299(2)
H2_17 H 0.748957 0.895706 0.034174
C7_17 C 0.72334(13) 0.93232(15) 0.03492(18)
H3_17 H 0.737887 0.945084 0.042622
C10_17 C 0.66356(13) 0.86921(11) 0.00278(17)
C11_17 C 0.68275(11) 0.84553(14) 0.0031(2)
C14_17 C 0.84206(14) 0.61558(10) 0.04392(17)
C15_17 C 0.87060(12) 0.62623(11) 0.04300(17)
H7_17 H 0.886632 0.612972 0.041999
C16_17 C 0.87567(11) 0.65627(12) 0.04353(19)
C17_17 C 0.85221(13) 0.67567(9) 0.0450(2)
C18_17 C 0.82367(12) 0.66502(13) 0.0459(2)
H8_17 H 0.807637 0.678272 0.046905
C19_17 C 0.81859(11) 0.63497(14) 0.0454(2)
H9_17 H 0.799089 0.627693 0.046006
C20_17 C 0.9823(2) 0.6853(2) 0.0349(2)
C21_17 C 0.95171(10) 0.69228(13) 0.03789(18)
C22_17 C 0.94172(13) 0.72106(11) 0.0389(2)
H10_17 H 0.955283 0.736832 0.037986
C23_17 C 0.91188(14) 0.72674(10) 0.0414(2)
H11_17 H 0.905049 0.746409 0.042099
C24_17 C 0.89203(10) 0.70366(13) 0.0428(2)
C25_17 C 0.90202(12) 0.67489(11) 0.0417(2)
C26_17 C 0.93186(13) 0.66920(9) 0.03928(18)
H12_17 H 0.938687 0.649535 0.038566
C28_17 C 0.8364(3) 0.5842(3) 0.04327(18)
C29_17 C 0.80367(16) 0.77452(15) 0.0363(2)
C30_17 C 0.8242(2) 0.76858(17) 0.01455(19)
C31_17 C 0.84383(18) 0.7455(2) 0.0180(2)
H14_17 H 0.857851 0.741471 0.003165
C32_17 C 0.84294(18) 0.72843(16) 0.0432(2)
C33_17 C 0.8224(2) 0.73437(17) 0.0650(2)
H15_17 H 0.821823 0.722676 0.082191
C34_17 C 0.80279(17) 0.75741(18) 0.0615(2)
H16_17 H 0.788764 0.761472 0.076347
C35_17 C 0.7323(2) 0.8344(2) 0.0202(3)
C36_17 C 0.7305(2) 0.8129(3) 0.0418(3)
H17_17 H 0.713528 0.811527 0.053711
C37_17 C 0.7537(3) 0.7935(3) 0.0459(3)
H18_17 H 0.752506 0.778894 0.060641
C38_17 C 0.7786(2) 0.7956(3) 0.0284(3)
C39_17 C 0.7803(2) 0.8170(3) 0.0068(3)
C40_17 C 0.7572(3) 0.8364(3) 0.0027(3)
O3_9 O 0.57469(14) 0.85407(14) 0.98415(13)
O4_9 O 0.58546(15) 0.80696(16) 0.96966(15)
C8_17 C 0.62476(11) 0.83754(15) 0.98609(17)
C9_17 C 0.63457(12) 0.86521(13) 0.99428(16)
H4_17 H 0.621452 0.881394 0.994058
C12_17 C 0.67294(15) 0.81786(12) 0.9949(2)
H5_17 H 0.686057 0.801684 0.995129
C13_17 C 0.64395(16) 0.81387(12) 0.98641(19)
H6_17 H 0.637253 0.794957 0.980810
C27_17 C 0.5935(3) 0.8331(3) 0.9805(2)
H13_17 H 0.824793 0.780267 0.997320
H19_17 H 0.797314 0.818448 0.994883
H20_17 H 0.758337 0.851081 0.987952
C8_18 C 0.12476(11) 0.66246(15) 0.01391(17)
C9_18 C 0.13457(12) 0.63479(13) 0.00572(16)
H4_18 H 0.121452 0.618606 0.005942
C12_18 C 0.17294(15) 0.68214(12) 0.0051(2)
H5_18 H 0.186057 0.698316 0.004871
C13_18 C 0.14395(16) 0.68613(12) 0.01359(19)
H6_18 H 0.137253 0.705043 0.019190
C27_18 C 0.0935(3) 0.6669(3) 0.0195(2)
H13_18 H 0.324793 0.719733 0.002680
H19_18 H 0.297314 0.681552 0.005117
H20_18 H 0.258337 0.648919 0.012048
O13_14 O 0.52555(14) 0.83746(15) 0.01739(14)
O14_14 O 0.54165(14) 0.79118(14) 0.00859(16)
O1_18 O 0.49112(13) 0.84093(15) 0.96667(14)
O2_18 O 0.5009(2) 0.79182(17) 0.96445(17)
O9_18 O 0.5531(2) 0.75016(16) 0.9564(2)
O10_18 O 0.5231(2) 0.89675(14) 0.98620(19)
N1_18 N 0.20918(17) 0.64449(19) 0.9881(3)
N2_18 N 0.36169(17) 0.79648(17) 0.9523(3)
C1_18 C 0.1881(3) 0.5267(2) 0.9683(2)
C2_18 C 0.19548(14) 0.55703(11) 0.97132(16)
C3_18 C 0.17419(11) 0.57570(14) 0.98258(14)
H1_18 H 0.155151 0.568423 0.986853
C4_18 C 0.18077(12) 0.60504(13) 0.98760(16)
C5_18 C 0.20863(14) 0.61569(12) 0.9814(2)
C6_18 C 0.22992(11) 0.59701(16) 0.9701(2)
H2_18 H 0.248957 0.604294 0.965826
C7_18 C 0.22334(13) 0.56768(15) 0.96508(18)
H3_18 H 0.237887 0.554916 0.957378
C10_18 C 0.16356(13) 0.63079(11) 0.99722(17)
C11_18 C 0.18275(11) 0.65447(14) 0.9969(2)
C14_18 C 0.34206(14) 0.88442(10) 0.95608(17)
C15_18 C 0.37060(12) 0.87377(11) 0.95700(17)
H7_18 H 0.386632 0.887028 0.958001
C16_18 C 0.37567(11) 0.84373(12) 0.95647(19)
C17_18 C 0.35221(13) 0.82433(9) 0.9550(2)
C18_18 C 0.32367(12) 0.83498(13) 0.9541(2)
H8_18 H 0.307637 0.821728 0.953095
C19_18 C 0.31859(11) 0.86503(14) 0.9546(2)
H9_18 H 0.299089 0.872307 0.953994
C20_18 C 0.4823(2) 0.8147(2) 0.9651(2)
C21_18 C 0.45171(10) 0.80772(13) 0.96211(18)
C22_18 C 0.44172(13) 0.77894(11) 0.9611(2)
H10_18 H 0.455283 0.763168 0.962014
C23_18 C 0.41188(14) 0.77326(10) 0.9586(2)
H11_18 H 0.405049 0.753591 0.957901
C24_18 C 0.39203(10) 0.79634(13) 0.9572(2)
C25_18 C 0.40202(12) 0.82511(11) 0.9583(2)
C26_18 C 0.43186(13) 0.83080(9) 0.96072(18)
H12_18 H 0.438687 0.850465 0.961434
C28_18 C 0.3364(3) 0.9158(3) 0.95673(18)
C29_18 C 0.30367(16) 0.72548(15) 0.9637(2)
C30_18 C 0.3242(2) 0.73142(17) 0.98545(19)
C31_18 C 0.34383(18) 0.7545(2) 0.9820(2)
H14_18 H 0.357851 0.758529 0.996835
C32_18 C 0.34294(18) 0.77157(16) 0.9568(2)
C33_18 C 0.3224(2) 0.76563(17) 0.9350(2)
H15_18 H 0.321823 0.777324 0.917809
C34_18 C 0.30279(17) 0.74259(18) 0.9385(2)
H16_18 H 0.288764 0.738528 0.923653
C35_18 C 0.2323(2) 0.6656(2) 0.9798(3)
C36_18 C 0.2305(2) 0.6871(3) 0.9582(3)
H17_18 H 0.213528 0.688473 0.946289
C37_18 C 0.2537(3) 0.7065(3) 0.9541(3)
H18_18 H 0.252506 0.721106 0.939359
C38_18 C 0.2786(2) 0.7044(3) 0.9716(3)
C39_18 C 0.2803(2) 0.6830(3) 0.9932(3)
C40_18 C 0.2572(3) 0.6636(3) 0.9973(3)
H21_18 H 0.544164 0.737562 0.971744
H22_18 H 0.574644 0.747033 0.956082
H23_18 H 0.514371 0.906486 0.968793
H24_18 H 0.54153 0.906935 0.991732
O1_19 O 0.50888(13) 0.34093(15) 0.53333(14)
O2_19 O 0.4991(2) 0.29182(17) 0.53555(17)
O3_10 O 0.92531(14) 0.14593(14) 0.48415(13)
O4_10 O 0.91454(15) 0.19304(16) 0.46966(15)
O9_19 O 0.4469(2) 0.25016(16) 0.5436(2)
O10_19 O 0.4769(2) 0.39675(14) 0.51380(19)
N1_19 N 0.79082(17) 0.14449(19) 0.5119(3)
N2_19 N 0.63831(17) 0.29648(17) 0.5477(3)
C1_19 C 0.8119(3) 0.0267(2) 0.5317(2)
C2_19 C 0.80452(14) 0.05703(11) 0.52868(16)
C3_19 C 0.82581(11) 0.07570(14) 0.51742(14)
H1_19 H 0.844849 0.068423 0.513147
C4_19 C 0.81923(12) 0.10504(13) 0.51240(16)
C5_19 C 0.79137(14) 0.11569(12) 0.5186(2)
C6_19 C 0.77008(11) 0.09701(16) 0.5299(2)
H2_19 H 0.751043 0.104294 0.534174
C7_19 C 0.77666(13) 0.06768(15) 0.53492(18)
H3_19 H 0.762113 0.054916 0.542622
C8_19 C 0.87524(11) 0.16246(15) 0.48609(17)
C9_19 C 0.86543(12) 0.13479(13) 0.49428(16)
H4_19 H 0.878548 0.118606 0.494058
C10_19 C 0.83644(13) 0.13079(11) 0.50278(17)
C11_19 C 0.81725(11) 0.15447(14) 0.5031(2)
C12_19 C 0.82706(15) 0.18214(12) 0.4949(2)
H5_19 H 0.813943 0.198316 0.495129
C13_19 C 0.85605(16) 0.18613(12) 0.48641(19)
H6_19 H 0.862747 0.205043 0.480810
C14_19 C 0.65794(14) 0.38442(10) 0.54392(17)
C15_19 C 0.62940(12) 0.37377(11) 0.54300(17)
H7_19 H 0.613368 0.387028 0.541999
C16_19 C 0.62433(11) 0.34373(12) 0.54353(19)
C17_19 C 0.64779(13) 0.32433(9) 0.5450(2)
C18_19 C 0.67633(12) 0.33498(13) 0.5459(2)
H8_19 H 0.692363 0.321728 0.546905
C19_19 C 0.68141(11) 0.36503(14) 0.5454(2)
H9_19 H 0.700911 0.372307 0.546006
C20_19 C 0.5177(2) 0.3147(2) 0.5349(2)
C21_19 C 0.54829(10) 0.30772(13) 0.53789(18)
C22_19 C 0.55828(13) 0.27894(11) 0.5389(2)
H10_19 H 0.544717 0.263168 0.537986
C23_19 C 0.58812(14) 0.27326(10) 0.5414(2)
H11_19 H 0.594951 0.253591 0.542099
C24_19 C 0.60797(10) 0.29634(13) 0.5428(2)
C25_19 C 0.59798(12) 0.32511(11) 0.5417(2)
C26_19 C 0.56814(13) 0.33080(9) 0.53928(18)
H12_19 H 0.561313 0.350465 0.538566
C27_19 C 0.9065(3) 0.1669(3) 0.4805(2)
C28_19 C 0.6636(3) 0.4158(3) 0.54327(18)
C29_19 C 0.69633(16) 0.22548(15) 0.5363(2)
C30_19 C 0.6758(2) 0.23142(17) 0.51455(19)
H13_19 H 0.675207 0.219733 0.497320
C31_19 C 0.65617(18) 0.2545(2) 0.5180(2)
H14_19 H 0.642149 0.258529 0.503165
C32_19 C 0.65706(18) 0.27157(16) 0.5432(2)
C33_19 C 0.6776(2) 0.26563(17) 0.5650(2)
H15_19 H 0.678177 0.277324 0.582191
C34_19 C 0.69721(17) 0.24259(18) 0.5615(2)
H16_19 H 0.711236 0.238528 0.576347
C35_19 C 0.7677(2) 0.1656(2) 0.5202(3)
C36_19 C 0.7695(2) 0.1871(3) 0.5418(3)
H17_19 H 0.786472 0.188473 0.553711
C37_19 C 0.7463(3) 0.2065(3) 0.5459(3)
H18_19 H 0.747494 0.221106 0.560641
C38_19 C 0.7214(2) 0.2044(3) 0.5284(3)
C39_19 C 0.7197(2) 0.1830(3) 0.5068(3)
H19_19 H 0.702686 0.181552 0.494883
C40_19 C 0.7428(3) 0.1636(3) 0.5027(3)
H20_19 H 0.741663 0.148919 0.487952
O11_10 O 0.42531(14) 0.35407(14) 0.51585(13)
O12_10 O 0.41454(15) 0.30696(16) 0.53034(15)
O13_15 O 0.47445(14) 0.33746(15) 0.48261(14)
O14_15 O 0.45835(14) 0.29118(14) 0.49141(16)
H21_19 H 0.455836 0.237562 0.528256
H22_19 H 0.425356 0.247033 0.543918
H23_19 H 0.485629 0.406486 0.531207
H24_19 H 0.45847 0.406935 0.508268
O1_20 O 0.00888(13) 0.15907(15) 0.46667(14)
N1_20 N 0.29082(17) 0.35551(19) 0.4881(3)
N2_20 N 0.13831(17) 0.20352(17) 0.4523(3)
C1_20 C 0.3119(3) 0.4733(2) 0.4683(2)
C2_20 C 0.30452(14) 0.44297(11) 0.47132(16)
C3_20 C 0.32581(11) 0.42430(14) 0.48258(14)
H1_20 H 0.344849 0.431577 0.486853
C4_20 C 0.31923(12) 0.39496(13) 0.48760(16)
C5_20 C 0.29137(14) 0.38431(12) 0.4814(2)
C6_20 C 0.27008(11) 0.40299(16) 0.4701(2)
H2_20 H 0.251043 0.395706 0.465826
C7_20 C 0.27666(13) 0.43232(15) 0.46508(18)
H3_20 H 0.262113 0.445084 0.457378
C8_20 C 0.37524(11) 0.33754(15) 0.51391(17)
C9_20 C 0.36543(12) 0.36521(13) 0.50572(16)
H4_20 H 0.378548 0.381394 0.505942
C10_20 C 0.33644(13) 0.36921(11) 0.49722(17)
C11_20 C 0.31725(11) 0.34553(14) 0.4969(2)
C12_20 C 0.32706(15) 0.31786(12) 0.5051(2)
H5_20 H 0.313943 0.301684 0.504871
C13_20 C 0.35605(16) 0.31387(12) 0.51359(19)
H6_20 H 0.362747 0.294957 0.519190
C14_20 C 0.15794(14) 0.11558(10) 0.45608(17)
C15_20 C 0.12940(12) 0.12623(11) 0.45700(17)
H7_20 H 0.113368 0.112972 0.458001
C16_20 C 0.12433(11) 0.15627(12) 0.45647(19)
C17_20 C 0.14779(13) 0.17567(9) 0.4550(2)
C18_20 C 0.17633(12) 0.16502(13) 0.4541(2)
H8_20 H 0.192363 0.178272 0.453095
C19_20 C 0.18141(11) 0.13497(14) 0.4546(2)
H9_20 H 0.200911 0.127693 0.453994
C20_20 C 0.0177(2) 0.1853(2) 0.4651(2)
C21_20 C 0.04829(10) 0.19228(13) 0.46211(18)
C22_20 C 0.05828(13) 0.22106(11) 0.4611(2)
H10_20 H 0.044717 0.236832 0.462014
C23_20 C 0.08812(14) 0.22674(10) 0.4586(2)
H11_20 H 0.094951 0.246409 0.457901
C24_20 C 0.10797(10) 0.20366(13) 0.4572(2)
C25_20 C 0.09798(12) 0.17489(11) 0.4583(2)
C26_20 C 0.06814(13) 0.16920(9) 0.46072(18)
H12_20 H 0.061313 0.149535 0.461434
C27_20 C 0.4065(3) 0.3331(3) 0.5195(2)
C28_20 C 0.1636(3) 0.0842(3) 0.45673(18)
C29_20 C 0.19633(16) 0.27452(15) 0.4637(2)
C30_20 C 0.1758(2) 0.26858(17) 0.48545(19)
H13_20 H 0.175207 0.280267 0.502680
C31_20 C 0.15617(18) 0.2455(2) 0.4820(2)
H14_20 H 0.142149 0.241471 0.496835
C32_20 C 0.15706(18) 0.22843(16) 0.4568(2)
C33_20 C 0.1776(2) 0.23437(17) 0.4350(2)
H15_20 H 0.178177 0.222676 0.417809
C34_20 C 0.19721(17) 0.25741(18) 0.4385(2)
H16_20 H 0.211236 0.261472 0.423653
C35_20 C 0.2677(2) 0.3344(2) 0.4798(3)
C36_20 C 0.2695(2) 0.3129(3) 0.4582(3)
H17_20 H 0.286472 0.311527 0.446289
C37_20 C 0.2463(3) 0.2935(3) 0.4541(3)
H18_20 H 0.247494 0.278894 0.439359
C38_20 C 0.2214(2) 0.2956(3) 0.4716(3)
C39_20 C 0.2197(2) 0.3170(3) 0.4932(3)
H19_20 H 0.202686 0.318448 0.505117
C40_20 C 0.2428(3) 0.3364(3) 0.4973(3)
H20_20 H 0.241663 0.351081 0.512048
O2_20 O 0.9991(2) 0.20818(17) 0.46445(17)
O9_20 O 0.9469(2) 0.24984(16) 0.4564(2)
O10_20 O 0.9769(2) 0.10325(14) 0.48620(19)
O13_16 O 0.97445(14) 0.16254(15) 0.51739(14)
O14_16 O 0.95835(14) 0.20882(14) 0.50859(16)
H21_20 H 0.955836 0.262438 0.471744
H22_20 H 0.925356 0.252967 0.456082
H23_20 H 0.985629 0.0935137 0.468793
H24_20 H 0.95847 0.0930649 0.491732
O2_21 O 0.03555(17) 0.0009(2) 0.70818(17)
O9_21 O 0.0436(2) 0.0531(2) 0.74984(16)
O10_21 O 0.01380(19) 0.0231(2) 0.60325(14)
O11_11 O 0.01585(13) 0.07469(14) 0.64593(14)
O12_11 O 0.03034(15) 0.08546(15) 0.69304(16)
H21_21 H 0.0282563 0.044164 0.762438
H22_21 H 0.0439179 0.0746435 0.752967
H23_21 H 0.0312072 0.0143711 0.593514
H24_21 H 0.00826818 0.0415299 0.593065
O1_21 O 0.03333(14) 0.99112(13) 0.65907(15)
N1_21 N 0.0119(3) 0.70918(17) 0.85551(19)
N2_21 N 0.0477(3) 0.86169(17) 0.70352(17)
C1_21 C 0.0317(2) 0.6881(3) 0.9733(2)
C2_21 C 0.02868(16) 0.69548(14) 0.94297(11)
C3_21 C 0.01742(14) 0.67419(11) 0.92430(14)
H1_21 H 0.013147 0.655151 0.931577
C4_21 C 0.01240(16) 0.68077(12) 0.89496(13)
C5_21 C 0.0186(2) 0.70863(14) 0.88431(12)
C6_21 C 0.0299(2) 0.72992(11) 0.90299(16)
H2_21 H 0.034174 0.748957 0.895706
C7_21 C 0.03492(18) 0.72334(13) 0.93232(15)
H3_21 H 0.042622 0.737887 0.945084
C10_21 C 0.00278(17) 0.66356(13) 0.86921(11)
C11_21 C 0.0031(2) 0.68275(11) 0.84553(14)
C14_21 C 0.04392(17) 0.84206(14) 0.61558(10)
C15_21 C 0.04300(17) 0.87060(12) 0.62623(11)
H7_21 H 0.041999 0.886632 0.612972
C16_21 C 0.04353(19) 0.87567(11) 0.65627(12)
C17_21 C 0.0450(2) 0.85221(13) 0.67567(9)
C18_21 C 0.0459(2) 0.82367(12) 0.66502(13)
H8_21 H 0.046905 0.807637 0.678272
C19_21 C 0.0454(2) 0.81859(11) 0.63497(14)
H9_21 H 0.046006 0.799089 0.627693
C20_21 C 0.0349(2) 0.9823(2) 0.6853(2)
C21_21 C 0.03789(18) 0.95171(10) 0.69228(13)
C22_21 C 0.0389(2) 0.94172(13) 0.72106(11)
H10_21 H 0.037986 0.955283 0.736832
C23_21 C 0.0414(2) 0.91188(14) 0.72674(10)
H11_21 H 0.042099 0.905049 0.746409
C24_21 C 0.0428(2) 0.89203(10) 0.70366(13)
C25_21 C 0.0417(2) 0.90202(12) 0.67489(11)
C26_21 C 0.03928(18) 0.93186(13) 0.66920(9)
H12_21 H 0.038566 0.938687 0.649535
C28_21 C 0.04327(18) 0.8364(3) 0.5842(3)
C29_21 C 0.0363(2) 0.80367(16) 0.77452(15)
C30_21 C 0.01455(19) 0.8242(2) 0.76858(17)
C31_21 C 0.0180(2) 0.84383(18) 0.7455(2)
H14_21 H 0.003165 0.857851 0.741471
C32_21 C 0.0432(2) 0.84294(18) 0.72843(16)
C33_21 C 0.0650(2) 0.8224(2) 0.73437(17)
H15_21 H 0.082191 0.821823 0.722676
C34_21 C 0.0615(2) 0.80279(17) 0.75741(18)
H16_21 H 0.076347 0.788764 0.761472
C35_21 C 0.0202(3) 0.7323(2) 0.8344(2)
C36_21 C 0.0418(3) 0.7305(2) 0.8129(3)
H17_21 H 0.053711 0.713528 0.811527
C37_21 C 0.0459(3) 0.7537(3) 0.7935(3)
H18_21 H 0.060641 0.752506 0.778894
C38_21 C 0.0284(3) 0.7786(2) 0.7956(3)
C39_21 C 0.0068(3) 0.7803(2) 0.8170(3)
C40_21 C 0.0027(3) 0.7572(3) 0.8364(3)
O3_11 O 0.98415(13) 0.57469(14) 0.85407(14)
O4_11 O 0.96966(15) 0.58546(15) 0.80696(16)
C8_21 C 0.98609(17) 0.62476(11) 0.83754(15)
C9_21 C 0.99428(16) 0.63457(12) 0.86521(13)
H4_21 H 0.994058 0.621452 0.881394
C12_21 C 0.9949(2) 0.67294(15) 0.81786(12)
H5_21 H 0.995129 0.686057 0.801684
C13_21 C 0.98641(19) 0.64395(16) 0.81387(12)
H6_21 H 0.980810 0.637253 0.794957
C27_21 C 0.9805(2) 0.5935(3) 0.8331(3)
H13_21 H 0.997320 0.824793 0.780267
H19_21 H 0.994883 0.797314 0.818448
H20_21 H 0.987952 0.758337 0.851081
C8_22 C 0.01391(17) 0.12476(11) 0.66246(15)
C9_22 C 0.00572(16) 0.13457(12) 0.63479(13)
H4_22 H 0.005942 0.121452 0.618606
C12_22 C 0.0051(2) 0.17294(15) 0.68214(12)
H5_22 H 0.004871 0.186057 0.698316
C13_22 C 0.01359(19) 0.14395(16) 0.68613(12)
H6_22 H 0.019190 0.137253 0.705043
C27_22 C 0.0195(2) 0.0935(3) 0.6669(3)
H13_22 H 0.002680 0.324793 0.719733
H19_22 H 0.005117 0.297314 0.681552
H20_22 H 0.012048 0.258337 0.648919
O1_22 O 0.96667(14) 0.49112(13) 0.84093(15)
O2_22 O 0.96445(17) 0.5009(2) 0.79182(17)
O9_22 O 0.9564(2) 0.5531(2) 0.75016(16)
O10_22 O 0.98620(19) 0.5231(2) 0.89675(14)
N1_22 N 0.9881(3) 0.20918(17) 0.64449(19)
N2_22 N 0.9523(3) 0.36169(17) 0.79648(17)
C1_22 C 0.9683(2) 0.1881(3) 0.5267(2)
C2_22 C 0.97132(16) 0.19548(14) 0.55703(11)
C3_22 C 0.98258(14) 0.17419(11) 0.57570(14)
H1_22 H 0.986853 0.155151 0.568423
C4_22 C 0.98760(16) 0.18077(12) 0.60504(13)
C5_22 C 0.9814(2) 0.20863(14) 0.61569(12)
C6_22 C 0.9701(2) 0.22992(11) 0.59701(16)
H2_22 H 0.965826 0.248957 0.604294
C7_22 C 0.96508(18) 0.22334(13) 0.56768(15)
H3_22 H 0.957378 0.237887 0.554916
C10_22 C 0.99722(17) 0.16356(13) 0.63079(11)
C11_22 C 0.9969(2) 0.18275(11) 0.65447(14)
C14_22 C 0.95608(17) 0.34206(14) 0.88442(10)
C15_22 C 0.95700(17) 0.37060(12) 0.87377(11)
H7_22 H 0.958001 0.386632 0.887028
C16_22 C 0.95647(19) 0.37567(11) 0.84373(12)
C17_22 C 0.9550(2) 0.35221(13) 0.82433(9)
C18_22 C 0.9541(2) 0.32367(12) 0.83498(13)
H8_22 H 0.953095 0.307637 0.821728
C19_22 C 0.9546(2) 0.31859(11) 0.86503(14)
H9_22 H 0.953994 0.299089 0.872307
C20_22 C 0.9651(2) 0.4823(2) 0.8147(2)
C21_22 C 0.96211(18) 0.45171(10) 0.80772(13)
C22_22 C 0.9611(2) 0.44172(13) 0.77894(11)
H10_22 H 0.962014 0.455283 0.763168
C23_22 C 0.9586(2) 0.41188(14) 0.77326(10)
H11_22 H 0.957901 0.405049 0.753591
C24_22 C 0.9572(2) 0.39203(10) 0.79634(13)
C25_22 C 0.9583(2) 0.40202(12) 0.82511(11)
C26_22 C 0.96072(18) 0.43186(13) 0.83080(9)
H12_22 H 0.961434 0.438687 0.850465
C28_22 C 0.95673(18) 0.3364(3) 0.9158(3)
C29_22 C 0.9637(2) 0.30367(16) 0.72548(15)
C30_22 C 0.98545(19) 0.3242(2) 0.73142(17)
C31_22 C 0.9820(2) 0.34383(18) 0.7545(2)
H14_22 H 0.996835 0.357851 0.758529
C32_22 C 0.9568(2) 0.34294(18) 0.77157(16)
C33_22 C 0.9350(2) 0.3224(2) 0.76563(17)
H15_22 H 0.917809 0.321823 0.777324
C34_22 C 0.9385(2) 0.30279(17) 0.74259(18)
H16_22 H 0.923653 0.288764 0.738528
C35_22 C 0.9798(3) 0.2323(2) 0.6656(2)
C36_22 C 0.9582(3) 0.2305(2) 0.6871(3)
H17_22 H 0.946289 0.213528 0.688473
C37_22 C 0.9541(3) 0.2537(3) 0.7065(3)
H18_22 H 0.939359 0.252506 0.721106
C38_22 C 0.9716(3) 0.2786(2) 0.7044(3)
C39_22 C 0.9932(3) 0.2803(2) 0.6830(3)
C40_22 C 0.9973(3) 0.2572(3) 0.6636(3)
H21_22 H 0.971744 0.544164 0.737562
H22_22 H 0.956082 0.574644 0.747033
H23_22 H 0.968793 0.514371 0.906486
H24_22 H 0.991732 0.54153 0.906935
O1_23 O 0.53333(14) 0.50888(13) 0.34093(15)
O2_23 O 0.53555(17) 0.4991(2) 0.29182(17)
O3_12 O 0.48415(13) 0.92531(14) 0.14593(14)
O4_12 O 0.46966(15) 0.91454(15) 0.19304(16)
O9_23 O 0.5436(2) 0.4469(2) 0.25016(16)
O10_23 O 0.51380(19) 0.4769(2) 0.39675(14)
N1_23 N 0.5119(3) 0.79082(17) 0.14449(19)
N2_23 N 0.5477(3) 0.63831(17) 0.29648(17)
C1_23 C 0.5317(2) 0.8119(3) 0.0267(2)
C2_23 C 0.52868(16) 0.80452(14) 0.05703(11)
C3_23 C 0.51742(14) 0.82581(11) 0.07570(14)
H1_23 H 0.513147 0.844849 0.068423
C4_23 C 0.51240(16) 0.81923(12) 0.10504(13)
C5_23 C 0.5186(2) 0.79137(14) 0.11569(12)
C6_23 C 0.5299(2) 0.77008(11) 0.09701(16)
H2_23 H 0.534174 0.751043 0.104294
C7_23 C 0.53492(18) 0.77666(13) 0.06768(15)
H3_23 H 0.542622 0.762113 0.054916
C8_23 C 0.48609(17) 0.87524(11) 0.16246(15)
C9_23 C 0.49428(16) 0.86543(12) 0.13479(13)
H4_23 H 0.494058 0.878548 0.118606
C10_23 C 0.50278(17) 0.83644(13) 0.13079(11)
C11_23 C 0.5031(2) 0.81725(11) 0.15447(14)
C12_23 C 0.4949(2) 0.82706(15) 0.18214(12)
H5_23 H 0.495129 0.813943 0.198316
C13_23 C 0.48641(19) 0.85605(16) 0.18613(12)
H6_23 H 0.480810 0.862747 0.205043
C14_23 C 0.54392(17) 0.65794(14) 0.38442(10)
C15_23 C 0.54300(17) 0.62940(12) 0.37377(11)
H7_23 H 0.541999 0.613368 0.387028
C16_23 C 0.54353(19) 0.62433(11) 0.34373(12)
C17_23 C 0.5450(2) 0.64779(13) 0.32433(9)
C18_23 C 0.5459(2) 0.67633(12) 0.33498(13)
H8_23 H 0.546905 0.692363 0.321728
C19_23 C 0.5454(2) 0.68141(11) 0.36503(14)
H9_23 H 0.546006 0.700911 0.372307
C20_23 C 0.5349(2) 0.5177(2) 0.3147(2)
C21_23 C 0.53789(18) 0.54829(10) 0.30772(13)
C22_23 C 0.5389(2) 0.55828(13) 0.27894(11)
H10_23 H 0.537986 0.544717 0.263168
C23_23 C 0.5414(2) 0.58812(14) 0.27326(10)
H11_23 H 0.542099 0.594951 0.253591
C24_23 C 0.5428(2) 0.60797(10) 0.29634(13)
C25_23 C 0.5417(2) 0.59798(12) 0.32511(11)
C26_23 C 0.53928(18) 0.56814(13) 0.33080(9)
H12_23 H 0.538566 0.561313 0.350465
C27_23 C 0.4805(2) 0.9065(3) 0.1669(3)
C28_23 C 0.54327(18) 0.6636(3) 0.4158(3)
C29_23 C 0.5363(2) 0.69633(16) 0.22548(15)
C30_23 C 0.51455(19) 0.6758(2) 0.23142(17)
H13_23 H 0.497320 0.675207 0.219733
C31_23 C 0.5180(2) 0.65617(18) 0.2545(2)
H14_23 H 0.503165 0.642149 0.258529
C32_23 C 0.5432(2) 0.65706(18) 0.27157(16)
C33_23 C 0.5650(2) 0.6776(2) 0.26563(17)
H15_23 H 0.582191 0.678177 0.277324
C34_23 C 0.5615(2) 0.69721(17) 0.24259(18)
H16_23 H 0.576347 0.711236 0.238528
C35_23 C 0.5202(3) 0.7677(2) 0.1656(2)
C36_23 C 0.5418(3) 0.7695(2) 0.1871(3)
H17_23 H 0.553711 0.786472 0.188473
C37_23 C 0.5459(3) 0.7463(3) 0.2065(3)
H18_23 H 0.560641 0.747494 0.221106
C38_23 C 0.5284(3) 0.7214(2) 0.2044(3)
C39_23 C 0.5068(3) 0.7197(2) 0.1830(3)
H19_23 H 0.494883 0.702686 0.181552
C40_23 C 0.5027(3) 0.7428(3) 0.1636(3)
H20_23 H 0.487952 0.741663 0.148919
O11_12 O 0.51585(13) 0.42531(14) 0.35407(14)
O12_12 O 0.53034(15) 0.41454(15) 0.30696(16)
H21_23 H 0.528256 0.455836 0.237562
H22_23 H 0.543918 0.425356 0.247033
H23_23 H 0.531207 0.485629 0.406486
H24_23 H 0.508268 0.45847 0.406935
O1_24 O 0.46667(14) 0.00888(13) 0.15907(15)
N1_24 N 0.4881(3) 0.29082(17) 0.35551(19)
N2_24 N 0.4523(3) 0.13831(17) 0.20352(17)
C1_24 C 0.4683(2) 0.3119(3) 0.4733(2)
C2_24 C 0.47132(16) 0.30452(14) 0.44297(11)
C3_24 C 0.48258(14) 0.32581(11) 0.42430(14)
H1_24 H 0.486853 0.344849 0.431577
C4_24 C 0.48760(16) 0.31923(12) 0.39496(13)
C5_24 C 0.4814(2) 0.29137(14) 0.38431(12)
C6_24 C 0.4701(2) 0.27008(11) 0.40299(16)
H2_24 H 0.465826 0.251043 0.395706
C7_24 C 0.46508(18) 0.27666(13) 0.43232(15)
H3_24 H 0.457378 0.262113 0.445084
C8_24 C 0.51391(17) 0.37524(11) 0.33754(15)
C9_24 C 0.50572(16) 0.36543(12) 0.36521(13)
H4_24 H 0.505942 0.378548 0.381394
C10_24 C 0.49722(17) 0.33644(13) 0.36921(11)
C11_24 C 0.4969(2) 0.31725(11) 0.34553(14)
C12_24 C 0.5051(2) 0.32706(15) 0.31786(12)
H5_24 H 0.504871 0.313943 0.301684
C13_24 C 0.51359(19) 0.35605(16) 0.31387(12)
H6_24 H 0.519190 0.362747 0.294957
C14_24 C 0.45608(17) 0.15794(14) 0.11558(10)
C15_24 C 0.45700(17) 0.12940(12) 0.12623(11)
H7_24 H 0.458001 0.113368 0.112972
C16_24 C 0.45647(19) 0.12433(11) 0.15627(12)
C17_24 C 0.4550(2) 0.14779(13) 0.17567(9)
C18_24 C 0.4541(2) 0.17633(12) 0.16502(13)
H8_24 H 0.453095 0.192363 0.178272
C19_24 C 0.4546(2) 0.18141(11) 0.13497(14)
H9_24 H 0.453994 0.200911 0.127693
C20_24 C 0.4651(2) 0.0177(2) 0.1853(2)
C21_24 C 0.46211(18) 0.04829(10) 0.19228(13)
C22_24 C 0.4611(2) 0.05828(13) 0.22106(11)
H10_24 H 0.462014 0.044717 0.236832
C23_24 C 0.4586(2) 0.08812(14) 0.22674(10)
H11_24 H 0.457901 0.094951 0.246409
C24_24 C 0.4572(2) 0.10797(10) 0.20366(13)
C25_24 C 0.4583(2) 0.09798(12) 0.17489(11)
C26_24 C 0.46072(18) 0.06814(13) 0.16920(9)
H12_24 H 0.461434 0.061313 0.149535
C27_24 C 0.5195(2) 0.4065(3) 0.3331(3)
C28_24 C 0.45673(18) 0.1636(3) 0.0842(3)
C29_24 C 0.4637(2) 0.19633(16) 0.27452(15)
C30_24 C 0.48545(19) 0.1758(2) 0.26858(17)
H13_24 H 0.502680 0.175207 0.280267
C31_24 C 0.4820(2) 0.15617(18) 0.2455(2)
H14_24 H 0.496835 0.142149 0.241471
C32_24 C 0.4568(2) 0.15706(18) 0.22843(16)
C33_24 C 0.4350(2) 0.1776(2) 0.23437(17)
H15_24 H 0.417809 0.178177 0.222676
C34_24 C 0.4385(2) 0.19721(17) 0.25741(18)
H16_24 H 0.423653 0.211236 0.261472
C35_24 C 0.4798(3) 0.2677(2) 0.3344(2)
C36_24 C 0.4582(3) 0.2695(2) 0.3129(3)
H17_24 H 0.446289 0.286472 0.311527
C37_24 C 0.4541(3) 0.2463(3) 0.2935(3)
H18_24 H 0.439359 0.247494 0.278894
C38_24 C 0.4716(3) 0.2214(2) 0.2956(3)
C39_24 C 0.4932(3) 0.2197(2) 0.3170(3)
H19_24 H 0.505117 0.202686 0.318448
C40_24 C 0.4973(3) 0.2428(3) 0.3364(3)
H20_24 H 0.512048 0.241663 0.351081
O2_24 O 0.46445(17) 0.9991(2) 0.20818(17)
O9_24 O 0.4564(2) 0.9469(2) 0.24984(16)
O10_24 O 0.48620(19) 0.9769(2) 0.10325(14)
H21_24 H 0.471744 0.955836 0.262438
H22_24 H 0.456082 0.925356 0.252967
H23_24 H 0.468793 0.985629 0.0935137
H24_24 H 0.491732 0.95847 0.0930649
loop_
_geom_bond_atom_site_label_1
_geom_bond_atom_site_label_2
_geom_bond_site_symmetry_1
_geom_bond_site_symmetry_2
O3 C27 1_555 1_555
O4 C27 1_555 1_555
C8 C9 1_555 1_555
C9 H4 1_555 1_555
H5 C12 1_555 1_555
C13 C8 1_555 1_555
H6 C13 1_555 1_555
C27 C8 1_555 1_555
Zn3 O3 1_555 1_555
Zn6 O4 1_555 1_555
C12 C13 1_555 1_555
O1 C20 1_555 1_555
O5 C1 1_555 1_555
O6 C1 1_555 1_555
O7 C28 1_555 1_555
O8 C28 1_555 1_555
N1 C5 1_555 1_555
N2 C17 1_555 1_555
C1 C2 1_555 1_555
C2 C3 1_555 1_555
C3 H1 1_555 1_555
C4 C3 1_555 1_555
C5 C4 1_555 1_555
C6 C5 1_555 1_555
H2 C6 1_555 1_555
C7 C2 1_555 1_555
H3 C7 1_555 1_555
C10 C4 1_555 1_555
C11 N1 1_555 1_555
C14 C15 1_555 1_555
C15 H7 1_555 1_555
C16 C15 1_555 1_555
C17 C16 1_555 1_555
C18 C17 1_555 1_555
H8 C18 1_555 1_555
C19 C14 1_555 1_555
H9 C19 1_555 1_555
C20 C21 1_555 1_555
C21 C22 1_555 1_555
C22 H10 1_555 1_555
C23 C22 1_555 1_555
H11 C23 1_555 1_555
C24 N2 1_555 1_555
C25 C16 1_555 1_555
C26 C21 1_555 1_555
H12 C26 1_555 1_555
C28 C14 1_555 1_555
C29 C30 1_555 1_555
C31 C30 1_555 1_555
H14 C31 1_555 1_555
C32 N2 1_555 1_555
C33 C32 1_555 1_555
H15 C33 1_555 1_555
C34 C29 1_555 1_555
H16 C34 1_555 1_555
C35 N1 1_555 1_555
C36 C35 1_555 1_555
H17 C36 1_555 1_555
C37 C36 1_555 1_555
H18 C37 1_555 1_555
C38 C29 1_555 1_555
C39 C38 1_555 1_555
C40 C35 1_555 1_555
Zn5 O7 1_555 1_555
Zn8 O8 1_555 1_555
C6 C7 1_555 1_555
C10 C11 1_555 1_555
C18 C19 1_555 1_555
C23 C24 1_555 1_555
C24 C25 1_555 1_555
C25 C26 1_555 1_555
C31 C32 1_555 1_555
C33 C34 1_555 1_555
C37 C38 1_555 1_555
C39 C40 1_555 1_555
Zn2 O2 1_555 1_555
O9 Zn2 1_555 1_555
O10 Zn1 1_555 1_555
O11 Zn1 1_555 1_555
O12 Zn2 1_555 1_555
O15 Zn1 1_555 1_555
O16 Zn2 1_555 1_555
O9 H21 1_555 1_555
O9 H22 1_555 1_555
O10 H23 1_555 1_555
O10 H24 1_555 1_555
Zn3 O1_2 1_555 1_555
Zn6 O2_2 1_555 1_555
O1_2 C20_2 1_555 1_555
O2_2 C20_2 1_555 1_555
O5_2 C1_2 1_555 1_555
O6_2 C1_2 1_555 1_555
O7_2 C28_2 1_555 1_555
O8_2 C28_2 1_555 1_555
O9_2 Zn6 1_555 1_555
O10_2 Zn3 1_555 1_555
N1_2 C5_2 1_555 1_555
N2_2 C17_2 1_555 1_555
C1_2 C2_2 1_555 1_555
C2_2 C3_2 1_555 1_555
C3_2 H1_2 1_555 1_555
C4_2 C3_2 1_555 1_555
C5_2 C4_2 1_555 1_555
C6_2 C5_2 1_555 1_555
H2_2 C6_2 1_555 1_555
C7_2 C2_2 1_555 1_555
H3_2 C7_2 1_555 1_555
C10_2 C4_2 1_555 1_555
C11_2 N1_2 1_555 1_555
C14_2 C15_2 1_555 1_555
C15_2 H7_2 1_555 1_555
C16_2 C15_2 1_555 1_555
C17_2 C16_2 1_555 1_555
C18_2 C17_2 1_555 1_555
H8_2 C18_2 1_555 1_555
C19_2 C14_2 1_555 1_555
H9_2 C19_2 1_555 1_555
C20_2 C21_2 1_555 1_555
C21_2 C22_2 1_555 1_555
C22_2 H10_2 1_555 1_555
C23_2 C22_2 1_555 1_555
H11_2 C23_2 1_555 1_555
C24_2 N2_2 1_555 1_555
C25_2 C16_2 1_555 1_555
C26_2 C21_2 1_555 1_555
H12_2 C26_2 1_555 1_555
C28_2 C14_2 1_555 1_555
C29_2 C30_2 1_555 1_555
C31_2 C30_2 1_555 1_555
H14_2 C31_2 1_555 1_555
C32_2 N2_2 1_555 1_555
C33_2 C32_2 1_555 1_555
H15_2 C33_2 1_555 1_555
C34_2 C29_2 1_555 1_555
H16_2 C34_2 1_555 1_555
C35_2 N1_2 1_555 1_555
C36_2 C35_2 1_555 1_555
H17_2 C36_2 1_555 1_555
C37_2 C36_2 1_555 1_555
H18_2 C37_2 1_555 1_555
C38_2 C29_2 1_555 1_555
C39_2 C38_2 1_555 1_555
C40_2 C35_2 1_555 1_555
Zn4_2 O5_2 1_555 1_555
Zn5_2 O7_2 1_555 1_555
Zn7_2 O6_2 1_555 1_555
Zn8_2 O8_2 1_555 1_555
O15_2 Zn3 1_555 1_555
O16_2 Zn6 1_555 1_555
C6_2 C7_2 1_555 1_555
C10_2 C11_2 1_555 1_555
C18_2 C19_2 1_555 1_555
C23_2 C24_2 1_555 1_555
C24_2 C25_2 1_555 1_555
C25_2 C26_2 1_555 1_555
C31_2 C32_2 1_555 1_555
C33_2 C34_2 1_555 1_555
C37_2 C38_2 1_555 1_555
C39_2 C40_2 1_555 1_555
O9_2 H21_2 1_555 1_555
O9_2 H22_2 1_555 1_555
O10_2 H23_2 1_555 1_555
O10_2 H24_2 1_555 1_555
O11 C27_2 1_555 1_555
O12 C27_2 1_555 1_555
C8_2 C9_2 1_555 1_555
C9_2 H4_2 1_555 1_555
H5_2 C12_2 1_555 1_555
C13_2 C8_2 1_555 1_555
H6_2 C13_2 1_555 1_555
C27_2 C8_2 1_555 1_555
C12_2 C13_2 1_555 1_555
Zn1_2 O1_3 1_555 1_555
Zn2_2 O2_3 1_555 1_555
O1_3 C20_3 1_555 1_555
O2_3 C20_3 1_555 1_555
O3_2 C27_3 1_555 1_555
O4_2 C27_3 1_555 1_555
O5_3 C1_3 1_555 1_555
O6_3 C1_3 1_555 1_555
O7_3 C28_3 1_555 1_555
O8_3 C28_3 1_555 1_555
O9_3 Zn2_2 1_555 1_555
O10_3 Zn1_2 1_555 1_555
N1_3 C5_3 1_555 1_555
N2_3 C17_3 1_555 1_555
C1_3 C2_3 1_555 1_555
C2_3 C3_3 1_555 1_555
C3_3 H1_3 1_555 1_555
C4_3 C3_3 1_555 1_555
C5_3 C4_3 1_555 1_555
C6_3 C5_3 1_555 1_555
H2_3 C6_3 1_555 1_555
C7_3 C2_3 1_555 1_555
H3_3 C7_3 1_555 1_555
C8_3 C9_3 1_555 1_555
C9_3 H4_3 1_555 1_555
C10_3 C4_3 1_555 1_555
C11_3 N1_3 1_555 1_555
C12_3 C11_3 1_555 1_555
H5_3 C12_3 1_555 1_555
C13_3 C8_3 1_555 1_555
H6_3 C13_3 1_555 1_555
C14_3 C15_3 1_555 1_555
C15_3 H7_3 1_555 1_555
C16_3 C15_3 1_555 1_555
C17_3 C16_3 1_555 1_555
C18_3 C17_3 1_555 1_555
H8_3 C18_3 1_555 1_555
C19_3 C14_3 1_555 1_555
H9_3 C19_3 1_555 1_555
C20_3 C21_3 1_555 1_555
C21_3 C22_3 1_555 1_555
C22_3 H10_3 1_555 1_555
C23_3 C22_3 1_555 1_555
H11_3 C23_3 1_555 1_555
C24_3 N2_3 1_555 1_555
C25_3 C16_3 1_555 1_555
C26_3 C21_3 1_555 1_555
H12_3 C26_3 1_555 1_555
C27_3 C8_3 1_555 1_555
C28_3 C14_3 1_555 1_555
C29_3 C30_3 1_555 1_555
C30_3 H13_3 1_555 1_555
C31_3 C30_3 1_555 1_555
H14_3 C31_3 1_555 1_555
C32_3 N2_3 1_555 1_555
C33_3 C32_3 1_555 1_555
H15_3 C33_3 1_555 1_555
C34_3 C29_3 1_555 1_555
H16_3 C34_3 1_555 1_555
C35_3 N1_3 1_555 1_555
C36_3 C35_3 1_555 1_555
H17_3 C36_3 1_555 1_555
C37_3 C36_3 1_555 1_555
H18_3 C37_3 1_555 1_555
C38_3 C29_3 1_555 1_555
C39_3 C38_3 1_555 1_555
H19_3 C39_3 1_555 1_555
C40_3 C35_3 1_555 1_555
H20_3 C40_3 1_555 1_555
Zn3_2 O3_2 1_555 1_555
Zn5_3 O7_3 1_555 1_555
Zn6_2 O4_2 1_555 1_555
Zn8_3 O8_3 1_555 1_555
O11_2 Zn1_2 1_555 1_555
O12_2 Zn2_2 1_555 1_555
O13_3 Zn1_2 1_555 1_555
O14_3 Zn2_2 1_555 1_555
O15_3 Zn1_2 1_555 1_555
O16_3 Zn2_2 1_555 1_555
C6_3 C7_3 1_555 1_555
C9_3 C10_3 1_555 1_555
C10_3 C11_3 1_555 1_555
C12_3 C13_3 1_555 1_555
C18_3 C19_3 1_555 1_555
C23_3 C24_3 1_555 1_555
C24_3 C25_3 1_555 1_555
C25_3 C26_3 1_555 1_555
C31_3 C32_3 1_555 1_555
C33_3 C34_3 1_555 1_555
C37_3 C38_3 1_555 1_555
C39_3 C40_3 1_555 1_555
O9_3 H21_3 1_555 1_555
O9_3 H22_3 1_555 1_555
O10_3 H23_3 1_555 1_555
O10_3 H24_3 1_555 1_555
Zn6_2 O2_4 1_555 1_555
O9_4 Zn6_2 1_555 1_555
O10_4 Zn3_2 1_555 1_555
O13_4 Zn3_2 1_555 1_555
O14_4 Zn6_2 1_555 1_555
O15_4 Zn3_2 1_555 1_555
O16_4 Zn6_2 1_555 1_555
O9_4 H21_4 1_555 1_555
O9_4 H22_4 1_555 1_555
O10_4 H23_4 1_555 1_555
O10_4 H24_4 1_555 1_555
O1_4 C20_4 1_555 1_555
O11_2 C27_4 1_555 1_555
O12_2 C27_4 1_555 1_555
O5_4 C1_4 1_555 1_555
O6_4 C1_4 1_555 1_555
O7_4 C28_4 1_555 1_555
O8_4 C28_4 1_555 1_555
N1_4 C5_4 1_555 1_555
N2_4 C17_4 1_555 1_555
C1_4 C2_4 1_555 1_555
C2_4 C3_4 1_555 1_555
C3_4 H1_4 1_555 1_555
C4_4 C3_4 1_555 1_555
C5_4 C4_4 1_555 1_555
C6_4 C5_4 1_555 1_555
H2_4 C6_4 1_555 1_555
C7_4 C2_4 1_555 1_555
H3_4 C7_4 1_555 1_555
C8_4 C9_4 1_555 1_555
C9_4 H4_4 1_555 1_555
C10_4 C4_4 1_555 1_555
C11_4 N1_4 1_555 1_555
C12_4 C11_4 1_555 1_555
H5_4 C12_4 1_555 1_555
C13_4 C8_4 1_555 1_555
H6_4 C13_4 1_555 1_555
C14_4 C15_4 1_555 1_555
C15_4 H7_4 1_555 1_555
C16_4 C15_4 1_555 1_555
C17_4 C16_4 1_555 1_555
C18_4 C17_4 1_555 1_555
H8_4 C18_4 1_555 1_555
C19_4 C14_4 1_555 1_555
H9_4 C19_4 1_555 1_555
C20_4 C21_4 1_555 1_555
C21_4 C22_4 1_555 1_555
C22_4 H10_4 1_555 1_555
C23_4 C22_4 1_555 1_555
H11_4 C23_4 1_555 1_555
C24_4 N2_4 1_555 1_555
C25_4 C16_4 1_555 1_555
C26_4 C21_4 1_555 1_555
H12_4 C26_4 1_555 1_555
C27_4 C8_4 1_555 1_555
C28_4 C14_4 1_555 1_555
C29_4 C30_4 1_555 1_555
C30_4 H13_4 1_555 1_555
C31_4 C30_4 1_555 1_555
H14_4 C31_4 1_555 1_555
C32_4 N2_4 1_555 1_555
C33_4 C32_4 1_555 1_555
H15_4 C33_4 1_555 1_555
C34_4 C29_4 1_555 1_555
H16_4 C34_4 1_555 1_555
C35_4 N1_4 1_555 1_555
C36_4 C35_4 1_555 1_555
H17_4 C36_4 1_555 1_555
C37_4 C36_4 1_555 1_555
H18_4 C37_4 1_555 1_555
C38_4 C29_4 1_555 1_555
C39_4 C38_4 1_555 1_555
H19_4 C39_4 1_555 1_555
C40_4 C35_4 1_555 1_555
H20_4 C40_4 1_555 1_555
Zn4_4 O5_4 1_555 1_555
Zn5_4 O7_4 1_555 1_555
Zn7_4 O6_4 1_555 1_555
Zn8_4 O8_4 1_555 1_555
C6_4 C7_4 1_555 1_555
C9_4 C10_4 1_555 1_555
C10_4 C11_4 1_555 1_555
C12_4 C13_4 1_555 1_555
C18_4 C19_4 1_555 1_555
C23_4 C24_4 1_555 1_555
C24_4 C25_4 1_555 1_555
C25_4 C26_4 1_555 1_555
C31_4 C32_4 1_555 1_555
C33_4 C34_4 1_555 1_555
C37_4 C38_4 1_555 1_555
C39_4 C40_4 1_555 1_555
O3_3 C27_5 1_555 1_555
O4_3 C27_5 1_555 1_555
C8_5 C9_5 1_555 1_555
C9_5 H4_5 1_555 1_555
H5_5 C12_5 1_555 1_555
C13_5 C8_5 1_555 1_555
H6_5 C13_5 1_555 1_555
C27_5 C8_5 1_555 1_555
Zn3_3 O3_3 1_555 1_555
Zn6_3 O4_3 1_555 1_555
C12_5 C13_5 1_555 1_555
O1_5 C20_5 1_555 1_555
O13 C1_5 1_555 1_555
O14 C1_5 1_555 1_555
O7_5 C28_5 1_555 1_555
O8_5 C28_5 1_555 1_555
N1_5 C5_5 1_555 1_555
N2_5 C17_5 1_555 1_555
C1_5 C2_5 1_555 1_555
C2_5 C3_5 1_555 1_555
C3_5 H1_5 1_555 1_555
C4_5 C3_5 1_555 1_555
C5_5 C4_5 1_555 1_555
C6_5 C5_5 1_555 1_555
H2_5 C6_5 1_555 1_555
C7_5 C2_5 1_555 1_555
H3_5 C7_5 1_555 1_555
C10_5 C4_5 1_555 1_555
C11_5 N1_5 1_555 1_555
C14_5 C15_5 1_555 1_555
C15_5 H7_5 1_555 1_555
C16_5 C15_5 1_555 1_555
C17_5 C16_5 1_555 1_555
C18_5 C17_5 1_555 1_555
H8_5 C18_5 1_555 1_555
C19_5 C14_5 1_555 1_555
H9_5 C19_5 1_555 1_555
C20_5 C21_5 1_555 1_555
C21_5 C22_5 1_555 1_555
C22_5 H10_5 1_555 1_555
C23_5 C22_5 1_555 1_555
H11_5 C23_5 1_555 1_555
C24_5 N2_5 1_555 1_555
C25_5 C16_5 1_555 1_555
C26_5 C21_5 1_555 1_555
H12_5 C26_5 1_555 1_555
C28_5 C14_5 1_555 1_555
C29_5 C30_5 1_555 1_555
C31_5 C30_5 1_555 1_555
H14_5 C31_5 1_555 1_555
C32_5 N2_5 1_555 1_555
C33_5 C32_5 1_555 1_555
H15_5 C33_5 1_555 1_555
C34_5 C29_5 1_555 1_555
H16_5 C34_5 1_555 1_555
C35_5 N1_5 1_555 1_555
C36_5 C35_5 1_555 1_555
H17_5 C36_5 1_555 1_555
C37_5 C36_5 1_555 1_555
H18_5 C37_5 1_555 1_555
C38_5 C29_5 1_555 1_555
C39_5 C38_5 1_555 1_555
C40_5 C35_5 1_555 1_555
Zn5_5 O7_5 1_555 1_555
Zn8_5 O8_5 1_555 1_555
C6_5 C7_5 1_555 1_555
C10_5 C11_5 1_555 1_555
C18_5 C19_5 1_555 1_555
C23_5 C24_5 1_555 1_555
C24_5 C25_5 1_555 1_555
C25_5 C26_5 1_555 1_555
C31_5 C32_5 1_555 1_555
C33_5 C34_5 1_555 1_555
C37_5 C38_5 1_555 1_555
C39_5 C40_5 1_555 1_555
Zn2_3 O2_5 1_555 1_555
O9_5 Zn2_3 1_555 1_555
O10_5 Zn1_3 1_555 1_555
O11_3 Zn1_3 1_555 1_555
O12_3 Zn2_3 1_555 1_555
O15_5 Zn1_3 1_555 1_555
O16_5 Zn2_3 1_555 1_555
O9_5 H21_5 1_555 1_555
O9_5 H22_5 1_555 1_555
O10_5 H23_5 1_555 1_555
O10_5 H24_5 1_555 1_555
Zn3_3 O1_6 1_555 1_555
Zn6_3 O2_6 1_555 1_555
O1_6 C20_6 1_555 1_555
O2_6 C20_6 1_555 1_555
O13_4 C1_6 1_555 1_555
O14_4 C1_6 1_555 1_555
O7_6 C28_6 1_555 1_555
O8_6 C28_6 1_555 1_555
O9_6 Zn6_3 1_555 1_555
O10_6 Zn3_3 1_555 1_555
N1_6 C5_6 1_555 1_555
N2_6 C17_6 1_555 1_555
C1_6 C2_6 1_555 1_555
C2_6 C3_6 1_555 1_555
C3_6 H1_6 1_555 1_555
C4_6 C3_6 1_555 1_555
C5_6 C4_6 1_555 1_555
C6_6 C5_6 1_555 1_555
H2_6 C6_6 1_555 1_555
C7_6 C2_6 1_555 1_555
H3_6 C7_6 1_555 1_555
C10_6 C4_6 1_555 1_555
C11_6 N1_6 1_555 1_555
C14_6 C15_6 1_555 1_555
C15_6 H7_6 1_555 1_555
C16_6 C15_6 1_555 1_555
C17_6 C16_6 1_555 1_555
C18_6 C17_6 1_555 1_555
H8_6 C18_6 1_555 1_555
C19_6 C14_6 1_555 1_555
H9_6 C19_6 1_555 1_555
C20_6 C21_6 1_555 1_555
C21_6 C22_6 1_555 1_555
C22_6 H10_6 1_555 1_555
C23_6 C22_6 1_555 1_555
H11_6 C23_6 1_555 1_555
C24_6 N2_6 1_555 1_555
C25_6 C16_6 1_555 1_555
C26_6 C21_6 1_555 1_555
H12_6 C26_6 1_555 1_555
C28_6 C14_6 1_555 1_555
C29_6 C30_6 1_555 1_555
C31_6 C30_6 1_555 1_555
H14_6 C31_6 1_555 1_555
C32_6 N2_6 1_555 1_555
C33_6 C32_6 1_555 1_555
H15_6 C33_6 1_555 1_555
C34_6 C29_6 1_555 1_555
H16_6 C34_6 1_555 1_555
C35_6 N1_6 1_555 1_555
C36_6 C35_6 1_555 1_555
H17_6 C36_6 1_555 1_555
C37_6 C36_6 1_555 1_555
H18_6 C37_6 1_555 1_555
C38_6 C29_6 1_555 1_555
C39_6 C38_6 1_555 1_555
C40_6 C35_6 1_555 1_555
Zn5_6 O7_6 1_555 1_555
Zn8_6 O8_6 1_555 1_555
O15_6 Zn3_3 1_555 1_555
O16_6 Zn6_3 1_555 1_555
C6_6 C7_6 1_555 1_555
C10_6 C11_6 1_555 1_555
C18_6 C19_6 1_555 1_555
C23_6 C24_6 1_555 1_555
C24_6 C25_6 1_555 1_555
C25_6 C26_6 1_555 1_555
C31_6 C32_6 1_555 1_555
C33_6 C34_6 1_555 1_555
C37_6 C38_6 1_555 1_555
C39_6 C40_6 1_555 1_555
O9_6 H21_6 1_555 1_555
O9_6 H22_6 1_555 1_555
O10_6 H23_6 1_555 1_555
O10_6 H24_6 1_555 1_555
O11_3 C27_6 1_555 1_555
O12_3 C27_6 1_555 1_555
C8_6 C9_6 1_555 1_555
C9_6 H4_6 1_555 1_555
H5_6 C12_6 1_555 1_555
C13_6 C8_6 1_555 1_555
H6_6 C13_6 1_555 1_555
C27_6 C8_6 1_555 1_555
C12_6 C13_6 1_555 1_555
Zn1_4 O1_7 1_555 1_555
Zn2_4 O2_7 1_555 1_555
O1_7 C20_7 1_555 1_555
O2_7 C20_7 1_555 1_555
O3_4 C27_7 1_555 1_555
O4_4 C27_7 1_555 1_555
O13_2 C1_7 1_555 1_555
O14_2 C1_7 1_555 1_555
O7_7 C28_7 1_555 1_555
O8_7 C28_7 1_555 1_555
O9_7 Zn2_4 1_555 1_555
O10_7 Zn1_4 1_555 1_555
N1_7 C5_7 1_555 1_555
N2_7 C17_7 1_555 1_555
C1_7 C2_7 1_555 1_555
C2_7 C3_7 1_555 1_555
C3_7 H1_7 1_555 1_555
C4_7 C3_7 1_555 1_555
C5_7 C4_7 1_555 1_555
C6_7 C5_7 1_555 1_555
H2_7 C6_7 1_555 1_555
C7_7 C2_7 1_555 1_555
H3_7 C7_7 1_555 1_555
C8_7 C9_7 1_555 1_555
C9_7 H4_7 1_555 1_555
C10_7 C4_7 1_555 1_555
C11_7 N1_7 1_555 1_555
C12_7 C11_7 1_555 1_555
H5_7 C12_7 1_555 1_555
C13_7 C8_7 1_555 1_555
H6_7 C13_7 1_555 1_555
C14_7 C15_7 1_555 1_555
C15_7 H7_7 1_555 1_555
C16_7 C15_7 1_555 1_555
C17_7 C16_7 1_555 1_555
C18_7 C17_7 1_555 1_555
H8_7 C18_7 1_555 1_555
C19_7 C14_7 1_555 1_555
H9_7 C19_7 1_555 1_555
C20_7 C21_7 1_555 1_555
C21_7 C22_7 1_555 1_555
C22_7 H10_7 1_555 1_555
C23_7 C22_7 1_555 1_555
H11_7 C23_7 1_555 1_555
C24_7 N2_7 1_555 1_555
C25_7 C16_7 1_555 1_555
C26_7 C21_7 1_555 1_555
H12_7 C26_7 1_555 1_555
C27_7 C8_7 1_555 1_555
C28_7 C14_7 1_555 1_555
C29_7 C30_7 1_555 1_555
C30_7 H13_7 1_555 1_555
C31_7 C30_7 1_555 1_555
H14_7 C31_7 1_555 1_555
C32_7 N2_7 1_555 1_555
C33_7 C32_7 1_555 1_555
H15_7 C33_7 1_555 1_555
C34_7 C29_7 1_555 1_555
H16_7 C34_7 1_555 1_555
C35_7 N1_7 1_555 1_555
C36_7 C35_7 1_555 1_555
H17_7 C36_7 1_555 1_555
C37_7 C36_7 1_555 1_555
H18_7 C37_7 1_555 1_555
C38_7 C29_7 1_555 1_555
C39_7 C38_7 1_555 1_555
H19_7 C39_7 1_555 1_555
C40_7 C35_7 1_555 1_555
H20_7 C40_7 1_555 1_555
Zn3_4 O3_4 1_555 1_555
Zn5_7 O7_7 1_555 1_555
Zn6_4 O4_4 1_555 1_555
Zn8_7 O8_7 1_555 1_555
O11_4 Zn1_4 1_555 1_555
O12_4 Zn2_4 1_555 1_555
O13_7 Zn1_4 1_555 1_555
O14_7 Zn2_4 1_555 1_555
O15_7 Zn1_4 1_555 1_555
O16_7 Zn2_4 1_555 1_555
C6_7 C7_7 1_555 1_555
C9_7 C10_7 1_555 1_555
C10_7 C11_7 1_555 1_555
C12_7 C13_7 1_555 1_555
C18_7 C19_7 1_555 1_555
C23_7 C24_7 1_555 1_555
C24_7 C25_7 1_555 1_555
C25_7 C26_7 1_555 1_555
C31_7 C32_7 1_555 1_555
C33_7 C34_7 1_555 1_555
C37_7 C38_7 1_555 1_555
C39_7 C40_7 1_555 1_555
O9_7 H21_7 1_555 1_555
O9_7 H22_7 1_555 1_555
O10_7 H23_7 1_555 1_555
O10_7 H24_7 1_555 1_555
Zn6_4 O2_8 1_555 1_555
O9_8 Zn6_4 1_555 1_555
O10_8 Zn3_4 1_555 1_555
O13_8 Zn3_4 1_555 1_555
O14_8 Zn6_4 1_555 1_555
O15_8 Zn3_4 1_555 1_555
O16_8 Zn6_4 1_555 1_555
O9_8 H21_8 1_555 1_555
O9_8 H22_8 1_555 1_555
O10_8 H23_8 1_555 1_555
O10_8 H24_8 1_555 1_555
O1_8 C20_8 1_555 1_555
O11_4 C27_8 1_555 1_555
O12_4 C27_8 1_555 1_555
O13_3 C1_8 1_555 1_555
O14_3 C1_8 1_555 1_555
O7_8 C28_8 1_555 1_555
O8_8 C28_8 1_555 1_555
N1_8 C5_8 1_555 1_555
N2_8 C17_8 1_555 1_555
C1_8 C2_8 1_555 1_555
C2_8 C3_8 1_555 1_555
C3_8 H1_8 1_555 1_555
C4_8 C3_8 1_555 1_555
C5_8 C4_8 1_555 1_555
C6_8 C5_8 1_555 1_555
H2_8 C6_8 1_555 1_555
C7_8 C2_8 1_555 1_555
H3_8 C7_8 1_555 1_555
C8_8 C9_8 1_555 1_555
C9_8 H4_8 1_555 1_555
C10_8 C4_8 1_555 1_555
C11_8 N1_8 1_555 1_555
C12_8 C11_8 1_555 1_555
H5_8 C12_8 1_555 1_555
C13_8 C8_8 1_555 1_555
H6_8 C13_8 1_555 1_555
C14_8 C15_8 1_555 1_555
C15_8 H7_8 1_555 1_555
C16_8 C15_8 1_555 1_555
C17_8 C16_8 1_555 1_555
C18_8 C17_8 1_555 1_555
H8_8 C18_8 1_555 1_555
C19_8 C14_8 1_555 1_555
H9_8 C19_8 1_555 1_555
C20_8 C21_8 1_555 1_555
C21_8 C22_8 1_555 1_555
C22_8 H10_8 1_555 1_555
C23_8 C22_8 1_555 1_555
H11_8 C23_8 1_555 1_555
C24_8 N2_8 1_555 1_555
C25_8 C16_8 1_555 1_555
C26_8 C21_8 1_555 1_555
H12_8 C26_8 1_555 1_555
C27_8 C8_8 1_555 1_555
C28_8 C14_8 1_555 1_555
C29_8 C30_8 1_555 1_555
C30_8 H13_8 1_555 1_555
C31_8 C30_8 1_555 1_555
H14_8 C31_8 1_555 1_555
C32_8 N2_8 1_555 1_555
C33_8 C32_8 1_555 1_555
H15_8 C33_8 1_555 1_555
C34_8 C29_8 1_555 1_555
H16_8 C34_8 1_555 1_555
C35_8 N1_8 1_555 1_555
C36_8 C35_8 1_555 1_555
H17_8 C36_8 1_555 1_555
C37_8 C36_8 1_555 1_555
H18_8 C37_8 1_555 1_555
C38_8 C29_8 1_555 1_555
C39_8 C38_8 1_555 1_555
H19_8 C39_8 1_555 1_555
C40_8 C35_8 1_555 1_555
H20_8 C40_8 1_555 1_555
Zn5_8 O7_8 1_555 1_555
Zn8_8 O8_8 1_555 1_555
C6_8 C7_8 1_555 1_555
C9_8 C10_8 1_555 1_555
C10_8 C11_8 1_555 1_555
C12_8 C13_8 1_555 1_555
C18_8 C19_8 1_555 1_555
C23_8 C24_8 1_555 1_555
C24_8 C25_8 1_555 1_555
C25_8 C26_8 1_555 1_555
C31_8 C32_8 1_555 1_555
C33_8 C34_8 1_555 1_555
C37_8 C38_8 1_555 1_555
C39_8 C40_8 1_555 1_555
O3_5 C27_9 1_555 1_555
O4_5 C27_9 1_555 1_555
C8_9 C9_9 1_555 1_555
C9_9 H4_9 1_555 1_555
H5_9 C12_9 1_555 1_555
C13_9 C8_9 1_555 1_555
H6_9 C13_9 1_555 1_555
C27_9 C8_9 1_555 1_555
Zn4_3 O3_5 1_555 1_555
Zn7_3 O4_5 1_555 1_555
C12_9 C13_9 1_555 1_555
O1_9 C20_9 1_555 1_555
O13_5 C1_9 1_555 1_555
O14_5 C1_9 1_555 1_555
O7_9 C28_9 1_555 1_555
O8_9 C28_9 1_555 1_555
N1_9 C5_9 1_555 1_555
N2_9 C17_9 1_555 1_555
C1_9 C2_9 1_555 1_555
C2_9 C3_9 1_555 1_555
C3_9 H1_9 1_555 1_555
C4_9 C3_9 1_555 1_555
C5_9 C4_9 1_555 1_555
C6_9 C5_9 1_555 1_555
H2_9 C6_9 1_555 1_555
C7_9 C2_9 1_555 1_555
H3_9 C7_9 1_555 1_555
C10_9 C4_9 1_555 1_555
C11_9 N1_9 1_555 1_555
C14_9 C15_9 1_555 1_555
C15_9 H7_9 1_555 1_555
C16_9 C15_9 1_555 1_555
C17_9 C16_9 1_555 1_555
C18_9 C17_9 1_555 1_555
H8_9 C18_9 1_555 1_555
C19_9 C14_9 1_555 1_555
H9_9 C19_9 1_555 1_555
C20_9 C21_9 1_555 1_555
C21_9 C22_9 1_555 1_555
C22_9 H10_9 1_555 1_555
C23_9 C22_9 1_555 1_555
H11_9 C23_9 1_555 1_555
C24_9 N2_9 1_555 1_555
C25_9 C16_9 1_555 1_555
C26_9 C21_9 1_555 1_555
H12_9 C26_9 1_555 1_555
C28_9 C14_9 1_555 1_555
C29_9 C30_9 1_555 1_555
C31_9 C30_9 1_555 1_555
H14_9 C31_9 1_555 1_555
C32_9 N2_9 1_555 1_555
C33_9 C32_9 1_555 1_555
H15_9 C33_9 1_555 1_555
C34_9 C29_9 1_555 1_555
H16_9 C34_9 1_555 1_555
C35_9 N1_9 1_555 1_555
C36_9 C35_9 1_555 1_555
H17_9 C36_9 1_555 1_555
C37_9 C36_9 1_555 1_555
H18_9 C37_9 1_555 1_555
C38_9 C29_9 1_555 1_555
C39_9 C38_9 1_555 1_555
C40_9 C35_9 1_555 1_555
Zn5_9 O7_9 1_555 1_555
Zn8_9 O8_9 1_555 1_555
C6_9 C7_9 1_555 1_555
C10_9 C11_9 1_555 1_555
C18_9 C19_9 1_555 1_555
C23_9 C24_9 1_555 1_555
C24_9 C25_9 1_555 1_555
C25_9 C26_9 1_555 1_555
C31_9 C32_9 1_555 1_555
C33_9 C34_9 1_555 1_555
C37_9 C38_9 1_555 1_555
C39_9 C40_9 1_555 1_555
Zn7 O2_9 1_555 1_555
O9_9 Zn7 1_555 1_555
O10_9 Zn4 1_555 1_555
O11_5 Zn4 1_555 1_555
O12_5 Zn7 1_555 1_555
O15_9 Zn4 1_555 1_555
O16_9 Zn7 1_555 1_555
O9_9 H21_9 1_555 1_555
O9_9 H22_9 1_555 1_555
O10_9 H23_9 1_555 1_555
O10_9 H24_9 1_555 1_555
Zn4_3 O1_10 1_555 1_555
Zn7_3 O2_10 1_555 1_555
O1_10 C20_10 1_555 1_555
O2_10 C20_10 1_555 1_555
O13_8 C1_10 1_555 1_555
O14_8 C1_10 1_555 1_555
O7_10 C28_10 1_555 1_555
O8_10 C28_10 1_555 1_555
O9_10 Zn7_3 1_555 1_555
O10_10 Zn4_3 1_555 1_555
N1_10 C5_10 1_555 1_555
N2_10 C17_10 1_555 1_555
C1_10 C2_10 1_555 1_555
C2_10 C3_10 1_555 1_555
C3_10 H1_10 1_555 1_555
C4_10 C3_10 1_555 1_555
C5_10 C4_10 1_555 1_555
C6_10 C5_10 1_555 1_555
H2_10 C6_10 1_555 1_555
C7_10 C2_10 1_555 1_555
H3_10 C7_10 1_555 1_555
C10_10 C4_10 1_555 1_555
C11_10 N1_10 1_555 1_555
C14_10 C15_10 1_555 1_555
C15_10 H7_10 1_555 1_555
C16_10 C15_10 1_555 1_555
C17_10 C16_10 1_555 1_555
C18_10 C17_10 1_555 1_555
H8_10 C18_10 1_555 1_555
C19_10 C14_10 1_555 1_555
H9_10 C19_10 1_555 1_555
C20_10 C21_10 1_555 1_555
C21_10 C22_10 1_555 1_555
C22_10 H10_10 1_555 1_555
C23_10 C22_10 1_555 1_555
H11_10 C23_10 1_555 1_555
C24_10 N2_10 1_555 1_555
C25_10 C16_10 1_555 1_555
C26_10 C21_10 1_555 1_555
H12_10 C26_10 1_555 1_555
C28_10 C14_10 1_555 1_555
C29_10 C30_10 1_555 1_555
C31_10 C30_10 1_555 1_555
H14_10 C31_10 1_555 1_555
C32_10 N2_10 1_555 1_555
C33_10 C32_10 1_555 1_555
H15_10 C33_10 1_555 1_555
C34_10 C29_10 1_555 1_555
H16_10 C34_10 1_555 1_555
C35_10 N1_10 1_555 1_555
C36_10 C35_10 1_555 1_555
H17_10 C36_10 1_555 1_555
C37_10 C36_10 1_555 1_555
H18_10 C37_10 1_555 1_555
C38_10 C29_10 1_555 1_555
C39_10 C38_10 1_555 1_555
C40_10 C35_10 1_555 1_555
Zn5_10 O7_10 1_555 1_555
Zn8_10 O8_10 1_555 1_555
O15_10 Zn4_3 1_555 1_555
O16_10 Zn7_3 1_555 1_555
C6_10 C7_10 1_555 1_555
C10_10 C11_10 1_555 1_555
C18_10 C19_10 1_555 1_555
C23_10 C24_10 1_555 1_555
C24_10 C25_10 1_555 1_555
C25_10 C26_10 1_555 1_555
C31_10 C32_10 1_555 1_555
C33_10 C34_10 1_555 1_555
C37_10 C38_10 1_555 1_555
C39_10 C40_10 1_555 1_555
O9_10 H21_10 1_555 1_555
O9_10 H22_10 1_555 1_555
O10_10 H23_10 1_555 1_555
O10_10 H24_10 1_555 1_555
O11_5 C27_10 1_555 1_555
O12_5 C27_10 1_555 1_555
C8_10 C9_10 1_555 1_555
C9_10 H4_10 1_555 1_555
H5_10 C12_10 1_555 1_555
C13_10 C8_10 1_555 1_555
H6_10 C13_10 1_555 1_555
C27_10 C8_10 1_555 1_555
C12_10 C13_10 1_555 1_555
Zn4_4 O1_11 1_555 1_555
Zn7_4 O2_11 1_555 1_555
O1_11 C20_11 1_555 1_555
O2_11 C20_11 1_555 1_555
O3_6 C27_11 1_555 1_555
O4_6 C27_11 1_555 1_555
O13_6 C1_11 1_555 1_555
O14_6 C1_11 1_555 1_555
O7_11 C28_11 1_555 1_555
O8_11 C28_11 1_555 1_555
O9_11 Zn7_4 1_555 1_555
O10_11 Zn4_4 1_555 1_555
N1_11 C5_11 1_555 1_555
N2_11 C17_11 1_555 1_555
C1_11 C2_11 1_555 1_555
C2_11 C3_11 1_555 1_555
C3_11 H1_11 1_555 1_555
C4_11 C3_11 1_555 1_555
C5_11 C4_11 1_555 1_555
C6_11 C5_11 1_555 1_555
H2_11 C6_11 1_555 1_555
C7_11 C2_11 1_555 1_555
H3_11 C7_11 1_555 1_555
C8_11 C9_11 1_555 1_555
C9_11 H4_11 1_555 1_555
C10_11 C4_11 1_555 1_555
C11_11 N1_11 1_555 1_555
C12_11 C11_11 1_555 1_555
H5_11 C12_11 1_555 1_555
C13_11 C8_11 1_555 1_555
H6_11 C13_11 1_555 1_555
C14_11 C15_11 1_555 1_555
C15_11 H7_11 1_555 1_555
C16_11 C15_11 1_555 1_555
C17_11 C16_11 1_555 1_555
C18_11 C17_11 1_555 1_555
H8_11 C18_11 1_555 1_555
C19_11 C14_11 1_555 1_555
H9_11 C19_11 1_555 1_555
C20_11 C21_11 1_555 1_555
C21_11 C22_11 1_555 1_555
C22_11 H10_11 1_555 1_555
C23_11 C22_11 1_555 1_555
H11_11 C23_11 1_555 1_555
C24_11 N2_11 1_555 1_555
C25_11 C16_11 1_555 1_555
C26_11 C21_11 1_555 1_555
H12_11 C26_11 1_555 1_555
C27_11 C8_11 1_555 1_555
C28_11 C14_11 1_555 1_555
C29_11 C30_11 1_555 1_555
C30_11 H13_11 1_555 1_555
C31_11 C30_11 1_555 1_555
H14_11 C31_11 1_555 1_555
C32_11 N2_11 1_555 1_555
C33_11 C32_11 1_555 1_555
H15_11 C33_11 1_555 1_555
C34_11 C29_11 1_555 1_555
H16_11 C34_11 1_555 1_555
C35_11 N1_11 1_555 1_555
C36_11 C35_11 1_555 1_555
H17_11 C36_11 1_555 1_555
C37_11 C36_11 1_555 1_555
H18_11 C37_11 1_555 1_555
C38_11 C29_11 1_555 1_555
C39_11 C38_11 1_555 1_555
H19_11 C39_11 1_555 1_555
C40_11 C35_11 1_555 1_555
H20_11 C40_11 1_555 1_555
Zn4_2 O3_6 1_555 1_555
Zn5_11 O7_11 1_555 1_555
Zn7_2 O4_6 1_555 1_555
Zn8_11 O8_11 1_555 1_555
O11_6 Zn4_4 1_555 1_555
O12_6 Zn7_4 1_555 1_555
O15_11 Zn4_4 1_555 1_555
O16_11 Zn7_4 1_555 1_555
C6_11 C7_11 1_555 1_555
C9_11 C10_11 1_555 1_555
C10_11 C11_11 1_555 1_555
C12_11 C13_11 1_555 1_555
C18_11 C19_11 1_555 1_555
C23_11 C24_11 1_555 1_555
C24_11 C25_11 1_555 1_555
C25_11 C26_11 1_555 1_555
C31_11 C32_11 1_555 1_555
C33_11 C34_11 1_555 1_555
C37_11 C38_11 1_555 1_555
C39_11 C40_11 1_555 1_555
O9_11 H21_11 1_555 1_555
O9_11 H22_11 1_555 1_555
O10_11 H23_11 1_555 1_555
O10_11 H24_11 1_555 1_555
Zn7_2 O2_12 1_555 1_555
O9_12 Zn7_2 1_555 1_555
O10_12 Zn4_2 1_555 1_555
O15_12 Zn4_2 1_555 1_555
O16_12 Zn7_2 1_555 1_555
O9_12 H21_12 1_555 1_555
O9_12 H22_12 1_555 1_555
O10_12 H23_12 1_555 1_555
O10_12 H24_12 1_555 1_555
O1_12 C20_12 1_555 1_555
O11_6 C27_12 1_555 1_555
O12_6 C27_12 1_555 1_555
O13_7 C1_12 1_555 1_555
O14_7 C1_12 1_555 1_555
O7_12 C28_12 1_555 1_555
O8_12 C28_12 1_555 1_555
N1_12 C5_12 1_555 1_555
N2_12 C17_12 1_555 1_555
C1_12 C2_12 1_555 1_555
C2_12 C3_12 1_555 1_555
C3_12 H1_12 1_555 1_555
C4_12 C3_12 1_555 1_555
C5_12 C4_12 1_555 1_555
C6_12 C5_12 1_555 1_555
H2_12 C6_12 1_555 1_555
C7_12 C2_12 1_555 1_555
H3_12 C7_12 1_555 1_555
C8_12 C9_12 1_555 1_555
C9_12 H4_12 1_555 1_555
C10_12 C4_12 1_555 1_555
C11_12 N1_12 1_555 1_555
C12_12 C11_12 1_555 1_555
H5_12 C12_12 1_555 1_555
C13_12 C8_12 1_555 1_555
H6_12 C13_12 1_555 1_555
C14_12 C15_12 1_555 1_555
C15_12 H7_12 1_555 1_555
C16_12 C15_12 1_555 1_555
C17_12 C16_12 1_555 1_555
C18_12 C17_12 1_555 1_555
H8_12 C18_12 1_555 1_555
C19_12 C14_12 1_555 1_555
H9_12 C19_12 1_555 1_555
C20_12 C21_12 1_555 1_555
C21_12 C22_12 1_555 1_555
C22_12 H10_12 1_555 1_555
C23_12 C22_12 1_555 1_555
H11_12 C23_12 1_555 1_555
C24_12 N2_12 1_555 1_555
C25_12 C16_12 1_555 1_555
C26_12 C21_12 1_555 1_555
H12_12 C26_12 1_555 1_555
C27_12 C8_12 1_555 1_555
C28_12 C14_12 1_555 1_555
C29_12 C30_12 1_555 1_555
C30_12 H13_12 1_555 1_555
C31_12 C30_12 1_555 1_555
H14_12 C31_12 1_555 1_555
C32_12 N2_12 1_555 1_555
C33_12 C32_12 1_555 1_555
H15_12 C33_12 1_555 1_555
C34_12 C29_12 1_555 1_555
H16_12 C34_12 1_555 1_555
C35_12 N1_12 1_555 1_555
C36_12 C35_12 1_555 1_555
H17_12 C36_12 1_555 1_555
C37_12 C36_12 1_555 1_555
H18_12 C37_12 1_555 1_555
C38_12 C29_12 1_555 1_555
C39_12 C38_12 1_555 1_555
H19_12 C39_12 1_555 1_555
C40_12 C35_12 1_555 1_555
H20_12 C40_12 1_555 1_555
Zn5_12 O7_12 1_555 1_555
Zn8_12 O8_12 1_555 1_555
C6_12 C7_12 1_555 1_555
C9_12 C10_12 1_555 1_555
C10_12 C11_12 1_555 1_555
C12_12 C13_12 1_555 1_555
C18_12 C19_12 1_555 1_555
C23_12 C24_12 1_555 1_555
C24_12 C25_12 1_555 1_555
C25_12 C26_12 1_555 1_555
C31_12 C32_12 1_555 1_555
C33_12 C34_12 1_555 1_555
C37_12 C38_12 1_555 1_555
C39_12 C40_12 1_555 1_555
Zn8_6 O2_13 1_555 1_555
O9_13 Zn8_6 1_555 1_555
O10_13 Zn5_6 1_555 1_555
O11_7 Zn5_6 1_555 1_555
O12_7 Zn8_6 1_555 1_555
O9_13 H21_13 1_555 1_555
O9_13 H22_13 1_555 1_555
O10_13 H23_13 1_555 1_555
O10_13 H24_13 1_555 1_555
O1_13 C20_13 1_555 1_555
O5_5 C1_13 1_555 1_555
O6_5 C1_13 1_555 1_555
O15_12 C28_13 1_555 1_555
O16_12 C28_13 1_555 1_555
N1_13 C5_13 1_555 1_555
N2_13 C17_13 1_555 1_555
C1_13 C2_13 1_555 1_555
C2_13 C3_13 1_555 1_555
C3_13 H1_13 1_555 1_555
C4_13 C3_13 1_555 1_555
C5_13 C4_13 1_555 1_555
C6_13 C5_13 1_555 1_555
H2_13 C6_13 1_555 1_555
C7_13 C2_13 1_555 1_555
H3_13 C7_13 1_555 1_555
C10_13 C4_13 1_555 1_555
C11_13 N1_13 1_555 1_555
C14_13 C15_13 1_555 1_555
C15_13 H7_13 1_555 1_555
C16_13 C15_13 1_555 1_555
C17_13 C16_13 1_555 1_555
C18_13 C17_13 1_555 1_555
H8_13 C18_13 1_555 1_555
C19_13 C14_13 1_555 1_555
H9_13 C19_13 1_555 1_555
C20_13 C21_13 1_555 1_555
C21_13 C22_13 1_555 1_555
C22_13 H10_13 1_555 1_555
C23_13 C22_13 1_555 1_555
H11_13 C23_13 1_555 1_555
C24_13 N2_13 1_555 1_555
C25_13 C16_13 1_555 1_555
C26_13 C21_13 1_555 1_555
H12_13 C26_13 1_555 1_555
C28_13 C14_13 1_555 1_555
C29_13 C30_13 1_555 1_555
C31_13 C30_13 1_555 1_555
H14_13 C31_13 1_555 1_555
C32_13 N2_13 1_555 1_555
C33_13 C32_13 1_555 1_555
H15_13 C33_13 1_555 1_555
C34_13 C29_13 1_555 1_555
H16_13 C34_13 1_555 1_555
C35_13 N1_13 1_555 1_555
C36_13 C35_13 1_555 1_555
H17_13 C36_13 1_555 1_555
C37_13 C36_13 1_555 1_555
H18_13 C37_13 1_555 1_555
C38_13 C29_13 1_555 1_555
C39_13 C38_13 1_555 1_555
C40_13 C35_13 1_555 1_555
C6_13 C7_13 1_555 1_555
C10_13 C11_13 1_555 1_555
C18_13 C19_13 1_555 1_555
C23_13 C24_13 1_555 1_555
C24_13 C25_13 1_555 1_555
C25_13 C26_13 1_555 1_555
C31_13 C32_13 1_555 1_555
C33_13 C34_13 1_555 1_555
C37_13 C38_13 1_555 1_555
C39_13 C40_13 1_555 1_555
O3_7 C27_13 1_555 1_555
O4_7 C27_13 1_555 1_555
C8_13 C9_13 1_555 1_555
C9_13 H4_13 1_555 1_555
H5_13 C12_13 1_555 1_555
C13_13 C8_13 1_555 1_555
H6_13 C13_13 1_555 1_555
C27_13 C8_13 1_555 1_555
Zn5_8 O3_7 1_555 1_555
Zn8_8 O4_7 1_555 1_555
C12_13 C13_13 1_555 1_555
O11_7 C27_14 1_555 1_555
O12_7 C27_14 1_555 1_555
C8_14 C9_14 1_555 1_555
C9_14 H4_14 1_555 1_555
H5_14 C12_14 1_555 1_555
C13_14 C8_14 1_555 1_555
H6_14 C13_14 1_555 1_555
C27_14 C8_14 1_555 1_555
C12_14 C13_14 1_555 1_555
Zn5_8 O1_14 1_555 1_555
Zn8_8 O2_14 1_555 1_555
O1_14 C20_14 1_555 1_555
O2_14 C20_14 1_555 1_555
O5_6 C1_14 1_555 1_555
O6_6 C1_14 1_555 1_555
O15_9 C28_14 1_555 1_555
O16_9 C28_14 1_555 1_555
O9_14 Zn8_8 1_555 1_555
O10_14 Zn5_8 1_555 1_555
N1_14 C5_14 1_555 1_555
N2_14 C17_14 1_555 1_555
C1_14 C2_14 1_555 1_555
C2_14 C3_14 1_555 1_555
C3_14 H1_14 1_555 1_555
C4_14 C3_14 1_555 1_555
C5_14 C4_14 1_555 1_555
C6_14 C5_14 1_555 1_555
H2_14 C6_14 1_555 1_555
C7_14 C2_14 1_555 1_555
H3_14 C7_14 1_555 1_555
C10_14 C4_14 1_555 1_555
C11_14 N1_14 1_555 1_555
C14_14 C15_14 1_555 1_555
C15_14 H7_14 1_555 1_555
C16_14 C15_14 1_555 1_555
C17_14 C16_14 1_555 1_555
C18_14 C17_14 1_555 1_555
H8_14 C18_14 1_555 1_555
C19_14 C14_14 1_555 1_555
H9_14 C19_14 1_555 1_555
C20_14 C21_14 1_555 1_555
C21_14 C22_14 1_555 1_555
C22_14 H10_14 1_555 1_555
C23_14 C22_14 1_555 1_555
H11_14 C23_14 1_555 1_555
C24_14 N2_14 1_555 1_555
C25_14 C16_14 1_555 1_555
C26_14 C21_14 1_555 1_555
H12_14 C26_14 1_555 1_555
C28_14 C14_14 1_555 1_555
C29_14 C30_14 1_555 1_555
C31_14 C30_14 1_555 1_555
H14_14 C31_14 1_555 1_555
C32_14 N2_14 1_555 1_555
C33_14 C32_14 1_555 1_555
H15_14 C33_14 1_555 1_555
C34_14 C29_14 1_555 1_555
H16_14 C34_14 1_555 1_555
C35_14 N1_14 1_555 1_555
C36_14 C35_14 1_555 1_555
H17_14 C36_14 1_555 1_555
C37_14 C36_14 1_555 1_555
H18_14 C37_14 1_555 1_555
C38_14 C29_14 1_555 1_555
C39_14 C38_14 1_555 1_555
C40_14 C35_14 1_555 1_555
Zn5 O5_6 1_555 1_555
Zn8 O6_6 1_555 1_555
C6_14 C7_14 1_555 1_555
C10_14 C11_14 1_555 1_555
C18_14 C19_14 1_555 1_555
C23_14 C24_14 1_555 1_555
C24_14 C25_14 1_555 1_555
C25_14 C26_14 1_555 1_555
C31_14 C32_14 1_555 1_555
C33_14 C34_14 1_555 1_555
C37_14 C38_14 1_555 1_555
C39_14 C40_14 1_555 1_555
O9_14 H21_14 1_555 1_555
O9_14 H22_14 1_555 1_555
O10_14 H23_14 1_555 1_555
O10_14 H24_14 1_555 1_555
Zn5_7 O1_15 1_555 1_555
Zn8_7 O2_15 1_555 1_555
O1_15 C20_15 1_555 1_555
O2_15 C20_15 1_555 1_555
O3_8 C27_15 1_555 1_555
O4_8 C27_15 1_555 1_555
O5_7 C1_15 1_555 1_555
O6_7 C1_15 1_555 1_555
O15_11 C28_15 1_555 1_555
O16_11 C28_15 1_555 1_555
O9_15 Zn8_7 1_555 1_555
O10_15 Zn5_7 1_555 1_555
N1_15 C5_15 1_555 1_555
N2_15 C17_15 1_555 1_555
C1_15 C2_15 1_555 1_555
C2_15 C3_15 1_555 1_555
C3_15 H1_15 1_555 1_555
C4_15 C3_15 1_555 1_555
C5_15 C4_15 1_555 1_555
C6_15 C5_15 1_555 1_555
H2_15 C6_15 1_555 1_555
C7_15 C2_15 1_555 1_555
H3_15 C7_15 1_555 1_555
C8_15 C9_15 1_555 1_555
C9_15 H4_15 1_555 1_555
C10_15 C4_15 1_555 1_555
C11_15 N1_15 1_555 1_555
C12_15 C11_15 1_555 1_555
H5_15 C12_15 1_555 1_555
C13_15 C8_15 1_555 1_555
H6_15 C13_15 1_555 1_555
C14_15 C15_15 1_555 1_555
C15_15 H7_15 1_555 1_555
C16_15 C15_15 1_555 1_555
C17_15 C16_15 1_555 1_555
C18_15 C17_15 1_555 1_555
H8_15 C18_15 1_555 1_555
C19_15 C14_15 1_555 1_555
H9_15 C19_15 1_555 1_555
C20_15 C21_15 1_555 1_555
C21_15 C22_15 1_555 1_555
C22_15 H10_15 1_555 1_555
C23_15 C22_15 1_555 1_555
H11_15 C23_15 1_555 1_555
C24_15 N2_15 1_555 1_555
C25_15 C16_15 1_555 1_555
C26_15 C21_15 1_555 1_555
H12_15 C26_15 1_555 1_555
C27_15 C8_15 1_555 1_555
C28_15 C14_15 1_555 1_555
C29_15 C30_15 1_555 1_555
C30_15 H13_15 1_555 1_555
C31_15 C30_15 1_555 1_555
H14_15 C31_15 1_555 1_555
C32_15 N2_15 1_555 1_555
C33_15 C32_15 1_555 1_555
H15_15 C33_15 1_555 1_555
C34_15 C29_15 1_555 1_555
H16_15 C34_15 1_555 1_555
C35_15 N1_15 1_555 1_555
C36_15 C35_15 1_555 1_555
H17_15 C36_15 1_555 1_555
C37_15 C36_15 1_555 1_555
H18_15 C37_15 1_555 1_555
C38_15 C29_15 1_555 1_555
C39_15 C38_15 1_555 1_555
H19_15 C39_15 1_555 1_555
C40_15 C35_15 1_555 1_555
H20_15 C40_15 1_555 1_555
Zn5_5 O3_8 1_555 1_555
Zn8_5 O4_8 1_555 1_555
O11_8 Zn5_7 1_555 1_555
O12_8 Zn8_7 1_555 1_555
O13_11 Zn5_7 1_555 1_555
O14_11 Zn8_7 1_555 1_555
C6_15 C7_15 1_555 1_555
C9_15 C10_15 1_555 1_555
C10_15 C11_15 1_555 1_555
C12_15 C13_15 1_555 1_555
C18_15 C19_15 1_555 1_555
C23_15 C24_15 1_555 1_555
C24_15 C25_15 1_555 1_555
C25_15 C26_15 1_555 1_555
C31_15 C32_15 1_555 1_555
C33_15 C34_15 1_555 1_555
C37_15 C38_15 1_555 1_555
C39_15 C40_15 1_555 1_555
O9_15 H21_15 1_555 1_555
O9_15 H22_15 1_555 1_555
O10_15 H23_15 1_555 1_555
O10_15 H24_15 1_555 1_555
O1_16 C20_16 1_555 1_555
O11_8 C27_16 1_555 1_555
O12_8 C27_16 1_555 1_555
O5_8 C1_16 1_555 1_555
O6_8 C1_16 1_555 1_555
O15_10 C28_16 1_555 1_555
O16_10 C28_16 1_555 1_555
N1_16 C5_16 1_555 1_555
N2_16 C17_16 1_555 1_555
C1_16 C2_16 1_555 1_555
C2_16 C3_16 1_555 1_555
C3_16 H1_16 1_555 1_555
C4_16 C3_16 1_555 1_555
C5_16 C4_16 1_555 1_555
C6_16 C5_16 1_555 1_555
H2_16 C6_16 1_555 1_555
C7_16 C2_16 1_555 1_555
H3_16 C7_16 1_555 1_555
C8_16 C9_16 1_555 1_555
C9_16 H4_16 1_555 1_555
C10_16 C4_16 1_555 1_555
C11_16 N1_16 1_555 1_555
C12_16 C11_16 1_555 1_555
H5_16 C12_16 1_555 1_555
C13_16 C8_16 1_555 1_555
H6_16 C13_16 1_555 1_555
C14_16 C15_16 1_555 1_555
C15_16 H7_16 1_555 1_555
C16_16 C15_16 1_555 1_555
C17_16 C16_16 1_555 1_555
C18_16 C17_16 1_555 1_555
H8_16 C18_16 1_555 1_555
C19_16 C14_16 1_555 1_555
H9_16 C19_16 1_555 1_555
C20_16 C21_16 1_555 1_555
C21_16 C22_16 1_555 1_555
C22_16 H10_16 1_555 1_555
C23_16 C22_16 1_555 1_555
H11_16 C23_16 1_555 1_555
C24_16 N2_16 1_555 1_555
C25_16 C16_16 1_555 1_555
C26_16 C21_16 1_555 1_555
H12_16 C26_16 1_555 1_555
C27_16 C8_16 1_555 1_555
C28_16 C14_16 1_555 1_555
C29_16 C30_16 1_555 1_555
C30_16 H13_16 1_555 1_555
C31_16 C30_16 1_555 1_555
H14_16 C31_16 1_555 1_555
C32_16 N2_16 1_555 1_555
C33_16 C32_16 1_555 1_555
H15_16 C33_16 1_555 1_555
C34_16 C29_16 1_555 1_555
H16_16 C34_16 1_555 1_555
C35_16 N1_16 1_555 1_555
C36_16 C35_16 1_555 1_555
H17_16 C36_16 1_555 1_555
C37_16 C36_16 1_555 1_555
H18_16 C37_16 1_555 1_555
C38_16 C29_16 1_555 1_555
C39_16 C38_16 1_555 1_555
H19_16 C39_16 1_555 1_555
C40_16 C35_16 1_555 1_555
H20_16 C40_16 1_555 1_555
Zn5_3 O5_8 1_555 1_555
Zn8_3 O6_8 1_555 1_555
C6_16 C7_16 1_555 1_555
C9_16 C10_16 1_555 1_555
C10_16 C11_16 1_555 1_555
C12_16 C13_16 1_555 1_555
C18_16 C19_16 1_555 1_555
C23_16 C24_16 1_555 1_555
C24_16 C25_16 1_555 1_555
C25_16 C26_16 1_555 1_555
C31_16 C32_16 1_555 1_555
C33_16 C34_16 1_555 1_555
C37_16 C38_16 1_555 1_555
C39_16 C40_16 1_555 1_555
Zn8_5 O2_16 1_555 1_555
O9_16 Zn8_5 1_555 1_555
O10_16 Zn5_5 1_555 1_555
O13_12 Zn5_5 1_555 1_555
O14_12 Zn8_5 1_555 1_555
O9_16 H21_16 1_555 1_555
O9_16 H22_16 1_555 1_555
O10_16 H23_16 1_555 1_555
O10_16 H24_16 1_555 1_555
Zn8_10 O2_17 1_555 1_555
O9_17 Zn8_10 1_555 1_555
O10_17 Zn5_10 1_555 1_555
O11_9 Zn5_10 1_555 1_555
O12_9 Zn8_10 1_555 1_555
O9_17 H21_17 1_555 1_555
O9_17 H22_17 1_555 1_555
O10_17 H23_17 1_555 1_555
O10_17 H24_17 1_555 1_555
O1_17 C20_17 1_555 1_555
O13_9 C1_17 1_555 1_555
O14_9 C1_17 1_555 1_555
O15_4 C28_17 1_555 1_555
O16_4 C28_17 1_555 1_555
N1_17 C5_17 1_555 1_555
N2_17 C17_17 1_555 1_555
C1_17 C2_17 1_555 1_555
C2_17 C3_17 1_555 1_555
C3_17 H1_17 1_555 1_555
C4_17 C3_17 1_555 1_555
C5_17 C4_17 1_555 1_555
C6_17 C5_17 1_555 1_555
H2_17 C6_17 1_555 1_555
C7_17 C2_17 1_555 1_555
H3_17 C7_17 1_555 1_555
C10_17 C4_17 1_555 1_555
C11_17 N1_17 1_555 1_555
C14_17 C15_17 1_555 1_555
C15_17 H7_17 1_555 1_555
C16_17 C15_17 1_555 1_555
C17_17 C16_17 1_555 1_555
C18_17 C17_17 1_555 1_555
H8_17 C18_17 1_555 1_555
C19_17 C14_17 1_555 1_555
H9_17 C19_17 1_555 1_555
C20_17 C21_17 1_555 1_555
C21_17 C22_17 1_555 1_555
C22_17 H10_17 1_555 1_555
C23_17 C22_17 1_555 1_555
H11_17 C23_17 1_555 1_555
C24_17 N2_17 1_555 1_555
C25_17 C16_17 1_555 1_555
C26_17 C21_17 1_555 1_555
H12_17 C26_17 1_555 1_555
C28_17 C14_17 1_555 1_555
C29_17 C30_17 1_555 1_555
C31_17 C30_17 1_555 1_555
H14_17 C31_17 1_555 1_555
C32_17 N2_17 1_555 1_555
C33_17 C32_17 1_555 1_555
H15_17 C33_17 1_555 1_555
C34_17 C29_17 1_555 1_555
H16_17 C34_17 1_555 1_555
C35_17 N1_17 1_555 1_555
C36_17 C35_17 1_555 1_555
H17_17 C36_17 1_555 1_555
C37_17 C36_17 1_555 1_555
H18_17 C37_17 1_555 1_555
C38_17 C29_17 1_555 1_555
C39_17 C38_17 1_555 1_555
C40_17 C35_17 1_555 1_555
C6_17 C7_17 1_555 1_555
C10_17 C11_17 1_555 1_555
C18_17 C19_17 1_555 1_555
C23_17 C24_17 1_555 1_555
C24_17 C25_17 1_555 1_555
C25_17 C26_17 1_555 1_555
C31_17 C32_17 1_555 1_555
C33_17 C34_17 1_555 1_555
C37_17 C38_17 1_555 1_555
C39_17 C40_17 1_555 1_555
O3_9 C27_17 1_555 1_555
O4_9 C27_17 1_555 1_555
C8_17 C9_17 1_555 1_555
C9_17 H4_17 1_555 1_555
H5_17 C12_17 1_555 1_555
C13_17 C8_17 1_555 1_555
H6_17 C13_17 1_555 1_555
C27_17 C8_17 1_555 1_555
Zn5_12 O3_9 1_555 1_555
Zn8_12 O4_9 1_555 1_555
C12_17 C13_17 1_555 1_555
O11_9 C27_18 1_555 1_555
O12_9 C27_18 1_555 1_555
C8_18 C9_18 1_555 1_555
C9_18 H4_18 1_555 1_555
H5_18 C12_18 1_555 1_555
C13_18 C8_18 1_555 1_555
H6_18 C13_18 1_555 1_555
C27_18 C8_18 1_555 1_555
C12_18 C13_18 1_555 1_555
Zn5_12 O1_18 1_555 1_555
Zn8_12 O2_18 1_555 1_555
O1_18 C20_18 1_555 1_555
O2_18 C20_18 1_555 1_555
O13_12 C1_18 1_555 1_555
O14_12 C1_18 1_555 1_555
O15 C28_18 1_555 1_555
O16 C28_18 1_555 1_555
O9_18 Zn8_12 1_555 1_555
O10_18 Zn5_12 1_555 1_555
N1_18 C5_18 1_555 1_555
N2_18 C17_18 1_555 1_555
C1_18 C2_18 1_555 1_555
C2_18 C3_18 1_555 1_555
C3_18 H1_18 1_555 1_555
C4_18 C3_18 1_555 1_555
C5_18 C4_18 1_555 1_555
C6_18 C5_18 1_555 1_555
H2_18 C6_18 1_555 1_555
C7_18 C2_18 1_555 1_555
H3_18 C7_18 1_555 1_555
C10_18 C4_18 1_555 1_555
C11_18 N1_18 1_555 1_555
C14_18 C15_18 1_555 1_555
C15_18 H7_18 1_555 1_555
C16_18 C15_18 1_555 1_555
C17_18 C16_18 1_555 1_555
C18_18 C17_18 1_555 1_555
H8_18 C18_18 1_555 1_555
C19_18 C14_18 1_555 1_555
H9_18 C19_18 1_555 1_555
C20_18 C21_18 1_555 1_555
C21_18 C22_18 1_555 1_555
C22_18 H10_18 1_555 1_555
C23_18 C22_18 1_555 1_555
H11_18 C23_18 1_555 1_555
C24_18 N2_18 1_555 1_555
C25_18 C16_18 1_555 1_555
C26_18 C21_18 1_555 1_555
H12_18 C26_18 1_555 1_555
C28_18 C14_18 1_555 1_555
C29_18 C30_18 1_555 1_555
C31_18 C30_18 1_555 1_555
H14_18 C31_18 1_555 1_555
C32_18 N2_18 1_555 1_555
C33_18 C32_18 1_555 1_555
H15_18 C33_18 1_555 1_555
C34_18 C29_18 1_555 1_555
H16_18 C34_18 1_555 1_555
C35_18 N1_18 1_555 1_555
C36_18 C35_18 1_555 1_555
H17_18 C36_18 1_555 1_555
C37_18 C36_18 1_555 1_555
H18_18 C37_18 1_555 1_555
C38_18 C29_18 1_555 1_555
C39_18 C38_18 1_555 1_555
C40_18 C35_18 1_555 1_555
C6_18 C7_18 1_555 1_555
C10_18 C11_18 1_555 1_555
C18_18 C19_18 1_555 1_555
C23_18 C24_18 1_555 1_555
C24_18 C25_18 1_555 1_555
C25_18 C26_18 1_555 1_555
C31_18 C32_18 1_555 1_555
C33_18 C34_18 1_555 1_555
C37_18 C38_18 1_555 1_555
C39_18 C40_18 1_555 1_555
O9_18 H21_18 1_555 1_555
O9_18 H22_18 1_555 1_555
O10_18 H23_18 1_555 1_555
O10_18 H24_18 1_555 1_555
Zn5_11 O1_19 1_555 1_555
Zn8_11 O2_19 1_555 1_555
O1_19 C20_19 1_555 1_555
O2_19 C20_19 1_555 1_555
O3_10 C27_19 1_555 1_555
O4_10 C27_19 1_555 1_555
O13_10 C1_19 1_555 1_555
O14_10 C1_19 1_555 1_555
O15_3 C28_19 1_555 1_555
O16_3 C28_19 1_555 1_555
O9_19 Zn8_11 1_555 1_555
O10_19 Zn5_11 1_555 1_555
N1_19 C5_19 1_555 1_555
N2_19 C17_19 1_555 1_555
C1_19 C2_19 1_555 1_555
C2_19 C3_19 1_555 1_555
C3_19 H1_19 1_555 1_555
C4_19 C3_19 1_555 1_555
C5_19 C4_19 1_555 1_555
C6_19 C5_19 1_555 1_555
H2_19 C6_19 1_555 1_555
C7_19 C2_19 1_555 1_555
H3_19 C7_19 1_555 1_555
C8_19 C9_19 1_555 1_555
C9_19 H4_19 1_555 1_555
C10_19 C4_19 1_555 1_555
C11_19 N1_19 1_555 1_555
C12_19 C11_19 1_555 1_555
H5_19 C12_19 1_555 1_555
C13_19 C8_19 1_555 1_555
H6_19 C13_19 1_555 1_555
C14_19 C15_19 1_555 1_555
C15_19 H7_19 1_555 1_555
C16_19 C15_19 1_555 1_555
C17_19 C16_19 1_555 1_555
C18_19 C17_19 1_555 1_555
H8_19 C18_19 1_555 1_555
C19_19 C14_19 1_555 1_555
H9_19 C19_19 1_555 1_555
C20_19 C21_19 1_555 1_555
C21_19 C22_19 1_555 1_555
C22_19 H10_19 1_555 1_555
C23_19 C22_19 1_555 1_555
H11_19 C23_19 1_555 1_555
C24_19 N2_19 1_555 1_555
C25_19 C16_19 1_555 1_555
C26_19 C21_19 1_555 1_555
H12_19 C26_19 1_555 1_555
C27_19 C8_19 1_555 1_555
C28_19 C14_19 1_555 1_555
C29_19 C30_19 1_555 1_555
C30_19 H13_19 1_555 1_555
C31_19 C30_19 1_555 1_555
H14_19 C31_19 1_555 1_555
C32_19 N2_19 1_555 1_555
C33_19 C32_19 1_555 1_555
H15_19 C33_19 1_555 1_555
C34_19 C29_19 1_555 1_555
H16_19 C34_19 1_555 1_555
C35_19 N1_19 1_555 1_555
C36_19 C35_19 1_555 1_555
H17_19 C36_19 1_555 1_555
C37_19 C36_19 1_555 1_555
H18_19 C37_19 1_555 1_555
C38_19 C29_19 1_555 1_555
C39_19 C38_19 1_555 1_555
H19_19 C39_19 1_555 1_555
C40_19 C35_19 1_555 1_555
H20_19 C40_19 1_555 1_555
Zn5_9 O3_10 1_555 1_555
Zn8_9 O4_10 1_555 1_555
O11_10 Zn5_11 1_555 1_555
O12_10 Zn8_11 1_555 1_555
O13_15 Zn5_11 1_555 1_555
O14_15 Zn8_11 1_555 1_555
C6_19 C7_19 1_555 1_555
C9_19 C10_19 1_555 1_555
C10_19 C11_19 1_555 1_555
C12_19 C13_19 1_555 1_555
C18_19 C19_19 1_555 1_555
C23_19 C24_19 1_555 1_555
C24_19 C25_19 1_555 1_555
C25_19 C26_19 1_555 1_555
C31_19 C32_19 1_555 1_555
C33_19 C34_19 1_555 1_555
C37_19 C38_19 1_555 1_555
C39_19 C40_19 1_555 1_555
O9_19 H21_19 1_555 1_555
O9_19 H22_19 1_555 1_555
O10_19 H23_19 1_555 1_555
O10_19 H24_19 1_555 1_555
O1_20 C20_20 1_555 1_555
O11_10 C27_20 1_555 1_555
O12_10 C27_20 1_555 1_555
O13_11 C1_20 1_555 1_555
O14_11 C1_20 1_555 1_555
O15_2 C28_20 1_555 1_555
O16_2 C28_20 1_555 1_555
N1_20 C5_20 1_555 1_555
N2_20 C17_20 1_555 1_555
C1_20 C2_20 1_555 1_555
C2_20 C3_20 1_555 1_555
C3_20 H1_20 1_555 1_555
C4_20 C3_20 1_555 1_555
C5_20 C4_20 1_555 1_555
C6_20 C5_20 1_555 1_555
H2_20 C6_20 1_555 1_555
C7_20 C2_20 1_555 1_555
H3_20 C7_20 1_555 1_555
C8_20 C9_20 1_555 1_555
C9_20 H4_20 1_555 1_555
C10_20 C4_20 1_555 1_555
C11_20 N1_20 1_555 1_555
C12_20 C11_20 1_555 1_555
H5_20 C12_20 1_555 1_555
C13_20 C8_20 1_555 1_555
H6_20 C13_20 1_555 1_555
C14_20 C15_20 1_555 1_555
C15_20 H7_20 1_555 1_555
C16_20 C15_20 1_555 1_555
C17_20 C16_20 1_555 1_555
C18_20 C17_20 1_555 1_555
H8_20 C18_20 1_555 1_555
C19_20 C14_20 1_555 1_555
H9_20 C19_20 1_555 1_555
C20_20 C21_20 1_555 1_555
C21_20 C22_20 1_555 1_555
C22_20 H10_20 1_555 1_555
C23_20 C22_20 1_555 1_555
H11_20 C23_20 1_555 1_555
C24_20 N2_20 1_555 1_555
C25_20 C16_20 1_555 1_555
C26_20 C21_20 1_555 1_555
H12_20 C26_20 1_555 1_555
C27_20 C8_20 1_555 1_555
C28_20 C14_20 1_555 1_555
C29_20 C30_20 1_555 1_555
C30_20 H13_20 1_555 1_555
C31_20 C30_20 1_555 1_555
H14_20 C31_20 1_555 1_555
C32_20 N2_20 1_555 1_555
C33_20 C32_20 1_555 1_555
H15_20 C33_20 1_555 1_555
C34_20 C29_20 1_555 1_555
H16_20 C34_20 1_555 1_555
C35_20 N1_20 1_555 1_555
C36_20 C35_20 1_555 1_555
H17_20 C36_20 1_555 1_555
C37_20 C36_20 1_555 1_555
H18_20 C37_20 1_555 1_555
C38_20 C29_20 1_555 1_555
C39_20 C38_20 1_555 1_555
H19_20 C39_20 1_555 1_555
C40_20 C35_20 1_555 1_555
H20_20 C40_20 1_555 1_555
C6_20 C7_20 1_555 1_555
C9_20 C10_20 1_555 1_555
C10_20 C11_20 1_555 1_555
C12_20 C13_20 1_555 1_555
C18_20 C19_20 1_555 1_555
C23_20 C24_20 1_555 1_555
C24_20 C25_20 1_555 1_555
C25_20 C26_20 1_555 1_555
C31_20 C32_20 1_555 1_555
C33_20 C34_20 1_555 1_555
C37_20 C38_20 1_555 1_555
C39_20 C40_20 1_555 1_555
Zn8_9 O2_20 1_555 1_555
O9_20 Zn8_9 1_555 1_555
O10_20 Zn5_9 1_555 1_555
O13_16 Zn5_9 1_555 1_555
O14_16 Zn8_9 1_555 1_555
O9_20 H21_20 1_555 1_555
O9_20 H22_20 1_555 1_555
O10_20 H23_20 1_555 1_555
O10_20 H24_20 1_555 1_555
Zn8_2 O2_21 1_555 1_555
O9_21 Zn8_2 1_555 1_555
O10_21 Zn5_2 1_555 1_555
O11_11 Zn5_2 1_555 1_555
O12_11 Zn8_2 1_555 1_555
O9_21 H21_21 1_555 1_555
O9_21 H22_21 1_555 1_555
O10_21 H23_21 1_555 1_555
O10_21 H24_21 1_555 1_555
O1_21 C20_21 1_555 1_555
O13_13 C1_21 1_555 1_555
O14_13 C1_21 1_555 1_555
O15_8 C28_21 1_555 1_555
O16_8 C28_21 1_555 1_555
N1_21 C5_21 1_555 1_555
N2_21 C17_21 1_555 1_555
C1_21 C2_21 1_555 1_555
C2_21 C3_21 1_555 1_555
C3_21 H1_21 1_555 1_555
C4_21 C3_21 1_555 1_555
C5_21 C4_21 1_555 1_555
C6_21 C5_21 1_555 1_555
H2_21 C6_21 1_555 1_555
C7_21 C2_21 1_555 1_555
H3_21 C7_21 1_555 1_555
C10_21 C4_21 1_555 1_555
C11_21 N1_21 1_555 1_555
C14_21 C15_21 1_555 1_555
C15_21 H7_21 1_555 1_555
C16_21 C15_21 1_555 1_555
C17_21 C16_21 1_555 1_555
C18_21 C17_21 1_555 1_555
H8_21 C18_21 1_555 1_555
C19_21 C14_21 1_555 1_555
H9_21 C19_21 1_555 1_555
C20_21 C21_21 1_555 1_555
C21_21 C22_21 1_555 1_555
C22_21 H10_21 1_555 1_555
C23_21 C22_21 1_555 1_555
H11_21 C23_21 1_555 1_555
C24_21 N2_21 1_555 1_555
C25_21 C16_21 1_555 1_555
C26_21 C21_21 1_555 1_555
H12_21 C26_21 1_555 1_555
C28_21 C14_21 1_555 1_555
C29_21 C30_21 1_555 1_555
C31_21 C30_21 1_555 1_555
H14_21 C31_21 1_555 1_555
C32_21 N2_21 1_555 1_555
C33_21 C32_21 1_555 1_555
H15_21 C33_21 1_555 1_555
C34_21 C29_21 1_555 1_555
H16_21 C34_21 1_555 1_555
C35_21 N1_21 1_555 1_555
C36_21 C35_21 1_555 1_555
H17_21 C36_21 1_555 1_555
C37_21 C36_21 1_555 1_555
H18_21 C37_21 1_555 1_555
C38_21 C29_21 1_555 1_555
C39_21 C38_21 1_555 1_555
C40_21 C35_21 1_555 1_555
C6_21 C7_21 1_555 1_555
C10_21 C11_21 1_555 1_555
C18_21 C19_21 1_555 1_555
C23_21 C24_21 1_555 1_555
C24_21 C25_21 1_555 1_555
C25_21 C26_21 1_555 1_555
C31_21 C32_21 1_555 1_555
C33_21 C34_21 1_555 1_555
C37_21 C38_21 1_555 1_555
C39_21 C40_21 1_555 1_555
O3_11 C27_21 1_555 1_555
O4_11 C27_21 1_555 1_555
C8_21 C9_21 1_555 1_555
C9_21 H4_21 1_555 1_555
H5_21 C12_21 1_555 1_555
C13_21 C8_21 1_555 1_555
H6_21 C13_21 1_555 1_555
C27_21 C8_21 1_555 1_555
Zn5_4 O3_11 1_555 1_555
Zn8_4 O4_11 1_555 1_555
C12_21 C13_21 1_555 1_555
O11_11 C27_22 1_555 1_555
O12_11 C27_22 1_555 1_555
C8_22 C9_22 1_555 1_555
C9_22 H4_22 1_555 1_555
H5_22 C12_22 1_555 1_555
C13_22 C8_22 1_555 1_555
H6_22 C13_22 1_555 1_555
C27_22 C8_22 1_555 1_555
C12_22 C13_22 1_555 1_555
Zn5_4 O1_22 1_555 1_555
Zn8_4 O2_22 1_555 1_555
O1_22 C20_22 1_555 1_555
O2_22 C20_22 1_555 1_555
O13_16 C1_22 1_555 1_555
O14_16 C1_22 1_555 1_555
O15_5 C28_22 1_555 1_555
O16_5 C28_22 1_555 1_555
O9_22 Zn8_4 1_555 1_555
O10_22 Zn5_4 1_555 1_555
N1_22 C5_22 1_555 1_555
N2_22 C17_22 1_555 1_555
C1_22 C2_22 1_555 1_555
C2_22 C3_22 1_555 1_555
C3_22 H1_22 1_555 1_555
C4_22 C3_22 1_555 1_555
C5_22 C4_22 1_555 1_555
C6_22 C5_22 1_555 1_555
H2_22 C6_22 1_555 1_555
C7_22 C2_22 1_555 1_555
H3_22 C7_22 1_555 1_555
C10_22 C4_22 1_555 1_555
C11_22 N1_22 1_555 1_555
C14_22 C15_22 1_555 1_555
C15_22 H7_22 1_555 1_555
C16_22 C15_22 1_555 1_555
C17_22 C16_22 1_555 1_555
C18_22 C17_22 1_555 1_555
H8_22 C18_22 1_555 1_555
C19_22 C14_22 1_555 1_555
H9_22 C19_22 1_555 1_555
C20_22 C21_22 1_555 1_555
C21_22 C22_22 1_555 1_555
C22_22 H10_22 1_555 1_555
C23_22 C22_22 1_555 1_555
H11_22 C23_22 1_555 1_555
C24_22 N2_22 1_555 1_555
C25_22 C16_22 1_555 1_555
C26_22 C21_22 1_555 1_555
H12_22 C26_22 1_555 1_555
C28_22 C14_22 1_555 1_555
C29_22 C30_22 1_555 1_555
C31_22 C30_22 1_555 1_555
H14_22 C31_22 1_555 1_555
C32_22 N2_22 1_555 1_555
C33_22 C32_22 1_555 1_555
H15_22 C33_22 1_555 1_555
C34_22 C29_22 1_555 1_555
H16_22 C34_22 1_555 1_555
C35_22 N1_22 1_555 1_555
C36_22 C35_22 1_555 1_555
H17_22 C36_22 1_555 1_555
C37_22 C36_22 1_555 1_555
H18_22 C37_22 1_555 1_555
C38_22 C29_22 1_555 1_555
C39_22 C38_22 1_555 1_555
C40_22 C35_22 1_555 1_555
C6_22 C7_22 1_555 1_555
C10_22 C11_22 1_555 1_555
C18_22 C19_22 1_555 1_555
C23_22 C24_22 1_555 1_555
C24_22 C25_22 1_555 1_555
C25_22 C26_22 1_555 1_555
C31_22 C32_22 1_555 1_555
C33_22 C34_22 1_555 1_555
C37_22 C38_22 1_555 1_555
C39_22 C40_22 1_555 1_555
O9_22 H21_22 1_555 1_555
O9_22 H22_22 1_555 1_555
O10_22 H23_22 1_555 1_555
O10_22 H24_22 1_555 1_555
Zn5_3 O1_23 1_555 1_555
Zn8_3 O2_23 1_555 1_555
O1_23 C20_23 1_555 1_555
O2_23 C20_23 1_555 1_555
O3_12 C27_23 1_555 1_555
O4_12 C27_23 1_555 1_555
O13_14 C1_23 1_555 1_555
O14_14 C1_23 1_555 1_555
O15_7 C28_23 1_555 1_555
O16_7 C28_23 1_555 1_555
O9_23 Zn8_3 1_555 1_555
O10_23 Zn5_3 1_555 1_555
N1_23 C5_23 1_555 1_555
N2_23 C17_23 1_555 1_555
C1_23 C2_23 1_555 1_555
C2_23 C3_23 1_555 1_555
C3_23 H1_23 1_555 1_555
C4_23 C3_23 1_555 1_555
C5_23 C4_23 1_555 1_555
C6_23 C5_23 1_555 1_555
H2_23 C6_23 1_555 1_555
C7_23 C2_23 1_555 1_555
H3_23 C7_23 1_555 1_555
C8_23 C9_23 1_555 1_555
C9_23 H4_23 1_555 1_555
C10_23 C4_23 1_555 1_555
C11_23 N1_23 1_555 1_555
C12_23 C11_23 1_555 1_555
H5_23 C12_23 1_555 1_555
C13_23 C8_23 1_555 1_555
H6_23 C13_23 1_555 1_555
C14_23 C15_23 1_555 1_555
C15_23 H7_23 1_555 1_555
C16_23 C15_23 1_555 1_555
C17_23 C16_23 1_555 1_555
C18_23 C17_23 1_555 1_555
H8_23 C18_23 1_555 1_555
C19_23 C14_23 1_555 1_555
H9_23 C19_23 1_555 1_555
C20_23 C21_23 1_555 1_555
C21_23 C22_23 1_555 1_555
C22_23 H10_23 1_555 1_555
C23_23 C22_23 1_555 1_555
H11_23 C23_23 1_555 1_555
C24_23 N2_23 1_555 1_555
C25_23 C16_23 1_555 1_555
C26_23 C21_23 1_555 1_555
H12_23 C26_23 1_555 1_555
C27_23 C8_23 1_555 1_555
C28_23 C14_23 1_555 1_555
C29_23 C30_23 1_555 1_555
C30_23 H13_23 1_555 1_555
C31_23 C30_23 1_555 1_555
H14_23 C31_23 1_555 1_555
C32_23 N2_23 1_555 1_555
C33_23 C32_23 1_555 1_555
H15_23 C33_23 1_555 1_555
C34_23 C29_23 1_555 1_555
H16_23 C34_23 1_555 1_555
C35_23 N1_23 1_555 1_555
C36_23 C35_23 1_555 1_555
H17_23 C36_23 1_555 1_555
C37_23 C36_23 1_555 1_555
H18_23 C37_23 1_555 1_555
C38_23 C29_23 1_555 1_555
C39_23 C38_23 1_555 1_555
H19_23 C39_23 1_555 1_555
C40_23 C35_23 1_555 1_555
H20_23 C40_23 1_555 1_555
Zn5 O3_12 1_555 1_555
Zn8 O4_12 1_555 1_555
O11_12 Zn5_3 1_555 1_555
O12_12 Zn8_3 1_555 1_555
C6_23 C7_23 1_555 1_555
C9_23 C10_23 1_555 1_555
C10_23 C11_23 1_555 1_555
C12_23 C13_23 1_555 1_555
C18_23 C19_23 1_555 1_555
C23_23 C24_23 1_555 1_555
C24_23 C25_23 1_555 1_555
C25_23 C26_23 1_555 1_555
C31_23 C32_23 1_555 1_555
C33_23 C34_23 1_555 1_555
C37_23 C38_23 1_555 1_555
C39_23 C40_23 1_555 1_555
O9_23 H21_23 1_555 1_555
O9_23 H22_23 1_555 1_555
O10_23 H23_23 1_555 1_555
O10_23 H24_23 1_555 1_555
O1_24 C20_24 1_555 1_555
O11_12 C27_24 1_555 1_555
O12_12 C27_24 1_555 1_555
O13_15 C1_24 1_555 1_555
O14_15 C1_24 1_555 1_555
O15_6 C28_24 1_555 1_555
O16_6 C28_24 1_555 1_555
N1_24 C5_24 1_555 1_555
N2_24 C17_24 1_555 1_555
C1_24 C2_24 1_555 1_555
C2_24 C3_24 1_555 1_555
C3_24 H1_24 1_555 1_555
C4_24 C3_24 1_555 1_555
C5_24 C4_24 1_555 1_555
C6_24 C5_24 1_555 1_555
H2_24 C6_24 1_555 1_555
C7_24 C2_24 1_555 1_555
H3_24 C7_24 1_555 1_555
C8_24 C9_24 1_555 1_555
C9_24 H4_24 1_555 1_555
C10_24 C4_24 1_555 1_555
C11_24 N1_24 1_555 1_555
C12_24 C11_24 1_555 1_555
H5_24 C12_24 1_555 1_555
C13_24 C8_24 1_555 1_555
H6_24 C13_24 1_555 1_555
C14_24 C15_24 1_555 1_555
C15_24 H7_24 1_555 1_555
C16_24 C15_24 1_555 1_555
C17_24 C16_24 1_555 1_555
C18_24 C17_24 1_555 1_555
H8_24 C18_24 1_555 1_555
C19_24 C14_24 1_555 1_555
H9_24 C19_24 1_555 1_555
C20_24 C21_24 1_555 1_555
C21_24 C22_24 1_555 1_555
C22_24 H10_24 1_555 1_555
C23_24 C22_24 1_555 1_555
H11_24 C23_24 1_555 1_555
C24_24 N2_24 1_555 1_555
C25_24 C16_24 1_555 1_555
C26_24 C21_24 1_555 1_555
H12_24 C26_24 1_555 1_555
C27_24 C8_24 1_555 1_555
C28_24 C14_24 1_555 1_555
C29_24 C30_24 1_555 1_555
C30_24 H13_24 1_555 1_555
C31_24 C30_24 1_555 1_555
H14_24 C31_24 1_555 1_555
C32_24 N2_24 1_555 1_555
C33_24 C32_24 1_555 1_555
H15_24 C33_24 1_555 1_555
C34_24 C29_24 1_555 1_555
H16_24 C34_24 1_555 1_555
C35_24 N1_24 1_555 1_555
C36_24 C35_24 1_555 1_555
H17_24 C36_24 1_555 1_555
C37_24 C36_24 1_555 1_555
H18_24 C37_24 1_555 1_555
C38_24 C29_24 1_555 1_555
C39_24 C38_24 1_555 1_555
H19_24 C39_24 1_555 1_555
C40_24 C35_24 1_555 1_555
H20_24 C40_24 1_555 1_555
C6_24 C7_24 1_555 1_555
C9_24 C10_24 1_555 1_555
C10_24 C11_24 1_555 1_555
C12_24 C13_24 1_555 1_555
C18_24 C19_24 1_555 1_555
C23_24 C24_24 1_555 1_555
C24_24 C25_24 1_555 1_555
C25_24 C26_24 1_555 1_555
C31_24 C32_24 1_555 1_555
C33_24 C34_24 1_555 1_555
C37_24 C38_24 1_555 1_555
C39_24 C40_24 1_555 1_555
Zn8 O2_24 1_555 1_555
O9_24 Zn8 1_555 1_555
O10_24 Zn5 1_555 1_555
O9_24 H21_24 1_555 1_555
O9_24 H22_24 1_555 1_555
O10_24 H23_24 1_555 1_555
O10_24 H24_24 1_555 1_555

#END
