
###############################################################################
#
# This file contains modified crystal structure data generated from the
# MOF subset of the Cambridge Structural Database (CSD) v543 
# hosted by the Cambridge Crystallographic Data Centre (CCDC).
#
# This work is licensed under the Creative Commons
# Attribution-NonCommercial-ShareAlike 4.0 International License.
# To view a copy of this license, visit
# http://creativecommons.org/licenses/by-nc-sa/4.0/
# or send a letter to
# Creative Commons, PO Box 1866, Mountain View, CA 94042, USA.
#
# CIF created using the CSD Python API on 29 September 2022
# The structure has been converted into the P1 space group
# The structure has a 3D framework
# The original CSD entry PAHYAC is in the cubic crystal system
# The framework has been calculated to contain at least 10.0% void space
# The void calculation uses a probe of radius 1.32A, grid spacing 0.4
# H atom positions have been added when not included in the experimental data
#
###############################################################################

data_PAHYAC
_chemical_formula_moiety         '(C960 H576 Mn48 N48 O240)n'
_symmetry_cell_setting           triclinic
_symmetry_space_group_name_H-M   'P 1'
_symmetry_Int_Tables_number      1
_space_group_name_Hall           'P 1'
loop_
_symmetry_equiv_pos_site_id
_symmetry_equiv_pos_as_xyz
1 x,y,z
_cell_length_a                   45.800(5)
_cell_length_b                   45.800(5)
_cell_length_c                   45.800(5)
_cell_angle_alpha                90
_cell_angle_beta                 90
_cell_angle_gamma                90
_cell_volume                     96071.9
loop_
_atom_site_label
_atom_site_type_symbol
_atom_site_fract_x
_atom_site_fract_y
_atom_site_fract_z
O3 O 0.14570(18) 0.01679(13) 0.42187(15)
O4 O 0.1934(2) 0.02891(16) 0.41272(15)
C8 C 0.16222(16) 0.01297(16) 0.37323(12)
C9 C 0.13454(13) 0.00435(15) 0.36425(13)
H4 H 0.118975 0.003571 0.377940
C12 C 0.18010(13) 0.00664(19) 0.32421(15)
H5 H 0.195665 0.007423 0.310521
C13 C 0.18500(12) 0.01412(18) 0.35321(16)
H6 H 0.203919 0.020005 0.359347
C27 C 0.1697(3) 0.0203(2) 0.4057(3)
H13 H 0.220405 0.003203 0.176068
H19 H 0.183460 0.003903 0.202484
H20 H 0.150528 0.011564 0.240787
Mn3 Mn 0.14413(2) 0.02347(3) 0.46785(3)
Mn6 Mn 0.20876(3) 0.03584(3) 0.45407(3)
O13 O 0.33723(19) 0.01895(15) 0.97319(15)
O14 O 0.28846(17) 0.00763(19) 0.95854(17)
O1 O 0.33918(17) 0.96639(13) 0.00796(13)
O5 O 0.01895(15) 0.97319(15) 0.33723(19)
O6 O 0.00763(19) 0.95854(17) 0.28846(17)
O7 O 0.43160(13) 0.95954(15) 0.13942(17)
O8 O 0.42350(14) 0.95400(15) 0.1883(2)
N1 N 0.1440(2) 0.9881(3) 0.28934(18)
N2 N 0.29489(16) 0.9509(2) 0.13790(16)
C1 C 0.0246(3) 0.9664(2) 0.3076(3)
C2 C 0.05618(11) 0.97211(16) 0.30279(15)
C3 C 0.07491(15) 0.98309(15) 0.32399(12)
H1 H 0.067648 0.987695 0.342867
C4 C 0.10427(14) 0.98732(16) 0.31758(12)
C5 C 0.11490(11) 0.98058(18) 0.28997(14)
C6 C 0.09617(15) 0.96961(18) 0.26876(11)
H2 H 0.103436 0.964998 0.249886
C7 C 0.06681(14) 0.96537(17) 0.27517(13)
H3 H 0.054008 0.957870 0.260675
C10 C 0.12964(12) 0.99688(16) 0.33525(14)
C11 C 0.15242(15) 0.99802(18) 0.31523(11)
C14 C 0.38261(10) 0.95456(17) 0.15728(15)
C15 C 0.37240(12) 0.95556(16) 0.12871(13)
H7 H 0.385818 0.956879 0.112946
C16 C 0.34257(13) 0.95462(18) 0.12321(11)
C17 C 0.32294(10) 0.95269(19) 0.14628(15)
C18 C 0.33315(13) 0.95170(19) 0.17484(13)
H8 H 0.319731 0.950376 0.190609
C19 C 0.36298(14) 0.95263(18) 0.18034(12)
H9 H 0.369952 0.951951 0.199866
C20 C 0.3115(3) 0.9642(2) 0.0166(3)
C21 C 0.30665(13) 0.96086(17) 0.04831(10)
C22 C 0.27803(11) 0.95985(18) 0.05836(13)
H10 H 0.262273 0.960564 0.044893
C23 C 0.27247(10) 0.95780(19) 0.08813(14)
H11 H 0.252907 0.957104 0.094999
C24 C 0.29552(13) 0.9568(2) 0.10784(10)
C25 C 0.32414(11) 0.95776(18) 0.09779(12)
C26 C 0.32970(10) 0.95982(16) 0.06802(13)
H12 H 0.349261 0.960511 0.061152
C28 C 0.4153(3) 0.9561(2) 0.1607(3)
C29 C 0.22521(17) 0.9638(2) 0.19617(17)
C30 C 0.2314(2) 0.9856(2) 0.1760(2)
C31 C 0.2535(2) 0.9816(2) 0.15563(18)
H14 H 0.257729 0.996520 0.141825
C32 C 0.26955(16) 0.9558(2) 0.15549(16)
C33 C 0.26341(18) 0.9340(2) 0.1757(2)
H15 H 0.274363 0.916429 0.175585
C34 C 0.24124(19) 0.9380(2) 0.19602(17)
H16 H 0.237039 0.923112 0.209828
C35 C 0.1670(2) 0.9801(3) 0.2677(2)
C36 C 0.1884(2) 0.9588(3) 0.27010(19)
H17 H 0.189701 0.947290 0.287321
C37 C 0.2080(2) 0.9542(3) 0.2473(2)
H18 H 0.222632 0.939629 0.249018
C38 C 0.2061(2) 0.9710(3) 0.2221(2)
C39 C 0.1847(3) 0.9924(3) 0.2197(2)
C40 C 0.1652(2) 0.9970(3) 0.2425(3)
Mn5 Mn 0.47653(3) 0.96785(3) 0.14413(2)
Mn8 Mn 0.46416(3) 0.95407(3) 0.20876(3)
Mn1 Mn 0.35587(2) 0.97653(3) 0.96785(3)
Mn2 Mn 0.29124(3) 0.96416(3) 0.95407(3)
O2 O 0.28943(16) 0.96088(16) 0.9975(2)
O9 O 0.24823(19) 0.9522(3) 0.9446(3)
O10 O 0.40023(18) 0.9854(2) 0.9777(2)
O11 O 0.35430(18) 0.98321(13) 0.92187(15)
O12 O 0.3066(2) 0.97109(16) 0.91272(15)
O15 O 0.36058(17) 0.93160(13) 0.95954(15)
O16 O 0.3117(2) 0.92350(14) 0.95400(15)
H21 H 0.409349 0.967788 0.986461
H22 H 0.410756 0.990693 0.959499
H23 H 0.234596 0.966089 0.954154
H24 H 0.245158 0.952662 0.923143
Mn4 Mn 0.97653(3) 0.96785(3) 0.35587(2)
Mn7 Mn 0.96416(3) 0.95407(3) 0.29124(3)
O1_2 O 0.16082(17) 0.03361(13) 0.50796(13)
O2_2 O 0.21057(16) 0.03912(16) 0.4975(2)
O5_2 O 0.48105(15) 0.02681(15) 0.83723(19)
O6_2 O 0.49237(19) 0.04146(17) 0.78846(17)
O7_2 O 0.06840(13) 0.04046(15) 0.63942(17)
O8_2 O 0.07650(14) 0.04600(15) 0.6883(2)
O9_2 O 0.25177(19) 0.0478(3) 0.4446(3)
O10_2 O 0.09977(18) 0.0146(2) 0.4777(2)
N1_2 N 0.3560(2) 0.0119(3) 0.78934(18)
N2_2 N 0.20511(16) 0.0491(2) 0.63790(16)
C1_2 C 0.4754(3) 0.0336(2) 0.8076(3)
C2_2 C 0.44382(11) 0.02789(16) 0.80279(15)
C3_2 C 0.42509(15) 0.01691(15) 0.82399(12)
H1_2 H 0.432352 0.012305 0.842867
C4_2 C 0.39573(14) 0.01268(16) 0.81758(12)
C5_2 C 0.38510(11) 0.01942(18) 0.78997(14)
C6_2 C 0.40383(15) 0.03039(18) 0.76876(11)
H2_2 H 0.396564 0.035002 0.749886
C7_2 C 0.43319(14) 0.03463(17) 0.77517(13)
H3_2 H 0.445992 0.042130 0.760675
C10_2 C 0.37036(12) 0.00312(16) 0.83525(14)
C11_2 C 0.34758(15) 0.00198(18) 0.81523(11)
C14_2 C 0.11739(10) 0.04544(17) 0.65728(15)
C15_2 C 0.12760(12) 0.04444(16) 0.62871(13)
H7_2 H 0.114182 0.043121 0.612946
C16_2 C 0.15743(13) 0.04538(18) 0.62321(11)
C17_2 C 0.17706(10) 0.04731(19) 0.64628(15)
C18_2 C 0.16685(13) 0.04830(19) 0.67484(13)
H8_2 H 0.180269 0.049624 0.690609
C19_2 C 0.13702(14) 0.04737(18) 0.68034(12)
H9_2 H 0.130048 0.048049 0.699866
C20_2 C 0.1885(3) 0.0358(2) 0.5166(3)
C21_2 C 0.19335(13) 0.03914(17) 0.54831(10)
C22_2 C 0.22197(11) 0.04015(18) 0.55836(13)
H10_2 H 0.237727 0.039436 0.544893
C23_2 C 0.22753(10) 0.04220(19) 0.58813(14)
H11_2 H 0.247093 0.042896 0.594999
C24_2 C 0.20448(13) 0.0432(2) 0.60784(10)
C25_2 C 0.17586(11) 0.04224(18) 0.59779(12)
C26_2 C 0.17030(10) 0.04018(16) 0.56802(13)
H12_2 H 0.150739 0.039489 0.561152
C28_2 C 0.0847(3) 0.0439(2) 0.6607(3)
C29_2 C 0.27479(17) 0.0362(2) 0.69617(17)
C30_2 C 0.2686(2) 0.0144(2) 0.6760(2)
C31_2 C 0.2465(2) 0.0184(2) 0.65563(18)
H14_2 H 0.242271 0.003480 0.641825
C32_2 C 0.23045(16) 0.0442(2) 0.65549(16)
C33_2 C 0.23659(18) 0.0660(2) 0.6757(2)
H15_2 H 0.225637 0.083571 0.675585
C34_2 C 0.25876(19) 0.0620(2) 0.69602(17)
H16_2 H 0.262961 0.076888 0.709828
C35_2 C 0.3330(2) 0.0199(3) 0.7677(2)
C36_2 C 0.3116(2) 0.0412(3) 0.77010(19)
H17_2 H 0.310299 0.052710 0.787321
C37_2 C 0.2920(2) 0.0458(3) 0.7473(2)
H18_2 H 0.277368 0.060371 0.749018
C38_2 C 0.2939(2) 0.0290(3) 0.7221(2)
C39_2 C 0.3153(3) 0.0076(3) 0.7197(2)
C40_2 C 0.3348(2) 0.0030(3) 0.7425(3)
Mn4_2 Mn 0.52347(3) 0.03215(3) 0.85587(2)
Mn5_2 Mn 0.02347(3) 0.03215(3) 0.64413(2)
Mn7_2 Mn 0.53584(3) 0.04593(3) 0.79124(3)
Mn8_2 Mn 0.03584(3) 0.04593(3) 0.70876(3)
O15_2 O 0.13942(17) 0.06840(13) 0.45954(15)
O16_2 O 0.1883(2) 0.07650(14) 0.45400(15)
H21_2 H 0.090651 0.0322116 0.486461
H22_2 H 0.0892442 0.00930666 0.459499
H23_2 H 0.265404 0.0339106 0.454154
H24_2 H 0.254842 0.0473378 0.423143
C8_2 C 0.33778(16) 0.98703(16) 0.87323(12)
C9_2 C 0.36546(13) 0.99565(15) 0.86425(13)
H4_2 H 0.381025 0.996429 0.877940
C12_2 C 0.31990(13) 0.99336(19) 0.82421(15)
H5_2 H 0.304335 0.992577 0.810521
C13_2 C 0.31500(12) 0.98588(18) 0.85321(16)
H6_2 H 0.296081 0.979995 0.859347
C27_2 C 0.3303(3) 0.9797(2) 0.9057(3)
H13_2 H 0.279595 0.996797 0.676068
H19_2 H 0.316540 0.996097 0.702484
H20_2 H 0.349472 0.988436 0.740787
O13_2 O 0.16277(19) 0.98105(15) 0.47319(15)
O14_2 O 0.21154(17) 0.99237(19) 0.45854(17)
Mn4_3 Mn 0.02347(3) 0.46785(3) 0.14413(2)
Mn7_3 Mn 0.03584(3) 0.45407(3) 0.20876(3)
Mn1_2 Mn 0.64413(2) 0.47653(3) 0.53215(3)
Mn2_2 Mn 0.70876(3) 0.46416(3) 0.54593(3)
O1_3 O 0.66082(17) 0.46639(13) 0.49204(13)
O2_3 O 0.71057(16) 0.46088(16) 0.5025(2)
O3_2 O 0.85430(18) 0.51679(13) 0.07813(15)
O4_2 O 0.8066(2) 0.52891(16) 0.08728(15)
O5_3 O 0.98105(15) 0.47319(15) 0.16277(19)
O6_3 O 0.99237(19) 0.45854(17) 0.21154(17)
O7_3 O 0.56840(13) 0.45954(15) 0.36058(17)
O8_3 O 0.57650(14) 0.45400(15) 0.3117(2)
O9_3 O 0.75177(19) 0.4522(3) 0.5554(3)
O10_3 O 0.59977(18) 0.4854(2) 0.5223(2)
N1_3 N 0.8560(2) 0.4881(3) 0.21066(18)
N2_3 N 0.70511(16) 0.4509(2) 0.36210(16)
C1_3 C 0.9754(3) 0.4664(2) 0.1924(3)
C2_3 C 0.94382(11) 0.47211(16) 0.19721(15)
C3_3 C 0.92509(15) 0.48309(15) 0.17601(12)
H1_3 H 0.932352 0.487695 0.157133
C4_3 C 0.89573(14) 0.48732(16) 0.18242(12)
C5_3 C 0.88510(11) 0.48058(18) 0.21003(14)
C6_3 C 0.90383(15) 0.46961(18) 0.23124(11)
H2_3 H 0.896564 0.464998 0.250114
C7_3 C 0.93319(14) 0.46537(17) 0.22483(13)
H3_3 H 0.945992 0.457870 0.239325
C8_3 C 0.83778(16) 0.51297(16) 0.12677(12)
C9_3 C 0.86546(13) 0.50435(15) 0.13575(13)
H4_3 H 0.881025 0.503571 0.122060
C10_3 C 0.87036(12) 0.49688(16) 0.16475(14)
C11_3 C 0.84758(15) 0.49802(18) 0.18477(11)
C12_3 C 0.81990(13) 0.50664(19) 0.17579(15)
H5_3 H 0.804335 0.507423 0.189479
C13_3 C 0.81500(12) 0.51412(18) 0.14679(16)
H6_3 H 0.796081 0.520005 0.140653
C14_3 C 0.61739(10) 0.45456(17) 0.34272(15)
C15_3 C 0.62760(12) 0.45556(16) 0.37129(13)
H7_3 H 0.614182 0.456879 0.387054
C16_3 C 0.65743(13) 0.45462(18) 0.37679(11)
C17_3 C 0.67706(10) 0.45269(19) 0.35372(15)
C18_3 C 0.66685(13) 0.45170(19) 0.32516(13)
H8_3 H 0.680269 0.450376 0.309391
C19_3 C 0.63702(14) 0.45263(18) 0.31966(12)
H9_3 H 0.630048 0.451951 0.300134
C20_3 C 0.6885(3) 0.4642(2) 0.4834(3)
C21_3 C 0.69335(13) 0.46086(17) 0.45169(10)
C22_3 C 0.72197(11) 0.45985(18) 0.44164(13)
H10_3 H 0.737727 0.460564 0.455107
C23_3 C 0.72753(10) 0.45780(19) 0.41187(14)
H11_3 H 0.747093 0.457104 0.405001
C24_3 C 0.70448(13) 0.4568(2) 0.39216(10)
C25_3 C 0.67586(11) 0.45776(18) 0.40221(12)
C26_3 C 0.67030(10) 0.45982(16) 0.43198(13)
H12_3 H 0.650739 0.460511 0.438848
C27_3 C 0.8303(3) 0.5203(2) 0.0943(3)
C28_3 C 0.5847(3) 0.4561(2) 0.3393(3)
C29_3 C 0.77479(17) 0.4638(2) 0.30383(17)
C30_3 C 0.7686(2) 0.4856(2) 0.3240(2)
H13_3 H 0.779595 0.503203 0.323932
C31_3 C 0.7465(2) 0.4816(2) 0.34437(18)
H14_3 H 0.742271 0.496520 0.358175
C32_3 C 0.73045(16) 0.4558(2) 0.34451(16)
C33_3 C 0.73659(18) 0.4340(2) 0.3243(2)
H15_3 H 0.725637 0.416429 0.324415
C34_3 C 0.75876(19) 0.4380(2) 0.30398(17)
H16_3 H 0.762961 0.423112 0.290172
C35_3 C 0.8330(2) 0.4801(3) 0.2323(2)
C36_3 C 0.8116(2) 0.4588(3) 0.22990(19)
H17_3 H 0.810299 0.447290 0.212679
C37_3 C 0.7920(2) 0.4542(3) 0.2527(2)
H18_3 H 0.777368 0.439629 0.250982
C38_3 C 0.7939(2) 0.4710(3) 0.2779(2)
C39_3 C 0.8153(3) 0.4924(3) 0.2803(2)
H19_3 H 0.816540 0.503903 0.297516
C40_3 C 0.8348(2) 0.4970(3) 0.2575(3)
H20_3 H 0.849472 0.511564 0.259213
Mn3_2 Mn 0.85587(2) 0.52347(3) 0.03215(3)
Mn5_3 Mn 0.52347(3) 0.46785(3) 0.35587(2)
Mn6_2 Mn 0.79124(3) 0.53584(3) 0.04593(3)
Mn8_3 Mn 0.53584(3) 0.45407(3) 0.29124(3)
O11_2 O 0.64570(18) 0.48321(13) 0.57813(15)
O12_2 O 0.6934(2) 0.47109(16) 0.58728(15)
O13_3 O 0.66277(19) 0.51895(15) 0.52681(15)
O14_3 O 0.71154(17) 0.50763(19) 0.54146(17)
O15_3 O 0.63942(17) 0.43160(13) 0.54046(15)
O16_3 O 0.6883(2) 0.42350(14) 0.54600(15)
H21_3 H 0.590651 0.467788 0.513539
H22_3 H 0.589244 0.490693 0.540501
H23_3 H 0.765404 0.466089 0.545846
H24_3 H 0.754842 0.452662 0.576857
O2_4 O 0.78943(16) 0.53912(16) 0.0025(2)
O9_4 O 0.74823(19) 0.5478(3) 0.0554(3)
O10_4 O 0.90023(18) 0.5146(2) 0.0223(2)
O13_4 O 0.83723(19) 0.48105(15) 0.02681(15)
O14_4 O 0.78846(17) 0.49237(19) 0.04146(17)
O15_4 O 0.86058(17) 0.56840(13) 0.04046(15)
O16_4 O 0.8117(2) 0.57650(14) 0.04600(15)
H21_4 H 0.909349 0.532212 0.0135392
H22_4 H 0.910756 0.509307 0.0405007
H23_4 H 0.734596 0.533911 0.0458463
H24_4 H 0.745158 0.547338 0.0768575
O1_4 O 0.83918(17) 0.53361(13) 0.99204(13)
O5_4 O 0.51895(15) 0.52681(15) 0.66277(19)
O6_4 O 0.50763(19) 0.54146(17) 0.71154(17)
O7_4 O 0.93160(13) 0.54046(15) 0.86058(17)
O8_4 O 0.92350(14) 0.54600(15) 0.8117(2)
N1_4 N 0.6440(2) 0.5119(3) 0.71066(18)
N2_4 N 0.79489(16) 0.5491(2) 0.86210(16)
C1_4 C 0.5246(3) 0.5336(2) 0.6924(3)
C2_4 C 0.55618(11) 0.52789(16) 0.69721(15)
C3_4 C 0.57491(15) 0.51691(15) 0.67601(12)
H1_4 H 0.567648 0.512305 0.657133
C4_4 C 0.60427(14) 0.51268(16) 0.68242(12)
C5_4 C 0.61490(11) 0.51942(18) 0.71003(14)
C6_4 C 0.59617(15) 0.53039(18) 0.73124(11)
H2_4 H 0.603436 0.535002 0.750114
C7_4 C 0.56681(14) 0.53463(17) 0.72483(13)
H3_4 H 0.554008 0.542130 0.739325
C8_4 C 0.66222(16) 0.48703(16) 0.62677(12)
C9_4 C 0.63454(13) 0.49565(15) 0.63575(13)
H4_4 H 0.618975 0.496429 0.622060
C10_4 C 0.62964(12) 0.50312(16) 0.66475(14)
C11_4 C 0.65242(15) 0.50198(18) 0.68477(11)
C12_4 C 0.68010(13) 0.49336(19) 0.67579(15)
H5_4 H 0.695665 0.492577 0.689479
C13_4 C 0.68500(12) 0.48588(18) 0.64679(16)
H6_4 H 0.703919 0.479995 0.640653
C14_4 C 0.88261(10) 0.54544(17) 0.84272(15)
C15_4 C 0.87240(12) 0.54444(16) 0.87129(13)
H7_4 H 0.885818 0.543121 0.887054
C16_4 C 0.84257(13) 0.54538(18) 0.87679(11)
C17_4 C 0.82294(10) 0.54731(19) 0.85372(15)
C18_4 C 0.83315(13) 0.54830(19) 0.82516(13)
H8_4 H 0.819731 0.549624 0.809391
C19_4 C 0.86298(14) 0.54737(18) 0.81966(12)
H9_4 H 0.869952 0.548049 0.800134
C20_4 C 0.8115(3) 0.5358(2) 0.9834(3)
C21_4 C 0.80665(13) 0.53914(17) 0.95169(10)
C22_4 C 0.77803(11) 0.54015(18) 0.94164(13)
H10_4 H 0.762273 0.539436 0.955107
C23_4 C 0.77247(10) 0.54220(19) 0.91187(14)
H11_4 H 0.752907 0.542896 0.905001
C24_4 C 0.79552(13) 0.5432(2) 0.89216(10)
C25_4 C 0.82414(11) 0.54224(18) 0.90221(12)
C26_4 C 0.82970(10) 0.54018(16) 0.93198(13)
H12_4 H 0.849261 0.539489 0.938848
C27_4 C 0.6697(3) 0.4797(2) 0.5943(3)
C28_4 C 0.9153(3) 0.5439(2) 0.8393(3)
C29_4 C 0.72521(17) 0.5362(2) 0.80383(17)
C30_4 C 0.7314(2) 0.5144(2) 0.8240(2)
H13_4 H 0.720405 0.496797 0.823932
C31_4 C 0.7535(2) 0.5184(2) 0.84437(18)
H14_4 H 0.757729 0.503480 0.858175
C32_4 C 0.76955(16) 0.5442(2) 0.84451(16)
C33_4 C 0.76341(18) 0.5660(2) 0.8243(2)
H15_4 H 0.774363 0.583571 0.824415
C34_4 C 0.74124(19) 0.5620(2) 0.80398(17)
H16_4 H 0.737039 0.576888 0.790172
C35_4 C 0.6670(2) 0.5199(3) 0.7323(2)
C36_4 C 0.6884(2) 0.5412(3) 0.72990(19)
H17_4 H 0.689701 0.552710 0.712679
C37_4 C 0.7080(2) 0.5458(3) 0.7527(2)
H18_4 H 0.722632 0.560371 0.750982
C38_4 C 0.7061(2) 0.5290(3) 0.7779(2)
C39_4 C 0.6847(3) 0.5076(3) 0.7803(2)
H19_4 H 0.683460 0.496097 0.797516
C40_4 C 0.6652(2) 0.5030(3) 0.7575(3)
H20_4 H 0.650528 0.488436 0.759213
Mn4_4 Mn 0.47653(3) 0.53215(3) 0.64413(2)
Mn5_4 Mn 0.97653(3) 0.53215(3) 0.85587(2)
Mn7_4 Mn 0.46416(3) 0.54593(3) 0.70876(3)
Mn8_4 Mn 0.96416(3) 0.54593(3) 0.79124(3)
O3_3 O 0.42187(15) 0.14570(18) 0.01679(13)
O4_3 O 0.41272(15) 0.1934(2) 0.02891(16)
C8_5 C 0.37323(12) 0.16222(16) 0.01297(16)
C9_5 C 0.36425(13) 0.13454(13) 0.00435(15)
H4_5 H 0.377940 0.118975 0.003571
C12_5 C 0.32421(15) 0.18010(13) 0.00664(19)
H5_5 H 0.310521 0.195665 0.007423
C13_5 C 0.35321(16) 0.18500(12) 0.01412(18)
H6_5 H 0.359347 0.203919 0.020005
C27_5 C 0.4057(3) 0.1697(3) 0.0203(2)
H13_5 H 0.176068 0.220405 0.003203
H19_5 H 0.202484 0.183460 0.003903
H20_5 H 0.240787 0.150528 0.011564
Mn3_3 Mn 0.46785(3) 0.14413(2) 0.02347(3)
Mn6_3 Mn 0.45407(3) 0.20876(3) 0.03584(3)
O1_5 O 0.00796(13) 0.33918(17) 0.96639(13)
O7_5 O 0.13942(17) 0.43160(13) 0.95954(15)
O8_5 O 0.1883(2) 0.42350(14) 0.95400(15)
N1_5 N 0.28934(18) 0.1440(2) 0.9881(3)
N2_5 N 0.13790(16) 0.29489(16) 0.9509(2)
C1_5 C 0.3076(3) 0.0246(3) 0.9664(2)
C2_5 C 0.30279(15) 0.05618(11) 0.97211(16)
C3_5 C 0.32399(12) 0.07491(15) 0.98309(15)
H1_5 H 0.342867 0.067648 0.987695
C4_5 C 0.31758(12) 0.10427(14) 0.98732(16)
C5_5 C 0.28997(14) 0.11490(11) 0.98058(18)
C6_5 C 0.26876(11) 0.09617(15) 0.96961(18)
H2_5 H 0.249886 0.103436 0.964998
C7_5 C 0.27517(13) 0.06681(14) 0.96537(17)
H3_5 H 0.260675 0.054008 0.957870
C10_5 C 0.33525(14) 0.12964(12) 0.99688(16)
C11_5 C 0.31523(11) 0.15242(15) 0.99802(18)
C14_5 C 0.15728(15) 0.38261(10) 0.95456(17)
C15_5 C 0.12871(13) 0.37240(12) 0.95556(16)
H7_5 H 0.112946 0.385818 0.956879
C16_5 C 0.12321(11) 0.34257(13) 0.95462(18)
C17_5 C 0.14628(15) 0.32294(10) 0.95269(19)
C18_5 C 0.17484(13) 0.33315(13) 0.95170(19)
H8_5 H 0.190609 0.319731 0.950376
C19_5 C 0.18034(12) 0.36298(14) 0.95263(18)
H9_5 H 0.199866 0.369952 0.951951
C20_5 C 0.0166(3) 0.3115(3) 0.9642(2)
C21_5 C 0.04831(10) 0.30665(13) 0.96086(17)
C22_5 C 0.05836(13) 0.27803(11) 0.95985(18)
H10_5 H 0.044893 0.262273 0.960564
C23_5 C 0.08813(14) 0.27247(10) 0.95780(19)
H11_5 H 0.094999 0.252907 0.957104
C24_5 C 0.10784(10) 0.29552(13) 0.9568(2)
C25_5 C 0.09779(12) 0.32414(11) 0.95776(18)
C26_5 C 0.06802(13) 0.32970(10) 0.95982(16)
H12_5 H 0.061152 0.349261 0.960511
C28_5 C 0.1607(3) 0.4153(3) 0.9561(2)
C29_5 C 0.19617(17) 0.22521(17) 0.9638(2)
C30_5 C 0.1760(2) 0.2314(2) 0.9856(2)
C31_5 C 0.15563(18) 0.2535(2) 0.9816(2)
H14_5 H 0.141825 0.257729 0.996520
C32_5 C 0.15549(16) 0.26955(16) 0.9558(2)
C33_5 C 0.1757(2) 0.26341(18) 0.9340(2)
H15_5 H 0.175585 0.274363 0.916429
C34_5 C 0.19602(17) 0.24124(19) 0.9380(2)
H16_5 H 0.209828 0.237039 0.923112
C35_5 C 0.2677(2) 0.1670(2) 0.9801(3)
C36_5 C 0.27010(19) 0.1884(2) 0.9588(3)
H17_5 H 0.287321 0.189701 0.947290
C37_5 C 0.2473(2) 0.2080(2) 0.9542(3)
H18_5 H 0.249018 0.222632 0.939629
C38_5 C 0.2221(2) 0.2061(2) 0.9710(3)
C39_5 C 0.2197(2) 0.1847(3) 0.9924(3)
C40_5 C 0.2425(3) 0.1652(2) 0.9970(3)
Mn5_5 Mn 0.14413(2) 0.47653(3) 0.96785(3)
Mn8_5 Mn 0.20876(3) 0.46416(3) 0.95407(3)
O13_5 O 0.97319(15) 0.33723(19) 0.01895(15)
O14_5 O 0.95854(17) 0.28846(17) 0.00763(19)
Mn1_3 Mn 0.96785(3) 0.35587(2) 0.97653(3)
Mn2_3 Mn 0.95407(3) 0.29124(3) 0.96416(3)
O2_5 O 0.9975(2) 0.28943(16) 0.96088(16)
O9_5 O 0.9446(3) 0.24823(19) 0.9522(3)
O10_5 O 0.9777(2) 0.40023(18) 0.9854(2)
O11_3 O 0.92187(15) 0.35430(18) 0.98321(13)
O12_3 O 0.91272(15) 0.3066(2) 0.97109(16)
O15_5 O 0.95954(15) 0.36058(17) 0.93160(13)
O16_5 O 0.95400(15) 0.3117(2) 0.92350(14)
H21_5 H 0.986461 0.409349 0.967788
H22_5 H 0.959499 0.410756 0.990693
H23_5 H 0.954154 0.234596 0.966089
H24_5 H 0.923143 0.245158 0.952662
O1_6 O 0.50796(13) 0.16082(17) 0.03361(13)
O2_6 O 0.4975(2) 0.21057(16) 0.03912(16)
O7_6 O 0.63942(17) 0.06840(13) 0.04046(15)
O8_6 O 0.6883(2) 0.07650(14) 0.04600(15)
O9_6 O 0.4446(3) 0.25177(19) 0.0478(3)
O10_6 O 0.4777(2) 0.09977(18) 0.0146(2)
N1_6 N 0.78934(18) 0.3560(2) 0.0119(3)
N2_6 N 0.63790(16) 0.20511(16) 0.0491(2)
C1_6 C 0.8076(3) 0.4754(3) 0.0336(2)
C2_6 C 0.80279(15) 0.44382(11) 0.02789(16)
C3_6 C 0.82399(12) 0.42509(15) 0.01691(15)
H1_6 H 0.842867 0.432352 0.012305
C4_6 C 0.81758(12) 0.39573(14) 0.01268(16)
C5_6 C 0.78997(14) 0.38510(11) 0.01942(18)
C6_6 C 0.76876(11) 0.40383(15) 0.03039(18)
H2_6 H 0.749886 0.396564 0.035002
C7_6 C 0.77517(13) 0.43319(14) 0.03463(17)
H3_6 H 0.760675 0.445992 0.042130
C10_6 C 0.83525(14) 0.37036(12) 0.00312(16)
C11_6 C 0.81523(11) 0.34758(15) 0.00198(18)
C14_6 C 0.65728(15) 0.11739(10) 0.04544(17)
C15_6 C 0.62871(13) 0.12760(12) 0.04444(16)
H7_6 H 0.612946 0.114182 0.043121
C16_6 C 0.62321(11) 0.15743(13) 0.04538(18)
C17_6 C 0.64628(15) 0.17706(10) 0.04731(19)
C18_6 C 0.67484(13) 0.16685(13) 0.04830(19)
H8_6 H 0.690609 0.180269 0.049624
C19_6 C 0.68034(12) 0.13702(14) 0.04737(18)
H9_6 H 0.699866 0.130048 0.048049
C20_6 C 0.5166(3) 0.1885(3) 0.0358(2)
C21_6 C 0.54831(10) 0.19335(13) 0.03914(17)
C22_6 C 0.55836(13) 0.22197(11) 0.04015(18)
H10_6 H 0.544893 0.237727 0.039436
C23_6 C 0.58813(14) 0.22753(10) 0.04220(19)
H11_6 H 0.594999 0.247093 0.042896
C24_6 C 0.60784(10) 0.20448(13) 0.0432(2)
C25_6 C 0.59779(12) 0.17586(11) 0.04224(18)
C26_6 C 0.56802(13) 0.17030(10) 0.04018(16)
H12_6 H 0.561152 0.150739 0.039489
C28_6 C 0.6607(3) 0.0847(3) 0.0439(2)
C29_6 C 0.69617(17) 0.27479(17) 0.0362(2)
C30_6 C 0.6760(2) 0.2686(2) 0.0144(2)
C31_6 C 0.65563(18) 0.2465(2) 0.0184(2)
H14_6 H 0.641825 0.242271 0.003480
C32_6 C 0.65549(16) 0.23045(16) 0.0442(2)
C33_6 C 0.6757(2) 0.23659(18) 0.0660(2)
H15_6 H 0.675585 0.225637 0.083571
C34_6 C 0.69602(17) 0.25876(19) 0.0620(2)
H16_6 H 0.709828 0.262961 0.076888
C35_6 C 0.7677(2) 0.3330(2) 0.0199(3)
C36_6 C 0.77010(19) 0.3116(2) 0.0412(3)
H17_6 H 0.787321 0.310299 0.052710
C37_6 C 0.7473(2) 0.2920(2) 0.0458(3)
H18_6 H 0.749018 0.277368 0.060371
C38_6 C 0.7221(2) 0.2939(2) 0.0290(3)
C39_6 C 0.7197(2) 0.3153(3) 0.0076(3)
C40_6 C 0.7425(3) 0.3348(2) 0.0030(3)
Mn5_6 Mn 0.64413(2) 0.02347(3) 0.03215(3)
Mn8_6 Mn 0.70876(3) 0.03584(3) 0.04593(3)
O15_6 O 0.45954(15) 0.13942(17) 0.06840(13)
O16_6 O 0.45400(15) 0.1883(2) 0.07650(14)
H21_6 H 0.486461 0.090651 0.0322116
H22_6 H 0.459499 0.0892442 0.00930666
H23_6 H 0.454154 0.265404 0.0339106
H24_6 H 0.423143 0.254842 0.0473378
C8_6 C 0.87323(12) 0.33778(16) 0.98703(16)
C9_6 C 0.86425(13) 0.36546(13) 0.99565(15)
H4_6 H 0.877940 0.381025 0.996429
C12_6 C 0.82421(15) 0.31990(13) 0.99336(19)
H5_6 H 0.810521 0.304335 0.992577
C13_6 C 0.85321(16) 0.31500(12) 0.98588(18)
H6_6 H 0.859347 0.296081 0.979995
C27_6 C 0.9057(3) 0.3303(3) 0.9797(2)
H13_6 H 0.676068 0.279595 0.996797
H19_6 H 0.702484 0.316540 0.996097
H20_6 H 0.740787 0.349472 0.988436
O13_6 O 0.47319(15) 0.16277(19) 0.98105(15)
O14_6 O 0.45854(17) 0.21154(17) 0.99237(19)
Mn1_4 Mn 0.53215(3) 0.64413(2) 0.47653(3)
Mn2_4 Mn 0.54593(3) 0.70876(3) 0.46416(3)
O1_7 O 0.49204(13) 0.66082(17) 0.46639(13)
O2_7 O 0.5025(2) 0.71057(16) 0.46088(16)
O3_4 O 0.07813(15) 0.85430(18) 0.51679(13)
O4_4 O 0.08728(15) 0.8066(2) 0.52891(16)
O7_7 O 0.36058(17) 0.56840(13) 0.45954(15)
O8_7 O 0.3117(2) 0.57650(14) 0.45400(15)
O9_7 O 0.5554(3) 0.75177(19) 0.4522(3)
O10_7 O 0.5223(2) 0.59977(18) 0.4854(2)
N1_7 N 0.21066(18) 0.8560(2) 0.4881(3)
N2_7 N 0.36210(16) 0.70511(16) 0.4509(2)
C1_7 C 0.1924(3) 0.9754(3) 0.4664(2)
C2_7 C 0.19721(15) 0.94382(11) 0.47211(16)
C3_7 C 0.17601(12) 0.92509(15) 0.48309(15)
H1_7 H 0.157133 0.932352 0.487695
C4_7 C 0.18242(12) 0.89573(14) 0.48732(16)
C5_7 C 0.21003(14) 0.88510(11) 0.48058(18)
C6_7 C 0.23124(11) 0.90383(15) 0.46961(18)
H2_7 H 0.250114 0.896564 0.464998
C7_7 C 0.22483(13) 0.93319(14) 0.46537(17)
H3_7 H 0.239325 0.945992 0.457870
C8_7 C 0.12677(12) 0.83778(16) 0.51297(16)
C9_7 C 0.13575(13) 0.86546(13) 0.50435(15)
H4_7 H 0.122060 0.881025 0.503571
C10_7 C 0.16475(14) 0.87036(12) 0.49688(16)
C11_7 C 0.18477(11) 0.84758(15) 0.49802(18)
C12_7 C 0.17579(15) 0.81990(13) 0.50664(19)
H5_7 H 0.189479 0.804335 0.507423
C13_7 C 0.14679(16) 0.81500(12) 0.51412(18)
H6_7 H 0.140653 0.796081 0.520005
C14_7 C 0.34272(15) 0.61739(10) 0.45456(17)
C15_7 C 0.37129(13) 0.62760(12) 0.45556(16)
H7_7 H 0.387054 0.614182 0.456879
C16_7 C 0.37679(11) 0.65743(13) 0.45462(18)
C17_7 C 0.35372(15) 0.67706(10) 0.45269(19)
C18_7 C 0.32516(13) 0.66685(13) 0.45170(19)
H8_7 H 0.309391 0.680269 0.450376
C19_7 C 0.31966(12) 0.63702(14) 0.45263(18)
H9_7 H 0.300134 0.630048 0.451951
C20_7 C 0.4834(3) 0.6885(3) 0.4642(2)
C21_7 C 0.45169(10) 0.69335(13) 0.46086(17)
C22_7 C 0.44164(13) 0.72197(11) 0.45985(18)
H10_7 H 0.455107 0.737727 0.460564
C23_7 C 0.41187(14) 0.72753(10) 0.45780(19)
H11_7 H 0.405001 0.747093 0.457104
C24_7 C 0.39216(10) 0.70448(13) 0.4568(2)
C25_7 C 0.40221(12) 0.67586(11) 0.45776(18)
C26_7 C 0.43198(13) 0.67030(10) 0.45982(16)
H12_7 H 0.438848 0.650739 0.460511
C27_7 C 0.0943(3) 0.8303(3) 0.5203(2)
C28_7 C 0.3393(3) 0.5847(3) 0.4561(2)
C29_7 C 0.30383(17) 0.77479(17) 0.4638(2)
C30_7 C 0.3240(2) 0.7686(2) 0.4856(2)
H13_7 H 0.323932 0.779595 0.503203
C31_7 C 0.34437(18) 0.7465(2) 0.4816(2)
H14_7 H 0.358175 0.742271 0.496520
C32_7 C 0.34451(16) 0.73045(16) 0.4558(2)
C33_7 C 0.3243(2) 0.73659(18) 0.4340(2)
H15_7 H 0.324415 0.725637 0.416429
C34_7 C 0.30398(17) 0.75876(19) 0.4380(2)
H16_7 H 0.290172 0.762961 0.423112
C35_7 C 0.2323(2) 0.8330(2) 0.4801(3)
C36_7 C 0.22990(19) 0.8116(2) 0.4588(3)
H17_7 H 0.212679 0.810299 0.447290
C37_7 C 0.2527(2) 0.7920(2) 0.4542(3)
H18_7 H 0.250982 0.777368 0.439629
C38_7 C 0.2779(2) 0.7939(2) 0.4710(3)
C39_7 C 0.2803(2) 0.8153(3) 0.4924(3)
H19_7 H 0.297516 0.816540 0.503903
C40_7 C 0.2575(3) 0.8348(2) 0.4970(3)
H20_7 H 0.259213 0.849472 0.511564
Mn3_4 Mn 0.03215(3) 0.85587(2) 0.52347(3)
Mn5_7 Mn 0.35587(2) 0.52347(3) 0.46785(3)
Mn6_4 Mn 0.04593(3) 0.79124(3) 0.53584(3)
Mn8_7 Mn 0.29124(3) 0.53584(3) 0.45407(3)
O11_4 O 0.57813(15) 0.64570(18) 0.48321(13)
O12_4 O 0.58728(15) 0.6934(2) 0.47109(16)
O13_7 O 0.52681(15) 0.66277(19) 0.51895(15)
O14_7 O 0.54146(17) 0.71154(17) 0.50763(19)
O15_7 O 0.54046(15) 0.63942(17) 0.43160(13)
O16_7 O 0.54600(15) 0.6883(2) 0.42350(14)
H21_7 H 0.513539 0.590651 0.467788
H22_7 H 0.540501 0.589244 0.490693
H23_7 H 0.545846 0.765404 0.466089
H24_7 H 0.576857 0.754842 0.452662
O2_8 O 0.0025(2) 0.78943(16) 0.53912(16)
O9_8 O 0.0554(3) 0.74823(19) 0.5478(3)
O10_8 O 0.0223(2) 0.90023(18) 0.5146(2)
O13_8 O 0.02681(15) 0.83723(19) 0.48105(15)
O14_8 O 0.04146(17) 0.78846(17) 0.49237(19)
O15_8 O 0.04046(15) 0.86058(17) 0.56840(13)
O16_8 O 0.04600(15) 0.8117(2) 0.57650(14)
H21_8 H 0.0135392 0.909349 0.532212
H22_8 H 0.0405007 0.910756 0.509307
H23_8 H 0.0458463 0.734596 0.533911
H24_8 H 0.0768575 0.745158 0.547338
O1_8 O 0.99204(13) 0.83918(17) 0.53361(13)
O7_8 O 0.86058(17) 0.93160(13) 0.54046(15)
O8_8 O 0.8117(2) 0.92350(14) 0.54600(15)
N1_8 N 0.71066(18) 0.6440(2) 0.5119(3)
N2_8 N 0.86210(16) 0.79489(16) 0.5491(2)
C1_8 C 0.6924(3) 0.5246(3) 0.5336(2)
C2_8 C 0.69721(15) 0.55618(11) 0.52789(16)
C3_8 C 0.67601(12) 0.57491(15) 0.51691(15)
H1_8 H 0.657133 0.567648 0.512305
C4_8 C 0.68242(12) 0.60427(14) 0.51268(16)
C5_8 C 0.71003(14) 0.61490(11) 0.51942(18)
C6_8 C 0.73124(11) 0.59617(15) 0.53039(18)
H2_8 H 0.750114 0.603436 0.535002
C7_8 C 0.72483(13) 0.56681(14) 0.53463(17)
H3_8 H 0.739325 0.554008 0.542130
C8_8 C 0.62677(12) 0.66222(16) 0.48703(16)
C9_8 C 0.63575(13) 0.63454(13) 0.49565(15)
H4_8 H 0.622060 0.618975 0.496429
C10_8 C 0.66475(14) 0.62964(12) 0.50312(16)
C11_8 C 0.68477(11) 0.65242(15) 0.50198(18)
C12_8 C 0.67579(15) 0.68010(13) 0.49336(19)
H5_8 H 0.689479 0.695665 0.492577
C13_8 C 0.64679(16) 0.68500(12) 0.48588(18)
H6_8 H 0.640653 0.703919 0.479995
C14_8 C 0.84272(15) 0.88261(10) 0.54544(17)
C15_8 C 0.87129(13) 0.87240(12) 0.54444(16)
H7_8 H 0.887054 0.885818 0.543121
C16_8 C 0.87679(11) 0.84257(13) 0.54538(18)
C17_8 C 0.85372(15) 0.82294(10) 0.54731(19)
C18_8 C 0.82516(13) 0.83315(13) 0.54830(19)
H8_8 H 0.809391 0.819731 0.549624
C19_8 C 0.81966(12) 0.86298(14) 0.54737(18)
H9_8 H 0.800134 0.869952 0.548049
C20_8 C 0.9834(3) 0.8115(3) 0.5358(2)
C21_8 C 0.95169(10) 0.80665(13) 0.53914(17)
C22_8 C 0.94164(13) 0.77803(11) 0.54015(18)
H10_8 H 0.955107 0.762273 0.539436
C23_8 C 0.91187(14) 0.77247(10) 0.54220(19)
H11_8 H 0.905001 0.752907 0.542896
C24_8 C 0.89216(10) 0.79552(13) 0.5432(2)
C25_8 C 0.90221(12) 0.82414(11) 0.54224(18)
C26_8 C 0.93198(13) 0.82970(10) 0.54018(16)
H12_8 H 0.938848 0.849261 0.539489
C27_8 C 0.5943(3) 0.6697(3) 0.4797(2)
C28_8 C 0.8393(3) 0.9153(3) 0.5439(2)
C29_8 C 0.80383(17) 0.72521(17) 0.5362(2)
C30_8 C 0.8240(2) 0.7314(2) 0.5144(2)
H13_8 H 0.823932 0.720405 0.496797
C31_8 C 0.84437(18) 0.7535(2) 0.5184(2)
H14_8 H 0.858175 0.757729 0.503480
C32_8 C 0.84451(16) 0.76955(16) 0.5442(2)
C33_8 C 0.8243(2) 0.76341(18) 0.5660(2)
H15_8 H 0.824415 0.774363 0.583571
C34_8 C 0.80398(17) 0.74124(19) 0.5620(2)
H16_8 H 0.790172 0.737039 0.576888
C35_8 C 0.7323(2) 0.6670(2) 0.5199(3)
C36_8 C 0.72990(19) 0.6884(2) 0.5412(3)
H17_8 H 0.712679 0.689701 0.552710
C37_8 C 0.7527(2) 0.7080(2) 0.5458(3)
H18_8 H 0.750982 0.722632 0.560371
C38_8 C 0.7779(2) 0.7061(2) 0.5290(3)
C39_8 C 0.7803(2) 0.6847(3) 0.5076(3)
H19_8 H 0.797516 0.683460 0.496097
C40_8 C 0.7575(3) 0.6652(2) 0.5030(3)
H20_8 H 0.759213 0.650528 0.488436
Mn5_8 Mn 0.85587(2) 0.97653(3) 0.53215(3)
Mn8_8 Mn 0.79124(3) 0.96416(3) 0.54593(3)
O3_5 O 0.01679(13) 0.42187(15) 0.14570(18)
O4_5 O 0.02891(16) 0.41272(15) 0.1934(2)
C8_9 C 0.01297(16) 0.37323(12) 0.16222(16)
C9_9 C 0.00435(15) 0.36425(13) 0.13454(13)
H4_9 H 0.003571 0.377940 0.118975
C12_9 C 0.00664(19) 0.32421(15) 0.18010(13)
H5_9 H 0.007423 0.310521 0.195665
C13_9 C 0.01412(18) 0.35321(16) 0.18500(12)
H6_9 H 0.020005 0.359347 0.203919
C27_9 C 0.0203(2) 0.4057(3) 0.1697(3)
H13_9 H 0.003203 0.176068 0.220405
H19_9 H 0.003903 0.202484 0.183460
H20_9 H 0.011564 0.240787 0.150528
O1_9 O 0.96639(13) 0.00796(13) 0.33918(17)
O7_9 O 0.95954(15) 0.13942(17) 0.43160(13)
O8_9 O 0.95400(15) 0.1883(2) 0.42350(14)
N1_9 N 0.9881(3) 0.28934(18) 0.1440(2)
N2_9 N 0.9509(2) 0.13790(16) 0.29489(16)
C1_9 C 0.9664(2) 0.3076(3) 0.0246(3)
C2_9 C 0.97211(16) 0.30279(15) 0.05618(11)
C3_9 C 0.98309(15) 0.32399(12) 0.07491(15)
H1_9 H 0.987695 0.342867 0.067648
C4_9 C 0.98732(16) 0.31758(12) 0.10427(14)
C5_9 C 0.98058(18) 0.28997(14) 0.11490(11)
C6_9 C 0.96961(18) 0.26876(11) 0.09617(15)
H2_9 H 0.964998 0.249886 0.103436
C7_9 C 0.96537(17) 0.27517(13) 0.06681(14)
H3_9 H 0.957870 0.260675 0.054008
C10_9 C 0.99688(16) 0.33525(14) 0.12964(12)
C11_9 C 0.99802(18) 0.31523(11) 0.15242(15)
C14_9 C 0.95456(17) 0.15728(15) 0.38261(10)
C15_9 C 0.95556(16) 0.12871(13) 0.37240(12)
H7_9 H 0.956879 0.112946 0.385818
C16_9 C 0.95462(18) 0.12321(11) 0.34257(13)
C17_9 C 0.95269(19) 0.14628(15) 0.32294(10)
C18_9 C 0.95170(19) 0.17484(13) 0.33315(13)
H8_9 H 0.950376 0.190609 0.319731
C19_9 C 0.95263(18) 0.18034(12) 0.36298(14)
H9_9 H 0.951951 0.199866 0.369952
C20_9 C 0.9642(2) 0.0166(3) 0.3115(3)
C21_9 C 0.96086(17) 0.04831(10) 0.30665(13)
C22_9 C 0.95985(18) 0.05836(13) 0.27803(11)
H10_9 H 0.960564 0.044893 0.262273
C23_9 C 0.95780(19) 0.08813(14) 0.27247(10)
H11_9 H 0.957104 0.094999 0.252907
C24_9 C 0.9568(2) 0.10784(10) 0.29552(13)
C25_9 C 0.95776(18) 0.09779(12) 0.32414(11)
C26_9 C 0.95982(16) 0.06802(13) 0.32970(10)
H12_9 H 0.960511 0.061152 0.349261
C28_9 C 0.9561(2) 0.1607(3) 0.4153(3)
C29_9 C 0.9638(2) 0.19617(17) 0.22521(17)
C30_9 C 0.9856(2) 0.1760(2) 0.2314(2)
C31_9 C 0.9816(2) 0.15563(18) 0.2535(2)
H14_9 H 0.996520 0.141825 0.257729
C32_9 C 0.9558(2) 0.15549(16) 0.26955(16)
C33_9 C 0.9340(2) 0.1757(2) 0.26341(18)
H15_9 H 0.916429 0.175585 0.274363
C34_9 C 0.9380(2) 0.19602(17) 0.24124(19)
H16_9 H 0.923112 0.209828 0.237039
C35_9 C 0.9801(3) 0.2677(2) 0.1670(2)
C36_9 C 0.9588(3) 0.27010(19) 0.1884(2)
H17_9 H 0.947290 0.287321 0.189701
C37_9 C 0.9542(3) 0.2473(2) 0.2080(2)
H18_9 H 0.939629 0.249018 0.222632
C38_9 C 0.9710(3) 0.2221(2) 0.2061(2)
C39_9 C 0.9924(3) 0.2197(2) 0.1847(3)
C40_9 C 0.9970(3) 0.2425(3) 0.1652(2)
Mn5_9 Mn 0.96785(3) 0.14413(2) 0.47653(3)
Mn8_9 Mn 0.95407(3) 0.20876(3) 0.46416(3)
O2_9 O 0.96088(16) 0.9975(2) 0.28943(16)
O9_9 O 0.9522(3) 0.9446(3) 0.24823(19)
O10_9 O 0.9854(2) 0.9777(2) 0.40023(18)
O11_5 O 0.98321(13) 0.92187(15) 0.35430(18)
O12_5 O 0.97109(16) 0.91272(15) 0.3066(2)
O15_9 O 0.93160(13) 0.95954(15) 0.36058(17)
O16_9 O 0.92350(14) 0.95400(15) 0.3117(2)
H21_9 H 0.967788 0.986461 0.409349
H22_9 H 0.990693 0.959499 0.410756
H23_9 H 0.966089 0.954154 0.234596
H24_9 H 0.952662 0.923143 0.245158
O1_10 O 0.03361(13) 0.50796(13) 0.16082(17)
O2_10 O 0.03912(16) 0.4975(2) 0.21057(16)
O7_10 O 0.04046(15) 0.63942(17) 0.06840(13)
O8_10 O 0.04600(15) 0.6883(2) 0.07650(14)
O9_10 O 0.0478(3) 0.4446(3) 0.25177(19)
O10_10 O 0.0146(2) 0.4777(2) 0.09977(18)
N1_10 N 0.0119(3) 0.78934(18) 0.3560(2)
N2_10 N 0.0491(2) 0.63790(16) 0.20511(16)
C1_10 C 0.0336(2) 0.8076(3) 0.4754(3)
C2_10 C 0.02789(16) 0.80279(15) 0.44382(11)
C3_10 C 0.01691(15) 0.82399(12) 0.42509(15)
H1_10 H 0.012305 0.842867 0.432352
C4_10 C 0.01268(16) 0.81758(12) 0.39573(14)
C5_10 C 0.01942(18) 0.78997(14) 0.38510(11)
C6_10 C 0.03039(18) 0.76876(11) 0.40383(15)
H2_10 H 0.035002 0.749886 0.396564
C7_10 C 0.03463(17) 0.77517(13) 0.43319(14)
H3_10 H 0.042130 0.760675 0.445992
C10_10 C 0.00312(16) 0.83525(14) 0.37036(12)
C11_10 C 0.00198(18) 0.81523(11) 0.34758(15)
C14_10 C 0.04544(17) 0.65728(15) 0.11739(10)
C15_10 C 0.04444(16) 0.62871(13) 0.12760(12)
H7_10 H 0.043121 0.612946 0.114182
C16_10 C 0.04538(18) 0.62321(11) 0.15743(13)
C17_10 C 0.04731(19) 0.64628(15) 0.17706(10)
C18_10 C 0.04830(19) 0.67484(13) 0.16685(13)
H8_10 H 0.049624 0.690609 0.180269
C19_10 C 0.04737(18) 0.68034(12) 0.13702(14)
H9_10 H 0.048049 0.699866 0.130048
C20_10 C 0.0358(2) 0.5166(3) 0.1885(3)
C21_10 C 0.03914(17) 0.54831(10) 0.19335(13)
C22_10 C 0.04015(18) 0.55836(13) 0.22197(11)
H10_10 H 0.039436 0.544893 0.237727
C23_10 C 0.04220(19) 0.58813(14) 0.22753(10)
H11_10 H 0.042896 0.594999 0.247093
C24_10 C 0.0432(2) 0.60784(10) 0.20448(13)
C25_10 C 0.04224(18) 0.59779(12) 0.17586(11)
C26_10 C 0.04018(16) 0.56802(13) 0.17030(10)
H12_10 H 0.039489 0.561152 0.150739
C28_10 C 0.0439(2) 0.6607(3) 0.0847(3)
C29_10 C 0.0362(2) 0.69617(17) 0.27479(17)
C30_10 C 0.0144(2) 0.6760(2) 0.2686(2)
C31_10 C 0.0184(2) 0.65563(18) 0.2465(2)
H14_10 H 0.003480 0.641825 0.242271
C32_10 C 0.0442(2) 0.65549(16) 0.23045(16)
C33_10 C 0.0660(2) 0.6757(2) 0.23659(18)
H15_10 H 0.083571 0.675585 0.225637
C34_10 C 0.0620(2) 0.69602(17) 0.25876(19)
H16_10 H 0.076888 0.709828 0.262961
C35_10 C 0.0199(3) 0.7677(2) 0.3330(2)
C36_10 C 0.0412(3) 0.77010(19) 0.3116(2)
H17_10 H 0.052710 0.787321 0.310299
C37_10 C 0.0458(3) 0.7473(2) 0.2920(2)
H18_10 H 0.060371 0.749018 0.277368
C38_10 C 0.0290(3) 0.7221(2) 0.2939(2)
C39_10 C 0.0076(3) 0.7197(2) 0.3153(3)
C40_10 C 0.0030(3) 0.7425(3) 0.3348(2)
Mn5_10 Mn 0.03215(3) 0.64413(2) 0.02347(3)
Mn8_10 Mn 0.04593(3) 0.70876(3) 0.03584(3)
O15_10 O 0.06840(13) 0.45954(15) 0.13942(17)
O16_10 O 0.07650(14) 0.45400(15) 0.1883(2)
H21_10 H 0.0322116 0.486461 0.090651
H22_10 H 0.00930666 0.459499 0.0892442
H23_10 H 0.0339106 0.454154 0.265404
H24_10 H 0.0473378 0.423143 0.254842
C8_10 C 0.98703(16) 0.87323(12) 0.33778(16)
C9_10 C 0.99565(15) 0.86425(13) 0.36546(13)
H4_10 H 0.996429 0.877940 0.381025
C12_10 C 0.99336(19) 0.82421(15) 0.31990(13)
H5_10 H 0.992577 0.810521 0.304335
C13_10 C 0.98588(18) 0.85321(16) 0.31500(12)
H6_10 H 0.979995 0.859347 0.296081
C27_10 C 0.9797(2) 0.9057(3) 0.3303(3)
H13_10 H 0.996797 0.676068 0.279595
H19_10 H 0.996097 0.702484 0.316540
H20_10 H 0.988436 0.740787 0.349472
O1_11 O 0.46639(13) 0.49204(13) 0.66082(17)
O2_11 O 0.46088(16) 0.5025(2) 0.71057(16)
O3_6 O 0.51679(13) 0.07813(15) 0.85430(18)
O4_6 O 0.52891(16) 0.08728(15) 0.8066(2)
O7_11 O 0.45954(15) 0.36058(17) 0.56840(13)
O8_11 O 0.45400(15) 0.3117(2) 0.57650(14)
O9_11 O 0.4522(3) 0.5554(3) 0.75177(19)
O10_11 O 0.4854(2) 0.5223(2) 0.59977(18)
N1_11 N 0.4881(3) 0.21066(18) 0.8560(2)
N2_11 N 0.4509(2) 0.36210(16) 0.70511(16)
C1_11 C 0.4664(2) 0.1924(3) 0.9754(3)
C2_11 C 0.47211(16) 0.19721(15) 0.94382(11)
C3_11 C 0.48309(15) 0.17601(12) 0.92509(15)
H1_11 H 0.487695 0.157133 0.932352
C4_11 C 0.48732(16) 0.18242(12) 0.89573(14)
C5_11 C 0.48058(18) 0.21003(14) 0.88510(11)
C6_11 C 0.46961(18) 0.23124(11) 0.90383(15)
H2_11 H 0.464998 0.250114 0.896564
C7_11 C 0.46537(17) 0.22483(13) 0.93319(14)
H3_11 H 0.457870 0.239325 0.945992
C8_11 C 0.51297(16) 0.12677(12) 0.83778(16)
C9_11 C 0.50435(15) 0.13575(13) 0.86546(13)
H4_11 H 0.503571 0.122060 0.881025
C10_11 C 0.49688(16) 0.16475(14) 0.87036(12)
C11_11 C 0.49802(18) 0.18477(11) 0.84758(15)
C12_11 C 0.50664(19) 0.17579(15) 0.81990(13)
H5_11 H 0.507423 0.189479 0.804335
C13_11 C 0.51412(18) 0.14679(16) 0.81500(12)
H6_11 H 0.520005 0.140653 0.796081
C14_11 C 0.45456(17) 0.34272(15) 0.61739(10)
C15_11 C 0.45556(16) 0.37129(13) 0.62760(12)
H7_11 H 0.456879 0.387054 0.614182
C16_11 C 0.45462(18) 0.37679(11) 0.65743(13)
C17_11 C 0.45269(19) 0.35372(15) 0.67706(10)
C18_11 C 0.45170(19) 0.32516(13) 0.66685(13)
H8_11 H 0.450376 0.309391 0.680269
C19_11 C 0.45263(18) 0.31966(12) 0.63702(14)
H9_11 H 0.451951 0.300134 0.630048
C20_11 C 0.4642(2) 0.4834(3) 0.6885(3)
C21_11 C 0.46086(17) 0.45169(10) 0.69335(13)
C22_11 C 0.45985(18) 0.44164(13) 0.72197(11)
H10_11 H 0.460564 0.455107 0.737727
C23_11 C 0.45780(19) 0.41187(14) 0.72753(10)
H11_11 H 0.457104 0.405001 0.747093
C24_11 C 0.4568(2) 0.39216(10) 0.70448(13)
C25_11 C 0.45776(18) 0.40221(12) 0.67586(11)
C26_11 C 0.45982(16) 0.43198(13) 0.67030(10)
H12_11 H 0.460511 0.438848 0.650739
C27_11 C 0.5203(2) 0.0943(3) 0.8303(3)
C28_11 C 0.4561(2) 0.3393(3) 0.5847(3)
C29_11 C 0.4638(2) 0.30383(17) 0.77479(17)
C30_11 C 0.4856(2) 0.3240(2) 0.7686(2)
H13_11 H 0.503203 0.323932 0.779595
C31_11 C 0.4816(2) 0.34437(18) 0.7465(2)
H14_11 H 0.496520 0.358175 0.742271
C32_11 C 0.4558(2) 0.34451(16) 0.73045(16)
C33_11 C 0.4340(2) 0.3243(2) 0.73659(18)
H15_11 H 0.416429 0.324415 0.725637
C34_11 C 0.4380(2) 0.30398(17) 0.75876(19)
H16_11 H 0.423112 0.290172 0.762961
C35_11 C 0.4801(3) 0.2323(2) 0.8330(2)
C36_11 C 0.4588(3) 0.22990(19) 0.8116(2)
H17_11 H 0.447290 0.212679 0.810299
C37_11 C 0.4542(3) 0.2527(2) 0.7920(2)
H18_11 H 0.439629 0.250982 0.777368
C38_11 C 0.4710(3) 0.2779(2) 0.7939(2)
C39_11 C 0.4924(3) 0.2803(2) 0.8153(3)
H19_11 H 0.503903 0.297516 0.816540
C40_11 C 0.4970(3) 0.2575(3) 0.8348(2)
H20_11 H 0.511564 0.259213 0.849472
Mn5_11 Mn 0.46785(3) 0.35587(2) 0.52347(3)
Mn8_11 Mn 0.45407(3) 0.29124(3) 0.53584(3)
O11_6 O 0.48321(13) 0.57813(15) 0.64570(18)
O12_6 O 0.47109(16) 0.58728(15) 0.6934(2)
O15_11 O 0.43160(13) 0.54046(15) 0.63942(17)
O16_11 O 0.42350(14) 0.54600(15) 0.6883(2)
H21_11 H 0.467788 0.513539 0.590651
H22_11 H 0.490693 0.540501 0.589244
H23_11 H 0.466089 0.545846 0.765404
H24_11 H 0.452662 0.576857 0.754842
O2_12 O 0.53912(16) 0.0025(2) 0.78943(16)
O9_12 O 0.5478(3) 0.0554(3) 0.74823(19)
O10_12 O 0.5146(2) 0.0223(2) 0.90023(18)
O15_12 O 0.56840(13) 0.04046(15) 0.86058(17)
O16_12 O 0.57650(14) 0.04600(15) 0.8117(2)
H21_12 H 0.532212 0.0135392 0.909349
H22_12 H 0.509307 0.0405007 0.910756
H23_12 H 0.533911 0.0458463 0.734596
H24_12 H 0.547338 0.0768575 0.745158
O1_12 O 0.53361(13) 0.99204(13) 0.83918(17)
O7_12 O 0.54046(15) 0.86058(17) 0.93160(13)
O8_12 O 0.54600(15) 0.8117(2) 0.92350(14)
N1_12 N 0.5119(3) 0.71066(18) 0.6440(2)
N2_12 N 0.5491(2) 0.86210(16) 0.79489(16)
C1_12 C 0.5336(2) 0.6924(3) 0.5246(3)
C2_12 C 0.52789(16) 0.69721(15) 0.55618(11)
C3_12 C 0.51691(15) 0.67601(12) 0.57491(15)
H1_12 H 0.512305 0.657133 0.567648
C4_12 C 0.51268(16) 0.68242(12) 0.60427(14)
C5_12 C 0.51942(18) 0.71003(14) 0.61490(11)
C6_12 C 0.53039(18) 0.73124(11) 0.59617(15)
H2_12 H 0.535002 0.750114 0.603436
C7_12 C 0.53463(17) 0.72483(13) 0.56681(14)
H3_12 H 0.542130 0.739325 0.554008
C8_12 C 0.48703(16) 0.62677(12) 0.66222(16)
C9_12 C 0.49565(15) 0.63575(13) 0.63454(13)
H4_12 H 0.496429 0.622060 0.618975
C10_12 C 0.50312(16) 0.66475(14) 0.62964(12)
C11_12 C 0.50198(18) 0.68477(11) 0.65242(15)
C12_12 C 0.49336(19) 0.67579(15) 0.68010(13)
H5_12 H 0.492577 0.689479 0.695665
C13_12 C 0.48588(18) 0.64679(16) 0.68500(12)
H6_12 H 0.479995 0.640653 0.703919
C14_12 C 0.54544(17) 0.84272(15) 0.88261(10)
C15_12 C 0.54444(16) 0.87129(13) 0.87240(12)
H7_12 H 0.543121 0.887054 0.885818
C16_12 C 0.54538(18) 0.87679(11) 0.84257(13)
C17_12 C 0.54731(19) 0.85372(15) 0.82294(10)
C18_12 C 0.54830(19) 0.82516(13) 0.83315(13)
H8_12 H 0.549624 0.809391 0.819731
C19_12 C 0.54737(18) 0.81966(12) 0.86298(14)
H9_12 H 0.548049 0.800134 0.869952
C20_12 C 0.5358(2) 0.9834(3) 0.8115(3)
C21_12 C 0.53914(17) 0.95169(10) 0.80665(13)
C22_12 C 0.54015(18) 0.94164(13) 0.77803(11)
H10_12 H 0.539436 0.955107 0.762273
C23_12 C 0.54220(19) 0.91187(14) 0.77247(10)
H11_12 H 0.542896 0.905001 0.752907
C24_12 C 0.5432(2) 0.89216(10) 0.79552(13)
C25_12 C 0.54224(18) 0.90221(12) 0.82414(11)
C26_12 C 0.54018(16) 0.93198(13) 0.82970(10)
H12_12 H 0.539489 0.938848 0.849261
C27_12 C 0.4797(2) 0.5943(3) 0.6697(3)
C28_12 C 0.5439(2) 0.8393(3) 0.9153(3)
C29_12 C 0.5362(2) 0.80383(17) 0.72521(17)
C30_12 C 0.5144(2) 0.8240(2) 0.7314(2)
H13_12 H 0.496797 0.823932 0.720405
C31_12 C 0.5184(2) 0.84437(18) 0.7535(2)
H14_12 H 0.503480 0.858175 0.757729
C32_12 C 0.5442(2) 0.84451(16) 0.76955(16)
C33_12 C 0.5660(2) 0.8243(2) 0.76341(18)
H15_12 H 0.583571 0.824415 0.774363
C34_12 C 0.5620(2) 0.80398(17) 0.74124(19)
H16_12 H 0.576888 0.790172 0.737039
C35_12 C 0.5199(3) 0.7323(2) 0.6670(2)
C36_12 C 0.5412(3) 0.72990(19) 0.6884(2)
H17_12 H 0.552710 0.712679 0.689701
C37_12 C 0.5458(3) 0.7527(2) 0.7080(2)
H18_12 H 0.560371 0.750982 0.722632
C38_12 C 0.5290(3) 0.7779(2) 0.7061(2)
C39_12 C 0.5076(3) 0.7803(2) 0.6847(3)
H19_12 H 0.496097 0.797516 0.683460
C40_12 C 0.5030(3) 0.7575(3) 0.6652(2)
H20_12 H 0.488436 0.759213 0.650528
Mn5_12 Mn 0.53215(3) 0.85587(2) 0.97653(3)
Mn8_12 Mn 0.54593(3) 0.79124(3) 0.96416(3)
O2_13 O 0.71057(16) 0.03912(16) 0.0025(2)
O9_13 O 0.75177(19) 0.0478(3) 0.0554(3)
O10_13 O 0.59977(18) 0.0146(2) 0.0223(2)
O11_7 O 0.64570(18) 0.01679(13) 0.07813(15)
O12_7 O 0.6934(2) 0.02891(16) 0.08728(15)
H21_13 H 0.590651 0.0322116 0.0135392
H22_13 H 0.589244 0.00930666 0.0405007
H23_13 H 0.765404 0.0339106 0.0458463
H24_13 H 0.754842 0.0473378 0.0768575
O1_13 O 0.66082(17) 0.03361(13) 0.99204(13)
O5_5 O 0.98105(15) 0.02681(15) 0.66277(19)
O6_5 O 0.99237(19) 0.04146(17) 0.71154(17)
N1_13 N 0.8560(2) 0.0119(3) 0.71066(18)
N2_13 N 0.70511(16) 0.0491(2) 0.86210(16)
C1_13 C 0.9754(3) 0.0336(2) 0.6924(3)
C2_13 C 0.94382(11) 0.02789(16) 0.69721(15)
C3_13 C 0.92509(15) 0.01691(15) 0.67601(12)
H1_13 H 0.932352 0.012305 0.657133
C4_13 C 0.89573(14) 0.01268(16) 0.68242(12)
C5_13 C 0.88510(11) 0.01942(18) 0.71003(14)
C6_13 C 0.90383(15) 0.03039(18) 0.73124(11)
H2_13 H 0.896564 0.035002 0.750114
C7_13 C 0.93319(14) 0.03463(17) 0.72483(13)
H3_13 H 0.945992 0.042130 0.739325
C10_13 C 0.87036(12) 0.00312(16) 0.66475(14)
C11_13 C 0.84758(15) 0.00198(18) 0.68477(11)
C14_13 C 0.61739(10) 0.04544(17) 0.84272(15)
C15_13 C 0.62760(12) 0.04444(16) 0.87129(13)
H7_13 H 0.614182 0.043121 0.887054
C16_13 C 0.65743(13) 0.04538(18) 0.87679(11)
C17_13 C 0.67706(10) 0.04731(19) 0.85372(15)
C18_13 C 0.66685(13) 0.04830(19) 0.82516(13)
H8_13 H 0.680269 0.049624 0.809391
C19_13 C 0.63702(14) 0.04737(18) 0.81966(12)
H9_13 H 0.630048 0.048049 0.800134
C20_13 C 0.6885(3) 0.0358(2) 0.9834(3)
C21_13 C 0.69335(13) 0.03914(17) 0.95169(10)
C22_13 C 0.72197(11) 0.04015(18) 0.94164(13)
H10_13 H 0.737727 0.039436 0.955107
C23_13 C 0.72753(10) 0.04220(19) 0.91187(14)
H11_13 H 0.747093 0.042896 0.905001
C24_13 C 0.70448(13) 0.0432(2) 0.89216(10)
C25_13 C 0.67586(11) 0.04224(18) 0.90221(12)
C26_13 C 0.67030(10) 0.04018(16) 0.93198(13)
H12_13 H 0.650739 0.039489 0.938848
C28_13 C 0.5847(3) 0.0439(2) 0.8393(3)
C29_13 C 0.77479(17) 0.0362(2) 0.80383(17)
C30_13 C 0.7686(2) 0.0144(2) 0.8240(2)
C31_13 C 0.7465(2) 0.0184(2) 0.84437(18)
H14_13 H 0.742271 0.003480 0.858175
C32_13 C 0.73045(16) 0.0442(2) 0.84451(16)
C33_13 C 0.73659(18) 0.0660(2) 0.8243(2)
H15_13 H 0.725637 0.083571 0.824415
C34_13 C 0.75876(19) 0.0620(2) 0.80398(17)
H16_13 H 0.762961 0.076888 0.790172
C35_13 C 0.8330(2) 0.0199(3) 0.7323(2)
C36_13 C 0.8116(2) 0.0412(3) 0.72990(19)
H17_13 H 0.810299 0.052710 0.712679
C37_13 C 0.7920(2) 0.0458(3) 0.7527(2)
H18_13 H 0.777368 0.060371 0.750982
C38_13 C 0.7939(2) 0.0290(3) 0.7779(2)
C39_13 C 0.8153(3) 0.0076(3) 0.7803(2)
C40_13 C 0.8348(2) 0.0030(3) 0.7575(3)
O13_9 O 0.66277(19) 0.98105(15) 0.02681(15)
O14_9 O 0.71154(17) 0.99237(19) 0.04146(17)
O3_7 O 0.85430(18) 0.98321(13) 0.57813(15)
O4_7 O 0.8066(2) 0.97109(16) 0.58728(15)
C8_13 C 0.83778(16) 0.98703(16) 0.62677(12)
C9_13 C 0.86546(13) 0.99565(15) 0.63575(13)
H4_13 H 0.881025 0.996429 0.622060
C12_13 C 0.81990(13) 0.99336(19) 0.67579(15)
H5_13 H 0.804335 0.992577 0.689479
C13_13 C 0.81500(12) 0.98588(18) 0.64679(16)
H6_13 H 0.796081 0.979995 0.640653
C27_13 C 0.8303(3) 0.9797(2) 0.5943(3)
H13_13 H 0.779595 0.996797 0.823932
H19_13 H 0.816540 0.996097 0.797516
H20_13 H 0.849472 0.988436 0.759213
C8_14 C 0.66222(16) 0.01297(16) 0.12677(12)
C9_14 C 0.63454(13) 0.00435(15) 0.13575(13)
H4_14 H 0.618975 0.003571 0.122060
C12_14 C 0.68010(13) 0.00664(19) 0.17579(15)
H5_14 H 0.695665 0.007423 0.189479
C13_14 C 0.68500(12) 0.01412(18) 0.14679(16)
H6_14 H 0.703919 0.020005 0.140653
C27_14 C 0.6697(3) 0.0203(2) 0.0943(3)
H13_14 H 0.720405 0.003203 0.323932
H19_14 H 0.683460 0.003903 0.297516
H20_14 H 0.650528 0.011564 0.259213
O13_10 O 0.83723(19) 0.01895(15) 0.52681(15)
O14_10 O 0.78846(17) 0.00763(19) 0.54146(17)
O1_14 O 0.83918(17) 0.96639(13) 0.49204(13)
O2_14 O 0.78943(16) 0.96088(16) 0.5025(2)
O5_6 O 0.51895(15) 0.97319(15) 0.16277(19)
O6_6 O 0.50763(19) 0.95854(17) 0.21154(17)
O9_14 O 0.74823(19) 0.9522(3) 0.5554(3)
O10_14 O 0.90023(18) 0.9854(2) 0.5223(2)
N1_14 N 0.6440(2) 0.9881(3) 0.21066(18)
N2_14 N 0.79489(16) 0.9509(2) 0.36210(16)
C1_14 C 0.5246(3) 0.9664(2) 0.1924(3)
C2_14 C 0.55618(11) 0.97211(16) 0.19721(15)
C3_14 C 0.57491(15) 0.98309(15) 0.17601(12)
H1_14 H 0.567648 0.987695 0.157133
C4_14 C 0.60427(14) 0.98732(16) 0.18242(12)
C5_14 C 0.61490(11) 0.98058(18) 0.21003(14)
C6_14 C 0.59617(15) 0.96961(18) 0.23124(11)
H2_14 H 0.603436 0.964998 0.250114
C7_14 C 0.56681(14) 0.96537(17) 0.22483(13)
H3_14 H 0.554008 0.957870 0.239325
C10_14 C 0.62964(12) 0.99688(16) 0.16475(14)
C11_14 C 0.65242(15) 0.99802(18) 0.18477(11)
C14_14 C 0.88261(10) 0.95456(17) 0.34272(15)
C15_14 C 0.87240(12) 0.95556(16) 0.37129(13)
H7_14 H 0.885818 0.956879 0.387054
C16_14 C 0.84257(13) 0.95462(18) 0.37679(11)
C17_14 C 0.82294(10) 0.95269(19) 0.35372(15)
C18_14 C 0.83315(13) 0.95170(19) 0.32516(13)
H8_14 H 0.819731 0.950376 0.309391
C19_14 C 0.86298(14) 0.95263(18) 0.31966(12)
H9_14 H 0.869952 0.951951 0.300134
C20_14 C 0.8115(3) 0.9642(2) 0.4834(3)
C21_14 C 0.80665(13) 0.96086(17) 0.45169(10)
C22_14 C 0.77803(11) 0.95985(18) 0.44164(13)
H10_14 H 0.762273 0.960564 0.455107
C23_14 C 0.77247(10) 0.95780(19) 0.41187(14)
H11_14 H 0.752907 0.957104 0.405001
C24_14 C 0.79552(13) 0.9568(2) 0.39216(10)
C25_14 C 0.82414(11) 0.95776(18) 0.40221(12)
C26_14 C 0.82970(10) 0.95982(16) 0.43198(13)
H12_14 H 0.849261 0.960511 0.438848
C28_14 C 0.9153(3) 0.9561(2) 0.3393(3)
C29_14 C 0.72521(17) 0.9638(2) 0.30383(17)
C30_14 C 0.7314(2) 0.9856(2) 0.3240(2)
C31_14 C 0.7535(2) 0.9816(2) 0.34437(18)
H14_14 H 0.757729 0.996520 0.358175
C32_14 C 0.76955(16) 0.9558(2) 0.34451(16)
C33_14 C 0.76341(18) 0.9340(2) 0.3243(2)
H15_14 H 0.774363 0.916429 0.324415
C34_14 C 0.74124(19) 0.9380(2) 0.30398(17)
H16_14 H 0.737039 0.923112 0.290172
C35_14 C 0.6670(2) 0.9801(3) 0.2323(2)
C36_14 C 0.6884(2) 0.9588(3) 0.22990(19)
H17_14 H 0.689701 0.947290 0.212679
C37_14 C 0.7080(2) 0.9542(3) 0.2527(2)
H18_14 H 0.722632 0.939629 0.250982
C38_14 C 0.7061(2) 0.9710(3) 0.2779(2)
C39_14 C 0.6847(3) 0.9924(3) 0.2803(2)
C40_14 C 0.6652(2) 0.9970(3) 0.2575(3)
H21_14 H 0.909349 0.967788 0.513539
H22_14 H 0.910756 0.990693 0.540501
H23_14 H 0.734596 0.966089 0.545846
H24_14 H 0.745158 0.952662 0.576857
O1_15 O 0.33918(17) 0.53361(13) 0.50796(13)
O2_15 O 0.28943(16) 0.53912(16) 0.4975(2)
O3_8 O 0.14570(18) 0.48321(13) 0.92187(15)
O4_8 O 0.1934(2) 0.47109(16) 0.91272(15)
O5_7 O 0.01895(15) 0.52681(15) 0.83723(19)
O6_7 O 0.00763(19) 0.54146(17) 0.78846(17)
O9_15 O 0.24823(19) 0.5478(3) 0.4446(3)
O10_15 O 0.40023(18) 0.5146(2) 0.4777(2)
N1_15 N 0.1440(2) 0.5119(3) 0.78934(18)
N2_15 N 0.29489(16) 0.5491(2) 0.63790(16)
C1_15 C 0.0246(3) 0.5336(2) 0.8076(3)
C2_15 C 0.05618(11) 0.52789(16) 0.80279(15)
C3_15 C 0.07491(15) 0.51691(15) 0.82399(12)
H1_15 H 0.067648 0.512305 0.842867
C4_15 C 0.10427(14) 0.51268(16) 0.81758(12)
C5_15 C 0.11490(11) 0.51942(18) 0.78997(14)
C6_15 C 0.09617(15) 0.53039(18) 0.76876(11)
H2_15 H 0.103436 0.535002 0.749886
C7_15 C 0.06681(14) 0.53463(17) 0.77517(13)
H3_15 H 0.054008 0.542130 0.760675
C8_15 C 0.16222(16) 0.48703(16) 0.87323(12)
C9_15 C 0.13454(13) 0.49565(15) 0.86425(13)
H4_15 H 0.118975 0.496429 0.877940
C10_15 C 0.12964(12) 0.50312(16) 0.83525(14)
C11_15 C 0.15242(15) 0.50198(18) 0.81523(11)
C12_15 C 0.18010(13) 0.49336(19) 0.82421(15)
H5_15 H 0.195665 0.492577 0.810521
C13_15 C 0.18500(12) 0.48588(18) 0.85321(16)
H6_15 H 0.203919 0.479995 0.859347
C14_15 C 0.38261(10) 0.54544(17) 0.65728(15)
C15_15 C 0.37240(12) 0.54444(16) 0.62871(13)
H7_15 H 0.385818 0.543121 0.612946
C16_15 C 0.34257(13) 0.54538(18) 0.62321(11)
C17_15 C 0.32294(10) 0.54731(19) 0.64628(15)
C18_15 C 0.33315(13) 0.54830(19) 0.67484(13)
H8_15 H 0.319731 0.549624 0.690609
C19_15 C 0.36298(14) 0.54737(18) 0.68034(12)
H9_15 H 0.369952 0.548049 0.699866
C20_15 C 0.3115(3) 0.5358(2) 0.5166(3)
C21_15 C 0.30665(13) 0.53914(17) 0.54831(10)
C22_15 C 0.27803(11) 0.54015(18) 0.55836(13)
H10_15 H 0.262273 0.539436 0.544893
C23_15 C 0.27247(10) 0.54220(19) 0.58813(14)
H11_15 H 0.252907 0.542896 0.594999
C24_15 C 0.29552(13) 0.5432(2) 0.60784(10)
C25_15 C 0.32414(11) 0.54224(18) 0.59779(12)
C26_15 C 0.32970(10) 0.54018(16) 0.56802(13)
H12_15 H 0.349261 0.539489 0.561152
C27_15 C 0.1697(3) 0.4797(2) 0.9057(3)
C28_15 C 0.4153(3) 0.5439(2) 0.6607(3)
C29_15 C 0.22521(17) 0.5362(2) 0.69617(17)
C30_15 C 0.2314(2) 0.5144(2) 0.6760(2)
H13_15 H 0.220405 0.496797 0.676068
C31_15 C 0.2535(2) 0.5184(2) 0.65563(18)
H14_15 H 0.257729 0.503480 0.641825
C32_15 C 0.26955(16) 0.5442(2) 0.65549(16)
C33_15 C 0.26341(18) 0.5660(2) 0.6757(2)
H15_15 H 0.274363 0.583571 0.675585
C34_15 C 0.24124(19) 0.5620(2) 0.69602(17)
H16_15 H 0.237039 0.576888 0.709828
C35_15 C 0.1670(2) 0.5199(3) 0.7677(2)
C36_15 C 0.1884(2) 0.5412(3) 0.77010(19)
H17_15 H 0.189701 0.552710 0.787321
C37_15 C 0.2080(2) 0.5458(3) 0.7473(2)
H18_15 H 0.222632 0.560371 0.749018
C38_15 C 0.2061(2) 0.5290(3) 0.7221(2)
C39_15 C 0.1847(3) 0.5076(3) 0.7197(2)
H19_15 H 0.183460 0.496097 0.702484
C40_15 C 0.1652(2) 0.5030(3) 0.7425(3)
H20_15 H 0.150528 0.488436 0.740787
O11_8 O 0.35430(18) 0.51679(13) 0.42187(15)
O12_8 O 0.3066(2) 0.52891(16) 0.41272(15)
O13_11 O 0.33723(19) 0.48105(15) 0.47319(15)
O14_11 O 0.28846(17) 0.49237(19) 0.45854(17)
H21_15 H 0.409349 0.532212 0.486461
H22_15 H 0.410756 0.509307 0.459499
H23_15 H 0.234596 0.533911 0.454154
H24_15 H 0.245158 0.547338 0.423143
O1_16 O 0.16082(17) 0.46639(13) 0.00796(13)
O5_8 O 0.48105(15) 0.47319(15) 0.33723(19)
O6_8 O 0.49237(19) 0.45854(17) 0.28846(17)
N1_16 N 0.3560(2) 0.4881(3) 0.28934(18)
N2_16 N 0.20511(16) 0.4509(2) 0.13790(16)
C1_16 C 0.4754(3) 0.4664(2) 0.3076(3)
C2_16 C 0.44382(11) 0.47211(16) 0.30279(15)
C3_16 C 0.42509(15) 0.48309(15) 0.32399(12)
H1_16 H 0.432352 0.487695 0.342867
C4_16 C 0.39573(14) 0.48732(16) 0.31758(12)
C5_16 C 0.38510(11) 0.48058(18) 0.28997(14)
C6_16 C 0.40383(15) 0.46961(18) 0.26876(11)
H2_16 H 0.396564 0.464998 0.249886
C7_16 C 0.43319(14) 0.46537(17) 0.27517(13)
H3_16 H 0.445992 0.457870 0.260675
C8_16 C 0.33778(16) 0.51297(16) 0.37323(12)
C9_16 C 0.36546(13) 0.50435(15) 0.36425(13)
H4_16 H 0.381025 0.503571 0.377940
C10_16 C 0.37036(12) 0.49688(16) 0.33525(14)
C11_16 C 0.34758(15) 0.49802(18) 0.31523(11)
C12_16 C 0.31990(13) 0.50664(19) 0.32421(15)
H5_16 H 0.304335 0.507423 0.310521
C13_16 C 0.31500(12) 0.51412(18) 0.35321(16)
H6_16 H 0.296081 0.520005 0.359347
C14_16 C 0.11739(10) 0.45456(17) 0.15728(15)
C15_16 C 0.12760(12) 0.45556(16) 0.12871(13)
H7_16 H 0.114182 0.456879 0.112946
C16_16 C 0.15743(13) 0.45462(18) 0.12321(11)
C17_16 C 0.17706(10) 0.45269(19) 0.14628(15)
C18_16 C 0.16685(13) 0.45170(19) 0.17484(13)
H8_16 H 0.180269 0.450376 0.190609
C19_16 C 0.13702(14) 0.45263(18) 0.18034(12)
H9_16 H 0.130048 0.451951 0.199866
C20_16 C 0.1885(3) 0.4642(2) 0.0166(3)
C21_16 C 0.19335(13) 0.46086(17) 0.04831(10)
C22_16 C 0.22197(11) 0.45985(18) 0.05836(13)
H10_16 H 0.237727 0.460564 0.044893
C23_16 C 0.22753(10) 0.45780(19) 0.08813(14)
H11_16 H 0.247093 0.457104 0.094999
C24_16 C 0.20448(13) 0.4568(2) 0.10784(10)
C25_16 C 0.17586(11) 0.45776(18) 0.09779(12)
C26_16 C 0.17030(10) 0.45982(16) 0.06802(13)
H12_16 H 0.150739 0.460511 0.061152
C27_16 C 0.3303(3) 0.5203(2) 0.4057(3)
C28_16 C 0.0847(3) 0.4561(2) 0.1607(3)
C29_16 C 0.27479(17) 0.4638(2) 0.19617(17)
C30_16 C 0.2686(2) 0.4856(2) 0.1760(2)
H13_16 H 0.279595 0.503203 0.176068
C31_16 C 0.2465(2) 0.4816(2) 0.15563(18)
H14_16 H 0.242271 0.496520 0.141825
C32_16 C 0.23045(16) 0.4558(2) 0.15549(16)
C33_16 C 0.23659(18) 0.4340(2) 0.1757(2)
H15_16 H 0.225637 0.416429 0.175585
C34_16 C 0.25876(19) 0.4380(2) 0.19602(17)
H16_16 H 0.262961 0.423112 0.209828
C35_16 C 0.3330(2) 0.4801(3) 0.2677(2)
C36_16 C 0.3116(2) 0.4588(3) 0.27010(19)
H17_16 H 0.310299 0.447290 0.287321
C37_16 C 0.2920(2) 0.4542(3) 0.2473(2)
H18_16 H 0.277368 0.439629 0.249018
C38_16 C 0.2939(2) 0.4710(3) 0.2221(2)
C39_16 C 0.3153(3) 0.4924(3) 0.2197(2)
H19_16 H 0.316540 0.503903 0.202484
C40_16 C 0.3348(2) 0.4970(3) 0.2425(3)
H20_16 H 0.349472 0.511564 0.240787
O2_16 O 0.21057(16) 0.46088(16) 0.9975(2)
O9_16 O 0.25177(19) 0.4522(3) 0.9446(3)
O10_16 O 0.09977(18) 0.4854(2) 0.9777(2)
O13_12 O 0.16277(19) 0.51895(15) 0.97319(15)
O14_12 O 0.21154(17) 0.50763(19) 0.95854(17)
H21_16 H 0.090651 0.467788 0.986461
H22_16 H 0.0892442 0.490693 0.959499
H23_16 H 0.265404 0.466089 0.954154
H24_16 H 0.254842 0.452662 0.923143
O2_17 O 0.0025(2) 0.71057(16) 0.03912(16)
O9_17 O 0.0554(3) 0.75177(19) 0.0478(3)
O10_17 O 0.0223(2) 0.59977(18) 0.0146(2)
O11_9 O 0.07813(15) 0.64570(18) 0.01679(13)
O12_9 O 0.08728(15) 0.6934(2) 0.02891(16)
H21_17 H 0.0135392 0.590651 0.0322116
H22_17 H 0.0405007 0.589244 0.00930666
H23_17 H 0.0458463 0.765404 0.0339106
H24_17 H 0.0768575 0.754842 0.0473378
O13_13 O 0.02681(15) 0.66277(19) 0.98105(15)
O14_13 O 0.04146(17) 0.71154(17) 0.99237(19)
O1_17 O 0.99204(13) 0.66082(17) 0.03361(13)
N1_17 N 0.71066(18) 0.8560(2) 0.0119(3)
N2_17 N 0.86210(16) 0.70511(16) 0.0491(2)
C1_17 C 0.6924(3) 0.9754(3) 0.0336(2)
C2_17 C 0.69721(15) 0.94382(11) 0.02789(16)
C3_17 C 0.67601(12) 0.92509(15) 0.01691(15)
H1_17 H 0.657133 0.932352 0.012305
C4_17 C 0.68242(12) 0.89573(14) 0.01268(16)
C5_17 C 0.71003(14) 0.88510(11) 0.01942(18)
C6_17 C 0.73124(11) 0.90383(15) 0.03039(18)
H2_17 H 0.750114 0.896564 0.035002
C7_17 C 0.72483(13) 0.93319(14) 0.03463(17)
H3_17 H 0.739325 0.945992 0.042130
C10_17 C 0.66475(14) 0.87036(12) 0.00312(16)
C11_17 C 0.68477(11) 0.84758(15) 0.00198(18)
C14_17 C 0.84272(15) 0.61739(10) 0.04544(17)
C15_17 C 0.87129(13) 0.62760(12) 0.04444(16)
H7_17 H 0.887054 0.614182 0.043121
C16_17 C 0.87679(11) 0.65743(13) 0.04538(18)
C17_17 C 0.85372(15) 0.67706(10) 0.04731(19)
C18_17 C 0.82516(13) 0.66685(13) 0.04830(19)
H8_17 H 0.809391 0.680269 0.049624
C19_17 C 0.81966(12) 0.63702(14) 0.04737(18)
H9_17 H 0.800134 0.630048 0.048049
C20_17 C 0.9834(3) 0.6885(3) 0.0358(2)
C21_17 C 0.95169(10) 0.69335(13) 0.03914(17)
C22_17 C 0.94164(13) 0.72197(11) 0.04015(18)
H10_17 H 0.955107 0.737727 0.039436
C23_17 C 0.91187(14) 0.72753(10) 0.04220(19)
H11_17 H 0.905001 0.747093 0.042896
C24_17 C 0.89216(10) 0.70448(13) 0.0432(2)
C25_17 C 0.90221(12) 0.67586(11) 0.04224(18)
C26_17 C 0.93198(13) 0.67030(10) 0.04018(16)
H12_17 H 0.938848 0.650739 0.039489
C28_17 C 0.8393(3) 0.5847(3) 0.0439(2)
C29_17 C 0.80383(17) 0.77479(17) 0.0362(2)
C30_17 C 0.8240(2) 0.7686(2) 0.0144(2)
C31_17 C 0.84437(18) 0.7465(2) 0.0184(2)
H14_17 H 0.858175 0.742271 0.003480
C32_17 C 0.84451(16) 0.73045(16) 0.0442(2)
C33_17 C 0.8243(2) 0.73659(18) 0.0660(2)
H15_17 H 0.824415 0.725637 0.083571
C34_17 C 0.80398(17) 0.75876(19) 0.0620(2)
H16_17 H 0.790172 0.762961 0.076888
C35_17 C 0.7323(2) 0.8330(2) 0.0199(3)
C36_17 C 0.72990(19) 0.8116(2) 0.0412(3)
H17_17 H 0.712679 0.810299 0.052710
C37_17 C 0.7527(2) 0.7920(2) 0.0458(3)
H18_17 H 0.750982 0.777368 0.060371
C38_17 C 0.7779(2) 0.7939(2) 0.0290(3)
C39_17 C 0.7803(2) 0.8153(3) 0.0076(3)
C40_17 C 0.7575(3) 0.8348(2) 0.0030(3)
O3_9 O 0.57813(15) 0.85430(18) 0.98321(13)
O4_9 O 0.58728(15) 0.8066(2) 0.97109(16)
C8_17 C 0.62677(12) 0.83778(16) 0.98703(16)
C9_17 C 0.63575(13) 0.86546(13) 0.99565(15)
H4_17 H 0.622060 0.881025 0.996429
C12_17 C 0.67579(15) 0.81990(13) 0.99336(19)
H5_17 H 0.689479 0.804335 0.992577
C13_17 C 0.64679(16) 0.81500(12) 0.98588(18)
H6_17 H 0.640653 0.796081 0.979995
C27_17 C 0.5943(3) 0.8303(3) 0.9797(2)
H13_17 H 0.823932 0.779595 0.996797
H19_17 H 0.797516 0.816540 0.996097
H20_17 H 0.759213 0.849472 0.988436
C8_18 C 0.12677(12) 0.66222(16) 0.01297(16)
C9_18 C 0.13575(13) 0.63454(13) 0.00435(15)
H4_18 H 0.122060 0.618975 0.003571
C12_18 C 0.17579(15) 0.68010(13) 0.00664(19)
H5_18 H 0.189479 0.695665 0.007423
C13_18 C 0.14679(16) 0.68500(12) 0.01412(18)
H6_18 H 0.140653 0.703919 0.020005
C27_18 C 0.0943(3) 0.6697(3) 0.0203(2)
H13_18 H 0.323932 0.720405 0.003203
H19_18 H 0.297516 0.683460 0.003903
H20_18 H 0.259213 0.650528 0.011564
O13_14 O 0.52681(15) 0.83723(19) 0.01895(15)
O14_14 O 0.54146(17) 0.78846(17) 0.00763(19)
O1_18 O 0.49204(13) 0.83918(17) 0.96639(13)
O2_18 O 0.5025(2) 0.78943(16) 0.96088(16)
O9_18 O 0.5554(3) 0.74823(19) 0.9522(3)
O10_18 O 0.5223(2) 0.90023(18) 0.9854(2)
N1_18 N 0.21066(18) 0.6440(2) 0.9881(3)
N2_18 N 0.36210(16) 0.79489(16) 0.9509(2)
C1_18 C 0.1924(3) 0.5246(3) 0.9664(2)
C2_18 C 0.19721(15) 0.55618(11) 0.97211(16)
C3_18 C 0.17601(12) 0.57491(15) 0.98309(15)
H1_18 H 0.157133 0.567648 0.987695
C4_18 C 0.18242(12) 0.60427(14) 0.98732(16)
C5_18 C 0.21003(14) 0.61490(11) 0.98058(18)
C6_18 C 0.23124(11) 0.59617(15) 0.96961(18)
H2_18 H 0.250114 0.603436 0.964998
C7_18 C 0.22483(13) 0.56681(14) 0.96537(17)
H3_18 H 0.239325 0.554008 0.957870
C10_18 C 0.16475(14) 0.62964(12) 0.99688(16)
C11_18 C 0.18477(11) 0.65242(15) 0.99802(18)
C14_18 C 0.34272(15) 0.88261(10) 0.95456(17)
C15_18 C 0.37129(13) 0.87240(12) 0.95556(16)
H7_18 H 0.387054 0.885818 0.956879
C16_18 C 0.37679(11) 0.84257(13) 0.95462(18)
C17_18 C 0.35372(15) 0.82294(10) 0.95269(19)
C18_18 C 0.32516(13) 0.83315(13) 0.95170(19)
H8_18 H 0.309391 0.819731 0.950376
C19_18 C 0.31966(12) 0.86298(14) 0.95263(18)
H9_18 H 0.300134 0.869952 0.951951
C20_18 C 0.4834(3) 0.8115(3) 0.9642(2)
C21_18 C 0.45169(10) 0.80665(13) 0.96086(17)
C22_18 C 0.44164(13) 0.77803(11) 0.95985(18)
H10_18 H 0.455107 0.762273 0.960564
C23_18 C 0.41187(14) 0.77247(10) 0.95780(19)
H11_18 H 0.405001 0.752907 0.957104
C24_18 C 0.39216(10) 0.79552(13) 0.9568(2)
C25_18 C 0.40221(12) 0.82414(11) 0.95776(18)
C26_18 C 0.43198(13) 0.82970(10) 0.95982(16)
H12_18 H 0.438848 0.849261 0.960511
C28_18 C 0.3393(3) 0.9153(3) 0.9561(2)
C29_18 C 0.30383(17) 0.72521(17) 0.9638(2)
C30_18 C 0.3240(2) 0.7314(2) 0.9856(2)
C31_18 C 0.34437(18) 0.7535(2) 0.9816(2)
H14_18 H 0.358175 0.757729 0.996520
C32_18 C 0.34451(16) 0.76955(16) 0.9558(2)
C33_18 C 0.3243(2) 0.76341(18) 0.9340(2)
H15_18 H 0.324415 0.774363 0.916429
C34_18 C 0.30398(17) 0.74124(19) 0.9380(2)
H16_18 H 0.290172 0.737039 0.923112
C35_18 C 0.2323(2) 0.6670(2) 0.9801(3)
C36_18 C 0.22990(19) 0.6884(2) 0.9588(3)
H17_18 H 0.212679 0.689701 0.947290
C37_18 C 0.2527(2) 0.7080(2) 0.9542(3)
H18_18 H 0.250982 0.722632 0.939629
C38_18 C 0.2779(2) 0.7061(2) 0.9710(3)
C39_18 C 0.2803(2) 0.6847(3) 0.9924(3)
C40_18 C 0.2575(3) 0.6652(2) 0.9970(3)
H21_18 H 0.513539 0.909349 0.967788
H22_18 H 0.540501 0.910756 0.990693
H23_18 H 0.545846 0.734596 0.966089
H24_18 H 0.576857 0.745158 0.952662
O1_19 O 0.50796(13) 0.33918(17) 0.53361(13)
O2_19 O 0.4975(2) 0.28943(16) 0.53912(16)
O3_10 O 0.92187(15) 0.14570(18) 0.48321(13)
O4_10 O 0.91272(15) 0.1934(2) 0.47109(16)
O9_19 O 0.4446(3) 0.24823(19) 0.5478(3)
O10_19 O 0.4777(2) 0.40023(18) 0.5146(2)
N1_19 N 0.78934(18) 0.1440(2) 0.5119(3)
N2_19 N 0.63790(16) 0.29489(16) 0.5491(2)
C1_19 C 0.8076(3) 0.0246(3) 0.5336(2)
C2_19 C 0.80279(15) 0.05618(11) 0.52789(16)
C3_19 C 0.82399(12) 0.07491(15) 0.51691(15)
H1_19 H 0.842867 0.067648 0.512305
C4_19 C 0.81758(12) 0.10427(14) 0.51268(16)
C5_19 C 0.78997(14) 0.11490(11) 0.51942(18)
C6_19 C 0.76876(11) 0.09617(15) 0.53039(18)
H2_19 H 0.749886 0.103436 0.535002
C7_19 C 0.77517(13) 0.06681(14) 0.53463(17)
H3_19 H 0.760675 0.054008 0.542130
C8_19 C 0.87323(12) 0.16222(16) 0.48703(16)
C9_19 C 0.86425(13) 0.13454(13) 0.49565(15)
H4_19 H 0.877940 0.118975 0.496429
C10_19 C 0.83525(14) 0.12964(12) 0.50312(16)
C11_19 C 0.81523(11) 0.15242(15) 0.50198(18)
C12_19 C 0.82421(15) 0.18010(13) 0.49336(19)
H5_19 H 0.810521 0.195665 0.492577
C13_19 C 0.85321(16) 0.18500(12) 0.48588(18)
H6_19 H 0.859347 0.203919 0.479995
C14_19 C 0.65728(15) 0.38261(10) 0.54544(17)
C15_19 C 0.62871(13) 0.37240(12) 0.54444(16)
H7_19 H 0.612946 0.385818 0.543121
C16_19 C 0.62321(11) 0.34257(13) 0.54538(18)
C17_19 C 0.64628(15) 0.32294(10) 0.54731(19)
C18_19 C 0.67484(13) 0.33315(13) 0.54830(19)
H8_19 H 0.690609 0.319731 0.549624
C19_19 C 0.68034(12) 0.36298(14) 0.54737(18)
H9_19 H 0.699866 0.369952 0.548049
C20_19 C 0.5166(3) 0.3115(3) 0.5358(2)
C21_19 C 0.54831(10) 0.30665(13) 0.53914(17)
C22_19 C 0.55836(13) 0.27803(11) 0.54015(18)
H10_19 H 0.544893 0.262273 0.539436
C23_19 C 0.58813(14) 0.27247(10) 0.54220(19)
H11_19 H 0.594999 0.252907 0.542896
C24_19 C 0.60784(10) 0.29552(13) 0.5432(2)
C25_19 C 0.59779(12) 0.32414(11) 0.54224(18)
C26_19 C 0.56802(13) 0.32970(10) 0.54018(16)
H12_19 H 0.561152 0.349261 0.539489
C27_19 C 0.9057(3) 0.1697(3) 0.4797(2)
C28_19 C 0.6607(3) 0.4153(3) 0.5439(2)
C29_19 C 0.69617(17) 0.22521(17) 0.5362(2)
C30_19 C 0.6760(2) 0.2314(2) 0.5144(2)
H13_19 H 0.676068 0.220405 0.496797
C31_19 C 0.65563(18) 0.2535(2) 0.5184(2)
H14_19 H 0.641825 0.257729 0.503480
C32_19 C 0.65549(16) 0.26955(16) 0.5442(2)
C33_19 C 0.6757(2) 0.26341(18) 0.5660(2)
H15_19 H 0.675585 0.274363 0.583571
C34_19 C 0.69602(17) 0.24124(19) 0.5620(2)
H16_19 H 0.709828 0.237039 0.576888
C35_19 C 0.7677(2) 0.1670(2) 0.5199(3)
C36_19 C 0.77010(19) 0.1884(2) 0.5412(3)
H17_19 H 0.787321 0.189701 0.552710
C37_19 C 0.7473(2) 0.2080(2) 0.5458(3)
H18_19 H 0.749018 0.222632 0.560371
C38_19 C 0.7221(2) 0.2061(2) 0.5290(3)
C39_19 C 0.7197(2) 0.1847(3) 0.5076(3)
H19_19 H 0.702484 0.183460 0.496097
C40_19 C 0.7425(3) 0.1652(2) 0.5030(3)
H20_19 H 0.740787 0.150528 0.488436
O11_10 O 0.42187(15) 0.35430(18) 0.51679(13)
O12_10 O 0.41272(15) 0.3066(2) 0.52891(16)
O13_15 O 0.47319(15) 0.33723(19) 0.48105(15)
O14_15 O 0.45854(17) 0.28846(17) 0.49237(19)
H21_19 H 0.486461 0.409349 0.532212
H22_19 H 0.459499 0.410756 0.509307
H23_19 H 0.454154 0.234596 0.533911
H24_19 H 0.423143 0.245158 0.547338
O1_20 O 0.00796(13) 0.16082(17) 0.46639(13)
N1_20 N 0.28934(18) 0.3560(2) 0.4881(3)
N2_20 N 0.13790(16) 0.20511(16) 0.4509(2)
C1_20 C 0.3076(3) 0.4754(3) 0.4664(2)
C2_20 C 0.30279(15) 0.44382(11) 0.47211(16)
C3_20 C 0.32399(12) 0.42509(15) 0.48309(15)
H1_20 H 0.342867 0.432352 0.487695
C4_20 C 0.31758(12) 0.39573(14) 0.48732(16)
C5_20 C 0.28997(14) 0.38510(11) 0.48058(18)
C6_20 C 0.26876(11) 0.40383(15) 0.46961(18)
H2_20 H 0.249886 0.396564 0.464998
C7_20 C 0.27517(13) 0.43319(14) 0.46537(17)
H3_20 H 0.260675 0.445992 0.457870
C8_20 C 0.37323(12) 0.33778(16) 0.51297(16)
C9_20 C 0.36425(13) 0.36546(13) 0.50435(15)
H4_20 H 0.377940 0.381025 0.503571
C10_20 C 0.33525(14) 0.37036(12) 0.49688(16)
C11_20 C 0.31523(11) 0.34758(15) 0.49802(18)
C12_20 C 0.32421(15) 0.31990(13) 0.50664(19)
H5_20 H 0.310521 0.304335 0.507423
C13_20 C 0.35321(16) 0.31500(12) 0.51412(18)
H6_20 H 0.359347 0.296081 0.520005
C14_20 C 0.15728(15) 0.11739(10) 0.45456(17)
C15_20 C 0.12871(13) 0.12760(12) 0.45556(16)
H7_20 H 0.112946 0.114182 0.456879
C16_20 C 0.12321(11) 0.15743(13) 0.45462(18)
C17_20 C 0.14628(15) 0.17706(10) 0.45269(19)
C18_20 C 0.17484(13) 0.16685(13) 0.45170(19)
H8_20 H 0.190609 0.180269 0.450376
C19_20 C 0.18034(12) 0.13702(14) 0.45263(18)
H9_20 H 0.199866 0.130048 0.451951
C20_20 C 0.0166(3) 0.1885(3) 0.4642(2)
C21_20 C 0.04831(10) 0.19335(13) 0.46086(17)
C22_20 C 0.05836(13) 0.22197(11) 0.45985(18)
H10_20 H 0.044893 0.237727 0.460564
C23_20 C 0.08813(14) 0.22753(10) 0.45780(19)
H11_20 H 0.094999 0.247093 0.457104
C24_20 C 0.10784(10) 0.20448(13) 0.4568(2)
C25_20 C 0.09779(12) 0.17586(11) 0.45776(18)
C26_20 C 0.06802(13) 0.17030(10) 0.45982(16)
H12_20 H 0.061152 0.150739 0.460511
C27_20 C 0.4057(3) 0.3303(3) 0.5203(2)
C28_20 C 0.1607(3) 0.0847(3) 0.4561(2)
C29_20 C 0.19617(17) 0.27479(17) 0.4638(2)
C30_20 C 0.1760(2) 0.2686(2) 0.4856(2)
H13_20 H 0.176068 0.279595 0.503203
C31_20 C 0.15563(18) 0.2465(2) 0.4816(2)
H14_20 H 0.141825 0.242271 0.496520
C32_20 C 0.15549(16) 0.23045(16) 0.4558(2)
C33_20 C 0.1757(2) 0.23659(18) 0.4340(2)
H15_20 H 0.175585 0.225637 0.416429
C34_20 C 0.19602(17) 0.25876(19) 0.4380(2)
H16_20 H 0.209828 0.262961 0.423112
C35_20 C 0.2677(2) 0.3330(2) 0.4801(3)
C36_20 C 0.27010(19) 0.3116(2) 0.4588(3)
H17_20 H 0.287321 0.310299 0.447290
C37_20 C 0.2473(2) 0.2920(2) 0.4542(3)
H18_20 H 0.249018 0.277368 0.439629
C38_20 C 0.2221(2) 0.2939(2) 0.4710(3)
C39_20 C 0.2197(2) 0.3153(3) 0.4924(3)
H19_20 H 0.202484 0.316540 0.503903
C40_20 C 0.2425(3) 0.3348(2) 0.4970(3)
H20_20 H 0.240787 0.349472 0.511564
O2_20 O 0.9975(2) 0.21057(16) 0.46088(16)
O9_20 O 0.9446(3) 0.25177(19) 0.4522(3)
O10_20 O 0.9777(2) 0.09977(18) 0.4854(2)
O13_16 O 0.97319(15) 0.16277(19) 0.51895(15)
O14_16 O 0.95854(17) 0.21154(17) 0.50763(19)
H21_20 H 0.986461 0.090651 0.467788
H22_20 H 0.959499 0.0892442 0.490693
H23_20 H 0.954154 0.265404 0.466089
H24_20 H 0.923143 0.254842 0.452662
O2_21 O 0.03912(16) 0.0025(2) 0.71057(16)
O9_21 O 0.0478(3) 0.0554(3) 0.75177(19)
O10_21 O 0.0146(2) 0.0223(2) 0.59977(18)
O11_11 O 0.01679(13) 0.07813(15) 0.64570(18)
O12_11 O 0.02891(16) 0.08728(15) 0.6934(2)
H21_21 H 0.0322116 0.0135392 0.590651
H22_21 H 0.00930666 0.0405007 0.589244
H23_21 H 0.0339106 0.0458463 0.765404
H24_21 H 0.0473378 0.0768575 0.754842
O1_21 O 0.03361(13) 0.99204(13) 0.66082(17)
N1_21 N 0.0119(3) 0.71066(18) 0.8560(2)
N2_21 N 0.0491(2) 0.86210(16) 0.70511(16)
C1_21 C 0.0336(2) 0.6924(3) 0.9754(3)
C2_21 C 0.02789(16) 0.69721(15) 0.94382(11)
C3_21 C 0.01691(15) 0.67601(12) 0.92509(15)
H1_21 H 0.012305 0.657133 0.932352
C4_21 C 0.01268(16) 0.68242(12) 0.89573(14)
C5_21 C 0.01942(18) 0.71003(14) 0.88510(11)
C6_21 C 0.03039(18) 0.73124(11) 0.90383(15)
H2_21 H 0.035002 0.750114 0.896564
C7_21 C 0.03463(17) 0.72483(13) 0.93319(14)
H3_21 H 0.042130 0.739325 0.945992
C10_21 C 0.00312(16) 0.66475(14) 0.87036(12)
C11_21 C 0.00198(18) 0.68477(11) 0.84758(15)
C14_21 C 0.04544(17) 0.84272(15) 0.61739(10)
C15_21 C 0.04444(16) 0.87129(13) 0.62760(12)
H7_21 H 0.043121 0.887054 0.614182
C16_21 C 0.04538(18) 0.87679(11) 0.65743(13)
C17_21 C 0.04731(19) 0.85372(15) 0.67706(10)
C18_21 C 0.04830(19) 0.82516(13) 0.66685(13)
H8_21 H 0.049624 0.809391 0.680269
C19_21 C 0.04737(18) 0.81966(12) 0.63702(14)
H9_21 H 0.048049 0.800134 0.630048
C20_21 C 0.0358(2) 0.9834(3) 0.6885(3)
C21_21 C 0.03914(17) 0.95169(10) 0.69335(13)
C22_21 C 0.04015(18) 0.94164(13) 0.72197(11)
H10_21 H 0.039436 0.955107 0.737727
C23_21 C 0.04220(19) 0.91187(14) 0.72753(10)
H11_21 H 0.042896 0.905001 0.747093
C24_21 C 0.0432(2) 0.89216(10) 0.70448(13)
C25_21 C 0.04224(18) 0.90221(12) 0.67586(11)
C26_21 C 0.04018(16) 0.93198(13) 0.67030(10)
H12_21 H 0.039489 0.938848 0.650739
C28_21 C 0.0439(2) 0.8393(3) 0.5847(3)
C29_21 C 0.0362(2) 0.80383(17) 0.77479(17)
C30_21 C 0.0144(2) 0.8240(2) 0.7686(2)
C31_21 C 0.0184(2) 0.84437(18) 0.7465(2)
H14_21 H 0.003480 0.858175 0.742271
C32_21 C 0.0442(2) 0.84451(16) 0.73045(16)
C33_21 C 0.0660(2) 0.8243(2) 0.73659(18)
H15_21 H 0.083571 0.824415 0.725637
C34_21 C 0.0620(2) 0.80398(17) 0.75876(19)
H16_21 H 0.076888 0.790172 0.762961
C35_21 C 0.0199(3) 0.7323(2) 0.8330(2)
C36_21 C 0.0412(3) 0.72990(19) 0.8116(2)
H17_21 H 0.052710 0.712679 0.810299
C37_21 C 0.0458(3) 0.7527(2) 0.7920(2)
H18_21 H 0.060371 0.750982 0.777368
C38_21 C 0.0290(3) 0.7779(2) 0.7939(2)
C39_21 C 0.0076(3) 0.7803(2) 0.8153(3)
C40_21 C 0.0030(3) 0.7575(3) 0.8348(2)
O3_11 O 0.98321(13) 0.57813(15) 0.85430(18)
O4_11 O 0.97109(16) 0.58728(15) 0.8066(2)
C8_21 C 0.98703(16) 0.62677(12) 0.83778(16)
C9_21 C 0.99565(15) 0.63575(13) 0.86546(13)
H4_21 H 0.996429 0.622060 0.881025
C12_21 C 0.99336(19) 0.67579(15) 0.81990(13)
H5_21 H 0.992577 0.689479 0.804335
C13_21 C 0.98588(18) 0.64679(16) 0.81500(12)
H6_21 H 0.979995 0.640653 0.796081
C27_21 C 0.9797(2) 0.5943(3) 0.8303(3)
H13_21 H 0.996797 0.823932 0.779595
H19_21 H 0.996097 0.797516 0.816540
H20_21 H 0.988436 0.759213 0.849472
C8_22 C 0.01297(16) 0.12677(12) 0.66222(16)
C9_22 C 0.00435(15) 0.13575(13) 0.63454(13)
H4_22 H 0.003571 0.122060 0.618975
C12_22 C 0.00664(19) 0.17579(15) 0.68010(13)
H5_22 H 0.007423 0.189479 0.695665
C13_22 C 0.01412(18) 0.14679(16) 0.68500(12)
H6_22 H 0.020005 0.140653 0.703919
C27_22 C 0.0203(2) 0.0943(3) 0.6697(3)
H13_22 H 0.003203 0.323932 0.720405
H19_22 H 0.003903 0.297516 0.683460
H20_22 H 0.011564 0.259213 0.650528
O1_22 O 0.96639(13) 0.49204(13) 0.83918(17)
O2_22 O 0.96088(16) 0.5025(2) 0.78943(16)
O9_22 O 0.9522(3) 0.5554(3) 0.74823(19)
O10_22 O 0.9854(2) 0.5223(2) 0.90023(18)
N1_22 N 0.9881(3) 0.21066(18) 0.6440(2)
N2_22 N 0.9509(2) 0.36210(16) 0.79489(16)
C1_22 C 0.9664(2) 0.1924(3) 0.5246(3)
C2_22 C 0.97211(16) 0.19721(15) 0.55618(11)
C3_22 C 0.98309(15) 0.17601(12) 0.57491(15)
H1_22 H 0.987695 0.157133 0.567648
C4_22 C 0.98732(16) 0.18242(12) 0.60427(14)
C5_22 C 0.98058(18) 0.21003(14) 0.61490(11)
C6_22 C 0.96961(18) 0.23124(11) 0.59617(15)
H2_22 H 0.964998 0.250114 0.603436
C7_22 C 0.96537(17) 0.22483(13) 0.56681(14)
H3_22 H 0.957870 0.239325 0.554008
C10_22 C 0.99688(16) 0.16475(14) 0.62964(12)
C11_22 C 0.99802(18) 0.18477(11) 0.65242(15)
C14_22 C 0.95456(17) 0.34272(15) 0.88261(10)
C15_22 C 0.95556(16) 0.37129(13) 0.87240(12)
H7_22 H 0.956879 0.387054 0.885818
C16_22 C 0.95462(18) 0.37679(11) 0.84257(13)
C17_22 C 0.95269(19) 0.35372(15) 0.82294(10)
C18_22 C 0.95170(19) 0.32516(13) 0.83315(13)
H8_22 H 0.950376 0.309391 0.819731
C19_22 C 0.95263(18) 0.31966(12) 0.86298(14)
H9_22 H 0.951951 0.300134 0.869952
C20_22 C 0.9642(2) 0.4834(3) 0.8115(3)
C21_22 C 0.96086(17) 0.45169(10) 0.80665(13)
C22_22 C 0.95985(18) 0.44164(13) 0.77803(11)
H10_22 H 0.960564 0.455107 0.762273
C23_22 C 0.95780(19) 0.41187(14) 0.77247(10)
H11_22 H 0.957104 0.405001 0.752907
C24_22 C 0.9568(2) 0.39216(10) 0.79552(13)
C25_22 C 0.95776(18) 0.40221(12) 0.82414(11)
C26_22 C 0.95982(16) 0.43198(13) 0.82970(10)
H12_22 H 0.960511 0.438848 0.849261
C28_22 C 0.9561(2) 0.3393(3) 0.9153(3)
C29_22 C 0.9638(2) 0.30383(17) 0.72521(17)
C30_22 C 0.9856(2) 0.3240(2) 0.7314(2)
C31_22 C 0.9816(2) 0.34437(18) 0.7535(2)
H14_22 H 0.996520 0.358175 0.757729
C32_22 C 0.9558(2) 0.34451(16) 0.76955(16)
C33_22 C 0.9340(2) 0.3243(2) 0.76341(18)
H15_22 H 0.916429 0.324415 0.774363
C34_22 C 0.9380(2) 0.30398(17) 0.74124(19)
H16_22 H 0.923112 0.290172 0.737039
C35_22 C 0.9801(3) 0.2323(2) 0.6670(2)
C36_22 C 0.9588(3) 0.22990(19) 0.6884(2)
H17_22 H 0.947290 0.212679 0.689701
C37_22 C 0.9542(3) 0.2527(2) 0.7080(2)
H18_22 H 0.939629 0.250982 0.722632
C38_22 C 0.9710(3) 0.2779(2) 0.7061(2)
C39_22 C 0.9924(3) 0.2803(2) 0.6847(3)
C40_22 C 0.9970(3) 0.2575(3) 0.6652(2)
H21_22 H 0.967788 0.513539 0.909349
H22_22 H 0.990693 0.540501 0.910756
H23_22 H 0.966089 0.545846 0.734596
H24_22 H 0.952662 0.576857 0.745158
O1_23 O 0.53361(13) 0.50796(13) 0.33918(17)
O2_23 O 0.53912(16) 0.4975(2) 0.28943(16)
O3_12 O 0.48321(13) 0.92187(15) 0.14570(18)
O4_12 O 0.47109(16) 0.91272(15) 0.1934(2)
O9_23 O 0.5478(3) 0.4446(3) 0.24823(19)
O10_23 O 0.5146(2) 0.4777(2) 0.40023(18)
N1_23 N 0.5119(3) 0.78934(18) 0.1440(2)
N2_23 N 0.5491(2) 0.63790(16) 0.29489(16)
C1_23 C 0.5336(2) 0.8076(3) 0.0246(3)
C2_23 C 0.52789(16) 0.80279(15) 0.05618(11)
C3_23 C 0.51691(15) 0.82399(12) 0.07491(15)
H1_23 H 0.512305 0.842867 0.067648
C4_23 C 0.51268(16) 0.81758(12) 0.10427(14)
C5_23 C 0.51942(18) 0.78997(14) 0.11490(11)
C6_23 C 0.53039(18) 0.76876(11) 0.09617(15)
H2_23 H 0.535002 0.749886 0.103436
C7_23 C 0.53463(17) 0.77517(13) 0.06681(14)
H3_23 H 0.542130 0.760675 0.054008
C8_23 C 0.48703(16) 0.87323(12) 0.16222(16)
C9_23 C 0.49565(15) 0.86425(13) 0.13454(13)
H4_23 H 0.496429 0.877940 0.118975
C10_23 C 0.50312(16) 0.83525(14) 0.12964(12)
C11_23 C 0.50198(18) 0.81523(11) 0.15242(15)
C12_23 C 0.49336(19) 0.82421(15) 0.18010(13)
H5_23 H 0.492577 0.810521 0.195665
C13_23 C 0.48588(18) 0.85321(16) 0.18500(12)
H6_23 H 0.479995 0.859347 0.203919
C14_23 C 0.54544(17) 0.65728(15) 0.38261(10)
C15_23 C 0.54444(16) 0.62871(13) 0.37240(12)
H7_23 H 0.543121 0.612946 0.385818
C16_23 C 0.54538(18) 0.62321(11) 0.34257(13)
C17_23 C 0.54731(19) 0.64628(15) 0.32294(10)
C18_23 C 0.54830(19) 0.67484(13) 0.33315(13)
H8_23 H 0.549624 0.690609 0.319731
C19_23 C 0.54737(18) 0.68034(12) 0.36298(14)
H9_23 H 0.548049 0.699866 0.369952
C20_23 C 0.5358(2) 0.5166(3) 0.3115(3)
C21_23 C 0.53914(17) 0.54831(10) 0.30665(13)
C22_23 C 0.54015(18) 0.55836(13) 0.27803(11)
H10_23 H 0.539436 0.544893 0.262273
C23_23 C 0.54220(19) 0.58813(14) 0.27247(10)
H11_23 H 0.542896 0.594999 0.252907
C24_23 C 0.5432(2) 0.60784(10) 0.29552(13)
C25_23 C 0.54224(18) 0.59779(12) 0.32414(11)
C26_23 C 0.54018(16) 0.56802(13) 0.32970(10)
H12_23 H 0.539489 0.561152 0.349261
C27_23 C 0.4797(2) 0.9057(3) 0.1697(3)
C28_23 C 0.5439(2) 0.6607(3) 0.4153(3)
C29_23 C 0.5362(2) 0.69617(17) 0.22521(17)
C30_23 C 0.5144(2) 0.6760(2) 0.2314(2)
H13_23 H 0.496797 0.676068 0.220405
C31_23 C 0.5184(2) 0.65563(18) 0.2535(2)
H14_23 H 0.503480 0.641825 0.257729
C32_23 C 0.5442(2) 0.65549(16) 0.26955(16)
C33_23 C 0.5660(2) 0.6757(2) 0.26341(18)
H15_23 H 0.583571 0.675585 0.274363
C34_23 C 0.5620(2) 0.69602(17) 0.24124(19)
H16_23 H 0.576888 0.709828 0.237039
C35_23 C 0.5199(3) 0.7677(2) 0.1670(2)
C36_23 C 0.5412(3) 0.77010(19) 0.1884(2)
H17_23 H 0.552710 0.787321 0.189701
C37_23 C 0.5458(3) 0.7473(2) 0.2080(2)
H18_23 H 0.560371 0.749018 0.222632
C38_23 C 0.5290(3) 0.7221(2) 0.2061(2)
C39_23 C 0.5076(3) 0.7197(2) 0.1847(3)
H19_23 H 0.496097 0.702484 0.183460
C40_23 C 0.5030(3) 0.7425(3) 0.1652(2)
H20_23 H 0.488436 0.740787 0.150528
O11_12 O 0.51679(13) 0.42187(15) 0.35430(18)
O12_12 O 0.52891(16) 0.41272(15) 0.3066(2)
H21_23 H 0.532212 0.486461 0.409349
H22_23 H 0.509307 0.459499 0.410756
H23_23 H 0.533911 0.454154 0.234596
H24_23 H 0.547338 0.423143 0.245158
O1_24 O 0.46639(13) 0.00796(13) 0.16082(17)
N1_24 N 0.4881(3) 0.28934(18) 0.3560(2)
N2_24 N 0.4509(2) 0.13790(16) 0.20511(16)
C1_24 C 0.4664(2) 0.3076(3) 0.4754(3)
C2_24 C 0.47211(16) 0.30279(15) 0.44382(11)
C3_24 C 0.48309(15) 0.32399(12) 0.42509(15)
H1_24 H 0.487695 0.342867 0.432352
C4_24 C 0.48732(16) 0.31758(12) 0.39573(14)
C5_24 C 0.48058(18) 0.28997(14) 0.38510(11)
C6_24 C 0.46961(18) 0.26876(11) 0.40383(15)
H2_24 H 0.464998 0.249886 0.396564
C7_24 C 0.46537(17) 0.27517(13) 0.43319(14)
H3_24 H 0.457870 0.260675 0.445992
C8_24 C 0.51297(16) 0.37323(12) 0.33778(16)
C9_24 C 0.50435(15) 0.36425(13) 0.36546(13)
H4_24 H 0.503571 0.377940 0.381025
C10_24 C 0.49688(16) 0.33525(14) 0.37036(12)
C11_24 C 0.49802(18) 0.31523(11) 0.34758(15)
C12_24 C 0.50664(19) 0.32421(15) 0.31990(13)
H5_24 H 0.507423 0.310521 0.304335
C13_24 C 0.51412(18) 0.35321(16) 0.31500(12)
H6_24 H 0.520005 0.359347 0.296081
C14_24 C 0.45456(17) 0.15728(15) 0.11739(10)
C15_24 C 0.45556(16) 0.12871(13) 0.12760(12)
H7_24 H 0.456879 0.112946 0.114182
C16_24 C 0.45462(18) 0.12321(11) 0.15743(13)
C17_24 C 0.45269(19) 0.14628(15) 0.17706(10)
C18_24 C 0.45170(19) 0.17484(13) 0.16685(13)
H8_24 H 0.450376 0.190609 0.180269
C19_24 C 0.45263(18) 0.18034(12) 0.13702(14)
H9_24 H 0.451951 0.199866 0.130048
C20_24 C 0.4642(2) 0.0166(3) 0.1885(3)
C21_24 C 0.46086(17) 0.04831(10) 0.19335(13)
C22_24 C 0.45985(18) 0.05836(13) 0.22197(11)
H10_24 H 0.460564 0.044893 0.237727
C23_24 C 0.45780(19) 0.08813(14) 0.22753(10)
H11_24 H 0.457104 0.094999 0.247093
C24_24 C 0.4568(2) 0.10784(10) 0.20448(13)
C25_24 C 0.45776(18) 0.09779(12) 0.17586(11)
C26_24 C 0.45982(16) 0.06802(13) 0.17030(10)
H12_24 H 0.460511 0.061152 0.150739
C27_24 C 0.5203(2) 0.4057(3) 0.3303(3)
C28_24 C 0.4561(2) 0.1607(3) 0.0847(3)
C29_24 C 0.4638(2) 0.19617(17) 0.27479(17)
C30_24 C 0.4856(2) 0.1760(2) 0.2686(2)
H13_24 H 0.503203 0.176068 0.279595
C31_24 C 0.4816(2) 0.15563(18) 0.2465(2)
H14_24 H 0.496520 0.141825 0.242271
C32_24 C 0.4558(2) 0.15549(16) 0.23045(16)
C33_24 C 0.4340(2) 0.1757(2) 0.23659(18)
H15_24 H 0.416429 0.175585 0.225637
C34_24 C 0.4380(2) 0.19602(17) 0.25876(19)
H16_24 H 0.423112 0.209828 0.262961
C35_24 C 0.4801(3) 0.2677(2) 0.3330(2)
C36_24 C 0.4588(3) 0.27010(19) 0.3116(2)
H17_24 H 0.447290 0.287321 0.310299
C37_24 C 0.4542(3) 0.2473(2) 0.2920(2)
H18_24 H 0.439629 0.249018 0.277368
C38_24 C 0.4710(3) 0.2221(2) 0.2939(2)
C39_24 C 0.4924(3) 0.2197(2) 0.3153(3)
H19_24 H 0.503903 0.202484 0.316540
C40_24 C 0.4970(3) 0.2425(3) 0.3348(2)
H20_24 H 0.511564 0.240787 0.349472
O2_24 O 0.46088(16) 0.9975(2) 0.21057(16)
O9_24 O 0.4522(3) 0.9446(3) 0.25177(19)
O10_24 O 0.4854(2) 0.9777(2) 0.09977(18)
H21_24 H 0.467788 0.986461 0.090651
H22_24 H 0.490693 0.959499 0.0892442
H23_24 H 0.466089 0.954154 0.265404
H24_24 H 0.452662 0.923143 0.254842
loop_
_geom_bond_atom_site_label_1
_geom_bond_atom_site_label_2
_geom_bond_site_symmetry_1
_geom_bond_site_symmetry_2
O3 C27 1_555 1_555
O4 C27 1_555 1_555
C8 C9 1_555 1_555
C9 H4 1_555 1_555
H5 C12 1_555 1_555
C13 C8 1_555 1_555
H6 C13 1_555 1_555
C27 C8 1_555 1_555
Mn3 O3 1_555 1_555
Mn6 O4 1_555 1_555
C12 C13 1_555 1_555
O1 C20 1_555 1_555
O5 C1 1_555 1_555
O6 C1 1_555 1_555
O7 C28 1_555 1_555
O8 C28 1_555 1_555
N1 C5 1_555 1_555
N2 C17 1_555 1_555
C1 C2 1_555 1_555
C2 C3 1_555 1_555
C3 H1 1_555 1_555
C4 C3 1_555 1_555
C5 C4 1_555 1_555
C6 C5 1_555 1_555
H2 C6 1_555 1_555
C7 C2 1_555 1_555
H3 C7 1_555 1_555
C10 C4 1_555 1_555
C11 N1 1_555 1_555
C14 C15 1_555 1_555
C15 H7 1_555 1_555
C16 C15 1_555 1_555
C17 C16 1_555 1_555
C18 C17 1_555 1_555
H8 C18 1_555 1_555
C19 C14 1_555 1_555
H9 C19 1_555 1_555
C20 C21 1_555 1_555
C21 C22 1_555 1_555
C22 H10 1_555 1_555
C23 C22 1_555 1_555
H11 C23 1_555 1_555
C24 N2 1_555 1_555
C25 C16 1_555 1_555
C26 C21 1_555 1_555
H12 C26 1_555 1_555
C28 C14 1_555 1_555
C29 C30 1_555 1_555
C31 C30 1_555 1_555
H14 C31 1_555 1_555
C32 N2 1_555 1_555
C33 C32 1_555 1_555
H15 C33 1_555 1_555
C34 C29 1_555 1_555
H16 C34 1_555 1_555
C35 N1 1_555 1_555
C36 C35 1_555 1_555
H17 C36 1_555 1_555
C37 C36 1_555 1_555
H18 C37 1_555 1_555
C38 C29 1_555 1_555
C39 C38 1_555 1_555
C40 C35 1_555 1_555
Mn5 O7 1_555 1_555
Mn8 O8 1_555 1_555
C6 C7 1_555 1_555
C10 C11 1_555 1_555
C18 C19 1_555 1_555
C23 C24 1_555 1_555
C24 C25 1_555 1_555
C25 C26 1_555 1_555
C31 C32 1_555 1_555
C33 C34 1_555 1_555
C37 C38 1_555 1_555
C39 C40 1_555 1_555
Mn2 O2 1_555 1_555
O9 Mn2 1_555 1_555
O10 Mn1 1_555 1_555
O11 Mn1 1_555 1_555
O12 Mn2 1_555 1_555
O15 Mn1 1_555 1_555
O16 Mn2 1_555 1_555
O10 H21 1_555 1_555
O10 H22 1_555 1_555
O9 H23 1_555 1_555
O9 H24 1_555 1_555
Mn3 O1_2 1_555 1_555
Mn6 O2_2 1_555 1_555
O1_2 C20_2 1_555 1_555
O2_2 C20_2 1_555 1_555
O5_2 C1_2 1_555 1_555
O6_2 C1_2 1_555 1_555
O7_2 C28_2 1_555 1_555
O8_2 C28_2 1_555 1_555
O9_2 Mn6 1_555 1_555
O10_2 Mn3 1_555 1_555
N1_2 C5_2 1_555 1_555
N2_2 C17_2 1_555 1_555
C1_2 C2_2 1_555 1_555
C2_2 C3_2 1_555 1_555
C3_2 H1_2 1_555 1_555
C4_2 C3_2 1_555 1_555
C5_2 C4_2 1_555 1_555
C6_2 C5_2 1_555 1_555
H2_2 C6_2 1_555 1_555
C7_2 C2_2 1_555 1_555
H3_2 C7_2 1_555 1_555
C10_2 C4_2 1_555 1_555
C11_2 N1_2 1_555 1_555
C14_2 C15_2 1_555 1_555
C15_2 H7_2 1_555 1_555
C16_2 C15_2 1_555 1_555
C17_2 C16_2 1_555 1_555
C18_2 C17_2 1_555 1_555
H8_2 C18_2 1_555 1_555
C19_2 C14_2 1_555 1_555
H9_2 C19_2 1_555 1_555
C20_2 C21_2 1_555 1_555
C21_2 C22_2 1_555 1_555
C22_2 H10_2 1_555 1_555
C23_2 C22_2 1_555 1_555
H11_2 C23_2 1_555 1_555
C24_2 N2_2 1_555 1_555
C25_2 C16_2 1_555 1_555
C26_2 C21_2 1_555 1_555
H12_2 C26_2 1_555 1_555
C28_2 C14_2 1_555 1_555
C29_2 C30_2 1_555 1_555
C31_2 C30_2 1_555 1_555
H14_2 C31_2 1_555 1_555
C32_2 N2_2 1_555 1_555
C33_2 C32_2 1_555 1_555
H15_2 C33_2 1_555 1_555
C34_2 C29_2 1_555 1_555
H16_2 C34_2 1_555 1_555
C35_2 N1_2 1_555 1_555
C36_2 C35_2 1_555 1_555
H17_2 C36_2 1_555 1_555
C37_2 C36_2 1_555 1_555
H18_2 C37_2 1_555 1_555
C38_2 C29_2 1_555 1_555
C39_2 C38_2 1_555 1_555
C40_2 C35_2 1_555 1_555
Mn4_2 O5_2 1_555 1_555
Mn5_2 O7_2 1_555 1_555
Mn7_2 O6_2 1_555 1_555
Mn8_2 O8_2 1_555 1_555
O15_2 Mn3 1_555 1_555
O16_2 Mn6 1_555 1_555
C6_2 C7_2 1_555 1_555
C10_2 C11_2 1_555 1_555
C18_2 C19_2 1_555 1_555
C23_2 C24_2 1_555 1_555
C24_2 C25_2 1_555 1_555
C25_2 C26_2 1_555 1_555
C31_2 C32_2 1_555 1_555
C33_2 C34_2 1_555 1_555
C37_2 C38_2 1_555 1_555
C39_2 C40_2 1_555 1_555
O10_2 H21_2 1_555 1_555
O10_2 H22_2 1_555 1_555
O9_2 H23_2 1_555 1_555
O9_2 H24_2 1_555 1_555
O11 C27_2 1_555 1_555
O12 C27_2 1_555 1_555
C8_2 C9_2 1_555 1_555
C9_2 H4_2 1_555 1_555
H5_2 C12_2 1_555 1_555
C13_2 C8_2 1_555 1_555
H6_2 C13_2 1_555 1_555
C27_2 C8_2 1_555 1_555
C12_2 C13_2 1_555 1_555
Mn1_2 O1_3 1_555 1_555
Mn2_2 O2_3 1_555 1_555
O1_3 C20_3 1_555 1_555
O2_3 C20_3 1_555 1_555
O3_2 C27_3 1_555 1_555
O4_2 C27_3 1_555 1_555
O5_3 C1_3 1_555 1_555
O6_3 C1_3 1_555 1_555
O7_3 C28_3 1_555 1_555
O8_3 C28_3 1_555 1_555
O9_3 Mn2_2 1_555 1_555
O10_3 Mn1_2 1_555 1_555
N1_3 C5_3 1_555 1_555
N2_3 C17_3 1_555 1_555
C1_3 C2_3 1_555 1_555
C2_3 C3_3 1_555 1_555
C3_3 H1_3 1_555 1_555
C4_3 C3_3 1_555 1_555
C5_3 C4_3 1_555 1_555
C6_3 C5_3 1_555 1_555
H2_3 C6_3 1_555 1_555
C7_3 C2_3 1_555 1_555
H3_3 C7_3 1_555 1_555
C8_3 C9_3 1_555 1_555
C9_3 H4_3 1_555 1_555
C10_3 C4_3 1_555 1_555
C11_3 N1_3 1_555 1_555
C12_3 C11_3 1_555 1_555
H5_3 C12_3 1_555 1_555
C13_3 C8_3 1_555 1_555
H6_3 C13_3 1_555 1_555
C14_3 C15_3 1_555 1_555
C15_3 H7_3 1_555 1_555
C16_3 C15_3 1_555 1_555
C17_3 C16_3 1_555 1_555
C18_3 C17_3 1_555 1_555
H8_3 C18_3 1_555 1_555
C19_3 C14_3 1_555 1_555
H9_3 C19_3 1_555 1_555
C20_3 C21_3 1_555 1_555
C21_3 C22_3 1_555 1_555
C22_3 H10_3 1_555 1_555
C23_3 C22_3 1_555 1_555
H11_3 C23_3 1_555 1_555
C24_3 N2_3 1_555 1_555
C25_3 C16_3 1_555 1_555
C26_3 C21_3 1_555 1_555
H12_3 C26_3 1_555 1_555
C27_3 C8_3 1_555 1_555
C28_3 C14_3 1_555 1_555
C29_3 C30_3 1_555 1_555
C30_3 H13_3 1_555 1_555
C31_3 C30_3 1_555 1_555
H14_3 C31_3 1_555 1_555
C32_3 N2_3 1_555 1_555
C33_3 C32_3 1_555 1_555
H15_3 C33_3 1_555 1_555
C34_3 C29_3 1_555 1_555
H16_3 C34_3 1_555 1_555
C35_3 N1_3 1_555 1_555
C36_3 C35_3 1_555 1_555
H17_3 C36_3 1_555 1_555
C37_3 C36_3 1_555 1_555
H18_3 C37_3 1_555 1_555
C38_3 C29_3 1_555 1_555
C39_3 C38_3 1_555 1_555
H19_3 C39_3 1_555 1_555
C40_3 C35_3 1_555 1_555
H20_3 C40_3 1_555 1_555
Mn3_2 O3_2 1_555 1_555
Mn5_3 O7_3 1_555 1_555
Mn6_2 O4_2 1_555 1_555
Mn8_3 O8_3 1_555 1_555
O11_2 Mn1_2 1_555 1_555
O12_2 Mn2_2 1_555 1_555
O13_3 Mn1_2 1_555 1_555
O14_3 Mn2_2 1_555 1_555
O15_3 Mn1_2 1_555 1_555
O16_3 Mn2_2 1_555 1_555
C6_3 C7_3 1_555 1_555
C9_3 C10_3 1_555 1_555
C10_3 C11_3 1_555 1_555
C12_3 C13_3 1_555 1_555
C18_3 C19_3 1_555 1_555
C23_3 C24_3 1_555 1_555
C24_3 C25_3 1_555 1_555
C25_3 C26_3 1_555 1_555
C31_3 C32_3 1_555 1_555
C33_3 C34_3 1_555 1_555
C37_3 C38_3 1_555 1_555
C39_3 C40_3 1_555 1_555
O10_3 H21_3 1_555 1_555
O10_3 H22_3 1_555 1_555
O9_3 H23_3 1_555 1_555
O9_3 H24_3 1_555 1_555
Mn6_2 O2_4 1_555 1_555
O9_4 Mn6_2 1_555 1_555
O10_4 Mn3_2 1_555 1_555
O13_4 Mn3_2 1_555 1_555
O14_4 Mn6_2 1_555 1_555
O15_4 Mn3_2 1_555 1_555
O16_4 Mn6_2 1_555 1_555
O10_4 H21_4 1_555 1_555
O10_4 H22_4 1_555 1_555
O9_4 H23_4 1_555 1_555
O9_4 H24_4 1_555 1_555
O1_4 C20_4 1_555 1_555
O11_2 C27_4 1_555 1_555
O12_2 C27_4 1_555 1_555
O5_4 C1_4 1_555 1_555
O6_4 C1_4 1_555 1_555
O7_4 C28_4 1_555 1_555
O8_4 C28_4 1_555 1_555
N1_4 C5_4 1_555 1_555
N2_4 C17_4 1_555 1_555
C1_4 C2_4 1_555 1_555
C2_4 C3_4 1_555 1_555
C3_4 H1_4 1_555 1_555
C4_4 C3_4 1_555 1_555
C5_4 C4_4 1_555 1_555
C6_4 C5_4 1_555 1_555
H2_4 C6_4 1_555 1_555
C7_4 C2_4 1_555 1_555
H3_4 C7_4 1_555 1_555
C8_4 C9_4 1_555 1_555
C9_4 H4_4 1_555 1_555
C10_4 C4_4 1_555 1_555
C11_4 N1_4 1_555 1_555
C12_4 C11_4 1_555 1_555
H5_4 C12_4 1_555 1_555
C13_4 C8_4 1_555 1_555
H6_4 C13_4 1_555 1_555
C14_4 C15_4 1_555 1_555
C15_4 H7_4 1_555 1_555
C16_4 C15_4 1_555 1_555
C17_4 C16_4 1_555 1_555
C18_4 C17_4 1_555 1_555
H8_4 C18_4 1_555 1_555
C19_4 C14_4 1_555 1_555
H9_4 C19_4 1_555 1_555
C20_4 C21_4 1_555 1_555
C21_4 C22_4 1_555 1_555
C22_4 H10_4 1_555 1_555
C23_4 C22_4 1_555 1_555
H11_4 C23_4 1_555 1_555
C24_4 N2_4 1_555 1_555
C25_4 C16_4 1_555 1_555
C26_4 C21_4 1_555 1_555
H12_4 C26_4 1_555 1_555
C27_4 C8_4 1_555 1_555
C28_4 C14_4 1_555 1_555
C29_4 C30_4 1_555 1_555
C30_4 H13_4 1_555 1_555
C31_4 C30_4 1_555 1_555
H14_4 C31_4 1_555 1_555
C32_4 N2_4 1_555 1_555
C33_4 C32_4 1_555 1_555
H15_4 C33_4 1_555 1_555
C34_4 C29_4 1_555 1_555
H16_4 C34_4 1_555 1_555
C35_4 N1_4 1_555 1_555
C36_4 C35_4 1_555 1_555
H17_4 C36_4 1_555 1_555
C37_4 C36_4 1_555 1_555
H18_4 C37_4 1_555 1_555
C38_4 C29_4 1_555 1_555
C39_4 C38_4 1_555 1_555
H19_4 C39_4 1_555 1_555
C40_4 C35_4 1_555 1_555
H20_4 C40_4 1_555 1_555
Mn4_4 O5_4 1_555 1_555
Mn5_4 O7_4 1_555 1_555
Mn7_4 O6_4 1_555 1_555
Mn8_4 O8_4 1_555 1_555
C6_4 C7_4 1_555 1_555
C9_4 C10_4 1_555 1_555
C10_4 C11_4 1_555 1_555
C12_4 C13_4 1_555 1_555
C18_4 C19_4 1_555 1_555
C23_4 C24_4 1_555 1_555
C24_4 C25_4 1_555 1_555
C25_4 C26_4 1_555 1_555
C31_4 C32_4 1_555 1_555
C33_4 C34_4 1_555 1_555
C37_4 C38_4 1_555 1_555
C39_4 C40_4 1_555 1_555
O3_3 C27_5 1_555 1_555
O4_3 C27_5 1_555 1_555
C8_5 C9_5 1_555 1_555
C9_5 H4_5 1_555 1_555
H5_5 C12_5 1_555 1_555
C13_5 C8_5 1_555 1_555
H6_5 C13_5 1_555 1_555
C27_5 C8_5 1_555 1_555
Mn3_3 O3_3 1_555 1_555
Mn6_3 O4_3 1_555 1_555
C12_5 C13_5 1_555 1_555
O1_5 C20_5 1_555 1_555
O13 C1_5 1_555 1_555
O14 C1_5 1_555 1_555
O7_5 C28_5 1_555 1_555
O8_5 C28_5 1_555 1_555
N1_5 C5_5 1_555 1_555
N2_5 C17_5 1_555 1_555
C1_5 C2_5 1_555 1_555
C2_5 C3_5 1_555 1_555
C3_5 H1_5 1_555 1_555
C4_5 C3_5 1_555 1_555
C5_5 C4_5 1_555 1_555
C6_5 C5_5 1_555 1_555
H2_5 C6_5 1_555 1_555
C7_5 C2_5 1_555 1_555
H3_5 C7_5 1_555 1_555
C10_5 C4_5 1_555 1_555
C11_5 N1_5 1_555 1_555
C14_5 C15_5 1_555 1_555
C15_5 H7_5 1_555 1_555
C16_5 C15_5 1_555 1_555
C17_5 C16_5 1_555 1_555
C18_5 C17_5 1_555 1_555
H8_5 C18_5 1_555 1_555
C19_5 C14_5 1_555 1_555
H9_5 C19_5 1_555 1_555
C20_5 C21_5 1_555 1_555
C21_5 C22_5 1_555 1_555
C22_5 H10_5 1_555 1_555
C23_5 C22_5 1_555 1_555
H11_5 C23_5 1_555 1_555
C24_5 N2_5 1_555 1_555
C25_5 C16_5 1_555 1_555
C26_5 C21_5 1_555 1_555
H12_5 C26_5 1_555 1_555
C28_5 C14_5 1_555 1_555
C29_5 C30_5 1_555 1_555
C31_5 C30_5 1_555 1_555
H14_5 C31_5 1_555 1_555
C32_5 N2_5 1_555 1_555
C33_5 C32_5 1_555 1_555
H15_5 C33_5 1_555 1_555
C34_5 C29_5 1_555 1_555
H16_5 C34_5 1_555 1_555
C35_5 N1_5 1_555 1_555
C36_5 C35_5 1_555 1_555
H17_5 C36_5 1_555 1_555
C37_5 C36_5 1_555 1_555
H18_5 C37_5 1_555 1_555
C38_5 C29_5 1_555 1_555
C39_5 C38_5 1_555 1_555
C40_5 C35_5 1_555 1_555
Mn5_5 O7_5 1_555 1_555
Mn8_5 O8_5 1_555 1_555
C6_5 C7_5 1_555 1_555
C10_5 C11_5 1_555 1_555
C18_5 C19_5 1_555 1_555
C23_5 C24_5 1_555 1_555
C24_5 C25_5 1_555 1_555
C25_5 C26_5 1_555 1_555
C31_5 C32_5 1_555 1_555
C33_5 C34_5 1_555 1_555
C37_5 C38_5 1_555 1_555
C39_5 C40_5 1_555 1_555
Mn2_3 O2_5 1_555 1_555
O9_5 Mn2_3 1_555 1_555
O10_5 Mn1_3 1_555 1_555
O11_3 Mn1_3 1_555 1_555
O12_3 Mn2_3 1_555 1_555
O15_5 Mn1_3 1_555 1_555
O16_5 Mn2_3 1_555 1_555
O10_5 H21_5 1_555 1_555
O10_5 H22_5 1_555 1_555
O9_5 H23_5 1_555 1_555
O9_5 H24_5 1_555 1_555
Mn3_3 O1_6 1_555 1_555
Mn6_3 O2_6 1_555 1_555
O1_6 C20_6 1_555 1_555
O2_6 C20_6 1_555 1_555
O13_4 C1_6 1_555 1_555
O14_4 C1_6 1_555 1_555
O7_6 C28_6 1_555 1_555
O8_6 C28_6 1_555 1_555
O9_6 Mn6_3 1_555 1_555
O10_6 Mn3_3 1_555 1_555
N1_6 C5_6 1_555 1_555
N2_6 C17_6 1_555 1_555
C1_6 C2_6 1_555 1_555
C2_6 C3_6 1_555 1_555
C3_6 H1_6 1_555 1_555
C4_6 C3_6 1_555 1_555
C5_6 C4_6 1_555 1_555
C6_6 C5_6 1_555 1_555
H2_6 C6_6 1_555 1_555
C7_6 C2_6 1_555 1_555
H3_6 C7_6 1_555 1_555
C10_6 C4_6 1_555 1_555
C11_6 N1_6 1_555 1_555
C14_6 C15_6 1_555 1_555
C15_6 H7_6 1_555 1_555
C16_6 C15_6 1_555 1_555
C17_6 C16_6 1_555 1_555
C18_6 C17_6 1_555 1_555
H8_6 C18_6 1_555 1_555
C19_6 C14_6 1_555 1_555
H9_6 C19_6 1_555 1_555
C20_6 C21_6 1_555 1_555
C21_6 C22_6 1_555 1_555
C22_6 H10_6 1_555 1_555
C23_6 C22_6 1_555 1_555
H11_6 C23_6 1_555 1_555
C24_6 N2_6 1_555 1_555
C25_6 C16_6 1_555 1_555
C26_6 C21_6 1_555 1_555
H12_6 C26_6 1_555 1_555
C28_6 C14_6 1_555 1_555
C29_6 C30_6 1_555 1_555
C31_6 C30_6 1_555 1_555
H14_6 C31_6 1_555 1_555
C32_6 N2_6 1_555 1_555
C33_6 C32_6 1_555 1_555
H15_6 C33_6 1_555 1_555
C34_6 C29_6 1_555 1_555
H16_6 C34_6 1_555 1_555
C35_6 N1_6 1_555 1_555
C36_6 C35_6 1_555 1_555
H17_6 C36_6 1_555 1_555
C37_6 C36_6 1_555 1_555
H18_6 C37_6 1_555 1_555
C38_6 C29_6 1_555 1_555
C39_6 C38_6 1_555 1_555
C40_6 C35_6 1_555 1_555
Mn5_6 O7_6 1_555 1_555
Mn8_6 O8_6 1_555 1_555
O15_6 Mn3_3 1_555 1_555
O16_6 Mn6_3 1_555 1_555
C6_6 C7_6 1_555 1_555
C10_6 C11_6 1_555 1_555
C18_6 C19_6 1_555 1_555
C23_6 C24_6 1_555 1_555
C24_6 C25_6 1_555 1_555
C25_6 C26_6 1_555 1_555
C31_6 C32_6 1_555 1_555
C33_6 C34_6 1_555 1_555
C37_6 C38_6 1_555 1_555
C39_6 C40_6 1_555 1_555
O10_6 H21_6 1_555 1_555
O10_6 H22_6 1_555 1_555
O9_6 H23_6 1_555 1_555
O9_6 H24_6 1_555 1_555
O11_3 C27_6 1_555 1_555
O12_3 C27_6 1_555 1_555
C8_6 C9_6 1_555 1_555
C9_6 H4_6 1_555 1_555
H5_6 C12_6 1_555 1_555
C13_6 C8_6 1_555 1_555
H6_6 C13_6 1_555 1_555
C27_6 C8_6 1_555 1_555
C12_6 C13_6 1_555 1_555
Mn1_4 O1_7 1_555 1_555
Mn2_4 O2_7 1_555 1_555
O1_7 C20_7 1_555 1_555
O2_7 C20_7 1_555 1_555
O3_4 C27_7 1_555 1_555
O4_4 C27_7 1_555 1_555
O13_2 C1_7 1_555 1_555
O14_2 C1_7 1_555 1_555
O7_7 C28_7 1_555 1_555
O8_7 C28_7 1_555 1_555
O9_7 Mn2_4 1_555 1_555
O10_7 Mn1_4 1_555 1_555
N1_7 C5_7 1_555 1_555
N2_7 C17_7 1_555 1_555
C1_7 C2_7 1_555 1_555
C2_7 C3_7 1_555 1_555
C3_7 H1_7 1_555 1_555
C4_7 C3_7 1_555 1_555
C5_7 C4_7 1_555 1_555
C6_7 C5_7 1_555 1_555
H2_7 C6_7 1_555 1_555
C7_7 C2_7 1_555 1_555
H3_7 C7_7 1_555 1_555
C8_7 C9_7 1_555 1_555
C9_7 H4_7 1_555 1_555
C10_7 C4_7 1_555 1_555
C11_7 N1_7 1_555 1_555
C12_7 C11_7 1_555 1_555
H5_7 C12_7 1_555 1_555
C13_7 C8_7 1_555 1_555
H6_7 C13_7 1_555 1_555
C14_7 C15_7 1_555 1_555
C15_7 H7_7 1_555 1_555
C16_7 C15_7 1_555 1_555
C17_7 C16_7 1_555 1_555
C18_7 C17_7 1_555 1_555
H8_7 C18_7 1_555 1_555
C19_7 C14_7 1_555 1_555
H9_7 C19_7 1_555 1_555
C20_7 C21_7 1_555 1_555
C21_7 C22_7 1_555 1_555
C22_7 H10_7 1_555 1_555
C23_7 C22_7 1_555 1_555
H11_7 C23_7 1_555 1_555
C24_7 N2_7 1_555 1_555
C25_7 C16_7 1_555 1_555
C26_7 C21_7 1_555 1_555
H12_7 C26_7 1_555 1_555
C27_7 C8_7 1_555 1_555
C28_7 C14_7 1_555 1_555
C29_7 C30_7 1_555 1_555
C30_7 H13_7 1_555 1_555
C31_7 C30_7 1_555 1_555
H14_7 C31_7 1_555 1_555
C32_7 N2_7 1_555 1_555
C33_7 C32_7 1_555 1_555
H15_7 C33_7 1_555 1_555
C34_7 C29_7 1_555 1_555
H16_7 C34_7 1_555 1_555
C35_7 N1_7 1_555 1_555
C36_7 C35_7 1_555 1_555
H17_7 C36_7 1_555 1_555
C37_7 C36_7 1_555 1_555
H18_7 C37_7 1_555 1_555
C38_7 C29_7 1_555 1_555
C39_7 C38_7 1_555 1_555
H19_7 C39_7 1_555 1_555
C40_7 C35_7 1_555 1_555
H20_7 C40_7 1_555 1_555
Mn3_4 O3_4 1_555 1_555
Mn5_7 O7_7 1_555 1_555
Mn6_4 O4_4 1_555 1_555
Mn8_7 O8_7 1_555 1_555
O11_4 Mn1_4 1_555 1_555
O12_4 Mn2_4 1_555 1_555
O13_7 Mn1_4 1_555 1_555
O14_7 Mn2_4 1_555 1_555
O15_7 Mn1_4 1_555 1_555
O16_7 Mn2_4 1_555 1_555
C6_7 C7_7 1_555 1_555
C9_7 C10_7 1_555 1_555
C10_7 C11_7 1_555 1_555
C12_7 C13_7 1_555 1_555
C18_7 C19_7 1_555 1_555
C23_7 C24_7 1_555 1_555
C24_7 C25_7 1_555 1_555
C25_7 C26_7 1_555 1_555
C31_7 C32_7 1_555 1_555
C33_7 C34_7 1_555 1_555
C37_7 C38_7 1_555 1_555
C39_7 C40_7 1_555 1_555
O10_7 H21_7 1_555 1_555
O10_7 H22_7 1_555 1_555
O9_7 H23_7 1_555 1_555
O9_7 H24_7 1_555 1_555
Mn6_4 O2_8 1_555 1_555
O9_8 Mn6_4 1_555 1_555
O10_8 Mn3_4 1_555 1_555
O13_8 Mn3_4 1_555 1_555
O14_8 Mn6_4 1_555 1_555
O15_8 Mn3_4 1_555 1_555
O16_8 Mn6_4 1_555 1_555
O10_8 H21_8 1_555 1_555
O10_8 H22_8 1_555 1_555
O9_8 H23_8 1_555 1_555
O9_8 H24_8 1_555 1_555
O1_8 C20_8 1_555 1_555
O11_4 C27_8 1_555 1_555
O12_4 C27_8 1_555 1_555
O13_3 C1_8 1_555 1_555
O14_3 C1_8 1_555 1_555
O7_8 C28_8 1_555 1_555
O8_8 C28_8 1_555 1_555
N1_8 C5_8 1_555 1_555
N2_8 C17_8 1_555 1_555
C1_8 C2_8 1_555 1_555
C2_8 C3_8 1_555 1_555
C3_8 H1_8 1_555 1_555
C4_8 C3_8 1_555 1_555
C5_8 C4_8 1_555 1_555
C6_8 C5_8 1_555 1_555
H2_8 C6_8 1_555 1_555
C7_8 C2_8 1_555 1_555
H3_8 C7_8 1_555 1_555
C8_8 C9_8 1_555 1_555
C9_8 H4_8 1_555 1_555
C10_8 C4_8 1_555 1_555
C11_8 N1_8 1_555 1_555
C12_8 C11_8 1_555 1_555
H5_8 C12_8 1_555 1_555
C13_8 C8_8 1_555 1_555
H6_8 C13_8 1_555 1_555
C14_8 C15_8 1_555 1_555
C15_8 H7_8 1_555 1_555
C16_8 C15_8 1_555 1_555
C17_8 C16_8 1_555 1_555
C18_8 C17_8 1_555 1_555
H8_8 C18_8 1_555 1_555
C19_8 C14_8 1_555 1_555
H9_8 C19_8 1_555 1_555
C20_8 C21_8 1_555 1_555
C21_8 C22_8 1_555 1_555
C22_8 H10_8 1_555 1_555
C23_8 C22_8 1_555 1_555
H11_8 C23_8 1_555 1_555
C24_8 N2_8 1_555 1_555
C25_8 C16_8 1_555 1_555
C26_8 C21_8 1_555 1_555
H12_8 C26_8 1_555 1_555
C27_8 C8_8 1_555 1_555
C28_8 C14_8 1_555 1_555
C29_8 C30_8 1_555 1_555
C30_8 H13_8 1_555 1_555
C31_8 C30_8 1_555 1_555
H14_8 C31_8 1_555 1_555
C32_8 N2_8 1_555 1_555
C33_8 C32_8 1_555 1_555
H15_8 C33_8 1_555 1_555
C34_8 C29_8 1_555 1_555
H16_8 C34_8 1_555 1_555
C35_8 N1_8 1_555 1_555
C36_8 C35_8 1_555 1_555
H17_8 C36_8 1_555 1_555
C37_8 C36_8 1_555 1_555
H18_8 C37_8 1_555 1_555
C38_8 C29_8 1_555 1_555
C39_8 C38_8 1_555 1_555
H19_8 C39_8 1_555 1_555
C40_8 C35_8 1_555 1_555
H20_8 C40_8 1_555 1_555
Mn5_8 O7_8 1_555 1_555
Mn8_8 O8_8 1_555 1_555
C6_8 C7_8 1_555 1_555
C9_8 C10_8 1_555 1_555
C10_8 C11_8 1_555 1_555
C12_8 C13_8 1_555 1_555
C18_8 C19_8 1_555 1_555
C23_8 C24_8 1_555 1_555
C24_8 C25_8 1_555 1_555
C25_8 C26_8 1_555 1_555
C31_8 C32_8 1_555 1_555
C33_8 C34_8 1_555 1_555
C37_8 C38_8 1_555 1_555
C39_8 C40_8 1_555 1_555
O3_5 C27_9 1_555 1_555
O4_5 C27_9 1_555 1_555
C8_9 C9_9 1_555 1_555
C9_9 H4_9 1_555 1_555
H5_9 C12_9 1_555 1_555
C13_9 C8_9 1_555 1_555
H6_9 C13_9 1_555 1_555
C27_9 C8_9 1_555 1_555
Mn4_3 O3_5 1_555 1_555
Mn7_3 O4_5 1_555 1_555
C12_9 C13_9 1_555 1_555
O1_9 C20_9 1_555 1_555
O13_5 C1_9 1_555 1_555
O14_5 C1_9 1_555 1_555
O7_9 C28_9 1_555 1_555
O8_9 C28_9 1_555 1_555
N1_9 C5_9 1_555 1_555
N2_9 C17_9 1_555 1_555
C1_9 C2_9 1_555 1_555
C2_9 C3_9 1_555 1_555
C3_9 H1_9 1_555 1_555
C4_9 C3_9 1_555 1_555
C5_9 C4_9 1_555 1_555
C6_9 C5_9 1_555 1_555
H2_9 C6_9 1_555 1_555
C7_9 C2_9 1_555 1_555
H3_9 C7_9 1_555 1_555
C10_9 C4_9 1_555 1_555
C11_9 N1_9 1_555 1_555
C14_9 C15_9 1_555 1_555
C15_9 H7_9 1_555 1_555
C16_9 C15_9 1_555 1_555
C17_9 C16_9 1_555 1_555
C18_9 C17_9 1_555 1_555
H8_9 C18_9 1_555 1_555
C19_9 C14_9 1_555 1_555
H9_9 C19_9 1_555 1_555
C20_9 C21_9 1_555 1_555
C21_9 C22_9 1_555 1_555
C22_9 H10_9 1_555 1_555
C23_9 C22_9 1_555 1_555
H11_9 C23_9 1_555 1_555
C24_9 N2_9 1_555 1_555
C25_9 C16_9 1_555 1_555
C26_9 C21_9 1_555 1_555
H12_9 C26_9 1_555 1_555
C28_9 C14_9 1_555 1_555
C29_9 C30_9 1_555 1_555
C31_9 C30_9 1_555 1_555
H14_9 C31_9 1_555 1_555
C32_9 N2_9 1_555 1_555
C33_9 C32_9 1_555 1_555
H15_9 C33_9 1_555 1_555
C34_9 C29_9 1_555 1_555
H16_9 C34_9 1_555 1_555
C35_9 N1_9 1_555 1_555
C36_9 C35_9 1_555 1_555
H17_9 C36_9 1_555 1_555
C37_9 C36_9 1_555 1_555
H18_9 C37_9 1_555 1_555
C38_9 C29_9 1_555 1_555
C39_9 C38_9 1_555 1_555
C40_9 C35_9 1_555 1_555
Mn5_9 O7_9 1_555 1_555
Mn8_9 O8_9 1_555 1_555
C6_9 C7_9 1_555 1_555
C10_9 C11_9 1_555 1_555
C18_9 C19_9 1_555 1_555
C23_9 C24_9 1_555 1_555
C24_9 C25_9 1_555 1_555
C25_9 C26_9 1_555 1_555
C31_9 C32_9 1_555 1_555
C33_9 C34_9 1_555 1_555
C37_9 C38_9 1_555 1_555
C39_9 C40_9 1_555 1_555
Mn7 O2_9 1_555 1_555
O9_9 Mn7 1_555 1_555
O10_9 Mn4 1_555 1_555
O11_5 Mn4 1_555 1_555
O12_5 Mn7 1_555 1_555
O15_9 Mn4 1_555 1_555
O16_9 Mn7 1_555 1_555
O10_9 H21_9 1_555 1_555
O10_9 H22_9 1_555 1_555
O9_9 H23_9 1_555 1_555
O9_9 H24_9 1_555 1_555
Mn4_3 O1_10 1_555 1_555
Mn7_3 O2_10 1_555 1_555
O1_10 C20_10 1_555 1_555
O2_10 C20_10 1_555 1_555
O13_8 C1_10 1_555 1_555
O14_8 C1_10 1_555 1_555
O7_10 C28_10 1_555 1_555
O8_10 C28_10 1_555 1_555
O9_10 Mn7_3 1_555 1_555
O10_10 Mn4_3 1_555 1_555
N1_10 C5_10 1_555 1_555
N2_10 C17_10 1_555 1_555
C1_10 C2_10 1_555 1_555
C2_10 C3_10 1_555 1_555
C3_10 H1_10 1_555 1_555
C4_10 C3_10 1_555 1_555
C5_10 C4_10 1_555 1_555
C6_10 C5_10 1_555 1_555
H2_10 C6_10 1_555 1_555
C7_10 C2_10 1_555 1_555
H3_10 C7_10 1_555 1_555
C10_10 C4_10 1_555 1_555
C11_10 N1_10 1_555 1_555
C14_10 C15_10 1_555 1_555
C15_10 H7_10 1_555 1_555
C16_10 C15_10 1_555 1_555
C17_10 C16_10 1_555 1_555
C18_10 C17_10 1_555 1_555
H8_10 C18_10 1_555 1_555
C19_10 C14_10 1_555 1_555
H9_10 C19_10 1_555 1_555
C20_10 C21_10 1_555 1_555
C21_10 C22_10 1_555 1_555
C22_10 H10_10 1_555 1_555
C23_10 C22_10 1_555 1_555
H11_10 C23_10 1_555 1_555
C24_10 N2_10 1_555 1_555
C25_10 C16_10 1_555 1_555
C26_10 C21_10 1_555 1_555
H12_10 C26_10 1_555 1_555
C28_10 C14_10 1_555 1_555
C29_10 C30_10 1_555 1_555
C31_10 C30_10 1_555 1_555
H14_10 C31_10 1_555 1_555
C32_10 N2_10 1_555 1_555
C33_10 C32_10 1_555 1_555
H15_10 C33_10 1_555 1_555
C34_10 C29_10 1_555 1_555
H16_10 C34_10 1_555 1_555
C35_10 N1_10 1_555 1_555
C36_10 C35_10 1_555 1_555
H17_10 C36_10 1_555 1_555
C37_10 C36_10 1_555 1_555
H18_10 C37_10 1_555 1_555
C38_10 C29_10 1_555 1_555
C39_10 C38_10 1_555 1_555
C40_10 C35_10 1_555 1_555
Mn5_10 O7_10 1_555 1_555
Mn8_10 O8_10 1_555 1_555
O15_10 Mn4_3 1_555 1_555
O16_10 Mn7_3 1_555 1_555
C6_10 C7_10 1_555 1_555
C10_10 C11_10 1_555 1_555
C18_10 C19_10 1_555 1_555
C23_10 C24_10 1_555 1_555
C24_10 C25_10 1_555 1_555
C25_10 C26_10 1_555 1_555
C31_10 C32_10 1_555 1_555
C33_10 C34_10 1_555 1_555
C37_10 C38_10 1_555 1_555
C39_10 C40_10 1_555 1_555
O10_10 H21_10 1_555 1_555
O10_10 H22_10 1_555 1_555
O9_10 H23_10 1_555 1_555
O9_10 H24_10 1_555 1_555
O11_5 C27_10 1_555 1_555
O12_5 C27_10 1_555 1_555
C8_10 C9_10 1_555 1_555
C9_10 H4_10 1_555 1_555
H5_10 C12_10 1_555 1_555
C13_10 C8_10 1_555 1_555
H6_10 C13_10 1_555 1_555
C27_10 C8_10 1_555 1_555
C12_10 C13_10 1_555 1_555
Mn4_4 O1_11 1_555 1_555
Mn7_4 O2_11 1_555 1_555
O1_11 C20_11 1_555 1_555
O2_11 C20_11 1_555 1_555
O3_6 C27_11 1_555 1_555
O4_6 C27_11 1_555 1_555
O13_6 C1_11 1_555 1_555
O14_6 C1_11 1_555 1_555
O7_11 C28_11 1_555 1_555
O8_11 C28_11 1_555 1_555
O9_11 Mn7_4 1_555 1_555
O10_11 Mn4_4 1_555 1_555
N1_11 C5_11 1_555 1_555
N2_11 C17_11 1_555 1_555
C1_11 C2_11 1_555 1_555
C2_11 C3_11 1_555 1_555
C3_11 H1_11 1_555 1_555
C4_11 C3_11 1_555 1_555
C5_11 C4_11 1_555 1_555
C6_11 C5_11 1_555 1_555
H2_11 C6_11 1_555 1_555
C7_11 C2_11 1_555 1_555
H3_11 C7_11 1_555 1_555
C8_11 C9_11 1_555 1_555
C9_11 H4_11 1_555 1_555
C10_11 C4_11 1_555 1_555
C11_11 N1_11 1_555 1_555
C12_11 C11_11 1_555 1_555
H5_11 C12_11 1_555 1_555
C13_11 C8_11 1_555 1_555
H6_11 C13_11 1_555 1_555
C14_11 C15_11 1_555 1_555
C15_11 H7_11 1_555 1_555
C16_11 C15_11 1_555 1_555
C17_11 C16_11 1_555 1_555
C18_11 C17_11 1_555 1_555
H8_11 C18_11 1_555 1_555
C19_11 C14_11 1_555 1_555
H9_11 C19_11 1_555 1_555
C20_11 C21_11 1_555 1_555
C21_11 C22_11 1_555 1_555
C22_11 H10_11 1_555 1_555
C23_11 C22_11 1_555 1_555
H11_11 C23_11 1_555 1_555
C24_11 N2_11 1_555 1_555
C25_11 C16_11 1_555 1_555
C26_11 C21_11 1_555 1_555
H12_11 C26_11 1_555 1_555
C27_11 C8_11 1_555 1_555
C28_11 C14_11 1_555 1_555
C29_11 C30_11 1_555 1_555
C30_11 H13_11 1_555 1_555
C31_11 C30_11 1_555 1_555
H14_11 C31_11 1_555 1_555
C32_11 N2_11 1_555 1_555
C33_11 C32_11 1_555 1_555
H15_11 C33_11 1_555 1_555
C34_11 C29_11 1_555 1_555
H16_11 C34_11 1_555 1_555
C35_11 N1_11 1_555 1_555
C36_11 C35_11 1_555 1_555
H17_11 C36_11 1_555 1_555
C37_11 C36_11 1_555 1_555
H18_11 C37_11 1_555 1_555
C38_11 C29_11 1_555 1_555
C39_11 C38_11 1_555 1_555
H19_11 C39_11 1_555 1_555
C40_11 C35_11 1_555 1_555
H20_11 C40_11 1_555 1_555
Mn4_2 O3_6 1_555 1_555
Mn5_11 O7_11 1_555 1_555
Mn7_2 O4_6 1_555 1_555
Mn8_11 O8_11 1_555 1_555
O11_6 Mn4_4 1_555 1_555
O12_6 Mn7_4 1_555 1_555
O15_11 Mn4_4 1_555 1_555
O16_11 Mn7_4 1_555 1_555
C6_11 C7_11 1_555 1_555
C9_11 C10_11 1_555 1_555
C10_11 C11_11 1_555 1_555
C12_11 C13_11 1_555 1_555
C18_11 C19_11 1_555 1_555
C23_11 C24_11 1_555 1_555
C24_11 C25_11 1_555 1_555
C25_11 C26_11 1_555 1_555
C31_11 C32_11 1_555 1_555
C33_11 C34_11 1_555 1_555
C37_11 C38_11 1_555 1_555
C39_11 C40_11 1_555 1_555
O10_11 H21_11 1_555 1_555
O10_11 H22_11 1_555 1_555
O9_11 H23_11 1_555 1_555
O9_11 H24_11 1_555 1_555
Mn7_2 O2_12 1_555 1_555
O9_12 Mn7_2 1_555 1_555
O10_12 Mn4_2 1_555 1_555
O15_12 Mn4_2 1_555 1_555
O16_12 Mn7_2 1_555 1_555
O10_12 H21_12 1_555 1_555
O10_12 H22_12 1_555 1_555
O9_12 H23_12 1_555 1_555
O9_12 H24_12 1_555 1_555
O1_12 C20_12 1_555 1_555
O11_6 C27_12 1_555 1_555
O12_6 C27_12 1_555 1_555
O13_7 C1_12 1_555 1_555
O14_7 C1_12 1_555 1_555
O7_12 C28_12 1_555 1_555
O8_12 C28_12 1_555 1_555
N1_12 C5_12 1_555 1_555
N2_12 C17_12 1_555 1_555
C1_12 C2_12 1_555 1_555
C2_12 C3_12 1_555 1_555
C3_12 H1_12 1_555 1_555
C4_12 C3_12 1_555 1_555
C5_12 C4_12 1_555 1_555
C6_12 C5_12 1_555 1_555
H2_12 C6_12 1_555 1_555
C7_12 C2_12 1_555 1_555
H3_12 C7_12 1_555 1_555
C8_12 C9_12 1_555 1_555
C9_12 H4_12 1_555 1_555
C10_12 C4_12 1_555 1_555
C11_12 N1_12 1_555 1_555
C12_12 C11_12 1_555 1_555
H5_12 C12_12 1_555 1_555
C13_12 C8_12 1_555 1_555
H6_12 C13_12 1_555 1_555
C14_12 C15_12 1_555 1_555
C15_12 H7_12 1_555 1_555
C16_12 C15_12 1_555 1_555
C17_12 C16_12 1_555 1_555
C18_12 C17_12 1_555 1_555
H8_12 C18_12 1_555 1_555
C19_12 C14_12 1_555 1_555
H9_12 C19_12 1_555 1_555
C20_12 C21_12 1_555 1_555
C21_12 C22_12 1_555 1_555
C22_12 H10_12 1_555 1_555
C23_12 C22_12 1_555 1_555
H11_12 C23_12 1_555 1_555
C24_12 N2_12 1_555 1_555
C25_12 C16_12 1_555 1_555
C26_12 C21_12 1_555 1_555
H12_12 C26_12 1_555 1_555
C27_12 C8_12 1_555 1_555
C28_12 C14_12 1_555 1_555
C29_12 C30_12 1_555 1_555
C30_12 H13_12 1_555 1_555
C31_12 C30_12 1_555 1_555
H14_12 C31_12 1_555 1_555
C32_12 N2_12 1_555 1_555
C33_12 C32_12 1_555 1_555
H15_12 C33_12 1_555 1_555
C34_12 C29_12 1_555 1_555
H16_12 C34_12 1_555 1_555
C35_12 N1_12 1_555 1_555
C36_12 C35_12 1_555 1_555
H17_12 C36_12 1_555 1_555
C37_12 C36_12 1_555 1_555
H18_12 C37_12 1_555 1_555
C38_12 C29_12 1_555 1_555
C39_12 C38_12 1_555 1_555
H19_12 C39_12 1_555 1_555
C40_12 C35_12 1_555 1_555
H20_12 C40_12 1_555 1_555
Mn5_12 O7_12 1_555 1_555
Mn8_12 O8_12 1_555 1_555
C6_12 C7_12 1_555 1_555
C9_12 C10_12 1_555 1_555
C10_12 C11_12 1_555 1_555
C12_12 C13_12 1_555 1_555
C18_12 C19_12 1_555 1_555
C23_12 C24_12 1_555 1_555
C24_12 C25_12 1_555 1_555
C25_12 C26_12 1_555 1_555
C31_12 C32_12 1_555 1_555
C33_12 C34_12 1_555 1_555
C37_12 C38_12 1_555 1_555
C39_12 C40_12 1_555 1_555
Mn8_6 O2_13 1_555 1_555
O9_13 Mn8_6 1_555 1_555
O10_13 Mn5_6 1_555 1_555
O11_7 Mn5_6 1_555 1_555
O12_7 Mn8_6 1_555 1_555
O10_13 H21_13 1_555 1_555
O10_13 H22_13 1_555 1_555
O9_13 H23_13 1_555 1_555
O9_13 H24_13 1_555 1_555
O1_13 C20_13 1_555 1_555
O5_5 C1_13 1_555 1_555
O6_5 C1_13 1_555 1_555
O15_12 C28_13 1_555 1_555
O16_12 C28_13 1_555 1_555
N1_13 C5_13 1_555 1_555
N2_13 C17_13 1_555 1_555
C1_13 C2_13 1_555 1_555
C2_13 C3_13 1_555 1_555
C3_13 H1_13 1_555 1_555
C4_13 C3_13 1_555 1_555
C5_13 C4_13 1_555 1_555
C6_13 C5_13 1_555 1_555
H2_13 C6_13 1_555 1_555
C7_13 C2_13 1_555 1_555
H3_13 C7_13 1_555 1_555
C10_13 C4_13 1_555 1_555
C11_13 N1_13 1_555 1_555
C14_13 C15_13 1_555 1_555
C15_13 H7_13 1_555 1_555
C16_13 C15_13 1_555 1_555
C17_13 C16_13 1_555 1_555
C18_13 C17_13 1_555 1_555
H8_13 C18_13 1_555 1_555
C19_13 C14_13 1_555 1_555
H9_13 C19_13 1_555 1_555
C20_13 C21_13 1_555 1_555
C21_13 C22_13 1_555 1_555
C22_13 H10_13 1_555 1_555
C23_13 C22_13 1_555 1_555
H11_13 C23_13 1_555 1_555
C24_13 N2_13 1_555 1_555
C25_13 C16_13 1_555 1_555
C26_13 C21_13 1_555 1_555
H12_13 C26_13 1_555 1_555
C28_13 C14_13 1_555 1_555
C29_13 C30_13 1_555 1_555
C31_13 C30_13 1_555 1_555
H14_13 C31_13 1_555 1_555
C32_13 N2_13 1_555 1_555
C33_13 C32_13 1_555 1_555
H15_13 C33_13 1_555 1_555
C34_13 C29_13 1_555 1_555
H16_13 C34_13 1_555 1_555
C35_13 N1_13 1_555 1_555
C36_13 C35_13 1_555 1_555
H17_13 C36_13 1_555 1_555
C37_13 C36_13 1_555 1_555
H18_13 C37_13 1_555 1_555
C38_13 C29_13 1_555 1_555
C39_13 C38_13 1_555 1_555
C40_13 C35_13 1_555 1_555
C6_13 C7_13 1_555 1_555
C10_13 C11_13 1_555 1_555
C18_13 C19_13 1_555 1_555
C23_13 C24_13 1_555 1_555
C24_13 C25_13 1_555 1_555
C25_13 C26_13 1_555 1_555
C31_13 C32_13 1_555 1_555
C33_13 C34_13 1_555 1_555
C37_13 C38_13 1_555 1_555
C39_13 C40_13 1_555 1_555
O3_7 C27_13 1_555 1_555
O4_7 C27_13 1_555 1_555
C8_13 C9_13 1_555 1_555
C9_13 H4_13 1_555 1_555
H5_13 C12_13 1_555 1_555
C13_13 C8_13 1_555 1_555
H6_13 C13_13 1_555 1_555
C27_13 C8_13 1_555 1_555
Mn5_8 O3_7 1_555 1_555
Mn8_8 O4_7 1_555 1_555
C12_13 C13_13 1_555 1_555
O11_7 C27_14 1_555 1_555
O12_7 C27_14 1_555 1_555
C8_14 C9_14 1_555 1_555
C9_14 H4_14 1_555 1_555
H5_14 C12_14 1_555 1_555
C13_14 C8_14 1_555 1_555
H6_14 C13_14 1_555 1_555
C27_14 C8_14 1_555 1_555
C12_14 C13_14 1_555 1_555
Mn5_8 O1_14 1_555 1_555
Mn8_8 O2_14 1_555 1_555
O1_14 C20_14 1_555 1_555
O2_14 C20_14 1_555 1_555
O5_6 C1_14 1_555 1_555
O6_6 C1_14 1_555 1_555
O15_9 C28_14 1_555 1_555
O16_9 C28_14 1_555 1_555
O9_14 Mn8_8 1_555 1_555
O10_14 Mn5_8 1_555 1_555
N1_14 C5_14 1_555 1_555
N2_14 C17_14 1_555 1_555
C1_14 C2_14 1_555 1_555
C2_14 C3_14 1_555 1_555
C3_14 H1_14 1_555 1_555
C4_14 C3_14 1_555 1_555
C5_14 C4_14 1_555 1_555
C6_14 C5_14 1_555 1_555
H2_14 C6_14 1_555 1_555
C7_14 C2_14 1_555 1_555
H3_14 C7_14 1_555 1_555
C10_14 C4_14 1_555 1_555
C11_14 N1_14 1_555 1_555
C14_14 C15_14 1_555 1_555
C15_14 H7_14 1_555 1_555
C16_14 C15_14 1_555 1_555
C17_14 C16_14 1_555 1_555
C18_14 C17_14 1_555 1_555
H8_14 C18_14 1_555 1_555
C19_14 C14_14 1_555 1_555
H9_14 C19_14 1_555 1_555
C20_14 C21_14 1_555 1_555
C21_14 C22_14 1_555 1_555
C22_14 H10_14 1_555 1_555
C23_14 C22_14 1_555 1_555
H11_14 C23_14 1_555 1_555
C24_14 N2_14 1_555 1_555
C25_14 C16_14 1_555 1_555
C26_14 C21_14 1_555 1_555
H12_14 C26_14 1_555 1_555
C28_14 C14_14 1_555 1_555
C29_14 C30_14 1_555 1_555
C31_14 C30_14 1_555 1_555
H14_14 C31_14 1_555 1_555
C32_14 N2_14 1_555 1_555
C33_14 C32_14 1_555 1_555
H15_14 C33_14 1_555 1_555
C34_14 C29_14 1_555 1_555
H16_14 C34_14 1_555 1_555
C35_14 N1_14 1_555 1_555
C36_14 C35_14 1_555 1_555
H17_14 C36_14 1_555 1_555
C37_14 C36_14 1_555 1_555
H18_14 C37_14 1_555 1_555
C38_14 C29_14 1_555 1_555
C39_14 C38_14 1_555 1_555
C40_14 C35_14 1_555 1_555
Mn5 O5_6 1_555 1_555
Mn8 O6_6 1_555 1_555
C6_14 C7_14 1_555 1_555
C10_14 C11_14 1_555 1_555
C18_14 C19_14 1_555 1_555
C23_14 C24_14 1_555 1_555
C24_14 C25_14 1_555 1_555
C25_14 C26_14 1_555 1_555
C31_14 C32_14 1_555 1_555
C33_14 C34_14 1_555 1_555
C37_14 C38_14 1_555 1_555
C39_14 C40_14 1_555 1_555
O10_14 H21_14 1_555 1_555
O10_14 H22_14 1_555 1_555
O9_14 H23_14 1_555 1_555
O9_14 H24_14 1_555 1_555
Mn5_7 O1_15 1_555 1_555
Mn8_7 O2_15 1_555 1_555
O1_15 C20_15 1_555 1_555
O2_15 C20_15 1_555 1_555
O3_8 C27_15 1_555 1_555
O4_8 C27_15 1_555 1_555
O5_7 C1_15 1_555 1_555
O6_7 C1_15 1_555 1_555
O15_11 C28_15 1_555 1_555
O16_11 C28_15 1_555 1_555
O9_15 Mn8_7 1_555 1_555
O10_15 Mn5_7 1_555 1_555
N1_15 C5_15 1_555 1_555
N2_15 C17_15 1_555 1_555
C1_15 C2_15 1_555 1_555
C2_15 C3_15 1_555 1_555
C3_15 H1_15 1_555 1_555
C4_15 C3_15 1_555 1_555
C5_15 C4_15 1_555 1_555
C6_15 C5_15 1_555 1_555
H2_15 C6_15 1_555 1_555
C7_15 C2_15 1_555 1_555
H3_15 C7_15 1_555 1_555
C8_15 C9_15 1_555 1_555
C9_15 H4_15 1_555 1_555
C10_15 C4_15 1_555 1_555
C11_15 N1_15 1_555 1_555
C12_15 C11_15 1_555 1_555
H5_15 C12_15 1_555 1_555
C13_15 C8_15 1_555 1_555
H6_15 C13_15 1_555 1_555
C14_15 C15_15 1_555 1_555
C15_15 H7_15 1_555 1_555
C16_15 C15_15 1_555 1_555
C17_15 C16_15 1_555 1_555
C18_15 C17_15 1_555 1_555
H8_15 C18_15 1_555 1_555
C19_15 C14_15 1_555 1_555
H9_15 C19_15 1_555 1_555
C20_15 C21_15 1_555 1_555
C21_15 C22_15 1_555 1_555
C22_15 H10_15 1_555 1_555
C23_15 C22_15 1_555 1_555
H11_15 C23_15 1_555 1_555
C24_15 N2_15 1_555 1_555
C25_15 C16_15 1_555 1_555
C26_15 C21_15 1_555 1_555
H12_15 C26_15 1_555 1_555
C27_15 C8_15 1_555 1_555
C28_15 C14_15 1_555 1_555
C29_15 C30_15 1_555 1_555
C30_15 H13_15 1_555 1_555
C31_15 C30_15 1_555 1_555
H14_15 C31_15 1_555 1_555
C32_15 N2_15 1_555 1_555
C33_15 C32_15 1_555 1_555
H15_15 C33_15 1_555 1_555
C34_15 C29_15 1_555 1_555
H16_15 C34_15 1_555 1_555
C35_15 N1_15 1_555 1_555
C36_15 C35_15 1_555 1_555
H17_15 C36_15 1_555 1_555
C37_15 C36_15 1_555 1_555
H18_15 C37_15 1_555 1_555
C38_15 C29_15 1_555 1_555
C39_15 C38_15 1_555 1_555
H19_15 C39_15 1_555 1_555
C40_15 C35_15 1_555 1_555
H20_15 C40_15 1_555 1_555
Mn5_5 O3_8 1_555 1_555
Mn8_5 O4_8 1_555 1_555
O11_8 Mn5_7 1_555 1_555
O12_8 Mn8_7 1_555 1_555
O13_11 Mn5_7 1_555 1_555
O14_11 Mn8_7 1_555 1_555
C6_15 C7_15 1_555 1_555
C9_15 C10_15 1_555 1_555
C10_15 C11_15 1_555 1_555
C12_15 C13_15 1_555 1_555
C18_15 C19_15 1_555 1_555
C23_15 C24_15 1_555 1_555
C24_15 C25_15 1_555 1_555
C25_15 C26_15 1_555 1_555
C31_15 C32_15 1_555 1_555
C33_15 C34_15 1_555 1_555
C37_15 C38_15 1_555 1_555
C39_15 C40_15 1_555 1_555
O10_15 H21_15 1_555 1_555
O10_15 H22_15 1_555 1_555
O9_15 H23_15 1_555 1_555
O9_15 H24_15 1_555 1_555
O1_16 C20_16 1_555 1_555
O11_8 C27_16 1_555 1_555
O12_8 C27_16 1_555 1_555
O5_8 C1_16 1_555 1_555
O6_8 C1_16 1_555 1_555
O15_10 C28_16 1_555 1_555
O16_10 C28_16 1_555 1_555
N1_16 C5_16 1_555 1_555
N2_16 C17_16 1_555 1_555
C1_16 C2_16 1_555 1_555
C2_16 C3_16 1_555 1_555
C3_16 H1_16 1_555 1_555
C4_16 C3_16 1_555 1_555
C5_16 C4_16 1_555 1_555
C6_16 C5_16 1_555 1_555
H2_16 C6_16 1_555 1_555
C7_16 C2_16 1_555 1_555
H3_16 C7_16 1_555 1_555
C8_16 C9_16 1_555 1_555
C9_16 H4_16 1_555 1_555
C10_16 C4_16 1_555 1_555
C11_16 N1_16 1_555 1_555
C12_16 C11_16 1_555 1_555
H5_16 C12_16 1_555 1_555
C13_16 C8_16 1_555 1_555
H6_16 C13_16 1_555 1_555
C14_16 C15_16 1_555 1_555
C15_16 H7_16 1_555 1_555
C16_16 C15_16 1_555 1_555
C17_16 C16_16 1_555 1_555
C18_16 C17_16 1_555 1_555
H8_16 C18_16 1_555 1_555
C19_16 C14_16 1_555 1_555
H9_16 C19_16 1_555 1_555
C20_16 C21_16 1_555 1_555
C21_16 C22_16 1_555 1_555
C22_16 H10_16 1_555 1_555
C23_16 C22_16 1_555 1_555
H11_16 C23_16 1_555 1_555
C24_16 N2_16 1_555 1_555
C25_16 C16_16 1_555 1_555
C26_16 C21_16 1_555 1_555
H12_16 C26_16 1_555 1_555
C27_16 C8_16 1_555 1_555
C28_16 C14_16 1_555 1_555
C29_16 C30_16 1_555 1_555
C30_16 H13_16 1_555 1_555
C31_16 C30_16 1_555 1_555
H14_16 C31_16 1_555 1_555
C32_16 N2_16 1_555 1_555
C33_16 C32_16 1_555 1_555
H15_16 C33_16 1_555 1_555
C34_16 C29_16 1_555 1_555
H16_16 C34_16 1_555 1_555
C35_16 N1_16 1_555 1_555
C36_16 C35_16 1_555 1_555
H17_16 C36_16 1_555 1_555
C37_16 C36_16 1_555 1_555
H18_16 C37_16 1_555 1_555
C38_16 C29_16 1_555 1_555
C39_16 C38_16 1_555 1_555
H19_16 C39_16 1_555 1_555
C40_16 C35_16 1_555 1_555
H20_16 C40_16 1_555 1_555
Mn5_3 O5_8 1_555 1_555
Mn8_3 O6_8 1_555 1_555
C6_16 C7_16 1_555 1_555
C9_16 C10_16 1_555 1_555
C10_16 C11_16 1_555 1_555
C12_16 C13_16 1_555 1_555
C18_16 C19_16 1_555 1_555
C23_16 C24_16 1_555 1_555
C24_16 C25_16 1_555 1_555
C25_16 C26_16 1_555 1_555
C31_16 C32_16 1_555 1_555
C33_16 C34_16 1_555 1_555
C37_16 C38_16 1_555 1_555
C39_16 C40_16 1_555 1_555
Mn8_5 O2_16 1_555 1_555
O9_16 Mn8_5 1_555 1_555
O10_16 Mn5_5 1_555 1_555
O13_12 Mn5_5 1_555 1_555
O14_12 Mn8_5 1_555 1_555
O10_16 H21_16 1_555 1_555
O10_16 H22_16 1_555 1_555
O9_16 H23_16 1_555 1_555
O9_16 H24_16 1_555 1_555
Mn8_10 O2_17 1_555 1_555
O9_17 Mn8_10 1_555 1_555
O10_17 Mn5_10 1_555 1_555
O11_9 Mn5_10 1_555 1_555
O12_9 Mn8_10 1_555 1_555
O10_17 H21_17 1_555 1_555
O10_17 H22_17 1_555 1_555
O9_17 H23_17 1_555 1_555
O9_17 H24_17 1_555 1_555
O1_17 C20_17 1_555 1_555
O13_9 C1_17 1_555 1_555
O14_9 C1_17 1_555 1_555
O15_4 C28_17 1_555 1_555
O16_4 C28_17 1_555 1_555
N1_17 C5_17 1_555 1_555
N2_17 C17_17 1_555 1_555
C1_17 C2_17 1_555 1_555
C2_17 C3_17 1_555 1_555
C3_17 H1_17 1_555 1_555
C4_17 C3_17 1_555 1_555
C5_17 C4_17 1_555 1_555
C6_17 C5_17 1_555 1_555
H2_17 C6_17 1_555 1_555
C7_17 C2_17 1_555 1_555
H3_17 C7_17 1_555 1_555
C10_17 C4_17 1_555 1_555
C11_17 N1_17 1_555 1_555
C14_17 C15_17 1_555 1_555
C15_17 H7_17 1_555 1_555
C16_17 C15_17 1_555 1_555
C17_17 C16_17 1_555 1_555
C18_17 C17_17 1_555 1_555
H8_17 C18_17 1_555 1_555
C19_17 C14_17 1_555 1_555
H9_17 C19_17 1_555 1_555
C20_17 C21_17 1_555 1_555
C21_17 C22_17 1_555 1_555
C22_17 H10_17 1_555 1_555
C23_17 C22_17 1_555 1_555
H11_17 C23_17 1_555 1_555
C24_17 N2_17 1_555 1_555
C25_17 C16_17 1_555 1_555
C26_17 C21_17 1_555 1_555
H12_17 C26_17 1_555 1_555
C28_17 C14_17 1_555 1_555
C29_17 C30_17 1_555 1_555
C31_17 C30_17 1_555 1_555
H14_17 C31_17 1_555 1_555
C32_17 N2_17 1_555 1_555
C33_17 C32_17 1_555 1_555
H15_17 C33_17 1_555 1_555
C34_17 C29_17 1_555 1_555
H16_17 C34_17 1_555 1_555
C35_17 N1_17 1_555 1_555
C36_17 C35_17 1_555 1_555
H17_17 C36_17 1_555 1_555
C37_17 C36_17 1_555 1_555
H18_17 C37_17 1_555 1_555
C38_17 C29_17 1_555 1_555
C39_17 C38_17 1_555 1_555
C40_17 C35_17 1_555 1_555
C6_17 C7_17 1_555 1_555
C10_17 C11_17 1_555 1_555
C18_17 C19_17 1_555 1_555
C23_17 C24_17 1_555 1_555
C24_17 C25_17 1_555 1_555
C25_17 C26_17 1_555 1_555
C31_17 C32_17 1_555 1_555
C33_17 C34_17 1_555 1_555
C37_17 C38_17 1_555 1_555
C39_17 C40_17 1_555 1_555
O3_9 C27_17 1_555 1_555
O4_9 C27_17 1_555 1_555
C8_17 C9_17 1_555 1_555
C9_17 H4_17 1_555 1_555
H5_17 C12_17 1_555 1_555
C13_17 C8_17 1_555 1_555
H6_17 C13_17 1_555 1_555
C27_17 C8_17 1_555 1_555
Mn5_12 O3_9 1_555 1_555
Mn8_12 O4_9 1_555 1_555
C12_17 C13_17 1_555 1_555
O11_9 C27_18 1_555 1_555
O12_9 C27_18 1_555 1_555
C8_18 C9_18 1_555 1_555
C9_18 H4_18 1_555 1_555
H5_18 C12_18 1_555 1_555
C13_18 C8_18 1_555 1_555
H6_18 C13_18 1_555 1_555
C27_18 C8_18 1_555 1_555
C12_18 C13_18 1_555 1_555
Mn5_12 O1_18 1_555 1_555
Mn8_12 O2_18 1_555 1_555
O1_18 C20_18 1_555 1_555
O2_18 C20_18 1_555 1_555
O13_12 C1_18 1_555 1_555
O14_12 C1_18 1_555 1_555
O15 C28_18 1_555 1_555
O16 C28_18 1_555 1_555
O9_18 Mn8_12 1_555 1_555
O10_18 Mn5_12 1_555 1_555
N1_18 C5_18 1_555 1_555
N2_18 C17_18 1_555 1_555
C1_18 C2_18 1_555 1_555
C2_18 C3_18 1_555 1_555
C3_18 H1_18 1_555 1_555
C4_18 C3_18 1_555 1_555
C5_18 C4_18 1_555 1_555
C6_18 C5_18 1_555 1_555
H2_18 C6_18 1_555 1_555
C7_18 C2_18 1_555 1_555
H3_18 C7_18 1_555 1_555
C10_18 C4_18 1_555 1_555
C11_18 N1_18 1_555 1_555
C14_18 C15_18 1_555 1_555
C15_18 H7_18 1_555 1_555
C16_18 C15_18 1_555 1_555
C17_18 C16_18 1_555 1_555
C18_18 C17_18 1_555 1_555
H8_18 C18_18 1_555 1_555
C19_18 C14_18 1_555 1_555
H9_18 C19_18 1_555 1_555
C20_18 C21_18 1_555 1_555
C21_18 C22_18 1_555 1_555
C22_18 H10_18 1_555 1_555
C23_18 C22_18 1_555 1_555
H11_18 C23_18 1_555 1_555
C24_18 N2_18 1_555 1_555
C25_18 C16_18 1_555 1_555
C26_18 C21_18 1_555 1_555
H12_18 C26_18 1_555 1_555
C28_18 C14_18 1_555 1_555
C29_18 C30_18 1_555 1_555
C31_18 C30_18 1_555 1_555
H14_18 C31_18 1_555 1_555
C32_18 N2_18 1_555 1_555
C33_18 C32_18 1_555 1_555
H15_18 C33_18 1_555 1_555
C34_18 C29_18 1_555 1_555
H16_18 C34_18 1_555 1_555
C35_18 N1_18 1_555 1_555
C36_18 C35_18 1_555 1_555
H17_18 C36_18 1_555 1_555
C37_18 C36_18 1_555 1_555
H18_18 C37_18 1_555 1_555
C38_18 C29_18 1_555 1_555
C39_18 C38_18 1_555 1_555
C40_18 C35_18 1_555 1_555
C6_18 C7_18 1_555 1_555
C10_18 C11_18 1_555 1_555
C18_18 C19_18 1_555 1_555
C23_18 C24_18 1_555 1_555
C24_18 C25_18 1_555 1_555
C25_18 C26_18 1_555 1_555
C31_18 C32_18 1_555 1_555
C33_18 C34_18 1_555 1_555
C37_18 C38_18 1_555 1_555
C39_18 C40_18 1_555 1_555
O10_18 H21_18 1_555 1_555
O10_18 H22_18 1_555 1_555
O9_18 H23_18 1_555 1_555
O9_18 H24_18 1_555 1_555
Mn5_11 O1_19 1_555 1_555
Mn8_11 O2_19 1_555 1_555
O1_19 C20_19 1_555 1_555
O2_19 C20_19 1_555 1_555
O3_10 C27_19 1_555 1_555
O4_10 C27_19 1_555 1_555
O13_10 C1_19 1_555 1_555
O14_10 C1_19 1_555 1_555
O15_3 C28_19 1_555 1_555
O16_3 C28_19 1_555 1_555
O9_19 Mn8_11 1_555 1_555
O10_19 Mn5_11 1_555 1_555
N1_19 C5_19 1_555 1_555
N2_19 C17_19 1_555 1_555
C1_19 C2_19 1_555 1_555
C2_19 C3_19 1_555 1_555
C3_19 H1_19 1_555 1_555
C4_19 C3_19 1_555 1_555
C5_19 C4_19 1_555 1_555
C6_19 C5_19 1_555 1_555
H2_19 C6_19 1_555 1_555
C7_19 C2_19 1_555 1_555
H3_19 C7_19 1_555 1_555
C8_19 C9_19 1_555 1_555
C9_19 H4_19 1_555 1_555
C10_19 C4_19 1_555 1_555
C11_19 N1_19 1_555 1_555
C12_19 C11_19 1_555 1_555
H5_19 C12_19 1_555 1_555
C13_19 C8_19 1_555 1_555
H6_19 C13_19 1_555 1_555
C14_19 C15_19 1_555 1_555
C15_19 H7_19 1_555 1_555
C16_19 C15_19 1_555 1_555
C17_19 C16_19 1_555 1_555
C18_19 C17_19 1_555 1_555
H8_19 C18_19 1_555 1_555
C19_19 C14_19 1_555 1_555
H9_19 C19_19 1_555 1_555
C20_19 C21_19 1_555 1_555
C21_19 C22_19 1_555 1_555
C22_19 H10_19 1_555 1_555
C23_19 C22_19 1_555 1_555
H11_19 C23_19 1_555 1_555
C24_19 N2_19 1_555 1_555
C25_19 C16_19 1_555 1_555
C26_19 C21_19 1_555 1_555
H12_19 C26_19 1_555 1_555
C27_19 C8_19 1_555 1_555
C28_19 C14_19 1_555 1_555
C29_19 C30_19 1_555 1_555
C30_19 H13_19 1_555 1_555
C31_19 C30_19 1_555 1_555
H14_19 C31_19 1_555 1_555
C32_19 N2_19 1_555 1_555
C33_19 C32_19 1_555 1_555
H15_19 C33_19 1_555 1_555
C34_19 C29_19 1_555 1_555
H16_19 C34_19 1_555 1_555
C35_19 N1_19 1_555 1_555
C36_19 C35_19 1_555 1_555
H17_19 C36_19 1_555 1_555
C37_19 C36_19 1_555 1_555
H18_19 C37_19 1_555 1_555
C38_19 C29_19 1_555 1_555
C39_19 C38_19 1_555 1_555
H19_19 C39_19 1_555 1_555
C40_19 C35_19 1_555 1_555
H20_19 C40_19 1_555 1_555
Mn5_9 O3_10 1_555 1_555
Mn8_9 O4_10 1_555 1_555
O11_10 Mn5_11 1_555 1_555
O12_10 Mn8_11 1_555 1_555
O13_15 Mn5_11 1_555 1_555
O14_15 Mn8_11 1_555 1_555
C6_19 C7_19 1_555 1_555
C9_19 C10_19 1_555 1_555
C10_19 C11_19 1_555 1_555
C12_19 C13_19 1_555 1_555
C18_19 C19_19 1_555 1_555
C23_19 C24_19 1_555 1_555
C24_19 C25_19 1_555 1_555
C25_19 C26_19 1_555 1_555
C31_19 C32_19 1_555 1_555
C33_19 C34_19 1_555 1_555
C37_19 C38_19 1_555 1_555
C39_19 C40_19 1_555 1_555
O10_19 H21_19 1_555 1_555
O10_19 H22_19 1_555 1_555
O9_19 H23_19 1_555 1_555
O9_19 H24_19 1_555 1_555
O1_20 C20_20 1_555 1_555
O11_10 C27_20 1_555 1_555
O12_10 C27_20 1_555 1_555
O13_11 C1_20 1_555 1_555
O14_11 C1_20 1_555 1_555
O15_2 C28_20 1_555 1_555
O16_2 C28_20 1_555 1_555
N1_20 C5_20 1_555 1_555
N2_20 C17_20 1_555 1_555
C1_20 C2_20 1_555 1_555
C2_20 C3_20 1_555 1_555
C3_20 H1_20 1_555 1_555
C4_20 C3_20 1_555 1_555
C5_20 C4_20 1_555 1_555
C6_20 C5_20 1_555 1_555
H2_20 C6_20 1_555 1_555
C7_20 C2_20 1_555 1_555
H3_20 C7_20 1_555 1_555
C8_20 C9_20 1_555 1_555
C9_20 H4_20 1_555 1_555
C10_20 C4_20 1_555 1_555
C11_20 N1_20 1_555 1_555
C12_20 C11_20 1_555 1_555
H5_20 C12_20 1_555 1_555
C13_20 C8_20 1_555 1_555
H6_20 C13_20 1_555 1_555
C14_20 C15_20 1_555 1_555
C15_20 H7_20 1_555 1_555
C16_20 C15_20 1_555 1_555
C17_20 C16_20 1_555 1_555
C18_20 C17_20 1_555 1_555
H8_20 C18_20 1_555 1_555
C19_20 C14_20 1_555 1_555
H9_20 C19_20 1_555 1_555
C20_20 C21_20 1_555 1_555
C21_20 C22_20 1_555 1_555
C22_20 H10_20 1_555 1_555
C23_20 C22_20 1_555 1_555
H11_20 C23_20 1_555 1_555
C24_20 N2_20 1_555 1_555
C25_20 C16_20 1_555 1_555
C26_20 C21_20 1_555 1_555
H12_20 C26_20 1_555 1_555
C27_20 C8_20 1_555 1_555
C28_20 C14_20 1_555 1_555
C29_20 C30_20 1_555 1_555
C30_20 H13_20 1_555 1_555
C31_20 C30_20 1_555 1_555
H14_20 C31_20 1_555 1_555
C32_20 N2_20 1_555 1_555
C33_20 C32_20 1_555 1_555
H15_20 C33_20 1_555 1_555
C34_20 C29_20 1_555 1_555
H16_20 C34_20 1_555 1_555
C35_20 N1_20 1_555 1_555
C36_20 C35_20 1_555 1_555
H17_20 C36_20 1_555 1_555
C37_20 C36_20 1_555 1_555
H18_20 C37_20 1_555 1_555
C38_20 C29_20 1_555 1_555
C39_20 C38_20 1_555 1_555
H19_20 C39_20 1_555 1_555
C40_20 C35_20 1_555 1_555
H20_20 C40_20 1_555 1_555
C6_20 C7_20 1_555 1_555
C9_20 C10_20 1_555 1_555
C10_20 C11_20 1_555 1_555
C12_20 C13_20 1_555 1_555
C18_20 C19_20 1_555 1_555
C23_20 C24_20 1_555 1_555
C24_20 C25_20 1_555 1_555
C25_20 C26_20 1_555 1_555
C31_20 C32_20 1_555 1_555
C33_20 C34_20 1_555 1_555
C37_20 C38_20 1_555 1_555
C39_20 C40_20 1_555 1_555
Mn8_9 O2_20 1_555 1_555
O9_20 Mn8_9 1_555 1_555
O10_20 Mn5_9 1_555 1_555
O13_16 Mn5_9 1_555 1_555
O14_16 Mn8_9 1_555 1_555
O10_20 H21_20 1_555 1_555
O10_20 H22_20 1_555 1_555
O9_20 H23_20 1_555 1_555
O9_20 H24_20 1_555 1_555
Mn8_2 O2_21 1_555 1_555
O9_21 Mn8_2 1_555 1_555
O10_21 Mn5_2 1_555 1_555
O11_11 Mn5_2 1_555 1_555
O12_11 Mn8_2 1_555 1_555
O10_21 H21_21 1_555 1_555
O10_21 H22_21 1_555 1_555
O9_21 H23_21 1_555 1_555
O9_21 H24_21 1_555 1_555
O1_21 C20_21 1_555 1_555
O13_13 C1_21 1_555 1_555
O14_13 C1_21 1_555 1_555
O15_8 C28_21 1_555 1_555
O16_8 C28_21 1_555 1_555
N1_21 C5_21 1_555 1_555
N2_21 C17_21 1_555 1_555
C1_21 C2_21 1_555 1_555
C2_21 C3_21 1_555 1_555
C3_21 H1_21 1_555 1_555
C4_21 C3_21 1_555 1_555
C5_21 C4_21 1_555 1_555
C6_21 C5_21 1_555 1_555
H2_21 C6_21 1_555 1_555
C7_21 C2_21 1_555 1_555
H3_21 C7_21 1_555 1_555
C10_21 C4_21 1_555 1_555
C11_21 N1_21 1_555 1_555
C14_21 C15_21 1_555 1_555
C15_21 H7_21 1_555 1_555
C16_21 C15_21 1_555 1_555
C17_21 C16_21 1_555 1_555
C18_21 C17_21 1_555 1_555
H8_21 C18_21 1_555 1_555
C19_21 C14_21 1_555 1_555
H9_21 C19_21 1_555 1_555
C20_21 C21_21 1_555 1_555
C21_21 C22_21 1_555 1_555
C22_21 H10_21 1_555 1_555
C23_21 C22_21 1_555 1_555
H11_21 C23_21 1_555 1_555
C24_21 N2_21 1_555 1_555
C25_21 C16_21 1_555 1_555
C26_21 C21_21 1_555 1_555
H12_21 C26_21 1_555 1_555
C28_21 C14_21 1_555 1_555
C29_21 C30_21 1_555 1_555
C31_21 C30_21 1_555 1_555
H14_21 C31_21 1_555 1_555
C32_21 N2_21 1_555 1_555
C33_21 C32_21 1_555 1_555
H15_21 C33_21 1_555 1_555
C34_21 C29_21 1_555 1_555
H16_21 C34_21 1_555 1_555
C35_21 N1_21 1_555 1_555
C36_21 C35_21 1_555 1_555
H17_21 C36_21 1_555 1_555
C37_21 C36_21 1_555 1_555
H18_21 C37_21 1_555 1_555
C38_21 C29_21 1_555 1_555
C39_21 C38_21 1_555 1_555
C40_21 C35_21 1_555 1_555
C6_21 C7_21 1_555 1_555
C10_21 C11_21 1_555 1_555
C18_21 C19_21 1_555 1_555
C23_21 C24_21 1_555 1_555
C24_21 C25_21 1_555 1_555
C25_21 C26_21 1_555 1_555
C31_21 C32_21 1_555 1_555
C33_21 C34_21 1_555 1_555
C37_21 C38_21 1_555 1_555
C39_21 C40_21 1_555 1_555
O3_11 C27_21 1_555 1_555
O4_11 C27_21 1_555 1_555
C8_21 C9_21 1_555 1_555
C9_21 H4_21 1_555 1_555
H5_21 C12_21 1_555 1_555
C13_21 C8_21 1_555 1_555
H6_21 C13_21 1_555 1_555
C27_21 C8_21 1_555 1_555
Mn5_4 O3_11 1_555 1_555
Mn8_4 O4_11 1_555 1_555
C12_21 C13_21 1_555 1_555
O11_11 C27_22 1_555 1_555
O12_11 C27_22 1_555 1_555
C8_22 C9_22 1_555 1_555
C9_22 H4_22 1_555 1_555
H5_22 C12_22 1_555 1_555
C13_22 C8_22 1_555 1_555
H6_22 C13_22 1_555 1_555
C27_22 C8_22 1_555 1_555
C12_22 C13_22 1_555 1_555
Mn5_4 O1_22 1_555 1_555
Mn8_4 O2_22 1_555 1_555
O1_22 C20_22 1_555 1_555
O2_22 C20_22 1_555 1_555
O13_16 C1_22 1_555 1_555
O14_16 C1_22 1_555 1_555
O15_5 C28_22 1_555 1_555
O16_5 C28_22 1_555 1_555
O9_22 Mn8_4 1_555 1_555
O10_22 Mn5_4 1_555 1_555
N1_22 C5_22 1_555 1_555
N2_22 C17_22 1_555 1_555
C1_22 C2_22 1_555 1_555
C2_22 C3_22 1_555 1_555
C3_22 H1_22 1_555 1_555
C4_22 C3_22 1_555 1_555
C5_22 C4_22 1_555 1_555
C6_22 C5_22 1_555 1_555
H2_22 C6_22 1_555 1_555
C7_22 C2_22 1_555 1_555
H3_22 C7_22 1_555 1_555
C10_22 C4_22 1_555 1_555
C11_22 N1_22 1_555 1_555
C14_22 C15_22 1_555 1_555
C15_22 H7_22 1_555 1_555
C16_22 C15_22 1_555 1_555
C17_22 C16_22 1_555 1_555
C18_22 C17_22 1_555 1_555
H8_22 C18_22 1_555 1_555
C19_22 C14_22 1_555 1_555
H9_22 C19_22 1_555 1_555
C20_22 C21_22 1_555 1_555
C21_22 C22_22 1_555 1_555
C22_22 H10_22 1_555 1_555
C23_22 C22_22 1_555 1_555
H11_22 C23_22 1_555 1_555
C24_22 N2_22 1_555 1_555
C25_22 C16_22 1_555 1_555
C26_22 C21_22 1_555 1_555
H12_22 C26_22 1_555 1_555
C28_22 C14_22 1_555 1_555
C29_22 C30_22 1_555 1_555
C31_22 C30_22 1_555 1_555
H14_22 C31_22 1_555 1_555
C32_22 N2_22 1_555 1_555
C33_22 C32_22 1_555 1_555
H15_22 C33_22 1_555 1_555
C34_22 C29_22 1_555 1_555
H16_22 C34_22 1_555 1_555
C35_22 N1_22 1_555 1_555
C36_22 C35_22 1_555 1_555
H17_22 C36_22 1_555 1_555
C37_22 C36_22 1_555 1_555
H18_22 C37_22 1_555 1_555
C38_22 C29_22 1_555 1_555
C39_22 C38_22 1_555 1_555
C40_22 C35_22 1_555 1_555
C6_22 C7_22 1_555 1_555
C10_22 C11_22 1_555 1_555
C18_22 C19_22 1_555 1_555
C23_22 C24_22 1_555 1_555
C24_22 C25_22 1_555 1_555
C25_22 C26_22 1_555 1_555
C31_22 C32_22 1_555 1_555
C33_22 C34_22 1_555 1_555
C37_22 C38_22 1_555 1_555
C39_22 C40_22 1_555 1_555
O10_22 H21_22 1_555 1_555
O10_22 H22_22 1_555 1_555
O9_22 H23_22 1_555 1_555
O9_22 H24_22 1_555 1_555
Mn5_3 O1_23 1_555 1_555
Mn8_3 O2_23 1_555 1_555
O1_23 C20_23 1_555 1_555
O2_23 C20_23 1_555 1_555
O3_12 C27_23 1_555 1_555
O4_12 C27_23 1_555 1_555
O13_14 C1_23 1_555 1_555
O14_14 C1_23 1_555 1_555
O15_7 C28_23 1_555 1_555
O16_7 C28_23 1_555 1_555
O9_23 Mn8_3 1_555 1_555
O10_23 Mn5_3 1_555 1_555
N1_23 C5_23 1_555 1_555
N2_23 C17_23 1_555 1_555
C1_23 C2_23 1_555 1_555
C2_23 C3_23 1_555 1_555
C3_23 H1_23 1_555 1_555
C4_23 C3_23 1_555 1_555
C5_23 C4_23 1_555 1_555
C6_23 C5_23 1_555 1_555
H2_23 C6_23 1_555 1_555
C7_23 C2_23 1_555 1_555
H3_23 C7_23 1_555 1_555
C8_23 C9_23 1_555 1_555
C9_23 H4_23 1_555 1_555
C10_23 C4_23 1_555 1_555
C11_23 N1_23 1_555 1_555
C12_23 C11_23 1_555 1_555
H5_23 C12_23 1_555 1_555
C13_23 C8_23 1_555 1_555
H6_23 C13_23 1_555 1_555
C14_23 C15_23 1_555 1_555
C15_23 H7_23 1_555 1_555
C16_23 C15_23 1_555 1_555
C17_23 C16_23 1_555 1_555
C18_23 C17_23 1_555 1_555
H8_23 C18_23 1_555 1_555
C19_23 C14_23 1_555 1_555
H9_23 C19_23 1_555 1_555
C20_23 C21_23 1_555 1_555
C21_23 C22_23 1_555 1_555
C22_23 H10_23 1_555 1_555
C23_23 C22_23 1_555 1_555
H11_23 C23_23 1_555 1_555
C24_23 N2_23 1_555 1_555
C25_23 C16_23 1_555 1_555
C26_23 C21_23 1_555 1_555
H12_23 C26_23 1_555 1_555
C27_23 C8_23 1_555 1_555
C28_23 C14_23 1_555 1_555
C29_23 C30_23 1_555 1_555
C30_23 H13_23 1_555 1_555
C31_23 C30_23 1_555 1_555
H14_23 C31_23 1_555 1_555
C32_23 N2_23 1_555 1_555
C33_23 C32_23 1_555 1_555
H15_23 C33_23 1_555 1_555
C34_23 C29_23 1_555 1_555
H16_23 C34_23 1_555 1_555
C35_23 N1_23 1_555 1_555
C36_23 C35_23 1_555 1_555
H17_23 C36_23 1_555 1_555
C37_23 C36_23 1_555 1_555
H18_23 C37_23 1_555 1_555
C38_23 C29_23 1_555 1_555
C39_23 C38_23 1_555 1_555
H19_23 C39_23 1_555 1_555
C40_23 C35_23 1_555 1_555
H20_23 C40_23 1_555 1_555
Mn5 O3_12 1_555 1_555
Mn8 O4_12 1_555 1_555
O11_12 Mn5_3 1_555 1_555
O12_12 Mn8_3 1_555 1_555
C6_23 C7_23 1_555 1_555
C9_23 C10_23 1_555 1_555
C10_23 C11_23 1_555 1_555
C12_23 C13_23 1_555 1_555
C18_23 C19_23 1_555 1_555
C23_23 C24_23 1_555 1_555
C24_23 C25_23 1_555 1_555
C25_23 C26_23 1_555 1_555
C31_23 C32_23 1_555 1_555
C33_23 C34_23 1_555 1_555
C37_23 C38_23 1_555 1_555
C39_23 C40_23 1_555 1_555
O10_23 H21_23 1_555 1_555
O10_23 H22_23 1_555 1_555
O9_23 H23_23 1_555 1_555
O9_23 H24_23 1_555 1_555
O1_24 C20_24 1_555 1_555
O11_12 C27_24 1_555 1_555
O12_12 C27_24 1_555 1_555
O13_15 C1_24 1_555 1_555
O14_15 C1_24 1_555 1_555
O15_6 C28_24 1_555 1_555
O16_6 C28_24 1_555 1_555
N1_24 C5_24 1_555 1_555
N2_24 C17_24 1_555 1_555
C1_24 C2_24 1_555 1_555
C2_24 C3_24 1_555 1_555
C3_24 H1_24 1_555 1_555
C4_24 C3_24 1_555 1_555
C5_24 C4_24 1_555 1_555
C6_24 C5_24 1_555 1_555
H2_24 C6_24 1_555 1_555
C7_24 C2_24 1_555 1_555
H3_24 C7_24 1_555 1_555
C8_24 C9_24 1_555 1_555
C9_24 H4_24 1_555 1_555
C10_24 C4_24 1_555 1_555
C11_24 N1_24 1_555 1_555
C12_24 C11_24 1_555 1_555
H5_24 C12_24 1_555 1_555
C13_24 C8_24 1_555 1_555
H6_24 C13_24 1_555 1_555
C14_24 C15_24 1_555 1_555
C15_24 H7_24 1_555 1_555
C16_24 C15_24 1_555 1_555
C17_24 C16_24 1_555 1_555
C18_24 C17_24 1_555 1_555
H8_24 C18_24 1_555 1_555
C19_24 C14_24 1_555 1_555
H9_24 C19_24 1_555 1_555
C20_24 C21_24 1_555 1_555
C21_24 C22_24 1_555 1_555
C22_24 H10_24 1_555 1_555
C23_24 C22_24 1_555 1_555
H11_24 C23_24 1_555 1_555
C24_24 N2_24 1_555 1_555
C25_24 C16_24 1_555 1_555
C26_24 C21_24 1_555 1_555
H12_24 C26_24 1_555 1_555
C27_24 C8_24 1_555 1_555
C28_24 C14_24 1_555 1_555
C29_24 C30_24 1_555 1_555
C30_24 H13_24 1_555 1_555
C31_24 C30_24 1_555 1_555
H14_24 C31_24 1_555 1_555
C32_24 N2_24 1_555 1_555
C33_24 C32_24 1_555 1_555
H15_24 C33_24 1_555 1_555
C34_24 C29_24 1_555 1_555
H16_24 C34_24 1_555 1_555
C35_24 N1_24 1_555 1_555
C36_24 C35_24 1_555 1_555
H17_24 C36_24 1_555 1_555
C37_24 C36_24 1_555 1_555
H18_24 C37_24 1_555 1_555
C38_24 C29_24 1_555 1_555
C39_24 C38_24 1_555 1_555
H19_24 C39_24 1_555 1_555
C40_24 C35_24 1_555 1_555
H20_24 C40_24 1_555 1_555
C6_24 C7_24 1_555 1_555
C9_24 C10_24 1_555 1_555
C10_24 C11_24 1_555 1_555
C12_24 C13_24 1_555 1_555
C18_24 C19_24 1_555 1_555
C23_24 C24_24 1_555 1_555
C24_24 C25_24 1_555 1_555
C25_24 C26_24 1_555 1_555
C31_24 C32_24 1_555 1_555
C33_24 C34_24 1_555 1_555
C37_24 C38_24 1_555 1_555
C39_24 C40_24 1_555 1_555
Mn8 O2_24 1_555 1_555
O9_24 Mn8 1_555 1_555
O10_24 Mn5 1_555 1_555
O10_24 H21_24 1_555 1_555
O10_24 H22_24 1_555 1_555
O9_24 H23_24 1_555 1_555
O9_24 H24_24 1_555 1_555

#END
