
###############################################################################
#
# This file contains modified crystal structure data generated from the
# MOF subset of the Cambridge Structural Database (CSD) v543 
# hosted by the Cambridge Crystallographic Data Centre (CCDC).
#
# This work is licensed under the Creative Commons
# Attribution-NonCommercial-ShareAlike 4.0 International License.
# To view a copy of this license, visit
# http://creativecommons.org/licenses/by-nc-sa/4.0/
# or send a letter to
# Creative Commons, PO Box 1866, Mountain View, CA 94042, USA.
#
# CIF created using the CSD Python API on 29 September 2022
# The structure has been converted into the P1 space group
# The structure has a 3D framework
# The original CSD entry PAHYEG is in the cubic crystal system
# The framework has been calculated to contain at least 10.0% void space
# The void calculation uses a probe of radius 1.32A, grid spacing 0.4
# H atom positions have been added when not included in the experimental data
#
###############################################################################

data_PAHYEG
_chemical_formula_moiety         '(C960 H576 Cd48 N48 O240)n'
_symmetry_cell_setting           triclinic
_symmetry_space_group_name_H-M   'P 1'
_symmetry_Int_Tables_number      1
_space_group_name_Hall           'P 1'
loop_
_symmetry_equiv_pos_site_id
_symmetry_equiv_pos_as_xyz
1 x,y,z
_cell_length_a                   46.130(5)
_cell_length_b                   46.130(5)
_cell_length_c                   46.130(5)
_cell_angle_alpha                90
_cell_angle_beta                 90
_cell_angle_gamma                90
_cell_volume                     98163.6
loop_
_atom_site_label
_atom_site_type_symbol
_atom_site_fract_x
_atom_site_fract_y
_atom_site_fract_z
O3 O 0.1477(4) 0.0169(3) 0.4233(3)
O4 O 0.1931(4) 0.0279(3) 0.4116(3)
C8 C 0.1622(4) 0.0119(3) 0.3735(2)
C9 C 0.1349(3) 0.0039(3) 0.3636(3)
H4 H 0.119059 0.002706 0.376729
C12 C 0.1811(3) 0.0072(3) 0.3251(3)
H5 H 0.196934 0.008352 0.311951
C13 C 0.1853(3) 0.0136(3) 0.3543(3)
H6 H 0.203933 0.019116 0.361025
C27 C 0.1675(5) 0.0208(4) 0.4050(4)
H13 H 0.216472 0.000945 0.175873
C39 C 0.2037(4) 0.0009(4) 0.2344(5)
H19 H 0.216531 0.015429 0.227396
C40 C 0.1840(4) 0.0074(4) 0.2562(5)
H20 H 0.183390 0.026331 0.264220
Cd3 Cd 0.14392(2) 0.02352(2) 0.46942(2)
Cd6 Cd 0.21164(2) 0.03603(3) 0.45563(3)
O13 O 0.3453(4) 0.0162(4) 0.9753(4)
O14 O 0.2926(6) 0.0125(3) 0.9621(3)
O1 O 0.3339(4) 0.9657(4) 0.0132(3)
O5 O 0.0162(4) 0.9753(4) 0.3453(4)
O6 O 0.0125(3) 0.9621(3) 0.2926(6)
O7 O 0.4295(2) 0.9603(3) 0.1403(5)
O8 O 0.4242(3) 0.9588(3) 0.1876(4)
N1 N 0.1432(5) 0.9888(4) 0.2890(3)
N2 N 0.2945(3) 0.9544(4) 0.1425(4)
C1 C 0.0250(3) 0.9731(6) 0.3179(6)
C2 C 0.05772(19) 0.9737(3) 0.3058(3)
C3 C 0.0770(3) 0.9859(2) 0.3255(3)
H1 H 0.070336 0.991779 0.344088
C4 C 0.1060(2) 0.9894(3) 0.3181(3)
C5 C 0.1157(2) 0.9807(3) 0.2909(3)
C6 C 0.0964(3) 0.9686(3) 0.2712(3)
H2 H 0.103061 0.962644 0.252585
C7 C 0.0674(3) 0.9650(3) 0.2786(3)
H3 H 0.054275 0.956709 0.265147
C10 C 0.1307(2) 0.9975(3) 0.3344(3)
C11 C 0.1538(3) 0.9991(3) 0.3152(2)
C14 C 0.3822(2) 0.9560(3) 0.1584(3)
C15 C 0.3718(2) 0.9573(3) 0.1301(3)
H7 H 0.384965 0.958194 0.114308
C16 C 0.3421(3) 0.9571(3) 0.1250(2)
C17 C 0.32280(19) 0.9558(3) 0.1481(2)
C18 C 0.3332(3) 0.9545(3) 0.1763(2)
H8 H 0.320020 0.953580 0.192112
C19 C 0.3629(3) 0.9546(3) 0.1815(2)
H9 H 0.370000 0.953803 0.200774
C20 C 0.3059(4) 0.9630(5) 0.0172(4)
C21 C 0.3044(3) 0.9619(3) 0.0499(2)
C22 C 0.2763(2) 0.9608(4) 0.0607(3)
H10 H 0.260214 0.962076 0.047852
C23 C 0.2716(2) 0.9579(3) 0.0903(3)
H11 H 0.252444 0.957186 0.097741
C24 C 0.2951(3) 0.9561(3) 0.1091(2)
C25 C 0.3232(2) 0.9572(3) 0.0983(3)
C26 C 0.3278(2) 0.9601(3) 0.0687(3)
H12 H 0.347038 0.960878 0.061258
C28 C 0.4147(4) 0.9578(4) 0.1630(4)
C29 C 0.2237(3) 0.9622(3) 0.1958(3)
C30 C 0.2289(3) 0.9845(3) 0.1763(3)
C31 C 0.2522(3) 0.9828(3) 0.1573(3)
H14 H 0.255755 0.998062 0.143910
C32 C 0.2704(3) 0.9587(4) 0.1578(3)
C33 C 0.2652(3) 0.9364(3) 0.1774(3)
H15 H 0.277568 0.919974 0.177758
C34 C 0.2418(3) 0.9381(3) 0.1964(3)
H16 H 0.238285 0.922855 0.209722
C35 C 0.1653(4) 0.9861(5) 0.2664(4)
C36 C 0.1662(4) 0.9583(5) 0.2547(5)
H17 H 0.153390 0.943790 0.261655
C37 C 0.1859(5) 0.9519(4) 0.2328(5)
H18 H 0.186531 0.932889 0.224832
C38 C 0.2046(4) 0.9731(5) 0.2227(4)
Cd5 Cd 0.47648(2) 0.96942(2) 0.14392(2)
Cd8 Cd 0.46397(3) 0.95563(3) 0.21164(2)
Cd1 Cd 0.35608(2) 0.97648(2) 0.96942(2)
Cd2 Cd 0.28836(2) 0.96397(3) 0.95563(3)
O2 O 0.2865(3) 0.9618(4) 0.9961(6)
O9 O 0.2462(5) 0.9478(9) 0.9336(11)
O10 O 0.4056(5) 0.9821(7) 0.9748(7)
O11 O 0.3523(4) 0.9831(3) 0.9233(3)
O12 O 0.3069(4) 0.9721(3) 0.9116(3)
O15 O 0.3597(5) 0.9295(2) 0.9603(3)
O16 O 0.3124(4) 0.9242(3) 0.9588(3)
H21 H 0.229608 0.959854 0.940141
H22 H 0.248219 0.949363 0.912226
H23 H 0.414104 0.963858 0.982433
H24 H 0.414417 0.986688 0.955706
Cd4 Cd 0.97648(2) 0.96942(2) 0.35608(2)
Cd7 Cd 0.96397(3) 0.95563(3) 0.28836(2)
O1_2 O 0.1661(4) 0.0343(4) 0.5132(3)
O2_2 O 0.2135(3) 0.0382(4) 0.4961(6)
O5_2 O 0.4838(4) 0.0247(4) 0.8453(4)
O6_2 O 0.4875(3) 0.0379(3) 0.7926(6)
O7_2 O 0.0705(2) 0.0397(3) 0.6403(5)
O8_2 O 0.0758(3) 0.0412(3) 0.6876(4)
O9_2 O 0.2538(5) 0.0522(9) 0.4336(11)
O10_2 O 0.0944(5) 0.0179(7) 0.4748(7)
N1_2 N 0.3568(5) 0.0112(4) 0.7890(3)
N2_2 N 0.2055(3) 0.0456(4) 0.6425(4)
C1_2 C 0.4750(3) 0.0269(6) 0.8179(6)
C2_2 C 0.44228(19) 0.0263(3) 0.8058(3)
C3_2 C 0.4230(3) 0.0141(2) 0.8255(3)
H1_2 H 0.429664 0.008221 0.844088
C4_2 C 0.3940(2) 0.0106(3) 0.8181(3)
C5_2 C 0.3843(2) 0.0193(3) 0.7909(3)
C6_2 C 0.4036(3) 0.0314(3) 0.7712(3)
H2_2 H 0.396939 0.037356 0.752585
C7_2 C 0.4326(3) 0.0350(3) 0.7786(3)
H3_2 H 0.445725 0.043291 0.765147
C10_2 C 0.3693(2) 0.0025(3) 0.8344(3)
C11_2 C 0.3462(3) 0.0009(3) 0.8152(2)
C14_2 C 0.1178(2) 0.0440(3) 0.6584(3)
C15_2 C 0.1282(2) 0.0427(3) 0.6301(3)
H7_2 H 0.115035 0.041806 0.614308
C16_2 C 0.1579(3) 0.0429(3) 0.6250(2)
C17_2 C 0.17720(19) 0.0442(3) 0.6481(2)
C18_2 C 0.1668(3) 0.0455(3) 0.6763(2)
H8_2 H 0.179980 0.046420 0.692112
C19_2 C 0.1371(3) 0.0454(3) 0.6815(2)
H9_2 H 0.130000 0.046197 0.700774
C20_2 C 0.1941(4) 0.0370(5) 0.5172(4)
C21_2 C 0.1956(3) 0.0381(3) 0.5499(2)
C22_2 C 0.2237(2) 0.0392(4) 0.5607(3)
H10_2 H 0.239786 0.037924 0.547852
C23_2 C 0.2284(2) 0.0421(3) 0.5903(3)
H11_2 H 0.247556 0.042814 0.597741
C24_2 C 0.2049(3) 0.0439(3) 0.6091(2)
C25_2 C 0.1768(2) 0.0428(3) 0.5983(3)
C26_2 C 0.1722(2) 0.0399(3) 0.5687(3)
H12_2 H 0.152962 0.039122 0.561258
C28_2 C 0.0853(4) 0.0422(4) 0.6630(4)
C29_2 C 0.2763(3) 0.0378(3) 0.6958(3)
C30_2 C 0.2711(3) 0.0155(3) 0.6763(3)
C31_2 C 0.2478(3) 0.0172(3) 0.6573(3)
H14_2 H 0.244245 0.001938 0.643910
C32_2 C 0.2296(3) 0.0413(4) 0.6578(3)
C33_2 C 0.2348(3) 0.0636(3) 0.6774(3)
H15_2 H 0.222432 0.080026 0.677758
C34_2 C 0.2582(3) 0.0619(3) 0.6964(3)
H16_2 H 0.261715 0.077145 0.709722
C35_2 C 0.3347(4) 0.0139(5) 0.7664(4)
C36_2 C 0.3338(4) 0.0417(5) 0.7547(5)
H17_2 H 0.346610 0.056210 0.761655
C37_2 C 0.3141(5) 0.0481(4) 0.7328(5)
H18_2 H 0.313469 0.067111 0.724832
C38_2 C 0.2954(4) 0.0269(5) 0.7227(4)
Cd4_2 Cd 0.52352(2) 0.03058(2) 0.85608(2)
Cd5_2 Cd 0.02352(2) 0.03058(2) 0.64392(2)
Cd7_2 Cd 0.53603(3) 0.04437(3) 0.78836(2)
Cd8_2 Cd 0.03603(3) 0.04437(3) 0.71164(2)
O15_2 O 0.1403(5) 0.0705(2) 0.4603(3)
O16_2 O 0.1876(4) 0.0758(3) 0.4588(3)
H21_2 H 0.270392 0.0401458 0.440141
H22_2 H 0.251781 0.0506375 0.412226
H23_2 H 0.0858956 0.0361423 0.482433
H24_2 H 0.0855828 0.0133123 0.455706
C8_2 C 0.3378(4) 0.9881(3) 0.8735(2)
C9_2 C 0.3651(3) 0.9961(3) 0.8636(3)
H4_2 H 0.380941 0.997294 0.876729
C12_2 C 0.3189(3) 0.9928(3) 0.8251(3)
H5_2 H 0.303066 0.991648 0.811951
C13_2 C 0.3147(3) 0.9864(3) 0.8543(3)
H6_2 H 0.296067 0.980884 0.861025
C27_2 C 0.3325(5) 0.9792(4) 0.9050(4)
H13_2 H 0.283528 0.999055 0.675873
C39_2 C 0.2963(4) 0.9991(4) 0.7344(5)
H19_2 H 0.283469 0.984571 0.727396
C40_2 C 0.3160(4) 0.9926(4) 0.7562(5)
H20_2 H 0.316610 0.973669 0.764220
O13_2 O 0.1547(4) 0.9838(4) 0.4753(4)
O14_2 O 0.2074(6) 0.9875(3) 0.4621(3)
Cd4_3 Cd 0.02352(2) 0.46942(2) 0.14392(2)
Cd7_3 Cd 0.03603(3) 0.45563(3) 0.21164(2)
Cd1_2 Cd 0.64392(2) 0.47648(2) 0.53058(2)
Cd2_2 Cd 0.71164(2) 0.46397(3) 0.54437(3)
O1_3 O 0.6661(4) 0.4657(4) 0.4868(3)
O2_3 O 0.7135(3) 0.4618(4) 0.5039(6)
O3_2 O 0.8523(4) 0.5169(3) 0.0767(3)
O4_2 O 0.8069(4) 0.5279(3) 0.0884(3)
O5_3 O 0.9838(4) 0.4753(4) 0.1547(4)
O6_3 O 0.9875(3) 0.4621(3) 0.2074(6)
O7_3 O 0.5705(2) 0.4603(3) 0.3597(5)
O8_3 O 0.5758(3) 0.4588(3) 0.3124(4)
O9_3 O 0.7538(5) 0.4478(9) 0.5664(11)
O10_3 O 0.5944(5) 0.4821(7) 0.5252(7)
N1_3 N 0.8568(5) 0.4888(4) 0.2110(3)
N2_3 N 0.7055(3) 0.4544(4) 0.3575(4)
C1_3 C 0.9750(3) 0.4731(6) 0.1821(6)
C2_3 C 0.94228(19) 0.4737(3) 0.1942(3)
C3_3 C 0.9230(3) 0.4859(2) 0.1745(3)
H1_3 H 0.929664 0.491779 0.155912
C4_3 C 0.8940(2) 0.4894(3) 0.1819(3)
C5_3 C 0.8843(2) 0.4807(3) 0.2091(3)
C6_3 C 0.9036(3) 0.4686(3) 0.2288(3)
H2_3 H 0.896939 0.462644 0.247415
C7_3 C 0.9326(3) 0.4650(3) 0.2214(3)
H3_3 H 0.945725 0.456709 0.234853
C8_3 C 0.8378(4) 0.5119(3) 0.1265(2)
C9_3 C 0.8651(3) 0.5039(3) 0.1364(3)
H4_3 H 0.880941 0.502706 0.123271
C10_3 C 0.8693(2) 0.4975(3) 0.1656(3)
C11_3 C 0.8462(3) 0.4991(3) 0.1848(2)
C12_3 C 0.8189(3) 0.5072(3) 0.1749(3)
H5_3 H 0.803066 0.508352 0.188049
C13_3 C 0.8147(3) 0.5136(3) 0.1457(3)
H6_3 H 0.796067 0.519116 0.138975
C14_3 C 0.6178(2) 0.4560(3) 0.3416(3)
C15_3 C 0.6282(2) 0.4573(3) 0.3699(3)
H7_3 H 0.615035 0.458194 0.385692
C16_3 C 0.6579(3) 0.4571(3) 0.3750(2)
C17_3 C 0.67720(19) 0.4558(3) 0.3519(2)
C18_3 C 0.6668(3) 0.4545(3) 0.3237(2)
H8_3 H 0.679980 0.453580 0.307888
C19_3 C 0.6371(3) 0.4546(3) 0.3185(2)
H9_3 H 0.630000 0.453803 0.299226
C20_3 C 0.6941(4) 0.4630(5) 0.4828(4)
C21_3 C 0.6956(3) 0.4619(3) 0.4501(2)
C22_3 C 0.7237(2) 0.4608(4) 0.4393(3)
H10_3 H 0.739786 0.462076 0.452148
C23_3 C 0.7284(2) 0.4579(3) 0.4097(3)
H11_3 H 0.747556 0.457186 0.402259
C24_3 C 0.7049(3) 0.4561(3) 0.3909(2)
C25_3 C 0.6768(2) 0.4572(3) 0.4017(3)
C26_3 C 0.6722(2) 0.4601(3) 0.4313(3)
H12_3 H 0.652962 0.460878 0.438742
C27_3 C 0.8325(5) 0.5208(4) 0.0950(4)
C28_3 C 0.5853(4) 0.4578(4) 0.3370(4)
C29_3 C 0.7763(3) 0.4622(3) 0.3042(3)
C30_3 C 0.7711(3) 0.4845(3) 0.3237(3)
H13_3 H 0.783528 0.500945 0.324127
C31_3 C 0.7478(3) 0.4828(3) 0.3427(3)
H14_3 H 0.744245 0.498062 0.356090
C32_3 C 0.7296(3) 0.4587(4) 0.3422(3)
C33_3 C 0.7348(3) 0.4364(3) 0.3226(3)
H15_3 H 0.722432 0.419974 0.322242
C34_3 C 0.7582(3) 0.4381(3) 0.3036(3)
H16_3 H 0.761715 0.422855 0.290278
C35_3 C 0.8347(4) 0.4861(5) 0.2336(4)
C36_3 C 0.8338(4) 0.4583(5) 0.2453(5)
H17_3 H 0.846610 0.443790 0.238345
C37_3 C 0.8141(5) 0.4519(4) 0.2672(5)
H18_3 H 0.813469 0.432889 0.275168
C38_3 C 0.7954(4) 0.4731(5) 0.2773(4)
C39_3 C 0.7963(4) 0.5009(4) 0.2656(5)
H19_3 H 0.783469 0.515429 0.272604
C40_3 C 0.8160(4) 0.5074(4) 0.2438(5)
H20_3 H 0.816610 0.526331 0.235780
Cd3_2 Cd 0.85608(2) 0.52352(2) 0.03058(2)
Cd5_3 Cd 0.52352(2) 0.46942(2) 0.35608(2)
Cd6_2 Cd 0.78836(2) 0.53603(3) 0.04437(3)
Cd8_3 Cd 0.53603(3) 0.45563(3) 0.28836(2)
O11_2 O 0.6477(4) 0.4831(3) 0.5767(3)
O12_2 O 0.6931(4) 0.4721(3) 0.5884(3)
O13_3 O 0.6547(4) 0.5162(4) 0.5247(4)
O14_3 O 0.7074(6) 0.5125(3) 0.5379(3)
O15_3 O 0.6403(5) 0.4295(2) 0.5397(3)
O16_3 O 0.6876(4) 0.4242(3) 0.5412(3)
H21_3 H 0.770392 0.459854 0.559859
H22_3 H 0.751781 0.449363 0.587774
H23_3 H 0.585896 0.463858 0.517567
H24_3 H 0.585583 0.486688 0.544294
O2_4 O 0.7865(3) 0.5382(4) 0.0039(6)
O9_4 O 0.7462(5) 0.5522(9) 0.0664(11)
O10_4 O 0.9056(5) 0.5179(7) 0.0252(7)
O13_4 O 0.8453(4) 0.4838(4) 0.0247(4)
O14_4 O 0.7926(6) 0.4875(3) 0.0379(3)
O15_4 O 0.8597(5) 0.5705(2) 0.0397(3)
O16_4 O 0.8124(4) 0.5758(3) 0.0412(3)
H21_4 H 0.729608 0.540146 0.0598593
H22_4 H 0.748219 0.550637 0.0877742
H23_4 H 0.914104 0.536142 0.0175666
H24_4 H 0.914417 0.513312 0.0442941
O1_4 O 0.8339(4) 0.5343(4) 0.9868(3)
O5_4 O 0.5162(4) 0.5247(4) 0.6547(4)
O6_4 O 0.5125(3) 0.5379(3) 0.7074(6)
O7_4 O 0.9295(2) 0.5397(3) 0.8597(5)
O8_4 O 0.9242(3) 0.5412(3) 0.8124(4)
N1_4 N 0.6432(5) 0.5112(4) 0.7110(3)
N2_4 N 0.7945(3) 0.5456(4) 0.8575(4)
C1_4 C 0.5250(3) 0.5269(6) 0.6821(6)
C2_4 C 0.55772(19) 0.5263(3) 0.6942(3)
C3_4 C 0.5770(3) 0.5141(2) 0.6745(3)
H1_4 H 0.570336 0.508221 0.655912
C4_4 C 0.6060(2) 0.5106(3) 0.6819(3)
C5_4 C 0.6157(2) 0.5193(3) 0.7091(3)
C6_4 C 0.5964(3) 0.5314(3) 0.7288(3)
H2_4 H 0.603061 0.537356 0.747415
C7_4 C 0.5674(3) 0.5350(3) 0.7214(3)
H3_4 H 0.554275 0.543291 0.734853
C8_4 C 0.6622(4) 0.4881(3) 0.6265(2)
C9_4 C 0.6349(3) 0.4961(3) 0.6364(3)
H4_4 H 0.619059 0.497294 0.623271
C10_4 C 0.6307(2) 0.5025(3) 0.6656(3)
C11_4 C 0.6538(3) 0.5009(3) 0.6848(2)
C12_4 C 0.6811(3) 0.4928(3) 0.6749(3)
H5_4 H 0.696934 0.491648 0.688049
C13_4 C 0.6853(3) 0.4864(3) 0.6457(3)
H6_4 H 0.703933 0.480884 0.638975
C14_4 C 0.8822(2) 0.5440(3) 0.8416(3)
C15_4 C 0.8718(2) 0.5427(3) 0.8699(3)
H7_4 H 0.884965 0.541806 0.885692
C16_4 C 0.8421(3) 0.5429(3) 0.8750(2)
C17_4 C 0.82280(19) 0.5442(3) 0.8519(2)
C18_4 C 0.8332(3) 0.5455(3) 0.8237(2)
H8_4 H 0.820020 0.546420 0.807888
C19_4 C 0.8629(3) 0.5454(3) 0.8185(2)
H9_4 H 0.870000 0.546197 0.799226
C20_4 C 0.8059(4) 0.5370(5) 0.9828(4)
C21_4 C 0.8044(3) 0.5381(3) 0.9501(2)
C22_4 C 0.7763(2) 0.5392(4) 0.9393(3)
H10_4 H 0.760214 0.537924 0.952148
C23_4 C 0.7716(2) 0.5421(3) 0.9097(3)
H11_4 H 0.752444 0.542814 0.902259
C24_4 C 0.7951(3) 0.5439(3) 0.8909(2)
C25_4 C 0.8232(2) 0.5428(3) 0.9017(3)
C26_4 C 0.8278(2) 0.5399(3) 0.9313(3)
H12_4 H 0.847038 0.539122 0.938742
C27_4 C 0.6675(5) 0.4792(4) 0.5950(4)
C28_4 C 0.9147(4) 0.5422(4) 0.8370(4)
C29_4 C 0.7237(3) 0.5378(3) 0.8042(3)
C30_4 C 0.7289(3) 0.5155(3) 0.8237(3)
H13_4 H 0.716472 0.499055 0.824127
C31_4 C 0.7522(3) 0.5172(3) 0.8427(3)
H14_4 H 0.755755 0.501938 0.856090
C32_4 C 0.7704(3) 0.5413(4) 0.8422(3)
C33_4 C 0.7652(3) 0.5636(3) 0.8226(3)
H15_4 H 0.777568 0.580026 0.822242
C34_4 C 0.7418(3) 0.5619(3) 0.8036(3)
H16_4 H 0.738285 0.577145 0.790278
C35_4 C 0.6653(4) 0.5139(5) 0.7336(4)
C36_4 C 0.6662(4) 0.5417(5) 0.7453(5)
H17_4 H 0.653390 0.556210 0.738345
C37_4 C 0.6859(5) 0.5481(4) 0.7672(5)
H18_4 H 0.686531 0.567111 0.775168
C38_4 C 0.7046(4) 0.5269(5) 0.7773(4)
C39_4 C 0.7037(4) 0.4991(4) 0.7656(5)
H19_4 H 0.716531 0.484571 0.772604
C40_4 C 0.6840(4) 0.4926(4) 0.7438(5)
H20_4 H 0.683390 0.473669 0.735780
Cd4_4 Cd 0.47648(2) 0.53058(2) 0.64392(2)
Cd5_4 Cd 0.97648(2) 0.53058(2) 0.85608(2)
Cd7_4 Cd 0.46397(3) 0.54437(3) 0.71164(2)
Cd8_4 Cd 0.96397(3) 0.54437(3) 0.78836(2)
O3_3 O 0.4233(3) 0.1477(4) 0.0169(3)
O4_3 O 0.4116(3) 0.1931(4) 0.0279(3)
C8_5 C 0.3735(2) 0.1622(4) 0.0119(3)
C9_5 C 0.3636(3) 0.1349(3) 0.0039(3)
H4_5 H 0.376729 0.119059 0.002706
C12_5 C 0.3251(3) 0.1811(3) 0.0072(3)
H5_5 H 0.311951 0.196934 0.008352
C13_5 C 0.3543(3) 0.1853(3) 0.0136(3)
H6_5 H 0.361025 0.203933 0.019116
C27_5 C 0.4050(4) 0.1675(5) 0.0208(4)
H13_5 H 0.175873 0.216472 0.000945
C39_5 C 0.2344(5) 0.2037(4) 0.0009(4)
H19_5 H 0.227396 0.216531 0.015429
C40_5 C 0.2562(5) 0.1840(4) 0.0074(4)
H20_5 H 0.264220 0.183390 0.026331
Cd3_3 Cd 0.46942(2) 0.14392(2) 0.02352(2)
Cd6_3 Cd 0.45563(3) 0.21164(2) 0.03603(3)
O1_5 O 0.0132(3) 0.3339(4) 0.9657(4)
O7_5 O 0.1403(5) 0.4295(2) 0.9603(3)
O8_5 O 0.1876(4) 0.4242(3) 0.9588(3)
N1_5 N 0.2890(3) 0.1432(5) 0.9888(4)
N2_5 N 0.1425(4) 0.2945(3) 0.9544(4)
C1_5 C 0.3179(6) 0.0250(3) 0.9731(6)
C2_5 C 0.3058(3) 0.05772(19) 0.9737(3)
C3_5 C 0.3255(3) 0.0770(3) 0.9859(2)
H1_5 H 0.344088 0.070336 0.991779
C4_5 C 0.3181(3) 0.1060(2) 0.9894(3)
C5_5 C 0.2909(3) 0.1157(2) 0.9807(3)
C6_5 C 0.2712(3) 0.0964(3) 0.9686(3)
H2_5 H 0.252585 0.103061 0.962644
C7_5 C 0.2786(3) 0.0674(3) 0.9650(3)
H3_5 H 0.265147 0.054275 0.956709
C10_5 C 0.3344(3) 0.1307(2) 0.9975(3)
C11_5 C 0.3152(2) 0.1538(3) 0.9991(3)
C14_5 C 0.1584(3) 0.3822(2) 0.9560(3)
C15_5 C 0.1301(3) 0.3718(2) 0.9573(3)
H7_5 H 0.114308 0.384965 0.958194
C16_5 C 0.1250(2) 0.3421(3) 0.9571(3)
C17_5 C 0.1481(2) 0.32280(19) 0.9558(3)
C18_5 C 0.1763(2) 0.3332(3) 0.9545(3)
H8_5 H 0.192112 0.320020 0.953580
C19_5 C 0.1815(2) 0.3629(3) 0.9546(3)
H9_5 H 0.200774 0.370000 0.953803
C20_5 C 0.0172(4) 0.3059(4) 0.9630(5)
C21_5 C 0.0499(2) 0.3044(3) 0.9619(3)
C22_5 C 0.0607(3) 0.2763(2) 0.9608(4)
H10_5 H 0.047852 0.260214 0.962076
C23_5 C 0.0903(3) 0.2716(2) 0.9579(3)
H11_5 H 0.097741 0.252444 0.957186
C24_5 C 0.1091(2) 0.2951(3) 0.9561(3)
C25_5 C 0.0983(3) 0.3232(2) 0.9572(3)
C26_5 C 0.0687(3) 0.3278(2) 0.9601(3)
H12_5 H 0.061258 0.347038 0.960878
C28_5 C 0.1630(4) 0.4147(4) 0.9578(4)
C29_5 C 0.1958(3) 0.2237(3) 0.9622(3)
C30_5 C 0.1763(3) 0.2289(3) 0.9845(3)
C31_5 C 0.1573(3) 0.2522(3) 0.9828(3)
H14_5 H 0.143910 0.255755 0.998062
C32_5 C 0.1578(3) 0.2704(3) 0.9587(4)
C33_5 C 0.1774(3) 0.2652(3) 0.9364(3)
H15_5 H 0.177758 0.277568 0.919974
C34_5 C 0.1964(3) 0.2418(3) 0.9381(3)
H16_5 H 0.209722 0.238285 0.922855
C35_5 C 0.2664(4) 0.1653(4) 0.9861(5)
C36_5 C 0.2547(5) 0.1662(4) 0.9583(5)
H17_5 H 0.261655 0.153390 0.943790
C37_5 C 0.2328(5) 0.1859(5) 0.9519(4)
H18_5 H 0.224832 0.186531 0.932889
C38_5 C 0.2227(4) 0.2046(4) 0.9731(5)
Cd5_5 Cd 0.14392(2) 0.47648(2) 0.96942(2)
Cd8_5 Cd 0.21164(2) 0.46397(3) 0.95563(3)
O13_5 O 0.9753(4) 0.3453(4) 0.0162(4)
O14_5 O 0.9621(3) 0.2926(6) 0.0125(3)
Cd1_3 Cd 0.96942(2) 0.35608(2) 0.97648(2)
Cd2_3 Cd 0.95563(3) 0.28836(2) 0.96397(3)
O2_5 O 0.9961(6) 0.2865(3) 0.9618(4)
O9_5 O 0.9336(11) 0.2462(5) 0.9478(9)
O10_5 O 0.9748(7) 0.4056(5) 0.9821(7)
O11_3 O 0.9233(3) 0.3523(4) 0.9831(3)
O12_3 O 0.9116(3) 0.3069(4) 0.9721(3)
O15_5 O 0.9603(3) 0.3597(5) 0.9295(2)
O16_5 O 0.9588(3) 0.3124(4) 0.9242(3)
H21_5 H 0.940141 0.229608 0.959854
H22_5 H 0.912226 0.248219 0.949363
H23_5 H 0.982433 0.414104 0.963858
H24_5 H 0.955706 0.414417 0.986688
O1_6 O 0.5132(3) 0.1661(4) 0.0343(4)
O2_6 O 0.4961(6) 0.2135(3) 0.0382(4)
O7_6 O 0.6403(5) 0.0705(2) 0.0397(3)
O8_6 O 0.6876(4) 0.0758(3) 0.0412(3)
O9_6 O 0.4336(11) 0.2538(5) 0.0522(9)
O10_6 O 0.4748(7) 0.0944(5) 0.0179(7)
N1_6 N 0.7890(3) 0.3568(5) 0.0112(4)
N2_6 N 0.6425(4) 0.2055(3) 0.0456(4)
C1_6 C 0.8179(6) 0.4750(3) 0.0269(6)
C2_6 C 0.8058(3) 0.44228(19) 0.0263(3)
C3_6 C 0.8255(3) 0.4230(3) 0.0141(2)
H1_6 H 0.844088 0.429664 0.008221
C4_6 C 0.8181(3) 0.3940(2) 0.0106(3)
C5_6 C 0.7909(3) 0.3843(2) 0.0193(3)
C6_6 C 0.7712(3) 0.4036(3) 0.0314(3)
H2_6 H 0.752585 0.396939 0.037356
C7_6 C 0.7786(3) 0.4326(3) 0.0350(3)
H3_6 H 0.765147 0.445725 0.043291
C10_6 C 0.8344(3) 0.3693(2) 0.0025(3)
C11_6 C 0.8152(2) 0.3462(3) 0.0009(3)
C14_6 C 0.6584(3) 0.1178(2) 0.0440(3)
C15_6 C 0.6301(3) 0.1282(2) 0.0427(3)
H7_6 H 0.614308 0.115035 0.041806
C16_6 C 0.6250(2) 0.1579(3) 0.0429(3)
C17_6 C 0.6481(2) 0.17720(19) 0.0442(3)
C18_6 C 0.6763(2) 0.1668(3) 0.0455(3)
H8_6 H 0.692112 0.179980 0.046420
C19_6 C 0.6815(2) 0.1371(3) 0.0454(3)
H9_6 H 0.700774 0.130000 0.046197
C20_6 C 0.5172(4) 0.1941(4) 0.0370(5)
C21_6 C 0.5499(2) 0.1956(3) 0.0381(3)
C22_6 C 0.5607(3) 0.2237(2) 0.0392(4)
H10_6 H 0.547852 0.239786 0.037924
C23_6 C 0.5903(3) 0.2284(2) 0.0421(3)
H11_6 H 0.597741 0.247556 0.042814
C24_6 C 0.6091(2) 0.2049(3) 0.0439(3)
C25_6 C 0.5983(3) 0.1768(2) 0.0428(3)
C26_6 C 0.5687(3) 0.1722(2) 0.0399(3)
H12_6 H 0.561258 0.152962 0.039122
C28_6 C 0.6630(4) 0.0853(4) 0.0422(4)
C29_6 C 0.6958(3) 0.2763(3) 0.0378(3)
C30_6 C 0.6763(3) 0.2711(3) 0.0155(3)
C31_6 C 0.6573(3) 0.2478(3) 0.0172(3)
H14_6 H 0.643910 0.244245 0.001938
C32_6 C 0.6578(3) 0.2296(3) 0.0413(4)
C33_6 C 0.6774(3) 0.2348(3) 0.0636(3)
H15_6 H 0.677758 0.222432 0.080026
C34_6 C 0.6964(3) 0.2582(3) 0.0619(3)
H16_6 H 0.709722 0.261715 0.077145
C35_6 C 0.7664(4) 0.3347(4) 0.0139(5)
C36_6 C 0.7547(5) 0.3338(4) 0.0417(5)
H17_6 H 0.761655 0.346610 0.056210
C37_6 C 0.7328(5) 0.3141(5) 0.0481(4)
H18_6 H 0.724832 0.313469 0.067111
C38_6 C 0.7227(4) 0.2954(4) 0.0269(5)
Cd5_6 Cd 0.64392(2) 0.02352(2) 0.03058(2)
Cd8_6 Cd 0.71164(2) 0.03603(3) 0.04437(3)
O15_6 O 0.4603(3) 0.1403(5) 0.0705(2)
O16_6 O 0.4588(3) 0.1876(4) 0.0758(3)
H21_6 H 0.440141 0.270392 0.0401458
H22_6 H 0.412226 0.251781 0.0506375
H23_6 H 0.482433 0.0858956 0.0361423
H24_6 H 0.455706 0.0855828 0.0133123
C8_6 C 0.8735(2) 0.3378(4) 0.9881(3)
C9_6 C 0.8636(3) 0.3651(3) 0.9961(3)
H4_6 H 0.876729 0.380941 0.997294
C12_6 C 0.8251(3) 0.3189(3) 0.9928(3)
H5_6 H 0.811951 0.303066 0.991648
C13_6 C 0.8543(3) 0.3147(3) 0.9864(3)
H6_6 H 0.861025 0.296067 0.980884
C27_6 C 0.9050(4) 0.3325(5) 0.9792(4)
H13_6 H 0.675873 0.283528 0.999055
C39_6 C 0.7344(5) 0.2963(4) 0.9991(4)
H19_6 H 0.727396 0.283469 0.984571
C40_6 C 0.7562(5) 0.3160(4) 0.9926(4)
H20_6 H 0.764220 0.316610 0.973669
O13_6 O 0.4753(4) 0.1547(4) 0.9838(4)
O14_6 O 0.4621(3) 0.2074(6) 0.9875(3)
Cd1_4 Cd 0.53058(2) 0.64392(2) 0.47648(2)
Cd2_4 Cd 0.54437(3) 0.71164(2) 0.46397(3)
O1_7 O 0.4868(3) 0.6661(4) 0.4657(4)
O2_7 O 0.5039(6) 0.7135(3) 0.4618(4)
O3_4 O 0.0767(3) 0.8523(4) 0.5169(3)
O4_4 O 0.0884(3) 0.8069(4) 0.5279(3)
O7_7 O 0.3597(5) 0.5705(2) 0.4603(3)
O8_7 O 0.3124(4) 0.5758(3) 0.4588(3)
O9_7 O 0.5664(11) 0.7538(5) 0.4478(9)
O10_7 O 0.5252(7) 0.5944(5) 0.4821(7)
N1_7 N 0.2110(3) 0.8568(5) 0.4888(4)
N2_7 N 0.3575(4) 0.7055(3) 0.4544(4)
C1_7 C 0.1821(6) 0.9750(3) 0.4731(6)
C2_7 C 0.1942(3) 0.94228(19) 0.4737(3)
C3_7 C 0.1745(3) 0.9230(3) 0.4859(2)
H1_7 H 0.155912 0.929664 0.491779
C4_7 C 0.1819(3) 0.8940(2) 0.4894(3)
C5_7 C 0.2091(3) 0.8843(2) 0.4807(3)
C6_7 C 0.2288(3) 0.9036(3) 0.4686(3)
H2_7 H 0.247415 0.896939 0.462644
C7_7 C 0.2214(3) 0.9326(3) 0.4650(3)
H3_7 H 0.234853 0.945725 0.456709
C8_7 C 0.1265(2) 0.8378(4) 0.5119(3)
C9_7 C 0.1364(3) 0.8651(3) 0.5039(3)
H4_7 H 0.123271 0.880941 0.502706
C10_7 C 0.1656(3) 0.8693(2) 0.4975(3)
C11_7 C 0.1848(2) 0.8462(3) 0.4991(3)
C12_7 C 0.1749(3) 0.8189(3) 0.5072(3)
H5_7 H 0.188049 0.803066 0.508352
C13_7 C 0.1457(3) 0.8147(3) 0.5136(3)
H6_7 H 0.138975 0.796067 0.519116
C14_7 C 0.3416(3) 0.6178(2) 0.4560(3)
C15_7 C 0.3699(3) 0.6282(2) 0.4573(3)
H7_7 H 0.385692 0.615035 0.458194
C16_7 C 0.3750(2) 0.6579(3) 0.4571(3)
C17_7 C 0.3519(2) 0.67720(19) 0.4558(3)
C18_7 C 0.3237(2) 0.6668(3) 0.4545(3)
H8_7 H 0.307888 0.679980 0.453580
C19_7 C 0.3185(2) 0.6371(3) 0.4546(3)
H9_7 H 0.299226 0.630000 0.453803
C20_7 C 0.4828(4) 0.6941(4) 0.4630(5)
C21_7 C 0.4501(2) 0.6956(3) 0.4619(3)
C22_7 C 0.4393(3) 0.7237(2) 0.4608(4)
H10_7 H 0.452148 0.739786 0.462076
C23_7 C 0.4097(3) 0.7284(2) 0.4579(3)
H11_7 H 0.402259 0.747556 0.457186
C24_7 C 0.3909(2) 0.7049(3) 0.4561(3)
C25_7 C 0.4017(3) 0.6768(2) 0.4572(3)
C26_7 C 0.4313(3) 0.6722(2) 0.4601(3)
H12_7 H 0.438742 0.652962 0.460878
C27_7 C 0.0950(4) 0.8325(5) 0.5208(4)
C28_7 C 0.3370(4) 0.5853(4) 0.4578(4)
C29_7 C 0.3042(3) 0.7763(3) 0.4622(3)
C30_7 C 0.3237(3) 0.7711(3) 0.4845(3)
H13_7 H 0.324127 0.783528 0.500945
C31_7 C 0.3427(3) 0.7478(3) 0.4828(3)
H14_7 H 0.356090 0.744245 0.498062
C32_7 C 0.3422(3) 0.7296(3) 0.4587(4)
C33_7 C 0.3226(3) 0.7348(3) 0.4364(3)
H15_7 H 0.322242 0.722432 0.419974
C34_7 C 0.3036(3) 0.7582(3) 0.4381(3)
H16_7 H 0.290278 0.761715 0.422855
C35_7 C 0.2336(4) 0.8347(4) 0.4861(5)
C36_7 C 0.2453(5) 0.8338(4) 0.4583(5)
H17_7 H 0.238345 0.846610 0.443790
C37_7 C 0.2672(5) 0.8141(5) 0.4519(4)
H18_7 H 0.275168 0.813469 0.432889
C38_7 C 0.2773(4) 0.7954(4) 0.4731(5)
C39_7 C 0.2656(5) 0.7963(4) 0.5009(4)
H19_7 H 0.272604 0.783469 0.515429
C40_7 C 0.2438(5) 0.8160(4) 0.5074(4)
H20_7 H 0.235780 0.816610 0.526331
Cd3_4 Cd 0.03058(2) 0.85608(2) 0.52352(2)
Cd5_7 Cd 0.35608(2) 0.52352(2) 0.46942(2)
Cd6_4 Cd 0.04437(3) 0.78836(2) 0.53603(3)
Cd8_7 Cd 0.28836(2) 0.53603(3) 0.45563(3)
O11_4 O 0.5767(3) 0.6477(4) 0.4831(3)
O12_4 O 0.5884(3) 0.6931(4) 0.4721(3)
O13_7 O 0.5247(4) 0.6547(4) 0.5162(4)
O14_7 O 0.5379(3) 0.7074(6) 0.5125(3)
O15_7 O 0.5397(3) 0.6403(5) 0.4295(2)
O16_7 O 0.5412(3) 0.6876(4) 0.4242(3)
H21_7 H 0.559859 0.770392 0.459854
H22_7 H 0.587774 0.751781 0.449363
H23_7 H 0.517567 0.585896 0.463858
H24_7 H 0.544294 0.585583 0.486688
O2_8 O 0.0039(6) 0.7865(3) 0.5382(4)
O9_8 O 0.0664(11) 0.7462(5) 0.5522(9)
O10_8 O 0.0252(7) 0.9056(5) 0.5179(7)
O13_8 O 0.0247(4) 0.8453(4) 0.4838(4)
O14_8 O 0.0379(3) 0.7926(6) 0.4875(3)
O15_8 O 0.0397(3) 0.8597(5) 0.5705(2)
O16_8 O 0.0412(3) 0.8124(4) 0.5758(3)
H21_8 H 0.0598593 0.729608 0.540146
H22_8 H 0.0877742 0.748219 0.550637
H23_8 H 0.0175666 0.914104 0.536142
H24_8 H 0.0442941 0.914417 0.513312
O1_8 O 0.9868(3) 0.8339(4) 0.5343(4)
O7_8 O 0.8597(5) 0.9295(2) 0.5397(3)
O8_8 O 0.8124(4) 0.9242(3) 0.5412(3)
N1_8 N 0.7110(3) 0.6432(5) 0.5112(4)
N2_8 N 0.8575(4) 0.7945(3) 0.5456(4)
C1_8 C 0.6821(6) 0.5250(3) 0.5269(6)
C2_8 C 0.6942(3) 0.55772(19) 0.5263(3)
C3_8 C 0.6745(3) 0.5770(3) 0.5141(2)
H1_8 H 0.655912 0.570336 0.508221
C4_8 C 0.6819(3) 0.6060(2) 0.5106(3)
C5_8 C 0.7091(3) 0.6157(2) 0.5193(3)
C6_8 C 0.7288(3) 0.5964(3) 0.5314(3)
H2_8 H 0.747415 0.603061 0.537356
C7_8 C 0.7214(3) 0.5674(3) 0.5350(3)
H3_8 H 0.734853 0.554275 0.543291
C8_8 C 0.6265(2) 0.6622(4) 0.4881(3)
C9_8 C 0.6364(3) 0.6349(3) 0.4961(3)
H4_8 H 0.623271 0.619059 0.497294
C10_8 C 0.6656(3) 0.6307(2) 0.5025(3)
C11_8 C 0.6848(2) 0.6538(3) 0.5009(3)
C12_8 C 0.6749(3) 0.6811(3) 0.4928(3)
H5_8 H 0.688049 0.696934 0.491648
C13_8 C 0.6457(3) 0.6853(3) 0.4864(3)
H6_8 H 0.638975 0.703933 0.480884
C14_8 C 0.8416(3) 0.8822(2) 0.5440(3)
C15_8 C 0.8699(3) 0.8718(2) 0.5427(3)
H7_8 H 0.885692 0.884965 0.541806
C16_8 C 0.8750(2) 0.8421(3) 0.5429(3)
C17_8 C 0.8519(2) 0.82280(19) 0.5442(3)
C18_8 C 0.8237(2) 0.8332(3) 0.5455(3)
H8_8 H 0.807888 0.820020 0.546420
C19_8 C 0.8185(2) 0.8629(3) 0.5454(3)
H9_8 H 0.799226 0.870000 0.546197
C20_8 C 0.9828(4) 0.8059(4) 0.5370(5)
C21_8 C 0.9501(2) 0.8044(3) 0.5381(3)
C22_8 C 0.9393(3) 0.7763(2) 0.5392(4)
H10_8 H 0.952148 0.760214 0.537924
C23_8 C 0.9097(3) 0.7716(2) 0.5421(3)
H11_8 H 0.902259 0.752444 0.542814
C24_8 C 0.8909(2) 0.7951(3) 0.5439(3)
C25_8 C 0.9017(3) 0.8232(2) 0.5428(3)
C26_8 C 0.9313(3) 0.8278(2) 0.5399(3)
H12_8 H 0.938742 0.847038 0.539122
C27_8 C 0.5950(4) 0.6675(5) 0.4792(4)
C28_8 C 0.8370(4) 0.9147(4) 0.5422(4)
C29_8 C 0.8042(3) 0.7237(3) 0.5378(3)
C30_8 C 0.8237(3) 0.7289(3) 0.5155(3)
H13_8 H 0.824127 0.716472 0.499055
C31_8 C 0.8427(3) 0.7522(3) 0.5172(3)
H14_8 H 0.856090 0.755755 0.501938
C32_8 C 0.8422(3) 0.7704(3) 0.5413(4)
C33_8 C 0.8226(3) 0.7652(3) 0.5636(3)
H15_8 H 0.822242 0.777568 0.580026
C34_8 C 0.8036(3) 0.7418(3) 0.5619(3)
H16_8 H 0.790278 0.738285 0.577145
C35_8 C 0.7336(4) 0.6653(4) 0.5139(5)
C36_8 C 0.7453(5) 0.6662(4) 0.5417(5)
H17_8 H 0.738345 0.653390 0.556210
C37_8 C 0.7672(5) 0.6859(5) 0.5481(4)
H18_8 H 0.775168 0.686531 0.567111
C38_8 C 0.7773(4) 0.7046(4) 0.5269(5)
C39_8 C 0.7656(5) 0.7037(4) 0.4991(4)
H19_8 H 0.772604 0.716531 0.484571
C40_8 C 0.7438(5) 0.6840(4) 0.4926(4)
H20_8 H 0.735780 0.683390 0.473669
Cd5_8 Cd 0.85608(2) 0.97648(2) 0.53058(2)
Cd8_8 Cd 0.78836(2) 0.96397(3) 0.54437(3)
O3_5 O 0.0169(3) 0.4233(3) 0.1477(4)
O4_5 O 0.0279(3) 0.4116(3) 0.1931(4)
C8_9 C 0.0119(3) 0.3735(2) 0.1622(4)
C9_9 C 0.0039(3) 0.3636(3) 0.1349(3)
H4_9 H 0.002706 0.376729 0.119059
C12_9 C 0.0072(3) 0.3251(3) 0.1811(3)
H5_9 H 0.008352 0.311951 0.196934
C13_9 C 0.0136(3) 0.3543(3) 0.1853(3)
H6_9 H 0.019116 0.361025 0.203933
C27_9 C 0.0208(4) 0.4050(4) 0.1675(5)
H13_9 H 0.000945 0.175873 0.216472
C39_9 C 0.0009(4) 0.2344(5) 0.2037(4)
H19_9 H 0.015429 0.227396 0.216531
C40_9 C 0.0074(4) 0.2562(5) 0.1840(4)
H20_9 H 0.026331 0.264220 0.183390
O1_9 O 0.9657(4) 0.0132(3) 0.3339(4)
O7_9 O 0.9603(3) 0.1403(5) 0.4295(2)
O8_9 O 0.9588(3) 0.1876(4) 0.4242(3)
N1_9 N 0.9888(4) 0.2890(3) 0.1432(5)
N2_9 N 0.9544(4) 0.1425(4) 0.2945(3)
C1_9 C 0.9731(6) 0.3179(6) 0.0250(3)
C2_9 C 0.9737(3) 0.3058(3) 0.05772(19)
C3_9 C 0.9859(2) 0.3255(3) 0.0770(3)
H1_9 H 0.991779 0.344088 0.070336
C4_9 C 0.9894(3) 0.3181(3) 0.1060(2)
C5_9 C 0.9807(3) 0.2909(3) 0.1157(2)
C6_9 C 0.9686(3) 0.2712(3) 0.0964(3)
H2_9 H 0.962644 0.252585 0.103061
C7_9 C 0.9650(3) 0.2786(3) 0.0674(3)
H3_9 H 0.956709 0.265147 0.054275
C10_9 C 0.9975(3) 0.3344(3) 0.1307(2)
C11_9 C 0.9991(3) 0.3152(2) 0.1538(3)
C14_9 C 0.9560(3) 0.1584(3) 0.3822(2)
C15_9 C 0.9573(3) 0.1301(3) 0.3718(2)
H7_9 H 0.958194 0.114308 0.384965
C16_9 C 0.9571(3) 0.1250(2) 0.3421(3)
C17_9 C 0.9558(3) 0.1481(2) 0.32280(19)
C18_9 C 0.9545(3) 0.1763(2) 0.3332(3)
H8_9 H 0.953580 0.192112 0.320020
C19_9 C 0.9546(3) 0.1815(2) 0.3629(3)
H9_9 H 0.953803 0.200774 0.370000
C20_9 C 0.9630(5) 0.0172(4) 0.3059(4)
C21_9 C 0.9619(3) 0.0499(2) 0.3044(3)
C22_9 C 0.9608(4) 0.0607(3) 0.2763(2)
H10_9 H 0.962076 0.047852 0.260214
C23_9 C 0.9579(3) 0.0903(3) 0.2716(2)
H11_9 H 0.957186 0.097741 0.252444
C24_9 C 0.9561(3) 0.1091(2) 0.2951(3)
C25_9 C 0.9572(3) 0.0983(3) 0.3232(2)
C26_9 C 0.9601(3) 0.0687(3) 0.3278(2)
H12_9 H 0.960878 0.061258 0.347038
C28_9 C 0.9578(4) 0.1630(4) 0.4147(4)
C29_9 C 0.9622(3) 0.1958(3) 0.2237(3)
C30_9 C 0.9845(3) 0.1763(3) 0.2289(3)
C31_9 C 0.9828(3) 0.1573(3) 0.2522(3)
H14_9 H 0.998062 0.143910 0.255755
C32_9 C 0.9587(4) 0.1578(3) 0.2704(3)
C33_9 C 0.9364(3) 0.1774(3) 0.2652(3)
H15_9 H 0.919974 0.177758 0.277568
C34_9 C 0.9381(3) 0.1964(3) 0.2418(3)
H16_9 H 0.922855 0.209722 0.238285
C35_9 C 0.9861(5) 0.2664(4) 0.1653(4)
C36_9 C 0.9583(5) 0.2547(5) 0.1662(4)
H17_9 H 0.943790 0.261655 0.153390
C37_9 C 0.9519(4) 0.2328(5) 0.1859(5)
H18_9 H 0.932889 0.224832 0.186531
C38_9 C 0.9731(5) 0.2227(4) 0.2046(4)
Cd5_9 Cd 0.96942(2) 0.14392(2) 0.47648(2)
Cd8_9 Cd 0.95563(3) 0.21164(2) 0.46397(3)
O2_9 O 0.9618(4) 0.9961(6) 0.2865(3)
O9_9 O 0.9478(9) 0.9336(11) 0.2462(5)
O10_9 O 0.9821(7) 0.9748(7) 0.4056(5)
O11_5 O 0.9831(3) 0.9233(3) 0.3523(4)
O12_5 O 0.9721(3) 0.9116(3) 0.3069(4)
O15_9 O 0.9295(2) 0.9603(3) 0.3597(5)
O16_9 O 0.9242(3) 0.9588(3) 0.3124(4)
H21_9 H 0.959854 0.940141 0.229608
H22_9 H 0.949363 0.912226 0.248219
H23_9 H 0.963858 0.982433 0.414104
H24_9 H 0.986688 0.955706 0.414417
O1_10 O 0.0343(4) 0.5132(3) 0.1661(4)
O2_10 O 0.0382(4) 0.4961(6) 0.2135(3)
O7_10 O 0.0397(3) 0.6403(5) 0.0705(2)
O8_10 O 0.0412(3) 0.6876(4) 0.0758(3)
O9_10 O 0.0522(9) 0.4336(11) 0.2538(5)
O10_10 O 0.0179(7) 0.4748(7) 0.0944(5)
N1_10 N 0.0112(4) 0.7890(3) 0.3568(5)
N2_10 N 0.0456(4) 0.6425(4) 0.2055(3)
C1_10 C 0.0269(6) 0.8179(6) 0.4750(3)
C2_10 C 0.0263(3) 0.8058(3) 0.44228(19)
C3_10 C 0.0141(2) 0.8255(3) 0.4230(3)
H1_10 H 0.008221 0.844088 0.429664
C4_10 C 0.0106(3) 0.8181(3) 0.3940(2)
C5_10 C 0.0193(3) 0.7909(3) 0.3843(2)
C6_10 C 0.0314(3) 0.7712(3) 0.4036(3)
H2_10 H 0.037356 0.752585 0.396939
C7_10 C 0.0350(3) 0.7786(3) 0.4326(3)
H3_10 H 0.043291 0.765147 0.445725
C10_10 C 0.0025(3) 0.8344(3) 0.3693(2)
C11_10 C 0.0009(3) 0.8152(2) 0.3462(3)
C14_10 C 0.0440(3) 0.6584(3) 0.1178(2)
C15_10 C 0.0427(3) 0.6301(3) 0.1282(2)
H7_10 H 0.041806 0.614308 0.115035
C16_10 C 0.0429(3) 0.6250(2) 0.1579(3)
C17_10 C 0.0442(3) 0.6481(2) 0.17720(19)
C18_10 C 0.0455(3) 0.6763(2) 0.1668(3)
H8_10 H 0.046420 0.692112 0.179980
C19_10 C 0.0454(3) 0.6815(2) 0.1371(3)
H9_10 H 0.046197 0.700774 0.130000
C20_10 C 0.0370(5) 0.5172(4) 0.1941(4)
C21_10 C 0.0381(3) 0.5499(2) 0.1956(3)
C22_10 C 0.0392(4) 0.5607(3) 0.2237(2)
H10_10 H 0.037924 0.547852 0.239786
C23_10 C 0.0421(3) 0.5903(3) 0.2284(2)
H11_10 H 0.042814 0.597741 0.247556
C24_10 C 0.0439(3) 0.6091(2) 0.2049(3)
C25_10 C 0.0428(3) 0.5983(3) 0.1768(2)
C26_10 C 0.0399(3) 0.5687(3) 0.1722(2)
H12_10 H 0.039122 0.561258 0.152962
C28_10 C 0.0422(4) 0.6630(4) 0.0853(4)
C29_10 C 0.0378(3) 0.6958(3) 0.2763(3)
C30_10 C 0.0155(3) 0.6763(3) 0.2711(3)
C31_10 C 0.0172(3) 0.6573(3) 0.2478(3)
H14_10 H 0.001938 0.643910 0.244245
C32_10 C 0.0413(4) 0.6578(3) 0.2296(3)
C33_10 C 0.0636(3) 0.6774(3) 0.2348(3)
H15_10 H 0.080026 0.677758 0.222432
C34_10 C 0.0619(3) 0.6964(3) 0.2582(3)
H16_10 H 0.077145 0.709722 0.261715
C35_10 C 0.0139(5) 0.7664(4) 0.3347(4)
C36_10 C 0.0417(5) 0.7547(5) 0.3338(4)
H17_10 H 0.056210 0.761655 0.346610
C37_10 C 0.0481(4) 0.7328(5) 0.3141(5)
H18_10 H 0.067111 0.724832 0.313469
C38_10 C 0.0269(5) 0.7227(4) 0.2954(4)
Cd5_10 Cd 0.03058(2) 0.64392(2) 0.02352(2)
Cd8_10 Cd 0.04437(3) 0.71164(2) 0.03603(3)
O15_10 O 0.0705(2) 0.4603(3) 0.1403(5)
O16_10 O 0.0758(3) 0.4588(3) 0.1876(4)
H21_10 H 0.0401458 0.440141 0.270392
H22_10 H 0.0506375 0.412226 0.251781
H23_10 H 0.0361423 0.482433 0.0858956
H24_10 H 0.0133123 0.455706 0.0855828
C8_10 C 0.9881(3) 0.8735(2) 0.3378(4)
C9_10 C 0.9961(3) 0.8636(3) 0.3651(3)
H4_10 H 0.997294 0.876729 0.380941
C12_10 C 0.9928(3) 0.8251(3) 0.3189(3)
H5_10 H 0.991648 0.811951 0.303066
C13_10 C 0.9864(3) 0.8543(3) 0.3147(3)
H6_10 H 0.980884 0.861025 0.296067
C27_10 C 0.9792(4) 0.9050(4) 0.3325(5)
H13_10 H 0.999055 0.675873 0.283528
C39_10 C 0.9991(4) 0.7344(5) 0.2963(4)
H19_10 H 0.984571 0.727396 0.283469
C40_10 C 0.9926(4) 0.7562(5) 0.3160(4)
H20_10 H 0.973669 0.764220 0.316610
O1_11 O 0.4657(4) 0.4868(3) 0.6661(4)
O2_11 O 0.4618(4) 0.5039(6) 0.7135(3)
O3_6 O 0.5169(3) 0.0767(3) 0.8523(4)
O4_6 O 0.5279(3) 0.0884(3) 0.8069(4)
O7_11 O 0.4603(3) 0.3597(5) 0.5705(2)
O8_11 O 0.4588(3) 0.3124(4) 0.5758(3)
O9_11 O 0.4478(9) 0.5664(11) 0.7538(5)
O10_11 O 0.4821(7) 0.5252(7) 0.5944(5)
N1_11 N 0.4888(4) 0.2110(3) 0.8568(5)
N2_11 N 0.4544(4) 0.3575(4) 0.7055(3)
C1_11 C 0.4731(6) 0.1821(6) 0.9750(3)
C2_11 C 0.4737(3) 0.1942(3) 0.94228(19)
C3_11 C 0.4859(2) 0.1745(3) 0.9230(3)
H1_11 H 0.491779 0.155912 0.929664
C4_11 C 0.4894(3) 0.1819(3) 0.8940(2)
C5_11 C 0.4807(3) 0.2091(3) 0.8843(2)
C6_11 C 0.4686(3) 0.2288(3) 0.9036(3)
H2_11 H 0.462644 0.247415 0.896939
C7_11 C 0.4650(3) 0.2214(3) 0.9326(3)
H3_11 H 0.456709 0.234853 0.945725
C8_11 C 0.5119(3) 0.1265(2) 0.8378(4)
C9_11 C 0.5039(3) 0.1364(3) 0.8651(3)
H4_11 H 0.502706 0.123271 0.880941
C10_11 C 0.4975(3) 0.1656(3) 0.8693(2)
C11_11 C 0.4991(3) 0.1848(2) 0.8462(3)
C12_11 C 0.5072(3) 0.1749(3) 0.8189(3)
H5_11 H 0.508352 0.188049 0.803066
C13_11 C 0.5136(3) 0.1457(3) 0.8147(3)
H6_11 H 0.519116 0.138975 0.796067
C14_11 C 0.4560(3) 0.3416(3) 0.6178(2)
C15_11 C 0.4573(3) 0.3699(3) 0.6282(2)
H7_11 H 0.458194 0.385692 0.615035
C16_11 C 0.4571(3) 0.3750(2) 0.6579(3)
C17_11 C 0.4558(3) 0.3519(2) 0.67720(19)
C18_11 C 0.4545(3) 0.3237(2) 0.6668(3)
H8_11 H 0.453580 0.307888 0.679980
C19_11 C 0.4546(3) 0.3185(2) 0.6371(3)
H9_11 H 0.453803 0.299226 0.630000
C20_11 C 0.4630(5) 0.4828(4) 0.6941(4)
C21_11 C 0.4619(3) 0.4501(2) 0.6956(3)
C22_11 C 0.4608(4) 0.4393(3) 0.7237(2)
H10_11 H 0.462076 0.452148 0.739786
C23_11 C 0.4579(3) 0.4097(3) 0.7284(2)
H11_11 H 0.457186 0.402259 0.747556
C24_11 C 0.4561(3) 0.3909(2) 0.7049(3)
C25_11 C 0.4572(3) 0.4017(3) 0.6768(2)
C26_11 C 0.4601(3) 0.4313(3) 0.6722(2)
H12_11 H 0.460878 0.438742 0.652962
C27_11 C 0.5208(4) 0.0950(4) 0.8325(5)
C28_11 C 0.4578(4) 0.3370(4) 0.5853(4)
C29_11 C 0.4622(3) 0.3042(3) 0.7763(3)
C30_11 C 0.4845(3) 0.3237(3) 0.7711(3)
H13_11 H 0.500945 0.324127 0.783528
C31_11 C 0.4828(3) 0.3427(3) 0.7478(3)
H14_11 H 0.498062 0.356090 0.744245
C32_11 C 0.4587(4) 0.3422(3) 0.7296(3)
C33_11 C 0.4364(3) 0.3226(3) 0.7348(3)
H15_11 H 0.419974 0.322242 0.722432
C34_11 C 0.4381(3) 0.3036(3) 0.7582(3)
H16_11 H 0.422855 0.290278 0.761715
C35_11 C 0.4861(5) 0.2336(4) 0.8347(4)
C36_11 C 0.4583(5) 0.2453(5) 0.8338(4)
H17_11 H 0.443790 0.238345 0.846610
C37_11 C 0.4519(4) 0.2672(5) 0.8141(5)
H18_11 H 0.432889 0.275168 0.813469
C38_11 C 0.4731(5) 0.2773(4) 0.7954(4)
C39_11 C 0.5009(4) 0.2656(5) 0.7963(4)
H19_11 H 0.515429 0.272604 0.783469
C40_11 C 0.5074(4) 0.2438(5) 0.8160(4)
H20_11 H 0.526331 0.235780 0.816610
Cd5_11 Cd 0.46942(2) 0.35608(2) 0.52352(2)
Cd8_11 Cd 0.45563(3) 0.28836(2) 0.53603(3)
O11_6 O 0.4831(3) 0.5767(3) 0.6477(4)
O12_6 O 0.4721(3) 0.5884(3) 0.6931(4)
O15_11 O 0.4295(2) 0.5397(3) 0.6403(5)
O16_11 O 0.4242(3) 0.5412(3) 0.6876(4)
H21_11 H 0.459854 0.559859 0.770392
H22_11 H 0.449363 0.587774 0.751781
H23_11 H 0.463858 0.517567 0.585896
H24_11 H 0.486688 0.544294 0.585583
O2_12 O 0.5382(4) 0.0039(6) 0.7865(3)
O9_12 O 0.5522(9) 0.0664(11) 0.7462(5)
O10_12 O 0.5179(7) 0.0252(7) 0.9056(5)
O15_12 O 0.5705(2) 0.0397(3) 0.8597(5)
O16_12 O 0.5758(3) 0.0412(3) 0.8124(4)
H21_12 H 0.540146 0.0598593 0.729608
H22_12 H 0.550637 0.0877742 0.748219
H23_12 H 0.536142 0.0175666 0.914104
H24_12 H 0.513312 0.0442941 0.914417
O1_12 O 0.5343(4) 0.9868(3) 0.8339(4)
O7_12 O 0.5397(3) 0.8597(5) 0.9295(2)
O8_12 O 0.5412(3) 0.8124(4) 0.9242(3)
N1_12 N 0.5112(4) 0.7110(3) 0.6432(5)
N2_12 N 0.5456(4) 0.8575(4) 0.7945(3)
C1_12 C 0.5269(6) 0.6821(6) 0.5250(3)
C2_12 C 0.5263(3) 0.6942(3) 0.55772(19)
C3_12 C 0.5141(2) 0.6745(3) 0.5770(3)
H1_12 H 0.508221 0.655912 0.570336
C4_12 C 0.5106(3) 0.6819(3) 0.6060(2)
C5_12 C 0.5193(3) 0.7091(3) 0.6157(2)
C6_12 C 0.5314(3) 0.7288(3) 0.5964(3)
H2_12 H 0.537356 0.747415 0.603061
C7_12 C 0.5350(3) 0.7214(3) 0.5674(3)
H3_12 H 0.543291 0.734853 0.554275
C8_12 C 0.4881(3) 0.6265(2) 0.6622(4)
C9_12 C 0.4961(3) 0.6364(3) 0.6349(3)
H4_12 H 0.497294 0.623271 0.619059
C10_12 C 0.5025(3) 0.6656(3) 0.6307(2)
C11_12 C 0.5009(3) 0.6848(2) 0.6538(3)
C12_12 C 0.4928(3) 0.6749(3) 0.6811(3)
H5_12 H 0.491648 0.688049 0.696934
C13_12 C 0.4864(3) 0.6457(3) 0.6853(3)
H6_12 H 0.480884 0.638975 0.703933
C14_12 C 0.5440(3) 0.8416(3) 0.8822(2)
C15_12 C 0.5427(3) 0.8699(3) 0.8718(2)
H7_12 H 0.541806 0.885692 0.884965
C16_12 C 0.5429(3) 0.8750(2) 0.8421(3)
C17_12 C 0.5442(3) 0.8519(2) 0.82280(19)
C18_12 C 0.5455(3) 0.8237(2) 0.8332(3)
H8_12 H 0.546420 0.807888 0.820020
C19_12 C 0.5454(3) 0.8185(2) 0.8629(3)
H9_12 H 0.546197 0.799226 0.870000
C20_12 C 0.5370(5) 0.9828(4) 0.8059(4)
C21_12 C 0.5381(3) 0.9501(2) 0.8044(3)
C22_12 C 0.5392(4) 0.9393(3) 0.7763(2)
H10_12 H 0.537924 0.952148 0.760214
C23_12 C 0.5421(3) 0.9097(3) 0.7716(2)
H11_12 H 0.542814 0.902259 0.752444
C24_12 C 0.5439(3) 0.8909(2) 0.7951(3)
C25_12 C 0.5428(3) 0.9017(3) 0.8232(2)
C26_12 C 0.5399(3) 0.9313(3) 0.8278(2)
H12_12 H 0.539122 0.938742 0.847038
C27_12 C 0.4792(4) 0.5950(4) 0.6675(5)
C28_12 C 0.5422(4) 0.8370(4) 0.9147(4)
C29_12 C 0.5378(3) 0.8042(3) 0.7237(3)
C30_12 C 0.5155(3) 0.8237(3) 0.7289(3)
H13_12 H 0.499055 0.824127 0.716472
C31_12 C 0.5172(3) 0.8427(3) 0.7522(3)
H14_12 H 0.501938 0.856090 0.755755
C32_12 C 0.5413(4) 0.8422(3) 0.7704(3)
C33_12 C 0.5636(3) 0.8226(3) 0.7652(3)
H15_12 H 0.580026 0.822242 0.777568
C34_12 C 0.5619(3) 0.8036(3) 0.7418(3)
H16_12 H 0.577145 0.790278 0.738285
C35_12 C 0.5139(5) 0.7336(4) 0.6653(4)
C36_12 C 0.5417(5) 0.7453(5) 0.6662(4)
H17_12 H 0.556210 0.738345 0.653390
C37_12 C 0.5481(4) 0.7672(5) 0.6859(5)
H18_12 H 0.567111 0.775168 0.686531
C38_12 C 0.5269(5) 0.7773(4) 0.7046(4)
C39_12 C 0.4991(4) 0.7656(5) 0.7037(4)
H19_12 H 0.484571 0.772604 0.716531
C40_12 C 0.4926(4) 0.7438(5) 0.6840(4)
H20_12 H 0.473669 0.735780 0.683390
Cd5_12 Cd 0.53058(2) 0.85608(2) 0.97648(2)
Cd8_12 Cd 0.54437(3) 0.78836(2) 0.96397(3)
O2_13 O 0.7135(3) 0.0382(4) 0.0039(6)
O9_13 O 0.7538(5) 0.0522(9) 0.0664(11)
O10_13 O 0.5944(5) 0.0179(7) 0.0252(7)
O11_7 O 0.6477(4) 0.0169(3) 0.0767(3)
O12_7 O 0.6931(4) 0.0279(3) 0.0884(3)
H21_13 H 0.770392 0.0401458 0.0598593
H22_13 H 0.751781 0.0506375 0.0877742
H23_13 H 0.585896 0.0361423 0.0175666
H24_13 H 0.585583 0.0133123 0.0442941
O1_13 O 0.6661(4) 0.0343(4) 0.9868(3)
O5_5 O 0.9838(4) 0.0247(4) 0.6547(4)
O6_5 O 0.9875(3) 0.0379(3) 0.7074(6)
N1_13 N 0.8568(5) 0.0112(4) 0.7110(3)
N2_13 N 0.7055(3) 0.0456(4) 0.8575(4)
C1_13 C 0.9750(3) 0.0269(6) 0.6821(6)
C2_13 C 0.94228(19) 0.0263(3) 0.6942(3)
C3_13 C 0.9230(3) 0.0141(2) 0.6745(3)
H1_13 H 0.929664 0.008221 0.655912
C4_13 C 0.8940(2) 0.0106(3) 0.6819(3)
C5_13 C 0.8843(2) 0.0193(3) 0.7091(3)
C6_13 C 0.9036(3) 0.0314(3) 0.7288(3)
H2_13 H 0.896939 0.037356 0.747415
C7_13 C 0.9326(3) 0.0350(3) 0.7214(3)
H3_13 H 0.945725 0.043291 0.734853
C10_13 C 0.8693(2) 0.0025(3) 0.6656(3)
C11_13 C 0.8462(3) 0.0009(3) 0.6848(2)
C14_13 C 0.6178(2) 0.0440(3) 0.8416(3)
C15_13 C 0.6282(2) 0.0427(3) 0.8699(3)
H7_13 H 0.615035 0.041806 0.885692
C16_13 C 0.6579(3) 0.0429(3) 0.8750(2)
C17_13 C 0.67720(19) 0.0442(3) 0.8519(2)
C18_13 C 0.6668(3) 0.0455(3) 0.8237(2)
H8_13 H 0.679980 0.046420 0.807888
C19_13 C 0.6371(3) 0.0454(3) 0.8185(2)
H9_13 H 0.630000 0.046197 0.799226
C20_13 C 0.6941(4) 0.0370(5) 0.9828(4)
C21_13 C 0.6956(3) 0.0381(3) 0.9501(2)
C22_13 C 0.7237(2) 0.0392(4) 0.9393(3)
H10_13 H 0.739786 0.037924 0.952148
C23_13 C 0.7284(2) 0.0421(3) 0.9097(3)
H11_13 H 0.747556 0.042814 0.902259
C24_13 C 0.7049(3) 0.0439(3) 0.8909(2)
C25_13 C 0.6768(2) 0.0428(3) 0.9017(3)
C26_13 C 0.6722(2) 0.0399(3) 0.9313(3)
H12_13 H 0.652962 0.039122 0.938742
C28_13 C 0.5853(4) 0.0422(4) 0.8370(4)
C29_13 C 0.7763(3) 0.0378(3) 0.8042(3)
C30_13 C 0.7711(3) 0.0155(3) 0.8237(3)
C31_13 C 0.7478(3) 0.0172(3) 0.8427(3)
H14_13 H 0.744245 0.001938 0.856090
C32_13 C 0.7296(3) 0.0413(4) 0.8422(3)
C33_13 C 0.7348(3) 0.0636(3) 0.8226(3)
H15_13 H 0.722432 0.080026 0.822242
C34_13 C 0.7582(3) 0.0619(3) 0.8036(3)
H16_13 H 0.761715 0.077145 0.790278
C35_13 C 0.8347(4) 0.0139(5) 0.7336(4)
C36_13 C 0.8338(4) 0.0417(5) 0.7453(5)
H17_13 H 0.846610 0.056210 0.738345
C37_13 C 0.8141(5) 0.0481(4) 0.7672(5)
H18_13 H 0.813469 0.067111 0.775168
C38_13 C 0.7954(4) 0.0269(5) 0.7773(4)
O13_9 O 0.6547(4) 0.9838(4) 0.0247(4)
O14_9 O 0.7074(6) 0.9875(3) 0.0379(3)
O3_7 O 0.8523(4) 0.9831(3) 0.5767(3)
O4_7 O 0.8069(4) 0.9721(3) 0.5884(3)
C8_13 C 0.8378(4) 0.9881(3) 0.6265(2)
C9_13 C 0.8651(3) 0.9961(3) 0.6364(3)
H4_13 H 0.880941 0.997294 0.623271
C12_13 C 0.8189(3) 0.9928(3) 0.6749(3)
H5_13 H 0.803066 0.991648 0.688049
C13_13 C 0.8147(3) 0.9864(3) 0.6457(3)
H6_13 H 0.796067 0.980884 0.638975
C27_13 C 0.8325(5) 0.9792(4) 0.5950(4)
H13_13 H 0.783528 0.999055 0.824127
C39_13 C 0.7963(4) 0.9991(4) 0.7656(5)
H19_13 H 0.783469 0.984571 0.772604
C40_13 C 0.8160(4) 0.9926(4) 0.7438(5)
H20_13 H 0.816610 0.973669 0.735780
C8_14 C 0.6622(4) 0.0119(3) 0.1265(2)
C9_14 C 0.6349(3) 0.0039(3) 0.1364(3)
H4_14 H 0.619059 0.002706 0.123271
C12_14 C 0.6811(3) 0.0072(3) 0.1749(3)
H5_14 H 0.696934 0.008352 0.188049
C13_14 C 0.6853(3) 0.0136(3) 0.1457(3)
H6_14 H 0.703933 0.019116 0.138975
C27_14 C 0.6675(5) 0.0208(4) 0.0950(4)
H13_14 H 0.716472 0.000945 0.324127
C39_14 C 0.7037(4) 0.0009(4) 0.2656(5)
H19_14 H 0.716531 0.015429 0.272604
C40_14 C 0.6840(4) 0.0074(4) 0.2438(5)
H20_14 H 0.683390 0.026331 0.235780
O13_10 O 0.8453(4) 0.0162(4) 0.5247(4)
O14_10 O 0.7926(6) 0.0125(3) 0.5379(3)
O1_14 O 0.8339(4) 0.9657(4) 0.4868(3)
O2_14 O 0.7865(3) 0.9618(4) 0.5039(6)
O5_6 O 0.5162(4) 0.9753(4) 0.1547(4)
O6_6 O 0.5125(3) 0.9621(3) 0.2074(6)
O9_14 O 0.7462(5) 0.9478(9) 0.5664(11)
O10_14 O 0.9056(5) 0.9821(7) 0.5252(7)
N1_14 N 0.6432(5) 0.9888(4) 0.2110(3)
N2_14 N 0.7945(3) 0.9544(4) 0.3575(4)
C1_14 C 0.5250(3) 0.9731(6) 0.1821(6)
C2_14 C 0.55772(19) 0.9737(3) 0.1942(3)
C3_14 C 0.5770(3) 0.9859(2) 0.1745(3)
H1_14 H 0.570336 0.991779 0.155912
C4_14 C 0.6060(2) 0.9894(3) 0.1819(3)
C5_14 C 0.6157(2) 0.9807(3) 0.2091(3)
C6_14 C 0.5964(3) 0.9686(3) 0.2288(3)
H2_14 H 0.603061 0.962644 0.247415
C7_14 C 0.5674(3) 0.9650(3) 0.2214(3)
H3_14 H 0.554275 0.956709 0.234853
C10_14 C 0.6307(2) 0.9975(3) 0.1656(3)
C11_14 C 0.6538(3) 0.9991(3) 0.1848(2)
C14_14 C 0.8822(2) 0.9560(3) 0.3416(3)
C15_14 C 0.8718(2) 0.9573(3) 0.3699(3)
H7_14 H 0.884965 0.958194 0.385692
C16_14 C 0.8421(3) 0.9571(3) 0.3750(2)
C17_14 C 0.82280(19) 0.9558(3) 0.3519(2)
C18_14 C 0.8332(3) 0.9545(3) 0.3237(2)
H8_14 H 0.820020 0.953580 0.307888
C19_14 C 0.8629(3) 0.9546(3) 0.3185(2)
H9_14 H 0.870000 0.953803 0.299226
C20_14 C 0.8059(4) 0.9630(5) 0.4828(4)
C21_14 C 0.8044(3) 0.9619(3) 0.4501(2)
C22_14 C 0.7763(2) 0.9608(4) 0.4393(3)
H10_14 H 0.760214 0.962076 0.452148
C23_14 C 0.7716(2) 0.9579(3) 0.4097(3)
H11_14 H 0.752444 0.957186 0.402259
C24_14 C 0.7951(3) 0.9561(3) 0.3909(2)
C25_14 C 0.8232(2) 0.9572(3) 0.4017(3)
C26_14 C 0.8278(2) 0.9601(3) 0.4313(3)
H12_14 H 0.847038 0.960878 0.438742
C28_14 C 0.9147(4) 0.9578(4) 0.3370(4)
C29_14 C 0.7237(3) 0.9622(3) 0.3042(3)
C30_14 C 0.7289(3) 0.9845(3) 0.3237(3)
C31_14 C 0.7522(3) 0.9828(3) 0.3427(3)
H14_14 H 0.755755 0.998062 0.356090
C32_14 C 0.7704(3) 0.9587(4) 0.3422(3)
C33_14 C 0.7652(3) 0.9364(3) 0.3226(3)
H15_14 H 0.777568 0.919974 0.322242
C34_14 C 0.7418(3) 0.9381(3) 0.3036(3)
H16_14 H 0.738285 0.922855 0.290278
C35_14 C 0.6653(4) 0.9861(5) 0.2336(4)
C36_14 C 0.6662(4) 0.9583(5) 0.2453(5)
H17_14 H 0.653390 0.943790 0.238345
C37_14 C 0.6859(5) 0.9519(4) 0.2672(5)
H18_14 H 0.686531 0.932889 0.275168
C38_14 C 0.7046(4) 0.9731(5) 0.2773(4)
H21_14 H 0.729608 0.959854 0.559859
H22_14 H 0.748219 0.949363 0.587774
H23_14 H 0.914104 0.963858 0.517567
H24_14 H 0.914417 0.986688 0.544294
O1_15 O 0.3339(4) 0.5343(4) 0.5132(3)
O2_15 O 0.2865(3) 0.5382(4) 0.4961(6)
O3_8 O 0.1477(4) 0.4831(3) 0.9233(3)
O4_8 O 0.1931(4) 0.4721(3) 0.9116(3)
O5_7 O 0.0162(4) 0.5247(4) 0.8453(4)
O6_7 O 0.0125(3) 0.5379(3) 0.7926(6)
O9_15 O 0.2462(5) 0.5522(9) 0.4336(11)
O10_15 O 0.4056(5) 0.5179(7) 0.4748(7)
N1_15 N 0.1432(5) 0.5112(4) 0.7890(3)
N2_15 N 0.2945(3) 0.5456(4) 0.6425(4)
C1_15 C 0.0250(3) 0.5269(6) 0.8179(6)
C2_15 C 0.05772(19) 0.5263(3) 0.8058(3)
C3_15 C 0.0770(3) 0.5141(2) 0.8255(3)
H1_15 H 0.070336 0.508221 0.844088
C4_15 C 0.1060(2) 0.5106(3) 0.8181(3)
C5_15 C 0.1157(2) 0.5193(3) 0.7909(3)
C6_15 C 0.0964(3) 0.5314(3) 0.7712(3)
H2_15 H 0.103061 0.537356 0.752585
C7_15 C 0.0674(3) 0.5350(3) 0.7786(3)
H3_15 H 0.054275 0.543291 0.765147
C8_15 C 0.1622(4) 0.4881(3) 0.8735(2)
C9_15 C 0.1349(3) 0.4961(3) 0.8636(3)
H4_15 H 0.119059 0.497294 0.876729
C10_15 C 0.1307(2) 0.5025(3) 0.8344(3)
C11_15 C 0.1538(3) 0.5009(3) 0.8152(2)
C12_15 C 0.1811(3) 0.4928(3) 0.8251(3)
H5_15 H 0.196934 0.491648 0.811951
C13_15 C 0.1853(3) 0.4864(3) 0.8543(3)
H6_15 H 0.203933 0.480884 0.861025
C14_15 C 0.3822(2) 0.5440(3) 0.6584(3)
C15_15 C 0.3718(2) 0.5427(3) 0.6301(3)
H7_15 H 0.384965 0.541806 0.614308
C16_15 C 0.3421(3) 0.5429(3) 0.6250(2)
C17_15 C 0.32280(19) 0.5442(3) 0.6481(2)
C18_15 C 0.3332(3) 0.5455(3) 0.6763(2)
H8_15 H 0.320020 0.546420 0.692112
C19_15 C 0.3629(3) 0.5454(3) 0.6815(2)
H9_15 H 0.370000 0.546197 0.700774
C20_15 C 0.3059(4) 0.5370(5) 0.5172(4)
C21_15 C 0.3044(3) 0.5381(3) 0.5499(2)
C22_15 C 0.2763(2) 0.5392(4) 0.5607(3)
H10_15 H 0.260214 0.537924 0.547852
C23_15 C 0.2716(2) 0.5421(3) 0.5903(3)
H11_15 H 0.252444 0.542814 0.597741
C24_15 C 0.2951(3) 0.5439(3) 0.6091(2)
C25_15 C 0.3232(2) 0.5428(3) 0.5983(3)
C26_15 C 0.3278(2) 0.5399(3) 0.5687(3)
H12_15 H 0.347038 0.539122 0.561258
C27_15 C 0.1675(5) 0.4792(4) 0.9050(4)
C28_15 C 0.4147(4) 0.5422(4) 0.6630(4)
C29_15 C 0.2237(3) 0.5378(3) 0.6958(3)
C30_15 C 0.2289(3) 0.5155(3) 0.6763(3)
H13_15 H 0.216472 0.499055 0.675873
C31_15 C 0.2522(3) 0.5172(3) 0.6573(3)
H14_15 H 0.255755 0.501938 0.643910
C32_15 C 0.2704(3) 0.5413(4) 0.6578(3)
C33_15 C 0.2652(3) 0.5636(3) 0.6774(3)
H15_15 H 0.277568 0.580026 0.677758
C34_15 C 0.2418(3) 0.5619(3) 0.6964(3)
H16_15 H 0.238285 0.577145 0.709722
C35_15 C 0.1653(4) 0.5139(5) 0.7664(4)
C36_15 C 0.1662(4) 0.5417(5) 0.7547(5)
H17_15 H 0.153390 0.556210 0.761655
C37_15 C 0.1859(5) 0.5481(4) 0.7328(5)
H18_15 H 0.186531 0.567111 0.724832
C38_15 C 0.2046(4) 0.5269(5) 0.7227(4)
C39_15 C 0.2037(4) 0.4991(4) 0.7344(5)
H19_15 H 0.216531 0.484571 0.727396
C40_15 C 0.1840(4) 0.4926(4) 0.7562(5)
H20_15 H 0.183390 0.473669 0.764220
O11_8 O 0.3523(4) 0.5169(3) 0.4233(3)
O12_8 O 0.3069(4) 0.5279(3) 0.4116(3)
O13_11 O 0.3453(4) 0.4838(4) 0.4753(4)
O14_11 O 0.2926(6) 0.4875(3) 0.4621(3)
H21_15 H 0.229608 0.540146 0.440141
H22_15 H 0.248219 0.550637 0.412226
H23_15 H 0.414104 0.536142 0.482433
H24_15 H 0.414417 0.513312 0.455706
O1_16 O 0.1661(4) 0.4657(4) 0.0132(3)
O5_8 O 0.4838(4) 0.4753(4) 0.3453(4)
O6_8 O 0.4875(3) 0.4621(3) 0.2926(6)
N1_16 N 0.3568(5) 0.4888(4) 0.2890(3)
N2_16 N 0.2055(3) 0.4544(4) 0.1425(4)
C1_16 C 0.4750(3) 0.4731(6) 0.3179(6)
C2_16 C 0.44228(19) 0.4737(3) 0.3058(3)
C3_16 C 0.4230(3) 0.4859(2) 0.3255(3)
H1_16 H 0.429664 0.491779 0.344088
C4_16 C 0.3940(2) 0.4894(3) 0.3181(3)
C5_16 C 0.3843(2) 0.4807(3) 0.2909(3)
C6_16 C 0.4036(3) 0.4686(3) 0.2712(3)
H2_16 H 0.396939 0.462644 0.252585
C7_16 C 0.4326(3) 0.4650(3) 0.2786(3)
H3_16 H 0.445725 0.456709 0.265147
C8_16 C 0.3378(4) 0.5119(3) 0.3735(2)
C9_16 C 0.3651(3) 0.5039(3) 0.3636(3)
H4_16 H 0.380941 0.502706 0.376729
C10_16 C 0.3693(2) 0.4975(3) 0.3344(3)
C11_16 C 0.3462(3) 0.4991(3) 0.3152(2)
C12_16 C 0.3189(3) 0.5072(3) 0.3251(3)
H5_16 H 0.303066 0.508352 0.311951
C13_16 C 0.3147(3) 0.5136(3) 0.3543(3)
H6_16 H 0.296067 0.519116 0.361025
C14_16 C 0.1178(2) 0.4560(3) 0.1584(3)
C15_16 C 0.1282(2) 0.4573(3) 0.1301(3)
H7_16 H 0.115035 0.458194 0.114308
C16_16 C 0.1579(3) 0.4571(3) 0.1250(2)
C17_16 C 0.17720(19) 0.4558(3) 0.1481(2)
C18_16 C 0.1668(3) 0.4545(3) 0.1763(2)
H8_16 H 0.179980 0.453580 0.192112
C19_16 C 0.1371(3) 0.4546(3) 0.1815(2)
H9_16 H 0.130000 0.453803 0.200774
C20_16 C 0.1941(4) 0.4630(5) 0.0172(4)
C21_16 C 0.1956(3) 0.4619(3) 0.0499(2)
C22_16 C 0.2237(2) 0.4608(4) 0.0607(3)
H10_16 H 0.239786 0.462076 0.047852
C23_16 C 0.2284(2) 0.4579(3) 0.0903(3)
H11_16 H 0.247556 0.457186 0.097741
C24_16 C 0.2049(3) 0.4561(3) 0.1091(2)
C25_16 C 0.1768(2) 0.4572(3) 0.0983(3)
C26_16 C 0.1722(2) 0.4601(3) 0.0687(3)
H12_16 H 0.152962 0.460878 0.061258
C27_16 C 0.3325(5) 0.5208(4) 0.4050(4)
C28_16 C 0.0853(4) 0.4578(4) 0.1630(4)
C29_16 C 0.2763(3) 0.4622(3) 0.1958(3)
C30_16 C 0.2711(3) 0.4845(3) 0.1763(3)
H13_16 H 0.283528 0.500945 0.175873
C31_16 C 0.2478(3) 0.4828(3) 0.1573(3)
H14_16 H 0.244245 0.498062 0.143910
C32_16 C 0.2296(3) 0.4587(4) 0.1578(3)
C33_16 C 0.2348(3) 0.4364(3) 0.1774(3)
H15_16 H 0.222432 0.419974 0.177758
C34_16 C 0.2582(3) 0.4381(3) 0.1964(3)
H16_16 H 0.261715 0.422855 0.209722
C35_16 C 0.3347(4) 0.4861(5) 0.2664(4)
C36_16 C 0.3338(4) 0.4583(5) 0.2547(5)
H17_16 H 0.346610 0.443790 0.261655
C37_16 C 0.3141(5) 0.4519(4) 0.2328(5)
H18_16 H 0.313469 0.432889 0.224832
C38_16 C 0.2954(4) 0.4731(5) 0.2227(4)
C39_16 C 0.2963(4) 0.5009(4) 0.2344(5)
H19_16 H 0.283469 0.515429 0.227396
C40_16 C 0.3160(4) 0.5074(4) 0.2562(5)
H20_16 H 0.316610 0.526331 0.264220
O2_16 O 0.2135(3) 0.4618(4) 0.9961(6)
O9_16 O 0.2538(5) 0.4478(9) 0.9336(11)
O10_16 O 0.0944(5) 0.4821(7) 0.9748(7)
O13_12 O 0.1547(4) 0.5162(4) 0.9753(4)
O14_12 O 0.2074(6) 0.5125(3) 0.9621(3)
H21_16 H 0.270392 0.459854 0.940141
H22_16 H 0.251781 0.449363 0.912226
H23_16 H 0.0858956 0.463858 0.982433
H24_16 H 0.0855828 0.486688 0.955706
O2_17 O 0.0039(6) 0.7135(3) 0.0382(4)
O9_17 O 0.0664(11) 0.7538(5) 0.0522(9)
O10_17 O 0.0252(7) 0.5944(5) 0.0179(7)
O11_9 O 0.0767(3) 0.6477(4) 0.0169(3)
O12_9 O 0.0884(3) 0.6931(4) 0.0279(3)
H21_17 H 0.0598593 0.770392 0.0401458
H22_17 H 0.0877742 0.751781 0.0506375
H23_17 H 0.0175666 0.585896 0.0361423
H24_17 H 0.0442941 0.585583 0.0133123
O13_13 O 0.0247(4) 0.6547(4) 0.9838(4)
O14_13 O 0.0379(3) 0.7074(6) 0.9875(3)
O1_17 O 0.9868(3) 0.6661(4) 0.0343(4)
N1_17 N 0.7110(3) 0.8568(5) 0.0112(4)
N2_17 N 0.8575(4) 0.7055(3) 0.0456(4)
C1_17 C 0.6821(6) 0.9750(3) 0.0269(6)
C2_17 C 0.6942(3) 0.94228(19) 0.0263(3)
C3_17 C 0.6745(3) 0.9230(3) 0.0141(2)
H1_17 H 0.655912 0.929664 0.008221
C4_17 C 0.6819(3) 0.8940(2) 0.0106(3)
C5_17 C 0.7091(3) 0.8843(2) 0.0193(3)
C6_17 C 0.7288(3) 0.9036(3) 0.0314(3)
H2_17 H 0.747415 0.896939 0.037356
C7_17 C 0.7214(3) 0.9326(3) 0.0350(3)
H3_17 H 0.734853 0.945725 0.043291
C10_17 C 0.6656(3) 0.8693(2) 0.0025(3)
C11_17 C 0.6848(2) 0.8462(3) 0.0009(3)
C14_17 C 0.8416(3) 0.6178(2) 0.0440(3)
C15_17 C 0.8699(3) 0.6282(2) 0.0427(3)
H7_17 H 0.885692 0.615035 0.041806
C16_17 C 0.8750(2) 0.6579(3) 0.0429(3)
C17_17 C 0.8519(2) 0.67720(19) 0.0442(3)
C18_17 C 0.8237(2) 0.6668(3) 0.0455(3)
H8_17 H 0.807888 0.679980 0.046420
C19_17 C 0.8185(2) 0.6371(3) 0.0454(3)
H9_17 H 0.799226 0.630000 0.046197
C20_17 C 0.9828(4) 0.6941(4) 0.0370(5)
C21_17 C 0.9501(2) 0.6956(3) 0.0381(3)
C22_17 C 0.9393(3) 0.7237(2) 0.0392(4)
H10_17 H 0.952148 0.739786 0.037924
C23_17 C 0.9097(3) 0.7284(2) 0.0421(3)
H11_17 H 0.902259 0.747556 0.042814
C24_17 C 0.8909(2) 0.7049(3) 0.0439(3)
C25_17 C 0.9017(3) 0.6768(2) 0.0428(3)
C26_17 C 0.9313(3) 0.6722(2) 0.0399(3)
H12_17 H 0.938742 0.652962 0.039122
C28_17 C 0.8370(4) 0.5853(4) 0.0422(4)
C29_17 C 0.8042(3) 0.7763(3) 0.0378(3)
C30_17 C 0.8237(3) 0.7711(3) 0.0155(3)
C31_17 C 0.8427(3) 0.7478(3) 0.0172(3)
H14_17 H 0.856090 0.744245 0.001938
C32_17 C 0.8422(3) 0.7296(3) 0.0413(4)
C33_17 C 0.8226(3) 0.7348(3) 0.0636(3)
H15_17 H 0.822242 0.722432 0.080026
C34_17 C 0.8036(3) 0.7582(3) 0.0619(3)
H16_17 H 0.790278 0.761715 0.077145
C35_17 C 0.7336(4) 0.8347(4) 0.0139(5)
C36_17 C 0.7453(5) 0.8338(4) 0.0417(5)
H17_17 H 0.738345 0.846610 0.056210
C37_17 C 0.7672(5) 0.8141(5) 0.0481(4)
H18_17 H 0.775168 0.813469 0.067111
C38_17 C 0.7773(4) 0.7954(4) 0.0269(5)
O3_9 O 0.5767(3) 0.8523(4) 0.9831(3)
O4_9 O 0.5884(3) 0.8069(4) 0.9721(3)
C8_17 C 0.6265(2) 0.8378(4) 0.9881(3)
C9_17 C 0.6364(3) 0.8651(3) 0.9961(3)
H4_17 H 0.623271 0.880941 0.997294
C12_17 C 0.6749(3) 0.8189(3) 0.9928(3)
H5_17 H 0.688049 0.803066 0.991648
C13_17 C 0.6457(3) 0.8147(3) 0.9864(3)
H6_17 H 0.638975 0.796067 0.980884
C27_17 C 0.5950(4) 0.8325(5) 0.9792(4)
H13_17 H 0.824127 0.783528 0.999055
C39_17 C 0.7656(5) 0.7963(4) 0.9991(4)
H19_17 H 0.772604 0.783469 0.984571
C40_17 C 0.7438(5) 0.8160(4) 0.9926(4)
H20_17 H 0.735780 0.816610 0.973669
C8_18 C 0.1265(2) 0.6622(4) 0.0119(3)
C9_18 C 0.1364(3) 0.6349(3) 0.0039(3)
H4_18 H 0.123271 0.619059 0.002706
C12_18 C 0.1749(3) 0.6811(3) 0.0072(3)
H5_18 H 0.188049 0.696934 0.008352
C13_18 C 0.1457(3) 0.6853(3) 0.0136(3)
H6_18 H 0.138975 0.703933 0.019116
C27_18 C 0.0950(4) 0.6675(5) 0.0208(4)
H13_18 H 0.324127 0.716472 0.000945
C39_18 C 0.2656(5) 0.7037(4) 0.0009(4)
H19_18 H 0.272604 0.716531 0.015429
C40_18 C 0.2438(5) 0.6840(4) 0.0074(4)
H20_18 H 0.235780 0.683390 0.026331
O13_14 O 0.5247(4) 0.8453(4) 0.0162(4)
O14_14 O 0.5379(3) 0.7926(6) 0.0125(3)
O1_18 O 0.4868(3) 0.8339(4) 0.9657(4)
O2_18 O 0.5039(6) 0.7865(3) 0.9618(4)
O9_18 O 0.5664(11) 0.7462(5) 0.9478(9)
O10_18 O 0.5252(7) 0.9056(5) 0.9821(7)
N1_18 N 0.2110(3) 0.6432(5) 0.9888(4)
N2_18 N 0.3575(4) 0.7945(3) 0.9544(4)
C1_18 C 0.1821(6) 0.5250(3) 0.9731(6)
C2_18 C 0.1942(3) 0.55772(19) 0.9737(3)
C3_18 C 0.1745(3) 0.5770(3) 0.9859(2)
H1_18 H 0.155912 0.570336 0.991779
C4_18 C 0.1819(3) 0.6060(2) 0.9894(3)
C5_18 C 0.2091(3) 0.6157(2) 0.9807(3)
C6_18 C 0.2288(3) 0.5964(3) 0.9686(3)
H2_18 H 0.247415 0.603061 0.962644
C7_18 C 0.2214(3) 0.5674(3) 0.9650(3)
H3_18 H 0.234853 0.554275 0.956709
C10_18 C 0.1656(3) 0.6307(2) 0.9975(3)
C11_18 C 0.1848(2) 0.6538(3) 0.9991(3)
C14_18 C 0.3416(3) 0.8822(2) 0.9560(3)
C15_18 C 0.3699(3) 0.8718(2) 0.9573(3)
H7_18 H 0.385692 0.884965 0.958194
C16_18 C 0.3750(2) 0.8421(3) 0.9571(3)
C17_18 C 0.3519(2) 0.82280(19) 0.9558(3)
C18_18 C 0.3237(2) 0.8332(3) 0.9545(3)
H8_18 H 0.307888 0.820020 0.953580
C19_18 C 0.3185(2) 0.8629(3) 0.9546(3)
H9_18 H 0.299226 0.870000 0.953803
C20_18 C 0.4828(4) 0.8059(4) 0.9630(5)
C21_18 C 0.4501(2) 0.8044(3) 0.9619(3)
C22_18 C 0.4393(3) 0.7763(2) 0.9608(4)
H10_18 H 0.452148 0.760214 0.962076
C23_18 C 0.4097(3) 0.7716(2) 0.9579(3)
H11_18 H 0.402259 0.752444 0.957186
C24_18 C 0.3909(2) 0.7951(3) 0.9561(3)
C25_18 C 0.4017(3) 0.8232(2) 0.9572(3)
C26_18 C 0.4313(3) 0.8278(2) 0.9601(3)
H12_18 H 0.438742 0.847038 0.960878
C28_18 C 0.3370(4) 0.9147(4) 0.9578(4)
C29_18 C 0.3042(3) 0.7237(3) 0.9622(3)
C30_18 C 0.3237(3) 0.7289(3) 0.9845(3)
C31_18 C 0.3427(3) 0.7522(3) 0.9828(3)
H14_18 H 0.356090 0.755755 0.998062
C32_18 C 0.3422(3) 0.7704(3) 0.9587(4)
C33_18 C 0.3226(3) 0.7652(3) 0.9364(3)
H15_18 H 0.322242 0.777568 0.919974
C34_18 C 0.3036(3) 0.7418(3) 0.9381(3)
H16_18 H 0.290278 0.738285 0.922855
C35_18 C 0.2336(4) 0.6653(4) 0.9861(5)
C36_18 C 0.2453(5) 0.6662(4) 0.9583(5)
H17_18 H 0.238345 0.653390 0.943790
C37_18 C 0.2672(5) 0.6859(5) 0.9519(4)
H18_18 H 0.275168 0.686531 0.932889
C38_18 C 0.2773(4) 0.7046(4) 0.9731(5)
H21_18 H 0.559859 0.729608 0.959854
H22_18 H 0.587774 0.748219 0.949363
H23_18 H 0.517567 0.914104 0.963858
H24_18 H 0.544294 0.914417 0.986688
O1_19 O 0.5132(3) 0.3339(4) 0.5343(4)
O2_19 O 0.4961(6) 0.2865(3) 0.5382(4)
O3_10 O 0.9233(3) 0.1477(4) 0.4831(3)
O4_10 O 0.9116(3) 0.1931(4) 0.4721(3)
O9_19 O 0.4336(11) 0.2462(5) 0.5522(9)
O10_19 O 0.4748(7) 0.4056(5) 0.5179(7)
N1_19 N 0.7890(3) 0.1432(5) 0.5112(4)
N2_19 N 0.6425(4) 0.2945(3) 0.5456(4)
C1_19 C 0.8179(6) 0.0250(3) 0.5269(6)
C2_19 C 0.8058(3) 0.05772(19) 0.5263(3)
C3_19 C 0.8255(3) 0.0770(3) 0.5141(2)
H1_19 H 0.844088 0.070336 0.508221
C4_19 C 0.8181(3) 0.1060(2) 0.5106(3)
C5_19 C 0.7909(3) 0.1157(2) 0.5193(3)
C6_19 C 0.7712(3) 0.0964(3) 0.5314(3)
H2_19 H 0.752585 0.103061 0.537356
C7_19 C 0.7786(3) 0.0674(3) 0.5350(3)
H3_19 H 0.765147 0.054275 0.543291
C8_19 C 0.8735(2) 0.1622(4) 0.4881(3)
C9_19 C 0.8636(3) 0.1349(3) 0.4961(3)
H4_19 H 0.876729 0.119059 0.497294
C10_19 C 0.8344(3) 0.1307(2) 0.5025(3)
C11_19 C 0.8152(2) 0.1538(3) 0.5009(3)
C12_19 C 0.8251(3) 0.1811(3) 0.4928(3)
H5_19 H 0.811951 0.196934 0.491648
C13_19 C 0.8543(3) 0.1853(3) 0.4864(3)
H6_19 H 0.861025 0.203933 0.480884
C14_19 C 0.6584(3) 0.3822(2) 0.5440(3)
C15_19 C 0.6301(3) 0.3718(2) 0.5427(3)
H7_19 H 0.614308 0.384965 0.541806
C16_19 C 0.6250(2) 0.3421(3) 0.5429(3)
C17_19 C 0.6481(2) 0.32280(19) 0.5442(3)
C18_19 C 0.6763(2) 0.3332(3) 0.5455(3)
H8_19 H 0.692112 0.320020 0.546420
C19_19 C 0.6815(2) 0.3629(3) 0.5454(3)
H9_19 H 0.700774 0.370000 0.546197
C20_19 C 0.5172(4) 0.3059(4) 0.5370(5)
C21_19 C 0.5499(2) 0.3044(3) 0.5381(3)
C22_19 C 0.5607(3) 0.2763(2) 0.5392(4)
H10_19 H 0.547852 0.260214 0.537924
C23_19 C 0.5903(3) 0.2716(2) 0.5421(3)
H11_19 H 0.597741 0.252444 0.542814
C24_19 C 0.6091(2) 0.2951(3) 0.5439(3)
C25_19 C 0.5983(3) 0.3232(2) 0.5428(3)
C26_19 C 0.5687(3) 0.3278(2) 0.5399(3)
H12_19 H 0.561258 0.347038 0.539122
C27_19 C 0.9050(4) 0.1675(5) 0.4792(4)
C28_19 C 0.6630(4) 0.4147(4) 0.5422(4)
C29_19 C 0.6958(3) 0.2237(3) 0.5378(3)
C30_19 C 0.6763(3) 0.2289(3) 0.5155(3)
H13_19 H 0.675873 0.216472 0.499055
C31_19 C 0.6573(3) 0.2522(3) 0.5172(3)
H14_19 H 0.643910 0.255755 0.501938
C32_19 C 0.6578(3) 0.2704(3) 0.5413(4)
C33_19 C 0.6774(3) 0.2652(3) 0.5636(3)
H15_19 H 0.677758 0.277568 0.580026
C34_19 C 0.6964(3) 0.2418(3) 0.5619(3)
H16_19 H 0.709722 0.238285 0.577145
C35_19 C 0.7664(4) 0.1653(4) 0.5139(5)
C36_19 C 0.7547(5) 0.1662(4) 0.5417(5)
H17_19 H 0.761655 0.153390 0.556210
C37_19 C 0.7328(5) 0.1859(5) 0.5481(4)
H18_19 H 0.724832 0.186531 0.567111
C38_19 C 0.7227(4) 0.2046(4) 0.5269(5)
C39_19 C 0.7344(5) 0.2037(4) 0.4991(4)
H19_19 H 0.727396 0.216531 0.484571
C40_19 C 0.7562(5) 0.1840(4) 0.4926(4)
H20_19 H 0.764220 0.183390 0.473669
O11_10 O 0.4233(3) 0.3523(4) 0.5169(3)
O12_10 O 0.4116(3) 0.3069(4) 0.5279(3)
O13_15 O 0.4753(4) 0.3453(4) 0.4838(4)
O14_15 O 0.4621(3) 0.2926(6) 0.4875(3)
H21_19 H 0.440141 0.229608 0.540146
H22_19 H 0.412226 0.248219 0.550637
H23_19 H 0.482433 0.414104 0.536142
H24_19 H 0.455706 0.414417 0.513312
O1_20 O 0.0132(3) 0.1661(4) 0.4657(4)
N1_20 N 0.2890(3) 0.3568(5) 0.4888(4)
N2_20 N 0.1425(4) 0.2055(3) 0.4544(4)
C1_20 C 0.3179(6) 0.4750(3) 0.4731(6)
C2_20 C 0.3058(3) 0.44228(19) 0.4737(3)
C3_20 C 0.3255(3) 0.4230(3) 0.4859(2)
H1_20 H 0.344088 0.429664 0.491779
C4_20 C 0.3181(3) 0.3940(2) 0.4894(3)
C5_20 C 0.2909(3) 0.3843(2) 0.4807(3)
C6_20 C 0.2712(3) 0.4036(3) 0.4686(3)
H2_20 H 0.252585 0.396939 0.462644
C7_20 C 0.2786(3) 0.4326(3) 0.4650(3)
H3_20 H 0.265147 0.445725 0.456709
C8_20 C 0.3735(2) 0.3378(4) 0.5119(3)
C9_20 C 0.3636(3) 0.3651(3) 0.5039(3)
H4_20 H 0.376729 0.380941 0.502706
C10_20 C 0.3344(3) 0.3693(2) 0.4975(3)
C11_20 C 0.3152(2) 0.3462(3) 0.4991(3)
C12_20 C 0.3251(3) 0.3189(3) 0.5072(3)
H5_20 H 0.311951 0.303066 0.508352
C13_20 C 0.3543(3) 0.3147(3) 0.5136(3)
H6_20 H 0.361025 0.296067 0.519116
C14_20 C 0.1584(3) 0.1178(2) 0.4560(3)
C15_20 C 0.1301(3) 0.1282(2) 0.4573(3)
H7_20 H 0.114308 0.115035 0.458194
C16_20 C 0.1250(2) 0.1579(3) 0.4571(3)
C17_20 C 0.1481(2) 0.17720(19) 0.4558(3)
C18_20 C 0.1763(2) 0.1668(3) 0.4545(3)
H8_20 H 0.192112 0.179980 0.453580
C19_20 C 0.1815(2) 0.1371(3) 0.4546(3)
H9_20 H 0.200774 0.130000 0.453803
C20_20 C 0.0172(4) 0.1941(4) 0.4630(5)
C21_20 C 0.0499(2) 0.1956(3) 0.4619(3)
C22_20 C 0.0607(3) 0.2237(2) 0.4608(4)
H10_20 H 0.047852 0.239786 0.462076
C23_20 C 0.0903(3) 0.2284(2) 0.4579(3)
H11_20 H 0.097741 0.247556 0.457186
C24_20 C 0.1091(2) 0.2049(3) 0.4561(3)
C25_20 C 0.0983(3) 0.1768(2) 0.4572(3)
C26_20 C 0.0687(3) 0.1722(2) 0.4601(3)
H12_20 H 0.061258 0.152962 0.460878
C27_20 C 0.4050(4) 0.3325(5) 0.5208(4)
C28_20 C 0.1630(4) 0.0853(4) 0.4578(4)
C29_20 C 0.1958(3) 0.2763(3) 0.4622(3)
C30_20 C 0.1763(3) 0.2711(3) 0.4845(3)
H13_20 H 0.175873 0.283528 0.500945
C31_20 C 0.1573(3) 0.2478(3) 0.4828(3)
H14_20 H 0.143910 0.244245 0.498062
C32_20 C 0.1578(3) 0.2296(3) 0.4587(4)
C33_20 C 0.1774(3) 0.2348(3) 0.4364(3)
H15_20 H 0.177758 0.222432 0.419974
C34_20 C 0.1964(3) 0.2582(3) 0.4381(3)
H16_20 H 0.209722 0.261715 0.422855
C35_20 C 0.2664(4) 0.3347(4) 0.4861(5)
C36_20 C 0.2547(5) 0.3338(4) 0.4583(5)
H17_20 H 0.261655 0.346610 0.443790
C37_20 C 0.2328(5) 0.3141(5) 0.4519(4)
H18_20 H 0.224832 0.313469 0.432889
C38_20 C 0.2227(4) 0.2954(4) 0.4731(5)
C39_20 C 0.2344(5) 0.2963(4) 0.5009(4)
H19_20 H 0.227396 0.283469 0.515429
C40_20 C 0.2562(5) 0.3160(4) 0.5074(4)
H20_20 H 0.264220 0.316610 0.526331
O2_20 O 0.9961(6) 0.2135(3) 0.4618(4)
O9_20 O 0.9336(11) 0.2538(5) 0.4478(9)
O10_20 O 0.9748(7) 0.0944(5) 0.4821(7)
O13_16 O 0.9753(4) 0.1547(4) 0.5162(4)
O14_16 O 0.9621(3) 0.2074(6) 0.5125(3)
H21_20 H 0.940141 0.270392 0.459854
H22_20 H 0.912226 0.251781 0.449363
H23_20 H 0.982433 0.0858956 0.463858
H24_20 H 0.955706 0.0855828 0.486688
O2_21 O 0.0382(4) 0.0039(6) 0.7135(3)
O9_21 O 0.0522(9) 0.0664(11) 0.7538(5)
O10_21 O 0.0179(7) 0.0252(7) 0.5944(5)
O11_11 O 0.0169(3) 0.0767(3) 0.6477(4)
O12_11 O 0.0279(3) 0.0884(3) 0.6931(4)
H21_21 H 0.0401458 0.0598593 0.770392
H22_21 H 0.0506375 0.0877742 0.751781
H23_21 H 0.0361423 0.0175666 0.585896
H24_21 H 0.0133123 0.0442941 0.585583
O1_21 O 0.0343(4) 0.9868(3) 0.6661(4)
N1_21 N 0.0112(4) 0.7110(3) 0.8568(5)
N2_21 N 0.0456(4) 0.8575(4) 0.7055(3)
C1_21 C 0.0269(6) 0.6821(6) 0.9750(3)
C2_21 C 0.0263(3) 0.6942(3) 0.94228(19)
C3_21 C 0.0141(2) 0.6745(3) 0.9230(3)
H1_21 H 0.008221 0.655912 0.929664
C4_21 C 0.0106(3) 0.6819(3) 0.8940(2)
C5_21 C 0.0193(3) 0.7091(3) 0.8843(2)
C6_21 C 0.0314(3) 0.7288(3) 0.9036(3)
H2_21 H 0.037356 0.747415 0.896939
C7_21 C 0.0350(3) 0.7214(3) 0.9326(3)
H3_21 H 0.043291 0.734853 0.945725
C10_21 C 0.0025(3) 0.6656(3) 0.8693(2)
C11_21 C 0.0009(3) 0.6848(2) 0.8462(3)
C14_21 C 0.0440(3) 0.8416(3) 0.6178(2)
C15_21 C 0.0427(3) 0.8699(3) 0.6282(2)
H7_21 H 0.041806 0.885692 0.615035
C16_21 C 0.0429(3) 0.8750(2) 0.6579(3)
C17_21 C 0.0442(3) 0.8519(2) 0.67720(19)
C18_21 C 0.0455(3) 0.8237(2) 0.6668(3)
H8_21 H 0.046420 0.807888 0.679980
C19_21 C 0.0454(3) 0.8185(2) 0.6371(3)
H9_21 H 0.046197 0.799226 0.630000
C20_21 C 0.0370(5) 0.9828(4) 0.6941(4)
C21_21 C 0.0381(3) 0.9501(2) 0.6956(3)
C22_21 C 0.0392(4) 0.9393(3) 0.7237(2)
H10_21 H 0.037924 0.952148 0.739786
C23_21 C 0.0421(3) 0.9097(3) 0.7284(2)
H11_21 H 0.042814 0.902259 0.747556
C24_21 C 0.0439(3) 0.8909(2) 0.7049(3)
C25_21 C 0.0428(3) 0.9017(3) 0.6768(2)
C26_21 C 0.0399(3) 0.9313(3) 0.6722(2)
H12_21 H 0.039122 0.938742 0.652962
C28_21 C 0.0422(4) 0.8370(4) 0.5853(4)
C29_21 C 0.0378(3) 0.8042(3) 0.7763(3)
C30_21 C 0.0155(3) 0.8237(3) 0.7711(3)
C31_21 C 0.0172(3) 0.8427(3) 0.7478(3)
H14_21 H 0.001938 0.856090 0.744245
C32_21 C 0.0413(4) 0.8422(3) 0.7296(3)
C33_21 C 0.0636(3) 0.8226(3) 0.7348(3)
H15_21 H 0.080026 0.822242 0.722432
C34_21 C 0.0619(3) 0.8036(3) 0.7582(3)
H16_21 H 0.077145 0.790278 0.761715
C35_21 C 0.0139(5) 0.7336(4) 0.8347(4)
C36_21 C 0.0417(5) 0.7453(5) 0.8338(4)
H17_21 H 0.056210 0.738345 0.846610
C37_21 C 0.0481(4) 0.7672(5) 0.8141(5)
H18_21 H 0.067111 0.775168 0.813469
C38_21 C 0.0269(5) 0.7773(4) 0.7954(4)
O3_11 O 0.9831(3) 0.5767(3) 0.8523(4)
O4_11 O 0.9721(3) 0.5884(3) 0.8069(4)
C8_21 C 0.9881(3) 0.6265(2) 0.8378(4)
C9_21 C 0.9961(3) 0.6364(3) 0.8651(3)
H4_21 H 0.997294 0.623271 0.880941
C12_21 C 0.9928(3) 0.6749(3) 0.8189(3)
H5_21 H 0.991648 0.688049 0.803066
C13_21 C 0.9864(3) 0.6457(3) 0.8147(3)
H6_21 H 0.980884 0.638975 0.796067
C27_21 C 0.9792(4) 0.5950(4) 0.8325(5)
H13_21 H 0.999055 0.824127 0.783528
C39_21 C 0.9991(4) 0.7656(5) 0.7963(4)
H19_21 H 0.984571 0.772604 0.783469
C40_21 C 0.9926(4) 0.7438(5) 0.8160(4)
H20_21 H 0.973669 0.735780 0.816610
C8_22 C 0.0119(3) 0.1265(2) 0.6622(4)
C9_22 C 0.0039(3) 0.1364(3) 0.6349(3)
H4_22 H 0.002706 0.123271 0.619059
C12_22 C 0.0072(3) 0.1749(3) 0.6811(3)
H5_22 H 0.008352 0.188049 0.696934
C13_22 C 0.0136(3) 0.1457(3) 0.6853(3)
H6_22 H 0.019116 0.138975 0.703933
C27_22 C 0.0208(4) 0.0950(4) 0.6675(5)
H13_22 H 0.000945 0.324127 0.716472
C39_22 C 0.0009(4) 0.2656(5) 0.7037(4)
H19_22 H 0.015429 0.272604 0.716531
C40_22 C 0.0074(4) 0.2438(5) 0.6840(4)
H20_22 H 0.026331 0.235780 0.683390
O1_22 O 0.9657(4) 0.4868(3) 0.8339(4)
O2_22 O 0.9618(4) 0.5039(6) 0.7865(3)
O9_22 O 0.9478(9) 0.5664(11) 0.7462(5)
O10_22 O 0.9821(7) 0.5252(7) 0.9056(5)
N1_22 N 0.9888(4) 0.2110(3) 0.6432(5)
N2_22 N 0.9544(4) 0.3575(4) 0.7945(3)
C1_22 C 0.9731(6) 0.1821(6) 0.5250(3)
C2_22 C 0.9737(3) 0.1942(3) 0.55772(19)
C3_22 C 0.9859(2) 0.1745(3) 0.5770(3)
H1_22 H 0.991779 0.155912 0.570336
C4_22 C 0.9894(3) 0.1819(3) 0.6060(2)
C5_22 C 0.9807(3) 0.2091(3) 0.6157(2)
C6_22 C 0.9686(3) 0.2288(3) 0.5964(3)
H2_22 H 0.962644 0.247415 0.603061
C7_22 C 0.9650(3) 0.2214(3) 0.5674(3)
H3_22 H 0.956709 0.234853 0.554275
C10_22 C 0.9975(3) 0.1656(3) 0.6307(2)
C11_22 C 0.9991(3) 0.1848(2) 0.6538(3)
C14_22 C 0.9560(3) 0.3416(3) 0.8822(2)
C15_22 C 0.9573(3) 0.3699(3) 0.8718(2)
H7_22 H 0.958194 0.385692 0.884965
C16_22 C 0.9571(3) 0.3750(2) 0.8421(3)
C17_22 C 0.9558(3) 0.3519(2) 0.82280(19)
C18_22 C 0.9545(3) 0.3237(2) 0.8332(3)
H8_22 H 0.953580 0.307888 0.820020
C19_22 C 0.9546(3) 0.3185(2) 0.8629(3)
H9_22 H 0.953803 0.299226 0.870000
C20_22 C 0.9630(5) 0.4828(4) 0.8059(4)
C21_22 C 0.9619(3) 0.4501(2) 0.8044(3)
C22_22 C 0.9608(4) 0.4393(3) 0.7763(2)
H10_22 H 0.962076 0.452148 0.760214
C23_22 C 0.9579(3) 0.4097(3) 0.7716(2)
H11_22 H 0.957186 0.402259 0.752444
C24_22 C 0.9561(3) 0.3909(2) 0.7951(3)
C25_22 C 0.9572(3) 0.4017(3) 0.8232(2)
C26_22 C 0.9601(3) 0.4313(3) 0.8278(2)
H12_22 H 0.960878 0.438742 0.847038
C28_22 C 0.9578(4) 0.3370(4) 0.9147(4)
C29_22 C 0.9622(3) 0.3042(3) 0.7237(3)
C30_22 C 0.9845(3) 0.3237(3) 0.7289(3)
C31_22 C 0.9828(3) 0.3427(3) 0.7522(3)
H14_22 H 0.998062 0.356090 0.755755
C32_22 C 0.9587(4) 0.3422(3) 0.7704(3)
C33_22 C 0.9364(3) 0.3226(3) 0.7652(3)
H15_22 H 0.919974 0.322242 0.777568
C34_22 C 0.9381(3) 0.3036(3) 0.7418(3)
H16_22 H 0.922855 0.290278 0.738285
C35_22 C 0.9861(5) 0.2336(4) 0.6653(4)
C36_22 C 0.9583(5) 0.2453(5) 0.6662(4)
H17_22 H 0.943790 0.238345 0.653390
C37_22 C 0.9519(4) 0.2672(5) 0.6859(5)
H18_22 H 0.932889 0.275168 0.686531
C38_22 C 0.9731(5) 0.2773(4) 0.7046(4)
H21_22 H 0.959854 0.559859 0.729608
H22_22 H 0.949363 0.587774 0.748219
H23_22 H 0.963858 0.517567 0.914104
H24_22 H 0.986688 0.544294 0.914417
O1_23 O 0.5343(4) 0.5132(3) 0.3339(4)
O2_23 O 0.5382(4) 0.4961(6) 0.2865(3)
O3_12 O 0.4831(3) 0.9233(3) 0.1477(4)
O4_12 O 0.4721(3) 0.9116(3) 0.1931(4)
O9_23 O 0.5522(9) 0.4336(11) 0.2462(5)
O10_23 O 0.5179(7) 0.4748(7) 0.4056(5)
N1_23 N 0.5112(4) 0.7890(3) 0.1432(5)
N2_23 N 0.5456(4) 0.6425(4) 0.2945(3)
C1_23 C 0.5269(6) 0.8179(6) 0.0250(3)
C2_23 C 0.5263(3) 0.8058(3) 0.05772(19)
C3_23 C 0.5141(2) 0.8255(3) 0.0770(3)
H1_23 H 0.508221 0.844088 0.070336
C4_23 C 0.5106(3) 0.8181(3) 0.1060(2)
C5_23 C 0.5193(3) 0.7909(3) 0.1157(2)
C6_23 C 0.5314(3) 0.7712(3) 0.0964(3)
H2_23 H 0.537356 0.752585 0.103061
C7_23 C 0.5350(3) 0.7786(3) 0.0674(3)
H3_23 H 0.543291 0.765147 0.054275
C8_23 C 0.4881(3) 0.8735(2) 0.1622(4)
C9_23 C 0.4961(3) 0.8636(3) 0.1349(3)
H4_23 H 0.497294 0.876729 0.119059
C10_23 C 0.5025(3) 0.8344(3) 0.1307(2)
C11_23 C 0.5009(3) 0.8152(2) 0.1538(3)
C12_23 C 0.4928(3) 0.8251(3) 0.1811(3)
H5_23 H 0.491648 0.811951 0.196934
C13_23 C 0.4864(3) 0.8543(3) 0.1853(3)
H6_23 H 0.480884 0.861025 0.203933
C14_23 C 0.5440(3) 0.6584(3) 0.3822(2)
C15_23 C 0.5427(3) 0.6301(3) 0.3718(2)
H7_23 H 0.541806 0.614308 0.384965
C16_23 C 0.5429(3) 0.6250(2) 0.3421(3)
C17_23 C 0.5442(3) 0.6481(2) 0.32280(19)
C18_23 C 0.5455(3) 0.6763(2) 0.3332(3)
H8_23 H 0.546420 0.692112 0.320020
C19_23 C 0.5454(3) 0.6815(2) 0.3629(3)
H9_23 H 0.546197 0.700774 0.370000
C20_23 C 0.5370(5) 0.5172(4) 0.3059(4)
C21_23 C 0.5381(3) 0.5499(2) 0.3044(3)
C22_23 C 0.5392(4) 0.5607(3) 0.2763(2)
H10_23 H 0.537924 0.547852 0.260214
C23_23 C 0.5421(3) 0.5903(3) 0.2716(2)
H11_23 H 0.542814 0.597741 0.252444
C24_23 C 0.5439(3) 0.6091(2) 0.2951(3)
C25_23 C 0.5428(3) 0.5983(3) 0.3232(2)
C26_23 C 0.5399(3) 0.5687(3) 0.3278(2)
H12_23 H 0.539122 0.561258 0.347038
C27_23 C 0.4792(4) 0.9050(4) 0.1675(5)
C28_23 C 0.5422(4) 0.6630(4) 0.4147(4)
C29_23 C 0.5378(3) 0.6958(3) 0.2237(3)
C30_23 C 0.5155(3) 0.6763(3) 0.2289(3)
H13_23 H 0.499055 0.675873 0.216472
C31_23 C 0.5172(3) 0.6573(3) 0.2522(3)
H14_23 H 0.501938 0.643910 0.255755
C32_23 C 0.5413(4) 0.6578(3) 0.2704(3)
C33_23 C 0.5636(3) 0.6774(3) 0.2652(3)
H15_23 H 0.580026 0.677758 0.277568
C34_23 C 0.5619(3) 0.6964(3) 0.2418(3)
H16_23 H 0.577145 0.709722 0.238285
C35_23 C 0.5139(5) 0.7664(4) 0.1653(4)
C36_23 C 0.5417(5) 0.7547(5) 0.1662(4)
H17_23 H 0.556210 0.761655 0.153390
C37_23 C 0.5481(4) 0.7328(5) 0.1859(5)
H18_23 H 0.567111 0.724832 0.186531
C38_23 C 0.5269(5) 0.7227(4) 0.2046(4)
C39_23 C 0.4991(4) 0.7344(5) 0.2037(4)
H19_23 H 0.484571 0.727396 0.216531
C40_23 C 0.4926(4) 0.7562(5) 0.1840(4)
H20_23 H 0.473669 0.764220 0.183390
O11_12 O 0.5169(3) 0.4233(3) 0.3523(4)
O12_12 O 0.5279(3) 0.4116(3) 0.3069(4)
H21_23 H 0.540146 0.440141 0.229608
H22_23 H 0.550637 0.412226 0.248219
H23_23 H 0.536142 0.482433 0.414104
H24_23 H 0.513312 0.455706 0.414417
O1_24 O 0.4657(4) 0.0132(3) 0.1661(4)
N1_24 N 0.4888(4) 0.2890(3) 0.3568(5)
N2_24 N 0.4544(4) 0.1425(4) 0.2055(3)
C1_24 C 0.4731(6) 0.3179(6) 0.4750(3)
C2_24 C 0.4737(3) 0.3058(3) 0.44228(19)
C3_24 C 0.4859(2) 0.3255(3) 0.4230(3)
H1_24 H 0.491779 0.344088 0.429664
C4_24 C 0.4894(3) 0.3181(3) 0.3940(2)
C5_24 C 0.4807(3) 0.2909(3) 0.3843(2)
C6_24 C 0.4686(3) 0.2712(3) 0.4036(3)
H2_24 H 0.462644 0.252585 0.396939
C7_24 C 0.4650(3) 0.2786(3) 0.4326(3)
H3_24 H 0.456709 0.265147 0.445725
C8_24 C 0.5119(3) 0.3735(2) 0.3378(4)
C9_24 C 0.5039(3) 0.3636(3) 0.3651(3)
H4_24 H 0.502706 0.376729 0.380941
C10_24 C 0.4975(3) 0.3344(3) 0.3693(2)
C11_24 C 0.4991(3) 0.3152(2) 0.3462(3)
C12_24 C 0.5072(3) 0.3251(3) 0.3189(3)
H5_24 H 0.508352 0.311951 0.303066
C13_24 C 0.5136(3) 0.3543(3) 0.3147(3)
H6_24 H 0.519116 0.361025 0.296067
C14_24 C 0.4560(3) 0.1584(3) 0.1178(2)
C15_24 C 0.4573(3) 0.1301(3) 0.1282(2)
H7_24 H 0.458194 0.114308 0.115035
C16_24 C 0.4571(3) 0.1250(2) 0.1579(3)
C17_24 C 0.4558(3) 0.1481(2) 0.17720(19)
C18_24 C 0.4545(3) 0.1763(2) 0.1668(3)
H8_24 H 0.453580 0.192112 0.179980
C19_24 C 0.4546(3) 0.1815(2) 0.1371(3)
H9_24 H 0.453803 0.200774 0.130000
C20_24 C 0.4630(5) 0.0172(4) 0.1941(4)
C21_24 C 0.4619(3) 0.0499(2) 0.1956(3)
C22_24 C 0.4608(4) 0.0607(3) 0.2237(2)
H10_24 H 0.462076 0.047852 0.239786
C23_24 C 0.4579(3) 0.0903(3) 0.2284(2)
H11_24 H 0.457186 0.097741 0.247556
C24_24 C 0.4561(3) 0.1091(2) 0.2049(3)
C25_24 C 0.4572(3) 0.0983(3) 0.1768(2)
C26_24 C 0.4601(3) 0.0687(3) 0.1722(2)
H12_24 H 0.460878 0.061258 0.152962
C27_24 C 0.5208(4) 0.4050(4) 0.3325(5)
C28_24 C 0.4578(4) 0.1630(4) 0.0853(4)
C29_24 C 0.4622(3) 0.1958(3) 0.2763(3)
C30_24 C 0.4845(3) 0.1763(3) 0.2711(3)
H13_24 H 0.500945 0.175873 0.283528
C31_24 C 0.4828(3) 0.1573(3) 0.2478(3)
H14_24 H 0.498062 0.143910 0.244245
C32_24 C 0.4587(4) 0.1578(3) 0.2296(3)
C33_24 C 0.4364(3) 0.1774(3) 0.2348(3)
H15_24 H 0.419974 0.177758 0.222432
C34_24 C 0.4381(3) 0.1964(3) 0.2582(3)
H16_24 H 0.422855 0.209722 0.261715
C35_24 C 0.4861(5) 0.2664(4) 0.3347(4)
C36_24 C 0.4583(5) 0.2547(5) 0.3338(4)
H17_24 H 0.443790 0.261655 0.346610
C37_24 C 0.4519(4) 0.2328(5) 0.3141(5)
H18_24 H 0.432889 0.224832 0.313469
C38_24 C 0.4731(5) 0.2227(4) 0.2954(4)
C39_24 C 0.5009(4) 0.2344(5) 0.2963(4)
H19_24 H 0.515429 0.227396 0.283469
C40_24 C 0.5074(4) 0.2562(5) 0.3160(4)
H20_24 H 0.526331 0.264220 0.316610
O2_24 O 0.4618(4) 0.9961(6) 0.2135(3)
O9_24 O 0.4478(9) 0.9336(11) 0.2538(5)
O10_24 O 0.4821(7) 0.9748(7) 0.0944(5)
H21_24 H 0.459854 0.940141 0.270392
H22_24 H 0.449363 0.912226 0.251781
H23_24 H 0.463858 0.982433 0.0858956
H24_24 H 0.486688 0.955706 0.0855828
loop_
_geom_bond_atom_site_label_1
_geom_bond_atom_site_label_2
_geom_bond_site_symmetry_1
_geom_bond_site_symmetry_2
O3 C27 1_555 1_555
O4 C27 1_555 1_555
C8 C9 1_555 1_555
C9 H4 1_555 1_555
H5 C12 1_555 1_555
C13 C8 1_555 1_555
H6 C13 1_555 1_555
C27 C8 1_555 1_555
H19 C39 1_555 1_555
H20 C40 1_555 1_555
Cd3 O3 1_555 1_555
Cd6 O4 1_555 1_555
C12 C13 1_555 1_555
C39 C40 1_555 1_555
O1 C20 1_555 1_555
O5 C1 1_555 1_555
O6 C1 1_555 1_555
O7 C28 1_555 1_555
O8 C28 1_555 1_555
N1 C5 1_555 1_555
N2 C17 1_555 1_555
C1 C2 1_555 1_555
C2 C3 1_555 1_555
C3 H1 1_555 1_555
C4 C3 1_555 1_555
C5 C4 1_555 1_555
C6 C5 1_555 1_555
H2 C6 1_555 1_555
C7 C2 1_555 1_555
H3 C7 1_555 1_555
C10 C4 1_555 1_555
C11 N1 1_555 1_555
C14 C15 1_555 1_555
C15 H7 1_555 1_555
C16 C15 1_555 1_555
C17 C16 1_555 1_555
C18 C17 1_555 1_555
H8 C18 1_555 1_555
C19 C14 1_555 1_555
H9 C19 1_555 1_555
C20 C21 1_555 1_555
C21 C22 1_555 1_555
C22 H10 1_555 1_555
C23 C22 1_555 1_555
H11 C23 1_555 1_555
C24 N2 1_555 1_555
C25 C16 1_555 1_555
C26 C21 1_555 1_555
H12 C26 1_555 1_555
C28 C14 1_555 1_555
C29 C30 1_555 1_555
C31 C30 1_555 1_555
H14 C31 1_555 1_555
C32 N2 1_555 1_555
C33 C32 1_555 1_555
H15 C33 1_555 1_555
C34 C29 1_555 1_555
H16 C34 1_555 1_555
C35 N1 1_555 1_555
C36 C35 1_555 1_555
H17 C36 1_555 1_555
C37 C36 1_555 1_555
H18 C37 1_555 1_555
C38 C29 1_555 1_555
Cd5 O7 1_555 1_555
Cd8 O8 1_555 1_555
C6 C7 1_555 1_555
C10 C11 1_555 1_555
C18 C19 1_555 1_555
C23 C24 1_555 1_555
C24 C25 1_555 1_555
C25 C26 1_555 1_555
C31 C32 1_555 1_555
C33 C34 1_555 1_555
C37 C38 1_555 1_555
Cd2 O2 1_555 1_555
O9 Cd2 1_555 1_555
O10 Cd1 1_555 1_555
O11 Cd1 1_555 1_555
O12 Cd2 1_555 1_555
O15 Cd1 1_555 1_555
O16 Cd2 1_555 1_555
O9 H21 1_555 1_555
O9 H22 1_555 1_555
O10 H23 1_555 1_555
O10 H24 1_555 1_555
Cd3 O1_2 1_555 1_555
Cd6 O2_2 1_555 1_555
O1_2 C20_2 1_555 1_555
O2_2 C20_2 1_555 1_555
O5_2 C1_2 1_555 1_555
O6_2 C1_2 1_555 1_555
O7_2 C28_2 1_555 1_555
O8_2 C28_2 1_555 1_555
O9_2 Cd6 1_555 1_555
O10_2 Cd3 1_555 1_555
N1_2 C5_2 1_555 1_555
N2_2 C17_2 1_555 1_555
C1_2 C2_2 1_555 1_555
C2_2 C3_2 1_555 1_555
C3_2 H1_2 1_555 1_555
C4_2 C3_2 1_555 1_555
C5_2 C4_2 1_555 1_555
C6_2 C5_2 1_555 1_555
H2_2 C6_2 1_555 1_555
C7_2 C2_2 1_555 1_555
H3_2 C7_2 1_555 1_555
C10_2 C4_2 1_555 1_555
C11_2 N1_2 1_555 1_555
C14_2 C15_2 1_555 1_555
C15_2 H7_2 1_555 1_555
C16_2 C15_2 1_555 1_555
C17_2 C16_2 1_555 1_555
C18_2 C17_2 1_555 1_555
H8_2 C18_2 1_555 1_555
C19_2 C14_2 1_555 1_555
H9_2 C19_2 1_555 1_555
C20_2 C21_2 1_555 1_555
C21_2 C22_2 1_555 1_555
C22_2 H10_2 1_555 1_555
C23_2 C22_2 1_555 1_555
H11_2 C23_2 1_555 1_555
C24_2 N2_2 1_555 1_555
C25_2 C16_2 1_555 1_555
C26_2 C21_2 1_555 1_555
H12_2 C26_2 1_555 1_555
C28_2 C14_2 1_555 1_555
C29_2 C30_2 1_555 1_555
C31_2 C30_2 1_555 1_555
H14_2 C31_2 1_555 1_555
C32_2 N2_2 1_555 1_555
C33_2 C32_2 1_555 1_555
H15_2 C33_2 1_555 1_555
C34_2 C29_2 1_555 1_555
H16_2 C34_2 1_555 1_555
C35_2 N1_2 1_555 1_555
C36_2 C35_2 1_555 1_555
H17_2 C36_2 1_555 1_555
C37_2 C36_2 1_555 1_555
H18_2 C37_2 1_555 1_555
C38_2 C29_2 1_555 1_555
Cd4_2 O5_2 1_555 1_555
Cd5_2 O7_2 1_555 1_555
Cd7_2 O6_2 1_555 1_555
Cd8_2 O8_2 1_555 1_555
O15_2 Cd3 1_555 1_555
O16_2 Cd6 1_555 1_555
C6_2 C7_2 1_555 1_555
C10_2 C11_2 1_555 1_555
C18_2 C19_2 1_555 1_555
C23_2 C24_2 1_555 1_555
C24_2 C25_2 1_555 1_555
C25_2 C26_2 1_555 1_555
C31_2 C32_2 1_555 1_555
C33_2 C34_2 1_555 1_555
C37_2 C38_2 1_555 1_555
O9_2 H21_2 1_555 1_555
O9_2 H22_2 1_555 1_555
O10_2 H23_2 1_555 1_555
O10_2 H24_2 1_555 1_555
O11 C27_2 1_555 1_555
O12 C27_2 1_555 1_555
C8_2 C9_2 1_555 1_555
C9_2 H4_2 1_555 1_555
H5_2 C12_2 1_555 1_555
C13_2 C8_2 1_555 1_555
H6_2 C13_2 1_555 1_555
C27_2 C8_2 1_555 1_555
H19_2 C39_2 1_555 1_555
H20_2 C40_2 1_555 1_555
C12_2 C13_2 1_555 1_555
C39_2 C40_2 1_555 1_555
Cd1_2 O1_3 1_555 1_555
Cd2_2 O2_3 1_555 1_555
O1_3 C20_3 1_555 1_555
O2_3 C20_3 1_555 1_555
O3_2 C27_3 1_555 1_555
O4_2 C27_3 1_555 1_555
O5_3 C1_3 1_555 1_555
O6_3 C1_3 1_555 1_555
O7_3 C28_3 1_555 1_555
O8_3 C28_3 1_555 1_555
O9_3 Cd2_2 1_555 1_555
O10_3 Cd1_2 1_555 1_555
N1_3 C5_3 1_555 1_555
N2_3 C17_3 1_555 1_555
C1_3 C2_3 1_555 1_555
C2_3 C3_3 1_555 1_555
C3_3 H1_3 1_555 1_555
C4_3 C3_3 1_555 1_555
C5_3 C4_3 1_555 1_555
C6_3 C5_3 1_555 1_555
H2_3 C6_3 1_555 1_555
C7_3 C2_3 1_555 1_555
H3_3 C7_3 1_555 1_555
C8_3 C9_3 1_555 1_555
C9_3 H4_3 1_555 1_555
C10_3 C4_3 1_555 1_555
C11_3 N1_3 1_555 1_555
C12_3 C11_3 1_555 1_555
H5_3 C12_3 1_555 1_555
C13_3 C8_3 1_555 1_555
H6_3 C13_3 1_555 1_555
C14_3 C15_3 1_555 1_555
C15_3 H7_3 1_555 1_555
C16_3 C15_3 1_555 1_555
C17_3 C16_3 1_555 1_555
C18_3 C17_3 1_555 1_555
H8_3 C18_3 1_555 1_555
C19_3 C14_3 1_555 1_555
H9_3 C19_3 1_555 1_555
C20_3 C21_3 1_555 1_555
C21_3 C22_3 1_555 1_555
C22_3 H10_3 1_555 1_555
C23_3 C22_3 1_555 1_555
H11_3 C23_3 1_555 1_555
C24_3 N2_3 1_555 1_555
C25_3 C16_3 1_555 1_555
C26_3 C21_3 1_555 1_555
H12_3 C26_3 1_555 1_555
C27_3 C8_3 1_555 1_555
C28_3 C14_3 1_555 1_555
C29_3 C30_3 1_555 1_555
C30_3 H13_3 1_555 1_555
C31_3 C30_3 1_555 1_555
H14_3 C31_3 1_555 1_555
C32_3 N2_3 1_555 1_555
C33_3 C32_3 1_555 1_555
H15_3 C33_3 1_555 1_555
C34_3 C29_3 1_555 1_555
H16_3 C34_3 1_555 1_555
C35_3 N1_3 1_555 1_555
C36_3 C35_3 1_555 1_555
H17_3 C36_3 1_555 1_555
C37_3 C36_3 1_555 1_555
H18_3 C37_3 1_555 1_555
C38_3 C29_3 1_555 1_555
C39_3 C38_3 1_555 1_555
H19_3 C39_3 1_555 1_555
C40_3 C35_3 1_555 1_555
H20_3 C40_3 1_555 1_555
Cd3_2 O3_2 1_555 1_555
Cd5_3 O7_3 1_555 1_555
Cd6_2 O4_2 1_555 1_555
Cd8_3 O8_3 1_555 1_555
O11_2 Cd1_2 1_555 1_555
O12_2 Cd2_2 1_555 1_555
O13_3 Cd1_2 1_555 1_555
O14_3 Cd2_2 1_555 1_555
O15_3 Cd1_2 1_555 1_555
O16_3 Cd2_2 1_555 1_555
C6_3 C7_3 1_555 1_555
C9_3 C10_3 1_555 1_555
C10_3 C11_3 1_555 1_555
C12_3 C13_3 1_555 1_555
C18_3 C19_3 1_555 1_555
C23_3 C24_3 1_555 1_555
C24_3 C25_3 1_555 1_555
C25_3 C26_3 1_555 1_555
C31_3 C32_3 1_555 1_555
C33_3 C34_3 1_555 1_555
C37_3 C38_3 1_555 1_555
C39_3 C40_3 1_555 1_555
O9_3 H21_3 1_555 1_555
O9_3 H22_3 1_555 1_555
O10_3 H23_3 1_555 1_555
O10_3 H24_3 1_555 1_555
Cd6_2 O2_4 1_555 1_555
O9_4 Cd6_2 1_555 1_555
O10_4 Cd3_2 1_555 1_555
O13_4 Cd3_2 1_555 1_555
O14_4 Cd6_2 1_555 1_555
O15_4 Cd3_2 1_555 1_555
O16_4 Cd6_2 1_555 1_555
O9_4 H21_4 1_555 1_555
O9_4 H22_4 1_555 1_555
O10_4 H23_4 1_555 1_555
O10_4 H24_4 1_555 1_555
O1_4 C20_4 1_555 1_555
O11_2 C27_4 1_555 1_555
O12_2 C27_4 1_555 1_555
O5_4 C1_4 1_555 1_555
O6_4 C1_4 1_555 1_555
O7_4 C28_4 1_555 1_555
O8_4 C28_4 1_555 1_555
N1_4 C5_4 1_555 1_555
N2_4 C17_4 1_555 1_555
C1_4 C2_4 1_555 1_555
C2_4 C3_4 1_555 1_555
C3_4 H1_4 1_555 1_555
C4_4 C3_4 1_555 1_555
C5_4 C4_4 1_555 1_555
C6_4 C5_4 1_555 1_555
H2_4 C6_4 1_555 1_555
C7_4 C2_4 1_555 1_555
H3_4 C7_4 1_555 1_555
C8_4 C9_4 1_555 1_555
C9_4 H4_4 1_555 1_555
C10_4 C4_4 1_555 1_555
C11_4 N1_4 1_555 1_555
C12_4 C11_4 1_555 1_555
H5_4 C12_4 1_555 1_555
C13_4 C8_4 1_555 1_555
H6_4 C13_4 1_555 1_555
C14_4 C15_4 1_555 1_555
C15_4 H7_4 1_555 1_555
C16_4 C15_4 1_555 1_555
C17_4 C16_4 1_555 1_555
C18_4 C17_4 1_555 1_555
H8_4 C18_4 1_555 1_555
C19_4 C14_4 1_555 1_555
H9_4 C19_4 1_555 1_555
C20_4 C21_4 1_555 1_555
C21_4 C22_4 1_555 1_555
C22_4 H10_4 1_555 1_555
C23_4 C22_4 1_555 1_555
H11_4 C23_4 1_555 1_555
C24_4 N2_4 1_555 1_555
C25_4 C16_4 1_555 1_555
C26_4 C21_4 1_555 1_555
H12_4 C26_4 1_555 1_555
C27_4 C8_4 1_555 1_555
C28_4 C14_4 1_555 1_555
C29_4 C30_4 1_555 1_555
C30_4 H13_4 1_555 1_555
C31_4 C30_4 1_555 1_555
H14_4 C31_4 1_555 1_555
C32_4 N2_4 1_555 1_555
C33_4 C32_4 1_555 1_555
H15_4 C33_4 1_555 1_555
C34_4 C29_4 1_555 1_555
H16_4 C34_4 1_555 1_555
C35_4 N1_4 1_555 1_555
C36_4 C35_4 1_555 1_555
H17_4 C36_4 1_555 1_555
C37_4 C36_4 1_555 1_555
H18_4 C37_4 1_555 1_555
C38_4 C29_4 1_555 1_555
C39_4 C38_4 1_555 1_555
H19_4 C39_4 1_555 1_555
C40_4 C35_4 1_555 1_555
H20_4 C40_4 1_555 1_555
Cd4_4 O5_4 1_555 1_555
Cd5_4 O7_4 1_555 1_555
Cd7_4 O6_4 1_555 1_555
Cd8_4 O8_4 1_555 1_555
C6_4 C7_4 1_555 1_555
C9_4 C10_4 1_555 1_555
C10_4 C11_4 1_555 1_555
C12_4 C13_4 1_555 1_555
C18_4 C19_4 1_555 1_555
C23_4 C24_4 1_555 1_555
C24_4 C25_4 1_555 1_555
C25_4 C26_4 1_555 1_555
C31_4 C32_4 1_555 1_555
C33_4 C34_4 1_555 1_555
C37_4 C38_4 1_555 1_555
C39_4 C40_4 1_555 1_555
O3_3 C27_5 1_555 1_555
O4_3 C27_5 1_555 1_555
C8_5 C9_5 1_555 1_555
C9_5 H4_5 1_555 1_555
H5_5 C12_5 1_555 1_555
C13_5 C8_5 1_555 1_555
H6_5 C13_5 1_555 1_555
C27_5 C8_5 1_555 1_555
H19_5 C39_5 1_555 1_555
H20_5 C40_5 1_555 1_555
Cd3_3 O3_3 1_555 1_555
Cd6_3 O4_3 1_555 1_555
C12_5 C13_5 1_555 1_555
C39_5 C40_5 1_555 1_555
O1_5 C20_5 1_555 1_555
O13 C1_5 1_555 1_555
O14 C1_5 1_555 1_555
O7_5 C28_5 1_555 1_555
O8_5 C28_5 1_555 1_555
N1_5 C5_5 1_555 1_555
N2_5 C17_5 1_555 1_555
C1_5 C2_5 1_555 1_555
C2_5 C3_5 1_555 1_555
C3_5 H1_5 1_555 1_555
C4_5 C3_5 1_555 1_555
C5_5 C4_5 1_555 1_555
C6_5 C5_5 1_555 1_555
H2_5 C6_5 1_555 1_555
C7_5 C2_5 1_555 1_555
H3_5 C7_5 1_555 1_555
C10_5 C4_5 1_555 1_555
C11_5 N1_5 1_555 1_555
C14_5 C15_5 1_555 1_555
C15_5 H7_5 1_555 1_555
C16_5 C15_5 1_555 1_555
C17_5 C16_5 1_555 1_555
C18_5 C17_5 1_555 1_555
H8_5 C18_5 1_555 1_555
C19_5 C14_5 1_555 1_555
H9_5 C19_5 1_555 1_555
C20_5 C21_5 1_555 1_555
C21_5 C22_5 1_555 1_555
C22_5 H10_5 1_555 1_555
C23_5 C22_5 1_555 1_555
H11_5 C23_5 1_555 1_555
C24_5 N2_5 1_555 1_555
C25_5 C16_5 1_555 1_555
C26_5 C21_5 1_555 1_555
H12_5 C26_5 1_555 1_555
C28_5 C14_5 1_555 1_555
C29_5 C30_5 1_555 1_555
C31_5 C30_5 1_555 1_555
H14_5 C31_5 1_555 1_555
C32_5 N2_5 1_555 1_555
C33_5 C32_5 1_555 1_555
H15_5 C33_5 1_555 1_555
C34_5 C29_5 1_555 1_555
H16_5 C34_5 1_555 1_555
C35_5 N1_5 1_555 1_555
C36_5 C35_5 1_555 1_555
H17_5 C36_5 1_555 1_555
C37_5 C36_5 1_555 1_555
H18_5 C37_5 1_555 1_555
C38_5 C29_5 1_555 1_555
Cd5_5 O7_5 1_555 1_555
Cd8_5 O8_5 1_555 1_555
C6_5 C7_5 1_555 1_555
C10_5 C11_5 1_555 1_555
C18_5 C19_5 1_555 1_555
C23_5 C24_5 1_555 1_555
C24_5 C25_5 1_555 1_555
C25_5 C26_5 1_555 1_555
C31_5 C32_5 1_555 1_555
C33_5 C34_5 1_555 1_555
C37_5 C38_5 1_555 1_555
Cd2_3 O2_5 1_555 1_555
O9_5 Cd2_3 1_555 1_555
O10_5 Cd1_3 1_555 1_555
O11_3 Cd1_3 1_555 1_555
O12_3 Cd2_3 1_555 1_555
O15_5 Cd1_3 1_555 1_555
O16_5 Cd2_3 1_555 1_555
O9_5 H21_5 1_555 1_555
O9_5 H22_5 1_555 1_555
O10_5 H23_5 1_555 1_555
O10_5 H24_5 1_555 1_555
Cd3_3 O1_6 1_555 1_555
Cd6_3 O2_6 1_555 1_555
O1_6 C20_6 1_555 1_555
O2_6 C20_6 1_555 1_555
O13_4 C1_6 1_555 1_555
O14_4 C1_6 1_555 1_555
O7_6 C28_6 1_555 1_555
O8_6 C28_6 1_555 1_555
O9_6 Cd6_3 1_555 1_555
O10_6 Cd3_3 1_555 1_555
N1_6 C5_6 1_555 1_555
N2_6 C17_6 1_555 1_555
C1_6 C2_6 1_555 1_555
C2_6 C3_6 1_555 1_555
C3_6 H1_6 1_555 1_555
C4_6 C3_6 1_555 1_555
C5_6 C4_6 1_555 1_555
C6_6 C5_6 1_555 1_555
H2_6 C6_6 1_555 1_555
C7_6 C2_6 1_555 1_555
H3_6 C7_6 1_555 1_555
C10_6 C4_6 1_555 1_555
C11_6 N1_6 1_555 1_555
C14_6 C15_6 1_555 1_555
C15_6 H7_6 1_555 1_555
C16_6 C15_6 1_555 1_555
C17_6 C16_6 1_555 1_555
C18_6 C17_6 1_555 1_555
H8_6 C18_6 1_555 1_555
C19_6 C14_6 1_555 1_555
H9_6 C19_6 1_555 1_555
C20_6 C21_6 1_555 1_555
C21_6 C22_6 1_555 1_555
C22_6 H10_6 1_555 1_555
C23_6 C22_6 1_555 1_555
H11_6 C23_6 1_555 1_555
C24_6 N2_6 1_555 1_555
C25_6 C16_6 1_555 1_555
C26_6 C21_6 1_555 1_555
H12_6 C26_6 1_555 1_555
C28_6 C14_6 1_555 1_555
C29_6 C30_6 1_555 1_555
C31_6 C30_6 1_555 1_555
H14_6 C31_6 1_555 1_555
C32_6 N2_6 1_555 1_555
C33_6 C32_6 1_555 1_555
H15_6 C33_6 1_555 1_555
C34_6 C29_6 1_555 1_555
H16_6 C34_6 1_555 1_555
C35_6 N1_6 1_555 1_555
C36_6 C35_6 1_555 1_555
H17_6 C36_6 1_555 1_555
C37_6 C36_6 1_555 1_555
H18_6 C37_6 1_555 1_555
C38_6 C29_6 1_555 1_555
Cd5_6 O7_6 1_555 1_555
Cd8_6 O8_6 1_555 1_555
O15_6 Cd3_3 1_555 1_555
O16_6 Cd6_3 1_555 1_555
C6_6 C7_6 1_555 1_555
C10_6 C11_6 1_555 1_555
C18_6 C19_6 1_555 1_555
C23_6 C24_6 1_555 1_555
C24_6 C25_6 1_555 1_555
C25_6 C26_6 1_555 1_555
C31_6 C32_6 1_555 1_555
C33_6 C34_6 1_555 1_555
C37_6 C38_6 1_555 1_555
O9_6 H21_6 1_555 1_555
O9_6 H22_6 1_555 1_555
O10_6 H23_6 1_555 1_555
O10_6 H24_6 1_555 1_555
O11_3 C27_6 1_555 1_555
O12_3 C27_6 1_555 1_555
C8_6 C9_6 1_555 1_555
C9_6 H4_6 1_555 1_555
H5_6 C12_6 1_555 1_555
C13_6 C8_6 1_555 1_555
H6_6 C13_6 1_555 1_555
C27_6 C8_6 1_555 1_555
H19_6 C39_6 1_555 1_555
H20_6 C40_6 1_555 1_555
C12_6 C13_6 1_555 1_555
C39_6 C40_6 1_555 1_555
Cd1_4 O1_7 1_555 1_555
Cd2_4 O2_7 1_555 1_555
O1_7 C20_7 1_555 1_555
O2_7 C20_7 1_555 1_555
O3_4 C27_7 1_555 1_555
O4_4 C27_7 1_555 1_555
O13_2 C1_7 1_555 1_555
O14_2 C1_7 1_555 1_555
O7_7 C28_7 1_555 1_555
O8_7 C28_7 1_555 1_555
O9_7 Cd2_4 1_555 1_555
O10_7 Cd1_4 1_555 1_555
N1_7 C5_7 1_555 1_555
N2_7 C17_7 1_555 1_555
C1_7 C2_7 1_555 1_555
C2_7 C3_7 1_555 1_555
C3_7 H1_7 1_555 1_555
C4_7 C3_7 1_555 1_555
C5_7 C4_7 1_555 1_555
C6_7 C5_7 1_555 1_555
H2_7 C6_7 1_555 1_555
C7_7 C2_7 1_555 1_555
H3_7 C7_7 1_555 1_555
C8_7 C9_7 1_555 1_555
C9_7 H4_7 1_555 1_555
C10_7 C4_7 1_555 1_555
C11_7 N1_7 1_555 1_555
C12_7 C11_7 1_555 1_555
H5_7 C12_7 1_555 1_555
C13_7 C8_7 1_555 1_555
H6_7 C13_7 1_555 1_555
C14_7 C15_7 1_555 1_555
C15_7 H7_7 1_555 1_555
C16_7 C15_7 1_555 1_555
C17_7 C16_7 1_555 1_555
C18_7 C17_7 1_555 1_555
H8_7 C18_7 1_555 1_555
C19_7 C14_7 1_555 1_555
H9_7 C19_7 1_555 1_555
C20_7 C21_7 1_555 1_555
C21_7 C22_7 1_555 1_555
C22_7 H10_7 1_555 1_555
C23_7 C22_7 1_555 1_555
H11_7 C23_7 1_555 1_555
C24_7 N2_7 1_555 1_555
C25_7 C16_7 1_555 1_555
C26_7 C21_7 1_555 1_555
H12_7 C26_7 1_555 1_555
C27_7 C8_7 1_555 1_555
C28_7 C14_7 1_555 1_555
C29_7 C30_7 1_555 1_555
C30_7 H13_7 1_555 1_555
C31_7 C30_7 1_555 1_555
H14_7 C31_7 1_555 1_555
C32_7 N2_7 1_555 1_555
C33_7 C32_7 1_555 1_555
H15_7 C33_7 1_555 1_555
C34_7 C29_7 1_555 1_555
H16_7 C34_7 1_555 1_555
C35_7 N1_7 1_555 1_555
C36_7 C35_7 1_555 1_555
H17_7 C36_7 1_555 1_555
C37_7 C36_7 1_555 1_555
H18_7 C37_7 1_555 1_555
C38_7 C29_7 1_555 1_555
C39_7 C38_7 1_555 1_555
H19_7 C39_7 1_555 1_555
C40_7 C35_7 1_555 1_555
H20_7 C40_7 1_555 1_555
Cd3_4 O3_4 1_555 1_555
Cd5_7 O7_7 1_555 1_555
Cd6_4 O4_4 1_555 1_555
Cd8_7 O8_7 1_555 1_555
O11_4 Cd1_4 1_555 1_555
O12_4 Cd2_4 1_555 1_555
O13_7 Cd1_4 1_555 1_555
O14_7 Cd2_4 1_555 1_555
O15_7 Cd1_4 1_555 1_555
O16_7 Cd2_4 1_555 1_555
C6_7 C7_7 1_555 1_555
C9_7 C10_7 1_555 1_555
C10_7 C11_7 1_555 1_555
C12_7 C13_7 1_555 1_555
C18_7 C19_7 1_555 1_555
C23_7 C24_7 1_555 1_555
C24_7 C25_7 1_555 1_555
C25_7 C26_7 1_555 1_555
C31_7 C32_7 1_555 1_555
C33_7 C34_7 1_555 1_555
C37_7 C38_7 1_555 1_555
C39_7 C40_7 1_555 1_555
O9_7 H21_7 1_555 1_555
O9_7 H22_7 1_555 1_555
O10_7 H23_7 1_555 1_555
O10_7 H24_7 1_555 1_555
Cd6_4 O2_8 1_555 1_555
O9_8 Cd6_4 1_555 1_555
O10_8 Cd3_4 1_555 1_555
O13_8 Cd3_4 1_555 1_555
O14_8 Cd6_4 1_555 1_555
O15_8 Cd3_4 1_555 1_555
O16_8 Cd6_4 1_555 1_555
O9_8 H21_8 1_555 1_555
O9_8 H22_8 1_555 1_555
O10_8 H23_8 1_555 1_555
O10_8 H24_8 1_555 1_555
O1_8 C20_8 1_555 1_555
O11_4 C27_8 1_555 1_555
O12_4 C27_8 1_555 1_555
O13_3 C1_8 1_555 1_555
O14_3 C1_8 1_555 1_555
O7_8 C28_8 1_555 1_555
O8_8 C28_8 1_555 1_555
N1_8 C5_8 1_555 1_555
N2_8 C17_8 1_555 1_555
C1_8 C2_8 1_555 1_555
C2_8 C3_8 1_555 1_555
C3_8 H1_8 1_555 1_555
C4_8 C3_8 1_555 1_555
C5_8 C4_8 1_555 1_555
C6_8 C5_8 1_555 1_555
H2_8 C6_8 1_555 1_555
C7_8 C2_8 1_555 1_555
H3_8 C7_8 1_555 1_555
C8_8 C9_8 1_555 1_555
C9_8 H4_8 1_555 1_555
C10_8 C4_8 1_555 1_555
C11_8 N1_8 1_555 1_555
C12_8 C11_8 1_555 1_555
H5_8 C12_8 1_555 1_555
C13_8 C8_8 1_555 1_555
H6_8 C13_8 1_555 1_555
C14_8 C15_8 1_555 1_555
C15_8 H7_8 1_555 1_555
C16_8 C15_8 1_555 1_555
C17_8 C16_8 1_555 1_555
C18_8 C17_8 1_555 1_555
H8_8 C18_8 1_555 1_555
C19_8 C14_8 1_555 1_555
H9_8 C19_8 1_555 1_555
C20_8 C21_8 1_555 1_555
C21_8 C22_8 1_555 1_555
C22_8 H10_8 1_555 1_555
C23_8 C22_8 1_555 1_555
H11_8 C23_8 1_555 1_555
C24_8 N2_8 1_555 1_555
C25_8 C16_8 1_555 1_555
C26_8 C21_8 1_555 1_555
H12_8 C26_8 1_555 1_555
C27_8 C8_8 1_555 1_555
C28_8 C14_8 1_555 1_555
C29_8 C30_8 1_555 1_555
C30_8 H13_8 1_555 1_555
C31_8 C30_8 1_555 1_555
H14_8 C31_8 1_555 1_555
C32_8 N2_8 1_555 1_555
C33_8 C32_8 1_555 1_555
H15_8 C33_8 1_555 1_555
C34_8 C29_8 1_555 1_555
H16_8 C34_8 1_555 1_555
C35_8 N1_8 1_555 1_555
C36_8 C35_8 1_555 1_555
H17_8 C36_8 1_555 1_555
C37_8 C36_8 1_555 1_555
H18_8 C37_8 1_555 1_555
C38_8 C29_8 1_555 1_555
C39_8 C38_8 1_555 1_555
H19_8 C39_8 1_555 1_555
C40_8 C35_8 1_555 1_555
H20_8 C40_8 1_555 1_555
Cd5_8 O7_8 1_555 1_555
Cd8_8 O8_8 1_555 1_555
C6_8 C7_8 1_555 1_555
C9_8 C10_8 1_555 1_555
C10_8 C11_8 1_555 1_555
C12_8 C13_8 1_555 1_555
C18_8 C19_8 1_555 1_555
C23_8 C24_8 1_555 1_555
C24_8 C25_8 1_555 1_555
C25_8 C26_8 1_555 1_555
C31_8 C32_8 1_555 1_555
C33_8 C34_8 1_555 1_555
C37_8 C38_8 1_555 1_555
C39_8 C40_8 1_555 1_555
O3_5 C27_9 1_555 1_555
O4_5 C27_9 1_555 1_555
C8_9 C9_9 1_555 1_555
C9_9 H4_9 1_555 1_555
H5_9 C12_9 1_555 1_555
C13_9 C8_9 1_555 1_555
H6_9 C13_9 1_555 1_555
C27_9 C8_9 1_555 1_555
H19_9 C39_9 1_555 1_555
H20_9 C40_9 1_555 1_555
Cd4_3 O3_5 1_555 1_555
Cd7_3 O4_5 1_555 1_555
C12_9 C13_9 1_555 1_555
C39_9 C40_9 1_555 1_555
O1_9 C20_9 1_555 1_555
O13_5 C1_9 1_555 1_555
O14_5 C1_9 1_555 1_555
O7_9 C28_9 1_555 1_555
O8_9 C28_9 1_555 1_555
N1_9 C5_9 1_555 1_555
N2_9 C17_9 1_555 1_555
C1_9 C2_9 1_555 1_555
C2_9 C3_9 1_555 1_555
C3_9 H1_9 1_555 1_555
C4_9 C3_9 1_555 1_555
C5_9 C4_9 1_555 1_555
C6_9 C5_9 1_555 1_555
H2_9 C6_9 1_555 1_555
C7_9 C2_9 1_555 1_555
H3_9 C7_9 1_555 1_555
C10_9 C4_9 1_555 1_555
C11_9 N1_9 1_555 1_555
C14_9 C15_9 1_555 1_555
C15_9 H7_9 1_555 1_555
C16_9 C15_9 1_555 1_555
C17_9 C16_9 1_555 1_555
C18_9 C17_9 1_555 1_555
H8_9 C18_9 1_555 1_555
C19_9 C14_9 1_555 1_555
H9_9 C19_9 1_555 1_555
C20_9 C21_9 1_555 1_555
C21_9 C22_9 1_555 1_555
C22_9 H10_9 1_555 1_555
C23_9 C22_9 1_555 1_555
H11_9 C23_9 1_555 1_555
C24_9 N2_9 1_555 1_555
C25_9 C16_9 1_555 1_555
C26_9 C21_9 1_555 1_555
H12_9 C26_9 1_555 1_555
C28_9 C14_9 1_555 1_555
C29_9 C30_9 1_555 1_555
C31_9 C30_9 1_555 1_555
H14_9 C31_9 1_555 1_555
C32_9 N2_9 1_555 1_555
C33_9 C32_9 1_555 1_555
H15_9 C33_9 1_555 1_555
C34_9 C29_9 1_555 1_555
H16_9 C34_9 1_555 1_555
C35_9 N1_9 1_555 1_555
C36_9 C35_9 1_555 1_555
H17_9 C36_9 1_555 1_555
C37_9 C36_9 1_555 1_555
H18_9 C37_9 1_555 1_555
C38_9 C29_9 1_555 1_555
Cd5_9 O7_9 1_555 1_555
Cd8_9 O8_9 1_555 1_555
C6_9 C7_9 1_555 1_555
C10_9 C11_9 1_555 1_555
C18_9 C19_9 1_555 1_555
C23_9 C24_9 1_555 1_555
C24_9 C25_9 1_555 1_555
C25_9 C26_9 1_555 1_555
C31_9 C32_9 1_555 1_555
C33_9 C34_9 1_555 1_555
C37_9 C38_9 1_555 1_555
Cd7 O2_9 1_555 1_555
O9_9 Cd7 1_555 1_555
O10_9 Cd4 1_555 1_555
O11_5 Cd4 1_555 1_555
O12_5 Cd7 1_555 1_555
O15_9 Cd4 1_555 1_555
O16_9 Cd7 1_555 1_555
O9_9 H21_9 1_555 1_555
O9_9 H22_9 1_555 1_555
O10_9 H23_9 1_555 1_555
O10_9 H24_9 1_555 1_555
Cd4_3 O1_10 1_555 1_555
Cd7_3 O2_10 1_555 1_555
O1_10 C20_10 1_555 1_555
O2_10 C20_10 1_555 1_555
O13_8 C1_10 1_555 1_555
O14_8 C1_10 1_555 1_555
O7_10 C28_10 1_555 1_555
O8_10 C28_10 1_555 1_555
O9_10 Cd7_3 1_555 1_555
O10_10 Cd4_3 1_555 1_555
N1_10 C5_10 1_555 1_555
N2_10 C17_10 1_555 1_555
C1_10 C2_10 1_555 1_555
C2_10 C3_10 1_555 1_555
C3_10 H1_10 1_555 1_555
C4_10 C3_10 1_555 1_555
C5_10 C4_10 1_555 1_555
C6_10 C5_10 1_555 1_555
H2_10 C6_10 1_555 1_555
C7_10 C2_10 1_555 1_555
H3_10 C7_10 1_555 1_555
C10_10 C4_10 1_555 1_555
C11_10 N1_10 1_555 1_555
C14_10 C15_10 1_555 1_555
C15_10 H7_10 1_555 1_555
C16_10 C15_10 1_555 1_555
C17_10 C16_10 1_555 1_555
C18_10 C17_10 1_555 1_555
H8_10 C18_10 1_555 1_555
C19_10 C14_10 1_555 1_555
H9_10 C19_10 1_555 1_555
C20_10 C21_10 1_555 1_555
C21_10 C22_10 1_555 1_555
C22_10 H10_10 1_555 1_555
C23_10 C22_10 1_555 1_555
H11_10 C23_10 1_555 1_555
C24_10 N2_10 1_555 1_555
C25_10 C16_10 1_555 1_555
C26_10 C21_10 1_555 1_555
H12_10 C26_10 1_555 1_555
C28_10 C14_10 1_555 1_555
C29_10 C30_10 1_555 1_555
C31_10 C30_10 1_555 1_555
H14_10 C31_10 1_555 1_555
C32_10 N2_10 1_555 1_555
C33_10 C32_10 1_555 1_555
H15_10 C33_10 1_555 1_555
C34_10 C29_10 1_555 1_555
H16_10 C34_10 1_555 1_555
C35_10 N1_10 1_555 1_555
C36_10 C35_10 1_555 1_555
H17_10 C36_10 1_555 1_555
C37_10 C36_10 1_555 1_555
H18_10 C37_10 1_555 1_555
C38_10 C29_10 1_555 1_555
Cd5_10 O7_10 1_555 1_555
Cd8_10 O8_10 1_555 1_555
O15_10 Cd4_3 1_555 1_555
O16_10 Cd7_3 1_555 1_555
C6_10 C7_10 1_555 1_555
C10_10 C11_10 1_555 1_555
C18_10 C19_10 1_555 1_555
C23_10 C24_10 1_555 1_555
C24_10 C25_10 1_555 1_555
C25_10 C26_10 1_555 1_555
C31_10 C32_10 1_555 1_555
C33_10 C34_10 1_555 1_555
C37_10 C38_10 1_555 1_555
O9_10 H21_10 1_555 1_555
O9_10 H22_10 1_555 1_555
O10_10 H23_10 1_555 1_555
O10_10 H24_10 1_555 1_555
O11_5 C27_10 1_555 1_555
O12_5 C27_10 1_555 1_555
C8_10 C9_10 1_555 1_555
C9_10 H4_10 1_555 1_555
H5_10 C12_10 1_555 1_555
C13_10 C8_10 1_555 1_555
H6_10 C13_10 1_555 1_555
C27_10 C8_10 1_555 1_555
H19_10 C39_10 1_555 1_555
H20_10 C40_10 1_555 1_555
C12_10 C13_10 1_555 1_555
C39_10 C40_10 1_555 1_555
Cd4_4 O1_11 1_555 1_555
Cd7_4 O2_11 1_555 1_555
O1_11 C20_11 1_555 1_555
O2_11 C20_11 1_555 1_555
O3_6 C27_11 1_555 1_555
O4_6 C27_11 1_555 1_555
O13_6 C1_11 1_555 1_555
O14_6 C1_11 1_555 1_555
O7_11 C28_11 1_555 1_555
O8_11 C28_11 1_555 1_555
O9_11 Cd7_4 1_555 1_555
O10_11 Cd4_4 1_555 1_555
N1_11 C5_11 1_555 1_555
N2_11 C17_11 1_555 1_555
C1_11 C2_11 1_555 1_555
C2_11 C3_11 1_555 1_555
C3_11 H1_11 1_555 1_555
C4_11 C3_11 1_555 1_555
C5_11 C4_11 1_555 1_555
C6_11 C5_11 1_555 1_555
H2_11 C6_11 1_555 1_555
C7_11 C2_11 1_555 1_555
H3_11 C7_11 1_555 1_555
C8_11 C9_11 1_555 1_555
C9_11 H4_11 1_555 1_555
C10_11 C4_11 1_555 1_555
C11_11 N1_11 1_555 1_555
C12_11 C11_11 1_555 1_555
H5_11 C12_11 1_555 1_555
C13_11 C8_11 1_555 1_555
H6_11 C13_11 1_555 1_555
C14_11 C15_11 1_555 1_555
C15_11 H7_11 1_555 1_555
C16_11 C15_11 1_555 1_555
C17_11 C16_11 1_555 1_555
C18_11 C17_11 1_555 1_555
H8_11 C18_11 1_555 1_555
C19_11 C14_11 1_555 1_555
H9_11 C19_11 1_555 1_555
C20_11 C21_11 1_555 1_555
C21_11 C22_11 1_555 1_555
C22_11 H10_11 1_555 1_555
C23_11 C22_11 1_555 1_555
H11_11 C23_11 1_555 1_555
C24_11 N2_11 1_555 1_555
C25_11 C16_11 1_555 1_555
C26_11 C21_11 1_555 1_555
H12_11 C26_11 1_555 1_555
C27_11 C8_11 1_555 1_555
C28_11 C14_11 1_555 1_555
C29_11 C30_11 1_555 1_555
C30_11 H13_11 1_555 1_555
C31_11 C30_11 1_555 1_555
H14_11 C31_11 1_555 1_555
C32_11 N2_11 1_555 1_555
C33_11 C32_11 1_555 1_555
H15_11 C33_11 1_555 1_555
C34_11 C29_11 1_555 1_555
H16_11 C34_11 1_555 1_555
C35_11 N1_11 1_555 1_555
C36_11 C35_11 1_555 1_555
H17_11 C36_11 1_555 1_555
C37_11 C36_11 1_555 1_555
H18_11 C37_11 1_555 1_555
C38_11 C29_11 1_555 1_555
C39_11 C38_11 1_555 1_555
H19_11 C39_11 1_555 1_555
C40_11 C35_11 1_555 1_555
H20_11 C40_11 1_555 1_555
Cd4_2 O3_6 1_555 1_555
Cd5_11 O7_11 1_555 1_555
Cd7_2 O4_6 1_555 1_555
Cd8_11 O8_11 1_555 1_555
O11_6 Cd4_4 1_555 1_555
O12_6 Cd7_4 1_555 1_555
O15_11 Cd4_4 1_555 1_555
O16_11 Cd7_4 1_555 1_555
C6_11 C7_11 1_555 1_555
C9_11 C10_11 1_555 1_555
C10_11 C11_11 1_555 1_555
C12_11 C13_11 1_555 1_555
C18_11 C19_11 1_555 1_555
C23_11 C24_11 1_555 1_555
C24_11 C25_11 1_555 1_555
C25_11 C26_11 1_555 1_555
C31_11 C32_11 1_555 1_555
C33_11 C34_11 1_555 1_555
C37_11 C38_11 1_555 1_555
C39_11 C40_11 1_555 1_555
O9_11 H21_11 1_555 1_555
O9_11 H22_11 1_555 1_555
O10_11 H23_11 1_555 1_555
O10_11 H24_11 1_555 1_555
Cd7_2 O2_12 1_555 1_555
O9_12 Cd7_2 1_555 1_555
O10_12 Cd4_2 1_555 1_555
O15_12 Cd4_2 1_555 1_555
O16_12 Cd7_2 1_555 1_555
O9_12 H21_12 1_555 1_555
O9_12 H22_12 1_555 1_555
O10_12 H23_12 1_555 1_555
O10_12 H24_12 1_555 1_555
O1_12 C20_12 1_555 1_555
O11_6 C27_12 1_555 1_555
O12_6 C27_12 1_555 1_555
O13_7 C1_12 1_555 1_555
O14_7 C1_12 1_555 1_555
O7_12 C28_12 1_555 1_555
O8_12 C28_12 1_555 1_555
N1_12 C5_12 1_555 1_555
N2_12 C17_12 1_555 1_555
C1_12 C2_12 1_555 1_555
C2_12 C3_12 1_555 1_555
C3_12 H1_12 1_555 1_555
C4_12 C3_12 1_555 1_555
C5_12 C4_12 1_555 1_555
C6_12 C5_12 1_555 1_555
H2_12 C6_12 1_555 1_555
C7_12 C2_12 1_555 1_555
H3_12 C7_12 1_555 1_555
C8_12 C9_12 1_555 1_555
C9_12 H4_12 1_555 1_555
C10_12 C4_12 1_555 1_555
C11_12 N1_12 1_555 1_555
C12_12 C11_12 1_555 1_555
H5_12 C12_12 1_555 1_555
C13_12 C8_12 1_555 1_555
H6_12 C13_12 1_555 1_555
C14_12 C15_12 1_555 1_555
C15_12 H7_12 1_555 1_555
C16_12 C15_12 1_555 1_555
C17_12 C16_12 1_555 1_555
C18_12 C17_12 1_555 1_555
H8_12 C18_12 1_555 1_555
C19_12 C14_12 1_555 1_555
H9_12 C19_12 1_555 1_555
C20_12 C21_12 1_555 1_555
C21_12 C22_12 1_555 1_555
C22_12 H10_12 1_555 1_555
C23_12 C22_12 1_555 1_555
H11_12 C23_12 1_555 1_555
C24_12 N2_12 1_555 1_555
C25_12 C16_12 1_555 1_555
C26_12 C21_12 1_555 1_555
H12_12 C26_12 1_555 1_555
C27_12 C8_12 1_555 1_555
C28_12 C14_12 1_555 1_555
C29_12 C30_12 1_555 1_555
C30_12 H13_12 1_555 1_555
C31_12 C30_12 1_555 1_555
H14_12 C31_12 1_555 1_555
C32_12 N2_12 1_555 1_555
C33_12 C32_12 1_555 1_555
H15_12 C33_12 1_555 1_555
C34_12 C29_12 1_555 1_555
H16_12 C34_12 1_555 1_555
C35_12 N1_12 1_555 1_555
C36_12 C35_12 1_555 1_555
H17_12 C36_12 1_555 1_555
C37_12 C36_12 1_555 1_555
H18_12 C37_12 1_555 1_555
C38_12 C29_12 1_555 1_555
C39_12 C38_12 1_555 1_555
H19_12 C39_12 1_555 1_555
C40_12 C35_12 1_555 1_555
H20_12 C40_12 1_555 1_555
Cd5_12 O7_12 1_555 1_555
Cd8_12 O8_12 1_555 1_555
C6_12 C7_12 1_555 1_555
C9_12 C10_12 1_555 1_555
C10_12 C11_12 1_555 1_555
C12_12 C13_12 1_555 1_555
C18_12 C19_12 1_555 1_555
C23_12 C24_12 1_555 1_555
C24_12 C25_12 1_555 1_555
C25_12 C26_12 1_555 1_555
C31_12 C32_12 1_555 1_555
C33_12 C34_12 1_555 1_555
C37_12 C38_12 1_555 1_555
C39_12 C40_12 1_555 1_555
Cd8_6 O2_13 1_555 1_555
O9_13 Cd8_6 1_555 1_555
O10_13 Cd5_6 1_555 1_555
O11_7 Cd5_6 1_555 1_555
O12_7 Cd8_6 1_555 1_555
O9_13 H21_13 1_555 1_555
O9_13 H22_13 1_555 1_555
O10_13 H23_13 1_555 1_555
O10_13 H24_13 1_555 1_555
O1_13 C20_13 1_555 1_555
O5_5 C1_13 1_555 1_555
O6_5 C1_13 1_555 1_555
O15_12 C28_13 1_555 1_555
O16_12 C28_13 1_555 1_555
N1_13 C5_13 1_555 1_555
N2_13 C17_13 1_555 1_555
C1_13 C2_13 1_555 1_555
C2_13 C3_13 1_555 1_555
C3_13 H1_13 1_555 1_555
C4_13 C3_13 1_555 1_555
C5_13 C4_13 1_555 1_555
C6_13 C5_13 1_555 1_555
H2_13 C6_13 1_555 1_555
C7_13 C2_13 1_555 1_555
H3_13 C7_13 1_555 1_555
C10_13 C4_13 1_555 1_555
C11_13 N1_13 1_555 1_555
C14_13 C15_13 1_555 1_555
C15_13 H7_13 1_555 1_555
C16_13 C15_13 1_555 1_555
C17_13 C16_13 1_555 1_555
C18_13 C17_13 1_555 1_555
H8_13 C18_13 1_555 1_555
C19_13 C14_13 1_555 1_555
H9_13 C19_13 1_555 1_555
C20_13 C21_13 1_555 1_555
C21_13 C22_13 1_555 1_555
C22_13 H10_13 1_555 1_555
C23_13 C22_13 1_555 1_555
H11_13 C23_13 1_555 1_555
C24_13 N2_13 1_555 1_555
C25_13 C16_13 1_555 1_555
C26_13 C21_13 1_555 1_555
H12_13 C26_13 1_555 1_555
C28_13 C14_13 1_555 1_555
C29_13 C30_13 1_555 1_555
C31_13 C30_13 1_555 1_555
H14_13 C31_13 1_555 1_555
C32_13 N2_13 1_555 1_555
C33_13 C32_13 1_555 1_555
H15_13 C33_13 1_555 1_555
C34_13 C29_13 1_555 1_555
H16_13 C34_13 1_555 1_555
C35_13 N1_13 1_555 1_555
C36_13 C35_13 1_555 1_555
H17_13 C36_13 1_555 1_555
C37_13 C36_13 1_555 1_555
H18_13 C37_13 1_555 1_555
C38_13 C29_13 1_555 1_555
C6_13 C7_13 1_555 1_555
C10_13 C11_13 1_555 1_555
C18_13 C19_13 1_555 1_555
C23_13 C24_13 1_555 1_555
C24_13 C25_13 1_555 1_555
C25_13 C26_13 1_555 1_555
C31_13 C32_13 1_555 1_555
C33_13 C34_13 1_555 1_555
C37_13 C38_13 1_555 1_555
O3_7 C27_13 1_555 1_555
O4_7 C27_13 1_555 1_555
C8_13 C9_13 1_555 1_555
C9_13 H4_13 1_555 1_555
H5_13 C12_13 1_555 1_555
C13_13 C8_13 1_555 1_555
H6_13 C13_13 1_555 1_555
C27_13 C8_13 1_555 1_555
H19_13 C39_13 1_555 1_555
H20_13 C40_13 1_555 1_555
Cd5_8 O3_7 1_555 1_555
Cd8_8 O4_7 1_555 1_555
C12_13 C13_13 1_555 1_555
C39_13 C40_13 1_555 1_555
O11_7 C27_14 1_555 1_555
O12_7 C27_14 1_555 1_555
C8_14 C9_14 1_555 1_555
C9_14 H4_14 1_555 1_555
H5_14 C12_14 1_555 1_555
C13_14 C8_14 1_555 1_555
H6_14 C13_14 1_555 1_555
C27_14 C8_14 1_555 1_555
H19_14 C39_14 1_555 1_555
H20_14 C40_14 1_555 1_555
C12_14 C13_14 1_555 1_555
C39_14 C40_14 1_555 1_555
Cd5_8 O1_14 1_555 1_555
Cd8_8 O2_14 1_555 1_555
O1_14 C20_14 1_555 1_555
O2_14 C20_14 1_555 1_555
O5_6 C1_14 1_555 1_555
O6_6 C1_14 1_555 1_555
O15_9 C28_14 1_555 1_555
O16_9 C28_14 1_555 1_555
O9_14 Cd8_8 1_555 1_555
O10_14 Cd5_8 1_555 1_555
N1_14 C5_14 1_555 1_555
N2_14 C17_14 1_555 1_555
C1_14 C2_14 1_555 1_555
C2_14 C3_14 1_555 1_555
C3_14 H1_14 1_555 1_555
C4_14 C3_14 1_555 1_555
C5_14 C4_14 1_555 1_555
C6_14 C5_14 1_555 1_555
H2_14 C6_14 1_555 1_555
C7_14 C2_14 1_555 1_555
H3_14 C7_14 1_555 1_555
C10_14 C4_14 1_555 1_555
C11_14 N1_14 1_555 1_555
C14_14 C15_14 1_555 1_555
C15_14 H7_14 1_555 1_555
C16_14 C15_14 1_555 1_555
C17_14 C16_14 1_555 1_555
C18_14 C17_14 1_555 1_555
H8_14 C18_14 1_555 1_555
C19_14 C14_14 1_555 1_555
H9_14 C19_14 1_555 1_555
C20_14 C21_14 1_555 1_555
C21_14 C22_14 1_555 1_555
C22_14 H10_14 1_555 1_555
C23_14 C22_14 1_555 1_555
H11_14 C23_14 1_555 1_555
C24_14 N2_14 1_555 1_555
C25_14 C16_14 1_555 1_555
C26_14 C21_14 1_555 1_555
H12_14 C26_14 1_555 1_555
C28_14 C14_14 1_555 1_555
C29_14 C30_14 1_555 1_555
C31_14 C30_14 1_555 1_555
H14_14 C31_14 1_555 1_555
C32_14 N2_14 1_555 1_555
C33_14 C32_14 1_555 1_555
H15_14 C33_14 1_555 1_555
C34_14 C29_14 1_555 1_555
H16_14 C34_14 1_555 1_555
C35_14 N1_14 1_555 1_555
C36_14 C35_14 1_555 1_555
H17_14 C36_14 1_555 1_555
C37_14 C36_14 1_555 1_555
H18_14 C37_14 1_555 1_555
C38_14 C29_14 1_555 1_555
Cd5 O5_6 1_555 1_555
Cd8 O6_6 1_555 1_555
C6_14 C7_14 1_555 1_555
C10_14 C11_14 1_555 1_555
C18_14 C19_14 1_555 1_555
C23_14 C24_14 1_555 1_555
C24_14 C25_14 1_555 1_555
C25_14 C26_14 1_555 1_555
C31_14 C32_14 1_555 1_555
C33_14 C34_14 1_555 1_555
C37_14 C38_14 1_555 1_555
O9_14 H21_14 1_555 1_555
O9_14 H22_14 1_555 1_555
O10_14 H23_14 1_555 1_555
O10_14 H24_14 1_555 1_555
Cd5_7 O1_15 1_555 1_555
Cd8_7 O2_15 1_555 1_555
O1_15 C20_15 1_555 1_555
O2_15 C20_15 1_555 1_555
O3_8 C27_15 1_555 1_555
O4_8 C27_15 1_555 1_555
O5_7 C1_15 1_555 1_555
O6_7 C1_15 1_555 1_555
O15_11 C28_15 1_555 1_555
O16_11 C28_15 1_555 1_555
O9_15 Cd8_7 1_555 1_555
O10_15 Cd5_7 1_555 1_555
N1_15 C5_15 1_555 1_555
N2_15 C17_15 1_555 1_555
C1_15 C2_15 1_555 1_555
C2_15 C3_15 1_555 1_555
C3_15 H1_15 1_555 1_555
C4_15 C3_15 1_555 1_555
C5_15 C4_15 1_555 1_555
C6_15 C5_15 1_555 1_555
H2_15 C6_15 1_555 1_555
C7_15 C2_15 1_555 1_555
H3_15 C7_15 1_555 1_555
C8_15 C9_15 1_555 1_555
C9_15 H4_15 1_555 1_555
C10_15 C4_15 1_555 1_555
C11_15 N1_15 1_555 1_555
C12_15 C11_15 1_555 1_555
H5_15 C12_15 1_555 1_555
C13_15 C8_15 1_555 1_555
H6_15 C13_15 1_555 1_555
C14_15 C15_15 1_555 1_555
C15_15 H7_15 1_555 1_555
C16_15 C15_15 1_555 1_555
C17_15 C16_15 1_555 1_555
C18_15 C17_15 1_555 1_555
H8_15 C18_15 1_555 1_555
C19_15 C14_15 1_555 1_555
H9_15 C19_15 1_555 1_555
C20_15 C21_15 1_555 1_555
C21_15 C22_15 1_555 1_555
C22_15 H10_15 1_555 1_555
C23_15 C22_15 1_555 1_555
H11_15 C23_15 1_555 1_555
C24_15 N2_15 1_555 1_555
C25_15 C16_15 1_555 1_555
C26_15 C21_15 1_555 1_555
H12_15 C26_15 1_555 1_555
C27_15 C8_15 1_555 1_555
C28_15 C14_15 1_555 1_555
C29_15 C30_15 1_555 1_555
C30_15 H13_15 1_555 1_555
C31_15 C30_15 1_555 1_555
H14_15 C31_15 1_555 1_555
C32_15 N2_15 1_555 1_555
C33_15 C32_15 1_555 1_555
H15_15 C33_15 1_555 1_555
C34_15 C29_15 1_555 1_555
H16_15 C34_15 1_555 1_555
C35_15 N1_15 1_555 1_555
C36_15 C35_15 1_555 1_555
H17_15 C36_15 1_555 1_555
C37_15 C36_15 1_555 1_555
H18_15 C37_15 1_555 1_555
C38_15 C29_15 1_555 1_555
C39_15 C38_15 1_555 1_555
H19_15 C39_15 1_555 1_555
C40_15 C35_15 1_555 1_555
H20_15 C40_15 1_555 1_555
Cd5_5 O3_8 1_555 1_555
Cd8_5 O4_8 1_555 1_555
O11_8 Cd5_7 1_555 1_555
O12_8 Cd8_7 1_555 1_555
O13_11 Cd5_7 1_555 1_555
O14_11 Cd8_7 1_555 1_555
C6_15 C7_15 1_555 1_555
C9_15 C10_15 1_555 1_555
C10_15 C11_15 1_555 1_555
C12_15 C13_15 1_555 1_555
C18_15 C19_15 1_555 1_555
C23_15 C24_15 1_555 1_555
C24_15 C25_15 1_555 1_555
C25_15 C26_15 1_555 1_555
C31_15 C32_15 1_555 1_555
C33_15 C34_15 1_555 1_555
C37_15 C38_15 1_555 1_555
C39_15 C40_15 1_555 1_555
O9_15 H21_15 1_555 1_555
O9_15 H22_15 1_555 1_555
O10_15 H23_15 1_555 1_555
O10_15 H24_15 1_555 1_555
O1_16 C20_16 1_555 1_555
O11_8 C27_16 1_555 1_555
O12_8 C27_16 1_555 1_555
O5_8 C1_16 1_555 1_555
O6_8 C1_16 1_555 1_555
O15_10 C28_16 1_555 1_555
O16_10 C28_16 1_555 1_555
N1_16 C5_16 1_555 1_555
N2_16 C17_16 1_555 1_555
C1_16 C2_16 1_555 1_555
C2_16 C3_16 1_555 1_555
C3_16 H1_16 1_555 1_555
C4_16 C3_16 1_555 1_555
C5_16 C4_16 1_555 1_555
C6_16 C5_16 1_555 1_555
H2_16 C6_16 1_555 1_555
C7_16 C2_16 1_555 1_555
H3_16 C7_16 1_555 1_555
C8_16 C9_16 1_555 1_555
C9_16 H4_16 1_555 1_555
C10_16 C4_16 1_555 1_555
C11_16 N1_16 1_555 1_555
C12_16 C11_16 1_555 1_555
H5_16 C12_16 1_555 1_555
C13_16 C8_16 1_555 1_555
H6_16 C13_16 1_555 1_555
C14_16 C15_16 1_555 1_555
C15_16 H7_16 1_555 1_555
C16_16 C15_16 1_555 1_555
C17_16 C16_16 1_555 1_555
C18_16 C17_16 1_555 1_555
H8_16 C18_16 1_555 1_555
C19_16 C14_16 1_555 1_555
H9_16 C19_16 1_555 1_555
C20_16 C21_16 1_555 1_555
C21_16 C22_16 1_555 1_555
C22_16 H10_16 1_555 1_555
C23_16 C22_16 1_555 1_555
H11_16 C23_16 1_555 1_555
C24_16 N2_16 1_555 1_555
C25_16 C16_16 1_555 1_555
C26_16 C21_16 1_555 1_555
H12_16 C26_16 1_555 1_555
C27_16 C8_16 1_555 1_555
C28_16 C14_16 1_555 1_555
C29_16 C30_16 1_555 1_555
C30_16 H13_16 1_555 1_555
C31_16 C30_16 1_555 1_555
H14_16 C31_16 1_555 1_555
C32_16 N2_16 1_555 1_555
C33_16 C32_16 1_555 1_555
H15_16 C33_16 1_555 1_555
C34_16 C29_16 1_555 1_555
H16_16 C34_16 1_555 1_555
C35_16 N1_16 1_555 1_555
C36_16 C35_16 1_555 1_555
H17_16 C36_16 1_555 1_555
C37_16 C36_16 1_555 1_555
H18_16 C37_16 1_555 1_555
C38_16 C29_16 1_555 1_555
C39_16 C38_16 1_555 1_555
H19_16 C39_16 1_555 1_555
C40_16 C35_16 1_555 1_555
H20_16 C40_16 1_555 1_555
Cd5_3 O5_8 1_555 1_555
Cd8_3 O6_8 1_555 1_555
C6_16 C7_16 1_555 1_555
C9_16 C10_16 1_555 1_555
C10_16 C11_16 1_555 1_555
C12_16 C13_16 1_555 1_555
C18_16 C19_16 1_555 1_555
C23_16 C24_16 1_555 1_555
C24_16 C25_16 1_555 1_555
C25_16 C26_16 1_555 1_555
C31_16 C32_16 1_555 1_555
C33_16 C34_16 1_555 1_555
C37_16 C38_16 1_555 1_555
C39_16 C40_16 1_555 1_555
Cd8_5 O2_16 1_555 1_555
O9_16 Cd8_5 1_555 1_555
O10_16 Cd5_5 1_555 1_555
O13_12 Cd5_5 1_555 1_555
O14_12 Cd8_5 1_555 1_555
O9_16 H21_16 1_555 1_555
O9_16 H22_16 1_555 1_555
O10_16 H23_16 1_555 1_555
O10_16 H24_16 1_555 1_555
Cd8_10 O2_17 1_555 1_555
O9_17 Cd8_10 1_555 1_555
O10_17 Cd5_10 1_555 1_555
O11_9 Cd5_10 1_555 1_555
O12_9 Cd8_10 1_555 1_555
O9_17 H21_17 1_555 1_555
O9_17 H22_17 1_555 1_555
O10_17 H23_17 1_555 1_555
O10_17 H24_17 1_555 1_555
O1_17 C20_17 1_555 1_555
O13_9 C1_17 1_555 1_555
O14_9 C1_17 1_555 1_555
O15_4 C28_17 1_555 1_555
O16_4 C28_17 1_555 1_555
N1_17 C5_17 1_555 1_555
N2_17 C17_17 1_555 1_555
C1_17 C2_17 1_555 1_555
C2_17 C3_17 1_555 1_555
C3_17 H1_17 1_555 1_555
C4_17 C3_17 1_555 1_555
C5_17 C4_17 1_555 1_555
C6_17 C5_17 1_555 1_555
H2_17 C6_17 1_555 1_555
C7_17 C2_17 1_555 1_555
H3_17 C7_17 1_555 1_555
C10_17 C4_17 1_555 1_555
C11_17 N1_17 1_555 1_555
C14_17 C15_17 1_555 1_555
C15_17 H7_17 1_555 1_555
C16_17 C15_17 1_555 1_555
C17_17 C16_17 1_555 1_555
C18_17 C17_17 1_555 1_555
H8_17 C18_17 1_555 1_555
C19_17 C14_17 1_555 1_555
H9_17 C19_17 1_555 1_555
C20_17 C21_17 1_555 1_555
C21_17 C22_17 1_555 1_555
C22_17 H10_17 1_555 1_555
C23_17 C22_17 1_555 1_555
H11_17 C23_17 1_555 1_555
C24_17 N2_17 1_555 1_555
C25_17 C16_17 1_555 1_555
C26_17 C21_17 1_555 1_555
H12_17 C26_17 1_555 1_555
C28_17 C14_17 1_555 1_555
C29_17 C30_17 1_555 1_555
C31_17 C30_17 1_555 1_555
H14_17 C31_17 1_555 1_555
C32_17 N2_17 1_555 1_555
C33_17 C32_17 1_555 1_555
H15_17 C33_17 1_555 1_555
C34_17 C29_17 1_555 1_555
H16_17 C34_17 1_555 1_555
C35_17 N1_17 1_555 1_555
C36_17 C35_17 1_555 1_555
H17_17 C36_17 1_555 1_555
C37_17 C36_17 1_555 1_555
H18_17 C37_17 1_555 1_555
C38_17 C29_17 1_555 1_555
C6_17 C7_17 1_555 1_555
C10_17 C11_17 1_555 1_555
C18_17 C19_17 1_555 1_555
C23_17 C24_17 1_555 1_555
C24_17 C25_17 1_555 1_555
C25_17 C26_17 1_555 1_555
C31_17 C32_17 1_555 1_555
C33_17 C34_17 1_555 1_555
C37_17 C38_17 1_555 1_555
O3_9 C27_17 1_555 1_555
O4_9 C27_17 1_555 1_555
C8_17 C9_17 1_555 1_555
C9_17 H4_17 1_555 1_555
H5_17 C12_17 1_555 1_555
C13_17 C8_17 1_555 1_555
H6_17 C13_17 1_555 1_555
C27_17 C8_17 1_555 1_555
H19_17 C39_17 1_555 1_555
H20_17 C40_17 1_555 1_555
Cd5_12 O3_9 1_555 1_555
Cd8_12 O4_9 1_555 1_555
C12_17 C13_17 1_555 1_555
C39_17 C40_17 1_555 1_555
O11_9 C27_18 1_555 1_555
O12_9 C27_18 1_555 1_555
C8_18 C9_18 1_555 1_555
C9_18 H4_18 1_555 1_555
H5_18 C12_18 1_555 1_555
C13_18 C8_18 1_555 1_555
H6_18 C13_18 1_555 1_555
C27_18 C8_18 1_555 1_555
H19_18 C39_18 1_555 1_555
H20_18 C40_18 1_555 1_555
C12_18 C13_18 1_555 1_555
C39_18 C40_18 1_555 1_555
Cd5_12 O1_18 1_555 1_555
Cd8_12 O2_18 1_555 1_555
O1_18 C20_18 1_555 1_555
O2_18 C20_18 1_555 1_555
O13_12 C1_18 1_555 1_555
O14_12 C1_18 1_555 1_555
O15 C28_18 1_555 1_555
O16 C28_18 1_555 1_555
O9_18 Cd8_12 1_555 1_555
O10_18 Cd5_12 1_555 1_555
N1_18 C5_18 1_555 1_555
N2_18 C17_18 1_555 1_555
C1_18 C2_18 1_555 1_555
C2_18 C3_18 1_555 1_555
C3_18 H1_18 1_555 1_555
C4_18 C3_18 1_555 1_555
C5_18 C4_18 1_555 1_555
C6_18 C5_18 1_555 1_555
H2_18 C6_18 1_555 1_555
C7_18 C2_18 1_555 1_555
H3_18 C7_18 1_555 1_555
C10_18 C4_18 1_555 1_555
C11_18 N1_18 1_555 1_555
C14_18 C15_18 1_555 1_555
C15_18 H7_18 1_555 1_555
C16_18 C15_18 1_555 1_555
C17_18 C16_18 1_555 1_555
C18_18 C17_18 1_555 1_555
H8_18 C18_18 1_555 1_555
C19_18 C14_18 1_555 1_555
H9_18 C19_18 1_555 1_555
C20_18 C21_18 1_555 1_555
C21_18 C22_18 1_555 1_555
C22_18 H10_18 1_555 1_555
C23_18 C22_18 1_555 1_555
H11_18 C23_18 1_555 1_555
C24_18 N2_18 1_555 1_555
C25_18 C16_18 1_555 1_555
C26_18 C21_18 1_555 1_555
H12_18 C26_18 1_555 1_555
C28_18 C14_18 1_555 1_555
C29_18 C30_18 1_555 1_555
C31_18 C30_18 1_555 1_555
H14_18 C31_18 1_555 1_555
C32_18 N2_18 1_555 1_555
C33_18 C32_18 1_555 1_555
H15_18 C33_18 1_555 1_555
C34_18 C29_18 1_555 1_555
H16_18 C34_18 1_555 1_555
C35_18 N1_18 1_555 1_555
C36_18 C35_18 1_555 1_555
H17_18 C36_18 1_555 1_555
C37_18 C36_18 1_555 1_555
H18_18 C37_18 1_555 1_555
C38_18 C29_18 1_555 1_555
C6_18 C7_18 1_555 1_555
C10_18 C11_18 1_555 1_555
C18_18 C19_18 1_555 1_555
C23_18 C24_18 1_555 1_555
C24_18 C25_18 1_555 1_555
C25_18 C26_18 1_555 1_555
C31_18 C32_18 1_555 1_555
C33_18 C34_18 1_555 1_555
C37_18 C38_18 1_555 1_555
O9_18 H21_18 1_555 1_555
O9_18 H22_18 1_555 1_555
O10_18 H23_18 1_555 1_555
O10_18 H24_18 1_555 1_555
Cd5_11 O1_19 1_555 1_555
Cd8_11 O2_19 1_555 1_555
O1_19 C20_19 1_555 1_555
O2_19 C20_19 1_555 1_555
O3_10 C27_19 1_555 1_555
O4_10 C27_19 1_555 1_555
O13_10 C1_19 1_555 1_555
O14_10 C1_19 1_555 1_555
O15_3 C28_19 1_555 1_555
O16_3 C28_19 1_555 1_555
O9_19 Cd8_11 1_555 1_555
O10_19 Cd5_11 1_555 1_555
N1_19 C5_19 1_555 1_555
N2_19 C17_19 1_555 1_555
C1_19 C2_19 1_555 1_555
C2_19 C3_19 1_555 1_555
C3_19 H1_19 1_555 1_555
C4_19 C3_19 1_555 1_555
C5_19 C4_19 1_555 1_555
C6_19 C5_19 1_555 1_555
H2_19 C6_19 1_555 1_555
C7_19 C2_19 1_555 1_555
H3_19 C7_19 1_555 1_555
C8_19 C9_19 1_555 1_555
C9_19 H4_19 1_555 1_555
C10_19 C4_19 1_555 1_555
C11_19 N1_19 1_555 1_555
C12_19 C11_19 1_555 1_555
H5_19 C12_19 1_555 1_555
C13_19 C8_19 1_555 1_555
H6_19 C13_19 1_555 1_555
C14_19 C15_19 1_555 1_555
C15_19 H7_19 1_555 1_555
C16_19 C15_19 1_555 1_555
C17_19 C16_19 1_555 1_555
C18_19 C17_19 1_555 1_555
H8_19 C18_19 1_555 1_555
C19_19 C14_19 1_555 1_555
H9_19 C19_19 1_555 1_555
C20_19 C21_19 1_555 1_555
C21_19 C22_19 1_555 1_555
C22_19 H10_19 1_555 1_555
C23_19 C22_19 1_555 1_555
H11_19 C23_19 1_555 1_555
C24_19 N2_19 1_555 1_555
C25_19 C16_19 1_555 1_555
C26_19 C21_19 1_555 1_555
H12_19 C26_19 1_555 1_555
C27_19 C8_19 1_555 1_555
C28_19 C14_19 1_555 1_555
C29_19 C30_19 1_555 1_555
C30_19 H13_19 1_555 1_555
C31_19 C30_19 1_555 1_555
H14_19 C31_19 1_555 1_555
C32_19 N2_19 1_555 1_555
C33_19 C32_19 1_555 1_555
H15_19 C33_19 1_555 1_555
C34_19 C29_19 1_555 1_555
H16_19 C34_19 1_555 1_555
C35_19 N1_19 1_555 1_555
C36_19 C35_19 1_555 1_555
H17_19 C36_19 1_555 1_555
C37_19 C36_19 1_555 1_555
H18_19 C37_19 1_555 1_555
C38_19 C29_19 1_555 1_555
C39_19 C38_19 1_555 1_555
H19_19 C39_19 1_555 1_555
C40_19 C35_19 1_555 1_555
H20_19 C40_19 1_555 1_555
Cd5_9 O3_10 1_555 1_555
Cd8_9 O4_10 1_555 1_555
O11_10 Cd5_11 1_555 1_555
O12_10 Cd8_11 1_555 1_555
O13_15 Cd5_11 1_555 1_555
O14_15 Cd8_11 1_555 1_555
C6_19 C7_19 1_555 1_555
C9_19 C10_19 1_555 1_555
C10_19 C11_19 1_555 1_555
C12_19 C13_19 1_555 1_555
C18_19 C19_19 1_555 1_555
C23_19 C24_19 1_555 1_555
C24_19 C25_19 1_555 1_555
C25_19 C26_19 1_555 1_555
C31_19 C32_19 1_555 1_555
C33_19 C34_19 1_555 1_555
C37_19 C38_19 1_555 1_555
C39_19 C40_19 1_555 1_555
O9_19 H21_19 1_555 1_555
O9_19 H22_19 1_555 1_555
O10_19 H23_19 1_555 1_555
O10_19 H24_19 1_555 1_555
O1_20 C20_20 1_555 1_555
O11_10 C27_20 1_555 1_555
O12_10 C27_20 1_555 1_555
O13_11 C1_20 1_555 1_555
O14_11 C1_20 1_555 1_555
O15_2 C28_20 1_555 1_555
O16_2 C28_20 1_555 1_555
N1_20 C5_20 1_555 1_555
N2_20 C17_20 1_555 1_555
C1_20 C2_20 1_555 1_555
C2_20 C3_20 1_555 1_555
C3_20 H1_20 1_555 1_555
C4_20 C3_20 1_555 1_555
C5_20 C4_20 1_555 1_555
C6_20 C5_20 1_555 1_555
H2_20 C6_20 1_555 1_555
C7_20 C2_20 1_555 1_555
H3_20 C7_20 1_555 1_555
C8_20 C9_20 1_555 1_555
C9_20 H4_20 1_555 1_555
C10_20 C4_20 1_555 1_555
C11_20 N1_20 1_555 1_555
C12_20 C11_20 1_555 1_555
H5_20 C12_20 1_555 1_555
C13_20 C8_20 1_555 1_555
H6_20 C13_20 1_555 1_555
C14_20 C15_20 1_555 1_555
C15_20 H7_20 1_555 1_555
C16_20 C15_20 1_555 1_555
C17_20 C16_20 1_555 1_555
C18_20 C17_20 1_555 1_555
H8_20 C18_20 1_555 1_555
C19_20 C14_20 1_555 1_555
H9_20 C19_20 1_555 1_555
C20_20 C21_20 1_555 1_555
C21_20 C22_20 1_555 1_555
C22_20 H10_20 1_555 1_555
C23_20 C22_20 1_555 1_555
H11_20 C23_20 1_555 1_555
C24_20 N2_20 1_555 1_555
C25_20 C16_20 1_555 1_555
C26_20 C21_20 1_555 1_555
H12_20 C26_20 1_555 1_555
C27_20 C8_20 1_555 1_555
C28_20 C14_20 1_555 1_555
C29_20 C30_20 1_555 1_555
C30_20 H13_20 1_555 1_555
C31_20 C30_20 1_555 1_555
H14_20 C31_20 1_555 1_555
C32_20 N2_20 1_555 1_555
C33_20 C32_20 1_555 1_555
H15_20 C33_20 1_555 1_555
C34_20 C29_20 1_555 1_555
H16_20 C34_20 1_555 1_555
C35_20 N1_20 1_555 1_555
C36_20 C35_20 1_555 1_555
H17_20 C36_20 1_555 1_555
C37_20 C36_20 1_555 1_555
H18_20 C37_20 1_555 1_555
C38_20 C29_20 1_555 1_555
C39_20 C38_20 1_555 1_555
H19_20 C39_20 1_555 1_555
C40_20 C35_20 1_555 1_555
H20_20 C40_20 1_555 1_555
C6_20 C7_20 1_555 1_555
C9_20 C10_20 1_555 1_555
C10_20 C11_20 1_555 1_555
C12_20 C13_20 1_555 1_555
C18_20 C19_20 1_555 1_555
C23_20 C24_20 1_555 1_555
C24_20 C25_20 1_555 1_555
C25_20 C26_20 1_555 1_555
C31_20 C32_20 1_555 1_555
C33_20 C34_20 1_555 1_555
C37_20 C38_20 1_555 1_555
C39_20 C40_20 1_555 1_555
Cd8_9 O2_20 1_555 1_555
O9_20 Cd8_9 1_555 1_555
O10_20 Cd5_9 1_555 1_555
O13_16 Cd5_9 1_555 1_555
O14_16 Cd8_9 1_555 1_555
O9_20 H21_20 1_555 1_555
O9_20 H22_20 1_555 1_555
O10_20 H23_20 1_555 1_555
O10_20 H24_20 1_555 1_555
Cd8_2 O2_21 1_555 1_555
O9_21 Cd8_2 1_555 1_555
O10_21 Cd5_2 1_555 1_555
O11_11 Cd5_2 1_555 1_555
O12_11 Cd8_2 1_555 1_555
O9_21 H21_21 1_555 1_555
O9_21 H22_21 1_555 1_555
O10_21 H23_21 1_555 1_555
O10_21 H24_21 1_555 1_555
O1_21 C20_21 1_555 1_555
O13_13 C1_21 1_555 1_555
O14_13 C1_21 1_555 1_555
O15_8 C28_21 1_555 1_555
O16_8 C28_21 1_555 1_555
N1_21 C5_21 1_555 1_555
N2_21 C17_21 1_555 1_555
C1_21 C2_21 1_555 1_555
C2_21 C3_21 1_555 1_555
C3_21 H1_21 1_555 1_555
C4_21 C3_21 1_555 1_555
C5_21 C4_21 1_555 1_555
C6_21 C5_21 1_555 1_555
H2_21 C6_21 1_555 1_555
C7_21 C2_21 1_555 1_555
H3_21 C7_21 1_555 1_555
C10_21 C4_21 1_555 1_555
C11_21 N1_21 1_555 1_555
C14_21 C15_21 1_555 1_555
C15_21 H7_21 1_555 1_555
C16_21 C15_21 1_555 1_555
C17_21 C16_21 1_555 1_555
C18_21 C17_21 1_555 1_555
H8_21 C18_21 1_555 1_555
C19_21 C14_21 1_555 1_555
H9_21 C19_21 1_555 1_555
C20_21 C21_21 1_555 1_555
C21_21 C22_21 1_555 1_555
C22_21 H10_21 1_555 1_555
C23_21 C22_21 1_555 1_555
H11_21 C23_21 1_555 1_555
C24_21 N2_21 1_555 1_555
C25_21 C16_21 1_555 1_555
C26_21 C21_21 1_555 1_555
H12_21 C26_21 1_555 1_555
C28_21 C14_21 1_555 1_555
C29_21 C30_21 1_555 1_555
C31_21 C30_21 1_555 1_555
H14_21 C31_21 1_555 1_555
C32_21 N2_21 1_555 1_555
C33_21 C32_21 1_555 1_555
H15_21 C33_21 1_555 1_555
C34_21 C29_21 1_555 1_555
H16_21 C34_21 1_555 1_555
C35_21 N1_21 1_555 1_555
C36_21 C35_21 1_555 1_555
H17_21 C36_21 1_555 1_555
C37_21 C36_21 1_555 1_555
H18_21 C37_21 1_555 1_555
C38_21 C29_21 1_555 1_555
C6_21 C7_21 1_555 1_555
C10_21 C11_21 1_555 1_555
C18_21 C19_21 1_555 1_555
C23_21 C24_21 1_555 1_555
C24_21 C25_21 1_555 1_555
C25_21 C26_21 1_555 1_555
C31_21 C32_21 1_555 1_555
C33_21 C34_21 1_555 1_555
C37_21 C38_21 1_555 1_555
O3_11 C27_21 1_555 1_555
O4_11 C27_21 1_555 1_555
C8_21 C9_21 1_555 1_555
C9_21 H4_21 1_555 1_555
H5_21 C12_21 1_555 1_555
C13_21 C8_21 1_555 1_555
H6_21 C13_21 1_555 1_555
C27_21 C8_21 1_555 1_555
H19_21 C39_21 1_555 1_555
H20_21 C40_21 1_555 1_555
Cd5_4 O3_11 1_555 1_555
Cd8_4 O4_11 1_555 1_555
C12_21 C13_21 1_555 1_555
C39_21 C40_21 1_555 1_555
O11_11 C27_22 1_555 1_555
O12_11 C27_22 1_555 1_555
C8_22 C9_22 1_555 1_555
C9_22 H4_22 1_555 1_555
H5_22 C12_22 1_555 1_555
C13_22 C8_22 1_555 1_555
H6_22 C13_22 1_555 1_555
C27_22 C8_22 1_555 1_555
H19_22 C39_22 1_555 1_555
H20_22 C40_22 1_555 1_555
C12_22 C13_22 1_555 1_555
C39_22 C40_22 1_555 1_555
Cd5_4 O1_22 1_555 1_555
Cd8_4 O2_22 1_555 1_555
O1_22 C20_22 1_555 1_555
O2_22 C20_22 1_555 1_555
O13_16 C1_22 1_555 1_555
O14_16 C1_22 1_555 1_555
O15_5 C28_22 1_555 1_555
O16_5 C28_22 1_555 1_555
O9_22 Cd8_4 1_555 1_555
O10_22 Cd5_4 1_555 1_555
N1_22 C5_22 1_555 1_555
N2_22 C17_22 1_555 1_555
C1_22 C2_22 1_555 1_555
C2_22 C3_22 1_555 1_555
C3_22 H1_22 1_555 1_555
C4_22 C3_22 1_555 1_555
C5_22 C4_22 1_555 1_555
C6_22 C5_22 1_555 1_555
H2_22 C6_22 1_555 1_555
C7_22 C2_22 1_555 1_555
H3_22 C7_22 1_555 1_555
C10_22 C4_22 1_555 1_555
C11_22 N1_22 1_555 1_555
C14_22 C15_22 1_555 1_555
C15_22 H7_22 1_555 1_555
C16_22 C15_22 1_555 1_555
C17_22 C16_22 1_555 1_555
C18_22 C17_22 1_555 1_555
H8_22 C18_22 1_555 1_555
C19_22 C14_22 1_555 1_555
H9_22 C19_22 1_555 1_555
C20_22 C21_22 1_555 1_555
C21_22 C22_22 1_555 1_555
C22_22 H10_22 1_555 1_555
C23_22 C22_22 1_555 1_555
H11_22 C23_22 1_555 1_555
C24_22 N2_22 1_555 1_555
C25_22 C16_22 1_555 1_555
C26_22 C21_22 1_555 1_555
H12_22 C26_22 1_555 1_555
C28_22 C14_22 1_555 1_555
C29_22 C30_22 1_555 1_555
C31_22 C30_22 1_555 1_555
H14_22 C31_22 1_555 1_555
C32_22 N2_22 1_555 1_555
C33_22 C32_22 1_555 1_555
H15_22 C33_22 1_555 1_555
C34_22 C29_22 1_555 1_555
H16_22 C34_22 1_555 1_555
C35_22 N1_22 1_555 1_555
C36_22 C35_22 1_555 1_555
H17_22 C36_22 1_555 1_555
C37_22 C36_22 1_555 1_555
H18_22 C37_22 1_555 1_555
C38_22 C29_22 1_555 1_555
C6_22 C7_22 1_555 1_555
C10_22 C11_22 1_555 1_555
C18_22 C19_22 1_555 1_555
C23_22 C24_22 1_555 1_555
C24_22 C25_22 1_555 1_555
C25_22 C26_22 1_555 1_555
C31_22 C32_22 1_555 1_555
C33_22 C34_22 1_555 1_555
C37_22 C38_22 1_555 1_555
O9_22 H21_22 1_555 1_555
O9_22 H22_22 1_555 1_555
O10_22 H23_22 1_555 1_555
O10_22 H24_22 1_555 1_555
Cd5_3 O1_23 1_555 1_555
Cd8_3 O2_23 1_555 1_555
O1_23 C20_23 1_555 1_555
O2_23 C20_23 1_555 1_555
O3_12 C27_23 1_555 1_555
O4_12 C27_23 1_555 1_555
O13_14 C1_23 1_555 1_555
O14_14 C1_23 1_555 1_555
O15_7 C28_23 1_555 1_555
O16_7 C28_23 1_555 1_555
O9_23 Cd8_3 1_555 1_555
O10_23 Cd5_3 1_555 1_555
N1_23 C5_23 1_555 1_555
N2_23 C17_23 1_555 1_555
C1_23 C2_23 1_555 1_555
C2_23 C3_23 1_555 1_555
C3_23 H1_23 1_555 1_555
C4_23 C3_23 1_555 1_555
C5_23 C4_23 1_555 1_555
C6_23 C5_23 1_555 1_555
H2_23 C6_23 1_555 1_555
C7_23 C2_23 1_555 1_555
H3_23 C7_23 1_555 1_555
C8_23 C9_23 1_555 1_555
C9_23 H4_23 1_555 1_555
C10_23 C4_23 1_555 1_555
C11_23 N1_23 1_555 1_555
C12_23 C11_23 1_555 1_555
H5_23 C12_23 1_555 1_555
C13_23 C8_23 1_555 1_555
H6_23 C13_23 1_555 1_555
C14_23 C15_23 1_555 1_555
C15_23 H7_23 1_555 1_555
C16_23 C15_23 1_555 1_555
C17_23 C16_23 1_555 1_555
C18_23 C17_23 1_555 1_555
H8_23 C18_23 1_555 1_555
C19_23 C14_23 1_555 1_555
H9_23 C19_23 1_555 1_555
C20_23 C21_23 1_555 1_555
C21_23 C22_23 1_555 1_555
C22_23 H10_23 1_555 1_555
C23_23 C22_23 1_555 1_555
H11_23 C23_23 1_555 1_555
C24_23 N2_23 1_555 1_555
C25_23 C16_23 1_555 1_555
C26_23 C21_23 1_555 1_555
H12_23 C26_23 1_555 1_555
C27_23 C8_23 1_555 1_555
C28_23 C14_23 1_555 1_555
C29_23 C30_23 1_555 1_555
C30_23 H13_23 1_555 1_555
C31_23 C30_23 1_555 1_555
H14_23 C31_23 1_555 1_555
C32_23 N2_23 1_555 1_555
C33_23 C32_23 1_555 1_555
H15_23 C33_23 1_555 1_555
C34_23 C29_23 1_555 1_555
H16_23 C34_23 1_555 1_555
C35_23 N1_23 1_555 1_555
C36_23 C35_23 1_555 1_555
H17_23 C36_23 1_555 1_555
C37_23 C36_23 1_555 1_555
H18_23 C37_23 1_555 1_555
C38_23 C29_23 1_555 1_555
C39_23 C38_23 1_555 1_555
H19_23 C39_23 1_555 1_555
C40_23 C35_23 1_555 1_555
H20_23 C40_23 1_555 1_555
Cd5 O3_12 1_555 1_555
Cd8 O4_12 1_555 1_555
O11_12 Cd5_3 1_555 1_555
O12_12 Cd8_3 1_555 1_555
C6_23 C7_23 1_555 1_555
C9_23 C10_23 1_555 1_555
C10_23 C11_23 1_555 1_555
C12_23 C13_23 1_555 1_555
C18_23 C19_23 1_555 1_555
C23_23 C24_23 1_555 1_555
C24_23 C25_23 1_555 1_555
C25_23 C26_23 1_555 1_555
C31_23 C32_23 1_555 1_555
C33_23 C34_23 1_555 1_555
C37_23 C38_23 1_555 1_555
C39_23 C40_23 1_555 1_555
O9_23 H21_23 1_555 1_555
O9_23 H22_23 1_555 1_555
O10_23 H23_23 1_555 1_555
O10_23 H24_23 1_555 1_555
O1_24 C20_24 1_555 1_555
O11_12 C27_24 1_555 1_555
O12_12 C27_24 1_555 1_555
O13_15 C1_24 1_555 1_555
O14_15 C1_24 1_555 1_555
O15_6 C28_24 1_555 1_555
O16_6 C28_24 1_555 1_555
N1_24 C5_24 1_555 1_555
N2_24 C17_24 1_555 1_555
C1_24 C2_24 1_555 1_555
C2_24 C3_24 1_555 1_555
C3_24 H1_24 1_555 1_555
C4_24 C3_24 1_555 1_555
C5_24 C4_24 1_555 1_555
C6_24 C5_24 1_555 1_555
H2_24 C6_24 1_555 1_555
C7_24 C2_24 1_555 1_555
H3_24 C7_24 1_555 1_555
C8_24 C9_24 1_555 1_555
C9_24 H4_24 1_555 1_555
C10_24 C4_24 1_555 1_555
C11_24 N1_24 1_555 1_555
C12_24 C11_24 1_555 1_555
H5_24 C12_24 1_555 1_555
C13_24 C8_24 1_555 1_555
H6_24 C13_24 1_555 1_555
C14_24 C15_24 1_555 1_555
C15_24 H7_24 1_555 1_555
C16_24 C15_24 1_555 1_555
C17_24 C16_24 1_555 1_555
C18_24 C17_24 1_555 1_555
H8_24 C18_24 1_555 1_555
C19_24 C14_24 1_555 1_555
H9_24 C19_24 1_555 1_555
C20_24 C21_24 1_555 1_555
C21_24 C22_24 1_555 1_555
C22_24 H10_24 1_555 1_555
C23_24 C22_24 1_555 1_555
H11_24 C23_24 1_555 1_555
C24_24 N2_24 1_555 1_555
C25_24 C16_24 1_555 1_555
C26_24 C21_24 1_555 1_555
H12_24 C26_24 1_555 1_555
C27_24 C8_24 1_555 1_555
C28_24 C14_24 1_555 1_555
C29_24 C30_24 1_555 1_555
C30_24 H13_24 1_555 1_555
C31_24 C30_24 1_555 1_555
H14_24 C31_24 1_555 1_555
C32_24 N2_24 1_555 1_555
C33_24 C32_24 1_555 1_555
H15_24 C33_24 1_555 1_555
C34_24 C29_24 1_555 1_555
H16_24 C34_24 1_555 1_555
C35_24 N1_24 1_555 1_555
C36_24 C35_24 1_555 1_555
H17_24 C36_24 1_555 1_555
C37_24 C36_24 1_555 1_555
H18_24 C37_24 1_555 1_555
C38_24 C29_24 1_555 1_555
C39_24 C38_24 1_555 1_555
H19_24 C39_24 1_555 1_555
C40_24 C35_24 1_555 1_555
H20_24 C40_24 1_555 1_555
C6_24 C7_24 1_555 1_555
C9_24 C10_24 1_555 1_555
C10_24 C11_24 1_555 1_555
C12_24 C13_24 1_555 1_555
C18_24 C19_24 1_555 1_555
C23_24 C24_24 1_555 1_555
C24_24 C25_24 1_555 1_555
C25_24 C26_24 1_555 1_555
C31_24 C32_24 1_555 1_555
C33_24 C34_24 1_555 1_555
C37_24 C38_24 1_555 1_555
C39_24 C40_24 1_555 1_555
Cd8 O2_24 1_555 1_555
O9_24 Cd8 1_555 1_555
O10_24 Cd5 1_555 1_555
O9_24 H21_24 1_555 1_555
O9_24 H22_24 1_555 1_555
O10_24 H23_24 1_555 1_555
O10_24 H24_24 1_555 1_555

#END
