
###############################################################################
#
# This file contains modified crystal structure data generated from the
# MOF subset of the Cambridge Structural Database (CSD) v543 
# hosted by the Cambridge Crystallographic Data Centre (CCDC).
#
# This work is licensed under the Creative Commons
# Attribution-NonCommercial-ShareAlike 4.0 International License.
# To view a copy of this license, visit
# http://creativecommons.org/licenses/by-nc-sa/4.0/
# or send a letter to
# Creative Commons, PO Box 1866, Mountain View, CA 94042, USA.
#
# CIF created using the CSD Python API on 29 September 2022
# The structure has been converted into the P1 space group
# The structure has a 3D framework
# The original CSD entry PAHYOQ is in the cubic crystal system
# The framework has been calculated to contain at least 10.0% void space
# The void calculation uses a probe of radius 1.32A, grid spacing 0.4
# H atom positions have been added when not included in the experimental data
#
###############################################################################

data_PAHYOQ
_chemical_formula_moiety         '(C960 H576 Co48 N48 O240)n'
_symmetry_cell_setting           triclinic
_symmetry_space_group_name_H-M   'P 1'
_symmetry_Int_Tables_number      1
_space_group_name_Hall           'P 1'
loop_
_symmetry_equiv_pos_site_id
_symmetry_equiv_pos_as_xyz
1 x,y,z
_cell_length_a                   45.680(5)
_cell_length_b                   45.680(5)
_cell_length_c                   45.680(5)
_cell_angle_alpha                90
_cell_angle_beta                 90
_cell_angle_gamma                90
_cell_volume                     95318.7
loop_
_atom_site_label
_atom_site_type_symbol
_atom_site_fract_x
_atom_site_fract_y
_atom_site_fract_z
O3 O 0.14689(17) 0.01574(13) 0.42577(15)
O4 O 0.19444(19) 0.02840(15) 0.41573(15)
C8 C 0.16431(16) 0.01210(18) 0.37675(11)
C9 C 0.13659(14) 0.00357(17) 0.36754(13)
H4 H 0.120938 0.002609 0.381195
C12 C 0.18241(12) 0.0064(2) 0.32758(14)
H5 H 0.198060 0.007346 0.313918
C13 C 0.18722(12) 0.0135(2) 0.35676(15)
H6 H 0.206163 0.019344 0.363056
C27 C 0.1684(3) 0.0194(2) 0.4075(3)
H13 H 0.219291 0.002713 0.175543
H19 H 0.186127 0.008465 0.206493
H20 H 0.150472 0.012088 0.243094
Co3 Co 0.14605(2) 0.02279(2) 0.46925(2)
Co6 Co 0.20681(2) 0.03311(3) 0.45754(3)
O13 O 0.33883(15) 0.01872(14) 0.97515(13)
O14 O 0.29081(16) 0.00984(17) 0.96054(15)
O1 O 0.34046(14) 0.96836(13) 0.01016(13)
O2 O 0.29182(16) 0.96398(18) 0.00143(18)
O5 O 0.01872(14) 0.97515(13) 0.33883(15)
O6 O 0.00984(17) 0.96054(15) 0.29081(16)
O7 O 0.43390(13) 0.96150(14) 0.14075(17)
O8 O 0.42622(14) 0.95721(15) 0.18873(19)
N1 N 0.14635(19) 0.9885(3) 0.29240(16)
N2 N 0.29692(18) 0.9545(2) 0.13965(19)
C1 C 0.0273(3) 0.9700(2) 0.3117(3)
C2 C 0.05820(10) 0.97307(16) 0.30498(15)
C3 C 0.07697(14) 0.98296(15) 0.32679(11)
H1 H 0.069683 0.986580 0.345927
C4 C 0.10641(13) 0.98755(17) 0.32060(12)
C5 C 0.11707(11) 0.98225(19) 0.29260(14)
C6 C 0.09830(14) 0.9724(2) 0.27079(11)
H2 H 0.105592 0.968735 0.251648
C7 C 0.06887(13) 0.96777(18) 0.27698(13)
H3 H 0.056035 0.961010 0.262068
C10 C 0.13178(11) 0.99644(17) 0.33835(14)
C11 C 0.15469(14) 0.99785(19) 0.31837(11)
C14 C 0.38533(11) 0.95673(17) 0.15840(15)
C15 C 0.37429(13) 0.95859(16) 0.13011(13)
H7 H 0.387288 0.960175 0.113957
C16 C 0.34422(13) 0.95814(18) 0.12545(11)
C17 C 0.32520(10) 0.9558(2) 0.14909(14)
C18 C 0.33624(14) 0.9540(2) 0.17738(12)
H8 H 0.323236 0.952382 0.193538
C19 C 0.36631(15) 0.95441(19) 0.18204(11)
H9 H 0.373853 0.953137 0.201378
C20 C 0.3146(2) 0.9660(2) 0.0199(2)
C21 C 0.30827(14) 0.9631(2) 0.05029(11)
C22 C 0.27961(12) 0.9631(2) 0.06052(13)
H10 H 0.263769 0.964089 0.047089
C23 C 0.27414(10) 0.9616(2) 0.09042(15)
H11 H 0.254554 0.961589 0.097417
C24 C 0.29732(13) 0.9602(2) 0.11008(11)
C25 C 0.32598(11) 0.9602(2) 0.09984(13)
C26 C 0.33145(10) 0.96167(19) 0.06994(14)
H12 H 0.351033 0.961695 0.062947
C28 C 0.4170(3) 0.9577(2) 0.1629(3)
C29 C 0.22529(16) 0.9639(2) 0.19678(18)
C30 C 0.23128(18) 0.9857(2) 0.1764(2)
C31 C 0.25480(19) 0.9827(2) 0.15736(19)
H14 H 0.258897 0.997633 0.143456
C32 C 0.27234(16) 0.9579(2) 0.15865(18)
C33 C 0.26635(18) 0.9361(2) 0.1790(2)
H15 H 0.278341 0.919103 0.179886
C34 C 0.24283(19) 0.9391(2) 0.19807(19)
H16 H 0.238735 0.924182 0.211974
C35 C 0.1655(2) 0.9782(4) 0.2679(2)
C36 C 0.1871(3) 0.9567(3) 0.2697(3)
H17 H 0.187295 0.943554 0.285749
C37 C 0.2082(3) 0.9546(3) 0.2479(3)
H18 H 0.222950 0.939931 0.249148
C38 C 0.2079(3) 0.9739(3) 0.2244(2)
C39 C 0.1864(3) 0.9953(3) 0.2226(2)
C40 C 0.1652(3) 0.9974(3) 0.2443(3)
Co5 Co 0.47721(2) 0.96925(2) 0.14605(2)
Co8 Co 0.46689(3) 0.95754(3) 0.20681(2)
Co1 Co 0.35395(2) 0.97721(2) 0.96925(2)
Co2 Co 0.29319(2) 0.96689(3) 0.95754(3)
O9 O 0.25099(16) 0.9568(2) 0.9504(2)
O10 O 0.39552(16) 0.9873(2) 0.9794(2)
O11 O 0.35311(17) 0.98426(13) 0.92577(15)
O12 O 0.30556(19) 0.97160(15) 0.91573(15)
O15 O 0.35925(17) 0.93390(13) 0.96150(14)
O16 O 0.31127(19) 0.92622(14) 0.95721(15)
H21 H 0.238276 0.971374 0.960325
H22 H 0.246993 0.957055 0.929034
H23 H 0.405039 0.970178 0.988823
H24 H 0.406334 0.992543 0.961286
Co4 Co 0.97721(2) 0.96925(2) 0.35395(2)
Co7 Co 0.96689(3) 0.95754(3) 0.29319(2)
O1_2 O 0.15954(14) 0.03164(13) 0.51016(13)
O2_2 O 0.20818(16) 0.03602(18) 0.50143(18)
O5_2 O 0.48128(14) 0.02485(13) 0.83883(15)
O6_2 O 0.49016(17) 0.03946(15) 0.79081(16)
O7_2 O 0.06610(13) 0.03850(14) 0.64075(17)
O8_2 O 0.07378(14) 0.04279(15) 0.68873(19)
O9_2 O 0.24901(16) 0.0432(2) 0.4504(2)
O10_2 O 0.10448(16) 0.0127(2) 0.4794(2)
N1_2 N 0.35365(19) 0.0115(3) 0.79240(16)
N2_2 N 0.20308(18) 0.0455(2) 0.63965(19)
C1_2 C 0.4727(3) 0.0300(2) 0.8117(3)
C2_2 C 0.44180(10) 0.02693(16) 0.80498(15)
C3_2 C 0.42303(14) 0.01704(15) 0.82679(11)
H1_2 H 0.430317 0.013420 0.845927
C4_2 C 0.39359(13) 0.01245(17) 0.82060(12)
C5_2 C 0.38293(11) 0.01775(19) 0.79260(14)
C6_2 C 0.40170(14) 0.0276(2) 0.77079(11)
H2_2 H 0.394408 0.031265 0.751648
C7_2 C 0.43113(13) 0.03223(18) 0.77698(13)
H3_2 H 0.443965 0.038990 0.762068
C10_2 C 0.36822(11) 0.00356(17) 0.83835(14)
C11_2 C 0.34531(14) 0.00215(19) 0.81837(11)
C14_2 C 0.11467(11) 0.04327(17) 0.65840(15)
C15_2 C 0.12571(13) 0.04141(16) 0.63011(13)
H7_2 H 0.112712 0.039825 0.613957
C16_2 C 0.15578(13) 0.04186(18) 0.62545(11)
C17_2 C 0.17480(10) 0.0442(2) 0.64909(14)
C18_2 C 0.16376(14) 0.0460(2) 0.67738(12)
H8_2 H 0.176764 0.047618 0.693538
C19_2 C 0.13369(15) 0.04559(19) 0.68204(11)
H9_2 H 0.126147 0.046863 0.701378
C20_2 C 0.1854(2) 0.0340(2) 0.5199(2)
C21_2 C 0.19173(14) 0.0369(2) 0.55029(11)
C22_2 C 0.22039(12) 0.0369(2) 0.56052(13)
H10_2 H 0.236231 0.035911 0.547089
C23_2 C 0.22586(10) 0.0384(2) 0.59042(15)
H11_2 H 0.245446 0.038411 0.597417
C24_2 C 0.20268(13) 0.0398(2) 0.61008(11)
C25_2 C 0.17402(11) 0.0398(2) 0.59984(13)
C26_2 C 0.16855(10) 0.03833(19) 0.56994(14)
H12_2 H 0.148967 0.038305 0.562947
C28_2 C 0.0830(3) 0.0423(2) 0.6629(3)
C29_2 C 0.27471(16) 0.0361(2) 0.69678(18)
C30_2 C 0.26872(18) 0.0143(2) 0.6764(2)
C31_2 C 0.24520(19) 0.0173(2) 0.65736(19)
H14_2 H 0.241103 0.002367 0.643456
C32_2 C 0.22766(16) 0.0421(2) 0.65865(18)
C33_2 C 0.23365(18) 0.0639(2) 0.6790(2)
H15_2 H 0.221659 0.080897 0.679886
C34_2 C 0.25717(19) 0.0609(2) 0.69807(19)
H16_2 H 0.261265 0.075818 0.711974
C35_2 C 0.3345(2) 0.0218(4) 0.7679(2)
C36_2 C 0.3129(3) 0.0433(3) 0.7697(3)
H17_2 H 0.312705 0.056446 0.785749
C37_2 C 0.2918(3) 0.0454(3) 0.7479(3)
H18_2 H 0.277050 0.060069 0.749148
C38_2 C 0.2921(3) 0.0261(3) 0.7244(2)
C39_2 C 0.3136(3) 0.0047(3) 0.7226(2)
C40_2 C 0.3348(3) 0.0026(3) 0.7443(3)
Co4_2 Co 0.52279(2) 0.03075(2) 0.85395(2)
Co5_2 Co 0.02279(2) 0.03075(2) 0.64605(2)
Co7_2 Co 0.53311(3) 0.04246(3) 0.79319(2)
Co8_2 Co 0.03311(3) 0.04246(3) 0.70681(2)
O15_2 O 0.14075(17) 0.06610(13) 0.46150(14)
O16_2 O 0.18873(19) 0.07378(14) 0.45721(15)
H21_2 H 0.261724 0.0286262 0.460325
H22_2 H 0.253007 0.0429446 0.429034
H23_2 H 0.0949614 0.0298218 0.488823
H24_2 H 0.0936662 0.00745734 0.461286
C8_2 C 0.33569(16) 0.98790(18) 0.87675(11)
C9_2 C 0.36341(14) 0.99643(17) 0.86754(13)
H4_2 H 0.379062 0.997391 0.881195
C12_2 C 0.31759(12) 0.9936(2) 0.82758(14)
H5_2 H 0.301940 0.992654 0.813918
C13_2 C 0.31278(12) 0.9865(2) 0.85676(15)
H6_2 H 0.293837 0.980656 0.863056
C27_2 C 0.3316(3) 0.9806(2) 0.9075(3)
H13_2 H 0.280709 0.997287 0.675543
H19_2 H 0.313873 0.991535 0.706493
H20_2 H 0.349528 0.987912 0.743094
O13_2 O 0.16117(15) 0.98128(14) 0.47515(13)
O14_2 O 0.20919(16) 0.99016(17) 0.46054(15)
Co4_3 Co 0.02279(2) 0.46925(2) 0.14605(2)
Co7_3 Co 0.03311(3) 0.45754(3) 0.20681(2)
Co1_2 Co 0.64605(2) 0.47721(2) 0.53075(2)
Co2_2 Co 0.70681(2) 0.46689(3) 0.54246(3)
O1_3 O 0.65954(14) 0.46836(13) 0.48984(13)
O2_3 O 0.70818(16) 0.46398(18) 0.49857(18)
O3_2 O 0.85311(17) 0.51574(13) 0.07423(15)
O4_2 O 0.80556(19) 0.52840(15) 0.08427(15)
O5_3 O 0.98128(14) 0.47515(13) 0.16117(15)
O6_3 O 0.99016(17) 0.46054(15) 0.20919(16)
O7_3 O 0.56610(13) 0.46150(14) 0.35925(17)
O8_3 O 0.57378(14) 0.45721(15) 0.31127(19)
O9_3 O 0.74901(16) 0.4568(2) 0.5496(2)
O10_3 O 0.60448(16) 0.4873(2) 0.5206(2)
N1_3 N 0.85365(19) 0.4885(3) 0.20760(16)
N2_3 N 0.70308(18) 0.4545(2) 0.36035(19)
C1_3 C 0.9727(3) 0.4700(2) 0.1883(3)
C2_3 C 0.94180(10) 0.47307(16) 0.19502(15)
C3_3 C 0.92303(14) 0.48296(15) 0.17321(11)
H1_3 H 0.930317 0.486580 0.154073
C4_3 C 0.89359(13) 0.48755(17) 0.17940(12)
C5_3 C 0.88293(11) 0.48225(19) 0.20740(14)
C6_3 C 0.90170(14) 0.4724(2) 0.22921(11)
H2_3 H 0.894408 0.468735 0.248352
C7_3 C 0.93113(13) 0.46777(18) 0.22302(13)
H3_3 H 0.943965 0.461010 0.237932
C8_3 C 0.83569(16) 0.51210(18) 0.12325(11)
C9_3 C 0.86341(14) 0.50357(17) 0.13246(13)
H4_3 H 0.879062 0.502609 0.118805
C10_3 C 0.86822(11) 0.49644(17) 0.16165(14)
C11_3 C 0.84531(14) 0.49785(19) 0.18163(11)
C12_3 C 0.81759(12) 0.5064(2) 0.17242(14)
H5_3 H 0.801940 0.507346 0.186082
C13_3 C 0.81278(12) 0.5135(2) 0.14324(15)
H6_3 H 0.793837 0.519344 0.136944
C14_3 C 0.61467(11) 0.45673(17) 0.34160(15)
C15_3 C 0.62571(13) 0.45859(16) 0.36989(13)
H7_3 H 0.612712 0.460175 0.386043
C16_3 C 0.65578(13) 0.45814(18) 0.37455(11)
C17_3 C 0.67480(10) 0.4558(2) 0.35091(14)
C18_3 C 0.66376(14) 0.4540(2) 0.32262(12)
H8_3 H 0.676764 0.452382 0.306462
C19_3 C 0.63369(15) 0.45441(19) 0.31796(11)
H9_3 H 0.626147 0.453137 0.298622
C20_3 C 0.6854(2) 0.4660(2) 0.4801(2)
C21_3 C 0.69173(14) 0.4631(2) 0.44971(11)
C22_3 C 0.72039(12) 0.4631(2) 0.43948(13)
H10_3 H 0.736231 0.464089 0.452911
C23_3 C 0.72586(10) 0.4616(2) 0.40958(15)
H11_3 H 0.745446 0.461589 0.402583
C24_3 C 0.70268(13) 0.4602(2) 0.38992(11)
C25_3 C 0.67402(11) 0.4602(2) 0.40016(13)
C26_3 C 0.66855(10) 0.46167(19) 0.43006(14)
H12_3 H 0.648967 0.461695 0.437053
C27_3 C 0.8316(3) 0.5194(2) 0.0925(3)
C28_3 C 0.5830(3) 0.4577(2) 0.3371(3)
C29_3 C 0.77471(16) 0.4639(2) 0.30322(18)
C30_3 C 0.76872(18) 0.4857(2) 0.3236(2)
H13_3 H 0.780709 0.502713 0.324457
C31_3 C 0.74520(19) 0.4827(2) 0.34264(19)
H14_3 H 0.741103 0.497633 0.356544
C32_3 C 0.72766(16) 0.4579(2) 0.34135(18)
C33_3 C 0.73365(18) 0.4361(2) 0.3210(2)
H15_3 H 0.721659 0.419103 0.320114
C34_3 C 0.75717(19) 0.4391(2) 0.30193(19)
H16_3 H 0.761265 0.424182 0.288026
C35_3 C 0.8345(2) 0.4782(4) 0.2321(2)
C36_3 C 0.8129(3) 0.4567(3) 0.2303(3)
H17_3 H 0.812705 0.443554 0.214251
C37_3 C 0.7918(3) 0.4546(3) 0.2521(3)
H18_3 H 0.777050 0.439931 0.250852
C38_3 C 0.7921(3) 0.4739(3) 0.2756(2)
C39_3 C 0.8136(3) 0.4953(3) 0.2774(2)
H19_3 H 0.813873 0.508465 0.293507
C40_3 C 0.8348(3) 0.4974(3) 0.2557(3)
H20_3 H 0.849528 0.512088 0.256906
Co3_2 Co 0.85395(2) 0.52279(2) 0.03075(2)
Co5_3 Co 0.52279(2) 0.46925(2) 0.35395(2)
Co6_2 Co 0.79319(2) 0.53311(3) 0.04246(3)
Co8_3 Co 0.53311(3) 0.45754(3) 0.29319(2)
O11_2 O 0.64689(17) 0.48426(13) 0.57423(15)
O12_2 O 0.69444(19) 0.47160(15) 0.58427(15)
O13_3 O 0.66117(15) 0.51872(14) 0.52485(13)
O14_3 O 0.70919(16) 0.50984(17) 0.53946(15)
O15_3 O 0.64075(17) 0.43390(13) 0.53850(14)
O16_3 O 0.68873(19) 0.42622(14) 0.54279(15)
H21_3 H 0.761724 0.471374 0.539675
H22_3 H 0.753007 0.457055 0.570966
H23_3 H 0.594961 0.470178 0.511177
H24_3 H 0.593666 0.492543 0.538714
O9_4 O 0.75099(16) 0.5432(2) 0.0496(2)
O10_4 O 0.89552(16) 0.5127(2) 0.0206(2)
O13_4 O 0.83883(15) 0.48128(14) 0.02485(13)
O14_4 O 0.79081(16) 0.49016(17) 0.03946(15)
O15_4 O 0.85925(17) 0.56610(13) 0.03850(14)
O16_4 O 0.81127(19) 0.57378(14) 0.04279(15)
H21_4 H 0.738276 0.528626 0.0396753
H22_4 H 0.746993 0.542945 0.0709661
H23_4 H 0.905039 0.529822 0.0111773
H24_4 H 0.906334 0.507457 0.0387142
O1_4 O 0.84046(14) 0.53164(13) 0.98984(13)
O2_4 O 0.79182(16) 0.53602(18) 0.99857(18)
O5_4 O 0.51872(14) 0.52485(13) 0.66117(15)
O6_4 O 0.50984(17) 0.53946(15) 0.70919(16)
O7_4 O 0.93390(13) 0.53850(14) 0.85925(17)
O8_4 O 0.92622(14) 0.54279(15) 0.81127(19)
N1_4 N 0.64635(19) 0.5115(3) 0.70760(16)
N2_4 N 0.79692(18) 0.5455(2) 0.86035(19)
C1_4 C 0.5273(3) 0.5300(2) 0.6883(3)
C2_4 C 0.55820(10) 0.52693(16) 0.69502(15)
C3_4 C 0.57697(14) 0.51704(15) 0.67321(11)
H1_4 H 0.569683 0.513420 0.654073
C4_4 C 0.60641(13) 0.51245(17) 0.67940(12)
C5_4 C 0.61707(11) 0.51775(19) 0.70740(14)
C6_4 C 0.59830(14) 0.5276(2) 0.72921(11)
H2_4 H 0.605592 0.531265 0.748352
C7_4 C 0.56887(13) 0.53223(18) 0.72302(13)
H3_4 H 0.556035 0.538990 0.737932
C8_4 C 0.66431(16) 0.48790(18) 0.62325(11)
C9_4 C 0.63659(14) 0.49643(17) 0.63246(13)
H4_4 H 0.620938 0.497391 0.618805
C10_4 C 0.63178(11) 0.50356(17) 0.66165(14)
C11_4 C 0.65469(14) 0.50215(19) 0.68163(11)
C12_4 C 0.68241(12) 0.4936(2) 0.67242(14)
H5_4 H 0.698060 0.492654 0.686082
C13_4 C 0.68722(12) 0.4865(2) 0.64324(15)
H6_4 H 0.706163 0.480656 0.636944
C14_4 C 0.88533(11) 0.54327(17) 0.84160(15)
C15_4 C 0.87429(13) 0.54141(16) 0.86989(13)
H7_4 H 0.887288 0.539825 0.886043
C16_4 C 0.84422(13) 0.54186(18) 0.87455(11)
C17_4 C 0.82520(10) 0.5442(2) 0.85091(14)
C18_4 C 0.83624(14) 0.5460(2) 0.82262(12)
H8_4 H 0.823236 0.547618 0.806462
C19_4 C 0.86631(15) 0.54559(19) 0.81796(11)
H9_4 H 0.873853 0.546863 0.798622
C20_4 C 0.8146(2) 0.5340(2) 0.9801(2)
C21_4 C 0.80827(14) 0.5369(2) 0.94971(11)
C22_4 C 0.77961(12) 0.5369(2) 0.93948(13)
H10_4 H 0.763769 0.535911 0.952911
C23_4 C 0.77414(10) 0.5384(2) 0.90958(15)
H11_4 H 0.754554 0.538411 0.902583
C24_4 C 0.79732(13) 0.5398(2) 0.88992(11)
C25_4 C 0.82598(11) 0.5398(2) 0.90016(13)
C26_4 C 0.83145(10) 0.53833(19) 0.93006(14)
H12_4 H 0.851033 0.538305 0.937053
C27_4 C 0.6684(3) 0.4806(2) 0.5925(3)
C28_4 C 0.9170(3) 0.5423(2) 0.8371(3)
C29_4 C 0.72529(16) 0.5361(2) 0.80322(18)
C30_4 C 0.73128(18) 0.5143(2) 0.8236(2)
H13_4 H 0.719291 0.497287 0.824457
C31_4 C 0.75480(19) 0.5173(2) 0.84264(19)
H14_4 H 0.758897 0.502367 0.856544
C32_4 C 0.77234(16) 0.5421(2) 0.84135(18)
C33_4 C 0.76635(18) 0.5639(2) 0.8210(2)
H15_4 H 0.778341 0.580897 0.820114
C34_4 C 0.74283(19) 0.5609(2) 0.80193(19)
H16_4 H 0.738735 0.575818 0.788026
C35_4 C 0.6655(2) 0.5218(4) 0.7321(2)
C36_4 C 0.6871(3) 0.5433(3) 0.7303(3)
H17_4 H 0.687295 0.556446 0.714251
C37_4 C 0.7082(3) 0.5454(3) 0.7521(3)
H18_4 H 0.722950 0.560069 0.750852
C38_4 C 0.7079(3) 0.5261(3) 0.7756(2)
C39_4 C 0.6864(3) 0.5047(3) 0.7774(2)
H19_4 H 0.686127 0.491535 0.793507
C40_4 C 0.6652(3) 0.5026(3) 0.7557(3)
H20_4 H 0.650472 0.487912 0.756906
Co4_4 Co 0.47721(2) 0.53075(2) 0.64605(2)
Co5_4 Co 0.97721(2) 0.53075(2) 0.85395(2)
Co7_4 Co 0.46689(3) 0.54246(3) 0.70681(2)
Co8_4 Co 0.96689(3) 0.54246(3) 0.79319(2)
O3_3 O 0.42577(15) 0.14689(17) 0.01574(13)
O4_3 O 0.41573(15) 0.19444(19) 0.02840(15)
C8_5 C 0.37675(11) 0.16431(16) 0.01210(18)
C9_5 C 0.36754(13) 0.13659(14) 0.00357(17)
H4_5 H 0.381195 0.120938 0.002609
C12_5 C 0.32758(14) 0.18241(12) 0.0064(2)
H5_5 H 0.313918 0.198060 0.007346
C13_5 C 0.35676(15) 0.18722(12) 0.0135(2)
H6_5 H 0.363056 0.206163 0.019344
C27_5 C 0.4075(3) 0.1684(3) 0.0194(2)
H13_5 H 0.175543 0.219291 0.002713
H19_5 H 0.206493 0.186127 0.008465
H20_5 H 0.243094 0.150472 0.012088
Co3_3 Co 0.46925(2) 0.14605(2) 0.02279(2)
Co6_3 Co 0.45754(3) 0.20681(2) 0.03311(3)
O1_5 O 0.01016(13) 0.34046(14) 0.96836(13)
O2_5 O 0.00143(18) 0.29182(16) 0.96398(18)
O7_5 O 0.14075(17) 0.43390(13) 0.96150(14)
O8_5 O 0.18873(19) 0.42622(14) 0.95721(15)
N1_5 N 0.29240(16) 0.14635(19) 0.9885(3)
N2_5 N 0.13965(19) 0.29692(18) 0.9545(2)
C1_5 C 0.3117(3) 0.0273(3) 0.9700(2)
C2_5 C 0.30498(15) 0.05820(10) 0.97307(16)
C3_5 C 0.32679(11) 0.07697(14) 0.98296(15)
H1_5 H 0.345927 0.069683 0.986580
C4_5 C 0.32060(12) 0.10641(13) 0.98755(17)
C5_5 C 0.29260(14) 0.11707(11) 0.98225(19)
C6_5 C 0.27079(11) 0.09830(14) 0.9724(2)
H2_5 H 0.251648 0.105592 0.968735
C7_5 C 0.27698(13) 0.06887(13) 0.96777(18)
H3_5 H 0.262068 0.056035 0.961010
C10_5 C 0.33835(14) 0.13178(11) 0.99644(17)
C11_5 C 0.31837(11) 0.15469(14) 0.99785(19)
C14_5 C 0.15840(15) 0.38533(11) 0.95673(17)
C15_5 C 0.13011(13) 0.37429(13) 0.95859(16)
H7_5 H 0.113957 0.387288 0.960175
C16_5 C 0.12545(11) 0.34422(13) 0.95814(18)
C17_5 C 0.14909(14) 0.32520(10) 0.9558(2)
C18_5 C 0.17738(12) 0.33624(14) 0.9540(2)
H8_5 H 0.193538 0.323236 0.952382
C19_5 C 0.18204(11) 0.36631(15) 0.95441(19)
H9_5 H 0.201378 0.373853 0.953137
C20_5 C 0.0199(2) 0.3146(2) 0.9660(2)
C21_5 C 0.05029(11) 0.30827(14) 0.9631(2)
C22_5 C 0.06052(13) 0.27961(12) 0.9631(2)
H10_5 H 0.047089 0.263769 0.964089
C23_5 C 0.09042(15) 0.27414(10) 0.9616(2)
H11_5 H 0.097417 0.254554 0.961589
C24_5 C 0.11008(11) 0.29732(13) 0.9602(2)
C25_5 C 0.09984(13) 0.32598(11) 0.9602(2)
C26_5 C 0.06994(14) 0.33145(10) 0.96167(19)
H12_5 H 0.062947 0.351033 0.961695
C28_5 C 0.1629(3) 0.4170(3) 0.9577(2)
C29_5 C 0.19678(18) 0.22529(16) 0.9639(2)
C30_5 C 0.1764(2) 0.23128(18) 0.9857(2)
C31_5 C 0.15736(19) 0.25480(19) 0.9827(2)
H14_5 H 0.143456 0.258897 0.997633
C32_5 C 0.15865(18) 0.27234(16) 0.9579(2)
C33_5 C 0.1790(2) 0.26635(18) 0.9361(2)
H15_5 H 0.179886 0.278341 0.919103
C34_5 C 0.19807(19) 0.24283(19) 0.9391(2)
H16_5 H 0.211974 0.238735 0.924182
C35_5 C 0.2679(2) 0.1655(2) 0.9782(4)
C36_5 C 0.2697(3) 0.1871(3) 0.9567(3)
H17_5 H 0.285749 0.187295 0.943554
C37_5 C 0.2479(3) 0.2082(3) 0.9546(3)
H18_5 H 0.249148 0.222950 0.939931
C38_5 C 0.2244(2) 0.2079(3) 0.9739(3)
C39_5 C 0.2226(2) 0.1864(3) 0.9953(3)
C40_5 C 0.2443(3) 0.1652(3) 0.9974(3)
Co5_5 Co 0.14605(2) 0.47721(2) 0.96925(2)
Co8_5 Co 0.20681(2) 0.46689(3) 0.95754(3)
O13_5 O 0.97515(13) 0.33883(15) 0.01872(14)
O14_5 O 0.96054(15) 0.29081(16) 0.00984(17)
Co1_3 Co 0.96925(2) 0.35395(2) 0.97721(2)
Co2_3 Co 0.95754(3) 0.29319(2) 0.96689(3)
O9_5 O 0.9504(2) 0.25099(16) 0.9568(2)
O10_5 O 0.9794(2) 0.39552(16) 0.9873(2)
O11_3 O 0.92577(15) 0.35311(17) 0.98426(13)
O12_3 O 0.91573(15) 0.30556(19) 0.97160(15)
O15_5 O 0.96150(14) 0.35925(17) 0.93390(13)
O16_5 O 0.95721(15) 0.31127(19) 0.92622(14)
H21_5 H 0.960325 0.238276 0.971374
H22_5 H 0.929034 0.246993 0.957055
H23_5 H 0.988823 0.405039 0.970178
H24_5 H 0.961286 0.406334 0.992543
O1_6 O 0.51016(13) 0.15954(14) 0.03164(13)
O2_6 O 0.50143(18) 0.20818(16) 0.03602(18)
O7_6 O 0.64075(17) 0.06610(13) 0.03850(14)
O8_6 O 0.68873(19) 0.07378(14) 0.04279(15)
O9_6 O 0.4504(2) 0.24901(16) 0.0432(2)
O10_6 O 0.4794(2) 0.10448(16) 0.0127(2)
N1_6 N 0.79240(16) 0.35365(19) 0.0115(3)
N2_6 N 0.63965(19) 0.20308(18) 0.0455(2)
C1_6 C 0.8117(3) 0.4727(3) 0.0300(2)
C2_6 C 0.80498(15) 0.44180(10) 0.02693(16)
C3_6 C 0.82679(11) 0.42303(14) 0.01704(15)
H1_6 H 0.845927 0.430317 0.013420
C4_6 C 0.82060(12) 0.39359(13) 0.01245(17)
C5_6 C 0.79260(14) 0.38293(11) 0.01775(19)
C6_6 C 0.77079(11) 0.40170(14) 0.0276(2)
H2_6 H 0.751648 0.394408 0.031265
C7_6 C 0.77698(13) 0.43113(13) 0.03223(18)
H3_6 H 0.762068 0.443965 0.038990
C10_6 C 0.83835(14) 0.36822(11) 0.00356(17)
C11_6 C 0.81837(11) 0.34531(14) 0.00215(19)
C14_6 C 0.65840(15) 0.11467(11) 0.04327(17)
C15_6 C 0.63011(13) 0.12571(13) 0.04141(16)
H7_6 H 0.613957 0.112712 0.039825
C16_6 C 0.62545(11) 0.15578(13) 0.04186(18)
C17_6 C 0.64909(14) 0.17480(10) 0.0442(2)
C18_6 C 0.67738(12) 0.16376(14) 0.0460(2)
H8_6 H 0.693538 0.176764 0.047618
C19_6 C 0.68204(11) 0.13369(15) 0.04559(19)
H9_6 H 0.701378 0.126147 0.046863
C20_6 C 0.5199(2) 0.1854(2) 0.0340(2)
C21_6 C 0.55029(11) 0.19173(14) 0.0369(2)
C22_6 C 0.56052(13) 0.22039(12) 0.0369(2)
H10_6 H 0.547089 0.236231 0.035911
C23_6 C 0.59042(15) 0.22586(10) 0.0384(2)
H11_6 H 0.597417 0.245446 0.038411
C24_6 C 0.61008(11) 0.20268(13) 0.0398(2)
C25_6 C 0.59984(13) 0.17402(11) 0.0398(2)
C26_6 C 0.56994(14) 0.16855(10) 0.03833(19)
H12_6 H 0.562947 0.148967 0.038305
C28_6 C 0.6629(3) 0.0830(3) 0.0423(2)
C29_6 C 0.69678(18) 0.27471(16) 0.0361(2)
C30_6 C 0.6764(2) 0.26872(18) 0.0143(2)
C31_6 C 0.65736(19) 0.24520(19) 0.0173(2)
H14_6 H 0.643456 0.241103 0.002367
C32_6 C 0.65865(18) 0.22766(16) 0.0421(2)
C33_6 C 0.6790(2) 0.23365(18) 0.0639(2)
H15_6 H 0.679886 0.221659 0.080897
C34_6 C 0.69807(19) 0.25717(19) 0.0609(2)
H16_6 H 0.711974 0.261265 0.075818
C35_6 C 0.7679(2) 0.3345(2) 0.0218(4)
C36_6 C 0.7697(3) 0.3129(3) 0.0433(3)
H17_6 H 0.785749 0.312705 0.056446
C37_6 C 0.7479(3) 0.2918(3) 0.0454(3)
H18_6 H 0.749148 0.277050 0.060069
C38_6 C 0.7244(2) 0.2921(3) 0.0261(3)
C39_6 C 0.7226(2) 0.3136(3) 0.0047(3)
C40_6 C 0.7443(3) 0.3348(3) 0.0026(3)
Co5_6 Co 0.64605(2) 0.02279(2) 0.03075(2)
Co8_6 Co 0.70681(2) 0.03311(3) 0.04246(3)
O15_6 O 0.46150(14) 0.14075(17) 0.06610(13)
O16_6 O 0.45721(15) 0.18873(19) 0.07378(14)
H21_6 H 0.460325 0.261724 0.0286262
H22_6 H 0.429034 0.253007 0.0429446
H23_6 H 0.488823 0.0949614 0.0298218
H24_6 H 0.461286 0.0936662 0.00745734
C8_6 C 0.87675(11) 0.33569(16) 0.98790(18)
C9_6 C 0.86754(13) 0.36341(14) 0.99643(17)
H4_6 H 0.881195 0.379062 0.997391
C12_6 C 0.82758(14) 0.31759(12) 0.9936(2)
H5_6 H 0.813918 0.301940 0.992654
C13_6 C 0.85676(15) 0.31278(12) 0.9865(2)
H6_6 H 0.863056 0.293837 0.980656
C27_6 C 0.9075(3) 0.3316(3) 0.9806(2)
H13_6 H 0.675543 0.280709 0.997287
H19_6 H 0.706493 0.313873 0.991535
H20_6 H 0.743094 0.349528 0.987912
O13_6 O 0.47515(13) 0.16117(15) 0.98128(14)
O14_6 O 0.46054(15) 0.20919(16) 0.99016(17)
Co1_4 Co 0.53075(2) 0.64605(2) 0.47721(2)
Co2_4 Co 0.54246(3) 0.70681(2) 0.46689(3)
O1_7 O 0.48984(13) 0.65954(14) 0.46836(13)
O2_7 O 0.49857(18) 0.70818(16) 0.46398(18)
O3_4 O 0.07423(15) 0.85311(17) 0.51574(13)
O4_4 O 0.08427(15) 0.80556(19) 0.52840(15)
O7_7 O 0.35925(17) 0.56610(13) 0.46150(14)
O8_7 O 0.31127(19) 0.57378(14) 0.45721(15)
O9_7 O 0.5496(2) 0.74901(16) 0.4568(2)
O10_7 O 0.5206(2) 0.60448(16) 0.4873(2)
N1_7 N 0.20760(16) 0.85365(19) 0.4885(3)
N2_7 N 0.36035(19) 0.70308(18) 0.4545(2)
C1_7 C 0.1883(3) 0.9727(3) 0.4700(2)
C2_7 C 0.19502(15) 0.94180(10) 0.47307(16)
C3_7 C 0.17321(11) 0.92303(14) 0.48296(15)
H1_7 H 0.154073 0.930317 0.486580
C4_7 C 0.17940(12) 0.89359(13) 0.48755(17)
C5_7 C 0.20740(14) 0.88293(11) 0.48225(19)
C6_7 C 0.22921(11) 0.90170(14) 0.4724(2)
H2_7 H 0.248352 0.894408 0.468735
C7_7 C 0.22302(13) 0.93113(13) 0.46777(18)
H3_7 H 0.237932 0.943965 0.461010
C8_7 C 0.12325(11) 0.83569(16) 0.51210(18)
C9_7 C 0.13246(13) 0.86341(14) 0.50357(17)
H4_7 H 0.118805 0.879062 0.502609
C10_7 C 0.16165(14) 0.86822(11) 0.49644(17)
C11_7 C 0.18163(11) 0.84531(14) 0.49785(19)
C12_7 C 0.17242(14) 0.81759(12) 0.5064(2)
H5_7 H 0.186082 0.801940 0.507346
C13_7 C 0.14324(15) 0.81278(12) 0.5135(2)
H6_7 H 0.136944 0.793837 0.519344
C14_7 C 0.34160(15) 0.61467(11) 0.45673(17)
C15_7 C 0.36989(13) 0.62571(13) 0.45859(16)
H7_7 H 0.386043 0.612712 0.460175
C16_7 C 0.37455(11) 0.65578(13) 0.45814(18)
C17_7 C 0.35091(14) 0.67480(10) 0.4558(2)
C18_7 C 0.32262(12) 0.66376(14) 0.4540(2)
H8_7 H 0.306462 0.676764 0.452382
C19_7 C 0.31796(11) 0.63369(15) 0.45441(19)
H9_7 H 0.298622 0.626147 0.453137
C20_7 C 0.4801(2) 0.6854(2) 0.4660(2)
C21_7 C 0.44971(11) 0.69173(14) 0.4631(2)
C22_7 C 0.43948(13) 0.72039(12) 0.4631(2)
H10_7 H 0.452911 0.736231 0.464089
C23_7 C 0.40958(15) 0.72586(10) 0.4616(2)
H11_7 H 0.402583 0.745446 0.461589
C24_7 C 0.38992(11) 0.70268(13) 0.4602(2)
C25_7 C 0.40016(13) 0.67402(11) 0.4602(2)
C26_7 C 0.43006(14) 0.66855(10) 0.46167(19)
H12_7 H 0.437053 0.648967 0.461695
C27_7 C 0.0925(3) 0.8316(3) 0.5194(2)
C28_7 C 0.3371(3) 0.5830(3) 0.4577(2)
C29_7 C 0.30322(18) 0.77471(16) 0.4639(2)
C30_7 C 0.3236(2) 0.76872(18) 0.4857(2)
H13_7 H 0.324457 0.780709 0.502713
C31_7 C 0.34264(19) 0.74520(19) 0.4827(2)
H14_7 H 0.356544 0.741103 0.497633
C32_7 C 0.34135(18) 0.72766(16) 0.4579(2)
C33_7 C 0.3210(2) 0.73365(18) 0.4361(2)
H15_7 H 0.320114 0.721659 0.419103
C34_7 C 0.30193(19) 0.75717(19) 0.4391(2)
H16_7 H 0.288026 0.761265 0.424182
C35_7 C 0.2321(2) 0.8345(2) 0.4782(4)
C36_7 C 0.2303(3) 0.8129(3) 0.4567(3)
H17_7 H 0.214251 0.812705 0.443554
C37_7 C 0.2521(3) 0.7918(3) 0.4546(3)
H18_7 H 0.250852 0.777050 0.439931
C38_7 C 0.2756(2) 0.7921(3) 0.4739(3)
C39_7 C 0.2774(2) 0.8136(3) 0.4953(3)
H19_7 H 0.293507 0.813873 0.508465
C40_7 C 0.2557(3) 0.8348(3) 0.4974(3)
H20_7 H 0.256906 0.849528 0.512088
Co3_4 Co 0.03075(2) 0.85395(2) 0.52279(2)
Co5_7 Co 0.35395(2) 0.52279(2) 0.46925(2)
Co6_4 Co 0.04246(3) 0.79319(2) 0.53311(3)
Co8_7 Co 0.29319(2) 0.53311(3) 0.45754(3)
O11_4 O 0.57423(15) 0.64689(17) 0.48426(13)
O12_4 O 0.58427(15) 0.69444(19) 0.47160(15)
O13_7 O 0.52485(13) 0.66117(15) 0.51872(14)
O14_7 O 0.53946(15) 0.70919(16) 0.50984(17)
O15_7 O 0.53850(14) 0.64075(17) 0.43390(13)
O16_7 O 0.54279(15) 0.68873(19) 0.42622(14)
H21_7 H 0.539675 0.761724 0.471374
H22_7 H 0.570966 0.753007 0.457055
H23_7 H 0.511177 0.594961 0.470178
H24_7 H 0.538714 0.593666 0.492543
O9_8 O 0.0496(2) 0.75099(16) 0.5432(2)
O10_8 O 0.0206(2) 0.89552(16) 0.5127(2)
O13_8 O 0.02485(13) 0.83883(15) 0.48128(14)
O14_8 O 0.03946(15) 0.79081(16) 0.49016(17)
O15_8 O 0.03850(14) 0.85925(17) 0.56610(13)
O16_8 O 0.04279(15) 0.81127(19) 0.57378(14)
H21_8 H 0.0396753 0.738276 0.528626
H22_8 H 0.0709661 0.746993 0.542945
H23_8 H 0.0111773 0.905039 0.529822
H24_8 H 0.0387142 0.906334 0.507457
O1_8 O 0.98984(13) 0.84046(14) 0.53164(13)
O2_8 O 0.99857(18) 0.79182(16) 0.53602(18)
O7_8 O 0.85925(17) 0.93390(13) 0.53850(14)
O8_8 O 0.81127(19) 0.92622(14) 0.54279(15)
N1_8 N 0.70760(16) 0.64635(19) 0.5115(3)
N2_8 N 0.86035(19) 0.79692(18) 0.5455(2)
C1_8 C 0.6883(3) 0.5273(3) 0.5300(2)
C2_8 C 0.69502(15) 0.55820(10) 0.52693(16)
C3_8 C 0.67321(11) 0.57697(14) 0.51704(15)
H1_8 H 0.654073 0.569683 0.513420
C4_8 C 0.67940(12) 0.60641(13) 0.51245(17)
C5_8 C 0.70740(14) 0.61707(11) 0.51775(19)
C6_8 C 0.72921(11) 0.59830(14) 0.5276(2)
H2_8 H 0.748352 0.605592 0.531265
C7_8 C 0.72302(13) 0.56887(13) 0.53223(18)
H3_8 H 0.737932 0.556035 0.538990
C8_8 C 0.62325(11) 0.66431(16) 0.48790(18)
C9_8 C 0.63246(13) 0.63659(14) 0.49643(17)
H4_8 H 0.618805 0.620938 0.497391
C10_8 C 0.66165(14) 0.63178(11) 0.50356(17)
C11_8 C 0.68163(11) 0.65469(14) 0.50215(19)
C12_8 C 0.67242(14) 0.68241(12) 0.4936(2)
H5_8 H 0.686082 0.698060 0.492654
C13_8 C 0.64324(15) 0.68722(12) 0.4865(2)
H6_8 H 0.636944 0.706163 0.480656
C14_8 C 0.84160(15) 0.88533(11) 0.54327(17)
C15_8 C 0.86989(13) 0.87429(13) 0.54141(16)
H7_8 H 0.886043 0.887288 0.539825
C16_8 C 0.87455(11) 0.84422(13) 0.54186(18)
C17_8 C 0.85091(14) 0.82520(10) 0.5442(2)
C18_8 C 0.82262(12) 0.83624(14) 0.5460(2)
H8_8 H 0.806462 0.823236 0.547618
C19_8 C 0.81796(11) 0.86631(15) 0.54559(19)
H9_8 H 0.798622 0.873853 0.546863
C20_8 C 0.9801(2) 0.8146(2) 0.5340(2)
C21_8 C 0.94971(11) 0.80827(14) 0.5369(2)
C22_8 C 0.93948(13) 0.77961(12) 0.5369(2)
H10_8 H 0.952911 0.763769 0.535911
C23_8 C 0.90958(15) 0.77414(10) 0.5384(2)
H11_8 H 0.902583 0.754554 0.538411
C24_8 C 0.88992(11) 0.79732(13) 0.5398(2)
C25_8 C 0.90016(13) 0.82598(11) 0.5398(2)
C26_8 C 0.93006(14) 0.83145(10) 0.53833(19)
H12_8 H 0.937053 0.851033 0.538305
C27_8 C 0.5925(3) 0.6684(3) 0.4806(2)
C28_8 C 0.8371(3) 0.9170(3) 0.5423(2)
C29_8 C 0.80322(18) 0.72529(16) 0.5361(2)
C30_8 C 0.8236(2) 0.73128(18) 0.5143(2)
H13_8 H 0.824457 0.719291 0.497287
C31_8 C 0.84264(19) 0.75480(19) 0.5173(2)
H14_8 H 0.856544 0.758897 0.502367
C32_8 C 0.84135(18) 0.77234(16) 0.5421(2)
C33_8 C 0.8210(2) 0.76635(18) 0.5639(2)
H15_8 H 0.820114 0.778341 0.580897
C34_8 C 0.80193(19) 0.74283(19) 0.5609(2)
H16_8 H 0.788026 0.738735 0.575818
C35_8 C 0.7321(2) 0.6655(2) 0.5218(4)
C36_8 C 0.7303(3) 0.6871(3) 0.5433(3)
H17_8 H 0.714251 0.687295 0.556446
C37_8 C 0.7521(3) 0.7082(3) 0.5454(3)
H18_8 H 0.750852 0.722950 0.560069
C38_8 C 0.7756(2) 0.7079(3) 0.5261(3)
C39_8 C 0.7774(2) 0.6864(3) 0.5047(3)
H19_8 H 0.793507 0.686127 0.491535
C40_8 C 0.7557(3) 0.6652(3) 0.5026(3)
H20_8 H 0.756906 0.650472 0.487912
Co5_8 Co 0.85395(2) 0.97721(2) 0.53075(2)
Co8_8 Co 0.79319(2) 0.96689(3) 0.54246(3)
O3_5 O 0.01574(13) 0.42577(15) 0.14689(17)
O4_5 O 0.02840(15) 0.41573(15) 0.19444(19)
C8_9 C 0.01210(18) 0.37675(11) 0.16431(16)
C9_9 C 0.00357(17) 0.36754(13) 0.13659(14)
H4_9 H 0.002609 0.381195 0.120938
C12_9 C 0.0064(2) 0.32758(14) 0.18241(12)
H5_9 H 0.007346 0.313918 0.198060
C13_9 C 0.0135(2) 0.35676(15) 0.18722(12)
H6_9 H 0.019344 0.363056 0.206163
C27_9 C 0.0194(2) 0.4075(3) 0.1684(3)
H13_9 H 0.002713 0.175543 0.219291
H19_9 H 0.008465 0.206493 0.186127
H20_9 H 0.012088 0.243094 0.150472
O1_9 O 0.96836(13) 0.01016(13) 0.34046(14)
O2_9 O 0.96398(18) 0.00143(18) 0.29182(16)
O7_9 O 0.96150(14) 0.14075(17) 0.43390(13)
O8_9 O 0.95721(15) 0.18873(19) 0.42622(14)
N1_9 N 0.9885(3) 0.29240(16) 0.14635(19)
N2_9 N 0.9545(2) 0.13965(19) 0.29692(18)
C1_9 C 0.9700(2) 0.3117(3) 0.0273(3)
C2_9 C 0.97307(16) 0.30498(15) 0.05820(10)
C3_9 C 0.98296(15) 0.32679(11) 0.07697(14)
H1_9 H 0.986580 0.345927 0.069683
C4_9 C 0.98755(17) 0.32060(12) 0.10641(13)
C5_9 C 0.98225(19) 0.29260(14) 0.11707(11)
C6_9 C 0.9724(2) 0.27079(11) 0.09830(14)
H2_9 H 0.968735 0.251648 0.105592
C7_9 C 0.96777(18) 0.27698(13) 0.06887(13)
H3_9 H 0.961010 0.262068 0.056035
C10_9 C 0.99644(17) 0.33835(14) 0.13178(11)
C11_9 C 0.99785(19) 0.31837(11) 0.15469(14)
C14_9 C 0.95673(17) 0.15840(15) 0.38533(11)
C15_9 C 0.95859(16) 0.13011(13) 0.37429(13)
H7_9 H 0.960175 0.113957 0.387288
C16_9 C 0.95814(18) 0.12545(11) 0.34422(13)
C17_9 C 0.9558(2) 0.14909(14) 0.32520(10)
C18_9 C 0.9540(2) 0.17738(12) 0.33624(14)
H8_9 H 0.952382 0.193538 0.323236
C19_9 C 0.95441(19) 0.18204(11) 0.36631(15)
H9_9 H 0.953137 0.201378 0.373853
C20_9 C 0.9660(2) 0.0199(2) 0.3146(2)
C21_9 C 0.9631(2) 0.05029(11) 0.30827(14)
C22_9 C 0.9631(2) 0.06052(13) 0.27961(12)
H10_9 H 0.964089 0.047089 0.263769
C23_9 C 0.9616(2) 0.09042(15) 0.27414(10)
H11_9 H 0.961589 0.097417 0.254554
C24_9 C 0.9602(2) 0.11008(11) 0.29732(13)
C25_9 C 0.9602(2) 0.09984(13) 0.32598(11)
C26_9 C 0.96167(19) 0.06994(14) 0.33145(10)
H12_9 H 0.961695 0.062947 0.351033
C28_9 C 0.9577(2) 0.1629(3) 0.4170(3)
C29_9 C 0.9639(2) 0.19678(18) 0.22529(16)
C30_9 C 0.9857(2) 0.1764(2) 0.23128(18)
C31_9 C 0.9827(2) 0.15736(19) 0.25480(19)
H14_9 H 0.997633 0.143456 0.258897
C32_9 C 0.9579(2) 0.15865(18) 0.27234(16)
C33_9 C 0.9361(2) 0.1790(2) 0.26635(18)
H15_9 H 0.919103 0.179886 0.278341
C34_9 C 0.9391(2) 0.19807(19) 0.24283(19)
H16_9 H 0.924182 0.211974 0.238735
C35_9 C 0.9782(4) 0.2679(2) 0.1655(2)
C36_9 C 0.9567(3) 0.2697(3) 0.1871(3)
H17_9 H 0.943554 0.285749 0.187295
C37_9 C 0.9546(3) 0.2479(3) 0.2082(3)
H18_9 H 0.939931 0.249148 0.222950
C38_9 C 0.9739(3) 0.2244(2) 0.2079(3)
C39_9 C 0.9953(3) 0.2226(2) 0.1864(3)
C40_9 C 0.9974(3) 0.2443(3) 0.1652(3)
Co5_9 Co 0.96925(2) 0.14605(2) 0.47721(2)
Co8_9 Co 0.95754(3) 0.20681(2) 0.46689(3)
O9_9 O 0.9568(2) 0.9504(2) 0.25099(16)
O10_9 O 0.9873(2) 0.9794(2) 0.39552(16)
O11_5 O 0.98426(13) 0.92577(15) 0.35311(17)
O12_5 O 0.97160(15) 0.91573(15) 0.30556(19)
O15_9 O 0.93390(13) 0.96150(14) 0.35925(17)
O16_9 O 0.92622(14) 0.95721(15) 0.31127(19)
H21_9 H 0.971374 0.960325 0.238276
H22_9 H 0.957055 0.929034 0.246993
H23_9 H 0.970178 0.988823 0.405039
H24_9 H 0.992543 0.961286 0.406334
O1_10 O 0.03164(13) 0.51016(13) 0.15954(14)
O2_10 O 0.03602(18) 0.50143(18) 0.20818(16)
O7_10 O 0.03850(14) 0.64075(17) 0.06610(13)
O8_10 O 0.04279(15) 0.68873(19) 0.07378(14)
O9_10 O 0.0432(2) 0.4504(2) 0.24901(16)
O10_10 O 0.0127(2) 0.4794(2) 0.10448(16)
N1_10 N 0.0115(3) 0.79240(16) 0.35365(19)
N2_10 N 0.0455(2) 0.63965(19) 0.20308(18)
C1_10 C 0.0300(2) 0.8117(3) 0.4727(3)
C2_10 C 0.02693(16) 0.80498(15) 0.44180(10)
C3_10 C 0.01704(15) 0.82679(11) 0.42303(14)
H1_10 H 0.013420 0.845927 0.430317
C4_10 C 0.01245(17) 0.82060(12) 0.39359(13)
C5_10 C 0.01775(19) 0.79260(14) 0.38293(11)
C6_10 C 0.0276(2) 0.77079(11) 0.40170(14)
H2_10 H 0.031265 0.751648 0.394408
C7_10 C 0.03223(18) 0.77698(13) 0.43113(13)
H3_10 H 0.038990 0.762068 0.443965
C10_10 C 0.00356(17) 0.83835(14) 0.36822(11)
C11_10 C 0.00215(19) 0.81837(11) 0.34531(14)
C14_10 C 0.04327(17) 0.65840(15) 0.11467(11)
C15_10 C 0.04141(16) 0.63011(13) 0.12571(13)
H7_10 H 0.039825 0.613957 0.112712
C16_10 C 0.04186(18) 0.62545(11) 0.15578(13)
C17_10 C 0.0442(2) 0.64909(14) 0.17480(10)
C18_10 C 0.0460(2) 0.67738(12) 0.16376(14)
H8_10 H 0.047618 0.693538 0.176764
C19_10 C 0.04559(19) 0.68204(11) 0.13369(15)
H9_10 H 0.046863 0.701378 0.126147
C20_10 C 0.0340(2) 0.5199(2) 0.1854(2)
C21_10 C 0.0369(2) 0.55029(11) 0.19173(14)
C22_10 C 0.0369(2) 0.56052(13) 0.22039(12)
H10_10 H 0.035911 0.547089 0.236231
C23_10 C 0.0384(2) 0.59042(15) 0.22586(10)
H11_10 H 0.038411 0.597417 0.245446
C24_10 C 0.0398(2) 0.61008(11) 0.20268(13)
C25_10 C 0.0398(2) 0.59984(13) 0.17402(11)
C26_10 C 0.03833(19) 0.56994(14) 0.16855(10)
H12_10 H 0.038305 0.562947 0.148967
C28_10 C 0.0423(2) 0.6629(3) 0.0830(3)
C29_10 C 0.0361(2) 0.69678(18) 0.27471(16)
C30_10 C 0.0143(2) 0.6764(2) 0.26872(18)
C31_10 C 0.0173(2) 0.65736(19) 0.24520(19)
H14_10 H 0.002367 0.643456 0.241103
C32_10 C 0.0421(2) 0.65865(18) 0.22766(16)
C33_10 C 0.0639(2) 0.6790(2) 0.23365(18)
H15_10 H 0.080897 0.679886 0.221659
C34_10 C 0.0609(2) 0.69807(19) 0.25717(19)
H16_10 H 0.075818 0.711974 0.261265
C35_10 C 0.0218(4) 0.7679(2) 0.3345(2)
C36_10 C 0.0433(3) 0.7697(3) 0.3129(3)
H17_10 H 0.056446 0.785749 0.312705
C37_10 C 0.0454(3) 0.7479(3) 0.2918(3)
H18_10 H 0.060069 0.749148 0.277050
C38_10 C 0.0261(3) 0.7244(2) 0.2921(3)
C39_10 C 0.0047(3) 0.7226(2) 0.3136(3)
C40_10 C 0.0026(3) 0.7443(3) 0.3348(3)
Co5_10 Co 0.03075(2) 0.64605(2) 0.02279(2)
Co8_10 Co 0.04246(3) 0.70681(2) 0.03311(3)
O15_10 O 0.06610(13) 0.46150(14) 0.14075(17)
O16_10 O 0.07378(14) 0.45721(15) 0.18873(19)
H21_10 H 0.0286262 0.460325 0.261724
H22_10 H 0.0429446 0.429034 0.253007
H23_10 H 0.0298218 0.488823 0.0949614
H24_10 H 0.00745734 0.461286 0.0936662
C8_10 C 0.98790(18) 0.87675(11) 0.33569(16)
C9_10 C 0.99643(17) 0.86754(13) 0.36341(14)
H4_10 H 0.997391 0.881195 0.379062
C12_10 C 0.9936(2) 0.82758(14) 0.31759(12)
H5_10 H 0.992654 0.813918 0.301940
C13_10 C 0.9865(2) 0.85676(15) 0.31278(12)
H6_10 H 0.980656 0.863056 0.293837
C27_10 C 0.9806(2) 0.9075(3) 0.3316(3)
H13_10 H 0.997287 0.675543 0.280709
H19_10 H 0.991535 0.706493 0.313873
H20_10 H 0.987912 0.743094 0.349528
O1_11 O 0.46836(13) 0.48984(13) 0.65954(14)
O2_11 O 0.46398(18) 0.49857(18) 0.70818(16)
O3_6 O 0.51574(13) 0.07423(15) 0.85311(17)
O4_6 O 0.52840(15) 0.08427(15) 0.80556(19)
O7_11 O 0.46150(14) 0.35925(17) 0.56610(13)
O8_11 O 0.45721(15) 0.31127(19) 0.57378(14)
O9_11 O 0.4568(2) 0.5496(2) 0.74901(16)
O10_11 O 0.4873(2) 0.5206(2) 0.60448(16)
N1_11 N 0.4885(3) 0.20760(16) 0.85365(19)
N2_11 N 0.4545(2) 0.36035(19) 0.70308(18)
C1_11 C 0.4700(2) 0.1883(3) 0.9727(3)
C2_11 C 0.47307(16) 0.19502(15) 0.94180(10)
C3_11 C 0.48296(15) 0.17321(11) 0.92303(14)
H1_11 H 0.486580 0.154073 0.930317
C4_11 C 0.48755(17) 0.17940(12) 0.89359(13)
C5_11 C 0.48225(19) 0.20740(14) 0.88293(11)
C6_11 C 0.4724(2) 0.22921(11) 0.90170(14)
H2_11 H 0.468735 0.248352 0.894408
C7_11 C 0.46777(18) 0.22302(13) 0.93113(13)
H3_11 H 0.461010 0.237932 0.943965
C8_11 C 0.51210(18) 0.12325(11) 0.83569(16)
C9_11 C 0.50357(17) 0.13246(13) 0.86341(14)
H4_11 H 0.502609 0.118805 0.879062
C10_11 C 0.49644(17) 0.16165(14) 0.86822(11)
C11_11 C 0.49785(19) 0.18163(11) 0.84531(14)
C12_11 C 0.5064(2) 0.17242(14) 0.81759(12)
H5_11 H 0.507346 0.186082 0.801940
C13_11 C 0.5135(2) 0.14324(15) 0.81278(12)
H6_11 H 0.519344 0.136944 0.793837
C14_11 C 0.45673(17) 0.34160(15) 0.61467(11)
C15_11 C 0.45859(16) 0.36989(13) 0.62571(13)
H7_11 H 0.460175 0.386043 0.612712
C16_11 C 0.45814(18) 0.37455(11) 0.65578(13)
C17_11 C 0.4558(2) 0.35091(14) 0.67480(10)
C18_11 C 0.4540(2) 0.32262(12) 0.66376(14)
H8_11 H 0.452382 0.306462 0.676764
C19_11 C 0.45441(19) 0.31796(11) 0.63369(15)
H9_11 H 0.453137 0.298622 0.626147
C20_11 C 0.4660(2) 0.4801(2) 0.6854(2)
C21_11 C 0.4631(2) 0.44971(11) 0.69173(14)
C22_11 C 0.4631(2) 0.43948(13) 0.72039(12)
H10_11 H 0.464089 0.452911 0.736231
C23_11 C 0.4616(2) 0.40958(15) 0.72586(10)
H11_11 H 0.461589 0.402583 0.745446
C24_11 C 0.4602(2) 0.38992(11) 0.70268(13)
C25_11 C 0.4602(2) 0.40016(13) 0.67402(11)
C26_11 C 0.46167(19) 0.43006(14) 0.66855(10)
H12_11 H 0.461695 0.437053 0.648967
C27_11 C 0.5194(2) 0.0925(3) 0.8316(3)
C28_11 C 0.4577(2) 0.3371(3) 0.5830(3)
C29_11 C 0.4639(2) 0.30322(18) 0.77471(16)
C30_11 C 0.4857(2) 0.3236(2) 0.76872(18)
H13_11 H 0.502713 0.324457 0.780709
C31_11 C 0.4827(2) 0.34264(19) 0.74520(19)
H14_11 H 0.497633 0.356544 0.741103
C32_11 C 0.4579(2) 0.34135(18) 0.72766(16)
C33_11 C 0.4361(2) 0.3210(2) 0.73365(18)
H15_11 H 0.419103 0.320114 0.721659
C34_11 C 0.4391(2) 0.30193(19) 0.75717(19)
H16_11 H 0.424182 0.288026 0.761265
C35_11 C 0.4782(4) 0.2321(2) 0.8345(2)
C36_11 C 0.4567(3) 0.2303(3) 0.8129(3)
H17_11 H 0.443554 0.214251 0.812705
C37_11 C 0.4546(3) 0.2521(3) 0.7918(3)
H18_11 H 0.439931 0.250852 0.777050
C38_11 C 0.4739(3) 0.2756(2) 0.7921(3)
C39_11 C 0.4953(3) 0.2774(2) 0.8136(3)
H19_11 H 0.508465 0.293507 0.813873
C40_11 C 0.4974(3) 0.2557(3) 0.8348(3)
H20_11 H 0.512088 0.256906 0.849528
Co5_11 Co 0.46925(2) 0.35395(2) 0.52279(2)
Co8_11 Co 0.45754(3) 0.29319(2) 0.53311(3)
O11_6 O 0.48426(13) 0.57423(15) 0.64689(17)
O12_6 O 0.47160(15) 0.58427(15) 0.69444(19)
O15_11 O 0.43390(13) 0.53850(14) 0.64075(17)
O16_11 O 0.42622(14) 0.54279(15) 0.68873(19)
H21_11 H 0.471374 0.539675 0.761724
H22_11 H 0.457055 0.570966 0.753007
H23_11 H 0.470178 0.511177 0.594961
H24_11 H 0.492543 0.538714 0.593666
O9_12 O 0.5432(2) 0.0496(2) 0.75099(16)
O10_12 O 0.5127(2) 0.0206(2) 0.89552(16)
O15_12 O 0.56610(13) 0.03850(14) 0.85925(17)
O16_12 O 0.57378(14) 0.04279(15) 0.81127(19)
H21_12 H 0.528626 0.0396753 0.738276
H22_12 H 0.542945 0.0709661 0.746993
H23_12 H 0.529822 0.0111773 0.905039
H24_12 H 0.507457 0.0387142 0.906334
O1_12 O 0.53164(13) 0.98984(13) 0.84046(14)
O2_12 O 0.53602(18) 0.99857(18) 0.79182(16)
O7_12 O 0.53850(14) 0.85925(17) 0.93390(13)
O8_12 O 0.54279(15) 0.81127(19) 0.92622(14)
N1_12 N 0.5115(3) 0.70760(16) 0.64635(19)
N2_12 N 0.5455(2) 0.86035(19) 0.79692(18)
C1_12 C 0.5300(2) 0.6883(3) 0.5273(3)
C2_12 C 0.52693(16) 0.69502(15) 0.55820(10)
C3_12 C 0.51704(15) 0.67321(11) 0.57697(14)
H1_12 H 0.513420 0.654073 0.569683
C4_12 C 0.51245(17) 0.67940(12) 0.60641(13)
C5_12 C 0.51775(19) 0.70740(14) 0.61707(11)
C6_12 C 0.5276(2) 0.72921(11) 0.59830(14)
H2_12 H 0.531265 0.748352 0.605592
C7_12 C 0.53223(18) 0.72302(13) 0.56887(13)
H3_12 H 0.538990 0.737932 0.556035
C8_12 C 0.48790(18) 0.62325(11) 0.66431(16)
C9_12 C 0.49643(17) 0.63246(13) 0.63659(14)
H4_12 H 0.497391 0.618805 0.620938
C10_12 C 0.50356(17) 0.66165(14) 0.63178(11)
C11_12 C 0.50215(19) 0.68163(11) 0.65469(14)
C12_12 C 0.4936(2) 0.67242(14) 0.68241(12)
H5_12 H 0.492654 0.686082 0.698060
C13_12 C 0.4865(2) 0.64324(15) 0.68722(12)
H6_12 H 0.480656 0.636944 0.706163
C14_12 C 0.54327(17) 0.84160(15) 0.88533(11)
C15_12 C 0.54141(16) 0.86989(13) 0.87429(13)
H7_12 H 0.539825 0.886043 0.887288
C16_12 C 0.54186(18) 0.87455(11) 0.84422(13)
C17_12 C 0.5442(2) 0.85091(14) 0.82520(10)
C18_12 C 0.5460(2) 0.82262(12) 0.83624(14)
H8_12 H 0.547618 0.806462 0.823236
C19_12 C 0.54559(19) 0.81796(11) 0.86631(15)
H9_12 H 0.546863 0.798622 0.873853
C20_12 C 0.5340(2) 0.9801(2) 0.8146(2)
C21_12 C 0.5369(2) 0.94971(11) 0.80827(14)
C22_12 C 0.5369(2) 0.93948(13) 0.77961(12)
H10_12 H 0.535911 0.952911 0.763769
C23_12 C 0.5384(2) 0.90958(15) 0.77414(10)
H11_12 H 0.538411 0.902583 0.754554
C24_12 C 0.5398(2) 0.88992(11) 0.79732(13)
C25_12 C 0.5398(2) 0.90016(13) 0.82598(11)
C26_12 C 0.53833(19) 0.93006(14) 0.83145(10)
H12_12 H 0.538305 0.937053 0.851033
C27_12 C 0.4806(2) 0.5925(3) 0.6684(3)
C28_12 C 0.5423(2) 0.8371(3) 0.9170(3)
C29_12 C 0.5361(2) 0.80322(18) 0.72529(16)
C30_12 C 0.5143(2) 0.8236(2) 0.73128(18)
H13_12 H 0.497287 0.824457 0.719291
C31_12 C 0.5173(2) 0.84264(19) 0.75480(19)
H14_12 H 0.502367 0.856544 0.758897
C32_12 C 0.5421(2) 0.84135(18) 0.77234(16)
C33_12 C 0.5639(2) 0.8210(2) 0.76635(18)
H15_12 H 0.580897 0.820114 0.778341
C34_12 C 0.5609(2) 0.80193(19) 0.74283(19)
H16_12 H 0.575818 0.788026 0.738735
C35_12 C 0.5218(4) 0.7321(2) 0.6655(2)
C36_12 C 0.5433(3) 0.7303(3) 0.6871(3)
H17_12 H 0.556446 0.714251 0.687295
C37_12 C 0.5454(3) 0.7521(3) 0.7082(3)
H18_12 H 0.560069 0.750852 0.722950
C38_12 C 0.5261(3) 0.7756(2) 0.7079(3)
C39_12 C 0.5047(3) 0.7774(2) 0.6864(3)
H19_12 H 0.491535 0.793507 0.686127
C40_12 C 0.5026(3) 0.7557(3) 0.6652(3)
H20_12 H 0.487912 0.756906 0.650472
Co5_12 Co 0.53075(2) 0.85395(2) 0.97721(2)
Co8_12 Co 0.54246(3) 0.79319(2) 0.96689(3)
O9_13 O 0.74901(16) 0.0432(2) 0.0496(2)
O10_13 O 0.60448(16) 0.0127(2) 0.0206(2)
O11_7 O 0.64689(17) 0.01574(13) 0.07423(15)
O12_7 O 0.69444(19) 0.02840(15) 0.08427(15)
H21_13 H 0.761724 0.0286262 0.0396753
H22_13 H 0.753007 0.0429446 0.0709661
H23_13 H 0.594961 0.0298218 0.0111773
H24_13 H 0.593666 0.00745734 0.0387142
O1_13 O 0.65954(14) 0.03164(13) 0.98984(13)
O2_13 O 0.70818(16) 0.03602(18) 0.99857(18)
O5_5 O 0.98128(14) 0.02485(13) 0.66117(15)
O6_5 O 0.99016(17) 0.03946(15) 0.70919(16)
N1_13 N 0.85365(19) 0.0115(3) 0.70760(16)
N2_13 N 0.70308(18) 0.0455(2) 0.86035(19)
C1_13 C 0.9727(3) 0.0300(2) 0.6883(3)
C2_13 C 0.94180(10) 0.02693(16) 0.69502(15)
C3_13 C 0.92303(14) 0.01704(15) 0.67321(11)
H1_13 H 0.930317 0.013420 0.654073
C4_13 C 0.89359(13) 0.01245(17) 0.67940(12)
C5_13 C 0.88293(11) 0.01775(19) 0.70740(14)
C6_13 C 0.90170(14) 0.0276(2) 0.72921(11)
H2_13 H 0.894408 0.031265 0.748352
C7_13 C 0.93113(13) 0.03223(18) 0.72302(13)
H3_13 H 0.943965 0.038990 0.737932
C10_13 C 0.86822(11) 0.00356(17) 0.66165(14)
C11_13 C 0.84531(14) 0.00215(19) 0.68163(11)
C14_13 C 0.61467(11) 0.04327(17) 0.84160(15)
C15_13 C 0.62571(13) 0.04141(16) 0.86989(13)
H7_13 H 0.612712 0.039825 0.886043
C16_13 C 0.65578(13) 0.04186(18) 0.87455(11)
C17_13 C 0.67480(10) 0.0442(2) 0.85091(14)
C18_13 C 0.66376(14) 0.0460(2) 0.82262(12)
H8_13 H 0.676764 0.047618 0.806462
C19_13 C 0.63369(15) 0.04559(19) 0.81796(11)
H9_13 H 0.626147 0.046863 0.798622
C20_13 C 0.6854(2) 0.0340(2) 0.9801(2)
C21_13 C 0.69173(14) 0.0369(2) 0.94971(11)
C22_13 C 0.72039(12) 0.0369(2) 0.93948(13)
H10_13 H 0.736231 0.035911 0.952911
C23_13 C 0.72586(10) 0.0384(2) 0.90958(15)
H11_13 H 0.745446 0.038411 0.902583
C24_13 C 0.70268(13) 0.0398(2) 0.88992(11)
C25_13 C 0.67402(11) 0.0398(2) 0.90016(13)
C26_13 C 0.66855(10) 0.03833(19) 0.93006(14)
H12_13 H 0.648967 0.038305 0.937053
C28_13 C 0.5830(3) 0.0423(2) 0.8371(3)
C29_13 C 0.77471(16) 0.0361(2) 0.80322(18)
C30_13 C 0.76872(18) 0.0143(2) 0.8236(2)
C31_13 C 0.74520(19) 0.0173(2) 0.84264(19)
H14_13 H 0.741103 0.002367 0.856544
C32_13 C 0.72766(16) 0.0421(2) 0.84135(18)
C33_13 C 0.73365(18) 0.0639(2) 0.8210(2)
H15_13 H 0.721659 0.080897 0.820114
C34_13 C 0.75717(19) 0.0609(2) 0.80193(19)
H16_13 H 0.761265 0.075818 0.788026
C35_13 C 0.8345(2) 0.0218(4) 0.7321(2)
C36_13 C 0.8129(3) 0.0433(3) 0.7303(3)
H17_13 H 0.812705 0.056446 0.714251
C37_13 C 0.7918(3) 0.0454(3) 0.7521(3)
H18_13 H 0.777050 0.060069 0.750852
C38_13 C 0.7921(3) 0.0261(3) 0.7756(2)
C39_13 C 0.8136(3) 0.0047(3) 0.7774(2)
C40_13 C 0.8348(3) 0.0026(3) 0.7557(3)
O13_9 O 0.66117(15) 0.98128(14) 0.02485(13)
O14_9 O 0.70919(16) 0.99016(17) 0.03946(15)
O3_7 O 0.85311(17) 0.98426(13) 0.57423(15)
O4_7 O 0.80556(19) 0.97160(15) 0.58427(15)
C8_13 C 0.83569(16) 0.98790(18) 0.62325(11)
C9_13 C 0.86341(14) 0.99643(17) 0.63246(13)
H4_13 H 0.879062 0.997391 0.618805
C12_13 C 0.81759(12) 0.9936(2) 0.67242(14)
H5_13 H 0.801940 0.992654 0.686082
C13_13 C 0.81278(12) 0.9865(2) 0.64324(15)
H6_13 H 0.793837 0.980656 0.636944
C27_13 C 0.8316(3) 0.9806(2) 0.5925(3)
H13_13 H 0.780709 0.997287 0.824457
H19_13 H 0.813873 0.991535 0.793507
H20_13 H 0.849528 0.987912 0.756906
C8_14 C 0.66431(16) 0.01210(18) 0.12325(11)
C9_14 C 0.63659(14) 0.00357(17) 0.13246(13)
H4_14 H 0.620938 0.002609 0.118805
C12_14 C 0.68241(12) 0.0064(2) 0.17242(14)
H5_14 H 0.698060 0.007346 0.186082
C13_14 C 0.68722(12) 0.0135(2) 0.14324(15)
H6_14 H 0.706163 0.019344 0.136944
C27_14 C 0.6684(3) 0.0194(2) 0.0925(3)
H13_14 H 0.719291 0.002713 0.324457
H19_14 H 0.686127 0.008465 0.293507
H20_14 H 0.650472 0.012088 0.256906
O13_10 O 0.83883(15) 0.01872(14) 0.52485(13)
O14_10 O 0.79081(16) 0.00984(17) 0.53946(15)
O1_14 O 0.84046(14) 0.96836(13) 0.48984(13)
O2_14 O 0.79182(16) 0.96398(18) 0.49857(18)
O5_6 O 0.51872(14) 0.97515(13) 0.16117(15)
O6_6 O 0.50984(17) 0.96054(15) 0.20919(16)
O9_14 O 0.75099(16) 0.9568(2) 0.5496(2)
O10_14 O 0.89552(16) 0.9873(2) 0.5206(2)
N1_14 N 0.64635(19) 0.9885(3) 0.20760(16)
N2_14 N 0.79692(18) 0.9545(2) 0.36035(19)
C1_14 C 0.5273(3) 0.9700(2) 0.1883(3)
C2_14 C 0.55820(10) 0.97307(16) 0.19502(15)
C3_14 C 0.57697(14) 0.98296(15) 0.17321(11)
H1_14 H 0.569683 0.986580 0.154073
C4_14 C 0.60641(13) 0.98755(17) 0.17940(12)
C5_14 C 0.61707(11) 0.98225(19) 0.20740(14)
C6_14 C 0.59830(14) 0.9724(2) 0.22921(11)
H2_14 H 0.605592 0.968735 0.248352
C7_14 C 0.56887(13) 0.96777(18) 0.22302(13)
H3_14 H 0.556035 0.961010 0.237932
C10_14 C 0.63178(11) 0.99644(17) 0.16165(14)
C11_14 C 0.65469(14) 0.99785(19) 0.18163(11)
C14_14 C 0.88533(11) 0.95673(17) 0.34160(15)
C15_14 C 0.87429(13) 0.95859(16) 0.36989(13)
H7_14 H 0.887288 0.960175 0.386043
C16_14 C 0.84422(13) 0.95814(18) 0.37455(11)
C17_14 C 0.82520(10) 0.9558(2) 0.35091(14)
C18_14 C 0.83624(14) 0.9540(2) 0.32262(12)
H8_14 H 0.823236 0.952382 0.306462
C19_14 C 0.86631(15) 0.95441(19) 0.31796(11)
H9_14 H 0.873853 0.953137 0.298622
C20_14 C 0.8146(2) 0.9660(2) 0.4801(2)
C21_14 C 0.80827(14) 0.9631(2) 0.44971(11)
C22_14 C 0.77961(12) 0.9631(2) 0.43948(13)
H10_14 H 0.763769 0.964089 0.452911
C23_14 C 0.77414(10) 0.9616(2) 0.40958(15)
H11_14 H 0.754554 0.961589 0.402583
C24_14 C 0.79732(13) 0.9602(2) 0.38992(11)
C25_14 C 0.82598(11) 0.9602(2) 0.40016(13)
C26_14 C 0.83145(10) 0.96167(19) 0.43006(14)
H12_14 H 0.851033 0.961695 0.437053
C28_14 C 0.9170(3) 0.9577(2) 0.3371(3)
C29_14 C 0.72529(16) 0.9639(2) 0.30322(18)
C30_14 C 0.73128(18) 0.9857(2) 0.3236(2)
C31_14 C 0.75480(19) 0.9827(2) 0.34264(19)
H14_14 H 0.758897 0.997633 0.356544
C32_14 C 0.77234(16) 0.9579(2) 0.34135(18)
C33_14 C 0.76635(18) 0.9361(2) 0.3210(2)
H15_14 H 0.778341 0.919103 0.320114
C34_14 C 0.74283(19) 0.9391(2) 0.30193(19)
H16_14 H 0.738735 0.924182 0.288026
C35_14 C 0.6655(2) 0.9782(4) 0.2321(2)
C36_14 C 0.6871(3) 0.9567(3) 0.2303(3)
H17_14 H 0.687295 0.943554 0.214251
C37_14 C 0.7082(3) 0.9546(3) 0.2521(3)
H18_14 H 0.722950 0.939931 0.250852
C38_14 C 0.7079(3) 0.9739(3) 0.2756(2)
C39_14 C 0.6864(3) 0.9953(3) 0.2774(2)
C40_14 C 0.6652(3) 0.9974(3) 0.2557(3)
H21_14 H 0.738276 0.971374 0.539675
H22_14 H 0.746993 0.957055 0.570966
H23_14 H 0.905039 0.970178 0.511177
H24_14 H 0.906334 0.992543 0.538714
O1_15 O 0.34046(14) 0.53164(13) 0.51016(13)
O2_15 O 0.29182(16) 0.53602(18) 0.50143(18)
O3_8 O 0.14689(17) 0.48426(13) 0.92577(15)
O4_8 O 0.19444(19) 0.47160(15) 0.91573(15)
O5_7 O 0.01872(14) 0.52485(13) 0.83883(15)
O6_7 O 0.00984(17) 0.53946(15) 0.79081(16)
O9_15 O 0.25099(16) 0.5432(2) 0.4504(2)
O10_15 O 0.39552(16) 0.5127(2) 0.4794(2)
N1_15 N 0.14635(19) 0.5115(3) 0.79240(16)
N2_15 N 0.29692(18) 0.5455(2) 0.63965(19)
C1_15 C 0.0273(3) 0.5300(2) 0.8117(3)
C2_15 C 0.05820(10) 0.52693(16) 0.80498(15)
C3_15 C 0.07697(14) 0.51704(15) 0.82679(11)
H1_15 H 0.069683 0.513420 0.845927
C4_15 C 0.10641(13) 0.51245(17) 0.82060(12)
C5_15 C 0.11707(11) 0.51775(19) 0.79260(14)
C6_15 C 0.09830(14) 0.5276(2) 0.77079(11)
H2_15 H 0.105592 0.531265 0.751648
C7_15 C 0.06887(13) 0.53223(18) 0.77698(13)
H3_15 H 0.056035 0.538990 0.762068
C8_15 C 0.16431(16) 0.48790(18) 0.87675(11)
C9_15 C 0.13659(14) 0.49643(17) 0.86754(13)
H4_15 H 0.120938 0.497391 0.881195
C10_15 C 0.13178(11) 0.50356(17) 0.83835(14)
C11_15 C 0.15469(14) 0.50215(19) 0.81837(11)
C12_15 C 0.18241(12) 0.4936(2) 0.82758(14)
H5_15 H 0.198060 0.492654 0.813918
C13_15 C 0.18722(12) 0.4865(2) 0.85676(15)
H6_15 H 0.206163 0.480656 0.863056
C14_15 C 0.38533(11) 0.54327(17) 0.65840(15)
C15_15 C 0.37429(13) 0.54141(16) 0.63011(13)
H7_15 H 0.387288 0.539825 0.613957
C16_15 C 0.34422(13) 0.54186(18) 0.62545(11)
C17_15 C 0.32520(10) 0.5442(2) 0.64909(14)
C18_15 C 0.33624(14) 0.5460(2) 0.67738(12)
H8_15 H 0.323236 0.547618 0.693538
C19_15 C 0.36631(15) 0.54559(19) 0.68204(11)
H9_15 H 0.373853 0.546863 0.701378
C20_15 C 0.3146(2) 0.5340(2) 0.5199(2)
C21_15 C 0.30827(14) 0.5369(2) 0.55029(11)
C22_15 C 0.27961(12) 0.5369(2) 0.56052(13)
H10_15 H 0.263769 0.535911 0.547089
C23_15 C 0.27414(10) 0.5384(2) 0.59042(15)
H11_15 H 0.254554 0.538411 0.597417
C24_15 C 0.29732(13) 0.5398(2) 0.61008(11)
C25_15 C 0.32598(11) 0.5398(2) 0.59984(13)
C26_15 C 0.33145(10) 0.53833(19) 0.56994(14)
H12_15 H 0.351033 0.538305 0.562947
C27_15 C 0.1684(3) 0.4806(2) 0.9075(3)
C28_15 C 0.4170(3) 0.5423(2) 0.6629(3)
C29_15 C 0.22529(16) 0.5361(2) 0.69678(18)
C30_15 C 0.23128(18) 0.5143(2) 0.6764(2)
H13_15 H 0.219291 0.497287 0.675543
C31_15 C 0.25480(19) 0.5173(2) 0.65736(19)
H14_15 H 0.258897 0.502367 0.643456
C32_15 C 0.27234(16) 0.5421(2) 0.65865(18)
C33_15 C 0.26635(18) 0.5639(2) 0.6790(2)
H15_15 H 0.278341 0.580897 0.679886
C34_15 C 0.24283(19) 0.5609(2) 0.69807(19)
H16_15 H 0.238735 0.575818 0.711974
C35_15 C 0.1655(2) 0.5218(4) 0.7679(2)
C36_15 C 0.1871(3) 0.5433(3) 0.7697(3)
H17_15 H 0.187295 0.556446 0.785749
C37_15 C 0.2082(3) 0.5454(3) 0.7479(3)
H18_15 H 0.222950 0.560069 0.749148
C38_15 C 0.2079(3) 0.5261(3) 0.7244(2)
C39_15 C 0.1864(3) 0.5047(3) 0.7226(2)
H19_15 H 0.186127 0.491535 0.706493
C40_15 C 0.1652(3) 0.5026(3) 0.7443(3)
H20_15 H 0.150472 0.487912 0.743094
O11_8 O 0.35311(17) 0.51574(13) 0.42577(15)
O12_8 O 0.30556(19) 0.52840(15) 0.41573(15)
O13_11 O 0.33883(15) 0.48128(14) 0.47515(13)
O14_11 O 0.29081(16) 0.49016(17) 0.46054(15)
H21_15 H 0.238276 0.528626 0.460325
H22_15 H 0.246993 0.542945 0.429034
H23_15 H 0.405039 0.529822 0.488823
H24_15 H 0.406334 0.507457 0.461286
O1_16 O 0.15954(14) 0.46836(13) 0.01016(13)
O2_16 O 0.20818(16) 0.46398(18) 0.00143(18)
O5_8 O 0.48128(14) 0.47515(13) 0.33883(15)
O6_8 O 0.49016(17) 0.46054(15) 0.29081(16)
N1_16 N 0.35365(19) 0.4885(3) 0.29240(16)
N2_16 N 0.20308(18) 0.4545(2) 0.13965(19)
C1_16 C 0.4727(3) 0.4700(2) 0.3117(3)
C2_16 C 0.44180(10) 0.47307(16) 0.30498(15)
C3_16 C 0.42303(14) 0.48296(15) 0.32679(11)
H1_16 H 0.430317 0.486580 0.345927
C4_16 C 0.39359(13) 0.48755(17) 0.32060(12)
C5_16 C 0.38293(11) 0.48225(19) 0.29260(14)
C6_16 C 0.40170(14) 0.4724(2) 0.27079(11)
H2_16 H 0.394408 0.468735 0.251648
C7_16 C 0.43113(13) 0.46777(18) 0.27698(13)
H3_16 H 0.443965 0.461010 0.262068
C8_16 C 0.33569(16) 0.51210(18) 0.37675(11)
C9_16 C 0.36341(14) 0.50357(17) 0.36754(13)
H4_16 H 0.379062 0.502609 0.381195
C10_16 C 0.36822(11) 0.49644(17) 0.33835(14)
C11_16 C 0.34531(14) 0.49785(19) 0.31837(11)
C12_16 C 0.31759(12) 0.5064(2) 0.32758(14)
H5_16 H 0.301940 0.507346 0.313918
C13_16 C 0.31278(12) 0.5135(2) 0.35676(15)
H6_16 H 0.293837 0.519344 0.363056
C14_16 C 0.11467(11) 0.45673(17) 0.15840(15)
C15_16 C 0.12571(13) 0.45859(16) 0.13011(13)
H7_16 H 0.112712 0.460175 0.113957
C16_16 C 0.15578(13) 0.45814(18) 0.12545(11)
C17_16 C 0.17480(10) 0.4558(2) 0.14909(14)
C18_16 C 0.16376(14) 0.4540(2) 0.17738(12)
H8_16 H 0.176764 0.452382 0.193538
C19_16 C 0.13369(15) 0.45441(19) 0.18204(11)
H9_16 H 0.126147 0.453137 0.201378
C20_16 C 0.1854(2) 0.4660(2) 0.0199(2)
C21_16 C 0.19173(14) 0.4631(2) 0.05029(11)
C22_16 C 0.22039(12) 0.4631(2) 0.06052(13)
H10_16 H 0.236231 0.464089 0.047089
C23_16 C 0.22586(10) 0.4616(2) 0.09042(15)
H11_16 H 0.245446 0.461589 0.097417
C24_16 C 0.20268(13) 0.4602(2) 0.11008(11)
C25_16 C 0.17402(11) 0.4602(2) 0.09984(13)
C26_16 C 0.16855(10) 0.46167(19) 0.06994(14)
H12_16 H 0.148967 0.461695 0.062947
C27_16 C 0.3316(3) 0.5194(2) 0.4075(3)
C28_16 C 0.0830(3) 0.4577(2) 0.1629(3)
C29_16 C 0.27471(16) 0.4639(2) 0.19678(18)
C30_16 C 0.26872(18) 0.4857(2) 0.1764(2)
H13_16 H 0.280709 0.502713 0.175543
C31_16 C 0.24520(19) 0.4827(2) 0.15736(19)
H14_16 H 0.241103 0.497633 0.143456
C32_16 C 0.22766(16) 0.4579(2) 0.15865(18)
C33_16 C 0.23365(18) 0.4361(2) 0.1790(2)
H15_16 H 0.221659 0.419103 0.179886
C34_16 C 0.25717(19) 0.4391(2) 0.19807(19)
H16_16 H 0.261265 0.424182 0.211974
C35_16 C 0.3345(2) 0.4782(4) 0.2679(2)
C36_16 C 0.3129(3) 0.4567(3) 0.2697(3)
H17_16 H 0.312705 0.443554 0.285749
C37_16 C 0.2918(3) 0.4546(3) 0.2479(3)
H18_16 H 0.277050 0.439931 0.249148
C38_16 C 0.2921(3) 0.4739(3) 0.2244(2)
C39_16 C 0.3136(3) 0.4953(3) 0.2226(2)
H19_16 H 0.313873 0.508465 0.206493
C40_16 C 0.3348(3) 0.4974(3) 0.2443(3)
H20_16 H 0.349528 0.512088 0.243094
O9_16 O 0.24901(16) 0.4568(2) 0.9504(2)
O10_16 O 0.10448(16) 0.4873(2) 0.9794(2)
O13_12 O 0.16117(15) 0.51872(14) 0.97515(13)
O14_12 O 0.20919(16) 0.50984(17) 0.96054(15)
H21_16 H 0.261724 0.471374 0.960325
H22_16 H 0.253007 0.457055 0.929034
H23_16 H 0.0949614 0.470178 0.988823
H24_16 H 0.0936662 0.492543 0.961286
O9_17 O 0.0496(2) 0.74901(16) 0.0432(2)
O10_17 O 0.0206(2) 0.60448(16) 0.0127(2)
O11_9 O 0.07423(15) 0.64689(17) 0.01574(13)
O12_9 O 0.08427(15) 0.69444(19) 0.02840(15)
H21_17 H 0.0396753 0.761724 0.0286262
H22_17 H 0.0709661 0.753007 0.0429446
H23_17 H 0.0111773 0.594961 0.0298218
H24_17 H 0.0387142 0.593666 0.00745734
O13_13 O 0.02485(13) 0.66117(15) 0.98128(14)
O14_13 O 0.03946(15) 0.70919(16) 0.99016(17)
O1_17 O 0.98984(13) 0.65954(14) 0.03164(13)
O2_17 O 0.99857(18) 0.70818(16) 0.03602(18)
N1_17 N 0.70760(16) 0.85365(19) 0.0115(3)
N2_17 N 0.86035(19) 0.70308(18) 0.0455(2)
C1_17 C 0.6883(3) 0.9727(3) 0.0300(2)
C2_17 C 0.69502(15) 0.94180(10) 0.02693(16)
C3_17 C 0.67321(11) 0.92303(14) 0.01704(15)
H1_17 H 0.654073 0.930317 0.013420
C4_17 C 0.67940(12) 0.89359(13) 0.01245(17)
C5_17 C 0.70740(14) 0.88293(11) 0.01775(19)
C6_17 C 0.72921(11) 0.90170(14) 0.0276(2)
H2_17 H 0.748352 0.894408 0.031265
C7_17 C 0.72302(13) 0.93113(13) 0.03223(18)
H3_17 H 0.737932 0.943965 0.038990
C10_17 C 0.66165(14) 0.86822(11) 0.00356(17)
C11_17 C 0.68163(11) 0.84531(14) 0.00215(19)
C14_17 C 0.84160(15) 0.61467(11) 0.04327(17)
C15_17 C 0.86989(13) 0.62571(13) 0.04141(16)
H7_17 H 0.886043 0.612712 0.039825
C16_17 C 0.87455(11) 0.65578(13) 0.04186(18)
C17_17 C 0.85091(14) 0.67480(10) 0.0442(2)
C18_17 C 0.82262(12) 0.66376(14) 0.0460(2)
H8_17 H 0.806462 0.676764 0.047618
C19_17 C 0.81796(11) 0.63369(15) 0.04559(19)
H9_17 H 0.798622 0.626147 0.046863
C20_17 C 0.9801(2) 0.6854(2) 0.0340(2)
C21_17 C 0.94971(11) 0.69173(14) 0.0369(2)
C22_17 C 0.93948(13) 0.72039(12) 0.0369(2)
H10_17 H 0.952911 0.736231 0.035911
C23_17 C 0.90958(15) 0.72586(10) 0.0384(2)
H11_17 H 0.902583 0.745446 0.038411
C24_17 C 0.88992(11) 0.70268(13) 0.0398(2)
C25_17 C 0.90016(13) 0.67402(11) 0.0398(2)
C26_17 C 0.93006(14) 0.66855(10) 0.03833(19)
H12_17 H 0.937053 0.648967 0.038305
C28_17 C 0.8371(3) 0.5830(3) 0.0423(2)
C29_17 C 0.80322(18) 0.77471(16) 0.0361(2)
C30_17 C 0.8236(2) 0.76872(18) 0.0143(2)
C31_17 C 0.84264(19) 0.74520(19) 0.0173(2)
H14_17 H 0.856544 0.741103 0.002367
C32_17 C 0.84135(18) 0.72766(16) 0.0421(2)
C33_17 C 0.8210(2) 0.73365(18) 0.0639(2)
H15_17 H 0.820114 0.721659 0.080897
C34_17 C 0.80193(19) 0.75717(19) 0.0609(2)
H16_17 H 0.788026 0.761265 0.075818
C35_17 C 0.7321(2) 0.8345(2) 0.0218(4)
C36_17 C 0.7303(3) 0.8129(3) 0.0433(3)
H17_17 H 0.714251 0.812705 0.056446
C37_17 C 0.7521(3) 0.7918(3) 0.0454(3)
H18_17 H 0.750852 0.777050 0.060069
C38_17 C 0.7756(2) 0.7921(3) 0.0261(3)
C39_17 C 0.7774(2) 0.8136(3) 0.0047(3)
C40_17 C 0.7557(3) 0.8348(3) 0.0026(3)
O3_9 O 0.57423(15) 0.85311(17) 0.98426(13)
O4_9 O 0.58427(15) 0.80556(19) 0.97160(15)
C8_17 C 0.62325(11) 0.83569(16) 0.98790(18)
C9_17 C 0.63246(13) 0.86341(14) 0.99643(17)
H4_17 H 0.618805 0.879062 0.997391
C12_17 C 0.67242(14) 0.81759(12) 0.9936(2)
H5_17 H 0.686082 0.801940 0.992654
C13_17 C 0.64324(15) 0.81278(12) 0.9865(2)
H6_17 H 0.636944 0.793837 0.980656
C27_17 C 0.5925(3) 0.8316(3) 0.9806(2)
H13_17 H 0.824457 0.780709 0.997287
H19_17 H 0.793507 0.813873 0.991535
H20_17 H 0.756906 0.849528 0.987912
C8_18 C 0.12325(11) 0.66431(16) 0.01210(18)
C9_18 C 0.13246(13) 0.63659(14) 0.00357(17)
H4_18 H 0.118805 0.620938 0.002609
C12_18 C 0.17242(14) 0.68241(12) 0.0064(2)
H5_18 H 0.186082 0.698060 0.007346
C13_18 C 0.14324(15) 0.68722(12) 0.0135(2)
H6_18 H 0.136944 0.706163 0.019344
C27_18 C 0.0925(3) 0.6684(3) 0.0194(2)
H13_18 H 0.324457 0.719291 0.002713
H19_18 H 0.293507 0.686127 0.008465
H20_18 H 0.256906 0.650472 0.012088
O13_14 O 0.52485(13) 0.83883(15) 0.01872(14)
O14_14 O 0.53946(15) 0.79081(16) 0.00984(17)
O1_18 O 0.48984(13) 0.84046(14) 0.96836(13)
O2_18 O 0.49857(18) 0.79182(16) 0.96398(18)
O9_18 O 0.5496(2) 0.75099(16) 0.9568(2)
O10_18 O 0.5206(2) 0.89552(16) 0.9873(2)
N1_18 N 0.20760(16) 0.64635(19) 0.9885(3)
N2_18 N 0.36035(19) 0.79692(18) 0.9545(2)
C1_18 C 0.1883(3) 0.5273(3) 0.9700(2)
C2_18 C 0.19502(15) 0.55820(10) 0.97307(16)
C3_18 C 0.17321(11) 0.57697(14) 0.98296(15)
H1_18 H 0.154073 0.569683 0.986580
C4_18 C 0.17940(12) 0.60641(13) 0.98755(17)
C5_18 C 0.20740(14) 0.61707(11) 0.98225(19)
C6_18 C 0.22921(11) 0.59830(14) 0.9724(2)
H2_18 H 0.248352 0.605592 0.968735
C7_18 C 0.22302(13) 0.56887(13) 0.96777(18)
H3_18 H 0.237932 0.556035 0.961010
C10_18 C 0.16165(14) 0.63178(11) 0.99644(17)
C11_18 C 0.18163(11) 0.65469(14) 0.99785(19)
C14_18 C 0.34160(15) 0.88533(11) 0.95673(17)
C15_18 C 0.36989(13) 0.87429(13) 0.95859(16)
H7_18 H 0.386043 0.887288 0.960175
C16_18 C 0.37455(11) 0.84422(13) 0.95814(18)
C17_18 C 0.35091(14) 0.82520(10) 0.9558(2)
C18_18 C 0.32262(12) 0.83624(14) 0.9540(2)
H8_18 H 0.306462 0.823236 0.952382
C19_18 C 0.31796(11) 0.86631(15) 0.95441(19)
H9_18 H 0.298622 0.873853 0.953137
C20_18 C 0.4801(2) 0.8146(2) 0.9660(2)
C21_18 C 0.44971(11) 0.80827(14) 0.9631(2)
C22_18 C 0.43948(13) 0.77961(12) 0.9631(2)
H10_18 H 0.452911 0.763769 0.964089
C23_18 C 0.40958(15) 0.77414(10) 0.9616(2)
H11_18 H 0.402583 0.754554 0.961589
C24_18 C 0.38992(11) 0.79732(13) 0.9602(2)
C25_18 C 0.40016(13) 0.82598(11) 0.9602(2)
C26_18 C 0.43006(14) 0.83145(10) 0.96167(19)
H12_18 H 0.437053 0.851033 0.961695
C28_18 C 0.3371(3) 0.9170(3) 0.9577(2)
C29_18 C 0.30322(18) 0.72529(16) 0.9639(2)
C30_18 C 0.3236(2) 0.73128(18) 0.9857(2)
C31_18 C 0.34264(19) 0.75480(19) 0.9827(2)
H14_18 H 0.356544 0.758897 0.997633
C32_18 C 0.34135(18) 0.77234(16) 0.9579(2)
C33_18 C 0.3210(2) 0.76635(18) 0.9361(2)
H15_18 H 0.320114 0.778341 0.919103
C34_18 C 0.30193(19) 0.74283(19) 0.9391(2)
H16_18 H 0.288026 0.738735 0.924182
C35_18 C 0.2321(2) 0.6655(2) 0.9782(4)
C36_18 C 0.2303(3) 0.6871(3) 0.9567(3)
H17_18 H 0.214251 0.687295 0.943554
C37_18 C 0.2521(3) 0.7082(3) 0.9546(3)
H18_18 H 0.250852 0.722950 0.939931
C38_18 C 0.2756(2) 0.7079(3) 0.9739(3)
C39_18 C 0.2774(2) 0.6864(3) 0.9953(3)
C40_18 C 0.2557(3) 0.6652(3) 0.9974(3)
H21_18 H 0.539675 0.738276 0.971374
H22_18 H 0.570966 0.746993 0.957055
H23_18 H 0.511177 0.905039 0.970178
H24_18 H 0.538714 0.906334 0.992543
O1_19 O 0.51016(13) 0.34046(14) 0.53164(13)
O2_19 O 0.50143(18) 0.29182(16) 0.53602(18)
O3_10 O 0.92577(15) 0.14689(17) 0.48426(13)
O4_10 O 0.91573(15) 0.19444(19) 0.47160(15)
O9_19 O 0.4504(2) 0.25099(16) 0.5432(2)
O10_19 O 0.4794(2) 0.39552(16) 0.5127(2)
N1_19 N 0.79240(16) 0.14635(19) 0.5115(3)
N2_19 N 0.63965(19) 0.29692(18) 0.5455(2)
C1_19 C 0.8117(3) 0.0273(3) 0.5300(2)
C2_19 C 0.80498(15) 0.05820(10) 0.52693(16)
C3_19 C 0.82679(11) 0.07697(14) 0.51704(15)
H1_19 H 0.845927 0.069683 0.513420
C4_19 C 0.82060(12) 0.10641(13) 0.51245(17)
C5_19 C 0.79260(14) 0.11707(11) 0.51775(19)
C6_19 C 0.77079(11) 0.09830(14) 0.5276(2)
H2_19 H 0.751648 0.105592 0.531265
C7_19 C 0.77698(13) 0.06887(13) 0.53223(18)
H3_19 H 0.762068 0.056035 0.538990
C8_19 C 0.87675(11) 0.16431(16) 0.48790(18)
C9_19 C 0.86754(13) 0.13659(14) 0.49643(17)
H4_19 H 0.881195 0.120938 0.497391
C10_19 C 0.83835(14) 0.13178(11) 0.50356(17)
C11_19 C 0.81837(11) 0.15469(14) 0.50215(19)
C12_19 C 0.82758(14) 0.18241(12) 0.4936(2)
H5_19 H 0.813918 0.198060 0.492654
C13_19 C 0.85676(15) 0.18722(12) 0.4865(2)
H6_19 H 0.863056 0.206163 0.480656
C14_19 C 0.65840(15) 0.38533(11) 0.54327(17)
C15_19 C 0.63011(13) 0.37429(13) 0.54141(16)
H7_19 H 0.613957 0.387288 0.539825
C16_19 C 0.62545(11) 0.34422(13) 0.54186(18)
C17_19 C 0.64909(14) 0.32520(10) 0.5442(2)
C18_19 C 0.67738(12) 0.33624(14) 0.5460(2)
H8_19 H 0.693538 0.323236 0.547618
C19_19 C 0.68204(11) 0.36631(15) 0.54559(19)
H9_19 H 0.701378 0.373853 0.546863
C20_19 C 0.5199(2) 0.3146(2) 0.5340(2)
C21_19 C 0.55029(11) 0.30827(14) 0.5369(2)
C22_19 C 0.56052(13) 0.27961(12) 0.5369(2)
H10_19 H 0.547089 0.263769 0.535911
C23_19 C 0.59042(15) 0.27414(10) 0.5384(2)
H11_19 H 0.597417 0.254554 0.538411
C24_19 C 0.61008(11) 0.29732(13) 0.5398(2)
C25_19 C 0.59984(13) 0.32598(11) 0.5398(2)
C26_19 C 0.56994(14) 0.33145(10) 0.53833(19)
H12_19 H 0.562947 0.351033 0.538305
C27_19 C 0.9075(3) 0.1684(3) 0.4806(2)
C28_19 C 0.6629(3) 0.4170(3) 0.5423(2)
C29_19 C 0.69678(18) 0.22529(16) 0.5361(2)
C30_19 C 0.6764(2) 0.23128(18) 0.5143(2)
H13_19 H 0.675543 0.219291 0.497287
C31_19 C 0.65736(19) 0.25480(19) 0.5173(2)
H14_19 H 0.643456 0.258897 0.502367
C32_19 C 0.65865(18) 0.27234(16) 0.5421(2)
C33_19 C 0.6790(2) 0.26635(18) 0.5639(2)
H15_19 H 0.679886 0.278341 0.580897
C34_19 C 0.69807(19) 0.24283(19) 0.5609(2)
H16_19 H 0.711974 0.238735 0.575818
C35_19 C 0.7679(2) 0.1655(2) 0.5218(4)
C36_19 C 0.7697(3) 0.1871(3) 0.5433(3)
H17_19 H 0.785749 0.187295 0.556446
C37_19 C 0.7479(3) 0.2082(3) 0.5454(3)
H18_19 H 0.749148 0.222950 0.560069
C38_19 C 0.7244(2) 0.2079(3) 0.5261(3)
C39_19 C 0.7226(2) 0.1864(3) 0.5047(3)
H19_19 H 0.706493 0.186127 0.491535
C40_19 C 0.7443(3) 0.1652(3) 0.5026(3)
H20_19 H 0.743094 0.150472 0.487912
O11_10 O 0.42577(15) 0.35311(17) 0.51574(13)
O12_10 O 0.41573(15) 0.30556(19) 0.52840(15)
O13_15 O 0.47515(13) 0.33883(15) 0.48128(14)
O14_15 O 0.46054(15) 0.29081(16) 0.49016(17)
H21_19 H 0.460325 0.238276 0.528626
H22_19 H 0.429034 0.246993 0.542945
H23_19 H 0.488823 0.405039 0.529822
H24_19 H 0.461286 0.406334 0.507457
O1_20 O 0.01016(13) 0.15954(14) 0.46836(13)
O2_20 O 0.00143(18) 0.20818(16) 0.46398(18)
N1_20 N 0.29240(16) 0.35365(19) 0.4885(3)
N2_20 N 0.13965(19) 0.20308(18) 0.4545(2)
C1_20 C 0.3117(3) 0.4727(3) 0.4700(2)
C2_20 C 0.30498(15) 0.44180(10) 0.47307(16)
C3_20 C 0.32679(11) 0.42303(14) 0.48296(15)
H1_20 H 0.345927 0.430317 0.486580
C4_20 C 0.32060(12) 0.39359(13) 0.48755(17)
C5_20 C 0.29260(14) 0.38293(11) 0.48225(19)
C6_20 C 0.27079(11) 0.40170(14) 0.4724(2)
H2_20 H 0.251648 0.394408 0.468735
C7_20 C 0.27698(13) 0.43113(13) 0.46777(18)
H3_20 H 0.262068 0.443965 0.461010
C8_20 C 0.37675(11) 0.33569(16) 0.51210(18)
C9_20 C 0.36754(13) 0.36341(14) 0.50357(17)
H4_20 H 0.381195 0.379062 0.502609
C10_20 C 0.33835(14) 0.36822(11) 0.49644(17)
C11_20 C 0.31837(11) 0.34531(14) 0.49785(19)
C12_20 C 0.32758(14) 0.31759(12) 0.5064(2)
H5_20 H 0.313918 0.301940 0.507346
C13_20 C 0.35676(15) 0.31278(12) 0.5135(2)
H6_20 H 0.363056 0.293837 0.519344
C14_20 C 0.15840(15) 0.11467(11) 0.45673(17)
C15_20 C 0.13011(13) 0.12571(13) 0.45859(16)
H7_20 H 0.113957 0.112712 0.460175
C16_20 C 0.12545(11) 0.15578(13) 0.45814(18)
C17_20 C 0.14909(14) 0.17480(10) 0.4558(2)
C18_20 C 0.17738(12) 0.16376(14) 0.4540(2)
H8_20 H 0.193538 0.176764 0.452382
C19_20 C 0.18204(11) 0.13369(15) 0.45441(19)
H9_20 H 0.201378 0.126147 0.453137
C20_20 C 0.0199(2) 0.1854(2) 0.4660(2)
C21_20 C 0.05029(11) 0.19173(14) 0.4631(2)
C22_20 C 0.06052(13) 0.22039(12) 0.4631(2)
H10_20 H 0.047089 0.236231 0.464089
C23_20 C 0.09042(15) 0.22586(10) 0.4616(2)
H11_20 H 0.097417 0.245446 0.461589
C24_20 C 0.11008(11) 0.20268(13) 0.4602(2)
C25_20 C 0.09984(13) 0.17402(11) 0.4602(2)
C26_20 C 0.06994(14) 0.16855(10) 0.46167(19)
H12_20 H 0.062947 0.148967 0.461695
C27_20 C 0.4075(3) 0.3316(3) 0.5194(2)
C28_20 C 0.1629(3) 0.0830(3) 0.4577(2)
C29_20 C 0.19678(18) 0.27471(16) 0.4639(2)
C30_20 C 0.1764(2) 0.26872(18) 0.4857(2)
H13_20 H 0.175543 0.280709 0.502713
C31_20 C 0.15736(19) 0.24520(19) 0.4827(2)
H14_20 H 0.143456 0.241103 0.497633
C32_20 C 0.15865(18) 0.22766(16) 0.4579(2)
C33_20 C 0.1790(2) 0.23365(18) 0.4361(2)
H15_20 H 0.179886 0.221659 0.419103
C34_20 C 0.19807(19) 0.25717(19) 0.4391(2)
H16_20 H 0.211974 0.261265 0.424182
C35_20 C 0.2679(2) 0.3345(2) 0.4782(4)
C36_20 C 0.2697(3) 0.3129(3) 0.4567(3)
H17_20 H 0.285749 0.312705 0.443554
C37_20 C 0.2479(3) 0.2918(3) 0.4546(3)
H18_20 H 0.249148 0.277050 0.439931
C38_20 C 0.2244(2) 0.2921(3) 0.4739(3)
C39_20 C 0.2226(2) 0.3136(3) 0.4953(3)
H19_20 H 0.206493 0.313873 0.508465
C40_20 C 0.2443(3) 0.3348(3) 0.4974(3)
H20_20 H 0.243094 0.349528 0.512088
O9_20 O 0.9504(2) 0.24901(16) 0.4568(2)
O10_20 O 0.9794(2) 0.10448(16) 0.4873(2)
O13_16 O 0.97515(13) 0.16117(15) 0.51872(14)
O14_16 O 0.96054(15) 0.20919(16) 0.50984(17)
H21_20 H 0.960325 0.261724 0.471374
H22_20 H 0.929034 0.253007 0.457055
H23_20 H 0.988823 0.0949614 0.470178
H24_20 H 0.961286 0.0936662 0.492543
O9_21 O 0.0432(2) 0.0496(2) 0.74901(16)
O10_21 O 0.0127(2) 0.0206(2) 0.60448(16)
O11_11 O 0.01574(13) 0.07423(15) 0.64689(17)
O12_11 O 0.02840(15) 0.08427(15) 0.69444(19)
H21_21 H 0.0286262 0.0396753 0.761724
H22_21 H 0.0429446 0.0709661 0.753007
H23_21 H 0.0298218 0.0111773 0.594961
H24_21 H 0.00745734 0.0387142 0.593666
O1_21 O 0.03164(13) 0.98984(13) 0.65954(14)
O2_21 O 0.03602(18) 0.99857(18) 0.70818(16)
N1_21 N 0.0115(3) 0.70760(16) 0.85365(19)
N2_21 N 0.0455(2) 0.86035(19) 0.70308(18)
C1_21 C 0.0300(2) 0.6883(3) 0.9727(3)
C2_21 C 0.02693(16) 0.69502(15) 0.94180(10)
C3_21 C 0.01704(15) 0.67321(11) 0.92303(14)
H1_21 H 0.013420 0.654073 0.930317
C4_21 C 0.01245(17) 0.67940(12) 0.89359(13)
C5_21 C 0.01775(19) 0.70740(14) 0.88293(11)
C6_21 C 0.0276(2) 0.72921(11) 0.90170(14)
H2_21 H 0.031265 0.748352 0.894408
C7_21 C 0.03223(18) 0.72302(13) 0.93113(13)
H3_21 H 0.038990 0.737932 0.943965
C10_21 C 0.00356(17) 0.66165(14) 0.86822(11)
C11_21 C 0.00215(19) 0.68163(11) 0.84531(14)
C14_21 C 0.04327(17) 0.84160(15) 0.61467(11)
C15_21 C 0.04141(16) 0.86989(13) 0.62571(13)
H7_21 H 0.039825 0.886043 0.612712
C16_21 C 0.04186(18) 0.87455(11) 0.65578(13)
C17_21 C 0.0442(2) 0.85091(14) 0.67480(10)
C18_21 C 0.0460(2) 0.82262(12) 0.66376(14)
H8_21 H 0.047618 0.806462 0.676764
C19_21 C 0.04559(19) 0.81796(11) 0.63369(15)
H9_21 H 0.046863 0.798622 0.626147
C20_21 C 0.0340(2) 0.9801(2) 0.6854(2)
C21_21 C 0.0369(2) 0.94971(11) 0.69173(14)
C22_21 C 0.0369(2) 0.93948(13) 0.72039(12)
H10_21 H 0.035911 0.952911 0.736231
C23_21 C 0.0384(2) 0.90958(15) 0.72586(10)
H11_21 H 0.038411 0.902583 0.745446
C24_21 C 0.0398(2) 0.88992(11) 0.70268(13)
C25_21 C 0.0398(2) 0.90016(13) 0.67402(11)
C26_21 C 0.03833(19) 0.93006(14) 0.66855(10)
H12_21 H 0.038305 0.937053 0.648967
C28_21 C 0.0423(2) 0.8371(3) 0.5830(3)
C29_21 C 0.0361(2) 0.80322(18) 0.77471(16)
C30_21 C 0.0143(2) 0.8236(2) 0.76872(18)
C31_21 C 0.0173(2) 0.84264(19) 0.74520(19)
H14_21 H 0.002367 0.856544 0.741103
C32_21 C 0.0421(2) 0.84135(18) 0.72766(16)
C33_21 C 0.0639(2) 0.8210(2) 0.73365(18)
H15_21 H 0.080897 0.820114 0.721659
C34_21 C 0.0609(2) 0.80193(19) 0.75717(19)
H16_21 H 0.075818 0.788026 0.761265
C35_21 C 0.0218(4) 0.7321(2) 0.8345(2)
C36_21 C 0.0433(3) 0.7303(3) 0.8129(3)
H17_21 H 0.056446 0.714251 0.812705
C37_21 C 0.0454(3) 0.7521(3) 0.7918(3)
H18_21 H 0.060069 0.750852 0.777050
C38_21 C 0.0261(3) 0.7756(2) 0.7921(3)
C39_21 C 0.0047(3) 0.7774(2) 0.8136(3)
C40_21 C 0.0026(3) 0.7557(3) 0.8348(3)
O3_11 O 0.98426(13) 0.57423(15) 0.85311(17)
O4_11 O 0.97160(15) 0.58427(15) 0.80556(19)
C8_21 C 0.98790(18) 0.62325(11) 0.83569(16)
C9_21 C 0.99643(17) 0.63246(13) 0.86341(14)
H4_21 H 0.997391 0.618805 0.879062
C12_21 C 0.9936(2) 0.67242(14) 0.81759(12)
H5_21 H 0.992654 0.686082 0.801940
C13_21 C 0.9865(2) 0.64324(15) 0.81278(12)
H6_21 H 0.980656 0.636944 0.793837
C27_21 C 0.9806(2) 0.5925(3) 0.8316(3)
H13_21 H 0.997287 0.824457 0.780709
H19_21 H 0.991535 0.793507 0.813873
H20_21 H 0.987912 0.756906 0.849528
C8_22 C 0.01210(18) 0.12325(11) 0.66431(16)
C9_22 C 0.00357(17) 0.13246(13) 0.63659(14)
H4_22 H 0.002609 0.118805 0.620938
C12_22 C 0.0064(2) 0.17242(14) 0.68241(12)
H5_22 H 0.007346 0.186082 0.698060
C13_22 C 0.0135(2) 0.14324(15) 0.68722(12)
H6_22 H 0.019344 0.136944 0.706163
C27_22 C 0.0194(2) 0.0925(3) 0.6684(3)
H13_22 H 0.002713 0.324457 0.719291
H19_22 H 0.008465 0.293507 0.686127
H20_22 H 0.012088 0.256906 0.650472
O1_22 O 0.96836(13) 0.48984(13) 0.84046(14)
O2_22 O 0.96398(18) 0.49857(18) 0.79182(16)
O9_22 O 0.9568(2) 0.5496(2) 0.75099(16)
O10_22 O 0.9873(2) 0.5206(2) 0.89552(16)
N1_22 N 0.9885(3) 0.20760(16) 0.64635(19)
N2_22 N 0.9545(2) 0.36035(19) 0.79692(18)
C1_22 C 0.9700(2) 0.1883(3) 0.5273(3)
C2_22 C 0.97307(16) 0.19502(15) 0.55820(10)
C3_22 C 0.98296(15) 0.17321(11) 0.57697(14)
H1_22 H 0.986580 0.154073 0.569683
C4_22 C 0.98755(17) 0.17940(12) 0.60641(13)
C5_22 C 0.98225(19) 0.20740(14) 0.61707(11)
C6_22 C 0.9724(2) 0.22921(11) 0.59830(14)
H2_22 H 0.968735 0.248352 0.605592
C7_22 C 0.96777(18) 0.22302(13) 0.56887(13)
H3_22 H 0.961010 0.237932 0.556035
C10_22 C 0.99644(17) 0.16165(14) 0.63178(11)
C11_22 C 0.99785(19) 0.18163(11) 0.65469(14)
C14_22 C 0.95673(17) 0.34160(15) 0.88533(11)
C15_22 C 0.95859(16) 0.36989(13) 0.87429(13)
H7_22 H 0.960175 0.386043 0.887288
C16_22 C 0.95814(18) 0.37455(11) 0.84422(13)
C17_22 C 0.9558(2) 0.35091(14) 0.82520(10)
C18_22 C 0.9540(2) 0.32262(12) 0.83624(14)
H8_22 H 0.952382 0.306462 0.823236
C19_22 C 0.95441(19) 0.31796(11) 0.86631(15)
H9_22 H 0.953137 0.298622 0.873853
C20_22 C 0.9660(2) 0.4801(2) 0.8146(2)
C21_22 C 0.9631(2) 0.44971(11) 0.80827(14)
C22_22 C 0.9631(2) 0.43948(13) 0.77961(12)
H10_22 H 0.964089 0.452911 0.763769
C23_22 C 0.9616(2) 0.40958(15) 0.77414(10)
H11_22 H 0.961589 0.402583 0.754554
C24_22 C 0.9602(2) 0.38992(11) 0.79732(13)
C25_22 C 0.9602(2) 0.40016(13) 0.82598(11)
C26_22 C 0.96167(19) 0.43006(14) 0.83145(10)
H12_22 H 0.961695 0.437053 0.851033
C28_22 C 0.9577(2) 0.3371(3) 0.9170(3)
C29_22 C 0.9639(2) 0.30322(18) 0.72529(16)
C30_22 C 0.9857(2) 0.3236(2) 0.73128(18)
C31_22 C 0.9827(2) 0.34264(19) 0.75480(19)
H14_22 H 0.997633 0.356544 0.758897
C32_22 C 0.9579(2) 0.34135(18) 0.77234(16)
C33_22 C 0.9361(2) 0.3210(2) 0.76635(18)
H15_22 H 0.919103 0.320114 0.778341
C34_22 C 0.9391(2) 0.30193(19) 0.74283(19)
H16_22 H 0.924182 0.288026 0.738735
C35_22 C 0.9782(4) 0.2321(2) 0.6655(2)
C36_22 C 0.9567(3) 0.2303(3) 0.6871(3)
H17_22 H 0.943554 0.214251 0.687295
C37_22 C 0.9546(3) 0.2521(3) 0.7082(3)
H18_22 H 0.939931 0.250852 0.722950
C38_22 C 0.9739(3) 0.2756(2) 0.7079(3)
C39_22 C 0.9953(3) 0.2774(2) 0.6864(3)
C40_22 C 0.9974(3) 0.2557(3) 0.6652(3)
H21_22 H 0.971374 0.539675 0.738276
H22_22 H 0.957055 0.570966 0.746993
H23_22 H 0.970178 0.511177 0.905039
H24_22 H 0.992543 0.538714 0.906334
O1_23 O 0.53164(13) 0.51016(13) 0.34046(14)
O2_23 O 0.53602(18) 0.50143(18) 0.29182(16)
O3_12 O 0.48426(13) 0.92577(15) 0.14689(17)
O4_12 O 0.47160(15) 0.91573(15) 0.19444(19)
O9_23 O 0.5432(2) 0.4504(2) 0.25099(16)
O10_23 O 0.5127(2) 0.4794(2) 0.39552(16)
N1_23 N 0.5115(3) 0.79240(16) 0.14635(19)
N2_23 N 0.5455(2) 0.63965(19) 0.29692(18)
C1_23 C 0.5300(2) 0.8117(3) 0.0273(3)
C2_23 C 0.52693(16) 0.80498(15) 0.05820(10)
C3_23 C 0.51704(15) 0.82679(11) 0.07697(14)
H1_23 H 0.513420 0.845927 0.069683
C4_23 C 0.51245(17) 0.82060(12) 0.10641(13)
C5_23 C 0.51775(19) 0.79260(14) 0.11707(11)
C6_23 C 0.5276(2) 0.77079(11) 0.09830(14)
H2_23 H 0.531265 0.751648 0.105592
C7_23 C 0.53223(18) 0.77698(13) 0.06887(13)
H3_23 H 0.538990 0.762068 0.056035
C8_23 C 0.48790(18) 0.87675(11) 0.16431(16)
C9_23 C 0.49643(17) 0.86754(13) 0.13659(14)
H4_23 H 0.497391 0.881195 0.120938
C10_23 C 0.50356(17) 0.83835(14) 0.13178(11)
C11_23 C 0.50215(19) 0.81837(11) 0.15469(14)
C12_23 C 0.4936(2) 0.82758(14) 0.18241(12)
H5_23 H 0.492654 0.813918 0.198060
C13_23 C 0.4865(2) 0.85676(15) 0.18722(12)
H6_23 H 0.480656 0.863056 0.206163
C14_23 C 0.54327(17) 0.65840(15) 0.38533(11)
C15_23 C 0.54141(16) 0.63011(13) 0.37429(13)
H7_23 H 0.539825 0.613957 0.387288
C16_23 C 0.54186(18) 0.62545(11) 0.34422(13)
C17_23 C 0.5442(2) 0.64909(14) 0.32520(10)
C18_23 C 0.5460(2) 0.67738(12) 0.33624(14)
H8_23 H 0.547618 0.693538 0.323236
C19_23 C 0.54559(19) 0.68204(11) 0.36631(15)
H9_23 H 0.546863 0.701378 0.373853
C20_23 C 0.5340(2) 0.5199(2) 0.3146(2)
C21_23 C 0.5369(2) 0.55029(11) 0.30827(14)
C22_23 C 0.5369(2) 0.56052(13) 0.27961(12)
H10_23 H 0.535911 0.547089 0.263769
C23_23 C 0.5384(2) 0.59042(15) 0.27414(10)
H11_23 H 0.538411 0.597417 0.254554
C24_23 C 0.5398(2) 0.61008(11) 0.29732(13)
C25_23 C 0.5398(2) 0.59984(13) 0.32598(11)
C26_23 C 0.53833(19) 0.56994(14) 0.33145(10)
H12_23 H 0.538305 0.562947 0.351033
C27_23 C 0.4806(2) 0.9075(3) 0.1684(3)
C28_23 C 0.5423(2) 0.6629(3) 0.4170(3)
C29_23 C 0.5361(2) 0.69678(18) 0.22529(16)
C30_23 C 0.5143(2) 0.6764(2) 0.23128(18)
H13_23 H 0.497287 0.675543 0.219291
C31_23 C 0.5173(2) 0.65736(19) 0.25480(19)
H14_23 H 0.502367 0.643456 0.258897
C32_23 C 0.5421(2) 0.65865(18) 0.27234(16)
C33_23 C 0.5639(2) 0.6790(2) 0.26635(18)
H15_23 H 0.580897 0.679886 0.278341
C34_23 C 0.5609(2) 0.69807(19) 0.24283(19)
H16_23 H 0.575818 0.711974 0.238735
C35_23 C 0.5218(4) 0.7679(2) 0.1655(2)
C36_23 C 0.5433(3) 0.7697(3) 0.1871(3)
H17_23 H 0.556446 0.785749 0.187295
C37_23 C 0.5454(3) 0.7479(3) 0.2082(3)
H18_23 H 0.560069 0.749148 0.222950
C38_23 C 0.5261(3) 0.7244(2) 0.2079(3)
C39_23 C 0.5047(3) 0.7226(2) 0.1864(3)
H19_23 H 0.491535 0.706493 0.186127
C40_23 C 0.5026(3) 0.7443(3) 0.1652(3)
H20_23 H 0.487912 0.743094 0.150472
O11_12 O 0.51574(13) 0.42577(15) 0.35311(17)
O12_12 O 0.52840(15) 0.41573(15) 0.30556(19)
H21_23 H 0.528626 0.460325 0.238276
H22_23 H 0.542945 0.429034 0.246993
H23_23 H 0.529822 0.488823 0.405039
H24_23 H 0.507457 0.461286 0.406334
O1_24 O 0.46836(13) 0.01016(13) 0.15954(14)
O2_24 O 0.46398(18) 0.00143(18) 0.20818(16)
N1_24 N 0.4885(3) 0.29240(16) 0.35365(19)
N2_24 N 0.4545(2) 0.13965(19) 0.20308(18)
C1_24 C 0.4700(2) 0.3117(3) 0.4727(3)
C2_24 C 0.47307(16) 0.30498(15) 0.44180(10)
C3_24 C 0.48296(15) 0.32679(11) 0.42303(14)
H1_24 H 0.486580 0.345927 0.430317
C4_24 C 0.48755(17) 0.32060(12) 0.39359(13)
C5_24 C 0.48225(19) 0.29260(14) 0.38293(11)
C6_24 C 0.4724(2) 0.27079(11) 0.40170(14)
H2_24 H 0.468735 0.251648 0.394408
C7_24 C 0.46777(18) 0.27698(13) 0.43113(13)
H3_24 H 0.461010 0.262068 0.443965
C8_24 C 0.51210(18) 0.37675(11) 0.33569(16)
C9_24 C 0.50357(17) 0.36754(13) 0.36341(14)
H4_24 H 0.502609 0.381195 0.379062
C10_24 C 0.49644(17) 0.33835(14) 0.36822(11)
C11_24 C 0.49785(19) 0.31837(11) 0.34531(14)
C12_24 C 0.5064(2) 0.32758(14) 0.31759(12)
H5_24 H 0.507346 0.313918 0.301940
C13_24 C 0.5135(2) 0.35676(15) 0.31278(12)
H6_24 H 0.519344 0.363056 0.293837
C14_24 C 0.45673(17) 0.15840(15) 0.11467(11)
C15_24 C 0.45859(16) 0.13011(13) 0.12571(13)
H7_24 H 0.460175 0.113957 0.112712
C16_24 C 0.45814(18) 0.12545(11) 0.15578(13)
C17_24 C 0.4558(2) 0.14909(14) 0.17480(10)
C18_24 C 0.4540(2) 0.17738(12) 0.16376(14)
H8_24 H 0.452382 0.193538 0.176764
C19_24 C 0.45441(19) 0.18204(11) 0.13369(15)
H9_24 H 0.453137 0.201378 0.126147
C20_24 C 0.4660(2) 0.0199(2) 0.1854(2)
C21_24 C 0.4631(2) 0.05029(11) 0.19173(14)
C22_24 C 0.4631(2) 0.06052(13) 0.22039(12)
H10_24 H 0.464089 0.047089 0.236231
C23_24 C 0.4616(2) 0.09042(15) 0.22586(10)
H11_24 H 0.461589 0.097417 0.245446
C24_24 C 0.4602(2) 0.11008(11) 0.20268(13)
C25_24 C 0.4602(2) 0.09984(13) 0.17402(11)
C26_24 C 0.46167(19) 0.06994(14) 0.16855(10)
H12_24 H 0.461695 0.062947 0.148967
C27_24 C 0.5194(2) 0.4075(3) 0.3316(3)
C28_24 C 0.4577(2) 0.1629(3) 0.0830(3)
C29_24 C 0.4639(2) 0.19678(18) 0.27471(16)
C30_24 C 0.4857(2) 0.1764(2) 0.26872(18)
H13_24 H 0.502713 0.175543 0.280709
C31_24 C 0.4827(2) 0.15736(19) 0.24520(19)
H14_24 H 0.497633 0.143456 0.241103
C32_24 C 0.4579(2) 0.15865(18) 0.22766(16)
C33_24 C 0.4361(2) 0.1790(2) 0.23365(18)
H15_24 H 0.419103 0.179886 0.221659
C34_24 C 0.4391(2) 0.19807(19) 0.25717(19)
H16_24 H 0.424182 0.211974 0.261265
C35_24 C 0.4782(4) 0.2679(2) 0.3345(2)
C36_24 C 0.4567(3) 0.2697(3) 0.3129(3)
H17_24 H 0.443554 0.285749 0.312705
C37_24 C 0.4546(3) 0.2479(3) 0.2918(3)
H18_24 H 0.439931 0.249148 0.277050
C38_24 C 0.4739(3) 0.2244(2) 0.2921(3)
C39_24 C 0.4953(3) 0.2226(2) 0.3136(3)
H19_24 H 0.508465 0.206493 0.313873
C40_24 C 0.4974(3) 0.2443(3) 0.3348(3)
H20_24 H 0.512088 0.243094 0.349528
O9_24 O 0.4568(2) 0.9504(2) 0.24901(16)
O10_24 O 0.4873(2) 0.9794(2) 0.10448(16)
H21_24 H 0.471374 0.960325 0.261724
H22_24 H 0.457055 0.929034 0.253007
H23_24 H 0.470178 0.988823 0.0949614
H24_24 H 0.492543 0.961286 0.0936662
loop_
_geom_bond_atom_site_label_1
_geom_bond_atom_site_label_2
_geom_bond_site_symmetry_1
_geom_bond_site_symmetry_2
O3 C27 1_555 1_555
O4 C27 1_555 1_555
C8 C9 1_555 1_555
C9 H4 1_555 1_555
H5 C12 1_555 1_555
C13 C8 1_555 1_555
H6 C13 1_555 1_555
C27 C8 1_555 1_555
Co3 O3 1_555 1_555
Co6 O4 1_555 1_555
C12 C13 1_555 1_555
O1 C20 1_555 1_555
O2 C20 1_555 1_555
O5 C1 1_555 1_555
O6 C1 1_555 1_555
O7 C28 1_555 1_555
O8 C28 1_555 1_555
N1 C5 1_555 1_555
N2 C17 1_555 1_555
C1 C2 1_555 1_555
C2 C3 1_555 1_555
C3 H1 1_555 1_555
C4 C3 1_555 1_555
C5 C4 1_555 1_555
C6 C5 1_555 1_555
H2 C6 1_555 1_555
C7 C2 1_555 1_555
H3 C7 1_555 1_555
C10 C4 1_555 1_555
C11 N1 1_555 1_555
C14 C15 1_555 1_555
C15 H7 1_555 1_555
C16 C15 1_555 1_555
C17 C16 1_555 1_555
C18 C17 1_555 1_555
H8 C18 1_555 1_555
C19 C14 1_555 1_555
H9 C19 1_555 1_555
C20 C21 1_555 1_555
C21 C22 1_555 1_555
C22 H10 1_555 1_555
C23 C22 1_555 1_555
H11 C23 1_555 1_555
C24 N2 1_555 1_555
C25 C16 1_555 1_555
C26 C21 1_555 1_555
H12 C26 1_555 1_555
C28 C14 1_555 1_555
C29 C30 1_555 1_555
C31 C30 1_555 1_555
H14 C31 1_555 1_555
C32 N2 1_555 1_555
C33 C32 1_555 1_555
H15 C33 1_555 1_555
C34 C29 1_555 1_555
H16 C34 1_555 1_555
C35 N1 1_555 1_555
C36 C35 1_555 1_555
H17 C36 1_555 1_555
C37 C36 1_555 1_555
H18 C37 1_555 1_555
C38 C29 1_555 1_555
C39 C38 1_555 1_555
C40 C35 1_555 1_555
Co5 O7 1_555 1_555
Co8 O8 1_555 1_555
C6 C7 1_555 1_555
C10 C11 1_555 1_555
C18 C19 1_555 1_555
C23 C24 1_555 1_555
C24 C25 1_555 1_555
C25 C26 1_555 1_555
C31 C32 1_555 1_555
C33 C34 1_555 1_555
C37 C38 1_555 1_555
C39 C40 1_555 1_555
O9 Co2 1_555 1_555
O10 Co1 1_555 1_555
O11 Co1 1_555 1_555
O12 Co2 1_555 1_555
O15 Co1 1_555 1_555
O16 Co2 1_555 1_555
O9 H21 1_555 1_555
O9 H22 1_555 1_555
O10 H23 1_555 1_555
O10 H24 1_555 1_555
Co3 O1_2 1_555 1_555
Co6 O2_2 1_555 1_555
O1_2 C20_2 1_555 1_555
O2_2 C20_2 1_555 1_555
O5_2 C1_2 1_555 1_555
O6_2 C1_2 1_555 1_555
O7_2 C28_2 1_555 1_555
O8_2 C28_2 1_555 1_555
O9_2 Co6 1_555 1_555
O10_2 Co3 1_555 1_555
N1_2 C5_2 1_555 1_555
N2_2 C17_2 1_555 1_555
C1_2 C2_2 1_555 1_555
C2_2 C3_2 1_555 1_555
C3_2 H1_2 1_555 1_555
C4_2 C3_2 1_555 1_555
C5_2 C4_2 1_555 1_555
C6_2 C5_2 1_555 1_555
H2_2 C6_2 1_555 1_555
C7_2 C2_2 1_555 1_555
H3_2 C7_2 1_555 1_555
C10_2 C4_2 1_555 1_555
C11_2 N1_2 1_555 1_555
C14_2 C15_2 1_555 1_555
C15_2 H7_2 1_555 1_555
C16_2 C15_2 1_555 1_555
C17_2 C16_2 1_555 1_555
C18_2 C17_2 1_555 1_555
H8_2 C18_2 1_555 1_555
C19_2 C14_2 1_555 1_555
H9_2 C19_2 1_555 1_555
C20_2 C21_2 1_555 1_555
C21_2 C22_2 1_555 1_555
C22_2 H10_2 1_555 1_555
C23_2 C22_2 1_555 1_555
H11_2 C23_2 1_555 1_555
C24_2 N2_2 1_555 1_555
C25_2 C16_2 1_555 1_555
C26_2 C21_2 1_555 1_555
H12_2 C26_2 1_555 1_555
C28_2 C14_2 1_555 1_555
C29_2 C30_2 1_555 1_555
C31_2 C30_2 1_555 1_555
H14_2 C31_2 1_555 1_555
C32_2 N2_2 1_555 1_555
C33_2 C32_2 1_555 1_555
H15_2 C33_2 1_555 1_555
C34_2 C29_2 1_555 1_555
H16_2 C34_2 1_555 1_555
C35_2 N1_2 1_555 1_555
C36_2 C35_2 1_555 1_555
H17_2 C36_2 1_555 1_555
C37_2 C36_2 1_555 1_555
H18_2 C37_2 1_555 1_555
C38_2 C29_2 1_555 1_555
C39_2 C38_2 1_555 1_555
C40_2 C35_2 1_555 1_555
Co4_2 O5_2 1_555 1_555
Co5_2 O7_2 1_555 1_555
Co7_2 O6_2 1_555 1_555
Co8_2 O8_2 1_555 1_555
O15_2 Co3 1_555 1_555
O16_2 Co6 1_555 1_555
C6_2 C7_2 1_555 1_555
C10_2 C11_2 1_555 1_555
C18_2 C19_2 1_555 1_555
C23_2 C24_2 1_555 1_555
C24_2 C25_2 1_555 1_555
C25_2 C26_2 1_555 1_555
C31_2 C32_2 1_555 1_555
C33_2 C34_2 1_555 1_555
C37_2 C38_2 1_555 1_555
C39_2 C40_2 1_555 1_555
O9_2 H21_2 1_555 1_555
O9_2 H22_2 1_555 1_555
O10_2 H23_2 1_555 1_555
O10_2 H24_2 1_555 1_555
O11 C27_2 1_555 1_555
O12 C27_2 1_555 1_555
C8_2 C9_2 1_555 1_555
C9_2 H4_2 1_555 1_555
H5_2 C12_2 1_555 1_555
C13_2 C8_2 1_555 1_555
H6_2 C13_2 1_555 1_555
C27_2 C8_2 1_555 1_555
C12_2 C13_2 1_555 1_555
Co1_2 O1_3 1_555 1_555
Co2_2 O2_3 1_555 1_555
O1_3 C20_3 1_555 1_555
O2_3 C20_3 1_555 1_555
O3_2 C27_3 1_555 1_555
O4_2 C27_3 1_555 1_555
O5_3 C1_3 1_555 1_555
O6_3 C1_3 1_555 1_555
O7_3 C28_3 1_555 1_555
O8_3 C28_3 1_555 1_555
O9_3 Co2_2 1_555 1_555
O10_3 Co1_2 1_555 1_555
N1_3 C5_3 1_555 1_555
N2_3 C17_3 1_555 1_555
C1_3 C2_3 1_555 1_555
C2_3 C3_3 1_555 1_555
C3_3 H1_3 1_555 1_555
C4_3 C3_3 1_555 1_555
C5_3 C4_3 1_555 1_555
C6_3 C5_3 1_555 1_555
H2_3 C6_3 1_555 1_555
C7_3 C2_3 1_555 1_555
H3_3 C7_3 1_555 1_555
C8_3 C9_3 1_555 1_555
C9_3 H4_3 1_555 1_555
C10_3 C4_3 1_555 1_555
C11_3 N1_3 1_555 1_555
C12_3 C11_3 1_555 1_555
H5_3 C12_3 1_555 1_555
C13_3 C8_3 1_555 1_555
H6_3 C13_3 1_555 1_555
C14_3 C15_3 1_555 1_555
C15_3 H7_3 1_555 1_555
C16_3 C15_3 1_555 1_555
C17_3 C16_3 1_555 1_555
C18_3 C17_3 1_555 1_555
H8_3 C18_3 1_555 1_555
C19_3 C14_3 1_555 1_555
H9_3 C19_3 1_555 1_555
C20_3 C21_3 1_555 1_555
C21_3 C22_3 1_555 1_555
C22_3 H10_3 1_555 1_555
C23_3 C22_3 1_555 1_555
H11_3 C23_3 1_555 1_555
C24_3 N2_3 1_555 1_555
C25_3 C16_3 1_555 1_555
C26_3 C21_3 1_555 1_555
H12_3 C26_3 1_555 1_555
C27_3 C8_3 1_555 1_555
C28_3 C14_3 1_555 1_555
C29_3 C30_3 1_555 1_555
C30_3 H13_3 1_555 1_555
C31_3 C30_3 1_555 1_555
H14_3 C31_3 1_555 1_555
C32_3 N2_3 1_555 1_555
C33_3 C32_3 1_555 1_555
H15_3 C33_3 1_555 1_555
C34_3 C29_3 1_555 1_555
H16_3 C34_3 1_555 1_555
C35_3 N1_3 1_555 1_555
C36_3 C35_3 1_555 1_555
H17_3 C36_3 1_555 1_555
C37_3 C36_3 1_555 1_555
H18_3 C37_3 1_555 1_555
C38_3 C29_3 1_555 1_555
C39_3 C38_3 1_555 1_555
H19_3 C39_3 1_555 1_555
C40_3 C35_3 1_555 1_555
H20_3 C40_3 1_555 1_555
Co3_2 O3_2 1_555 1_555
Co5_3 O7_3 1_555 1_555
Co6_2 O4_2 1_555 1_555
Co8_3 O8_3 1_555 1_555
O11_2 Co1_2 1_555 1_555
O12_2 Co2_2 1_555 1_555
O13_3 Co1_2 1_555 1_555
O14_3 Co2_2 1_555 1_555
O15_3 Co1_2 1_555 1_555
O16_3 Co2_2 1_555 1_555
C6_3 C7_3 1_555 1_555
C9_3 C10_3 1_555 1_555
C10_3 C11_3 1_555 1_555
C12_3 C13_3 1_555 1_555
C18_3 C19_3 1_555 1_555
C23_3 C24_3 1_555 1_555
C24_3 C25_3 1_555 1_555
C25_3 C26_3 1_555 1_555
C31_3 C32_3 1_555 1_555
C33_3 C34_3 1_555 1_555
C37_3 C38_3 1_555 1_555
C39_3 C40_3 1_555 1_555
O9_3 H21_3 1_555 1_555
O9_3 H22_3 1_555 1_555
O10_3 H23_3 1_555 1_555
O10_3 H24_3 1_555 1_555
O9_4 Co6_2 1_555 1_555
O10_4 Co3_2 1_555 1_555
O13_4 Co3_2 1_555 1_555
O14_4 Co6_2 1_555 1_555
O15_4 Co3_2 1_555 1_555
O16_4 Co6_2 1_555 1_555
O9_4 H21_4 1_555 1_555
O9_4 H22_4 1_555 1_555
O10_4 H23_4 1_555 1_555
O10_4 H24_4 1_555 1_555
O1_4 C20_4 1_555 1_555
O2_4 C20_4 1_555 1_555
O11_2 C27_4 1_555 1_555
O12_2 C27_4 1_555 1_555
O5_4 C1_4 1_555 1_555
O6_4 C1_4 1_555 1_555
O7_4 C28_4 1_555 1_555
O8_4 C28_4 1_555 1_555
N1_4 C5_4 1_555 1_555
N2_4 C17_4 1_555 1_555
C1_4 C2_4 1_555 1_555
C2_4 C3_4 1_555 1_555
C3_4 H1_4 1_555 1_555
C4_4 C3_4 1_555 1_555
C5_4 C4_4 1_555 1_555
C6_4 C5_4 1_555 1_555
H2_4 C6_4 1_555 1_555
C7_4 C2_4 1_555 1_555
H3_4 C7_4 1_555 1_555
C8_4 C9_4 1_555 1_555
C9_4 H4_4 1_555 1_555
C10_4 C4_4 1_555 1_555
C11_4 N1_4 1_555 1_555
C12_4 C11_4 1_555 1_555
H5_4 C12_4 1_555 1_555
C13_4 C8_4 1_555 1_555
H6_4 C13_4 1_555 1_555
C14_4 C15_4 1_555 1_555
C15_4 H7_4 1_555 1_555
C16_4 C15_4 1_555 1_555
C17_4 C16_4 1_555 1_555
C18_4 C17_4 1_555 1_555
H8_4 C18_4 1_555 1_555
C19_4 C14_4 1_555 1_555
H9_4 C19_4 1_555 1_555
C20_4 C21_4 1_555 1_555
C21_4 C22_4 1_555 1_555
C22_4 H10_4 1_555 1_555
C23_4 C22_4 1_555 1_555
H11_4 C23_4 1_555 1_555
C24_4 N2_4 1_555 1_555
C25_4 C16_4 1_555 1_555
C26_4 C21_4 1_555 1_555
H12_4 C26_4 1_555 1_555
C27_4 C8_4 1_555 1_555
C28_4 C14_4 1_555 1_555
C29_4 C30_4 1_555 1_555
C30_4 H13_4 1_555 1_555
C31_4 C30_4 1_555 1_555
H14_4 C31_4 1_555 1_555
C32_4 N2_4 1_555 1_555
C33_4 C32_4 1_555 1_555
H15_4 C33_4 1_555 1_555
C34_4 C29_4 1_555 1_555
H16_4 C34_4 1_555 1_555
C35_4 N1_4 1_555 1_555
C36_4 C35_4 1_555 1_555
H17_4 C36_4 1_555 1_555
C37_4 C36_4 1_555 1_555
H18_4 C37_4 1_555 1_555
C38_4 C29_4 1_555 1_555
C39_4 C38_4 1_555 1_555
H19_4 C39_4 1_555 1_555
C40_4 C35_4 1_555 1_555
H20_4 C40_4 1_555 1_555
Co4_4 O5_4 1_555 1_555
Co5_4 O7_4 1_555 1_555
Co7_4 O6_4 1_555 1_555
Co8_4 O8_4 1_555 1_555
C6_4 C7_4 1_555 1_555
C9_4 C10_4 1_555 1_555
C10_4 C11_4 1_555 1_555
C12_4 C13_4 1_555 1_555
C18_4 C19_4 1_555 1_555
C23_4 C24_4 1_555 1_555
C24_4 C25_4 1_555 1_555
C25_4 C26_4 1_555 1_555
C31_4 C32_4 1_555 1_555
C33_4 C34_4 1_555 1_555
C37_4 C38_4 1_555 1_555
C39_4 C40_4 1_555 1_555
O3_3 C27_5 1_555 1_555
O4_3 C27_5 1_555 1_555
C8_5 C9_5 1_555 1_555
C9_5 H4_5 1_555 1_555
H5_5 C12_5 1_555 1_555
C13_5 C8_5 1_555 1_555
H6_5 C13_5 1_555 1_555
C27_5 C8_5 1_555 1_555
Co3_3 O3_3 1_555 1_555
Co6_3 O4_3 1_555 1_555
C12_5 C13_5 1_555 1_555
O1_5 C20_5 1_555 1_555
O2_5 C20_5 1_555 1_555
O13 C1_5 1_555 1_555
O14 C1_5 1_555 1_555
O7_5 C28_5 1_555 1_555
O8_5 C28_5 1_555 1_555
N1_5 C5_5 1_555 1_555
N2_5 C17_5 1_555 1_555
C1_5 C2_5 1_555 1_555
C2_5 C3_5 1_555 1_555
C3_5 H1_5 1_555 1_555
C4_5 C3_5 1_555 1_555
C5_5 C4_5 1_555 1_555
C6_5 C5_5 1_555 1_555
H2_5 C6_5 1_555 1_555
C7_5 C2_5 1_555 1_555
H3_5 C7_5 1_555 1_555
C10_5 C4_5 1_555 1_555
C11_5 N1_5 1_555 1_555
C14_5 C15_5 1_555 1_555
C15_5 H7_5 1_555 1_555
C16_5 C15_5 1_555 1_555
C17_5 C16_5 1_555 1_555
C18_5 C17_5 1_555 1_555
H8_5 C18_5 1_555 1_555
C19_5 C14_5 1_555 1_555
H9_5 C19_5 1_555 1_555
C20_5 C21_5 1_555 1_555
C21_5 C22_5 1_555 1_555
C22_5 H10_5 1_555 1_555
C23_5 C22_5 1_555 1_555
H11_5 C23_5 1_555 1_555
C24_5 N2_5 1_555 1_555
C25_5 C16_5 1_555 1_555
C26_5 C21_5 1_555 1_555
H12_5 C26_5 1_555 1_555
C28_5 C14_5 1_555 1_555
C29_5 C30_5 1_555 1_555
C31_5 C30_5 1_555 1_555
H14_5 C31_5 1_555 1_555
C32_5 N2_5 1_555 1_555
C33_5 C32_5 1_555 1_555
H15_5 C33_5 1_555 1_555
C34_5 C29_5 1_555 1_555
H16_5 C34_5 1_555 1_555
C35_5 N1_5 1_555 1_555
C36_5 C35_5 1_555 1_555
H17_5 C36_5 1_555 1_555
C37_5 C36_5 1_555 1_555
H18_5 C37_5 1_555 1_555
C38_5 C29_5 1_555 1_555
C39_5 C38_5 1_555 1_555
C40_5 C35_5 1_555 1_555
Co5_5 O7_5 1_555 1_555
Co8_5 O8_5 1_555 1_555
C6_5 C7_5 1_555 1_555
C10_5 C11_5 1_555 1_555
C18_5 C19_5 1_555 1_555
C23_5 C24_5 1_555 1_555
C24_5 C25_5 1_555 1_555
C25_5 C26_5 1_555 1_555
C31_5 C32_5 1_555 1_555
C33_5 C34_5 1_555 1_555
C37_5 C38_5 1_555 1_555
C39_5 C40_5 1_555 1_555
O9_5 Co2_3 1_555 1_555
O10_5 Co1_3 1_555 1_555
O11_3 Co1_3 1_555 1_555
O12_3 Co2_3 1_555 1_555
O15_5 Co1_3 1_555 1_555
O16_5 Co2_3 1_555 1_555
O9_5 H21_5 1_555 1_555
O9_5 H22_5 1_555 1_555
O10_5 H23_5 1_555 1_555
O10_5 H24_5 1_555 1_555
Co3_3 O1_6 1_555 1_555
Co6_3 O2_6 1_555 1_555
O1_6 C20_6 1_555 1_555
O2_6 C20_6 1_555 1_555
O13_4 C1_6 1_555 1_555
O14_4 C1_6 1_555 1_555
O7_6 C28_6 1_555 1_555
O8_6 C28_6 1_555 1_555
O9_6 Co6_3 1_555 1_555
O10_6 Co3_3 1_555 1_555
N1_6 C5_6 1_555 1_555
N2_6 C17_6 1_555 1_555
C1_6 C2_6 1_555 1_555
C2_6 C3_6 1_555 1_555
C3_6 H1_6 1_555 1_555
C4_6 C3_6 1_555 1_555
C5_6 C4_6 1_555 1_555
C6_6 C5_6 1_555 1_555
H2_6 C6_6 1_555 1_555
C7_6 C2_6 1_555 1_555
H3_6 C7_6 1_555 1_555
C10_6 C4_6 1_555 1_555
C11_6 N1_6 1_555 1_555
C14_6 C15_6 1_555 1_555
C15_6 H7_6 1_555 1_555
C16_6 C15_6 1_555 1_555
C17_6 C16_6 1_555 1_555
C18_6 C17_6 1_555 1_555
H8_6 C18_6 1_555 1_555
C19_6 C14_6 1_555 1_555
H9_6 C19_6 1_555 1_555
C20_6 C21_6 1_555 1_555
C21_6 C22_6 1_555 1_555
C22_6 H10_6 1_555 1_555
C23_6 C22_6 1_555 1_555
H11_6 C23_6 1_555 1_555
C24_6 N2_6 1_555 1_555
C25_6 C16_6 1_555 1_555
C26_6 C21_6 1_555 1_555
H12_6 C26_6 1_555 1_555
C28_6 C14_6 1_555 1_555
C29_6 C30_6 1_555 1_555
C31_6 C30_6 1_555 1_555
H14_6 C31_6 1_555 1_555
C32_6 N2_6 1_555 1_555
C33_6 C32_6 1_555 1_555
H15_6 C33_6 1_555 1_555
C34_6 C29_6 1_555 1_555
H16_6 C34_6 1_555 1_555
C35_6 N1_6 1_555 1_555
C36_6 C35_6 1_555 1_555
H17_6 C36_6 1_555 1_555
C37_6 C36_6 1_555 1_555
H18_6 C37_6 1_555 1_555
C38_6 C29_6 1_555 1_555
C39_6 C38_6 1_555 1_555
C40_6 C35_6 1_555 1_555
Co5_6 O7_6 1_555 1_555
Co8_6 O8_6 1_555 1_555
O15_6 Co3_3 1_555 1_555
O16_6 Co6_3 1_555 1_555
C6_6 C7_6 1_555 1_555
C10_6 C11_6 1_555 1_555
C18_6 C19_6 1_555 1_555
C23_6 C24_6 1_555 1_555
C24_6 C25_6 1_555 1_555
C25_6 C26_6 1_555 1_555
C31_6 C32_6 1_555 1_555
C33_6 C34_6 1_555 1_555
C37_6 C38_6 1_555 1_555
C39_6 C40_6 1_555 1_555
O9_6 H21_6 1_555 1_555
O9_6 H22_6 1_555 1_555
O10_6 H23_6 1_555 1_555
O10_6 H24_6 1_555 1_555
O11_3 C27_6 1_555 1_555
O12_3 C27_6 1_555 1_555
C8_6 C9_6 1_555 1_555
C9_6 H4_6 1_555 1_555
H5_6 C12_6 1_555 1_555
C13_6 C8_6 1_555 1_555
H6_6 C13_6 1_555 1_555
C27_6 C8_6 1_555 1_555
C12_6 C13_6 1_555 1_555
Co1_4 O1_7 1_555 1_555
Co2_4 O2_7 1_555 1_555
O1_7 C20_7 1_555 1_555
O2_7 C20_7 1_555 1_555
O3_4 C27_7 1_555 1_555
O4_4 C27_7 1_555 1_555
O13_2 C1_7 1_555 1_555
O14_2 C1_7 1_555 1_555
O7_7 C28_7 1_555 1_555
O8_7 C28_7 1_555 1_555
O9_7 Co2_4 1_555 1_555
O10_7 Co1_4 1_555 1_555
N1_7 C5_7 1_555 1_555
N2_7 C17_7 1_555 1_555
C1_7 C2_7 1_555 1_555
C2_7 C3_7 1_555 1_555
C3_7 H1_7 1_555 1_555
C4_7 C3_7 1_555 1_555
C5_7 C4_7 1_555 1_555
C6_7 C5_7 1_555 1_555
H2_7 C6_7 1_555 1_555
C7_7 C2_7 1_555 1_555
H3_7 C7_7 1_555 1_555
C8_7 C9_7 1_555 1_555
C9_7 H4_7 1_555 1_555
C10_7 C4_7 1_555 1_555
C11_7 N1_7 1_555 1_555
C12_7 C11_7 1_555 1_555
H5_7 C12_7 1_555 1_555
C13_7 C8_7 1_555 1_555
H6_7 C13_7 1_555 1_555
C14_7 C15_7 1_555 1_555
C15_7 H7_7 1_555 1_555
C16_7 C15_7 1_555 1_555
C17_7 C16_7 1_555 1_555
C18_7 C17_7 1_555 1_555
H8_7 C18_7 1_555 1_555
C19_7 C14_7 1_555 1_555
H9_7 C19_7 1_555 1_555
C20_7 C21_7 1_555 1_555
C21_7 C22_7 1_555 1_555
C22_7 H10_7 1_555 1_555
C23_7 C22_7 1_555 1_555
H11_7 C23_7 1_555 1_555
C24_7 N2_7 1_555 1_555
C25_7 C16_7 1_555 1_555
C26_7 C21_7 1_555 1_555
H12_7 C26_7 1_555 1_555
C27_7 C8_7 1_555 1_555
C28_7 C14_7 1_555 1_555
C29_7 C30_7 1_555 1_555
C30_7 H13_7 1_555 1_555
C31_7 C30_7 1_555 1_555
H14_7 C31_7 1_555 1_555
C32_7 N2_7 1_555 1_555
C33_7 C32_7 1_555 1_555
H15_7 C33_7 1_555 1_555
C34_7 C29_7 1_555 1_555
H16_7 C34_7 1_555 1_555
C35_7 N1_7 1_555 1_555
C36_7 C35_7 1_555 1_555
H17_7 C36_7 1_555 1_555
C37_7 C36_7 1_555 1_555
H18_7 C37_7 1_555 1_555
C38_7 C29_7 1_555 1_555
C39_7 C38_7 1_555 1_555
H19_7 C39_7 1_555 1_555
C40_7 C35_7 1_555 1_555
H20_7 C40_7 1_555 1_555
Co3_4 O3_4 1_555 1_555
Co5_7 O7_7 1_555 1_555
Co6_4 O4_4 1_555 1_555
Co8_7 O8_7 1_555 1_555
O11_4 Co1_4 1_555 1_555
O12_4 Co2_4 1_555 1_555
O13_7 Co1_4 1_555 1_555
O14_7 Co2_4 1_555 1_555
O15_7 Co1_4 1_555 1_555
O16_7 Co2_4 1_555 1_555
C6_7 C7_7 1_555 1_555
C9_7 C10_7 1_555 1_555
C10_7 C11_7 1_555 1_555
C12_7 C13_7 1_555 1_555
C18_7 C19_7 1_555 1_555
C23_7 C24_7 1_555 1_555
C24_7 C25_7 1_555 1_555
C25_7 C26_7 1_555 1_555
C31_7 C32_7 1_555 1_555
C33_7 C34_7 1_555 1_555
C37_7 C38_7 1_555 1_555
C39_7 C40_7 1_555 1_555
O9_7 H21_7 1_555 1_555
O9_7 H22_7 1_555 1_555
O10_7 H23_7 1_555 1_555
O10_7 H24_7 1_555 1_555
O9_8 Co6_4 1_555 1_555
O10_8 Co3_4 1_555 1_555
O13_8 Co3_4 1_555 1_555
O14_8 Co6_4 1_555 1_555
O15_8 Co3_4 1_555 1_555
O16_8 Co6_4 1_555 1_555
O9_8 H21_8 1_555 1_555
O9_8 H22_8 1_555 1_555
O10_8 H23_8 1_555 1_555
O10_8 H24_8 1_555 1_555
O1_8 C20_8 1_555 1_555
O2_8 C20_8 1_555 1_555
O11_4 C27_8 1_555 1_555
O12_4 C27_8 1_555 1_555
O13_3 C1_8 1_555 1_555
O14_3 C1_8 1_555 1_555
O7_8 C28_8 1_555 1_555
O8_8 C28_8 1_555 1_555
N1_8 C5_8 1_555 1_555
N2_8 C17_8 1_555 1_555
C1_8 C2_8 1_555 1_555
C2_8 C3_8 1_555 1_555
C3_8 H1_8 1_555 1_555
C4_8 C3_8 1_555 1_555
C5_8 C4_8 1_555 1_555
C6_8 C5_8 1_555 1_555
H2_8 C6_8 1_555 1_555
C7_8 C2_8 1_555 1_555
H3_8 C7_8 1_555 1_555
C8_8 C9_8 1_555 1_555
C9_8 H4_8 1_555 1_555
C10_8 C4_8 1_555 1_555
C11_8 N1_8 1_555 1_555
C12_8 C11_8 1_555 1_555
H5_8 C12_8 1_555 1_555
C13_8 C8_8 1_555 1_555
H6_8 C13_8 1_555 1_555
C14_8 C15_8 1_555 1_555
C15_8 H7_8 1_555 1_555
C16_8 C15_8 1_555 1_555
C17_8 C16_8 1_555 1_555
C18_8 C17_8 1_555 1_555
H8_8 C18_8 1_555 1_555
C19_8 C14_8 1_555 1_555
H9_8 C19_8 1_555 1_555
C20_8 C21_8 1_555 1_555
C21_8 C22_8 1_555 1_555
C22_8 H10_8 1_555 1_555
C23_8 C22_8 1_555 1_555
H11_8 C23_8 1_555 1_555
C24_8 N2_8 1_555 1_555
C25_8 C16_8 1_555 1_555
C26_8 C21_8 1_555 1_555
H12_8 C26_8 1_555 1_555
C27_8 C8_8 1_555 1_555
C28_8 C14_8 1_555 1_555
C29_8 C30_8 1_555 1_555
C30_8 H13_8 1_555 1_555
C31_8 C30_8 1_555 1_555
H14_8 C31_8 1_555 1_555
C32_8 N2_8 1_555 1_555
C33_8 C32_8 1_555 1_555
H15_8 C33_8 1_555 1_555
C34_8 C29_8 1_555 1_555
H16_8 C34_8 1_555 1_555
C35_8 N1_8 1_555 1_555
C36_8 C35_8 1_555 1_555
H17_8 C36_8 1_555 1_555
C37_8 C36_8 1_555 1_555
H18_8 C37_8 1_555 1_555
C38_8 C29_8 1_555 1_555
C39_8 C38_8 1_555 1_555
H19_8 C39_8 1_555 1_555
C40_8 C35_8 1_555 1_555
H20_8 C40_8 1_555 1_555
Co5_8 O7_8 1_555 1_555
Co8_8 O8_8 1_555 1_555
C6_8 C7_8 1_555 1_555
C9_8 C10_8 1_555 1_555
C10_8 C11_8 1_555 1_555
C12_8 C13_8 1_555 1_555
C18_8 C19_8 1_555 1_555
C23_8 C24_8 1_555 1_555
C24_8 C25_8 1_555 1_555
C25_8 C26_8 1_555 1_555
C31_8 C32_8 1_555 1_555
C33_8 C34_8 1_555 1_555
C37_8 C38_8 1_555 1_555
C39_8 C40_8 1_555 1_555
O3_5 C27_9 1_555 1_555
O4_5 C27_9 1_555 1_555
C8_9 C9_9 1_555 1_555
C9_9 H4_9 1_555 1_555
H5_9 C12_9 1_555 1_555
C13_9 C8_9 1_555 1_555
H6_9 C13_9 1_555 1_555
C27_9 C8_9 1_555 1_555
Co4_3 O3_5 1_555 1_555
Co7_3 O4_5 1_555 1_555
C12_9 C13_9 1_555 1_555
O1_9 C20_9 1_555 1_555
O2_9 C20_9 1_555 1_555
O13_5 C1_9 1_555 1_555
O14_5 C1_9 1_555 1_555
O7_9 C28_9 1_555 1_555
O8_9 C28_9 1_555 1_555
N1_9 C5_9 1_555 1_555
N2_9 C17_9 1_555 1_555
C1_9 C2_9 1_555 1_555
C2_9 C3_9 1_555 1_555
C3_9 H1_9 1_555 1_555
C4_9 C3_9 1_555 1_555
C5_9 C4_9 1_555 1_555
C6_9 C5_9 1_555 1_555
H2_9 C6_9 1_555 1_555
C7_9 C2_9 1_555 1_555
H3_9 C7_9 1_555 1_555
C10_9 C4_9 1_555 1_555
C11_9 N1_9 1_555 1_555
C14_9 C15_9 1_555 1_555
C15_9 H7_9 1_555 1_555
C16_9 C15_9 1_555 1_555
C17_9 C16_9 1_555 1_555
C18_9 C17_9 1_555 1_555
H8_9 C18_9 1_555 1_555
C19_9 C14_9 1_555 1_555
H9_9 C19_9 1_555 1_555
C20_9 C21_9 1_555 1_555
C21_9 C22_9 1_555 1_555
C22_9 H10_9 1_555 1_555
C23_9 C22_9 1_555 1_555
H11_9 C23_9 1_555 1_555
C24_9 N2_9 1_555 1_555
C25_9 C16_9 1_555 1_555
C26_9 C21_9 1_555 1_555
H12_9 C26_9 1_555 1_555
C28_9 C14_9 1_555 1_555
C29_9 C30_9 1_555 1_555
C31_9 C30_9 1_555 1_555
H14_9 C31_9 1_555 1_555
C32_9 N2_9 1_555 1_555
C33_9 C32_9 1_555 1_555
H15_9 C33_9 1_555 1_555
C34_9 C29_9 1_555 1_555
H16_9 C34_9 1_555 1_555
C35_9 N1_9 1_555 1_555
C36_9 C35_9 1_555 1_555
H17_9 C36_9 1_555 1_555
C37_9 C36_9 1_555 1_555
H18_9 C37_9 1_555 1_555
C38_9 C29_9 1_555 1_555
C39_9 C38_9 1_555 1_555
C40_9 C35_9 1_555 1_555
Co5_9 O7_9 1_555 1_555
Co8_9 O8_9 1_555 1_555
C6_9 C7_9 1_555 1_555
C10_9 C11_9 1_555 1_555
C18_9 C19_9 1_555 1_555
C23_9 C24_9 1_555 1_555
C24_9 C25_9 1_555 1_555
C25_9 C26_9 1_555 1_555
C31_9 C32_9 1_555 1_555
C33_9 C34_9 1_555 1_555
C37_9 C38_9 1_555 1_555
C39_9 C40_9 1_555 1_555
O9_9 Co7 1_555 1_555
O10_9 Co4 1_555 1_555
O11_5 Co4 1_555 1_555
O12_5 Co7 1_555 1_555
O15_9 Co4 1_555 1_555
O16_9 Co7 1_555 1_555
O9_9 H21_9 1_555 1_555
O9_9 H22_9 1_555 1_555
O10_9 H23_9 1_555 1_555
O10_9 H24_9 1_555 1_555
Co4_3 O1_10 1_555 1_555
Co7_3 O2_10 1_555 1_555
O1_10 C20_10 1_555 1_555
O2_10 C20_10 1_555 1_555
O13_8 C1_10 1_555 1_555
O14_8 C1_10 1_555 1_555
O7_10 C28_10 1_555 1_555
O8_10 C28_10 1_555 1_555
O9_10 Co7_3 1_555 1_555
O10_10 Co4_3 1_555 1_555
N1_10 C5_10 1_555 1_555
N2_10 C17_10 1_555 1_555
C1_10 C2_10 1_555 1_555
C2_10 C3_10 1_555 1_555
C3_10 H1_10 1_555 1_555
C4_10 C3_10 1_555 1_555
C5_10 C4_10 1_555 1_555
C6_10 C5_10 1_555 1_555
H2_10 C6_10 1_555 1_555
C7_10 C2_10 1_555 1_555
H3_10 C7_10 1_555 1_555
C10_10 C4_10 1_555 1_555
C11_10 N1_10 1_555 1_555
C14_10 C15_10 1_555 1_555
C15_10 H7_10 1_555 1_555
C16_10 C15_10 1_555 1_555
C17_10 C16_10 1_555 1_555
C18_10 C17_10 1_555 1_555
H8_10 C18_10 1_555 1_555
C19_10 C14_10 1_555 1_555
H9_10 C19_10 1_555 1_555
C20_10 C21_10 1_555 1_555
C21_10 C22_10 1_555 1_555
C22_10 H10_10 1_555 1_555
C23_10 C22_10 1_555 1_555
H11_10 C23_10 1_555 1_555
C24_10 N2_10 1_555 1_555
C25_10 C16_10 1_555 1_555
C26_10 C21_10 1_555 1_555
H12_10 C26_10 1_555 1_555
C28_10 C14_10 1_555 1_555
C29_10 C30_10 1_555 1_555
C31_10 C30_10 1_555 1_555
H14_10 C31_10 1_555 1_555
C32_10 N2_10 1_555 1_555
C33_10 C32_10 1_555 1_555
H15_10 C33_10 1_555 1_555
C34_10 C29_10 1_555 1_555
H16_10 C34_10 1_555 1_555
C35_10 N1_10 1_555 1_555
C36_10 C35_10 1_555 1_555
H17_10 C36_10 1_555 1_555
C37_10 C36_10 1_555 1_555
H18_10 C37_10 1_555 1_555
C38_10 C29_10 1_555 1_555
C39_10 C38_10 1_555 1_555
C40_10 C35_10 1_555 1_555
Co5_10 O7_10 1_555 1_555
Co8_10 O8_10 1_555 1_555
O15_10 Co4_3 1_555 1_555
O16_10 Co7_3 1_555 1_555
C6_10 C7_10 1_555 1_555
C10_10 C11_10 1_555 1_555
C18_10 C19_10 1_555 1_555
C23_10 C24_10 1_555 1_555
C24_10 C25_10 1_555 1_555
C25_10 C26_10 1_555 1_555
C31_10 C32_10 1_555 1_555
C33_10 C34_10 1_555 1_555
C37_10 C38_10 1_555 1_555
C39_10 C40_10 1_555 1_555
O9_10 H21_10 1_555 1_555
O9_10 H22_10 1_555 1_555
O10_10 H23_10 1_555 1_555
O10_10 H24_10 1_555 1_555
O11_5 C27_10 1_555 1_555
O12_5 C27_10 1_555 1_555
C8_10 C9_10 1_555 1_555
C9_10 H4_10 1_555 1_555
H5_10 C12_10 1_555 1_555
C13_10 C8_10 1_555 1_555
H6_10 C13_10 1_555 1_555
C27_10 C8_10 1_555 1_555
C12_10 C13_10 1_555 1_555
Co4_4 O1_11 1_555 1_555
Co7_4 O2_11 1_555 1_555
O1_11 C20_11 1_555 1_555
O2_11 C20_11 1_555 1_555
O3_6 C27_11 1_555 1_555
O4_6 C27_11 1_555 1_555
O13_6 C1_11 1_555 1_555
O14_6 C1_11 1_555 1_555
O7_11 C28_11 1_555 1_555
O8_11 C28_11 1_555 1_555
O9_11 Co7_4 1_555 1_555
O10_11 Co4_4 1_555 1_555
N1_11 C5_11 1_555 1_555
N2_11 C17_11 1_555 1_555
C1_11 C2_11 1_555 1_555
C2_11 C3_11 1_555 1_555
C3_11 H1_11 1_555 1_555
C4_11 C3_11 1_555 1_555
C5_11 C4_11 1_555 1_555
C6_11 C5_11 1_555 1_555
H2_11 C6_11 1_555 1_555
C7_11 C2_11 1_555 1_555
H3_11 C7_11 1_555 1_555
C8_11 C9_11 1_555 1_555
C9_11 H4_11 1_555 1_555
C10_11 C4_11 1_555 1_555
C11_11 N1_11 1_555 1_555
C12_11 C11_11 1_555 1_555
H5_11 C12_11 1_555 1_555
C13_11 C8_11 1_555 1_555
H6_11 C13_11 1_555 1_555
C14_11 C15_11 1_555 1_555
C15_11 H7_11 1_555 1_555
C16_11 C15_11 1_555 1_555
C17_11 C16_11 1_555 1_555
C18_11 C17_11 1_555 1_555
H8_11 C18_11 1_555 1_555
C19_11 C14_11 1_555 1_555
H9_11 C19_11 1_555 1_555
C20_11 C21_11 1_555 1_555
C21_11 C22_11 1_555 1_555
C22_11 H10_11 1_555 1_555
C23_11 C22_11 1_555 1_555
H11_11 C23_11 1_555 1_555
C24_11 N2_11 1_555 1_555
C25_11 C16_11 1_555 1_555
C26_11 C21_11 1_555 1_555
H12_11 C26_11 1_555 1_555
C27_11 C8_11 1_555 1_555
C28_11 C14_11 1_555 1_555
C29_11 C30_11 1_555 1_555
C30_11 H13_11 1_555 1_555
C31_11 C30_11 1_555 1_555
H14_11 C31_11 1_555 1_555
C32_11 N2_11 1_555 1_555
C33_11 C32_11 1_555 1_555
H15_11 C33_11 1_555 1_555
C34_11 C29_11 1_555 1_555
H16_11 C34_11 1_555 1_555
C35_11 N1_11 1_555 1_555
C36_11 C35_11 1_555 1_555
H17_11 C36_11 1_555 1_555
C37_11 C36_11 1_555 1_555
H18_11 C37_11 1_555 1_555
C38_11 C29_11 1_555 1_555
C39_11 C38_11 1_555 1_555
H19_11 C39_11 1_555 1_555
C40_11 C35_11 1_555 1_555
H20_11 C40_11 1_555 1_555
Co4_2 O3_6 1_555 1_555
Co5_11 O7_11 1_555 1_555
Co7_2 O4_6 1_555 1_555
Co8_11 O8_11 1_555 1_555
O11_6 Co4_4 1_555 1_555
O12_6 Co7_4 1_555 1_555
O15_11 Co4_4 1_555 1_555
O16_11 Co7_4 1_555 1_555
C6_11 C7_11 1_555 1_555
C9_11 C10_11 1_555 1_555
C10_11 C11_11 1_555 1_555
C12_11 C13_11 1_555 1_555
C18_11 C19_11 1_555 1_555
C23_11 C24_11 1_555 1_555
C24_11 C25_11 1_555 1_555
C25_11 C26_11 1_555 1_555
C31_11 C32_11 1_555 1_555
C33_11 C34_11 1_555 1_555
C37_11 C38_11 1_555 1_555
C39_11 C40_11 1_555 1_555
O9_11 H21_11 1_555 1_555
O9_11 H22_11 1_555 1_555
O10_11 H23_11 1_555 1_555
O10_11 H24_11 1_555 1_555
O9_12 Co7_2 1_555 1_555
O10_12 Co4_2 1_555 1_555
O15_12 Co4_2 1_555 1_555
O16_12 Co7_2 1_555 1_555
O9_12 H21_12 1_555 1_555
O9_12 H22_12 1_555 1_555
O10_12 H23_12 1_555 1_555
O10_12 H24_12 1_555 1_555
O1_12 C20_12 1_555 1_555
O2_12 C20_12 1_555 1_555
O11_6 C27_12 1_555 1_555
O12_6 C27_12 1_555 1_555
O13_7 C1_12 1_555 1_555
O14_7 C1_12 1_555 1_555
O7_12 C28_12 1_555 1_555
O8_12 C28_12 1_555 1_555
N1_12 C5_12 1_555 1_555
N2_12 C17_12 1_555 1_555
C1_12 C2_12 1_555 1_555
C2_12 C3_12 1_555 1_555
C3_12 H1_12 1_555 1_555
C4_12 C3_12 1_555 1_555
C5_12 C4_12 1_555 1_555
C6_12 C5_12 1_555 1_555
H2_12 C6_12 1_555 1_555
C7_12 C2_12 1_555 1_555
H3_12 C7_12 1_555 1_555
C8_12 C9_12 1_555 1_555
C9_12 H4_12 1_555 1_555
C10_12 C4_12 1_555 1_555
C11_12 N1_12 1_555 1_555
C12_12 C11_12 1_555 1_555
H5_12 C12_12 1_555 1_555
C13_12 C8_12 1_555 1_555
H6_12 C13_12 1_555 1_555
C14_12 C15_12 1_555 1_555
C15_12 H7_12 1_555 1_555
C16_12 C15_12 1_555 1_555
C17_12 C16_12 1_555 1_555
C18_12 C17_12 1_555 1_555
H8_12 C18_12 1_555 1_555
C19_12 C14_12 1_555 1_555
H9_12 C19_12 1_555 1_555
C20_12 C21_12 1_555 1_555
C21_12 C22_12 1_555 1_555
C22_12 H10_12 1_555 1_555
C23_12 C22_12 1_555 1_555
H11_12 C23_12 1_555 1_555
C24_12 N2_12 1_555 1_555
C25_12 C16_12 1_555 1_555
C26_12 C21_12 1_555 1_555
H12_12 C26_12 1_555 1_555
C27_12 C8_12 1_555 1_555
C28_12 C14_12 1_555 1_555
C29_12 C30_12 1_555 1_555
C30_12 H13_12 1_555 1_555
C31_12 C30_12 1_555 1_555
H14_12 C31_12 1_555 1_555
C32_12 N2_12 1_555 1_555
C33_12 C32_12 1_555 1_555
H15_12 C33_12 1_555 1_555
C34_12 C29_12 1_555 1_555
H16_12 C34_12 1_555 1_555
C35_12 N1_12 1_555 1_555
C36_12 C35_12 1_555 1_555
H17_12 C36_12 1_555 1_555
C37_12 C36_12 1_555 1_555
H18_12 C37_12 1_555 1_555
C38_12 C29_12 1_555 1_555
C39_12 C38_12 1_555 1_555
H19_12 C39_12 1_555 1_555
C40_12 C35_12 1_555 1_555
H20_12 C40_12 1_555 1_555
Co5_12 O7_12 1_555 1_555
Co8_12 O8_12 1_555 1_555
C6_12 C7_12 1_555 1_555
C9_12 C10_12 1_555 1_555
C10_12 C11_12 1_555 1_555
C12_12 C13_12 1_555 1_555
C18_12 C19_12 1_555 1_555
C23_12 C24_12 1_555 1_555
C24_12 C25_12 1_555 1_555
C25_12 C26_12 1_555 1_555
C31_12 C32_12 1_555 1_555
C33_12 C34_12 1_555 1_555
C37_12 C38_12 1_555 1_555
C39_12 C40_12 1_555 1_555
O9_13 Co8_6 1_555 1_555
O10_13 Co5_6 1_555 1_555
O11_7 Co5_6 1_555 1_555
O12_7 Co8_6 1_555 1_555
O9_13 H21_13 1_555 1_555
O9_13 H22_13 1_555 1_555
O10_13 H23_13 1_555 1_555
O10_13 H24_13 1_555 1_555
O1_13 C20_13 1_555 1_555
O2_13 C20_13 1_555 1_555
O5_5 C1_13 1_555 1_555
O6_5 C1_13 1_555 1_555
O15_12 C28_13 1_555 1_555
O16_12 C28_13 1_555 1_555
N1_13 C5_13 1_555 1_555
N2_13 C17_13 1_555 1_555
C1_13 C2_13 1_555 1_555
C2_13 C3_13 1_555 1_555
C3_13 H1_13 1_555 1_555
C4_13 C3_13 1_555 1_555
C5_13 C4_13 1_555 1_555
C6_13 C5_13 1_555 1_555
H2_13 C6_13 1_555 1_555
C7_13 C2_13 1_555 1_555
H3_13 C7_13 1_555 1_555
C10_13 C4_13 1_555 1_555
C11_13 N1_13 1_555 1_555
C14_13 C15_13 1_555 1_555
C15_13 H7_13 1_555 1_555
C16_13 C15_13 1_555 1_555
C17_13 C16_13 1_555 1_555
C18_13 C17_13 1_555 1_555
H8_13 C18_13 1_555 1_555
C19_13 C14_13 1_555 1_555
H9_13 C19_13 1_555 1_555
C20_13 C21_13 1_555 1_555
C21_13 C22_13 1_555 1_555
C22_13 H10_13 1_555 1_555
C23_13 C22_13 1_555 1_555
H11_13 C23_13 1_555 1_555
C24_13 N2_13 1_555 1_555
C25_13 C16_13 1_555 1_555
C26_13 C21_13 1_555 1_555
H12_13 C26_13 1_555 1_555
C28_13 C14_13 1_555 1_555
C29_13 C30_13 1_555 1_555
C31_13 C30_13 1_555 1_555
H14_13 C31_13 1_555 1_555
C32_13 N2_13 1_555 1_555
C33_13 C32_13 1_555 1_555
H15_13 C33_13 1_555 1_555
C34_13 C29_13 1_555 1_555
H16_13 C34_13 1_555 1_555
C35_13 N1_13 1_555 1_555
C36_13 C35_13 1_555 1_555
H17_13 C36_13 1_555 1_555
C37_13 C36_13 1_555 1_555
H18_13 C37_13 1_555 1_555
C38_13 C29_13 1_555 1_555
C39_13 C38_13 1_555 1_555
C40_13 C35_13 1_555 1_555
C6_13 C7_13 1_555 1_555
C10_13 C11_13 1_555 1_555
C18_13 C19_13 1_555 1_555
C23_13 C24_13 1_555 1_555
C24_13 C25_13 1_555 1_555
C25_13 C26_13 1_555 1_555
C31_13 C32_13 1_555 1_555
C33_13 C34_13 1_555 1_555
C37_13 C38_13 1_555 1_555
C39_13 C40_13 1_555 1_555
O3_7 C27_13 1_555 1_555
O4_7 C27_13 1_555 1_555
C8_13 C9_13 1_555 1_555
C9_13 H4_13 1_555 1_555
H5_13 C12_13 1_555 1_555
C13_13 C8_13 1_555 1_555
H6_13 C13_13 1_555 1_555
C27_13 C8_13 1_555 1_555
Co5_8 O3_7 1_555 1_555
Co8_8 O4_7 1_555 1_555
C12_13 C13_13 1_555 1_555
O11_7 C27_14 1_555 1_555
O12_7 C27_14 1_555 1_555
C8_14 C9_14 1_555 1_555
C9_14 H4_14 1_555 1_555
H5_14 C12_14 1_555 1_555
C13_14 C8_14 1_555 1_555
H6_14 C13_14 1_555 1_555
C27_14 C8_14 1_555 1_555
C12_14 C13_14 1_555 1_555
Co5_8 O1_14 1_555 1_555
Co8_8 O2_14 1_555 1_555
O1_14 C20_14 1_555 1_555
O2_14 C20_14 1_555 1_555
O5_6 C1_14 1_555 1_555
O6_6 C1_14 1_555 1_555
O15_9 C28_14 1_555 1_555
O16_9 C28_14 1_555 1_555
O9_14 Co8_8 1_555 1_555
O10_14 Co5_8 1_555 1_555
N1_14 C5_14 1_555 1_555
N2_14 C17_14 1_555 1_555
C1_14 C2_14 1_555 1_555
C2_14 C3_14 1_555 1_555
C3_14 H1_14 1_555 1_555
C4_14 C3_14 1_555 1_555
C5_14 C4_14 1_555 1_555
C6_14 C5_14 1_555 1_555
H2_14 C6_14 1_555 1_555
C7_14 C2_14 1_555 1_555
H3_14 C7_14 1_555 1_555
C10_14 C4_14 1_555 1_555
C11_14 N1_14 1_555 1_555
C14_14 C15_14 1_555 1_555
C15_14 H7_14 1_555 1_555
C16_14 C15_14 1_555 1_555
C17_14 C16_14 1_555 1_555
C18_14 C17_14 1_555 1_555
H8_14 C18_14 1_555 1_555
C19_14 C14_14 1_555 1_555
H9_14 C19_14 1_555 1_555
C20_14 C21_14 1_555 1_555
C21_14 C22_14 1_555 1_555
C22_14 H10_14 1_555 1_555
C23_14 C22_14 1_555 1_555
H11_14 C23_14 1_555 1_555
C24_14 N2_14 1_555 1_555
C25_14 C16_14 1_555 1_555
C26_14 C21_14 1_555 1_555
H12_14 C26_14 1_555 1_555
C28_14 C14_14 1_555 1_555
C29_14 C30_14 1_555 1_555
C31_14 C30_14 1_555 1_555
H14_14 C31_14 1_555 1_555
C32_14 N2_14 1_555 1_555
C33_14 C32_14 1_555 1_555
H15_14 C33_14 1_555 1_555
C34_14 C29_14 1_555 1_555
H16_14 C34_14 1_555 1_555
C35_14 N1_14 1_555 1_555
C36_14 C35_14 1_555 1_555
H17_14 C36_14 1_555 1_555
C37_14 C36_14 1_555 1_555
H18_14 C37_14 1_555 1_555
C38_14 C29_14 1_555 1_555
C39_14 C38_14 1_555 1_555
C40_14 C35_14 1_555 1_555
Co5 O5_6 1_555 1_555
Co8 O6_6 1_555 1_555
C6_14 C7_14 1_555 1_555
C10_14 C11_14 1_555 1_555
C18_14 C19_14 1_555 1_555
C23_14 C24_14 1_555 1_555
C24_14 C25_14 1_555 1_555
C25_14 C26_14 1_555 1_555
C31_14 C32_14 1_555 1_555
C33_14 C34_14 1_555 1_555
C37_14 C38_14 1_555 1_555
C39_14 C40_14 1_555 1_555
O9_14 H21_14 1_555 1_555
O9_14 H22_14 1_555 1_555
O10_14 H23_14 1_555 1_555
O10_14 H24_14 1_555 1_555
Co5_7 O1_15 1_555 1_555
Co8_7 O2_15 1_555 1_555
O1_15 C20_15 1_555 1_555
O2_15 C20_15 1_555 1_555
O3_8 C27_15 1_555 1_555
O4_8 C27_15 1_555 1_555
O5_7 C1_15 1_555 1_555
O6_7 C1_15 1_555 1_555
O15_11 C28_15 1_555 1_555
O16_11 C28_15 1_555 1_555
O9_15 Co8_7 1_555 1_555
O10_15 Co5_7 1_555 1_555
N1_15 C5_15 1_555 1_555
N2_15 C17_15 1_555 1_555
C1_15 C2_15 1_555 1_555
C2_15 C3_15 1_555 1_555
C3_15 H1_15 1_555 1_555
C4_15 C3_15 1_555 1_555
C5_15 C4_15 1_555 1_555
C6_15 C5_15 1_555 1_555
H2_15 C6_15 1_555 1_555
C7_15 C2_15 1_555 1_555
H3_15 C7_15 1_555 1_555
C8_15 C9_15 1_555 1_555
C9_15 H4_15 1_555 1_555
C10_15 C4_15 1_555 1_555
C11_15 N1_15 1_555 1_555
C12_15 C11_15 1_555 1_555
H5_15 C12_15 1_555 1_555
C13_15 C8_15 1_555 1_555
H6_15 C13_15 1_555 1_555
C14_15 C15_15 1_555 1_555
C15_15 H7_15 1_555 1_555
C16_15 C15_15 1_555 1_555
C17_15 C16_15 1_555 1_555
C18_15 C17_15 1_555 1_555
H8_15 C18_15 1_555 1_555
C19_15 C14_15 1_555 1_555
H9_15 C19_15 1_555 1_555
C20_15 C21_15 1_555 1_555
C21_15 C22_15 1_555 1_555
C22_15 H10_15 1_555 1_555
C23_15 C22_15 1_555 1_555
H11_15 C23_15 1_555 1_555
C24_15 N2_15 1_555 1_555
C25_15 C16_15 1_555 1_555
C26_15 C21_15 1_555 1_555
H12_15 C26_15 1_555 1_555
C27_15 C8_15 1_555 1_555
C28_15 C14_15 1_555 1_555
C29_15 C30_15 1_555 1_555
C30_15 H13_15 1_555 1_555
C31_15 C30_15 1_555 1_555
H14_15 C31_15 1_555 1_555
C32_15 N2_15 1_555 1_555
C33_15 C32_15 1_555 1_555
H15_15 C33_15 1_555 1_555
C34_15 C29_15 1_555 1_555
H16_15 C34_15 1_555 1_555
C35_15 N1_15 1_555 1_555
C36_15 C35_15 1_555 1_555
H17_15 C36_15 1_555 1_555
C37_15 C36_15 1_555 1_555
H18_15 C37_15 1_555 1_555
C38_15 C29_15 1_555 1_555
C39_15 C38_15 1_555 1_555
H19_15 C39_15 1_555 1_555
C40_15 C35_15 1_555 1_555
H20_15 C40_15 1_555 1_555
Co5_5 O3_8 1_555 1_555
Co8_5 O4_8 1_555 1_555
O11_8 Co5_7 1_555 1_555
O12_8 Co8_7 1_555 1_555
O13_11 Co5_7 1_555 1_555
O14_11 Co8_7 1_555 1_555
C6_15 C7_15 1_555 1_555
C9_15 C10_15 1_555 1_555
C10_15 C11_15 1_555 1_555
C12_15 C13_15 1_555 1_555
C18_15 C19_15 1_555 1_555
C23_15 C24_15 1_555 1_555
C24_15 C25_15 1_555 1_555
C25_15 C26_15 1_555 1_555
C31_15 C32_15 1_555 1_555
C33_15 C34_15 1_555 1_555
C37_15 C38_15 1_555 1_555
C39_15 C40_15 1_555 1_555
O9_15 H21_15 1_555 1_555
O9_15 H22_15 1_555 1_555
O10_15 H23_15 1_555 1_555
O10_15 H24_15 1_555 1_555
O1_16 C20_16 1_555 1_555
O2_16 C20_16 1_555 1_555
O11_8 C27_16 1_555 1_555
O12_8 C27_16 1_555 1_555
O5_8 C1_16 1_555 1_555
O6_8 C1_16 1_555 1_555
O15_10 C28_16 1_555 1_555
O16_10 C28_16 1_555 1_555
N1_16 C5_16 1_555 1_555
N2_16 C17_16 1_555 1_555
C1_16 C2_16 1_555 1_555
C2_16 C3_16 1_555 1_555
C3_16 H1_16 1_555 1_555
C4_16 C3_16 1_555 1_555
C5_16 C4_16 1_555 1_555
C6_16 C5_16 1_555 1_555
H2_16 C6_16 1_555 1_555
C7_16 C2_16 1_555 1_555
H3_16 C7_16 1_555 1_555
C8_16 C9_16 1_555 1_555
C9_16 H4_16 1_555 1_555
C10_16 C4_16 1_555 1_555
C11_16 N1_16 1_555 1_555
C12_16 C11_16 1_555 1_555
H5_16 C12_16 1_555 1_555
C13_16 C8_16 1_555 1_555
H6_16 C13_16 1_555 1_555
C14_16 C15_16 1_555 1_555
C15_16 H7_16 1_555 1_555
C16_16 C15_16 1_555 1_555
C17_16 C16_16 1_555 1_555
C18_16 C17_16 1_555 1_555
H8_16 C18_16 1_555 1_555
C19_16 C14_16 1_555 1_555
H9_16 C19_16 1_555 1_555
C20_16 C21_16 1_555 1_555
C21_16 C22_16 1_555 1_555
C22_16 H10_16 1_555 1_555
C23_16 C22_16 1_555 1_555
H11_16 C23_16 1_555 1_555
C24_16 N2_16 1_555 1_555
C25_16 C16_16 1_555 1_555
C26_16 C21_16 1_555 1_555
H12_16 C26_16 1_555 1_555
C27_16 C8_16 1_555 1_555
C28_16 C14_16 1_555 1_555
C29_16 C30_16 1_555 1_555
C30_16 H13_16 1_555 1_555
C31_16 C30_16 1_555 1_555
H14_16 C31_16 1_555 1_555
C32_16 N2_16 1_555 1_555
C33_16 C32_16 1_555 1_555
H15_16 C33_16 1_555 1_555
C34_16 C29_16 1_555 1_555
H16_16 C34_16 1_555 1_555
C35_16 N1_16 1_555 1_555
C36_16 C35_16 1_555 1_555
H17_16 C36_16 1_555 1_555
C37_16 C36_16 1_555 1_555
H18_16 C37_16 1_555 1_555
C38_16 C29_16 1_555 1_555
C39_16 C38_16 1_555 1_555
H19_16 C39_16 1_555 1_555
C40_16 C35_16 1_555 1_555
H20_16 C40_16 1_555 1_555
Co5_3 O5_8 1_555 1_555
Co8_3 O6_8 1_555 1_555
C6_16 C7_16 1_555 1_555
C9_16 C10_16 1_555 1_555
C10_16 C11_16 1_555 1_555
C12_16 C13_16 1_555 1_555
C18_16 C19_16 1_555 1_555
C23_16 C24_16 1_555 1_555
C24_16 C25_16 1_555 1_555
C25_16 C26_16 1_555 1_555
C31_16 C32_16 1_555 1_555
C33_16 C34_16 1_555 1_555
C37_16 C38_16 1_555 1_555
C39_16 C40_16 1_555 1_555
O9_16 Co8_5 1_555 1_555
O10_16 Co5_5 1_555 1_555
O13_12 Co5_5 1_555 1_555
O14_12 Co8_5 1_555 1_555
O9_16 H21_16 1_555 1_555
O9_16 H22_16 1_555 1_555
O10_16 H23_16 1_555 1_555
O10_16 H24_16 1_555 1_555
O9_17 Co8_10 1_555 1_555
O10_17 Co5_10 1_555 1_555
O11_9 Co5_10 1_555 1_555
O12_9 Co8_10 1_555 1_555
O9_17 H21_17 1_555 1_555
O9_17 H22_17 1_555 1_555
O10_17 H23_17 1_555 1_555
O10_17 H24_17 1_555 1_555
O1_17 C20_17 1_555 1_555
O2_17 C20_17 1_555 1_555
O13_9 C1_17 1_555 1_555
O14_9 C1_17 1_555 1_555
O15_4 C28_17 1_555 1_555
O16_4 C28_17 1_555 1_555
N1_17 C5_17 1_555 1_555
N2_17 C17_17 1_555 1_555
C1_17 C2_17 1_555 1_555
C2_17 C3_17 1_555 1_555
C3_17 H1_17 1_555 1_555
C4_17 C3_17 1_555 1_555
C5_17 C4_17 1_555 1_555
C6_17 C5_17 1_555 1_555
H2_17 C6_17 1_555 1_555
C7_17 C2_17 1_555 1_555
H3_17 C7_17 1_555 1_555
C10_17 C4_17 1_555 1_555
C11_17 N1_17 1_555 1_555
C14_17 C15_17 1_555 1_555
C15_17 H7_17 1_555 1_555
C16_17 C15_17 1_555 1_555
C17_17 C16_17 1_555 1_555
C18_17 C17_17 1_555 1_555
H8_17 C18_17 1_555 1_555
C19_17 C14_17 1_555 1_555
H9_17 C19_17 1_555 1_555
C20_17 C21_17 1_555 1_555
C21_17 C22_17 1_555 1_555
C22_17 H10_17 1_555 1_555
C23_17 C22_17 1_555 1_555
H11_17 C23_17 1_555 1_555
C24_17 N2_17 1_555 1_555
C25_17 C16_17 1_555 1_555
C26_17 C21_17 1_555 1_555
H12_17 C26_17 1_555 1_555
C28_17 C14_17 1_555 1_555
C29_17 C30_17 1_555 1_555
C31_17 C30_17 1_555 1_555
H14_17 C31_17 1_555 1_555
C32_17 N2_17 1_555 1_555
C33_17 C32_17 1_555 1_555
H15_17 C33_17 1_555 1_555
C34_17 C29_17 1_555 1_555
H16_17 C34_17 1_555 1_555
C35_17 N1_17 1_555 1_555
C36_17 C35_17 1_555 1_555
H17_17 C36_17 1_555 1_555
C37_17 C36_17 1_555 1_555
H18_17 C37_17 1_555 1_555
C38_17 C29_17 1_555 1_555
C39_17 C38_17 1_555 1_555
C40_17 C35_17 1_555 1_555
C6_17 C7_17 1_555 1_555
C10_17 C11_17 1_555 1_555
C18_17 C19_17 1_555 1_555
C23_17 C24_17 1_555 1_555
C24_17 C25_17 1_555 1_555
C25_17 C26_17 1_555 1_555
C31_17 C32_17 1_555 1_555
C33_17 C34_17 1_555 1_555
C37_17 C38_17 1_555 1_555
C39_17 C40_17 1_555 1_555
O3_9 C27_17 1_555 1_555
O4_9 C27_17 1_555 1_555
C8_17 C9_17 1_555 1_555
C9_17 H4_17 1_555 1_555
H5_17 C12_17 1_555 1_555
C13_17 C8_17 1_555 1_555
H6_17 C13_17 1_555 1_555
C27_17 C8_17 1_555 1_555
Co5_12 O3_9 1_555 1_555
Co8_12 O4_9 1_555 1_555
C12_17 C13_17 1_555 1_555
O11_9 C27_18 1_555 1_555
O12_9 C27_18 1_555 1_555
C8_18 C9_18 1_555 1_555
C9_18 H4_18 1_555 1_555
H5_18 C12_18 1_555 1_555
C13_18 C8_18 1_555 1_555
H6_18 C13_18 1_555 1_555
C27_18 C8_18 1_555 1_555
C12_18 C13_18 1_555 1_555
Co5_12 O1_18 1_555 1_555
Co8_12 O2_18 1_555 1_555
O1_18 C20_18 1_555 1_555
O2_18 C20_18 1_555 1_555
O13_12 C1_18 1_555 1_555
O14_12 C1_18 1_555 1_555
O15 C28_18 1_555 1_555
O16 C28_18 1_555 1_555
O9_18 Co8_12 1_555 1_555
O10_18 Co5_12 1_555 1_555
N1_18 C5_18 1_555 1_555
N2_18 C17_18 1_555 1_555
C1_18 C2_18 1_555 1_555
C2_18 C3_18 1_555 1_555
C3_18 H1_18 1_555 1_555
C4_18 C3_18 1_555 1_555
C5_18 C4_18 1_555 1_555
C6_18 C5_18 1_555 1_555
H2_18 C6_18 1_555 1_555
C7_18 C2_18 1_555 1_555
H3_18 C7_18 1_555 1_555
C10_18 C4_18 1_555 1_555
C11_18 N1_18 1_555 1_555
C14_18 C15_18 1_555 1_555
C15_18 H7_18 1_555 1_555
C16_18 C15_18 1_555 1_555
C17_18 C16_18 1_555 1_555
C18_18 C17_18 1_555 1_555
H8_18 C18_18 1_555 1_555
C19_18 C14_18 1_555 1_555
H9_18 C19_18 1_555 1_555
C20_18 C21_18 1_555 1_555
C21_18 C22_18 1_555 1_555
C22_18 H10_18 1_555 1_555
C23_18 C22_18 1_555 1_555
H11_18 C23_18 1_555 1_555
C24_18 N2_18 1_555 1_555
C25_18 C16_18 1_555 1_555
C26_18 C21_18 1_555 1_555
H12_18 C26_18 1_555 1_555
C28_18 C14_18 1_555 1_555
C29_18 C30_18 1_555 1_555
C31_18 C30_18 1_555 1_555
H14_18 C31_18 1_555 1_555
C32_18 N2_18 1_555 1_555
C33_18 C32_18 1_555 1_555
H15_18 C33_18 1_555 1_555
C34_18 C29_18 1_555 1_555
H16_18 C34_18 1_555 1_555
C35_18 N1_18 1_555 1_555
C36_18 C35_18 1_555 1_555
H17_18 C36_18 1_555 1_555
C37_18 C36_18 1_555 1_555
H18_18 C37_18 1_555 1_555
C38_18 C29_18 1_555 1_555
C39_18 C38_18 1_555 1_555
C40_18 C35_18 1_555 1_555
C6_18 C7_18 1_555 1_555
C10_18 C11_18 1_555 1_555
C18_18 C19_18 1_555 1_555
C23_18 C24_18 1_555 1_555
C24_18 C25_18 1_555 1_555
C25_18 C26_18 1_555 1_555
C31_18 C32_18 1_555 1_555
C33_18 C34_18 1_555 1_555
C37_18 C38_18 1_555 1_555
C39_18 C40_18 1_555 1_555
O9_18 H21_18 1_555 1_555
O9_18 H22_18 1_555 1_555
O10_18 H23_18 1_555 1_555
O10_18 H24_18 1_555 1_555
Co5_11 O1_19 1_555 1_555
Co8_11 O2_19 1_555 1_555
O1_19 C20_19 1_555 1_555
O2_19 C20_19 1_555 1_555
O3_10 C27_19 1_555 1_555
O4_10 C27_19 1_555 1_555
O13_10 C1_19 1_555 1_555
O14_10 C1_19 1_555 1_555
O15_3 C28_19 1_555 1_555
O16_3 C28_19 1_555 1_555
O9_19 Co8_11 1_555 1_555
O10_19 Co5_11 1_555 1_555
N1_19 C5_19 1_555 1_555
N2_19 C17_19 1_555 1_555
C1_19 C2_19 1_555 1_555
C2_19 C3_19 1_555 1_555
C3_19 H1_19 1_555 1_555
C4_19 C3_19 1_555 1_555
C5_19 C4_19 1_555 1_555
C6_19 C5_19 1_555 1_555
H2_19 C6_19 1_555 1_555
C7_19 C2_19 1_555 1_555
H3_19 C7_19 1_555 1_555
C8_19 C9_19 1_555 1_555
C9_19 H4_19 1_555 1_555
C10_19 C4_19 1_555 1_555
C11_19 N1_19 1_555 1_555
C12_19 C11_19 1_555 1_555
H5_19 C12_19 1_555 1_555
C13_19 C8_19 1_555 1_555
H6_19 C13_19 1_555 1_555
C14_19 C15_19 1_555 1_555
C15_19 H7_19 1_555 1_555
C16_19 C15_19 1_555 1_555
C17_19 C16_19 1_555 1_555
C18_19 C17_19 1_555 1_555
H8_19 C18_19 1_555 1_555
C19_19 C14_19 1_555 1_555
H9_19 C19_19 1_555 1_555
C20_19 C21_19 1_555 1_555
C21_19 C22_19 1_555 1_555
C22_19 H10_19 1_555 1_555
C23_19 C22_19 1_555 1_555
H11_19 C23_19 1_555 1_555
C24_19 N2_19 1_555 1_555
C25_19 C16_19 1_555 1_555
C26_19 C21_19 1_555 1_555
H12_19 C26_19 1_555 1_555
C27_19 C8_19 1_555 1_555
C28_19 C14_19 1_555 1_555
C29_19 C30_19 1_555 1_555
C30_19 H13_19 1_555 1_555
C31_19 C30_19 1_555 1_555
H14_19 C31_19 1_555 1_555
C32_19 N2_19 1_555 1_555
C33_19 C32_19 1_555 1_555
H15_19 C33_19 1_555 1_555
C34_19 C29_19 1_555 1_555
H16_19 C34_19 1_555 1_555
C35_19 N1_19 1_555 1_555
C36_19 C35_19 1_555 1_555
H17_19 C36_19 1_555 1_555
C37_19 C36_19 1_555 1_555
H18_19 C37_19 1_555 1_555
C38_19 C29_19 1_555 1_555
C39_19 C38_19 1_555 1_555
H19_19 C39_19 1_555 1_555
C40_19 C35_19 1_555 1_555
H20_19 C40_19 1_555 1_555
Co5_9 O3_10 1_555 1_555
Co8_9 O4_10 1_555 1_555
O11_10 Co5_11 1_555 1_555
O12_10 Co8_11 1_555 1_555
O13_15 Co5_11 1_555 1_555
O14_15 Co8_11 1_555 1_555
C6_19 C7_19 1_555 1_555
C9_19 C10_19 1_555 1_555
C10_19 C11_19 1_555 1_555
C12_19 C13_19 1_555 1_555
C18_19 C19_19 1_555 1_555
C23_19 C24_19 1_555 1_555
C24_19 C25_19 1_555 1_555
C25_19 C26_19 1_555 1_555
C31_19 C32_19 1_555 1_555
C33_19 C34_19 1_555 1_555
C37_19 C38_19 1_555 1_555
C39_19 C40_19 1_555 1_555
O9_19 H21_19 1_555 1_555
O9_19 H22_19 1_555 1_555
O10_19 H23_19 1_555 1_555
O10_19 H24_19 1_555 1_555
O1_20 C20_20 1_555 1_555
O2_20 C20_20 1_555 1_555
O11_10 C27_20 1_555 1_555
O12_10 C27_20 1_555 1_555
O13_11 C1_20 1_555 1_555
O14_11 C1_20 1_555 1_555
O15_2 C28_20 1_555 1_555
O16_2 C28_20 1_555 1_555
N1_20 C5_20 1_555 1_555
N2_20 C17_20 1_555 1_555
C1_20 C2_20 1_555 1_555
C2_20 C3_20 1_555 1_555
C3_20 H1_20 1_555 1_555
C4_20 C3_20 1_555 1_555
C5_20 C4_20 1_555 1_555
C6_20 C5_20 1_555 1_555
H2_20 C6_20 1_555 1_555
C7_20 C2_20 1_555 1_555
H3_20 C7_20 1_555 1_555
C8_20 C9_20 1_555 1_555
C9_20 H4_20 1_555 1_555
C10_20 C4_20 1_555 1_555
C11_20 N1_20 1_555 1_555
C12_20 C11_20 1_555 1_555
H5_20 C12_20 1_555 1_555
C13_20 C8_20 1_555 1_555
H6_20 C13_20 1_555 1_555
C14_20 C15_20 1_555 1_555
C15_20 H7_20 1_555 1_555
C16_20 C15_20 1_555 1_555
C17_20 C16_20 1_555 1_555
C18_20 C17_20 1_555 1_555
H8_20 C18_20 1_555 1_555
C19_20 C14_20 1_555 1_555
H9_20 C19_20 1_555 1_555
C20_20 C21_20 1_555 1_555
C21_20 C22_20 1_555 1_555
C22_20 H10_20 1_555 1_555
C23_20 C22_20 1_555 1_555
H11_20 C23_20 1_555 1_555
C24_20 N2_20 1_555 1_555
C25_20 C16_20 1_555 1_555
C26_20 C21_20 1_555 1_555
H12_20 C26_20 1_555 1_555
C27_20 C8_20 1_555 1_555
C28_20 C14_20 1_555 1_555
C29_20 C30_20 1_555 1_555
C30_20 H13_20 1_555 1_555
C31_20 C30_20 1_555 1_555
H14_20 C31_20 1_555 1_555
C32_20 N2_20 1_555 1_555
C33_20 C32_20 1_555 1_555
H15_20 C33_20 1_555 1_555
C34_20 C29_20 1_555 1_555
H16_20 C34_20 1_555 1_555
C35_20 N1_20 1_555 1_555
C36_20 C35_20 1_555 1_555
H17_20 C36_20 1_555 1_555
C37_20 C36_20 1_555 1_555
H18_20 C37_20 1_555 1_555
C38_20 C29_20 1_555 1_555
C39_20 C38_20 1_555 1_555
H19_20 C39_20 1_555 1_555
C40_20 C35_20 1_555 1_555
H20_20 C40_20 1_555 1_555
C6_20 C7_20 1_555 1_555
C9_20 C10_20 1_555 1_555
C10_20 C11_20 1_555 1_555
C12_20 C13_20 1_555 1_555
C18_20 C19_20 1_555 1_555
C23_20 C24_20 1_555 1_555
C24_20 C25_20 1_555 1_555
C25_20 C26_20 1_555 1_555
C31_20 C32_20 1_555 1_555
C33_20 C34_20 1_555 1_555
C37_20 C38_20 1_555 1_555
C39_20 C40_20 1_555 1_555
O9_20 Co8_9 1_555 1_555
O10_20 Co5_9 1_555 1_555
O13_16 Co5_9 1_555 1_555
O14_16 Co8_9 1_555 1_555
O9_20 H21_20 1_555 1_555
O9_20 H22_20 1_555 1_555
O10_20 H23_20 1_555 1_555
O10_20 H24_20 1_555 1_555
O9_21 Co8_2 1_555 1_555
O10_21 Co5_2 1_555 1_555
O11_11 Co5_2 1_555 1_555
O12_11 Co8_2 1_555 1_555
O9_21 H21_21 1_555 1_555
O9_21 H22_21 1_555 1_555
O10_21 H23_21 1_555 1_555
O10_21 H24_21 1_555 1_555
O1_21 C20_21 1_555 1_555
O2_21 C20_21 1_555 1_555
O13_13 C1_21 1_555 1_555
O14_13 C1_21 1_555 1_555
O15_8 C28_21 1_555 1_555
O16_8 C28_21 1_555 1_555
N1_21 C5_21 1_555 1_555
N2_21 C17_21 1_555 1_555
C1_21 C2_21 1_555 1_555
C2_21 C3_21 1_555 1_555
C3_21 H1_21 1_555 1_555
C4_21 C3_21 1_555 1_555
C5_21 C4_21 1_555 1_555
C6_21 C5_21 1_555 1_555
H2_21 C6_21 1_555 1_555
C7_21 C2_21 1_555 1_555
H3_21 C7_21 1_555 1_555
C10_21 C4_21 1_555 1_555
C11_21 N1_21 1_555 1_555
C14_21 C15_21 1_555 1_555
C15_21 H7_21 1_555 1_555
C16_21 C15_21 1_555 1_555
C17_21 C16_21 1_555 1_555
C18_21 C17_21 1_555 1_555
H8_21 C18_21 1_555 1_555
C19_21 C14_21 1_555 1_555
H9_21 C19_21 1_555 1_555
C20_21 C21_21 1_555 1_555
C21_21 C22_21 1_555 1_555
C22_21 H10_21 1_555 1_555
C23_21 C22_21 1_555 1_555
H11_21 C23_21 1_555 1_555
C24_21 N2_21 1_555 1_555
C25_21 C16_21 1_555 1_555
C26_21 C21_21 1_555 1_555
H12_21 C26_21 1_555 1_555
C28_21 C14_21 1_555 1_555
C29_21 C30_21 1_555 1_555
C31_21 C30_21 1_555 1_555
H14_21 C31_21 1_555 1_555
C32_21 N2_21 1_555 1_555
C33_21 C32_21 1_555 1_555
H15_21 C33_21 1_555 1_555
C34_21 C29_21 1_555 1_555
H16_21 C34_21 1_555 1_555
C35_21 N1_21 1_555 1_555
C36_21 C35_21 1_555 1_555
H17_21 C36_21 1_555 1_555
C37_21 C36_21 1_555 1_555
H18_21 C37_21 1_555 1_555
C38_21 C29_21 1_555 1_555
C39_21 C38_21 1_555 1_555
C40_21 C35_21 1_555 1_555
C6_21 C7_21 1_555 1_555
C10_21 C11_21 1_555 1_555
C18_21 C19_21 1_555 1_555
C23_21 C24_21 1_555 1_555
C24_21 C25_21 1_555 1_555
C25_21 C26_21 1_555 1_555
C31_21 C32_21 1_555 1_555
C33_21 C34_21 1_555 1_555
C37_21 C38_21 1_555 1_555
C39_21 C40_21 1_555 1_555
O3_11 C27_21 1_555 1_555
O4_11 C27_21 1_555 1_555
C8_21 C9_21 1_555 1_555
C9_21 H4_21 1_555 1_555
H5_21 C12_21 1_555 1_555
C13_21 C8_21 1_555 1_555
H6_21 C13_21 1_555 1_555
C27_21 C8_21 1_555 1_555
Co5_4 O3_11 1_555 1_555
Co8_4 O4_11 1_555 1_555
C12_21 C13_21 1_555 1_555
O11_11 C27_22 1_555 1_555
O12_11 C27_22 1_555 1_555
C8_22 C9_22 1_555 1_555
C9_22 H4_22 1_555 1_555
H5_22 C12_22 1_555 1_555
C13_22 C8_22 1_555 1_555
H6_22 C13_22 1_555 1_555
C27_22 C8_22 1_555 1_555
C12_22 C13_22 1_555 1_555
Co5_4 O1_22 1_555 1_555
Co8_4 O2_22 1_555 1_555
O1_22 C20_22 1_555 1_555
O2_22 C20_22 1_555 1_555
O13_16 C1_22 1_555 1_555
O14_16 C1_22 1_555 1_555
O15_5 C28_22 1_555 1_555
O16_5 C28_22 1_555 1_555
O9_22 Co8_4 1_555 1_555
O10_22 Co5_4 1_555 1_555
N1_22 C5_22 1_555 1_555
N2_22 C17_22 1_555 1_555
C1_22 C2_22 1_555 1_555
C2_22 C3_22 1_555 1_555
C3_22 H1_22 1_555 1_555
C4_22 C3_22 1_555 1_555
C5_22 C4_22 1_555 1_555
C6_22 C5_22 1_555 1_555
H2_22 C6_22 1_555 1_555
C7_22 C2_22 1_555 1_555
H3_22 C7_22 1_555 1_555
C10_22 C4_22 1_555 1_555
C11_22 N1_22 1_555 1_555
C14_22 C15_22 1_555 1_555
C15_22 H7_22 1_555 1_555
C16_22 C15_22 1_555 1_555
C17_22 C16_22 1_555 1_555
C18_22 C17_22 1_555 1_555
H8_22 C18_22 1_555 1_555
C19_22 C14_22 1_555 1_555
H9_22 C19_22 1_555 1_555
C20_22 C21_22 1_555 1_555
C21_22 C22_22 1_555 1_555
C22_22 H10_22 1_555 1_555
C23_22 C22_22 1_555 1_555
H11_22 C23_22 1_555 1_555
C24_22 N2_22 1_555 1_555
C25_22 C16_22 1_555 1_555
C26_22 C21_22 1_555 1_555
H12_22 C26_22 1_555 1_555
C28_22 C14_22 1_555 1_555
C29_22 C30_22 1_555 1_555
C31_22 C30_22 1_555 1_555
H14_22 C31_22 1_555 1_555
C32_22 N2_22 1_555 1_555
C33_22 C32_22 1_555 1_555
H15_22 C33_22 1_555 1_555
C34_22 C29_22 1_555 1_555
H16_22 C34_22 1_555 1_555
C35_22 N1_22 1_555 1_555
C36_22 C35_22 1_555 1_555
H17_22 C36_22 1_555 1_555
C37_22 C36_22 1_555 1_555
H18_22 C37_22 1_555 1_555
C38_22 C29_22 1_555 1_555
C39_22 C38_22 1_555 1_555
C40_22 C35_22 1_555 1_555
C6_22 C7_22 1_555 1_555
C10_22 C11_22 1_555 1_555
C18_22 C19_22 1_555 1_555
C23_22 C24_22 1_555 1_555
C24_22 C25_22 1_555 1_555
C25_22 C26_22 1_555 1_555
C31_22 C32_22 1_555 1_555
C33_22 C34_22 1_555 1_555
C37_22 C38_22 1_555 1_555
C39_22 C40_22 1_555 1_555
O9_22 H21_22 1_555 1_555
O9_22 H22_22 1_555 1_555
O10_22 H23_22 1_555 1_555
O10_22 H24_22 1_555 1_555
Co5_3 O1_23 1_555 1_555
Co8_3 O2_23 1_555 1_555
O1_23 C20_23 1_555 1_555
O2_23 C20_23 1_555 1_555
O3_12 C27_23 1_555 1_555
O4_12 C27_23 1_555 1_555
O13_14 C1_23 1_555 1_555
O14_14 C1_23 1_555 1_555
O15_7 C28_23 1_555 1_555
O16_7 C28_23 1_555 1_555
O9_23 Co8_3 1_555 1_555
O10_23 Co5_3 1_555 1_555
N1_23 C5_23 1_555 1_555
N2_23 C17_23 1_555 1_555
C1_23 C2_23 1_555 1_555
C2_23 C3_23 1_555 1_555
C3_23 H1_23 1_555 1_555
C4_23 C3_23 1_555 1_555
C5_23 C4_23 1_555 1_555
C6_23 C5_23 1_555 1_555
H2_23 C6_23 1_555 1_555
C7_23 C2_23 1_555 1_555
H3_23 C7_23 1_555 1_555
C8_23 C9_23 1_555 1_555
C9_23 H4_23 1_555 1_555
C10_23 C4_23 1_555 1_555
C11_23 N1_23 1_555 1_555
C12_23 C11_23 1_555 1_555
H5_23 C12_23 1_555 1_555
C13_23 C8_23 1_555 1_555
H6_23 C13_23 1_555 1_555
C14_23 C15_23 1_555 1_555
C15_23 H7_23 1_555 1_555
C16_23 C15_23 1_555 1_555
C17_23 C16_23 1_555 1_555
C18_23 C17_23 1_555 1_555
H8_23 C18_23 1_555 1_555
C19_23 C14_23 1_555 1_555
H9_23 C19_23 1_555 1_555
C20_23 C21_23 1_555 1_555
C21_23 C22_23 1_555 1_555
C22_23 H10_23 1_555 1_555
C23_23 C22_23 1_555 1_555
H11_23 C23_23 1_555 1_555
C24_23 N2_23 1_555 1_555
C25_23 C16_23 1_555 1_555
C26_23 C21_23 1_555 1_555
H12_23 C26_23 1_555 1_555
C27_23 C8_23 1_555 1_555
C28_23 C14_23 1_555 1_555
C29_23 C30_23 1_555 1_555
C30_23 H13_23 1_555 1_555
C31_23 C30_23 1_555 1_555
H14_23 C31_23 1_555 1_555
C32_23 N2_23 1_555 1_555
C33_23 C32_23 1_555 1_555
H15_23 C33_23 1_555 1_555
C34_23 C29_23 1_555 1_555
H16_23 C34_23 1_555 1_555
C35_23 N1_23 1_555 1_555
C36_23 C35_23 1_555 1_555
H17_23 C36_23 1_555 1_555
C37_23 C36_23 1_555 1_555
H18_23 C37_23 1_555 1_555
C38_23 C29_23 1_555 1_555
C39_23 C38_23 1_555 1_555
H19_23 C39_23 1_555 1_555
C40_23 C35_23 1_555 1_555
H20_23 C40_23 1_555 1_555
Co5 O3_12 1_555 1_555
Co8 O4_12 1_555 1_555
O11_12 Co5_3 1_555 1_555
O12_12 Co8_3 1_555 1_555
C6_23 C7_23 1_555 1_555
C9_23 C10_23 1_555 1_555
C10_23 C11_23 1_555 1_555
C12_23 C13_23 1_555 1_555
C18_23 C19_23 1_555 1_555
C23_23 C24_23 1_555 1_555
C24_23 C25_23 1_555 1_555
C25_23 C26_23 1_555 1_555
C31_23 C32_23 1_555 1_555
C33_23 C34_23 1_555 1_555
C37_23 C38_23 1_555 1_555
C39_23 C40_23 1_555 1_555
O9_23 H21_23 1_555 1_555
O9_23 H22_23 1_555 1_555
O10_23 H23_23 1_555 1_555
O10_23 H24_23 1_555 1_555
O1_24 C20_24 1_555 1_555
O2_24 C20_24 1_555 1_555
O11_12 C27_24 1_555 1_555
O12_12 C27_24 1_555 1_555
O13_15 C1_24 1_555 1_555
O14_15 C1_24 1_555 1_555
O15_6 C28_24 1_555 1_555
O16_6 C28_24 1_555 1_555
N1_24 C5_24 1_555 1_555
N2_24 C17_24 1_555 1_555
C1_24 C2_24 1_555 1_555
C2_24 C3_24 1_555 1_555
C3_24 H1_24 1_555 1_555
C4_24 C3_24 1_555 1_555
C5_24 C4_24 1_555 1_555
C6_24 C5_24 1_555 1_555
H2_24 C6_24 1_555 1_555
C7_24 C2_24 1_555 1_555
H3_24 C7_24 1_555 1_555
C8_24 C9_24 1_555 1_555
C9_24 H4_24 1_555 1_555
C10_24 C4_24 1_555 1_555
C11_24 N1_24 1_555 1_555
C12_24 C11_24 1_555 1_555
H5_24 C12_24 1_555 1_555
C13_24 C8_24 1_555 1_555
H6_24 C13_24 1_555 1_555
C14_24 C15_24 1_555 1_555
C15_24 H7_24 1_555 1_555
C16_24 C15_24 1_555 1_555
C17_24 C16_24 1_555 1_555
C18_24 C17_24 1_555 1_555
H8_24 C18_24 1_555 1_555
C19_24 C14_24 1_555 1_555
H9_24 C19_24 1_555 1_555
C20_24 C21_24 1_555 1_555
C21_24 C22_24 1_555 1_555
C22_24 H10_24 1_555 1_555
C23_24 C22_24 1_555 1_555
H11_24 C23_24 1_555 1_555
C24_24 N2_24 1_555 1_555
C25_24 C16_24 1_555 1_555
C26_24 C21_24 1_555 1_555
H12_24 C26_24 1_555 1_555
C27_24 C8_24 1_555 1_555
C28_24 C14_24 1_555 1_555
C29_24 C30_24 1_555 1_555
C30_24 H13_24 1_555 1_555
C31_24 C30_24 1_555 1_555
H14_24 C31_24 1_555 1_555
C32_24 N2_24 1_555 1_555
C33_24 C32_24 1_555 1_555
H15_24 C33_24 1_555 1_555
C34_24 C29_24 1_555 1_555
H16_24 C34_24 1_555 1_555
C35_24 N1_24 1_555 1_555
C36_24 C35_24 1_555 1_555
H17_24 C36_24 1_555 1_555
C37_24 C36_24 1_555 1_555
H18_24 C37_24 1_555 1_555
C38_24 C29_24 1_555 1_555
C39_24 C38_24 1_555 1_555
H19_24 C39_24 1_555 1_555
C40_24 C35_24 1_555 1_555
H20_24 C40_24 1_555 1_555
C6_24 C7_24 1_555 1_555
C9_24 C10_24 1_555 1_555
C10_24 C11_24 1_555 1_555
C12_24 C13_24 1_555 1_555
C18_24 C19_24 1_555 1_555
C23_24 C24_24 1_555 1_555
C24_24 C25_24 1_555 1_555
C25_24 C26_24 1_555 1_555
C31_24 C32_24 1_555 1_555
C33_24 C34_24 1_555 1_555
C37_24 C38_24 1_555 1_555
C39_24 C40_24 1_555 1_555
O9_24 Co8 1_555 1_555
O10_24 Co5 1_555 1_555
O9_24 H21_24 1_555 1_555
O9_24 H22_24 1_555 1_555
O10_24 H23_24 1_555 1_555
O10_24 H24_24 1_555 1_555

#END
