
###############################################################################
#
# This file contains modified crystal structure data generated from the
# MOF subset of the Cambridge Structural Database (CSD) v543 
# hosted by the Cambridge Crystallographic Data Centre (CCDC).
#
# This work is licensed under the Creative Commons
# Attribution-NonCommercial-ShareAlike 4.0 International License.
# To view a copy of this license, visit
# http://creativecommons.org/licenses/by-nc-sa/4.0/
# or send a letter to
# Creative Commons, PO Box 1866, Mountain View, CA 94042, USA.
#
# CIF created using the CSD Python API on 29 September 2022
# The structure has been converted into the P1 space group
# The structure has a 3D framework
# The original CSD entry PAHYUW is in the cubic crystal system
# The framework has been calculated to contain at least 10.0% void space
# The void calculation uses a probe of radius 1.32A, grid spacing 0.4
# H atom positions have been added when not included in the experimental data
#
###############################################################################

data_PAHYUW
_chemical_formula_moiety         '(C960 H576 Fe48 N48 O240)n'
_symmetry_cell_setting           triclinic
_symmetry_space_group_name_H-M   'P 1'
_symmetry_Int_Tables_number      1
_space_group_name_Hall           'P 1'
loop_
_symmetry_equiv_pos_site_id
_symmetry_equiv_pos_as_xyz
1 x,y,z
_cell_length_a                   45.770(5)
_cell_length_b                   45.770(5)
_cell_length_c                   45.770(5)
_cell_angle_alpha                90
_cell_angle_beta                 90
_cell_angle_gamma                90
_cell_volume                     95883.2
loop_
_atom_site_label
_atom_site_type_symbol
_atom_site_fract_x
_atom_site_fract_y
_atom_site_fract_z
O3 O 0.14728(17) 0.01646(14) 0.42538(16)
O4 O 0.1950(2) 0.02802(18) 0.41555(19)
C8 C 0.1634(2) 0.0123(2) 0.37633(14)
C9 C 0.13583(17) 0.00448(18) 0.36636(16)
H4 H 0.119816 0.003844 0.379547
C12 C 0.18269(15) 0.0063(2) 0.32775(18)
H5 H 0.198698 0.006960 0.314561
C13 C 0.18685(15) 0.0132(2) 0.35703(19)
H6 H 0.205713 0.018570 0.363854
C27 C 0.1686(3) 0.0191(3) 0.4051(4)
H13 H 0.218327 0.003257 0.175078
H19 H 0.187124 0.009843 0.207986
H20 H 0.151704 0.013061 0.244712
Fe3 Fe 0.14633(3) 0.02249(3) 0.46973(3)
Fe6 Fe 0.20696(3) 0.03289(3) 0.45789(3)
O13 O 0.33787(19) 0.01986(16) 0.97528(16)
O14 O 0.29007(17) 0.0081(2) 0.96091(17)
O1 O 0.34123(17) 0.96960(14) 0.01088(16)
O5 O 0.01986(16) 0.97528(16) 0.33787(19)
O6 O 0.0081(2) 0.96091(17) 0.29007(17)
O7 O 0.43398(14) 0.96205(14) 0.14197(19)
O8 O 0.42635(17) 0.95723(17) 0.1903(2)
N1 N 0.1462(2) 0.9884(3) 0.2929(2)
N2 N 0.2976(2) 0.9559(3) 0.1408(2)
C1 C 0.0265(3) 0.9707(3) 0.3074(4)
C2 C 0.05841(12) 0.97302(17) 0.30503(18)
C3 C 0.07705(17) 0.98316(15) 0.32675(13)
H1 H 0.069828 0.986391 0.345945
C4 C 0.10625(16) 0.98858(17) 0.32040(16)
C5 C 0.11681(13) 0.9839(2) 0.29232(18)
C6 C 0.09817(18) 0.9737(2) 0.27060(13)
H2 H 0.105387 0.970489 0.251405
C7 C 0.06897(16) 0.96830(19) 0.27695(15)
H3 H 0.056232 0.961369 0.262097
C10 C 0.13166(14) 0.99758(19) 0.33707(18)
C11 C 0.15509(18) 0.9985(2) 0.31777(14)
C14 C 0.38540(13) 0.95678(18) 0.15879(19)
C15 C 0.37452(15) 0.95849(17) 0.13049(16)
H7 H 0.387578 0.959518 0.114390
C16 C 0.34452(16) 0.95869(19) 0.12574(14)
C17 C 0.32541(12) 0.9572(2) 0.14929(18)
C18 C 0.33629(17) 0.9555(2) 0.17759(15)
H8 H 0.323225 0.954439 0.193686
C19 C 0.36628(18) 0.9553(2) 0.18234(14)
H9 H 0.373720 0.954099 0.201682
C20 C 0.3142(3) 0.9678(3) 0.0192(3)
C21 C 0.3092(2) 0.9627(2) 0.05037(14)
C22 C 0.28048(16) 0.9631(2) 0.06031(17)
H10 H 0.264807 0.963980 0.046732
C23 C 0.27472(13) 0.9622(2) 0.09011(19)
H11 H 0.255109 0.962393 0.096903
C24 C 0.29765(18) 0.9609(2) 0.10998(14)
C25 C 0.32635(15) 0.9605(2) 0.10004(18)
C26 C 0.33211(14) 0.9614(2) 0.0702(2)
H12 H 0.351723 0.961204 0.063445
C28 C 0.4170(4) 0.9583(2) 0.1651(3)
C29 C 0.22493(19) 0.9646(3) 0.1961(2)
C30 C 0.2308(2) 0.9867(2) 0.1761(2)
C31 C 0.2548(2) 0.9846(2) 0.1577(2)
H14 H 0.258835 0.999674 0.144093
C32 C 0.27305(18) 0.9603(3) 0.1593(2)
C33 C 0.2672(2) 0.9382(2) 0.1793(2)
H15 H 0.279652 0.921607 0.180334
C34 C 0.2431(2) 0.9403(2) 0.1977(2)
H16 H 0.239144 0.925189 0.211319
C35 C 0.1657(3) 0.9777(3) 0.2680(3)
C36 C 0.1864(3) 0.9556(3) 0.2688(3)
H17 H 0.186263 0.941781 0.284288
C37 C 0.2075(3) 0.9537(3) 0.2470(3)
H18 H 0.221683 0.938563 0.247561
C38 C 0.2077(3) 0.9739(3) 0.2243(3)
C39 C 0.1869(3) 0.9960(3) 0.2235(3)
C40 C 0.1659(3) 0.9979(3) 0.2453(3)
Fe5 Fe 0.47751(3) 0.96973(3) 0.14633(3)
Fe8 Fe 0.46711(3) 0.95789(3) 0.20696(3)
Fe1 Fe 0.35367(3) 0.97751(3) 0.96973(3)
Fe2 Fe 0.29304(3) 0.96711(3) 0.95789(3)
O2 O 0.2916(2) 0.9643(2) 0.9990(3)
O9 O 0.25170(18) 0.9568(2) 0.9507(2)
O10 O 0.39568(18) 0.9866(2) 0.9781(2)
O11 O 0.35272(17) 0.98354(14) 0.92538(16)
O12 O 0.3050(2) 0.97198(18) 0.91555(19)
O15 O 0.35803(19) 0.93398(14) 0.96205(14)
O16 O 0.3097(2) 0.92635(17) 0.95723(17)
H21 H 0.238831 0.971204 0.960579
H22 H 0.24779 0.957049 0.929361
H23 H 0.405085 0.969405 0.987405
H24 H 0.405904 0.991275 0.959544
Fe4 Fe 0.97751(3) 0.96973(3) 0.35367(3)
Fe7 Fe 0.96711(3) 0.95789(3) 0.29304(3)
O1_2 O 0.15877(17) 0.03040(14) 0.51088(16)
O2_2 O 0.2084(2) 0.0357(2) 0.4990(3)
O5_2 O 0.48014(16) 0.02472(16) 0.83787(19)
O6_2 O 0.4919(2) 0.03909(17) 0.79007(17)
O7_2 O 0.06602(14) 0.03795(14) 0.64197(19)
O8_2 O 0.07365(17) 0.04277(17) 0.6903(2)
O9_2 O 0.24830(18) 0.0432(2) 0.4507(2)
O10_2 O 0.10432(18) 0.0134(2) 0.4781(2)
N1_2 N 0.3538(2) 0.0116(3) 0.7929(2)
N2_2 N 0.2024(2) 0.0441(3) 0.6408(2)
C1_2 C 0.4735(3) 0.0293(3) 0.8074(4)
C2_2 C 0.44159(12) 0.02698(17) 0.80503(18)
C3_2 C 0.42295(17) 0.01684(15) 0.82675(13)
H1_2 H 0.430172 0.013609 0.845945
C4_2 C 0.39375(16) 0.01142(17) 0.82040(16)
C5_2 C 0.38319(13) 0.0161(2) 0.79232(18)
C6_2 C 0.40183(18) 0.0263(2) 0.77060(13)
H2_2 H 0.394613 0.029511 0.751405
C7_2 C 0.43103(16) 0.03170(19) 0.77695(15)
H3_2 H 0.443768 0.038631 0.762097
C10_2 C 0.36834(14) 0.00242(19) 0.83707(18)
C11_2 C 0.34491(18) 0.0015(2) 0.81777(14)
C14_2 C 0.11460(13) 0.04322(18) 0.65879(19)
C15_2 C 0.12548(15) 0.04151(17) 0.63049(16)
H7_2 H 0.112422 0.040482 0.614390
C16_2 C 0.15548(16) 0.04131(19) 0.62574(14)
C17_2 C 0.17459(12) 0.0428(2) 0.64929(18)
C18_2 C 0.16371(17) 0.0445(2) 0.67759(15)
H8_2 H 0.176775 0.045561 0.693686
C19_2 C 0.13372(18) 0.0447(2) 0.68234(14)
H9_2 H 0.126280 0.045901 0.701682
C20_2 C 0.1858(3) 0.0322(3) 0.5192(3)
C21_2 C 0.1908(2) 0.0373(2) 0.55037(14)
C22_2 C 0.21952(16) 0.0369(2) 0.56031(17)
H10_2 H 0.235193 0.036020 0.546732
C23_2 C 0.22528(13) 0.0378(2) 0.59011(19)
H11_2 H 0.244891 0.037607 0.596903
C24_2 C 0.20235(18) 0.0391(2) 0.60998(14)
C25_2 C 0.17365(15) 0.0395(2) 0.60004(18)
C26_2 C 0.16789(14) 0.0386(2) 0.5702(2)
H12_2 H 0.148277 0.038796 0.563445
C28_2 C 0.0830(4) 0.0417(2) 0.6651(3)
C29_2 C 0.27507(19) 0.0354(3) 0.6961(2)
C30_2 C 0.2692(2) 0.0133(2) 0.6761(2)
C31_2 C 0.2452(2) 0.0154(2) 0.6577(2)
H14_2 H 0.241165 0.000326 0.644093
C32_2 C 0.22695(18) 0.0397(3) 0.6593(2)
C33_2 C 0.2328(2) 0.0618(2) 0.6793(2)
H15_2 H 0.220348 0.078393 0.680334
C34_2 C 0.2569(2) 0.0597(2) 0.6977(2)
H16_2 H 0.260856 0.074811 0.711319
C35_2 C 0.3343(3) 0.0223(3) 0.7680(3)
C36_2 C 0.3136(3) 0.0444(3) 0.7688(3)
H17_2 H 0.313737 0.058219 0.784288
C37_2 C 0.2925(3) 0.0463(3) 0.7470(3)
H18_2 H 0.278317 0.061437 0.747561
C38_2 C 0.2923(3) 0.0261(3) 0.7243(3)
C39_2 C 0.3131(3) 0.0040(3) 0.7235(3)
C40_2 C 0.3341(3) 0.0021(3) 0.7453(3)
Fe4_2 Fe 0.52249(3) 0.03027(3) 0.85367(3)
Fe5_2 Fe 0.02249(3) 0.03027(3) 0.64633(3)
Fe7_2 Fe 0.53289(3) 0.04211(3) 0.79304(3)
Fe8_2 Fe 0.03289(3) 0.04211(3) 0.70696(3)
O15_2 O 0.14197(19) 0.06602(14) 0.46205(14)
O16_2 O 0.1903(2) 0.07365(17) 0.45723(17)
H21_2 H 0.261169 0.0287956 0.460579
H22_2 H 0.25221 0.0429508 0.429361
H23_2 H 0.0949152 0.0305948 0.487405
H24_2 H 0.0940964 0.00872484 0.459544
C8_2 C 0.3366(2) 0.9877(2) 0.87633(14)
C9_2 C 0.36417(17) 0.99552(18) 0.86636(16)
H4_2 H 0.380184 0.996156 0.879547
C12_2 C 0.31731(15) 0.9937(2) 0.82775(18)
H5_2 H 0.301302 0.993040 0.814561
C13_2 C 0.31315(15) 0.9868(2) 0.85703(19)
H6_2 H 0.294287 0.981430 0.863854
C27_2 C 0.3314(3) 0.9809(3) 0.9051(4)
H13_2 H 0.281673 0.996743 0.675078
H19_2 H 0.312876 0.990157 0.707986
H20_2 H 0.348296 0.986939 0.744712
O13_2 O 0.16213(19) 0.98014(16) 0.47528(16)
O14_2 O 0.20993(17) 0.9919(2) 0.46091(17)
Fe4_3 Fe 0.02249(3) 0.46973(3) 0.14633(3)
Fe7_3 Fe 0.03289(3) 0.45789(3) 0.20696(3)
Fe1_2 Fe 0.64633(3) 0.47751(3) 0.53027(3)
Fe2_2 Fe 0.70696(3) 0.46711(3) 0.54211(3)
O1_3 O 0.65877(17) 0.46960(14) 0.48912(16)
O2_3 O 0.7084(2) 0.4643(2) 0.5010(3)
O3_2 O 0.85272(17) 0.51646(14) 0.07462(16)
O4_2 O 0.8050(2) 0.52802(18) 0.08445(19)
O5_3 O 0.98014(16) 0.47528(16) 0.16213(19)
O6_3 O 0.9919(2) 0.46091(17) 0.20993(17)
O7_3 O 0.56602(14) 0.46205(14) 0.35803(19)
O8_3 O 0.57365(17) 0.45723(17) 0.3097(2)
O9_3 O 0.74830(18) 0.4568(2) 0.5493(2)
O10_3 O 0.60432(18) 0.4866(2) 0.5219(2)
N1_3 N 0.8538(2) 0.4884(3) 0.2071(2)
N2_3 N 0.7024(2) 0.4559(3) 0.3592(2)
C1_3 C 0.9735(3) 0.4707(3) 0.1926(4)
C2_3 C 0.94159(12) 0.47302(17) 0.19497(18)
C3_3 C 0.92295(17) 0.48316(15) 0.17325(13)
H1_3 H 0.930172 0.486391 0.154055
C4_3 C 0.89375(16) 0.48858(17) 0.17960(16)
C5_3 C 0.88319(13) 0.4839(2) 0.20768(18)
C6_3 C 0.90183(18) 0.4737(2) 0.22940(13)
H2_3 H 0.894613 0.470489 0.248595
C7_3 C 0.93103(16) 0.46830(19) 0.22305(15)
H3_3 H 0.943768 0.461369 0.237903
C8_3 C 0.8366(2) 0.5123(2) 0.12367(14)
C9_3 C 0.86417(17) 0.50448(18) 0.13364(16)
H4_3 H 0.880184 0.503844 0.120453
C10_3 C 0.86834(14) 0.49758(19) 0.16293(18)
C11_3 C 0.84491(18) 0.4985(2) 0.18223(14)
C12_3 C 0.81731(15) 0.5063(2) 0.17225(18)
H5_3 H 0.801302 0.506960 0.185439
C13_3 C 0.81315(15) 0.5132(2) 0.14297(19)
H6_3 H 0.794287 0.518570 0.136146
C14_3 C 0.61460(13) 0.45678(18) 0.34121(19)
C15_3 C 0.62548(15) 0.45849(17) 0.36951(16)
H7_3 H 0.612422 0.459518 0.385610
C16_3 C 0.65548(16) 0.45869(19) 0.37426(14)
C17_3 C 0.67459(12) 0.4572(2) 0.35071(18)
C18_3 C 0.66371(17) 0.4555(2) 0.32241(15)
H8_3 H 0.676775 0.454439 0.306314
C19_3 C 0.63372(18) 0.4553(2) 0.31766(14)
H9_3 H 0.626280 0.454099 0.298318
C20_3 C 0.6858(3) 0.4678(3) 0.4808(3)
C21_3 C 0.6908(2) 0.4627(2) 0.44963(14)
C22_3 C 0.71952(16) 0.4631(2) 0.43969(17)
H10_3 H 0.735193 0.463980 0.453268
C23_3 C 0.72528(13) 0.4622(2) 0.40989(19)
H11_3 H 0.744891 0.462393 0.403097
C24_3 C 0.70235(18) 0.4609(2) 0.39002(14)
C25_3 C 0.67365(15) 0.4605(2) 0.39996(18)
C26_3 C 0.66789(14) 0.4614(2) 0.4298(2)
H12_3 H 0.648277 0.461204 0.436555
C27_3 C 0.8314(3) 0.5191(3) 0.0949(4)
C28_3 C 0.5830(4) 0.4583(2) 0.3349(3)
C29_3 C 0.77507(19) 0.4646(3) 0.3039(2)
C30_3 C 0.7692(2) 0.4867(2) 0.3239(2)
H13_3 H 0.781673 0.503257 0.324922
C31_3 C 0.7452(2) 0.4846(2) 0.3423(2)
H14_3 H 0.741165 0.499674 0.355907
C32_3 C 0.72695(18) 0.4603(3) 0.3407(2)
C33_3 C 0.7328(2) 0.4382(2) 0.3207(2)
H15_3 H 0.720348 0.421607 0.319666
C34_3 C 0.7569(2) 0.4403(2) 0.3023(2)
H16_3 H 0.760856 0.425189 0.288681
C35_3 C 0.8343(3) 0.4777(3) 0.2320(3)
C36_3 C 0.8136(3) 0.4556(3) 0.2312(3)
H17_3 H 0.813737 0.441781 0.215712
C37_3 C 0.7925(3) 0.4537(3) 0.2530(3)
H18_3 H 0.778317 0.438563 0.252439
C38_3 C 0.7923(3) 0.4739(3) 0.2757(3)
C39_3 C 0.8131(3) 0.4960(3) 0.2765(3)
H19_3 H 0.812876 0.509843 0.292014
C40_3 C 0.8341(3) 0.4979(3) 0.2547(3)
H20_3 H 0.848296 0.513061 0.255288
Fe3_2 Fe 0.85367(3) 0.52249(3) 0.03027(3)
Fe5_3 Fe 0.52249(3) 0.46973(3) 0.35367(3)
Fe6_2 Fe 0.79304(3) 0.53289(3) 0.04211(3)
Fe8_3 Fe 0.53289(3) 0.45789(3) 0.29304(3)
O11_2 O 0.64728(17) 0.48354(14) 0.57462(16)
O12_2 O 0.6950(2) 0.47198(18) 0.58445(19)
O13_3 O 0.66213(19) 0.51986(16) 0.52472(16)
O14_3 O 0.70993(17) 0.5081(2) 0.53909(17)
O15_3 O 0.64197(19) 0.43398(14) 0.53795(14)
O16_3 O 0.6903(2) 0.42635(17) 0.54277(17)
H21_3 H 0.761169 0.471204 0.539421
H22_3 H 0.75221 0.457049 0.570639
H23_3 H 0.594915 0.469405 0.512595
H24_3 H 0.594096 0.491275 0.540456
O2_4 O 0.7916(2) 0.5357(2) 0.0010(3)
O9_4 O 0.75170(18) 0.5432(2) 0.0493(2)
O10_4 O 0.89568(18) 0.5134(2) 0.0219(2)
O13_4 O 0.83787(19) 0.48014(16) 0.02472(16)
O14_4 O 0.79007(17) 0.4919(2) 0.03909(17)
O15_4 O 0.85803(19) 0.56602(14) 0.03795(14)
O16_4 O 0.8097(2) 0.57365(17) 0.04277(17)
H21_4 H 0.738831 0.528796 0.0394214
H22_4 H 0.74779 0.542951 0.0706388
H23_4 H 0.905085 0.530595 0.0125951
H24_4 H 0.905904 0.508725 0.0404557
O1_4 O 0.84123(17) 0.53040(14) 0.98912(16)
O5_4 O 0.51986(16) 0.52472(16) 0.66213(19)
O6_4 O 0.5081(2) 0.53909(17) 0.70993(17)
O7_4 O 0.93398(14) 0.53795(14) 0.85803(19)
O8_4 O 0.92635(17) 0.54277(17) 0.8097(2)
N1_4 N 0.6462(2) 0.5116(3) 0.7071(2)
N2_4 N 0.7976(2) 0.5441(3) 0.8592(2)
C1_4 C 0.5265(3) 0.5293(3) 0.6926(4)
C2_4 C 0.55841(12) 0.52698(17) 0.69497(18)
C3_4 C 0.57705(17) 0.51684(15) 0.67325(13)
H1_4 H 0.569828 0.513609 0.654055
C4_4 C 0.60625(16) 0.51142(17) 0.67960(16)
C5_4 C 0.61681(13) 0.5161(2) 0.70768(18)
C6_4 C 0.59817(18) 0.5263(2) 0.72940(13)
H2_4 H 0.605387 0.529511 0.748595
C7_4 C 0.56897(16) 0.53170(19) 0.72305(15)
H3_4 H 0.556232 0.538631 0.737903
C8_4 C 0.6634(2) 0.4877(2) 0.62367(14)
C9_4 C 0.63583(17) 0.49552(18) 0.63364(16)
H4_4 H 0.619816 0.496156 0.620453
C10_4 C 0.63166(14) 0.50242(19) 0.66293(18)
C11_4 C 0.65509(18) 0.5015(2) 0.68223(14)
C12_4 C 0.68269(15) 0.4937(2) 0.67225(18)
H5_4 H 0.698698 0.493040 0.685439
C13_4 C 0.68685(15) 0.4868(2) 0.64297(19)
H6_4 H 0.705713 0.481430 0.636146
C14_4 C 0.88540(13) 0.54322(18) 0.84121(19)
C15_4 C 0.87452(15) 0.54151(17) 0.86951(16)
H7_4 H 0.887578 0.540482 0.885610
C16_4 C 0.84452(16) 0.54131(19) 0.87426(14)
C17_4 C 0.82541(12) 0.5428(2) 0.85071(18)
C18_4 C 0.83629(17) 0.5445(2) 0.82241(15)
H8_4 H 0.823225 0.545561 0.806314
C19_4 C 0.86628(18) 0.5447(2) 0.81766(14)
H9_4 H 0.873720 0.545901 0.798318
C20_4 C 0.8142(3) 0.5322(3) 0.9808(3)
C21_4 C 0.8092(2) 0.5373(2) 0.94963(14)
C22_4 C 0.78048(16) 0.5369(2) 0.93969(17)
H10_4 H 0.764807 0.536020 0.953268
C23_4 C 0.77472(13) 0.5378(2) 0.90989(19)
H11_4 H 0.755109 0.537607 0.903097
C24_4 C 0.79765(18) 0.5391(2) 0.89002(14)
C25_4 C 0.82635(15) 0.5395(2) 0.89996(18)
C26_4 C 0.83211(14) 0.5386(2) 0.9298(2)
H12_4 H 0.851723 0.538796 0.936555
C27_4 C 0.6686(3) 0.4809(3) 0.5949(4)
C28_4 C 0.9170(4) 0.5417(2) 0.8349(3)
C29_4 C 0.72493(19) 0.5354(3) 0.8039(2)
C30_4 C 0.7308(2) 0.5133(2) 0.8239(2)
H13_4 H 0.718327 0.496743 0.824922
C31_4 C 0.7548(2) 0.5154(2) 0.8423(2)
H14_4 H 0.758835 0.500326 0.855907
C32_4 C 0.77305(18) 0.5397(3) 0.8407(2)
C33_4 C 0.7672(2) 0.5618(2) 0.8207(2)
H15_4 H 0.779652 0.578393 0.819666
C34_4 C 0.7431(2) 0.5597(2) 0.8023(2)
H16_4 H 0.739144 0.574811 0.788681
C35_4 C 0.6657(3) 0.5223(3) 0.7320(3)
C36_4 C 0.6864(3) 0.5444(3) 0.7312(3)
H17_4 H 0.686263 0.558219 0.715712
C37_4 C 0.7075(3) 0.5463(3) 0.7530(3)
H18_4 H 0.721683 0.561437 0.752439
C38_4 C 0.7077(3) 0.5261(3) 0.7757(3)
C39_4 C 0.6869(3) 0.5040(3) 0.7765(3)
H19_4 H 0.687124 0.490157 0.792014
C40_4 C 0.6659(3) 0.5021(3) 0.7547(3)
H20_4 H 0.651704 0.486939 0.755288
Fe4_4 Fe 0.47751(3) 0.53027(3) 0.64633(3)
Fe5_4 Fe 0.97751(3) 0.53027(3) 0.85367(3)
Fe7_4 Fe 0.46711(3) 0.54211(3) 0.70696(3)
Fe8_4 Fe 0.96711(3) 0.54211(3) 0.79304(3)
O3_3 O 0.42538(16) 0.14728(17) 0.01646(14)
O4_3 O 0.41555(19) 0.1950(2) 0.02802(18)
C8_5 C 0.37633(14) 0.1634(2) 0.0123(2)
C9_5 C 0.36636(16) 0.13583(17) 0.00448(18)
H4_5 H 0.379547 0.119816 0.003844
C12_5 C 0.32775(18) 0.18269(15) 0.0063(2)
H5_5 H 0.314561 0.198698 0.006960
C13_5 C 0.35703(19) 0.18685(15) 0.0132(2)
H6_5 H 0.363854 0.205713 0.018570
C27_5 C 0.4051(4) 0.1686(3) 0.0191(3)
H13_5 H 0.175078 0.218327 0.003257
H19_5 H 0.207986 0.187124 0.009843
H20_5 H 0.244712 0.151704 0.013061
Fe3_3 Fe 0.46973(3) 0.14633(3) 0.02249(3)
Fe6_3 Fe 0.45789(3) 0.20696(3) 0.03289(3)
O1_5 O 0.01088(16) 0.34123(17) 0.96960(14)
O7_5 O 0.14197(19) 0.43398(14) 0.96205(14)
O8_5 O 0.1903(2) 0.42635(17) 0.95723(17)
N1_5 N 0.2929(2) 0.1462(2) 0.9884(3)
N2_5 N 0.1408(2) 0.2976(2) 0.9559(3)
C1_5 C 0.3074(4) 0.0265(3) 0.9707(3)
C2_5 C 0.30503(18) 0.05841(12) 0.97302(17)
C3_5 C 0.32675(13) 0.07705(17) 0.98316(15)
H1_5 H 0.345945 0.069828 0.986391
C4_5 C 0.32040(16) 0.10625(16) 0.98858(17)
C5_5 C 0.29232(18) 0.11681(13) 0.9839(2)
C6_5 C 0.27060(13) 0.09817(18) 0.9737(2)
H2_5 H 0.251405 0.105387 0.970489
C7_5 C 0.27695(15) 0.06897(16) 0.96830(19)
H3_5 H 0.262097 0.056232 0.961369
C10_5 C 0.33707(18) 0.13166(14) 0.99758(19)
C11_5 C 0.31777(14) 0.15509(18) 0.9985(2)
C14_5 C 0.15879(19) 0.38540(13) 0.95678(18)
C15_5 C 0.13049(16) 0.37452(15) 0.95849(17)
H7_5 H 0.114390 0.387578 0.959518
C16_5 C 0.12574(14) 0.34452(16) 0.95869(19)
C17_5 C 0.14929(18) 0.32541(12) 0.9572(2)
C18_5 C 0.17759(15) 0.33629(17) 0.9555(2)
H8_5 H 0.193686 0.323225 0.954439
C19_5 C 0.18234(14) 0.36628(18) 0.9553(2)
H9_5 H 0.201682 0.373720 0.954099
C20_5 C 0.0192(3) 0.3142(3) 0.9678(3)
C21_5 C 0.05037(14) 0.3092(2) 0.9627(2)
C22_5 C 0.06031(17) 0.28048(16) 0.9631(2)
H10_5 H 0.046732 0.264807 0.963980
C23_5 C 0.09011(19) 0.27472(13) 0.9622(2)
H11_5 H 0.096903 0.255109 0.962393
C24_5 C 0.10998(14) 0.29765(18) 0.9609(2)
C25_5 C 0.10004(18) 0.32635(15) 0.9605(2)
C26_5 C 0.0702(2) 0.33211(14) 0.9614(2)
H12_5 H 0.063445 0.351723 0.961204
C28_5 C 0.1651(3) 0.4170(4) 0.9583(2)
C29_5 C 0.1961(2) 0.22493(19) 0.9646(3)
C30_5 C 0.1761(2) 0.2308(2) 0.9867(2)
C31_5 C 0.1577(2) 0.2548(2) 0.9846(2)
H14_5 H 0.144093 0.258835 0.999674
C32_5 C 0.1593(2) 0.27305(18) 0.9603(3)
C33_5 C 0.1793(2) 0.2672(2) 0.9382(2)
H15_5 H 0.180334 0.279652 0.921607
C34_5 C 0.1977(2) 0.2431(2) 0.9403(2)
H16_5 H 0.211319 0.239144 0.925189
C35_5 C 0.2680(3) 0.1657(3) 0.9777(3)
C36_5 C 0.2688(3) 0.1864(3) 0.9556(3)
H17_5 H 0.284288 0.186263 0.941781
C37_5 C 0.2470(3) 0.2075(3) 0.9537(3)
H18_5 H 0.247561 0.221683 0.938563
C38_5 C 0.2243(3) 0.2077(3) 0.9739(3)
C39_5 C 0.2235(3) 0.1869(3) 0.9960(3)
C40_5 C 0.2453(3) 0.1659(3) 0.9979(3)
Fe5_5 Fe 0.14633(3) 0.47751(3) 0.96973(3)
Fe8_5 Fe 0.20696(3) 0.46711(3) 0.95789(3)
O13_5 O 0.97528(16) 0.33787(19) 0.01986(16)
O14_5 O 0.96091(17) 0.29007(17) 0.0081(2)
Fe1_3 Fe 0.96973(3) 0.35367(3) 0.97751(3)
Fe2_3 Fe 0.95789(3) 0.29304(3) 0.96711(3)
O2_5 O 0.9990(3) 0.2916(2) 0.9643(2)
O9_5 O 0.9507(2) 0.25170(18) 0.9568(2)
O10_5 O 0.9781(2) 0.39568(18) 0.9866(2)
O11_3 O 0.92538(16) 0.35272(17) 0.98354(14)
O12_3 O 0.91555(19) 0.3050(2) 0.97198(18)
O15_5 O 0.96205(14) 0.35803(19) 0.93398(14)
O16_5 O 0.95723(17) 0.3097(2) 0.92635(17)
H21_5 H 0.960579 0.238831 0.971204
H22_5 H 0.929361 0.24779 0.957049
H23_5 H 0.987405 0.405085 0.969405
H24_5 H 0.959544 0.405904 0.991275
O1_6 O 0.51088(16) 0.15877(17) 0.03040(14)
O2_6 O 0.4990(3) 0.2084(2) 0.0357(2)
O7_6 O 0.64197(19) 0.06602(14) 0.03795(14)
O8_6 O 0.6903(2) 0.07365(17) 0.04277(17)
O9_6 O 0.4507(2) 0.24830(18) 0.0432(2)
O10_6 O 0.4781(2) 0.10432(18) 0.0134(2)
N1_6 N 0.7929(2) 0.3538(2) 0.0116(3)
N2_6 N 0.6408(2) 0.2024(2) 0.0441(3)
C1_6 C 0.8074(4) 0.4735(3) 0.0293(3)
C2_6 C 0.80503(18) 0.44159(12) 0.02698(17)
C3_6 C 0.82675(13) 0.42295(17) 0.01684(15)
H1_6 H 0.845945 0.430172 0.013609
C4_6 C 0.82040(16) 0.39375(16) 0.01142(17)
C5_6 C 0.79232(18) 0.38319(13) 0.0161(2)
C6_6 C 0.77060(13) 0.40183(18) 0.0263(2)
H2_6 H 0.751405 0.394613 0.029511
C7_6 C 0.77695(15) 0.43103(16) 0.03170(19)
H3_6 H 0.762097 0.443768 0.038631
C10_6 C 0.83707(18) 0.36834(14) 0.00242(19)
C11_6 C 0.81777(14) 0.34491(18) 0.0015(2)
C14_6 C 0.65879(19) 0.11460(13) 0.04322(18)
C15_6 C 0.63049(16) 0.12548(15) 0.04151(17)
H7_6 H 0.614390 0.112422 0.040482
C16_6 C 0.62574(14) 0.15548(16) 0.04131(19)
C17_6 C 0.64929(18) 0.17459(12) 0.0428(2)
C18_6 C 0.67759(15) 0.16371(17) 0.0445(2)
H8_6 H 0.693686 0.176775 0.045561
C19_6 C 0.68234(14) 0.13372(18) 0.0447(2)
H9_6 H 0.701682 0.126280 0.045901
C20_6 C 0.5192(3) 0.1858(3) 0.0322(3)
C21_6 C 0.55037(14) 0.1908(2) 0.0373(2)
C22_6 C 0.56031(17) 0.21952(16) 0.0369(2)
H10_6 H 0.546732 0.235193 0.036020
C23_6 C 0.59011(19) 0.22528(13) 0.0378(2)
H11_6 H 0.596903 0.244891 0.037607
C24_6 C 0.60998(14) 0.20235(18) 0.0391(2)
C25_6 C 0.60004(18) 0.17365(15) 0.0395(2)
C26_6 C 0.5702(2) 0.16789(14) 0.0386(2)
H12_6 H 0.563445 0.148277 0.038796
C28_6 C 0.6651(3) 0.0830(4) 0.0417(2)
C29_6 C 0.6961(2) 0.27507(19) 0.0354(3)
C30_6 C 0.6761(2) 0.2692(2) 0.0133(2)
C31_6 C 0.6577(2) 0.2452(2) 0.0154(2)
H14_6 H 0.644093 0.241165 0.000326
C32_6 C 0.6593(2) 0.22695(18) 0.0397(3)
C33_6 C 0.6793(2) 0.2328(2) 0.0618(2)
H15_6 H 0.680334 0.220348 0.078393
C34_6 C 0.6977(2) 0.2569(2) 0.0597(2)
H16_6 H 0.711319 0.260856 0.074811
C35_6 C 0.7680(3) 0.3343(3) 0.0223(3)
C36_6 C 0.7688(3) 0.3136(3) 0.0444(3)
H17_6 H 0.784288 0.313737 0.058219
C37_6 C 0.7470(3) 0.2925(3) 0.0463(3)
H18_6 H 0.747561 0.278317 0.061437
C38_6 C 0.7243(3) 0.2923(3) 0.0261(3)
C39_6 C 0.7235(3) 0.3131(3) 0.0040(3)
C40_6 C 0.7453(3) 0.3341(3) 0.0021(3)
Fe5_6 Fe 0.64633(3) 0.02249(3) 0.03027(3)
Fe8_6 Fe 0.70696(3) 0.03289(3) 0.04211(3)
O15_6 O 0.46205(14) 0.14197(19) 0.06602(14)
O16_6 O 0.45723(17) 0.1903(2) 0.07365(17)
H21_6 H 0.460579 0.261169 0.0287956
H22_6 H 0.429361 0.25221 0.0429508
H23_6 H 0.487405 0.0949152 0.0305948
H24_6 H 0.459544 0.0940964 0.00872484
C8_6 C 0.87633(14) 0.3366(2) 0.9877(2)
C9_6 C 0.86636(16) 0.36417(17) 0.99552(18)
H4_6 H 0.879547 0.380184 0.996156
C12_6 C 0.82775(18) 0.31731(15) 0.9937(2)
H5_6 H 0.814561 0.301302 0.993040
C13_6 C 0.85703(19) 0.31315(15) 0.9868(2)
H6_6 H 0.863854 0.294287 0.981430
C27_6 C 0.9051(4) 0.3314(3) 0.9809(3)
H13_6 H 0.675078 0.281673 0.996743
H19_6 H 0.707986 0.312876 0.990157
H20_6 H 0.744712 0.348296 0.986939
O13_6 O 0.47528(16) 0.16213(19) 0.98014(16)
O14_6 O 0.46091(17) 0.20993(17) 0.9919(2)
Fe1_4 Fe 0.53027(3) 0.64633(3) 0.47751(3)
Fe2_4 Fe 0.54211(3) 0.70696(3) 0.46711(3)
O1_7 O 0.48912(16) 0.65877(17) 0.46960(14)
O2_7 O 0.5010(3) 0.7084(2) 0.4643(2)
O3_4 O 0.07462(16) 0.85272(17) 0.51646(14)
O4_4 O 0.08445(19) 0.8050(2) 0.52802(18)
O7_7 O 0.35803(19) 0.56602(14) 0.46205(14)
O8_7 O 0.3097(2) 0.57365(17) 0.45723(17)
O9_7 O 0.5493(2) 0.74830(18) 0.4568(2)
O10_7 O 0.5219(2) 0.60432(18) 0.4866(2)
N1_7 N 0.2071(2) 0.8538(2) 0.4884(3)
N2_7 N 0.3592(2) 0.7024(2) 0.4559(3)
C1_7 C 0.1926(4) 0.9735(3) 0.4707(3)
C2_7 C 0.19497(18) 0.94159(12) 0.47302(17)
C3_7 C 0.17325(13) 0.92295(17) 0.48316(15)
H1_7 H 0.154055 0.930172 0.486391
C4_7 C 0.17960(16) 0.89375(16) 0.48858(17)
C5_7 C 0.20768(18) 0.88319(13) 0.4839(2)
C6_7 C 0.22940(13) 0.90183(18) 0.4737(2)
H2_7 H 0.248595 0.894613 0.470489
C7_7 C 0.22305(15) 0.93103(16) 0.46830(19)
H3_7 H 0.237903 0.943768 0.461369
C8_7 C 0.12367(14) 0.8366(2) 0.5123(2)
C9_7 C 0.13364(16) 0.86417(17) 0.50448(18)
H4_7 H 0.120453 0.880184 0.503844
C10_7 C 0.16293(18) 0.86834(14) 0.49758(19)
C11_7 C 0.18223(14) 0.84491(18) 0.4985(2)
C12_7 C 0.17225(18) 0.81731(15) 0.5063(2)
H5_7 H 0.185439 0.801302 0.506960
C13_7 C 0.14297(19) 0.81315(15) 0.5132(2)
H6_7 H 0.136146 0.794287 0.518570
C14_7 C 0.34121(19) 0.61460(13) 0.45678(18)
C15_7 C 0.36951(16) 0.62548(15) 0.45849(17)
H7_7 H 0.385610 0.612422 0.459518
C16_7 C 0.37426(14) 0.65548(16) 0.45869(19)
C17_7 C 0.35071(18) 0.67459(12) 0.4572(2)
C18_7 C 0.32241(15) 0.66371(17) 0.4555(2)
H8_7 H 0.306314 0.676775 0.454439
C19_7 C 0.31766(14) 0.63372(18) 0.4553(2)
H9_7 H 0.298318 0.626280 0.454099
C20_7 C 0.4808(3) 0.6858(3) 0.4678(3)
C21_7 C 0.44963(14) 0.6908(2) 0.4627(2)
C22_7 C 0.43969(17) 0.71952(16) 0.4631(2)
H10_7 H 0.453268 0.735193 0.463980
C23_7 C 0.40989(19) 0.72528(13) 0.4622(2)
H11_7 H 0.403097 0.744891 0.462393
C24_7 C 0.39002(14) 0.70235(18) 0.4609(2)
C25_7 C 0.39996(18) 0.67365(15) 0.4605(2)
C26_7 C 0.4298(2) 0.66789(14) 0.4614(2)
H12_7 H 0.436555 0.648277 0.461204
C27_7 C 0.0949(4) 0.8314(3) 0.5191(3)
C28_7 C 0.3349(3) 0.5830(4) 0.4583(2)
C29_7 C 0.3039(2) 0.77507(19) 0.4646(3)
C30_7 C 0.3239(2) 0.7692(2) 0.4867(2)
H13_7 H 0.324922 0.781673 0.503257
C31_7 C 0.3423(2) 0.7452(2) 0.4846(2)
H14_7 H 0.355907 0.741165 0.499674
C32_7 C 0.3407(2) 0.72695(18) 0.4603(3)
C33_7 C 0.3207(2) 0.7328(2) 0.4382(2)
H15_7 H 0.319666 0.720348 0.421607
C34_7 C 0.3023(2) 0.7569(2) 0.4403(2)
H16_7 H 0.288681 0.760856 0.425189
C35_7 C 0.2320(3) 0.8343(3) 0.4777(3)
C36_7 C 0.2312(3) 0.8136(3) 0.4556(3)
H17_7 H 0.215712 0.813737 0.441781
C37_7 C 0.2530(3) 0.7925(3) 0.4537(3)
H18_7 H 0.252439 0.778317 0.438563
C38_7 C 0.2757(3) 0.7923(3) 0.4739(3)
C39_7 C 0.2765(3) 0.8131(3) 0.4960(3)
H19_7 H 0.292014 0.812876 0.509843
C40_7 C 0.2547(3) 0.8341(3) 0.4979(3)
H20_7 H 0.255288 0.848296 0.513061
Fe3_4 Fe 0.03027(3) 0.85367(3) 0.52249(3)
Fe5_7 Fe 0.35367(3) 0.52249(3) 0.46973(3)
Fe6_4 Fe 0.04211(3) 0.79304(3) 0.53289(3)
Fe8_7 Fe 0.29304(3) 0.53289(3) 0.45789(3)
O11_4 O 0.57462(16) 0.64728(17) 0.48354(14)
O12_4 O 0.58445(19) 0.6950(2) 0.47198(18)
O13_7 O 0.52472(16) 0.66213(19) 0.51986(16)
O14_7 O 0.53909(17) 0.70993(17) 0.5081(2)
O15_7 O 0.53795(14) 0.64197(19) 0.43398(14)
O16_7 O 0.54277(17) 0.6903(2) 0.42635(17)
H21_7 H 0.539421 0.761169 0.471204
H22_7 H 0.570639 0.75221 0.457049
H23_7 H 0.512595 0.594915 0.469405
H24_7 H 0.540456 0.594096 0.491275
O2_8 O 0.0010(3) 0.7916(2) 0.5357(2)
O9_8 O 0.0493(2) 0.75170(18) 0.5432(2)
O10_8 O 0.0219(2) 0.89568(18) 0.5134(2)
O13_8 O 0.02472(16) 0.83787(19) 0.48014(16)
O14_8 O 0.03909(17) 0.79007(17) 0.4919(2)
O15_8 O 0.03795(14) 0.85803(19) 0.56602(14)
O16_8 O 0.04277(17) 0.8097(2) 0.57365(17)
H21_8 H 0.0394214 0.738831 0.528796
H22_8 H 0.0706388 0.74779 0.542951
H23_8 H 0.0125951 0.905085 0.530595
H24_8 H 0.0404557 0.905904 0.508725
O1_8 O 0.98912(16) 0.84123(17) 0.53040(14)
O7_8 O 0.85803(19) 0.93398(14) 0.53795(14)
O8_8 O 0.8097(2) 0.92635(17) 0.54277(17)
N1_8 N 0.7071(2) 0.6462(2) 0.5116(3)
N2_8 N 0.8592(2) 0.7976(2) 0.5441(3)
C1_8 C 0.6926(4) 0.5265(3) 0.5293(3)
C2_8 C 0.69497(18) 0.55841(12) 0.52698(17)
C3_8 C 0.67325(13) 0.57705(17) 0.51684(15)
H1_8 H 0.654055 0.569828 0.513609
C4_8 C 0.67960(16) 0.60625(16) 0.51142(17)
C5_8 C 0.70768(18) 0.61681(13) 0.5161(2)
C6_8 C 0.72940(13) 0.59817(18) 0.5263(2)
H2_8 H 0.748595 0.605387 0.529511
C7_8 C 0.72305(15) 0.56897(16) 0.53170(19)
H3_8 H 0.737903 0.556232 0.538631
C8_8 C 0.62367(14) 0.6634(2) 0.4877(2)
C9_8 C 0.63364(16) 0.63583(17) 0.49552(18)
H4_8 H 0.620453 0.619816 0.496156
C10_8 C 0.66293(18) 0.63166(14) 0.50242(19)
C11_8 C 0.68223(14) 0.65509(18) 0.5015(2)
C12_8 C 0.67225(18) 0.68269(15) 0.4937(2)
H5_8 H 0.685439 0.698698 0.493040
C13_8 C 0.64297(19) 0.68685(15) 0.4868(2)
H6_8 H 0.636146 0.705713 0.481430
C14_8 C 0.84121(19) 0.88540(13) 0.54322(18)
C15_8 C 0.86951(16) 0.87452(15) 0.54151(17)
H7_8 H 0.885610 0.887578 0.540482
C16_8 C 0.87426(14) 0.84452(16) 0.54131(19)
C17_8 C 0.85071(18) 0.82541(12) 0.5428(2)
C18_8 C 0.82241(15) 0.83629(17) 0.5445(2)
H8_8 H 0.806314 0.823225 0.545561
C19_8 C 0.81766(14) 0.86628(18) 0.5447(2)
H9_8 H 0.798318 0.873720 0.545901
C20_8 C 0.9808(3) 0.8142(3) 0.5322(3)
C21_8 C 0.94963(14) 0.8092(2) 0.5373(2)
C22_8 C 0.93969(17) 0.78048(16) 0.5369(2)
H10_8 H 0.953268 0.764807 0.536020
C23_8 C 0.90989(19) 0.77472(13) 0.5378(2)
H11_8 H 0.903097 0.755109 0.537607
C24_8 C 0.89002(14) 0.79765(18) 0.5391(2)
C25_8 C 0.89996(18) 0.82635(15) 0.5395(2)
C26_8 C 0.9298(2) 0.83211(14) 0.5386(2)
H12_8 H 0.936555 0.851723 0.538796
C27_8 C 0.5949(4) 0.6686(3) 0.4809(3)
C28_8 C 0.8349(3) 0.9170(4) 0.5417(2)
C29_8 C 0.8039(2) 0.72493(19) 0.5354(3)
C30_8 C 0.8239(2) 0.7308(2) 0.5133(2)
H13_8 H 0.824922 0.718327 0.496743
C31_8 C 0.8423(2) 0.7548(2) 0.5154(2)
H14_8 H 0.855907 0.758835 0.500326
C32_8 C 0.8407(2) 0.77305(18) 0.5397(3)
C33_8 C 0.8207(2) 0.7672(2) 0.5618(2)
H15_8 H 0.819666 0.779652 0.578393
C34_8 C 0.8023(2) 0.7431(2) 0.5597(2)
H16_8 H 0.788681 0.739144 0.574811
C35_8 C 0.7320(3) 0.6657(3) 0.5223(3)
C36_8 C 0.7312(3) 0.6864(3) 0.5444(3)
H17_8 H 0.715712 0.686263 0.558219
C37_8 C 0.7530(3) 0.7075(3) 0.5463(3)
H18_8 H 0.752439 0.721683 0.561437
C38_8 C 0.7757(3) 0.7077(3) 0.5261(3)
C39_8 C 0.7765(3) 0.6869(3) 0.5040(3)
H19_8 H 0.792014 0.687124 0.490157
C40_8 C 0.7547(3) 0.6659(3) 0.5021(3)
H20_8 H 0.755288 0.651704 0.486939
Fe5_8 Fe 0.85367(3) 0.97751(3) 0.53027(3)
Fe8_8 Fe 0.79304(3) 0.96711(3) 0.54211(3)
O3_5 O 0.01646(14) 0.42538(16) 0.14728(17)
O4_5 O 0.02802(18) 0.41555(19) 0.1950(2)
C8_9 C 0.0123(2) 0.37633(14) 0.1634(2)
C9_9 C 0.00448(18) 0.36636(16) 0.13583(17)
H4_9 H 0.003844 0.379547 0.119816
C12_9 C 0.0063(2) 0.32775(18) 0.18269(15)
H5_9 H 0.006960 0.314561 0.198698
C13_9 C 0.0132(2) 0.35703(19) 0.18685(15)
H6_9 H 0.018570 0.363854 0.205713
C27_9 C 0.0191(3) 0.4051(4) 0.1686(3)
H13_9 H 0.003257 0.175078 0.218327
H19_9 H 0.009843 0.207986 0.187124
H20_9 H 0.013061 0.244712 0.151704
O1_9 O 0.96960(14) 0.01088(16) 0.34123(17)
O7_9 O 0.96205(14) 0.14197(19) 0.43398(14)
O8_9 O 0.95723(17) 0.1903(2) 0.42635(17)
N1_9 N 0.9884(3) 0.2929(2) 0.1462(2)
N2_9 N 0.9559(3) 0.1408(2) 0.2976(2)
C1_9 C 0.9707(3) 0.3074(4) 0.0265(3)
C2_9 C 0.97302(17) 0.30503(18) 0.05841(12)
C3_9 C 0.98316(15) 0.32675(13) 0.07705(17)
H1_9 H 0.986391 0.345945 0.069828
C4_9 C 0.98858(17) 0.32040(16) 0.10625(16)
C5_9 C 0.9839(2) 0.29232(18) 0.11681(13)
C6_9 C 0.9737(2) 0.27060(13) 0.09817(18)
H2_9 H 0.970489 0.251405 0.105387
C7_9 C 0.96830(19) 0.27695(15) 0.06897(16)
H3_9 H 0.961369 0.262097 0.056232
C10_9 C 0.99758(19) 0.33707(18) 0.13166(14)
C11_9 C 0.9985(2) 0.31777(14) 0.15509(18)
C14_9 C 0.95678(18) 0.15879(19) 0.38540(13)
C15_9 C 0.95849(17) 0.13049(16) 0.37452(15)
H7_9 H 0.959518 0.114390 0.387578
C16_9 C 0.95869(19) 0.12574(14) 0.34452(16)
C17_9 C 0.9572(2) 0.14929(18) 0.32541(12)
C18_9 C 0.9555(2) 0.17759(15) 0.33629(17)
H8_9 H 0.954439 0.193686 0.323225
C19_9 C 0.9553(2) 0.18234(14) 0.36628(18)
H9_9 H 0.954099 0.201682 0.373720
C20_9 C 0.9678(3) 0.0192(3) 0.3142(3)
C21_9 C 0.9627(2) 0.05037(14) 0.3092(2)
C22_9 C 0.9631(2) 0.06031(17) 0.28048(16)
H10_9 H 0.963980 0.046732 0.264807
C23_9 C 0.9622(2) 0.09011(19) 0.27472(13)
H11_9 H 0.962393 0.096903 0.255109
C24_9 C 0.9609(2) 0.10998(14) 0.29765(18)
C25_9 C 0.9605(2) 0.10004(18) 0.32635(15)
C26_9 C 0.9614(2) 0.0702(2) 0.33211(14)
H12_9 H 0.961204 0.063445 0.351723
C28_9 C 0.9583(2) 0.1651(3) 0.4170(4)
C29_9 C 0.9646(3) 0.1961(2) 0.22493(19)
C30_9 C 0.9867(2) 0.1761(2) 0.2308(2)
C31_9 C 0.9846(2) 0.1577(2) 0.2548(2)
H14_9 H 0.999674 0.144093 0.258835
C32_9 C 0.9603(3) 0.1593(2) 0.27305(18)
C33_9 C 0.9382(2) 0.1793(2) 0.2672(2)
H15_9 H 0.921607 0.180334 0.279652
C34_9 C 0.9403(2) 0.1977(2) 0.2431(2)
H16_9 H 0.925189 0.211319 0.239144
C35_9 C 0.9777(3) 0.2680(3) 0.1657(3)
C36_9 C 0.9556(3) 0.2688(3) 0.1864(3)
H17_9 H 0.941781 0.284288 0.186263
C37_9 C 0.9537(3) 0.2470(3) 0.2075(3)
H18_9 H 0.938563 0.247561 0.221683
C38_9 C 0.9739(3) 0.2243(3) 0.2077(3)
C39_9 C 0.9960(3) 0.2235(3) 0.1869(3)
C40_9 C 0.9979(3) 0.2453(3) 0.1659(3)
Fe5_9 Fe 0.96973(3) 0.14633(3) 0.47751(3)
Fe8_9 Fe 0.95789(3) 0.20696(3) 0.46711(3)
O2_9 O 0.9643(2) 0.9990(3) 0.2916(2)
O9_9 O 0.9568(2) 0.9507(2) 0.25170(18)
O10_9 O 0.9866(2) 0.9781(2) 0.39568(18)
O11_5 O 0.98354(14) 0.92538(16) 0.35272(17)
O12_5 O 0.97198(18) 0.91555(19) 0.3050(2)
O15_9 O 0.93398(14) 0.96205(14) 0.35803(19)
O16_9 O 0.92635(17) 0.95723(17) 0.3097(2)
H21_9 H 0.971204 0.960579 0.238831
H22_9 H 0.957049 0.929361 0.24779
H23_9 H 0.969405 0.987405 0.405085
H24_9 H 0.991275 0.959544 0.405904
O1_10 O 0.03040(14) 0.51088(16) 0.15877(17)
O2_10 O 0.0357(2) 0.4990(3) 0.2084(2)
O7_10 O 0.03795(14) 0.64197(19) 0.06602(14)
O8_10 O 0.04277(17) 0.6903(2) 0.07365(17)
O9_10 O 0.0432(2) 0.4507(2) 0.24830(18)
O10_10 O 0.0134(2) 0.4781(2) 0.10432(18)
N1_10 N 0.0116(3) 0.7929(2) 0.3538(2)
N2_10 N 0.0441(3) 0.6408(2) 0.2024(2)
C1_10 C 0.0293(3) 0.8074(4) 0.4735(3)
C2_10 C 0.02698(17) 0.80503(18) 0.44159(12)
C3_10 C 0.01684(15) 0.82675(13) 0.42295(17)
H1_10 H 0.013609 0.845945 0.430172
C4_10 C 0.01142(17) 0.82040(16) 0.39375(16)
C5_10 C 0.0161(2) 0.79232(18) 0.38319(13)
C6_10 C 0.0263(2) 0.77060(13) 0.40183(18)
H2_10 H 0.029511 0.751405 0.394613
C7_10 C 0.03170(19) 0.77695(15) 0.43103(16)
H3_10 H 0.038631 0.762097 0.443768
C10_10 C 0.00242(19) 0.83707(18) 0.36834(14)
C11_10 C 0.0015(2) 0.81777(14) 0.34491(18)
C14_10 C 0.04322(18) 0.65879(19) 0.11460(13)
C15_10 C 0.04151(17) 0.63049(16) 0.12548(15)
H7_10 H 0.040482 0.614390 0.112422
C16_10 C 0.04131(19) 0.62574(14) 0.15548(16)
C17_10 C 0.0428(2) 0.64929(18) 0.17459(12)
C18_10 C 0.0445(2) 0.67759(15) 0.16371(17)
H8_10 H 0.045561 0.693686 0.176775
C19_10 C 0.0447(2) 0.68234(14) 0.13372(18)
H9_10 H 0.045901 0.701682 0.126280
C20_10 C 0.0322(3) 0.5192(3) 0.1858(3)
C21_10 C 0.0373(2) 0.55037(14) 0.1908(2)
C22_10 C 0.0369(2) 0.56031(17) 0.21952(16)
H10_10 H 0.036020 0.546732 0.235193
C23_10 C 0.0378(2) 0.59011(19) 0.22528(13)
H11_10 H 0.037607 0.596903 0.244891
C24_10 C 0.0391(2) 0.60998(14) 0.20235(18)
C25_10 C 0.0395(2) 0.60004(18) 0.17365(15)
C26_10 C 0.0386(2) 0.5702(2) 0.16789(14)
H12_10 H 0.038796 0.563445 0.148277
C28_10 C 0.0417(2) 0.6651(3) 0.0830(4)
C29_10 C 0.0354(3) 0.6961(2) 0.27507(19)
C30_10 C 0.0133(2) 0.6761(2) 0.2692(2)
C31_10 C 0.0154(2) 0.6577(2) 0.2452(2)
H14_10 H 0.000326 0.644093 0.241165
C32_10 C 0.0397(3) 0.6593(2) 0.22695(18)
C33_10 C 0.0618(2) 0.6793(2) 0.2328(2)
H15_10 H 0.078393 0.680334 0.220348
C34_10 C 0.0597(2) 0.6977(2) 0.2569(2)
H16_10 H 0.074811 0.711319 0.260856
C35_10 C 0.0223(3) 0.7680(3) 0.3343(3)
C36_10 C 0.0444(3) 0.7688(3) 0.3136(3)
H17_10 H 0.058219 0.784288 0.313737
C37_10 C 0.0463(3) 0.7470(3) 0.2925(3)
H18_10 H 0.061437 0.747561 0.278317
C38_10 C 0.0261(3) 0.7243(3) 0.2923(3)
C39_10 C 0.0040(3) 0.7235(3) 0.3131(3)
C40_10 C 0.0021(3) 0.7453(3) 0.3341(3)
Fe5_10 Fe 0.03027(3) 0.64633(3) 0.02249(3)
Fe8_10 Fe 0.04211(3) 0.70696(3) 0.03289(3)
O15_10 O 0.06602(14) 0.46205(14) 0.14197(19)
O16_10 O 0.07365(17) 0.45723(17) 0.1903(2)
H21_10 H 0.0287956 0.460579 0.261169
H22_10 H 0.0429508 0.429361 0.25221
H23_10 H 0.0305948 0.487405 0.0949152
H24_10 H 0.00872484 0.459544 0.0940964
C8_10 C 0.9877(2) 0.87633(14) 0.3366(2)
C9_10 C 0.99552(18) 0.86636(16) 0.36417(17)
H4_10 H 0.996156 0.879547 0.380184
C12_10 C 0.9937(2) 0.82775(18) 0.31731(15)
H5_10 H 0.993040 0.814561 0.301302
C13_10 C 0.9868(2) 0.85703(19) 0.31315(15)
H6_10 H 0.981430 0.863854 0.294287
C27_10 C 0.9809(3) 0.9051(4) 0.3314(3)
H13_10 H 0.996743 0.675078 0.281673
H19_10 H 0.990157 0.707986 0.312876
H20_10 H 0.986939 0.744712 0.348296
O1_11 O 0.46960(14) 0.48912(16) 0.65877(17)
O2_11 O 0.4643(2) 0.5010(3) 0.7084(2)
O3_6 O 0.51646(14) 0.07462(16) 0.85272(17)
O4_6 O 0.52802(18) 0.08445(19) 0.8050(2)
O7_11 O 0.46205(14) 0.35803(19) 0.56602(14)
O8_11 O 0.45723(17) 0.3097(2) 0.57365(17)
O9_11 O 0.4568(2) 0.5493(2) 0.74830(18)
O10_11 O 0.4866(2) 0.5219(2) 0.60432(18)
N1_11 N 0.4884(3) 0.2071(2) 0.8538(2)
N2_11 N 0.4559(3) 0.3592(2) 0.7024(2)
C1_11 C 0.4707(3) 0.1926(4) 0.9735(3)
C2_11 C 0.47302(17) 0.19497(18) 0.94159(12)
C3_11 C 0.48316(15) 0.17325(13) 0.92295(17)
H1_11 H 0.486391 0.154055 0.930172
C4_11 C 0.48858(17) 0.17960(16) 0.89375(16)
C5_11 C 0.4839(2) 0.20768(18) 0.88319(13)
C6_11 C 0.4737(2) 0.22940(13) 0.90183(18)
H2_11 H 0.470489 0.248595 0.894613
C7_11 C 0.46830(19) 0.22305(15) 0.93103(16)
H3_11 H 0.461369 0.237903 0.943768
C8_11 C 0.5123(2) 0.12367(14) 0.8366(2)
C9_11 C 0.50448(18) 0.13364(16) 0.86417(17)
H4_11 H 0.503844 0.120453 0.880184
C10_11 C 0.49758(19) 0.16293(18) 0.86834(14)
C11_11 C 0.4985(2) 0.18223(14) 0.84491(18)
C12_11 C 0.5063(2) 0.17225(18) 0.81731(15)
H5_11 H 0.506960 0.185439 0.801302
C13_11 C 0.5132(2) 0.14297(19) 0.81315(15)
H6_11 H 0.518570 0.136146 0.794287
C14_11 C 0.45678(18) 0.34121(19) 0.61460(13)
C15_11 C 0.45849(17) 0.36951(16) 0.62548(15)
H7_11 H 0.459518 0.385610 0.612422
C16_11 C 0.45869(19) 0.37426(14) 0.65548(16)
C17_11 C 0.4572(2) 0.35071(18) 0.67459(12)
C18_11 C 0.4555(2) 0.32241(15) 0.66371(17)
H8_11 H 0.454439 0.306314 0.676775
C19_11 C 0.4553(2) 0.31766(14) 0.63372(18)
H9_11 H 0.454099 0.298318 0.626280
C20_11 C 0.4678(3) 0.4808(3) 0.6858(3)
C21_11 C 0.4627(2) 0.44963(14) 0.6908(2)
C22_11 C 0.4631(2) 0.43969(17) 0.71952(16)
H10_11 H 0.463980 0.453268 0.735193
C23_11 C 0.4622(2) 0.40989(19) 0.72528(13)
H11_11 H 0.462393 0.403097 0.744891
C24_11 C 0.4609(2) 0.39002(14) 0.70235(18)
C25_11 C 0.4605(2) 0.39996(18) 0.67365(15)
C26_11 C 0.4614(2) 0.4298(2) 0.66789(14)
H12_11 H 0.461204 0.436555 0.648277
C27_11 C 0.5191(3) 0.0949(4) 0.8314(3)
C28_11 C 0.4583(2) 0.3349(3) 0.5830(4)
C29_11 C 0.4646(3) 0.3039(2) 0.77507(19)
C30_11 C 0.4867(2) 0.3239(2) 0.7692(2)
H13_11 H 0.503257 0.324922 0.781673
C31_11 C 0.4846(2) 0.3423(2) 0.7452(2)
H14_11 H 0.499674 0.355907 0.741165
C32_11 C 0.4603(3) 0.3407(2) 0.72695(18)
C33_11 C 0.4382(2) 0.3207(2) 0.7328(2)
H15_11 H 0.421607 0.319666 0.720348
C34_11 C 0.4403(2) 0.3023(2) 0.7569(2)
H16_11 H 0.425189 0.288681 0.760856
C35_11 C 0.4777(3) 0.2320(3) 0.8343(3)
C36_11 C 0.4556(3) 0.2312(3) 0.8136(3)
H17_11 H 0.441781 0.215712 0.813737
C37_11 C 0.4537(3) 0.2530(3) 0.7925(3)
H18_11 H 0.438563 0.252439 0.778317
C38_11 C 0.4739(3) 0.2757(3) 0.7923(3)
C39_11 C 0.4960(3) 0.2765(3) 0.8131(3)
H19_11 H 0.509843 0.292014 0.812876
C40_11 C 0.4979(3) 0.2547(3) 0.8341(3)
H20_11 H 0.513061 0.255288 0.848296
Fe5_11 Fe 0.46973(3) 0.35367(3) 0.52249(3)
Fe8_11 Fe 0.45789(3) 0.29304(3) 0.53289(3)
O11_6 O 0.48354(14) 0.57462(16) 0.64728(17)
O12_6 O 0.47198(18) 0.58445(19) 0.6950(2)
O15_11 O 0.43398(14) 0.53795(14) 0.64197(19)
O16_11 O 0.42635(17) 0.54277(17) 0.6903(2)
H21_11 H 0.471204 0.539421 0.761169
H22_11 H 0.457049 0.570639 0.75221
H23_11 H 0.469405 0.512595 0.594915
H24_11 H 0.491275 0.540456 0.594096
O2_12 O 0.5357(2) 0.0010(3) 0.7916(2)
O9_12 O 0.5432(2) 0.0493(2) 0.75170(18)
O10_12 O 0.5134(2) 0.0219(2) 0.89568(18)
O15_12 O 0.56602(14) 0.03795(14) 0.85803(19)
O16_12 O 0.57365(17) 0.04277(17) 0.8097(2)
H21_12 H 0.528796 0.0394214 0.738831
H22_12 H 0.542951 0.0706388 0.74779
H23_12 H 0.530595 0.0125951 0.905085
H24_12 H 0.508725 0.0404557 0.905904
O1_12 O 0.53040(14) 0.98912(16) 0.84123(17)
O7_12 O 0.53795(14) 0.85803(19) 0.93398(14)
O8_12 O 0.54277(17) 0.8097(2) 0.92635(17)
N1_12 N 0.5116(3) 0.7071(2) 0.6462(2)
N2_12 N 0.5441(3) 0.8592(2) 0.7976(2)
C1_12 C 0.5293(3) 0.6926(4) 0.5265(3)
C2_12 C 0.52698(17) 0.69497(18) 0.55841(12)
C3_12 C 0.51684(15) 0.67325(13) 0.57705(17)
H1_12 H 0.513609 0.654055 0.569828
C4_12 C 0.51142(17) 0.67960(16) 0.60625(16)
C5_12 C 0.5161(2) 0.70768(18) 0.61681(13)
C6_12 C 0.5263(2) 0.72940(13) 0.59817(18)
H2_12 H 0.529511 0.748595 0.605387
C7_12 C 0.53170(19) 0.72305(15) 0.56897(16)
H3_12 H 0.538631 0.737903 0.556232
C8_12 C 0.4877(2) 0.62367(14) 0.6634(2)
C9_12 C 0.49552(18) 0.63364(16) 0.63583(17)
H4_12 H 0.496156 0.620453 0.619816
C10_12 C 0.50242(19) 0.66293(18) 0.63166(14)
C11_12 C 0.5015(2) 0.68223(14) 0.65509(18)
C12_12 C 0.4937(2) 0.67225(18) 0.68269(15)
H5_12 H 0.493040 0.685439 0.698698
C13_12 C 0.4868(2) 0.64297(19) 0.68685(15)
H6_12 H 0.481430 0.636146 0.705713
C14_12 C 0.54322(18) 0.84121(19) 0.88540(13)
C15_12 C 0.54151(17) 0.86951(16) 0.87452(15)
H7_12 H 0.540482 0.885610 0.887578
C16_12 C 0.54131(19) 0.87426(14) 0.84452(16)
C17_12 C 0.5428(2) 0.85071(18) 0.82541(12)
C18_12 C 0.5445(2) 0.82241(15) 0.83629(17)
H8_12 H 0.545561 0.806314 0.823225
C19_12 C 0.5447(2) 0.81766(14) 0.86628(18)
H9_12 H 0.545901 0.798318 0.873720
C20_12 C 0.5322(3) 0.9808(3) 0.8142(3)
C21_12 C 0.5373(2) 0.94963(14) 0.8092(2)
C22_12 C 0.5369(2) 0.93969(17) 0.78048(16)
H10_12 H 0.536020 0.953268 0.764807
C23_12 C 0.5378(2) 0.90989(19) 0.77472(13)
H11_12 H 0.537607 0.903097 0.755109
C24_12 C 0.5391(2) 0.89002(14) 0.79765(18)
C25_12 C 0.5395(2) 0.89996(18) 0.82635(15)
C26_12 C 0.5386(2) 0.9298(2) 0.83211(14)
H12_12 H 0.538796 0.936555 0.851723
C27_12 C 0.4809(3) 0.5949(4) 0.6686(3)
C28_12 C 0.5417(2) 0.8349(3) 0.9170(4)
C29_12 C 0.5354(3) 0.8039(2) 0.72493(19)
C30_12 C 0.5133(2) 0.8239(2) 0.7308(2)
H13_12 H 0.496743 0.824922 0.718327
C31_12 C 0.5154(2) 0.8423(2) 0.7548(2)
H14_12 H 0.500326 0.855907 0.758835
C32_12 C 0.5397(3) 0.8407(2) 0.77305(18)
C33_12 C 0.5618(2) 0.8207(2) 0.7672(2)
H15_12 H 0.578393 0.819666 0.779652
C34_12 C 0.5597(2) 0.8023(2) 0.7431(2)
H16_12 H 0.574811 0.788681 0.739144
C35_12 C 0.5223(3) 0.7320(3) 0.6657(3)
C36_12 C 0.5444(3) 0.7312(3) 0.6864(3)
H17_12 H 0.558219 0.715712 0.686263
C37_12 C 0.5463(3) 0.7530(3) 0.7075(3)
H18_12 H 0.561437 0.752439 0.721683
C38_12 C 0.5261(3) 0.7757(3) 0.7077(3)
C39_12 C 0.5040(3) 0.7765(3) 0.6869(3)
H19_12 H 0.490157 0.792014 0.687124
C40_12 C 0.5021(3) 0.7547(3) 0.6659(3)
H20_12 H 0.486939 0.755288 0.651704
Fe5_12 Fe 0.53027(3) 0.85367(3) 0.97751(3)
Fe8_12 Fe 0.54211(3) 0.79304(3) 0.96711(3)
O2_13 O 0.7084(2) 0.0357(2) 0.0010(3)
O9_13 O 0.74830(18) 0.0432(2) 0.0493(2)
O10_13 O 0.60432(18) 0.0134(2) 0.0219(2)
O11_7 O 0.64728(17) 0.01646(14) 0.07462(16)
O12_7 O 0.6950(2) 0.02802(18) 0.08445(19)
H21_13 H 0.761169 0.0287956 0.0394214
H22_13 H 0.75221 0.0429508 0.0706388
H23_13 H 0.594915 0.0305948 0.0125951
H24_13 H 0.594096 0.00872484 0.0404557
O1_13 O 0.65877(17) 0.03040(14) 0.98912(16)
O5_5 O 0.98014(16) 0.02472(16) 0.66213(19)
O6_5 O 0.9919(2) 0.03909(17) 0.70993(17)
N1_13 N 0.8538(2) 0.0116(3) 0.7071(2)
N2_13 N 0.7024(2) 0.0441(3) 0.8592(2)
C1_13 C 0.9735(3) 0.0293(3) 0.6926(4)
C2_13 C 0.94159(12) 0.02698(17) 0.69497(18)
C3_13 C 0.92295(17) 0.01684(15) 0.67325(13)
H1_13 H 0.930172 0.013609 0.654055
C4_13 C 0.89375(16) 0.01142(17) 0.67960(16)
C5_13 C 0.88319(13) 0.0161(2) 0.70768(18)
C6_13 C 0.90183(18) 0.0263(2) 0.72940(13)
H2_13 H 0.894613 0.029511 0.748595
C7_13 C 0.93103(16) 0.03170(19) 0.72305(15)
H3_13 H 0.943768 0.038631 0.737903
C10_13 C 0.86834(14) 0.00242(19) 0.66293(18)
C11_13 C 0.84491(18) 0.0015(2) 0.68223(14)
C14_13 C 0.61460(13) 0.04322(18) 0.84121(19)
C15_13 C 0.62548(15) 0.04151(17) 0.86951(16)
H7_13 H 0.612422 0.040482 0.885610
C16_13 C 0.65548(16) 0.04131(19) 0.87426(14)
C17_13 C 0.67459(12) 0.0428(2) 0.85071(18)
C18_13 C 0.66371(17) 0.0445(2) 0.82241(15)
H8_13 H 0.676775 0.045561 0.806314
C19_13 C 0.63372(18) 0.0447(2) 0.81766(14)
H9_13 H 0.626280 0.045901 0.798318
C20_13 C 0.6858(3) 0.0322(3) 0.9808(3)
C21_13 C 0.6908(2) 0.0373(2) 0.94963(14)
C22_13 C 0.71952(16) 0.0369(2) 0.93969(17)
H10_13 H 0.735193 0.036020 0.953268
C23_13 C 0.72528(13) 0.0378(2) 0.90989(19)
H11_13 H 0.744891 0.037607 0.903097
C24_13 C 0.70235(18) 0.0391(2) 0.89002(14)
C25_13 C 0.67365(15) 0.0395(2) 0.89996(18)
C26_13 C 0.66789(14) 0.0386(2) 0.9298(2)
H12_13 H 0.648277 0.038796 0.936555
C28_13 C 0.5830(4) 0.0417(2) 0.8349(3)
C29_13 C 0.77507(19) 0.0354(3) 0.8039(2)
C30_13 C 0.7692(2) 0.0133(2) 0.8239(2)
C31_13 C 0.7452(2) 0.0154(2) 0.8423(2)
H14_13 H 0.741165 0.000326 0.855907
C32_13 C 0.72695(18) 0.0397(3) 0.8407(2)
C33_13 C 0.7328(2) 0.0618(2) 0.8207(2)
H15_13 H 0.720348 0.078393 0.819666
C34_13 C 0.7569(2) 0.0597(2) 0.8023(2)
H16_13 H 0.760856 0.074811 0.788681
C35_13 C 0.8343(3) 0.0223(3) 0.7320(3)
C36_13 C 0.8136(3) 0.0444(3) 0.7312(3)
H17_13 H 0.813737 0.058219 0.715712
C37_13 C 0.7925(3) 0.0463(3) 0.7530(3)
H18_13 H 0.778317 0.061437 0.752439
C38_13 C 0.7923(3) 0.0261(3) 0.7757(3)
C39_13 C 0.8131(3) 0.0040(3) 0.7765(3)
C40_13 C 0.8341(3) 0.0021(3) 0.7547(3)
O13_9 O 0.66213(19) 0.98014(16) 0.02472(16)
O14_9 O 0.70993(17) 0.9919(2) 0.03909(17)
O3_7 O 0.85272(17) 0.98354(14) 0.57462(16)
O4_7 O 0.8050(2) 0.97198(18) 0.58445(19)
C8_13 C 0.8366(2) 0.9877(2) 0.62367(14)
C9_13 C 0.86417(17) 0.99552(18) 0.63364(16)
H4_13 H 0.880184 0.996156 0.620453
C12_13 C 0.81731(15) 0.9937(2) 0.67225(18)
H5_13 H 0.801302 0.993040 0.685439
C13_13 C 0.81315(15) 0.9868(2) 0.64297(19)
H6_13 H 0.794287 0.981430 0.636146
C27_13 C 0.8314(3) 0.9809(3) 0.5949(4)
H13_13 H 0.781673 0.996743 0.824922
H19_13 H 0.812876 0.990157 0.792014
H20_13 H 0.848296 0.986939 0.755288
C8_14 C 0.6634(2) 0.0123(2) 0.12367(14)
C9_14 C 0.63583(17) 0.00448(18) 0.13364(16)
H4_14 H 0.619816 0.003844 0.120453
C12_14 C 0.68269(15) 0.0063(2) 0.17225(18)
H5_14 H 0.698698 0.006960 0.185439
C13_14 C 0.68685(15) 0.0132(2) 0.14297(19)
H6_14 H 0.705713 0.018570 0.136146
C27_14 C 0.6686(3) 0.0191(3) 0.0949(4)
H13_14 H 0.718327 0.003257 0.324922
H19_14 H 0.687124 0.009843 0.292014
H20_14 H 0.651704 0.013061 0.255288
O13_10 O 0.83787(19) 0.01986(16) 0.52472(16)
O14_10 O 0.79007(17) 0.0081(2) 0.53909(17)
O1_14 O 0.84123(17) 0.96960(14) 0.48912(16)
O2_14 O 0.7916(2) 0.9643(2) 0.5010(3)
O5_6 O 0.51986(16) 0.97528(16) 0.16213(19)
O6_6 O 0.5081(2) 0.96091(17) 0.20993(17)
O9_14 O 0.75170(18) 0.9568(2) 0.5493(2)
O10_14 O 0.89568(18) 0.9866(2) 0.5219(2)
N1_14 N 0.6462(2) 0.9884(3) 0.2071(2)
N2_14 N 0.7976(2) 0.9559(3) 0.3592(2)
C1_14 C 0.5265(3) 0.9707(3) 0.1926(4)
C2_14 C 0.55841(12) 0.97302(17) 0.19497(18)
C3_14 C 0.57705(17) 0.98316(15) 0.17325(13)
H1_14 H 0.569828 0.986391 0.154055
C4_14 C 0.60625(16) 0.98858(17) 0.17960(16)
C5_14 C 0.61681(13) 0.9839(2) 0.20768(18)
C6_14 C 0.59817(18) 0.9737(2) 0.22940(13)
H2_14 H 0.605387 0.970489 0.248595
C7_14 C 0.56897(16) 0.96830(19) 0.22305(15)
H3_14 H 0.556232 0.961369 0.237903
C10_14 C 0.63166(14) 0.99758(19) 0.16293(18)
C11_14 C 0.65509(18) 0.9985(2) 0.18223(14)
C14_14 C 0.88540(13) 0.95678(18) 0.34121(19)
C15_14 C 0.87452(15) 0.95849(17) 0.36951(16)
H7_14 H 0.887578 0.959518 0.385610
C16_14 C 0.84452(16) 0.95869(19) 0.37426(14)
C17_14 C 0.82541(12) 0.9572(2) 0.35071(18)
C18_14 C 0.83629(17) 0.9555(2) 0.32241(15)
H8_14 H 0.823225 0.954439 0.306314
C19_14 C 0.86628(18) 0.9553(2) 0.31766(14)
H9_14 H 0.873720 0.954099 0.298318
C20_14 C 0.8142(3) 0.9678(3) 0.4808(3)
C21_14 C 0.8092(2) 0.9627(2) 0.44963(14)
C22_14 C 0.78048(16) 0.9631(2) 0.43969(17)
H10_14 H 0.764807 0.963980 0.453268
C23_14 C 0.77472(13) 0.9622(2) 0.40989(19)
H11_14 H 0.755109 0.962393 0.403097
C24_14 C 0.79765(18) 0.9609(2) 0.39002(14)
C25_14 C 0.82635(15) 0.9605(2) 0.39996(18)
C26_14 C 0.83211(14) 0.9614(2) 0.4298(2)
H12_14 H 0.851723 0.961204 0.436555
C28_14 C 0.9170(4) 0.9583(2) 0.3349(3)
C29_14 C 0.72493(19) 0.9646(3) 0.3039(2)
C30_14 C 0.7308(2) 0.9867(2) 0.3239(2)
C31_14 C 0.7548(2) 0.9846(2) 0.3423(2)
H14_14 H 0.758835 0.999674 0.355907
C32_14 C 0.77305(18) 0.9603(3) 0.3407(2)
C33_14 C 0.7672(2) 0.9382(2) 0.3207(2)
H15_14 H 0.779652 0.921607 0.319666
C34_14 C 0.7431(2) 0.9403(2) 0.3023(2)
H16_14 H 0.739144 0.925189 0.288681
C35_14 C 0.6657(3) 0.9777(3) 0.2320(3)
C36_14 C 0.6864(3) 0.9556(3) 0.2312(3)
H17_14 H 0.686263 0.941781 0.215712
C37_14 C 0.7075(3) 0.9537(3) 0.2530(3)
H18_14 H 0.721683 0.938563 0.252439
C38_14 C 0.7077(3) 0.9739(3) 0.2757(3)
C39_14 C 0.6869(3) 0.9960(3) 0.2765(3)
C40_14 C 0.6659(3) 0.9979(3) 0.2547(3)
H21_14 H 0.738831 0.971204 0.539421
H22_14 H 0.74779 0.957049 0.570639
H23_14 H 0.905085 0.969405 0.512595
H24_14 H 0.905904 0.991275 0.540456
O1_15 O 0.34123(17) 0.53040(14) 0.51088(16)
O2_15 O 0.2916(2) 0.5357(2) 0.4990(3)
O3_8 O 0.14728(17) 0.48354(14) 0.92538(16)
O4_8 O 0.1950(2) 0.47198(18) 0.91555(19)
O5_7 O 0.01986(16) 0.52472(16) 0.83787(19)
O6_7 O 0.0081(2) 0.53909(17) 0.79007(17)
O9_15 O 0.25170(18) 0.5432(2) 0.4507(2)
O10_15 O 0.39568(18) 0.5134(2) 0.4781(2)
N1_15 N 0.1462(2) 0.5116(3) 0.7929(2)
N2_15 N 0.2976(2) 0.5441(3) 0.6408(2)
C1_15 C 0.0265(3) 0.5293(3) 0.8074(4)
C2_15 C 0.05841(12) 0.52698(17) 0.80503(18)
C3_15 C 0.07705(17) 0.51684(15) 0.82675(13)
H1_15 H 0.069828 0.513609 0.845945
C4_15 C 0.10625(16) 0.51142(17) 0.82040(16)
C5_15 C 0.11681(13) 0.5161(2) 0.79232(18)
C6_15 C 0.09817(18) 0.5263(2) 0.77060(13)
H2_15 H 0.105387 0.529511 0.751405
C7_15 C 0.06897(16) 0.53170(19) 0.77695(15)
H3_15 H 0.056232 0.538631 0.762097
C8_15 C 0.1634(2) 0.4877(2) 0.87633(14)
C9_15 C 0.13583(17) 0.49552(18) 0.86636(16)
H4_15 H 0.119816 0.496156 0.879547
C10_15 C 0.13166(14) 0.50242(19) 0.83707(18)
C11_15 C 0.15509(18) 0.5015(2) 0.81777(14)
C12_15 C 0.18269(15) 0.4937(2) 0.82775(18)
H5_15 H 0.198698 0.493040 0.814561
C13_15 C 0.18685(15) 0.4868(2) 0.85703(19)
H6_15 H 0.205713 0.481430 0.863854
C14_15 C 0.38540(13) 0.54322(18) 0.65879(19)
C15_15 C 0.37452(15) 0.54151(17) 0.63049(16)
H7_15 H 0.387578 0.540482 0.614390
C16_15 C 0.34452(16) 0.54131(19) 0.62574(14)
C17_15 C 0.32541(12) 0.5428(2) 0.64929(18)
C18_15 C 0.33629(17) 0.5445(2) 0.67759(15)
H8_15 H 0.323225 0.545561 0.693686
C19_15 C 0.36628(18) 0.5447(2) 0.68234(14)
H9_15 H 0.373720 0.545901 0.701682
C20_15 C 0.3142(3) 0.5322(3) 0.5192(3)
C21_15 C 0.3092(2) 0.5373(2) 0.55037(14)
C22_15 C 0.28048(16) 0.5369(2) 0.56031(17)
H10_15 H 0.264807 0.536020 0.546732
C23_15 C 0.27472(13) 0.5378(2) 0.59011(19)
H11_15 H 0.255109 0.537607 0.596903
C24_15 C 0.29765(18) 0.5391(2) 0.60998(14)
C25_15 C 0.32635(15) 0.5395(2) 0.60004(18)
C26_15 C 0.33211(14) 0.5386(2) 0.5702(2)
H12_15 H 0.351723 0.538796 0.563445
C27_15 C 0.1686(3) 0.4809(3) 0.9051(4)
C28_15 C 0.4170(4) 0.5417(2) 0.6651(3)
C29_15 C 0.22493(19) 0.5354(3) 0.6961(2)
C30_15 C 0.2308(2) 0.5133(2) 0.6761(2)
H13_15 H 0.218327 0.496743 0.675078
C31_15 C 0.2548(2) 0.5154(2) 0.6577(2)
H14_15 H 0.258835 0.500326 0.644093
C32_15 C 0.27305(18) 0.5397(3) 0.6593(2)
C33_15 C 0.2672(2) 0.5618(2) 0.6793(2)
H15_15 H 0.279652 0.578393 0.680334
C34_15 C 0.2431(2) 0.5597(2) 0.6977(2)
H16_15 H 0.239144 0.574811 0.711319
C35_15 C 0.1657(3) 0.5223(3) 0.7680(3)
C36_15 C 0.1864(3) 0.5444(3) 0.7688(3)
H17_15 H 0.186263 0.558219 0.784288
C37_15 C 0.2075(3) 0.5463(3) 0.7470(3)
H18_15 H 0.221683 0.561437 0.747561
C38_15 C 0.2077(3) 0.5261(3) 0.7243(3)
C39_15 C 0.1869(3) 0.5040(3) 0.7235(3)
H19_15 H 0.187124 0.490157 0.707986
C40_15 C 0.1659(3) 0.5021(3) 0.7453(3)
H20_15 H 0.151704 0.486939 0.744712
O11_8 O 0.35272(17) 0.51646(14) 0.42538(16)
O12_8 O 0.3050(2) 0.52802(18) 0.41555(19)
O13_11 O 0.33787(19) 0.48014(16) 0.47528(16)
O14_11 O 0.29007(17) 0.4919(2) 0.46091(17)
H21_15 H 0.238831 0.528796 0.460579
H22_15 H 0.24779 0.542951 0.429361
H23_15 H 0.405085 0.530595 0.487405
H24_15 H 0.405904 0.508725 0.459544
O1_16 O 0.15877(17) 0.46960(14) 0.01088(16)
O5_8 O 0.48014(16) 0.47528(16) 0.33787(19)
O6_8 O 0.4919(2) 0.46091(17) 0.29007(17)
N1_16 N 0.3538(2) 0.4884(3) 0.2929(2)
N2_16 N 0.2024(2) 0.4559(3) 0.1408(2)
C1_16 C 0.4735(3) 0.4707(3) 0.3074(4)
C2_16 C 0.44159(12) 0.47302(17) 0.30503(18)
C3_16 C 0.42295(17) 0.48316(15) 0.32675(13)
H1_16 H 0.430172 0.486391 0.345945
C4_16 C 0.39375(16) 0.48858(17) 0.32040(16)
C5_16 C 0.38319(13) 0.4839(2) 0.29232(18)
C6_16 C 0.40183(18) 0.4737(2) 0.27060(13)
H2_16 H 0.394613 0.470489 0.251405
C7_16 C 0.43103(16) 0.46830(19) 0.27695(15)
H3_16 H 0.443768 0.461369 0.262097
C8_16 C 0.3366(2) 0.5123(2) 0.37633(14)
C9_16 C 0.36417(17) 0.50448(18) 0.36636(16)
H4_16 H 0.380184 0.503844 0.379547
C10_16 C 0.36834(14) 0.49758(19) 0.33707(18)
C11_16 C 0.34491(18) 0.4985(2) 0.31777(14)
C12_16 C 0.31731(15) 0.5063(2) 0.32775(18)
H5_16 H 0.301302 0.506960 0.314561
C13_16 C 0.31315(15) 0.5132(2) 0.35703(19)
H6_16 H 0.294287 0.518570 0.363854
C14_16 C 0.11460(13) 0.45678(18) 0.15879(19)
C15_16 C 0.12548(15) 0.45849(17) 0.13049(16)
H7_16 H 0.112422 0.459518 0.114390
C16_16 C 0.15548(16) 0.45869(19) 0.12574(14)
C17_16 C 0.17459(12) 0.4572(2) 0.14929(18)
C18_16 C 0.16371(17) 0.4555(2) 0.17759(15)
H8_16 H 0.176775 0.454439 0.193686
C19_16 C 0.13372(18) 0.4553(2) 0.18234(14)
H9_16 H 0.126280 0.454099 0.201682
C20_16 C 0.1858(3) 0.4678(3) 0.0192(3)
C21_16 C 0.1908(2) 0.4627(2) 0.05037(14)
C22_16 C 0.21952(16) 0.4631(2) 0.06031(17)
H10_16 H 0.235193 0.463980 0.046732
C23_16 C 0.22528(13) 0.4622(2) 0.09011(19)
H11_16 H 0.244891 0.462393 0.096903
C24_16 C 0.20235(18) 0.4609(2) 0.10998(14)
C25_16 C 0.17365(15) 0.4605(2) 0.10004(18)
C26_16 C 0.16789(14) 0.4614(2) 0.0702(2)
H12_16 H 0.148277 0.461204 0.063445
C27_16 C 0.3314(3) 0.5191(3) 0.4051(4)
C28_16 C 0.0830(4) 0.4583(2) 0.1651(3)
C29_16 C 0.27507(19) 0.4646(3) 0.1961(2)
C30_16 C 0.2692(2) 0.4867(2) 0.1761(2)
H13_16 H 0.281673 0.503257 0.175078
C31_16 C 0.2452(2) 0.4846(2) 0.1577(2)
H14_16 H 0.241165 0.499674 0.144093
C32_16 C 0.22695(18) 0.4603(3) 0.1593(2)
C33_16 C 0.2328(2) 0.4382(2) 0.1793(2)
H15_16 H 0.220348 0.421607 0.180334
C34_16 C 0.2569(2) 0.4403(2) 0.1977(2)
H16_16 H 0.260856 0.425189 0.211319
C35_16 C 0.3343(3) 0.4777(3) 0.2680(3)
C36_16 C 0.3136(3) 0.4556(3) 0.2688(3)
H17_16 H 0.313737 0.441781 0.284288
C37_16 C 0.2925(3) 0.4537(3) 0.2470(3)
H18_16 H 0.278317 0.438563 0.247561
C38_16 C 0.2923(3) 0.4739(3) 0.2243(3)
C39_16 C 0.3131(3) 0.4960(3) 0.2235(3)
H19_16 H 0.312876 0.509843 0.207986
C40_16 C 0.3341(3) 0.4979(3) 0.2453(3)
H20_16 H 0.348296 0.513061 0.244712
O2_16 O 0.2084(2) 0.4643(2) 0.9990(3)
O9_16 O 0.24830(18) 0.4568(2) 0.9507(2)
O10_16 O 0.10432(18) 0.4866(2) 0.9781(2)
O13_12 O 0.16213(19) 0.51986(16) 0.97528(16)
O14_12 O 0.20993(17) 0.5081(2) 0.96091(17)
H21_16 H 0.261169 0.471204 0.960579
H22_16 H 0.25221 0.457049 0.929361
H23_16 H 0.0949152 0.469405 0.987405
H24_16 H 0.0940964 0.491275 0.959544
O2_17 O 0.0010(3) 0.7084(2) 0.0357(2)
O9_17 O 0.0493(2) 0.74830(18) 0.0432(2)
O10_17 O 0.0219(2) 0.60432(18) 0.0134(2)
O11_9 O 0.07462(16) 0.64728(17) 0.01646(14)
O12_9 O 0.08445(19) 0.6950(2) 0.02802(18)
H21_17 H 0.0394214 0.761169 0.0287956
H22_17 H 0.0706388 0.75221 0.0429508
H23_17 H 0.0125951 0.594915 0.0305948
H24_17 H 0.0404557 0.594096 0.00872484
O13_13 O 0.02472(16) 0.66213(19) 0.98014(16)
O14_13 O 0.03909(17) 0.70993(17) 0.9919(2)
O1_17 O 0.98912(16) 0.65877(17) 0.03040(14)
N1_17 N 0.7071(2) 0.8538(2) 0.0116(3)
N2_17 N 0.8592(2) 0.7024(2) 0.0441(3)
C1_17 C 0.6926(4) 0.9735(3) 0.0293(3)
C2_17 C 0.69497(18) 0.94159(12) 0.02698(17)
C3_17 C 0.67325(13) 0.92295(17) 0.01684(15)
H1_17 H 0.654055 0.930172 0.013609
C4_17 C 0.67960(16) 0.89375(16) 0.01142(17)
C5_17 C 0.70768(18) 0.88319(13) 0.0161(2)
C6_17 C 0.72940(13) 0.90183(18) 0.0263(2)
H2_17 H 0.748595 0.894613 0.029511
C7_17 C 0.72305(15) 0.93103(16) 0.03170(19)
H3_17 H 0.737903 0.943768 0.038631
C10_17 C 0.66293(18) 0.86834(14) 0.00242(19)
C11_17 C 0.68223(14) 0.84491(18) 0.0015(2)
C14_17 C 0.84121(19) 0.61460(13) 0.04322(18)
C15_17 C 0.86951(16) 0.62548(15) 0.04151(17)
H7_17 H 0.885610 0.612422 0.040482
C16_17 C 0.87426(14) 0.65548(16) 0.04131(19)
C17_17 C 0.85071(18) 0.67459(12) 0.0428(2)
C18_17 C 0.82241(15) 0.66371(17) 0.0445(2)
H8_17 H 0.806314 0.676775 0.045561
C19_17 C 0.81766(14) 0.63372(18) 0.0447(2)
H9_17 H 0.798318 0.626280 0.045901
C20_17 C 0.9808(3) 0.6858(3) 0.0322(3)
C21_17 C 0.94963(14) 0.6908(2) 0.0373(2)
C22_17 C 0.93969(17) 0.71952(16) 0.0369(2)
H10_17 H 0.953268 0.735193 0.036020
C23_17 C 0.90989(19) 0.72528(13) 0.0378(2)
H11_17 H 0.903097 0.744891 0.037607
C24_17 C 0.89002(14) 0.70235(18) 0.0391(2)
C25_17 C 0.89996(18) 0.67365(15) 0.0395(2)
C26_17 C 0.9298(2) 0.66789(14) 0.0386(2)
H12_17 H 0.936555 0.648277 0.038796
C28_17 C 0.8349(3) 0.5830(4) 0.0417(2)
C29_17 C 0.8039(2) 0.77507(19) 0.0354(3)
C30_17 C 0.8239(2) 0.7692(2) 0.0133(2)
C31_17 C 0.8423(2) 0.7452(2) 0.0154(2)
H14_17 H 0.855907 0.741165 0.000326
C32_17 C 0.8407(2) 0.72695(18) 0.0397(3)
C33_17 C 0.8207(2) 0.7328(2) 0.0618(2)
H15_17 H 0.819666 0.720348 0.078393
C34_17 C 0.8023(2) 0.7569(2) 0.0597(2)
H16_17 H 0.788681 0.760856 0.074811
C35_17 C 0.7320(3) 0.8343(3) 0.0223(3)
C36_17 C 0.7312(3) 0.8136(3) 0.0444(3)
H17_17 H 0.715712 0.813737 0.058219
C37_17 C 0.7530(3) 0.7925(3) 0.0463(3)
H18_17 H 0.752439 0.778317 0.061437
C38_17 C 0.7757(3) 0.7923(3) 0.0261(3)
C39_17 C 0.7765(3) 0.8131(3) 0.0040(3)
C40_17 C 0.7547(3) 0.8341(3) 0.0021(3)
O3_9 O 0.57462(16) 0.85272(17) 0.98354(14)
O4_9 O 0.58445(19) 0.8050(2) 0.97198(18)
C8_17 C 0.62367(14) 0.8366(2) 0.9877(2)
C9_17 C 0.63364(16) 0.86417(17) 0.99552(18)
H4_17 H 0.620453 0.880184 0.996156
C12_17 C 0.67225(18) 0.81731(15) 0.9937(2)
H5_17 H 0.685439 0.801302 0.993040
C13_17 C 0.64297(19) 0.81315(15) 0.9868(2)
H6_17 H 0.636146 0.794287 0.981430
C27_17 C 0.5949(4) 0.8314(3) 0.9809(3)
H13_17 H 0.824922 0.781673 0.996743
H19_17 H 0.792014 0.812876 0.990157
H20_17 H 0.755288 0.848296 0.986939
C8_18 C 0.12367(14) 0.6634(2) 0.0123(2)
C9_18 C 0.13364(16) 0.63583(17) 0.00448(18)
H4_18 H 0.120453 0.619816 0.003844
C12_18 C 0.17225(18) 0.68269(15) 0.0063(2)
H5_18 H 0.185439 0.698698 0.006960
C13_18 C 0.14297(19) 0.68685(15) 0.0132(2)
H6_18 H 0.136146 0.705713 0.018570
C27_18 C 0.0949(4) 0.6686(3) 0.0191(3)
H13_18 H 0.324922 0.718327 0.003257
H19_18 H 0.292014 0.687124 0.009843
H20_18 H 0.255288 0.651704 0.013061
O13_14 O 0.52472(16) 0.83787(19) 0.01986(16)
O14_14 O 0.53909(17) 0.79007(17) 0.0081(2)
O1_18 O 0.48912(16) 0.84123(17) 0.96960(14)
O2_18 O 0.5010(3) 0.7916(2) 0.9643(2)
O9_18 O 0.5493(2) 0.75170(18) 0.9568(2)
O10_18 O 0.5219(2) 0.89568(18) 0.9866(2)
N1_18 N 0.2071(2) 0.6462(2) 0.9884(3)
N2_18 N 0.3592(2) 0.7976(2) 0.9559(3)
C1_18 C 0.1926(4) 0.5265(3) 0.9707(3)
C2_18 C 0.19497(18) 0.55841(12) 0.97302(17)
C3_18 C 0.17325(13) 0.57705(17) 0.98316(15)
H1_18 H 0.154055 0.569828 0.986391
C4_18 C 0.17960(16) 0.60625(16) 0.98858(17)
C5_18 C 0.20768(18) 0.61681(13) 0.9839(2)
C6_18 C 0.22940(13) 0.59817(18) 0.9737(2)
H2_18 H 0.248595 0.605387 0.970489
C7_18 C 0.22305(15) 0.56897(16) 0.96830(19)
H3_18 H 0.237903 0.556232 0.961369
C10_18 C 0.16293(18) 0.63166(14) 0.99758(19)
C11_18 C 0.18223(14) 0.65509(18) 0.9985(2)
C14_18 C 0.34121(19) 0.88540(13) 0.95678(18)
C15_18 C 0.36951(16) 0.87452(15) 0.95849(17)
H7_18 H 0.385610 0.887578 0.959518
C16_18 C 0.37426(14) 0.84452(16) 0.95869(19)
C17_18 C 0.35071(18) 0.82541(12) 0.9572(2)
C18_18 C 0.32241(15) 0.83629(17) 0.9555(2)
H8_18 H 0.306314 0.823225 0.954439
C19_18 C 0.31766(14) 0.86628(18) 0.9553(2)
H9_18 H 0.298318 0.873720 0.954099
C20_18 C 0.4808(3) 0.8142(3) 0.9678(3)
C21_18 C 0.44963(14) 0.8092(2) 0.9627(2)
C22_18 C 0.43969(17) 0.78048(16) 0.9631(2)
H10_18 H 0.453268 0.764807 0.963980
C23_18 C 0.40989(19) 0.77472(13) 0.9622(2)
H11_18 H 0.403097 0.755109 0.962393
C24_18 C 0.39002(14) 0.79765(18) 0.9609(2)
C25_18 C 0.39996(18) 0.82635(15) 0.9605(2)
C26_18 C 0.4298(2) 0.83211(14) 0.9614(2)
H12_18 H 0.436555 0.851723 0.961204
C28_18 C 0.3349(3) 0.9170(4) 0.9583(2)
C29_18 C 0.3039(2) 0.72493(19) 0.9646(3)
C30_18 C 0.3239(2) 0.7308(2) 0.9867(2)
C31_18 C 0.3423(2) 0.7548(2) 0.9846(2)
H14_18 H 0.355907 0.758835 0.999674
C32_18 C 0.3407(2) 0.77305(18) 0.9603(3)
C33_18 C 0.3207(2) 0.7672(2) 0.9382(2)
H15_18 H 0.319666 0.779652 0.921607
C34_18 C 0.3023(2) 0.7431(2) 0.9403(2)
H16_18 H 0.288681 0.739144 0.925189
C35_18 C 0.2320(3) 0.6657(3) 0.9777(3)
C36_18 C 0.2312(3) 0.6864(3) 0.9556(3)
H17_18 H 0.215712 0.686263 0.941781
C37_18 C 0.2530(3) 0.7075(3) 0.9537(3)
H18_18 H 0.252439 0.721683 0.938563
C38_18 C 0.2757(3) 0.7077(3) 0.9739(3)
C39_18 C 0.2765(3) 0.6869(3) 0.9960(3)
C40_18 C 0.2547(3) 0.6659(3) 0.9979(3)
H21_18 H 0.539421 0.738831 0.971204
H22_18 H 0.570639 0.74779 0.957049
H23_18 H 0.512595 0.905085 0.969405
H24_18 H 0.540456 0.905904 0.991275
O1_19 O 0.51088(16) 0.34123(17) 0.53040(14)
O2_19 O 0.4990(3) 0.2916(2) 0.5357(2)
O3_10 O 0.92538(16) 0.14728(17) 0.48354(14)
O4_10 O 0.91555(19) 0.1950(2) 0.47198(18)
O9_19 O 0.4507(2) 0.25170(18) 0.5432(2)
O10_19 O 0.4781(2) 0.39568(18) 0.5134(2)
N1_19 N 0.7929(2) 0.1462(2) 0.5116(3)
N2_19 N 0.6408(2) 0.2976(2) 0.5441(3)
C1_19 C 0.8074(4) 0.0265(3) 0.5293(3)
C2_19 C 0.80503(18) 0.05841(12) 0.52698(17)
C3_19 C 0.82675(13) 0.07705(17) 0.51684(15)
H1_19 H 0.845945 0.069828 0.513609
C4_19 C 0.82040(16) 0.10625(16) 0.51142(17)
C5_19 C 0.79232(18) 0.11681(13) 0.5161(2)
C6_19 C 0.77060(13) 0.09817(18) 0.5263(2)
H2_19 H 0.751405 0.105387 0.529511
C7_19 C 0.77695(15) 0.06897(16) 0.53170(19)
H3_19 H 0.762097 0.056232 0.538631
C8_19 C 0.87633(14) 0.1634(2) 0.4877(2)
C9_19 C 0.86636(16) 0.13583(17) 0.49552(18)
H4_19 H 0.879547 0.119816 0.496156
C10_19 C 0.83707(18) 0.13166(14) 0.50242(19)
C11_19 C 0.81777(14) 0.15509(18) 0.5015(2)
C12_19 C 0.82775(18) 0.18269(15) 0.4937(2)
H5_19 H 0.814561 0.198698 0.493040
C13_19 C 0.85703(19) 0.18685(15) 0.4868(2)
H6_19 H 0.863854 0.205713 0.481430
C14_19 C 0.65879(19) 0.38540(13) 0.54322(18)
C15_19 C 0.63049(16) 0.37452(15) 0.54151(17)
H7_19 H 0.614390 0.387578 0.540482
C16_19 C 0.62574(14) 0.34452(16) 0.54131(19)
C17_19 C 0.64929(18) 0.32541(12) 0.5428(2)
C18_19 C 0.67759(15) 0.33629(17) 0.5445(2)
H8_19 H 0.693686 0.323225 0.545561
C19_19 C 0.68234(14) 0.36628(18) 0.5447(2)
H9_19 H 0.701682 0.373720 0.545901
C20_19 C 0.5192(3) 0.3142(3) 0.5322(3)
C21_19 C 0.55037(14) 0.3092(2) 0.5373(2)
C22_19 C 0.56031(17) 0.28048(16) 0.5369(2)
H10_19 H 0.546732 0.264807 0.536020
C23_19 C 0.59011(19) 0.27472(13) 0.5378(2)
H11_19 H 0.596903 0.255109 0.537607
C24_19 C 0.60998(14) 0.29765(18) 0.5391(2)
C25_19 C 0.60004(18) 0.32635(15) 0.5395(2)
C26_19 C 0.5702(2) 0.33211(14) 0.5386(2)
H12_19 H 0.563445 0.351723 0.538796
C27_19 C 0.9051(4) 0.1686(3) 0.4809(3)
C28_19 C 0.6651(3) 0.4170(4) 0.5417(2)
C29_19 C 0.6961(2) 0.22493(19) 0.5354(3)
C30_19 C 0.6761(2) 0.2308(2) 0.5133(2)
H13_19 H 0.675078 0.218327 0.496743
C31_19 C 0.6577(2) 0.2548(2) 0.5154(2)
H14_19 H 0.644093 0.258835 0.500326
C32_19 C 0.6593(2) 0.27305(18) 0.5397(3)
C33_19 C 0.6793(2) 0.2672(2) 0.5618(2)
H15_19 H 0.680334 0.279652 0.578393
C34_19 C 0.6977(2) 0.2431(2) 0.5597(2)
H16_19 H 0.711319 0.239144 0.574811
C35_19 C 0.7680(3) 0.1657(3) 0.5223(3)
C36_19 C 0.7688(3) 0.1864(3) 0.5444(3)
H17_19 H 0.784288 0.186263 0.558219
C37_19 C 0.7470(3) 0.2075(3) 0.5463(3)
H18_19 H 0.747561 0.221683 0.561437
C38_19 C 0.7243(3) 0.2077(3) 0.5261(3)
C39_19 C 0.7235(3) 0.1869(3) 0.5040(3)
H19_19 H 0.707986 0.187124 0.490157
C40_19 C 0.7453(3) 0.1659(3) 0.5021(3)
H20_19 H 0.744712 0.151704 0.486939
O11_10 O 0.42538(16) 0.35272(17) 0.51646(14)
O12_10 O 0.41555(19) 0.3050(2) 0.52802(18)
O13_15 O 0.47528(16) 0.33787(19) 0.48014(16)
O14_15 O 0.46091(17) 0.29007(17) 0.4919(2)
H21_19 H 0.460579 0.238831 0.528796
H22_19 H 0.429361 0.24779 0.542951
H23_19 H 0.487405 0.405085 0.530595
H24_19 H 0.459544 0.405904 0.508725
O1_20 O 0.01088(16) 0.15877(17) 0.46960(14)
N1_20 N 0.2929(2) 0.3538(2) 0.4884(3)
N2_20 N 0.1408(2) 0.2024(2) 0.4559(3)
C1_20 C 0.3074(4) 0.4735(3) 0.4707(3)
C2_20 C 0.30503(18) 0.44159(12) 0.47302(17)
C3_20 C 0.32675(13) 0.42295(17) 0.48316(15)
H1_20 H 0.345945 0.430172 0.486391
C4_20 C 0.32040(16) 0.39375(16) 0.48858(17)
C5_20 C 0.29232(18) 0.38319(13) 0.4839(2)
C6_20 C 0.27060(13) 0.40183(18) 0.4737(2)
H2_20 H 0.251405 0.394613 0.470489
C7_20 C 0.27695(15) 0.43103(16) 0.46830(19)
H3_20 H 0.262097 0.443768 0.461369
C8_20 C 0.37633(14) 0.3366(2) 0.5123(2)
C9_20 C 0.36636(16) 0.36417(17) 0.50448(18)
H4_20 H 0.379547 0.380184 0.503844
C10_20 C 0.33707(18) 0.36834(14) 0.49758(19)
C11_20 C 0.31777(14) 0.34491(18) 0.4985(2)
C12_20 C 0.32775(18) 0.31731(15) 0.5063(2)
H5_20 H 0.314561 0.301302 0.506960
C13_20 C 0.35703(19) 0.31315(15) 0.5132(2)
H6_20 H 0.363854 0.294287 0.518570
C14_20 C 0.15879(19) 0.11460(13) 0.45678(18)
C15_20 C 0.13049(16) 0.12548(15) 0.45849(17)
H7_20 H 0.114390 0.112422 0.459518
C16_20 C 0.12574(14) 0.15548(16) 0.45869(19)
C17_20 C 0.14929(18) 0.17459(12) 0.4572(2)
C18_20 C 0.17759(15) 0.16371(17) 0.4555(2)
H8_20 H 0.193686 0.176775 0.454439
C19_20 C 0.18234(14) 0.13372(18) 0.4553(2)
H9_20 H 0.201682 0.126280 0.454099
C20_20 C 0.0192(3) 0.1858(3) 0.4678(3)
C21_20 C 0.05037(14) 0.1908(2) 0.4627(2)
C22_20 C 0.06031(17) 0.21952(16) 0.4631(2)
H10_20 H 0.046732 0.235193 0.463980
C23_20 C 0.09011(19) 0.22528(13) 0.4622(2)
H11_20 H 0.096903 0.244891 0.462393
C24_20 C 0.10998(14) 0.20235(18) 0.4609(2)
C25_20 C 0.10004(18) 0.17365(15) 0.4605(2)
C26_20 C 0.0702(2) 0.16789(14) 0.4614(2)
H12_20 H 0.063445 0.148277 0.461204
C27_20 C 0.4051(4) 0.3314(3) 0.5191(3)
C28_20 C 0.1651(3) 0.0830(4) 0.4583(2)
C29_20 C 0.1961(2) 0.27507(19) 0.4646(3)
C30_20 C 0.1761(2) 0.2692(2) 0.4867(2)
H13_20 H 0.175078 0.281673 0.503257
C31_20 C 0.1577(2) 0.2452(2) 0.4846(2)
H14_20 H 0.144093 0.241165 0.499674
C32_20 C 0.1593(2) 0.22695(18) 0.4603(3)
C33_20 C 0.1793(2) 0.2328(2) 0.4382(2)
H15_20 H 0.180334 0.220348 0.421607
C34_20 C 0.1977(2) 0.2569(2) 0.4403(2)
H16_20 H 0.211319 0.260856 0.425189
C35_20 C 0.2680(3) 0.3343(3) 0.4777(3)
C36_20 C 0.2688(3) 0.3136(3) 0.4556(3)
H17_20 H 0.284288 0.313737 0.441781
C37_20 C 0.2470(3) 0.2925(3) 0.4537(3)
H18_20 H 0.247561 0.278317 0.438563
C38_20 C 0.2243(3) 0.2923(3) 0.4739(3)
C39_20 C 0.2235(3) 0.3131(3) 0.4960(3)
H19_20 H 0.207986 0.312876 0.509843
C40_20 C 0.2453(3) 0.3341(3) 0.4979(3)
H20_20 H 0.244712 0.348296 0.513061
O2_20 O 0.9990(3) 0.2084(2) 0.4643(2)
O9_20 O 0.9507(2) 0.24830(18) 0.4568(2)
O10_20 O 0.9781(2) 0.10432(18) 0.4866(2)
O13_16 O 0.97528(16) 0.16213(19) 0.51986(16)
O14_16 O 0.96091(17) 0.20993(17) 0.5081(2)
H21_20 H 0.960579 0.261169 0.471204
H22_20 H 0.929361 0.25221 0.457049
H23_20 H 0.987405 0.0949152 0.469405
H24_20 H 0.959544 0.0940964 0.491275
O2_21 O 0.0357(2) 0.0010(3) 0.7084(2)
O9_21 O 0.0432(2) 0.0493(2) 0.74830(18)
O10_21 O 0.0134(2) 0.0219(2) 0.60432(18)
O11_11 O 0.01646(14) 0.07462(16) 0.64728(17)
O12_11 O 0.02802(18) 0.08445(19) 0.6950(2)
H21_21 H 0.0287956 0.0394214 0.761169
H22_21 H 0.0429508 0.0706388 0.75221
H23_21 H 0.0305948 0.0125951 0.594915
H24_21 H 0.00872484 0.0404557 0.594096
O1_21 O 0.03040(14) 0.98912(16) 0.65877(17)
N1_21 N 0.0116(3) 0.7071(2) 0.8538(2)
N2_21 N 0.0441(3) 0.8592(2) 0.7024(2)
C1_21 C 0.0293(3) 0.6926(4) 0.9735(3)
C2_21 C 0.02698(17) 0.69497(18) 0.94159(12)
C3_21 C 0.01684(15) 0.67325(13) 0.92295(17)
H1_21 H 0.013609 0.654055 0.930172
C4_21 C 0.01142(17) 0.67960(16) 0.89375(16)
C5_21 C 0.0161(2) 0.70768(18) 0.88319(13)
C6_21 C 0.0263(2) 0.72940(13) 0.90183(18)
H2_21 H 0.029511 0.748595 0.894613
C7_21 C 0.03170(19) 0.72305(15) 0.93103(16)
H3_21 H 0.038631 0.737903 0.943768
C10_21 C 0.00242(19) 0.66293(18) 0.86834(14)
C11_21 C 0.0015(2) 0.68223(14) 0.84491(18)
C14_21 C 0.04322(18) 0.84121(19) 0.61460(13)
C15_21 C 0.04151(17) 0.86951(16) 0.62548(15)
H7_21 H 0.040482 0.885610 0.612422
C16_21 C 0.04131(19) 0.87426(14) 0.65548(16)
C17_21 C 0.0428(2) 0.85071(18) 0.67459(12)
C18_21 C 0.0445(2) 0.82241(15) 0.66371(17)
H8_21 H 0.045561 0.806314 0.676775
C19_21 C 0.0447(2) 0.81766(14) 0.63372(18)
H9_21 H 0.045901 0.798318 0.626280
C20_21 C 0.0322(3) 0.9808(3) 0.6858(3)
C21_21 C 0.0373(2) 0.94963(14) 0.6908(2)
C22_21 C 0.0369(2) 0.93969(17) 0.71952(16)
H10_21 H 0.036020 0.953268 0.735193
C23_21 C 0.0378(2) 0.90989(19) 0.72528(13)
H11_21 H 0.037607 0.903097 0.744891
C24_21 C 0.0391(2) 0.89002(14) 0.70235(18)
C25_21 C 0.0395(2) 0.89996(18) 0.67365(15)
C26_21 C 0.0386(2) 0.9298(2) 0.66789(14)
H12_21 H 0.038796 0.936555 0.648277
C28_21 C 0.0417(2) 0.8349(3) 0.5830(4)
C29_21 C 0.0354(3) 0.8039(2) 0.77507(19)
C30_21 C 0.0133(2) 0.8239(2) 0.7692(2)
C31_21 C 0.0154(2) 0.8423(2) 0.7452(2)
H14_21 H 0.000326 0.855907 0.741165
C32_21 C 0.0397(3) 0.8407(2) 0.72695(18)
C33_21 C 0.0618(2) 0.8207(2) 0.7328(2)
H15_21 H 0.078393 0.819666 0.720348
C34_21 C 0.0597(2) 0.8023(2) 0.7569(2)
H16_21 H 0.074811 0.788681 0.760856
C35_21 C 0.0223(3) 0.7320(3) 0.8343(3)
C36_21 C 0.0444(3) 0.7312(3) 0.8136(3)
H17_21 H 0.058219 0.715712 0.813737
C37_21 C 0.0463(3) 0.7530(3) 0.7925(3)
H18_21 H 0.061437 0.752439 0.778317
C38_21 C 0.0261(3) 0.7757(3) 0.7923(3)
C39_21 C 0.0040(3) 0.7765(3) 0.8131(3)
C40_21 C 0.0021(3) 0.7547(3) 0.8341(3)
O3_11 O 0.98354(14) 0.57462(16) 0.85272(17)
O4_11 O 0.97198(18) 0.58445(19) 0.8050(2)
C8_21 C 0.9877(2) 0.62367(14) 0.8366(2)
C9_21 C 0.99552(18) 0.63364(16) 0.86417(17)
H4_21 H 0.996156 0.620453 0.880184
C12_21 C 0.9937(2) 0.67225(18) 0.81731(15)
H5_21 H 0.993040 0.685439 0.801302
C13_21 C 0.9868(2) 0.64297(19) 0.81315(15)
H6_21 H 0.981430 0.636146 0.794287
C27_21 C 0.9809(3) 0.5949(4) 0.8314(3)
H13_21 H 0.996743 0.824922 0.781673
H19_21 H 0.990157 0.792014 0.812876
H20_21 H 0.986939 0.755288 0.848296
C8_22 C 0.0123(2) 0.12367(14) 0.6634(2)
C9_22 C 0.00448(18) 0.13364(16) 0.63583(17)
H4_22 H 0.003844 0.120453 0.619816
C12_22 C 0.0063(2) 0.17225(18) 0.68269(15)
H5_22 H 0.006960 0.185439 0.698698
C13_22 C 0.0132(2) 0.14297(19) 0.68685(15)
H6_22 H 0.018570 0.136146 0.705713
C27_22 C 0.0191(3) 0.0949(4) 0.6686(3)
H13_22 H 0.003257 0.324922 0.718327
H19_22 H 0.009843 0.292014 0.687124
H20_22 H 0.013061 0.255288 0.651704
O1_22 O 0.96960(14) 0.48912(16) 0.84123(17)
O2_22 O 0.9643(2) 0.5010(3) 0.7916(2)
O9_22 O 0.9568(2) 0.5493(2) 0.75170(18)
O10_22 O 0.9866(2) 0.5219(2) 0.89568(18)
N1_22 N 0.9884(3) 0.2071(2) 0.6462(2)
N2_22 N 0.9559(3) 0.3592(2) 0.7976(2)
C1_22 C 0.9707(3) 0.1926(4) 0.5265(3)
C2_22 C 0.97302(17) 0.19497(18) 0.55841(12)
C3_22 C 0.98316(15) 0.17325(13) 0.57705(17)
H1_22 H 0.986391 0.154055 0.569828
C4_22 C 0.98858(17) 0.17960(16) 0.60625(16)
C5_22 C 0.9839(2) 0.20768(18) 0.61681(13)
C6_22 C 0.9737(2) 0.22940(13) 0.59817(18)
H2_22 H 0.970489 0.248595 0.605387
C7_22 C 0.96830(19) 0.22305(15) 0.56897(16)
H3_22 H 0.961369 0.237903 0.556232
C10_22 C 0.99758(19) 0.16293(18) 0.63166(14)
C11_22 C 0.9985(2) 0.18223(14) 0.65509(18)
C14_22 C 0.95678(18) 0.34121(19) 0.88540(13)
C15_22 C 0.95849(17) 0.36951(16) 0.87452(15)
H7_22 H 0.959518 0.385610 0.887578
C16_22 C 0.95869(19) 0.37426(14) 0.84452(16)
C17_22 C 0.9572(2) 0.35071(18) 0.82541(12)
C18_22 C 0.9555(2) 0.32241(15) 0.83629(17)
H8_22 H 0.954439 0.306314 0.823225
C19_22 C 0.9553(2) 0.31766(14) 0.86628(18)
H9_22 H 0.954099 0.298318 0.873720
C20_22 C 0.9678(3) 0.4808(3) 0.8142(3)
C21_22 C 0.9627(2) 0.44963(14) 0.8092(2)
C22_22 C 0.9631(2) 0.43969(17) 0.78048(16)
H10_22 H 0.963980 0.453268 0.764807
C23_22 C 0.9622(2) 0.40989(19) 0.77472(13)
H11_22 H 0.962393 0.403097 0.755109
C24_22 C 0.9609(2) 0.39002(14) 0.79765(18)
C25_22 C 0.9605(2) 0.39996(18) 0.82635(15)
C26_22 C 0.9614(2) 0.4298(2) 0.83211(14)
H12_22 H 0.961204 0.436555 0.851723
C28_22 C 0.9583(2) 0.3349(3) 0.9170(4)
C29_22 C 0.9646(3) 0.3039(2) 0.72493(19)
C30_22 C 0.9867(2) 0.3239(2) 0.7308(2)
C31_22 C 0.9846(2) 0.3423(2) 0.7548(2)
H14_22 H 0.999674 0.355907 0.758835
C32_22 C 0.9603(3) 0.3407(2) 0.77305(18)
C33_22 C 0.9382(2) 0.3207(2) 0.7672(2)
H15_22 H 0.921607 0.319666 0.779652
C34_22 C 0.9403(2) 0.3023(2) 0.7431(2)
H16_22 H 0.925189 0.288681 0.739144
C35_22 C 0.9777(3) 0.2320(3) 0.6657(3)
C36_22 C 0.9556(3) 0.2312(3) 0.6864(3)
H17_22 H 0.941781 0.215712 0.686263
C37_22 C 0.9537(3) 0.2530(3) 0.7075(3)
H18_22 H 0.938563 0.252439 0.721683
C38_22 C 0.9739(3) 0.2757(3) 0.7077(3)
C39_22 C 0.9960(3) 0.2765(3) 0.6869(3)
C40_22 C 0.9979(3) 0.2547(3) 0.6659(3)
H21_22 H 0.971204 0.539421 0.738831
H22_22 H 0.957049 0.570639 0.74779
H23_22 H 0.969405 0.512595 0.905085
H24_22 H 0.991275 0.540456 0.905904
O1_23 O 0.53040(14) 0.51088(16) 0.34123(17)
O2_23 O 0.5357(2) 0.4990(3) 0.2916(2)
O3_12 O 0.48354(14) 0.92538(16) 0.14728(17)
O4_12 O 0.47198(18) 0.91555(19) 0.1950(2)
O9_23 O 0.5432(2) 0.4507(2) 0.25170(18)
O10_23 O 0.5134(2) 0.4781(2) 0.39568(18)
N1_23 N 0.5116(3) 0.7929(2) 0.1462(2)
N2_23 N 0.5441(3) 0.6408(2) 0.2976(2)
C1_23 C 0.5293(3) 0.8074(4) 0.0265(3)
C2_23 C 0.52698(17) 0.80503(18) 0.05841(12)
C3_23 C 0.51684(15) 0.82675(13) 0.07705(17)
H1_23 H 0.513609 0.845945 0.069828
C4_23 C 0.51142(17) 0.82040(16) 0.10625(16)
C5_23 C 0.5161(2) 0.79232(18) 0.11681(13)
C6_23 C 0.5263(2) 0.77060(13) 0.09817(18)
H2_23 H 0.529511 0.751405 0.105387
C7_23 C 0.53170(19) 0.77695(15) 0.06897(16)
H3_23 H 0.538631 0.762097 0.056232
C8_23 C 0.4877(2) 0.87633(14) 0.1634(2)
C9_23 C 0.49552(18) 0.86636(16) 0.13583(17)
H4_23 H 0.496156 0.879547 0.119816
C10_23 C 0.50242(19) 0.83707(18) 0.13166(14)
C11_23 C 0.5015(2) 0.81777(14) 0.15509(18)
C12_23 C 0.4937(2) 0.82775(18) 0.18269(15)
H5_23 H 0.493040 0.814561 0.198698
C13_23 C 0.4868(2) 0.85703(19) 0.18685(15)
H6_23 H 0.481430 0.863854 0.205713
C14_23 C 0.54322(18) 0.65879(19) 0.38540(13)
C15_23 C 0.54151(17) 0.63049(16) 0.37452(15)
H7_23 H 0.540482 0.614390 0.387578
C16_23 C 0.54131(19) 0.62574(14) 0.34452(16)
C17_23 C 0.5428(2) 0.64929(18) 0.32541(12)
C18_23 C 0.5445(2) 0.67759(15) 0.33629(17)
H8_23 H 0.545561 0.693686 0.323225
C19_23 C 0.5447(2) 0.68234(14) 0.36628(18)
H9_23 H 0.545901 0.701682 0.373720
C20_23 C 0.5322(3) 0.5192(3) 0.3142(3)
C21_23 C 0.5373(2) 0.55037(14) 0.3092(2)
C22_23 C 0.5369(2) 0.56031(17) 0.28048(16)
H10_23 H 0.536020 0.546732 0.264807
C23_23 C 0.5378(2) 0.59011(19) 0.27472(13)
H11_23 H 0.537607 0.596903 0.255109
C24_23 C 0.5391(2) 0.60998(14) 0.29765(18)
C25_23 C 0.5395(2) 0.60004(18) 0.32635(15)
C26_23 C 0.5386(2) 0.5702(2) 0.33211(14)
H12_23 H 0.538796 0.563445 0.351723
C27_23 C 0.4809(3) 0.9051(4) 0.1686(3)
C28_23 C 0.5417(2) 0.6651(3) 0.4170(4)
C29_23 C 0.5354(3) 0.6961(2) 0.22493(19)
C30_23 C 0.5133(2) 0.6761(2) 0.2308(2)
H13_23 H 0.496743 0.675078 0.218327
C31_23 C 0.5154(2) 0.6577(2) 0.2548(2)
H14_23 H 0.500326 0.644093 0.258835
C32_23 C 0.5397(3) 0.6593(2) 0.27305(18)
C33_23 C 0.5618(2) 0.6793(2) 0.2672(2)
H15_23 H 0.578393 0.680334 0.279652
C34_23 C 0.5597(2) 0.6977(2) 0.2431(2)
H16_23 H 0.574811 0.711319 0.239144
C35_23 C 0.5223(3) 0.7680(3) 0.1657(3)
C36_23 C 0.5444(3) 0.7688(3) 0.1864(3)
H17_23 H 0.558219 0.784288 0.186263
C37_23 C 0.5463(3) 0.7470(3) 0.2075(3)
H18_23 H 0.561437 0.747561 0.221683
C38_23 C 0.5261(3) 0.7243(3) 0.2077(3)
C39_23 C 0.5040(3) 0.7235(3) 0.1869(3)
H19_23 H 0.490157 0.707986 0.187124
C40_23 C 0.5021(3) 0.7453(3) 0.1659(3)
H20_23 H 0.486939 0.744712 0.151704
O11_12 O 0.51646(14) 0.42538(16) 0.35272(17)
O12_12 O 0.52802(18) 0.41555(19) 0.3050(2)
H21_23 H 0.528796 0.460579 0.238831
H22_23 H 0.542951 0.429361 0.24779
H23_23 H 0.530595 0.487405 0.405085
H24_23 H 0.508725 0.459544 0.405904
O1_24 O 0.46960(14) 0.01088(16) 0.15877(17)
N1_24 N 0.4884(3) 0.2929(2) 0.3538(2)
N2_24 N 0.4559(3) 0.1408(2) 0.2024(2)
C1_24 C 0.4707(3) 0.3074(4) 0.4735(3)
C2_24 C 0.47302(17) 0.30503(18) 0.44159(12)
C3_24 C 0.48316(15) 0.32675(13) 0.42295(17)
H1_24 H 0.486391 0.345945 0.430172
C4_24 C 0.48858(17) 0.32040(16) 0.39375(16)
C5_24 C 0.4839(2) 0.29232(18) 0.38319(13)
C6_24 C 0.4737(2) 0.27060(13) 0.40183(18)
H2_24 H 0.470489 0.251405 0.394613
C7_24 C 0.46830(19) 0.27695(15) 0.43103(16)
H3_24 H 0.461369 0.262097 0.443768
C8_24 C 0.5123(2) 0.37633(14) 0.3366(2)
C9_24 C 0.50448(18) 0.36636(16) 0.36417(17)
H4_24 H 0.503844 0.379547 0.380184
C10_24 C 0.49758(19) 0.33707(18) 0.36834(14)
C11_24 C 0.4985(2) 0.31777(14) 0.34491(18)
C12_24 C 0.5063(2) 0.32775(18) 0.31731(15)
H5_24 H 0.506960 0.314561 0.301302
C13_24 C 0.5132(2) 0.35703(19) 0.31315(15)
H6_24 H 0.518570 0.363854 0.294287
C14_24 C 0.45678(18) 0.15879(19) 0.11460(13)
C15_24 C 0.45849(17) 0.13049(16) 0.12548(15)
H7_24 H 0.459518 0.114390 0.112422
C16_24 C 0.45869(19) 0.12574(14) 0.15548(16)
C17_24 C 0.4572(2) 0.14929(18) 0.17459(12)
C18_24 C 0.4555(2) 0.17759(15) 0.16371(17)
H8_24 H 0.454439 0.193686 0.176775
C19_24 C 0.4553(2) 0.18234(14) 0.13372(18)
H9_24 H 0.454099 0.201682 0.126280
C20_24 C 0.4678(3) 0.0192(3) 0.1858(3)
C21_24 C 0.4627(2) 0.05037(14) 0.1908(2)
C22_24 C 0.4631(2) 0.06031(17) 0.21952(16)
H10_24 H 0.463980 0.046732 0.235193
C23_24 C 0.4622(2) 0.09011(19) 0.22528(13)
H11_24 H 0.462393 0.096903 0.244891
C24_24 C 0.4609(2) 0.10998(14) 0.20235(18)
C25_24 C 0.4605(2) 0.10004(18) 0.17365(15)
C26_24 C 0.4614(2) 0.0702(2) 0.16789(14)
H12_24 H 0.461204 0.063445 0.148277
C27_24 C 0.5191(3) 0.4051(4) 0.3314(3)
C28_24 C 0.4583(2) 0.1651(3) 0.0830(4)
C29_24 C 0.4646(3) 0.1961(2) 0.27507(19)
C30_24 C 0.4867(2) 0.1761(2) 0.2692(2)
H13_24 H 0.503257 0.175078 0.281673
C31_24 C 0.4846(2) 0.1577(2) 0.2452(2)
H14_24 H 0.499674 0.144093 0.241165
C32_24 C 0.4603(3) 0.1593(2) 0.22695(18)
C33_24 C 0.4382(2) 0.1793(2) 0.2328(2)
H15_24 H 0.421607 0.180334 0.220348
C34_24 C 0.4403(2) 0.1977(2) 0.2569(2)
H16_24 H 0.425189 0.211319 0.260856
C35_24 C 0.4777(3) 0.2680(3) 0.3343(3)
C36_24 C 0.4556(3) 0.2688(3) 0.3136(3)
H17_24 H 0.441781 0.284288 0.313737
C37_24 C 0.4537(3) 0.2470(3) 0.2925(3)
H18_24 H 0.438563 0.247561 0.278317
C38_24 C 0.4739(3) 0.2243(3) 0.2923(3)
C39_24 C 0.4960(3) 0.2235(3) 0.3131(3)
H19_24 H 0.509843 0.207986 0.312876
C40_24 C 0.4979(3) 0.2453(3) 0.3341(3)
H20_24 H 0.513061 0.244712 0.348296
O2_24 O 0.4643(2) 0.9990(3) 0.2084(2)
O9_24 O 0.4568(2) 0.9507(2) 0.24830(18)
O10_24 O 0.4866(2) 0.9781(2) 0.10432(18)
H21_24 H 0.471204 0.960579 0.261169
H22_24 H 0.457049 0.929361 0.25221
H23_24 H 0.469405 0.987405 0.0949152
H24_24 H 0.491275 0.959544 0.0940964
loop_
_geom_bond_atom_site_label_1
_geom_bond_atom_site_label_2
_geom_bond_site_symmetry_1
_geom_bond_site_symmetry_2
O3 C27 1_555 1_555
O4 C27 1_555 1_555
C8 C9 1_555 1_555
C9 H4 1_555 1_555
H5 C12 1_555 1_555
C13 C8 1_555 1_555
H6 C13 1_555 1_555
C27 C8 1_555 1_555
Fe3 O3 1_555 1_555
Fe6 O4 1_555 1_555
C12 C13 1_555 1_555
O1 C20 1_555 1_555
O5 C1 1_555 1_555
O6 C1 1_555 1_555
O7 C28 1_555 1_555
O8 C28 1_555 1_555
N1 C5 1_555 1_555
N2 C17 1_555 1_555
C1 C2 1_555 1_555
C2 C3 1_555 1_555
C3 H1 1_555 1_555
C4 C3 1_555 1_555
C5 C4 1_555 1_555
C6 C5 1_555 1_555
H2 C6 1_555 1_555
C7 C2 1_555 1_555
H3 C7 1_555 1_555
C10 C4 1_555 1_555
C11 N1 1_555 1_555
C14 C15 1_555 1_555
C15 H7 1_555 1_555
C16 C15 1_555 1_555
C17 C16 1_555 1_555
C18 C17 1_555 1_555
H8 C18 1_555 1_555
C19 C14 1_555 1_555
H9 C19 1_555 1_555
C20 C21 1_555 1_555
C21 C22 1_555 1_555
C22 H10 1_555 1_555
C23 C22 1_555 1_555
H11 C23 1_555 1_555
C24 N2 1_555 1_555
C25 C16 1_555 1_555
C26 C21 1_555 1_555
H12 C26 1_555 1_555
C28 C14 1_555 1_555
C29 C30 1_555 1_555
C31 C30 1_555 1_555
H14 C31 1_555 1_555
C32 N2 1_555 1_555
C33 C32 1_555 1_555
H15 C33 1_555 1_555
C34 C29 1_555 1_555
H16 C34 1_555 1_555
C35 N1 1_555 1_555
C36 C35 1_555 1_555
H17 C36 1_555 1_555
C37 C36 1_555 1_555
H18 C37 1_555 1_555
C38 C29 1_555 1_555
C39 C38 1_555 1_555
C40 C35 1_555 1_555
Fe5 O7 1_555 1_555
Fe8 O8 1_555 1_555
C6 C7 1_555 1_555
C10 C11 1_555 1_555
C18 C19 1_555 1_555
C23 C24 1_555 1_555
C24 C25 1_555 1_555
C25 C26 1_555 1_555
C31 C32 1_555 1_555
C33 C34 1_555 1_555
C37 C38 1_555 1_555
C39 C40 1_555 1_555
Fe2 O2 1_555 1_555
O9 Fe2 1_555 1_555
O10 Fe1 1_555 1_555
O11 Fe1 1_555 1_555
O12 Fe2 1_555 1_555
O15 Fe1 1_555 1_555
O16 Fe2 1_555 1_555
O9 H21 1_555 1_555
O9 H22 1_555 1_555
O10 H23 1_555 1_555
O10 H24 1_555 1_555
Fe3 O1_2 1_555 1_555
Fe6 O2_2 1_555 1_555
O1_2 C20_2 1_555 1_555
O2_2 C20_2 1_555 1_555
O5_2 C1_2 1_555 1_555
O6_2 C1_2 1_555 1_555
O7_2 C28_2 1_555 1_555
O8_2 C28_2 1_555 1_555
O9_2 Fe6 1_555 1_555
O10_2 Fe3 1_555 1_555
N1_2 C5_2 1_555 1_555
N2_2 C17_2 1_555 1_555
C1_2 C2_2 1_555 1_555
C2_2 C3_2 1_555 1_555
C3_2 H1_2 1_555 1_555
C4_2 C3_2 1_555 1_555
C5_2 C4_2 1_555 1_555
C6_2 C5_2 1_555 1_555
H2_2 C6_2 1_555 1_555
C7_2 C2_2 1_555 1_555
H3_2 C7_2 1_555 1_555
C10_2 C4_2 1_555 1_555
C11_2 N1_2 1_555 1_555
C14_2 C15_2 1_555 1_555
C15_2 H7_2 1_555 1_555
C16_2 C15_2 1_555 1_555
C17_2 C16_2 1_555 1_555
C18_2 C17_2 1_555 1_555
H8_2 C18_2 1_555 1_555
C19_2 C14_2 1_555 1_555
H9_2 C19_2 1_555 1_555
C20_2 C21_2 1_555 1_555
C21_2 C22_2 1_555 1_555
C22_2 H10_2 1_555 1_555
C23_2 C22_2 1_555 1_555
H11_2 C23_2 1_555 1_555
C24_2 N2_2 1_555 1_555
C25_2 C16_2 1_555 1_555
C26_2 C21_2 1_555 1_555
H12_2 C26_2 1_555 1_555
C28_2 C14_2 1_555 1_555
C29_2 C30_2 1_555 1_555
C31_2 C30_2 1_555 1_555
H14_2 C31_2 1_555 1_555
C32_2 N2_2 1_555 1_555
C33_2 C32_2 1_555 1_555
H15_2 C33_2 1_555 1_555
C34_2 C29_2 1_555 1_555
H16_2 C34_2 1_555 1_555
C35_2 N1_2 1_555 1_555
C36_2 C35_2 1_555 1_555
H17_2 C36_2 1_555 1_555
C37_2 C36_2 1_555 1_555
H18_2 C37_2 1_555 1_555
C38_2 C29_2 1_555 1_555
C39_2 C38_2 1_555 1_555
C40_2 C35_2 1_555 1_555
Fe4_2 O5_2 1_555 1_555
Fe5_2 O7_2 1_555 1_555
Fe7_2 O6_2 1_555 1_555
Fe8_2 O8_2 1_555 1_555
O15_2 Fe3 1_555 1_555
O16_2 Fe6 1_555 1_555
C6_2 C7_2 1_555 1_555
C10_2 C11_2 1_555 1_555
C18_2 C19_2 1_555 1_555
C23_2 C24_2 1_555 1_555
C24_2 C25_2 1_555 1_555
C25_2 C26_2 1_555 1_555
C31_2 C32_2 1_555 1_555
C33_2 C34_2 1_555 1_555
C37_2 C38_2 1_555 1_555
C39_2 C40_2 1_555 1_555
O9_2 H21_2 1_555 1_555
O9_2 H22_2 1_555 1_555
O10_2 H23_2 1_555 1_555
O10_2 H24_2 1_555 1_555
O11 C27_2 1_555 1_555
O12 C27_2 1_555 1_555
C8_2 C9_2 1_555 1_555
C9_2 H4_2 1_555 1_555
H5_2 C12_2 1_555 1_555
C13_2 C8_2 1_555 1_555
H6_2 C13_2 1_555 1_555
C27_2 C8_2 1_555 1_555
C12_2 C13_2 1_555 1_555
Fe1_2 O1_3 1_555 1_555
Fe2_2 O2_3 1_555 1_555
O1_3 C20_3 1_555 1_555
O2_3 C20_3 1_555 1_555
O3_2 C27_3 1_555 1_555
O4_2 C27_3 1_555 1_555
O5_3 C1_3 1_555 1_555
O6_3 C1_3 1_555 1_555
O7_3 C28_3 1_555 1_555
O8_3 C28_3 1_555 1_555
O9_3 Fe2_2 1_555 1_555
O10_3 Fe1_2 1_555 1_555
N1_3 C5_3 1_555 1_555
N2_3 C17_3 1_555 1_555
C1_3 C2_3 1_555 1_555
C2_3 C3_3 1_555 1_555
C3_3 H1_3 1_555 1_555
C4_3 C3_3 1_555 1_555
C5_3 C4_3 1_555 1_555
C6_3 C5_3 1_555 1_555
H2_3 C6_3 1_555 1_555
C7_3 C2_3 1_555 1_555
H3_3 C7_3 1_555 1_555
C8_3 C9_3 1_555 1_555
C9_3 H4_3 1_555 1_555
C10_3 C4_3 1_555 1_555
C11_3 N1_3 1_555 1_555
C12_3 C11_3 1_555 1_555
H5_3 C12_3 1_555 1_555
C13_3 C8_3 1_555 1_555
H6_3 C13_3 1_555 1_555
C14_3 C15_3 1_555 1_555
C15_3 H7_3 1_555 1_555
C16_3 C15_3 1_555 1_555
C17_3 C16_3 1_555 1_555
C18_3 C17_3 1_555 1_555
H8_3 C18_3 1_555 1_555
C19_3 C14_3 1_555 1_555
H9_3 C19_3 1_555 1_555
C20_3 C21_3 1_555 1_555
C21_3 C22_3 1_555 1_555
C22_3 H10_3 1_555 1_555
C23_3 C22_3 1_555 1_555
H11_3 C23_3 1_555 1_555
C24_3 N2_3 1_555 1_555
C25_3 C16_3 1_555 1_555
C26_3 C21_3 1_555 1_555
H12_3 C26_3 1_555 1_555
C27_3 C8_3 1_555 1_555
C28_3 C14_3 1_555 1_555
C29_3 C30_3 1_555 1_555
C30_3 H13_3 1_555 1_555
C31_3 C30_3 1_555 1_555
H14_3 C31_3 1_555 1_555
C32_3 N2_3 1_555 1_555
C33_3 C32_3 1_555 1_555
H15_3 C33_3 1_555 1_555
C34_3 C29_3 1_555 1_555
H16_3 C34_3 1_555 1_555
C35_3 N1_3 1_555 1_555
C36_3 C35_3 1_555 1_555
H17_3 C36_3 1_555 1_555
C37_3 C36_3 1_555 1_555
H18_3 C37_3 1_555 1_555
C38_3 C29_3 1_555 1_555
C39_3 C38_3 1_555 1_555
H19_3 C39_3 1_555 1_555
C40_3 C35_3 1_555 1_555
H20_3 C40_3 1_555 1_555
Fe3_2 O3_2 1_555 1_555
Fe5_3 O7_3 1_555 1_555
Fe6_2 O4_2 1_555 1_555
Fe8_3 O8_3 1_555 1_555
O11_2 Fe1_2 1_555 1_555
O12_2 Fe2_2 1_555 1_555
O13_3 Fe1_2 1_555 1_555
O14_3 Fe2_2 1_555 1_555
O15_3 Fe1_2 1_555 1_555
O16_3 Fe2_2 1_555 1_555
C6_3 C7_3 1_555 1_555
C9_3 C10_3 1_555 1_555
C10_3 C11_3 1_555 1_555
C12_3 C13_3 1_555 1_555
C18_3 C19_3 1_555 1_555
C23_3 C24_3 1_555 1_555
C24_3 C25_3 1_555 1_555
C25_3 C26_3 1_555 1_555
C31_3 C32_3 1_555 1_555
C33_3 C34_3 1_555 1_555
C37_3 C38_3 1_555 1_555
C39_3 C40_3 1_555 1_555
O9_3 H21_3 1_555 1_555
O9_3 H22_3 1_555 1_555
O10_3 H23_3 1_555 1_555
O10_3 H24_3 1_555 1_555
Fe6_2 O2_4 1_555 1_555
O9_4 Fe6_2 1_555 1_555
O10_4 Fe3_2 1_555 1_555
O13_4 Fe3_2 1_555 1_555
O14_4 Fe6_2 1_555 1_555
O15_4 Fe3_2 1_555 1_555
O16_4 Fe6_2 1_555 1_555
O9_4 H21_4 1_555 1_555
O9_4 H22_4 1_555 1_555
O10_4 H23_4 1_555 1_555
O10_4 H24_4 1_555 1_555
O1_4 C20_4 1_555 1_555
O11_2 C27_4 1_555 1_555
O12_2 C27_4 1_555 1_555
O5_4 C1_4 1_555 1_555
O6_4 C1_4 1_555 1_555
O7_4 C28_4 1_555 1_555
O8_4 C28_4 1_555 1_555
N1_4 C5_4 1_555 1_555
N2_4 C17_4 1_555 1_555
C1_4 C2_4 1_555 1_555
C2_4 C3_4 1_555 1_555
C3_4 H1_4 1_555 1_555
C4_4 C3_4 1_555 1_555
C5_4 C4_4 1_555 1_555
C6_4 C5_4 1_555 1_555
H2_4 C6_4 1_555 1_555
C7_4 C2_4 1_555 1_555
H3_4 C7_4 1_555 1_555
C8_4 C9_4 1_555 1_555
C9_4 H4_4 1_555 1_555
C10_4 C4_4 1_555 1_555
C11_4 N1_4 1_555 1_555
C12_4 C11_4 1_555 1_555
H5_4 C12_4 1_555 1_555
C13_4 C8_4 1_555 1_555
H6_4 C13_4 1_555 1_555
C14_4 C15_4 1_555 1_555
C15_4 H7_4 1_555 1_555
C16_4 C15_4 1_555 1_555
C17_4 C16_4 1_555 1_555
C18_4 C17_4 1_555 1_555
H8_4 C18_4 1_555 1_555
C19_4 C14_4 1_555 1_555
H9_4 C19_4 1_555 1_555
C20_4 C21_4 1_555 1_555
C21_4 C22_4 1_555 1_555
C22_4 H10_4 1_555 1_555
C23_4 C22_4 1_555 1_555
H11_4 C23_4 1_555 1_555
C24_4 N2_4 1_555 1_555
C25_4 C16_4 1_555 1_555
C26_4 C21_4 1_555 1_555
H12_4 C26_4 1_555 1_555
C27_4 C8_4 1_555 1_555
C28_4 C14_4 1_555 1_555
C29_4 C30_4 1_555 1_555
C30_4 H13_4 1_555 1_555
C31_4 C30_4 1_555 1_555
H14_4 C31_4 1_555 1_555
C32_4 N2_4 1_555 1_555
C33_4 C32_4 1_555 1_555
H15_4 C33_4 1_555 1_555
C34_4 C29_4 1_555 1_555
H16_4 C34_4 1_555 1_555
C35_4 N1_4 1_555 1_555
C36_4 C35_4 1_555 1_555
H17_4 C36_4 1_555 1_555
C37_4 C36_4 1_555 1_555
H18_4 C37_4 1_555 1_555
C38_4 C29_4 1_555 1_555
C39_4 C38_4 1_555 1_555
H19_4 C39_4 1_555 1_555
C40_4 C35_4 1_555 1_555
H20_4 C40_4 1_555 1_555
Fe4_4 O5_4 1_555 1_555
Fe5_4 O7_4 1_555 1_555
Fe7_4 O6_4 1_555 1_555
Fe8_4 O8_4 1_555 1_555
C6_4 C7_4 1_555 1_555
C9_4 C10_4 1_555 1_555
C10_4 C11_4 1_555 1_555
C12_4 C13_4 1_555 1_555
C18_4 C19_4 1_555 1_555
C23_4 C24_4 1_555 1_555
C24_4 C25_4 1_555 1_555
C25_4 C26_4 1_555 1_555
C31_4 C32_4 1_555 1_555
C33_4 C34_4 1_555 1_555
C37_4 C38_4 1_555 1_555
C39_4 C40_4 1_555 1_555
O3_3 C27_5 1_555 1_555
O4_3 C27_5 1_555 1_555
C8_5 C9_5 1_555 1_555
C9_5 H4_5 1_555 1_555
H5_5 C12_5 1_555 1_555
C13_5 C8_5 1_555 1_555
H6_5 C13_5 1_555 1_555
C27_5 C8_5 1_555 1_555
Fe3_3 O3_3 1_555 1_555
Fe6_3 O4_3 1_555 1_555
C12_5 C13_5 1_555 1_555
O1_5 C20_5 1_555 1_555
O13 C1_5 1_555 1_555
O14 C1_5 1_555 1_555
O7_5 C28_5 1_555 1_555
O8_5 C28_5 1_555 1_555
N1_5 C5_5 1_555 1_555
N2_5 C17_5 1_555 1_555
C1_5 C2_5 1_555 1_555
C2_5 C3_5 1_555 1_555
C3_5 H1_5 1_555 1_555
C4_5 C3_5 1_555 1_555
C5_5 C4_5 1_555 1_555
C6_5 C5_5 1_555 1_555
H2_5 C6_5 1_555 1_555
C7_5 C2_5 1_555 1_555
H3_5 C7_5 1_555 1_555
C10_5 C4_5 1_555 1_555
C11_5 N1_5 1_555 1_555
C14_5 C15_5 1_555 1_555
C15_5 H7_5 1_555 1_555
C16_5 C15_5 1_555 1_555
C17_5 C16_5 1_555 1_555
C18_5 C17_5 1_555 1_555
H8_5 C18_5 1_555 1_555
C19_5 C14_5 1_555 1_555
H9_5 C19_5 1_555 1_555
C20_5 C21_5 1_555 1_555
C21_5 C22_5 1_555 1_555
C22_5 H10_5 1_555 1_555
C23_5 C22_5 1_555 1_555
H11_5 C23_5 1_555 1_555
C24_5 N2_5 1_555 1_555
C25_5 C16_5 1_555 1_555
C26_5 C21_5 1_555 1_555
H12_5 C26_5 1_555 1_555
C28_5 C14_5 1_555 1_555
C29_5 C30_5 1_555 1_555
C31_5 C30_5 1_555 1_555
H14_5 C31_5 1_555 1_555
C32_5 N2_5 1_555 1_555
C33_5 C32_5 1_555 1_555
H15_5 C33_5 1_555 1_555
C34_5 C29_5 1_555 1_555
H16_5 C34_5 1_555 1_555
C35_5 N1_5 1_555 1_555
C36_5 C35_5 1_555 1_555
H17_5 C36_5 1_555 1_555
C37_5 C36_5 1_555 1_555
H18_5 C37_5 1_555 1_555
C38_5 C29_5 1_555 1_555
C39_5 C38_5 1_555 1_555
C40_5 C35_5 1_555 1_555
Fe5_5 O7_5 1_555 1_555
Fe8_5 O8_5 1_555 1_555
C6_5 C7_5 1_555 1_555
C10_5 C11_5 1_555 1_555
C18_5 C19_5 1_555 1_555
C23_5 C24_5 1_555 1_555
C24_5 C25_5 1_555 1_555
C25_5 C26_5 1_555 1_555
C31_5 C32_5 1_555 1_555
C33_5 C34_5 1_555 1_555
C37_5 C38_5 1_555 1_555
C39_5 C40_5 1_555 1_555
Fe2_3 O2_5 1_555 1_555
O9_5 Fe2_3 1_555 1_555
O10_5 Fe1_3 1_555 1_555
O11_3 Fe1_3 1_555 1_555
O12_3 Fe2_3 1_555 1_555
O15_5 Fe1_3 1_555 1_555
O16_5 Fe2_3 1_555 1_555
O9_5 H21_5 1_555 1_555
O9_5 H22_5 1_555 1_555
O10_5 H23_5 1_555 1_555
O10_5 H24_5 1_555 1_555
Fe3_3 O1_6 1_555 1_555
Fe6_3 O2_6 1_555 1_555
O1_6 C20_6 1_555 1_555
O2_6 C20_6 1_555 1_555
O13_4 C1_6 1_555 1_555
O14_4 C1_6 1_555 1_555
O7_6 C28_6 1_555 1_555
O8_6 C28_6 1_555 1_555
O9_6 Fe6_3 1_555 1_555
O10_6 Fe3_3 1_555 1_555
N1_6 C5_6 1_555 1_555
N2_6 C17_6 1_555 1_555
C1_6 C2_6 1_555 1_555
C2_6 C3_6 1_555 1_555
C3_6 H1_6 1_555 1_555
C4_6 C3_6 1_555 1_555
C5_6 C4_6 1_555 1_555
C6_6 C5_6 1_555 1_555
H2_6 C6_6 1_555 1_555
C7_6 C2_6 1_555 1_555
H3_6 C7_6 1_555 1_555
C10_6 C4_6 1_555 1_555
C11_6 N1_6 1_555 1_555
C14_6 C15_6 1_555 1_555
C15_6 H7_6 1_555 1_555
C16_6 C15_6 1_555 1_555
C17_6 C16_6 1_555 1_555
C18_6 C17_6 1_555 1_555
H8_6 C18_6 1_555 1_555
C19_6 C14_6 1_555 1_555
H9_6 C19_6 1_555 1_555
C20_6 C21_6 1_555 1_555
C21_6 C22_6 1_555 1_555
C22_6 H10_6 1_555 1_555
C23_6 C22_6 1_555 1_555
H11_6 C23_6 1_555 1_555
C24_6 N2_6 1_555 1_555
C25_6 C16_6 1_555 1_555
C26_6 C21_6 1_555 1_555
H12_6 C26_6 1_555 1_555
C28_6 C14_6 1_555 1_555
C29_6 C30_6 1_555 1_555
C31_6 C30_6 1_555 1_555
H14_6 C31_6 1_555 1_555
C32_6 N2_6 1_555 1_555
C33_6 C32_6 1_555 1_555
H15_6 C33_6 1_555 1_555
C34_6 C29_6 1_555 1_555
H16_6 C34_6 1_555 1_555
C35_6 N1_6 1_555 1_555
C36_6 C35_6 1_555 1_555
H17_6 C36_6 1_555 1_555
C37_6 C36_6 1_555 1_555
H18_6 C37_6 1_555 1_555
C38_6 C29_6 1_555 1_555
C39_6 C38_6 1_555 1_555
C40_6 C35_6 1_555 1_555
Fe5_6 O7_6 1_555 1_555
Fe8_6 O8_6 1_555 1_555
O15_6 Fe3_3 1_555 1_555
O16_6 Fe6_3 1_555 1_555
C6_6 C7_6 1_555 1_555
C10_6 C11_6 1_555 1_555
C18_6 C19_6 1_555 1_555
C23_6 C24_6 1_555 1_555
C24_6 C25_6 1_555 1_555
C25_6 C26_6 1_555 1_555
C31_6 C32_6 1_555 1_555
C33_6 C34_6 1_555 1_555
C37_6 C38_6 1_555 1_555
C39_6 C40_6 1_555 1_555
O9_6 H21_6 1_555 1_555
O9_6 H22_6 1_555 1_555
O10_6 H23_6 1_555 1_555
O10_6 H24_6 1_555 1_555
O11_3 C27_6 1_555 1_555
O12_3 C27_6 1_555 1_555
C8_6 C9_6 1_555 1_555
C9_6 H4_6 1_555 1_555
H5_6 C12_6 1_555 1_555
C13_6 C8_6 1_555 1_555
H6_6 C13_6 1_555 1_555
C27_6 C8_6 1_555 1_555
C12_6 C13_6 1_555 1_555
Fe1_4 O1_7 1_555 1_555
Fe2_4 O2_7 1_555 1_555
O1_7 C20_7 1_555 1_555
O2_7 C20_7 1_555 1_555
O3_4 C27_7 1_555 1_555
O4_4 C27_7 1_555 1_555
O13_2 C1_7 1_555 1_555
O14_2 C1_7 1_555 1_555
O7_7 C28_7 1_555 1_555
O8_7 C28_7 1_555 1_555
O9_7 Fe2_4 1_555 1_555
O10_7 Fe1_4 1_555 1_555
N1_7 C5_7 1_555 1_555
N2_7 C17_7 1_555 1_555
C1_7 C2_7 1_555 1_555
C2_7 C3_7 1_555 1_555
C3_7 H1_7 1_555 1_555
C4_7 C3_7 1_555 1_555
C5_7 C4_7 1_555 1_555
C6_7 C5_7 1_555 1_555
H2_7 C6_7 1_555 1_555
C7_7 C2_7 1_555 1_555
H3_7 C7_7 1_555 1_555
C8_7 C9_7 1_555 1_555
C9_7 H4_7 1_555 1_555
C10_7 C4_7 1_555 1_555
C11_7 N1_7 1_555 1_555
C12_7 C11_7 1_555 1_555
H5_7 C12_7 1_555 1_555
C13_7 C8_7 1_555 1_555
H6_7 C13_7 1_555 1_555
C14_7 C15_7 1_555 1_555
C15_7 H7_7 1_555 1_555
C16_7 C15_7 1_555 1_555
C17_7 C16_7 1_555 1_555
C18_7 C17_7 1_555 1_555
H8_7 C18_7 1_555 1_555
C19_7 C14_7 1_555 1_555
H9_7 C19_7 1_555 1_555
C20_7 C21_7 1_555 1_555
C21_7 C22_7 1_555 1_555
C22_7 H10_7 1_555 1_555
C23_7 C22_7 1_555 1_555
H11_7 C23_7 1_555 1_555
C24_7 N2_7 1_555 1_555
C25_7 C16_7 1_555 1_555
C26_7 C21_7 1_555 1_555
H12_7 C26_7 1_555 1_555
C27_7 C8_7 1_555 1_555
C28_7 C14_7 1_555 1_555
C29_7 C30_7 1_555 1_555
C30_7 H13_7 1_555 1_555
C31_7 C30_7 1_555 1_555
H14_7 C31_7 1_555 1_555
C32_7 N2_7 1_555 1_555
C33_7 C32_7 1_555 1_555
H15_7 C33_7 1_555 1_555
C34_7 C29_7 1_555 1_555
H16_7 C34_7 1_555 1_555
C35_7 N1_7 1_555 1_555
C36_7 C35_7 1_555 1_555
H17_7 C36_7 1_555 1_555
C37_7 C36_7 1_555 1_555
H18_7 C37_7 1_555 1_555
C38_7 C29_7 1_555 1_555
C39_7 C38_7 1_555 1_555
H19_7 C39_7 1_555 1_555
C40_7 C35_7 1_555 1_555
H20_7 C40_7 1_555 1_555
Fe3_4 O3_4 1_555 1_555
Fe5_7 O7_7 1_555 1_555
Fe6_4 O4_4 1_555 1_555
Fe8_7 O8_7 1_555 1_555
O11_4 Fe1_4 1_555 1_555
O12_4 Fe2_4 1_555 1_555
O13_7 Fe1_4 1_555 1_555
O14_7 Fe2_4 1_555 1_555
O15_7 Fe1_4 1_555 1_555
O16_7 Fe2_4 1_555 1_555
C6_7 C7_7 1_555 1_555
C9_7 C10_7 1_555 1_555
C10_7 C11_7 1_555 1_555
C12_7 C13_7 1_555 1_555
C18_7 C19_7 1_555 1_555
C23_7 C24_7 1_555 1_555
C24_7 C25_7 1_555 1_555
C25_7 C26_7 1_555 1_555
C31_7 C32_7 1_555 1_555
C33_7 C34_7 1_555 1_555
C37_7 C38_7 1_555 1_555
C39_7 C40_7 1_555 1_555
O9_7 H21_7 1_555 1_555
O9_7 H22_7 1_555 1_555
O10_7 H23_7 1_555 1_555
O10_7 H24_7 1_555 1_555
Fe6_4 O2_8 1_555 1_555
O9_8 Fe6_4 1_555 1_555
O10_8 Fe3_4 1_555 1_555
O13_8 Fe3_4 1_555 1_555
O14_8 Fe6_4 1_555 1_555
O15_8 Fe3_4 1_555 1_555
O16_8 Fe6_4 1_555 1_555
O9_8 H21_8 1_555 1_555
O9_8 H22_8 1_555 1_555
O10_8 H23_8 1_555 1_555
O10_8 H24_8 1_555 1_555
O1_8 C20_8 1_555 1_555
O11_4 C27_8 1_555 1_555
O12_4 C27_8 1_555 1_555
O13_3 C1_8 1_555 1_555
O14_3 C1_8 1_555 1_555
O7_8 C28_8 1_555 1_555
O8_8 C28_8 1_555 1_555
N1_8 C5_8 1_555 1_555
N2_8 C17_8 1_555 1_555
C1_8 C2_8 1_555 1_555
C2_8 C3_8 1_555 1_555
C3_8 H1_8 1_555 1_555
C4_8 C3_8 1_555 1_555
C5_8 C4_8 1_555 1_555
C6_8 C5_8 1_555 1_555
H2_8 C6_8 1_555 1_555
C7_8 C2_8 1_555 1_555
H3_8 C7_8 1_555 1_555
C8_8 C9_8 1_555 1_555
C9_8 H4_8 1_555 1_555
C10_8 C4_8 1_555 1_555
C11_8 N1_8 1_555 1_555
C12_8 C11_8 1_555 1_555
H5_8 C12_8 1_555 1_555
C13_8 C8_8 1_555 1_555
H6_8 C13_8 1_555 1_555
C14_8 C15_8 1_555 1_555
C15_8 H7_8 1_555 1_555
C16_8 C15_8 1_555 1_555
C17_8 C16_8 1_555 1_555
C18_8 C17_8 1_555 1_555
H8_8 C18_8 1_555 1_555
C19_8 C14_8 1_555 1_555
H9_8 C19_8 1_555 1_555
C20_8 C21_8 1_555 1_555
C21_8 C22_8 1_555 1_555
C22_8 H10_8 1_555 1_555
C23_8 C22_8 1_555 1_555
H11_8 C23_8 1_555 1_555
C24_8 N2_8 1_555 1_555
C25_8 C16_8 1_555 1_555
C26_8 C21_8 1_555 1_555
H12_8 C26_8 1_555 1_555
C27_8 C8_8 1_555 1_555
C28_8 C14_8 1_555 1_555
C29_8 C30_8 1_555 1_555
C30_8 H13_8 1_555 1_555
C31_8 C30_8 1_555 1_555
H14_8 C31_8 1_555 1_555
C32_8 N2_8 1_555 1_555
C33_8 C32_8 1_555 1_555
H15_8 C33_8 1_555 1_555
C34_8 C29_8 1_555 1_555
H16_8 C34_8 1_555 1_555
C35_8 N1_8 1_555 1_555
C36_8 C35_8 1_555 1_555
H17_8 C36_8 1_555 1_555
C37_8 C36_8 1_555 1_555
H18_8 C37_8 1_555 1_555
C38_8 C29_8 1_555 1_555
C39_8 C38_8 1_555 1_555
H19_8 C39_8 1_555 1_555
C40_8 C35_8 1_555 1_555
H20_8 C40_8 1_555 1_555
Fe5_8 O7_8 1_555 1_555
Fe8_8 O8_8 1_555 1_555
C6_8 C7_8 1_555 1_555
C9_8 C10_8 1_555 1_555
C10_8 C11_8 1_555 1_555
C12_8 C13_8 1_555 1_555
C18_8 C19_8 1_555 1_555
C23_8 C24_8 1_555 1_555
C24_8 C25_8 1_555 1_555
C25_8 C26_8 1_555 1_555
C31_8 C32_8 1_555 1_555
C33_8 C34_8 1_555 1_555
C37_8 C38_8 1_555 1_555
C39_8 C40_8 1_555 1_555
O3_5 C27_9 1_555 1_555
O4_5 C27_9 1_555 1_555
C8_9 C9_9 1_555 1_555
C9_9 H4_9 1_555 1_555
H5_9 C12_9 1_555 1_555
C13_9 C8_9 1_555 1_555
H6_9 C13_9 1_555 1_555
C27_9 C8_9 1_555 1_555
Fe4_3 O3_5 1_555 1_555
Fe7_3 O4_5 1_555 1_555
C12_9 C13_9 1_555 1_555
O1_9 C20_9 1_555 1_555
O13_5 C1_9 1_555 1_555
O14_5 C1_9 1_555 1_555
O7_9 C28_9 1_555 1_555
O8_9 C28_9 1_555 1_555
N1_9 C5_9 1_555 1_555
N2_9 C17_9 1_555 1_555
C1_9 C2_9 1_555 1_555
C2_9 C3_9 1_555 1_555
C3_9 H1_9 1_555 1_555
C4_9 C3_9 1_555 1_555
C5_9 C4_9 1_555 1_555
C6_9 C5_9 1_555 1_555
H2_9 C6_9 1_555 1_555
C7_9 C2_9 1_555 1_555
H3_9 C7_9 1_555 1_555
C10_9 C4_9 1_555 1_555
C11_9 N1_9 1_555 1_555
C14_9 C15_9 1_555 1_555
C15_9 H7_9 1_555 1_555
C16_9 C15_9 1_555 1_555
C17_9 C16_9 1_555 1_555
C18_9 C17_9 1_555 1_555
H8_9 C18_9 1_555 1_555
C19_9 C14_9 1_555 1_555
H9_9 C19_9 1_555 1_555
C20_9 C21_9 1_555 1_555
C21_9 C22_9 1_555 1_555
C22_9 H10_9 1_555 1_555
C23_9 C22_9 1_555 1_555
H11_9 C23_9 1_555 1_555
C24_9 N2_9 1_555 1_555
C25_9 C16_9 1_555 1_555
C26_9 C21_9 1_555 1_555
H12_9 C26_9 1_555 1_555
C28_9 C14_9 1_555 1_555
C29_9 C30_9 1_555 1_555
C31_9 C30_9 1_555 1_555
H14_9 C31_9 1_555 1_555
C32_9 N2_9 1_555 1_555
C33_9 C32_9 1_555 1_555
H15_9 C33_9 1_555 1_555
C34_9 C29_9 1_555 1_555
H16_9 C34_9 1_555 1_555
C35_9 N1_9 1_555 1_555
C36_9 C35_9 1_555 1_555
H17_9 C36_9 1_555 1_555
C37_9 C36_9 1_555 1_555
H18_9 C37_9 1_555 1_555
C38_9 C29_9 1_555 1_555
C39_9 C38_9 1_555 1_555
C40_9 C35_9 1_555 1_555
Fe5_9 O7_9 1_555 1_555
Fe8_9 O8_9 1_555 1_555
C6_9 C7_9 1_555 1_555
C10_9 C11_9 1_555 1_555
C18_9 C19_9 1_555 1_555
C23_9 C24_9 1_555 1_555
C24_9 C25_9 1_555 1_555
C25_9 C26_9 1_555 1_555
C31_9 C32_9 1_555 1_555
C33_9 C34_9 1_555 1_555
C37_9 C38_9 1_555 1_555
C39_9 C40_9 1_555 1_555
Fe7 O2_9 1_555 1_555
O9_9 Fe7 1_555 1_555
O10_9 Fe4 1_555 1_555
O11_5 Fe4 1_555 1_555
O12_5 Fe7 1_555 1_555
O15_9 Fe4 1_555 1_555
O16_9 Fe7 1_555 1_555
O9_9 H21_9 1_555 1_555
O9_9 H22_9 1_555 1_555
O10_9 H23_9 1_555 1_555
O10_9 H24_9 1_555 1_555
Fe4_3 O1_10 1_555 1_555
Fe7_3 O2_10 1_555 1_555
O1_10 C20_10 1_555 1_555
O2_10 C20_10 1_555 1_555
O13_8 C1_10 1_555 1_555
O14_8 C1_10 1_555 1_555
O7_10 C28_10 1_555 1_555
O8_10 C28_10 1_555 1_555
O9_10 Fe7_3 1_555 1_555
O10_10 Fe4_3 1_555 1_555
N1_10 C5_10 1_555 1_555
N2_10 C17_10 1_555 1_555
C1_10 C2_10 1_555 1_555
C2_10 C3_10 1_555 1_555
C3_10 H1_10 1_555 1_555
C4_10 C3_10 1_555 1_555
C5_10 C4_10 1_555 1_555
C6_10 C5_10 1_555 1_555
H2_10 C6_10 1_555 1_555
C7_10 C2_10 1_555 1_555
H3_10 C7_10 1_555 1_555
C10_10 C4_10 1_555 1_555
C11_10 N1_10 1_555 1_555
C14_10 C15_10 1_555 1_555
C15_10 H7_10 1_555 1_555
C16_10 C15_10 1_555 1_555
C17_10 C16_10 1_555 1_555
C18_10 C17_10 1_555 1_555
H8_10 C18_10 1_555 1_555
C19_10 C14_10 1_555 1_555
H9_10 C19_10 1_555 1_555
C20_10 C21_10 1_555 1_555
C21_10 C22_10 1_555 1_555
C22_10 H10_10 1_555 1_555
C23_10 C22_10 1_555 1_555
H11_10 C23_10 1_555 1_555
C24_10 N2_10 1_555 1_555
C25_10 C16_10 1_555 1_555
C26_10 C21_10 1_555 1_555
H12_10 C26_10 1_555 1_555
C28_10 C14_10 1_555 1_555
C29_10 C30_10 1_555 1_555
C31_10 C30_10 1_555 1_555
H14_10 C31_10 1_555 1_555
C32_10 N2_10 1_555 1_555
C33_10 C32_10 1_555 1_555
H15_10 C33_10 1_555 1_555
C34_10 C29_10 1_555 1_555
H16_10 C34_10 1_555 1_555
C35_10 N1_10 1_555 1_555
C36_10 C35_10 1_555 1_555
H17_10 C36_10 1_555 1_555
C37_10 C36_10 1_555 1_555
H18_10 C37_10 1_555 1_555
C38_10 C29_10 1_555 1_555
C39_10 C38_10 1_555 1_555
C40_10 C35_10 1_555 1_555
Fe5_10 O7_10 1_555 1_555
Fe8_10 O8_10 1_555 1_555
O15_10 Fe4_3 1_555 1_555
O16_10 Fe7_3 1_555 1_555
C6_10 C7_10 1_555 1_555
C10_10 C11_10 1_555 1_555
C18_10 C19_10 1_555 1_555
C23_10 C24_10 1_555 1_555
C24_10 C25_10 1_555 1_555
C25_10 C26_10 1_555 1_555
C31_10 C32_10 1_555 1_555
C33_10 C34_10 1_555 1_555
C37_10 C38_10 1_555 1_555
C39_10 C40_10 1_555 1_555
O9_10 H21_10 1_555 1_555
O9_10 H22_10 1_555 1_555
O10_10 H23_10 1_555 1_555
O10_10 H24_10 1_555 1_555
O11_5 C27_10 1_555 1_555
O12_5 C27_10 1_555 1_555
C8_10 C9_10 1_555 1_555
C9_10 H4_10 1_555 1_555
H5_10 C12_10 1_555 1_555
C13_10 C8_10 1_555 1_555
H6_10 C13_10 1_555 1_555
C27_10 C8_10 1_555 1_555
C12_10 C13_10 1_555 1_555
Fe4_4 O1_11 1_555 1_555
Fe7_4 O2_11 1_555 1_555
O1_11 C20_11 1_555 1_555
O2_11 C20_11 1_555 1_555
O3_6 C27_11 1_555 1_555
O4_6 C27_11 1_555 1_555
O13_6 C1_11 1_555 1_555
O14_6 C1_11 1_555 1_555
O7_11 C28_11 1_555 1_555
O8_11 C28_11 1_555 1_555
O9_11 Fe7_4 1_555 1_555
O10_11 Fe4_4 1_555 1_555
N1_11 C5_11 1_555 1_555
N2_11 C17_11 1_555 1_555
C1_11 C2_11 1_555 1_555
C2_11 C3_11 1_555 1_555
C3_11 H1_11 1_555 1_555
C4_11 C3_11 1_555 1_555
C5_11 C4_11 1_555 1_555
C6_11 C5_11 1_555 1_555
H2_11 C6_11 1_555 1_555
C7_11 C2_11 1_555 1_555
H3_11 C7_11 1_555 1_555
C8_11 C9_11 1_555 1_555
C9_11 H4_11 1_555 1_555
C10_11 C4_11 1_555 1_555
C11_11 N1_11 1_555 1_555
C12_11 C11_11 1_555 1_555
H5_11 C12_11 1_555 1_555
C13_11 C8_11 1_555 1_555
H6_11 C13_11 1_555 1_555
C14_11 C15_11 1_555 1_555
C15_11 H7_11 1_555 1_555
C16_11 C15_11 1_555 1_555
C17_11 C16_11 1_555 1_555
C18_11 C17_11 1_555 1_555
H8_11 C18_11 1_555 1_555
C19_11 C14_11 1_555 1_555
H9_11 C19_11 1_555 1_555
C20_11 C21_11 1_555 1_555
C21_11 C22_11 1_555 1_555
C22_11 H10_11 1_555 1_555
C23_11 C22_11 1_555 1_555
H11_11 C23_11 1_555 1_555
C24_11 N2_11 1_555 1_555
C25_11 C16_11 1_555 1_555
C26_11 C21_11 1_555 1_555
H12_11 C26_11 1_555 1_555
C27_11 C8_11 1_555 1_555
C28_11 C14_11 1_555 1_555
C29_11 C30_11 1_555 1_555
C30_11 H13_11 1_555 1_555
C31_11 C30_11 1_555 1_555
H14_11 C31_11 1_555 1_555
C32_11 N2_11 1_555 1_555
C33_11 C32_11 1_555 1_555
H15_11 C33_11 1_555 1_555
C34_11 C29_11 1_555 1_555
H16_11 C34_11 1_555 1_555
C35_11 N1_11 1_555 1_555
C36_11 C35_11 1_555 1_555
H17_11 C36_11 1_555 1_555
C37_11 C36_11 1_555 1_555
H18_11 C37_11 1_555 1_555
C38_11 C29_11 1_555 1_555
C39_11 C38_11 1_555 1_555
H19_11 C39_11 1_555 1_555
C40_11 C35_11 1_555 1_555
H20_11 C40_11 1_555 1_555
Fe4_2 O3_6 1_555 1_555
Fe5_11 O7_11 1_555 1_555
Fe7_2 O4_6 1_555 1_555
Fe8_11 O8_11 1_555 1_555
O11_6 Fe4_4 1_555 1_555
O12_6 Fe7_4 1_555 1_555
O15_11 Fe4_4 1_555 1_555
O16_11 Fe7_4 1_555 1_555
C6_11 C7_11 1_555 1_555
C9_11 C10_11 1_555 1_555
C10_11 C11_11 1_555 1_555
C12_11 C13_11 1_555 1_555
C18_11 C19_11 1_555 1_555
C23_11 C24_11 1_555 1_555
C24_11 C25_11 1_555 1_555
C25_11 C26_11 1_555 1_555
C31_11 C32_11 1_555 1_555
C33_11 C34_11 1_555 1_555
C37_11 C38_11 1_555 1_555
C39_11 C40_11 1_555 1_555
O9_11 H21_11 1_555 1_555
O9_11 H22_11 1_555 1_555
O10_11 H23_11 1_555 1_555
O10_11 H24_11 1_555 1_555
Fe7_2 O2_12 1_555 1_555
O9_12 Fe7_2 1_555 1_555
O10_12 Fe4_2 1_555 1_555
O15_12 Fe4_2 1_555 1_555
O16_12 Fe7_2 1_555 1_555
O9_12 H21_12 1_555 1_555
O9_12 H22_12 1_555 1_555
O10_12 H23_12 1_555 1_555
O10_12 H24_12 1_555 1_555
O1_12 C20_12 1_555 1_555
O11_6 C27_12 1_555 1_555
O12_6 C27_12 1_555 1_555
O13_7 C1_12 1_555 1_555
O14_7 C1_12 1_555 1_555
O7_12 C28_12 1_555 1_555
O8_12 C28_12 1_555 1_555
N1_12 C5_12 1_555 1_555
N2_12 C17_12 1_555 1_555
C1_12 C2_12 1_555 1_555
C2_12 C3_12 1_555 1_555
C3_12 H1_12 1_555 1_555
C4_12 C3_12 1_555 1_555
C5_12 C4_12 1_555 1_555
C6_12 C5_12 1_555 1_555
H2_12 C6_12 1_555 1_555
C7_12 C2_12 1_555 1_555
H3_12 C7_12 1_555 1_555
C8_12 C9_12 1_555 1_555
C9_12 H4_12 1_555 1_555
C10_12 C4_12 1_555 1_555
C11_12 N1_12 1_555 1_555
C12_12 C11_12 1_555 1_555
H5_12 C12_12 1_555 1_555
C13_12 C8_12 1_555 1_555
H6_12 C13_12 1_555 1_555
C14_12 C15_12 1_555 1_555
C15_12 H7_12 1_555 1_555
C16_12 C15_12 1_555 1_555
C17_12 C16_12 1_555 1_555
C18_12 C17_12 1_555 1_555
H8_12 C18_12 1_555 1_555
C19_12 C14_12 1_555 1_555
H9_12 C19_12 1_555 1_555
C20_12 C21_12 1_555 1_555
C21_12 C22_12 1_555 1_555
C22_12 H10_12 1_555 1_555
C23_12 C22_12 1_555 1_555
H11_12 C23_12 1_555 1_555
C24_12 N2_12 1_555 1_555
C25_12 C16_12 1_555 1_555
C26_12 C21_12 1_555 1_555
H12_12 C26_12 1_555 1_555
C27_12 C8_12 1_555 1_555
C28_12 C14_12 1_555 1_555
C29_12 C30_12 1_555 1_555
C30_12 H13_12 1_555 1_555
C31_12 C30_12 1_555 1_555
H14_12 C31_12 1_555 1_555
C32_12 N2_12 1_555 1_555
C33_12 C32_12 1_555 1_555
H15_12 C33_12 1_555 1_555
C34_12 C29_12 1_555 1_555
H16_12 C34_12 1_555 1_555
C35_12 N1_12 1_555 1_555
C36_12 C35_12 1_555 1_555
H17_12 C36_12 1_555 1_555
C37_12 C36_12 1_555 1_555
H18_12 C37_12 1_555 1_555
C38_12 C29_12 1_555 1_555
C39_12 C38_12 1_555 1_555
H19_12 C39_12 1_555 1_555
C40_12 C35_12 1_555 1_555
H20_12 C40_12 1_555 1_555
Fe5_12 O7_12 1_555 1_555
Fe8_12 O8_12 1_555 1_555
C6_12 C7_12 1_555 1_555
C9_12 C10_12 1_555 1_555
C10_12 C11_12 1_555 1_555
C12_12 C13_12 1_555 1_555
C18_12 C19_12 1_555 1_555
C23_12 C24_12 1_555 1_555
C24_12 C25_12 1_555 1_555
C25_12 C26_12 1_555 1_555
C31_12 C32_12 1_555 1_555
C33_12 C34_12 1_555 1_555
C37_12 C38_12 1_555 1_555
C39_12 C40_12 1_555 1_555
Fe8_6 O2_13 1_555 1_555
O9_13 Fe8_6 1_555 1_555
O10_13 Fe5_6 1_555 1_555
O11_7 Fe5_6 1_555 1_555
O12_7 Fe8_6 1_555 1_555
O9_13 H21_13 1_555 1_555
O9_13 H22_13 1_555 1_555
O10_13 H23_13 1_555 1_555
O10_13 H24_13 1_555 1_555
O1_13 C20_13 1_555 1_555
O5_5 C1_13 1_555 1_555
O6_5 C1_13 1_555 1_555
O15_12 C28_13 1_555 1_555
O16_12 C28_13 1_555 1_555
N1_13 C5_13 1_555 1_555
N2_13 C17_13 1_555 1_555
C1_13 C2_13 1_555 1_555
C2_13 C3_13 1_555 1_555
C3_13 H1_13 1_555 1_555
C4_13 C3_13 1_555 1_555
C5_13 C4_13 1_555 1_555
C6_13 C5_13 1_555 1_555
H2_13 C6_13 1_555 1_555
C7_13 C2_13 1_555 1_555
H3_13 C7_13 1_555 1_555
C10_13 C4_13 1_555 1_555
C11_13 N1_13 1_555 1_555
C14_13 C15_13 1_555 1_555
C15_13 H7_13 1_555 1_555
C16_13 C15_13 1_555 1_555
C17_13 C16_13 1_555 1_555
C18_13 C17_13 1_555 1_555
H8_13 C18_13 1_555 1_555
C19_13 C14_13 1_555 1_555
H9_13 C19_13 1_555 1_555
C20_13 C21_13 1_555 1_555
C21_13 C22_13 1_555 1_555
C22_13 H10_13 1_555 1_555
C23_13 C22_13 1_555 1_555
H11_13 C23_13 1_555 1_555
C24_13 N2_13 1_555 1_555
C25_13 C16_13 1_555 1_555
C26_13 C21_13 1_555 1_555
H12_13 C26_13 1_555 1_555
C28_13 C14_13 1_555 1_555
C29_13 C30_13 1_555 1_555
C31_13 C30_13 1_555 1_555
H14_13 C31_13 1_555 1_555
C32_13 N2_13 1_555 1_555
C33_13 C32_13 1_555 1_555
H15_13 C33_13 1_555 1_555
C34_13 C29_13 1_555 1_555
H16_13 C34_13 1_555 1_555
C35_13 N1_13 1_555 1_555
C36_13 C35_13 1_555 1_555
H17_13 C36_13 1_555 1_555
C37_13 C36_13 1_555 1_555
H18_13 C37_13 1_555 1_555
C38_13 C29_13 1_555 1_555
C39_13 C38_13 1_555 1_555
C40_13 C35_13 1_555 1_555
C6_13 C7_13 1_555 1_555
C10_13 C11_13 1_555 1_555
C18_13 C19_13 1_555 1_555
C23_13 C24_13 1_555 1_555
C24_13 C25_13 1_555 1_555
C25_13 C26_13 1_555 1_555
C31_13 C32_13 1_555 1_555
C33_13 C34_13 1_555 1_555
C37_13 C38_13 1_555 1_555
C39_13 C40_13 1_555 1_555
O3_7 C27_13 1_555 1_555
O4_7 C27_13 1_555 1_555
C8_13 C9_13 1_555 1_555
C9_13 H4_13 1_555 1_555
H5_13 C12_13 1_555 1_555
C13_13 C8_13 1_555 1_555
H6_13 C13_13 1_555 1_555
C27_13 C8_13 1_555 1_555
Fe5_8 O3_7 1_555 1_555
Fe8_8 O4_7 1_555 1_555
C12_13 C13_13 1_555 1_555
O11_7 C27_14 1_555 1_555
O12_7 C27_14 1_555 1_555
C8_14 C9_14 1_555 1_555
C9_14 H4_14 1_555 1_555
H5_14 C12_14 1_555 1_555
C13_14 C8_14 1_555 1_555
H6_14 C13_14 1_555 1_555
C27_14 C8_14 1_555 1_555
C12_14 C13_14 1_555 1_555
Fe5_8 O1_14 1_555 1_555
Fe8_8 O2_14 1_555 1_555
O1_14 C20_14 1_555 1_555
O2_14 C20_14 1_555 1_555
O5_6 C1_14 1_555 1_555
O6_6 C1_14 1_555 1_555
O15_9 C28_14 1_555 1_555
O16_9 C28_14 1_555 1_555
O9_14 Fe8_8 1_555 1_555
O10_14 Fe5_8 1_555 1_555
N1_14 C5_14 1_555 1_555
N2_14 C17_14 1_555 1_555
C1_14 C2_14 1_555 1_555
C2_14 C3_14 1_555 1_555
C3_14 H1_14 1_555 1_555
C4_14 C3_14 1_555 1_555
C5_14 C4_14 1_555 1_555
C6_14 C5_14 1_555 1_555
H2_14 C6_14 1_555 1_555
C7_14 C2_14 1_555 1_555
H3_14 C7_14 1_555 1_555
C10_14 C4_14 1_555 1_555
C11_14 N1_14 1_555 1_555
C14_14 C15_14 1_555 1_555
C15_14 H7_14 1_555 1_555
C16_14 C15_14 1_555 1_555
C17_14 C16_14 1_555 1_555
C18_14 C17_14 1_555 1_555
H8_14 C18_14 1_555 1_555
C19_14 C14_14 1_555 1_555
H9_14 C19_14 1_555 1_555
C20_14 C21_14 1_555 1_555
C21_14 C22_14 1_555 1_555
C22_14 H10_14 1_555 1_555
C23_14 C22_14 1_555 1_555
H11_14 C23_14 1_555 1_555
C24_14 N2_14 1_555 1_555
C25_14 C16_14 1_555 1_555
C26_14 C21_14 1_555 1_555
H12_14 C26_14 1_555 1_555
C28_14 C14_14 1_555 1_555
C29_14 C30_14 1_555 1_555
C31_14 C30_14 1_555 1_555
H14_14 C31_14 1_555 1_555
C32_14 N2_14 1_555 1_555
C33_14 C32_14 1_555 1_555
H15_14 C33_14 1_555 1_555
C34_14 C29_14 1_555 1_555
H16_14 C34_14 1_555 1_555
C35_14 N1_14 1_555 1_555
C36_14 C35_14 1_555 1_555
H17_14 C36_14 1_555 1_555
C37_14 C36_14 1_555 1_555
H18_14 C37_14 1_555 1_555
C38_14 C29_14 1_555 1_555
C39_14 C38_14 1_555 1_555
C40_14 C35_14 1_555 1_555
Fe5 O5_6 1_555 1_555
Fe8 O6_6 1_555 1_555
C6_14 C7_14 1_555 1_555
C10_14 C11_14 1_555 1_555
C18_14 C19_14 1_555 1_555
C23_14 C24_14 1_555 1_555
C24_14 C25_14 1_555 1_555
C25_14 C26_14 1_555 1_555
C31_14 C32_14 1_555 1_555
C33_14 C34_14 1_555 1_555
C37_14 C38_14 1_555 1_555
C39_14 C40_14 1_555 1_555
O9_14 H21_14 1_555 1_555
O9_14 H22_14 1_555 1_555
O10_14 H23_14 1_555 1_555
O10_14 H24_14 1_555 1_555
Fe5_7 O1_15 1_555 1_555
Fe8_7 O2_15 1_555 1_555
O1_15 C20_15 1_555 1_555
O2_15 C20_15 1_555 1_555
O3_8 C27_15 1_555 1_555
O4_8 C27_15 1_555 1_555
O5_7 C1_15 1_555 1_555
O6_7 C1_15 1_555 1_555
O15_11 C28_15 1_555 1_555
O16_11 C28_15 1_555 1_555
O9_15 Fe8_7 1_555 1_555
O10_15 Fe5_7 1_555 1_555
N1_15 C5_15 1_555 1_555
N2_15 C17_15 1_555 1_555
C1_15 C2_15 1_555 1_555
C2_15 C3_15 1_555 1_555
C3_15 H1_15 1_555 1_555
C4_15 C3_15 1_555 1_555
C5_15 C4_15 1_555 1_555
C6_15 C5_15 1_555 1_555
H2_15 C6_15 1_555 1_555
C7_15 C2_15 1_555 1_555
H3_15 C7_15 1_555 1_555
C8_15 C9_15 1_555 1_555
C9_15 H4_15 1_555 1_555
C10_15 C4_15 1_555 1_555
C11_15 N1_15 1_555 1_555
C12_15 C11_15 1_555 1_555
H5_15 C12_15 1_555 1_555
C13_15 C8_15 1_555 1_555
H6_15 C13_15 1_555 1_555
C14_15 C15_15 1_555 1_555
C15_15 H7_15 1_555 1_555
C16_15 C15_15 1_555 1_555
C17_15 C16_15 1_555 1_555
C18_15 C17_15 1_555 1_555
H8_15 C18_15 1_555 1_555
C19_15 C14_15 1_555 1_555
H9_15 C19_15 1_555 1_555
C20_15 C21_15 1_555 1_555
C21_15 C22_15 1_555 1_555
C22_15 H10_15 1_555 1_555
C23_15 C22_15 1_555 1_555
H11_15 C23_15 1_555 1_555
C24_15 N2_15 1_555 1_555
C25_15 C16_15 1_555 1_555
C26_15 C21_15 1_555 1_555
H12_15 C26_15 1_555 1_555
C27_15 C8_15 1_555 1_555
C28_15 C14_15 1_555 1_555
C29_15 C30_15 1_555 1_555
C30_15 H13_15 1_555 1_555
C31_15 C30_15 1_555 1_555
H14_15 C31_15 1_555 1_555
C32_15 N2_15 1_555 1_555
C33_15 C32_15 1_555 1_555
H15_15 C33_15 1_555 1_555
C34_15 C29_15 1_555 1_555
H16_15 C34_15 1_555 1_555
C35_15 N1_15 1_555 1_555
C36_15 C35_15 1_555 1_555
H17_15 C36_15 1_555 1_555
C37_15 C36_15 1_555 1_555
H18_15 C37_15 1_555 1_555
C38_15 C29_15 1_555 1_555
C39_15 C38_15 1_555 1_555
H19_15 C39_15 1_555 1_555
C40_15 C35_15 1_555 1_555
H20_15 C40_15 1_555 1_555
Fe5_5 O3_8 1_555 1_555
Fe8_5 O4_8 1_555 1_555
O11_8 Fe5_7 1_555 1_555
O12_8 Fe8_7 1_555 1_555
O13_11 Fe5_7 1_555 1_555
O14_11 Fe8_7 1_555 1_555
C6_15 C7_15 1_555 1_555
C9_15 C10_15 1_555 1_555
C10_15 C11_15 1_555 1_555
C12_15 C13_15 1_555 1_555
C18_15 C19_15 1_555 1_555
C23_15 C24_15 1_555 1_555
C24_15 C25_15 1_555 1_555
C25_15 C26_15 1_555 1_555
C31_15 C32_15 1_555 1_555
C33_15 C34_15 1_555 1_555
C37_15 C38_15 1_555 1_555
C39_15 C40_15 1_555 1_555
O9_15 H21_15 1_555 1_555
O9_15 H22_15 1_555 1_555
O10_15 H23_15 1_555 1_555
O10_15 H24_15 1_555 1_555
O1_16 C20_16 1_555 1_555
O11_8 C27_16 1_555 1_555
O12_8 C27_16 1_555 1_555
O5_8 C1_16 1_555 1_555
O6_8 C1_16 1_555 1_555
O15_10 C28_16 1_555 1_555
O16_10 C28_16 1_555 1_555
N1_16 C5_16 1_555 1_555
N2_16 C17_16 1_555 1_555
C1_16 C2_16 1_555 1_555
C2_16 C3_16 1_555 1_555
C3_16 H1_16 1_555 1_555
C4_16 C3_16 1_555 1_555
C5_16 C4_16 1_555 1_555
C6_16 C5_16 1_555 1_555
H2_16 C6_16 1_555 1_555
C7_16 C2_16 1_555 1_555
H3_16 C7_16 1_555 1_555
C8_16 C9_16 1_555 1_555
C9_16 H4_16 1_555 1_555
C10_16 C4_16 1_555 1_555
C11_16 N1_16 1_555 1_555
C12_16 C11_16 1_555 1_555
H5_16 C12_16 1_555 1_555
C13_16 C8_16 1_555 1_555
H6_16 C13_16 1_555 1_555
C14_16 C15_16 1_555 1_555
C15_16 H7_16 1_555 1_555
C16_16 C15_16 1_555 1_555
C17_16 C16_16 1_555 1_555
C18_16 C17_16 1_555 1_555
H8_16 C18_16 1_555 1_555
C19_16 C14_16 1_555 1_555
H9_16 C19_16 1_555 1_555
C20_16 C21_16 1_555 1_555
C21_16 C22_16 1_555 1_555
C22_16 H10_16 1_555 1_555
C23_16 C22_16 1_555 1_555
H11_16 C23_16 1_555 1_555
C24_16 N2_16 1_555 1_555
C25_16 C16_16 1_555 1_555
C26_16 C21_16 1_555 1_555
H12_16 C26_16 1_555 1_555
C27_16 C8_16 1_555 1_555
C28_16 C14_16 1_555 1_555
C29_16 C30_16 1_555 1_555
C30_16 H13_16 1_555 1_555
C31_16 C30_16 1_555 1_555
H14_16 C31_16 1_555 1_555
C32_16 N2_16 1_555 1_555
C33_16 C32_16 1_555 1_555
H15_16 C33_16 1_555 1_555
C34_16 C29_16 1_555 1_555
H16_16 C34_16 1_555 1_555
C35_16 N1_16 1_555 1_555
C36_16 C35_16 1_555 1_555
H17_16 C36_16 1_555 1_555
C37_16 C36_16 1_555 1_555
H18_16 C37_16 1_555 1_555
C38_16 C29_16 1_555 1_555
C39_16 C38_16 1_555 1_555
H19_16 C39_16 1_555 1_555
C40_16 C35_16 1_555 1_555
H20_16 C40_16 1_555 1_555
Fe5_3 O5_8 1_555 1_555
Fe8_3 O6_8 1_555 1_555
C6_16 C7_16 1_555 1_555
C9_16 C10_16 1_555 1_555
C10_16 C11_16 1_555 1_555
C12_16 C13_16 1_555 1_555
C18_16 C19_16 1_555 1_555
C23_16 C24_16 1_555 1_555
C24_16 C25_16 1_555 1_555
C25_16 C26_16 1_555 1_555
C31_16 C32_16 1_555 1_555
C33_16 C34_16 1_555 1_555
C37_16 C38_16 1_555 1_555
C39_16 C40_16 1_555 1_555
Fe8_5 O2_16 1_555 1_555
O9_16 Fe8_5 1_555 1_555
O10_16 Fe5_5 1_555 1_555
O13_12 Fe5_5 1_555 1_555
O14_12 Fe8_5 1_555 1_555
O9_16 H21_16 1_555 1_555
O9_16 H22_16 1_555 1_555
O10_16 H23_16 1_555 1_555
O10_16 H24_16 1_555 1_555
Fe8_10 O2_17 1_555 1_555
O9_17 Fe8_10 1_555 1_555
O10_17 Fe5_10 1_555 1_555
O11_9 Fe5_10 1_555 1_555
O12_9 Fe8_10 1_555 1_555
O9_17 H21_17 1_555 1_555
O9_17 H22_17 1_555 1_555
O10_17 H23_17 1_555 1_555
O10_17 H24_17 1_555 1_555
O1_17 C20_17 1_555 1_555
O13_9 C1_17 1_555 1_555
O14_9 C1_17 1_555 1_555
O15_4 C28_17 1_555 1_555
O16_4 C28_17 1_555 1_555
N1_17 C5_17 1_555 1_555
N2_17 C17_17 1_555 1_555
C1_17 C2_17 1_555 1_555
C2_17 C3_17 1_555 1_555
C3_17 H1_17 1_555 1_555
C4_17 C3_17 1_555 1_555
C5_17 C4_17 1_555 1_555
C6_17 C5_17 1_555 1_555
H2_17 C6_17 1_555 1_555
C7_17 C2_17 1_555 1_555
H3_17 C7_17 1_555 1_555
C10_17 C4_17 1_555 1_555
C11_17 N1_17 1_555 1_555
C14_17 C15_17 1_555 1_555
C15_17 H7_17 1_555 1_555
C16_17 C15_17 1_555 1_555
C17_17 C16_17 1_555 1_555
C18_17 C17_17 1_555 1_555
H8_17 C18_17 1_555 1_555
C19_17 C14_17 1_555 1_555
H9_17 C19_17 1_555 1_555
C20_17 C21_17 1_555 1_555
C21_17 C22_17 1_555 1_555
C22_17 H10_17 1_555 1_555
C23_17 C22_17 1_555 1_555
H11_17 C23_17 1_555 1_555
C24_17 N2_17 1_555 1_555
C25_17 C16_17 1_555 1_555
C26_17 C21_17 1_555 1_555
H12_17 C26_17 1_555 1_555
C28_17 C14_17 1_555 1_555
C29_17 C30_17 1_555 1_555
C31_17 C30_17 1_555 1_555
H14_17 C31_17 1_555 1_555
C32_17 N2_17 1_555 1_555
C33_17 C32_17 1_555 1_555
H15_17 C33_17 1_555 1_555
C34_17 C29_17 1_555 1_555
H16_17 C34_17 1_555 1_555
C35_17 N1_17 1_555 1_555
C36_17 C35_17 1_555 1_555
H17_17 C36_17 1_555 1_555
C37_17 C36_17 1_555 1_555
H18_17 C37_17 1_555 1_555
C38_17 C29_17 1_555 1_555
C39_17 C38_17 1_555 1_555
C40_17 C35_17 1_555 1_555
C6_17 C7_17 1_555 1_555
C10_17 C11_17 1_555 1_555
C18_17 C19_17 1_555 1_555
C23_17 C24_17 1_555 1_555
C24_17 C25_17 1_555 1_555
C25_17 C26_17 1_555 1_555
C31_17 C32_17 1_555 1_555
C33_17 C34_17 1_555 1_555
C37_17 C38_17 1_555 1_555
C39_17 C40_17 1_555 1_555
O3_9 C27_17 1_555 1_555
O4_9 C27_17 1_555 1_555
C8_17 C9_17 1_555 1_555
C9_17 H4_17 1_555 1_555
H5_17 C12_17 1_555 1_555
C13_17 C8_17 1_555 1_555
H6_17 C13_17 1_555 1_555
C27_17 C8_17 1_555 1_555
Fe5_12 O3_9 1_555 1_555
Fe8_12 O4_9 1_555 1_555
C12_17 C13_17 1_555 1_555
O11_9 C27_18 1_555 1_555
O12_9 C27_18 1_555 1_555
C8_18 C9_18 1_555 1_555
C9_18 H4_18 1_555 1_555
H5_18 C12_18 1_555 1_555
C13_18 C8_18 1_555 1_555
H6_18 C13_18 1_555 1_555
C27_18 C8_18 1_555 1_555
C12_18 C13_18 1_555 1_555
Fe5_12 O1_18 1_555 1_555
Fe8_12 O2_18 1_555 1_555
O1_18 C20_18 1_555 1_555
O2_18 C20_18 1_555 1_555
O13_12 C1_18 1_555 1_555
O14_12 C1_18 1_555 1_555
O15 C28_18 1_555 1_555
O16 C28_18 1_555 1_555
O9_18 Fe8_12 1_555 1_555
O10_18 Fe5_12 1_555 1_555
N1_18 C5_18 1_555 1_555
N2_18 C17_18 1_555 1_555
C1_18 C2_18 1_555 1_555
C2_18 C3_18 1_555 1_555
C3_18 H1_18 1_555 1_555
C4_18 C3_18 1_555 1_555
C5_18 C4_18 1_555 1_555
C6_18 C5_18 1_555 1_555
H2_18 C6_18 1_555 1_555
C7_18 C2_18 1_555 1_555
H3_18 C7_18 1_555 1_555
C10_18 C4_18 1_555 1_555
C11_18 N1_18 1_555 1_555
C14_18 C15_18 1_555 1_555
C15_18 H7_18 1_555 1_555
C16_18 C15_18 1_555 1_555
C17_18 C16_18 1_555 1_555
C18_18 C17_18 1_555 1_555
H8_18 C18_18 1_555 1_555
C19_18 C14_18 1_555 1_555
H9_18 C19_18 1_555 1_555
C20_18 C21_18 1_555 1_555
C21_18 C22_18 1_555 1_555
C22_18 H10_18 1_555 1_555
C23_18 C22_18 1_555 1_555
H11_18 C23_18 1_555 1_555
C24_18 N2_18 1_555 1_555
C25_18 C16_18 1_555 1_555
C26_18 C21_18 1_555 1_555
H12_18 C26_18 1_555 1_555
C28_18 C14_18 1_555 1_555
C29_18 C30_18 1_555 1_555
C31_18 C30_18 1_555 1_555
H14_18 C31_18 1_555 1_555
C32_18 N2_18 1_555 1_555
C33_18 C32_18 1_555 1_555
H15_18 C33_18 1_555 1_555
C34_18 C29_18 1_555 1_555
H16_18 C34_18 1_555 1_555
C35_18 N1_18 1_555 1_555
C36_18 C35_18 1_555 1_555
H17_18 C36_18 1_555 1_555
C37_18 C36_18 1_555 1_555
H18_18 C37_18 1_555 1_555
C38_18 C29_18 1_555 1_555
C39_18 C38_18 1_555 1_555
C40_18 C35_18 1_555 1_555
C6_18 C7_18 1_555 1_555
C10_18 C11_18 1_555 1_555
C18_18 C19_18 1_555 1_555
C23_18 C24_18 1_555 1_555
C24_18 C25_18 1_555 1_555
C25_18 C26_18 1_555 1_555
C31_18 C32_18 1_555 1_555
C33_18 C34_18 1_555 1_555
C37_18 C38_18 1_555 1_555
C39_18 C40_18 1_555 1_555
O9_18 H21_18 1_555 1_555
O9_18 H22_18 1_555 1_555
O10_18 H23_18 1_555 1_555
O10_18 H24_18 1_555 1_555
Fe5_11 O1_19 1_555 1_555
Fe8_11 O2_19 1_555 1_555
O1_19 C20_19 1_555 1_555
O2_19 C20_19 1_555 1_555
O3_10 C27_19 1_555 1_555
O4_10 C27_19 1_555 1_555
O13_10 C1_19 1_555 1_555
O14_10 C1_19 1_555 1_555
O15_3 C28_19 1_555 1_555
O16_3 C28_19 1_555 1_555
O9_19 Fe8_11 1_555 1_555
O10_19 Fe5_11 1_555 1_555
N1_19 C5_19 1_555 1_555
N2_19 C17_19 1_555 1_555
C1_19 C2_19 1_555 1_555
C2_19 C3_19 1_555 1_555
C3_19 H1_19 1_555 1_555
C4_19 C3_19 1_555 1_555
C5_19 C4_19 1_555 1_555
C6_19 C5_19 1_555 1_555
H2_19 C6_19 1_555 1_555
C7_19 C2_19 1_555 1_555
H3_19 C7_19 1_555 1_555
C8_19 C9_19 1_555 1_555
C9_19 H4_19 1_555 1_555
C10_19 C4_19 1_555 1_555
C11_19 N1_19 1_555 1_555
C12_19 C11_19 1_555 1_555
H5_19 C12_19 1_555 1_555
C13_19 C8_19 1_555 1_555
H6_19 C13_19 1_555 1_555
C14_19 C15_19 1_555 1_555
C15_19 H7_19 1_555 1_555
C16_19 C15_19 1_555 1_555
C17_19 C16_19 1_555 1_555
C18_19 C17_19 1_555 1_555
H8_19 C18_19 1_555 1_555
C19_19 C14_19 1_555 1_555
H9_19 C19_19 1_555 1_555
C20_19 C21_19 1_555 1_555
C21_19 C22_19 1_555 1_555
C22_19 H10_19 1_555 1_555
C23_19 C22_19 1_555 1_555
H11_19 C23_19 1_555 1_555
C24_19 N2_19 1_555 1_555
C25_19 C16_19 1_555 1_555
C26_19 C21_19 1_555 1_555
H12_19 C26_19 1_555 1_555
C27_19 C8_19 1_555 1_555
C28_19 C14_19 1_555 1_555
C29_19 C30_19 1_555 1_555
C30_19 H13_19 1_555 1_555
C31_19 C30_19 1_555 1_555
H14_19 C31_19 1_555 1_555
C32_19 N2_19 1_555 1_555
C33_19 C32_19 1_555 1_555
H15_19 C33_19 1_555 1_555
C34_19 C29_19 1_555 1_555
H16_19 C34_19 1_555 1_555
C35_19 N1_19 1_555 1_555
C36_19 C35_19 1_555 1_555
H17_19 C36_19 1_555 1_555
C37_19 C36_19 1_555 1_555
H18_19 C37_19 1_555 1_555
C38_19 C29_19 1_555 1_555
C39_19 C38_19 1_555 1_555
H19_19 C39_19 1_555 1_555
C40_19 C35_19 1_555 1_555
H20_19 C40_19 1_555 1_555
Fe5_9 O3_10 1_555 1_555
Fe8_9 O4_10 1_555 1_555
O11_10 Fe5_11 1_555 1_555
O12_10 Fe8_11 1_555 1_555
O13_15 Fe5_11 1_555 1_555
O14_15 Fe8_11 1_555 1_555
C6_19 C7_19 1_555 1_555
C9_19 C10_19 1_555 1_555
C10_19 C11_19 1_555 1_555
C12_19 C13_19 1_555 1_555
C18_19 C19_19 1_555 1_555
C23_19 C24_19 1_555 1_555
C24_19 C25_19 1_555 1_555
C25_19 C26_19 1_555 1_555
C31_19 C32_19 1_555 1_555
C33_19 C34_19 1_555 1_555
C37_19 C38_19 1_555 1_555
C39_19 C40_19 1_555 1_555
O9_19 H21_19 1_555 1_555
O9_19 H22_19 1_555 1_555
O10_19 H23_19 1_555 1_555
O10_19 H24_19 1_555 1_555
O1_20 C20_20 1_555 1_555
O11_10 C27_20 1_555 1_555
O12_10 C27_20 1_555 1_555
O13_11 C1_20 1_555 1_555
O14_11 C1_20 1_555 1_555
O15_2 C28_20 1_555 1_555
O16_2 C28_20 1_555 1_555
N1_20 C5_20 1_555 1_555
N2_20 C17_20 1_555 1_555
C1_20 C2_20 1_555 1_555
C2_20 C3_20 1_555 1_555
C3_20 H1_20 1_555 1_555
C4_20 C3_20 1_555 1_555
C5_20 C4_20 1_555 1_555
C6_20 C5_20 1_555 1_555
H2_20 C6_20 1_555 1_555
C7_20 C2_20 1_555 1_555
H3_20 C7_20 1_555 1_555
C8_20 C9_20 1_555 1_555
C9_20 H4_20 1_555 1_555
C10_20 C4_20 1_555 1_555
C11_20 N1_20 1_555 1_555
C12_20 C11_20 1_555 1_555
H5_20 C12_20 1_555 1_555
C13_20 C8_20 1_555 1_555
H6_20 C13_20 1_555 1_555
C14_20 C15_20 1_555 1_555
C15_20 H7_20 1_555 1_555
C16_20 C15_20 1_555 1_555
C17_20 C16_20 1_555 1_555
C18_20 C17_20 1_555 1_555
H8_20 C18_20 1_555 1_555
C19_20 C14_20 1_555 1_555
H9_20 C19_20 1_555 1_555
C20_20 C21_20 1_555 1_555
C21_20 C22_20 1_555 1_555
C22_20 H10_20 1_555 1_555
C23_20 C22_20 1_555 1_555
H11_20 C23_20 1_555 1_555
C24_20 N2_20 1_555 1_555
C25_20 C16_20 1_555 1_555
C26_20 C21_20 1_555 1_555
H12_20 C26_20 1_555 1_555
C27_20 C8_20 1_555 1_555
C28_20 C14_20 1_555 1_555
C29_20 C30_20 1_555 1_555
C30_20 H13_20 1_555 1_555
C31_20 C30_20 1_555 1_555
H14_20 C31_20 1_555 1_555
C32_20 N2_20 1_555 1_555
C33_20 C32_20 1_555 1_555
H15_20 C33_20 1_555 1_555
C34_20 C29_20 1_555 1_555
H16_20 C34_20 1_555 1_555
C35_20 N1_20 1_555 1_555
C36_20 C35_20 1_555 1_555
H17_20 C36_20 1_555 1_555
C37_20 C36_20 1_555 1_555
H18_20 C37_20 1_555 1_555
C38_20 C29_20 1_555 1_555
C39_20 C38_20 1_555 1_555
H19_20 C39_20 1_555 1_555
C40_20 C35_20 1_555 1_555
H20_20 C40_20 1_555 1_555
C6_20 C7_20 1_555 1_555
C9_20 C10_20 1_555 1_555
C10_20 C11_20 1_555 1_555
C12_20 C13_20 1_555 1_555
C18_20 C19_20 1_555 1_555
C23_20 C24_20 1_555 1_555
C24_20 C25_20 1_555 1_555
C25_20 C26_20 1_555 1_555
C31_20 C32_20 1_555 1_555
C33_20 C34_20 1_555 1_555
C37_20 C38_20 1_555 1_555
C39_20 C40_20 1_555 1_555
Fe8_9 O2_20 1_555 1_555
O9_20 Fe8_9 1_555 1_555
O10_20 Fe5_9 1_555 1_555
O13_16 Fe5_9 1_555 1_555
O14_16 Fe8_9 1_555 1_555
O9_20 H21_20 1_555 1_555
O9_20 H22_20 1_555 1_555
O10_20 H23_20 1_555 1_555
O10_20 H24_20 1_555 1_555
Fe8_2 O2_21 1_555 1_555
O9_21 Fe8_2 1_555 1_555
O10_21 Fe5_2 1_555 1_555
O11_11 Fe5_2 1_555 1_555
O12_11 Fe8_2 1_555 1_555
O9_21 H21_21 1_555 1_555
O9_21 H22_21 1_555 1_555
O10_21 H23_21 1_555 1_555
O10_21 H24_21 1_555 1_555
O1_21 C20_21 1_555 1_555
O13_13 C1_21 1_555 1_555
O14_13 C1_21 1_555 1_555
O15_8 C28_21 1_555 1_555
O16_8 C28_21 1_555 1_555
N1_21 C5_21 1_555 1_555
N2_21 C17_21 1_555 1_555
C1_21 C2_21 1_555 1_555
C2_21 C3_21 1_555 1_555
C3_21 H1_21 1_555 1_555
C4_21 C3_21 1_555 1_555
C5_21 C4_21 1_555 1_555
C6_21 C5_21 1_555 1_555
H2_21 C6_21 1_555 1_555
C7_21 C2_21 1_555 1_555
H3_21 C7_21 1_555 1_555
C10_21 C4_21 1_555 1_555
C11_21 N1_21 1_555 1_555
C14_21 C15_21 1_555 1_555
C15_21 H7_21 1_555 1_555
C16_21 C15_21 1_555 1_555
C17_21 C16_21 1_555 1_555
C18_21 C17_21 1_555 1_555
H8_21 C18_21 1_555 1_555
C19_21 C14_21 1_555 1_555
H9_21 C19_21 1_555 1_555
C20_21 C21_21 1_555 1_555
C21_21 C22_21 1_555 1_555
C22_21 H10_21 1_555 1_555
C23_21 C22_21 1_555 1_555
H11_21 C23_21 1_555 1_555
C24_21 N2_21 1_555 1_555
C25_21 C16_21 1_555 1_555
C26_21 C21_21 1_555 1_555
H12_21 C26_21 1_555 1_555
C28_21 C14_21 1_555 1_555
C29_21 C30_21 1_555 1_555
C31_21 C30_21 1_555 1_555
H14_21 C31_21 1_555 1_555
C32_21 N2_21 1_555 1_555
C33_21 C32_21 1_555 1_555
H15_21 C33_21 1_555 1_555
C34_21 C29_21 1_555 1_555
H16_21 C34_21 1_555 1_555
C35_21 N1_21 1_555 1_555
C36_21 C35_21 1_555 1_555
H17_21 C36_21 1_555 1_555
C37_21 C36_21 1_555 1_555
H18_21 C37_21 1_555 1_555
C38_21 C29_21 1_555 1_555
C39_21 C38_21 1_555 1_555
C40_21 C35_21 1_555 1_555
C6_21 C7_21 1_555 1_555
C10_21 C11_21 1_555 1_555
C18_21 C19_21 1_555 1_555
C23_21 C24_21 1_555 1_555
C24_21 C25_21 1_555 1_555
C25_21 C26_21 1_555 1_555
C31_21 C32_21 1_555 1_555
C33_21 C34_21 1_555 1_555
C37_21 C38_21 1_555 1_555
C39_21 C40_21 1_555 1_555
O3_11 C27_21 1_555 1_555
O4_11 C27_21 1_555 1_555
C8_21 C9_21 1_555 1_555
C9_21 H4_21 1_555 1_555
H5_21 C12_21 1_555 1_555
C13_21 C8_21 1_555 1_555
H6_21 C13_21 1_555 1_555
C27_21 C8_21 1_555 1_555
Fe5_4 O3_11 1_555 1_555
Fe8_4 O4_11 1_555 1_555
C12_21 C13_21 1_555 1_555
O11_11 C27_22 1_555 1_555
O12_11 C27_22 1_555 1_555
C8_22 C9_22 1_555 1_555
C9_22 H4_22 1_555 1_555
H5_22 C12_22 1_555 1_555
C13_22 C8_22 1_555 1_555
H6_22 C13_22 1_555 1_555
C27_22 C8_22 1_555 1_555
C12_22 C13_22 1_555 1_555
Fe5_4 O1_22 1_555 1_555
Fe8_4 O2_22 1_555 1_555
O1_22 C20_22 1_555 1_555
O2_22 C20_22 1_555 1_555
O13_16 C1_22 1_555 1_555
O14_16 C1_22 1_555 1_555
O15_5 C28_22 1_555 1_555
O16_5 C28_22 1_555 1_555
O9_22 Fe8_4 1_555 1_555
O10_22 Fe5_4 1_555 1_555
N1_22 C5_22 1_555 1_555
N2_22 C17_22 1_555 1_555
C1_22 C2_22 1_555 1_555
C2_22 C3_22 1_555 1_555
C3_22 H1_22 1_555 1_555
C4_22 C3_22 1_555 1_555
C5_22 C4_22 1_555 1_555
C6_22 C5_22 1_555 1_555
H2_22 C6_22 1_555 1_555
C7_22 C2_22 1_555 1_555
H3_22 C7_22 1_555 1_555
C10_22 C4_22 1_555 1_555
C11_22 N1_22 1_555 1_555
C14_22 C15_22 1_555 1_555
C15_22 H7_22 1_555 1_555
C16_22 C15_22 1_555 1_555
C17_22 C16_22 1_555 1_555
C18_22 C17_22 1_555 1_555
H8_22 C18_22 1_555 1_555
C19_22 C14_22 1_555 1_555
H9_22 C19_22 1_555 1_555
C20_22 C21_22 1_555 1_555
C21_22 C22_22 1_555 1_555
C22_22 H10_22 1_555 1_555
C23_22 C22_22 1_555 1_555
H11_22 C23_22 1_555 1_555
C24_22 N2_22 1_555 1_555
C25_22 C16_22 1_555 1_555
C26_22 C21_22 1_555 1_555
H12_22 C26_22 1_555 1_555
C28_22 C14_22 1_555 1_555
C29_22 C30_22 1_555 1_555
C31_22 C30_22 1_555 1_555
H14_22 C31_22 1_555 1_555
C32_22 N2_22 1_555 1_555
C33_22 C32_22 1_555 1_555
H15_22 C33_22 1_555 1_555
C34_22 C29_22 1_555 1_555
H16_22 C34_22 1_555 1_555
C35_22 N1_22 1_555 1_555
C36_22 C35_22 1_555 1_555
H17_22 C36_22 1_555 1_555
C37_22 C36_22 1_555 1_555
H18_22 C37_22 1_555 1_555
C38_22 C29_22 1_555 1_555
C39_22 C38_22 1_555 1_555
C40_22 C35_22 1_555 1_555
C6_22 C7_22 1_555 1_555
C10_22 C11_22 1_555 1_555
C18_22 C19_22 1_555 1_555
C23_22 C24_22 1_555 1_555
C24_22 C25_22 1_555 1_555
C25_22 C26_22 1_555 1_555
C31_22 C32_22 1_555 1_555
C33_22 C34_22 1_555 1_555
C37_22 C38_22 1_555 1_555
C39_22 C40_22 1_555 1_555
O9_22 H21_22 1_555 1_555
O9_22 H22_22 1_555 1_555
O10_22 H23_22 1_555 1_555
O10_22 H24_22 1_555 1_555
Fe5_3 O1_23 1_555 1_555
Fe8_3 O2_23 1_555 1_555
O1_23 C20_23 1_555 1_555
O2_23 C20_23 1_555 1_555
O3_12 C27_23 1_555 1_555
O4_12 C27_23 1_555 1_555
O13_14 C1_23 1_555 1_555
O14_14 C1_23 1_555 1_555
O15_7 C28_23 1_555 1_555
O16_7 C28_23 1_555 1_555
O9_23 Fe8_3 1_555 1_555
O10_23 Fe5_3 1_555 1_555
N1_23 C5_23 1_555 1_555
N2_23 C17_23 1_555 1_555
C1_23 C2_23 1_555 1_555
C2_23 C3_23 1_555 1_555
C3_23 H1_23 1_555 1_555
C4_23 C3_23 1_555 1_555
C5_23 C4_23 1_555 1_555
C6_23 C5_23 1_555 1_555
H2_23 C6_23 1_555 1_555
C7_23 C2_23 1_555 1_555
H3_23 C7_23 1_555 1_555
C8_23 C9_23 1_555 1_555
C9_23 H4_23 1_555 1_555
C10_23 C4_23 1_555 1_555
C11_23 N1_23 1_555 1_555
C12_23 C11_23 1_555 1_555
H5_23 C12_23 1_555 1_555
C13_23 C8_23 1_555 1_555
H6_23 C13_23 1_555 1_555
C14_23 C15_23 1_555 1_555
C15_23 H7_23 1_555 1_555
C16_23 C15_23 1_555 1_555
C17_23 C16_23 1_555 1_555
C18_23 C17_23 1_555 1_555
H8_23 C18_23 1_555 1_555
C19_23 C14_23 1_555 1_555
H9_23 C19_23 1_555 1_555
C20_23 C21_23 1_555 1_555
C21_23 C22_23 1_555 1_555
C22_23 H10_23 1_555 1_555
C23_23 C22_23 1_555 1_555
H11_23 C23_23 1_555 1_555
C24_23 N2_23 1_555 1_555
C25_23 C16_23 1_555 1_555
C26_23 C21_23 1_555 1_555
H12_23 C26_23 1_555 1_555
C27_23 C8_23 1_555 1_555
C28_23 C14_23 1_555 1_555
C29_23 C30_23 1_555 1_555
C30_23 H13_23 1_555 1_555
C31_23 C30_23 1_555 1_555
H14_23 C31_23 1_555 1_555
C32_23 N2_23 1_555 1_555
C33_23 C32_23 1_555 1_555
H15_23 C33_23 1_555 1_555
C34_23 C29_23 1_555 1_555
H16_23 C34_23 1_555 1_555
C35_23 N1_23 1_555 1_555
C36_23 C35_23 1_555 1_555
H17_23 C36_23 1_555 1_555
C37_23 C36_23 1_555 1_555
H18_23 C37_23 1_555 1_555
C38_23 C29_23 1_555 1_555
C39_23 C38_23 1_555 1_555
H19_23 C39_23 1_555 1_555
C40_23 C35_23 1_555 1_555
H20_23 C40_23 1_555 1_555
Fe5 O3_12 1_555 1_555
Fe8 O4_12 1_555 1_555
O11_12 Fe5_3 1_555 1_555
O12_12 Fe8_3 1_555 1_555
C6_23 C7_23 1_555 1_555
C9_23 C10_23 1_555 1_555
C10_23 C11_23 1_555 1_555
C12_23 C13_23 1_555 1_555
C18_23 C19_23 1_555 1_555
C23_23 C24_23 1_555 1_555
C24_23 C25_23 1_555 1_555
C25_23 C26_23 1_555 1_555
C31_23 C32_23 1_555 1_555
C33_23 C34_23 1_555 1_555
C37_23 C38_23 1_555 1_555
C39_23 C40_23 1_555 1_555
O9_23 H21_23 1_555 1_555
O9_23 H22_23 1_555 1_555
O10_23 H23_23 1_555 1_555
O10_23 H24_23 1_555 1_555
O1_24 C20_24 1_555 1_555
O11_12 C27_24 1_555 1_555
O12_12 C27_24 1_555 1_555
O13_15 C1_24 1_555 1_555
O14_15 C1_24 1_555 1_555
O15_6 C28_24 1_555 1_555
O16_6 C28_24 1_555 1_555
N1_24 C5_24 1_555 1_555
N2_24 C17_24 1_555 1_555
C1_24 C2_24 1_555 1_555
C2_24 C3_24 1_555 1_555
C3_24 H1_24 1_555 1_555
C4_24 C3_24 1_555 1_555
C5_24 C4_24 1_555 1_555
C6_24 C5_24 1_555 1_555
H2_24 C6_24 1_555 1_555
C7_24 C2_24 1_555 1_555
H3_24 C7_24 1_555 1_555
C8_24 C9_24 1_555 1_555
C9_24 H4_24 1_555 1_555
C10_24 C4_24 1_555 1_555
C11_24 N1_24 1_555 1_555
C12_24 C11_24 1_555 1_555
H5_24 C12_24 1_555 1_555
C13_24 C8_24 1_555 1_555
H6_24 C13_24 1_555 1_555
C14_24 C15_24 1_555 1_555
C15_24 H7_24 1_555 1_555
C16_24 C15_24 1_555 1_555
C17_24 C16_24 1_555 1_555
C18_24 C17_24 1_555 1_555
H8_24 C18_24 1_555 1_555
C19_24 C14_24 1_555 1_555
H9_24 C19_24 1_555 1_555
C20_24 C21_24 1_555 1_555
C21_24 C22_24 1_555 1_555
C22_24 H10_24 1_555 1_555
C23_24 C22_24 1_555 1_555
H11_24 C23_24 1_555 1_555
C24_24 N2_24 1_555 1_555
C25_24 C16_24 1_555 1_555
C26_24 C21_24 1_555 1_555
H12_24 C26_24 1_555 1_555
C27_24 C8_24 1_555 1_555
C28_24 C14_24 1_555 1_555
C29_24 C30_24 1_555 1_555
C30_24 H13_24 1_555 1_555
C31_24 C30_24 1_555 1_555
H14_24 C31_24 1_555 1_555
C32_24 N2_24 1_555 1_555
C33_24 C32_24 1_555 1_555
H15_24 C33_24 1_555 1_555
C34_24 C29_24 1_555 1_555
H16_24 C34_24 1_555 1_555
C35_24 N1_24 1_555 1_555
C36_24 C35_24 1_555 1_555
H17_24 C36_24 1_555 1_555
C37_24 C36_24 1_555 1_555
H18_24 C37_24 1_555 1_555
C38_24 C29_24 1_555 1_555
C39_24 C38_24 1_555 1_555
H19_24 C39_24 1_555 1_555
C40_24 C35_24 1_555 1_555
H20_24 C40_24 1_555 1_555
C6_24 C7_24 1_555 1_555
C9_24 C10_24 1_555 1_555
C10_24 C11_24 1_555 1_555
C12_24 C13_24 1_555 1_555
C18_24 C19_24 1_555 1_555
C23_24 C24_24 1_555 1_555
C24_24 C25_24 1_555 1_555
C25_24 C26_24 1_555 1_555
C31_24 C32_24 1_555 1_555
C33_24 C34_24 1_555 1_555
C37_24 C38_24 1_555 1_555
C39_24 C40_24 1_555 1_555
Fe8 O2_24 1_555 1_555
O9_24 Fe8 1_555 1_555
O10_24 Fe5 1_555 1_555
O9_24 H21_24 1_555 1_555
O9_24 H22_24 1_555 1_555
O10_24 H23_24 1_555 1_555
O10_24 H24_24 1_555 1_555

#END
