
###############################################################################
#
# This file contains modified crystal structure data generated from the
# MOF subset of the Cambridge Structural Database (CSD) v543 
# hosted by the Cambridge Crystallographic Data Centre (CCDC).
#
# This work is licensed under the Creative Commons
# Attribution-NonCommercial-ShareAlike 4.0 International License.
# To view a copy of this license, visit
# http://creativecommons.org/licenses/by-nc-sa/4.0/
# or send a letter to
# Creative Commons, PO Box 1866, Mountain View, CA 94042, USA.
#
# CIF created using the CSD Python API on 29 September 2022
# The structure has been converted into the P1 space group
# The structure has a 3D framework
# The original CSD entry PAJCUC02 is in the cubic crystal system
# The framework has been calculated to contain at least 10.0% void space
# The void calculation uses a probe of radius 1.32A, grid spacing 0.4
# H atom positions have been added when not included in the experimental data
#
###############################################################################

data_PAJCUC02
_chemical_formula_moiety         '(C960 H576 Cu48 N48 O240)n'
_symmetry_cell_setting           triclinic
_symmetry_space_group_name_H-M   'P 1'
_symmetry_Int_Tables_number      1
_space_group_name_Hall           'P 1'
loop_
_symmetry_equiv_pos_site_id
_symmetry_equiv_pos_as_xyz
1 x,y,z
_cell_length_a                   46.000(5)
_cell_length_b                   46.000(5)
_cell_length_c                   46.000(5)
_cell_angle_alpha                90
_cell_angle_beta                 90
_cell_angle_gamma                90
_cell_volume                     97336
loop_
_atom_site_label
_atom_site_type_symbol
_atom_site_fract_x
_atom_site_fract_y
_atom_site_fract_z
O3 O 0.14644(14) 0.01406(14) 0.43452(15)
O4 O 0.19439(15) 0.02501(16) 0.42604(16)
C8 C 0.16541(15) 0.01102(19) 0.38551(12)
C9 C 0.13821(13) 0.00424(19) 0.37423(14)
H4 H 0.121672 0.003976 0.386595
C12 C 0.18661(13) 0.0050(2) 0.33804(15)
H5 H 0.203145 0.005259 0.325674
C13 C 0.18961(12) 0.0114(2) 0.36742(16)
H6 H 0.208195 0.016040 0.375131
C27 C 0.1695(3) 0.0179(3) 0.4170(3)
H13 H 0.223318 0.011340 0.183702
H14 H 0.261503 0.007045 0.150369
C39 C 0.2066(3) 0.0104(3) 0.2414(3)
H19 H 0.217743 0.026336 0.234557
C40 C 0.1868(3) 0.0142(3) 0.2639(3)
H20 H 0.184485 0.032877 0.272489
Cu3 Cu 0.14914(2) 0.01939(2) 0.47543(3)
Cu6 Cu 0.20453(2) 0.02723(3) 0.46696(3)
O13 O 0.33968(13) 0.02165(14) 0.97921(15)
O14 O 0.29323(14) 0.01515(16) 0.96888(17)
O1 O 0.34176(13) 0.97441(14) 0.01658(14)
O2 O 0.29272(14) 0.97207(17) 0.00909(17)
O5 O 0.02165(14) 0.97921(15) 0.33968(13)
O6 O 0.01515(16) 0.96888(17) 0.29323(14)
O7 O 0.43872(14) 0.97022(14) 0.14533(13)
O8 O 0.43214(16) 0.96583(16) 0.19378(15)
N1 N 0.1511(2) 0.9918(3) 0.2987(2)
N2 N 0.3020(2) 0.9666(3) 0.1476(2)
C1 C 0.0312(2) 0.9754(3) 0.3143(2)
C2 C 0.06265(11) 0.9793(2) 0.30883(16)
C3 C 0.08083(15) 0.9878(2) 0.33145(12)
H1 H 0.073056 0.990884 0.350329
C4 C 0.11038(14) 0.9916(2) 0.32646(14)
C5 C 0.12176(12) 0.9870(2) 0.29884(16)
C6 C 0.10358(16) 0.9786(2) 0.27622(12)
H2 H 0.111350 0.975479 0.257339
C7 C 0.07402(15) 0.9748(2) 0.28121(13)
H3 H 0.061598 0.969015 0.265750
C10 C 0.13521(13) 0.9978(2) 0.34485(15)
C11 C 0.15941(17) 0.9982(2) 0.32676(12)
C14 C 0.39049(11) 0.96683(18) 0.16356(14)
C15 C 0.37872(13) 0.96777(18) 0.13575(12)
H7 H 0.391157 0.968887 0.119298
C16 C 0.34874(13) 0.9671(2) 0.13200(11)
C17 C 0.33054(10) 0.9654(2) 0.15607(15)
C18 C 0.34232(14) 0.9645(2) 0.18388(12)
H8 H 0.329879 0.963369 0.200325
C19 C 0.37229(15) 0.96519(19) 0.18762(11)
H9 H 0.380342 0.964544 0.206633
C20 C 0.3149(3) 0.9719(2) 0.0251(2)
C21 C 0.31027(15) 0.9713(2) 0.05738(11)
C22 C 0.28212(12) 0.9709(2) 0.06837(15)
H10 H 0.265998 0.971760 0.055500
C23 C 0.27757(11) 0.9691(2) 0.09819(16)
H11 H 0.258336 0.968793 0.105701
C24 C 0.30117(15) 0.9678(2) 0.11702(12)
C25 C 0.32931(12) 0.9682(2) 0.10604(13)
C26 C 0.33386(11) 0.96997(19) 0.07622(14)
H12 H 0.353099 0.970268 0.068706
C28 C 0.4228(2) 0.9683(2) 0.1681(3)
C29 C 0.23205(19) 0.9739(3) 0.20582(19)
C30 C 0.2361(2) 0.9951(2) 0.1846(2)
C31 C 0.2588(2) 0.9926(2) 0.1648(2)
C32 C 0.2774(2) 0.9688(3) 0.1662(2)
C33 C 0.2734(2) 0.9477(2) 0.1874(2)
H15 H 0.286144 0.931451 0.188334
C34 C 0.2507(2) 0.9502(2) 0.2072(2)
H16 H 0.247959 0.935745 0.221668
C35 C 0.1705(2) 0.9909(3) 0.2739(2)
C36 C 0.1739(3) 0.9636(3) 0.2613(3)
H17 H 0.162758 0.947599 0.268144
C37 C 0.1937(3) 0.9597(3) 0.2388(3)
H18 H 0.196016 0.941059 0.230211
C38 C 0.2100(3) 0.9831(4) 0.2288(2)
Cu5 Cu 0.48061(2) 0.97543(3) 0.14914(2)
Cu8 Cu 0.47277(3) 0.96696(3) 0.20453(2)
Cu1 Cu 0.35086(2) 0.98061(2) 0.97543(3)
Cu2 Cu 0.29547(2) 0.97277(3) 0.96696(3)
O9 O 0.25028(15) 0.9650(2) 0.95969(18)
O10 O 0.39610(14) 0.98863(17) 0.98273(18)
O11 O 0.35356(14) 0.98594(14) 0.93452(15)
O12 O 0.30561(15) 0.97499(16) 0.92604(16)
O15 O 0.35467(13) 0.93872(14) 0.97022(14)
O16 O 0.30622(15) 0.93214(16) 0.96583(16)
H21 H 0.238713 0.98084 0.968706
H22 H 0.246398 0.964443 0.938462
H23 H 0.405072 0.971322 0.992001
H24 H 0.405846 0.992557 0.963873
Cu4 Cu 0.98061(2) 0.97543(3) 0.35086(2)
Cu7 Cu 0.97277(3) 0.96696(3) 0.29547(2)
O1_2 O 0.15824(13) 0.02559(14) 0.51658(14)
O2_2 O 0.20728(14) 0.02793(17) 0.50909(17)
O5_2 O 0.47835(14) 0.02079(15) 0.83968(13)
O6_2 O 0.48485(16) 0.03112(17) 0.79323(14)
O7_2 O 0.06128(14) 0.02978(14) 0.64533(13)
O8_2 O 0.06786(16) 0.03417(16) 0.69378(15)
O9_2 O 0.24972(15) 0.0350(2) 0.45969(18)
O10_2 O 0.10390(14) 0.01137(17) 0.48273(18)
N1_2 N 0.3489(2) 0.0082(3) 0.7987(2)
N2_2 N 0.1980(2) 0.0334(3) 0.6476(2)
C1_2 C 0.4688(2) 0.0246(3) 0.8143(2)
C2_2 C 0.43735(11) 0.0207(2) 0.80883(16)
C3_2 C 0.41917(15) 0.0122(2) 0.83145(12)
H1_2 H 0.426944 0.009116 0.850329
C4_2 C 0.38962(14) 0.0084(2) 0.82646(14)
C5_2 C 0.37824(12) 0.0130(2) 0.79884(16)
C6_2 C 0.39642(16) 0.0214(2) 0.77622(12)
H2_2 H 0.388650 0.024521 0.757339
C7_2 C 0.42598(15) 0.0252(2) 0.78121(13)
H3_2 H 0.438402 0.030985 0.765750
C10_2 C 0.36479(13) 0.0022(2) 0.84485(15)
C11_2 C 0.34059(17) 0.0018(2) 0.82676(12)
C14_2 C 0.10951(11) 0.03317(18) 0.66356(14)
C15_2 C 0.12128(13) 0.03223(18) 0.63575(12)
H7_2 H 0.108843 0.031113 0.619298
C16_2 C 0.15126(13) 0.0329(2) 0.63200(11)
C17_2 C 0.16946(10) 0.0346(2) 0.65607(15)
C18_2 C 0.15768(14) 0.0355(2) 0.68388(12)
H8_2 H 0.170121 0.036631 0.700325
C19_2 C 0.12771(15) 0.03481(19) 0.68762(11)
H9_2 H 0.119658 0.035456 0.706633
C20_2 C 0.1851(3) 0.0281(2) 0.5251(2)
C21_2 C 0.18973(15) 0.0287(2) 0.55738(11)
C22_2 C 0.21788(12) 0.0291(2) 0.56837(15)
H10_2 H 0.234002 0.028240 0.555500
C23_2 C 0.22243(11) 0.0309(2) 0.59819(16)
H11_2 H 0.241664 0.031207 0.605701
C24_2 C 0.19883(15) 0.0322(2) 0.61702(12)
C25_2 C 0.17069(12) 0.0318(2) 0.60604(13)
C26_2 C 0.16614(11) 0.03003(19) 0.57622(14)
H12_2 H 0.146901 0.029732 0.568706
C28_2 C 0.0772(2) 0.0317(2) 0.6681(3)
C29_2 C 0.26795(19) 0.0261(3) 0.70582(19)
C30_2 C 0.2639(2) 0.0049(2) 0.6846(2)
C31_2 C 0.2412(2) 0.0074(2) 0.6648(2)
C32_2 C 0.2226(2) 0.0312(3) 0.6662(2)
C33_2 C 0.2266(2) 0.0523(2) 0.6874(2)
H15_2 H 0.213856 0.068549 0.688334
C34_2 C 0.2493(2) 0.0498(2) 0.7072(2)
H16_2 H 0.252041 0.064255 0.721668
C35_2 C 0.3295(2) 0.0091(3) 0.7739(2)
C36_2 C 0.3261(3) 0.0364(3) 0.7613(3)
H17_2 H 0.337242 0.052401 0.768144
C37_2 C 0.3063(3) 0.0403(3) 0.7388(3)
H18_2 H 0.303984 0.058941 0.730211
C38_2 C 0.2900(3) 0.0169(4) 0.7288(2)
Cu4_2 Cu 0.51939(2) 0.02457(3) 0.85086(2)
Cu5_2 Cu 0.01939(2) 0.02457(3) 0.64914(2)
Cu7_2 Cu 0.52723(3) 0.03304(3) 0.79547(2)
Cu8_2 Cu 0.02723(3) 0.03304(3) 0.70453(2)
O15_2 O 0.14533(13) 0.06128(14) 0.47022(14)
O16_2 O 0.19378(15) 0.06786(16) 0.46583(16)
H21_2 H 0.261287 0.0191597 0.468706
H22_2 H 0.253602 0.0355575 0.438462
H23_2 H 0.0949281 0.0286778 0.492001
H24_2 H 0.0941538 0.00744348 0.463873
C8_2 C 0.33459(15) 0.98898(19) 0.88551(12)
C9_2 C 0.36179(13) 0.99576(19) 0.87423(14)
H4_2 H 0.378328 0.996024 0.886595
C12_2 C 0.31339(13) 0.9950(2) 0.83804(15)
H5_2 H 0.296855 0.994741 0.825674
C13_2 C 0.31039(12) 0.9886(2) 0.86742(16)
H6_2 H 0.291805 0.983960 0.875131
C27_2 C 0.3305(3) 0.9821(3) 0.9170(3)
H13_2 H 0.276682 0.988660 0.683702
H14_2 H 0.238497 0.992955 0.650369
C39_2 C 0.2934(3) 0.9896(3) 0.7414(3)
H19_2 H 0.282257 0.973664 0.734557
C40_2 C 0.3132(3) 0.9858(3) 0.7639(3)
H20_2 H 0.315515 0.967123 0.772489
O13_2 O 0.16032(13) 0.97835(14) 0.47921(15)
O14_2 O 0.20677(14) 0.98485(16) 0.46888(17)
Cu4_3 Cu 0.01939(2) 0.47543(3) 0.14914(2)
Cu7_3 Cu 0.02723(3) 0.46696(3) 0.20453(2)
Cu1_2 Cu 0.64914(2) 0.48061(2) 0.52457(3)
Cu2_2 Cu 0.70453(2) 0.47277(3) 0.53304(3)
O1_3 O 0.65824(13) 0.47441(14) 0.48342(14)
O2_3 O 0.70728(14) 0.47207(17) 0.49091(17)
O3_2 O 0.85356(14) 0.51406(14) 0.06548(15)
O4_2 O 0.80561(15) 0.52501(16) 0.07396(16)
O5_3 O 0.97835(14) 0.47921(15) 0.16032(13)
O6_3 O 0.98485(16) 0.46888(17) 0.20677(14)
O7_3 O 0.56128(14) 0.47022(14) 0.35467(13)
O8_3 O 0.56786(16) 0.46583(16) 0.30622(15)
O9_3 O 0.74972(15) 0.4650(2) 0.54031(18)
O10_3 O 0.60390(14) 0.48863(17) 0.51727(18)
N1_3 N 0.8489(2) 0.4918(3) 0.2013(2)
N2_3 N 0.6980(2) 0.4666(3) 0.3524(2)
C1_3 C 0.9688(2) 0.4754(3) 0.1857(2)
C2_3 C 0.93735(11) 0.4793(2) 0.19117(16)
C3_3 C 0.91917(15) 0.4878(2) 0.16855(12)
H1_3 H 0.926944 0.490884 0.149671
C4_3 C 0.88962(14) 0.4916(2) 0.17354(14)
C5_3 C 0.87824(12) 0.4870(2) 0.20116(16)
C6_3 C 0.89642(16) 0.4786(2) 0.22378(12)
H2_3 H 0.888650 0.475479 0.242661
C7_3 C 0.92598(15) 0.4748(2) 0.21879(13)
H3_3 H 0.938402 0.469015 0.234250
C8_3 C 0.83459(15) 0.51102(19) 0.11449(12)
C9_3 C 0.86179(13) 0.50424(19) 0.12577(14)
H4_3 H 0.878328 0.503976 0.113405
C10_3 C 0.86479(13) 0.4978(2) 0.15515(15)
C11_3 C 0.84059(17) 0.4982(2) 0.17324(12)
C12_3 C 0.81339(13) 0.5050(2) 0.16196(15)
H5_3 H 0.796855 0.505259 0.174326
C13_3 C 0.81039(12) 0.5114(2) 0.13258(16)
H6_3 H 0.791805 0.516040 0.124869
C14_3 C 0.60951(11) 0.46683(18) 0.33644(14)
C15_3 C 0.62128(13) 0.46777(18) 0.36425(12)
H7_3 H 0.608843 0.468887 0.380702
C16_3 C 0.65126(13) 0.4671(2) 0.36800(11)
C17_3 C 0.66946(10) 0.4654(2) 0.34393(15)
C18_3 C 0.65768(14) 0.4645(2) 0.31612(12)
H8_3 H 0.670121 0.463369 0.299675
C19_3 C 0.62771(15) 0.46519(19) 0.31238(11)
H9_3 H 0.619658 0.464544 0.293367
C20_3 C 0.6851(3) 0.4719(2) 0.4749(2)
C21_3 C 0.68973(15) 0.4713(2) 0.44262(11)
C22_3 C 0.71788(12) 0.4709(2) 0.43163(15)
H10_3 H 0.734002 0.471760 0.444500
C23_3 C 0.72243(11) 0.4691(2) 0.40181(16)
H11_3 H 0.741664 0.468793 0.394299
C24_3 C 0.69883(15) 0.4678(2) 0.38298(12)
C25_3 C 0.67069(12) 0.4682(2) 0.39396(13)
C26_3 C 0.66614(11) 0.46997(19) 0.42378(14)
H12_3 H 0.646901 0.470268 0.431294
C27_3 C 0.8305(3) 0.5179(3) 0.0830(3)
C28_3 C 0.5772(2) 0.4683(2) 0.3319(3)
C29_3 C 0.76795(19) 0.4739(3) 0.29418(19)
C30_3 C 0.7639(2) 0.4951(2) 0.3154(2)
H13_3 H 0.776682 0.511340 0.316298
C31_3 C 0.7412(2) 0.4926(2) 0.3352(2)
H14_3 H 0.738497 0.507045 0.349631
C32_3 C 0.7226(2) 0.4688(3) 0.3338(2)
C33_3 C 0.7266(2) 0.4477(2) 0.3126(2)
H15_3 H 0.713856 0.431451 0.311666
C34_3 C 0.7493(2) 0.4502(2) 0.2928(2)
H16_3 H 0.752041 0.435745 0.278332
C35_3 C 0.8295(2) 0.4909(3) 0.2261(2)
C36_3 C 0.8261(3) 0.4636(3) 0.2387(3)
H17_3 H 0.837242 0.447599 0.231856
C37_3 C 0.8063(3) 0.4597(3) 0.2612(3)
H18_3 H 0.803984 0.441059 0.269789
C38_3 C 0.7900(3) 0.4831(4) 0.2712(2)
C39_3 C 0.7934(3) 0.5104(3) 0.2586(3)
H19_3 H 0.782257 0.526336 0.265443
C40_3 C 0.8132(3) 0.5142(3) 0.2361(3)
H20_3 H 0.815515 0.532877 0.227511
Cu3_2 Cu 0.85086(2) 0.51939(2) 0.02457(3)
Cu5_3 Cu 0.51939(2) 0.47543(3) 0.35086(2)
Cu6_2 Cu 0.79547(2) 0.52723(3) 0.03304(3)
Cu8_3 Cu 0.52723(3) 0.46696(3) 0.29547(2)
O11_2 O 0.64644(14) 0.48594(14) 0.56548(15)
O12_2 O 0.69439(15) 0.47499(16) 0.57396(16)
O13_3 O 0.66032(13) 0.52165(14) 0.52079(15)
O14_3 O 0.70677(14) 0.51515(16) 0.53112(17)
O15_3 O 0.64533(13) 0.43872(14) 0.52978(14)
O16_3 O 0.69378(15) 0.43214(16) 0.53417(16)
H21_3 H 0.761287 0.48084 0.531294
H22_3 H 0.753602 0.464443 0.561538
H23_3 H 0.594928 0.471322 0.507999
H24_3 H 0.594154 0.492557 0.536127
O9_4 O 0.75028(15) 0.5350(2) 0.04031(18)
O10_4 O 0.89610(14) 0.51137(17) 0.01727(18)
O13_4 O 0.83968(13) 0.47835(14) 0.02079(15)
O14_4 O 0.79323(14) 0.48485(16) 0.03112(17)
O15_4 O 0.85467(13) 0.56128(14) 0.02978(14)
O16_4 O 0.80622(15) 0.56786(16) 0.03417(16)
H21_4 H 0.738713 0.51916 0.0312936
H22_4 H 0.746398 0.535557 0.0615378
H23_4 H 0.905072 0.528678 0.00799949
H24_4 H 0.905846 0.507443 0.0361271
O1_4 O 0.84176(13) 0.52559(14) 0.98342(14)
O2_4 O 0.79272(14) 0.52793(17) 0.99091(17)
O5_4 O 0.52165(14) 0.52079(15) 0.66032(13)
O6_4 O 0.51515(16) 0.53112(17) 0.70677(14)
O7_4 O 0.93872(14) 0.52978(14) 0.85467(13)
O8_4 O 0.93214(16) 0.53417(16) 0.80622(15)
N1_4 N 0.6511(2) 0.5082(3) 0.7013(2)
N2_4 N 0.8020(2) 0.5334(3) 0.8524(2)
C1_4 C 0.5312(2) 0.5246(3) 0.6857(2)
C2_4 C 0.56265(11) 0.5207(2) 0.69117(16)
C3_4 C 0.58083(15) 0.5122(2) 0.66855(12)
H1_4 H 0.573056 0.509116 0.649671
C4_4 C 0.61038(14) 0.5084(2) 0.67354(14)
C5_4 C 0.62176(12) 0.5130(2) 0.70116(16)
C6_4 C 0.60358(16) 0.5214(2) 0.72378(12)
H2_4 H 0.611350 0.524521 0.742661
C7_4 C 0.57402(15) 0.5252(2) 0.71879(13)
H3_4 H 0.561598 0.530985 0.734250
C8_4 C 0.66541(15) 0.48898(19) 0.61449(12)
C9_4 C 0.63821(13) 0.49576(19) 0.62577(14)
H4_4 H 0.621672 0.496024 0.613405
C10_4 C 0.63521(13) 0.5022(2) 0.65515(15)
C11_4 C 0.65941(17) 0.5018(2) 0.67324(12)
C12_4 C 0.68661(13) 0.4950(2) 0.66196(15)
H5_4 H 0.703145 0.494741 0.674326
C13_4 C 0.68961(12) 0.4886(2) 0.63258(16)
H6_4 H 0.708195 0.483960 0.624869
C14_4 C 0.89049(11) 0.53317(18) 0.83644(14)
C15_4 C 0.87872(13) 0.53223(18) 0.86425(12)
H7_4 H 0.891157 0.531113 0.880702
C16_4 C 0.84874(13) 0.5329(2) 0.86800(11)
C17_4 C 0.83054(10) 0.5346(2) 0.84393(15)
C18_4 C 0.84232(14) 0.5355(2) 0.81612(12)
H8_4 H 0.829879 0.536631 0.799675
C19_4 C 0.87229(15) 0.53481(19) 0.81238(11)
H9_4 H 0.880342 0.535456 0.793367
C20_4 C 0.8149(3) 0.5281(2) 0.9749(2)
C21_4 C 0.81027(15) 0.5287(2) 0.94262(11)
C22_4 C 0.78212(12) 0.5291(2) 0.93163(15)
H10_4 H 0.765998 0.528240 0.944500
C23_4 C 0.77757(11) 0.5309(2) 0.90181(16)
H11_4 H 0.758336 0.531207 0.894299
C24_4 C 0.80117(15) 0.5322(2) 0.88298(12)
C25_4 C 0.82931(12) 0.5318(2) 0.89396(13)
C26_4 C 0.83386(11) 0.53003(19) 0.92378(14)
H12_4 H 0.853099 0.529732 0.931294
C27_4 C 0.6695(3) 0.4821(3) 0.5830(3)
C28_4 C 0.9228(2) 0.5317(2) 0.8319(3)
C29_4 C 0.73205(19) 0.5261(3) 0.79418(19)
C30_4 C 0.7361(2) 0.5049(2) 0.8154(2)
H13_4 H 0.723318 0.488660 0.816298
C31_4 C 0.7588(2) 0.5074(2) 0.8352(2)
H14_4 H 0.761503 0.492955 0.849631
C32_4 C 0.7774(2) 0.5312(3) 0.8338(2)
C33_4 C 0.7734(2) 0.5523(2) 0.8126(2)
H15_4 H 0.786144 0.568549 0.811666
C34_4 C 0.7507(2) 0.5498(2) 0.7928(2)
H16_4 H 0.747959 0.564255 0.778332
C35_4 C 0.6705(2) 0.5091(3) 0.7261(2)
C36_4 C 0.6739(3) 0.5364(3) 0.7387(3)
H17_4 H 0.662758 0.552401 0.731856
C37_4 C 0.6937(3) 0.5403(3) 0.7612(3)
H18_4 H 0.696016 0.558941 0.769789
C38_4 C 0.7100(3) 0.5169(4) 0.7712(2)
C39_4 C 0.7066(3) 0.4896(3) 0.7586(3)
H19_4 H 0.717743 0.473664 0.765443
C40_4 C 0.6868(3) 0.4858(3) 0.7361(3)
H20_4 H 0.684485 0.467123 0.727511
Cu4_4 Cu 0.48061(2) 0.52457(3) 0.64914(2)
Cu5_4 Cu 0.98061(2) 0.52457(3) 0.85086(2)
Cu7_4 Cu 0.47277(3) 0.53304(3) 0.70453(2)
Cu8_4 Cu 0.97277(3) 0.53304(3) 0.79547(2)
O3_3 O 0.43452(15) 0.14644(14) 0.01406(14)
O4_3 O 0.42604(16) 0.19439(15) 0.02501(16)
C8_5 C 0.38551(12) 0.16541(15) 0.01102(19)
C9_5 C 0.37423(14) 0.13821(13) 0.00424(19)
H4_5 H 0.386595 0.121672 0.003976
C12_5 C 0.33804(15) 0.18661(13) 0.0050(2)
H5_5 H 0.325674 0.203145 0.005259
C13_5 C 0.36742(16) 0.18961(12) 0.0114(2)
H6_5 H 0.375131 0.208195 0.016040
C27_5 C 0.4170(3) 0.1695(3) 0.0179(3)
H13_5 H 0.183702 0.223318 0.011340
H14_5 H 0.150369 0.261503 0.007045
C39_5 C 0.2414(3) 0.2066(3) 0.0104(3)
H19_5 H 0.234557 0.217743 0.026336
C40_5 C 0.2639(3) 0.1868(3) 0.0142(3)
H20_5 H 0.272489 0.184485 0.032877
Cu3_3 Cu 0.47543(3) 0.14914(2) 0.01939(2)
Cu6_3 Cu 0.46696(3) 0.20453(2) 0.02723(3)
O1_5 O 0.01658(14) 0.34176(13) 0.97441(14)
O2_5 O 0.00909(17) 0.29272(14) 0.97207(17)
O7_5 O 0.14533(13) 0.43872(14) 0.97022(14)
O8_5 O 0.19378(15) 0.43214(16) 0.96583(16)
N1_5 N 0.2987(2) 0.1511(2) 0.9918(3)
N2_5 N 0.1476(2) 0.3020(2) 0.9666(3)
C1_5 C 0.3143(2) 0.0312(2) 0.9754(3)
C2_5 C 0.30883(16) 0.06265(11) 0.9793(2)
C3_5 C 0.33145(12) 0.08083(15) 0.9878(2)
H1_5 H 0.350329 0.073056 0.990884
C4_5 C 0.32646(14) 0.11038(14) 0.9916(2)
C5_5 C 0.29884(16) 0.12176(12) 0.9870(2)
C6_5 C 0.27622(12) 0.10358(16) 0.9786(2)
H2_5 H 0.257339 0.111350 0.975479
C7_5 C 0.28121(13) 0.07402(15) 0.9748(2)
H3_5 H 0.265750 0.061598 0.969015
C10_5 C 0.34485(15) 0.13521(13) 0.9978(2)
C11_5 C 0.32676(12) 0.15941(17) 0.9982(2)
C14_5 C 0.16356(14) 0.39049(11) 0.96683(18)
C15_5 C 0.13575(12) 0.37872(13) 0.96777(18)
H7_5 H 0.119298 0.391157 0.968887
C16_5 C 0.13200(11) 0.34874(13) 0.9671(2)
C17_5 C 0.15607(15) 0.33054(10) 0.9654(2)
C18_5 C 0.18388(12) 0.34232(14) 0.9645(2)
H8_5 H 0.200325 0.329879 0.963369
C19_5 C 0.18762(11) 0.37229(15) 0.96519(19)
H9_5 H 0.206633 0.380342 0.964544
C20_5 C 0.0251(2) 0.3149(3) 0.9719(2)
C21_5 C 0.05738(11) 0.31027(15) 0.9713(2)
C22_5 C 0.06837(15) 0.28212(12) 0.9709(2)
H10_5 H 0.055500 0.265998 0.971760
C23_5 C 0.09819(16) 0.27757(11) 0.9691(2)
H11_5 H 0.105701 0.258336 0.968793
C24_5 C 0.11702(12) 0.30117(15) 0.9678(2)
C25_5 C 0.10604(13) 0.32931(12) 0.9682(2)
C26_5 C 0.07622(14) 0.33386(11) 0.96997(19)
H12_5 H 0.068706 0.353099 0.970268
C28_5 C 0.1681(3) 0.4228(2) 0.9683(2)
C29_5 C 0.20582(19) 0.23205(19) 0.9739(3)
C30_5 C 0.1846(2) 0.2361(2) 0.9951(2)
C31_5 C 0.1648(2) 0.2588(2) 0.9926(2)
C32_5 C 0.1662(2) 0.2774(2) 0.9688(3)
C33_5 C 0.1874(2) 0.2734(2) 0.9477(2)
H15_5 H 0.188334 0.286144 0.931451
C34_5 C 0.2072(2) 0.2507(2) 0.9502(2)
H16_5 H 0.221668 0.247959 0.935745
C35_5 C 0.2739(2) 0.1705(2) 0.9909(3)
C36_5 C 0.2613(3) 0.1739(3) 0.9636(3)
H17_5 H 0.268144 0.162758 0.947599
C37_5 C 0.2388(3) 0.1937(3) 0.9597(3)
H18_5 H 0.230211 0.196016 0.941059
C38_5 C 0.2288(2) 0.2100(3) 0.9831(4)
Cu5_5 Cu 0.14914(2) 0.48061(2) 0.97543(3)
Cu8_5 Cu 0.20453(2) 0.47277(3) 0.96696(3)
O13_5 O 0.97921(15) 0.33968(13) 0.02165(14)
O14_5 O 0.96888(17) 0.29323(14) 0.01515(16)
Cu1_3 Cu 0.97543(3) 0.35086(2) 0.98061(2)
Cu2_3 Cu 0.96696(3) 0.29547(2) 0.97277(3)
O9_5 O 0.95969(18) 0.25028(15) 0.9650(2)
O10_5 O 0.98273(18) 0.39610(14) 0.98863(17)
O11_3 O 0.93452(15) 0.35356(14) 0.98594(14)
O12_3 O 0.92604(16) 0.30561(15) 0.97499(16)
O15_5 O 0.97022(14) 0.35467(13) 0.93872(14)
O16_5 O 0.96583(16) 0.30622(15) 0.93214(16)
H21_5 H 0.968706 0.238713 0.98084
H22_5 H 0.938462 0.246398 0.964443
H23_5 H 0.992001 0.405072 0.971322
H24_5 H 0.963873 0.405846 0.992557
O1_6 O 0.51658(14) 0.15824(13) 0.02559(14)
O2_6 O 0.50909(17) 0.20728(14) 0.02793(17)
O7_6 O 0.64533(13) 0.06128(14) 0.02978(14)
O8_6 O 0.69378(15) 0.06786(16) 0.03417(16)
O9_6 O 0.45969(18) 0.24972(15) 0.0350(2)
O10_6 O 0.48273(18) 0.10390(14) 0.01137(17)
N1_6 N 0.7987(2) 0.3489(2) 0.0082(3)
N2_6 N 0.6476(2) 0.1980(2) 0.0334(3)
C1_6 C 0.8143(2) 0.4688(2) 0.0246(3)
C2_6 C 0.80883(16) 0.43735(11) 0.0207(2)
C3_6 C 0.83145(12) 0.41917(15) 0.0122(2)
H1_6 H 0.850329 0.426944 0.009116
C4_6 C 0.82646(14) 0.38962(14) 0.0084(2)
C5_6 C 0.79884(16) 0.37824(12) 0.0130(2)
C6_6 C 0.77622(12) 0.39642(16) 0.0214(2)
H2_6 H 0.757339 0.388650 0.024521
C7_6 C 0.78121(13) 0.42598(15) 0.0252(2)
H3_6 H 0.765750 0.438402 0.030985
C10_6 C 0.84485(15) 0.36479(13) 0.0022(2)
C11_6 C 0.82676(12) 0.34059(17) 0.0018(2)
C14_6 C 0.66356(14) 0.10951(11) 0.03317(18)
C15_6 C 0.63575(12) 0.12128(13) 0.03223(18)
H7_6 H 0.619298 0.108843 0.031113
C16_6 C 0.63200(11) 0.15126(13) 0.0329(2)
C17_6 C 0.65607(15) 0.16946(10) 0.0346(2)
C18_6 C 0.68388(12) 0.15768(14) 0.0355(2)
H8_6 H 0.700325 0.170121 0.036631
C19_6 C 0.68762(11) 0.12771(15) 0.03481(19)
H9_6 H 0.706633 0.119658 0.035456
C20_6 C 0.5251(2) 0.1851(3) 0.0281(2)
C21_6 C 0.55738(11) 0.18973(15) 0.0287(2)
C22_6 C 0.56837(15) 0.21788(12) 0.0291(2)
H10_6 H 0.555500 0.234002 0.028240
C23_6 C 0.59819(16) 0.22243(11) 0.0309(2)
H11_6 H 0.605701 0.241664 0.031207
C24_6 C 0.61702(12) 0.19883(15) 0.0322(2)
C25_6 C 0.60604(13) 0.17069(12) 0.0318(2)
C26_6 C 0.57622(14) 0.16614(11) 0.03003(19)
H12_6 H 0.568706 0.146901 0.029732
C28_6 C 0.6681(3) 0.0772(2) 0.0317(2)
C29_6 C 0.70582(19) 0.26795(19) 0.0261(3)
C30_6 C 0.6846(2) 0.2639(2) 0.0049(2)
C31_6 C 0.6648(2) 0.2412(2) 0.0074(2)
C32_6 C 0.6662(2) 0.2226(2) 0.0312(3)
C33_6 C 0.6874(2) 0.2266(2) 0.0523(2)
H15_6 H 0.688334 0.213856 0.068549
C34_6 C 0.7072(2) 0.2493(2) 0.0498(2)
H16_6 H 0.721668 0.252041 0.064255
C35_6 C 0.7739(2) 0.3295(2) 0.0091(3)
C36_6 C 0.7613(3) 0.3261(3) 0.0364(3)
H17_6 H 0.768144 0.337242 0.052401
C37_6 C 0.7388(3) 0.3063(3) 0.0403(3)
H18_6 H 0.730211 0.303984 0.058941
C38_6 C 0.7288(2) 0.2900(3) 0.0169(4)
Cu5_6 Cu 0.64914(2) 0.01939(2) 0.02457(3)
Cu8_6 Cu 0.70453(2) 0.02723(3) 0.03304(3)
O15_6 O 0.47022(14) 0.14533(13) 0.06128(14)
O16_6 O 0.46583(16) 0.19378(15) 0.06786(16)
H21_6 H 0.468706 0.261287 0.0191597
H22_6 H 0.438462 0.253602 0.0355575
H23_6 H 0.492001 0.0949281 0.0286778
H24_6 H 0.463873 0.0941538 0.00744348
C8_6 C 0.88551(12) 0.33459(15) 0.98898(19)
C9_6 C 0.87423(14) 0.36179(13) 0.99576(19)
H4_6 H 0.886595 0.378328 0.996024
C12_6 C 0.83804(15) 0.31339(13) 0.9950(2)
H5_6 H 0.825674 0.296855 0.994741
C13_6 C 0.86742(16) 0.31039(12) 0.9886(2)
H6_6 H 0.875131 0.291805 0.983960
C27_6 C 0.9170(3) 0.3305(3) 0.9821(3)
H13_6 H 0.683702 0.276682 0.988660
H14_6 H 0.650369 0.238497 0.992955
C39_6 C 0.7414(3) 0.2934(3) 0.9896(3)
H19_6 H 0.734557 0.282257 0.973664
C40_6 C 0.7639(3) 0.3132(3) 0.9858(3)
H20_6 H 0.772489 0.315515 0.967123
O13_6 O 0.47921(15) 0.16032(13) 0.97835(14)
O14_6 O 0.46888(17) 0.20677(14) 0.98485(16)
Cu1_4 Cu 0.52457(3) 0.64914(2) 0.48061(2)
Cu2_4 Cu 0.53304(3) 0.70453(2) 0.47277(3)
O1_7 O 0.48342(14) 0.65824(13) 0.47441(14)
O2_7 O 0.49091(17) 0.70728(14) 0.47207(17)
O3_4 O 0.06548(15) 0.85356(14) 0.51406(14)
O4_4 O 0.07396(16) 0.80561(15) 0.52501(16)
O7_7 O 0.35467(13) 0.56128(14) 0.47022(14)
O8_7 O 0.30622(15) 0.56786(16) 0.46583(16)
O9_7 O 0.54031(18) 0.74972(15) 0.4650(2)
O10_7 O 0.51727(18) 0.60390(14) 0.48863(17)
N1_7 N 0.2013(2) 0.8489(2) 0.4918(3)
N2_7 N 0.3524(2) 0.6980(2) 0.4666(3)
C1_7 C 0.1857(2) 0.9688(2) 0.4754(3)
C2_7 C 0.19117(16) 0.93735(11) 0.4793(2)
C3_7 C 0.16855(12) 0.91917(15) 0.4878(2)
H1_7 H 0.149671 0.926944 0.490884
C4_7 C 0.17354(14) 0.88962(14) 0.4916(2)
C5_7 C 0.20116(16) 0.87824(12) 0.4870(2)
C6_7 C 0.22378(12) 0.89642(16) 0.4786(2)
H2_7 H 0.242661 0.888650 0.475479
C7_7 C 0.21879(13) 0.92598(15) 0.4748(2)
H3_7 H 0.234250 0.938402 0.469015
C8_7 C 0.11449(12) 0.83459(15) 0.51102(19)
C9_7 C 0.12577(14) 0.86179(13) 0.50424(19)
H4_7 H 0.113405 0.878328 0.503976
C10_7 C 0.15515(15) 0.86479(13) 0.4978(2)
C11_7 C 0.17324(12) 0.84059(17) 0.4982(2)
C12_7 C 0.16196(15) 0.81339(13) 0.5050(2)
H5_7 H 0.174326 0.796855 0.505259
C13_7 C 0.13258(16) 0.81039(12) 0.5114(2)
H6_7 H 0.124869 0.791805 0.516040
C14_7 C 0.33644(14) 0.60951(11) 0.46683(18)
C15_7 C 0.36425(12) 0.62128(13) 0.46777(18)
H7_7 H 0.380702 0.608843 0.468887
C16_7 C 0.36800(11) 0.65126(13) 0.4671(2)
C17_7 C 0.34393(15) 0.66946(10) 0.4654(2)
C18_7 C 0.31612(12) 0.65768(14) 0.4645(2)
H8_7 H 0.299675 0.670121 0.463369
C19_7 C 0.31238(11) 0.62771(15) 0.46519(19)
H9_7 H 0.293367 0.619658 0.464544
C20_7 C 0.4749(2) 0.6851(3) 0.4719(2)
C21_7 C 0.44262(11) 0.68973(15) 0.4713(2)
C22_7 C 0.43163(15) 0.71788(12) 0.4709(2)
H10_7 H 0.444500 0.734002 0.471760
C23_7 C 0.40181(16) 0.72243(11) 0.4691(2)
H11_7 H 0.394299 0.741664 0.468793
C24_7 C 0.38298(12) 0.69883(15) 0.4678(2)
C25_7 C 0.39396(13) 0.67069(12) 0.4682(2)
C26_7 C 0.42378(14) 0.66614(11) 0.46997(19)
H12_7 H 0.431294 0.646901 0.470268
C27_7 C 0.0830(3) 0.8305(3) 0.5179(3)
C28_7 C 0.3319(3) 0.5772(2) 0.4683(2)
C29_7 C 0.29418(19) 0.76795(19) 0.4739(3)
C30_7 C 0.3154(2) 0.7639(2) 0.4951(2)
H13_7 H 0.316298 0.776682 0.511340
C31_7 C 0.3352(2) 0.7412(2) 0.4926(2)
H14_7 H 0.349631 0.738497 0.507045
C32_7 C 0.3338(2) 0.7226(2) 0.4688(3)
C33_7 C 0.3126(2) 0.7266(2) 0.4477(2)
H15_7 H 0.311666 0.713856 0.431451
C34_7 C 0.2928(2) 0.7493(2) 0.4502(2)
H16_7 H 0.278332 0.752041 0.435745
C35_7 C 0.2261(2) 0.8295(2) 0.4909(3)
C36_7 C 0.2387(3) 0.8261(3) 0.4636(3)
H17_7 H 0.231856 0.837242 0.447599
C37_7 C 0.2612(3) 0.8063(3) 0.4597(3)
H18_7 H 0.269789 0.803984 0.441059
C38_7 C 0.2712(2) 0.7900(3) 0.4831(4)
C39_7 C 0.2586(3) 0.7934(3) 0.5104(3)
H19_7 H 0.265443 0.782257 0.526336
C40_7 C 0.2361(3) 0.8132(3) 0.5142(3)
H20_7 H 0.227511 0.815515 0.532877
Cu3_4 Cu 0.02457(3) 0.85086(2) 0.51939(2)
Cu5_7 Cu 0.35086(2) 0.51939(2) 0.47543(3)
Cu6_4 Cu 0.03304(3) 0.79547(2) 0.52723(3)
Cu8_7 Cu 0.29547(2) 0.52723(3) 0.46696(3)
O11_4 O 0.56548(15) 0.64644(14) 0.48594(14)
O12_4 O 0.57396(16) 0.69439(15) 0.47499(16)
O13_7 O 0.52079(15) 0.66032(13) 0.52165(14)
O14_7 O 0.53112(17) 0.70677(14) 0.51515(16)
O15_7 O 0.52978(14) 0.64533(13) 0.43872(14)
O16_7 O 0.53417(16) 0.69378(15) 0.43214(16)
H21_7 H 0.531294 0.761287 0.48084
H22_7 H 0.561538 0.753602 0.464443
H23_7 H 0.507999 0.594928 0.471322
H24_7 H 0.536127 0.594154 0.492557
O9_8 O 0.04031(18) 0.75028(15) 0.5350(2)
O10_8 O 0.01727(18) 0.89610(14) 0.51137(17)
O13_8 O 0.02079(15) 0.83968(13) 0.47835(14)
O14_8 O 0.03112(17) 0.79323(14) 0.48485(16)
O15_8 O 0.02978(14) 0.85467(13) 0.56128(14)
O16_8 O 0.03417(16) 0.80622(15) 0.56786(16)
H21_8 H 0.0312936 0.738713 0.51916
H22_8 H 0.0615378 0.746398 0.535557
H23_8 H 0.00799949 0.905072 0.528678
H24_8 H 0.0361271 0.905846 0.507443
O1_8 O 0.98342(14) 0.84176(13) 0.52559(14)
O2_8 O 0.99091(17) 0.79272(14) 0.52793(17)
O7_8 O 0.85467(13) 0.93872(14) 0.52978(14)
O8_8 O 0.80622(15) 0.93214(16) 0.53417(16)
N1_8 N 0.7013(2) 0.6511(2) 0.5082(3)
N2_8 N 0.8524(2) 0.8020(2) 0.5334(3)
C1_8 C 0.6857(2) 0.5312(2) 0.5246(3)
C2_8 C 0.69117(16) 0.56265(11) 0.5207(2)
C3_8 C 0.66855(12) 0.58083(15) 0.5122(2)
H1_8 H 0.649671 0.573056 0.509116
C4_8 C 0.67354(14) 0.61038(14) 0.5084(2)
C5_8 C 0.70116(16) 0.62176(12) 0.5130(2)
C6_8 C 0.72378(12) 0.60358(16) 0.5214(2)
H2_8 H 0.742661 0.611350 0.524521
C7_8 C 0.71879(13) 0.57402(15) 0.5252(2)
H3_8 H 0.734250 0.561598 0.530985
C8_8 C 0.61449(12) 0.66541(15) 0.48898(19)
C9_8 C 0.62577(14) 0.63821(13) 0.49576(19)
H4_8 H 0.613405 0.621672 0.496024
C10_8 C 0.65515(15) 0.63521(13) 0.5022(2)
C11_8 C 0.67324(12) 0.65941(17) 0.5018(2)
C12_8 C 0.66196(15) 0.68661(13) 0.4950(2)
H5_8 H 0.674326 0.703145 0.494741
C13_8 C 0.63258(16) 0.68961(12) 0.4886(2)
H6_8 H 0.624869 0.708195 0.483960
C14_8 C 0.83644(14) 0.89049(11) 0.53317(18)
C15_8 C 0.86425(12) 0.87872(13) 0.53223(18)
H7_8 H 0.880702 0.891157 0.531113
C16_8 C 0.86800(11) 0.84874(13) 0.5329(2)
C17_8 C 0.84393(15) 0.83054(10) 0.5346(2)
C18_8 C 0.81612(12) 0.84232(14) 0.5355(2)
H8_8 H 0.799675 0.829879 0.536631
C19_8 C 0.81238(11) 0.87229(15) 0.53481(19)
H9_8 H 0.793367 0.880342 0.535456
C20_8 C 0.9749(2) 0.8149(3) 0.5281(2)
C21_8 C 0.94262(11) 0.81027(15) 0.5287(2)
C22_8 C 0.93163(15) 0.78212(12) 0.5291(2)
H10_8 H 0.944500 0.765998 0.528240
C23_8 C 0.90181(16) 0.77757(11) 0.5309(2)
H11_8 H 0.894299 0.758336 0.531207
C24_8 C 0.88298(12) 0.80117(15) 0.5322(2)
C25_8 C 0.89396(13) 0.82931(12) 0.5318(2)
C26_8 C 0.92378(14) 0.83386(11) 0.53003(19)
H12_8 H 0.931294 0.853099 0.529732
C27_8 C 0.5830(3) 0.6695(3) 0.4821(3)
C28_8 C 0.8319(3) 0.9228(2) 0.5317(2)
C29_8 C 0.79418(19) 0.73205(19) 0.5261(3)
C30_8 C 0.8154(2) 0.7361(2) 0.5049(2)
H13_8 H 0.816298 0.723318 0.488660
C31_8 C 0.8352(2) 0.7588(2) 0.5074(2)
H14_8 H 0.849631 0.761503 0.492955
C32_8 C 0.8338(2) 0.7774(2) 0.5312(3)
C33_8 C 0.8126(2) 0.7734(2) 0.5523(2)
H15_8 H 0.811666 0.786144 0.568549
C34_8 C 0.7928(2) 0.7507(2) 0.5498(2)
H16_8 H 0.778332 0.747959 0.564255
C35_8 C 0.7261(2) 0.6705(2) 0.5091(3)
C36_8 C 0.7387(3) 0.6739(3) 0.5364(3)
H17_8 H 0.731856 0.662758 0.552401
C37_8 C 0.7612(3) 0.6937(3) 0.5403(3)
H18_8 H 0.769789 0.696016 0.558941
C38_8 C 0.7712(2) 0.7100(3) 0.5169(4)
C39_8 C 0.7586(3) 0.7066(3) 0.4896(3)
H19_8 H 0.765443 0.717743 0.473664
C40_8 C 0.7361(3) 0.6868(3) 0.4858(3)
H20_8 H 0.727511 0.684485 0.467123
Cu5_8 Cu 0.85086(2) 0.98061(2) 0.52457(3)
Cu8_8 Cu 0.79547(2) 0.97277(3) 0.53304(3)
O3_5 O 0.01406(14) 0.43452(15) 0.14644(14)
O4_5 O 0.02501(16) 0.42604(16) 0.19439(15)
C8_9 C 0.01102(19) 0.38551(12) 0.16541(15)
C9_9 C 0.00424(19) 0.37423(14) 0.13821(13)
H4_9 H 0.003976 0.386595 0.121672
C12_9 C 0.0050(2) 0.33804(15) 0.18661(13)
H5_9 H 0.005259 0.325674 0.203145
C13_9 C 0.0114(2) 0.36742(16) 0.18961(12)
H6_9 H 0.016040 0.375131 0.208195
C27_9 C 0.0179(3) 0.4170(3) 0.1695(3)
H13_9 H 0.011340 0.183702 0.223318
H14_9 H 0.007045 0.150369 0.261503
C39_9 C 0.0104(3) 0.2414(3) 0.2066(3)
H19_9 H 0.026336 0.234557 0.217743
C40_9 C 0.0142(3) 0.2639(3) 0.1868(3)
H20_9 H 0.032877 0.272489 0.184485
O1_9 O 0.97441(14) 0.01658(14) 0.34176(13)
O2_9 O 0.97207(17) 0.00909(17) 0.29272(14)
O7_9 O 0.97022(14) 0.14533(13) 0.43872(14)
O8_9 O 0.96583(16) 0.19378(15) 0.43214(16)
N1_9 N 0.9918(3) 0.2987(2) 0.1511(2)
N2_9 N 0.9666(3) 0.1476(2) 0.3020(2)
C1_9 C 0.9754(3) 0.3143(2) 0.0312(2)
C2_9 C 0.9793(2) 0.30883(16) 0.06265(11)
C3_9 C 0.9878(2) 0.33145(12) 0.08083(15)
H1_9 H 0.990884 0.350329 0.073056
C4_9 C 0.9916(2) 0.32646(14) 0.11038(14)
C5_9 C 0.9870(2) 0.29884(16) 0.12176(12)
C6_9 C 0.9786(2) 0.27622(12) 0.10358(16)
H2_9 H 0.975479 0.257339 0.111350
C7_9 C 0.9748(2) 0.28121(13) 0.07402(15)
H3_9 H 0.969015 0.265750 0.061598
C10_9 C 0.9978(2) 0.34485(15) 0.13521(13)
C11_9 C 0.9982(2) 0.32676(12) 0.15941(17)
C14_9 C 0.96683(18) 0.16356(14) 0.39049(11)
C15_9 C 0.96777(18) 0.13575(12) 0.37872(13)
H7_9 H 0.968887 0.119298 0.391157
C16_9 C 0.9671(2) 0.13200(11) 0.34874(13)
C17_9 C 0.9654(2) 0.15607(15) 0.33054(10)
C18_9 C 0.9645(2) 0.18388(12) 0.34232(14)
H8_9 H 0.963369 0.200325 0.329879
C19_9 C 0.96519(19) 0.18762(11) 0.37229(15)
H9_9 H 0.964544 0.206633 0.380342
C20_9 C 0.9719(2) 0.0251(2) 0.3149(3)
C21_9 C 0.9713(2) 0.05738(11) 0.31027(15)
C22_9 C 0.9709(2) 0.06837(15) 0.28212(12)
H10_9 H 0.971760 0.055500 0.265998
C23_9 C 0.9691(2) 0.09819(16) 0.27757(11)
H11_9 H 0.968793 0.105701 0.258336
C24_9 C 0.9678(2) 0.11702(12) 0.30117(15)
C25_9 C 0.9682(2) 0.10604(13) 0.32931(12)
C26_9 C 0.96997(19) 0.07622(14) 0.33386(11)
H12_9 H 0.970268 0.068706 0.353099
C28_9 C 0.9683(2) 0.1681(3) 0.4228(2)
C29_9 C 0.9739(3) 0.20582(19) 0.23205(19)
C30_9 C 0.9951(2) 0.1846(2) 0.2361(2)
C31_9 C 0.9926(2) 0.1648(2) 0.2588(2)
C32_9 C 0.9688(3) 0.1662(2) 0.2774(2)
C33_9 C 0.9477(2) 0.1874(2) 0.2734(2)
H15_9 H 0.931451 0.188334 0.286144
C34_9 C 0.9502(2) 0.2072(2) 0.2507(2)
H16_9 H 0.935745 0.221668 0.247959
C35_9 C 0.9909(3) 0.2739(2) 0.1705(2)
C36_9 C 0.9636(3) 0.2613(3) 0.1739(3)
H17_9 H 0.947599 0.268144 0.162758
C37_9 C 0.9597(3) 0.2388(3) 0.1937(3)
H18_9 H 0.941059 0.230211 0.196016
C38_9 C 0.9831(4) 0.2288(2) 0.2100(3)
Cu5_9 Cu 0.97543(3) 0.14914(2) 0.48061(2)
Cu8_9 Cu 0.96696(3) 0.20453(2) 0.47277(3)
O9_9 O 0.9650(2) 0.95969(18) 0.25028(15)
O10_9 O 0.98863(17) 0.98273(18) 0.39610(14)
O11_5 O 0.98594(14) 0.93452(15) 0.35356(14)
O12_5 O 0.97499(16) 0.92604(16) 0.30561(15)
O15_9 O 0.93872(14) 0.97022(14) 0.35467(13)
O16_9 O 0.93214(16) 0.96583(16) 0.30622(15)
H21_9 H 0.98084 0.968706 0.238713
H22_9 H 0.964443 0.938462 0.246398
H23_9 H 0.971322 0.992001 0.405072
H24_9 H 0.992557 0.963873 0.405846
O1_10 O 0.02559(14) 0.51658(14) 0.15824(13)
O2_10 O 0.02793(17) 0.50909(17) 0.20728(14)
O7_10 O 0.02978(14) 0.64533(13) 0.06128(14)
O8_10 O 0.03417(16) 0.69378(15) 0.06786(16)
O9_10 O 0.0350(2) 0.45969(18) 0.24972(15)
O10_10 O 0.01137(17) 0.48273(18) 0.10390(14)
N1_10 N 0.0082(3) 0.7987(2) 0.3489(2)
N2_10 N 0.0334(3) 0.6476(2) 0.1980(2)
C1_10 C 0.0246(3) 0.8143(2) 0.4688(2)
C2_10 C 0.0207(2) 0.80883(16) 0.43735(11)
C3_10 C 0.0122(2) 0.83145(12) 0.41917(15)
H1_10 H 0.009116 0.850329 0.426944
C4_10 C 0.0084(2) 0.82646(14) 0.38962(14)
C5_10 C 0.0130(2) 0.79884(16) 0.37824(12)
C6_10 C 0.0214(2) 0.77622(12) 0.39642(16)
H2_10 H 0.024521 0.757339 0.388650
C7_10 C 0.0252(2) 0.78121(13) 0.42598(15)
H3_10 H 0.030985 0.765750 0.438402
C10_10 C 0.0022(2) 0.84485(15) 0.36479(13)
C11_10 C 0.0018(2) 0.82676(12) 0.34059(17)
C14_10 C 0.03317(18) 0.66356(14) 0.10951(11)
C15_10 C 0.03223(18) 0.63575(12) 0.12128(13)
H7_10 H 0.031113 0.619298 0.108843
C16_10 C 0.0329(2) 0.63200(11) 0.15126(13)
C17_10 C 0.0346(2) 0.65607(15) 0.16946(10)
C18_10 C 0.0355(2) 0.68388(12) 0.15768(14)
H8_10 H 0.036631 0.700325 0.170121
C19_10 C 0.03481(19) 0.68762(11) 0.12771(15)
H9_10 H 0.035456 0.706633 0.119658
C20_10 C 0.0281(2) 0.5251(2) 0.1851(3)
C21_10 C 0.0287(2) 0.55738(11) 0.18973(15)
C22_10 C 0.0291(2) 0.56837(15) 0.21788(12)
H10_10 H 0.028240 0.555500 0.234002
C23_10 C 0.0309(2) 0.59819(16) 0.22243(11)
H11_10 H 0.031207 0.605701 0.241664
C24_10 C 0.0322(2) 0.61702(12) 0.19883(15)
C25_10 C 0.0318(2) 0.60604(13) 0.17069(12)
C26_10 C 0.03003(19) 0.57622(14) 0.16614(11)
H12_10 H 0.029732 0.568706 0.146901
C28_10 C 0.0317(2) 0.6681(3) 0.0772(2)
C29_10 C 0.0261(3) 0.70582(19) 0.26795(19)
C30_10 C 0.0049(2) 0.6846(2) 0.2639(2)
C31_10 C 0.0074(2) 0.6648(2) 0.2412(2)
C32_10 C 0.0312(3) 0.6662(2) 0.2226(2)
C33_10 C 0.0523(2) 0.6874(2) 0.2266(2)
H15_10 H 0.068549 0.688334 0.213856
C34_10 C 0.0498(2) 0.7072(2) 0.2493(2)
H16_10 H 0.064255 0.721668 0.252041
C35_10 C 0.0091(3) 0.7739(2) 0.3295(2)
C36_10 C 0.0364(3) 0.7613(3) 0.3261(3)
H17_10 H 0.052401 0.768144 0.337242
C37_10 C 0.0403(3) 0.7388(3) 0.3063(3)
H18_10 H 0.058941 0.730211 0.303984
C38_10 C 0.0169(4) 0.7288(2) 0.2900(3)
Cu5_10 Cu 0.02457(3) 0.64914(2) 0.01939(2)
Cu8_10 Cu 0.03304(3) 0.70453(2) 0.02723(3)
O15_10 O 0.06128(14) 0.47022(14) 0.14533(13)
O16_10 O 0.06786(16) 0.46583(16) 0.19378(15)
H21_10 H 0.0191597 0.468706 0.261287
H22_10 H 0.0355575 0.438462 0.253602
H23_10 H 0.0286778 0.492001 0.0949281
H24_10 H 0.00744348 0.463873 0.0941538
C8_10 C 0.98898(19) 0.88551(12) 0.33459(15)
C9_10 C 0.99576(19) 0.87423(14) 0.36179(13)
H4_10 H 0.996024 0.886595 0.378328
C12_10 C 0.9950(2) 0.83804(15) 0.31339(13)
H5_10 H 0.994741 0.825674 0.296855
C13_10 C 0.9886(2) 0.86742(16) 0.31039(12)
H6_10 H 0.983960 0.875131 0.291805
C27_10 C 0.9821(3) 0.9170(3) 0.3305(3)
H13_10 H 0.988660 0.683702 0.276682
H14_10 H 0.992955 0.650369 0.238497
C39_10 C 0.9896(3) 0.7414(3) 0.2934(3)
H19_10 H 0.973664 0.734557 0.282257
C40_10 C 0.9858(3) 0.7639(3) 0.3132(3)
H20_10 H 0.967123 0.772489 0.315515
O1_11 O 0.47441(14) 0.48342(14) 0.65824(13)
O2_11 O 0.47207(17) 0.49091(17) 0.70728(14)
O3_6 O 0.51406(14) 0.06548(15) 0.85356(14)
O4_6 O 0.52501(16) 0.07396(16) 0.80561(15)
O7_11 O 0.47022(14) 0.35467(13) 0.56128(14)
O8_11 O 0.46583(16) 0.30622(15) 0.56786(16)
O9_11 O 0.4650(2) 0.54031(18) 0.74972(15)
O10_11 O 0.48863(17) 0.51727(18) 0.60390(14)
N1_11 N 0.4918(3) 0.2013(2) 0.8489(2)
N2_11 N 0.4666(3) 0.3524(2) 0.6980(2)
C1_11 C 0.4754(3) 0.1857(2) 0.9688(2)
C2_11 C 0.4793(2) 0.19117(16) 0.93735(11)
C3_11 C 0.4878(2) 0.16855(12) 0.91917(15)
H1_11 H 0.490884 0.149671 0.926944
C4_11 C 0.4916(2) 0.17354(14) 0.88962(14)
C5_11 C 0.4870(2) 0.20116(16) 0.87824(12)
C6_11 C 0.4786(2) 0.22378(12) 0.89642(16)
H2_11 H 0.475479 0.242661 0.888650
C7_11 C 0.4748(2) 0.21879(13) 0.92598(15)
H3_11 H 0.469015 0.234250 0.938402
C8_11 C 0.51102(19) 0.11449(12) 0.83459(15)
C9_11 C 0.50424(19) 0.12577(14) 0.86179(13)
H4_11 H 0.503976 0.113405 0.878328
C10_11 C 0.4978(2) 0.15515(15) 0.86479(13)
C11_11 C 0.4982(2) 0.17324(12) 0.84059(17)
C12_11 C 0.5050(2) 0.16196(15) 0.81339(13)
H5_11 H 0.505259 0.174326 0.796855
C13_11 C 0.5114(2) 0.13258(16) 0.81039(12)
H6_11 H 0.516040 0.124869 0.791805
C14_11 C 0.46683(18) 0.33644(14) 0.60951(11)
C15_11 C 0.46777(18) 0.36425(12) 0.62128(13)
H7_11 H 0.468887 0.380702 0.608843
C16_11 C 0.4671(2) 0.36800(11) 0.65126(13)
C17_11 C 0.4654(2) 0.34393(15) 0.66946(10)
C18_11 C 0.4645(2) 0.31612(12) 0.65768(14)
H8_11 H 0.463369 0.299675 0.670121
C19_11 C 0.46519(19) 0.31238(11) 0.62771(15)
H9_11 H 0.464544 0.293367 0.619658
C20_11 C 0.4719(2) 0.4749(2) 0.6851(3)
C21_11 C 0.4713(2) 0.44262(11) 0.68973(15)
C22_11 C 0.4709(2) 0.43163(15) 0.71788(12)
H10_11 H 0.471760 0.444500 0.734002
C23_11 C 0.4691(2) 0.40181(16) 0.72243(11)
H11_11 H 0.468793 0.394299 0.741664
C24_11 C 0.4678(2) 0.38298(12) 0.69883(15)
C25_11 C 0.4682(2) 0.39396(13) 0.67069(12)
C26_11 C 0.46997(19) 0.42378(14) 0.66614(11)
H12_11 H 0.470268 0.431294 0.646901
C27_11 C 0.5179(3) 0.0830(3) 0.8305(3)
C28_11 C 0.4683(2) 0.3319(3) 0.5772(2)
C29_11 C 0.4739(3) 0.29418(19) 0.76795(19)
C30_11 C 0.4951(2) 0.3154(2) 0.7639(2)
H13_11 H 0.511340 0.316298 0.776682
C31_11 C 0.4926(2) 0.3352(2) 0.7412(2)
H14_11 H 0.507045 0.349631 0.738497
C32_11 C 0.4688(3) 0.3338(2) 0.7226(2)
C33_11 C 0.4477(2) 0.3126(2) 0.7266(2)
H15_11 H 0.431451 0.311666 0.713856
C34_11 C 0.4502(2) 0.2928(2) 0.7493(2)
H16_11 H 0.435745 0.278332 0.752041
C35_11 C 0.4909(3) 0.2261(2) 0.8295(2)
C36_11 C 0.4636(3) 0.2387(3) 0.8261(3)
H17_11 H 0.447599 0.231856 0.837242
C37_11 C 0.4597(3) 0.2612(3) 0.8063(3)
H18_11 H 0.441059 0.269789 0.803984
C38_11 C 0.4831(4) 0.2712(2) 0.7900(3)
C39_11 C 0.5104(3) 0.2586(3) 0.7934(3)
H19_11 H 0.526336 0.265443 0.782257
C40_11 C 0.5142(3) 0.2361(3) 0.8132(3)
H20_11 H 0.532877 0.227511 0.815515
Cu5_11 Cu 0.47543(3) 0.35086(2) 0.51939(2)
Cu8_11 Cu 0.46696(3) 0.29547(2) 0.52723(3)
O11_6 O 0.48594(14) 0.56548(15) 0.64644(14)
O12_6 O 0.47499(16) 0.57396(16) 0.69439(15)
O15_11 O 0.43872(14) 0.52978(14) 0.64533(13)
O16_11 O 0.43214(16) 0.53417(16) 0.69378(15)
H21_11 H 0.48084 0.531294 0.761287
H22_11 H 0.464443 0.561538 0.753602
H23_11 H 0.471322 0.507999 0.594928
H24_11 H 0.492557 0.536127 0.594154
O9_12 O 0.5350(2) 0.04031(18) 0.75028(15)
O10_12 O 0.51137(17) 0.01727(18) 0.89610(14)
O15_12 O 0.56128(14) 0.02978(14) 0.85467(13)
O16_12 O 0.56786(16) 0.03417(16) 0.80622(15)
H21_12 H 0.51916 0.0312936 0.738713
H22_12 H 0.535557 0.0615378 0.746398
H23_12 H 0.528678 0.00799949 0.905072
H24_12 H 0.507443 0.0361271 0.905846
O1_12 O 0.52559(14) 0.98342(14) 0.84176(13)
O2_12 O 0.52793(17) 0.99091(17) 0.79272(14)
O7_12 O 0.52978(14) 0.85467(13) 0.93872(14)
O8_12 O 0.53417(16) 0.80622(15) 0.93214(16)
N1_12 N 0.5082(3) 0.7013(2) 0.6511(2)
N2_12 N 0.5334(3) 0.8524(2) 0.8020(2)
C1_12 C 0.5246(3) 0.6857(2) 0.5312(2)
C2_12 C 0.5207(2) 0.69117(16) 0.56265(11)
C3_12 C 0.5122(2) 0.66855(12) 0.58083(15)
H1_12 H 0.509116 0.649671 0.573056
C4_12 C 0.5084(2) 0.67354(14) 0.61038(14)
C5_12 C 0.5130(2) 0.70116(16) 0.62176(12)
C6_12 C 0.5214(2) 0.72378(12) 0.60358(16)
H2_12 H 0.524521 0.742661 0.611350
C7_12 C 0.5252(2) 0.71879(13) 0.57402(15)
H3_12 H 0.530985 0.734250 0.561598
C8_12 C 0.48898(19) 0.61449(12) 0.66541(15)
C9_12 C 0.49576(19) 0.62577(14) 0.63821(13)
H4_12 H 0.496024 0.613405 0.621672
C10_12 C 0.5022(2) 0.65515(15) 0.63521(13)
C11_12 C 0.5018(2) 0.67324(12) 0.65941(17)
C12_12 C 0.4950(2) 0.66196(15) 0.68661(13)
H5_12 H 0.494741 0.674326 0.703145
C13_12 C 0.4886(2) 0.63258(16) 0.68961(12)
H6_12 H 0.483960 0.624869 0.708195
C14_12 C 0.53317(18) 0.83644(14) 0.89049(11)
C15_12 C 0.53223(18) 0.86425(12) 0.87872(13)
H7_12 H 0.531113 0.880702 0.891157
C16_12 C 0.5329(2) 0.86800(11) 0.84874(13)
C17_12 C 0.5346(2) 0.84393(15) 0.83054(10)
C18_12 C 0.5355(2) 0.81612(12) 0.84232(14)
H8_12 H 0.536631 0.799675 0.829879
C19_12 C 0.53481(19) 0.81238(11) 0.87229(15)
H9_12 H 0.535456 0.793367 0.880342
C20_12 C 0.5281(2) 0.9749(2) 0.8149(3)
C21_12 C 0.5287(2) 0.94262(11) 0.81027(15)
C22_12 C 0.5291(2) 0.93163(15) 0.78212(12)
H10_12 H 0.528240 0.944500 0.765998
C23_12 C 0.5309(2) 0.90181(16) 0.77757(11)
H11_12 H 0.531207 0.894299 0.758336
C24_12 C 0.5322(2) 0.88298(12) 0.80117(15)
C25_12 C 0.5318(2) 0.89396(13) 0.82931(12)
C26_12 C 0.53003(19) 0.92378(14) 0.83386(11)
H12_12 H 0.529732 0.931294 0.853099
C27_12 C 0.4821(3) 0.5830(3) 0.6695(3)
C28_12 C 0.5317(2) 0.8319(3) 0.9228(2)
C29_12 C 0.5261(3) 0.79418(19) 0.73205(19)
C30_12 C 0.5049(2) 0.8154(2) 0.7361(2)
H13_12 H 0.488660 0.816298 0.723318
C31_12 C 0.5074(2) 0.8352(2) 0.7588(2)
H14_12 H 0.492955 0.849631 0.761503
C32_12 C 0.5312(3) 0.8338(2) 0.7774(2)
C33_12 C 0.5523(2) 0.8126(2) 0.7734(2)
H15_12 H 0.568549 0.811666 0.786144
C34_12 C 0.5498(2) 0.7928(2) 0.7507(2)
H16_12 H 0.564255 0.778332 0.747959
C35_12 C 0.5091(3) 0.7261(2) 0.6705(2)
C36_12 C 0.5364(3) 0.7387(3) 0.6739(3)
H17_12 H 0.552401 0.731856 0.662758
C37_12 C 0.5403(3) 0.7612(3) 0.6937(3)
H18_12 H 0.558941 0.769789 0.696016
C38_12 C 0.5169(4) 0.7712(2) 0.7100(3)
C39_12 C 0.4896(3) 0.7586(3) 0.7066(3)
H19_12 H 0.473664 0.765443 0.717743
C40_12 C 0.4858(3) 0.7361(3) 0.6868(3)
H20_12 H 0.467123 0.727511 0.684485
Cu5_12 Cu 0.52457(3) 0.85086(2) 0.98061(2)
Cu8_12 Cu 0.53304(3) 0.79547(2) 0.97277(3)
O9_13 O 0.74972(15) 0.0350(2) 0.04031(18)
O10_13 O 0.60390(14) 0.01137(17) 0.01727(18)
O11_7 O 0.64644(14) 0.01406(14) 0.06548(15)
O12_7 O 0.69439(15) 0.02501(16) 0.07396(16)
H21_13 H 0.761287 0.0191597 0.0312936
H22_13 H 0.753602 0.0355575 0.0615378
H23_13 H 0.594928 0.0286778 0.00799949
H24_13 H 0.594154 0.00744348 0.0361271
O1_13 O 0.65824(13) 0.02559(14) 0.98342(14)
O2_13 O 0.70728(14) 0.02793(17) 0.99091(17)
O5_5 O 0.97835(14) 0.02079(15) 0.66032(13)
O6_5 O 0.98485(16) 0.03112(17) 0.70677(14)
N1_13 N 0.8489(2) 0.0082(3) 0.7013(2)
N2_13 N 0.6980(2) 0.0334(3) 0.8524(2)
C1_13 C 0.9688(2) 0.0246(3) 0.6857(2)
C2_13 C 0.93735(11) 0.0207(2) 0.69117(16)
C3_13 C 0.91917(15) 0.0122(2) 0.66855(12)
H1_13 H 0.926944 0.009116 0.649671
C4_13 C 0.88962(14) 0.0084(2) 0.67354(14)
C5_13 C 0.87824(12) 0.0130(2) 0.70116(16)
C6_13 C 0.89642(16) 0.0214(2) 0.72378(12)
H2_13 H 0.888650 0.024521 0.742661
C7_13 C 0.92598(15) 0.0252(2) 0.71879(13)
H3_13 H 0.938402 0.030985 0.734250
C10_13 C 0.86479(13) 0.0022(2) 0.65515(15)
C11_13 C 0.84059(17) 0.0018(2) 0.67324(12)
C14_13 C 0.60951(11) 0.03317(18) 0.83644(14)
C15_13 C 0.62128(13) 0.03223(18) 0.86425(12)
H7_13 H 0.608843 0.031113 0.880702
C16_13 C 0.65126(13) 0.0329(2) 0.86800(11)
C17_13 C 0.66946(10) 0.0346(2) 0.84393(15)
C18_13 C 0.65768(14) 0.0355(2) 0.81612(12)
H8_13 H 0.670121 0.036631 0.799675
C19_13 C 0.62771(15) 0.03481(19) 0.81238(11)
H9_13 H 0.619658 0.035456 0.793367
C20_13 C 0.6851(3) 0.0281(2) 0.9749(2)
C21_13 C 0.68973(15) 0.0287(2) 0.94262(11)
C22_13 C 0.71788(12) 0.0291(2) 0.93163(15)
H10_13 H 0.734002 0.028240 0.944500
C23_13 C 0.72243(11) 0.0309(2) 0.90181(16)
H11_13 H 0.741664 0.031207 0.894299
C24_13 C 0.69883(15) 0.0322(2) 0.88298(12)
C25_13 C 0.67069(12) 0.0318(2) 0.89396(13)
C26_13 C 0.66614(11) 0.03003(19) 0.92378(14)
H12_13 H 0.646901 0.029732 0.931294
C28_13 C 0.5772(2) 0.0317(2) 0.8319(3)
C29_13 C 0.76795(19) 0.0261(3) 0.79418(19)
C30_13 C 0.7639(2) 0.0049(2) 0.8154(2)
C31_13 C 0.7412(2) 0.0074(2) 0.8352(2)
C32_13 C 0.7226(2) 0.0312(3) 0.8338(2)
C33_13 C 0.7266(2) 0.0523(2) 0.8126(2)
H15_13 H 0.713856 0.068549 0.811666
C34_13 C 0.7493(2) 0.0498(2) 0.7928(2)
H16_13 H 0.752041 0.064255 0.778332
C35_13 C 0.8295(2) 0.0091(3) 0.7261(2)
C36_13 C 0.8261(3) 0.0364(3) 0.7387(3)
H17_13 H 0.837242 0.052401 0.731856
C37_13 C 0.8063(3) 0.0403(3) 0.7612(3)
H18_13 H 0.803984 0.058941 0.769789
C38_13 C 0.7900(3) 0.0169(4) 0.7712(2)
O13_9 O 0.66032(13) 0.97835(14) 0.02079(15)
O14_9 O 0.70677(14) 0.98485(16) 0.03112(17)
O3_7 O 0.85356(14) 0.98594(14) 0.56548(15)
O4_7 O 0.80561(15) 0.97499(16) 0.57396(16)
C8_13 C 0.83459(15) 0.98898(19) 0.61449(12)
C9_13 C 0.86179(13) 0.99576(19) 0.62577(14)
H4_13 H 0.878328 0.996024 0.613405
C12_13 C 0.81339(13) 0.9950(2) 0.66196(15)
H5_13 H 0.796855 0.994741 0.674326
C13_13 C 0.81039(12) 0.9886(2) 0.63258(16)
H6_13 H 0.791805 0.983960 0.624869
C27_13 C 0.8305(3) 0.9821(3) 0.5830(3)
H13_13 H 0.776682 0.988660 0.816298
H14_13 H 0.738497 0.992955 0.849631
C39_13 C 0.7934(3) 0.9896(3) 0.7586(3)
H19_13 H 0.782257 0.973664 0.765443
C40_13 C 0.8132(3) 0.9858(3) 0.7361(3)
H20_13 H 0.815515 0.967123 0.727511
C8_14 C 0.66541(15) 0.01102(19) 0.11449(12)
C9_14 C 0.63821(13) 0.00424(19) 0.12577(14)
H4_14 H 0.621672 0.003976 0.113405
C12_14 C 0.68661(13) 0.0050(2) 0.16196(15)
H5_14 H 0.703145 0.005259 0.174326
C13_14 C 0.68961(12) 0.0114(2) 0.13258(16)
H6_14 H 0.708195 0.016040 0.124869
C27_14 C 0.6695(3) 0.0179(3) 0.0830(3)
H13_14 H 0.723318 0.011340 0.316298
H14_14 H 0.761503 0.007045 0.349631
C39_14 C 0.7066(3) 0.0104(3) 0.2586(3)
H19_14 H 0.717743 0.026336 0.265443
C40_14 C 0.6868(3) 0.0142(3) 0.2361(3)
H20_14 H 0.684485 0.032877 0.227511
O13_10 O 0.83968(13) 0.02165(14) 0.52079(15)
O14_10 O 0.79323(14) 0.01515(16) 0.53112(17)
O1_14 O 0.84176(13) 0.97441(14) 0.48342(14)
O2_14 O 0.79272(14) 0.97207(17) 0.49091(17)
O5_6 O 0.52165(14) 0.97921(15) 0.16032(13)
O6_6 O 0.51515(16) 0.96888(17) 0.20677(14)
O9_14 O 0.75028(15) 0.9650(2) 0.54031(18)
O10_14 O 0.89610(14) 0.98863(17) 0.51727(18)
N1_14 N 0.6511(2) 0.9918(3) 0.2013(2)
N2_14 N 0.8020(2) 0.9666(3) 0.3524(2)
C1_14 C 0.5312(2) 0.9754(3) 0.1857(2)
C2_14 C 0.56265(11) 0.9793(2) 0.19117(16)
C3_14 C 0.58083(15) 0.9878(2) 0.16855(12)
H1_14 H 0.573056 0.990884 0.149671
C4_14 C 0.61038(14) 0.9916(2) 0.17354(14)
C5_14 C 0.62176(12) 0.9870(2) 0.20116(16)
C6_14 C 0.60358(16) 0.9786(2) 0.22378(12)
H2_14 H 0.611350 0.975479 0.242661
C7_14 C 0.57402(15) 0.9748(2) 0.21879(13)
H3_14 H 0.561598 0.969015 0.234250
C10_14 C 0.63521(13) 0.9978(2) 0.15515(15)
C11_14 C 0.65941(17) 0.9982(2) 0.17324(12)
C14_14 C 0.89049(11) 0.96683(18) 0.33644(14)
C15_14 C 0.87872(13) 0.96777(18) 0.36425(12)
H7_14 H 0.891157 0.968887 0.380702
C16_14 C 0.84874(13) 0.9671(2) 0.36800(11)
C17_14 C 0.83054(10) 0.9654(2) 0.34393(15)
C18_14 C 0.84232(14) 0.9645(2) 0.31612(12)
H8_14 H 0.829879 0.963369 0.299675
C19_14 C 0.87229(15) 0.96519(19) 0.31238(11)
H9_14 H 0.880342 0.964544 0.293367
C20_14 C 0.8149(3) 0.9719(2) 0.4749(2)
C21_14 C 0.81027(15) 0.9713(2) 0.44262(11)
C22_14 C 0.78212(12) 0.9709(2) 0.43163(15)
H10_14 H 0.765998 0.971760 0.444500
C23_14 C 0.77757(11) 0.9691(2) 0.40181(16)
H11_14 H 0.758336 0.968793 0.394299
C24_14 C 0.80117(15) 0.9678(2) 0.38298(12)
C25_14 C 0.82931(12) 0.9682(2) 0.39396(13)
C26_14 C 0.83386(11) 0.96997(19) 0.42378(14)
H12_14 H 0.853099 0.970268 0.431294
C28_14 C 0.9228(2) 0.9683(2) 0.3319(3)
C29_14 C 0.73205(19) 0.9739(3) 0.29418(19)
C30_14 C 0.7361(2) 0.9951(2) 0.3154(2)
C31_14 C 0.7588(2) 0.9926(2) 0.3352(2)
C32_14 C 0.7774(2) 0.9688(3) 0.3338(2)
C33_14 C 0.7734(2) 0.9477(2) 0.3126(2)
H15_14 H 0.786144 0.931451 0.311666
C34_14 C 0.7507(2) 0.9502(2) 0.2928(2)
H16_14 H 0.747959 0.935745 0.278332
C35_14 C 0.6705(2) 0.9909(3) 0.2261(2)
C36_14 C 0.6739(3) 0.9636(3) 0.2387(3)
H17_14 H 0.662758 0.947599 0.231856
C37_14 C 0.6937(3) 0.9597(3) 0.2612(3)
H18_14 H 0.696016 0.941059 0.269789
C38_14 C 0.7100(3) 0.9831(4) 0.2712(2)
H21_14 H 0.738713 0.98084 0.531294
H22_14 H 0.746398 0.964443 0.561538
H23_14 H 0.905072 0.971322 0.507999
H24_14 H 0.905846 0.992557 0.536127
O1_15 O 0.34176(13) 0.52559(14) 0.51658(14)
O2_15 O 0.29272(14) 0.52793(17) 0.50909(17)
O3_8 O 0.14644(14) 0.48594(14) 0.93452(15)
O4_8 O 0.19439(15) 0.47499(16) 0.92604(16)
O5_7 O 0.02165(14) 0.52079(15) 0.83968(13)
O6_7 O 0.01515(16) 0.53112(17) 0.79323(14)
O9_15 O 0.25028(15) 0.5350(2) 0.45969(18)
O10_15 O 0.39610(14) 0.51137(17) 0.48273(18)
N1_15 N 0.1511(2) 0.5082(3) 0.7987(2)
N2_15 N 0.3020(2) 0.5334(3) 0.6476(2)
C1_15 C 0.0312(2) 0.5246(3) 0.8143(2)
C2_15 C 0.06265(11) 0.5207(2) 0.80883(16)
C3_15 C 0.08083(15) 0.5122(2) 0.83145(12)
H1_15 H 0.073056 0.509116 0.850329
C4_15 C 0.11038(14) 0.5084(2) 0.82646(14)
C5_15 C 0.12176(12) 0.5130(2) 0.79884(16)
C6_15 C 0.10358(16) 0.5214(2) 0.77622(12)
H2_15 H 0.111350 0.524521 0.757339
C7_15 C 0.07402(15) 0.5252(2) 0.78121(13)
H3_15 H 0.061598 0.530985 0.765750
C8_15 C 0.16541(15) 0.48898(19) 0.88551(12)
C9_15 C 0.13821(13) 0.49576(19) 0.87423(14)
H4_15 H 0.121672 0.496024 0.886595
C10_15 C 0.13521(13) 0.5022(2) 0.84485(15)
C11_15 C 0.15941(17) 0.5018(2) 0.82676(12)
C12_15 C 0.18661(13) 0.4950(2) 0.83804(15)
H5_15 H 0.203145 0.494741 0.825674
C13_15 C 0.18961(12) 0.4886(2) 0.86742(16)
H6_15 H 0.208195 0.483960 0.875131
C14_15 C 0.39049(11) 0.53317(18) 0.66356(14)
C15_15 C 0.37872(13) 0.53223(18) 0.63575(12)
H7_15 H 0.391157 0.531113 0.619298
C16_15 C 0.34874(13) 0.5329(2) 0.63200(11)
C17_15 C 0.33054(10) 0.5346(2) 0.65607(15)
C18_15 C 0.34232(14) 0.5355(2) 0.68388(12)
H8_15 H 0.329879 0.536631 0.700325
C19_15 C 0.37229(15) 0.53481(19) 0.68762(11)
H9_15 H 0.380342 0.535456 0.706633
C20_15 C 0.3149(3) 0.5281(2) 0.5251(2)
C21_15 C 0.31027(15) 0.5287(2) 0.55738(11)
C22_15 C 0.28212(12) 0.5291(2) 0.56837(15)
H10_15 H 0.265998 0.528240 0.555500
C23_15 C 0.27757(11) 0.5309(2) 0.59819(16)
H11_15 H 0.258336 0.531207 0.605701
C24_15 C 0.30117(15) 0.5322(2) 0.61702(12)
C25_15 C 0.32931(12) 0.5318(2) 0.60604(13)
C26_15 C 0.33386(11) 0.53003(19) 0.57622(14)
H12_15 H 0.353099 0.529732 0.568706
C27_15 C 0.1695(3) 0.4821(3) 0.9170(3)
C28_15 C 0.4228(2) 0.5317(2) 0.6681(3)
C29_15 C 0.23205(19) 0.5261(3) 0.70582(19)
C30_15 C 0.2361(2) 0.5049(2) 0.6846(2)
H13_15 H 0.223318 0.488660 0.683702
C31_15 C 0.2588(2) 0.5074(2) 0.6648(2)
H14_15 H 0.261503 0.492955 0.650369
C32_15 C 0.2774(2) 0.5312(3) 0.6662(2)
C33_15 C 0.2734(2) 0.5523(2) 0.6874(2)
H15_15 H 0.286144 0.568549 0.688334
C34_15 C 0.2507(2) 0.5498(2) 0.7072(2)
H16_15 H 0.247959 0.564255 0.721668
C35_15 C 0.1705(2) 0.5091(3) 0.7739(2)
C36_15 C 0.1739(3) 0.5364(3) 0.7613(3)
H17_15 H 0.162758 0.552401 0.768144
C37_15 C 0.1937(3) 0.5403(3) 0.7388(3)
H18_15 H 0.196016 0.558941 0.730211
C38_15 C 0.2100(3) 0.5169(4) 0.7288(2)
C39_15 C 0.2066(3) 0.4896(3) 0.7414(3)
H19_15 H 0.217743 0.473664 0.734557
C40_15 C 0.1868(3) 0.4858(3) 0.7639(3)
H20_15 H 0.184485 0.467123 0.772489
O11_8 O 0.35356(14) 0.51406(14) 0.43452(15)
O12_8 O 0.30561(15) 0.52501(16) 0.42604(16)
O13_11 O 0.33968(13) 0.47835(14) 0.47921(15)
O14_11 O 0.29323(14) 0.48485(16) 0.46888(17)
H21_15 H 0.238713 0.51916 0.468706
H22_15 H 0.246398 0.535557 0.438462
H23_15 H 0.405072 0.528678 0.492001
H24_15 H 0.405846 0.507443 0.463873
O1_16 O 0.15824(13) 0.47441(14) 0.01658(14)
O2_16 O 0.20728(14) 0.47207(17) 0.00909(17)
O5_8 O 0.47835(14) 0.47921(15) 0.33968(13)
O6_8 O 0.48485(16) 0.46888(17) 0.29323(14)
N1_16 N 0.3489(2) 0.4918(3) 0.2987(2)
N2_16 N 0.1980(2) 0.4666(3) 0.1476(2)
C1_16 C 0.4688(2) 0.4754(3) 0.3143(2)
C2_16 C 0.43735(11) 0.4793(2) 0.30883(16)
C3_16 C 0.41917(15) 0.4878(2) 0.33145(12)
H1_16 H 0.426944 0.490884 0.350329
C4_16 C 0.38962(14) 0.4916(2) 0.32646(14)
C5_16 C 0.37824(12) 0.4870(2) 0.29884(16)
C6_16 C 0.39642(16) 0.4786(2) 0.27622(12)
H2_16 H 0.388650 0.475479 0.257339
C7_16 C 0.42598(15) 0.4748(2) 0.28121(13)
H3_16 H 0.438402 0.469015 0.265750
C8_16 C 0.33459(15) 0.51102(19) 0.38551(12)
C9_16 C 0.36179(13) 0.50424(19) 0.37423(14)
H4_16 H 0.378328 0.503976 0.386595
C10_16 C 0.36479(13) 0.4978(2) 0.34485(15)
C11_16 C 0.34059(17) 0.4982(2) 0.32676(12)
C12_16 C 0.31339(13) 0.5050(2) 0.33804(15)
H5_16 H 0.296855 0.505259 0.325674
C13_16 C 0.31039(12) 0.5114(2) 0.36742(16)
H6_16 H 0.291805 0.516040 0.375131
C14_16 C 0.10951(11) 0.46683(18) 0.16356(14)
C15_16 C 0.12128(13) 0.46777(18) 0.13575(12)
H7_16 H 0.108843 0.468887 0.119298
C16_16 C 0.15126(13) 0.4671(2) 0.13200(11)
C17_16 C 0.16946(10) 0.4654(2) 0.15607(15)
C18_16 C 0.15768(14) 0.4645(2) 0.18388(12)
H8_16 H 0.170121 0.463369 0.200325
C19_16 C 0.12771(15) 0.46519(19) 0.18762(11)
H9_16 H 0.119658 0.464544 0.206633
C20_16 C 0.1851(3) 0.4719(2) 0.0251(2)
C21_16 C 0.18973(15) 0.4713(2) 0.05738(11)
C22_16 C 0.21788(12) 0.4709(2) 0.06837(15)
H10_16 H 0.234002 0.471760 0.055500
C23_16 C 0.22243(11) 0.4691(2) 0.09819(16)
H11_16 H 0.241664 0.468793 0.105701
C24_16 C 0.19883(15) 0.4678(2) 0.11702(12)
C25_16 C 0.17069(12) 0.4682(2) 0.10604(13)
C26_16 C 0.16614(11) 0.46997(19) 0.07622(14)
H12_16 H 0.146901 0.470268 0.068706
C27_16 C 0.3305(3) 0.5179(3) 0.4170(3)
C28_16 C 0.0772(2) 0.4683(2) 0.1681(3)
C29_16 C 0.26795(19) 0.4739(3) 0.20582(19)
C30_16 C 0.2639(2) 0.4951(2) 0.1846(2)
H13_16 H 0.276682 0.511340 0.183702
C31_16 C 0.2412(2) 0.4926(2) 0.1648(2)
H14_16 H 0.238497 0.507045 0.150369
C32_16 C 0.2226(2) 0.4688(3) 0.1662(2)
C33_16 C 0.2266(2) 0.4477(2) 0.1874(2)
H15_16 H 0.213856 0.431451 0.188334
C34_16 C 0.2493(2) 0.4502(2) 0.2072(2)
H16_16 H 0.252041 0.435745 0.221668
C35_16 C 0.3295(2) 0.4909(3) 0.2739(2)
C36_16 C 0.3261(3) 0.4636(3) 0.2613(3)
H17_16 H 0.337242 0.447599 0.268144
C37_16 C 0.3063(3) 0.4597(3) 0.2388(3)
H18_16 H 0.303984 0.441059 0.230211
C38_16 C 0.2900(3) 0.4831(4) 0.2288(2)
C39_16 C 0.2934(3) 0.5104(3) 0.2414(3)
H19_16 H 0.282257 0.526336 0.234557
C40_16 C 0.3132(3) 0.5142(3) 0.2639(3)
H20_16 H 0.315515 0.532877 0.272489
O9_16 O 0.24972(15) 0.4650(2) 0.95969(18)
O10_16 O 0.10390(14) 0.48863(17) 0.98273(18)
O13_12 O 0.16032(13) 0.52165(14) 0.97921(15)
O14_12 O 0.20677(14) 0.51515(16) 0.96888(17)
H21_16 H 0.261287 0.48084 0.968706
H22_16 H 0.253602 0.464443 0.938462
H23_16 H 0.0949281 0.471322 0.992001
H24_16 H 0.0941538 0.492557 0.963873
O9_17 O 0.04031(18) 0.74972(15) 0.0350(2)
O10_17 O 0.01727(18) 0.60390(14) 0.01137(17)
O11_9 O 0.06548(15) 0.64644(14) 0.01406(14)
O12_9 O 0.07396(16) 0.69439(15) 0.02501(16)
H21_17 H 0.0312936 0.761287 0.0191597
H22_17 H 0.0615378 0.753602 0.0355575
H23_17 H 0.00799949 0.594928 0.0286778
H24_17 H 0.0361271 0.594154 0.00744348
O13_13 O 0.02079(15) 0.66032(13) 0.97835(14)
O14_13 O 0.03112(17) 0.70677(14) 0.98485(16)
O1_17 O 0.98342(14) 0.65824(13) 0.02559(14)
O2_17 O 0.99091(17) 0.70728(14) 0.02793(17)
N1_17 N 0.7013(2) 0.8489(2) 0.0082(3)
N2_17 N 0.8524(2) 0.6980(2) 0.0334(3)
C1_17 C 0.6857(2) 0.9688(2) 0.0246(3)
C2_17 C 0.69117(16) 0.93735(11) 0.0207(2)
C3_17 C 0.66855(12) 0.91917(15) 0.0122(2)
H1_17 H 0.649671 0.926944 0.009116
C4_17 C 0.67354(14) 0.88962(14) 0.0084(2)
C5_17 C 0.70116(16) 0.87824(12) 0.0130(2)
C6_17 C 0.72378(12) 0.89642(16) 0.0214(2)
H2_17 H 0.742661 0.888650 0.024521
C7_17 C 0.71879(13) 0.92598(15) 0.0252(2)
H3_17 H 0.734250 0.938402 0.030985
C10_17 C 0.65515(15) 0.86479(13) 0.0022(2)
C11_17 C 0.67324(12) 0.84059(17) 0.0018(2)
C14_17 C 0.83644(14) 0.60951(11) 0.03317(18)
C15_17 C 0.86425(12) 0.62128(13) 0.03223(18)
H7_17 H 0.880702 0.608843 0.031113
C16_17 C 0.86800(11) 0.65126(13) 0.0329(2)
C17_17 C 0.84393(15) 0.66946(10) 0.0346(2)
C18_17 C 0.81612(12) 0.65768(14) 0.0355(2)
H8_17 H 0.799675 0.670121 0.036631
C19_17 C 0.81238(11) 0.62771(15) 0.03481(19)
H9_17 H 0.793367 0.619658 0.035456
C20_17 C 0.9749(2) 0.6851(3) 0.0281(2)
C21_17 C 0.94262(11) 0.68973(15) 0.0287(2)
C22_17 C 0.93163(15) 0.71788(12) 0.0291(2)
H10_17 H 0.944500 0.734002 0.028240
C23_17 C 0.90181(16) 0.72243(11) 0.0309(2)
H11_17 H 0.894299 0.741664 0.031207
C24_17 C 0.88298(12) 0.69883(15) 0.0322(2)
C25_17 C 0.89396(13) 0.67069(12) 0.0318(2)
C26_17 C 0.92378(14) 0.66614(11) 0.03003(19)
H12_17 H 0.931294 0.646901 0.029732
C28_17 C 0.8319(3) 0.5772(2) 0.0317(2)
C29_17 C 0.79418(19) 0.76795(19) 0.0261(3)
C30_17 C 0.8154(2) 0.7639(2) 0.0049(2)
C31_17 C 0.8352(2) 0.7412(2) 0.0074(2)
C32_17 C 0.8338(2) 0.7226(2) 0.0312(3)
C33_17 C 0.8126(2) 0.7266(2) 0.0523(2)
H15_17 H 0.811666 0.713856 0.068549
C34_17 C 0.7928(2) 0.7493(2) 0.0498(2)
H16_17 H 0.778332 0.752041 0.064255
C35_17 C 0.7261(2) 0.8295(2) 0.0091(3)
C36_17 C 0.7387(3) 0.8261(3) 0.0364(3)
H17_17 H 0.731856 0.837242 0.052401
C37_17 C 0.7612(3) 0.8063(3) 0.0403(3)
H18_17 H 0.769789 0.803984 0.058941
C38_17 C 0.7712(2) 0.7900(3) 0.0169(4)
O3_9 O 0.56548(15) 0.85356(14) 0.98594(14)
O4_9 O 0.57396(16) 0.80561(15) 0.97499(16)
C8_17 C 0.61449(12) 0.83459(15) 0.98898(19)
C9_17 C 0.62577(14) 0.86179(13) 0.99576(19)
H4_17 H 0.613405 0.878328 0.996024
C12_17 C 0.66196(15) 0.81339(13) 0.9950(2)
H5_17 H 0.674326 0.796855 0.994741
C13_17 C 0.63258(16) 0.81039(12) 0.9886(2)
H6_17 H 0.624869 0.791805 0.983960
C27_17 C 0.5830(3) 0.8305(3) 0.9821(3)
H13_17 H 0.816298 0.776682 0.988660
H14_17 H 0.849631 0.738497 0.992955
C39_17 C 0.7586(3) 0.7934(3) 0.9896(3)
H19_17 H 0.765443 0.782257 0.973664
C40_17 C 0.7361(3) 0.8132(3) 0.9858(3)
H20_17 H 0.727511 0.815515 0.967123
C8_18 C 0.11449(12) 0.66541(15) 0.01102(19)
C9_18 C 0.12577(14) 0.63821(13) 0.00424(19)
H4_18 H 0.113405 0.621672 0.003976
C12_18 C 0.16196(15) 0.68661(13) 0.0050(2)
H5_18 H 0.174326 0.703145 0.005259
C13_18 C 0.13258(16) 0.68961(12) 0.0114(2)
H6_18 H 0.124869 0.708195 0.016040
C27_18 C 0.0830(3) 0.6695(3) 0.0179(3)
H13_18 H 0.316298 0.723318 0.011340
H14_18 H 0.349631 0.761503 0.007045
C39_18 C 0.2586(3) 0.7066(3) 0.0104(3)
H19_18 H 0.265443 0.717743 0.026336
C40_18 C 0.2361(3) 0.6868(3) 0.0142(3)
H20_18 H 0.227511 0.684485 0.032877
O13_14 O 0.52079(15) 0.83968(13) 0.02165(14)
O14_14 O 0.53112(17) 0.79323(14) 0.01515(16)
O1_18 O 0.48342(14) 0.84176(13) 0.97441(14)
O2_18 O 0.49091(17) 0.79272(14) 0.97207(17)
O9_18 O 0.54031(18) 0.75028(15) 0.9650(2)
O10_18 O 0.51727(18) 0.89610(14) 0.98863(17)
N1_18 N 0.2013(2) 0.6511(2) 0.9918(3)
N2_18 N 0.3524(2) 0.8020(2) 0.9666(3)
C1_18 C 0.1857(2) 0.5312(2) 0.9754(3)
C2_18 C 0.19117(16) 0.56265(11) 0.9793(2)
C3_18 C 0.16855(12) 0.58083(15) 0.9878(2)
H1_18 H 0.149671 0.573056 0.990884
C4_18 C 0.17354(14) 0.61038(14) 0.9916(2)
C5_18 C 0.20116(16) 0.62176(12) 0.9870(2)
C6_18 C 0.22378(12) 0.60358(16) 0.9786(2)
H2_18 H 0.242661 0.611350 0.975479
C7_18 C 0.21879(13) 0.57402(15) 0.9748(2)
H3_18 H 0.234250 0.561598 0.969015
C10_18 C 0.15515(15) 0.63521(13) 0.9978(2)
C11_18 C 0.17324(12) 0.65941(17) 0.9982(2)
C14_18 C 0.33644(14) 0.89049(11) 0.96683(18)
C15_18 C 0.36425(12) 0.87872(13) 0.96777(18)
H7_18 H 0.380702 0.891157 0.968887
C16_18 C 0.36800(11) 0.84874(13) 0.9671(2)
C17_18 C 0.34393(15) 0.83054(10) 0.9654(2)
C18_18 C 0.31612(12) 0.84232(14) 0.9645(2)
H8_18 H 0.299675 0.829879 0.963369
C19_18 C 0.31238(11) 0.87229(15) 0.96519(19)
H9_18 H 0.293367 0.880342 0.964544
C20_18 C 0.4749(2) 0.8149(3) 0.9719(2)
C21_18 C 0.44262(11) 0.81027(15) 0.9713(2)
C22_18 C 0.43163(15) 0.78212(12) 0.9709(2)
H10_18 H 0.444500 0.765998 0.971760
C23_18 C 0.40181(16) 0.77757(11) 0.9691(2)
H11_18 H 0.394299 0.758336 0.968793
C24_18 C 0.38298(12) 0.80117(15) 0.9678(2)
C25_18 C 0.39396(13) 0.82931(12) 0.9682(2)
C26_18 C 0.42378(14) 0.83386(11) 0.96997(19)
H12_18 H 0.431294 0.853099 0.970268
C28_18 C 0.3319(3) 0.9228(2) 0.9683(2)
C29_18 C 0.29418(19) 0.73205(19) 0.9739(3)
C30_18 C 0.3154(2) 0.7361(2) 0.9951(2)
C31_18 C 0.3352(2) 0.7588(2) 0.9926(2)
C32_18 C 0.3338(2) 0.7774(2) 0.9688(3)
C33_18 C 0.3126(2) 0.7734(2) 0.9477(2)
H15_18 H 0.311666 0.786144 0.931451
C34_18 C 0.2928(2) 0.7507(2) 0.9502(2)
H16_18 H 0.278332 0.747959 0.935745
C35_18 C 0.2261(2) 0.6705(2) 0.9909(3)
C36_18 C 0.2387(3) 0.6739(3) 0.9636(3)
H17_18 H 0.231856 0.662758 0.947599
C37_18 C 0.2612(3) 0.6937(3) 0.9597(3)
H18_18 H 0.269789 0.696016 0.941059
C38_18 C 0.2712(2) 0.7100(3) 0.9831(4)
H21_18 H 0.531294 0.738713 0.98084
H22_18 H 0.561538 0.746398 0.964443
H23_18 H 0.507999 0.905072 0.971322
H24_18 H 0.536127 0.905846 0.992557
O1_19 O 0.51658(14) 0.34176(13) 0.52559(14)
O2_19 O 0.50909(17) 0.29272(14) 0.52793(17)
O3_10 O 0.93452(15) 0.14644(14) 0.48594(14)
O4_10 O 0.92604(16) 0.19439(15) 0.47499(16)
O9_19 O 0.45969(18) 0.25028(15) 0.5350(2)
O10_19 O 0.48273(18) 0.39610(14) 0.51137(17)
N1_19 N 0.7987(2) 0.1511(2) 0.5082(3)
N2_19 N 0.6476(2) 0.3020(2) 0.5334(3)
C1_19 C 0.8143(2) 0.0312(2) 0.5246(3)
C2_19 C 0.80883(16) 0.06265(11) 0.5207(2)
C3_19 C 0.83145(12) 0.08083(15) 0.5122(2)
H1_19 H 0.850329 0.073056 0.509116
C4_19 C 0.82646(14) 0.11038(14) 0.5084(2)
C5_19 C 0.79884(16) 0.12176(12) 0.5130(2)
C6_19 C 0.77622(12) 0.10358(16) 0.5214(2)
H2_19 H 0.757339 0.111350 0.524521
C7_19 C 0.78121(13) 0.07402(15) 0.5252(2)
H3_19 H 0.765750 0.061598 0.530985
C8_19 C 0.88551(12) 0.16541(15) 0.48898(19)
C9_19 C 0.87423(14) 0.13821(13) 0.49576(19)
H4_19 H 0.886595 0.121672 0.496024
C10_19 C 0.84485(15) 0.13521(13) 0.5022(2)
C11_19 C 0.82676(12) 0.15941(17) 0.5018(2)
C12_19 C 0.83804(15) 0.18661(13) 0.4950(2)
H5_19 H 0.825674 0.203145 0.494741
C13_19 C 0.86742(16) 0.18961(12) 0.4886(2)
H6_19 H 0.875131 0.208195 0.483960
C14_19 C 0.66356(14) 0.39049(11) 0.53317(18)
C15_19 C 0.63575(12) 0.37872(13) 0.53223(18)
H7_19 H 0.619298 0.391157 0.531113
C16_19 C 0.63200(11) 0.34874(13) 0.5329(2)
C17_19 C 0.65607(15) 0.33054(10) 0.5346(2)
C18_19 C 0.68388(12) 0.34232(14) 0.5355(2)
H8_19 H 0.700325 0.329879 0.536631
C19_19 C 0.68762(11) 0.37229(15) 0.53481(19)
H9_19 H 0.706633 0.380342 0.535456
C20_19 C 0.5251(2) 0.3149(3) 0.5281(2)
C21_19 C 0.55738(11) 0.31027(15) 0.5287(2)
C22_19 C 0.56837(15) 0.28212(12) 0.5291(2)
H10_19 H 0.555500 0.265998 0.528240
C23_19 C 0.59819(16) 0.27757(11) 0.5309(2)
H11_19 H 0.605701 0.258336 0.531207
C24_19 C 0.61702(12) 0.30117(15) 0.5322(2)
C25_19 C 0.60604(13) 0.32931(12) 0.5318(2)
C26_19 C 0.57622(14) 0.33386(11) 0.53003(19)
H12_19 H 0.568706 0.353099 0.529732
C27_19 C 0.9170(3) 0.1695(3) 0.4821(3)
C28_19 C 0.6681(3) 0.4228(2) 0.5317(2)
C29_19 C 0.70582(19) 0.23205(19) 0.5261(3)
C30_19 C 0.6846(2) 0.2361(2) 0.5049(2)
H13_19 H 0.683702 0.223318 0.488660
C31_19 C 0.6648(2) 0.2588(2) 0.5074(2)
H14_19 H 0.650369 0.261503 0.492955
C32_19 C 0.6662(2) 0.2774(2) 0.5312(3)
C33_19 C 0.6874(2) 0.2734(2) 0.5523(2)
H15_19 H 0.688334 0.286144 0.568549
C34_19 C 0.7072(2) 0.2507(2) 0.5498(2)
H16_19 H 0.721668 0.247959 0.564255
C35_19 C 0.7739(2) 0.1705(2) 0.5091(3)
C36_19 C 0.7613(3) 0.1739(3) 0.5364(3)
H17_19 H 0.768144 0.162758 0.552401
C37_19 C 0.7388(3) 0.1937(3) 0.5403(3)
H18_19 H 0.730211 0.196016 0.558941
C38_19 C 0.7288(2) 0.2100(3) 0.5169(4)
C39_19 C 0.7414(3) 0.2066(3) 0.4896(3)
H19_19 H 0.734557 0.217743 0.473664
C40_19 C 0.7639(3) 0.1868(3) 0.4858(3)
H20_19 H 0.772489 0.184485 0.467123
O11_10 O 0.43452(15) 0.35356(14) 0.51406(14)
O12_10 O 0.42604(16) 0.30561(15) 0.52501(16)
O13_15 O 0.47921(15) 0.33968(13) 0.47835(14)
O14_15 O 0.46888(17) 0.29323(14) 0.48485(16)
H21_19 H 0.468706 0.238713 0.51916
H22_19 H 0.438462 0.246398 0.535557
H23_19 H 0.492001 0.405072 0.528678
H24_19 H 0.463873 0.405846 0.507443
O1_20 O 0.01658(14) 0.15824(13) 0.47441(14)
O2_20 O 0.00909(17) 0.20728(14) 0.47207(17)
N1_20 N 0.2987(2) 0.3489(2) 0.4918(3)
N2_20 N 0.1476(2) 0.1980(2) 0.4666(3)
C1_20 C 0.3143(2) 0.4688(2) 0.4754(3)
C2_20 C 0.30883(16) 0.43735(11) 0.4793(2)
C3_20 C 0.33145(12) 0.41917(15) 0.4878(2)
H1_20 H 0.350329 0.426944 0.490884
C4_20 C 0.32646(14) 0.38962(14) 0.4916(2)
C5_20 C 0.29884(16) 0.37824(12) 0.4870(2)
C6_20 C 0.27622(12) 0.39642(16) 0.4786(2)
H2_20 H 0.257339 0.388650 0.475479
C7_20 C 0.28121(13) 0.42598(15) 0.4748(2)
H3_20 H 0.265750 0.438402 0.469015
C8_20 C 0.38551(12) 0.33459(15) 0.51102(19)
C9_20 C 0.37423(14) 0.36179(13) 0.50424(19)
H4_20 H 0.386595 0.378328 0.503976
C10_20 C 0.34485(15) 0.36479(13) 0.4978(2)
C11_20 C 0.32676(12) 0.34059(17) 0.4982(2)
C12_20 C 0.33804(15) 0.31339(13) 0.5050(2)
H5_20 H 0.325674 0.296855 0.505259
C13_20 C 0.36742(16) 0.31039(12) 0.5114(2)
H6_20 H 0.375131 0.291805 0.516040
C14_20 C 0.16356(14) 0.10951(11) 0.46683(18)
C15_20 C 0.13575(12) 0.12128(13) 0.46777(18)
H7_20 H 0.119298 0.108843 0.468887
C16_20 C 0.13200(11) 0.15126(13) 0.4671(2)
C17_20 C 0.15607(15) 0.16946(10) 0.4654(2)
C18_20 C 0.18388(12) 0.15768(14) 0.4645(2)
H8_20 H 0.200325 0.170121 0.463369
C19_20 C 0.18762(11) 0.12771(15) 0.46519(19)
H9_20 H 0.206633 0.119658 0.464544
C20_20 C 0.0251(2) 0.1851(3) 0.4719(2)
C21_20 C 0.05738(11) 0.18973(15) 0.4713(2)
C22_20 C 0.06837(15) 0.21788(12) 0.4709(2)
H10_20 H 0.055500 0.234002 0.471760
C23_20 C 0.09819(16) 0.22243(11) 0.4691(2)
H11_20 H 0.105701 0.241664 0.468793
C24_20 C 0.11702(12) 0.19883(15) 0.4678(2)
C25_20 C 0.10604(13) 0.17069(12) 0.4682(2)
C26_20 C 0.07622(14) 0.16614(11) 0.46997(19)
H12_20 H 0.068706 0.146901 0.470268
C27_20 C 0.4170(3) 0.3305(3) 0.5179(3)
C28_20 C 0.1681(3) 0.0772(2) 0.4683(2)
C29_20 C 0.20582(19) 0.26795(19) 0.4739(3)
C30_20 C 0.1846(2) 0.2639(2) 0.4951(2)
H13_20 H 0.183702 0.276682 0.511340
C31_20 C 0.1648(2) 0.2412(2) 0.4926(2)
H14_20 H 0.150369 0.238497 0.507045
C32_20 C 0.1662(2) 0.2226(2) 0.4688(3)
C33_20 C 0.1874(2) 0.2266(2) 0.4477(2)
H15_20 H 0.188334 0.213856 0.431451
C34_20 C 0.2072(2) 0.2493(2) 0.4502(2)
H16_20 H 0.221668 0.252041 0.435745
C35_20 C 0.2739(2) 0.3295(2) 0.4909(3)
C36_20 C 0.2613(3) 0.3261(3) 0.4636(3)
H17_20 H 0.268144 0.337242 0.447599
C37_20 C 0.2388(3) 0.3063(3) 0.4597(3)
H18_20 H 0.230211 0.303984 0.441059
C38_20 C 0.2288(2) 0.2900(3) 0.4831(4)
C39_20 C 0.2414(3) 0.2934(3) 0.5104(3)
H19_20 H 0.234557 0.282257 0.526336
C40_20 C 0.2639(3) 0.3132(3) 0.5142(3)
H20_20 H 0.272489 0.315515 0.532877
O9_20 O 0.95969(18) 0.24972(15) 0.4650(2)
O10_20 O 0.98273(18) 0.10390(14) 0.48863(17)
O13_16 O 0.97921(15) 0.16032(13) 0.52165(14)
O14_16 O 0.96888(17) 0.20677(14) 0.51515(16)
H21_20 H 0.968706 0.261287 0.48084
H22_20 H 0.938462 0.253602 0.464443
H23_20 H 0.992001 0.0949281 0.471322
H24_20 H 0.963873 0.0941538 0.492557
O9_21 O 0.0350(2) 0.04031(18) 0.74972(15)
O10_21 O 0.01137(17) 0.01727(18) 0.60390(14)
O11_11 O 0.01406(14) 0.06548(15) 0.64644(14)
O12_11 O 0.02501(16) 0.07396(16) 0.69439(15)
H21_21 H 0.0191597 0.0312936 0.761287
H22_21 H 0.0355575 0.0615378 0.753602
H23_21 H 0.0286778 0.00799949 0.594928
H24_21 H 0.00744348 0.0361271 0.594154
O1_21 O 0.02559(14) 0.98342(14) 0.65824(13)
O2_21 O 0.02793(17) 0.99091(17) 0.70728(14)
N1_21 N 0.0082(3) 0.7013(2) 0.8489(2)
N2_21 N 0.0334(3) 0.8524(2) 0.6980(2)
C1_21 C 0.0246(3) 0.6857(2) 0.9688(2)
C2_21 C 0.0207(2) 0.69117(16) 0.93735(11)
C3_21 C 0.0122(2) 0.66855(12) 0.91917(15)
H1_21 H 0.009116 0.649671 0.926944
C4_21 C 0.0084(2) 0.67354(14) 0.88962(14)
C5_21 C 0.0130(2) 0.70116(16) 0.87824(12)
C6_21 C 0.0214(2) 0.72378(12) 0.89642(16)
H2_21 H 0.024521 0.742661 0.888650
C7_21 C 0.0252(2) 0.71879(13) 0.92598(15)
H3_21 H 0.030985 0.734250 0.938402
C10_21 C 0.0022(2) 0.65515(15) 0.86479(13)
C11_21 C 0.0018(2) 0.67324(12) 0.84059(17)
C14_21 C 0.03317(18) 0.83644(14) 0.60951(11)
C15_21 C 0.03223(18) 0.86425(12) 0.62128(13)
H7_21 H 0.031113 0.880702 0.608843
C16_21 C 0.0329(2) 0.86800(11) 0.65126(13)
C17_21 C 0.0346(2) 0.84393(15) 0.66946(10)
C18_21 C 0.0355(2) 0.81612(12) 0.65768(14)
H8_21 H 0.036631 0.799675 0.670121
C19_21 C 0.03481(19) 0.81238(11) 0.62771(15)
H9_21 H 0.035456 0.793367 0.619658
C20_21 C 0.0281(2) 0.9749(2) 0.6851(3)
C21_21 C 0.0287(2) 0.94262(11) 0.68973(15)
C22_21 C 0.0291(2) 0.93163(15) 0.71788(12)
H10_21 H 0.028240 0.944500 0.734002
C23_21 C 0.0309(2) 0.90181(16) 0.72243(11)
H11_21 H 0.031207 0.894299 0.741664
C24_21 C 0.0322(2) 0.88298(12) 0.69883(15)
C25_21 C 0.0318(2) 0.89396(13) 0.67069(12)
C26_21 C 0.03003(19) 0.92378(14) 0.66614(11)
H12_21 H 0.029732 0.931294 0.646901
C28_21 C 0.0317(2) 0.8319(3) 0.5772(2)
C29_21 C 0.0261(3) 0.79418(19) 0.76795(19)
C30_21 C 0.0049(2) 0.8154(2) 0.7639(2)
C31_21 C 0.0074(2) 0.8352(2) 0.7412(2)
C32_21 C 0.0312(3) 0.8338(2) 0.7226(2)
C33_21 C 0.0523(2) 0.8126(2) 0.7266(2)
H15_21 H 0.068549 0.811666 0.713856
C34_21 C 0.0498(2) 0.7928(2) 0.7493(2)
H16_21 H 0.064255 0.778332 0.752041
C35_21 C 0.0091(3) 0.7261(2) 0.8295(2)
C36_21 C 0.0364(3) 0.7387(3) 0.8261(3)
H17_21 H 0.052401 0.731856 0.837242
C37_21 C 0.0403(3) 0.7612(3) 0.8063(3)
H18_21 H 0.058941 0.769789 0.803984
C38_21 C 0.0169(4) 0.7712(2) 0.7900(3)
O3_11 O 0.98594(14) 0.56548(15) 0.85356(14)
O4_11 O 0.97499(16) 0.57396(16) 0.80561(15)
C8_21 C 0.98898(19) 0.61449(12) 0.83459(15)
C9_21 C 0.99576(19) 0.62577(14) 0.86179(13)
H4_21 H 0.996024 0.613405 0.878328
C12_21 C 0.9950(2) 0.66196(15) 0.81339(13)
H5_21 H 0.994741 0.674326 0.796855
C13_21 C 0.9886(2) 0.63258(16) 0.81039(12)
H6_21 H 0.983960 0.624869 0.791805
C27_21 C 0.9821(3) 0.5830(3) 0.8305(3)
H13_21 H 0.988660 0.816298 0.776682
H14_21 H 0.992955 0.849631 0.738497
C39_21 C 0.9896(3) 0.7586(3) 0.7934(3)
H19_21 H 0.973664 0.765443 0.782257
C40_21 C 0.9858(3) 0.7361(3) 0.8132(3)
H20_21 H 0.967123 0.727511 0.815515
C8_22 C 0.01102(19) 0.11449(12) 0.66541(15)
C9_22 C 0.00424(19) 0.12577(14) 0.63821(13)
H4_22 H 0.003976 0.113405 0.621672
C12_22 C 0.0050(2) 0.16196(15) 0.68661(13)
H5_22 H 0.005259 0.174326 0.703145
C13_22 C 0.0114(2) 0.13258(16) 0.68961(12)
H6_22 H 0.016040 0.124869 0.708195
C27_22 C 0.0179(3) 0.0830(3) 0.6695(3)
H13_22 H 0.011340 0.316298 0.723318
H14_22 H 0.007045 0.349631 0.761503
C39_22 C 0.0104(3) 0.2586(3) 0.7066(3)
H19_22 H 0.026336 0.265443 0.717743
C40_22 C 0.0142(3) 0.2361(3) 0.6868(3)
H20_22 H 0.032877 0.227511 0.684485
O1_22 O 0.97441(14) 0.48342(14) 0.84176(13)
O2_22 O 0.97207(17) 0.49091(17) 0.79272(14)
O9_22 O 0.9650(2) 0.54031(18) 0.75028(15)
O10_22 O 0.98863(17) 0.51727(18) 0.89610(14)
N1_22 N 0.9918(3) 0.2013(2) 0.6511(2)
N2_22 N 0.9666(3) 0.3524(2) 0.8020(2)
C1_22 C 0.9754(3) 0.1857(2) 0.5312(2)
C2_22 C 0.9793(2) 0.19117(16) 0.56265(11)
C3_22 C 0.9878(2) 0.16855(12) 0.58083(15)
H1_22 H 0.990884 0.149671 0.573056
C4_22 C 0.9916(2) 0.17354(14) 0.61038(14)
C5_22 C 0.9870(2) 0.20116(16) 0.62176(12)
C6_22 C 0.9786(2) 0.22378(12) 0.60358(16)
H2_22 H 0.975479 0.242661 0.611350
C7_22 C 0.9748(2) 0.21879(13) 0.57402(15)
H3_22 H 0.969015 0.234250 0.561598
C10_22 C 0.9978(2) 0.15515(15) 0.63521(13)
C11_22 C 0.9982(2) 0.17324(12) 0.65941(17)
C14_22 C 0.96683(18) 0.33644(14) 0.89049(11)
C15_22 C 0.96777(18) 0.36425(12) 0.87872(13)
H7_22 H 0.968887 0.380702 0.891157
C16_22 C 0.9671(2) 0.36800(11) 0.84874(13)
C17_22 C 0.9654(2) 0.34393(15) 0.83054(10)
C18_22 C 0.9645(2) 0.31612(12) 0.84232(14)
H8_22 H 0.963369 0.299675 0.829879
C19_22 C 0.96519(19) 0.31238(11) 0.87229(15)
H9_22 H 0.964544 0.293367 0.880342
C20_22 C 0.9719(2) 0.4749(2) 0.8149(3)
C21_22 C 0.9713(2) 0.44262(11) 0.81027(15)
C22_22 C 0.9709(2) 0.43163(15) 0.78212(12)
H10_22 H 0.971760 0.444500 0.765998
C23_22 C 0.9691(2) 0.40181(16) 0.77757(11)
H11_22 H 0.968793 0.394299 0.758336
C24_22 C 0.9678(2) 0.38298(12) 0.80117(15)
C25_22 C 0.9682(2) 0.39396(13) 0.82931(12)
C26_22 C 0.96997(19) 0.42378(14) 0.83386(11)
H12_22 H 0.970268 0.431294 0.853099
C28_22 C 0.9683(2) 0.3319(3) 0.9228(2)
C29_22 C 0.9739(3) 0.29418(19) 0.73205(19)
C30_22 C 0.9951(2) 0.3154(2) 0.7361(2)
C31_22 C 0.9926(2) 0.3352(2) 0.7588(2)
C32_22 C 0.9688(3) 0.3338(2) 0.7774(2)
C33_22 C 0.9477(2) 0.3126(2) 0.7734(2)
H15_22 H 0.931451 0.311666 0.786144
C34_22 C 0.9502(2) 0.2928(2) 0.7507(2)
H16_22 H 0.935745 0.278332 0.747959
C35_22 C 0.9909(3) 0.2261(2) 0.6705(2)
C36_22 C 0.9636(3) 0.2387(3) 0.6739(3)
H17_22 H 0.947599 0.231856 0.662758
C37_22 C 0.9597(3) 0.2612(3) 0.6937(3)
H18_22 H 0.941059 0.269789 0.696016
C38_22 C 0.9831(4) 0.2712(2) 0.7100(3)
H21_22 H 0.98084 0.531294 0.738713
H22_22 H 0.964443 0.561538 0.746398
H23_22 H 0.971322 0.507999 0.905072
H24_22 H 0.992557 0.536127 0.905846
O1_23 O 0.52559(14) 0.51658(14) 0.34176(13)
O2_23 O 0.52793(17) 0.50909(17) 0.29272(14)
O3_12 O 0.48594(14) 0.93452(15) 0.14644(14)
O4_12 O 0.47499(16) 0.92604(16) 0.19439(15)
O9_23 O 0.5350(2) 0.45969(18) 0.25028(15)
O10_23 O 0.51137(17) 0.48273(18) 0.39610(14)
N1_23 N 0.5082(3) 0.7987(2) 0.1511(2)
N2_23 N 0.5334(3) 0.6476(2) 0.3020(2)
C1_23 C 0.5246(3) 0.8143(2) 0.0312(2)
C2_23 C 0.5207(2) 0.80883(16) 0.06265(11)
C3_23 C 0.5122(2) 0.83145(12) 0.08083(15)
H1_23 H 0.509116 0.850329 0.073056
C4_23 C 0.5084(2) 0.82646(14) 0.11038(14)
C5_23 C 0.5130(2) 0.79884(16) 0.12176(12)
C6_23 C 0.5214(2) 0.77622(12) 0.10358(16)
H2_23 H 0.524521 0.757339 0.111350
C7_23 C 0.5252(2) 0.78121(13) 0.07402(15)
H3_23 H 0.530985 0.765750 0.061598
C8_23 C 0.48898(19) 0.88551(12) 0.16541(15)
C9_23 C 0.49576(19) 0.87423(14) 0.13821(13)
H4_23 H 0.496024 0.886595 0.121672
C10_23 C 0.5022(2) 0.84485(15) 0.13521(13)
C11_23 C 0.5018(2) 0.82676(12) 0.15941(17)
C12_23 C 0.4950(2) 0.83804(15) 0.18661(13)
H5_23 H 0.494741 0.825674 0.203145
C13_23 C 0.4886(2) 0.86742(16) 0.18961(12)
H6_23 H 0.483960 0.875131 0.208195
C14_23 C 0.53317(18) 0.66356(14) 0.39049(11)
C15_23 C 0.53223(18) 0.63575(12) 0.37872(13)
H7_23 H 0.531113 0.619298 0.391157
C16_23 C 0.5329(2) 0.63200(11) 0.34874(13)
C17_23 C 0.5346(2) 0.65607(15) 0.33054(10)
C18_23 C 0.5355(2) 0.68388(12) 0.34232(14)
H8_23 H 0.536631 0.700325 0.329879
C19_23 C 0.53481(19) 0.68762(11) 0.37229(15)
H9_23 H 0.535456 0.706633 0.380342
C20_23 C 0.5281(2) 0.5251(2) 0.3149(3)
C21_23 C 0.5287(2) 0.55738(11) 0.31027(15)
C22_23 C 0.5291(2) 0.56837(15) 0.28212(12)
H10_23 H 0.528240 0.555500 0.265998
C23_23 C 0.5309(2) 0.59819(16) 0.27757(11)
H11_23 H 0.531207 0.605701 0.258336
C24_23 C 0.5322(2) 0.61702(12) 0.30117(15)
C25_23 C 0.5318(2) 0.60604(13) 0.32931(12)
C26_23 C 0.53003(19) 0.57622(14) 0.33386(11)
H12_23 H 0.529732 0.568706 0.353099
C27_23 C 0.4821(3) 0.9170(3) 0.1695(3)
C28_23 C 0.5317(2) 0.6681(3) 0.4228(2)
C29_23 C 0.5261(3) 0.70582(19) 0.23205(19)
C30_23 C 0.5049(2) 0.6846(2) 0.2361(2)
H13_23 H 0.488660 0.683702 0.223318
C31_23 C 0.5074(2) 0.6648(2) 0.2588(2)
H14_23 H 0.492955 0.650369 0.261503
C32_23 C 0.5312(3) 0.6662(2) 0.2774(2)
C33_23 C 0.5523(2) 0.6874(2) 0.2734(2)
H15_23 H 0.568549 0.688334 0.286144
C34_23 C 0.5498(2) 0.7072(2) 0.2507(2)
H16_23 H 0.564255 0.721668 0.247959
C35_23 C 0.5091(3) 0.7739(2) 0.1705(2)
C36_23 C 0.5364(3) 0.7613(3) 0.1739(3)
H17_23 H 0.552401 0.768144 0.162758
C37_23 C 0.5403(3) 0.7388(3) 0.1937(3)
H18_23 H 0.558941 0.730211 0.196016
C38_23 C 0.5169(4) 0.7288(2) 0.2100(3)
C39_23 C 0.4896(3) 0.7414(3) 0.2066(3)
H19_23 H 0.473664 0.734557 0.217743
C40_23 C 0.4858(3) 0.7639(3) 0.1868(3)
H20_23 H 0.467123 0.772489 0.184485
O11_12 O 0.51406(14) 0.43452(15) 0.35356(14)
O12_12 O 0.52501(16) 0.42604(16) 0.30561(15)
H21_23 H 0.51916 0.468706 0.238713
H22_23 H 0.535557 0.438462 0.246398
H23_23 H 0.528678 0.492001 0.405072
H24_23 H 0.507443 0.463873 0.405846
O1_24 O 0.47441(14) 0.01658(14) 0.15824(13)
O2_24 O 0.47207(17) 0.00909(17) 0.20728(14)
N1_24 N 0.4918(3) 0.2987(2) 0.3489(2)
N2_24 N 0.4666(3) 0.1476(2) 0.1980(2)
C1_24 C 0.4754(3) 0.3143(2) 0.4688(2)
C2_24 C 0.4793(2) 0.30883(16) 0.43735(11)
C3_24 C 0.4878(2) 0.33145(12) 0.41917(15)
H1_24 H 0.490884 0.350329 0.426944
C4_24 C 0.4916(2) 0.32646(14) 0.38962(14)
C5_24 C 0.4870(2) 0.29884(16) 0.37824(12)
C6_24 C 0.4786(2) 0.27622(12) 0.39642(16)
H2_24 H 0.475479 0.257339 0.388650
C7_24 C 0.4748(2) 0.28121(13) 0.42598(15)
H3_24 H 0.469015 0.265750 0.438402
C8_24 C 0.51102(19) 0.38551(12) 0.33459(15)
C9_24 C 0.50424(19) 0.37423(14) 0.36179(13)
H4_24 H 0.503976 0.386595 0.378328
C10_24 C 0.4978(2) 0.34485(15) 0.36479(13)
C11_24 C 0.4982(2) 0.32676(12) 0.34059(17)
C12_24 C 0.5050(2) 0.33804(15) 0.31339(13)
H5_24 H 0.505259 0.325674 0.296855
C13_24 C 0.5114(2) 0.36742(16) 0.31039(12)
H6_24 H 0.516040 0.375131 0.291805
C14_24 C 0.46683(18) 0.16356(14) 0.10951(11)
C15_24 C 0.46777(18) 0.13575(12) 0.12128(13)
H7_24 H 0.468887 0.119298 0.108843
C16_24 C 0.4671(2) 0.13200(11) 0.15126(13)
C17_24 C 0.4654(2) 0.15607(15) 0.16946(10)
C18_24 C 0.4645(2) 0.18388(12) 0.15768(14)
H8_24 H 0.463369 0.200325 0.170121
C19_24 C 0.46519(19) 0.18762(11) 0.12771(15)
H9_24 H 0.464544 0.206633 0.119658
C20_24 C 0.4719(2) 0.0251(2) 0.1851(3)
C21_24 C 0.4713(2) 0.05738(11) 0.18973(15)
C22_24 C 0.4709(2) 0.06837(15) 0.21788(12)
H10_24 H 0.471760 0.055500 0.234002
C23_24 C 0.4691(2) 0.09819(16) 0.22243(11)
H11_24 H 0.468793 0.105701 0.241664
C24_24 C 0.4678(2) 0.11702(12) 0.19883(15)
C25_24 C 0.4682(2) 0.10604(13) 0.17069(12)
C26_24 C 0.46997(19) 0.07622(14) 0.16614(11)
H12_24 H 0.470268 0.068706 0.146901
C27_24 C 0.5179(3) 0.4170(3) 0.3305(3)
C28_24 C 0.4683(2) 0.1681(3) 0.0772(2)
C29_24 C 0.4739(3) 0.20582(19) 0.26795(19)
C30_24 C 0.4951(2) 0.1846(2) 0.2639(2)
H13_24 H 0.511340 0.183702 0.276682
C31_24 C 0.4926(2) 0.1648(2) 0.2412(2)
H14_24 H 0.507045 0.150369 0.238497
C32_24 C 0.4688(3) 0.1662(2) 0.2226(2)
C33_24 C 0.4477(2) 0.1874(2) 0.2266(2)
H15_24 H 0.431451 0.188334 0.213856
C34_24 C 0.4502(2) 0.2072(2) 0.2493(2)
H16_24 H 0.435745 0.221668 0.252041
C35_24 C 0.4909(3) 0.2739(2) 0.3295(2)
C36_24 C 0.4636(3) 0.2613(3) 0.3261(3)
H17_24 H 0.447599 0.268144 0.337242
C37_24 C 0.4597(3) 0.2388(3) 0.3063(3)
H18_24 H 0.441059 0.230211 0.303984
C38_24 C 0.4831(4) 0.2288(2) 0.2900(3)
C39_24 C 0.5104(3) 0.2414(3) 0.2934(3)
H19_24 H 0.526336 0.234557 0.282257
C40_24 C 0.5142(3) 0.2639(3) 0.3132(3)
H20_24 H 0.532877 0.272489 0.315515
O9_24 O 0.4650(2) 0.95969(18) 0.24972(15)
O10_24 O 0.48863(17) 0.98273(18) 0.10390(14)
H21_24 H 0.48084 0.968706 0.261287
H22_24 H 0.464443 0.938462 0.253602
H23_24 H 0.471322 0.992001 0.0949281
H24_24 H 0.492557 0.963873 0.0941538
loop_
_geom_bond_atom_site_label_1
_geom_bond_atom_site_label_2
_geom_bond_site_symmetry_1
_geom_bond_site_symmetry_2
O3 C27 1_555 1_555
O4 C27 1_555 1_555
C8 C9 1_555 1_555
C9 H4 1_555 1_555
H5 C12 1_555 1_555
C13 C8 1_555 1_555
H6 C13 1_555 1_555
C27 C8 1_555 1_555
H19 C39 1_555 1_555
H20 C40 1_555 1_555
Cu3 O3 1_555 1_555
Cu6 O4 1_555 1_555
C12 C13 1_555 1_555
C39 C40 1_555 1_555
O1 C20 1_555 1_555
O2 C20 1_555 1_555
O5 C1 1_555 1_555
O6 C1 1_555 1_555
O7 C28 1_555 1_555
O8 C28 1_555 1_555
N1 C5 1_555 1_555
N2 C17 1_555 1_555
C1 C2 1_555 1_555
C2 C3 1_555 1_555
C3 H1 1_555 1_555
C4 C3 1_555 1_555
C5 C4 1_555 1_555
C6 C5 1_555 1_555
H2 C6 1_555 1_555
C7 C2 1_555 1_555
H3 C7 1_555 1_555
C10 C4 1_555 1_555
C11 N1 1_555 1_555
C14 C15 1_555 1_555
C15 H7 1_555 1_555
C16 C15 1_555 1_555
C17 C16 1_555 1_555
C18 C17 1_555 1_555
H8 C18 1_555 1_555
C19 C14 1_555 1_555
H9 C19 1_555 1_555
C20 C21 1_555 1_555
C21 C22 1_555 1_555
C22 H10 1_555 1_555
C23 C22 1_555 1_555
H11 C23 1_555 1_555
C24 N2 1_555 1_555
C25 C16 1_555 1_555
C26 C21 1_555 1_555
H12 C26 1_555 1_555
C28 C14 1_555 1_555
C29 C30 1_555 1_555
C31 C30 1_555 1_555
C32 N2 1_555 1_555
C33 C32 1_555 1_555
H15 C33 1_555 1_555
C34 C29 1_555 1_555
H16 C34 1_555 1_555
C35 N1 1_555 1_555
C36 C35 1_555 1_555
H17 C36 1_555 1_555
C37 C36 1_555 1_555
H18 C37 1_555 1_555
C38 C29 1_555 1_555
Cu5 O7 1_555 1_555
Cu8 O8 1_555 1_555
C6 C7 1_555 1_555
C10 C11 1_555 1_555
C18 C19 1_555 1_555
C23 C24 1_555 1_555
C24 C25 1_555 1_555
C25 C26 1_555 1_555
C31 C32 1_555 1_555
C33 C34 1_555 1_555
C37 C38 1_555 1_555
O9 Cu2 1_555 1_555
O10 Cu1 1_555 1_555
O11 Cu1 1_555 1_555
O12 Cu2 1_555 1_555
O15 Cu1 1_555 1_555
O16 Cu2 1_555 1_555
O9 H21 1_555 1_555
O9 H22 1_555 1_555
O10 H23 1_555 1_555
O10 H24 1_555 1_555
Cu3 O1_2 1_555 1_555
Cu6 O2_2 1_555 1_555
O1_2 C20_2 1_555 1_555
O2_2 C20_2 1_555 1_555
O5_2 C1_2 1_555 1_555
O6_2 C1_2 1_555 1_555
O7_2 C28_2 1_555 1_555
O8_2 C28_2 1_555 1_555
O9_2 Cu6 1_555 1_555
O10_2 Cu3 1_555 1_555
N1_2 C5_2 1_555 1_555
N2_2 C17_2 1_555 1_555
C1_2 C2_2 1_555 1_555
C2_2 C3_2 1_555 1_555
C3_2 H1_2 1_555 1_555
C4_2 C3_2 1_555 1_555
C5_2 C4_2 1_555 1_555
C6_2 C5_2 1_555 1_555
H2_2 C6_2 1_555 1_555
C7_2 C2_2 1_555 1_555
H3_2 C7_2 1_555 1_555
C10_2 C4_2 1_555 1_555
C11_2 N1_2 1_555 1_555
C14_2 C15_2 1_555 1_555
C15_2 H7_2 1_555 1_555
C16_2 C15_2 1_555 1_555
C17_2 C16_2 1_555 1_555
C18_2 C17_2 1_555 1_555
H8_2 C18_2 1_555 1_555
C19_2 C14_2 1_555 1_555
H9_2 C19_2 1_555 1_555
C20_2 C21_2 1_555 1_555
C21_2 C22_2 1_555 1_555
C22_2 H10_2 1_555 1_555
C23_2 C22_2 1_555 1_555
H11_2 C23_2 1_555 1_555
C24_2 N2_2 1_555 1_555
C25_2 C16_2 1_555 1_555
C26_2 C21_2 1_555 1_555
H12_2 C26_2 1_555 1_555
C28_2 C14_2 1_555 1_555
C29_2 C30_2 1_555 1_555
C31_2 C30_2 1_555 1_555
C32_2 N2_2 1_555 1_555
C33_2 C32_2 1_555 1_555
H15_2 C33_2 1_555 1_555
C34_2 C29_2 1_555 1_555
H16_2 C34_2 1_555 1_555
C35_2 N1_2 1_555 1_555
C36_2 C35_2 1_555 1_555
H17_2 C36_2 1_555 1_555
C37_2 C36_2 1_555 1_555
H18_2 C37_2 1_555 1_555
C38_2 C29_2 1_555 1_555
Cu4_2 O5_2 1_555 1_555
Cu5_2 O7_2 1_555 1_555
Cu7_2 O6_2 1_555 1_555
Cu8_2 O8_2 1_555 1_555
O15_2 Cu3 1_555 1_555
O16_2 Cu6 1_555 1_555
C6_2 C7_2 1_555 1_555
C10_2 C11_2 1_555 1_555
C18_2 C19_2 1_555 1_555
C23_2 C24_2 1_555 1_555
C24_2 C25_2 1_555 1_555
C25_2 C26_2 1_555 1_555
C31_2 C32_2 1_555 1_555
C33_2 C34_2 1_555 1_555
C37_2 C38_2 1_555 1_555
O9_2 H21_2 1_555 1_555
O9_2 H22_2 1_555 1_555
O10_2 H23_2 1_555 1_555
O10_2 H24_2 1_555 1_555
O11 C27_2 1_555 1_555
O12 C27_2 1_555 1_555
C8_2 C9_2 1_555 1_555
C9_2 H4_2 1_555 1_555
H5_2 C12_2 1_555 1_555
C13_2 C8_2 1_555 1_555
H6_2 C13_2 1_555 1_555
C27_2 C8_2 1_555 1_555
H19_2 C39_2 1_555 1_555
H20_2 C40_2 1_555 1_555
C12_2 C13_2 1_555 1_555
C39_2 C40_2 1_555 1_555
Cu1_2 O1_3 1_555 1_555
Cu2_2 O2_3 1_555 1_555
O1_3 C20_3 1_555 1_555
O2_3 C20_3 1_555 1_555
O3_2 C27_3 1_555 1_555
O4_2 C27_3 1_555 1_555
O5_3 C1_3 1_555 1_555
O6_3 C1_3 1_555 1_555
O7_3 C28_3 1_555 1_555
O8_3 C28_3 1_555 1_555
O9_3 Cu2_2 1_555 1_555
O10_3 Cu1_2 1_555 1_555
N1_3 C5_3 1_555 1_555
N2_3 C17_3 1_555 1_555
C1_3 C2_3 1_555 1_555
C2_3 C3_3 1_555 1_555
C3_3 H1_3 1_555 1_555
C4_3 C3_3 1_555 1_555
C5_3 C4_3 1_555 1_555
C6_3 C5_3 1_555 1_555
H2_3 C6_3 1_555 1_555
C7_3 C2_3 1_555 1_555
H3_3 C7_3 1_555 1_555
C8_3 C9_3 1_555 1_555
C9_3 H4_3 1_555 1_555
C10_3 C4_3 1_555 1_555
C11_3 N1_3 1_555 1_555
C12_3 C11_3 1_555 1_555
H5_3 C12_3 1_555 1_555
C13_3 C8_3 1_555 1_555
H6_3 C13_3 1_555 1_555
C14_3 C15_3 1_555 1_555
C15_3 H7_3 1_555 1_555
C16_3 C15_3 1_555 1_555
C17_3 C16_3 1_555 1_555
C18_3 C17_3 1_555 1_555
H8_3 C18_3 1_555 1_555
C19_3 C14_3 1_555 1_555
H9_3 C19_3 1_555 1_555
C20_3 C21_3 1_555 1_555
C21_3 C22_3 1_555 1_555
C22_3 H10_3 1_555 1_555
C23_3 C22_3 1_555 1_555
H11_3 C23_3 1_555 1_555
C24_3 N2_3 1_555 1_555
C25_3 C16_3 1_555 1_555
C26_3 C21_3 1_555 1_555
H12_3 C26_3 1_555 1_555
C27_3 C8_3 1_555 1_555
C28_3 C14_3 1_555 1_555
C29_3 C30_3 1_555 1_555
C30_3 H13_3 1_555 1_555
C31_3 C30_3 1_555 1_555
H14_3 C31_3 1_555 1_555
C32_3 N2_3 1_555 1_555
C33_3 C32_3 1_555 1_555
H15_3 C33_3 1_555 1_555
C34_3 C29_3 1_555 1_555
H16_3 C34_3 1_555 1_555
C35_3 N1_3 1_555 1_555
C36_3 C35_3 1_555 1_555
H17_3 C36_3 1_555 1_555
C37_3 C36_3 1_555 1_555
H18_3 C37_3 1_555 1_555
C38_3 C29_3 1_555 1_555
C39_3 C38_3 1_555 1_555
H19_3 C39_3 1_555 1_555
C40_3 C35_3 1_555 1_555
H20_3 C40_3 1_555 1_555
Cu3_2 O3_2 1_555 1_555
Cu5_3 O7_3 1_555 1_555
Cu6_2 O4_2 1_555 1_555
Cu8_3 O8_3 1_555 1_555
O11_2 Cu1_2 1_555 1_555
O12_2 Cu2_2 1_555 1_555
O13_3 Cu1_2 1_555 1_555
O14_3 Cu2_2 1_555 1_555
O15_3 Cu1_2 1_555 1_555
O16_3 Cu2_2 1_555 1_555
C6_3 C7_3 1_555 1_555
C9_3 C10_3 1_555 1_555
C10_3 C11_3 1_555 1_555
C12_3 C13_3 1_555 1_555
C18_3 C19_3 1_555 1_555
C23_3 C24_3 1_555 1_555
C24_3 C25_3 1_555 1_555
C25_3 C26_3 1_555 1_555
C31_3 C32_3 1_555 1_555
C33_3 C34_3 1_555 1_555
C37_3 C38_3 1_555 1_555
C39_3 C40_3 1_555 1_555
O9_3 H21_3 1_555 1_555
O9_3 H22_3 1_555 1_555
O10_3 H23_3 1_555 1_555
O10_3 H24_3 1_555 1_555
O9_4 Cu6_2 1_555 1_555
O10_4 Cu3_2 1_555 1_555
O13_4 Cu3_2 1_555 1_555
O14_4 Cu6_2 1_555 1_555
O15_4 Cu3_2 1_555 1_555
O16_4 Cu6_2 1_555 1_555
O9_4 H21_4 1_555 1_555
O9_4 H22_4 1_555 1_555
O10_4 H23_4 1_555 1_555
O10_4 H24_4 1_555 1_555
O1_4 C20_4 1_555 1_555
O2_4 C20_4 1_555 1_555
O11_2 C27_4 1_555 1_555
O12_2 C27_4 1_555 1_555
O5_4 C1_4 1_555 1_555
O6_4 C1_4 1_555 1_555
O7_4 C28_4 1_555 1_555
O8_4 C28_4 1_555 1_555
N1_4 C5_4 1_555 1_555
N2_4 C17_4 1_555 1_555
C1_4 C2_4 1_555 1_555
C2_4 C3_4 1_555 1_555
C3_4 H1_4 1_555 1_555
C4_4 C3_4 1_555 1_555
C5_4 C4_4 1_555 1_555
C6_4 C5_4 1_555 1_555
H2_4 C6_4 1_555 1_555
C7_4 C2_4 1_555 1_555
H3_4 C7_4 1_555 1_555
C8_4 C9_4 1_555 1_555
C9_4 H4_4 1_555 1_555
C10_4 C4_4 1_555 1_555
C11_4 N1_4 1_555 1_555
C12_4 C11_4 1_555 1_555
H5_4 C12_4 1_555 1_555
C13_4 C8_4 1_555 1_555
H6_4 C13_4 1_555 1_555
C14_4 C15_4 1_555 1_555
C15_4 H7_4 1_555 1_555
C16_4 C15_4 1_555 1_555
C17_4 C16_4 1_555 1_555
C18_4 C17_4 1_555 1_555
H8_4 C18_4 1_555 1_555
C19_4 C14_4 1_555 1_555
H9_4 C19_4 1_555 1_555
C20_4 C21_4 1_555 1_555
C21_4 C22_4 1_555 1_555
C22_4 H10_4 1_555 1_555
C23_4 C22_4 1_555 1_555
H11_4 C23_4 1_555 1_555
C24_4 N2_4 1_555 1_555
C25_4 C16_4 1_555 1_555
C26_4 C21_4 1_555 1_555
H12_4 C26_4 1_555 1_555
C27_4 C8_4 1_555 1_555
C28_4 C14_4 1_555 1_555
C29_4 C30_4 1_555 1_555
C30_4 H13_4 1_555 1_555
C31_4 C30_4 1_555 1_555
H14_4 C31_4 1_555 1_555
C32_4 N2_4 1_555 1_555
C33_4 C32_4 1_555 1_555
H15_4 C33_4 1_555 1_555
C34_4 C29_4 1_555 1_555
H16_4 C34_4 1_555 1_555
C35_4 N1_4 1_555 1_555
C36_4 C35_4 1_555 1_555
H17_4 C36_4 1_555 1_555
C37_4 C36_4 1_555 1_555
H18_4 C37_4 1_555 1_555
C38_4 C29_4 1_555 1_555
C39_4 C38_4 1_555 1_555
H19_4 C39_4 1_555 1_555
C40_4 C35_4 1_555 1_555
H20_4 C40_4 1_555 1_555
Cu4_4 O5_4 1_555 1_555
Cu5_4 O7_4 1_555 1_555
Cu7_4 O6_4 1_555 1_555
Cu8_4 O8_4 1_555 1_555
C6_4 C7_4 1_555 1_555
C9_4 C10_4 1_555 1_555
C10_4 C11_4 1_555 1_555
C12_4 C13_4 1_555 1_555
C18_4 C19_4 1_555 1_555
C23_4 C24_4 1_555 1_555
C24_4 C25_4 1_555 1_555
C25_4 C26_4 1_555 1_555
C31_4 C32_4 1_555 1_555
C33_4 C34_4 1_555 1_555
C37_4 C38_4 1_555 1_555
C39_4 C40_4 1_555 1_555
O3_3 C27_5 1_555 1_555
O4_3 C27_5 1_555 1_555
C8_5 C9_5 1_555 1_555
C9_5 H4_5 1_555 1_555
H5_5 C12_5 1_555 1_555
C13_5 C8_5 1_555 1_555
H6_5 C13_5 1_555 1_555
C27_5 C8_5 1_555 1_555
H19_5 C39_5 1_555 1_555
H20_5 C40_5 1_555 1_555
Cu3_3 O3_3 1_555 1_555
Cu6_3 O4_3 1_555 1_555
C12_5 C13_5 1_555 1_555
C39_5 C40_5 1_555 1_555
O1_5 C20_5 1_555 1_555
O2_5 C20_5 1_555 1_555
O13 C1_5 1_555 1_555
O14 C1_5 1_555 1_555
O7_5 C28_5 1_555 1_555
O8_5 C28_5 1_555 1_555
N1_5 C5_5 1_555 1_555
N2_5 C17_5 1_555 1_555
C1_5 C2_5 1_555 1_555
C2_5 C3_5 1_555 1_555
C3_5 H1_5 1_555 1_555
C4_5 C3_5 1_555 1_555
C5_5 C4_5 1_555 1_555
C6_5 C5_5 1_555 1_555
H2_5 C6_5 1_555 1_555
C7_5 C2_5 1_555 1_555
H3_5 C7_5 1_555 1_555
C10_5 C4_5 1_555 1_555
C11_5 N1_5 1_555 1_555
C14_5 C15_5 1_555 1_555
C15_5 H7_5 1_555 1_555
C16_5 C15_5 1_555 1_555
C17_5 C16_5 1_555 1_555
C18_5 C17_5 1_555 1_555
H8_5 C18_5 1_555 1_555
C19_5 C14_5 1_555 1_555
H9_5 C19_5 1_555 1_555
C20_5 C21_5 1_555 1_555
C21_5 C22_5 1_555 1_555
C22_5 H10_5 1_555 1_555
C23_5 C22_5 1_555 1_555
H11_5 C23_5 1_555 1_555
C24_5 N2_5 1_555 1_555
C25_5 C16_5 1_555 1_555
C26_5 C21_5 1_555 1_555
H12_5 C26_5 1_555 1_555
C28_5 C14_5 1_555 1_555
C29_5 C30_5 1_555 1_555
C31_5 C30_5 1_555 1_555
C32_5 N2_5 1_555 1_555
C33_5 C32_5 1_555 1_555
H15_5 C33_5 1_555 1_555
C34_5 C29_5 1_555 1_555
H16_5 C34_5 1_555 1_555
C35_5 N1_5 1_555 1_555
C36_5 C35_5 1_555 1_555
H17_5 C36_5 1_555 1_555
C37_5 C36_5 1_555 1_555
H18_5 C37_5 1_555 1_555
C38_5 C29_5 1_555 1_555
Cu5_5 O7_5 1_555 1_555
Cu8_5 O8_5 1_555 1_555
C6_5 C7_5 1_555 1_555
C10_5 C11_5 1_555 1_555
C18_5 C19_5 1_555 1_555
C23_5 C24_5 1_555 1_555
C24_5 C25_5 1_555 1_555
C25_5 C26_5 1_555 1_555
C31_5 C32_5 1_555 1_555
C33_5 C34_5 1_555 1_555
C37_5 C38_5 1_555 1_555
O9_5 Cu2_3 1_555 1_555
O10_5 Cu1_3 1_555 1_555
O11_3 Cu1_3 1_555 1_555
O12_3 Cu2_3 1_555 1_555
O15_5 Cu1_3 1_555 1_555
O16_5 Cu2_3 1_555 1_555
O9_5 H21_5 1_555 1_555
O9_5 H22_5 1_555 1_555
O10_5 H23_5 1_555 1_555
O10_5 H24_5 1_555 1_555
Cu3_3 O1_6 1_555 1_555
Cu6_3 O2_6 1_555 1_555
O1_6 C20_6 1_555 1_555
O2_6 C20_6 1_555 1_555
O13_4 C1_6 1_555 1_555
O14_4 C1_6 1_555 1_555
O7_6 C28_6 1_555 1_555
O8_6 C28_6 1_555 1_555
O9_6 Cu6_3 1_555 1_555
O10_6 Cu3_3 1_555 1_555
N1_6 C5_6 1_555 1_555
N2_6 C17_6 1_555 1_555
C1_6 C2_6 1_555 1_555
C2_6 C3_6 1_555 1_555
C3_6 H1_6 1_555 1_555
C4_6 C3_6 1_555 1_555
C5_6 C4_6 1_555 1_555
C6_6 C5_6 1_555 1_555
H2_6 C6_6 1_555 1_555
C7_6 C2_6 1_555 1_555
H3_6 C7_6 1_555 1_555
C10_6 C4_6 1_555 1_555
C11_6 N1_6 1_555 1_555
C14_6 C15_6 1_555 1_555
C15_6 H7_6 1_555 1_555
C16_6 C15_6 1_555 1_555
C17_6 C16_6 1_555 1_555
C18_6 C17_6 1_555 1_555
H8_6 C18_6 1_555 1_555
C19_6 C14_6 1_555 1_555
H9_6 C19_6 1_555 1_555
C20_6 C21_6 1_555 1_555
C21_6 C22_6 1_555 1_555
C22_6 H10_6 1_555 1_555
C23_6 C22_6 1_555 1_555
H11_6 C23_6 1_555 1_555
C24_6 N2_6 1_555 1_555
C25_6 C16_6 1_555 1_555
C26_6 C21_6 1_555 1_555
H12_6 C26_6 1_555 1_555
C28_6 C14_6 1_555 1_555
C29_6 C30_6 1_555 1_555
C31_6 C30_6 1_555 1_555
C32_6 N2_6 1_555 1_555
C33_6 C32_6 1_555 1_555
H15_6 C33_6 1_555 1_555
C34_6 C29_6 1_555 1_555
H16_6 C34_6 1_555 1_555
C35_6 N1_6 1_555 1_555
C36_6 C35_6 1_555 1_555
H17_6 C36_6 1_555 1_555
C37_6 C36_6 1_555 1_555
H18_6 C37_6 1_555 1_555
C38_6 C29_6 1_555 1_555
Cu5_6 O7_6 1_555 1_555
Cu8_6 O8_6 1_555 1_555
O15_6 Cu3_3 1_555 1_555
O16_6 Cu6_3 1_555 1_555
C6_6 C7_6 1_555 1_555
C10_6 C11_6 1_555 1_555
C18_6 C19_6 1_555 1_555
C23_6 C24_6 1_555 1_555
C24_6 C25_6 1_555 1_555
C25_6 C26_6 1_555 1_555
C31_6 C32_6 1_555 1_555
C33_6 C34_6 1_555 1_555
C37_6 C38_6 1_555 1_555
O9_6 H21_6 1_555 1_555
O9_6 H22_6 1_555 1_555
O10_6 H23_6 1_555 1_555
O10_6 H24_6 1_555 1_555
O11_3 C27_6 1_555 1_555
O12_3 C27_6 1_555 1_555
C8_6 C9_6 1_555 1_555
C9_6 H4_6 1_555 1_555
H5_6 C12_6 1_555 1_555
C13_6 C8_6 1_555 1_555
H6_6 C13_6 1_555 1_555
C27_6 C8_6 1_555 1_555
H19_6 C39_6 1_555 1_555
H20_6 C40_6 1_555 1_555
C12_6 C13_6 1_555 1_555
C39_6 C40_6 1_555 1_555
Cu1_4 O1_7 1_555 1_555
Cu2_4 O2_7 1_555 1_555
O1_7 C20_7 1_555 1_555
O2_7 C20_7 1_555 1_555
O3_4 C27_7 1_555 1_555
O4_4 C27_7 1_555 1_555
O13_2 C1_7 1_555 1_555
O14_2 C1_7 1_555 1_555
O7_7 C28_7 1_555 1_555
O8_7 C28_7 1_555 1_555
O9_7 Cu2_4 1_555 1_555
O10_7 Cu1_4 1_555 1_555
N1_7 C5_7 1_555 1_555
N2_7 C17_7 1_555 1_555
C1_7 C2_7 1_555 1_555
C2_7 C3_7 1_555 1_555
C3_7 H1_7 1_555 1_555
C4_7 C3_7 1_555 1_555
C5_7 C4_7 1_555 1_555
C6_7 C5_7 1_555 1_555
H2_7 C6_7 1_555 1_555
C7_7 C2_7 1_555 1_555
H3_7 C7_7 1_555 1_555
C8_7 C9_7 1_555 1_555
C9_7 H4_7 1_555 1_555
C10_7 C4_7 1_555 1_555
C11_7 N1_7 1_555 1_555
C12_7 C11_7 1_555 1_555
H5_7 C12_7 1_555 1_555
C13_7 C8_7 1_555 1_555
H6_7 C13_7 1_555 1_555
C14_7 C15_7 1_555 1_555
C15_7 H7_7 1_555 1_555
C16_7 C15_7 1_555 1_555
C17_7 C16_7 1_555 1_555
C18_7 C17_7 1_555 1_555
H8_7 C18_7 1_555 1_555
C19_7 C14_7 1_555 1_555
H9_7 C19_7 1_555 1_555
C20_7 C21_7 1_555 1_555
C21_7 C22_7 1_555 1_555
C22_7 H10_7 1_555 1_555
C23_7 C22_7 1_555 1_555
H11_7 C23_7 1_555 1_555
C24_7 N2_7 1_555 1_555
C25_7 C16_7 1_555 1_555
C26_7 C21_7 1_555 1_555
H12_7 C26_7 1_555 1_555
C27_7 C8_7 1_555 1_555
C28_7 C14_7 1_555 1_555
C29_7 C30_7 1_555 1_555
C30_7 H13_7 1_555 1_555
C31_7 C30_7 1_555 1_555
H14_7 C31_7 1_555 1_555
C32_7 N2_7 1_555 1_555
C33_7 C32_7 1_555 1_555
H15_7 C33_7 1_555 1_555
C34_7 C29_7 1_555 1_555
H16_7 C34_7 1_555 1_555
C35_7 N1_7 1_555 1_555
C36_7 C35_7 1_555 1_555
H17_7 C36_7 1_555 1_555
C37_7 C36_7 1_555 1_555
H18_7 C37_7 1_555 1_555
C38_7 C29_7 1_555 1_555
C39_7 C38_7 1_555 1_555
H19_7 C39_7 1_555 1_555
C40_7 C35_7 1_555 1_555
H20_7 C40_7 1_555 1_555
Cu3_4 O3_4 1_555 1_555
Cu5_7 O7_7 1_555 1_555
Cu6_4 O4_4 1_555 1_555
Cu8_7 O8_7 1_555 1_555
O11_4 Cu1_4 1_555 1_555
O12_4 Cu2_4 1_555 1_555
O13_7 Cu1_4 1_555 1_555
O14_7 Cu2_4 1_555 1_555
O15_7 Cu1_4 1_555 1_555
O16_7 Cu2_4 1_555 1_555
C6_7 C7_7 1_555 1_555
C9_7 C10_7 1_555 1_555
C10_7 C11_7 1_555 1_555
C12_7 C13_7 1_555 1_555
C18_7 C19_7 1_555 1_555
C23_7 C24_7 1_555 1_555
C24_7 C25_7 1_555 1_555
C25_7 C26_7 1_555 1_555
C31_7 C32_7 1_555 1_555
C33_7 C34_7 1_555 1_555
C37_7 C38_7 1_555 1_555
C39_7 C40_7 1_555 1_555
O9_7 H21_7 1_555 1_555
O9_7 H22_7 1_555 1_555
O10_7 H23_7 1_555 1_555
O10_7 H24_7 1_555 1_555
O9_8 Cu6_4 1_555 1_555
O10_8 Cu3_4 1_555 1_555
O13_8 Cu3_4 1_555 1_555
O14_8 Cu6_4 1_555 1_555
O15_8 Cu3_4 1_555 1_555
O16_8 Cu6_4 1_555 1_555
O9_8 H21_8 1_555 1_555
O9_8 H22_8 1_555 1_555
O10_8 H23_8 1_555 1_555
O10_8 H24_8 1_555 1_555
O1_8 C20_8 1_555 1_555
O2_8 C20_8 1_555 1_555
O11_4 C27_8 1_555 1_555
O12_4 C27_8 1_555 1_555
O13_3 C1_8 1_555 1_555
O14_3 C1_8 1_555 1_555
O7_8 C28_8 1_555 1_555
O8_8 C28_8 1_555 1_555
N1_8 C5_8 1_555 1_555
N2_8 C17_8 1_555 1_555
C1_8 C2_8 1_555 1_555
C2_8 C3_8 1_555 1_555
C3_8 H1_8 1_555 1_555
C4_8 C3_8 1_555 1_555
C5_8 C4_8 1_555 1_555
C6_8 C5_8 1_555 1_555
H2_8 C6_8 1_555 1_555
C7_8 C2_8 1_555 1_555
H3_8 C7_8 1_555 1_555
C8_8 C9_8 1_555 1_555
C9_8 H4_8 1_555 1_555
C10_8 C4_8 1_555 1_555
C11_8 N1_8 1_555 1_555
C12_8 C11_8 1_555 1_555
H5_8 C12_8 1_555 1_555
C13_8 C8_8 1_555 1_555
H6_8 C13_8 1_555 1_555
C14_8 C15_8 1_555 1_555
C15_8 H7_8 1_555 1_555
C16_8 C15_8 1_555 1_555
C17_8 C16_8 1_555 1_555
C18_8 C17_8 1_555 1_555
H8_8 C18_8 1_555 1_555
C19_8 C14_8 1_555 1_555
H9_8 C19_8 1_555 1_555
C20_8 C21_8 1_555 1_555
C21_8 C22_8 1_555 1_555
C22_8 H10_8 1_555 1_555
C23_8 C22_8 1_555 1_555
H11_8 C23_8 1_555 1_555
C24_8 N2_8 1_555 1_555
C25_8 C16_8 1_555 1_555
C26_8 C21_8 1_555 1_555
H12_8 C26_8 1_555 1_555
C27_8 C8_8 1_555 1_555
C28_8 C14_8 1_555 1_555
C29_8 C30_8 1_555 1_555
C30_8 H13_8 1_555 1_555
C31_8 C30_8 1_555 1_555
H14_8 C31_8 1_555 1_555
C32_8 N2_8 1_555 1_555
C33_8 C32_8 1_555 1_555
H15_8 C33_8 1_555 1_555
C34_8 C29_8 1_555 1_555
H16_8 C34_8 1_555 1_555
C35_8 N1_8 1_555 1_555
C36_8 C35_8 1_555 1_555
H17_8 C36_8 1_555 1_555
C37_8 C36_8 1_555 1_555
H18_8 C37_8 1_555 1_555
C38_8 C29_8 1_555 1_555
C39_8 C38_8 1_555 1_555
H19_8 C39_8 1_555 1_555
C40_8 C35_8 1_555 1_555
H20_8 C40_8 1_555 1_555
Cu5_8 O7_8 1_555 1_555
Cu8_8 O8_8 1_555 1_555
C6_8 C7_8 1_555 1_555
C9_8 C10_8 1_555 1_555
C10_8 C11_8 1_555 1_555
C12_8 C13_8 1_555 1_555
C18_8 C19_8 1_555 1_555
C23_8 C24_8 1_555 1_555
C24_8 C25_8 1_555 1_555
C25_8 C26_8 1_555 1_555
C31_8 C32_8 1_555 1_555
C33_8 C34_8 1_555 1_555
C37_8 C38_8 1_555 1_555
C39_8 C40_8 1_555 1_555
O3_5 C27_9 1_555 1_555
O4_5 C27_9 1_555 1_555
C8_9 C9_9 1_555 1_555
C9_9 H4_9 1_555 1_555
H5_9 C12_9 1_555 1_555
C13_9 C8_9 1_555 1_555
H6_9 C13_9 1_555 1_555
C27_9 C8_9 1_555 1_555
H19_9 C39_9 1_555 1_555
H20_9 C40_9 1_555 1_555
Cu4_3 O3_5 1_555 1_555
Cu7_3 O4_5 1_555 1_555
C12_9 C13_9 1_555 1_555
C39_9 C40_9 1_555 1_555
O1_9 C20_9 1_555 1_555
O2_9 C20_9 1_555 1_555
O13_5 C1_9 1_555 1_555
O14_5 C1_9 1_555 1_555
O7_9 C28_9 1_555 1_555
O8_9 C28_9 1_555 1_555
N1_9 C5_9 1_555 1_555
N2_9 C17_9 1_555 1_555
C1_9 C2_9 1_555 1_555
C2_9 C3_9 1_555 1_555
C3_9 H1_9 1_555 1_555
C4_9 C3_9 1_555 1_555
C5_9 C4_9 1_555 1_555
C6_9 C5_9 1_555 1_555
H2_9 C6_9 1_555 1_555
C7_9 C2_9 1_555 1_555
H3_9 C7_9 1_555 1_555
C10_9 C4_9 1_555 1_555
C11_9 N1_9 1_555 1_555
C14_9 C15_9 1_555 1_555
C15_9 H7_9 1_555 1_555
C16_9 C15_9 1_555 1_555
C17_9 C16_9 1_555 1_555
C18_9 C17_9 1_555 1_555
H8_9 C18_9 1_555 1_555
C19_9 C14_9 1_555 1_555
H9_9 C19_9 1_555 1_555
C20_9 C21_9 1_555 1_555
C21_9 C22_9 1_555 1_555
C22_9 H10_9 1_555 1_555
C23_9 C22_9 1_555 1_555
H11_9 C23_9 1_555 1_555
C24_9 N2_9 1_555 1_555
C25_9 C16_9 1_555 1_555
C26_9 C21_9 1_555 1_555
H12_9 C26_9 1_555 1_555
C28_9 C14_9 1_555 1_555
C29_9 C30_9 1_555 1_555
C31_9 C30_9 1_555 1_555
C32_9 N2_9 1_555 1_555
C33_9 C32_9 1_555 1_555
H15_9 C33_9 1_555 1_555
C34_9 C29_9 1_555 1_555
H16_9 C34_9 1_555 1_555
C35_9 N1_9 1_555 1_555
C36_9 C35_9 1_555 1_555
H17_9 C36_9 1_555 1_555
C37_9 C36_9 1_555 1_555
H18_9 C37_9 1_555 1_555
C38_9 C29_9 1_555 1_555
Cu5_9 O7_9 1_555 1_555
Cu8_9 O8_9 1_555 1_555
C6_9 C7_9 1_555 1_555
C10_9 C11_9 1_555 1_555
C18_9 C19_9 1_555 1_555
C23_9 C24_9 1_555 1_555
C24_9 C25_9 1_555 1_555
C25_9 C26_9 1_555 1_555
C31_9 C32_9 1_555 1_555
C33_9 C34_9 1_555 1_555
C37_9 C38_9 1_555 1_555
O9_9 Cu7 1_555 1_555
O10_9 Cu4 1_555 1_555
O11_5 Cu4 1_555 1_555
O12_5 Cu7 1_555 1_555
O15_9 Cu4 1_555 1_555
O16_9 Cu7 1_555 1_555
O9_9 H21_9 1_555 1_555
O9_9 H22_9 1_555 1_555
O10_9 H23_9 1_555 1_555
O10_9 H24_9 1_555 1_555
Cu4_3 O1_10 1_555 1_555
Cu7_3 O2_10 1_555 1_555
O1_10 C20_10 1_555 1_555
O2_10 C20_10 1_555 1_555
O13_8 C1_10 1_555 1_555
O14_8 C1_10 1_555 1_555
O7_10 C28_10 1_555 1_555
O8_10 C28_10 1_555 1_555
O9_10 Cu7_3 1_555 1_555
O10_10 Cu4_3 1_555 1_555
N1_10 C5_10 1_555 1_555
N2_10 C17_10 1_555 1_555
C1_10 C2_10 1_555 1_555
C2_10 C3_10 1_555 1_555
C3_10 H1_10 1_555 1_555
C4_10 C3_10 1_555 1_555
C5_10 C4_10 1_555 1_555
C6_10 C5_10 1_555 1_555
H2_10 C6_10 1_555 1_555
C7_10 C2_10 1_555 1_555
H3_10 C7_10 1_555 1_555
C10_10 C4_10 1_555 1_555
C11_10 N1_10 1_555 1_555
C14_10 C15_10 1_555 1_555
C15_10 H7_10 1_555 1_555
C16_10 C15_10 1_555 1_555
C17_10 C16_10 1_555 1_555
C18_10 C17_10 1_555 1_555
H8_10 C18_10 1_555 1_555
C19_10 C14_10 1_555 1_555
H9_10 C19_10 1_555 1_555
C20_10 C21_10 1_555 1_555
C21_10 C22_10 1_555 1_555
C22_10 H10_10 1_555 1_555
C23_10 C22_10 1_555 1_555
H11_10 C23_10 1_555 1_555
C24_10 N2_10 1_555 1_555
C25_10 C16_10 1_555 1_555
C26_10 C21_10 1_555 1_555
H12_10 C26_10 1_555 1_555
C28_10 C14_10 1_555 1_555
C29_10 C30_10 1_555 1_555
C31_10 C30_10 1_555 1_555
C32_10 N2_10 1_555 1_555
C33_10 C32_10 1_555 1_555
H15_10 C33_10 1_555 1_555
C34_10 C29_10 1_555 1_555
H16_10 C34_10 1_555 1_555
C35_10 N1_10 1_555 1_555
C36_10 C35_10 1_555 1_555
H17_10 C36_10 1_555 1_555
C37_10 C36_10 1_555 1_555
H18_10 C37_10 1_555 1_555
C38_10 C29_10 1_555 1_555
Cu5_10 O7_10 1_555 1_555
Cu8_10 O8_10 1_555 1_555
O15_10 Cu4_3 1_555 1_555
O16_10 Cu7_3 1_555 1_555
C6_10 C7_10 1_555 1_555
C10_10 C11_10 1_555 1_555
C18_10 C19_10 1_555 1_555
C23_10 C24_10 1_555 1_555
C24_10 C25_10 1_555 1_555
C25_10 C26_10 1_555 1_555
C31_10 C32_10 1_555 1_555
C33_10 C34_10 1_555 1_555
C37_10 C38_10 1_555 1_555
O9_10 H21_10 1_555 1_555
O9_10 H22_10 1_555 1_555
O10_10 H23_10 1_555 1_555
O10_10 H24_10 1_555 1_555
O11_5 C27_10 1_555 1_555
O12_5 C27_10 1_555 1_555
C8_10 C9_10 1_555 1_555
C9_10 H4_10 1_555 1_555
H5_10 C12_10 1_555 1_555
C13_10 C8_10 1_555 1_555
H6_10 C13_10 1_555 1_555
C27_10 C8_10 1_555 1_555
H19_10 C39_10 1_555 1_555
H20_10 C40_10 1_555 1_555
C12_10 C13_10 1_555 1_555
C39_10 C40_10 1_555 1_555
Cu4_4 O1_11 1_555 1_555
Cu7_4 O2_11 1_555 1_555
O1_11 C20_11 1_555 1_555
O2_11 C20_11 1_555 1_555
O3_6 C27_11 1_555 1_555
O4_6 C27_11 1_555 1_555
O13_6 C1_11 1_555 1_555
O14_6 C1_11 1_555 1_555
O7_11 C28_11 1_555 1_555
O8_11 C28_11 1_555 1_555
O9_11 Cu7_4 1_555 1_555
O10_11 Cu4_4 1_555 1_555
N1_11 C5_11 1_555 1_555
N2_11 C17_11 1_555 1_555
C1_11 C2_11 1_555 1_555
C2_11 C3_11 1_555 1_555
C3_11 H1_11 1_555 1_555
C4_11 C3_11 1_555 1_555
C5_11 C4_11 1_555 1_555
C6_11 C5_11 1_555 1_555
H2_11 C6_11 1_555 1_555
C7_11 C2_11 1_555 1_555
H3_11 C7_11 1_555 1_555
C8_11 C9_11 1_555 1_555
C9_11 H4_11 1_555 1_555
C10_11 C4_11 1_555 1_555
C11_11 N1_11 1_555 1_555
C12_11 C11_11 1_555 1_555
H5_11 C12_11 1_555 1_555
C13_11 C8_11 1_555 1_555
H6_11 C13_11 1_555 1_555
C14_11 C15_11 1_555 1_555
C15_11 H7_11 1_555 1_555
C16_11 C15_11 1_555 1_555
C17_11 C16_11 1_555 1_555
C18_11 C17_11 1_555 1_555
H8_11 C18_11 1_555 1_555
C19_11 C14_11 1_555 1_555
H9_11 C19_11 1_555 1_555
C20_11 C21_11 1_555 1_555
C21_11 C22_11 1_555 1_555
C22_11 H10_11 1_555 1_555
C23_11 C22_11 1_555 1_555
H11_11 C23_11 1_555 1_555
C24_11 N2_11 1_555 1_555
C25_11 C16_11 1_555 1_555
C26_11 C21_11 1_555 1_555
H12_11 C26_11 1_555 1_555
C27_11 C8_11 1_555 1_555
C28_11 C14_11 1_555 1_555
C29_11 C30_11 1_555 1_555
C30_11 H13_11 1_555 1_555
C31_11 C30_11 1_555 1_555
H14_11 C31_11 1_555 1_555
C32_11 N2_11 1_555 1_555
C33_11 C32_11 1_555 1_555
H15_11 C33_11 1_555 1_555
C34_11 C29_11 1_555 1_555
H16_11 C34_11 1_555 1_555
C35_11 N1_11 1_555 1_555
C36_11 C35_11 1_555 1_555
H17_11 C36_11 1_555 1_555
C37_11 C36_11 1_555 1_555
H18_11 C37_11 1_555 1_555
C38_11 C29_11 1_555 1_555
C39_11 C38_11 1_555 1_555
H19_11 C39_11 1_555 1_555
C40_11 C35_11 1_555 1_555
H20_11 C40_11 1_555 1_555
Cu4_2 O3_6 1_555 1_555
Cu5_11 O7_11 1_555 1_555
Cu7_2 O4_6 1_555 1_555
Cu8_11 O8_11 1_555 1_555
O11_6 Cu4_4 1_555 1_555
O12_6 Cu7_4 1_555 1_555
O15_11 Cu4_4 1_555 1_555
O16_11 Cu7_4 1_555 1_555
C6_11 C7_11 1_555 1_555
C9_11 C10_11 1_555 1_555
C10_11 C11_11 1_555 1_555
C12_11 C13_11 1_555 1_555
C18_11 C19_11 1_555 1_555
C23_11 C24_11 1_555 1_555
C24_11 C25_11 1_555 1_555
C25_11 C26_11 1_555 1_555
C31_11 C32_11 1_555 1_555
C33_11 C34_11 1_555 1_555
C37_11 C38_11 1_555 1_555
C39_11 C40_11 1_555 1_555
O9_11 H21_11 1_555 1_555
O9_11 H22_11 1_555 1_555
O10_11 H23_11 1_555 1_555
O10_11 H24_11 1_555 1_555
O9_12 Cu7_2 1_555 1_555
O10_12 Cu4_2 1_555 1_555
O15_12 Cu4_2 1_555 1_555
O16_12 Cu7_2 1_555 1_555
O9_12 H21_12 1_555 1_555
O9_12 H22_12 1_555 1_555
O10_12 H23_12 1_555 1_555
O10_12 H24_12 1_555 1_555
O1_12 C20_12 1_555 1_555
O2_12 C20_12 1_555 1_555
O11_6 C27_12 1_555 1_555
O12_6 C27_12 1_555 1_555
O13_7 C1_12 1_555 1_555
O14_7 C1_12 1_555 1_555
O7_12 C28_12 1_555 1_555
O8_12 C28_12 1_555 1_555
N1_12 C5_12 1_555 1_555
N2_12 C17_12 1_555 1_555
C1_12 C2_12 1_555 1_555
C2_12 C3_12 1_555 1_555
C3_12 H1_12 1_555 1_555
C4_12 C3_12 1_555 1_555
C5_12 C4_12 1_555 1_555
C6_12 C5_12 1_555 1_555
H2_12 C6_12 1_555 1_555
C7_12 C2_12 1_555 1_555
H3_12 C7_12 1_555 1_555
C8_12 C9_12 1_555 1_555
C9_12 H4_12 1_555 1_555
C10_12 C4_12 1_555 1_555
C11_12 N1_12 1_555 1_555
C12_12 C11_12 1_555 1_555
H5_12 C12_12 1_555 1_555
C13_12 C8_12 1_555 1_555
H6_12 C13_12 1_555 1_555
C14_12 C15_12 1_555 1_555
C15_12 H7_12 1_555 1_555
C16_12 C15_12 1_555 1_555
C17_12 C16_12 1_555 1_555
C18_12 C17_12 1_555 1_555
H8_12 C18_12 1_555 1_555
C19_12 C14_12 1_555 1_555
H9_12 C19_12 1_555 1_555
C20_12 C21_12 1_555 1_555
C21_12 C22_12 1_555 1_555
C22_12 H10_12 1_555 1_555
C23_12 C22_12 1_555 1_555
H11_12 C23_12 1_555 1_555
C24_12 N2_12 1_555 1_555
C25_12 C16_12 1_555 1_555
C26_12 C21_12 1_555 1_555
H12_12 C26_12 1_555 1_555
C27_12 C8_12 1_555 1_555
C28_12 C14_12 1_555 1_555
C29_12 C30_12 1_555 1_555
C30_12 H13_12 1_555 1_555
C31_12 C30_12 1_555 1_555
H14_12 C31_12 1_555 1_555
C32_12 N2_12 1_555 1_555
C33_12 C32_12 1_555 1_555
H15_12 C33_12 1_555 1_555
C34_12 C29_12 1_555 1_555
H16_12 C34_12 1_555 1_555
C35_12 N1_12 1_555 1_555
C36_12 C35_12 1_555 1_555
H17_12 C36_12 1_555 1_555
C37_12 C36_12 1_555 1_555
H18_12 C37_12 1_555 1_555
C38_12 C29_12 1_555 1_555
C39_12 C38_12 1_555 1_555
H19_12 C39_12 1_555 1_555
C40_12 C35_12 1_555 1_555
H20_12 C40_12 1_555 1_555
Cu5_12 O7_12 1_555 1_555
Cu8_12 O8_12 1_555 1_555
C6_12 C7_12 1_555 1_555
C9_12 C10_12 1_555 1_555
C10_12 C11_12 1_555 1_555
C12_12 C13_12 1_555 1_555
C18_12 C19_12 1_555 1_555
C23_12 C24_12 1_555 1_555
C24_12 C25_12 1_555 1_555
C25_12 C26_12 1_555 1_555
C31_12 C32_12 1_555 1_555
C33_12 C34_12 1_555 1_555
C37_12 C38_12 1_555 1_555
C39_12 C40_12 1_555 1_555
O9_13 Cu8_6 1_555 1_555
O10_13 Cu5_6 1_555 1_555
O11_7 Cu5_6 1_555 1_555
O12_7 Cu8_6 1_555 1_555
O9_13 H21_13 1_555 1_555
O9_13 H22_13 1_555 1_555
O10_13 H23_13 1_555 1_555
O10_13 H24_13 1_555 1_555
O1_13 C20_13 1_555 1_555
O2_13 C20_13 1_555 1_555
O5_5 C1_13 1_555 1_555
O6_5 C1_13 1_555 1_555
O15_12 C28_13 1_555 1_555
O16_12 C28_13 1_555 1_555
N1_13 C5_13 1_555 1_555
N2_13 C17_13 1_555 1_555
C1_13 C2_13 1_555 1_555
C2_13 C3_13 1_555 1_555
C3_13 H1_13 1_555 1_555
C4_13 C3_13 1_555 1_555
C5_13 C4_13 1_555 1_555
C6_13 C5_13 1_555 1_555
H2_13 C6_13 1_555 1_555
C7_13 C2_13 1_555 1_555
H3_13 C7_13 1_555 1_555
C10_13 C4_13 1_555 1_555
C11_13 N1_13 1_555 1_555
C14_13 C15_13 1_555 1_555
C15_13 H7_13 1_555 1_555
C16_13 C15_13 1_555 1_555
C17_13 C16_13 1_555 1_555
C18_13 C17_13 1_555 1_555
H8_13 C18_13 1_555 1_555
C19_13 C14_13 1_555 1_555
H9_13 C19_13 1_555 1_555
C20_13 C21_13 1_555 1_555
C21_13 C22_13 1_555 1_555
C22_13 H10_13 1_555 1_555
C23_13 C22_13 1_555 1_555
H11_13 C23_13 1_555 1_555
C24_13 N2_13 1_555 1_555
C25_13 C16_13 1_555 1_555
C26_13 C21_13 1_555 1_555
H12_13 C26_13 1_555 1_555
C28_13 C14_13 1_555 1_555
C29_13 C30_13 1_555 1_555
C31_13 C30_13 1_555 1_555
C32_13 N2_13 1_555 1_555
C33_13 C32_13 1_555 1_555
H15_13 C33_13 1_555 1_555
C34_13 C29_13 1_555 1_555
H16_13 C34_13 1_555 1_555
C35_13 N1_13 1_555 1_555
C36_13 C35_13 1_555 1_555
H17_13 C36_13 1_555 1_555
C37_13 C36_13 1_555 1_555
H18_13 C37_13 1_555 1_555
C38_13 C29_13 1_555 1_555
C6_13 C7_13 1_555 1_555
C10_13 C11_13 1_555 1_555
C18_13 C19_13 1_555 1_555
C23_13 C24_13 1_555 1_555
C24_13 C25_13 1_555 1_555
C25_13 C26_13 1_555 1_555
C31_13 C32_13 1_555 1_555
C33_13 C34_13 1_555 1_555
C37_13 C38_13 1_555 1_555
O3_7 C27_13 1_555 1_555
O4_7 C27_13 1_555 1_555
C8_13 C9_13 1_555 1_555
C9_13 H4_13 1_555 1_555
H5_13 C12_13 1_555 1_555
C13_13 C8_13 1_555 1_555
H6_13 C13_13 1_555 1_555
C27_13 C8_13 1_555 1_555
H19_13 C39_13 1_555 1_555
H20_13 C40_13 1_555 1_555
Cu5_8 O3_7 1_555 1_555
Cu8_8 O4_7 1_555 1_555
C12_13 C13_13 1_555 1_555
C39_13 C40_13 1_555 1_555
O11_7 C27_14 1_555 1_555
O12_7 C27_14 1_555 1_555
C8_14 C9_14 1_555 1_555
C9_14 H4_14 1_555 1_555
H5_14 C12_14 1_555 1_555
C13_14 C8_14 1_555 1_555
H6_14 C13_14 1_555 1_555
C27_14 C8_14 1_555 1_555
H19_14 C39_14 1_555 1_555
H20_14 C40_14 1_555 1_555
C12_14 C13_14 1_555 1_555
C39_14 C40_14 1_555 1_555
Cu5_8 O1_14 1_555 1_555
Cu8_8 O2_14 1_555 1_555
O1_14 C20_14 1_555 1_555
O2_14 C20_14 1_555 1_555
O5_6 C1_14 1_555 1_555
O6_6 C1_14 1_555 1_555
O15_9 C28_14 1_555 1_555
O16_9 C28_14 1_555 1_555
O9_14 Cu8_8 1_555 1_555
O10_14 Cu5_8 1_555 1_555
N1_14 C5_14 1_555 1_555
N2_14 C17_14 1_555 1_555
C1_14 C2_14 1_555 1_555
C2_14 C3_14 1_555 1_555
C3_14 H1_14 1_555 1_555
C4_14 C3_14 1_555 1_555
C5_14 C4_14 1_555 1_555
C6_14 C5_14 1_555 1_555
H2_14 C6_14 1_555 1_555
C7_14 C2_14 1_555 1_555
H3_14 C7_14 1_555 1_555
C10_14 C4_14 1_555 1_555
C11_14 N1_14 1_555 1_555
C14_14 C15_14 1_555 1_555
C15_14 H7_14 1_555 1_555
C16_14 C15_14 1_555 1_555
C17_14 C16_14 1_555 1_555
C18_14 C17_14 1_555 1_555
H8_14 C18_14 1_555 1_555
C19_14 C14_14 1_555 1_555
H9_14 C19_14 1_555 1_555
C20_14 C21_14 1_555 1_555
C21_14 C22_14 1_555 1_555
C22_14 H10_14 1_555 1_555
C23_14 C22_14 1_555 1_555
H11_14 C23_14 1_555 1_555
C24_14 N2_14 1_555 1_555
C25_14 C16_14 1_555 1_555
C26_14 C21_14 1_555 1_555
H12_14 C26_14 1_555 1_555
C28_14 C14_14 1_555 1_555
C29_14 C30_14 1_555 1_555
C31_14 C30_14 1_555 1_555
C32_14 N2_14 1_555 1_555
C33_14 C32_14 1_555 1_555
H15_14 C33_14 1_555 1_555
C34_14 C29_14 1_555 1_555
H16_14 C34_14 1_555 1_555
C35_14 N1_14 1_555 1_555
C36_14 C35_14 1_555 1_555
H17_14 C36_14 1_555 1_555
C37_14 C36_14 1_555 1_555
H18_14 C37_14 1_555 1_555
C38_14 C29_14 1_555 1_555
Cu5 O5_6 1_555 1_555
Cu8 O6_6 1_555 1_555
C6_14 C7_14 1_555 1_555
C10_14 C11_14 1_555 1_555
C18_14 C19_14 1_555 1_555
C23_14 C24_14 1_555 1_555
C24_14 C25_14 1_555 1_555
C25_14 C26_14 1_555 1_555
C31_14 C32_14 1_555 1_555
C33_14 C34_14 1_555 1_555
C37_14 C38_14 1_555 1_555
O9_14 H21_14 1_555 1_555
O9_14 H22_14 1_555 1_555
O10_14 H23_14 1_555 1_555
O10_14 H24_14 1_555 1_555
Cu5_7 O1_15 1_555 1_555
Cu8_7 O2_15 1_555 1_555
O1_15 C20_15 1_555 1_555
O2_15 C20_15 1_555 1_555
O3_8 C27_15 1_555 1_555
O4_8 C27_15 1_555 1_555
O5_7 C1_15 1_555 1_555
O6_7 C1_15 1_555 1_555
O15_11 C28_15 1_555 1_555
O16_11 C28_15 1_555 1_555
O9_15 Cu8_7 1_555 1_555
O10_15 Cu5_7 1_555 1_555
N1_15 C5_15 1_555 1_555
N2_15 C17_15 1_555 1_555
C1_15 C2_15 1_555 1_555
C2_15 C3_15 1_555 1_555
C3_15 H1_15 1_555 1_555
C4_15 C3_15 1_555 1_555
C5_15 C4_15 1_555 1_555
C6_15 C5_15 1_555 1_555
H2_15 C6_15 1_555 1_555
C7_15 C2_15 1_555 1_555
H3_15 C7_15 1_555 1_555
C8_15 C9_15 1_555 1_555
C9_15 H4_15 1_555 1_555
C10_15 C4_15 1_555 1_555
C11_15 N1_15 1_555 1_555
C12_15 C11_15 1_555 1_555
H5_15 C12_15 1_555 1_555
C13_15 C8_15 1_555 1_555
H6_15 C13_15 1_555 1_555
C14_15 C15_15 1_555 1_555
C15_15 H7_15 1_555 1_555
C16_15 C15_15 1_555 1_555
C17_15 C16_15 1_555 1_555
C18_15 C17_15 1_555 1_555
H8_15 C18_15 1_555 1_555
C19_15 C14_15 1_555 1_555
H9_15 C19_15 1_555 1_555
C20_15 C21_15 1_555 1_555
C21_15 C22_15 1_555 1_555
C22_15 H10_15 1_555 1_555
C23_15 C22_15 1_555 1_555
H11_15 C23_15 1_555 1_555
C24_15 N2_15 1_555 1_555
C25_15 C16_15 1_555 1_555
C26_15 C21_15 1_555 1_555
H12_15 C26_15 1_555 1_555
C27_15 C8_15 1_555 1_555
C28_15 C14_15 1_555 1_555
C29_15 C30_15 1_555 1_555
C30_15 H13_15 1_555 1_555
C31_15 C30_15 1_555 1_555
H14_15 C31_15 1_555 1_555
C32_15 N2_15 1_555 1_555
C33_15 C32_15 1_555 1_555
H15_15 C33_15 1_555 1_555
C34_15 C29_15 1_555 1_555
H16_15 C34_15 1_555 1_555
C35_15 N1_15 1_555 1_555
C36_15 C35_15 1_555 1_555
H17_15 C36_15 1_555 1_555
C37_15 C36_15 1_555 1_555
H18_15 C37_15 1_555 1_555
C38_15 C29_15 1_555 1_555
C39_15 C38_15 1_555 1_555
H19_15 C39_15 1_555 1_555
C40_15 C35_15 1_555 1_555
H20_15 C40_15 1_555 1_555
Cu5_5 O3_8 1_555 1_555
Cu8_5 O4_8 1_555 1_555
O11_8 Cu5_7 1_555 1_555
O12_8 Cu8_7 1_555 1_555
O13_11 Cu5_7 1_555 1_555
O14_11 Cu8_7 1_555 1_555
C6_15 C7_15 1_555 1_555
C9_15 C10_15 1_555 1_555
C10_15 C11_15 1_555 1_555
C12_15 C13_15 1_555 1_555
C18_15 C19_15 1_555 1_555
C23_15 C24_15 1_555 1_555
C24_15 C25_15 1_555 1_555
C25_15 C26_15 1_555 1_555
C31_15 C32_15 1_555 1_555
C33_15 C34_15 1_555 1_555
C37_15 C38_15 1_555 1_555
C39_15 C40_15 1_555 1_555
O9_15 H21_15 1_555 1_555
O9_15 H22_15 1_555 1_555
O10_15 H23_15 1_555 1_555
O10_15 H24_15 1_555 1_555
O1_16 C20_16 1_555 1_555
O2_16 C20_16 1_555 1_555
O11_8 C27_16 1_555 1_555
O12_8 C27_16 1_555 1_555
O5_8 C1_16 1_555 1_555
O6_8 C1_16 1_555 1_555
O15_10 C28_16 1_555 1_555
O16_10 C28_16 1_555 1_555
N1_16 C5_16 1_555 1_555
N2_16 C17_16 1_555 1_555
C1_16 C2_16 1_555 1_555
C2_16 C3_16 1_555 1_555
C3_16 H1_16 1_555 1_555
C4_16 C3_16 1_555 1_555
C5_16 C4_16 1_555 1_555
C6_16 C5_16 1_555 1_555
H2_16 C6_16 1_555 1_555
C7_16 C2_16 1_555 1_555
H3_16 C7_16 1_555 1_555
C8_16 C9_16 1_555 1_555
C9_16 H4_16 1_555 1_555
C10_16 C4_16 1_555 1_555
C11_16 N1_16 1_555 1_555
C12_16 C11_16 1_555 1_555
H5_16 C12_16 1_555 1_555
C13_16 C8_16 1_555 1_555
H6_16 C13_16 1_555 1_555
C14_16 C15_16 1_555 1_555
C15_16 H7_16 1_555 1_555
C16_16 C15_16 1_555 1_555
C17_16 C16_16 1_555 1_555
C18_16 C17_16 1_555 1_555
H8_16 C18_16 1_555 1_555
C19_16 C14_16 1_555 1_555
H9_16 C19_16 1_555 1_555
C20_16 C21_16 1_555 1_555
C21_16 C22_16 1_555 1_555
C22_16 H10_16 1_555 1_555
C23_16 C22_16 1_555 1_555
H11_16 C23_16 1_555 1_555
C24_16 N2_16 1_555 1_555
C25_16 C16_16 1_555 1_555
C26_16 C21_16 1_555 1_555
H12_16 C26_16 1_555 1_555
C27_16 C8_16 1_555 1_555
C28_16 C14_16 1_555 1_555
C29_16 C30_16 1_555 1_555
C30_16 H13_16 1_555 1_555
C31_16 C30_16 1_555 1_555
H14_16 C31_16 1_555 1_555
C32_16 N2_16 1_555 1_555
C33_16 C32_16 1_555 1_555
H15_16 C33_16 1_555 1_555
C34_16 C29_16 1_555 1_555
H16_16 C34_16 1_555 1_555
C35_16 N1_16 1_555 1_555
C36_16 C35_16 1_555 1_555
H17_16 C36_16 1_555 1_555
C37_16 C36_16 1_555 1_555
H18_16 C37_16 1_555 1_555
C38_16 C29_16 1_555 1_555
C39_16 C38_16 1_555 1_555
H19_16 C39_16 1_555 1_555
C40_16 C35_16 1_555 1_555
H20_16 C40_16 1_555 1_555
Cu5_3 O5_8 1_555 1_555
Cu8_3 O6_8 1_555 1_555
C6_16 C7_16 1_555 1_555
C9_16 C10_16 1_555 1_555
C10_16 C11_16 1_555 1_555
C12_16 C13_16 1_555 1_555
C18_16 C19_16 1_555 1_555
C23_16 C24_16 1_555 1_555
C24_16 C25_16 1_555 1_555
C25_16 C26_16 1_555 1_555
C31_16 C32_16 1_555 1_555
C33_16 C34_16 1_555 1_555
C37_16 C38_16 1_555 1_555
C39_16 C40_16 1_555 1_555
O9_16 Cu8_5 1_555 1_555
O10_16 Cu5_5 1_555 1_555
O13_12 Cu5_5 1_555 1_555
O14_12 Cu8_5 1_555 1_555
O9_16 H21_16 1_555 1_555
O9_16 H22_16 1_555 1_555
O10_16 H23_16 1_555 1_555
O10_16 H24_16 1_555 1_555
O9_17 Cu8_10 1_555 1_555
O10_17 Cu5_10 1_555 1_555
O11_9 Cu5_10 1_555 1_555
O12_9 Cu8_10 1_555 1_555
O9_17 H21_17 1_555 1_555
O9_17 H22_17 1_555 1_555
O10_17 H23_17 1_555 1_555
O10_17 H24_17 1_555 1_555
O1_17 C20_17 1_555 1_555
O2_17 C20_17 1_555 1_555
O13_9 C1_17 1_555 1_555
O14_9 C1_17 1_555 1_555
O15_4 C28_17 1_555 1_555
O16_4 C28_17 1_555 1_555
N1_17 C5_17 1_555 1_555
N2_17 C17_17 1_555 1_555
C1_17 C2_17 1_555 1_555
C2_17 C3_17 1_555 1_555
C3_17 H1_17 1_555 1_555
C4_17 C3_17 1_555 1_555
C5_17 C4_17 1_555 1_555
C6_17 C5_17 1_555 1_555
H2_17 C6_17 1_555 1_555
C7_17 C2_17 1_555 1_555
H3_17 C7_17 1_555 1_555
C10_17 C4_17 1_555 1_555
C11_17 N1_17 1_555 1_555
C14_17 C15_17 1_555 1_555
C15_17 H7_17 1_555 1_555
C16_17 C15_17 1_555 1_555
C17_17 C16_17 1_555 1_555
C18_17 C17_17 1_555 1_555
H8_17 C18_17 1_555 1_555
C19_17 C14_17 1_555 1_555
H9_17 C19_17 1_555 1_555
C20_17 C21_17 1_555 1_555
C21_17 C22_17 1_555 1_555
C22_17 H10_17 1_555 1_555
C23_17 C22_17 1_555 1_555
H11_17 C23_17 1_555 1_555
C24_17 N2_17 1_555 1_555
C25_17 C16_17 1_555 1_555
C26_17 C21_17 1_555 1_555
H12_17 C26_17 1_555 1_555
C28_17 C14_17 1_555 1_555
C29_17 C30_17 1_555 1_555
C31_17 C30_17 1_555 1_555
C32_17 N2_17 1_555 1_555
C33_17 C32_17 1_555 1_555
H15_17 C33_17 1_555 1_555
C34_17 C29_17 1_555 1_555
H16_17 C34_17 1_555 1_555
C35_17 N1_17 1_555 1_555
C36_17 C35_17 1_555 1_555
H17_17 C36_17 1_555 1_555
C37_17 C36_17 1_555 1_555
H18_17 C37_17 1_555 1_555
C38_17 C29_17 1_555 1_555
C6_17 C7_17 1_555 1_555
C10_17 C11_17 1_555 1_555
C18_17 C19_17 1_555 1_555
C23_17 C24_17 1_555 1_555
C24_17 C25_17 1_555 1_555
C25_17 C26_17 1_555 1_555
C31_17 C32_17 1_555 1_555
C33_17 C34_17 1_555 1_555
C37_17 C38_17 1_555 1_555
O3_9 C27_17 1_555 1_555
O4_9 C27_17 1_555 1_555
C8_17 C9_17 1_555 1_555
C9_17 H4_17 1_555 1_555
H5_17 C12_17 1_555 1_555
C13_17 C8_17 1_555 1_555
H6_17 C13_17 1_555 1_555
C27_17 C8_17 1_555 1_555
H19_17 C39_17 1_555 1_555
H20_17 C40_17 1_555 1_555
Cu5_12 O3_9 1_555 1_555
Cu8_12 O4_9 1_555 1_555
C12_17 C13_17 1_555 1_555
C39_17 C40_17 1_555 1_555
O11_9 C27_18 1_555 1_555
O12_9 C27_18 1_555 1_555
C8_18 C9_18 1_555 1_555
C9_18 H4_18 1_555 1_555
H5_18 C12_18 1_555 1_555
C13_18 C8_18 1_555 1_555
H6_18 C13_18 1_555 1_555
C27_18 C8_18 1_555 1_555
H19_18 C39_18 1_555 1_555
H20_18 C40_18 1_555 1_555
C12_18 C13_18 1_555 1_555
C39_18 C40_18 1_555 1_555
Cu5_12 O1_18 1_555 1_555
Cu8_12 O2_18 1_555 1_555
O1_18 C20_18 1_555 1_555
O2_18 C20_18 1_555 1_555
O13_12 C1_18 1_555 1_555
O14_12 C1_18 1_555 1_555
O15 C28_18 1_555 1_555
O16 C28_18 1_555 1_555
O9_18 Cu8_12 1_555 1_555
O10_18 Cu5_12 1_555 1_555
N1_18 C5_18 1_555 1_555
N2_18 C17_18 1_555 1_555
C1_18 C2_18 1_555 1_555
C2_18 C3_18 1_555 1_555
C3_18 H1_18 1_555 1_555
C4_18 C3_18 1_555 1_555
C5_18 C4_18 1_555 1_555
C6_18 C5_18 1_555 1_555
H2_18 C6_18 1_555 1_555
C7_18 C2_18 1_555 1_555
H3_18 C7_18 1_555 1_555
C10_18 C4_18 1_555 1_555
C11_18 N1_18 1_555 1_555
C14_18 C15_18 1_555 1_555
C15_18 H7_18 1_555 1_555
C16_18 C15_18 1_555 1_555
C17_18 C16_18 1_555 1_555
C18_18 C17_18 1_555 1_555
H8_18 C18_18 1_555 1_555
C19_18 C14_18 1_555 1_555
H9_18 C19_18 1_555 1_555
C20_18 C21_18 1_555 1_555
C21_18 C22_18 1_555 1_555
C22_18 H10_18 1_555 1_555
C23_18 C22_18 1_555 1_555
H11_18 C23_18 1_555 1_555
C24_18 N2_18 1_555 1_555
C25_18 C16_18 1_555 1_555
C26_18 C21_18 1_555 1_555
H12_18 C26_18 1_555 1_555
C28_18 C14_18 1_555 1_555
C29_18 C30_18 1_555 1_555
C31_18 C30_18 1_555 1_555
C32_18 N2_18 1_555 1_555
C33_18 C32_18 1_555 1_555
H15_18 C33_18 1_555 1_555
C34_18 C29_18 1_555 1_555
H16_18 C34_18 1_555 1_555
C35_18 N1_18 1_555 1_555
C36_18 C35_18 1_555 1_555
H17_18 C36_18 1_555 1_555
C37_18 C36_18 1_555 1_555
H18_18 C37_18 1_555 1_555
C38_18 C29_18 1_555 1_555
C6_18 C7_18 1_555 1_555
C10_18 C11_18 1_555 1_555
C18_18 C19_18 1_555 1_555
C23_18 C24_18 1_555 1_555
C24_18 C25_18 1_555 1_555
C25_18 C26_18 1_555 1_555
C31_18 C32_18 1_555 1_555
C33_18 C34_18 1_555 1_555
C37_18 C38_18 1_555 1_555
O9_18 H21_18 1_555 1_555
O9_18 H22_18 1_555 1_555
O10_18 H23_18 1_555 1_555
O10_18 H24_18 1_555 1_555
Cu5_11 O1_19 1_555 1_555
Cu8_11 O2_19 1_555 1_555
O1_19 C20_19 1_555 1_555
O2_19 C20_19 1_555 1_555
O3_10 C27_19 1_555 1_555
O4_10 C27_19 1_555 1_555
O13_10 C1_19 1_555 1_555
O14_10 C1_19 1_555 1_555
O15_3 C28_19 1_555 1_555
O16_3 C28_19 1_555 1_555
O9_19 Cu8_11 1_555 1_555
O10_19 Cu5_11 1_555 1_555
N1_19 C5_19 1_555 1_555
N2_19 C17_19 1_555 1_555
C1_19 C2_19 1_555 1_555
C2_19 C3_19 1_555 1_555
C3_19 H1_19 1_555 1_555
C4_19 C3_19 1_555 1_555
C5_19 C4_19 1_555 1_555
C6_19 C5_19 1_555 1_555
H2_19 C6_19 1_555 1_555
C7_19 C2_19 1_555 1_555
H3_19 C7_19 1_555 1_555
C8_19 C9_19 1_555 1_555
C9_19 H4_19 1_555 1_555
C10_19 C4_19 1_555 1_555
C11_19 N1_19 1_555 1_555
C12_19 C11_19 1_555 1_555
H5_19 C12_19 1_555 1_555
C13_19 C8_19 1_555 1_555
H6_19 C13_19 1_555 1_555
C14_19 C15_19 1_555 1_555
C15_19 H7_19 1_555 1_555
C16_19 C15_19 1_555 1_555
C17_19 C16_19 1_555 1_555
C18_19 C17_19 1_555 1_555
H8_19 C18_19 1_555 1_555
C19_19 C14_19 1_555 1_555
H9_19 C19_19 1_555 1_555
C20_19 C21_19 1_555 1_555
C21_19 C22_19 1_555 1_555
C22_19 H10_19 1_555 1_555
C23_19 C22_19 1_555 1_555
H11_19 C23_19 1_555 1_555
C24_19 N2_19 1_555 1_555
C25_19 C16_19 1_555 1_555
C26_19 C21_19 1_555 1_555
H12_19 C26_19 1_555 1_555
C27_19 C8_19 1_555 1_555
C28_19 C14_19 1_555 1_555
C29_19 C30_19 1_555 1_555
C30_19 H13_19 1_555 1_555
C31_19 C30_19 1_555 1_555
H14_19 C31_19 1_555 1_555
C32_19 N2_19 1_555 1_555
C33_19 C32_19 1_555 1_555
H15_19 C33_19 1_555 1_555
C34_19 C29_19 1_555 1_555
H16_19 C34_19 1_555 1_555
C35_19 N1_19 1_555 1_555
C36_19 C35_19 1_555 1_555
H17_19 C36_19 1_555 1_555
C37_19 C36_19 1_555 1_555
H18_19 C37_19 1_555 1_555
C38_19 C29_19 1_555 1_555
C39_19 C38_19 1_555 1_555
H19_19 C39_19 1_555 1_555
C40_19 C35_19 1_555 1_555
H20_19 C40_19 1_555 1_555
Cu5_9 O3_10 1_555 1_555
Cu8_9 O4_10 1_555 1_555
O11_10 Cu5_11 1_555 1_555
O12_10 Cu8_11 1_555 1_555
O13_15 Cu5_11 1_555 1_555
O14_15 Cu8_11 1_555 1_555
C6_19 C7_19 1_555 1_555
C9_19 C10_19 1_555 1_555
C10_19 C11_19 1_555 1_555
C12_19 C13_19 1_555 1_555
C18_19 C19_19 1_555 1_555
C23_19 C24_19 1_555 1_555
C24_19 C25_19 1_555 1_555
C25_19 C26_19 1_555 1_555
C31_19 C32_19 1_555 1_555
C33_19 C34_19 1_555 1_555
C37_19 C38_19 1_555 1_555
C39_19 C40_19 1_555 1_555
O9_19 H21_19 1_555 1_555
O9_19 H22_19 1_555 1_555
O10_19 H23_19 1_555 1_555
O10_19 H24_19 1_555 1_555
O1_20 C20_20 1_555 1_555
O2_20 C20_20 1_555 1_555
O11_10 C27_20 1_555 1_555
O12_10 C27_20 1_555 1_555
O13_11 C1_20 1_555 1_555
O14_11 C1_20 1_555 1_555
O15_2 C28_20 1_555 1_555
O16_2 C28_20 1_555 1_555
N1_20 C5_20 1_555 1_555
N2_20 C17_20 1_555 1_555
C1_20 C2_20 1_555 1_555
C2_20 C3_20 1_555 1_555
C3_20 H1_20 1_555 1_555
C4_20 C3_20 1_555 1_555
C5_20 C4_20 1_555 1_555
C6_20 C5_20 1_555 1_555
H2_20 C6_20 1_555 1_555
C7_20 C2_20 1_555 1_555
H3_20 C7_20 1_555 1_555
C8_20 C9_20 1_555 1_555
C9_20 H4_20 1_555 1_555
C10_20 C4_20 1_555 1_555
C11_20 N1_20 1_555 1_555
C12_20 C11_20 1_555 1_555
H5_20 C12_20 1_555 1_555
C13_20 C8_20 1_555 1_555
H6_20 C13_20 1_555 1_555
C14_20 C15_20 1_555 1_555
C15_20 H7_20 1_555 1_555
C16_20 C15_20 1_555 1_555
C17_20 C16_20 1_555 1_555
C18_20 C17_20 1_555 1_555
H8_20 C18_20 1_555 1_555
C19_20 C14_20 1_555 1_555
H9_20 C19_20 1_555 1_555
C20_20 C21_20 1_555 1_555
C21_20 C22_20 1_555 1_555
C22_20 H10_20 1_555 1_555
C23_20 C22_20 1_555 1_555
H11_20 C23_20 1_555 1_555
C24_20 N2_20 1_555 1_555
C25_20 C16_20 1_555 1_555
C26_20 C21_20 1_555 1_555
H12_20 C26_20 1_555 1_555
C27_20 C8_20 1_555 1_555
C28_20 C14_20 1_555 1_555
C29_20 C30_20 1_555 1_555
C30_20 H13_20 1_555 1_555
C31_20 C30_20 1_555 1_555
H14_20 C31_20 1_555 1_555
C32_20 N2_20 1_555 1_555
C33_20 C32_20 1_555 1_555
H15_20 C33_20 1_555 1_555
C34_20 C29_20 1_555 1_555
H16_20 C34_20 1_555 1_555
C35_20 N1_20 1_555 1_555
C36_20 C35_20 1_555 1_555
H17_20 C36_20 1_555 1_555
C37_20 C36_20 1_555 1_555
H18_20 C37_20 1_555 1_555
C38_20 C29_20 1_555 1_555
C39_20 C38_20 1_555 1_555
H19_20 C39_20 1_555 1_555
C40_20 C35_20 1_555 1_555
H20_20 C40_20 1_555 1_555
C6_20 C7_20 1_555 1_555
C9_20 C10_20 1_555 1_555
C10_20 C11_20 1_555 1_555
C12_20 C13_20 1_555 1_555
C18_20 C19_20 1_555 1_555
C23_20 C24_20 1_555 1_555
C24_20 C25_20 1_555 1_555
C25_20 C26_20 1_555 1_555
C31_20 C32_20 1_555 1_555
C33_20 C34_20 1_555 1_555
C37_20 C38_20 1_555 1_555
C39_20 C40_20 1_555 1_555
O9_20 Cu8_9 1_555 1_555
O10_20 Cu5_9 1_555 1_555
O13_16 Cu5_9 1_555 1_555
O14_16 Cu8_9 1_555 1_555
O9_20 H21_20 1_555 1_555
O9_20 H22_20 1_555 1_555
O10_20 H23_20 1_555 1_555
O10_20 H24_20 1_555 1_555
O9_21 Cu8_2 1_555 1_555
O10_21 Cu5_2 1_555 1_555
O11_11 Cu5_2 1_555 1_555
O12_11 Cu8_2 1_555 1_555
O9_21 H21_21 1_555 1_555
O9_21 H22_21 1_555 1_555
O10_21 H23_21 1_555 1_555
O10_21 H24_21 1_555 1_555
O1_21 C20_21 1_555 1_555
O2_21 C20_21 1_555 1_555
O13_13 C1_21 1_555 1_555
O14_13 C1_21 1_555 1_555
O15_8 C28_21 1_555 1_555
O16_8 C28_21 1_555 1_555
N1_21 C5_21 1_555 1_555
N2_21 C17_21 1_555 1_555
C1_21 C2_21 1_555 1_555
C2_21 C3_21 1_555 1_555
C3_21 H1_21 1_555 1_555
C4_21 C3_21 1_555 1_555
C5_21 C4_21 1_555 1_555
C6_21 C5_21 1_555 1_555
H2_21 C6_21 1_555 1_555
C7_21 C2_21 1_555 1_555
H3_21 C7_21 1_555 1_555
C10_21 C4_21 1_555 1_555
C11_21 N1_21 1_555 1_555
C14_21 C15_21 1_555 1_555
C15_21 H7_21 1_555 1_555
C16_21 C15_21 1_555 1_555
C17_21 C16_21 1_555 1_555
C18_21 C17_21 1_555 1_555
H8_21 C18_21 1_555 1_555
C19_21 C14_21 1_555 1_555
H9_21 C19_21 1_555 1_555
C20_21 C21_21 1_555 1_555
C21_21 C22_21 1_555 1_555
C22_21 H10_21 1_555 1_555
C23_21 C22_21 1_555 1_555
H11_21 C23_21 1_555 1_555
C24_21 N2_21 1_555 1_555
C25_21 C16_21 1_555 1_555
C26_21 C21_21 1_555 1_555
H12_21 C26_21 1_555 1_555
C28_21 C14_21 1_555 1_555
C29_21 C30_21 1_555 1_555
C31_21 C30_21 1_555 1_555
C32_21 N2_21 1_555 1_555
C33_21 C32_21 1_555 1_555
H15_21 C33_21 1_555 1_555
C34_21 C29_21 1_555 1_555
H16_21 C34_21 1_555 1_555
C35_21 N1_21 1_555 1_555
C36_21 C35_21 1_555 1_555
H17_21 C36_21 1_555 1_555
C37_21 C36_21 1_555 1_555
H18_21 C37_21 1_555 1_555
C38_21 C29_21 1_555 1_555
C6_21 C7_21 1_555 1_555
C10_21 C11_21 1_555 1_555
C18_21 C19_21 1_555 1_555
C23_21 C24_21 1_555 1_555
C24_21 C25_21 1_555 1_555
C25_21 C26_21 1_555 1_555
C31_21 C32_21 1_555 1_555
C33_21 C34_21 1_555 1_555
C37_21 C38_21 1_555 1_555
O3_11 C27_21 1_555 1_555
O4_11 C27_21 1_555 1_555
C8_21 C9_21 1_555 1_555
C9_21 H4_21 1_555 1_555
H5_21 C12_21 1_555 1_555
C13_21 C8_21 1_555 1_555
H6_21 C13_21 1_555 1_555
C27_21 C8_21 1_555 1_555
H19_21 C39_21 1_555 1_555
H20_21 C40_21 1_555 1_555
Cu5_4 O3_11 1_555 1_555
Cu8_4 O4_11 1_555 1_555
C12_21 C13_21 1_555 1_555
C39_21 C40_21 1_555 1_555
O11_11 C27_22 1_555 1_555
O12_11 C27_22 1_555 1_555
C8_22 C9_22 1_555 1_555
C9_22 H4_22 1_555 1_555
H5_22 C12_22 1_555 1_555
C13_22 C8_22 1_555 1_555
H6_22 C13_22 1_555 1_555
C27_22 C8_22 1_555 1_555
H19_22 C39_22 1_555 1_555
H20_22 C40_22 1_555 1_555
C12_22 C13_22 1_555 1_555
C39_22 C40_22 1_555 1_555
Cu5_4 O1_22 1_555 1_555
Cu8_4 O2_22 1_555 1_555
O1_22 C20_22 1_555 1_555
O2_22 C20_22 1_555 1_555
O13_16 C1_22 1_555 1_555
O14_16 C1_22 1_555 1_555
O15_5 C28_22 1_555 1_555
O16_5 C28_22 1_555 1_555
O9_22 Cu8_4 1_555 1_555
O10_22 Cu5_4 1_555 1_555
N1_22 C5_22 1_555 1_555
N2_22 C17_22 1_555 1_555
C1_22 C2_22 1_555 1_555
C2_22 C3_22 1_555 1_555
C3_22 H1_22 1_555 1_555
C4_22 C3_22 1_555 1_555
C5_22 C4_22 1_555 1_555
C6_22 C5_22 1_555 1_555
H2_22 C6_22 1_555 1_555
C7_22 C2_22 1_555 1_555
H3_22 C7_22 1_555 1_555
C10_22 C4_22 1_555 1_555
C11_22 N1_22 1_555 1_555
C14_22 C15_22 1_555 1_555
C15_22 H7_22 1_555 1_555
C16_22 C15_22 1_555 1_555
C17_22 C16_22 1_555 1_555
C18_22 C17_22 1_555 1_555
H8_22 C18_22 1_555 1_555
C19_22 C14_22 1_555 1_555
H9_22 C19_22 1_555 1_555
C20_22 C21_22 1_555 1_555
C21_22 C22_22 1_555 1_555
C22_22 H10_22 1_555 1_555
C23_22 C22_22 1_555 1_555
H11_22 C23_22 1_555 1_555
C24_22 N2_22 1_555 1_555
C25_22 C16_22 1_555 1_555
C26_22 C21_22 1_555 1_555
H12_22 C26_22 1_555 1_555
C28_22 C14_22 1_555 1_555
C29_22 C30_22 1_555 1_555
C31_22 C30_22 1_555 1_555
C32_22 N2_22 1_555 1_555
C33_22 C32_22 1_555 1_555
H15_22 C33_22 1_555 1_555
C34_22 C29_22 1_555 1_555
H16_22 C34_22 1_555 1_555
C35_22 N1_22 1_555 1_555
C36_22 C35_22 1_555 1_555
H17_22 C36_22 1_555 1_555
C37_22 C36_22 1_555 1_555
H18_22 C37_22 1_555 1_555
C38_22 C29_22 1_555 1_555
C6_22 C7_22 1_555 1_555
C10_22 C11_22 1_555 1_555
C18_22 C19_22 1_555 1_555
C23_22 C24_22 1_555 1_555
C24_22 C25_22 1_555 1_555
C25_22 C26_22 1_555 1_555
C31_22 C32_22 1_555 1_555
C33_22 C34_22 1_555 1_555
C37_22 C38_22 1_555 1_555
O9_22 H21_22 1_555 1_555
O9_22 H22_22 1_555 1_555
O10_22 H23_22 1_555 1_555
O10_22 H24_22 1_555 1_555
Cu5_3 O1_23 1_555 1_555
Cu8_3 O2_23 1_555 1_555
O1_23 C20_23 1_555 1_555
O2_23 C20_23 1_555 1_555
O3_12 C27_23 1_555 1_555
O4_12 C27_23 1_555 1_555
O13_14 C1_23 1_555 1_555
O14_14 C1_23 1_555 1_555
O15_7 C28_23 1_555 1_555
O16_7 C28_23 1_555 1_555
O9_23 Cu8_3 1_555 1_555
O10_23 Cu5_3 1_555 1_555
N1_23 C5_23 1_555 1_555
N2_23 C17_23 1_555 1_555
C1_23 C2_23 1_555 1_555
C2_23 C3_23 1_555 1_555
C3_23 H1_23 1_555 1_555
C4_23 C3_23 1_555 1_555
C5_23 C4_23 1_555 1_555
C6_23 C5_23 1_555 1_555
H2_23 C6_23 1_555 1_555
C7_23 C2_23 1_555 1_555
H3_23 C7_23 1_555 1_555
C8_23 C9_23 1_555 1_555
C9_23 H4_23 1_555 1_555
C10_23 C4_23 1_555 1_555
C11_23 N1_23 1_555 1_555
C12_23 C11_23 1_555 1_555
H5_23 C12_23 1_555 1_555
C13_23 C8_23 1_555 1_555
H6_23 C13_23 1_555 1_555
C14_23 C15_23 1_555 1_555
C15_23 H7_23 1_555 1_555
C16_23 C15_23 1_555 1_555
C17_23 C16_23 1_555 1_555
C18_23 C17_23 1_555 1_555
H8_23 C18_23 1_555 1_555
C19_23 C14_23 1_555 1_555
H9_23 C19_23 1_555 1_555
C20_23 C21_23 1_555 1_555
C21_23 C22_23 1_555 1_555
C22_23 H10_23 1_555 1_555
C23_23 C22_23 1_555 1_555
H11_23 C23_23 1_555 1_555
C24_23 N2_23 1_555 1_555
C25_23 C16_23 1_555 1_555
C26_23 C21_23 1_555 1_555
H12_23 C26_23 1_555 1_555
C27_23 C8_23 1_555 1_555
C28_23 C14_23 1_555 1_555
C29_23 C30_23 1_555 1_555
C30_23 H13_23 1_555 1_555
C31_23 C30_23 1_555 1_555
H14_23 C31_23 1_555 1_555
C32_23 N2_23 1_555 1_555
C33_23 C32_23 1_555 1_555
H15_23 C33_23 1_555 1_555
C34_23 C29_23 1_555 1_555
H16_23 C34_23 1_555 1_555
C35_23 N1_23 1_555 1_555
C36_23 C35_23 1_555 1_555
H17_23 C36_23 1_555 1_555
C37_23 C36_23 1_555 1_555
H18_23 C37_23 1_555 1_555
C38_23 C29_23 1_555 1_555
C39_23 C38_23 1_555 1_555
H19_23 C39_23 1_555 1_555
C40_23 C35_23 1_555 1_555
H20_23 C40_23 1_555 1_555
Cu5 O3_12 1_555 1_555
Cu8 O4_12 1_555 1_555
O11_12 Cu5_3 1_555 1_555
O12_12 Cu8_3 1_555 1_555
C6_23 C7_23 1_555 1_555
C9_23 C10_23 1_555 1_555
C10_23 C11_23 1_555 1_555
C12_23 C13_23 1_555 1_555
C18_23 C19_23 1_555 1_555
C23_23 C24_23 1_555 1_555
C24_23 C25_23 1_555 1_555
C25_23 C26_23 1_555 1_555
C31_23 C32_23 1_555 1_555
C33_23 C34_23 1_555 1_555
C37_23 C38_23 1_555 1_555
C39_23 C40_23 1_555 1_555
O9_23 H21_23 1_555 1_555
O9_23 H22_23 1_555 1_555
O10_23 H23_23 1_555 1_555
O10_23 H24_23 1_555 1_555
O1_24 C20_24 1_555 1_555
O2_24 C20_24 1_555 1_555
O11_12 C27_24 1_555 1_555
O12_12 C27_24 1_555 1_555
O13_15 C1_24 1_555 1_555
O14_15 C1_24 1_555 1_555
O15_6 C28_24 1_555 1_555
O16_6 C28_24 1_555 1_555
N1_24 C5_24 1_555 1_555
N2_24 C17_24 1_555 1_555
C1_24 C2_24 1_555 1_555
C2_24 C3_24 1_555 1_555
C3_24 H1_24 1_555 1_555
C4_24 C3_24 1_555 1_555
C5_24 C4_24 1_555 1_555
C6_24 C5_24 1_555 1_555
H2_24 C6_24 1_555 1_555
C7_24 C2_24 1_555 1_555
H3_24 C7_24 1_555 1_555
C8_24 C9_24 1_555 1_555
C9_24 H4_24 1_555 1_555
C10_24 C4_24 1_555 1_555
C11_24 N1_24 1_555 1_555
C12_24 C11_24 1_555 1_555
H5_24 C12_24 1_555 1_555
C13_24 C8_24 1_555 1_555
H6_24 C13_24 1_555 1_555
C14_24 C15_24 1_555 1_555
C15_24 H7_24 1_555 1_555
C16_24 C15_24 1_555 1_555
C17_24 C16_24 1_555 1_555
C18_24 C17_24 1_555 1_555
H8_24 C18_24 1_555 1_555
C19_24 C14_24 1_555 1_555
H9_24 C19_24 1_555 1_555
C20_24 C21_24 1_555 1_555
C21_24 C22_24 1_555 1_555
C22_24 H10_24 1_555 1_555
C23_24 C22_24 1_555 1_555
H11_24 C23_24 1_555 1_555
C24_24 N2_24 1_555 1_555
C25_24 C16_24 1_555 1_555
C26_24 C21_24 1_555 1_555
H12_24 C26_24 1_555 1_555
C27_24 C8_24 1_555 1_555
C28_24 C14_24 1_555 1_555
C29_24 C30_24 1_555 1_555
C30_24 H13_24 1_555 1_555
C31_24 C30_24 1_555 1_555
H14_24 C31_24 1_555 1_555
C32_24 N2_24 1_555 1_555
C33_24 C32_24 1_555 1_555
H15_24 C33_24 1_555 1_555
C34_24 C29_24 1_555 1_555
H16_24 C34_24 1_555 1_555
C35_24 N1_24 1_555 1_555
C36_24 C35_24 1_555 1_555
H17_24 C36_24 1_555 1_555
C37_24 C36_24 1_555 1_555
H18_24 C37_24 1_555 1_555
C38_24 C29_24 1_555 1_555
C39_24 C38_24 1_555 1_555
H19_24 C39_24 1_555 1_555
C40_24 C35_24 1_555 1_555
H20_24 C40_24 1_555 1_555
C6_24 C7_24 1_555 1_555
C9_24 C10_24 1_555 1_555
C10_24 C11_24 1_555 1_555
C12_24 C13_24 1_555 1_555
C18_24 C19_24 1_555 1_555
C23_24 C24_24 1_555 1_555
C24_24 C25_24 1_555 1_555
C25_24 C26_24 1_555 1_555
C31_24 C32_24 1_555 1_555
C33_24 C34_24 1_555 1_555
C37_24 C38_24 1_555 1_555
C39_24 C40_24 1_555 1_555
O9_24 Cu8 1_555 1_555
O10_24 Cu5 1_555 1_555
O9_24 H21_24 1_555 1_555
O9_24 H22_24 1_555 1_555
O10_24 H23_24 1_555 1_555
O10_24 H24_24 1_555 1_555

#END
