
###############################################################################
#
# This file contains modified crystal structure data generated from the
# MOF subset of the Cambridge Structural Database (CSD) v543 
# hosted by the Cambridge Crystallographic Data Centre (CCDC).
#
# This work is licensed under the Creative Commons
# Attribution-NonCommercial-ShareAlike 4.0 International License.
# To view a copy of this license, visit
# http://creativecommons.org/licenses/by-nc-sa/4.0/
# or send a letter to
# Creative Commons, PO Box 1866, Mountain View, CA 94042, USA.
#
# CIF created using the CSD Python API on 29 September 2022
# The structure has been converted into the P1 space group
# The structure has a 3D framework
# The original CSD entry PAJCUC03 is in the cubic crystal system
# The framework has been calculated to contain at least 10.0% void space
# The void calculation uses a probe of radius 1.32A, grid spacing 0.4
# H atom positions have been added when not included in the experimental data
#
###############################################################################

data_PAJCUC03
_chemical_formula_moiety         '(C960 H576 Cu48 N48 O240)n'
_symmetry_cell_setting           triclinic
_symmetry_space_group_name_H-M   'P 1'
_symmetry_Int_Tables_number      1
_space_group_name_Hall           'P 1'
loop_
_symmetry_equiv_pos_site_id
_symmetry_equiv_pos_as_xyz
1 x,y,z
_cell_length_a                   46.400(5)
_cell_length_b                   46.400(5)
_cell_length_c                   46.400(5)
_cell_angle_alpha                90
_cell_angle_beta                 90
_cell_angle_gamma                90
_cell_volume                     99897.3
loop_
_atom_site_label
_atom_site_type_symbol
_atom_site_fract_x
_atom_site_fract_y
_atom_site_fract_z
O3 O 0.15009(12) 0.00969(13) 0.44372(13)
O4 O 0.19789(13) 0.01528(15) 0.43933(15)
C8 C 0.17055(12) 0.00773(17) 0.39693(9)
C9 C 0.14382(10) 0.00342(15) 0.38410(11)
H4 H 0.126899 0.002914 0.395626
C11 C 0.16659(13) 0.00061(19) 0.33757(9)
C12 C 0.19332(11) 0.0049(2) 0.35039(12)
H5 H 0.210237 0.005428 0.338866
C13 C 0.19530(10) 0.00848(19) 0.38007(12)
H6 H 0.213568 0.011418 0.388829
C27 C 0.1727(2) 0.0114(2) 0.4291(2)
C30 C 0.2480(2) 0.0073(2) 0.2002(2)
H13 H 0.236604 0.024276 0.201670
C31 C 0.2701(2) 0.0059(2) 0.1800(2)
H14 H 0.273827 0.021859 0.167730
C39 C 0.2199(2) 0.0159(3) 0.2590(2)
H19 H 0.231200 0.032240 0.254151
C40 C 0.2003(3) 0.0174(3) 0.2816(2)
H20 H 0.198186 0.034783 0.292189
Cu3 Cu 0.14978(2) 0.01206(2) 0.48537(2)
Cu6 Cu 0.20541(2) 0.01695(2) 0.48024(2)
O13 O 0.34212(11) 0.02899(11) 0.98814(13)
O14 O 0.29365(11) 0.02434(12) 0.98060(14)
O1 O 0.34328(11) 0.98441(13) 0.02665(11)
O2 O 0.29455(11) 0.98362(13) 0.02344(12)
O5 O 0.02899(11) 0.98814(13) 0.34212(11)
O6 O 0.02434(12) 0.98060(14) 0.29365(11)
O7 O 0.44599(12) 0.98235(13) 0.14880(11)
O8 O 0.44146(13) 0.98020(14) 0.19703(13)
N1 N 0.15928(19) 0.9967(3) 0.30903(19)
N2 N 0.31103(19) 0.9807(3) 0.1582(2)
C1 C 0.0396(2) 0.9854(2) 0.3172(2)
C2 C 0.07153(9) 0.98790(18) 0.31362(12)
C3 C 0.08878(12) 0.99233(17) 0.33770(10)
H1 H 0.080301 0.993395 0.356310
C4 C 0.11843(11) 0.99520(18) 0.33457(11)
C5 C 0.13084(9) 0.99363(19) 0.30735(13)
C6 C 0.11359(13) 0.9892(2) 0.28326(10)
H2 H 0.122073 0.988135 0.264655
C7 C 0.08394(12) 0.9863(2) 0.28639(10)
H3 H 0.072152 0.983304 0.269929
C10 C 0.14184(10) 0.99987(17) 0.35443(11)
C14 C 0.39922(9) 0.98057(17) 0.16932(12)
C15 C 0.38613(10) 0.98082(16) 0.14237(10)
H7 H 0.397601 0.980962 0.125419
C16 C 0.35625(10) 0.98088(17) 0.14024(9)
C17 C 0.33946(8) 0.98067(19) 0.16505(12)
C18 C 0.35255(11) 0.9804(2) 0.19199(10)
H8 H 0.341071 0.980283 0.208947
C19 C 0.38243(12) 0.9804(2) 0.19413(9)
H9 H 0.391373 0.980194 0.212543
C20 C 0.31751(18) 0.98339(19) 0.03696(18)
C21 C 0.31435(11) 0.98272(17) 0.06898(9)
C22 C 0.28716(9) 0.98218(18) 0.08153(12)
H10 H 0.270429 0.982344 0.069724
C23 C 0.28444(9) 0.9814(2) 0.11135(12)
H11 H 0.265850 0.981048 0.119930
C24 C 0.30891(12) 0.98118(19) 0.12862(9)
C25 C 0.33611(10) 0.98171(18) 0.11607(11)
C26 C 0.33883(9) 0.98248(17) 0.08625(11)
H12 H 0.357415 0.982848 0.077672
C28 C 0.43095(19) 0.9811(2) 0.17324(18)
C29 C 0.24260(18) 0.9840(2) 0.21816(19)
C32 C 0.28682(19) 0.9811(3) 0.17784(19)
C33 C 0.2814(2) 0.9578(2) 0.1958(2)
H15 H 0.292818 0.940854 0.194326
C34 C 0.2593(2) 0.9592(2) 0.2160(2)
H16 H 0.255596 0.943270 0.228266
C35 C 0.1837(3) 0.9935(3) 0.2887(2)
C36 C 0.1867(3) 0.9680(3) 0.2731(3)
H17 H 0.175420 0.951657 0.277989
C37 C 0.2064(3) 0.9665(2) 0.2506(2)
H18 H 0.208434 0.949114 0.239950
C38 C 0.2229(2) 0.9904(3) 0.2435(2)
Cu5 Cu 0.48794(2) 0.98537(2) 0.14978(2)
Cu8 Cu 0.48305(2) 0.98024(2) 0.20541(2)
Cu1 Cu 0.35022(2) 0.98794(2) 0.98537(2)
Cu2 Cu 0.29459(2) 0.98305(2) 0.98024(2)
O9 O 0.24807(13) 0.9781(2) 0.97634(19)
O10 O 0.39619(10) 0.99191(15) 0.99015(16)
O11 O 0.34991(12) 0.99031(13) 0.94372(13)
O12 O 0.30211(13) 0.98472(15) 0.93933(15)
O15 O 0.35120(11) 0.94599(12) 0.98235(13)
O16 O 0.30297(13) 0.94146(13) 0.98020(14)
H21 H 0.238324 0.994768 0.985569
H22 H 0.242696 0.977259 0.955642
H23 H 0.403911 0.974375 0.999684
H24 H 0.405205 0.9941 0.970864
Cu4 Cu 0.98794(2) 0.98537(2) 0.35022(2)
Cu7 Cu 0.98305(2) 0.98024(2) 0.29459(2)
O1_2 O 0.15672(11) 0.01559(13) 0.52665(11)
O2_2 O 0.20545(11) 0.01638(13) 0.52344(12)
O5_2 O 0.47101(11) 0.01186(13) 0.84212(11)
O6_2 O 0.47566(12) 0.01940(14) 0.79365(11)
O7_2 O 0.05401(12) 0.01765(13) 0.64880(11)
O8_2 O 0.05854(13) 0.01980(14) 0.69703(13)
O9_2 O 0.25193(13) 0.0219(2) 0.47634(19)
O10_2 O 0.10381(10) 0.00809(15) 0.49015(16)
N1_2 N 0.34072(19) 0.0033(3) 0.80903(19)
N2_2 N 0.18897(19) 0.0193(3) 0.6582(2)
C1_2 C 0.4604(2) 0.0146(2) 0.8172(2)
C2_2 C 0.42847(9) 0.01210(18) 0.81362(12)
C3_2 C 0.41122(12) 0.00767(17) 0.83770(10)
H1_2 H 0.419699 0.006605 0.856310
C4_2 C 0.38157(11) 0.00480(18) 0.83457(11)
C5_2 C 0.36916(9) 0.00637(19) 0.80735(13)
C6_2 C 0.38641(13) 0.0108(2) 0.78326(10)
H2_2 H 0.377927 0.011865 0.764655
C7_2 C 0.41606(12) 0.0137(2) 0.78639(10)
H3_2 H 0.427848 0.016696 0.769929
C10_2 C 0.35816(10) 0.00013(17) 0.85443(11)
C14_2 C 0.10078(9) 0.01943(17) 0.66932(12)
C15_2 C 0.11387(10) 0.01918(16) 0.64237(10)
H7_2 H 0.102399 0.019038 0.625419
C16_2 C 0.14375(10) 0.01912(17) 0.64024(9)
C17_2 C 0.16054(8) 0.01933(19) 0.66505(12)
C18_2 C 0.14745(11) 0.0196(2) 0.69199(10)
H8_2 H 0.158929 0.019717 0.708947
C19_2 C 0.11757(12) 0.0196(2) 0.69413(9)
H9_2 H 0.108627 0.019806 0.712543
C20_2 C 0.18249(18) 0.01661(19) 0.53696(18)
C21_2 C 0.18565(11) 0.01728(17) 0.56898(9)
C22_2 C 0.21284(9) 0.01782(18) 0.58153(12)
H10_2 H 0.229571 0.017656 0.569724
C23_2 C 0.21556(9) 0.0186(2) 0.61135(12)
H11_2 H 0.234150 0.018952 0.619930
C24_2 C 0.19109(12) 0.01882(19) 0.62862(9)
C25_2 C 0.16389(10) 0.01829(18) 0.61607(11)
C26_2 C 0.16117(9) 0.01752(17) 0.58625(11)
H12_2 H 0.142585 0.017152 0.577672
C28_2 C 0.06905(19) 0.0189(2) 0.67324(18)
C29_2 C 0.25740(18) 0.0160(2) 0.71816(19)
C32_2 C 0.21318(19) 0.0189(3) 0.67784(19)
C33_2 C 0.2186(2) 0.0422(2) 0.6958(2)
H15_2 H 0.207182 0.059146 0.694326
C34_2 C 0.2407(2) 0.0408(2) 0.7160(2)
H16_2 H 0.244404 0.056730 0.728266
C35_2 C 0.3163(3) 0.0065(3) 0.7887(2)
C36_2 C 0.3133(3) 0.0320(3) 0.7731(3)
H17_2 H 0.324580 0.048343 0.777989
C37_2 C 0.2936(3) 0.0335(2) 0.7506(2)
H18_2 H 0.291566 0.050886 0.739950
C38_2 C 0.2771(2) 0.0096(3) 0.7435(2)
Cu4_2 Cu 0.51206(2) 0.01463(2) 0.85022(2)
Cu5_2 Cu 0.01206(2) 0.01463(2) 0.64978(2)
Cu7_2 Cu 0.51695(2) 0.01976(2) 0.79459(2)
Cu8_2 Cu 0.01695(2) 0.01976(2) 0.70541(2)
O15_2 O 0.14880(11) 0.05401(12) 0.48235(13)
O16_2 O 0.19703(13) 0.05854(13) 0.48020(14)
H21_2 H 0.261676 0.00523165 0.485569
H22_2 H 0.257304 0.022741 0.455642
H23_2 H 0.0960886 0.0256249 0.499684
H24_2 H 0.0947953 0.00590042 0.470864
C8_2 C 0.32945(12) 0.99227(17) 0.89693(9)
C9_2 C 0.35618(10) 0.99658(15) 0.88410(11)
H4_2 H 0.373101 0.997086 0.895626
C11_2 C 0.33341(13) 0.99939(19) 0.83757(9)
C12_2 C 0.30668(11) 0.9951(2) 0.85039(12)
H5_2 H 0.289763 0.994572 0.838866
C13_2 C 0.30470(10) 0.99152(19) 0.88007(12)
H6_2 H 0.286432 0.988582 0.888829
C27_2 C 0.3273(2) 0.9886(2) 0.9291(2)
C30_2 C 0.2520(2) 0.9927(2) 0.7002(2)
H13_2 H 0.263396 0.975724 0.701670
C31_2 C 0.2299(2) 0.9941(2) 0.6800(2)
H14_2 H 0.226173 0.978141 0.667730
C39_2 C 0.2801(2) 0.9841(3) 0.7590(2)
H19_2 H 0.268800 0.967760 0.754151
C40_2 C 0.2997(3) 0.9826(3) 0.7816(2)
H20_2 H 0.301814 0.965217 0.792189
O13_2 O 0.15788(11) 0.97101(11) 0.48814(13)
O14_2 O 0.20635(11) 0.97566(12) 0.48060(14)
Cu4_3 Cu 0.01206(2) 0.48537(2) 0.14978(2)
Cu7_3 Cu 0.01695(2) 0.48024(2) 0.20541(2)
Cu1_2 Cu 0.64978(2) 0.48794(2) 0.51463(2)
Cu2_2 Cu 0.70541(2) 0.48305(2) 0.51976(2)
O1_3 O 0.65672(11) 0.48441(13) 0.47335(11)
O2_3 O 0.70545(11) 0.48362(13) 0.47656(12)
O3_2 O 0.84991(12) 0.50969(13) 0.05628(13)
O4_2 O 0.80211(13) 0.51528(15) 0.06067(15)
O5_3 O 0.97101(11) 0.48814(13) 0.15788(11)
O6_3 O 0.97566(12) 0.48060(14) 0.20635(11)
O7_3 O 0.55401(12) 0.48235(13) 0.35120(11)
O8_3 O 0.55854(13) 0.48020(14) 0.30297(13)
O9_3 O 0.75193(13) 0.4781(2) 0.52366(19)
O10_3 O 0.60381(10) 0.49191(15) 0.50985(16)
N1_3 N 0.84072(19) 0.4967(3) 0.19097(19)
N2_3 N 0.68897(19) 0.4807(3) 0.3418(2)
C1_3 C 0.9604(2) 0.4854(2) 0.1828(2)
C2_3 C 0.92847(9) 0.48790(18) 0.18638(12)
C3_3 C 0.91122(12) 0.49233(17) 0.16230(10)
H1_3 H 0.919699 0.493395 0.143690
C4_3 C 0.88157(11) 0.49520(18) 0.16543(11)
C5_3 C 0.86916(9) 0.49363(19) 0.19265(13)
C6_3 C 0.88641(13) 0.4892(2) 0.21674(10)
H2_3 H 0.877927 0.488135 0.235345
C7_3 C 0.91606(12) 0.4863(2) 0.21361(10)
H3_3 H 0.927848 0.483304 0.230071
C8_3 C 0.82945(12) 0.50773(17) 0.10307(9)
C9_3 C 0.85618(10) 0.50342(15) 0.11590(11)
H4_3 H 0.873101 0.502914 0.104374
C10_3 C 0.85816(10) 0.49987(17) 0.14557(11)
C11_3 C 0.83341(13) 0.50061(19) 0.16243(9)
C12_3 C 0.80668(11) 0.5049(2) 0.14961(12)
H5_3 H 0.789763 0.505428 0.161134
C13_3 C 0.80470(10) 0.50848(19) 0.11993(12)
H6_3 H 0.786432 0.511418 0.111171
C14_3 C 0.60078(9) 0.48057(17) 0.33068(12)
C15_3 C 0.61387(10) 0.48082(16) 0.35763(10)
H7_3 H 0.602399 0.480962 0.374581
C16_3 C 0.64375(10) 0.48088(17) 0.35976(9)
C17_3 C 0.66054(8) 0.48067(19) 0.33495(12)
C18_3 C 0.64745(11) 0.4804(2) 0.30801(10)
H8_3 H 0.658929 0.480283 0.291053
C19_3 C 0.61757(12) 0.4804(2) 0.30587(9)
H9_3 H 0.608627 0.480194 0.287457
C20_3 C 0.68249(18) 0.48339(19) 0.46304(18)
C21_3 C 0.68565(11) 0.48272(17) 0.43102(9)
C22_3 C 0.71284(9) 0.48218(18) 0.41847(12)
H10_3 H 0.729571 0.482344 0.430276
C23_3 C 0.71556(9) 0.4814(2) 0.38865(12)
H11_3 H 0.734150 0.481048 0.380070
C24_3 C 0.69109(12) 0.48118(19) 0.37138(9)
C25_3 C 0.66389(10) 0.48171(18) 0.38393(11)
C26_3 C 0.66117(9) 0.48248(17) 0.41375(11)
H12_3 H 0.642585 0.482848 0.422328
C27_3 C 0.8273(2) 0.5114(2) 0.0709(2)
C28_3 C 0.56905(19) 0.4811(2) 0.32676(18)
C29_3 C 0.75740(18) 0.4840(2) 0.28184(19)
C30_3 C 0.7520(2) 0.5073(2) 0.2998(2)
H13_3 H 0.763396 0.524276 0.298330
C31_3 C 0.7299(2) 0.5059(2) 0.3200(2)
H14_3 H 0.726173 0.521859 0.332270
C32_3 C 0.71318(19) 0.4811(3) 0.32216(19)
C33_3 C 0.7186(2) 0.4578(2) 0.3042(2)
H15_3 H 0.707182 0.440854 0.305674
C34_3 C 0.7407(2) 0.4592(2) 0.2840(2)
H16_3 H 0.744404 0.443270 0.271734
C35_3 C 0.8163(3) 0.4935(3) 0.2113(2)
C36_3 C 0.8133(3) 0.4680(3) 0.2269(3)
H17_3 H 0.824580 0.451657 0.222011
C37_3 C 0.7936(3) 0.4665(2) 0.2494(2)
H18_3 H 0.791566 0.449114 0.260050
C38_3 C 0.7771(2) 0.4904(3) 0.2565(2)
C39_3 C 0.7801(2) 0.5159(3) 0.2410(2)
H19_3 H 0.768800 0.532240 0.245849
C40_3 C 0.7997(3) 0.5174(3) 0.2184(2)
H20_3 H 0.801814 0.534783 0.207811
Cu3_2 Cu 0.85022(2) 0.51206(2) 0.01463(2)
Cu5_3 Cu 0.51206(2) 0.48537(2) 0.35022(2)
Cu6_2 Cu 0.79459(2) 0.51695(2) 0.01976(2)
Cu8_3 Cu 0.51695(2) 0.48024(2) 0.29459(2)
O11_2 O 0.65009(12) 0.49031(13) 0.55628(13)
O12_2 O 0.69789(13) 0.48472(15) 0.56067(15)
O13_3 O 0.65788(11) 0.52899(11) 0.51186(13)
O14_3 O 0.70635(11) 0.52434(12) 0.51940(14)
O15_3 O 0.64880(11) 0.44599(12) 0.51765(13)
O16_3 O 0.69703(13) 0.44146(13) 0.51980(14)
H21_3 H 0.761676 0.494768 0.514431
H22_3 H 0.757304 0.477259 0.544358
H23_3 H 0.596089 0.474375 0.500316
H24_3 H 0.594795 0.4941 0.529136
O9_4 O 0.74807(13) 0.5219(2) 0.02366(19)
O10_4 O 0.89619(10) 0.50809(15) 0.00985(16)
O13_4 O 0.84212(11) 0.47101(11) 0.01186(13)
O14_4 O 0.79365(11) 0.47566(12) 0.01940(14)
O15_4 O 0.85120(11) 0.55401(12) 0.01765(13)
O16_4 O 0.80297(13) 0.55854(13) 0.01980(14)
H21_4 H 0.738324 0.505232 0.0144309
H22_4 H 0.742696 0.522741 0.044358
H23_4 H 0.903911 0.525625 0.000315551
H24_4 H 0.905205 0.5059 0.0291357
O1_4 O 0.84328(11) 0.51559(13) 0.97335(11)
O2_4 O 0.79455(11) 0.51638(13) 0.97656(12)
O5_4 O 0.52899(11) 0.51186(13) 0.65788(11)
O6_4 O 0.52434(12) 0.51940(14) 0.70635(11)
O7_4 O 0.94599(12) 0.51765(13) 0.85120(11)
O8_4 O 0.94146(13) 0.51980(14) 0.80297(13)
N1_4 N 0.65928(19) 0.5033(3) 0.69097(19)
N2_4 N 0.81103(19) 0.5193(3) 0.8418(2)
C1_4 C 0.5396(2) 0.5146(2) 0.6828(2)
C2_4 C 0.57153(9) 0.51210(18) 0.68638(12)
C3_4 C 0.58878(12) 0.50767(17) 0.66230(10)
H1_4 H 0.580301 0.506605 0.643690
C4_4 C 0.61843(11) 0.50480(18) 0.66543(11)
C5_4 C 0.63084(9) 0.50637(19) 0.69265(13)
C6_4 C 0.61359(13) 0.5108(2) 0.71674(10)
H2_4 H 0.622073 0.511865 0.735345
C7_4 C 0.58394(12) 0.5137(2) 0.71361(10)
H3_4 H 0.572152 0.516696 0.730071
C8_4 C 0.67055(12) 0.49227(17) 0.60307(9)
C9_4 C 0.64382(10) 0.49658(15) 0.61590(11)
H4_4 H 0.626899 0.497086 0.604374
C10_4 C 0.64184(10) 0.50013(17) 0.64557(11)
C11_4 C 0.66659(13) 0.49939(19) 0.66243(9)
C12_4 C 0.69332(11) 0.4951(2) 0.64961(12)
H5_4 H 0.710237 0.494572 0.661134
C13_4 C 0.69530(10) 0.49152(19) 0.61993(12)
H6_4 H 0.713568 0.488582 0.611171
C14_4 C 0.89922(9) 0.51943(17) 0.83068(12)
C15_4 C 0.88613(10) 0.51918(16) 0.85763(10)
H7_4 H 0.897601 0.519038 0.874581
C16_4 C 0.85625(10) 0.51912(17) 0.85976(9)
C17_4 C 0.83946(8) 0.51933(19) 0.83495(12)
C18_4 C 0.85255(11) 0.5196(2) 0.80801(10)
H8_4 H 0.841071 0.519717 0.791053
C19_4 C 0.88243(12) 0.5196(2) 0.80587(9)
H9_4 H 0.891373 0.519806 0.787457
C20_4 C 0.81751(18) 0.51661(19) 0.96304(18)
C21_4 C 0.81435(11) 0.51728(17) 0.93102(9)
C22_4 C 0.78716(9) 0.51782(18) 0.91847(12)
H10_4 H 0.770429 0.517656 0.930276
C23_4 C 0.78444(9) 0.5186(2) 0.88865(12)
H11_4 H 0.765850 0.518952 0.880070
C24_4 C 0.80891(12) 0.51882(19) 0.87138(9)
C25_4 C 0.83611(10) 0.51829(18) 0.88393(11)
C26_4 C 0.83883(9) 0.51752(17) 0.91375(11)
H12_4 H 0.857415 0.517152 0.922328
C27_4 C 0.6727(2) 0.4886(2) 0.5709(2)
C28_4 C 0.93095(19) 0.5189(2) 0.82676(18)
C29_4 C 0.74260(18) 0.5160(2) 0.78184(19)
C30_4 C 0.7480(2) 0.4927(2) 0.7998(2)
H13_4 H 0.736604 0.475724 0.798330
C31_4 C 0.7701(2) 0.4941(2) 0.8200(2)
H14_4 H 0.773827 0.478141 0.832270
C32_4 C 0.78682(19) 0.5189(3) 0.82216(19)
C33_4 C 0.7814(2) 0.5422(2) 0.8042(2)
H15_4 H 0.792818 0.559146 0.805674
C34_4 C 0.7593(2) 0.5408(2) 0.7840(2)
H16_4 H 0.755596 0.556730 0.771734
C35_4 C 0.6837(3) 0.5065(3) 0.7113(2)
C36_4 C 0.6867(3) 0.5320(3) 0.7269(3)
H17_4 H 0.675420 0.548343 0.722011
C37_4 C 0.7064(3) 0.5335(2) 0.7494(2)
H18_4 H 0.708434 0.550886 0.760050
C38_4 C 0.7229(2) 0.5096(3) 0.7565(2)
C39_4 C 0.7199(2) 0.4841(3) 0.7410(2)
H19_4 H 0.731200 0.467760 0.745849
C40_4 C 0.7003(3) 0.4826(3) 0.7184(2)
H20_4 H 0.698186 0.465217 0.707811
Cu4_4 Cu 0.48794(2) 0.51463(2) 0.64978(2)
Cu5_4 Cu 0.98794(2) 0.51463(2) 0.85022(2)
Cu7_4 Cu 0.48305(2) 0.51976(2) 0.70541(2)
Cu8_4 Cu 0.98305(2) 0.51976(2) 0.79459(2)
O3_3 O 0.44372(13) 0.15009(12) 0.00969(13)
O4_3 O 0.43933(15) 0.19789(13) 0.01528(15)
C8_5 C 0.39693(9) 0.17055(12) 0.00773(17)
C9_5 C 0.38410(11) 0.14382(10) 0.00342(15)
H4_5 H 0.395626 0.126899 0.002914
C11_5 C 0.33757(9) 0.16659(13) 0.00061(19)
C12_5 C 0.35039(12) 0.19332(11) 0.0049(2)
H5_5 H 0.338866 0.210237 0.005428
C13_5 C 0.38007(12) 0.19530(10) 0.00848(19)
H6_5 H 0.388829 0.213568 0.011418
C27_5 C 0.4291(2) 0.1727(2) 0.0114(2)
C30_5 C 0.2002(2) 0.2480(2) 0.0073(2)
H13_5 H 0.201670 0.236604 0.024276
C31_5 C 0.1800(2) 0.2701(2) 0.0059(2)
H14_5 H 0.167730 0.273827 0.021859
C39_5 C 0.2590(2) 0.2199(2) 0.0159(3)
H19_5 H 0.254151 0.231200 0.032240
C40_5 C 0.2816(2) 0.2003(3) 0.0174(3)
H20_5 H 0.292189 0.198186 0.034783
Cu3_3 Cu 0.48537(2) 0.14978(2) 0.01206(2)
Cu6_3 Cu 0.48024(2) 0.20541(2) 0.01695(2)
O1_5 O 0.02665(11) 0.34328(11) 0.98441(13)
O2_5 O 0.02344(12) 0.29455(11) 0.98362(13)
O7_5 O 0.14880(11) 0.44599(12) 0.98235(13)
O8_5 O 0.19703(13) 0.44146(13) 0.98020(14)
N1_5 N 0.30903(19) 0.15928(19) 0.9967(3)
N2_5 N 0.1582(2) 0.31103(19) 0.9807(3)
C1_5 C 0.3172(2) 0.0396(2) 0.9854(2)
C2_5 C 0.31362(12) 0.07153(9) 0.98790(18)
C3_5 C 0.33770(10) 0.08878(12) 0.99233(17)
H1_5 H 0.356310 0.080301 0.993395
C4_5 C 0.33457(11) 0.11843(11) 0.99520(18)
C5_5 C 0.30735(13) 0.13084(9) 0.99363(19)
C6_5 C 0.28326(10) 0.11359(13) 0.9892(2)
H2_5 H 0.264655 0.122073 0.988135
C7_5 C 0.28639(10) 0.08394(12) 0.9863(2)
H3_5 H 0.269929 0.072152 0.983304
C10_5 C 0.35443(11) 0.14184(10) 0.99987(17)
C14_5 C 0.16932(12) 0.39922(9) 0.98057(17)
C15_5 C 0.14237(10) 0.38613(10) 0.98082(16)
H7_5 H 0.125419 0.397601 0.980962
C16_5 C 0.14024(9) 0.35625(10) 0.98088(17)
C17_5 C 0.16505(12) 0.33946(8) 0.98067(19)
C18_5 C 0.19199(10) 0.35255(11) 0.9804(2)
H8_5 H 0.208947 0.341071 0.980283
C19_5 C 0.19413(9) 0.38243(12) 0.9804(2)
H9_5 H 0.212543 0.391373 0.980194
C20_5 C 0.03696(18) 0.31751(18) 0.98339(19)
C21_5 C 0.06898(9) 0.31435(11) 0.98272(17)
C22_5 C 0.08153(12) 0.28716(9) 0.98218(18)
H10_5 H 0.069724 0.270429 0.982344
C23_5 C 0.11135(12) 0.28444(9) 0.9814(2)
H11_5 H 0.119930 0.265850 0.981048
C24_5 C 0.12862(9) 0.30891(12) 0.98118(19)
C25_5 C 0.11607(11) 0.33611(10) 0.98171(18)
C26_5 C 0.08625(11) 0.33883(9) 0.98248(17)
H12_5 H 0.077672 0.357415 0.982848
C28_5 C 0.17324(18) 0.43095(19) 0.9811(2)
C29_5 C 0.21816(19) 0.24260(18) 0.9840(2)
C32_5 C 0.17784(19) 0.28682(19) 0.9811(3)
C33_5 C 0.1958(2) 0.2814(2) 0.9578(2)
H15_5 H 0.194326 0.292818 0.940854
C34_5 C 0.2160(2) 0.2593(2) 0.9592(2)
H16_5 H 0.228266 0.255596 0.943270
C35_5 C 0.2887(2) 0.1837(3) 0.9935(3)
C36_5 C 0.2731(3) 0.1867(3) 0.9680(3)
H17_5 H 0.277989 0.175420 0.951657
C37_5 C 0.2506(2) 0.2064(3) 0.9665(2)
H18_5 H 0.239950 0.208434 0.949114
C38_5 C 0.2435(2) 0.2229(2) 0.9904(3)
Cu5_5 Cu 0.14978(2) 0.48794(2) 0.98537(2)
Cu8_5 Cu 0.20541(2) 0.48305(2) 0.98024(2)
O13_5 O 0.98814(13) 0.34212(11) 0.02899(11)
O14_5 O 0.98060(14) 0.29365(11) 0.02434(12)
Cu1_3 Cu 0.98537(2) 0.35022(2) 0.98794(2)
Cu2_3 Cu 0.98024(2) 0.29459(2) 0.98305(2)
O9_5 O 0.97634(19) 0.24807(13) 0.9781(2)
O10_5 O 0.99015(16) 0.39619(10) 0.99191(15)
O11_3 O 0.94372(13) 0.34991(12) 0.99031(13)
O12_3 O 0.93933(15) 0.30211(13) 0.98472(15)
O15_5 O 0.98235(13) 0.35120(11) 0.94599(12)
O16_5 O 0.98020(14) 0.30297(13) 0.94146(13)
H21_5 H 0.985569 0.238324 0.994768
H22_5 H 0.955642 0.242696 0.977259
H23_5 H 0.999684 0.403911 0.974375
H24_5 H 0.970864 0.405205 0.9941
O1_6 O 0.52665(11) 0.15672(11) 0.01559(13)
O2_6 O 0.52344(12) 0.20545(11) 0.01638(13)
O7_6 O 0.64880(11) 0.05401(12) 0.01765(13)
O8_6 O 0.69703(13) 0.05854(13) 0.01980(14)
O9_6 O 0.47634(19) 0.25193(13) 0.0219(2)
O10_6 O 0.49015(16) 0.10381(10) 0.00809(15)
N1_6 N 0.80903(19) 0.34072(19) 0.0033(3)
N2_6 N 0.6582(2) 0.18897(19) 0.0193(3)
C1_6 C 0.8172(2) 0.4604(2) 0.0146(2)
C2_6 C 0.81362(12) 0.42847(9) 0.01210(18)
C3_6 C 0.83770(10) 0.41122(12) 0.00767(17)
H1_6 H 0.856310 0.419699 0.006605
C4_6 C 0.83457(11) 0.38157(11) 0.00480(18)
C5_6 C 0.80735(13) 0.36916(9) 0.00637(19)
C6_6 C 0.78326(10) 0.38641(13) 0.0108(2)
H2_6 H 0.764655 0.377927 0.011865
C7_6 C 0.78639(10) 0.41606(12) 0.0137(2)
H3_6 H 0.769929 0.427848 0.016696
C10_6 C 0.85443(11) 0.35816(10) 0.00013(17)
C14_6 C 0.66932(12) 0.10078(9) 0.01943(17)
C15_6 C 0.64237(10) 0.11387(10) 0.01918(16)
H7_6 H 0.625419 0.102399 0.019038
C16_6 C 0.64024(9) 0.14375(10) 0.01912(17)
C17_6 C 0.66505(12) 0.16054(8) 0.01933(19)
C18_6 C 0.69199(10) 0.14745(11) 0.0196(2)
H8_6 H 0.708947 0.158929 0.019717
C19_6 C 0.69413(9) 0.11757(12) 0.0196(2)
H9_6 H 0.712543 0.108627 0.019806
C20_6 C 0.53696(18) 0.18249(18) 0.01661(19)
C21_6 C 0.56898(9) 0.18565(11) 0.01728(17)
C22_6 C 0.58153(12) 0.21284(9) 0.01782(18)
H10_6 H 0.569724 0.229571 0.017656
C23_6 C 0.61135(12) 0.21556(9) 0.0186(2)
H11_6 H 0.619930 0.234150 0.018952
C24_6 C 0.62862(9) 0.19109(12) 0.01882(19)
C25_6 C 0.61607(11) 0.16389(10) 0.01829(18)
C26_6 C 0.58625(11) 0.16117(9) 0.01752(17)
H12_6 H 0.577672 0.142585 0.017152
C28_6 C 0.67324(18) 0.06905(19) 0.0189(2)
C29_6 C 0.71816(19) 0.25740(18) 0.0160(2)
C32_6 C 0.67784(19) 0.21318(19) 0.0189(3)
C33_6 C 0.6958(2) 0.2186(2) 0.0422(2)
H15_6 H 0.694326 0.207182 0.059146
C34_6 C 0.7160(2) 0.2407(2) 0.0408(2)
H16_6 H 0.728266 0.244404 0.056730
C35_6 C 0.7887(2) 0.3163(3) 0.0065(3)
C36_6 C 0.7731(3) 0.3133(3) 0.0320(3)
H17_6 H 0.777989 0.324580 0.048343
C37_6 C 0.7506(2) 0.2936(3) 0.0335(2)
H18_6 H 0.739950 0.291566 0.050886
C38_6 C 0.7435(2) 0.2771(2) 0.0096(3)
Cu5_6 Cu 0.64978(2) 0.01206(2) 0.01463(2)
Cu8_6 Cu 0.70541(2) 0.01695(2) 0.01976(2)
O15_6 O 0.48235(13) 0.14880(11) 0.05401(12)
O16_6 O 0.48020(14) 0.19703(13) 0.05854(13)
H21_6 H 0.485569 0.261676 0.00523165
H22_6 H 0.455642 0.257304 0.022741
H23_6 H 0.499684 0.0960886 0.0256249
H24_6 H 0.470864 0.0947953 0.00590042
C8_6 C 0.89693(9) 0.32945(12) 0.99227(17)
C9_6 C 0.88410(11) 0.35618(10) 0.99658(15)
H4_6 H 0.895626 0.373101 0.997086
C11_6 C 0.83757(9) 0.33341(13) 0.99939(19)
C12_6 C 0.85039(12) 0.30668(11) 0.9951(2)
H5_6 H 0.838866 0.289763 0.994572
C13_6 C 0.88007(12) 0.30470(10) 0.99152(19)
H6_6 H 0.888829 0.286432 0.988582
C27_6 C 0.9291(2) 0.3273(2) 0.9886(2)
C30_6 C 0.7002(2) 0.2520(2) 0.9927(2)
H13_6 H 0.701670 0.263396 0.975724
C31_6 C 0.6800(2) 0.2299(2) 0.9941(2)
H14_6 H 0.667730 0.226173 0.978141
C39_6 C 0.7590(2) 0.2801(2) 0.9841(3)
H19_6 H 0.754151 0.268800 0.967760
C40_6 C 0.7816(2) 0.2997(3) 0.9826(3)
H20_6 H 0.792189 0.301814 0.965217
O13_6 O 0.48814(13) 0.15788(11) 0.97101(11)
O14_6 O 0.48060(14) 0.20635(11) 0.97566(12)
Cu1_4 Cu 0.51463(2) 0.64978(2) 0.48794(2)
Cu2_4 Cu 0.51976(2) 0.70541(2) 0.48305(2)
O1_7 O 0.47335(11) 0.65672(11) 0.48441(13)
O2_7 O 0.47656(12) 0.70545(11) 0.48362(13)
O3_4 O 0.05628(13) 0.84991(12) 0.50969(13)
O4_4 O 0.06067(15) 0.80211(13) 0.51528(15)
O7_7 O 0.35120(11) 0.55401(12) 0.48235(13)
O8_7 O 0.30297(13) 0.55854(13) 0.48020(14)
O9_7 O 0.52366(19) 0.75193(13) 0.4781(2)
O10_7 O 0.50985(16) 0.60381(10) 0.49191(15)
N1_7 N 0.19097(19) 0.84072(19) 0.4967(3)
N2_7 N 0.3418(2) 0.68897(19) 0.4807(3)
C1_7 C 0.1828(2) 0.9604(2) 0.4854(2)
C2_7 C 0.18638(12) 0.92847(9) 0.48790(18)
C3_7 C 0.16230(10) 0.91122(12) 0.49233(17)
H1_7 H 0.143690 0.919699 0.493395
C4_7 C 0.16543(11) 0.88157(11) 0.49520(18)
C5_7 C 0.19265(13) 0.86916(9) 0.49363(19)
C6_7 C 0.21674(10) 0.88641(13) 0.4892(2)
H2_7 H 0.235345 0.877927 0.488135
C7_7 C 0.21361(10) 0.91606(12) 0.4863(2)
H3_7 H 0.230071 0.927848 0.483304
C8_7 C 0.10307(9) 0.82945(12) 0.50773(17)
C9_7 C 0.11590(11) 0.85618(10) 0.50342(15)
H4_7 H 0.104374 0.873101 0.502914
C10_7 C 0.14557(11) 0.85816(10) 0.49987(17)
C11_7 C 0.16243(9) 0.83341(13) 0.50061(19)
C12_7 C 0.14961(12) 0.80668(11) 0.5049(2)
H5_7 H 0.161134 0.789763 0.505428
C13_7 C 0.11993(12) 0.80470(10) 0.50848(19)
H6_7 H 0.111171 0.786432 0.511418
C14_7 C 0.33068(12) 0.60078(9) 0.48057(17)
C15_7 C 0.35763(10) 0.61387(10) 0.48082(16)
H7_7 H 0.374581 0.602399 0.480962
C16_7 C 0.35976(9) 0.64375(10) 0.48088(17)
C17_7 C 0.33495(12) 0.66054(8) 0.48067(19)
C18_7 C 0.30801(10) 0.64745(11) 0.4804(2)
H8_7 H 0.291053 0.658929 0.480283
C19_7 C 0.30587(9) 0.61757(12) 0.4804(2)
H9_7 H 0.287457 0.608627 0.480194
C20_7 C 0.46304(18) 0.68249(18) 0.48339(19)
C21_7 C 0.43102(9) 0.68565(11) 0.48272(17)
C22_7 C 0.41847(12) 0.71284(9) 0.48218(18)
H10_7 H 0.430276 0.729571 0.482344
C23_7 C 0.38865(12) 0.71556(9) 0.4814(2)
H11_7 H 0.380070 0.734150 0.481048
C24_7 C 0.37138(9) 0.69109(12) 0.48118(19)
C25_7 C 0.38393(11) 0.66389(10) 0.48171(18)
C26_7 C 0.41375(11) 0.66117(9) 0.48248(17)
H12_7 H 0.422328 0.642585 0.482848
C27_7 C 0.0709(2) 0.8273(2) 0.5114(2)
C28_7 C 0.32676(18) 0.56905(19) 0.4811(2)
C29_7 C 0.28184(19) 0.75740(18) 0.4840(2)
C30_7 C 0.2998(2) 0.7520(2) 0.5073(2)
H13_7 H 0.298330 0.763396 0.524276
C31_7 C 0.3200(2) 0.7299(2) 0.5059(2)
H14_7 H 0.332270 0.726173 0.521859
C32_7 C 0.32216(19) 0.71318(19) 0.4811(3)
C33_7 C 0.3042(2) 0.7186(2) 0.4578(2)
H15_7 H 0.305674 0.707182 0.440854
C34_7 C 0.2840(2) 0.7407(2) 0.4592(2)
H16_7 H 0.271734 0.744404 0.443270
C35_7 C 0.2113(2) 0.8163(3) 0.4935(3)
C36_7 C 0.2269(3) 0.8133(3) 0.4680(3)
H17_7 H 0.222011 0.824580 0.451657
C37_7 C 0.2494(2) 0.7936(3) 0.4665(2)
H18_7 H 0.260050 0.791566 0.449114
C38_7 C 0.2565(2) 0.7771(2) 0.4904(3)
C39_7 C 0.2410(2) 0.7801(2) 0.5159(3)
H19_7 H 0.245849 0.768800 0.532240
C40_7 C 0.2184(2) 0.7997(3) 0.5174(3)
H20_7 H 0.207811 0.801814 0.534783
Cu3_4 Cu 0.01463(2) 0.85022(2) 0.51206(2)
Cu5_7 Cu 0.35022(2) 0.51206(2) 0.48537(2)
Cu6_4 Cu 0.01976(2) 0.79459(2) 0.51695(2)
Cu8_7 Cu 0.29459(2) 0.51695(2) 0.48024(2)
O11_4 O 0.55628(13) 0.65009(12) 0.49031(13)
O12_4 O 0.56067(15) 0.69789(13) 0.48472(15)
O13_7 O 0.51186(13) 0.65788(11) 0.52899(11)
O14_7 O 0.51940(14) 0.70635(11) 0.52434(12)
O15_7 O 0.51765(13) 0.64880(11) 0.44599(12)
O16_7 O 0.51980(14) 0.69703(13) 0.44146(13)
H21_7 H 0.514431 0.761676 0.494768
H22_7 H 0.544358 0.757304 0.477259
H23_7 H 0.500316 0.596089 0.474375
H24_7 H 0.529136 0.594795 0.4941
O9_8 O 0.02366(19) 0.74807(13) 0.5219(2)
O10_8 O 0.00985(16) 0.89619(10) 0.50809(15)
O13_8 O 0.01186(13) 0.84212(11) 0.47101(11)
O14_8 O 0.01940(14) 0.79365(11) 0.47566(12)
O15_8 O 0.01765(13) 0.85120(11) 0.55401(12)
O16_8 O 0.01980(14) 0.80297(13) 0.55854(13)
H21_8 H 0.0144309 0.738324 0.505232
H22_8 H 0.044358 0.742696 0.522741
H23_8 H 0.000315551 0.903911 0.525625
H24_8 H 0.0291357 0.905205 0.5059
O1_8 O 0.97335(11) 0.84328(11) 0.51559(13)
O2_8 O 0.97656(12) 0.79455(11) 0.51638(13)
O7_8 O 0.85120(11) 0.94599(12) 0.51765(13)
O8_8 O 0.80297(13) 0.94146(13) 0.51980(14)
N1_8 N 0.69097(19) 0.65928(19) 0.5033(3)
N2_8 N 0.8418(2) 0.81103(19) 0.5193(3)
C1_8 C 0.6828(2) 0.5396(2) 0.5146(2)
C2_8 C 0.68638(12) 0.57153(9) 0.51210(18)
C3_8 C 0.66230(10) 0.58878(12) 0.50767(17)
H1_8 H 0.643690 0.580301 0.506605
C4_8 C 0.66543(11) 0.61843(11) 0.50480(18)
C5_8 C 0.69265(13) 0.63084(9) 0.50637(19)
C6_8 C 0.71674(10) 0.61359(13) 0.5108(2)
H2_8 H 0.735345 0.622073 0.511865
C7_8 C 0.71361(10) 0.58394(12) 0.5137(2)
H3_8 H 0.730071 0.572152 0.516696
C8_8 C 0.60307(9) 0.67055(12) 0.49227(17)
C9_8 C 0.61590(11) 0.64382(10) 0.49658(15)
H4_8 H 0.604374 0.626899 0.497086
C10_8 C 0.64557(11) 0.64184(10) 0.50013(17)
C11_8 C 0.66243(9) 0.66659(13) 0.49939(19)
C12_8 C 0.64961(12) 0.69332(11) 0.4951(2)
H5_8 H 0.661134 0.710237 0.494572
C13_8 C 0.61993(12) 0.69530(10) 0.49152(19)
H6_8 H 0.611171 0.713568 0.488582
C14_8 C 0.83068(12) 0.89922(9) 0.51943(17)
C15_8 C 0.85763(10) 0.88613(10) 0.51918(16)
H7_8 H 0.874581 0.897601 0.519038
C16_8 C 0.85976(9) 0.85625(10) 0.51912(17)
C17_8 C 0.83495(12) 0.83946(8) 0.51933(19)
C18_8 C 0.80801(10) 0.85255(11) 0.5196(2)
H8_8 H 0.791053 0.841071 0.519717
C19_8 C 0.80587(9) 0.88243(12) 0.5196(2)
H9_8 H 0.787457 0.891373 0.519806
C20_8 C 0.96304(18) 0.81751(18) 0.51661(19)
C21_8 C 0.93102(9) 0.81435(11) 0.51728(17)
C22_8 C 0.91847(12) 0.78716(9) 0.51782(18)
H10_8 H 0.930276 0.770429 0.517656
C23_8 C 0.88865(12) 0.78444(9) 0.5186(2)
H11_8 H 0.880070 0.765850 0.518952
C24_8 C 0.87138(9) 0.80891(12) 0.51882(19)
C25_8 C 0.88393(11) 0.83611(10) 0.51829(18)
C26_8 C 0.91375(11) 0.83883(9) 0.51752(17)
H12_8 H 0.922328 0.857415 0.517152
C27_8 C 0.5709(2) 0.6727(2) 0.4886(2)
C28_8 C 0.82676(18) 0.93095(19) 0.5189(2)
C29_8 C 0.78184(19) 0.74260(18) 0.5160(2)
C30_8 C 0.7998(2) 0.7480(2) 0.4927(2)
H13_8 H 0.798330 0.736604 0.475724
C31_8 C 0.8200(2) 0.7701(2) 0.4941(2)
H14_8 H 0.832270 0.773827 0.478141
C32_8 C 0.82216(19) 0.78682(19) 0.5189(3)
C33_8 C 0.8042(2) 0.7814(2) 0.5422(2)
H15_8 H 0.805674 0.792818 0.559146
C34_8 C 0.7840(2) 0.7593(2) 0.5408(2)
H16_8 H 0.771734 0.755596 0.556730
C35_8 C 0.7113(2) 0.6837(3) 0.5065(3)
C36_8 C 0.7269(3) 0.6867(3) 0.5320(3)
H17_8 H 0.722011 0.675420 0.548343
C37_8 C 0.7494(2) 0.7064(3) 0.5335(2)
H18_8 H 0.760050 0.708434 0.550886
C38_8 C 0.7565(2) 0.7229(2) 0.5096(3)
C39_8 C 0.7410(2) 0.7199(2) 0.4841(3)
H19_8 H 0.745849 0.731200 0.467760
C40_8 C 0.7184(2) 0.7003(3) 0.4826(3)
H20_8 H 0.707811 0.698186 0.465217
Cu5_8 Cu 0.85022(2) 0.98794(2) 0.51463(2)
Cu8_8 Cu 0.79459(2) 0.98305(2) 0.51976(2)
O3_5 O 0.00969(13) 0.44372(13) 0.15009(12)
O4_5 O 0.01528(15) 0.43933(15) 0.19789(13)
C8_9 C 0.00773(17) 0.39693(9) 0.17055(12)
C9_9 C 0.00342(15) 0.38410(11) 0.14382(10)
H4_9 H 0.002914 0.395626 0.126899
C11_9 C 0.00061(19) 0.33757(9) 0.16659(13)
C12_9 C 0.0049(2) 0.35039(12) 0.19332(11)
H5_9 H 0.005428 0.338866 0.210237
C13_9 C 0.00848(19) 0.38007(12) 0.19530(10)
H6_9 H 0.011418 0.388829 0.213568
C27_9 C 0.0114(2) 0.4291(2) 0.1727(2)
C30_9 C 0.0073(2) 0.2002(2) 0.2480(2)
H13_9 H 0.024276 0.201670 0.236604
C31_9 C 0.0059(2) 0.1800(2) 0.2701(2)
H14_9 H 0.021859 0.167730 0.273827
C39_9 C 0.0159(3) 0.2590(2) 0.2199(2)
H19_9 H 0.032240 0.254151 0.231200
C40_9 C 0.0174(3) 0.2816(2) 0.2003(3)
H20_9 H 0.034783 0.292189 0.198186
O1_9 O 0.98441(13) 0.02665(11) 0.34328(11)
O2_9 O 0.98362(13) 0.02344(12) 0.29455(11)
O7_9 O 0.98235(13) 0.14880(11) 0.44599(12)
O8_9 O 0.98020(14) 0.19703(13) 0.44146(13)
N1_9 N 0.9967(3) 0.30903(19) 0.15928(19)
N2_9 N 0.9807(3) 0.1582(2) 0.31103(19)
C1_9 C 0.9854(2) 0.3172(2) 0.0396(2)
C2_9 C 0.98790(18) 0.31362(12) 0.07153(9)
C3_9 C 0.99233(17) 0.33770(10) 0.08878(12)
H1_9 H 0.993395 0.356310 0.080301
C4_9 C 0.99520(18) 0.33457(11) 0.11843(11)
C5_9 C 0.99363(19) 0.30735(13) 0.13084(9)
C6_9 C 0.9892(2) 0.28326(10) 0.11359(13)
H2_9 H 0.988135 0.264655 0.122073
C7_9 C 0.9863(2) 0.28639(10) 0.08394(12)
H3_9 H 0.983304 0.269929 0.072152
C10_9 C 0.99987(17) 0.35443(11) 0.14184(10)
C14_9 C 0.98057(17) 0.16932(12) 0.39922(9)
C15_9 C 0.98082(16) 0.14237(10) 0.38613(10)
H7_9 H 0.980962 0.125419 0.397601
C16_9 C 0.98088(17) 0.14024(9) 0.35625(10)
C17_9 C 0.98067(19) 0.16505(12) 0.33946(8)
C18_9 C 0.9804(2) 0.19199(10) 0.35255(11)
H8_9 H 0.980283 0.208947 0.341071
C19_9 C 0.9804(2) 0.19413(9) 0.38243(12)
H9_9 H 0.980194 0.212543 0.391373
C20_9 C 0.98339(19) 0.03696(18) 0.31751(18)
C21_9 C 0.98272(17) 0.06898(9) 0.31435(11)
C22_9 C 0.98218(18) 0.08153(12) 0.28716(9)
H10_9 H 0.982344 0.069724 0.270429
C23_9 C 0.9814(2) 0.11135(12) 0.28444(9)
H11_9 H 0.981048 0.119930 0.265850
C24_9 C 0.98118(19) 0.12862(9) 0.30891(12)
C25_9 C 0.98171(18) 0.11607(11) 0.33611(10)
C26_9 C 0.98248(17) 0.08625(11) 0.33883(9)
H12_9 H 0.982848 0.077672 0.357415
C28_9 C 0.9811(2) 0.17324(18) 0.43095(19)
C29_9 C 0.9840(2) 0.21816(19) 0.24260(18)
C32_9 C 0.9811(3) 0.17784(19) 0.28682(19)
C33_9 C 0.9578(2) 0.1958(2) 0.2814(2)
H15_9 H 0.940854 0.194326 0.292818
C34_9 C 0.9592(2) 0.2160(2) 0.2593(2)
H16_9 H 0.943270 0.228266 0.255596
C35_9 C 0.9935(3) 0.2887(2) 0.1837(3)
C36_9 C 0.9680(3) 0.2731(3) 0.1867(3)
H17_9 H 0.951657 0.277989 0.175420
C37_9 C 0.9665(2) 0.2506(2) 0.2064(3)
H18_9 H 0.949114 0.239950 0.208434
C38_9 C 0.9904(3) 0.2435(2) 0.2229(2)
Cu5_9 Cu 0.98537(2) 0.14978(2) 0.48794(2)
Cu8_9 Cu 0.98024(2) 0.20541(2) 0.48305(2)
O9_9 O 0.9781(2) 0.97634(19) 0.24807(13)
O10_9 O 0.99191(15) 0.99015(16) 0.39619(10)
O11_5 O 0.99031(13) 0.94372(13) 0.34991(12)
O12_5 O 0.98472(15) 0.93933(15) 0.30211(13)
O15_9 O 0.94599(12) 0.98235(13) 0.35120(11)
O16_9 O 0.94146(13) 0.98020(14) 0.30297(13)
H21_9 H 0.994768 0.985569 0.238324
H22_9 H 0.977259 0.955642 0.242696
H23_9 H 0.974375 0.999684 0.403911
H24_9 H 0.9941 0.970864 0.405205
O1_10 O 0.01559(13) 0.52665(11) 0.15672(11)
O2_10 O 0.01638(13) 0.52344(12) 0.20545(11)
O7_10 O 0.01765(13) 0.64880(11) 0.05401(12)
O8_10 O 0.01980(14) 0.69703(13) 0.05854(13)
O9_10 O 0.0219(2) 0.47634(19) 0.25193(13)
O10_10 O 0.00809(15) 0.49015(16) 0.10381(10)
N1_10 N 0.0033(3) 0.80903(19) 0.34072(19)
N2_10 N 0.0193(3) 0.6582(2) 0.18897(19)
C1_10 C 0.0146(2) 0.8172(2) 0.4604(2)
C2_10 C 0.01210(18) 0.81362(12) 0.42847(9)
C3_10 C 0.00767(17) 0.83770(10) 0.41122(12)
H1_10 H 0.006605 0.856310 0.419699
C4_10 C 0.00480(18) 0.83457(11) 0.38157(11)
C5_10 C 0.00637(19) 0.80735(13) 0.36916(9)
C6_10 C 0.0108(2) 0.78326(10) 0.38641(13)
H2_10 H 0.011865 0.764655 0.377927
C7_10 C 0.0137(2) 0.78639(10) 0.41606(12)
H3_10 H 0.016696 0.769929 0.427848
C10_10 C 0.00013(17) 0.85443(11) 0.35816(10)
C14_10 C 0.01943(17) 0.66932(12) 0.10078(9)
C15_10 C 0.01918(16) 0.64237(10) 0.11387(10)
H7_10 H 0.019038 0.625419 0.102399
C16_10 C 0.01912(17) 0.64024(9) 0.14375(10)
C17_10 C 0.01933(19) 0.66505(12) 0.16054(8)
C18_10 C 0.0196(2) 0.69199(10) 0.14745(11)
H8_10 H 0.019717 0.708947 0.158929
C19_10 C 0.0196(2) 0.69413(9) 0.11757(12)
H9_10 H 0.019806 0.712543 0.108627
C20_10 C 0.01661(19) 0.53696(18) 0.18249(18)
C21_10 C 0.01728(17) 0.56898(9) 0.18565(11)
C22_10 C 0.01782(18) 0.58153(12) 0.21284(9)
H10_10 H 0.017656 0.569724 0.229571
C23_10 C 0.0186(2) 0.61135(12) 0.21556(9)
H11_10 H 0.018952 0.619930 0.234150
C24_10 C 0.01882(19) 0.62862(9) 0.19109(12)
C25_10 C 0.01829(18) 0.61607(11) 0.16389(10)
C26_10 C 0.01752(17) 0.58625(11) 0.16117(9)
H12_10 H 0.017152 0.577672 0.142585
C28_10 C 0.0189(2) 0.67324(18) 0.06905(19)
C29_10 C 0.0160(2) 0.71816(19) 0.25740(18)
C32_10 C 0.0189(3) 0.67784(19) 0.21318(19)
C33_10 C 0.0422(2) 0.6958(2) 0.2186(2)
H15_10 H 0.059146 0.694326 0.207182
C34_10 C 0.0408(2) 0.7160(2) 0.2407(2)
H16_10 H 0.056730 0.728266 0.244404
C35_10 C 0.0065(3) 0.7887(2) 0.3163(3)
C36_10 C 0.0320(3) 0.7731(3) 0.3133(3)
H17_10 H 0.048343 0.777989 0.324580
C37_10 C 0.0335(2) 0.7506(2) 0.2936(3)
H18_10 H 0.050886 0.739950 0.291566
C38_10 C 0.0096(3) 0.7435(2) 0.2771(2)
Cu5_10 Cu 0.01463(2) 0.64978(2) 0.01206(2)
Cu8_10 Cu 0.01976(2) 0.70541(2) 0.01695(2)
O15_10 O 0.05401(12) 0.48235(13) 0.14880(11)
O16_10 O 0.05854(13) 0.48020(14) 0.19703(13)
H21_10 H 0.00523165 0.485569 0.261676
H22_10 H 0.022741 0.455642 0.257304
H23_10 H 0.0256249 0.499684 0.0960886
H24_10 H 0.00590042 0.470864 0.0947953
C8_10 C 0.99227(17) 0.89693(9) 0.32945(12)
C9_10 C 0.99658(15) 0.88410(11) 0.35618(10)
H4_10 H 0.997086 0.895626 0.373101
C11_10 C 0.99939(19) 0.83757(9) 0.33341(13)
C12_10 C 0.9951(2) 0.85039(12) 0.30668(11)
H5_10 H 0.994572 0.838866 0.289763
C13_10 C 0.99152(19) 0.88007(12) 0.30470(10)
H6_10 H 0.988582 0.888829 0.286432
C27_10 C 0.9886(2) 0.9291(2) 0.3273(2)
C30_10 C 0.9927(2) 0.7002(2) 0.2520(2)
H13_10 H 0.975724 0.701670 0.263396
C31_10 C 0.9941(2) 0.6800(2) 0.2299(2)
H14_10 H 0.978141 0.667730 0.226173
C39_10 C 0.9841(3) 0.7590(2) 0.2801(2)
H19_10 H 0.967760 0.754151 0.268800
C40_10 C 0.9826(3) 0.7816(2) 0.2997(3)
H20_10 H 0.965217 0.792189 0.301814
O1_11 O 0.48441(13) 0.47335(11) 0.65672(11)
O2_11 O 0.48362(13) 0.47656(12) 0.70545(11)
O3_6 O 0.50969(13) 0.05628(13) 0.84991(12)
O4_6 O 0.51528(15) 0.06067(15) 0.80211(13)
O7_11 O 0.48235(13) 0.35120(11) 0.55401(12)
O8_11 O 0.48020(14) 0.30297(13) 0.55854(13)
O9_11 O 0.4781(2) 0.52366(19) 0.75193(13)
O10_11 O 0.49191(15) 0.50985(16) 0.60381(10)
N1_11 N 0.4967(3) 0.19097(19) 0.84072(19)
N2_11 N 0.4807(3) 0.3418(2) 0.68897(19)
C1_11 C 0.4854(2) 0.1828(2) 0.9604(2)
C2_11 C 0.48790(18) 0.18638(12) 0.92847(9)
C3_11 C 0.49233(17) 0.16230(10) 0.91122(12)
H1_11 H 0.493395 0.143690 0.919699
C4_11 C 0.49520(18) 0.16543(11) 0.88157(11)
C5_11 C 0.49363(19) 0.19265(13) 0.86916(9)
C6_11 C 0.4892(2) 0.21674(10) 0.88641(13)
H2_11 H 0.488135 0.235345 0.877927
C7_11 C 0.4863(2) 0.21361(10) 0.91606(12)
H3_11 H 0.483304 0.230071 0.927848
C8_11 C 0.50773(17) 0.10307(9) 0.82945(12)
C9_11 C 0.50342(15) 0.11590(11) 0.85618(10)
H4_11 H 0.502914 0.104374 0.873101
C10_11 C 0.49987(17) 0.14557(11) 0.85816(10)
C11_11 C 0.50061(19) 0.16243(9) 0.83341(13)
C12_11 C 0.5049(2) 0.14961(12) 0.80668(11)
H5_11 H 0.505428 0.161134 0.789763
C13_11 C 0.50848(19) 0.11993(12) 0.80470(10)
H6_11 H 0.511418 0.111171 0.786432
C14_11 C 0.48057(17) 0.33068(12) 0.60078(9)
C15_11 C 0.48082(16) 0.35763(10) 0.61387(10)
H7_11 H 0.480962 0.374581 0.602399
C16_11 C 0.48088(17) 0.35976(9) 0.64375(10)
C17_11 C 0.48067(19) 0.33495(12) 0.66054(8)
C18_11 C 0.4804(2) 0.30801(10) 0.64745(11)
H8_11 H 0.480283 0.291053 0.658929
C19_11 C 0.4804(2) 0.30587(9) 0.61757(12)
H9_11 H 0.480194 0.287457 0.608627
C20_11 C 0.48339(19) 0.46304(18) 0.68249(18)
C21_11 C 0.48272(17) 0.43102(9) 0.68565(11)
C22_11 C 0.48218(18) 0.41847(12) 0.71284(9)
H10_11 H 0.482344 0.430276 0.729571
C23_11 C 0.4814(2) 0.38865(12) 0.71556(9)
H11_11 H 0.481048 0.380070 0.734150
C24_11 C 0.48118(19) 0.37138(9) 0.69109(12)
C25_11 C 0.48171(18) 0.38393(11) 0.66389(10)
C26_11 C 0.48248(17) 0.41375(11) 0.66117(9)
H12_11 H 0.482848 0.422328 0.642585
C27_11 C 0.5114(2) 0.0709(2) 0.8273(2)
C28_11 C 0.4811(2) 0.32676(18) 0.56905(19)
C29_11 C 0.4840(2) 0.28184(19) 0.75740(18)
C30_11 C 0.5073(2) 0.2998(2) 0.7520(2)
H13_11 H 0.524276 0.298330 0.763396
C31_11 C 0.5059(2) 0.3200(2) 0.7299(2)
H14_11 H 0.521859 0.332270 0.726173
C32_11 C 0.4811(3) 0.32216(19) 0.71318(19)
C33_11 C 0.4578(2) 0.3042(2) 0.7186(2)
H15_11 H 0.440854 0.305674 0.707182
C34_11 C 0.4592(2) 0.2840(2) 0.7407(2)
H16_11 H 0.443270 0.271734 0.744404
C35_11 C 0.4935(3) 0.2113(2) 0.8163(3)
C36_11 C 0.4680(3) 0.2269(3) 0.8133(3)
H17_11 H 0.451657 0.222011 0.824580
C37_11 C 0.4665(2) 0.2494(2) 0.7936(3)
H18_11 H 0.449114 0.260050 0.791566
C38_11 C 0.4904(3) 0.2565(2) 0.7771(2)
C39_11 C 0.5159(3) 0.2410(2) 0.7801(2)
H19_11 H 0.532240 0.245849 0.768800
C40_11 C 0.5174(3) 0.2184(2) 0.7997(3)
H20_11 H 0.534783 0.207811 0.801814
Cu5_11 Cu 0.48537(2) 0.35022(2) 0.51206(2)
Cu8_11 Cu 0.48024(2) 0.29459(2) 0.51695(2)
O11_6 O 0.49031(13) 0.55628(13) 0.65009(12)
O12_6 O 0.48472(15) 0.56067(15) 0.69789(13)
O15_11 O 0.44599(12) 0.51765(13) 0.64880(11)
O16_11 O 0.44146(13) 0.51980(14) 0.69703(13)
H21_11 H 0.494768 0.514431 0.761676
H22_11 H 0.477259 0.544358 0.757304
H23_11 H 0.474375 0.500316 0.596089
H24_11 H 0.4941 0.529136 0.594795
O9_12 O 0.5219(2) 0.02366(19) 0.74807(13)
O10_12 O 0.50809(15) 0.00985(16) 0.89619(10)
O15_12 O 0.55401(12) 0.01765(13) 0.85120(11)
O16_12 O 0.55854(13) 0.01980(14) 0.80297(13)
H21_12 H 0.505232 0.0144309 0.738324
H22_12 H 0.522741 0.044358 0.742696
H23_12 H 0.525625 0.000315551 0.903911
H24_12 H 0.5059 0.0291357 0.905205
O1_12 O 0.51559(13) 0.97335(11) 0.84328(11)
O2_12 O 0.51638(13) 0.97656(12) 0.79455(11)
O7_12 O 0.51765(13) 0.85120(11) 0.94599(12)
O8_12 O 0.51980(14) 0.80297(13) 0.94146(13)
N1_12 N 0.5033(3) 0.69097(19) 0.65928(19)
N2_12 N 0.5193(3) 0.8418(2) 0.81103(19)
C1_12 C 0.5146(2) 0.6828(2) 0.5396(2)
C2_12 C 0.51210(18) 0.68638(12) 0.57153(9)
C3_12 C 0.50767(17) 0.66230(10) 0.58878(12)
H1_12 H 0.506605 0.643690 0.580301
C4_12 C 0.50480(18) 0.66543(11) 0.61843(11)
C5_12 C 0.50637(19) 0.69265(13) 0.63084(9)
C6_12 C 0.5108(2) 0.71674(10) 0.61359(13)
H2_12 H 0.511865 0.735345 0.622073
C7_12 C 0.5137(2) 0.71361(10) 0.58394(12)
H3_12 H 0.516696 0.730071 0.572152
C8_12 C 0.49227(17) 0.60307(9) 0.67055(12)
C9_12 C 0.49658(15) 0.61590(11) 0.64382(10)
H4_12 H 0.497086 0.604374 0.626899
C10_12 C 0.50013(17) 0.64557(11) 0.64184(10)
C11_12 C 0.49939(19) 0.66243(9) 0.66659(13)
C12_12 C 0.4951(2) 0.64961(12) 0.69332(11)
H5_12 H 0.494572 0.661134 0.710237
C13_12 C 0.49152(19) 0.61993(12) 0.69530(10)
H6_12 H 0.488582 0.611171 0.713568
C14_12 C 0.51943(17) 0.83068(12) 0.89922(9)
C15_12 C 0.51918(16) 0.85763(10) 0.88613(10)
H7_12 H 0.519038 0.874581 0.897601
C16_12 C 0.51912(17) 0.85976(9) 0.85625(10)
C17_12 C 0.51933(19) 0.83495(12) 0.83946(8)
C18_12 C 0.5196(2) 0.80801(10) 0.85255(11)
H8_12 H 0.519717 0.791053 0.841071
C19_12 C 0.5196(2) 0.80587(9) 0.88243(12)
H9_12 H 0.519806 0.787457 0.891373
C20_12 C 0.51661(19) 0.96304(18) 0.81751(18)
C21_12 C 0.51728(17) 0.93102(9) 0.81435(11)
C22_12 C 0.51782(18) 0.91847(12) 0.78716(9)
H10_12 H 0.517656 0.930276 0.770429
C23_12 C 0.5186(2) 0.88865(12) 0.78444(9)
H11_12 H 0.518952 0.880070 0.765850
C24_12 C 0.51882(19) 0.87138(9) 0.80891(12)
C25_12 C 0.51829(18) 0.88393(11) 0.83611(10)
C26_12 C 0.51752(17) 0.91375(11) 0.83883(9)
H12_12 H 0.517152 0.922328 0.857415
C27_12 C 0.4886(2) 0.5709(2) 0.6727(2)
C28_12 C 0.5189(2) 0.82676(18) 0.93095(19)
C29_12 C 0.5160(2) 0.78184(19) 0.74260(18)
C30_12 C 0.4927(2) 0.7998(2) 0.7480(2)
H13_12 H 0.475724 0.798330 0.736604
C31_12 C 0.4941(2) 0.8200(2) 0.7701(2)
H14_12 H 0.478141 0.832270 0.773827
C32_12 C 0.5189(3) 0.82216(19) 0.78682(19)
C33_12 C 0.5422(2) 0.8042(2) 0.7814(2)
H15_12 H 0.559146 0.805674 0.792818
C34_12 C 0.5408(2) 0.7840(2) 0.7593(2)
H16_12 H 0.556730 0.771734 0.755596
C35_12 C 0.5065(3) 0.7113(2) 0.6837(3)
C36_12 C 0.5320(3) 0.7269(3) 0.6867(3)
H17_12 H 0.548343 0.722011 0.675420
C37_12 C 0.5335(2) 0.7494(2) 0.7064(3)
H18_12 H 0.550886 0.760050 0.708434
C38_12 C 0.5096(3) 0.7565(2) 0.7229(2)
C39_12 C 0.4841(3) 0.7410(2) 0.7199(2)
H19_12 H 0.467760 0.745849 0.731200
C40_12 C 0.4826(3) 0.7184(2) 0.7003(3)
H20_12 H 0.465217 0.707811 0.698186
Cu5_12 Cu 0.51463(2) 0.85022(2) 0.98794(2)
Cu8_12 Cu 0.51976(2) 0.79459(2) 0.98305(2)
O9_13 O 0.75193(13) 0.0219(2) 0.02366(19)
O10_13 O 0.60381(10) 0.00809(15) 0.00985(16)
O11_7 O 0.65009(12) 0.00969(13) 0.05628(13)
O12_7 O 0.69789(13) 0.01528(15) 0.06067(15)
H21_13 H 0.761676 0.00523165 0.0144309
H22_13 H 0.757304 0.022741 0.044358
H23_13 H 0.596089 0.0256249 0.000315551
H24_13 H 0.594795 0.00590042 0.0291357
O1_13 O 0.65672(11) 0.01559(13) 0.97335(11)
O2_13 O 0.70545(11) 0.01638(13) 0.97656(12)
O5_5 O 0.97101(11) 0.01186(13) 0.65788(11)
O6_5 O 0.97566(12) 0.01940(14) 0.70635(11)
N1_13 N 0.84072(19) 0.0033(3) 0.69097(19)
N2_13 N 0.68897(19) 0.0193(3) 0.8418(2)
C1_13 C 0.9604(2) 0.0146(2) 0.6828(2)
C2_13 C 0.92847(9) 0.01210(18) 0.68638(12)
C3_13 C 0.91122(12) 0.00767(17) 0.66230(10)
H1_13 H 0.919699 0.006605 0.643690
C4_13 C 0.88157(11) 0.00480(18) 0.66543(11)
C5_13 C 0.86916(9) 0.00637(19) 0.69265(13)
C6_13 C 0.88641(13) 0.0108(2) 0.71674(10)
H2_13 H 0.877927 0.011865 0.735345
C7_13 C 0.91606(12) 0.0137(2) 0.71361(10)
H3_13 H 0.927848 0.016696 0.730071
C10_13 C 0.85816(10) 0.00013(17) 0.64557(11)
C14_13 C 0.60078(9) 0.01943(17) 0.83068(12)
C15_13 C 0.61387(10) 0.01918(16) 0.85763(10)
H7_13 H 0.602399 0.019038 0.874581
C16_13 C 0.64375(10) 0.01912(17) 0.85976(9)
C17_13 C 0.66054(8) 0.01933(19) 0.83495(12)
C18_13 C 0.64745(11) 0.0196(2) 0.80801(10)
H8_13 H 0.658929 0.019717 0.791053
C19_13 C 0.61757(12) 0.0196(2) 0.80587(9)
H9_13 H 0.608627 0.019806 0.787457
C20_13 C 0.68249(18) 0.01661(19) 0.96304(18)
C21_13 C 0.68565(11) 0.01728(17) 0.93102(9)
C22_13 C 0.71284(9) 0.01782(18) 0.91847(12)
H10_13 H 0.729571 0.017656 0.930276
C23_13 C 0.71556(9) 0.0186(2) 0.88865(12)
H11_13 H 0.734150 0.018952 0.880070
C24_13 C 0.69109(12) 0.01882(19) 0.87138(9)
C25_13 C 0.66389(10) 0.01829(18) 0.88393(11)
C26_13 C 0.66117(9) 0.01752(17) 0.91375(11)
H12_13 H 0.642585 0.017152 0.922328
C28_13 C 0.56905(19) 0.0189(2) 0.82676(18)
C29_13 C 0.75740(18) 0.0160(2) 0.78184(19)
C32_13 C 0.71318(19) 0.0189(3) 0.82216(19)
C33_13 C 0.7186(2) 0.0422(2) 0.8042(2)
H15_13 H 0.707182 0.059146 0.805674
C34_13 C 0.7407(2) 0.0408(2) 0.7840(2)
H16_13 H 0.744404 0.056730 0.771734
C35_13 C 0.8163(3) 0.0065(3) 0.7113(2)
C36_13 C 0.8133(3) 0.0320(3) 0.7269(3)
H17_13 H 0.824580 0.048343 0.722011
C37_13 C 0.7936(3) 0.0335(2) 0.7494(2)
H18_13 H 0.791566 0.050886 0.760050
C38_13 C 0.7771(2) 0.0096(3) 0.7565(2)
O13_9 O 0.65788(11) 0.97101(11) 0.01186(13)
O14_9 O 0.70635(11) 0.97566(12) 0.01940(14)
O3_7 O 0.84991(12) 0.99031(13) 0.55628(13)
O4_7 O 0.80211(13) 0.98472(15) 0.56067(15)
C8_13 C 0.82945(12) 0.99227(17) 0.60307(9)
C9_13 C 0.85618(10) 0.99658(15) 0.61590(11)
H4_13 H 0.873101 0.997086 0.604374
C11_13 C 0.83341(13) 0.99939(19) 0.66243(9)
C12_13 C 0.80668(11) 0.9951(2) 0.64961(12)
H5_13 H 0.789763 0.994572 0.661134
C13_13 C 0.80470(10) 0.99152(19) 0.61993(12)
H6_13 H 0.786432 0.988582 0.611171
C27_13 C 0.8273(2) 0.9886(2) 0.5709(2)
C30_13 C 0.7520(2) 0.9927(2) 0.7998(2)
H13_13 H 0.763396 0.975724 0.798330
C31_13 C 0.7299(2) 0.9941(2) 0.8200(2)
H14_13 H 0.726173 0.978141 0.832270
C39_13 C 0.7801(2) 0.9841(3) 0.7410(2)
H19_13 H 0.768800 0.967760 0.745849
C40_13 C 0.7997(3) 0.9826(3) 0.7184(2)
H20_13 H 0.801814 0.965217 0.707811
C8_14 C 0.67055(12) 0.00773(17) 0.10307(9)
C9_14 C 0.64382(10) 0.00342(15) 0.11590(11)
H4_14 H 0.626899 0.002914 0.104374
C11_14 C 0.66659(13) 0.00061(19) 0.16243(9)
C12_14 C 0.69332(11) 0.0049(2) 0.14961(12)
H5_14 H 0.710237 0.005428 0.161134
C13_14 C 0.69530(10) 0.00848(19) 0.11993(12)
H6_14 H 0.713568 0.011418 0.111171
C27_14 C 0.6727(2) 0.0114(2) 0.0709(2)
C30_14 C 0.7480(2) 0.0073(2) 0.2998(2)
H13_14 H 0.736604 0.024276 0.298330
C31_14 C 0.7701(2) 0.0059(2) 0.3200(2)
H14_14 H 0.773827 0.021859 0.332270
C39_14 C 0.7199(2) 0.0159(3) 0.2410(2)
H19_14 H 0.731200 0.032240 0.245849
C40_14 C 0.7003(3) 0.0174(3) 0.2184(2)
H20_14 H 0.698186 0.034783 0.207811
O13_10 O 0.84212(11) 0.02899(11) 0.51186(13)
O14_10 O 0.79365(11) 0.02434(12) 0.51940(14)
O1_14 O 0.84328(11) 0.98441(13) 0.47335(11)
O2_14 O 0.79455(11) 0.98362(13) 0.47656(12)
O5_6 O 0.52899(11) 0.98814(13) 0.15788(11)
O6_6 O 0.52434(12) 0.98060(14) 0.20635(11)
O9_14 O 0.74807(13) 0.9781(2) 0.52366(19)
O10_14 O 0.89619(10) 0.99191(15) 0.50985(16)
N1_14 N 0.65928(19) 0.9967(3) 0.19097(19)
N2_14 N 0.81103(19) 0.9807(3) 0.3418(2)
C1_14 C 0.5396(2) 0.9854(2) 0.1828(2)
C2_14 C 0.57153(9) 0.98790(18) 0.18638(12)
C3_14 C 0.58878(12) 0.99233(17) 0.16230(10)
H1_14 H 0.580301 0.993395 0.143690
C4_14 C 0.61843(11) 0.99520(18) 0.16543(11)
C5_14 C 0.63084(9) 0.99363(19) 0.19265(13)
C6_14 C 0.61359(13) 0.9892(2) 0.21674(10)
H2_14 H 0.622073 0.988135 0.235345
C7_14 C 0.58394(12) 0.9863(2) 0.21361(10)
H3_14 H 0.572152 0.983304 0.230071
C10_14 C 0.64184(10) 0.99987(17) 0.14557(11)
C14_14 C 0.89922(9) 0.98057(17) 0.33068(12)
C15_14 C 0.88613(10) 0.98082(16) 0.35763(10)
H7_14 H 0.897601 0.980962 0.374581
C16_14 C 0.85625(10) 0.98088(17) 0.35976(9)
C17_14 C 0.83946(8) 0.98067(19) 0.33495(12)
C18_14 C 0.85255(11) 0.9804(2) 0.30801(10)
H8_14 H 0.841071 0.980283 0.291053
C19_14 C 0.88243(12) 0.9804(2) 0.30587(9)
H9_14 H 0.891373 0.980194 0.287457
C20_14 C 0.81751(18) 0.98339(19) 0.46304(18)
C21_14 C 0.81435(11) 0.98272(17) 0.43102(9)
C22_14 C 0.78716(9) 0.98218(18) 0.41847(12)
H10_14 H 0.770429 0.982344 0.430276
C23_14 C 0.78444(9) 0.9814(2) 0.38865(12)
H11_14 H 0.765850 0.981048 0.380070
C24_14 C 0.80891(12) 0.98118(19) 0.37138(9)
C25_14 C 0.83611(10) 0.98171(18) 0.38393(11)
C26_14 C 0.83883(9) 0.98248(17) 0.41375(11)
H12_14 H 0.857415 0.982848 0.422328
C28_14 C 0.93095(19) 0.9811(2) 0.32676(18)
C29_14 C 0.74260(18) 0.9840(2) 0.28184(19)
C32_14 C 0.78682(19) 0.9811(3) 0.32216(19)
C33_14 C 0.7814(2) 0.9578(2) 0.3042(2)
H15_14 H 0.792818 0.940854 0.305674
C34_14 C 0.7593(2) 0.9592(2) 0.2840(2)
H16_14 H 0.755596 0.943270 0.271734
C35_14 C 0.6837(3) 0.9935(3) 0.2113(2)
C36_14 C 0.6867(3) 0.9680(3) 0.2269(3)
H17_14 H 0.675420 0.951657 0.222011
C37_14 C 0.7064(3) 0.9665(2) 0.2494(2)
H18_14 H 0.708434 0.949114 0.260050
C38_14 C 0.7229(2) 0.9904(3) 0.2565(2)
H21_14 H 0.738324 0.994768 0.514431
H22_14 H 0.742696 0.977259 0.544358
H23_14 H 0.903911 0.974375 0.500316
H24_14 H 0.905205 0.9941 0.529136
O1_15 O 0.34328(11) 0.51559(13) 0.52665(11)
O2_15 O 0.29455(11) 0.51638(13) 0.52344(12)
O3_8 O 0.15009(12) 0.49031(13) 0.94372(13)
O4_8 O 0.19789(13) 0.48472(15) 0.93933(15)
O5_7 O 0.02899(11) 0.51186(13) 0.84212(11)
O6_7 O 0.02434(12) 0.51940(14) 0.79365(11)
O9_15 O 0.24807(13) 0.5219(2) 0.47634(19)
O10_15 O 0.39619(10) 0.50809(15) 0.49015(16)
N1_15 N 0.15928(19) 0.5033(3) 0.80903(19)
N2_15 N 0.31103(19) 0.5193(3) 0.6582(2)
C1_15 C 0.0396(2) 0.5146(2) 0.8172(2)
C2_15 C 0.07153(9) 0.51210(18) 0.81362(12)
C3_15 C 0.08878(12) 0.50767(17) 0.83770(10)
H1_15 H 0.080301 0.506605 0.856310
C4_15 C 0.11843(11) 0.50480(18) 0.83457(11)
C5_15 C 0.13084(9) 0.50637(19) 0.80735(13)
C6_15 C 0.11359(13) 0.5108(2) 0.78326(10)
H2_15 H 0.122073 0.511865 0.764655
C7_15 C 0.08394(12) 0.5137(2) 0.78639(10)
H3_15 H 0.072152 0.516696 0.769929
C8_15 C 0.17055(12) 0.49227(17) 0.89693(9)
C9_15 C 0.14382(10) 0.49658(15) 0.88410(11)
H4_15 H 0.126899 0.497086 0.895626
C10_15 C 0.14184(10) 0.50013(17) 0.85443(11)
C11_15 C 0.16659(13) 0.49939(19) 0.83757(9)
C12_15 C 0.19332(11) 0.4951(2) 0.85039(12)
H5_15 H 0.210237 0.494572 0.838866
C13_15 C 0.19530(10) 0.49152(19) 0.88007(12)
H6_15 H 0.213568 0.488582 0.888829
C14_15 C 0.39922(9) 0.51943(17) 0.66932(12)
C15_15 C 0.38613(10) 0.51918(16) 0.64237(10)
H7_15 H 0.397601 0.519038 0.625419
C16_15 C 0.35625(10) 0.51912(17) 0.64024(9)
C17_15 C 0.33946(8) 0.51933(19) 0.66505(12)
C18_15 C 0.35255(11) 0.5196(2) 0.69199(10)
H8_15 H 0.341071 0.519717 0.708947
C19_15 C 0.38243(12) 0.5196(2) 0.69413(9)
H9_15 H 0.391373 0.519806 0.712543
C20_15 C 0.31751(18) 0.51661(19) 0.53696(18)
C21_15 C 0.31435(11) 0.51728(17) 0.56898(9)
C22_15 C 0.28716(9) 0.51782(18) 0.58153(12)
H10_15 H 0.270429 0.517656 0.569724
C23_15 C 0.28444(9) 0.5186(2) 0.61135(12)
H11_15 H 0.265850 0.518952 0.619930
C24_15 C 0.30891(12) 0.51882(19) 0.62862(9)
C25_15 C 0.33611(10) 0.51829(18) 0.61607(11)
C26_15 C 0.33883(9) 0.51752(17) 0.58625(11)
H12_15 H 0.357415 0.517152 0.577672
C27_15 C 0.1727(2) 0.4886(2) 0.9291(2)
C28_15 C 0.43095(19) 0.5189(2) 0.67324(18)
C29_15 C 0.24260(18) 0.5160(2) 0.71816(19)
C30_15 C 0.2480(2) 0.4927(2) 0.7002(2)
H13_15 H 0.236604 0.475724 0.701670
C31_15 C 0.2701(2) 0.4941(2) 0.6800(2)
H14_15 H 0.273827 0.478141 0.667730
C32_15 C 0.28682(19) 0.5189(3) 0.67784(19)
C33_15 C 0.2814(2) 0.5422(2) 0.6958(2)
H15_15 H 0.292818 0.559146 0.694326
C34_15 C 0.2593(2) 0.5408(2) 0.7160(2)
H16_15 H 0.255596 0.556730 0.728266
C35_15 C 0.1837(3) 0.5065(3) 0.7887(2)
C36_15 C 0.1867(3) 0.5320(3) 0.7731(3)
H17_15 H 0.175420 0.548343 0.777989
C37_15 C 0.2064(3) 0.5335(2) 0.7506(2)
H18_15 H 0.208434 0.550886 0.739950
C38_15 C 0.2229(2) 0.5096(3) 0.7435(2)
C39_15 C 0.2199(2) 0.4841(3) 0.7590(2)
H19_15 H 0.231200 0.467760 0.754151
C40_15 C 0.2003(3) 0.4826(3) 0.7816(2)
H20_15 H 0.198186 0.465217 0.792189
O11_8 O 0.34991(12) 0.50969(13) 0.44372(13)
O12_8 O 0.30211(13) 0.51528(15) 0.43933(15)
O13_11 O 0.34212(11) 0.47101(11) 0.48814(13)
O14_11 O 0.29365(11) 0.47566(12) 0.48060(14)
H21_15 H 0.238324 0.505232 0.485569
H22_15 H 0.242696 0.522741 0.455642
H23_15 H 0.403911 0.525625 0.499684
H24_15 H 0.405205 0.5059 0.470864
O1_16 O 0.15672(11) 0.48441(13) 0.02665(11)
O2_16 O 0.20545(11) 0.48362(13) 0.02344(12)
O5_8 O 0.47101(11) 0.48814(13) 0.34212(11)
O6_8 O 0.47566(12) 0.48060(14) 0.29365(11)
N1_16 N 0.34072(19) 0.4967(3) 0.30903(19)
N2_16 N 0.18897(19) 0.4807(3) 0.1582(2)
C1_16 C 0.4604(2) 0.4854(2) 0.3172(2)
C2_16 C 0.42847(9) 0.48790(18) 0.31362(12)
C3_16 C 0.41122(12) 0.49233(17) 0.33770(10)
H1_16 H 0.419699 0.493395 0.356310
C4_16 C 0.38157(11) 0.49520(18) 0.33457(11)
C5_16 C 0.36916(9) 0.49363(19) 0.30735(13)
C6_16 C 0.38641(13) 0.4892(2) 0.28326(10)
H2_16 H 0.377927 0.488135 0.264655
C7_16 C 0.41606(12) 0.4863(2) 0.28639(10)
H3_16 H 0.427848 0.483304 0.269929
C8_16 C 0.32945(12) 0.50773(17) 0.39693(9)
C9_16 C 0.35618(10) 0.50342(15) 0.38410(11)
H4_16 H 0.373101 0.502914 0.395626
C10_16 C 0.35816(10) 0.49987(17) 0.35443(11)
C11_16 C 0.33341(13) 0.50061(19) 0.33757(9)
C12_16 C 0.30668(11) 0.5049(2) 0.35039(12)
H5_16 H 0.289763 0.505428 0.338866
C13_16 C 0.30470(10) 0.50848(19) 0.38007(12)
H6_16 H 0.286432 0.511418 0.388829
C14_16 C 0.10078(9) 0.48057(17) 0.16932(12)
C15_16 C 0.11387(10) 0.48082(16) 0.14237(10)
H7_16 H 0.102399 0.480962 0.125419
C16_16 C 0.14375(10) 0.48088(17) 0.14024(9)
C17_16 C 0.16054(8) 0.48067(19) 0.16505(12)
C18_16 C 0.14745(11) 0.4804(2) 0.19199(10)
H8_16 H 0.158929 0.480283 0.208947
C19_16 C 0.11757(12) 0.4804(2) 0.19413(9)
H9_16 H 0.108627 0.480194 0.212543
C20_16 C 0.18249(18) 0.48339(19) 0.03696(18)
C21_16 C 0.18565(11) 0.48272(17) 0.06898(9)
C22_16 C 0.21284(9) 0.48218(18) 0.08153(12)
H10_16 H 0.229571 0.482344 0.069724
C23_16 C 0.21556(9) 0.4814(2) 0.11135(12)
H11_16 H 0.234150 0.481048 0.119930
C24_16 C 0.19109(12) 0.48118(19) 0.12862(9)
C25_16 C 0.16389(10) 0.48171(18) 0.11607(11)
C26_16 C 0.16117(9) 0.48248(17) 0.08625(11)
H12_16 H 0.142585 0.482848 0.077672
C27_16 C 0.3273(2) 0.5114(2) 0.4291(2)
C28_16 C 0.06905(19) 0.4811(2) 0.17324(18)
C29_16 C 0.25740(18) 0.4840(2) 0.21816(19)
C30_16 C 0.2520(2) 0.5073(2) 0.2002(2)
H13_16 H 0.263396 0.524276 0.201670
C31_16 C 0.2299(2) 0.5059(2) 0.1800(2)
H14_16 H 0.226173 0.521859 0.167730
C32_16 C 0.21318(19) 0.4811(3) 0.17784(19)
C33_16 C 0.2186(2) 0.4578(2) 0.1958(2)
H15_16 H 0.207182 0.440854 0.194326
C34_16 C 0.2407(2) 0.4592(2) 0.2160(2)
H16_16 H 0.244404 0.443270 0.228266
C35_16 C 0.3163(3) 0.4935(3) 0.2887(2)
C36_16 C 0.3133(3) 0.4680(3) 0.2731(3)
H17_16 H 0.324580 0.451657 0.277989
C37_16 C 0.2936(3) 0.4665(2) 0.2506(2)
H18_16 H 0.291566 0.449114 0.239950
C38_16 C 0.2771(2) 0.4904(3) 0.2435(2)
C39_16 C 0.2801(2) 0.5159(3) 0.2590(2)
H19_16 H 0.268800 0.532240 0.254151
C40_16 C 0.2997(3) 0.5174(3) 0.2816(2)
H20_16 H 0.301814 0.534783 0.292189
O9_16 O 0.25193(13) 0.4781(2) 0.97634(19)
O10_16 O 0.10381(10) 0.49191(15) 0.99015(16)
O13_12 O 0.15788(11) 0.52899(11) 0.98814(13)
O14_12 O 0.20635(11) 0.52434(12) 0.98060(14)
H21_16 H 0.261676 0.494768 0.985569
H22_16 H 0.257304 0.477259 0.955642
H23_16 H 0.0960886 0.474375 0.999684
H24_16 H 0.0947953 0.4941 0.970864
O9_17 O 0.02366(19) 0.75193(13) 0.0219(2)
O10_17 O 0.00985(16) 0.60381(10) 0.00809(15)
O11_9 O 0.05628(13) 0.65009(12) 0.00969(13)
O12_9 O 0.06067(15) 0.69789(13) 0.01528(15)
H21_17 H 0.0144309 0.761676 0.00523165
H22_17 H 0.044358 0.757304 0.022741
H23_17 H 0.000315551 0.596089 0.0256249
H24_17 H 0.0291357 0.594795 0.00590042
O13_13 O 0.01186(13) 0.65788(11) 0.97101(11)
O14_13 O 0.01940(14) 0.70635(11) 0.97566(12)
O1_17 O 0.97335(11) 0.65672(11) 0.01559(13)
O2_17 O 0.97656(12) 0.70545(11) 0.01638(13)
N1_17 N 0.69097(19) 0.84072(19) 0.0033(3)
N2_17 N 0.8418(2) 0.68897(19) 0.0193(3)
C1_17 C 0.6828(2) 0.9604(2) 0.0146(2)
C2_17 C 0.68638(12) 0.92847(9) 0.01210(18)
C3_17 C 0.66230(10) 0.91122(12) 0.00767(17)
H1_17 H 0.643690 0.919699 0.006605
C4_17 C 0.66543(11) 0.88157(11) 0.00480(18)
C5_17 C 0.69265(13) 0.86916(9) 0.00637(19)
C6_17 C 0.71674(10) 0.88641(13) 0.0108(2)
H2_17 H 0.735345 0.877927 0.011865
C7_17 C 0.71361(10) 0.91606(12) 0.0137(2)
H3_17 H 0.730071 0.927848 0.016696
C10_17 C 0.64557(11) 0.85816(10) 0.00013(17)
C14_17 C 0.83068(12) 0.60078(9) 0.01943(17)
C15_17 C 0.85763(10) 0.61387(10) 0.01918(16)
H7_17 H 0.874581 0.602399 0.019038
C16_17 C 0.85976(9) 0.64375(10) 0.01912(17)
C17_17 C 0.83495(12) 0.66054(8) 0.01933(19)
C18_17 C 0.80801(10) 0.64745(11) 0.0196(2)
H8_17 H 0.791053 0.658929 0.019717
C19_17 C 0.80587(9) 0.61757(12) 0.0196(2)
H9_17 H 0.787457 0.608627 0.019806
C20_17 C 0.96304(18) 0.68249(18) 0.01661(19)
C21_17 C 0.93102(9) 0.68565(11) 0.01728(17)
C22_17 C 0.91847(12) 0.71284(9) 0.01782(18)
H10_17 H 0.930276 0.729571 0.017656
C23_17 C 0.88865(12) 0.71556(9) 0.0186(2)
H11_17 H 0.880070 0.734150 0.018952
C24_17 C 0.87138(9) 0.69109(12) 0.01882(19)
C25_17 C 0.88393(11) 0.66389(10) 0.01829(18)
C26_17 C 0.91375(11) 0.66117(9) 0.01752(17)
H12_17 H 0.922328 0.642585 0.017152
C28_17 C 0.82676(18) 0.56905(19) 0.0189(2)
C29_17 C 0.78184(19) 0.75740(18) 0.0160(2)
C32_17 C 0.82216(19) 0.71318(19) 0.0189(3)
C33_17 C 0.8042(2) 0.7186(2) 0.0422(2)
H15_17 H 0.805674 0.707182 0.059146
C34_17 C 0.7840(2) 0.7407(2) 0.0408(2)
H16_17 H 0.771734 0.744404 0.056730
C35_17 C 0.7113(2) 0.8163(3) 0.0065(3)
C36_17 C 0.7269(3) 0.8133(3) 0.0320(3)
H17_17 H 0.722011 0.824580 0.048343
C37_17 C 0.7494(2) 0.7936(3) 0.0335(2)
H18_17 H 0.760050 0.791566 0.050886
C38_17 C 0.7565(2) 0.7771(2) 0.0096(3)
O3_9 O 0.55628(13) 0.84991(12) 0.99031(13)
O4_9 O 0.56067(15) 0.80211(13) 0.98472(15)
C8_17 C 0.60307(9) 0.82945(12) 0.99227(17)
C9_17 C 0.61590(11) 0.85618(10) 0.99658(15)
H4_17 H 0.604374 0.873101 0.997086
C11_17 C 0.66243(9) 0.83341(13) 0.99939(19)
C12_17 C 0.64961(12) 0.80668(11) 0.9951(2)
H5_17 H 0.661134 0.789763 0.994572
C13_17 C 0.61993(12) 0.80470(10) 0.99152(19)
H6_17 H 0.611171 0.786432 0.988582
C27_17 C 0.5709(2) 0.8273(2) 0.9886(2)
C30_17 C 0.7998(2) 0.7520(2) 0.9927(2)
H13_17 H 0.798330 0.763396 0.975724
C31_17 C 0.8200(2) 0.7299(2) 0.9941(2)
H14_17 H 0.832270 0.726173 0.978141
C39_17 C 0.7410(2) 0.7801(2) 0.9841(3)
H19_17 H 0.745849 0.768800 0.967760
C40_17 C 0.7184(2) 0.7997(3) 0.9826(3)
H20_17 H 0.707811 0.801814 0.965217
C8_18 C 0.10307(9) 0.67055(12) 0.00773(17)
C9_18 C 0.11590(11) 0.64382(10) 0.00342(15)
H4_18 H 0.104374 0.626899 0.002914
C11_18 C 0.16243(9) 0.66659(13) 0.00061(19)
C12_18 C 0.14961(12) 0.69332(11) 0.0049(2)
H5_18 H 0.161134 0.710237 0.005428
C13_18 C 0.11993(12) 0.69530(10) 0.00848(19)
H6_18 H 0.111171 0.713568 0.011418
C27_18 C 0.0709(2) 0.6727(2) 0.0114(2)
C30_18 C 0.2998(2) 0.7480(2) 0.0073(2)
H13_18 H 0.298330 0.736604 0.024276
C31_18 C 0.3200(2) 0.7701(2) 0.0059(2)
H14_18 H 0.332270 0.773827 0.021859
C39_18 C 0.2410(2) 0.7199(2) 0.0159(3)
H19_18 H 0.245849 0.731200 0.032240
C40_18 C 0.2184(2) 0.7003(3) 0.0174(3)
H20_18 H 0.207811 0.698186 0.034783
O13_14 O 0.51186(13) 0.84212(11) 0.02899(11)
O14_14 O 0.51940(14) 0.79365(11) 0.02434(12)
O1_18 O 0.47335(11) 0.84328(11) 0.98441(13)
O2_18 O 0.47656(12) 0.79455(11) 0.98362(13)
O9_18 O 0.52366(19) 0.74807(13) 0.9781(2)
O10_18 O 0.50985(16) 0.89619(10) 0.99191(15)
N1_18 N 0.19097(19) 0.65928(19) 0.9967(3)
N2_18 N 0.3418(2) 0.81103(19) 0.9807(3)
C1_18 C 0.1828(2) 0.5396(2) 0.9854(2)
C2_18 C 0.18638(12) 0.57153(9) 0.98790(18)
C3_18 C 0.16230(10) 0.58878(12) 0.99233(17)
H1_18 H 0.143690 0.580301 0.993395
C4_18 C 0.16543(11) 0.61843(11) 0.99520(18)
C5_18 C 0.19265(13) 0.63084(9) 0.99363(19)
C6_18 C 0.21674(10) 0.61359(13) 0.9892(2)
H2_18 H 0.235345 0.622073 0.988135
C7_18 C 0.21361(10) 0.58394(12) 0.9863(2)
H3_18 H 0.230071 0.572152 0.983304
C10_18 C 0.14557(11) 0.64184(10) 0.99987(17)
C14_18 C 0.33068(12) 0.89922(9) 0.98057(17)
C15_18 C 0.35763(10) 0.88613(10) 0.98082(16)
H7_18 H 0.374581 0.897601 0.980962
C16_18 C 0.35976(9) 0.85625(10) 0.98088(17)
C17_18 C 0.33495(12) 0.83946(8) 0.98067(19)
C18_18 C 0.30801(10) 0.85255(11) 0.9804(2)
H8_18 H 0.291053 0.841071 0.980283
C19_18 C 0.30587(9) 0.88243(12) 0.9804(2)
H9_18 H 0.287457 0.891373 0.980194
C20_18 C 0.46304(18) 0.81751(18) 0.98339(19)
C21_18 C 0.43102(9) 0.81435(11) 0.98272(17)
C22_18 C 0.41847(12) 0.78716(9) 0.98218(18)
H10_18 H 0.430276 0.770429 0.982344
C23_18 C 0.38865(12) 0.78444(9) 0.9814(2)
H11_18 H 0.380070 0.765850 0.981048
C24_18 C 0.37138(9) 0.80891(12) 0.98118(19)
C25_18 C 0.38393(11) 0.83611(10) 0.98171(18)
C26_18 C 0.41375(11) 0.83883(9) 0.98248(17)
H12_18 H 0.422328 0.857415 0.982848
C28_18 C 0.32676(18) 0.93095(19) 0.9811(2)
C29_18 C 0.28184(19) 0.74260(18) 0.9840(2)
C32_18 C 0.32216(19) 0.78682(19) 0.9811(3)
C33_18 C 0.3042(2) 0.7814(2) 0.9578(2)
H15_18 H 0.305674 0.792818 0.940854
C34_18 C 0.2840(2) 0.7593(2) 0.9592(2)
H16_18 H 0.271734 0.755596 0.943270
C35_18 C 0.2113(2) 0.6837(3) 0.9935(3)
C36_18 C 0.2269(3) 0.6867(3) 0.9680(3)
H17_18 H 0.222011 0.675420 0.951657
C37_18 C 0.2494(2) 0.7064(3) 0.9665(2)
H18_18 H 0.260050 0.708434 0.949114
C38_18 C 0.2565(2) 0.7229(2) 0.9904(3)
H21_18 H 0.514431 0.738324 0.994768
H22_18 H 0.544358 0.742696 0.977259
H23_18 H 0.500316 0.903911 0.974375
H24_18 H 0.529136 0.905205 0.9941
O1_19 O 0.52665(11) 0.34328(11) 0.51559(13)
O2_19 O 0.52344(12) 0.29455(11) 0.51638(13)
O3_10 O 0.94372(13) 0.15009(12) 0.49031(13)
O4_10 O 0.93933(15) 0.19789(13) 0.48472(15)
O9_19 O 0.47634(19) 0.24807(13) 0.5219(2)
O10_19 O 0.49015(16) 0.39619(10) 0.50809(15)
N1_19 N 0.80903(19) 0.15928(19) 0.5033(3)
N2_19 N 0.6582(2) 0.31103(19) 0.5193(3)
C1_19 C 0.8172(2) 0.0396(2) 0.5146(2)
C2_19 C 0.81362(12) 0.07153(9) 0.51210(18)
C3_19 C 0.83770(10) 0.08878(12) 0.50767(17)
H1_19 H 0.856310 0.080301 0.506605
C4_19 C 0.83457(11) 0.11843(11) 0.50480(18)
C5_19 C 0.80735(13) 0.13084(9) 0.50637(19)
C6_19 C 0.78326(10) 0.11359(13) 0.5108(2)
H2_19 H 0.764655 0.122073 0.511865
C7_19 C 0.78639(10) 0.08394(12) 0.5137(2)
H3_19 H 0.769929 0.072152 0.516696
C8_19 C 0.89693(9) 0.17055(12) 0.49227(17)
C9_19 C 0.88410(11) 0.14382(10) 0.49658(15)
H4_19 H 0.895626 0.126899 0.497086
C10_19 C 0.85443(11) 0.14184(10) 0.50013(17)
C11_19 C 0.83757(9) 0.16659(13) 0.49939(19)
C12_19 C 0.85039(12) 0.19332(11) 0.4951(2)
H5_19 H 0.838866 0.210237 0.494572
C13_19 C 0.88007(12) 0.19530(10) 0.49152(19)
H6_19 H 0.888829 0.213568 0.488582
C14_19 C 0.66932(12) 0.39922(9) 0.51943(17)
C15_19 C 0.64237(10) 0.38613(10) 0.51918(16)
H7_19 H 0.625419 0.397601 0.519038
C16_19 C 0.64024(9) 0.35625(10) 0.51912(17)
C17_19 C 0.66505(12) 0.33946(8) 0.51933(19)
C18_19 C 0.69199(10) 0.35255(11) 0.5196(2)
H8_19 H 0.708947 0.341071 0.519717
C19_19 C 0.69413(9) 0.38243(12) 0.5196(2)
H9_19 H 0.712543 0.391373 0.519806
C20_19 C 0.53696(18) 0.31751(18) 0.51661(19)
C21_19 C 0.56898(9) 0.31435(11) 0.51728(17)
C22_19 C 0.58153(12) 0.28716(9) 0.51782(18)
H10_19 H 0.569724 0.270429 0.517656
C23_19 C 0.61135(12) 0.28444(9) 0.5186(2)
H11_19 H 0.619930 0.265850 0.518952
C24_19 C 0.62862(9) 0.30891(12) 0.51882(19)
C25_19 C 0.61607(11) 0.33611(10) 0.51829(18)
C26_19 C 0.58625(11) 0.33883(9) 0.51752(17)
H12_19 H 0.577672 0.357415 0.517152
C27_19 C 0.9291(2) 0.1727(2) 0.4886(2)
C28_19 C 0.67324(18) 0.43095(19) 0.5189(2)
C29_19 C 0.71816(19) 0.24260(18) 0.5160(2)
C30_19 C 0.7002(2) 0.2480(2) 0.4927(2)
H13_19 H 0.701670 0.236604 0.475724
C31_19 C 0.6800(2) 0.2701(2) 0.4941(2)
H14_19 H 0.667730 0.273827 0.478141
C32_19 C 0.67784(19) 0.28682(19) 0.5189(3)
C33_19 C 0.6958(2) 0.2814(2) 0.5422(2)
H15_19 H 0.694326 0.292818 0.559146
C34_19 C 0.7160(2) 0.2593(2) 0.5408(2)
H16_19 H 0.728266 0.255596 0.556730
C35_19 C 0.7887(2) 0.1837(3) 0.5065(3)
C36_19 C 0.7731(3) 0.1867(3) 0.5320(3)
H17_19 H 0.777989 0.175420 0.548343
C37_19 C 0.7506(2) 0.2064(3) 0.5335(2)
H18_19 H 0.739950 0.208434 0.550886
C38_19 C 0.7435(2) 0.2229(2) 0.5096(3)
C39_19 C 0.7590(2) 0.2199(2) 0.4841(3)
H19_19 H 0.754151 0.231200 0.467760
C40_19 C 0.7816(2) 0.2003(3) 0.4826(3)
H20_19 H 0.792189 0.198186 0.465217
O11_10 O 0.44372(13) 0.34991(12) 0.50969(13)
O12_10 O 0.43933(15) 0.30211(13) 0.51528(15)
O13_15 O 0.48814(13) 0.34212(11) 0.47101(11)
O14_15 O 0.48060(14) 0.29365(11) 0.47566(12)
H21_19 H 0.485569 0.238324 0.505232
H22_19 H 0.455642 0.242696 0.522741
H23_19 H 0.499684 0.403911 0.525625
H24_19 H 0.470864 0.405205 0.5059
O1_20 O 0.02665(11) 0.15672(11) 0.48441(13)
O2_20 O 0.02344(12) 0.20545(11) 0.48362(13)
N1_20 N 0.30903(19) 0.34072(19) 0.4967(3)
N2_20 N 0.1582(2) 0.18897(19) 0.4807(3)
C1_20 C 0.3172(2) 0.4604(2) 0.4854(2)
C2_20 C 0.31362(12) 0.42847(9) 0.48790(18)
C3_20 C 0.33770(10) 0.41122(12) 0.49233(17)
H1_20 H 0.356310 0.419699 0.493395
C4_20 C 0.33457(11) 0.38157(11) 0.49520(18)
C5_20 C 0.30735(13) 0.36916(9) 0.49363(19)
C6_20 C 0.28326(10) 0.38641(13) 0.4892(2)
H2_20 H 0.264655 0.377927 0.488135
C7_20 C 0.28639(10) 0.41606(12) 0.4863(2)
H3_20 H 0.269929 0.427848 0.483304
C8_20 C 0.39693(9) 0.32945(12) 0.50773(17)
C9_20 C 0.38410(11) 0.35618(10) 0.50342(15)
H4_20 H 0.395626 0.373101 0.502914
C10_20 C 0.35443(11) 0.35816(10) 0.49987(17)
C11_20 C 0.33757(9) 0.33341(13) 0.50061(19)
C12_20 C 0.35039(12) 0.30668(11) 0.5049(2)
H5_20 H 0.338866 0.289763 0.505428
C13_20 C 0.38007(12) 0.30470(10) 0.50848(19)
H6_20 H 0.388829 0.286432 0.511418
C14_20 C 0.16932(12) 0.10078(9) 0.48057(17)
C15_20 C 0.14237(10) 0.11387(10) 0.48082(16)
H7_20 H 0.125419 0.102399 0.480962
C16_20 C 0.14024(9) 0.14375(10) 0.48088(17)
C17_20 C 0.16505(12) 0.16054(8) 0.48067(19)
C18_20 C 0.19199(10) 0.14745(11) 0.4804(2)
H8_20 H 0.208947 0.158929 0.480283
C19_20 C 0.19413(9) 0.11757(12) 0.4804(2)
H9_20 H 0.212543 0.108627 0.480194
C20_20 C 0.03696(18) 0.18249(18) 0.48339(19)
C21_20 C 0.06898(9) 0.18565(11) 0.48272(17)
C22_20 C 0.08153(12) 0.21284(9) 0.48218(18)
H10_20 H 0.069724 0.229571 0.482344
C23_20 C 0.11135(12) 0.21556(9) 0.4814(2)
H11_20 H 0.119930 0.234150 0.481048
C24_20 C 0.12862(9) 0.19109(12) 0.48118(19)
C25_20 C 0.11607(11) 0.16389(10) 0.48171(18)
C26_20 C 0.08625(11) 0.16117(9) 0.48248(17)
H12_20 H 0.077672 0.142585 0.482848
C27_20 C 0.4291(2) 0.3273(2) 0.5114(2)
C28_20 C 0.17324(18) 0.06905(19) 0.4811(2)
C29_20 C 0.21816(19) 0.25740(18) 0.4840(2)
C30_20 C 0.2002(2) 0.2520(2) 0.5073(2)
H13_20 H 0.201670 0.263396 0.524276
C31_20 C 0.1800(2) 0.2299(2) 0.5059(2)
H14_20 H 0.167730 0.226173 0.521859
C32_20 C 0.17784(19) 0.21318(19) 0.4811(3)
C33_20 C 0.1958(2) 0.2186(2) 0.4578(2)
H15_20 H 0.194326 0.207182 0.440854
C34_20 C 0.2160(2) 0.2407(2) 0.4592(2)
H16_20 H 0.228266 0.244404 0.443270
C35_20 C 0.2887(2) 0.3163(3) 0.4935(3)
C36_20 C 0.2731(3) 0.3133(3) 0.4680(3)
H17_20 H 0.277989 0.324580 0.451657
C37_20 C 0.2506(2) 0.2936(3) 0.4665(2)
H18_20 H 0.239950 0.291566 0.449114
C38_20 C 0.2435(2) 0.2771(2) 0.4904(3)
C39_20 C 0.2590(2) 0.2801(2) 0.5159(3)
H19_20 H 0.254151 0.268800 0.532240
C40_20 C 0.2816(2) 0.2997(3) 0.5174(3)
H20_20 H 0.292189 0.301814 0.534783
O9_20 O 0.97634(19) 0.25193(13) 0.4781(2)
O10_20 O 0.99015(16) 0.10381(10) 0.49191(15)
O13_16 O 0.98814(13) 0.15788(11) 0.52899(11)
O14_16 O 0.98060(14) 0.20635(11) 0.52434(12)
H21_20 H 0.985569 0.261676 0.494768
H22_20 H 0.955642 0.257304 0.477259
H23_20 H 0.999684 0.0960886 0.474375
H24_20 H 0.970864 0.0947953 0.4941
O9_21 O 0.0219(2) 0.02366(19) 0.75193(13)
O10_21 O 0.00809(15) 0.00985(16) 0.60381(10)
O11_11 O 0.00969(13) 0.05628(13) 0.65009(12)
O12_11 O 0.01528(15) 0.06067(15) 0.69789(13)
H21_21 H 0.00523165 0.0144309 0.761676
H22_21 H 0.022741 0.044358 0.757304
H23_21 H 0.0256249 0.000315551 0.596089
H24_21 H 0.00590042 0.0291357 0.594795
O1_21 O 0.01559(13) 0.97335(11) 0.65672(11)
O2_21 O 0.01638(13) 0.97656(12) 0.70545(11)
N1_21 N 0.0033(3) 0.69097(19) 0.84072(19)
N2_21 N 0.0193(3) 0.8418(2) 0.68897(19)
C1_21 C 0.0146(2) 0.6828(2) 0.9604(2)
C2_21 C 0.01210(18) 0.68638(12) 0.92847(9)
C3_21 C 0.00767(17) 0.66230(10) 0.91122(12)
H1_21 H 0.006605 0.643690 0.919699
C4_21 C 0.00480(18) 0.66543(11) 0.88157(11)
C5_21 C 0.00637(19) 0.69265(13) 0.86916(9)
C6_21 C 0.0108(2) 0.71674(10) 0.88641(13)
H2_21 H 0.011865 0.735345 0.877927
C7_21 C 0.0137(2) 0.71361(10) 0.91606(12)
H3_21 H 0.016696 0.730071 0.927848
C10_21 C 0.00013(17) 0.64557(11) 0.85816(10)
C14_21 C 0.01943(17) 0.83068(12) 0.60078(9)
C15_21 C 0.01918(16) 0.85763(10) 0.61387(10)
H7_21 H 0.019038 0.874581 0.602399
C16_21 C 0.01912(17) 0.85976(9) 0.64375(10)
C17_21 C 0.01933(19) 0.83495(12) 0.66054(8)
C18_21 C 0.0196(2) 0.80801(10) 0.64745(11)
H8_21 H 0.019717 0.791053 0.658929
C19_21 C 0.0196(2) 0.80587(9) 0.61757(12)
H9_21 H 0.019806 0.787457 0.608627
C20_21 C 0.01661(19) 0.96304(18) 0.68249(18)
C21_21 C 0.01728(17) 0.93102(9) 0.68565(11)
C22_21 C 0.01782(18) 0.91847(12) 0.71284(9)
H10_21 H 0.017656 0.930276 0.729571
C23_21 C 0.0186(2) 0.88865(12) 0.71556(9)
H11_21 H 0.018952 0.880070 0.734150
C24_21 C 0.01882(19) 0.87138(9) 0.69109(12)
C25_21 C 0.01829(18) 0.88393(11) 0.66389(10)
C26_21 C 0.01752(17) 0.91375(11) 0.66117(9)
H12_21 H 0.017152 0.922328 0.642585
C28_21 C 0.0189(2) 0.82676(18) 0.56905(19)
C29_21 C 0.0160(2) 0.78184(19) 0.75740(18)
C32_21 C 0.0189(3) 0.82216(19) 0.71318(19)
C33_21 C 0.0422(2) 0.8042(2) 0.7186(2)
H15_21 H 0.059146 0.805674 0.707182
C34_21 C 0.0408(2) 0.7840(2) 0.7407(2)
H16_21 H 0.056730 0.771734 0.744404
C35_21 C 0.0065(3) 0.7113(2) 0.8163(3)
C36_21 C 0.0320(3) 0.7269(3) 0.8133(3)
H17_21 H 0.048343 0.722011 0.824580
C37_21 C 0.0335(2) 0.7494(2) 0.7936(3)
H18_21 H 0.050886 0.760050 0.791566
C38_21 C 0.0096(3) 0.7565(2) 0.7771(2)
O3_11 O 0.99031(13) 0.55628(13) 0.84991(12)
O4_11 O 0.98472(15) 0.56067(15) 0.80211(13)
C8_21 C 0.99227(17) 0.60307(9) 0.82945(12)
C9_21 C 0.99658(15) 0.61590(11) 0.85618(10)
H4_21 H 0.997086 0.604374 0.873101
C11_21 C 0.99939(19) 0.66243(9) 0.83341(13)
C12_21 C 0.9951(2) 0.64961(12) 0.80668(11)
H5_21 H 0.994572 0.661134 0.789763
C13_21 C 0.99152(19) 0.61993(12) 0.80470(10)
H6_21 H 0.988582 0.611171 0.786432
C27_21 C 0.9886(2) 0.5709(2) 0.8273(2)
C30_21 C 0.9927(2) 0.7998(2) 0.7520(2)
H13_21 H 0.975724 0.798330 0.763396
C31_21 C 0.9941(2) 0.8200(2) 0.7299(2)
H14_21 H 0.978141 0.832270 0.726173
C39_21 C 0.9841(3) 0.7410(2) 0.7801(2)
H19_21 H 0.967760 0.745849 0.768800
C40_21 C 0.9826(3) 0.7184(2) 0.7997(3)
H20_21 H 0.965217 0.707811 0.801814
C8_22 C 0.00773(17) 0.10307(9) 0.67055(12)
C9_22 C 0.00342(15) 0.11590(11) 0.64382(10)
H4_22 H 0.002914 0.104374 0.626899
C11_22 C 0.00061(19) 0.16243(9) 0.66659(13)
C12_22 C 0.0049(2) 0.14961(12) 0.69332(11)
H5_22 H 0.005428 0.161134 0.710237
C13_22 C 0.00848(19) 0.11993(12) 0.69530(10)
H6_22 H 0.011418 0.111171 0.713568
C27_22 C 0.0114(2) 0.0709(2) 0.6727(2)
C30_22 C 0.0073(2) 0.2998(2) 0.7480(2)
H13_22 H 0.024276 0.298330 0.736604
C31_22 C 0.0059(2) 0.3200(2) 0.7701(2)
H14_22 H 0.021859 0.332270 0.773827
C39_22 C 0.0159(3) 0.2410(2) 0.7199(2)
H19_22 H 0.032240 0.245849 0.731200
C40_22 C 0.0174(3) 0.2184(2) 0.7003(3)
H20_22 H 0.034783 0.207811 0.698186
O1_22 O 0.98441(13) 0.47335(11) 0.84328(11)
O2_22 O 0.98362(13) 0.47656(12) 0.79455(11)
O9_22 O 0.9781(2) 0.52366(19) 0.74807(13)
O10_22 O 0.99191(15) 0.50985(16) 0.89619(10)
N1_22 N 0.9967(3) 0.19097(19) 0.65928(19)
N2_22 N 0.9807(3) 0.3418(2) 0.81103(19)
C1_22 C 0.9854(2) 0.1828(2) 0.5396(2)
C2_22 C 0.98790(18) 0.18638(12) 0.57153(9)
C3_22 C 0.99233(17) 0.16230(10) 0.58878(12)
H1_22 H 0.993395 0.143690 0.580301
C4_22 C 0.99520(18) 0.16543(11) 0.61843(11)
C5_22 C 0.99363(19) 0.19265(13) 0.63084(9)
C6_22 C 0.9892(2) 0.21674(10) 0.61359(13)
H2_22 H 0.988135 0.235345 0.622073
C7_22 C 0.9863(2) 0.21361(10) 0.58394(12)
H3_22 H 0.983304 0.230071 0.572152
C10_22 C 0.99987(17) 0.14557(11) 0.64184(10)
C14_22 C 0.98057(17) 0.33068(12) 0.89922(9)
C15_22 C 0.98082(16) 0.35763(10) 0.88613(10)
H7_22 H 0.980962 0.374581 0.897601
C16_22 C 0.98088(17) 0.35976(9) 0.85625(10)
C17_22 C 0.98067(19) 0.33495(12) 0.83946(8)
C18_22 C 0.9804(2) 0.30801(10) 0.85255(11)
H8_22 H 0.980283 0.291053 0.841071
C19_22 C 0.9804(2) 0.30587(9) 0.88243(12)
H9_22 H 0.980194 0.287457 0.891373
C20_22 C 0.98339(19) 0.46304(18) 0.81751(18)
C21_22 C 0.98272(17) 0.43102(9) 0.81435(11)
C22_22 C 0.98218(18) 0.41847(12) 0.78716(9)
H10_22 H 0.982344 0.430276 0.770429
C23_22 C 0.9814(2) 0.38865(12) 0.78444(9)
H11_22 H 0.981048 0.380070 0.765850
C24_22 C 0.98118(19) 0.37138(9) 0.80891(12)
C25_22 C 0.98171(18) 0.38393(11) 0.83611(10)
C26_22 C 0.98248(17) 0.41375(11) 0.83883(9)
H12_22 H 0.982848 0.422328 0.857415
C28_22 C 0.9811(2) 0.32676(18) 0.93095(19)
C29_22 C 0.9840(2) 0.28184(19) 0.74260(18)
C32_22 C 0.9811(3) 0.32216(19) 0.78682(19)
C33_22 C 0.9578(2) 0.3042(2) 0.7814(2)
H15_22 H 0.940854 0.305674 0.792818
C34_22 C 0.9592(2) 0.2840(2) 0.7593(2)
H16_22 H 0.943270 0.271734 0.755596
C35_22 C 0.9935(3) 0.2113(2) 0.6837(3)
C36_22 C 0.9680(3) 0.2269(3) 0.6867(3)
H17_22 H 0.951657 0.222011 0.675420
C37_22 C 0.9665(2) 0.2494(2) 0.7064(3)
H18_22 H 0.949114 0.260050 0.708434
C38_22 C 0.9904(3) 0.2565(2) 0.7229(2)
H21_22 H 0.994768 0.514431 0.738324
H22_22 H 0.977259 0.544358 0.742696
H23_22 H 0.974375 0.500316 0.903911
H24_22 H 0.9941 0.529136 0.905205
O1_23 O 0.51559(13) 0.52665(11) 0.34328(11)
O2_23 O 0.51638(13) 0.52344(12) 0.29455(11)
O3_12 O 0.49031(13) 0.94372(13) 0.15009(12)
O4_12 O 0.48472(15) 0.93933(15) 0.19789(13)
O9_23 O 0.5219(2) 0.47634(19) 0.24807(13)
O10_23 O 0.50809(15) 0.49015(16) 0.39619(10)
N1_23 N 0.5033(3) 0.80903(19) 0.15928(19)
N2_23 N 0.5193(3) 0.6582(2) 0.31103(19)
C1_23 C 0.5146(2) 0.8172(2) 0.0396(2)
C2_23 C 0.51210(18) 0.81362(12) 0.07153(9)
C3_23 C 0.50767(17) 0.83770(10) 0.08878(12)
H1_23 H 0.506605 0.856310 0.080301
C4_23 C 0.50480(18) 0.83457(11) 0.11843(11)
C5_23 C 0.50637(19) 0.80735(13) 0.13084(9)
C6_23 C 0.5108(2) 0.78326(10) 0.11359(13)
H2_23 H 0.511865 0.764655 0.122073
C7_23 C 0.5137(2) 0.78639(10) 0.08394(12)
H3_23 H 0.516696 0.769929 0.072152
C8_23 C 0.49227(17) 0.89693(9) 0.17055(12)
C9_23 C 0.49658(15) 0.88410(11) 0.14382(10)
H4_23 H 0.497086 0.895626 0.126899
C10_23 C 0.50013(17) 0.85443(11) 0.14184(10)
C11_23 C 0.49939(19) 0.83757(9) 0.16659(13)
C12_23 C 0.4951(2) 0.85039(12) 0.19332(11)
H5_23 H 0.494572 0.838866 0.210237
C13_23 C 0.49152(19) 0.88007(12) 0.19530(10)
H6_23 H 0.488582 0.888829 0.213568
C14_23 C 0.51943(17) 0.66932(12) 0.39922(9)
C15_23 C 0.51918(16) 0.64237(10) 0.38613(10)
H7_23 H 0.519038 0.625419 0.397601
C16_23 C 0.51912(17) 0.64024(9) 0.35625(10)
C17_23 C 0.51933(19) 0.66505(12) 0.33946(8)
C18_23 C 0.5196(2) 0.69199(10) 0.35255(11)
H8_23 H 0.519717 0.708947 0.341071
C19_23 C 0.5196(2) 0.69413(9) 0.38243(12)
H9_23 H 0.519806 0.712543 0.391373
C20_23 C 0.51661(19) 0.53696(18) 0.31751(18)
C21_23 C 0.51728(17) 0.56898(9) 0.31435(11)
C22_23 C 0.51782(18) 0.58153(12) 0.28716(9)
H10_23 H 0.517656 0.569724 0.270429
C23_23 C 0.5186(2) 0.61135(12) 0.28444(9)
H11_23 H 0.518952 0.619930 0.265850
C24_23 C 0.51882(19) 0.62862(9) 0.30891(12)
C25_23 C 0.51829(18) 0.61607(11) 0.33611(10)
C26_23 C 0.51752(17) 0.58625(11) 0.33883(9)
H12_23 H 0.517152 0.577672 0.357415
C27_23 C 0.4886(2) 0.9291(2) 0.1727(2)
C28_23 C 0.5189(2) 0.67324(18) 0.43095(19)
C29_23 C 0.5160(2) 0.71816(19) 0.24260(18)
C30_23 C 0.4927(2) 0.7002(2) 0.2480(2)
H13_23 H 0.475724 0.701670 0.236604
C31_23 C 0.4941(2) 0.6800(2) 0.2701(2)
H14_23 H 0.478141 0.667730 0.273827
C32_23 C 0.5189(3) 0.67784(19) 0.28682(19)
C33_23 C 0.5422(2) 0.6958(2) 0.2814(2)
H15_23 H 0.559146 0.694326 0.292818
C34_23 C 0.5408(2) 0.7160(2) 0.2593(2)
H16_23 H 0.556730 0.728266 0.255596
C35_23 C 0.5065(3) 0.7887(2) 0.1837(3)
C36_23 C 0.5320(3) 0.7731(3) 0.1867(3)
H17_23 H 0.548343 0.777989 0.175420
C37_23 C 0.5335(2) 0.7506(2) 0.2064(3)
H18_23 H 0.550886 0.739950 0.208434
C38_23 C 0.5096(3) 0.7435(2) 0.2229(2)
C39_23 C 0.4841(3) 0.7590(2) 0.2199(2)
H19_23 H 0.467760 0.754151 0.231200
C40_23 C 0.4826(3) 0.7816(2) 0.2003(3)
H20_23 H 0.465217 0.792189 0.198186
O11_12 O 0.50969(13) 0.44372(13) 0.34991(12)
O12_12 O 0.51528(15) 0.43933(15) 0.30211(13)
H21_23 H 0.505232 0.485569 0.238324
H22_23 H 0.522741 0.455642 0.242696
H23_23 H 0.525625 0.499684 0.403911
H24_23 H 0.5059 0.470864 0.405205
O1_24 O 0.48441(13) 0.02665(11) 0.15672(11)
O2_24 O 0.48362(13) 0.02344(12) 0.20545(11)
N1_24 N 0.4967(3) 0.30903(19) 0.34072(19)
N2_24 N 0.4807(3) 0.1582(2) 0.18897(19)
C1_24 C 0.4854(2) 0.3172(2) 0.4604(2)
C2_24 C 0.48790(18) 0.31362(12) 0.42847(9)
C3_24 C 0.49233(17) 0.33770(10) 0.41122(12)
H1_24 H 0.493395 0.356310 0.419699
C4_24 C 0.49520(18) 0.33457(11) 0.38157(11)
C5_24 C 0.49363(19) 0.30735(13) 0.36916(9)
C6_24 C 0.4892(2) 0.28326(10) 0.38641(13)
H2_24 H 0.488135 0.264655 0.377927
C7_24 C 0.4863(2) 0.28639(10) 0.41606(12)
H3_24 H 0.483304 0.269929 0.427848
C8_24 C 0.50773(17) 0.39693(9) 0.32945(12)
C9_24 C 0.50342(15) 0.38410(11) 0.35618(10)
H4_24 H 0.502914 0.395626 0.373101
C10_24 C 0.49987(17) 0.35443(11) 0.35816(10)
C11_24 C 0.50061(19) 0.33757(9) 0.33341(13)
C12_24 C 0.5049(2) 0.35039(12) 0.30668(11)
H5_24 H 0.505428 0.338866 0.289763
C13_24 C 0.50848(19) 0.38007(12) 0.30470(10)
H6_24 H 0.511418 0.388829 0.286432
C14_24 C 0.48057(17) 0.16932(12) 0.10078(9)
C15_24 C 0.48082(16) 0.14237(10) 0.11387(10)
H7_24 H 0.480962 0.125419 0.102399
C16_24 C 0.48088(17) 0.14024(9) 0.14375(10)
C17_24 C 0.48067(19) 0.16505(12) 0.16054(8)
C18_24 C 0.4804(2) 0.19199(10) 0.14745(11)
H8_24 H 0.480283 0.208947 0.158929
C19_24 C 0.4804(2) 0.19413(9) 0.11757(12)
H9_24 H 0.480194 0.212543 0.108627
C20_24 C 0.48339(19) 0.03696(18) 0.18249(18)
C21_24 C 0.48272(17) 0.06898(9) 0.18565(11)
C22_24 C 0.48218(18) 0.08153(12) 0.21284(9)
H10_24 H 0.482344 0.069724 0.229571
C23_24 C 0.4814(2) 0.11135(12) 0.21556(9)
H11_24 H 0.481048 0.119930 0.234150
C24_24 C 0.48118(19) 0.12862(9) 0.19109(12)
C25_24 C 0.48171(18) 0.11607(11) 0.16389(10)
C26_24 C 0.48248(17) 0.08625(11) 0.16117(9)
H12_24 H 0.482848 0.077672 0.142585
C27_24 C 0.5114(2) 0.4291(2) 0.3273(2)
C28_24 C 0.4811(2) 0.17324(18) 0.06905(19)
C29_24 C 0.4840(2) 0.21816(19) 0.25740(18)
C30_24 C 0.5073(2) 0.2002(2) 0.2520(2)
H13_24 H 0.524276 0.201670 0.263396
C31_24 C 0.5059(2) 0.1800(2) 0.2299(2)
H14_24 H 0.521859 0.167730 0.226173
C32_24 C 0.4811(3) 0.17784(19) 0.21318(19)
C33_24 C 0.4578(2) 0.1958(2) 0.2186(2)
H15_24 H 0.440854 0.194326 0.207182
C34_24 C 0.4592(2) 0.2160(2) 0.2407(2)
H16_24 H 0.443270 0.228266 0.244404
C35_24 C 0.4935(3) 0.2887(2) 0.3163(3)
C36_24 C 0.4680(3) 0.2731(3) 0.3133(3)
H17_24 H 0.451657 0.277989 0.324580
C37_24 C 0.4665(2) 0.2506(2) 0.2936(3)
H18_24 H 0.449114 0.239950 0.291566
C38_24 C 0.4904(3) 0.2435(2) 0.2771(2)
C39_24 C 0.5159(3) 0.2590(2) 0.2801(2)
H19_24 H 0.532240 0.254151 0.268800
C40_24 C 0.5174(3) 0.2816(2) 0.2997(3)
H20_24 H 0.534783 0.292189 0.301814
O9_24 O 0.4781(2) 0.97634(19) 0.25193(13)
O10_24 O 0.49191(15) 0.99015(16) 0.10381(10)
H21_24 H 0.494768 0.985569 0.261676
H22_24 H 0.477259 0.955642 0.257304
H23_24 H 0.474375 0.999684 0.0960886
H24_24 H 0.4941 0.970864 0.0947953
loop_
_geom_bond_atom_site_label_1
_geom_bond_atom_site_label_2
_geom_bond_site_symmetry_1
_geom_bond_site_symmetry_2
O3 C27 1_555 1_555
O4 C27 1_555 1_555
C8 C9 1_555 1_555
C9 H4 1_555 1_555
C12 C11 1_555 1_555
H5 C12 1_555 1_555
C13 C8 1_555 1_555
H6 C13 1_555 1_555
C27 C8 1_555 1_555
C30 H13 1_555 1_555
C31 C30 1_555 1_555
H14 C31 1_555 1_555
H19 C39 1_555 1_555
H20 C40 1_555 1_555
Cu3 O3 1_555 1_555
Cu6 O4 1_555 1_555
C12 C13 1_555 1_555
C39 C40 1_555 1_555
O1 C20 1_555 1_555
O2 C20 1_555 1_555
O5 C1 1_555 1_555
O6 C1 1_555 1_555
O7 C28 1_555 1_555
O8 C28 1_555 1_555
N1 C5 1_555 1_555
N2 C17 1_555 1_555
C1 C2 1_555 1_555
C2 C3 1_555 1_555
C3 H1 1_555 1_555
C4 C3 1_555 1_555
C5 C4 1_555 1_555
C6 C5 1_555 1_555
H2 C6 1_555 1_555
C7 C2 1_555 1_555
H3 C7 1_555 1_555
C10 C4 1_555 1_555
C14 C15 1_555 1_555
C15 H7 1_555 1_555
C16 C15 1_555 1_555
C17 C16 1_555 1_555
C18 C17 1_555 1_555
H8 C18 1_555 1_555
C19 C14 1_555 1_555
H9 C19 1_555 1_555
C20 C21 1_555 1_555
C21 C22 1_555 1_555
C22 H10 1_555 1_555
C23 C22 1_555 1_555
H11 C23 1_555 1_555
C24 N2 1_555 1_555
C25 C16 1_555 1_555
C26 C21 1_555 1_555
H12 C26 1_555 1_555
C28 C14 1_555 1_555
C32 N2 1_555 1_555
C33 C32 1_555 1_555
H15 C33 1_555 1_555
C34 C29 1_555 1_555
H16 C34 1_555 1_555
C35 N1 1_555 1_555
C36 C35 1_555 1_555
H17 C36 1_555 1_555
C37 C36 1_555 1_555
H18 C37 1_555 1_555
C38 C29 1_555 1_555
Cu5 O7 1_555 1_555
Cu8 O8 1_555 1_555
C6 C7 1_555 1_555
C18 C19 1_555 1_555
C23 C24 1_555 1_555
C24 C25 1_555 1_555
C25 C26 1_555 1_555
C33 C34 1_555 1_555
C37 C38 1_555 1_555
O9 Cu2 1_555 1_555
O10 Cu1 1_555 1_555
O11 Cu1 1_555 1_555
O12 Cu2 1_555 1_555
O15 Cu1 1_555 1_555
O16 Cu2 1_555 1_555
O9 H21 1_555 1_555
O9 H22 1_555 1_555
O10 H23 1_555 1_555
O10 H24 1_555 1_555
Cu3 O1_2 1_555 1_555
Cu6 O2_2 1_555 1_555
O1_2 C20_2 1_555 1_555
O2_2 C20_2 1_555 1_555
O5_2 C1_2 1_555 1_555
O6_2 C1_2 1_555 1_555
O7_2 C28_2 1_555 1_555
O8_2 C28_2 1_555 1_555
O9_2 Cu6 1_555 1_555
O10_2 Cu3 1_555 1_555
N1_2 C5_2 1_555 1_555
N2_2 C17_2 1_555 1_555
C1_2 C2_2 1_555 1_555
C2_2 C3_2 1_555 1_555
C3_2 H1_2 1_555 1_555
C4_2 C3_2 1_555 1_555
C5_2 C4_2 1_555 1_555
C6_2 C5_2 1_555 1_555
H2_2 C6_2 1_555 1_555
C7_2 C2_2 1_555 1_555
H3_2 C7_2 1_555 1_555
C10_2 C4_2 1_555 1_555
C14_2 C15_2 1_555 1_555
C15_2 H7_2 1_555 1_555
C16_2 C15_2 1_555 1_555
C17_2 C16_2 1_555 1_555
C18_2 C17_2 1_555 1_555
H8_2 C18_2 1_555 1_555
C19_2 C14_2 1_555 1_555
H9_2 C19_2 1_555 1_555
C20_2 C21_2 1_555 1_555
C21_2 C22_2 1_555 1_555
C22_2 H10_2 1_555 1_555
C23_2 C22_2 1_555 1_555
H11_2 C23_2 1_555 1_555
C24_2 N2_2 1_555 1_555
C25_2 C16_2 1_555 1_555
C26_2 C21_2 1_555 1_555
H12_2 C26_2 1_555 1_555
C28_2 C14_2 1_555 1_555
C32_2 N2_2 1_555 1_555
C33_2 C32_2 1_555 1_555
H15_2 C33_2 1_555 1_555
C34_2 C29_2 1_555 1_555
H16_2 C34_2 1_555 1_555
C35_2 N1_2 1_555 1_555
C36_2 C35_2 1_555 1_555
H17_2 C36_2 1_555 1_555
C37_2 C36_2 1_555 1_555
H18_2 C37_2 1_555 1_555
C38_2 C29_2 1_555 1_555
Cu4_2 O5_2 1_555 1_555
Cu5_2 O7_2 1_555 1_555
Cu7_2 O6_2 1_555 1_555
Cu8_2 O8_2 1_555 1_555
O15_2 Cu3 1_555 1_555
O16_2 Cu6 1_555 1_555
C6_2 C7_2 1_555 1_555
C18_2 C19_2 1_555 1_555
C23_2 C24_2 1_555 1_555
C24_2 C25_2 1_555 1_555
C25_2 C26_2 1_555 1_555
C33_2 C34_2 1_555 1_555
C37_2 C38_2 1_555 1_555
O9_2 H21_2 1_555 1_555
O9_2 H22_2 1_555 1_555
O10_2 H23_2 1_555 1_555
O10_2 H24_2 1_555 1_555
O11 C27_2 1_555 1_555
O12 C27_2 1_555 1_555
C8_2 C9_2 1_555 1_555
C9_2 H4_2 1_555 1_555
C12_2 C11_2 1_555 1_555
H5_2 C12_2 1_555 1_555
C13_2 C8_2 1_555 1_555
H6_2 C13_2 1_555 1_555
C27_2 C8_2 1_555 1_555
C30_2 H13_2 1_555 1_555
C31_2 C30_2 1_555 1_555
H14_2 C31_2 1_555 1_555
H19_2 C39_2 1_555 1_555
H20_2 C40_2 1_555 1_555
C12_2 C13_2 1_555 1_555
C39_2 C40_2 1_555 1_555
Cu1_2 O1_3 1_555 1_555
Cu2_2 O2_3 1_555 1_555
O1_3 C20_3 1_555 1_555
O2_3 C20_3 1_555 1_555
O3_2 C27_3 1_555 1_555
O4_2 C27_3 1_555 1_555
O5_3 C1_3 1_555 1_555
O6_3 C1_3 1_555 1_555
O7_3 C28_3 1_555 1_555
O8_3 C28_3 1_555 1_555
O9_3 Cu2_2 1_555 1_555
O10_3 Cu1_2 1_555 1_555
N1_3 C5_3 1_555 1_555
N2_3 C17_3 1_555 1_555
C1_3 C2_3 1_555 1_555
C2_3 C3_3 1_555 1_555
C3_3 H1_3 1_555 1_555
C4_3 C3_3 1_555 1_555
C5_3 C4_3 1_555 1_555
C6_3 C5_3 1_555 1_555
H2_3 C6_3 1_555 1_555
C7_3 C2_3 1_555 1_555
H3_3 C7_3 1_555 1_555
C8_3 C9_3 1_555 1_555
C9_3 H4_3 1_555 1_555
C10_3 C4_3 1_555 1_555
C11_3 N1_3 1_555 1_555
C12_3 C11_3 1_555 1_555
H5_3 C12_3 1_555 1_555
C13_3 C8_3 1_555 1_555
H6_3 C13_3 1_555 1_555
C14_3 C15_3 1_555 1_555
C15_3 H7_3 1_555 1_555
C16_3 C15_3 1_555 1_555
C17_3 C16_3 1_555 1_555
C18_3 C17_3 1_555 1_555
H8_3 C18_3 1_555 1_555
C19_3 C14_3 1_555 1_555
H9_3 C19_3 1_555 1_555
C20_3 C21_3 1_555 1_555
C21_3 C22_3 1_555 1_555
C22_3 H10_3 1_555 1_555
C23_3 C22_3 1_555 1_555
H11_3 C23_3 1_555 1_555
C24_3 N2_3 1_555 1_555
C25_3 C16_3 1_555 1_555
C26_3 C21_3 1_555 1_555
H12_3 C26_3 1_555 1_555
C27_3 C8_3 1_555 1_555
C28_3 C14_3 1_555 1_555
C29_3 C30_3 1_555 1_555
C30_3 H13_3 1_555 1_555
C31_3 C30_3 1_555 1_555
H14_3 C31_3 1_555 1_555
C32_3 N2_3 1_555 1_555
C33_3 C32_3 1_555 1_555
H15_3 C33_3 1_555 1_555
C34_3 C29_3 1_555 1_555
H16_3 C34_3 1_555 1_555
C35_3 N1_3 1_555 1_555
C36_3 C35_3 1_555 1_555
H17_3 C36_3 1_555 1_555
C37_3 C36_3 1_555 1_555
H18_3 C37_3 1_555 1_555
C38_3 C29_3 1_555 1_555
C39_3 C38_3 1_555 1_555
H19_3 C39_3 1_555 1_555
C40_3 C35_3 1_555 1_555
H20_3 C40_3 1_555 1_555
Cu3_2 O3_2 1_555 1_555
Cu5_3 O7_3 1_555 1_555
Cu6_2 O4_2 1_555 1_555
Cu8_3 O8_3 1_555 1_555
O11_2 Cu1_2 1_555 1_555
O12_2 Cu2_2 1_555 1_555
O13_3 Cu1_2 1_555 1_555
O14_3 Cu2_2 1_555 1_555
O15_3 Cu1_2 1_555 1_555
O16_3 Cu2_2 1_555 1_555
C6_3 C7_3 1_555 1_555
C9_3 C10_3 1_555 1_555
C10_3 C11_3 1_555 1_555
C12_3 C13_3 1_555 1_555
C18_3 C19_3 1_555 1_555
C23_3 C24_3 1_555 1_555
C24_3 C25_3 1_555 1_555
C25_3 C26_3 1_555 1_555
C31_3 C32_3 1_555 1_555
C33_3 C34_3 1_555 1_555
C37_3 C38_3 1_555 1_555
C39_3 C40_3 1_555 1_555
O9_3 H21_3 1_555 1_555
O9_3 H22_3 1_555 1_555
O10_3 H23_3 1_555 1_555
O10_3 H24_3 1_555 1_555
O9_4 Cu6_2 1_555 1_555
O10_4 Cu3_2 1_555 1_555
O13_4 Cu3_2 1_555 1_555
O14_4 Cu6_2 1_555 1_555
O15_4 Cu3_2 1_555 1_555
O16_4 Cu6_2 1_555 1_555
O9_4 H21_4 1_555 1_555
O9_4 H22_4 1_555 1_555
O10_4 H23_4 1_555 1_555
O10_4 H24_4 1_555 1_555
O1_4 C20_4 1_555 1_555
O2_4 C20_4 1_555 1_555
O11_2 C27_4 1_555 1_555
O12_2 C27_4 1_555 1_555
O5_4 C1_4 1_555 1_555
O6_4 C1_4 1_555 1_555
O7_4 C28_4 1_555 1_555
O8_4 C28_4 1_555 1_555
N1_4 C5_4 1_555 1_555
N2_4 C17_4 1_555 1_555
C1_4 C2_4 1_555 1_555
C2_4 C3_4 1_555 1_555
C3_4 H1_4 1_555 1_555
C4_4 C3_4 1_555 1_555
C5_4 C4_4 1_555 1_555
C6_4 C5_4 1_555 1_555
H2_4 C6_4 1_555 1_555
C7_4 C2_4 1_555 1_555
H3_4 C7_4 1_555 1_555
C8_4 C9_4 1_555 1_555
C9_4 H4_4 1_555 1_555
C10_4 C4_4 1_555 1_555
C11_4 N1_4 1_555 1_555
C12_4 C11_4 1_555 1_555
H5_4 C12_4 1_555 1_555
C13_4 C8_4 1_555 1_555
H6_4 C13_4 1_555 1_555
C14_4 C15_4 1_555 1_555
C15_4 H7_4 1_555 1_555
C16_4 C15_4 1_555 1_555
C17_4 C16_4 1_555 1_555
C18_4 C17_4 1_555 1_555
H8_4 C18_4 1_555 1_555
C19_4 C14_4 1_555 1_555
H9_4 C19_4 1_555 1_555
C20_4 C21_4 1_555 1_555
C21_4 C22_4 1_555 1_555
C22_4 H10_4 1_555 1_555
C23_4 C22_4 1_555 1_555
H11_4 C23_4 1_555 1_555
C24_4 N2_4 1_555 1_555
C25_4 C16_4 1_555 1_555
C26_4 C21_4 1_555 1_555
H12_4 C26_4 1_555 1_555
C27_4 C8_4 1_555 1_555
C28_4 C14_4 1_555 1_555
C29_4 C30_4 1_555 1_555
C30_4 H13_4 1_555 1_555
C31_4 C30_4 1_555 1_555
H14_4 C31_4 1_555 1_555
C32_4 N2_4 1_555 1_555
C33_4 C32_4 1_555 1_555
H15_4 C33_4 1_555 1_555
C34_4 C29_4 1_555 1_555
H16_4 C34_4 1_555 1_555
C35_4 N1_4 1_555 1_555
C36_4 C35_4 1_555 1_555
H17_4 C36_4 1_555 1_555
C37_4 C36_4 1_555 1_555
H18_4 C37_4 1_555 1_555
C38_4 C29_4 1_555 1_555
C39_4 C38_4 1_555 1_555
H19_4 C39_4 1_555 1_555
C40_4 C35_4 1_555 1_555
H20_4 C40_4 1_555 1_555
Cu4_4 O5_4 1_555 1_555
Cu5_4 O7_4 1_555 1_555
Cu7_4 O6_4 1_555 1_555
Cu8_4 O8_4 1_555 1_555
C6_4 C7_4 1_555 1_555
C9_4 C10_4 1_555 1_555
C10_4 C11_4 1_555 1_555
C12_4 C13_4 1_555 1_555
C18_4 C19_4 1_555 1_555
C23_4 C24_4 1_555 1_555
C24_4 C25_4 1_555 1_555
C25_4 C26_4 1_555 1_555
C31_4 C32_4 1_555 1_555
C33_4 C34_4 1_555 1_555
C37_4 C38_4 1_555 1_555
C39_4 C40_4 1_555 1_555
O3_3 C27_5 1_555 1_555
O4_3 C27_5 1_555 1_555
C8_5 C9_5 1_555 1_555
C9_5 H4_5 1_555 1_555
C12_5 C11_5 1_555 1_555
H5_5 C12_5 1_555 1_555
C13_5 C8_5 1_555 1_555
H6_5 C13_5 1_555 1_555
C27_5 C8_5 1_555 1_555
C30_5 H13_5 1_555 1_555
C31_5 C30_5 1_555 1_555
H14_5 C31_5 1_555 1_555
H19_5 C39_5 1_555 1_555
H20_5 C40_5 1_555 1_555
Cu3_3 O3_3 1_555 1_555
Cu6_3 O4_3 1_555 1_555
C12_5 C13_5 1_555 1_555
C39_5 C40_5 1_555 1_555
O1_5 C20_5 1_555 1_555
O2_5 C20_5 1_555 1_555
O13 C1_5 1_555 1_555
O14 C1_5 1_555 1_555
O7_5 C28_5 1_555 1_555
O8_5 C28_5 1_555 1_555
N1_5 C5_5 1_555 1_555
N2_5 C17_5 1_555 1_555
C1_5 C2_5 1_555 1_555
C2_5 C3_5 1_555 1_555
C3_5 H1_5 1_555 1_555
C4_5 C3_5 1_555 1_555
C5_5 C4_5 1_555 1_555
C6_5 C5_5 1_555 1_555
H2_5 C6_5 1_555 1_555
C7_5 C2_5 1_555 1_555
H3_5 C7_5 1_555 1_555
C10_5 C4_5 1_555 1_555
C14_5 C15_5 1_555 1_555
C15_5 H7_5 1_555 1_555
C16_5 C15_5 1_555 1_555
C17_5 C16_5 1_555 1_555
C18_5 C17_5 1_555 1_555
H8_5 C18_5 1_555 1_555
C19_5 C14_5 1_555 1_555
H9_5 C19_5 1_555 1_555
C20_5 C21_5 1_555 1_555
C21_5 C22_5 1_555 1_555
C22_5 H10_5 1_555 1_555
C23_5 C22_5 1_555 1_555
H11_5 C23_5 1_555 1_555
C24_5 N2_5 1_555 1_555
C25_5 C16_5 1_555 1_555
C26_5 C21_5 1_555 1_555
H12_5 C26_5 1_555 1_555
C28_5 C14_5 1_555 1_555
C32_5 N2_5 1_555 1_555
C33_5 C32_5 1_555 1_555
H15_5 C33_5 1_555 1_555
C34_5 C29_5 1_555 1_555
H16_5 C34_5 1_555 1_555
C35_5 N1_5 1_555 1_555
C36_5 C35_5 1_555 1_555
H17_5 C36_5 1_555 1_555
C37_5 C36_5 1_555 1_555
H18_5 C37_5 1_555 1_555
C38_5 C29_5 1_555 1_555
Cu5_5 O7_5 1_555 1_555
Cu8_5 O8_5 1_555 1_555
C6_5 C7_5 1_555 1_555
C18_5 C19_5 1_555 1_555
C23_5 C24_5 1_555 1_555
C24_5 C25_5 1_555 1_555
C25_5 C26_5 1_555 1_555
C33_5 C34_5 1_555 1_555
C37_5 C38_5 1_555 1_555
O9_5 Cu2_3 1_555 1_555
O10_5 Cu1_3 1_555 1_555
O11_3 Cu1_3 1_555 1_555
O12_3 Cu2_3 1_555 1_555
O15_5 Cu1_3 1_555 1_555
O16_5 Cu2_3 1_555 1_555
O9_5 H21_5 1_555 1_555
O9_5 H22_5 1_555 1_555
O10_5 H23_5 1_555 1_555
O10_5 H24_5 1_555 1_555
Cu3_3 O1_6 1_555 1_555
Cu6_3 O2_6 1_555 1_555
O1_6 C20_6 1_555 1_555
O2_6 C20_6 1_555 1_555
O13_4 C1_6 1_555 1_555
O14_4 C1_6 1_555 1_555
O7_6 C28_6 1_555 1_555
O8_6 C28_6 1_555 1_555
O9_6 Cu6_3 1_555 1_555
O10_6 Cu3_3 1_555 1_555
N1_6 C5_6 1_555 1_555
N2_6 C17_6 1_555 1_555
C1_6 C2_6 1_555 1_555
C2_6 C3_6 1_555 1_555
C3_6 H1_6 1_555 1_555
C4_6 C3_6 1_555 1_555
C5_6 C4_6 1_555 1_555
C6_6 C5_6 1_555 1_555
H2_6 C6_6 1_555 1_555
C7_6 C2_6 1_555 1_555
H3_6 C7_6 1_555 1_555
C10_6 C4_6 1_555 1_555
C14_6 C15_6 1_555 1_555
C15_6 H7_6 1_555 1_555
C16_6 C15_6 1_555 1_555
C17_6 C16_6 1_555 1_555
C18_6 C17_6 1_555 1_555
H8_6 C18_6 1_555 1_555
C19_6 C14_6 1_555 1_555
H9_6 C19_6 1_555 1_555
C20_6 C21_6 1_555 1_555
C21_6 C22_6 1_555 1_555
C22_6 H10_6 1_555 1_555
C23_6 C22_6 1_555 1_555
H11_6 C23_6 1_555 1_555
C24_6 N2_6 1_555 1_555
C25_6 C16_6 1_555 1_555
C26_6 C21_6 1_555 1_555
H12_6 C26_6 1_555 1_555
C28_6 C14_6 1_555 1_555
C32_6 N2_6 1_555 1_555
C33_6 C32_6 1_555 1_555
H15_6 C33_6 1_555 1_555
C34_6 C29_6 1_555 1_555
H16_6 C34_6 1_555 1_555
C35_6 N1_6 1_555 1_555
C36_6 C35_6 1_555 1_555
H17_6 C36_6 1_555 1_555
C37_6 C36_6 1_555 1_555
H18_6 C37_6 1_555 1_555
C38_6 C29_6 1_555 1_555
Cu5_6 O7_6 1_555 1_555
Cu8_6 O8_6 1_555 1_555
O15_6 Cu3_3 1_555 1_555
O16_6 Cu6_3 1_555 1_555
C6_6 C7_6 1_555 1_555
C18_6 C19_6 1_555 1_555
C23_6 C24_6 1_555 1_555
C24_6 C25_6 1_555 1_555
C25_6 C26_6 1_555 1_555
C33_6 C34_6 1_555 1_555
C37_6 C38_6 1_555 1_555
O9_6 H21_6 1_555 1_555
O9_6 H22_6 1_555 1_555
O10_6 H23_6 1_555 1_555
O10_6 H24_6 1_555 1_555
O11_3 C27_6 1_555 1_555
O12_3 C27_6 1_555 1_555
C8_6 C9_6 1_555 1_555
C9_6 H4_6 1_555 1_555
C12_6 C11_6 1_555 1_555
H5_6 C12_6 1_555 1_555
C13_6 C8_6 1_555 1_555
H6_6 C13_6 1_555 1_555
C27_6 C8_6 1_555 1_555
C30_6 H13_6 1_555 1_555
C31_6 C30_6 1_555 1_555
H14_6 C31_6 1_555 1_555
H19_6 C39_6 1_555 1_555
H20_6 C40_6 1_555 1_555
C12_6 C13_6 1_555 1_555
C39_6 C40_6 1_555 1_555
Cu1_4 O1_7 1_555 1_555
Cu2_4 O2_7 1_555 1_555
O1_7 C20_7 1_555 1_555
O2_7 C20_7 1_555 1_555
O3_4 C27_7 1_555 1_555
O4_4 C27_7 1_555 1_555
O13_2 C1_7 1_555 1_555
O14_2 C1_7 1_555 1_555
O7_7 C28_7 1_555 1_555
O8_7 C28_7 1_555 1_555
O9_7 Cu2_4 1_555 1_555
O10_7 Cu1_4 1_555 1_555
N1_7 C5_7 1_555 1_555
N2_7 C17_7 1_555 1_555
C1_7 C2_7 1_555 1_555
C2_7 C3_7 1_555 1_555
C3_7 H1_7 1_555 1_555
C4_7 C3_7 1_555 1_555
C5_7 C4_7 1_555 1_555
C6_7 C5_7 1_555 1_555
H2_7 C6_7 1_555 1_555
C7_7 C2_7 1_555 1_555
H3_7 C7_7 1_555 1_555
C8_7 C9_7 1_555 1_555
C9_7 H4_7 1_555 1_555
C10_7 C4_7 1_555 1_555
C11_7 N1_7 1_555 1_555
C12_7 C11_7 1_555 1_555
H5_7 C12_7 1_555 1_555
C13_7 C8_7 1_555 1_555
H6_7 C13_7 1_555 1_555
C14_7 C15_7 1_555 1_555
C15_7 H7_7 1_555 1_555
C16_7 C15_7 1_555 1_555
C17_7 C16_7 1_555 1_555
C18_7 C17_7 1_555 1_555
H8_7 C18_7 1_555 1_555
C19_7 C14_7 1_555 1_555
H9_7 C19_7 1_555 1_555
C20_7 C21_7 1_555 1_555
C21_7 C22_7 1_555 1_555
C22_7 H10_7 1_555 1_555
C23_7 C22_7 1_555 1_555
H11_7 C23_7 1_555 1_555
C24_7 N2_7 1_555 1_555
C25_7 C16_7 1_555 1_555
C26_7 C21_7 1_555 1_555
H12_7 C26_7 1_555 1_555
C27_7 C8_7 1_555 1_555
C28_7 C14_7 1_555 1_555
C29_7 C30_7 1_555 1_555
C30_7 H13_7 1_555 1_555
C31_7 C30_7 1_555 1_555
H14_7 C31_7 1_555 1_555
C32_7 N2_7 1_555 1_555
C33_7 C32_7 1_555 1_555
H15_7 C33_7 1_555 1_555
C34_7 C29_7 1_555 1_555
H16_7 C34_7 1_555 1_555
C35_7 N1_7 1_555 1_555
C36_7 C35_7 1_555 1_555
H17_7 C36_7 1_555 1_555
C37_7 C36_7 1_555 1_555
H18_7 C37_7 1_555 1_555
C38_7 C29_7 1_555 1_555
C39_7 C38_7 1_555 1_555
H19_7 C39_7 1_555 1_555
C40_7 C35_7 1_555 1_555
H20_7 C40_7 1_555 1_555
Cu3_4 O3_4 1_555 1_555
Cu5_7 O7_7 1_555 1_555
Cu6_4 O4_4 1_555 1_555
Cu8_7 O8_7 1_555 1_555
O11_4 Cu1_4 1_555 1_555
O12_4 Cu2_4 1_555 1_555
O13_7 Cu1_4 1_555 1_555
O14_7 Cu2_4 1_555 1_555
O15_7 Cu1_4 1_555 1_555
O16_7 Cu2_4 1_555 1_555
C6_7 C7_7 1_555 1_555
C9_7 C10_7 1_555 1_555
C10_7 C11_7 1_555 1_555
C12_7 C13_7 1_555 1_555
C18_7 C19_7 1_555 1_555
C23_7 C24_7 1_555 1_555
C24_7 C25_7 1_555 1_555
C25_7 C26_7 1_555 1_555
C31_7 C32_7 1_555 1_555
C33_7 C34_7 1_555 1_555
C37_7 C38_7 1_555 1_555
C39_7 C40_7 1_555 1_555
O9_7 H21_7 1_555 1_555
O9_7 H22_7 1_555 1_555
O10_7 H23_7 1_555 1_555
O10_7 H24_7 1_555 1_555
O9_8 Cu6_4 1_555 1_555
O10_8 Cu3_4 1_555 1_555
O13_8 Cu3_4 1_555 1_555
O14_8 Cu6_4 1_555 1_555
O15_8 Cu3_4 1_555 1_555
O16_8 Cu6_4 1_555 1_555
O9_8 H21_8 1_555 1_555
O9_8 H22_8 1_555 1_555
O10_8 H23_8 1_555 1_555
O10_8 H24_8 1_555 1_555
O1_8 C20_8 1_555 1_555
O2_8 C20_8 1_555 1_555
O11_4 C27_8 1_555 1_555
O12_4 C27_8 1_555 1_555
O13_3 C1_8 1_555 1_555
O14_3 C1_8 1_555 1_555
O7_8 C28_8 1_555 1_555
O8_8 C28_8 1_555 1_555
N1_8 C5_8 1_555 1_555
N2_8 C17_8 1_555 1_555
C1_8 C2_8 1_555 1_555
C2_8 C3_8 1_555 1_555
C3_8 H1_8 1_555 1_555
C4_8 C3_8 1_555 1_555
C5_8 C4_8 1_555 1_555
C6_8 C5_8 1_555 1_555
H2_8 C6_8 1_555 1_555
C7_8 C2_8 1_555 1_555
H3_8 C7_8 1_555 1_555
C8_8 C9_8 1_555 1_555
C9_8 H4_8 1_555 1_555
C10_8 C4_8 1_555 1_555
C11_8 N1_8 1_555 1_555
C12_8 C11_8 1_555 1_555
H5_8 C12_8 1_555 1_555
C13_8 C8_8 1_555 1_555
H6_8 C13_8 1_555 1_555
C14_8 C15_8 1_555 1_555
C15_8 H7_8 1_555 1_555
C16_8 C15_8 1_555 1_555
C17_8 C16_8 1_555 1_555
C18_8 C17_8 1_555 1_555
H8_8 C18_8 1_555 1_555
C19_8 C14_8 1_555 1_555
H9_8 C19_8 1_555 1_555
C20_8 C21_8 1_555 1_555
C21_8 C22_8 1_555 1_555
C22_8 H10_8 1_555 1_555
C23_8 C22_8 1_555 1_555
H11_8 C23_8 1_555 1_555
C24_8 N2_8 1_555 1_555
C25_8 C16_8 1_555 1_555
C26_8 C21_8 1_555 1_555
H12_8 C26_8 1_555 1_555
C27_8 C8_8 1_555 1_555
C28_8 C14_8 1_555 1_555
C29_8 C30_8 1_555 1_555
C30_8 H13_8 1_555 1_555
C31_8 C30_8 1_555 1_555
H14_8 C31_8 1_555 1_555
C32_8 N2_8 1_555 1_555
C33_8 C32_8 1_555 1_555
H15_8 C33_8 1_555 1_555
C34_8 C29_8 1_555 1_555
H16_8 C34_8 1_555 1_555
C35_8 N1_8 1_555 1_555
C36_8 C35_8 1_555 1_555
H17_8 C36_8 1_555 1_555
C37_8 C36_8 1_555 1_555
H18_8 C37_8 1_555 1_555
C38_8 C29_8 1_555 1_555
C39_8 C38_8 1_555 1_555
H19_8 C39_8 1_555 1_555
C40_8 C35_8 1_555 1_555
H20_8 C40_8 1_555 1_555
Cu5_8 O7_8 1_555 1_555
Cu8_8 O8_8 1_555 1_555
C6_8 C7_8 1_555 1_555
C9_8 C10_8 1_555 1_555
C10_8 C11_8 1_555 1_555
C12_8 C13_8 1_555 1_555
C18_8 C19_8 1_555 1_555
C23_8 C24_8 1_555 1_555
C24_8 C25_8 1_555 1_555
C25_8 C26_8 1_555 1_555
C31_8 C32_8 1_555 1_555
C33_8 C34_8 1_555 1_555
C37_8 C38_8 1_555 1_555
C39_8 C40_8 1_555 1_555
O3_5 C27_9 1_555 1_555
O4_5 C27_9 1_555 1_555
C8_9 C9_9 1_555 1_555
C9_9 H4_9 1_555 1_555
C12_9 C11_9 1_555 1_555
H5_9 C12_9 1_555 1_555
C13_9 C8_9 1_555 1_555
H6_9 C13_9 1_555 1_555
C27_9 C8_9 1_555 1_555
C30_9 H13_9 1_555 1_555
C31_9 C30_9 1_555 1_555
H14_9 C31_9 1_555 1_555
H19_9 C39_9 1_555 1_555
H20_9 C40_9 1_555 1_555
Cu4_3 O3_5 1_555 1_555
Cu7_3 O4_5 1_555 1_555
C12_9 C13_9 1_555 1_555
C39_9 C40_9 1_555 1_555
O1_9 C20_9 1_555 1_555
O2_9 C20_9 1_555 1_555
O13_5 C1_9 1_555 1_555
O14_5 C1_9 1_555 1_555
O7_9 C28_9 1_555 1_555
O8_9 C28_9 1_555 1_555
N1_9 C5_9 1_555 1_555
N2_9 C17_9 1_555 1_555
C1_9 C2_9 1_555 1_555
C2_9 C3_9 1_555 1_555
C3_9 H1_9 1_555 1_555
C4_9 C3_9 1_555 1_555
C5_9 C4_9 1_555 1_555
C6_9 C5_9 1_555 1_555
H2_9 C6_9 1_555 1_555
C7_9 C2_9 1_555 1_555
H3_9 C7_9 1_555 1_555
C10_9 C4_9 1_555 1_555
C14_9 C15_9 1_555 1_555
C15_9 H7_9 1_555 1_555
C16_9 C15_9 1_555 1_555
C17_9 C16_9 1_555 1_555
C18_9 C17_9 1_555 1_555
H8_9 C18_9 1_555 1_555
C19_9 C14_9 1_555 1_555
H9_9 C19_9 1_555 1_555
C20_9 C21_9 1_555 1_555
C21_9 C22_9 1_555 1_555
C22_9 H10_9 1_555 1_555
C23_9 C22_9 1_555 1_555
H11_9 C23_9 1_555 1_555
C24_9 N2_9 1_555 1_555
C25_9 C16_9 1_555 1_555
C26_9 C21_9 1_555 1_555
H12_9 C26_9 1_555 1_555
C28_9 C14_9 1_555 1_555
C32_9 N2_9 1_555 1_555
C33_9 C32_9 1_555 1_555
H15_9 C33_9 1_555 1_555
C34_9 C29_9 1_555 1_555
H16_9 C34_9 1_555 1_555
C35_9 N1_9 1_555 1_555
C36_9 C35_9 1_555 1_555
H17_9 C36_9 1_555 1_555
C37_9 C36_9 1_555 1_555
H18_9 C37_9 1_555 1_555
C38_9 C29_9 1_555 1_555
Cu5_9 O7_9 1_555 1_555
Cu8_9 O8_9 1_555 1_555
C6_9 C7_9 1_555 1_555
C18_9 C19_9 1_555 1_555
C23_9 C24_9 1_555 1_555
C24_9 C25_9 1_555 1_555
C25_9 C26_9 1_555 1_555
C33_9 C34_9 1_555 1_555
C37_9 C38_9 1_555 1_555
O9_9 Cu7 1_555 1_555
O10_9 Cu4 1_555 1_555
O11_5 Cu4 1_555 1_555
O12_5 Cu7 1_555 1_555
O15_9 Cu4 1_555 1_555
O16_9 Cu7 1_555 1_555
O9_9 H21_9 1_555 1_555
O9_9 H22_9 1_555 1_555
O10_9 H23_9 1_555 1_555
O10_9 H24_9 1_555 1_555
Cu4_3 O1_10 1_555 1_555
Cu7_3 O2_10 1_555 1_555
O1_10 C20_10 1_555 1_555
O2_10 C20_10 1_555 1_555
O13_8 C1_10 1_555 1_555
O14_8 C1_10 1_555 1_555
O7_10 C28_10 1_555 1_555
O8_10 C28_10 1_555 1_555
O9_10 Cu7_3 1_555 1_555
O10_10 Cu4_3 1_555 1_555
N1_10 C5_10 1_555 1_555
N2_10 C17_10 1_555 1_555
C1_10 C2_10 1_555 1_555
C2_10 C3_10 1_555 1_555
C3_10 H1_10 1_555 1_555
C4_10 C3_10 1_555 1_555
C5_10 C4_10 1_555 1_555
C6_10 C5_10 1_555 1_555
H2_10 C6_10 1_555 1_555
C7_10 C2_10 1_555 1_555
H3_10 C7_10 1_555 1_555
C10_10 C4_10 1_555 1_555
C14_10 C15_10 1_555 1_555
C15_10 H7_10 1_555 1_555
C16_10 C15_10 1_555 1_555
C17_10 C16_10 1_555 1_555
C18_10 C17_10 1_555 1_555
H8_10 C18_10 1_555 1_555
C19_10 C14_10 1_555 1_555
H9_10 C19_10 1_555 1_555
C20_10 C21_10 1_555 1_555
C21_10 C22_10 1_555 1_555
C22_10 H10_10 1_555 1_555
C23_10 C22_10 1_555 1_555
H11_10 C23_10 1_555 1_555
C24_10 N2_10 1_555 1_555
C25_10 C16_10 1_555 1_555
C26_10 C21_10 1_555 1_555
H12_10 C26_10 1_555 1_555
C28_10 C14_10 1_555 1_555
C32_10 N2_10 1_555 1_555
C33_10 C32_10 1_555 1_555
H15_10 C33_10 1_555 1_555
C34_10 C29_10 1_555 1_555
H16_10 C34_10 1_555 1_555
C35_10 N1_10 1_555 1_555
C36_10 C35_10 1_555 1_555
H17_10 C36_10 1_555 1_555
C37_10 C36_10 1_555 1_555
H18_10 C37_10 1_555 1_555
C38_10 C29_10 1_555 1_555
Cu5_10 O7_10 1_555 1_555
Cu8_10 O8_10 1_555 1_555
O15_10 Cu4_3 1_555 1_555
O16_10 Cu7_3 1_555 1_555
C6_10 C7_10 1_555 1_555
C18_10 C19_10 1_555 1_555
C23_10 C24_10 1_555 1_555
C24_10 C25_10 1_555 1_555
C25_10 C26_10 1_555 1_555
C33_10 C34_10 1_555 1_555
C37_10 C38_10 1_555 1_555
O9_10 H21_10 1_555 1_555
O9_10 H22_10 1_555 1_555
O10_10 H23_10 1_555 1_555
O10_10 H24_10 1_555 1_555
O11_5 C27_10 1_555 1_555
O12_5 C27_10 1_555 1_555
C8_10 C9_10 1_555 1_555
C9_10 H4_10 1_555 1_555
C12_10 C11_10 1_555 1_555
H5_10 C12_10 1_555 1_555
C13_10 C8_10 1_555 1_555
H6_10 C13_10 1_555 1_555
C27_10 C8_10 1_555 1_555
C30_10 H13_10 1_555 1_555
C31_10 C30_10 1_555 1_555
H14_10 C31_10 1_555 1_555
H19_10 C39_10 1_555 1_555
H20_10 C40_10 1_555 1_555
C12_10 C13_10 1_555 1_555
C39_10 C40_10 1_555 1_555
Cu4_4 O1_11 1_555 1_555
Cu7_4 O2_11 1_555 1_555
O1_11 C20_11 1_555 1_555
O2_11 C20_11 1_555 1_555
O3_6 C27_11 1_555 1_555
O4_6 C27_11 1_555 1_555
O13_6 C1_11 1_555 1_555
O14_6 C1_11 1_555 1_555
O7_11 C28_11 1_555 1_555
O8_11 C28_11 1_555 1_555
O9_11 Cu7_4 1_555 1_555
O10_11 Cu4_4 1_555 1_555
N1_11 C5_11 1_555 1_555
N2_11 C17_11 1_555 1_555
C1_11 C2_11 1_555 1_555
C2_11 C3_11 1_555 1_555
C3_11 H1_11 1_555 1_555
C4_11 C3_11 1_555 1_555
C5_11 C4_11 1_555 1_555
C6_11 C5_11 1_555 1_555
H2_11 C6_11 1_555 1_555
C7_11 C2_11 1_555 1_555
H3_11 C7_11 1_555 1_555
C8_11 C9_11 1_555 1_555
C9_11 H4_11 1_555 1_555
C10_11 C4_11 1_555 1_555
C11_11 N1_11 1_555 1_555
C12_11 C11_11 1_555 1_555
H5_11 C12_11 1_555 1_555
C13_11 C8_11 1_555 1_555
H6_11 C13_11 1_555 1_555
C14_11 C15_11 1_555 1_555
C15_11 H7_11 1_555 1_555
C16_11 C15_11 1_555 1_555
C17_11 C16_11 1_555 1_555
C18_11 C17_11 1_555 1_555
H8_11 C18_11 1_555 1_555
C19_11 C14_11 1_555 1_555
H9_11 C19_11 1_555 1_555
C20_11 C21_11 1_555 1_555
C21_11 C22_11 1_555 1_555
C22_11 H10_11 1_555 1_555
C23_11 C22_11 1_555 1_555
H11_11 C23_11 1_555 1_555
C24_11 N2_11 1_555 1_555
C25_11 C16_11 1_555 1_555
C26_11 C21_11 1_555 1_555
H12_11 C26_11 1_555 1_555
C27_11 C8_11 1_555 1_555
C28_11 C14_11 1_555 1_555
C29_11 C30_11 1_555 1_555
C30_11 H13_11 1_555 1_555
C31_11 C30_11 1_555 1_555
H14_11 C31_11 1_555 1_555
C32_11 N2_11 1_555 1_555
C33_11 C32_11 1_555 1_555
H15_11 C33_11 1_555 1_555
C34_11 C29_11 1_555 1_555
H16_11 C34_11 1_555 1_555
C35_11 N1_11 1_555 1_555
C36_11 C35_11 1_555 1_555
H17_11 C36_11 1_555 1_555
C37_11 C36_11 1_555 1_555
H18_11 C37_11 1_555 1_555
C38_11 C29_11 1_555 1_555
C39_11 C38_11 1_555 1_555
H19_11 C39_11 1_555 1_555
C40_11 C35_11 1_555 1_555
H20_11 C40_11 1_555 1_555
Cu4_2 O3_6 1_555 1_555
Cu5_11 O7_11 1_555 1_555
Cu7_2 O4_6 1_555 1_555
Cu8_11 O8_11 1_555 1_555
O11_6 Cu4_4 1_555 1_555
O12_6 Cu7_4 1_555 1_555
O15_11 Cu4_4 1_555 1_555
O16_11 Cu7_4 1_555 1_555
C6_11 C7_11 1_555 1_555
C9_11 C10_11 1_555 1_555
C10_11 C11_11 1_555 1_555
C12_11 C13_11 1_555 1_555
C18_11 C19_11 1_555 1_555
C23_11 C24_11 1_555 1_555
C24_11 C25_11 1_555 1_555
C25_11 C26_11 1_555 1_555
C31_11 C32_11 1_555 1_555
C33_11 C34_11 1_555 1_555
C37_11 C38_11 1_555 1_555
C39_11 C40_11 1_555 1_555
O9_11 H21_11 1_555 1_555
O9_11 H22_11 1_555 1_555
O10_11 H23_11 1_555 1_555
O10_11 H24_11 1_555 1_555
O9_12 Cu7_2 1_555 1_555
O10_12 Cu4_2 1_555 1_555
O15_12 Cu4_2 1_555 1_555
O16_12 Cu7_2 1_555 1_555
O9_12 H21_12 1_555 1_555
O9_12 H22_12 1_555 1_555
O10_12 H23_12 1_555 1_555
O10_12 H24_12 1_555 1_555
O1_12 C20_12 1_555 1_555
O2_12 C20_12 1_555 1_555
O11_6 C27_12 1_555 1_555
O12_6 C27_12 1_555 1_555
O13_7 C1_12 1_555 1_555
O14_7 C1_12 1_555 1_555
O7_12 C28_12 1_555 1_555
O8_12 C28_12 1_555 1_555
N1_12 C5_12 1_555 1_555
N2_12 C17_12 1_555 1_555
C1_12 C2_12 1_555 1_555
C2_12 C3_12 1_555 1_555
C3_12 H1_12 1_555 1_555
C4_12 C3_12 1_555 1_555
C5_12 C4_12 1_555 1_555
C6_12 C5_12 1_555 1_555
H2_12 C6_12 1_555 1_555
C7_12 C2_12 1_555 1_555
H3_12 C7_12 1_555 1_555
C8_12 C9_12 1_555 1_555
C9_12 H4_12 1_555 1_555
C10_12 C4_12 1_555 1_555
C11_12 N1_12 1_555 1_555
C12_12 C11_12 1_555 1_555
H5_12 C12_12 1_555 1_555
C13_12 C8_12 1_555 1_555
H6_12 C13_12 1_555 1_555
C14_12 C15_12 1_555 1_555
C15_12 H7_12 1_555 1_555
C16_12 C15_12 1_555 1_555
C17_12 C16_12 1_555 1_555
C18_12 C17_12 1_555 1_555
H8_12 C18_12 1_555 1_555
C19_12 C14_12 1_555 1_555
H9_12 C19_12 1_555 1_555
C20_12 C21_12 1_555 1_555
C21_12 C22_12 1_555 1_555
C22_12 H10_12 1_555 1_555
C23_12 C22_12 1_555 1_555
H11_12 C23_12 1_555 1_555
C24_12 N2_12 1_555 1_555
C25_12 C16_12 1_555 1_555
C26_12 C21_12 1_555 1_555
H12_12 C26_12 1_555 1_555
C27_12 C8_12 1_555 1_555
C28_12 C14_12 1_555 1_555
C29_12 C30_12 1_555 1_555
C30_12 H13_12 1_555 1_555
C31_12 C30_12 1_555 1_555
H14_12 C31_12 1_555 1_555
C32_12 N2_12 1_555 1_555
C33_12 C32_12 1_555 1_555
H15_12 C33_12 1_555 1_555
C34_12 C29_12 1_555 1_555
H16_12 C34_12 1_555 1_555
C35_12 N1_12 1_555 1_555
C36_12 C35_12 1_555 1_555
H17_12 C36_12 1_555 1_555
C37_12 C36_12 1_555 1_555
H18_12 C37_12 1_555 1_555
C38_12 C29_12 1_555 1_555
C39_12 C38_12 1_555 1_555
H19_12 C39_12 1_555 1_555
C40_12 C35_12 1_555 1_555
H20_12 C40_12 1_555 1_555
Cu5_12 O7_12 1_555 1_555
Cu8_12 O8_12 1_555 1_555
C6_12 C7_12 1_555 1_555
C9_12 C10_12 1_555 1_555
C10_12 C11_12 1_555 1_555
C12_12 C13_12 1_555 1_555
C18_12 C19_12 1_555 1_555
C23_12 C24_12 1_555 1_555
C24_12 C25_12 1_555 1_555
C25_12 C26_12 1_555 1_555
C31_12 C32_12 1_555 1_555
C33_12 C34_12 1_555 1_555
C37_12 C38_12 1_555 1_555
C39_12 C40_12 1_555 1_555
O9_13 Cu8_6 1_555 1_555
O10_13 Cu5_6 1_555 1_555
O11_7 Cu5_6 1_555 1_555
O12_7 Cu8_6 1_555 1_555
O9_13 H21_13 1_555 1_555
O9_13 H22_13 1_555 1_555
O10_13 H23_13 1_555 1_555
O10_13 H24_13 1_555 1_555
O1_13 C20_13 1_555 1_555
O2_13 C20_13 1_555 1_555
O5_5 C1_13 1_555 1_555
O6_5 C1_13 1_555 1_555
O15_12 C28_13 1_555 1_555
O16_12 C28_13 1_555 1_555
N1_13 C5_13 1_555 1_555
N2_13 C17_13 1_555 1_555
C1_13 C2_13 1_555 1_555
C2_13 C3_13 1_555 1_555
C3_13 H1_13 1_555 1_555
C4_13 C3_13 1_555 1_555
C5_13 C4_13 1_555 1_555
C6_13 C5_13 1_555 1_555
H2_13 C6_13 1_555 1_555
C7_13 C2_13 1_555 1_555
H3_13 C7_13 1_555 1_555
C10_13 C4_13 1_555 1_555
C14_13 C15_13 1_555 1_555
C15_13 H7_13 1_555 1_555
C16_13 C15_13 1_555 1_555
C17_13 C16_13 1_555 1_555
C18_13 C17_13 1_555 1_555
H8_13 C18_13 1_555 1_555
C19_13 C14_13 1_555 1_555
H9_13 C19_13 1_555 1_555
C20_13 C21_13 1_555 1_555
C21_13 C22_13 1_555 1_555
C22_13 H10_13 1_555 1_555
C23_13 C22_13 1_555 1_555
H11_13 C23_13 1_555 1_555
C24_13 N2_13 1_555 1_555
C25_13 C16_13 1_555 1_555
C26_13 C21_13 1_555 1_555
H12_13 C26_13 1_555 1_555
C28_13 C14_13 1_555 1_555
C32_13 N2_13 1_555 1_555
C33_13 C32_13 1_555 1_555
H15_13 C33_13 1_555 1_555
C34_13 C29_13 1_555 1_555
H16_13 C34_13 1_555 1_555
C35_13 N1_13 1_555 1_555
C36_13 C35_13 1_555 1_555
H17_13 C36_13 1_555 1_555
C37_13 C36_13 1_555 1_555
H18_13 C37_13 1_555 1_555
C38_13 C29_13 1_555 1_555
C6_13 C7_13 1_555 1_555
C18_13 C19_13 1_555 1_555
C23_13 C24_13 1_555 1_555
C24_13 C25_13 1_555 1_555
C25_13 C26_13 1_555 1_555
C33_13 C34_13 1_555 1_555
C37_13 C38_13 1_555 1_555
O3_7 C27_13 1_555 1_555
O4_7 C27_13 1_555 1_555
C8_13 C9_13 1_555 1_555
C9_13 H4_13 1_555 1_555
C12_13 C11_13 1_555 1_555
H5_13 C12_13 1_555 1_555
C13_13 C8_13 1_555 1_555
H6_13 C13_13 1_555 1_555
C27_13 C8_13 1_555 1_555
C30_13 H13_13 1_555 1_555
C31_13 C30_13 1_555 1_555
H14_13 C31_13 1_555 1_555
H19_13 C39_13 1_555 1_555
H20_13 C40_13 1_555 1_555
Cu5_8 O3_7 1_555 1_555
Cu8_8 O4_7 1_555 1_555
C12_13 C13_13 1_555 1_555
C39_13 C40_13 1_555 1_555
O11_7 C27_14 1_555 1_555
O12_7 C27_14 1_555 1_555
C8_14 C9_14 1_555 1_555
C9_14 H4_14 1_555 1_555
C12_14 C11_14 1_555 1_555
H5_14 C12_14 1_555 1_555
C13_14 C8_14 1_555 1_555
H6_14 C13_14 1_555 1_555
C27_14 C8_14 1_555 1_555
C30_14 H13_14 1_555 1_555
C31_14 C30_14 1_555 1_555
H14_14 C31_14 1_555 1_555
H19_14 C39_14 1_555 1_555
H20_14 C40_14 1_555 1_555
C12_14 C13_14 1_555 1_555
C39_14 C40_14 1_555 1_555
Cu5_8 O1_14 1_555 1_555
Cu8_8 O2_14 1_555 1_555
O1_14 C20_14 1_555 1_555
O2_14 C20_14 1_555 1_555
O5_6 C1_14 1_555 1_555
O6_6 C1_14 1_555 1_555
O15_9 C28_14 1_555 1_555
O16_9 C28_14 1_555 1_555
O9_14 Cu8_8 1_555 1_555
O10_14 Cu5_8 1_555 1_555
N1_14 C5_14 1_555 1_555
N2_14 C17_14 1_555 1_555
C1_14 C2_14 1_555 1_555
C2_14 C3_14 1_555 1_555
C3_14 H1_14 1_555 1_555
C4_14 C3_14 1_555 1_555
C5_14 C4_14 1_555 1_555
C6_14 C5_14 1_555 1_555
H2_14 C6_14 1_555 1_555
C7_14 C2_14 1_555 1_555
H3_14 C7_14 1_555 1_555
C10_14 C4_14 1_555 1_555
C14_14 C15_14 1_555 1_555
C15_14 H7_14 1_555 1_555
C16_14 C15_14 1_555 1_555
C17_14 C16_14 1_555 1_555
C18_14 C17_14 1_555 1_555
H8_14 C18_14 1_555 1_555
C19_14 C14_14 1_555 1_555
H9_14 C19_14 1_555 1_555
C20_14 C21_14 1_555 1_555
C21_14 C22_14 1_555 1_555
C22_14 H10_14 1_555 1_555
C23_14 C22_14 1_555 1_555
H11_14 C23_14 1_555 1_555
C24_14 N2_14 1_555 1_555
C25_14 C16_14 1_555 1_555
C26_14 C21_14 1_555 1_555
H12_14 C26_14 1_555 1_555
C28_14 C14_14 1_555 1_555
C32_14 N2_14 1_555 1_555
C33_14 C32_14 1_555 1_555
H15_14 C33_14 1_555 1_555
C34_14 C29_14 1_555 1_555
H16_14 C34_14 1_555 1_555
C35_14 N1_14 1_555 1_555
C36_14 C35_14 1_555 1_555
H17_14 C36_14 1_555 1_555
C37_14 C36_14 1_555 1_555
H18_14 C37_14 1_555 1_555
C38_14 C29_14 1_555 1_555
Cu5 O5_6 1_555 1_555
Cu8 O6_6 1_555 1_555
C6_14 C7_14 1_555 1_555
C18_14 C19_14 1_555 1_555
C23_14 C24_14 1_555 1_555
C24_14 C25_14 1_555 1_555
C25_14 C26_14 1_555 1_555
C33_14 C34_14 1_555 1_555
C37_14 C38_14 1_555 1_555
O9_14 H21_14 1_555 1_555
O9_14 H22_14 1_555 1_555
O10_14 H23_14 1_555 1_555
O10_14 H24_14 1_555 1_555
Cu5_7 O1_15 1_555 1_555
Cu8_7 O2_15 1_555 1_555
O1_15 C20_15 1_555 1_555
O2_15 C20_15 1_555 1_555
O3_8 C27_15 1_555 1_555
O4_8 C27_15 1_555 1_555
O5_7 C1_15 1_555 1_555
O6_7 C1_15 1_555 1_555
O15_11 C28_15 1_555 1_555
O16_11 C28_15 1_555 1_555
O9_15 Cu8_7 1_555 1_555
O10_15 Cu5_7 1_555 1_555
N1_15 C5_15 1_555 1_555
N2_15 C17_15 1_555 1_555
C1_15 C2_15 1_555 1_555
C2_15 C3_15 1_555 1_555
C3_15 H1_15 1_555 1_555
C4_15 C3_15 1_555 1_555
C5_15 C4_15 1_555 1_555
C6_15 C5_15 1_555 1_555
H2_15 C6_15 1_555 1_555
C7_15 C2_15 1_555 1_555
H3_15 C7_15 1_555 1_555
C8_15 C9_15 1_555 1_555
C9_15 H4_15 1_555 1_555
C10_15 C4_15 1_555 1_555
C11_15 N1_15 1_555 1_555
C12_15 C11_15 1_555 1_555
H5_15 C12_15 1_555 1_555
C13_15 C8_15 1_555 1_555
H6_15 C13_15 1_555 1_555
C14_15 C15_15 1_555 1_555
C15_15 H7_15 1_555 1_555
C16_15 C15_15 1_555 1_555
C17_15 C16_15 1_555 1_555
C18_15 C17_15 1_555 1_555
H8_15 C18_15 1_555 1_555
C19_15 C14_15 1_555 1_555
H9_15 C19_15 1_555 1_555
C20_15 C21_15 1_555 1_555
C21_15 C22_15 1_555 1_555
C22_15 H10_15 1_555 1_555
C23_15 C22_15 1_555 1_555
H11_15 C23_15 1_555 1_555
C24_15 N2_15 1_555 1_555
C25_15 C16_15 1_555 1_555
C26_15 C21_15 1_555 1_555
H12_15 C26_15 1_555 1_555
C27_15 C8_15 1_555 1_555
C28_15 C14_15 1_555 1_555
C29_15 C30_15 1_555 1_555
C30_15 H13_15 1_555 1_555
C31_15 C30_15 1_555 1_555
H14_15 C31_15 1_555 1_555
C32_15 N2_15 1_555 1_555
C33_15 C32_15 1_555 1_555
H15_15 C33_15 1_555 1_555
C34_15 C29_15 1_555 1_555
H16_15 C34_15 1_555 1_555
C35_15 N1_15 1_555 1_555
C36_15 C35_15 1_555 1_555
H17_15 C36_15 1_555 1_555
C37_15 C36_15 1_555 1_555
H18_15 C37_15 1_555 1_555
C38_15 C29_15 1_555 1_555
C39_15 C38_15 1_555 1_555
H19_15 C39_15 1_555 1_555
C40_15 C35_15 1_555 1_555
H20_15 C40_15 1_555 1_555
Cu5_5 O3_8 1_555 1_555
Cu8_5 O4_8 1_555 1_555
O11_8 Cu5_7 1_555 1_555
O12_8 Cu8_7 1_555 1_555
O13_11 Cu5_7 1_555 1_555
O14_11 Cu8_7 1_555 1_555
C6_15 C7_15 1_555 1_555
C9_15 C10_15 1_555 1_555
C10_15 C11_15 1_555 1_555
C12_15 C13_15 1_555 1_555
C18_15 C19_15 1_555 1_555
C23_15 C24_15 1_555 1_555
C24_15 C25_15 1_555 1_555
C25_15 C26_15 1_555 1_555
C31_15 C32_15 1_555 1_555
C33_15 C34_15 1_555 1_555
C37_15 C38_15 1_555 1_555
C39_15 C40_15 1_555 1_555
O9_15 H21_15 1_555 1_555
O9_15 H22_15 1_555 1_555
O10_15 H23_15 1_555 1_555
O10_15 H24_15 1_555 1_555
O1_16 C20_16 1_555 1_555
O2_16 C20_16 1_555 1_555
O11_8 C27_16 1_555 1_555
O12_8 C27_16 1_555 1_555
O5_8 C1_16 1_555 1_555
O6_8 C1_16 1_555 1_555
O15_10 C28_16 1_555 1_555
O16_10 C28_16 1_555 1_555
N1_16 C5_16 1_555 1_555
N2_16 C17_16 1_555 1_555
C1_16 C2_16 1_555 1_555
C2_16 C3_16 1_555 1_555
C3_16 H1_16 1_555 1_555
C4_16 C3_16 1_555 1_555
C5_16 C4_16 1_555 1_555
C6_16 C5_16 1_555 1_555
H2_16 C6_16 1_555 1_555
C7_16 C2_16 1_555 1_555
H3_16 C7_16 1_555 1_555
C8_16 C9_16 1_555 1_555
C9_16 H4_16 1_555 1_555
C10_16 C4_16 1_555 1_555
C11_16 N1_16 1_555 1_555
C12_16 C11_16 1_555 1_555
H5_16 C12_16 1_555 1_555
C13_16 C8_16 1_555 1_555
H6_16 C13_16 1_555 1_555
C14_16 C15_16 1_555 1_555
C15_16 H7_16 1_555 1_555
C16_16 C15_16 1_555 1_555
C17_16 C16_16 1_555 1_555
C18_16 C17_16 1_555 1_555
H8_16 C18_16 1_555 1_555
C19_16 C14_16 1_555 1_555
H9_16 C19_16 1_555 1_555
C20_16 C21_16 1_555 1_555
C21_16 C22_16 1_555 1_555
C22_16 H10_16 1_555 1_555
C23_16 C22_16 1_555 1_555
H11_16 C23_16 1_555 1_555
C24_16 N2_16 1_555 1_555
C25_16 C16_16 1_555 1_555
C26_16 C21_16 1_555 1_555
H12_16 C26_16 1_555 1_555
C27_16 C8_16 1_555 1_555
C28_16 C14_16 1_555 1_555
C29_16 C30_16 1_555 1_555
C30_16 H13_16 1_555 1_555
C31_16 C30_16 1_555 1_555
H14_16 C31_16 1_555 1_555
C32_16 N2_16 1_555 1_555
C33_16 C32_16 1_555 1_555
H15_16 C33_16 1_555 1_555
C34_16 C29_16 1_555 1_555
H16_16 C34_16 1_555 1_555
C35_16 N1_16 1_555 1_555
C36_16 C35_16 1_555 1_555
H17_16 C36_16 1_555 1_555
C37_16 C36_16 1_555 1_555
H18_16 C37_16 1_555 1_555
C38_16 C29_16 1_555 1_555
C39_16 C38_16 1_555 1_555
H19_16 C39_16 1_555 1_555
C40_16 C35_16 1_555 1_555
H20_16 C40_16 1_555 1_555
Cu5_3 O5_8 1_555 1_555
Cu8_3 O6_8 1_555 1_555
C6_16 C7_16 1_555 1_555
C9_16 C10_16 1_555 1_555
C10_16 C11_16 1_555 1_555
C12_16 C13_16 1_555 1_555
C18_16 C19_16 1_555 1_555
C23_16 C24_16 1_555 1_555
C24_16 C25_16 1_555 1_555
C25_16 C26_16 1_555 1_555
C31_16 C32_16 1_555 1_555
C33_16 C34_16 1_555 1_555
C37_16 C38_16 1_555 1_555
C39_16 C40_16 1_555 1_555
O9_16 Cu8_5 1_555 1_555
O10_16 Cu5_5 1_555 1_555
O13_12 Cu5_5 1_555 1_555
O14_12 Cu8_5 1_555 1_555
O9_16 H21_16 1_555 1_555
O9_16 H22_16 1_555 1_555
O10_16 H23_16 1_555 1_555
O10_16 H24_16 1_555 1_555
O9_17 Cu8_10 1_555 1_555
O10_17 Cu5_10 1_555 1_555
O11_9 Cu5_10 1_555 1_555
O12_9 Cu8_10 1_555 1_555
O9_17 H21_17 1_555 1_555
O9_17 H22_17 1_555 1_555
O10_17 H23_17 1_555 1_555
O10_17 H24_17 1_555 1_555
O1_17 C20_17 1_555 1_555
O2_17 C20_17 1_555 1_555
O13_9 C1_17 1_555 1_555
O14_9 C1_17 1_555 1_555
O15_4 C28_17 1_555 1_555
O16_4 C28_17 1_555 1_555
N1_17 C5_17 1_555 1_555
N2_17 C17_17 1_555 1_555
C1_17 C2_17 1_555 1_555
C2_17 C3_17 1_555 1_555
C3_17 H1_17 1_555 1_555
C4_17 C3_17 1_555 1_555
C5_17 C4_17 1_555 1_555
C6_17 C5_17 1_555 1_555
H2_17 C6_17 1_555 1_555
C7_17 C2_17 1_555 1_555
H3_17 C7_17 1_555 1_555
C10_17 C4_17 1_555 1_555
C14_17 C15_17 1_555 1_555
C15_17 H7_17 1_555 1_555
C16_17 C15_17 1_555 1_555
C17_17 C16_17 1_555 1_555
C18_17 C17_17 1_555 1_555
H8_17 C18_17 1_555 1_555
C19_17 C14_17 1_555 1_555
H9_17 C19_17 1_555 1_555
C20_17 C21_17 1_555 1_555
C21_17 C22_17 1_555 1_555
C22_17 H10_17 1_555 1_555
C23_17 C22_17 1_555 1_555
H11_17 C23_17 1_555 1_555
C24_17 N2_17 1_555 1_555
C25_17 C16_17 1_555 1_555
C26_17 C21_17 1_555 1_555
H12_17 C26_17 1_555 1_555
C28_17 C14_17 1_555 1_555
C32_17 N2_17 1_555 1_555
C33_17 C32_17 1_555 1_555
H15_17 C33_17 1_555 1_555
C34_17 C29_17 1_555 1_555
H16_17 C34_17 1_555 1_555
C35_17 N1_17 1_555 1_555
C36_17 C35_17 1_555 1_555
H17_17 C36_17 1_555 1_555
C37_17 C36_17 1_555 1_555
H18_17 C37_17 1_555 1_555
C38_17 C29_17 1_555 1_555
C6_17 C7_17 1_555 1_555
C18_17 C19_17 1_555 1_555
C23_17 C24_17 1_555 1_555
C24_17 C25_17 1_555 1_555
C25_17 C26_17 1_555 1_555
C33_17 C34_17 1_555 1_555
C37_17 C38_17 1_555 1_555
O3_9 C27_17 1_555 1_555
O4_9 C27_17 1_555 1_555
C8_17 C9_17 1_555 1_555
C9_17 H4_17 1_555 1_555
C12_17 C11_17 1_555 1_555
H5_17 C12_17 1_555 1_555
C13_17 C8_17 1_555 1_555
H6_17 C13_17 1_555 1_555
C27_17 C8_17 1_555 1_555
C30_17 H13_17 1_555 1_555
C31_17 C30_17 1_555 1_555
H14_17 C31_17 1_555 1_555
H19_17 C39_17 1_555 1_555
H20_17 C40_17 1_555 1_555
Cu5_12 O3_9 1_555 1_555
Cu8_12 O4_9 1_555 1_555
C12_17 C13_17 1_555 1_555
C39_17 C40_17 1_555 1_555
O11_9 C27_18 1_555 1_555
O12_9 C27_18 1_555 1_555
C8_18 C9_18 1_555 1_555
C9_18 H4_18 1_555 1_555
C12_18 C11_18 1_555 1_555
H5_18 C12_18 1_555 1_555
C13_18 C8_18 1_555 1_555
H6_18 C13_18 1_555 1_555
C27_18 C8_18 1_555 1_555
C30_18 H13_18 1_555 1_555
C31_18 C30_18 1_555 1_555
H14_18 C31_18 1_555 1_555
H19_18 C39_18 1_555 1_555
H20_18 C40_18 1_555 1_555
C12_18 C13_18 1_555 1_555
C39_18 C40_18 1_555 1_555
Cu5_12 O1_18 1_555 1_555
Cu8_12 O2_18 1_555 1_555
O1_18 C20_18 1_555 1_555
O2_18 C20_18 1_555 1_555
O13_12 C1_18 1_555 1_555
O14_12 C1_18 1_555 1_555
O15 C28_18 1_555 1_555
O16 C28_18 1_555 1_555
O9_18 Cu8_12 1_555 1_555
O10_18 Cu5_12 1_555 1_555
N1_18 C5_18 1_555 1_555
N2_18 C17_18 1_555 1_555
C1_18 C2_18 1_555 1_555
C2_18 C3_18 1_555 1_555
C3_18 H1_18 1_555 1_555
C4_18 C3_18 1_555 1_555
C5_18 C4_18 1_555 1_555
C6_18 C5_18 1_555 1_555
H2_18 C6_18 1_555 1_555
C7_18 C2_18 1_555 1_555
H3_18 C7_18 1_555 1_555
C10_18 C4_18 1_555 1_555
C14_18 C15_18 1_555 1_555
C15_18 H7_18 1_555 1_555
C16_18 C15_18 1_555 1_555
C17_18 C16_18 1_555 1_555
C18_18 C17_18 1_555 1_555
H8_18 C18_18 1_555 1_555
C19_18 C14_18 1_555 1_555
H9_18 C19_18 1_555 1_555
C20_18 C21_18 1_555 1_555
C21_18 C22_18 1_555 1_555
C22_18 H10_18 1_555 1_555
C23_18 C22_18 1_555 1_555
H11_18 C23_18 1_555 1_555
C24_18 N2_18 1_555 1_555
C25_18 C16_18 1_555 1_555
C26_18 C21_18 1_555 1_555
H12_18 C26_18 1_555 1_555
C28_18 C14_18 1_555 1_555
C32_18 N2_18 1_555 1_555
C33_18 C32_18 1_555 1_555
H15_18 C33_18 1_555 1_555
C34_18 C29_18 1_555 1_555
H16_18 C34_18 1_555 1_555
C35_18 N1_18 1_555 1_555
C36_18 C35_18 1_555 1_555
H17_18 C36_18 1_555 1_555
C37_18 C36_18 1_555 1_555
H18_18 C37_18 1_555 1_555
C38_18 C29_18 1_555 1_555
C6_18 C7_18 1_555 1_555
C18_18 C19_18 1_555 1_555
C23_18 C24_18 1_555 1_555
C24_18 C25_18 1_555 1_555
C25_18 C26_18 1_555 1_555
C33_18 C34_18 1_555 1_555
C37_18 C38_18 1_555 1_555
O9_18 H21_18 1_555 1_555
O9_18 H22_18 1_555 1_555
O10_18 H23_18 1_555 1_555
O10_18 H24_18 1_555 1_555
Cu5_11 O1_19 1_555 1_555
Cu8_11 O2_19 1_555 1_555
O1_19 C20_19 1_555 1_555
O2_19 C20_19 1_555 1_555
O3_10 C27_19 1_555 1_555
O4_10 C27_19 1_555 1_555
O13_10 C1_19 1_555 1_555
O14_10 C1_19 1_555 1_555
O15_3 C28_19 1_555 1_555
O16_3 C28_19 1_555 1_555
O9_19 Cu8_11 1_555 1_555
O10_19 Cu5_11 1_555 1_555
N1_19 C5_19 1_555 1_555
N2_19 C17_19 1_555 1_555
C1_19 C2_19 1_555 1_555
C2_19 C3_19 1_555 1_555
C3_19 H1_19 1_555 1_555
C4_19 C3_19 1_555 1_555
C5_19 C4_19 1_555 1_555
C6_19 C5_19 1_555 1_555
H2_19 C6_19 1_555 1_555
C7_19 C2_19 1_555 1_555
H3_19 C7_19 1_555 1_555
C8_19 C9_19 1_555 1_555
C9_19 H4_19 1_555 1_555
C10_19 C4_19 1_555 1_555
C11_19 N1_19 1_555 1_555
C12_19 C11_19 1_555 1_555
H5_19 C12_19 1_555 1_555
C13_19 C8_19 1_555 1_555
H6_19 C13_19 1_555 1_555
C14_19 C15_19 1_555 1_555
C15_19 H7_19 1_555 1_555
C16_19 C15_19 1_555 1_555
C17_19 C16_19 1_555 1_555
C18_19 C17_19 1_555 1_555
H8_19 C18_19 1_555 1_555
C19_19 C14_19 1_555 1_555
H9_19 C19_19 1_555 1_555
C20_19 C21_19 1_555 1_555
C21_19 C22_19 1_555 1_555
C22_19 H10_19 1_555 1_555
C23_19 C22_19 1_555 1_555
H11_19 C23_19 1_555 1_555
C24_19 N2_19 1_555 1_555
C25_19 C16_19 1_555 1_555
C26_19 C21_19 1_555 1_555
H12_19 C26_19 1_555 1_555
C27_19 C8_19 1_555 1_555
C28_19 C14_19 1_555 1_555
C29_19 C30_19 1_555 1_555
C30_19 H13_19 1_555 1_555
C31_19 C30_19 1_555 1_555
H14_19 C31_19 1_555 1_555
C32_19 N2_19 1_555 1_555
C33_19 C32_19 1_555 1_555
H15_19 C33_19 1_555 1_555
C34_19 C29_19 1_555 1_555
H16_19 C34_19 1_555 1_555
C35_19 N1_19 1_555 1_555
C36_19 C35_19 1_555 1_555
H17_19 C36_19 1_555 1_555
C37_19 C36_19 1_555 1_555
H18_19 C37_19 1_555 1_555
C38_19 C29_19 1_555 1_555
C39_19 C38_19 1_555 1_555
H19_19 C39_19 1_555 1_555
C40_19 C35_19 1_555 1_555
H20_19 C40_19 1_555 1_555
Cu5_9 O3_10 1_555 1_555
Cu8_9 O4_10 1_555 1_555
O11_10 Cu5_11 1_555 1_555
O12_10 Cu8_11 1_555 1_555
O13_15 Cu5_11 1_555 1_555
O14_15 Cu8_11 1_555 1_555
C6_19 C7_19 1_555 1_555
C9_19 C10_19 1_555 1_555
C10_19 C11_19 1_555 1_555
C12_19 C13_19 1_555 1_555
C18_19 C19_19 1_555 1_555
C23_19 C24_19 1_555 1_555
C24_19 C25_19 1_555 1_555
C25_19 C26_19 1_555 1_555
C31_19 C32_19 1_555 1_555
C33_19 C34_19 1_555 1_555
C37_19 C38_19 1_555 1_555
C39_19 C40_19 1_555 1_555
O9_19 H21_19 1_555 1_555
O9_19 H22_19 1_555 1_555
O10_19 H23_19 1_555 1_555
O10_19 H24_19 1_555 1_555
O1_20 C20_20 1_555 1_555
O2_20 C20_20 1_555 1_555
O11_10 C27_20 1_555 1_555
O12_10 C27_20 1_555 1_555
O13_11 C1_20 1_555 1_555
O14_11 C1_20 1_555 1_555
O15_2 C28_20 1_555 1_555
O16_2 C28_20 1_555 1_555
N1_20 C5_20 1_555 1_555
N2_20 C17_20 1_555 1_555
C1_20 C2_20 1_555 1_555
C2_20 C3_20 1_555 1_555
C3_20 H1_20 1_555 1_555
C4_20 C3_20 1_555 1_555
C5_20 C4_20 1_555 1_555
C6_20 C5_20 1_555 1_555
H2_20 C6_20 1_555 1_555
C7_20 C2_20 1_555 1_555
H3_20 C7_20 1_555 1_555
C8_20 C9_20 1_555 1_555
C9_20 H4_20 1_555 1_555
C10_20 C4_20 1_555 1_555
C11_20 N1_20 1_555 1_555
C12_20 C11_20 1_555 1_555
H5_20 C12_20 1_555 1_555
C13_20 C8_20 1_555 1_555
H6_20 C13_20 1_555 1_555
C14_20 C15_20 1_555 1_555
C15_20 H7_20 1_555 1_555
C16_20 C15_20 1_555 1_555
C17_20 C16_20 1_555 1_555
C18_20 C17_20 1_555 1_555
H8_20 C18_20 1_555 1_555
C19_20 C14_20 1_555 1_555
H9_20 C19_20 1_555 1_555
C20_20 C21_20 1_555 1_555
C21_20 C22_20 1_555 1_555
C22_20 H10_20 1_555 1_555
C23_20 C22_20 1_555 1_555
H11_20 C23_20 1_555 1_555
C24_20 N2_20 1_555 1_555
C25_20 C16_20 1_555 1_555
C26_20 C21_20 1_555 1_555
H12_20 C26_20 1_555 1_555
C27_20 C8_20 1_555 1_555
C28_20 C14_20 1_555 1_555
C29_20 C30_20 1_555 1_555
C30_20 H13_20 1_555 1_555
C31_20 C30_20 1_555 1_555
H14_20 C31_20 1_555 1_555
C32_20 N2_20 1_555 1_555
C33_20 C32_20 1_555 1_555
H15_20 C33_20 1_555 1_555
C34_20 C29_20 1_555 1_555
H16_20 C34_20 1_555 1_555
C35_20 N1_20 1_555 1_555
C36_20 C35_20 1_555 1_555
H17_20 C36_20 1_555 1_555
C37_20 C36_20 1_555 1_555
H18_20 C37_20 1_555 1_555
C38_20 C29_20 1_555 1_555
C39_20 C38_20 1_555 1_555
H19_20 C39_20 1_555 1_555
C40_20 C35_20 1_555 1_555
H20_20 C40_20 1_555 1_555
C6_20 C7_20 1_555 1_555
C9_20 C10_20 1_555 1_555
C10_20 C11_20 1_555 1_555
C12_20 C13_20 1_555 1_555
C18_20 C19_20 1_555 1_555
C23_20 C24_20 1_555 1_555
C24_20 C25_20 1_555 1_555
C25_20 C26_20 1_555 1_555
C31_20 C32_20 1_555 1_555
C33_20 C34_20 1_555 1_555
C37_20 C38_20 1_555 1_555
C39_20 C40_20 1_555 1_555
O9_20 Cu8_9 1_555 1_555
O10_20 Cu5_9 1_555 1_555
O13_16 Cu5_9 1_555 1_555
O14_16 Cu8_9 1_555 1_555
O9_20 H21_20 1_555 1_555
O9_20 H22_20 1_555 1_555
O10_20 H23_20 1_555 1_555
O10_20 H24_20 1_555 1_555
O9_21 Cu8_2 1_555 1_555
O10_21 Cu5_2 1_555 1_555
O11_11 Cu5_2 1_555 1_555
O12_11 Cu8_2 1_555 1_555
O9_21 H21_21 1_555 1_555
O9_21 H22_21 1_555 1_555
O10_21 H23_21 1_555 1_555
O10_21 H24_21 1_555 1_555
O1_21 C20_21 1_555 1_555
O2_21 C20_21 1_555 1_555
O13_13 C1_21 1_555 1_555
O14_13 C1_21 1_555 1_555
O15_8 C28_21 1_555 1_555
O16_8 C28_21 1_555 1_555
N1_21 C5_21 1_555 1_555
N2_21 C17_21 1_555 1_555
C1_21 C2_21 1_555 1_555
C2_21 C3_21 1_555 1_555
C3_21 H1_21 1_555 1_555
C4_21 C3_21 1_555 1_555
C5_21 C4_21 1_555 1_555
C6_21 C5_21 1_555 1_555
H2_21 C6_21 1_555 1_555
C7_21 C2_21 1_555 1_555
H3_21 C7_21 1_555 1_555
C10_21 C4_21 1_555 1_555
C14_21 C15_21 1_555 1_555
C15_21 H7_21 1_555 1_555
C16_21 C15_21 1_555 1_555
C17_21 C16_21 1_555 1_555
C18_21 C17_21 1_555 1_555
H8_21 C18_21 1_555 1_555
C19_21 C14_21 1_555 1_555
H9_21 C19_21 1_555 1_555
C20_21 C21_21 1_555 1_555
C21_21 C22_21 1_555 1_555
C22_21 H10_21 1_555 1_555
C23_21 C22_21 1_555 1_555
H11_21 C23_21 1_555 1_555
C24_21 N2_21 1_555 1_555
C25_21 C16_21 1_555 1_555
C26_21 C21_21 1_555 1_555
H12_21 C26_21 1_555 1_555
C28_21 C14_21 1_555 1_555
C32_21 N2_21 1_555 1_555
C33_21 C32_21 1_555 1_555
H15_21 C33_21 1_555 1_555
C34_21 C29_21 1_555 1_555
H16_21 C34_21 1_555 1_555
C35_21 N1_21 1_555 1_555
C36_21 C35_21 1_555 1_555
H17_21 C36_21 1_555 1_555
C37_21 C36_21 1_555 1_555
H18_21 C37_21 1_555 1_555
C38_21 C29_21 1_555 1_555
C6_21 C7_21 1_555 1_555
C18_21 C19_21 1_555 1_555
C23_21 C24_21 1_555 1_555
C24_21 C25_21 1_555 1_555
C25_21 C26_21 1_555 1_555
C33_21 C34_21 1_555 1_555
C37_21 C38_21 1_555 1_555
O3_11 C27_21 1_555 1_555
O4_11 C27_21 1_555 1_555
C8_21 C9_21 1_555 1_555
C9_21 H4_21 1_555 1_555
C12_21 C11_21 1_555 1_555
H5_21 C12_21 1_555 1_555
C13_21 C8_21 1_555 1_555
H6_21 C13_21 1_555 1_555
C27_21 C8_21 1_555 1_555
C30_21 H13_21 1_555 1_555
C31_21 C30_21 1_555 1_555
H14_21 C31_21 1_555 1_555
H19_21 C39_21 1_555 1_555
H20_21 C40_21 1_555 1_555
Cu5_4 O3_11 1_555 1_555
Cu8_4 O4_11 1_555 1_555
C12_21 C13_21 1_555 1_555
C39_21 C40_21 1_555 1_555
O11_11 C27_22 1_555 1_555
O12_11 C27_22 1_555 1_555
C8_22 C9_22 1_555 1_555
C9_22 H4_22 1_555 1_555
C12_22 C11_22 1_555 1_555
H5_22 C12_22 1_555 1_555
C13_22 C8_22 1_555 1_555
H6_22 C13_22 1_555 1_555
C27_22 C8_22 1_555 1_555
C30_22 H13_22 1_555 1_555
C31_22 C30_22 1_555 1_555
H14_22 C31_22 1_555 1_555
H19_22 C39_22 1_555 1_555
H20_22 C40_22 1_555 1_555
C12_22 C13_22 1_555 1_555
C39_22 C40_22 1_555 1_555
Cu5_4 O1_22 1_555 1_555
Cu8_4 O2_22 1_555 1_555
O1_22 C20_22 1_555 1_555
O2_22 C20_22 1_555 1_555
O13_16 C1_22 1_555 1_555
O14_16 C1_22 1_555 1_555
O15_5 C28_22 1_555 1_555
O16_5 C28_22 1_555 1_555
O9_22 Cu8_4 1_555 1_555
O10_22 Cu5_4 1_555 1_555
N1_22 C5_22 1_555 1_555
N2_22 C17_22 1_555 1_555
C1_22 C2_22 1_555 1_555
C2_22 C3_22 1_555 1_555
C3_22 H1_22 1_555 1_555
C4_22 C3_22 1_555 1_555
C5_22 C4_22 1_555 1_555
C6_22 C5_22 1_555 1_555
H2_22 C6_22 1_555 1_555
C7_22 C2_22 1_555 1_555
H3_22 C7_22 1_555 1_555
C10_22 C4_22 1_555 1_555
C14_22 C15_22 1_555 1_555
C15_22 H7_22 1_555 1_555
C16_22 C15_22 1_555 1_555
C17_22 C16_22 1_555 1_555
C18_22 C17_22 1_555 1_555
H8_22 C18_22 1_555 1_555
C19_22 C14_22 1_555 1_555
H9_22 C19_22 1_555 1_555
C20_22 C21_22 1_555 1_555
C21_22 C22_22 1_555 1_555
C22_22 H10_22 1_555 1_555
C23_22 C22_22 1_555 1_555
H11_22 C23_22 1_555 1_555
C24_22 N2_22 1_555 1_555
C25_22 C16_22 1_555 1_555
C26_22 C21_22 1_555 1_555
H12_22 C26_22 1_555 1_555
C28_22 C14_22 1_555 1_555
C32_22 N2_22 1_555 1_555
C33_22 C32_22 1_555 1_555
H15_22 C33_22 1_555 1_555
C34_22 C29_22 1_555 1_555
H16_22 C34_22 1_555 1_555
C35_22 N1_22 1_555 1_555
C36_22 C35_22 1_555 1_555
H17_22 C36_22 1_555 1_555
C37_22 C36_22 1_555 1_555
H18_22 C37_22 1_555 1_555
C38_22 C29_22 1_555 1_555
C6_22 C7_22 1_555 1_555
C18_22 C19_22 1_555 1_555
C23_22 C24_22 1_555 1_555
C24_22 C25_22 1_555 1_555
C25_22 C26_22 1_555 1_555
C33_22 C34_22 1_555 1_555
C37_22 C38_22 1_555 1_555
O9_22 H21_22 1_555 1_555
O9_22 H22_22 1_555 1_555
O10_22 H23_22 1_555 1_555
O10_22 H24_22 1_555 1_555
Cu5_3 O1_23 1_555 1_555
Cu8_3 O2_23 1_555 1_555
O1_23 C20_23 1_555 1_555
O2_23 C20_23 1_555 1_555
O3_12 C27_23 1_555 1_555
O4_12 C27_23 1_555 1_555
O13_14 C1_23 1_555 1_555
O14_14 C1_23 1_555 1_555
O15_7 C28_23 1_555 1_555
O16_7 C28_23 1_555 1_555
O9_23 Cu8_3 1_555 1_555
O10_23 Cu5_3 1_555 1_555
N1_23 C5_23 1_555 1_555
N2_23 C17_23 1_555 1_555
C1_23 C2_23 1_555 1_555
C2_23 C3_23 1_555 1_555
C3_23 H1_23 1_555 1_555
C4_23 C3_23 1_555 1_555
C5_23 C4_23 1_555 1_555
C6_23 C5_23 1_555 1_555
H2_23 C6_23 1_555 1_555
C7_23 C2_23 1_555 1_555
H3_23 C7_23 1_555 1_555
C8_23 C9_23 1_555 1_555
C9_23 H4_23 1_555 1_555
C10_23 C4_23 1_555 1_555
C11_23 N1_23 1_555 1_555
C12_23 C11_23 1_555 1_555
H5_23 C12_23 1_555 1_555
C13_23 C8_23 1_555 1_555
H6_23 C13_23 1_555 1_555
C14_23 C15_23 1_555 1_555
C15_23 H7_23 1_555 1_555
C16_23 C15_23 1_555 1_555
C17_23 C16_23 1_555 1_555
C18_23 C17_23 1_555 1_555
H8_23 C18_23 1_555 1_555
C19_23 C14_23 1_555 1_555
H9_23 C19_23 1_555 1_555
C20_23 C21_23 1_555 1_555
C21_23 C22_23 1_555 1_555
C22_23 H10_23 1_555 1_555
C23_23 C22_23 1_555 1_555
H11_23 C23_23 1_555 1_555
C24_23 N2_23 1_555 1_555
C25_23 C16_23 1_555 1_555
C26_23 C21_23 1_555 1_555
H12_23 C26_23 1_555 1_555
C27_23 C8_23 1_555 1_555
C28_23 C14_23 1_555 1_555
C29_23 C30_23 1_555 1_555
C30_23 H13_23 1_555 1_555
C31_23 C30_23 1_555 1_555
H14_23 C31_23 1_555 1_555
C32_23 N2_23 1_555 1_555
C33_23 C32_23 1_555 1_555
H15_23 C33_23 1_555 1_555
C34_23 C29_23 1_555 1_555
H16_23 C34_23 1_555 1_555
C35_23 N1_23 1_555 1_555
C36_23 C35_23 1_555 1_555
H17_23 C36_23 1_555 1_555
C37_23 C36_23 1_555 1_555
H18_23 C37_23 1_555 1_555
C38_23 C29_23 1_555 1_555
C39_23 C38_23 1_555 1_555
H19_23 C39_23 1_555 1_555
C40_23 C35_23 1_555 1_555
H20_23 C40_23 1_555 1_555
Cu5 O3_12 1_555 1_555
Cu8 O4_12 1_555 1_555
O11_12 Cu5_3 1_555 1_555
O12_12 Cu8_3 1_555 1_555
C6_23 C7_23 1_555 1_555
C9_23 C10_23 1_555 1_555
C10_23 C11_23 1_555 1_555
C12_23 C13_23 1_555 1_555
C18_23 C19_23 1_555 1_555
C23_23 C24_23 1_555 1_555
C24_23 C25_23 1_555 1_555
C25_23 C26_23 1_555 1_555
C31_23 C32_23 1_555 1_555
C33_23 C34_23 1_555 1_555
C37_23 C38_23 1_555 1_555
C39_23 C40_23 1_555 1_555
O9_23 H21_23 1_555 1_555
O9_23 H22_23 1_555 1_555
O10_23 H23_23 1_555 1_555
O10_23 H24_23 1_555 1_555
O1_24 C20_24 1_555 1_555
O2_24 C20_24 1_555 1_555
O11_12 C27_24 1_555 1_555
O12_12 C27_24 1_555 1_555
O13_15 C1_24 1_555 1_555
O14_15 C1_24 1_555 1_555
O15_6 C28_24 1_555 1_555
O16_6 C28_24 1_555 1_555
N1_24 C5_24 1_555 1_555
N2_24 C17_24 1_555 1_555
C1_24 C2_24 1_555 1_555
C2_24 C3_24 1_555 1_555
C3_24 H1_24 1_555 1_555
C4_24 C3_24 1_555 1_555
C5_24 C4_24 1_555 1_555
C6_24 C5_24 1_555 1_555
H2_24 C6_24 1_555 1_555
C7_24 C2_24 1_555 1_555
H3_24 C7_24 1_555 1_555
C8_24 C9_24 1_555 1_555
C9_24 H4_24 1_555 1_555
C10_24 C4_24 1_555 1_555
C11_24 N1_24 1_555 1_555
C12_24 C11_24 1_555 1_555
H5_24 C12_24 1_555 1_555
C13_24 C8_24 1_555 1_555
H6_24 C13_24 1_555 1_555
C14_24 C15_24 1_555 1_555
C15_24 H7_24 1_555 1_555
C16_24 C15_24 1_555 1_555
C17_24 C16_24 1_555 1_555
C18_24 C17_24 1_555 1_555
H8_24 C18_24 1_555 1_555
C19_24 C14_24 1_555 1_555
H9_24 C19_24 1_555 1_555
C20_24 C21_24 1_555 1_555
C21_24 C22_24 1_555 1_555
C22_24 H10_24 1_555 1_555
C23_24 C22_24 1_555 1_555
H11_24 C23_24 1_555 1_555
C24_24 N2_24 1_555 1_555
C25_24 C16_24 1_555 1_555
C26_24 C21_24 1_555 1_555
H12_24 C26_24 1_555 1_555
C27_24 C8_24 1_555 1_555
C28_24 C14_24 1_555 1_555
C29_24 C30_24 1_555 1_555
C30_24 H13_24 1_555 1_555
C31_24 C30_24 1_555 1_555
H14_24 C31_24 1_555 1_555
C32_24 N2_24 1_555 1_555
C33_24 C32_24 1_555 1_555
H15_24 C33_24 1_555 1_555
C34_24 C29_24 1_555 1_555
H16_24 C34_24 1_555 1_555
C35_24 N1_24 1_555 1_555
C36_24 C35_24 1_555 1_555
H17_24 C36_24 1_555 1_555
C37_24 C36_24 1_555 1_555
H18_24 C37_24 1_555 1_555
C38_24 C29_24 1_555 1_555
C39_24 C38_24 1_555 1_555
H19_24 C39_24 1_555 1_555
C40_24 C35_24 1_555 1_555
H20_24 C40_24 1_555 1_555
C6_24 C7_24 1_555 1_555
C9_24 C10_24 1_555 1_555
C10_24 C11_24 1_555 1_555
C12_24 C13_24 1_555 1_555
C18_24 C19_24 1_555 1_555
C23_24 C24_24 1_555 1_555
C24_24 C25_24 1_555 1_555
C25_24 C26_24 1_555 1_555
C31_24 C32_24 1_555 1_555
C33_24 C34_24 1_555 1_555
C37_24 C38_24 1_555 1_555
C39_24 C40_24 1_555 1_555
O9_24 Cu8 1_555 1_555
O10_24 Cu5 1_555 1_555
O9_24 H21_24 1_555 1_555
O9_24 H22_24 1_555 1_555
O10_24 H23_24 1_555 1_555
O10_24 H24_24 1_555 1_555

#END
