
###############################################################################
#
# This file contains modified crystal structure data generated from the
# MOF subset of the Cambridge Structural Database (CSD) v543 
# hosted by the Cambridge Crystallographic Data Centre (CCDC).
#
# This work is licensed under the Creative Commons
# Attribution-NonCommercial-ShareAlike 4.0 International License.
# To view a copy of this license, visit
# http://creativecommons.org/licenses/by-nc-sa/4.0/
# or send a letter to
# Creative Commons, PO Box 1866, Mountain View, CA 94042, USA.
#
# CIF created using the CSD Python API on 29 September 2022
# The structure has been converted into the P1 space group
# The structure has a 3D framework
# The original CSD entry PAJCUC04 is in the cubic crystal system
# The framework has been calculated to contain at least 10.0% void space
# The void calculation uses a probe of radius 1.32A, grid spacing 0.4
# H atom positions have been added when not included in the experimental data
#
###############################################################################

data_PAJCUC04
_chemical_formula_moiety         '(C960 H576 Cu48 N48 O240)n'
_symmetry_cell_setting           triclinic
_symmetry_space_group_name_H-M   'P 1'
_symmetry_Int_Tables_number      1
_space_group_name_Hall           'P 1'
loop_
_symmetry_equiv_pos_site_id
_symmetry_equiv_pos_as_xyz
1 x,y,z
_cell_length_a                   45.890(5)
_cell_length_b                   45.890(5)
_cell_length_c                   45.890(5)
_cell_angle_alpha                90
_cell_angle_beta                 90
_cell_angle_gamma                90
_cell_volume                     96639.4
loop_
_atom_site_label
_atom_site_type_symbol
_atom_site_fract_x
_atom_site_fract_y
_atom_site_fract_z
O3 O 0.14621(15) 0.01515(15) 0.43188(18)
O4 O 0.19454(17) 0.02732(18) 0.42378(19)
C8 C 0.16446(17) 0.0124(2) 0.38251(13)
C9 C 0.13715(14) 0.0049(2) 0.37176(16)
H4 H 0.120715 0.004921 0.384353
C12 C 0.18523(15) 0.0050(2) 0.33491(17)
H5 H 0.201658 0.004990 0.322315
C13 C 0.18850(13) 0.0124(2) 0.36408(18)
H6 H 0.207165 0.017556 0.371426
C27 C 0.1689(4) 0.0196(3) 0.4141(3)
H13 H 0.221752 0.010785 0.180863
H14 H 0.259759 0.005973 0.147212
C39 C 0.2061(3) 0.0082(3) 0.2404(3)
H19 H 0.218511 0.023866 0.234719
C40 C 0.1850(3) 0.0126(3) 0.2616(3)
H20 H 0.182876 0.031173 0.270452
Cu3 Cu 0.14904(3) 0.02125(3) 0.47292(3)
Cu6 Cu 0.20421(3) 0.02976(3) 0.46348(3)
O13 O 0.33896(15) 0.01992(16) 0.97737(16)
O14 O 0.29296(17) 0.01269(19) 0.96527(19)
O1 O 0.34119(16) 0.97181(16) 0.01397(16)
O2 O 0.29205(16) 0.96989(19) 0.00554(19)
O5 O 0.01992(16) 0.97737(16) 0.33896(15)
O6 O 0.01269(19) 0.96527(19) 0.29296(17)
O7 O 0.43701(16) 0.96720(16) 0.14459(15)
O8 O 0.43016(18) 0.96301(17) 0.19313(17)
N1 N 0.1493(2) 0.9911(3) 0.2966(2)
N2 N 0.3004(2) 0.9626(3) 0.1448(2)
C1 C 0.0289(3) 0.9735(3) 0.3141(3)
C2 C 0.06037(13) 0.9771(2) 0.30789(18)
C3 C 0.07875(17) 0.9861(2) 0.33021(14)
H1 H 0.071132 0.989536 0.349146
C4 C 0.10829(16) 0.9901(2) 0.32482(16)
C5 C 0.11945(14) 0.9851(3) 0.29711(19)
C6 C 0.10106(19) 0.9760(2) 0.27479(15)
H2 H 0.108683 0.972598 0.255853
C7 C 0.07152(17) 0.9720(2) 0.28018(16)
H3 H 0.058957 0.965882 0.264928
C10 C 0.13387(14) 0.9975(2) 0.34259(17)
C11 C 0.15792(18) 0.9975(3) 0.32416(14)
C14 C 0.38830(12) 0.9636(2) 0.16198(16)
C15 C 0.37691(15) 0.9647(2) 0.13394(13)
H7 H 0.389614 0.966100 0.117650
C16 C 0.34693(16) 0.9638(2) 0.12972(13)
C17 C 0.32834(12) 0.9618(2) 0.15355(17)
C18 C 0.33973(15) 0.9607(2) 0.18160(14)
H8 H 0.327029 0.959319 0.197884
C19 C 0.36971(16) 0.9616(2) 0.18581(12)
H9 H 0.377501 0.960848 0.204978
C20 C 0.3140(3) 0.9699(3) 0.0223(3)
C21 C 0.30944(16) 0.9683(2) 0.05454(12)
C22 C 0.28110(13) 0.9678(2) 0.06524(16)
H10 H 0.265084 0.968638 0.052154
C23 C 0.27621(12) 0.9662(2) 0.09509(17)
H11 H 0.256849 0.965912 0.102402
C24 C 0.29965(17) 0.9650(2) 0.11424(13)
C25 C 0.32799(14) 0.9655(2) 0.10353(15)
C26 C 0.33288(12) 0.9671(2) 0.07369(16)
H12 H 0.352244 0.967416 0.066372
C28 C 0.4208(3) 0.9645(3) 0.1666(3)
C29 C 0.2300(2) 0.9731(3) 0.2028(2)
C30 C 0.2343(2) 0.9943(2) 0.1817(2)
C31 C 0.2568(2) 0.9914(3) 0.1617(2)
C32 C 0.2751(2) 0.9673(3) 0.1628(2)
C33 C 0.2709(2) 0.9461(3) 0.1840(3)
H15 H 0.283366 0.929614 0.184793
C34 C 0.2483(2) 0.9489(3) 0.2040(2)
H16 H 0.245359 0.934426 0.218444
C35 C 0.1669(3) 0.9897(4) 0.2698(3)
C36 C 0.1700(3) 0.9625(3) 0.2568(3)
H17 H 0.157592 0.946927 0.262463
C37 C 0.1911(3) 0.9582(3) 0.2356(3)
H18 H 0.193228 0.939621 0.226730
C38 C 0.2092(3) 0.9811(4) 0.2274(3)
Cu5 Cu 0.47875(3) 0.97292(3) 0.14904(3)
Cu8 Cu 0.47024(3) 0.96348(3) 0.20421(3)
Cu1 Cu 0.35096(3) 0.97875(3) 0.97292(3)
Cu2 Cu 0.29579(3) 0.97024(3) 0.96348(3)
O9 O 0.25005(17) 0.9617(2) 0.9552(2)
O10 O 0.39582(15) 0.98697(19) 0.98121(19)
O11 O 0.35379(15) 0.98485(15) 0.93188(18)
O12 O 0.30546(17) 0.97268(18) 0.92378(19)
O15 O 0.35541(15) 0.93701(16) 0.96720(16)
O16 O 0.30687(17) 0.93016(18) 0.96301(17)
H21 H 0.23808 0.977522 0.963837
H22 H 0.246613 0.960889 0.933851
H23 H 0.404768 0.969543 0.9904
H24 H 0.405927 0.991286 0.96257
Cu4 Cu 0.97875(3) 0.97292(3) 0.35096(3)
Cu7 Cu 0.97024(3) 0.96348(3) 0.29579(3)
O1_2 O 0.15881(16) 0.02819(16) 0.51397(16)
O2_2 O 0.20795(16) 0.03011(19) 0.50554(19)
O5_2 O 0.48008(16) 0.02263(16) 0.83896(15)
O6_2 O 0.48731(19) 0.03473(19) 0.79296(17)
O7_2 O 0.06299(16) 0.03280(16) 0.64459(15)
O8_2 O 0.06984(18) 0.03699(17) 0.69313(17)
O9_2 O 0.24995(17) 0.0383(2) 0.4552(2)
O10_2 O 0.10418(15) 0.01303(19) 0.48121(19)
N1_2 N 0.3507(2) 0.0089(3) 0.7966(2)
N2_2 N 0.1996(2) 0.0374(3) 0.6448(2)
C1_2 C 0.4711(3) 0.0265(3) 0.8141(3)
C2_2 C 0.43963(13) 0.0229(2) 0.80789(18)
C3_2 C 0.42125(17) 0.0139(2) 0.83021(14)
H1_2 H 0.428868 0.010464 0.849146
C4_2 C 0.39171(16) 0.0099(2) 0.82482(16)
C5_2 C 0.38055(14) 0.0149(3) 0.79711(19)
C6_2 C 0.39894(19) 0.0240(2) 0.77479(15)
H2_2 H 0.391317 0.027402 0.755853
C7_2 C 0.42848(17) 0.0280(2) 0.78018(16)
H3_2 H 0.441043 0.034118 0.764928
C10_2 C 0.36613(14) 0.0025(2) 0.84259(17)
C11_2 C 0.34208(18) 0.0025(3) 0.82416(14)
C14_2 C 0.11170(12) 0.0364(2) 0.66198(16)
C15_2 C 0.12309(15) 0.0353(2) 0.63394(13)
H7_2 H 0.110386 0.033900 0.617650
C16_2 C 0.15307(16) 0.0362(2) 0.62972(13)
C17_2 C 0.17166(12) 0.0382(2) 0.65355(17)
C18_2 C 0.16027(15) 0.0393(2) 0.68160(14)
H8_2 H 0.172971 0.040681 0.697884
C19_2 C 0.13029(16) 0.0384(2) 0.68581(12)
H9_2 H 0.122499 0.039152 0.704978
C20_2 C 0.1860(3) 0.0301(3) 0.5223(3)
C21_2 C 0.19056(16) 0.0317(2) 0.55454(12)
C22_2 C 0.21890(13) 0.0322(2) 0.56524(16)
H10_2 H 0.234916 0.031362 0.552154
C23_2 C 0.22379(12) 0.0338(2) 0.59509(17)
H11_2 H 0.243151 0.034088 0.602402
C24_2 C 0.20035(17) 0.0350(2) 0.61424(13)
C25_2 C 0.17201(14) 0.0345(2) 0.60353(15)
C26_2 C 0.16712(12) 0.0329(2) 0.57369(16)
H12_2 H 0.147756 0.032584 0.566372
C28_2 C 0.0792(3) 0.0355(3) 0.6666(3)
C29_2 C 0.2700(2) 0.0269(3) 0.7028(2)
C30_2 C 0.2657(2) 0.0057(2) 0.6817(2)
C31_2 C 0.2432(2) 0.0086(3) 0.6617(2)
C32_2 C 0.2249(2) 0.0327(3) 0.6628(2)
C33_2 C 0.2291(2) 0.0539(3) 0.6840(3)
H15_2 H 0.216634 0.070386 0.684793
C34_2 C 0.2517(2) 0.0511(3) 0.7040(2)
H16_2 H 0.254641 0.065574 0.718444
C35_2 C 0.3331(3) 0.0103(4) 0.7698(3)
C36_2 C 0.3300(3) 0.0375(3) 0.7568(3)
H17_2 H 0.342408 0.053073 0.762463
C37_2 C 0.3089(3) 0.0418(3) 0.7356(3)
H18_2 H 0.306772 0.060379 0.726730
C38_2 C 0.2908(3) 0.0189(4) 0.7274(3)
Cu4_2 Cu 0.52125(3) 0.02708(3) 0.85096(3)
Cu5_2 Cu 0.02125(3) 0.02708(3) 0.64904(3)
Cu7_2 Cu 0.52976(3) 0.03652(3) 0.79579(3)
Cu8_2 Cu 0.02976(3) 0.03652(3) 0.70421(3)
O15_2 O 0.14459(15) 0.06299(16) 0.46720(16)
O16_2 O 0.19313(17) 0.06984(18) 0.46301(17)
H21_2 H 0.26192 0.0224779 0.463837
H22_2 H 0.253387 0.0391106 0.433851
H23_2 H 0.0952317 0.0304574 0.4904
H24_2 H 0.0940731 0.0087137 0.46257
C8_2 C 0.33554(17) 0.9876(2) 0.88251(13)
C9_2 C 0.36285(14) 0.9951(2) 0.87176(16)
H4_2 H 0.379285 0.995079 0.884353
C12_2 C 0.31477(15) 0.9950(2) 0.83491(17)
H5_2 H 0.298342 0.995010 0.822315
C13_2 C 0.31150(13) 0.9876(2) 0.86408(18)
H6_2 H 0.292835 0.982444 0.871426
C27_2 C 0.3311(4) 0.9804(3) 0.9141(3)
H13_2 H 0.278248 0.989215 0.680863
H14_2 H 0.240241 0.994027 0.647212
C39_2 C 0.2939(3) 0.9918(3) 0.7404(3)
H19_2 H 0.281489 0.976134 0.734719
C40_2 C 0.3150(3) 0.9874(3) 0.7616(3)
H20_2 H 0.317124 0.968827 0.770452
O13_2 O 0.16104(15) 0.98008(16) 0.47737(16)
O14_2 O 0.20704(17) 0.98731(19) 0.46527(19)
Cu4_3 Cu 0.02125(3) 0.47292(3) 0.14904(3)
Cu7_3 Cu 0.02976(3) 0.46348(3) 0.20421(3)
Cu1_2 Cu 0.64904(3) 0.47875(3) 0.52708(3)
Cu2_2 Cu 0.70421(3) 0.47024(3) 0.53652(3)
O1_3 O 0.65881(16) 0.47181(16) 0.48603(16)
O2_3 O 0.70795(16) 0.46989(19) 0.49446(19)
O3_2 O 0.85379(15) 0.51515(15) 0.06812(18)
O4_2 O 0.80546(17) 0.52732(18) 0.07622(19)
O5_3 O 0.98008(16) 0.47737(16) 0.16104(15)
O6_3 O 0.98731(19) 0.46527(19) 0.20704(17)
O7_3 O 0.56299(16) 0.46720(16) 0.35541(15)
O8_3 O 0.56984(18) 0.46301(17) 0.30687(17)
O9_3 O 0.74995(17) 0.4617(2) 0.5448(2)
O10_3 O 0.60418(15) 0.48697(19) 0.51879(19)
N1_3 N 0.8507(2) 0.4911(3) 0.2034(2)
N2_3 N 0.6996(2) 0.4626(3) 0.3552(2)
C1_3 C 0.9711(3) 0.4735(3) 0.1859(3)
C2_3 C 0.93963(13) 0.4771(2) 0.19211(18)
C3_3 C 0.92125(17) 0.4861(2) 0.16979(14)
H1_3 H 0.928868 0.489536 0.150854
C4_3 C 0.89171(16) 0.4901(2) 0.17518(16)
C5_3 C 0.88055(14) 0.4851(3) 0.20289(19)
C6_3 C 0.89894(19) 0.4760(2) 0.22521(15)
H2_3 H 0.891317 0.472598 0.244147
C7_3 C 0.92848(17) 0.4720(2) 0.21982(16)
H3_3 H 0.941043 0.465882 0.235072
C8_3 C 0.83554(17) 0.5124(2) 0.11749(13)
C9_3 C 0.86285(14) 0.5049(2) 0.12824(16)
H4_3 H 0.879285 0.504921 0.115647
C10_3 C 0.86613(14) 0.4975(2) 0.15741(17)
C11_3 C 0.84208(18) 0.4975(3) 0.17584(14)
C12_3 C 0.81477(15) 0.5050(2) 0.16509(17)
H5_3 H 0.798342 0.504990 0.177685
C13_3 C 0.81150(13) 0.5124(2) 0.13592(18)
H6_3 H 0.792835 0.517556 0.128574
C14_3 C 0.61170(12) 0.4636(2) 0.33802(16)
C15_3 C 0.62309(15) 0.4647(2) 0.36606(13)
H7_3 H 0.610386 0.466100 0.382350
C16_3 C 0.65307(16) 0.4638(2) 0.37028(13)
C17_3 C 0.67166(12) 0.4618(2) 0.34645(17)
C18_3 C 0.66027(15) 0.4607(2) 0.31840(14)
H8_3 H 0.672971 0.459319 0.302116
C19_3 C 0.63029(16) 0.4616(2) 0.31419(12)
H9_3 H 0.622499 0.460848 0.295022
C20_3 C 0.6860(3) 0.4699(3) 0.4777(3)
C21_3 C 0.69056(16) 0.4683(2) 0.44546(12)
C22_3 C 0.71890(13) 0.4678(2) 0.43476(16)
H10_3 H 0.734916 0.468638 0.447846
C23_3 C 0.72379(12) 0.4662(2) 0.40491(17)
H11_3 H 0.743151 0.465912 0.397598
C24_3 C 0.70035(17) 0.4650(2) 0.38576(13)
C25_3 C 0.67201(14) 0.4655(2) 0.39647(15)
C26_3 C 0.66712(12) 0.4671(2) 0.42631(16)
H12_3 H 0.647756 0.467416 0.433628
C27_3 C 0.8311(4) 0.5196(3) 0.0859(3)
C28_3 C 0.5792(3) 0.4645(3) 0.3334(3)
C29_3 C 0.7700(2) 0.4731(3) 0.2972(2)
C30_3 C 0.7657(2) 0.4943(2) 0.3183(2)
H13_3 H 0.778248 0.510785 0.319137
C31_3 C 0.7432(2) 0.4914(3) 0.3383(2)
H14_3 H 0.740241 0.505973 0.352788
C32_3 C 0.7249(2) 0.4673(3) 0.3372(2)
C33_3 C 0.7291(2) 0.4461(3) 0.3160(3)
H15_3 H 0.716634 0.429614 0.315207
C34_3 C 0.7517(2) 0.4489(3) 0.2960(2)
H16_3 H 0.754641 0.434426 0.281556
C35_3 C 0.8331(3) 0.4897(4) 0.2302(3)
C36_3 C 0.8300(3) 0.4625(3) 0.2432(3)
H17_3 H 0.842408 0.446927 0.237537
C37_3 C 0.8089(3) 0.4582(3) 0.2644(3)
H18_3 H 0.806772 0.439621 0.273270
C38_3 C 0.7908(3) 0.4811(4) 0.2726(3)
C39_3 C 0.7939(3) 0.5082(3) 0.2596(3)
H19_3 H 0.781489 0.523866 0.265281
C40_3 C 0.8150(3) 0.5126(3) 0.2384(3)
H20_3 H 0.817124 0.531173 0.229548
Cu3_2 Cu 0.85096(3) 0.52125(3) 0.02708(3)
Cu5_3 Cu 0.52125(3) 0.47292(3) 0.35096(3)
Cu6_2 Cu 0.79579(3) 0.52976(3) 0.03652(3)
Cu8_3 Cu 0.52976(3) 0.46348(3) 0.29579(3)
O11_2 O 0.64621(15) 0.48485(15) 0.56812(18)
O12_2 O 0.69454(17) 0.47268(18) 0.57622(19)
O13_3 O 0.66104(15) 0.51992(16) 0.52263(16)
O14_3 O 0.70704(17) 0.51269(19) 0.53473(19)
O15_3 O 0.64459(15) 0.43701(16) 0.53280(16)
O16_3 O 0.69313(17) 0.43016(18) 0.53699(17)
H21_3 H 0.76192 0.477522 0.536163
H22_3 H 0.753387 0.460889 0.566149
H23_3 H 0.595232 0.469543 0.5096
H24_3 H 0.594073 0.491286 0.53743
O9_4 O 0.75005(17) 0.5383(2) 0.0448(2)
O10_4 O 0.89582(15) 0.51303(19) 0.01879(19)
O13_4 O 0.83896(15) 0.48008(16) 0.02263(16)
O14_4 O 0.79296(17) 0.48731(19) 0.03473(19)
O15_4 O 0.85541(15) 0.56299(16) 0.03280(16)
O16_4 O 0.80687(17) 0.56984(18) 0.03699(17)
H21_4 H 0.73808 0.522478 0.0361628
H22_4 H 0.746613 0.539111 0.0661486
H23_4 H 0.904768 0.530457 0.0096004
H24_4 H 0.905927 0.508714 0.0374301
O1_4 O 0.84119(16) 0.52819(16) 0.98603(16)
O2_4 O 0.79205(16) 0.53011(19) 0.99446(19)
O5_4 O 0.51992(16) 0.52263(16) 0.66104(15)
O6_4 O 0.51269(19) 0.53473(19) 0.70704(17)
O7_4 O 0.93701(16) 0.53280(16) 0.85541(15)
O8_4 O 0.93016(18) 0.53699(17) 0.80687(17)
N1_4 N 0.6493(2) 0.5089(3) 0.7034(2)
N2_4 N 0.8004(2) 0.5374(3) 0.8552(2)
C1_4 C 0.5289(3) 0.5265(3) 0.6859(3)
C2_4 C 0.56037(13) 0.5229(2) 0.69211(18)
C3_4 C 0.57875(17) 0.5139(2) 0.66979(14)
H1_4 H 0.571132 0.510464 0.650854
C4_4 C 0.60829(16) 0.5099(2) 0.67518(16)
C5_4 C 0.61945(14) 0.5149(3) 0.70289(19)
C6_4 C 0.60106(19) 0.5240(2) 0.72521(15)
H2_4 H 0.608683 0.527402 0.744147
C7_4 C 0.57152(17) 0.5280(2) 0.71982(16)
H3_4 H 0.558957 0.534118 0.735072
C8_4 C 0.66446(17) 0.4876(2) 0.61749(13)
C9_4 C 0.63715(14) 0.4951(2) 0.62824(16)
H4_4 H 0.620715 0.495079 0.615647
C10_4 C 0.63387(14) 0.5025(2) 0.65741(17)
C11_4 C 0.65792(18) 0.5025(3) 0.67584(14)
C12_4 C 0.68523(15) 0.4950(2) 0.66509(17)
H5_4 H 0.701658 0.495010 0.677685
C13_4 C 0.68850(13) 0.4876(2) 0.63592(18)
H6_4 H 0.707165 0.482444 0.628574
C14_4 C 0.88830(12) 0.5364(2) 0.83802(16)
C15_4 C 0.87691(15) 0.5353(2) 0.86606(13)
H7_4 H 0.889614 0.533900 0.882350
C16_4 C 0.84693(16) 0.5362(2) 0.87028(13)
C17_4 C 0.82834(12) 0.5382(2) 0.84645(17)
C18_4 C 0.83973(15) 0.5393(2) 0.81840(14)
H8_4 H 0.827029 0.540681 0.802116
C19_4 C 0.86971(16) 0.5384(2) 0.81419(12)
H9_4 H 0.877501 0.539152 0.795022
C20_4 C 0.8140(3) 0.5301(3) 0.9777(3)
C21_4 C 0.80944(16) 0.5317(2) 0.94546(12)
C22_4 C 0.78110(13) 0.5322(2) 0.93476(16)
H10_4 H 0.765084 0.531362 0.947846
C23_4 C 0.77621(12) 0.5338(2) 0.90491(17)
H11_4 H 0.756849 0.534088 0.897598
C24_4 C 0.79965(17) 0.5350(2) 0.88576(13)
C25_4 C 0.82799(14) 0.5345(2) 0.89647(15)
C26_4 C 0.83288(12) 0.5329(2) 0.92631(16)
H12_4 H 0.852244 0.532584 0.933628
C27_4 C 0.6689(4) 0.4804(3) 0.5859(3)
C28_4 C 0.9208(3) 0.5355(3) 0.8334(3)
C29_4 C 0.7300(2) 0.5269(3) 0.7972(2)
C30_4 C 0.7343(2) 0.5057(2) 0.8183(2)
H13_4 H 0.721752 0.489215 0.819137
C31_4 C 0.7568(2) 0.5086(3) 0.8383(2)
H14_4 H 0.759759 0.494027 0.852788
C32_4 C 0.7751(2) 0.5327(3) 0.8372(2)
C33_4 C 0.7709(2) 0.5539(3) 0.8160(3)
H15_4 H 0.783366 0.570386 0.815207
C34_4 C 0.7483(2) 0.5511(3) 0.7960(2)
H16_4 H 0.745359 0.565574 0.781556
C35_4 C 0.6669(3) 0.5103(4) 0.7302(3)
C36_4 C 0.6700(3) 0.5375(3) 0.7432(3)
H17_4 H 0.657592 0.553073 0.737537
C37_4 C 0.6911(3) 0.5418(3) 0.7644(3)
H18_4 H 0.693228 0.560379 0.773270
C38_4 C 0.7092(3) 0.5189(4) 0.7726(3)
C39_4 C 0.7061(3) 0.4918(3) 0.7596(3)
H19_4 H 0.718511 0.476134 0.765281
C40_4 C 0.6850(3) 0.4874(3) 0.7384(3)
H20_4 H 0.682876 0.468827 0.729548
Cu4_4 Cu 0.47875(3) 0.52708(3) 0.64904(3)
Cu5_4 Cu 0.97875(3) 0.52708(3) 0.85096(3)
Cu7_4 Cu 0.47024(3) 0.53652(3) 0.70421(3)
Cu8_4 Cu 0.97024(3) 0.53652(3) 0.79579(3)
O3_3 O 0.43188(18) 0.14621(15) 0.01515(15)
O4_3 O 0.42378(19) 0.19454(17) 0.02732(18)
C8_5 C 0.38251(13) 0.16446(17) 0.0124(2)
C9_5 C 0.37176(16) 0.13715(14) 0.0049(2)
H4_5 H 0.384353 0.120715 0.004921
C12_5 C 0.33491(17) 0.18523(15) 0.0050(2)
H5_5 H 0.322315 0.201658 0.004990
C13_5 C 0.36408(18) 0.18850(13) 0.0124(2)
H6_5 H 0.371426 0.207165 0.017556
C27_5 C 0.4141(3) 0.1689(4) 0.0196(3)
H13_5 H 0.180863 0.221752 0.010785
H14_5 H 0.147212 0.259759 0.005973
C39_5 C 0.2404(3) 0.2061(3) 0.0082(3)
H19_5 H 0.234719 0.218511 0.023866
C40_5 C 0.2616(3) 0.1850(3) 0.0126(3)
H20_5 H 0.270452 0.182876 0.031173
Cu3_3 Cu 0.47292(3) 0.14904(3) 0.02125(3)
Cu6_3 Cu 0.46348(3) 0.20421(3) 0.02976(3)
O1_5 O 0.01397(16) 0.34119(16) 0.97181(16)
O2_5 O 0.00554(19) 0.29205(16) 0.96989(19)
O7_5 O 0.14459(15) 0.43701(16) 0.96720(16)
O8_5 O 0.19313(17) 0.43016(18) 0.96301(17)
N1_5 N 0.2966(2) 0.1493(2) 0.9911(3)
N2_5 N 0.1448(2) 0.3004(2) 0.9626(3)
C1_5 C 0.3141(3) 0.0289(3) 0.9735(3)
C2_5 C 0.30789(18) 0.06037(13) 0.9771(2)
C3_5 C 0.33021(14) 0.07875(17) 0.9861(2)
H1_5 H 0.349146 0.071132 0.989536
C4_5 C 0.32482(16) 0.10829(16) 0.9901(2)
C5_5 C 0.29711(19) 0.11945(14) 0.9851(3)
C6_5 C 0.27479(15) 0.10106(19) 0.9760(2)
H2_5 H 0.255853 0.108683 0.972598
C7_5 C 0.28018(16) 0.07152(17) 0.9720(2)
H3_5 H 0.264928 0.058957 0.965882
C10_5 C 0.34259(17) 0.13387(14) 0.9975(2)
C11_5 C 0.32416(14) 0.15792(18) 0.9975(3)
C14_5 C 0.16198(16) 0.38830(12) 0.9636(2)
C15_5 C 0.13394(13) 0.37691(15) 0.9647(2)
H7_5 H 0.117650 0.389614 0.966100
C16_5 C 0.12972(13) 0.34693(16) 0.9638(2)
C17_5 C 0.15355(17) 0.32834(12) 0.9618(2)
C18_5 C 0.18160(14) 0.33973(15) 0.9607(2)
H8_5 H 0.197884 0.327029 0.959319
C19_5 C 0.18581(12) 0.36971(16) 0.9616(2)
H9_5 H 0.204978 0.377501 0.960848
C20_5 C 0.0223(3) 0.3140(3) 0.9699(3)
C21_5 C 0.05454(12) 0.30944(16) 0.9683(2)
C22_5 C 0.06524(16) 0.28110(13) 0.9678(2)
H10_5 H 0.052154 0.265084 0.968638
C23_5 C 0.09509(17) 0.27621(12) 0.9662(2)
H11_5 H 0.102402 0.256849 0.965912
C24_5 C 0.11424(13) 0.29965(17) 0.9650(2)
C25_5 C 0.10353(15) 0.32799(14) 0.9655(2)
C26_5 C 0.07369(16) 0.33288(12) 0.9671(2)
H12_5 H 0.066372 0.352244 0.967416
C28_5 C 0.1666(3) 0.4208(3) 0.9645(3)
C29_5 C 0.2028(2) 0.2300(2) 0.9731(3)
C30_5 C 0.1817(2) 0.2343(2) 0.9943(2)
C31_5 C 0.1617(2) 0.2568(2) 0.9914(3)
C32_5 C 0.1628(2) 0.2751(2) 0.9673(3)
C33_5 C 0.1840(3) 0.2709(2) 0.9461(3)
H15_5 H 0.184793 0.283366 0.929614
C34_5 C 0.2040(2) 0.2483(2) 0.9489(3)
H16_5 H 0.218444 0.245359 0.934426
C35_5 C 0.2698(3) 0.1669(3) 0.9897(4)
C36_5 C 0.2568(3) 0.1700(3) 0.9625(3)
H17_5 H 0.262463 0.157592 0.946927
C37_5 C 0.2356(3) 0.1911(3) 0.9582(3)
H18_5 H 0.226730 0.193228 0.939621
C38_5 C 0.2274(3) 0.2092(3) 0.9811(4)
Cu5_5 Cu 0.14904(3) 0.47875(3) 0.97292(3)
Cu8_5 Cu 0.20421(3) 0.47024(3) 0.96348(3)
O13_5 O 0.97737(16) 0.33896(15) 0.01992(16)
O14_5 O 0.96527(19) 0.29296(17) 0.01269(19)
Cu1_3 Cu 0.97292(3) 0.35096(3) 0.97875(3)
Cu2_3 Cu 0.96348(3) 0.29579(3) 0.97024(3)
O9_5 O 0.9552(2) 0.25005(17) 0.9617(2)
O10_5 O 0.98121(19) 0.39582(15) 0.98697(19)
O11_3 O 0.93188(18) 0.35379(15) 0.98485(15)
O12_3 O 0.92378(19) 0.30546(17) 0.97268(18)
O15_5 O 0.96720(16) 0.35541(15) 0.93701(16)
O16_5 O 0.96301(17) 0.30687(17) 0.93016(18)
H21_5 H 0.963837 0.23808 0.977522
H22_5 H 0.933851 0.246613 0.960889
H23_5 H 0.9904 0.404768 0.969543
H24_5 H 0.96257 0.405927 0.991286
O1_6 O 0.51397(16) 0.15881(16) 0.02819(16)
O2_6 O 0.50554(19) 0.20795(16) 0.03011(19)
O7_6 O 0.64459(15) 0.06299(16) 0.03280(16)
O8_6 O 0.69313(17) 0.06984(18) 0.03699(17)
O9_6 O 0.4552(2) 0.24995(17) 0.0383(2)
O10_6 O 0.48121(19) 0.10418(15) 0.01303(19)
N1_6 N 0.7966(2) 0.3507(2) 0.0089(3)
N2_6 N 0.6448(2) 0.1996(2) 0.0374(3)
C1_6 C 0.8141(3) 0.4711(3) 0.0265(3)
C2_6 C 0.80789(18) 0.43963(13) 0.0229(2)
C3_6 C 0.83021(14) 0.42125(17) 0.0139(2)
H1_6 H 0.849146 0.428868 0.010464
C4_6 C 0.82482(16) 0.39171(16) 0.0099(2)
C5_6 C 0.79711(19) 0.38055(14) 0.0149(3)
C6_6 C 0.77479(15) 0.39894(19) 0.0240(2)
H2_6 H 0.755853 0.391317 0.027402
C7_6 C 0.78018(16) 0.42848(17) 0.0280(2)
H3_6 H 0.764928 0.441043 0.034118
C10_6 C 0.84259(17) 0.36613(14) 0.0025(2)
C11_6 C 0.82416(14) 0.34208(18) 0.0025(3)
C14_6 C 0.66198(16) 0.11170(12) 0.0364(2)
C15_6 C 0.63394(13) 0.12309(15) 0.0353(2)
H7_6 H 0.617650 0.110386 0.033900
C16_6 C 0.62972(13) 0.15307(16) 0.0362(2)
C17_6 C 0.65355(17) 0.17166(12) 0.0382(2)
C18_6 C 0.68160(14) 0.16027(15) 0.0393(2)
H8_6 H 0.697884 0.172971 0.040681
C19_6 C 0.68581(12) 0.13029(16) 0.0384(2)
H9_6 H 0.704978 0.122499 0.039152
C20_6 C 0.5223(3) 0.1860(3) 0.0301(3)
C21_6 C 0.55454(12) 0.19056(16) 0.0317(2)
C22_6 C 0.56524(16) 0.21890(13) 0.0322(2)
H10_6 H 0.552154 0.234916 0.031362
C23_6 C 0.59509(17) 0.22379(12) 0.0338(2)
H11_6 H 0.602402 0.243151 0.034088
C24_6 C 0.61424(13) 0.20035(17) 0.0350(2)
C25_6 C 0.60353(15) 0.17201(14) 0.0345(2)
C26_6 C 0.57369(16) 0.16712(12) 0.0329(2)
H12_6 H 0.566372 0.147756 0.032584
C28_6 C 0.6666(3) 0.0792(3) 0.0355(3)
C29_6 C 0.7028(2) 0.2700(2) 0.0269(3)
C30_6 C 0.6817(2) 0.2657(2) 0.0057(2)
C31_6 C 0.6617(2) 0.2432(2) 0.0086(3)
C32_6 C 0.6628(2) 0.2249(2) 0.0327(3)
C33_6 C 0.6840(3) 0.2291(2) 0.0539(3)
H15_6 H 0.684793 0.216634 0.070386
C34_6 C 0.7040(2) 0.2517(2) 0.0511(3)
H16_6 H 0.718444 0.254641 0.065574
C35_6 C 0.7698(3) 0.3331(3) 0.0103(4)
C36_6 C 0.7568(3) 0.3300(3) 0.0375(3)
H17_6 H 0.762463 0.342408 0.053073
C37_6 C 0.7356(3) 0.3089(3) 0.0418(3)
H18_6 H 0.726730 0.306772 0.060379
C38_6 C 0.7274(3) 0.2908(3) 0.0189(4)
Cu5_6 Cu 0.64904(3) 0.02125(3) 0.02708(3)
Cu8_6 Cu 0.70421(3) 0.02976(3) 0.03652(3)
O15_6 O 0.46720(16) 0.14459(15) 0.06299(16)
O16_6 O 0.46301(17) 0.19313(17) 0.06984(18)
H21_6 H 0.463837 0.26192 0.0224779
H22_6 H 0.433851 0.253387 0.0391106
H23_6 H 0.4904 0.0952317 0.0304574
H24_6 H 0.46257 0.0940731 0.0087137
C8_6 C 0.88251(13) 0.33554(17) 0.9876(2)
C9_6 C 0.87176(16) 0.36285(14) 0.9951(2)
H4_6 H 0.884353 0.379285 0.995079
C12_6 C 0.83491(17) 0.31477(15) 0.9950(2)
H5_6 H 0.822315 0.298342 0.995010
C13_6 C 0.86408(18) 0.31150(13) 0.9876(2)
H6_6 H 0.871426 0.292835 0.982444
C27_6 C 0.9141(3) 0.3311(4) 0.9804(3)
H13_6 H 0.680863 0.278248 0.989215
H14_6 H 0.647212 0.240241 0.994027
C39_6 C 0.7404(3) 0.2939(3) 0.9918(3)
H19_6 H 0.734719 0.281489 0.976134
C40_6 C 0.7616(3) 0.3150(3) 0.9874(3)
H20_6 H 0.770452 0.317124 0.968827
O13_6 O 0.47737(16) 0.16104(15) 0.98008(16)
O14_6 O 0.46527(19) 0.20704(17) 0.98731(19)
Cu1_4 Cu 0.52708(3) 0.64904(3) 0.47875(3)
Cu2_4 Cu 0.53652(3) 0.70421(3) 0.47024(3)
O1_7 O 0.48603(16) 0.65881(16) 0.47181(16)
O2_7 O 0.49446(19) 0.70795(16) 0.46989(19)
O3_4 O 0.06812(18) 0.85379(15) 0.51515(15)
O4_4 O 0.07622(19) 0.80546(17) 0.52732(18)
O7_7 O 0.35541(15) 0.56299(16) 0.46720(16)
O8_7 O 0.30687(17) 0.56984(18) 0.46301(17)
O9_7 O 0.5448(2) 0.74995(17) 0.4617(2)
O10_7 O 0.51879(19) 0.60418(15) 0.48697(19)
N1_7 N 0.2034(2) 0.8507(2) 0.4911(3)
N2_7 N 0.3552(2) 0.6996(2) 0.4626(3)
C1_7 C 0.1859(3) 0.9711(3) 0.4735(3)
C2_7 C 0.19211(18) 0.93963(13) 0.4771(2)
C3_7 C 0.16979(14) 0.92125(17) 0.4861(2)
H1_7 H 0.150854 0.928868 0.489536
C4_7 C 0.17518(16) 0.89171(16) 0.4901(2)
C5_7 C 0.20289(19) 0.88055(14) 0.4851(3)
C6_7 C 0.22521(15) 0.89894(19) 0.4760(2)
H2_7 H 0.244147 0.891317 0.472598
C7_7 C 0.21982(16) 0.92848(17) 0.4720(2)
H3_7 H 0.235072 0.941043 0.465882
C8_7 C 0.11749(13) 0.83554(17) 0.5124(2)
C9_7 C 0.12824(16) 0.86285(14) 0.5049(2)
H4_7 H 0.115647 0.879285 0.504921
C10_7 C 0.15741(17) 0.86613(14) 0.4975(2)
C11_7 C 0.17584(14) 0.84208(18) 0.4975(3)
C12_7 C 0.16509(17) 0.81477(15) 0.5050(2)
H5_7 H 0.177685 0.798342 0.504990
C13_7 C 0.13592(18) 0.81150(13) 0.5124(2)
H6_7 H 0.128574 0.792835 0.517556
C14_7 C 0.33802(16) 0.61170(12) 0.4636(2)
C15_7 C 0.36606(13) 0.62309(15) 0.4647(2)
H7_7 H 0.382350 0.610386 0.466100
C16_7 C 0.37028(13) 0.65307(16) 0.4638(2)
C17_7 C 0.34645(17) 0.67166(12) 0.4618(2)
C18_7 C 0.31840(14) 0.66027(15) 0.4607(2)
H8_7 H 0.302116 0.672971 0.459319
C19_7 C 0.31419(12) 0.63029(16) 0.4616(2)
H9_7 H 0.295022 0.622499 0.460848
C20_7 C 0.4777(3) 0.6860(3) 0.4699(3)
C21_7 C 0.44546(12) 0.69056(16) 0.4683(2)
C22_7 C 0.43476(16) 0.71890(13) 0.4678(2)
H10_7 H 0.447846 0.734916 0.468638
C23_7 C 0.40491(17) 0.72379(12) 0.4662(2)
H11_7 H 0.397598 0.743151 0.465912
C24_7 C 0.38576(13) 0.70035(17) 0.4650(2)
C25_7 C 0.39647(15) 0.67201(14) 0.4655(2)
C26_7 C 0.42631(16) 0.66712(12) 0.4671(2)
H12_7 H 0.433628 0.647756 0.467416
C27_7 C 0.0859(3) 0.8311(4) 0.5196(3)
C28_7 C 0.3334(3) 0.5792(3) 0.4645(3)
C29_7 C 0.2972(2) 0.7700(2) 0.4731(3)
C30_7 C 0.3183(2) 0.7657(2) 0.4943(2)
H13_7 H 0.319137 0.778248 0.510785
C31_7 C 0.3383(2) 0.7432(2) 0.4914(3)
H14_7 H 0.352788 0.740241 0.505973
C32_7 C 0.3372(2) 0.7249(2) 0.4673(3)
C33_7 C 0.3160(3) 0.7291(2) 0.4461(3)
H15_7 H 0.315207 0.716634 0.429614
C34_7 C 0.2960(2) 0.7517(2) 0.4489(3)
H16_7 H 0.281556 0.754641 0.434426
C35_7 C 0.2302(3) 0.8331(3) 0.4897(4)
C36_7 C 0.2432(3) 0.8300(3) 0.4625(3)
H17_7 H 0.237537 0.842408 0.446927
C37_7 C 0.2644(3) 0.8089(3) 0.4582(3)
H18_7 H 0.273270 0.806772 0.439621
C38_7 C 0.2726(3) 0.7908(3) 0.4811(4)
C39_7 C 0.2596(3) 0.7939(3) 0.5082(3)
H19_7 H 0.265281 0.781489 0.523866
C40_7 C 0.2384(3) 0.8150(3) 0.5126(3)
H20_7 H 0.229548 0.817124 0.531173
Cu3_4 Cu 0.02708(3) 0.85096(3) 0.52125(3)
Cu5_7 Cu 0.35096(3) 0.52125(3) 0.47292(3)
Cu6_4 Cu 0.03652(3) 0.79579(3) 0.52976(3)
Cu8_7 Cu 0.29579(3) 0.52976(3) 0.46348(3)
O11_4 O 0.56812(18) 0.64621(15) 0.48485(15)
O12_4 O 0.57622(19) 0.69454(17) 0.47268(18)
O13_7 O 0.52263(16) 0.66104(15) 0.51992(16)
O14_7 O 0.53473(19) 0.70704(17) 0.51269(19)
O15_7 O 0.53280(16) 0.64459(15) 0.43701(16)
O16_7 O 0.53699(17) 0.69313(17) 0.43016(18)
H21_7 H 0.536163 0.76192 0.477522
H22_7 H 0.566149 0.753387 0.460889
H23_7 H 0.5096 0.595232 0.469543
H24_7 H 0.53743 0.594073 0.491286
O9_8 O 0.0448(2) 0.75005(17) 0.5383(2)
O10_8 O 0.01879(19) 0.89582(15) 0.51303(19)
O13_8 O 0.02263(16) 0.83896(15) 0.48008(16)
O14_8 O 0.03473(19) 0.79296(17) 0.48731(19)
O15_8 O 0.03280(16) 0.85541(15) 0.56299(16)
O16_8 O 0.03699(17) 0.80687(17) 0.56984(18)
H21_8 H 0.0361628 0.73808 0.522478
H22_8 H 0.0661486 0.746613 0.539111
H23_8 H 0.0096004 0.904768 0.530457
H24_8 H 0.0374301 0.905927 0.508714
O1_8 O 0.98603(16) 0.84119(16) 0.52819(16)
O2_8 O 0.99446(19) 0.79205(16) 0.53011(19)
O7_8 O 0.85541(15) 0.93701(16) 0.53280(16)
O8_8 O 0.80687(17) 0.93016(18) 0.53699(17)
N1_8 N 0.7034(2) 0.6493(2) 0.5089(3)
N2_8 N 0.8552(2) 0.8004(2) 0.5374(3)
C1_8 C 0.6859(3) 0.5289(3) 0.5265(3)
C2_8 C 0.69211(18) 0.56037(13) 0.5229(2)
C3_8 C 0.66979(14) 0.57875(17) 0.5139(2)
H1_8 H 0.650854 0.571132 0.510464
C4_8 C 0.67518(16) 0.60829(16) 0.5099(2)
C5_8 C 0.70289(19) 0.61945(14) 0.5149(3)
C6_8 C 0.72521(15) 0.60106(19) 0.5240(2)
H2_8 H 0.744147 0.608683 0.527402
C7_8 C 0.71982(16) 0.57152(17) 0.5280(2)
H3_8 H 0.735072 0.558957 0.534118
C8_8 C 0.61749(13) 0.66446(17) 0.4876(2)
C9_8 C 0.62824(16) 0.63715(14) 0.4951(2)
H4_8 H 0.615647 0.620715 0.495079
C10_8 C 0.65741(17) 0.63387(14) 0.5025(2)
C11_8 C 0.67584(14) 0.65792(18) 0.5025(3)
C12_8 C 0.66509(17) 0.68523(15) 0.4950(2)
H5_8 H 0.677685 0.701658 0.495010
C13_8 C 0.63592(18) 0.68850(13) 0.4876(2)
H6_8 H 0.628574 0.707165 0.482444
C14_8 C 0.83802(16) 0.88830(12) 0.5364(2)
C15_8 C 0.86606(13) 0.87691(15) 0.5353(2)
H7_8 H 0.882350 0.889614 0.533900
C16_8 C 0.87028(13) 0.84693(16) 0.5362(2)
C17_8 C 0.84645(17) 0.82834(12) 0.5382(2)
C18_8 C 0.81840(14) 0.83973(15) 0.5393(2)
H8_8 H 0.802116 0.827029 0.540681
C19_8 C 0.81419(12) 0.86971(16) 0.5384(2)
H9_8 H 0.795022 0.877501 0.539152
C20_8 C 0.9777(3) 0.8140(3) 0.5301(3)
C21_8 C 0.94546(12) 0.80944(16) 0.5317(2)
C22_8 C 0.93476(16) 0.78110(13) 0.5322(2)
H10_8 H 0.947846 0.765084 0.531362
C23_8 C 0.90491(17) 0.77621(12) 0.5338(2)
H11_8 H 0.897598 0.756849 0.534088
C24_8 C 0.88576(13) 0.79965(17) 0.5350(2)
C25_8 C 0.89647(15) 0.82799(14) 0.5345(2)
C26_8 C 0.92631(16) 0.83288(12) 0.5329(2)
H12_8 H 0.933628 0.852244 0.532584
C27_8 C 0.5859(3) 0.6689(4) 0.4804(3)
C28_8 C 0.8334(3) 0.9208(3) 0.5355(3)
C29_8 C 0.7972(2) 0.7300(2) 0.5269(3)
C30_8 C 0.8183(2) 0.7343(2) 0.5057(2)
H13_8 H 0.819137 0.721752 0.489215
C31_8 C 0.8383(2) 0.7568(2) 0.5086(3)
H14_8 H 0.852788 0.759759 0.494027
C32_8 C 0.8372(2) 0.7751(2) 0.5327(3)
C33_8 C 0.8160(3) 0.7709(2) 0.5539(3)
H15_8 H 0.815207 0.783366 0.570386
C34_8 C 0.7960(2) 0.7483(2) 0.5511(3)
H16_8 H 0.781556 0.745359 0.565574
C35_8 C 0.7302(3) 0.6669(3) 0.5103(4)
C36_8 C 0.7432(3) 0.6700(3) 0.5375(3)
H17_8 H 0.737537 0.657592 0.553073
C37_8 C 0.7644(3) 0.6911(3) 0.5418(3)
H18_8 H 0.773270 0.693228 0.560379
C38_8 C 0.7726(3) 0.7092(3) 0.5189(4)
C39_8 C 0.7596(3) 0.7061(3) 0.4918(3)
H19_8 H 0.765281 0.718511 0.476134
C40_8 C 0.7384(3) 0.6850(3) 0.4874(3)
H20_8 H 0.729548 0.682876 0.468827
Cu5_8 Cu 0.85096(3) 0.97875(3) 0.52708(3)
Cu8_8 Cu 0.79579(3) 0.97024(3) 0.53652(3)
O3_5 O 0.01515(15) 0.43188(18) 0.14621(15)
O4_5 O 0.02732(18) 0.42378(19) 0.19454(17)
C8_9 C 0.0124(2) 0.38251(13) 0.16446(17)
C9_9 C 0.0049(2) 0.37176(16) 0.13715(14)
H4_9 H 0.004921 0.384353 0.120715
C12_9 C 0.0050(2) 0.33491(17) 0.18523(15)
H5_9 H 0.004990 0.322315 0.201658
C13_9 C 0.0124(2) 0.36408(18) 0.18850(13)
H6_9 H 0.017556 0.371426 0.207165
C27_9 C 0.0196(3) 0.4141(3) 0.1689(4)
H13_9 H 0.010785 0.180863 0.221752
H14_9 H 0.005973 0.147212 0.259759
C39_9 C 0.0082(3) 0.2404(3) 0.2061(3)
H19_9 H 0.023866 0.234719 0.218511
C40_9 C 0.0126(3) 0.2616(3) 0.1850(3)
H20_9 H 0.031173 0.270452 0.182876
O1_9 O 0.97181(16) 0.01397(16) 0.34119(16)
O2_9 O 0.96989(19) 0.00554(19) 0.29205(16)
O7_9 O 0.96720(16) 0.14459(15) 0.43701(16)
O8_9 O 0.96301(17) 0.19313(17) 0.43016(18)
N1_9 N 0.9911(3) 0.2966(2) 0.1493(2)
N2_9 N 0.9626(3) 0.1448(2) 0.3004(2)
C1_9 C 0.9735(3) 0.3141(3) 0.0289(3)
C2_9 C 0.9771(2) 0.30789(18) 0.06037(13)
C3_9 C 0.9861(2) 0.33021(14) 0.07875(17)
H1_9 H 0.989536 0.349146 0.071132
C4_9 C 0.9901(2) 0.32482(16) 0.10829(16)
C5_9 C 0.9851(3) 0.29711(19) 0.11945(14)
C6_9 C 0.9760(2) 0.27479(15) 0.10106(19)
H2_9 H 0.972598 0.255853 0.108683
C7_9 C 0.9720(2) 0.28018(16) 0.07152(17)
H3_9 H 0.965882 0.264928 0.058957
C10_9 C 0.9975(2) 0.34259(17) 0.13387(14)
C11_9 C 0.9975(3) 0.32416(14) 0.15792(18)
C14_9 C 0.9636(2) 0.16198(16) 0.38830(12)
C15_9 C 0.9647(2) 0.13394(13) 0.37691(15)
H7_9 H 0.966100 0.117650 0.389614
C16_9 C 0.9638(2) 0.12972(13) 0.34693(16)
C17_9 C 0.9618(2) 0.15355(17) 0.32834(12)
C18_9 C 0.9607(2) 0.18160(14) 0.33973(15)
H8_9 H 0.959319 0.197884 0.327029
C19_9 C 0.9616(2) 0.18581(12) 0.36971(16)
H9_9 H 0.960848 0.204978 0.377501
C20_9 C 0.9699(3) 0.0223(3) 0.3140(3)
C21_9 C 0.9683(2) 0.05454(12) 0.30944(16)
C22_9 C 0.9678(2) 0.06524(16) 0.28110(13)
H10_9 H 0.968638 0.052154 0.265084
C23_9 C 0.9662(2) 0.09509(17) 0.27621(12)
H11_9 H 0.965912 0.102402 0.256849
C24_9 C 0.9650(2) 0.11424(13) 0.29965(17)
C25_9 C 0.9655(2) 0.10353(15) 0.32799(14)
C26_9 C 0.9671(2) 0.07369(16) 0.33288(12)
H12_9 H 0.967416 0.066372 0.352244
C28_9 C 0.9645(3) 0.1666(3) 0.4208(3)
C29_9 C 0.9731(3) 0.2028(2) 0.2300(2)
C30_9 C 0.9943(2) 0.1817(2) 0.2343(2)
C31_9 C 0.9914(3) 0.1617(2) 0.2568(2)
C32_9 C 0.9673(3) 0.1628(2) 0.2751(2)
C33_9 C 0.9461(3) 0.1840(3) 0.2709(2)
H15_9 H 0.929614 0.184793 0.283366
C34_9 C 0.9489(3) 0.2040(2) 0.2483(2)
H16_9 H 0.934426 0.218444 0.245359
C35_9 C 0.9897(4) 0.2698(3) 0.1669(3)
C36_9 C 0.9625(3) 0.2568(3) 0.1700(3)
H17_9 H 0.946927 0.262463 0.157592
C37_9 C 0.9582(3) 0.2356(3) 0.1911(3)
H18_9 H 0.939621 0.226730 0.193228
C38_9 C 0.9811(4) 0.2274(3) 0.2092(3)
Cu5_9 Cu 0.97292(3) 0.14904(3) 0.47875(3)
Cu8_9 Cu 0.96348(3) 0.20421(3) 0.47024(3)
O9_9 O 0.9617(2) 0.9552(2) 0.25005(17)
O10_9 O 0.98697(19) 0.98121(19) 0.39582(15)
O11_5 O 0.98485(15) 0.93188(18) 0.35379(15)
O12_5 O 0.97268(18) 0.92378(19) 0.30546(17)
O15_9 O 0.93701(16) 0.96720(16) 0.35541(15)
O16_9 O 0.93016(18) 0.96301(17) 0.30687(17)
H21_9 H 0.977522 0.963837 0.23808
H22_9 H 0.960889 0.933851 0.246613
H23_9 H 0.969543 0.9904 0.404768
H24_9 H 0.991286 0.96257 0.405927
O1_10 O 0.02819(16) 0.51397(16) 0.15881(16)
O2_10 O 0.03011(19) 0.50554(19) 0.20795(16)
O7_10 O 0.03280(16) 0.64459(15) 0.06299(16)
O8_10 O 0.03699(17) 0.69313(17) 0.06984(18)
O9_10 O 0.0383(2) 0.4552(2) 0.24995(17)
O10_10 O 0.01303(19) 0.48121(19) 0.10418(15)
N1_10 N 0.0089(3) 0.7966(2) 0.3507(2)
N2_10 N 0.0374(3) 0.6448(2) 0.1996(2)
C1_10 C 0.0265(3) 0.8141(3) 0.4711(3)
C2_10 C 0.0229(2) 0.80789(18) 0.43963(13)
C3_10 C 0.0139(2) 0.83021(14) 0.42125(17)
H1_10 H 0.010464 0.849146 0.428868
C4_10 C 0.0099(2) 0.82482(16) 0.39171(16)
C5_10 C 0.0149(3) 0.79711(19) 0.38055(14)
C6_10 C 0.0240(2) 0.77479(15) 0.39894(19)
H2_10 H 0.027402 0.755853 0.391317
C7_10 C 0.0280(2) 0.78018(16) 0.42848(17)
H3_10 H 0.034118 0.764928 0.441043
C10_10 C 0.0025(2) 0.84259(17) 0.36613(14)
C11_10 C 0.0025(3) 0.82416(14) 0.34208(18)
C14_10 C 0.0364(2) 0.66198(16) 0.11170(12)
C15_10 C 0.0353(2) 0.63394(13) 0.12309(15)
H7_10 H 0.033900 0.617650 0.110386
C16_10 C 0.0362(2) 0.62972(13) 0.15307(16)
C17_10 C 0.0382(2) 0.65355(17) 0.17166(12)
C18_10 C 0.0393(2) 0.68160(14) 0.16027(15)
H8_10 H 0.040681 0.697884 0.172971
C19_10 C 0.0384(2) 0.68581(12) 0.13029(16)
H9_10 H 0.039152 0.704978 0.122499
C20_10 C 0.0301(3) 0.5223(3) 0.1860(3)
C21_10 C 0.0317(2) 0.55454(12) 0.19056(16)
C22_10 C 0.0322(2) 0.56524(16) 0.21890(13)
H10_10 H 0.031362 0.552154 0.234916
C23_10 C 0.0338(2) 0.59509(17) 0.22379(12)
H11_10 H 0.034088 0.602402 0.243151
C24_10 C 0.0350(2) 0.61424(13) 0.20035(17)
C25_10 C 0.0345(2) 0.60353(15) 0.17201(14)
C26_10 C 0.0329(2) 0.57369(16) 0.16712(12)
H12_10 H 0.032584 0.566372 0.147756
C28_10 C 0.0355(3) 0.6666(3) 0.0792(3)
C29_10 C 0.0269(3) 0.7028(2) 0.2700(2)
C30_10 C 0.0057(2) 0.6817(2) 0.2657(2)
C31_10 C 0.0086(3) 0.6617(2) 0.2432(2)
C32_10 C 0.0327(3) 0.6628(2) 0.2249(2)
C33_10 C 0.0539(3) 0.6840(3) 0.2291(2)
H15_10 H 0.070386 0.684793 0.216634
C34_10 C 0.0511(3) 0.7040(2) 0.2517(2)
H16_10 H 0.065574 0.718444 0.254641
C35_10 C 0.0103(4) 0.7698(3) 0.3331(3)
C36_10 C 0.0375(3) 0.7568(3) 0.3300(3)
H17_10 H 0.053073 0.762463 0.342408
C37_10 C 0.0418(3) 0.7356(3) 0.3089(3)
H18_10 H 0.060379 0.726730 0.306772
C38_10 C 0.0189(4) 0.7274(3) 0.2908(3)
Cu5_10 Cu 0.02708(3) 0.64904(3) 0.02125(3)
Cu8_10 Cu 0.03652(3) 0.70421(3) 0.02976(3)
O15_10 O 0.06299(16) 0.46720(16) 0.14459(15)
O16_10 O 0.06984(18) 0.46301(17) 0.19313(17)
H21_10 H 0.0224779 0.463837 0.26192
H22_10 H 0.0391106 0.433851 0.253387
H23_10 H 0.0304574 0.4904 0.0952317
H24_10 H 0.0087137 0.46257 0.0940731
C8_10 C 0.9876(2) 0.88251(13) 0.33554(17)
C9_10 C 0.9951(2) 0.87176(16) 0.36285(14)
H4_10 H 0.995079 0.884353 0.379285
C12_10 C 0.9950(2) 0.83491(17) 0.31477(15)
H5_10 H 0.995010 0.822315 0.298342
C13_10 C 0.9876(2) 0.86408(18) 0.31150(13)
H6_10 H 0.982444 0.871426 0.292835
C27_10 C 0.9804(3) 0.9141(3) 0.3311(4)
H13_10 H 0.989215 0.680863 0.278248
H14_10 H 0.994027 0.647212 0.240241
C39_10 C 0.9918(3) 0.7404(3) 0.2939(3)
H19_10 H 0.976134 0.734719 0.281489
C40_10 C 0.9874(3) 0.7616(3) 0.3150(3)
H20_10 H 0.968827 0.770452 0.317124
O1_11 O 0.47181(16) 0.48603(16) 0.65881(16)
O2_11 O 0.46989(19) 0.49446(19) 0.70795(16)
O3_6 O 0.51515(15) 0.06812(18) 0.85379(15)
O4_6 O 0.52732(18) 0.07622(19) 0.80546(17)
O7_11 O 0.46720(16) 0.35541(15) 0.56299(16)
O8_11 O 0.46301(17) 0.30687(17) 0.56984(18)
O9_11 O 0.4617(2) 0.5448(2) 0.74995(17)
O10_11 O 0.48697(19) 0.51879(19) 0.60418(15)
N1_11 N 0.4911(3) 0.2034(2) 0.8507(2)
N2_11 N 0.4626(3) 0.3552(2) 0.6996(2)
C1_11 C 0.4735(3) 0.1859(3) 0.9711(3)
C2_11 C 0.4771(2) 0.19211(18) 0.93963(13)
C3_11 C 0.4861(2) 0.16979(14) 0.92125(17)
H1_11 H 0.489536 0.150854 0.928868
C4_11 C 0.4901(2) 0.17518(16) 0.89171(16)
C5_11 C 0.4851(3) 0.20289(19) 0.88055(14)
C6_11 C 0.4760(2) 0.22521(15) 0.89894(19)
H2_11 H 0.472598 0.244147 0.891317
C7_11 C 0.4720(2) 0.21982(16) 0.92848(17)
H3_11 H 0.465882 0.235072 0.941043
C8_11 C 0.5124(2) 0.11749(13) 0.83554(17)
C9_11 C 0.5049(2) 0.12824(16) 0.86285(14)
H4_11 H 0.504921 0.115647 0.879285
C10_11 C 0.4975(2) 0.15741(17) 0.86613(14)
C11_11 C 0.4975(3) 0.17584(14) 0.84208(18)
C12_11 C 0.5050(2) 0.16509(17) 0.81477(15)
H5_11 H 0.504990 0.177685 0.798342
C13_11 C 0.5124(2) 0.13592(18) 0.81150(13)
H6_11 H 0.517556 0.128574 0.792835
C14_11 C 0.4636(2) 0.33802(16) 0.61170(12)
C15_11 C 0.4647(2) 0.36606(13) 0.62309(15)
H7_11 H 0.466100 0.382350 0.610386
C16_11 C 0.4638(2) 0.37028(13) 0.65307(16)
C17_11 C 0.4618(2) 0.34645(17) 0.67166(12)
C18_11 C 0.4607(2) 0.31840(14) 0.66027(15)
H8_11 H 0.459319 0.302116 0.672971
C19_11 C 0.4616(2) 0.31419(12) 0.63029(16)
H9_11 H 0.460848 0.295022 0.622499
C20_11 C 0.4699(3) 0.4777(3) 0.6860(3)
C21_11 C 0.4683(2) 0.44546(12) 0.69056(16)
C22_11 C 0.4678(2) 0.43476(16) 0.71890(13)
H10_11 H 0.468638 0.447846 0.734916
C23_11 C 0.4662(2) 0.40491(17) 0.72379(12)
H11_11 H 0.465912 0.397598 0.743151
C24_11 C 0.4650(2) 0.38576(13) 0.70035(17)
C25_11 C 0.4655(2) 0.39647(15) 0.67201(14)
C26_11 C 0.4671(2) 0.42631(16) 0.66712(12)
H12_11 H 0.467416 0.433628 0.647756
C27_11 C 0.5196(3) 0.0859(3) 0.8311(4)
C28_11 C 0.4645(3) 0.3334(3) 0.5792(3)
C29_11 C 0.4731(3) 0.2972(2) 0.7700(2)
C30_11 C 0.4943(2) 0.3183(2) 0.7657(2)
H13_11 H 0.510785 0.319137 0.778248
C31_11 C 0.4914(3) 0.3383(2) 0.7432(2)
H14_11 H 0.505973 0.352788 0.740241
C32_11 C 0.4673(3) 0.3372(2) 0.7249(2)
C33_11 C 0.4461(3) 0.3160(3) 0.7291(2)
H15_11 H 0.429614 0.315207 0.716634
C34_11 C 0.4489(3) 0.2960(2) 0.7517(2)
H16_11 H 0.434426 0.281556 0.754641
C35_11 C 0.4897(4) 0.2302(3) 0.8331(3)
C36_11 C 0.4625(3) 0.2432(3) 0.8300(3)
H17_11 H 0.446927 0.237537 0.842408
C37_11 C 0.4582(3) 0.2644(3) 0.8089(3)
H18_11 H 0.439621 0.273270 0.806772
C38_11 C 0.4811(4) 0.2726(3) 0.7908(3)
C39_11 C 0.5082(3) 0.2596(3) 0.7939(3)
H19_11 H 0.523866 0.265281 0.781489
C40_11 C 0.5126(3) 0.2384(3) 0.8150(3)
H20_11 H 0.531173 0.229548 0.817124
Cu5_11 Cu 0.47292(3) 0.35096(3) 0.52125(3)
Cu8_11 Cu 0.46348(3) 0.29579(3) 0.52976(3)
O11_6 O 0.48485(15) 0.56812(18) 0.64621(15)
O12_6 O 0.47268(18) 0.57622(19) 0.69454(17)
O15_11 O 0.43701(16) 0.53280(16) 0.64459(15)
O16_11 O 0.43016(18) 0.53699(17) 0.69313(17)
H21_11 H 0.477522 0.536163 0.76192
H22_11 H 0.460889 0.566149 0.753387
H23_11 H 0.469543 0.5096 0.595232
H24_11 H 0.491286 0.53743 0.594073
O9_12 O 0.5383(2) 0.0448(2) 0.75005(17)
O10_12 O 0.51303(19) 0.01879(19) 0.89582(15)
O15_12 O 0.56299(16) 0.03280(16) 0.85541(15)
O16_12 O 0.56984(18) 0.03699(17) 0.80687(17)
H21_12 H 0.522478 0.0361628 0.73808
H22_12 H 0.539111 0.0661486 0.746613
H23_12 H 0.530457 0.0096004 0.904768
H24_12 H 0.508714 0.0374301 0.905927
O1_12 O 0.52819(16) 0.98603(16) 0.84119(16)
O2_12 O 0.53011(19) 0.99446(19) 0.79205(16)
O7_12 O 0.53280(16) 0.85541(15) 0.93701(16)
O8_12 O 0.53699(17) 0.80687(17) 0.93016(18)
N1_12 N 0.5089(3) 0.7034(2) 0.6493(2)
N2_12 N 0.5374(3) 0.8552(2) 0.8004(2)
C1_12 C 0.5265(3) 0.6859(3) 0.5289(3)
C2_12 C 0.5229(2) 0.69211(18) 0.56037(13)
C3_12 C 0.5139(2) 0.66979(14) 0.57875(17)
H1_12 H 0.510464 0.650854 0.571132
C4_12 C 0.5099(2) 0.67518(16) 0.60829(16)
C5_12 C 0.5149(3) 0.70289(19) 0.61945(14)
C6_12 C 0.5240(2) 0.72521(15) 0.60106(19)
H2_12 H 0.527402 0.744147 0.608683
C7_12 C 0.5280(2) 0.71982(16) 0.57152(17)
H3_12 H 0.534118 0.735072 0.558957
C8_12 C 0.4876(2) 0.61749(13) 0.66446(17)
C9_12 C 0.4951(2) 0.62824(16) 0.63715(14)
H4_12 H 0.495079 0.615647 0.620715
C10_12 C 0.5025(2) 0.65741(17) 0.63387(14)
C11_12 C 0.5025(3) 0.67584(14) 0.65792(18)
C12_12 C 0.4950(2) 0.66509(17) 0.68523(15)
H5_12 H 0.495010 0.677685 0.701658
C13_12 C 0.4876(2) 0.63592(18) 0.68850(13)
H6_12 H 0.482444 0.628574 0.707165
C14_12 C 0.5364(2) 0.83802(16) 0.88830(12)
C15_12 C 0.5353(2) 0.86606(13) 0.87691(15)
H7_12 H 0.533900 0.882350 0.889614
C16_12 C 0.5362(2) 0.87028(13) 0.84693(16)
C17_12 C 0.5382(2) 0.84645(17) 0.82834(12)
C18_12 C 0.5393(2) 0.81840(14) 0.83973(15)
H8_12 H 0.540681 0.802116 0.827029
C19_12 C 0.5384(2) 0.81419(12) 0.86971(16)
H9_12 H 0.539152 0.795022 0.877501
C20_12 C 0.5301(3) 0.9777(3) 0.8140(3)
C21_12 C 0.5317(2) 0.94546(12) 0.80944(16)
C22_12 C 0.5322(2) 0.93476(16) 0.78110(13)
H10_12 H 0.531362 0.947846 0.765084
C23_12 C 0.5338(2) 0.90491(17) 0.77621(12)
H11_12 H 0.534088 0.897598 0.756849
C24_12 C 0.5350(2) 0.88576(13) 0.79965(17)
C25_12 C 0.5345(2) 0.89647(15) 0.82799(14)
C26_12 C 0.5329(2) 0.92631(16) 0.83288(12)
H12_12 H 0.532584 0.933628 0.852244
C27_12 C 0.4804(3) 0.5859(3) 0.6689(4)
C28_12 C 0.5355(3) 0.8334(3) 0.9208(3)
C29_12 C 0.5269(3) 0.7972(2) 0.7300(2)
C30_12 C 0.5057(2) 0.8183(2) 0.7343(2)
H13_12 H 0.489215 0.819137 0.721752
C31_12 C 0.5086(3) 0.8383(2) 0.7568(2)
H14_12 H 0.494027 0.852788 0.759759
C32_12 C 0.5327(3) 0.8372(2) 0.7751(2)
C33_12 C 0.5539(3) 0.8160(3) 0.7709(2)
H15_12 H 0.570386 0.815207 0.783366
C34_12 C 0.5511(3) 0.7960(2) 0.7483(2)
H16_12 H 0.565574 0.781556 0.745359
C35_12 C 0.5103(4) 0.7302(3) 0.6669(3)
C36_12 C 0.5375(3) 0.7432(3) 0.6700(3)
H17_12 H 0.553073 0.737537 0.657592
C37_12 C 0.5418(3) 0.7644(3) 0.6911(3)
H18_12 H 0.560379 0.773270 0.693228
C38_12 C 0.5189(4) 0.7726(3) 0.7092(3)
C39_12 C 0.4918(3) 0.7596(3) 0.7061(3)
H19_12 H 0.476134 0.765281 0.718511
C40_12 C 0.4874(3) 0.7384(3) 0.6850(3)
H20_12 H 0.468827 0.729548 0.682876
Cu5_12 Cu 0.52708(3) 0.85096(3) 0.97875(3)
Cu8_12 Cu 0.53652(3) 0.79579(3) 0.97024(3)
O9_13 O 0.74995(17) 0.0383(2) 0.0448(2)
O10_13 O 0.60418(15) 0.01303(19) 0.01879(19)
O11_7 O 0.64621(15) 0.01515(15) 0.06812(18)
O12_7 O 0.69454(17) 0.02732(18) 0.07622(19)
H21_13 H 0.76192 0.0224779 0.0361628
H22_13 H 0.753387 0.0391106 0.0661486
H23_13 H 0.595232 0.0304574 0.0096004
H24_13 H 0.594073 0.0087137 0.0374301
O1_13 O 0.65881(16) 0.02819(16) 0.98603(16)
O2_13 O 0.70795(16) 0.03011(19) 0.99446(19)
O5_5 O 0.98008(16) 0.02263(16) 0.66104(15)
O6_5 O 0.98731(19) 0.03473(19) 0.70704(17)
N1_13 N 0.8507(2) 0.0089(3) 0.7034(2)
N2_13 N 0.6996(2) 0.0374(3) 0.8552(2)
C1_13 C 0.9711(3) 0.0265(3) 0.6859(3)
C2_13 C 0.93963(13) 0.0229(2) 0.69211(18)
C3_13 C 0.92125(17) 0.0139(2) 0.66979(14)
H1_13 H 0.928868 0.010464 0.650854
C4_13 C 0.89171(16) 0.0099(2) 0.67518(16)
C5_13 C 0.88055(14) 0.0149(3) 0.70289(19)
C6_13 C 0.89894(19) 0.0240(2) 0.72521(15)
H2_13 H 0.891317 0.027402 0.744147
C7_13 C 0.92848(17) 0.0280(2) 0.71982(16)
H3_13 H 0.941043 0.034118 0.735072
C10_13 C 0.86613(14) 0.0025(2) 0.65741(17)
C11_13 C 0.84208(18) 0.0025(3) 0.67584(14)
C14_13 C 0.61170(12) 0.0364(2) 0.83802(16)
C15_13 C 0.62309(15) 0.0353(2) 0.86606(13)
H7_13 H 0.610386 0.033900 0.882350
C16_13 C 0.65307(16) 0.0362(2) 0.87028(13)
C17_13 C 0.67166(12) 0.0382(2) 0.84645(17)
C18_13 C 0.66027(15) 0.0393(2) 0.81840(14)
H8_13 H 0.672971 0.040681 0.802116
C19_13 C 0.63029(16) 0.0384(2) 0.81419(12)
H9_13 H 0.622499 0.039152 0.795022
C20_13 C 0.6860(3) 0.0301(3) 0.9777(3)
C21_13 C 0.69056(16) 0.0317(2) 0.94546(12)
C22_13 C 0.71890(13) 0.0322(2) 0.93476(16)
H10_13 H 0.734916 0.031362 0.947846
C23_13 C 0.72379(12) 0.0338(2) 0.90491(17)
H11_13 H 0.743151 0.034088 0.897598
C24_13 C 0.70035(17) 0.0350(2) 0.88576(13)
C25_13 C 0.67201(14) 0.0345(2) 0.89647(15)
C26_13 C 0.66712(12) 0.0329(2) 0.92631(16)
H12_13 H 0.647756 0.032584 0.933628
C28_13 C 0.5792(3) 0.0355(3) 0.8334(3)
C29_13 C 0.7700(2) 0.0269(3) 0.7972(2)
C30_13 C 0.7657(2) 0.0057(2) 0.8183(2)
C31_13 C 0.7432(2) 0.0086(3) 0.8383(2)
C32_13 C 0.7249(2) 0.0327(3) 0.8372(2)
C33_13 C 0.7291(2) 0.0539(3) 0.8160(3)
H15_13 H 0.716634 0.070386 0.815207
C34_13 C 0.7517(2) 0.0511(3) 0.7960(2)
H16_13 H 0.754641 0.065574 0.781556
C35_13 C 0.8331(3) 0.0103(4) 0.7302(3)
C36_13 C 0.8300(3) 0.0375(3) 0.7432(3)
H17_13 H 0.842408 0.053073 0.737537
C37_13 C 0.8089(3) 0.0418(3) 0.7644(3)
H18_13 H 0.806772 0.060379 0.773270
C38_13 C 0.7908(3) 0.0189(4) 0.7726(3)
O13_9 O 0.66104(15) 0.98008(16) 0.02263(16)
O14_9 O 0.70704(17) 0.98731(19) 0.03473(19)
O3_7 O 0.85379(15) 0.98485(15) 0.56812(18)
O4_7 O 0.80546(17) 0.97268(18) 0.57622(19)
C8_13 C 0.83554(17) 0.9876(2) 0.61749(13)
C9_13 C 0.86285(14) 0.9951(2) 0.62824(16)
H4_13 H 0.879285 0.995079 0.615647
C12_13 C 0.81477(15) 0.9950(2) 0.66509(17)
H5_13 H 0.798342 0.995010 0.677685
C13_13 C 0.81150(13) 0.9876(2) 0.63592(18)
H6_13 H 0.792835 0.982444 0.628574
C27_13 C 0.8311(4) 0.9804(3) 0.5859(3)
H13_13 H 0.778248 0.989215 0.819137
H14_13 H 0.740241 0.994027 0.852788
C39_13 C 0.7939(3) 0.9918(3) 0.7596(3)
H19_13 H 0.781489 0.976134 0.765281
C40_13 C 0.8150(3) 0.9874(3) 0.7384(3)
H20_13 H 0.817124 0.968827 0.729548
C8_14 C 0.66446(17) 0.0124(2) 0.11749(13)
C9_14 C 0.63715(14) 0.0049(2) 0.12824(16)
H4_14 H 0.620715 0.004921 0.115647
C12_14 C 0.68523(15) 0.0050(2) 0.16509(17)
H5_14 H 0.701658 0.004990 0.177685
C13_14 C 0.68850(13) 0.0124(2) 0.13592(18)
H6_14 H 0.707165 0.017556 0.128574
C27_14 C 0.6689(4) 0.0196(3) 0.0859(3)
H13_14 H 0.721752 0.010785 0.319137
H14_14 H 0.759759 0.005973 0.352788
C39_14 C 0.7061(3) 0.0082(3) 0.2596(3)
H19_14 H 0.718511 0.023866 0.265281
C40_14 C 0.6850(3) 0.0126(3) 0.2384(3)
H20_14 H 0.682876 0.031173 0.229548
O13_10 O 0.83896(15) 0.01992(16) 0.52263(16)
O14_10 O 0.79296(17) 0.01269(19) 0.53473(19)
O1_14 O 0.84119(16) 0.97181(16) 0.48603(16)
O2_14 O 0.79205(16) 0.96989(19) 0.49446(19)
O5_6 O 0.51992(16) 0.97737(16) 0.16104(15)
O6_6 O 0.51269(19) 0.96527(19) 0.20704(17)
O9_14 O 0.75005(17) 0.9617(2) 0.5448(2)
O10_14 O 0.89582(15) 0.98697(19) 0.51879(19)
N1_14 N 0.6493(2) 0.9911(3) 0.2034(2)
N2_14 N 0.8004(2) 0.9626(3) 0.3552(2)
C1_14 C 0.5289(3) 0.9735(3) 0.1859(3)
C2_14 C 0.56037(13) 0.9771(2) 0.19211(18)
C3_14 C 0.57875(17) 0.9861(2) 0.16979(14)
H1_14 H 0.571132 0.989536 0.150854
C4_14 C 0.60829(16) 0.9901(2) 0.17518(16)
C5_14 C 0.61945(14) 0.9851(3) 0.20289(19)
C6_14 C 0.60106(19) 0.9760(2) 0.22521(15)
H2_14 H 0.608683 0.972598 0.244147
C7_14 C 0.57152(17) 0.9720(2) 0.21982(16)
H3_14 H 0.558957 0.965882 0.235072
C10_14 C 0.63387(14) 0.9975(2) 0.15741(17)
C11_14 C 0.65792(18) 0.9975(3) 0.17584(14)
C14_14 C 0.88830(12) 0.9636(2) 0.33802(16)
C15_14 C 0.87691(15) 0.9647(2) 0.36606(13)
H7_14 H 0.889614 0.966100 0.382350
C16_14 C 0.84693(16) 0.9638(2) 0.37028(13)
C17_14 C 0.82834(12) 0.9618(2) 0.34645(17)
C18_14 C 0.83973(15) 0.9607(2) 0.31840(14)
H8_14 H 0.827029 0.959319 0.302116
C19_14 C 0.86971(16) 0.9616(2) 0.31419(12)
H9_14 H 0.877501 0.960848 0.295022
C20_14 C 0.8140(3) 0.9699(3) 0.4777(3)
C21_14 C 0.80944(16) 0.9683(2) 0.44546(12)
C22_14 C 0.78110(13) 0.9678(2) 0.43476(16)
H10_14 H 0.765084 0.968638 0.447846
C23_14 C 0.77621(12) 0.9662(2) 0.40491(17)
H11_14 H 0.756849 0.965912 0.397598
C24_14 C 0.79965(17) 0.9650(2) 0.38576(13)
C25_14 C 0.82799(14) 0.9655(2) 0.39647(15)
C26_14 C 0.83288(12) 0.9671(2) 0.42631(16)
H12_14 H 0.852244 0.967416 0.433628
C28_14 C 0.9208(3) 0.9645(3) 0.3334(3)
C29_14 C 0.7300(2) 0.9731(3) 0.2972(2)
C30_14 C 0.7343(2) 0.9943(2) 0.3183(2)
C31_14 C 0.7568(2) 0.9914(3) 0.3383(2)
C32_14 C 0.7751(2) 0.9673(3) 0.3372(2)
C33_14 C 0.7709(2) 0.9461(3) 0.3160(3)
H15_14 H 0.783366 0.929614 0.315207
C34_14 C 0.7483(2) 0.9489(3) 0.2960(2)
H16_14 H 0.745359 0.934426 0.281556
C35_14 C 0.6669(3) 0.9897(4) 0.2302(3)
C36_14 C 0.6700(3) 0.9625(3) 0.2432(3)
H17_14 H 0.657592 0.946927 0.237537
C37_14 C 0.6911(3) 0.9582(3) 0.2644(3)
H18_14 H 0.693228 0.939621 0.273270
C38_14 C 0.7092(3) 0.9811(4) 0.2726(3)
H21_14 H 0.73808 0.977522 0.536163
H22_14 H 0.746613 0.960889 0.566149
H23_14 H 0.904768 0.969543 0.5096
H24_14 H 0.905927 0.991286 0.53743
O1_15 O 0.34119(16) 0.52819(16) 0.51397(16)
O2_15 O 0.29205(16) 0.53011(19) 0.50554(19)
O3_8 O 0.14621(15) 0.48485(15) 0.93188(18)
O4_8 O 0.19454(17) 0.47268(18) 0.92378(19)
O5_7 O 0.01992(16) 0.52263(16) 0.83896(15)
O6_7 O 0.01269(19) 0.53473(19) 0.79296(17)
O9_15 O 0.25005(17) 0.5383(2) 0.4552(2)
O10_15 O 0.39582(15) 0.51303(19) 0.48121(19)
N1_15 N 0.1493(2) 0.5089(3) 0.7966(2)
N2_15 N 0.3004(2) 0.5374(3) 0.6448(2)
C1_15 C 0.0289(3) 0.5265(3) 0.8141(3)
C2_15 C 0.06037(13) 0.5229(2) 0.80789(18)
C3_15 C 0.07875(17) 0.5139(2) 0.83021(14)
H1_15 H 0.071132 0.510464 0.849146
C4_15 C 0.10829(16) 0.5099(2) 0.82482(16)
C5_15 C 0.11945(14) 0.5149(3) 0.79711(19)
C6_15 C 0.10106(19) 0.5240(2) 0.77479(15)
H2_15 H 0.108683 0.527402 0.755853
C7_15 C 0.07152(17) 0.5280(2) 0.78018(16)
H3_15 H 0.058957 0.534118 0.764928
C8_15 C 0.16446(17) 0.4876(2) 0.88251(13)
C9_15 C 0.13715(14) 0.4951(2) 0.87176(16)
H4_15 H 0.120715 0.495079 0.884353
C10_15 C 0.13387(14) 0.5025(2) 0.84259(17)
C11_15 C 0.15792(18) 0.5025(3) 0.82416(14)
C12_15 C 0.18523(15) 0.4950(2) 0.83491(17)
H5_15 H 0.201658 0.495010 0.822315
C13_15 C 0.18850(13) 0.4876(2) 0.86408(18)
H6_15 H 0.207165 0.482444 0.871426
C14_15 C 0.38830(12) 0.5364(2) 0.66198(16)
C15_15 C 0.37691(15) 0.5353(2) 0.63394(13)
H7_15 H 0.389614 0.533900 0.617650
C16_15 C 0.34693(16) 0.5362(2) 0.62972(13)
C17_15 C 0.32834(12) 0.5382(2) 0.65355(17)
C18_15 C 0.33973(15) 0.5393(2) 0.68160(14)
H8_15 H 0.327029 0.540681 0.697884
C19_15 C 0.36971(16) 0.5384(2) 0.68581(12)
H9_15 H 0.377501 0.539152 0.704978
C20_15 C 0.3140(3) 0.5301(3) 0.5223(3)
C21_15 C 0.30944(16) 0.5317(2) 0.55454(12)
C22_15 C 0.28110(13) 0.5322(2) 0.56524(16)
H10_15 H 0.265084 0.531362 0.552154
C23_15 C 0.27621(12) 0.5338(2) 0.59509(17)
H11_15 H 0.256849 0.534088 0.602402
C24_15 C 0.29965(17) 0.5350(2) 0.61424(13)
C25_15 C 0.32799(14) 0.5345(2) 0.60353(15)
C26_15 C 0.33288(12) 0.5329(2) 0.57369(16)
H12_15 H 0.352244 0.532584 0.566372
C27_15 C 0.1689(4) 0.4804(3) 0.9141(3)
C28_15 C 0.4208(3) 0.5355(3) 0.6666(3)
C29_15 C 0.2300(2) 0.5269(3) 0.7028(2)
C30_15 C 0.2343(2) 0.5057(2) 0.6817(2)
H13_15 H 0.221752 0.489215 0.680863
C31_15 C 0.2568(2) 0.5086(3) 0.6617(2)
H14_15 H 0.259759 0.494027 0.647212
C32_15 C 0.2751(2) 0.5327(3) 0.6628(2)
C33_15 C 0.2709(2) 0.5539(3) 0.6840(3)
H15_15 H 0.283366 0.570386 0.684793
C34_15 C 0.2483(2) 0.5511(3) 0.7040(2)
H16_15 H 0.245359 0.565574 0.718444
C35_15 C 0.1669(3) 0.5103(4) 0.7698(3)
C36_15 C 0.1700(3) 0.5375(3) 0.7568(3)
H17_15 H 0.157592 0.553073 0.762463
C37_15 C 0.1911(3) 0.5418(3) 0.7356(3)
H18_15 H 0.193228 0.560379 0.726730
C38_15 C 0.2092(3) 0.5189(4) 0.7274(3)
C39_15 C 0.2061(3) 0.4918(3) 0.7404(3)
H19_15 H 0.218511 0.476134 0.734719
C40_15 C 0.1850(3) 0.4874(3) 0.7616(3)
H20_15 H 0.182876 0.468827 0.770452
O11_8 O 0.35379(15) 0.51515(15) 0.43188(18)
O12_8 O 0.30546(17) 0.52732(18) 0.42378(19)
O13_11 O 0.33896(15) 0.48008(16) 0.47737(16)
O14_11 O 0.29296(17) 0.48731(19) 0.46527(19)
H21_15 H 0.23808 0.522478 0.463837
H22_15 H 0.246613 0.539111 0.433851
H23_15 H 0.404768 0.530457 0.4904
H24_15 H 0.405927 0.508714 0.46257
O1_16 O 0.15881(16) 0.47181(16) 0.01397(16)
O2_16 O 0.20795(16) 0.46989(19) 0.00554(19)
O5_8 O 0.48008(16) 0.47737(16) 0.33896(15)
O6_8 O 0.48731(19) 0.46527(19) 0.29296(17)
N1_16 N 0.3507(2) 0.4911(3) 0.2966(2)
N2_16 N 0.1996(2) 0.4626(3) 0.1448(2)
C1_16 C 0.4711(3) 0.4735(3) 0.3141(3)
C2_16 C 0.43963(13) 0.4771(2) 0.30789(18)
C3_16 C 0.42125(17) 0.4861(2) 0.33021(14)
H1_16 H 0.428868 0.489536 0.349146
C4_16 C 0.39171(16) 0.4901(2) 0.32482(16)
C5_16 C 0.38055(14) 0.4851(3) 0.29711(19)
C6_16 C 0.39894(19) 0.4760(2) 0.27479(15)
H2_16 H 0.391317 0.472598 0.255853
C7_16 C 0.42848(17) 0.4720(2) 0.28018(16)
H3_16 H 0.441043 0.465882 0.264928
C8_16 C 0.33554(17) 0.5124(2) 0.38251(13)
C9_16 C 0.36285(14) 0.5049(2) 0.37176(16)
H4_16 H 0.379285 0.504921 0.384353
C10_16 C 0.36613(14) 0.4975(2) 0.34259(17)
C11_16 C 0.34208(18) 0.4975(3) 0.32416(14)
C12_16 C 0.31477(15) 0.5050(2) 0.33491(17)
H5_16 H 0.298342 0.504990 0.322315
C13_16 C 0.31150(13) 0.5124(2) 0.36408(18)
H6_16 H 0.292835 0.517556 0.371426
C14_16 C 0.11170(12) 0.4636(2) 0.16198(16)
C15_16 C 0.12309(15) 0.4647(2) 0.13394(13)
H7_16 H 0.110386 0.466100 0.117650
C16_16 C 0.15307(16) 0.4638(2) 0.12972(13)
C17_16 C 0.17166(12) 0.4618(2) 0.15355(17)
C18_16 C 0.16027(15) 0.4607(2) 0.18160(14)
H8_16 H 0.172971 0.459319 0.197884
C19_16 C 0.13029(16) 0.4616(2) 0.18581(12)
H9_16 H 0.122499 0.460848 0.204978
C20_16 C 0.1860(3) 0.4699(3) 0.0223(3)
C21_16 C 0.19056(16) 0.4683(2) 0.05454(12)
C22_16 C 0.21890(13) 0.4678(2) 0.06524(16)
H10_16 H 0.234916 0.468638 0.052154
C23_16 C 0.22379(12) 0.4662(2) 0.09509(17)
H11_16 H 0.243151 0.465912 0.102402
C24_16 C 0.20035(17) 0.4650(2) 0.11424(13)
C25_16 C 0.17201(14) 0.4655(2) 0.10353(15)
C26_16 C 0.16712(12) 0.4671(2) 0.07369(16)
H12_16 H 0.147756 0.467416 0.066372
C27_16 C 0.3311(4) 0.5196(3) 0.4141(3)
C28_16 C 0.0792(3) 0.4645(3) 0.1666(3)
C29_16 C 0.2700(2) 0.4731(3) 0.2028(2)
C30_16 C 0.2657(2) 0.4943(2) 0.1817(2)
H13_16 H 0.278248 0.510785 0.180863
C31_16 C 0.2432(2) 0.4914(3) 0.1617(2)
H14_16 H 0.240241 0.505973 0.147212
C32_16 C 0.2249(2) 0.4673(3) 0.1628(2)
C33_16 C 0.2291(2) 0.4461(3) 0.1840(3)
H15_16 H 0.216634 0.429614 0.184793
C34_16 C 0.2517(2) 0.4489(3) 0.2040(2)
H16_16 H 0.254641 0.434426 0.218444
C35_16 C 0.3331(3) 0.4897(4) 0.2698(3)
C36_16 C 0.3300(3) 0.4625(3) 0.2568(3)
H17_16 H 0.342408 0.446927 0.262463
C37_16 C 0.3089(3) 0.4582(3) 0.2356(3)
H18_16 H 0.306772 0.439621 0.226730
C38_16 C 0.2908(3) 0.4811(4) 0.2274(3)
C39_16 C 0.2939(3) 0.5082(3) 0.2404(3)
H19_16 H 0.281489 0.523866 0.234719
C40_16 C 0.3150(3) 0.5126(3) 0.2616(3)
H20_16 H 0.317124 0.531173 0.270452
O9_16 O 0.24995(17) 0.4617(2) 0.9552(2)
O10_16 O 0.10418(15) 0.48697(19) 0.98121(19)
O13_12 O 0.16104(15) 0.51992(16) 0.97737(16)
O14_12 O 0.20704(17) 0.51269(19) 0.96527(19)
H21_16 H 0.26192 0.477522 0.963837
H22_16 H 0.253387 0.460889 0.933851
H23_16 H 0.0952317 0.469543 0.9904
H24_16 H 0.0940731 0.491286 0.96257
O9_17 O 0.0448(2) 0.74995(17) 0.0383(2)
O10_17 O 0.01879(19) 0.60418(15) 0.01303(19)
O11_9 O 0.06812(18) 0.64621(15) 0.01515(15)
O12_9 O 0.07622(19) 0.69454(17) 0.02732(18)
H21_17 H 0.0361628 0.76192 0.0224779
H22_17 H 0.0661486 0.753387 0.0391106
H23_17 H 0.0096004 0.595232 0.0304574
H24_17 H 0.0374301 0.594073 0.0087137
O13_13 O 0.02263(16) 0.66104(15) 0.98008(16)
O14_13 O 0.03473(19) 0.70704(17) 0.98731(19)
O1_17 O 0.98603(16) 0.65881(16) 0.02819(16)
O2_17 O 0.99446(19) 0.70795(16) 0.03011(19)
N1_17 N 0.7034(2) 0.8507(2) 0.0089(3)
N2_17 N 0.8552(2) 0.6996(2) 0.0374(3)
C1_17 C 0.6859(3) 0.9711(3) 0.0265(3)
C2_17 C 0.69211(18) 0.93963(13) 0.0229(2)
C3_17 C 0.66979(14) 0.92125(17) 0.0139(2)
H1_17 H 0.650854 0.928868 0.010464
C4_17 C 0.67518(16) 0.89171(16) 0.0099(2)
C5_17 C 0.70289(19) 0.88055(14) 0.0149(3)
C6_17 C 0.72521(15) 0.89894(19) 0.0240(2)
H2_17 H 0.744147 0.891317 0.027402
C7_17 C 0.71982(16) 0.92848(17) 0.0280(2)
H3_17 H 0.735072 0.941043 0.034118
C10_17 C 0.65741(17) 0.86613(14) 0.0025(2)
C11_17 C 0.67584(14) 0.84208(18) 0.0025(3)
C14_17 C 0.83802(16) 0.61170(12) 0.0364(2)
C15_17 C 0.86606(13) 0.62309(15) 0.0353(2)
H7_17 H 0.882350 0.610386 0.033900
C16_17 C 0.87028(13) 0.65307(16) 0.0362(2)
C17_17 C 0.84645(17) 0.67166(12) 0.0382(2)
C18_17 C 0.81840(14) 0.66027(15) 0.0393(2)
H8_17 H 0.802116 0.672971 0.040681
C19_17 C 0.81419(12) 0.63029(16) 0.0384(2)
H9_17 H 0.795022 0.622499 0.039152
C20_17 C 0.9777(3) 0.6860(3) 0.0301(3)
C21_17 C 0.94546(12) 0.69056(16) 0.0317(2)
C22_17 C 0.93476(16) 0.71890(13) 0.0322(2)
H10_17 H 0.947846 0.734916 0.031362
C23_17 C 0.90491(17) 0.72379(12) 0.0338(2)
H11_17 H 0.897598 0.743151 0.034088
C24_17 C 0.88576(13) 0.70035(17) 0.0350(2)
C25_17 C 0.89647(15) 0.67201(14) 0.0345(2)
C26_17 C 0.92631(16) 0.66712(12) 0.0329(2)
H12_17 H 0.933628 0.647756 0.032584
C28_17 C 0.8334(3) 0.5792(3) 0.0355(3)
C29_17 C 0.7972(2) 0.7700(2) 0.0269(3)
C30_17 C 0.8183(2) 0.7657(2) 0.0057(2)
C31_17 C 0.8383(2) 0.7432(2) 0.0086(3)
C32_17 C 0.8372(2) 0.7249(2) 0.0327(3)
C33_17 C 0.8160(3) 0.7291(2) 0.0539(3)
H15_17 H 0.815207 0.716634 0.070386
C34_17 C 0.7960(2) 0.7517(2) 0.0511(3)
H16_17 H 0.781556 0.754641 0.065574
C35_17 C 0.7302(3) 0.8331(3) 0.0103(4)
C36_17 C 0.7432(3) 0.8300(3) 0.0375(3)
H17_17 H 0.737537 0.842408 0.053073
C37_17 C 0.7644(3) 0.8089(3) 0.0418(3)
H18_17 H 0.773270 0.806772 0.060379
C38_17 C 0.7726(3) 0.7908(3) 0.0189(4)
O3_9 O 0.56812(18) 0.85379(15) 0.98485(15)
O4_9 O 0.57622(19) 0.80546(17) 0.97268(18)
C8_17 C 0.61749(13) 0.83554(17) 0.9876(2)
C9_17 C 0.62824(16) 0.86285(14) 0.9951(2)
H4_17 H 0.615647 0.879285 0.995079
C12_17 C 0.66509(17) 0.81477(15) 0.9950(2)
H5_17 H 0.677685 0.798342 0.995010
C13_17 C 0.63592(18) 0.81150(13) 0.9876(2)
H6_17 H 0.628574 0.792835 0.982444
C27_17 C 0.5859(3) 0.8311(4) 0.9804(3)
H13_17 H 0.819137 0.778248 0.989215
H14_17 H 0.852788 0.740241 0.994027
C39_17 C 0.7596(3) 0.7939(3) 0.9918(3)
H19_17 H 0.765281 0.781489 0.976134
C40_17 C 0.7384(3) 0.8150(3) 0.9874(3)
H20_17 H 0.729548 0.817124 0.968827
C8_18 C 0.11749(13) 0.66446(17) 0.0124(2)
C9_18 C 0.12824(16) 0.63715(14) 0.0049(2)
H4_18 H 0.115647 0.620715 0.004921
C12_18 C 0.16509(17) 0.68523(15) 0.0050(2)
H5_18 H 0.177685 0.701658 0.004990
C13_18 C 0.13592(18) 0.68850(13) 0.0124(2)
H6_18 H 0.128574 0.707165 0.017556
C27_18 C 0.0859(3) 0.6689(4) 0.0196(3)
H13_18 H 0.319137 0.721752 0.010785
H14_18 H 0.352788 0.759759 0.005973
C39_18 C 0.2596(3) 0.7061(3) 0.0082(3)
H19_18 H 0.265281 0.718511 0.023866
C40_18 C 0.2384(3) 0.6850(3) 0.0126(3)
H20_18 H 0.229548 0.682876 0.031173
O13_14 O 0.52263(16) 0.83896(15) 0.01992(16)
O14_14 O 0.53473(19) 0.79296(17) 0.01269(19)
O1_18 O 0.48603(16) 0.84119(16) 0.97181(16)
O2_18 O 0.49446(19) 0.79205(16) 0.96989(19)
O9_18 O 0.5448(2) 0.75005(17) 0.9617(2)
O10_18 O 0.51879(19) 0.89582(15) 0.98697(19)
N1_18 N 0.2034(2) 0.6493(2) 0.9911(3)
N2_18 N 0.3552(2) 0.8004(2) 0.9626(3)
C1_18 C 0.1859(3) 0.5289(3) 0.9735(3)
C2_18 C 0.19211(18) 0.56037(13) 0.9771(2)
C3_18 C 0.16979(14) 0.57875(17) 0.9861(2)
H1_18 H 0.150854 0.571132 0.989536
C4_18 C 0.17518(16) 0.60829(16) 0.9901(2)
C5_18 C 0.20289(19) 0.61945(14) 0.9851(3)
C6_18 C 0.22521(15) 0.60106(19) 0.9760(2)
H2_18 H 0.244147 0.608683 0.972598
C7_18 C 0.21982(16) 0.57152(17) 0.9720(2)
H3_18 H 0.235072 0.558957 0.965882
C10_18 C 0.15741(17) 0.63387(14) 0.9975(2)
C11_18 C 0.17584(14) 0.65792(18) 0.9975(3)
C14_18 C 0.33802(16) 0.88830(12) 0.9636(2)
C15_18 C 0.36606(13) 0.87691(15) 0.9647(2)
H7_18 H 0.382350 0.889614 0.966100
C16_18 C 0.37028(13) 0.84693(16) 0.9638(2)
C17_18 C 0.34645(17) 0.82834(12) 0.9618(2)
C18_18 C 0.31840(14) 0.83973(15) 0.9607(2)
H8_18 H 0.302116 0.827029 0.959319
C19_18 C 0.31419(12) 0.86971(16) 0.9616(2)
H9_18 H 0.295022 0.877501 0.960848
C20_18 C 0.4777(3) 0.8140(3) 0.9699(3)
C21_18 C 0.44546(12) 0.80944(16) 0.9683(2)
C22_18 C 0.43476(16) 0.78110(13) 0.9678(2)
H10_18 H 0.447846 0.765084 0.968638
C23_18 C 0.40491(17) 0.77621(12) 0.9662(2)
H11_18 H 0.397598 0.756849 0.965912
C24_18 C 0.38576(13) 0.79965(17) 0.9650(2)
C25_18 C 0.39647(15) 0.82799(14) 0.9655(2)
C26_18 C 0.42631(16) 0.83288(12) 0.9671(2)
H12_18 H 0.433628 0.852244 0.967416
C28_18 C 0.3334(3) 0.9208(3) 0.9645(3)
C29_18 C 0.2972(2) 0.7300(2) 0.9731(3)
C30_18 C 0.3183(2) 0.7343(2) 0.9943(2)
C31_18 C 0.3383(2) 0.7568(2) 0.9914(3)
C32_18 C 0.3372(2) 0.7751(2) 0.9673(3)
C33_18 C 0.3160(3) 0.7709(2) 0.9461(3)
H15_18 H 0.315207 0.783366 0.929614
C34_18 C 0.2960(2) 0.7483(2) 0.9489(3)
H16_18 H 0.281556 0.745359 0.934426
C35_18 C 0.2302(3) 0.6669(3) 0.9897(4)
C36_18 C 0.2432(3) 0.6700(3) 0.9625(3)
H17_18 H 0.237537 0.657592 0.946927
C37_18 C 0.2644(3) 0.6911(3) 0.9582(3)
H18_18 H 0.273270 0.693228 0.939621
C38_18 C 0.2726(3) 0.7092(3) 0.9811(4)
H21_18 H 0.536163 0.73808 0.977522
H22_18 H 0.566149 0.746613 0.960889
H23_18 H 0.5096 0.904768 0.969543
H24_18 H 0.53743 0.905927 0.991286
O1_19 O 0.51397(16) 0.34119(16) 0.52819(16)
O2_19 O 0.50554(19) 0.29205(16) 0.53011(19)
O3_10 O 0.93188(18) 0.14621(15) 0.48485(15)
O4_10 O 0.92378(19) 0.19454(17) 0.47268(18)
O9_19 O 0.4552(2) 0.25005(17) 0.5383(2)
O10_19 O 0.48121(19) 0.39582(15) 0.51303(19)
N1_19 N 0.7966(2) 0.1493(2) 0.5089(3)
N2_19 N 0.6448(2) 0.3004(2) 0.5374(3)
C1_19 C 0.8141(3) 0.0289(3) 0.5265(3)
C2_19 C 0.80789(18) 0.06037(13) 0.5229(2)
C3_19 C 0.83021(14) 0.07875(17) 0.5139(2)
H1_19 H 0.849146 0.071132 0.510464
C4_19 C 0.82482(16) 0.10829(16) 0.5099(2)
C5_19 C 0.79711(19) 0.11945(14) 0.5149(3)
C6_19 C 0.77479(15) 0.10106(19) 0.5240(2)
H2_19 H 0.755853 0.108683 0.527402
C7_19 C 0.78018(16) 0.07152(17) 0.5280(2)
H3_19 H 0.764928 0.058957 0.534118
C8_19 C 0.88251(13) 0.16446(17) 0.4876(2)
C9_19 C 0.87176(16) 0.13715(14) 0.4951(2)
H4_19 H 0.884353 0.120715 0.495079
C10_19 C 0.84259(17) 0.13387(14) 0.5025(2)
C11_19 C 0.82416(14) 0.15792(18) 0.5025(3)
C12_19 C 0.83491(17) 0.18523(15) 0.4950(2)
H5_19 H 0.822315 0.201658 0.495010
C13_19 C 0.86408(18) 0.18850(13) 0.4876(2)
H6_19 H 0.871426 0.207165 0.482444
C14_19 C 0.66198(16) 0.38830(12) 0.5364(2)
C15_19 C 0.63394(13) 0.37691(15) 0.5353(2)
H7_19 H 0.617650 0.389614 0.533900
C16_19 C 0.62972(13) 0.34693(16) 0.5362(2)
C17_19 C 0.65355(17) 0.32834(12) 0.5382(2)
C18_19 C 0.68160(14) 0.33973(15) 0.5393(2)
H8_19 H 0.697884 0.327029 0.540681
C19_19 C 0.68581(12) 0.36971(16) 0.5384(2)
H9_19 H 0.704978 0.377501 0.539152
C20_19 C 0.5223(3) 0.3140(3) 0.5301(3)
C21_19 C 0.55454(12) 0.30944(16) 0.5317(2)
C22_19 C 0.56524(16) 0.28110(13) 0.5322(2)
H10_19 H 0.552154 0.265084 0.531362
C23_19 C 0.59509(17) 0.27621(12) 0.5338(2)
H11_19 H 0.602402 0.256849 0.534088
C24_19 C 0.61424(13) 0.29965(17) 0.5350(2)
C25_19 C 0.60353(15) 0.32799(14) 0.5345(2)
C26_19 C 0.57369(16) 0.33288(12) 0.5329(2)
H12_19 H 0.566372 0.352244 0.532584
C27_19 C 0.9141(3) 0.1689(4) 0.4804(3)
C28_19 C 0.6666(3) 0.4208(3) 0.5355(3)
C29_19 C 0.7028(2) 0.2300(2) 0.5269(3)
C30_19 C 0.6817(2) 0.2343(2) 0.5057(2)
H13_19 H 0.680863 0.221752 0.489215
C31_19 C 0.6617(2) 0.2568(2) 0.5086(3)
H14_19 H 0.647212 0.259759 0.494027
C32_19 C 0.6628(2) 0.2751(2) 0.5327(3)
C33_19 C 0.6840(3) 0.2709(2) 0.5539(3)
H15_19 H 0.684793 0.283366 0.570386
C34_19 C 0.7040(2) 0.2483(2) 0.5511(3)
H16_19 H 0.718444 0.245359 0.565574
C35_19 C 0.7698(3) 0.1669(3) 0.5103(4)
C36_19 C 0.7568(3) 0.1700(3) 0.5375(3)
H17_19 H 0.762463 0.157592 0.553073
C37_19 C 0.7356(3) 0.1911(3) 0.5418(3)
H18_19 H 0.726730 0.193228 0.560379
C38_19 C 0.7274(3) 0.2092(3) 0.5189(4)
C39_19 C 0.7404(3) 0.2061(3) 0.4918(3)
H19_19 H 0.734719 0.218511 0.476134
C40_19 C 0.7616(3) 0.1850(3) 0.4874(3)
H20_19 H 0.770452 0.182876 0.468827
O11_10 O 0.43188(18) 0.35379(15) 0.51515(15)
O12_10 O 0.42378(19) 0.30546(17) 0.52732(18)
O13_15 O 0.47737(16) 0.33896(15) 0.48008(16)
O14_15 O 0.46527(19) 0.29296(17) 0.48731(19)
H21_19 H 0.463837 0.23808 0.522478
H22_19 H 0.433851 0.246613 0.539111
H23_19 H 0.4904 0.404768 0.530457
H24_19 H 0.46257 0.405927 0.508714
O1_20 O 0.01397(16) 0.15881(16) 0.47181(16)
O2_20 O 0.00554(19) 0.20795(16) 0.46989(19)
N1_20 N 0.2966(2) 0.3507(2) 0.4911(3)
N2_20 N 0.1448(2) 0.1996(2) 0.4626(3)
C1_20 C 0.3141(3) 0.4711(3) 0.4735(3)
C2_20 C 0.30789(18) 0.43963(13) 0.4771(2)
C3_20 C 0.33021(14) 0.42125(17) 0.4861(2)
H1_20 H 0.349146 0.428868 0.489536
C4_20 C 0.32482(16) 0.39171(16) 0.4901(2)
C5_20 C 0.29711(19) 0.38055(14) 0.4851(3)
C6_20 C 0.27479(15) 0.39894(19) 0.4760(2)
H2_20 H 0.255853 0.391317 0.472598
C7_20 C 0.28018(16) 0.42848(17) 0.4720(2)
H3_20 H 0.264928 0.441043 0.465882
C8_20 C 0.38251(13) 0.33554(17) 0.5124(2)
C9_20 C 0.37176(16) 0.36285(14) 0.5049(2)
H4_20 H 0.384353 0.379285 0.504921
C10_20 C 0.34259(17) 0.36613(14) 0.4975(2)
C11_20 C 0.32416(14) 0.34208(18) 0.4975(3)
C12_20 C 0.33491(17) 0.31477(15) 0.5050(2)
H5_20 H 0.322315 0.298342 0.504990
C13_20 C 0.36408(18) 0.31150(13) 0.5124(2)
H6_20 H 0.371426 0.292835 0.517556
C14_20 C 0.16198(16) 0.11170(12) 0.4636(2)
C15_20 C 0.13394(13) 0.12309(15) 0.4647(2)
H7_20 H 0.117650 0.110386 0.466100
C16_20 C 0.12972(13) 0.15307(16) 0.4638(2)
C17_20 C 0.15355(17) 0.17166(12) 0.4618(2)
C18_20 C 0.18160(14) 0.16027(15) 0.4607(2)
H8_20 H 0.197884 0.172971 0.459319
C19_20 C 0.18581(12) 0.13029(16) 0.4616(2)
H9_20 H 0.204978 0.122499 0.460848
C20_20 C 0.0223(3) 0.1860(3) 0.4699(3)
C21_20 C 0.05454(12) 0.19056(16) 0.4683(2)
C22_20 C 0.06524(16) 0.21890(13) 0.4678(2)
H10_20 H 0.052154 0.234916 0.468638
C23_20 C 0.09509(17) 0.22379(12) 0.4662(2)
H11_20 H 0.102402 0.243151 0.465912
C24_20 C 0.11424(13) 0.20035(17) 0.4650(2)
C25_20 C 0.10353(15) 0.17201(14) 0.4655(2)
C26_20 C 0.07369(16) 0.16712(12) 0.4671(2)
H12_20 H 0.066372 0.147756 0.467416
C27_20 C 0.4141(3) 0.3311(4) 0.5196(3)
C28_20 C 0.1666(3) 0.0792(3) 0.4645(3)
C29_20 C 0.2028(2) 0.2700(2) 0.4731(3)
C30_20 C 0.1817(2) 0.2657(2) 0.4943(2)
H13_20 H 0.180863 0.278248 0.510785
C31_20 C 0.1617(2) 0.2432(2) 0.4914(3)
H14_20 H 0.147212 0.240241 0.505973
C32_20 C 0.1628(2) 0.2249(2) 0.4673(3)
C33_20 C 0.1840(3) 0.2291(2) 0.4461(3)
H15_20 H 0.184793 0.216634 0.429614
C34_20 C 0.2040(2) 0.2517(2) 0.4489(3)
H16_20 H 0.218444 0.254641 0.434426
C35_20 C 0.2698(3) 0.3331(3) 0.4897(4)
C36_20 C 0.2568(3) 0.3300(3) 0.4625(3)
H17_20 H 0.262463 0.342408 0.446927
C37_20 C 0.2356(3) 0.3089(3) 0.4582(3)
H18_20 H 0.226730 0.306772 0.439621
C38_20 C 0.2274(3) 0.2908(3) 0.4811(4)
C39_20 C 0.2404(3) 0.2939(3) 0.5082(3)
H19_20 H 0.234719 0.281489 0.523866
C40_20 C 0.2616(3) 0.3150(3) 0.5126(3)
H20_20 H 0.270452 0.317124 0.531173
O9_20 O 0.9552(2) 0.24995(17) 0.4617(2)
O10_20 O 0.98121(19) 0.10418(15) 0.48697(19)
O13_16 O 0.97737(16) 0.16104(15) 0.51992(16)
O14_16 O 0.96527(19) 0.20704(17) 0.51269(19)
H21_20 H 0.963837 0.26192 0.477522
H22_20 H 0.933851 0.253387 0.460889
H23_20 H 0.9904 0.0952317 0.469543
H24_20 H 0.96257 0.0940731 0.491286
O9_21 O 0.0383(2) 0.0448(2) 0.74995(17)
O10_21 O 0.01303(19) 0.01879(19) 0.60418(15)
O11_11 O 0.01515(15) 0.06812(18) 0.64621(15)
O12_11 O 0.02732(18) 0.07622(19) 0.69454(17)
H21_21 H 0.0224779 0.0361628 0.76192
H22_21 H 0.0391106 0.0661486 0.753387
H23_21 H 0.0304574 0.0096004 0.595232
H24_21 H 0.0087137 0.0374301 0.594073
O1_21 O 0.02819(16) 0.98603(16) 0.65881(16)
O2_21 O 0.03011(19) 0.99446(19) 0.70795(16)
N1_21 N 0.0089(3) 0.7034(2) 0.8507(2)
N2_21 N 0.0374(3) 0.8552(2) 0.6996(2)
C1_21 C 0.0265(3) 0.6859(3) 0.9711(3)
C2_21 C 0.0229(2) 0.69211(18) 0.93963(13)
C3_21 C 0.0139(2) 0.66979(14) 0.92125(17)
H1_21 H 0.010464 0.650854 0.928868
C4_21 C 0.0099(2) 0.67518(16) 0.89171(16)
C5_21 C 0.0149(3) 0.70289(19) 0.88055(14)
C6_21 C 0.0240(2) 0.72521(15) 0.89894(19)
H2_21 H 0.027402 0.744147 0.891317
C7_21 C 0.0280(2) 0.71982(16) 0.92848(17)
H3_21 H 0.034118 0.735072 0.941043
C10_21 C 0.0025(2) 0.65741(17) 0.86613(14)
C11_21 C 0.0025(3) 0.67584(14) 0.84208(18)
C14_21 C 0.0364(2) 0.83802(16) 0.61170(12)
C15_21 C 0.0353(2) 0.86606(13) 0.62309(15)
H7_21 H 0.033900 0.882350 0.610386
C16_21 C 0.0362(2) 0.87028(13) 0.65307(16)
C17_21 C 0.0382(2) 0.84645(17) 0.67166(12)
C18_21 C 0.0393(2) 0.81840(14) 0.66027(15)
H8_21 H 0.040681 0.802116 0.672971
C19_21 C 0.0384(2) 0.81419(12) 0.63029(16)
H9_21 H 0.039152 0.795022 0.622499
C20_21 C 0.0301(3) 0.9777(3) 0.6860(3)
C21_21 C 0.0317(2) 0.94546(12) 0.69056(16)
C22_21 C 0.0322(2) 0.93476(16) 0.71890(13)
H10_21 H 0.031362 0.947846 0.734916
C23_21 C 0.0338(2) 0.90491(17) 0.72379(12)
H11_21 H 0.034088 0.897598 0.743151
C24_21 C 0.0350(2) 0.88576(13) 0.70035(17)
C25_21 C 0.0345(2) 0.89647(15) 0.67201(14)
C26_21 C 0.0329(2) 0.92631(16) 0.66712(12)
H12_21 H 0.032584 0.933628 0.647756
C28_21 C 0.0355(3) 0.8334(3) 0.5792(3)
C29_21 C 0.0269(3) 0.7972(2) 0.7700(2)
C30_21 C 0.0057(2) 0.8183(2) 0.7657(2)
C31_21 C 0.0086(3) 0.8383(2) 0.7432(2)
C32_21 C 0.0327(3) 0.8372(2) 0.7249(2)
C33_21 C 0.0539(3) 0.8160(3) 0.7291(2)
H15_21 H 0.070386 0.815207 0.716634
C34_21 C 0.0511(3) 0.7960(2) 0.7517(2)
H16_21 H 0.065574 0.781556 0.754641
C35_21 C 0.0103(4) 0.7302(3) 0.8331(3)
C36_21 C 0.0375(3) 0.7432(3) 0.8300(3)
H17_21 H 0.053073 0.737537 0.842408
C37_21 C 0.0418(3) 0.7644(3) 0.8089(3)
H18_21 H 0.060379 0.773270 0.806772
C38_21 C 0.0189(4) 0.7726(3) 0.7908(3)
O3_11 O 0.98485(15) 0.56812(18) 0.85379(15)
O4_11 O 0.97268(18) 0.57622(19) 0.80546(17)
C8_21 C 0.9876(2) 0.61749(13) 0.83554(17)
C9_21 C 0.9951(2) 0.62824(16) 0.86285(14)
H4_21 H 0.995079 0.615647 0.879285
C12_21 C 0.9950(2) 0.66509(17) 0.81477(15)
H5_21 H 0.995010 0.677685 0.798342
C13_21 C 0.9876(2) 0.63592(18) 0.81150(13)
H6_21 H 0.982444 0.628574 0.792835
C27_21 C 0.9804(3) 0.5859(3) 0.8311(4)
H13_21 H 0.989215 0.819137 0.778248
H14_21 H 0.994027 0.852788 0.740241
C39_21 C 0.9918(3) 0.7596(3) 0.7939(3)
H19_21 H 0.976134 0.765281 0.781489
C40_21 C 0.9874(3) 0.7384(3) 0.8150(3)
H20_21 H 0.968827 0.729548 0.817124
C8_22 C 0.0124(2) 0.11749(13) 0.66446(17)
C9_22 C 0.0049(2) 0.12824(16) 0.63715(14)
H4_22 H 0.004921 0.115647 0.620715
C12_22 C 0.0050(2) 0.16509(17) 0.68523(15)
H5_22 H 0.004990 0.177685 0.701658
C13_22 C 0.0124(2) 0.13592(18) 0.68850(13)
H6_22 H 0.017556 0.128574 0.707165
C27_22 C 0.0196(3) 0.0859(3) 0.6689(4)
H13_22 H 0.010785 0.319137 0.721752
H14_22 H 0.005973 0.352788 0.759759
C39_22 C 0.0082(3) 0.2596(3) 0.7061(3)
H19_22 H 0.023866 0.265281 0.718511
C40_22 C 0.0126(3) 0.2384(3) 0.6850(3)
H20_22 H 0.031173 0.229548 0.682876
O1_22 O 0.97181(16) 0.48603(16) 0.84119(16)
O2_22 O 0.96989(19) 0.49446(19) 0.79205(16)
O9_22 O 0.9617(2) 0.5448(2) 0.75005(17)
O10_22 O 0.98697(19) 0.51879(19) 0.89582(15)
N1_22 N 0.9911(3) 0.2034(2) 0.6493(2)
N2_22 N 0.9626(3) 0.3552(2) 0.8004(2)
C1_22 C 0.9735(3) 0.1859(3) 0.5289(3)
C2_22 C 0.9771(2) 0.19211(18) 0.56037(13)
C3_22 C 0.9861(2) 0.16979(14) 0.57875(17)
H1_22 H 0.989536 0.150854 0.571132
C4_22 C 0.9901(2) 0.17518(16) 0.60829(16)
C5_22 C 0.9851(3) 0.20289(19) 0.61945(14)
C6_22 C 0.9760(2) 0.22521(15) 0.60106(19)
H2_22 H 0.972598 0.244147 0.608683
C7_22 C 0.9720(2) 0.21982(16) 0.57152(17)
H3_22 H 0.965882 0.235072 0.558957
C10_22 C 0.9975(2) 0.15741(17) 0.63387(14)
C11_22 C 0.9975(3) 0.17584(14) 0.65792(18)
C14_22 C 0.9636(2) 0.33802(16) 0.88830(12)
C15_22 C 0.9647(2) 0.36606(13) 0.87691(15)
H7_22 H 0.966100 0.382350 0.889614
C16_22 C 0.9638(2) 0.37028(13) 0.84693(16)
C17_22 C 0.9618(2) 0.34645(17) 0.82834(12)
C18_22 C 0.9607(2) 0.31840(14) 0.83973(15)
H8_22 H 0.959319 0.302116 0.827029
C19_22 C 0.9616(2) 0.31419(12) 0.86971(16)
H9_22 H 0.960848 0.295022 0.877501
C20_22 C 0.9699(3) 0.4777(3) 0.8140(3)
C21_22 C 0.9683(2) 0.44546(12) 0.80944(16)
C22_22 C 0.9678(2) 0.43476(16) 0.78110(13)
H10_22 H 0.968638 0.447846 0.765084
C23_22 C 0.9662(2) 0.40491(17) 0.77621(12)
H11_22 H 0.965912 0.397598 0.756849
C24_22 C 0.9650(2) 0.38576(13) 0.79965(17)
C25_22 C 0.9655(2) 0.39647(15) 0.82799(14)
C26_22 C 0.9671(2) 0.42631(16) 0.83288(12)
H12_22 H 0.967416 0.433628 0.852244
C28_22 C 0.9645(3) 0.3334(3) 0.9208(3)
C29_22 C 0.9731(3) 0.2972(2) 0.7300(2)
C30_22 C 0.9943(2) 0.3183(2) 0.7343(2)
C31_22 C 0.9914(3) 0.3383(2) 0.7568(2)
C32_22 C 0.9673(3) 0.3372(2) 0.7751(2)
C33_22 C 0.9461(3) 0.3160(3) 0.7709(2)
H15_22 H 0.929614 0.315207 0.783366
C34_22 C 0.9489(3) 0.2960(2) 0.7483(2)
H16_22 H 0.934426 0.281556 0.745359
C35_22 C 0.9897(4) 0.2302(3) 0.6669(3)
C36_22 C 0.9625(3) 0.2432(3) 0.6700(3)
H17_22 H 0.946927 0.237537 0.657592
C37_22 C 0.9582(3) 0.2644(3) 0.6911(3)
H18_22 H 0.939621 0.273270 0.693228
C38_22 C 0.9811(4) 0.2726(3) 0.7092(3)
H21_22 H 0.977522 0.536163 0.73808
H22_22 H 0.960889 0.566149 0.746613
H23_22 H 0.969543 0.5096 0.904768
H24_22 H 0.991286 0.53743 0.905927
O1_23 O 0.52819(16) 0.51397(16) 0.34119(16)
O2_23 O 0.53011(19) 0.50554(19) 0.29205(16)
O3_12 O 0.48485(15) 0.93188(18) 0.14621(15)
O4_12 O 0.47268(18) 0.92378(19) 0.19454(17)
O9_23 O 0.5383(2) 0.4552(2) 0.25005(17)
O10_23 O 0.51303(19) 0.48121(19) 0.39582(15)
N1_23 N 0.5089(3) 0.7966(2) 0.1493(2)
N2_23 N 0.5374(3) 0.6448(2) 0.3004(2)
C1_23 C 0.5265(3) 0.8141(3) 0.0289(3)
C2_23 C 0.5229(2) 0.80789(18) 0.06037(13)
C3_23 C 0.5139(2) 0.83021(14) 0.07875(17)
H1_23 H 0.510464 0.849146 0.071132
C4_23 C 0.5099(2) 0.82482(16) 0.10829(16)
C5_23 C 0.5149(3) 0.79711(19) 0.11945(14)
C6_23 C 0.5240(2) 0.77479(15) 0.10106(19)
H2_23 H 0.527402 0.755853 0.108683
C7_23 C 0.5280(2) 0.78018(16) 0.07152(17)
H3_23 H 0.534118 0.764928 0.058957
C8_23 C 0.4876(2) 0.88251(13) 0.16446(17)
C9_23 C 0.4951(2) 0.87176(16) 0.13715(14)
H4_23 H 0.495079 0.884353 0.120715
C10_23 C 0.5025(2) 0.84259(17) 0.13387(14)
C11_23 C 0.5025(3) 0.82416(14) 0.15792(18)
C12_23 C 0.4950(2) 0.83491(17) 0.18523(15)
H5_23 H 0.495010 0.822315 0.201658
C13_23 C 0.4876(2) 0.86408(18) 0.18850(13)
H6_23 H 0.482444 0.871426 0.207165
C14_23 C 0.5364(2) 0.66198(16) 0.38830(12)
C15_23 C 0.5353(2) 0.63394(13) 0.37691(15)
H7_23 H 0.533900 0.617650 0.389614
C16_23 C 0.5362(2) 0.62972(13) 0.34693(16)
C17_23 C 0.5382(2) 0.65355(17) 0.32834(12)
C18_23 C 0.5393(2) 0.68160(14) 0.33973(15)
H8_23 H 0.540681 0.697884 0.327029
C19_23 C 0.5384(2) 0.68581(12) 0.36971(16)
H9_23 H 0.539152 0.704978 0.377501
C20_23 C 0.5301(3) 0.5223(3) 0.3140(3)
C21_23 C 0.5317(2) 0.55454(12) 0.30944(16)
C22_23 C 0.5322(2) 0.56524(16) 0.28110(13)
H10_23 H 0.531362 0.552154 0.265084
C23_23 C 0.5338(2) 0.59509(17) 0.27621(12)
H11_23 H 0.534088 0.602402 0.256849
C24_23 C 0.5350(2) 0.61424(13) 0.29965(17)
C25_23 C 0.5345(2) 0.60353(15) 0.32799(14)
C26_23 C 0.5329(2) 0.57369(16) 0.33288(12)
H12_23 H 0.532584 0.566372 0.352244
C27_23 C 0.4804(3) 0.9141(3) 0.1689(4)
C28_23 C 0.5355(3) 0.6666(3) 0.4208(3)
C29_23 C 0.5269(3) 0.7028(2) 0.2300(2)
C30_23 C 0.5057(2) 0.6817(2) 0.2343(2)
H13_23 H 0.489215 0.680863 0.221752
C31_23 C 0.5086(3) 0.6617(2) 0.2568(2)
H14_23 H 0.494027 0.647212 0.259759
C32_23 C 0.5327(3) 0.6628(2) 0.2751(2)
C33_23 C 0.5539(3) 0.6840(3) 0.2709(2)
H15_23 H 0.570386 0.684793 0.283366
C34_23 C 0.5511(3) 0.7040(2) 0.2483(2)
H16_23 H 0.565574 0.718444 0.245359
C35_23 C 0.5103(4) 0.7698(3) 0.1669(3)
C36_23 C 0.5375(3) 0.7568(3) 0.1700(3)
H17_23 H 0.553073 0.762463 0.157592
C37_23 C 0.5418(3) 0.7356(3) 0.1911(3)
H18_23 H 0.560379 0.726730 0.193228
C38_23 C 0.5189(4) 0.7274(3) 0.2092(3)
C39_23 C 0.4918(3) 0.7404(3) 0.2061(3)
H19_23 H 0.476134 0.734719 0.218511
C40_23 C 0.4874(3) 0.7616(3) 0.1850(3)
H20_23 H 0.468827 0.770452 0.182876
O11_12 O 0.51515(15) 0.43188(18) 0.35379(15)
O12_12 O 0.52732(18) 0.42378(19) 0.30546(17)
H21_23 H 0.522478 0.463837 0.23808
H22_23 H 0.539111 0.433851 0.246613
H23_23 H 0.530457 0.4904 0.404768
H24_23 H 0.508714 0.46257 0.405927
O1_24 O 0.47181(16) 0.01397(16) 0.15881(16)
O2_24 O 0.46989(19) 0.00554(19) 0.20795(16)
N1_24 N 0.4911(3) 0.2966(2) 0.3507(2)
N2_24 N 0.4626(3) 0.1448(2) 0.1996(2)
C1_24 C 0.4735(3) 0.3141(3) 0.4711(3)
C2_24 C 0.4771(2) 0.30789(18) 0.43963(13)
C3_24 C 0.4861(2) 0.33021(14) 0.42125(17)
H1_24 H 0.489536 0.349146 0.428868
C4_24 C 0.4901(2) 0.32482(16) 0.39171(16)
C5_24 C 0.4851(3) 0.29711(19) 0.38055(14)
C6_24 C 0.4760(2) 0.27479(15) 0.39894(19)
H2_24 H 0.472598 0.255853 0.391317
C7_24 C 0.4720(2) 0.28018(16) 0.42848(17)
H3_24 H 0.465882 0.264928 0.441043
C8_24 C 0.5124(2) 0.38251(13) 0.33554(17)
C9_24 C 0.5049(2) 0.37176(16) 0.36285(14)
H4_24 H 0.504921 0.384353 0.379285
C10_24 C 0.4975(2) 0.34259(17) 0.36613(14)
C11_24 C 0.4975(3) 0.32416(14) 0.34208(18)
C12_24 C 0.5050(2) 0.33491(17) 0.31477(15)
H5_24 H 0.504990 0.322315 0.298342
C13_24 C 0.5124(2) 0.36408(18) 0.31150(13)
H6_24 H 0.517556 0.371426 0.292835
C14_24 C 0.4636(2) 0.16198(16) 0.11170(12)
C15_24 C 0.4647(2) 0.13394(13) 0.12309(15)
H7_24 H 0.466100 0.117650 0.110386
C16_24 C 0.4638(2) 0.12972(13) 0.15307(16)
C17_24 C 0.4618(2) 0.15355(17) 0.17166(12)
C18_24 C 0.4607(2) 0.18160(14) 0.16027(15)
H8_24 H 0.459319 0.197884 0.172971
C19_24 C 0.4616(2) 0.18581(12) 0.13029(16)
H9_24 H 0.460848 0.204978 0.122499
C20_24 C 0.4699(3) 0.0223(3) 0.1860(3)
C21_24 C 0.4683(2) 0.05454(12) 0.19056(16)
C22_24 C 0.4678(2) 0.06524(16) 0.21890(13)
H10_24 H 0.468638 0.052154 0.234916
C23_24 C 0.4662(2) 0.09509(17) 0.22379(12)
H11_24 H 0.465912 0.102402 0.243151
C24_24 C 0.4650(2) 0.11424(13) 0.20035(17)
C25_24 C 0.4655(2) 0.10353(15) 0.17201(14)
C26_24 C 0.4671(2) 0.07369(16) 0.16712(12)
H12_24 H 0.467416 0.066372 0.147756
C27_24 C 0.5196(3) 0.4141(3) 0.3311(4)
C28_24 C 0.4645(3) 0.1666(3) 0.0792(3)
C29_24 C 0.4731(3) 0.2028(2) 0.2700(2)
C30_24 C 0.4943(2) 0.1817(2) 0.2657(2)
H13_24 H 0.510785 0.180863 0.278248
C31_24 C 0.4914(3) 0.1617(2) 0.2432(2)
H14_24 H 0.505973 0.147212 0.240241
C32_24 C 0.4673(3) 0.1628(2) 0.2249(2)
C33_24 C 0.4461(3) 0.1840(3) 0.2291(2)
H15_24 H 0.429614 0.184793 0.216634
C34_24 C 0.4489(3) 0.2040(2) 0.2517(2)
H16_24 H 0.434426 0.218444 0.254641
C35_24 C 0.4897(4) 0.2698(3) 0.3331(3)
C36_24 C 0.4625(3) 0.2568(3) 0.3300(3)
H17_24 H 0.446927 0.262463 0.342408
C37_24 C 0.4582(3) 0.2356(3) 0.3089(3)
H18_24 H 0.439621 0.226730 0.306772
C38_24 C 0.4811(4) 0.2274(3) 0.2908(3)
C39_24 C 0.5082(3) 0.2404(3) 0.2939(3)
H19_24 H 0.523866 0.234719 0.281489
C40_24 C 0.5126(3) 0.2616(3) 0.3150(3)
H20_24 H 0.531173 0.270452 0.317124
O9_24 O 0.4617(2) 0.9552(2) 0.24995(17)
O10_24 O 0.48697(19) 0.98121(19) 0.10418(15)
H21_24 H 0.477522 0.963837 0.26192
H22_24 H 0.460889 0.933851 0.253387
H23_24 H 0.469543 0.9904 0.0952317
H24_24 H 0.491286 0.96257 0.0940731
loop_
_geom_bond_atom_site_label_1
_geom_bond_atom_site_label_2
_geom_bond_site_symmetry_1
_geom_bond_site_symmetry_2
O3 C27 1_555 1_555
O4 C27 1_555 1_555
C8 C9 1_555 1_555
C9 H4 1_555 1_555
H5 C12 1_555 1_555
C13 C8 1_555 1_555
H6 C13 1_555 1_555
C27 C8 1_555 1_555
H19 C39 1_555 1_555
H20 C40 1_555 1_555
Cu3 O3 1_555 1_555
Cu6 O4 1_555 1_555
C12 C13 1_555 1_555
C39 C40 1_555 1_555
O1 C20 1_555 1_555
O2 C20 1_555 1_555
O5 C1 1_555 1_555
O6 C1 1_555 1_555
O7 C28 1_555 1_555
O8 C28 1_555 1_555
N1 C5 1_555 1_555
N2 C17 1_555 1_555
C1 C2 1_555 1_555
C2 C3 1_555 1_555
C3 H1 1_555 1_555
C4 C3 1_555 1_555
C5 C4 1_555 1_555
C6 C5 1_555 1_555
H2 C6 1_555 1_555
C7 C2 1_555 1_555
H3 C7 1_555 1_555
C10 C4 1_555 1_555
C11 N1 1_555 1_555
C14 C15 1_555 1_555
C15 H7 1_555 1_555
C16 C15 1_555 1_555
C17 C16 1_555 1_555
C18 C17 1_555 1_555
H8 C18 1_555 1_555
C19 C14 1_555 1_555
H9 C19 1_555 1_555
C20 C21 1_555 1_555
C21 C22 1_555 1_555
C22 H10 1_555 1_555
C23 C22 1_555 1_555
H11 C23 1_555 1_555
C24 N2 1_555 1_555
C25 C16 1_555 1_555
C26 C21 1_555 1_555
H12 C26 1_555 1_555
C28 C14 1_555 1_555
C29 C30 1_555 1_555
C31 C30 1_555 1_555
C32 N2 1_555 1_555
C33 C32 1_555 1_555
H15 C33 1_555 1_555
C34 C29 1_555 1_555
H16 C34 1_555 1_555
C35 N1 1_555 1_555
C36 C35 1_555 1_555
H17 C36 1_555 1_555
C37 C36 1_555 1_555
H18 C37 1_555 1_555
C38 C29 1_555 1_555
Cu5 O7 1_555 1_555
Cu8 O8 1_555 1_555
C6 C7 1_555 1_555
C10 C11 1_555 1_555
C18 C19 1_555 1_555
C23 C24 1_555 1_555
C24 C25 1_555 1_555
C25 C26 1_555 1_555
C31 C32 1_555 1_555
C33 C34 1_555 1_555
C37 C38 1_555 1_555
O9 Cu2 1_555 1_555
O10 Cu1 1_555 1_555
O11 Cu1 1_555 1_555
O12 Cu2 1_555 1_555
O15 Cu1 1_555 1_555
O16 Cu2 1_555 1_555
O9 H21 1_555 1_555
O9 H22 1_555 1_555
O10 H23 1_555 1_555
O10 H24 1_555 1_555
Cu3 O1_2 1_555 1_555
Cu6 O2_2 1_555 1_555
O1_2 C20_2 1_555 1_555
O2_2 C20_2 1_555 1_555
O5_2 C1_2 1_555 1_555
O6_2 C1_2 1_555 1_555
O7_2 C28_2 1_555 1_555
O8_2 C28_2 1_555 1_555
O9_2 Cu6 1_555 1_555
O10_2 Cu3 1_555 1_555
N1_2 C5_2 1_555 1_555
N2_2 C17_2 1_555 1_555
C1_2 C2_2 1_555 1_555
C2_2 C3_2 1_555 1_555
C3_2 H1_2 1_555 1_555
C4_2 C3_2 1_555 1_555
C5_2 C4_2 1_555 1_555
C6_2 C5_2 1_555 1_555
H2_2 C6_2 1_555 1_555
C7_2 C2_2 1_555 1_555
H3_2 C7_2 1_555 1_555
C10_2 C4_2 1_555 1_555
C11_2 N1_2 1_555 1_555
C14_2 C15_2 1_555 1_555
C15_2 H7_2 1_555 1_555
C16_2 C15_2 1_555 1_555
C17_2 C16_2 1_555 1_555
C18_2 C17_2 1_555 1_555
H8_2 C18_2 1_555 1_555
C19_2 C14_2 1_555 1_555
H9_2 C19_2 1_555 1_555
C20_2 C21_2 1_555 1_555
C21_2 C22_2 1_555 1_555
C22_2 H10_2 1_555 1_555
C23_2 C22_2 1_555 1_555
H11_2 C23_2 1_555 1_555
C24_2 N2_2 1_555 1_555
C25_2 C16_2 1_555 1_555
C26_2 C21_2 1_555 1_555
H12_2 C26_2 1_555 1_555
C28_2 C14_2 1_555 1_555
C29_2 C30_2 1_555 1_555
C31_2 C30_2 1_555 1_555
C32_2 N2_2 1_555 1_555
C33_2 C32_2 1_555 1_555
H15_2 C33_2 1_555 1_555
C34_2 C29_2 1_555 1_555
H16_2 C34_2 1_555 1_555
C35_2 N1_2 1_555 1_555
C36_2 C35_2 1_555 1_555
H17_2 C36_2 1_555 1_555
C37_2 C36_2 1_555 1_555
H18_2 C37_2 1_555 1_555
C38_2 C29_2 1_555 1_555
Cu4_2 O5_2 1_555 1_555
Cu5_2 O7_2 1_555 1_555
Cu7_2 O6_2 1_555 1_555
Cu8_2 O8_2 1_555 1_555
O15_2 Cu3 1_555 1_555
O16_2 Cu6 1_555 1_555
C6_2 C7_2 1_555 1_555
C10_2 C11_2 1_555 1_555
C18_2 C19_2 1_555 1_555
C23_2 C24_2 1_555 1_555
C24_2 C25_2 1_555 1_555
C25_2 C26_2 1_555 1_555
C31_2 C32_2 1_555 1_555
C33_2 C34_2 1_555 1_555
C37_2 C38_2 1_555 1_555
O9_2 H21_2 1_555 1_555
O9_2 H22_2 1_555 1_555
O10_2 H23_2 1_555 1_555
O10_2 H24_2 1_555 1_555
O11 C27_2 1_555 1_555
O12 C27_2 1_555 1_555
C8_2 C9_2 1_555 1_555
C9_2 H4_2 1_555 1_555
H5_2 C12_2 1_555 1_555
C13_2 C8_2 1_555 1_555
H6_2 C13_2 1_555 1_555
C27_2 C8_2 1_555 1_555
H19_2 C39_2 1_555 1_555
H20_2 C40_2 1_555 1_555
C12_2 C13_2 1_555 1_555
C39_2 C40_2 1_555 1_555
Cu1_2 O1_3 1_555 1_555
Cu2_2 O2_3 1_555 1_555
O1_3 C20_3 1_555 1_555
O2_3 C20_3 1_555 1_555
O3_2 C27_3 1_555 1_555
O4_2 C27_3 1_555 1_555
O5_3 C1_3 1_555 1_555
O6_3 C1_3 1_555 1_555
O7_3 C28_3 1_555 1_555
O8_3 C28_3 1_555 1_555
O9_3 Cu2_2 1_555 1_555
O10_3 Cu1_2 1_555 1_555
N1_3 C5_3 1_555 1_555
N2_3 C17_3 1_555 1_555
C1_3 C2_3 1_555 1_555
C2_3 C3_3 1_555 1_555
C3_3 H1_3 1_555 1_555
C4_3 C3_3 1_555 1_555
C5_3 C4_3 1_555 1_555
C6_3 C5_3 1_555 1_555
H2_3 C6_3 1_555 1_555
C7_3 C2_3 1_555 1_555
H3_3 C7_3 1_555 1_555
C8_3 C9_3 1_555 1_555
C9_3 H4_3 1_555 1_555
C10_3 C4_3 1_555 1_555
C11_3 N1_3 1_555 1_555
C12_3 C11_3 1_555 1_555
H5_3 C12_3 1_555 1_555
C13_3 C8_3 1_555 1_555
H6_3 C13_3 1_555 1_555
C14_3 C15_3 1_555 1_555
C15_3 H7_3 1_555 1_555
C16_3 C15_3 1_555 1_555
C17_3 C16_3 1_555 1_555
C18_3 C17_3 1_555 1_555
H8_3 C18_3 1_555 1_555
C19_3 C14_3 1_555 1_555
H9_3 C19_3 1_555 1_555
C20_3 C21_3 1_555 1_555
C21_3 C22_3 1_555 1_555
C22_3 H10_3 1_555 1_555
C23_3 C22_3 1_555 1_555
H11_3 C23_3 1_555 1_555
C24_3 N2_3 1_555 1_555
C25_3 C16_3 1_555 1_555
C26_3 C21_3 1_555 1_555
H12_3 C26_3 1_555 1_555
C27_3 C8_3 1_555 1_555
C28_3 C14_3 1_555 1_555
C29_3 C30_3 1_555 1_555
C30_3 H13_3 1_555 1_555
C31_3 C30_3 1_555 1_555
H14_3 C31_3 1_555 1_555
C32_3 N2_3 1_555 1_555
C33_3 C32_3 1_555 1_555
H15_3 C33_3 1_555 1_555
C34_3 C29_3 1_555 1_555
H16_3 C34_3 1_555 1_555
C35_3 N1_3 1_555 1_555
C36_3 C35_3 1_555 1_555
H17_3 C36_3 1_555 1_555
C37_3 C36_3 1_555 1_555
H18_3 C37_3 1_555 1_555
C38_3 C29_3 1_555 1_555
C39_3 C38_3 1_555 1_555
H19_3 C39_3 1_555 1_555
C40_3 C35_3 1_555 1_555
H20_3 C40_3 1_555 1_555
Cu3_2 O3_2 1_555 1_555
Cu5_3 O7_3 1_555 1_555
Cu6_2 O4_2 1_555 1_555
Cu8_3 O8_3 1_555 1_555
O11_2 Cu1_2 1_555 1_555
O12_2 Cu2_2 1_555 1_555
O13_3 Cu1_2 1_555 1_555
O14_3 Cu2_2 1_555 1_555
O15_3 Cu1_2 1_555 1_555
O16_3 Cu2_2 1_555 1_555
C6_3 C7_3 1_555 1_555
C9_3 C10_3 1_555 1_555
C10_3 C11_3 1_555 1_555
C12_3 C13_3 1_555 1_555
C18_3 C19_3 1_555 1_555
C23_3 C24_3 1_555 1_555
C24_3 C25_3 1_555 1_555
C25_3 C26_3 1_555 1_555
C31_3 C32_3 1_555 1_555
C33_3 C34_3 1_555 1_555
C37_3 C38_3 1_555 1_555
C39_3 C40_3 1_555 1_555
O9_3 H21_3 1_555 1_555
O9_3 H22_3 1_555 1_555
O10_3 H23_3 1_555 1_555
O10_3 H24_3 1_555 1_555
O9_4 Cu6_2 1_555 1_555
O10_4 Cu3_2 1_555 1_555
O13_4 Cu3_2 1_555 1_555
O14_4 Cu6_2 1_555 1_555
O15_4 Cu3_2 1_555 1_555
O16_4 Cu6_2 1_555 1_555
O9_4 H21_4 1_555 1_555
O9_4 H22_4 1_555 1_555
O10_4 H23_4 1_555 1_555
O10_4 H24_4 1_555 1_555
O1_4 C20_4 1_555 1_555
O2_4 C20_4 1_555 1_555
O11_2 C27_4 1_555 1_555
O12_2 C27_4 1_555 1_555
O5_4 C1_4 1_555 1_555
O6_4 C1_4 1_555 1_555
O7_4 C28_4 1_555 1_555
O8_4 C28_4 1_555 1_555
N1_4 C5_4 1_555 1_555
N2_4 C17_4 1_555 1_555
C1_4 C2_4 1_555 1_555
C2_4 C3_4 1_555 1_555
C3_4 H1_4 1_555 1_555
C4_4 C3_4 1_555 1_555
C5_4 C4_4 1_555 1_555
C6_4 C5_4 1_555 1_555
H2_4 C6_4 1_555 1_555
C7_4 C2_4 1_555 1_555
H3_4 C7_4 1_555 1_555
C8_4 C9_4 1_555 1_555
C9_4 H4_4 1_555 1_555
C10_4 C4_4 1_555 1_555
C11_4 N1_4 1_555 1_555
C12_4 C11_4 1_555 1_555
H5_4 C12_4 1_555 1_555
C13_4 C8_4 1_555 1_555
H6_4 C13_4 1_555 1_555
C14_4 C15_4 1_555 1_555
C15_4 H7_4 1_555 1_555
C16_4 C15_4 1_555 1_555
C17_4 C16_4 1_555 1_555
C18_4 C17_4 1_555 1_555
H8_4 C18_4 1_555 1_555
C19_4 C14_4 1_555 1_555
H9_4 C19_4 1_555 1_555
C20_4 C21_4 1_555 1_555
C21_4 C22_4 1_555 1_555
C22_4 H10_4 1_555 1_555
C23_4 C22_4 1_555 1_555
H11_4 C23_4 1_555 1_555
C24_4 N2_4 1_555 1_555
C25_4 C16_4 1_555 1_555
C26_4 C21_4 1_555 1_555
H12_4 C26_4 1_555 1_555
C27_4 C8_4 1_555 1_555
C28_4 C14_4 1_555 1_555
C29_4 C30_4 1_555 1_555
C30_4 H13_4 1_555 1_555
C31_4 C30_4 1_555 1_555
H14_4 C31_4 1_555 1_555
C32_4 N2_4 1_555 1_555
C33_4 C32_4 1_555 1_555
H15_4 C33_4 1_555 1_555
C34_4 C29_4 1_555 1_555
H16_4 C34_4 1_555 1_555
C35_4 N1_4 1_555 1_555
C36_4 C35_4 1_555 1_555
H17_4 C36_4 1_555 1_555
C37_4 C36_4 1_555 1_555
H18_4 C37_4 1_555 1_555
C38_4 C29_4 1_555 1_555
C39_4 C38_4 1_555 1_555
H19_4 C39_4 1_555 1_555
C40_4 C35_4 1_555 1_555
H20_4 C40_4 1_555 1_555
Cu4_4 O5_4 1_555 1_555
Cu5_4 O7_4 1_555 1_555
Cu7_4 O6_4 1_555 1_555
Cu8_4 O8_4 1_555 1_555
C6_4 C7_4 1_555 1_555
C9_4 C10_4 1_555 1_555
C10_4 C11_4 1_555 1_555
C12_4 C13_4 1_555 1_555
C18_4 C19_4 1_555 1_555
C23_4 C24_4 1_555 1_555
C24_4 C25_4 1_555 1_555
C25_4 C26_4 1_555 1_555
C31_4 C32_4 1_555 1_555
C33_4 C34_4 1_555 1_555
C37_4 C38_4 1_555 1_555
C39_4 C40_4 1_555 1_555
O3_3 C27_5 1_555 1_555
O4_3 C27_5 1_555 1_555
C8_5 C9_5 1_555 1_555
C9_5 H4_5 1_555 1_555
H5_5 C12_5 1_555 1_555
C13_5 C8_5 1_555 1_555
H6_5 C13_5 1_555 1_555
C27_5 C8_5 1_555 1_555
H19_5 C39_5 1_555 1_555
H20_5 C40_5 1_555 1_555
Cu3_3 O3_3 1_555 1_555
Cu6_3 O4_3 1_555 1_555
C12_5 C13_5 1_555 1_555
C39_5 C40_5 1_555 1_555
O1_5 C20_5 1_555 1_555
O2_5 C20_5 1_555 1_555
O13 C1_5 1_555 1_555
O14 C1_5 1_555 1_555
O7_5 C28_5 1_555 1_555
O8_5 C28_5 1_555 1_555
N1_5 C5_5 1_555 1_555
N2_5 C17_5 1_555 1_555
C1_5 C2_5 1_555 1_555
C2_5 C3_5 1_555 1_555
C3_5 H1_5 1_555 1_555
C4_5 C3_5 1_555 1_555
C5_5 C4_5 1_555 1_555
C6_5 C5_5 1_555 1_555
H2_5 C6_5 1_555 1_555
C7_5 C2_5 1_555 1_555
H3_5 C7_5 1_555 1_555
C10_5 C4_5 1_555 1_555
C11_5 N1_5 1_555 1_555
C14_5 C15_5 1_555 1_555
C15_5 H7_5 1_555 1_555
C16_5 C15_5 1_555 1_555
C17_5 C16_5 1_555 1_555
C18_5 C17_5 1_555 1_555
H8_5 C18_5 1_555 1_555
C19_5 C14_5 1_555 1_555
H9_5 C19_5 1_555 1_555
C20_5 C21_5 1_555 1_555
C21_5 C22_5 1_555 1_555
C22_5 H10_5 1_555 1_555
C23_5 C22_5 1_555 1_555
H11_5 C23_5 1_555 1_555
C24_5 N2_5 1_555 1_555
C25_5 C16_5 1_555 1_555
C26_5 C21_5 1_555 1_555
H12_5 C26_5 1_555 1_555
C28_5 C14_5 1_555 1_555
C29_5 C30_5 1_555 1_555
C31_5 C30_5 1_555 1_555
C32_5 N2_5 1_555 1_555
C33_5 C32_5 1_555 1_555
H15_5 C33_5 1_555 1_555
C34_5 C29_5 1_555 1_555
H16_5 C34_5 1_555 1_555
C35_5 N1_5 1_555 1_555
C36_5 C35_5 1_555 1_555
H17_5 C36_5 1_555 1_555
C37_5 C36_5 1_555 1_555
H18_5 C37_5 1_555 1_555
C38_5 C29_5 1_555 1_555
Cu5_5 O7_5 1_555 1_555
Cu8_5 O8_5 1_555 1_555
C6_5 C7_5 1_555 1_555
C10_5 C11_5 1_555 1_555
C18_5 C19_5 1_555 1_555
C23_5 C24_5 1_555 1_555
C24_5 C25_5 1_555 1_555
C25_5 C26_5 1_555 1_555
C31_5 C32_5 1_555 1_555
C33_5 C34_5 1_555 1_555
C37_5 C38_5 1_555 1_555
O9_5 Cu2_3 1_555 1_555
O10_5 Cu1_3 1_555 1_555
O11_3 Cu1_3 1_555 1_555
O12_3 Cu2_3 1_555 1_555
O15_5 Cu1_3 1_555 1_555
O16_5 Cu2_3 1_555 1_555
O9_5 H21_5 1_555 1_555
O9_5 H22_5 1_555 1_555
O10_5 H23_5 1_555 1_555
O10_5 H24_5 1_555 1_555
Cu3_3 O1_6 1_555 1_555
Cu6_3 O2_6 1_555 1_555
O1_6 C20_6 1_555 1_555
O2_6 C20_6 1_555 1_555
O13_4 C1_6 1_555 1_555
O14_4 C1_6 1_555 1_555
O7_6 C28_6 1_555 1_555
O8_6 C28_6 1_555 1_555
O9_6 Cu6_3 1_555 1_555
O10_6 Cu3_3 1_555 1_555
N1_6 C5_6 1_555 1_555
N2_6 C17_6 1_555 1_555
C1_6 C2_6 1_555 1_555
C2_6 C3_6 1_555 1_555
C3_6 H1_6 1_555 1_555
C4_6 C3_6 1_555 1_555
C5_6 C4_6 1_555 1_555
C6_6 C5_6 1_555 1_555
H2_6 C6_6 1_555 1_555
C7_6 C2_6 1_555 1_555
H3_6 C7_6 1_555 1_555
C10_6 C4_6 1_555 1_555
C11_6 N1_6 1_555 1_555
C14_6 C15_6 1_555 1_555
C15_6 H7_6 1_555 1_555
C16_6 C15_6 1_555 1_555
C17_6 C16_6 1_555 1_555
C18_6 C17_6 1_555 1_555
H8_6 C18_6 1_555 1_555
C19_6 C14_6 1_555 1_555
H9_6 C19_6 1_555 1_555
C20_6 C21_6 1_555 1_555
C21_6 C22_6 1_555 1_555
C22_6 H10_6 1_555 1_555
C23_6 C22_6 1_555 1_555
H11_6 C23_6 1_555 1_555
C24_6 N2_6 1_555 1_555
C25_6 C16_6 1_555 1_555
C26_6 C21_6 1_555 1_555
H12_6 C26_6 1_555 1_555
C28_6 C14_6 1_555 1_555
C29_6 C30_6 1_555 1_555
C31_6 C30_6 1_555 1_555
C32_6 N2_6 1_555 1_555
C33_6 C32_6 1_555 1_555
H15_6 C33_6 1_555 1_555
C34_6 C29_6 1_555 1_555
H16_6 C34_6 1_555 1_555
C35_6 N1_6 1_555 1_555
C36_6 C35_6 1_555 1_555
H17_6 C36_6 1_555 1_555
C37_6 C36_6 1_555 1_555
H18_6 C37_6 1_555 1_555
C38_6 C29_6 1_555 1_555
Cu5_6 O7_6 1_555 1_555
Cu8_6 O8_6 1_555 1_555
O15_6 Cu3_3 1_555 1_555
O16_6 Cu6_3 1_555 1_555
C6_6 C7_6 1_555 1_555
C10_6 C11_6 1_555 1_555
C18_6 C19_6 1_555 1_555
C23_6 C24_6 1_555 1_555
C24_6 C25_6 1_555 1_555
C25_6 C26_6 1_555 1_555
C31_6 C32_6 1_555 1_555
C33_6 C34_6 1_555 1_555
C37_6 C38_6 1_555 1_555
O9_6 H21_6 1_555 1_555
O9_6 H22_6 1_555 1_555
O10_6 H23_6 1_555 1_555
O10_6 H24_6 1_555 1_555
O11_3 C27_6 1_555 1_555
O12_3 C27_6 1_555 1_555
C8_6 C9_6 1_555 1_555
C9_6 H4_6 1_555 1_555
H5_6 C12_6 1_555 1_555
C13_6 C8_6 1_555 1_555
H6_6 C13_6 1_555 1_555
C27_6 C8_6 1_555 1_555
H19_6 C39_6 1_555 1_555
H20_6 C40_6 1_555 1_555
C12_6 C13_6 1_555 1_555
C39_6 C40_6 1_555 1_555
Cu1_4 O1_7 1_555 1_555
Cu2_4 O2_7 1_555 1_555
O1_7 C20_7 1_555 1_555
O2_7 C20_7 1_555 1_555
O3_4 C27_7 1_555 1_555
O4_4 C27_7 1_555 1_555
O13_2 C1_7 1_555 1_555
O14_2 C1_7 1_555 1_555
O7_7 C28_7 1_555 1_555
O8_7 C28_7 1_555 1_555
O9_7 Cu2_4 1_555 1_555
O10_7 Cu1_4 1_555 1_555
N1_7 C5_7 1_555 1_555
N2_7 C17_7 1_555 1_555
C1_7 C2_7 1_555 1_555
C2_7 C3_7 1_555 1_555
C3_7 H1_7 1_555 1_555
C4_7 C3_7 1_555 1_555
C5_7 C4_7 1_555 1_555
C6_7 C5_7 1_555 1_555
H2_7 C6_7 1_555 1_555
C7_7 C2_7 1_555 1_555
H3_7 C7_7 1_555 1_555
C8_7 C9_7 1_555 1_555
C9_7 H4_7 1_555 1_555
C10_7 C4_7 1_555 1_555
C11_7 N1_7 1_555 1_555
C12_7 C11_7 1_555 1_555
H5_7 C12_7 1_555 1_555
C13_7 C8_7 1_555 1_555
H6_7 C13_7 1_555 1_555
C14_7 C15_7 1_555 1_555
C15_7 H7_7 1_555 1_555
C16_7 C15_7 1_555 1_555
C17_7 C16_7 1_555 1_555
C18_7 C17_7 1_555 1_555
H8_7 C18_7 1_555 1_555
C19_7 C14_7 1_555 1_555
H9_7 C19_7 1_555 1_555
C20_7 C21_7 1_555 1_555
C21_7 C22_7 1_555 1_555
C22_7 H10_7 1_555 1_555
C23_7 C22_7 1_555 1_555
H11_7 C23_7 1_555 1_555
C24_7 N2_7 1_555 1_555
C25_7 C16_7 1_555 1_555
C26_7 C21_7 1_555 1_555
H12_7 C26_7 1_555 1_555
C27_7 C8_7 1_555 1_555
C28_7 C14_7 1_555 1_555
C29_7 C30_7 1_555 1_555
C30_7 H13_7 1_555 1_555
C31_7 C30_7 1_555 1_555
H14_7 C31_7 1_555 1_555
C32_7 N2_7 1_555 1_555
C33_7 C32_7 1_555 1_555
H15_7 C33_7 1_555 1_555
C34_7 C29_7 1_555 1_555
H16_7 C34_7 1_555 1_555
C35_7 N1_7 1_555 1_555
C36_7 C35_7 1_555 1_555
H17_7 C36_7 1_555 1_555
C37_7 C36_7 1_555 1_555
H18_7 C37_7 1_555 1_555
C38_7 C29_7 1_555 1_555
C39_7 C38_7 1_555 1_555
H19_7 C39_7 1_555 1_555
C40_7 C35_7 1_555 1_555
H20_7 C40_7 1_555 1_555
Cu3_4 O3_4 1_555 1_555
Cu5_7 O7_7 1_555 1_555
Cu6_4 O4_4 1_555 1_555
Cu8_7 O8_7 1_555 1_555
O11_4 Cu1_4 1_555 1_555
O12_4 Cu2_4 1_555 1_555
O13_7 Cu1_4 1_555 1_555
O14_7 Cu2_4 1_555 1_555
O15_7 Cu1_4 1_555 1_555
O16_7 Cu2_4 1_555 1_555
C6_7 C7_7 1_555 1_555
C9_7 C10_7 1_555 1_555
C10_7 C11_7 1_555 1_555
C12_7 C13_7 1_555 1_555
C18_7 C19_7 1_555 1_555
C23_7 C24_7 1_555 1_555
C24_7 C25_7 1_555 1_555
C25_7 C26_7 1_555 1_555
C31_7 C32_7 1_555 1_555
C33_7 C34_7 1_555 1_555
C37_7 C38_7 1_555 1_555
C39_7 C40_7 1_555 1_555
O9_7 H21_7 1_555 1_555
O9_7 H22_7 1_555 1_555
O10_7 H23_7 1_555 1_555
O10_7 H24_7 1_555 1_555
O9_8 Cu6_4 1_555 1_555
O10_8 Cu3_4 1_555 1_555
O13_8 Cu3_4 1_555 1_555
O14_8 Cu6_4 1_555 1_555
O15_8 Cu3_4 1_555 1_555
O16_8 Cu6_4 1_555 1_555
O9_8 H21_8 1_555 1_555
O9_8 H22_8 1_555 1_555
O10_8 H23_8 1_555 1_555
O10_8 H24_8 1_555 1_555
O1_8 C20_8 1_555 1_555
O2_8 C20_8 1_555 1_555
O11_4 C27_8 1_555 1_555
O12_4 C27_8 1_555 1_555
O13_3 C1_8 1_555 1_555
O14_3 C1_8 1_555 1_555
O7_8 C28_8 1_555 1_555
O8_8 C28_8 1_555 1_555
N1_8 C5_8 1_555 1_555
N2_8 C17_8 1_555 1_555
C1_8 C2_8 1_555 1_555
C2_8 C3_8 1_555 1_555
C3_8 H1_8 1_555 1_555
C4_8 C3_8 1_555 1_555
C5_8 C4_8 1_555 1_555
C6_8 C5_8 1_555 1_555
H2_8 C6_8 1_555 1_555
C7_8 C2_8 1_555 1_555
H3_8 C7_8 1_555 1_555
C8_8 C9_8 1_555 1_555
C9_8 H4_8 1_555 1_555
C10_8 C4_8 1_555 1_555
C11_8 N1_8 1_555 1_555
C12_8 C11_8 1_555 1_555
H5_8 C12_8 1_555 1_555
C13_8 C8_8 1_555 1_555
H6_8 C13_8 1_555 1_555
C14_8 C15_8 1_555 1_555
C15_8 H7_8 1_555 1_555
C16_8 C15_8 1_555 1_555
C17_8 C16_8 1_555 1_555
C18_8 C17_8 1_555 1_555
H8_8 C18_8 1_555 1_555
C19_8 C14_8 1_555 1_555
H9_8 C19_8 1_555 1_555
C20_8 C21_8 1_555 1_555
C21_8 C22_8 1_555 1_555
C22_8 H10_8 1_555 1_555
C23_8 C22_8 1_555 1_555
H11_8 C23_8 1_555 1_555
C24_8 N2_8 1_555 1_555
C25_8 C16_8 1_555 1_555
C26_8 C21_8 1_555 1_555
H12_8 C26_8 1_555 1_555
C27_8 C8_8 1_555 1_555
C28_8 C14_8 1_555 1_555
C29_8 C30_8 1_555 1_555
C30_8 H13_8 1_555 1_555
C31_8 C30_8 1_555 1_555
H14_8 C31_8 1_555 1_555
C32_8 N2_8 1_555 1_555
C33_8 C32_8 1_555 1_555
H15_8 C33_8 1_555 1_555
C34_8 C29_8 1_555 1_555
H16_8 C34_8 1_555 1_555
C35_8 N1_8 1_555 1_555
C36_8 C35_8 1_555 1_555
H17_8 C36_8 1_555 1_555
C37_8 C36_8 1_555 1_555
H18_8 C37_8 1_555 1_555
C38_8 C29_8 1_555 1_555
C39_8 C38_8 1_555 1_555
H19_8 C39_8 1_555 1_555
C40_8 C35_8 1_555 1_555
H20_8 C40_8 1_555 1_555
Cu5_8 O7_8 1_555 1_555
Cu8_8 O8_8 1_555 1_555
C6_8 C7_8 1_555 1_555
C9_8 C10_8 1_555 1_555
C10_8 C11_8 1_555 1_555
C12_8 C13_8 1_555 1_555
C18_8 C19_8 1_555 1_555
C23_8 C24_8 1_555 1_555
C24_8 C25_8 1_555 1_555
C25_8 C26_8 1_555 1_555
C31_8 C32_8 1_555 1_555
C33_8 C34_8 1_555 1_555
C37_8 C38_8 1_555 1_555
C39_8 C40_8 1_555 1_555
O3_5 C27_9 1_555 1_555
O4_5 C27_9 1_555 1_555
C8_9 C9_9 1_555 1_555
C9_9 H4_9 1_555 1_555
H5_9 C12_9 1_555 1_555
C13_9 C8_9 1_555 1_555
H6_9 C13_9 1_555 1_555
C27_9 C8_9 1_555 1_555
H19_9 C39_9 1_555 1_555
H20_9 C40_9 1_555 1_555
Cu4_3 O3_5 1_555 1_555
Cu7_3 O4_5 1_555 1_555
C12_9 C13_9 1_555 1_555
C39_9 C40_9 1_555 1_555
O1_9 C20_9 1_555 1_555
O2_9 C20_9 1_555 1_555
O13_5 C1_9 1_555 1_555
O14_5 C1_9 1_555 1_555
O7_9 C28_9 1_555 1_555
O8_9 C28_9 1_555 1_555
N1_9 C5_9 1_555 1_555
N2_9 C17_9 1_555 1_555
C1_9 C2_9 1_555 1_555
C2_9 C3_9 1_555 1_555
C3_9 H1_9 1_555 1_555
C4_9 C3_9 1_555 1_555
C5_9 C4_9 1_555 1_555
C6_9 C5_9 1_555 1_555
H2_9 C6_9 1_555 1_555
C7_9 C2_9 1_555 1_555
H3_9 C7_9 1_555 1_555
C10_9 C4_9 1_555 1_555
C11_9 N1_9 1_555 1_555
C14_9 C15_9 1_555 1_555
C15_9 H7_9 1_555 1_555
C16_9 C15_9 1_555 1_555
C17_9 C16_9 1_555 1_555
C18_9 C17_9 1_555 1_555
H8_9 C18_9 1_555 1_555
C19_9 C14_9 1_555 1_555
H9_9 C19_9 1_555 1_555
C20_9 C21_9 1_555 1_555
C21_9 C22_9 1_555 1_555
C22_9 H10_9 1_555 1_555
C23_9 C22_9 1_555 1_555
H11_9 C23_9 1_555 1_555
C24_9 N2_9 1_555 1_555
C25_9 C16_9 1_555 1_555
C26_9 C21_9 1_555 1_555
H12_9 C26_9 1_555 1_555
C28_9 C14_9 1_555 1_555
C29_9 C30_9 1_555 1_555
C31_9 C30_9 1_555 1_555
C32_9 N2_9 1_555 1_555
C33_9 C32_9 1_555 1_555
H15_9 C33_9 1_555 1_555
C34_9 C29_9 1_555 1_555
H16_9 C34_9 1_555 1_555
C35_9 N1_9 1_555 1_555
C36_9 C35_9 1_555 1_555
H17_9 C36_9 1_555 1_555
C37_9 C36_9 1_555 1_555
H18_9 C37_9 1_555 1_555
C38_9 C29_9 1_555 1_555
Cu5_9 O7_9 1_555 1_555
Cu8_9 O8_9 1_555 1_555
C6_9 C7_9 1_555 1_555
C10_9 C11_9 1_555 1_555
C18_9 C19_9 1_555 1_555
C23_9 C24_9 1_555 1_555
C24_9 C25_9 1_555 1_555
C25_9 C26_9 1_555 1_555
C31_9 C32_9 1_555 1_555
C33_9 C34_9 1_555 1_555
C37_9 C38_9 1_555 1_555
O9_9 Cu7 1_555 1_555
O10_9 Cu4 1_555 1_555
O11_5 Cu4 1_555 1_555
O12_5 Cu7 1_555 1_555
O15_9 Cu4 1_555 1_555
O16_9 Cu7 1_555 1_555
O9_9 H21_9 1_555 1_555
O9_9 H22_9 1_555 1_555
O10_9 H23_9 1_555 1_555
O10_9 H24_9 1_555 1_555
Cu4_3 O1_10 1_555 1_555
Cu7_3 O2_10 1_555 1_555
O1_10 C20_10 1_555 1_555
O2_10 C20_10 1_555 1_555
O13_8 C1_10 1_555 1_555
O14_8 C1_10 1_555 1_555
O7_10 C28_10 1_555 1_555
O8_10 C28_10 1_555 1_555
O9_10 Cu7_3 1_555 1_555
O10_10 Cu4_3 1_555 1_555
N1_10 C5_10 1_555 1_555
N2_10 C17_10 1_555 1_555
C1_10 C2_10 1_555 1_555
C2_10 C3_10 1_555 1_555
C3_10 H1_10 1_555 1_555
C4_10 C3_10 1_555 1_555
C5_10 C4_10 1_555 1_555
C6_10 C5_10 1_555 1_555
H2_10 C6_10 1_555 1_555
C7_10 C2_10 1_555 1_555
H3_10 C7_10 1_555 1_555
C10_10 C4_10 1_555 1_555
C11_10 N1_10 1_555 1_555
C14_10 C15_10 1_555 1_555
C15_10 H7_10 1_555 1_555
C16_10 C15_10 1_555 1_555
C17_10 C16_10 1_555 1_555
C18_10 C17_10 1_555 1_555
H8_10 C18_10 1_555 1_555
C19_10 C14_10 1_555 1_555
H9_10 C19_10 1_555 1_555
C20_10 C21_10 1_555 1_555
C21_10 C22_10 1_555 1_555
C22_10 H10_10 1_555 1_555
C23_10 C22_10 1_555 1_555
H11_10 C23_10 1_555 1_555
C24_10 N2_10 1_555 1_555
C25_10 C16_10 1_555 1_555
C26_10 C21_10 1_555 1_555
H12_10 C26_10 1_555 1_555
C28_10 C14_10 1_555 1_555
C29_10 C30_10 1_555 1_555
C31_10 C30_10 1_555 1_555
C32_10 N2_10 1_555 1_555
C33_10 C32_10 1_555 1_555
H15_10 C33_10 1_555 1_555
C34_10 C29_10 1_555 1_555
H16_10 C34_10 1_555 1_555
C35_10 N1_10 1_555 1_555
C36_10 C35_10 1_555 1_555
H17_10 C36_10 1_555 1_555
C37_10 C36_10 1_555 1_555
H18_10 C37_10 1_555 1_555
C38_10 C29_10 1_555 1_555
Cu5_10 O7_10 1_555 1_555
Cu8_10 O8_10 1_555 1_555
O15_10 Cu4_3 1_555 1_555
O16_10 Cu7_3 1_555 1_555
C6_10 C7_10 1_555 1_555
C10_10 C11_10 1_555 1_555
C18_10 C19_10 1_555 1_555
C23_10 C24_10 1_555 1_555
C24_10 C25_10 1_555 1_555
C25_10 C26_10 1_555 1_555
C31_10 C32_10 1_555 1_555
C33_10 C34_10 1_555 1_555
C37_10 C38_10 1_555 1_555
O9_10 H21_10 1_555 1_555
O9_10 H22_10 1_555 1_555
O10_10 H23_10 1_555 1_555
O10_10 H24_10 1_555 1_555
O11_5 C27_10 1_555 1_555
O12_5 C27_10 1_555 1_555
C8_10 C9_10 1_555 1_555
C9_10 H4_10 1_555 1_555
H5_10 C12_10 1_555 1_555
C13_10 C8_10 1_555 1_555
H6_10 C13_10 1_555 1_555
C27_10 C8_10 1_555 1_555
H19_10 C39_10 1_555 1_555
H20_10 C40_10 1_555 1_555
C12_10 C13_10 1_555 1_555
C39_10 C40_10 1_555 1_555
Cu4_4 O1_11 1_555 1_555
Cu7_4 O2_11 1_555 1_555
O1_11 C20_11 1_555 1_555
O2_11 C20_11 1_555 1_555
O3_6 C27_11 1_555 1_555
O4_6 C27_11 1_555 1_555
O13_6 C1_11 1_555 1_555
O14_6 C1_11 1_555 1_555
O7_11 C28_11 1_555 1_555
O8_11 C28_11 1_555 1_555
O9_11 Cu7_4 1_555 1_555
O10_11 Cu4_4 1_555 1_555
N1_11 C5_11 1_555 1_555
N2_11 C17_11 1_555 1_555
C1_11 C2_11 1_555 1_555
C2_11 C3_11 1_555 1_555
C3_11 H1_11 1_555 1_555
C4_11 C3_11 1_555 1_555
C5_11 C4_11 1_555 1_555
C6_11 C5_11 1_555 1_555
H2_11 C6_11 1_555 1_555
C7_11 C2_11 1_555 1_555
H3_11 C7_11 1_555 1_555
C8_11 C9_11 1_555 1_555
C9_11 H4_11 1_555 1_555
C10_11 C4_11 1_555 1_555
C11_11 N1_11 1_555 1_555
C12_11 C11_11 1_555 1_555
H5_11 C12_11 1_555 1_555
C13_11 C8_11 1_555 1_555
H6_11 C13_11 1_555 1_555
C14_11 C15_11 1_555 1_555
C15_11 H7_11 1_555 1_555
C16_11 C15_11 1_555 1_555
C17_11 C16_11 1_555 1_555
C18_11 C17_11 1_555 1_555
H8_11 C18_11 1_555 1_555
C19_11 C14_11 1_555 1_555
H9_11 C19_11 1_555 1_555
C20_11 C21_11 1_555 1_555
C21_11 C22_11 1_555 1_555
C22_11 H10_11 1_555 1_555
C23_11 C22_11 1_555 1_555
H11_11 C23_11 1_555 1_555
C24_11 N2_11 1_555 1_555
C25_11 C16_11 1_555 1_555
C26_11 C21_11 1_555 1_555
H12_11 C26_11 1_555 1_555
C27_11 C8_11 1_555 1_555
C28_11 C14_11 1_555 1_555
C29_11 C30_11 1_555 1_555
C30_11 H13_11 1_555 1_555
C31_11 C30_11 1_555 1_555
H14_11 C31_11 1_555 1_555
C32_11 N2_11 1_555 1_555
C33_11 C32_11 1_555 1_555
H15_11 C33_11 1_555 1_555
C34_11 C29_11 1_555 1_555
H16_11 C34_11 1_555 1_555
C35_11 N1_11 1_555 1_555
C36_11 C35_11 1_555 1_555
H17_11 C36_11 1_555 1_555
C37_11 C36_11 1_555 1_555
H18_11 C37_11 1_555 1_555
C38_11 C29_11 1_555 1_555
C39_11 C38_11 1_555 1_555
H19_11 C39_11 1_555 1_555
C40_11 C35_11 1_555 1_555
H20_11 C40_11 1_555 1_555
Cu4_2 O3_6 1_555 1_555
Cu5_11 O7_11 1_555 1_555
Cu7_2 O4_6 1_555 1_555
Cu8_11 O8_11 1_555 1_555
O11_6 Cu4_4 1_555 1_555
O12_6 Cu7_4 1_555 1_555
O15_11 Cu4_4 1_555 1_555
O16_11 Cu7_4 1_555 1_555
C6_11 C7_11 1_555 1_555
C9_11 C10_11 1_555 1_555
C10_11 C11_11 1_555 1_555
C12_11 C13_11 1_555 1_555
C18_11 C19_11 1_555 1_555
C23_11 C24_11 1_555 1_555
C24_11 C25_11 1_555 1_555
C25_11 C26_11 1_555 1_555
C31_11 C32_11 1_555 1_555
C33_11 C34_11 1_555 1_555
C37_11 C38_11 1_555 1_555
C39_11 C40_11 1_555 1_555
O9_11 H21_11 1_555 1_555
O9_11 H22_11 1_555 1_555
O10_11 H23_11 1_555 1_555
O10_11 H24_11 1_555 1_555
O9_12 Cu7_2 1_555 1_555
O10_12 Cu4_2 1_555 1_555
O15_12 Cu4_2 1_555 1_555
O16_12 Cu7_2 1_555 1_555
O9_12 H21_12 1_555 1_555
O9_12 H22_12 1_555 1_555
O10_12 H23_12 1_555 1_555
O10_12 H24_12 1_555 1_555
O1_12 C20_12 1_555 1_555
O2_12 C20_12 1_555 1_555
O11_6 C27_12 1_555 1_555
O12_6 C27_12 1_555 1_555
O13_7 C1_12 1_555 1_555
O14_7 C1_12 1_555 1_555
O7_12 C28_12 1_555 1_555
O8_12 C28_12 1_555 1_555
N1_12 C5_12 1_555 1_555
N2_12 C17_12 1_555 1_555
C1_12 C2_12 1_555 1_555
C2_12 C3_12 1_555 1_555
C3_12 H1_12 1_555 1_555
C4_12 C3_12 1_555 1_555
C5_12 C4_12 1_555 1_555
C6_12 C5_12 1_555 1_555
H2_12 C6_12 1_555 1_555
C7_12 C2_12 1_555 1_555
H3_12 C7_12 1_555 1_555
C8_12 C9_12 1_555 1_555
C9_12 H4_12 1_555 1_555
C10_12 C4_12 1_555 1_555
C11_12 N1_12 1_555 1_555
C12_12 C11_12 1_555 1_555
H5_12 C12_12 1_555 1_555
C13_12 C8_12 1_555 1_555
H6_12 C13_12 1_555 1_555
C14_12 C15_12 1_555 1_555
C15_12 H7_12 1_555 1_555
C16_12 C15_12 1_555 1_555
C17_12 C16_12 1_555 1_555
C18_12 C17_12 1_555 1_555
H8_12 C18_12 1_555 1_555
C19_12 C14_12 1_555 1_555
H9_12 C19_12 1_555 1_555
C20_12 C21_12 1_555 1_555
C21_12 C22_12 1_555 1_555
C22_12 H10_12 1_555 1_555
C23_12 C22_12 1_555 1_555
H11_12 C23_12 1_555 1_555
C24_12 N2_12 1_555 1_555
C25_12 C16_12 1_555 1_555
C26_12 C21_12 1_555 1_555
H12_12 C26_12 1_555 1_555
C27_12 C8_12 1_555 1_555
C28_12 C14_12 1_555 1_555
C29_12 C30_12 1_555 1_555
C30_12 H13_12 1_555 1_555
C31_12 C30_12 1_555 1_555
H14_12 C31_12 1_555 1_555
C32_12 N2_12 1_555 1_555
C33_12 C32_12 1_555 1_555
H15_12 C33_12 1_555 1_555
C34_12 C29_12 1_555 1_555
H16_12 C34_12 1_555 1_555
C35_12 N1_12 1_555 1_555
C36_12 C35_12 1_555 1_555
H17_12 C36_12 1_555 1_555
C37_12 C36_12 1_555 1_555
H18_12 C37_12 1_555 1_555
C38_12 C29_12 1_555 1_555
C39_12 C38_12 1_555 1_555
H19_12 C39_12 1_555 1_555
C40_12 C35_12 1_555 1_555
H20_12 C40_12 1_555 1_555
Cu5_12 O7_12 1_555 1_555
Cu8_12 O8_12 1_555 1_555
C6_12 C7_12 1_555 1_555
C9_12 C10_12 1_555 1_555
C10_12 C11_12 1_555 1_555
C12_12 C13_12 1_555 1_555
C18_12 C19_12 1_555 1_555
C23_12 C24_12 1_555 1_555
C24_12 C25_12 1_555 1_555
C25_12 C26_12 1_555 1_555
C31_12 C32_12 1_555 1_555
C33_12 C34_12 1_555 1_555
C37_12 C38_12 1_555 1_555
C39_12 C40_12 1_555 1_555
O9_13 Cu8_6 1_555 1_555
O10_13 Cu5_6 1_555 1_555
O11_7 Cu5_6 1_555 1_555
O12_7 Cu8_6 1_555 1_555
O9_13 H21_13 1_555 1_555
O9_13 H22_13 1_555 1_555
O10_13 H23_13 1_555 1_555
O10_13 H24_13 1_555 1_555
O1_13 C20_13 1_555 1_555
O2_13 C20_13 1_555 1_555
O5_5 C1_13 1_555 1_555
O6_5 C1_13 1_555 1_555
O15_12 C28_13 1_555 1_555
O16_12 C28_13 1_555 1_555
N1_13 C5_13 1_555 1_555
N2_13 C17_13 1_555 1_555
C1_13 C2_13 1_555 1_555
C2_13 C3_13 1_555 1_555
C3_13 H1_13 1_555 1_555
C4_13 C3_13 1_555 1_555
C5_13 C4_13 1_555 1_555
C6_13 C5_13 1_555 1_555
H2_13 C6_13 1_555 1_555
C7_13 C2_13 1_555 1_555
H3_13 C7_13 1_555 1_555
C10_13 C4_13 1_555 1_555
C11_13 N1_13 1_555 1_555
C14_13 C15_13 1_555 1_555
C15_13 H7_13 1_555 1_555
C16_13 C15_13 1_555 1_555
C17_13 C16_13 1_555 1_555
C18_13 C17_13 1_555 1_555
H8_13 C18_13 1_555 1_555
C19_13 C14_13 1_555 1_555
H9_13 C19_13 1_555 1_555
C20_13 C21_13 1_555 1_555
C21_13 C22_13 1_555 1_555
C22_13 H10_13 1_555 1_555
C23_13 C22_13 1_555 1_555
H11_13 C23_13 1_555 1_555
C24_13 N2_13 1_555 1_555
C25_13 C16_13 1_555 1_555
C26_13 C21_13 1_555 1_555
H12_13 C26_13 1_555 1_555
C28_13 C14_13 1_555 1_555
C29_13 C30_13 1_555 1_555
C31_13 C30_13 1_555 1_555
C32_13 N2_13 1_555 1_555
C33_13 C32_13 1_555 1_555
H15_13 C33_13 1_555 1_555
C34_13 C29_13 1_555 1_555
H16_13 C34_13 1_555 1_555
C35_13 N1_13 1_555 1_555
C36_13 C35_13 1_555 1_555
H17_13 C36_13 1_555 1_555
C37_13 C36_13 1_555 1_555
H18_13 C37_13 1_555 1_555
C38_13 C29_13 1_555 1_555
C6_13 C7_13 1_555 1_555
C10_13 C11_13 1_555 1_555
C18_13 C19_13 1_555 1_555
C23_13 C24_13 1_555 1_555
C24_13 C25_13 1_555 1_555
C25_13 C26_13 1_555 1_555
C31_13 C32_13 1_555 1_555
C33_13 C34_13 1_555 1_555
C37_13 C38_13 1_555 1_555
O3_7 C27_13 1_555 1_555
O4_7 C27_13 1_555 1_555
C8_13 C9_13 1_555 1_555
C9_13 H4_13 1_555 1_555
H5_13 C12_13 1_555 1_555
C13_13 C8_13 1_555 1_555
H6_13 C13_13 1_555 1_555
C27_13 C8_13 1_555 1_555
H19_13 C39_13 1_555 1_555
H20_13 C40_13 1_555 1_555
Cu5_8 O3_7 1_555 1_555
Cu8_8 O4_7 1_555 1_555
C12_13 C13_13 1_555 1_555
C39_13 C40_13 1_555 1_555
O11_7 C27_14 1_555 1_555
O12_7 C27_14 1_555 1_555
C8_14 C9_14 1_555 1_555
C9_14 H4_14 1_555 1_555
H5_14 C12_14 1_555 1_555
C13_14 C8_14 1_555 1_555
H6_14 C13_14 1_555 1_555
C27_14 C8_14 1_555 1_555
H19_14 C39_14 1_555 1_555
H20_14 C40_14 1_555 1_555
C12_14 C13_14 1_555 1_555
C39_14 C40_14 1_555 1_555
Cu5_8 O1_14 1_555 1_555
Cu8_8 O2_14 1_555 1_555
O1_14 C20_14 1_555 1_555
O2_14 C20_14 1_555 1_555
O5_6 C1_14 1_555 1_555
O6_6 C1_14 1_555 1_555
O15_9 C28_14 1_555 1_555
O16_9 C28_14 1_555 1_555
O9_14 Cu8_8 1_555 1_555
O10_14 Cu5_8 1_555 1_555
N1_14 C5_14 1_555 1_555
N2_14 C17_14 1_555 1_555
C1_14 C2_14 1_555 1_555
C2_14 C3_14 1_555 1_555
C3_14 H1_14 1_555 1_555
C4_14 C3_14 1_555 1_555
C5_14 C4_14 1_555 1_555
C6_14 C5_14 1_555 1_555
H2_14 C6_14 1_555 1_555
C7_14 C2_14 1_555 1_555
H3_14 C7_14 1_555 1_555
C10_14 C4_14 1_555 1_555
C11_14 N1_14 1_555 1_555
C14_14 C15_14 1_555 1_555
C15_14 H7_14 1_555 1_555
C16_14 C15_14 1_555 1_555
C17_14 C16_14 1_555 1_555
C18_14 C17_14 1_555 1_555
H8_14 C18_14 1_555 1_555
C19_14 C14_14 1_555 1_555
H9_14 C19_14 1_555 1_555
C20_14 C21_14 1_555 1_555
C21_14 C22_14 1_555 1_555
C22_14 H10_14 1_555 1_555
C23_14 C22_14 1_555 1_555
H11_14 C23_14 1_555 1_555
C24_14 N2_14 1_555 1_555
C25_14 C16_14 1_555 1_555
C26_14 C21_14 1_555 1_555
H12_14 C26_14 1_555 1_555
C28_14 C14_14 1_555 1_555
C29_14 C30_14 1_555 1_555
C31_14 C30_14 1_555 1_555
C32_14 N2_14 1_555 1_555
C33_14 C32_14 1_555 1_555
H15_14 C33_14 1_555 1_555
C34_14 C29_14 1_555 1_555
H16_14 C34_14 1_555 1_555
C35_14 N1_14 1_555 1_555
C36_14 C35_14 1_555 1_555
H17_14 C36_14 1_555 1_555
C37_14 C36_14 1_555 1_555
H18_14 C37_14 1_555 1_555
C38_14 C29_14 1_555 1_555
Cu5 O5_6 1_555 1_555
Cu8 O6_6 1_555 1_555
C6_14 C7_14 1_555 1_555
C10_14 C11_14 1_555 1_555
C18_14 C19_14 1_555 1_555
C23_14 C24_14 1_555 1_555
C24_14 C25_14 1_555 1_555
C25_14 C26_14 1_555 1_555
C31_14 C32_14 1_555 1_555
C33_14 C34_14 1_555 1_555
C37_14 C38_14 1_555 1_555
O9_14 H21_14 1_555 1_555
O9_14 H22_14 1_555 1_555
O10_14 H23_14 1_555 1_555
O10_14 H24_14 1_555 1_555
Cu5_7 O1_15 1_555 1_555
Cu8_7 O2_15 1_555 1_555
O1_15 C20_15 1_555 1_555
O2_15 C20_15 1_555 1_555
O3_8 C27_15 1_555 1_555
O4_8 C27_15 1_555 1_555
O5_7 C1_15 1_555 1_555
O6_7 C1_15 1_555 1_555
O15_11 C28_15 1_555 1_555
O16_11 C28_15 1_555 1_555
O9_15 Cu8_7 1_555 1_555
O10_15 Cu5_7 1_555 1_555
N1_15 C5_15 1_555 1_555
N2_15 C17_15 1_555 1_555
C1_15 C2_15 1_555 1_555
C2_15 C3_15 1_555 1_555
C3_15 H1_15 1_555 1_555
C4_15 C3_15 1_555 1_555
C5_15 C4_15 1_555 1_555
C6_15 C5_15 1_555 1_555
H2_15 C6_15 1_555 1_555
C7_15 C2_15 1_555 1_555
H3_15 C7_15 1_555 1_555
C8_15 C9_15 1_555 1_555
C9_15 H4_15 1_555 1_555
C10_15 C4_15 1_555 1_555
C11_15 N1_15 1_555 1_555
C12_15 C11_15 1_555 1_555
H5_15 C12_15 1_555 1_555
C13_15 C8_15 1_555 1_555
H6_15 C13_15 1_555 1_555
C14_15 C15_15 1_555 1_555
C15_15 H7_15 1_555 1_555
C16_15 C15_15 1_555 1_555
C17_15 C16_15 1_555 1_555
C18_15 C17_15 1_555 1_555
H8_15 C18_15 1_555 1_555
C19_15 C14_15 1_555 1_555
H9_15 C19_15 1_555 1_555
C20_15 C21_15 1_555 1_555
C21_15 C22_15 1_555 1_555
C22_15 H10_15 1_555 1_555
C23_15 C22_15 1_555 1_555
H11_15 C23_15 1_555 1_555
C24_15 N2_15 1_555 1_555
C25_15 C16_15 1_555 1_555
C26_15 C21_15 1_555 1_555
H12_15 C26_15 1_555 1_555
C27_15 C8_15 1_555 1_555
C28_15 C14_15 1_555 1_555
C29_15 C30_15 1_555 1_555
C30_15 H13_15 1_555 1_555
C31_15 C30_15 1_555 1_555
H14_15 C31_15 1_555 1_555
C32_15 N2_15 1_555 1_555
C33_15 C32_15 1_555 1_555
H15_15 C33_15 1_555 1_555
C34_15 C29_15 1_555 1_555
H16_15 C34_15 1_555 1_555
C35_15 N1_15 1_555 1_555
C36_15 C35_15 1_555 1_555
H17_15 C36_15 1_555 1_555
C37_15 C36_15 1_555 1_555
H18_15 C37_15 1_555 1_555
C38_15 C29_15 1_555 1_555
C39_15 C38_15 1_555 1_555
H19_15 C39_15 1_555 1_555
C40_15 C35_15 1_555 1_555
H20_15 C40_15 1_555 1_555
Cu5_5 O3_8 1_555 1_555
Cu8_5 O4_8 1_555 1_555
O11_8 Cu5_7 1_555 1_555
O12_8 Cu8_7 1_555 1_555
O13_11 Cu5_7 1_555 1_555
O14_11 Cu8_7 1_555 1_555
C6_15 C7_15 1_555 1_555
C9_15 C10_15 1_555 1_555
C10_15 C11_15 1_555 1_555
C12_15 C13_15 1_555 1_555
C18_15 C19_15 1_555 1_555
C23_15 C24_15 1_555 1_555
C24_15 C25_15 1_555 1_555
C25_15 C26_15 1_555 1_555
C31_15 C32_15 1_555 1_555
C33_15 C34_15 1_555 1_555
C37_15 C38_15 1_555 1_555
C39_15 C40_15 1_555 1_555
O9_15 H21_15 1_555 1_555
O9_15 H22_15 1_555 1_555
O10_15 H23_15 1_555 1_555
O10_15 H24_15 1_555 1_555
O1_16 C20_16 1_555 1_555
O2_16 C20_16 1_555 1_555
O11_8 C27_16 1_555 1_555
O12_8 C27_16 1_555 1_555
O5_8 C1_16 1_555 1_555
O6_8 C1_16 1_555 1_555
O15_10 C28_16 1_555 1_555
O16_10 C28_16 1_555 1_555
N1_16 C5_16 1_555 1_555
N2_16 C17_16 1_555 1_555
C1_16 C2_16 1_555 1_555
C2_16 C3_16 1_555 1_555
C3_16 H1_16 1_555 1_555
C4_16 C3_16 1_555 1_555
C5_16 C4_16 1_555 1_555
C6_16 C5_16 1_555 1_555
H2_16 C6_16 1_555 1_555
C7_16 C2_16 1_555 1_555
H3_16 C7_16 1_555 1_555
C8_16 C9_16 1_555 1_555
C9_16 H4_16 1_555 1_555
C10_16 C4_16 1_555 1_555
C11_16 N1_16 1_555 1_555
C12_16 C11_16 1_555 1_555
H5_16 C12_16 1_555 1_555
C13_16 C8_16 1_555 1_555
H6_16 C13_16 1_555 1_555
C14_16 C15_16 1_555 1_555
C15_16 H7_16 1_555 1_555
C16_16 C15_16 1_555 1_555
C17_16 C16_16 1_555 1_555
C18_16 C17_16 1_555 1_555
H8_16 C18_16 1_555 1_555
C19_16 C14_16 1_555 1_555
H9_16 C19_16 1_555 1_555
C20_16 C21_16 1_555 1_555
C21_16 C22_16 1_555 1_555
C22_16 H10_16 1_555 1_555
C23_16 C22_16 1_555 1_555
H11_16 C23_16 1_555 1_555
C24_16 N2_16 1_555 1_555
C25_16 C16_16 1_555 1_555
C26_16 C21_16 1_555 1_555
H12_16 C26_16 1_555 1_555
C27_16 C8_16 1_555 1_555
C28_16 C14_16 1_555 1_555
C29_16 C30_16 1_555 1_555
C30_16 H13_16 1_555 1_555
C31_16 C30_16 1_555 1_555
H14_16 C31_16 1_555 1_555
C32_16 N2_16 1_555 1_555
C33_16 C32_16 1_555 1_555
H15_16 C33_16 1_555 1_555
C34_16 C29_16 1_555 1_555
H16_16 C34_16 1_555 1_555
C35_16 N1_16 1_555 1_555
C36_16 C35_16 1_555 1_555
H17_16 C36_16 1_555 1_555
C37_16 C36_16 1_555 1_555
H18_16 C37_16 1_555 1_555
C38_16 C29_16 1_555 1_555
C39_16 C38_16 1_555 1_555
H19_16 C39_16 1_555 1_555
C40_16 C35_16 1_555 1_555
H20_16 C40_16 1_555 1_555
Cu5_3 O5_8 1_555 1_555
Cu8_3 O6_8 1_555 1_555
C6_16 C7_16 1_555 1_555
C9_16 C10_16 1_555 1_555
C10_16 C11_16 1_555 1_555
C12_16 C13_16 1_555 1_555
C18_16 C19_16 1_555 1_555
C23_16 C24_16 1_555 1_555
C24_16 C25_16 1_555 1_555
C25_16 C26_16 1_555 1_555
C31_16 C32_16 1_555 1_555
C33_16 C34_16 1_555 1_555
C37_16 C38_16 1_555 1_555
C39_16 C40_16 1_555 1_555
O9_16 Cu8_5 1_555 1_555
O10_16 Cu5_5 1_555 1_555
O13_12 Cu5_5 1_555 1_555
O14_12 Cu8_5 1_555 1_555
O9_16 H21_16 1_555 1_555
O9_16 H22_16 1_555 1_555
O10_16 H23_16 1_555 1_555
O10_16 H24_16 1_555 1_555
O9_17 Cu8_10 1_555 1_555
O10_17 Cu5_10 1_555 1_555
O11_9 Cu5_10 1_555 1_555
O12_9 Cu8_10 1_555 1_555
O9_17 H21_17 1_555 1_555
O9_17 H22_17 1_555 1_555
O10_17 H23_17 1_555 1_555
O10_17 H24_17 1_555 1_555
O1_17 C20_17 1_555 1_555
O2_17 C20_17 1_555 1_555
O13_9 C1_17 1_555 1_555
O14_9 C1_17 1_555 1_555
O15_4 C28_17 1_555 1_555
O16_4 C28_17 1_555 1_555
N1_17 C5_17 1_555 1_555
N2_17 C17_17 1_555 1_555
C1_17 C2_17 1_555 1_555
C2_17 C3_17 1_555 1_555
C3_17 H1_17 1_555 1_555
C4_17 C3_17 1_555 1_555
C5_17 C4_17 1_555 1_555
C6_17 C5_17 1_555 1_555
H2_17 C6_17 1_555 1_555
C7_17 C2_17 1_555 1_555
H3_17 C7_17 1_555 1_555
C10_17 C4_17 1_555 1_555
C11_17 N1_17 1_555 1_555
C14_17 C15_17 1_555 1_555
C15_17 H7_17 1_555 1_555
C16_17 C15_17 1_555 1_555
C17_17 C16_17 1_555 1_555
C18_17 C17_17 1_555 1_555
H8_17 C18_17 1_555 1_555
C19_17 C14_17 1_555 1_555
H9_17 C19_17 1_555 1_555
C20_17 C21_17 1_555 1_555
C21_17 C22_17 1_555 1_555
C22_17 H10_17 1_555 1_555
C23_17 C22_17 1_555 1_555
H11_17 C23_17 1_555 1_555
C24_17 N2_17 1_555 1_555
C25_17 C16_17 1_555 1_555
C26_17 C21_17 1_555 1_555
H12_17 C26_17 1_555 1_555
C28_17 C14_17 1_555 1_555
C29_17 C30_17 1_555 1_555
C31_17 C30_17 1_555 1_555
C32_17 N2_17 1_555 1_555
C33_17 C32_17 1_555 1_555
H15_17 C33_17 1_555 1_555
C34_17 C29_17 1_555 1_555
H16_17 C34_17 1_555 1_555
C35_17 N1_17 1_555 1_555
C36_17 C35_17 1_555 1_555
H17_17 C36_17 1_555 1_555
C37_17 C36_17 1_555 1_555
H18_17 C37_17 1_555 1_555
C38_17 C29_17 1_555 1_555
C6_17 C7_17 1_555 1_555
C10_17 C11_17 1_555 1_555
C18_17 C19_17 1_555 1_555
C23_17 C24_17 1_555 1_555
C24_17 C25_17 1_555 1_555
C25_17 C26_17 1_555 1_555
C31_17 C32_17 1_555 1_555
C33_17 C34_17 1_555 1_555
C37_17 C38_17 1_555 1_555
O3_9 C27_17 1_555 1_555
O4_9 C27_17 1_555 1_555
C8_17 C9_17 1_555 1_555
C9_17 H4_17 1_555 1_555
H5_17 C12_17 1_555 1_555
C13_17 C8_17 1_555 1_555
H6_17 C13_17 1_555 1_555
C27_17 C8_17 1_555 1_555
H19_17 C39_17 1_555 1_555
H20_17 C40_17 1_555 1_555
Cu5_12 O3_9 1_555 1_555
Cu8_12 O4_9 1_555 1_555
C12_17 C13_17 1_555 1_555
C39_17 C40_17 1_555 1_555
O11_9 C27_18 1_555 1_555
O12_9 C27_18 1_555 1_555
C8_18 C9_18 1_555 1_555
C9_18 H4_18 1_555 1_555
H5_18 C12_18 1_555 1_555
C13_18 C8_18 1_555 1_555
H6_18 C13_18 1_555 1_555
C27_18 C8_18 1_555 1_555
H19_18 C39_18 1_555 1_555
H20_18 C40_18 1_555 1_555
C12_18 C13_18 1_555 1_555
C39_18 C40_18 1_555 1_555
Cu5_12 O1_18 1_555 1_555
Cu8_12 O2_18 1_555 1_555
O1_18 C20_18 1_555 1_555
O2_18 C20_18 1_555 1_555
O13_12 C1_18 1_555 1_555
O14_12 C1_18 1_555 1_555
O15 C28_18 1_555 1_555
O16 C28_18 1_555 1_555
O9_18 Cu8_12 1_555 1_555
O10_18 Cu5_12 1_555 1_555
N1_18 C5_18 1_555 1_555
N2_18 C17_18 1_555 1_555
C1_18 C2_18 1_555 1_555
C2_18 C3_18 1_555 1_555
C3_18 H1_18 1_555 1_555
C4_18 C3_18 1_555 1_555
C5_18 C4_18 1_555 1_555
C6_18 C5_18 1_555 1_555
H2_18 C6_18 1_555 1_555
C7_18 C2_18 1_555 1_555
H3_18 C7_18 1_555 1_555
C10_18 C4_18 1_555 1_555
C11_18 N1_18 1_555 1_555
C14_18 C15_18 1_555 1_555
C15_18 H7_18 1_555 1_555
C16_18 C15_18 1_555 1_555
C17_18 C16_18 1_555 1_555
C18_18 C17_18 1_555 1_555
H8_18 C18_18 1_555 1_555
C19_18 C14_18 1_555 1_555
H9_18 C19_18 1_555 1_555
C20_18 C21_18 1_555 1_555
C21_18 C22_18 1_555 1_555
C22_18 H10_18 1_555 1_555
C23_18 C22_18 1_555 1_555
H11_18 C23_18 1_555 1_555
C24_18 N2_18 1_555 1_555
C25_18 C16_18 1_555 1_555
C26_18 C21_18 1_555 1_555
H12_18 C26_18 1_555 1_555
C28_18 C14_18 1_555 1_555
C29_18 C30_18 1_555 1_555
C31_18 C30_18 1_555 1_555
C32_18 N2_18 1_555 1_555
C33_18 C32_18 1_555 1_555
H15_18 C33_18 1_555 1_555
C34_18 C29_18 1_555 1_555
H16_18 C34_18 1_555 1_555
C35_18 N1_18 1_555 1_555
C36_18 C35_18 1_555 1_555
H17_18 C36_18 1_555 1_555
C37_18 C36_18 1_555 1_555
H18_18 C37_18 1_555 1_555
C38_18 C29_18 1_555 1_555
C6_18 C7_18 1_555 1_555
C10_18 C11_18 1_555 1_555
C18_18 C19_18 1_555 1_555
C23_18 C24_18 1_555 1_555
C24_18 C25_18 1_555 1_555
C25_18 C26_18 1_555 1_555
C31_18 C32_18 1_555 1_555
C33_18 C34_18 1_555 1_555
C37_18 C38_18 1_555 1_555
O9_18 H21_18 1_555 1_555
O9_18 H22_18 1_555 1_555
O10_18 H23_18 1_555 1_555
O10_18 H24_18 1_555 1_555
Cu5_11 O1_19 1_555 1_555
Cu8_11 O2_19 1_555 1_555
O1_19 C20_19 1_555 1_555
O2_19 C20_19 1_555 1_555
O3_10 C27_19 1_555 1_555
O4_10 C27_19 1_555 1_555
O13_10 C1_19 1_555 1_555
O14_10 C1_19 1_555 1_555
O15_3 C28_19 1_555 1_555
O16_3 C28_19 1_555 1_555
O9_19 Cu8_11 1_555 1_555
O10_19 Cu5_11 1_555 1_555
N1_19 C5_19 1_555 1_555
N2_19 C17_19 1_555 1_555
C1_19 C2_19 1_555 1_555
C2_19 C3_19 1_555 1_555
C3_19 H1_19 1_555 1_555
C4_19 C3_19 1_555 1_555
C5_19 C4_19 1_555 1_555
C6_19 C5_19 1_555 1_555
H2_19 C6_19 1_555 1_555
C7_19 C2_19 1_555 1_555
H3_19 C7_19 1_555 1_555
C8_19 C9_19 1_555 1_555
C9_19 H4_19 1_555 1_555
C10_19 C4_19 1_555 1_555
C11_19 N1_19 1_555 1_555
C12_19 C11_19 1_555 1_555
H5_19 C12_19 1_555 1_555
C13_19 C8_19 1_555 1_555
H6_19 C13_19 1_555 1_555
C14_19 C15_19 1_555 1_555
C15_19 H7_19 1_555 1_555
C16_19 C15_19 1_555 1_555
C17_19 C16_19 1_555 1_555
C18_19 C17_19 1_555 1_555
H8_19 C18_19 1_555 1_555
C19_19 C14_19 1_555 1_555
H9_19 C19_19 1_555 1_555
C20_19 C21_19 1_555 1_555
C21_19 C22_19 1_555 1_555
C22_19 H10_19 1_555 1_555
C23_19 C22_19 1_555 1_555
H11_19 C23_19 1_555 1_555
C24_19 N2_19 1_555 1_555
C25_19 C16_19 1_555 1_555
C26_19 C21_19 1_555 1_555
H12_19 C26_19 1_555 1_555
C27_19 C8_19 1_555 1_555
C28_19 C14_19 1_555 1_555
C29_19 C30_19 1_555 1_555
C30_19 H13_19 1_555 1_555
C31_19 C30_19 1_555 1_555
H14_19 C31_19 1_555 1_555
C32_19 N2_19 1_555 1_555
C33_19 C32_19 1_555 1_555
H15_19 C33_19 1_555 1_555
C34_19 C29_19 1_555 1_555
H16_19 C34_19 1_555 1_555
C35_19 N1_19 1_555 1_555
C36_19 C35_19 1_555 1_555
H17_19 C36_19 1_555 1_555
C37_19 C36_19 1_555 1_555
H18_19 C37_19 1_555 1_555
C38_19 C29_19 1_555 1_555
C39_19 C38_19 1_555 1_555
H19_19 C39_19 1_555 1_555
C40_19 C35_19 1_555 1_555
H20_19 C40_19 1_555 1_555
Cu5_9 O3_10 1_555 1_555
Cu8_9 O4_10 1_555 1_555
O11_10 Cu5_11 1_555 1_555
O12_10 Cu8_11 1_555 1_555
O13_15 Cu5_11 1_555 1_555
O14_15 Cu8_11 1_555 1_555
C6_19 C7_19 1_555 1_555
C9_19 C10_19 1_555 1_555
C10_19 C11_19 1_555 1_555
C12_19 C13_19 1_555 1_555
C18_19 C19_19 1_555 1_555
C23_19 C24_19 1_555 1_555
C24_19 C25_19 1_555 1_555
C25_19 C26_19 1_555 1_555
C31_19 C32_19 1_555 1_555
C33_19 C34_19 1_555 1_555
C37_19 C38_19 1_555 1_555
C39_19 C40_19 1_555 1_555
O9_19 H21_19 1_555 1_555
O9_19 H22_19 1_555 1_555
O10_19 H23_19 1_555 1_555
O10_19 H24_19 1_555 1_555
O1_20 C20_20 1_555 1_555
O2_20 C20_20 1_555 1_555
O11_10 C27_20 1_555 1_555
O12_10 C27_20 1_555 1_555
O13_11 C1_20 1_555 1_555
O14_11 C1_20 1_555 1_555
O15_2 C28_20 1_555 1_555
O16_2 C28_20 1_555 1_555
N1_20 C5_20 1_555 1_555
N2_20 C17_20 1_555 1_555
C1_20 C2_20 1_555 1_555
C2_20 C3_20 1_555 1_555
C3_20 H1_20 1_555 1_555
C4_20 C3_20 1_555 1_555
C5_20 C4_20 1_555 1_555
C6_20 C5_20 1_555 1_555
H2_20 C6_20 1_555 1_555
C7_20 C2_20 1_555 1_555
H3_20 C7_20 1_555 1_555
C8_20 C9_20 1_555 1_555
C9_20 H4_20 1_555 1_555
C10_20 C4_20 1_555 1_555
C11_20 N1_20 1_555 1_555
C12_20 C11_20 1_555 1_555
H5_20 C12_20 1_555 1_555
C13_20 C8_20 1_555 1_555
H6_20 C13_20 1_555 1_555
C14_20 C15_20 1_555 1_555
C15_20 H7_20 1_555 1_555
C16_20 C15_20 1_555 1_555
C17_20 C16_20 1_555 1_555
C18_20 C17_20 1_555 1_555
H8_20 C18_20 1_555 1_555
C19_20 C14_20 1_555 1_555
H9_20 C19_20 1_555 1_555
C20_20 C21_20 1_555 1_555
C21_20 C22_20 1_555 1_555
C22_20 H10_20 1_555 1_555
C23_20 C22_20 1_555 1_555
H11_20 C23_20 1_555 1_555
C24_20 N2_20 1_555 1_555
C25_20 C16_20 1_555 1_555
C26_20 C21_20 1_555 1_555
H12_20 C26_20 1_555 1_555
C27_20 C8_20 1_555 1_555
C28_20 C14_20 1_555 1_555
C29_20 C30_20 1_555 1_555
C30_20 H13_20 1_555 1_555
C31_20 C30_20 1_555 1_555
H14_20 C31_20 1_555 1_555
C32_20 N2_20 1_555 1_555
C33_20 C32_20 1_555 1_555
H15_20 C33_20 1_555 1_555
C34_20 C29_20 1_555 1_555
H16_20 C34_20 1_555 1_555
C35_20 N1_20 1_555 1_555
C36_20 C35_20 1_555 1_555
H17_20 C36_20 1_555 1_555
C37_20 C36_20 1_555 1_555
H18_20 C37_20 1_555 1_555
C38_20 C29_20 1_555 1_555
C39_20 C38_20 1_555 1_555
H19_20 C39_20 1_555 1_555
C40_20 C35_20 1_555 1_555
H20_20 C40_20 1_555 1_555
C6_20 C7_20 1_555 1_555
C9_20 C10_20 1_555 1_555
C10_20 C11_20 1_555 1_555
C12_20 C13_20 1_555 1_555
C18_20 C19_20 1_555 1_555
C23_20 C24_20 1_555 1_555
C24_20 C25_20 1_555 1_555
C25_20 C26_20 1_555 1_555
C31_20 C32_20 1_555 1_555
C33_20 C34_20 1_555 1_555
C37_20 C38_20 1_555 1_555
C39_20 C40_20 1_555 1_555
O9_20 Cu8_9 1_555 1_555
O10_20 Cu5_9 1_555 1_555
O13_16 Cu5_9 1_555 1_555
O14_16 Cu8_9 1_555 1_555
O9_20 H21_20 1_555 1_555
O9_20 H22_20 1_555 1_555
O10_20 H23_20 1_555 1_555
O10_20 H24_20 1_555 1_555
O9_21 Cu8_2 1_555 1_555
O10_21 Cu5_2 1_555 1_555
O11_11 Cu5_2 1_555 1_555
O12_11 Cu8_2 1_555 1_555
O9_21 H21_21 1_555 1_555
O9_21 H22_21 1_555 1_555
O10_21 H23_21 1_555 1_555
O10_21 H24_21 1_555 1_555
O1_21 C20_21 1_555 1_555
O2_21 C20_21 1_555 1_555
O13_13 C1_21 1_555 1_555
O14_13 C1_21 1_555 1_555
O15_8 C28_21 1_555 1_555
O16_8 C28_21 1_555 1_555
N1_21 C5_21 1_555 1_555
N2_21 C17_21 1_555 1_555
C1_21 C2_21 1_555 1_555
C2_21 C3_21 1_555 1_555
C3_21 H1_21 1_555 1_555
C4_21 C3_21 1_555 1_555
C5_21 C4_21 1_555 1_555
C6_21 C5_21 1_555 1_555
H2_21 C6_21 1_555 1_555
C7_21 C2_21 1_555 1_555
H3_21 C7_21 1_555 1_555
C10_21 C4_21 1_555 1_555
C11_21 N1_21 1_555 1_555
C14_21 C15_21 1_555 1_555
C15_21 H7_21 1_555 1_555
C16_21 C15_21 1_555 1_555
C17_21 C16_21 1_555 1_555
C18_21 C17_21 1_555 1_555
H8_21 C18_21 1_555 1_555
C19_21 C14_21 1_555 1_555
H9_21 C19_21 1_555 1_555
C20_21 C21_21 1_555 1_555
C21_21 C22_21 1_555 1_555
C22_21 H10_21 1_555 1_555
C23_21 C22_21 1_555 1_555
H11_21 C23_21 1_555 1_555
C24_21 N2_21 1_555 1_555
C25_21 C16_21 1_555 1_555
C26_21 C21_21 1_555 1_555
H12_21 C26_21 1_555 1_555
C28_21 C14_21 1_555 1_555
C29_21 C30_21 1_555 1_555
C31_21 C30_21 1_555 1_555
C32_21 N2_21 1_555 1_555
C33_21 C32_21 1_555 1_555
H15_21 C33_21 1_555 1_555
C34_21 C29_21 1_555 1_555
H16_21 C34_21 1_555 1_555
C35_21 N1_21 1_555 1_555
C36_21 C35_21 1_555 1_555
H17_21 C36_21 1_555 1_555
C37_21 C36_21 1_555 1_555
H18_21 C37_21 1_555 1_555
C38_21 C29_21 1_555 1_555
C6_21 C7_21 1_555 1_555
C10_21 C11_21 1_555 1_555
C18_21 C19_21 1_555 1_555
C23_21 C24_21 1_555 1_555
C24_21 C25_21 1_555 1_555
C25_21 C26_21 1_555 1_555
C31_21 C32_21 1_555 1_555
C33_21 C34_21 1_555 1_555
C37_21 C38_21 1_555 1_555
O3_11 C27_21 1_555 1_555
O4_11 C27_21 1_555 1_555
C8_21 C9_21 1_555 1_555
C9_21 H4_21 1_555 1_555
H5_21 C12_21 1_555 1_555
C13_21 C8_21 1_555 1_555
H6_21 C13_21 1_555 1_555
C27_21 C8_21 1_555 1_555
H19_21 C39_21 1_555 1_555
H20_21 C40_21 1_555 1_555
Cu5_4 O3_11 1_555 1_555
Cu8_4 O4_11 1_555 1_555
C12_21 C13_21 1_555 1_555
C39_21 C40_21 1_555 1_555
O11_11 C27_22 1_555 1_555
O12_11 C27_22 1_555 1_555
C8_22 C9_22 1_555 1_555
C9_22 H4_22 1_555 1_555
H5_22 C12_22 1_555 1_555
C13_22 C8_22 1_555 1_555
H6_22 C13_22 1_555 1_555
C27_22 C8_22 1_555 1_555
H19_22 C39_22 1_555 1_555
H20_22 C40_22 1_555 1_555
C12_22 C13_22 1_555 1_555
C39_22 C40_22 1_555 1_555
Cu5_4 O1_22 1_555 1_555
Cu8_4 O2_22 1_555 1_555
O1_22 C20_22 1_555 1_555
O2_22 C20_22 1_555 1_555
O13_16 C1_22 1_555 1_555
O14_16 C1_22 1_555 1_555
O15_5 C28_22 1_555 1_555
O16_5 C28_22 1_555 1_555
O9_22 Cu8_4 1_555 1_555
O10_22 Cu5_4 1_555 1_555
N1_22 C5_22 1_555 1_555
N2_22 C17_22 1_555 1_555
C1_22 C2_22 1_555 1_555
C2_22 C3_22 1_555 1_555
C3_22 H1_22 1_555 1_555
C4_22 C3_22 1_555 1_555
C5_22 C4_22 1_555 1_555
C6_22 C5_22 1_555 1_555
H2_22 C6_22 1_555 1_555
C7_22 C2_22 1_555 1_555
H3_22 C7_22 1_555 1_555
C10_22 C4_22 1_555 1_555
C11_22 N1_22 1_555 1_555
C14_22 C15_22 1_555 1_555
C15_22 H7_22 1_555 1_555
C16_22 C15_22 1_555 1_555
C17_22 C16_22 1_555 1_555
C18_22 C17_22 1_555 1_555
H8_22 C18_22 1_555 1_555
C19_22 C14_22 1_555 1_555
H9_22 C19_22 1_555 1_555
C20_22 C21_22 1_555 1_555
C21_22 C22_22 1_555 1_555
C22_22 H10_22 1_555 1_555
C23_22 C22_22 1_555 1_555
H11_22 C23_22 1_555 1_555
C24_22 N2_22 1_555 1_555
C25_22 C16_22 1_555 1_555
C26_22 C21_22 1_555 1_555
H12_22 C26_22 1_555 1_555
C28_22 C14_22 1_555 1_555
C29_22 C30_22 1_555 1_555
C31_22 C30_22 1_555 1_555
C32_22 N2_22 1_555 1_555
C33_22 C32_22 1_555 1_555
H15_22 C33_22 1_555 1_555
C34_22 C29_22 1_555 1_555
H16_22 C34_22 1_555 1_555
C35_22 N1_22 1_555 1_555
C36_22 C35_22 1_555 1_555
H17_22 C36_22 1_555 1_555
C37_22 C36_22 1_555 1_555
H18_22 C37_22 1_555 1_555
C38_22 C29_22 1_555 1_555
C6_22 C7_22 1_555 1_555
C10_22 C11_22 1_555 1_555
C18_22 C19_22 1_555 1_555
C23_22 C24_22 1_555 1_555
C24_22 C25_22 1_555 1_555
C25_22 C26_22 1_555 1_555
C31_22 C32_22 1_555 1_555
C33_22 C34_22 1_555 1_555
C37_22 C38_22 1_555 1_555
O9_22 H21_22 1_555 1_555
O9_22 H22_22 1_555 1_555
O10_22 H23_22 1_555 1_555
O10_22 H24_22 1_555 1_555
Cu5_3 O1_23 1_555 1_555
Cu8_3 O2_23 1_555 1_555
O1_23 C20_23 1_555 1_555
O2_23 C20_23 1_555 1_555
O3_12 C27_23 1_555 1_555
O4_12 C27_23 1_555 1_555
O13_14 C1_23 1_555 1_555
O14_14 C1_23 1_555 1_555
O15_7 C28_23 1_555 1_555
O16_7 C28_23 1_555 1_555
O9_23 Cu8_3 1_555 1_555
O10_23 Cu5_3 1_555 1_555
N1_23 C5_23 1_555 1_555
N2_23 C17_23 1_555 1_555
C1_23 C2_23 1_555 1_555
C2_23 C3_23 1_555 1_555
C3_23 H1_23 1_555 1_555
C4_23 C3_23 1_555 1_555
C5_23 C4_23 1_555 1_555
C6_23 C5_23 1_555 1_555
H2_23 C6_23 1_555 1_555
C7_23 C2_23 1_555 1_555
H3_23 C7_23 1_555 1_555
C8_23 C9_23 1_555 1_555
C9_23 H4_23 1_555 1_555
C10_23 C4_23 1_555 1_555
C11_23 N1_23 1_555 1_555
C12_23 C11_23 1_555 1_555
H5_23 C12_23 1_555 1_555
C13_23 C8_23 1_555 1_555
H6_23 C13_23 1_555 1_555
C14_23 C15_23 1_555 1_555
C15_23 H7_23 1_555 1_555
C16_23 C15_23 1_555 1_555
C17_23 C16_23 1_555 1_555
C18_23 C17_23 1_555 1_555
H8_23 C18_23 1_555 1_555
C19_23 C14_23 1_555 1_555
H9_23 C19_23 1_555 1_555
C20_23 C21_23 1_555 1_555
C21_23 C22_23 1_555 1_555
C22_23 H10_23 1_555 1_555
C23_23 C22_23 1_555 1_555
H11_23 C23_23 1_555 1_555
C24_23 N2_23 1_555 1_555
C25_23 C16_23 1_555 1_555
C26_23 C21_23 1_555 1_555
H12_23 C26_23 1_555 1_555
C27_23 C8_23 1_555 1_555
C28_23 C14_23 1_555 1_555
C29_23 C30_23 1_555 1_555
C30_23 H13_23 1_555 1_555
C31_23 C30_23 1_555 1_555
H14_23 C31_23 1_555 1_555
C32_23 N2_23 1_555 1_555
C33_23 C32_23 1_555 1_555
H15_23 C33_23 1_555 1_555
C34_23 C29_23 1_555 1_555
H16_23 C34_23 1_555 1_555
C35_23 N1_23 1_555 1_555
C36_23 C35_23 1_555 1_555
H17_23 C36_23 1_555 1_555
C37_23 C36_23 1_555 1_555
H18_23 C37_23 1_555 1_555
C38_23 C29_23 1_555 1_555
C39_23 C38_23 1_555 1_555
H19_23 C39_23 1_555 1_555
C40_23 C35_23 1_555 1_555
H20_23 C40_23 1_555 1_555
Cu5 O3_12 1_555 1_555
Cu8 O4_12 1_555 1_555
O11_12 Cu5_3 1_555 1_555
O12_12 Cu8_3 1_555 1_555
C6_23 C7_23 1_555 1_555
C9_23 C10_23 1_555 1_555
C10_23 C11_23 1_555 1_555
C12_23 C13_23 1_555 1_555
C18_23 C19_23 1_555 1_555
C23_23 C24_23 1_555 1_555
C24_23 C25_23 1_555 1_555
C25_23 C26_23 1_555 1_555
C31_23 C32_23 1_555 1_555
C33_23 C34_23 1_555 1_555
C37_23 C38_23 1_555 1_555
C39_23 C40_23 1_555 1_555
O9_23 H21_23 1_555 1_555
O9_23 H22_23 1_555 1_555
O10_23 H23_23 1_555 1_555
O10_23 H24_23 1_555 1_555
O1_24 C20_24 1_555 1_555
O2_24 C20_24 1_555 1_555
O11_12 C27_24 1_555 1_555
O12_12 C27_24 1_555 1_555
O13_15 C1_24 1_555 1_555
O14_15 C1_24 1_555 1_555
O15_6 C28_24 1_555 1_555
O16_6 C28_24 1_555 1_555
N1_24 C5_24 1_555 1_555
N2_24 C17_24 1_555 1_555
C1_24 C2_24 1_555 1_555
C2_24 C3_24 1_555 1_555
C3_24 H1_24 1_555 1_555
C4_24 C3_24 1_555 1_555
C5_24 C4_24 1_555 1_555
C6_24 C5_24 1_555 1_555
H2_24 C6_24 1_555 1_555
C7_24 C2_24 1_555 1_555
H3_24 C7_24 1_555 1_555
C8_24 C9_24 1_555 1_555
C9_24 H4_24 1_555 1_555
C10_24 C4_24 1_555 1_555
C11_24 N1_24 1_555 1_555
C12_24 C11_24 1_555 1_555
H5_24 C12_24 1_555 1_555
C13_24 C8_24 1_555 1_555
H6_24 C13_24 1_555 1_555
C14_24 C15_24 1_555 1_555
C15_24 H7_24 1_555 1_555
C16_24 C15_24 1_555 1_555
C17_24 C16_24 1_555 1_555
C18_24 C17_24 1_555 1_555
H8_24 C18_24 1_555 1_555
C19_24 C14_24 1_555 1_555
H9_24 C19_24 1_555 1_555
C20_24 C21_24 1_555 1_555
C21_24 C22_24 1_555 1_555
C22_24 H10_24 1_555 1_555
C23_24 C22_24 1_555 1_555
H11_24 C23_24 1_555 1_555
C24_24 N2_24 1_555 1_555
C25_24 C16_24 1_555 1_555
C26_24 C21_24 1_555 1_555
H12_24 C26_24 1_555 1_555
C27_24 C8_24 1_555 1_555
C28_24 C14_24 1_555 1_555
C29_24 C30_24 1_555 1_555
C30_24 H13_24 1_555 1_555
C31_24 C30_24 1_555 1_555
H14_24 C31_24 1_555 1_555
C32_24 N2_24 1_555 1_555
C33_24 C32_24 1_555 1_555
H15_24 C33_24 1_555 1_555
C34_24 C29_24 1_555 1_555
H16_24 C34_24 1_555 1_555
C35_24 N1_24 1_555 1_555
C36_24 C35_24 1_555 1_555
H17_24 C36_24 1_555 1_555
C37_24 C36_24 1_555 1_555
H18_24 C37_24 1_555 1_555
C38_24 C29_24 1_555 1_555
C39_24 C38_24 1_555 1_555
H19_24 C39_24 1_555 1_555
C40_24 C35_24 1_555 1_555
H20_24 C40_24 1_555 1_555
C6_24 C7_24 1_555 1_555
C9_24 C10_24 1_555 1_555
C10_24 C11_24 1_555 1_555
C12_24 C13_24 1_555 1_555
C18_24 C19_24 1_555 1_555
C23_24 C24_24 1_555 1_555
C24_24 C25_24 1_555 1_555
C25_24 C26_24 1_555 1_555
C31_24 C32_24 1_555 1_555
C33_24 C34_24 1_555 1_555
C37_24 C38_24 1_555 1_555
C39_24 C40_24 1_555 1_555
O9_24 Cu8 1_555 1_555
O10_24 Cu5 1_555 1_555
O9_24 H21_24 1_555 1_555
O9_24 H22_24 1_555 1_555
O10_24 H23_24 1_555 1_555
O10_24 H24_24 1_555 1_555

#END
