
###############################################################################
#
# This file contains modified crystal structure data generated from the
# MOF subset of the Cambridge Structural Database (CSD) v543 
# hosted by the Cambridge Crystallographic Data Centre (CCDC).
#
# This work is licensed under the Creative Commons
# Attribution-NonCommercial-ShareAlike 4.0 International License.
# To view a copy of this license, visit
# http://creativecommons.org/licenses/by-nc-sa/4.0/
# or send a letter to
# Creative Commons, PO Box 1866, Mountain View, CA 94042, USA.
#
# CIF created using the CSD Python API on 29 September 2022
# The structure has been converted into the P1 space group
# The structure has a 3D framework
# The original CSD entry PAJRUQ is in the orthorhombic crystal system
# The framework has been calculated to contain at least 10.0% void space
# The void calculation uses a probe of radius 1.32A, grid spacing 0.4
#
###############################################################################

data_PAJRUQ
_chemical_formula_moiety         '(C144 H144 N88 Zn24)n'
_symmetry_cell_setting           triclinic
_symmetry_space_group_name_H-M   'P 1'
_symmetry_Int_Tables_number      1
_space_group_name_Hall           'P 1'
loop_
_symmetry_equiv_pos_site_id
_symmetry_equiv_pos_as_xyz
1 x,y,z
_cell_length_a                   9.6256(8)
_cell_length_b                   23.436(2)
_cell_length_c                   41.593(3)
_cell_angle_alpha                90
_cell_angle_beta                 90
_cell_angle_gamma                90
_cell_volume                     9382.78
loop_
_atom_site_label
_atom_site_type_symbol
_atom_site_fract_x
_atom_site_fract_y
_atom_site_fract_z
N8 N 0.0104(7) 0.4726(3) 0.07983(19)
H10 H 0.0016 0.4220 0.0416
Zn8 Zn 0.20382(12) 0.49814(5) 0.08282(3)
Zn2 Zn 0.70126(12) 0.37567(5) 0.03948(3)
N7 N 0.8207(7) 0.4274(3) 0.06334(18)
N11 N 0.7571(6) 0.2970(3) 0.04841(18)
C10 C 0.9522(9) 0.4378(4) 0.0587(2)
C11 C 0.9122(12) 0.4815(5) 0.1022(3)
H11 H 0.9214 0.5022 0.1212
C12 C 0.7936(13) 0.4535(6) 0.0912(3)
H12 H 0.7082 0.4531 0.1016
C16 C 0.7062(13) 0.2500 0.0367(3)
H16 H 0.6377 0.2500 0.0209
C17 C 0.8511(10) 0.2788(3) 0.0695(2)
H17 H 0.9075 0.3019 0.0821
N13 N 0.7571(6) 0.2030(3) 0.04841(18)
C20 C 0.8511(10) 0.2212(3) 0.0695(2)
H20 H 0.9075 0.1981 0.0821
Zn6 Zn 0.20339(13) 0.62524(5) 0.20822(3)
N15 N 0.2490(8) 0.5593(3) 0.0530(2)
N16 N 0.2833(8) 0.6069(3) 0.00667(18)
N17 N 0.2450(7) 0.5227(4) 0.12687(17)
N18 N 0.2452(8) 0.5706(4) 0.1737(2)
N19 N 0.3225(7) 0.4334(3) 0.07168(18)
N20 N 0.5124(7) 0.3883(3) 0.05514(19)
N23 N 0.3260(8) 0.6101(3) 0.24478(18)
N24 N 0.5157(7) 0.6099(3) 0.27591(18)
C22 C 0.2442(8) 0.5605(4) 0.0213(2)
H22 H 0.2136 0.5290 0.0097
C23 C 0.3279(14) 0.6394(5) 0.0328(3)
H23 H 0.3673 0.6755 0.0314
C24 C 0.3054(14) 0.6107(5) 0.0600(3)
H24 H 0.3254 0.6239 0.0806
C25 C 0.1946(10) 0.5652(4) 0.1442(2)
H25 H 0.1274 0.5898 0.1361
C26 C 0.3379(12) 0.5272(5) 0.1757(3)
H26 H 0.3941 0.5191 0.1933
C27 C 0.3348(12) 0.4975(5) 0.1475(3)
H27 H 0.3865 0.4648 0.1432
C28 C 0.4463(9) 0.4365(4) 0.0576(2)
H28 H 0.4831 0.4707 0.0502
C29 C 0.4313(11) 0.3505(5) 0.0706(3)
H29 H 0.4520 0.3122 0.0741
C30 C 0.3140(12) 0.3776(5) 0.0804(3)
H30 H 0.2401 0.3609 0.0912
C34 C 0.4537(11) 0.6338(4) 0.2513(2)
H34 H 0.4920 0.6635 0.2394
C35 C 0.4306(12) 0.5664(5) 0.2853(2)
H35 H 0.4478 0.5411 0.3021
C36 C 0.3186(12) 0.5660(5) 0.2664(3)
H36 H 0.2463 0.5398 0.2677
Zn9 Zn 0.70126(12) 0.12433(5) 0.03948(3)
Zn10 Zn 0.70339(13) 0.62524(5) 0.29178(3)
N27 N 0.0157(7) 0.6099(3) 0.22409(18)
N30 N 0.2245(7) 0.7022(3) 0.19214(17)
Zn1 Zn 0.79618(12) 0.50186(5) 0.91718(3)
Zn3 Zn 0.79661(13) 0.37476(5) 0.79178(3)
N1 N 0.7510(8) 0.4407(3) 0.9470(2)
N2 N 0.7167(8) 0.3931(3) 0.99333(18)
N3 N 0.7550(7) 0.4773(4) 0.87313(17)
N4 N 0.7548(8) 0.4294(4) 0.8263(2)
N5 N 0.6775(7) 0.5666(3) 0.92832(18)
N6 N 0.4876(7) 0.6117(3) 0.94486(19)
N9 N 0.6740(8) 0.3899(3) 0.75522(18)
N10 N 0.4843(7) 0.3901(3) 0.72409(18)
N12 N 0.7755(7) 0.2978(3) 0.80786(17)
C1 C 0.7558(8) 0.4395(4) 0.9787(2)
H1 H 0.7864 0.4710 0.9903
C2 C 0.6721(14) 0.3606(5) 0.9672(3)
H2 H 0.6327 0.3245 0.9686
C3 C 0.6946(14) 0.3893(5) 0.9400(3)
H3 H 0.6746 0.3761 0.9194
C4 C 0.8054(10) 0.4348(4) 0.8558(2)
H4 H 0.8726 0.4102 0.8639
C5 C 0.6621(12) 0.4728(5) 0.8243(3)
H5 H 0.6059 0.4809 0.8067
C6 C 0.6652(12) 0.5025(5) 0.8525(3)
H6 H 0.6135 0.5352 0.8568
C7 C 0.5537(9) 0.5635(4) 0.9424(2)
H7 H 0.5169 0.5293 0.9498
C8 C 0.5687(11) 0.6495(5) 0.9294(3)
H8 H 0.5480 0.6878 0.9259
C9 C 0.6860(12) 0.6224(5) 0.9196(3)
H9 H 0.7599 0.6391 0.9088
C13 C 0.5463(11) 0.3662(4) 0.7487(2)
H13 H 0.5080 0.3365 0.7606
C14 C 0.5694(12) 0.4336(5) 0.7147(2)
H14 H 0.5522 0.4589 0.6979
C15 C 0.6814(12) 0.4340(5) 0.7336(3)
H15 H 0.7537 0.4602 0.7323
C18 C 0.7952(14) 0.2500 0.7922(3)
H18 H 0.8223 0.2500 0.7708
C19 C 0.7341(9) 0.2781(4) 0.8380(2)
H19 H 0.7103 0.3010 0.8554
N14 N 0.7755(7) 0.2022(3) 0.80786(17)
C21 C 0.7341(9) 0.2219(4) 0.8380(2)
H21 H 0.7103 0.1990 0.8554
Zn5 Zn 0.29874(12) 0.62433(5) 0.96052(3)
N21 N 0.1793(7) 0.5726(3) 0.93666(18)
C31 C 0.0478(9) 0.5622(4) 0.9413(2)
C32 C 0.0878(12) 0.5185(5) 0.8978(3)
H32 H 0.0786 0.4978 0.8788
C33 C 0.2064(13) 0.5465(6) 0.9088(3)
H33 H 0.2918 0.5469 0.8984
Zn11 Zn 0.29661(13) 0.37476(5) 0.70822(3)
Zn12 Zn 0.79661(13) 0.12524(5) 0.79178(3)
N26 N 0.9896(7) 0.5274(3) 0.92017(19)
N28 N 0.9843(7) 0.3901(3) 0.77591(18)
N29 N 0.2429(6) 0.7030(3) 0.95159(18)
H31 H 0.9984 0.5780 0.9584
N6_2 N 0.0124(7) 0.3883(3) 0.44486(19)
Zn4 Zn 0.29618(12) 0.50186(5) 0.58282(3)
Zn5_2 Zn 0.20126(12) 0.37567(5) 0.46052(3)
N15_2 N 0.2510(8) 0.4407(3) 0.5530(2)
N16_2 N 0.2167(8) 0.3931(3) 0.50667(18)
N17_2 N 0.2550(7) 0.4773(4) 0.62687(17)
N18_2 N 0.2548(8) 0.4294(4) 0.6737(2)
N19_2 N 0.1775(7) 0.5666(3) 0.57168(18)
N21_2 N 0.3207(7) 0.4274(3) 0.43666(18)
N22 N 0.5104(7) 0.4726(3) 0.42017(19)
N23_2 N 0.1740(8) 0.3899(3) 0.74478(18)
C22_2 C 0.2558(8) 0.4395(4) 0.5213(2)
H22_2 H 0.2864 0.4710 0.5097
C23_2 C 0.1721(14) 0.3606(5) 0.5328(3)
H23_2 H 0.1327 0.3245 0.5314
C24_2 C 0.1946(14) 0.3893(5) 0.5600(3)
H24_2 H 0.1746 0.3761 0.5806
C25_2 C 0.3054(10) 0.4348(4) 0.6442(2)
H25_2 H 0.3726 0.4102 0.6361
C26_2 C 0.1621(12) 0.4728(5) 0.6757(3)
H26_2 H 0.1059 0.4809 0.6933
C27_2 C 0.1652(12) 0.5025(5) 0.6475(3)
H27_2 H 0.1135 0.5352 0.6432
C28_2 C 0.0537(9) 0.5635(4) 0.5576(2)
H28_2 H 0.0169 0.5293 0.5502
C29_2 C 0.0687(11) 0.6495(5) 0.5706(3)
H29_2 H 0.0480 0.6878 0.5741
C30_2 C 0.1860(12) 0.6224(5) 0.5804(3)
H30_2 H 0.2599 0.6391 0.5912
C31_2 C 0.4522(9) 0.4378(4) 0.4413(2)
H31_2 H 0.5016 0.4220 0.4584
C32_2 C 0.4122(12) 0.4815(5) 0.3978(3)
H32_2 H 0.4214 0.5022 0.3788
C33_2 C 0.2936(13) 0.4535(6) 0.4088(3)
H33_2 H 0.2082 0.4531 0.3984
C34_2 C 0.0463(11) 0.3662(4) 0.7513(2)
H34_2 H 0.0080 0.3365 0.7394
C35_2 C 0.0694(12) 0.4336(5) 0.7853(2)
H35_2 H 0.0522 0.4589 0.8021
C36_2 C 0.1814(12) 0.4340(5) 0.7664(3)
H36_2 H 0.2537 0.4602 0.7677
Zn7 Zn 0.70382(12) 0.49814(5) 0.41718(3)
N25 N 0.4896(7) 0.5274(3) 0.57983(19)
N29_2 N 0.2571(6) 0.2970(3) 0.45159(18)
N30_2 N 0.2755(7) 0.2978(3) 0.69214(17)
Zn2_2 Zn 0.79874(12) 0.62433(5) 0.53948(3)
N1_2 N 0.7490(8) 0.5593(3) 0.4470(2)
N2_2 N 0.7833(8) 0.6069(3) 0.49333(18)
N3_2 N 0.7450(7) 0.5227(4) 0.37313(17)
N4_2 N 0.7452(8) 0.5706(4) 0.3263(2)
N5_2 N 0.8225(7) 0.4334(3) 0.42832(18)
N7_2 N 0.6793(7) 0.5726(3) 0.56334(18)
N9_2 N 0.8260(8) 0.6101(3) 0.25522(18)
N11_2 N 0.7429(6) 0.7030(3) 0.54841(18)
N12_2 N 0.7245(7) 0.7022(3) 0.30786(17)
C1_2 C 0.7442(8) 0.5605(4) 0.4787(2)
H1_2 H 0.7136 0.5290 0.4903
C2_2 C 0.8279(14) 0.6394(5) 0.4672(3)
H2_2 H 0.8673 0.6755 0.4686
C3_2 C 0.8054(14) 0.6107(5) 0.4400(3)
H3_2 H 0.8254 0.6239 0.4194
C4_2 C 0.6946(10) 0.5652(4) 0.3558(2)
H4_2 H 0.6274 0.5898 0.3639
C5_2 C 0.8379(12) 0.5272(5) 0.3243(3)
H5_2 H 0.8941 0.5191 0.3067
C6_2 C 0.8348(12) 0.4975(5) 0.3525(3)
H6_2 H 0.8865 0.4648 0.3568
C7_2 C 0.9463(9) 0.4365(4) 0.4424(2)
H7_2 H 0.9831 0.4707 0.4498
C8_2 C 0.9313(11) 0.3505(5) 0.4294(3)
H8_2 H 0.9520 0.3122 0.4259
C9_2 C 0.8140(12) 0.3776(5) 0.4196(3)
H9_2 H 0.7401 0.3609 0.4088
C10_2 C 0.5478(9) 0.5622(4) 0.5587(2)
H10_2 H 0.4984 0.5780 0.5416
C11_2 C 0.5878(12) 0.5185(5) 0.6022(3)
H11_2 H 0.5786 0.4978 0.6212
C12_2 C 0.7064(13) 0.5465(6) 0.5912(3)
H12_2 H 0.7918 0.5469 0.6016
C13_2 C 0.9537(11) 0.6338(4) 0.2487(2)
H13_2 H 0.9920 0.6635 0.2606
C14_2 C 0.9306(12) 0.5664(5) 0.2147(2)
H14_2 H 0.9478 0.5411 0.1979
C15_2 C 0.8186(12) 0.5660(5) 0.2336(3)
H15_2 H 0.7463 0.5398 0.2323
C16_2 C 0.7938(13) 0.7500 0.5367(3)
H16_2 H 0.8623 0.7500 0.5209
C17_2 C 0.6489(10) 0.7212(3) 0.5695(2)
H17_2 H 0.5925 0.6981 0.5821
C18_2 C 0.7048(14) 0.7500 0.2922(3)
H18_2 H 0.6777 0.7500 0.2708
C19_2 C 0.7659(9) 0.7219(4) 0.3380(2)
H19_2 H 0.7897 0.6990 0.3554
N13_2 N 0.7429(6) 0.7970(3) 0.54841(18)
C20_2 C 0.6489(10) 0.7788(3) 0.5695(2)
H20_2 H 0.5925 0.8019 0.5821
N14_2 N 0.7245(7) 0.7978(3) 0.30786(17)
C21_2 C 0.7659(9) 0.7781(4) 0.3380(2)
H21_2 H 0.7897 0.8010 0.3554
N20_2 N 0.9876(7) 0.6117(3) 0.55514(19)
Zn9_2 Zn 0.79874(12) 0.87567(5) 0.53948(3)
Zn12_2 Zn 0.70339(13) 0.87476(5) 0.29178(3)
Zn2_3 Zn 0.20126(12) 0.12433(5) 0.46052(3)
Zn3_2 Zn 0.29661(13) 0.12524(5) 0.70822(3)
N1_3 N 0.2510(8) 0.0593(3) 0.5530(2)
N2_3 N 0.2167(8) 0.1069(3) 0.50667(18)
N3_3 N 0.2550(7) 0.0227(4) 0.62687(17)
N4_3 N 0.2548(8) 0.0706(4) 0.6737(2)
N7_3 N 0.3207(7) 0.0726(3) 0.43666(18)
N8_2 N 0.5104(7) 0.0274(3) 0.42017(19)
N9_3 N 0.1740(8) 0.1101(3) 0.74478(18)
N11_3 N 0.2571(6) 0.2030(3) 0.45159(18)
N12_3 N 0.2755(7) 0.2022(3) 0.69214(17)
C1_3 C 0.2558(8) 0.0605(4) 0.5213(2)
H1_3 H 0.2864 0.0290 0.5097
C2_3 C 0.1721(14) 0.1394(5) 0.5328(3)
H2_3 H 0.1327 0.1755 0.5314
C3_3 C 0.1946(14) 0.1107(5) 0.5600(3)
H3_3 H 0.1746 0.1239 0.5806
C4_3 C 0.3054(10) 0.0652(4) 0.6442(2)
H4_3 H 0.3726 0.0898 0.6361
C5_3 C 0.1621(12) 0.0272(5) 0.6757(3)
H5_3 H 0.1059 0.0191 0.6933
C10_3 C 0.4522(9) 0.0622(4) 0.4413(2)
H10_3 H 0.5016 0.0780 0.4584
C11_3 C 0.4122(12) 0.0185(5) 0.3978(3)
C12_3 C 0.2936(13) 0.0465(6) 0.4088(3)
H12_3 H 0.2082 0.0469 0.3984
C13_3 C 0.0463(11) 0.1338(4) 0.7513(2)
H13_3 H 0.0080 0.1635 0.7394
C14_3 C 0.0694(12) 0.0664(5) 0.7853(2)
H14_3 H 0.0522 0.0411 0.8021
C15_3 C 0.1814(12) 0.0660(5) 0.7664(3)
H15_3 H 0.2537 0.0398 0.7677
C16_3 C 0.2062(13) 0.2500 0.4633(3)
H16_3 H 0.1377 0.2500 0.4791
C17_3 C 0.3511(10) 0.2212(3) 0.4305(2)
H17_3 H 0.4075 0.1981 0.4179
C18_3 C 0.2952(14) 0.2500 0.7078(3)
H18_3 H 0.3223 0.2500 0.7292
C19_3 C 0.2341(9) 0.2219(4) 0.6620(2)
H19_3 H 0.2103 0.1990 0.6446
C20_3 C 0.3511(10) 0.2788(3) 0.4305(2)
H20_3 H 0.4075 0.3019 0.4179
C21_3 C 0.2341(9) 0.2781(4) 0.6620(2)
H21_3 H 0.2103 0.3010 0.6446
N20_3 N 0.0124(7) 0.1117(3) 0.44486(19)
Zn8_2 Zn 0.70382(12) 0.00186(5) 0.41718(3)
N28_2 N 0.4843(7) 0.1099(3) 0.72409(18)
Zn1_2 Zn 0.29618(12) 0.99814(5) 0.58282(3)
N5_3 N 0.1775(7) 0.9334(3) 0.57168(18)
C6_3 C 0.1652(12) 0.9975(5) 0.6475(3)
H6_3 H 0.1135 0.9648 0.6432
C7_3 C 0.0537(9) 0.9365(4) 0.5576(2)
H7_3 H 0.0169 0.9707 0.5502
C8_3 C 0.0687(11) 0.8505(5) 0.5706(3)
H8_3 H 0.0480 0.8122 0.5741
C9_3 C 0.1860(12) 0.8776(5) 0.5804(3)
H9_3 H 0.2599 0.8609 0.5912
H11_3 H 0.4214 0.9978 0.3788
N24_2 N 0.0157(7) 0.8901(3) 0.22409(18)
Zn10_2 Zn 0.20339(13) 0.87476(5) 0.20822(3)
N26_2 N 0.4896(7) 0.9726(3) 0.57983(19)
N10_2 N 0.9843(7) 0.1099(3) 0.77591(18)
N19_3 N 0.8225(7) 0.0666(3) 0.42832(18)
C27_3 C 0.8348(12) 0.0025(5) 0.3525(3)
H27_3 H 0.8865 0.0352 0.3568
C28_3 C 0.9463(9) 0.0635(4) 0.4424(2)
H28_3 H 0.9831 0.0293 0.4498
C29_3 C 0.9313(11) 0.1495(5) 0.4294(3)
H29_3 H 0.9520 0.1878 0.4259
C30_3 C 0.8140(12) 0.1224(5) 0.4196(3)
H30_3 H 0.7401 0.1391 0.4088
H32_3 H 0.5786 0.0022 0.6212
N6_3 N 0.9876(7) 0.8883(3) 0.55514(19)
N15_3 N 0.7490(8) 0.9407(3) 0.4470(2)
N16_3 N 0.7833(8) 0.8931(3) 0.49333(18)
N17_3 N 0.7450(7) 0.9773(4) 0.37313(17)
N18_3 N 0.7452(8) 0.9294(4) 0.3263(2)
N21_3 N 0.6793(7) 0.9274(3) 0.56334(18)
N23_3 N 0.8260(8) 0.8899(3) 0.25522(18)
C22_3 C 0.7442(8) 0.9395(4) 0.4787(2)
H22_3 H 0.7136 0.9710 0.4903
C23_3 C 0.8279(14) 0.8606(5) 0.4672(3)
H23_3 H 0.8673 0.8245 0.4686
C24_3 C 0.8054(14) 0.8893(5) 0.4400(3)
H24_3 H 0.8254 0.8761 0.4194
C25_3 C 0.6946(10) 0.9348(4) 0.3558(2)
H25_3 H 0.6274 0.9102 0.3639
C26_3 C 0.8379(12) 0.9728(5) 0.3243(3)
H26_3 H 0.8941 0.9809 0.3067
C31_3 C 0.5478(9) 0.9378(4) 0.5587(2)
H31_3 H 0.4984 0.9220 0.5416
C32_3 C 0.5878(12) 0.9815(5) 0.6022(3)
C33_3 C 0.7064(13) 0.9535(6) 0.5912(3)
H33_3 H 0.7918 0.9531 0.6016
C34_3 C 0.9537(11) 0.8662(4) 0.2487(2)
H34_3 H 0.9920 0.8365 0.2606
C35_3 C 0.9306(12) 0.9336(5) 0.2147(2)
H35_3 H 0.9478 0.9589 0.1979
C36_3 C 0.8186(12) 0.9340(5) 0.2336(3)
H36_3 H 0.7463 0.9602 0.2323
N27_2 N 0.5157(7) 0.8901(3) 0.27591(18)
N22_2 N 0.0104(7) 0.0274(3) 0.07983(19)
H31_4 H 0.0016 0.0780 0.0416
Zn7_2 Zn 0.20382(12) 0.00186(5) 0.08282(3)
N5_4 N 0.3225(7) 0.0666(3) 0.07168(18)
N6_4 N 0.5124(7) 0.1117(3) 0.05514(19)
C6_4 C 0.3348(12) 0.0025(5) 0.1475(3)
H6_4 H 0.3865 0.0352 0.1432
C7_4 C 0.4463(9) 0.0635(4) 0.0576(2)
H7_4 H 0.4831 0.0293 0.0502
C8_4 C 0.4313(11) 0.1495(5) 0.0706(3)
H8_4 H 0.4520 0.1878 0.0741
C9_4 C 0.3140(12) 0.1224(5) 0.0804(3)
H9_4 H 0.2401 0.1391 0.0912
N21_4 N 0.8207(7) 0.0726(3) 0.06334(18)
C31_4 C 0.9522(9) 0.0622(4) 0.0587(2)
C32_4 C 0.9122(12) 0.0185(5) 0.1022(3)
C33_4 C 0.7936(13) 0.0465(6) 0.0912(3)
H33_4 H 0.7082 0.0469 0.1016
H11_4 H 0.0786 0.0022 0.8788
N15_4 N 0.7510(8) 0.0593(3) 0.9470(2)
N16_4 N 0.7167(8) 0.1069(3) 0.99333(18)
N17_4 N 0.7550(7) 0.0227(4) 0.87313(17)
N18_4 N 0.7548(8) 0.0706(4) 0.8263(2)
N23_4 N 0.6740(8) 0.1101(3) 0.75522(18)
C22_4 C 0.7558(8) 0.0605(4) 0.9787(2)
H22_4 H 0.7864 0.0290 0.9903
C23_4 C 0.6721(14) 0.1394(5) 0.9672(3)
H23_4 H 0.6327 0.1755 0.9686
C24_4 C 0.6946(14) 0.1107(5) 0.9400(3)
H24_4 H 0.6746 0.1239 0.9194
C25_4 C 0.8054(10) 0.0652(4) 0.8558(2)
H25_4 H 0.8726 0.0898 0.8639
C26_4 C 0.6621(12) 0.0272(5) 0.8243(3)
H26_4 H 0.6059 0.0191 0.8067
C34_4 C 0.5463(11) 0.1338(4) 0.7487(2)
H34_4 H 0.5080 0.1635 0.7606
C35_4 C 0.5694(12) 0.0664(5) 0.7147(2)
H35_4 H 0.5522 0.0411 0.6979
C36_4 C 0.6814(12) 0.0660(5) 0.7336(3)
H36_4 H 0.7537 0.0398 0.7323
N1_4 N 0.2490(8) 0.9407(3) 0.0530(2)
N2_4 N 0.2833(8) 0.8931(3) 0.00667(18)
N3_4 N 0.2450(7) 0.9773(4) 0.12687(17)
N4_4 N 0.2452(8) 0.9294(4) 0.1737(2)
N9_4 N 0.3260(8) 0.8899(3) 0.24478(18)
N12_4 N 0.2245(7) 0.7978(3) 0.19214(17)
C1_4 C 0.2442(8) 0.9395(4) 0.0213(2)
H1_4 H 0.2136 0.9710 0.0097
C2_4 C 0.3279(14) 0.8606(5) 0.0328(3)
H2_4 H 0.3673 0.8245 0.0314
C3_4 C 0.3054(14) 0.8893(5) 0.0600(3)
H3_4 H 0.3254 0.8761 0.0806
C4_4 C 0.1946(10) 0.9348(4) 0.1442(2)
H4_4 H 0.1274 0.9102 0.1361
C5_4 C 0.3379(12) 0.9728(5) 0.1757(3)
H5_4 H 0.3941 0.9809 0.1933
C13_4 C 0.4537(11) 0.8662(4) 0.2513(2)
H13_4 H 0.4920 0.8365 0.2394
C14_4 C 0.4306(12) 0.9336(5) 0.2853(2)
H14_4 H 0.4478 0.9589 0.3021
C15_4 C 0.3186(12) 0.9340(5) 0.2664(3)
H15_4 H 0.2463 0.9602 0.2677
C18_4 C 0.2048(14) 0.7500 0.2078(3)
H18_4 H 0.1777 0.7500 0.2292
C19_4 C 0.2659(9) 0.7781(4) 0.1620(2)
H19_4 H 0.2897 0.8010 0.1446
C21_4 C 0.2659(9) 0.7219(4) 0.1620(2)
H21_4 H 0.2897 0.6990 0.1446
H32_4 H 0.9214 0.9978 0.1212
Zn2_4 Zn 0.29874(12) 0.87567(5) 0.96052(3)
N7_4 N 0.1793(7) 0.9274(3) 0.93666(18)
N11_4 N 0.2429(6) 0.7970(3) 0.95159(18)
C10_4 C 0.0478(9) 0.9378(4) 0.9413(2)
C11_4 C 0.0878(12) 0.9815(5) 0.8978(3)
C12_4 C 0.2064(13) 0.9535(6) 0.9088(3)
H12_4 H 0.2918 0.9531 0.8984
C16_4 C 0.2938(13) 0.7500 0.9633(3)
H16_4 H 0.3623 0.7500 0.9791
C17_4 C 0.1489(10) 0.7788(3) 0.9305(2)
H17_4 H 0.0925 0.8019 0.9179
C20_4 C 0.1489(10) 0.7212(3) 0.9305(2)
H20_4 H 0.0925 0.6981 0.9179
Zn4_2 Zn 0.79618(12) 0.99814(5) 0.91718(3)
N19_4 N 0.6775(7) 0.9334(3) 0.92832(18)
N20_4 N 0.4876(7) 0.8883(3) 0.94486(19)
C27_4 C 0.6652(12) 0.9975(5) 0.8525(3)
H27_4 H 0.6135 0.9648 0.8568
C28_4 C 0.5537(9) 0.9365(4) 0.9424(2)
H28_4 H 0.5169 0.9707 0.9498
C29_4 C 0.5687(11) 0.8505(5) 0.9294(3)
H29_4 H 0.5480 0.8122 0.9259
C30_4 C 0.6860(12) 0.8776(5) 0.9196(3)
H30_4 H 0.7599 0.8609 0.9088
N25_2 N 0.9896(7) 0.9726(3) 0.92017(19)
H10_4 H 0.9984 0.9220 0.9584
loop_
_geom_bond_atom_site_label_1
_geom_bond_atom_site_label_2
_geom_bond_site_symmetry_1
_geom_bond_site_symmetry_2
Zn8 N8 1_555 1_555
N7 Zn2 1_555 1_555
N11 Zn2 1_555 1_555
C10 N7 1_555 1_555
H11 C11 1_555 1_555
C12 N7 1_555 1_555
H12 C12 1_555 1_555
C16 N11 1_555 1_555
H16 C16 1_555 1_555
C17 N11 1_555 1_555
H17 C17 1_555 1_555
N13 C16 1_555 1_555
C20 C17 1_555 1_555
H20 C20 1_555 1_555
Zn8 N15 1_555 1_555
Zn6 N18 1_555 1_555
N15 C22 1_555 1_555
N17 Zn8 1_555 1_555
N18 C25 1_555 1_555
N19 Zn8 1_555 1_555
N20 Zn2 1_555 1_555
N23 Zn6 1_555 1_555
N24 C34 1_555 1_555
C22 N16 1_555 1_555
H22 C22 1_555 1_555
C23 N16 1_555 1_555
H23 C23 1_555 1_555
C24 N15 1_555 1_555
H24 C24 1_555 1_555
C25 N17 1_555 1_555
H25 C25 1_555 1_555
C26 N18 1_555 1_555
H26 C26 1_555 1_555
C27 N17 1_555 1_555
H27 C27 1_555 1_555
C28 N19 1_555 1_555
H28 C28 1_555 1_555
C29 N20 1_555 1_555
H29 C29 1_555 1_555
C30 N19 1_555 1_555
H30 C30 1_555 1_555
C34 N23 1_555 1_555
H34 C34 1_555 1_555
C35 N24 1_555 1_555
H35 C35 1_555 1_555
C36 N23 1_555 1_555
H36 C36 1_555 1_555
Zn9 N13 1_555 1_555
Zn10 N24 1_555 1_555
N27 Zn6 1_555 1_555
N30 Zn6 1_555 1_555
C11 C12 1_555 1_555
N13 C20 1_555 1_555
N20 C28 1_555 1_555
C23 C24 1_555 1_555
C26 C27 1_555 1_555
C29 C30 1_555 1_555
C35 C36 1_555 1_555
Zn1 N1 1_555 1_555
Zn3 N4 1_555 1_555
N1 C1 1_555 1_555
N2 C1 1_555 1_555
N3 Zn1 1_555 1_555
N4 C4 1_555 1_555
N5 Zn1 1_555 1_555
N6 C7 1_555 1_555
N9 Zn3 1_555 1_555
N10 C13 1_555 1_555
N12 Zn3 1_555 1_555
C1 H1 1_555 1_555
C2 N2 1_555 1_555
H2 C2 1_555 1_555
C3 N1 1_555 1_555
H3 C3 1_555 1_555
C4 N3 1_555 1_555
H4 C4 1_555 1_555
C5 N4 1_555 1_555
H5 C5 1_555 1_555
C6 N3 1_555 1_555
H6 C6 1_555 1_555
C7 N5 1_555 1_555
H7 C7 1_555 1_555
C8 N6 1_555 1_555
H8 C8 1_555 1_555
C9 N5 1_555 1_555
H9 C9 1_555 1_555
C13 N9 1_555 1_555
H13 C13 1_555 1_555
C14 N10 1_555 1_555
H14 C14 1_555 1_555
C15 N9 1_555 1_555
H15 C15 1_555 1_555
C18 N12 1_555 1_555
H18 C18 1_555 1_555
C19 N12 1_555 1_555
H19 C19 1_555 1_555
N14 C18 1_555 1_555
C21 C19 1_555 1_555
H21 C21 1_555 1_555
Zn5 N6 1_555 1_555
N21 Zn5 1_555 1_555
C31 N21 1_555 1_555
H32 C32 1_555 1_555
C33 N21 1_555 1_555
H33 C33 1_555 1_555
Zn11 N10 1_555 1_555
Zn12 N14 1_555 1_555
N26 Zn1 1_555 1_555
N28 Zn3 1_555 1_555
N29 Zn5 1_555 1_555
C2 C3 1_555 1_555
C5 C6 1_555 1_555
C8 C9 1_555 1_555
C14 C15 1_555 1_555
N14 C21 1_555 1_555
C32 C33 1_555 1_555
Zn4 N15_2 1_555 1_555
Zn5_2 N6_2 1_555 1_555
Zn11 N18_2 1_555 1_555
N15_2 C22_2 1_555 1_555
N16_2 Zn5_2 1_555 1_555
N17_2 Zn4 1_555 1_555
N18_2 C25_2 1_555 1_555
N19_2 Zn4 1_555 1_555
N21_2 Zn5_2 1_555 1_555
N22 C31_2 1_555 1_555
N23_2 Zn11 1_555 1_555
C22_2 N16_2 1_555 1_555
H22_2 C22_2 1_555 1_555
C23_2 N16_2 1_555 1_555
H23_2 C23_2 1_555 1_555
C24_2 N15_2 1_555 1_555
H24_2 C24_2 1_555 1_555
C25_2 N17_2 1_555 1_555
H25_2 C25_2 1_555 1_555
C26_2 N18_2 1_555 1_555
H26_2 C26_2 1_555 1_555
C27_2 N17_2 1_555 1_555
H27_2 C27_2 1_555 1_555
C28_2 N19_2 1_555 1_555
H28_2 C28_2 1_555 1_555
H29_2 C29_2 1_555 1_555
C30_2 N19_2 1_555 1_555
H30_2 C30_2 1_555 1_555
C31_2 N21_2 1_555 1_555
H31_2 C31_2 1_555 1_555
C32_2 N22 1_555 1_555
H32_2 C32_2 1_555 1_555
C33_2 N21_2 1_555 1_555
H33_2 C33_2 1_555 1_555
C34_2 N23_2 1_555 1_555
H34_2 C34_2 1_555 1_555
H35_2 C35_2 1_555 1_555
C36_2 N23_2 1_555 1_555
H36_2 C36_2 1_555 1_555
Zn7 N22 1_555 1_555
N25 Zn4 1_555 1_555
N29_2 Zn5_2 1_555 1_555
N30_2 Zn11 1_555 1_555
C23_2 C24_2 1_555 1_555
C26_2 C27_2 1_555 1_555
C29_2 C30_2 1_555 1_555
C32_2 C33_2 1_555 1_555
C35_2 C36_2 1_555 1_555
Zn7 N1_2 1_555 1_555
Zn2_2 N2_2 1_555 1_555
Zn10 N4_2 1_555 1_555
N1_2 C1_2 1_555 1_555
N2_2 C1_2 1_555 1_555
N3_2 Zn7 1_555 1_555
N4_2 C4_2 1_555 1_555
N5_2 Zn7 1_555 1_555
N7_2 Zn2_2 1_555 1_555
N25 C10_2 1_555 1_555
N9_2 Zn10 1_555 1_555
N11_2 Zn2_2 1_555 1_555
N12_2 Zn10 1_555 1_555
C1_2 H1_2 1_555 1_555
C2_2 N2_2 1_555 1_555
H2_2 C2_2 1_555 1_555
C3_2 N1_2 1_555 1_555
H3_2 C3_2 1_555 1_555
C4_2 N3_2 1_555 1_555
H4_2 C4_2 1_555 1_555
C5_2 N4_2 1_555 1_555
H5_2 C5_2 1_555 1_555
C6_2 N3_2 1_555 1_555
H6_2 C6_2 1_555 1_555
C7_2 N5_2 1_555 1_555
H7_2 C7_2 1_555 1_555
H8_2 C8_2 1_555 1_555
C9_2 N5_2 1_555 1_555
H9_2 C9_2 1_555 1_555
C10_2 N7_2 1_555 1_555
H10_2 C10_2 1_555 1_555
C11_2 N25 1_555 1_555
H11_2 C11_2 1_555 1_555
C12_2 N7_2 1_555 1_555
H12_2 C12_2 1_555 1_555
C13_2 N9_2 1_555 1_555
H13_2 C13_2 1_555 1_555
H14_2 C14_2 1_555 1_555
C15_2 N9_2 1_555 1_555
H15_2 C15_2 1_555 1_555
C16_2 N11_2 1_555 1_555
H16_2 C16_2 1_555 1_555
C17_2 N11_2 1_555 1_555
H17_2 C17_2 1_555 1_555
C18_2 N12_2 1_555 1_555
H18_2 C18_2 1_555 1_555
C19_2 N12_2 1_555 1_555
H19_2 C19_2 1_555 1_555
N13_2 C16_2 1_555 1_555
C20_2 C17_2 1_555 1_555
H20_2 C20_2 1_555 1_555
N14_2 C18_2 1_555 1_555
C21_2 C19_2 1_555 1_555
H21_2 C21_2 1_555 1_555
N20_2 Zn2_2 1_555 1_555
Zn9_2 N13_2 1_555 1_555
Zn12_2 N14_2 1_555 1_555
C2_2 C3_2 1_555 1_555
C5_2 C6_2 1_555 1_555
C8_2 C9_2 1_555 1_555
C11_2 C12_2 1_555 1_555
C14_2 C15_2 1_555 1_555
N13_2 C20_2 1_555 1_555
N14_2 C21_2 1_555 1_555
Zn2_3 N2_3 1_555 1_555
Zn3_2 N4_3 1_555 1_555
N1_3 C1_3 1_555 1_555
N2_3 C1_3 1_555 1_555
N4_3 C4_3 1_555 1_555
N7_3 Zn2_3 1_555 1_555
N8_2 C10_3 1_555 1_555
N9_3 Zn3_2 1_555 1_555
N11_3 Zn2_3 1_555 1_555
N12_3 Zn3_2 1_555 1_555
C1_3 H1_3 1_555 1_555
C2_3 N2_3 1_555 1_555
H2_3 C2_3 1_555 1_555
C3_3 N1_3 1_555 1_555
H3_3 C3_3 1_555 1_555
C4_3 N3_3 1_555 1_555
H4_3 C4_3 1_555 1_555
C5_3 N4_3 1_555 1_555
H5_3 C5_3 1_555 1_555
C10_3 N7_3 1_555 1_555
H10_3 C10_3 1_555 1_555
C11_3 N8_2 1_555 1_555
C12_3 N7_3 1_555 1_555
H12_3 C12_3 1_555 1_555
C13_3 N9_3 1_555 1_555
H13_3 C13_3 1_555 1_555
H14_3 C14_3 1_555 1_555
C15_3 N9_3 1_555 1_555
H15_3 C15_3 1_555 1_555
C16_3 N11_3 1_555 1_555
H16_3 C16_3 1_555 1_555
C17_3 N11_3 1_555 1_555
H17_3 C17_3 1_555 1_555
C18_3 N12_3 1_555 1_555
H18_3 C18_3 1_555 1_555
C19_3 N12_3 1_555 1_555
H19_3 C19_3 1_555 1_555
N29_2 C16_3 1_555 1_555
C20_3 C17_3 1_555 1_555
H20_3 C20_3 1_555 1_555
N30_2 C18_3 1_555 1_555
C21_3 C19_3 1_555 1_555
H21_3 C21_3 1_555 1_555
N20_3 Zn2_3 1_555 1_555
Zn8_2 N8_2 1_555 1_555
N28_2 Zn3_2 1_555 1_555
C2_3 C3_3 1_555 1_555
C11_3 C12_3 1_555 1_555
C14_3 C15_3 1_555 1_555
N29_2 C20_3 1_555 1_555
N30_2 C21_3 1_555 1_555
N5_3 Zn1_2 1_555 1_555
H6_3 C6_3 1_555 1_555
C7_3 N5_3 1_555 1_555
H7_3 C7_3 1_555 1_555
H8_3 C8_3 1_555 1_555
C9_3 N5_3 1_555 1_555
H9_3 C9_3 1_555 1_555
Zn10_2 N24_2 1_555 1_555
N26_2 Zn1_2 1_555 1_555
C8_3 C9_3 1_555 1_555
N19_3 Zn8_2 1_555 1_555
H27_3 C27_3 1_555 1_555
C28_3 N19_3 1_555 1_555
H28_3 C28_3 1_555 1_555
H29_3 C29_3 1_555 1_555
C30_3 N19_3 1_555 1_555
H30_3 C30_3 1_555 1_555
Zn12 N10_2 1_555 1_555
C29_3 C30_3 1_555 1_555
Zn9_2 N6_3 1_555 1_555
Zn12_2 N18_3 1_555 1_555
N15_3 C22_3 1_555 1_555
N16_3 Zn9_2 1_555 1_555
N18_3 C25_3 1_555 1_555
N21_3 Zn9_2 1_555 1_555
N26_2 C31_3 1_555 1_555
N23_3 Zn12_2 1_555 1_555
C22_3 N16_3 1_555 1_555
H22_3 C22_3 1_555 1_555
C23_3 N16_3 1_555 1_555
H23_3 C23_3 1_555 1_555
C24_3 N15_3 1_555 1_555
H24_3 C24_3 1_555 1_555
C25_3 N17_3 1_555 1_555
H25_3 C25_3 1_555 1_555
C26_3 N18_3 1_555 1_555
H26_3 C26_3 1_555 1_555
C31_3 N21_3 1_555 1_555
H31_3 C31_3 1_555 1_555
C32_3 N26_2 1_555 1_555
C33_3 N21_3 1_555 1_555
H33_3 C33_3 1_555 1_555
C34_3 N23_3 1_555 1_555
H34_3 C34_3 1_555 1_555
H35_3 C35_3 1_555 1_555
C36_3 N23_3 1_555 1_555
H36_3 C36_3 1_555 1_555
N27_2 Zn12_2 1_555 1_555
C23_3 C24_3 1_555 1_555
C32_3 C33_3 1_555 1_555
C35_3 C36_3 1_555 1_555
Zn7_2 N22_2 1_555 1_555
N5_4 Zn7_2 1_555 1_555
N6_4 C7_4 1_555 1_555
H6_4 C6_4 1_555 1_555
C7_4 N5_4 1_555 1_555
H7_4 C7_4 1_555 1_555
C8_4 N6_4 1_555 1_555
H8_4 C8_4 1_555 1_555
C9_4 N5_4 1_555 1_555
H9_4 C9_4 1_555 1_555
Zn9 N6_4 1_555 1_555
N21_4 Zn9 1_555 1_555
C31_4 N21_4 1_555 1_555
C33_4 N21_4 1_555 1_555
H33_4 C33_4 1_555 1_555
C8_4 C9_4 1_555 1_555
C32_4 C33_4 1_555 1_555
Zn12 N18_4 1_555 1_555
N15_4 C22_4 1_555 1_555
N18_4 C25_4 1_555 1_555
N23_4 Zn12 1_555 1_555
N28_2 C34_4 1_555 1_555
C22_4 N16_4 1_555 1_555
H22_4 C22_4 1_555 1_555
C23_4 N16_4 1_555 1_555
H23_4 C23_4 1_555 1_555
C24_4 N15_4 1_555 1_555
H24_4 C24_4 1_555 1_555
C25_4 N17_4 1_555 1_555
H25_4 C25_4 1_555 1_555
C26_4 N18_4 1_555 1_555
H26_4 C26_4 1_555 1_555
C34_4 N23_4 1_555 1_555
H34_4 C34_4 1_555 1_555
C35_4 N28_2 1_555 1_555
H35_4 C35_4 1_555 1_555
C36_4 N23_4 1_555 1_555
H36_4 C36_4 1_555 1_555
C23_4 C24_4 1_555 1_555
C35_4 C36_4 1_555 1_555
Zn10_2 N4_4 1_555 1_555
N1_4 C1_4 1_555 1_555
N2_4 C1_4 1_555 1_555
N4_4 C4_4 1_555 1_555
N9_4 Zn10_2 1_555 1_555
N27_2 C13_4 1_555 1_555
N12_4 Zn10_2 1_555 1_555
C1_4 H1_4 1_555 1_555
C2_4 N2_4 1_555 1_555
H2_4 C2_4 1_555 1_555
C3_4 N1_4 1_555 1_555
H3_4 C3_4 1_555 1_555
C4_4 N3_4 1_555 1_555
H4_4 C4_4 1_555 1_555
C5_4 N4_4 1_555 1_555
H5_4 C5_4 1_555 1_555
C13_4 N9_4 1_555 1_555
H13_4 C13_4 1_555 1_555
C14_4 N27_2 1_555 1_555
H14_4 C14_4 1_555 1_555
C15_4 N9_4 1_555 1_555
H15_4 C15_4 1_555 1_555
C18_4 N12_4 1_555 1_555
H18_4 C18_4 1_555 1_555
C19_4 N12_4 1_555 1_555
H19_4 C19_4 1_555 1_555
N30 C18_4 1_555 1_555
C21_4 C19_4 1_555 1_555
H21_4 C21_4 1_555 1_555
C2_4 C3_4 1_555 1_555
C14_4 C15_4 1_555 1_555
N30 C21_4 1_555 1_555
N7_4 Zn2_4 1_555 1_555
N11_4 Zn2_4 1_555 1_555
C10_4 N7_4 1_555 1_555
C12_4 N7_4 1_555 1_555
H12_4 C12_4 1_555 1_555
C16_4 N11_4 1_555 1_555
H16_4 C16_4 1_555 1_555
C17_4 N11_4 1_555 1_555
H17_4 C17_4 1_555 1_555
N29 C16_4 1_555 1_555
C20_4 C17_4 1_555 1_555
H20_4 C20_4 1_555 1_555
N19_4 Zn4_2 1_555 1_555
N20_4 Zn2_4 1_555 1_555
H27_4 C27_4 1_555 1_555
C28_4 N19_4 1_555 1_555
H28_4 C28_4 1_555 1_555
C29_4 N20_4 1_555 1_555
H29_4 C29_4 1_555 1_555
C30_4 N19_4 1_555 1_555
H30_4 C30_4 1_555 1_555
N25_2 Zn4_2 1_555 1_555
C11_4 C12_4 1_555 1_555
N29 C20_4 1_555 1_555
N20_4 C28_4 1_555 1_555
C29_4 C30_4 1_555 1_555

#END
