
###############################################################################
#
# This file contains modified crystal structure data generated from the
# MOF subset of the Cambridge Structural Database (CSD) v543 
# hosted by the Cambridge Crystallographic Data Centre (CCDC).
#
# This work is licensed under the Creative Commons
# Attribution-NonCommercial-ShareAlike 4.0 International License.
# To view a copy of this license, visit
# http://creativecommons.org/licenses/by-nc-sa/4.0/
# or send a letter to
# Creative Commons, PO Box 1866, Mountain View, CA 94042, USA.
#
# CIF created using the CSD Python API on 29 September 2022
# The structure has been converted into the P1 space group
# The structure has a 3D framework
# The original CSD entry PANYOU is in the orthorhombic crystal system
# The framework has been calculated to contain at least 10.0% void space
# The void calculation uses a probe of radius 1.32A, grid spacing 0.4
#
###############################################################################

data_PANYOU
_chemical_formula_moiety         '(C56 H80 N16 O32 Zn4)n'
_symmetry_cell_setting           triclinic
_symmetry_space_group_name_H-M   'P 1'
_symmetry_Int_Tables_number      1
_space_group_name_Hall           'P 1'
loop_
_symmetry_equiv_pos_site_id
_symmetry_equiv_pos_as_xyz
1 x,y,z
_cell_length_a                   24.0866(19)
_cell_length_b                   4.8855(4)
_cell_length_c                   22.2025(17)
_cell_angle_alpha                90
_cell_angle_beta                 90
_cell_angle_gamma                90
_cell_volume                     2612.68
loop_
_atom_site_label
_atom_site_type_symbol
_atom_site_fract_x
_atom_site_fract_y
_atom_site_fract_z
H10 H 0.4958 0.1479 0.0033
C7 C 0.51339(18) 0.0243(7) 0.97358(19)
H9 H 0.5339 0.1375 0.9441
C9 C 0.42598(14) 0.0246(7) 0.90893(15)
O5 O 0.43121(10) 0.2811(5) 0.91020(11)
Zn3 Zn 0.371716(14) 0.50690(8) 0.87296(4)
Zn1 Zn 0.628284(14) 0.49310(8) 0.37296(4)
C1 C 0.60727(18) 0.5569(8) 0.25715(18)
C2 C 0.61280(17) 0.6415(10) 0.19183(18)
H1 H 0.6500 0.5892 0.1767
H2 H 0.6092 0.8428 0.1885
C3 C 0.56795(17) 0.5031(9) 0.15358(17)
H3 H 0.5703 0.3020 0.1585
H4 H 0.5308 0.5629 0.1674
H7 H 0.7356 0.5429 0.0081
C11 C 0.54314(15) 0.7798(8) 0.06541(17)
C12 C 0.61518(16) 0.4278(9) 0.05790(18)
N1 N 0.57528(13) 0.5749(6) 0.08953(14)
N3 N 0.55244(12) 0.8337(6) 0.00482(13)
O1 O 0.65089(11) 0.5917(6) 0.29052(11)
O2 O 0.56379(13) 0.4697(7) 0.27736(14)
O7 O 0.64096(13) 0.2423(6) 0.08024(13)
O9 O 0.50813(12) 0.8989(7) 0.09388(13)
O10 O 0.68836(13) 0.5646(6) 0.42954(15)
O11 O 0.56879(10) 0.7189(5) 0.41020(11)
O12 O 0.61244(10) 0.0959(5) 0.38206(12)
C4 C 0.66877(17) 0.3852(9) 0.9639(2)
H5 H 0.6575 0.3624 0.9213
H6 H 0.6762 0.2013 0.9808
C5 C 0.72025(19) 0.5529(10) 0.9667(2)
H8 H 0.7106 0.7464 0.9586
C6 C 0.76504(18) 0.4632(9) 0.9223(2)
C8 C 0.46935(16) 0.8568(8) 0.94160(18)
H11 H 0.4878 0.7349 0.9122
H12 H 0.4505 0.7393 0.9716
C10 C 0.59312(15) 0.7100(8) 0.97036(17)
N2 N 0.62362(13) 0.5140(7) 0.99759(19)
O3 O 0.81164(13) 0.5646(6) 0.92954(15)
O4 O 0.75224(13) 0.3019(9) 0.88177(18)
O6 O 0.38756(10) 0.9041(5) 0.88206(12)
O8 O 0.60101(12) 0.7744(6) 0.91830(13)
Zn4 Zn 0.871716(14) 0.49310(8) 0.87296(4)
C1_2 C 0.39273(18) 0.4431(8) 0.75715(18)
C2_2 C 0.38720(17) 0.3585(10) 0.69183(18)
H1_2 H 0.3500 0.4108 0.6767
H2_2 H 0.3908 0.1572 0.6885
C3_2 C 0.43205(17) 0.4969(9) 0.65358(17)
H3_2 H 0.4297 0.6980 0.6585
H4_2 H 0.4692 0.4371 0.6674
C4_2 C 0.33123(17) 0.6148(9) 0.4639(2)
H5_2 H 0.3425 0.6376 0.4213
H6_2 H 0.3238 0.7987 0.4808
C5_2 C 0.27975(19) 0.4471(10) 0.4667(2)
H7_2 H 0.2644 0.4571 0.5081
H8_2 H 0.2894 0.2536 0.4586
C6_2 C 0.23496(18) 0.5368(9) 0.4223(2)
C8_2 C 0.53065(16) 0.1432(8) 0.44160(18)
H11_2 H 0.5122 0.2651 0.4122
H12_2 H 0.5495 0.2607 0.4716
C10_2 C 0.40688(15) 0.2900(8) 0.47036(17)
C11_2 C 0.45686(15) 0.2202(8) 0.56541(17)
C12_2 C 0.38482(16) 0.5722(9) 0.55790(18)
N1_2 N 0.42472(13) 0.4251(6) 0.58953(14)
N2_2 N 0.37638(13) 0.4860(7) 0.49759(19)
N3_2 N 0.44756(12) 0.1663(6) 0.50482(13)
O1_2 O 0.34911(11) 0.4083(6) 0.79052(11)
O2_2 O 0.43621(13) 0.5303(7) 0.77736(14)
O3_2 O 0.18836(13) 0.4354(6) 0.42954(15)
O4_2 O 0.24776(13) 0.6981(9) 0.38177(18)
O7_2 O 0.35904(13) 0.7577(6) 0.58024(13)
O8_2 O 0.39899(12) 0.2256(6) 0.41830(13)
O9_2 O 0.49187(12) 0.1011(7) 0.59388(13)
Zn4_2 Zn 0.128284(14) 0.50690(8) 0.37296(4)
O10_2 O 0.31164(13) 0.4354(6) 0.92954(15)
C7_2 C 0.48661(18) 0.9757(7) 0.47358(19)
H9_2 H 0.4661 0.8625 0.4441
H10_2 H 0.5042 0.8521 0.5033
C9_2 C 0.57402(14) 0.9754(7) 0.40893(15)
C1_3 C 0.10727(18) 0.4431(8) 0.25715(18)
C2_3 C 0.11280(17) 0.3585(10) 0.19183(18)
H1_3 H 0.1500 0.4108 0.1767
H2_3 H 0.1092 0.1572 0.1885
C3_3 C 0.06795(17) 0.4969(9) 0.15358(17)
H3_3 H 0.0703 0.6980 0.1585
H4_3 H 0.0308 0.4371 0.1674
H7_3 H 0.2356 0.4571 0.0081
C11_3 C 0.04314(15) 0.2202(8) 0.06541(17)
C12_3 C 0.11518(16) 0.5722(9) 0.05790(18)
N1_3 N 0.07528(13) 0.4251(6) 0.08953(14)
N3_3 N 0.05244(12) 0.1663(6) 0.00482(13)
O1_3 O 0.15089(11) 0.4083(6) 0.29052(11)
O2_3 O 0.06379(13) 0.5303(7) 0.27736(14)
O7_3 O 0.14096(13) 0.7577(6) 0.08024(13)
O9_3 O 0.00813(12) 0.1011(7) 0.09388(13)
O11_2 O 0.06879(10) 0.2811(5) 0.41020(11)
O12_2 O 0.11244(10) 0.9041(5) 0.38206(12)
C4_3 C 0.16877(17) 0.6148(9) 0.9639(2)
H5_3 H 0.1575 0.6376 0.9213
H6_3 H 0.1762 0.7987 0.9808
C5_3 C 0.22025(19) 0.4471(10) 0.9667(2)
H8_3 H 0.2106 0.2536 0.9586
C6_3 C 0.26504(18) 0.5368(9) 0.9223(2)
C10_3 C 0.09312(15) 0.2900(8) 0.97036(17)
N2_3 N 0.12362(13) 0.4860(7) 0.99759(19)
O4_3 O 0.25224(13) 0.6981(9) 0.88177(18)
O8_3 O 0.10101(12) 0.2256(6) 0.91830(13)
C8_3 C 0.96935(16) 0.1432(8) 0.94160(18)
H11_3 H 0.9878 0.2651 0.9122
H12_3 H 0.9505 0.2607 0.9716
O6_2 O 0.88756(10) 0.0959(5) 0.88206(12)
C9_3 C 0.92598(14) 0.9754(7) 0.90893(15)
O5_2 O 0.93121(10) 0.7189(5) 0.91020(11)
H10_3 H 0.0042 0.1479 0.5033
C9_4 C 0.07402(14) 0.0246(7) 0.40893(15)
C8_4 C 0.03065(16) 0.8568(8) 0.44160(18)
H11_4 H 0.0122 0.7349 0.4122
H12_4 H 0.0495 0.7393 0.4716
C1_4 C 0.89273(18) 0.5569(8) 0.75715(18)
C2_4 C 0.88720(17) 0.6415(10) 0.69183(18)
H1_4 H 0.8500 0.5892 0.6767
H2_4 H 0.8908 0.8428 0.6885
C3_4 C 0.93205(17) 0.5031(9) 0.65358(17)
H3_4 H 0.9297 0.3020 0.6585
H4_4 H 0.9692 0.5629 0.6674
C4_4 C 0.83123(17) 0.3852(9) 0.4639(2)
H5_4 H 0.8425 0.3624 0.4213
H6_4 H 0.8238 0.2013 0.4808
C5_4 C 0.77975(19) 0.5529(10) 0.4667(2)
H7_4 H 0.7644 0.5429 0.5081
H8_4 H 0.7894 0.7464 0.4586
C6_4 C 0.73496(18) 0.4632(9) 0.4223(2)
C10_4 C 0.90688(15) 0.7100(8) 0.47036(17)
C11_4 C 0.95686(15) 0.7798(8) 0.56541(17)
C12_4 C 0.88482(16) 0.4278(9) 0.55790(18)
N1_4 N 0.92472(13) 0.5749(6) 0.58953(14)
N2_4 N 0.87638(13) 0.5140(7) 0.49759(19)
N3_4 N 0.94756(12) 0.8337(6) 0.50482(13)
O1_4 O 0.84911(11) 0.5917(6) 0.79052(11)
O2_4 O 0.93621(13) 0.4697(7) 0.77736(14)
O4_4 O 0.74776(13) 0.3019(9) 0.38177(18)
O7_4 O 0.85904(13) 0.2423(6) 0.58024(13)
O8_4 O 0.89899(12) 0.7744(6) 0.41830(13)
O9_4 O 0.99187(12) 0.8989(7) 0.59388(13)
C7_3 C 0.01339(18) 0.9757(7) 0.97358(19)
H9_3 H 0.0339 0.8625 0.9441
H10_4 H 0.9958 0.8521 0.0033
C7_4 C 0.98661(18) 0.0243(7) 0.47358(19)
H9_4 H 0.9661 0.1375 0.4441
C13 C 0.2924(2) 0.1535(15) 0.2918(3)
H13 H 0.2937 0.2537 0.3300
H14 H 0.2998 0.2799 0.2584
H15 H 0.3207 0.0091 0.2920
H18 H 0.2393 0.0087 0.1941
N4 N 0.23881(18) 0.0338(9) 0.2843(2)
H19 H 0.2124 0.1698 0.2855
C14 C 0.2334(3) 0.8838(13) 0.2280(3)
H16 H 0.1961 0.8045 0.2254
H17 H 0.2611 0.7370 0.2267
H20 H 0.2321 0.9167 0.3159
C14_2 C 0.7666(3) 0.1162(13) 0.7280(3)
H16_2 H 0.8039 0.1955 0.7254
H17_2 H 0.7389 0.2630 0.7267
H20_2 H 0.7679 0.0833 0.8159
C13_2 C 0.7076(2) 0.8465(15) 0.7918(3)
H13_2 H 0.7063 0.7463 0.8300
H14_2 H 0.7002 0.7201 0.7584
H15_2 H 0.6793 0.9909 0.7920
H18_2 H 0.7607 0.9913 0.6941
N4_2 N 0.76119(18) 0.9662(9) 0.7843(2)
H19_2 H 0.7876 0.8302 0.7855
C14_3 C 0.7334(3) 0.1162(13) 0.2280(3)
H16_3 H 0.6961 0.1955 0.2254
H17_3 H 0.7611 0.2630 0.2267
H20_3 H 0.7321 0.0833 0.3159
C13_3 C 0.7924(2) 0.8465(15) 0.2918(3)
H13_3 H 0.7937 0.7463 0.3300
H14_3 H 0.7998 0.7201 0.2584
H15_3 H 0.8207 0.9909 0.2920
H18_3 H 0.7393 0.9913 0.1941
N4_3 N 0.73881(18) 0.9662(9) 0.2843(2)
H19_3 H 0.7124 0.8302 0.2855
C13_4 C 0.2076(2) 0.1535(15) 0.7918(3)
H13_4 H 0.2063 0.2537 0.8300
H14_4 H 0.2002 0.2799 0.7584
H15_4 H 0.1793 0.0091 0.7920
H18_4 H 0.2607 0.0087 0.6941
N4_4 N 0.26119(18) 0.0338(9) 0.7843(2)
H19_4 H 0.2876 0.1698 0.7855
C14_4 C 0.2666(3) 0.8838(13) 0.7280(3)
H16_4 H 0.3039 0.8045 0.7254
H17_4 H 0.2389 0.7370 0.7267
H20_4 H 0.2679 0.9167 0.8159
loop_
_geom_bond_atom_site_label_1
_geom_bond_atom_site_label_2
_geom_bond_site_symmetry_1
_geom_bond_site_symmetry_2
C7 H9 1_555 1_555
O5 C9 1_555 1_555
Zn3 O5 1_555 1_555
Zn1 O1 1_555 1_555
C1 C2 1_555 1_555
C2 H1 1_555 1_555
H2 C2 1_555 1_555
C3 C2 1_555 1_555
H3 C3 1_555 1_555
H4 C3 1_555 1_555
C11 N1 1_555 1_555
C12 N1 1_555 1_555
N1 C3 1_555 1_555
O1 C1 1_555 1_555
O2 C1 1_555 1_555
O7 C12 1_555 1_555
O9 C11 1_555 1_555
O10 Zn1 1_555 1_555
O11 Zn1 1_555 1_555
O12 Zn1 1_555 1_555
C11 N3 1_555 1_555
C4 H5 1_555 1_555
H6 C4 1_555 1_555
C5 C4 1_555 1_555
H8 C5 1_555 1_555
C6 C5 1_555 1_555
H11 C8 1_555 1_555
H12 C8 1_555 1_555
C10 N2 1_555 1_555
N2 C4 1_555 1_555
O3 C6 1_555 1_555
O4 C6 1_555 1_555
O8 C10 1_555 1_555
Zn3 O6 1_555 1_555
Zn4 O3 1_555 1_555
Zn3 O1_2 1_555 1_555
C1_2 C2_2 1_555 1_555
C2_2 H1_2 1_555 1_555
H2_2 C2_2 1_555 1_555
C3_2 C2_2 1_555 1_555
H3_2 C3_2 1_555 1_555
H4_2 C3_2 1_555 1_555
C4_2 H5_2 1_555 1_555
H6_2 C4_2 1_555 1_555
C5_2 C4_2 1_555 1_555
H7_2 C5_2 1_555 1_555
H8_2 C5_2 1_555 1_555
C6_2 C5_2 1_555 1_555
H11_2 C8_2 1_555 1_555
H12_2 C8_2 1_555 1_555
C10_2 N2_2 1_555 1_555
C11_2 N1_2 1_555 1_555
C12_2 N1_2 1_555 1_555
N1_2 C3_2 1_555 1_555
N2_2 C4_2 1_555 1_555
O1_2 C1_2 1_555 1_555
O2_2 C1_2 1_555 1_555
O3_2 C6_2 1_555 1_555
O4_2 C6_2 1_555 1_555
O7_2 C12_2 1_555 1_555
O8_2 C10_2 1_555 1_555
O9_2 C11_2 1_555 1_555
Zn4_2 O3_2 1_555 1_555
O10_2 Zn3 1_555 1_555
C10_2 N3_2 1_555 1_555
C11_2 N3_2 1_555 1_555
C12_2 N2_2 1_555 1_555
C7_2 H9_2 1_555 1_555
H10_2 C7_2 1_555 1_555
O11 C9_2 1_555 1_555
Zn4_2 O1_3 1_555 1_555
C1_3 C2_3 1_555 1_555
C2_3 H1_3 1_555 1_555
H2_3 C2_3 1_555 1_555
C3_3 C2_3 1_555 1_555
H3_3 C3_3 1_555 1_555
H4_3 C3_3 1_555 1_555
C11_3 N1_3 1_555 1_555
C12_3 N1_3 1_555 1_555
N1_3 C3_3 1_555 1_555
O1_3 C1_3 1_555 1_555
O2_3 C1_3 1_555 1_555
O7_3 C12_3 1_555 1_555
O9_3 C11_3 1_555 1_555
O11_2 Zn4_2 1_555 1_555
O12_2 Zn4_2 1_555 1_555
C11_3 N3_3 1_555 1_555
C4_3 H5_3 1_555 1_555
H6_3 C4_3 1_555 1_555
C5_3 C4_3 1_555 1_555
H8_3 C5_3 1_555 1_555
C6_3 C5_3 1_555 1_555
C10_3 N2_3 1_555 1_555
N2_3 C4_3 1_555 1_555
O10_2 C6_3 1_555 1_555
O4_3 C6_3 1_555 1_555
O8_3 C10_3 1_555 1_555
H11_3 C8_3 1_555 1_555
H12_3 C8_3 1_555 1_555
Zn4 O6_2 1_555 1_555
O5_2 C9_3 1_555 1_555
Zn4 O5_2 1_555 1_555
O11_2 C9_4 1_555 1_555
H11_4 C8_4 1_555 1_555
H12_4 C8_4 1_555 1_555
Zn4 O1_4 1_555 1_555
C1_4 C2_4 1_555 1_555
C2_4 H1_4 1_555 1_555
H2_4 C2_4 1_555 1_555
C3_4 C2_4 1_555 1_555
H3_4 C3_4 1_555 1_555
H4_4 C3_4 1_555 1_555
C4_4 H5_4 1_555 1_555
H6_4 C4_4 1_555 1_555
C5_4 C4_4 1_555 1_555
H7_4 C5_4 1_555 1_555
H8_4 C5_4 1_555 1_555
C6_4 C5_4 1_555 1_555
C10_4 N2_4 1_555 1_555
C11_4 N1_4 1_555 1_555
C12_4 N1_4 1_555 1_555
N1_4 C3_4 1_555 1_555
N2_4 C4_4 1_555 1_555
O1_4 C1_4 1_555 1_555
O2_4 C1_4 1_555 1_555
O10 C6_4 1_555 1_555
O4_4 C6_4 1_555 1_555
O7_4 C12_4 1_555 1_555
O8_4 C10_4 1_555 1_555
O9_4 C11_4 1_555 1_555
C10_4 N3_4 1_555 1_555
C11_4 N3_4 1_555 1_555
C12_4 N2_4 1_555 1_555
C7_3 H9_3 1_555 1_555
C7_4 H9_4 1_555 1_555
C13 H13 1_555 1_555
H14 C13 1_555 1_555
H15 C13 1_555 1_555
N4 C13 1_555 1_555
H19 N4 1_555 1_555
C14 H16 1_555 1_555
H17 C14 1_555 1_555
C14_2 H16_2 1_555 1_555
H17_2 C14_2 1_555 1_555
C13_2 H13_2 1_555 1_555
H14_2 C13_2 1_555 1_555
H15_2 C13_2 1_555 1_555
N4_2 C13_2 1_555 1_555
H19_2 N4_2 1_555 1_555
C14_3 H16_3 1_555 1_555
H17_3 C14_3 1_555 1_555
C13_3 H13_3 1_555 1_555
H14_3 C13_3 1_555 1_555
H15_3 C13_3 1_555 1_555
N4_3 C13_3 1_555 1_555
H19_3 N4_3 1_555 1_555
C13_4 H13_4 1_555 1_555
H14_4 C13_4 1_555 1_555
H15_4 C13_4 1_555 1_555
N4_4 C13_4 1_555 1_555
H19_4 N4_4 1_555 1_555
C14_4 H16_4 1_555 1_555
H17_4 C14_4 1_555 1_555

#END
