
###############################################################################
#
# This file contains modified crystal structure data generated from the
# MOF subset of the Cambridge Structural Database (CSD) v543 
# hosted by the Cambridge Crystallographic Data Centre (CCDC).
#
# This work is licensed under the Creative Commons
# Attribution-NonCommercial-ShareAlike 4.0 International License.
# To view a copy of this license, visit
# http://creativecommons.org/licenses/by-nc-sa/4.0/
# or send a letter to
# Creative Commons, PO Box 1866, Mountain View, CA 94042, USA.
#
# CIF created using the CSD Python API on 29 September 2022
# The structure has been converted into the P1 space group
# The structure has a 3D framework
# The original CSD entry PANYEK is in the orthorhombic crystal system
# The framework has been calculated to contain at least 10.0% void space
# The void calculation uses a probe of radius 1.32A, grid spacing 0.4
#
###############################################################################

data_PANYEK
_chemical_formula_moiety         '(C588 H392 Cd56 N490)n'
_symmetry_cell_setting           triclinic
_symmetry_space_group_name_H-M   'P 1'
_symmetry_Int_Tables_number      1
_space_group_name_Hall           'P 1'
loop_
_symmetry_equiv_pos_site_id
_symmetry_equiv_pos_as_xyz
1 x,y,z
_cell_length_a                   34.3111(10)
_cell_length_b                   40.5399(11)
_cell_length_c                   20.3265(7)
_cell_angle_alpha                90
_cell_angle_beta                 90
_cell_angle_gamma                90
_cell_volume                     28273.5
loop_
_atom_site_label
_atom_site_type_symbol
_atom_site_fract_x
_atom_site_fract_y
_atom_site_fract_z
C36 C 0.4063(2) 0.0929(2) 0.0161(4)
Cd8 Cd 0.5000 0.132460(18) 0.14183(5)
Cd9 Cd 0.5000 0.03812(2) 0.11562(5)
N15 N 0.4541(2) 0.07457(17) 0.0710(4)
N16 N 0.45248(19) 0.10607(17) 0.0806(4)
N17 N 0.42150(19) 0.11841(17) 0.0463(4)
N18 N 0.4254(2) 0.06478(18) 0.0307(4)
Cd13 Cd -0.0000 0.023300(19) 0.09639(4)
N118 N 0.45349(19) 0.16008(18) 0.2061(4)
N119 N 0.54651(19) 0.16008(18) 0.2061(4)
N124 N 0.5459(2) 0.07457(17) 0.0710(4)
N125 N 0.54752(19) 0.10607(17) 0.0806(4)
N126 N 0.55048(18) 0.00331(16) 0.1479(4)
N127 N 0.44952(18) 0.00331(16) 0.1479(4)
N135 N 0.5000 0.17452(18) 0.0665(4)
C2 C 0.2534(3) 0.2484(3) 0.8187(7)
H2 H 0.2552 0.2484 0.7730
C6 C 0.0000 0.0025(3) 0.8748(6)
H5 H -0.0000 0.0161 0.8378
C13 C 0.2517(3) 0.2185(3) 0.8551(7)
C15 C 0.2501(3) 0.0285(3) 0.9348(7)
H9 H 0.2478 0.0478 0.9592
C16 C 0.4066(3) 0.1692(2) 0.2706(5)
C22 C 0.1587(2) 0.05739(18) 0.6817(4)
C24 C 0.0914(3) 0.0388(2) 0.7057(5)
H14 H 0.0939 0.0466 0.7485
C25 C 0.3300(3) 0.1900(2) 0.3910(5)
H15 H 0.3242 0.2076 0.4186
C26 C 0.3719(3) 0.1664(2) 0.3102(5)
C27 C 0.3823(2) 0.2116(2) 0.6211(5)
C28 C 0.3721(2) 0.0928(2) 0.9752(4)
C30 C 0.1225(2) 0.0421(2) 0.6602(4)
C31 C 0.2524(3) 0.2773(2) 0.8542(5)
H16 H 0.2523 0.2969 0.8303
C32 C 0.3470(3) 0.1936(2) 0.6014(5)
C33 C 0.3456(3) 0.1408(2) 0.3059(5)
H17 H 0.3497 0.1236 0.2764
C34 C 0.2508(3) 0.2522(3) 0.9509(6)
H18 H 0.2505 0.2528 0.9966
C37 C 0.1153(3) 0.0317(2) 0.5988(4)
H20 H 0.1339 0.0352 0.5663
C38 C 0.3474(2) 0.0524(2) 0.6915(5)
C40 C 0.1583(2) 0.1882(2) 0.6043(5)
C41 C 0.1213(3) 0.2044(3) 0.6231(5)
C42 C 0.3127(3) 0.1154(2) 0.9360(4)
H21 H 0.2942 0.1321 0.9387
C44 C 0.2522(2) 0.1874(2) 0.8192(6)
C45 C 0.3642(3) 0.0662(2) 0.9349(5)
H23 H 0.3815 0.0485 0.9334
C46 C 0.1181(3) 0.2164(3) 0.6899(6)
H24 H 0.1383 0.2150 0.7202
C47 C 0.25169(19) 0.0018(2) 0.8330(6)
H25 H 0.2509 0.0033 0.7873
C49 C 0.3829(3) 0.0330(2) 0.6774(5)
C50 C 0.4457(3) 0.2321(3) 0.6012(6)
H26 H 0.4664 0.2341 0.5720
C51 C 0.3856(3) 0.2226(3) 0.6869(6)
H27 H 0.3660 0.2195 0.7179
C52 C 0.3994(3) 0.0351(3) 0.6160(7)
H28 H 0.3889 0.0486 0.5835
C53 C 0.0907(3) 0.2073(3) 0.5808(6)
H29 H 0.0931 0.1999 0.5376
C54 C 0.3134(3) 0.1409(2) 0.3457(6)
H30 H 0.2962 0.1232 0.3426
C56 C 0.4116(4) 0.2146(4) 0.5787(7)
H32 H 0.4102 0.2058 0.5365
C57 C 0.3310(3) 0.0656(2) 0.8971(5)
H33 H 0.3264 0.0474 0.8703
C58 C 0.0805(3) 0.2307(3) 0.7055(5)
H34 H 0.0762 0.2382 0.7481
C59 C 0.4210(3) 0.2388(2) 0.7015(6)
H35 H 0.4247 0.2455 0.7448
C60 C 0.0812(2) 0.0160(2) 0.5823(4)
H36 H 0.0780 0.0082 0.5396
C61 C 0.0582(3) 0.0240(2) 0.6856(5)
H37 H 0.0378 0.0223 0.7154
C64 C 0.0000 0.0150(3) 0.9391(6)
H40 H 0.0000 0.0379 0.9439
C70 C 0.2505(2) 0.2217(2) 0.9213(5)
H44 H 0.2495 0.2029 0.9475
C72 C 0.0565(3) 0.2211(3) 0.6017(6)
H46 H 0.0357 0.2216 0.5723
C73 C 0.3998(3) 0.0136(3) 0.7195(6)
H47 H 0.3907 0.0134 0.7626
C74 C 0.3459(3) 0.1188(2) 0.9728(5)
H48 H 0.3507 0.1382 0.9958
C75 C 0.3635(3) 0.1916(3) 0.3554(5)
H49 H 0.3806 0.2092 0.3609
C76 C 0.4329(4) 0.0160(3) 0.6045(7)
H50 H 0.4441 0.0171 0.5629
Cd4 Cd 0.250921(14) 0.082232(14) 0.82448(3)
Cd5 Cd 0.251770(15) 0.167920(15) 0.46294(3)
Cd7 Cd 0.256190(12) 0.123480(15) 0.64364(4)
N1 N 0.3050(2) 0.16484(17) 0.3890(4)
N2 N 0.4283(2) 0.19821(19) 0.2671(4)
N3 N 0.45580(19) 0.19135(17) 0.2247(4)
N5 N 0.4222(2) 0.14584(17) 0.2325(4)
N6 N 0.1748(2) 0.19327(19) 0.5460(4)
N7 N 0.2067(2) 0.17487(17) 0.5496(4)
N8 N 0.2091(2) 0.15969(18) 0.6051(4)
N9 N 0.1784(2) 0.16878(16) 0.6430(4)
N14 N 0.25105(19) 0.03020(15) 0.8703(5)
N20 N 0.3258(2) 0.04826(16) 0.7461(4)
N21 N 0.29824(19) 0.07075(16) 0.7413(3)
N22 N 0.30153(18) 0.08669(15) 0.6844(3)
N23 N 0.3321(2) 0.07526(16) 0.6532(4)
N24 N 0.3050(2) 0.09038(17) 0.8973(4)
N25 N 0.2060(2) 0.07307(16) 0.7384(3)
N26 N 0.1745(2) 0.05374(18) 0.7401(4)
N27 N 0.20906(19) 0.08632(14) 0.6785(3)
N28 N 0.17985(18) 0.07697(15) 0.6426(4)
N29 N 0.05317(18) 0.01158(16) 0.6248(4)
N44 N 0.25136(14) 0.13675(14) 0.8002(4)
N45 N 0.25350(17) 0.15210(16) 0.7447(4)
N46 N 0.2546(2) 0.18398(19) 0.7559(5)
N47 N 0.25028(15) 0.15937(17) 0.8494(4)
N48 N 0.2513(2) 0.2800(2) 0.9205(5)
N54 N 0.3291(2) 0.19732(18) 0.5447(4)
N55 N 0.2987(2) 0.17688(16) 0.5476(4)
N56 N 0.3000(2) 0.16082(17) 0.6018(4)
N57 N 0.3300(2) 0.17118(16) 0.6391(4)
N63 N 0.0509(2) 0.2335(2) 0.6605(4)
N65 N 0.4497(2) 0.24536(18) 0.6591(4)
Cd15 Cd 0.5000 0.279690(19) 0.69217(4)
Cd20 Cd 0.248230(15) 0.332080(15) 0.96294(3)
Cd23 Cd -0.0000 0.267980(19) 0.69231(4)
Cd25 Cd 0.5000 0.232020(19) 0.19231(4)
N121 N 0.2558(2) 0.11272(18) 0.4827(4)
N123 N 0.25651(19) 0.09624(18) 0.5397(4)
N128 N 0.1955(2) 0.08925(17) 0.8966(4)
N130 N 0.2487(2) 0.2200(2) 0.4205(5)
N133 N 0.1967(2) 0.16013(19) 0.3897(3)
N138 N -0.0000 0.0023(3) 0.4918(6)
H1 H 0.2542 0.9992 0.0119
H45 H -0.0000 0.9538 0.0246
N11 N 0.25651(19) 0.90376(18) 0.0397(4)
N12 N 0.2548(2) 0.93480(16) 0.0322(4)
N59 N 0.0000 0.7292(3) 0.0364(5)
N60 N 0.0000 0.6782(2) 0.0022(5)
N61 N -0.0000 0.7070(2) 0.0878(6)
N62 N -0.0000 0.67452(18) 0.0665(4)
Cd22 Cd -0.0000 0.732020(19) 0.19231(4)
Cd27 Cd 0.256190(12) 0.876520(15) 0.14364(4)
Cd31 Cd -0.0000 0.632460(18) 0.14183(5)
C1 C 0.2523(3) 0.9993(2) 0.9662(6)
C3 C 0.2534(2) 0.9710(2) 0.8630(5)
H3 H 0.2554 0.9517 0.8386
C4 C 0.0000 0.7204(3) 0.8027(6)
H4 H -0.0000 0.7071 0.7655
C5 C 0.0000 0.9552(3) 0.8061(7)
C8 C 0.0943(2) 0.8396(2) 0.7715(5)
C9 C 0.2520(2) 0.97051(18) 0.9336(4)
C10 C -0.0000 0.9496(3) 0.9241(6)
H6 H -0.0000 0.9267 0.9207
C11 C 0.1568(2) 0.8658(2) 0.8081(5)
H7 H 0.1533 0.8833 0.7793
C17 C 0.1296(2) 0.8413(2) 0.8111(5)
C18 C -0.0000 0.9695(2) 0.8710(5)
C20 C 0.1895(3) 0.8646(2) 0.8478(5)
H11 H 0.2073 0.8818 0.8453
C21 C 0.1370(3) 0.8155(3) 0.8552(5)
H12 H 0.1195 0.7981 0.8593
C29 C -0.0000 0.7078(3) 0.9842(6)
C39 C 0.0000 0.8032(2) 0.4865(5)
C43 C 0.1702(3) 0.8162(2) 0.8920(5)
H22 H 0.1745 0.7988 0.9208
C48 C 0.2538(2) 0.9383(2) 0.9637(6)
C55 C 0.4306(3) 0.9935(3) 0.7033(7)
H31 H 0.4382 0.9772 0.7327
C62 C -0.0000 0.7729(4) 0.8467(8)
H38 H 0.0000 0.7958 0.8428
C63 C 0.0000 0.7930(3) 0.3024(7)
H39 H -0.0000 0.8062 0.2650
C65 C -0.0000 0.7223(4) 0.9172(7)
C66 C 0.0000 0.7907(3) 0.4204(7)
C67 C -0.0000 0.7389(5) 0.3461(9)
H41 H -0.0000 0.7160 0.3431
C68 C -0.0000 0.7046(4) 0.8590(10)
H42 H 0.0000 0.6817 0.8598
C69 C 0.0000 0.8078(3) 0.3599(8)
H43 H -0.0000 0.8308 0.3607
C71 C 0.0000 0.9664(3) 0.9863(7)
C77 C -0.0000 0.7569(5) 0.4089(12)
H51 H -0.0000 0.7437 0.4464
C78 C -0.0000 0.7584(6) 0.9088(13)
H52 H 0.0000 0.7719 0.9459
Cd1 Cd -0.0000 0.976700(19) 0.59639(4)
Cd2 Cd 0.0000 0.87834(2) 0.64474(5)
Cd3 Cd 0.0000 0.779690(19) 0.69217(4)
N10 N 0.2558(2) 0.88728(18) 0.9827(4)
N13 N 0.2548(2) 0.90856(19) 0.9347(4)
N19 N 0.44952(18) 0.99669(16) 0.6479(4)
N35 N 0.0000 0.9736(2) 0.7484(5)
N36 N 0.0000 0.9217(2) 0.7867(6)
N37 N -0.0000 0.9534(2) 0.6986(5)
N38 N 0.0000 0.9225(3) 0.7242(6)
N39 N 0.0000 0.83166(17) 0.5679(4)
N40 N -0.0000 0.8043(2) 0.5857(5)
N41 N -0.0000 0.7846(2) 0.5361(5)
N42 N 0.0000 0.8346(2) 0.4993(5)
N43 N 0.0000 0.7590(2) 0.2935(5)
N49 N 0.07912(19) 0.86481(16) 0.7352(4)
N50 N 0.04758(17) 0.85169(15) 0.7082(3)
N51 N 0.04511(18) 0.81959(16) 0.7246(3)
N52 N 0.07341(19) 0.81213(17) 0.7650(4)
N53 N 0.1967(2) 0.83987(19) 0.8897(3)
N58 N -0.0000 0.75329(18) 0.7906(5)
N64 N -0.0000 0.9977(3) 0.9918(6)
C82 C 0.0943(2) 0.9151(2) 0.5169(5)
C86 C 0.1544(3) 0.8872(2) 0.4776(5)
H57 H 0.1497 0.8694 0.5054
C88 C 0.1283(2) 0.9133(2) 0.4750(4)
C92 C 0.1368(3) 0.9374(2) 0.4304(5)
H59 H 0.1201 0.9554 0.4257
C96 C 0.1872(2) 0.8878(2) 0.4387(4)
H62 H 0.2048 0.8704 0.4430
C107 C 0.1698(3) 0.9355(2) 0.3925(5)
H68 H 0.1746 0.9523 0.3624
N95 N 0.1955(2) 0.91075(17) 0.3966(4)
N96 N 0.07429(19) 0.94297(15) 0.5224(4)
N97 N 0.04505(19) 0.93582(16) 0.5630(4)
N98 N 0.04802(19) 0.90549(17) 0.5825(4)
N99 N 0.0783(2) 0.89110(17) 0.5517(4)
Cd17 Cd 0.250921(14) 0.917768(14) 0.32448(3)
Cd19 Cd 0.251770(15) 0.832080(15) 0.96294(3)
Cd34 Cd 0.5000 0.96188(2) 0.61562(5)
N117 N 0.04420(19) 0.69135(17) 0.2247(4)
N137 N 0.0509(2) 0.7665(2) 0.1605(4)
N140 N 0.0503(2) 0.74536(18) 0.6591(4)
C108 C 0.5937(2) 0.0929(2) 0.0161(4)
N82 N 0.57850(19) 0.11841(17) 0.0463(4)
N83 N 0.5746(2) 0.06478(18) 0.0307(4)
Cd13_2 Cd 1.0000 0.023300(19) 0.09639(4)
C6_2 C 1.0000 0.0025(3) 0.8748(6)
H5_2 H 1.0000 0.0161 0.8378
C64_2 C 1.0000 0.0150(3) 0.9391(6)
H40_2 H 1.0000 0.0379 0.9439
C80 C 0.7466(3) 0.2484(3) 0.8187(7)
H54 H 0.7448 0.2484 0.7730
C87 C 0.7483(3) 0.2185(3) 0.8551(7)
C89 C 0.7499(3) 0.0285(3) 0.9348(7)
H58 H 0.7522 0.0478 0.9592
C90 C 0.5934(3) 0.1692(2) 0.2706(5)
C95 C 0.8413(2) 0.05739(18) 0.6817(4)
C97 C 0.9086(3) 0.0388(2) 0.7057(5)
H63 H 0.9061 0.0466 0.7485
C98 C 0.6700(3) 0.1900(2) 0.3910(5)
H64 H 0.6758 0.2076 0.4186
C99 C 0.6281(3) 0.1664(2) 0.3102(5)
C100 C 0.6177(2) 0.2116(2) 0.6211(5)
C101 C 0.6279(2) 0.0928(2) 0.9752(4)
C102 C 0.8775(2) 0.0421(2) 0.6602(4)
C103 C 0.7476(3) 0.2773(2) 0.8542(5)
H65 H 0.7477 0.2969 0.8303
C104 C 0.6530(3) 0.1936(2) 0.6014(5)
C105 C 0.6544(3) 0.1408(2) 0.3059(5)
H66 H 0.6503 0.1236 0.2764
C106 C 0.7492(3) 0.2522(3) 0.9509(6)
H67 H 0.7495 0.2528 0.9966
C109 C 0.8847(3) 0.0317(2) 0.5988(4)
H69 H 0.8661 0.0352 0.5663
C110 C 0.6526(2) 0.0524(2) 0.6915(5)
C111 C 0.8417(2) 0.1882(2) 0.6043(5)
C112 C 0.8787(3) 0.2044(3) 0.6231(5)
C113 C 0.6873(3) 0.1154(2) 0.9360(4)
H70 H 0.7058 0.1321 0.9387
C115 C 0.7478(2) 0.1874(2) 0.8192(6)
C116 C 0.6358(3) 0.0662(2) 0.9349(5)
H72 H 0.6185 0.0485 0.9334
C117 C 0.8819(3) 0.2164(3) 0.6899(6)
H73 H 0.8617 0.2150 0.7202
C118 C 0.74831(19) 0.0018(2) 0.8330(6)
H74 H 0.7491 0.0033 0.7873
C120 C 0.6171(3) 0.0330(2) 0.6774(5)
C121 C 0.5543(3) 0.2321(3) 0.6012(6)
H75 H 0.5336 0.2341 0.5720
C122 C 0.6144(3) 0.2226(3) 0.6869(6)
H76 H 0.6340 0.2195 0.7179
C123 C 0.6006(3) 0.0351(3) 0.6160(7)
H77 H 0.6111 0.0486 0.5835
C124 C 0.9093(3) 0.2073(3) 0.5808(6)
H78 H 0.9069 0.1999 0.5376
C125 C 0.6866(3) 0.1409(2) 0.3457(6)
H79 H 0.7038 0.1232 0.3426
C127 C 0.5884(4) 0.2146(4) 0.5787(7)
H81 H 0.5898 0.2058 0.5365
C128 C 0.6690(3) 0.0656(2) 0.8971(5)
H82 H 0.6736 0.0474 0.8703
C129 C 0.9195(3) 0.2307(3) 0.7055(5)
H83 H 0.9238 0.2382 0.7481
C130 C 0.5790(3) 0.2388(2) 0.7015(6)
H84 H 0.5753 0.2455 0.7448
C131 C 0.9188(2) 0.0160(2) 0.5823(4)
H85 H 0.9220 0.0082 0.5396
C132 C 0.9418(3) 0.0240(2) 0.6856(5)
H86 H 0.9622 0.0223 0.7154
C133 C 0.7495(2) 0.2217(2) 0.9213(5)
H87 H 0.7505 0.2029 0.9475
C134 C 0.9435(3) 0.2211(3) 0.6017(6)
H88 H 0.9643 0.2216 0.5723
C135 C 0.6002(3) 0.0136(3) 0.7195(6)
H89 H 0.6093 0.0134 0.7626
C136 C 0.6541(3) 0.1188(2) 0.9728(5)
H90 H 0.6493 0.1382 0.9958
C137 C 0.6365(3) 0.1916(3) 0.3554(5)
H91 H 0.6194 0.2092 0.3609
C138 C 0.5671(4) 0.0160(3) 0.6045(7)
H92 H 0.5559 0.0171 0.5629
Cd10 Cd 0.749079(14) 0.082232(14) 0.82448(3)
Cd11 Cd 0.748230(15) 0.167920(15) 0.46294(3)
Cd12 Cd 0.743810(12) 0.123480(15) 0.64364(4)
N66 N 0.6950(2) 0.16484(17) 0.3890(4)
N67 N 0.5717(2) 0.19821(19) 0.2671(4)
N68 N 0.54420(19) 0.19135(17) 0.2247(4)
N70 N 0.5778(2) 0.14584(17) 0.2325(4)
N71 N 0.8252(2) 0.19327(19) 0.5460(4)
N72 N 0.7933(2) 0.17487(17) 0.5496(4)
N73 N 0.7909(2) 0.15969(18) 0.6051(4)
N74 N 0.8216(2) 0.16878(16) 0.6430(4)
N79 N 0.74895(19) 0.03020(15) 0.8703(5)
N85 N 0.6742(2) 0.04826(16) 0.7461(4)
N86 N 0.70176(19) 0.07075(16) 0.7413(3)
N87 N 0.69847(18) 0.08669(15) 0.6844(3)
N88 N 0.6679(2) 0.07526(16) 0.6532(4)
N89 N 0.6950(2) 0.09038(17) 0.8973(4)
N90 N 0.7940(2) 0.07307(16) 0.7384(3)
N91 N 0.8255(2) 0.05374(18) 0.7401(4)
N92 N 0.79094(19) 0.08632(14) 0.6785(3)
N93 N 0.82015(18) 0.07697(15) 0.6426(4)
N94 N 0.94683(18) 0.01158(16) 0.6248(4)
N100 N 0.74864(14) 0.13675(14) 0.8002(4)
N101 N 0.74650(17) 0.15210(16) 0.7447(4)
N102 N 0.7454(2) 0.18398(19) 0.7559(5)
N103 N 0.74972(15) 0.15937(17) 0.8494(4)
N104 N 0.7487(2) 0.2800(2) 0.9205(5)
N110 N 0.6709(2) 0.19732(18) 0.5447(4)
N111 N 0.7013(2) 0.17688(16) 0.5476(4)
N112 N 0.7000(2) 0.16082(17) 0.6018(4)
N113 N 0.6700(2) 0.17118(16) 0.6391(4)
N114 N 0.9491(2) 0.2335(2) 0.6605(4)
N115 N 0.5503(2) 0.24536(18) 0.6591(4)
Cd21 Cd 0.751770(15) 0.332080(15) 0.96294(3)
Cd23_2 Cd 1.0000 0.267980(19) 0.69231(4)
N120 N 0.7442(2) 0.11272(18) 0.4827(4)
N122 N 0.74349(19) 0.09624(18) 0.5397(4)
N129 N 0.8045(2) 0.08925(17) 0.8966(4)
N131 N 0.7513(2) 0.2200(2) 0.4205(5)
N132 N 0.8033(2) 0.16013(19) 0.3897(3)
N138_2 N 1.0000 0.0023(3) 0.4918(6)
H45_2 H 1.0000 0.9538 0.0246
N59_2 N 1.0000 0.7292(3) 0.0364(5)
N60_2 N 1.0000 0.6782(2) 0.0022(5)
N61_2 N 1.0000 0.7070(2) 0.0878(6)
N62_2 N 1.0000 0.67452(18) 0.0665(4)
H53 H 0.7458 0.9992 0.0119
N76 N 0.74349(19) 0.90376(18) 0.0397(4)
N77 N 0.7452(2) 0.93480(16) 0.0322(4)
Cd22_2 Cd 1.0000 0.732020(19) 0.19231(4)
Cd26 Cd 0.743810(12) 0.876520(15) 0.14364(4)
Cd31_2 Cd 1.0000 0.632460(18) 0.14183(5)
C4_2 C 1.0000 0.7204(3) 0.8027(6)
H4_2 H 1.0000 0.7071 0.7655
C5_2 C 1.0000 0.9552(3) 0.8061(7)
C7 C 0.9057(2) 0.9151(2) 0.5169(5)
C10_2 C 1.0000 0.9496(3) 0.9241(6)
H6_2 H 1.0000 0.9267 0.9207
C12 C 0.8456(3) 0.8872(2) 0.4776(5)
H8 H 0.8503 0.8694 0.5054
C14 C 0.8717(2) 0.9133(2) 0.4750(4)
C18_2 C 1.0000 0.9695(2) 0.8710(5)
C19 C 0.8632(3) 0.9374(2) 0.4304(5)
H10 H 0.8799 0.9554 0.4257
C23 C 0.8128(2) 0.8878(2) 0.4387(4)
H13 H 0.7952 0.8704 0.4430
C29_2 C 1.0000 0.7078(3) 0.9842(6)
C35 C 0.8302(3) 0.9355(2) 0.3925(5)
H19 H 0.8254 0.9523 0.3624
C39_2 C 1.0000 0.8032(2) 0.4865(5)
C62_2 C 1.0000 0.7729(4) 0.8467(8)
H38_2 H 1.0000 0.7958 0.8428
C63_2 C 1.0000 0.7930(3) 0.3024(7)
H39_2 H 1.0000 0.8062 0.2650
C65_2 C 1.0000 0.7223(4) 0.9172(7)
C66_2 C 1.0000 0.7907(3) 0.4204(7)
C67_2 C 1.0000 0.7389(5) 0.3461(9)
H41_2 H 1.0000 0.7160 0.3431
C68_2 C 1.0000 0.7046(4) 0.8590(10)
H42_2 H 1.0000 0.6817 0.8598
C69_2 C 1.0000 0.8078(3) 0.3599(8)
H43_2 H 1.0000 0.8308 0.3607
C71_2 C 1.0000 0.9664(3) 0.9863(7)
C77_2 C 1.0000 0.7569(5) 0.4089(12)
H51_2 H 1.0000 0.7437 0.4464
C78_2 C 1.0000 0.7584(6) 0.9088(13)
H52_2 H 1.0000 0.7719 0.9459
Cd1_2 Cd 1.0000 0.976700(19) 0.59639(4)
Cd2_2 Cd 1.0000 0.87834(2) 0.64474(5)
Cd3_2 Cd 1.0000 0.779690(19) 0.69217(4)
N30 N 0.8045(2) 0.91075(17) 0.3966(4)
N31 N 0.92571(19) 0.94297(15) 0.5224(4)
N32 N 0.95495(19) 0.93582(16) 0.5630(4)
N33 N 0.95198(19) 0.90549(17) 0.5825(4)
N34 N 0.9217(2) 0.89110(17) 0.5517(4)
N35_2 N 1.0000 0.9736(2) 0.7484(5)
N36_2 N 1.0000 0.9217(2) 0.7867(6)
N37_2 N 1.0000 0.9534(2) 0.6986(5)
N38_2 N 1.0000 0.9225(3) 0.7242(6)
N39_2 N 1.0000 0.83166(17) 0.5679(4)
N40_2 N 1.0000 0.8043(2) 0.5857(5)
N41_2 N 1.0000 0.7846(2) 0.5361(5)
N42_2 N 1.0000 0.8346(2) 0.4993(5)
N43_2 N 1.0000 0.7590(2) 0.2935(5)
N58_2 N 1.0000 0.75329(18) 0.7906(5)
N64_2 N 1.0000 0.9977(3) 0.9918(6)
C79 C 0.7477(3) 0.9993(2) 0.9662(6)
C81 C 0.7466(2) 0.9710(2) 0.8630(5)
H55 H 0.7446 0.9517 0.8386
C83 C 0.9057(2) 0.8396(2) 0.7715(5)
C84 C 0.7480(2) 0.97051(18) 0.9336(4)
C85 C 0.8432(2) 0.8658(2) 0.8081(5)
H56 H 0.8467 0.8833 0.7793
C91 C 0.8704(2) 0.8413(2) 0.8111(5)
C93 C 0.8105(3) 0.8646(2) 0.8478(5)
H60 H 0.7927 0.8818 0.8453
C94 C 0.8630(3) 0.8155(3) 0.8552(5)
H61 H 0.8805 0.7981 0.8593
C114 C 0.8298(3) 0.8162(2) 0.8920(5)
H71 H 0.8255 0.7988 0.9208
C119 C 0.7462(2) 0.9383(2) 0.9637(6)
C126 C 0.5694(3) 0.9935(3) 0.7033(7)
H80 H 0.5618 0.9772 0.7327
N75 N 0.7442(2) 0.88728(18) 0.9827(4)
N78 N 0.7452(2) 0.90856(19) 0.9347(4)
N84 N 0.55048(18) 0.99669(16) 0.6479(4)
N105 N 0.92088(19) 0.86481(16) 0.7352(4)
N106 N 0.95242(17) 0.85169(15) 0.7082(3)
N107 N 0.95489(18) 0.81959(16) 0.7246(3)
N108 N 0.92659(19) 0.81213(17) 0.7650(4)
N109 N 0.8033(2) 0.83987(19) 0.8897(3)
Cd16 Cd 0.749079(14) 0.917768(14) 0.32448(3)
Cd18 Cd 0.748230(15) 0.832080(15) 0.96294(3)
N116 N 0.95580(19) 0.69135(17) 0.2247(4)
N136 N 0.9491(2) 0.7665(2) 0.1605(4)
N139 N 0.9497(2) 0.74536(18) 0.6591(4)
C4_3 C -0.0000 0.2796(3) 0.3027(6)
H4_3 H 0.0000 0.2929 0.2655
C5_3 C -0.0000 0.0448(3) 0.3061(7)
C7_2 C 0.0943(2) 0.0849(2) 0.0169(5)
C10_3 C 0.0000 0.0504(3) 0.4241(6)
H6_3 H 0.0000 0.0733 0.4207
H8_2 H 0.1497 0.1306 0.0054
C18_3 C 0.0000 0.0305(2) 0.3710(5)
C29_3 C 0.0000 0.2922(3) 0.4842(6)
C62_3 C 0.0000 0.2271(4) 0.3467(8)
H38_3 H 0.0000 0.2042 0.3428
C65_3 C 0.0000 0.2777(4) 0.4172(7)
C68_3 C -0.0000 0.2954(4) 0.3590(10)
H42_3 H -0.0000 0.3183 0.3598
C71_3 C 0.0000 0.0336(3) 0.4863(7)
H45_3 H 0.0000 0.0462 0.5246
C78_3 C 0.0000 0.2416(6) 0.4088(13)
H52_3 H -0.0000 0.2281 0.4459
Cd2_3 Cd 0.0000 0.12166(2) 0.14474(5)
Cd3_3 Cd -0.0000 0.220310(19) 0.19217(4)
N31_2 N 0.07429(19) 0.05703(15) 0.0224(4)
N32_2 N 0.04505(19) 0.06418(16) 0.0630(4)
N33_2 N 0.04802(19) 0.09451(17) 0.0825(4)
N34_2 N 0.0783(2) 0.10890(17) 0.0517(4)
N35_3 N 0.0000 0.0264(2) 0.2484(5)
N36_3 N -0.0000 0.0783(2) 0.2867(6)
N37_3 N 0.0000 0.0466(2) 0.1986(5)
N38_3 N -0.0000 0.0775(3) 0.2242(6)
N39_3 N 0.0000 0.16834(17) 0.0679(4)
N40_3 N -0.0000 0.1957(2) 0.0857(5)
N41_3 N 0.0000 0.2154(2) 0.0361(5)
N58_3 N 0.0000 0.24671(18) 0.2906(5)
N59_3 N -0.0000 0.2708(3) 0.5364(5)
N60_3 N 0.0000 0.3218(2) 0.5022(5)
N61_3 N 0.0000 0.2930(2) 0.5878(6)
N62_3 N -0.0000 0.32548(18) 0.5665(4)
C79_2 C 0.2523(3) 0.0007(2) 0.4662(6)
H53_2 H 0.2542 0.0008 0.5119
C81_2 C 0.2534(2) 0.0290(2) 0.3630(5)
H55_2 H 0.2554 0.0483 0.3386
C83_2 C 0.0943(2) 0.1604(2) 0.2715(5)
C84_2 C 0.2520(2) 0.02949(18) 0.4336(4)
C85_2 C 0.1568(2) 0.1342(2) 0.3081(5)
H56_2 H 0.1533 0.1167 0.2793
C91_2 C 0.1296(2) 0.1587(2) 0.3111(5)
C93_2 C 0.1895(3) 0.1354(2) 0.3478(5)
H60_2 H 0.2073 0.1182 0.3453
C94_2 C 0.1370(3) 0.1845(3) 0.3552(5)
H61_2 H 0.1195 0.2019 0.3593
C114_2 C 0.1702(3) 0.1838(2) 0.3920(5)
H71_2 H 0.1745 0.2012 0.4208
C119_2 C 0.2538(2) 0.0617(2) 0.4637(6)
C126_2 C 0.4306(3) 0.0065(3) 0.2033(7)
H80_2 H 0.4382 0.0228 0.2327
N77_2 N 0.2548(2) 0.06520(16) 0.5322(4)
N78_2 N 0.2548(2) 0.09144(19) 0.4347(4)
N105_2 N 0.07912(19) 0.13519(16) 0.2352(4)
N106_2 N 0.04758(17) 0.14831(15) 0.2082(3)
N107_2 N 0.04511(18) 0.18041(16) 0.2246(3)
N108_2 N 0.07341(19) 0.18787(17) 0.2650(4)
Cd31_3 Cd 0.0000 0.367540(18) 0.64183(5)
N139_2 N 0.0503(2) 0.25464(18) 0.1591(4)
C12_2 C 0.1544(3) 0.1128(2) 0.9776(5)
C14_2 C 0.1283(2) 0.0867(2) 0.9750(4)
C19_2 C 0.1368(3) 0.0626(2) 0.9304(5)
H10_2 H 0.1201 0.0446 0.9257
C23_2 C 0.1872(2) 0.1122(2) 0.9387(4)
H13_2 H 0.2048 0.1296 0.9430
C35_2 C 0.1698(3) 0.0645(2) 0.8925(5)
H19_2 H 0.1746 0.0477 0.8624
C39_3 C -0.0000 0.1968(2) 0.9865(5)
C63_3 C -0.0000 0.2070(3) 0.8024(7)
H39_3 H 0.0000 0.1938 0.7650
C66_3 C -0.0000 0.2093(3) 0.9204(7)
C67_3 C -0.0000 0.2611(5) 0.8461(9)
H41_3 H -0.0000 0.2840 0.8431
C69_3 C -0.0000 0.1922(3) 0.8599(8)
H43_3 H 0.0000 0.1692 0.8607
C77_3 C -0.0000 0.2431(5) 0.9089(12)
H51_3 H -0.0000 0.2563 0.9464
N42_3 N 0.0000 0.1654(2) 0.9993(5)
N43_3 N 0.0000 0.2410(2) 0.7935(5)
N116_2 N 0.04420(19) 0.30865(17) 0.7247(4)
C6_3 C -0.0000 0.9975(3) 0.3748(6)
H5_3 H -0.0000 0.9839 0.3378
C64_3 C 0.0000 0.9850(3) 0.4391(6)
H40_3 H 0.0000 0.9621 0.4439
C80_2 C 0.2534(3) 0.7516(3) 0.3187(7)
H54_2 H 0.2552 0.7516 0.2730
C87_2 C 0.2517(3) 0.7815(3) 0.3551(7)
C89_2 C 0.2501(3) 0.9715(3) 0.4348(7)
H58_2 H 0.2478 0.9522 0.4592
C95_2 C 0.1587(2) 0.94261(18) 0.1817(4)
C97_2 C 0.0914(3) 0.9612(2) 0.2057(5)
H63_2 H 0.0939 0.9534 0.2485
C100_2 C 0.3823(2) 0.7884(2) 0.1211(5)
C101_2 C 0.3721(2) 0.9072(2) 0.4752(4)
C102_2 C 0.1225(2) 0.9579(2) 0.1602(4)
C103_2 C 0.2524(3) 0.7227(2) 0.3542(5)
H65_2 H 0.2523 0.7031 0.3303
C104_2 C 0.3470(3) 0.8064(2) 0.1014(5)
C106_2 C 0.2508(3) 0.7478(3) 0.4509(6)
H67_2 H 0.2505 0.7472 0.4966
C108_2 C 0.4063(2) 0.9071(2) 0.5161(4)
C109_2 C 0.1153(3) 0.9683(2) 0.0988(4)
H69_2 H 0.1339 0.9648 0.0663
C110_2 C 0.3474(2) 0.9476(2) 0.1915(5)
C111_2 C 0.1583(2) 0.8118(2) 0.1043(5)
C112_2 C 0.1213(3) 0.7956(3) 0.1231(5)
C113_2 C 0.3127(3) 0.8846(2) 0.4360(4)
H70_2 H 0.2942 0.8679 0.4387
C115_2 C 0.2522(2) 0.8126(2) 0.3192(6)
C116_2 C 0.3642(3) 0.9338(2) 0.4349(5)
H72_2 H 0.3815 0.9515 0.4334
C117_2 C 0.1181(3) 0.7836(3) 0.1899(6)
H73_2 H 0.1383 0.7850 0.2202
C118_2 C 0.25169(19) 0.9982(2) 0.3330(6)
H74_2 H 0.2509 0.9967 0.2873
C120_2 C 0.3829(3) 0.9670(2) 0.1774(5)
C121_2 C 0.4457(3) 0.7679(3) 0.1012(6)
H75_2 H 0.4664 0.7659 0.0720
C122_2 C 0.3856(3) 0.7774(3) 0.1869(6)
H76_2 H 0.3660 0.7805 0.2179
C123_2 C 0.3994(3) 0.9649(3) 0.1160(7)
H77_2 H 0.3889 0.9514 0.0835
C124_2 C 0.0907(3) 0.7927(3) 0.0808(6)
H78_2 H 0.0931 0.8001 0.0376
C127_2 C 0.4116(4) 0.7854(4) 0.0787(7)
H81_2 H 0.4102 0.7942 0.0365
C128_2 C 0.3310(3) 0.9344(2) 0.3971(5)
H82_2 H 0.3264 0.9526 0.3703
C129_2 C 0.0805(3) 0.7693(3) 0.2055(5)
H83_2 H 0.0762 0.7618 0.2481
C130_2 C 0.4210(3) 0.7612(2) 0.2015(6)
H84_2 H 0.4247 0.7545 0.2448
C131_2 C 0.0812(2) 0.9840(2) 0.0823(4)
H85_2 H 0.0780 0.9918 0.0396
C132_2 C 0.0582(3) 0.9760(2) 0.1856(5)
H86_2 H 0.0378 0.9777 0.2154
C133_2 C 0.2505(2) 0.7783(2) 0.4213(5)
H87_2 H 0.2495 0.7971 0.4475
C134_2 C 0.0565(3) 0.7789(3) 0.1017(6)
H88_2 H 0.0357 0.7784 0.0723
C135_2 C 0.3998(3) 0.9864(3) 0.2195(6)
H89_2 H 0.3907 0.9866 0.2626
C136_2 C 0.3459(3) 0.8812(2) 0.4728(5)
H90_2 H 0.3507 0.8618 0.4958
C138_2 C 0.4329(4) 0.9840(3) 0.1045(7)
H92_2 H 0.4441 0.9829 0.0629
N71_2 N 0.1748(2) 0.80673(19) 0.0460(4)
N72_2 N 0.2067(2) 0.82513(17) 0.0496(4)
N73_2 N 0.2091(2) 0.84031(18) 0.1051(4)
N74_2 N 0.1784(2) 0.83122(16) 0.1430(4)
N79_2 N 0.25105(19) 0.96980(15) 0.3703(5)
N80 N 0.4541(2) 0.92543(17) 0.5710(4)
N81 N 0.45248(19) 0.89393(17) 0.5806(4)
N82_2 N 0.42150(19) 0.88159(17) 0.5463(4)
N83_2 N 0.4254(2) 0.93522(18) 0.5307(4)
N85_2 N 0.3258(2) 0.95174(16) 0.2461(4)
N86_2 N 0.29824(19) 0.92925(16) 0.2413(3)
N87_2 N 0.30153(18) 0.91331(15) 0.1844(3)
N88_2 N 0.3321(2) 0.92474(16) 0.1532(4)
N89_2 N 0.3050(2) 0.90962(17) 0.3973(4)
N90_2 N 0.2060(2) 0.92693(16) 0.2384(3)
N91_2 N 0.1745(2) 0.94626(18) 0.2401(4)
N92_2 N 0.20906(19) 0.91368(14) 0.1785(3)
N93_2 N 0.17985(18) 0.92303(15) 0.1426(4)
N94_2 N 0.05317(18) 0.98842(16) 0.1248(4)
N100_2 N 0.25136(14) 0.86325(14) 0.3002(4)
N101_2 N 0.25350(17) 0.84790(16) 0.2447(4)
N102_2 N 0.2546(2) 0.81602(19) 0.2559(5)
N103_2 N 0.25028(15) 0.84063(17) 0.3494(4)
N104_2 N 0.2513(2) 0.7200(2) 0.4205(5)
N110_2 N 0.3291(2) 0.80268(18) 0.0447(4)
N111_2 N 0.2987(2) 0.82312(16) 0.0476(4)
N112_2 N 0.3000(2) 0.83918(17) 0.1018(4)
N113_2 N 0.3300(2) 0.82882(16) 0.1391(4)
N115_2 N 0.4497(2) 0.75464(18) 0.1591(4)
Cd14 Cd 0.5000 0.720310(19) 0.19217(4)
Cd21_2 Cd 0.248230(15) 0.667920(15) 0.46294(3)
Cd29 Cd 0.5000 0.867540(18) 0.64183(5)
C90_2 C 0.4066(3) 0.8308(2) 0.7706(5)
C98_2 C 0.3300(3) 0.8100(2) 0.8910(5)
H64_2 H 0.3242 0.7924 0.9186
C99_2 C 0.3719(3) 0.8336(2) 0.8102(5)
C105_2 C 0.3456(3) 0.8592(2) 0.8059(5)
H66_2 H 0.3497 0.8764 0.7764
C125_2 C 0.3134(3) 0.8591(2) 0.8457(6)
H79_2 H 0.2962 0.8768 0.8426
C137_2 C 0.3635(3) 0.8084(3) 0.8554(5)
H91_2 H 0.3806 0.7908 0.8609
N66_2 N 0.3050(2) 0.83516(17) 0.8890(4)
N67_2 N 0.4283(2) 0.80179(19) 0.7671(4)
N68_2 N 0.45580(19) 0.80865(17) 0.7247(4)
N69 N 0.45349(19) 0.83992(18) 0.7061(4)
N70_2 N 0.4222(2) 0.85416(17) 0.7325(4)
Cd24 Cd 0.5000 0.767980(19) 0.69231(4)
N131_2 N 0.2487(2) 0.7800(2) 0.9205(5)
C1_2 C 0.7477(3) 0.0007(2) 0.4662(6)
H1_2 H 0.7458 0.0008 0.5119
C3_2 C 0.7466(2) 0.0290(2) 0.3630(5)
H3_2 H 0.7446 0.0483 0.3386
C4_4 C 1.0000 0.2796(3) 0.3027(6)
H4_4 H 1.0000 0.2929 0.2655
C5_4 C 1.0000 0.0448(3) 0.3061(7)
C8_2 C 0.9057(2) 0.1604(2) 0.2715(5)
C9_2 C 0.7480(2) 0.02949(18) 0.4336(4)
C10_4 C 1.0000 0.0504(3) 0.4241(6)
H6_4 H 1.0000 0.0733 0.4207
C11_2 C 0.8432(2) 0.1342(2) 0.3081(5)
H7_2 H 0.8467 0.1167 0.2793
C17_2 C 0.8704(2) 0.1587(2) 0.3111(5)
C18_4 C 1.0000 0.0305(2) 0.3710(5)
C20_2 C 0.8105(3) 0.1354(2) 0.3478(5)
H11_2 H 0.7927 0.1182 0.3453
C21_2 C 0.8630(3) 0.1845(3) 0.3552(5)
H12_2 H 0.8805 0.2019 0.3593
C29_4 C 1.0000 0.2922(3) 0.4842(6)
C43_2 C 0.8298(3) 0.1838(2) 0.3920(5)
H22_2 H 0.8255 0.2012 0.4208
C48_2 C 0.7462(2) 0.0617(2) 0.4637(6)
C55_2 C 0.5694(3) 0.0065(3) 0.2033(7)
H31_2 H 0.5618 0.0228 0.2327
C62_4 C 1.0000 0.2271(4) 0.3467(8)
H38_4 H 1.0000 0.2042 0.3428
C65_4 C 1.0000 0.2777(4) 0.4172(7)
C68_4 C 1.0000 0.2954(4) 0.3590(10)
H42_4 H 1.0000 0.3183 0.3598
C71_4 C 1.0000 0.0336(3) 0.4863(7)
H45_4 H 1.0000 0.0462 0.5246
C78_4 C 1.0000 0.2416(6) 0.4088(13)
H52_4 H 1.0000 0.2281 0.4459
Cd2_4 Cd 1.0000 0.12166(2) 0.14474(5)
Cd3_4 Cd 1.0000 0.220310(19) 0.19217(4)
N12_2 N 0.7452(2) 0.06520(16) 0.5322(4)
N13_2 N 0.7452(2) 0.09144(19) 0.4347(4)
N35_4 N 1.0000 0.0264(2) 0.2484(5)
N36_4 N 1.0000 0.0783(2) 0.2867(6)
N37_4 N 1.0000 0.0466(2) 0.1986(5)
N38_4 N 1.0000 0.0775(3) 0.2242(6)
N39_4 N 1.0000 0.16834(17) 0.0679(4)
N40_4 N 1.0000 0.1957(2) 0.0857(5)
N41_4 N 1.0000 0.2154(2) 0.0361(5)
N49_2 N 0.92088(19) 0.13519(16) 0.2352(4)
N50_2 N 0.95242(17) 0.14831(15) 0.2082(3)
N51_2 N 0.95489(18) 0.18041(16) 0.2246(3)
N52_2 N 0.92659(19) 0.18787(17) 0.2650(4)
N58_4 N 1.0000 0.24671(18) 0.2906(5)
N59_4 N 1.0000 0.2708(3) 0.5364(5)
N60_4 N 1.0000 0.3218(2) 0.5022(5)
N61_4 N 1.0000 0.2930(2) 0.5878(6)
N62_4 N 1.0000 0.32548(18) 0.5665(4)
C82_2 C 0.9057(2) 0.0849(2) 0.0169(5)
H57_2 H 0.8503 0.1306 0.0054
N96_2 N 0.92571(19) 0.05703(15) 0.0224(4)
N97_2 N 0.95495(19) 0.06418(16) 0.0630(4)
N98_2 N 0.95198(19) 0.09451(17) 0.0825(4)
N99_2 N 0.9217(2) 0.10890(17) 0.0517(4)
Cd31_4 Cd 1.0000 0.367540(18) 0.64183(5)
N140_2 N 0.9497(2) 0.25464(18) 0.1591(4)
C39_4 C 1.0000 0.1968(2) 0.9865(5)
C63_4 C 1.0000 0.2070(3) 0.8024(7)
H39_4 H 1.0000 0.1938 0.7650
C66_4 C 1.0000 0.2093(3) 0.9204(7)
C67_4 C 1.0000 0.2611(5) 0.8461(9)
H41_4 H 1.0000 0.2840 0.8431
C69_4 C 1.0000 0.1922(3) 0.8599(8)
H43_4 H 1.0000 0.1692 0.8607
C77_4 C 1.0000 0.2431(5) 0.9089(12)
H51_4 H 1.0000 0.2563 0.9464
N42_4 N 1.0000 0.1654(2) 0.9993(5)
N43_4 N 1.0000 0.2410(2) 0.7935(5)
C86_2 C 0.8456(3) 0.1128(2) 0.9776(5)
C88_2 C 0.8717(2) 0.0867(2) 0.9750(4)
C92_2 C 0.8632(3) 0.0626(2) 0.9304(5)
H59_2 H 0.8799 0.0446 0.9257
C96_2 C 0.8128(2) 0.1122(2) 0.9387(4)
H62_2 H 0.7952 0.1296 0.9430
C107_2 C 0.8302(3) 0.0645(2) 0.8925(5)
H68_2 H 0.8254 0.0477 0.8624
N117_2 N 0.95580(19) 0.30865(17) 0.7247(4)
C2_2 C 0.7466(3) 0.7516(3) 0.3187(7)
H2_2 H 0.7448 0.7516 0.2730
C6_4 C 1.0000 0.9975(3) 0.3748(6)
H5_4 H 1.0000 0.9839 0.3378
C13_2 C 0.7483(3) 0.7815(3) 0.3551(7)
C15_2 C 0.7499(3) 0.9715(3) 0.4348(7)
H9_2 H 0.7522 0.9522 0.4592
C22_2 C 0.8413(2) 0.94261(18) 0.1817(4)
C24_2 C 0.9086(3) 0.9612(2) 0.2057(5)
H14_2 H 0.9061 0.9534 0.2485
C27_2 C 0.6177(2) 0.7884(2) 0.1211(5)
C28_2 C 0.6279(2) 0.9072(2) 0.4752(4)
C30_2 C 0.8775(2) 0.9579(2) 0.1602(4)
C31_2 C 0.7476(3) 0.7227(2) 0.3542(5)
H16_2 H 0.7477 0.7031 0.3303
C32_2 C 0.6530(3) 0.8064(2) 0.1014(5)
C34_2 C 0.7492(3) 0.7478(3) 0.4509(6)
H18_2 H 0.7495 0.7472 0.4966
C36_2 C 0.5937(2) 0.9071(2) 0.5161(4)
C37_2 C 0.8847(3) 0.9683(2) 0.0988(4)
H20_2 H 0.8661 0.9648 0.0663
C38_2 C 0.6526(2) 0.9476(2) 0.1915(5)
C40_2 C 0.8417(2) 0.8118(2) 0.1043(5)
C41_2 C 0.8787(3) 0.7956(3) 0.1231(5)
C42_2 C 0.6873(3) 0.8846(2) 0.4360(4)
H21_2 H 0.7058 0.8679 0.4387
C44_2 C 0.7478(2) 0.8126(2) 0.3192(6)
C45_2 C 0.6358(3) 0.9338(2) 0.4349(5)
H23_2 H 0.6185 0.9515 0.4334
C46_2 C 0.8819(3) 0.7836(3) 0.1899(6)
H24_2 H 0.8617 0.7850 0.2202
C47_2 C 0.74831(19) 0.9982(2) 0.3330(6)
H25_2 H 0.7491 0.9967 0.2873
C49_2 C 0.6171(3) 0.9670(2) 0.1774(5)
C50_2 C 0.5543(3) 0.7679(3) 0.1012(6)
H26_2 H 0.5336 0.7659 0.0720
C51_2 C 0.6144(3) 0.7774(3) 0.1869(6)
H27_2 H 0.6340 0.7805 0.2179
C52_2 C 0.6006(3) 0.9649(3) 0.1160(7)
H28_2 H 0.6111 0.9514 0.0835
C53_2 C 0.9093(3) 0.7927(3) 0.0808(6)
H29_2 H 0.9069 0.8001 0.0376
C56_2 C 0.5884(4) 0.7854(4) 0.0787(7)
H32_2 H 0.5898 0.7942 0.0365
C57_2 C 0.6690(3) 0.9344(2) 0.3971(5)
H33_2 H 0.6736 0.9526 0.3703
C58_2 C 0.9195(3) 0.7693(3) 0.2055(5)
H34_2 H 0.9238 0.7618 0.2481
C59_2 C 0.5790(3) 0.7612(2) 0.2015(6)
H35_2 H 0.5753 0.7545 0.2448
C60_2 C 0.9188(2) 0.9840(2) 0.0823(4)
H36_2 H 0.9220 0.9918 0.0396
C61_2 C 0.9418(3) 0.9760(2) 0.1856(5)
H37_2 H 0.9622 0.9777 0.2154
C64_4 C 1.0000 0.9850(3) 0.4391(6)
H40_4 H 1.0000 0.9621 0.4439
C70_2 C 0.7495(2) 0.7783(2) 0.4213(5)
H44_2 H 0.7505 0.7971 0.4475
C72_2 C 0.9435(3) 0.7789(3) 0.1017(6)
H46_2 H 0.9643 0.7784 0.0723
C73_2 C 0.6002(3) 0.9864(3) 0.2195(6)
H47_2 H 0.6093 0.9866 0.2626
C74_2 C 0.6541(3) 0.8812(2) 0.4728(5)
H48_2 H 0.6493 0.8618 0.4958
C76_2 C 0.5671(4) 0.9840(3) 0.1045(7)
H50_2 H 0.5559 0.9829 0.0629
N6_2 N 0.8252(2) 0.80673(19) 0.0460(4)
N7_2 N 0.7933(2) 0.82513(17) 0.0496(4)
N8_2 N 0.7909(2) 0.84031(18) 0.1051(4)
N9_2 N 0.8216(2) 0.83122(16) 0.1430(4)
N14_2 N 0.74895(19) 0.96980(15) 0.3703(5)
N15_2 N 0.5459(2) 0.92543(17) 0.5710(4)
N16_2 N 0.54752(19) 0.89393(17) 0.5806(4)
N17_2 N 0.57850(19) 0.88159(17) 0.5463(4)
N18_2 N 0.5746(2) 0.93522(18) 0.5307(4)
N20_2 N 0.6742(2) 0.95174(16) 0.2461(4)
N21_2 N 0.70176(19) 0.92925(16) 0.2413(3)
N22_2 N 0.69847(18) 0.91331(15) 0.1844(3)
N23_2 N 0.6679(2) 0.92474(16) 0.1532(4)
N24_2 N 0.6950(2) 0.90962(17) 0.3973(4)
N25_2 N 0.7940(2) 0.92693(16) 0.2384(3)
N26_2 N 0.8255(2) 0.94626(18) 0.2401(4)
N27_2 N 0.79094(19) 0.91368(14) 0.1785(3)
N28_2 N 0.82015(18) 0.92303(15) 0.1426(4)
N29_2 N 0.94683(18) 0.98842(16) 0.1248(4)
N44_2 N 0.74864(14) 0.86325(14) 0.3002(4)
N45_2 N 0.74650(17) 0.84790(16) 0.2447(4)
N46_2 N 0.7454(2) 0.81602(19) 0.2559(5)
N47_2 N 0.74972(15) 0.84063(17) 0.3494(4)
N48_2 N 0.7487(2) 0.7200(2) 0.4205(5)
N54_2 N 0.6709(2) 0.80268(18) 0.0447(4)
N55_2 N 0.7013(2) 0.82312(16) 0.0476(4)
N56_2 N 0.7000(2) 0.83918(17) 0.1018(4)
N57_2 N 0.6700(2) 0.82882(16) 0.1391(4)
N65_2 N 0.5503(2) 0.75464(18) 0.1591(4)
Cd20_2 Cd 0.751770(15) 0.667920(15) 0.46294(3)
N118_2 N 0.54651(19) 0.83992(18) 0.7061(4)
N135_2 N 0.5000 0.82548(18) 0.5665(4)
C16_2 C 0.5934(3) 0.8308(2) 0.7706(5)
C25_2 C 0.6700(3) 0.8100(2) 0.8910(5)
H15_2 H 0.6758 0.7924 0.9186
C26_2 C 0.6281(3) 0.8336(2) 0.8102(5)
C33_2 C 0.6544(3) 0.8592(2) 0.8059(5)
H17_2 H 0.6503 0.8764 0.7764
C54_2 C 0.6866(3) 0.8591(2) 0.8457(6)
H30_2 H 0.7038 0.8768 0.8426
C75_2 C 0.6365(3) 0.8084(3) 0.8554(5)
H49_2 H 0.6194 0.7908 0.8609
N1_2 N 0.6950(2) 0.83516(17) 0.8890(4)
N2_2 N 0.5717(2) 0.80179(19) 0.7671(4)
N3_2 N 0.54420(19) 0.80865(17) 0.7247(4)
N5_2 N 0.5778(2) 0.85416(17) 0.7325(4)
N130_2 N 0.7513(2) 0.7800(2) 0.9205(5)
Cd9_2 Cd -0.0000 0.53812(2) 0.11562(5)
N119_2 N 0.04651(19) 0.66008(18) 0.2061(4)
N124_2 N 0.0459(2) 0.57457(17) 0.0710(4)
N125_2 N 0.04752(19) 0.60607(17) 0.0806(4)
N126_2 N 0.05048(18) 0.50331(16) 0.1479(4)
Cd34_2 Cd 0.0000 0.46188(2) 0.61562(5)
H1_3 H 0.7542 0.4992 0.0119
C36_3 C 0.9063(2) 0.5929(2) 0.0161(4)
H45_5 H 0.5000 0.4538 0.0246
Cd9_3 Cd 1.0000 0.53812(2) 0.11562(5)
N11_2 N 0.75651(19) 0.40376(18) 0.0397(4)
N12_3 N 0.7548(2) 0.43480(16) 0.0322(4)
N15_3 N 0.9541(2) 0.57457(17) 0.0710(4)
N16_3 N 0.95248(19) 0.60607(17) 0.0806(4)
N17_3 N 0.92150(19) 0.61841(17) 0.0463(4)
N18_3 N 0.9254(2) 0.56478(18) 0.0307(4)
N59_5 N 0.5000 0.2292(3) 0.0364(5)
N60_5 N 0.5000 0.1782(2) 0.0022(5)
N61_5 N 0.5000 0.2070(2) 0.0878(6)
H53_3 H 0.2458 0.4992 0.0119
C108_3 C 0.0937(2) 0.5929(2) 0.0161(4)
N76_2 N 0.24349(19) 0.40376(18) 0.0397(4)
N77_3 N 0.2452(2) 0.43480(16) 0.0322(4)
N82_3 N 0.07850(19) 0.61841(17) 0.0463(4)
N83_3 N 0.0746(2) 0.56478(18) 0.0307(4)
Cd13_3 Cd 0.5000 0.523300(19) 0.09639(4)
Cd26_2 Cd 0.243810(12) 0.376520(15) 0.14364(4)
Cd27_2 Cd 0.756190(12) 0.376520(15) 0.14364(4)
N118_3 N 0.95349(19) 0.66008(18) 0.2061(4)
N127_2 N 0.94952(18) 0.50331(16) 0.1479(4)
C1_3 C 0.7523(3) 0.4993(2) 0.9662(6)
C2_3 C 0.7534(3) 0.7484(3) 0.8187(7)
H2_3 H 0.7552 0.7484 0.7730
C3_3 C 0.7534(2) 0.4710(2) 0.8630(5)
H3_3 H 0.7554 0.4517 0.8386
C4_5 C 0.5000 0.2204(3) 0.8027(6)
H4_5 H 0.5000 0.2071 0.7655
C5_5 C 0.5000 0.4552(3) 0.8061(7)
C6_5 C 0.5000 0.5025(3) 0.8748(6)
H5_5 H 0.5000 0.5161 0.8378
C7_3 C 0.4057(2) 0.4151(2) 0.5169(5)
C8_3 C 0.5943(2) 0.3396(2) 0.7715(5)
C9_3 C 0.7520(2) 0.47051(18) 0.9336(4)
C10_5 C 0.5000 0.4496(3) 0.9241(6)
H6_5 H 0.5000 0.4267 0.9207
C11_3 C 0.6568(2) 0.3658(2) 0.8081(5)
H7_3 H 0.6533 0.3833 0.7793
C12_3 C 0.3456(3) 0.3872(2) 0.4776(5)
H8_3 H 0.3503 0.3694 0.5054
C13_3 C 0.7517(3) 0.7185(3) 0.8551(7)
C14_3 C 0.3717(2) 0.4133(2) 0.4750(4)
C15_3 C 0.7501(3) 0.5285(3) 0.9348(7)
H9_3 H 0.7478 0.5478 0.9592
C16_3 C 0.9066(3) 0.6692(2) 0.2706(5)
C17_3 C 0.6296(2) 0.3413(2) 0.8111(5)
C18_5 C 0.5000 0.4695(2) 0.8710(5)
C19_3 C 0.3632(3) 0.4374(2) 0.4304(5)
H10_3 H 0.3799 0.4554 0.4257
C20_3 C 0.6895(3) 0.3646(2) 0.8478(5)
H11_3 H 0.7073 0.3818 0.8453
C21_3 C 0.6370(3) 0.3155(3) 0.8552(5)
H12_3 H 0.6195 0.2981 0.8593
C22_3 C 0.6587(2) 0.55739(18) 0.6817(4)
C23_3 C 0.3128(2) 0.3878(2) 0.4387(4)
H13_3 H 0.2952 0.3704 0.4430
C24_3 C 0.5914(3) 0.5388(2) 0.7057(5)
H14_3 H 0.5939 0.5466 0.7485
C25_3 C 0.8300(3) 0.6900(2) 0.3910(5)
H15_3 H 0.8242 0.7076 0.4186
C26_3 C 0.8719(3) 0.6664(2) 0.3102(5)
C27_3 C 0.8823(2) 0.7116(2) 0.6211(5)
C28_3 C 0.8721(2) 0.5928(2) 0.9752(4)
C29_5 C 0.5000 0.2078(3) 0.9842(6)
C30_3 C 0.6225(2) 0.5421(2) 0.6602(4)
C31_3 C 0.7524(3) 0.7773(2) 0.8542(5)
H16_3 H 0.7523 0.7969 0.8303
C32_3 C 0.8470(3) 0.6936(2) 0.6014(5)
C33_3 C 0.8456(3) 0.6408(2) 0.3059(5)
H17_3 H 0.8497 0.6236 0.2764
C34_3 C 0.7508(3) 0.7522(3) 0.9509(6)
H18_3 H 0.7505 0.7528 0.9966
C35_3 C 0.3302(3) 0.4355(2) 0.3925(5)
H19_3 H 0.3254 0.4523 0.3624
C37_3 C 0.6153(3) 0.5317(2) 0.5988(4)
H20_3 H 0.6339 0.5352 0.5663
C38_3 C 0.8474(2) 0.5524(2) 0.6915(5)
C39_5 C 0.5000 0.3032(2) 0.4865(5)
C40_3 C 0.6583(2) 0.6882(2) 0.6043(5)
C41_3 C 0.6213(3) 0.7044(3) 0.6231(5)
C42_3 C 0.8127(3) 0.6154(2) 0.9360(4)
H21_3 H 0.7942 0.6321 0.9387
C43_3 C 0.6702(3) 0.3162(2) 0.8920(5)
H22_3 H 0.6745 0.2988 0.9208
C44_3 C 0.7522(2) 0.6874(2) 0.8192(6)
C45_3 C 0.8642(3) 0.5662(2) 0.9349(5)
H23_3 H 0.8815 0.5485 0.9334
C46_3 C 0.6181(3) 0.7164(3) 0.6899(6)
H24_3 H 0.6383 0.7150 0.7202
C47_3 C 0.75169(19) 0.5018(2) 0.8330(6)
H25_3 H 0.7509 0.5033 0.7873
C48_3 C 0.7538(2) 0.4383(2) 0.9637(6)
C49_3 C 0.8829(3) 0.5330(2) 0.6774(5)
C50_3 C 0.9457(3) 0.7321(3) 0.6012(6)
H26_3 H 0.9664 0.7341 0.5720
C51_3 C 0.8856(3) 0.7226(3) 0.6869(6)
H27_3 H 0.8660 0.7195 0.7179
C52_3 C 0.8994(3) 0.5351(3) 0.6160(7)
H28_3 H 0.8889 0.5486 0.5835
C53_3 C 0.5907(3) 0.7073(3) 0.5808(6)
H29_3 H 0.5931 0.6999 0.5376
C54_3 C 0.8134(3) 0.6409(2) 0.3457(6)
H30_3 H 0.7962 0.6232 0.3426
C55_3 C 0.9306(3) 0.4935(3) 0.7033(7)
H31_3 H 0.9382 0.4772 0.7327
C56_3 C 0.9116(4) 0.7146(4) 0.5787(7)
H32_3 H 0.9102 0.7058 0.5365
C57_3 C 0.8310(3) 0.5656(2) 0.8971(5)
H33_3 H 0.8264 0.5474 0.8703
C58_3 C 0.5805(3) 0.7307(3) 0.7055(5)
H34_3 H 0.5762 0.7382 0.7481
C59_3 C 0.9210(3) 0.7388(2) 0.7015(6)
H35_3 H 0.9247 0.7455 0.7448
C60_3 C 0.5812(2) 0.5160(2) 0.5823(4)
H36_3 H 0.5780 0.5082 0.5396
C61_3 C 0.5582(3) 0.5240(2) 0.6856(5)
H37_3 H 0.5378 0.5223 0.7154
C62_5 C 0.5000 0.2729(4) 0.8467(8)
H38_5 H 0.5000 0.2958 0.8428
C63_5 C 0.5000 0.2930(3) 0.3024(7)
H39_5 H 0.5000 0.3062 0.2650
C64_5 C 0.5000 0.5150(3) 0.9391(6)
H40_5 H 0.5000 0.5379 0.9439
C65_5 C 0.5000 0.2223(4) 0.9172(7)
C66_5 C 0.5000 0.2907(3) 0.4204(7)
C67_5 C 0.5000 0.2389(5) 0.3461(9)
H41_5 H 0.5000 0.2160 0.3431
C68_5 C 0.5000 0.2046(4) 0.8590(10)
H42_5 H 0.5000 0.1817 0.8598
C69_5 C 0.5000 0.3078(3) 0.3599(8)
H43_5 H 0.5000 0.3308 0.3607
C70_3 C 0.7505(2) 0.7217(2) 0.9213(5)
H44_3 H 0.7495 0.7029 0.9475
C71_5 C 0.5000 0.4664(3) 0.9863(7)
C72_3 C 0.5565(3) 0.7211(3) 0.6017(6)
H46_3 H 0.5357 0.7216 0.5723
C73_3 C 0.8998(3) 0.5136(3) 0.7195(6)
H47_3 H 0.8907 0.5134 0.7626
C74_3 C 0.8459(3) 0.6188(2) 0.9728(5)
H48_3 H 0.8507 0.6382 0.9958
C75_3 C 0.8635(3) 0.6916(3) 0.3554(5)
H49_3 H 0.8806 0.7092 0.3609
C76_3 C 0.9329(4) 0.5160(3) 0.6045(7)
H50_3 H 0.9441 0.5171 0.5629
C77_5 C 0.5000 0.2569(5) 0.4089(12)
H51_5 H 0.5000 0.2437 0.4464
C78_5 C 0.5000 0.2584(6) 0.9088(13)
H52_5 H 0.5000 0.2719 0.9459
Cd1_3 Cd 0.5000 0.476700(19) 0.59639(4)
Cd2_5 Cd 0.5000 0.37834(2) 0.64474(5)
Cd4_2 Cd 0.750921(14) 0.582232(14) 0.82448(3)
Cd7_2 Cd 0.756190(12) 0.623480(15) 0.64364(4)
N1_3 N 0.8050(2) 0.66484(17) 0.3890(4)
N2_3 N 0.9283(2) 0.69821(19) 0.2671(4)
N5_3 N 0.9222(2) 0.64584(17) 0.2325(4)
N6_3 N 0.6748(2) 0.69327(19) 0.5460(4)
N7_3 N 0.7067(2) 0.67487(17) 0.5496(4)
N8_3 N 0.7091(2) 0.65969(18) 0.6051(4)
N9_3 N 0.6784(2) 0.66878(16) 0.6430(4)
N10_2 N 0.7558(2) 0.38728(18) 0.9827(4)
N13_3 N 0.7548(2) 0.40856(19) 0.9347(4)
N14_3 N 0.75105(19) 0.53020(15) 0.8703(5)
N19_2 N 0.94952(18) 0.49669(16) 0.6479(4)
N20_3 N 0.8258(2) 0.54826(16) 0.7461(4)
N21_3 N 0.79824(19) 0.57075(16) 0.7413(3)
N22_3 N 0.80153(18) 0.58669(15) 0.6844(3)
N23_3 N 0.8321(2) 0.57526(16) 0.6532(4)
N24_3 N 0.8050(2) 0.59038(17) 0.8973(4)
N25_3 N 0.7060(2) 0.57307(16) 0.7384(3)
N26_3 N 0.6745(2) 0.55374(18) 0.7401(4)
N27_3 N 0.70906(19) 0.58632(14) 0.6785(3)
N28_3 N 0.67985(18) 0.57697(15) 0.6426(4)
N29_3 N 0.55317(18) 0.51158(16) 0.6248(4)
N30_2 N 0.3045(2) 0.41075(17) 0.3966(4)
N31_3 N 0.42571(19) 0.44297(15) 0.5224(4)
N32_3 N 0.45495(19) 0.43582(16) 0.5630(4)
N33_3 N 0.45198(19) 0.40549(17) 0.5825(4)
N34_3 N 0.4217(2) 0.39110(17) 0.5517(4)
N35_5 N 0.5000 0.4736(2) 0.7484(5)
N36_5 N 0.5000 0.4217(2) 0.7867(6)
N37_5 N 0.5000 0.4534(2) 0.6986(5)
N38_5 N 0.5000 0.4225(3) 0.7242(6)
N39_5 N 0.5000 0.33166(17) 0.5679(4)
N40_5 N 0.5000 0.3043(2) 0.5857(5)
N41_5 N 0.5000 0.2846(2) 0.5361(5)
N42_5 N 0.5000 0.3346(2) 0.4993(5)
N43_5 N 0.5000 0.2590(2) 0.2935(5)
N44_3 N 0.75136(14) 0.63675(14) 0.8002(4)
N45_3 N 0.75350(17) 0.65210(16) 0.7447(4)
N46_3 N 0.7546(2) 0.68398(19) 0.7559(5)
N47_3 N 0.75028(15) 0.65937(17) 0.8494(4)
N49_3 N 0.57912(19) 0.36481(16) 0.7352(4)
N50_3 N 0.54758(17) 0.35169(15) 0.7082(3)
N51_3 N 0.54511(18) 0.31959(16) 0.7246(3)
N52_3 N 0.57341(19) 0.31213(17) 0.7650(4)
N53_2 N 0.6967(2) 0.33987(19) 0.8897(3)
N54_3 N 0.8291(2) 0.69732(18) 0.5447(4)
N55_3 N 0.7987(2) 0.67688(16) 0.5476(4)
N56_3 N 0.8000(2) 0.66082(17) 0.6018(4)
N57_3 N 0.8300(2) 0.67118(16) 0.6391(4)
N58_5 N 0.5000 0.25329(18) 0.7906(5)
N63_2 N 0.5509(2) 0.7335(2) 0.6605(4)
N64_3 N 0.5000 0.4977(3) 0.9918(6)
C79_3 C 0.2477(3) 0.4993(2) 0.9662(6)
C80_3 C 0.2466(3) 0.7484(3) 0.8187(7)
H54_3 H 0.2448 0.7484 0.7730
C81_3 C 0.2466(2) 0.4710(2) 0.8630(5)
H55_3 H 0.2446 0.4517 0.8386
C82_3 C 0.5943(2) 0.4151(2) 0.5169(5)
C83_3 C 0.4057(2) 0.3396(2) 0.7715(5)
C84_3 C 0.2480(2) 0.47051(18) 0.9336(4)
C85_3 C 0.3432(2) 0.3658(2) 0.8081(5)
H56_3 H 0.3467 0.3833 0.7793
C86_3 C 0.6544(3) 0.3872(2) 0.4776(5)
H57_3 H 0.6497 0.3694 0.5054
C87_3 C 0.2483(3) 0.7185(3) 0.8551(7)
C88_3 C 0.6283(2) 0.4133(2) 0.4750(4)
C89_3 C 0.2499(3) 0.5285(3) 0.9348(7)
H58_3 H 0.2522 0.5478 0.9592
C90_3 C 0.0934(3) 0.6692(2) 0.2706(5)
C91_3 C 0.3704(2) 0.3413(2) 0.8111(5)
C92_3 C 0.6368(3) 0.4374(2) 0.4304(5)
H59_3 H 0.6201 0.4554 0.4257
C93_3 C 0.3105(3) 0.3646(2) 0.8478(5)
H60_3 H 0.2927 0.3818 0.8453
C94_3 C 0.3630(3) 0.3155(3) 0.8552(5)
H61_3 H 0.3805 0.2981 0.8593
C95_3 C 0.3413(2) 0.55739(18) 0.6817(4)
C96_3 C 0.6872(2) 0.3878(2) 0.4387(4)
H62_3 H 0.7048 0.3704 0.4430
C97_3 C 0.4086(3) 0.5388(2) 0.7057(5)
H63_3 H 0.4061 0.5466 0.7485
C98_3 C 0.1700(3) 0.6900(2) 0.3910(5)
H64_3 H 0.1758 0.7076 0.4186
C99_3 C 0.1281(3) 0.6664(2) 0.3102(5)
C100_3 C 0.1177(2) 0.7116(2) 0.6211(5)
C101_3 C 0.1279(2) 0.5928(2) 0.9752(4)
C102_3 C 0.3775(2) 0.5421(2) 0.6602(4)
C103_3 C 0.2476(3) 0.7773(2) 0.8542(5)
H65_3 H 0.2477 0.7969 0.8303
C104_3 C 0.1530(3) 0.6936(2) 0.6014(5)
C105_3 C 0.1544(3) 0.6408(2) 0.3059(5)
H66_3 H 0.1503 0.6236 0.2764
C106_3 C 0.2492(3) 0.7522(3) 0.9509(6)
H67_3 H 0.2495 0.7528 0.9966
C107_3 C 0.6698(3) 0.4355(2) 0.3925(5)
H68_3 H 0.6746 0.4523 0.3624
C109_3 C 0.3847(3) 0.5317(2) 0.5988(4)
H69_3 H 0.3661 0.5352 0.5663
C110_3 C 0.1526(2) 0.5524(2) 0.6915(5)
C111_3 C 0.3417(2) 0.6882(2) 0.6043(5)
C112_3 C 0.3787(3) 0.7044(3) 0.6231(5)
C113_3 C 0.1873(3) 0.6154(2) 0.9360(4)
H70_3 H 0.2058 0.6321 0.9387
C114_3 C 0.3298(3) 0.3162(2) 0.8920(5)
H71_3 H 0.3255 0.2988 0.9208
C115_3 C 0.2478(2) 0.6874(2) 0.8192(6)
C116_3 C 0.1358(3) 0.5662(2) 0.9349(5)
H72_3 H 0.1185 0.5485 0.9334
C117_3 C 0.3819(3) 0.7164(3) 0.6899(6)
H73_3 H 0.3617 0.7150 0.7202
C118_3 C 0.24831(19) 0.5018(2) 0.8330(6)
H74_3 H 0.2491 0.5033 0.7873
C119_3 C 0.2462(2) 0.4383(2) 0.9637(6)
C120_3 C 0.1171(3) 0.5330(2) 0.6774(5)
C121_3 C 0.0543(3) 0.7321(3) 0.6012(6)
H75_3 H 0.0336 0.7341 0.5720
C122_3 C 0.1144(3) 0.7226(3) 0.6869(6)
H76_3 H 0.1340 0.7195 0.7179
C123_3 C 0.1006(3) 0.5351(3) 0.6160(7)
H77_3 H 0.1111 0.5486 0.5835
C124_3 C 0.4093(3) 0.7073(3) 0.5808(6)
H78_3 H 0.4069 0.6999 0.5376
C125_3 C 0.1866(3) 0.6409(2) 0.3457(6)
H79_3 H 0.2038 0.6232 0.3426
C126_3 C 0.0694(3) 0.4935(3) 0.7033(7)
H80_3 H 0.0618 0.4772 0.7327
C127_3 C 0.0884(4) 0.7146(4) 0.5787(7)
H81_3 H 0.0898 0.7058 0.5365
C128_3 C 0.1690(3) 0.5656(2) 0.8971(5)
H82_3 H 0.1736 0.5474 0.8703
C129_3 C 0.4195(3) 0.7307(3) 0.7055(5)
H83_3 H 0.4238 0.7382 0.7481
C130_3 C 0.0790(3) 0.7388(2) 0.7015(6)
H84_3 H 0.0753 0.7455 0.7448
C131_3 C 0.4188(2) 0.5160(2) 0.5823(4)
H85_3 H 0.4220 0.5082 0.5396
C132_3 C 0.4418(3) 0.5240(2) 0.6856(5)
H86_3 H 0.4622 0.5223 0.7154
C133_3 C 0.2495(2) 0.7217(2) 0.9213(5)
H87_3 H 0.2505 0.7029 0.9475
C134_3 C 0.4435(3) 0.7211(3) 0.6017(6)
H88_3 H 0.4643 0.7216 0.5723
C135_3 C 0.1002(3) 0.5136(3) 0.7195(6)
H89_3 H 0.1093 0.5134 0.7626
C136_3 C 0.1541(3) 0.6188(2) 0.9728(5)
H90_3 H 0.1493 0.6382 0.9958
C137_3 C 0.1365(3) 0.6916(3) 0.3554(5)
H91_3 H 0.1194 0.7092 0.3609
C138_3 C 0.0671(4) 0.5160(3) 0.6045(7)
H92_3 H 0.0559 0.5171 0.5629
Cd10_2 Cd 0.249079(14) 0.582232(14) 0.82448(3)
Cd12_2 Cd 0.243810(12) 0.623480(15) 0.64364(4)
N66_3 N 0.1950(2) 0.66484(17) 0.3890(4)
N67_3 N 0.0717(2) 0.69821(19) 0.2671(4)
N70_3 N 0.0778(2) 0.64584(17) 0.2325(4)
N71_3 N 0.3252(2) 0.69327(19) 0.5460(4)
N72_3 N 0.2933(2) 0.67487(17) 0.5496(4)
N73_3 N 0.2909(2) 0.65969(18) 0.6051(4)
N74_3 N 0.3216(2) 0.66878(16) 0.6430(4)
N75_2 N 0.2442(2) 0.38728(18) 0.9827(4)
N78_3 N 0.2452(2) 0.40856(19) 0.9347(4)
N79_3 N 0.24895(19) 0.53020(15) 0.8703(5)
N84_2 N 0.05048(18) 0.49669(16) 0.6479(4)
N85_3 N 0.1742(2) 0.54826(16) 0.7461(4)
N86_3 N 0.20176(19) 0.57075(16) 0.7413(3)
N87_3 N 0.19847(18) 0.58669(15) 0.6844(3)
N88_3 N 0.1679(2) 0.57526(16) 0.6532(4)
N89_3 N 0.1950(2) 0.59038(17) 0.8973(4)
N90_3 N 0.2940(2) 0.57307(16) 0.7384(3)
N91_3 N 0.3255(2) 0.55374(18) 0.7401(4)
N92_3 N 0.29094(19) 0.58632(14) 0.6785(3)
N93_3 N 0.32015(18) 0.57697(15) 0.6426(4)
N94_3 N 0.44683(18) 0.51158(16) 0.6248(4)
N95_2 N 0.6955(2) 0.41075(17) 0.3966(4)
N96_3 N 0.57429(19) 0.44297(15) 0.5224(4)
N97_3 N 0.54505(19) 0.43582(16) 0.5630(4)
N98_3 N 0.54802(19) 0.40549(17) 0.5825(4)
N99_3 N 0.5783(2) 0.39110(17) 0.5517(4)
N100_3 N 0.24864(14) 0.63675(14) 0.8002(4)
N101_3 N 0.24650(17) 0.65210(16) 0.7447(4)
N102_3 N 0.2454(2) 0.68398(19) 0.7559(5)
N103_3 N 0.24972(15) 0.65937(17) 0.8494(4)
N105_3 N 0.42088(19) 0.36481(16) 0.7352(4)
N106_3 N 0.45242(17) 0.35169(15) 0.7082(3)
N107_3 N 0.45489(18) 0.31959(16) 0.7246(3)
N108_3 N 0.42659(19) 0.31213(17) 0.7650(4)
N109_2 N 0.3033(2) 0.33987(19) 0.8897(3)
N110_3 N 0.1709(2) 0.69732(18) 0.5447(4)
N111_3 N 0.2013(2) 0.67688(16) 0.5476(4)
N112_3 N 0.2000(2) 0.66082(17) 0.6018(4)
N113_3 N 0.1700(2) 0.67118(16) 0.6391(4)
N114_2 N 0.4491(2) 0.7335(2) 0.6605(4)
Cd16_2 Cd 0.249079(14) 0.417768(14) 0.32448(3)
Cd17_2 Cd 0.750921(14) 0.417768(14) 0.32448(3)
Cd34_3 Cd 1.0000 0.46188(2) 0.61562(5)
N120_2 N 0.2442(2) 0.61272(18) 0.4827(4)
N121_2 N 0.7558(2) 0.61272(18) 0.4827(4)
N122_2 N 0.24349(19) 0.59624(18) 0.5397(4)
N123_2 N 0.75651(19) 0.59624(18) 0.5397(4)
N128_2 N 0.6955(2) 0.58925(17) 0.8966(4)
N129_2 N 0.3045(2) 0.58925(17) 0.8966(4)
N132_2 N 0.3033(2) 0.66013(19) 0.3897(3)
N133_2 N 0.6967(2) 0.66013(19) 0.3897(3)
N136_2 N 0.4491(2) 0.2665(2) 0.1605(4)
N137_2 N 0.5509(2) 0.2665(2) 0.1605(4)
N138_3 N 0.5000 0.5023(3) 0.4918(6)
C1_4 C 0.2477(3) 0.5007(2) 0.4662(6)
H1_4 H 0.2458 0.5008 0.5119
C2_4 C 0.2466(3) 0.2516(3) 0.3187(7)
H2_4 H 0.2448 0.2516 0.2730
C3_4 C 0.2466(2) 0.5290(2) 0.3630(5)
H3_4 H 0.2446 0.5483 0.3386
C4_6 C 0.5000 0.7796(3) 0.3027(6)
H4_6 H 0.5000 0.7929 0.2655
C5_6 C 0.5000 0.5448(3) 0.3061(7)
C6_6 C 0.5000 0.4975(3) 0.3748(6)
H5_6 H 0.5000 0.4839 0.3378
C7_4 C 0.5943(2) 0.5849(2) 0.0169(5)
C8_4 C 0.4057(2) 0.6604(2) 0.2715(5)
C9_4 C 0.2480(2) 0.52949(18) 0.4336(4)
C10_6 C 0.5000 0.5504(3) 0.4241(6)
H6_6 H 0.5000 0.5733 0.4207
C11_4 C 0.3432(2) 0.6342(2) 0.3081(5)
H7_4 H 0.3467 0.6167 0.2793
H8_4 H 0.6497 0.6306 0.0054
C13_4 C 0.2483(3) 0.2815(3) 0.3551(7)
C15_4 C 0.2499(3) 0.4715(3) 0.4348(7)
H9_4 H 0.2522 0.4522 0.4592
C17_4 C 0.3704(2) 0.6587(2) 0.3111(5)
C18_6 C 0.5000 0.5305(2) 0.3710(5)
C20_4 C 0.3105(3) 0.6354(2) 0.3478(5)
H11_4 H 0.2927 0.6182 0.3453
C21_4 C 0.3630(3) 0.6845(3) 0.3552(5)
H12_4 H 0.3805 0.7019 0.3593
C22_4 C 0.3413(2) 0.44261(18) 0.1817(4)
C24_4 C 0.4086(3) 0.4612(2) 0.2057(5)
H14_4 H 0.4061 0.4534 0.2485
C27_4 C 0.1177(2) 0.2884(2) 0.1211(5)
C28_4 C 0.1279(2) 0.4072(2) 0.4752(4)
C29_6 C 0.5000 0.7922(3) 0.4842(6)
C30_4 C 0.3775(2) 0.4579(2) 0.1602(4)
C31_4 C 0.2476(3) 0.2227(2) 0.3542(5)
H16_4 H 0.2477 0.2031 0.3303
C32_4 C 0.1530(3) 0.3064(2) 0.1014(5)
C34_4 C 0.2492(3) 0.2478(3) 0.4509(6)
H18_4 H 0.2495 0.2472 0.4966
C36_4 C 0.0937(2) 0.4071(2) 0.5161(4)
C37_4 C 0.3847(3) 0.4683(2) 0.0988(4)
H20_4 H 0.3661 0.4648 0.0663
C38_4 C 0.1526(2) 0.4476(2) 0.1915(5)
C40_4 C 0.3417(2) 0.3118(2) 0.1043(5)
C41_4 C 0.3787(3) 0.2956(3) 0.1231(5)
C42_4 C 0.1873(3) 0.3846(2) 0.4360(4)
H21_4 H 0.2058 0.3679 0.4387
C43_4 C 0.3298(3) 0.6838(2) 0.3920(5)
H22_4 H 0.3255 0.7012 0.4208
C44_4 C 0.2478(2) 0.3126(2) 0.3192(6)
C45_4 C 0.1358(3) 0.4338(2) 0.4349(5)
H23_4 H 0.1185 0.4515 0.4334
C46_4 C 0.3819(3) 0.2836(3) 0.1899(6)
H24_4 H 0.3617 0.2850 0.2202
C47_4 C 0.24831(19) 0.4982(2) 0.3330(6)
H25_4 H 0.2491 0.4967 0.2873
C48_4 C 0.2462(2) 0.5617(2) 0.4637(6)
C49_4 C 0.1171(3) 0.4670(2) 0.1774(5)
C50_4 C 0.0543(3) 0.2679(3) 0.1012(6)
H26_4 H 0.0336 0.2659 0.0720
C51_4 C 0.1144(3) 0.2774(3) 0.1869(6)
H27_4 H 0.1340 0.2805 0.2179
C52_4 C 0.1006(3) 0.4649(3) 0.1160(7)
H28_4 H 0.1111 0.4514 0.0835
C53_4 C 0.4093(3) 0.2927(3) 0.0808(6)
H29_4 H 0.4069 0.3001 0.0376
C55_4 C 0.0694(3) 0.5065(3) 0.2033(7)
H31_4 H 0.0618 0.5228 0.2327
C56_4 C 0.0884(4) 0.2854(4) 0.0787(7)
H32_4 H 0.0898 0.2942 0.0365
C57_4 C 0.1690(3) 0.4344(2) 0.3971(5)
H33_4 H 0.1736 0.4526 0.3703
C58_4 C 0.4195(3) 0.2693(3) 0.2055(5)
H34_4 H 0.4238 0.2618 0.2481
C59_4 C 0.0790(3) 0.2612(2) 0.2015(6)
H35_4 H 0.0753 0.2545 0.2448
C60_4 C 0.4188(2) 0.4840(2) 0.0823(4)
H36_4 H 0.4220 0.4918 0.0396
C61_4 C 0.4418(3) 0.4760(2) 0.1856(5)
H37_4 H 0.4622 0.4777 0.2154
C62_6 C 0.5000 0.7271(4) 0.3467(8)
H38_6 H 0.5000 0.7042 0.3428
C64_6 C 0.5000 0.4850(3) 0.4391(6)
H40_6 H 0.5000 0.4621 0.4439
C65_6 C 0.5000 0.7777(4) 0.4172(7)
C68_6 C 0.5000 0.7954(4) 0.3590(10)
H42_6 H 0.5000 0.8183 0.3598
C70_4 C 0.2495(2) 0.2783(2) 0.4213(5)
H44_4 H 0.2505 0.2971 0.4475
C71_6 C 0.5000 0.5336(3) 0.4863(7)
H45_6 H 0.5000 0.5462 0.5246
C72_4 C 0.4435(3) 0.2789(3) 0.1017(6)
H46_4 H 0.4643 0.2784 0.0723
C73_4 C 0.1002(3) 0.4864(3) 0.2195(6)
H47_4 H 0.1093 0.4866 0.2626
C74_4 C 0.1541(3) 0.3812(2) 0.4728(5)
H48_4 H 0.1493 0.3618 0.4958
C76_4 C 0.0671(4) 0.4840(3) 0.1045(7)
H50_4 H 0.0559 0.4829 0.0629
C78_6 C 0.5000 0.7416(6) 0.4088(13)
H52_6 H 0.5000 0.7281 0.4459
Cd2_6 Cd 0.5000 0.62166(2) 0.14474(5)
N6_4 N 0.3252(2) 0.30673(19) 0.0460(4)
N7_4 N 0.2933(2) 0.32513(17) 0.0496(4)
N8_4 N 0.2909(2) 0.34031(18) 0.1051(4)
N9_4 N 0.3216(2) 0.33122(16) 0.1430(4)
N12_4 N 0.2452(2) 0.56520(16) 0.5322(4)
N13_4 N 0.2452(2) 0.59144(19) 0.4347(4)
N14_4 N 0.24895(19) 0.46980(15) 0.3703(5)
N15_4 N 0.0459(2) 0.42543(17) 0.5710(4)
N16_4 N 0.04752(19) 0.39393(17) 0.5806(4)
N17_4 N 0.07850(19) 0.38159(17) 0.5463(4)
N18_4 N 0.0746(2) 0.43522(18) 0.5307(4)
N20_4 N 0.1742(2) 0.45174(16) 0.2461(4)
N21_4 N 0.20176(19) 0.42925(16) 0.2413(3)
N22_4 N 0.19847(18) 0.41331(15) 0.1844(3)
N23_4 N 0.1679(2) 0.42474(16) 0.1532(4)
N24_4 N 0.1950(2) 0.40962(17) 0.3973(4)
N25_4 N 0.2940(2) 0.42693(16) 0.2384(3)
N26_4 N 0.3255(2) 0.44626(18) 0.2401(4)
N27_4 N 0.29094(19) 0.41368(14) 0.1785(3)
N28_4 N 0.32015(18) 0.42303(15) 0.1426(4)
N29_4 N 0.44683(18) 0.48842(16) 0.1248(4)
N31_4 N 0.57429(19) 0.55703(15) 0.0224(4)
N32_4 N 0.54505(19) 0.56418(16) 0.0630(4)
N33_4 N 0.54802(19) 0.59451(17) 0.0825(4)
N34_4 N 0.5783(2) 0.60890(17) 0.0517(4)
N35_6 N 0.5000 0.5264(2) 0.2484(5)
N36_6 N 0.5000 0.5783(2) 0.2867(6)
N37_6 N 0.5000 0.5466(2) 0.1986(5)
N38_6 N 0.5000 0.5775(3) 0.2242(6)
N39_6 N 0.5000 0.66834(17) 0.0679(4)
N40_6 N 0.5000 0.6957(2) 0.0857(5)
N41_6 N 0.5000 0.7154(2) 0.0361(5)
N44_4 N 0.24864(14) 0.36325(14) 0.3002(4)
N45_4 N 0.24650(17) 0.34790(16) 0.2447(4)
N46_4 N 0.2454(2) 0.31602(19) 0.2559(5)
N47_4 N 0.24972(15) 0.34063(17) 0.3494(4)
N49_4 N 0.42088(19) 0.63519(16) 0.2352(4)
N50_4 N 0.45242(17) 0.64831(15) 0.2082(3)
N51_4 N 0.45489(18) 0.68041(16) 0.2246(3)
N52_4 N 0.42659(19) 0.68787(17) 0.2650(4)
N54_4 N 0.1709(2) 0.30268(18) 0.0447(4)
N55_4 N 0.2013(2) 0.32312(16) 0.0476(4)
N56_4 N 0.2000(2) 0.33918(17) 0.1018(4)
N57_4 N 0.1700(2) 0.32882(16) 0.1391(4)
N58_6 N 0.5000 0.74671(18) 0.2906(5)
N59_6 N 0.5000 0.7708(3) 0.5364(5)
N60_6 N 0.5000 0.8218(2) 0.5022(5)
N61_6 N 0.5000 0.7930(2) 0.5878(6)
C79_4 C 0.7523(3) 0.5007(2) 0.4662(6)
H53_4 H 0.7542 0.5008 0.5119
C80_4 C 0.7534(3) 0.2516(3) 0.3187(7)
H54_4 H 0.7552 0.2516 0.2730
C81_4 C 0.7534(2) 0.5290(2) 0.3630(5)
H55_4 H 0.7554 0.5483 0.3386
C82_4 C 0.4057(2) 0.5849(2) 0.0169(5)
C83_4 C 0.5943(2) 0.6604(2) 0.2715(5)
C84_4 C 0.7520(2) 0.52949(18) 0.4336(4)
C85_4 C 0.6568(2) 0.6342(2) 0.3081(5)
H56_4 H 0.6533 0.6167 0.2793
H57_4 H 0.3503 0.6306 0.0054
C87_4 C 0.7517(3) 0.2815(3) 0.3551(7)
C89_4 C 0.7501(3) 0.4715(3) 0.4348(7)
H58_4 H 0.7478 0.4522 0.4592
C91_4 C 0.6296(2) 0.6587(2) 0.3111(5)
C93_4 C 0.6895(3) 0.6354(2) 0.3478(5)
H60_4 H 0.7073 0.6182 0.3453
C94_4 C 0.6370(3) 0.6845(3) 0.3552(5)
H61_4 H 0.6195 0.7019 0.3593
C95_4 C 0.6587(2) 0.44261(18) 0.1817(4)
C97_4 C 0.5914(3) 0.4612(2) 0.2057(5)
H63_4 H 0.5939 0.4534 0.2485
C100_4 C 0.8823(2) 0.2884(2) 0.1211(5)
C101_4 C 0.8721(2) 0.4072(2) 0.4752(4)
C102_4 C 0.6225(2) 0.4579(2) 0.1602(4)
C103_4 C 0.7524(3) 0.2227(2) 0.3542(5)
H65_4 H 0.7523 0.2031 0.3303
C104_4 C 0.8470(3) 0.3064(2) 0.1014(5)
C106_4 C 0.7508(3) 0.2478(3) 0.4509(6)
H67_4 H 0.7505 0.2472 0.4966
C108_4 C 0.9063(2) 0.4071(2) 0.5161(4)
C109_4 C 0.6153(3) 0.4683(2) 0.0988(4)
H69_4 H 0.6339 0.4648 0.0663
C110_4 C 0.8474(2) 0.4476(2) 0.1915(5)
C111_4 C 0.6583(2) 0.3118(2) 0.1043(5)
C112_4 C 0.6213(3) 0.2956(3) 0.1231(5)
C113_4 C 0.8127(3) 0.3846(2) 0.4360(4)
H70_4 H 0.7942 0.3679 0.4387
C114_4 C 0.6702(3) 0.6838(2) 0.3920(5)
H71_4 H 0.6745 0.7012 0.4208
C115_4 C 0.7522(2) 0.3126(2) 0.3192(6)
C116_4 C 0.8642(3) 0.4338(2) 0.4349(5)
H72_4 H 0.8815 0.4515 0.4334
C117_4 C 0.6181(3) 0.2836(3) 0.1899(6)
H73_4 H 0.6383 0.2850 0.2202
C118_4 C 0.75169(19) 0.4982(2) 0.3330(6)
H74_4 H 0.7509 0.4967 0.2873
C119_4 C 0.7538(2) 0.5617(2) 0.4637(6)
C120_4 C 0.8829(3) 0.4670(2) 0.1774(5)
C121_4 C 0.9457(3) 0.2679(3) 0.1012(6)
H75_4 H 0.9664 0.2659 0.0720
C122_4 C 0.8856(3) 0.2774(3) 0.1869(6)
H76_4 H 0.8660 0.2805 0.2179
C123_4 C 0.8994(3) 0.4649(3) 0.1160(7)
H77_4 H 0.8889 0.4514 0.0835
C124_4 C 0.5907(3) 0.2927(3) 0.0808(6)
H78_4 H 0.5931 0.3001 0.0376
C126_4 C 0.9306(3) 0.5065(3) 0.2033(7)
H80_4 H 0.9382 0.5228 0.2327
C127_4 C 0.9116(4) 0.2854(4) 0.0787(7)
H81_4 H 0.9102 0.2942 0.0365
C128_4 C 0.8310(3) 0.4344(2) 0.3971(5)
H82_4 H 0.8264 0.4526 0.3703
C129_4 C 0.5805(3) 0.2693(3) 0.2055(5)
H83_4 H 0.5762 0.2618 0.2481
C130_4 C 0.9210(3) 0.2612(2) 0.2015(6)
H84_4 H 0.9247 0.2545 0.2448
C131_4 C 0.5812(2) 0.4840(2) 0.0823(4)
H85_4 H 0.5780 0.4918 0.0396
C132_4 C 0.5582(3) 0.4760(2) 0.1856(5)
H86_4 H 0.5378 0.4777 0.2154
C133_4 C 0.7505(2) 0.2783(2) 0.4213(5)
H87_4 H 0.7495 0.2971 0.4475
C134_4 C 0.5565(3) 0.2789(3) 0.1017(6)
H88_4 H 0.5357 0.2784 0.0723
C135_4 C 0.8998(3) 0.4864(3) 0.2195(6)
H89_4 H 0.8907 0.4866 0.2626
C136_4 C 0.8459(3) 0.3812(2) 0.4728(5)
H90_4 H 0.8507 0.3618 0.4958
C138_4 C 0.9329(4) 0.4840(3) 0.1045(7)
H92_4 H 0.9441 0.4829 0.0629
N71_4 N 0.6748(2) 0.30673(19) 0.0460(4)
N72_4 N 0.7067(2) 0.32513(17) 0.0496(4)
N73_4 N 0.7091(2) 0.34031(18) 0.1051(4)
N74_4 N 0.6784(2) 0.33122(16) 0.1430(4)
N77_4 N 0.7548(2) 0.56520(16) 0.5322(4)
N78_4 N 0.7548(2) 0.59144(19) 0.4347(4)
N79_4 N 0.75105(19) 0.46980(15) 0.3703(5)
N80_2 N 0.9541(2) 0.42543(17) 0.5710(4)
N81_2 N 0.95248(19) 0.39393(17) 0.5806(4)
N82_4 N 0.92150(19) 0.38159(17) 0.5463(4)
N83_4 N 0.9254(2) 0.43522(18) 0.5307(4)
N85_4 N 0.8258(2) 0.45174(16) 0.2461(4)
N86_4 N 0.79824(19) 0.42925(16) 0.2413(3)
N87_4 N 0.80153(18) 0.41331(15) 0.1844(3)
N88_4 N 0.8321(2) 0.42474(16) 0.1532(4)
N89_4 N 0.8050(2) 0.40962(17) 0.3973(4)
N90_4 N 0.7060(2) 0.42693(16) 0.2384(3)
N91_4 N 0.6745(2) 0.44626(18) 0.2401(4)
N92_4 N 0.70906(19) 0.41368(14) 0.1785(3)
N93_4 N 0.67985(18) 0.42303(15) 0.1426(4)
N94_4 N 0.55317(18) 0.48842(16) 0.1248(4)
N96_4 N 0.42571(19) 0.55703(15) 0.0224(4)
N97_4 N 0.45495(19) 0.56418(16) 0.0630(4)
N98_4 N 0.45198(19) 0.59451(17) 0.0825(4)
N99_4 N 0.4217(2) 0.60890(17) 0.0517(4)
N100_4 N 0.75136(14) 0.36325(14) 0.3002(4)
N101_4 N 0.75350(17) 0.34790(16) 0.2447(4)
N102_4 N 0.7546(2) 0.31602(19) 0.2559(5)
N103_4 N 0.75028(15) 0.34063(17) 0.3494(4)
N105_4 N 0.57912(19) 0.63519(16) 0.2352(4)
N106_4 N 0.54758(17) 0.64831(15) 0.2082(3)
N107_4 N 0.54511(18) 0.68041(16) 0.2246(3)
N108_4 N 0.57341(19) 0.68787(17) 0.2650(4)
N110_4 N 0.8291(2) 0.30268(18) 0.0447(4)
N111_4 N 0.7987(2) 0.32312(16) 0.0476(4)
N112_4 N 0.8000(2) 0.33918(17) 0.1018(4)
N113_4 N 0.8300(2) 0.32882(16) 0.1391(4)
N118_4 N 0.04651(19) 0.33992(18) 0.7061(4)
C12_4 C 0.6544(3) 0.6128(2) 0.9776(5)
C14_4 C 0.6283(2) 0.5867(2) 0.9750(4)
C16_4 C 0.0934(3) 0.3308(2) 0.7706(5)
C19_4 C 0.6368(3) 0.5626(2) 0.9304(5)
H10_4 H 0.6201 0.5446 0.9257
C23_4 C 0.6872(2) 0.6122(2) 0.9387(4)
H13_4 H 0.7048 0.6296 0.9430
C25_4 C 0.1700(3) 0.3100(2) 0.8910(5)
H15_4 H 0.1758 0.2924 0.9186
C26_4 C 0.1281(3) 0.3336(2) 0.8102(5)
C33_4 C 0.1544(3) 0.3592(2) 0.8059(5)
H17_4 H 0.1503 0.3764 0.7764
C35_4 C 0.6698(3) 0.5645(2) 0.8925(5)
H19_4 H 0.6746 0.5477 0.8624
C39_6 C 0.5000 0.6968(2) 0.9865(5)
C54_4 C 0.1866(3) 0.3591(2) 0.8457(6)
H30_4 H 0.2038 0.3768 0.8426
C63_6 C 0.5000 0.7070(3) 0.8024(7)
H39_6 H 0.5000 0.6938 0.7650
C66_6 C 0.5000 0.7093(3) 0.9204(7)
C67_6 C 0.5000 0.7611(5) 0.8461(9)
H41_6 H 0.5000 0.7840 0.8431
C69_6 C 0.5000 0.6922(3) 0.8599(8)
H43_6 H 0.5000 0.6692 0.8607
C75_4 C 0.1365(3) 0.3084(3) 0.8554(5)
H49_4 H 0.1194 0.2908 0.8609
C77_6 C 0.5000 0.7431(5) 0.9089(12)
H51_6 H 0.5000 0.7563 0.9464
N1_4 N 0.1950(2) 0.33516(17) 0.8890(4)
N2_4 N 0.0717(2) 0.30179(19) 0.7671(4)
N5_4 N 0.0778(2) 0.35416(17) 0.7325(4)
N42_6 N 0.5000 0.6654(2) 0.9993(5)
N43_6 N 0.5000 0.7410(2) 0.7935(5)
C86_4 C 0.3456(3) 0.6128(2) 0.9776(5)
C88_4 C 0.3717(2) 0.5867(2) 0.9750(4)
C90_4 C 0.9066(3) 0.3308(2) 0.7706(5)
C92_4 C 0.3632(3) 0.5626(2) 0.9304(5)
H59_4 H 0.3799 0.5446 0.9257
C96_4 C 0.3128(2) 0.6122(2) 0.9387(4)
H62_4 H 0.2952 0.6296 0.9430
C98_4 C 0.8300(3) 0.3100(2) 0.8910(5)
H64_4 H 0.8242 0.2924 0.9186
C99_4 C 0.8719(3) 0.3336(2) 0.8102(5)
C105_4 C 0.8456(3) 0.3592(2) 0.8059(5)
H66_4 H 0.8497 0.3764 0.7764
C107_4 C 0.3302(3) 0.5645(2) 0.8925(5)
H68_4 H 0.3254 0.5477 0.8624
C125_4 C 0.8134(3) 0.3591(2) 0.8457(6)
H79_4 H 0.7962 0.3768 0.8426
C137_4 C 0.8635(3) 0.3084(3) 0.8554(5)
H91_4 H 0.8806 0.2908 0.8609
N66_4 N 0.8050(2) 0.33516(17) 0.8890(4)
N67_4 N 0.9283(2) 0.30179(19) 0.7671(4)
N69_2 N 0.95349(19) 0.33992(18) 0.7061(4)
N70_4 N 0.9222(2) 0.35416(17) 0.7325(4)
loop_
_geom_bond_atom_site_label_1
_geom_bond_atom_site_label_2
_geom_bond_site_symmetry_1
_geom_bond_site_symmetry_2
C36 N17 1_555 1_555
Cd8 N16 1_555 1_555
Cd9 N15 1_555 1_555
N15 N16 1_555 1_555
N16 N17 1_555 1_555
N18 C36 1_555 1_555
N118 Cd8 1_555 1_555
N119 Cd8 1_555 1_555
N124 Cd9 1_555 1_555
N125 Cd8 1_555 1_555
N126 Cd9 1_555 1_555
N127 Cd9 1_555 1_555
N135 Cd8 1_555 1_555
N15 N18 1_555 1_555
N124 N125 1_555 1_555
C2 H2 1_555 1_555
C6 H5 1_555 1_555
C13 C2 1_555 1_555
H9 C15 1_555 1_555
C16 C26 1_555 1_555
C22 C30 1_555 1_555
C24 H14 1_555 1_555
C25 H15 1_555 1_555
C26 C33 1_555 1_555
C27 C32 1_555 1_555
C30 C24 1_555 1_555
C31 C2 1_555 1_555
H16 C31 1_555 1_555
C32 N54 1_555 1_555
C33 H17 1_555 1_555
C34 H18 1_555 1_555
C37 C30 1_555 1_555
H20 C37 1_555 1_555
C38 C49 1_555 1_555
C40 C41 1_555 1_555
C41 C46 1_555 1_555
C42 H21 1_555 1_555
C44 C13 1_555 1_555
C45 C28 1_555 1_555
H23 C45 1_555 1_555
C46 H24 1_555 1_555
H25 C47 1_555 1_555
C49 C52 1_555 1_555
C50 H26 1_555 1_555
C51 C27 1_555 1_555
H27 C51 1_555 1_555
C52 H28 1_555 1_555
C53 C41 1_555 1_555
H29 C53 1_555 1_555
C54 C33 1_555 1_555
H30 C54 1_555 1_555
C56 C27 1_555 1_555
H32 C56 1_555 1_555
C57 C45 1_555 1_555
H33 C57 1_555 1_555
C58 C46 1_555 1_555
H34 C58 1_555 1_555
C59 C51 1_555 1_555
H35 C59 1_555 1_555
C60 C37 1_555 1_555
H36 C60 1_555 1_555
C61 C24 1_555 1_555
H37 C61 1_555 1_555
C64 C6 1_555 1_555
H40 C64 1_555 1_555
C70 C13 1_555 1_555
H44 C70 1_555 1_555
C72 C53 1_555 1_555
H46 C72 1_555 1_555
C73 C49 1_555 1_555
H47 C73 1_555 1_555
C74 C28 1_555 1_555
H48 C74 1_555 1_555
C75 C25 1_555 1_555
H49 C75 1_555 1_555
C76 C52 1_555 1_555
H50 C76 1_555 1_555
Cd4 N14 1_555 1_555
Cd5 N1 1_555 1_555
Cd7 N8 1_555 1_555
N1 C25 1_555 1_555
N2 C16 1_555 1_555
N3 N2 1_555 1_555
N118 N3 1_555 1_555
N5 C16 1_555 1_555
N6 C40 1_555 1_555
N7 Cd5 1_555 1_555
N8 N7 1_555 1_555
N9 C40 1_555 1_555
N14 C15 1_555 1_555
N20 C38 1_555 1_555
N21 Cd4 1_555 1_555
N22 Cd7 1_555 1_555
N23 C38 1_555 1_555
N24 C42 1_555 1_555
N25 Cd4 1_555 1_555
N26 C22 1_555 1_555
N27 Cd7 1_555 1_555
N28 C22 1_555 1_555
N29 C60 1_555 1_555
N44 Cd4 1_555 1_555
N45 Cd7 1_555 1_555
N46 C44 1_555 1_555
N47 C44 1_555 1_555
N48 C31 1_555 1_555
N54 N55 1_555 1_555
N55 Cd5 1_555 1_555
N56 Cd7 1_555 1_555
N57 C32 1_555 1_555
N63 C58 1_555 1_555
N65 C50 1_555 1_555
Cd15 N65 1_555 1_555
Cd20 N48 1_555 1_555
Cd23 N63 1_555 1_555
Cd25 N3 1_555 1_555
N121 Cd5 1_555 1_555
N123 Cd7 1_555 1_555
N128 Cd4 1_555 1_555
N130 Cd5 1_555 1_555
N133 Cd5 1_555 1_555
C26 C75 1_555 1_555
C34 C70 1_555 1_555
C34 N48 1_555 1_555
C42 C74 1_555 1_555
C47 N14 1_555 1_555
C50 C56 1_555 1_555
C54 N1 1_555 1_555
C57 N24 1_555 1_555
C59 N65 1_555 1_555
C61 N29 1_555 1_555
C72 N63 1_555 1_555
Cd4 N24 1_555 1_555
N118 N5 1_555 1_555
N6 N7 1_555 1_555
N8 N9 1_555 1_555
N20 N21 1_555 1_555
N21 N22 1_555 1_555
N22 N23 1_555 1_555
N25 N26 1_555 1_555
N25 N27 1_555 1_555
N27 N28 1_555 1_555
N44 N45 1_555 1_555
N44 N47 1_555 1_555
N45 N46 1_555 1_555
N55 N56 1_555 1_555
N56 N57 1_555 1_555
N121 N123 1_555 1_555
N11 N12 1_555 1_555
N61 N59 1_555 1_555
N62 N60 1_555 1_555
Cd22 N61 1_555 1_555
Cd27 N11 1_555 1_555
Cd31 N62 1_555 1_555
N61 N62 1_555 1_555
C3 H3 1_555 1_555
C4 H4 1_555 1_555
C5 C18 1_555 1_555
C8 C17 1_555 1_555
C9 C1 1_555 1_555
C10 H6 1_555 1_555
C11 H7 1_555 1_555
C17 C11 1_555 1_555
C20 C11 1_555 1_555
H11 C20 1_555 1_555
C21 C17 1_555 1_555
H12 C21 1_555 1_555
C29 C65 1_555 1_555
C39 C66 1_555 1_555
C43 C21 1_555 1_555
H22 C43 1_555 1_555
C48 C9 1_555 1_555
C55 H31 1_555 1_555
C62 H38 1_555 1_555
C63 H39 1_555 1_555
C65 C68 1_555 1_555
C66 C69 1_555 1_555
C67 H41 1_555 1_555
C68 C4 1_555 1_555
H42 C68 1_555 1_555
C69 C63 1_555 1_555
H43 C69 1_555 1_555
C71 C10 1_555 1_555
C77 C66 1_555 1_555
H51 C77 1_555 1_555
C78 C62 1_555 1_555
H52 C78 1_555 1_555
Cd3 N40 1_555 1_555
Cd22 N43 1_555 1_555
N13 C48 1_555 1_555
N19 C55 1_555 1_555
N35 C5 1_555 1_555
N36 C5 1_555 1_555
N37 Cd1 1_555 1_555
N38 Cd2 1_555 1_555
N39 Cd2 1_555 1_555
N40 N39 1_555 1_555
N41 C39 1_555 1_555
N42 C39 1_555 1_555
N43 C63 1_555 1_555
N49 C8 1_555 1_555
N50 Cd2 1_555 1_555
N51 Cd3 1_555 1_555
N52 C8 1_555 1_555
N53 C20 1_555 1_555
N58 C4 1_555 1_555
C82 C88 1_555 1_555
C86 H57 1_555 1_555
C88 C86 1_555 1_555
C92 C88 1_555 1_555
H59 C92 1_555 1_555
C96 C86 1_555 1_555
H62 C96 1_555 1_555
C107 C92 1_555 1_555
H68 C107 1_555 1_555
N95 C96 1_555 1_555
N96 C82 1_555 1_555
N97 Cd1 1_555 1_555
N98 Cd2 1_555 1_555
N99 C82 1_555 1_555
Cd17 N95 1_555 1_555
Cd19 N10 1_555 1_555
Cd34 N19 1_555 1_555
N117 Cd22 1_555 1_555
N137 Cd22 1_555 1_555
N140 Cd3 1_555 1_555
C3 C9 1_555 1_555
C10 C18 1_555 1_555
C43 N53 1_555 1_555
C62 N58 1_555 1_555
C65 C78 1_555 1_555
C67 C77 1_555 1_555
C67 N43 1_555 1_555
C71 N64 1_555 1_555
Cd3 N58 1_555 1_555
N10 N13 1_555 1_555
N35 N37 1_555 1_555
N36 N38 1_555 1_555
N37 N38 1_555 1_555
N39 N42 1_555 1_555
N40 N41 1_555 1_555
N49 N50 1_555 1_555
N50 N51 1_555 1_555
N51 N52 1_555 1_555
N53 Cd19 1_555 1_555
C107 N95 1_555 1_555
N96 N97 1_555 1_555
N97 N98 1_555 1_555
N98 N99 1_555 1_555
C108 N82 1_555 1_555
N125 N82 1_555 1_555
N83 C108 1_555 1_555
N124 N83 1_555 1_555
C6_2 H5_2 1_555 1_555
C64_2 C6_2 1_555 1_555
H40_2 C64_2 1_555 1_555
C80 H54 1_555 1_555
C87 C80 1_555 1_555
H58 C89 1_555 1_555
C90 C99 1_555 1_555
C95 C102 1_555 1_555
C97 H63 1_555 1_555
C98 H64 1_555 1_555
C99 C105 1_555 1_555
C100 C104 1_555 1_555
C102 C97 1_555 1_555
C103 C80 1_555 1_555
H65 C103 1_555 1_555
C104 N110 1_555 1_555
C105 H66 1_555 1_555
C106 H67 1_555 1_555
C109 C102 1_555 1_555
H69 C109 1_555 1_555
C110 C120 1_555 1_555
C111 C112 1_555 1_555
C112 C117 1_555 1_555
C113 H70 1_555 1_555
C115 C87 1_555 1_555
C116 C101 1_555 1_555
H72 C116 1_555 1_555
C117 H73 1_555 1_555
H74 C118 1_555 1_555
C120 C123 1_555 1_555
C121 H75 1_555 1_555
C122 C100 1_555 1_555
H76 C122 1_555 1_555
C123 H77 1_555 1_555
C124 C112 1_555 1_555
H78 C124 1_555 1_555
C125 C105 1_555 1_555
H79 C125 1_555 1_555
C127 C100 1_555 1_555
H81 C127 1_555 1_555
C128 C116 1_555 1_555
H82 C128 1_555 1_555
C129 C117 1_555 1_555
H83 C129 1_555 1_555
C130 C122 1_555 1_555
H84 C130 1_555 1_555
C131 C109 1_555 1_555
H85 C131 1_555 1_555
C132 C97 1_555 1_555
H86 C132 1_555 1_555
C133 C87 1_555 1_555
H87 C133 1_555 1_555
C134 C124 1_555 1_555
H88 C134 1_555 1_555
C135 C120 1_555 1_555
H89 C135 1_555 1_555
C136 C101 1_555 1_555
H90 C136 1_555 1_555
C137 C98 1_555 1_555
H91 C137 1_555 1_555
C138 C123 1_555 1_555
H92 C138 1_555 1_555
Cd10 N79 1_555 1_555
Cd11 N66 1_555 1_555
Cd12 N73 1_555 1_555
N66 C98 1_555 1_555
N67 C90 1_555 1_555
N68 N67 1_555 1_555
N119 N68 1_555 1_555
N70 C90 1_555 1_555
N71 C111 1_555 1_555
N72 Cd11 1_555 1_555
N73 N72 1_555 1_555
N74 C111 1_555 1_555
N79 C89 1_555 1_555
N85 C110 1_555 1_555
N86 Cd10 1_555 1_555
N87 Cd12 1_555 1_555
N88 C110 1_555 1_555
N89 C113 1_555 1_555
N90 Cd10 1_555 1_555
N91 C95 1_555 1_555
N92 Cd12 1_555 1_555
N93 C95 1_555 1_555
N100 Cd10 1_555 1_555
N101 Cd12 1_555 1_555
N102 C115 1_555 1_555
N103 C115 1_555 1_555
N104 C103 1_555 1_555
N110 N111 1_555 1_555
N111 Cd11 1_555 1_555
N112 Cd12 1_555 1_555
N113 C104 1_555 1_555
N114 C129 1_555 1_555
N115 C121 1_555 1_555
Cd15 N115 1_555 1_555
Cd21 N104 1_555 1_555
Cd25 N68 1_555 1_555
N120 Cd11 1_555 1_555
N122 Cd12 1_555 1_555
N129 Cd10 1_555 1_555
N131 Cd11 1_555 1_555
N132 Cd11 1_555 1_555
C99 C137 1_555 1_555
C106 C133 1_555 1_555
C106 N104 1_555 1_555
C113 C136 1_555 1_555
C118 N79 1_555 1_555
C121 C127 1_555 1_555
C125 N66 1_555 1_555
C128 N89 1_555 1_555
C130 N115 1_555 1_555
C131 N94 1_555 1_555
C132 N94 1_555 1_555
C134 N114 1_555 1_555
Cd10 N89 1_555 1_555
N119 N70 1_555 1_555
N71 N72 1_555 1_555
N73 N74 1_555 1_555
N85 N86 1_555 1_555
N86 N87 1_555 1_555
N87 N88 1_555 1_555
N90 N91 1_555 1_555
N90 N92 1_555 1_555
N92 N93 1_555 1_555
N100 N101 1_555 1_555
N100 N103 1_555 1_555
N101 N102 1_555 1_555
N111 N112 1_555 1_555
N112 N113 1_555 1_555
N114 Cd23_2 1_555 1_555
N120 N122 1_555 1_555
N61_2 N59_2 1_555 1_555
N62_2 N60_2 1_555 1_555
N76 N77 1_555 1_555
Cd22_2 N61_2 1_555 1_555
Cd26 N76 1_555 1_555
Cd31_2 N62_2 1_555 1_555
N61_2 N62_2 1_555 1_555
C4_2 H4_2 1_555 1_555
C5_2 C18_2 1_555 1_555
C7 C14 1_555 1_555
C10_2 H6_2 1_555 1_555
C12 H8 1_555 1_555
C14 C12 1_555 1_555
C19 C14 1_555 1_555
H10 C19 1_555 1_555
C23 C12 1_555 1_555
H13 C23 1_555 1_555
C29_2 C65_2 1_555 1_555
C35 C19 1_555 1_555
H19 C35 1_555 1_555
C39_2 C66_2 1_555 1_555
C62_2 H38_2 1_555 1_555
C63_2 H39_2 1_555 1_555
C65_2 C68_2 1_555 1_555
C66_2 C69_2 1_555 1_555
C67_2 H41_2 1_555 1_555
C68_2 C4_2 1_555 1_555
H42_2 C68_2 1_555 1_555
C69_2 C63_2 1_555 1_555
H43_2 C69_2 1_555 1_555
C71_2 C10_2 1_555 1_555
C77_2 C66_2 1_555 1_555
H51_2 C77_2 1_555 1_555
C78_2 C62_2 1_555 1_555
H52_2 C78_2 1_555 1_555
Cd2_2 N33 1_555 1_555
Cd3_2 N40_2 1_555 1_555
Cd22_2 N43_2 1_555 1_555
N30 C23 1_555 1_555
N31 C7 1_555 1_555
N32 Cd1_2 1_555 1_555
N33 N32 1_555 1_555
N34 C7 1_555 1_555
N35_2 C5_2 1_555 1_555
N36_2 C5_2 1_555 1_555
N37_2 Cd1_2 1_555 1_555
N38_2 Cd2_2 1_555 1_555
N39_2 Cd2_2 1_555 1_555
N40_2 N39_2 1_555 1_555
N41_2 C39_2 1_555 1_555
N42_2 C39_2 1_555 1_555
N43_2 C63_2 1_555 1_555
N58_2 C4_2 1_555 1_555
C81 H55 1_555 1_555
C83 C91 1_555 1_555
C84 C79 1_555 1_555
C85 H56 1_555 1_555
C91 C85 1_555 1_555
C93 C85 1_555 1_555
H60 C93 1_555 1_555
C94 C91 1_555 1_555
H61 C94 1_555 1_555
C114 C94 1_555 1_555
H71 C114 1_555 1_555
C119 C84 1_555 1_555
C126 H80 1_555 1_555
N78 C119 1_555 1_555
N84 C126 1_555 1_555
N105 C83 1_555 1_555
N106 Cd2_2 1_555 1_555
N107 Cd3_2 1_555 1_555
N108 C83 1_555 1_555
N109 C93 1_555 1_555
Cd16 N30 1_555 1_555
Cd18 N75 1_555 1_555
Cd34 N84 1_555 1_555
N116 Cd22_2 1_555 1_555
N136 Cd22_2 1_555 1_555
N139 Cd3_2 1_555 1_555
C10_2 C18_2 1_555 1_555
C35 N30 1_555 1_555
C62_2 N58_2 1_555 1_555
C65_2 C78_2 1_555 1_555
C67_2 C77_2 1_555 1_555
C67_2 N43_2 1_555 1_555
C71_2 N64_2 1_555 1_555
Cd3_2 N58_2 1_555 1_555
N31 N32 1_555 1_555
N33 N34 1_555 1_555
N35_2 N37_2 1_555 1_555
N36_2 N38_2 1_555 1_555
N37_2 N38_2 1_555 1_555
N39_2 N42_2 1_555 1_555
N40_2 N41_2 1_555 1_555
C81 C84 1_555 1_555
C114 N109 1_555 1_555
N75 N78 1_555 1_555
N105 N106 1_555 1_555
N106 N107 1_555 1_555
N107 N108 1_555 1_555
N109 Cd18 1_555 1_555
C4_3 H4_3 1_555 1_555
C5_3 C18_3 1_555 1_555
C10_3 H6_3 1_555 1_555
C29_3 C65_3 1_555 1_555
C62_3 H38_3 1_555 1_555
C65_3 C68_3 1_555 1_555
C68_3 C4_3 1_555 1_555
H42_3 C68_3 1_555 1_555
C71_3 C10_3 1_555 1_555
H45_3 C71_3 1_555 1_555
C78_3 C62_3 1_555 1_555
H52_3 C78_3 1_555 1_555
Cd2_3 N33_2 1_555 1_555
Cd3_3 N40_3 1_555 1_555
N31_2 C7_2 1_555 1_555
N32_2 Cd13 1_555 1_555
N33_2 N32_2 1_555 1_555
N34_2 C7_2 1_555 1_555
N35_3 C5_3 1_555 1_555
N36_3 C5_3 1_555 1_555
N37_3 Cd13 1_555 1_555
N38_3 Cd2_3 1_555 1_555
N39_3 Cd2_3 1_555 1_555
N40_3 N39_3 1_555 1_555
N58_3 C4_3 1_555 1_555
N59_3 C29_3 1_555 1_555
N60_3 C29_3 1_555 1_555
N61_3 N59_3 1_555 1_555
N62_3 N60_3 1_555 1_555
C79_2 H53_2 1_555 1_555
C81_2 H55_2 1_555 1_555
C83_2 C91_2 1_555 1_555
C84_2 C79_2 1_555 1_555
C85_2 H56_2 1_555 1_555
C91_2 C85_2 1_555 1_555
C93_2 C85_2 1_555 1_555
H60_2 C93_2 1_555 1_555
C94_2 C91_2 1_555 1_555
H61_2 C94_2 1_555 1_555
C114_2 C94_2 1_555 1_555
H71_2 C114_2 1_555 1_555
C119_2 C84_2 1_555 1_555
C126_2 H80_2 1_555 1_555
N123 N77_2 1_555 1_555
N77_2 C119_2 1_555 1_555
N78_2 C119_2 1_555 1_555
N127 C126_2 1_555 1_555
N105_2 C83_2 1_555 1_555
N106_2 Cd2_3 1_555 1_555
N107_2 Cd3_3 1_555 1_555
N108_2 C83_2 1_555 1_555
N133 C93_2 1_555 1_555
Cd23 N61_3 1_555 1_555
Cd31_3 N62_3 1_555 1_555
N139_2 Cd3_3 1_555 1_555
C10_3 C18_3 1_555 1_555
C62_3 N58_3 1_555 1_555
C65_3 C78_3 1_555 1_555
C71_3 N138 1_555 1_555
Cd3_3 N58_3 1_555 1_555
N31_2 N32_2 1_555 1_555
N33_2 N34_2 1_555 1_555
N35_3 N37_3 1_555 1_555
N36_3 N38_3 1_555 1_555
N37_3 N38_3 1_555 1_555
N40_3 N41_3 1_555 1_555
N61_3 N62_3 1_555 1_555
C81_2 C84_2 1_555 1_555
C114_2 N133 1_555 1_555
N121 N78_2 1_555 1_555
N105_2 N106_2 1_555 1_555
N106_2 N107_2 1_555 1_555
N107_2 N108_2 1_555 1_555
C14_2 C12_2 1_555 1_555
C19_2 C14_2 1_555 1_555
H10_2 C19_2 1_555 1_555
C23_2 C12_2 1_555 1_555
H13_2 C23_2 1_555 1_555
C35_2 C19_2 1_555 1_555
H19_2 C35_2 1_555 1_555
C39_3 C66_3 1_555 1_555
C63_3 H39_3 1_555 1_555
C66_3 C69_3 1_555 1_555
C67_3 H41_3 1_555 1_555
C69_3 C63_3 1_555 1_555
H43_3 C69_3 1_555 1_555
C77_3 C66_3 1_555 1_555
H51_3 C77_3 1_555 1_555
Cd23 N43_3 1_555 1_555
N128 C23_2 1_555 1_555
N42_3 C39_3 1_555 1_555
N43_3 C63_3 1_555 1_555
N116_2 Cd23 1_555 1_555
C35_2 N128 1_555 1_555
C67_3 C77_3 1_555 1_555
C67_3 N43_3 1_555 1_555
C6_3 H5_3 1_555 1_555
C64_3 C6_3 1_555 1_555
H40_3 C64_3 1_555 1_555
C80_2 H54_2 1_555 1_555
C87_2 C80_2 1_555 1_555
H58_2 C89_2 1_555 1_555
C95_2 C102_2 1_555 1_555
C97_2 H63_2 1_555 1_555
C100_2 C104_2 1_555 1_555
C101_2 C108_2 1_555 1_555
C102_2 C97_2 1_555 1_555
C103_2 C80_2 1_555 1_555
H65_2 C103_2 1_555 1_555
C104_2 N110_2 1_555 1_555
C106_2 H67_2 1_555 1_555
C108_2 N82_2 1_555 1_555
C109_2 C102_2 1_555 1_555
H69_2 C109_2 1_555 1_555
C110_2 C120_2 1_555 1_555
C111_2 C112_2 1_555 1_555
C112_2 C117_2 1_555 1_555
C113_2 H70_2 1_555 1_555
C115_2 C87_2 1_555 1_555
C116_2 C101_2 1_555 1_555
H72_2 C116_2 1_555 1_555
C117_2 H73_2 1_555 1_555
H74_2 C118_2 1_555 1_555
C120_2 C123_2 1_555 1_555
C121_2 H75_2 1_555 1_555
C122_2 C100_2 1_555 1_555
H76_2 C122_2 1_555 1_555
C123_2 H77_2 1_555 1_555
C124_2 C112_2 1_555 1_555
H78_2 C124_2 1_555 1_555
C127_2 C100_2 1_555 1_555
H81_2 C127_2 1_555 1_555
C128_2 C116_2 1_555 1_555
H82_2 C128_2 1_555 1_555
C129_2 C117_2 1_555 1_555
H83_2 C129_2 1_555 1_555
C130_2 C122_2 1_555 1_555
H84_2 C130_2 1_555 1_555
C131_2 C109_2 1_555 1_555
H85_2 C131_2 1_555 1_555
C132_2 C97_2 1_555 1_555
H86_2 C132_2 1_555 1_555
C133_2 C87_2 1_555 1_555
H87_2 C133_2 1_555 1_555
C134_2 C124_2 1_555 1_555
H88_2 C134_2 1_555 1_555
C135_2 C120_2 1_555 1_555
H89_2 C135_2 1_555 1_555
C136_2 C101_2 1_555 1_555
H90_2 C136_2 1_555 1_555
C138_2 C123_2 1_555 1_555
H92_2 C138_2 1_555 1_555
Cd17 N79_2 1_555 1_555
Cd27 N73_2 1_555 1_555
N71_2 C111_2 1_555 1_555
N73_2 N72_2 1_555 1_555
N74_2 C111_2 1_555 1_555
N79_2 C89_2 1_555 1_555
N80 N81 1_555 1_555
N81 N82_2 1_555 1_555
N83_2 C108_2 1_555 1_555
N85_2 C110_2 1_555 1_555
N86_2 Cd17 1_555 1_555
N87_2 Cd27 1_555 1_555
N88_2 C110_2 1_555 1_555
N89_2 C113_2 1_555 1_555
N90_2 Cd17 1_555 1_555
N91_2 C95_2 1_555 1_555
N92_2 Cd27 1_555 1_555
N93_2 C95_2 1_555 1_555
N100_2 Cd17 1_555 1_555
N101_2 Cd27 1_555 1_555
N102_2 C115_2 1_555 1_555
N103_2 C115_2 1_555 1_555
N104_2 C103_2 1_555 1_555
N110_2 N111_2 1_555 1_555
N112_2 Cd27 1_555 1_555
N113_2 C104_2 1_555 1_555
N137 C129_2 1_555 1_555
N115_2 C121_2 1_555 1_555
Cd14 N115_2 1_555 1_555
Cd21_2 N104_2 1_555 1_555
Cd29 N81 1_555 1_555
Cd34 N80 1_555 1_555
C106_2 C133_2 1_555 1_555
C106_2 N104_2 1_555 1_555
C113_2 C136_2 1_555 1_555
C118_2 N79_2 1_555 1_555
C121_2 C127_2 1_555 1_555
C128_2 N89_2 1_555 1_555
C130_2 N115_2 1_555 1_555
C131_2 N94_2 1_555 1_555
C132_2 N94_2 1_555 1_555
C134_2 N137 1_555 1_555
Cd17 N89_2 1_555 1_555
N71_2 N72_2 1_555 1_555
N73_2 N74_2 1_555 1_555
N80 N83_2 1_555 1_555
N85_2 N86_2 1_555 1_555
N86_2 N87_2 1_555 1_555
N87_2 N88_2 1_555 1_555
N90_2 N91_2 1_555 1_555
N90_2 N92_2 1_555 1_555
N92_2 N93_2 1_555 1_555
N100_2 N101_2 1_555 1_555
N100_2 N103_2 1_555 1_555
N101_2 N102_2 1_555 1_555
N111_2 N112_2 1_555 1_555
N112_2 N113_2 1_555 1_555
C90_2 C99_2 1_555 1_555
C98_2 H64_2 1_555 1_555
C99_2 C105_2 1_555 1_555
C105_2 H66_2 1_555 1_555
C125_2 C105_2 1_555 1_555
H79_2 C125_2 1_555 1_555
C137_2 C98_2 1_555 1_555
H91_2 C137_2 1_555 1_555
Cd19 N66_2 1_555 1_555
N66_2 C98_2 1_555 1_555
N67_2 C90_2 1_555 1_555
N68_2 N67_2 1_555 1_555
N69 N68_2 1_555 1_555
N70_2 C90_2 1_555 1_555
Cd24 N68_2 1_555 1_555
Cd29 N69 1_555 1_555
N131_2 Cd19 1_555 1_555
C99_2 C137_2 1_555 1_555
C125_2 N66_2 1_555 1_555
N69 N70_2 1_555 1_555
C1_2 H1_2 1_555 1_555
C3_2 H3_2 1_555 1_555
C4_4 H4_4 1_555 1_555
C5_4 C18_4 1_555 1_555
C8_2 C17_2 1_555 1_555
C9_2 C1_2 1_555 1_555
C10_4 H6_4 1_555 1_555
C11_2 H7_2 1_555 1_555
C17_2 C11_2 1_555 1_555
C20_2 C11_2 1_555 1_555
H11_2 C20_2 1_555 1_555
C21_2 C17_2 1_555 1_555
H12_2 C21_2 1_555 1_555
C29_4 C65_4 1_555 1_555
C43_2 C21_2 1_555 1_555
H22_2 C43_2 1_555 1_555
C48_2 C9_2 1_555 1_555
C55_2 H31_2 1_555 1_555
C62_4 H38_4 1_555 1_555
C65_4 C68_4 1_555 1_555
C68_4 C4_4 1_555 1_555
H42_4 C68_4 1_555 1_555
C71_4 C10_4 1_555 1_555
H45_4 C71_4 1_555 1_555
C78_4 C62_4 1_555 1_555
H52_4 C78_4 1_555 1_555
Cd3_4 N40_4 1_555 1_555
N122 N12_2 1_555 1_555
N12_2 C48_2 1_555 1_555
N13_2 C48_2 1_555 1_555
N126 C55_2 1_555 1_555
N35_4 C5_4 1_555 1_555
N36_4 C5_4 1_555 1_555
N37_4 Cd13_2 1_555 1_555
N38_4 Cd2_4 1_555 1_555
N39_4 Cd2_4 1_555 1_555
N40_4 N39_4 1_555 1_555
N49_2 C8_2 1_555 1_555
N50_2 Cd2_4 1_555 1_555
N51_2 Cd3_4 1_555 1_555
N52_2 C8_2 1_555 1_555
N132 C20_2 1_555 1_555
N58_4 C4_4 1_555 1_555
N59_4 C29_4 1_555 1_555
N60_4 C29_4 1_555 1_555
N61_4 N59_4 1_555 1_555
N62_4 N60_4 1_555 1_555
N96_2 C82_2 1_555 1_555
N97_2 Cd13_2 1_555 1_555
N98_2 Cd2_4 1_555 1_555
N99_2 C82_2 1_555 1_555
Cd23_2 N61_4 1_555 1_555
Cd31_4 N62_4 1_555 1_555
N140_2 Cd3_4 1_555 1_555
C3_2 C9_2 1_555 1_555
C10_4 C18_4 1_555 1_555
C43_2 N132 1_555 1_555
C62_4 N58_4 1_555 1_555
C65_4 C78_4 1_555 1_555
C71_4 N138_2 1_555 1_555
Cd3_4 N58_4 1_555 1_555
N120 N13_2 1_555 1_555
N35_4 N37_4 1_555 1_555
N36_4 N38_4 1_555 1_555
N37_4 N38_4 1_555 1_555
N40_4 N41_4 1_555 1_555
N49_2 N50_2 1_555 1_555
N50_2 N51_2 1_555 1_555
N51_2 N52_2 1_555 1_555
N61_4 N62_4 1_555 1_555
N96_2 N97_2 1_555 1_555
N97_2 N98_2 1_555 1_555
N98_2 N99_2 1_555 1_555
C39_4 C66_4 1_555 1_555
C63_4 H39_4 1_555 1_555
C66_4 C69_4 1_555 1_555
C67_4 H41_4 1_555 1_555
C69_4 C63_4 1_555 1_555
H43_4 C69_4 1_555 1_555
C77_4 C66_4 1_555 1_555
H51_4 C77_4 1_555 1_555
Cd23_2 N43_4 1_555 1_555
N42_4 C39_4 1_555 1_555
N43_4 C63_4 1_555 1_555
C88_2 C86_2 1_555 1_555
C92_2 C88_2 1_555 1_555
H59_2 C92_2 1_555 1_555
C96_2 C86_2 1_555 1_555
H62_2 C96_2 1_555 1_555
C107_2 C92_2 1_555 1_555
H68_2 C107_2 1_555 1_555
N129 C96_2 1_555 1_555
N117_2 Cd23_2 1_555 1_555
C67_4 C77_4 1_555 1_555
C67_4 N43_4 1_555 1_555
C107_2 N129 1_555 1_555
C2_2 H2_2 1_555 1_555
C6_4 H5_4 1_555 1_555
C13_2 C2_2 1_555 1_555
H9_2 C15_2 1_555 1_555
C22_2 C30_2 1_555 1_555
C24_2 H14_2 1_555 1_555
C27_2 C32_2 1_555 1_555
C28_2 C36_2 1_555 1_555
C30_2 C24_2 1_555 1_555
C31_2 C2_2 1_555 1_555
H16_2 C31_2 1_555 1_555
C32_2 N54_2 1_555 1_555
C34_2 H18_2 1_555 1_555
C36_2 N17_2 1_555 1_555
C37_2 C30_2 1_555 1_555
H20_2 C37_2 1_555 1_555
C38_2 C49_2 1_555 1_555
C40_2 C41_2 1_555 1_555
C41_2 C46_2 1_555 1_555
C42_2 H21_2 1_555 1_555
C44_2 C13_2 1_555 1_555
C45_2 C28_2 1_555 1_555
H23_2 C45_2 1_555 1_555
C46_2 H24_2 1_555 1_555
H25_2 C47_2 1_555 1_555
C49_2 C52_2 1_555 1_555
C50_2 H26_2 1_555 1_555
C51_2 C27_2 1_555 1_555
H27_2 C51_2 1_555 1_555
C52_2 H28_2 1_555 1_555
C53_2 C41_2 1_555 1_555
H29_2 C53_2 1_555 1_555
C56_2 C27_2 1_555 1_555
H32_2 C56_2 1_555 1_555
C57_2 C45_2 1_555 1_555
H33_2 C57_2 1_555 1_555
C58_2 C46_2 1_555 1_555
H34_2 C58_2 1_555 1_555
C59_2 C51_2 1_555 1_555
H35_2 C59_2 1_555 1_555
C60_2 C37_2 1_555 1_555
H36_2 C60_2 1_555 1_555
C61_2 C24_2 1_555 1_555
H37_2 C61_2 1_555 1_555
C64_4 C6_4 1_555 1_555
H40_4 C64_4 1_555 1_555
C70_2 C13_2 1_555 1_555
H44_2 C70_2 1_555 1_555
C72_2 C53_2 1_555 1_555
H46_2 C72_2 1_555 1_555
C73_2 C49_2 1_555 1_555
H47_2 C73_2 1_555 1_555
C74_2 C28_2 1_555 1_555
H48_2 C74_2 1_555 1_555
C76_2 C52_2 1_555 1_555
H50_2 C76_2 1_555 1_555
Cd16 N14_2 1_555 1_555
Cd26 N8_2 1_555 1_555
Cd29 N16_2 1_555 1_555
Cd34 N15_2 1_555 1_555
N6_2 C40_2 1_555 1_555
N8_2 N7_2 1_555 1_555
N9_2 C40_2 1_555 1_555
N14_2 C15_2 1_555 1_555
N15_2 N16_2 1_555 1_555
N16_2 N17_2 1_555 1_555
N18_2 C36_2 1_555 1_555
N20_2 C38_2 1_555 1_555
N21_2 Cd16 1_555 1_555
N22_2 Cd26 1_555 1_555
N23_2 C38_2 1_555 1_555
N24_2 C42_2 1_555 1_555
N25_2 Cd16 1_555 1_555
N26_2 C22_2 1_555 1_555
N27_2 Cd26 1_555 1_555
N28_2 C22_2 1_555 1_555
N29_2 C60_2 1_555 1_555
N44_2 Cd16 1_555 1_555
N45_2 Cd26 1_555 1_555
N46_2 C44_2 1_555 1_555
N47_2 C44_2 1_555 1_555
N48_2 C31_2 1_555 1_555
N54_2 N55_2 1_555 1_555
N56_2 Cd26 1_555 1_555
N57_2 C32_2 1_555 1_555
N136 C58_2 1_555 1_555
N65_2 C50_2 1_555 1_555
Cd14 N65_2 1_555 1_555
Cd20_2 N48_2 1_555 1_555
N118_2 Cd29 1_555 1_555
N135_2 Cd29 1_555 1_555
C34_2 C70_2 1_555 1_555
C34_2 N48_2 1_555 1_555
C42_2 C74_2 1_555 1_555
C47_2 N14_2 1_555 1_555
C50_2 C56_2 1_555 1_555
C57_2 N24_2 1_555 1_555
C59_2 N65_2 1_555 1_555
C61_2 N29_2 1_555 1_555
C72_2 N136 1_555 1_555
Cd16 N24_2 1_555 1_555
N6_2 N7_2 1_555 1_555
N8_2 N9_2 1_555 1_555
N15_2 N18_2 1_555 1_555
N20_2 N21_2 1_555 1_555
N21_2 N22_2 1_555 1_555
N22_2 N23_2 1_555 1_555
N25_2 N26_2 1_555 1_555
N25_2 N27_2 1_555 1_555
N27_2 N28_2 1_555 1_555
N44_2 N45_2 1_555 1_555
N44_2 N47_2 1_555 1_555
N45_2 N46_2 1_555 1_555
N55_2 N56_2 1_555 1_555
N56_2 N57_2 1_555 1_555
C16_2 C26_2 1_555 1_555
C25_2 H15_2 1_555 1_555
C26_2 C33_2 1_555 1_555
C33_2 H17_2 1_555 1_555
C54_2 C33_2 1_555 1_555
H30_2 C54_2 1_555 1_555
C75_2 C25_2 1_555 1_555
H49_2 C75_2 1_555 1_555
Cd18 N1_2 1_555 1_555
N1_2 C25_2 1_555 1_555
N2_2 C16_2 1_555 1_555
N3_2 N2_2 1_555 1_555
N118_2 N3_2 1_555 1_555
N5_2 C16_2 1_555 1_555
Cd24 N3_2 1_555 1_555
N130_2 Cd18 1_555 1_555
C26_2 C75_2 1_555 1_555
C54_2 N1_2 1_555 1_555
N118_2 N5_2 1_555 1_555
N119_2 Cd31 1_555 1_555
N124_2 Cd9_2 1_555 1_555
N125_2 Cd31 1_555 1_555
N126_2 Cd9_2 1_555 1_555
N124_2 N125_2 1_555 1_555
C36_3 N17_3 1_555 1_555
Cd31_2 N16_3 1_555 1_555
Cd9_3 N15_3 1_555 1_555
N11_2 N12_3 1_555 1_555
N15_3 N16_3 1_555 1_555
N16_3 N17_3 1_555 1_555
N18_3 C36_3 1_555 1_555
N61_5 N59_5 1_555 1_555
N135 N60_5 1_555 1_555
C108_3 N82_3 1_555 1_555
N76_2 N77_3 1_555 1_555
N125_2 N82_3 1_555 1_555
N83_3 C108_3 1_555 1_555
Cd25 N61_5 1_555 1_555
Cd26_2 N76_2 1_555 1_555
Cd27_2 N11_2 1_555 1_555
N118_3 Cd31_2 1_555 1_555
N127_2 Cd9_3 1_555 1_555
N15_3 N18_3 1_555 1_555
N61_5 N135 1_555 1_555
N124_2 N83_3 1_555 1_555
C2_3 H2_3 1_555 1_555
C3_3 H3_3 1_555 1_555
C4_5 H4_5 1_555 1_555
C5_5 C18_5 1_555 1_555
C6_5 H5_5 1_555 1_555
C7_3 C14_3 1_555 1_555
C8_3 C17_3 1_555 1_555
C9_3 C1_3 1_555 1_555
C10_5 H6_5 1_555 1_555
C11_3 H7_3 1_555 1_555
C12_3 H8_3 1_555 1_555
C13_3 C2_3 1_555 1_555
C14_3 C12_3 1_555 1_555
C15_3 C1_3 1_555 1_555
H9_3 C15_3 1_555 1_555
C16_3 C26_3 1_555 1_555
C17_3 C11_3 1_555 1_555
C18_5 C6_5 1_555 1_555
C19_3 C14_3 1_555 1_555
H10_3 C19_3 1_555 1_555
C20_3 C11_3 1_555 1_555
H11_3 C20_3 1_555 1_555
C21_3 C17_3 1_555 1_555
H12_3 C21_3 1_555 1_555
C22_3 C30_3 1_555 1_555
C23_3 C12_3 1_555 1_555
H13_3 C23_3 1_555 1_555
C24_3 H14_3 1_555 1_555
C25_3 H15_3 1_555 1_555
C26_3 C33_3 1_555 1_555
C27_3 C32_3 1_555 1_555
C29_5 C65_5 1_555 1_555
C30_3 C24_3 1_555 1_555
C31_3 C2_3 1_555 1_555
H16_3 C31_3 1_555 1_555
C32_3 N54_3 1_555 1_555
C33_3 H17_3 1_555 1_555
C34_3 H18_3 1_555 1_555
C35_3 C19_3 1_555 1_555
H19_3 C35_3 1_555 1_555
C37_3 C30_3 1_555 1_555
H20_3 C37_3 1_555 1_555
C38_3 C49_3 1_555 1_555
C39_5 C66_5 1_555 1_555
C40_3 C41_3 1_555 1_555
C41_3 C46_3 1_555 1_555
C42_3 H21_3 1_555 1_555
C43_3 C21_3 1_555 1_555
H22_3 C43_3 1_555 1_555
C44_3 C13_3 1_555 1_555
C45_3 C28_3 1_555 1_555
H23_3 C45_3 1_555 1_555
C46_3 H24_3 1_555 1_555
C47_3 C3_3 1_555 1_555
H25_3 C47_3 1_555 1_555
C48_3 C9_3 1_555 1_555
C49_3 C52_3 1_555 1_555
C50_3 H26_3 1_555 1_555
C51_3 C27_3 1_555 1_555
H27_3 C51_3 1_555 1_555
C52_3 H28_3 1_555 1_555
C53_3 C41_3 1_555 1_555
H29_3 C53_3 1_555 1_555
C54_3 C33_3 1_555 1_555
H30_3 C54_3 1_555 1_555
C55_3 H31_3 1_555 1_555
C56_3 C27_3 1_555 1_555
H32_3 C56_3 1_555 1_555
C57_3 C45_3 1_555 1_555
H33_3 C57_3 1_555 1_555
C58_3 C46_3 1_555 1_555
H34_3 C58_3 1_555 1_555
C59_3 C51_3 1_555 1_555
H35_3 C59_3 1_555 1_555
C60_3 C37_3 1_555 1_555
H36_3 C60_3 1_555 1_555
C61_3 C24_3 1_555 1_555
H37_3 C61_3 1_555 1_555
C62_5 H38_5 1_555 1_555
C63_5 H39_5 1_555 1_555
C64_5 C6_5 1_555 1_555
H40_5 C64_5 1_555 1_555
C65_5 C68_5 1_555 1_555
C66_5 C69_5 1_555 1_555
C67_5 H41_5 1_555 1_555
C68_5 C4_5 1_555 1_555
H42_5 C68_5 1_555 1_555
C69_5 C63_5 1_555 1_555
H43_5 C69_5 1_555 1_555
C70_3 C13_3 1_555 1_555
H44_3 C70_3 1_555 1_555
C71_5 C10_5 1_555 1_555
C72_3 C53_3 1_555 1_555
H46_3 C72_3 1_555 1_555
C73_3 C49_3 1_555 1_555
H47_3 C73_3 1_555 1_555
C74_3 C28_3 1_555 1_555
H48_3 C74_3 1_555 1_555
C75_3 C25_3 1_555 1_555
H49_3 C75_3 1_555 1_555
C76_3 C52_3 1_555 1_555
H50_3 C76_3 1_555 1_555
C77_5 C66_5 1_555 1_555
H51_5 C77_5 1_555 1_555
C78_5 C62_5 1_555 1_555
H52_5 C78_5 1_555 1_555
Cd1_3 N29_3 1_555 1_555
Cd2_5 N33_3 1_555 1_555
Cd15 N40_5 1_555 1_555
Cd4_2 N14_3 1_555 1_555
Cd20_2 N1_3 1_555 1_555
Cd25 N43_5 1_555 1_555
Cd7_2 N8_3 1_555 1_555
N1_3 C25_3 1_555 1_555
N2_3 C16_3 1_555 1_555
N116 N2_3 1_555 1_555
N118_3 N116 1_555 1_555
N5_3 C16_3 1_555 1_555
N6_3 C40_3 1_555 1_555
N7_3 Cd20_2 1_555 1_555
N8_3 N7_3 1_555 1_555
N9_3 C40_3 1_555 1_555
N13_3 C48_3 1_555 1_555
N14_3 C15_3 1_555 1_555
N19_2 C55_3 1_555 1_555
N20_3 C38_3 1_555 1_555
N21_3 Cd4_2 1_555 1_555
N22_3 Cd7_2 1_555 1_555
N23_3 C38_3 1_555 1_555
N24_3 C42_3 1_555 1_555
N25_3 Cd4_2 1_555 1_555
N26_3 C22_3 1_555 1_555
N27_3 Cd7_2 1_555 1_555
N28_3 C22_3 1_555 1_555
N29_3 C60_3 1_555 1_555
N30_2 C23_3 1_555 1_555
N31_3 C7_3 1_555 1_555
N32_3 Cd1_3 1_555 1_555
N33_3 N32_3 1_555 1_555
N34_3 C7_3 1_555 1_555
N35_5 C5_5 1_555 1_555
N36_5 C5_5 1_555 1_555
N37_5 Cd1_3 1_555 1_555
N38_5 Cd2_5 1_555 1_555
N39_5 Cd2_5 1_555 1_555
N40_5 N39_5 1_555 1_555
N41_5 C39_5 1_555 1_555
N42_5 C39_5 1_555 1_555
N43_5 C63_5 1_555 1_555
N44_3 Cd4_2 1_555 1_555
N45_3 Cd7_2 1_555 1_555
N46_3 C44_3 1_555 1_555
N47_3 C44_3 1_555 1_555
N130_2 C31_3 1_555 1_555
N49_3 C8_3 1_555 1_555
N50_3 Cd2_5 1_555 1_555
N51_3 Cd15 1_555 1_555
N52_3 C8_3 1_555 1_555
N53_2 C20_3 1_555 1_555
N54_3 N55_3 1_555 1_555
N55_3 Cd20_2 1_555 1_555
N56_3 Cd7_2 1_555 1_555
N57_3 C32_3 1_555 1_555
N58_5 C4_5 1_555 1_555
N63_2 C58_3 1_555 1_555
N64_3 C64_5 1_555 1_555
N139 C50_3 1_555 1_555
C80_3 H54_3 1_555 1_555
C81_3 H55_3 1_555 1_555
C82_3 C88_3 1_555 1_555
C83_3 C91_3 1_555 1_555
C84_3 C79_3 1_555 1_555
C85_3 H56_3 1_555 1_555
C86_3 H57_3 1_555 1_555
C87_3 C80_3 1_555 1_555
C88_3 C86_3 1_555 1_555
C89_3 C79_3 1_555 1_555
H58_3 C89_3 1_555 1_555
C90_3 C99_3 1_555 1_555
C91_3 C85_3 1_555 1_555
C92_3 C88_3 1_555 1_555
H59_3 C92_3 1_555 1_555
C93_3 C85_3 1_555 1_555
H60_3 C93_3 1_555 1_555
C94_3 C91_3 1_555 1_555
H61_3 C94_3 1_555 1_555
C95_3 C102_3 1_555 1_555
C96_3 C86_3 1_555 1_555
H62_3 C96_3 1_555 1_555
C97_3 H63_3 1_555 1_555
C98_3 H64_3 1_555 1_555
C99_3 C105_3 1_555 1_555
C100_3 C104_3 1_555 1_555
C102_3 C97_3 1_555 1_555
C103_3 C80_3 1_555 1_555
H65_3 C103_3 1_555 1_555
C104_3 N110_3 1_555 1_555
C105_3 H66_3 1_555 1_555
C106_3 H67_3 1_555 1_555
C107_3 C92_3 1_555 1_555
H68_3 C107_3 1_555 1_555
C109_3 C102_3 1_555 1_555
H69_3 C109_3 1_555 1_555
C110_3 C120_3 1_555 1_555
C111_3 C112_3 1_555 1_555
C112_3 C117_3 1_555 1_555
C113_3 H70_3 1_555 1_555
C114_3 C94_3 1_555 1_555
H71_3 C114_3 1_555 1_555
C115_3 C87_3 1_555 1_555
C116_3 C101_3 1_555 1_555
H72_3 C116_3 1_555 1_555
C117_3 H73_3 1_555 1_555
C118_3 C81_3 1_555 1_555
H74_3 C118_3 1_555 1_555
C119_3 C84_3 1_555 1_555
C120_3 C123_3 1_555 1_555
C121_3 H75_3 1_555 1_555
C122_3 C100_3 1_555 1_555
H76_3 C122_3 1_555 1_555
C123_3 H77_3 1_555 1_555
C124_3 C112_3 1_555 1_555
H78_3 C124_3 1_555 1_555
C125_3 C105_3 1_555 1_555
H79_3 C125_3 1_555 1_555
C126_3 H80_3 1_555 1_555
C127_3 C100_3 1_555 1_555
H81_3 C127_3 1_555 1_555
C128_3 C116_3 1_555 1_555
H82_3 C128_3 1_555 1_555
C129_3 C117_3 1_555 1_555
H83_3 C129_3 1_555 1_555
C130_3 C122_3 1_555 1_555
H84_3 C130_3 1_555 1_555
C131_3 C109_3 1_555 1_555
H85_3 C131_3 1_555 1_555
C132_3 C97_3 1_555 1_555
H86_3 C132_3 1_555 1_555
C133_3 C87_3 1_555 1_555
H87_3 C133_3 1_555 1_555
C134_3 C124_3 1_555 1_555
H88_3 C134_3 1_555 1_555
C135_3 C120_3 1_555 1_555
H89_3 C135_3 1_555 1_555
C136_3 C101_3 1_555 1_555
H90_3 C136_3 1_555 1_555
C137_3 C98_3 1_555 1_555
H91_3 C137_3 1_555 1_555
C138_3 C123_3 1_555 1_555
H92_3 C138_3 1_555 1_555
Cd10_2 N79_3 1_555 1_555
Cd21_2 N66_3 1_555 1_555
Cd12_2 N73_3 1_555 1_555
N66_3 C98_3 1_555 1_555
N67_3 C90_3 1_555 1_555
N117 N67_3 1_555 1_555
N119_2 N117 1_555 1_555
N70_3 C90_3 1_555 1_555
N71_3 C111_3 1_555 1_555
N72_3 Cd21_2 1_555 1_555
N73_3 N72_3 1_555 1_555
N74_3 C111_3 1_555 1_555
N78_3 C119_3 1_555 1_555
N79_3 C89_3 1_555 1_555
N84_2 C126_3 1_555 1_555
N85_3 C110_3 1_555 1_555
N86_3 Cd10_2 1_555 1_555
N87_3 Cd12_2 1_555 1_555
N88_3 C110_3 1_555 1_555
N89_3 C113_3 1_555 1_555
N90_3 Cd10_2 1_555 1_555
N91_3 C95_3 1_555 1_555
N92_3 Cd12_2 1_555 1_555
N93_3 C95_3 1_555 1_555
N94_3 Cd1_3 1_555 1_555
N95_2 C96_3 1_555 1_555
N96_3 C82_3 1_555 1_555
N97_3 Cd1_3 1_555 1_555
N98_3 Cd2_5 1_555 1_555
N99_3 C82_3 1_555 1_555
N100_3 Cd10_2 1_555 1_555
N101_3 Cd12_2 1_555 1_555
N102_3 C115_3 1_555 1_555
N103_3 C115_3 1_555 1_555
N131_2 C103_3 1_555 1_555
N105_3 C83_3 1_555 1_555
N106_3 Cd2_5 1_555 1_555
N107_3 Cd15 1_555 1_555
N108_3 C83_3 1_555 1_555
N109_2 C93_3 1_555 1_555
N110_3 N111_3 1_555 1_555
N111_3 Cd21_2 1_555 1_555
N112_3 Cd12_2 1_555 1_555
N113_3 C104_3 1_555 1_555
N114_2 C129_3 1_555 1_555
N140 C121_3 1_555 1_555
Cd16_2 N30_2 1_555 1_555
Cd17_2 N95_2 1_555 1_555
Cd20 N75_2 1_555 1_555
Cd21 N10_2 1_555 1_555
Cd24 N63_2 1_555 1_555
Cd34_2 N84_2 1_555 1_555
Cd34_3 N19_2 1_555 1_555
N120_2 Cd21_2 1_555 1_555
N121_2 Cd20_2 1_555 1_555
N122_2 Cd12_2 1_555 1_555
N123_2 Cd7_2 1_555 1_555
N128_2 Cd4_2 1_555 1_555
N129_2 Cd10_2 1_555 1_555
N132_2 Cd21_2 1_555 1_555
N133_2 Cd20_2 1_555 1_555
N136_2 Cd25 1_555 1_555
N137_2 Cd25 1_555 1_555
N138_3 Cd1_3 1_555 1_555
C3_3 C9_3 1_555 1_555
C10_5 C18_5 1_555 1_555
C26_3 C75_3 1_555 1_555
C34_3 C70_3 1_555 1_555
C34_3 N130_2 1_555 1_555
C35_3 N30_2 1_555 1_555
C42_3 C74_3 1_555 1_555
C43_3 N53_2 1_555 1_555
C47_3 N14_3 1_555 1_555
C50_3 C56_3 1_555 1_555
C54_3 N1_3 1_555 1_555
C55_3 C73_3 1_555 1_555
C57_3 N24_3 1_555 1_555
C59_3 N139 1_555 1_555
C61_3 N29_3 1_555 1_555
C62_5 N58_5 1_555 1_555
C65_5 C78_5 1_555 1_555
C67_5 C77_5 1_555 1_555
C67_5 N43_5 1_555 1_555
C71_5 N64_3 1_555 1_555
C72_3 N63_2 1_555 1_555
C76_3 N19_2 1_555 1_555
Cd15 N58_5 1_555 1_555
Cd4_2 N24_3 1_555 1_555
N118_3 N5_3 1_555 1_555
N6_3 N7_3 1_555 1_555
N8_3 N9_3 1_555 1_555
N10_2 N13_3 1_555 1_555
N20_3 N21_3 1_555 1_555
N21_3 N22_3 1_555 1_555
N22_3 N23_3 1_555 1_555
N25_3 N26_3 1_555 1_555
N25_3 N27_3 1_555 1_555
N27_3 N28_3 1_555 1_555
N31_3 N32_3 1_555 1_555
N33_3 N34_3 1_555 1_555
N35_5 N37_5 1_555 1_555
N36_5 N38_5 1_555 1_555
N37_5 N38_5 1_555 1_555
N39_5 N42_5 1_555 1_555
N40_5 N41_5 1_555 1_555
N44_3 N45_3 1_555 1_555
N44_3 N47_3 1_555 1_555
N45_3 N46_3 1_555 1_555
N49_3 N50_3 1_555 1_555
N50_3 N51_3 1_555 1_555
N51_3 N52_3 1_555 1_555
N53_2 Cd21 1_555 1_555
N55_3 N56_3 1_555 1_555
N56_3 N57_3 1_555 1_555
C81_3 C84_3 1_555 1_555
C99_3 C137_3 1_555 1_555
C106_3 C133_3 1_555 1_555
C106_3 N131_2 1_555 1_555
C107_3 N95_2 1_555 1_555
C113_3 C136_3 1_555 1_555
C114_3 N109_2 1_555 1_555
C118_3 N79_3 1_555 1_555
C121_3 C127_3 1_555 1_555
C125_3 N66_3 1_555 1_555
C126_3 C135_3 1_555 1_555
C128_3 N89_3 1_555 1_555
C130_3 N140 1_555 1_555
C131_3 N94_3 1_555 1_555
C132_3 N94_3 1_555 1_555
C134_3 N114_2 1_555 1_555
C138_3 N84_2 1_555 1_555
Cd10_2 N89_3 1_555 1_555
N119_2 N70_3 1_555 1_555
N71_3 N72_3 1_555 1_555
N73_3 N74_3 1_555 1_555
N75_2 N78_3 1_555 1_555
N85_3 N86_3 1_555 1_555
N86_3 N87_3 1_555 1_555
N87_3 N88_3 1_555 1_555
N90_3 N91_3 1_555 1_555
N90_3 N92_3 1_555 1_555
N92_3 N93_3 1_555 1_555
N96_3 N97_3 1_555 1_555
N97_3 N98_3 1_555 1_555
N98_3 N99_3 1_555 1_555
N100_3 N101_3 1_555 1_555
N100_3 N103_3 1_555 1_555
N101_3 N102_3 1_555 1_555
N105_3 N106_3 1_555 1_555
N106_3 N107_3 1_555 1_555
N107_3 N108_3 1_555 1_555
N109_2 Cd20 1_555 1_555
N111_3 N112_3 1_555 1_555
N112_3 N113_3 1_555 1_555
N114_2 Cd24 1_555 1_555
N120_2 N122_2 1_555 1_555
N121_2 N123_2 1_555 1_555
C1_4 H1_4 1_555 1_555
C2_4 H2_4 1_555 1_555
C3_4 H3_4 1_555 1_555
C4_6 H4_6 1_555 1_555
C5_6 C18_6 1_555 1_555
C6_6 H5_6 1_555 1_555
C8_4 C17_4 1_555 1_555
C9_4 C1_4 1_555 1_555
C10_6 H6_6 1_555 1_555
C11_4 H7_4 1_555 1_555
C13_4 C2_4 1_555 1_555
C15_4 C1_4 1_555 1_555
H9_4 C15_4 1_555 1_555
C17_4 C11_4 1_555 1_555
C18_6 C6_6 1_555 1_555
C20_4 C11_4 1_555 1_555
H11_4 C20_4 1_555 1_555
C21_4 C17_4 1_555 1_555
H12_4 C21_4 1_555 1_555
C22_4 C30_4 1_555 1_555
C24_4 H14_4 1_555 1_555
C27_4 C32_4 1_555 1_555
C28_4 C36_4 1_555 1_555
C29_6 C65_6 1_555 1_555
C30_4 C24_4 1_555 1_555
C31_4 C2_4 1_555 1_555
H16_4 C31_4 1_555 1_555
C32_4 N54_4 1_555 1_555
C34_4 H18_4 1_555 1_555
C36_4 N17_4 1_555 1_555
C37_4 C30_4 1_555 1_555
H20_4 C37_4 1_555 1_555
C38_4 C49_4 1_555 1_555
C40_4 C41_4 1_555 1_555
C41_4 C46_4 1_555 1_555
C42_4 H21_4 1_555 1_555
C43_4 C21_4 1_555 1_555
H22_4 C43_4 1_555 1_555
C44_4 C13_4 1_555 1_555
C45_4 C28_4 1_555 1_555
H23_4 C45_4 1_555 1_555
C46_4 H24_4 1_555 1_555
C47_4 C3_4 1_555 1_555
H25_4 C47_4 1_555 1_555
C48_4 C9_4 1_555 1_555
C49_4 C52_4 1_555 1_555
C50_4 H26_4 1_555 1_555
C51_4 C27_4 1_555 1_555
H27_4 C51_4 1_555 1_555
C52_4 H28_4 1_555 1_555
C53_4 C41_4 1_555 1_555
H29_4 C53_4 1_555 1_555
C55_4 H31_4 1_555 1_555
C56_4 C27_4 1_555 1_555
H32_4 C56_4 1_555 1_555
C57_4 C45_4 1_555 1_555
H33_4 C57_4 1_555 1_555
C58_4 C46_4 1_555 1_555
H34_4 C58_4 1_555 1_555
C59_4 C51_4 1_555 1_555
H35_4 C59_4 1_555 1_555
C60_4 C37_4 1_555 1_555
H36_4 C60_4 1_555 1_555
C61_4 C24_4 1_555 1_555
H37_4 C61_4 1_555 1_555
C62_6 H38_6 1_555 1_555
C64_6 C6_6 1_555 1_555
H40_6 C64_6 1_555 1_555
C65_6 C68_6 1_555 1_555
C68_6 C4_6 1_555 1_555
H42_6 C68_6 1_555 1_555
C70_4 C13_4 1_555 1_555
H44_4 C70_4 1_555 1_555
C71_6 C10_6 1_555 1_555
H45_6 C71_6 1_555 1_555
C72_4 C53_4 1_555 1_555
H46_4 C72_4 1_555 1_555
C73_4 C49_4 1_555 1_555
H47_4 C73_4 1_555 1_555
C74_4 C28_4 1_555 1_555
H48_4 C74_4 1_555 1_555
C76_4 C52_4 1_555 1_555
H50_4 C76_4 1_555 1_555
C78_6 C62_6 1_555 1_555
H52_6 C78_6 1_555 1_555
Cd13_3 N29_4 1_555 1_555
Cd2_6 N33_4 1_555 1_555
Cd14 N40_6 1_555 1_555
Cd16_2 N14_4 1_555 1_555
Cd26_2 N8_4 1_555 1_555
Cd31_3 N16_4 1_555 1_555
Cd34_2 N15_4 1_555 1_555
N6_4 C40_4 1_555 1_555
N8_4 N7_4 1_555 1_555
N9_4 C40_4 1_555 1_555
N122_2 N12_4 1_555 1_555
N12_4 C48_4 1_555 1_555
N13_4 C48_4 1_555 1_555
N14_4 C15_4 1_555 1_555
N15_4 N16_4 1_555 1_555
N16_4 N17_4 1_555 1_555
N18_4 C36_4 1_555 1_555
N126_2 C55_4 1_555 1_555
N20_4 C38_4 1_555 1_555
N21_4 Cd16_2 1_555 1_555
N22_4 Cd26_2 1_555 1_555
N23_4 C38_4 1_555 1_555
N24_4 C42_4 1_555 1_555
N25_4 Cd16_2 1_555 1_555
N26_4 C22_4 1_555 1_555
N27_4 Cd26_2 1_555 1_555
N28_4 C22_4 1_555 1_555
N29_4 C60_4 1_555 1_555
N31_4 C7_4 1_555 1_555
N32_4 Cd13_3 1_555 1_555
N33_4 N32_4 1_555 1_555
N34_4 C7_4 1_555 1_555
N35_6 C5_6 1_555 1_555
N36_6 C5_6 1_555 1_555
N37_6 Cd13_3 1_555 1_555
N38_6 Cd2_6 1_555 1_555
N39_6 Cd2_6 1_555 1_555
N40_6 N39_6 1_555 1_555
N44_4 Cd16_2 1_555 1_555
N45_4 Cd26_2 1_555 1_555
N46_4 C44_4 1_555 1_555
N47_4 C44_4 1_555 1_555
N130 C31_4 1_555 1_555
N49_4 C8_4 1_555 1_555
N50_4 Cd2_6 1_555 1_555
N51_4 Cd14 1_555 1_555
N52_4 C8_4 1_555 1_555
N132_2 C20_4 1_555 1_555
N54_4 N55_4 1_555 1_555
N56_4 Cd26_2 1_555 1_555
N57_4 C32_4 1_555 1_555
N58_6 C4_6 1_555 1_555
N59_6 C29_6 1_555 1_555
N60_6 C29_6 1_555 1_555
N61_6 N59_6 1_555 1_555
N135_2 N60_6 1_555 1_555
N136_2 C58_4 1_555 1_555
N138_3 C64_6 1_555 1_555
N139_2 C50_4 1_555 1_555
C79_4 H53_4 1_555 1_555
C80_4 H54_4 1_555 1_555
C81_4 H55_4 1_555 1_555
C83_4 C91_4 1_555 1_555
C84_4 C79_4 1_555 1_555
C85_4 H56_4 1_555 1_555
C87_4 C80_4 1_555 1_555
C89_4 C79_4 1_555 1_555
H58_4 C89_4 1_555 1_555
C91_4 C85_4 1_555 1_555
C93_4 C85_4 1_555 1_555
H60_4 C93_4 1_555 1_555
C94_4 C91_4 1_555 1_555
H61_4 C94_4 1_555 1_555
C95_4 C102_4 1_555 1_555
C97_4 H63_4 1_555 1_555
C100_4 C104_4 1_555 1_555
C101_4 C108_4 1_555 1_555
C102_4 C97_4 1_555 1_555
C103_4 C80_4 1_555 1_555
H65_4 C103_4 1_555 1_555
C104_4 N110_4 1_555 1_555
C106_4 H67_4 1_555 1_555
C108_4 N82_4 1_555 1_555
C109_4 C102_4 1_555 1_555
H69_4 C109_4 1_555 1_555
C110_4 C120_4 1_555 1_555
C111_4 C112_4 1_555 1_555
C112_4 C117_4 1_555 1_555
C113_4 H70_4 1_555 1_555
C114_4 C94_4 1_555 1_555
H71_4 C114_4 1_555 1_555
C115_4 C87_4 1_555 1_555
C116_4 C101_4 1_555 1_555
H72_4 C116_4 1_555 1_555
C117_4 H73_4 1_555 1_555
C118_4 C81_4 1_555 1_555
H74_4 C118_4 1_555 1_555
C119_4 C84_4 1_555 1_555
C120_4 C123_4 1_555 1_555
C121_4 H75_4 1_555 1_555
C122_4 C100_4 1_555 1_555
H76_4 C122_4 1_555 1_555
C123_4 H77_4 1_555 1_555
C124_4 C112_4 1_555 1_555
H78_4 C124_4 1_555 1_555
C126_4 H80_4 1_555 1_555
C127_4 C100_4 1_555 1_555
H81_4 C127_4 1_555 1_555
C128_4 C116_4 1_555 1_555
H82_4 C128_4 1_555 1_555
C129_4 C117_4 1_555 1_555
H83_4 C129_4 1_555 1_555
C130_4 C122_4 1_555 1_555
H84_4 C130_4 1_555 1_555
C131_4 C109_4 1_555 1_555
H85_4 C131_4 1_555 1_555
C132_4 C97_4 1_555 1_555
H86_4 C132_4 1_555 1_555
C133_4 C87_4 1_555 1_555
H87_4 C133_4 1_555 1_555
C134_4 C124_4 1_555 1_555
H88_4 C134_4 1_555 1_555
C135_4 C120_4 1_555 1_555
H89_4 C135_4 1_555 1_555
C136_4 C101_4 1_555 1_555
H90_4 C136_4 1_555 1_555
C138_4 C123_4 1_555 1_555
H92_4 C138_4 1_555 1_555
Cd17_2 N79_4 1_555 1_555
Cd27_2 N73_4 1_555 1_555
N71_4 C111_4 1_555 1_555
N73_4 N72_4 1_555 1_555
N74_4 C111_4 1_555 1_555
N123_2 N77_4 1_555 1_555
N77_4 C119_4 1_555 1_555
N78_4 C119_4 1_555 1_555
N79_4 C89_4 1_555 1_555
N80_2 N81_2 1_555 1_555
N81_2 N82_4 1_555 1_555
N83_4 C108_4 1_555 1_555
N127_2 C126_4 1_555 1_555
N85_4 C110_4 1_555 1_555
N86_4 Cd17_2 1_555 1_555
N87_4 Cd27_2 1_555 1_555
N88_4 C110_4 1_555 1_555
N89_4 C113_4 1_555 1_555
N90_4 Cd17_2 1_555 1_555
N91_4 C95_4 1_555 1_555
N92_4 Cd27_2 1_555 1_555
N93_4 C95_4 1_555 1_555
N94_4 Cd13_3 1_555 1_555
N96_4 C82_4 1_555 1_555
N97_4 Cd13_3 1_555 1_555
N98_4 Cd2_6 1_555 1_555
N99_4 C82_4 1_555 1_555
N100_4 Cd17_2 1_555 1_555
N101_4 Cd27_2 1_555 1_555
N102_4 C115_4 1_555 1_555
N103_4 C115_4 1_555 1_555
N131 C103_4 1_555 1_555
N105_4 C83_4 1_555 1_555
N106_4 Cd2_6 1_555 1_555
N107_4 Cd14 1_555 1_555
N108_4 C83_4 1_555 1_555
N133_2 C93_4 1_555 1_555
N110_4 N111_4 1_555 1_555
N112_4 Cd27_2 1_555 1_555
N113_4 C104_4 1_555 1_555
N137_2 C129_4 1_555 1_555
N140_2 C121_4 1_555 1_555
Cd24 N61_6 1_555 1_555
Cd31_4 N81_2 1_555 1_555
Cd34_3 N80_2 1_555 1_555
N118_4 Cd31_3 1_555 1_555
C3_4 C9_4 1_555 1_555
C10_6 C18_6 1_555 1_555
C34_4 C70_4 1_555 1_555
C34_4 N130 1_555 1_555
C42_4 C74_4 1_555 1_555
C43_4 N132_2 1_555 1_555
C47_4 N14_4 1_555 1_555
C50_4 C56_4 1_555 1_555
C55_4 C73_4 1_555 1_555
C57_4 N24_4 1_555 1_555
C59_4 N139_2 1_555 1_555
C61_4 N29_4 1_555 1_555
C62_6 N58_6 1_555 1_555
C65_6 C78_6 1_555 1_555
C71_6 N138_3 1_555 1_555
C72_4 N136_2 1_555 1_555
C76_4 N126_2 1_555 1_555
Cd14 N58_6 1_555 1_555
Cd16_2 N24_4 1_555 1_555
N6_4 N7_4 1_555 1_555
N8_4 N9_4 1_555 1_555
N120_2 N13_4 1_555 1_555
N15_4 N18_4 1_555 1_555
N20_4 N21_4 1_555 1_555
N21_4 N22_4 1_555 1_555
N22_4 N23_4 1_555 1_555
N25_4 N26_4 1_555 1_555
N25_4 N27_4 1_555 1_555
N27_4 N28_4 1_555 1_555
N31_4 N32_4 1_555 1_555
N33_4 N34_4 1_555 1_555
N35_6 N37_6 1_555 1_555
N36_6 N38_6 1_555 1_555
N37_6 N38_6 1_555 1_555
N40_6 N41_6 1_555 1_555
N44_4 N45_4 1_555 1_555
N44_4 N47_4 1_555 1_555
N45_4 N46_4 1_555 1_555
N49_4 N50_4 1_555 1_555
N50_4 N51_4 1_555 1_555
N51_4 N52_4 1_555 1_555
N55_4 N56_4 1_555 1_555
N56_4 N57_4 1_555 1_555
N61_6 N135_2 1_555 1_555
C81_4 C84_4 1_555 1_555
C106_4 C133_4 1_555 1_555
C106_4 N131 1_555 1_555
C113_4 C136_4 1_555 1_555
C114_4 N133_2 1_555 1_555
C118_4 N79_4 1_555 1_555
C121_4 C127_4 1_555 1_555
C126_4 C135_4 1_555 1_555
C128_4 N89_4 1_555 1_555
C130_4 N140_2 1_555 1_555
C131_4 N94_4 1_555 1_555
C132_4 N94_4 1_555 1_555
C134_4 N137_2 1_555 1_555
C138_4 N127_2 1_555 1_555
Cd17_2 N89_4 1_555 1_555
N71_4 N72_4 1_555 1_555
N73_4 N74_4 1_555 1_555
N121_2 N78_4 1_555 1_555
N80_2 N83_4 1_555 1_555
N85_4 N86_4 1_555 1_555
N86_4 N87_4 1_555 1_555
N87_4 N88_4 1_555 1_555
N90_4 N91_4 1_555 1_555
N90_4 N92_4 1_555 1_555
N92_4 N93_4 1_555 1_555
N96_4 N97_4 1_555 1_555
N97_4 N98_4 1_555 1_555
N98_4 N99_4 1_555 1_555
N100_4 N101_4 1_555 1_555
N100_4 N103_4 1_555 1_555
N101_4 N102_4 1_555 1_555
N105_4 N106_4 1_555 1_555
N106_4 N107_4 1_555 1_555
N107_4 N108_4 1_555 1_555
N111_4 N112_4 1_555 1_555
N112_4 N113_4 1_555 1_555
C14_4 C12_4 1_555 1_555
C16_4 C26_4 1_555 1_555
C19_4 C14_4 1_555 1_555
H10_4 C19_4 1_555 1_555
C23_4 C12_4 1_555 1_555
H13_4 C23_4 1_555 1_555
C25_4 H15_4 1_555 1_555
C26_4 C33_4 1_555 1_555
C33_4 H17_4 1_555 1_555
C35_4 C19_4 1_555 1_555
H19_4 C35_4 1_555 1_555
C39_6 C66_6 1_555 1_555
C54_4 C33_4 1_555 1_555
H30_4 C54_4 1_555 1_555
C63_6 H39_6 1_555 1_555
C66_6 C69_6 1_555 1_555
C67_6 H41_6 1_555 1_555
C69_6 C63_6 1_555 1_555
H43_6 C69_6 1_555 1_555
C75_4 C25_4 1_555 1_555
H49_4 C75_4 1_555 1_555
C77_6 C66_6 1_555 1_555
H51_6 C77_6 1_555 1_555
Cd20 N1_4 1_555 1_555
Cd24 N43_6 1_555 1_555
N1_4 C25_4 1_555 1_555
N2_4 C16_4 1_555 1_555
N116_2 N2_4 1_555 1_555
N118_4 N116_2 1_555 1_555
N5_4 C16_4 1_555 1_555
N128_2 C23_4 1_555 1_555
N42_6 C39_6 1_555 1_555
N43_6 C63_6 1_555 1_555
C88_4 C86_4 1_555 1_555
C90_4 C99_4 1_555 1_555
C92_4 C88_4 1_555 1_555
H59_4 C92_4 1_555 1_555
C96_4 C86_4 1_555 1_555
H62_4 C96_4 1_555 1_555
C98_4 H64_4 1_555 1_555
C99_4 C105_4 1_555 1_555
C105_4 H66_4 1_555 1_555
C107_4 C92_4 1_555 1_555
H68_4 C107_4 1_555 1_555
C125_4 C105_4 1_555 1_555
H79_4 C125_4 1_555 1_555
C137_4 C98_4 1_555 1_555
H91_4 C137_4 1_555 1_555
Cd21 N66_4 1_555 1_555
N66_4 C98_4 1_555 1_555
N67_4 C90_4 1_555 1_555
N117_2 N67_4 1_555 1_555
N69_2 N117_2 1_555 1_555
N70_4 C90_4 1_555 1_555
N129_2 C96_4 1_555 1_555
Cd31_4 N69_2 1_555 1_555
C26_4 C75_4 1_555 1_555
C35_4 N128_2 1_555 1_555
C54_4 N1_4 1_555 1_555
C67_6 C77_6 1_555 1_555
C67_6 N43_6 1_555 1_555
N118_4 N5_4 1_555 1_555
C99_4 C137_4 1_555 1_555
C107_4 N129_2 1_555 1_555
C125_4 N66_4 1_555 1_555
N69_2 N70_4 1_555 1_555

#END
