
###############################################################################
#
# This file contains modified crystal structure data generated from the
# MOF subset of the Cambridge Structural Database (CSD) v543 
# hosted by the Cambridge Crystallographic Data Centre (CCDC).
#
# This work is licensed under the Creative Commons
# Attribution-NonCommercial-ShareAlike 4.0 International License.
# To view a copy of this license, visit
# http://creativecommons.org/licenses/by-nc-sa/4.0/
# or send a letter to
# Creative Commons, PO Box 1866, Mountain View, CA 94042, USA.
#
# CIF created using the CSD Python API on 29 September 2022
# The structure has been converted into the P1 space group
# The structure has a 3D framework
# The original CSD entry PAPKAV is in the monoclinic crystal system
# The framework has been calculated to contain at least 10.0% void space
# The void calculation uses a probe of radius 1.32A, grid spacing 0.4
# The framework is charged, counterions have been retained in the structure
#
###############################################################################

data_PAPKAV
_chemical_formula_moiety         '(C156 H124 Co8 N32 O24 4+)n'
_symmetry_cell_setting           triclinic
_symmetry_space_group_name_H-M   'P 1'
_symmetry_Int_Tables_number      1
_space_group_name_Hall           'P 1'
loop_
_symmetry_equiv_pos_site_id
_symmetry_equiv_pos_as_xyz
1 x,y,z
_cell_length_a                   17.8311(15)
_cell_length_b                   11.7676(9)
_cell_length_c                   20.1472(18)
_cell_angle_alpha                90
_cell_angle_beta                 111.685(2)
_cell_angle_gamma                90
_cell_volume                     3928.29
loop_
_atom_site_label
_atom_site_type_symbol
_atom_site_fract_x
_atom_site_fract_y
_atom_site_fract_z
N3 N 0.2560(3) 0.3348(4) 0.1853(3)
N4 N 0.3848(3) 0.3433(4) 0.2025(2)
N7 N 0.2446(3) 0.5832(4) 0.3770(3)
N8 N 0.3735(3) 0.5896(4) 0.3936(3)
H6 H 0.0135 0.1748 0.3329
C10 C 0.3315(3) 0.3046(5) 0.2272(3)
H8 H 0.3442 0.2615 0.2686
C11 C 0.3414(4) 0.4016(6) 0.1406(4)
H9 H 0.3633 0.4383 0.1111
C12 C 0.2627(4) 0.3968(7) 0.1300(4)
H10 H 0.2206 0.4294 0.0924
C13 C 0.1843(4) 0.3146(5) 0.2006(3)
C14 C 0.1169(4) 0.3824(6) 0.1661(4)
H11 H 0.1179 0.4359 0.1325
C15 C 0.0494(4) 0.3697(6) 0.1821(3)
H12 H 0.0049 0.4156 0.1591
C16 C 0.0447(4) 0.2904(5) 0.2318(3)
C17 C 0.1121(4) 0.2220(6) 0.2634(4)
H13 H 0.1107 0.1667 0.2959
C18 C 0.1807(4) 0.2336(6) 0.2483(4)
H14 H 0.2248 0.1865 0.2704
C28 C 0.3193(4) 0.6061(6) 0.4221(3)
H22 H 0.3315 0.6310 0.4687
C29 C 0.3302(4) 0.5522(6) 0.3257(4)
H23 H 0.3522 0.5333 0.2919
C30 C 0.2509(4) 0.5467(6) 0.3149(3)
H24 H 0.2092 0.5230 0.2737
C31 C 0.1714(3) 0.5917(5) 0.3923(3)
C32 C 0.1109(4) 0.5159(6) 0.3614(4)
H25 H 0.1167 0.4597 0.3312
C33 C 0.0405(4) 0.5232(6) 0.3753(4)
C34 C 0.0296(3) 0.6048(5) 0.4204(3)
C35 C 0.0933(4) 0.6796(7) 0.4495(4)
H27 H 0.0888 0.7364 0.4800
C36 C 0.1630(4) 0.6735(7) 0.4352(4)
H28 H 0.2041 0.7261 0.4552
Co3 Co 0.51200(4) 0.32792(6) 0.25050(4)
Co5 Co 0.49565(4) 0.60912(7) 0.44660(4)
N1 N 0.7643(3) 0.2738(4) 0.3070(3)
N2 N 0.6377(3) 0.2969(5) 0.2975(3)
N5 N 0.7432(3) 0.6426(4) 0.4824(3)
N6 N 0.6192(3) 0.6291(5) 0.4772(3)
O1 O 0.5124(3) 0.4101(3) 0.3459(2)
O2 O 0.5062(2) 0.4308(3) 0.45178(19)
O3 O 0.5303(2) 0.4901(3) 0.2155(2)
O4 O 0.5084(3) 0.6743(3) 0.2076(2)
O5 O 0.5129(2) 0.2607(4) 0.1508(2)
O6 O 0.5168(3) 0.2811(4) 0.0433(2)
C1 C 0.6918(4) 0.3191(6) 0.2686(4)
H1 H 0.6810 0.3609 0.2269
C2 C 0.6790(4) 0.2350(6) 0.3576(3)
H2 H 0.6568 0.2067 0.3895
C3 C 0.7567(4) 0.2210(6) 0.3639(3)
H3 H 0.7969 0.1826 0.4002
C4 C 0.8349(3) 0.2786(5) 0.2883(3)
C5 C 0.8369(4) 0.3468(7) 0.2351(4)
H4 H 0.7929 0.3931 0.2112
C6 C 0.9039(4) 0.3484(7) 0.2159(4)
H5 H 0.9033 0.3951 0.1784
C7 C 0.9718(4) 0.2827(5) 0.2505(3)
C8 C 0.9685(4) 0.2178(6) 0.3068(4)
C9 C 0.9026(4) 0.2137(6) 0.3259(4)
H7 H 0.9029 0.1680 0.3636
C19 C 0.6695(3) 0.6036(6) 0.4451(3)
H15 H 0.6554 0.5638 0.4023
C20 C 0.6630(4) 0.6871(7) 0.5371(4)
H16 H 0.6432 0.7163 0.5704
C21 C 0.7392(4) 0.6954(7) 0.5408(4)
H17 H 0.7816 0.7308 0.5767
C22 C 0.8137(3) 0.6313(6) 0.4644(3)
C23 C 0.8207(4) 0.5484(7) 0.4210(4)
H18 H 0.7788 0.4968 0.4010
C24 C 0.8914(4) 0.5402(7) 0.4060(4)
H19 H 0.8954 0.4832 0.3755
C25 C 0.9545(3) 0.6139(5) 0.4351(3)
C26 C 0.9448(4) 0.6969(6) 0.4788(4)
H20 H 0.9866 0.7483 0.4993
C27 C 0.8759(4) 0.7078(7) 0.4938(4)
H21 H 0.8713 0.7659 0.5234
H26 H 0.9992 0.4716 0.3535
C37 C 0.5098(3) 0.3710(5) 0.4007(3)
H29 H 0.5104 0.2923 0.4056
C38 C 0.5054(4) 0.5792(5) 0.2311(3)
H30 H 0.4812 0.5740 0.2647
C39 C 0.5165(4) 0.3212(6) 0.1008(3)
H31 H 0.5192 0.3997 0.1068
Co4 Co 0.48800(4) 0.82792(6) 0.24950(4)
Co6 Co 0.50435(4) 0.10912(7) 0.05340(4)
Co7 Co 0.50435(4) 0.39088(7) 0.55340(4)
O7 O 0.4938(2) 0.5692(3) 0.54822(19)
O8 O 0.4916(3) 0.1743(3) 0.2924(2)
O9 O 0.4832(3) 0.7811(4) 0.4567(2)
N5_2 N 0.2568(3) 0.1426(4) 0.0176(3)
N6_2 N 0.3808(3) 0.1291(5) 0.0228(3)
C19_2 C 0.3305(3) 0.1036(6) 0.0549(3)
H15_2 H 0.3446 0.0638 0.0977
C22_2 C 0.1863(3) 0.1313(6) 0.0356(3)
C23_2 C 0.1793(4) 0.0484(7) 0.0790(4)
C24_2 C 0.1086(4) 0.0402(7) 0.0940(4)
C25_2 C 0.0455(3) 0.1139(5) 0.0649(3)
C26_2 C 0.0552(4) 0.1969(6) 0.0212(4)
H20_2 H 0.0134 0.2483 0.0007
C27_2 C 0.1241(4) 0.2078(7) 0.0062(4)
C38_2 C 0.4946(4) 0.0792(5) 0.2689(3)
H30_2 H 0.5188 0.0740 0.2353
N10 N 0.6265(3) 0.0896(4) 0.1064(3)
C20_2 C 0.3370(4) 0.1871(7) 0.9629(4)
H16_2 H 0.3568 0.2163 0.9296
C21_2 C 0.2608(4) 0.1954(7) 0.9592(4)
H17_2 H 0.2184 0.2308 0.9233
H21_2 H 0.1287 0.2659 0.9766
O7_2 O 0.5062(2) 0.0692(3) 0.95178(19)
N1_2 N 0.2357(3) 0.7738(4) 0.1930(3)
N2_2 N 0.3623(3) 0.7969(5) 0.2025(3)
O1_2 O 0.4876(3) 0.9101(3) 0.1541(2)
O2_2 O 0.4938(2) 0.9308(3) 0.04822(19)
O3_2 O 0.4697(2) 0.9901(3) 0.2845(2)
O5_2 O 0.4871(2) 0.7607(4) 0.3492(2)
C1_2 C 0.3082(4) 0.8191(6) 0.2314(4)
H1_2 H 0.3190 0.8609 0.2731
C2_2 C 0.3210(4) 0.7350(6) 0.1424(3)
H2_2 H 0.3432 0.7067 0.1105
C3_2 C 0.2433(4) 0.7210(6) 0.1361(3)
H3_2 H 0.2031 0.6826 0.0998
C4_2 C 0.1651(3) 0.7786(5) 0.2117(3)
C5_2 C 0.1631(4) 0.8468(7) 0.2649(4)
H4_2 H 0.2071 0.8931 0.2888
C6_2 C 0.0961(4) 0.8484(7) 0.2841(4)
H5_2 H 0.0967 0.8951 0.3216
C7_2 C 0.0282(4) 0.7827(5) 0.2495(3)
C8_2 C 0.0315(4) 0.7178(6) 0.1932(4)
C9_2 C 0.0974(4) 0.7137(6) 0.1741(4)
H7_2 H 0.0971 0.6680 0.1364
H18_2 H 0.2212 0.9968 0.0990
H19_2 H 0.1046 0.9832 0.1245
H26_2 H 0.0008 0.9716 0.1465
C37_2 C 0.4902(3) 0.8710(5) 0.0993(3)
H29_2 H 0.4896 0.7923 0.0944
C39_2 C 0.4835(4) 0.8212(6) 0.3992(3)
H31_2 H 0.4808 0.8997 0.3932
N9 N 0.6152(3) 0.8433(4) 0.2975(2)
Co7_2 Co 0.49565(4) 0.89088(7) 0.94660(4)
N7_2 N 0.7554(3) 0.0832(4) 0.1230(3)
C28_2 C 0.6807(4) 0.1061(6) 0.0779(3)
H22_2 H 0.6685 0.1310 0.0313
C29_2 C 0.6698(4) 0.0522(6) 0.1743(4)
H23_2 H 0.6478 0.0333 0.2081
C30_2 C 0.7491(4) 0.0467(6) 0.1851(3)
H24_2 H 0.7908 0.0230 0.2263
C31_2 C 0.8286(3) 0.0917(5) 0.1077(3)
C32_2 C 0.8891(4) 0.0159(6) 0.1386(4)
C33_2 C 0.9595(4) 0.0232(6) 0.1247(4)
C34_2 C 0.9704(3) 0.1048(5) 0.0796(3)
C35_2 C 0.9067(4) 0.1796(7) 0.0505(4)
H27_2 H 0.9112 0.2364 0.0200
C36_2 C 0.8370(4) 0.1735(7) 0.0648(4)
H28_2 H 0.7959 0.2261 0.0448
N3_2 N 0.7440(3) 0.8348(4) 0.3147(3)
H6_2 H 0.9865 0.6748 0.1671
C10_2 C 0.6685(3) 0.8046(5) 0.2728(3)
H8_2 H 0.6558 0.7615 0.2314
C11_2 C 0.6586(4) 0.9016(6) 0.3594(4)
H9_2 H 0.6367 0.9383 0.3889
C12_2 C 0.7373(4) 0.8968(7) 0.3700(4)
H10_2 H 0.7794 0.9294 0.4076
C13_2 C 0.8157(4) 0.8146(5) 0.2994(3)
C14_2 C 0.8831(4) 0.8824(6) 0.3339(4)
H11_2 H 0.8821 0.9359 0.3675
C15_2 C 0.9506(4) 0.8697(6) 0.3179(3)
H12_2 H 0.9951 0.9156 0.3409
C16_2 C 0.9553(4) 0.7904(5) 0.2682(3)
C17_2 C 0.8879(4) 0.7220(6) 0.2366(4)
H13_2 H 0.8893 0.6667 0.2041
C18_2 C 0.8193(4) 0.7336(6) 0.2517(4)
H14_2 H 0.7752 0.6865 0.2296
H25_2 H 0.8833 0.9597 0.1688
Co1 Co 0.48800(4) 0.67208(6) 0.74950(4)
N1_3 N 0.2357(3) 0.7262(4) 0.6930(3)
N2_3 N 0.3623(3) 0.7031(5) 0.7025(3)
N5_3 N 0.2568(3) 0.3574(4) 0.5176(3)
N6_3 N 0.3808(3) 0.3709(5) 0.5228(3)
O1_3 O 0.4876(3) 0.5899(3) 0.6541(2)
O3_3 O 0.4697(2) 0.5099(3) 0.7845(2)
O4_2 O 0.4916(3) 0.3257(3) 0.7924(2)
O5_3 O 0.4871(2) 0.7393(4) 0.8492(2)
O6_2 O 0.4832(3) 0.7189(4) 0.9567(2)
C1_3 C 0.3082(4) 0.6809(6) 0.7314(4)
H1_3 H 0.3190 0.6391 0.7731
C2_3 C 0.3210(4) 0.7650(6) 0.6424(3)
H2_3 H 0.3432 0.7933 0.6105
C3_3 C 0.2433(4) 0.7790(6) 0.6361(3)
H3_3 H 0.2031 0.8174 0.5998
C4_3 C 0.1651(3) 0.7214(5) 0.7117(3)
C5_3 C 0.1631(4) 0.6532(7) 0.7649(4)
H4_3 H 0.2071 0.6069 0.7888
C6_3 C 0.0961(4) 0.6516(7) 0.7841(4)
H5_3 H 0.0967 0.6049 0.8216
C7_3 C 0.0282(4) 0.7173(5) 0.7495(3)
C8_3 C 0.0315(4) 0.7822(6) 0.6932(4)
C9_3 C 0.0974(4) 0.7863(6) 0.6741(4)
H7_3 H 0.0971 0.8320 0.6364
C19_3 C 0.3305(3) 0.3964(6) 0.5549(3)
H15_3 H 0.3446 0.4362 0.5977
C20_3 C 0.3370(4) 0.3129(7) 0.4629(4)
H16_3 H 0.3568 0.2837 0.4296
C21_3 C 0.2608(4) 0.3046(7) 0.4592(4)
H17_3 H 0.2184 0.2692 0.4233
C22_3 C 0.1863(3) 0.3687(6) 0.5356(3)
C23_3 C 0.1793(4) 0.4516(7) 0.5790(4)
H18_3 H 0.2212 0.5032 0.5990
C24_3 C 0.1086(4) 0.4598(7) 0.5940(4)
H19_3 H 0.1046 0.5168 0.6245
C25_3 C 0.0455(3) 0.3861(5) 0.5649(3)
C26_3 C 0.0552(4) 0.3031(6) 0.5212(4)
H20_3 H 0.0134 0.2517 0.5007
C27_3 C 0.1241(4) 0.2922(7) 0.5062(4)
H21_3 H 0.1287 0.2341 0.4766
H26_3 H 0.0008 0.5284 0.6465
C37_3 C 0.4902(3) 0.6290(5) 0.5993(3)
H29_3 H 0.4896 0.7077 0.5944
C38_3 C 0.4946(4) 0.4208(5) 0.7689(3)
H30_3 H 0.5188 0.4260 0.7353
C39_3 C 0.4835(4) 0.6788(6) 0.8992(3)
H31_3 H 0.4808 0.6003 0.8932
Co4_2 Co 0.51200(4) 0.17208(6) 0.75050(4)
N9_2 N 0.6152(3) 0.6567(4) 0.7975(2)
N10_2 N 0.6265(3) 0.4104(4) 0.6064(3)
O8_2 O 0.5084(3) 0.8257(3) 0.7076(2)
O9_2 O 0.5168(3) 0.2189(4) 0.5433(2)
N3_3 N 0.7440(3) 0.6652(4) 0.8147(3)
N7_3 N 0.7554(3) 0.4168(4) 0.6230(3)
H6_3 H 0.9865 0.8252 0.6671
C10_3 C 0.6685(3) 0.6954(5) 0.7728(3)
H8_3 H 0.6558 0.7385 0.7314
C11_3 C 0.6586(4) 0.5984(6) 0.8594(4)
H9_3 H 0.6367 0.5617 0.8889
C12_3 C 0.7373(4) 0.6032(7) 0.8700(4)
H10_3 H 0.7794 0.5706 0.9076
C13_3 C 0.8157(4) 0.6854(5) 0.7994(3)
C14_3 C 0.8831(4) 0.6176(6) 0.8339(4)
H11_3 H 0.8821 0.5641 0.8675
C15_3 C 0.9506(4) 0.6303(6) 0.8179(3)
H12_3 H 0.9951 0.5844 0.8409
C16_3 C 0.9553(4) 0.7096(5) 0.7682(3)
C17_3 C 0.8879(4) 0.7780(6) 0.7366(4)
H13_3 H 0.8893 0.8333 0.7041
C18_3 C 0.8193(4) 0.7664(6) 0.7517(4)
H14_3 H 0.7752 0.8135 0.7296
C28_3 C 0.6807(4) 0.3939(6) 0.5779(3)
H22_3 H 0.6685 0.3690 0.5313
C29_3 C 0.6698(4) 0.4478(6) 0.6743(4)
H23_3 H 0.6478 0.4667 0.7081
C30_3 C 0.7491(4) 0.4533(6) 0.6851(3)
H24_3 H 0.7908 0.4770 0.7263
C31_3 C 0.8286(3) 0.4083(5) 0.6077(3)
C32_3 C 0.8891(4) 0.4841(6) 0.6386(4)
H25_3 H 0.8833 0.5403 0.6688
C33_3 C 0.9595(4) 0.4768(6) 0.6247(4)
C34_3 C 0.9704(3) 0.3952(5) 0.5796(3)
C35_3 C 0.9067(4) 0.3204(7) 0.5505(4)
H27_3 H 0.9112 0.2636 0.5200
C36_3 C 0.8370(4) 0.3265(7) 0.5648(4)
H28_3 H 0.7959 0.2739 0.5448
N3_4 N 0.2560(3) 0.1652(4) 0.6853(3)
N4_2 N 0.3848(3) 0.1567(4) 0.7025(2)
H6_4 H 0.0135 0.3252 0.8329
C10_4 C 0.3315(3) 0.1954(5) 0.7272(3)
H8_4 H 0.3442 0.2385 0.7686
C11_4 C 0.3414(4) 0.0984(6) 0.6406(4)
H9_4 H 0.3633 0.0617 0.6111
C12_4 C 0.2627(4) 0.1032(7) 0.6300(4)
H10_4 H 0.2206 0.0706 0.5924
C13_4 C 0.1843(4) 0.1854(5) 0.7006(3)
C14_4 C 0.1169(4) 0.1176(6) 0.6661(4)
H11_4 H 0.1179 0.0641 0.6325
C15_4 C 0.0494(4) 0.1303(6) 0.6821(3)
H12_4 H 0.0049 0.0844 0.6591
C16_4 C 0.0447(4) 0.2096(5) 0.7318(3)
C17_4 C 0.1121(4) 0.2780(6) 0.7634(4)
H13_4 H 0.1107 0.3333 0.7959
C18_4 C 0.1807(4) 0.2664(6) 0.7483(4)
H14_4 H 0.2248 0.3135 0.7704
H25_4 H 0.1167 0.0403 0.8312
N7_4 N 0.2446(3) 0.9168(4) 0.8770(3)
N8_2 N 0.3735(3) 0.9104(4) 0.8936(3)
C28_4 C 0.3193(4) 0.8939(6) 0.9221(3)
H22_4 H 0.3315 0.8690 0.9687
C29_4 C 0.3302(4) 0.9478(6) 0.8257(4)
H23_4 H 0.3522 0.9667 0.7919
C30_4 C 0.2509(4) 0.9533(6) 0.8149(3)
H24_4 H 0.2092 0.9770 0.7737
C31_4 C 0.1714(3) 0.9083(5) 0.8923(3)
C32_4 C 0.1109(4) 0.9841(6) 0.8614(4)
C33_4 C 0.0405(4) 0.9768(6) 0.8753(4)
C34_4 C 0.0296(3) 0.8952(5) 0.9204(3)
C35_4 C 0.0933(4) 0.8204(7) 0.9495(4)
H27_4 H 0.0888 0.7636 0.9800
C36_4 C 0.1630(4) 0.8265(7) 0.9352(4)
H28_4 H 0.2041 0.7739 0.9552
N1_4 N 0.7643(3) 0.2262(4) 0.8070(3)
N2_4 N 0.6377(3) 0.2031(5) 0.7975(3)
O1_4 O 0.5124(3) 0.0899(3) 0.8459(2)
O3_4 O 0.5303(2) 0.0099(3) 0.7155(2)
O5_4 O 0.5129(2) 0.2393(4) 0.6508(2)
C1_4 C 0.6918(4) 0.1809(6) 0.7686(4)
H1_4 H 0.6810 0.1391 0.7269
C2_4 C 0.6790(4) 0.2650(6) 0.8576(3)
H2_4 H 0.6568 0.2933 0.8895
C3_4 C 0.7567(4) 0.2790(6) 0.8639(3)
H3_4 H 0.7969 0.3174 0.9002
C4_4 C 0.8349(3) 0.2214(5) 0.7883(3)
C5_4 C 0.8369(4) 0.1532(7) 0.7351(4)
H4_4 H 0.7929 0.1069 0.7112
C6_4 C 0.9039(4) 0.1516(7) 0.7159(4)
H5_4 H 0.9033 0.1049 0.6784
C7_4 C 0.9718(4) 0.2173(5) 0.7505(3)
C8_4 C 0.9685(4) 0.2822(6) 0.8068(4)
C9_4 C 0.9026(4) 0.2863(6) 0.8259(4)
H7_4 H 0.9029 0.3320 0.8636
H18_4 H 0.7788 0.0032 0.9010
H19_4 H 0.8954 0.0168 0.8755
H26_4 H 0.9992 0.0284 0.8535
C37_4 C 0.5098(3) 0.1290(5) 0.9007(3)
H29_4 H 0.5104 0.2077 0.9056
C39_4 C 0.5165(4) 0.1788(6) 0.6008(3)
H31_4 H 0.5192 0.1003 0.6068
C20_4 C 0.6630(4) 0.8129(7) 0.0371(4)
H16_4 H 0.6432 0.7837 0.0704
C21_4 C 0.7392(4) 0.8046(7) 0.0408(4)
H17_4 H 0.7816 0.7692 0.0767
H21_4 H 0.8713 0.7341 0.0234
N5_4 N 0.7432(3) 0.8574(4) 0.9824(3)
N6_4 N 0.6192(3) 0.8709(5) 0.9772(3)
C19_4 C 0.6695(3) 0.8964(6) 0.9451(3)
H15_4 H 0.6554 0.9362 0.9023
C22_4 C 0.8137(3) 0.8687(6) 0.9644(3)
C23_4 C 0.8207(4) 0.9516(7) 0.9210(4)
C24_4 C 0.8914(4) 0.9598(7) 0.9060(4)
C25_4 C 0.9545(3) 0.8861(5) 0.9351(3)
C26_4 C 0.9448(4) 0.8031(6) 0.9788(4)
H20_4 H 0.9866 0.7517 0.9993
C27_4 C 0.8759(4) 0.7922(7) 0.9938(4)
C38_4 C 0.5054(4) 0.9208(5) 0.7311(3)
H30_4 H 0.4812 0.9260 0.7647
loop_
_geom_bond_atom_site_label_1
_geom_bond_atom_site_label_2
_geom_bond_site_symmetry_1
_geom_bond_site_symmetry_2
N3 C10 1_555 1_555
N4 C10 1_555 1_555
N7 C28 1_555 1_555
N8 C28 1_555 1_555
C10 H8 1_555 1_555
C11 N4 1_555 1_555
H9 C11 1_555 1_555
C12 N3 1_555 1_555
H10 C12 1_555 1_555
C13 N3 1_555 1_555
C14 C13 1_555 1_555
H11 C14 1_555 1_555
C15 C14 1_555 1_555
H12 C15 1_555 1_555
C17 C16 1_555 1_555
H13 C17 1_555 1_555
C18 C13 1_555 1_555
H14 C18 1_555 1_555
C28 H22 1_555 1_555
C29 N8 1_555 1_555
H23 C29 1_555 1_555
C30 N7 1_555 1_555
H24 C30 1_555 1_555
C31 N7 1_555 1_555
C32 C31 1_555 1_555
H25 C32 1_555 1_555
C33 C32 1_555 1_555
C35 C34 1_555 1_555
H27 C35 1_555 1_555
C36 C31 1_555 1_555
H28 C36 1_555 1_555
Co3 N4 1_555 1_555
Co5 N8 1_555 1_555
C11 C12 1_555 1_555
C15 C16 1_555 1_555
C17 C18 1_555 1_555
C29 C30 1_555 1_555
C33 C34 1_555 1_555
C35 C36 1_555 1_555
Co3 N2 1_555 1_555
Co5 N6 1_555 1_555
N1 C1 1_555 1_555
N2 C1 1_555 1_555
N5 C19 1_555 1_555
N6 C19 1_555 1_555
O1 Co3 1_555 1_555
O2 Co5 1_555 1_555
O3 Co3 1_555 1_555
O4 C38 1_555 1_555
O5 Co3 1_555 1_555
O6 C39 1_555 1_555
C1 H1 1_555 1_555
C2 N2 1_555 1_555
H2 C2 1_555 1_555
C3 N1 1_555 1_555
H3 C3 1_555 1_555
C4 N1 1_555 1_555
C5 C4 1_555 1_555
H4 C5 1_555 1_555
C6 C5 1_555 1_555
H5 C6 1_555 1_555
C7 C6 1_555 1_555
C8 C7 1_555 1_555
C9 C4 1_555 1_555
H7 C9 1_555 1_555
C19 H15 1_555 1_555
C20 N6 1_555 1_555
H16 C20 1_555 1_555
C21 N5 1_555 1_555
H17 C21 1_555 1_555
C22 N5 1_555 1_555
C23 C22 1_555 1_555
H18 C23 1_555 1_555
C24 C23 1_555 1_555
H19 C24 1_555 1_555
C25 C24 1_555 1_555
C26 C25 1_555 1_555
H20 C26 1_555 1_555
C27 C22 1_555 1_555
H21 C27 1_555 1_555
C37 O1 1_555 1_555
H29 C37 1_555 1_555
C38 O3 1_555 1_555
H30 C38 1_555 1_555
C39 O5 1_555 1_555
H31 C39 1_555 1_555
Co4 O4 1_555 1_555
Co6 O6 1_555 1_555
Co7 O2 1_555 1_555
O7 Co5 1_555 1_555
O8 Co3 1_555 1_555
O9 Co5 1_555 1_555
O2 C37 1_555 1_555
C2 C3 1_555 1_555
C8 C9 1_555 1_555
C20 C21 1_555 1_555
C26 C27 1_555 1_555
Co7 O7 1_555 1_555
Co6 N6_2 1_555 1_555
N5_2 C19_2 1_555 1_555
N6_2 C19_2 1_555 1_555
O8 C38_2 1_555 1_555
C19_2 H15_2 1_555 1_555
C22_2 N5_2 1_555 1_555
C23_2 C22_2 1_555 1_555
C24_2 C23_2 1_555 1_555
C25_2 C24_2 1_555 1_555
C26_2 C25_2 1_555 1_555
H20_2 C26_2 1_555 1_555
C27_2 C22_2 1_555 1_555
H30_2 C38_2 1_555 1_555
N10 Co6 1_555 1_555
C26_2 C27_2 1_555 1_555
H16_2 C20_2 1_555 1_555
H17_2 C21_2 1_555 1_555
C20_2 C21_2 1_555 1_555
Co4 N2_2 1_555 1_555
N1_2 C1_2 1_555 1_555
N2_2 C1_2 1_555 1_555
O1_2 Co4 1_555 1_555
O3_2 Co4 1_555 1_555
O5_2 Co4 1_555 1_555
O9 C39_2 1_555 1_555
C1_2 H1_2 1_555 1_555
C2_2 N2_2 1_555 1_555
H2_2 C2_2 1_555 1_555
C3_2 N1_2 1_555 1_555
H3_2 C3_2 1_555 1_555
C4_2 N1_2 1_555 1_555
C5_2 C4_2 1_555 1_555
H4_2 C5_2 1_555 1_555
C6_2 C5_2 1_555 1_555
H5_2 C6_2 1_555 1_555
C7_2 C6_2 1_555 1_555
C8_2 C7_2 1_555 1_555
C9_2 C4_2 1_555 1_555
H7_2 C9_2 1_555 1_555
C37_2 O1_2 1_555 1_555
H29_2 C37_2 1_555 1_555
C39_2 O5_2 1_555 1_555
H31_2 C39_2 1_555 1_555
N9 Co4 1_555 1_555
O2_2 C37_2 1_555 1_555
C2_2 C3_2 1_555 1_555
C8_2 C9_2 1_555 1_555
N7_2 C28_2 1_555 1_555
N10 C28_2 1_555 1_555
C28_2 H22_2 1_555 1_555
C29_2 N10 1_555 1_555
H23_2 C29_2 1_555 1_555
C30_2 N7_2 1_555 1_555
H24_2 C30_2 1_555 1_555
C31_2 N7_2 1_555 1_555
C32_2 C31_2 1_555 1_555
C33_2 C32_2 1_555 1_555
C35_2 C34_2 1_555 1_555
H27_2 C35_2 1_555 1_555
C36_2 C31_2 1_555 1_555
H28_2 C36_2 1_555 1_555
C29_2 C30_2 1_555 1_555
C33_2 C34_2 1_555 1_555
C35_2 C36_2 1_555 1_555
N3_2 C10_2 1_555 1_555
N9 C10_2 1_555 1_555
C10_2 H8_2 1_555 1_555
C11_2 N9 1_555 1_555
H9_2 C11_2 1_555 1_555
C12_2 N3_2 1_555 1_555
H10_2 C12_2 1_555 1_555
C13_2 N3_2 1_555 1_555
C14_2 C13_2 1_555 1_555
H11_2 C14_2 1_555 1_555
C15_2 C14_2 1_555 1_555
H12_2 C15_2 1_555 1_555
C17_2 C16_2 1_555 1_555
H13_2 C17_2 1_555 1_555
C18_2 C13_2 1_555 1_555
H14_2 C18_2 1_555 1_555
C11_2 C12_2 1_555 1_555
C15_2 C16_2 1_555 1_555
C17_2 C18_2 1_555 1_555
Co1 N2_3 1_555 1_555
Co7 N6_3 1_555 1_555
N1_3 C1_3 1_555 1_555
N2_3 C1_3 1_555 1_555
N5_3 C19_3 1_555 1_555
N6_3 C19_3 1_555 1_555
O1_3 Co1 1_555 1_555
O3_3 Co1 1_555 1_555
O4_2 C38_3 1_555 1_555
O5_3 Co1 1_555 1_555
O6_2 C39_3 1_555 1_555
C1_3 H1_3 1_555 1_555
C2_3 N2_3 1_555 1_555
H2_3 C2_3 1_555 1_555
C3_3 N1_3 1_555 1_555
H3_3 C3_3 1_555 1_555
C4_3 N1_3 1_555 1_555
C5_3 C4_3 1_555 1_555
H4_3 C5_3 1_555 1_555
C6_3 C5_3 1_555 1_555
H5_3 C6_3 1_555 1_555
C7_3 C6_3 1_555 1_555
C8_3 C7_3 1_555 1_555
C9_3 C4_3 1_555 1_555
H7_3 C9_3 1_555 1_555
C19_3 H15_3 1_555 1_555
C20_3 N6_3 1_555 1_555
H16_3 C20_3 1_555 1_555
C21_3 N5_3 1_555 1_555
H17_3 C21_3 1_555 1_555
C22_3 N5_3 1_555 1_555
C23_3 C22_3 1_555 1_555
H18_3 C23_3 1_555 1_555
C24_3 C23_3 1_555 1_555
H19_3 C24_3 1_555 1_555
C25_3 C24_3 1_555 1_555
C26_3 C25_3 1_555 1_555
H20_3 C26_3 1_555 1_555
C27_3 C22_3 1_555 1_555
H21_3 C27_3 1_555 1_555
C37_3 O1_3 1_555 1_555
H29_3 C37_3 1_555 1_555
C38_3 O3_3 1_555 1_555
H30_3 C38_3 1_555 1_555
C39_3 O5_3 1_555 1_555
H31_3 C39_3 1_555 1_555
Co4_2 O4_2 1_555 1_555
Co7_2 O6_2 1_555 1_555
N9_2 Co1 1_555 1_555
N10_2 Co7 1_555 1_555
O8_2 Co1 1_555 1_555
O9_2 Co7 1_555 1_555
O7 C37_3 1_555 1_555
C2_3 C3_3 1_555 1_555
C8_3 C9_3 1_555 1_555
C20_3 C21_3 1_555 1_555
C26_3 C27_3 1_555 1_555
N3_3 C10_3 1_555 1_555
N9_2 C10_3 1_555 1_555
N7_3 C28_3 1_555 1_555
N10_2 C28_3 1_555 1_555
C10_3 H8_3 1_555 1_555
C11_3 N9_2 1_555 1_555
H9_3 C11_3 1_555 1_555
C12_3 N3_3 1_555 1_555
H10_3 C12_3 1_555 1_555
C13_3 N3_3 1_555 1_555
C14_3 C13_3 1_555 1_555
H11_3 C14_3 1_555 1_555
C15_3 C14_3 1_555 1_555
H12_3 C15_3 1_555 1_555
C17_3 C16_3 1_555 1_555
H13_3 C17_3 1_555 1_555
C18_3 C13_3 1_555 1_555
H14_3 C18_3 1_555 1_555
C28_3 H22_3 1_555 1_555
C29_3 N10_2 1_555 1_555
H23_3 C29_3 1_555 1_555
C30_3 N7_3 1_555 1_555
H24_3 C30_3 1_555 1_555
C31_3 N7_3 1_555 1_555
C32_3 C31_3 1_555 1_555
H25_3 C32_3 1_555 1_555
C33_3 C32_3 1_555 1_555
C35_3 C34_3 1_555 1_555
H27_3 C35_3 1_555 1_555
C36_3 C31_3 1_555 1_555
H28_3 C36_3 1_555 1_555
C11_3 C12_3 1_555 1_555
C15_3 C16_3 1_555 1_555
C17_3 C18_3 1_555 1_555
C29_3 C30_3 1_555 1_555
C33_3 C34_3 1_555 1_555
C35_3 C36_3 1_555 1_555
N3_4 C10_4 1_555 1_555
N4_2 C10_4 1_555 1_555
C10_4 H8_4 1_555 1_555
C11_4 N4_2 1_555 1_555
H9_4 C11_4 1_555 1_555
C12_4 N3_4 1_555 1_555
H10_4 C12_4 1_555 1_555
C13_4 N3_4 1_555 1_555
C14_4 C13_4 1_555 1_555
H11_4 C14_4 1_555 1_555
C15_4 C14_4 1_555 1_555
H12_4 C15_4 1_555 1_555
C17_4 C16_4 1_555 1_555
H13_4 C17_4 1_555 1_555
C18_4 C13_4 1_555 1_555
H14_4 C18_4 1_555 1_555
Co4_2 N4_2 1_555 1_555
C11_4 C12_4 1_555 1_555
C15_4 C16_4 1_555 1_555
C17_4 C18_4 1_555 1_555
N7_4 C28_4 1_555 1_555
N8_2 C28_4 1_555 1_555
C28_4 H22_4 1_555 1_555
C29_4 N8_2 1_555 1_555
H23_4 C29_4 1_555 1_555
C30_4 N7_4 1_555 1_555
H24_4 C30_4 1_555 1_555
C31_4 N7_4 1_555 1_555
C32_4 C31_4 1_555 1_555
C33_4 C32_4 1_555 1_555
C35_4 C34_4 1_555 1_555
H27_4 C35_4 1_555 1_555
C36_4 C31_4 1_555 1_555
H28_4 C36_4 1_555 1_555
Co7_2 N8_2 1_555 1_555
C29_4 C30_4 1_555 1_555
C33_4 C34_4 1_555 1_555
C35_4 C36_4 1_555 1_555
Co4_2 N2_4 1_555 1_555
N1_4 C1_4 1_555 1_555
N2_4 C1_4 1_555 1_555
O1_4 Co4_2 1_555 1_555
O3_4 Co4_2 1_555 1_555
O5_4 Co4_2 1_555 1_555
O9_2 C39_4 1_555 1_555
C1_4 H1_4 1_555 1_555
C2_4 N2_4 1_555 1_555
H2_4 C2_4 1_555 1_555
C3_4 N1_4 1_555 1_555
H3_4 C3_4 1_555 1_555
C4_4 N1_4 1_555 1_555
C5_4 C4_4 1_555 1_555
H4_4 C5_4 1_555 1_555
C6_4 C5_4 1_555 1_555
H5_4 C6_4 1_555 1_555
C7_4 C6_4 1_555 1_555
C8_4 C7_4 1_555 1_555
C9_4 C4_4 1_555 1_555
H7_4 C9_4 1_555 1_555
C37_4 O1_4 1_555 1_555
H29_4 C37_4 1_555 1_555
C39_4 O5_4 1_555 1_555
H31_4 C39_4 1_555 1_555
O7_2 C37_4 1_555 1_555
C2_4 C3_4 1_555 1_555
C8_4 C9_4 1_555 1_555
H16_4 C20_4 1_555 1_555
H17_4 C21_4 1_555 1_555
C20_4 C21_4 1_555 1_555
Co7_2 N6_4 1_555 1_555
N5_4 C19_4 1_555 1_555
N6_4 C19_4 1_555 1_555
O8_2 C38_4 1_555 1_555
C19_4 H15_4 1_555 1_555
C22_4 N5_4 1_555 1_555
C23_4 C22_4 1_555 1_555
C24_4 C23_4 1_555 1_555
C25_4 C24_4 1_555 1_555
C26_4 C25_4 1_555 1_555
H20_4 C26_4 1_555 1_555
C27_4 C22_4 1_555 1_555
H30_4 C38_4 1_555 1_555
C26_4 C27_4 1_555 1_555

#END
