
###############################################################################
#
# This file contains modified crystal structure data generated from the
# MOF subset of the Cambridge Structural Database (CSD) v543 
# hosted by the Cambridge Crystallographic Data Centre (CCDC).
#
# This work is licensed under the Creative Commons
# Attribution-NonCommercial-ShareAlike 4.0 International License.
# To view a copy of this license, visit
# http://creativecommons.org/licenses/by-nc-sa/4.0/
# or send a letter to
# Creative Commons, PO Box 1866, Mountain View, CA 94042, USA.
#
# CIF created using the CSD Python API on 29 September 2022
# The structure has been converted into the P1 space group
# The structure has a 3D framework
# The original CSD entry PAPLUQ is in the orthorhombic crystal system
# The framework has been calculated to contain at least 10.0% void space
# The void calculation uses a probe of radius 1.32A, grid spacing 0.4
#
###############################################################################

data_PAPLUQ
_chemical_formula_moiety         '(C144 H88 Cu16 N40 O32 S8)n'
_symmetry_cell_setting           triclinic
_symmetry_space_group_name_H-M   'P 1'
_symmetry_Int_Tables_number      1
_space_group_name_Hall           'P 1'
loop_
_symmetry_equiv_pos_site_id
_symmetry_equiv_pos_as_xyz
1 x,y,z
_cell_length_a                   19.2980(12)
_cell_length_b                   28.0498(17)
_cell_length_c                   11.5659(7)
_cell_angle_alpha                90
_cell_angle_beta                 90
_cell_angle_gamma                90
_cell_volume                     6260.68
loop_
_atom_site_label
_atom_site_type_symbol
_atom_site_fract_x
_atom_site_fract_y
_atom_site_fract_z
Cu1 Cu 0.48353(5) 0.47952(3) 0.17886(11)
Cu2 Cu 0.50106(7) 0.76094(3) 0.66757(7)
S1 S 0.24361(9) 0.49604(7) 0.28227(16)
O1 O 0.3869(2) 0.47668(15) 0.2170(4)
O2 O 0.4261(2) 0.45624(19) 0.3917(4)
N1 N 0.5129(3) 0.90923(19) 0.3561(5)
N2 N 0.4856(3) 0.54626(18) 0.2414(5)
O3 O 0.1015(3) 0.5238(2) 0.2671(6)
N3 N 0.4935(4) 0.72742(19) 0.3272(5)
N4 N 0.5022(4) 0.73979(18) 0.5178(5)
O4 O 0.0684(3) 0.5031(2) 0.4468(6)
N5 N 0.4976(4) 0.69108(19) 0.5002(5)
H1 H 0.4971 0.6692 0.5522
C1 C 0.5005(4) 0.7596(2) 0.4095(5)
C2 C 0.3787(3) 0.4679(2) 0.3244(6)
C3 C 0.3077(3) 0.4738(2) 0.3698(6)
C4 C 0.4605(4) 0.6294(2) 0.2266(6)
H2 H 0.4430 0.6545 0.1832
C5 C 0.4941(4) 0.6850(2) 0.3841(5)
C6 C 0.5051(4) 0.8114(2) 0.3929(5)
C7 C 0.4903(4) 0.6373(2) 0.3349(5)
C8 C 0.4753(5) 0.8813(3) 0.2886(6)
H3 H 0.4509 0.8954 0.2283
C9 C 0.5136(4) 0.5542(2) 0.3448(6)
H4 H 0.5326 0.5287 0.3851
C10 C 0.5446(4) 0.8403(2) 0.4616(7)
H5 H 0.5701 0.8274 0.5222
C11 C 0.1846(3) 0.4929(3) 0.3906(7)
C12 C 0.5156(5) 0.5988(2) 0.3940(7)
H6 H 0.5341 0.6028 0.4676
C13 C 0.5466(4) 0.8889(2) 0.4409(7)
H7 H 0.5732 0.9079 0.4895
C14 C 0.4578(4) 0.5831(2) 0.1856(7)
H8 H 0.4355 0.5775 0.1156
C15 C 0.2834(4) 0.4650(3) 0.4798(6)
H9 H 0.3104 0.4531 0.5397
C16 C 0.4697(5) 0.8331(2) 0.3017(6)
H10 H 0.4429 0.8151 0.2510
C17 C 0.2121(4) 0.4764(4) 0.4905(7)
H11 H 0.1870 0.4729 0.5587
C18 C 0.1131(4) 0.5084(3) 0.3639(5)
Cu3 Cu 0.51647(5) 0.97952(3) 0.32114(11)
Cu5 Cu 0.50106(7) 0.73906(3) 0.16757(7)
N6 N 0.4871(3) 0.40923(19) 0.1439(5)
O5 O 0.6015(3) 0.4762(2) 0.2329(6)
N7 N 0.4935(4) 0.77258(19) 0.8272(5)
O6 O 0.5684(3) 0.4969(2) 0.0532(6)
Cu4 Cu 0.98353(5) 0.52048(3) 0.32114(11)
Cu1_2 Cu 0.01647(5) 0.02048(3) 0.17886(11)
S1_2 S 0.25639(9) 0.00396(7) 0.28227(16)
O1_2 O 0.1131(2) 0.02332(15) 0.2170(4)
O2_2 O 0.0739(2) 0.04376(19) 0.3917(4)
C2_2 C 0.1213(3) 0.0321(2) 0.3244(6)
C3_2 C 0.1923(3) 0.0262(2) 0.3698(6)
C11_2 C 0.3154(3) 0.0071(3) 0.3906(7)
C15_2 C 0.2166(4) 0.0350(3) 0.4798(6)
H9_2 H 0.1896 0.0469 0.5397
C17_2 C 0.2879(4) 0.0236(4) 0.4905(7)
H11_2 H 0.3130 0.0271 0.5587
N6_2 N 0.0129(3) 0.09077(19) 0.1439(5)
N2_2 N 0.0144(3) 0.95374(18) 0.2414(5)
O3_2 O 0.3985(3) 0.9762(2) 0.2671(6)
N3_2 N 0.0065(4) 0.77258(19) 0.3272(5)
O4_2 O 0.4316(3) 0.9969(2) 0.4468(6)
N5_2 N 0.0024(4) 0.80892(19) 0.5002(5)
H1_2 H 0.0029 0.8308 0.5522
C4_2 C 0.0395(4) 0.8706(2) 0.2266(6)
H2_2 H 0.0570 0.8455 0.1832
C5_2 C 0.0059(4) 0.8150(2) 0.3841(5)
C7_2 C 0.0097(4) 0.8627(2) 0.3349(5)
C8_2 C 0.0247(5) 0.6187(3) 0.2886(6)
H3_2 H 0.0491 0.6046 0.2283
C14_2 C 0.0422(4) 0.9169(2) 0.1856(7)
H8_2 H 0.0645 0.9225 0.1156
C16_2 C 0.0303(5) 0.6669(2) 0.3017(6)
H10_2 H 0.0571 0.6849 0.2510
C18_2 C 0.3869(4) 0.9916(3) 0.3639(5)
N7_2 N 0.0065(4) 0.72742(19) 0.8272(5)
O5_2 O 0.8985(3) 0.0238(2) 0.2329(6)
O6_2 O 0.9316(3) 0.0031(2) 0.0532(6)
Cu2_2 Cu 0.99894(7) 0.73906(3) 0.66757(7)
N1_2 N 0.9871(3) 0.59077(19) 0.3561(5)
N4_2 N 0.9978(4) 0.76021(18) 0.5178(5)
C1_2 C 0.9995(4) 0.7404(2) 0.4095(5)
C6_2 C 0.9949(4) 0.6886(2) 0.3929(5)
C9_2 C 0.9864(4) 0.9458(2) 0.3448(6)
H4_2 H 0.9674 0.9713 0.3851
C10_2 C 0.9554(4) 0.6597(2) 0.4616(7)
H5_2 H 0.9299 0.6726 0.5222
C12_2 C 0.9844(5) 0.9012(2) 0.3940(7)
H6_2 H 0.9659 0.8972 0.4676
C13_2 C 0.9534(4) 0.6111(2) 0.4409(7)
H7_2 H 0.9268 0.5921 0.4895
Cu5_2 Cu 0.99894(7) 0.76094(3) 0.16757(7)
N2_3 N 0.5144(3) 0.04626(18) 0.2586(5)
N3_3 N 0.5065(4) 0.22742(19) 0.1728(5)
C1_3 C 0.4995(4) 0.2596(2) 0.0905(5)
C4_3 C 0.5395(4) 0.1294(2) 0.2734(6)
H2_3 H 0.5570 0.1545 0.3168
C5_3 C 0.5059(4) 0.1850(2) 0.1159(5)
C6_3 C 0.4949(4) 0.3114(2) 0.1071(5)
C7_3 C 0.5097(4) 0.1373(2) 0.1651(5)
C8_3 C 0.5247(5) 0.3813(3) 0.2114(6)
H3_3 H 0.5491 0.3954 0.2717
C9_3 C 0.4864(4) 0.0542(2) 0.1552(6)
H4_3 H 0.4674 0.0287 0.1149
C10_3 C 0.4554(4) 0.3403(2) 0.0384(7)
C12_3 C 0.4844(5) 0.0988(2) 0.1060(7)
H6_3 H 0.4659 0.1028 0.0324
C13_3 C 0.4534(4) 0.3889(2) 0.0591(7)
H7_3 H 0.4268 0.4079 0.0105
C14_3 C 0.5422(4) 0.0831(2) 0.3144(7)
H8_3 H 0.5645 0.0775 0.3844
C16_3 C 0.5303(5) 0.3331(2) 0.1983(6)
H10_3 H 0.5571 0.3151 0.2490
C18_3 C 0.8869(4) 0.0084(3) 0.1361(5)
Cu5_3 Cu 0.49894(7) 0.23906(3) 0.33243(7)
Cu2_3 Cu 0.49894(7) 0.26094(3) 0.83243(7)
N4_3 N 0.4978(4) 0.23979(18) 0.9822(5)
N5_3 N 0.5024(4) 0.19108(19) 0.9998(5)
H1_3 H 0.5029 0.1692 0.9478
H5_3 H 0.4299 0.3274 0.9778
N7_3 N 0.5065(4) 0.27258(19) 0.6728(5)
S1_3 S 0.75639(9) 0.99604(7) 0.21773(16)
O1_3 O 0.6131(2) 0.97668(15) 0.2830(4)
O2_3 O 0.5739(2) 0.95624(19) 0.1083(4)
C2_3 C 0.6213(3) 0.9679(2) 0.1756(6)
C3_3 C 0.6923(3) 0.9738(2) 0.1302(6)
C11_3 C 0.8154(3) 0.9929(3) 0.1094(7)
C15_3 C 0.7166(4) 0.9650(3) 0.0202(6)
C17_3 C 0.7879(4) 0.9764(4) 0.0095(7)
C1_4 C 0.0005(4) 0.2404(2) 0.0905(5)
C6_4 C 0.0051(4) 0.1886(2) 0.1071(5)
C9_4 C 0.0136(4) 0.4458(2) 0.1552(6)
H4_4 H 0.0326 0.4713 0.1149
C10_4 C 0.0446(4) 0.1597(2) 0.0384(7)
C12_4 C 0.0156(5) 0.4012(2) 0.1060(7)
H6_4 H 0.0341 0.3972 0.0324
C13_4 C 0.0466(4) 0.1111(2) 0.0591(7)
H7_4 H 0.0732 0.0921 0.0105
Cu5_4 Cu 0.00106(7) 0.26094(3) 0.33243(7)
Cu2_4 Cu 0.00106(7) 0.23906(3) 0.83243(7)
N4_4 N 0.0022(4) 0.26021(18) 0.9822(5)
H5_4 H 0.0701 0.1726 0.9778
S1_4 S 0.74361(9) 0.50396(7) 0.21773(16)
O1_4 O 0.8869(2) 0.52332(15) 0.2830(4)
O2_4 O 0.9261(2) 0.54376(19) 0.1083(4)
N2_4 N 0.9856(3) 0.45374(18) 0.2586(5)
N3_4 N 0.9935(4) 0.27258(19) 0.1728(5)
C2_4 C 0.8787(3) 0.5321(2) 0.1756(6)
C3_4 C 0.8077(3) 0.5262(2) 0.1302(6)
C4_4 C 0.9605(4) 0.3706(2) 0.2734(6)
H2_4 H 0.9430 0.3455 0.3168
C5_4 C 0.9941(4) 0.3150(2) 0.1159(5)
C7_4 C 0.9903(4) 0.3627(2) 0.1651(5)
C8_4 C 0.9753(5) 0.1187(3) 0.2114(6)
H3_4 H 0.9509 0.1046 0.2717
C11_4 C 0.6846(3) 0.5071(3) 0.1094(7)
C14_4 C 0.9578(4) 0.4169(2) 0.3144(7)
H8_4 H 0.9355 0.4225 0.3844
C15_4 C 0.7834(4) 0.5350(3) 0.0202(6)
C16_4 C 0.9697(5) 0.1669(2) 0.1983(6)
H10_4 H 0.9429 0.1849 0.2490
C17_4 C 0.7121(4) 0.5236(4) 0.0095(7)
C18_4 C 0.6131(4) 0.4916(3) 0.1361(5)
N5_4 N 0.9976(4) 0.30892(19) 0.9998(5)
H1_4 H 0.9971 0.3308 0.9478
H9_3 H 0.8104 0.5469 0.9603
H11_3 H 0.6870 0.5271 0.9413
N7_4 N 0.9935(4) 0.22742(19) 0.6728(5)
Cu4_2 Cu 0.01647(5) 0.47952(3) 0.67886(11)
Cu1_3 Cu 0.51647(5) 0.52048(3) 0.82114(11)
S1_5 S 0.75639(9) 0.50396(7) 0.71773(16)
O1_5 O 0.6131(2) 0.52332(15) 0.7830(4)
O2_5 O 0.5739(2) 0.54376(19) 0.6083(4)
N1_3 N 0.4871(3) 0.09077(19) 0.6439(5)
N2_5 N 0.5144(3) 0.45374(18) 0.7586(5)
O3_3 O 0.8985(3) 0.4762(2) 0.7329(6)
N4_5 N 0.4978(4) 0.26021(18) 0.4822(5)
O4_3 O 0.9316(3) 0.4969(2) 0.5532(6)
N5_5 N 0.5024(4) 0.30892(19) 0.4998(5)
H1_5 H 0.5029 0.3308 0.4478
C1_5 C 0.4995(4) 0.2404(2) 0.5905(5)
C2_5 C 0.6213(3) 0.5321(2) 0.6756(6)
C3_5 C 0.6923(3) 0.5262(2) 0.6302(6)
C4_5 C 0.5395(4) 0.3706(2) 0.7734(6)
H2_5 H 0.5570 0.3455 0.8168
C5_5 C 0.5059(4) 0.3150(2) 0.6159(5)
C6_5 C 0.4949(4) 0.1886(2) 0.6071(5)
C7_5 C 0.5097(4) 0.3627(2) 0.6651(5)
C8_5 C 0.5247(5) 0.1187(3) 0.7114(6)
H3_5 H 0.5491 0.1046 0.7717
C9_5 C 0.4864(4) 0.4458(2) 0.6552(6)
H4_5 H 0.4674 0.4713 0.6149
C10_5 C 0.4554(4) 0.1597(2) 0.5384(7)
H5_5 H 0.4299 0.1726 0.4778
C11_5 C 0.8154(3) 0.5071(3) 0.6094(7)
C12_5 C 0.4844(5) 0.4012(2) 0.6060(7)
H6_5 H 0.4659 0.3972 0.5324
C13_5 C 0.4534(4) 0.1111(2) 0.5591(7)
H7_5 H 0.4268 0.0921 0.5105
C14_5 C 0.5422(4) 0.4169(2) 0.8144(7)
H8_5 H 0.5645 0.4225 0.8844
C15_5 C 0.7166(4) 0.5350(3) 0.5202(6)
H9_4 H 0.6896 0.5469 0.4603
C16_5 C 0.5303(5) 0.1669(2) 0.6983(6)
H10_5 H 0.5571 0.1849 0.7490
C17_5 C 0.7879(4) 0.5236(4) 0.5095(7)
H11_4 H 0.8130 0.5271 0.4413
C18_5 C 0.8869(4) 0.4916(3) 0.6361(5)
Cu3_2 Cu 0.48353(5) 0.02048(3) 0.67886(11)
N6_3 N 0.5129(3) 0.59077(19) 0.8561(5)
O5_3 O 0.3985(3) 0.5238(2) 0.7671(6)
O6_3 O 0.4316(3) 0.5031(2) 0.9468(6)
N1_4 N 0.0129(3) 0.40923(19) 0.6439(5)
N4_6 N 0.0022(4) 0.23979(18) 0.4822(5)
C1_6 C 0.0005(4) 0.2596(2) 0.5905(5)
C6_6 C 0.0051(4) 0.3114(2) 0.6071(5)
C9_6 C 0.0136(4) 0.0542(2) 0.6552(6)
H4_6 H 0.0326 0.0287 0.6149
C10_6 C 0.0446(4) 0.3403(2) 0.5384(7)
H5_6 H 0.0701 0.3274 0.4778
C12_6 C 0.0156(5) 0.0988(2) 0.6060(7)
H6_6 H 0.0341 0.1028 0.5324
C13_6 C 0.0466(4) 0.3889(2) 0.5591(7)
H7_6 H 0.0732 0.4079 0.5105
O5_4 O 0.1015(3) 0.9762(2) 0.7671(6)
O6_4 O 0.0684(3) 0.9969(2) 0.9468(6)
N2_6 N 0.9856(3) 0.04626(18) 0.7586(5)
O3_4 O 0.6015(3) 0.0238(2) 0.7329(6)
O4_4 O 0.5684(3) 0.0031(2) 0.5532(6)
N5_6 N 0.9976(4) 0.19108(19) 0.4998(5)
H1_6 H 0.9971 0.1692 0.4478
C4_6 C 0.9605(4) 0.1294(2) 0.7734(6)
H2_6 H 0.9430 0.1545 0.8168
C5_6 C 0.9941(4) 0.1850(2) 0.6159(5)
C7_6 C 0.9903(4) 0.1373(2) 0.6651(5)
C8_6 C 0.9753(5) 0.3813(3) 0.7114(6)
H3_6 H 0.9509 0.3954 0.7717
C14_6 C 0.9578(4) 0.0831(2) 0.8144(7)
H8_6 H 0.9355 0.0775 0.8844
C16_6 C 0.9697(5) 0.3331(2) 0.6983(6)
H10_6 H 0.9429 0.3151 0.7490
C18_6 C 0.6131(4) 0.0084(3) 0.6361(5)
Cu1_4 Cu 0.98353(5) 0.97952(3) 0.82114(11)
S1_6 S 0.74361(9) 0.99604(7) 0.71773(16)
O1_6 O 0.8869(2) 0.97668(15) 0.7830(4)
O2_6 O 0.9261(2) 0.95624(19) 0.6083(4)
C2_6 C 0.8787(3) 0.9679(2) 0.6756(6)
C3_6 C 0.8077(3) 0.9738(2) 0.6302(6)
C11_6 C 0.6846(3) 0.9929(3) 0.6094(7)
C15_6 C 0.7834(4) 0.9650(3) 0.5202(6)
H9_5 H 0.8104 0.9531 0.4603
C17_6 C 0.7121(4) 0.9764(4) 0.5095(7)
H11_5 H 0.6870 0.9729 0.4413
N6_4 N 0.9871(3) 0.90923(19) 0.8561(5)
S1_7 S 0.24361(9) 0.00396(7) 0.78227(16)
O1_7 O 0.3869(2) 0.02332(15) 0.7170(4)
O2_7 O 0.4261(2) 0.04376(19) 0.8917(4)
C2_7 C 0.3787(3) 0.0321(2) 0.8244(6)
C3_7 C 0.3077(3) 0.0262(2) 0.8698(6)
C11_7 C 0.1846(3) 0.0071(3) 0.8906(7)
C15_7 C 0.2834(4) 0.0350(3) 0.9798(6)
C17_7 C 0.2121(4) 0.0236(4) 0.9905(7)
N4_7 N 0.5022(4) 0.76021(18) 0.0178(5)
N5_7 N 0.4976(4) 0.80892(19) 0.0002(5)
H1_7 H 0.4971 0.8308 0.0522
H5_7 H 0.5701 0.6726 0.0222
N2_7 N 0.4856(3) 0.95374(18) 0.7414(5)
C1_7 C 0.5005(4) 0.7404(2) 0.9095(5)
C4_7 C 0.4605(4) 0.8706(2) 0.7266(6)
H2_7 H 0.4430 0.8455 0.6832
C5_7 C 0.4941(4) 0.8150(2) 0.8841(5)
C6_7 C 0.5051(4) 0.6886(2) 0.8929(5)
C7_7 C 0.4903(4) 0.8627(2) 0.8349(5)
C8_7 C 0.4753(5) 0.6187(3) 0.7886(6)
H3_7 H 0.4509 0.6046 0.7283
C9_7 C 0.5136(4) 0.9458(2) 0.8448(6)
H4_7 H 0.5326 0.9713 0.8851
C10_7 C 0.5446(4) 0.6597(2) 0.9616(7)
C12_7 C 0.5156(5) 0.9012(2) 0.8940(7)
H6_7 H 0.5341 0.8972 0.9676
C13_7 C 0.5466(4) 0.6111(2) 0.9409(7)
H7_7 H 0.5732 0.5921 0.9895
C14_7 C 0.4578(4) 0.9169(2) 0.6856(7)
H8_7 H 0.4355 0.9225 0.6156
C16_7 C 0.4697(5) 0.6669(2) 0.8017(6)
H10_7 H 0.4429 0.6849 0.7510
C18_7 C 0.1131(4) 0.9916(3) 0.8639(5)
N5_8 N 0.0024(4) 0.69108(19) 0.0002(5)
H1_8 H 0.0029 0.6692 0.0522
H9_6 H 0.1896 0.4531 0.0397
H11_6 H 0.3130 0.4729 0.0587
S1_8 S 0.25639(9) 0.49604(7) 0.78227(16)
O1_8 O 0.1131(2) 0.47668(15) 0.7170(4)
O2_8 O 0.0739(2) 0.45624(19) 0.8917(4)
N2_8 N 0.0144(3) 0.54626(18) 0.7414(5)
C2_8 C 0.1213(3) 0.4679(2) 0.8244(6)
C3_8 C 0.1923(3) 0.4738(2) 0.8698(6)
C4_8 C 0.0395(4) 0.6294(2) 0.7266(6)
H2_8 H 0.0570 0.6545 0.6832
C5_8 C 0.0059(4) 0.6850(2) 0.8841(5)
C7_8 C 0.0097(4) 0.6373(2) 0.8349(5)
C8_8 C 0.0247(5) 0.8813(3) 0.7886(6)
H3_8 H 0.0491 0.8954 0.7283
C11_8 C 0.3154(3) 0.4929(3) 0.8906(7)
C14_8 C 0.0422(4) 0.5831(2) 0.6856(7)
H8_8 H 0.0645 0.5775 0.6156
C15_8 C 0.2166(4) 0.4650(3) 0.9798(6)
C16_8 C 0.0303(5) 0.8331(2) 0.8017(6)
H10_8 H 0.0571 0.8151 0.7510
C17_8 C 0.2879(4) 0.4764(4) 0.9905(7)
C18_8 C 0.3869(4) 0.5084(3) 0.8639(5)
N4_8 N 0.9978(4) 0.73979(18) 0.0178(5)
H5_8 H 0.9299 0.8274 0.0222
C1_8 C 0.9995(4) 0.7596(2) 0.9095(5)
C6_8 C 0.9949(4) 0.8114(2) 0.8929(5)
C9_8 C 0.9864(4) 0.5542(2) 0.8448(6)
H4_8 H 0.9674 0.5287 0.8851
C10_8 C 0.9554(4) 0.8403(2) 0.9616(7)
C12_8 C 0.9844(5) 0.5988(2) 0.8940(7)
H6_8 H 0.9659 0.6028 0.9676
C13_8 C 0.9534(4) 0.8889(2) 0.9409(7)
H7_8 H 0.9268 0.9079 0.9895
H9_7 H 0.6896 0.9531 0.9603
H11_7 H 0.8130 0.9729 0.9413
H9_8 H 0.3104 0.0469 0.0397
H11_8 H 0.1870 0.0271 0.0587
loop_
_geom_bond_atom_site_label_1
_geom_bond_atom_site_label_2
_geom_bond_site_symmetry_1
_geom_bond_site_symmetry_2
Cu1 O1 1_555 1_555
Cu2 N4 1_555 1_555
S1 C3 1_555 1_555
O1 C2 1_555 1_555
O2 Cu1 1_555 1_555
N1 C8 1_555 1_555
N2 Cu1 1_555 1_555
O3 C18 1_555 1_555
N3 C1 1_555 1_555
N4 N5 1_555 1_555
O4 C18 1_555 1_555
N5 H1 1_555 1_555
C1 N4 1_555 1_555
C2 O2 1_555 1_555
C3 C2 1_555 1_555
C4 H2 1_555 1_555
C5 N3 1_555 1_555
C6 C1 1_555 1_555
C7 C4 1_555 1_555
C8 H3 1_555 1_555
C9 N2 1_555 1_555
H4 C9 1_555 1_555
C10 C6 1_555 1_555
H5 C10 1_555 1_555
C11 S1 1_555 1_555
C12 C7 1_555 1_555
H6 C12 1_555 1_555
C13 N1 1_555 1_555
H7 C13 1_555 1_555
C14 N2 1_555 1_555
H8 C14 1_555 1_555
C15 C3 1_555 1_555
H9 C15 1_555 1_555
C16 C6 1_555 1_555
H10 C16 1_555 1_555
C17 C11 1_555 1_555
H11 C17 1_555 1_555
C18 C11 1_555 1_555
Cu3 N1 1_555 1_555
Cu5 N3 1_555 1_555
N6 Cu1 1_555 1_555
O5 Cu1 1_555 1_555
N7 Cu2 1_555 1_555
O6 Cu1 1_555 1_555
N5 C5 1_555 1_555
C4 C14 1_555 1_555
C5 C7 1_555 1_555
C8 C16 1_555 1_555
C9 C12 1_555 1_555
C10 C13 1_555 1_555
C15 C17 1_555 1_555
Cu1_2 O1_2 1_555 1_555
S1_2 C3_2 1_555 1_555
O1_2 C2_2 1_555 1_555
O2_2 Cu1_2 1_555 1_555
C2_2 O2_2 1_555 1_555
C3_2 C2_2 1_555 1_555
C11_2 S1_2 1_555 1_555
C15_2 C3_2 1_555 1_555
H9_2 C15_2 1_555 1_555
C17_2 C11_2 1_555 1_555
H11_2 C17_2 1_555 1_555
N6_2 Cu1_2 1_555 1_555
C15_2 C17_2 1_555 1_555
O3_2 C18_2 1_555 1_555
O4_2 C18_2 1_555 1_555
N5_2 H1_2 1_555 1_555
C4_2 H2_2 1_555 1_555
C5_2 N3_2 1_555 1_555
C7_2 C4_2 1_555 1_555
C8_2 H3_2 1_555 1_555
C14_2 N2_2 1_555 1_555
H8_2 C14_2 1_555 1_555
H10_2 C16_2 1_555 1_555
Cu3 O3_2 1_555 1_555
O4_2 Cu3 1_555 1_555
N5_2 C5_2 1_555 1_555
C4_2 C14_2 1_555 1_555
C5_2 C7_2 1_555 1_555
C8_2 C16_2 1_555 1_555
Cu2_2 N4_2 1_555 1_555
C1_2 N4_2 1_555 1_555
C6_2 C1_2 1_555 1_555
H4_2 C9_2 1_555 1_555
C10_2 C6_2 1_555 1_555
H5_2 C10_2 1_555 1_555
H6_2 C12_2 1_555 1_555
C13_2 N1_2 1_555 1_555
H7_2 C13_2 1_555 1_555
Cu4 N1_2 1_555 1_555
C9_2 C12_2 1_555 1_555
C10_2 C13_2 1_555 1_555
N6 C8_3 1_555 1_555
O5_2 C18_3 1_555 1_555
N3_3 C1_3 1_555 1_555
O6_2 C18_3 1_555 1_555
C4_3 H2_3 1_555 1_555
C5_3 N3_3 1_555 1_555
C6_3 C1_3 1_555 1_555
C7_3 C4_3 1_555 1_555
C8_3 H3_3 1_555 1_555
C9_3 N2_3 1_555 1_555
H4_3 C9_3 1_555 1_555
C10_3 C6_3 1_555 1_555
C12_3 C7_3 1_555 1_555
H6_3 C12_3 1_555 1_555
C13_3 N6 1_555 1_555
H7_3 C13_3 1_555 1_555
C14_3 N2_3 1_555 1_555
H8_3 C14_3 1_555 1_555
C16_3 C6_3 1_555 1_555
H10_3 C16_3 1_555 1_555
Cu5_3 N3_3 1_555 1_555
C4_3 C14_3 1_555 1_555
C5_3 C7_3 1_555 1_555
C8_3 C16_3 1_555 1_555
C9_3 C12_3 1_555 1_555
C10_3 C13_3 1_555 1_555
Cu2_3 N4_3 1_555 1_555
N4_3 N5_3 1_555 1_555
N5_3 H1_3 1_555 1_555
N7_3 Cu2_3 1_555 1_555
Cu3 O1_3 1_555 1_555
S1_3 C3_3 1_555 1_555
O1_3 C2_3 1_555 1_555
O2_3 Cu3 1_555 1_555
C2_3 O2_3 1_555 1_555
C3_3 C2_3 1_555 1_555
C11_3 S1_3 1_555 1_555
C15_3 C3_3 1_555 1_555
C17_3 C11_3 1_555 1_555
C15_3 C17_3 1_555 1_555
C6_4 C1_4 1_555 1_555
H4_4 C9_4 1_555 1_555
C10_4 C6_4 1_555 1_555
H6_4 C12_4 1_555 1_555
C13_4 N6_2 1_555 1_555
H7_4 C13_4 1_555 1_555
C9_4 C12_4 1_555 1_555
C10_4 C13_4 1_555 1_555
Cu2_4 N4_4 1_555 1_555
Cu4 O1_4 1_555 1_555
S1_4 C3_4 1_555 1_555
O1_4 C2_4 1_555 1_555
O2_4 Cu4 1_555 1_555
N2_4 Cu4 1_555 1_555
O5 C18_4 1_555 1_555
O6 C18_4 1_555 1_555
C2_4 O2_4 1_555 1_555
C3_4 C2_4 1_555 1_555
C4_4 H2_4 1_555 1_555
C5_4 N3_4 1_555 1_555
C7_4 C4_4 1_555 1_555
C8_4 H3_4 1_555 1_555
C11_4 S1_4 1_555 1_555
C14_4 N2_4 1_555 1_555
H8_4 C14_4 1_555 1_555
C15_4 C3_4 1_555 1_555
H10_4 C16_4 1_555 1_555
C17_4 C11_4 1_555 1_555
C18_4 C11_4 1_555 1_555
C4_4 C14_4 1_555 1_555
C5_4 C7_4 1_555 1_555
C8_4 C16_4 1_555 1_555
C15_4 C17_4 1_555 1_555
N5_4 H1_4 1_555 1_555
Cu1_3 O1_5 1_555 1_555
Cu5_3 N4_5 1_555 1_555
S1_5 C3_5 1_555 1_555
O1_5 C2_5 1_555 1_555
O2_5 Cu1_3 1_555 1_555
N1_3 C8_5 1_555 1_555
N2_5 Cu1_3 1_555 1_555
O3_3 C18_5 1_555 1_555
N7_3 C1_5 1_555 1_555
N4_5 N5_5 1_555 1_555
O4_3 C18_5 1_555 1_555
N5_5 H1_5 1_555 1_555
C1_5 N4_5 1_555 1_555
C2_5 O2_5 1_555 1_555
C3_5 C2_5 1_555 1_555
C4_5 H2_5 1_555 1_555
C5_5 N7_3 1_555 1_555
C6_5 C1_5 1_555 1_555
C7_5 C4_5 1_555 1_555
C8_5 H3_5 1_555 1_555
C9_5 N2_5 1_555 1_555
H4_5 C9_5 1_555 1_555
C10_5 C6_5 1_555 1_555
H5_5 C10_5 1_555 1_555
C11_5 S1_5 1_555 1_555
C12_5 C7_5 1_555 1_555
H6_5 C12_5 1_555 1_555
C13_5 N1_3 1_555 1_555
H7_5 C13_5 1_555 1_555
C14_5 N2_5 1_555 1_555
H8_5 C14_5 1_555 1_555
C15_5 C3_5 1_555 1_555
H9_4 C15_5 1_555 1_555
C16_5 C6_5 1_555 1_555
H10_5 C16_5 1_555 1_555
C17_5 C11_5 1_555 1_555
H11_4 C17_5 1_555 1_555
C18_5 C11_5 1_555 1_555
Cu3_2 N1_3 1_555 1_555
N6_3 Cu1_3 1_555 1_555
O5_3 Cu1_3 1_555 1_555
O6_3 Cu1_3 1_555 1_555
N5_5 C5_5 1_555 1_555
C4_5 C14_5 1_555 1_555
C5_5 C7_5 1_555 1_555
C8_5 C16_5 1_555 1_555
C9_5 C12_5 1_555 1_555
C10_5 C13_5 1_555 1_555
C15_5 C17_5 1_555 1_555
Cu5_4 N4_6 1_555 1_555
C1_6 N4_6 1_555 1_555
C6_6 C1_6 1_555 1_555
H4_6 C9_6 1_555 1_555
C10_6 C6_6 1_555 1_555
H5_6 C10_6 1_555 1_555
H6_6 C12_6 1_555 1_555
C13_6 N1_4 1_555 1_555
H7_6 C13_6 1_555 1_555
Cu4_2 N1_4 1_555 1_555
C9_6 C12_6 1_555 1_555
C10_6 C13_6 1_555 1_555
O3_4 C18_6 1_555 1_555
O4_4 C18_6 1_555 1_555
N5_6 H1_6 1_555 1_555
C4_6 H2_6 1_555 1_555
C5_6 N7_4 1_555 1_555
C7_6 C4_6 1_555 1_555
C8_6 H3_6 1_555 1_555
C14_6 N2_6 1_555 1_555
H8_6 C14_6 1_555 1_555
H10_6 C16_6 1_555 1_555
Cu3_2 O3_4 1_555 1_555
O4_4 Cu3_2 1_555 1_555
N5_6 C5_6 1_555 1_555
C4_6 C14_6 1_555 1_555
C5_6 C7_6 1_555 1_555
C8_6 C16_6 1_555 1_555
Cu1_4 O1_6 1_555 1_555
S1_6 C3_6 1_555 1_555
O1_6 C2_6 1_555 1_555
O2_6 Cu1_4 1_555 1_555
C2_6 O2_6 1_555 1_555
C3_6 C2_6 1_555 1_555
C11_6 S1_6 1_555 1_555
C15_6 C3_6 1_555 1_555
H9_5 C15_6 1_555 1_555
C17_6 C11_6 1_555 1_555
H11_5 C17_6 1_555 1_555
N6_4 Cu1_4 1_555 1_555
C15_6 C17_6 1_555 1_555
Cu3_2 O1_7 1_555 1_555
S1_7 C3_7 1_555 1_555
O1_7 C2_7 1_555 1_555
O2_7 Cu3_2 1_555 1_555
C2_7 O2_7 1_555 1_555
C3_7 C2_7 1_555 1_555
C11_7 S1_7 1_555 1_555
C15_7 C3_7 1_555 1_555
C17_7 C11_7 1_555 1_555
C15_7 C17_7 1_555 1_555
Cu5 N4_7 1_555 1_555
N4_7 N5_7 1_555 1_555
N5_7 H1_7 1_555 1_555
N6_3 C8_7 1_555 1_555
O5_4 C18_7 1_555 1_555
N7 C1_7 1_555 1_555
O6_4 C18_7 1_555 1_555
C4_7 H2_7 1_555 1_555
C5_7 N7 1_555 1_555
C6_7 C1_7 1_555 1_555
C7_7 C4_7 1_555 1_555
C8_7 H3_7 1_555 1_555
C9_7 N2_7 1_555 1_555
H4_7 C9_7 1_555 1_555
C10_7 C6_7 1_555 1_555
C12_7 C7_7 1_555 1_555
H6_7 C12_7 1_555 1_555
C13_7 N6_3 1_555 1_555
H7_7 C13_7 1_555 1_555
C14_7 N2_7 1_555 1_555
H8_7 C14_7 1_555 1_555
C16_7 C6_7 1_555 1_555
H10_7 C16_7 1_555 1_555
C4_7 C14_7 1_555 1_555
C5_7 C7_7 1_555 1_555
C8_7 C16_7 1_555 1_555
C9_7 C12_7 1_555 1_555
C10_7 C13_7 1_555 1_555
N5_8 H1_8 1_555 1_555
Cu4_2 O1_8 1_555 1_555
S1_8 C3_8 1_555 1_555
O1_8 C2_8 1_555 1_555
O2_8 Cu4_2 1_555 1_555
N2_8 Cu4_2 1_555 1_555
O5_3 C18_8 1_555 1_555
O6_3 C18_8 1_555 1_555
C2_8 O2_8 1_555 1_555
C3_8 C2_8 1_555 1_555
C4_8 H2_8 1_555 1_555
C5_8 N7_2 1_555 1_555
C7_8 C4_8 1_555 1_555
C8_8 H3_8 1_555 1_555
C11_8 S1_8 1_555 1_555
C14_8 N2_8 1_555 1_555
H8_8 C14_8 1_555 1_555
C15_8 C3_8 1_555 1_555
H10_8 C16_8 1_555 1_555
C17_8 C11_8 1_555 1_555
C18_8 C11_8 1_555 1_555
C4_8 C14_8 1_555 1_555
C5_8 C7_8 1_555 1_555
C8_8 C16_8 1_555 1_555
C15_8 C17_8 1_555 1_555
Cu5_2 N4_8 1_555 1_555
C6_8 C1_8 1_555 1_555
H4_8 C9_8 1_555 1_555
C10_8 C6_8 1_555 1_555
H6_8 C12_8 1_555 1_555
C13_8 N6_4 1_555 1_555
H7_8 C13_8 1_555 1_555
C9_8 C12_8 1_555 1_555
C10_8 C13_8 1_555 1_555

#END
