
###############################################################################
#
# This file contains modified crystal structure data generated from the
# MOF subset of the Cambridge Structural Database (CSD) v543 
# hosted by the Cambridge Crystallographic Data Centre (CCDC).
#
# This work is licensed under the Creative Commons
# Attribution-NonCommercial-ShareAlike 4.0 International License.
# To view a copy of this license, visit
# http://creativecommons.org/licenses/by-nc-sa/4.0/
# or send a letter to
# Creative Commons, PO Box 1866, Mountain View, CA 94042, USA.
#
# CIF created using the CSD Python API on 29 September 2022
# The structure has been converted into the P1 space group
# The structure has a 3D framework
# The original CSD entry PAPNUR is in the trigonal crystal system
# The original CSD entry PAPNUR is in a Sohncke space group
# The framework has been calculated to contain at least 10.0% void space
# The void calculation uses a probe of radius 1.32A, grid spacing 0.4
# The framework is charged, counterions have been retained in the structure
# H atom positions have been added when not included in the experimental data
#
###############################################################################

data_PAPNUR
_chemical_formula_moiety         '(C84 H96 Br11 Cu6 N24 O18 1+)n'
_symmetry_cell_setting           triclinic
_symmetry_space_group_name_H-M   'P 1'
_symmetry_Int_Tables_number      1
_space_group_name_Hall           'P 1'
loop_
_symmetry_equiv_pos_site_id
_symmetry_equiv_pos_as_xyz
1 x,y,z
_cell_length_a                   13.6744(8)
_cell_length_b                   13.6744(8)
_cell_length_c                   15.0225(12)
_cell_angle_alpha                90
_cell_angle_beta                 90
_cell_angle_gamma                120
_cell_volume                     2432.7
loop_
_atom_site_label
_atom_site_type_symbol
_atom_site_fract_x
_atom_site_fract_y
_atom_site_fract_z
H11 H 0.3937 0.0479 0.3672
Cu3 Cu 0.26466(16) 0.26466(9) 0.0000
C7 C 0.7292(11) 0.4416(11) 0.9335(9)
C8 C 0.7830(12) 0.5501(11) 0.8772(8)
N3 N 0.7491(9) 0.3436(9) 0.9114(9)
C9 C 0.7211(13) 0.2694(14) 0.9403(8)
C10 C 0.7432(11) 0.1601(9) 0.9167(8)
C11 C 0.7442(8) 0.1405(7) 0.8267(6)
H6 H 0.7255 0.1802 0.7865
N4 N 0.7719(5) 0.0640(7) 0.7958(4)
C12 C 0.8059(7) 0.0155(7) 0.8554(5)
C13 C 0.8090(9) 0.0350(9) 0.9447(6)
H8 H 0.8374 0.0020 0.9833
C14 C 0.7707(13) 0.1024(9) 0.9776(7)
Cu2 Cu 0.73534(16) -0.00000(13) 0.6666
H23 H 0.638349 0.407222 0.928537
H24 H 0.799705 0.357194 0.857921
H28 H 0.874572 0.591757 0.882671
H29 H 0.758347 0.528805 0.807841
H30 H 0.754168 0.606548 0.901231
H7 H 0.8288 0.9658 0.8352
Cu2_2 Cu 0.73534(16) 1.00000(13) 0.6666
H16 H 0.8630 0.0342 0.4981
Br1 Br 0.46261(9) 0.46261(13) -0.0000
H1 H 0.2648 0.0498 0.0273
O3 O 0.0865(5) 0.0865(7) -0.0000
N5 N 0.1838(7) 0.3408(9) 0.0494(4)
C15 C 0.0810(11) 0.3144(14) 0.0203(5)
C16 C 0.0197(11) 0.3589(14) 0.0589(6)
C17 C 0.0611(10) 0.4238(12) 0.1361(6)
H12 H 0.0187 0.4495 0.1661
C18 C 0.1649(10) 0.4487(12) 0.1665(5)
C19 C 0.2273(8) 0.4086(10) 0.1218(5)
H13 H 0.2993 0.4285 0.1418
N6 N 0.2029(8) 0.5106(10) 0.2481(4)
H14 H 0.1586 0.5312 0.2715
C20 C 0.2990(13) 0.5406(16) 0.2928(7)
O4 O 0.3785(11) 0.5333(14) 0.2646(6)
C21 C 0.2876(16) 0.5584(19) 0.3998(9)
C22 C 0.2329(16) 0.4499(20) 0.4561(8)
N7 N 0.4055(13) 0.6564(16) 0.4219(9)
C23 C 0.4517(19) 0.7306(23) 0.3930(8)
O5 O 0.4204(12) 0.7567(15) 0.3261(6)
C24 C 0.5831(14) 0.8399(18) 0.4166(8)
C25 C 0.6037(11) 0.8595(14) 0.5066(6)
H15 H 0.5453 0.8198 0.5468
N8 N 0.2921(9) 0.2281(11) 0.1291(4)
N10 N 0.7079(9) 0.9360(10) 0.5375(4)
C26 C 0.7904(10) 0.9845(12) 0.4779(5)
C27 C 0.7740(13) 0.9650(16) 0.3886(6)
H17 H 0.8354 0.9980 0.3500
C28 C 0.6683(16) 0.8976(21) 0.3557(7)
H18 H 0.6542 0.8907 0.2948
H19 H 0.231127 0.592778 0.404796
H20 H 0.0933401 0.0312483 0.0385411
H21 H 0.0255826 0.0990058 0.0230692
H22 H 0.442512 0.642806 0.475413
H25 H 0.282815 0.408243 0.450662
H26 H 0.229542 0.471195 0.525492
H27 H 0.14762 0.393452 0.432102
Br1_2 Br 0.53739(13) 0.00000(9) 0.6666
N1 N 0.8162(7) 0.1570(5) 0.6172(4)
C1 C 0.9190(11) 0.2334(8) 0.6463(5)
H1_2 H 0.9502 0.2150 0.6939
C2 C 0.9803(11) 0.3392(8) 0.6077(6)
C3 C 0.9389(10) 0.3627(7) 0.5305(6)
H3 H 0.9813 0.4308 0.5005
C4 C 0.8351(10) 0.2838(7) 0.5001(5)
C5 C 0.7727(8) 0.1813(6) 0.5448(5)
H4 H 0.7007 0.1292 0.5248
N2 N 0.7971(8) 0.3077(6) 0.4185(4)
H5 H 0.8414 0.3726 0.3951
C6 C 0.7010(13) 0.2416(10) 0.3738(7)
O1 O 0.6215(11) 0.1548(9) 0.4020(6)
C7_2 C 0.7124(16) 0.2708(11) 0.2668(9)
C8_2 C 0.7671(16) 0.2170(12) 0.2105(8)
N3_2 N 0.5945(13) 0.2509(9) 0.2447(9)
C9_2 C 0.5483(19) 0.2789(13) 0.2736(8)
O2 O 0.5796(12) 0.3363(9) 0.3405(6)
C10_2 C 0.4169(14) 0.2568(11) 0.2500(8)
C11_2 C 0.3963(11) 0.2558(8) 0.1600(6)
H6_2 H 0.4547 0.2745 0.1198
C12_2 C 0.2096(10) 0.1941(7) 0.1887(5)
H7_2 H 0.1370 0.1712 0.1685
C13_2 C 0.2260(13) 0.1910(9) 0.2780(6)
H8_2 H 0.1646 0.1626 0.3166
C14_2 C 0.3317(16) 0.2293(13) 0.3109(7)
H9 H 0.3458 0.2365 0.3718
O3_2 O 0.9135(7) 0.0000(5) 0.6666
H20_2 H 0.968752 0.0620917 0.705208
H23_2 H 0.768873 0.361651 0.26187
H24_2 H 0.557488 0.200295 0.191254
H28_2 H 0.717185 0.125428 0.216004
H29_2 H 0.770458 0.241653 0.141174
H30_2 H 0.85238 0.245832 0.234565
Br1_3 Br 0.53739(13) 1.00000(9) 0.6666
O3_3 O 0.9135(7) 1.0000(5) 0.6666
N5_2 N 0.6592(9) 0.8430(5) 0.7161(4)
C15_2 C 0.6856(14) 0.7666(8) 0.6870(5)
H10 H 0.7352 0.7850 0.6394
C16_2 C 0.6411(14) 0.6608(8) 0.7256(6)
H11_2 H 0.6542 0.6063 0.7005
C17_2 C 0.5762(12) 0.6373(7) 0.8028(6)
H12_2 H 0.5505 0.5692 0.8328
C18_2 C 0.5513(12) 0.7162(7) 0.8332(5)
C19_2 C 0.5914(10) 0.8187(6) 0.7885(5)
H13_2 H 0.5715 0.8708 0.8085
N6_2 N 0.4894(10) 0.6923(6) 0.9148(4)
H14_2 H 0.4688 0.6274 0.9382
C20_2 C 0.4594(16) 0.7584(10) 0.9595(7)
O4_2 O 0.4667(14) 0.8452(9) 0.9313(6)
O5_2 O 0.2433(15) 0.6637(9) 0.9928(6)
H18_2 H 0.1093 0.7635 0.9615
H21_2 H 0.900994 0.926577 0.689736
H21_3 H 0.974417 0.0734232 0.643597
H20_3 H 0.90666 0.937908 0.628126
Cu1 Cu -0.00000(13) 0.73534(9) 0.3333
Br1_4 Br -0.00000(9) 0.53739(9) 0.3333
O3_4 O -0.0000(5) 0.9135(5) 0.3333
Cu3_2 Cu 0.26466(16) 0.26466(9) 1.0000
N5_3 N 0.1570(5) 0.8162(7) 0.3828(4)
C15_3 C 0.2334(8) 0.9190(11) 0.3537(5)
H10_2 H 0.2150 0.9502 0.3061
C16_3 C 0.3392(8) 0.9803(11) 0.3923(6)
C17_3 C 0.3627(7) 0.9389(10) 0.4695(6)
H12_3 H 0.4308 0.9813 0.4995
C18_3 C 0.2838(7) 0.8351(10) 0.4999(5)
C19_3 C 0.1813(6) 0.7727(8) 0.4552(5)
H13_3 H 0.1292 0.7007 0.4752
N6_3 N 0.3077(6) 0.7971(8) 0.5815(4)
H14_3 H 0.3726 0.8414 0.6049
C20_3 C 0.2416(10) 0.7010(13) 0.6262(7)
O4_3 O 0.1548(9) 0.6215(11) 0.5980(6)
C21_2 C 0.2708(11) 0.7124(16) 0.7332(9)
C22_2 C 0.2170(12) 0.7671(16) 0.7895(8)
N7_2 N 0.2509(9) 0.5945(13) 0.7553(9)
C23_2 C 0.2789(13) 0.5483(19) 0.7264(8)
O5_3 O 0.3363(9) 0.5796(12) 0.6595(6)
C24_2 C 0.2568(11) 0.4169(14) 0.7500(8)
C25_2 C 0.2558(8) 0.3963(11) 0.8400(6)
H15_2 H 0.2745 0.4547 0.8802
N9 N 0.0640(7) 0.7719(5) 0.2042(4)
N10_2 N 0.2281(5) 0.2921(9) 0.8709(4)
C26_2 C 0.1941(7) 0.2096(10) 0.8113(5)
H16_2 H 0.1712 0.1370 0.8315
C27_2 C 0.1910(9) 0.2260(13) 0.7220(6)
H17_2 H 0.1626 0.1646 0.6834
C28_2 C 0.2293(13) 0.3317(16) 0.6891(7)
H18_3 H 0.2365 0.3458 0.6282
H19_2 H 0.361651 0.768873 0.73813
H21_4 H 0.0734232 0.974417 0.356403
H22_2 H 0.200295 0.557488 0.808746
H25_2 H 0.125428 0.717185 0.783996
H26_2 H 0.241653 0.770458 0.858826
H27_2 H 0.245832 0.85238 0.765435
Cu1_2 Cu 1.00000(13) 0.73534(9) 0.3333
Br1_5 Br 1.00000(9) 0.53739(9) 0.3333
N1_2 N 0.8430(5) 0.6592(5) 0.2839(4)
C1_2 C 0.7666(8) 0.6856(7) 0.3130(5)
H1_3 H 0.7850 0.7352 0.3606
C2_2 C 0.6608(8) 0.6411(7) 0.2744(6)
H2 H 0.6063 0.6542 0.2995
C3_2 C 0.6373(7) 0.5762(7) 0.1972(6)
H3_2 H 0.5692 0.5505 0.1672
C4_2 C 0.7162(7) 0.5513(7) 0.1668(5)
C5_2 C 0.8187(6) 0.5914(6) 0.2115(5)
H4_2 H 0.8708 0.5715 0.1915
N2_2 N 0.6923(6) 0.4894(6) 0.0852(4)
H5_2 H 0.6274 0.4688 0.0618
C6_2 C 0.7584(10) 0.4594(8) 0.0405(7)
O1_2 O 0.8452(9) 0.4667(6) 0.0687(6)
O2_2 O 0.6637(9) 0.2433(8) 0.0072(6)
H9_2 H 0.7635 0.1093 0.0385
O3_5 O 1.0000(5) 0.9135(5) 0.3333
N8_2 N 0.9360(7) 0.7079(9) 0.4625(4)
H20_4 H 0.937908 0.90666 0.371874
H7_3 H 0.0342 0.8630 0.5019
Br1_6 Br 0.46261(9) 0.46261(13) 1.0000
N1_3 N 0.3408(5) 0.1838(7) 0.9506(4)
C1_3 C 0.3144(7) 0.0810(11) 0.9797(5)
C2_3 C 0.3589(7) 0.0197(11) 0.9411(6)
C3_3 C 0.4238(7) 0.0611(10) 0.8639(6)
H3_3 H 0.4495 0.0187 0.8339
C4_3 C 0.4487(7) 0.1649(10) 0.8335(5)
C5_3 C 0.4086(6) 0.2273(8) 0.8782(5)
H4_3 H 0.4285 0.2993 0.8582
N2_3 N 0.5106(6) 0.2029(8) 0.7519(4)
H5_3 H 0.5312 0.1586 0.7285
C6_3 C 0.5406(8) 0.2990(13) 0.7072(7)
O1_3 O 0.5333(6) 0.3785(11) 0.7354(6)
C7_3 C 0.5584(11) 0.2876(16) 0.6002(9)
C8_3 C 0.4499(11) 0.2329(16) 0.5439(8)
N3_3 N 0.6564(9) 0.4055(13) 0.5781(9)
C9_3 C 0.7306(14) 0.4517(19) 0.6070(8)
O2_3 O 0.7567(8) 0.4204(12) 0.6739(6)
C10_3 C 0.8399(9) 0.5831(14) 0.5834(8)
C11_3 C 0.8595(7) 0.6037(11) 0.4934(6)
H6_3 H 0.8198 0.5453 0.4532
C12_3 C 0.9845(7) 0.7904(10) 0.5221(5)
C13_3 C 0.9650(9) 0.7740(13) 0.6114(6)
H8_3 H 0.9980 0.8354 0.6500
C14_3 C 0.8976(9) 0.6683(16) 0.6443(7)
H9_3 H 0.8907 0.6542 0.7052
O3_6 O 0.0865(5) 0.0865(7) 1.0000
H10_3 H 0.0498 0.2648 0.9727
H23_3 H 0.592778 0.231127 0.595204
H24_3 H 0.642806 0.442512 0.524587
H28_3 H 0.408243 0.282815 0.549338
H29_3 H 0.471195 0.229542 0.474508
H30_3 H 0.393452 0.14762 0.567898
C21_3 C 0.4416(19) 0.7292(11) 0.0665(9)
C22_3 C 0.5501(20) 0.7830(12) 0.1228(8)
N7_3 N 0.3436(16) 0.7491(9) 0.0886(9)
C23_3 C 0.2694(23) 0.7211(13) 0.0597(8)
C24_3 C 0.1601(18) 0.7432(11) 0.0833(8)
C25_3 C 0.1405(14) 0.7442(8) 0.1733(6)
H15_3 H 0.1802 0.7255 0.2135
C26_3 C 0.0155(12) 0.8059(7) 0.1446(5)
C27_3 C 0.0350(16) 0.8090(9) 0.0553(6)
H17_3 H 0.0020 0.8374 0.0167
C28_3 C 0.1024(21) 0.7707(13) 0.0224(7)
H19_3 H 0.407222 0.638349 0.0714629
H22_3 H 0.357194 0.799705 0.142079
H25_3 H 0.591757 0.874572 0.117329
H26_3 H 0.528805 0.758347 0.192159
H27_3 H 0.606548 0.754168 0.0987685
H16_3 H 0.9658 0.8288 0.1648
H20_5 H 0.0312483 0.0933401 0.961459
H21_5 H 0.0990058 0.0255826 0.976931
H20_6 H 0.0620917 0.968752 0.294792
H21_6 H 0.926577 0.900994 0.310264
H2_2 H 0.3458 0.9521 0.9662
H11_3 H 0.9521 0.3458 0.0338
H2_3 H 0.0479 0.3937 0.6328
Br2 Br 0.90038(8) 0.0000 0.1667
Br2_2 Br 0.90038(8) 1.0000 0.1667
Br2_3 Br -0.0000 0.90038(8) 0.8334
Br2_4 Br 1.0000 0.90038(8) 0.8334
Br2_5 Br 0.09962(8) 0.09962(8) 0.5000
loop_
_geom_bond_atom_site_label_1
_geom_bond_atom_site_label_2
_geom_bond_site_symmetry_1
_geom_bond_site_symmetry_2
C8 C7 1_555 1_555
N3 C7 1_555 1_555
C9 N3 1_555 1_555
C10 C9 1_555 1_555
C11 C10 1_555 1_555
H6 C11 1_555 1_555
N4 C11 1_555 1_555
C12 N4 1_555 1_555
C13 C12 1_555 1_555
H8 C13 1_555 1_555
C14 C10 1_555 1_555
Cu2 N4 1_555 1_555
C13 C14 1_555 1_555
C7 H23 1_555 1_555
N3 H24 1_555 1_555
C8 H28 1_555 1_555
C8 H29 1_555 1_555
C8 H30 1_555 1_555
Cu3 Br1 1_555 1_555
O3 Cu3 1_555 1_555
Cu2_2 N10 1_555 1_555
N5 Cu3 1_555 1_555
C15 N5 1_555 1_555
C16 C15 1_555 1_555
C17 C16 1_555 1_555
H12 C17 1_555 1_555
C18 C17 1_555 1_555
C19 N5 1_555 1_555
H13 C19 1_555 1_555
N6 C18 1_555 1_555
H14 N6 1_555 1_555
C20 N6 1_555 1_555
O4 C20 1_555 1_555
C21 C20 1_555 1_555
C22 C21 1_555 1_555
N7 C21 1_555 1_555
C23 N7 1_555 1_555
O5 C23 1_555 1_555
C24 C23 1_555 1_555
C25 C24 1_555 1_555
H15 C25 1_555 1_555
N8 Cu3 1_555 1_555
N10 C25 1_555 1_555
C26 N10 1_555 1_555
C27 C26 1_555 1_555
H17 C27 1_555 1_555
C28 C24 1_555 1_555
H18 C28 1_555 1_555
C18 C19 1_555 1_555
C27 C28 1_555 1_555
C21 H19 1_555 1_555
O3 H20 1_555 1_555
O3 H21 1_555 1_555
N7 H22 1_555 1_555
C22 H25 1_555 1_555
C22 H26 1_555 1_555
C22 H27 1_555 1_555
Cu2 Br1_2 1_555 1_555
N1 Cu2 1_555 1_555
C1 N1 1_555 1_555
H1_2 C1 1_555 1_555
C2 C1 1_555 1_555
C3 C2 1_555 1_555
H3 C3 1_555 1_555
C4 C3 1_555 1_555
C5 N1 1_555 1_555
H4 C5 1_555 1_555
N2 C4 1_555 1_555
H5 N2 1_555 1_555
C6 N2 1_555 1_555
O1 C6 1_555 1_555
C7_2 C6 1_555 1_555
C8_2 C7_2 1_555 1_555
N3_2 C7_2 1_555 1_555
C9_2 N3_2 1_555 1_555
O2 C9_2 1_555 1_555
C10_2 C9_2 1_555 1_555
C11_2 C10_2 1_555 1_555
H6_2 C11_2 1_555 1_555
N8 C11_2 1_555 1_555
C12_2 N8 1_555 1_555
H7_2 C12_2 1_555 1_555
C13_2 C12_2 1_555 1_555
H8_2 C13_2 1_555 1_555
C14_2 C10_2 1_555 1_555
H9 C14_2 1_555 1_555
O3_2 Cu2 1_555 1_555
C4 C5 1_555 1_555
C13_2 C14_2 1_555 1_555
O3_2 H20_2 1_555 1_555
C7_2 H23_2 1_555 1_555
N3_2 H24_2 1_555 1_555
C8_2 H28_2 1_555 1_555
C8_2 H29_2 1_555 1_555
C8_2 H30_2 1_555 1_555
Cu2_2 Br1_3 1_555 1_555
O3_3 Cu2_2 1_555 1_555
N5_2 Cu2_2 1_555 1_555
C15_2 N5_2 1_555 1_555
H10 C15_2 1_555 1_555
C16_2 C15_2 1_555 1_555
H11_2 C16_2 1_555 1_555
C17_2 C16_2 1_555 1_555
H12_2 C17_2 1_555 1_555
C18_2 C17_2 1_555 1_555
C19_2 N5_2 1_555 1_555
H13_2 C19_2 1_555 1_555
N6_2 C18_2 1_555 1_555
H14_2 N6_2 1_555 1_555
C20_2 N6_2 1_555 1_555
O4_2 C20_2 1_555 1_555
C18_2 C19_2 1_555 1_555
O3_3 H21_2 1_555 1_555
O3_2 H21_3 1_555 1_555
O3_3 H20_3 1_555 1_555
Cu1 Br1_4 1_555 1_555
O3_4 Cu1 1_555 1_555
Cu3_2 N10_2 1_555 1_555
N5_3 Cu1 1_555 1_555
C15_3 N5_3 1_555 1_555
H10_2 C15_3 1_555 1_555
C16_3 C15_3 1_555 1_555
C17_3 C16_3 1_555 1_555
H12_3 C17_3 1_555 1_555
C18_3 C17_3 1_555 1_555
C19_3 N5_3 1_555 1_555
H13_3 C19_3 1_555 1_555
N6_3 C18_3 1_555 1_555
H14_3 N6_3 1_555 1_555
C20_3 N6_3 1_555 1_555
O4_3 C20_3 1_555 1_555
C21_2 C20_3 1_555 1_555
C22_2 C21_2 1_555 1_555
N7_2 C21_2 1_555 1_555
C23_2 N7_2 1_555 1_555
O5_3 C23_2 1_555 1_555
C24_2 C23_2 1_555 1_555
C25_2 C24_2 1_555 1_555
H15_2 C25_2 1_555 1_555
N9 Cu1 1_555 1_555
N10_2 C25_2 1_555 1_555
C26_2 N10_2 1_555 1_555
H16_2 C26_2 1_555 1_555
C27_2 C26_2 1_555 1_555
H17_2 C27_2 1_555 1_555
C28_2 C24_2 1_555 1_555
H18_3 C28_2 1_555 1_555
C18_3 C19_3 1_555 1_555
C27_2 C28_2 1_555 1_555
C21_2 H19_2 1_555 1_555
O3_4 H21_4 1_555 1_555
N7_2 H22_2 1_555 1_555
C22_2 H25_2 1_555 1_555
C22_2 H26_2 1_555 1_555
C22_2 H27_2 1_555 1_555
Cu1_2 Br1_5 1_555 1_555
N1_2 Cu1_2 1_555 1_555
C1_2 N1_2 1_555 1_555
H1_3 C1_2 1_555 1_555
C2_2 C1_2 1_555 1_555
H2 C2_2 1_555 1_555
C3_2 C2_2 1_555 1_555
H3_2 C3_2 1_555 1_555
C4_2 C3_2 1_555 1_555
C5_2 N1_2 1_555 1_555
H4_2 C5_2 1_555 1_555
N2_2 C4_2 1_555 1_555
H5_2 N2_2 1_555 1_555
C6_2 N2_2 1_555 1_555
O1_2 C6_2 1_555 1_555
O3_5 Cu1_2 1_555 1_555
N8_2 Cu1_2 1_555 1_555
C4_2 C5_2 1_555 1_555
O3_5 H20_4 1_555 1_555
Cu3_2 Br1_6 1_555 1_555
N1_3 Cu3_2 1_555 1_555
C1_3 N1_3 1_555 1_555
C2_3 C1_3 1_555 1_555
C3_3 C2_3 1_555 1_555
H3_3 C3_3 1_555 1_555
C4_3 C3_3 1_555 1_555
C5_3 N1_3 1_555 1_555
H4_3 C5_3 1_555 1_555
N2_3 C4_3 1_555 1_555
H5_3 N2_3 1_555 1_555
C6_3 N2_3 1_555 1_555
O1_3 C6_3 1_555 1_555
C7_3 C6_3 1_555 1_555
C8_3 C7_3 1_555 1_555
N3_3 C7_3 1_555 1_555
C9_3 N3_3 1_555 1_555
O2_3 C9_3 1_555 1_555
C10_3 C9_3 1_555 1_555
C11_3 C10_3 1_555 1_555
H6_3 C11_3 1_555 1_555
N8_2 C11_3 1_555 1_555
C12_3 N8_2 1_555 1_555
C13_3 C12_3 1_555 1_555
H8_3 C13_3 1_555 1_555
C14_3 C10_3 1_555 1_555
H9_3 C14_3 1_555 1_555
O3_6 Cu3_2 1_555 1_555
C4_3 C5_3 1_555 1_555
C13_3 C14_3 1_555 1_555
C7_3 H23_3 1_555 1_555
N3_3 H24_3 1_555 1_555
C8_3 H28_3 1_555 1_555
C8_3 H29_3 1_555 1_555
C8_3 H30_3 1_555 1_555
C22_3 C21_3 1_555 1_555
N7_3 C21_3 1_555 1_555
C23_3 N7_3 1_555 1_555
C24_3 C23_3 1_555 1_555
C25_3 C24_3 1_555 1_555
H15_3 C25_3 1_555 1_555
N9 C25_3 1_555 1_555
C26_3 N9 1_555 1_555
C27_3 C26_3 1_555 1_555
H17_3 C27_3 1_555 1_555
C28_3 C24_3 1_555 1_555
C27_3 C28_3 1_555 1_555
C21_3 H19_3 1_555 1_555
N7_3 H22_3 1_555 1_555
C22_3 H25_3 1_555 1_555
C22_3 H26_3 1_555 1_555
C22_3 H27_3 1_555 1_555
O3_6 H20_5 1_555 1_555
O3_6 H21_5 1_555 1_555
O3_4 H20_6 1_555 1_555
O3_5 H21_6 1_555 1_555

#END
