
###############################################################################
#
# This file contains modified crystal structure data generated from the
# MOF subset of the Cambridge Structural Database (CSD) v543 
# hosted by the Cambridge Crystallographic Data Centre (CCDC).
#
# This work is licensed under the Creative Commons
# Attribution-NonCommercial-ShareAlike 4.0 International License.
# To view a copy of this license, visit
# http://creativecommons.org/licenses/by-nc-sa/4.0/
# or send a letter to
# Creative Commons, PO Box 1866, Mountain View, CA 94042, USA.
#
# CIF created using the CSD Python API on 29 September 2022
# The structure has been converted into the P1 space group
# The structure has a 3D framework
# The original CSD entry PAPPAB14 is in the tetragonal crystal system
# The framework has been calculated to contain at least 10.0% void space
# The void calculation uses a probe of radius 1.32A, grid spacing 0.4
#
###############################################################################

data_PAPPAB14
_chemical_formula_moiety         '(C432 H192 Cu40 N96 O180)n'
_symmetry_cell_setting           triclinic
_symmetry_space_group_name_H-M   'P 1'
_symmetry_Int_Tables_number      1
_space_group_name_Hall           'P 1'
loop_
_symmetry_equiv_pos_site_id
_symmetry_equiv_pos_as_xyz
1 x,y,z
_cell_length_a                   26.4452(2)
_cell_length_b                   26.4452(2)
_cell_length_c                   37.9057(5)
_cell_angle_alpha                90
_cell_angle_beta                 90
_cell_angle_gamma                90
_cell_volume                     26509.3
loop_
_atom_site_label
_atom_site_type_symbol
_atom_site_fract_x
_atom_site_fract_y
_atom_site_fract_z
Cu1 Cu 0.39148(7) 0.07144(8) 0.500000
O4 O 0.3975(3) 0.0192(3) 0.4648(3)
O12 O 0.3143(4) 0.0062(3) 0.4642(3)
Cu5 Cu 0.34312(5) 0.26768(5) 0.19429(4)
Cu6 Cu 0.82224(5) 0.11946(5) 0.35176(4)
O13 O 0.6214(3) 0.3567(3) 0.1755(2)
O14 O 0.2198(3) 0.2271(3) 0.3311(2)
O15 O 0.4421(3) 0.3200(3) 0.1751(2)
O17 O 0.1848(3) 0.1803(4) 0.3742(2)
O18 O 0.6706(3) 0.3255(3) 0.2184(2)
O19 O 0.3764(3) 0.1203(3) 0.4629(2)
O20 O 0.4088(3) 0.2682(3) 0.2163(2)
O21 O 0.2943(3) 0.1068(3) 0.4642(2)
O22 O 0.7105(3) 0.1372(3) 0.3348(2)
O23 O 0.7605(3) 0.1005(3) 0.3746(2)
C28 C 0.7184(4) 0.1117(4) 0.3625(4)
C29 C 0.6397(5) 0.0017(5) 0.4537(4)
C30 C 0.6282(4) 0.3332(4) 0.2042(4)
C31 C 0.2791(5) 0.1660(5) 0.4056(3)
H13 H 0.250939 0.153742 0.417467
C32 C 0.3323(5) 0.1254(5) 0.4511(3)
C33 C 0.6780(5) 0.0580(5) 0.4084(4)
H14 H 0.709488 0.043884 0.413270
C34 C 0.3271(5) 0.1573(5) 0.4188(4)
C35 C 0.2215(5) 0.2006(5) 0.3592(4)
C36 C 0.6732(4) 0.0946(5) 0.3827(3)
C37 C 0.4442(5) 0.2928(6) 0.2025(4)
C38 C 0.5828(5) 0.3093(5) 0.2203(4)
C39 C 0.5357(4) 0.3136(5) 0.2053(3)
H15 H 0.531387 0.332273 0.184707
C40 C 0.2732(5) 0.1929(5) 0.3748(3)
N7 N 0.4687(4) 0.1665(6) 0.3701(4)
N8 N 0.5486(4) 0.1736(6) 0.3418(4)
C41 C 0.6360(5) 0.0426(5) 0.4265(4)
N9 N 0.5577(4) 0.2253(6) 0.2948(4)
H16 H 0.588825 0.216764 0.297477
N10 N 0.4786(4) 0.2211(6) 0.3207(4)
C42 C 0.4954(4) 0.2903(5) 0.2205(4)
C43 C 0.3153(5) 0.2081(6) 0.3568(4)
H17 H 0.311340 0.224664 0.335381
N11 N 0.4037(4) 0.2152(6) 0.3482(4)
H18 H 0.396152 0.238448 0.333259
C44 C 0.5893(5) 0.0619(6) 0.4188(4)
H19 H 0.560853 0.049649 0.430410
C45 C 0.4531(5) 0.2000(7) 0.3471(4)
C46 C 0.5005(5) 0.2609(5) 0.2499(4)
H20 H 0.472513 0.244827 0.259660
C47 C 0.5481(4) 0.2554(6) 0.2652(4)
C48 C 0.3632(5) 0.1997(6) 0.3695(4)
N12 N 0.5352(5) 0.1200(6) 0.3886(4)
H21 H 0.512347 0.108041 0.402377
C49 C 0.6264(5) 0.1140(6) 0.3750(4)
H22 H 0.623026 0.137194 0.356674
C50 C 0.3691(5) 0.1728(6) 0.4002(4)
H23 H 0.401279 0.165022 0.408353
C51 C 0.5887(5) 0.2800(7) 0.2499(4)
H24 H 0.620667 0.276637 0.259834
C52 C 0.5845(5) 0.0997(7) 0.3940(4)
C53 C 0.5185(6) 0.1552(7) 0.3654(5)
C54 C 0.5266(5) 0.2078(7) 0.3196(5)
Cu8 Cu 0.29913(7) 0.05624(8) 0.500000
Cu10 Cu 0.73232(5) 0.34312(5) 0.19429(4)
Cu12 Cu 0.15688(5) 0.23232(5) 0.30571(4)
Cu14 Cu 0.76768(5) 0.15688(5) 0.30571(4)
Cu15 Cu 0.11946(5) 0.17776(5) 0.35176(4)
Cu18 Cu 0.67776(5) 0.38054(5) 0.14824(4)
Cu19 Cu 0.38054(5) 0.32224(5) 0.14824(4)
O26 O 0.8786(3) 0.1433(3) 0.3245(2)
O28 O 0.2802(3) 0.2729(3) 0.1689(2)
O30 O 0.8200(3) 0.0579(3) 0.3249(2)
O31 O 0.3975(3) 0.0192(3) 0.5352(3)
O33 O 0.8197(4) 0.1848(3) 0.3742(2)
O34 O 0.3255(3) 0.3294(3) 0.2184(2)
O36 O 0.3764(3) 0.1203(3) 0.5371(2)
O38 O 0.3628(3) 0.2105(3) 0.1652(2)
Cu2 Cu 0.70087(7) 0.94376(8) 0.500000
Cu3 Cu 0.65688(5) 0.73232(5) 0.19429(4)
Cu4 Cu 0.17776(5) 0.88054(5) 0.35176(4)
O1 O 0.3786(3) 0.6433(3) 0.1755(2)
O2 O 0.7802(3) 0.7729(3) 0.3311(2)
O3 O 0.5579(3) 0.6800(3) 0.1751(2)
O5 O 0.8152(3) 0.8197(4) 0.3742(2)
O6 O 0.3294(3) 0.6745(3) 0.2184(2)
O7 O 0.6236(3) 0.8797(3) 0.4629(2)
O8 O 0.5912(3) 0.7318(3) 0.2163(2)
O9 O 0.7057(3) 0.8932(3) 0.4642(2)
O10 O 0.2895(3) 0.8628(3) 0.3348(2)
O11 O 0.2395(3) 0.8995(3) 0.3746(2)
C1 C 0.2816(4) 0.8883(4) 0.3625(4)
C2 C 0.3603(5) 0.9983(5) 0.4537(4)
C3 C 0.3718(4) 0.6668(4) 0.2042(4)
C4 C 0.7209(5) 0.8340(5) 0.4056(3)
H1 H 0.749061 0.846258 0.417467
C5 C 0.6677(5) 0.8746(5) 0.4511(3)
C6 C 0.3220(5) 0.9420(5) 0.4084(4)
H2 H 0.290512 0.956116 0.413270
C7 C 0.6729(5) 0.8427(5) 0.4188(4)
C8 C 0.7785(5) 0.7994(5) 0.3592(4)
C9 C 0.3268(4) 0.9054(5) 0.3827(3)
C10 C 0.5558(5) 0.7072(6) 0.2025(4)
C11 C 0.4172(5) 0.6907(5) 0.2203(4)
C12 C 0.4643(4) 0.6864(5) 0.2053(3)
H3 H 0.468613 0.667727 0.184707
C13 C 0.7268(5) 0.8071(5) 0.3748(3)
N1 N 0.5313(4) 0.8335(6) 0.3701(4)
N2 N 0.4514(4) 0.8264(6) 0.3418(4)
C14 C 0.3640(5) 0.9574(5) 0.4265(4)
N3 N 0.4423(4) 0.7747(6) 0.2948(4)
H4 H 0.411175 0.783236 0.297477
N4 N 0.5214(4) 0.7789(6) 0.3207(4)
C15 C 0.5046(4) 0.7097(5) 0.2205(4)
C16 C 0.6847(5) 0.7919(6) 0.3568(4)
H5 H 0.688660 0.775336 0.335381
N5 N 0.5963(4) 0.7848(6) 0.3482(4)
H6 H 0.603848 0.761552 0.333259
C17 C 0.4107(5) 0.9381(6) 0.4188(4)
H7 H 0.439147 0.950351 0.430410
C18 C 0.5469(5) 0.8000(7) 0.3471(4)
C19 C 0.4995(5) 0.7391(5) 0.2499(4)
H8 H 0.527487 0.755173 0.259660
C20 C 0.4519(4) 0.7446(6) 0.2652(4)
C21 C 0.6368(5) 0.8003(6) 0.3695(4)
N6 N 0.4648(5) 0.8800(6) 0.3886(4)
H9 H 0.487653 0.891959 0.402377
C22 C 0.3736(5) 0.8860(6) 0.3750(4)
H10 H 0.376974 0.862806 0.356674
C23 C 0.6309(5) 0.8272(6) 0.4002(4)
H11 H 0.598721 0.834978 0.408353
C24 C 0.4113(5) 0.7200(7) 0.2499(4)
H12 H 0.379333 0.723363 0.259834
C25 C 0.4155(5) 0.9003(7) 0.3940(4)
C26 C 0.4815(6) 0.8448(7) 0.3654(5)
C27 C 0.4734(5) 0.7922(7) 0.3196(5)
O16 O 0.6025(3) 0.9808(3) 0.4648(3)
O24 O 0.6857(4) 0.9938(3) 0.4642(3)
Cu7 Cu 0.60852(7) 0.92856(8) 0.500000
Cu9 Cu 0.26768(5) 0.65688(5) 0.19429(4)
Cu11 Cu 0.84312(5) 0.76768(5) 0.30571(4)
Cu13 Cu 0.23232(5) 0.84312(5) 0.30571(4)
Cu16 Cu 0.88054(5) 0.82224(5) 0.35176(4)
Cu17 Cu 0.32224(5) 0.61946(5) 0.14824(4)
Cu20 Cu 0.61946(5) 0.67776(5) 0.14824(4)
O25 O 0.1214(3) 0.8567(3) 0.3245(2)
O27 O 0.7198(3) 0.7271(3) 0.1689(2)
O29 O 0.1800(3) 0.9421(3) 0.3249(2)
O32 O 0.1803(4) 0.8152(3) 0.3742(2)
O35 O 0.6745(3) 0.6706(3) 0.2184(2)
O37 O 0.7057(3) 0.8932(3) 0.5358(2)
O39 O 0.6372(3) 0.7895(3) 0.1652(2)
O40 O 0.6857(4) 0.9938(3) 0.5358(3)
O37_2 O 0.2943(3) 0.1068(3) 0.5358(2)
O40_2 O 0.3143(4) 0.0062(3) 0.5358(3)
O31_2 O 0.6025(3) 0.9808(3) 0.5352(3)
O36_2 O 0.6236(3) 0.8797(3) 0.5371(2)
Cu2_2 Cu 0.05624(8) 0.70087(7) 0.500000
O1_2 O 0.3567(3) 0.3786(3) 0.1755(2)
O2_2 O 0.2271(3) 0.7802(3) 0.3311(2)
O3_2 O 0.3200(3) 0.5579(3) 0.1751(2)
O7_2 O 0.1203(3) 0.6236(3) 0.4629(2)
O8_2 O 0.2682(3) 0.5912(3) 0.2163(2)
O9_2 O 0.1068(3) 0.7057(3) 0.4642(2)
O10_2 O 0.1372(3) 0.2895(3) 0.3348(2)
O11_2 O 0.1005(3) 0.2395(3) 0.3746(2)
C1_2 C 0.1117(4) 0.2816(4) 0.3625(4)
C2_2 C 0.0017(5) 0.3603(5) 0.4537(4)
C3_2 C 0.3332(4) 0.3718(4) 0.2042(4)
C4_2 C 0.1660(5) 0.7209(5) 0.4056(3)
H1_2 H 0.153742 0.749061 0.417467
C5_2 C 0.1254(5) 0.6677(5) 0.4511(3)
C6_2 C 0.0580(5) 0.3220(5) 0.4084(4)
H2_2 H 0.043884 0.290512 0.413270
C7_2 C 0.1573(5) 0.6729(5) 0.4188(4)
C8_2 C 0.2006(5) 0.7785(5) 0.3592(4)
C9_2 C 0.0946(5) 0.3268(4) 0.3827(3)
C10_2 C 0.2928(6) 0.5558(5) 0.2025(4)
C11_2 C 0.3093(5) 0.4172(5) 0.2203(4)
C12_2 C 0.3136(5) 0.4643(4) 0.2053(3)
H3_2 H 0.332273 0.468613 0.184707
C13_2 C 0.1929(5) 0.7268(5) 0.3748(3)
N1_2 N 0.1665(6) 0.5313(4) 0.3701(4)
N2_2 N 0.1736(6) 0.4514(4) 0.3418(4)
C14_2 C 0.0426(5) 0.3640(5) 0.4265(4)
N3_2 N 0.2253(6) 0.4423(4) 0.2948(4)
H4_2 H 0.216764 0.411175 0.297477
N4_2 N 0.2211(6) 0.5214(4) 0.3207(4)
C15_2 C 0.2903(5) 0.5046(4) 0.2205(4)
C16_2 C 0.2081(6) 0.6847(5) 0.3568(4)
H5_2 H 0.224664 0.688660 0.335381
N5_2 N 0.2152(6) 0.5963(4) 0.3482(4)
H6_2 H 0.238448 0.603848 0.333259
C17_2 C 0.0619(6) 0.4107(5) 0.4188(4)
H7_2 H 0.049649 0.439147 0.430410
C18_2 C 0.2000(7) 0.5469(5) 0.3471(4)
C19_2 C 0.2609(5) 0.4995(5) 0.2499(4)
H8_2 H 0.244827 0.527487 0.259660
C20_2 C 0.2554(6) 0.4519(4) 0.2652(4)
C21_2 C 0.1997(6) 0.6368(5) 0.3695(4)
N6_2 N 0.1200(6) 0.4648(5) 0.3886(4)
H9_2 H 0.108041 0.487653 0.402377
C22_2 C 0.1140(6) 0.3736(5) 0.3750(4)
H10_2 H 0.137194 0.376974 0.356674
C23_2 C 0.1728(6) 0.6309(5) 0.4002(4)
H11_2 H 0.165022 0.598721 0.408353
C24_2 C 0.2800(7) 0.4113(5) 0.2499(4)
H12_2 H 0.276637 0.379333 0.259834
C25_2 C 0.0997(7) 0.4155(5) 0.3940(4)
C26_2 C 0.1552(7) 0.4815(6) 0.3654(5)
C27_2 C 0.2078(7) 0.4734(5) 0.3196(5)
O16_2 O 0.0192(3) 0.6025(3) 0.4648(3)
O24_2 O 0.0062(3) 0.6857(4) 0.4642(3)
Cu7_2 Cu 0.07144(8) 0.60852(7) 0.500000
O25_2 O 0.1433(3) 0.1214(3) 0.3245(2)
O27_2 O 0.2729(3) 0.7198(3) 0.1689(2)
O29_2 O 0.0579(3) 0.1800(3) 0.3249(2)
O37_3 O 0.1068(3) 0.7057(3) 0.5358(2)
O39_2 O 0.2105(3) 0.6372(3) 0.1652(2)
O40_3 O 0.0062(3) 0.6857(4) 0.5358(3)
Cu1_2 Cu 0.92856(8) 0.39148(7) 0.500000
O4_2 O 0.9808(3) 0.3975(3) 0.4648(3)
O12_2 O 0.9938(3) 0.3143(4) 0.4642(3)
O13_2 O 0.6433(3) 0.6214(3) 0.1755(2)
O14_2 O 0.7729(3) 0.2198(3) 0.3311(2)
O15_2 O 0.6800(3) 0.4421(3) 0.1751(2)
O19_2 O 0.8797(3) 0.3764(3) 0.4629(2)
O20_2 O 0.7318(3) 0.4088(3) 0.2163(2)
O21_2 O 0.8932(3) 0.2943(3) 0.4642(2)
O22_2 O 0.8628(3) 0.7105(3) 0.3348(2)
O23_2 O 0.8995(3) 0.7605(3) 0.3746(2)
C28_2 C 0.8883(4) 0.7184(4) 0.3625(4)
C29_2 C 0.9983(5) 0.6397(5) 0.4537(4)
C30_2 C 0.6668(4) 0.6282(4) 0.2042(4)
C31_2 C 0.8340(5) 0.2791(5) 0.4056(3)
H13_2 H 0.846258 0.250939 0.417467
C32_2 C 0.8746(5) 0.3323(5) 0.4511(3)
C33_2 C 0.9420(5) 0.6780(5) 0.4084(4)
H14_2 H 0.956116 0.709488 0.413270
C34_2 C 0.8427(5) 0.3271(5) 0.4188(4)
C35_2 C 0.7994(5) 0.2215(5) 0.3592(4)
C36_2 C 0.9054(5) 0.6732(4) 0.3827(3)
C37_2 C 0.7072(6) 0.4442(5) 0.2025(4)
C38_2 C 0.6907(5) 0.5828(5) 0.2203(4)
C39_2 C 0.6864(5) 0.5357(4) 0.2053(3)
H15_2 H 0.667727 0.531387 0.184707
C40_2 C 0.8071(5) 0.2732(5) 0.3748(3)
N7_2 N 0.8335(6) 0.4687(4) 0.3701(4)
N8_2 N 0.8264(6) 0.5486(4) 0.3418(4)
C41_2 C 0.9574(5) 0.6360(5) 0.4265(4)
N9_2 N 0.7747(6) 0.5577(4) 0.2948(4)
H16_2 H 0.783236 0.588825 0.297477
N10_2 N 0.7789(6) 0.4786(4) 0.3207(4)
C42_2 C 0.7097(5) 0.4954(4) 0.2205(4)
C43_2 C 0.7919(6) 0.3153(5) 0.3568(4)
H17_2 H 0.775336 0.311340 0.335381
N11_2 N 0.7848(6) 0.4037(4) 0.3482(4)
H18_2 H 0.761552 0.396152 0.333259
C44_2 C 0.9381(6) 0.5893(5) 0.4188(4)
H19_2 H 0.950351 0.560853 0.430410
C45_2 C 0.8000(7) 0.4531(5) 0.3471(4)
C46_2 C 0.7391(5) 0.5005(5) 0.2499(4)
H20_2 H 0.755173 0.472513 0.259660
C47_2 C 0.7446(6) 0.5481(4) 0.2652(4)
C48_2 C 0.8003(6) 0.3632(5) 0.3695(4)
N12_2 N 0.8800(6) 0.5352(5) 0.3886(4)
H21_2 H 0.891959 0.512347 0.402377
C49_2 C 0.8860(6) 0.6264(5) 0.3750(4)
H22_2 H 0.862806 0.623026 0.356674
C50_2 C 0.8272(6) 0.3691(5) 0.4002(4)
H23_2 H 0.834978 0.401279 0.408353
C51_2 C 0.7200(7) 0.5887(5) 0.2499(4)
H24_2 H 0.723363 0.620667 0.259834
C52_2 C 0.9003(7) 0.5845(5) 0.3940(4)
C53_2 C 0.8448(7) 0.5185(6) 0.3654(5)
C54_2 C 0.7922(7) 0.5266(5) 0.3196(5)
Cu8_2 Cu 0.94376(8) 0.29913(7) 0.500000
O26_2 O 0.8567(3) 0.8786(3) 0.3245(2)
O28_2 O 0.7271(3) 0.2802(3) 0.1689(2)
O30_2 O 0.9421(3) 0.8200(3) 0.3249(2)
O31_3 O 0.9808(3) 0.3975(3) 0.5352(3)
O36_3 O 0.8797(3) 0.3764(3) 0.5371(2)
O38_2 O 0.7895(3) 0.3628(3) 0.1652(2)
O31_4 O 0.0192(3) 0.6025(3) 0.5352(3)
O36_4 O 0.1203(3) 0.6236(3) 0.5371(2)
O37_4 O 0.8932(3) 0.2943(3) 0.5358(2)
O40_4 O 0.9938(3) 0.3143(4) 0.5358(3)
Cu2_3 Cu 0.20087(7) 0.44376(8) -0.000000
Cu7_3 Cu 0.10852(7) 0.42856(8) -0.000000
O37_5 O 0.2057(3) 0.3932(3) 0.0358(2)
O40_5 O 0.1857(4) 0.4938(3) 0.0358(3)
Cu2_4 Cu 0.20087(7) 0.44376(8) 1.000000
Cu3_2 Cu 0.15688(5) 0.23232(5) 0.69429(4)
O2_3 O 0.2802(3) 0.2729(3) 0.8311(2)
O3_3 O 0.0579(3) 0.1800(3) 0.6751(2)
O5_2 O 0.3152(3) 0.3197(4) 0.8742(2)
O7_3 O 0.1236(3) 0.3797(3) 0.9629(2)
O8_3 O 0.0912(3) 0.2318(3) 0.7163(2)
O9_3 O 0.2057(3) 0.3932(3) 0.9642(2)
C4_3 C 0.2209(5) 0.3340(5) 0.9056(3)
H1_3 H 0.249061 0.346258 0.917467
C5_3 C 0.1677(5) 0.3746(5) 0.9511(3)
C7_3 C 0.1729(5) 0.3427(5) 0.9188(4)
C8_3 C 0.2785(5) 0.2994(5) 0.8592(4)
C10_3 C 0.0558(5) 0.2072(6) 0.7025(4)
C13_3 C 0.2268(5) 0.3071(5) 0.8748(3)
N1_3 N 0.0313(4) 0.3335(6) 0.8701(4)
N4_3 N 0.0214(4) 0.2789(6) 0.8207(4)
C15_3 C 0.0046(4) 0.2097(5) 0.7205(4)
C16_3 C 0.1847(5) 0.2919(6) 0.8568(4)
H5_3 H 0.188660 0.275336 0.835381
N5_3 N 0.0963(4) 0.2848(6) 0.8482(4)
H6_3 H 0.103848 0.261552 0.833259
C18_3 C 0.0469(5) 0.3000(7) 0.8471(4)
H8_3 H 0.027487 0.255173 0.759660
C21_3 C 0.1368(5) 0.3003(6) 0.8695(4)
C23_3 C 0.1309(5) 0.3272(6) 0.9002(4)
H11_3 H 0.098721 0.334978 0.908353
Cu6_2 Cu 0.32224(5) 0.61946(5) 0.85176(4)
O13_3 O 0.1214(3) 0.8567(3) 0.6755(2)
O16_3 O 0.1025(3) 0.4808(3) 0.9648(3)
O18_2 O 0.1706(3) 0.8255(3) 0.7184(2)
O22_3 O 0.2105(3) 0.6372(3) 0.8348(2)
O23_3 O 0.2605(3) 0.6005(3) 0.8746(2)
O24_3 O 0.1857(4) 0.4938(3) 0.9642(3)
C28_3 C 0.2184(4) 0.6117(4) 0.8625(4)
C29_3 C 0.1397(5) 0.5017(5) 0.9537(4)
C30_3 C 0.1282(4) 0.8332(4) 0.7042(4)
C33_3 C 0.1780(5) 0.5580(5) 0.9084(4)
H14_3 H 0.209488 0.543884 0.913270
C36_3 C 0.1732(4) 0.5946(5) 0.8827(3)
C38_3 C 0.0828(5) 0.8093(5) 0.7203(4)
C39_3 C 0.0357(4) 0.8136(5) 0.7053(3)
H15_3 H 0.031387 0.832273 0.684707
N8_3 N 0.0486(4) 0.6736(6) 0.8418(4)
C41_3 C 0.1360(5) 0.5426(5) 0.9265(4)
N9_3 N 0.0577(4) 0.7253(6) 0.7948(4)
H16_3 H 0.088825 0.716764 0.797477
C44_3 C 0.0893(5) 0.5619(6) 0.9188(4)
H19_3 H 0.060853 0.549649 0.930410
C46_3 C 0.0005(5) 0.7609(5) 0.7499(4)
C47_3 C 0.0481(4) 0.7554(6) 0.7652(4)
N12_3 N 0.0352(5) 0.6200(6) 0.8886(4)
H21_3 H 0.012347 0.608041 0.902377
C49_3 C 0.1264(5) 0.6140(6) 0.8750(4)
H22_3 H 0.123026 0.637194 0.856674
C51_3 C 0.0887(5) 0.7800(7) 0.7499(4)
H24_3 H 0.120667 0.776637 0.759834
C52_3 C 0.0845(5) 0.5997(7) 0.8940(4)
C53_3 C 0.0185(6) 0.6552(7) 0.8654(5)
C54_3 C 0.0266(5) 0.7078(7) 0.8196(5)
Cu7_4 Cu 0.10852(7) 0.42856(8) 1.000000
Cu10_2 Cu 0.23232(5) 0.84312(5) 0.69429(4)
Cu11_2 Cu 0.34312(5) 0.26768(5) 0.80571(4)
Cu14_2 Cu 0.26768(5) 0.65688(5) 0.80571(4)
Cu16_2 Cu 0.38054(5) 0.32224(5) 0.85176(4)
Cu18_2 Cu 0.17776(5) 0.88054(5) 0.64824(4)
Cu20_2 Cu 0.11946(5) 0.17776(5) 0.64824(4)
O26_3 O 0.3786(3) 0.6433(3) 0.8245(2)
O27_3 O 0.2198(3) 0.2271(3) 0.6689(2)
O30_3 O 0.3200(3) 0.5579(3) 0.8249(2)
O33_2 O 0.3197(4) 0.6848(3) 0.8742(2)
O35_2 O 0.1745(3) 0.1706(3) 0.7184(2)
O39_3 O 0.1372(3) 0.2895(3) 0.6652(2)
Cu1_3 Cu 0.89148(7) 0.57144(8) -0.000000
Cu8_3 Cu 0.79913(7) 0.55624(8) -0.000000
O31_5 O 0.8975(3) 0.5192(3) 0.0352(3)
O36_5 O 0.8764(3) 0.6203(3) 0.0371(2)
Cu1_4 Cu 0.89148(7) 0.57144(8) 1.000000
Cu4_2 Cu 0.67776(5) 0.38054(5) 0.85176(4)
O1_3 O 0.8786(3) 0.1433(3) 0.6755(2)
O4_3 O 0.8975(3) 0.5192(3) 0.9648(3)
O6_2 O 0.8294(3) 0.1745(3) 0.7184(2)
O10_3 O 0.7895(3) 0.3628(3) 0.8348(2)
O11_3 O 0.7395(3) 0.3995(3) 0.8746(2)
O12_3 O 0.8143(4) 0.5062(3) 0.9642(3)
C1_3 C 0.7816(4) 0.3883(4) 0.8625(4)
C2_3 C 0.8603(5) 0.4983(5) 0.9537(4)
C3_3 C 0.8718(4) 0.1668(4) 0.7042(4)
C6_3 C 0.8220(5) 0.4420(5) 0.9084(4)
H2_3 H 0.790512 0.456116 0.913270
C9_3 C 0.8268(4) 0.4054(5) 0.8827(3)
C11_3 C 0.9172(5) 0.1907(5) 0.7203(4)
C12_3 C 0.9643(4) 0.1864(5) 0.7053(3)
H3_3 H 0.968613 0.167727 0.684707
N2_3 N 0.9514(4) 0.3264(6) 0.8418(4)
C14_3 C 0.8640(5) 0.4574(5) 0.9265(4)
N3_3 N 0.9423(4) 0.2747(6) 0.7948(4)
H4_3 H 0.911175 0.283236 0.797477
C17_3 C 0.9107(5) 0.4381(6) 0.9188(4)
H7_3 H 0.939147 0.450351 0.930410
C19_3 C 0.9995(5) 0.2391(5) 0.7499(4)
C20_3 C 0.9519(4) 0.2446(6) 0.7652(4)
N6_3 N 0.9648(5) 0.3800(6) 0.8886(4)
H9_3 H 0.987653 0.391959 0.902377
C22_3 C 0.8736(5) 0.3860(6) 0.8750(4)
H10_3 H 0.876974 0.362806 0.856674
C24_3 C 0.9113(5) 0.2200(7) 0.7499(4)
H12_3 H 0.879333 0.223363 0.759834
C25_3 C 0.9155(5) 0.4003(7) 0.8940(4)
C26_3 C 0.9815(6) 0.3448(7) 0.8654(5)
C27_3 C 0.9734(5) 0.2922(7) 0.8196(5)
Cu5_2 Cu 0.84312(5) 0.76768(5) 0.69429(4)
O14_3 O 0.7198(3) 0.7271(3) 0.8311(2)
O15_3 O 0.9421(3) 0.8200(3) 0.6751(2)
O17_2 O 0.6848(3) 0.6803(4) 0.8742(2)
O19_3 O 0.8764(3) 0.6203(3) 0.9629(2)
O20_3 O 0.9088(3) 0.7682(3) 0.7163(2)
O21_3 O 0.7943(3) 0.6068(3) 0.9642(2)
C31_3 C 0.7791(5) 0.6660(5) 0.9056(3)
H13_3 H 0.750939 0.653742 0.917467
C32_3 C 0.8323(5) 0.6254(5) 0.9511(3)
C34_3 C 0.8271(5) 0.6573(5) 0.9188(4)
C35_3 C 0.7215(5) 0.7006(5) 0.8592(4)
C37_3 C 0.9442(5) 0.7928(6) 0.7025(4)
C40_3 C 0.7732(5) 0.6929(5) 0.8748(3)
N7_3 N 0.9687(4) 0.6665(6) 0.8701(4)
N10_3 N 0.9786(4) 0.7211(6) 0.8207(4)
C42_3 C 0.9954(4) 0.7903(5) 0.7205(4)
C43_3 C 0.8153(5) 0.7081(6) 0.8568(4)
H17_3 H 0.811340 0.724664 0.835381
N11_3 N 0.9037(4) 0.7152(6) 0.8482(4)
H18_3 H 0.896152 0.738448 0.833259
C45_3 C 0.9531(5) 0.7000(7) 0.8471(4)
H20_3 H 0.972513 0.744827 0.759660
C48_3 C 0.8632(5) 0.6997(6) 0.8695(4)
C50_3 C 0.8691(5) 0.6728(6) 0.9002(4)
H23_3 H 0.901279 0.665022 0.908353
Cu8_4 Cu 0.79913(7) 0.55624(8) 1.000000
Cu9_2 Cu 0.76768(5) 0.15688(5) 0.69429(4)
Cu12_2 Cu 0.65688(5) 0.73232(5) 0.80571(4)
Cu13_2 Cu 0.73232(5) 0.34312(5) 0.80571(4)
Cu15_2 Cu 0.61946(5) 0.67776(5) 0.85176(4)
Cu17_2 Cu 0.82224(5) 0.11946(5) 0.64824(4)
Cu19_2 Cu 0.88054(5) 0.82224(5) 0.64824(4)
O25_3 O 0.6214(3) 0.3567(3) 0.8245(2)
O28_3 O 0.7802(3) 0.7729(3) 0.6689(2)
O29_3 O 0.6800(3) 0.4421(3) 0.8249(2)
O32_2 O 0.6803(4) 0.3152(3) 0.8742(2)
O34_2 O 0.8255(3) 0.8294(3) 0.7184(2)
O38_3 O 0.8628(3) 0.7105(3) 0.6652(2)
O31_6 O 0.1025(3) 0.4808(3) 0.0352(3)
O36_6 O 0.1236(3) 0.3797(3) 0.0371(2)
O37_6 O 0.7943(3) 0.6068(3) 0.0358(2)
O40_6 O 0.8143(4) 0.5062(3) 0.0358(3)
Cu2_5 Cu 0.55624(8) 0.20087(7) -0.000000
Cu7_5 Cu 0.57144(8) 0.10852(7) -0.000000
O37_7 O 0.6068(3) 0.2057(3) 0.0358(2)
O40_7 O 0.5062(3) 0.1857(4) 0.0358(3)
Cu2_6 Cu 0.55624(8) 0.20087(7) 1.000000
O2_4 O 0.7271(3) 0.2802(3) 0.8311(2)
O3_4 O 0.8200(3) 0.0579(3) 0.6751(2)
O7_4 O 0.6203(3) 0.1236(3) 0.9629(2)
O8_4 O 0.7682(3) 0.0912(3) 0.7163(2)
O9_4 O 0.6068(3) 0.2057(3) 0.9642(2)
C4_4 C 0.6660(5) 0.2209(5) 0.9056(3)
H1_4 H 0.653742 0.249061 0.917467
C5_4 C 0.6254(5) 0.1677(5) 0.9511(3)
C7_4 C 0.6573(5) 0.1729(5) 0.9188(4)
C8_4 C 0.7006(5) 0.2785(5) 0.8592(4)
C10_4 C 0.7928(6) 0.0558(5) 0.7025(4)
C13_4 C 0.6929(5) 0.2268(5) 0.8748(3)
N1_4 N 0.6665(6) 0.0313(4) 0.8701(4)
N4_4 N 0.7211(6) 0.0214(4) 0.8207(4)
C15_4 C 0.7903(5) 0.0046(4) 0.7205(4)
C16_4 C 0.7081(6) 0.1847(5) 0.8568(4)
H5_4 H 0.724664 0.188660 0.835381
N5_4 N 0.7152(6) 0.0963(4) 0.8482(4)
H6_4 H 0.738448 0.103848 0.833259
C18_4 C 0.7000(7) 0.0469(5) 0.8471(4)
H8_4 H 0.744827 0.027487 0.759660
C21_4 C 0.6997(6) 0.1368(5) 0.8695(4)
C23_4 C 0.6728(6) 0.1309(5) 0.9002(4)
H11_4 H 0.665022 0.098721 0.908353
O13_4 O 0.1433(3) 0.1214(3) 0.6755(2)
O16_4 O 0.5192(3) 0.1025(3) 0.9648(3)
O22_4 O 0.3628(3) 0.2105(3) 0.8348(2)
O23_4 O 0.3995(3) 0.2605(3) 0.8746(2)
O24_4 O 0.5062(3) 0.1857(4) 0.9642(3)
C28_4 C 0.3883(4) 0.2184(4) 0.8625(4)
C29_4 C 0.4983(5) 0.1397(5) 0.9537(4)
C30_4 C 0.1668(4) 0.1282(4) 0.7042(4)
C33_4 C 0.4420(5) 0.1780(5) 0.9084(4)
H14_4 H 0.456116 0.209488 0.913270
C36_4 C 0.4054(5) 0.1732(4) 0.8827(3)
C38_4 C 0.1907(5) 0.0828(5) 0.7203(4)
C39_4 C 0.1864(5) 0.0357(4) 0.7053(3)
H15_4 H 0.167727 0.031387 0.684707
N8_4 N 0.3264(6) 0.0486(4) 0.8418(4)
C41_4 C 0.4574(5) 0.1360(5) 0.9265(4)
N9_4 N 0.2747(6) 0.0577(4) 0.7948(4)
H16_4 H 0.283236 0.088825 0.797477
C44_4 C 0.4381(6) 0.0893(5) 0.9188(4)
H19_4 H 0.450351 0.060853 0.930410
C46_4 C 0.2391(5) 0.0005(5) 0.7499(4)
C47_4 C 0.2446(6) 0.0481(4) 0.7652(4)
N12_4 N 0.3800(6) 0.0352(5) 0.8886(4)
H21_4 H 0.391959 0.012347 0.902377
C49_4 C 0.3860(6) 0.1264(5) 0.8750(4)
H22_4 H 0.362806 0.123026 0.856674
C51_4 C 0.2200(7) 0.0887(5) 0.7499(4)
H24_4 H 0.223363 0.120667 0.759834
C52_4 C 0.4003(7) 0.0845(5) 0.8940(4)
C53_4 C 0.3448(7) 0.0185(6) 0.8654(5)
C54_4 C 0.2922(7) 0.0266(5) 0.8196(5)
Cu7_6 Cu 0.57144(8) 0.10852(7) 1.000000
O26_4 O 0.3567(3) 0.3786(3) 0.8245(2)
O27_4 O 0.7729(3) 0.2198(3) 0.6689(2)
O30_4 O 0.4421(3) 0.3200(3) 0.8249(2)
O39_4 O 0.7105(3) 0.1372(3) 0.6652(2)
Cu1_5 Cu 0.42856(8) 0.89148(7) -0.000000
Cu8_5 Cu 0.44376(8) 0.79913(7) -0.000000
O31_7 O 0.4808(3) 0.8975(3) 0.0352(3)
O36_7 O 0.3797(3) 0.8764(3) 0.0371(2)
Cu1_6 Cu 0.42856(8) 0.89148(7) 1.000000
O1_4 O 0.8567(3) 0.8786(3) 0.6755(2)
O4_4 O 0.4808(3) 0.8975(3) 0.9648(3)
O10_4 O 0.6372(3) 0.7895(3) 0.8348(2)
O11_4 O 0.6005(3) 0.7395(3) 0.8746(2)
O12_4 O 0.4938(3) 0.8143(4) 0.9642(3)
C1_4 C 0.6117(4) 0.7816(4) 0.8625(4)
C2_4 C 0.5017(5) 0.8603(5) 0.9537(4)
C3_4 C 0.8332(4) 0.8718(4) 0.7042(4)
C6_4 C 0.5580(5) 0.8220(5) 0.9084(4)
H2_4 H 0.543884 0.790512 0.913270
C9_4 C 0.5946(5) 0.8268(4) 0.8827(3)
C11_4 C 0.8093(5) 0.9172(5) 0.7203(4)
C12_4 C 0.8136(5) 0.9643(4) 0.7053(3)
H3_4 H 0.832273 0.968613 0.684707
N2_4 N 0.6736(6) 0.9514(4) 0.8418(4)
C14_4 C 0.5426(5) 0.8640(5) 0.9265(4)
N3_4 N 0.7253(6) 0.9423(4) 0.7948(4)
H4_4 H 0.716764 0.911175 0.797477
C17_4 C 0.5619(6) 0.9107(5) 0.9188(4)
H7_4 H 0.549649 0.939147 0.930410
C19_4 C 0.7609(5) 0.9995(5) 0.7499(4)
C20_4 C 0.7554(6) 0.9519(4) 0.7652(4)
N6_4 N 0.6200(6) 0.9648(5) 0.8886(4)
H9_4 H 0.608041 0.987653 0.902377
C22_4 C 0.6140(6) 0.8736(5) 0.8750(4)
H10_4 H 0.637194 0.876974 0.856674
C24_4 C 0.7800(7) 0.9113(5) 0.7499(4)
H12_4 H 0.776637 0.879333 0.759834
C25_4 C 0.5997(7) 0.9155(5) 0.8940(4)
C26_4 C 0.6552(7) 0.9815(6) 0.8654(5)
C27_4 C 0.7078(7) 0.9734(5) 0.8196(5)
O14_4 O 0.2729(3) 0.7198(3) 0.8311(2)
O15_4 O 0.1800(3) 0.9421(3) 0.6751(2)
O19_4 O 0.3797(3) 0.8764(3) 0.9629(2)
O20_4 O 0.2318(3) 0.9088(3) 0.7163(2)
O21_4 O 0.3932(3) 0.7943(3) 0.9642(2)
C31_4 C 0.3340(5) 0.7791(5) 0.9056(3)
H13_4 H 0.346258 0.750939 0.917467
C32_4 C 0.3746(5) 0.8323(5) 0.9511(3)
C34_4 C 0.3427(5) 0.8271(5) 0.9188(4)
C35_4 C 0.2994(5) 0.7215(5) 0.8592(4)
C37_4 C 0.2072(6) 0.9442(5) 0.7025(4)
C40_4 C 0.3071(5) 0.7732(5) 0.8748(3)
N7_4 N 0.3335(6) 0.9687(4) 0.8701(4)
N10_4 N 0.2789(6) 0.9786(4) 0.8207(4)
C42_4 C 0.2097(5) 0.9954(4) 0.7205(4)
C43_4 C 0.2919(6) 0.8153(5) 0.8568(4)
H17_4 H 0.275336 0.811340 0.835381
N11_4 N 0.2848(6) 0.9037(4) 0.8482(4)
H18_4 H 0.261552 0.896152 0.833259
C45_4 C 0.3000(7) 0.9531(5) 0.8471(4)
H20_4 H 0.255173 0.972513 0.759660
C48_4 C 0.3003(6) 0.8632(5) 0.8695(4)
C50_4 C 0.3272(6) 0.8691(5) 0.9002(4)
H23_4 H 0.334978 0.901279 0.908353
Cu8_6 Cu 0.44376(8) 0.79913(7) 1.000000
O25_4 O 0.6433(3) 0.6214(3) 0.8245(2)
O28_4 O 0.2271(3) 0.7802(3) 0.6689(2)
O29_4 O 0.5579(3) 0.6800(3) 0.8249(2)
O38_4 O 0.2895(3) 0.8628(3) 0.6652(2)
O31_8 O 0.5192(3) 0.1025(3) 0.0352(3)
O36_8 O 0.6203(3) 0.1236(3) 0.0371(2)
O37_8 O 0.3932(3) 0.7943(3) 0.0358(2)
O40_8 O 0.4938(3) 0.8143(4) 0.0358(3)
O5_3 O 0.1848(3) 0.1803(4) 0.6258(2)
O6_3 O 0.6706(3) 0.3255(3) 0.7816(2)
O8_5 O 0.4088(3) 0.2682(3) 0.7837(2)
O11_5 O 0.7605(3) 0.1005(3) 0.6254(2)
C1_5 C 0.7184(4) 0.1117(4) 0.6375(4)
C2_5 C 0.6397(5) 0.0017(5) 0.5463(4)
C3_5 C 0.6282(4) 0.3332(4) 0.7958(4)
C4_5 C 0.2791(5) 0.1660(5) 0.5944(3)
H1_5 H 0.250939 0.153742 0.582533
C5_5 C 0.3323(5) 0.1254(5) 0.5489(3)
C6_5 C 0.6780(5) 0.0580(5) 0.5916(4)
H2_5 H 0.709488 0.043884 0.586730
C7_5 C 0.3271(5) 0.1573(5) 0.5812(4)
C8_5 C 0.2215(5) 0.2006(5) 0.6408(4)
C9_5 C 0.6732(4) 0.0946(5) 0.6173(3)
C10_5 C 0.4442(5) 0.2928(6) 0.7975(4)
C11_5 C 0.5828(5) 0.3093(5) 0.7797(4)
C12_5 C 0.5357(4) 0.3136(5) 0.7947(3)
H3_5 H 0.531387 0.332273 0.815293
C13_5 C 0.2732(5) 0.1929(5) 0.6252(3)
N1_5 N 0.4687(4) 0.1665(6) 0.6299(4)
N2_5 N 0.5486(4) 0.1736(6) 0.6582(4)
C14_5 C 0.6360(5) 0.0426(5) 0.5735(4)
N3_5 N 0.5577(4) 0.2253(6) 0.7052(4)
H4_5 H 0.588825 0.216764 0.702523
N4_5 N 0.4786(4) 0.2211(6) 0.6793(4)
C15_5 C 0.4954(4) 0.2903(5) 0.7795(4)
C16_5 C 0.3153(5) 0.2081(6) 0.6432(4)
H5_5 H 0.311340 0.224664 0.664619
N5_5 N 0.4037(4) 0.2152(6) 0.6518(4)
H6_5 H 0.396152 0.238448 0.666741
C17_5 C 0.5893(5) 0.0619(6) 0.5812(4)
H7_5 H 0.560853 0.049649 0.569590
C18_5 C 0.4531(5) 0.2000(7) 0.6529(4)
C19_5 C 0.5005(5) 0.2609(5) 0.7501(4)
H8_5 H 0.472513 0.244827 0.740340
C20_5 C 0.5481(4) 0.2554(6) 0.7348(4)
C21_5 C 0.3632(5) 0.1997(6) 0.6305(4)
N6_5 N 0.5352(5) 0.1200(6) 0.6114(4)
H9_5 H 0.512347 0.108041 0.597623
C22_5 C 0.6264(5) 0.1140(6) 0.6250(4)
H10_5 H 0.623026 0.137194 0.643326
C23_5 C 0.3691(5) 0.1728(6) 0.5998(4)
H11_5 H 0.401279 0.165022 0.591647
C24_5 C 0.5887(5) 0.2800(7) 0.7501(4)
H12_5 H 0.620667 0.276637 0.740166
C25_5 C 0.5845(5) 0.0997(7) 0.6060(4)
C26_5 C 0.5185(6) 0.1552(7) 0.6346(5)
C27_5 C 0.5266(5) 0.2078(7) 0.6804(5)
O32_3 O 0.8197(4) 0.1848(3) 0.6258(2)
O35_3 O 0.3255(3) 0.3294(3) 0.7816(2)
O17_3 O 0.8152(3) 0.8197(4) 0.6258(2)
O18_3 O 0.3294(3) 0.6745(3) 0.7816(2)
O20_5 O 0.5912(3) 0.7318(3) 0.7837(2)
O23_5 O 0.2395(3) 0.8995(3) 0.6254(2)
C28_5 C 0.2816(4) 0.8883(4) 0.6375(4)
C29_5 C 0.3603(5) 0.9983(5) 0.5463(4)
C30_5 C 0.3718(4) 0.6668(4) 0.7958(4)
C31_5 C 0.7209(5) 0.8340(5) 0.5944(3)
H13_5 H 0.749061 0.846258 0.582533
C32_5 C 0.6677(5) 0.8746(5) 0.5489(3)
C33_5 C 0.3220(5) 0.9420(5) 0.5916(4)
H14_5 H 0.290512 0.956116 0.586730
C34_5 C 0.6729(5) 0.8427(5) 0.5812(4)
C35_5 C 0.7785(5) 0.7994(5) 0.6408(4)
C36_5 C 0.3268(4) 0.9054(5) 0.6173(3)
C37_5 C 0.5558(5) 0.7072(6) 0.7975(4)
C38_5 C 0.4172(5) 0.6907(5) 0.7797(4)
C39_5 C 0.4643(4) 0.6864(5) 0.7947(3)
H15_5 H 0.468613 0.667727 0.815293
C40_5 C 0.7268(5) 0.8071(5) 0.6252(3)
N7_5 N 0.5313(4) 0.8335(6) 0.6299(4)
N8_5 N 0.4514(4) 0.8264(6) 0.6582(4)
C41_5 C 0.3640(5) 0.9574(5) 0.5735(4)
N9_5 N 0.4423(4) 0.7747(6) 0.7052(4)
H16_5 H 0.411175 0.783236 0.702523
N10_5 N 0.5214(4) 0.7789(6) 0.6793(4)
C42_5 C 0.5046(4) 0.7097(5) 0.7795(4)
C43_5 C 0.6847(5) 0.7919(6) 0.6432(4)
H17_5 H 0.688660 0.775336 0.664619
N11_5 N 0.5963(4) 0.7848(6) 0.6518(4)
H18_5 H 0.603848 0.761552 0.666741
C44_5 C 0.4107(5) 0.9381(6) 0.5812(4)
H19_5 H 0.439147 0.950351 0.569590
C45_5 C 0.5469(5) 0.8000(7) 0.6529(4)
C46_5 C 0.4995(5) 0.7391(5) 0.7501(4)
H20_5 H 0.527487 0.755173 0.740340
C47_5 C 0.4519(4) 0.7446(6) 0.7348(4)
C48_5 C 0.6368(5) 0.8003(6) 0.6305(4)
N12_5 N 0.4648(5) 0.8800(6) 0.6114(4)
H21_5 H 0.487653 0.891959 0.597623
C49_5 C 0.3736(5) 0.8860(6) 0.6250(4)
H22_5 H 0.376974 0.862806 0.643326
C50_5 C 0.6309(5) 0.8272(6) 0.5998(4)
H23_5 H 0.598721 0.834978 0.591647
C51_5 C 0.4113(5) 0.7200(7) 0.7501(4)
H24_5 H 0.379333 0.723363 0.740166
C52_5 C 0.4155(5) 0.9003(7) 0.6060(4)
C53_5 C 0.4815(6) 0.8448(7) 0.6346(5)
C54_5 C 0.4734(5) 0.7922(7) 0.6804(5)
O33_3 O 0.1803(4) 0.8152(3) 0.6258(2)
O34_3 O 0.6745(3) 0.6706(3) 0.7816(2)
O20_6 O 0.2682(3) 0.5912(3) 0.7837(2)
O23_6 O 0.1005(3) 0.2395(3) 0.6254(2)
C28_6 C 0.1117(4) 0.2816(4) 0.6375(4)
C29_6 C 0.0017(5) 0.3603(5) 0.5463(4)
C30_6 C 0.3332(4) 0.3718(4) 0.7958(4)
C31_6 C 0.1660(5) 0.7209(5) 0.5944(3)
H13_6 H 0.153742 0.749061 0.582533
C32_6 C 0.1254(5) 0.6677(5) 0.5489(3)
C33_6 C 0.0580(5) 0.3220(5) 0.5916(4)
H14_6 H 0.043884 0.290512 0.586730
C34_6 C 0.1573(5) 0.6729(5) 0.5812(4)
C35_6 C 0.2006(5) 0.7785(5) 0.6408(4)
C36_6 C 0.0946(5) 0.3268(4) 0.6173(3)
C37_6 C 0.2928(6) 0.5558(5) 0.7975(4)
C38_6 C 0.3093(5) 0.4172(5) 0.7797(4)
C39_6 C 0.3136(5) 0.4643(4) 0.7947(3)
H15_6 H 0.332273 0.468613 0.815293
C40_6 C 0.1929(5) 0.7268(5) 0.6252(3)
N7_6 N 0.1665(6) 0.5313(4) 0.6299(4)
N8_6 N 0.1736(6) 0.4514(4) 0.6582(4)
C41_6 C 0.0426(5) 0.3640(5) 0.5735(4)
N9_6 N 0.2253(6) 0.4423(4) 0.7052(4)
H16_6 H 0.216764 0.411175 0.702523
N10_6 N 0.2211(6) 0.5214(4) 0.6793(4)
C42_6 C 0.2903(5) 0.5046(4) 0.7795(4)
C43_6 C 0.2081(6) 0.6847(5) 0.6432(4)
H17_6 H 0.224664 0.688660 0.664619
N11_6 N 0.2152(6) 0.5963(4) 0.6518(4)
H18_6 H 0.238448 0.603848 0.666741
C44_6 C 0.0619(6) 0.4107(5) 0.5812(4)
H19_6 H 0.049649 0.439147 0.569590
C45_6 C 0.2000(7) 0.5469(5) 0.6529(4)
C46_6 C 0.2609(5) 0.4995(5) 0.7501(4)
H20_6 H 0.244827 0.527487 0.740340
C47_6 C 0.2554(6) 0.4519(4) 0.7348(4)
C48_6 C 0.1997(6) 0.6368(5) 0.6305(4)
N12_6 N 0.1200(6) 0.4648(5) 0.6114(4)
H21_6 H 0.108041 0.487653 0.597623
C49_6 C 0.1140(6) 0.3736(5) 0.6250(4)
H22_6 H 0.137194 0.376974 0.643326
C50_6 C 0.1728(6) 0.6309(5) 0.5998(4)
H23_6 H 0.165022 0.598721 0.591647
C51_6 C 0.2800(7) 0.4113(5) 0.7501(4)
H24_6 H 0.276637 0.379333 0.740166
C52_6 C 0.0997(7) 0.4155(5) 0.6060(4)
C53_6 C 0.1552(7) 0.4815(6) 0.6346(5)
C54_6 C 0.2078(7) 0.4734(5) 0.6804(5)
O8_6 O 0.7318(3) 0.4088(3) 0.7837(2)
O11_6 O 0.8995(3) 0.7605(3) 0.6254(2)
C1_6 C 0.8883(4) 0.7184(4) 0.6375(4)
C2_6 C 0.9983(5) 0.6397(5) 0.5463(4)
C3_6 C 0.6668(4) 0.6282(4) 0.7958(4)
C4_6 C 0.8340(5) 0.2791(5) 0.5944(3)
H1_6 H 0.846258 0.250939 0.582533
C5_6 C 0.8746(5) 0.3323(5) 0.5489(3)
C6_6 C 0.9420(5) 0.6780(5) 0.5916(4)
H2_6 H 0.956116 0.709488 0.586730
C7_6 C 0.8427(5) 0.3271(5) 0.5812(4)
C8_6 C 0.7994(5) 0.2215(5) 0.6408(4)
C9_6 C 0.9054(5) 0.6732(4) 0.6173(3)
C10_6 C 0.7072(6) 0.4442(5) 0.7975(4)
C11_6 C 0.6907(5) 0.5828(5) 0.7797(4)
C12_6 C 0.6864(5) 0.5357(4) 0.7947(3)
H3_6 H 0.667727 0.531387 0.815293
C13_6 C 0.8071(5) 0.2732(5) 0.6252(3)
N1_6 N 0.8335(6) 0.4687(4) 0.6299(4)
N2_6 N 0.8264(6) 0.5486(4) 0.6582(4)
C14_6 C 0.9574(5) 0.6360(5) 0.5735(4)
N3_6 N 0.7747(6) 0.5577(4) 0.7052(4)
H4_6 H 0.783236 0.588825 0.702523
N4_6 N 0.7789(6) 0.4786(4) 0.6793(4)
C15_6 C 0.7097(5) 0.4954(4) 0.7795(4)
C16_6 C 0.7919(6) 0.3153(5) 0.6432(4)
H5_6 H 0.775336 0.311340 0.664619
N5_6 N 0.7848(6) 0.4037(4) 0.6518(4)
H6_6 H 0.761552 0.396152 0.666741
C17_6 C 0.9381(6) 0.5893(5) 0.5812(4)
H7_6 H 0.950351 0.560853 0.569590
C18_6 C 0.8000(7) 0.4531(5) 0.6529(4)
C19_6 C 0.7391(5) 0.5005(5) 0.7501(4)
H8_6 H 0.755173 0.472513 0.740340
C20_6 C 0.7446(6) 0.5481(4) 0.7348(4)
C21_6 C 0.8003(6) 0.3632(5) 0.6305(4)
N6_6 N 0.8800(6) 0.5352(5) 0.6114(4)
H9_6 H 0.891959 0.512347 0.597623
C22_6 C 0.8860(6) 0.6264(5) 0.6250(4)
H10_6 H 0.862806 0.623026 0.643326
C23_6 C 0.8272(6) 0.3691(5) 0.5998(4)
H11_6 H 0.834978 0.401279 0.591647
C24_6 C 0.7200(7) 0.5887(5) 0.7501(4)
H12_6 H 0.723363 0.620667 0.740166
C25_6 C 0.9003(7) 0.5845(5) 0.6060(4)
C26_6 C 0.8448(7) 0.5185(6) 0.6346(5)
C27_6 C 0.7922(7) 0.5266(5) 0.6804(5)
O6_4 O 0.1706(3) 0.8255(3) 0.2816(2)
O11_7 O 0.2605(3) 0.6005(3) 0.1254(2)
C1_7 C 0.2184(4) 0.6117(4) 0.1375(4)
C2_7 C 0.1397(5) 0.5017(5) 0.0463(4)
C3_7 C 0.1282(4) 0.8332(4) 0.2958(4)
C6_7 C 0.1780(5) 0.5580(5) 0.0916(4)
H2_7 H 0.209488 0.543884 0.086730
C9_7 C 0.1732(4) 0.5946(5) 0.1173(3)
C11_7 C 0.0828(5) 0.8093(5) 0.2797(4)
C12_7 C 0.0357(4) 0.8136(5) 0.2947(3)
H3_7 H 0.031387 0.832273 0.315293
N2_7 N 0.0486(4) 0.6736(6) 0.1582(4)
C14_7 C 0.1360(5) 0.5426(5) 0.0735(4)
N3_7 N 0.0577(4) 0.7253(6) 0.2052(4)
H4_7 H 0.088825 0.716764 0.202523
C17_7 C 0.0893(5) 0.5619(6) 0.0812(4)
H7_7 H 0.060853 0.549649 0.069590
C19_7 C 0.0005(5) 0.7609(5) 0.2501(4)
C20_7 C 0.0481(4) 0.7554(6) 0.2348(4)
N6_7 N 0.0352(5) 0.6200(6) 0.1114(4)
H9_7 H 0.012347 0.608041 0.097623
C22_7 C 0.1264(5) 0.6140(6) 0.1250(4)
H10_7 H 0.123026 0.637194 0.143326
C24_7 C 0.0887(5) 0.7800(7) 0.2501(4)
H12_7 H 0.120667 0.776637 0.240166
C25_7 C 0.0845(5) 0.5997(7) 0.1060(4)
C26_7 C 0.0185(6) 0.6552(7) 0.1346(5)
C27_7 C 0.0266(5) 0.7078(7) 0.1804(5)
O17_4 O 0.3152(3) 0.3197(4) 0.1258(2)
O20_7 O 0.0912(3) 0.2318(3) 0.2837(2)
C31_7 C 0.2209(5) 0.3340(5) 0.0944(3)
H13_7 H 0.249061 0.346258 0.082533
C32_7 C 0.1677(5) 0.3746(5) 0.0489(3)
C34_7 C 0.1729(5) 0.3427(5) 0.0812(4)
C35_7 C 0.2785(5) 0.2994(5) 0.1408(4)
C37_7 C 0.0558(5) 0.2072(6) 0.2975(4)
C40_7 C 0.2268(5) 0.3071(5) 0.1252(3)
N7_7 N 0.0313(4) 0.3335(6) 0.1299(4)
N10_7 N 0.0214(4) 0.2789(6) 0.1793(4)
C42_7 C 0.0046(4) 0.2097(5) 0.2795(4)
C43_7 C 0.1847(5) 0.2919(6) 0.1432(4)
H17_7 H 0.188660 0.275336 0.164619
N11_7 N 0.0963(4) 0.2848(6) 0.1518(4)
H18_7 H 0.103848 0.261552 0.166741
C45_7 C 0.0469(5) 0.3000(7) 0.1529(4)
H20_7 H 0.027487 0.255173 0.240340
C48_7 C 0.1368(5) 0.3003(6) 0.1305(4)
C50_7 C 0.1309(5) 0.3272(6) 0.0998(4)
H23_7 H 0.098721 0.334978 0.091647
O32_4 O 0.3197(4) 0.6848(3) 0.1258(2)
O34_4 O 0.1745(3) 0.1706(3) 0.2816(2)
O5_4 O 0.6848(3) 0.6803(4) 0.1258(2)
O8_7 O 0.9088(3) 0.7682(3) 0.2837(2)
C4_7 C 0.7791(5) 0.6660(5) 0.0944(3)
H1_7 H 0.750939 0.653742 0.082533
C5_7 C 0.8323(5) 0.6254(5) 0.0489(3)
C7_7 C 0.8271(5) 0.6573(5) 0.0812(4)
C8_7 C 0.7215(5) 0.7006(5) 0.1408(4)
C10_7 C 0.9442(5) 0.7928(6) 0.2975(4)
C13_7 C 0.7732(5) 0.6929(5) 0.1252(3)
N1_7 N 0.9687(4) 0.6665(6) 0.1299(4)
N4_7 N 0.9786(4) 0.7211(6) 0.1793(4)
C15_7 C 0.9954(4) 0.7903(5) 0.2795(4)
C16_7 C 0.8153(5) 0.7081(6) 0.1432(4)
H5_7 H 0.811340 0.724664 0.164619
N5_7 N 0.9037(4) 0.7152(6) 0.1518(4)
H6_7 H 0.896152 0.738448 0.166741
C18_7 C 0.9531(5) 0.7000(7) 0.1529(4)
H8_7 H 0.972513 0.744827 0.240340
C21_7 C 0.8632(5) 0.6997(6) 0.1305(4)
C23_7 C 0.8691(5) 0.6728(6) 0.0998(4)
H11_7 H 0.901279 0.665022 0.091647
O18_4 O 0.8294(3) 0.1745(3) 0.2816(2)
O23_7 O 0.7395(3) 0.3995(3) 0.1254(2)
C28_7 C 0.7816(4) 0.3883(4) 0.1375(4)
C29_7 C 0.8603(5) 0.4983(5) 0.0463(4)
C30_7 C 0.8718(4) 0.1668(4) 0.2958(4)
C33_7 C 0.8220(5) 0.4420(5) 0.0916(4)
H14_7 H 0.790512 0.456116 0.086730
C36_7 C 0.8268(4) 0.4054(5) 0.1173(3)
C38_7 C 0.9172(5) 0.1907(5) 0.2797(4)
C39_7 C 0.9643(4) 0.1864(5) 0.2947(3)
H15_7 H 0.968613 0.167727 0.315293
N8_7 N 0.9514(4) 0.3264(6) 0.1582(4)
C41_7 C 0.8640(5) 0.4574(5) 0.0735(4)
N9_7 N 0.9423(4) 0.2747(6) 0.2052(4)
H16_7 H 0.911175 0.283236 0.202523
C44_7 C 0.9107(5) 0.4381(6) 0.0812(4)
H19_7 H 0.939147 0.450351 0.069590
C46_7 C 0.9995(5) 0.2391(5) 0.2501(4)
C47_7 C 0.9519(4) 0.2446(6) 0.2348(4)
N12_7 N 0.9648(5) 0.3800(6) 0.1114(4)
H21_7 H 0.987653 0.391959 0.097623
C49_7 C 0.8736(5) 0.3860(6) 0.1250(4)
H22_7 H 0.876974 0.362806 0.143326
C51_7 C 0.9113(5) 0.2200(7) 0.2501(4)
H24_7 H 0.879333 0.223363 0.240166
C52_7 C 0.9155(5) 0.4003(7) 0.1060(4)
C53_7 C 0.9815(6) 0.3448(7) 0.1346(5)
C54_7 C 0.9734(5) 0.2922(7) 0.1804(5)
O33_4 O 0.6803(4) 0.3152(3) 0.1258(2)
O35_4 O 0.8255(3) 0.8294(3) 0.2816(2)
O11_8 O 0.3995(3) 0.2605(3) 0.1254(2)
C1_8 C 0.3883(4) 0.2184(4) 0.1375(4)
C2_8 C 0.4983(5) 0.1397(5) 0.0463(4)
C3_8 C 0.1668(4) 0.1282(4) 0.2958(4)
C6_8 C 0.4420(5) 0.1780(5) 0.0916(4)
H2_8 H 0.456116 0.209488 0.086730
C9_8 C 0.4054(5) 0.1732(4) 0.1173(3)
C11_8 C 0.1907(5) 0.0828(5) 0.2797(4)
C12_8 C 0.1864(5) 0.0357(4) 0.2947(3)
H3_8 H 0.167727 0.031387 0.315293
N2_8 N 0.3264(6) 0.0486(4) 0.1582(4)
C14_8 C 0.4574(5) 0.1360(5) 0.0735(4)
N3_8 N 0.2747(6) 0.0577(4) 0.2052(4)
H4_8 H 0.283236 0.088825 0.202523
C17_8 C 0.4381(6) 0.0893(5) 0.0812(4)
H7_8 H 0.450351 0.060853 0.069590
C19_8 C 0.2391(5) 0.0005(5) 0.2501(4)
C20_8 C 0.2446(6) 0.0481(4) 0.2348(4)
N6_8 N 0.3800(6) 0.0352(5) 0.1114(4)
H9_8 H 0.391959 0.012347 0.097623
C22_8 C 0.3860(6) 0.1264(5) 0.1250(4)
H10_8 H 0.362806 0.123026 0.143326
C24_8 C 0.2200(7) 0.0887(5) 0.2501(4)
H12_8 H 0.223363 0.120667 0.240166
C25_8 C 0.4003(7) 0.0845(5) 0.1060(4)
C26_8 C 0.3448(7) 0.0185(6) 0.1346(5)
C27_8 C 0.2922(7) 0.0266(5) 0.1804(5)
O20_8 O 0.7682(3) 0.0912(3) 0.2837(2)
C31_8 C 0.6660(5) 0.2209(5) 0.0944(3)
H13_8 H 0.653742 0.249061 0.082533
C32_8 C 0.6254(5) 0.1677(5) 0.0489(3)
C34_8 C 0.6573(5) 0.1729(5) 0.0812(4)
C35_8 C 0.7006(5) 0.2785(5) 0.1408(4)
C37_8 C 0.7928(6) 0.0558(5) 0.2975(4)
C40_8 C 0.6929(5) 0.2268(5) 0.1252(3)
N7_8 N 0.6665(6) 0.0313(4) 0.1299(4)
N10_8 N 0.7211(6) 0.0214(4) 0.1793(4)
C42_8 C 0.7903(5) 0.0046(4) 0.2795(4)
C43_8 C 0.7081(6) 0.1847(5) 0.1432(4)
H17_8 H 0.724664 0.188660 0.164619
N11_8 N 0.7152(6) 0.0963(4) 0.1518(4)
H18_8 H 0.738448 0.103848 0.166741
C45_8 C 0.7000(7) 0.0469(5) 0.1529(4)
H20_8 H 0.744827 0.027487 0.240340
C48_8 C 0.6997(6) 0.1368(5) 0.1305(4)
C50_8 C 0.6728(6) 0.1309(5) 0.0998(4)
H23_8 H 0.665022 0.098721 0.091647
O8_8 O 0.2318(3) 0.9088(3) 0.2837(2)
C4_8 C 0.3340(5) 0.7791(5) 0.0944(3)
H1_8 H 0.346258 0.750939 0.082533
C5_8 C 0.3746(5) 0.8323(5) 0.0489(3)
C7_8 C 0.3427(5) 0.8271(5) 0.0812(4)
C8_8 C 0.2994(5) 0.7215(5) 0.1408(4)
C10_8 C 0.2072(6) 0.9442(5) 0.2975(4)
C13_8 C 0.3071(5) 0.7732(5) 0.1252(3)
N1_8 N 0.3335(6) 0.9687(4) 0.1299(4)
N4_8 N 0.2789(6) 0.9786(4) 0.1793(4)
C15_8 C 0.2097(5) 0.9954(4) 0.2795(4)
C16_8 C 0.2919(6) 0.8153(5) 0.1432(4)
H5_8 H 0.275336 0.811340 0.164619
N5_8 N 0.2848(6) 0.9037(4) 0.1518(4)
H6_8 H 0.261552 0.896152 0.166741
C18_8 C 0.3000(7) 0.9531(5) 0.1529(4)
H8_8 H 0.255173 0.972513 0.240340
C21_8 C 0.3003(6) 0.8632(5) 0.1305(4)
C23_8 C 0.3272(6) 0.8691(5) 0.0998(4)
H11_8 H 0.334978 0.901279 0.091647
O23_8 O 0.6005(3) 0.7395(3) 0.1254(2)
C28_8 C 0.6117(4) 0.7816(4) 0.1375(4)
C29_8 C 0.5017(5) 0.8603(5) 0.0463(4)
C30_8 C 0.8332(4) 0.8718(4) 0.2958(4)
C33_8 C 0.5580(5) 0.8220(5) 0.0916(4)
H14_8 H 0.543884 0.790512 0.086730
C36_8 C 0.5946(5) 0.8268(4) 0.1173(3)
C38_8 C 0.8093(5) 0.9172(5) 0.2797(4)
C39_8 C 0.8136(5) 0.9643(4) 0.2947(3)
H15_8 H 0.832273 0.968613 0.315293
N8_8 N 0.6736(6) 0.9514(4) 0.1582(4)
C41_8 C 0.5426(5) 0.8640(5) 0.0735(4)
N9_8 N 0.7253(6) 0.9423(4) 0.2052(4)
H16_8 H 0.716764 0.911175 0.202523
C44_8 C 0.5619(6) 0.9107(5) 0.0812(4)
H19_8 H 0.549649 0.939147 0.069590
C46_8 C 0.7609(5) 0.9995(5) 0.2501(4)
C47_8 C 0.7554(6) 0.9519(4) 0.2348(4)
N12_8 N 0.6200(6) 0.9648(5) 0.1114(4)
H21_8 H 0.608041 0.987653 0.097623
C49_8 C 0.6140(6) 0.8736(5) 0.1250(4)
H22_8 H 0.637194 0.876974 0.143326
C51_8 C 0.7800(7) 0.9113(5) 0.2501(4)
H24_8 H 0.776637 0.879333 0.240166
C52_8 C 0.5997(7) 0.9155(5) 0.1060(4)
C53_8 C 0.6552(7) 0.9815(6) 0.1346(5)
C54_8 C 0.7078(7) 0.9734(5) 0.1804(5)
loop_
_geom_bond_atom_site_label_1
_geom_bond_atom_site_label_2
_geom_bond_site_symmetry_1
_geom_bond_site_symmetry_2
Cu1 O4 1_555 1_555
Cu5 O20 1_555 1_555
Cu6 O23 1_555 1_555
O13 C30 1_555 1_555
O14 C35 1_555 1_555
O15 C37 1_555 1_555
O17 C35 1_555 1_555
O18 C30 1_555 1_555
O19 Cu1 1_555 1_555
O20 C37 1_555 1_555
O21 C32 1_555 1_555
O22 C28 1_555 1_555
O23 C28 1_555 1_555
C28 C36 1_555 1_555
C30 C38 1_555 1_555
C31 H13 1_555 1_555
C32 O19 1_555 1_555
C33 H14 1_555 1_555
C34 C31 1_555 1_555
C35 C40 1_555 1_555
C36 C33 1_555 1_555
C37 C42 1_555 1_555
C38 C39 1_555 1_555
C39 H15 1_555 1_555
C40 C31 1_555 1_555
N7 C45 1_555 1_555
N8 C53 1_555 1_555
C41 C29 1_555 1_555
N9 H16 1_555 1_555
N10 C45 1_555 1_555
C42 C39 1_555 1_555
C43 C40 1_555 1_555
H17 C43 1_555 1_555
N11 H18 1_555 1_555
C44 C41 1_555 1_555
H19 C44 1_555 1_555
C45 N11 1_555 1_555
C46 C42 1_555 1_555
H20 C46 1_555 1_555
C47 N9 1_555 1_555
C48 C43 1_555 1_555
N12 H21 1_555 1_555
C49 C36 1_555 1_555
H22 C49 1_555 1_555
C50 C34 1_555 1_555
H23 C50 1_555 1_555
C51 C38 1_555 1_555
H24 C51 1_555 1_555
C52 C44 1_555 1_555
C53 N7 1_555 1_555
C54 N8 1_555 1_555
Cu8 Cu1 1_555 1_555
Cu10 O18 1_555 1_555
Cu12 O14 1_555 1_555
Cu14 Cu6 1_555 1_555
Cu15 O17 1_555 1_555
Cu18 O13 1_555 1_555
Cu19 Cu5 1_555 1_555
O26 Cu6 1_555 1_555
O28 Cu5 1_555 1_555
O30 Cu6 1_555 1_555
O31 Cu1 1_555 1_555
O33 Cu6 1_555 1_555
O34 Cu5 1_555 1_555
O36 Cu1 1_555 1_555
O38 Cu5 1_555 1_555
O12 Cu8 1_555 1_555
O15 Cu19 1_555 1_555
O21 Cu8 1_555 1_555
O22 Cu14 1_555 1_555
C32 C34 1_555 1_555
C33 C41 1_555 1_555
N9 C54 1_555 1_555
N10 C54 1_555 1_555
N11 C48 1_555 1_555
C46 C47 1_555 1_555
C47 C51 1_555 1_555
C48 C50 1_555 1_555
N12 C52 1_555 1_555
N12 C53 1_555 1_555
C49 C52 1_555 1_555
Cu10 Cu18 1_555 1_555
Cu12 Cu15 1_555 1_555
Cu2 O9 1_555 1_555
Cu3 O8 1_555 1_555
Cu4 O11 1_555 1_555
O1 C3 1_555 1_555
O2 C8 1_555 1_555
O3 C10 1_555 1_555
O5 C8 1_555 1_555
O6 C3 1_555 1_555
O7 C5 1_555 1_555
O8 C10 1_555 1_555
O9 C5 1_555 1_555
O10 C1 1_555 1_555
O11 C1 1_555 1_555
C1 C9 1_555 1_555
C2 C14 1_555 1_555
C3 C11 1_555 1_555
C4 H1 1_555 1_555
C5 C7 1_555 1_555
C6 H2 1_555 1_555
C7 C4 1_555 1_555
C8 C13 1_555 1_555
C9 C6 1_555 1_555
C10 C15 1_555 1_555
C11 C12 1_555 1_555
C12 H3 1_555 1_555
C13 C4 1_555 1_555
N1 C18 1_555 1_555
N2 C26 1_555 1_555
C14 C6 1_555 1_555
N3 H4 1_555 1_555
N4 C18 1_555 1_555
C15 C12 1_555 1_555
C16 C13 1_555 1_555
H5 C16 1_555 1_555
N5 H6 1_555 1_555
C17 C14 1_555 1_555
H7 C17 1_555 1_555
C18 N5 1_555 1_555
C19 C15 1_555 1_555
H8 C19 1_555 1_555
C20 N3 1_555 1_555
C21 C16 1_555 1_555
N6 H9 1_555 1_555
C22 C9 1_555 1_555
H10 C22 1_555 1_555
C23 C7 1_555 1_555
H11 C23 1_555 1_555
C24 C11 1_555 1_555
H12 C24 1_555 1_555
C25 C17 1_555 1_555
C26 N1 1_555 1_555
C27 N2 1_555 1_555
O24 Cu2 1_555 1_555
Cu7 Cu2 1_555 1_555
Cu9 O6 1_555 1_555
Cu11 O2 1_555 1_555
Cu13 Cu4 1_555 1_555
Cu16 O5 1_555 1_555
Cu17 O1 1_555 1_555
Cu20 Cu3 1_555 1_555
O25 Cu4 1_555 1_555
O27 Cu3 1_555 1_555
O29 Cu4 1_555 1_555
O32 Cu4 1_555 1_555
O35 Cu3 1_555 1_555
O37 Cu2 1_555 1_555
O39 Cu3 1_555 1_555
O40 Cu2 1_555 1_555
O3 Cu20 1_555 1_555
O7 Cu7 1_555 1_555
O10 Cu13 1_555 1_555
N3 C27 1_555 1_555
N4 C27 1_555 1_555
N5 C21 1_555 1_555
C19 C20 1_555 1_555
C20 C24 1_555 1_555
C21 C23 1_555 1_555
N6 C25 1_555 1_555
N6 C26 1_555 1_555
C22 C25 1_555 1_555
O16 Cu7 1_555 1_555
Cu9 Cu17 1_555 1_555
Cu11 Cu16 1_555 1_555
O37_2 Cu8 1_555 1_555
O40_2 Cu8 1_555 1_555
O31_2 Cu7 1_555 1_555
O36_2 Cu7 1_555 1_555
Cu2_2 O9_2 1_555 1_555
Cu9 O8_2 1_555 1_555
Cu15 O11_2 1_555 1_555
O1_2 C3_2 1_555 1_555
O2_2 C8_2 1_555 1_555
O3_2 C10_2 1_555 1_555
O32 C8_2 1_555 1_555
O34 C3_2 1_555 1_555
O7_2 C5_2 1_555 1_555
O8_2 C10_2 1_555 1_555
O9_2 C5_2 1_555 1_555
O10_2 C1_2 1_555 1_555
O11_2 C1_2 1_555 1_555
C1_2 C9_2 1_555 1_555
C2_2 C14_2 1_555 1_555
C3_2 C11_2 1_555 1_555
C4_2 H1_2 1_555 1_555
C5_2 C7_2 1_555 1_555
C6_2 H2_2 1_555 1_555
C7_2 C4_2 1_555 1_555
C8_2 C13_2 1_555 1_555
C9_2 C6_2 1_555 1_555
C10_2 C15_2 1_555 1_555
C11_2 C12_2 1_555 1_555
C12_2 H3_2 1_555 1_555
C13_2 C4_2 1_555 1_555
N1_2 C18_2 1_555 1_555
N2_2 C26_2 1_555 1_555
C14_2 C6_2 1_555 1_555
N3_2 H4_2 1_555 1_555
N4_2 C18_2 1_555 1_555
C15_2 C12_2 1_555 1_555
C16_2 C13_2 1_555 1_555
H5_2 C16_2 1_555 1_555
N5_2 H6_2 1_555 1_555
C17_2 C14_2 1_555 1_555
H7_2 C17_2 1_555 1_555
C18_2 N5_2 1_555 1_555
C19_2 C15_2 1_555 1_555
H8_2 C19_2 1_555 1_555
C20_2 N3_2 1_555 1_555
C21_2 C16_2 1_555 1_555
N6_2 H9_2 1_555 1_555
C22_2 C9_2 1_555 1_555
H10_2 C22_2 1_555 1_555
C23_2 C7_2 1_555 1_555
H11_2 C23_2 1_555 1_555
C24_2 C11_2 1_555 1_555
H12_2 C24_2 1_555 1_555
C25_2 C17_2 1_555 1_555
C26_2 N1_2 1_555 1_555
C27_2 N2_2 1_555 1_555
O24_2 Cu2_2 1_555 1_555
Cu7_2 Cu2_2 1_555 1_555
Cu13 O2_2 1_555 1_555
Cu19 O1_2 1_555 1_555
O25_2 Cu15 1_555 1_555
O27_2 Cu9 1_555 1_555
O29_2 Cu15 1_555 1_555
O37_3 Cu2_2 1_555 1_555
O39_2 Cu9 1_555 1_555
O40_3 Cu2_2 1_555 1_555
O3_2 Cu17 1_555 1_555
O7_2 Cu7_2 1_555 1_555
O10_2 Cu12 1_555 1_555
N3_2 C27_2 1_555 1_555
N4_2 C27_2 1_555 1_555
N5_2 C21_2 1_555 1_555
C19_2 C20_2 1_555 1_555
C20_2 C24_2 1_555 1_555
C21_2 C23_2 1_555 1_555
N6_2 C25_2 1_555 1_555
N6_2 C26_2 1_555 1_555
C22_2 C25_2 1_555 1_555
O16_2 Cu7_2 1_555 1_555
Cu1_2 O4_2 1_555 1_555
Cu10 O20_2 1_555 1_555
Cu16 O23_2 1_555 1_555
O13_2 C30_2 1_555 1_555
O14_2 C35_2 1_555 1_555
O15_2 C37_2 1_555 1_555
O33 C35_2 1_555 1_555
O35 C30_2 1_555 1_555
O19_2 Cu1_2 1_555 1_555
O20_2 C37_2 1_555 1_555
O21_2 C32_2 1_555 1_555
O22_2 C28_2 1_555 1_555
O23_2 C28_2 1_555 1_555
C28_2 C36_2 1_555 1_555
C30_2 C38_2 1_555 1_555
C31_2 H13_2 1_555 1_555
C32_2 O19_2 1_555 1_555
C33_2 H14_2 1_555 1_555
C34_2 C31_2 1_555 1_555
C35_2 C40_2 1_555 1_555
C36_2 C33_2 1_555 1_555
C37_2 C42_2 1_555 1_555
C38_2 C39_2 1_555 1_555
C39_2 H15_2 1_555 1_555
C40_2 C31_2 1_555 1_555
N7_2 C45_2 1_555 1_555
N8_2 C53_2 1_555 1_555
C41_2 C29_2 1_555 1_555
N9_2 H16_2 1_555 1_555
N10_2 C45_2 1_555 1_555
C42_2 C39_2 1_555 1_555
C43_2 C40_2 1_555 1_555
H17_2 C43_2 1_555 1_555
N11_2 H18_2 1_555 1_555
C44_2 C41_2 1_555 1_555
H19_2 C44_2 1_555 1_555
C45_2 N11_2 1_555 1_555
C46_2 C42_2 1_555 1_555
H20_2 C46_2 1_555 1_555
C47_2 N9_2 1_555 1_555
C48_2 C43_2 1_555 1_555
N12_2 H21_2 1_555 1_555
C49_2 C36_2 1_555 1_555
H22_2 C49_2 1_555 1_555
C50_2 C34_2 1_555 1_555
H23_2 C50_2 1_555 1_555
C51_2 C38_2 1_555 1_555
H24_2 C51_2 1_555 1_555
C52_2 C44_2 1_555 1_555
C53_2 N7_2 1_555 1_555
C54_2 N8_2 1_555 1_555
Cu8_2 Cu1_2 1_555 1_555
Cu14 O14_2 1_555 1_555
Cu20 O13_2 1_555 1_555
O26_2 Cu16 1_555 1_555
O28_2 Cu10 1_555 1_555
O30_2 Cu16 1_555 1_555
O31_3 Cu1_2 1_555 1_555
O36_3 Cu1_2 1_555 1_555
O38_2 Cu10 1_555 1_555
O12_2 Cu8_2 1_555 1_555
O15_2 Cu18 1_555 1_555
O21_2 Cu8_2 1_555 1_555
O22_2 Cu11 1_555 1_555
C32_2 C34_2 1_555 1_555
C33_2 C41_2 1_555 1_555
N9_2 C54_2 1_555 1_555
N10_2 C54_2 1_555 1_555
N11_2 C48_2 1_555 1_555
C46_2 C47_2 1_555 1_555
C47_2 C51_2 1_555 1_555
C48_2 C50_2 1_555 1_555
N12_2 C52_2 1_555 1_555
N12_2 C53_2 1_555 1_555
C49_2 C52_2 1_555 1_555
O31_4 Cu7_2 1_555 1_555
O36_4 Cu7_2 1_555 1_555
O37_4 Cu8_2 1_555 1_555
O40_4 Cu8_2 1_555 1_555
Cu7_3 Cu2_3 1_555 1_555
O37_5 Cu2_3 1_555 1_555
O40_5 Cu2_3 1_555 1_555
Cu2_4 O9_3 1_555 1_555
Cu3_2 O8_3 1_555 1_555
O2_3 C8_3 1_555 1_555
O3_3 C10_3 1_555 1_555
O5_2 C8_3 1_555 1_555
O7_3 C5_3 1_555 1_555
O8_3 C10_3 1_555 1_555
O9_3 C5_3 1_555 1_555
C4_3 H1_3 1_555 1_555
C5_3 C7_3 1_555 1_555
C7_3 C4_3 1_555 1_555
C8_3 C13_3 1_555 1_555
C10_3 C15_3 1_555 1_555
C13_3 C4_3 1_555 1_555
N1_3 C18_3 1_555 1_555
N4_3 C18_3 1_555 1_555
C16_3 C13_3 1_555 1_555
H5_3 C16_3 1_555 1_555
N5_3 H6_3 1_555 1_555
C18_3 N5_3 1_555 1_555
C21_3 C16_3 1_555 1_555
C23_3 C7_3 1_555 1_555
H11_3 C23_3 1_555 1_555
Cu6_2 O23_3 1_555 1_555
O13_3 C30_3 1_555 1_555
O16_3 C29_3 1_555 1_555
O18_2 C30_3 1_555 1_555
O22_3 C28_3 1_555 1_555
O23_3 C28_3 1_555 1_555
O24_3 Cu2_4 1_555 1_555
C28_3 C36_3 1_555 1_555
C29_3 O24_3 1_555 1_555
C30_3 C38_3 1_555 1_555
C33_3 H14_3 1_555 1_555
C36_3 C33_3 1_555 1_555
C38_3 C39_3 1_555 1_555
C39_3 H15_3 1_555 1_555
N8_3 C53_3 1_555 1_555
C41_3 C29_3 1_555 1_555
N9_3 H16_3 1_555 1_555
C44_3 C41_3 1_555 1_555
H19_3 C44_3 1_555 1_555
C47_3 N9_3 1_555 1_555
N12_3 H21_3 1_555 1_555
C49_3 C36_3 1_555 1_555
H22_3 C49_3 1_555 1_555
C51_3 C38_3 1_555 1_555
H24_3 C51_3 1_555 1_555
C52_3 C44_3 1_555 1_555
C54_3 N8_3 1_555 1_555
Cu7_4 Cu2_4 1_555 1_555
Cu10_2 O18_2 1_555 1_555
Cu11_2 O2_3 1_555 1_555
Cu14_2 Cu6_2 1_555 1_555
Cu16_2 O5_2 1_555 1_555
Cu18_2 O13_3 1_555 1_555
Cu20_2 Cu3_2 1_555 1_555
O26_3 Cu6_2 1_555 1_555
O27_3 Cu3_2 1_555 1_555
O30_3 Cu6_2 1_555 1_555
O33_2 Cu6_2 1_555 1_555
O35_2 Cu3_2 1_555 1_555
O39_3 Cu3_2 1_555 1_555
O3_3 Cu20_2 1_555 1_555
O7_3 Cu7_4 1_555 1_555
N5_3 C21_3 1_555 1_555
C21_3 C23_3 1_555 1_555
O16_3 Cu7_4 1_555 1_555
O22_3 Cu14_2 1_555 1_555
C33_3 C41_3 1_555 1_555
N9_3 C54_3 1_555 1_555
C46_3 C47_3 1_555 1_555
C47_3 C51_3 1_555 1_555
N12_3 C52_3 1_555 1_555
N12_3 C53_3 1_555 1_555
C49_3 C52_3 1_555 1_555
Cu10_2 Cu18_2 1_555 1_555
Cu11_2 Cu16_2 1_555 1_555
Cu8_3 Cu1_3 1_555 1_555
O31_5 Cu1_3 1_555 1_555
O36_5 Cu1_3 1_555 1_555
Cu1_4 O4_3 1_555 1_555
Cu4_2 O11_3 1_555 1_555
O1_3 C3_3 1_555 1_555
O4_3 C2_3 1_555 1_555
O6_2 C3_3 1_555 1_555
O10_3 C1_3 1_555 1_555
O11_3 C1_3 1_555 1_555
O12_3 C2_3 1_555 1_555
C1_3 C9_3 1_555 1_555
C2_3 C14_3 1_555 1_555
C3_3 C11_3 1_555 1_555
C6_3 H2_3 1_555 1_555
C9_3 C6_3 1_555 1_555
C11_3 C12_3 1_555 1_555
C12_3 H3_3 1_555 1_555
N2_3 C26_3 1_555 1_555
C14_3 C6_3 1_555 1_555
N3_3 H4_3 1_555 1_555
C17_3 C14_3 1_555 1_555
H7_3 C17_3 1_555 1_555
C20_3 N3_3 1_555 1_555
N6_3 H9_3 1_555 1_555
C22_3 C9_3 1_555 1_555
H10_3 C22_3 1_555 1_555
C24_3 C11_3 1_555 1_555
H12_3 C24_3 1_555 1_555
C25_3 C17_3 1_555 1_555
C27_3 N2_3 1_555 1_555
Cu5_2 O20_3 1_555 1_555
O14_3 C35_3 1_555 1_555
O15_3 C37_3 1_555 1_555
O17_2 C35_3 1_555 1_555
O19_3 Cu1_4 1_555 1_555
O20_3 C37_3 1_555 1_555
O21_3 C32_3 1_555 1_555
C31_3 H13_3 1_555 1_555
C32_3 O19_3 1_555 1_555
C34_3 C31_3 1_555 1_555
C35_3 C40_3 1_555 1_555
C37_3 C42_3 1_555 1_555
C40_3 C31_3 1_555 1_555
N7_3 C45_3 1_555 1_555
N10_3 C45_3 1_555 1_555
C43_3 C40_3 1_555 1_555
H17_3 C43_3 1_555 1_555
N11_3 H18_3 1_555 1_555
C45_3 N11_3 1_555 1_555
C48_3 C43_3 1_555 1_555
C50_3 C34_3 1_555 1_555
H23_3 C50_3 1_555 1_555
Cu8_4 Cu1_4 1_555 1_555
Cu9_2 O6_2 1_555 1_555
Cu12_2 O14_3 1_555 1_555
Cu13_2 Cu4_2 1_555 1_555
Cu15_2 O17_2 1_555 1_555
Cu17_2 O1_3 1_555 1_555
Cu19_2 Cu5_2 1_555 1_555
O25_3 Cu4_2 1_555 1_555
O28_3 Cu5_2 1_555 1_555
O29_3 Cu4_2 1_555 1_555
O32_2 Cu4_2 1_555 1_555
O34_2 Cu5_2 1_555 1_555
O38_3 Cu5_2 1_555 1_555
O10_3 Cu13_2 1_555 1_555
O12_3 Cu8_4 1_555 1_555
N3_3 C27_3 1_555 1_555
C19_3 C20_3 1_555 1_555
C20_3 C24_3 1_555 1_555
N6_3 C25_3 1_555 1_555
N6_3 C26_3 1_555 1_555
C22_3 C25_3 1_555 1_555
O15_3 Cu19_2 1_555 1_555
O21_3 Cu8_4 1_555 1_555
C32_3 C34_3 1_555 1_555
N11_3 C48_3 1_555 1_555
C48_3 C50_3 1_555 1_555
Cu9_2 Cu17_2 1_555 1_555
Cu12_2 Cu15_2 1_555 1_555
O31_6 Cu7_3 1_555 1_555
O36_6 Cu7_3 1_555 1_555
O37_6 Cu8_3 1_555 1_555
O40_6 Cu8_3 1_555 1_555
Cu7_5 Cu2_5 1_555 1_555
O37_7 Cu2_5 1_555 1_555
O40_7 Cu2_5 1_555 1_555
Cu2_6 O9_4 1_555 1_555
Cu9_2 O8_4 1_555 1_555
O2_4 C8_4 1_555 1_555
O3_4 C10_4 1_555 1_555
O32_2 C8_4 1_555 1_555
O7_4 C5_4 1_555 1_555
O8_4 C10_4 1_555 1_555
O9_4 C5_4 1_555 1_555
C4_4 H1_4 1_555 1_555
C5_4 C7_4 1_555 1_555
C7_4 C4_4 1_555 1_555
C8_4 C13_4 1_555 1_555
C10_4 C15_4 1_555 1_555
C13_4 C4_4 1_555 1_555
N1_4 C18_4 1_555 1_555
N4_4 C18_4 1_555 1_555
C16_4 C13_4 1_555 1_555
H5_4 C16_4 1_555 1_555
N5_4 H6_4 1_555 1_555
C18_4 N5_4 1_555 1_555
C21_4 C16_4 1_555 1_555
C23_4 C7_4 1_555 1_555
H11_4 C23_4 1_555 1_555
Cu16_2 O23_4 1_555 1_555
O13_4 C30_4 1_555 1_555
O16_4 C29_4 1_555 1_555
O35_2 C30_4 1_555 1_555
O22_4 C28_4 1_555 1_555
O23_4 C28_4 1_555 1_555
O24_4 Cu2_6 1_555 1_555
C28_4 C36_4 1_555 1_555
C29_4 O24_4 1_555 1_555
C30_4 C38_4 1_555 1_555
C33_4 H14_4 1_555 1_555
C36_4 C33_4 1_555 1_555
C38_4 C39_4 1_555 1_555
C39_4 H15_4 1_555 1_555
N8_4 C53_4 1_555 1_555
C41_4 C29_4 1_555 1_555
N9_4 H16_4 1_555 1_555
C44_4 C41_4 1_555 1_555
H19_4 C44_4 1_555 1_555
C47_4 N9_4 1_555 1_555
N12_4 H21_4 1_555 1_555
C49_4 C36_4 1_555 1_555
H22_4 C49_4 1_555 1_555
C51_4 C38_4 1_555 1_555
H24_4 C51_4 1_555 1_555
C52_4 C44_4 1_555 1_555
C54_4 N8_4 1_555 1_555
Cu7_6 Cu2_6 1_555 1_555
Cu13_2 O2_4 1_555 1_555
Cu20_2 O13_4 1_555 1_555
O26_4 Cu16_2 1_555 1_555
O27_4 Cu9_2 1_555 1_555
O30_4 Cu16_2 1_555 1_555
O39_4 Cu9_2 1_555 1_555
O3_4 Cu17_2 1_555 1_555
O7_4 Cu7_6 1_555 1_555
N5_4 C21_4 1_555 1_555
C21_4 C23_4 1_555 1_555
O16_4 Cu7_6 1_555 1_555
O22_4 Cu11_2 1_555 1_555
C33_4 C41_4 1_555 1_555
N9_4 C54_4 1_555 1_555
C46_4 C47_4 1_555 1_555
C47_4 C51_4 1_555 1_555
N12_4 C52_4 1_555 1_555
N12_4 C53_4 1_555 1_555
C49_4 C52_4 1_555 1_555
Cu8_5 Cu1_5 1_555 1_555
O31_7 Cu1_5 1_555 1_555
O36_7 Cu1_5 1_555 1_555
Cu1_6 O4_4 1_555 1_555
Cu15_2 O11_4 1_555 1_555
O1_4 C3_4 1_555 1_555
O4_4 C2_4 1_555 1_555
O34_2 C3_4 1_555 1_555
O10_4 C1_4 1_555 1_555
O11_4 C1_4 1_555 1_555
O12_4 C2_4 1_555 1_555
C1_4 C9_4 1_555 1_555
C2_4 C14_4 1_555 1_555
C3_4 C11_4 1_555 1_555
C6_4 H2_4 1_555 1_555
C9_4 C6_4 1_555 1_555
C11_4 C12_4 1_555 1_555
C12_4 H3_4 1_555 1_555
N2_4 C26_4 1_555 1_555
C14_4 C6_4 1_555 1_555
N3_4 H4_4 1_555 1_555
C17_4 C14_4 1_555 1_555
H7_4 C17_4 1_555 1_555
C20_4 N3_4 1_555 1_555
N6_4 H9_4 1_555 1_555
C22_4 C9_4 1_555 1_555
H10_4 C22_4 1_555 1_555
C24_4 C11_4 1_555 1_555
H12_4 C24_4 1_555 1_555
C25_4 C17_4 1_555 1_555
C27_4 N2_4 1_555 1_555
Cu10_2 O20_4 1_555 1_555
O14_4 C35_4 1_555 1_555
O15_4 C37_4 1_555 1_555
O33_2 C35_4 1_555 1_555
O19_4 Cu1_6 1_555 1_555
O20_4 C37_4 1_555 1_555
O21_4 C32_4 1_555 1_555
C31_4 H13_4 1_555 1_555
C32_4 O19_4 1_555 1_555
C34_4 C31_4 1_555 1_555
C35_4 C40_4 1_555 1_555
C37_4 C42_4 1_555 1_555
C40_4 C31_4 1_555 1_555
N7_4 C45_4 1_555 1_555
N10_4 C45_4 1_555 1_555
C43_4 C40_4 1_555 1_555
H17_4 C43_4 1_555 1_555
N11_4 H18_4 1_555 1_555
C45_4 N11_4 1_555 1_555
C48_4 C43_4 1_555 1_555
C50_4 C34_4 1_555 1_555
H23_4 C50_4 1_555 1_555
Cu8_6 Cu1_6 1_555 1_555
Cu14_2 O14_4 1_555 1_555
Cu19_2 O1_4 1_555 1_555
O25_4 Cu15_2 1_555 1_555
O28_4 Cu10_2 1_555 1_555
O29_4 Cu15_2 1_555 1_555
O38_4 Cu10_2 1_555 1_555
O10_4 Cu12_2 1_555 1_555
O12_4 Cu8_6 1_555 1_555
N3_4 C27_4 1_555 1_555
C19_4 C20_4 1_555 1_555
C20_4 C24_4 1_555 1_555
N6_4 C25_4 1_555 1_555
N6_4 C26_4 1_555 1_555
C22_4 C25_4 1_555 1_555
O15_4 Cu18_2 1_555 1_555
O21_4 Cu8_6 1_555 1_555
C32_4 C34_4 1_555 1_555
N11_4 C48_4 1_555 1_555
C48_4 C50_4 1_555 1_555
O31_8 Cu7_5 1_555 1_555
O36_8 Cu7_5 1_555 1_555
O37_8 Cu8_5 1_555 1_555
O40_8 Cu8_5 1_555 1_555
Cu11_2 O8_5 1_555 1_555
Cu17_2 O11_5 1_555 1_555
O25_3 C3_5 1_555 1_555
O27_3 C8_5 1_555 1_555
O30_4 C10_5 1_555 1_555
O5_3 C8_5 1_555 1_555
O6_3 C3_5 1_555 1_555
O36 C5_5 1_555 1_555
O8_5 C10_5 1_555 1_555
O37_2 C5_5 1_555 1_555
O39_4 C1_5 1_555 1_555
O11_5 C1_5 1_555 1_555
C1_5 C9_5 1_555 1_555
C2_5 C14_5 1_555 1_555
C3_5 C11_5 1_555 1_555
C4_5 H1_5 1_555 1_555
C5_5 C7_5 1_555 1_555
C6_5 H2_5 1_555 1_555
C7_5 C4_5 1_555 1_555
C8_5 C13_5 1_555 1_555
C9_5 C6_5 1_555 1_555
C10_5 C15_5 1_555 1_555
C11_5 C12_5 1_555 1_555
C12_5 H3_5 1_555 1_555
C13_5 C4_5 1_555 1_555
N1_5 C18_5 1_555 1_555
N2_5 C26_5 1_555 1_555
C14_5 C6_5 1_555 1_555
N3_5 H4_5 1_555 1_555
N4_5 C18_5 1_555 1_555
C15_5 C12_5 1_555 1_555
C16_5 C13_5 1_555 1_555
H5_5 C16_5 1_555 1_555
N5_5 H6_5 1_555 1_555
C17_5 C14_5 1_555 1_555
H7_5 C17_5 1_555 1_555
C18_5 N5_5 1_555 1_555
C19_5 C15_5 1_555 1_555
H8_5 C19_5 1_555 1_555
C20_5 N3_5 1_555 1_555
C21_5 C16_5 1_555 1_555
N6_5 H9_5 1_555 1_555
C22_5 C9_5 1_555 1_555
H10_5 C22_5 1_555 1_555
C23_5 C7_5 1_555 1_555
H11_5 C23_5 1_555 1_555
C24_5 C11_5 1_555 1_555
H12_5 C24_5 1_555 1_555
C25_5 C17_5 1_555 1_555
C26_5 N1_5 1_555 1_555
C27_5 N2_5 1_555 1_555
Cu13_2 O6_3 1_555 1_555
Cu20_2 O5_3 1_555 1_555
O32_3 Cu17_2 1_555 1_555
O35_3 Cu11_2 1_555 1_555
N3_5 C27_5 1_555 1_555
N4_5 C27_5 1_555 1_555
N5_5 C21_5 1_555 1_555
C19_5 C20_5 1_555 1_555
C20_5 C24_5 1_555 1_555
C21_5 C23_5 1_555 1_555
N6_5 C25_5 1_555 1_555
N6_5 C26_5 1_555 1_555
C22_5 C25_5 1_555 1_555
Cu12_2 O20_5 1_555 1_555
Cu18_2 O23_5 1_555 1_555
O26_3 C30_5 1_555 1_555
O28_3 C35_5 1_555 1_555
O29_4 C37_5 1_555 1_555
O17_3 C35_5 1_555 1_555
O18_3 C30_5 1_555 1_555
O20_5 C37_5 1_555 1_555
O37 C32_5 1_555 1_555
O38_4 C28_5 1_555 1_555
O23_5 C28_5 1_555 1_555
C28_5 C36_5 1_555 1_555
C30_5 C38_5 1_555 1_555
C31_5 H13_5 1_555 1_555
C32_5 O36_2 1_555 1_555
C33_5 H14_5 1_555 1_555
C34_5 C31_5 1_555 1_555
C35_5 C40_5 1_555 1_555
C36_5 C33_5 1_555 1_555
C37_5 C42_5 1_555 1_555
C38_5 C39_5 1_555 1_555
C39_5 H15_5 1_555 1_555
C40_5 C31_5 1_555 1_555
N7_5 C45_5 1_555 1_555
N8_5 C53_5 1_555 1_555
C41_5 C29_5 1_555 1_555
N9_5 H16_5 1_555 1_555
N10_5 C45_5 1_555 1_555
C42_5 C39_5 1_555 1_555
C43_5 C40_5 1_555 1_555
H17_5 C43_5 1_555 1_555
N11_5 H18_5 1_555 1_555
C44_5 C41_5 1_555 1_555
H19_5 C44_5 1_555 1_555
C45_5 N11_5 1_555 1_555
C46_5 C42_5 1_555 1_555
H20_5 C46_5 1_555 1_555
C47_5 N9_5 1_555 1_555
C48_5 C43_5 1_555 1_555
N12_5 H21_5 1_555 1_555
C49_5 C36_5 1_555 1_555
H22_5 C49_5 1_555 1_555
C50_5 C34_5 1_555 1_555
H23_5 C50_5 1_555 1_555
C51_5 C38_5 1_555 1_555
H24_5 C51_5 1_555 1_555
C52_5 C44_5 1_555 1_555
C53_5 N7_5 1_555 1_555
C54_5 N8_5 1_555 1_555
Cu14_2 O18_3 1_555 1_555
Cu19_2 O17_3 1_555 1_555
O33_3 Cu18_2 1_555 1_555
O34_3 Cu12_2 1_555 1_555
C32_5 C34_5 1_555 1_555
C33_5 C41_5 1_555 1_555
N9_5 C54_5 1_555 1_555
N10_5 C54_5 1_555 1_555
N11_5 C48_5 1_555 1_555
C46_5 C47_5 1_555 1_555
C47_5 C51_5 1_555 1_555
C48_5 C50_5 1_555 1_555
N12_5 C52_5 1_555 1_555
N12_5 C53_5 1_555 1_555
C49_5 C52_5 1_555 1_555
Cu14_2 O20_6 1_555 1_555
Cu20_2 O23_6 1_555 1_555
O26_4 C30_6 1_555 1_555
O28_4 C35_6 1_555 1_555
O30_3 C37_6 1_555 1_555
O33_3 C35_6 1_555 1_555
O35_3 C30_6 1_555 1_555
O20_6 C37_6 1_555 1_555
O37_3 C32_6 1_555 1_555
O39_3 C28_6 1_555 1_555
O23_6 C28_6 1_555 1_555
C28_6 C36_6 1_555 1_555
C30_6 C38_6 1_555 1_555
C31_6 H13_6 1_555 1_555
C32_6 O36_4 1_555 1_555
C33_6 H14_6 1_555 1_555
C34_6 C31_6 1_555 1_555
C35_6 C40_6 1_555 1_555
C36_6 C33_6 1_555 1_555
C37_6 C42_6 1_555 1_555
C38_6 C39_6 1_555 1_555
C39_6 H15_6 1_555 1_555
C40_6 C31_6 1_555 1_555
N7_6 C45_6 1_555 1_555
N8_6 C53_6 1_555 1_555
C41_6 C29_6 1_555 1_555
N9_6 H16_6 1_555 1_555
N10_6 C45_6 1_555 1_555
C42_6 C39_6 1_555 1_555
C43_6 C40_6 1_555 1_555
H17_6 C43_6 1_555 1_555
N11_6 H18_6 1_555 1_555
C44_6 C41_6 1_555 1_555
H19_6 C44_6 1_555 1_555
C45_6 N11_6 1_555 1_555
C46_6 C42_6 1_555 1_555
H20_6 C46_6 1_555 1_555
C47_6 N9_6 1_555 1_555
C48_6 C43_6 1_555 1_555
N12_6 H21_6 1_555 1_555
C49_6 C36_6 1_555 1_555
H22_6 C49_6 1_555 1_555
C50_6 C34_6 1_555 1_555
H23_6 C50_6 1_555 1_555
C51_6 C38_6 1_555 1_555
H24_6 C51_6 1_555 1_555
C52_6 C44_6 1_555 1_555
C53_6 N7_6 1_555 1_555
C54_6 N8_6 1_555 1_555
C32_6 C34_6 1_555 1_555
C33_6 C41_6 1_555 1_555
N9_6 C54_6 1_555 1_555
N10_6 C54_6 1_555 1_555
N11_6 C48_6 1_555 1_555
C46_6 C47_6 1_555 1_555
C47_6 C51_6 1_555 1_555
C48_6 C50_6 1_555 1_555
N12_6 C52_6 1_555 1_555
N12_6 C53_6 1_555 1_555
C49_6 C52_6 1_555 1_555
Cu13_2 O8_6 1_555 1_555
Cu19_2 O11_6 1_555 1_555
O25_4 C3_6 1_555 1_555
O27_4 C8_6 1_555 1_555
O29_3 C10_6 1_555 1_555
O32_3 C8_6 1_555 1_555
O34_3 C3_6 1_555 1_555
O36_3 C5_6 1_555 1_555
O8_6 C10_6 1_555 1_555
O37_4 C5_6 1_555 1_555
O38_3 C1_6 1_555 1_555
O11_6 C1_6 1_555 1_555
C1_6 C9_6 1_555 1_555
C2_6 C14_6 1_555 1_555
C3_6 C11_6 1_555 1_555
C4_6 H1_6 1_555 1_555
C5_6 C7_6 1_555 1_555
C6_6 H2_6 1_555 1_555
C7_6 C4_6 1_555 1_555
C8_6 C13_6 1_555 1_555
C9_6 C6_6 1_555 1_555
C10_6 C15_6 1_555 1_555
C11_6 C12_6 1_555 1_555
C12_6 H3_6 1_555 1_555
C13_6 C4_6 1_555 1_555
N1_6 C18_6 1_555 1_555
N2_6 C26_6 1_555 1_555
C14_6 C6_6 1_555 1_555
N3_6 H4_6 1_555 1_555
N4_6 C18_6 1_555 1_555
C15_6 C12_6 1_555 1_555
C16_6 C13_6 1_555 1_555
H5_6 C16_6 1_555 1_555
N5_6 H6_6 1_555 1_555
C17_6 C14_6 1_555 1_555
H7_6 C17_6 1_555 1_555
C18_6 N5_6 1_555 1_555
C19_6 C15_6 1_555 1_555
H8_6 C19_6 1_555 1_555
C20_6 N3_6 1_555 1_555
C21_6 C16_6 1_555 1_555
N6_6 H9_6 1_555 1_555
C22_6 C9_6 1_555 1_555
H10_6 C22_6 1_555 1_555
C23_6 C7_6 1_555 1_555
H11_6 C23_6 1_555 1_555
C24_6 C11_6 1_555 1_555
H12_6 C24_6 1_555 1_555
C25_6 C17_6 1_555 1_555
C26_6 N1_6 1_555 1_555
C27_6 N2_6 1_555 1_555
N3_6 C27_6 1_555 1_555
N4_6 C27_6 1_555 1_555
N5_6 C21_6 1_555 1_555
C19_6 C20_6 1_555 1_555
C20_6 C24_6 1_555 1_555
C21_6 C23_6 1_555 1_555
N6_6 C25_6 1_555 1_555
N6_6 C26_6 1_555 1_555
C22_6 C25_6 1_555 1_555
Cu17 O11_7 1_555 1_555
O25 C3_7 1_555 1_555
O31_6 C2_7 1_555 1_555
O6_4 C3_7 1_555 1_555
O39_2 C1_7 1_555 1_555
O11_7 C1_7 1_555 1_555
O40_5 C2_7 1_555 1_555
C1_7 C9_7 1_555 1_555
C2_7 C14_7 1_555 1_555
C3_7 C11_7 1_555 1_555
C6_7 H2_7 1_555 1_555
C9_7 C6_7 1_555 1_555
C11_7 C12_7 1_555 1_555
C12_7 H3_7 1_555 1_555
N2_7 C26_7 1_555 1_555
C14_7 C6_7 1_555 1_555
N3_7 H4_7 1_555 1_555
C17_7 C14_7 1_555 1_555
H7_7 C17_7 1_555 1_555
C20_7 N3_7 1_555 1_555
N6_7 H9_7 1_555 1_555
C22_7 C9_7 1_555 1_555
H10_7 C22_7 1_555 1_555
C24_7 C11_7 1_555 1_555
H12_7 C24_7 1_555 1_555
C25_7 C17_7 1_555 1_555
C27_7 N2_7 1_555 1_555
Cu12 O20_7 1_555 1_555
O28 C35_7 1_555 1_555
O29_2 C37_7 1_555 1_555
O17_4 C35_7 1_555 1_555
O20_7 C37_7 1_555 1_555
O37_5 C32_7 1_555 1_555
C31_7 H13_7 1_555 1_555
C32_7 O36_6 1_555 1_555
C34_7 C31_7 1_555 1_555
C35_7 C40_7 1_555 1_555
C37_7 C42_7 1_555 1_555
C40_7 C31_7 1_555 1_555
N7_7 C45_7 1_555 1_555
N10_7 C45_7 1_555 1_555
C43_7 C40_7 1_555 1_555
H17_7 C43_7 1_555 1_555
N11_7 H18_7 1_555 1_555
C45_7 N11_7 1_555 1_555
C48_7 C43_7 1_555 1_555
C50_7 C34_7 1_555 1_555
H23_7 C50_7 1_555 1_555
Cu13 O6_4 1_555 1_555
Cu19 O17_4 1_555 1_555
O32_4 Cu17 1_555 1_555
O34_4 Cu12 1_555 1_555
N3_7 C27_7 1_555 1_555
C19_7 C20_7 1_555 1_555
C20_7 C24_7 1_555 1_555
N6_7 C25_7 1_555 1_555
N6_7 C26_7 1_555 1_555
C22_7 C25_7 1_555 1_555
C32_7 C34_7 1_555 1_555
N11_7 C48_7 1_555 1_555
C48_7 C50_7 1_555 1_555
Cu11 O8_7 1_555 1_555
O27 C8_7 1_555 1_555
O30_2 C10_7 1_555 1_555
O5_4 C8_7 1_555 1_555
O36_5 C5_7 1_555 1_555
O8_7 C10_7 1_555 1_555
O37_6 C5_7 1_555 1_555
C4_7 H1_7 1_555 1_555
C5_7 C7_7 1_555 1_555
C7_7 C4_7 1_555 1_555
C8_7 C13_7 1_555 1_555
C10_7 C15_7 1_555 1_555
C13_7 C4_7 1_555 1_555
N1_7 C18_7 1_555 1_555
N4_7 C18_7 1_555 1_555
C16_7 C13_7 1_555 1_555
H5_7 C16_7 1_555 1_555
N5_7 H6_7 1_555 1_555
C18_7 N5_7 1_555 1_555
C21_7 C16_7 1_555 1_555
C23_7 C7_7 1_555 1_555
H11_7 C23_7 1_555 1_555
Cu18 O23_7 1_555 1_555
O26 C30_7 1_555 1_555
O31_5 C29_7 1_555 1_555
O18_4 C30_7 1_555 1_555
O38_2 C28_7 1_555 1_555
O23_7 C28_7 1_555 1_555
C28_7 C36_7 1_555 1_555
C29_7 O40_6 1_555 1_555
C30_7 C38_7 1_555 1_555
C33_7 H14_7 1_555 1_555
C36_7 C33_7 1_555 1_555
C38_7 C39_7 1_555 1_555
C39_7 H15_7 1_555 1_555
N8_7 C53_7 1_555 1_555
C41_7 C29_7 1_555 1_555
N9_7 H16_7 1_555 1_555
C44_7 C41_7 1_555 1_555
H19_7 C44_7 1_555 1_555
C47_7 N9_7 1_555 1_555
N12_7 H21_7 1_555 1_555
C49_7 C36_7 1_555 1_555
H22_7 C49_7 1_555 1_555
C51_7 C38_7 1_555 1_555
H24_7 C51_7 1_555 1_555
C52_7 C44_7 1_555 1_555
C54_7 N8_7 1_555 1_555
Cu14 O18_4 1_555 1_555
Cu20 O5_4 1_555 1_555
O33_4 Cu18 1_555 1_555
O35_4 Cu11 1_555 1_555
N5_7 C21_7 1_555 1_555
C21_7 C23_7 1_555 1_555
C33_7 C41_7 1_555 1_555
N9_7 C54_7 1_555 1_555
C46_7 C47_7 1_555 1_555
C47_7 C51_7 1_555 1_555
N12_7 C52_7 1_555 1_555
N12_7 C53_7 1_555 1_555
C49_7 C52_7 1_555 1_555
Cu19 O11_8 1_555 1_555
O25_2 C3_8 1_555 1_555
O31_8 C2_8 1_555 1_555
O34_4 C3_8 1_555 1_555
O38 C1_8 1_555 1_555
O11_8 C1_8 1_555 1_555
O40_7 C2_8 1_555 1_555
C1_8 C9_8 1_555 1_555
C2_8 C14_8 1_555 1_555
C3_8 C11_8 1_555 1_555
C6_8 H2_8 1_555 1_555
C9_8 C6_8 1_555 1_555
C11_8 C12_8 1_555 1_555
C12_8 H3_8 1_555 1_555
N2_8 C26_8 1_555 1_555
C14_8 C6_8 1_555 1_555
N3_8 H4_8 1_555 1_555
C17_8 C14_8 1_555 1_555
H7_8 C17_8 1_555 1_555
C20_8 N3_8 1_555 1_555
N6_8 H9_8 1_555 1_555
C22_8 C9_8 1_555 1_555
H10_8 C22_8 1_555 1_555
C24_8 C11_8 1_555 1_555
H12_8 C24_8 1_555 1_555
C25_8 C17_8 1_555 1_555
C27_8 N2_8 1_555 1_555
Cu14 O20_8 1_555 1_555
O28_2 C35_8 1_555 1_555
O30 C37_8 1_555 1_555
O33_4 C35_8 1_555 1_555
O20_8 C37_8 1_555 1_555
O37_7 C32_8 1_555 1_555
C31_8 H13_8 1_555 1_555
C32_8 O36_8 1_555 1_555
C34_8 C31_8 1_555 1_555
C35_8 C40_8 1_555 1_555
C37_8 C42_8 1_555 1_555
C40_8 C31_8 1_555 1_555
N7_8 C45_8 1_555 1_555
N10_8 C45_8 1_555 1_555
C43_8 C40_8 1_555 1_555
H17_8 C43_8 1_555 1_555
N11_8 H18_8 1_555 1_555
C45_8 N11_8 1_555 1_555
C48_8 C43_8 1_555 1_555
C50_8 C34_8 1_555 1_555
H23_8 C50_8 1_555 1_555
N3_8 C27_8 1_555 1_555
C19_8 C20_8 1_555 1_555
C20_8 C24_8 1_555 1_555
N6_8 C25_8 1_555 1_555
N6_8 C26_8 1_555 1_555
C22_8 C25_8 1_555 1_555
C32_8 C34_8 1_555 1_555
N11_8 C48_8 1_555 1_555
C48_8 C50_8 1_555 1_555
Cu13 O8_8 1_555 1_555
O27_2 C8_8 1_555 1_555
O29 C10_8 1_555 1_555
O32_4 C8_8 1_555 1_555
O36_7 C5_8 1_555 1_555
O8_8 C10_8 1_555 1_555
O37_8 C5_8 1_555 1_555
C4_8 H1_8 1_555 1_555
C5_8 C7_8 1_555 1_555
C7_8 C4_8 1_555 1_555
C8_8 C13_8 1_555 1_555
C10_8 C15_8 1_555 1_555
C13_8 C4_8 1_555 1_555
N1_8 C18_8 1_555 1_555
N4_8 C18_8 1_555 1_555
C16_8 C13_8 1_555 1_555
H5_8 C16_8 1_555 1_555
N5_8 H6_8 1_555 1_555
C18_8 N5_8 1_555 1_555
C21_8 C16_8 1_555 1_555
C23_8 C7_8 1_555 1_555
H11_8 C23_8 1_555 1_555
Cu20 O23_8 1_555 1_555
O26_2 C30_8 1_555 1_555
O31_7 C29_8 1_555 1_555
O35_4 C30_8 1_555 1_555
O39 C28_8 1_555 1_555
O23_8 C28_8 1_555 1_555
C28_8 C36_8 1_555 1_555
C29_8 O40_8 1_555 1_555
C30_8 C38_8 1_555 1_555
C33_8 H14_8 1_555 1_555
C36_8 C33_8 1_555 1_555
C38_8 C39_8 1_555 1_555
C39_8 H15_8 1_555 1_555
N8_8 C53_8 1_555 1_555
C41_8 C29_8 1_555 1_555
N9_8 H16_8 1_555 1_555
C44_8 C41_8 1_555 1_555
H19_8 C44_8 1_555 1_555
C47_8 N9_8 1_555 1_555
N12_8 H21_8 1_555 1_555
C49_8 C36_8 1_555 1_555
H22_8 C49_8 1_555 1_555
C51_8 C38_8 1_555 1_555
H24_8 C51_8 1_555 1_555
C52_8 C44_8 1_555 1_555
C54_8 N8_8 1_555 1_555
N5_8 C21_8 1_555 1_555
C21_8 C23_8 1_555 1_555
C33_8 C41_8 1_555 1_555
N9_8 C54_8 1_555 1_555
C46_8 C47_8 1_555 1_555
C47_8 C51_8 1_555 1_555
N12_8 C52_8 1_555 1_555
N12_8 C53_8 1_555 1_555
C49_8 C52_8 1_555 1_555

#END
