
###############################################################################
#
# This file contains modified crystal structure data generated from the
# MOF subset of the Cambridge Structural Database (CSD) v543 
# hosted by the Cambridge Crystallographic Data Centre (CCDC).
#
# This work is licensed under the Creative Commons
# Attribution-NonCommercial-ShareAlike 4.0 International License.
# To view a copy of this license, visit
# http://creativecommons.org/licenses/by-nc-sa/4.0/
# or send a letter to
# Creative Commons, PO Box 1866, Mountain View, CA 94042, USA.
#
# CIF created using the CSD Python API on 29 September 2022
# The structure has been converted into the P1 space group
# The structure has a 3D framework
# The original CSD entry PAPPAB05 is in the tetragonal crystal system
# The framework has been calculated to contain at least 10.0% void space
# The void calculation uses a probe of radius 1.32A, grid spacing 0.4
#
###############################################################################

data_PAPPAB05
_chemical_formula_moiety         '(C432 H192 Cu40 N96 O180)n'
_symmetry_cell_setting           triclinic
_symmetry_space_group_name_H-M   'P 1'
_symmetry_Int_Tables_number      1
_space_group_name_Hall           'P 1'
loop_
_symmetry_equiv_pos_site_id
_symmetry_equiv_pos_as_xyz
1 x,y,z
_cell_length_a                   26.4805(2)
_cell_length_b                   26.4805(2)
_cell_length_c                   37.9616(5)
_cell_angle_alpha                90
_cell_angle_beta                 90
_cell_angle_gamma                90
_cell_volume                     26619.3
loop_
_atom_site_label
_atom_site_type_symbol
_atom_site_fract_x
_atom_site_fract_y
_atom_site_fract_z
Cu2 Cu 0.29928(5) 0.05678(6) 0.500000
Cu3 Cu 0.82181(4) 0.11929(4) 0.64825(3)
Cu4 Cu 0.34355(4) 0.26738(4) 0.80570(3)
O1 O 0.4096(2) 0.2675(2) 0.78386(16)
O2 O 0.6218(2) 0.3559(2) 0.82469(17)
O3 O 0.7107(2) 0.1372(2) 0.66485(17)
O4 O 0.4422(2) 0.3203(2) 0.82435(17)
O5 O 0.3761(2) 0.1204(2) 0.53718(17)
O6 O 0.7605(2) 0.0991(2) 0.62543(17)
O8 O 0.1845(2) 0.1814(3) 0.62556(16)
O9 O 0.2196(2) 0.2271(2) 0.66923(17)
O10 O 0.6710(2) 0.3263(2) 0.78156(17)
O11 O 0.2935(2) 0.1072(2) 0.53607(17)
C1 C 0.7181(3) 0.1113(3) 0.6373(3)
C2 C 0.6288(3) 0.3330(3) 0.7962(3)
C3 C 0.5834(3) 0.3096(3) 0.7795(3)
N1 N 0.5580(3) 0.2256(4) 0.7051(3)
H1 H 0.589114 0.216931 0.702488
N2 N 0.4687(3) 0.1662(4) 0.6299(3)
C4 C 0.3319(3) 0.1262(4) 0.5491(3)
C5 C 0.4452(3) 0.2936(4) 0.7974(3)
C6 C 0.6398(4) 0.0016(4) 0.5462(3)
C7 C 0.3267(3) 0.1574(4) 0.5812(3)
C8 C 0.5358(3) 0.3139(3) 0.7947(3)
H2 H 0.531564 0.332685 0.815222
C9 C 0.6780(3) 0.0578(4) 0.5915(2)
H3 H 0.709596 0.044442 0.586198
C10 C 0.2784(3) 0.1665(3) 0.5943(2)
H4 H 0.250070 0.154675 0.582435
N3 N 0.5487(3) 0.1733(4) 0.6584(3)
C11 C 0.4954(3) 0.2905(4) 0.7794(3)
N4 N 0.4786(3) 0.2218(4) 0.6792(3)
N5 N 0.4037(3) 0.2163(4) 0.6514(3)
H5 H 0.396488 0.240484 0.665696
C12 C 0.2214(4) 0.2016(4) 0.6414(3)
C13 C 0.6728(3) 0.0941(3) 0.6174(3)
C14 C 0.2733(3) 0.1935(4) 0.6253(3)
C15 C 0.6359(4) 0.0418(4) 0.5735(3)
C16 C 0.5892(4) 0.2808(4) 0.7496(3)
H6 H 0.620968 0.277818 0.739348
N6 N 0.5353(3) 0.1196(4) 0.6116(3)
H7 H 0.512551 0.107799 0.597708
C17 C 0.3150(3) 0.2093(4) 0.6434(2)
H8 H 0.311109 0.226722 0.664466
C18 C 0.5011(4) 0.2609(4) 0.7500(3)
H9 H 0.473397 0.244111 0.740585
C19 C 0.3692(4) 0.1737(4) 0.5996(3)
H10 H 0.401423 0.167049 0.590956
C20 C 0.5483(4) 0.2562(4) 0.7344(3)
C21 C 0.5890(4) 0.0616(4) 0.5811(3)
H11 H 0.560680 0.049642 0.569307
C22 C 0.4529(4) 0.2002(4) 0.6529(3)
C23 C 0.6260(4) 0.1143(4) 0.6251(3)
H12 H 0.622881 0.138137 0.643013
C24 C 0.3630(4) 0.1998(4) 0.6306(3)
C25 C 0.5838(4) 0.0992(4) 0.6063(3)
C26 C 0.5263(4) 0.2077(5) 0.6802(3)
C27 C 0.5184(4) 0.1547(5) 0.6346(3)
O19 O 0.3984(2) 0.0197(2) 0.53530(18)
O24 O 0.3146(2) 0.0072(2) 0.53585(18)
Cu7 Cu 0.39136(5) 0.07193(6) 0.500000
Cu10 Cu 0.11929(4) 0.17819(4) 0.64825(3)
Cu11 Cu 0.67819(4) 0.38071(4) 0.85175(3)
Cu14 Cu 0.38071(4) 0.32181(4) 0.85175(3)
Cu15 Cu 0.73262(4) 0.34355(4) 0.80570(3)
Cu17 Cu 0.15645(4) 0.23262(4) 0.69430(3)
Cu19 Cu 0.76738(4) 0.15645(4) 0.69430(3)
O25 O 0.8782(2) 0.1441(2) 0.67531(17)
O28 O 0.3628(2) 0.2107(2) 0.83515(17)
O29 O 0.8203(2) 0.0578(2) 0.67565(17)
O33 O 0.8186(3) 0.1845(2) 0.62556(16)
O35 O 0.2804(2) 0.2729(2) 0.83077(17)
O38 O 0.3263(2) 0.3290(2) 0.78156(17)
O39 O 0.2935(2) 0.1072(2) 0.46393(17)
O40 O 0.3146(2) 0.0072(2) 0.46415(18)
Cu1 Cu 0.60864(5) 0.92807(6) 0.500000
O7 O 0.6016(2) 0.9803(2) 0.53530(18)
O12 O 0.6854(2) 0.9928(2) 0.53585(18)
Cu5 Cu 0.17819(4) 0.88071(4) 0.64825(3)
Cu6 Cu 0.65645(4) 0.73262(4) 0.80570(3)
O13 O 0.5904(2) 0.7325(2) 0.78386(16)
O14 O 0.3782(2) 0.6441(2) 0.82469(17)
O15 O 0.2893(2) 0.8628(2) 0.66485(17)
O16 O 0.5578(2) 0.6797(2) 0.82435(17)
O17 O 0.6239(2) 0.8796(2) 0.53718(17)
O18 O 0.2395(2) 0.9009(2) 0.62543(17)
O20 O 0.8155(2) 0.8186(3) 0.62556(16)
O21 O 0.7804(2) 0.7729(2) 0.66923(17)
O22 O 0.3290(2) 0.6737(2) 0.78156(17)
O23 O 0.7065(2) 0.8928(2) 0.53607(17)
C28 C 0.2819(3) 0.8887(3) 0.6373(3)
C29 C 0.3712(3) 0.6670(3) 0.7962(3)
C30 C 0.4166(3) 0.6904(3) 0.7795(3)
N7 N 0.4420(3) 0.7744(4) 0.7051(3)
H13 H 0.410886 0.783069 0.702488
N8 N 0.5313(3) 0.8338(4) 0.6299(3)
C31 C 0.6681(3) 0.8738(4) 0.5491(3)
C32 C 0.5548(3) 0.7064(4) 0.7974(3)
C33 C 0.3602(4) 0.9984(4) 0.5462(3)
C34 C 0.6733(3) 0.8426(4) 0.5812(3)
C35 C 0.4642(3) 0.6861(3) 0.7947(3)
H14 H 0.468436 0.667315 0.815222
C36 C 0.3220(3) 0.9422(4) 0.5915(2)
H15 H 0.290404 0.955558 0.586198
C37 C 0.7216(3) 0.8335(3) 0.5943(2)
H16 H 0.749930 0.845325 0.582435
N9 N 0.4513(3) 0.8267(4) 0.6584(3)
C38 C 0.5046(3) 0.7095(4) 0.7794(3)
N10 N 0.5214(3) 0.7782(4) 0.6792(3)
N11 N 0.5963(3) 0.7837(4) 0.6514(3)
H17 H 0.603512 0.759516 0.665696
C39 C 0.7786(4) 0.7984(4) 0.6414(3)
C40 C 0.3272(3) 0.9059(3) 0.6174(3)
C41 C 0.7267(3) 0.8065(4) 0.6253(3)
C42 C 0.3641(4) 0.9582(4) 0.5735(3)
C43 C 0.4108(4) 0.7192(4) 0.7496(3)
H18 H 0.379032 0.722182 0.739348
N12 N 0.4647(3) 0.8804(4) 0.6116(3)
H19 H 0.487449 0.892201 0.597708
C44 C 0.6850(3) 0.7907(4) 0.6434(2)
H20 H 0.688891 0.773278 0.664466
C45 C 0.4989(4) 0.7391(4) 0.7500(3)
H21 H 0.526603 0.755889 0.740585
C46 C 0.6308(4) 0.8263(4) 0.5996(3)
H22 H 0.598577 0.832951 0.590956
C47 C 0.4517(4) 0.7438(4) 0.7344(3)
C48 C 0.4110(4) 0.9384(4) 0.5811(3)
H23 H 0.439320 0.950358 0.569307
C49 C 0.5471(4) 0.7998(4) 0.6529(3)
C50 C 0.3740(4) 0.8857(4) 0.6251(3)
H24 H 0.377119 0.861863 0.643013
C51 C 0.6370(4) 0.8002(4) 0.6306(3)
C52 C 0.4162(4) 0.9008(4) 0.6063(3)
C53 C 0.4737(4) 0.7923(5) 0.6802(3)
C54 C 0.4816(4) 0.8453(5) 0.6346(3)
Cu8 Cu 0.70072(5) 0.94322(6) 0.500000
Cu9 Cu 0.88071(4) 0.82181(4) 0.64825(3)
Cu12 Cu 0.32181(4) 0.61929(4) 0.85175(3)
Cu13 Cu 0.61929(4) 0.67819(4) 0.85175(3)
Cu16 Cu 0.26738(4) 0.65645(4) 0.80570(3)
Cu18 Cu 0.84355(4) 0.76738(4) 0.69430(3)
Cu20 Cu 0.23262(4) 0.84355(4) 0.69430(3)
O26 O 0.1218(2) 0.8559(2) 0.67531(17)
O27 O 0.6372(2) 0.7893(2) 0.83515(17)
O30 O 0.1797(2) 0.9422(2) 0.67565(17)
O31 O 0.6239(2) 0.8796(2) 0.46282(17)
O32 O 0.6016(2) 0.9803(2) 0.46470(18)
O34 O 0.1814(3) 0.8155(2) 0.62556(16)
O36 O 0.7196(2) 0.7271(2) 0.83077(17)
O37 O 0.6737(2) 0.6710(2) 0.78156(17)
O31_2 O 0.3761(2) 0.1204(2) 0.46282(17)
O32_2 O 0.3984(2) 0.0197(2) 0.46470(18)
O39_2 O 0.7065(2) 0.8928(2) 0.46393(17)
O40_2 O 0.6854(2) 0.9928(2) 0.46415(18)
Cu1_2 Cu 0.07193(6) 0.60864(5) 0.500000
O7_2 O 0.0197(2) 0.6016(2) 0.53530(18)
O12_2 O 0.0072(2) 0.6854(2) 0.53585(18)
O13_2 O 0.2675(2) 0.5904(2) 0.78386(16)
O14_2 O 0.3559(2) 0.3782(2) 0.82469(17)
O15_2 O 0.1372(2) 0.2893(2) 0.66485(17)
O16_2 O 0.3203(2) 0.5578(2) 0.82435(17)
O17_2 O 0.1204(2) 0.6239(2) 0.53718(17)
O18_2 O 0.0991(2) 0.2395(2) 0.62543(17)
O21_2 O 0.2271(2) 0.7804(2) 0.66923(17)
O23_2 O 0.1072(2) 0.7065(2) 0.53607(17)
C28_2 C 0.1113(3) 0.2819(3) 0.6373(3)
C29_2 C 0.3330(3) 0.3712(3) 0.7962(3)
C30_2 C 0.3096(3) 0.4166(3) 0.7795(3)
N7_2 N 0.2256(4) 0.4420(3) 0.7051(3)
H13_2 H 0.216931 0.410886 0.702488
N8_2 N 0.1662(4) 0.5313(3) 0.6299(3)
C31_2 C 0.1262(4) 0.6681(3) 0.5491(3)
C32_2 C 0.2936(4) 0.5548(3) 0.7974(3)
C33_2 C 0.0016(4) 0.3602(4) 0.5462(3)
C34_2 C 0.1574(4) 0.6733(3) 0.5812(3)
C35_2 C 0.3139(3) 0.4642(3) 0.7947(3)
H14_2 H 0.332685 0.468436 0.815222
C36_2 C 0.0578(4) 0.3220(3) 0.5915(2)
H15_2 H 0.044442 0.290404 0.586198
C37_2 C 0.1665(3) 0.7216(3) 0.5943(2)
H16_2 H 0.154675 0.749930 0.582435
N9_2 N 0.1733(4) 0.4513(3) 0.6584(3)
C38_2 C 0.2905(4) 0.5046(3) 0.7794(3)
N10_2 N 0.2218(4) 0.5214(3) 0.6792(3)
N11_2 N 0.2163(4) 0.5963(3) 0.6514(3)
H17_2 H 0.240484 0.603512 0.665696
C39_2 C 0.2016(4) 0.7786(4) 0.6414(3)
C40_2 C 0.0941(3) 0.3272(3) 0.6174(3)
C41_2 C 0.1935(4) 0.7267(3) 0.6253(3)
C42_2 C 0.0418(4) 0.3641(4) 0.5735(3)
C43_2 C 0.2808(4) 0.4108(4) 0.7496(3)
H18_2 H 0.277818 0.379032 0.739348
N12_2 N 0.1196(4) 0.4647(3) 0.6116(3)
H19_2 H 0.107799 0.487449 0.597708
C44_2 C 0.2093(4) 0.6850(3) 0.6434(2)
H20_2 H 0.226722 0.688891 0.664466
C45_2 C 0.2609(4) 0.4989(4) 0.7500(3)
H21_2 H 0.244111 0.526603 0.740585
C46_2 C 0.1737(4) 0.6308(4) 0.5996(3)
H22_2 H 0.167049 0.598577 0.590956
C47_2 C 0.2562(4) 0.4517(4) 0.7344(3)
C48_2 C 0.0616(4) 0.4110(4) 0.5811(3)
H23_2 H 0.049642 0.439320 0.569307
C49_2 C 0.2002(4) 0.5471(4) 0.6529(3)
C50_2 C 0.1143(4) 0.3740(4) 0.6251(3)
H24_2 H 0.138137 0.377119 0.643013
C51_2 C 0.1998(4) 0.6370(4) 0.6306(3)
C52_2 C 0.0992(4) 0.4162(4) 0.6063(3)
C53_2 C 0.2077(5) 0.4737(4) 0.6802(3)
C54_2 C 0.1547(5) 0.4816(4) 0.6346(3)
Cu8_2 Cu 0.05678(6) 0.70072(5) 0.500000
O26_2 O 0.1441(2) 0.1218(2) 0.67531(17)
O27_2 O 0.2107(2) 0.6372(2) 0.83515(17)
O30_2 O 0.0578(2) 0.1797(2) 0.67565(17)
O31_3 O 0.1204(2) 0.6239(2) 0.46282(17)
O32_3 O 0.0197(2) 0.6016(2) 0.46470(18)
O36_2 O 0.2729(2) 0.7196(2) 0.83077(17)
Cu2_2 Cu 0.94322(6) 0.29928(5) 0.500000
O1_2 O 0.7325(2) 0.4096(2) 0.78386(16)
O2_2 O 0.6441(2) 0.6218(2) 0.82469(17)
O3_2 O 0.8628(2) 0.7107(2) 0.66485(17)
O4_2 O 0.6797(2) 0.4422(2) 0.82435(17)
O5_2 O 0.8796(2) 0.3761(2) 0.53718(17)
O6_2 O 0.9009(2) 0.7605(2) 0.62543(17)
O9_2 O 0.7729(2) 0.2196(2) 0.66923(17)
O11_2 O 0.8928(2) 0.2935(2) 0.53607(17)
C1_2 C 0.8887(3) 0.7181(3) 0.6373(3)
C2_2 C 0.6670(3) 0.6288(3) 0.7962(3)
C3_2 C 0.6904(3) 0.5834(3) 0.7795(3)
N1_2 N 0.7744(4) 0.5580(3) 0.7051(3)
H1_2 H 0.783069 0.589114 0.702488
N2_2 N 0.8338(4) 0.4687(3) 0.6299(3)
C4_2 C 0.8738(4) 0.3319(3) 0.5491(3)
C5_2 C 0.7064(4) 0.4452(3) 0.7974(3)
C6_2 C 0.9984(4) 0.6398(4) 0.5462(3)
C7_2 C 0.8426(4) 0.3267(3) 0.5812(3)
C8_2 C 0.6861(3) 0.5358(3) 0.7947(3)
H2_2 H 0.667315 0.531564 0.815222
C9_2 C 0.9422(4) 0.6780(3) 0.5915(2)
H3_2 H 0.955558 0.709596 0.586198
C10_2 C 0.8335(3) 0.2784(3) 0.5943(2)
H4_2 H 0.845325 0.250070 0.582435
N3_2 N 0.8267(4) 0.5487(3) 0.6584(3)
C11_2 C 0.7095(4) 0.4954(3) 0.7794(3)
N4_2 N 0.7782(4) 0.4786(3) 0.6792(3)
N5_2 N 0.7837(4) 0.4037(3) 0.6514(3)
H5_2 H 0.759516 0.396488 0.665696
C12_2 C 0.7984(4) 0.2214(4) 0.6414(3)
C13_2 C 0.9059(3) 0.6728(3) 0.6174(3)
C14_2 C 0.8065(4) 0.2733(3) 0.6253(3)
C15_2 C 0.9582(4) 0.6359(4) 0.5735(3)
C16_2 C 0.7192(4) 0.5892(4) 0.7496(3)
H6_2 H 0.722182 0.620968 0.739348
N6_2 N 0.8804(4) 0.5353(3) 0.6116(3)
H7_2 H 0.892201 0.512551 0.597708
C17_2 C 0.7907(4) 0.3150(3) 0.6434(2)
H8_2 H 0.773278 0.311109 0.664466
C18_2 C 0.7391(4) 0.5011(4) 0.7500(3)
H9_2 H 0.755889 0.473397 0.740585
C19_2 C 0.8263(4) 0.3692(4) 0.5996(3)
H10_2 H 0.832951 0.401423 0.590956
C20_2 C 0.7438(4) 0.5483(4) 0.7344(3)
C21_2 C 0.9384(4) 0.5890(4) 0.5811(3)
H11_2 H 0.950358 0.560680 0.569307
C22_2 C 0.7998(4) 0.4529(4) 0.6529(3)
C23_2 C 0.8857(4) 0.6260(4) 0.6251(3)
H12_2 H 0.861863 0.622881 0.643013
C24_2 C 0.8002(4) 0.3630(4) 0.6306(3)
C25_2 C 0.9008(4) 0.5838(4) 0.6063(3)
C26_2 C 0.7923(5) 0.5263(4) 0.6802(3)
C27_2 C 0.8453(5) 0.5184(4) 0.6346(3)
O19_2 O 0.9803(2) 0.3984(2) 0.53530(18)
O24_2 O 0.9928(2) 0.3146(2) 0.53585(18)
Cu7_2 Cu 0.92807(6) 0.39136(5) 0.500000
O25_2 O 0.8559(2) 0.8782(2) 0.67531(17)
O28_2 O 0.7893(2) 0.3628(2) 0.83515(17)
O29_2 O 0.9422(2) 0.8203(2) 0.67565(17)
O35_2 O 0.7271(2) 0.2804(2) 0.83077(17)
O39_3 O 0.8928(2) 0.2935(2) 0.46393(17)
O40_3 O 0.9928(2) 0.3146(2) 0.46415(18)
O39_4 O 0.1072(2) 0.7065(2) 0.46393(17)
O40_4 O 0.0072(2) 0.6854(2) 0.46415(18)
O31_4 O 0.8796(2) 0.3761(2) 0.46282(17)
O32_4 O 0.9803(2) 0.3984(2) 0.46470(18)
Cu1_3 Cu 0.10864(5) 0.42807(6) 0.000000
Cu3_2 Cu 0.32181(4) 0.61929(4) 0.14825(3)
O2_3 O 0.1218(2) 0.8559(2) 0.32469(17)
O3_3 O 0.2107(2) 0.6372(2) 0.16485(17)
O6_3 O 0.2605(2) 0.5991(2) 0.12543(17)
O7_3 O 0.1016(2) 0.4803(2) 0.03530(18)
O10_2 O 0.1710(2) 0.8263(2) 0.28156(17)
O12_3 O 0.1854(2) 0.4928(2) 0.03585(18)
C1_3 C 0.2181(3) 0.6113(3) 0.1373(3)
C2_3 C 0.1288(3) 0.8330(3) 0.2962(3)
C3_3 C 0.0834(3) 0.8096(3) 0.2795(3)
N1_3 N 0.0580(3) 0.7256(4) 0.2051(3)
H1_3 H 0.089114 0.716931 0.202488
C6_3 C 0.1398(4) 0.5016(4) 0.0462(3)
C8_3 C 0.0358(3) 0.8139(3) 0.2947(3)
H2_3 H 0.031564 0.832685 0.315222
C9_3 C 0.1780(3) 0.5578(4) 0.0915(2)
H3_3 H 0.209596 0.544442 0.086198
N3_3 N 0.0487(3) 0.6733(4) 0.1584(3)
C13_3 C 0.1728(3) 0.5941(3) 0.1174(3)
C15_3 C 0.1359(4) 0.5418(4) 0.0735(3)
C16_3 C 0.0892(4) 0.7808(4) 0.2496(3)
H6_3 H 0.120968 0.777818 0.239348
N6_3 N 0.0353(3) 0.6196(4) 0.1116(3)
H7_3 H 0.012551 0.607799 0.097708
C18_3 C 0.0011(4) 0.7609(4) 0.2500(3)
C20_3 C 0.0483(4) 0.7562(4) 0.2344(3)
C21_3 C 0.0890(4) 0.5616(4) 0.0811(3)
H11_3 H 0.060680 0.549642 0.069307
C23_3 C 0.1260(4) 0.6143(4) 0.1251(3)
H12_3 H 0.122881 0.638137 0.143013
C25_3 C 0.0838(4) 0.5992(4) 0.1063(3)
C26_3 C 0.0263(4) 0.7077(5) 0.1802(3)
C27_3 C 0.0184(4) 0.6547(5) 0.1346(3)
Cu6_2 Cu 0.15645(4) 0.23262(4) 0.30570(3)
O13_3 O 0.0904(2) 0.2325(2) 0.28386(16)
O16_3 O 0.0578(2) 0.1797(2) 0.32435(17)
O17_3 O 0.1239(2) 0.3796(2) 0.03718(17)
O20_2 O 0.3155(2) 0.3186(3) 0.12556(16)
O21_3 O 0.2804(2) 0.2729(2) 0.16923(17)
O23_3 O 0.2065(2) 0.3928(2) 0.03607(17)
N8_3 N 0.0313(3) 0.3338(4) 0.1299(3)
C31_3 C 0.1681(3) 0.3738(4) 0.0491(3)
C32_3 C 0.0548(3) 0.2064(4) 0.2974(3)
C34_3 C 0.1733(3) 0.3426(4) 0.0812(3)
C37_3 C 0.2216(3) 0.3335(3) 0.0943(2)
H16_3 H 0.249930 0.345325 0.082435
C38_3 C 0.0046(3) 0.2095(4) 0.2794(3)
N10_3 N 0.0214(3) 0.2782(4) 0.1792(3)
N11_3 N 0.0963(3) 0.2837(4) 0.1514(3)
H17_3 H 0.103512 0.259516 0.165696
C39_3 C 0.2786(4) 0.2984(4) 0.1414(3)
C41_3 C 0.2267(3) 0.3065(4) 0.1253(3)
C44_3 C 0.1850(3) 0.2907(4) 0.1434(2)
H20_3 H 0.188891 0.273278 0.164466
H21_3 H 0.026603 0.255889 0.240585
C46_3 C 0.1308(4) 0.3263(4) 0.0996(3)
H22_3 H 0.098577 0.332951 0.090956
C49_3 C 0.0471(4) 0.2998(4) 0.1529(3)
C51_3 C 0.1370(4) 0.3002(4) 0.1306(3)
Cu8_3 Cu 0.20072(5) 0.44322(6) 0.000000
Cu9_2 Cu 0.38071(4) 0.32181(4) 0.14825(3)
Cu11_2 Cu 0.17819(4) 0.88071(4) 0.35175(3)
Cu13_2 Cu 0.11929(4) 0.17819(4) 0.35175(3)
Cu15_2 Cu 0.23262(4) 0.84355(4) 0.30570(3)
Cu18_2 Cu 0.34355(4) 0.26738(4) 0.19430(3)
Cu19_2 Cu 0.26738(4) 0.65645(4) 0.19430(3)
O25_3 O 0.3782(2) 0.6441(2) 0.17531(17)
O27_3 O 0.1372(2) 0.2893(2) 0.33515(17)
O29_3 O 0.3203(2) 0.5578(2) 0.17565(17)
O33_2 O 0.3186(3) 0.6845(2) 0.12556(16)
O36_3 O 0.2196(2) 0.2271(2) 0.33077(17)
O37_2 O 0.1737(2) 0.1710(2) 0.28156(17)
Cu1_4 Cu 0.10864(5) 0.42807(6) 1.000000
Cu8_4 Cu 0.20072(5) 0.44322(6) 1.000000
O31_5 O 0.1239(2) 0.3796(2) 0.96282(17)
O32_5 O 0.1016(2) 0.4803(2) 0.96470(18)
Cu2_3 Cu 0.79928(5) 0.55678(6) 0.000000
Cu4_2 Cu 0.84355(4) 0.76738(4) 0.30570(3)
O1_3 O 0.9096(2) 0.7675(2) 0.28386(16)
O4_3 O 0.9422(2) 0.8203(2) 0.32435(17)
O5_3 O 0.8761(2) 0.6204(2) 0.03718(17)
O8_2 O 0.6845(2) 0.6814(3) 0.12556(16)
O9_3 O 0.7196(2) 0.7271(2) 0.16923(17)
O11_3 O 0.7935(2) 0.6072(2) 0.03607(17)
N2_3 N 0.9687(3) 0.6662(4) 0.1299(3)
C4_3 C 0.8319(3) 0.6262(4) 0.0491(3)
C5_3 C 0.9452(3) 0.7936(4) 0.2974(3)
C7_3 C 0.8267(3) 0.6574(4) 0.0812(3)
C10_3 C 0.7784(3) 0.6665(3) 0.0943(2)
H4_3 H 0.750070 0.654675 0.082435
C11_3 C 0.9954(3) 0.7905(4) 0.2794(3)
N4_3 N 0.9786(3) 0.7218(4) 0.1792(3)
N5_3 N 0.9037(3) 0.7163(4) 0.1514(3)
H5_3 H 0.896488 0.740484 0.165696
C12_3 C 0.7214(4) 0.7016(4) 0.1414(3)
C14_3 C 0.7733(3) 0.6935(4) 0.1253(3)
C17_3 C 0.8150(3) 0.7093(4) 0.1434(2)
H8_3 H 0.811109 0.726722 0.164466
H9_3 H 0.973397 0.744111 0.240585
C19_3 C 0.8692(4) 0.6737(4) 0.0996(3)
H10_3 H 0.901423 0.667049 0.090956
C22_3 C 0.9529(4) 0.7002(4) 0.1529(3)
C24_3 C 0.8630(4) 0.6998(4) 0.1306(3)
Cu5_2 Cu 0.67819(4) 0.38071(4) 0.14825(3)
O14_3 O 0.8782(2) 0.1441(2) 0.32469(17)
O15_3 O 0.7893(2) 0.3628(2) 0.16485(17)
O18_3 O 0.7395(2) 0.4009(2) 0.12543(17)
O19_3 O 0.8984(2) 0.5197(2) 0.03530(18)
O22_2 O 0.8290(2) 0.1737(2) 0.28156(17)
O24_3 O 0.8146(2) 0.5072(2) 0.03585(18)
C28_3 C 0.7819(3) 0.3887(3) 0.1373(3)
C29_3 C 0.8712(3) 0.1670(3) 0.2962(3)
C30_3 C 0.9166(3) 0.1904(3) 0.2795(3)
N7_3 N 0.9420(3) 0.2744(4) 0.2051(3)
H13_3 H 0.910886 0.283069 0.202488
C33_3 C 0.8602(4) 0.4984(4) 0.0462(3)
C35_3 C 0.9642(3) 0.1861(3) 0.2947(3)
H14_3 H 0.968436 0.167315 0.315222
C36_3 C 0.8220(3) 0.4422(4) 0.0915(2)
H15_3 H 0.790404 0.455558 0.086198
N9_3 N 0.9513(3) 0.3267(4) 0.1584(3)
C40_3 C 0.8272(3) 0.4059(3) 0.1174(3)
C42_3 C 0.8641(4) 0.4582(4) 0.0735(3)
C43_3 C 0.9108(4) 0.2192(4) 0.2496(3)
H18_3 H 0.879032 0.222182 0.239348
N12_3 N 0.9647(3) 0.3804(4) 0.1116(3)
H19_3 H 0.987449 0.392201 0.097708
C45_3 C 0.9989(4) 0.2391(4) 0.2500(3)
C47_3 C 0.9517(4) 0.2438(4) 0.2344(3)
C48_3 C 0.9110(4) 0.4384(4) 0.0811(3)
H23_3 H 0.939320 0.450358 0.069307
C50_3 C 0.8740(4) 0.3857(4) 0.1251(3)
H24_3 H 0.877119 0.361863 0.143013
C52_3 C 0.9162(4) 0.4008(4) 0.1063(3)
C53_3 C 0.9737(4) 0.2923(5) 0.1802(3)
C54_3 C 0.9816(4) 0.3453(5) 0.1346(3)
Cu7_3 Cu 0.89136(5) 0.57193(6) 0.000000
Cu10_2 Cu 0.61929(4) 0.67819(4) 0.14825(3)
Cu12_2 Cu 0.82181(4) 0.11929(4) 0.35175(3)
Cu14_2 Cu 0.88071(4) 0.82181(4) 0.35175(3)
Cu16_2 Cu 0.76738(4) 0.15645(4) 0.30570(3)
Cu17_2 Cu 0.65645(4) 0.73262(4) 0.19430(3)
Cu20_2 Cu 0.73262(4) 0.34355(4) 0.19430(3)
O26_3 O 0.6218(2) 0.3559(2) 0.17531(17)
O28_3 O 0.8628(2) 0.7107(2) 0.33515(17)
O30_3 O 0.6797(2) 0.4422(2) 0.17565(17)
O34_2 O 0.6814(3) 0.3155(2) 0.12556(16)
O35_3 O 0.7804(2) 0.7729(2) 0.33077(17)
O38_2 O 0.8263(2) 0.8290(2) 0.28156(17)
Cu2_4 Cu 0.79928(5) 0.55678(6) 1.000000
Cu7_4 Cu 0.89136(5) 0.57193(6) 1.000000
O39_5 O 0.7935(2) 0.6072(2) 0.96393(17)
O40_5 O 0.8146(2) 0.5072(2) 0.96415(18)
O39_6 O 0.2065(2) 0.3928(2) 0.96393(17)
O40_6 O 0.1854(2) 0.4928(2) 0.96415(18)
O31_6 O 0.8761(2) 0.6204(2) 0.96282(17)
O32_6 O 0.8984(2) 0.5197(2) 0.96470(18)
Cu1_5 Cu 0.57193(6) 0.10864(5) 0.000000
O2_4 O 0.1441(2) 0.1218(2) 0.32469(17)
O3_4 O 0.3628(2) 0.2107(2) 0.16485(17)
O6_4 O 0.4009(2) 0.2605(2) 0.12543(17)
O7_4 O 0.5197(2) 0.1016(2) 0.03530(18)
O12_4 O 0.5072(2) 0.1854(2) 0.03585(18)
C1_4 C 0.3887(3) 0.2181(3) 0.1373(3)
C2_4 C 0.1670(3) 0.1288(3) 0.2962(3)
C3_4 C 0.1904(3) 0.0834(3) 0.2795(3)
N1_4 N 0.2744(4) 0.0580(3) 0.2051(3)
H1_4 H 0.283069 0.089114 0.202488
C6_4 C 0.4984(4) 0.1398(4) 0.0462(3)
C8_4 C 0.1861(3) 0.0358(3) 0.2947(3)
H2_4 H 0.167315 0.031564 0.315222
C9_4 C 0.4422(4) 0.1780(3) 0.0915(2)
H3_4 H 0.455558 0.209596 0.086198
N3_4 N 0.3267(4) 0.0487(3) 0.1584(3)
C13_4 C 0.4059(3) 0.1728(3) 0.1174(3)
C15_4 C 0.4582(4) 0.1359(4) 0.0735(3)
C16_4 C 0.2192(4) 0.0892(4) 0.2496(3)
H6_4 H 0.222182 0.120968 0.239348
N6_4 N 0.3804(4) 0.0353(3) 0.1116(3)
H7_4 H 0.392201 0.012551 0.097708
C18_4 C 0.2391(4) 0.0011(4) 0.2500(3)
C20_4 C 0.2438(4) 0.0483(4) 0.2344(3)
C21_4 C 0.4384(4) 0.0890(4) 0.0811(3)
H11_4 H 0.450358 0.060680 0.069307
C23_4 C 0.3857(4) 0.1260(4) 0.1251(3)
H12_4 H 0.361863 0.122881 0.143013
C25_4 C 0.4008(4) 0.0838(4) 0.1063(3)
C26_4 C 0.2923(5) 0.0263(4) 0.1802(3)
C27_4 C 0.3453(5) 0.0184(4) 0.1346(3)
O13_4 O 0.7675(2) 0.0904(2) 0.28386(16)
O16_4 O 0.8203(2) 0.0578(2) 0.32435(17)
O17_4 O 0.6204(2) 0.1239(2) 0.03718(17)
O21_4 O 0.7271(2) 0.2804(2) 0.16923(17)
O23_4 O 0.6072(2) 0.2065(2) 0.03607(17)
N8_4 N 0.6662(4) 0.0313(3) 0.1299(3)
C31_4 C 0.6262(4) 0.1681(3) 0.0491(3)
C32_4 C 0.7936(4) 0.0548(3) 0.2974(3)
C34_4 C 0.6574(4) 0.1733(3) 0.0812(3)
C37_4 C 0.6665(3) 0.2216(3) 0.0943(2)
H16_4 H 0.654675 0.249930 0.082435
C38_4 C 0.7905(4) 0.0046(3) 0.2794(3)
N10_4 N 0.7218(4) 0.0214(3) 0.1792(3)
N11_4 N 0.7163(4) 0.0963(3) 0.1514(3)
H17_4 H 0.740484 0.103512 0.165696
C39_4 C 0.7016(4) 0.2786(4) 0.1414(3)
C41_4 C 0.6935(4) 0.2267(3) 0.1253(3)
C44_4 C 0.7093(4) 0.1850(3) 0.1434(2)
H20_4 H 0.726722 0.188891 0.164466
H21_4 H 0.744111 0.026603 0.240585
C46_4 C 0.6737(4) 0.1308(4) 0.0996(3)
H22_4 H 0.667049 0.098577 0.090956
C49_4 C 0.7002(4) 0.0471(4) 0.1529(3)
C51_4 C 0.6998(4) 0.1370(4) 0.1306(3)
Cu8_5 Cu 0.55678(6) 0.20072(5) 0.000000
O25_4 O 0.3559(2) 0.3782(2) 0.17531(17)
O27_4 O 0.7107(2) 0.1372(2) 0.33515(17)
O29_4 O 0.4422(2) 0.3203(2) 0.17565(17)
O36_4 O 0.7729(2) 0.2196(2) 0.33077(17)
Cu1_6 Cu 0.57193(6) 0.10864(5) 1.000000
Cu8_6 Cu 0.55678(6) 0.20072(5) 1.000000
O31_7 O 0.6204(2) 0.1239(2) 0.96282(17)
O32_7 O 0.5197(2) 0.1016(2) 0.96470(18)
Cu2_5 Cu 0.44322(6) 0.79928(5) 0.000000
O1_4 O 0.2325(2) 0.9096(2) 0.28386(16)
O4_4 O 0.1797(2) 0.9422(2) 0.32435(17)
O5_4 O 0.3796(2) 0.8761(2) 0.03718(17)
O9_4 O 0.2729(2) 0.7196(2) 0.16923(17)
O11_4 O 0.3928(2) 0.7935(2) 0.03607(17)
N2_4 N 0.3338(4) 0.9687(3) 0.1299(3)
C4_4 C 0.3738(4) 0.8319(3) 0.0491(3)
C5_4 C 0.2064(4) 0.9452(3) 0.2974(3)
C7_4 C 0.3426(4) 0.8267(3) 0.0812(3)
C10_4 C 0.3335(3) 0.7784(3) 0.0943(2)
H4_4 H 0.345325 0.750070 0.082435
C11_4 C 0.2095(4) 0.9954(3) 0.2794(3)
N4_4 N 0.2782(4) 0.9786(3) 0.1792(3)
N5_4 N 0.2837(4) 0.9037(3) 0.1514(3)
H5_4 H 0.259516 0.896488 0.165696
C12_4 C 0.2984(4) 0.7214(4) 0.1414(3)
C14_4 C 0.3065(4) 0.7733(3) 0.1253(3)
C17_4 C 0.2907(4) 0.8150(3) 0.1434(2)
H8_4 H 0.273278 0.811109 0.164466
H9_4 H 0.255889 0.973397 0.240585
C19_4 C 0.3263(4) 0.8692(4) 0.0996(3)
H10_4 H 0.332951 0.901423 0.090956
C22_4 C 0.2998(4) 0.9529(4) 0.1529(3)
C24_4 C 0.3002(4) 0.8630(4) 0.1306(3)
O14_4 O 0.8559(2) 0.8782(2) 0.32469(17)
O15_4 O 0.6372(2) 0.7893(2) 0.16485(17)
O18_4 O 0.5991(2) 0.7395(2) 0.12543(17)
O19_4 O 0.4803(2) 0.8984(2) 0.03530(18)
O24_4 O 0.4928(2) 0.8146(2) 0.03585(18)
C28_4 C 0.6113(3) 0.7819(3) 0.1373(3)
C29_4 C 0.8330(3) 0.8712(3) 0.2962(3)
C30_4 C 0.8096(3) 0.9166(3) 0.2795(3)
N7_4 N 0.7256(4) 0.9420(3) 0.2051(3)
H13_4 H 0.716931 0.910886 0.202488
C33_4 C 0.5016(4) 0.8602(4) 0.0462(3)
C35_4 C 0.8139(3) 0.9642(3) 0.2947(3)
H14_4 H 0.832685 0.968436 0.315222
C36_4 C 0.5578(4) 0.8220(3) 0.0915(2)
H15_4 H 0.544442 0.790404 0.086198
N9_4 N 0.6733(4) 0.9513(3) 0.1584(3)
C40_4 C 0.5941(3) 0.8272(3) 0.1174(3)
C42_4 C 0.5418(4) 0.8641(4) 0.0735(3)
C43_4 C 0.7808(4) 0.9108(4) 0.2496(3)
H18_4 H 0.777818 0.879032 0.239348
N12_4 N 0.6196(4) 0.9647(3) 0.1116(3)
H19_4 H 0.607799 0.987449 0.097708
C45_4 C 0.7609(4) 0.9989(4) 0.2500(3)
C47_4 C 0.7562(4) 0.9517(4) 0.2344(3)
C48_4 C 0.5616(4) 0.9110(4) 0.0811(3)
H23_4 H 0.549642 0.939320 0.069307
C50_4 C 0.6143(4) 0.8740(4) 0.1251(3)
H24_4 H 0.638137 0.877119 0.143013
C52_4 C 0.5992(4) 0.9162(4) 0.1063(3)
C53_4 C 0.7077(5) 0.9737(4) 0.1802(3)
C54_4 C 0.6547(5) 0.9816(4) 0.1346(3)
Cu7_5 Cu 0.42807(6) 0.89136(5) 0.000000
O26_4 O 0.6441(2) 0.6218(2) 0.17531(17)
O28_4 O 0.2893(2) 0.8628(2) 0.33515(17)
O30_4 O 0.5578(2) 0.6797(2) 0.17565(17)
O35_4 O 0.2271(2) 0.7804(2) 0.33077(17)
Cu2_6 Cu 0.44322(6) 0.79928(5) 1.000000
Cu7_6 Cu 0.42807(6) 0.89136(5) 1.000000
O39_7 O 0.3928(2) 0.7935(2) 0.96393(17)
O40_7 O 0.4928(2) 0.8146(2) 0.96415(18)
O39_8 O 0.6072(2) 0.2065(2) 0.96393(17)
O40_8 O 0.5072(2) 0.1854(2) 0.96415(18)
O31_8 O 0.3796(2) 0.8761(2) 0.96282(17)
O32_8 O 0.4803(2) 0.8984(2) 0.96470(18)
O13_5 O 0.4096(2) 0.2675(2) 0.21614(16)
O18_5 O 0.7605(2) 0.0991(2) 0.37457(17)
O20_3 O 0.1845(2) 0.1814(3) 0.37444(16)
O22_3 O 0.6710(2) 0.3263(2) 0.21844(17)
C28_5 C 0.7181(3) 0.1113(3) 0.3627(3)
C29_5 C 0.6288(3) 0.3330(3) 0.2038(3)
C30_5 C 0.5834(3) 0.3096(3) 0.2205(3)
N7_5 N 0.5580(3) 0.2256(4) 0.2949(3)
H13_5 H 0.589114 0.216931 0.297512
N8_5 N 0.4687(3) 0.1662(4) 0.3701(3)
C31_5 C 0.3319(3) 0.1262(4) 0.4509(3)
C32_5 C 0.4452(3) 0.2936(4) 0.2026(3)
C33_5 C 0.6398(4) 0.0016(4) 0.4538(3)
C34_5 C 0.3267(3) 0.1574(4) 0.4188(3)
C35_5 C 0.5358(3) 0.3139(3) 0.2053(3)
H14_5 H 0.531564 0.332685 0.184778
C36_5 C 0.6780(3) 0.0578(4) 0.4085(2)
H15_5 H 0.709596 0.044442 0.413802
C37_5 C 0.2784(3) 0.1665(3) 0.4057(2)
H16_5 H 0.250070 0.154675 0.417565
N9_5 N 0.5487(3) 0.1733(4) 0.3416(3)
C38_5 C 0.4954(3) 0.2905(4) 0.2206(3)
N10_5 N 0.4786(3) 0.2218(4) 0.3208(3)
N11_5 N 0.4037(3) 0.2163(4) 0.3486(3)
H17_5 H 0.396488 0.240484 0.334304
C39_5 C 0.2214(4) 0.2016(4) 0.3586(3)
C40_5 C 0.6728(3) 0.0941(3) 0.3826(3)
C41_5 C 0.2733(3) 0.1935(4) 0.3747(3)
C42_5 C 0.6359(4) 0.0418(4) 0.4265(3)
C43_5 C 0.5892(4) 0.2808(4) 0.2504(3)
H18_5 H 0.620968 0.277818 0.260652
N12_5 N 0.5353(3) 0.1196(4) 0.3884(3)
H19_5 H 0.512551 0.107799 0.402292
C44_5 C 0.3150(3) 0.2093(4) 0.3566(2)
H20_5 H 0.311109 0.226722 0.335534
C45_5 C 0.5011(4) 0.2609(4) 0.2500(3)
H21_5 H 0.473397 0.244111 0.259415
C46_5 C 0.3692(4) 0.1737(4) 0.4004(3)
H22_5 H 0.401423 0.167049 0.409044
C47_5 C 0.5483(4) 0.2562(4) 0.2656(3)
C48_5 C 0.5890(4) 0.0616(4) 0.4189(3)
H23_5 H 0.560680 0.049642 0.430693
C49_5 C 0.4529(4) 0.2002(4) 0.3471(3)
C50_5 C 0.6260(4) 0.1143(4) 0.3749(3)
H24_5 H 0.622881 0.138137 0.356987
C51_5 C 0.3630(4) 0.1998(4) 0.3694(3)
C52_5 C 0.5838(4) 0.0992(4) 0.3937(3)
C53_5 C 0.5263(4) 0.2077(5) 0.3198(3)
C54_5 C 0.5184(4) 0.1547(5) 0.3654(3)
O34_3 O 0.8186(3) 0.1845(2) 0.37444(16)
O37_3 O 0.3263(2) 0.3290(2) 0.21844(17)
O1_5 O 0.5904(2) 0.7325(2) 0.21614(16)
O6_5 O 0.2395(2) 0.9009(2) 0.37457(17)
O8_3 O 0.8155(2) 0.8186(3) 0.37444(16)
O10_3 O 0.3290(2) 0.6737(2) 0.21844(17)
C1_5 C 0.2819(3) 0.8887(3) 0.3627(3)
C2_5 C 0.3712(3) 0.6670(3) 0.2038(3)
C3_5 C 0.4166(3) 0.6904(3) 0.2205(3)
N1_5 N 0.4420(3) 0.7744(4) 0.2949(3)
H1_5 H 0.410886 0.783069 0.297512
N2_5 N 0.5313(3) 0.8338(4) 0.3701(3)
C4_5 C 0.6681(3) 0.8738(4) 0.4509(3)
C5_5 C 0.5548(3) 0.7064(4) 0.2026(3)
C6_5 C 0.3602(4) 0.9984(4) 0.4538(3)
C7_5 C 0.6733(3) 0.8426(4) 0.4188(3)
C8_5 C 0.4642(3) 0.6861(3) 0.2053(3)
H2_5 H 0.468436 0.667315 0.184778
C9_5 C 0.3220(3) 0.9422(4) 0.4085(2)
H3_5 H 0.290404 0.955558 0.413802
C10_5 C 0.7216(3) 0.8335(3) 0.4057(2)
H4_5 H 0.749930 0.845325 0.417565
N3_5 N 0.4513(3) 0.8267(4) 0.3416(3)
C11_5 C 0.5046(3) 0.7095(4) 0.2206(3)
N4_5 N 0.5214(3) 0.7782(4) 0.3208(3)
N5_5 N 0.5963(3) 0.7837(4) 0.3486(3)
H5_5 H 0.603512 0.759516 0.334304
C12_5 C 0.7786(4) 0.7984(4) 0.3586(3)
C13_5 C 0.3272(3) 0.9059(3) 0.3826(3)
C14_5 C 0.7267(3) 0.8065(4) 0.3747(3)
C15_5 C 0.3641(4) 0.9582(4) 0.4265(3)
C16_5 C 0.4108(4) 0.7192(4) 0.2504(3)
H6_5 H 0.379032 0.722182 0.260652
N6_5 N 0.4647(3) 0.8804(4) 0.3884(3)
H7_5 H 0.487449 0.892201 0.402292
C17_5 C 0.6850(3) 0.7907(4) 0.3566(2)
H8_5 H 0.688891 0.773278 0.335534
C18_5 C 0.4989(4) 0.7391(4) 0.2500(3)
H9_5 H 0.526603 0.755889 0.259415
C19_5 C 0.6308(4) 0.8263(4) 0.4004(3)
H10_5 H 0.598577 0.832951 0.409044
C20_5 C 0.4517(4) 0.7438(4) 0.2656(3)
C21_5 C 0.4110(4) 0.9384(4) 0.4189(3)
H11_5 H 0.439320 0.950358 0.430693
C22_5 C 0.5471(4) 0.7998(4) 0.3471(3)
C23_5 C 0.3740(4) 0.8857(4) 0.3749(3)
H12_5 H 0.377119 0.861863 0.356987
C24_5 C 0.6370(4) 0.8002(4) 0.3694(3)
C25_5 C 0.4162(4) 0.9008(4) 0.3937(3)
C26_5 C 0.4737(4) 0.7923(5) 0.3198(3)
C27_5 C 0.4816(4) 0.8453(5) 0.3654(3)
O33_3 O 0.1814(3) 0.8155(2) 0.37444(16)
O38_3 O 0.6737(2) 0.6710(2) 0.21844(17)
O1_6 O 0.2675(2) 0.5904(2) 0.21614(16)
O6_6 O 0.0991(2) 0.2395(2) 0.37457(17)
C1_6 C 0.1113(3) 0.2819(3) 0.3627(3)
C2_6 C 0.3330(3) 0.3712(3) 0.2038(3)
C3_6 C 0.3096(3) 0.4166(3) 0.2205(3)
N1_6 N 0.2256(4) 0.4420(3) 0.2949(3)
H1_6 H 0.216931 0.410886 0.297512
N2_6 N 0.1662(4) 0.5313(3) 0.3701(3)
C4_6 C 0.1262(4) 0.6681(3) 0.4509(3)
C5_6 C 0.2936(4) 0.5548(3) 0.2026(3)
C6_6 C 0.0016(4) 0.3602(4) 0.4538(3)
C7_6 C 0.1574(4) 0.6733(3) 0.4188(3)
C8_6 C 0.3139(3) 0.4642(3) 0.2053(3)
H2_6 H 0.332685 0.468436 0.184778
C9_6 C 0.0578(4) 0.3220(3) 0.4085(2)
H3_6 H 0.044442 0.290404 0.413802
C10_6 C 0.1665(3) 0.7216(3) 0.4057(2)
H4_6 H 0.154675 0.749930 0.417565
N3_6 N 0.1733(4) 0.4513(3) 0.3416(3)
C11_6 C 0.2905(4) 0.5046(3) 0.2206(3)
N4_6 N 0.2218(4) 0.5214(3) 0.3208(3)
N5_6 N 0.2163(4) 0.5963(3) 0.3486(3)
H5_6 H 0.240484 0.603512 0.334304
C12_6 C 0.2016(4) 0.7786(4) 0.3586(3)
C13_6 C 0.0941(3) 0.3272(3) 0.3826(3)
C14_6 C 0.1935(4) 0.7267(3) 0.3747(3)
C15_6 C 0.0418(4) 0.3641(4) 0.4265(3)
C16_6 C 0.2808(4) 0.4108(4) 0.2504(3)
H6_6 H 0.277818 0.379032 0.260652
N6_6 N 0.1196(4) 0.4647(3) 0.3884(3)
H7_6 H 0.107799 0.487449 0.402292
C17_6 C 0.2093(4) 0.6850(3) 0.3566(2)
H8_6 H 0.226722 0.688891 0.335534
C18_6 C 0.2609(4) 0.4989(4) 0.2500(3)
H9_6 H 0.244111 0.526603 0.259415
C19_6 C 0.1737(4) 0.6308(4) 0.4004(3)
H10_6 H 0.167049 0.598577 0.409044
C20_6 C 0.2562(4) 0.4517(4) 0.2656(3)
C21_6 C 0.0616(4) 0.4110(4) 0.4189(3)
H11_6 H 0.049642 0.439320 0.430693
C22_6 C 0.2002(4) 0.5471(4) 0.3471(3)
C23_6 C 0.1143(4) 0.3740(4) 0.3749(3)
H12_6 H 0.138137 0.377119 0.356987
C24_6 C 0.1998(4) 0.6370(4) 0.3694(3)
C25_6 C 0.0992(4) 0.4162(4) 0.3937(3)
C26_6 C 0.2077(5) 0.4737(4) 0.3198(3)
C27_6 C 0.1547(5) 0.4816(4) 0.3654(3)
O13_6 O 0.7325(2) 0.4096(2) 0.21614(16)
O18_6 O 0.9009(2) 0.7605(2) 0.37457(17)
C28_6 C 0.8887(3) 0.7181(3) 0.3627(3)
C29_6 C 0.6670(3) 0.6288(3) 0.2038(3)
C30_6 C 0.6904(3) 0.5834(3) 0.2205(3)
N7_6 N 0.7744(4) 0.5580(3) 0.2949(3)
H13_6 H 0.783069 0.589114 0.297512
N8_6 N 0.8338(4) 0.4687(3) 0.3701(3)
C31_6 C 0.8738(4) 0.3319(3) 0.4509(3)
C32_6 C 0.7064(4) 0.4452(3) 0.2026(3)
C33_6 C 0.9984(4) 0.6398(4) 0.4538(3)
C34_6 C 0.8426(4) 0.3267(3) 0.4188(3)
C35_6 C 0.6861(3) 0.5358(3) 0.2053(3)
H14_6 H 0.667315 0.531564 0.184778
C36_6 C 0.9422(4) 0.6780(3) 0.4085(2)
H15_6 H 0.955558 0.709596 0.413802
C37_6 C 0.8335(3) 0.2784(3) 0.4057(2)
H16_6 H 0.845325 0.250070 0.417565
N9_6 N 0.8267(4) 0.5487(3) 0.3416(3)
C38_6 C 0.7095(4) 0.4954(3) 0.2206(3)
N10_6 N 0.7782(4) 0.4786(3) 0.3208(3)
N11_6 N 0.7837(4) 0.4037(3) 0.3486(3)
H17_6 H 0.759516 0.396488 0.334304
C39_6 C 0.7984(4) 0.2214(4) 0.3586(3)
C40_6 C 0.9059(3) 0.6728(3) 0.3826(3)
C41_6 C 0.8065(4) 0.2733(3) 0.3747(3)
C42_6 C 0.9582(4) 0.6359(4) 0.4265(3)
C43_6 C 0.7192(4) 0.5892(4) 0.2504(3)
H18_6 H 0.722182 0.620968 0.260652
N12_6 N 0.8804(4) 0.5353(3) 0.3884(3)
H19_6 H 0.892201 0.512551 0.402292
C44_6 C 0.7907(4) 0.3150(3) 0.3566(2)
H20_6 H 0.773278 0.311109 0.335534
C45_6 C 0.7391(4) 0.5011(4) 0.2500(3)
H21_6 H 0.755889 0.473397 0.259415
C46_6 C 0.8263(4) 0.3692(4) 0.4004(3)
H22_6 H 0.832951 0.401423 0.409044
C47_6 C 0.7438(4) 0.5483(4) 0.2656(3)
C48_6 C 0.9384(4) 0.5890(4) 0.4189(3)
H23_6 H 0.950358 0.560680 0.430693
C49_6 C 0.7998(4) 0.4529(4) 0.3471(3)
C50_6 C 0.8857(4) 0.6260(4) 0.3749(3)
H24_6 H 0.861863 0.622881 0.356987
C51_6 C 0.8002(4) 0.3630(4) 0.3694(3)
C52_6 C 0.9008(4) 0.5838(4) 0.3937(3)
C53_6 C 0.7923(5) 0.5263(4) 0.3198(3)
C54_6 C 0.8453(5) 0.5184(4) 0.3654(3)
O1_7 O 0.0904(2) 0.2325(2) 0.71614(16)
O8_4 O 0.3155(2) 0.3186(3) 0.87444(16)
N2_7 N 0.0313(3) 0.3338(4) 0.8701(3)
C4_7 C 0.1681(3) 0.3738(4) 0.9509(3)
C5_7 C 0.0548(3) 0.2064(4) 0.7026(3)
C7_7 C 0.1733(3) 0.3426(4) 0.9188(3)
C10_7 C 0.2216(3) 0.3335(3) 0.9057(2)
H4_7 H 0.249930 0.345325 0.917565
C11_7 C 0.0046(3) 0.2095(4) 0.7206(3)
N4_7 N 0.0214(3) 0.2782(4) 0.8208(3)
N5_7 N 0.0963(3) 0.2837(4) 0.8486(3)
H5_7 H 0.103512 0.259516 0.834304
C12_7 C 0.2786(4) 0.2984(4) 0.8586(3)
C14_7 C 0.2267(3) 0.3065(4) 0.8747(3)
C17_7 C 0.1850(3) 0.2907(4) 0.8566(2)
H8_7 H 0.188891 0.273278 0.835534
H9_7 H 0.026603 0.255889 0.759415
C19_7 C 0.1308(4) 0.3263(4) 0.9004(3)
H10_7 H 0.098577 0.332951 0.909044
C22_7 C 0.0471(4) 0.2998(4) 0.8471(3)
C24_7 C 0.1370(4) 0.3002(4) 0.8694(3)
O18_7 O 0.2605(2) 0.5991(2) 0.87457(17)
O22_4 O 0.1710(2) 0.8263(2) 0.71844(17)
C28_7 C 0.2181(3) 0.6113(3) 0.8627(3)
C29_7 C 0.1288(3) 0.8330(3) 0.7038(3)
C30_7 C 0.0834(3) 0.8096(3) 0.7205(3)
N7_7 N 0.0580(3) 0.7256(4) 0.7949(3)
H13_7 H 0.089114 0.716931 0.797512
C33_7 C 0.1398(4) 0.5016(4) 0.9538(3)
C35_7 C 0.0358(3) 0.8139(3) 0.7053(3)
H14_7 H 0.031564 0.832685 0.684778
C36_7 C 0.1780(3) 0.5578(4) 0.9085(2)
H15_7 H 0.209596 0.544442 0.913802
N9_7 N 0.0487(3) 0.6733(4) 0.8416(3)
C40_7 C 0.1728(3) 0.5941(3) 0.8826(3)
C42_7 C 0.1359(4) 0.5418(4) 0.9265(3)
C43_7 C 0.0892(4) 0.7808(4) 0.7504(3)
H18_7 H 0.120968 0.777818 0.760652
N12_7 N 0.0353(3) 0.6196(4) 0.8884(3)
H19_7 H 0.012551 0.607799 0.902292
C45_7 C 0.0011(4) 0.7609(4) 0.7500(3)
C47_7 C 0.0483(4) 0.7562(4) 0.7656(3)
C48_7 C 0.0890(4) 0.5616(4) 0.9189(3)
H23_7 H 0.060680 0.549642 0.930693
C50_7 C 0.1260(4) 0.6143(4) 0.8749(3)
H24_7 H 0.122881 0.638137 0.856987
C52_7 C 0.0838(4) 0.5992(4) 0.8937(3)
C53_7 C 0.0263(4) 0.7077(5) 0.8198(3)
C54_7 C 0.0184(4) 0.6547(5) 0.8654(3)
O34_4 O 0.3186(3) 0.6845(2) 0.87444(16)
O38_4 O 0.1737(2) 0.1710(2) 0.71844(17)
O6_7 O 0.7395(2) 0.4009(2) 0.87457(17)
O10_4 O 0.8290(2) 0.1737(2) 0.71844(17)
C1_7 C 0.7819(3) 0.3887(3) 0.8627(3)
C2_7 C 0.8712(3) 0.1670(3) 0.7038(3)
C3_7 C 0.9166(3) 0.1904(3) 0.7205(3)
N1_7 N 0.9420(3) 0.2744(4) 0.7949(3)
H1_7 H 0.910886 0.283069 0.797512
C6_7 C 0.8602(4) 0.4984(4) 0.9538(3)
C8_7 C 0.9642(3) 0.1861(3) 0.7053(3)
H2_7 H 0.968436 0.167315 0.684778
C9_7 C 0.8220(3) 0.4422(4) 0.9085(2)
H3_7 H 0.790404 0.455558 0.913802
N3_7 N 0.9513(3) 0.3267(4) 0.8416(3)
C13_7 C 0.8272(3) 0.4059(3) 0.8826(3)
C15_7 C 0.8641(4) 0.4582(4) 0.9265(3)
C16_7 C 0.9108(4) 0.2192(4) 0.7504(3)
H6_7 H 0.879032 0.222182 0.760652
N6_7 N 0.9647(3) 0.3804(4) 0.8884(3)
H7_7 H 0.987449 0.392201 0.902292
C18_7 C 0.9989(4) 0.2391(4) 0.7500(3)
C20_7 C 0.9517(4) 0.2438(4) 0.7656(3)
C21_7 C 0.9110(4) 0.4384(4) 0.9189(3)
H11_7 H 0.939320 0.450358 0.930693
C23_7 C 0.8740(4) 0.3857(4) 0.8749(3)
H12_7 H 0.877119 0.361863 0.856987
C25_7 C 0.9162(4) 0.4008(4) 0.8937(3)
C26_7 C 0.9737(4) 0.2923(5) 0.8198(3)
C27_7 C 0.9816(4) 0.3453(5) 0.8654(3)
O13_7 O 0.9096(2) 0.7675(2) 0.71614(16)
O20_4 O 0.6845(2) 0.6814(3) 0.87444(16)
N8_7 N 0.9687(3) 0.6662(4) 0.8701(3)
C31_7 C 0.8319(3) 0.6262(4) 0.9509(3)
C32_7 C 0.9452(3) 0.7936(4) 0.7026(3)
C34_7 C 0.8267(3) 0.6574(4) 0.9188(3)
C37_7 C 0.7784(3) 0.6665(3) 0.9057(2)
H16_7 H 0.750070 0.654675 0.917565
C38_7 C 0.9954(3) 0.7905(4) 0.7206(3)
N10_7 N 0.9786(3) 0.7218(4) 0.8208(3)
N11_7 N 0.9037(3) 0.7163(4) 0.8486(3)
H17_7 H 0.896488 0.740484 0.834304
C39_7 C 0.7214(4) 0.7016(4) 0.8586(3)
C41_7 C 0.7733(3) 0.6935(4) 0.8747(3)
C44_7 C 0.8150(3) 0.7093(4) 0.8566(2)
H20_7 H 0.811109 0.726722 0.835534
H21_7 H 0.973397 0.744111 0.759415
C46_7 C 0.8692(4) 0.6737(4) 0.9004(3)
H22_7 H 0.901423 0.667049 0.909044
C49_7 C 0.9529(4) 0.7002(4) 0.8471(3)
C51_7 C 0.8630(4) 0.6998(4) 0.8694(3)
O33_4 O 0.6814(3) 0.3155(2) 0.87444(16)
O37_4 O 0.8263(2) 0.8290(2) 0.71844(17)
O1_8 O 0.7675(2) 0.0904(2) 0.71614(16)
N2_8 N 0.6662(4) 0.0313(3) 0.8701(3)
C4_8 C 0.6262(4) 0.1681(3) 0.9509(3)
C5_8 C 0.7936(4) 0.0548(3) 0.7026(3)
C7_8 C 0.6574(4) 0.1733(3) 0.9188(3)
C10_8 C 0.6665(3) 0.2216(3) 0.9057(2)
H4_8 H 0.654675 0.249930 0.917565
C11_8 C 0.7905(4) 0.0046(3) 0.7206(3)
N4_8 N 0.7218(4) 0.0214(3) 0.8208(3)
N5_8 N 0.7163(4) 0.0963(3) 0.8486(3)
H5_8 H 0.740484 0.103512 0.834304
C12_8 C 0.7016(4) 0.2786(4) 0.8586(3)
C14_8 C 0.6935(4) 0.2267(3) 0.8747(3)
C17_8 C 0.7093(4) 0.1850(3) 0.8566(2)
H8_8 H 0.726722 0.188891 0.835534
H9_8 H 0.744111 0.026603 0.759415
C19_8 C 0.6737(4) 0.1308(4) 0.9004(3)
H10_8 H 0.667049 0.098577 0.909044
C22_8 C 0.7002(4) 0.0471(4) 0.8471(3)
C24_8 C 0.6998(4) 0.1370(4) 0.8694(3)
O18_8 O 0.4009(2) 0.2605(2) 0.87457(17)
C28_8 C 0.3887(3) 0.2181(3) 0.8627(3)
C29_8 C 0.1670(3) 0.1288(3) 0.7038(3)
C30_8 C 0.1904(3) 0.0834(3) 0.7205(3)
N7_8 N 0.2744(4) 0.0580(3) 0.7949(3)
H13_8 H 0.283069 0.089114 0.797512
C33_8 C 0.4984(4) 0.1398(4) 0.9538(3)
C35_8 C 0.1861(3) 0.0358(3) 0.7053(3)
H14_8 H 0.167315 0.031564 0.684778
C36_8 C 0.4422(4) 0.1780(3) 0.9085(2)
H15_8 H 0.455558 0.209596 0.913802
N9_8 N 0.3267(4) 0.0487(3) 0.8416(3)
C40_8 C 0.4059(3) 0.1728(3) 0.8826(3)
C42_8 C 0.4582(4) 0.1359(4) 0.9265(3)
C43_8 C 0.2192(4) 0.0892(4) 0.7504(3)
H18_8 H 0.222182 0.120968 0.760652
N12_8 N 0.3804(4) 0.0353(3) 0.8884(3)
H19_8 H 0.392201 0.012551 0.902292
C45_8 C 0.2391(4) 0.0011(4) 0.7500(3)
C47_8 C 0.2438(4) 0.0483(4) 0.7656(3)
C48_8 C 0.4384(4) 0.0890(4) 0.9189(3)
H23_8 H 0.450358 0.060680 0.930693
C50_8 C 0.3857(4) 0.1260(4) 0.8749(3)
H24_8 H 0.361863 0.122881 0.856987
C52_8 C 0.4008(4) 0.0838(4) 0.8937(3)
C53_8 C 0.2923(5) 0.0263(4) 0.8198(3)
C54_8 C 0.3453(5) 0.0184(4) 0.8654(3)
O6_8 O 0.5991(2) 0.7395(2) 0.87457(17)
C1_8 C 0.6113(3) 0.7819(3) 0.8627(3)
C2_8 C 0.8330(3) 0.8712(3) 0.7038(3)
C3_8 C 0.8096(3) 0.9166(3) 0.7205(3)
N1_8 N 0.7256(4) 0.9420(3) 0.7949(3)
H1_8 H 0.716931 0.910886 0.797512
C6_8 C 0.5016(4) 0.8602(4) 0.9538(3)
C8_8 C 0.8139(3) 0.9642(3) 0.7053(3)
H2_8 H 0.832685 0.968436 0.684778
C9_8 C 0.5578(4) 0.8220(3) 0.9085(2)
H3_8 H 0.544442 0.790404 0.913802
N3_8 N 0.6733(4) 0.9513(3) 0.8416(3)
C13_8 C 0.5941(3) 0.8272(3) 0.8826(3)
C15_8 C 0.5418(4) 0.8641(4) 0.9265(3)
C16_8 C 0.7808(4) 0.9108(4) 0.7504(3)
H6_8 H 0.777818 0.879032 0.760652
N6_8 N 0.6196(4) 0.9647(3) 0.8884(3)
H7_8 H 0.607799 0.987449 0.902292
C18_8 C 0.7609(4) 0.9989(4) 0.7500(3)
C20_8 C 0.7562(4) 0.9517(4) 0.7656(3)
C21_8 C 0.5616(4) 0.9110(4) 0.9189(3)
H11_8 H 0.549642 0.939320 0.930693
C23_8 C 0.6143(4) 0.8740(4) 0.8749(3)
H12_8 H 0.638137 0.877119 0.856987
C25_8 C 0.5992(4) 0.9162(4) 0.8937(3)
C26_8 C 0.7077(5) 0.9737(4) 0.8198(3)
C27_8 C 0.6547(5) 0.9816(4) 0.8654(3)
O13_8 O 0.2325(2) 0.9096(2) 0.71614(16)
N8_8 N 0.3338(4) 0.9687(3) 0.8701(3)
C31_8 C 0.3738(4) 0.8319(3) 0.9509(3)
C32_8 C 0.2064(4) 0.9452(3) 0.7026(3)
C34_8 C 0.3426(4) 0.8267(3) 0.9188(3)
C37_8 C 0.3335(3) 0.7784(3) 0.9057(2)
H16_8 H 0.345325 0.750070 0.917565
C38_8 C 0.2095(4) 0.9954(3) 0.7206(3)
N10_8 N 0.2782(4) 0.9786(3) 0.8208(3)
N11_8 N 0.2837(4) 0.9037(3) 0.8486(3)
H17_8 H 0.259516 0.896488 0.834304
C39_8 C 0.2984(4) 0.7214(4) 0.8586(3)
C41_8 C 0.3065(4) 0.7733(3) 0.8747(3)
C44_8 C 0.2907(4) 0.8150(3) 0.8566(2)
H20_8 H 0.273278 0.811109 0.835534
H21_8 H 0.255889 0.973397 0.759415
C46_8 C 0.3263(4) 0.8692(4) 0.9004(3)
H22_8 H 0.332951 0.901423 0.909044
C49_8 C 0.2998(4) 0.9529(4) 0.8471(3)
C51_8 C 0.3002(4) 0.8630(4) 0.8694(3)
loop_
_geom_bond_atom_site_label_1
_geom_bond_atom_site_label_2
_geom_bond_site_symmetry_1
_geom_bond_site_symmetry_2
Cu2 O11 1_555 1_555
Cu3 O6 1_555 1_555
Cu4 O1 1_555 1_555
O1 C5 1_555 1_555
O2 C2 1_555 1_555
O3 C1 1_555 1_555
O4 C5 1_555 1_555
O5 C4 1_555 1_555
O6 C1 1_555 1_555
O8 C12 1_555 1_555
O9 C12 1_555 1_555
O10 C2 1_555 1_555
O11 C4 1_555 1_555
C1 C13 1_555 1_555
C2 C3 1_555 1_555
C3 C8 1_555 1_555
N1 H1 1_555 1_555
N2 C22 1_555 1_555
C4 C7 1_555 1_555
C5 C11 1_555 1_555
C6 C15 1_555 1_555
C7 C10 1_555 1_555
C8 H2 1_555 1_555
C9 H3 1_555 1_555
C10 H4 1_555 1_555
N3 C26 1_555 1_555
C11 C8 1_555 1_555
N4 C22 1_555 1_555
N5 H5 1_555 1_555
C12 C14 1_555 1_555
C13 C9 1_555 1_555
C14 C10 1_555 1_555
C15 C9 1_555 1_555
C16 C3 1_555 1_555
H6 C16 1_555 1_555
N6 H7 1_555 1_555
C17 C14 1_555 1_555
H8 C17 1_555 1_555
C18 C11 1_555 1_555
H9 C18 1_555 1_555
C19 C7 1_555 1_555
H10 C19 1_555 1_555
C20 N1 1_555 1_555
C21 C15 1_555 1_555
H11 C21 1_555 1_555
C22 N5 1_555 1_555
C23 C13 1_555 1_555
H12 C23 1_555 1_555
C24 N5 1_555 1_555
C25 N6 1_555 1_555
C26 N1 1_555 1_555
C27 N2 1_555 1_555
O24 Cu2 1_555 1_555
Cu7 Cu2 1_555 1_555
Cu10 O8 1_555 1_555
Cu11 O2 1_555 1_555
Cu14 Cu4 1_555 1_555
Cu15 O10 1_555 1_555
Cu17 O9 1_555 1_555
Cu19 Cu3 1_555 1_555
O25 Cu3 1_555 1_555
O28 Cu4 1_555 1_555
O29 Cu3 1_555 1_555
O33 Cu3 1_555 1_555
O35 Cu4 1_555 1_555
O38 Cu4 1_555 1_555
O39 Cu2 1_555 1_555
O40 Cu2 1_555 1_555
O3 Cu19 1_555 1_555
O4 Cu14 1_555 1_555
O5 Cu7 1_555 1_555
N3 C27 1_555 1_555
N4 C26 1_555 1_555
C16 C20 1_555 1_555
N6 C27 1_555 1_555
C17 C24 1_555 1_555
C18 C20 1_555 1_555
C19 C24 1_555 1_555
C21 C25 1_555 1_555
C23 C25 1_555 1_555
O19 Cu7 1_555 1_555
Cu10 Cu17 1_555 1_555
Cu11 Cu15 1_555 1_555
Cu1 O7 1_555 1_555
Cu5 O18 1_555 1_555
Cu6 O13 1_555 1_555
O13 C32 1_555 1_555
O14 C29 1_555 1_555
O15 C28 1_555 1_555
O16 C32 1_555 1_555
O17 Cu1 1_555 1_555
O18 C28 1_555 1_555
O20 C39 1_555 1_555
O21 C39 1_555 1_555
O22 C29 1_555 1_555
O23 C31 1_555 1_555
C28 C40 1_555 1_555
C29 C30 1_555 1_555
C30 C35 1_555 1_555
N7 H13 1_555 1_555
N8 C49 1_555 1_555
C31 O17 1_555 1_555
C32 C38 1_555 1_555
C34 C31 1_555 1_555
C35 H14 1_555 1_555
C36 H15 1_555 1_555
C37 C34 1_555 1_555
H16 C37 1_555 1_555
N9 C53 1_555 1_555
C38 C35 1_555 1_555
N10 C49 1_555 1_555
N11 H17 1_555 1_555
C39 C41 1_555 1_555
C40 C36 1_555 1_555
C41 C37 1_555 1_555
C42 C33 1_555 1_555
C43 C30 1_555 1_555
H18 C43 1_555 1_555
N12 H19 1_555 1_555
C44 C41 1_555 1_555
H20 C44 1_555 1_555
C45 C38 1_555 1_555
H21 C45 1_555 1_555
C46 C34 1_555 1_555
H22 C46 1_555 1_555
C47 N7 1_555 1_555
C48 C42 1_555 1_555
H23 C48 1_555 1_555
C49 N11 1_555 1_555
C50 C40 1_555 1_555
H24 C50 1_555 1_555
C51 N11 1_555 1_555
C52 N12 1_555 1_555
C53 N7 1_555 1_555
C54 N8 1_555 1_555
Cu8 Cu1 1_555 1_555
Cu9 O20 1_555 1_555
Cu12 O14 1_555 1_555
Cu13 Cu6 1_555 1_555
Cu16 O22 1_555 1_555
Cu18 O21 1_555 1_555
Cu20 Cu5 1_555 1_555
O26 Cu5 1_555 1_555
O27 Cu6 1_555 1_555
O30 Cu5 1_555 1_555
O31 Cu1 1_555 1_555
O32 Cu1 1_555 1_555
O34 Cu5 1_555 1_555
O36 Cu6 1_555 1_555
O37 Cu6 1_555 1_555
O12 Cu8 1_555 1_555
O15 Cu20 1_555 1_555
O16 Cu13 1_555 1_555
O23 Cu8 1_555 1_555
C36 C42 1_555 1_555
N9 C54 1_555 1_555
N10 C53 1_555 1_555
C43 C47 1_555 1_555
N12 C54 1_555 1_555
C44 C51 1_555 1_555
C45 C47 1_555 1_555
C46 C51 1_555 1_555
C48 C52 1_555 1_555
C50 C52 1_555 1_555
Cu9 Cu18 1_555 1_555
Cu12 Cu16 1_555 1_555
O31_2 Cu7 1_555 1_555
O32_2 Cu7 1_555 1_555
O39_2 Cu8 1_555 1_555
O40_2 Cu8 1_555 1_555
Cu1_2 O7_2 1_555 1_555
Cu10 O18_2 1_555 1_555
Cu16 O13_2 1_555 1_555
O13_2 C32_2 1_555 1_555
O14_2 C29_2 1_555 1_555
O15_2 C28_2 1_555 1_555
O16_2 C32_2 1_555 1_555
O17_2 Cu1_2 1_555 1_555
O18_2 C28_2 1_555 1_555
O34 C39_2 1_555 1_555
O21_2 C39_2 1_555 1_555
O38 C29_2 1_555 1_555
O23_2 C31_2 1_555 1_555
C28_2 C40_2 1_555 1_555
C29_2 C30_2 1_555 1_555
C30_2 C35_2 1_555 1_555
N7_2 H13_2 1_555 1_555
N8_2 C49_2 1_555 1_555
C31_2 O17_2 1_555 1_555
C32_2 C38_2 1_555 1_555
C34_2 C31_2 1_555 1_555
C35_2 H14_2 1_555 1_555
C36_2 H15_2 1_555 1_555
C37_2 C34_2 1_555 1_555
H16_2 C37_2 1_555 1_555
N9_2 C53_2 1_555 1_555
C38_2 C35_2 1_555 1_555
N10_2 C49_2 1_555 1_555
N11_2 H17_2 1_555 1_555
C39_2 C41_2 1_555 1_555
C40_2 C36_2 1_555 1_555
C41_2 C37_2 1_555 1_555
C42_2 C33_2 1_555 1_555
C43_2 C30_2 1_555 1_555
H18_2 C43_2 1_555 1_555
N12_2 H19_2 1_555 1_555
C44_2 C41_2 1_555 1_555
H20_2 C44_2 1_555 1_555
C45_2 C38_2 1_555 1_555
H21_2 C45_2 1_555 1_555
C46_2 C34_2 1_555 1_555
H22_2 C46_2 1_555 1_555
C47_2 N7_2 1_555 1_555
C48_2 C42_2 1_555 1_555
H23_2 C48_2 1_555 1_555
C49_2 N11_2 1_555 1_555
C50_2 C40_2 1_555 1_555
H24_2 C50_2 1_555 1_555
C51_2 N11_2 1_555 1_555
C52_2 N12_2 1_555 1_555
C53_2 N7_2 1_555 1_555
C54_2 N8_2 1_555 1_555
Cu8_2 Cu1_2 1_555 1_555
Cu14 O14_2 1_555 1_555
Cu20 O21_2 1_555 1_555
O26_2 Cu10 1_555 1_555
O27_2 Cu16 1_555 1_555
O30_2 Cu10 1_555 1_555
O31_3 Cu1_2 1_555 1_555
O32_3 Cu1_2 1_555 1_555
O36_2 Cu16 1_555 1_555
O12_2 Cu8_2 1_555 1_555
O15_2 Cu17 1_555 1_555
O16_2 Cu12 1_555 1_555
O23_2 Cu8_2 1_555 1_555
C36_2 C42_2 1_555 1_555
N9_2 C54_2 1_555 1_555
N10_2 C53_2 1_555 1_555
C43_2 C47_2 1_555 1_555
N12_2 C54_2 1_555 1_555
C44_2 C51_2 1_555 1_555
C45_2 C47_2 1_555 1_555
C46_2 C51_2 1_555 1_555
C48_2 C52_2 1_555 1_555
C50_2 C52_2 1_555 1_555
Cu2_2 O11_2 1_555 1_555
Cu9 O6_2 1_555 1_555
Cu15 O1_2 1_555 1_555
O1_2 C5_2 1_555 1_555
O2_2 C2_2 1_555 1_555
O3_2 C1_2 1_555 1_555
O4_2 C5_2 1_555 1_555
O5_2 C4_2 1_555 1_555
O6_2 C1_2 1_555 1_555
O33 C12_2 1_555 1_555
O9_2 C12_2 1_555 1_555
O37 C2_2 1_555 1_555
O11_2 C4_2 1_555 1_555
C1_2 C13_2 1_555 1_555
C2_2 C3_2 1_555 1_555
C3_2 C8_2 1_555 1_555
N1_2 H1_2 1_555 1_555
N2_2 C22_2 1_555 1_555
C4_2 C7_2 1_555 1_555
C5_2 C11_2 1_555 1_555
C6_2 C15_2 1_555 1_555
C7_2 C10_2 1_555 1_555
C8_2 H2_2 1_555 1_555
C9_2 H3_2 1_555 1_555
C10_2 H4_2 1_555 1_555
N3_2 C26_2 1_555 1_555
C11_2 C8_2 1_555 1_555
N4_2 C22_2 1_555 1_555
N5_2 H5_2 1_555 1_555
C12_2 C14_2 1_555 1_555
C13_2 C9_2 1_555 1_555
C14_2 C10_2 1_555 1_555
C15_2 C9_2 1_555 1_555
C16_2 C3_2 1_555 1_555
H6_2 C16_2 1_555 1_555
N6_2 H7_2 1_555 1_555
C17_2 C14_2 1_555 1_555
H8_2 C17_2 1_555 1_555
C18_2 C11_2 1_555 1_555
H9_2 C18_2 1_555 1_555
C19_2 C7_2 1_555 1_555
H10_2 C19_2 1_555 1_555
C20_2 N1_2 1_555 1_555
C21_2 C15_2 1_555 1_555
H11_2 C21_2 1_555 1_555
C22_2 N5_2 1_555 1_555
C23_2 C13_2 1_555 1_555
H12_2 C23_2 1_555 1_555
C24_2 N5_2 1_555 1_555
C25_2 N6_2 1_555 1_555
C26_2 N1_2 1_555 1_555
C27_2 N2_2 1_555 1_555
O24_2 Cu2_2 1_555 1_555
Cu7_2 Cu2_2 1_555 1_555
Cu13 O2_2 1_555 1_555
Cu19 O9_2 1_555 1_555
O25_2 Cu9 1_555 1_555
O28_2 Cu15 1_555 1_555
O29_2 Cu9 1_555 1_555
O35_2 Cu15 1_555 1_555
O39_3 Cu2_2 1_555 1_555
O40_3 Cu2_2 1_555 1_555
O3_2 Cu18 1_555 1_555
O4_2 Cu11 1_555 1_555
O5_2 Cu7_2 1_555 1_555
N3_2 C27_2 1_555 1_555
N4_2 C26_2 1_555 1_555
C16_2 C20_2 1_555 1_555
N6_2 C27_2 1_555 1_555
C17_2 C24_2 1_555 1_555
C18_2 C20_2 1_555 1_555
C19_2 C24_2 1_555 1_555
C21_2 C25_2 1_555 1_555
C23_2 C25_2 1_555 1_555
O19_2 Cu7_2 1_555 1_555
O39_4 Cu8_2 1_555 1_555
O40_4 Cu8_2 1_555 1_555
O31_4 Cu7_2 1_555 1_555
O32_4 Cu7_2 1_555 1_555
Cu1_3 O7_3 1_555 1_555
Cu3_2 O6_3 1_555 1_555
O2_3 C2_3 1_555 1_555
O3_3 C1_3 1_555 1_555
O6_3 C1_3 1_555 1_555
O7_3 C6_3 1_555 1_555
O10_2 C2_3 1_555 1_555
O12_3 C6_3 1_555 1_555
C1_3 C13_3 1_555 1_555
C2_3 C3_3 1_555 1_555
C3_3 C8_3 1_555 1_555
N1_3 H1_3 1_555 1_555
C6_3 C15_3 1_555 1_555
C8_3 H2_3 1_555 1_555
C9_3 H3_3 1_555 1_555
N3_3 C26_3 1_555 1_555
C13_3 C9_3 1_555 1_555
C15_3 C9_3 1_555 1_555
C16_3 C3_3 1_555 1_555
H6_3 C16_3 1_555 1_555
N6_3 H7_3 1_555 1_555
C20_3 N1_3 1_555 1_555
C21_3 C15_3 1_555 1_555
H11_3 C21_3 1_555 1_555
C23_3 C13_3 1_555 1_555
H12_3 C23_3 1_555 1_555
C25_3 N6_3 1_555 1_555
C26_3 N1_3 1_555 1_555
Cu6_2 O13_3 1_555 1_555
O13_3 C32_3 1_555 1_555
O16_3 C32_3 1_555 1_555
O17_3 Cu1_3 1_555 1_555
O20_2 C39_3 1_555 1_555
O21_3 C39_3 1_555 1_555
O23_3 C31_3 1_555 1_555
N8_3 C49_3 1_555 1_555
C31_3 O17_3 1_555 1_555
C32_3 C38_3 1_555 1_555
C34_3 C31_3 1_555 1_555
C37_3 C34_3 1_555 1_555
H16_3 C37_3 1_555 1_555
N10_3 C49_3 1_555 1_555
N11_3 H17_3 1_555 1_555
C39_3 C41_3 1_555 1_555
C41_3 C37_3 1_555 1_555
C44_3 C41_3 1_555 1_555
H20_3 C44_3 1_555 1_555
C46_3 C34_3 1_555 1_555
H22_3 C46_3 1_555 1_555
C49_3 N11_3 1_555 1_555
C51_3 N11_3 1_555 1_555
Cu8_3 Cu1_3 1_555 1_555
Cu9_2 O20_2 1_555 1_555
Cu11_2 O2_3 1_555 1_555
Cu13_2 Cu6_2 1_555 1_555
Cu15_2 O10_2 1_555 1_555
Cu18_2 O21_3 1_555 1_555
Cu19_2 Cu3_2 1_555 1_555
O25_3 Cu3_2 1_555 1_555
O27_3 Cu6_2 1_555 1_555
O29_3 Cu3_2 1_555 1_555
O33_2 Cu3_2 1_555 1_555
O36_3 Cu6_2 1_555 1_555
O37_2 Cu6_2 1_555 1_555
O3_3 Cu19_2 1_555 1_555
O12_3 Cu8_3 1_555 1_555
N3_3 C27_3 1_555 1_555
C16_3 C20_3 1_555 1_555
N6_3 C27_3 1_555 1_555
C18_3 C20_3 1_555 1_555
C21_3 C25_3 1_555 1_555
C23_3 C25_3 1_555 1_555
O16_3 Cu13_2 1_555 1_555
O23_3 Cu8_3 1_555 1_555
C44_3 C51_3 1_555 1_555
C46_3 C51_3 1_555 1_555
Cu9_2 Cu18_2 1_555 1_555
Cu11_2 Cu15_2 1_555 1_555
Cu8_4 Cu1_4 1_555 1_555
O31_5 Cu1_4 1_555 1_555
O32_5 Cu1_4 1_555 1_555
Cu2_3 O11_3 1_555 1_555
Cu4_2 O1_3 1_555 1_555
O1_3 C5_3 1_555 1_555
O4_3 C5_3 1_555 1_555
O5_3 C4_3 1_555 1_555
O8_2 C12_3 1_555 1_555
O9_3 C12_3 1_555 1_555
O11_3 C4_3 1_555 1_555
N2_3 C22_3 1_555 1_555
C4_3 C7_3 1_555 1_555
C5_3 C11_3 1_555 1_555
C7_3 C10_3 1_555 1_555
C10_3 H4_3 1_555 1_555
N4_3 C22_3 1_555 1_555
N5_3 H5_3 1_555 1_555
C12_3 C14_3 1_555 1_555
C14_3 C10_3 1_555 1_555
C17_3 C14_3 1_555 1_555
H8_3 C17_3 1_555 1_555
C19_3 C7_3 1_555 1_555
H10_3 C19_3 1_555 1_555
C22_3 N5_3 1_555 1_555
C24_3 N5_3 1_555 1_555
Cu5_2 O18_3 1_555 1_555
O14_3 C29_3 1_555 1_555
O15_3 C28_3 1_555 1_555
O18_3 C28_3 1_555 1_555
O19_3 C33_3 1_555 1_555
O22_2 C29_3 1_555 1_555
O24_3 Cu2_3 1_555 1_555
C28_3 C40_3 1_555 1_555
C29_3 C30_3 1_555 1_555
C30_3 C35_3 1_555 1_555
N7_3 H13_3 1_555 1_555
C33_3 O24_3 1_555 1_555
C35_3 H14_3 1_555 1_555
C36_3 H15_3 1_555 1_555
N9_3 C53_3 1_555 1_555
C40_3 C36_3 1_555 1_555
C42_3 C33_3 1_555 1_555
C43_3 C30_3 1_555 1_555
H18_3 C43_3 1_555 1_555
N12_3 H19_3 1_555 1_555
C47_3 N7_3 1_555 1_555
C48_3 C42_3 1_555 1_555
H23_3 C48_3 1_555 1_555
C50_3 C40_3 1_555 1_555
H24_3 C50_3 1_555 1_555
C52_3 N12_3 1_555 1_555
C53_3 N7_3 1_555 1_555
Cu7_3 Cu2_3 1_555 1_555
Cu10_2 O8_2 1_555 1_555
Cu12_2 O14_3 1_555 1_555
Cu14_2 Cu4_2 1_555 1_555
Cu16_2 O22_2 1_555 1_555
Cu17_2 O9_3 1_555 1_555
Cu20_2 Cu5_2 1_555 1_555
O26_3 Cu5_2 1_555 1_555
O28_3 Cu4_2 1_555 1_555
O30_3 Cu5_2 1_555 1_555
O34_2 Cu5_2 1_555 1_555
O35_3 Cu4_2 1_555 1_555
O38_2 Cu4_2 1_555 1_555
O4_3 Cu14_2 1_555 1_555
O5_3 Cu7_3 1_555 1_555
C17_3 C24_3 1_555 1_555
C19_3 C24_3 1_555 1_555
O15_3 Cu20_2 1_555 1_555
O19_3 Cu7_3 1_555 1_555
C36_3 C42_3 1_555 1_555
N9_3 C54_3 1_555 1_555
C43_3 C47_3 1_555 1_555
N12_3 C54_3 1_555 1_555
C45_3 C47_3 1_555 1_555
C48_3 C52_3 1_555 1_555
C50_3 C52_3 1_555 1_555
Cu10_2 Cu17_2 1_555 1_555
Cu12_2 Cu16_2 1_555 1_555
Cu7_4 Cu2_4 1_555 1_555
O39_5 Cu2_4 1_555 1_555
O40_5 Cu2_4 1_555 1_555
O39_6 Cu8_4 1_555 1_555
O40_6 Cu8_4 1_555 1_555
O31_6 Cu7_4 1_555 1_555
O32_6 Cu7_4 1_555 1_555
Cu1_5 O7_4 1_555 1_555
Cu9_2 O6_4 1_555 1_555
O2_4 C2_4 1_555 1_555
O3_4 C1_4 1_555 1_555
O6_4 C1_4 1_555 1_555
O7_4 C6_4 1_555 1_555
O37_2 C2_4 1_555 1_555
O12_4 C6_4 1_555 1_555
C1_4 C13_4 1_555 1_555
C2_4 C3_4 1_555 1_555
C3_4 C8_4 1_555 1_555
N1_4 H1_4 1_555 1_555
C6_4 C15_4 1_555 1_555
C8_4 H2_4 1_555 1_555
C9_4 H3_4 1_555 1_555
N3_4 C26_4 1_555 1_555
C13_4 C9_4 1_555 1_555
C15_4 C9_4 1_555 1_555
C16_4 C3_4 1_555 1_555
H6_4 C16_4 1_555 1_555
N6_4 H7_4 1_555 1_555
C20_4 N1_4 1_555 1_555
C21_4 C15_4 1_555 1_555
H11_4 C21_4 1_555 1_555
C23_4 C13_4 1_555 1_555
H12_4 C23_4 1_555 1_555
C25_4 N6_4 1_555 1_555
C26_4 N1_4 1_555 1_555
Cu16_2 O13_4 1_555 1_555
O13_4 C32_4 1_555 1_555
O16_4 C32_4 1_555 1_555
O17_4 Cu1_5 1_555 1_555
O34_2 C39_4 1_555 1_555
O21_4 C39_4 1_555 1_555
O23_4 C31_4 1_555 1_555
N8_4 C49_4 1_555 1_555
C31_4 O17_4 1_555 1_555
C32_4 C38_4 1_555 1_555
C34_4 C31_4 1_555 1_555
C37_4 C34_4 1_555 1_555
H16_4 C37_4 1_555 1_555
N10_4 C49_4 1_555 1_555
N11_4 H17_4 1_555 1_555
C39_4 C41_4 1_555 1_555
C41_4 C37_4 1_555 1_555
C44_4 C41_4 1_555 1_555
H20_4 C44_4 1_555 1_555
C46_4 C34_4 1_555 1_555
H22_4 C46_4 1_555 1_555
C49_4 N11_4 1_555 1_555
C51_4 N11_4 1_555 1_555
Cu8_5 Cu1_5 1_555 1_555
Cu13_2 O2_4 1_555 1_555
Cu20_2 O21_4 1_555 1_555
O25_4 Cu9_2 1_555 1_555
O27_4 Cu16_2 1_555 1_555
O29_4 Cu9_2 1_555 1_555
O36_4 Cu16_2 1_555 1_555
O3_4 Cu18_2 1_555 1_555
O12_4 Cu8_5 1_555 1_555
N3_4 C27_4 1_555 1_555
C16_4 C20_4 1_555 1_555
N6_4 C27_4 1_555 1_555
C18_4 C20_4 1_555 1_555
C21_4 C25_4 1_555 1_555
C23_4 C25_4 1_555 1_555
O16_4 Cu12_2 1_555 1_555
O23_4 Cu8_5 1_555 1_555
C44_4 C51_4 1_555 1_555
C46_4 C51_4 1_555 1_555
Cu8_6 Cu1_6 1_555 1_555
O31_7 Cu1_6 1_555 1_555
O32_7 Cu1_6 1_555 1_555
Cu2_5 O11_4 1_555 1_555
Cu15_2 O1_4 1_555 1_555
O1_4 C5_4 1_555 1_555
O4_4 C5_4 1_555 1_555
O5_4 C4_4 1_555 1_555
O33_2 C12_4 1_555 1_555
O9_4 C12_4 1_555 1_555
O11_4 C4_4 1_555 1_555
N2_4 C22_4 1_555 1_555
C4_4 C7_4 1_555 1_555
C5_4 C11_4 1_555 1_555
C7_4 C10_4 1_555 1_555
C10_4 H4_4 1_555 1_555
N4_4 C22_4 1_555 1_555
N5_4 H5_4 1_555 1_555
C12_4 C14_4 1_555 1_555
C14_4 C10_4 1_555 1_555
C17_4 C14_4 1_555 1_555
H8_4 C17_4 1_555 1_555
C19_4 C7_4 1_555 1_555
H10_4 C19_4 1_555 1_555
C22_4 N5_4 1_555 1_555
C24_4 N5_4 1_555 1_555
Cu10_2 O18_4 1_555 1_555
O14_4 C29_4 1_555 1_555
O15_4 C28_4 1_555 1_555
O18_4 C28_4 1_555 1_555
O19_4 C33_4 1_555 1_555
O38_2 C29_4 1_555 1_555
O24_4 Cu2_5 1_555 1_555
C28_4 C40_4 1_555 1_555
C29_4 C30_4 1_555 1_555
C30_4 C35_4 1_555 1_555
N7_4 H13_4 1_555 1_555
C33_4 O24_4 1_555 1_555
C35_4 H14_4 1_555 1_555
C36_4 H15_4 1_555 1_555
N9_4 C53_4 1_555 1_555
C40_4 C36_4 1_555 1_555
C42_4 C33_4 1_555 1_555
C43_4 C30_4 1_555 1_555
H18_4 C43_4 1_555 1_555
N12_4 H19_4 1_555 1_555
C47_4 N7_4 1_555 1_555
C48_4 C42_4 1_555 1_555
H23_4 C48_4 1_555 1_555
C50_4 C40_4 1_555 1_555
H24_4 C50_4 1_555 1_555
C52_4 N12_4 1_555 1_555
C53_4 N7_4 1_555 1_555
Cu7_5 Cu2_5 1_555 1_555
Cu14_2 O14_4 1_555 1_555
Cu19_2 O9_4 1_555 1_555
O26_4 Cu10_2 1_555 1_555
O28_4 Cu15_2 1_555 1_555
O30_4 Cu10_2 1_555 1_555
O35_4 Cu15_2 1_555 1_555
O4_4 Cu11_2 1_555 1_555
O5_4 Cu7_5 1_555 1_555
C17_4 C24_4 1_555 1_555
C19_4 C24_4 1_555 1_555
O15_4 Cu17_2 1_555 1_555
O19_4 Cu7_5 1_555 1_555
C36_4 C42_4 1_555 1_555
N9_4 C54_4 1_555 1_555
C43_4 C47_4 1_555 1_555
N12_4 C54_4 1_555 1_555
C45_4 C47_4 1_555 1_555
C48_4 C52_4 1_555 1_555
C50_4 C52_4 1_555 1_555
Cu7_6 Cu2_6 1_555 1_555
O39_7 Cu2_6 1_555 1_555
O40_7 Cu2_6 1_555 1_555
O39_8 Cu8_6 1_555 1_555
O40_8 Cu8_6 1_555 1_555
O31_8 Cu7_6 1_555 1_555
O32_8 Cu7_6 1_555 1_555
Cu12_2 O18_5 1_555 1_555
Cu18_2 O13_5 1_555 1_555
O13_5 C32_5 1_555 1_555
O26_3 C29_5 1_555 1_555
O27_4 C28_5 1_555 1_555
O29_4 C32_5 1_555 1_555
O18_5 C28_5 1_555 1_555
O20_3 C39_5 1_555 1_555
O36_3 C39_5 1_555 1_555
O22_3 C29_5 1_555 1_555
O39 C31_5 1_555 1_555
C28_5 C40_5 1_555 1_555
C29_5 C30_5 1_555 1_555
C30_5 C35_5 1_555 1_555
N7_5 H13_5 1_555 1_555
N8_5 C49_5 1_555 1_555
C31_5 O31_2 1_555 1_555
C32_5 C38_5 1_555 1_555
C34_5 C31_5 1_555 1_555
C35_5 H14_5 1_555 1_555
C36_5 H15_5 1_555 1_555
C37_5 C34_5 1_555 1_555
H16_5 C37_5 1_555 1_555
N9_5 C53_5 1_555 1_555
C38_5 C35_5 1_555 1_555
N10_5 C49_5 1_555 1_555
N11_5 H17_5 1_555 1_555
C39_5 C41_5 1_555 1_555
C40_5 C36_5 1_555 1_555
C41_5 C37_5 1_555 1_555
C42_5 C33_5 1_555 1_555
C43_5 C30_5 1_555 1_555
H18_5 C43_5 1_555 1_555
N12_5 H19_5 1_555 1_555
C44_5 C41_5 1_555 1_555
H20_5 C44_5 1_555 1_555
C45_5 C38_5 1_555 1_555
H21_5 C45_5 1_555 1_555
C46_5 C34_5 1_555 1_555
H22_5 C46_5 1_555 1_555
C47_5 N7_5 1_555 1_555
C48_5 C42_5 1_555 1_555
H23_5 C48_5 1_555 1_555
C49_5 N11_5 1_555 1_555
C50_5 C40_5 1_555 1_555
H24_5 C50_5 1_555 1_555
C51_5 N11_5 1_555 1_555
C52_5 N12_5 1_555 1_555
C53_5 N7_5 1_555 1_555
C54_5 N8_5 1_555 1_555
Cu13_2 O20_3 1_555 1_555
Cu20_2 O22_3 1_555 1_555
O34_3 Cu12_2 1_555 1_555
O37_3 Cu18_2 1_555 1_555
C36_5 C42_5 1_555 1_555
N9_5 C54_5 1_555 1_555
N10_5 C53_5 1_555 1_555
C43_5 C47_5 1_555 1_555
N12_5 C54_5 1_555 1_555
C44_5 C51_5 1_555 1_555
C45_5 C47_5 1_555 1_555
C46_5 C51_5 1_555 1_555
C48_5 C52_5 1_555 1_555
C50_5 C52_5 1_555 1_555
Cu11_2 O6_5 1_555 1_555
Cu17_2 O1_5 1_555 1_555
O1_5 C5_5 1_555 1_555
O25_3 C2_5 1_555 1_555
O28_4 C1_5 1_555 1_555
O30_4 C5_5 1_555 1_555
O31 C4_5 1_555 1_555
O6_5 C1_5 1_555 1_555
O8_3 C12_5 1_555 1_555
O35_3 C12_5 1_555 1_555
O10_3 C2_5 1_555 1_555
O39_2 C4_5 1_555 1_555
C1_5 C13_5 1_555 1_555
C2_5 C3_5 1_555 1_555
C3_5 C8_5 1_555 1_555
N1_5 H1_5 1_555 1_555
N2_5 C22_5 1_555 1_555
C4_5 C7_5 1_555 1_555
C5_5 C11_5 1_555 1_555
C6_5 C15_5 1_555 1_555
C7_5 C10_5 1_555 1_555
C8_5 H2_5 1_555 1_555
C9_5 H3_5 1_555 1_555
C10_5 H4_5 1_555 1_555
N3_5 C26_5 1_555 1_555
C11_5 C8_5 1_555 1_555
N4_5 C22_5 1_555 1_555
N5_5 H5_5 1_555 1_555
C12_5 C14_5 1_555 1_555
C13_5 C9_5 1_555 1_555
C14_5 C10_5 1_555 1_555
C15_5 C9_5 1_555 1_555
C16_5 C3_5 1_555 1_555
H6_5 C16_5 1_555 1_555
N6_5 H7_5 1_555 1_555
C17_5 C14_5 1_555 1_555
H8_5 C17_5 1_555 1_555
C18_5 C11_5 1_555 1_555
H9_5 C18_5 1_555 1_555
C19_5 C7_5 1_555 1_555
H10_5 C19_5 1_555 1_555
C20_5 N1_5 1_555 1_555
C21_5 C15_5 1_555 1_555
H11_5 C21_5 1_555 1_555
C22_5 N5_5 1_555 1_555
C23_5 C13_5 1_555 1_555
H12_5 C23_5 1_555 1_555
C24_5 N5_5 1_555 1_555
C25_5 N6_5 1_555 1_555
C26_5 N1_5 1_555 1_555
C27_5 N2_5 1_555 1_555
Cu14_2 O8_3 1_555 1_555
Cu19_2 O10_3 1_555 1_555
O33_3 Cu11_2 1_555 1_555
O38_3 Cu17_2 1_555 1_555
N3_5 C27_5 1_555 1_555
N4_5 C26_5 1_555 1_555
C16_5 C20_5 1_555 1_555
N6_5 C27_5 1_555 1_555
C17_5 C24_5 1_555 1_555
C18_5 C20_5 1_555 1_555
C19_5 C24_5 1_555 1_555
C21_5 C25_5 1_555 1_555
C23_5 C25_5 1_555 1_555
Cu13_2 O6_6 1_555 1_555
Cu19_2 O1_6 1_555 1_555
O1_6 C5_6 1_555 1_555
O25_4 C2_6 1_555 1_555
O27_3 C1_6 1_555 1_555
O29_3 C5_6 1_555 1_555
O31_3 C4_6 1_555 1_555
O6_6 C1_6 1_555 1_555
O33_3 C12_6 1_555 1_555
O35_4 C12_6 1_555 1_555
O37_3 C2_6 1_555 1_555
O39_4 C4_6 1_555 1_555
C1_6 C13_6 1_555 1_555
C2_6 C3_6 1_555 1_555
C3_6 C8_6 1_555 1_555
N1_6 H1_6 1_555 1_555
N2_6 C22_6 1_555 1_555
C4_6 C7_6 1_555 1_555
C5_6 C11_6 1_555 1_555
C6_6 C15_6 1_555 1_555
C7_6 C10_6 1_555 1_555
C8_6 H2_6 1_555 1_555
C9_6 H3_6 1_555 1_555
C10_6 H4_6 1_555 1_555
N3_6 C26_6 1_555 1_555
C11_6 C8_6 1_555 1_555
N4_6 C22_6 1_555 1_555
N5_6 H5_6 1_555 1_555
C12_6 C14_6 1_555 1_555
C13_6 C9_6 1_555 1_555
C14_6 C10_6 1_555 1_555
C15_6 C9_6 1_555 1_555
C16_6 C3_6 1_555 1_555
H6_6 C16_6 1_555 1_555
N6_6 H7_6 1_555 1_555
C17_6 C14_6 1_555 1_555
H8_6 C17_6 1_555 1_555
C18_6 C11_6 1_555 1_555
H9_6 C18_6 1_555 1_555
C19_6 C7_6 1_555 1_555
H10_6 C19_6 1_555 1_555
C20_6 N1_6 1_555 1_555
C21_6 C15_6 1_555 1_555
H11_6 C21_6 1_555 1_555
C22_6 N5_6 1_555 1_555
C23_6 C13_6 1_555 1_555
H12_6 C23_6 1_555 1_555
C24_6 N5_6 1_555 1_555
C25_6 N6_6 1_555 1_555
C26_6 N1_6 1_555 1_555
C27_6 N2_6 1_555 1_555
N3_6 C27_6 1_555 1_555
N4_6 C26_6 1_555 1_555
C16_6 C20_6 1_555 1_555
N6_6 C27_6 1_555 1_555
C17_6 C24_6 1_555 1_555
C18_6 C20_6 1_555 1_555
C19_6 C24_6 1_555 1_555
C21_6 C25_6 1_555 1_555
C23_6 C25_6 1_555 1_555
Cu14_2 O18_6 1_555 1_555
Cu20_2 O13_6 1_555 1_555
O13_6 C32_6 1_555 1_555
O26_4 C29_6 1_555 1_555
O28_3 C28_6 1_555 1_555
O30_3 C32_6 1_555 1_555
O18_6 C28_6 1_555 1_555
O34_3 C39_6 1_555 1_555
O36_4 C39_6 1_555 1_555
O38_3 C29_6 1_555 1_555
O39_3 C31_6 1_555 1_555
C28_6 C40_6 1_555 1_555
C29_6 C30_6 1_555 1_555
C30_6 C35_6 1_555 1_555
N7_6 H13_6 1_555 1_555
N8_6 C49_6 1_555 1_555
C31_6 O31_4 1_555 1_555
C32_6 C38_6 1_555 1_555
C34_6 C31_6 1_555 1_555
C35_6 H14_6 1_555 1_555
C36_6 H15_6 1_555 1_555
C37_6 C34_6 1_555 1_555
H16_6 C37_6 1_555 1_555
N9_6 C53_6 1_555 1_555
C38_6 C35_6 1_555 1_555
N10_6 C49_6 1_555 1_555
N11_6 H17_6 1_555 1_555
C39_6 C41_6 1_555 1_555
C40_6 C36_6 1_555 1_555
C41_6 C37_6 1_555 1_555
C42_6 C33_6 1_555 1_555
C43_6 C30_6 1_555 1_555
H18_6 C43_6 1_555 1_555
N12_6 H19_6 1_555 1_555
C44_6 C41_6 1_555 1_555
H20_6 C44_6 1_555 1_555
C45_6 C38_6 1_555 1_555
H21_6 C45_6 1_555 1_555
C46_6 C34_6 1_555 1_555
H22_6 C46_6 1_555 1_555
C47_6 N7_6 1_555 1_555
C48_6 C42_6 1_555 1_555
H23_6 C48_6 1_555 1_555
C49_6 N11_6 1_555 1_555
C50_6 C40_6 1_555 1_555
H24_6 C50_6 1_555 1_555
C51_6 N11_6 1_555 1_555
C52_6 N12_6 1_555 1_555
C53_6 N7_6 1_555 1_555
C54_6 N8_6 1_555 1_555
C36_6 C42_6 1_555 1_555
N9_6 C54_6 1_555 1_555
N10_6 C53_6 1_555 1_555
C43_6 C47_6 1_555 1_555
N12_6 C54_6 1_555 1_555
C44_6 C51_6 1_555 1_555
C45_6 C47_6 1_555 1_555
C46_6 C51_6 1_555 1_555
C48_6 C52_6 1_555 1_555
C50_6 C52_6 1_555 1_555
Cu17 O1_7 1_555 1_555
O1_7 C5_7 1_555 1_555
O30_2 C5_7 1_555 1_555
O31_5 C4_7 1_555 1_555
O8_4 C12_7 1_555 1_555
O35 C12_7 1_555 1_555
O39_6 C4_7 1_555 1_555
N2_7 C22_7 1_555 1_555
C4_7 C7_7 1_555 1_555
C5_7 C11_7 1_555 1_555
C7_7 C10_7 1_555 1_555
C10_7 H4_7 1_555 1_555
N4_7 C22_7 1_555 1_555
N5_7 H5_7 1_555 1_555
C12_7 C14_7 1_555 1_555
C14_7 C10_7 1_555 1_555
C17_7 C14_7 1_555 1_555
H8_7 C17_7 1_555 1_555
C19_7 C7_7 1_555 1_555
H10_7 C19_7 1_555 1_555
C22_7 N5_7 1_555 1_555
C24_7 N5_7 1_555 1_555
Cu12 O18_7 1_555 1_555
O26 C29_7 1_555 1_555
O27_2 C28_7 1_555 1_555
O18_7 C28_7 1_555 1_555
O32_5 C33_7 1_555 1_555
O22_4 C29_7 1_555 1_555
C28_7 C40_7 1_555 1_555
C29_7 C30_7 1_555 1_555
C30_7 C35_7 1_555 1_555
N7_7 H13_7 1_555 1_555
C33_7 O40_6 1_555 1_555
C35_7 H14_7 1_555 1_555
C36_7 H15_7 1_555 1_555
N9_7 C53_7 1_555 1_555
C40_7 C36_7 1_555 1_555
C42_7 C33_7 1_555 1_555
C43_7 C30_7 1_555 1_555
H18_7 C43_7 1_555 1_555
N12_7 H19_7 1_555 1_555
C47_7 N7_7 1_555 1_555
C48_7 C42_7 1_555 1_555
H23_7 C48_7 1_555 1_555
C50_7 C40_7 1_555 1_555
H24_7 C50_7 1_555 1_555
C52_7 N12_7 1_555 1_555
C53_7 N7_7 1_555 1_555
Cu14 O8_4 1_555 1_555
Cu20 O22_4 1_555 1_555
O34_4 Cu12 1_555 1_555
O38_4 Cu17 1_555 1_555
C17_7 C24_7 1_555 1_555
C19_7 C24_7 1_555 1_555
C36_7 C42_7 1_555 1_555
N9_7 C54_7 1_555 1_555
C43_7 C47_7 1_555 1_555
N12_7 C54_7 1_555 1_555
C45_7 C47_7 1_555 1_555
C48_7 C52_7 1_555 1_555
C50_7 C52_7 1_555 1_555
Cu11 O6_7 1_555 1_555
O25 C2_7 1_555 1_555
O28_2 C1_7 1_555 1_555
O6_7 C1_7 1_555 1_555
O32_6 C6_7 1_555 1_555
O10_4 C2_7 1_555 1_555
O40_5 C6_7 1_555 1_555
C1_7 C13_7 1_555 1_555
C2_7 C3_7 1_555 1_555
C3_7 C8_7 1_555 1_555
N1_7 H1_7 1_555 1_555
C6_7 C15_7 1_555 1_555
C8_7 H2_7 1_555 1_555
C9_7 H3_7 1_555 1_555
N3_7 C26_7 1_555 1_555
C13_7 C9_7 1_555 1_555
C15_7 C9_7 1_555 1_555
C16_7 C3_7 1_555 1_555
H6_7 C16_7 1_555 1_555
N6_7 H7_7 1_555 1_555
C20_7 N1_7 1_555 1_555
C21_7 C15_7 1_555 1_555
H11_7 C21_7 1_555 1_555
C23_7 C13_7 1_555 1_555
H12_7 C23_7 1_555 1_555
C25_7 N6_7 1_555 1_555
C26_7 N1_7 1_555 1_555
Cu18 O13_7 1_555 1_555
O13_7 C32_7 1_555 1_555
O29_2 C32_7 1_555 1_555
O20_4 C39_7 1_555 1_555
O36 C39_7 1_555 1_555
O39_5 C31_7 1_555 1_555
N8_7 C49_7 1_555 1_555
C31_7 O31_6 1_555 1_555
C32_7 C38_7 1_555 1_555
C34_7 C31_7 1_555 1_555
C37_7 C34_7 1_555 1_555
H16_7 C37_7 1_555 1_555
N10_7 C49_7 1_555 1_555
N11_7 H17_7 1_555 1_555
C39_7 C41_7 1_555 1_555
C41_7 C37_7 1_555 1_555
C44_7 C41_7 1_555 1_555
H20_7 C44_7 1_555 1_555
C46_7 C34_7 1_555 1_555
H22_7 C46_7 1_555 1_555
C49_7 N11_7 1_555 1_555
C51_7 N11_7 1_555 1_555
Cu13 O20_4 1_555 1_555
Cu19 O10_4 1_555 1_555
O33_4 Cu11 1_555 1_555
O37_4 Cu18 1_555 1_555
N3_7 C27_7 1_555 1_555
C16_7 C20_7 1_555 1_555
N6_7 C27_7 1_555 1_555
C18_7 C20_7 1_555 1_555
C21_7 C25_7 1_555 1_555
C23_7 C25_7 1_555 1_555
C44_7 C51_7 1_555 1_555
C46_7 C51_7 1_555 1_555
Cu19 O1_8 1_555 1_555
O1_8 C5_8 1_555 1_555
O29 C5_8 1_555 1_555
O31_7 C4_8 1_555 1_555
O33_4 C12_8 1_555 1_555
O35_2 C12_8 1_555 1_555
O39_8 C4_8 1_555 1_555
N2_8 C22_8 1_555 1_555
C4_8 C7_8 1_555 1_555
C5_8 C11_8 1_555 1_555
C7_8 C10_8 1_555 1_555
C10_8 H4_8 1_555 1_555
N4_8 C22_8 1_555 1_555
N5_8 H5_8 1_555 1_555
C12_8 C14_8 1_555 1_555
C14_8 C10_8 1_555 1_555
C17_8 C14_8 1_555 1_555
H8_8 C17_8 1_555 1_555
C19_8 C7_8 1_555 1_555
H10_8 C19_8 1_555 1_555
C22_8 N5_8 1_555 1_555
C24_8 N5_8 1_555 1_555
Cu14 O18_8 1_555 1_555
O26_2 C29_8 1_555 1_555
O28 C28_8 1_555 1_555
O18_8 C28_8 1_555 1_555
O32_7 C33_8 1_555 1_555
O38_4 C29_8 1_555 1_555
C28_8 C40_8 1_555 1_555
C29_8 C30_8 1_555 1_555
C30_8 C35_8 1_555 1_555
N7_8 H13_8 1_555 1_555
C33_8 O40_8 1_555 1_555
C35_8 H14_8 1_555 1_555
C36_8 H15_8 1_555 1_555
N9_8 C53_8 1_555 1_555
C40_8 C36_8 1_555 1_555
C42_8 C33_8 1_555 1_555
C43_8 C30_8 1_555 1_555
H18_8 C43_8 1_555 1_555
N12_8 H19_8 1_555 1_555
C47_8 N7_8 1_555 1_555
C48_8 C42_8 1_555 1_555
H23_8 C48_8 1_555 1_555
C50_8 C40_8 1_555 1_555
H24_8 C50_8 1_555 1_555
C52_8 N12_8 1_555 1_555
C53_8 N7_8 1_555 1_555
C17_8 C24_8 1_555 1_555
C19_8 C24_8 1_555 1_555
C36_8 C42_8 1_555 1_555
N9_8 C54_8 1_555 1_555
C43_8 C47_8 1_555 1_555
N12_8 C54_8 1_555 1_555
C45_8 C47_8 1_555 1_555
C48_8 C52_8 1_555 1_555
C50_8 C52_8 1_555 1_555
Cu13 O6_8 1_555 1_555
O25_2 C2_8 1_555 1_555
O27 C1_8 1_555 1_555
O6_8 C1_8 1_555 1_555
O32_8 C6_8 1_555 1_555
O37_4 C2_8 1_555 1_555
O40_7 C6_8 1_555 1_555
C1_8 C13_8 1_555 1_555
C2_8 C3_8 1_555 1_555
C3_8 C8_8 1_555 1_555
N1_8 H1_8 1_555 1_555
C6_8 C15_8 1_555 1_555
C8_8 H2_8 1_555 1_555
C9_8 H3_8 1_555 1_555
N3_8 C26_8 1_555 1_555
C13_8 C9_8 1_555 1_555
C15_8 C9_8 1_555 1_555
C16_8 C3_8 1_555 1_555
H6_8 C16_8 1_555 1_555
N6_8 H7_8 1_555 1_555
C20_8 N1_8 1_555 1_555
C21_8 C15_8 1_555 1_555
H11_8 C21_8 1_555 1_555
C23_8 C13_8 1_555 1_555
H12_8 C23_8 1_555 1_555
C25_8 N6_8 1_555 1_555
C26_8 N1_8 1_555 1_555
Cu20 O13_8 1_555 1_555
O13_8 C32_8 1_555 1_555
O30 C32_8 1_555 1_555
O34_4 C39_8 1_555 1_555
O36_2 C39_8 1_555 1_555
O39_7 C31_8 1_555 1_555
N8_8 C49_8 1_555 1_555
C31_8 O31_8 1_555 1_555
C32_8 C38_8 1_555 1_555
C34_8 C31_8 1_555 1_555
C37_8 C34_8 1_555 1_555
H16_8 C37_8 1_555 1_555
N10_8 C49_8 1_555 1_555
N11_8 H17_8 1_555 1_555
C39_8 C41_8 1_555 1_555
C41_8 C37_8 1_555 1_555
C44_8 C41_8 1_555 1_555
H20_8 C44_8 1_555 1_555
C46_8 C34_8 1_555 1_555
H22_8 C46_8 1_555 1_555
C49_8 N11_8 1_555 1_555
C51_8 N11_8 1_555 1_555
N3_8 C27_8 1_555 1_555
C16_8 C20_8 1_555 1_555
N6_8 C27_8 1_555 1_555
C18_8 C20_8 1_555 1_555
C21_8 C25_8 1_555 1_555
C23_8 C25_8 1_555 1_555
C44_8 C51_8 1_555 1_555
C46_8 C51_8 1_555 1_555

#END
