
###############################################################################
#
# This file contains modified crystal structure data generated from the
# MOF subset of the Cambridge Structural Database (CSD) v543 
# hosted by the Cambridge Crystallographic Data Centre (CCDC).
#
# This work is licensed under the Creative Commons
# Attribution-NonCommercial-ShareAlike 4.0 International License.
# To view a copy of this license, visit
# http://creativecommons.org/licenses/by-nc-sa/4.0/
# or send a letter to
# Creative Commons, PO Box 1866, Mountain View, CA 94042, USA.
#
# CIF created using the CSD Python API on 29 September 2022
# The structure has been converted into the P1 space group
# The structure has a 3D framework
# The original CSD entry PAPPAB03 is in the tetragonal crystal system
# The framework has been calculated to contain at least 10.0% void space
# The void calculation uses a probe of radius 1.32A, grid spacing 0.4
#
###############################################################################

data_PAPPAB03
_chemical_formula_moiety         '(C432 H192 Cu40 N96 O180)n'
_symmetry_cell_setting           triclinic
_symmetry_space_group_name_H-M   'P 1'
_symmetry_Int_Tables_number      1
_space_group_name_Hall           'P 1'
loop_
_symmetry_equiv_pos_site_id
_symmetry_equiv_pos_as_xyz
1 x,y,z
_cell_length_a                   26.4555(2)
_cell_length_b                   26.4555(2)
_cell_length_c                   37.9347(5)
_cell_angle_alpha                90
_cell_angle_beta                 90
_cell_angle_gamma                90
_cell_volume                     26550.2
loop_
_atom_site_label
_atom_site_type_symbol
_atom_site_fract_x
_atom_site_fract_y
_atom_site_fract_z
Cu2 Cu 0.29943(6) 0.05660(7) 0.500000
Cu3 Cu 0.82193(5) 0.11930(5) 0.64822(3)
Cu4 Cu 0.15653(5) 0.23253(5) 0.69426(4)
O1 O 0.3764(3) 0.1203(3) 0.5371(2)
O2 O 0.4095(3) 0.2679(3) 0.7837(2)
O3 O 0.4422(3) 0.3201(3) 0.8248(2)
O4 O 0.6217(3) 0.3563(3) 0.8246(2)
O5 O 0.7105(3) 0.1369(3) 0.6650(2)
O7 O 0.2196(3) 0.2273(3) 0.6691(2)
O8 O 0.6709(3) 0.3259(3) 0.7816(2)
O9 O 0.2939(3) 0.1072(3) 0.5360(2)
O10 O 0.7604(3) 0.0995(3) 0.6253(2)
O11 O 0.1848(3) 0.1811(3) 0.6256(2)
C1 C 0.7182(3) 0.1113(4) 0.6374(3)
C2 C 0.6286(4) 0.3330(3) 0.7960(3)
C3 C 0.5832(4) 0.3096(4) 0.7795(3)
C4 C 0.3322(4) 0.1260(4) 0.5491(3)
C5 C 0.2785(4) 0.1664(4) 0.5943(3)
H1 H 0.250234 0.154419 0.582395
C6 C 0.6400(5) 0.0014(5) 0.5463(3)
C7 C 0.6777(4) 0.0578(4) 0.5916(3)
H2 H 0.709193 0.044146 0.586394
C8 C 0.4445(4) 0.2936(5) 0.7977(3)
N1 N 0.4687(4) 0.1663(5) 0.6299(3)
C9 C 0.3267(4) 0.1576(4) 0.5813(3)
C10 C 0.6728(4) 0.0941(4) 0.6174(3)
C11 C 0.5359(4) 0.3138(4) 0.7948(3)
H3 H 0.531713 0.332354 0.815424
C12 C 0.2214(4) 0.2012(5) 0.6413(3)
N2 N 0.5486(4) 0.1735(5) 0.6584(3)
N3 N 0.5579(4) 0.2260(5) 0.7051(3)
H4 H 0.589052 0.217600 0.702307
N4 N 0.4786(4) 0.2218(5) 0.6793(3)
C13 C 0.2734(4) 0.1931(5) 0.6252(3)
C14 C 0.4953(4) 0.2903(4) 0.7794(3)
C15 C 0.6357(4) 0.0419(5) 0.5736(3)
C16 C 0.5010(4) 0.2612(5) 0.7500(3)
H5 H 0.473128 0.244879 0.740287
N5 N 0.4037(4) 0.2158(5) 0.6518(3)
H6 H 0.396062 0.238926 0.666851
C17 C 0.3154(4) 0.2089(5) 0.6433(3)
H7 H 0.311670 0.225923 0.664599
C18 C 0.5889(4) 0.0615(5) 0.5813(3)
H8 H 0.560539 0.049518 0.569534
C19 C 0.5889(4) 0.2805(6) 0.7498(4)
H9 H 0.620837 0.277305 0.739742
N6 N 0.5350(4) 0.1199(5) 0.6116(3)
H10 H 0.512187 0.108386 0.597543
C20 C 0.4533(4) 0.2005(5) 0.6528(4)
C21 C 0.5486(4) 0.2558(6) 0.7346(4)
C22 C 0.3695(4) 0.1733(5) 0.5997(4)
H11 H 0.401720 0.165864 0.591393
C23 C 0.6261(4) 0.1138(5) 0.6253(4)
H12 H 0.622836 0.137183 0.643436
C24 C 0.3629(4) 0.2000(5) 0.6302(4)
C25 C 0.5837(4) 0.0990(5) 0.6064(4)
C26 C 0.5265(5) 0.2080(6) 0.6803(4)
C27 C 0.5182(5) 0.1550(6) 0.6348(4)
O18 O 0.3981(3) 0.0194(3) 0.5353(2)
O24 O 0.3146(3) 0.0069(3) 0.5359(2)
Cu7 Cu 0.39144(7) 0.07178(7) 0.500000
Cu10 Cu 0.11930(5) 0.17807(5) 0.64822(3)
Cu11 Cu 0.67807(5) 0.38070(5) 0.85178(3)
Cu14 Cu 0.38070(5) 0.32193(5) 0.85178(3)
Cu15 Cu 0.76747(5) 0.15653(5) 0.69426(4)
Cu17 Cu 0.34347(5) 0.26747(5) 0.80574(4)
Cu19 Cu 0.73253(5) 0.34347(5) 0.80574(4)
O26 O 0.0905(3) 0.2321(3) 0.7163(2)
O28 O 0.8201(3) 0.0578(3) 0.6752(2)
O30 O 0.8783(3) 0.1437(3) 0.6754(2)
O33 O 0.1369(3) 0.2895(3) 0.6650(2)
O36 O 0.1741(3) 0.1709(3) 0.7184(2)
O37 O 0.2939(3) 0.1072(3) 0.4640(2)
O38 O 0.8189(3) 0.1848(3) 0.6256(2)
O40 O 0.3146(3) 0.0069(3) 0.4641(2)
Cu1 Cu 0.60856(7) 0.92822(7) 0.500000
O6 O 0.6019(3) 0.9806(3) 0.5353(2)
O12 O 0.6854(3) 0.9931(3) 0.5359(2)
Cu5 Cu 0.17807(5) 0.88070(5) 0.64822(3)
Cu6 Cu 0.84347(5) 0.76747(5) 0.69426(4)
O13 O 0.6236(3) 0.8797(3) 0.5371(2)
O14 O 0.5905(3) 0.7321(3) 0.7837(2)
O15 O 0.5578(3) 0.6799(3) 0.8248(2)
O16 O 0.3783(3) 0.6437(3) 0.8246(2)
O17 O 0.2895(3) 0.8631(3) 0.6650(2)
O19 O 0.7804(3) 0.7727(3) 0.6691(2)
O20 O 0.3291(3) 0.6741(3) 0.7816(2)
O21 O 0.7061(3) 0.8928(3) 0.5360(2)
O22 O 0.2396(3) 0.9005(3) 0.6253(2)
O23 O 0.8152(3) 0.8189(3) 0.6256(2)
C28 C 0.2818(3) 0.8887(4) 0.6374(3)
C29 C 0.3714(4) 0.6670(3) 0.7960(3)
C30 C 0.4168(4) 0.6904(4) 0.7795(3)
C31 C 0.6678(4) 0.8740(4) 0.5491(3)
C32 C 0.7215(4) 0.8336(4) 0.5943(3)
H13 H 0.749766 0.845581 0.582395
C33 C 0.3600(5) 0.9986(5) 0.5463(3)
C34 C 0.3223(4) 0.9422(4) 0.5916(3)
H14 H 0.290807 0.955854 0.586394
C35 C 0.5555(4) 0.7064(5) 0.7977(3)
N7 N 0.5313(4) 0.8337(5) 0.6299(3)
C36 C 0.6733(4) 0.8424(4) 0.5813(3)
C37 C 0.3272(4) 0.9059(4) 0.6174(3)
C38 C 0.4641(4) 0.6862(4) 0.7948(3)
H15 H 0.468287 0.667646 0.815424
C39 C 0.7786(4) 0.7988(5) 0.6413(3)
N8 N 0.4514(4) 0.8265(5) 0.6584(3)
N9 N 0.4421(4) 0.7740(5) 0.7051(3)
H16 H 0.410948 0.782400 0.702307
N10 N 0.5214(4) 0.7782(5) 0.6793(3)
C40 C 0.7266(4) 0.8069(5) 0.6252(3)
C41 C 0.5047(4) 0.7097(4) 0.7794(3)
C42 C 0.3643(4) 0.9581(5) 0.5736(3)
C43 C 0.4990(4) 0.7388(5) 0.7500(3)
H17 H 0.526872 0.755121 0.740287
N11 N 0.5963(4) 0.7842(5) 0.6518(3)
H18 H 0.603938 0.761074 0.666851
C44 C 0.6846(4) 0.7911(5) 0.6433(3)
H19 H 0.688330 0.774077 0.664599
C45 C 0.4111(4) 0.9385(5) 0.5813(3)
H20 H 0.439461 0.950482 0.569534
C46 C 0.4111(4) 0.7195(6) 0.7498(4)
H21 H 0.379163 0.722695 0.739742
N12 N 0.4650(4) 0.8801(5) 0.6116(3)
H22 H 0.487813 0.891614 0.597543
C47 C 0.5467(4) 0.7995(5) 0.6528(4)
C48 C 0.4514(4) 0.7442(6) 0.7346(4)
C49 C 0.6305(4) 0.8267(5) 0.5997(4)
H23 H 0.598280 0.834136 0.591393
C50 C 0.3739(4) 0.8862(5) 0.6253(4)
H24 H 0.377164 0.862817 0.643436
C51 C 0.6371(4) 0.8000(5) 0.6302(4)
C52 C 0.4163(4) 0.9010(5) 0.6064(4)
C53 C 0.4735(5) 0.7920(6) 0.6803(4)
C54 C 0.4818(5) 0.8450(6) 0.6348(4)
Cu8 Cu 0.70057(6) 0.94340(7) 0.500000
Cu9 Cu 0.88070(5) 0.82193(5) 0.64822(3)
Cu12 Cu 0.32193(5) 0.61930(5) 0.85178(3)
Cu13 Cu 0.61930(5) 0.67807(5) 0.85178(3)
Cu16 Cu 0.23253(5) 0.84347(5) 0.69426(4)
Cu18 Cu 0.65653(5) 0.73253(5) 0.80574(4)
Cu20 Cu 0.26747(5) 0.65653(5) 0.80574(4)
O25 O 0.6236(3) 0.8797(3) 0.4629(2)
O27 O 0.9095(3) 0.7679(3) 0.7163(2)
O29 O 0.1799(3) 0.9422(3) 0.6752(2)
O31 O 0.1217(3) 0.8563(3) 0.6754(2)
O32 O 0.8631(3) 0.7105(3) 0.6650(2)
O34 O 0.6019(3) 0.9806(3) 0.4647(2)
O35 O 0.8259(3) 0.8291(3) 0.7184(2)
O39 O 0.1811(3) 0.8152(3) 0.6256(2)
O25_2 O 0.3764(3) 0.1203(3) 0.4629(2)
O34_2 O 0.3981(3) 0.0194(3) 0.4647(2)
O37_2 O 0.7061(3) 0.8928(3) 0.4640(2)
O40_2 O 0.6854(3) 0.9931(3) 0.4641(2)
Cu1_2 Cu 0.07178(7) 0.60856(7) 0.500000
O6_2 O 0.0194(3) 0.6019(3) 0.5353(2)
O12_2 O 0.0069(3) 0.6854(3) 0.5359(2)
O13_2 O 0.1203(3) 0.6236(3) 0.5371(2)
O14_2 O 0.2679(3) 0.5905(3) 0.7837(2)
O15_2 O 0.3201(3) 0.5578(3) 0.8248(2)
O16_2 O 0.3563(3) 0.3783(3) 0.8246(2)
O19_2 O 0.2273(3) 0.7804(3) 0.6691(2)
O20_2 O 0.3259(3) 0.3291(3) 0.7816(2)
O21_2 O 0.1072(3) 0.7061(3) 0.5360(2)
O22_2 O 0.0995(3) 0.2396(3) 0.6253(2)
C28_2 C 0.1113(4) 0.2818(3) 0.6374(3)
C29_2 C 0.3330(3) 0.3714(4) 0.7960(3)
C30_2 C 0.3096(4) 0.4168(4) 0.7795(3)
C31_2 C 0.1260(4) 0.6678(4) 0.5491(3)
C32_2 C 0.1664(4) 0.7215(4) 0.5943(3)
H13_2 H 0.154419 0.749766 0.582395
C33_2 C 0.0014(5) 0.3600(5) 0.5463(3)
C34_2 C 0.0578(4) 0.3223(4) 0.5916(3)
H14_2 H 0.044146 0.290807 0.586394
C35_2 C 0.2936(5) 0.5555(4) 0.7977(3)
N7_2 N 0.1663(5) 0.5313(4) 0.6299(3)
C36_2 C 0.1576(4) 0.6733(4) 0.5813(3)
C37_2 C 0.0941(4) 0.3272(4) 0.6174(3)
C38_2 C 0.3138(4) 0.4641(4) 0.7948(3)
H15_2 H 0.332354 0.468287 0.815424
C39_2 C 0.2012(5) 0.7786(4) 0.6413(3)
N8_2 N 0.1735(5) 0.4514(4) 0.6584(3)
N9_2 N 0.2260(5) 0.4421(4) 0.7051(3)
H16_2 H 0.217600 0.410948 0.702307
N10_2 N 0.2218(5) 0.5214(4) 0.6793(3)
C40_2 C 0.1931(5) 0.7266(4) 0.6252(3)
C41_2 C 0.2903(4) 0.5047(4) 0.7794(3)
C42_2 C 0.0419(5) 0.3643(4) 0.5736(3)
C43_2 C 0.2612(5) 0.4990(4) 0.7500(3)
H17_2 H 0.244879 0.526872 0.740287
N11_2 N 0.2158(5) 0.5963(4) 0.6518(3)
H18_2 H 0.238926 0.603938 0.666851
C44_2 C 0.2089(5) 0.6846(4) 0.6433(3)
H19_2 H 0.225923 0.688330 0.664599
C45_2 C 0.0615(5) 0.4111(4) 0.5813(3)
H20_2 H 0.049518 0.439461 0.569534
C46_2 C 0.2805(6) 0.4111(4) 0.7498(4)
H21_2 H 0.277305 0.379163 0.739742
N12_2 N 0.1199(5) 0.4650(4) 0.6116(3)
H22_2 H 0.108386 0.487813 0.597543
C47_2 C 0.2005(5) 0.5467(4) 0.6528(4)
C48_2 C 0.2558(6) 0.4514(4) 0.7346(4)
C49_2 C 0.1733(5) 0.6305(4) 0.5997(4)
H23_2 H 0.165864 0.598280 0.591393
C50_2 C 0.1138(5) 0.3739(4) 0.6253(4)
H24_2 H 0.137183 0.377164 0.643436
C51_2 C 0.2000(5) 0.6371(4) 0.6302(4)
C52_2 C 0.0990(5) 0.4163(4) 0.6064(4)
C53_2 C 0.2080(6) 0.4735(5) 0.6803(4)
C54_2 C 0.1550(6) 0.4818(5) 0.6348(4)
Cu8_2 Cu 0.05660(7) 0.70057(6) 0.500000
O25_3 O 0.1203(3) 0.6236(3) 0.4629(2)
O27_2 O 0.2321(3) 0.9095(3) 0.7163(2)
O29_2 O 0.0578(3) 0.1799(3) 0.6752(2)
O31_2 O 0.1437(3) 0.1217(3) 0.6754(2)
O34_3 O 0.0194(3) 0.6019(3) 0.4647(2)
O35_2 O 0.1709(3) 0.8259(3) 0.7184(2)
Cu2_2 Cu 0.94340(7) 0.29943(6) 0.500000
O1_2 O 0.8797(3) 0.3764(3) 0.5371(2)
O2_2 O 0.7321(3) 0.4095(3) 0.7837(2)
O3_2 O 0.6799(3) 0.4422(3) 0.8248(2)
O4_2 O 0.6437(3) 0.6217(3) 0.8246(2)
O7_2 O 0.7727(3) 0.2196(3) 0.6691(2)
O8_2 O 0.6741(3) 0.6709(3) 0.7816(2)
O9_2 O 0.8928(3) 0.2939(3) 0.5360(2)
O10_2 O 0.9005(3) 0.7604(3) 0.6253(2)
C1_2 C 0.8887(4) 0.7182(3) 0.6374(3)
C2_2 C 0.6670(3) 0.6286(4) 0.7960(3)
C3_2 C 0.6904(4) 0.5832(4) 0.7795(3)
C4_2 C 0.8740(4) 0.3322(4) 0.5491(3)
C5_2 C 0.8336(4) 0.2785(4) 0.5943(3)
H1_2 H 0.845581 0.250234 0.582395
C6_2 C 0.9986(5) 0.6400(5) 0.5463(3)
C7_2 C 0.9422(4) 0.6777(4) 0.5916(3)
H2_2 H 0.955854 0.709193 0.586394
C8_2 C 0.7064(5) 0.4445(4) 0.7977(3)
N1_2 N 0.8337(5) 0.4687(4) 0.6299(3)
C9_2 C 0.8424(4) 0.3267(4) 0.5813(3)
C10_2 C 0.9059(4) 0.6728(4) 0.6174(3)
C11_2 C 0.6862(4) 0.5359(4) 0.7948(3)
H3_2 H 0.667646 0.531713 0.815424
C12_2 C 0.7988(5) 0.2214(4) 0.6413(3)
N2_2 N 0.8265(5) 0.5486(4) 0.6584(3)
N3_2 N 0.7740(5) 0.5579(4) 0.7051(3)
H4_2 H 0.782400 0.589052 0.702307
N4_2 N 0.7782(5) 0.4786(4) 0.6793(3)
C13_2 C 0.8069(5) 0.2734(4) 0.6252(3)
C14_2 C 0.7097(4) 0.4953(4) 0.7794(3)
C15_2 C 0.9581(5) 0.6357(4) 0.5736(3)
C16_2 C 0.7388(5) 0.5010(4) 0.7500(3)
H5_2 H 0.755121 0.473128 0.740287
N5_2 N 0.7842(5) 0.4037(4) 0.6518(3)
H6_2 H 0.761074 0.396062 0.666851
C17_2 C 0.7911(5) 0.3154(4) 0.6433(3)
H7_2 H 0.774077 0.311670 0.664599
C18_2 C 0.9385(5) 0.5889(4) 0.5813(3)
H8_2 H 0.950482 0.560539 0.569534
C19_2 C 0.7195(6) 0.5889(4) 0.7498(4)
H9_2 H 0.722695 0.620837 0.739742
N6_2 N 0.8801(5) 0.5350(4) 0.6116(3)
H10_2 H 0.891614 0.512187 0.597543
C20_2 C 0.7995(5) 0.4533(4) 0.6528(4)
C21_2 C 0.7442(6) 0.5486(4) 0.7346(4)
C22_2 C 0.8267(5) 0.3695(4) 0.5997(4)
H11_2 H 0.834136 0.401720 0.591393
C23_2 C 0.8862(5) 0.6261(4) 0.6253(4)
H12_2 H 0.862817 0.622836 0.643436
C24_2 C 0.8000(5) 0.3629(4) 0.6302(4)
C25_2 C 0.9010(5) 0.5837(4) 0.6064(4)
C26_2 C 0.7920(6) 0.5265(5) 0.6803(4)
C27_2 C 0.8450(6) 0.5182(5) 0.6348(4)
O18_2 O 0.9806(3) 0.3981(3) 0.5353(2)
O24_2 O 0.9931(3) 0.3146(3) 0.5359(2)
Cu7_2 Cu 0.92822(7) 0.39144(7) 0.500000
O26_2 O 0.7679(3) 0.0905(3) 0.7163(2)
O28_2 O 0.9422(3) 0.8201(3) 0.6752(2)
O30_2 O 0.8563(3) 0.8783(3) 0.6754(2)
O36_2 O 0.8291(3) 0.1741(3) 0.7184(2)
O37_3 O 0.8928(3) 0.2939(3) 0.4640(2)
O40_3 O 0.9931(3) 0.3146(3) 0.4641(2)
O37_4 O 0.1072(3) 0.7061(3) 0.4640(2)
O40_4 O 0.0069(3) 0.6854(3) 0.4641(2)
O25_4 O 0.8797(3) 0.3764(3) 0.4629(2)
O34_4 O 0.9806(3) 0.3981(3) 0.4647(2)
Cu1_3 Cu 0.10856(7) 0.42822(7) 0.000000
Cu3_2 Cu 0.32193(5) 0.61930(5) 0.14822(3)
O4_3 O 0.1217(3) 0.8563(3) 0.3246(2)
O5_2 O 0.2105(3) 0.6369(3) 0.1650(2)
O6_3 O 0.1019(3) 0.4806(3) 0.0353(2)
O8_3 O 0.1709(3) 0.8259(3) 0.2816(2)
O10_3 O 0.2604(3) 0.5995(3) 0.1253(2)
O12_3 O 0.1854(3) 0.4931(3) 0.0359(2)
C1_3 C 0.2182(3) 0.6113(4) 0.1374(3)
C2_3 C 0.1286(4) 0.8330(3) 0.2960(3)
C3_3 C 0.0832(4) 0.8096(4) 0.2795(3)
C6_3 C 0.1400(5) 0.5014(5) 0.0463(3)
C7_3 C 0.1777(4) 0.5578(4) 0.0916(3)
H2_3 H 0.209193 0.544146 0.086394
C10_3 C 0.1728(4) 0.5941(4) 0.1174(3)
C11_3 C 0.0359(4) 0.8138(4) 0.2948(3)
H3_3 H 0.031713 0.832354 0.315424
N2_3 N 0.0486(4) 0.6735(5) 0.1584(3)
N3_3 N 0.0579(4) 0.7260(5) 0.2051(3)
H4_3 H 0.089052 0.717600 0.202307
C15_3 C 0.1357(4) 0.5419(5) 0.0736(3)
C16_3 C 0.0010(4) 0.7612(5) 0.2500(3)
C18_3 C 0.0889(4) 0.5615(5) 0.0813(3)
H8_3 H 0.060539 0.549518 0.069534
C19_3 C 0.0889(4) 0.7805(6) 0.2498(4)
H9_3 H 0.120837 0.777305 0.239742
N6_3 N 0.0350(4) 0.6199(5) 0.1116(3)
H10_3 H 0.012187 0.608386 0.097543
C21_3 C 0.0486(4) 0.7558(6) 0.2346(4)
C23_3 C 0.1261(4) 0.6138(5) 0.1253(4)
H12_3 H 0.122836 0.637183 0.143436
C25_3 C 0.0837(4) 0.5990(5) 0.1064(4)
C26_3 C 0.0265(5) 0.7080(6) 0.1803(4)
C27_3 C 0.0182(5) 0.6550(6) 0.1348(4)
Cu6_2 Cu 0.34347(5) 0.26747(5) 0.19426(4)
O13_3 O 0.1236(3) 0.3797(3) 0.0371(2)
O14_3 O 0.0905(3) 0.2321(3) 0.2837(2)
O15_3 O 0.0578(3) 0.1799(3) 0.3248(2)
O19_3 O 0.2804(3) 0.2727(3) 0.1691(2)
O21_3 O 0.2061(3) 0.3928(3) 0.0360(2)
O23_2 O 0.3152(3) 0.3189(3) 0.1256(2)
C31_3 C 0.1678(4) 0.3740(4) 0.0491(3)
C32_3 C 0.2215(4) 0.3336(4) 0.0943(3)
H13_3 H 0.249766 0.345581 0.082395
C35_3 C 0.0555(4) 0.2064(5) 0.2977(3)
N7_3 N 0.0313(4) 0.3337(5) 0.1299(3)
C36_3 C 0.1733(4) 0.3424(4) 0.0813(3)
C39_3 C 0.2786(4) 0.2988(5) 0.1413(3)
N10_3 N 0.0214(4) 0.2782(5) 0.1793(3)
C40_3 C 0.2266(4) 0.3069(5) 0.1252(3)
C41_3 C 0.0047(4) 0.2097(4) 0.2794(3)
H17_3 H 0.026872 0.255121 0.240287
N11_3 N 0.0963(4) 0.2842(5) 0.1518(3)
H18_3 H 0.103938 0.261074 0.166851
C44_3 C 0.1846(4) 0.2911(5) 0.1433(3)
H19_3 H 0.188330 0.274077 0.164599
C47_3 C 0.0467(4) 0.2995(5) 0.1528(4)
C49_3 C 0.1305(4) 0.3267(5) 0.0997(4)
H23_3 H 0.098280 0.334136 0.091393
C51_3 C 0.1371(4) 0.3000(5) 0.1302(4)
Cu8_3 Cu 0.20057(6) 0.44340(7) 0.000000
Cu9_2 Cu 0.38070(5) 0.32193(5) 0.14822(3)
Cu11_2 Cu 0.17807(5) 0.88070(5) 0.35178(3)
Cu13_2 Cu 0.11930(5) 0.17807(5) 0.35178(3)
Cu15_2 Cu 0.26747(5) 0.65653(5) 0.19426(4)
Cu18_2 Cu 0.15653(5) 0.23253(5) 0.30574(4)
Cu19_2 Cu 0.23253(5) 0.84347(5) 0.30574(4)
O27_3 O 0.4095(3) 0.2679(3) 0.2163(2)
O28_3 O 0.3201(3) 0.5578(3) 0.1752(2)
O30_3 O 0.3783(3) 0.6437(3) 0.1754(2)
O32_2 O 0.3631(3) 0.2105(3) 0.1650(2)
O35_3 O 0.3259(3) 0.3291(3) 0.2184(2)
O38_2 O 0.3189(3) 0.6848(3) 0.1256(2)
Cu1_4 Cu 0.10856(7) 0.42822(7) 1.000000
Cu8_4 Cu 0.20057(6) 0.44340(7) 1.000000
O25_5 O 0.1236(3) 0.3797(3) 0.9629(2)
O34_5 O 0.1019(3) 0.4806(3) 0.9647(2)
Cu2_3 Cu 0.79943(6) 0.55660(7) 0.000000
Cu4_2 Cu 0.65653(5) 0.73253(5) 0.19426(4)
O1_3 O 0.8764(3) 0.6203(3) 0.0371(2)
O2_3 O 0.9095(3) 0.7679(3) 0.2837(2)
O3_3 O 0.9422(3) 0.8201(3) 0.3248(2)
O7_3 O 0.7196(3) 0.7273(3) 0.1691(2)
O9_3 O 0.7939(3) 0.6072(3) 0.0360(2)
O11_2 O 0.6848(3) 0.6811(3) 0.1256(2)
C4_3 C 0.8322(4) 0.6260(4) 0.0491(3)
C5_3 C 0.7785(4) 0.6664(4) 0.0943(3)
H1_3 H 0.750234 0.654419 0.082395
C8_3 C 0.9445(4) 0.7936(5) 0.2977(3)
N1_3 N 0.9687(4) 0.6663(5) 0.1299(3)
C9_3 C 0.8267(4) 0.6576(4) 0.0813(3)
C12_3 C 0.7214(4) 0.7012(5) 0.1413(3)
N4_3 N 0.9786(4) 0.7218(5) 0.1793(3)
C13_3 C 0.7734(4) 0.6931(5) 0.1252(3)
C14_3 C 0.9953(4) 0.7903(4) 0.2794(3)
H5_3 H 0.973128 0.744879 0.240287
N5_3 N 0.9037(4) 0.7158(5) 0.1518(3)
H6_3 H 0.896062 0.738926 0.166851
C17_3 C 0.8154(4) 0.7089(5) 0.1433(3)
H7_3 H 0.811670 0.725923 0.164599
C20_3 C 0.9533(4) 0.7005(5) 0.1528(4)
C22_3 C 0.8695(4) 0.6733(5) 0.0997(4)
H11_3 H 0.901720 0.665864 0.091393
C24_3 C 0.8629(4) 0.7000(5) 0.1302(4)
Cu5_2 Cu 0.67807(5) 0.38070(5) 0.14822(3)
O16_3 O 0.8783(3) 0.1437(3) 0.3246(2)
O17_2 O 0.7895(3) 0.3631(3) 0.1650(2)
O18_3 O 0.8981(3) 0.5194(3) 0.0353(2)
O20_3 O 0.8291(3) 0.1741(3) 0.2816(2)
O22_3 O 0.7396(3) 0.4005(3) 0.1253(2)
O24_3 O 0.8146(3) 0.5069(3) 0.0359(2)
C28_3 C 0.7818(3) 0.3887(4) 0.1374(3)
C29_3 C 0.8714(4) 0.1670(3) 0.2960(3)
C30_3 C 0.9168(4) 0.1904(4) 0.2795(3)
C33_3 C 0.8600(5) 0.4986(5) 0.0463(3)
C34_3 C 0.8223(4) 0.4422(4) 0.0916(3)
H14_3 H 0.790807 0.455854 0.086394
C37_3 C 0.8272(4) 0.4059(4) 0.1174(3)
C38_3 C 0.9641(4) 0.1862(4) 0.2948(3)
H15_3 H 0.968287 0.167646 0.315424
N8_3 N 0.9514(4) 0.3265(5) 0.1584(3)
N9_3 N 0.9421(4) 0.2740(5) 0.2051(3)
H16_3 H 0.910948 0.282400 0.202307
C42_3 C 0.8643(4) 0.4581(5) 0.0736(3)
C43_3 C 0.9990(4) 0.2388(5) 0.2500(3)
C45_3 C 0.9111(4) 0.4385(5) 0.0813(3)
H20_3 H 0.939461 0.450482 0.069534
C46_3 C 0.9111(4) 0.2195(6) 0.2498(4)
H21_3 H 0.879163 0.222695 0.239742
N12_3 N 0.9650(4) 0.3801(5) 0.1116(3)
H22_3 H 0.987813 0.391614 0.097543
C48_3 C 0.9514(4) 0.2442(6) 0.2346(4)
C50_3 C 0.8739(4) 0.3862(5) 0.1253(4)
H24_3 H 0.877164 0.362817 0.143436
C52_3 C 0.9163(4) 0.4010(5) 0.1064(4)
C53_3 C 0.9735(5) 0.2920(6) 0.1803(4)
C54_3 C 0.9818(5) 0.3450(6) 0.1348(4)
Cu7_3 Cu 0.89144(7) 0.57178(7) 0.000000
Cu10_2 Cu 0.61930(5) 0.67807(5) 0.14822(3)
Cu12_2 Cu 0.82193(5) 0.11930(5) 0.35178(3)
Cu14_2 Cu 0.88070(5) 0.82193(5) 0.35178(3)
Cu16_2 Cu 0.73253(5) 0.34347(5) 0.19426(4)
Cu17_2 Cu 0.84347(5) 0.76747(5) 0.30574(4)
Cu20_2 Cu 0.76747(5) 0.15653(5) 0.30574(4)
O26_3 O 0.5905(3) 0.7321(3) 0.2163(2)
O29_3 O 0.6799(3) 0.4422(3) 0.1752(2)
O31_3 O 0.6217(3) 0.3563(3) 0.1754(2)
O33_2 O 0.6369(3) 0.7895(3) 0.1650(2)
O36_3 O 0.6741(3) 0.6709(3) 0.2184(2)
O39_2 O 0.6811(3) 0.3152(3) 0.1256(2)
Cu2_4 Cu 0.79943(6) 0.55660(7) 1.000000
Cu7_4 Cu 0.89144(7) 0.57178(7) 1.000000
O37_5 O 0.7939(3) 0.6072(3) 0.9640(2)
O40_5 O 0.8146(3) 0.5069(3) 0.9641(2)
O37_6 O 0.2061(3) 0.3928(3) 0.9640(2)
O40_6 O 0.1854(3) 0.4931(3) 0.9641(2)
O25_6 O 0.8764(3) 0.6203(3) 0.9629(2)
O34_6 O 0.8981(3) 0.5194(3) 0.9647(2)
Cu1_5 Cu 0.57178(7) 0.10856(7) 0.000000
O4_4 O 0.1437(3) 0.1217(3) 0.3246(2)
O6_4 O 0.5194(3) 0.1019(3) 0.0353(2)
O8_4 O 0.1741(3) 0.1709(3) 0.2816(2)
O10_4 O 0.4005(3) 0.2604(3) 0.1253(2)
O12_4 O 0.5069(3) 0.1854(3) 0.0359(2)
C1_4 C 0.3887(4) 0.2182(3) 0.1374(3)
C2_4 C 0.1670(3) 0.1286(4) 0.2960(3)
C3_4 C 0.1904(4) 0.0832(4) 0.2795(3)
C6_4 C 0.4986(5) 0.1400(5) 0.0463(3)
C7_4 C 0.4422(4) 0.1777(4) 0.0916(3)
H2_4 H 0.455854 0.209193 0.086394
C10_4 C 0.4059(4) 0.1728(4) 0.1174(3)
C11_4 C 0.1862(4) 0.0359(4) 0.2948(3)
H3_4 H 0.167646 0.031713 0.315424
N2_4 N 0.3265(5) 0.0486(4) 0.1584(3)
N3_4 N 0.2740(5) 0.0579(4) 0.2051(3)
H4_4 H 0.282400 0.089052 0.202307
C15_4 C 0.4581(5) 0.1357(4) 0.0736(3)
C16_4 C 0.2388(5) 0.0010(4) 0.2500(3)
C18_4 C 0.4385(5) 0.0889(4) 0.0813(3)
H8_4 H 0.450482 0.060539 0.069534
C19_4 C 0.2195(6) 0.0889(4) 0.2498(4)
H9_4 H 0.222695 0.120837 0.239742
N6_4 N 0.3801(5) 0.0350(4) 0.1116(3)
H10_4 H 0.391614 0.012187 0.097543
C21_4 C 0.2442(6) 0.0486(4) 0.2346(4)
C23_4 C 0.3862(5) 0.1261(4) 0.1253(4)
H12_4 H 0.362817 0.122836 0.143436
C25_4 C 0.4010(5) 0.0837(4) 0.1064(4)
C26_4 C 0.2920(6) 0.0265(5) 0.1803(4)
C27_4 C 0.3450(6) 0.0182(5) 0.1348(4)
O13_4 O 0.6203(3) 0.1236(3) 0.0371(2)
O14_4 O 0.7679(3) 0.0905(3) 0.2837(2)
O15_4 O 0.8201(3) 0.0578(3) 0.3248(2)
O19_4 O 0.7273(3) 0.2804(3) 0.1691(2)
O21_4 O 0.6072(3) 0.2061(3) 0.0360(2)
C31_4 C 0.6260(4) 0.1678(4) 0.0491(3)
C32_4 C 0.6664(4) 0.2215(4) 0.0943(3)
H13_4 H 0.654419 0.249766 0.082395
C35_4 C 0.7936(5) 0.0555(4) 0.2977(3)
N7_4 N 0.6663(5) 0.0313(4) 0.1299(3)
C36_4 C 0.6576(4) 0.1733(4) 0.0813(3)
C39_4 C 0.7012(5) 0.2786(4) 0.1413(3)
N10_4 N 0.7218(5) 0.0214(4) 0.1793(3)
C40_4 C 0.6931(5) 0.2266(4) 0.1252(3)
C41_4 C 0.7903(4) 0.0047(4) 0.2794(3)
H17_4 H 0.744879 0.026872 0.240287
N11_4 N 0.7158(5) 0.0963(4) 0.1518(3)
H18_4 H 0.738926 0.103938 0.166851
C44_4 C 0.7089(5) 0.1846(4) 0.1433(3)
H19_4 H 0.725923 0.188330 0.164599
C47_4 C 0.7005(5) 0.0467(4) 0.1528(4)
C49_4 C 0.6733(5) 0.1305(4) 0.0997(4)
H23_4 H 0.665864 0.098280 0.091393
C51_4 C 0.7000(5) 0.1371(4) 0.1302(4)
Cu8_5 Cu 0.55660(7) 0.20057(6) 0.000000
O27_4 O 0.7321(3) 0.4095(3) 0.2163(2)
O28_4 O 0.4422(3) 0.3201(3) 0.1752(2)
O30_4 O 0.3563(3) 0.3783(3) 0.1754(2)
O35_4 O 0.6709(3) 0.3259(3) 0.2184(2)
Cu1_6 Cu 0.57178(7) 0.10856(7) 1.000000
Cu8_6 Cu 0.55660(7) 0.20057(6) 1.000000
O25_7 O 0.6203(3) 0.1236(3) 0.9629(2)
O34_7 O 0.5194(3) 0.1019(3) 0.9647(2)
Cu2_5 Cu 0.44340(7) 0.79943(6) 0.000000
O1_4 O 0.3797(3) 0.8764(3) 0.0371(2)
O2_4 O 0.2321(3) 0.9095(3) 0.2837(2)
O3_4 O 0.1799(3) 0.9422(3) 0.3248(2)
O7_4 O 0.2727(3) 0.7196(3) 0.1691(2)
O9_4 O 0.3928(3) 0.7939(3) 0.0360(2)
C4_4 C 0.3740(4) 0.8322(4) 0.0491(3)
C5_4 C 0.3336(4) 0.7785(4) 0.0943(3)
H1_4 H 0.345581 0.750234 0.082395
C8_4 C 0.2064(5) 0.9445(4) 0.2977(3)
N1_4 N 0.3337(5) 0.9687(4) 0.1299(3)
C9_4 C 0.3424(4) 0.8267(4) 0.0813(3)
C12_4 C 0.2988(5) 0.7214(4) 0.1413(3)
N4_4 N 0.2782(5) 0.9786(4) 0.1793(3)
C13_4 C 0.3069(5) 0.7734(4) 0.1252(3)
C14_4 C 0.2097(4) 0.9953(4) 0.2794(3)
H5_4 H 0.255121 0.973128 0.240287
N5_4 N 0.2842(5) 0.9037(4) 0.1518(3)
H6_4 H 0.261074 0.896062 0.166851
C17_4 C 0.2911(5) 0.8154(4) 0.1433(3)
H7_4 H 0.274077 0.811670 0.164599
C20_4 C 0.2995(5) 0.9533(4) 0.1528(4)
C22_4 C 0.3267(5) 0.8695(4) 0.0997(4)
H11_4 H 0.334136 0.901720 0.091393
C24_4 C 0.3000(5) 0.8629(4) 0.1302(4)
O16_4 O 0.8563(3) 0.8783(3) 0.3246(2)
O18_4 O 0.4806(3) 0.8981(3) 0.0353(2)
O20_4 O 0.8259(3) 0.8291(3) 0.2816(2)
O22_4 O 0.5995(3) 0.7396(3) 0.1253(2)
O24_4 O 0.4931(3) 0.8146(3) 0.0359(2)
C28_4 C 0.6113(4) 0.7818(3) 0.1374(3)
C29_4 C 0.8330(3) 0.8714(4) 0.2960(3)
C30_4 C 0.8096(4) 0.9168(4) 0.2795(3)
C33_4 C 0.5014(5) 0.8600(5) 0.0463(3)
C34_4 C 0.5578(4) 0.8223(4) 0.0916(3)
H14_4 H 0.544146 0.790807 0.086394
C37_4 C 0.5941(4) 0.8272(4) 0.1174(3)
C38_4 C 0.8138(4) 0.9641(4) 0.2948(3)
H15_4 H 0.832354 0.968287 0.315424
N8_4 N 0.6735(5) 0.9514(4) 0.1584(3)
N9_4 N 0.7260(5) 0.9421(4) 0.2051(3)
H16_4 H 0.717600 0.910948 0.202307
C42_4 C 0.5419(5) 0.8643(4) 0.0736(3)
C43_4 C 0.7612(5) 0.9990(4) 0.2500(3)
C45_4 C 0.5615(5) 0.9111(4) 0.0813(3)
H20_4 H 0.549518 0.939461 0.069534
C46_4 C 0.7805(6) 0.9111(4) 0.2498(4)
H21_4 H 0.777305 0.879163 0.239742
N12_4 N 0.6199(5) 0.9650(4) 0.1116(3)
H22_4 H 0.608386 0.987813 0.097543
C48_4 C 0.7558(6) 0.9514(4) 0.2346(4)
C50_4 C 0.6138(5) 0.8739(4) 0.1253(4)
H24_4 H 0.637183 0.877164 0.143436
C52_4 C 0.5990(5) 0.9163(4) 0.1064(4)
C53_4 C 0.7080(6) 0.9735(5) 0.1803(4)
C54_4 C 0.6550(6) 0.9818(5) 0.1348(4)
Cu7_5 Cu 0.42822(7) 0.89144(7) 0.000000
O26_4 O 0.2679(3) 0.5905(3) 0.2163(2)
O29_4 O 0.5578(3) 0.6799(3) 0.1752(2)
O31_4 O 0.6437(3) 0.6217(3) 0.1754(2)
O36_4 O 0.3291(3) 0.6741(3) 0.2184(2)
Cu2_6 Cu 0.44340(7) 0.79943(6) 1.000000
Cu7_6 Cu 0.42822(7) 0.89144(7) 1.000000
O37_7 O 0.3928(3) 0.7939(3) 0.9640(2)
O40_7 O 0.4931(3) 0.8146(3) 0.9641(2)
O37_8 O 0.6072(3) 0.2061(3) 0.9640(2)
O40_8 O 0.5069(3) 0.1854(3) 0.9641(2)
O25_8 O 0.3797(3) 0.8764(3) 0.9629(2)
O34_8 O 0.4806(3) 0.8981(3) 0.9647(2)
O17_3 O 0.7105(3) 0.1369(3) 0.3350(2)
O19_5 O 0.2196(3) 0.2273(3) 0.3309(2)
O22_5 O 0.7604(3) 0.0995(3) 0.3747(2)
O23_3 O 0.1848(3) 0.1811(3) 0.3744(2)
C28_5 C 0.7182(3) 0.1113(4) 0.3626(3)
C29_5 C 0.6286(4) 0.3330(3) 0.2040(3)
C30_5 C 0.5832(4) 0.3096(4) 0.2205(3)
C31_5 C 0.3322(4) 0.1260(4) 0.4509(3)
C32_5 C 0.2785(4) 0.1664(4) 0.4057(3)
H13_5 H 0.250234 0.154419 0.417605
C33_5 C 0.6400(5) 0.0014(5) 0.4537(3)
C34_5 C 0.6777(4) 0.0578(4) 0.4084(3)
H14_5 H 0.709193 0.044146 0.413606
C35_5 C 0.4445(4) 0.2936(5) 0.2023(3)
N7_5 N 0.4687(4) 0.1663(5) 0.3701(3)
C36_5 C 0.3267(4) 0.1576(4) 0.4187(3)
C37_5 C 0.6728(4) 0.0941(4) 0.3826(3)
C38_5 C 0.5359(4) 0.3138(4) 0.2052(3)
H15_5 H 0.531713 0.332354 0.184576
C39_5 C 0.2214(4) 0.2012(5) 0.3587(3)
N8_5 N 0.5486(4) 0.1735(5) 0.3416(3)
N9_5 N 0.5579(4) 0.2260(5) 0.2949(3)
H16_5 H 0.589052 0.217600 0.297693
N10_5 N 0.4786(4) 0.2218(5) 0.3207(3)
C40_5 C 0.2734(4) 0.1931(5) 0.3748(3)
C41_5 C 0.4953(4) 0.2903(4) 0.2206(3)
C42_5 C 0.6357(4) 0.0419(5) 0.4264(3)
C43_5 C 0.5010(4) 0.2612(5) 0.2500(3)
H17_5 H 0.473128 0.244879 0.259713
N11_5 N 0.4037(4) 0.2158(5) 0.3482(3)
H18_5 H 0.396062 0.238926 0.333149
C44_5 C 0.3154(4) 0.2089(5) 0.3567(3)
H19_5 H 0.311670 0.225923 0.335401
C45_5 C 0.5889(4) 0.0615(5) 0.4187(3)
H20_5 H 0.560539 0.049518 0.430466
C46_5 C 0.5889(4) 0.2805(6) 0.2502(4)
H21_5 H 0.620837 0.277305 0.260258
N12_5 N 0.5350(4) 0.1199(5) 0.3884(3)
H22_5 H 0.512187 0.108386 0.402457
C47_5 C 0.4533(4) 0.2005(5) 0.3472(4)
C48_5 C 0.5486(4) 0.2558(6) 0.2654(4)
C49_5 C 0.3695(4) 0.1733(5) 0.4003(4)
H23_5 H 0.401720 0.165864 0.408607
C50_5 C 0.6261(4) 0.1138(5) 0.3747(4)
H24_5 H 0.622836 0.137183 0.356564
C51_5 C 0.3629(4) 0.2000(5) 0.3698(4)
C52_5 C 0.5837(4) 0.0990(5) 0.3936(4)
C53_5 C 0.5265(5) 0.2080(6) 0.3197(4)
C54_5 C 0.5182(5) 0.1550(6) 0.3652(4)
O32_3 O 0.1369(3) 0.2895(3) 0.3350(2)
O39_3 O 0.8189(3) 0.1848(3) 0.3744(2)
O5_3 O 0.2895(3) 0.8631(3) 0.3350(2)
O7_5 O 0.7804(3) 0.7727(3) 0.3309(2)
O10_5 O 0.2396(3) 0.9005(3) 0.3747(2)
O11_3 O 0.8152(3) 0.8189(3) 0.3744(2)
C1_5 C 0.2818(3) 0.8887(4) 0.3626(3)
C2_5 C 0.3714(4) 0.6670(3) 0.2040(3)
C3_5 C 0.4168(4) 0.6904(4) 0.2205(3)
C4_5 C 0.6678(4) 0.8740(4) 0.4509(3)
C5_5 C 0.7215(4) 0.8336(4) 0.4057(3)
H1_5 H 0.749766 0.845581 0.417605
C6_5 C 0.3600(5) 0.9986(5) 0.4537(3)
C7_5 C 0.3223(4) 0.9422(4) 0.4084(3)
H2_5 H 0.290807 0.955854 0.413606
C8_5 C 0.5555(4) 0.7064(5) 0.2023(3)
N1_5 N 0.5313(4) 0.8337(5) 0.3701(3)
C9_5 C 0.6733(4) 0.8424(4) 0.4187(3)
C10_5 C 0.3272(4) 0.9059(4) 0.3826(3)
C11_5 C 0.4641(4) 0.6862(4) 0.2052(3)
H3_5 H 0.468287 0.667646 0.184576
C12_5 C 0.7786(4) 0.7988(5) 0.3587(3)
N2_5 N 0.4514(4) 0.8265(5) 0.3416(3)
N3_5 N 0.4421(4) 0.7740(5) 0.2949(3)
H4_5 H 0.410948 0.782400 0.297693
N4_5 N 0.5214(4) 0.7782(5) 0.3207(3)
C13_5 C 0.7266(4) 0.8069(5) 0.3748(3)
C14_5 C 0.5047(4) 0.7097(4) 0.2206(3)
C15_5 C 0.3643(4) 0.9581(5) 0.4264(3)
C16_5 C 0.4990(4) 0.7388(5) 0.2500(3)
H5_5 H 0.526872 0.755121 0.259713
N5_5 N 0.5963(4) 0.7842(5) 0.3482(3)
H6_5 H 0.603938 0.761074 0.333149
C17_5 C 0.6846(4) 0.7911(5) 0.3567(3)
H7_5 H 0.688330 0.774077 0.335401
C18_5 C 0.4111(4) 0.9385(5) 0.4187(3)
H8_5 H 0.439461 0.950482 0.430466
C19_5 C 0.4111(4) 0.7195(6) 0.2502(4)
H9_5 H 0.379163 0.722695 0.260258
N6_5 N 0.4650(4) 0.8801(5) 0.3884(3)
H10_5 H 0.487813 0.891614 0.402457
C20_5 C 0.5467(4) 0.7995(5) 0.3472(4)
C21_5 C 0.4514(4) 0.7442(6) 0.2654(4)
C22_5 C 0.6305(4) 0.8267(5) 0.4003(4)
H11_5 H 0.598280 0.834136 0.408607
C23_5 C 0.3739(4) 0.8862(5) 0.3747(4)
H12_5 H 0.377164 0.862817 0.356564
C24_5 C 0.6371(4) 0.8000(5) 0.3698(4)
C25_5 C 0.4163(4) 0.9010(5) 0.3936(4)
C26_5 C 0.4735(5) 0.7920(6) 0.3197(4)
C27_5 C 0.4818(5) 0.8450(6) 0.3652(4)
O33_3 O 0.8631(3) 0.7105(3) 0.3350(2)
O38_3 O 0.1811(3) 0.8152(3) 0.3744(2)
O7_6 O 0.2273(3) 0.7804(3) 0.3309(2)
O10_6 O 0.0995(3) 0.2396(3) 0.3747(2)
C1_6 C 0.1113(4) 0.2818(3) 0.3626(3)
C2_6 C 0.3330(3) 0.3714(4) 0.2040(3)
C3_6 C 0.3096(4) 0.4168(4) 0.2205(3)
C4_6 C 0.1260(4) 0.6678(4) 0.4509(3)
C5_6 C 0.1664(4) 0.7215(4) 0.4057(3)
H1_6 H 0.154419 0.749766 0.417605
C6_6 C 0.0014(5) 0.3600(5) 0.4537(3)
C7_6 C 0.0578(4) 0.3223(4) 0.4084(3)
H2_6 H 0.044146 0.290807 0.413606
C8_6 C 0.2936(5) 0.5555(4) 0.2023(3)
N1_6 N 0.1663(5) 0.5313(4) 0.3701(3)
C9_6 C 0.1576(4) 0.6733(4) 0.4187(3)
C10_6 C 0.0941(4) 0.3272(4) 0.3826(3)
C11_6 C 0.3138(4) 0.4641(4) 0.2052(3)
H3_6 H 0.332354 0.468287 0.184576
C12_6 C 0.2012(5) 0.7786(4) 0.3587(3)
N2_6 N 0.1735(5) 0.4514(4) 0.3416(3)
N3_6 N 0.2260(5) 0.4421(4) 0.2949(3)
H4_6 H 0.217600 0.410948 0.297693
N4_6 N 0.2218(5) 0.5214(4) 0.3207(3)
C13_6 C 0.1931(5) 0.7266(4) 0.3748(3)
C14_6 C 0.2903(4) 0.5047(4) 0.2206(3)
C15_6 C 0.0419(5) 0.3643(4) 0.4264(3)
C16_6 C 0.2612(5) 0.4990(4) 0.2500(3)
H5_6 H 0.244879 0.526872 0.259713
N5_6 N 0.2158(5) 0.5963(4) 0.3482(3)
H6_6 H 0.238926 0.603938 0.333149
C17_6 C 0.2089(5) 0.6846(4) 0.3567(3)
H7_6 H 0.225923 0.688330 0.335401
C18_6 C 0.0615(5) 0.4111(4) 0.4187(3)
H8_6 H 0.049518 0.439461 0.430466
C19_6 C 0.2805(6) 0.4111(4) 0.2502(4)
H9_6 H 0.277305 0.379163 0.260258
N6_6 N 0.1199(5) 0.4650(4) 0.3884(3)
H10_6 H 0.108386 0.487813 0.402457
C20_6 C 0.2005(5) 0.5467(4) 0.3472(4)
C21_6 C 0.2558(6) 0.4514(4) 0.2654(4)
C22_6 C 0.1733(5) 0.6305(4) 0.4003(4)
H11_6 H 0.165864 0.598280 0.408607
C23_6 C 0.1138(5) 0.3739(4) 0.3747(4)
H12_6 H 0.137183 0.377164 0.356564
C24_6 C 0.2000(5) 0.6371(4) 0.3698(4)
C25_6 C 0.0990(5) 0.4163(4) 0.3936(4)
C26_6 C 0.2080(6) 0.4735(5) 0.3197(4)
C27_6 C 0.1550(6) 0.4818(5) 0.3652(4)
O19_6 O 0.7727(3) 0.2196(3) 0.3309(2)
O22_6 O 0.9005(3) 0.7604(3) 0.3747(2)
C28_6 C 0.8887(4) 0.7182(3) 0.3626(3)
C29_6 C 0.6670(3) 0.6286(4) 0.2040(3)
C30_6 C 0.6904(4) 0.5832(4) 0.2205(3)
C31_6 C 0.8740(4) 0.3322(4) 0.4509(3)
C32_6 C 0.8336(4) 0.2785(4) 0.4057(3)
H13_6 H 0.845581 0.250234 0.417605
C33_6 C 0.9986(5) 0.6400(5) 0.4537(3)
C34_6 C 0.9422(4) 0.6777(4) 0.4084(3)
H14_6 H 0.955854 0.709193 0.413606
C35_6 C 0.7064(5) 0.4445(4) 0.2023(3)
N7_6 N 0.8337(5) 0.4687(4) 0.3701(3)
C36_6 C 0.8424(4) 0.3267(4) 0.4187(3)
C37_6 C 0.9059(4) 0.6728(4) 0.3826(3)
C38_6 C 0.6862(4) 0.5359(4) 0.2052(3)
H15_6 H 0.667646 0.531713 0.184576
C39_6 C 0.7988(5) 0.2214(4) 0.3587(3)
N8_6 N 0.8265(5) 0.5486(4) 0.3416(3)
N9_6 N 0.7740(5) 0.5579(4) 0.2949(3)
H16_6 H 0.782400 0.589052 0.297693
N10_6 N 0.7782(5) 0.4786(4) 0.3207(3)
C40_6 C 0.8069(5) 0.2734(4) 0.3748(3)
C41_6 C 0.7097(4) 0.4953(4) 0.2206(3)
C42_6 C 0.9581(5) 0.6357(4) 0.4264(3)
C43_6 C 0.7388(5) 0.5010(4) 0.2500(3)
H17_6 H 0.755121 0.473128 0.259713
N11_6 N 0.7842(5) 0.4037(4) 0.3482(3)
H18_6 H 0.761074 0.396062 0.333149
C44_6 C 0.7911(5) 0.3154(4) 0.3567(3)
H19_6 H 0.774077 0.311670 0.335401
C45_6 C 0.9385(5) 0.5889(4) 0.4187(3)
H20_6 H 0.950482 0.560539 0.430466
C46_6 C 0.7195(6) 0.5889(4) 0.2502(4)
H21_6 H 0.722695 0.620837 0.260258
N12_6 N 0.8801(5) 0.5350(4) 0.3884(3)
H22_6 H 0.891614 0.512187 0.402457
C47_6 C 0.7995(5) 0.4533(4) 0.3472(4)
C48_6 C 0.7442(6) 0.5486(4) 0.2654(4)
C49_6 C 0.8267(5) 0.3695(4) 0.4003(4)
H23_6 H 0.834136 0.401720 0.408607
C50_6 C 0.8862(5) 0.6261(4) 0.3747(4)
H24_6 H 0.862817 0.622836 0.356564
C51_6 C 0.8000(5) 0.3629(4) 0.3698(4)
C52_6 C 0.9010(5) 0.5837(4) 0.3936(4)
C53_6 C 0.7920(6) 0.5265(5) 0.3197(4)
C54_6 C 0.8450(6) 0.5182(5) 0.3652(4)
O7_7 O 0.2804(3) 0.2727(3) 0.8309(2)
O11_4 O 0.3152(3) 0.3189(3) 0.8744(2)
C4_7 C 0.1678(4) 0.3740(4) 0.9509(3)
C5_7 C 0.2215(4) 0.3336(4) 0.9057(3)
H1_7 H 0.249766 0.345581 0.917605
C8_7 C 0.0555(4) 0.2064(5) 0.7023(3)
N1_7 N 0.0313(4) 0.3337(5) 0.8701(3)
C9_7 C 0.1733(4) 0.3424(4) 0.9187(3)
C12_7 C 0.2786(4) 0.2988(5) 0.8587(3)
N4_7 N 0.0214(4) 0.2782(5) 0.8207(3)
C13_7 C 0.2266(4) 0.3069(5) 0.8748(3)
C14_7 C 0.0047(4) 0.2097(4) 0.7206(3)
H5_7 H 0.026872 0.255121 0.759713
N5_7 N 0.0963(4) 0.2842(5) 0.8482(3)
H6_7 H 0.103938 0.261074 0.833149
C17_7 C 0.1846(4) 0.2911(5) 0.8567(3)
H7_7 H 0.188330 0.274077 0.835401
C20_7 C 0.0467(4) 0.2995(5) 0.8472(4)
C22_7 C 0.1305(4) 0.3267(5) 0.9003(4)
H11_7 H 0.098280 0.334136 0.908607
C24_7 C 0.1371(4) 0.3000(5) 0.8698(4)
O17_4 O 0.2105(3) 0.6369(3) 0.8350(2)
O22_7 O 0.2604(3) 0.5995(3) 0.8747(2)
C28_7 C 0.2182(3) 0.6113(4) 0.8626(3)
C29_7 C 0.1286(4) 0.8330(3) 0.7040(3)
C30_7 C 0.0832(4) 0.8096(4) 0.7205(3)
C33_7 C 0.1400(5) 0.5014(5) 0.9537(3)
C34_7 C 0.1777(4) 0.5578(4) 0.9084(3)
H14_7 H 0.209193 0.544146 0.913606
C37_7 C 0.1728(4) 0.5941(4) 0.8826(3)
C38_7 C 0.0359(4) 0.8138(4) 0.7052(3)
H15_7 H 0.031713 0.832354 0.684576
N8_7 N 0.0486(4) 0.6735(5) 0.8416(3)
N9_7 N 0.0579(4) 0.7260(5) 0.7949(3)
H16_7 H 0.089052 0.717600 0.797693
C42_7 C 0.1357(4) 0.5419(5) 0.9264(3)
C43_7 C 0.0010(4) 0.7612(5) 0.7500(3)
C45_7 C 0.0889(4) 0.5615(5) 0.9187(3)
H20_7 H 0.060539 0.549518 0.930466
C46_7 C 0.0889(4) 0.7805(6) 0.7502(4)
H21_7 H 0.120837 0.777305 0.760258
N12_7 N 0.0350(4) 0.6199(5) 0.8884(3)
H22_7 H 0.012187 0.608386 0.902457
C48_7 C 0.0486(4) 0.7558(6) 0.7654(4)
C50_7 C 0.1261(4) 0.6138(5) 0.8747(4)
H24_7 H 0.122836 0.637183 0.856564
C52_7 C 0.0837(4) 0.5990(5) 0.8936(4)
C53_7 C 0.0265(5) 0.7080(6) 0.8197(4)
C54_7 C 0.0182(5) 0.6550(6) 0.8652(4)
O33_4 O 0.3631(3) 0.2105(3) 0.8350(2)
O39_4 O 0.3189(3) 0.6848(3) 0.8744(2)
O5_4 O 0.7895(3) 0.3631(3) 0.8350(2)
O10_7 O 0.7396(3) 0.4005(3) 0.8747(2)
C1_7 C 0.7818(3) 0.3887(4) 0.8626(3)
C2_7 C 0.8714(4) 0.1670(3) 0.7040(3)
C3_7 C 0.9168(4) 0.1904(4) 0.7205(3)
C6_7 C 0.8600(5) 0.4986(5) 0.9537(3)
C7_7 C 0.8223(4) 0.4422(4) 0.9084(3)
H2_7 H 0.790807 0.455854 0.913606
C10_7 C 0.8272(4) 0.4059(4) 0.8826(3)
C11_7 C 0.9641(4) 0.1862(4) 0.7052(3)
H3_7 H 0.968287 0.167646 0.684576
N2_7 N 0.9514(4) 0.3265(5) 0.8416(3)
N3_7 N 0.9421(4) 0.2740(5) 0.7949(3)
H4_7 H 0.910948 0.282400 0.797693
C15_7 C 0.8643(4) 0.4581(5) 0.9264(3)
C16_7 C 0.9990(4) 0.2388(5) 0.7500(3)
C18_7 C 0.9111(4) 0.4385(5) 0.9187(3)
H8_7 H 0.939461 0.450482 0.930466
C19_7 C 0.9111(4) 0.2195(6) 0.7502(4)
H9_7 H 0.879163 0.222695 0.760258
N6_7 N 0.9650(4) 0.3801(5) 0.8884(3)
H10_7 H 0.987813 0.391614 0.902457
C21_7 C 0.9514(4) 0.2442(6) 0.7654(4)
C23_7 C 0.8739(4) 0.3862(5) 0.8747(4)
H12_7 H 0.877164 0.362817 0.856564
C25_7 C 0.9163(4) 0.4010(5) 0.8936(4)
C26_7 C 0.9735(5) 0.2920(6) 0.8197(4)
C27_7 C 0.9818(5) 0.3450(6) 0.8652(4)
O19_7 O 0.7196(3) 0.7273(3) 0.8309(2)
O23_4 O 0.6848(3) 0.6811(3) 0.8744(2)
C31_7 C 0.8322(4) 0.6260(4) 0.9509(3)
C32_7 C 0.7785(4) 0.6664(4) 0.9057(3)
H13_7 H 0.750234 0.654419 0.917605
C35_7 C 0.9445(4) 0.7936(5) 0.7023(3)
N7_7 N 0.9687(4) 0.6663(5) 0.8701(3)
C36_7 C 0.8267(4) 0.6576(4) 0.9187(3)
C39_7 C 0.7214(4) 0.7012(5) 0.8587(3)
N10_7 N 0.9786(4) 0.7218(5) 0.8207(3)
C40_7 C 0.7734(4) 0.6931(5) 0.8748(3)
C41_7 C 0.9953(4) 0.7903(4) 0.7206(3)
H17_7 H 0.973128 0.744879 0.759713
N11_7 N 0.9037(4) 0.7158(5) 0.8482(3)
H18_7 H 0.896062 0.738926 0.833149
C44_7 C 0.8154(4) 0.7089(5) 0.8567(3)
H19_7 H 0.811670 0.725923 0.835401
C47_7 C 0.9533(4) 0.7005(5) 0.8472(4)
C49_7 C 0.8695(4) 0.6733(5) 0.9003(4)
H23_7 H 0.901720 0.665864 0.908607
C51_7 C 0.8629(4) 0.7000(5) 0.8698(4)
O32_4 O 0.6369(3) 0.7895(3) 0.8350(2)
O38_4 O 0.6811(3) 0.3152(3) 0.8744(2)
O7_8 O 0.7273(3) 0.2804(3) 0.8309(2)
C4_8 C 0.6260(4) 0.1678(4) 0.9509(3)
C5_8 C 0.6664(4) 0.2215(4) 0.9057(3)
H1_8 H 0.654419 0.249766 0.917605
C8_8 C 0.7936(5) 0.0555(4) 0.7023(3)
N1_8 N 0.6663(5) 0.0313(4) 0.8701(3)
C9_8 C 0.6576(4) 0.1733(4) 0.9187(3)
C12_8 C 0.7012(5) 0.2786(4) 0.8587(3)
N4_8 N 0.7218(5) 0.0214(4) 0.8207(3)
C13_8 C 0.6931(5) 0.2266(4) 0.8748(3)
C14_8 C 0.7903(4) 0.0047(4) 0.7206(3)
H5_8 H 0.744879 0.026872 0.759713
N5_8 N 0.7158(5) 0.0963(4) 0.8482(3)
H6_8 H 0.738926 0.103938 0.833149
C17_8 C 0.7089(5) 0.1846(4) 0.8567(3)
H7_8 H 0.725923 0.188330 0.835401
C20_8 C 0.7005(5) 0.0467(4) 0.8472(4)
C22_8 C 0.6733(5) 0.1305(4) 0.9003(4)
H11_8 H 0.665864 0.098280 0.908607
C24_8 C 0.7000(5) 0.1371(4) 0.8698(4)
O22_8 O 0.4005(3) 0.2604(3) 0.8747(2)
C28_8 C 0.3887(4) 0.2182(3) 0.8626(3)
C29_8 C 0.1670(3) 0.1286(4) 0.7040(3)
C30_8 C 0.1904(4) 0.0832(4) 0.7205(3)
C33_8 C 0.4986(5) 0.1400(5) 0.9537(3)
C34_8 C 0.4422(4) 0.1777(4) 0.9084(3)
H14_8 H 0.455854 0.209193 0.913606
C37_8 C 0.4059(4) 0.1728(4) 0.8826(3)
C38_8 C 0.1862(4) 0.0359(4) 0.7052(3)
H15_8 H 0.167646 0.031713 0.684576
N8_8 N 0.3265(5) 0.0486(4) 0.8416(3)
N9_8 N 0.2740(5) 0.0579(4) 0.7949(3)
H16_8 H 0.282400 0.089052 0.797693
C42_8 C 0.4581(5) 0.1357(4) 0.9264(3)
C43_8 C 0.2388(5) 0.0010(4) 0.7500(3)
C45_8 C 0.4385(5) 0.0889(4) 0.9187(3)
H20_8 H 0.450482 0.060539 0.930466
C46_8 C 0.2195(6) 0.0889(4) 0.7502(4)
H21_8 H 0.222695 0.120837 0.760258
N12_8 N 0.3801(5) 0.0350(4) 0.8884(3)
H22_8 H 0.391614 0.012187 0.902457
C48_8 C 0.2442(6) 0.0486(4) 0.7654(4)
C50_8 C 0.3862(5) 0.1261(4) 0.8747(4)
H24_8 H 0.362817 0.122836 0.856564
C52_8 C 0.4010(5) 0.0837(4) 0.8936(4)
C53_8 C 0.2920(6) 0.0265(5) 0.8197(4)
C54_8 C 0.3450(6) 0.0182(5) 0.8652(4)
O10_8 O 0.5995(3) 0.7396(3) 0.8747(2)
C1_8 C 0.6113(4) 0.7818(3) 0.8626(3)
C2_8 C 0.8330(3) 0.8714(4) 0.7040(3)
C3_8 C 0.8096(4) 0.9168(4) 0.7205(3)
C6_8 C 0.5014(5) 0.8600(5) 0.9537(3)
C7_8 C 0.5578(4) 0.8223(4) 0.9084(3)
H2_8 H 0.544146 0.790807 0.913606
C10_8 C 0.5941(4) 0.8272(4) 0.8826(3)
C11_8 C 0.8138(4) 0.9641(4) 0.7052(3)
H3_8 H 0.832354 0.968287 0.684576
N2_8 N 0.6735(5) 0.9514(4) 0.8416(3)
N3_8 N 0.7260(5) 0.9421(4) 0.7949(3)
H4_8 H 0.717600 0.910948 0.797693
C15_8 C 0.5419(5) 0.8643(4) 0.9264(3)
C16_8 C 0.7612(5) 0.9990(4) 0.7500(3)
C18_8 C 0.5615(5) 0.9111(4) 0.9187(3)
H8_8 H 0.549518 0.939461 0.930466
C19_8 C 0.7805(6) 0.9111(4) 0.7502(4)
H9_8 H 0.777305 0.879163 0.760258
N6_8 N 0.6199(5) 0.9650(4) 0.8884(3)
H10_8 H 0.608386 0.987813 0.902457
C21_8 C 0.7558(6) 0.9514(4) 0.7654(4)
C23_8 C 0.6138(5) 0.8739(4) 0.8747(4)
H12_8 H 0.637183 0.877164 0.856564
C25_8 C 0.5990(5) 0.9163(4) 0.8936(4)
C26_8 C 0.7080(6) 0.9735(5) 0.8197(4)
C27_8 C 0.6550(6) 0.9818(5) 0.8652(4)
O19_8 O 0.2727(3) 0.7196(3) 0.8309(2)
C31_8 C 0.3740(4) 0.8322(4) 0.9509(3)
C32_8 C 0.3336(4) 0.7785(4) 0.9057(3)
H13_8 H 0.345581 0.750234 0.917605
C35_8 C 0.2064(5) 0.9445(4) 0.7023(3)
N7_8 N 0.3337(5) 0.9687(4) 0.8701(3)
C36_8 C 0.3424(4) 0.8267(4) 0.9187(3)
C39_8 C 0.2988(5) 0.7214(4) 0.8587(3)
N10_8 N 0.2782(5) 0.9786(4) 0.8207(3)
C40_8 C 0.3069(5) 0.7734(4) 0.8748(3)
C41_8 C 0.2097(4) 0.9953(4) 0.7206(3)
H17_8 H 0.255121 0.973128 0.759713
N11_8 N 0.2842(5) 0.9037(4) 0.8482(3)
H18_8 H 0.261074 0.896062 0.833149
C44_8 C 0.2911(5) 0.8154(4) 0.8567(3)
H19_8 H 0.274077 0.811670 0.835401
C47_8 C 0.2995(5) 0.9533(4) 0.8472(4)
C49_8 C 0.3267(5) 0.8695(4) 0.9003(4)
H23_8 H 0.334136 0.901720 0.908607
C51_8 C 0.3000(5) 0.8629(4) 0.8698(4)
loop_
_geom_bond_atom_site_label_1
_geom_bond_atom_site_label_2
_geom_bond_site_symmetry_1
_geom_bond_site_symmetry_2
Cu2 O9 1_555 1_555
Cu3 O10 1_555 1_555
Cu4 O7 1_555 1_555
O1 C4 1_555 1_555
O2 C8 1_555 1_555
O3 C8 1_555 1_555
O4 C2 1_555 1_555
O5 C1 1_555 1_555
O7 C12 1_555 1_555
O8 C2 1_555 1_555
O9 C4 1_555 1_555
O10 C1 1_555 1_555
O11 C12 1_555 1_555
C1 C10 1_555 1_555
C2 C3 1_555 1_555
C3 C11 1_555 1_555
C4 C9 1_555 1_555
C5 H1 1_555 1_555
C6 C15 1_555 1_555
C7 H2 1_555 1_555
C8 C14 1_555 1_555
N1 C20 1_555 1_555
C9 C5 1_555 1_555
C10 C7 1_555 1_555
C11 H3 1_555 1_555
C12 C13 1_555 1_555
N2 C26 1_555 1_555
N3 H4 1_555 1_555
N4 C20 1_555 1_555
C13 C5 1_555 1_555
C14 C11 1_555 1_555
C15 C7 1_555 1_555
C16 C14 1_555 1_555
H5 C16 1_555 1_555
N5 H6 1_555 1_555
C17 C13 1_555 1_555
H7 C17 1_555 1_555
C18 C15 1_555 1_555
H8 C18 1_555 1_555
C19 C3 1_555 1_555
H9 C19 1_555 1_555
N6 H10 1_555 1_555
C20 N5 1_555 1_555
C21 N3 1_555 1_555
C22 C9 1_555 1_555
H11 C22 1_555 1_555
C23 C10 1_555 1_555
H12 C23 1_555 1_555
C24 N5 1_555 1_555
C25 C18 1_555 1_555
C26 N3 1_555 1_555
C27 N1 1_555 1_555
O24 Cu2 1_555 1_555
Cu7 Cu2 1_555 1_555
Cu10 Cu4 1_555 1_555
Cu11 O4 1_555 1_555
Cu14 O3 1_555 1_555
Cu15 Cu3 1_555 1_555
Cu17 O2 1_555 1_555
Cu19 O8 1_555 1_555
O26 Cu4 1_555 1_555
O28 Cu3 1_555 1_555
O30 Cu3 1_555 1_555
O33 Cu4 1_555 1_555
O36 Cu4 1_555 1_555
O37 Cu2 1_555 1_555
O38 Cu3 1_555 1_555
O40 Cu2 1_555 1_555
O1 Cu7 1_555 1_555
O5 Cu15 1_555 1_555
O11 Cu10 1_555 1_555
N2 C27 1_555 1_555
N4 C26 1_555 1_555
C16 C21 1_555 1_555
C17 C24 1_555 1_555
C19 C21 1_555 1_555
N6 C25 1_555 1_555
N6 C27 1_555 1_555
C22 C24 1_555 1_555
C23 C25 1_555 1_555
O18 Cu7 1_555 1_555
Cu11 Cu19 1_555 1_555
Cu14 Cu17 1_555 1_555
Cu1 O6 1_555 1_555
Cu5 O22 1_555 1_555
Cu6 O19 1_555 1_555
O13 Cu1 1_555 1_555
O14 C35 1_555 1_555
O15 C35 1_555 1_555
O16 C29 1_555 1_555
O17 C28 1_555 1_555
O19 C39 1_555 1_555
O20 C29 1_555 1_555
O21 C31 1_555 1_555
O22 C28 1_555 1_555
O23 C39 1_555 1_555
C28 C37 1_555 1_555
C29 C30 1_555 1_555
C30 C38 1_555 1_555
C31 O13 1_555 1_555
C32 H13 1_555 1_555
C34 H14 1_555 1_555
C35 C41 1_555 1_555
N7 C47 1_555 1_555
C36 C31 1_555 1_555
C37 C34 1_555 1_555
C38 H15 1_555 1_555
C39 C40 1_555 1_555
N8 C53 1_555 1_555
N9 H16 1_555 1_555
N10 C47 1_555 1_555
C40 C32 1_555 1_555
C41 C38 1_555 1_555
C42 C33 1_555 1_555
C43 C41 1_555 1_555
H17 C43 1_555 1_555
N11 H18 1_555 1_555
C44 C40 1_555 1_555
H19 C44 1_555 1_555
C45 C42 1_555 1_555
H20 C45 1_555 1_555
C46 C30 1_555 1_555
H21 C46 1_555 1_555
N12 H22 1_555 1_555
C47 N11 1_555 1_555
C48 N9 1_555 1_555
C49 C36 1_555 1_555
H23 C49 1_555 1_555
C50 C37 1_555 1_555
H24 C50 1_555 1_555
C51 N11 1_555 1_555
C52 C45 1_555 1_555
C53 N9 1_555 1_555
C54 N7 1_555 1_555
Cu8 Cu1 1_555 1_555
Cu9 Cu6 1_555 1_555
Cu12 O16 1_555 1_555
Cu13 O15 1_555 1_555
Cu16 Cu5 1_555 1_555
Cu18 O14 1_555 1_555
Cu20 O20 1_555 1_555
O25 Cu1 1_555 1_555
O27 Cu6 1_555 1_555
O29 Cu5 1_555 1_555
O31 Cu5 1_555 1_555
O32 Cu6 1_555 1_555
O34 Cu1 1_555 1_555
O35 Cu6 1_555 1_555
O39 Cu5 1_555 1_555
O12 Cu8 1_555 1_555
O17 Cu16 1_555 1_555
O21 Cu8 1_555 1_555
O23 Cu9 1_555 1_555
C32 C36 1_555 1_555
C34 C42 1_555 1_555
N8 C54 1_555 1_555
N10 C53 1_555 1_555
C43 C48 1_555 1_555
C44 C51 1_555 1_555
C46 C48 1_555 1_555
N12 C52 1_555 1_555
N12 C54 1_555 1_555
C49 C51 1_555 1_555
C50 C52 1_555 1_555
Cu12 Cu20 1_555 1_555
Cu13 Cu18 1_555 1_555
O25_2 Cu7 1_555 1_555
O34_2 Cu7 1_555 1_555
O37_2 Cu8 1_555 1_555
O40_2 Cu8 1_555 1_555
Cu1_2 O6_2 1_555 1_555
Cu10 O22_2 1_555 1_555
Cu16 O19_2 1_555 1_555
O13_2 Cu1_2 1_555 1_555
O14_2 C35_2 1_555 1_555
O15_2 C35_2 1_555 1_555
O16_2 C29_2 1_555 1_555
O33 C28_2 1_555 1_555
O19_2 C39_2 1_555 1_555
O20_2 C29_2 1_555 1_555
O21_2 C31_2 1_555 1_555
O22_2 C28_2 1_555 1_555
O39 C39_2 1_555 1_555
C28_2 C37_2 1_555 1_555
C29_2 C30_2 1_555 1_555
C30_2 C38_2 1_555 1_555
C31_2 O13_2 1_555 1_555
C32_2 H13_2 1_555 1_555
C34_2 H14_2 1_555 1_555
C35_2 C41_2 1_555 1_555
N7_2 C47_2 1_555 1_555
C36_2 C31_2 1_555 1_555
C37_2 C34_2 1_555 1_555
C38_2 H15_2 1_555 1_555
C39_2 C40_2 1_555 1_555
N8_2 C53_2 1_555 1_555
N9_2 H16_2 1_555 1_555
N10_2 C47_2 1_555 1_555
C40_2 C32_2 1_555 1_555
C41_2 C38_2 1_555 1_555
C42_2 C33_2 1_555 1_555
C43_2 C41_2 1_555 1_555
H17_2 C43_2 1_555 1_555
N11_2 H18_2 1_555 1_555
C44_2 C40_2 1_555 1_555
H19_2 C44_2 1_555 1_555
C45_2 C42_2 1_555 1_555
H20_2 C45_2 1_555 1_555
C46_2 C30_2 1_555 1_555
H21_2 C46_2 1_555 1_555
N12_2 H22_2 1_555 1_555
C47_2 N11_2 1_555 1_555
C48_2 N9_2 1_555 1_555
C49_2 C36_2 1_555 1_555
H23_2 C49_2 1_555 1_555
C50_2 C37_2 1_555 1_555
H24_2 C50_2 1_555 1_555
C51_2 N11_2 1_555 1_555
C52_2 C45_2 1_555 1_555
C53_2 N9_2 1_555 1_555
C54_2 N7_2 1_555 1_555
Cu8_2 Cu1_2 1_555 1_555
Cu14 O16_2 1_555 1_555
Cu12 O15_2 1_555 1_555
Cu20 O14_2 1_555 1_555
Cu17 O20_2 1_555 1_555
O25_3 Cu1_2 1_555 1_555
O27_2 Cu16 1_555 1_555
O29_2 Cu10 1_555 1_555
O31_2 Cu10 1_555 1_555
O34_3 Cu1_2 1_555 1_555
O35_2 Cu16 1_555 1_555
O12_2 Cu8_2 1_555 1_555
O21_2 Cu8_2 1_555 1_555
C32_2 C36_2 1_555 1_555
C34_2 C42_2 1_555 1_555
N8_2 C54_2 1_555 1_555
N10_2 C53_2 1_555 1_555
C43_2 C48_2 1_555 1_555
C44_2 C51_2 1_555 1_555
C46_2 C48_2 1_555 1_555
N12_2 C52_2 1_555 1_555
N12_2 C54_2 1_555 1_555
C49_2 C51_2 1_555 1_555
C50_2 C52_2 1_555 1_555
Cu2_2 O9_2 1_555 1_555
Cu9 O10_2 1_555 1_555
Cu15 O7_2 1_555 1_555
O1_2 C4_2 1_555 1_555
O2_2 C8_2 1_555 1_555
O3_2 C8_2 1_555 1_555
O4_2 C2_2 1_555 1_555
O32 C1_2 1_555 1_555
O7_2 C12_2 1_555 1_555
O8_2 C2_2 1_555 1_555
O9_2 C4_2 1_555 1_555
O10_2 C1_2 1_555 1_555
O38 C12_2 1_555 1_555
C1_2 C10_2 1_555 1_555
C2_2 C3_2 1_555 1_555
C3_2 C11_2 1_555 1_555
C4_2 C9_2 1_555 1_555
C5_2 H1_2 1_555 1_555
C6_2 C15_2 1_555 1_555
C7_2 H2_2 1_555 1_555
C8_2 C14_2 1_555 1_555
N1_2 C20_2 1_555 1_555
C9_2 C5_2 1_555 1_555
C10_2 C7_2 1_555 1_555
C11_2 H3_2 1_555 1_555
C12_2 C13_2 1_555 1_555
N2_2 C26_2 1_555 1_555
N3_2 H4_2 1_555 1_555
N4_2 C20_2 1_555 1_555
C13_2 C5_2 1_555 1_555
C14_2 C11_2 1_555 1_555
C15_2 C7_2 1_555 1_555
C16_2 C14_2 1_555 1_555
H5_2 C16_2 1_555 1_555
N5_2 H6_2 1_555 1_555
C17_2 C13_2 1_555 1_555
H7_2 C17_2 1_555 1_555
C18_2 C15_2 1_555 1_555
H8_2 C18_2 1_555 1_555
C19_2 C3_2 1_555 1_555
H9_2 C19_2 1_555 1_555
N6_2 H10_2 1_555 1_555
C20_2 N5_2 1_555 1_555
C21_2 N3_2 1_555 1_555
C22_2 C9_2 1_555 1_555
H11_2 C22_2 1_555 1_555
C23_2 C10_2 1_555 1_555
H12_2 C23_2 1_555 1_555
C24_2 N5_2 1_555 1_555
C25_2 C18_2 1_555 1_555
C26_2 N3_2 1_555 1_555
C27_2 N1_2 1_555 1_555
O24_2 Cu2_2 1_555 1_555
Cu7_2 Cu2_2 1_555 1_555
Cu13 O4_2 1_555 1_555
Cu11 O3_2 1_555 1_555
Cu19 O2_2 1_555 1_555
Cu18 O8_2 1_555 1_555
O26_2 Cu15 1_555 1_555
O28_2 Cu9 1_555 1_555
O30_2 Cu9 1_555 1_555
O36_2 Cu15 1_555 1_555
O37_3 Cu2_2 1_555 1_555
O40_3 Cu2_2 1_555 1_555
O1_2 Cu7_2 1_555 1_555
N2_2 C27_2 1_555 1_555
N4_2 C26_2 1_555 1_555
C16_2 C21_2 1_555 1_555
C17_2 C24_2 1_555 1_555
C19_2 C21_2 1_555 1_555
N6_2 C25_2 1_555 1_555
N6_2 C27_2 1_555 1_555
C22_2 C24_2 1_555 1_555
C23_2 C25_2 1_555 1_555
O18_2 Cu7_2 1_555 1_555
O37_4 Cu8_2 1_555 1_555
O40_4 Cu8_2 1_555 1_555
O25_4 Cu7_2 1_555 1_555
O34_4 Cu7_2 1_555 1_555
Cu1_3 O6_3 1_555 1_555
Cu3_2 O10_3 1_555 1_555
O4_3 C2_3 1_555 1_555
O5_2 C1_3 1_555 1_555
O6_3 C6_3 1_555 1_555
O8_3 C2_3 1_555 1_555
O10_3 C1_3 1_555 1_555
O12_3 C6_3 1_555 1_555
C1_3 C10_3 1_555 1_555
C2_3 C3_3 1_555 1_555
C3_3 C11_3 1_555 1_555
C6_3 C15_3 1_555 1_555
C7_3 H2_3 1_555 1_555
C10_3 C7_3 1_555 1_555
C11_3 H3_3 1_555 1_555
N2_3 C26_3 1_555 1_555
N3_3 H4_3 1_555 1_555
C15_3 C7_3 1_555 1_555
C18_3 C15_3 1_555 1_555
H8_3 C18_3 1_555 1_555
C19_3 C3_3 1_555 1_555
H9_3 C19_3 1_555 1_555
N6_3 H10_3 1_555 1_555
C21_3 N3_3 1_555 1_555
C23_3 C10_3 1_555 1_555
H12_3 C23_3 1_555 1_555
C25_3 C18_3 1_555 1_555
C26_3 N3_3 1_555 1_555
Cu6_2 O19_3 1_555 1_555
O13_3 Cu1_3 1_555 1_555
O14_3 C35_3 1_555 1_555
O15_3 C35_3 1_555 1_555
O19_3 C39_3 1_555 1_555
O21_3 C31_3 1_555 1_555
O23_2 C39_3 1_555 1_555
C31_3 O13_3 1_555 1_555
C32_3 H13_3 1_555 1_555
C35_3 C41_3 1_555 1_555
N7_3 C47_3 1_555 1_555
C36_3 C31_3 1_555 1_555
C39_3 C40_3 1_555 1_555
N10_3 C47_3 1_555 1_555
C40_3 C32_3 1_555 1_555
N11_3 H18_3 1_555 1_555
C44_3 C40_3 1_555 1_555
H19_3 C44_3 1_555 1_555
C47_3 N11_3 1_555 1_555
C49_3 C36_3 1_555 1_555
H23_3 C49_3 1_555 1_555
C51_3 N11_3 1_555 1_555
Cu8_3 Cu1_3 1_555 1_555
Cu9_2 Cu6_2 1_555 1_555
Cu11_2 O4_3 1_555 1_555
Cu13_2 O15_3 1_555 1_555
Cu15_2 Cu3_2 1_555 1_555
Cu18_2 O14_3 1_555 1_555
Cu19_2 O8_3 1_555 1_555
O27_3 Cu6_2 1_555 1_555
O28_3 Cu3_2 1_555 1_555
O30_3 Cu3_2 1_555 1_555
O32_2 Cu6_2 1_555 1_555
O35_3 Cu6_2 1_555 1_555
O38_2 Cu3_2 1_555 1_555
O5_2 Cu15_2 1_555 1_555
O12_3 Cu8_3 1_555 1_555
N2_3 C27_3 1_555 1_555
C16_3 C21_3 1_555 1_555
C19_3 C21_3 1_555 1_555
N6_3 C25_3 1_555 1_555
N6_3 C27_3 1_555 1_555
C23_3 C25_3 1_555 1_555
O21_3 Cu8_3 1_555 1_555
O23_2 Cu9_2 1_555 1_555
C32_3 C36_3 1_555 1_555
C44_3 C51_3 1_555 1_555
C49_3 C51_3 1_555 1_555
Cu11_2 Cu19_2 1_555 1_555
Cu13_2 Cu18_2 1_555 1_555
Cu8_4 Cu1_4 1_555 1_555
O25_5 Cu1_4 1_555 1_555
O34_5 Cu1_4 1_555 1_555
Cu2_3 O9_3 1_555 1_555
Cu4_2 O7_3 1_555 1_555
O1_3 C4_3 1_555 1_555
O2_3 C8_3 1_555 1_555
O3_3 C8_3 1_555 1_555
O7_3 C12_3 1_555 1_555
O9_3 C4_3 1_555 1_555
O11_2 C12_3 1_555 1_555
C4_3 C9_3 1_555 1_555
C5_3 H1_3 1_555 1_555
C8_3 C14_3 1_555 1_555
N1_3 C20_3 1_555 1_555
C9_3 C5_3 1_555 1_555
C12_3 C13_3 1_555 1_555
N4_3 C20_3 1_555 1_555
C13_3 C5_3 1_555 1_555
N5_3 H6_3 1_555 1_555
C17_3 C13_3 1_555 1_555
H7_3 C17_3 1_555 1_555
C20_3 N5_3 1_555 1_555
C22_3 C9_3 1_555 1_555
H11_3 C22_3 1_555 1_555
C24_3 N5_3 1_555 1_555
Cu5_2 O22_3 1_555 1_555
O16_3 C29_3 1_555 1_555
O17_2 C28_3 1_555 1_555
O18_3 C33_3 1_555 1_555
O20_3 C29_3 1_555 1_555
O22_3 C28_3 1_555 1_555
O24_3 Cu2_3 1_555 1_555
C28_3 C37_3 1_555 1_555
C29_3 C30_3 1_555 1_555
C30_3 C38_3 1_555 1_555
C33_3 O24_3 1_555 1_555
C34_3 H14_3 1_555 1_555
C37_3 C34_3 1_555 1_555
C38_3 H15_3 1_555 1_555
N8_3 C53_3 1_555 1_555
N9_3 H16_3 1_555 1_555
C42_3 C33_3 1_555 1_555
C45_3 C42_3 1_555 1_555
H20_3 C45_3 1_555 1_555
C46_3 C30_3 1_555 1_555
H21_3 C46_3 1_555 1_555
N12_3 H22_3 1_555 1_555
C48_3 N9_3 1_555 1_555
C50_3 C37_3 1_555 1_555
H24_3 C50_3 1_555 1_555
C52_3 C45_3 1_555 1_555
C53_3 N9_3 1_555 1_555
Cu7_3 Cu2_3 1_555 1_555
Cu10_2 Cu4_2 1_555 1_555
Cu12_2 O16_3 1_555 1_555
Cu14_2 O3_3 1_555 1_555
Cu16_2 Cu5_2 1_555 1_555
Cu17_2 O2_3 1_555 1_555
Cu20_2 O20_3 1_555 1_555
O26_3 Cu4_2 1_555 1_555
O29_3 Cu5_2 1_555 1_555
O31_3 Cu5_2 1_555 1_555
O33_2 Cu4_2 1_555 1_555
O36_3 Cu4_2 1_555 1_555
O39_2 Cu5_2 1_555 1_555
O1_3 Cu7_3 1_555 1_555
O11_2 Cu10_2 1_555 1_555
C17_3 C24_3 1_555 1_555
C22_3 C24_3 1_555 1_555
O17_2 Cu16_2 1_555 1_555
O18_3 Cu7_3 1_555 1_555
C34_3 C42_3 1_555 1_555
N8_3 C54_3 1_555 1_555
C43_3 C48_3 1_555 1_555
C46_3 C48_3 1_555 1_555
N12_3 C52_3 1_555 1_555
N12_3 C54_3 1_555 1_555
C50_3 C52_3 1_555 1_555
Cu12_2 Cu20_2 1_555 1_555
Cu14_2 Cu17_2 1_555 1_555
Cu7_4 Cu2_4 1_555 1_555
O37_5 Cu2_4 1_555 1_555
O40_5 Cu2_4 1_555 1_555
O37_6 Cu8_4 1_555 1_555
O40_6 Cu8_4 1_555 1_555
O25_6 Cu7_4 1_555 1_555
O34_6 Cu7_4 1_555 1_555
Cu1_5 O6_4 1_555 1_555
Cu9_2 O10_4 1_555 1_555
O4_4 C2_4 1_555 1_555
O32_2 C1_4 1_555 1_555
O6_4 C6_4 1_555 1_555
O8_4 C2_4 1_555 1_555
O10_4 C1_4 1_555 1_555
O12_4 C6_4 1_555 1_555
C1_4 C10_4 1_555 1_555
C2_4 C3_4 1_555 1_555
C3_4 C11_4 1_555 1_555
C6_4 C15_4 1_555 1_555
C7_4 H2_4 1_555 1_555
C10_4 C7_4 1_555 1_555
C11_4 H3_4 1_555 1_555
N2_4 C26_4 1_555 1_555
N3_4 H4_4 1_555 1_555
C15_4 C7_4 1_555 1_555
C18_4 C15_4 1_555 1_555
H8_4 C18_4 1_555 1_555
C19_4 C3_4 1_555 1_555
H9_4 C19_4 1_555 1_555
N6_4 H10_4 1_555 1_555
C21_4 N3_4 1_555 1_555
C23_4 C10_4 1_555 1_555
H12_4 C23_4 1_555 1_555
C25_4 C18_4 1_555 1_555
C26_4 N3_4 1_555 1_555
Cu16_2 O19_4 1_555 1_555
O13_4 Cu1_5 1_555 1_555
O14_4 C35_4 1_555 1_555
O15_4 C35_4 1_555 1_555
O19_4 C39_4 1_555 1_555
O21_4 C31_4 1_555 1_555
O39_2 C39_4 1_555 1_555
C31_4 O13_4 1_555 1_555
C32_4 H13_4 1_555 1_555
C35_4 C41_4 1_555 1_555
N7_4 C47_4 1_555 1_555
C36_4 C31_4 1_555 1_555
C39_4 C40_4 1_555 1_555
N10_4 C47_4 1_555 1_555
C40_4 C32_4 1_555 1_555
N11_4 H18_4 1_555 1_555
C44_4 C40_4 1_555 1_555
H19_4 C44_4 1_555 1_555
C47_4 N11_4 1_555 1_555
C49_4 C36_4 1_555 1_555
H23_4 C49_4 1_555 1_555
C51_4 N11_4 1_555 1_555
Cu8_5 Cu1_5 1_555 1_555
Cu13_2 O4_4 1_555 1_555
Cu12_2 O15_4 1_555 1_555
Cu20_2 O14_4 1_555 1_555
Cu18_2 O8_4 1_555 1_555
O27_4 Cu16_2 1_555 1_555
O28_4 Cu9_2 1_555 1_555
O30_4 Cu9_2 1_555 1_555
O35_4 Cu16_2 1_555 1_555
O12_4 Cu8_5 1_555 1_555
N2_4 C27_4 1_555 1_555
C16_4 C21_4 1_555 1_555
C19_4 C21_4 1_555 1_555
N6_4 C25_4 1_555 1_555
N6_4 C27_4 1_555 1_555
C23_4 C25_4 1_555 1_555
O21_4 Cu8_5 1_555 1_555
C32_4 C36_4 1_555 1_555
C44_4 C51_4 1_555 1_555
C49_4 C51_4 1_555 1_555
Cu8_6 Cu1_6 1_555 1_555
O25_7 Cu1_6 1_555 1_555
O34_7 Cu1_6 1_555 1_555
Cu2_5 O9_4 1_555 1_555
Cu15_2 O7_4 1_555 1_555
O1_4 C4_4 1_555 1_555
O2_4 C8_4 1_555 1_555
O3_4 C8_4 1_555 1_555
O7_4 C12_4 1_555 1_555
O9_4 C4_4 1_555 1_555
O38_2 C12_4 1_555 1_555
C4_4 C9_4 1_555 1_555
C5_4 H1_4 1_555 1_555
C8_4 C14_4 1_555 1_555
N1_4 C20_4 1_555 1_555
C9_4 C5_4 1_555 1_555
C12_4 C13_4 1_555 1_555
N4_4 C20_4 1_555 1_555
C13_4 C5_4 1_555 1_555
N5_4 H6_4 1_555 1_555
C17_4 C13_4 1_555 1_555
H7_4 C17_4 1_555 1_555
C20_4 N5_4 1_555 1_555
C22_4 C9_4 1_555 1_555
H11_4 C22_4 1_555 1_555
C24_4 N5_4 1_555 1_555
Cu10_2 O22_4 1_555 1_555
O16_4 C29_4 1_555 1_555
O33_2 C28_4 1_555 1_555
O18_4 C33_4 1_555 1_555
O20_4 C29_4 1_555 1_555
O22_4 C28_4 1_555 1_555
O24_4 Cu2_5 1_555 1_555
C28_4 C37_4 1_555 1_555
C29_4 C30_4 1_555 1_555
C30_4 C38_4 1_555 1_555
C33_4 O24_4 1_555 1_555
C34_4 H14_4 1_555 1_555
C37_4 C34_4 1_555 1_555
C38_4 H15_4 1_555 1_555
N8_4 C53_4 1_555 1_555
N9_4 H16_4 1_555 1_555
C42_4 C33_4 1_555 1_555
C45_4 C42_4 1_555 1_555
H20_4 C45_4 1_555 1_555
C46_4 C30_4 1_555 1_555
H21_4 C46_4 1_555 1_555
N12_4 H22_4 1_555 1_555
C48_4 N9_4 1_555 1_555
C50_4 C37_4 1_555 1_555
H24_4 C50_4 1_555 1_555
C52_4 C45_4 1_555 1_555
C53_4 N9_4 1_555 1_555
Cu7_5 Cu2_5 1_555 1_555
Cu14_2 O16_4 1_555 1_555
Cu11_2 O3_4 1_555 1_555
Cu19_2 O2_4 1_555 1_555
Cu17_2 O20_4 1_555 1_555
O26_4 Cu15_2 1_555 1_555
O29_4 Cu10_2 1_555 1_555
O31_4 Cu10_2 1_555 1_555
O36_4 Cu15_2 1_555 1_555
O1_4 Cu7_5 1_555 1_555
C17_4 C24_4 1_555 1_555
C22_4 C24_4 1_555 1_555
O18_4 Cu7_5 1_555 1_555
C34_4 C42_4 1_555 1_555
N8_4 C54_4 1_555 1_555
C43_4 C48_4 1_555 1_555
C46_4 C48_4 1_555 1_555
N12_4 C52_4 1_555 1_555
N12_4 C54_4 1_555 1_555
C50_4 C52_4 1_555 1_555
Cu7_6 Cu2_6 1_555 1_555
O37_7 Cu2_6 1_555 1_555
O40_7 Cu2_6 1_555 1_555
O37_8 Cu8_6 1_555 1_555
O40_8 Cu8_6 1_555 1_555
O25_8 Cu7_6 1_555 1_555
O34_8 Cu7_6 1_555 1_555
Cu12_2 O22_5 1_555 1_555
Cu18_2 O19_5 1_555 1_555
O27_3 C35_5 1_555 1_555
O28_4 C35_5 1_555 1_555
O31_3 C29_5 1_555 1_555
O17_3 C28_5 1_555 1_555
O19_5 C39_5 1_555 1_555
O35_4 C29_5 1_555 1_555
O37 C31_5 1_555 1_555
O22_5 C28_5 1_555 1_555
O23_3 C39_5 1_555 1_555
C28_5 C37_5 1_555 1_555
C29_5 C30_5 1_555 1_555
C30_5 C38_5 1_555 1_555
C31_5 O25_2 1_555 1_555
C32_5 H13_5 1_555 1_555
C34_5 H14_5 1_555 1_555
C35_5 C41_5 1_555 1_555
N7_5 C47_5 1_555 1_555
C36_5 C31_5 1_555 1_555
C37_5 C34_5 1_555 1_555
C38_5 H15_5 1_555 1_555
C39_5 C40_5 1_555 1_555
N8_5 C53_5 1_555 1_555
N9_5 H16_5 1_555 1_555
N10_5 C47_5 1_555 1_555
C40_5 C32_5 1_555 1_555
C41_5 C38_5 1_555 1_555
C42_5 C33_5 1_555 1_555
C43_5 C41_5 1_555 1_555
H17_5 C43_5 1_555 1_555
N11_5 H18_5 1_555 1_555
C44_5 C40_5 1_555 1_555
H19_5 C44_5 1_555 1_555
C45_5 C42_5 1_555 1_555
H20_5 C45_5 1_555 1_555
C46_5 C30_5 1_555 1_555
H21_5 C46_5 1_555 1_555
N12_5 H22_5 1_555 1_555
C47_5 N11_5 1_555 1_555
C48_5 N9_5 1_555 1_555
C49_5 C36_5 1_555 1_555
H23_5 C49_5 1_555 1_555
C50_5 C37_5 1_555 1_555
H24_5 C50_5 1_555 1_555
C51_5 N11_5 1_555 1_555
C52_5 C45_5 1_555 1_555
C53_5 N9_5 1_555 1_555
C54_5 N7_5 1_555 1_555
O32_3 Cu18_2 1_555 1_555
O39_3 Cu12_2 1_555 1_555
O17_3 Cu20_2 1_555 1_555
O23_3 Cu13_2 1_555 1_555
C32_5 C36_5 1_555 1_555
C34_5 C42_5 1_555 1_555
N8_5 C54_5 1_555 1_555
N10_5 C53_5 1_555 1_555
C43_5 C48_5 1_555 1_555
C44_5 C51_5 1_555 1_555
C46_5 C48_5 1_555 1_555
N12_5 C52_5 1_555 1_555
N12_5 C54_5 1_555 1_555
C49_5 C51_5 1_555 1_555
C50_5 C52_5 1_555 1_555
Cu11_2 O10_5 1_555 1_555
Cu17_2 O7_5 1_555 1_555
O25 C4_5 1_555 1_555
O26_3 C8_5 1_555 1_555
O29_4 C8_5 1_555 1_555
O30_3 C2_5 1_555 1_555
O5_3 C1_5 1_555 1_555
O7_5 C12_5 1_555 1_555
O36_4 C2_5 1_555 1_555
O37_2 C4_5 1_555 1_555
O10_5 C1_5 1_555 1_555
O11_3 C12_5 1_555 1_555
C1_5 C10_5 1_555 1_555
C2_5 C3_5 1_555 1_555
C3_5 C11_5 1_555 1_555
C4_5 C9_5 1_555 1_555
C5_5 H1_5 1_555 1_555
C6_5 C15_5 1_555 1_555
C7_5 H2_5 1_555 1_555
C8_5 C14_5 1_555 1_555
N1_5 C20_5 1_555 1_555
C9_5 C5_5 1_555 1_555
C10_5 C7_5 1_555 1_555
C11_5 H3_5 1_555 1_555
C12_5 C13_5 1_555 1_555
N2_5 C26_5 1_555 1_555
N3_5 H4_5 1_555 1_555
N4_5 C20_5 1_555 1_555
C13_5 C5_5 1_555 1_555
C14_5 C11_5 1_555 1_555
C15_5 C7_5 1_555 1_555
C16_5 C14_5 1_555 1_555
H5_5 C16_5 1_555 1_555
N5_5 H6_5 1_555 1_555
C17_5 C13_5 1_555 1_555
H7_5 C17_5 1_555 1_555
C18_5 C15_5 1_555 1_555
H8_5 C18_5 1_555 1_555
C19_5 C3_5 1_555 1_555
H9_5 C19_5 1_555 1_555
N6_5 H10_5 1_555 1_555
C20_5 N5_5 1_555 1_555
C21_5 N3_5 1_555 1_555
C22_5 C9_5 1_555 1_555
H11_5 C22_5 1_555 1_555
C23_5 C10_5 1_555 1_555
H12_5 C23_5 1_555 1_555
C24_5 N5_5 1_555 1_555
C25_5 C18_5 1_555 1_555
C26_5 N3_5 1_555 1_555
C27_5 N1_5 1_555 1_555
O33_3 Cu17_2 1_555 1_555
O38_3 Cu11_2 1_555 1_555
O5_3 Cu19_2 1_555 1_555
O11_3 Cu14_2 1_555 1_555
N2_5 C27_5 1_555 1_555
N4_5 C26_5 1_555 1_555
C16_5 C21_5 1_555 1_555
C17_5 C24_5 1_555 1_555
C19_5 C21_5 1_555 1_555
N6_5 C25_5 1_555 1_555
N6_5 C27_5 1_555 1_555
C22_5 C24_5 1_555 1_555
C23_5 C25_5 1_555 1_555
Cu13_2 O10_6 1_555 1_555
Cu19_2 O7_6 1_555 1_555
O25_3 C4_6 1_555 1_555
O26_4 C8_6 1_555 1_555
O28_3 C8_6 1_555 1_555
O30_4 C2_6 1_555 1_555
O32_3 C1_6 1_555 1_555
O7_6 C12_6 1_555 1_555
O35_3 C2_6 1_555 1_555
O37_4 C4_6 1_555 1_555
O10_6 C1_6 1_555 1_555
O38_3 C12_6 1_555 1_555
C1_6 C10_6 1_555 1_555
C2_6 C3_6 1_555 1_555
C3_6 C11_6 1_555 1_555
C4_6 C9_6 1_555 1_555
C5_6 H1_6 1_555 1_555
C6_6 C15_6 1_555 1_555
C7_6 H2_6 1_555 1_555
C8_6 C14_6 1_555 1_555
N1_6 C20_6 1_555 1_555
C9_6 C5_6 1_555 1_555
C10_6 C7_6 1_555 1_555
C11_6 H3_6 1_555 1_555
C12_6 C13_6 1_555 1_555
N2_6 C26_6 1_555 1_555
N3_6 H4_6 1_555 1_555
N4_6 C20_6 1_555 1_555
C13_6 C5_6 1_555 1_555
C14_6 C11_6 1_555 1_555
C15_6 C7_6 1_555 1_555
C16_6 C14_6 1_555 1_555
H5_6 C16_6 1_555 1_555
N5_6 H6_6 1_555 1_555
C17_6 C13_6 1_555 1_555
H7_6 C17_6 1_555 1_555
C18_6 C15_6 1_555 1_555
H8_6 C18_6 1_555 1_555
C19_6 C3_6 1_555 1_555
H9_6 C19_6 1_555 1_555
N6_6 H10_6 1_555 1_555
C20_6 N5_6 1_555 1_555
C21_6 N3_6 1_555 1_555
C22_6 C9_6 1_555 1_555
H11_6 C22_6 1_555 1_555
C23_6 C10_6 1_555 1_555
H12_6 C23_6 1_555 1_555
C24_6 N5_6 1_555 1_555
C25_6 C18_6 1_555 1_555
C26_6 N3_6 1_555 1_555
C27_6 N1_6 1_555 1_555
N2_6 C27_6 1_555 1_555
N4_6 C26_6 1_555 1_555
C16_6 C21_6 1_555 1_555
C17_6 C24_6 1_555 1_555
C19_6 C21_6 1_555 1_555
N6_6 C25_6 1_555 1_555
N6_6 C27_6 1_555 1_555
C22_6 C24_6 1_555 1_555
C23_6 C25_6 1_555 1_555
Cu14_2 O22_6 1_555 1_555
Cu20_2 O19_6 1_555 1_555
O27_4 C35_6 1_555 1_555
O29_3 C35_6 1_555 1_555
O31_4 C29_6 1_555 1_555
O33_3 C28_6 1_555 1_555
O19_6 C39_6 1_555 1_555
O36_3 C29_6 1_555 1_555
O37_3 C31_6 1_555 1_555
O22_6 C28_6 1_555 1_555
O39_3 C39_6 1_555 1_555
C28_6 C37_6 1_555 1_555
C29_6 C30_6 1_555 1_555
C30_6 C38_6 1_555 1_555
C31_6 O25_4 1_555 1_555
C32_6 H13_6 1_555 1_555
C34_6 H14_6 1_555 1_555
C35_6 C41_6 1_555 1_555
N7_6 C47_6 1_555 1_555
C36_6 C31_6 1_555 1_555
C37_6 C34_6 1_555 1_555
C38_6 H15_6 1_555 1_555
C39_6 C40_6 1_555 1_555
N8_6 C53_6 1_555 1_555
N9_6 H16_6 1_555 1_555
N10_6 C47_6 1_555 1_555
C40_6 C32_6 1_555 1_555
C41_6 C38_6 1_555 1_555
C42_6 C33_6 1_555 1_555
C43_6 C41_6 1_555 1_555
H17_6 C43_6 1_555 1_555
N11_6 H18_6 1_555 1_555
C44_6 C40_6 1_555 1_555
H19_6 C44_6 1_555 1_555
C45_6 C42_6 1_555 1_555
H20_6 C45_6 1_555 1_555
C46_6 C30_6 1_555 1_555
H21_6 C46_6 1_555 1_555
N12_6 H22_6 1_555 1_555
C47_6 N11_6 1_555 1_555
C48_6 N9_6 1_555 1_555
C49_6 C36_6 1_555 1_555
H23_6 C49_6 1_555 1_555
C50_6 C37_6 1_555 1_555
H24_6 C50_6 1_555 1_555
C51_6 N11_6 1_555 1_555
C52_6 C45_6 1_555 1_555
C53_6 N9_6 1_555 1_555
C54_6 N7_6 1_555 1_555
C32_6 C36_6 1_555 1_555
C34_6 C42_6 1_555 1_555
N8_6 C54_6 1_555 1_555
N10_6 C53_6 1_555 1_555
C43_6 C48_6 1_555 1_555
C44_6 C51_6 1_555 1_555
C46_6 C48_6 1_555 1_555
N12_6 C52_6 1_555 1_555
N12_6 C54_6 1_555 1_555
C49_6 C51_6 1_555 1_555
C50_6 C52_6 1_555 1_555
Cu17 O7_7 1_555 1_555
O25_5 C4_7 1_555 1_555
O26 C8_7 1_555 1_555
O29_2 C8_7 1_555 1_555
O7_7 C12_7 1_555 1_555
O37_6 C4_7 1_555 1_555
O11_4 C12_7 1_555 1_555
C4_7 C9_7 1_555 1_555
C5_7 H1_7 1_555 1_555
C8_7 C14_7 1_555 1_555
N1_7 C20_7 1_555 1_555
C9_7 C5_7 1_555 1_555
C12_7 C13_7 1_555 1_555
N4_7 C20_7 1_555 1_555
C13_7 C5_7 1_555 1_555
N5_7 H6_7 1_555 1_555
C17_7 C13_7 1_555 1_555
H7_7 C17_7 1_555 1_555
C20_7 N5_7 1_555 1_555
C22_7 C9_7 1_555 1_555
H11_7 C22_7 1_555 1_555
C24_7 N5_7 1_555 1_555
Cu12 O22_7 1_555 1_555
O31 C29_7 1_555 1_555
O17_4 C28_7 1_555 1_555
O34_5 C33_7 1_555 1_555
O35_2 C29_7 1_555 1_555
O22_7 C28_7 1_555 1_555
C28_7 C37_7 1_555 1_555
C29_7 C30_7 1_555 1_555
C30_7 C38_7 1_555 1_555
C33_7 O40_6 1_555 1_555
C34_7 H14_7 1_555 1_555
C37_7 C34_7 1_555 1_555
C38_7 H15_7 1_555 1_555
N8_7 C53_7 1_555 1_555
N9_7 H16_7 1_555 1_555
C42_7 C33_7 1_555 1_555
C45_7 C42_7 1_555 1_555
H20_7 C45_7 1_555 1_555
C46_7 C30_7 1_555 1_555
H21_7 C46_7 1_555 1_555
N12_7 H22_7 1_555 1_555
C48_7 N9_7 1_555 1_555
C50_7 C37_7 1_555 1_555
H24_7 C50_7 1_555 1_555
C52_7 C45_7 1_555 1_555
C53_7 N9_7 1_555 1_555
O33_4 Cu17 1_555 1_555
O39_4 Cu12 1_555 1_555
O11_4 Cu14 1_555 1_555
C17_7 C24_7 1_555 1_555
C22_7 C24_7 1_555 1_555
O17_4 Cu20 1_555 1_555
C34_7 C42_7 1_555 1_555
N8_7 C54_7 1_555 1_555
C43_7 C48_7 1_555 1_555
C46_7 C48_7 1_555 1_555
N12_7 C52_7 1_555 1_555
N12_7 C54_7 1_555 1_555
C50_7 C52_7 1_555 1_555
Cu11 O10_7 1_555 1_555
O30 C2_7 1_555 1_555
O5_4 C1_7 1_555 1_555
O34_6 C6_7 1_555 1_555
O36_2 C2_7 1_555 1_555
O10_7 C1_7 1_555 1_555
O40_5 C6_7 1_555 1_555
C1_7 C10_7 1_555 1_555
C2_7 C3_7 1_555 1_555
C3_7 C11_7 1_555 1_555
C6_7 C15_7 1_555 1_555
C7_7 H2_7 1_555 1_555
C10_7 C7_7 1_555 1_555
C11_7 H3_7 1_555 1_555
N2_7 C26_7 1_555 1_555
N3_7 H4_7 1_555 1_555
C15_7 C7_7 1_555 1_555
C18_7 C15_7 1_555 1_555
H8_7 C18_7 1_555 1_555
C19_7 C3_7 1_555 1_555
H9_7 C19_7 1_555 1_555
N6_7 H10_7 1_555 1_555
C21_7 N3_7 1_555 1_555
C23_7 C10_7 1_555 1_555
H12_7 C23_7 1_555 1_555
C25_7 C18_7 1_555 1_555
C26_7 N3_7 1_555 1_555
Cu18 O19_7 1_555 1_555
O27 C35_7 1_555 1_555
O28_2 C35_7 1_555 1_555
O19_7 C39_7 1_555 1_555
O37_5 C31_7 1_555 1_555
O23_4 C39_7 1_555 1_555
C31_7 O25_6 1_555 1_555
C32_7 H13_7 1_555 1_555
C35_7 C41_7 1_555 1_555
N7_7 C47_7 1_555 1_555
C36_7 C31_7 1_555 1_555
C39_7 C40_7 1_555 1_555
N10_7 C47_7 1_555 1_555
C40_7 C32_7 1_555 1_555
N11_7 H18_7 1_555 1_555
C44_7 C40_7 1_555 1_555
H19_7 C44_7 1_555 1_555
C47_7 N11_7 1_555 1_555
C49_7 C36_7 1_555 1_555
H23_7 C49_7 1_555 1_555
C51_7 N11_7 1_555 1_555
O32_4 Cu18 1_555 1_555
O38_4 Cu11 1_555 1_555
O5_4 Cu19 1_555 1_555
N2_7 C27_7 1_555 1_555
C16_7 C21_7 1_555 1_555
C19_7 C21_7 1_555 1_555
N6_7 C25_7 1_555 1_555
N6_7 C27_7 1_555 1_555
C23_7 C25_7 1_555 1_555
O23_4 Cu13 1_555 1_555
C32_7 C36_7 1_555 1_555
C44_7 C51_7 1_555 1_555
C49_7 C51_7 1_555 1_555
Cu19 O7_8 1_555 1_555
O25_7 C4_8 1_555 1_555
O26_2 C8_8 1_555 1_555
O28 C8_8 1_555 1_555
O7_8 C12_8 1_555 1_555
O37_8 C4_8 1_555 1_555
O38_4 C12_8 1_555 1_555
C4_8 C9_8 1_555 1_555
C5_8 H1_8 1_555 1_555
C8_8 C14_8 1_555 1_555
N1_8 C20_8 1_555 1_555
C9_8 C5_8 1_555 1_555
C12_8 C13_8 1_555 1_555
N4_8 C20_8 1_555 1_555
C13_8 C5_8 1_555 1_555
N5_8 H6_8 1_555 1_555
C17_8 C13_8 1_555 1_555
H7_8 C17_8 1_555 1_555
C20_8 N5_8 1_555 1_555
C22_8 C9_8 1_555 1_555
H11_8 C22_8 1_555 1_555
C24_8 N5_8 1_555 1_555
Cu14 O22_8 1_555 1_555
O31_2 C29_8 1_555 1_555
O33_4 C28_8 1_555 1_555
O34_7 C33_8 1_555 1_555
O36 C29_8 1_555 1_555
O22_8 C28_8 1_555 1_555
C28_8 C37_8 1_555 1_555
C29_8 C30_8 1_555 1_555
C30_8 C38_8 1_555 1_555
C33_8 O40_8 1_555 1_555
C34_8 H14_8 1_555 1_555
C37_8 C34_8 1_555 1_555
C38_8 H15_8 1_555 1_555
N8_8 C53_8 1_555 1_555
N9_8 H16_8 1_555 1_555
C42_8 C33_8 1_555 1_555
C45_8 C42_8 1_555 1_555
H20_8 C45_8 1_555 1_555
C46_8 C30_8 1_555 1_555
H21_8 C46_8 1_555 1_555
N12_8 H22_8 1_555 1_555
C48_8 N9_8 1_555 1_555
C50_8 C37_8 1_555 1_555
H24_8 C50_8 1_555 1_555
C52_8 C45_8 1_555 1_555
C53_8 N9_8 1_555 1_555
C17_8 C24_8 1_555 1_555
C22_8 C24_8 1_555 1_555
C34_8 C42_8 1_555 1_555
N8_8 C54_8 1_555 1_555
C43_8 C48_8 1_555 1_555
C46_8 C48_8 1_555 1_555
N12_8 C52_8 1_555 1_555
N12_8 C54_8 1_555 1_555
C50_8 C52_8 1_555 1_555
Cu13 O10_8 1_555 1_555
O30_2 C2_8 1_555 1_555
O32_4 C1_8 1_555 1_555
O34_8 C6_8 1_555 1_555
O35 C2_8 1_555 1_555
O10_8 C1_8 1_555 1_555
O40_7 C6_8 1_555 1_555
C1_8 C10_8 1_555 1_555
C2_8 C3_8 1_555 1_555
C3_8 C11_8 1_555 1_555
C6_8 C15_8 1_555 1_555
C7_8 H2_8 1_555 1_555
C10_8 C7_8 1_555 1_555
C11_8 H3_8 1_555 1_555
N2_8 C26_8 1_555 1_555
N3_8 H4_8 1_555 1_555
C15_8 C7_8 1_555 1_555
C18_8 C15_8 1_555 1_555
H8_8 C18_8 1_555 1_555
C19_8 C3_8 1_555 1_555
H9_8 C19_8 1_555 1_555
N6_8 H10_8 1_555 1_555
C21_8 N3_8 1_555 1_555
C23_8 C10_8 1_555 1_555
H12_8 C23_8 1_555 1_555
C25_8 C18_8 1_555 1_555
C26_8 N3_8 1_555 1_555
Cu20 O19_8 1_555 1_555
O27_2 C35_8 1_555 1_555
O29 C35_8 1_555 1_555
O19_8 C39_8 1_555 1_555
O37_7 C31_8 1_555 1_555
O39_4 C39_8 1_555 1_555
C31_8 O25_8 1_555 1_555
C32_8 H13_8 1_555 1_555
C35_8 C41_8 1_555 1_555
N7_8 C47_8 1_555 1_555
C36_8 C31_8 1_555 1_555
C39_8 C40_8 1_555 1_555
N10_8 C47_8 1_555 1_555
C40_8 C32_8 1_555 1_555
N11_8 H18_8 1_555 1_555
C44_8 C40_8 1_555 1_555
H19_8 C44_8 1_555 1_555
C47_8 N11_8 1_555 1_555
C49_8 C36_8 1_555 1_555
H23_8 C49_8 1_555 1_555
C51_8 N11_8 1_555 1_555
N2_8 C27_8 1_555 1_555
C16_8 C21_8 1_555 1_555
C19_8 C21_8 1_555 1_555
N6_8 C25_8 1_555 1_555
N6_8 C27_8 1_555 1_555
C23_8 C25_8 1_555 1_555
C32_8 C36_8 1_555 1_555
C44_8 C51_8 1_555 1_555
C49_8 C51_8 1_555 1_555

#END
