
###############################################################################
#
# This file contains modified crystal structure data generated from the
# MOF subset of the Cambridge Structural Database (CSD) v543 
# hosted by the Cambridge Crystallographic Data Centre (CCDC).
#
# This work is licensed under the Creative Commons
# Attribution-NonCommercial-ShareAlike 4.0 International License.
# To view a copy of this license, visit
# http://creativecommons.org/licenses/by-nc-sa/4.0/
# or send a letter to
# Creative Commons, PO Box 1866, Mountain View, CA 94042, USA.
#
# CIF created using the CSD Python API on 29 September 2022
# The structure has been converted into the P1 space group
# The structure has a 3D framework
# The original CSD entry PAPPAB08 is in the tetragonal crystal system
# The framework has been calculated to contain at least 10.0% void space
# The void calculation uses a probe of radius 1.32A, grid spacing 0.4
#
###############################################################################

data_PAPPAB08
_chemical_formula_moiety         '(C432 H192 Cu40 N96 O180)n'
_symmetry_cell_setting           triclinic
_symmetry_space_group_name_H-M   'P 1'
_symmetry_Int_Tables_number      1
_space_group_name_Hall           'P 1'
loop_
_symmetry_equiv_pos_site_id
_symmetry_equiv_pos_as_xyz
1 x,y,z
_cell_length_a                   26.4487(2)
_cell_length_b                   26.4487(2)
_cell_length_c                   37.9212(5)
_cell_angle_alpha                90
_cell_angle_beta                 90
_cell_angle_gamma                90
_cell_volume                     26527.2
loop_
_atom_site_label
_atom_site_type_symbol
_atom_site_fract_x
_atom_site_fract_y
_atom_site_fract_z
Cu2 Cu 0.39146(7) 0.07163(7) 0.500000
O4 O 0.3978(3) 0.0193(3) 0.4648(2)
O12 O 0.3144(3) 0.0066(3) 0.4641(2)
Cu5 Cu 0.34332(5) 0.26756(5) 0.19428(4)
Cu6 Cu 0.82207(5) 0.11938(5) 0.35178(4)
O13 O 0.6216(3) 0.3565(3) 0.1754(2)
O14 O 0.4421(3) 0.3203(3) 0.1752(2)
O15 O 0.7104(3) 0.1371(3) 0.3348(2)
O17 O 0.3764(3) 0.1204(3) 0.4629(2)
O18 O 0.6708(3) 0.3257(3) 0.2184(2)
O19 O 0.4092(3) 0.2681(3) 0.2163(2)
O20 O 0.2197(3) 0.2274(3) 0.3310(2)
O21 O 0.2941(3) 0.1070(3) 0.4641(2)
O22 O 0.7602(3) 0.1001(3) 0.3746(2)
O23 O 0.1847(3) 0.1807(3) 0.3743(2)
C28 C 0.6286(4) 0.3331(3) 0.2042(3)
C29 C 0.7181(3) 0.1115(4) 0.3626(3)
C30 C 0.6396(5) 0.0015(5) 0.4537(3)
C31 C 0.2789(4) 0.1663(4) 0.4056(3)
H13 H 0.250553 0.154390 0.417494
C32 C 0.3324(4) 0.1255(4) 0.4511(3)
C33 C 0.6780(5) 0.0578(4) 0.4083(3)
H14 H 0.709537 0.044063 0.413293
C34 C 0.3268(4) 0.1573(5) 0.4188(3)
N7 N 0.5487(4) 0.1735(5) 0.3417(3)
C35 C 0.5830(4) 0.3092(5) 0.2204(3)
C36 C 0.4444(4) 0.2931(5) 0.2023(3)
N8 N 0.4683(4) 0.1664(5) 0.3700(3)
C37 C 0.6728(4) 0.0942(5) 0.3826(3)
C38 C 0.5358(4) 0.3138(4) 0.2053(3)
H15 H 0.531582 0.332751 0.184825
C39 C 0.6359(5) 0.0421(5) 0.4267(3)
C40 C 0.2212(5) 0.2008(5) 0.3588(3)
C41 C 0.2735(4) 0.1931(5) 0.3748(3)
N9 N 0.5575(4) 0.2257(5) 0.2948(3)
H16 H 0.588671 0.217225 0.297445
C42 C 0.3153(4) 0.2084(5) 0.3566(3)
H17 H 0.311387 0.224928 0.335172
C43 C 0.4953(4) 0.2905(5) 0.2206(3)
N10 N 0.4788(4) 0.2218(5) 0.3208(3)
C44 C 0.3693(5) 0.1731(6) 0.4002(4)
H18 H 0.401569 0.165681 0.408550
C45 C 0.5889(5) 0.0618(6) 0.4189(4)
H19 H 0.560426 0.049933 0.430665
C46 C 0.5889(5) 0.2804(6) 0.2501(4)
H20 H 0.620714 0.277473 0.260336
N11 N 0.4038(4) 0.2156(6) 0.3484(4)
H21 H 0.396243 0.239020 0.333608
C47 C 0.5007(5) 0.2608(5) 0.2499(4)
H22 H 0.472914 0.244255 0.259438
N12 N 0.5353(4) 0.1198(6) 0.3885(4)
H23 H 0.512627 0.107621 0.402342
C48 C 0.5482(4) 0.2556(6) 0.2653(4)
C49 C 0.4534(5) 0.2004(6) 0.3470(4)
C50 C 0.6262(5) 0.1138(5) 0.3748(4)
H24 H 0.622990 0.137287 0.356737
C51 C 0.3632(5) 0.1998(6) 0.3695(4)
C52 C 0.5841(4) 0.0993(6) 0.3934(4)
C53 C 0.5179(6) 0.1555(7) 0.3656(4)
C54 C 0.5266(5) 0.2080(6) 0.3196(4)
Cu7 Cu 0.29929(7) 0.05643(7) 0.500000
Cu10 Cu 0.73244(5) 0.34332(5) 0.19428(4)
Cu12 Cu 0.15668(5) 0.23244(5) 0.30572(4)
Cu14 Cu 0.76756(5) 0.15668(5) 0.30572(4)
Cu15 Cu 0.11938(5) 0.17793(5) 0.35178(4)
Cu18 Cu 0.67793(5) 0.38062(5) 0.14822(4)
Cu19 Cu 0.38062(5) 0.32207(5) 0.14822(4)
O26 O 0.8784(3) 0.1435(3) 0.3246(2)
O28 O 0.8203(3) 0.0579(3) 0.3248(2)
O29 O 0.3629(3) 0.2104(3) 0.1652(2)
O31 O 0.3978(3) 0.0193(3) 0.5352(2)
O32 O 0.3764(3) 0.1204(3) 0.5371(2)
O33 O 0.3257(3) 0.3292(3) 0.2184(2)
O36 O 0.2803(3) 0.2726(3) 0.1690(2)
O39 O 0.8193(3) 0.1847(3) 0.3743(2)
Cu1 Cu 0.70071(7) 0.94357(7) 0.500000
Cu3 Cu 0.65668(5) 0.73244(5) 0.19428(4)
Cu4 Cu 0.17793(5) 0.88062(5) 0.35178(4)
O1 O 0.3784(3) 0.6435(3) 0.1754(2)
O2 O 0.5579(3) 0.6797(3) 0.1752(2)
O3 O 0.2896(3) 0.8629(3) 0.3348(2)
O5 O 0.6236(3) 0.8796(3) 0.4629(2)
O6 O 0.3292(3) 0.6743(3) 0.2184(2)
O7 O 0.5908(3) 0.7319(3) 0.2163(2)
O8 O 0.7803(3) 0.7726(3) 0.3310(2)
O9 O 0.7059(3) 0.8930(3) 0.4641(2)
O10 O 0.2398(3) 0.8999(3) 0.3746(2)
O11 O 0.8153(3) 0.8193(3) 0.3743(2)
C1 C 0.3714(4) 0.6669(3) 0.2042(3)
C2 C 0.2819(3) 0.8885(4) 0.3626(3)
C3 C 0.3604(5) 0.9985(5) 0.4537(3)
C4 C 0.7211(4) 0.8337(4) 0.4056(3)
H1 H 0.749447 0.845610 0.417494
C5 C 0.6676(4) 0.8745(4) 0.4511(3)
C6 C 0.3220(5) 0.9422(4) 0.4083(3)
H2 H 0.290463 0.955937 0.413293
C7 C 0.6732(4) 0.8427(5) 0.4188(3)
N1 N 0.4513(4) 0.8265(5) 0.3417(3)
C8 C 0.4170(4) 0.6908(5) 0.2204(3)
C9 C 0.5556(4) 0.7069(5) 0.2023(3)
N2 N 0.5317(4) 0.8336(5) 0.3700(3)
C10 C 0.3272(4) 0.9058(5) 0.3826(3)
C11 C 0.4642(4) 0.6862(4) 0.2053(3)
H3 H 0.468418 0.667249 0.184825
C12 C 0.3641(5) 0.9579(5) 0.4267(3)
C13 C 0.7788(5) 0.7992(5) 0.3588(3)
C14 C 0.7265(4) 0.8069(5) 0.3748(3)
N3 N 0.4425(4) 0.7743(5) 0.2948(3)
H4 H 0.411329 0.782775 0.297445
C15 C 0.6847(4) 0.7916(5) 0.3566(3)
H5 H 0.688613 0.775072 0.335172
C16 C 0.5047(4) 0.7095(5) 0.2206(3)
N4 N 0.5212(4) 0.7782(5) 0.3208(3)
C17 C 0.6307(5) 0.8269(6) 0.4002(4)
H6 H 0.598431 0.834319 0.408550
C18 C 0.4111(5) 0.9382(6) 0.4189(4)
H7 H 0.439574 0.950067 0.430665
C19 C 0.4111(5) 0.7196(6) 0.2501(4)
H8 H 0.379286 0.722527 0.260336
N5 N 0.5962(4) 0.7844(6) 0.3484(4)
H9 H 0.603757 0.760980 0.333608
C20 C 0.4993(5) 0.7392(5) 0.2499(4)
H10 H 0.527086 0.755745 0.259438
N6 N 0.4647(4) 0.8802(6) 0.3885(4)
H11 H 0.487373 0.892379 0.402342
C21 C 0.4518(4) 0.7444(6) 0.2653(4)
C22 C 0.5466(5) 0.7996(6) 0.3470(4)
C23 C 0.3738(5) 0.8862(5) 0.3748(4)
H12 H 0.377010 0.862713 0.356737
C24 C 0.6368(5) 0.8002(6) 0.3695(4)
C25 C 0.4159(4) 0.9007(6) 0.3934(4)
C26 C 0.4821(6) 0.8445(7) 0.3656(4)
C27 C 0.4734(5) 0.7920(6) 0.3196(4)
O16 O 0.6022(3) 0.9807(3) 0.4648(2)
O24 O 0.6856(3) 0.9934(3) 0.4641(2)
Cu8 Cu 0.60854(7) 0.92837(7) 0.500000
Cu9 Cu 0.26756(5) 0.65668(5) 0.19428(4)
Cu11 Cu 0.84332(5) 0.76756(5) 0.30572(4)
Cu13 Cu 0.23244(5) 0.84332(5) 0.30572(4)
Cu16 Cu 0.88062(5) 0.82207(5) 0.35178(4)
Cu17 Cu 0.32207(5) 0.61938(5) 0.14822(4)
Cu20 Cu 0.61938(5) 0.67793(5) 0.14822(4)
O25 O 0.1216(3) 0.8565(3) 0.3246(2)
O27 O 0.1797(3) 0.9421(3) 0.3248(2)
O30 O 0.6371(3) 0.7896(3) 0.1652(2)
O34 O 0.6743(3) 0.6708(3) 0.2184(2)
O35 O 0.7197(3) 0.7274(3) 0.1690(2)
O37 O 0.7059(3) 0.8930(3) 0.5359(2)
O38 O 0.1807(3) 0.8153(3) 0.3743(2)
O40 O 0.6856(3) 0.9934(3) 0.5359(2)
O37_2 O 0.2941(3) 0.1070(3) 0.5359(2)
O40_2 O 0.3144(3) 0.0066(3) 0.5359(2)
O31_2 O 0.6022(3) 0.9807(3) 0.5352(2)
O32_2 O 0.6236(3) 0.8796(3) 0.5371(2)
Cu1_2 Cu 0.05643(7) 0.70071(7) 0.500000
O1_2 O 0.3565(3) 0.3784(3) 0.1754(2)
O2_2 O 0.3203(3) 0.5579(3) 0.1752(2)
O3_2 O 0.1371(3) 0.2896(3) 0.3348(2)
O5_2 O 0.1204(3) 0.6236(3) 0.4629(2)
O7_2 O 0.2681(3) 0.5908(3) 0.2163(2)
O8_2 O 0.2274(3) 0.7803(3) 0.3310(2)
O9_2 O 0.1070(3) 0.7059(3) 0.4641(2)
O10_2 O 0.1001(3) 0.2398(3) 0.3746(2)
C1_2 C 0.3331(3) 0.3714(4) 0.2042(3)
C2_2 C 0.1115(4) 0.2819(3) 0.3626(3)
C3_2 C 0.0015(5) 0.3604(5) 0.4537(3)
C4_2 C 0.1663(4) 0.7211(4) 0.4056(3)
H1_2 H 0.154390 0.749447 0.417494
C5_2 C 0.1255(4) 0.6676(4) 0.4511(3)
C6_2 C 0.0578(4) 0.3220(5) 0.4083(3)
H2_2 H 0.044063 0.290463 0.413293
C7_2 C 0.1573(5) 0.6732(4) 0.4188(3)
N1_2 N 0.1735(5) 0.4513(4) 0.3417(3)
C8_2 C 0.3092(5) 0.4170(4) 0.2204(3)
C9_2 C 0.2931(5) 0.5556(4) 0.2023(3)
N2_2 N 0.1664(5) 0.5317(4) 0.3700(3)
C10_2 C 0.0942(5) 0.3272(4) 0.3826(3)
C11_2 C 0.3138(4) 0.4642(4) 0.2053(3)
H3_2 H 0.332751 0.468418 0.184825
C12_2 C 0.0421(5) 0.3641(5) 0.4267(3)
C13_2 C 0.2008(5) 0.7788(5) 0.3588(3)
C14_2 C 0.1931(5) 0.7265(4) 0.3748(3)
N3_2 N 0.2257(5) 0.4425(4) 0.2948(3)
H4_2 H 0.217225 0.411329 0.297445
C15_2 C 0.2084(5) 0.6847(4) 0.3566(3)
H5_2 H 0.224928 0.688613 0.335172
C16_2 C 0.2905(5) 0.5047(4) 0.2206(3)
N4_2 N 0.2218(5) 0.5212(4) 0.3208(3)
C17_2 C 0.1731(6) 0.6307(5) 0.4002(4)
H6_2 H 0.165681 0.598431 0.408550
C18_2 C 0.0618(6) 0.4111(5) 0.4189(4)
H7_2 H 0.049933 0.439574 0.430665
C19_2 C 0.2804(6) 0.4111(5) 0.2501(4)
H8_2 H 0.277473 0.379286 0.260336
N5_2 N 0.2156(6) 0.5962(4) 0.3484(4)
H9_2 H 0.239020 0.603757 0.333608
C20_2 C 0.2608(5) 0.4993(5) 0.2499(4)
H10_2 H 0.244255 0.527086 0.259438
N6_2 N 0.1198(6) 0.4647(4) 0.3885(4)
H11_2 H 0.107621 0.487373 0.402342
C21_2 C 0.2556(6) 0.4518(4) 0.2653(4)
C22_2 C 0.2004(6) 0.5466(5) 0.3470(4)
C23_2 C 0.1138(5) 0.3738(5) 0.3748(4)
H12_2 H 0.137287 0.377010 0.356737
C24_2 C 0.1998(6) 0.6368(5) 0.3695(4)
C25_2 C 0.0993(6) 0.4159(4) 0.3934(4)
C26_2 C 0.1555(7) 0.4821(6) 0.3656(4)
C27_2 C 0.2080(6) 0.4734(5) 0.3196(4)
O16_2 O 0.0193(3) 0.6022(3) 0.4648(2)
O24_2 O 0.0066(3) 0.6856(3) 0.4641(2)
Cu8_2 Cu 0.07163(7) 0.60854(7) 0.500000
O25_2 O 0.1435(3) 0.1216(3) 0.3246(2)
O27_2 O 0.0579(3) 0.1797(3) 0.3248(2)
O30_2 O 0.2104(3) 0.6371(3) 0.1652(2)
O35_2 O 0.2726(3) 0.7197(3) 0.1690(2)
O37_3 O 0.1070(3) 0.7059(3) 0.5359(2)
O40_3 O 0.0066(3) 0.6856(3) 0.5359(2)
Cu2_2 Cu 0.92837(7) 0.39146(7) 0.500000
O4_2 O 0.9807(3) 0.3978(3) 0.4648(2)
O12_2 O 0.9934(3) 0.3144(3) 0.4641(2)
O13_2 O 0.6435(3) 0.6216(3) 0.1754(2)
O14_2 O 0.6797(3) 0.4421(3) 0.1752(2)
O15_2 O 0.8629(3) 0.7104(3) 0.3348(2)
O17_2 O 0.8796(3) 0.3764(3) 0.4629(2)
O19_2 O 0.7319(3) 0.4092(3) 0.2163(2)
O20_2 O 0.7726(3) 0.2197(3) 0.3310(2)
O21_2 O 0.8930(3) 0.2941(3) 0.4641(2)
O22_2 O 0.8999(3) 0.7602(3) 0.3746(2)
C28_2 C 0.6669(3) 0.6286(4) 0.2042(3)
C29_2 C 0.8885(4) 0.7181(3) 0.3626(3)
C30_2 C 0.9985(5) 0.6396(5) 0.4537(3)
C31_2 C 0.8337(4) 0.2789(4) 0.4056(3)
H13_2 H 0.845610 0.250553 0.417494
C32_2 C 0.8745(4) 0.3324(4) 0.4511(3)
C33_2 C 0.9422(4) 0.6780(5) 0.4083(3)
H14_2 H 0.955937 0.709537 0.413293
C34_2 C 0.8427(5) 0.3268(4) 0.4188(3)
N7_2 N 0.8265(5) 0.5487(4) 0.3417(3)
C35_2 C 0.6908(5) 0.5830(4) 0.2204(3)
C36_2 C 0.7069(5) 0.4444(4) 0.2023(3)
N8_2 N 0.8336(5) 0.4683(4) 0.3700(3)
C37_2 C 0.9058(5) 0.6728(4) 0.3826(3)
C38_2 C 0.6862(4) 0.5358(4) 0.2053(3)
H15_2 H 0.667249 0.531582 0.184825
C39_2 C 0.9579(5) 0.6359(5) 0.4267(3)
C40_2 C 0.7992(5) 0.2212(5) 0.3588(3)
C41_2 C 0.8069(5) 0.2735(4) 0.3748(3)
N9_2 N 0.7743(5) 0.5575(4) 0.2948(3)
H16_2 H 0.782775 0.588671 0.297445
C42_2 C 0.7916(5) 0.3153(4) 0.3566(3)
H17_2 H 0.775072 0.311387 0.335172
C43_2 C 0.7095(5) 0.4953(4) 0.2206(3)
N10_2 N 0.7782(5) 0.4788(4) 0.3208(3)
C44_2 C 0.8269(6) 0.3693(5) 0.4002(4)
H18_2 H 0.834319 0.401569 0.408550
C45_2 C 0.9382(6) 0.5889(5) 0.4189(4)
H19_2 H 0.950067 0.560426 0.430665
C46_2 C 0.7196(6) 0.5889(5) 0.2501(4)
H20_2 H 0.722527 0.620714 0.260336
N11_2 N 0.7844(6) 0.4038(4) 0.3484(4)
H21_2 H 0.760980 0.396243 0.333608
C47_2 C 0.7392(5) 0.5007(5) 0.2499(4)
H22_2 H 0.755745 0.472914 0.259438
N12_2 N 0.8802(6) 0.5353(4) 0.3885(4)
H23_2 H 0.892379 0.512627 0.402342
C48_2 C 0.7444(6) 0.5482(4) 0.2653(4)
C49_2 C 0.7996(6) 0.4534(5) 0.3470(4)
C50_2 C 0.8862(5) 0.6262(5) 0.3748(4)
H24_2 H 0.862713 0.622990 0.356737
C51_2 C 0.8002(6) 0.3632(5) 0.3695(4)
C52_2 C 0.9007(6) 0.5841(4) 0.3934(4)
C53_2 C 0.8445(7) 0.5179(6) 0.3656(4)
C54_2 C 0.7920(6) 0.5266(5) 0.3196(4)
Cu7_2 Cu 0.94357(7) 0.29929(7) 0.500000
O26_2 O 0.8565(3) 0.8784(3) 0.3246(2)
O28_2 O 0.9421(3) 0.8203(3) 0.3248(2)
O29_2 O 0.7896(3) 0.3629(3) 0.1652(2)
O31_3 O 0.9807(3) 0.3978(3) 0.5352(2)
O32_3 O 0.8796(3) 0.3764(3) 0.5371(2)
O36_2 O 0.7274(3) 0.2803(3) 0.1690(2)
O31_4 O 0.0193(3) 0.6022(3) 0.5352(2)
O32_4 O 0.1204(3) 0.6236(3) 0.5371(2)
O37_4 O 0.8930(3) 0.2941(3) 0.5359(2)
O40_4 O 0.9934(3) 0.3144(3) 0.5359(2)
Cu1_3 Cu 0.20071(7) 0.44357(7) 0.000000
Cu8_3 Cu 0.10854(7) 0.42837(7) 0.000000
O37_5 O 0.2059(3) 0.3930(3) 0.0359(2)
O40_5 O 0.1856(3) 0.4934(3) 0.0359(2)
Cu1_4 Cu 0.20071(7) 0.44357(7) 1.000000
Cu3_2 Cu 0.15668(5) 0.23244(5) 0.69428(4)
O2_3 O 0.0579(3) 0.1797(3) 0.6752(2)
O5_3 O 0.1236(3) 0.3796(3) 0.9629(2)
O7_3 O 0.0908(3) 0.2319(3) 0.7163(2)
O8_3 O 0.2803(3) 0.2726(3) 0.8310(2)
O9_3 O 0.2059(3) 0.3930(3) 0.9641(2)
O11_2 O 0.3153(3) 0.3193(3) 0.8743(2)
C4_3 C 0.2211(4) 0.3337(4) 0.9056(3)
H1_3 H 0.249447 0.345610 0.917494
C5_3 C 0.1676(4) 0.3745(4) 0.9511(3)
C7_3 C 0.1732(4) 0.3427(5) 0.9188(3)
C9_3 C 0.0556(4) 0.2069(5) 0.7023(3)
N2_3 N 0.0317(4) 0.3336(5) 0.8700(3)
C13_3 C 0.2788(5) 0.2992(5) 0.8588(3)
C14_3 C 0.2265(4) 0.3069(5) 0.8748(3)
C15_3 C 0.1847(4) 0.2916(5) 0.8566(3)
H5_3 H 0.188613 0.275072 0.835172
C16_3 C 0.0047(4) 0.2095(5) 0.7206(3)
N4_3 N 0.0212(4) 0.2782(5) 0.8208(3)
C17_3 C 0.1307(5) 0.3269(6) 0.9002(4)
H6_3 H 0.098431 0.334319 0.908550
N5_3 N 0.0962(4) 0.2844(6) 0.8484(4)
H9_3 H 0.103757 0.260980 0.833608
H10_3 H 0.027086 0.255745 0.759438
C22_3 C 0.0466(5) 0.2996(6) 0.8470(4)
C24_3 C 0.1368(5) 0.3002(6) 0.8695(4)
Cu6_2 Cu 0.32207(5) 0.61938(5) 0.85178(4)
O13_3 O 0.1216(3) 0.8565(3) 0.6754(2)
O15_3 O 0.2104(3) 0.6371(3) 0.8348(2)
O16_3 O 0.1022(3) 0.4807(3) 0.9648(2)
O18_2 O 0.1708(3) 0.8257(3) 0.7184(2)
O22_3 O 0.2602(3) 0.6001(3) 0.8746(2)
O24_3 O 0.1856(3) 0.4934(3) 0.9641(2)
C28_3 C 0.1286(4) 0.8331(3) 0.7042(3)
C29_3 C 0.2181(3) 0.6115(4) 0.8626(3)
C30_3 C 0.1396(5) 0.5015(5) 0.9537(3)
C33_3 C 0.1780(5) 0.5578(4) 0.9083(3)
H14_3 H 0.209537 0.544063 0.913293
N7_3 N 0.0487(4) 0.6735(5) 0.8417(3)
C35_3 C 0.0830(4) 0.8092(5) 0.7204(3)
C37_3 C 0.1728(4) 0.5942(5) 0.8826(3)
C38_3 C 0.0358(4) 0.8138(4) 0.7053(3)
H15_3 H 0.031582 0.832751 0.684825
C39_3 C 0.1359(5) 0.5421(5) 0.9267(3)
N9_3 N 0.0575(4) 0.7257(5) 0.7948(3)
H16_3 H 0.088671 0.717225 0.797445
C45_3 C 0.0889(5) 0.5618(6) 0.9189(4)
H19_3 H 0.060426 0.549933 0.930665
C46_3 C 0.0889(5) 0.7804(6) 0.7501(4)
H20_3 H 0.120714 0.777473 0.760336
C47_3 C 0.0007(5) 0.7608(5) 0.7499(4)
N12_3 N 0.0353(4) 0.6198(6) 0.8885(4)
H23_3 H 0.012627 0.607621 0.902342
C48_3 C 0.0482(4) 0.7556(6) 0.7653(4)
C50_3 C 0.1262(5) 0.6138(5) 0.8748(4)
H24_3 H 0.122990 0.637287 0.856737
C52_3 C 0.0841(4) 0.5993(6) 0.8934(4)
C53_3 C 0.0179(6) 0.6555(7) 0.8656(4)
C54_3 C 0.0266(5) 0.7080(6) 0.8196(4)
Cu8_4 Cu 0.10854(7) 0.42837(7) 1.000000
Cu10_2 Cu 0.23244(5) 0.84332(5) 0.69428(4)
Cu11_2 Cu 0.34332(5) 0.26756(5) 0.80572(4)
Cu14_2 Cu 0.26756(5) 0.65668(5) 0.80572(4)
Cu16_2 Cu 0.38062(5) 0.32207(5) 0.85178(4)
Cu18_2 Cu 0.17793(5) 0.88062(5) 0.64822(4)
Cu20_2 Cu 0.11938(5) 0.17793(5) 0.64822(4)
O26_3 O 0.3784(3) 0.6435(3) 0.8246(2)
O28_3 O 0.3203(3) 0.5579(3) 0.8248(2)
O30_3 O 0.1371(3) 0.2896(3) 0.6652(2)
O34_2 O 0.1743(3) 0.1708(3) 0.7184(2)
O35_3 O 0.2197(3) 0.2274(3) 0.6690(2)
O39_2 O 0.3193(3) 0.6847(3) 0.8743(2)
Cu2_3 Cu 0.89146(7) 0.57163(7) 0.000000
Cu7_3 Cu 0.79929(7) 0.55643(7) 0.000000
O31_5 O 0.8978(3) 0.5193(3) 0.0352(2)
O32_5 O 0.8764(3) 0.6204(3) 0.0371(2)
Cu2_4 Cu 0.89146(7) 0.57163(7) 1.000000
Cu4_2 Cu 0.67793(5) 0.38062(5) 0.85178(4)
O1_3 O 0.8784(3) 0.1435(3) 0.6754(2)
O3_3 O 0.7896(3) 0.3629(3) 0.8348(2)
O4_3 O 0.8978(3) 0.5193(3) 0.9648(2)
O6_2 O 0.8292(3) 0.1743(3) 0.7184(2)
O10_3 O 0.7398(3) 0.3999(3) 0.8746(2)
O12_3 O 0.8144(3) 0.5066(3) 0.9641(2)
C1_3 C 0.8714(4) 0.1669(3) 0.7042(3)
C2_3 C 0.7819(3) 0.3885(4) 0.8626(3)
C3_3 C 0.8604(5) 0.4985(5) 0.9537(3)
C6_3 C 0.8220(5) 0.4422(4) 0.9083(3)
H2_3 H 0.790463 0.455937 0.913293
N1_3 N 0.9513(4) 0.3265(5) 0.8417(3)
C8_3 C 0.9170(4) 0.1908(5) 0.7204(3)
C10_3 C 0.8272(4) 0.4058(5) 0.8826(3)
C11_3 C 0.9642(4) 0.1862(4) 0.7053(3)
H3_3 H 0.968418 0.167249 0.684825
C12_3 C 0.8641(5) 0.4579(5) 0.9267(3)
N3_3 N 0.9425(4) 0.2743(5) 0.7948(3)
H4_3 H 0.911329 0.282775 0.797445
C18_3 C 0.9111(5) 0.4382(6) 0.9189(4)
H7_3 H 0.939574 0.450067 0.930665
C19_3 C 0.9111(5) 0.2196(6) 0.7501(4)
H8_3 H 0.879286 0.222527 0.760336
C20_3 C 0.9993(5) 0.2392(5) 0.7499(4)
N6_3 N 0.9647(4) 0.3802(6) 0.8885(4)
H11_3 H 0.987373 0.392379 0.902342
C21_3 C 0.9518(4) 0.2444(6) 0.7653(4)
C23_3 C 0.8738(5) 0.3862(5) 0.8748(4)
H12_3 H 0.877010 0.362713 0.856737
C25_3 C 0.9159(4) 0.4007(6) 0.8934(4)
C26_3 C 0.9821(6) 0.3445(7) 0.8656(4)
C27_3 C 0.9734(5) 0.2920(6) 0.8196(4)
Cu5_2 Cu 0.84332(5) 0.76756(5) 0.69428(4)
O14_3 O 0.9421(3) 0.8203(3) 0.6752(2)
O17_3 O 0.8764(3) 0.6204(3) 0.9629(2)
O19_3 O 0.9092(3) 0.7681(3) 0.7163(2)
O20_3 O 0.7197(3) 0.7274(3) 0.8310(2)
O21_3 O 0.7941(3) 0.6070(3) 0.9641(2)
O23_2 O 0.6847(3) 0.6807(3) 0.8743(2)
C31_3 C 0.7789(4) 0.6663(4) 0.9056(3)
H13_3 H 0.750553 0.654390 0.917494
C32_3 C 0.8324(4) 0.6255(4) 0.9511(3)
C34_3 C 0.8268(4) 0.6573(5) 0.9188(3)
C36_3 C 0.9444(4) 0.7931(5) 0.7023(3)
N8_3 N 0.9683(4) 0.6664(5) 0.8700(3)
C40_3 C 0.7212(5) 0.7008(5) 0.8588(3)
C41_3 C 0.7735(4) 0.6931(5) 0.8748(3)
C42_3 C 0.8153(4) 0.7084(5) 0.8566(3)
H17_3 H 0.811387 0.724928 0.835172
C43_3 C 0.9953(4) 0.7905(5) 0.7206(3)
N10_3 N 0.9788(4) 0.7218(5) 0.8208(3)
C44_3 C 0.8693(5) 0.6731(6) 0.9002(4)
H18_3 H 0.901569 0.665681 0.908550
N11_3 N 0.9038(4) 0.7156(6) 0.8484(4)
H21_3 H 0.896243 0.739020 0.833608
H22_3 H 0.972914 0.744255 0.759438
C49_3 C 0.9534(5) 0.7004(6) 0.8470(4)
C51_3 C 0.8632(5) 0.6998(6) 0.8695(4)
Cu7_4 Cu 0.79929(7) 0.55643(7) 1.000000
Cu9_2 Cu 0.76756(5) 0.15668(5) 0.69428(4)
Cu12_2 Cu 0.65668(5) 0.73244(5) 0.80572(4)
Cu13_2 Cu 0.73244(5) 0.34332(5) 0.80572(4)
Cu15_2 Cu 0.61938(5) 0.67793(5) 0.85178(4)
Cu17_2 Cu 0.82207(5) 0.11938(5) 0.64822(4)
Cu19_2 Cu 0.88062(5) 0.82207(5) 0.64822(4)
O25_3 O 0.6216(3) 0.3565(3) 0.8246(2)
O27_3 O 0.6797(3) 0.4421(3) 0.8248(2)
O29_3 O 0.8629(3) 0.7104(3) 0.6652(2)
O33_2 O 0.8257(3) 0.8292(3) 0.7184(2)
O36_3 O 0.7803(3) 0.7726(3) 0.6690(2)
O38_2 O 0.6807(3) 0.3153(3) 0.8743(2)
O31_6 O 0.1022(3) 0.4807(3) 0.0352(2)
O32_6 O 0.1236(3) 0.3796(3) 0.0371(2)
O37_6 O 0.7941(3) 0.6070(3) 0.0359(2)
O40_6 O 0.8144(3) 0.5066(3) 0.0359(2)
Cu1_5 Cu 0.55643(7) 0.20071(7) 0.000000
Cu8_5 Cu 0.57163(7) 0.10854(7) 0.000000
O37_7 O 0.6070(3) 0.2059(3) 0.0359(2)
O40_7 O 0.5066(3) 0.1856(3) 0.0359(2)
Cu1_6 Cu 0.55643(7) 0.20071(7) 1.000000
O2_4 O 0.8203(3) 0.0579(3) 0.6752(2)
O5_4 O 0.6204(3) 0.1236(3) 0.9629(2)
O7_4 O 0.7681(3) 0.0908(3) 0.7163(2)
O8_4 O 0.7274(3) 0.2803(3) 0.8310(2)
O9_4 O 0.6070(3) 0.2059(3) 0.9641(2)
C4_4 C 0.6663(4) 0.2211(4) 0.9056(3)
H1_4 H 0.654390 0.249447 0.917494
C5_4 C 0.6255(4) 0.1676(4) 0.9511(3)
C7_4 C 0.6573(5) 0.1732(4) 0.9188(3)
C9_4 C 0.7931(5) 0.0556(4) 0.7023(3)
N2_4 N 0.6664(5) 0.0317(4) 0.8700(3)
C13_4 C 0.7008(5) 0.2788(5) 0.8588(3)
C14_4 C 0.6931(5) 0.2265(4) 0.8748(3)
C15_4 C 0.7084(5) 0.1847(4) 0.8566(3)
H5_4 H 0.724928 0.188613 0.835172
C16_4 C 0.7905(5) 0.0047(4) 0.7206(3)
N4_4 N 0.7218(5) 0.0212(4) 0.8208(3)
C17_4 C 0.6731(6) 0.1307(5) 0.9002(4)
H6_4 H 0.665681 0.098431 0.908550
N5_4 N 0.7156(6) 0.0962(4) 0.8484(4)
H9_4 H 0.739020 0.103757 0.833608
H10_4 H 0.744255 0.027086 0.759438
C22_4 C 0.7004(6) 0.0466(5) 0.8470(4)
C24_4 C 0.6998(6) 0.1368(5) 0.8695(4)
O13_4 O 0.1435(3) 0.1216(3) 0.6754(2)
O15_4 O 0.3629(3) 0.2104(3) 0.8348(2)
O16_4 O 0.5193(3) 0.1022(3) 0.9648(2)
O22_4 O 0.3999(3) 0.2602(3) 0.8746(2)
O24_4 O 0.5066(3) 0.1856(3) 0.9641(2)
C28_4 C 0.1669(3) 0.1286(4) 0.7042(3)
C29_4 C 0.3885(4) 0.2181(3) 0.8626(3)
C30_4 C 0.4985(5) 0.1396(5) 0.9537(3)
C33_4 C 0.4422(4) 0.1780(5) 0.9083(3)
H14_4 H 0.455937 0.209537 0.913293
N7_4 N 0.3265(5) 0.0487(4) 0.8417(3)
C35_4 C 0.1908(5) 0.0830(4) 0.7204(3)
C37_4 C 0.4058(5) 0.1728(4) 0.8826(3)
C38_4 C 0.1862(4) 0.0358(4) 0.7053(3)
H15_4 H 0.167249 0.031582 0.684825
C39_4 C 0.4579(5) 0.1359(5) 0.9267(3)
N9_4 N 0.2743(5) 0.0575(4) 0.7948(3)
H16_4 H 0.282775 0.088671 0.797445
C45_4 C 0.4382(6) 0.0889(5) 0.9189(4)
H19_4 H 0.450067 0.060426 0.930665
C46_4 C 0.2196(6) 0.0889(5) 0.7501(4)
H20_4 H 0.222527 0.120714 0.760336
C47_4 C 0.2392(5) 0.0007(5) 0.7499(4)
N12_4 N 0.3802(6) 0.0353(4) 0.8885(4)
H23_4 H 0.392379 0.012627 0.902342
C48_4 C 0.2444(6) 0.0482(4) 0.7653(4)
C50_4 C 0.3862(5) 0.1262(5) 0.8748(4)
H24_4 H 0.362713 0.122990 0.856737
C52_4 C 0.4007(6) 0.0841(4) 0.8934(4)
C53_4 C 0.3445(7) 0.0179(6) 0.8656(4)
C54_4 C 0.2920(6) 0.0266(5) 0.8196(4)
Cu8_6 Cu 0.57163(7) 0.10854(7) 1.000000
O26_4 O 0.3565(3) 0.3784(3) 0.8246(2)
O28_4 O 0.4421(3) 0.3203(3) 0.8248(2)
O30_4 O 0.7104(3) 0.1371(3) 0.6652(2)
O35_4 O 0.7726(3) 0.2197(3) 0.6690(2)
Cu2_5 Cu 0.42837(7) 0.89146(7) 0.000000
Cu7_5 Cu 0.44357(7) 0.79929(7) 0.000000
O31_7 O 0.4807(3) 0.8978(3) 0.0352(2)
O32_7 O 0.3796(3) 0.8764(3) 0.0371(2)
Cu2_6 Cu 0.42837(7) 0.89146(7) 1.000000
O1_4 O 0.8565(3) 0.8784(3) 0.6754(2)
O3_4 O 0.6371(3) 0.7896(3) 0.8348(2)
O4_4 O 0.4807(3) 0.8978(3) 0.9648(2)
O10_4 O 0.6001(3) 0.7398(3) 0.8746(2)
O12_4 O 0.4934(3) 0.8144(3) 0.9641(2)
C1_4 C 0.8331(3) 0.8714(4) 0.7042(3)
C2_4 C 0.6115(4) 0.7819(3) 0.8626(3)
C3_4 C 0.5015(5) 0.8604(5) 0.9537(3)
C6_4 C 0.5578(4) 0.8220(5) 0.9083(3)
H2_4 H 0.544063 0.790463 0.913293
N1_4 N 0.6735(5) 0.9513(4) 0.8417(3)
C8_4 C 0.8092(5) 0.9170(4) 0.7204(3)
C10_4 C 0.5942(5) 0.8272(4) 0.8826(3)
C11_4 C 0.8138(4) 0.9642(4) 0.7053(3)
H3_4 H 0.832751 0.968418 0.684825
C12_4 C 0.5421(5) 0.8641(5) 0.9267(3)
N3_4 N 0.7257(5) 0.9425(4) 0.7948(3)
H4_4 H 0.717225 0.911329 0.797445
C18_4 C 0.5618(6) 0.9111(5) 0.9189(4)
H7_4 H 0.549933 0.939574 0.930665
C19_4 C 0.7804(6) 0.9111(5) 0.7501(4)
H8_4 H 0.777473 0.879286 0.760336
C20_4 C 0.7608(5) 0.9993(5) 0.7499(4)
N6_4 N 0.6198(6) 0.9647(4) 0.8885(4)
H11_4 H 0.607621 0.987373 0.902342
C21_4 C 0.7556(6) 0.9518(4) 0.7653(4)
C23_4 C 0.6138(5) 0.8738(5) 0.8748(4)
H12_4 H 0.637287 0.877010 0.856737
C25_4 C 0.5993(6) 0.9159(4) 0.8934(4)
C26_4 C 0.6555(7) 0.9821(6) 0.8656(4)
C27_4 C 0.7080(6) 0.9734(5) 0.8196(4)
O14_4 O 0.1797(3) 0.9421(3) 0.6752(2)
O17_4 O 0.3796(3) 0.8764(3) 0.9629(2)
O19_4 O 0.2319(3) 0.9092(3) 0.7163(2)
O20_4 O 0.2726(3) 0.7197(3) 0.8310(2)
O21_4 O 0.3930(3) 0.7941(3) 0.9641(2)
C31_4 C 0.3337(4) 0.7789(4) 0.9056(3)
H13_4 H 0.345610 0.750553 0.917494
C32_4 C 0.3745(4) 0.8324(4) 0.9511(3)
C34_4 C 0.3427(5) 0.8268(4) 0.9188(3)
C36_4 C 0.2069(5) 0.9444(4) 0.7023(3)
N8_4 N 0.3336(5) 0.9683(4) 0.8700(3)
C40_4 C 0.2992(5) 0.7212(5) 0.8588(3)
C41_4 C 0.3069(5) 0.7735(4) 0.8748(3)
C42_4 C 0.2916(5) 0.8153(4) 0.8566(3)
H17_4 H 0.275072 0.811387 0.835172
C43_4 C 0.2095(5) 0.9953(4) 0.7206(3)
N10_4 N 0.2782(5) 0.9788(4) 0.8208(3)
C44_4 C 0.3269(6) 0.8693(5) 0.9002(4)
H18_4 H 0.334319 0.901569 0.908550
N11_4 N 0.2844(6) 0.9038(4) 0.8484(4)
H21_4 H 0.260980 0.896243 0.833608
H22_4 H 0.255745 0.972914 0.759438
C49_4 C 0.2996(6) 0.9534(5) 0.8470(4)
C51_4 C 0.3002(6) 0.8632(5) 0.8695(4)
Cu7_6 Cu 0.44357(7) 0.79929(7) 1.000000
O25_4 O 0.6435(3) 0.6216(3) 0.8246(2)
O27_4 O 0.5579(3) 0.6797(3) 0.8248(2)
O29_4 O 0.2896(3) 0.8629(3) 0.6652(2)
O36_4 O 0.2274(3) 0.7803(3) 0.6690(2)
O31_8 O 0.5193(3) 0.1022(3) 0.0352(2)
O32_8 O 0.6204(3) 0.1236(3) 0.0371(2)
O37_8 O 0.3930(3) 0.7941(3) 0.0359(2)
O40_8 O 0.4934(3) 0.8144(3) 0.0359(2)
O6_3 O 0.6708(3) 0.3257(3) 0.7816(2)
O7_5 O 0.4092(3) 0.2681(3) 0.7837(2)
O10_5 O 0.7602(3) 0.1001(3) 0.6254(2)
O11_3 O 0.1847(3) 0.1807(3) 0.6257(2)
C1_5 C 0.6286(4) 0.3331(3) 0.7958(3)
C2_5 C 0.7181(3) 0.1115(4) 0.6374(3)
C3_5 C 0.6396(5) 0.0015(5) 0.5463(3)
C4_5 C 0.2789(4) 0.1663(4) 0.5944(3)
H1_5 H 0.250553 0.154390 0.582506
C5_5 C 0.3324(4) 0.1255(4) 0.5489(3)
C6_5 C 0.6780(5) 0.0578(4) 0.5917(3)
H2_5 H 0.709537 0.044063 0.586707
C7_5 C 0.3268(4) 0.1573(5) 0.5812(3)
N1_5 N 0.5487(4) 0.1735(5) 0.6583(3)
C8_5 C 0.5830(4) 0.3092(5) 0.7796(3)
C9_5 C 0.4444(4) 0.2931(5) 0.7977(3)
N2_5 N 0.4683(4) 0.1664(5) 0.6300(3)
C10_5 C 0.6728(4) 0.0942(5) 0.6174(3)
C11_5 C 0.5358(4) 0.3138(4) 0.7947(3)
H3_5 H 0.531582 0.332751 0.815175
C12_5 C 0.6359(5) 0.0421(5) 0.5733(3)
C13_5 C 0.2212(5) 0.2008(5) 0.6412(3)
C14_5 C 0.2735(4) 0.1931(5) 0.6252(3)
N3_5 N 0.5575(4) 0.2257(5) 0.7052(3)
H4_5 H 0.588671 0.217225 0.702555
C15_5 C 0.3153(4) 0.2084(5) 0.6434(3)
H5_5 H 0.311387 0.224928 0.664828
C16_5 C 0.4953(4) 0.2905(5) 0.7794(3)
N4_5 N 0.4788(4) 0.2218(5) 0.6792(3)
C17_5 C 0.3693(5) 0.1731(6) 0.5998(4)
H6_5 H 0.401569 0.165681 0.591450
C18_5 C 0.5889(5) 0.0618(6) 0.5811(4)
H7_5 H 0.560426 0.049933 0.569335
C19_5 C 0.5889(5) 0.2804(6) 0.7499(4)
H8_5 H 0.620714 0.277473 0.739664
N5_5 N 0.4038(4) 0.2156(6) 0.6516(4)
H9_5 H 0.396243 0.239020 0.666392
C20_5 C 0.5007(5) 0.2608(5) 0.7501(4)
H10_5 H 0.472914 0.244255 0.740562
N6_5 N 0.5353(4) 0.1198(6) 0.6115(4)
H11_5 H 0.512627 0.107621 0.597658
C21_5 C 0.5482(4) 0.2556(6) 0.7347(4)
C22_5 C 0.4534(5) 0.2004(6) 0.6530(4)
C23_5 C 0.6262(5) 0.1138(5) 0.6252(4)
H12_5 H 0.622990 0.137287 0.643263
C24_5 C 0.3632(5) 0.1998(6) 0.6305(4)
C25_5 C 0.5841(4) 0.0993(6) 0.6066(4)
C26_5 C 0.5179(6) 0.1555(7) 0.6344(4)
C27_5 C 0.5266(5) 0.2080(6) 0.6804(4)
O34_3 O 0.3257(3) 0.3292(3) 0.7816(2)
O38_3 O 0.8193(3) 0.1847(3) 0.6257(2)
O18_3 O 0.3292(3) 0.6743(3) 0.7816(2)
O19_5 O 0.5908(3) 0.7319(3) 0.7837(2)
O22_5 O 0.2398(3) 0.8999(3) 0.6254(2)
O23_3 O 0.8153(3) 0.8193(3) 0.6257(2)
C28_5 C 0.3714(4) 0.6669(3) 0.7958(3)
C29_5 C 0.2819(3) 0.8885(4) 0.6374(3)
C30_5 C 0.3604(5) 0.9985(5) 0.5463(3)
C31_5 C 0.7211(4) 0.8337(4) 0.5944(3)
H13_5 H 0.749447 0.845610 0.582506
C32_5 C 0.6676(4) 0.8745(4) 0.5489(3)
C33_5 C 0.3220(5) 0.9422(4) 0.5917(3)
H14_5 H 0.290463 0.955937 0.586707
C34_5 C 0.6732(4) 0.8427(5) 0.5812(3)
N7_5 N 0.4513(4) 0.8265(5) 0.6583(3)
C35_5 C 0.4170(4) 0.6908(5) 0.7796(3)
C36_5 C 0.5556(4) 0.7069(5) 0.7977(3)
N8_5 N 0.5317(4) 0.8336(5) 0.6300(3)
C37_5 C 0.3272(4) 0.9058(5) 0.6174(3)
C38_5 C 0.4642(4) 0.6862(4) 0.7947(3)
H15_5 H 0.468418 0.667249 0.815175
C39_5 C 0.3641(5) 0.9579(5) 0.5733(3)
C40_5 C 0.7788(5) 0.7992(5) 0.6412(3)
C41_5 C 0.7265(4) 0.8069(5) 0.6252(3)
N9_5 N 0.4425(4) 0.7743(5) 0.7052(3)
H16_5 H 0.411329 0.782775 0.702555
C42_5 C 0.6847(4) 0.7916(5) 0.6434(3)
H17_5 H 0.688613 0.775072 0.664828
C43_5 C 0.5047(4) 0.7095(5) 0.7794(3)
N10_5 N 0.5212(4) 0.7782(5) 0.6792(3)
C44_5 C 0.6307(5) 0.8269(6) 0.5998(4)
H18_5 H 0.598431 0.834319 0.591450
C45_5 C 0.4111(5) 0.9382(6) 0.5811(4)
H19_5 H 0.439574 0.950067 0.569335
C46_5 C 0.4111(5) 0.7196(6) 0.7499(4)
H20_5 H 0.379286 0.722527 0.739664
N11_5 N 0.5962(4) 0.7844(6) 0.6516(4)
H21_5 H 0.603757 0.760980 0.666392
C47_5 C 0.4993(5) 0.7392(5) 0.7501(4)
H22_5 H 0.527086 0.755745 0.740562
N12_5 N 0.4647(4) 0.8802(6) 0.6115(4)
H23_5 H 0.487373 0.892379 0.597658
C48_5 C 0.4518(4) 0.7444(6) 0.7347(4)
C49_5 C 0.5466(5) 0.7996(6) 0.6530(4)
C50_5 C 0.3738(5) 0.8862(5) 0.6252(4)
H24_5 H 0.377010 0.862713 0.643263
C51_5 C 0.6368(5) 0.8002(6) 0.6305(4)
C52_5 C 0.4159(4) 0.9007(6) 0.6066(4)
C53_5 C 0.4821(6) 0.8445(7) 0.6344(4)
C54_5 C 0.4734(5) 0.7920(6) 0.6804(4)
O33_3 O 0.6743(3) 0.6708(3) 0.7816(2)
O39_3 O 0.1807(3) 0.8153(3) 0.6257(2)
O19_6 O 0.2681(3) 0.5908(3) 0.7837(2)
O22_6 O 0.1001(3) 0.2398(3) 0.6254(2)
C28_6 C 0.3331(3) 0.3714(4) 0.7958(3)
C29_6 C 0.1115(4) 0.2819(3) 0.6374(3)
C30_6 C 0.0015(5) 0.3604(5) 0.5463(3)
C31_6 C 0.1663(4) 0.7211(4) 0.5944(3)
H13_6 H 0.154390 0.749447 0.582506
C32_6 C 0.1255(4) 0.6676(4) 0.5489(3)
C33_6 C 0.0578(4) 0.3220(5) 0.5917(3)
H14_6 H 0.044063 0.290463 0.586707
C34_6 C 0.1573(5) 0.6732(4) 0.5812(3)
N7_6 N 0.1735(5) 0.4513(4) 0.6583(3)
C35_6 C 0.3092(5) 0.4170(4) 0.7796(3)
C36_6 C 0.2931(5) 0.5556(4) 0.7977(3)
N8_6 N 0.1664(5) 0.5317(4) 0.6300(3)
C37_6 C 0.0942(5) 0.3272(4) 0.6174(3)
C38_6 C 0.3138(4) 0.4642(4) 0.7947(3)
H15_6 H 0.332751 0.468418 0.815175
C39_6 C 0.0421(5) 0.3641(5) 0.5733(3)
C40_6 C 0.2008(5) 0.7788(5) 0.6412(3)
C41_6 C 0.1931(5) 0.7265(4) 0.6252(3)
N9_6 N 0.2257(5) 0.4425(4) 0.7052(3)
H16_6 H 0.217225 0.411329 0.702555
C42_6 C 0.2084(5) 0.6847(4) 0.6434(3)
H17_6 H 0.224928 0.688613 0.664828
C43_6 C 0.2905(5) 0.5047(4) 0.7794(3)
N10_6 N 0.2218(5) 0.5212(4) 0.6792(3)
C44_6 C 0.1731(6) 0.6307(5) 0.5998(4)
H18_6 H 0.165681 0.598431 0.591450
C45_6 C 0.0618(6) 0.4111(5) 0.5811(4)
H19_6 H 0.049933 0.439574 0.569335
C46_6 C 0.2804(6) 0.4111(5) 0.7499(4)
H20_6 H 0.277473 0.379286 0.739664
N11_6 N 0.2156(6) 0.5962(4) 0.6516(4)
H21_6 H 0.239020 0.603757 0.666392
C47_6 C 0.2608(5) 0.4993(5) 0.7501(4)
H22_6 H 0.244255 0.527086 0.740562
N12_6 N 0.1198(6) 0.4647(4) 0.6115(4)
H23_6 H 0.107621 0.487373 0.597658
C48_6 C 0.2556(6) 0.4518(4) 0.7347(4)
C49_6 C 0.2004(6) 0.5466(5) 0.6530(4)
C50_6 C 0.1138(5) 0.3738(5) 0.6252(4)
H24_6 H 0.137287 0.377010 0.643263
C51_6 C 0.1998(6) 0.6368(5) 0.6305(4)
C52_6 C 0.0993(6) 0.4159(4) 0.6066(4)
C53_6 C 0.1555(7) 0.4821(6) 0.6344(4)
C54_6 C 0.2080(6) 0.4734(5) 0.6804(4)
O7_6 O 0.7319(3) 0.4092(3) 0.7837(2)
O10_6 O 0.8999(3) 0.7602(3) 0.6254(2)
C1_6 C 0.6669(3) 0.6286(4) 0.7958(3)
C2_6 C 0.8885(4) 0.7181(3) 0.6374(3)
C3_6 C 0.9985(5) 0.6396(5) 0.5463(3)
C4_6 C 0.8337(4) 0.2789(4) 0.5944(3)
H1_6 H 0.845610 0.250553 0.582506
C5_6 C 0.8745(4) 0.3324(4) 0.5489(3)
C6_6 C 0.9422(4) 0.6780(5) 0.5917(3)
H2_6 H 0.955937 0.709537 0.586707
C7_6 C 0.8427(5) 0.3268(4) 0.5812(3)
N1_6 N 0.8265(5) 0.5487(4) 0.6583(3)
C8_6 C 0.6908(5) 0.5830(4) 0.7796(3)
C9_6 C 0.7069(5) 0.4444(4) 0.7977(3)
N2_6 N 0.8336(5) 0.4683(4) 0.6300(3)
C10_6 C 0.9058(5) 0.6728(4) 0.6174(3)
C11_6 C 0.6862(4) 0.5358(4) 0.7947(3)
H3_6 H 0.667249 0.531582 0.815175
C12_6 C 0.9579(5) 0.6359(5) 0.5733(3)
C13_6 C 0.7992(5) 0.2212(5) 0.6412(3)
C14_6 C 0.8069(5) 0.2735(4) 0.6252(3)
N3_6 N 0.7743(5) 0.5575(4) 0.7052(3)
H4_6 H 0.782775 0.588671 0.702555
C15_6 C 0.7916(5) 0.3153(4) 0.6434(3)
H5_6 H 0.775072 0.311387 0.664828
C16_6 C 0.7095(5) 0.4953(4) 0.7794(3)
N4_6 N 0.7782(5) 0.4788(4) 0.6792(3)
C17_6 C 0.8269(6) 0.3693(5) 0.5998(4)
H6_6 H 0.834319 0.401569 0.591450
C18_6 C 0.9382(6) 0.5889(5) 0.5811(4)
H7_6 H 0.950067 0.560426 0.569335
C19_6 C 0.7196(6) 0.5889(5) 0.7499(4)
H8_6 H 0.722527 0.620714 0.739664
N5_6 N 0.7844(6) 0.4038(4) 0.6516(4)
H9_6 H 0.760980 0.396243 0.666392
C20_6 C 0.7392(5) 0.5007(5) 0.7501(4)
H10_6 H 0.755745 0.472914 0.740562
N6_6 N 0.8802(6) 0.5353(4) 0.6115(4)
H11_6 H 0.892379 0.512627 0.597658
C21_6 C 0.7444(6) 0.5482(4) 0.7347(4)
C22_6 C 0.7996(6) 0.4534(5) 0.6530(4)
C23_6 C 0.8862(5) 0.6262(5) 0.6252(4)
H12_6 H 0.862713 0.622990 0.643263
C24_6 C 0.8002(6) 0.3632(5) 0.6305(4)
C25_6 C 0.9007(6) 0.5841(4) 0.6066(4)
C26_6 C 0.8445(7) 0.5179(6) 0.6344(4)
C27_6 C 0.7920(6) 0.5266(5) 0.6804(4)
O6_4 O 0.1708(3) 0.8257(3) 0.2816(2)
O10_7 O 0.2602(3) 0.6001(3) 0.1254(2)
C1_7 C 0.1286(4) 0.8331(3) 0.2958(3)
C2_7 C 0.2181(3) 0.6115(4) 0.1374(3)
C3_7 C 0.1396(5) 0.5015(5) 0.0463(3)
C6_7 C 0.1780(5) 0.5578(4) 0.0917(3)
H2_7 H 0.209537 0.544063 0.086707
N1_7 N 0.0487(4) 0.6735(5) 0.1583(3)
C8_7 C 0.0830(4) 0.8092(5) 0.2796(3)
C10_7 C 0.1728(4) 0.5942(5) 0.1174(3)
C11_7 C 0.0358(4) 0.8138(4) 0.2947(3)
H3_7 H 0.031582 0.832751 0.315175
C12_7 C 0.1359(5) 0.5421(5) 0.0733(3)
N3_7 N 0.0575(4) 0.7257(5) 0.2052(3)
H4_7 H 0.088671 0.717225 0.202555
C18_7 C 0.0889(5) 0.5618(6) 0.0811(4)
H7_7 H 0.060426 0.549933 0.069335
C19_7 C 0.0889(5) 0.7804(6) 0.2499(4)
H8_7 H 0.120714 0.777473 0.239664
C20_7 C 0.0007(5) 0.7608(5) 0.2501(4)
N6_7 N 0.0353(4) 0.6198(6) 0.1115(4)
H11_7 H 0.012627 0.607621 0.097658
C21_7 C 0.0482(4) 0.7556(6) 0.2347(4)
C23_7 C 0.1262(5) 0.6138(5) 0.1252(4)
H12_7 H 0.122990 0.637287 0.143263
C25_7 C 0.0841(4) 0.5993(6) 0.1066(4)
C26_7 C 0.0179(6) 0.6555(7) 0.1344(4)
C27_7 C 0.0266(5) 0.7080(6) 0.1804(4)
O19_7 O 0.0908(3) 0.2319(3) 0.2837(2)
O23_4 O 0.3153(3) 0.3193(3) 0.1257(2)
C31_7 C 0.2211(4) 0.3337(4) 0.0944(3)
H13_7 H 0.249447 0.345610 0.082506
C32_7 C 0.1676(4) 0.3745(4) 0.0489(3)
C34_7 C 0.1732(4) 0.3427(5) 0.0812(3)
C36_7 C 0.0556(4) 0.2069(5) 0.2977(3)
N8_7 N 0.0317(4) 0.3336(5) 0.1300(3)
C40_7 C 0.2788(5) 0.2992(5) 0.1412(3)
C41_7 C 0.2265(4) 0.3069(5) 0.1252(3)
C42_7 C 0.1847(4) 0.2916(5) 0.1434(3)
H17_7 H 0.188613 0.275072 0.164828
C43_7 C 0.0047(4) 0.2095(5) 0.2794(3)
N10_7 N 0.0212(4) 0.2782(5) 0.1792(3)
C44_7 C 0.1307(5) 0.3269(6) 0.0998(4)
H18_7 H 0.098431 0.334319 0.091450
N11_7 N 0.0962(4) 0.2844(6) 0.1516(4)
H21_7 H 0.103757 0.260980 0.166392
H22_7 H 0.027086 0.255745 0.240562
C49_7 C 0.0466(5) 0.2996(6) 0.1530(4)
C51_7 C 0.1368(5) 0.3002(6) 0.1305(4)
O33_4 O 0.1743(3) 0.1708(3) 0.2816(2)
O38_4 O 0.3193(3) 0.6847(3) 0.1257(2)
O7_7 O 0.9092(3) 0.7681(3) 0.2837(2)
O11_4 O 0.6847(3) 0.6807(3) 0.1257(2)
C4_7 C 0.7789(4) 0.6663(4) 0.0944(3)
H1_7 H 0.750553 0.654390 0.082506
C5_7 C 0.8324(4) 0.6255(4) 0.0489(3)
C7_7 C 0.8268(4) 0.6573(5) 0.0812(3)
C9_7 C 0.9444(4) 0.7931(5) 0.2977(3)
N2_7 N 0.9683(4) 0.6664(5) 0.1300(3)
C13_7 C 0.7212(5) 0.7008(5) 0.1412(3)
C14_7 C 0.7735(4) 0.6931(5) 0.1252(3)
C15_7 C 0.8153(4) 0.7084(5) 0.1434(3)
H5_7 H 0.811387 0.724928 0.164828
C16_7 C 0.9953(4) 0.7905(5) 0.2794(3)
N4_7 N 0.9788(4) 0.7218(5) 0.1792(3)
C17_7 C 0.8693(5) 0.6731(6) 0.0998(4)
H6_7 H 0.901569 0.665681 0.091450
N5_7 N 0.9038(4) 0.7156(6) 0.1516(4)
H9_7 H 0.896243 0.739020 0.166392
H10_7 H 0.972914 0.744255 0.240562
C22_7 C 0.9534(5) 0.7004(6) 0.1530(4)
C24_7 C 0.8632(5) 0.6998(6) 0.1305(4)
O18_4 O 0.8292(3) 0.1743(3) 0.2816(2)
O22_7 O 0.7398(3) 0.3999(3) 0.1254(2)
C28_7 C 0.8714(4) 0.1669(3) 0.2958(3)
C29_7 C 0.7819(3) 0.3885(4) 0.1374(3)
C30_7 C 0.8604(5) 0.4985(5) 0.0463(3)
C33_7 C 0.8220(5) 0.4422(4) 0.0917(3)
H14_7 H 0.790463 0.455937 0.086707
N7_7 N 0.9513(4) 0.3265(5) 0.1583(3)
C35_7 C 0.9170(4) 0.1908(5) 0.2796(3)
C37_7 C 0.8272(4) 0.4058(5) 0.1174(3)
C38_7 C 0.9642(4) 0.1862(4) 0.2947(3)
H15_7 H 0.968418 0.167249 0.315175
C39_7 C 0.8641(5) 0.4579(5) 0.0733(3)
N9_7 N 0.9425(4) 0.2743(5) 0.2052(3)
H16_7 H 0.911329 0.282775 0.202555
C45_7 C 0.9111(5) 0.4382(6) 0.0811(4)
H19_7 H 0.939574 0.450067 0.069335
C46_7 C 0.9111(5) 0.2196(6) 0.2499(4)
H20_7 H 0.879286 0.222527 0.239664
C47_7 C 0.9993(5) 0.2392(5) 0.2501(4)
N12_7 N 0.9647(4) 0.3802(6) 0.1115(4)
H23_7 H 0.987373 0.392379 0.097658
C48_7 C 0.9518(4) 0.2444(6) 0.2347(4)
C50_7 C 0.8738(5) 0.3862(5) 0.1252(4)
H24_7 H 0.877010 0.362713 0.143263
C52_7 C 0.9159(4) 0.4007(6) 0.1066(4)
C53_7 C 0.9821(6) 0.3445(7) 0.1344(4)
C54_7 C 0.9734(5) 0.2920(6) 0.1804(4)
O34_4 O 0.8257(3) 0.8292(3) 0.2816(2)
O39_4 O 0.6807(3) 0.3153(3) 0.1257(2)
O10_8 O 0.3999(3) 0.2602(3) 0.1254(2)
C1_8 C 0.1669(3) 0.1286(4) 0.2958(3)
C2_8 C 0.3885(4) 0.2181(3) 0.1374(3)
C3_8 C 0.4985(5) 0.1396(5) 0.0463(3)
C6_8 C 0.4422(4) 0.1780(5) 0.0917(3)
H2_8 H 0.455937 0.209537 0.086707
N1_8 N 0.3265(5) 0.0487(4) 0.1583(3)
C8_8 C 0.1908(5) 0.0830(4) 0.2796(3)
C10_8 C 0.4058(5) 0.1728(4) 0.1174(3)
C11_8 C 0.1862(4) 0.0358(4) 0.2947(3)
H3_8 H 0.167249 0.031582 0.315175
C12_8 C 0.4579(5) 0.1359(5) 0.0733(3)
N3_8 N 0.2743(5) 0.0575(4) 0.2052(3)
H4_8 H 0.282775 0.088671 0.202555
C18_8 C 0.4382(6) 0.0889(5) 0.0811(4)
H7_8 H 0.450067 0.060426 0.069335
C19_8 C 0.2196(6) 0.0889(5) 0.2499(4)
H8_8 H 0.222527 0.120714 0.239664
C20_8 C 0.2392(5) 0.0007(5) 0.2501(4)
N6_8 N 0.3802(6) 0.0353(4) 0.1115(4)
H11_8 H 0.392379 0.012627 0.097658
C21_8 C 0.2444(6) 0.0482(4) 0.2347(4)
C23_8 C 0.3862(5) 0.1262(5) 0.1252(4)
H12_8 H 0.362713 0.122990 0.143263
C25_8 C 0.4007(6) 0.0841(4) 0.1066(4)
C26_8 C 0.3445(7) 0.0179(6) 0.1344(4)
C27_8 C 0.2920(6) 0.0266(5) 0.1804(4)
O19_8 O 0.7681(3) 0.0908(3) 0.2837(2)
C31_8 C 0.6663(4) 0.2211(4) 0.0944(3)
H13_8 H 0.654390 0.249447 0.082506
C32_8 C 0.6255(4) 0.1676(4) 0.0489(3)
C34_8 C 0.6573(5) 0.1732(4) 0.0812(3)
C36_8 C 0.7931(5) 0.0556(4) 0.2977(3)
N8_8 N 0.6664(5) 0.0317(4) 0.1300(3)
C40_8 C 0.7008(5) 0.2788(5) 0.1412(3)
C41_8 C 0.6931(5) 0.2265(4) 0.1252(3)
C42_8 C 0.7084(5) 0.1847(4) 0.1434(3)
H17_8 H 0.724928 0.188613 0.164828
C43_8 C 0.7905(5) 0.0047(4) 0.2794(3)
N10_8 N 0.7218(5) 0.0212(4) 0.1792(3)
C44_8 C 0.6731(6) 0.1307(5) 0.0998(4)
H18_8 H 0.665681 0.098431 0.091450
N11_8 N 0.7156(6) 0.0962(4) 0.1516(4)
H21_8 H 0.739020 0.103757 0.166392
H22_8 H 0.744255 0.027086 0.240562
C49_8 C 0.7004(6) 0.0466(5) 0.1530(4)
C51_8 C 0.6998(6) 0.1368(5) 0.1305(4)
O7_8 O 0.2319(3) 0.9092(3) 0.2837(2)
C4_8 C 0.3337(4) 0.7789(4) 0.0944(3)
H1_8 H 0.345610 0.750553 0.082506
C5_8 C 0.3745(4) 0.8324(4) 0.0489(3)
C7_8 C 0.3427(5) 0.8268(4) 0.0812(3)
C9_8 C 0.2069(5) 0.9444(4) 0.2977(3)
N2_8 N 0.3336(5) 0.9683(4) 0.1300(3)
C13_8 C 0.2992(5) 0.7212(5) 0.1412(3)
C14_8 C 0.3069(5) 0.7735(4) 0.1252(3)
C15_8 C 0.2916(5) 0.8153(4) 0.1434(3)
H5_8 H 0.275072 0.811387 0.164828
C16_8 C 0.2095(5) 0.9953(4) 0.2794(3)
N4_8 N 0.2782(5) 0.9788(4) 0.1792(3)
C17_8 C 0.3269(6) 0.8693(5) 0.0998(4)
H6_8 H 0.334319 0.901569 0.091450
N5_8 N 0.2844(6) 0.9038(4) 0.1516(4)
H9_8 H 0.260980 0.896243 0.166392
H10_8 H 0.255745 0.972914 0.240562
C22_8 C 0.2996(6) 0.9534(5) 0.1530(4)
C24_8 C 0.3002(6) 0.8632(5) 0.1305(4)
O22_8 O 0.6001(3) 0.7398(3) 0.1254(2)
C28_8 C 0.8331(3) 0.8714(4) 0.2958(3)
C29_8 C 0.6115(4) 0.7819(3) 0.1374(3)
C30_8 C 0.5015(5) 0.8604(5) 0.0463(3)
C33_8 C 0.5578(4) 0.8220(5) 0.0917(3)
H14_8 H 0.544063 0.790463 0.086707
N7_8 N 0.6735(5) 0.9513(4) 0.1583(3)
C35_8 C 0.8092(5) 0.9170(4) 0.2796(3)
C37_8 C 0.5942(5) 0.8272(4) 0.1174(3)
C38_8 C 0.8138(4) 0.9642(4) 0.2947(3)
H15_8 H 0.832751 0.968418 0.315175
C39_8 C 0.5421(5) 0.8641(5) 0.0733(3)
N9_8 N 0.7257(5) 0.9425(4) 0.2052(3)
H16_8 H 0.717225 0.911329 0.202555
C45_8 C 0.5618(6) 0.9111(5) 0.0811(4)
H19_8 H 0.549933 0.939574 0.069335
C46_8 C 0.7804(6) 0.9111(5) 0.2499(4)
H20_8 H 0.777473 0.879286 0.239664
C47_8 C 0.7608(5) 0.9993(5) 0.2501(4)
N12_8 N 0.6198(6) 0.9647(4) 0.1115(4)
H23_8 H 0.607621 0.987373 0.097658
C48_8 C 0.7556(6) 0.9518(4) 0.2347(4)
C50_8 C 0.6138(5) 0.8738(5) 0.1252(4)
H24_8 H 0.637287 0.877010 0.143263
C52_8 C 0.5993(6) 0.9159(4) 0.1066(4)
C53_8 C 0.6555(7) 0.9821(6) 0.1344(4)
C54_8 C 0.7080(6) 0.9734(5) 0.1804(4)
loop_
_geom_bond_atom_site_label_1
_geom_bond_atom_site_label_2
_geom_bond_site_symmetry_1
_geom_bond_site_symmetry_2
Cu2 O4 1_555 1_555
Cu5 O19 1_555 1_555
Cu6 O22 1_555 1_555
O13 C28 1_555 1_555
O14 C36 1_555 1_555
O15 C29 1_555 1_555
O17 Cu2 1_555 1_555
O18 C28 1_555 1_555
O19 C36 1_555 1_555
O20 C40 1_555 1_555
O21 C32 1_555 1_555
O22 C29 1_555 1_555
O23 C40 1_555 1_555
C28 C35 1_555 1_555
C29 C37 1_555 1_555
C31 H13 1_555 1_555
C32 O17 1_555 1_555
C33 H14 1_555 1_555
C34 C31 1_555 1_555
N7 C53 1_555 1_555
C35 C38 1_555 1_555
C36 C43 1_555 1_555
N8 C49 1_555 1_555
C37 C33 1_555 1_555
C38 H15 1_555 1_555
C39 C30 1_555 1_555
C40 C41 1_555 1_555
C41 C31 1_555 1_555
N9 H16 1_555 1_555
C42 C41 1_555 1_555
H17 C42 1_555 1_555
C43 C38 1_555 1_555
N10 C49 1_555 1_555
C44 C34 1_555 1_555
H18 C44 1_555 1_555
C45 C39 1_555 1_555
H19 C45 1_555 1_555
C46 C35 1_555 1_555
H20 C46 1_555 1_555
N11 H21 1_555 1_555
C47 C43 1_555 1_555
H22 C47 1_555 1_555
N12 H23 1_555 1_555
C48 N9 1_555 1_555
C49 N11 1_555 1_555
C50 C37 1_555 1_555
H24 C50 1_555 1_555
C51 C42 1_555 1_555
C52 C45 1_555 1_555
C53 N8 1_555 1_555
C54 N7 1_555 1_555
Cu7 Cu2 1_555 1_555
Cu10 O18 1_555 1_555
Cu12 O20 1_555 1_555
Cu14 Cu6 1_555 1_555
Cu15 O23 1_555 1_555
Cu18 O13 1_555 1_555
Cu19 Cu5 1_555 1_555
O26 Cu6 1_555 1_555
O28 Cu6 1_555 1_555
O29 Cu5 1_555 1_555
O31 Cu2 1_555 1_555
O32 Cu2 1_555 1_555
O33 Cu5 1_555 1_555
O36 Cu5 1_555 1_555
O39 Cu6 1_555 1_555
O12 Cu7 1_555 1_555
O14 Cu19 1_555 1_555
O15 Cu14 1_555 1_555
O21 Cu7 1_555 1_555
C32 C34 1_555 1_555
C33 C39 1_555 1_555
N9 C54 1_555 1_555
N10 C54 1_555 1_555
C44 C51 1_555 1_555
C46 C48 1_555 1_555
N11 C51 1_555 1_555
C47 C48 1_555 1_555
N12 C52 1_555 1_555
N12 C53 1_555 1_555
C50 C52 1_555 1_555
Cu10 Cu18 1_555 1_555
Cu12 Cu15 1_555 1_555
Cu1 O9 1_555 1_555
Cu3 O7 1_555 1_555
Cu4 O10 1_555 1_555
O1 C1 1_555 1_555
O2 C9 1_555 1_555
O3 C2 1_555 1_555
O5 C5 1_555 1_555
O6 C1 1_555 1_555
O7 C9 1_555 1_555
O8 C13 1_555 1_555
O9 C5 1_555 1_555
O10 C2 1_555 1_555
O11 C13 1_555 1_555
C1 C8 1_555 1_555
C2 C10 1_555 1_555
C3 C12 1_555 1_555
C4 H1 1_555 1_555
C5 C7 1_555 1_555
C6 H2 1_555 1_555
C7 C4 1_555 1_555
N1 C26 1_555 1_555
C8 C11 1_555 1_555
C9 C16 1_555 1_555
N2 C22 1_555 1_555
C10 C6 1_555 1_555
C11 H3 1_555 1_555
C12 C6 1_555 1_555
C13 C14 1_555 1_555
C14 C4 1_555 1_555
N3 H4 1_555 1_555
C15 C14 1_555 1_555
H5 C15 1_555 1_555
C16 C11 1_555 1_555
N4 C22 1_555 1_555
C17 C7 1_555 1_555
H6 C17 1_555 1_555
C18 C12 1_555 1_555
H7 C18 1_555 1_555
C19 C8 1_555 1_555
H8 C19 1_555 1_555
N5 H9 1_555 1_555
C20 C16 1_555 1_555
H10 C20 1_555 1_555
N6 H11 1_555 1_555
C21 N3 1_555 1_555
C22 N5 1_555 1_555
C23 C10 1_555 1_555
H12 C23 1_555 1_555
C24 C15 1_555 1_555
C25 C18 1_555 1_555
C26 N2 1_555 1_555
C27 N1 1_555 1_555
O24 Cu1 1_555 1_555
Cu8 Cu1 1_555 1_555
Cu9 O6 1_555 1_555
Cu11 O8 1_555 1_555
Cu13 Cu4 1_555 1_555
Cu16 O11 1_555 1_555
Cu17 O1 1_555 1_555
Cu20 Cu3 1_555 1_555
O25 Cu4 1_555 1_555
O27 Cu4 1_555 1_555
O30 Cu3 1_555 1_555
O34 Cu3 1_555 1_555
O35 Cu3 1_555 1_555
O37 Cu1 1_555 1_555
O38 Cu4 1_555 1_555
O40 Cu1 1_555 1_555
O2 Cu20 1_555 1_555
O3 Cu13 1_555 1_555
O5 Cu8 1_555 1_555
N3 C27 1_555 1_555
N4 C27 1_555 1_555
C17 C24 1_555 1_555
C19 C21 1_555 1_555
N5 C24 1_555 1_555
C20 C21 1_555 1_555
N6 C25 1_555 1_555
N6 C26 1_555 1_555
C23 C25 1_555 1_555
O16 Cu8 1_555 1_555
Cu9 Cu17 1_555 1_555
Cu11 Cu16 1_555 1_555
O37_2 Cu7 1_555 1_555
O40_2 Cu7 1_555 1_555
O31_2 Cu8 1_555 1_555
O32_2 Cu8 1_555 1_555
Cu1_2 O9_2 1_555 1_555
Cu9 O7_2 1_555 1_555
Cu15 O10_2 1_555 1_555
O1_2 C1_2 1_555 1_555
O2_2 C9_2 1_555 1_555
O3_2 C2_2 1_555 1_555
O5_2 C5_2 1_555 1_555
O33 C1_2 1_555 1_555
O7_2 C9_2 1_555 1_555
O8_2 C13_2 1_555 1_555
O9_2 C5_2 1_555 1_555
O10_2 C2_2 1_555 1_555
O38 C13_2 1_555 1_555
C1_2 C8_2 1_555 1_555
C2_2 C10_2 1_555 1_555
C3_2 C12_2 1_555 1_555
C4_2 H1_2 1_555 1_555
C5_2 C7_2 1_555 1_555
C6_2 H2_2 1_555 1_555
C7_2 C4_2 1_555 1_555
N1_2 C26_2 1_555 1_555
C8_2 C11_2 1_555 1_555
C9_2 C16_2 1_555 1_555
N2_2 C22_2 1_555 1_555
C10_2 C6_2 1_555 1_555
C11_2 H3_2 1_555 1_555
C12_2 C6_2 1_555 1_555
C13_2 C14_2 1_555 1_555
C14_2 C4_2 1_555 1_555
N3_2 H4_2 1_555 1_555
C15_2 C14_2 1_555 1_555
H5_2 C15_2 1_555 1_555
C16_2 C11_2 1_555 1_555
N4_2 C22_2 1_555 1_555
C17_2 C7_2 1_555 1_555
H6_2 C17_2 1_555 1_555
C18_2 C12_2 1_555 1_555
H7_2 C18_2 1_555 1_555
C19_2 C8_2 1_555 1_555
H8_2 C19_2 1_555 1_555
N5_2 H9_2 1_555 1_555
C20_2 C16_2 1_555 1_555
H10_2 C20_2 1_555 1_555
N6_2 H11_2 1_555 1_555
C21_2 N3_2 1_555 1_555
C22_2 N5_2 1_555 1_555
C23_2 C10_2 1_555 1_555
H12_2 C23_2 1_555 1_555
C24_2 C15_2 1_555 1_555
C25_2 C18_2 1_555 1_555
C26_2 N2_2 1_555 1_555
C27_2 N1_2 1_555 1_555
O24_2 Cu1_2 1_555 1_555
Cu8_2 Cu1_2 1_555 1_555
Cu13 O8_2 1_555 1_555
Cu19 O1_2 1_555 1_555
O25_2 Cu15 1_555 1_555
O27_2 Cu15 1_555 1_555
O30_2 Cu9 1_555 1_555
O35_2 Cu9 1_555 1_555
O37_3 Cu1_2 1_555 1_555
O40_3 Cu1_2 1_555 1_555
O2_2 Cu17 1_555 1_555
O3_2 Cu12 1_555 1_555
O5_2 Cu8_2 1_555 1_555
N3_2 C27_2 1_555 1_555
N4_2 C27_2 1_555 1_555
C17_2 C24_2 1_555 1_555
C19_2 C21_2 1_555 1_555
N5_2 C24_2 1_555 1_555
C20_2 C21_2 1_555 1_555
N6_2 C25_2 1_555 1_555
N6_2 C26_2 1_555 1_555
C23_2 C25_2 1_555 1_555
O16_2 Cu8_2 1_555 1_555
Cu2_2 O4_2 1_555 1_555
Cu10 O19_2 1_555 1_555
Cu16 O22_2 1_555 1_555
O13_2 C28_2 1_555 1_555
O14_2 C36_2 1_555 1_555
O15_2 C29_2 1_555 1_555
O17_2 Cu2_2 1_555 1_555
O34 C28_2 1_555 1_555
O19_2 C36_2 1_555 1_555
O20_2 C40_2 1_555 1_555
O21_2 C32_2 1_555 1_555
O22_2 C29_2 1_555 1_555
O39 C40_2 1_555 1_555
C28_2 C35_2 1_555 1_555
C29_2 C37_2 1_555 1_555
C31_2 H13_2 1_555 1_555
C32_2 O17_2 1_555 1_555
C33_2 H14_2 1_555 1_555
C34_2 C31_2 1_555 1_555
N7_2 C53_2 1_555 1_555
C35_2 C38_2 1_555 1_555
C36_2 C43_2 1_555 1_555
N8_2 C49_2 1_555 1_555
C37_2 C33_2 1_555 1_555
C38_2 H15_2 1_555 1_555
C39_2 C30_2 1_555 1_555
C40_2 C41_2 1_555 1_555
C41_2 C31_2 1_555 1_555
N9_2 H16_2 1_555 1_555
C42_2 C41_2 1_555 1_555
H17_2 C42_2 1_555 1_555
C43_2 C38_2 1_555 1_555
N10_2 C49_2 1_555 1_555
C44_2 C34_2 1_555 1_555
H18_2 C44_2 1_555 1_555
C45_2 C39_2 1_555 1_555
H19_2 C45_2 1_555 1_555
C46_2 C35_2 1_555 1_555
H20_2 C46_2 1_555 1_555
N11_2 H21_2 1_555 1_555
C47_2 C43_2 1_555 1_555
H22_2 C47_2 1_555 1_555
N12_2 H23_2 1_555 1_555
C48_2 N9_2 1_555 1_555
C49_2 N11_2 1_555 1_555
C50_2 C37_2 1_555 1_555
H24_2 C50_2 1_555 1_555
C51_2 C42_2 1_555 1_555
C52_2 C45_2 1_555 1_555
C53_2 N8_2 1_555 1_555
C54_2 N7_2 1_555 1_555
Cu7_2 Cu2_2 1_555 1_555
Cu14 O20_2 1_555 1_555
Cu20 O13_2 1_555 1_555
O26_2 Cu16 1_555 1_555
O28_2 Cu16 1_555 1_555
O29_2 Cu10 1_555 1_555
O31_3 Cu2_2 1_555 1_555
O32_3 Cu2_2 1_555 1_555
O36_2 Cu10 1_555 1_555
O12_2 Cu7_2 1_555 1_555
O14_2 Cu18 1_555 1_555
O15_2 Cu11 1_555 1_555
O21_2 Cu7_2 1_555 1_555
C32_2 C34_2 1_555 1_555
C33_2 C39_2 1_555 1_555
N9_2 C54_2 1_555 1_555
N10_2 C54_2 1_555 1_555
C44_2 C51_2 1_555 1_555
C46_2 C48_2 1_555 1_555
N11_2 C51_2 1_555 1_555
C47_2 C48_2 1_555 1_555
N12_2 C52_2 1_555 1_555
N12_2 C53_2 1_555 1_555
C50_2 C52_2 1_555 1_555
O31_4 Cu8_2 1_555 1_555
O32_4 Cu8_2 1_555 1_555
O37_4 Cu7_2 1_555 1_555
O40_4 Cu7_2 1_555 1_555
Cu8_3 Cu1_3 1_555 1_555
O37_5 Cu1_3 1_555 1_555
O40_5 Cu1_3 1_555 1_555
Cu1_4 O9_3 1_555 1_555
Cu3_2 O7_3 1_555 1_555
O2_3 C9_3 1_555 1_555
O5_3 C5_3 1_555 1_555
O7_3 C9_3 1_555 1_555
O8_3 C13_3 1_555 1_555
O9_3 C5_3 1_555 1_555
O11_2 C13_3 1_555 1_555
C4_3 H1_3 1_555 1_555
C5_3 C7_3 1_555 1_555
C7_3 C4_3 1_555 1_555
C9_3 C16_3 1_555 1_555
N2_3 C22_3 1_555 1_555
C13_3 C14_3 1_555 1_555
C14_3 C4_3 1_555 1_555
C15_3 C14_3 1_555 1_555
H5_3 C15_3 1_555 1_555
N4_3 C22_3 1_555 1_555
C17_3 C7_3 1_555 1_555
H6_3 C17_3 1_555 1_555
N5_3 H9_3 1_555 1_555
C22_3 N5_3 1_555 1_555
C24_3 C15_3 1_555 1_555
Cu6_2 O22_3 1_555 1_555
O13_3 C28_3 1_555 1_555
O15_3 C29_3 1_555 1_555
O16_3 C30_3 1_555 1_555
O18_2 C28_3 1_555 1_555
O22_3 C29_3 1_555 1_555
O24_3 Cu1_4 1_555 1_555
C28_3 C35_3 1_555 1_555
C29_3 C37_3 1_555 1_555
C30_3 O24_3 1_555 1_555
C33_3 H14_3 1_555 1_555
N7_3 C53_3 1_555 1_555
C35_3 C38_3 1_555 1_555
C37_3 C33_3 1_555 1_555
C38_3 H15_3 1_555 1_555
C39_3 C30_3 1_555 1_555
N9_3 H16_3 1_555 1_555
C45_3 C39_3 1_555 1_555
H19_3 C45_3 1_555 1_555
C46_3 C35_3 1_555 1_555
H20_3 C46_3 1_555 1_555
N12_3 H23_3 1_555 1_555
C48_3 N9_3 1_555 1_555
C50_3 C37_3 1_555 1_555
H24_3 C50_3 1_555 1_555
C52_3 C45_3 1_555 1_555
C54_3 N7_3 1_555 1_555
Cu8_4 Cu1_4 1_555 1_555
Cu10_2 O18_2 1_555 1_555
Cu11_2 O8_3 1_555 1_555
Cu14_2 Cu6_2 1_555 1_555
Cu16_2 O11_2 1_555 1_555
Cu18_2 O13_3 1_555 1_555
Cu20_2 Cu3_2 1_555 1_555
O26_3 Cu6_2 1_555 1_555
O28_3 Cu6_2 1_555 1_555
O30_3 Cu3_2 1_555 1_555
O34_2 Cu3_2 1_555 1_555
O35_3 Cu3_2 1_555 1_555
O39_2 Cu6_2 1_555 1_555
O2_3 Cu20_2 1_555 1_555
O5_3 Cu8_4 1_555 1_555
C17_3 C24_3 1_555 1_555
N5_3 C24_3 1_555 1_555
O15_3 Cu14_2 1_555 1_555
O16_3 Cu8_4 1_555 1_555
C33_3 C39_3 1_555 1_555
N9_3 C54_3 1_555 1_555
C46_3 C48_3 1_555 1_555
C47_3 C48_3 1_555 1_555
N12_3 C52_3 1_555 1_555
N12_3 C53_3 1_555 1_555
C50_3 C52_3 1_555 1_555
Cu10_2 Cu18_2 1_555 1_555
Cu11_2 Cu16_2 1_555 1_555
Cu7_3 Cu2_3 1_555 1_555
O31_5 Cu2_3 1_555 1_555
O32_5 Cu2_3 1_555 1_555
Cu2_4 O4_3 1_555 1_555
Cu4_2 O10_3 1_555 1_555
O1_3 C1_3 1_555 1_555
O3_3 C2_3 1_555 1_555
O4_3 C3_3 1_555 1_555
O6_2 C1_3 1_555 1_555
O10_3 C2_3 1_555 1_555
O12_3 C3_3 1_555 1_555
C1_3 C8_3 1_555 1_555
C2_3 C10_3 1_555 1_555
C3_3 C12_3 1_555 1_555
C6_3 H2_3 1_555 1_555
N1_3 C26_3 1_555 1_555
C8_3 C11_3 1_555 1_555
C10_3 C6_3 1_555 1_555
C11_3 H3_3 1_555 1_555
C12_3 C6_3 1_555 1_555
N3_3 H4_3 1_555 1_555
C18_3 C12_3 1_555 1_555
H7_3 C18_3 1_555 1_555
C19_3 C8_3 1_555 1_555
H8_3 C19_3 1_555 1_555
N6_3 H11_3 1_555 1_555
C21_3 N3_3 1_555 1_555
C23_3 C10_3 1_555 1_555
H12_3 C23_3 1_555 1_555
C25_3 C18_3 1_555 1_555
C27_3 N1_3 1_555 1_555
Cu5_2 O19_3 1_555 1_555
O14_3 C36_3 1_555 1_555
O17_3 Cu2_4 1_555 1_555
O19_3 C36_3 1_555 1_555
O20_3 C40_3 1_555 1_555
O21_3 C32_3 1_555 1_555
O23_2 C40_3 1_555 1_555
C31_3 H13_3 1_555 1_555
C32_3 O17_3 1_555 1_555
C34_3 C31_3 1_555 1_555
C36_3 C43_3 1_555 1_555
N8_3 C49_3 1_555 1_555
C40_3 C41_3 1_555 1_555
C41_3 C31_3 1_555 1_555
C42_3 C41_3 1_555 1_555
H17_3 C42_3 1_555 1_555
N10_3 C49_3 1_555 1_555
C44_3 C34_3 1_555 1_555
H18_3 C44_3 1_555 1_555
N11_3 H21_3 1_555 1_555
C49_3 N11_3 1_555 1_555
C51_3 C42_3 1_555 1_555
Cu7_4 Cu2_4 1_555 1_555
Cu9_2 O6_2 1_555 1_555
Cu12_2 O20_3 1_555 1_555
Cu13_2 Cu4_2 1_555 1_555
Cu15_2 O23_2 1_555 1_555
Cu17_2 O1_3 1_555 1_555
Cu19_2 Cu5_2 1_555 1_555
O25_3 Cu4_2 1_555 1_555
O27_3 Cu4_2 1_555 1_555
O29_3 Cu5_2 1_555 1_555
O33_2 Cu5_2 1_555 1_555
O36_3 Cu5_2 1_555 1_555
O38_2 Cu4_2 1_555 1_555
O3_3 Cu13_2 1_555 1_555
O12_3 Cu7_4 1_555 1_555
N3_3 C27_3 1_555 1_555
C19_3 C21_3 1_555 1_555
C20_3 C21_3 1_555 1_555
N6_3 C25_3 1_555 1_555
N6_3 C26_3 1_555 1_555
C23_3 C25_3 1_555 1_555
O14_3 Cu19_2 1_555 1_555
O21_3 Cu7_4 1_555 1_555
C32_3 C34_3 1_555 1_555
C44_3 C51_3 1_555 1_555
N11_3 C51_3 1_555 1_555
Cu9_2 Cu17_2 1_555 1_555
Cu12_2 Cu15_2 1_555 1_555
O31_6 Cu8_3 1_555 1_555
O32_6 Cu8_3 1_555 1_555
O37_6 Cu7_3 1_555 1_555
O40_6 Cu7_3 1_555 1_555
Cu8_5 Cu1_5 1_555 1_555
O37_7 Cu1_5 1_555 1_555
O40_7 Cu1_5 1_555 1_555
Cu1_6 O9_4 1_555 1_555
Cu9_2 O7_4 1_555 1_555
O2_4 C9_4 1_555 1_555
O5_4 C5_4 1_555 1_555
O7_4 C9_4 1_555 1_555
O8_4 C13_4 1_555 1_555
O9_4 C5_4 1_555 1_555
O38_2 C13_4 1_555 1_555
C4_4 H1_4 1_555 1_555
C5_4 C7_4 1_555 1_555
C7_4 C4_4 1_555 1_555
C9_4 C16_4 1_555 1_555
N2_4 C22_4 1_555 1_555
C13_4 C14_4 1_555 1_555
C14_4 C4_4 1_555 1_555
C15_4 C14_4 1_555 1_555
H5_4 C15_4 1_555 1_555
N4_4 C22_4 1_555 1_555
C17_4 C7_4 1_555 1_555
H6_4 C17_4 1_555 1_555
N5_4 H9_4 1_555 1_555
C22_4 N5_4 1_555 1_555
C24_4 C15_4 1_555 1_555
Cu16_2 O22_4 1_555 1_555
O13_4 C28_4 1_555 1_555
O15_4 C29_4 1_555 1_555
O16_4 C30_4 1_555 1_555
O34_2 C28_4 1_555 1_555
O22_4 C29_4 1_555 1_555
O24_4 Cu1_6 1_555 1_555
C28_4 C35_4 1_555 1_555
C29_4 C37_4 1_555 1_555
C30_4 O24_4 1_555 1_555
C33_4 H14_4 1_555 1_555
N7_4 C53_4 1_555 1_555
C35_4 C38_4 1_555 1_555
C37_4 C33_4 1_555 1_555
C38_4 H15_4 1_555 1_555
C39_4 C30_4 1_555 1_555
N9_4 H16_4 1_555 1_555
C45_4 C39_4 1_555 1_555
H19_4 C45_4 1_555 1_555
C46_4 C35_4 1_555 1_555
H20_4 C46_4 1_555 1_555
N12_4 H23_4 1_555 1_555
C48_4 N9_4 1_555 1_555
C50_4 C37_4 1_555 1_555
H24_4 C50_4 1_555 1_555
C52_4 C45_4 1_555 1_555
C54_4 N7_4 1_555 1_555
Cu8_6 Cu1_6 1_555 1_555
Cu13_2 O8_4 1_555 1_555
Cu20_2 O13_4 1_555 1_555
O26_4 Cu16_2 1_555 1_555
O28_4 Cu16_2 1_555 1_555
O30_4 Cu9_2 1_555 1_555
O35_4 Cu9_2 1_555 1_555
O2_4 Cu17_2 1_555 1_555
O5_4 Cu8_6 1_555 1_555
C17_4 C24_4 1_555 1_555
N5_4 C24_4 1_555 1_555
O15_4 Cu11_2 1_555 1_555
O16_4 Cu8_6 1_555 1_555
C33_4 C39_4 1_555 1_555
N9_4 C54_4 1_555 1_555
C46_4 C48_4 1_555 1_555
C47_4 C48_4 1_555 1_555
N12_4 C52_4 1_555 1_555
N12_4 C53_4 1_555 1_555
C50_4 C52_4 1_555 1_555
Cu7_5 Cu2_5 1_555 1_555
O31_7 Cu2_5 1_555 1_555
O32_7 Cu2_5 1_555 1_555
Cu2_6 O4_4 1_555 1_555
Cu15_2 O10_4 1_555 1_555
O1_4 C1_4 1_555 1_555
O3_4 C2_4 1_555 1_555
O4_4 C3_4 1_555 1_555
O33_2 C1_4 1_555 1_555
O10_4 C2_4 1_555 1_555
O12_4 C3_4 1_555 1_555
C1_4 C8_4 1_555 1_555
C2_4 C10_4 1_555 1_555
C3_4 C12_4 1_555 1_555
C6_4 H2_4 1_555 1_555
N1_4 C26_4 1_555 1_555
C8_4 C11_4 1_555 1_555
C10_4 C6_4 1_555 1_555
C11_4 H3_4 1_555 1_555
C12_4 C6_4 1_555 1_555
N3_4 H4_4 1_555 1_555
C18_4 C12_4 1_555 1_555
H7_4 C18_4 1_555 1_555
C19_4 C8_4 1_555 1_555
H8_4 C19_4 1_555 1_555
N6_4 H11_4 1_555 1_555
C21_4 N3_4 1_555 1_555
C23_4 C10_4 1_555 1_555
H12_4 C23_4 1_555 1_555
C25_4 C18_4 1_555 1_555
C27_4 N1_4 1_555 1_555
Cu10_2 O19_4 1_555 1_555
O14_4 C36_4 1_555 1_555
O17_4 Cu2_6 1_555 1_555
O19_4 C36_4 1_555 1_555
O20_4 C40_4 1_555 1_555
O21_4 C32_4 1_555 1_555
O39_2 C40_4 1_555 1_555
C31_4 H13_4 1_555 1_555
C32_4 O17_4 1_555 1_555
C34_4 C31_4 1_555 1_555
C36_4 C43_4 1_555 1_555
N8_4 C49_4 1_555 1_555
C40_4 C41_4 1_555 1_555
C41_4 C31_4 1_555 1_555
C42_4 C41_4 1_555 1_555
H17_4 C42_4 1_555 1_555
N10_4 C49_4 1_555 1_555
C44_4 C34_4 1_555 1_555
H18_4 C44_4 1_555 1_555
N11_4 H21_4 1_555 1_555
C49_4 N11_4 1_555 1_555
C51_4 C42_4 1_555 1_555
Cu7_6 Cu2_6 1_555 1_555
Cu14_2 O20_4 1_555 1_555
Cu19_2 O1_4 1_555 1_555
O25_4 Cu15_2 1_555 1_555
O27_4 Cu15_2 1_555 1_555
O29_4 Cu10_2 1_555 1_555
O36_4 Cu10_2 1_555 1_555
O3_4 Cu12_2 1_555 1_555
O12_4 Cu7_6 1_555 1_555
N3_4 C27_4 1_555 1_555
C19_4 C21_4 1_555 1_555
C20_4 C21_4 1_555 1_555
N6_4 C25_4 1_555 1_555
N6_4 C26_4 1_555 1_555
C23_4 C25_4 1_555 1_555
O14_4 Cu18_2 1_555 1_555
O21_4 Cu7_6 1_555 1_555
C32_4 C34_4 1_555 1_555
C44_4 C51_4 1_555 1_555
N11_4 C51_4 1_555 1_555
O31_8 Cu8_5 1_555 1_555
O32_8 Cu8_5 1_555 1_555
O37_8 Cu7_5 1_555 1_555
O40_8 Cu7_5 1_555 1_555
Cu11_2 O7_5 1_555 1_555
Cu17_2 O10_5 1_555 1_555
O25_3 C1_5 1_555 1_555
O28_4 C9_5 1_555 1_555
O30_4 C2_5 1_555 1_555
O32 C5_5 1_555 1_555
O6_3 C1_5 1_555 1_555
O7_5 C9_5 1_555 1_555
O35_3 C13_5 1_555 1_555
O37_2 C5_5 1_555 1_555
O10_5 C2_5 1_555 1_555
O11_3 C13_5 1_555 1_555
C1_5 C8_5 1_555 1_555
C2_5 C10_5 1_555 1_555
C3_5 C12_5 1_555 1_555
C4_5 H1_5 1_555 1_555
C5_5 C7_5 1_555 1_555
C6_5 H2_5 1_555 1_555
C7_5 C4_5 1_555 1_555
N1_5 C26_5 1_555 1_555
C8_5 C11_5 1_555 1_555
C9_5 C16_5 1_555 1_555
N2_5 C22_5 1_555 1_555
C10_5 C6_5 1_555 1_555
C11_5 H3_5 1_555 1_555
C12_5 C6_5 1_555 1_555
C13_5 C14_5 1_555 1_555
C14_5 C4_5 1_555 1_555
N3_5 H4_5 1_555 1_555
C15_5 C14_5 1_555 1_555
H5_5 C15_5 1_555 1_555
C16_5 C11_5 1_555 1_555
N4_5 C22_5 1_555 1_555
C17_5 C7_5 1_555 1_555
H6_5 C17_5 1_555 1_555
C18_5 C12_5 1_555 1_555
H7_5 C18_5 1_555 1_555
C19_5 C8_5 1_555 1_555
H8_5 C19_5 1_555 1_555
N5_5 H9_5 1_555 1_555
C20_5 C16_5 1_555 1_555
H10_5 C20_5 1_555 1_555
N6_5 H11_5 1_555 1_555
C21_5 N3_5 1_555 1_555
C22_5 N5_5 1_555 1_555
C23_5 C10_5 1_555 1_555
H12_5 C23_5 1_555 1_555
C24_5 C15_5 1_555 1_555
C25_5 C18_5 1_555 1_555
C26_5 N2_5 1_555 1_555
C27_5 N1_5 1_555 1_555
Cu13_2 O6_3 1_555 1_555
Cu20_2 O11_3 1_555 1_555
O34_3 Cu11_2 1_555 1_555
O38_3 Cu17_2 1_555 1_555
N3_5 C27_5 1_555 1_555
N4_5 C27_5 1_555 1_555
C17_5 C24_5 1_555 1_555
C19_5 C21_5 1_555 1_555
N5_5 C24_5 1_555 1_555
C20_5 C21_5 1_555 1_555
N6_5 C25_5 1_555 1_555
N6_5 C26_5 1_555 1_555
C23_5 C25_5 1_555 1_555
Cu12_2 O19_5 1_555 1_555
Cu18_2 O22_5 1_555 1_555
O26_3 C28_5 1_555 1_555
O27_4 C36_5 1_555 1_555
O29_4 C29_5 1_555 1_555
O18_3 C28_5 1_555 1_555
O19_5 C36_5 1_555 1_555
O36_3 C40_5 1_555 1_555
O37 C32_5 1_555 1_555
O22_5 C29_5 1_555 1_555
O23_3 C40_5 1_555 1_555
C28_5 C35_5 1_555 1_555
C29_5 C37_5 1_555 1_555
C31_5 H13_5 1_555 1_555
C32_5 O32_2 1_555 1_555
C33_5 H14_5 1_555 1_555
C34_5 C31_5 1_555 1_555
N7_5 C53_5 1_555 1_555
C35_5 C38_5 1_555 1_555
C36_5 C43_5 1_555 1_555
N8_5 C49_5 1_555 1_555
C37_5 C33_5 1_555 1_555
C38_5 H15_5 1_555 1_555
C39_5 C30_5 1_555 1_555
C40_5 C41_5 1_555 1_555
C41_5 C31_5 1_555 1_555
N9_5 H16_5 1_555 1_555
C42_5 C41_5 1_555 1_555
H17_5 C42_5 1_555 1_555
C43_5 C38_5 1_555 1_555
N10_5 C49_5 1_555 1_555
C44_5 C34_5 1_555 1_555
H18_5 C44_5 1_555 1_555
C45_5 C39_5 1_555 1_555
H19_5 C45_5 1_555 1_555
C46_5 C35_5 1_555 1_555
H20_5 C46_5 1_555 1_555
N11_5 H21_5 1_555 1_555
C47_5 C43_5 1_555 1_555
H22_5 C47_5 1_555 1_555
N12_5 H23_5 1_555 1_555
C48_5 N9_5 1_555 1_555
C49_5 N11_5 1_555 1_555
C50_5 C37_5 1_555 1_555
H24_5 C50_5 1_555 1_555
C51_5 C42_5 1_555 1_555
C52_5 C45_5 1_555 1_555
C53_5 N8_5 1_555 1_555
C54_5 N7_5 1_555 1_555
Cu14_2 O18_3 1_555 1_555
Cu19_2 O23_3 1_555 1_555
O33_3 Cu12_2 1_555 1_555
O39_3 Cu18_2 1_555 1_555
C32_5 C34_5 1_555 1_555
C33_5 C39_5 1_555 1_555
N9_5 C54_5 1_555 1_555
N10_5 C54_5 1_555 1_555
C44_5 C51_5 1_555 1_555
C46_5 C48_5 1_555 1_555
N11_5 C51_5 1_555 1_555
C47_5 C48_5 1_555 1_555
N12_5 C52_5 1_555 1_555
N12_5 C53_5 1_555 1_555
C50_5 C52_5 1_555 1_555
Cu14_2 O19_6 1_555 1_555
Cu20_2 O22_6 1_555 1_555
O26_4 C28_6 1_555 1_555
O28_3 C36_6 1_555 1_555
O30_3 C29_6 1_555 1_555
O34_3 C28_6 1_555 1_555
O19_6 C36_6 1_555 1_555
O36_4 C40_6 1_555 1_555
O37_3 C32_6 1_555 1_555
O22_6 C29_6 1_555 1_555
O39_3 C40_6 1_555 1_555
C28_6 C35_6 1_555 1_555
C29_6 C37_6 1_555 1_555
C31_6 H13_6 1_555 1_555
C32_6 O32_4 1_555 1_555
C33_6 H14_6 1_555 1_555
C34_6 C31_6 1_555 1_555
N7_6 C53_6 1_555 1_555
C35_6 C38_6 1_555 1_555
C36_6 C43_6 1_555 1_555
N8_6 C49_6 1_555 1_555
C37_6 C33_6 1_555 1_555
C38_6 H15_6 1_555 1_555
C39_6 C30_6 1_555 1_555
C40_6 C41_6 1_555 1_555
C41_6 C31_6 1_555 1_555
N9_6 H16_6 1_555 1_555
C42_6 C41_6 1_555 1_555
H17_6 C42_6 1_555 1_555
C43_6 C38_6 1_555 1_555
N10_6 C49_6 1_555 1_555
C44_6 C34_6 1_555 1_555
H18_6 C44_6 1_555 1_555
C45_6 C39_6 1_555 1_555
H19_6 C45_6 1_555 1_555
C46_6 C35_6 1_555 1_555
H20_6 C46_6 1_555 1_555
N11_6 H21_6 1_555 1_555
C47_6 C43_6 1_555 1_555
H22_6 C47_6 1_555 1_555
N12_6 H23_6 1_555 1_555
C48_6 N9_6 1_555 1_555
C49_6 N11_6 1_555 1_555
C50_6 C37_6 1_555 1_555
H24_6 C50_6 1_555 1_555
C51_6 C42_6 1_555 1_555
C52_6 C45_6 1_555 1_555
C53_6 N8_6 1_555 1_555
C54_6 N7_6 1_555 1_555
C32_6 C34_6 1_555 1_555
C33_6 C39_6 1_555 1_555
N9_6 C54_6 1_555 1_555
N10_6 C54_6 1_555 1_555
C44_6 C51_6 1_555 1_555
C46_6 C48_6 1_555 1_555
N11_6 C51_6 1_555 1_555
C47_6 C48_6 1_555 1_555
N12_6 C52_6 1_555 1_555
N12_6 C53_6 1_555 1_555
C50_6 C52_6 1_555 1_555
Cu13_2 O7_6 1_555 1_555
Cu19_2 O10_6 1_555 1_555
O25_4 C1_6 1_555 1_555
O27_3 C9_6 1_555 1_555
O29_3 C2_6 1_555 1_555
O32_3 C5_6 1_555 1_555
O33_3 C1_6 1_555 1_555
O7_6 C9_6 1_555 1_555
O35_4 C13_6 1_555 1_555
O37_4 C5_6 1_555 1_555
O10_6 C2_6 1_555 1_555
O38_3 C13_6 1_555 1_555
C1_6 C8_6 1_555 1_555
C2_6 C10_6 1_555 1_555
C3_6 C12_6 1_555 1_555
C4_6 H1_6 1_555 1_555
C5_6 C7_6 1_555 1_555
C6_6 H2_6 1_555 1_555
C7_6 C4_6 1_555 1_555
N1_6 C26_6 1_555 1_555
C8_6 C11_6 1_555 1_555
C9_6 C16_6 1_555 1_555
N2_6 C22_6 1_555 1_555
C10_6 C6_6 1_555 1_555
C11_6 H3_6 1_555 1_555
C12_6 C6_6 1_555 1_555
C13_6 C14_6 1_555 1_555
C14_6 C4_6 1_555 1_555
N3_6 H4_6 1_555 1_555
C15_6 C14_6 1_555 1_555
H5_6 C15_6 1_555 1_555
C16_6 C11_6 1_555 1_555
N4_6 C22_6 1_555 1_555
C17_6 C7_6 1_555 1_555
H6_6 C17_6 1_555 1_555
C18_6 C12_6 1_555 1_555
H7_6 C18_6 1_555 1_555
C19_6 C8_6 1_555 1_555
H8_6 C19_6 1_555 1_555
N5_6 H9_6 1_555 1_555
C20_6 C16_6 1_555 1_555
H10_6 C20_6 1_555 1_555
N6_6 H11_6 1_555 1_555
C21_6 N3_6 1_555 1_555
C22_6 N5_6 1_555 1_555
C23_6 C10_6 1_555 1_555
H12_6 C23_6 1_555 1_555
C24_6 C15_6 1_555 1_555
C25_6 C18_6 1_555 1_555
C26_6 N2_6 1_555 1_555
C27_6 N1_6 1_555 1_555
N3_6 C27_6 1_555 1_555
N4_6 C27_6 1_555 1_555
C17_6 C24_6 1_555 1_555
C19_6 C21_6 1_555 1_555
N5_6 C24_6 1_555 1_555
C20_6 C21_6 1_555 1_555
N6_6 C25_6 1_555 1_555
N6_6 C26_6 1_555 1_555
C23_6 C25_6 1_555 1_555
Cu17 O10_7 1_555 1_555
O25 C1_7 1_555 1_555
O30_2 C2_7 1_555 1_555
O31_6 C3_7 1_555 1_555
O6_4 C1_7 1_555 1_555
O10_7 C2_7 1_555 1_555
O40_5 C3_7 1_555 1_555
C1_7 C8_7 1_555 1_555
C2_7 C10_7 1_555 1_555
C3_7 C12_7 1_555 1_555
C6_7 H2_7 1_555 1_555
N1_7 C26_7 1_555 1_555
C8_7 C11_7 1_555 1_555
C10_7 C6_7 1_555 1_555
C11_7 H3_7 1_555 1_555
C12_7 C6_7 1_555 1_555
N3_7 H4_7 1_555 1_555
C18_7 C12_7 1_555 1_555
H7_7 C18_7 1_555 1_555
C19_7 C8_7 1_555 1_555
H8_7 C19_7 1_555 1_555
N6_7 H11_7 1_555 1_555
C21_7 N3_7 1_555 1_555
C23_7 C10_7 1_555 1_555
H12_7 C23_7 1_555 1_555
C25_7 C18_7 1_555 1_555
C27_7 N1_7 1_555 1_555
Cu12 O19_7 1_555 1_555
O27_2 C36_7 1_555 1_555
O19_7 C36_7 1_555 1_555
O36 C40_7 1_555 1_555
O37_5 C32_7 1_555 1_555
O23_4 C40_7 1_555 1_555
C31_7 H13_7 1_555 1_555
C32_7 O32_6 1_555 1_555
C34_7 C31_7 1_555 1_555
C36_7 C43_7 1_555 1_555
N8_7 C49_7 1_555 1_555
C40_7 C41_7 1_555 1_555
C41_7 C31_7 1_555 1_555
C42_7 C41_7 1_555 1_555
H17_7 C42_7 1_555 1_555
N10_7 C49_7 1_555 1_555
C44_7 C34_7 1_555 1_555
H18_7 C44_7 1_555 1_555
N11_7 H21_7 1_555 1_555
C49_7 N11_7 1_555 1_555
C51_7 C42_7 1_555 1_555
Cu13 O6_4 1_555 1_555
Cu19 O23_4 1_555 1_555
O33_4 Cu12 1_555 1_555
O38_4 Cu17 1_555 1_555
N3_7 C27_7 1_555 1_555
C19_7 C21_7 1_555 1_555
C20_7 C21_7 1_555 1_555
N6_7 C25_7 1_555 1_555
N6_7 C26_7 1_555 1_555
C23_7 C25_7 1_555 1_555
C32_7 C34_7 1_555 1_555
C44_7 C51_7 1_555 1_555
N11_7 C51_7 1_555 1_555
Cu11 O7_7 1_555 1_555
O28_2 C9_7 1_555 1_555
O32_5 C5_7 1_555 1_555
O7_7 C9_7 1_555 1_555
O35 C13_7 1_555 1_555
O37_6 C5_7 1_555 1_555
O11_4 C13_7 1_555 1_555
C4_7 H1_7 1_555 1_555
C5_7 C7_7 1_555 1_555
C7_7 C4_7 1_555 1_555
C9_7 C16_7 1_555 1_555
N2_7 C22_7 1_555 1_555
C13_7 C14_7 1_555 1_555
C14_7 C4_7 1_555 1_555
C15_7 C14_7 1_555 1_555
H5_7 C15_7 1_555 1_555
N4_7 C22_7 1_555 1_555
C17_7 C7_7 1_555 1_555
H6_7 C17_7 1_555 1_555
N5_7 H9_7 1_555 1_555
C22_7 N5_7 1_555 1_555
C24_7 C15_7 1_555 1_555
Cu18 O22_7 1_555 1_555
O26 C28_7 1_555 1_555
O29_2 C29_7 1_555 1_555
O31_5 C30_7 1_555 1_555
O18_4 C28_7 1_555 1_555
O22_7 C29_7 1_555 1_555
C28_7 C35_7 1_555 1_555
C29_7 C37_7 1_555 1_555
C30_7 O40_6 1_555 1_555
C33_7 H14_7 1_555 1_555
N7_7 C53_7 1_555 1_555
C35_7 C38_7 1_555 1_555
C37_7 C33_7 1_555 1_555
C38_7 H15_7 1_555 1_555
C39_7 C30_7 1_555 1_555
N9_7 H16_7 1_555 1_555
C45_7 C39_7 1_555 1_555
H19_7 C45_7 1_555 1_555
C46_7 C35_7 1_555 1_555
H20_7 C46_7 1_555 1_555
N12_7 H23_7 1_555 1_555
C48_7 N9_7 1_555 1_555
C50_7 C37_7 1_555 1_555
H24_7 C50_7 1_555 1_555
C52_7 C45_7 1_555 1_555
C54_7 N7_7 1_555 1_555
Cu14 O18_4 1_555 1_555
Cu20 O11_4 1_555 1_555
O34_4 Cu11 1_555 1_555
O39_4 Cu18 1_555 1_555
C17_7 C24_7 1_555 1_555
N5_7 C24_7 1_555 1_555
C33_7 C39_7 1_555 1_555
N9_7 C54_7 1_555 1_555
C46_7 C48_7 1_555 1_555
C47_7 C48_7 1_555 1_555
N12_7 C52_7 1_555 1_555
N12_7 C53_7 1_555 1_555
C50_7 C52_7 1_555 1_555
Cu19 O10_8 1_555 1_555
O25_2 C1_8 1_555 1_555
O29 C2_8 1_555 1_555
O31_8 C3_8 1_555 1_555
O33_4 C1_8 1_555 1_555
O10_8 C2_8 1_555 1_555
O40_7 C3_8 1_555 1_555
C1_8 C8_8 1_555 1_555
C2_8 C10_8 1_555 1_555
C3_8 C12_8 1_555 1_555
C6_8 H2_8 1_555 1_555
N1_8 C26_8 1_555 1_555
C8_8 C11_8 1_555 1_555
C10_8 C6_8 1_555 1_555
C11_8 H3_8 1_555 1_555
C12_8 C6_8 1_555 1_555
N3_8 H4_8 1_555 1_555
C18_8 C12_8 1_555 1_555
H7_8 C18_8 1_555 1_555
C19_8 C8_8 1_555 1_555
H8_8 C19_8 1_555 1_555
N6_8 H11_8 1_555 1_555
C21_8 N3_8 1_555 1_555
C23_8 C10_8 1_555 1_555
H12_8 C23_8 1_555 1_555
C25_8 C18_8 1_555 1_555
C27_8 N1_8 1_555 1_555
Cu14 O19_8 1_555 1_555
O28 C36_8 1_555 1_555
O19_8 C36_8 1_555 1_555
O36_2 C40_8 1_555 1_555
O37_7 C32_8 1_555 1_555
O39_4 C40_8 1_555 1_555
C31_8 H13_8 1_555 1_555
C32_8 O32_8 1_555 1_555
C34_8 C31_8 1_555 1_555
C36_8 C43_8 1_555 1_555
N8_8 C49_8 1_555 1_555
C40_8 C41_8 1_555 1_555
C41_8 C31_8 1_555 1_555
C42_8 C41_8 1_555 1_555
H17_8 C42_8 1_555 1_555
N10_8 C49_8 1_555 1_555
C44_8 C34_8 1_555 1_555
H18_8 C44_8 1_555 1_555
N11_8 H21_8 1_555 1_555
C49_8 N11_8 1_555 1_555
C51_8 C42_8 1_555 1_555
N3_8 C27_8 1_555 1_555
C19_8 C21_8 1_555 1_555
C20_8 C21_8 1_555 1_555
N6_8 C25_8 1_555 1_555
N6_8 C26_8 1_555 1_555
C23_8 C25_8 1_555 1_555
C32_8 C34_8 1_555 1_555
C44_8 C51_8 1_555 1_555
N11_8 C51_8 1_555 1_555
Cu13 O7_8 1_555 1_555
O27 C9_8 1_555 1_555
O32_7 C5_8 1_555 1_555
O7_8 C9_8 1_555 1_555
O35_2 C13_8 1_555 1_555
O37_8 C5_8 1_555 1_555
O38_4 C13_8 1_555 1_555
C4_8 H1_8 1_555 1_555
C5_8 C7_8 1_555 1_555
C7_8 C4_8 1_555 1_555
C9_8 C16_8 1_555 1_555
N2_8 C22_8 1_555 1_555
C13_8 C14_8 1_555 1_555
C14_8 C4_8 1_555 1_555
C15_8 C14_8 1_555 1_555
H5_8 C15_8 1_555 1_555
N4_8 C22_8 1_555 1_555
C17_8 C7_8 1_555 1_555
H6_8 C17_8 1_555 1_555
N5_8 H9_8 1_555 1_555
C22_8 N5_8 1_555 1_555
C24_8 C15_8 1_555 1_555
Cu20 O22_8 1_555 1_555
O26_2 C28_8 1_555 1_555
O30 C29_8 1_555 1_555
O31_7 C30_8 1_555 1_555
O34_4 C28_8 1_555 1_555
O22_8 C29_8 1_555 1_555
C28_8 C35_8 1_555 1_555
C29_8 C37_8 1_555 1_555
C30_8 O40_8 1_555 1_555
C33_8 H14_8 1_555 1_555
N7_8 C53_8 1_555 1_555
C35_8 C38_8 1_555 1_555
C37_8 C33_8 1_555 1_555
C38_8 H15_8 1_555 1_555
C39_8 C30_8 1_555 1_555
N9_8 H16_8 1_555 1_555
C45_8 C39_8 1_555 1_555
H19_8 C45_8 1_555 1_555
C46_8 C35_8 1_555 1_555
H20_8 C46_8 1_555 1_555
N12_8 H23_8 1_555 1_555
C48_8 N9_8 1_555 1_555
C50_8 C37_8 1_555 1_555
H24_8 C50_8 1_555 1_555
C52_8 C45_8 1_555 1_555
C54_8 N7_8 1_555 1_555
C17_8 C24_8 1_555 1_555
N5_8 C24_8 1_555 1_555
C33_8 C39_8 1_555 1_555
N9_8 C54_8 1_555 1_555
C46_8 C48_8 1_555 1_555
C47_8 C48_8 1_555 1_555
N12_8 C52_8 1_555 1_555
N12_8 C53_8 1_555 1_555
C50_8 C52_8 1_555 1_555

#END
