
###############################################################################
#
# This file contains modified crystal structure data generated from the
# MOF subset of the Cambridge Structural Database (CSD) v543 
# hosted by the Cambridge Crystallographic Data Centre (CCDC).
#
# This work is licensed under the Creative Commons
# Attribution-NonCommercial-ShareAlike 4.0 International License.
# To view a copy of this license, visit
# http://creativecommons.org/licenses/by-nc-sa/4.0/
# or send a letter to
# Creative Commons, PO Box 1866, Mountain View, CA 94042, USA.
#
# CIF created using the CSD Python API on 29 September 2022
# The structure has been converted into the P1 space group
# The structure has a 3D framework
# The original CSD entry PAPPAB06 is in the tetragonal crystal system
# The framework has been calculated to contain at least 10.0% void space
# The void calculation uses a probe of radius 1.32A, grid spacing 0.4
#
###############################################################################

data_PAPPAB06
_chemical_formula_moiety         '(C432 H192 Cu40 N96 O180)n'
_symmetry_cell_setting           triclinic
_symmetry_space_group_name_H-M   'P 1'
_symmetry_Int_Tables_number      1
_space_group_name_Hall           'P 1'
loop_
_symmetry_equiv_pos_site_id
_symmetry_equiv_pos_as_xyz
1 x,y,z
_cell_length_a                   26.49940(10)
_cell_length_b                   26.49940(10)
_cell_length_c                   37.9958(4)
_cell_angle_alpha                90
_cell_angle_beta                 90
_cell_angle_gamma                90
_cell_volume                     26681.3
loop_
_atom_site_label
_atom_site_type_symbol
_atom_site_fract_x
_atom_site_fract_y
_atom_site_fract_z
Cu1 Cu 0.07200(5) 0.60877(5) 0.500000
O8 O 0.0199(2) 0.6013(2) 0.46459(16)
O12 O 0.0074(2) 0.6854(2) 0.46408(15)
Cu5 Cu 0.11921(3) 0.17822(3) 0.35178(3)
Cu6 Cu 0.26734(3) 0.65627(3) 0.19428(3)
O13 O 0.1373(2) 0.28928(19) 0.33529(15)
O14 O 0.2670(2) 0.59012(19) 0.21595(15)
O15 O 0.1204(2) 0.6241(2) 0.46296(15)
O16 O 0.3210(2) 0.5581(2) 0.17594(15)
O17 O 0.0983(2) 0.23940(19) 0.37456(15)
O18 O 0.1075(2) 0.70722(19) 0.46387(15)
O19 O 0.3556(2) 0.37836(19) 0.17496(15)
O21 O 0.2270(2) 0.78017(19) 0.33050(15)
O22 O 0.1822(2) 0.81553(19) 0.37461(15)
O23 O 0.3267(2) 0.32913(19) 0.21857(15)
N7 N 0.1667(3) 0.5310(3) 0.3702(2)
N8 N 0.1738(3) 0.4512(3) 0.3418(2)
C28 C 0.1111(3) 0.2816(3) 0.3629(2)
N9 N 0.2260(3) 0.4419(3) 0.2952(2)
H13 H 0.217364 0.410869 0.297703
N10 N 0.1202(3) 0.4646(3) 0.3888(2)
H14 H 0.108525 0.487243 0.402886
C29 C 0.1668(3) 0.7220(3) 0.4057(2)
H15 H 0.154967 0.750339 0.417502
N11 N 0.2165(3) 0.5961(3) 0.3487(2)
H16 H 0.240713 0.603262 0.334485
N12 N 0.2223(3) 0.5213(3) 0.3210(2)
C30 C 0.3100(3) 0.4166(3) 0.2206(2)
C31 C 0.1266(3) 0.6684(3) 0.4510(2)
C32 C 0.1576(3) 0.6740(3) 0.4189(2)
C33 C 0.3330(3) 0.3712(3) 0.2039(2)
C34 C 0.3142(3) 0.4639(3) 0.2052(2)
H17 H 0.332885 0.468095 0.184737
C35 C 0.2935(3) 0.5548(3) 0.2028(2)
C36 C 0.2020(3) 0.7787(3) 0.3587(2)
C37 C 0.0578(3) 0.3217(3) 0.4086(2)
H18 H 0.044445 0.290144 0.413919
C38 C 0.0013(3) 0.3598(3) 0.4538(2)
C39 C 0.0940(3) 0.3271(3) 0.3827(2)
C40 C 0.2905(3) 0.5047(3) 0.2206(2)
C41 C 0.1937(3) 0.7271(3) 0.3748(2)
C42 C 0.0417(3) 0.3642(3) 0.4265(2)
C43 C 0.2811(4) 0.4108(3) 0.2507(3)
H19 H 0.278111 0.379044 0.260940
C44 C 0.0620(3) 0.4113(3) 0.4190(2)
H20 H 0.050257 0.439668 0.430847
C45 C 0.2098(3) 0.6849(3) 0.3565(2)
H21 H 0.227185 0.688606 0.335417
C46 C 0.2615(3) 0.4990(3) 0.2501(2)
H22 H 0.245177 0.526838 0.259730
C47 C 0.2564(4) 0.4519(3) 0.2658(2)
C48 C 0.1738(3) 0.6308(3) 0.4008(3)
H23 H 0.167124 0.598663 0.409468
C49 C 0.2008(3) 0.5473(3) 0.3472(2)
C50 C 0.0997(3) 0.4162(3) 0.3939(3)
C51 C 0.2002(3) 0.6373(3) 0.3695(3)
C52 C 0.1146(3) 0.3740(3) 0.3750(2)
H24 H 0.138450 0.377171 0.357233
C53 C 0.1551(4) 0.4819(3) 0.3657(3)
C54 C 0.2081(4) 0.4736(3) 0.3201(3)
Cu8 Cu 0.05693(5) 0.70088(5) 0.500000
Cu9 Cu 0.17822(3) 0.88079(3) 0.35178(3)
Cu12 Cu 0.38079(3) 0.32178(3) 0.14822(3)
Cu13 Cu 0.32178(3) 0.61921(3) 0.14822(3)
Cu16 Cu 0.34373(3) 0.26734(3) 0.19428(3)
Cu18 Cu 0.23266(3) 0.84373(3) 0.30572(3)
Cu20 Cu 0.15627(3) 0.23266(3) 0.30572(3)
O25 O 0.21072(19) 0.6373(2) 0.16471(15)
O27 O 0.1204(2) 0.6241(2) 0.53704(15)
O29 O 0.0581(2) 0.1790(2) 0.32406(15)
O32 O 0.1444(2) 0.12164(19) 0.32504(15)
O33 O 0.0199(2) 0.6013(2) 0.53541(16)
O35 O 0.2730(2) 0.71983(19) 0.16950(15)
O37 O 0.18447(19) 0.1822(2) 0.37461(15)
O38 O 0.32913(19) 0.6733(2) 0.21857(15)
Cu2 Cu 0.94307(5) 0.29912(5) 0.500000
Cu3 Cu 0.88079(3) 0.82178(3) 0.35178(3)
Cu4 Cu 0.73266(3) 0.34373(3) 0.19428(3)
O1 O 0.8627(2) 0.71072(19) 0.33529(15)
O2 O 0.7330(2) 0.40988(19) 0.21595(15)
O3 O 0.8796(2) 0.3759(2) 0.46296(15)
O4 O 0.6790(2) 0.4419(2) 0.17594(15)
O5 O 0.9017(2) 0.76060(19) 0.37456(15)
O6 O 0.8925(2) 0.29278(19) 0.46387(15)
O7 O 0.6444(2) 0.62164(19) 0.17496(15)
O9 O 0.7730(2) 0.21983(19) 0.33050(15)
O10 O 0.8178(2) 0.18447(19) 0.37461(15)
O11 O 0.6733(2) 0.67087(19) 0.21857(15)
N1 N 0.8333(3) 0.4690(3) 0.3702(2)
N2 N 0.8262(3) 0.5488(3) 0.3418(2)
C1 C 0.8889(3) 0.7184(3) 0.3629(2)
N3 N 0.7740(3) 0.5581(3) 0.2952(2)
H1 H 0.782636 0.589131 0.297703
N4 N 0.8798(3) 0.5354(3) 0.3888(2)
H2 H 0.891475 0.512757 0.402886
C2 C 0.8332(3) 0.2780(3) 0.4057(2)
H3 H 0.845033 0.249661 0.417502
N5 N 0.7835(3) 0.4039(3) 0.3487(2)
H4 H 0.759287 0.396738 0.334485
N6 N 0.7777(3) 0.4787(3) 0.3210(2)
C3 C 0.6900(3) 0.5834(3) 0.2206(2)
C4 C 0.8734(3) 0.3316(3) 0.4510(2)
C5 C 0.8424(3) 0.3260(3) 0.4189(2)
C6 C 0.6670(3) 0.6288(3) 0.2039(2)
C7 C 0.6858(3) 0.5361(3) 0.2052(2)
H5 H 0.667115 0.531905 0.184737
C8 C 0.7065(3) 0.4452(3) 0.2028(2)
C9 C 0.7980(3) 0.2213(3) 0.3587(2)
C10 C 0.9422(3) 0.6783(3) 0.4086(2)
H6 H 0.955555 0.709856 0.413919
C11 C 0.9987(3) 0.6402(3) 0.4538(2)
C12 C 0.9060(3) 0.6729(3) 0.3827(2)
C13 C 0.7095(3) 0.4953(3) 0.2206(2)
C14 C 0.8063(3) 0.2729(3) 0.3748(2)
C15 C 0.9583(3) 0.6358(3) 0.4265(2)
C16 C 0.7189(4) 0.5892(3) 0.2507(3)
H7 H 0.721889 0.620956 0.260940
C17 C 0.9380(3) 0.5887(3) 0.4190(2)
H8 H 0.949743 0.560332 0.430847
C18 C 0.7902(3) 0.3151(3) 0.3565(2)
H9 H 0.772815 0.311394 0.335417
C19 C 0.7385(3) 0.5010(3) 0.2501(2)
H10 H 0.754823 0.473162 0.259730
C20 C 0.7436(4) 0.5481(3) 0.2658(2)
C21 C 0.8262(3) 0.3692(3) 0.4008(3)
H11 H 0.832876 0.401337 0.409468
C22 C 0.7992(3) 0.4527(3) 0.3472(2)
C23 C 0.9003(3) 0.5838(3) 0.3939(3)
C24 C 0.7998(3) 0.3627(3) 0.3695(3)
C25 C 0.8854(3) 0.6260(3) 0.3750(2)
H12 H 0.861550 0.622829 0.357233
C26 C 0.8449(4) 0.5181(3) 0.3657(3)
C27 C 0.7919(4) 0.5264(3) 0.3201(3)
O20 O 0.9801(2) 0.3987(2) 0.46459(16)
O24 O 0.9926(2) 0.3146(2) 0.46408(15)
Cu7 Cu 0.92800(5) 0.39123(5) 0.500000
Cu10 Cu 0.82178(3) 0.11921(3) 0.35178(3)
Cu11 Cu 0.61921(3) 0.67822(3) 0.14822(3)
Cu14 Cu 0.67822(3) 0.38079(3) 0.14822(3)
Cu15 Cu 0.65627(3) 0.73266(3) 0.19428(3)
Cu17 Cu 0.76734(3) 0.15627(3) 0.30572(3)
Cu19 Cu 0.84373(3) 0.76734(3) 0.30572(3)
O26 O 0.78928(19) 0.3627(2) 0.16471(15)
O28 O 0.9419(2) 0.8210(2) 0.32406(15)
O30 O 0.8925(2) 0.29278(19) 0.53613(15)
O31 O 0.8556(2) 0.87836(19) 0.32504(15)
O34 O 0.7270(2) 0.28017(19) 0.16950(15)
O36 O 0.81553(19) 0.8178(2) 0.37461(15)
O39 O 0.67087(19) 0.3267(2) 0.21857(15)
O40 O 0.9926(2) 0.3146(2) 0.53592(15)
O30_2 O 0.1075(2) 0.70722(19) 0.53613(15)
O40_2 O 0.0074(2) 0.6854(2) 0.53592(15)
O27_2 O 0.8796(2) 0.3759(2) 0.53704(15)
O33_2 O 0.9801(2) 0.3987(2) 0.53541(16)
Cu1_2 Cu 0.39123(5) 0.07200(5) 0.500000
O8_2 O 0.3987(2) 0.0199(2) 0.46459(16)
O12_2 O 0.3146(2) 0.0074(2) 0.46408(15)
O13_2 O 0.71072(19) 0.1373(2) 0.33529(15)
O14_2 O 0.40988(19) 0.2670(2) 0.21595(15)
O15_2 O 0.3759(2) 0.1204(2) 0.46296(15)
O16_2 O 0.4419(2) 0.3210(2) 0.17594(15)
O17_2 O 0.76060(19) 0.0983(2) 0.37456(15)
O18_2 O 0.29278(19) 0.1075(2) 0.46387(15)
O19_2 O 0.62164(19) 0.3556(2) 0.17496(15)
O21_2 O 0.21983(19) 0.2270(2) 0.33050(15)
N7_2 N 0.4690(3) 0.1667(3) 0.3702(2)
N8_2 N 0.5488(3) 0.1738(3) 0.3418(2)
C28_2 C 0.7184(3) 0.1111(3) 0.3629(2)
N9_2 N 0.5581(3) 0.2260(3) 0.2952(2)
H13_2 H 0.589131 0.217364 0.297703
N10_2 N 0.5354(3) 0.1202(3) 0.3888(2)
H14_2 H 0.512757 0.108525 0.402886
C29_2 C 0.2780(3) 0.1668(3) 0.4057(2)
H15_2 H 0.249661 0.154967 0.417502
N11_2 N 0.4039(3) 0.2165(3) 0.3487(2)
H16_2 H 0.396738 0.240713 0.334485
N12_2 N 0.4787(3) 0.2223(3) 0.3210(2)
C30_2 C 0.5834(3) 0.3100(3) 0.2206(2)
C31_2 C 0.3316(3) 0.1266(3) 0.4510(2)
C32_2 C 0.3260(3) 0.1576(3) 0.4189(2)
C33_2 C 0.6288(3) 0.3330(3) 0.2039(2)
C34_2 C 0.5361(3) 0.3142(3) 0.2052(2)
H17_2 H 0.531905 0.332885 0.184737
C35_2 C 0.4452(3) 0.2935(3) 0.2028(2)
C36_2 C 0.2213(3) 0.2020(3) 0.3587(2)
C37_2 C 0.6783(3) 0.0578(3) 0.4086(2)
H18_2 H 0.709856 0.044445 0.413919
C38_2 C 0.6402(3) 0.0013(3) 0.4538(2)
C39_2 C 0.6729(3) 0.0940(3) 0.3827(2)
C40_2 C 0.4953(3) 0.2905(3) 0.2206(2)
C41_2 C 0.2729(3) 0.1937(3) 0.3748(2)
C42_2 C 0.6358(3) 0.0417(3) 0.4265(2)
C43_2 C 0.5892(3) 0.2811(4) 0.2507(3)
H19_2 H 0.620956 0.278111 0.260940
C44_2 C 0.5887(3) 0.0620(3) 0.4190(2)
H20_2 H 0.560332 0.050257 0.430847
C45_2 C 0.3151(3) 0.2098(3) 0.3565(2)
H21_2 H 0.311394 0.227185 0.335417
C46_2 C 0.5010(3) 0.2615(3) 0.2501(2)
H22_2 H 0.473162 0.245177 0.259730
C47_2 C 0.5481(3) 0.2564(4) 0.2658(2)
C48_2 C 0.3692(3) 0.1738(3) 0.4008(3)
H23_2 H 0.401337 0.167124 0.409468
C49_2 C 0.4527(3) 0.2008(3) 0.3472(2)
C50_2 C 0.5838(3) 0.0997(3) 0.3939(3)
C51_2 C 0.3627(3) 0.2002(3) 0.3695(3)
C52_2 C 0.6260(3) 0.1146(3) 0.3750(2)
H24_2 H 0.622829 0.138450 0.357233
C53_2 C 0.5181(3) 0.1551(4) 0.3657(3)
C54_2 C 0.5264(3) 0.2081(4) 0.3201(3)
Cu8_2 Cu 0.29912(5) 0.05693(5) 0.500000
O25_2 O 0.3627(2) 0.21072(19) 0.16471(15)
O27_3 O 0.3759(2) 0.1204(2) 0.53704(15)
O29_2 O 0.8210(2) 0.0581(2) 0.32406(15)
O32_2 O 0.87836(19) 0.1444(2) 0.32504(15)
O33_3 O 0.3987(2) 0.0199(2) 0.53541(16)
O35_2 O 0.28017(19) 0.2730(2) 0.16950(15)
Cu2_2 Cu 0.70088(5) 0.94307(5) 0.500000
O1_2 O 0.28928(19) 0.8627(2) 0.33529(15)
O2_2 O 0.59012(19) 0.7330(2) 0.21595(15)
O3_2 O 0.6241(2) 0.8796(2) 0.46296(15)
O4_2 O 0.5581(2) 0.6790(2) 0.17594(15)
O5_2 O 0.23940(19) 0.9017(2) 0.37456(15)
O6_2 O 0.70722(19) 0.8925(2) 0.46387(15)
O7_2 O 0.37836(19) 0.6444(2) 0.17496(15)
O9_2 O 0.78017(19) 0.7730(2) 0.33050(15)
N1_2 N 0.5310(3) 0.8333(3) 0.3702(2)
N2_2 N 0.4512(3) 0.8262(3) 0.3418(2)
C1_2 C 0.2816(3) 0.8889(3) 0.3629(2)
N3_2 N 0.4419(3) 0.7740(3) 0.2952(2)
H1_2 H 0.410869 0.782636 0.297703
N4_2 N 0.4646(3) 0.8798(3) 0.3888(2)
H2_2 H 0.487243 0.891475 0.402886
C2_2 C 0.7220(3) 0.8332(3) 0.4057(2)
H3_2 H 0.750339 0.845033 0.417502
N5_2 N 0.5961(3) 0.7835(3) 0.3487(2)
H4_2 H 0.603262 0.759287 0.334485
N6_2 N 0.5213(3) 0.7777(3) 0.3210(2)
C3_2 C 0.4166(3) 0.6900(3) 0.2206(2)
C4_2 C 0.6684(3) 0.8734(3) 0.4510(2)
C5_2 C 0.6740(3) 0.8424(3) 0.4189(2)
C6_2 C 0.3712(3) 0.6670(3) 0.2039(2)
C7_2 C 0.4639(3) 0.6858(3) 0.2052(2)
H5_2 H 0.468095 0.667115 0.184737
C8_2 C 0.5548(3) 0.7065(3) 0.2028(2)
C9_2 C 0.7787(3) 0.7980(3) 0.3587(2)
C10_2 C 0.3217(3) 0.9422(3) 0.4086(2)
H6_2 H 0.290144 0.955555 0.413919
C11_2 C 0.3598(3) 0.9987(3) 0.4538(2)
C12_2 C 0.3271(3) 0.9060(3) 0.3827(2)
C13_2 C 0.5047(3) 0.7095(3) 0.2206(2)
C14_2 C 0.7271(3) 0.8063(3) 0.3748(2)
C15_2 C 0.3642(3) 0.9583(3) 0.4265(2)
C16_2 C 0.4108(3) 0.7189(4) 0.2507(3)
H7_2 H 0.379044 0.721889 0.260940
C17_2 C 0.4113(3) 0.9380(3) 0.4190(2)
H8_2 H 0.439668 0.949743 0.430847
C18_2 C 0.6849(3) 0.7902(3) 0.3565(2)
H9_2 H 0.688606 0.772815 0.335417
C19_2 C 0.4990(3) 0.7385(3) 0.2501(2)
H10_2 H 0.526838 0.754823 0.259730
C20_2 C 0.4519(3) 0.7436(4) 0.2658(2)
C21_2 C 0.6308(3) 0.8262(3) 0.4008(3)
H11_2 H 0.598663 0.832876 0.409468
C22_2 C 0.5473(3) 0.7992(3) 0.3472(2)
C23_2 C 0.4162(3) 0.9003(3) 0.3939(3)
C24_2 C 0.6373(3) 0.7998(3) 0.3695(3)
C25_2 C 0.3740(3) 0.8854(3) 0.3750(2)
H12_2 H 0.377171 0.861550 0.357233
C26_2 C 0.4819(3) 0.8449(4) 0.3657(3)
C27_2 C 0.4736(3) 0.7919(4) 0.3201(3)
O20_2 O 0.6013(2) 0.9801(2) 0.46459(16)
O24_2 O 0.6854(2) 0.9926(2) 0.46408(15)
Cu7_2 Cu 0.60877(5) 0.92800(5) 0.500000
O26_2 O 0.6373(2) 0.78928(19) 0.16471(15)
O28_2 O 0.1790(2) 0.9419(2) 0.32406(15)
O30_3 O 0.70722(19) 0.8925(2) 0.53613(15)
O31_2 O 0.12164(19) 0.8556(2) 0.32504(15)
O34_2 O 0.71983(19) 0.7270(2) 0.16950(15)
O40_3 O 0.6854(2) 0.9926(2) 0.53592(15)
O30_4 O 0.29278(19) 0.1075(2) 0.53613(15)
O40_4 O 0.3146(2) 0.0074(2) 0.53592(15)
O27_4 O 0.6241(2) 0.8796(2) 0.53704(15)
O33_4 O 0.6013(2) 0.9801(2) 0.53541(16)
Cu1_3 Cu 0.57200(5) 0.10877(5) 0.000000
Cu8_3 Cu 0.55693(5) 0.20088(5) 0.000000
O27_5 O 0.6204(2) 0.1241(2) 0.03704(15)
O33_5 O 0.5199(2) 0.1013(2) 0.03541(16)
Cu1_4 Cu 0.57200(5) 0.10877(5) 1.000000
Cu3_2 Cu 0.38079(3) 0.32178(3) 0.85178(3)
O1_3 O 0.3627(2) 0.21072(19) 0.83529(15)
O5_3 O 0.4017(2) 0.26060(19) 0.87456(15)
O7_3 O 0.1444(2) 0.12164(19) 0.67496(15)
O8_3 O 0.5199(2) 0.1013(2) 0.96459(16)
O11_2 O 0.1733(2) 0.17087(19) 0.71857(15)
O12_3 O 0.5074(2) 0.1854(2) 0.96408(15)
N2_3 N 0.3262(3) 0.0488(3) 0.8418(2)
C1_3 C 0.3889(3) 0.2184(3) 0.8629(2)
N3_3 N 0.2740(3) 0.0581(3) 0.7952(2)
H1_3 H 0.282636 0.089131 0.797703
N4_3 N 0.3798(3) 0.0354(3) 0.8888(2)
H2_3 H 0.391475 0.012757 0.902886
C3_3 C 0.1900(3) 0.0834(3) 0.7206(2)
C6_3 C 0.1670(3) 0.1288(3) 0.7039(2)
C7_3 C 0.1858(3) 0.0361(3) 0.7052(2)
H5_3 H 0.167115 0.031905 0.684737
C10_3 C 0.4422(3) 0.1783(3) 0.9086(2)
H6_3 H 0.455555 0.209856 0.913919
C11_3 C 0.4987(3) 0.1402(3) 0.9538(2)
C12_3 C 0.4060(3) 0.1729(3) 0.8827(2)
C15_3 C 0.4583(3) 0.1358(3) 0.9265(2)
C16_3 C 0.2189(4) 0.0892(3) 0.7507(3)
H7_3 H 0.221889 0.120956 0.760940
C17_3 C 0.4380(3) 0.0887(3) 0.9190(2)
H8_3 H 0.449743 0.060332 0.930847
C19_3 C 0.2385(3) 0.0010(3) 0.7501(2)
C20_3 C 0.2436(4) 0.0481(3) 0.7658(2)
C23_3 C 0.4003(3) 0.0838(3) 0.8939(3)
C25_3 C 0.3854(3) 0.1260(3) 0.8750(2)
H12_3 H 0.361550 0.122829 0.857233
C26_3 C 0.3449(4) 0.0181(3) 0.8657(3)
C27_3 C 0.2919(4) 0.0264(3) 0.8201(3)
Cu6_2 Cu 0.76734(3) 0.15627(3) 0.69428(3)
O14_3 O 0.7670(2) 0.09012(19) 0.71595(15)
O15_3 O 0.6204(2) 0.1241(2) 0.96296(15)
O16_3 O 0.8210(2) 0.0581(2) 0.67594(15)
O18_3 O 0.6075(2) 0.20722(19) 0.96387(15)
O21_3 O 0.7270(2) 0.28017(19) 0.83050(15)
O22_2 O 0.6822(2) 0.31553(19) 0.87461(15)
N7_3 N 0.6667(3) 0.0310(3) 0.8702(2)
C29_3 C 0.6668(3) 0.2220(3) 0.9057(2)
H15_3 H 0.654967 0.250339 0.917502
N11_3 N 0.7165(3) 0.0961(3) 0.8487(2)
H16_3 H 0.740713 0.103262 0.834485
N12_3 N 0.7223(3) 0.0213(3) 0.8210(2)
C31_3 C 0.6266(3) 0.1684(3) 0.9510(2)
C32_3 C 0.6576(3) 0.1740(3) 0.9189(2)
C35_3 C 0.7935(3) 0.0548(3) 0.7028(2)
C36_3 C 0.7020(3) 0.2787(3) 0.8587(2)
C40_3 C 0.7905(3) 0.0047(3) 0.7206(2)
C41_3 C 0.6937(3) 0.2271(3) 0.8748(2)
C45_3 C 0.7098(3) 0.1849(3) 0.8565(2)
H21_3 H 0.727185 0.188606 0.835417
H22_3 H 0.745177 0.026838 0.759730
C48_3 C 0.6738(3) 0.1308(3) 0.9008(3)
H23_3 H 0.667124 0.098663 0.909468
C49_3 C 0.7008(3) 0.0473(3) 0.8472(2)
C51_3 C 0.7002(3) 0.1373(3) 0.8695(3)
Cu8_4 Cu 0.55693(5) 0.20088(5) 1.000000
Cu9_2 Cu 0.67822(3) 0.38079(3) 0.85178(3)
Cu11_2 Cu 0.11921(3) 0.17822(3) 0.64822(3)
Cu13_2 Cu 0.82178(3) 0.11921(3) 0.64822(3)
Cu15_2 Cu 0.15627(3) 0.23266(3) 0.69428(3)
Cu18_2 Cu 0.73266(3) 0.34373(3) 0.80572(3)
Cu19_2 Cu 0.34373(3) 0.26734(3) 0.80572(3)
O25_3 O 0.71072(19) 0.1373(2) 0.66471(15)
O28_3 O 0.4419(2) 0.3210(2) 0.82406(15)
O31_3 O 0.3556(2) 0.37836(19) 0.82504(15)
O35_3 O 0.7730(2) 0.21983(19) 0.66950(15)
O36_2 O 0.31553(19) 0.3178(2) 0.87461(15)
O38_2 O 0.82913(19) 0.1733(2) 0.71857(15)
Cu2_3 Cu 0.44307(5) 0.79912(5) 0.000000
Cu7_3 Cu 0.42800(5) 0.89123(5) 0.000000
O30_5 O 0.3925(2) 0.79278(19) 0.03613(15)
O40_5 O 0.4926(2) 0.8146(2) 0.03592(15)
Cu2_4 Cu 0.44307(5) 0.79912(5) 1.000000
Cu4_2 Cu 0.23266(3) 0.84373(3) 0.69428(3)
O2_3 O 0.2330(2) 0.90988(19) 0.71595(15)
O3_3 O 0.3796(2) 0.8759(2) 0.96296(15)
O4_3 O 0.1790(2) 0.9419(2) 0.67594(15)
O6_3 O 0.3925(2) 0.79278(19) 0.96387(15)
O9_3 O 0.2730(2) 0.71983(19) 0.83050(15)
O10_2 O 0.3178(2) 0.68447(19) 0.87461(15)
N1_3 N 0.3333(3) 0.9690(3) 0.8702(2)
C2_3 C 0.3332(3) 0.7780(3) 0.9057(2)
H3_3 H 0.345033 0.749661 0.917502
N5_3 N 0.2835(3) 0.9039(3) 0.8487(2)
H4_3 H 0.259287 0.896738 0.834485
N6_3 N 0.2777(3) 0.9787(3) 0.8210(2)
C4_3 C 0.3734(3) 0.8316(3) 0.9510(2)
C5_3 C 0.3424(3) 0.8260(3) 0.9189(2)
C8_3 C 0.2065(3) 0.9452(3) 0.7028(2)
C9_3 C 0.2980(3) 0.7213(3) 0.8587(2)
C13_3 C 0.2095(3) 0.9953(3) 0.7206(2)
C14_3 C 0.3063(3) 0.7729(3) 0.8748(2)
C18_3 C 0.2902(3) 0.8151(3) 0.8565(2)
H9_3 H 0.272815 0.811394 0.835417
H10_3 H 0.254823 0.973162 0.759730
C21_3 C 0.3262(3) 0.8692(3) 0.9008(3)
H11_3 H 0.332876 0.901337 0.909468
C22_3 C 0.2992(3) 0.9527(3) 0.8472(2)
C24_3 C 0.2998(3) 0.8627(3) 0.8695(3)
Cu5_2 Cu 0.61921(3) 0.67822(3) 0.85178(3)
O13_3 O 0.6373(2) 0.78928(19) 0.83529(15)
O17_3 O 0.5983(2) 0.73940(19) 0.87456(15)
O19_3 O 0.8556(2) 0.87836(19) 0.67496(15)
O20_3 O 0.4801(2) 0.8987(2) 0.96459(16)
O23_2 O 0.8267(2) 0.82913(19) 0.71857(15)
O24_3 O 0.4926(2) 0.8146(2) 0.96408(15)
N8_3 N 0.6738(3) 0.9512(3) 0.8418(2)
C28_3 C 0.6111(3) 0.7816(3) 0.8629(2)
N9_3 N 0.7260(3) 0.9419(3) 0.7952(2)
H13_3 H 0.717364 0.910869 0.797703
N10_3 N 0.6202(3) 0.9646(3) 0.8888(2)
H14_3 H 0.608525 0.987243 0.902886
C30_3 C 0.8100(3) 0.9166(3) 0.7206(2)
C33_3 C 0.8330(3) 0.8712(3) 0.7039(2)
C34_3 C 0.8142(3) 0.9639(3) 0.7052(2)
H17_3 H 0.832885 0.968095 0.684737
C37_3 C 0.5578(3) 0.8217(3) 0.9086(2)
H18_3 H 0.544445 0.790144 0.913919
C38_3 C 0.5013(3) 0.8598(3) 0.9538(2)
C39_3 C 0.5940(3) 0.8271(3) 0.8827(2)
C42_3 C 0.5417(3) 0.8642(3) 0.9265(2)
C43_3 C 0.7811(4) 0.9108(3) 0.7507(3)
H19_3 H 0.778111 0.879044 0.760940
C44_3 C 0.5620(3) 0.9113(3) 0.9190(2)
H20_3 H 0.550257 0.939668 0.930847
C46_3 C 0.7615(3) 0.9990(3) 0.7501(2)
C47_3 C 0.7564(4) 0.9519(3) 0.7658(2)
C50_3 C 0.5997(3) 0.9162(3) 0.8939(3)
C52_3 C 0.6146(3) 0.8740(3) 0.8750(2)
H24_3 H 0.638450 0.877171 0.857233
C53_3 C 0.6551(4) 0.9819(3) 0.8657(3)
C54_3 C 0.7081(4) 0.9736(3) 0.8201(3)
Cu7_4 Cu 0.42800(5) 0.89123(5) 1.000000
Cu10_2 Cu 0.32178(3) 0.61921(3) 0.85178(3)
Cu12_2 Cu 0.88079(3) 0.82178(3) 0.64822(3)
Cu14_2 Cu 0.17822(3) 0.88079(3) 0.64822(3)
Cu16_2 Cu 0.84373(3) 0.76734(3) 0.69428(3)
Cu17_2 Cu 0.26734(3) 0.65627(3) 0.80572(3)
Cu20_2 Cu 0.65627(3) 0.73266(3) 0.80572(3)
O26_3 O 0.28928(19) 0.8627(2) 0.66471(15)
O29_3 O 0.5581(2) 0.6790(2) 0.82406(15)
O32_3 O 0.6444(2) 0.62164(19) 0.82504(15)
O34_3 O 0.2270(2) 0.78017(19) 0.66950(15)
O37_2 O 0.68447(19) 0.6822(2) 0.87461(15)
O39_2 O 0.17087(19) 0.8267(2) 0.71857(15)
O30_6 O 0.6075(2) 0.20722(19) 0.03613(15)
O40_6 O 0.5074(2) 0.1854(2) 0.03592(15)
O27_6 O 0.3796(2) 0.8759(2) 0.03704(15)
O33_6 O 0.4801(2) 0.8987(2) 0.03541(16)
Cu2_5 Cu 0.20088(5) 0.44307(5) 0.000000
Cu7_5 Cu 0.10877(5) 0.42800(5) 0.000000
O30_7 O 0.20722(19) 0.3925(2) 0.03613(15)
O40_7 O 0.1854(2) 0.4926(2) 0.03592(15)
Cu2_6 Cu 0.20088(5) 0.44307(5) 1.000000
O2_4 O 0.09012(19) 0.2330(2) 0.71595(15)
O3_4 O 0.1241(2) 0.3796(2) 0.96296(15)
O4_4 O 0.0581(2) 0.1790(2) 0.67594(15)
O6_4 O 0.20722(19) 0.3925(2) 0.96387(15)
O9_4 O 0.28017(19) 0.2730(2) 0.83050(15)
N1_4 N 0.0310(3) 0.3333(3) 0.8702(2)
C2_4 C 0.2220(3) 0.3332(3) 0.9057(2)
H3_4 H 0.250339 0.345033 0.917502
N5_4 N 0.0961(3) 0.2835(3) 0.8487(2)
H4_4 H 0.103262 0.259287 0.834485
N6_4 N 0.0213(3) 0.2777(3) 0.8210(2)
C4_4 C 0.1684(3) 0.3734(3) 0.9510(2)
C5_4 C 0.1740(3) 0.3424(3) 0.9189(2)
C8_4 C 0.0548(3) 0.2065(3) 0.7028(2)
C9_4 C 0.2787(3) 0.2980(3) 0.8587(2)
C13_4 C 0.0047(3) 0.2095(3) 0.7206(2)
C14_4 C 0.2271(3) 0.3063(3) 0.8748(2)
C18_4 C 0.1849(3) 0.2902(3) 0.8565(2)
H9_4 H 0.188606 0.272815 0.835417
H10_4 H 0.026838 0.254823 0.759730
C21_4 C 0.1308(3) 0.3262(3) 0.9008(3)
H11_4 H 0.098663 0.332876 0.909468
C22_4 C 0.0473(3) 0.2992(3) 0.8472(2)
C24_4 C 0.1373(3) 0.2998(3) 0.8695(3)
O13_4 O 0.21072(19) 0.6373(2) 0.83529(15)
O17_4 O 0.26060(19) 0.5983(2) 0.87456(15)
O19_4 O 0.12164(19) 0.8556(2) 0.67496(15)
O20_4 O 0.1013(2) 0.4801(2) 0.96459(16)
O24_4 O 0.1854(2) 0.4926(2) 0.96408(15)
N8_4 N 0.0488(3) 0.6738(3) 0.8418(2)
C28_4 C 0.2184(3) 0.6111(3) 0.8629(2)
N9_4 N 0.0581(3) 0.7260(3) 0.7952(2)
H13_4 H 0.089131 0.717364 0.797703
N10_4 N 0.0354(3) 0.6202(3) 0.8888(2)
H14_4 H 0.012757 0.608525 0.902886
C30_4 C 0.0834(3) 0.8100(3) 0.7206(2)
C33_4 C 0.1288(3) 0.8330(3) 0.7039(2)
C34_4 C 0.0361(3) 0.8142(3) 0.7052(2)
H17_4 H 0.031905 0.832885 0.684737
C37_4 C 0.1783(3) 0.5578(3) 0.9086(2)
H18_4 H 0.209856 0.544445 0.913919
C38_4 C 0.1402(3) 0.5013(3) 0.9538(2)
C39_4 C 0.1729(3) 0.5940(3) 0.8827(2)
C42_4 C 0.1358(3) 0.5417(3) 0.9265(2)
C43_4 C 0.0892(3) 0.7811(4) 0.7507(3)
H19_4 H 0.120956 0.778111 0.760940
C44_4 C 0.0887(3) 0.5620(3) 0.9190(2)
H20_4 H 0.060332 0.550257 0.930847
C46_4 C 0.0010(3) 0.7615(3) 0.7501(2)
C47_4 C 0.0481(3) 0.7564(4) 0.7658(2)
C50_4 C 0.0838(3) 0.5997(3) 0.8939(3)
C52_4 C 0.1260(3) 0.6146(3) 0.8750(2)
H24_4 H 0.122829 0.638450 0.857233
C53_4 C 0.0181(3) 0.6551(4) 0.8657(3)
C54_4 C 0.0264(3) 0.7081(4) 0.8201(3)
Cu7_6 Cu 0.10877(5) 0.42800(5) 1.000000
O26_4 O 0.1373(2) 0.28928(19) 0.66471(15)
O29_4 O 0.3210(2) 0.5581(2) 0.82406(15)
O32_4 O 0.37836(19) 0.6444(2) 0.82504(15)
O34_4 O 0.21983(19) 0.2270(2) 0.66950(15)
Cu1_5 Cu 0.89123(5) 0.57200(5) 0.000000
Cu8_5 Cu 0.79912(5) 0.55693(5) 0.000000
O27_7 O 0.8759(2) 0.6204(2) 0.03704(15)
O33_7 O 0.8987(2) 0.5199(2) 0.03541(16)
Cu1_6 Cu 0.89123(5) 0.57200(5) 1.000000
O1_4 O 0.78928(19) 0.3627(2) 0.83529(15)
O5_4 O 0.73940(19) 0.4017(2) 0.87456(15)
O7_4 O 0.87836(19) 0.1444(2) 0.67496(15)
O8_4 O 0.8987(2) 0.5199(2) 0.96459(16)
O12_4 O 0.8146(2) 0.5074(2) 0.96408(15)
N2_4 N 0.9512(3) 0.3262(3) 0.8418(2)
C1_4 C 0.7816(3) 0.3889(3) 0.8629(2)
N3_4 N 0.9419(3) 0.2740(3) 0.7952(2)
H1_4 H 0.910869 0.282636 0.797703
N4_4 N 0.9646(3) 0.3798(3) 0.8888(2)
H2_4 H 0.987243 0.391475 0.902886
C3_4 C 0.9166(3) 0.1900(3) 0.7206(2)
C6_4 C 0.8712(3) 0.1670(3) 0.7039(2)
C7_4 C 0.9639(3) 0.1858(3) 0.7052(2)
H5_4 H 0.968095 0.167115 0.684737
C10_4 C 0.8217(3) 0.4422(3) 0.9086(2)
H6_4 H 0.790144 0.455555 0.913919
C11_4 C 0.8598(3) 0.4987(3) 0.9538(2)
C12_4 C 0.8271(3) 0.4060(3) 0.8827(2)
C15_4 C 0.8642(3) 0.4583(3) 0.9265(2)
C16_4 C 0.9108(3) 0.2189(4) 0.7507(3)
H7_4 H 0.879044 0.221889 0.760940
C17_4 C 0.9113(3) 0.4380(3) 0.9190(2)
H8_4 H 0.939668 0.449743 0.930847
C19_4 C 0.9990(3) 0.2385(3) 0.7501(2)
C20_4 C 0.9519(3) 0.2436(4) 0.7658(2)
C23_4 C 0.9162(3) 0.4003(3) 0.8939(3)
C25_4 C 0.8740(3) 0.3854(3) 0.8750(2)
H12_4 H 0.877171 0.361550 0.857233
C26_4 C 0.9819(3) 0.3449(4) 0.8657(3)
C27_4 C 0.9736(3) 0.2919(4) 0.8201(3)
O14_4 O 0.90988(19) 0.7670(2) 0.71595(15)
O15_4 O 0.8759(2) 0.6204(2) 0.96296(15)
O16_4 O 0.9419(2) 0.8210(2) 0.67594(15)
O18_4 O 0.79278(19) 0.6075(2) 0.96387(15)
O21_4 O 0.71983(19) 0.7270(2) 0.83050(15)
N7_4 N 0.9690(3) 0.6667(3) 0.8702(2)
C29_4 C 0.7780(3) 0.6668(3) 0.9057(2)
H15_4 H 0.749661 0.654967 0.917502
N11_4 N 0.9039(3) 0.7165(3) 0.8487(2)
H16_4 H 0.896738 0.740713 0.834485
N12_4 N 0.9787(3) 0.7223(3) 0.8210(2)
C31_4 C 0.8316(3) 0.6266(3) 0.9510(2)
C32_4 C 0.8260(3) 0.6576(3) 0.9189(2)
C35_4 C 0.9452(3) 0.7935(3) 0.7028(2)
C36_4 C 0.7213(3) 0.7020(3) 0.8587(2)
C40_4 C 0.9953(3) 0.7905(3) 0.7206(2)
C41_4 C 0.7729(3) 0.6937(3) 0.8748(2)
C45_4 C 0.8151(3) 0.7098(3) 0.8565(2)
H21_4 H 0.811394 0.727185 0.835417
H22_4 H 0.973162 0.745177 0.759730
C48_4 C 0.8692(3) 0.6738(3) 0.9008(3)
H23_4 H 0.901337 0.667124 0.909468
C49_4 C 0.9527(3) 0.7008(3) 0.8472(2)
C51_4 C 0.8627(3) 0.7002(3) 0.8695(3)
Cu8_6 Cu 0.79912(5) 0.55693(5) 1.000000
O25_4 O 0.8627(2) 0.71072(19) 0.66471(15)
O28_4 O 0.6790(2) 0.4419(2) 0.82406(15)
O31_4 O 0.62164(19) 0.3556(2) 0.82504(15)
O35_4 O 0.78017(19) 0.7730(2) 0.66950(15)
O27_8 O 0.1241(2) 0.3796(2) 0.03704(15)
O33_8 O 0.1013(2) 0.4801(2) 0.03541(16)
O30_8 O 0.79278(19) 0.6075(2) 0.03613(15)
O40_8 O 0.8146(2) 0.5074(2) 0.03592(15)
O2_5 O 0.2670(2) 0.59012(19) 0.78405(15)
O5_5 O 0.0983(2) 0.23940(19) 0.62544(15)
O10_3 O 0.1822(2) 0.81553(19) 0.62539(15)
O11_3 O 0.3267(2) 0.32913(19) 0.78143(15)
N1_5 N 0.1667(3) 0.5310(3) 0.6298(2)
N2_5 N 0.1738(3) 0.4512(3) 0.6582(2)
C1_5 C 0.1111(3) 0.2816(3) 0.6371(2)
N3_5 N 0.2260(3) 0.4419(3) 0.7048(2)
H1_5 H 0.217364 0.410869 0.702297
N4_5 N 0.1202(3) 0.4646(3) 0.6112(2)
H2_5 H 0.108525 0.487243 0.597114
C2_5 C 0.1668(3) 0.7220(3) 0.5943(2)
H3_5 H 0.154967 0.750339 0.582498
N5_5 N 0.2165(3) 0.5961(3) 0.6513(2)
H4_5 H 0.240713 0.603262 0.665515
N6_5 N 0.2223(3) 0.5213(3) 0.6790(2)
C3_5 C 0.3100(3) 0.4166(3) 0.7794(2)
C4_5 C 0.1266(3) 0.6684(3) 0.5490(2)
C5_5 C 0.1576(3) 0.6740(3) 0.5811(2)
C6_5 C 0.3330(3) 0.3712(3) 0.7961(2)
C7_5 C 0.3142(3) 0.4639(3) 0.7948(2)
H5_5 H 0.332885 0.468095 0.815263
C8_5 C 0.2935(3) 0.5548(3) 0.7972(2)
C9_5 C 0.2020(3) 0.7787(3) 0.6413(2)
C10_5 C 0.0578(3) 0.3217(3) 0.5914(2)
H6_5 H 0.044445 0.290144 0.586081
C11_5 C 0.0013(3) 0.3598(3) 0.5462(2)
C12_5 C 0.0940(3) 0.3271(3) 0.6173(2)
C13_5 C 0.2905(3) 0.5047(3) 0.7794(2)
C14_5 C 0.1937(3) 0.7271(3) 0.6252(2)
C15_5 C 0.0417(3) 0.3642(3) 0.5735(2)
C16_5 C 0.2811(4) 0.4108(3) 0.7493(3)
H7_5 H 0.278111 0.379044 0.739060
C17_5 C 0.0620(3) 0.4113(3) 0.5810(2)
H8_5 H 0.050257 0.439668 0.569153
C18_5 C 0.2098(3) 0.6849(3) 0.6435(2)
H9_5 H 0.227185 0.688606 0.664583
C19_5 C 0.2615(3) 0.4990(3) 0.7499(2)
H10_5 H 0.245177 0.526838 0.740270
C20_5 C 0.2564(4) 0.4519(3) 0.7342(2)
C21_5 C 0.1738(3) 0.6308(3) 0.5992(3)
H11_5 H 0.167124 0.598663 0.590532
C22_5 C 0.2008(3) 0.5473(3) 0.6528(2)
C23_5 C 0.0997(3) 0.4162(3) 0.6061(3)
C24_5 C 0.2002(3) 0.6373(3) 0.6305(3)
C25_5 C 0.1146(3) 0.3740(3) 0.6250(2)
H12_5 H 0.138450 0.377171 0.642767
C26_5 C 0.1551(4) 0.4819(3) 0.6343(3)
C27_5 C 0.2081(4) 0.4736(3) 0.6799(3)
O36_3 O 0.18447(19) 0.1822(2) 0.62539(15)
O39_3 O 0.32913(19) 0.6733(2) 0.78143(15)
O14_5 O 0.7330(2) 0.40988(19) 0.78405(15)
O17_5 O 0.9017(2) 0.76060(19) 0.62544(15)
O22_3 O 0.8178(2) 0.18447(19) 0.62539(15)
O23_3 O 0.6733(2) 0.67087(19) 0.78143(15)
N7_5 N 0.8333(3) 0.4690(3) 0.6298(2)
N8_5 N 0.8262(3) 0.5488(3) 0.6582(2)
C28_5 C 0.8889(3) 0.7184(3) 0.6371(2)
N9_5 N 0.7740(3) 0.5581(3) 0.7048(2)
H13_5 H 0.782636 0.589131 0.702297
N10_5 N 0.8798(3) 0.5354(3) 0.6112(2)
H14_5 H 0.891475 0.512757 0.597114
C29_5 C 0.8332(3) 0.2780(3) 0.5943(2)
H15_5 H 0.845033 0.249661 0.582498
N11_5 N 0.7835(3) 0.4039(3) 0.6513(2)
H16_5 H 0.759287 0.396738 0.665515
N12_5 N 0.7777(3) 0.4787(3) 0.6790(2)
C30_5 C 0.6900(3) 0.5834(3) 0.7794(2)
C31_5 C 0.8734(3) 0.3316(3) 0.5490(2)
C32_5 C 0.8424(3) 0.3260(3) 0.5811(2)
C33_5 C 0.6670(3) 0.6288(3) 0.7961(2)
C34_5 C 0.6858(3) 0.5361(3) 0.7948(2)
H17_5 H 0.667115 0.531905 0.815263
C35_5 C 0.7065(3) 0.4452(3) 0.7972(2)
C36_5 C 0.7980(3) 0.2213(3) 0.6413(2)
C37_5 C 0.9422(3) 0.6783(3) 0.5914(2)
H18_5 H 0.955555 0.709856 0.586081
C38_5 C 0.9987(3) 0.6402(3) 0.5462(2)
C39_5 C 0.9060(3) 0.6729(3) 0.6173(2)
C40_5 C 0.7095(3) 0.4953(3) 0.7794(2)
C41_5 C 0.8063(3) 0.2729(3) 0.6252(2)
C42_5 C 0.9583(3) 0.6358(3) 0.5735(2)
C43_5 C 0.7189(4) 0.5892(3) 0.7493(3)
H19_5 H 0.721889 0.620956 0.739060
C44_5 C 0.9380(3) 0.5887(3) 0.5810(2)
H20_5 H 0.949743 0.560332 0.569153
C45_5 C 0.7902(3) 0.3151(3) 0.6435(2)
H21_5 H 0.772815 0.311394 0.664583
C46_5 C 0.7385(3) 0.5010(3) 0.7499(2)
H22_5 H 0.754823 0.473162 0.740270
C47_5 C 0.7436(4) 0.5481(3) 0.7342(2)
C48_5 C 0.8262(3) 0.3692(3) 0.5992(3)
H23_5 H 0.832876 0.401337 0.590532
C49_5 C 0.7992(3) 0.4527(3) 0.6528(2)
C50_5 C 0.9003(3) 0.5838(3) 0.6061(3)
C51_5 C 0.7998(3) 0.3627(3) 0.6305(3)
C52_5 C 0.8854(3) 0.6260(3) 0.6250(2)
H24_5 H 0.861550 0.622829 0.642767
C53_5 C 0.8449(4) 0.5181(3) 0.6343(3)
C54_5 C 0.7919(4) 0.5264(3) 0.6799(3)
O37_3 O 0.81553(19) 0.8178(2) 0.62539(15)
O38_3 O 0.67087(19) 0.3267(2) 0.78143(15)
O2_6 O 0.40988(19) 0.2670(2) 0.78405(15)
O5_6 O 0.76060(19) 0.0983(2) 0.62544(15)
N1_6 N 0.4690(3) 0.1667(3) 0.6298(2)
N2_6 N 0.5488(3) 0.1738(3) 0.6582(2)
C1_6 C 0.7184(3) 0.1111(3) 0.6371(2)
N3_6 N 0.5581(3) 0.2260(3) 0.7048(2)
H1_6 H 0.589131 0.217364 0.702297
N4_6 N 0.5354(3) 0.1202(3) 0.6112(2)
H2_6 H 0.512757 0.108525 0.597114
C2_6 C 0.2780(3) 0.1668(3) 0.5943(2)
H3_6 H 0.249661 0.154967 0.582498
N5_6 N 0.4039(3) 0.2165(3) 0.6513(2)
H4_6 H 0.396738 0.240713 0.665515
N6_6 N 0.4787(3) 0.2223(3) 0.6790(2)
C3_6 C 0.5834(3) 0.3100(3) 0.7794(2)
C4_6 C 0.3316(3) 0.1266(3) 0.5490(2)
C5_6 C 0.3260(3) 0.1576(3) 0.5811(2)
C6_6 C 0.6288(3) 0.3330(3) 0.7961(2)
C7_6 C 0.5361(3) 0.3142(3) 0.7948(2)
H5_6 H 0.531905 0.332885 0.815263
C8_6 C 0.4452(3) 0.2935(3) 0.7972(2)
C9_6 C 0.2213(3) 0.2020(3) 0.6413(2)
C10_6 C 0.6783(3) 0.0578(3) 0.5914(2)
H6_6 H 0.709856 0.044445 0.586081
C11_6 C 0.6402(3) 0.0013(3) 0.5462(2)
C12_6 C 0.6729(3) 0.0940(3) 0.6173(2)
C13_6 C 0.4953(3) 0.2905(3) 0.7794(2)
C14_6 C 0.2729(3) 0.1937(3) 0.6252(2)
C15_6 C 0.6358(3) 0.0417(3) 0.5735(2)
C16_6 C 0.5892(3) 0.2811(4) 0.7493(3)
H7_6 H 0.620956 0.278111 0.739060
C17_6 C 0.5887(3) 0.0620(3) 0.5810(2)
H8_6 H 0.560332 0.050257 0.569153
C18_6 C 0.3151(3) 0.2098(3) 0.6435(2)
H9_6 H 0.311394 0.227185 0.664583
C19_6 C 0.5010(3) 0.2615(3) 0.7499(2)
H10_6 H 0.473162 0.245177 0.740270
C20_6 C 0.5481(3) 0.2564(4) 0.7342(2)
C21_6 C 0.3692(3) 0.1738(3) 0.5992(3)
H11_6 H 0.401337 0.167124 0.590532
C22_6 C 0.4527(3) 0.2008(3) 0.6528(2)
C23_6 C 0.5838(3) 0.0997(3) 0.6061(3)
C24_6 C 0.3627(3) 0.2002(3) 0.6305(3)
C25_6 C 0.6260(3) 0.1146(3) 0.6250(2)
H12_6 H 0.622829 0.138450 0.642767
C26_6 C 0.5181(3) 0.1551(4) 0.6343(3)
C27_6 C 0.5264(3) 0.2081(4) 0.6799(3)
O14_6 O 0.59012(19) 0.7330(2) 0.78405(15)
O17_6 O 0.23940(19) 0.9017(2) 0.62544(15)
N7_6 N 0.5310(3) 0.8333(3) 0.6298(2)
N8_6 N 0.4512(3) 0.8262(3) 0.6582(2)
C28_6 C 0.2816(3) 0.8889(3) 0.6371(2)
N9_6 N 0.4419(3) 0.7740(3) 0.7048(2)
H13_6 H 0.410869 0.782636 0.702297
N10_6 N 0.4646(3) 0.8798(3) 0.6112(2)
H14_6 H 0.487243 0.891475 0.597114
C29_6 C 0.7220(3) 0.8332(3) 0.5943(2)
H15_6 H 0.750339 0.845033 0.582498
N11_6 N 0.5961(3) 0.7835(3) 0.6513(2)
H16_6 H 0.603262 0.759287 0.665515
N12_6 N 0.5213(3) 0.7777(3) 0.6790(2)
C30_6 C 0.4166(3) 0.6900(3) 0.7794(2)
C31_6 C 0.6684(3) 0.8734(3) 0.5490(2)
C32_6 C 0.6740(3) 0.8424(3) 0.5811(2)
C33_6 C 0.3712(3) 0.6670(3) 0.7961(2)
C34_6 C 0.4639(3) 0.6858(3) 0.7948(2)
H17_6 H 0.468095 0.667115 0.815263
C35_6 C 0.5548(3) 0.7065(3) 0.7972(2)
C36_6 C 0.7787(3) 0.7980(3) 0.6413(2)
C37_6 C 0.3217(3) 0.9422(3) 0.5914(2)
H18_6 H 0.290144 0.955555 0.586081
C38_6 C 0.3598(3) 0.9987(3) 0.5462(2)
C39_6 C 0.3271(3) 0.9060(3) 0.6173(2)
C40_6 C 0.5047(3) 0.7095(3) 0.7794(2)
C41_6 C 0.7271(3) 0.8063(3) 0.6252(2)
C42_6 C 0.3642(3) 0.9583(3) 0.5735(2)
C43_6 C 0.4108(3) 0.7189(4) 0.7493(3)
H19_6 H 0.379044 0.721889 0.739060
C44_6 C 0.4113(3) 0.9380(3) 0.5810(2)
H20_6 H 0.439668 0.949743 0.569153
C45_6 C 0.6849(3) 0.7902(3) 0.6435(2)
H21_6 H 0.688606 0.772815 0.664583
C46_6 C 0.4990(3) 0.7385(3) 0.7499(2)
H22_6 H 0.526838 0.754823 0.740270
C47_6 C 0.4519(3) 0.7436(4) 0.7342(2)
C48_6 C 0.6308(3) 0.8262(3) 0.5992(3)
H23_6 H 0.598663 0.832876 0.590532
C49_6 C 0.5473(3) 0.7992(3) 0.6528(2)
C50_6 C 0.4162(3) 0.9003(3) 0.6061(3)
C51_6 C 0.6373(3) 0.7998(3) 0.6305(3)
C52_6 C 0.3740(3) 0.8854(3) 0.6250(2)
H24_6 H 0.377171 0.861550 0.642767
C53_6 C 0.4819(3) 0.8449(4) 0.6343(3)
C54_6 C 0.4736(3) 0.7919(4) 0.6799(3)
O2_7 O 0.7670(2) 0.09012(19) 0.28405(15)
O10_4 O 0.6822(2) 0.31553(19) 0.12539(15)
N1_7 N 0.6667(3) 0.0310(3) 0.1298(2)
C2_7 C 0.6668(3) 0.2220(3) 0.0943(2)
H3_7 H 0.654967 0.250339 0.082498
N5_7 N 0.7165(3) 0.0961(3) 0.1513(2)
H4_7 H 0.740713 0.103262 0.165515
N6_7 N 0.7223(3) 0.0213(3) 0.1790(2)
C4_7 C 0.6266(3) 0.1684(3) 0.0490(2)
C5_7 C 0.6576(3) 0.1740(3) 0.0811(2)
C8_7 C 0.7935(3) 0.0548(3) 0.2972(2)
C9_7 C 0.7020(3) 0.2787(3) 0.1413(2)
C13_7 C 0.7905(3) 0.0047(3) 0.2794(2)
C14_7 C 0.6937(3) 0.2271(3) 0.1252(2)
C18_7 C 0.7098(3) 0.1849(3) 0.1435(2)
H9_7 H 0.727185 0.188606 0.164583
H10_7 H 0.745177 0.026838 0.240270
C21_7 C 0.6738(3) 0.1308(3) 0.0992(3)
H11_7 H 0.667124 0.098663 0.090532
C22_7 C 0.7008(3) 0.0473(3) 0.1528(2)
C24_7 C 0.7002(3) 0.1373(3) 0.1305(3)
O17_7 O 0.4017(2) 0.26060(19) 0.12544(15)
O23_4 O 0.1733(2) 0.17087(19) 0.28143(15)
N8_7 N 0.3262(3) 0.0488(3) 0.1582(2)
C28_7 C 0.3889(3) 0.2184(3) 0.1371(2)
N9_7 N 0.2740(3) 0.0581(3) 0.2048(2)
H13_7 H 0.282636 0.089131 0.202297
N10_7 N 0.3798(3) 0.0354(3) 0.1112(2)
H14_7 H 0.391475 0.012757 0.097114
C30_7 C 0.1900(3) 0.0834(3) 0.2794(2)
C33_7 C 0.1670(3) 0.1288(3) 0.2961(2)
C34_7 C 0.1858(3) 0.0361(3) 0.2948(2)
H17_7 H 0.167115 0.031905 0.315263
C37_7 C 0.4422(3) 0.1783(3) 0.0914(2)
H18_7 H 0.455555 0.209856 0.086081
C38_7 C 0.4987(3) 0.1402(3) 0.0462(2)
C39_7 C 0.4060(3) 0.1729(3) 0.1173(2)
C42_7 C 0.4583(3) 0.1358(3) 0.0735(2)
C43_7 C 0.2189(4) 0.0892(3) 0.2493(3)
H19_7 H 0.221889 0.120956 0.239060
C44_7 C 0.4380(3) 0.0887(3) 0.0810(2)
H20_7 H 0.449743 0.060332 0.069153
C46_7 C 0.2385(3) 0.0010(3) 0.2499(2)
C47_7 C 0.2436(4) 0.0481(3) 0.2342(2)
C50_7 C 0.4003(3) 0.0838(3) 0.1061(3)
C52_7 C 0.3854(3) 0.1260(3) 0.1250(2)
H24_7 H 0.361550 0.122829 0.142767
C53_7 C 0.3449(4) 0.0181(3) 0.1343(3)
C54_7 C 0.2919(4) 0.0264(3) 0.1799(3)
O37_4 O 0.31553(19) 0.3178(2) 0.12539(15)
O39_4 O 0.82913(19) 0.1733(2) 0.28143(15)
O5_7 O 0.5983(2) 0.73940(19) 0.12544(15)
O11_4 O 0.8267(2) 0.82913(19) 0.28143(15)
N2_7 N 0.6738(3) 0.9512(3) 0.1582(2)
C1_7 C 0.6111(3) 0.7816(3) 0.1371(2)
N3_7 N 0.7260(3) 0.9419(3) 0.2048(2)
H1_7 H 0.717364 0.910869 0.202297
N4_7 N 0.6202(3) 0.9646(3) 0.1112(2)
H2_7 H 0.608525 0.987243 0.097114
C3_7 C 0.8100(3) 0.9166(3) 0.2794(2)
C6_7 C 0.8330(3) 0.8712(3) 0.2961(2)
C7_7 C 0.8142(3) 0.9639(3) 0.2948(2)
H5_7 H 0.832885 0.968095 0.315263
C10_7 C 0.5578(3) 0.8217(3) 0.0914(2)
H6_7 H 0.544445 0.790144 0.086081
C11_7 C 0.5013(3) 0.8598(3) 0.0462(2)
C12_7 C 0.5940(3) 0.8271(3) 0.1173(2)
C15_7 C 0.5417(3) 0.8642(3) 0.0735(2)
C16_7 C 0.7811(4) 0.9108(3) 0.2493(3)
H7_7 H 0.778111 0.879044 0.239060
C17_7 C 0.5620(3) 0.9113(3) 0.0810(2)
H8_7 H 0.550257 0.939668 0.069153
C19_7 C 0.7615(3) 0.9990(3) 0.2499(2)
C20_7 C 0.7564(4) 0.9519(3) 0.2342(2)
C23_7 C 0.5997(3) 0.9162(3) 0.1061(3)
C25_7 C 0.6146(3) 0.8740(3) 0.1250(2)
H12_7 H 0.638450 0.877171 0.142767
C26_7 C 0.6551(4) 0.9819(3) 0.1343(3)
C27_7 C 0.7081(4) 0.9736(3) 0.1799(3)
O14_7 O 0.2330(2) 0.90988(19) 0.28405(15)
O22_4 O 0.3178(2) 0.68447(19) 0.12539(15)
N7_7 N 0.3333(3) 0.9690(3) 0.1298(2)
C29_7 C 0.3332(3) 0.7780(3) 0.0943(2)
H15_7 H 0.345033 0.749661 0.082498
N11_7 N 0.2835(3) 0.9039(3) 0.1513(2)
H16_7 H 0.259287 0.896738 0.165515
N12_7 N 0.2777(3) 0.9787(3) 0.1790(2)
C31_7 C 0.3734(3) 0.8316(3) 0.0490(2)
C32_7 C 0.3424(3) 0.8260(3) 0.0811(2)
C35_7 C 0.2065(3) 0.9452(3) 0.2972(2)
C36_7 C 0.2980(3) 0.7213(3) 0.1413(2)
C40_7 C 0.2095(3) 0.9953(3) 0.2794(2)
C41_7 C 0.3063(3) 0.7729(3) 0.1252(2)
C45_7 C 0.2902(3) 0.8151(3) 0.1435(2)
H21_7 H 0.272815 0.811394 0.164583
H22_7 H 0.254823 0.973162 0.240270
C48_7 C 0.3262(3) 0.8692(3) 0.0992(3)
H23_7 H 0.332876 0.901337 0.090532
C49_7 C 0.2992(3) 0.9527(3) 0.1528(2)
C51_7 C 0.2998(3) 0.8627(3) 0.1305(3)
O36_4 O 0.68447(19) 0.6822(2) 0.12539(15)
O38_4 O 0.17087(19) 0.8267(2) 0.28143(15)
O5_8 O 0.26060(19) 0.5983(2) 0.12544(15)
N2_8 N 0.0488(3) 0.6738(3) 0.1582(2)
C1_8 C 0.2184(3) 0.6111(3) 0.1371(2)
N3_8 N 0.0581(3) 0.7260(3) 0.2048(2)
H1_8 H 0.089131 0.717364 0.202297
N4_8 N 0.0354(3) 0.6202(3) 0.1112(2)
H2_8 H 0.012757 0.608525 0.097114
C3_8 C 0.0834(3) 0.8100(3) 0.2794(2)
C6_8 C 0.1288(3) 0.8330(3) 0.2961(2)
C7_8 C 0.0361(3) 0.8142(3) 0.2948(2)
H5_8 H 0.031905 0.832885 0.315263
C10_8 C 0.1783(3) 0.5578(3) 0.0914(2)
H6_8 H 0.209856 0.544445 0.086081
C11_8 C 0.1402(3) 0.5013(3) 0.0462(2)
C12_8 C 0.1729(3) 0.5940(3) 0.1173(2)
C15_8 C 0.1358(3) 0.5417(3) 0.0735(2)
C16_8 C 0.0892(3) 0.7811(4) 0.2493(3)
H7_8 H 0.120956 0.778111 0.239060
C17_8 C 0.0887(3) 0.5620(3) 0.0810(2)
H8_8 H 0.060332 0.550257 0.069153
C19_8 C 0.0010(3) 0.7615(3) 0.2499(2)
C20_8 C 0.0481(3) 0.7564(4) 0.2342(2)
C23_8 C 0.0838(3) 0.5997(3) 0.1061(3)
C25_8 C 0.1260(3) 0.6146(3) 0.1250(2)
H12_8 H 0.122829 0.638450 0.142767
C26_8 C 0.0181(3) 0.6551(4) 0.1343(3)
C27_8 C 0.0264(3) 0.7081(4) 0.1799(3)
O14_8 O 0.09012(19) 0.2330(2) 0.28405(15)
N7_8 N 0.0310(3) 0.3333(3) 0.1298(2)
C29_8 C 0.2220(3) 0.3332(3) 0.0943(2)
H15_8 H 0.250339 0.345033 0.082498
N11_8 N 0.0961(3) 0.2835(3) 0.1513(2)
H16_8 H 0.103262 0.259287 0.165515
N12_8 N 0.0213(3) 0.2777(3) 0.1790(2)
C31_8 C 0.1684(3) 0.3734(3) 0.0490(2)
C32_8 C 0.1740(3) 0.3424(3) 0.0811(2)
C35_8 C 0.0548(3) 0.2065(3) 0.2972(2)
C36_8 C 0.2787(3) 0.2980(3) 0.1413(2)
C40_8 C 0.0047(3) 0.2095(3) 0.2794(2)
C41_8 C 0.2271(3) 0.3063(3) 0.1252(2)
C45_8 C 0.1849(3) 0.2902(3) 0.1435(2)
H21_8 H 0.188606 0.272815 0.164583
H22_8 H 0.026838 0.254823 0.240270
C48_8 C 0.1308(3) 0.3262(3) 0.0992(3)
H23_8 H 0.098663 0.332876 0.090532
C49_8 C 0.0473(3) 0.2992(3) 0.1528(2)
C51_8 C 0.1373(3) 0.2998(3) 0.1305(3)
O2_8 O 0.90988(19) 0.7670(2) 0.28405(15)
N1_8 N 0.9690(3) 0.6667(3) 0.1298(2)
C2_8 C 0.7780(3) 0.6668(3) 0.0943(2)
H3_8 H 0.749661 0.654967 0.082498
N5_8 N 0.9039(3) 0.7165(3) 0.1513(2)
H4_8 H 0.896738 0.740713 0.165515
N6_8 N 0.9787(3) 0.7223(3) 0.1790(2)
C4_8 C 0.8316(3) 0.6266(3) 0.0490(2)
C5_8 C 0.8260(3) 0.6576(3) 0.0811(2)
C8_8 C 0.9452(3) 0.7935(3) 0.2972(2)
C9_8 C 0.7213(3) 0.7020(3) 0.1413(2)
C13_8 C 0.9953(3) 0.7905(3) 0.2794(2)
C14_8 C 0.7729(3) 0.6937(3) 0.1252(2)
C18_8 C 0.8151(3) 0.7098(3) 0.1435(2)
H9_8 H 0.811394 0.727185 0.164583
H10_8 H 0.973162 0.745177 0.240270
C21_8 C 0.8692(3) 0.6738(3) 0.0992(3)
H11_8 H 0.901337 0.667124 0.090532
C22_8 C 0.9527(3) 0.7008(3) 0.1528(2)
C24_8 C 0.8627(3) 0.7002(3) 0.1305(3)
O17_8 O 0.73940(19) 0.4017(2) 0.12544(15)
N8_8 N 0.9512(3) 0.3262(3) 0.1582(2)
C28_8 C 0.7816(3) 0.3889(3) 0.1371(2)
N9_8 N 0.9419(3) 0.2740(3) 0.2048(2)
H13_8 H 0.910869 0.282636 0.202297
N10_8 N 0.9646(3) 0.3798(3) 0.1112(2)
H14_8 H 0.987243 0.391475 0.097114
C30_8 C 0.9166(3) 0.1900(3) 0.2794(2)
C33_8 C 0.8712(3) 0.1670(3) 0.2961(2)
C34_8 C 0.9639(3) 0.1858(3) 0.2948(2)
H17_8 H 0.968095 0.167115 0.315263
C37_8 C 0.8217(3) 0.4422(3) 0.0914(2)
H18_8 H 0.790144 0.455555 0.086081
C38_8 C 0.8598(3) 0.4987(3) 0.0462(2)
C39_8 C 0.8271(3) 0.4060(3) 0.1173(2)
C42_8 C 0.8642(3) 0.4583(3) 0.0735(2)
C43_8 C 0.9108(3) 0.2189(4) 0.2493(3)
H19_8 H 0.879044 0.221889 0.239060
C44_8 C 0.9113(3) 0.4380(3) 0.0810(2)
H20_8 H 0.939668 0.449743 0.069153
C46_8 C 0.9990(3) 0.2385(3) 0.2499(2)
C47_8 C 0.9519(3) 0.2436(4) 0.2342(2)
C50_8 C 0.9162(3) 0.4003(3) 0.1061(3)
C52_8 C 0.8740(3) 0.3854(3) 0.1250(2)
H24_8 H 0.877171 0.361550 0.142767
C53_8 C 0.9819(3) 0.3449(4) 0.1343(3)
C54_8 C 0.9736(3) 0.2919(4) 0.1799(3)
loop_
_geom_bond_atom_site_label_1
_geom_bond_atom_site_label_2
_geom_bond_site_symmetry_1
_geom_bond_site_symmetry_2
Cu1 O8 1_555 1_555
Cu5 O17 1_555 1_555
Cu6 O14 1_555 1_555
O13 C28 1_555 1_555
O14 C35 1_555 1_555
O15 Cu1 1_555 1_555
O16 C35 1_555 1_555
O17 C28 1_555 1_555
O18 C31 1_555 1_555
O19 C33 1_555 1_555
O21 C36 1_555 1_555
O22 C36 1_555 1_555
O23 C33 1_555 1_555
N7 C49 1_555 1_555
N8 C53 1_555 1_555
C28 C39 1_555 1_555
N9 H13 1_555 1_555
N10 H14 1_555 1_555
C29 H15 1_555 1_555
N11 H16 1_555 1_555
N12 C49 1_555 1_555
C30 C33 1_555 1_555
C31 O15 1_555 1_555
C32 C29 1_555 1_555
C34 C30 1_555 1_555
H17 C34 1_555 1_555
C35 C40 1_555 1_555
C36 C41 1_555 1_555
C37 H18 1_555 1_555
C39 C37 1_555 1_555
C40 C34 1_555 1_555
C41 C29 1_555 1_555
C42 C37 1_555 1_555
C43 C30 1_555 1_555
H19 C43 1_555 1_555
C44 C42 1_555 1_555
H20 C44 1_555 1_555
C45 C41 1_555 1_555
H21 C45 1_555 1_555
C46 C40 1_555 1_555
H22 C46 1_555 1_555
C47 N9 1_555 1_555
C48 C32 1_555 1_555
H23 C48 1_555 1_555
C49 N11 1_555 1_555
C50 N10 1_555 1_555
C51 N11 1_555 1_555
C52 C39 1_555 1_555
H24 C52 1_555 1_555
C53 N7 1_555 1_555
C54 N8 1_555 1_555
Cu8 Cu1 1_555 1_555
Cu9 O22 1_555 1_555
Cu12 O19 1_555 1_555
Cu13 Cu6 1_555 1_555
Cu16 O23 1_555 1_555
Cu18 O21 1_555 1_555
Cu20 Cu5 1_555 1_555
O25 Cu6 1_555 1_555
O27 Cu1 1_555 1_555
O29 Cu5 1_555 1_555
O32 Cu5 1_555 1_555
O33 Cu1 1_555 1_555
O35 Cu6 1_555 1_555
O37 Cu5 1_555 1_555
O38 Cu6 1_555 1_555
O12 Cu8 1_555 1_555
O13 Cu20 1_555 1_555
O16 Cu13 1_555 1_555
O18 Cu8 1_555 1_555
N9 C54 1_555 1_555
N10 C53 1_555 1_555
N12 C54 1_555 1_555
C31 C32 1_555 1_555
C38 C42 1_555 1_555
C43 C47 1_555 1_555
C44 C50 1_555 1_555
C45 C51 1_555 1_555
C46 C47 1_555 1_555
C48 C51 1_555 1_555
C50 C52 1_555 1_555
Cu9 Cu18 1_555 1_555
Cu12 Cu16 1_555 1_555
Cu2 O6 1_555 1_555
Cu3 O5 1_555 1_555
Cu4 O2 1_555 1_555
O1 C1 1_555 1_555
O2 C8 1_555 1_555
O3 C4 1_555 1_555
O4 C8 1_555 1_555
O5 C1 1_555 1_555
O6 C4 1_555 1_555
O7 C6 1_555 1_555
O9 C9 1_555 1_555
O10 C9 1_555 1_555
O11 C6 1_555 1_555
N1 C22 1_555 1_555
N2 C26 1_555 1_555
C1 C12 1_555 1_555
N3 H1 1_555 1_555
N4 H2 1_555 1_555
C2 H3 1_555 1_555
N5 H4 1_555 1_555
N6 C22 1_555 1_555
C3 C6 1_555 1_555
C4 C5 1_555 1_555
C5 C2 1_555 1_555
C7 C3 1_555 1_555
H5 C7 1_555 1_555
C8 C13 1_555 1_555
C9 C14 1_555 1_555
C10 H6 1_555 1_555
C11 C15 1_555 1_555
C12 C10 1_555 1_555
C13 C7 1_555 1_555
C14 C2 1_555 1_555
C15 C10 1_555 1_555
C16 C3 1_555 1_555
H7 C16 1_555 1_555
C17 C15 1_555 1_555
H8 C17 1_555 1_555
C18 C14 1_555 1_555
H9 C18 1_555 1_555
C19 C13 1_555 1_555
H10 C19 1_555 1_555
C20 N3 1_555 1_555
C21 C5 1_555 1_555
H11 C21 1_555 1_555
C22 N5 1_555 1_555
C23 N4 1_555 1_555
C24 N5 1_555 1_555
C25 C12 1_555 1_555
H12 C25 1_555 1_555
C26 N1 1_555 1_555
C27 N2 1_555 1_555
O24 Cu2 1_555 1_555
Cu7 Cu2 1_555 1_555
Cu10 O10 1_555 1_555
Cu11 O7 1_555 1_555
Cu14 Cu4 1_555 1_555
Cu15 O11 1_555 1_555
Cu17 O9 1_555 1_555
Cu19 Cu3 1_555 1_555
O26 Cu4 1_555 1_555
O28 Cu3 1_555 1_555
O30 Cu2 1_555 1_555
O31 Cu3 1_555 1_555
O34 Cu4 1_555 1_555
O36 Cu3 1_555 1_555
O39 Cu4 1_555 1_555
O40 Cu2 1_555 1_555
O1 Cu19 1_555 1_555
O3 Cu7 1_555 1_555
O4 Cu14 1_555 1_555
N3 C27 1_555 1_555
N4 C26 1_555 1_555
N6 C27 1_555 1_555
C16 C20 1_555 1_555
C17 C23 1_555 1_555
C18 C24 1_555 1_555
C19 C20 1_555 1_555
C21 C24 1_555 1_555
C23 C25 1_555 1_555
O20 Cu7 1_555 1_555
Cu10 Cu17 1_555 1_555
Cu11 Cu15 1_555 1_555
O30_2 Cu8 1_555 1_555
O40_2 Cu8 1_555 1_555
O27_2 Cu7 1_555 1_555
O33_2 Cu7 1_555 1_555
Cu1_2 O8_2 1_555 1_555
Cu10 O17_2 1_555 1_555
Cu16 O14_2 1_555 1_555
O13_2 C28_2 1_555 1_555
O14_2 C35_2 1_555 1_555
O15_2 Cu1_2 1_555 1_555
O16_2 C35_2 1_555 1_555
O17_2 C28_2 1_555 1_555
O18_2 C31_2 1_555 1_555
O19_2 C33_2 1_555 1_555
O21_2 C36_2 1_555 1_555
O37 C36_2 1_555 1_555
O39 C33_2 1_555 1_555
N7_2 C49_2 1_555 1_555
N8_2 C53_2 1_555 1_555
C28_2 C39_2 1_555 1_555
N9_2 H13_2 1_555 1_555
N10_2 H14_2 1_555 1_555
C29_2 H15_2 1_555 1_555
N11_2 H16_2 1_555 1_555
N12_2 C49_2 1_555 1_555
C30_2 C33_2 1_555 1_555
C31_2 O15_2 1_555 1_555
C32_2 C29_2 1_555 1_555
C34_2 C30_2 1_555 1_555
H17_2 C34_2 1_555 1_555
C35_2 C40_2 1_555 1_555
C36_2 C41_2 1_555 1_555
C37_2 H18_2 1_555 1_555
C39_2 C37_2 1_555 1_555
C40_2 C34_2 1_555 1_555
C41_2 C29_2 1_555 1_555
C42_2 C37_2 1_555 1_555
C43_2 C30_2 1_555 1_555
H19_2 C43_2 1_555 1_555
C44_2 C42_2 1_555 1_555
H20_2 C44_2 1_555 1_555
C45_2 C41_2 1_555 1_555
H21_2 C45_2 1_555 1_555
C46_2 C40_2 1_555 1_555
H22_2 C46_2 1_555 1_555
C47_2 N9_2 1_555 1_555
C48_2 C32_2 1_555 1_555
H23_2 C48_2 1_555 1_555
C49_2 N11_2 1_555 1_555
C50_2 N10_2 1_555 1_555
C51_2 N11_2 1_555 1_555
C52_2 C39_2 1_555 1_555
H24_2 C52_2 1_555 1_555
C53_2 N7_2 1_555 1_555
C54_2 N8_2 1_555 1_555
Cu8_2 Cu1_2 1_555 1_555
Cu14 O19_2 1_555 1_555
Cu20 O21_2 1_555 1_555
O25_2 Cu16 1_555 1_555
O27_3 Cu1_2 1_555 1_555
O29_2 Cu10 1_555 1_555
O32_2 Cu10 1_555 1_555
O33_3 Cu1_2 1_555 1_555
O35_2 Cu16 1_555 1_555
O12_2 Cu8_2 1_555 1_555
O13_2 Cu17 1_555 1_555
O16_2 Cu12 1_555 1_555
O18_2 Cu8_2 1_555 1_555
N9_2 C54_2 1_555 1_555
N10_2 C53_2 1_555 1_555
N12_2 C54_2 1_555 1_555
C31_2 C32_2 1_555 1_555
C38_2 C42_2 1_555 1_555
C43_2 C47_2 1_555 1_555
C44_2 C50_2 1_555 1_555
C45_2 C51_2 1_555 1_555
C46_2 C47_2 1_555 1_555
C48_2 C51_2 1_555 1_555
C50_2 C52_2 1_555 1_555
Cu2_2 O6_2 1_555 1_555
Cu9 O5_2 1_555 1_555
Cu15 O2_2 1_555 1_555
O1_2 C1_2 1_555 1_555
O2_2 C8_2 1_555 1_555
O3_2 C4_2 1_555 1_555
O4_2 C8_2 1_555 1_555
O5_2 C1_2 1_555 1_555
O6_2 C4_2 1_555 1_555
O7_2 C6_2 1_555 1_555
O9_2 C9_2 1_555 1_555
O36 C9_2 1_555 1_555
O38 C6_2 1_555 1_555
N1_2 C22_2 1_555 1_555
N2_2 C26_2 1_555 1_555
C1_2 C12_2 1_555 1_555
N3_2 H1_2 1_555 1_555
N4_2 H2_2 1_555 1_555
C2_2 H3_2 1_555 1_555
N5_2 H4_2 1_555 1_555
N6_2 C22_2 1_555 1_555
C3_2 C6_2 1_555 1_555
C4_2 C5_2 1_555 1_555
C5_2 C2_2 1_555 1_555
C7_2 C3_2 1_555 1_555
H5_2 C7_2 1_555 1_555
C8_2 C13_2 1_555 1_555
C9_2 C14_2 1_555 1_555
C10_2 H6_2 1_555 1_555
C11_2 C15_2 1_555 1_555
C12_2 C10_2 1_555 1_555
C13_2 C7_2 1_555 1_555
C14_2 C2_2 1_555 1_555
C15_2 C10_2 1_555 1_555
C16_2 C3_2 1_555 1_555
H7_2 C16_2 1_555 1_555
C17_2 C15_2 1_555 1_555
H8_2 C17_2 1_555 1_555
C18_2 C14_2 1_555 1_555
H9_2 C18_2 1_555 1_555
C19_2 C13_2 1_555 1_555
H10_2 C19_2 1_555 1_555
C20_2 N3_2 1_555 1_555
C21_2 C5_2 1_555 1_555
H11_2 C21_2 1_555 1_555
C22_2 N5_2 1_555 1_555
C23_2 N4_2 1_555 1_555
C24_2 N5_2 1_555 1_555
C25_2 C12_2 1_555 1_555
H12_2 C25_2 1_555 1_555
C26_2 N1_2 1_555 1_555
C27_2 N2_2 1_555 1_555
O24_2 Cu2_2 1_555 1_555
Cu7_2 Cu2_2 1_555 1_555
Cu13 O7_2 1_555 1_555
Cu19 O9_2 1_555 1_555
O26_2 Cu15 1_555 1_555
O28_2 Cu9 1_555 1_555
O30_3 Cu2_2 1_555 1_555
O31_2 Cu9 1_555 1_555
O34_2 Cu15 1_555 1_555
O40_3 Cu2_2 1_555 1_555
O1_2 Cu18 1_555 1_555
O3_2 Cu7_2 1_555 1_555
O4_2 Cu11 1_555 1_555
N3_2 C27_2 1_555 1_555
N4_2 C26_2 1_555 1_555
N6_2 C27_2 1_555 1_555
C16_2 C20_2 1_555 1_555
C17_2 C23_2 1_555 1_555
C18_2 C24_2 1_555 1_555
C19_2 C20_2 1_555 1_555
C21_2 C24_2 1_555 1_555
C23_2 C25_2 1_555 1_555
O20_2 Cu7_2 1_555 1_555
O30_4 Cu8_2 1_555 1_555
O40_4 Cu8_2 1_555 1_555
O27_4 Cu7_2 1_555 1_555
O33_4 Cu7_2 1_555 1_555
Cu8_3 Cu1_3 1_555 1_555
O27_5 Cu1_3 1_555 1_555
O33_5 Cu1_3 1_555 1_555
Cu1_4 O8_3 1_555 1_555
Cu3_2 O5_3 1_555 1_555
O1_3 C1_3 1_555 1_555
O5_3 C1_3 1_555 1_555
O7_3 C6_3 1_555 1_555
O8_3 C11_3 1_555 1_555
O11_2 C6_3 1_555 1_555
O12_3 C11_3 1_555 1_555
N2_3 C26_3 1_555 1_555
C1_3 C12_3 1_555 1_555
N3_3 H1_3 1_555 1_555
N4_3 H2_3 1_555 1_555
C3_3 C6_3 1_555 1_555
C7_3 C3_3 1_555 1_555
H5_3 C7_3 1_555 1_555
C10_3 H6_3 1_555 1_555
C11_3 C15_3 1_555 1_555
C12_3 C10_3 1_555 1_555
C15_3 C10_3 1_555 1_555
C16_3 C3_3 1_555 1_555
H7_3 C16_3 1_555 1_555
C17_3 C15_3 1_555 1_555
H8_3 C17_3 1_555 1_555
C20_3 N3_3 1_555 1_555
C23_3 N4_3 1_555 1_555
C25_3 C12_3 1_555 1_555
H12_3 C25_3 1_555 1_555
C27_3 N2_3 1_555 1_555
Cu6_2 O14_3 1_555 1_555
O14_3 C35_3 1_555 1_555
O15_3 Cu1_4 1_555 1_555
O16_3 C35_3 1_555 1_555
O18_3 C31_3 1_555 1_555
O21_3 C36_3 1_555 1_555
O22_2 C36_3 1_555 1_555
N7_3 C49_3 1_555 1_555
C29_3 H15_3 1_555 1_555
N11_3 H16_3 1_555 1_555
N12_3 C49_3 1_555 1_555
C31_3 O15_3 1_555 1_555
C32_3 C29_3 1_555 1_555
C35_3 C40_3 1_555 1_555
C36_3 C41_3 1_555 1_555
C41_3 C29_3 1_555 1_555
C45_3 C41_3 1_555 1_555
H21_3 C45_3 1_555 1_555
C48_3 C32_3 1_555 1_555
H23_3 C48_3 1_555 1_555
C49_3 N11_3 1_555 1_555
C51_3 N11_3 1_555 1_555
Cu8_4 Cu1_4 1_555 1_555
Cu9_2 O22_2 1_555 1_555
Cu11_2 O7_3 1_555 1_555
Cu13_2 Cu6_2 1_555 1_555
Cu15_2 O11_2 1_555 1_555
Cu18_2 O21_3 1_555 1_555
Cu19_2 Cu3_2 1_555 1_555
O25_3 Cu6_2 1_555 1_555
O28_3 Cu3_2 1_555 1_555
O31_3 Cu3_2 1_555 1_555
O35_3 Cu6_2 1_555 1_555
O36_2 Cu3_2 1_555 1_555
O38_2 Cu6_2 1_555 1_555
O1_3 Cu19_2 1_555 1_555
O12_3 Cu8_4 1_555 1_555
N3_3 C27_3 1_555 1_555
N4_3 C26_3 1_555 1_555
C16_3 C20_3 1_555 1_555
C17_3 C23_3 1_555 1_555
C19_3 C20_3 1_555 1_555
C23_3 C25_3 1_555 1_555
O16_3 Cu13_2 1_555 1_555
O18_3 Cu8_4 1_555 1_555
C31_3 C32_3 1_555 1_555
C45_3 C51_3 1_555 1_555
C48_3 C51_3 1_555 1_555
Cu9_2 Cu18_2 1_555 1_555
Cu11_2 Cu15_2 1_555 1_555
Cu7_3 Cu2_3 1_555 1_555
O30_5 Cu2_3 1_555 1_555
O40_5 Cu2_3 1_555 1_555
Cu2_4 O6_3 1_555 1_555
Cu4_2 O2_3 1_555 1_555
O2_3 C8_3 1_555 1_555
O3_3 C4_3 1_555 1_555
O4_3 C8_3 1_555 1_555
O6_3 C4_3 1_555 1_555
O9_3 C9_3 1_555 1_555
O10_2 C9_3 1_555 1_555
N1_3 C22_3 1_555 1_555
C2_3 H3_3 1_555 1_555
N5_3 H4_3 1_555 1_555
N6_3 C22_3 1_555 1_555
C4_3 C5_3 1_555 1_555
C5_3 C2_3 1_555 1_555
C8_3 C13_3 1_555 1_555
C9_3 C14_3 1_555 1_555
C14_3 C2_3 1_555 1_555
C18_3 C14_3 1_555 1_555
H9_3 C18_3 1_555 1_555
C21_3 C5_3 1_555 1_555
H11_3 C21_3 1_555 1_555
C22_3 N5_3 1_555 1_555
C24_3 N5_3 1_555 1_555
Cu5_2 O17_3 1_555 1_555
O13_3 C28_3 1_555 1_555
O17_3 C28_3 1_555 1_555
O19_3 C33_3 1_555 1_555
O20_3 C38_3 1_555 1_555
O23_2 C33_3 1_555 1_555
O24_3 Cu2_4 1_555 1_555
N8_3 C53_3 1_555 1_555
C28_3 C39_3 1_555 1_555
N9_3 H13_3 1_555 1_555
N10_3 H14_3 1_555 1_555
C30_3 C33_3 1_555 1_555
C34_3 C30_3 1_555 1_555
H17_3 C34_3 1_555 1_555
C37_3 H18_3 1_555 1_555
C38_3 O24_3 1_555 1_555
C39_3 C37_3 1_555 1_555
C42_3 C37_3 1_555 1_555
C43_3 C30_3 1_555 1_555
H19_3 C43_3 1_555 1_555
C44_3 C42_3 1_555 1_555
H20_3 C44_3 1_555 1_555
C47_3 N9_3 1_555 1_555
C50_3 N10_3 1_555 1_555
C52_3 C39_3 1_555 1_555
H24_3 C52_3 1_555 1_555
C54_3 N8_3 1_555 1_555
Cu7_4 Cu2_4 1_555 1_555
Cu10_2 O10_2 1_555 1_555
Cu12_2 O19_3 1_555 1_555
Cu14_2 Cu4_2 1_555 1_555
Cu16_2 O23_2 1_555 1_555
Cu17_2 O9_3 1_555 1_555
Cu20_2 Cu5_2 1_555 1_555
O26_3 Cu4_2 1_555 1_555
O29_3 Cu5_2 1_555 1_555
O32_3 Cu5_2 1_555 1_555
O34_3 Cu4_2 1_555 1_555
O37_2 Cu5_2 1_555 1_555
O39_2 Cu4_2 1_555 1_555
O3_3 Cu7_4 1_555 1_555
O4_3 Cu14_2 1_555 1_555
C18_3 C24_3 1_555 1_555
C21_3 C24_3 1_555 1_555
O13_3 Cu20_2 1_555 1_555
O20_3 Cu7_4 1_555 1_555
N9_3 C54_3 1_555 1_555
N10_3 C53_3 1_555 1_555
C38_3 C42_3 1_555 1_555
C43_3 C47_3 1_555 1_555
C44_3 C50_3 1_555 1_555
C46_3 C47_3 1_555 1_555
C50_3 C52_3 1_555 1_555
Cu10_2 Cu17_2 1_555 1_555
Cu12_2 Cu16_2 1_555 1_555
O30_6 Cu8_3 1_555 1_555
O40_6 Cu8_3 1_555 1_555
O27_6 Cu7_3 1_555 1_555
O33_6 Cu7_3 1_555 1_555
Cu7_5 Cu2_5 1_555 1_555
O30_7 Cu2_5 1_555 1_555
O40_7 Cu2_5 1_555 1_555
Cu2_6 O6_4 1_555 1_555
Cu15_2 O2_4 1_555 1_555
O2_4 C8_4 1_555 1_555
O3_4 C4_4 1_555 1_555
O4_4 C8_4 1_555 1_555
O6_4 C4_4 1_555 1_555
O9_4 C9_4 1_555 1_555
O36_2 C9_4 1_555 1_555
N1_4 C22_4 1_555 1_555
C2_4 H3_4 1_555 1_555
N5_4 H4_4 1_555 1_555
N6_4 C22_4 1_555 1_555
C4_4 C5_4 1_555 1_555
C5_4 C2_4 1_555 1_555
C8_4 C13_4 1_555 1_555
C9_4 C14_4 1_555 1_555
C14_4 C2_4 1_555 1_555
C18_4 C14_4 1_555 1_555
H9_4 C18_4 1_555 1_555
C21_4 C5_4 1_555 1_555
H11_4 C21_4 1_555 1_555
C22_4 N5_4 1_555 1_555
C24_4 N5_4 1_555 1_555
Cu10_2 O17_4 1_555 1_555
O13_4 C28_4 1_555 1_555
O17_4 C28_4 1_555 1_555
O19_4 C33_4 1_555 1_555
O20_4 C38_4 1_555 1_555
O39_2 C33_4 1_555 1_555
O24_4 Cu2_6 1_555 1_555
N8_4 C53_4 1_555 1_555
C28_4 C39_4 1_555 1_555
N9_4 H13_4 1_555 1_555
N10_4 H14_4 1_555 1_555
C30_4 C33_4 1_555 1_555
C34_4 C30_4 1_555 1_555
H17_4 C34_4 1_555 1_555
C37_4 H18_4 1_555 1_555
C38_4 O24_4 1_555 1_555
C39_4 C37_4 1_555 1_555
C42_4 C37_4 1_555 1_555
C43_4 C30_4 1_555 1_555
H19_4 C43_4 1_555 1_555
C44_4 C42_4 1_555 1_555
H20_4 C44_4 1_555 1_555
C47_4 N9_4 1_555 1_555
C50_4 N10_4 1_555 1_555
C52_4 C39_4 1_555 1_555
H24_4 C52_4 1_555 1_555
C54_4 N8_4 1_555 1_555
Cu7_6 Cu2_6 1_555 1_555
Cu14_2 O19_4 1_555 1_555
Cu19_2 O9_4 1_555 1_555
O26_4 Cu15_2 1_555 1_555
O29_4 Cu10_2 1_555 1_555
O32_4 Cu10_2 1_555 1_555
O34_4 Cu15_2 1_555 1_555
O3_4 Cu7_6 1_555 1_555
O4_4 Cu11_2 1_555 1_555
C18_4 C24_4 1_555 1_555
C21_4 C24_4 1_555 1_555
O13_4 Cu17_2 1_555 1_555
O20_4 Cu7_6 1_555 1_555
N9_4 C54_4 1_555 1_555
N10_4 C53_4 1_555 1_555
C38_4 C42_4 1_555 1_555
C43_4 C47_4 1_555 1_555
C44_4 C50_4 1_555 1_555
C46_4 C47_4 1_555 1_555
C50_4 C52_4 1_555 1_555
Cu8_5 Cu1_5 1_555 1_555
O27_7 Cu1_5 1_555 1_555
O33_7 Cu1_5 1_555 1_555
Cu1_6 O8_4 1_555 1_555
Cu9_2 O5_4 1_555 1_555
O1_4 C1_4 1_555 1_555
O5_4 C1_4 1_555 1_555
O7_4 C6_4 1_555 1_555
O8_4 C11_4 1_555 1_555
O38_2 C6_4 1_555 1_555
O12_4 C11_4 1_555 1_555
N2_4 C26_4 1_555 1_555
C1_4 C12_4 1_555 1_555
N3_4 H1_4 1_555 1_555
N4_4 H2_4 1_555 1_555
C3_4 C6_4 1_555 1_555
C7_4 C3_4 1_555 1_555
H5_4 C7_4 1_555 1_555
C10_4 H6_4 1_555 1_555
C11_4 C15_4 1_555 1_555
C12_4 C10_4 1_555 1_555
C15_4 C10_4 1_555 1_555
C16_4 C3_4 1_555 1_555
H7_4 C16_4 1_555 1_555
C17_4 C15_4 1_555 1_555
H8_4 C17_4 1_555 1_555
C20_4 N3_4 1_555 1_555
C23_4 N4_4 1_555 1_555
C25_4 C12_4 1_555 1_555
H12_4 C25_4 1_555 1_555
C27_4 N2_4 1_555 1_555
Cu16_2 O14_4 1_555 1_555
O14_4 C35_4 1_555 1_555
O15_4 Cu1_6 1_555 1_555
O16_4 C35_4 1_555 1_555
O18_4 C31_4 1_555 1_555
O21_4 C36_4 1_555 1_555
O37_2 C36_4 1_555 1_555
N7_4 C49_4 1_555 1_555
C29_4 H15_4 1_555 1_555
N11_4 H16_4 1_555 1_555
N12_4 C49_4 1_555 1_555
C31_4 O15_4 1_555 1_555
C32_4 C29_4 1_555 1_555
C35_4 C40_4 1_555 1_555
C36_4 C41_4 1_555 1_555
C41_4 C29_4 1_555 1_555
C45_4 C41_4 1_555 1_555
H21_4 C45_4 1_555 1_555
C48_4 C32_4 1_555 1_555
H23_4 C48_4 1_555 1_555
C49_4 N11_4 1_555 1_555
C51_4 N11_4 1_555 1_555
Cu8_6 Cu1_6 1_555 1_555
Cu13_2 O7_4 1_555 1_555
Cu20_2 O21_4 1_555 1_555
O25_4 Cu16_2 1_555 1_555
O28_4 Cu9_2 1_555 1_555
O31_4 Cu9_2 1_555 1_555
O35_4 Cu16_2 1_555 1_555
O1_4 Cu18_2 1_555 1_555
O12_4 Cu8_6 1_555 1_555
N3_4 C27_4 1_555 1_555
N4_4 C26_4 1_555 1_555
C16_4 C20_4 1_555 1_555
C17_4 C23_4 1_555 1_555
C19_4 C20_4 1_555 1_555
C23_4 C25_4 1_555 1_555
O16_4 Cu12_2 1_555 1_555
O18_4 Cu8_6 1_555 1_555
C31_4 C32_4 1_555 1_555
C45_4 C51_4 1_555 1_555
C48_4 C51_4 1_555 1_555
O27_8 Cu7_5 1_555 1_555
O33_8 Cu7_5 1_555 1_555
O30_8 Cu8_5 1_555 1_555
O40_8 Cu8_5 1_555 1_555
Cu11_2 O5_5 1_555 1_555
Cu17_2 O2_5 1_555 1_555
O26_4 C1_5 1_555 1_555
O2_5 C8_5 1_555 1_555
O27 C4_5 1_555 1_555
O29_4 C8_5 1_555 1_555
O5_5 C1_5 1_555 1_555
O30_2 C4_5 1_555 1_555
O31_3 C6_5 1_555 1_555
O34_3 C9_5 1_555 1_555
O10_3 C9_5 1_555 1_555
O11_3 C6_5 1_555 1_555
N1_5 C22_5 1_555 1_555
N2_5 C26_5 1_555 1_555
C1_5 C12_5 1_555 1_555
N3_5 H1_5 1_555 1_555
N4_5 H2_5 1_555 1_555
C2_5 H3_5 1_555 1_555
N5_5 H4_5 1_555 1_555
N6_5 C22_5 1_555 1_555
C3_5 C6_5 1_555 1_555
C4_5 C5_5 1_555 1_555
C5_5 C2_5 1_555 1_555
C7_5 C3_5 1_555 1_555
H5_5 C7_5 1_555 1_555
C8_5 C13_5 1_555 1_555
C9_5 C14_5 1_555 1_555
C10_5 H6_5 1_555 1_555
C11_5 C15_5 1_555 1_555
C12_5 C10_5 1_555 1_555
C13_5 C7_5 1_555 1_555
C14_5 C2_5 1_555 1_555
C15_5 C10_5 1_555 1_555
C16_5 C3_5 1_555 1_555
H7_5 C16_5 1_555 1_555
C17_5 C15_5 1_555 1_555
H8_5 C17_5 1_555 1_555
C18_5 C14_5 1_555 1_555
H9_5 C18_5 1_555 1_555
C19_5 C13_5 1_555 1_555
H10_5 C19_5 1_555 1_555
C20_5 N3_5 1_555 1_555
C21_5 C5_5 1_555 1_555
H11_5 C21_5 1_555 1_555
C22_5 N5_5 1_555 1_555
C23_5 N4_5 1_555 1_555
C24_5 N5_5 1_555 1_555
C25_5 C12_5 1_555 1_555
H12_5 C25_5 1_555 1_555
C26_5 N1_5 1_555 1_555
C27_5 N2_5 1_555 1_555
Cu14_2 O10_3 1_555 1_555
Cu19_2 O11_3 1_555 1_555
O36_3 Cu11_2 1_555 1_555
O39_3 Cu17_2 1_555 1_555
N3_5 C27_5 1_555 1_555
N4_5 C26_5 1_555 1_555
N6_5 C27_5 1_555 1_555
C16_5 C20_5 1_555 1_555
C17_5 C23_5 1_555 1_555
C18_5 C24_5 1_555 1_555
C19_5 C20_5 1_555 1_555
C21_5 C24_5 1_555 1_555
C23_5 C25_5 1_555 1_555
Cu12_2 O17_5 1_555 1_555
Cu18_2 O14_5 1_555 1_555
O25_4 C28_5 1_555 1_555
O14_5 C35_5 1_555 1_555
O28_4 C35_5 1_555 1_555
O17_5 C28_5 1_555 1_555
O30 C31_5 1_555 1_555
O32_3 C33_5 1_555 1_555
O35_3 C36_5 1_555 1_555
O22_3 C36_5 1_555 1_555
O23_3 C33_5 1_555 1_555
N7_5 C49_5 1_555 1_555
N8_5 C53_5 1_555 1_555
C28_5 C39_5 1_555 1_555
N9_5 H13_5 1_555 1_555
N10_5 H14_5 1_555 1_555
C29_5 H15_5 1_555 1_555
N11_5 H16_5 1_555 1_555
N12_5 C49_5 1_555 1_555
C30_5 C33_5 1_555 1_555
C31_5 O27_2 1_555 1_555
C32_5 C29_5 1_555 1_555
C34_5 C30_5 1_555 1_555
H17_5 C34_5 1_555 1_555
C35_5 C40_5 1_555 1_555
C36_5 C41_5 1_555 1_555
C37_5 H18_5 1_555 1_555
C39_5 C37_5 1_555 1_555
C40_5 C34_5 1_555 1_555
C41_5 C29_5 1_555 1_555
C42_5 C37_5 1_555 1_555
C43_5 C30_5 1_555 1_555
H19_5 C43_5 1_555 1_555
C44_5 C42_5 1_555 1_555
H20_5 C44_5 1_555 1_555
C45_5 C41_5 1_555 1_555
H21_5 C45_5 1_555 1_555
C46_5 C40_5 1_555 1_555
H22_5 C46_5 1_555 1_555
C47_5 N9_5 1_555 1_555
C48_5 C32_5 1_555 1_555
H23_5 C48_5 1_555 1_555
C49_5 N11_5 1_555 1_555
C50_5 N10_5 1_555 1_555
C51_5 N11_5 1_555 1_555
C52_5 C39_5 1_555 1_555
H24_5 C52_5 1_555 1_555
C53_5 N7_5 1_555 1_555
C54_5 N8_5 1_555 1_555
Cu13_2 O22_3 1_555 1_555
Cu20_2 O23_3 1_555 1_555
O37_3 Cu12_2 1_555 1_555
O38_3 Cu18_2 1_555 1_555
N9_5 C54_5 1_555 1_555
N10_5 C53_5 1_555 1_555
N12_5 C54_5 1_555 1_555
C31_5 C32_5 1_555 1_555
C38_5 C42_5 1_555 1_555
C43_5 C47_5 1_555 1_555
C44_5 C50_5 1_555 1_555
C45_5 C51_5 1_555 1_555
C46_5 C47_5 1_555 1_555
C48_5 C51_5 1_555 1_555
C50_5 C52_5 1_555 1_555
Cu13_2 O5_6 1_555 1_555
Cu19_2 O2_6 1_555 1_555
O25_3 C1_6 1_555 1_555
O2_6 C8_6 1_555 1_555
O27_3 C4_6 1_555 1_555
O28_3 C8_6 1_555 1_555
O5_6 C1_6 1_555 1_555
O30_4 C4_6 1_555 1_555
O31_4 C6_6 1_555 1_555
O34_4 C9_6 1_555 1_555
O36_3 C9_6 1_555 1_555
O38_3 C6_6 1_555 1_555
N1_6 C22_6 1_555 1_555
N2_6 C26_6 1_555 1_555
C1_6 C12_6 1_555 1_555
N3_6 H1_6 1_555 1_555
N4_6 H2_6 1_555 1_555
C2_6 H3_6 1_555 1_555
N5_6 H4_6 1_555 1_555
N6_6 C22_6 1_555 1_555
C3_6 C6_6 1_555 1_555
C4_6 C5_6 1_555 1_555
C5_6 C2_6 1_555 1_555
C7_6 C3_6 1_555 1_555
H5_6 C7_6 1_555 1_555
C8_6 C13_6 1_555 1_555
C9_6 C14_6 1_555 1_555
C10_6 H6_6 1_555 1_555
C11_6 C15_6 1_555 1_555
C12_6 C10_6 1_555 1_555
C13_6 C7_6 1_555 1_555
C14_6 C2_6 1_555 1_555
C15_6 C10_6 1_555 1_555
C16_6 C3_6 1_555 1_555
H7_6 C16_6 1_555 1_555
C17_6 C15_6 1_555 1_555
H8_6 C17_6 1_555 1_555
C18_6 C14_6 1_555 1_555
H9_6 C18_6 1_555 1_555
C19_6 C13_6 1_555 1_555
H10_6 C19_6 1_555 1_555
C20_6 N3_6 1_555 1_555
C21_6 C5_6 1_555 1_555
H11_6 C21_6 1_555 1_555
C22_6 N5_6 1_555 1_555
C23_6 N4_6 1_555 1_555
C24_6 N5_6 1_555 1_555
C25_6 C12_6 1_555 1_555
H12_6 C25_6 1_555 1_555
C26_6 N1_6 1_555 1_555
C27_6 N2_6 1_555 1_555
N3_6 C27_6 1_555 1_555
N4_6 C26_6 1_555 1_555
N6_6 C27_6 1_555 1_555
C16_6 C20_6 1_555 1_555
C17_6 C23_6 1_555 1_555
C18_6 C24_6 1_555 1_555
C19_6 C20_6 1_555 1_555
C21_6 C24_6 1_555 1_555
C23_6 C25_6 1_555 1_555
Cu14_2 O17_6 1_555 1_555
Cu20_2 O14_6 1_555 1_555
O26_3 C28_6 1_555 1_555
O14_6 C35_6 1_555 1_555
O29_3 C35_6 1_555 1_555
O17_6 C28_6 1_555 1_555
O30_3 C31_6 1_555 1_555
O32_4 C33_6 1_555 1_555
O35_4 C36_6 1_555 1_555
O37_3 C36_6 1_555 1_555
O39_3 C33_6 1_555 1_555
N7_6 C49_6 1_555 1_555
N8_6 C53_6 1_555 1_555
C28_6 C39_6 1_555 1_555
N9_6 H13_6 1_555 1_555
N10_6 H14_6 1_555 1_555
C29_6 H15_6 1_555 1_555
N11_6 H16_6 1_555 1_555
N12_6 C49_6 1_555 1_555
C30_6 C33_6 1_555 1_555
C31_6 O27_4 1_555 1_555
C32_6 C29_6 1_555 1_555
C34_6 C30_6 1_555 1_555
H17_6 C34_6 1_555 1_555
C35_6 C40_6 1_555 1_555
C36_6 C41_6 1_555 1_555
C37_6 H18_6 1_555 1_555
C39_6 C37_6 1_555 1_555
C40_6 C34_6 1_555 1_555
C41_6 C29_6 1_555 1_555
C42_6 C37_6 1_555 1_555
C43_6 C30_6 1_555 1_555
H19_6 C43_6 1_555 1_555
C44_6 C42_6 1_555 1_555
H20_6 C44_6 1_555 1_555
C45_6 C41_6 1_555 1_555
H21_6 C45_6 1_555 1_555
C46_6 C40_6 1_555 1_555
H22_6 C46_6 1_555 1_555
C47_6 N9_6 1_555 1_555
C48_6 C32_6 1_555 1_555
H23_6 C48_6 1_555 1_555
C49_6 N11_6 1_555 1_555
C50_6 N10_6 1_555 1_555
C51_6 N11_6 1_555 1_555
C52_6 C39_6 1_555 1_555
H24_6 C52_6 1_555 1_555
C53_6 N7_6 1_555 1_555
C54_6 N8_6 1_555 1_555
N9_6 C54_6 1_555 1_555
N10_6 C53_6 1_555 1_555
N12_6 C54_6 1_555 1_555
C31_6 C32_6 1_555 1_555
C38_6 C42_6 1_555 1_555
C43_6 C47_6 1_555 1_555
C44_6 C50_6 1_555 1_555
C45_6 C51_6 1_555 1_555
C46_6 C47_6 1_555 1_555
C48_6 C51_6 1_555 1_555
C50_6 C52_6 1_555 1_555
Cu17 O2_7 1_555 1_555
O2_7 C8_7 1_555 1_555
O27_5 C4_7 1_555 1_555
O29_2 C8_7 1_555 1_555
O30_6 C4_7 1_555 1_555
O34 C9_7 1_555 1_555
O10_4 C9_7 1_555 1_555
N1_7 C22_7 1_555 1_555
C2_7 H3_7 1_555 1_555
N5_7 H4_7 1_555 1_555
N6_7 C22_7 1_555 1_555
C4_7 C5_7 1_555 1_555
C5_7 C2_7 1_555 1_555
C8_7 C13_7 1_555 1_555
C9_7 C14_7 1_555 1_555
C14_7 C2_7 1_555 1_555
C18_7 C14_7 1_555 1_555
H9_7 C18_7 1_555 1_555
C21_7 C5_7 1_555 1_555
H11_7 C21_7 1_555 1_555
C22_7 N5_7 1_555 1_555
C24_7 N5_7 1_555 1_555
Cu12 O17_7 1_555 1_555
O25_2 C28_7 1_555 1_555
O17_7 C28_7 1_555 1_555
O32 C33_7 1_555 1_555
O33_5 C38_7 1_555 1_555
O23_4 C33_7 1_555 1_555
N8_7 C53_7 1_555 1_555
C28_7 C39_7 1_555 1_555
N9_7 H13_7 1_555 1_555
N10_7 H14_7 1_555 1_555
C30_7 C33_7 1_555 1_555
C34_7 C30_7 1_555 1_555
H17_7 C34_7 1_555 1_555
C37_7 H18_7 1_555 1_555
C38_7 O40_6 1_555 1_555
C39_7 C37_7 1_555 1_555
C42_7 C37_7 1_555 1_555
C43_7 C30_7 1_555 1_555
H19_7 C43_7 1_555 1_555
C44_7 C42_7 1_555 1_555
H20_7 C44_7 1_555 1_555
C47_7 N9_7 1_555 1_555
C50_7 N10_7 1_555 1_555
C52_7 C39_7 1_555 1_555
H24_7 C52_7 1_555 1_555
C54_7 N8_7 1_555 1_555
Cu14 O10_4 1_555 1_555
Cu20 O23_4 1_555 1_555
O37_4 Cu12 1_555 1_555
O39_4 Cu17 1_555 1_555
C18_7 C24_7 1_555 1_555
C21_7 C24_7 1_555 1_555
N9_7 C54_7 1_555 1_555
N10_7 C53_7 1_555 1_555
C38_7 C42_7 1_555 1_555
C43_7 C47_7 1_555 1_555
C44_7 C50_7 1_555 1_555
C46_7 C47_7 1_555 1_555
C50_7 C52_7 1_555 1_555
Cu11 O5_7 1_555 1_555
O26_2 C1_7 1_555 1_555
O5_7 C1_7 1_555 1_555
O31 C6_7 1_555 1_555
O33_6 C11_7 1_555 1_555
O11_4 C6_7 1_555 1_555
O40_5 C11_7 1_555 1_555
N2_7 C26_7 1_555 1_555
C1_7 C12_7 1_555 1_555
N3_7 H1_7 1_555 1_555
N4_7 H2_7 1_555 1_555
C3_7 C6_7 1_555 1_555
C7_7 C3_7 1_555 1_555
H5_7 C7_7 1_555 1_555
C10_7 H6_7 1_555 1_555
C11_7 C15_7 1_555 1_555
C12_7 C10_7 1_555 1_555
C15_7 C10_7 1_555 1_555
C16_7 C3_7 1_555 1_555
H7_7 C16_7 1_555 1_555
C17_7 C15_7 1_555 1_555
H8_7 C17_7 1_555 1_555
C20_7 N3_7 1_555 1_555
C23_7 N4_7 1_555 1_555
C25_7 C12_7 1_555 1_555
H12_7 C25_7 1_555 1_555
C27_7 N2_7 1_555 1_555
Cu18 O14_7 1_555 1_555
O14_7 C35_7 1_555 1_555
O28_2 C35_7 1_555 1_555
O30_5 C31_7 1_555 1_555
O35 C36_7 1_555 1_555
O22_4 C36_7 1_555 1_555
N7_7 C49_7 1_555 1_555
C29_7 H15_7 1_555 1_555
N11_7 H16_7 1_555 1_555
N12_7 C49_7 1_555 1_555
C31_7 O27_6 1_555 1_555
C32_7 C29_7 1_555 1_555
C35_7 C40_7 1_555 1_555
C36_7 C41_7 1_555 1_555
C41_7 C29_7 1_555 1_555
C45_7 C41_7 1_555 1_555
H21_7 C45_7 1_555 1_555
C48_7 C32_7 1_555 1_555
H23_7 C48_7 1_555 1_555
C49_7 N11_7 1_555 1_555
C51_7 N11_7 1_555 1_555
Cu13 O22_4 1_555 1_555
Cu19 O11_4 1_555 1_555
O36_4 Cu11 1_555 1_555
O38_4 Cu18 1_555 1_555
N3_7 C27_7 1_555 1_555
N4_7 C26_7 1_555 1_555
C16_7 C20_7 1_555 1_555
C17_7 C23_7 1_555 1_555
C19_7 C20_7 1_555 1_555
C23_7 C25_7 1_555 1_555
C31_7 C32_7 1_555 1_555
C45_7 C51_7 1_555 1_555
C48_7 C51_7 1_555 1_555
Cu13 O5_8 1_555 1_555
O25 C1_8 1_555 1_555
O5_8 C1_8 1_555 1_555
O31_2 C6_8 1_555 1_555
O33_8 C11_8 1_555 1_555
O38_4 C6_8 1_555 1_555
O40_7 C11_8 1_555 1_555
N2_8 C26_8 1_555 1_555
C1_8 C12_8 1_555 1_555
N3_8 H1_8 1_555 1_555
N4_8 H2_8 1_555 1_555
C3_8 C6_8 1_555 1_555
C7_8 C3_8 1_555 1_555
H5_8 C7_8 1_555 1_555
C10_8 H6_8 1_555 1_555
C11_8 C15_8 1_555 1_555
C12_8 C10_8 1_555 1_555
C15_8 C10_8 1_555 1_555
C16_8 C3_8 1_555 1_555
H7_8 C16_8 1_555 1_555
C17_8 C15_8 1_555 1_555
H8_8 C17_8 1_555 1_555
C20_8 N3_8 1_555 1_555
C23_8 N4_8 1_555 1_555
C25_8 C12_8 1_555 1_555
H12_8 C25_8 1_555 1_555
C27_8 N2_8 1_555 1_555
Cu20 O14_8 1_555 1_555
O14_8 C35_8 1_555 1_555
O29 C35_8 1_555 1_555
O30_7 C31_8 1_555 1_555
O35_2 C36_8 1_555 1_555
O37_4 C36_8 1_555 1_555
N7_8 C49_8 1_555 1_555
C29_8 H15_8 1_555 1_555
N11_8 H16_8 1_555 1_555
N12_8 C49_8 1_555 1_555
C31_8 O27_8 1_555 1_555
C32_8 C29_8 1_555 1_555
C35_8 C40_8 1_555 1_555
C36_8 C41_8 1_555 1_555
C41_8 C29_8 1_555 1_555
C45_8 C41_8 1_555 1_555
H21_8 C45_8 1_555 1_555
C48_8 C32_8 1_555 1_555
H23_8 C48_8 1_555 1_555
C49_8 N11_8 1_555 1_555
C51_8 N11_8 1_555 1_555
N3_8 C27_8 1_555 1_555
N4_8 C26_8 1_555 1_555
C16_8 C20_8 1_555 1_555
C17_8 C23_8 1_555 1_555
C19_8 C20_8 1_555 1_555
C23_8 C25_8 1_555 1_555
C31_8 C32_8 1_555 1_555
C45_8 C51_8 1_555 1_555
C48_8 C51_8 1_555 1_555
Cu19 O2_8 1_555 1_555
O2_8 C8_8 1_555 1_555
O27_7 C4_8 1_555 1_555
O28 C8_8 1_555 1_555
O30_8 C4_8 1_555 1_555
O34_2 C9_8 1_555 1_555
O36_4 C9_8 1_555 1_555
N1_8 C22_8 1_555 1_555
C2_8 H3_8 1_555 1_555
N5_8 H4_8 1_555 1_555
N6_8 C22_8 1_555 1_555
C4_8 C5_8 1_555 1_555
C5_8 C2_8 1_555 1_555
C8_8 C13_8 1_555 1_555
C9_8 C14_8 1_555 1_555
C14_8 C2_8 1_555 1_555
C18_8 C14_8 1_555 1_555
H9_8 C18_8 1_555 1_555
C21_8 C5_8 1_555 1_555
H11_8 C21_8 1_555 1_555
C22_8 N5_8 1_555 1_555
C24_8 N5_8 1_555 1_555
Cu14 O17_8 1_555 1_555
O26 C28_8 1_555 1_555
O17_8 C28_8 1_555 1_555
O32_2 C33_8 1_555 1_555
O33_7 C38_8 1_555 1_555
O39_4 C33_8 1_555 1_555
N8_8 C53_8 1_555 1_555
C28_8 C39_8 1_555 1_555
N9_8 H13_8 1_555 1_555
N10_8 H14_8 1_555 1_555
C30_8 C33_8 1_555 1_555
C34_8 C30_8 1_555 1_555
H17_8 C34_8 1_555 1_555
C37_8 H18_8 1_555 1_555
C38_8 O40_8 1_555 1_555
C39_8 C37_8 1_555 1_555
C42_8 C37_8 1_555 1_555
C43_8 C30_8 1_555 1_555
H19_8 C43_8 1_555 1_555
C44_8 C42_8 1_555 1_555
H20_8 C44_8 1_555 1_555
C47_8 N9_8 1_555 1_555
C50_8 N10_8 1_555 1_555
C52_8 C39_8 1_555 1_555
H24_8 C52_8 1_555 1_555
C54_8 N8_8 1_555 1_555
C18_8 C24_8 1_555 1_555
C21_8 C24_8 1_555 1_555
N9_8 C54_8 1_555 1_555
N10_8 C53_8 1_555 1_555
C38_8 C42_8 1_555 1_555
C43_8 C47_8 1_555 1_555
C44_8 C50_8 1_555 1_555
C46_8 C47_8 1_555 1_555
C50_8 C52_8 1_555 1_555

#END
