
###############################################################################
#
# This file contains modified crystal structure data generated from the
# MOF subset of the Cambridge Structural Database (CSD) v543 
# hosted by the Cambridge Crystallographic Data Centre (CCDC).
#
# This work is licensed under the Creative Commons
# Attribution-NonCommercial-ShareAlike 4.0 International License.
# To view a copy of this license, visit
# http://creativecommons.org/licenses/by-nc-sa/4.0/
# or send a letter to
# Creative Commons, PO Box 1866, Mountain View, CA 94042, USA.
#
# CIF created using the CSD Python API on 29 September 2022
# The structure has been converted into the P1 space group
# The structure has a 3D framework
# The original CSD entry PAPPAB11 is in the tetragonal crystal system
# The framework has been calculated to contain at least 10.0% void space
# The void calculation uses a probe of radius 1.32A, grid spacing 0.4
#
###############################################################################

data_PAPPAB11
_chemical_formula_moiety         '(C432 H192 Cu40 N96 O180)n'
_symmetry_cell_setting           triclinic
_symmetry_space_group_name_H-M   'P 1'
_symmetry_Int_Tables_number      1
_space_group_name_Hall           'P 1'
loop_
_symmetry_equiv_pos_site_id
_symmetry_equiv_pos_as_xyz
1 x,y,z
_cell_length_a                   26.4481(2)
_cell_length_b                   26.4481(2)
_cell_length_c                   37.9140(5)
_cell_angle_alpha                90
_cell_angle_beta                 90
_cell_angle_gamma                90
_cell_volume                     26520.9
loop_
_atom_site_label
_atom_site_type_symbol
_atom_site_fract_x
_atom_site_fract_y
_atom_site_fract_z
Cu2 Cu 0.29921(7) 0.05630(7) 0.500000
Cu3 Cu 0.34320(5) 0.26763(5) 0.80572(4)
Cu4 Cu 0.82215(5) 0.11941(5) 0.64823(4)
O1 O 0.4420(3) 0.3201(3) 0.8249(2)
O2 O 0.3765(3) 0.1204(3) 0.5371(2)
O3 O 0.6216(3) 0.3567(3) 0.8245(2)
O4 O 0.4090(3) 0.2683(3) 0.7836(2)
O5 O 0.6708(3) 0.3255(3) 0.7816(2)
O6 O 0.7104(3) 0.1373(3) 0.6652(2)
O8 O 0.1848(3) 0.1805(3) 0.6258(2)
O9 O 0.7604(3) 0.1003(3) 0.6253(2)
O10 O 0.2940(3) 0.1069(3) 0.5359(2)
O11 O 0.2198(3) 0.2273(3) 0.6690(2)
C1 C 0.7183(3) 0.1115(4) 0.6376(3)
C2 C 0.6285(4) 0.3332(4) 0.7958(4)
C3 C 0.2791(5) 0.1658(5) 0.5946(3)
C4 C 0.6399(5) 0.0015(5) 0.5463(3)
C5 C 0.4442(4) 0.2932(5) 0.7975(4)
C6 C 0.5830(4) 0.3093(5) 0.7796(3)
C7 C 0.6779(5) 0.0580(5) 0.5917(3)
H1 H 0.709451 0.044175 0.586710
C8 C 0.3269(4) 0.1575(5) 0.5812(3)
C9 C 0.3324(5) 0.1254(5) 0.5490(3)
C10 C 0.2733(4) 0.1930(5) 0.6252(3)
N1 N 0.4685(4) 0.1664(5) 0.6300(3)
C11 C 0.5357(4) 0.3136(5) 0.7947(3)
H2 H 0.531444 0.332381 0.815188
C12 C 0.6728(4) 0.0946(5) 0.6173(3)
N2 N 0.5486(4) 0.1736(5) 0.6582(3)
C13 C 0.4954(4) 0.2902(5) 0.7794(3)
C14 C 0.2215(5) 0.2010(5) 0.6411(3)
C15 C 0.6361(5) 0.0423(5) 0.5736(3)
N3 N 0.5576(4) 0.2255(6) 0.7053(3)
H3 H 0.588755 0.216844 0.702687
N4 N 0.4783(4) 0.2213(5) 0.6794(3)
C16 C 0.3150(4) 0.2085(5) 0.6433(3)
H4 H 0.311064 0.225305 0.664640
C17 C 0.5005(4) 0.2608(5) 0.7501(4)
H5 H 0.472682 0.244257 0.740537
C18 C 0.5480(4) 0.2557(6) 0.7347(4)
C19 C 0.5890(5) 0.2803(6) 0.7499(4)
H6 H 0.620851 0.277023 0.739839
C20 C 0.5894(5) 0.0623(6) 0.5812(4)
H7 H 0.560983 0.050494 0.569358
N5 N 0.4035(4) 0.2153(6) 0.6517(4)
H8 H 0.395913 0.238448 0.666704
C21 C 0.6262(5) 0.1140(6) 0.6250(4)
H9 H 0.622883 0.137235 0.643300
C22 C 0.3692(5) 0.1728(6) 0.5998(4)
H10 H 0.401478 0.165068 0.591586
C23 C 0.4531(5) 0.2002(6) 0.6528(4)
C24 C 0.3629(5) 0.1998(6) 0.6305(4)
N6 N 0.5352(5) 0.1201(6) 0.6114(4)
H11 H 0.512383 0.108115 0.597563
C25 C 0.5844(4) 0.0997(6) 0.6062(4)
C26 C 0.5264(5) 0.2079(7) 0.6804(4)
C27 C 0.5184(6) 0.1551(7) 0.6345(4)
H12 H 0.252(3) 0.161(3) 0.580(2)
O19 O 0.3977(3) 0.0193(3) 0.5352(2)
O24 O 0.3143(3) 0.0065(3) 0.5358(2)
Cu7 Cu 0.39144(7) 0.07148(7) 0.500000
Cu9 Cu 0.73237(5) 0.34320(5) 0.80572(4)
Cu11 Cu 0.15680(5) 0.23237(5) 0.69428(4)
Cu13 Cu 0.76763(5) 0.15680(5) 0.69428(4)
Cu16 Cu 0.11941(5) 0.17785(5) 0.64823(4)
Cu17 Cu 0.67785(5) 0.38059(5) 0.85177(4)
Cu20 Cu 0.38059(5) 0.32215(5) 0.85177(4)
O25 O 0.8201(3) 0.0580(3) 0.6751(2)
O28 O 0.8784(3) 0.1433(3) 0.6755(2)
O31 O 0.3255(3) 0.3292(3) 0.7816(2)
O33 O 0.3627(3) 0.2104(3) 0.8348(2)
O35 O 0.8195(3) 0.1848(3) 0.6258(2)
O37 O 0.2940(3) 0.1069(3) 0.4641(2)
O38 O 0.2802(3) 0.2727(3) 0.8310(2)
O40 O 0.3143(3) 0.0065(3) 0.4642(2)
Cu1 Cu 0.60856(7) 0.92852(7) 0.500000
O7 O 0.6023(3) 0.9807(3) 0.5352(2)
O12 O 0.6857(3) 0.9935(3) 0.5358(2)
Cu5 Cu 0.65680(5) 0.73237(5) 0.80572(4)
Cu6 Cu 0.17785(5) 0.88059(5) 0.64823(4)
O13 O 0.5580(3) 0.6799(3) 0.8249(2)
O14 O 0.6235(3) 0.8796(3) 0.5371(2)
O15 O 0.3784(3) 0.6433(3) 0.8245(2)
O16 O 0.5910(3) 0.7317(3) 0.7836(2)
O17 O 0.3292(3) 0.6745(3) 0.7816(2)
O18 O 0.2896(3) 0.8627(3) 0.6652(2)
O20 O 0.8152(3) 0.8195(3) 0.6258(2)
O21 O 0.2396(3) 0.8997(3) 0.6253(2)
O22 O 0.7060(3) 0.8931(3) 0.5359(2)
O23 O 0.7802(3) 0.7727(3) 0.6690(2)
C28 C 0.2817(3) 0.8885(4) 0.6376(3)
C29 C 0.3715(4) 0.6668(4) 0.7958(4)
C30 C 0.7209(5) 0.8342(5) 0.5946(3)
C31 C 0.3601(5) 0.9985(5) 0.5463(3)
C32 C 0.5558(4) 0.7068(5) 0.7975(4)
C33 C 0.4170(4) 0.6907(5) 0.7796(3)
C34 C 0.3221(5) 0.9420(5) 0.5917(3)
H13 H 0.290549 0.955825 0.586710
C35 C 0.6731(4) 0.8425(5) 0.5812(3)
C36 C 0.6676(5) 0.8746(5) 0.5490(3)
C37 C 0.7267(4) 0.8070(5) 0.6252(3)
N7 N 0.5315(4) 0.8336(5) 0.6300(3)
C38 C 0.4643(4) 0.6864(5) 0.7947(3)
H14 H 0.468556 0.667619 0.815188
C39 C 0.3272(4) 0.9054(5) 0.6173(3)
N8 N 0.4514(4) 0.8264(5) 0.6582(3)
C40 C 0.5046(4) 0.7098(5) 0.7794(3)
C41 C 0.7785(5) 0.7990(5) 0.6411(3)
C42 C 0.3639(5) 0.9577(5) 0.5736(3)
N9 N 0.4424(4) 0.7745(6) 0.7053(3)
H15 H 0.411245 0.783156 0.702687
N10 N 0.5217(4) 0.7787(5) 0.6794(3)
C43 C 0.6850(4) 0.7915(5) 0.6433(3)
H16 H 0.688936 0.774695 0.664640
C44 C 0.4995(4) 0.7392(5) 0.7501(4)
H17 H 0.527318 0.755743 0.740537
C45 C 0.4520(4) 0.7443(6) 0.7347(4)
C46 C 0.4110(5) 0.7197(6) 0.7499(4)
H18 H 0.379149 0.722977 0.739839
C47 C 0.4106(5) 0.9377(6) 0.5812(4)
H19 H 0.439017 0.949506 0.569358
N11 N 0.5965(4) 0.7847(6) 0.6517(4)
H20 H 0.604087 0.761552 0.666704
C48 C 0.3738(5) 0.8860(6) 0.6250(4)
H21 H 0.377117 0.862765 0.643300
C49 C 0.6308(5) 0.8272(6) 0.5998(4)
H22 H 0.598522 0.834932 0.591586
C50 C 0.5469(5) 0.7998(6) 0.6528(4)
C51 C 0.6371(5) 0.8002(6) 0.6305(4)
N12 N 0.4648(5) 0.8799(6) 0.6114(4)
H23 H 0.487617 0.891885 0.597563
C52 C 0.4156(4) 0.9003(6) 0.6062(4)
C53 C 0.4736(5) 0.7921(7) 0.6804(4)
C54 C 0.4816(6) 0.8449(7) 0.6345(4)
H24 H 0.748(3) 0.839(3) 0.580(2)
Cu8 Cu 0.70079(7) 0.94370(7) 0.500000
Cu10 Cu 0.26763(5) 0.65680(5) 0.80572(4)
Cu12 Cu 0.84320(5) 0.76763(5) 0.69428(4)
Cu14 Cu 0.23237(5) 0.84320(5) 0.69428(4)
Cu15 Cu 0.88059(5) 0.82215(5) 0.64823(4)
Cu18 Cu 0.32215(5) 0.61941(5) 0.85177(4)
Cu19 Cu 0.61941(5) 0.67785(5) 0.85177(4)
O26 O 0.1799(3) 0.9420(3) 0.6751(2)
O27 O 0.6235(3) 0.8796(3) 0.4629(2)
O29 O 0.1216(3) 0.8567(3) 0.6755(2)
O30 O 0.6745(3) 0.6708(3) 0.7816(2)
O32 O 0.6373(3) 0.7896(3) 0.8348(2)
O34 O 0.6023(3) 0.9807(3) 0.4648(2)
O36 O 0.1805(3) 0.8152(3) 0.6258(2)
O39 O 0.7198(3) 0.7273(3) 0.8310(2)
O27_2 O 0.3765(3) 0.1204(3) 0.4629(2)
O34_2 O 0.3977(3) 0.0193(3) 0.4648(2)
O37_2 O 0.7060(3) 0.8931(3) 0.4641(2)
O40_2 O 0.6857(3) 0.9935(3) 0.4642(2)
Cu1_2 Cu 0.07148(7) 0.60856(7) 0.500000
O7_2 O 0.0193(3) 0.6023(3) 0.5352(2)
O12_2 O 0.0065(3) 0.6857(3) 0.5358(2)
O13_2 O 0.3201(3) 0.5580(3) 0.8249(2)
O14_2 O 0.1204(3) 0.6235(3) 0.5371(2)
O15_2 O 0.3567(3) 0.3784(3) 0.8245(2)
O16_2 O 0.2683(3) 0.5910(3) 0.7836(2)
O18_2 O 0.1373(3) 0.2896(3) 0.6652(2)
O21_2 O 0.1003(3) 0.2396(3) 0.6253(2)
O22_2 O 0.1069(3) 0.7060(3) 0.5359(2)
O23_2 O 0.2273(3) 0.7802(3) 0.6690(2)
C28_2 C 0.1115(4) 0.2817(3) 0.6376(3)
C29_2 C 0.3332(4) 0.3715(4) 0.7958(4)
C30_2 C 0.1658(5) 0.7209(5) 0.5946(3)
C31_2 C 0.0015(5) 0.3601(5) 0.5463(3)
C32_2 C 0.2932(5) 0.5558(4) 0.7975(4)
C33_2 C 0.3093(5) 0.4170(4) 0.7796(3)
C34_2 C 0.0580(5) 0.3221(5) 0.5917(3)
H13_2 H 0.044175 0.290549 0.586710
C35_2 C 0.1575(5) 0.6731(4) 0.5812(3)
C36_2 C 0.1254(5) 0.6676(5) 0.5490(3)
C37_2 C 0.1930(5) 0.7267(4) 0.6252(3)
N7_2 N 0.1664(5) 0.5315(4) 0.6300(3)
C38_2 C 0.3136(5) 0.4643(4) 0.7947(3)
H14_2 H 0.332381 0.468556 0.815188
C39_2 C 0.0946(5) 0.3272(4) 0.6173(3)
N8_2 N 0.1736(5) 0.4514(4) 0.6582(3)
C40_2 C 0.2902(5) 0.5046(4) 0.7794(3)
C41_2 C 0.2010(5) 0.7785(5) 0.6411(3)
C42_2 C 0.0423(5) 0.3639(5) 0.5736(3)
N9_2 N 0.2255(6) 0.4424(4) 0.7053(3)
H15_2 H 0.216844 0.411245 0.702687
N10_2 N 0.2213(5) 0.5217(4) 0.6794(3)
C43_2 C 0.2085(5) 0.6850(4) 0.6433(3)
H16_2 H 0.225305 0.688936 0.664640
C44_2 C 0.2608(5) 0.4995(4) 0.7501(4)
H17_2 H 0.244257 0.527318 0.740537
C45_2 C 0.2557(6) 0.4520(4) 0.7347(4)
C46_2 C 0.2803(6) 0.4110(5) 0.7499(4)
H18_2 H 0.277023 0.379149 0.739839
C47_2 C 0.0623(6) 0.4106(5) 0.5812(4)
H19_2 H 0.050494 0.439017 0.569358
N11_2 N 0.2153(6) 0.5965(4) 0.6517(4)
H20_2 H 0.238448 0.604087 0.666704
C48_2 C 0.1140(6) 0.3738(5) 0.6250(4)
H21_2 H 0.137235 0.377117 0.643300
C49_2 C 0.1728(6) 0.6308(5) 0.5998(4)
H22_2 H 0.165068 0.598522 0.591586
C50_2 C 0.2002(6) 0.5469(5) 0.6528(4)
C51_2 C 0.1998(6) 0.6371(5) 0.6305(4)
N12_2 N 0.1201(6) 0.4648(5) 0.6114(4)
H23_2 H 0.108115 0.487617 0.597563
C52_2 C 0.0997(6) 0.4156(4) 0.6062(4)
C53_2 C 0.2079(7) 0.4736(5) 0.6804(4)
C54_2 C 0.1551(7) 0.4816(6) 0.6345(4)
H24_2 H 0.161(3) 0.748(3) 0.580(2)
Cu8_2 Cu 0.05630(7) 0.70079(7) 0.500000
O26_2 O 0.0580(3) 0.1799(3) 0.6751(2)
O27_3 O 0.1204(3) 0.6235(3) 0.4629(2)
O29_2 O 0.1433(3) 0.1216(3) 0.6755(2)
O32_2 O 0.2104(3) 0.6373(3) 0.8348(2)
O34_3 O 0.0193(3) 0.6023(3) 0.4648(2)
O39_2 O 0.2727(3) 0.7198(3) 0.8310(2)
Cu2_2 Cu 0.94370(7) 0.29921(7) 0.500000
O1_2 O 0.6799(3) 0.4420(3) 0.8249(2)
O2_2 O 0.8796(3) 0.3765(3) 0.5371(2)
O3_2 O 0.6433(3) 0.6216(3) 0.8245(2)
O4_2 O 0.7317(3) 0.4090(3) 0.7836(2)
O6_2 O 0.8627(3) 0.7104(3) 0.6652(2)
O9_2 O 0.8997(3) 0.7604(3) 0.6253(2)
O10_2 O 0.8931(3) 0.2940(3) 0.5359(2)
O11_2 O 0.7727(3) 0.2198(3) 0.6690(2)
C1_2 C 0.8885(4) 0.7183(3) 0.6376(3)
C2_2 C 0.6668(4) 0.6285(4) 0.7958(4)
C3_2 C 0.8342(5) 0.2791(5) 0.5946(3)
C4_2 C 0.9985(5) 0.6399(5) 0.5463(3)
C5_2 C 0.7068(5) 0.4442(4) 0.7975(4)
C6_2 C 0.6907(5) 0.5830(4) 0.7796(3)
C7_2 C 0.9420(5) 0.6779(5) 0.5917(3)
H1_2 H 0.955825 0.709451 0.586710
C8_2 C 0.8425(5) 0.3269(4) 0.5812(3)
C9_2 C 0.8746(5) 0.3324(5) 0.5490(3)
C10_2 C 0.8070(5) 0.2733(4) 0.6252(3)
N1_2 N 0.8336(5) 0.4685(4) 0.6300(3)
C11_2 C 0.6864(5) 0.5357(4) 0.7947(3)
H2_2 H 0.667619 0.531444 0.815188
C12_2 C 0.9054(5) 0.6728(4) 0.6173(3)
N2_2 N 0.8264(5) 0.5486(4) 0.6582(3)
C13_2 C 0.7098(5) 0.4954(4) 0.7794(3)
C14_2 C 0.7990(5) 0.2215(5) 0.6411(3)
C15_2 C 0.9577(5) 0.6361(5) 0.5736(3)
N3_2 N 0.7745(6) 0.5576(4) 0.7053(3)
H3_2 H 0.783156 0.588755 0.702687
N4_2 N 0.7787(5) 0.4783(4) 0.6794(3)
C16_2 C 0.7915(5) 0.3150(4) 0.6433(3)
H4_2 H 0.774695 0.311064 0.664640
C17_2 C 0.7392(5) 0.5005(4) 0.7501(4)
H5_2 H 0.755743 0.472682 0.740537
C18_2 C 0.7443(6) 0.5480(4) 0.7347(4)
C19_2 C 0.7197(6) 0.5890(5) 0.7499(4)
H6_2 H 0.722977 0.620851 0.739839
C20_2 C 0.9377(6) 0.5894(5) 0.5812(4)
H7_2 H 0.949506 0.560983 0.569358
N5_2 N 0.7847(6) 0.4035(4) 0.6517(4)
H8_2 H 0.761552 0.395913 0.666704
C21_2 C 0.8860(6) 0.6262(5) 0.6250(4)
H9_2 H 0.862765 0.622883 0.643300
C22_2 C 0.8272(6) 0.3692(5) 0.5998(4)
H10_2 H 0.834932 0.401478 0.591586
C23_2 C 0.7998(6) 0.4531(5) 0.6528(4)
C24_2 C 0.8002(6) 0.3629(5) 0.6305(4)
N6_2 N 0.8799(6) 0.5352(5) 0.6114(4)
H11_2 H 0.891885 0.512383 0.597563
C25_2 C 0.9003(6) 0.5844(4) 0.6062(4)
C26_2 C 0.7921(7) 0.5264(5) 0.6804(4)
C27_2 C 0.8449(7) 0.5184(6) 0.6345(4)
H12_2 H 0.839(3) 0.252(3) 0.580(2)
O19_2 O 0.9807(3) 0.3977(3) 0.5352(2)
O24_2 O 0.9935(3) 0.3143(3) 0.5358(2)
Cu7_2 Cu 0.92852(7) 0.39144(7) 0.500000
O25_2 O 0.9420(3) 0.8201(3) 0.6751(2)
O28_2 O 0.8567(3) 0.8784(3) 0.6755(2)
O33_2 O 0.7896(3) 0.3627(3) 0.8348(2)
O37_3 O 0.8931(3) 0.2940(3) 0.4641(2)
O38_2 O 0.7273(3) 0.2802(3) 0.8310(2)
O40_3 O 0.9935(3) 0.3143(3) 0.4642(2)
O37_4 O 0.1069(3) 0.7060(3) 0.4641(2)
O40_4 O 0.0065(3) 0.6857(3) 0.4642(2)
O27_4 O 0.8796(3) 0.3765(3) 0.4629(2)
O34_4 O 0.9807(3) 0.3977(3) 0.4648(2)
Cu1_3 Cu 0.10856(7) 0.42852(7) -0.000000
Cu4_2 Cu 0.32215(5) 0.61941(5) 0.14823(4)
O3_3 O 0.1216(3) 0.8567(3) 0.3245(2)
O5_2 O 0.1708(3) 0.8255(3) 0.2816(2)
O6_3 O 0.2104(3) 0.6373(3) 0.1652(2)
O7_3 O 0.1023(3) 0.4807(3) 0.0352(2)
O9_3 O 0.2604(3) 0.6003(3) 0.1253(2)
O12_3 O 0.1857(3) 0.4935(3) 0.0358(2)
C1_3 C 0.2183(3) 0.6115(4) 0.1376(3)
C2_3 C 0.1285(4) 0.8332(4) 0.2958(4)
C4_3 C 0.1399(5) 0.5015(5) 0.0463(3)
C6_3 C 0.0830(4) 0.8093(5) 0.2796(3)
C7_3 C 0.1779(5) 0.5580(5) 0.0917(3)
H1_3 H 0.209451 0.544175 0.086710
C11_3 C 0.0357(4) 0.8136(5) 0.2947(3)
H2_3 H 0.031444 0.832381 0.315188
C12_3 C 0.1728(4) 0.5946(5) 0.1173(3)
N2_3 N 0.0486(4) 0.6736(5) 0.1582(3)
C15_3 C 0.1361(5) 0.5423(5) 0.0736(3)
N3_3 N 0.0576(4) 0.7255(6) 0.2053(3)
H3_3 H 0.088755 0.716844 0.202687
C17_3 C 0.0005(4) 0.7608(5) 0.2501(4)
C18_3 C 0.0480(4) 0.7557(6) 0.2347(4)
C19_3 C 0.0890(5) 0.7803(6) 0.2499(4)
H6_3 H 0.120851 0.777023 0.239839
C20_3 C 0.0894(5) 0.5623(6) 0.0812(4)
H7_3 H 0.060983 0.550494 0.069358
C21_3 C 0.1262(5) 0.6140(6) 0.1250(4)
H9_3 H 0.122883 0.637235 0.143300
N6_3 N 0.0352(5) 0.6201(6) 0.1114(4)
H11_3 H 0.012383 0.608115 0.097563
C25_3 C 0.0844(4) 0.5997(6) 0.1062(4)
C26_3 C 0.0264(5) 0.7079(7) 0.1804(4)
C27_3 C 0.0184(6) 0.6551(7) 0.1345(4)
Cu5_2 Cu 0.15680(5) 0.23237(5) 0.30572(4)
O13_3 O 0.0580(3) 0.1799(3) 0.3249(2)
O14_3 O 0.1235(3) 0.3796(3) 0.0371(2)
O16_3 O 0.0910(3) 0.2317(3) 0.2836(2)
O20_2 O 0.3152(3) 0.3195(3) 0.1258(2)
O22_3 O 0.2060(3) 0.3931(3) 0.0359(2)
O23_3 O 0.2802(3) 0.2727(3) 0.1690(2)
C30_3 C 0.2209(5) 0.3342(5) 0.0946(3)
C32_3 C 0.0558(4) 0.2068(5) 0.2975(4)
C35_3 C 0.1731(4) 0.3425(5) 0.0812(3)
C36_3 C 0.1676(5) 0.3746(5) 0.0490(3)
C37_3 C 0.2267(4) 0.3070(5) 0.1252(3)
N7_3 N 0.0315(4) 0.3336(5) 0.1300(3)
C40_3 C 0.0046(4) 0.2098(5) 0.2794(3)
C41_3 C 0.2785(5) 0.2990(5) 0.1411(3)
N10_3 N 0.0217(4) 0.2787(5) 0.1794(3)
C43_3 C 0.1850(4) 0.2915(5) 0.1433(3)
H16_3 H 0.188936 0.274695 0.164640
H17_3 H 0.027318 0.255743 0.240537
N11_3 N 0.0965(4) 0.2847(6) 0.1517(4)
H20_3 H 0.104087 0.261552 0.166704
C49_3 C 0.1308(5) 0.3272(6) 0.0998(4)
H22_3 H 0.098522 0.334932 0.091586
C50_3 C 0.0469(5) 0.2998(6) 0.1528(4)
C51_3 C 0.1371(5) 0.3002(6) 0.1305(4)
H24_3 H 0.248(3) 0.339(3) 0.080(2)
Cu8_3 Cu 0.20079(7) 0.44370(7) -0.000000
Cu9_2 Cu 0.23237(5) 0.84320(5) 0.30572(4)
Cu12_2 Cu 0.34320(5) 0.26763(5) 0.19428(4)
Cu13_2 Cu 0.26763(5) 0.65680(5) 0.19428(4)
Cu15_2 Cu 0.38059(5) 0.32215(5) 0.14823(4)
Cu17_2 Cu 0.17785(5) 0.88059(5) 0.35177(4)
Cu19_2 Cu 0.11941(5) 0.17785(5) 0.35177(4)
O25_3 O 0.3201(3) 0.5580(3) 0.1751(2)
O28_3 O 0.3784(3) 0.6433(3) 0.1755(2)
O30_2 O 0.1745(3) 0.1708(3) 0.2816(2)
O32_3 O 0.1373(3) 0.2896(3) 0.3348(2)
O35_2 O 0.3195(3) 0.6848(3) 0.1258(2)
O39_3 O 0.2198(3) 0.2273(3) 0.3310(2)
Cu1_4 Cu 0.10856(7) 0.42852(7) 1.000000
Cu8_4 Cu 0.20079(7) 0.44370(7) 1.000000
O27_5 O 0.1235(3) 0.3796(3) 0.9629(2)
O34_5 O 0.1023(3) 0.4807(3) 0.9648(2)
Cu2_3 Cu 0.79921(7) 0.55630(7) -0.000000
Cu3_2 Cu 0.84320(5) 0.76763(5) 0.30572(4)
O1_3 O 0.9420(3) 0.8201(3) 0.3249(2)
O2_3 O 0.8765(3) 0.6204(3) 0.0371(2)
O4_3 O 0.9090(3) 0.7683(3) 0.2836(2)
O8_2 O 0.6848(3) 0.6805(3) 0.1258(2)
O10_3 O 0.7940(3) 0.6069(3) 0.0359(2)
O11_3 O 0.7198(3) 0.7273(3) 0.1690(2)
C3_3 C 0.7791(5) 0.6658(5) 0.0946(3)
C5_3 C 0.9442(4) 0.7932(5) 0.2975(4)
C8_3 C 0.8269(4) 0.6575(5) 0.0812(3)
C9_3 C 0.8324(5) 0.6254(5) 0.0490(3)
C10_3 C 0.7733(4) 0.6930(5) 0.1252(3)
N1_3 N 0.9685(4) 0.6664(5) 0.1300(3)
C13_3 C 0.9954(4) 0.7902(5) 0.2794(3)
C14_3 C 0.7215(5) 0.7010(5) 0.1411(3)
N4_3 N 0.9783(4) 0.7213(5) 0.1794(3)
C16_3 C 0.8150(4) 0.7085(5) 0.1433(3)
H4_3 H 0.811064 0.725305 0.164640
H5_3 H 0.972682 0.744257 0.240537
N5_3 N 0.9035(4) 0.7153(6) 0.1517(4)
H8_3 H 0.895913 0.738448 0.166704
C22_3 C 0.8692(5) 0.6728(6) 0.0998(4)
H10_3 H 0.901478 0.665068 0.091586
C23_3 C 0.9531(5) 0.7002(6) 0.1528(4)
C24_3 C 0.8629(5) 0.6998(6) 0.1305(4)
H12_3 H 0.752(3) 0.661(3) 0.080(2)
Cu6_2 Cu 0.67785(5) 0.38059(5) 0.14823(4)
O15_3 O 0.8784(3) 0.1433(3) 0.3245(2)
O17_2 O 0.8292(3) 0.1745(3) 0.2816(2)
O18_3 O 0.7896(3) 0.3627(3) 0.1652(2)
O19_3 O 0.8977(3) 0.5193(3) 0.0352(2)
O21_3 O 0.7396(3) 0.3997(3) 0.1253(2)
O24_3 O 0.8143(3) 0.5065(3) 0.0358(2)
C28_3 C 0.7817(3) 0.3885(4) 0.1376(3)
C29_3 C 0.8715(4) 0.1668(4) 0.2958(4)
C31_3 C 0.8601(5) 0.4985(5) 0.0463(3)
C33_3 C 0.9170(4) 0.1907(5) 0.2796(3)
C34_3 C 0.8221(5) 0.4420(5) 0.0917(3)
H13_3 H 0.790549 0.455825 0.086710
C38_3 C 0.9643(4) 0.1864(5) 0.2947(3)
H14_3 H 0.968556 0.167619 0.315188
C39_3 C 0.8272(4) 0.4054(5) 0.1173(3)
N8_3 N 0.9514(4) 0.3264(5) 0.1582(3)
C42_3 C 0.8639(5) 0.4577(5) 0.0736(3)
N9_3 N 0.9424(4) 0.2745(6) 0.2053(3)
H15_3 H 0.911245 0.283156 0.202687
C44_3 C 0.9995(4) 0.2392(5) 0.2501(4)
C45_3 C 0.9520(4) 0.2443(6) 0.2347(4)
C46_3 C 0.9110(5) 0.2197(6) 0.2499(4)
H18_3 H 0.879149 0.222977 0.239839
C47_3 C 0.9106(5) 0.4377(6) 0.0812(4)
H19_3 H 0.939017 0.449506 0.069358
C48_3 C 0.8738(5) 0.3860(6) 0.1250(4)
H21_3 H 0.877117 0.362765 0.143300
N12_3 N 0.9648(5) 0.3799(6) 0.1114(4)
H23_3 H 0.987617 0.391885 0.097563
C52_3 C 0.9156(4) 0.4003(6) 0.1062(4)
C53_3 C 0.9736(5) 0.2921(7) 0.1804(4)
C54_3 C 0.9816(6) 0.3449(7) 0.1345(4)
Cu7_3 Cu 0.89144(7) 0.57148(7) -0.000000
Cu10_2 Cu 0.76763(5) 0.15680(5) 0.30572(4)
Cu11_2 Cu 0.65680(5) 0.73237(5) 0.19428(4)
Cu14_2 Cu 0.73237(5) 0.34320(5) 0.19428(4)
Cu16_2 Cu 0.61941(5) 0.67785(5) 0.14823(4)
Cu18_2 Cu 0.82215(5) 0.11941(5) 0.35177(4)
Cu20_2 Cu 0.88059(5) 0.82215(5) 0.35177(4)
O26_3 O 0.6799(3) 0.4420(3) 0.1751(2)
O29_3 O 0.6216(3) 0.3567(3) 0.1755(2)
O31_2 O 0.8255(3) 0.8292(3) 0.2816(2)
O33_3 O 0.8627(3) 0.7104(3) 0.3348(2)
O36_2 O 0.6805(3) 0.3152(3) 0.1258(2)
O38_3 O 0.7802(3) 0.7727(3) 0.3310(2)
Cu2_4 Cu 0.79921(7) 0.55630(7) 1.000000
Cu7_4 Cu 0.89144(7) 0.57148(7) 1.000000
O37_5 O 0.7940(3) 0.6069(3) 0.9641(2)
O40_5 O 0.8143(3) 0.5065(3) 0.9642(2)
O37_6 O 0.2060(3) 0.3931(3) 0.9641(2)
O40_6 O 0.1857(3) 0.4935(3) 0.9642(2)
O27_6 O 0.8765(3) 0.6204(3) 0.9629(2)
O34_6 O 0.8977(3) 0.5193(3) 0.9648(2)
Cu1_5 Cu 0.57148(7) 0.10856(7) -0.000000
O3_4 O 0.1433(3) 0.1216(3) 0.3245(2)
O6_4 O 0.3627(3) 0.2104(3) 0.1652(2)
O7_4 O 0.5193(3) 0.1023(3) 0.0352(2)
O9_4 O 0.3997(3) 0.2604(3) 0.1253(2)
O12_4 O 0.5065(3) 0.1857(3) 0.0358(2)
C1_4 C 0.3885(4) 0.2183(3) 0.1376(3)
C2_4 C 0.1668(4) 0.1285(4) 0.2958(4)
C4_4 C 0.4985(5) 0.1399(5) 0.0463(3)
C6_4 C 0.1907(5) 0.0830(4) 0.2796(3)
C7_4 C 0.4420(5) 0.1779(5) 0.0917(3)
H1_4 H 0.455825 0.209451 0.086710
C11_4 C 0.1864(5) 0.0357(4) 0.2947(3)
H2_4 H 0.167619 0.031444 0.315188
C12_4 C 0.4054(5) 0.1728(4) 0.1173(3)
N2_4 N 0.3264(5) 0.0486(4) 0.1582(3)
C15_4 C 0.4577(5) 0.1361(5) 0.0736(3)
N3_4 N 0.2745(6) 0.0576(4) 0.2053(3)
H3_4 H 0.283156 0.088755 0.202687
C17_4 C 0.2392(5) 0.0005(4) 0.2501(4)
C18_4 C 0.2443(6) 0.0480(4) 0.2347(4)
C19_4 C 0.2197(6) 0.0890(5) 0.2499(4)
H6_4 H 0.222977 0.120851 0.239839
C20_4 C 0.4377(6) 0.0894(5) 0.0812(4)
H7_4 H 0.449506 0.060983 0.069358
C21_4 C 0.3860(6) 0.1262(5) 0.1250(4)
H9_4 H 0.362765 0.122883 0.143300
N6_4 N 0.3799(6) 0.0352(5) 0.1114(4)
H11_4 H 0.391885 0.012383 0.097563
C25_4 C 0.4003(6) 0.0844(4) 0.1062(4)
C26_4 C 0.2921(7) 0.0264(5) 0.1804(4)
C27_4 C 0.3449(7) 0.0184(6) 0.1345(4)
O13_4 O 0.8201(3) 0.0580(3) 0.3249(2)
O14_4 O 0.6204(3) 0.1235(3) 0.0371(2)
O16_4 O 0.7683(3) 0.0910(3) 0.2836(2)
O22_4 O 0.6069(3) 0.2060(3) 0.0359(2)
O23_4 O 0.7273(3) 0.2802(3) 0.1690(2)
C30_4 C 0.6658(5) 0.2209(5) 0.0946(3)
C32_4 C 0.7932(5) 0.0558(4) 0.2975(4)
C35_4 C 0.6575(5) 0.1731(4) 0.0812(3)
C36_4 C 0.6254(5) 0.1676(5) 0.0490(3)
C37_4 C 0.6930(5) 0.2267(4) 0.1252(3)
N7_4 N 0.6664(5) 0.0315(4) 0.1300(3)
C40_4 C 0.7902(5) 0.0046(4) 0.2794(3)
C41_4 C 0.7010(5) 0.2785(5) 0.1411(3)
N10_4 N 0.7213(5) 0.0217(4) 0.1794(3)
C43_4 C 0.7085(5) 0.1850(4) 0.1433(3)
H16_4 H 0.725305 0.188936 0.164640
H17_4 H 0.744257 0.027318 0.240537
N11_4 N 0.7153(6) 0.0965(4) 0.1517(4)
H20_4 H 0.738448 0.104087 0.166704
C49_4 C 0.6728(6) 0.1308(5) 0.0998(4)
H22_4 H 0.665068 0.098522 0.091586
C50_4 C 0.7002(6) 0.0469(5) 0.1528(4)
C51_4 C 0.6998(6) 0.1371(5) 0.1305(4)
H24_4 H 0.661(3) 0.248(3) 0.080(2)
Cu8_5 Cu 0.55630(7) 0.20079(7) -0.000000
O25_4 O 0.4420(3) 0.3201(3) 0.1751(2)
O28_4 O 0.3567(3) 0.3784(3) 0.1755(2)
O32_4 O 0.7104(3) 0.1373(3) 0.3348(2)
O39_4 O 0.7727(3) 0.2198(3) 0.3310(2)
Cu1_6 Cu 0.57148(7) 0.10856(7) 1.000000
Cu8_6 Cu 0.55630(7) 0.20079(7) 1.000000
O27_7 O 0.6204(3) 0.1235(3) 0.9629(2)
O34_7 O 0.5193(3) 0.1023(3) 0.9648(2)
Cu2_5 Cu 0.44370(7) 0.79921(7) -0.000000
O1_4 O 0.1799(3) 0.9420(3) 0.3249(2)
O2_4 O 0.3796(3) 0.8765(3) 0.0371(2)
O4_4 O 0.2317(3) 0.9090(3) 0.2836(2)
O10_4 O 0.3931(3) 0.7940(3) 0.0359(2)
O11_4 O 0.2727(3) 0.7198(3) 0.1690(2)
C3_4 C 0.3342(5) 0.7791(5) 0.0946(3)
C5_4 C 0.2068(5) 0.9442(4) 0.2975(4)
C8_4 C 0.3425(5) 0.8269(4) 0.0812(3)
C9_4 C 0.3746(5) 0.8324(5) 0.0490(3)
C10_4 C 0.3070(5) 0.7733(4) 0.1252(3)
N1_4 N 0.3336(5) 0.9685(4) 0.1300(3)
C13_4 C 0.2098(5) 0.9954(4) 0.2794(3)
C14_4 C 0.2990(5) 0.7215(5) 0.1411(3)
N4_4 N 0.2787(5) 0.9783(4) 0.1794(3)
C16_4 C 0.2915(5) 0.8150(4) 0.1433(3)
H4_4 H 0.274695 0.811064 0.164640
H5_4 H 0.255743 0.972682 0.240537
N5_4 N 0.2847(6) 0.9035(4) 0.1517(4)
H8_4 H 0.261552 0.895913 0.166704
C22_4 C 0.3272(6) 0.8692(5) 0.0998(4)
H10_4 H 0.334932 0.901478 0.091586
C23_4 C 0.2998(6) 0.9531(5) 0.1528(4)
C24_4 C 0.3002(6) 0.8629(5) 0.1305(4)
H12_4 H 0.339(3) 0.752(3) 0.080(2)
O15_4 O 0.8567(3) 0.8784(3) 0.3245(2)
O18_4 O 0.6373(3) 0.7896(3) 0.1652(2)
O19_4 O 0.4807(3) 0.8977(3) 0.0352(2)
O21_4 O 0.6003(3) 0.7396(3) 0.1253(2)
O24_4 O 0.4935(3) 0.8143(3) 0.0358(2)
C28_4 C 0.6115(4) 0.7817(3) 0.1376(3)
C29_4 C 0.8332(4) 0.8715(4) 0.2958(4)
C31_4 C 0.5015(5) 0.8601(5) 0.0463(3)
C33_4 C 0.8093(5) 0.9170(4) 0.2796(3)
C34_4 C 0.5580(5) 0.8221(5) 0.0917(3)
H13_4 H 0.544175 0.790549 0.086710
C38_4 C 0.8136(5) 0.9643(4) 0.2947(3)
H14_4 H 0.832381 0.968556 0.315188
C39_4 C 0.5946(5) 0.8272(4) 0.1173(3)
N8_4 N 0.6736(5) 0.9514(4) 0.1582(3)
C42_4 C 0.5423(5) 0.8639(5) 0.0736(3)
N9_4 N 0.7255(6) 0.9424(4) 0.2053(3)
H15_4 H 0.716844 0.911245 0.202687
C44_4 C 0.7608(5) 0.9995(4) 0.2501(4)
C45_4 C 0.7557(6) 0.9520(4) 0.2347(4)
C46_4 C 0.7803(6) 0.9110(5) 0.2499(4)
H18_4 H 0.777023 0.879149 0.239839
C47_4 C 0.5623(6) 0.9106(5) 0.0812(4)
H19_4 H 0.550494 0.939017 0.069358
C48_4 C 0.6140(6) 0.8738(5) 0.1250(4)
H21_4 H 0.637235 0.877117 0.143300
N12_4 N 0.6201(6) 0.9648(5) 0.1114(4)
H23_4 H 0.608115 0.987617 0.097563
C52_4 C 0.5997(6) 0.9156(4) 0.1062(4)
C53_4 C 0.7079(7) 0.9736(5) 0.1804(4)
C54_4 C 0.6551(7) 0.9816(6) 0.1345(4)
Cu7_5 Cu 0.42852(7) 0.89144(7) -0.000000
O26_4 O 0.5580(3) 0.6799(3) 0.1751(2)
O29_4 O 0.6433(3) 0.6216(3) 0.1755(2)
O33_4 O 0.2896(3) 0.8627(3) 0.3348(2)
O38_4 O 0.2273(3) 0.7802(3) 0.3310(2)
Cu2_6 Cu 0.44370(7) 0.79921(7) 1.000000
Cu7_6 Cu 0.42852(7) 0.89144(7) 1.000000
O37_7 O 0.3931(3) 0.7940(3) 0.9641(2)
O40_7 O 0.4935(3) 0.8143(3) 0.9642(2)
O37_8 O 0.6069(3) 0.2060(3) 0.9641(2)
O40_8 O 0.5065(3) 0.1857(3) 0.9642(2)
O27_8 O 0.3796(3) 0.8765(3) 0.9629(2)
O34_8 O 0.4807(3) 0.8977(3) 0.9648(2)
O16_5 O 0.4090(3) 0.2683(3) 0.2164(2)
O17_3 O 0.6708(3) 0.3255(3) 0.2184(2)
O20_3 O 0.1848(3) 0.1805(3) 0.3742(2)
O21_5 O 0.7604(3) 0.1003(3) 0.3747(2)
C28_5 C 0.7183(3) 0.1115(4) 0.3624(3)
C29_5 C 0.6285(4) 0.3332(4) 0.2042(4)
C30_5 C 0.2791(5) 0.1658(5) 0.4054(3)
C31_5 C 0.6399(5) 0.0015(5) 0.4537(3)
C32_5 C 0.4442(4) 0.2932(5) 0.2025(4)
C33_5 C 0.5830(4) 0.3093(5) 0.2204(3)
C34_5 C 0.6779(5) 0.0580(5) 0.4083(3)
H13_5 H 0.709451 0.044175 0.413290
C35_5 C 0.3269(4) 0.1575(5) 0.4188(3)
C36_5 C 0.3324(5) 0.1254(5) 0.4510(3)
C37_5 C 0.2733(4) 0.1930(5) 0.3748(3)
N7_5 N 0.4685(4) 0.1664(5) 0.3700(3)
C38_5 C 0.5357(4) 0.3136(5) 0.2053(3)
H14_5 H 0.531444 0.332381 0.184812
C39_5 C 0.6728(4) 0.0946(5) 0.3827(3)
N8_5 N 0.5486(4) 0.1736(5) 0.3418(3)
C40_5 C 0.4954(4) 0.2902(5) 0.2206(3)
C41_5 C 0.2215(5) 0.2010(5) 0.3589(3)
C42_5 C 0.6361(5) 0.0423(5) 0.4264(3)
N9_5 N 0.5576(4) 0.2255(6) 0.2947(3)
H15_5 H 0.588755 0.216844 0.297313
N10_5 N 0.4783(4) 0.2213(5) 0.3206(3)
C43_5 C 0.3150(4) 0.2085(5) 0.3567(3)
H16_5 H 0.311064 0.225305 0.335360
C44_5 C 0.5005(4) 0.2608(5) 0.2499(4)
H17_5 H 0.472682 0.244257 0.259463
C45_5 C 0.5480(4) 0.2557(6) 0.2653(4)
C46_5 C 0.5890(5) 0.2803(6) 0.2501(4)
H18_5 H 0.620851 0.277023 0.260161
C47_5 C 0.5894(5) 0.0623(6) 0.4188(4)
H19_5 H 0.560983 0.050494 0.430642
N11_5 N 0.4035(4) 0.2153(6) 0.3483(4)
H20_5 H 0.395913 0.238448 0.333296
C48_5 C 0.6262(5) 0.1140(6) 0.3750(4)
H21_5 H 0.622883 0.137235 0.356700
C49_5 C 0.3692(5) 0.1728(6) 0.4002(4)
H22_5 H 0.401478 0.165068 0.408414
C50_5 C 0.4531(5) 0.2002(6) 0.3472(4)
C51_5 C 0.3629(5) 0.1998(6) 0.3695(4)
N12_5 N 0.5352(5) 0.1201(6) 0.3886(4)
H23_5 H 0.512383 0.108115 0.402437
C52_5 C 0.5844(4) 0.0997(6) 0.3938(4)
C53_5 C 0.5264(5) 0.2079(7) 0.3196(4)
C54_5 C 0.5184(6) 0.1551(7) 0.3655(4)
H24_5 H 0.252(3) 0.161(3) 0.420(2)
O30_3 O 0.3255(3) 0.3292(3) 0.2184(2)
O36_3 O 0.8195(3) 0.1848(3) 0.3742(2)
O4_5 O 0.5910(3) 0.7317(3) 0.2164(2)
O5_3 O 0.3292(3) 0.6745(3) 0.2184(2)
O8_3 O 0.8152(3) 0.8195(3) 0.3742(2)
O9_5 O 0.2396(3) 0.8997(3) 0.3747(2)
C1_5 C 0.2817(3) 0.8885(4) 0.3624(3)
C2_5 C 0.3715(4) 0.6668(4) 0.2042(4)
C3_5 C 0.7209(5) 0.8342(5) 0.4054(3)
C4_5 C 0.3601(5) 0.9985(5) 0.4537(3)
C5_5 C 0.5558(4) 0.7068(5) 0.2025(4)
C6_5 C 0.4170(4) 0.6907(5) 0.2204(3)
C7_5 C 0.3221(5) 0.9420(5) 0.4083(3)
H1_5 H 0.290549 0.955825 0.413290
C8_5 C 0.6731(4) 0.8425(5) 0.4188(3)
C9_5 C 0.6676(5) 0.8746(5) 0.4510(3)
C10_5 C 0.7267(4) 0.8070(5) 0.3748(3)
N1_5 N 0.5315(4) 0.8336(5) 0.3700(3)
C11_5 C 0.4643(4) 0.6864(5) 0.2053(3)
H2_5 H 0.468556 0.667619 0.184812
C12_5 C 0.3272(4) 0.9054(5) 0.3827(3)
N2_5 N 0.4514(4) 0.8264(5) 0.3418(3)
C13_5 C 0.5046(4) 0.7098(5) 0.2206(3)
C14_5 C 0.7785(5) 0.7990(5) 0.3589(3)
C15_5 C 0.3639(5) 0.9577(5) 0.4264(3)
N3_5 N 0.4424(4) 0.7745(6) 0.2947(3)
H3_5 H 0.411245 0.783156 0.297313
N4_5 N 0.5217(4) 0.7787(5) 0.3206(3)
C16_5 C 0.6850(4) 0.7915(5) 0.3567(3)
H4_5 H 0.688936 0.774695 0.335360
C17_5 C 0.4995(4) 0.7392(5) 0.2499(4)
H5_5 H 0.527318 0.755743 0.259463
C18_5 C 0.4520(4) 0.7443(6) 0.2653(4)
C19_5 C 0.4110(5) 0.7197(6) 0.2501(4)
H6_5 H 0.379149 0.722977 0.260161
C20_5 C 0.4106(5) 0.9377(6) 0.4188(4)
H7_5 H 0.439017 0.949506 0.430642
N5_5 N 0.5965(4) 0.7847(6) 0.3483(4)
H8_5 H 0.604087 0.761552 0.333296
C21_5 C 0.3738(5) 0.8860(6) 0.3750(4)
H9_5 H 0.377117 0.862765 0.356700
C22_5 C 0.6308(5) 0.8272(6) 0.4002(4)
H10_5 H 0.598522 0.834932 0.408414
C23_5 C 0.5469(5) 0.7998(6) 0.3472(4)
C24_5 C 0.6371(5) 0.8002(6) 0.3695(4)
N6_5 N 0.4648(5) 0.8799(6) 0.3886(4)
H11_5 H 0.487617 0.891885 0.402437
C25_5 C 0.4156(4) 0.9003(6) 0.3938(4)
C26_5 C 0.4736(5) 0.7921(7) 0.3196(4)
C27_5 C 0.4816(6) 0.8449(7) 0.3655(4)
H12_5 H 0.748(3) 0.839(3) 0.420(2)
O31_3 O 0.6745(3) 0.6708(3) 0.2184(2)
O35_3 O 0.1805(3) 0.8152(3) 0.3742(2)
O4_6 O 0.2683(3) 0.5910(3) 0.2164(2)
O9_6 O 0.1003(3) 0.2396(3) 0.3747(2)
C1_6 C 0.1115(4) 0.2817(3) 0.3624(3)
C2_6 C 0.3332(4) 0.3715(4) 0.2042(4)
C3_6 C 0.1658(5) 0.7209(5) 0.4054(3)
C4_6 C 0.0015(5) 0.3601(5) 0.4537(3)
C5_6 C 0.2932(5) 0.5558(4) 0.2025(4)
C6_6 C 0.3093(5) 0.4170(4) 0.2204(3)
C7_6 C 0.0580(5) 0.3221(5) 0.4083(3)
H1_6 H 0.044175 0.290549 0.413290
C8_6 C 0.1575(5) 0.6731(4) 0.4188(3)
C9_6 C 0.1254(5) 0.6676(5) 0.4510(3)
C10_6 C 0.1930(5) 0.7267(4) 0.3748(3)
N1_6 N 0.1664(5) 0.5315(4) 0.3700(3)
C11_6 C 0.3136(5) 0.4643(4) 0.2053(3)
H2_6 H 0.332381 0.468556 0.184812
C12_6 C 0.0946(5) 0.3272(4) 0.3827(3)
N2_6 N 0.1736(5) 0.4514(4) 0.3418(3)
C13_6 C 0.2902(5) 0.5046(4) 0.2206(3)
C14_6 C 0.2010(5) 0.7785(5) 0.3589(3)
C15_6 C 0.0423(5) 0.3639(5) 0.4264(3)
N3_6 N 0.2255(6) 0.4424(4) 0.2947(3)
H3_6 H 0.216844 0.411245 0.297313
N4_6 N 0.2213(5) 0.5217(4) 0.3206(3)
C16_6 C 0.2085(5) 0.6850(4) 0.3567(3)
H4_6 H 0.225305 0.688936 0.335360
C17_6 C 0.2608(5) 0.4995(4) 0.2499(4)
H5_6 H 0.244257 0.527318 0.259463
C18_6 C 0.2557(6) 0.4520(4) 0.2653(4)
C19_6 C 0.2803(6) 0.4110(5) 0.2501(4)
H6_6 H 0.277023 0.379149 0.260161
C20_6 C 0.0623(6) 0.4106(5) 0.4188(4)
H7_6 H 0.050494 0.439017 0.430642
N5_6 N 0.2153(6) 0.5965(4) 0.3483(4)
H8_6 H 0.238448 0.604087 0.333296
C21_6 C 0.1140(6) 0.3738(5) 0.3750(4)
H9_6 H 0.137235 0.377117 0.356700
C22_6 C 0.1728(6) 0.6308(5) 0.4002(4)
H10_6 H 0.165068 0.598522 0.408414
C23_6 C 0.2002(6) 0.5469(5) 0.3472(4)
C24_6 C 0.1998(6) 0.6371(5) 0.3695(4)
N6_6 N 0.1201(6) 0.4648(5) 0.3886(4)
H11_6 H 0.108115 0.487617 0.402437
C25_6 C 0.0997(6) 0.4156(4) 0.3938(4)
C26_6 C 0.2079(7) 0.4736(5) 0.3196(4)
C27_6 C 0.1551(7) 0.4816(6) 0.3655(4)
H12_6 H 0.161(3) 0.748(3) 0.420(2)
O16_6 O 0.7317(3) 0.4090(3) 0.2164(2)
O21_6 O 0.8997(3) 0.7604(3) 0.3747(2)
C28_6 C 0.8885(4) 0.7183(3) 0.3624(3)
C29_6 C 0.6668(4) 0.6285(4) 0.2042(4)
C30_6 C 0.8342(5) 0.2791(5) 0.4054(3)
C31_6 C 0.9985(5) 0.6399(5) 0.4537(3)
C32_6 C 0.7068(5) 0.4442(4) 0.2025(4)
C33_6 C 0.6907(5) 0.5830(4) 0.2204(3)
C34_6 C 0.9420(5) 0.6779(5) 0.4083(3)
H13_6 H 0.955825 0.709451 0.413290
C35_6 C 0.8425(5) 0.3269(4) 0.4188(3)
C36_6 C 0.8746(5) 0.3324(5) 0.4510(3)
C37_6 C 0.8070(5) 0.2733(4) 0.3748(3)
N7_6 N 0.8336(5) 0.4685(4) 0.3700(3)
C38_6 C 0.6864(5) 0.5357(4) 0.2053(3)
H14_6 H 0.667619 0.531444 0.184812
C39_6 C 0.9054(5) 0.6728(4) 0.3827(3)
N8_6 N 0.8264(5) 0.5486(4) 0.3418(3)
C40_6 C 0.7098(5) 0.4954(4) 0.2206(3)
C41_6 C 0.7990(5) 0.2215(5) 0.3589(3)
C42_6 C 0.9577(5) 0.6361(5) 0.4264(3)
N9_6 N 0.7745(6) 0.5576(4) 0.2947(3)
H15_6 H 0.783156 0.588755 0.297313
N10_6 N 0.7787(5) 0.4783(4) 0.3206(3)
C43_6 C 0.7915(5) 0.3150(4) 0.3567(3)
H16_6 H 0.774695 0.311064 0.335360
C44_6 C 0.7392(5) 0.5005(4) 0.2499(4)
H17_6 H 0.755743 0.472682 0.259463
C45_6 C 0.7443(6) 0.5480(4) 0.2653(4)
C46_6 C 0.7197(6) 0.5890(5) 0.2501(4)
H18_6 H 0.722977 0.620851 0.260161
C47_6 C 0.9377(6) 0.5894(5) 0.4188(4)
H19_6 H 0.949506 0.560983 0.430642
N11_6 N 0.7847(6) 0.4035(4) 0.3483(4)
H20_6 H 0.761552 0.395913 0.333296
C48_6 C 0.8860(6) 0.6262(5) 0.3750(4)
H21_6 H 0.862765 0.622883 0.356700
C49_6 C 0.8272(6) 0.3692(5) 0.4002(4)
H22_6 H 0.834932 0.401478 0.408414
C50_6 C 0.7998(6) 0.4531(5) 0.3472(4)
C51_6 C 0.8002(6) 0.3629(5) 0.3695(4)
N12_6 N 0.8799(6) 0.5352(5) 0.3886(4)
H23_6 H 0.891885 0.512383 0.402437
C52_6 C 0.9003(6) 0.5844(4) 0.3938(4)
C53_6 C 0.7921(7) 0.5264(5) 0.3196(4)
C54_6 C 0.8449(7) 0.5184(6) 0.3655(4)
H24_6 H 0.839(3) 0.252(3) 0.420(2)
O4_7 O 0.0910(3) 0.2317(3) 0.7164(2)
O8_4 O 0.3152(3) 0.3195(3) 0.8742(2)
C3_7 C 0.2209(5) 0.3342(5) 0.9054(3)
C5_7 C 0.0558(4) 0.2068(5) 0.7025(4)
C8_7 C 0.1731(4) 0.3425(5) 0.9188(3)
C9_7 C 0.1676(5) 0.3746(5) 0.9510(3)
C10_7 C 0.2267(4) 0.3070(5) 0.8748(3)
N1_7 N 0.0315(4) 0.3336(5) 0.8700(3)
C13_7 C 0.0046(4) 0.2098(5) 0.7206(3)
C14_7 C 0.2785(5) 0.2990(5) 0.8589(3)
N4_7 N 0.0217(4) 0.2787(5) 0.8206(3)
C16_7 C 0.1850(4) 0.2915(5) 0.8567(3)
H4_7 H 0.188936 0.274695 0.835360
H5_7 H 0.027318 0.255743 0.759463
N5_7 N 0.0965(4) 0.2847(6) 0.8483(4)
H8_7 H 0.104087 0.261552 0.833296
C22_7 C 0.1308(5) 0.3272(6) 0.9002(4)
H10_7 H 0.098522 0.334932 0.908414
C23_7 C 0.0469(5) 0.2998(6) 0.8472(4)
C24_7 C 0.1371(5) 0.3002(6) 0.8695(4)
H12_7 H 0.248(3) 0.339(3) 0.920(2)
O17_4 O 0.1708(3) 0.8255(3) 0.7184(2)
O21_7 O 0.2604(3) 0.6003(3) 0.8747(2)
C28_7 C 0.2183(3) 0.6115(4) 0.8624(3)
C29_7 C 0.1285(4) 0.8332(4) 0.7042(4)
C31_7 C 0.1399(5) 0.5015(5) 0.9537(3)
C33_7 C 0.0830(4) 0.8093(5) 0.7204(3)
C34_7 C 0.1779(5) 0.5580(5) 0.9083(3)
H13_7 H 0.209451 0.544175 0.913290
C38_7 C 0.0357(4) 0.8136(5) 0.7053(3)
H14_7 H 0.031444 0.832381 0.684812
C39_7 C 0.1728(4) 0.5946(5) 0.8827(3)
N8_7 N 0.0486(4) 0.6736(5) 0.8418(3)
C42_7 C 0.1361(5) 0.5423(5) 0.9264(3)
N9_7 N 0.0576(4) 0.7255(6) 0.7947(3)
H15_7 H 0.088755 0.716844 0.797313
C44_7 C 0.0005(4) 0.7608(5) 0.7499(4)
C45_7 C 0.0480(4) 0.7557(6) 0.7653(4)
C46_7 C 0.0890(5) 0.7803(6) 0.7501(4)
H18_7 H 0.120851 0.777023 0.760161
C47_7 C 0.0894(5) 0.5623(6) 0.9188(4)
H19_7 H 0.060983 0.550494 0.930642
C48_7 C 0.1262(5) 0.6140(6) 0.8750(4)
H21_7 H 0.122883 0.637235 0.856700
N12_7 N 0.0352(5) 0.6201(6) 0.8886(4)
H23_7 H 0.012383 0.608115 0.902437
C52_7 C 0.0844(4) 0.5997(6) 0.8938(4)
C53_7 C 0.0264(5) 0.7079(7) 0.8196(4)
C54_7 C 0.0184(6) 0.6551(7) 0.8655(4)
O31_4 O 0.1745(3) 0.1708(3) 0.7184(2)
O36_4 O 0.3195(3) 0.6848(3) 0.8742(2)
O5_4 O 0.8292(3) 0.1745(3) 0.7184(2)
O9_7 O 0.7396(3) 0.3997(3) 0.8747(2)
C1_7 C 0.7817(3) 0.3885(4) 0.8624(3)
C2_7 C 0.8715(4) 0.1668(4) 0.7042(4)
C4_7 C 0.8601(5) 0.4985(5) 0.9537(3)
C6_7 C 0.9170(4) 0.1907(5) 0.7204(3)
C7_7 C 0.8221(5) 0.4420(5) 0.9083(3)
H1_7 H 0.790549 0.455825 0.913290
C11_7 C 0.9643(4) 0.1864(5) 0.7053(3)
H2_7 H 0.968556 0.167619 0.684812
C12_7 C 0.8272(4) 0.4054(5) 0.8827(3)
N2_7 N 0.9514(4) 0.3264(5) 0.8418(3)
C15_7 C 0.8639(5) 0.4577(5) 0.9264(3)
N3_7 N 0.9424(4) 0.2745(6) 0.7947(3)
H3_7 H 0.911245 0.283156 0.797313
C17_7 C 0.9995(4) 0.2392(5) 0.7499(4)
C18_7 C 0.9520(4) 0.2443(6) 0.7653(4)
C19_7 C 0.9110(5) 0.2197(6) 0.7501(4)
H6_7 H 0.879149 0.222977 0.760161
C20_7 C 0.9106(5) 0.4377(6) 0.9188(4)
H7_7 H 0.939017 0.449506 0.930642
C21_7 C 0.8738(5) 0.3860(6) 0.8750(4)
H9_7 H 0.877117 0.362765 0.856700
N6_7 N 0.9648(5) 0.3799(6) 0.8886(4)
H11_7 H 0.987617 0.391885 0.902437
C25_7 C 0.9156(4) 0.4003(6) 0.8938(4)
C26_7 C 0.9736(5) 0.2921(7) 0.8196(4)
C27_7 C 0.9816(6) 0.3449(7) 0.8655(4)
O16_7 O 0.9090(3) 0.7683(3) 0.7164(2)
O20_4 O 0.6848(3) 0.6805(3) 0.8742(2)
C30_7 C 0.7791(5) 0.6658(5) 0.9054(3)
C32_7 C 0.9442(4) 0.7932(5) 0.7025(4)
C35_7 C 0.8269(4) 0.6575(5) 0.9188(3)
C36_7 C 0.8324(5) 0.6254(5) 0.9510(3)
C37_7 C 0.7733(4) 0.6930(5) 0.8748(3)
N7_7 N 0.9685(4) 0.6664(5) 0.8700(3)
C40_7 C 0.9954(4) 0.7902(5) 0.7206(3)
C41_7 C 0.7215(5) 0.7010(5) 0.8589(3)
N10_7 N 0.9783(4) 0.7213(5) 0.8206(3)
C43_7 C 0.8150(4) 0.7085(5) 0.8567(3)
H16_7 H 0.811064 0.725305 0.835360
H17_7 H 0.972682 0.744257 0.759463
N11_7 N 0.9035(4) 0.7153(6) 0.8483(4)
H20_7 H 0.895913 0.738448 0.833296
C49_7 C 0.8692(5) 0.6728(6) 0.9002(4)
H22_7 H 0.901478 0.665068 0.908414
C50_7 C 0.9531(5) 0.7002(6) 0.8472(4)
C51_7 C 0.8629(5) 0.6998(6) 0.8695(4)
H24_7 H 0.752(3) 0.661(3) 0.920(2)
O30_4 O 0.8255(3) 0.8292(3) 0.7184(2)
O35_4 O 0.6805(3) 0.3152(3) 0.8742(2)
O4_8 O 0.7683(3) 0.0910(3) 0.7164(2)
C3_8 C 0.6658(5) 0.2209(5) 0.9054(3)
C5_8 C 0.7932(5) 0.0558(4) 0.7025(4)
C8_8 C 0.6575(5) 0.1731(4) 0.9188(3)
C9_8 C 0.6254(5) 0.1676(5) 0.9510(3)
C10_8 C 0.6930(5) 0.2267(4) 0.8748(3)
N1_8 N 0.6664(5) 0.0315(4) 0.8700(3)
C13_8 C 0.7902(5) 0.0046(4) 0.7206(3)
C14_8 C 0.7010(5) 0.2785(5) 0.8589(3)
N4_8 N 0.7213(5) 0.0217(4) 0.8206(3)
C16_8 C 0.7085(5) 0.1850(4) 0.8567(3)
H4_8 H 0.725305 0.188936 0.835360
H5_8 H 0.744257 0.027318 0.759463
N5_8 N 0.7153(6) 0.0965(4) 0.8483(4)
H8_8 H 0.738448 0.104087 0.833296
C22_8 C 0.6728(6) 0.1308(5) 0.9002(4)
H10_8 H 0.665068 0.098522 0.908414
C23_8 C 0.7002(6) 0.0469(5) 0.8472(4)
C24_8 C 0.6998(6) 0.1371(5) 0.8695(4)
H12_8 H 0.661(3) 0.248(3) 0.920(2)
O21_8 O 0.3997(3) 0.2604(3) 0.8747(2)
C28_8 C 0.3885(4) 0.2183(3) 0.8624(3)
C29_8 C 0.1668(4) 0.1285(4) 0.7042(4)
C31_8 C 0.4985(5) 0.1399(5) 0.9537(3)
C33_8 C 0.1907(5) 0.0830(4) 0.7204(3)
C34_8 C 0.4420(5) 0.1779(5) 0.9083(3)
H13_8 H 0.455825 0.209451 0.913290
C38_8 C 0.1864(5) 0.0357(4) 0.7053(3)
H14_8 H 0.167619 0.031444 0.684812
C39_8 C 0.4054(5) 0.1728(4) 0.8827(3)
N8_8 N 0.3264(5) 0.0486(4) 0.8418(3)
C42_8 C 0.4577(5) 0.1361(5) 0.9264(3)
N9_8 N 0.2745(6) 0.0576(4) 0.7947(3)
H15_8 H 0.283156 0.088755 0.797313
C44_8 C 0.2392(5) 0.0005(4) 0.7499(4)
C45_8 C 0.2443(6) 0.0480(4) 0.7653(4)
C46_8 C 0.2197(6) 0.0890(5) 0.7501(4)
H18_8 H 0.222977 0.120851 0.760161
C47_8 C 0.4377(6) 0.0894(5) 0.9188(4)
H19_8 H 0.449506 0.060983 0.930642
C48_8 C 0.3860(6) 0.1262(5) 0.8750(4)
H21_8 H 0.362765 0.122883 0.856700
N12_8 N 0.3799(6) 0.0352(5) 0.8886(4)
H23_8 H 0.391885 0.012383 0.902437
C52_8 C 0.4003(6) 0.0844(4) 0.8938(4)
C53_8 C 0.2921(7) 0.0264(5) 0.8196(4)
C54_8 C 0.3449(7) 0.0184(6) 0.8655(4)
O9_8 O 0.6003(3) 0.7396(3) 0.8747(2)
C1_8 C 0.6115(4) 0.7817(3) 0.8624(3)
C2_8 C 0.8332(4) 0.8715(4) 0.7042(4)
C4_8 C 0.5015(5) 0.8601(5) 0.9537(3)
C6_8 C 0.8093(5) 0.9170(4) 0.7204(3)
C7_8 C 0.5580(5) 0.8221(5) 0.9083(3)
H1_8 H 0.544175 0.790549 0.913290
C11_8 C 0.8136(5) 0.9643(4) 0.7053(3)
H2_8 H 0.832381 0.968556 0.684812
C12_8 C 0.5946(5) 0.8272(4) 0.8827(3)
N2_8 N 0.6736(5) 0.9514(4) 0.8418(3)
C15_8 C 0.5423(5) 0.8639(5) 0.9264(3)
N3_8 N 0.7255(6) 0.9424(4) 0.7947(3)
H3_8 H 0.716844 0.911245 0.797313
C17_8 C 0.7608(5) 0.9995(4) 0.7499(4)
C18_8 C 0.7557(6) 0.9520(4) 0.7653(4)
C19_8 C 0.7803(6) 0.9110(5) 0.7501(4)
H6_8 H 0.777023 0.879149 0.760161
C20_8 C 0.5623(6) 0.9106(5) 0.9188(4)
H7_8 H 0.550494 0.939017 0.930642
C21_8 C 0.6140(6) 0.8738(5) 0.8750(4)
H9_8 H 0.637235 0.877117 0.856700
N6_8 N 0.6201(6) 0.9648(5) 0.8886(4)
H11_8 H 0.608115 0.987617 0.902437
C25_8 C 0.5997(6) 0.9156(4) 0.8938(4)
C26_8 C 0.7079(7) 0.9736(5) 0.8196(4)
C27_8 C 0.6551(7) 0.9816(6) 0.8655(4)
O16_8 O 0.2317(3) 0.9090(3) 0.7164(2)
C30_8 C 0.3342(5) 0.7791(5) 0.9054(3)
C32_8 C 0.2068(5) 0.9442(4) 0.7025(4)
C35_8 C 0.3425(5) 0.8269(4) 0.9188(3)
C36_8 C 0.3746(5) 0.8324(5) 0.9510(3)
C37_8 C 0.3070(5) 0.7733(4) 0.8748(3)
N7_8 N 0.3336(5) 0.9685(4) 0.8700(3)
C40_8 C 0.2098(5) 0.9954(4) 0.7206(3)
C41_8 C 0.2990(5) 0.7215(5) 0.8589(3)
N10_8 N 0.2787(5) 0.9783(4) 0.8206(3)
C43_8 C 0.2915(5) 0.8150(4) 0.8567(3)
H16_8 H 0.274695 0.811064 0.835360
H17_8 H 0.255743 0.972682 0.759463
N11_8 N 0.2847(6) 0.9035(4) 0.8483(4)
H20_8 H 0.261552 0.895913 0.833296
C49_8 C 0.3272(6) 0.8692(5) 0.9002(4)
H22_8 H 0.334932 0.901478 0.908414
C50_8 C 0.2998(6) 0.9531(5) 0.8472(4)
C51_8 C 0.3002(6) 0.8629(5) 0.8695(4)
H24_8 H 0.339(3) 0.752(3) 0.920(2)
loop_
_geom_bond_atom_site_label_1
_geom_bond_atom_site_label_2
_geom_bond_site_symmetry_1
_geom_bond_site_symmetry_2
Cu2 O10 1_555 1_555
Cu3 O4 1_555 1_555
Cu4 O9 1_555 1_555
O1 C5 1_555 1_555
O2 C9 1_555 1_555
O3 C2 1_555 1_555
O4 C5 1_555 1_555
O5 C2 1_555 1_555
O6 C1 1_555 1_555
O8 C14 1_555 1_555
O9 C1 1_555 1_555
O10 C9 1_555 1_555
O11 C14 1_555 1_555
C1 C12 1_555 1_555
C2 C6 1_555 1_555
C3 C8 1_555 1_555
C4 C15 1_555 1_555
C5 C13 1_555 1_555
C6 C11 1_555 1_555
C7 H1 1_555 1_555
C8 C9 1_555 1_555
C10 C3 1_555 1_555
N1 C23 1_555 1_555
C11 H2 1_555 1_555
C12 C7 1_555 1_555
N2 C26 1_555 1_555
C13 C11 1_555 1_555
C14 C10 1_555 1_555
C15 C7 1_555 1_555
N3 H3 1_555 1_555
N4 C23 1_555 1_555
C16 C10 1_555 1_555
H4 C16 1_555 1_555
C17 C13 1_555 1_555
H5 C17 1_555 1_555
C18 N3 1_555 1_555
C19 C6 1_555 1_555
H6 C19 1_555 1_555
C20 C15 1_555 1_555
H7 C20 1_555 1_555
N5 H8 1_555 1_555
C21 C12 1_555 1_555
H9 C21 1_555 1_555
C22 C8 1_555 1_555
H10 C22 1_555 1_555
C23 N5 1_555 1_555
C24 C16 1_555 1_555
N6 H11 1_555 1_555
C25 C20 1_555 1_555
C26 N3 1_555 1_555
C27 N1 1_555 1_555
H12 C3 1_555 1_555
O24 Cu2 1_555 1_555
Cu7 Cu2 1_555 1_555
Cu9 O5 1_555 1_555
Cu11 O11 1_555 1_555
Cu13 Cu4 1_555 1_555
Cu16 O8 1_555 1_555
Cu17 O3 1_555 1_555
Cu20 Cu3 1_555 1_555
O25 Cu4 1_555 1_555
O28 Cu4 1_555 1_555
O31 Cu3 1_555 1_555
O33 Cu3 1_555 1_555
O35 Cu4 1_555 1_555
O37 Cu2 1_555 1_555
O38 Cu3 1_555 1_555
O40 Cu2 1_555 1_555
O1 Cu20 1_555 1_555
O2 Cu7 1_555 1_555
O6 Cu13 1_555 1_555
N2 C27 1_555 1_555
N4 C26 1_555 1_555
C17 C18 1_555 1_555
C18 C19 1_555 1_555
N5 C24 1_555 1_555
C21 C25 1_555 1_555
C22 C24 1_555 1_555
N6 C25 1_555 1_555
N6 C27 1_555 1_555
O19 Cu7 1_555 1_555
Cu9 Cu17 1_555 1_555
Cu11 Cu16 1_555 1_555
Cu1 O7 1_555 1_555
Cu5 O16 1_555 1_555
Cu6 O21 1_555 1_555
O13 C32 1_555 1_555
O14 Cu1 1_555 1_555
O15 C29 1_555 1_555
O16 C32 1_555 1_555
O17 C29 1_555 1_555
O18 C28 1_555 1_555
O20 C41 1_555 1_555
O21 C28 1_555 1_555
O22 C36 1_555 1_555
O23 C41 1_555 1_555
C28 C39 1_555 1_555
C29 C33 1_555 1_555
C30 C35 1_555 1_555
C32 C40 1_555 1_555
C33 C38 1_555 1_555
C34 H13 1_555 1_555
C35 C36 1_555 1_555
C36 O14 1_555 1_555
C37 C30 1_555 1_555
N7 C50 1_555 1_555
C38 H14 1_555 1_555
C39 C34 1_555 1_555
N8 C53 1_555 1_555
C40 C38 1_555 1_555
C41 C37 1_555 1_555
C42 C31 1_555 1_555
N9 H15 1_555 1_555
N10 C50 1_555 1_555
C43 C37 1_555 1_555
H16 C43 1_555 1_555
C44 C40 1_555 1_555
H17 C44 1_555 1_555
C45 N9 1_555 1_555
C46 C33 1_555 1_555
H18 C46 1_555 1_555
C47 C42 1_555 1_555
H19 C47 1_555 1_555
N11 H20 1_555 1_555
C48 C39 1_555 1_555
H21 C48 1_555 1_555
C49 C35 1_555 1_555
H22 C49 1_555 1_555
C50 N11 1_555 1_555
C51 C43 1_555 1_555
N12 H23 1_555 1_555
C52 C47 1_555 1_555
C53 N9 1_555 1_555
C54 N7 1_555 1_555
H24 C30 1_555 1_555
Cu8 Cu1 1_555 1_555
Cu10 O17 1_555 1_555
Cu12 O23 1_555 1_555
Cu14 Cu6 1_555 1_555
Cu15 O20 1_555 1_555
Cu18 O15 1_555 1_555
Cu19 Cu5 1_555 1_555
O26 Cu6 1_555 1_555
O27 Cu1 1_555 1_555
O29 Cu6 1_555 1_555
O30 Cu5 1_555 1_555
O32 Cu5 1_555 1_555
O34 Cu1 1_555 1_555
O36 Cu6 1_555 1_555
O39 Cu5 1_555 1_555
O12 Cu8 1_555 1_555
O13 Cu19 1_555 1_555
O18 Cu14 1_555 1_555
O22 Cu8 1_555 1_555
C34 C42 1_555 1_555
N8 C54 1_555 1_555
N10 C53 1_555 1_555
C44 C45 1_555 1_555
C45 C46 1_555 1_555
N11 C51 1_555 1_555
C48 C52 1_555 1_555
C49 C51 1_555 1_555
N12 C52 1_555 1_555
N12 C54 1_555 1_555
Cu10 Cu18 1_555 1_555
Cu12 Cu15 1_555 1_555
O27_2 Cu7 1_555 1_555
O34_2 Cu7 1_555 1_555
O37_2 Cu8 1_555 1_555
O40_2 Cu8 1_555 1_555
Cu1_2 O7_2 1_555 1_555
Cu10 O16_2 1_555 1_555
Cu16 O21_2 1_555 1_555
O13_2 C32_2 1_555 1_555
O14_2 Cu1_2 1_555 1_555
O15_2 C29_2 1_555 1_555
O16_2 C32_2 1_555 1_555
O31 C29_2 1_555 1_555
O18_2 C28_2 1_555 1_555
O36 C41_2 1_555 1_555
O21_2 C28_2 1_555 1_555
O22_2 C36_2 1_555 1_555
O23_2 C41_2 1_555 1_555
C28_2 C39_2 1_555 1_555
C29_2 C33_2 1_555 1_555
C30_2 C35_2 1_555 1_555
C32_2 C40_2 1_555 1_555
C33_2 C38_2 1_555 1_555
C34_2 H13_2 1_555 1_555
C35_2 C36_2 1_555 1_555
C36_2 O14_2 1_555 1_555
C37_2 C30_2 1_555 1_555
N7_2 C50_2 1_555 1_555
C38_2 H14_2 1_555 1_555
C39_2 C34_2 1_555 1_555
N8_2 C53_2 1_555 1_555
C40_2 C38_2 1_555 1_555
C41_2 C37_2 1_555 1_555
C42_2 C31_2 1_555 1_555
N9_2 H15_2 1_555 1_555
N10_2 C50_2 1_555 1_555
C43_2 C37_2 1_555 1_555
H16_2 C43_2 1_555 1_555
C44_2 C40_2 1_555 1_555
H17_2 C44_2 1_555 1_555
C45_2 N9_2 1_555 1_555
C46_2 C33_2 1_555 1_555
H18_2 C46_2 1_555 1_555
C47_2 C42_2 1_555 1_555
H19_2 C47_2 1_555 1_555
N11_2 H20_2 1_555 1_555
C48_2 C39_2 1_555 1_555
H21_2 C48_2 1_555 1_555
C49_2 C35_2 1_555 1_555
H22_2 C49_2 1_555 1_555
C50_2 N11_2 1_555 1_555
C51_2 C43_2 1_555 1_555
N12_2 H23_2 1_555 1_555
C52_2 C47_2 1_555 1_555
C53_2 N9_2 1_555 1_555
C54_2 N7_2 1_555 1_555
H24_2 C30_2 1_555 1_555
Cu8_2 Cu1_2 1_555 1_555
Cu14 O23_2 1_555 1_555
Cu20 O15_2 1_555 1_555
O26_2 Cu16 1_555 1_555
O27_3 Cu1_2 1_555 1_555
O29_2 Cu16 1_555 1_555
O32_2 Cu10 1_555 1_555
O34_3 Cu1_2 1_555 1_555
O39_2 Cu10 1_555 1_555
O12_2 Cu8_2 1_555 1_555
O13_2 Cu18 1_555 1_555
O18_2 Cu11 1_555 1_555
O22_2 Cu8_2 1_555 1_555
C34_2 C42_2 1_555 1_555
N8_2 C54_2 1_555 1_555
N10_2 C53_2 1_555 1_555
C44_2 C45_2 1_555 1_555
C45_2 C46_2 1_555 1_555
N11_2 C51_2 1_555 1_555
C48_2 C52_2 1_555 1_555
C49_2 C51_2 1_555 1_555
N12_2 C52_2 1_555 1_555
N12_2 C54_2 1_555 1_555
Cu2_2 O10_2 1_555 1_555
Cu9 O4_2 1_555 1_555
Cu15 O9_2 1_555 1_555
O1_2 C5_2 1_555 1_555
O2_2 C9_2 1_555 1_555
O3_2 C2_2 1_555 1_555
O4_2 C5_2 1_555 1_555
O30 C2_2 1_555 1_555
O6_2 C1_2 1_555 1_555
O35 C14_2 1_555 1_555
O9_2 C1_2 1_555 1_555
O10_2 C9_2 1_555 1_555
O11_2 C14_2 1_555 1_555
C1_2 C12_2 1_555 1_555
C2_2 C6_2 1_555 1_555
C3_2 C8_2 1_555 1_555
C4_2 C15_2 1_555 1_555
C5_2 C13_2 1_555 1_555
C6_2 C11_2 1_555 1_555
C7_2 H1_2 1_555 1_555
C8_2 C9_2 1_555 1_555
C10_2 C3_2 1_555 1_555
N1_2 C23_2 1_555 1_555
C11_2 H2_2 1_555 1_555
C12_2 C7_2 1_555 1_555
N2_2 C26_2 1_555 1_555
C13_2 C11_2 1_555 1_555
C14_2 C10_2 1_555 1_555
C15_2 C7_2 1_555 1_555
N3_2 H3_2 1_555 1_555
N4_2 C23_2 1_555 1_555
C16_2 C10_2 1_555 1_555
H4_2 C16_2 1_555 1_555
C17_2 C13_2 1_555 1_555
H5_2 C17_2 1_555 1_555
C18_2 N3_2 1_555 1_555
C19_2 C6_2 1_555 1_555
H6_2 C19_2 1_555 1_555
C20_2 C15_2 1_555 1_555
H7_2 C20_2 1_555 1_555
N5_2 H8_2 1_555 1_555
C21_2 C12_2 1_555 1_555
H9_2 C21_2 1_555 1_555
C22_2 C8_2 1_555 1_555
H10_2 C22_2 1_555 1_555
C23_2 N5_2 1_555 1_555
C24_2 C16_2 1_555 1_555
N6_2 H11_2 1_555 1_555
C25_2 C20_2 1_555 1_555
C26_2 N3_2 1_555 1_555
C27_2 N1_2 1_555 1_555
H12_2 C3_2 1_555 1_555
O24_2 Cu2_2 1_555 1_555
Cu7_2 Cu2_2 1_555 1_555
Cu13 O11_2 1_555 1_555
Cu19 O3_2 1_555 1_555
O25_2 Cu15 1_555 1_555
O28_2 Cu15 1_555 1_555
O33_2 Cu9 1_555 1_555
O37_3 Cu2_2 1_555 1_555
O38_2 Cu9 1_555 1_555
O40_3 Cu2_2 1_555 1_555
O1_2 Cu17 1_555 1_555
O2_2 Cu7_2 1_555 1_555
O6_2 Cu12 1_555 1_555
N2_2 C27_2 1_555 1_555
N4_2 C26_2 1_555 1_555
C17_2 C18_2 1_555 1_555
C18_2 C19_2 1_555 1_555
N5_2 C24_2 1_555 1_555
C21_2 C25_2 1_555 1_555
C22_2 C24_2 1_555 1_555
N6_2 C25_2 1_555 1_555
N6_2 C27_2 1_555 1_555
O19_2 Cu7_2 1_555 1_555
O37_4 Cu8_2 1_555 1_555
O40_4 Cu8_2 1_555 1_555
O27_4 Cu7_2 1_555 1_555
O34_4 Cu7_2 1_555 1_555
Cu1_3 O7_3 1_555 1_555
Cu4_2 O9_3 1_555 1_555
O3_3 C2_3 1_555 1_555
O5_2 C2_3 1_555 1_555
O6_3 C1_3 1_555 1_555
O7_3 C4_3 1_555 1_555
O9_3 C1_3 1_555 1_555
O12_3 C4_3 1_555 1_555
C1_3 C12_3 1_555 1_555
C2_3 C6_3 1_555 1_555
C4_3 C15_3 1_555 1_555
C6_3 C11_3 1_555 1_555
C7_3 H1_3 1_555 1_555
C11_3 H2_3 1_555 1_555
C12_3 C7_3 1_555 1_555
N2_3 C26_3 1_555 1_555
C15_3 C7_3 1_555 1_555
N3_3 H3_3 1_555 1_555
C18_3 N3_3 1_555 1_555
C19_3 C6_3 1_555 1_555
H6_3 C19_3 1_555 1_555
C20_3 C15_3 1_555 1_555
H7_3 C20_3 1_555 1_555
C21_3 C12_3 1_555 1_555
H9_3 C21_3 1_555 1_555
N6_3 H11_3 1_555 1_555
C25_3 C20_3 1_555 1_555
C26_3 N3_3 1_555 1_555
Cu5_2 O16_3 1_555 1_555
O13_3 C32_3 1_555 1_555
O14_3 Cu1_3 1_555 1_555
O16_3 C32_3 1_555 1_555
O20_2 C41_3 1_555 1_555
O22_3 C36_3 1_555 1_555
O23_3 C41_3 1_555 1_555
C30_3 C35_3 1_555 1_555
C32_3 C40_3 1_555 1_555
C35_3 C36_3 1_555 1_555
C36_3 O14_3 1_555 1_555
C37_3 C30_3 1_555 1_555
N7_3 C50_3 1_555 1_555
C41_3 C37_3 1_555 1_555
N10_3 C50_3 1_555 1_555
C43_3 C37_3 1_555 1_555
H16_3 C43_3 1_555 1_555
N11_3 H20_3 1_555 1_555
C49_3 C35_3 1_555 1_555
H22_3 C49_3 1_555 1_555
C50_3 N11_3 1_555 1_555
C51_3 C43_3 1_555 1_555
H24_3 C30_3 1_555 1_555
Cu8_3 Cu1_3 1_555 1_555
Cu9_2 O5_2 1_555 1_555
Cu12_2 O23_3 1_555 1_555
Cu13_2 Cu4_2 1_555 1_555
Cu15_2 O20_2 1_555 1_555
Cu17_2 O3_3 1_555 1_555
Cu19_2 Cu5_2 1_555 1_555
O25_3 Cu4_2 1_555 1_555
O28_3 Cu4_2 1_555 1_555
O30_2 Cu5_2 1_555 1_555
O32_3 Cu5_2 1_555 1_555
O35_2 Cu4_2 1_555 1_555
O39_3 Cu5_2 1_555 1_555
O6_3 Cu13_2 1_555 1_555
O12_3 Cu8_3 1_555 1_555
N2_3 C27_3 1_555 1_555
C17_3 C18_3 1_555 1_555
C18_3 C19_3 1_555 1_555
C21_3 C25_3 1_555 1_555
N6_3 C25_3 1_555 1_555
N6_3 C27_3 1_555 1_555
O13_3 Cu19_2 1_555 1_555
O22_3 Cu8_3 1_555 1_555
N11_3 C51_3 1_555 1_555
C49_3 C51_3 1_555 1_555
Cu9_2 Cu17_2 1_555 1_555
Cu12_2 Cu15_2 1_555 1_555
Cu8_4 Cu1_4 1_555 1_555
O27_5 Cu1_4 1_555 1_555
O34_5 Cu1_4 1_555 1_555
Cu2_3 O10_3 1_555 1_555
Cu3_2 O4_3 1_555 1_555
O1_3 C5_3 1_555 1_555
O2_3 C9_3 1_555 1_555
O4_3 C5_3 1_555 1_555
O8_2 C14_3 1_555 1_555
O10_3 C9_3 1_555 1_555
O11_3 C14_3 1_555 1_555
C3_3 C8_3 1_555 1_555
C5_3 C13_3 1_555 1_555
C8_3 C9_3 1_555 1_555
C10_3 C3_3 1_555 1_555
N1_3 C23_3 1_555 1_555
C14_3 C10_3 1_555 1_555
N4_3 C23_3 1_555 1_555
C16_3 C10_3 1_555 1_555
H4_3 C16_3 1_555 1_555
N5_3 H8_3 1_555 1_555
C22_3 C8_3 1_555 1_555
H10_3 C22_3 1_555 1_555
C23_3 N5_3 1_555 1_555
C24_3 C16_3 1_555 1_555
H12_3 C3_3 1_555 1_555
Cu6_2 O21_3 1_555 1_555
O15_3 C29_3 1_555 1_555
O17_2 C29_3 1_555 1_555
O18_3 C28_3 1_555 1_555
O19_3 C31_3 1_555 1_555
O21_3 C28_3 1_555 1_555
O24_3 Cu2_3 1_555 1_555
C28_3 C39_3 1_555 1_555
C29_3 C33_3 1_555 1_555
C31_3 O24_3 1_555 1_555
C33_3 C38_3 1_555 1_555
C34_3 H13_3 1_555 1_555
C38_3 H14_3 1_555 1_555
C39_3 C34_3 1_555 1_555
N8_3 C53_3 1_555 1_555
C42_3 C31_3 1_555 1_555
N9_3 H15_3 1_555 1_555
C45_3 N9_3 1_555 1_555
C46_3 C33_3 1_555 1_555
H18_3 C46_3 1_555 1_555
C47_3 C42_3 1_555 1_555
H19_3 C47_3 1_555 1_555
C48_3 C39_3 1_555 1_555
H21_3 C48_3 1_555 1_555
N12_3 H23_3 1_555 1_555
C52_3 C47_3 1_555 1_555
C53_3 N9_3 1_555 1_555
Cu7_3 Cu2_3 1_555 1_555
Cu10_2 O17_2 1_555 1_555
Cu11_2 O11_3 1_555 1_555
Cu14_2 Cu6_2 1_555 1_555
Cu16_2 O8_2 1_555 1_555
Cu18_2 O15_3 1_555 1_555
Cu20_2 Cu3_2 1_555 1_555
O26_3 Cu6_2 1_555 1_555
O29_3 Cu6_2 1_555 1_555
O31_2 Cu3_2 1_555 1_555
O33_3 Cu3_2 1_555 1_555
O36_2 Cu6_2 1_555 1_555
O38_3 Cu3_2 1_555 1_555
O1_3 Cu20_2 1_555 1_555
O2_3 Cu7_3 1_555 1_555
N5_3 C24_3 1_555 1_555
C22_3 C24_3 1_555 1_555
O18_3 Cu14_2 1_555 1_555
O19_3 Cu7_3 1_555 1_555
C34_3 C42_3 1_555 1_555
N8_3 C54_3 1_555 1_555
C44_3 C45_3 1_555 1_555
C45_3 C46_3 1_555 1_555
C48_3 C52_3 1_555 1_555
N12_3 C52_3 1_555 1_555
N12_3 C54_3 1_555 1_555
Cu10_2 Cu18_2 1_555 1_555
Cu11_2 Cu16_2 1_555 1_555
Cu7_4 Cu2_4 1_555 1_555
O37_5 Cu2_4 1_555 1_555
O40_5 Cu2_4 1_555 1_555
O37_6 Cu8_4 1_555 1_555
O40_6 Cu8_4 1_555 1_555
O27_6 Cu7_4 1_555 1_555
O34_6 Cu7_4 1_555 1_555
Cu1_5 O7_4 1_555 1_555
Cu15_2 O9_4 1_555 1_555
O3_4 C2_4 1_555 1_555
O30_2 C2_4 1_555 1_555
O6_4 C1_4 1_555 1_555
O7_4 C4_4 1_555 1_555
O9_4 C1_4 1_555 1_555
O12_4 C4_4 1_555 1_555
C1_4 C12_4 1_555 1_555
C2_4 C6_4 1_555 1_555
C4_4 C15_4 1_555 1_555
C6_4 C11_4 1_555 1_555
C7_4 H1_4 1_555 1_555
C11_4 H2_4 1_555 1_555
C12_4 C7_4 1_555 1_555
N2_4 C26_4 1_555 1_555
C15_4 C7_4 1_555 1_555
N3_4 H3_4 1_555 1_555
C18_4 N3_4 1_555 1_555
C19_4 C6_4 1_555 1_555
H6_4 C19_4 1_555 1_555
C20_4 C15_4 1_555 1_555
H7_4 C20_4 1_555 1_555
C21_4 C12_4 1_555 1_555
H9_4 C21_4 1_555 1_555
N6_4 H11_4 1_555 1_555
C25_4 C20_4 1_555 1_555
C26_4 N3_4 1_555 1_555
Cu10_2 O16_4 1_555 1_555
O13_4 C32_4 1_555 1_555
O14_4 Cu1_5 1_555 1_555
O16_4 C32_4 1_555 1_555
O36_2 C41_4 1_555 1_555
O22_4 C36_4 1_555 1_555
O23_4 C41_4 1_555 1_555
C30_4 C35_4 1_555 1_555
C32_4 C40_4 1_555 1_555
C35_4 C36_4 1_555 1_555
C36_4 O14_4 1_555 1_555
C37_4 C30_4 1_555 1_555
N7_4 C50_4 1_555 1_555
C41_4 C37_4 1_555 1_555
N10_4 C50_4 1_555 1_555
C43_4 C37_4 1_555 1_555
H16_4 C43_4 1_555 1_555
N11_4 H20_4 1_555 1_555
C49_4 C35_4 1_555 1_555
H22_4 C49_4 1_555 1_555
C50_4 N11_4 1_555 1_555
C51_4 C43_4 1_555 1_555
H24_4 C30_4 1_555 1_555
Cu8_5 Cu1_5 1_555 1_555
Cu14_2 O23_4 1_555 1_555
Cu19_2 O3_4 1_555 1_555
O25_4 Cu15_2 1_555 1_555
O28_4 Cu15_2 1_555 1_555
O32_4 Cu10_2 1_555 1_555
O39_4 Cu10_2 1_555 1_555
O6_4 Cu12_2 1_555 1_555
O12_4 Cu8_5 1_555 1_555
N2_4 C27_4 1_555 1_555
C17_4 C18_4 1_555 1_555
C18_4 C19_4 1_555 1_555
C21_4 C25_4 1_555 1_555
N6_4 C25_4 1_555 1_555
N6_4 C27_4 1_555 1_555
O13_4 Cu18_2 1_555 1_555
O22_4 Cu8_5 1_555 1_555
N11_4 C51_4 1_555 1_555
C49_4 C51_4 1_555 1_555
Cu8_6 Cu1_6 1_555 1_555
O27_7 Cu1_6 1_555 1_555
O34_7 Cu1_6 1_555 1_555
Cu2_5 O10_4 1_555 1_555
Cu9_2 O4_4 1_555 1_555
O1_4 C5_4 1_555 1_555
O2_4 C9_4 1_555 1_555
O4_4 C5_4 1_555 1_555
O35_2 C14_4 1_555 1_555
O10_4 C9_4 1_555 1_555
O11_4 C14_4 1_555 1_555
C3_4 C8_4 1_555 1_555
C5_4 C13_4 1_555 1_555
C8_4 C9_4 1_555 1_555
C10_4 C3_4 1_555 1_555
N1_4 C23_4 1_555 1_555
C14_4 C10_4 1_555 1_555
N4_4 C23_4 1_555 1_555
C16_4 C10_4 1_555 1_555
H4_4 C16_4 1_555 1_555
N5_4 H8_4 1_555 1_555
C22_4 C8_4 1_555 1_555
H10_4 C22_4 1_555 1_555
C23_4 N5_4 1_555 1_555
C24_4 C16_4 1_555 1_555
H12_4 C3_4 1_555 1_555
Cu16_2 O21_4 1_555 1_555
O15_4 C29_4 1_555 1_555
O31_2 C29_4 1_555 1_555
O18_4 C28_4 1_555 1_555
O19_4 C31_4 1_555 1_555
O21_4 C28_4 1_555 1_555
O24_4 Cu2_5 1_555 1_555
C28_4 C39_4 1_555 1_555
C29_4 C33_4 1_555 1_555
C31_4 O24_4 1_555 1_555
C33_4 C38_4 1_555 1_555
C34_4 H13_4 1_555 1_555
C38_4 H14_4 1_555 1_555
C39_4 C34_4 1_555 1_555
N8_4 C53_4 1_555 1_555
C42_4 C31_4 1_555 1_555
N9_4 H15_4 1_555 1_555
C45_4 N9_4 1_555 1_555
C46_4 C33_4 1_555 1_555
H18_4 C46_4 1_555 1_555
C47_4 C42_4 1_555 1_555
H19_4 C47_4 1_555 1_555
C48_4 C39_4 1_555 1_555
H21_4 C48_4 1_555 1_555
N12_4 H23_4 1_555 1_555
C52_4 C47_4 1_555 1_555
C53_4 N9_4 1_555 1_555
Cu7_5 Cu2_5 1_555 1_555
Cu13_2 O11_4 1_555 1_555
Cu20_2 O15_4 1_555 1_555
O26_4 Cu16_2 1_555 1_555
O29_4 Cu16_2 1_555 1_555
O33_4 Cu9_2 1_555 1_555
O38_4 Cu9_2 1_555 1_555
O1_4 Cu17_2 1_555 1_555
O2_4 Cu7_5 1_555 1_555
N5_4 C24_4 1_555 1_555
C22_4 C24_4 1_555 1_555
O18_4 Cu11_2 1_555 1_555
O19_4 Cu7_5 1_555 1_555
C34_4 C42_4 1_555 1_555
N8_4 C54_4 1_555 1_555
C44_4 C45_4 1_555 1_555
C45_4 C46_4 1_555 1_555
C48_4 C52_4 1_555 1_555
N12_4 C52_4 1_555 1_555
N12_4 C54_4 1_555 1_555
Cu7_6 Cu2_6 1_555 1_555
O37_7 Cu2_6 1_555 1_555
O40_7 Cu2_6 1_555 1_555
O37_8 Cu8_6 1_555 1_555
O40_8 Cu8_6 1_555 1_555
O27_8 Cu7_6 1_555 1_555
O34_8 Cu7_6 1_555 1_555
Cu12_2 O16_5 1_555 1_555
Cu18_2 O21_5 1_555 1_555
O25_4 C32_5 1_555 1_555
O29_3 C29_5 1_555 1_555
O16_5 C32_5 1_555 1_555
O17_3 C29_5 1_555 1_555
O32_4 C28_5 1_555 1_555
O20_3 C41_5 1_555 1_555
O21_5 C28_5 1_555 1_555
O37 C36_5 1_555 1_555
O39_3 C41_5 1_555 1_555
C28_5 C39_5 1_555 1_555
C29_5 C33_5 1_555 1_555
C30_5 C35_5 1_555 1_555
C32_5 C40_5 1_555 1_555
C33_5 C38_5 1_555 1_555
C34_5 H13_5 1_555 1_555
C35_5 C36_5 1_555 1_555
C36_5 O27_2 1_555 1_555
C37_5 C30_5 1_555 1_555
N7_5 C50_5 1_555 1_555
C38_5 H14_5 1_555 1_555
C39_5 C34_5 1_555 1_555
N8_5 C53_5 1_555 1_555
C40_5 C38_5 1_555 1_555
C41_5 C37_5 1_555 1_555
C42_5 C31_5 1_555 1_555
N9_5 H15_5 1_555 1_555
N10_5 C50_5 1_555 1_555
C43_5 C37_5 1_555 1_555
H16_5 C43_5 1_555 1_555
C44_5 C40_5 1_555 1_555
H17_5 C44_5 1_555 1_555
C45_5 N9_5 1_555 1_555
C46_5 C33_5 1_555 1_555
H18_5 C46_5 1_555 1_555
C47_5 C42_5 1_555 1_555
H19_5 C47_5 1_555 1_555
N11_5 H20_5 1_555 1_555
C48_5 C39_5 1_555 1_555
H21_5 C48_5 1_555 1_555
C49_5 C35_5 1_555 1_555
H22_5 C49_5 1_555 1_555
C50_5 N11_5 1_555 1_555
C51_5 C43_5 1_555 1_555
N12_5 H23_5 1_555 1_555
C52_5 C47_5 1_555 1_555
C53_5 N9_5 1_555 1_555
C54_5 N7_5 1_555 1_555
H24_5 C30_5 1_555 1_555
Cu14_2 O17_3 1_555 1_555
Cu19_2 O20_3 1_555 1_555
O30_3 Cu12_2 1_555 1_555
O36_3 Cu18_2 1_555 1_555
C34_5 C42_5 1_555 1_555
N8_5 C54_5 1_555 1_555
N10_5 C53_5 1_555 1_555
C44_5 C45_5 1_555 1_555
C45_5 C46_5 1_555 1_555
N11_5 C51_5 1_555 1_555
C48_5 C52_5 1_555 1_555
C49_5 C51_5 1_555 1_555
N12_5 C52_5 1_555 1_555
N12_5 C54_5 1_555 1_555
Cu11_2 O4_5 1_555 1_555
Cu17_2 O9_5 1_555 1_555
O26_4 C5_5 1_555 1_555
O27 C9_5 1_555 1_555
O28_3 C2_5 1_555 1_555
O4_5 C5_5 1_555 1_555
O5_3 C2_5 1_555 1_555
O33_4 C1_5 1_555 1_555
O8_3 C14_5 1_555 1_555
O9_5 C1_5 1_555 1_555
O37_2 C9_5 1_555 1_555
O38_3 C14_5 1_555 1_555
C1_5 C12_5 1_555 1_555
C2_5 C6_5 1_555 1_555
C3_5 C8_5 1_555 1_555
C4_5 C15_5 1_555 1_555
C5_5 C13_5 1_555 1_555
C6_5 C11_5 1_555 1_555
C7_5 H1_5 1_555 1_555
C8_5 C9_5 1_555 1_555
C10_5 C3_5 1_555 1_555
N1_5 C23_5 1_555 1_555
C11_5 H2_5 1_555 1_555
C12_5 C7_5 1_555 1_555
N2_5 C26_5 1_555 1_555
C13_5 C11_5 1_555 1_555
C14_5 C10_5 1_555 1_555
C15_5 C7_5 1_555 1_555
N3_5 H3_5 1_555 1_555
N4_5 C23_5 1_555 1_555
C16_5 C10_5 1_555 1_555
H4_5 C16_5 1_555 1_555
C17_5 C13_5 1_555 1_555
H5_5 C17_5 1_555 1_555
C18_5 N3_5 1_555 1_555
C19_5 C6_5 1_555 1_555
H6_5 C19_5 1_555 1_555
C20_5 C15_5 1_555 1_555
H7_5 C20_5 1_555 1_555
N5_5 H8_5 1_555 1_555
C21_5 C12_5 1_555 1_555
H9_5 C21_5 1_555 1_555
C22_5 C8_5 1_555 1_555
H10_5 C22_5 1_555 1_555
C23_5 N5_5 1_555 1_555
C24_5 C16_5 1_555 1_555
N6_5 H11_5 1_555 1_555
C25_5 C20_5 1_555 1_555
C26_5 N3_5 1_555 1_555
C27_5 N1_5 1_555 1_555
H12_5 C3_5 1_555 1_555
Cu13_2 O5_3 1_555 1_555
Cu20_2 O8_3 1_555 1_555
O31_3 Cu11_2 1_555 1_555
O35_3 Cu17_2 1_555 1_555
N2_5 C27_5 1_555 1_555
N4_5 C26_5 1_555 1_555
C17_5 C18_5 1_555 1_555
C18_5 C19_5 1_555 1_555
N5_5 C24_5 1_555 1_555
C21_5 C25_5 1_555 1_555
C22_5 C24_5 1_555 1_555
N6_5 C25_5 1_555 1_555
N6_5 C27_5 1_555 1_555
Cu13_2 O4_6 1_555 1_555
Cu19_2 O9_6 1_555 1_555
O25_3 C5_6 1_555 1_555
O27_3 C9_6 1_555 1_555
O28_4 C2_6 1_555 1_555
O4_6 C5_6 1_555 1_555
O30_3 C2_6 1_555 1_555
O32_3 C1_6 1_555 1_555
O35_3 C14_6 1_555 1_555
O9_6 C1_6 1_555 1_555
O37_4 C9_6 1_555 1_555
O38_4 C14_6 1_555 1_555
C1_6 C12_6 1_555 1_555
C2_6 C6_6 1_555 1_555
C3_6 C8_6 1_555 1_555
C4_6 C15_6 1_555 1_555
C5_6 C13_6 1_555 1_555
C6_6 C11_6 1_555 1_555
C7_6 H1_6 1_555 1_555
C8_6 C9_6 1_555 1_555
C10_6 C3_6 1_555 1_555
N1_6 C23_6 1_555 1_555
C11_6 H2_6 1_555 1_555
C12_6 C7_6 1_555 1_555
N2_6 C26_6 1_555 1_555
C13_6 C11_6 1_555 1_555
C14_6 C10_6 1_555 1_555
C15_6 C7_6 1_555 1_555
N3_6 H3_6 1_555 1_555
N4_6 C23_6 1_555 1_555
C16_6 C10_6 1_555 1_555
H4_6 C16_6 1_555 1_555
C17_6 C13_6 1_555 1_555
H5_6 C17_6 1_555 1_555
C18_6 N3_6 1_555 1_555
C19_6 C6_6 1_555 1_555
H6_6 C19_6 1_555 1_555
C20_6 C15_6 1_555 1_555
H7_6 C20_6 1_555 1_555
N5_6 H8_6 1_555 1_555
C21_6 C12_6 1_555 1_555
H9_6 C21_6 1_555 1_555
C22_6 C8_6 1_555 1_555
H10_6 C22_6 1_555 1_555
C23_6 N5_6 1_555 1_555
C24_6 C16_6 1_555 1_555
N6_6 H11_6 1_555 1_555
C25_6 C20_6 1_555 1_555
C26_6 N3_6 1_555 1_555
C27_6 N1_6 1_555 1_555
H12_6 C3_6 1_555 1_555
N2_6 C27_6 1_555 1_555
N4_6 C26_6 1_555 1_555
C17_6 C18_6 1_555 1_555
C18_6 C19_6 1_555 1_555
N5_6 C24_6 1_555 1_555
C21_6 C25_6 1_555 1_555
C22_6 C24_6 1_555 1_555
N6_6 C25_6 1_555 1_555
N6_6 C27_6 1_555 1_555
Cu14_2 O16_6 1_555 1_555
Cu20_2 O21_6 1_555 1_555
O26_3 C32_6 1_555 1_555
O29_4 C29_6 1_555 1_555
O16_6 C32_6 1_555 1_555
O31_3 C29_6 1_555 1_555
O33_3 C28_6 1_555 1_555
O36_3 C41_6 1_555 1_555
O21_6 C28_6 1_555 1_555
O37_3 C36_6 1_555 1_555
O39_4 C41_6 1_555 1_555
C28_6 C39_6 1_555 1_555
C29_6 C33_6 1_555 1_555
C30_6 C35_6 1_555 1_555
C32_6 C40_6 1_555 1_555
C33_6 C38_6 1_555 1_555
C34_6 H13_6 1_555 1_555
C35_6 C36_6 1_555 1_555
C36_6 O27_4 1_555 1_555
C37_6 C30_6 1_555 1_555
N7_6 C50_6 1_555 1_555
C38_6 H14_6 1_555 1_555
C39_6 C34_6 1_555 1_555
N8_6 C53_6 1_555 1_555
C40_6 C38_6 1_555 1_555
C41_6 C37_6 1_555 1_555
C42_6 C31_6 1_555 1_555
N9_6 H15_6 1_555 1_555
N10_6 C50_6 1_555 1_555
C43_6 C37_6 1_555 1_555
H16_6 C43_6 1_555 1_555
C44_6 C40_6 1_555 1_555
H17_6 C44_6 1_555 1_555
C45_6 N9_6 1_555 1_555
C46_6 C33_6 1_555 1_555
H18_6 C46_6 1_555 1_555
C47_6 C42_6 1_555 1_555
H19_6 C47_6 1_555 1_555
N11_6 H20_6 1_555 1_555
C48_6 C39_6 1_555 1_555
H21_6 C48_6 1_555 1_555
C49_6 C35_6 1_555 1_555
H22_6 C49_6 1_555 1_555
C50_6 N11_6 1_555 1_555
C51_6 C43_6 1_555 1_555
N12_6 H23_6 1_555 1_555
C52_6 C47_6 1_555 1_555
C53_6 N9_6 1_555 1_555
C54_6 N7_6 1_555 1_555
H24_6 C30_6 1_555 1_555
C34_6 C42_6 1_555 1_555
N8_6 C54_6 1_555 1_555
N10_6 C53_6 1_555 1_555
C44_6 C45_6 1_555 1_555
C45_6 C46_6 1_555 1_555
N11_6 C51_6 1_555 1_555
C48_6 C52_6 1_555 1_555
C49_6 C51_6 1_555 1_555
N12_6 C52_6 1_555 1_555
N12_6 C54_6 1_555 1_555
Cu11 O4_7 1_555 1_555
O26_2 C5_7 1_555 1_555
O27_5 C9_7 1_555 1_555
O4_7 C5_7 1_555 1_555
O8_4 C14_7 1_555 1_555
O37_6 C9_7 1_555 1_555
O38 C14_7 1_555 1_555
C3_7 C8_7 1_555 1_555
C5_7 C13_7 1_555 1_555
C8_7 C9_7 1_555 1_555
C10_7 C3_7 1_555 1_555
N1_7 C23_7 1_555 1_555
C14_7 C10_7 1_555 1_555
N4_7 C23_7 1_555 1_555
C16_7 C10_7 1_555 1_555
H4_7 C16_7 1_555 1_555
N5_7 H8_7 1_555 1_555
C22_7 C8_7 1_555 1_555
H10_7 C22_7 1_555 1_555
C23_7 N5_7 1_555 1_555
C24_7 C16_7 1_555 1_555
H12_7 C3_7 1_555 1_555
Cu18 O21_7 1_555 1_555
O29 C29_7 1_555 1_555
O17_4 C29_7 1_555 1_555
O32_2 C28_7 1_555 1_555
O34_5 C31_7 1_555 1_555
O21_7 C28_7 1_555 1_555
C28_7 C39_7 1_555 1_555
C29_7 C33_7 1_555 1_555
C31_7 O40_6 1_555 1_555
C33_7 C38_7 1_555 1_555
C34_7 H13_7 1_555 1_555
C38_7 H14_7 1_555 1_555
C39_7 C34_7 1_555 1_555
N8_7 C53_7 1_555 1_555
C42_7 C31_7 1_555 1_555
N9_7 H15_7 1_555 1_555
C45_7 N9_7 1_555 1_555
C46_7 C33_7 1_555 1_555
H18_7 C46_7 1_555 1_555
C47_7 C42_7 1_555 1_555
H19_7 C47_7 1_555 1_555
C48_7 C39_7 1_555 1_555
H21_7 C48_7 1_555 1_555
N12_7 H23_7 1_555 1_555
C52_7 C47_7 1_555 1_555
C53_7 N9_7 1_555 1_555
Cu14 O17_4 1_555 1_555
Cu20 O8_4 1_555 1_555
O31_4 Cu11 1_555 1_555
O36_4 Cu18 1_555 1_555
N5_7 C24_7 1_555 1_555
C22_7 C24_7 1_555 1_555
C34_7 C42_7 1_555 1_555
N8_7 C54_7 1_555 1_555
C44_7 C45_7 1_555 1_555
C45_7 C46_7 1_555 1_555
C48_7 C52_7 1_555 1_555
N12_7 C52_7 1_555 1_555
N12_7 C54_7 1_555 1_555
Cu17 O9_7 1_555 1_555
O28 C2_7 1_555 1_555
O5_4 C2_7 1_555 1_555
O33_2 C1_7 1_555 1_555
O34_6 C4_7 1_555 1_555
O9_7 C1_7 1_555 1_555
O40_5 C4_7 1_555 1_555
C1_7 C12_7 1_555 1_555
C2_7 C6_7 1_555 1_555
C4_7 C15_7 1_555 1_555
C6_7 C11_7 1_555 1_555
C7_7 H1_7 1_555 1_555
C11_7 H2_7 1_555 1_555
C12_7 C7_7 1_555 1_555
N2_7 C26_7 1_555 1_555
C15_7 C7_7 1_555 1_555
N3_7 H3_7 1_555 1_555
C18_7 N3_7 1_555 1_555
C19_7 C6_7 1_555 1_555
H6_7 C19_7 1_555 1_555
C20_7 C15_7 1_555 1_555
H7_7 C20_7 1_555 1_555
C21_7 C12_7 1_555 1_555
H9_7 C21_7 1_555 1_555
N6_7 H11_7 1_555 1_555
C25_7 C20_7 1_555 1_555
C26_7 N3_7 1_555 1_555
Cu12 O16_7 1_555 1_555
O25_2 C32_7 1_555 1_555
O16_7 C32_7 1_555 1_555
O20_4 C41_7 1_555 1_555
O37_5 C36_7 1_555 1_555
O39 C41_7 1_555 1_555
C30_7 C35_7 1_555 1_555
C32_7 C40_7 1_555 1_555
C35_7 C36_7 1_555 1_555
C36_7 O27_6 1_555 1_555
C37_7 C30_7 1_555 1_555
N7_7 C50_7 1_555 1_555
C41_7 C37_7 1_555 1_555
N10_7 C50_7 1_555 1_555
C43_7 C37_7 1_555 1_555
H16_7 C43_7 1_555 1_555
N11_7 H20_7 1_555 1_555
C49_7 C35_7 1_555 1_555
H22_7 C49_7 1_555 1_555
C50_7 N11_7 1_555 1_555
C51_7 C43_7 1_555 1_555
H24_7 C30_7 1_555 1_555
Cu13 O5_4 1_555 1_555
Cu19 O20_4 1_555 1_555
O30_4 Cu12 1_555 1_555
O35_4 Cu17 1_555 1_555
N2_7 C27_7 1_555 1_555
C17_7 C18_7 1_555 1_555
C18_7 C19_7 1_555 1_555
C21_7 C25_7 1_555 1_555
N6_7 C25_7 1_555 1_555
N6_7 C27_7 1_555 1_555
N11_7 C51_7 1_555 1_555
C49_7 C51_7 1_555 1_555
Cu13 O4_8 1_555 1_555
O25 C5_8 1_555 1_555
O27_7 C9_8 1_555 1_555
O4_8 C5_8 1_555 1_555
O35_4 C14_8 1_555 1_555
O37_8 C9_8 1_555 1_555
O38_2 C14_8 1_555 1_555
C3_8 C8_8 1_555 1_555
C5_8 C13_8 1_555 1_555
C8_8 C9_8 1_555 1_555
C10_8 C3_8 1_555 1_555
N1_8 C23_8 1_555 1_555
C14_8 C10_8 1_555 1_555
N4_8 C23_8 1_555 1_555
C16_8 C10_8 1_555 1_555
H4_8 C16_8 1_555 1_555
N5_8 H8_8 1_555 1_555
C22_8 C8_8 1_555 1_555
H10_8 C22_8 1_555 1_555
C23_8 N5_8 1_555 1_555
C24_8 C16_8 1_555 1_555
H12_8 C3_8 1_555 1_555
Cu20 O21_8 1_555 1_555
O29_2 C29_8 1_555 1_555
O31_4 C29_8 1_555 1_555
O33 C28_8 1_555 1_555
O34_7 C31_8 1_555 1_555
O21_8 C28_8 1_555 1_555
C28_8 C39_8 1_555 1_555
C29_8 C33_8 1_555 1_555
C31_8 O40_8 1_555 1_555
C33_8 C38_8 1_555 1_555
C34_8 H13_8 1_555 1_555
C38_8 H14_8 1_555 1_555
C39_8 C34_8 1_555 1_555
N8_8 C53_8 1_555 1_555
C42_8 C31_8 1_555 1_555
N9_8 H15_8 1_555 1_555
C45_8 N9_8 1_555 1_555
C46_8 C33_8 1_555 1_555
H18_8 C46_8 1_555 1_555
C47_8 C42_8 1_555 1_555
H19_8 C47_8 1_555 1_555
C48_8 C39_8 1_555 1_555
H21_8 C48_8 1_555 1_555
N12_8 H23_8 1_555 1_555
C52_8 C47_8 1_555 1_555
C53_8 N9_8 1_555 1_555
N5_8 C24_8 1_555 1_555
C22_8 C24_8 1_555 1_555
C34_8 C42_8 1_555 1_555
N8_8 C54_8 1_555 1_555
C44_8 C45_8 1_555 1_555
C45_8 C46_8 1_555 1_555
C48_8 C52_8 1_555 1_555
N12_8 C52_8 1_555 1_555
N12_8 C54_8 1_555 1_555
Cu19 O9_8 1_555 1_555
O28_2 C2_8 1_555 1_555
O30_4 C2_8 1_555 1_555
O32 C1_8 1_555 1_555
O34_8 C4_8 1_555 1_555
O9_8 C1_8 1_555 1_555
O40_7 C4_8 1_555 1_555
C1_8 C12_8 1_555 1_555
C2_8 C6_8 1_555 1_555
C4_8 C15_8 1_555 1_555
C6_8 C11_8 1_555 1_555
C7_8 H1_8 1_555 1_555
C11_8 H2_8 1_555 1_555
C12_8 C7_8 1_555 1_555
N2_8 C26_8 1_555 1_555
C15_8 C7_8 1_555 1_555
N3_8 H3_8 1_555 1_555
C18_8 N3_8 1_555 1_555
C19_8 C6_8 1_555 1_555
H6_8 C19_8 1_555 1_555
C20_8 C15_8 1_555 1_555
H7_8 C20_8 1_555 1_555
C21_8 C12_8 1_555 1_555
H9_8 C21_8 1_555 1_555
N6_8 H11_8 1_555 1_555
C25_8 C20_8 1_555 1_555
C26_8 N3_8 1_555 1_555
Cu14 O16_8 1_555 1_555
O26 C32_8 1_555 1_555
O16_8 C32_8 1_555 1_555
O36_4 C41_8 1_555 1_555
O37_7 C36_8 1_555 1_555
O39_2 C41_8 1_555 1_555
C30_8 C35_8 1_555 1_555
C32_8 C40_8 1_555 1_555
C35_8 C36_8 1_555 1_555
C36_8 O27_8 1_555 1_555
C37_8 C30_8 1_555 1_555
N7_8 C50_8 1_555 1_555
C41_8 C37_8 1_555 1_555
N10_8 C50_8 1_555 1_555
C43_8 C37_8 1_555 1_555
H16_8 C43_8 1_555 1_555
N11_8 H20_8 1_555 1_555
C49_8 C35_8 1_555 1_555
H22_8 C49_8 1_555 1_555
C50_8 N11_8 1_555 1_555
C51_8 C43_8 1_555 1_555
H24_8 C30_8 1_555 1_555
N2_8 C27_8 1_555 1_555
C17_8 C18_8 1_555 1_555
C18_8 C19_8 1_555 1_555
C21_8 C25_8 1_555 1_555
N6_8 C25_8 1_555 1_555
N6_8 C27_8 1_555 1_555
N11_8 C51_8 1_555 1_555
C49_8 C51_8 1_555 1_555

#END
