
###############################################################################
#
# This file contains modified crystal structure data generated from the
# MOF subset of the Cambridge Structural Database (CSD) v543 
# hosted by the Cambridge Crystallographic Data Centre (CCDC).
#
# This work is licensed under the Creative Commons
# Attribution-NonCommercial-ShareAlike 4.0 International License.
# To view a copy of this license, visit
# http://creativecommons.org/licenses/by-nc-sa/4.0/
# or send a letter to
# Creative Commons, PO Box 1866, Mountain View, CA 94042, USA.
#
# CIF created using the CSD Python API on 29 September 2022
# The structure has been converted into the P1 space group
# The structure has a 3D framework
# The original CSD entry PAPPAB01 is in the tetragonal crystal system
# The framework has been calculated to contain at least 10.0% void space
# The void calculation uses a probe of radius 1.32A, grid spacing 0.4
#
###############################################################################

data_PAPPAB01
_chemical_formula_moiety         '(C432 H192 Cu40 N96 O180)n'
_symmetry_cell_setting           triclinic
_symmetry_space_group_name_H-M   'P 1'
_symmetry_Int_Tables_number      1
_space_group_name_Hall           'P 1'
loop_
_symmetry_equiv_pos_site_id
_symmetry_equiv_pos_as_xyz
1 x,y,z
_cell_length_a                   26.49170(10)
_cell_length_b                   26.49170(10)
_cell_length_c                   37.9804(4)
_cell_angle_alpha                90
_cell_angle_beta                 90
_cell_angle_gamma                90
_cell_volume                     26655
loop_
_atom_site_label
_atom_site_type_symbol
_atom_site_fract_x
_atom_site_fract_y
_atom_site_fract_z
Cu2 Cu 0.05679(5) 0.70082(5) 0.500000
Cu3 Cu 0.11925(4) 0.17814(4) 0.64822(3)
Cu4 Cu 0.15640(4) 0.23260(4) 0.69427(3)
O1 O 0.2674(2) 0.5903(2) 0.78399(15)
O2 O 0.1373(2) 0.2892(2) 0.66471(16)
O4 O 0.1203(2) 0.6239(2) 0.53712(15)
O5 O 0.3558(2) 0.3784(2) 0.82483(16)
O6 O 0.3207(2) 0.5580(2) 0.82424(16)
O7 O 0.0986(2) 0.2395(2) 0.62541(16)
O8 O 0.1818(2) 0.8155(2) 0.62547(15)
O9 O 0.2270(2) 0.7803(2) 0.66931(16)
O10 O 0.1073(2) 0.7069(2) 0.53611(16)
O11 O 0.3264(2) 0.3291(2) 0.78149(16)
N1 N 0.1666(3) 0.5312(3) 0.6298(2)
C1 C 0.1113(3) 0.2819(3) 0.6372(2)
C2 C 0.3331(3) 0.3712(3) 0.7962(2)
C3 C 0.1264(3) 0.6680(3) 0.5491(2)
N2 N 0.2257(4) 0.4420(3) 0.7050(2)
H1 H 0.216853 0.410946 0.702613
C4 C 0.3098(3) 0.4168(3) 0.7796(2)
C5 C 0.1668(3) 0.7215(3) 0.5941(2)
H2 H 0.155188 0.749905 0.582172
C6 C 0.0578(3) 0.3220(3) 0.5914(2)
H3 H 0.044358 0.290451 0.586214
N3 N 0.2220(3) 0.5212(3) 0.6791(2)
C7 C 0.1574(3) 0.6735(3) 0.5810(2)
C8 C 0.0016(3) 0.3599(3) 0.5462(2)
N4 N 0.1736(3) 0.4512(3) 0.6582(2)
N5 N 0.1201(4) 0.4644(3) 0.6113(2)
H4 H 0.108746 0.486975 0.597023
N6 N 0.2165(4) 0.5963(3) 0.6515(2)
H5 H 0.240622 0.603370 0.665783
C9 C 0.2937(3) 0.5549(3) 0.7973(2)
C10 C 0.0418(3) 0.3641(3) 0.5734(2)
C11 C 0.3140(3) 0.4639(3) 0.7948(2)
H6 H 0.332543 0.468046 0.815403
C12 C 0.2018(3) 0.7784(3) 0.6413(2)
C13 C 0.0943(3) 0.3270(3) 0.6173(2)
C14 C 0.2095(4) 0.6849(3) 0.6434(2)
H7 H 0.226717 0.688784 0.664571
C15 C 0.2906(4) 0.5047(3) 0.7795(2)
C16 C 0.1936(3) 0.7267(3) 0.6252(2)
C17 C 0.2616(3) 0.4990(3) 0.7501(3)
H8 H 0.245159 0.526809 0.740482
C18 C 0.0617(4) 0.4110(3) 0.5810(2)
H9 H 0.049899 0.439338 0.569158
C19 C 0.2809(4) 0.4111(3) 0.7495(3)
H10 H 0.277880 0.379321 0.739260
C20 C 0.2564(4) 0.4517(3) 0.7343(3)
C21 C 0.0995(4) 0.4163(3) 0.6064(3)
C22 C 0.1146(4) 0.3741(3) 0.6251(3)
H11 H 0.138407 0.377230 0.642962
C23 C 0.2005(4) 0.5473(3) 0.6529(3)
C24 C 0.1738(4) 0.6307(3) 0.5994(3)
H12 H 0.167138 0.598509 0.590926
C25 C 0.2002(4) 0.6373(4) 0.6305(3)
C26 C 0.2079(4) 0.4735(3) 0.6800(3)
C27 C 0.1549(4) 0.4819(4) 0.6345(3)
O15 O 0.0199(2) 0.6016(2) 0.53542(17)
O24 O 0.0074(2) 0.6855(2) 0.53595(17)
Cu7 Cu 0.07193(5) 0.60872(5) 0.500000
Cu10 Cu 0.17814(4) 0.88075(4) 0.64822(3)
Cu11 Cu 0.38075(4) 0.32186(4) 0.85178(3)
Cu14 Cu 0.32186(4) 0.61925(4) 0.85178(3)
Cu16 Cu 0.23260(4) 0.84360(4) 0.69427(3)
Cu17 Cu 0.34360(4) 0.26740(4) 0.80573(3)
Cu20 Cu 0.26740(4) 0.65640(4) 0.80573(3)
O25 O 0.0903(2) 0.2326(2) 0.71601(15)
O29 O 0.1442(2) 0.1216(2) 0.67517(16)
O31 O 0.0580(2) 0.1793(2) 0.67576(16)
O33 O 0.1845(2) 0.1818(2) 0.62547(15)
O35 O 0.2197(2) 0.2270(2) 0.66931(16)
O37 O 0.1073(2) 0.7069(2) 0.46389(16)
O38 O 0.1736(2) 0.1709(2) 0.71851(16)
O40 O 0.0074(2) 0.6855(2) 0.46405(17)
Cu1 Cu 0.92807(5) 0.39128(5) 0.500000
O3 O 0.9801(2) 0.3984(2) 0.53542(17)
O12 O 0.9926(2) 0.3145(2) 0.53595(17)
Cu5 Cu 0.88075(4) 0.82186(4) 0.64822(3)
Cu6 Cu 0.84360(4) 0.76740(4) 0.69427(3)
O13 O 0.7326(2) 0.4097(2) 0.78399(15)
O14 O 0.8627(2) 0.7108(2) 0.66471(16)
O16 O 0.8797(2) 0.3761(2) 0.53712(15)
O17 O 0.6442(2) 0.6216(2) 0.82483(16)
O18 O 0.6793(2) 0.4420(2) 0.82424(16)
O19 O 0.9014(2) 0.7605(2) 0.62541(16)
O20 O 0.8182(2) 0.1845(2) 0.62547(15)
O21 O 0.7730(2) 0.2197(2) 0.66931(16)
O22 O 0.8927(2) 0.2931(2) 0.53611(16)
O23 O 0.6736(2) 0.6709(2) 0.78149(16)
N7 N 0.8334(3) 0.4688(3) 0.6298(2)
C28 C 0.8887(3) 0.7181(3) 0.6372(2)
C29 C 0.6669(3) 0.6288(3) 0.7962(2)
C30 C 0.8736(3) 0.3320(3) 0.5491(2)
N8 N 0.7743(4) 0.5580(3) 0.7050(2)
H13 H 0.783147 0.589054 0.702613
C31 C 0.6902(3) 0.5832(3) 0.7796(2)
C32 C 0.8332(3) 0.2785(3) 0.5941(2)
H14 H 0.844812 0.250095 0.582172
C33 C 0.9422(3) 0.6780(3) 0.5914(2)
H15 H 0.955642 0.709549 0.586214
N9 N 0.7780(3) 0.4788(3) 0.6791(2)
C34 C 0.8426(3) 0.3265(3) 0.5810(2)
C35 C 0.9984(3) 0.6401(3) 0.5462(2)
N10 N 0.8264(3) 0.5488(3) 0.6582(2)
N11 N 0.8799(4) 0.5356(3) 0.6113(2)
H16 H 0.891254 0.513025 0.597023
N12 N 0.7835(4) 0.4037(3) 0.6515(2)
H17 H 0.759378 0.396630 0.665783
C36 C 0.7063(3) 0.4451(3) 0.7973(2)
C37 C 0.9582(3) 0.6359(3) 0.5734(2)
C38 C 0.6860(3) 0.5361(3) 0.7948(2)
H18 H 0.667457 0.531954 0.815403
C39 C 0.7982(3) 0.2216(3) 0.6413(2)
C40 C 0.9057(3) 0.6730(3) 0.6173(2)
C41 C 0.7905(4) 0.3151(3) 0.6434(2)
H19 H 0.773283 0.311216 0.664571
C42 C 0.7094(4) 0.4953(3) 0.7795(2)
C43 C 0.8064(3) 0.2733(3) 0.6252(2)
C44 C 0.7384(3) 0.5010(3) 0.7501(3)
H20 H 0.754841 0.473191 0.740482
C45 C 0.9383(4) 0.5890(3) 0.5810(2)
H21 H 0.950101 0.560662 0.569158
C46 C 0.7191(4) 0.5889(3) 0.7495(3)
H22 H 0.722120 0.620679 0.739260
C47 C 0.7436(4) 0.5483(3) 0.7343(3)
C48 C 0.9005(4) 0.5837(3) 0.6064(3)
C49 C 0.8854(4) 0.6259(3) 0.6251(3)
H23 H 0.861593 0.622770 0.642962
C50 C 0.7995(4) 0.4527(3) 0.6529(3)
C51 C 0.8262(4) 0.3693(3) 0.5994(3)
H24 H 0.832862 0.401491 0.590926
C52 C 0.7998(4) 0.3627(4) 0.6305(3)
C53 C 0.7921(4) 0.5265(3) 0.6800(3)
C54 C 0.8451(4) 0.5181(4) 0.6345(3)
Cu8 Cu 0.94321(5) 0.29918(5) 0.500000
Cu9 Cu 0.82186(4) 0.11925(4) 0.64822(3)
Cu12 Cu 0.61925(4) 0.67814(4) 0.85178(3)
Cu13 Cu 0.67814(4) 0.38075(4) 0.85178(3)
Cu15 Cu 0.76740(4) 0.15640(4) 0.69427(3)
Cu18 Cu 0.65640(4) 0.73260(4) 0.80573(3)
Cu19 Cu 0.73260(4) 0.34360(4) 0.80573(3)
O26 O 0.9097(2) 0.7674(2) 0.71601(15)
O27 O 0.9801(2) 0.3984(2) 0.46458(17)
O28 O 0.8797(2) 0.3761(2) 0.46288(15)
O30 O 0.8558(2) 0.8784(2) 0.67517(16)
O32 O 0.9420(2) 0.8207(2) 0.67576(16)
O34 O 0.8155(2) 0.8182(2) 0.62547(15)
O36 O 0.7803(2) 0.7730(2) 0.66931(16)
O39 O 0.8264(2) 0.8291(2) 0.71851(16)
O27_2 O 0.0199(2) 0.6016(2) 0.46458(17)
O28_2 O 0.1203(2) 0.6239(2) 0.46288(15)
O37_2 O 0.8927(2) 0.2931(2) 0.46389(16)
O40_2 O 0.9926(2) 0.3145(2) 0.46405(17)
Cu2_2 Cu 0.29918(5) 0.05679(5) 0.500000
O1_2 O 0.4097(2) 0.2674(2) 0.78399(15)
O2_2 O 0.7108(2) 0.1373(2) 0.66471(16)
O4_2 O 0.3761(2) 0.1203(2) 0.53712(15)
O5_2 O 0.6216(2) 0.3558(2) 0.82483(16)
O6_2 O 0.4420(2) 0.3207(2) 0.82424(16)
O7_2 O 0.7605(2) 0.0986(2) 0.62541(16)
O10_2 O 0.2931(2) 0.1073(2) 0.53611(16)
O11_2 O 0.6709(2) 0.3264(2) 0.78149(16)
N1_2 N 0.4688(3) 0.1666(3) 0.6298(2)
C1_2 C 0.7181(3) 0.1113(3) 0.6372(2)
C2_2 C 0.6288(3) 0.3331(3) 0.7962(2)
C3_2 C 0.3320(3) 0.1264(3) 0.5491(2)
N2_2 N 0.5580(3) 0.2257(4) 0.7050(2)
H1_2 H 0.589054 0.216853 0.702613
C4_2 C 0.5832(3) 0.3098(3) 0.7796(2)
C5_2 C 0.2785(3) 0.1668(3) 0.5941(2)
H2_2 H 0.250095 0.155188 0.582172
C6_2 C 0.6780(3) 0.0578(3) 0.5914(2)
H3_2 H 0.709549 0.044358 0.586214
N3_2 N 0.4788(3) 0.2220(3) 0.6791(2)
C7_2 C 0.3265(3) 0.1574(3) 0.5810(2)
C8_2 C 0.6401(3) 0.0016(3) 0.5462(2)
N4_2 N 0.5488(3) 0.1736(3) 0.6582(2)
N5_2 N 0.5356(3) 0.1201(4) 0.6113(2)
H4_2 H 0.513025 0.108746 0.597023
N6_2 N 0.4037(3) 0.2165(4) 0.6515(2)
H5_2 H 0.396630 0.240622 0.665783
C9_2 C 0.4451(3) 0.2937(3) 0.7973(2)
C10_2 C 0.6359(3) 0.0418(3) 0.5734(2)
C11_2 C 0.5361(3) 0.3140(3) 0.7948(2)
H6_2 H 0.531954 0.332543 0.815403
C12_2 C 0.2216(3) 0.2018(3) 0.6413(2)
C13_2 C 0.6730(3) 0.0943(3) 0.6173(2)
C14_2 C 0.3151(3) 0.2095(4) 0.6434(2)
H7_2 H 0.311216 0.226717 0.664571
C15_2 C 0.4953(3) 0.2906(4) 0.7795(2)
C16_2 C 0.2733(3) 0.1936(3) 0.6252(2)
C17_2 C 0.5010(3) 0.2616(3) 0.7501(3)
H8_2 H 0.473191 0.245159 0.740482
C18_2 C 0.5890(3) 0.0617(4) 0.5810(2)
H9_2 H 0.560662 0.049899 0.569158
C19_2 C 0.5889(3) 0.2809(4) 0.7495(3)
H10_2 H 0.620679 0.277880 0.739260
C20_2 C 0.5483(3) 0.2564(4) 0.7343(3)
C21_2 C 0.5837(3) 0.0995(4) 0.6064(3)
C22_2 C 0.6259(3) 0.1146(4) 0.6251(3)
H11_2 H 0.622770 0.138407 0.642962
C23_2 C 0.4527(3) 0.2005(4) 0.6529(3)
C24_2 C 0.3693(3) 0.1738(4) 0.5994(3)
H12_2 H 0.401491 0.167138 0.590926
C25_2 C 0.3627(4) 0.2002(4) 0.6305(3)
C26_2 C 0.5265(3) 0.2079(4) 0.6800(3)
C27_2 C 0.5181(4) 0.1549(4) 0.6345(3)
O15_2 O 0.3984(2) 0.0199(2) 0.53542(17)
O24_2 O 0.3145(2) 0.0074(2) 0.53595(17)
Cu7_2 Cu 0.39128(5) 0.07193(5) 0.500000
O25_2 O 0.7674(2) 0.0903(2) 0.71601(15)
O29_2 O 0.8784(2) 0.1442(2) 0.67517(16)
O31_2 O 0.8207(2) 0.0580(2) 0.67576(16)
O37_3 O 0.2931(2) 0.1073(2) 0.46389(16)
O38_2 O 0.8291(2) 0.1736(2) 0.71851(16)
O40_3 O 0.3145(2) 0.0074(2) 0.46405(17)
Cu1_2 Cu 0.60872(5) 0.92807(5) 0.500000
O3_2 O 0.6016(2) 0.9801(2) 0.53542(17)
O12_2 O 0.6855(2) 0.9926(2) 0.53595(17)
O13_2 O 0.5903(2) 0.7326(2) 0.78399(15)
O14_2 O 0.2892(2) 0.8627(2) 0.66471(16)
O16_2 O 0.6239(2) 0.8797(2) 0.53712(15)
O17_2 O 0.3784(2) 0.6442(2) 0.82483(16)
O18_2 O 0.5580(2) 0.6793(2) 0.82424(16)
O19_2 O 0.2395(2) 0.9014(2) 0.62541(16)
O22_2 O 0.7069(2) 0.8927(2) 0.53611(16)
O23_2 O 0.3291(2) 0.6736(2) 0.78149(16)
N7_2 N 0.5312(3) 0.8334(3) 0.6298(2)
C28_2 C 0.2819(3) 0.8887(3) 0.6372(2)
C29_2 C 0.3712(3) 0.6669(3) 0.7962(2)
C30_2 C 0.6680(3) 0.8736(3) 0.5491(2)
N8_2 N 0.4420(3) 0.7743(4) 0.7050(2)
H13_2 H 0.410946 0.783147 0.702613
C31_2 C 0.4168(3) 0.6902(3) 0.7796(2)
C32_2 C 0.7215(3) 0.8332(3) 0.5941(2)
H14_2 H 0.749905 0.844812 0.582172
C33_2 C 0.3220(3) 0.9422(3) 0.5914(2)
H15_2 H 0.290451 0.955642 0.586214
N9_2 N 0.5212(3) 0.7780(3) 0.6791(2)
C34_2 C 0.6735(3) 0.8426(3) 0.5810(2)
C35_2 C 0.3599(3) 0.9984(3) 0.5462(2)
N10_2 N 0.4512(3) 0.8264(3) 0.6582(2)
N11_2 N 0.4644(3) 0.8799(4) 0.6113(2)
H16_2 H 0.486975 0.891254 0.597023
N12_2 N 0.5963(3) 0.7835(4) 0.6515(2)
H17_2 H 0.603370 0.759378 0.665783
C36_2 C 0.5549(3) 0.7063(3) 0.7973(2)
C37_2 C 0.3641(3) 0.9582(3) 0.5734(2)
C38_2 C 0.4639(3) 0.6860(3) 0.7948(2)
H18_2 H 0.468046 0.667457 0.815403
C39_2 C 0.7784(3) 0.7982(3) 0.6413(2)
C40_2 C 0.3270(3) 0.9057(3) 0.6173(2)
C41_2 C 0.6849(3) 0.7905(4) 0.6434(2)
H19_2 H 0.688784 0.773283 0.664571
C42_2 C 0.5047(3) 0.7094(4) 0.7795(2)
C43_2 C 0.7267(3) 0.8064(3) 0.6252(2)
C44_2 C 0.4990(3) 0.7384(3) 0.7501(3)
H20_2 H 0.526809 0.754841 0.740482
C45_2 C 0.4110(3) 0.9383(4) 0.5810(2)
H21_2 H 0.439338 0.950101 0.569158
C46_2 C 0.4111(3) 0.7191(4) 0.7495(3)
H22_2 H 0.379321 0.722120 0.739260
C47_2 C 0.4517(3) 0.7436(4) 0.7343(3)
C48_2 C 0.4163(3) 0.9005(4) 0.6064(3)
C49_2 C 0.3741(3) 0.8854(4) 0.6251(3)
H23_2 H 0.377230 0.861593 0.642962
C50_2 C 0.5473(3) 0.7995(4) 0.6529(3)
C51_2 C 0.6307(3) 0.8262(4) 0.5994(3)
H24_2 H 0.598509 0.832862 0.590926
C52_2 C 0.6373(4) 0.7998(4) 0.6305(3)
C53_2 C 0.4735(3) 0.7921(4) 0.6800(3)
C54_2 C 0.4819(4) 0.8451(4) 0.6345(3)
Cu8_2 Cu 0.70082(5) 0.94321(5) 0.500000
O26_2 O 0.2326(2) 0.9097(2) 0.71601(15)
O27_3 O 0.6016(2) 0.9801(2) 0.46458(17)
O28_3 O 0.6239(2) 0.8797(2) 0.46288(15)
O30_2 O 0.1216(2) 0.8558(2) 0.67517(16)
O32_2 O 0.1793(2) 0.9420(2) 0.67576(16)
O39_2 O 0.1709(2) 0.8264(2) 0.71851(16)
O27_4 O 0.3984(2) 0.0199(2) 0.46458(17)
O28_4 O 0.3761(2) 0.1203(2) 0.46288(15)
O37_4 O 0.7069(2) 0.8927(2) 0.46389(16)
O40_4 O 0.6855(2) 0.9926(2) 0.46405(17)
Cu2_3 Cu 0.55679(5) 0.20082(5) 0.000000
O1_3 O 0.7674(2) 0.0903(2) 0.28399(15)
O4_3 O 0.6203(2) 0.1239(2) 0.03712(15)
O6_3 O 0.8207(2) 0.0580(2) 0.32424(16)
O8_2 O 0.6818(2) 0.3155(2) 0.12547(15)
O9_2 O 0.7270(2) 0.2803(2) 0.16931(16)
O10_3 O 0.6073(2) 0.2069(2) 0.03611(16)
N1_3 N 0.6666(3) 0.0312(3) 0.1298(2)
C3_3 C 0.6264(3) 0.1680(3) 0.0491(2)
C5_3 C 0.6668(3) 0.2215(3) 0.0941(2)
H2_3 H 0.655188 0.249905 0.082172
N3_3 N 0.7220(3) 0.0212(3) 0.1791(2)
C7_3 C 0.6574(3) 0.1735(3) 0.0810(2)
N6_3 N 0.7165(4) 0.0963(3) 0.1515(2)
H5_3 H 0.740622 0.103370 0.165783
C9_3 C 0.7937(3) 0.0549(3) 0.2973(2)
C12_3 C 0.7018(3) 0.2784(3) 0.1413(2)
C14_3 C 0.7095(4) 0.1849(3) 0.1434(2)
H7_3 H 0.726717 0.188784 0.164571
C15_3 C 0.7906(4) 0.0047(3) 0.2795(2)
C16_3 C 0.6936(3) 0.2267(3) 0.1252(2)
H8_3 H 0.745159 0.026809 0.240482
C23_3 C 0.7005(4) 0.0473(3) 0.1529(3)
C24_3 C 0.6738(4) 0.1307(3) 0.0994(3)
H12_3 H 0.667138 0.098509 0.090926
C25_3 C 0.7002(4) 0.1373(4) 0.1305(3)
Cu5_2 Cu 0.38075(4) 0.32186(4) 0.14822(3)
Cu6_2 Cu 0.34360(4) 0.26740(4) 0.19427(3)
O14_3 O 0.3627(2) 0.2108(2) 0.16471(16)
O15_3 O 0.5199(2) 0.1016(2) 0.03542(17)
O17_3 O 0.1442(2) 0.1216(2) 0.32483(16)
O19_3 O 0.4014(2) 0.2605(2) 0.12541(16)
O23_3 O 0.1736(2) 0.1709(2) 0.28149(16)
O24_3 O 0.5074(2) 0.1855(2) 0.03595(17)
C28_3 C 0.3887(3) 0.2181(3) 0.1372(2)
C29_3 C 0.1669(3) 0.1288(3) 0.2962(2)
N8_3 N 0.2743(4) 0.0580(3) 0.2050(2)
H13_3 H 0.283147 0.089054 0.202613
C31_3 C 0.1902(3) 0.0832(3) 0.2796(2)
C33_3 C 0.4422(3) 0.1780(3) 0.0914(2)
H15_3 H 0.455642 0.209549 0.086214
C35_3 C 0.4984(3) 0.1401(3) 0.0462(2)
N10_3 N 0.3264(3) 0.0488(3) 0.1582(2)
N11_3 N 0.3799(4) 0.0356(3) 0.1113(2)
H16_3 H 0.391254 0.013025 0.097023
C37_3 C 0.4582(3) 0.1359(3) 0.0734(2)
C38_3 C 0.1860(3) 0.0361(3) 0.2948(2)
H18_3 H 0.167457 0.031954 0.315403
C40_3 C 0.4057(3) 0.1730(3) 0.1173(2)
C44_3 C 0.2384(3) 0.0010(3) 0.2501(3)
C45_3 C 0.4383(4) 0.0890(3) 0.0810(2)
H21_3 H 0.450101 0.060662 0.069158
C46_3 C 0.2191(4) 0.0889(3) 0.2495(3)
H22_3 H 0.222120 0.120679 0.239260
C47_3 C 0.2436(4) 0.0483(3) 0.2343(3)
C48_3 C 0.4005(4) 0.0837(3) 0.1064(3)
C49_3 C 0.3854(4) 0.1259(3) 0.1251(3)
H23_3 H 0.361593 0.122770 0.142962
C53_3 C 0.2921(4) 0.0265(3) 0.1800(3)
C54_3 C 0.3451(4) 0.0181(4) 0.1345(3)
Cu7_3 Cu 0.57193(5) 0.10872(5) 0.000000
Cu10_2 Cu 0.67814(4) 0.38075(4) 0.14822(3)
Cu12_2 Cu 0.11925(4) 0.17814(4) 0.35178(3)
Cu14_2 Cu 0.82186(4) 0.11925(4) 0.35178(3)
Cu16_2 Cu 0.73260(4) 0.34360(4) 0.19427(3)
Cu18_2 Cu 0.15640(4) 0.23260(4) 0.30573(3)
Cu20_2 Cu 0.76740(4) 0.15640(4) 0.30573(3)
O26_3 O 0.4097(2) 0.2674(2) 0.21601(15)
O30_3 O 0.3558(2) 0.3784(2) 0.17517(16)
O32_3 O 0.4420(2) 0.3207(2) 0.17576(16)
O34_2 O 0.3155(2) 0.3182(2) 0.12547(15)
O36_2 O 0.2803(2) 0.2730(2) 0.16931(16)
O39_3 O 0.3264(2) 0.3291(2) 0.21851(16)
Cu2_4 Cu 0.55679(5) 0.20082(5) 1.000000
Cu7_4 Cu 0.57193(5) 0.10872(5) 1.000000
O37_5 O 0.6073(2) 0.2069(2) 0.96389(16)
O40_5 O 0.5074(2) 0.1855(2) 0.96405(17)
Cu1_3 Cu 0.42807(5) 0.89128(5) 0.000000
Cu3_2 Cu 0.61925(4) 0.67814(4) 0.14822(3)
Cu4_2 Cu 0.65640(4) 0.73260(4) 0.19427(3)
O2_3 O 0.6373(2) 0.7892(2) 0.16471(16)
O3_3 O 0.4801(2) 0.8984(2) 0.03542(17)
O5_3 O 0.8558(2) 0.8784(2) 0.32483(16)
O7_3 O 0.5986(2) 0.7395(2) 0.12541(16)
O11_3 O 0.8264(2) 0.8291(2) 0.28149(16)
O12_3 O 0.4926(2) 0.8145(2) 0.03595(17)
C1_3 C 0.6113(3) 0.7819(3) 0.1372(2)
C2_3 C 0.8331(3) 0.8712(3) 0.2962(2)
N2_3 N 0.7257(4) 0.9420(3) 0.2050(2)
H1_3 H 0.716853 0.910946 0.202613
C4_3 C 0.8098(3) 0.9168(3) 0.2796(2)
C6_3 C 0.5578(3) 0.8220(3) 0.0914(2)
H3_3 H 0.544358 0.790451 0.086214
C8_3 C 0.5016(3) 0.8599(3) 0.0462(2)
N4_3 N 0.6736(3) 0.9512(3) 0.1582(2)
N5_3 N 0.6201(4) 0.9644(3) 0.1113(2)
H4_3 H 0.608746 0.986975 0.097023
C10_3 C 0.5418(3) 0.8641(3) 0.0734(2)
C11_3 C 0.8140(3) 0.9639(3) 0.2948(2)
H6_3 H 0.832543 0.968046 0.315403
C13_3 C 0.5943(3) 0.8270(3) 0.1173(2)
C17_3 C 0.7616(3) 0.9990(3) 0.2501(3)
C18_3 C 0.5617(4) 0.9110(3) 0.0810(2)
H9_3 H 0.549899 0.939338 0.069158
C19_3 C 0.7809(4) 0.9111(3) 0.2495(3)
H10_3 H 0.777880 0.879321 0.239260
C20_3 C 0.7564(4) 0.9517(3) 0.2343(3)
C21_3 C 0.5995(4) 0.9163(3) 0.1064(3)
C22_3 C 0.6146(4) 0.8741(3) 0.1251(3)
H11_3 H 0.638407 0.877230 0.142962
C26_3 C 0.7079(4) 0.9735(3) 0.1800(3)
C27_3 C 0.6549(4) 0.9819(4) 0.1345(3)
O13_3 O 0.2326(2) 0.9097(2) 0.28399(15)
O16_3 O 0.3797(2) 0.8761(2) 0.03712(15)
O18_3 O 0.1793(2) 0.9420(2) 0.32424(16)
O20_2 O 0.3182(2) 0.6845(2) 0.12547(15)
O21_2 O 0.2730(2) 0.7197(2) 0.16931(16)
O22_3 O 0.3927(2) 0.7931(2) 0.03611(16)
N7_3 N 0.3334(3) 0.9688(3) 0.1298(2)
C30_3 C 0.3736(3) 0.8320(3) 0.0491(2)
C32_3 C 0.3332(3) 0.7785(3) 0.0941(2)
H14_3 H 0.344812 0.750095 0.082172
N9_3 N 0.2780(3) 0.9788(3) 0.1791(2)
C34_3 C 0.3426(3) 0.8265(3) 0.0810(2)
N12_3 N 0.2835(4) 0.9037(3) 0.1515(2)
H17_3 H 0.259378 0.896630 0.165783
C36_3 C 0.2063(3) 0.9451(3) 0.2973(2)
C39_3 C 0.2982(3) 0.7216(3) 0.1413(2)
C41_3 C 0.2905(4) 0.8151(3) 0.1434(2)
H19_3 H 0.273283 0.811216 0.164571
C42_3 C 0.2094(4) 0.9953(3) 0.2795(2)
C43_3 C 0.3064(3) 0.7733(3) 0.1252(2)
H20_3 H 0.254841 0.973191 0.240482
C50_3 C 0.2995(4) 0.9527(3) 0.1529(3)
C51_3 C 0.3262(4) 0.8693(3) 0.0994(3)
H24_3 H 0.332862 0.901491 0.090926
C52_3 C 0.2998(4) 0.8627(4) 0.1305(3)
Cu8_3 Cu 0.44321(5) 0.79918(5) 0.000000
Cu9_2 Cu 0.32186(4) 0.61925(4) 0.14822(3)
Cu11_2 Cu 0.88075(4) 0.82186(4) 0.35178(3)
Cu13_2 Cu 0.17814(4) 0.88075(4) 0.35178(3)
Cu15_2 Cu 0.26740(4) 0.65640(4) 0.19427(3)
Cu17_2 Cu 0.84360(4) 0.76740(4) 0.30573(3)
Cu19_2 Cu 0.23260(4) 0.84360(4) 0.30573(3)
O25_3 O 0.5903(2) 0.7326(2) 0.21601(15)
O29_3 O 0.6442(2) 0.6216(2) 0.17517(16)
O31_3 O 0.5580(2) 0.6793(2) 0.17576(16)
O33_2 O 0.6845(2) 0.6818(2) 0.12547(15)
O35_2 O 0.7197(2) 0.7270(2) 0.16931(16)
O38_3 O 0.6736(2) 0.6709(2) 0.21851(16)
Cu1_4 Cu 0.42807(5) 0.89128(5) 1.000000
Cu8_4 Cu 0.44321(5) 0.79918(5) 1.000000
O27_5 O 0.4801(2) 0.8984(2) 0.96458(17)
O28_5 O 0.3797(2) 0.8761(2) 0.96288(15)
O27_6 O 0.5199(2) 0.1016(2) 0.96458(17)
O28_6 O 0.6203(2) 0.1239(2) 0.96288(15)
O37_6 O 0.3927(2) 0.7931(2) 0.96389(16)
O40_6 O 0.4926(2) 0.8145(2) 0.96405(17)
Cu1_5 Cu 0.10872(5) 0.42807(5) 0.000000
O2_4 O 0.2108(2) 0.6373(2) 0.16471(16)
O3_4 O 0.1016(2) 0.4801(2) 0.03542(17)
O5_4 O 0.1216(2) 0.8558(2) 0.32483(16)
O7_4 O 0.2605(2) 0.5986(2) 0.12541(16)
O11_4 O 0.1709(2) 0.8264(2) 0.28149(16)
O12_4 O 0.1855(2) 0.4926(2) 0.03595(17)
C1_4 C 0.2181(3) 0.6113(3) 0.1372(2)
C2_4 C 0.1288(3) 0.8331(3) 0.2962(2)
N2_4 N 0.0580(3) 0.7257(4) 0.2050(2)
H1_4 H 0.089054 0.716853 0.202613
C4_4 C 0.0832(3) 0.8098(3) 0.2796(2)
C6_4 C 0.1780(3) 0.5578(3) 0.0914(2)
H3_4 H 0.209549 0.544358 0.086214
C8_4 C 0.1401(3) 0.5016(3) 0.0462(2)
N4_4 N 0.0488(3) 0.6736(3) 0.1582(2)
N5_4 N 0.0356(3) 0.6201(4) 0.1113(2)
H4_4 H 0.013025 0.608746 0.097023
C10_4 C 0.1359(3) 0.5418(3) 0.0734(2)
C11_4 C 0.0361(3) 0.8140(3) 0.2948(2)
H6_4 H 0.031954 0.832543 0.315403
C13_4 C 0.1730(3) 0.5943(3) 0.1173(2)
C17_4 C 0.0010(3) 0.7616(3) 0.2501(3)
C18_4 C 0.0890(3) 0.5617(4) 0.0810(2)
H9_4 H 0.060662 0.549899 0.069158
C19_4 C 0.0889(3) 0.7809(4) 0.2495(3)
H10_4 H 0.120679 0.777880 0.239260
C20_4 C 0.0483(3) 0.7564(4) 0.2343(3)
C21_4 C 0.0837(3) 0.5995(4) 0.1064(3)
C22_4 C 0.1259(3) 0.6146(4) 0.1251(3)
H11_4 H 0.122770 0.638407 0.142962
C26_4 C 0.0265(3) 0.7079(4) 0.1800(3)
C27_4 C 0.0181(4) 0.6549(4) 0.1345(3)
O13_4 O 0.0903(2) 0.2326(2) 0.28399(15)
O16_4 O 0.1239(2) 0.3797(2) 0.03712(15)
O18_4 O 0.0580(2) 0.1793(2) 0.32424(16)
O22_4 O 0.2069(2) 0.3927(2) 0.03611(16)
N7_4 N 0.0312(3) 0.3334(3) 0.1298(2)
C30_4 C 0.1680(3) 0.3736(3) 0.0491(2)
C32_4 C 0.2215(3) 0.3332(3) 0.0941(2)
H14_4 H 0.249905 0.344812 0.082172
N9_4 N 0.0212(3) 0.2780(3) 0.1791(2)
C34_4 C 0.1735(3) 0.3426(3) 0.0810(2)
N12_4 N 0.0963(3) 0.2835(4) 0.1515(2)
H17_4 H 0.103370 0.259378 0.165783
C36_4 C 0.0549(3) 0.2063(3) 0.2973(2)
C39_4 C 0.2784(3) 0.2982(3) 0.1413(2)
C41_4 C 0.1849(3) 0.2905(4) 0.1434(2)
H19_4 H 0.188784 0.273283 0.164571
C42_4 C 0.0047(3) 0.2094(4) 0.2795(2)
C43_4 C 0.2267(3) 0.3064(3) 0.1252(2)
H20_4 H 0.026809 0.254841 0.240482
C50_4 C 0.0473(3) 0.2995(4) 0.1529(3)
C51_4 C 0.1307(3) 0.3262(4) 0.0994(3)
H24_4 H 0.098509 0.332862 0.090926
C52_4 C 0.1373(4) 0.2998(4) 0.1305(3)
Cu8_5 Cu 0.20082(5) 0.44321(5) 0.000000
O25_4 O 0.2674(2) 0.5903(2) 0.21601(15)
O29_4 O 0.3784(2) 0.6442(2) 0.17517(16)
O31_4 O 0.3207(2) 0.5580(2) 0.17576(16)
O38_4 O 0.3291(2) 0.6736(2) 0.21851(16)
Cu1_6 Cu 0.10872(5) 0.42807(5) 1.000000
Cu8_6 Cu 0.20082(5) 0.44321(5) 1.000000
O27_7 O 0.1016(2) 0.4801(2) 0.96458(17)
O28_7 O 0.1239(2) 0.3797(2) 0.96288(15)
Cu2_5 Cu 0.79918(5) 0.55679(5) 0.000000
O1_4 O 0.9097(2) 0.7674(2) 0.28399(15)
O4_4 O 0.8761(2) 0.6203(2) 0.03712(15)
O6_4 O 0.9420(2) 0.8207(2) 0.32424(16)
O10_4 O 0.7931(2) 0.6073(2) 0.03611(16)
N1_4 N 0.9688(3) 0.6666(3) 0.1298(2)
C3_4 C 0.8320(3) 0.6264(3) 0.0491(2)
C5_4 C 0.7785(3) 0.6668(3) 0.0941(2)
H2_4 H 0.750095 0.655188 0.082172
N3_4 N 0.9788(3) 0.7220(3) 0.1791(2)
C7_4 C 0.8265(3) 0.6574(3) 0.0810(2)
N6_4 N 0.9037(3) 0.7165(4) 0.1515(2)
H5_4 H 0.896630 0.740622 0.165783
C9_4 C 0.9451(3) 0.7937(3) 0.2973(2)
C12_4 C 0.7216(3) 0.7018(3) 0.1413(2)
C14_4 C 0.8151(3) 0.7095(4) 0.1434(2)
H7_4 H 0.811216 0.726717 0.164571
C15_4 C 0.9953(3) 0.7906(4) 0.2795(2)
C16_4 C 0.7733(3) 0.6936(3) 0.1252(2)
H8_4 H 0.973191 0.745159 0.240482
C23_4 C 0.9527(3) 0.7005(4) 0.1529(3)
C24_4 C 0.8693(3) 0.6738(4) 0.0994(3)
H12_4 H 0.901491 0.667138 0.090926
C25_4 C 0.8627(4) 0.7002(4) 0.1305(3)
O14_4 O 0.7892(2) 0.3627(2) 0.16471(16)
O15_4 O 0.8984(2) 0.5199(2) 0.03542(17)
O17_4 O 0.8784(2) 0.1442(2) 0.32483(16)
O19_4 O 0.7395(2) 0.4014(2) 0.12541(16)
O23_4 O 0.8291(2) 0.1736(2) 0.28149(16)
O24_4 O 0.8145(2) 0.5074(2) 0.03595(17)
C28_4 C 0.7819(3) 0.3887(3) 0.1372(2)
C29_4 C 0.8712(3) 0.1669(3) 0.2962(2)
N8_4 N 0.9420(3) 0.2743(4) 0.2050(2)
H13_4 H 0.910946 0.283147 0.202613
C31_4 C 0.9168(3) 0.1902(3) 0.2796(2)
C33_4 C 0.8220(3) 0.4422(3) 0.0914(2)
H15_4 H 0.790451 0.455642 0.086214
C35_4 C 0.8599(3) 0.4984(3) 0.0462(2)
N10_4 N 0.9512(3) 0.3264(3) 0.1582(2)
N11_4 N 0.9644(3) 0.3799(4) 0.1113(2)
H16_4 H 0.986975 0.391254 0.097023
C37_4 C 0.8641(3) 0.4582(3) 0.0734(2)
C38_4 C 0.9639(3) 0.1860(3) 0.2948(2)
H18_4 H 0.968046 0.167457 0.315403
C40_4 C 0.8270(3) 0.4057(3) 0.1173(2)
C44_4 C 0.9990(3) 0.2384(3) 0.2501(3)
C45_4 C 0.9110(3) 0.4383(4) 0.0810(2)
H21_4 H 0.939338 0.450101 0.069158
C46_4 C 0.9111(3) 0.2191(4) 0.2495(3)
H22_4 H 0.879321 0.222120 0.239260
C47_4 C 0.9517(3) 0.2436(4) 0.2343(3)
C48_4 C 0.9163(3) 0.4005(4) 0.1064(3)
C49_4 C 0.8741(3) 0.3854(4) 0.1251(3)
H23_4 H 0.877230 0.361593 0.142962
C53_4 C 0.9735(3) 0.2921(4) 0.1800(3)
C54_4 C 0.9819(4) 0.3451(4) 0.1345(3)
Cu7_5 Cu 0.89128(5) 0.57193(5) 0.000000
O26_4 O 0.7326(2) 0.4097(2) 0.21601(15)
O30_4 O 0.6216(2) 0.3558(2) 0.17517(16)
O32_4 O 0.6793(2) 0.4420(2) 0.17576(16)
O39_4 O 0.6709(2) 0.3264(2) 0.21851(16)
Cu2_6 Cu 0.79918(5) 0.55679(5) 1.000000
Cu7_6 Cu 0.89128(5) 0.57193(5) 1.000000
O37_7 O 0.7931(2) 0.6073(2) 0.96389(16)
O40_7 O 0.8145(2) 0.5074(2) 0.96405(17)
O37_8 O 0.2069(2) 0.3927(2) 0.96389(16)
O40_8 O 0.1855(2) 0.4926(2) 0.96405(17)
O27_8 O 0.8984(2) 0.5199(2) 0.96458(17)
O28_8 O 0.8761(2) 0.6203(2) 0.96288(15)
O14_5 O 0.1373(2) 0.2892(2) 0.33529(16)
O19_5 O 0.0986(2) 0.2395(2) 0.37459(16)
O20_3 O 0.1818(2) 0.8155(2) 0.37453(15)
O21_3 O 0.2270(2) 0.7803(2) 0.33069(16)
N7_5 N 0.1666(3) 0.5312(3) 0.3702(2)
C28_5 C 0.1113(3) 0.2819(3) 0.3628(2)
C29_5 C 0.3331(3) 0.3712(3) 0.2038(2)
C30_5 C 0.1264(3) 0.6680(3) 0.4509(2)
N8_5 N 0.2257(4) 0.4420(3) 0.2950(2)
H13_5 H 0.216853 0.410946 0.297387
C31_5 C 0.3098(3) 0.4168(3) 0.2204(2)
C32_5 C 0.1668(3) 0.7215(3) 0.4059(2)
H14_5 H 0.155188 0.749905 0.417828
C33_5 C 0.0578(3) 0.3220(3) 0.4086(2)
H15_5 H 0.044358 0.290451 0.413786
N9_5 N 0.2220(3) 0.5212(3) 0.3209(2)
C34_5 C 0.1574(3) 0.6735(3) 0.4190(2)
C35_5 C 0.0016(3) 0.3599(3) 0.4538(2)
N10_5 N 0.1736(3) 0.4512(3) 0.3418(2)
N11_5 N 0.1201(4) 0.4644(3) 0.3887(2)
H16_5 H 0.108746 0.486975 0.402977
N12_5 N 0.2165(4) 0.5963(3) 0.3485(2)
H17_5 H 0.240622 0.603370 0.334217
C36_5 C 0.2937(3) 0.5549(3) 0.2027(2)
C37_5 C 0.0418(3) 0.3641(3) 0.4266(2)
C38_5 C 0.3140(3) 0.4639(3) 0.2052(2)
H18_5 H 0.332543 0.468046 0.184597
C39_5 C 0.2018(3) 0.7784(3) 0.3587(2)
C40_5 C 0.0943(3) 0.3270(3) 0.3827(2)
C41_5 C 0.2095(4) 0.6849(3) 0.3566(2)
H19_5 H 0.226717 0.688784 0.335429
C42_5 C 0.2906(4) 0.5047(3) 0.2205(2)
C43_5 C 0.1936(3) 0.7267(3) 0.3748(2)
C44_5 C 0.2616(3) 0.4990(3) 0.2499(3)
H20_5 H 0.245159 0.526809 0.259518
C45_5 C 0.0617(4) 0.4110(3) 0.4190(2)
H21_5 H 0.049899 0.439338 0.430842
C46_5 C 0.2809(4) 0.4111(3) 0.2505(3)
H22_5 H 0.277880 0.379321 0.260740
C47_5 C 0.2564(4) 0.4517(3) 0.2657(3)
C48_5 C 0.0995(4) 0.4163(3) 0.3936(3)
C49_5 C 0.1146(4) 0.3741(3) 0.3749(3)
H23_5 H 0.138407 0.377230 0.357038
C50_5 C 0.2005(4) 0.5473(3) 0.3471(3)
C51_5 C 0.1738(4) 0.6307(3) 0.4006(3)
H24_5 H 0.167138 0.598509 0.409074
C52_5 C 0.2002(4) 0.6373(4) 0.3695(3)
C53_5 C 0.2079(4) 0.4735(3) 0.3200(3)
C54_5 C 0.1549(4) 0.4819(4) 0.3655(3)
O34_3 O 0.1845(2) 0.1818(2) 0.37453(15)
O36_3 O 0.2197(2) 0.2270(2) 0.33069(16)
O2_5 O 0.8627(2) 0.7108(2) 0.33529(16)
O7_5 O 0.9014(2) 0.7605(2) 0.37459(16)
O8_3 O 0.8182(2) 0.1845(2) 0.37453(15)
O9_3 O 0.7730(2) 0.2197(2) 0.33069(16)
N1_5 N 0.8334(3) 0.4688(3) 0.3702(2)
C1_5 C 0.8887(3) 0.7181(3) 0.3628(2)
C2_5 C 0.6669(3) 0.6288(3) 0.2038(2)
C3_5 C 0.8736(3) 0.3320(3) 0.4509(2)
N2_5 N 0.7743(4) 0.5580(3) 0.2950(2)
H1_5 H 0.783147 0.589054 0.297387
C4_5 C 0.6902(3) 0.5832(3) 0.2204(2)
C5_5 C 0.8332(3) 0.2785(3) 0.4059(2)
H2_5 H 0.844812 0.250095 0.417828
C6_5 C 0.9422(3) 0.6780(3) 0.4086(2)
H3_5 H 0.955642 0.709549 0.413786
N3_5 N 0.7780(3) 0.4788(3) 0.3209(2)
C7_5 C 0.8426(3) 0.3265(3) 0.4190(2)
C8_5 C 0.9984(3) 0.6401(3) 0.4538(2)
N4_5 N 0.8264(3) 0.5488(3) 0.3418(2)
N5_5 N 0.8799(4) 0.5356(3) 0.3887(2)
H4_5 H 0.891254 0.513025 0.402977
N6_5 N 0.7835(4) 0.4037(3) 0.3485(2)
H5_5 H 0.759378 0.396630 0.334217
C9_5 C 0.7063(3) 0.4451(3) 0.2027(2)
C10_5 C 0.9582(3) 0.6359(3) 0.4266(2)
C11_5 C 0.6860(3) 0.5361(3) 0.2052(2)
H6_5 H 0.667457 0.531954 0.184597
C12_5 C 0.7982(3) 0.2216(3) 0.3587(2)
C13_5 C 0.9057(3) 0.6730(3) 0.3827(2)
C14_5 C 0.7905(4) 0.3151(3) 0.3566(2)
H7_5 H 0.773283 0.311216 0.335429
C15_5 C 0.7094(4) 0.4953(3) 0.2205(2)
C16_5 C 0.8064(3) 0.2733(3) 0.3748(2)
C17_5 C 0.7384(3) 0.5010(3) 0.2499(3)
H8_5 H 0.754841 0.473191 0.259518
C18_5 C 0.9383(4) 0.5890(3) 0.4190(2)
H9_5 H 0.950101 0.560662 0.430842
C19_5 C 0.7191(4) 0.5889(3) 0.2505(3)
H10_5 H 0.722120 0.620679 0.260740
C20_5 C 0.7436(4) 0.5483(3) 0.2657(3)
C21_5 C 0.9005(4) 0.5837(3) 0.3936(3)
C22_5 C 0.8854(4) 0.6259(3) 0.3749(3)
H11_5 H 0.861593 0.622770 0.357038
C23_5 C 0.7995(4) 0.4527(3) 0.3471(3)
C24_5 C 0.8262(4) 0.3693(3) 0.4006(3)
H12_5 H 0.832862 0.401491 0.409074
C25_5 C 0.7998(4) 0.3627(4) 0.3695(3)
C26_5 C 0.7921(4) 0.5265(3) 0.3200(3)
C27_5 C 0.8451(4) 0.5181(4) 0.3655(3)
O33_3 O 0.8155(2) 0.8182(2) 0.37453(15)
O35_3 O 0.7803(2) 0.7730(2) 0.33069(16)
O14_6 O 0.7108(2) 0.1373(2) 0.33529(16)
O19_6 O 0.7605(2) 0.0986(2) 0.37459(16)
N7_6 N 0.4688(3) 0.1666(3) 0.3702(2)
C28_6 C 0.7181(3) 0.1113(3) 0.3628(2)
C29_6 C 0.6288(3) 0.3331(3) 0.2038(2)
C30_6 C 0.3320(3) 0.1264(3) 0.4509(2)
N8_6 N 0.5580(3) 0.2257(4) 0.2950(2)
H13_6 H 0.589054 0.216853 0.297387
C31_6 C 0.5832(3) 0.3098(3) 0.2204(2)
C32_6 C 0.2785(3) 0.1668(3) 0.4059(2)
H14_6 H 0.250095 0.155188 0.417828
C33_6 C 0.6780(3) 0.0578(3) 0.4086(2)
H15_6 H 0.709549 0.044358 0.413786
N9_6 N 0.4788(3) 0.2220(3) 0.3209(2)
C34_6 C 0.3265(3) 0.1574(3) 0.4190(2)
C35_6 C 0.6401(3) 0.0016(3) 0.4538(2)
N10_6 N 0.5488(3) 0.1736(3) 0.3418(2)
N11_6 N 0.5356(3) 0.1201(4) 0.3887(2)
H16_6 H 0.513025 0.108746 0.402977
N12_6 N 0.4037(3) 0.2165(4) 0.3485(2)
H17_6 H 0.396630 0.240622 0.334217
C36_6 C 0.4451(3) 0.2937(3) 0.2027(2)
C37_6 C 0.6359(3) 0.0418(3) 0.4266(2)
C38_6 C 0.5361(3) 0.3140(3) 0.2052(2)
H18_6 H 0.531954 0.332543 0.184597
C39_6 C 0.2216(3) 0.2018(3) 0.3587(2)
C40_6 C 0.6730(3) 0.0943(3) 0.3827(2)
C41_6 C 0.3151(3) 0.2095(4) 0.3566(2)
H19_6 H 0.311216 0.226717 0.335429
C42_6 C 0.4953(3) 0.2906(4) 0.2205(2)
C43_6 C 0.2733(3) 0.1936(3) 0.3748(2)
C44_6 C 0.5010(3) 0.2616(3) 0.2499(3)
H20_6 H 0.473191 0.245159 0.259518
C45_6 C 0.5890(3) 0.0617(4) 0.4190(2)
H21_6 H 0.560662 0.049899 0.430842
C46_6 C 0.5889(3) 0.2809(4) 0.2505(3)
H22_6 H 0.620679 0.277880 0.260740
C47_6 C 0.5483(3) 0.2564(4) 0.2657(3)
C48_6 C 0.5837(3) 0.0995(4) 0.3936(3)
C49_6 C 0.6259(3) 0.1146(4) 0.3749(3)
H23_6 H 0.622770 0.138407 0.357038
C50_6 C 0.4527(3) 0.2005(4) 0.3471(3)
C51_6 C 0.3693(3) 0.1738(4) 0.4006(3)
H24_6 H 0.401491 0.167138 0.409074
C52_6 C 0.3627(4) 0.2002(4) 0.3695(3)
C53_6 C 0.5265(3) 0.2079(4) 0.3200(3)
C54_6 C 0.5181(4) 0.1549(4) 0.3655(3)
O2_6 O 0.2892(2) 0.8627(2) 0.33529(16)
O7_6 O 0.2395(2) 0.9014(2) 0.37459(16)
N1_6 N 0.5312(3) 0.8334(3) 0.3702(2)
C1_6 C 0.2819(3) 0.8887(3) 0.3628(2)
C2_6 C 0.3712(3) 0.6669(3) 0.2038(2)
C3_6 C 0.6680(3) 0.8736(3) 0.4509(2)
N2_6 N 0.4420(3) 0.7743(4) 0.2950(2)
H1_6 H 0.410946 0.783147 0.297387
C4_6 C 0.4168(3) 0.6902(3) 0.2204(2)
C5_6 C 0.7215(3) 0.8332(3) 0.4059(2)
H2_6 H 0.749905 0.844812 0.417828
C6_6 C 0.3220(3) 0.9422(3) 0.4086(2)
H3_6 H 0.290451 0.955642 0.413786
N3_6 N 0.5212(3) 0.7780(3) 0.3209(2)
C7_6 C 0.6735(3) 0.8426(3) 0.4190(2)
C8_6 C 0.3599(3) 0.9984(3) 0.4538(2)
N4_6 N 0.4512(3) 0.8264(3) 0.3418(2)
N5_6 N 0.4644(3) 0.8799(4) 0.3887(2)
H4_6 H 0.486975 0.891254 0.402977
N6_6 N 0.5963(3) 0.7835(4) 0.3485(2)
H5_6 H 0.603370 0.759378 0.334217
C9_6 C 0.5549(3) 0.7063(3) 0.2027(2)
C10_6 C 0.3641(3) 0.9582(3) 0.4266(2)
C11_6 C 0.4639(3) 0.6860(3) 0.2052(2)
H6_6 H 0.468046 0.667457 0.184597
C12_6 C 0.7784(3) 0.7982(3) 0.3587(2)
C13_6 C 0.3270(3) 0.9057(3) 0.3827(2)
C14_6 C 0.6849(3) 0.7905(4) 0.3566(2)
H7_6 H 0.688784 0.773283 0.335429
C15_6 C 0.5047(3) 0.7094(4) 0.2205(2)
C16_6 C 0.7267(3) 0.8064(3) 0.3748(2)
C17_6 C 0.4990(3) 0.7384(3) 0.2499(3)
H8_6 H 0.526809 0.754841 0.259518
C18_6 C 0.4110(3) 0.9383(4) 0.4190(2)
H9_6 H 0.439338 0.950101 0.430842
C19_6 C 0.4111(3) 0.7191(4) 0.2505(3)
H10_6 H 0.379321 0.722120 0.260740
C20_6 C 0.4517(3) 0.7436(4) 0.2657(3)
C21_6 C 0.4163(3) 0.9005(4) 0.3936(3)
C22_6 C 0.3741(3) 0.8854(4) 0.3749(3)
H11_6 H 0.377230 0.861593 0.357038
C23_6 C 0.5473(3) 0.7995(4) 0.3471(3)
C24_6 C 0.6307(3) 0.8262(4) 0.4006(3)
H12_6 H 0.598509 0.832862 0.409074
C25_6 C 0.6373(4) 0.7998(4) 0.3695(3)
C26_6 C 0.4735(3) 0.7921(4) 0.3200(3)
C27_6 C 0.4819(4) 0.8451(4) 0.3655(3)
O2_7 O 0.3627(2) 0.2108(2) 0.83529(16)
O7_7 O 0.4014(2) 0.2605(2) 0.87459(16)
C1_7 C 0.3887(3) 0.2181(3) 0.8628(2)
C2_7 C 0.1669(3) 0.1288(3) 0.7038(2)
N2_7 N 0.2743(4) 0.0580(3) 0.7950(2)
H1_7 H 0.283147 0.089054 0.797387
C4_7 C 0.1902(3) 0.0832(3) 0.7204(2)
C6_7 C 0.4422(3) 0.1780(3) 0.9086(2)
H3_7 H 0.455642 0.209549 0.913786
C8_7 C 0.4984(3) 0.1401(3) 0.9538(2)
N4_7 N 0.3264(3) 0.0488(3) 0.8418(2)
N5_7 N 0.3799(4) 0.0356(3) 0.8887(2)
H4_7 H 0.391254 0.013025 0.902977
C10_7 C 0.4582(3) 0.1359(3) 0.9266(2)
C11_7 C 0.1860(3) 0.0361(3) 0.7052(2)
H6_7 H 0.167457 0.031954 0.684597
C13_7 C 0.4057(3) 0.1730(3) 0.8827(2)
C17_7 C 0.2384(3) 0.0010(3) 0.7499(3)
C18_7 C 0.4383(4) 0.0890(3) 0.9190(2)
H9_7 H 0.450101 0.060662 0.930842
C19_7 C 0.2191(4) 0.0889(3) 0.7505(3)
H10_7 H 0.222120 0.120679 0.760740
C20_7 C 0.2436(4) 0.0483(3) 0.7657(3)
C21_7 C 0.4005(4) 0.0837(3) 0.8936(3)
C22_7 C 0.3854(4) 0.1259(3) 0.8749(3)
H11_7 H 0.361593 0.122770 0.857038
C26_7 C 0.2921(4) 0.0265(3) 0.8200(3)
C27_7 C 0.3451(4) 0.0181(4) 0.8655(3)
O20_4 O 0.6818(2) 0.3155(2) 0.87453(15)
O21_4 O 0.7270(2) 0.2803(2) 0.83069(16)
N7_7 N 0.6666(3) 0.0312(3) 0.8702(2)
C30_7 C 0.6264(3) 0.1680(3) 0.9509(2)
C32_7 C 0.6668(3) 0.2215(3) 0.9059(2)
H14_7 H 0.655188 0.249905 0.917828
N9_7 N 0.7220(3) 0.0212(3) 0.8209(2)
C34_7 C 0.6574(3) 0.1735(3) 0.9190(2)
N12_7 N 0.7165(4) 0.0963(3) 0.8485(2)
H17_7 H 0.740622 0.103370 0.834217
C36_7 C 0.7937(3) 0.0549(3) 0.7027(2)
C39_7 C 0.7018(3) 0.2784(3) 0.8587(2)
C41_7 C 0.7095(4) 0.1849(3) 0.8566(2)
H19_7 H 0.726717 0.188784 0.835429
C42_7 C 0.7906(4) 0.0047(3) 0.7205(2)
C43_7 C 0.6936(3) 0.2267(3) 0.8748(2)
H20_7 H 0.745159 0.026809 0.759518
C50_7 C 0.7005(4) 0.0473(3) 0.8471(3)
C51_7 C 0.6738(4) 0.1307(3) 0.9006(3)
H24_7 H 0.667138 0.098509 0.909074
C52_7 C 0.7002(4) 0.1373(4) 0.8695(3)
O33_4 O 0.3155(2) 0.3182(2) 0.87453(15)
O35_4 O 0.2803(2) 0.2730(2) 0.83069(16)
O8_4 O 0.3182(2) 0.6845(2) 0.87453(15)
O9_4 O 0.2730(2) 0.7197(2) 0.83069(16)
N1_7 N 0.3334(3) 0.9688(3) 0.8702(2)
C3_7 C 0.3736(3) 0.8320(3) 0.9509(2)
C5_7 C 0.3332(3) 0.7785(3) 0.9059(2)
H2_7 H 0.344812 0.750095 0.917828
N3_7 N 0.2780(3) 0.9788(3) 0.8209(2)
C7_7 C 0.3426(3) 0.8265(3) 0.9190(2)
N6_7 N 0.2835(4) 0.9037(3) 0.8485(2)
H5_7 H 0.259378 0.896630 0.834217
C9_7 C 0.2063(3) 0.9451(3) 0.7027(2)
C12_7 C 0.2982(3) 0.7216(3) 0.8587(2)
C14_7 C 0.2905(4) 0.8151(3) 0.8566(2)
H7_7 H 0.273283 0.811216 0.835429
C15_7 C 0.2094(4) 0.9953(3) 0.7205(2)
C16_7 C 0.3064(3) 0.7733(3) 0.8748(2)
H8_7 H 0.254841 0.973191 0.759518
C23_7 C 0.2995(4) 0.9527(3) 0.8471(3)
C24_7 C 0.3262(4) 0.8693(3) 0.9006(3)
H12_7 H 0.332862 0.901491 0.909074
C25_7 C 0.2998(4) 0.8627(4) 0.8695(3)
O14_7 O 0.6373(2) 0.7892(2) 0.83529(16)
O19_7 O 0.5986(2) 0.7395(2) 0.87459(16)
C28_7 C 0.6113(3) 0.7819(3) 0.8628(2)
C29_7 C 0.8331(3) 0.8712(3) 0.7038(2)
N8_7 N 0.7257(4) 0.9420(3) 0.7950(2)
H13_7 H 0.716853 0.910946 0.797387
C31_7 C 0.8098(3) 0.9168(3) 0.7204(2)
C33_7 C 0.5578(3) 0.8220(3) 0.9086(2)
H15_7 H 0.544358 0.790451 0.913786
C35_7 C 0.5016(3) 0.8599(3) 0.9538(2)
N10_7 N 0.6736(3) 0.9512(3) 0.8418(2)
N11_7 N 0.6201(4) 0.9644(3) 0.8887(2)
H16_7 H 0.608746 0.986975 0.902977
C37_7 C 0.5418(3) 0.8641(3) 0.9266(2)
C38_7 C 0.8140(3) 0.9639(3) 0.7052(2)
H18_7 H 0.832543 0.968046 0.684597
C40_7 C 0.5943(3) 0.8270(3) 0.8827(2)
C44_7 C 0.7616(3) 0.9990(3) 0.7499(3)
C45_7 C 0.5617(4) 0.9110(3) 0.9190(2)
H21_7 H 0.549899 0.939338 0.930842
C46_7 C 0.7809(4) 0.9111(3) 0.7505(3)
H22_7 H 0.777880 0.879321 0.760740
C47_7 C 0.7564(4) 0.9517(3) 0.7657(3)
C48_7 C 0.5995(4) 0.9163(3) 0.8936(3)
C49_7 C 0.6146(4) 0.8741(3) 0.8749(3)
H23_7 H 0.638407 0.877230 0.857038
C53_7 C 0.7079(4) 0.9735(3) 0.8200(3)
C54_7 C 0.6549(4) 0.9819(4) 0.8655(3)
O34_4 O 0.6845(2) 0.6818(2) 0.87453(15)
O36_4 O 0.7197(2) 0.7270(2) 0.83069(16)
N1_8 N 0.0312(3) 0.3334(3) 0.8702(2)
C3_8 C 0.1680(3) 0.3736(3) 0.9509(2)
C5_8 C 0.2215(3) 0.3332(3) 0.9059(2)
H2_8 H 0.249905 0.344812 0.917828
N3_8 N 0.0212(3) 0.2780(3) 0.8209(2)
C7_8 C 0.1735(3) 0.3426(3) 0.9190(2)
N6_8 N 0.0963(3) 0.2835(4) 0.8485(2)
H5_8 H 0.103370 0.259378 0.834217
C9_8 C 0.0549(3) 0.2063(3) 0.7027(2)
C12_8 C 0.2784(3) 0.2982(3) 0.8587(2)
C14_8 C 0.1849(3) 0.2905(4) 0.8566(2)
H7_8 H 0.188784 0.273283 0.835429
C15_8 C 0.0047(3) 0.2094(4) 0.7205(2)
C16_8 C 0.2267(3) 0.3064(3) 0.8748(2)
H8_8 H 0.026809 0.254841 0.759518
C23_8 C 0.0473(3) 0.2995(4) 0.8471(3)
C24_8 C 0.1307(3) 0.3262(4) 0.9006(3)
H12_8 H 0.098509 0.332862 0.909074
C25_8 C 0.1373(4) 0.2998(4) 0.8695(3)
O14_8 O 0.2108(2) 0.6373(2) 0.83529(16)
O19_8 O 0.2605(2) 0.5986(2) 0.87459(16)
C28_8 C 0.2181(3) 0.6113(3) 0.8628(2)
C29_8 C 0.1288(3) 0.8331(3) 0.7038(2)
N8_8 N 0.0580(3) 0.7257(4) 0.7950(2)
H13_8 H 0.089054 0.716853 0.797387
C31_8 C 0.0832(3) 0.8098(3) 0.7204(2)
C33_8 C 0.1780(3) 0.5578(3) 0.9086(2)
H15_8 H 0.209549 0.544358 0.913786
C35_8 C 0.1401(3) 0.5016(3) 0.9538(2)
N10_8 N 0.0488(3) 0.6736(3) 0.8418(2)
N11_8 N 0.0356(3) 0.6201(4) 0.8887(2)
H16_8 H 0.013025 0.608746 0.902977
C37_8 C 0.1359(3) 0.5418(3) 0.9266(2)
C38_8 C 0.0361(3) 0.8140(3) 0.7052(2)
H18_8 H 0.031954 0.832543 0.684597
C40_8 C 0.1730(3) 0.5943(3) 0.8827(2)
C44_8 C 0.0010(3) 0.7616(3) 0.7499(3)
C45_8 C 0.0890(3) 0.5617(4) 0.9190(2)
H21_8 H 0.060662 0.549899 0.930842
C46_8 C 0.0889(3) 0.7809(4) 0.7505(3)
H22_8 H 0.120679 0.777880 0.760740
C47_8 C 0.0483(3) 0.7564(4) 0.7657(3)
C48_8 C 0.0837(3) 0.5995(4) 0.8936(3)
C49_8 C 0.1259(3) 0.6146(4) 0.8749(3)
H23_8 H 0.122770 0.638407 0.857038
C53_8 C 0.0265(3) 0.7079(4) 0.8200(3)
C54_8 C 0.0181(4) 0.6549(4) 0.8655(3)
O2_8 O 0.7892(2) 0.3627(2) 0.83529(16)
O7_8 O 0.7395(2) 0.4014(2) 0.87459(16)
C1_8 C 0.7819(3) 0.3887(3) 0.8628(2)
C2_8 C 0.8712(3) 0.1669(3) 0.7038(2)
N2_8 N 0.9420(3) 0.2743(4) 0.7950(2)
H1_8 H 0.910946 0.283147 0.797387
C4_8 C 0.9168(3) 0.1902(3) 0.7204(2)
C6_8 C 0.8220(3) 0.4422(3) 0.9086(2)
H3_8 H 0.790451 0.455642 0.913786
C8_8 C 0.8599(3) 0.4984(3) 0.9538(2)
N4_8 N 0.9512(3) 0.3264(3) 0.8418(2)
N5_8 N 0.9644(3) 0.3799(4) 0.8887(2)
H4_8 H 0.986975 0.391254 0.902977
C10_8 C 0.8641(3) 0.4582(3) 0.9266(2)
C11_8 C 0.9639(3) 0.1860(3) 0.7052(2)
H6_8 H 0.968046 0.167457 0.684597
C13_8 C 0.8270(3) 0.4057(3) 0.8827(2)
C17_8 C 0.9990(3) 0.2384(3) 0.7499(3)
C18_8 C 0.9110(3) 0.4383(4) 0.9190(2)
H9_8 H 0.939338 0.450101 0.930842
C19_8 C 0.9111(3) 0.2191(4) 0.7505(3)
H10_8 H 0.879321 0.222120 0.760740
C20_8 C 0.9517(3) 0.2436(4) 0.7657(3)
C21_8 C 0.9163(3) 0.4005(4) 0.8936(3)
C22_8 C 0.8741(3) 0.3854(4) 0.8749(3)
H11_8 H 0.877230 0.361593 0.857038
C26_8 C 0.9735(3) 0.2921(4) 0.8200(3)
C27_8 C 0.9819(4) 0.3451(4) 0.8655(3)
N7_8 N 0.9688(3) 0.6666(3) 0.8702(2)
C30_8 C 0.8320(3) 0.6264(3) 0.9509(2)
C32_8 C 0.7785(3) 0.6668(3) 0.9059(2)
H14_8 H 0.750095 0.655188 0.917828
N9_8 N 0.9788(3) 0.7220(3) 0.8209(2)
C34_8 C 0.8265(3) 0.6574(3) 0.9190(2)
N12_8 N 0.9037(3) 0.7165(4) 0.8485(2)
H17_8 H 0.896630 0.740622 0.834217
C36_8 C 0.9451(3) 0.7937(3) 0.7027(2)
C39_8 C 0.7216(3) 0.7018(3) 0.8587(2)
C41_8 C 0.8151(3) 0.7095(4) 0.8566(2)
H19_8 H 0.811216 0.726717 0.835429
C42_8 C 0.9953(3) 0.7906(4) 0.7205(2)
C43_8 C 0.7733(3) 0.6936(3) 0.8748(2)
H20_8 H 0.973191 0.745159 0.759518
C50_8 C 0.9527(3) 0.7005(4) 0.8471(3)
C51_8 C 0.8693(3) 0.6738(4) 0.9006(3)
H24_8 H 0.901491 0.667138 0.909074
C52_8 C 0.8627(4) 0.7002(4) 0.8695(3)
loop_
_geom_bond_atom_site_label_1
_geom_bond_atom_site_label_2
_geom_bond_site_symmetry_1
_geom_bond_site_symmetry_2
Cu2 O10 1_555 1_555
Cu3 Cu4 1_555 1_555
Cu4 O2 1_555 1_555
O1 C9 1_555 1_555
O2 C1 1_555 1_555
O4 C3 1_555 1_555
O5 C2 1_555 1_555
O6 C9 1_555 1_555
O7 Cu3 1_555 1_555
O8 C12 1_555 1_555
O9 C12 1_555 1_555
O10 C3 1_555 1_555
O11 C2 1_555 1_555
N1 C23 1_555 1_555
C1 O7 1_555 1_555
C2 C4 1_555 1_555
C3 C7 1_555 1_555
N2 H1 1_555 1_555
C4 C11 1_555 1_555
C5 H2 1_555 1_555
C6 H3 1_555 1_555
N3 C23 1_555 1_555
C7 C5 1_555 1_555
C8 C10 1_555 1_555
N4 C26 1_555 1_555
N5 H4 1_555 1_555
N6 H5 1_555 1_555
C9 C15 1_555 1_555
C10 C6 1_555 1_555
C11 H6 1_555 1_555
C12 C16 1_555 1_555
C13 C1 1_555 1_555
C14 H7 1_555 1_555
C15 C11 1_555 1_555
C16 C5 1_555 1_555
C17 C15 1_555 1_555
H8 C17 1_555 1_555
C18 C10 1_555 1_555
H9 C18 1_555 1_555
C19 C4 1_555 1_555
H10 C19 1_555 1_555
C20 N2 1_555 1_555
C21 N5 1_555 1_555
C22 C13 1_555 1_555
H11 C22 1_555 1_555
C23 N6 1_555 1_555
C24 C7 1_555 1_555
H12 C24 1_555 1_555
C25 N6 1_555 1_555
C26 N2 1_555 1_555
C27 N1 1_555 1_555
O24 Cu2 1_555 1_555
Cu7 Cu2 1_555 1_555
Cu10 O8 1_555 1_555
Cu11 O5 1_555 1_555
Cu14 O6 1_555 1_555
Cu16 O9 1_555 1_555
Cu17 O11 1_555 1_555
Cu20 O1 1_555 1_555
O25 Cu4 1_555 1_555
O29 Cu3 1_555 1_555
O31 Cu3 1_555 1_555
O33 Cu3 1_555 1_555
O35 Cu4 1_555 1_555
O37 Cu2 1_555 1_555
O38 Cu4 1_555 1_555
O40 Cu2 1_555 1_555
O4 Cu7 1_555 1_555
C6 C13 1_555 1_555
N3 C26 1_555 1_555
N4 C27 1_555 1_555
N5 C27 1_555 1_555
C14 C16 1_555 1_555
C14 C25 1_555 1_555
C17 C20 1_555 1_555
C18 C21 1_555 1_555
C19 C20 1_555 1_555
C21 C22 1_555 1_555
C24 C25 1_555 1_555
O15 Cu7 1_555 1_555
Cu10 Cu16 1_555 1_555
Cu11 Cu17 1_555 1_555
Cu14 Cu20 1_555 1_555
Cu1 O3 1_555 1_555
Cu5 Cu6 1_555 1_555
Cu6 O14 1_555 1_555
O13 C36 1_555 1_555
O14 C28 1_555 1_555
O16 Cu1 1_555 1_555
O17 C29 1_555 1_555
O18 C36 1_555 1_555
O19 Cu5 1_555 1_555
O20 C39 1_555 1_555
O21 C39 1_555 1_555
O22 C30 1_555 1_555
O23 C29 1_555 1_555
N7 C50 1_555 1_555
C28 O19 1_555 1_555
C29 C31 1_555 1_555
C30 O16 1_555 1_555
N8 H13 1_555 1_555
C31 C38 1_555 1_555
C32 H14 1_555 1_555
C33 H15 1_555 1_555
N9 C50 1_555 1_555
C34 C30 1_555 1_555
N10 C53 1_555 1_555
N11 H16 1_555 1_555
N12 H17 1_555 1_555
C36 C42 1_555 1_555
C37 C33 1_555 1_555
C38 H18 1_555 1_555
C39 C43 1_555 1_555
C40 C28 1_555 1_555
C41 H19 1_555 1_555
C42 C38 1_555 1_555
C43 C32 1_555 1_555
C44 C42 1_555 1_555
H20 C44 1_555 1_555
C45 C37 1_555 1_555
H21 C45 1_555 1_555
C46 C31 1_555 1_555
H22 C46 1_555 1_555
C47 N8 1_555 1_555
C48 N11 1_555 1_555
C49 C40 1_555 1_555
H23 C49 1_555 1_555
C50 N12 1_555 1_555
C51 C34 1_555 1_555
H24 C51 1_555 1_555
C52 N12 1_555 1_555
C53 N8 1_555 1_555
C54 N7 1_555 1_555
Cu8 Cu1 1_555 1_555
Cu9 O20 1_555 1_555
Cu12 O17 1_555 1_555
Cu13 O18 1_555 1_555
Cu15 O21 1_555 1_555
Cu18 O23 1_555 1_555
Cu19 O13 1_555 1_555
O26 Cu6 1_555 1_555
O27 Cu1 1_555 1_555
O28 Cu1 1_555 1_555
O30 Cu5 1_555 1_555
O32 Cu5 1_555 1_555
O34 Cu5 1_555 1_555
O36 Cu6 1_555 1_555
O39 Cu6 1_555 1_555
O12 Cu8 1_555 1_555
O22 Cu8 1_555 1_555
C32 C34 1_555 1_555
C33 C40 1_555 1_555
N9 C53 1_555 1_555
C35 C37 1_555 1_555
N10 C54 1_555 1_555
N11 C54 1_555 1_555
C41 C43 1_555 1_555
C41 C52 1_555 1_555
C44 C47 1_555 1_555
C45 C48 1_555 1_555
C46 C47 1_555 1_555
C48 C49 1_555 1_555
C51 C52 1_555 1_555
Cu9 Cu15 1_555 1_555
Cu12 Cu18 1_555 1_555
Cu13 Cu19 1_555 1_555
O27_2 Cu7 1_555 1_555
O28_2 Cu7 1_555 1_555
O37_2 Cu8 1_555 1_555
O40_2 Cu8 1_555 1_555
Cu2_2 O10_2 1_555 1_555
Cu15 O2_2 1_555 1_555
O1_2 C9_2 1_555 1_555
O2_2 C1_2 1_555 1_555
O4_2 C3_2 1_555 1_555
O5_2 C2_2 1_555 1_555
O6_2 C9_2 1_555 1_555
O7_2 Cu9 1_555 1_555
O33 C12_2 1_555 1_555
O35 C12_2 1_555 1_555
O10_2 C3_2 1_555 1_555
O11_2 C2_2 1_555 1_555
N1_2 C23_2 1_555 1_555
C1_2 O7_2 1_555 1_555
C2_2 C4_2 1_555 1_555
C3_2 C7_2 1_555 1_555
N2_2 H1_2 1_555 1_555
C4_2 C11_2 1_555 1_555
C5_2 H2_2 1_555 1_555
C6_2 H3_2 1_555 1_555
N3_2 C23_2 1_555 1_555
C7_2 C5_2 1_555 1_555
C8_2 C10_2 1_555 1_555
N4_2 C26_2 1_555 1_555
N5_2 H4_2 1_555 1_555
N6_2 H5_2 1_555 1_555
C9_2 C15_2 1_555 1_555
C10_2 C6_2 1_555 1_555
C11_2 H6_2 1_555 1_555
C12_2 C16_2 1_555 1_555
C13_2 C1_2 1_555 1_555
C14_2 H7_2 1_555 1_555
C15_2 C11_2 1_555 1_555
C16_2 C5_2 1_555 1_555
C17_2 C15_2 1_555 1_555
H8_2 C17_2 1_555 1_555
C18_2 C10_2 1_555 1_555
H9_2 C18_2 1_555 1_555
C19_2 C4_2 1_555 1_555
H10_2 C19_2 1_555 1_555
C20_2 N2_2 1_555 1_555
C21_2 N5_2 1_555 1_555
C22_2 C13_2 1_555 1_555
H11_2 C22_2 1_555 1_555
C23_2 N6_2 1_555 1_555
C24_2 C7_2 1_555 1_555
H12_2 C24_2 1_555 1_555
C25_2 N6_2 1_555 1_555
C26_2 N2_2 1_555 1_555
C27_2 N1_2 1_555 1_555
O24_2 Cu2_2 1_555 1_555
Cu7_2 Cu2_2 1_555 1_555
Cu13 O5_2 1_555 1_555
Cu11 O6_2 1_555 1_555
Cu19 O11_2 1_555 1_555
Cu17 O1_2 1_555 1_555
O25_2 Cu15 1_555 1_555
O29_2 Cu9 1_555 1_555
O31_2 Cu9 1_555 1_555
O37_3 Cu2_2 1_555 1_555
O38_2 Cu15 1_555 1_555
O40_3 Cu2_2 1_555 1_555
O4_2 Cu7_2 1_555 1_555
C6_2 C13_2 1_555 1_555
N3_2 C26_2 1_555 1_555
N4_2 C27_2 1_555 1_555
N5_2 C27_2 1_555 1_555
C14_2 C16_2 1_555 1_555
C14_2 C25_2 1_555 1_555
C17_2 C20_2 1_555 1_555
C18_2 C21_2 1_555 1_555
C19_2 C20_2 1_555 1_555
C21_2 C22_2 1_555 1_555
C24_2 C25_2 1_555 1_555
O15_2 Cu7_2 1_555 1_555
Cu1_2 O3_2 1_555 1_555
Cu16 O14_2 1_555 1_555
O13_2 C36_2 1_555 1_555
O14_2 C28_2 1_555 1_555
O16_2 Cu1_2 1_555 1_555
O17_2 C29_2 1_555 1_555
O18_2 C36_2 1_555 1_555
O19_2 Cu10 1_555 1_555
O34 C39_2 1_555 1_555
O36 C39_2 1_555 1_555
O22_2 C30_2 1_555 1_555
O23_2 C29_2 1_555 1_555
N7_2 C50_2 1_555 1_555
C28_2 O19_2 1_555 1_555
C29_2 C31_2 1_555 1_555
C30_2 O16_2 1_555 1_555
N8_2 H13_2 1_555 1_555
C31_2 C38_2 1_555 1_555
C32_2 H14_2 1_555 1_555
C33_2 H15_2 1_555 1_555
N9_2 C50_2 1_555 1_555
C34_2 C30_2 1_555 1_555
N10_2 C53_2 1_555 1_555
N11_2 H16_2 1_555 1_555
N12_2 H17_2 1_555 1_555
C36_2 C42_2 1_555 1_555
C37_2 C33_2 1_555 1_555
C38_2 H18_2 1_555 1_555
C39_2 C43_2 1_555 1_555
C40_2 C28_2 1_555 1_555
C41_2 H19_2 1_555 1_555
C42_2 C38_2 1_555 1_555
C43_2 C32_2 1_555 1_555
C44_2 C42_2 1_555 1_555
H20_2 C44_2 1_555 1_555
C45_2 C37_2 1_555 1_555
H21_2 C45_2 1_555 1_555
C46_2 C31_2 1_555 1_555
H22_2 C46_2 1_555 1_555
C47_2 N8_2 1_555 1_555
C48_2 N11_2 1_555 1_555
C49_2 C40_2 1_555 1_555
H23_2 C49_2 1_555 1_555
C50_2 N12_2 1_555 1_555
C51_2 C34_2 1_555 1_555
H24_2 C51_2 1_555 1_555
C52_2 N12_2 1_555 1_555
C53_2 N8_2 1_555 1_555
C54_2 N7_2 1_555 1_555
Cu8_2 Cu1_2 1_555 1_555
Cu14 O17_2 1_555 1_555
Cu12 O18_2 1_555 1_555
Cu20 O23_2 1_555 1_555
Cu18 O13_2 1_555 1_555
O26_2 Cu16 1_555 1_555
O27_3 Cu1_2 1_555 1_555
O28_3 Cu1_2 1_555 1_555
O30_2 Cu10 1_555 1_555
O32_2 Cu10 1_555 1_555
O39_2 Cu16 1_555 1_555
O12_2 Cu8_2 1_555 1_555
O22_2 Cu8_2 1_555 1_555
C32_2 C34_2 1_555 1_555
C33_2 C40_2 1_555 1_555
N9_2 C53_2 1_555 1_555
C35_2 C37_2 1_555 1_555
N10_2 C54_2 1_555 1_555
N11_2 C54_2 1_555 1_555
C41_2 C43_2 1_555 1_555
C41_2 C52_2 1_555 1_555
C44_2 C47_2 1_555 1_555
C45_2 C48_2 1_555 1_555
C46_2 C47_2 1_555 1_555
C48_2 C49_2 1_555 1_555
C51_2 C52_2 1_555 1_555
O27_4 Cu7_2 1_555 1_555
O28_4 Cu7_2 1_555 1_555
O37_4 Cu8_2 1_555 1_555
O40_4 Cu8_2 1_555 1_555
Cu2_3 O10_3 1_555 1_555
O1_3 C9_3 1_555 1_555
O4_3 C3_3 1_555 1_555
O6_3 C9_3 1_555 1_555
O8_2 C12_3 1_555 1_555
O9_2 C12_3 1_555 1_555
O10_3 C3_3 1_555 1_555
N1_3 C23_3 1_555 1_555
C3_3 C7_3 1_555 1_555
C5_3 H2_3 1_555 1_555
N3_3 C23_3 1_555 1_555
C7_3 C5_3 1_555 1_555
N6_3 H5_3 1_555 1_555
C9_3 C15_3 1_555 1_555
C12_3 C16_3 1_555 1_555
C14_3 H7_3 1_555 1_555
C16_3 C5_3 1_555 1_555
C23_3 N6_3 1_555 1_555
C24_3 C7_3 1_555 1_555
H12_3 C24_3 1_555 1_555
C25_3 N6_3 1_555 1_555
Cu5_2 Cu6_2 1_555 1_555
Cu6_2 O14_3 1_555 1_555
O14_3 C28_3 1_555 1_555
O15_3 C35_3 1_555 1_555
O17_3 C29_3 1_555 1_555
O19_3 Cu5_2 1_555 1_555
O23_3 C29_3 1_555 1_555
O24_3 Cu2_3 1_555 1_555
C28_3 O19_3 1_555 1_555
C29_3 C31_3 1_555 1_555
N8_3 H13_3 1_555 1_555
C31_3 C38_3 1_555 1_555
C33_3 H15_3 1_555 1_555
C35_3 O24_3 1_555 1_555
N10_3 C53_3 1_555 1_555
N11_3 H16_3 1_555 1_555
C37_3 C33_3 1_555 1_555
C38_3 H18_3 1_555 1_555
C40_3 C28_3 1_555 1_555
C45_3 C37_3 1_555 1_555
H21_3 C45_3 1_555 1_555
C46_3 C31_3 1_555 1_555
H22_3 C46_3 1_555 1_555
C47_3 N8_3 1_555 1_555
C48_3 N11_3 1_555 1_555
C49_3 C40_3 1_555 1_555
H23_3 C49_3 1_555 1_555
C53_3 N8_3 1_555 1_555
Cu7_3 Cu2_3 1_555 1_555
Cu10_2 O8_2 1_555 1_555
Cu12_2 O17_3 1_555 1_555
Cu14_2 O6_3 1_555 1_555
Cu16_2 O9_2 1_555 1_555
Cu18_2 O23_3 1_555 1_555
Cu20_2 O1_3 1_555 1_555
O26_3 Cu6_2 1_555 1_555
O30_3 Cu5_2 1_555 1_555
O32_3 Cu5_2 1_555 1_555
O34_2 Cu5_2 1_555 1_555
O36_2 Cu6_2 1_555 1_555
O39_3 Cu6_2 1_555 1_555
O4_3 Cu7_3 1_555 1_555
C14_3 C16_3 1_555 1_555
C14_3 C25_3 1_555 1_555
C24_3 C25_3 1_555 1_555
O15_3 Cu7_3 1_555 1_555
C33_3 C40_3 1_555 1_555
C35_3 C37_3 1_555 1_555
N10_3 C54_3 1_555 1_555
N11_3 C54_3 1_555 1_555
C44_3 C47_3 1_555 1_555
C45_3 C48_3 1_555 1_555
C46_3 C47_3 1_555 1_555
C48_3 C49_3 1_555 1_555
Cu10_2 Cu16_2 1_555 1_555
Cu12_2 Cu18_2 1_555 1_555
Cu14_2 Cu20_2 1_555 1_555
Cu7_4 Cu2_4 1_555 1_555
O37_5 Cu2_4 1_555 1_555
O40_5 Cu2_4 1_555 1_555
Cu1_3 O3_3 1_555 1_555
Cu3_2 Cu4_2 1_555 1_555
Cu4_2 O2_3 1_555 1_555
O2_3 C1_3 1_555 1_555
O3_3 C8_3 1_555 1_555
O5_3 C2_3 1_555 1_555
O7_3 Cu3_2 1_555 1_555
O11_3 C2_3 1_555 1_555
O12_3 C8_3 1_555 1_555
C1_3 O7_3 1_555 1_555
C2_3 C4_3 1_555 1_555
N2_3 H1_3 1_555 1_555
C4_3 C11_3 1_555 1_555
C6_3 H3_3 1_555 1_555
C8_3 C10_3 1_555 1_555
N4_3 C26_3 1_555 1_555
N5_3 H4_3 1_555 1_555
C10_3 C6_3 1_555 1_555
C11_3 H6_3 1_555 1_555
C13_3 C1_3 1_555 1_555
C18_3 C10_3 1_555 1_555
H9_3 C18_3 1_555 1_555
C19_3 C4_3 1_555 1_555
H10_3 C19_3 1_555 1_555
C20_3 N2_3 1_555 1_555
C21_3 N5_3 1_555 1_555
C22_3 C13_3 1_555 1_555
H11_3 C22_3 1_555 1_555
C26_3 N2_3 1_555 1_555
O13_3 C36_3 1_555 1_555
O16_3 Cu1_3 1_555 1_555
O18_3 C36_3 1_555 1_555
O20_2 C39_3 1_555 1_555
O21_2 C39_3 1_555 1_555
O22_3 C30_3 1_555 1_555
N7_3 C50_3 1_555 1_555
C30_3 O16_3 1_555 1_555
C32_3 H14_3 1_555 1_555
N9_3 C50_3 1_555 1_555
C34_3 C30_3 1_555 1_555
N12_3 H17_3 1_555 1_555
C36_3 C42_3 1_555 1_555
C39_3 C43_3 1_555 1_555
C41_3 H19_3 1_555 1_555
C43_3 C32_3 1_555 1_555
C50_3 N12_3 1_555 1_555
C51_3 C34_3 1_555 1_555
H24_3 C51_3 1_555 1_555
C52_3 N12_3 1_555 1_555
Cu8_3 Cu1_3 1_555 1_555
Cu9_2 O20_2 1_555 1_555
Cu11_2 O5_3 1_555 1_555
Cu13_2 O18_3 1_555 1_555
Cu15_2 O21_2 1_555 1_555
Cu17_2 O11_3 1_555 1_555
Cu19_2 O13_3 1_555 1_555
O25_3 Cu4_2 1_555 1_555
O29_3 Cu3_2 1_555 1_555
O31_3 Cu3_2 1_555 1_555
O33_2 Cu3_2 1_555 1_555
O35_2 Cu4_2 1_555 1_555
O38_3 Cu4_2 1_555 1_555
O12_3 Cu8_3 1_555 1_555
C6_3 C13_3 1_555 1_555
N4_3 C27_3 1_555 1_555
N5_3 C27_3 1_555 1_555
C17_3 C20_3 1_555 1_555
C18_3 C21_3 1_555 1_555
C19_3 C20_3 1_555 1_555
C21_3 C22_3 1_555 1_555
O22_3 Cu8_3 1_555 1_555
C32_3 C34_3 1_555 1_555
C41_3 C43_3 1_555 1_555
C41_3 C52_3 1_555 1_555
C51_3 C52_3 1_555 1_555
Cu9_2 Cu15_2 1_555 1_555
Cu11_2 Cu17_2 1_555 1_555
Cu13_2 Cu19_2 1_555 1_555
Cu8_4 Cu1_4 1_555 1_555
O27_5 Cu1_4 1_555 1_555
O28_5 Cu1_4 1_555 1_555
O27_6 Cu7_4 1_555 1_555
O28_6 Cu7_4 1_555 1_555
O37_6 Cu8_4 1_555 1_555
O40_6 Cu8_4 1_555 1_555
Cu1_5 O3_4 1_555 1_555
Cu15_2 O2_4 1_555 1_555
O2_4 C1_4 1_555 1_555
O3_4 C8_4 1_555 1_555
O5_4 C2_4 1_555 1_555
O7_4 Cu9_2 1_555 1_555
O11_4 C2_4 1_555 1_555
O12_4 C8_4 1_555 1_555
C1_4 O7_4 1_555 1_555
C2_4 C4_4 1_555 1_555
N2_4 H1_4 1_555 1_555
C4_4 C11_4 1_555 1_555
C6_4 H3_4 1_555 1_555
C8_4 C10_4 1_555 1_555
N4_4 C26_4 1_555 1_555
N5_4 H4_4 1_555 1_555
C10_4 C6_4 1_555 1_555
C11_4 H6_4 1_555 1_555
C13_4 C1_4 1_555 1_555
C18_4 C10_4 1_555 1_555
H9_4 C18_4 1_555 1_555
C19_4 C4_4 1_555 1_555
H10_4 C19_4 1_555 1_555
C20_4 N2_4 1_555 1_555
C21_4 N5_4 1_555 1_555
C22_4 C13_4 1_555 1_555
H11_4 C22_4 1_555 1_555
C26_4 N2_4 1_555 1_555
O13_4 C36_4 1_555 1_555
O16_4 Cu1_5 1_555 1_555
O18_4 C36_4 1_555 1_555
O34_2 C39_4 1_555 1_555
O36_2 C39_4 1_555 1_555
O22_4 C30_4 1_555 1_555
N7_4 C50_4 1_555 1_555
C30_4 O16_4 1_555 1_555
C32_4 H14_4 1_555 1_555
N9_4 C50_4 1_555 1_555
C34_4 C30_4 1_555 1_555
N12_4 H17_4 1_555 1_555
C36_4 C42_4 1_555 1_555
C39_4 C43_4 1_555 1_555
C41_4 H19_4 1_555 1_555
C43_4 C32_4 1_555 1_555
C50_4 N12_4 1_555 1_555
C51_4 C34_4 1_555 1_555
H24_4 C51_4 1_555 1_555
C52_4 N12_4 1_555 1_555
Cu8_5 Cu1_5 1_555 1_555
Cu13_2 O5_4 1_555 1_555
Cu12_2 O18_4 1_555 1_555
Cu19_2 O11_4 1_555 1_555
Cu18_2 O13_4 1_555 1_555
O25_4 Cu15_2 1_555 1_555
O29_4 Cu9_2 1_555 1_555
O31_4 Cu9_2 1_555 1_555
O38_4 Cu15_2 1_555 1_555
O12_4 Cu8_5 1_555 1_555
C6_4 C13_4 1_555 1_555
N4_4 C27_4 1_555 1_555
N5_4 C27_4 1_555 1_555
C17_4 C20_4 1_555 1_555
C18_4 C21_4 1_555 1_555
C19_4 C20_4 1_555 1_555
C21_4 C22_4 1_555 1_555
O22_4 Cu8_5 1_555 1_555
C32_4 C34_4 1_555 1_555
C41_4 C43_4 1_555 1_555
C41_4 C52_4 1_555 1_555
C51_4 C52_4 1_555 1_555
Cu8_6 Cu1_6 1_555 1_555
O27_7 Cu1_6 1_555 1_555
O28_7 Cu1_6 1_555 1_555
Cu2_5 O10_4 1_555 1_555
O1_4 C9_4 1_555 1_555
O4_4 C3_4 1_555 1_555
O6_4 C9_4 1_555 1_555
O33_2 C12_4 1_555 1_555
O35_2 C12_4 1_555 1_555
O10_4 C3_4 1_555 1_555
N1_4 C23_4 1_555 1_555
C3_4 C7_4 1_555 1_555
C5_4 H2_4 1_555 1_555
N3_4 C23_4 1_555 1_555
C7_4 C5_4 1_555 1_555
N6_4 H5_4 1_555 1_555
C9_4 C15_4 1_555 1_555
C12_4 C16_4 1_555 1_555
C14_4 H7_4 1_555 1_555
C16_4 C5_4 1_555 1_555
C23_4 N6_4 1_555 1_555
C24_4 C7_4 1_555 1_555
H12_4 C24_4 1_555 1_555
C25_4 N6_4 1_555 1_555
Cu16_2 O14_4 1_555 1_555
O14_4 C28_4 1_555 1_555
O15_4 C35_4 1_555 1_555
O17_4 C29_4 1_555 1_555
O19_4 Cu10_2 1_555 1_555
O23_4 C29_4 1_555 1_555
O24_4 Cu2_5 1_555 1_555
C28_4 O19_4 1_555 1_555
C29_4 C31_4 1_555 1_555
N8_4 H13_4 1_555 1_555
C31_4 C38_4 1_555 1_555
C33_4 H15_4 1_555 1_555
C35_4 O24_4 1_555 1_555
N10_4 C53_4 1_555 1_555
N11_4 H16_4 1_555 1_555
C37_4 C33_4 1_555 1_555
C38_4 H18_4 1_555 1_555
C40_4 C28_4 1_555 1_555
C45_4 C37_4 1_555 1_555
H21_4 C45_4 1_555 1_555
C46_4 C31_4 1_555 1_555
H22_4 C46_4 1_555 1_555
C47_4 N8_4 1_555 1_555
C48_4 N11_4 1_555 1_555
C49_4 C40_4 1_555 1_555
H23_4 C49_4 1_555 1_555
C53_4 N8_4 1_555 1_555
Cu7_5 Cu2_5 1_555 1_555
Cu14_2 O17_4 1_555 1_555
Cu11_2 O6_4 1_555 1_555
Cu20_2 O23_4 1_555 1_555
Cu17_2 O1_4 1_555 1_555
O26_4 Cu16_2 1_555 1_555
O30_4 Cu10_2 1_555 1_555
O32_4 Cu10_2 1_555 1_555
O39_4 Cu16_2 1_555 1_555
O4_4 Cu7_5 1_555 1_555
C14_4 C16_4 1_555 1_555
C14_4 C25_4 1_555 1_555
C24_4 C25_4 1_555 1_555
O15_4 Cu7_5 1_555 1_555
C33_4 C40_4 1_555 1_555
C35_4 C37_4 1_555 1_555
N10_4 C54_4 1_555 1_555
N11_4 C54_4 1_555 1_555
C44_4 C47_4 1_555 1_555
C45_4 C48_4 1_555 1_555
C46_4 C47_4 1_555 1_555
C48_4 C49_4 1_555 1_555
Cu7_6 Cu2_6 1_555 1_555
O37_7 Cu2_6 1_555 1_555
O40_7 Cu2_6 1_555 1_555
O37_8 Cu8_6 1_555 1_555
O40_8 Cu8_6 1_555 1_555
O27_8 Cu7_6 1_555 1_555
O28_8 Cu7_6 1_555 1_555
Cu18_2 O14_5 1_555 1_555
O25_4 C36_5 1_555 1_555
O14_5 C28_5 1_555 1_555
O30_3 C29_5 1_555 1_555
O31_4 C36_5 1_555 1_555
O19_5 Cu12_2 1_555 1_555
O20_3 C39_5 1_555 1_555
O21_3 C39_5 1_555 1_555
O37 C30_5 1_555 1_555
O39_3 C29_5 1_555 1_555
N7_5 C50_5 1_555 1_555
C28_5 O19_5 1_555 1_555
C29_5 C31_5 1_555 1_555
C30_5 O28_2 1_555 1_555
N8_5 H13_5 1_555 1_555
C31_5 C38_5 1_555 1_555
C32_5 H14_5 1_555 1_555
C33_5 H15_5 1_555 1_555
N9_5 C50_5 1_555 1_555
C34_5 C30_5 1_555 1_555
N10_5 C53_5 1_555 1_555
N11_5 H16_5 1_555 1_555
N12_5 H17_5 1_555 1_555
C36_5 C42_5 1_555 1_555
C37_5 C33_5 1_555 1_555
C38_5 H18_5 1_555 1_555
C39_5 C43_5 1_555 1_555
C40_5 C28_5 1_555 1_555
C41_5 H19_5 1_555 1_555
C42_5 C38_5 1_555 1_555
C43_5 C32_5 1_555 1_555
C44_5 C42_5 1_555 1_555
H20_5 C44_5 1_555 1_555
C45_5 C37_5 1_555 1_555
H21_5 C45_5 1_555 1_555
C46_5 C31_5 1_555 1_555
H22_5 C46_5 1_555 1_555
C47_5 N8_5 1_555 1_555
C48_5 N11_5 1_555 1_555
C49_5 C40_5 1_555 1_555
H23_5 C49_5 1_555 1_555
C50_5 N12_5 1_555 1_555
C51_5 C34_5 1_555 1_555
H24_5 C51_5 1_555 1_555
C52_5 N12_5 1_555 1_555
C53_5 N8_5 1_555 1_555
C54_5 N7_5 1_555 1_555
Cu13_2 O20_3 1_555 1_555
Cu19_2 O21_3 1_555 1_555
O34_3 Cu12_2 1_555 1_555
O36_3 Cu18_2 1_555 1_555
C32_5 C34_5 1_555 1_555
C33_5 C40_5 1_555 1_555
N9_5 C53_5 1_555 1_555
C35_5 C37_5 1_555 1_555
N10_5 C54_5 1_555 1_555
N11_5 C54_5 1_555 1_555
C41_5 C43_5 1_555 1_555
C41_5 C52_5 1_555 1_555
C44_5 C47_5 1_555 1_555
C45_5 C48_5 1_555 1_555
C46_5 C47_5 1_555 1_555
C48_5 C49_5 1_555 1_555
C51_5 C52_5 1_555 1_555
Cu17_2 O2_5 1_555 1_555
O26_4 C9_5 1_555 1_555
O2_5 C1_5 1_555 1_555
O28 C3_5 1_555 1_555
O29_3 C2_5 1_555 1_555
O32_4 C9_5 1_555 1_555
O7_5 Cu11_2 1_555 1_555
O8_3 C12_5 1_555 1_555
O9_3 C12_5 1_555 1_555
O37_2 C3_5 1_555 1_555
O38_3 C2_5 1_555 1_555
N1_5 C23_5 1_555 1_555
C1_5 O7_5 1_555 1_555
C2_5 C4_5 1_555 1_555
C3_5 C7_5 1_555 1_555
N2_5 H1_5 1_555 1_555
C4_5 C11_5 1_555 1_555
C5_5 H2_5 1_555 1_555
C6_5 H3_5 1_555 1_555
N3_5 C23_5 1_555 1_555
C7_5 C5_5 1_555 1_555
C8_5 C10_5 1_555 1_555
N4_5 C26_5 1_555 1_555
N5_5 H4_5 1_555 1_555
N6_5 H5_5 1_555 1_555
C9_5 C15_5 1_555 1_555
C10_5 C6_5 1_555 1_555
C11_5 H6_5 1_555 1_555
C12_5 C16_5 1_555 1_555
C13_5 C1_5 1_555 1_555
C14_5 H7_5 1_555 1_555
C15_5 C11_5 1_555 1_555
C16_5 C5_5 1_555 1_555
C17_5 C15_5 1_555 1_555
H8_5 C17_5 1_555 1_555
C18_5 C10_5 1_555 1_555
H9_5 C18_5 1_555 1_555
C19_5 C4_5 1_555 1_555
H10_5 C19_5 1_555 1_555
C20_5 N2_5 1_555 1_555
C21_5 N5_5 1_555 1_555
C22_5 C13_5 1_555 1_555
H11_5 C22_5 1_555 1_555
C23_5 N6_5 1_555 1_555
C24_5 C7_5 1_555 1_555
H12_5 C24_5 1_555 1_555
C25_5 N6_5 1_555 1_555
C26_5 N2_5 1_555 1_555
C27_5 N1_5 1_555 1_555
Cu14_2 O8_3 1_555 1_555
Cu20_2 O9_3 1_555 1_555
O33_3 Cu11_2 1_555 1_555
O35_3 Cu17_2 1_555 1_555
C6_5 C13_5 1_555 1_555
N3_5 C26_5 1_555 1_555
N4_5 C27_5 1_555 1_555
N5_5 C27_5 1_555 1_555
C14_5 C16_5 1_555 1_555
C14_5 C25_5 1_555 1_555
C17_5 C20_5 1_555 1_555
C18_5 C21_5 1_555 1_555
C19_5 C20_5 1_555 1_555
C21_5 C22_5 1_555 1_555
C24_5 C25_5 1_555 1_555
Cu20_2 O14_6 1_555 1_555
O26_3 C36_6 1_555 1_555
O14_6 C28_6 1_555 1_555
O30_4 C29_6 1_555 1_555
O32_3 C36_6 1_555 1_555
O19_6 Cu14_2 1_555 1_555
O34_3 C39_6 1_555 1_555
O36_3 C39_6 1_555 1_555
O37_3 C30_6 1_555 1_555
O39_4 C29_6 1_555 1_555
N7_6 C50_6 1_555 1_555
C28_6 O19_6 1_555 1_555
C29_6 C31_6 1_555 1_555
C30_6 O28_4 1_555 1_555
N8_6 H13_6 1_555 1_555
C31_6 C38_6 1_555 1_555
C32_6 H14_6 1_555 1_555
C33_6 H15_6 1_555 1_555
N9_6 C50_6 1_555 1_555
C34_6 C30_6 1_555 1_555
N10_6 C53_6 1_555 1_555
N11_6 H16_6 1_555 1_555
N12_6 H17_6 1_555 1_555
C36_6 C42_6 1_555 1_555
C37_6 C33_6 1_555 1_555
C38_6 H18_6 1_555 1_555
C39_6 C43_6 1_555 1_555
C40_6 C28_6 1_555 1_555
C41_6 H19_6 1_555 1_555
C42_6 C38_6 1_555 1_555
C43_6 C32_6 1_555 1_555
C44_6 C42_6 1_555 1_555
H20_6 C44_6 1_555 1_555
C45_6 C37_6 1_555 1_555
H21_6 C45_6 1_555 1_555
C46_6 C31_6 1_555 1_555
H22_6 C46_6 1_555 1_555
C47_6 N8_6 1_555 1_555
C48_6 N11_6 1_555 1_555
C49_6 C40_6 1_555 1_555
H23_6 C49_6 1_555 1_555
C50_6 N12_6 1_555 1_555
C51_6 C34_6 1_555 1_555
H24_6 C51_6 1_555 1_555
C52_6 N12_6 1_555 1_555
C53_6 N8_6 1_555 1_555
C54_6 N7_6 1_555 1_555
C32_6 C34_6 1_555 1_555
C33_6 C40_6 1_555 1_555
N9_6 C53_6 1_555 1_555
C35_6 C37_6 1_555 1_555
N10_6 C54_6 1_555 1_555
N11_6 C54_6 1_555 1_555
C41_6 C43_6 1_555 1_555
C41_6 C52_6 1_555 1_555
C44_6 C47_6 1_555 1_555
C45_6 C48_6 1_555 1_555
C46_6 C47_6 1_555 1_555
C48_6 C49_6 1_555 1_555
C51_6 C52_6 1_555 1_555
Cu19_2 O2_6 1_555 1_555
O25_3 C9_6 1_555 1_555
O2_6 C1_6 1_555 1_555
O28_3 C3_6 1_555 1_555
O29_4 C2_6 1_555 1_555
O31_3 C9_6 1_555 1_555
O7_6 Cu13_2 1_555 1_555
O33_3 C12_6 1_555 1_555
O35_3 C12_6 1_555 1_555
O37_4 C3_6 1_555 1_555
O38_4 C2_6 1_555 1_555
N1_6 C23_6 1_555 1_555
C1_6 O7_6 1_555 1_555
C2_6 C4_6 1_555 1_555
C3_6 C7_6 1_555 1_555
N2_6 H1_6 1_555 1_555
C4_6 C11_6 1_555 1_555
C5_6 H2_6 1_555 1_555
C6_6 H3_6 1_555 1_555
N3_6 C23_6 1_555 1_555
C7_6 C5_6 1_555 1_555
C8_6 C10_6 1_555 1_555
N4_6 C26_6 1_555 1_555
N5_6 H4_6 1_555 1_555
N6_6 H5_6 1_555 1_555
C9_6 C15_6 1_555 1_555
C10_6 C6_6 1_555 1_555
C11_6 H6_6 1_555 1_555
C12_6 C16_6 1_555 1_555
C13_6 C1_6 1_555 1_555
C14_6 H7_6 1_555 1_555
C15_6 C11_6 1_555 1_555
C16_6 C5_6 1_555 1_555
C17_6 C15_6 1_555 1_555
H8_6 C17_6 1_555 1_555
C18_6 C10_6 1_555 1_555
H9_6 C18_6 1_555 1_555
C19_6 C4_6 1_555 1_555
H10_6 C19_6 1_555 1_555
C20_6 N2_6 1_555 1_555
C21_6 N5_6 1_555 1_555
C22_6 C13_6 1_555 1_555
H11_6 C22_6 1_555 1_555
C23_6 N6_6 1_555 1_555
C24_6 C7_6 1_555 1_555
H12_6 C24_6 1_555 1_555
C25_6 N6_6 1_555 1_555
C26_6 N2_6 1_555 1_555
C27_6 N1_6 1_555 1_555
C6_6 C13_6 1_555 1_555
N3_6 C26_6 1_555 1_555
N4_6 C27_6 1_555 1_555
N5_6 C27_6 1_555 1_555
C14_6 C16_6 1_555 1_555
C14_6 C25_6 1_555 1_555
C17_6 C20_6 1_555 1_555
C18_6 C21_6 1_555 1_555
C19_6 C20_6 1_555 1_555
C21_6 C22_6 1_555 1_555
C24_6 C25_6 1_555 1_555
Cu17 O2_7 1_555 1_555
O2_7 C1_7 1_555 1_555
O27_6 C8_7 1_555 1_555
O29 C2_7 1_555 1_555
O7_7 Cu11 1_555 1_555
O38 C2_7 1_555 1_555
O40_5 C8_7 1_555 1_555
C1_7 O7_7 1_555 1_555
C2_7 C4_7 1_555 1_555
N2_7 H1_7 1_555 1_555
C4_7 C11_7 1_555 1_555
C6_7 H3_7 1_555 1_555
C8_7 C10_7 1_555 1_555
N4_7 C26_7 1_555 1_555
N5_7 H4_7 1_555 1_555
C10_7 C6_7 1_555 1_555
C11_7 H6_7 1_555 1_555
C13_7 C1_7 1_555 1_555
C18_7 C10_7 1_555 1_555
H9_7 C18_7 1_555 1_555
C19_7 C4_7 1_555 1_555
H10_7 C19_7 1_555 1_555
C20_7 N2_7 1_555 1_555
C21_7 N5_7 1_555 1_555
C22_7 C13_7 1_555 1_555
H11_7 C22_7 1_555 1_555
C26_7 N2_7 1_555 1_555
O25_2 C36_7 1_555 1_555
O31_2 C36_7 1_555 1_555
O20_4 C39_7 1_555 1_555
O21_4 C39_7 1_555 1_555
O37_5 C30_7 1_555 1_555
N7_7 C50_7 1_555 1_555
C30_7 O28_6 1_555 1_555
C32_7 H14_7 1_555 1_555
N9_7 C50_7 1_555 1_555
C34_7 C30_7 1_555 1_555
N12_7 H17_7 1_555 1_555
C36_7 C42_7 1_555 1_555
C39_7 C43_7 1_555 1_555
C41_7 H19_7 1_555 1_555
C43_7 C32_7 1_555 1_555
C50_7 N12_7 1_555 1_555
C51_7 C34_7 1_555 1_555
H24_7 C51_7 1_555 1_555
C52_7 N12_7 1_555 1_555
Cu13 O20_4 1_555 1_555
Cu19 O21_4 1_555 1_555
O33_4 Cu11 1_555 1_555
O35_4 Cu17 1_555 1_555
C6_7 C13_7 1_555 1_555
N4_7 C27_7 1_555 1_555
N5_7 C27_7 1_555 1_555
C17_7 C20_7 1_555 1_555
C18_7 C21_7 1_555 1_555
C19_7 C20_7 1_555 1_555
C21_7 C22_7 1_555 1_555
C32_7 C34_7 1_555 1_555
C41_7 C43_7 1_555 1_555
C41_7 C52_7 1_555 1_555
C51_7 C52_7 1_555 1_555
O26_2 C9_7 1_555 1_555
O28_5 C3_7 1_555 1_555
O32_2 C9_7 1_555 1_555
O8_4 C12_7 1_555 1_555
O9_4 C12_7 1_555 1_555
O37_6 C3_7 1_555 1_555
N1_7 C23_7 1_555 1_555
C3_7 C7_7 1_555 1_555
C5_7 H2_7 1_555 1_555
N3_7 C23_7 1_555 1_555
C7_7 C5_7 1_555 1_555
N6_7 H5_7 1_555 1_555
C9_7 C15_7 1_555 1_555
C12_7 C16_7 1_555 1_555
C14_7 H7_7 1_555 1_555
C16_7 C5_7 1_555 1_555
C23_7 N6_7 1_555 1_555
C24_7 C7_7 1_555 1_555
H12_7 C24_7 1_555 1_555
C25_7 N6_7 1_555 1_555
Cu18 O14_7 1_555 1_555
O14_7 C28_7 1_555 1_555
O27_5 C35_7 1_555 1_555
O30 C29_7 1_555 1_555
O19_7 Cu12 1_555 1_555
O39 C29_7 1_555 1_555
C28_7 O19_7 1_555 1_555
C29_7 C31_7 1_555 1_555
N8_7 H13_7 1_555 1_555
C31_7 C38_7 1_555 1_555
C33_7 H15_7 1_555 1_555
C35_7 O40_6 1_555 1_555
N10_7 C53_7 1_555 1_555
N11_7 H16_7 1_555 1_555
C37_7 C33_7 1_555 1_555
C38_7 H18_7 1_555 1_555
C40_7 C28_7 1_555 1_555
C45_7 C37_7 1_555 1_555
H21_7 C45_7 1_555 1_555
C46_7 C31_7 1_555 1_555
H22_7 C46_7 1_555 1_555
C47_7 N8_7 1_555 1_555
C48_7 N11_7 1_555 1_555
C49_7 C40_7 1_555 1_555
H23_7 C49_7 1_555 1_555
C53_7 N8_7 1_555 1_555
Cu14 O8_4 1_555 1_555
Cu20 O9_4 1_555 1_555
O34_4 Cu12 1_555 1_555
O36_4 Cu18 1_555 1_555
C14_7 C16_7 1_555 1_555
C14_7 C25_7 1_555 1_555
C24_7 C25_7 1_555 1_555
C33_7 C40_7 1_555 1_555
C35_7 C37_7 1_555 1_555
N10_7 C54_7 1_555 1_555
N11_7 C54_7 1_555 1_555
C44_7 C47_7 1_555 1_555
C45_7 C48_7 1_555 1_555
C46_7 C47_7 1_555 1_555
C48_7 C49_7 1_555 1_555
O25 C9_8 1_555 1_555
O28_7 C3_8 1_555 1_555
O31 C9_8 1_555 1_555
O33_4 C12_8 1_555 1_555
O35_4 C12_8 1_555 1_555
O37_8 C3_8 1_555 1_555
N1_8 C23_8 1_555 1_555
C3_8 C7_8 1_555 1_555
C5_8 H2_8 1_555 1_555
N3_8 C23_8 1_555 1_555
C7_8 C5_8 1_555 1_555
N6_8 H5_8 1_555 1_555
C9_8 C15_8 1_555 1_555
C12_8 C16_8 1_555 1_555
C14_8 H7_8 1_555 1_555
C16_8 C5_8 1_555 1_555
C23_8 N6_8 1_555 1_555
C24_8 C7_8 1_555 1_555
H12_8 C24_8 1_555 1_555
C25_8 N6_8 1_555 1_555
Cu20 O14_8 1_555 1_555
O14_8 C28_8 1_555 1_555
O27_7 C35_8 1_555 1_555
O30_2 C29_8 1_555 1_555
O19_8 Cu14 1_555 1_555
O39_2 C29_8 1_555 1_555
C28_8 O19_8 1_555 1_555
C29_8 C31_8 1_555 1_555
N8_8 H13_8 1_555 1_555
C31_8 C38_8 1_555 1_555
C33_8 H15_8 1_555 1_555
C35_8 O40_8 1_555 1_555
N10_8 C53_8 1_555 1_555
N11_8 H16_8 1_555 1_555
C37_8 C33_8 1_555 1_555
C38_8 H18_8 1_555 1_555
C40_8 C28_8 1_555 1_555
C45_8 C37_8 1_555 1_555
H21_8 C45_8 1_555 1_555
C46_8 C31_8 1_555 1_555
H22_8 C46_8 1_555 1_555
C47_8 N8_8 1_555 1_555
C48_8 N11_8 1_555 1_555
C49_8 C40_8 1_555 1_555
H23_8 C49_8 1_555 1_555
C53_8 N8_8 1_555 1_555
C14_8 C16_8 1_555 1_555
C14_8 C25_8 1_555 1_555
C24_8 C25_8 1_555 1_555
C33_8 C40_8 1_555 1_555
C35_8 C37_8 1_555 1_555
N10_8 C54_8 1_555 1_555
N11_8 C54_8 1_555 1_555
C44_8 C47_8 1_555 1_555
C45_8 C48_8 1_555 1_555
C46_8 C47_8 1_555 1_555
C48_8 C49_8 1_555 1_555
Cu19 O2_8 1_555 1_555
O2_8 C1_8 1_555 1_555
O27_8 C8_8 1_555 1_555
O29_2 C2_8 1_555 1_555
O7_8 Cu13 1_555 1_555
O38_2 C2_8 1_555 1_555
O40_7 C8_8 1_555 1_555
C1_8 O7_8 1_555 1_555
C2_8 C4_8 1_555 1_555
N2_8 H1_8 1_555 1_555
C4_8 C11_8 1_555 1_555
C6_8 H3_8 1_555 1_555
C8_8 C10_8 1_555 1_555
N4_8 C26_8 1_555 1_555
N5_8 H4_8 1_555 1_555
C10_8 C6_8 1_555 1_555
C11_8 H6_8 1_555 1_555
C13_8 C1_8 1_555 1_555
C18_8 C10_8 1_555 1_555
H9_8 C18_8 1_555 1_555
C19_8 C4_8 1_555 1_555
H10_8 C19_8 1_555 1_555
C20_8 N2_8 1_555 1_555
C21_8 N5_8 1_555 1_555
C22_8 C13_8 1_555 1_555
H11_8 C22_8 1_555 1_555
C26_8 N2_8 1_555 1_555
O26 C36_8 1_555 1_555
O32 C36_8 1_555 1_555
O34_4 C39_8 1_555 1_555
O36_4 C39_8 1_555 1_555
O37_7 C30_8 1_555 1_555
N7_8 C50_8 1_555 1_555
C30_8 O28_8 1_555 1_555
C32_8 H14_8 1_555 1_555
N9_8 C50_8 1_555 1_555
C34_8 C30_8 1_555 1_555
N12_8 H17_8 1_555 1_555
C36_8 C42_8 1_555 1_555
C39_8 C43_8 1_555 1_555
C41_8 H19_8 1_555 1_555
C43_8 C32_8 1_555 1_555
C50_8 N12_8 1_555 1_555
C51_8 C34_8 1_555 1_555
H24_8 C51_8 1_555 1_555
C52_8 N12_8 1_555 1_555
C6_8 C13_8 1_555 1_555
N4_8 C27_8 1_555 1_555
N5_8 C27_8 1_555 1_555
C17_8 C20_8 1_555 1_555
C18_8 C21_8 1_555 1_555
C19_8 C20_8 1_555 1_555
C21_8 C22_8 1_555 1_555
C32_8 C34_8 1_555 1_555
C41_8 C43_8 1_555 1_555
C41_8 C52_8 1_555 1_555
C51_8 C52_8 1_555 1_555

#END
