
###############################################################################
#
# This file contains modified crystal structure data generated from the
# MOF subset of the Cambridge Structural Database (CSD) v543 
# hosted by the Cambridge Crystallographic Data Centre (CCDC).
#
# This work is licensed under the Creative Commons
# Attribution-NonCommercial-ShareAlike 4.0 International License.
# To view a copy of this license, visit
# http://creativecommons.org/licenses/by-nc-sa/4.0/
# or send a letter to
# Creative Commons, PO Box 1866, Mountain View, CA 94042, USA.
#
# CIF created using the CSD Python API on 29 September 2022
# The structure has been converted into the P1 space group
# The structure has a 3D framework
# The original CSD entry PAPPAB04 is in the tetragonal crystal system
# The framework has been calculated to contain at least 10.0% void space
# The void calculation uses a probe of radius 1.32A, grid spacing 0.4
#
###############################################################################

data_PAPPAB04
_chemical_formula_moiety         '(C432 H192 Cu40 N96 O180)n'
_symmetry_cell_setting           triclinic
_symmetry_space_group_name_H-M   'P 1'
_symmetry_Int_Tables_number      1
_space_group_name_Hall           'P 1'
loop_
_symmetry_equiv_pos_site_id
_symmetry_equiv_pos_as_xyz
1 x,y,z
_cell_length_a                   26.4676(2)
_cell_length_b                   26.4676(2)
_cell_length_c                   37.9459(5)
_cell_angle_alpha                90
_cell_angle_beta                 90
_cell_angle_gamma                90
_cell_volume                     26582.4
loop_
_atom_site_label
_atom_site_type_symbol
_atom_site_fract_x
_atom_site_fract_y
_atom_site_fract_z
Cu2 Cu 0.07193(6) 0.60855(6) 0.500000
O6 O 0.0196(3) 0.6019(2) 0.4647(2)
O12 O 0.0072(3) 0.6854(3) 0.4641(2)
Cu5 Cu 0.11929(4) 0.17817(4) 0.35171(3)
Cu6 Cu 0.26734(4) 0.65652(4) 0.19431(3)
O13 O 0.3202(3) 0.5579(2) 0.17547(19)
O14 O 0.2676(3) 0.5905(2) 0.21620(18)
O15 O 0.1205(3) 0.6238(2) 0.46288(18)
O16 O 0.0993(3) 0.2396(2) 0.37460(19)
O17 O 0.2271(3) 0.7802(2) 0.33086(19)
O19 O 0.1074(3) 0.7063(2) 0.46399(19)
O20 O 0.1812(3) 0.8152(2) 0.37433(18)
O21 O 0.3560(3) 0.3784(2) 0.17541(19)
O22 O 0.1371(3) 0.2895(2) 0.33512(19)
O23 O 0.3260(3) 0.3289(2) 0.21853(19)
C28 C 0.1113(3) 0.2820(3) 0.3628(3)
C29 C 0.3330(3) 0.3709(3) 0.2041(3)
C30 C 0.1663(4) 0.7213(4) 0.4057(3)
H13 H 0.154274 0.749589 0.417514
C31 C 0.2936(4) 0.5552(4) 0.2025(3)
C32 C 0.3098(4) 0.4167(4) 0.2206(3)
C33 C 0.1575(4) 0.6732(4) 0.4188(3)
C34 C 0.0576(4) 0.3221(4) 0.4085(3)
H14 H 0.043976 0.290514 0.413670
C35 C 0.0015(4) 0.3600(4) 0.4538(3)
C36 C 0.1260(4) 0.6680(4) 0.4509(3)
C37 C 0.2015(4) 0.7786(4) 0.3586(3)
C38 C 0.0941(4) 0.3272(3) 0.3827(3)
C39 C 0.1933(4) 0.7266(4) 0.3747(3)
N7 N 0.1732(4) 0.4512(3) 0.3415(3)
N8 N 0.1663(4) 0.5313(3) 0.3701(3)
C40 C 0.3139(4) 0.4641(3) 0.2052(3)
H15 H 0.332589 0.468284 0.184656
N9 N 0.2254(5) 0.4421(3) 0.2949(3)
H16 H 0.216815 0.410963 0.297569
C41 C 0.0418(4) 0.3642(4) 0.4264(3)
N10 N 0.2218(4) 0.5214(3) 0.3207(3)
C42 C 0.2904(4) 0.5046(4) 0.2205(3)
N11 N 0.2160(5) 0.5964(3) 0.3484(3)
H17 H 0.239783 0.603712 0.333893
C43 C 0.2090(4) 0.6849(4) 0.3566(3)
H18 H 0.225865 0.688796 0.335232
C44 C 0.2803(5) 0.4110(4) 0.2504(3)
H19 H 0.277076 0.379219 0.260523
C45 C 0.2611(4) 0.4990(4) 0.2499(3)
H20 H 0.244753 0.526812 0.259545
N12 N 0.1198(5) 0.4648(4) 0.3884(3)
H21 H 0.107979 0.487693 0.402252
C46 C 0.0616(5) 0.4109(4) 0.4189(3)
H22 H 0.049594 0.439272 0.430675
C47 C 0.1735(5) 0.6307(4) 0.4003(3)
H23 H 0.166390 0.598466 0.408672
C48 C 0.2556(5) 0.4516(4) 0.2653(3)
C49 C 0.1139(5) 0.3741(4) 0.3748(3)
H24 H 0.137234 0.377411 0.356637
C50 C 0.2004(5) 0.5469(4) 0.3470(4)
C51 C 0.2000(5) 0.6372(4) 0.3695(3)
C52 C 0.0992(5) 0.4161(4) 0.3939(3)
C53 C 0.1547(6) 0.4818(5) 0.3652(4)
C54 C 0.2077(6) 0.4735(4) 0.3199(4)
Cu7 Cu 0.05675(6) 0.70066(6) 0.500000
Cu9 Cu 0.17817(4) 0.88071(4) 0.35171(3)
Cu12 Cu 0.38071(4) 0.32183(4) 0.14829(3)
Cu13 Cu 0.32183(4) 0.61929(4) 0.14829(3)
Cu16 Cu 0.34348(4) 0.26734(4) 0.19431(3)
Cu18 Cu 0.23266(4) 0.84348(4) 0.30569(3)
Cu20 Cu 0.15652(4) 0.23266(4) 0.30569(3)
O26 O 0.0579(2) 0.1798(3) 0.32453(19)
O27 O 0.1205(3) 0.6238(2) 0.53712(18)
O29 O 0.2729(3) 0.7198(2) 0.16914(19)
O30 O 0.0196(3) 0.6019(2) 0.5353(2)
O33 O 0.1848(2) 0.1812(3) 0.37433(18)
O35 O 0.1440(3) 0.1216(2) 0.32459(19)
O36 O 0.2105(2) 0.6371(3) 0.16488(19)
O38 O 0.3289(2) 0.6740(3) 0.21853(19)
Cu1 Cu 0.94325(6) 0.29934(6) 0.500000
Cu3 Cu 0.88071(4) 0.82183(4) 0.35171(3)
Cu4 Cu 0.73266(4) 0.34348(4) 0.19431(3)
O1 O 0.6798(3) 0.4421(2) 0.17547(19)
O2 O 0.7324(3) 0.4095(2) 0.21620(18)
O3 O 0.8795(3) 0.3762(2) 0.46288(18)
O4 O 0.9007(3) 0.7604(2) 0.37460(19)
O5 O 0.7729(3) 0.2198(2) 0.33086(19)
O7 O 0.8926(3) 0.2937(2) 0.46399(19)
O8 O 0.8188(3) 0.1848(2) 0.37433(18)
O9 O 0.6440(3) 0.6216(2) 0.17541(19)
O10 O 0.8629(3) 0.7105(2) 0.33512(19)
O11 O 0.6740(3) 0.6711(2) 0.21853(19)
C1 C 0.8887(3) 0.7180(3) 0.3628(3)
C2 C 0.6670(3) 0.6291(3) 0.2041(3)
C3 C 0.8337(4) 0.2787(4) 0.4057(3)
H1 H 0.845726 0.250411 0.417514
C4 C 0.7064(4) 0.4448(4) 0.2025(3)
C5 C 0.6902(4) 0.5833(4) 0.2206(3)
C6 C 0.8425(4) 0.3268(4) 0.4188(3)
C7 C 0.9424(4) 0.6779(4) 0.4085(3)
H2 H 0.956024 0.709486 0.413670
C8 C 0.9985(4) 0.6400(4) 0.4538(3)
C9 C 0.8740(4) 0.3320(4) 0.4509(3)
C10 C 0.7985(4) 0.2214(4) 0.3586(3)
C11 C 0.9059(4) 0.6728(3) 0.3827(3)
C12 C 0.8067(4) 0.2734(4) 0.3747(3)
N1 N 0.8268(4) 0.5488(3) 0.3415(3)
N2 N 0.8337(4) 0.4687(3) 0.3701(3)
C13 C 0.6861(4) 0.5359(3) 0.2052(3)
H3 H 0.667411 0.531716 0.184656
N3 N 0.7746(5) 0.5579(3) 0.2949(3)
H4 H 0.783185 0.589037 0.297569
C14 C 0.9582(4) 0.6358(4) 0.4264(3)
N4 N 0.7782(4) 0.4786(3) 0.3207(3)
C15 C 0.7096(4) 0.4954(4) 0.2205(3)
N5 N 0.7840(5) 0.4036(3) 0.3484(3)
H5 H 0.760217 0.396288 0.333893
C16 C 0.7910(4) 0.3151(4) 0.3566(3)
H6 H 0.774135 0.311204 0.335232
C17 C 0.7197(5) 0.5890(4) 0.2504(3)
H7 H 0.722924 0.620781 0.260523
C18 C 0.7389(4) 0.5010(4) 0.2499(3)
H8 H 0.755247 0.473188 0.259545
N6 N 0.8802(5) 0.5352(4) 0.3884(3)
H9 H 0.892021 0.512307 0.402252
C19 C 0.9384(5) 0.5891(4) 0.4189(3)
H10 H 0.950406 0.560728 0.430675
C20 C 0.8265(5) 0.3693(4) 0.4003(3)
H11 H 0.833610 0.401534 0.408672
C21 C 0.7444(5) 0.5484(4) 0.2653(3)
C22 C 0.8861(5) 0.6259(4) 0.3748(3)
H12 H 0.862766 0.622589 0.356637
C23 C 0.7996(5) 0.4531(4) 0.3470(4)
C24 C 0.8000(5) 0.3628(4) 0.3695(3)
C25 C 0.9008(5) 0.5839(4) 0.3939(3)
C26 C 0.8453(6) 0.5182(5) 0.3652(4)
C27 C 0.7923(6) 0.5265(4) 0.3199(4)
O18 O 0.9804(3) 0.3981(2) 0.4647(2)
O24 O 0.9928(3) 0.3146(3) 0.4641(2)
Cu8 Cu 0.92807(6) 0.39145(6) 0.500000
Cu10 Cu 0.82183(4) 0.11929(4) 0.35171(3)
Cu11 Cu 0.61929(4) 0.67817(4) 0.14829(3)
Cu14 Cu 0.67817(4) 0.38071(4) 0.14829(3)
Cu15 Cu 0.65652(4) 0.73266(4) 0.19431(3)
Cu17 Cu 0.76734(4) 0.15652(4) 0.30569(3)
Cu19 Cu 0.84348(4) 0.76734(4) 0.30569(3)
O25 O 0.9421(2) 0.8202(3) 0.32453(19)
O28 O 0.7271(3) 0.2802(2) 0.16914(19)
O31 O 0.8926(3) 0.2937(2) 0.53601(19)
O32 O 0.8152(2) 0.8188(3) 0.37433(18)
O34 O 0.8560(3) 0.8784(2) 0.32459(19)
O37 O 0.7895(2) 0.3629(3) 0.16488(19)
O39 O 0.6711(2) 0.3260(3) 0.21853(19)
O40 O 0.9928(3) 0.3146(3) 0.5359(2)
O31_2 O 0.1074(3) 0.7063(2) 0.53601(19)
O40_2 O 0.0072(3) 0.6854(3) 0.5359(2)
O27_2 O 0.8795(3) 0.3762(2) 0.53712(18)
O30_2 O 0.9804(3) 0.3981(2) 0.5353(2)
Cu2_2 Cu 0.39145(6) 0.07193(6) 0.500000
O6_2 O 0.3981(2) 0.0196(3) 0.4647(2)
O12_2 O 0.3146(3) 0.0072(3) 0.4641(2)
O13_2 O 0.4421(2) 0.3202(3) 0.17547(19)
O14_2 O 0.4095(2) 0.2676(3) 0.21620(18)
O15_2 O 0.3762(2) 0.1205(3) 0.46288(18)
O16_2 O 0.7604(2) 0.0993(3) 0.37460(19)
O17_2 O 0.2198(2) 0.2271(3) 0.33086(19)
O19_2 O 0.2937(2) 0.1074(3) 0.46399(19)
O21_2 O 0.6216(2) 0.3560(3) 0.17541(19)
O22_2 O 0.7105(2) 0.1371(3) 0.33512(19)
C28_2 C 0.7180(3) 0.1113(3) 0.3628(3)
C29_2 C 0.6291(3) 0.3330(3) 0.2041(3)
C30_2 C 0.2787(4) 0.1663(4) 0.4057(3)
H13_2 H 0.250411 0.154274 0.417514
C31_2 C 0.4448(4) 0.2936(4) 0.2025(3)
C32_2 C 0.5833(4) 0.3098(4) 0.2206(3)
C33_2 C 0.3268(4) 0.1575(4) 0.4188(3)
C34_2 C 0.6779(4) 0.0576(4) 0.4085(3)
H14_2 H 0.709486 0.043976 0.413670
C35_2 C 0.6400(4) 0.0015(4) 0.4538(3)
C36_2 C 0.3320(4) 0.1260(4) 0.4509(3)
C37_2 C 0.2214(4) 0.2015(4) 0.3586(3)
C38_2 C 0.6728(3) 0.0941(4) 0.3827(3)
C39_2 C 0.2734(4) 0.1933(4) 0.3747(3)
N7_2 N 0.5488(3) 0.1732(4) 0.3415(3)
N8_2 N 0.4687(3) 0.1663(4) 0.3701(3)
C40_2 C 0.5359(3) 0.3139(4) 0.2052(3)
H15_2 H 0.531716 0.332589 0.184656
N9_2 N 0.5579(3) 0.2254(5) 0.2949(3)
H16_2 H 0.589037 0.216815 0.297569
C41_2 C 0.6358(4) 0.0418(4) 0.4264(3)
N10_2 N 0.4786(3) 0.2218(4) 0.3207(3)
C42_2 C 0.4954(4) 0.2904(4) 0.2205(3)
N11_2 N 0.4036(3) 0.2160(5) 0.3484(3)
H17_2 H 0.396288 0.239783 0.333893
C43_2 C 0.3151(4) 0.2090(4) 0.3566(3)
H18_2 H 0.311204 0.225865 0.335232
C44_2 C 0.5890(4) 0.2803(5) 0.2504(3)
H19_2 H 0.620781 0.277076 0.260523
C45_2 C 0.5010(4) 0.2611(4) 0.2499(3)
H20_2 H 0.473188 0.244753 0.259545
N12_2 N 0.5352(4) 0.1198(5) 0.3884(3)
H21_2 H 0.512307 0.107979 0.402252
C46_2 C 0.5891(4) 0.0616(5) 0.4189(3)
H22_2 H 0.560728 0.049594 0.430675
C47_2 C 0.3693(4) 0.1735(5) 0.4003(3)
H23_2 H 0.401534 0.166390 0.408672
C48_2 C 0.5484(4) 0.2556(5) 0.2653(3)
C49_2 C 0.6259(4) 0.1139(5) 0.3748(3)
H24_2 H 0.622589 0.137234 0.356637
C50_2 C 0.4531(4) 0.2004(5) 0.3470(4)
C51_2 C 0.3628(4) 0.2000(5) 0.3695(3)
C52_2 C 0.5839(4) 0.0992(5) 0.3939(3)
C53_2 C 0.5182(5) 0.1547(6) 0.3652(4)
C54_2 C 0.5265(4) 0.2077(6) 0.3199(4)
Cu7_2 Cu 0.29934(6) 0.05675(6) 0.500000
O26_2 O 0.8202(3) 0.0579(2) 0.32453(19)
O27_3 O 0.3762(2) 0.1205(3) 0.53712(18)
O29_2 O 0.2802(2) 0.2729(3) 0.16914(19)
O30_3 O 0.3981(2) 0.0196(3) 0.5353(2)
O35_2 O 0.8784(2) 0.1440(3) 0.32459(19)
O36_2 O 0.3629(3) 0.2105(2) 0.16488(19)
Cu1_2 Cu 0.70066(6) 0.94325(6) 0.500000
O1_2 O 0.5579(2) 0.6798(3) 0.17547(19)
O2_2 O 0.5905(2) 0.7324(3) 0.21620(18)
O3_2 O 0.6238(2) 0.8795(3) 0.46288(18)
O4_2 O 0.2396(2) 0.9007(3) 0.37460(19)
O5_2 O 0.7802(2) 0.7729(3) 0.33086(19)
O7_2 O 0.7063(2) 0.8926(3) 0.46399(19)
O9_2 O 0.3784(2) 0.6440(3) 0.17541(19)
O10_2 O 0.2895(2) 0.8629(3) 0.33512(19)
C1_2 C 0.2820(3) 0.8887(3) 0.3628(3)
C2_2 C 0.3709(3) 0.6670(3) 0.2041(3)
C3_2 C 0.7213(4) 0.8337(4) 0.4057(3)
H1_2 H 0.749589 0.845726 0.417514
C4_2 C 0.5552(4) 0.7064(4) 0.2025(3)
C5_2 C 0.4167(4) 0.6902(4) 0.2206(3)
C6_2 C 0.6732(4) 0.8425(4) 0.4188(3)
C7_2 C 0.3221(4) 0.9424(4) 0.4085(3)
H2_2 H 0.290514 0.956024 0.413670
C8_2 C 0.3600(4) 0.9985(4) 0.4538(3)
C9_2 C 0.6680(4) 0.8740(4) 0.4509(3)
C10_2 C 0.7786(4) 0.7985(4) 0.3586(3)
C11_2 C 0.3272(3) 0.9059(4) 0.3827(3)
C12_2 C 0.7266(4) 0.8067(4) 0.3747(3)
N1_2 N 0.4512(3) 0.8268(4) 0.3415(3)
N2_2 N 0.5313(3) 0.8337(4) 0.3701(3)
C13_2 C 0.4641(3) 0.6861(4) 0.2052(3)
H3_2 H 0.468284 0.667411 0.184656
N3_2 N 0.4421(3) 0.7746(5) 0.2949(3)
H4_2 H 0.410963 0.783185 0.297569
C14_2 C 0.3642(4) 0.9582(4) 0.4264(3)
N4_2 N 0.5214(3) 0.7782(4) 0.3207(3)
C15_2 C 0.5046(4) 0.7096(4) 0.2205(3)
N5_2 N 0.5964(3) 0.7840(5) 0.3484(3)
H5_2 H 0.603712 0.760217 0.333893
C16_2 C 0.6849(4) 0.7910(4) 0.3566(3)
H6_2 H 0.688796 0.774135 0.335232
C17_2 C 0.4110(4) 0.7197(5) 0.2504(3)
H7_2 H 0.379219 0.722924 0.260523
C18_2 C 0.4990(4) 0.7389(4) 0.2499(3)
H8_2 H 0.526812 0.755247 0.259545
N6_2 N 0.4648(4) 0.8802(5) 0.3884(3)
H9_2 H 0.487693 0.892021 0.402252
C19_2 C 0.4109(4) 0.9384(5) 0.4189(3)
H10_2 H 0.439272 0.950406 0.430675
C20_2 C 0.6307(4) 0.8265(5) 0.4003(3)
H11_2 H 0.598466 0.833610 0.408672
C21_2 C 0.4516(4) 0.7444(5) 0.2653(3)
C22_2 C 0.3741(4) 0.8861(5) 0.3748(3)
H12_2 H 0.377411 0.862766 0.356637
C23_2 C 0.5469(4) 0.7996(5) 0.3470(4)
C24_2 C 0.6372(4) 0.8000(5) 0.3695(3)
C25_2 C 0.4161(4) 0.9008(5) 0.3939(3)
C26_2 C 0.4818(5) 0.8453(6) 0.3652(4)
C27_2 C 0.4735(4) 0.7923(6) 0.3199(4)
O18_2 O 0.6019(2) 0.9804(3) 0.4647(2)
O24_2 O 0.6854(3) 0.9928(3) 0.4641(2)
Cu8_2 Cu 0.60855(6) 0.92807(6) 0.500000
O25_2 O 0.1798(3) 0.9421(2) 0.32453(19)
O28_2 O 0.7198(2) 0.7271(3) 0.16914(19)
O31_3 O 0.7063(2) 0.8926(3) 0.53601(19)
O34_2 O 0.1216(2) 0.8560(3) 0.32459(19)
O37_2 O 0.6371(3) 0.7895(2) 0.16488(19)
O40_3 O 0.6854(3) 0.9928(3) 0.5359(2)
O31_4 O 0.2937(2) 0.1074(3) 0.53601(19)
O40_4 O 0.3146(3) 0.0072(3) 0.5359(2)
O27_4 O 0.6238(2) 0.8795(3) 0.53712(18)
O30_4 O 0.6019(2) 0.9804(3) 0.5353(2)
Cu2_3 Cu 0.57193(6) 0.10855(6) 0.000000
Cu7_3 Cu 0.55675(6) 0.20066(6) 0.000000
O27_5 O 0.6205(3) 0.1238(2) 0.03712(18)
O30_5 O 0.5196(3) 0.1019(2) 0.0353(2)
Cu2_4 Cu 0.57193(6) 0.10855(6) 1.000000
Cu3_2 Cu 0.38071(4) 0.32183(4) 0.85171(3)
O4_3 O 0.4007(3) 0.2604(2) 0.87460(19)
O6_3 O 0.5196(3) 0.1019(2) 0.9647(2)
O9_3 O 0.1440(3) 0.1216(2) 0.67541(19)
O10_3 O 0.3629(3) 0.2105(2) 0.83512(19)
O11_2 O 0.1740(3) 0.1711(2) 0.71853(19)
O12_3 O 0.5072(3) 0.1854(3) 0.9641(2)
C1_3 C 0.3887(3) 0.2180(3) 0.8628(3)
C2_3 C 0.1670(3) 0.1291(3) 0.7041(3)
C5_3 C 0.1902(4) 0.0833(4) 0.7206(3)
C7_3 C 0.4424(4) 0.1779(4) 0.9085(3)
H2_3 H 0.456024 0.209486 0.913670
C8_3 C 0.4985(4) 0.1400(4) 0.9538(3)
C11_3 C 0.4059(4) 0.1728(3) 0.8827(3)
N1_3 N 0.3268(4) 0.0488(3) 0.8415(3)
C13_3 C 0.1861(4) 0.0359(3) 0.7052(3)
H3_3 H 0.167411 0.031716 0.684656
N3_3 N 0.2746(5) 0.0579(3) 0.7949(3)
H4_3 H 0.283185 0.089037 0.797569
C14_3 C 0.4582(4) 0.1358(4) 0.9264(3)
C17_3 C 0.2197(5) 0.0890(4) 0.7504(3)
H7_3 H 0.222924 0.120781 0.760523
C18_3 C 0.2389(4) 0.0010(4) 0.7499(3)
N6_3 N 0.3802(5) 0.0352(4) 0.8884(3)
H9_3 H 0.392021 0.012307 0.902252
C19_3 C 0.4384(5) 0.0891(4) 0.9189(3)
H10_3 H 0.450406 0.060728 0.930675
C21_3 C 0.2444(5) 0.0484(4) 0.7653(3)
C22_3 C 0.3861(5) 0.1259(4) 0.8748(3)
H12_3 H 0.362766 0.122589 0.856637
C25_3 C 0.4008(5) 0.0839(4) 0.8939(3)
C26_3 C 0.3453(6) 0.0182(5) 0.8652(4)
C27_3 C 0.2923(6) 0.0265(4) 0.8199(4)
Cu6_2 Cu 0.76734(4) 0.15652(4) 0.69431(3)
O13_3 O 0.8202(3) 0.0579(2) 0.67547(19)
O14_3 O 0.7676(3) 0.0905(2) 0.71620(18)
O15_3 O 0.6205(3) 0.1238(2) 0.96288(18)
O17_3 O 0.7271(3) 0.2802(2) 0.83086(19)
O19_3 O 0.6074(3) 0.2063(2) 0.96399(19)
O20_2 O 0.6812(3) 0.3152(2) 0.87433(18)
C30_3 C 0.6663(4) 0.2213(4) 0.9057(3)
H13_3 H 0.654274 0.249589 0.917514
C31_3 C 0.7936(4) 0.0552(4) 0.7025(3)
C33_3 C 0.6575(4) 0.1732(4) 0.9188(3)
C36_3 C 0.6260(4) 0.1680(4) 0.9509(3)
C37_3 C 0.7015(4) 0.2786(4) 0.8586(3)
C39_3 C 0.6933(4) 0.2266(4) 0.8747(3)
N8_3 N 0.6663(4) 0.0313(3) 0.8701(3)
N10_3 N 0.7218(4) 0.0214(3) 0.8207(3)
C42_3 C 0.7904(4) 0.0046(4) 0.7205(3)
N11_3 N 0.7160(5) 0.0964(3) 0.8484(3)
H17_3 H 0.739783 0.103712 0.833893
C43_3 C 0.7090(4) 0.1849(4) 0.8566(3)
H18_3 H 0.725865 0.188796 0.835232
H20_3 H 0.744753 0.026812 0.759545
C47_3 C 0.6735(5) 0.1307(4) 0.9003(3)
H23_3 H 0.666390 0.098466 0.908672
C50_3 C 0.7004(5) 0.0469(4) 0.8470(4)
C51_3 C 0.7000(5) 0.1372(4) 0.8695(3)
Cu7_4 Cu 0.55675(6) 0.20066(6) 1.000000
Cu9_2 Cu 0.67817(4) 0.38071(4) 0.85171(3)
Cu11_2 Cu 0.11929(4) 0.17817(4) 0.64829(3)
Cu13_2 Cu 0.82183(4) 0.11929(4) 0.64829(3)
Cu15_2 Cu 0.15652(4) 0.23266(4) 0.69431(3)
Cu18_2 Cu 0.73266(4) 0.34348(4) 0.80569(3)
Cu19_2 Cu 0.34348(4) 0.26734(4) 0.80569(3)
O25_3 O 0.4421(2) 0.3202(3) 0.82453(19)
O29_3 O 0.7729(3) 0.2198(2) 0.66914(19)
O32_2 O 0.3152(2) 0.3188(3) 0.87433(18)
O34_3 O 0.3560(3) 0.3784(2) 0.82459(19)
O36_3 O 0.7105(2) 0.1371(3) 0.66488(19)
O38_2 O 0.8289(2) 0.1740(3) 0.71853(19)
Cu1_3 Cu 0.44325(6) 0.79934(6) 0.000000
Cu8_3 Cu 0.42807(6) 0.89145(6) 0.000000
O31_5 O 0.3926(3) 0.7937(2) 0.03601(19)
O40_5 O 0.4928(3) 0.8146(3) 0.0359(2)
Cu1_4 Cu 0.44325(6) 0.79934(6) 1.000000
Cu4_2 Cu 0.23266(4) 0.84348(4) 0.69431(3)
O1_3 O 0.1798(3) 0.9421(2) 0.67547(19)
O2_3 O 0.2324(3) 0.9095(2) 0.71620(18)
O3_3 O 0.3795(3) 0.8762(2) 0.96288(18)
O5_3 O 0.2729(3) 0.7198(2) 0.83086(19)
O7_3 O 0.3926(3) 0.7937(2) 0.96399(19)
O8_2 O 0.3188(3) 0.6848(2) 0.87433(18)
C3_3 C 0.3337(4) 0.7787(4) 0.9057(3)
H1_3 H 0.345726 0.750411 0.917514
C4_3 C 0.2064(4) 0.9448(4) 0.7025(3)
C6_3 C 0.3425(4) 0.8268(4) 0.9188(3)
C9_3 C 0.3740(4) 0.8320(4) 0.9509(3)
C10_3 C 0.2985(4) 0.7214(4) 0.8586(3)
C12_3 C 0.3067(4) 0.7734(4) 0.8747(3)
N2_3 N 0.3337(4) 0.9687(3) 0.8701(3)
N4_3 N 0.2782(4) 0.9786(3) 0.8207(3)
C15_3 C 0.2096(4) 0.9954(4) 0.7205(3)
N5_3 N 0.2840(5) 0.9036(3) 0.8484(3)
H5_3 H 0.260217 0.896288 0.833893
C16_3 C 0.2910(4) 0.8151(4) 0.8566(3)
H6_3 H 0.274135 0.811204 0.835232
H8_3 H 0.255247 0.973188 0.759545
C20_3 C 0.3265(5) 0.8693(4) 0.9003(3)
H11_3 H 0.333610 0.901534 0.908672
C23_3 C 0.2996(5) 0.9531(4) 0.8470(4)
C24_3 C 0.3000(5) 0.8628(4) 0.8695(3)
Cu5_2 Cu 0.61929(4) 0.67817(4) 0.85171(3)
O16_3 O 0.5993(3) 0.7396(2) 0.87460(19)
O18_3 O 0.4804(3) 0.8981(2) 0.9647(2)
O21_3 O 0.8560(3) 0.8784(2) 0.67541(19)
O22_3 O 0.6371(3) 0.7895(2) 0.83512(19)
O23_2 O 0.8260(3) 0.8289(2) 0.71853(19)
O24_3 O 0.4928(3) 0.8146(3) 0.9641(2)
C28_3 C 0.6113(3) 0.7820(3) 0.8628(3)
C29_3 C 0.8330(3) 0.8709(3) 0.7041(3)
C32_3 C 0.8098(4) 0.9167(4) 0.7206(3)
C34_3 C 0.5576(4) 0.8221(4) 0.9085(3)
H14_3 H 0.543976 0.790514 0.913670
C35_3 C 0.5015(4) 0.8600(4) 0.9538(3)
C38_3 C 0.5941(4) 0.8272(3) 0.8827(3)
N7_3 N 0.6732(4) 0.9512(3) 0.8415(3)
C40_3 C 0.8139(4) 0.9641(3) 0.7052(3)
H15_3 H 0.832589 0.968284 0.684656
N9_3 N 0.7254(5) 0.9421(3) 0.7949(3)
H16_3 H 0.716815 0.910963 0.797569
C41_3 C 0.5418(4) 0.8642(4) 0.9264(3)
C44_3 C 0.7803(5) 0.9110(4) 0.7504(3)
H19_3 H 0.777076 0.879219 0.760523
C45_3 C 0.7611(4) 0.9990(4) 0.7499(3)
N12_3 N 0.6198(5) 0.9648(4) 0.8884(3)
H21_3 H 0.607979 0.987693 0.902252
C46_3 C 0.5616(5) 0.9109(4) 0.9189(3)
H22_3 H 0.549594 0.939272 0.930675
C48_3 C 0.7556(5) 0.9516(4) 0.7653(3)
C49_3 C 0.6139(5) 0.8741(4) 0.8748(3)
H24_3 H 0.637234 0.877411 0.856637
C52_3 C 0.5992(5) 0.9161(4) 0.8939(3)
C53_3 C 0.6547(6) 0.9818(5) 0.8652(4)
C54_3 C 0.7077(6) 0.9735(4) 0.8199(4)
Cu8_4 Cu 0.42807(6) 0.89145(6) 1.000000
Cu10_2 Cu 0.32183(4) 0.61929(4) 0.85171(3)
Cu12_2 Cu 0.88071(4) 0.82183(4) 0.64829(3)
Cu14_2 Cu 0.17817(4) 0.88071(4) 0.64829(3)
Cu16_2 Cu 0.84348(4) 0.76734(4) 0.69431(3)
Cu17_2 Cu 0.26734(4) 0.65652(4) 0.80569(3)
Cu20_2 Cu 0.65652(4) 0.73266(4) 0.80569(3)
O26_3 O 0.5579(2) 0.6798(3) 0.82453(19)
O28_3 O 0.2271(3) 0.7802(2) 0.66914(19)
O33_2 O 0.6848(2) 0.6812(3) 0.87433(18)
O35_3 O 0.6440(3) 0.6216(2) 0.82459(19)
O37_3 O 0.2895(2) 0.8629(3) 0.66488(19)
O39_2 O 0.1711(2) 0.8260(3) 0.71853(19)
O31_6 O 0.6074(3) 0.2063(2) 0.03601(19)
O40_6 O 0.5072(3) 0.1854(3) 0.0359(2)
O27_6 O 0.3795(3) 0.8762(2) 0.03712(18)
O30_6 O 0.4804(3) 0.8981(2) 0.0353(2)
Cu1_5 Cu 0.20066(6) 0.44325(6) 0.000000
Cu8_5 Cu 0.10855(6) 0.42807(6) 0.000000
O31_7 O 0.2063(2) 0.3926(3) 0.03601(19)
O40_7 O 0.1854(3) 0.4928(3) 0.0359(2)
Cu1_6 Cu 0.20066(6) 0.44325(6) 1.000000
O1_4 O 0.0579(2) 0.1798(3) 0.67547(19)
O2_4 O 0.0905(2) 0.2324(3) 0.71620(18)
O3_4 O 0.1238(2) 0.3795(3) 0.96288(18)
O5_4 O 0.2802(2) 0.2729(3) 0.83086(19)
O7_4 O 0.2063(2) 0.3926(3) 0.96399(19)
C3_4 C 0.2213(4) 0.3337(4) 0.9057(3)
H1_4 H 0.249589 0.345726 0.917514
C4_4 C 0.0552(4) 0.2064(4) 0.7025(3)
C6_4 C 0.1732(4) 0.3425(4) 0.9188(3)
C9_4 C 0.1680(4) 0.3740(4) 0.9509(3)
C10_4 C 0.2786(4) 0.2985(4) 0.8586(3)
C12_4 C 0.2266(4) 0.3067(4) 0.8747(3)
N2_4 N 0.0313(3) 0.3337(4) 0.8701(3)
N4_4 N 0.0214(3) 0.2782(4) 0.8207(3)
C15_4 C 0.0046(4) 0.2096(4) 0.7205(3)
N5_4 N 0.0964(3) 0.2840(5) 0.8484(3)
H5_4 H 0.103712 0.260217 0.833893
C16_4 C 0.1849(4) 0.2910(4) 0.8566(3)
H6_4 H 0.188796 0.274135 0.835232
H8_4 H 0.026812 0.255247 0.759545
C20_4 C 0.1307(4) 0.3265(5) 0.9003(3)
H11_4 H 0.098466 0.333610 0.908672
C23_4 C 0.0469(4) 0.2996(5) 0.8470(4)
C24_4 C 0.1372(4) 0.3000(5) 0.8695(3)
O16_4 O 0.2604(2) 0.5993(3) 0.87460(19)
O18_4 O 0.1019(2) 0.4804(3) 0.9647(2)
O21_4 O 0.1216(2) 0.8560(3) 0.67541(19)
O22_4 O 0.2105(2) 0.6371(3) 0.83512(19)
O24_4 O 0.1854(3) 0.4928(3) 0.9641(2)
C28_4 C 0.2180(3) 0.6113(3) 0.8628(3)
C29_4 C 0.1291(3) 0.8330(3) 0.7041(3)
C32_4 C 0.0833(4) 0.8098(4) 0.7206(3)
C34_4 C 0.1779(4) 0.5576(4) 0.9085(3)
H14_4 H 0.209486 0.543976 0.913670
C35_4 C 0.1400(4) 0.5015(4) 0.9538(3)
C38_4 C 0.1728(3) 0.5941(4) 0.8827(3)
N7_4 N 0.0488(3) 0.6732(4) 0.8415(3)
C40_4 C 0.0359(3) 0.8139(4) 0.7052(3)
H15_4 H 0.031716 0.832589 0.684656
N9_4 N 0.0579(3) 0.7254(5) 0.7949(3)
H16_4 H 0.089037 0.716815 0.797569
C41_4 C 0.1358(4) 0.5418(4) 0.9264(3)
C44_4 C 0.0890(4) 0.7803(5) 0.7504(3)
H19_4 H 0.120781 0.777076 0.760523
C45_4 C 0.0010(4) 0.7611(4) 0.7499(3)
N12_4 N 0.0352(4) 0.6198(5) 0.8884(3)
H21_4 H 0.012307 0.607979 0.902252
C46_4 C 0.0891(4) 0.5616(5) 0.9189(3)
H22_4 H 0.060728 0.549594 0.930675
C48_4 C 0.0484(4) 0.7556(5) 0.7653(3)
C49_4 C 0.1259(4) 0.6139(5) 0.8748(3)
H24_4 H 0.122589 0.637234 0.856637
C52_4 C 0.0839(4) 0.5992(5) 0.8939(3)
C53_4 C 0.0182(5) 0.6547(6) 0.8652(4)
C54_4 C 0.0265(4) 0.7077(6) 0.8199(4)
Cu8_6 Cu 0.10855(6) 0.42807(6) 1.000000
O26_4 O 0.3202(3) 0.5579(2) 0.82453(19)
O28_4 O 0.2198(2) 0.2271(3) 0.66914(19)
O35_4 O 0.3784(2) 0.6440(3) 0.82459(19)
O37_4 O 0.1371(3) 0.2895(2) 0.66488(19)
Cu2_5 Cu 0.89145(6) 0.57193(6) 0.000000
Cu7_5 Cu 0.79934(6) 0.55675(6) 0.000000
O27_7 O 0.8762(2) 0.6205(3) 0.03712(18)
O30_7 O 0.8981(2) 0.5196(3) 0.0353(2)
Cu2_6 Cu 0.89145(6) 0.57193(6) 1.000000
O4_4 O 0.7396(2) 0.4007(3) 0.87460(19)
O6_4 O 0.8981(2) 0.5196(3) 0.9647(2)
O9_4 O 0.8784(2) 0.1440(3) 0.67541(19)
O10_4 O 0.7895(2) 0.3629(3) 0.83512(19)
O12_4 O 0.8146(3) 0.5072(3) 0.9641(2)
C1_4 C 0.7820(3) 0.3887(3) 0.8628(3)
C2_4 C 0.8709(3) 0.1670(3) 0.7041(3)
C5_4 C 0.9167(4) 0.1902(4) 0.7206(3)
C7_4 C 0.8221(4) 0.4424(4) 0.9085(3)
H2_4 H 0.790514 0.456024 0.913670
C8_4 C 0.8600(4) 0.4985(4) 0.9538(3)
C11_4 C 0.8272(3) 0.4059(4) 0.8827(3)
N1_4 N 0.9512(3) 0.3268(4) 0.8415(3)
C13_4 C 0.9641(3) 0.1861(4) 0.7052(3)
H3_4 H 0.968284 0.167411 0.684656
N3_4 N 0.9421(3) 0.2746(5) 0.7949(3)
H4_4 H 0.910963 0.283185 0.797569
C14_4 C 0.8642(4) 0.4582(4) 0.9264(3)
C17_4 C 0.9110(4) 0.2197(5) 0.7504(3)
H7_4 H 0.879219 0.222924 0.760523
C18_4 C 0.9990(4) 0.2389(4) 0.7499(3)
N6_4 N 0.9648(4) 0.3802(5) 0.8884(3)
H9_4 H 0.987693 0.392021 0.902252
C19_4 C 0.9109(4) 0.4384(5) 0.9189(3)
H10_4 H 0.939272 0.450406 0.930675
C21_4 C 0.9516(4) 0.2444(5) 0.7653(3)
C22_4 C 0.8741(4) 0.3861(5) 0.8748(3)
H12_4 H 0.877411 0.362766 0.856637
C25_4 C 0.9161(4) 0.4008(5) 0.8939(3)
C26_4 C 0.9818(5) 0.3453(6) 0.8652(4)
C27_4 C 0.9735(4) 0.2923(6) 0.8199(4)
O13_4 O 0.9421(2) 0.8202(3) 0.67547(19)
O14_4 O 0.9095(2) 0.7676(3) 0.71620(18)
O15_4 O 0.8762(2) 0.6205(3) 0.96288(18)
O17_4 O 0.7198(2) 0.7271(3) 0.83086(19)
O19_4 O 0.7937(2) 0.6074(3) 0.96399(19)
C30_4 C 0.7787(4) 0.6663(4) 0.9057(3)
H13_4 H 0.750411 0.654274 0.917514
C31_4 C 0.9448(4) 0.7936(4) 0.7025(3)
C33_4 C 0.8268(4) 0.6575(4) 0.9188(3)
C36_4 C 0.8320(4) 0.6260(4) 0.9509(3)
C37_4 C 0.7214(4) 0.7015(4) 0.8586(3)
C39_4 C 0.7734(4) 0.6933(4) 0.8747(3)
N8_4 N 0.9687(3) 0.6663(4) 0.8701(3)
N10_4 N 0.9786(3) 0.7218(4) 0.8207(3)
C42_4 C 0.9954(4) 0.7904(4) 0.7205(3)
N11_4 N 0.9036(3) 0.7160(5) 0.8484(3)
H17_4 H 0.896288 0.739783 0.833893
C43_4 C 0.8151(4) 0.7090(4) 0.8566(3)
H18_4 H 0.811204 0.725865 0.835232
H20_4 H 0.973188 0.744753 0.759545
C47_4 C 0.8693(4) 0.6735(5) 0.9003(3)
H23_4 H 0.901534 0.666390 0.908672
C50_4 C 0.9531(4) 0.7004(5) 0.8470(4)
C51_4 C 0.8628(4) 0.7000(5) 0.8695(3)
Cu7_6 Cu 0.79934(6) 0.55675(6) 1.000000
O25_4 O 0.6798(3) 0.4421(2) 0.82453(19)
O29_4 O 0.7802(2) 0.7729(3) 0.66914(19)
O34_4 O 0.6216(2) 0.3560(3) 0.82459(19)
O36_4 O 0.8629(3) 0.7105(2) 0.66488(19)
O27_8 O 0.1238(2) 0.3795(3) 0.03712(18)
O30_8 O 0.1019(2) 0.4804(3) 0.0353(2)
O31_8 O 0.7937(2) 0.6074(3) 0.03601(19)
O40_8 O 0.8146(3) 0.5072(3) 0.0359(2)
O2_5 O 0.2676(3) 0.5905(2) 0.78380(18)
O4_5 O 0.0993(3) 0.2396(2) 0.62540(19)
O8_3 O 0.1812(3) 0.8152(2) 0.62567(18)
O11_3 O 0.3260(3) 0.3289(2) 0.78147(19)
C1_5 C 0.1113(3) 0.2820(3) 0.6372(3)
C2_5 C 0.3330(3) 0.3709(3) 0.7959(3)
C3_5 C 0.1663(4) 0.7213(4) 0.5943(3)
H1_5 H 0.154274 0.749589 0.582486
C4_5 C 0.2936(4) 0.5552(4) 0.7975(3)
C5_5 C 0.3098(4) 0.4167(4) 0.7794(3)
C6_5 C 0.1575(4) 0.6732(4) 0.5812(3)
C7_5 C 0.0576(4) 0.3221(4) 0.5915(3)
H2_5 H 0.043976 0.290514 0.586330
C8_5 C 0.0015(4) 0.3600(4) 0.5462(3)
C9_5 C 0.1260(4) 0.6680(4) 0.5491(3)
C10_5 C 0.2015(4) 0.7786(4) 0.6414(3)
C11_5 C 0.0941(4) 0.3272(3) 0.6173(3)
C12_5 C 0.1933(4) 0.7266(4) 0.6253(3)
N1_5 N 0.1732(4) 0.4512(3) 0.6585(3)
N2_5 N 0.1663(4) 0.5313(3) 0.6299(3)
C13_5 C 0.3139(4) 0.4641(3) 0.7948(3)
H3_5 H 0.332589 0.468284 0.815344
N3_5 N 0.2254(5) 0.4421(3) 0.7051(3)
H4_5 H 0.216815 0.410963 0.702431
C14_5 C 0.0418(4) 0.3642(4) 0.5736(3)
N4_5 N 0.2218(4) 0.5214(3) 0.6793(3)
C15_5 C 0.2904(4) 0.5046(4) 0.7795(3)
N5_5 N 0.2160(5) 0.5964(3) 0.6516(3)
H5_5 H 0.239783 0.603712 0.666107
C16_5 C 0.2090(4) 0.6849(4) 0.6434(3)
H6_5 H 0.225865 0.688796 0.664768
C17_5 C 0.2803(5) 0.4110(4) 0.7496(3)
H7_5 H 0.277076 0.379219 0.739477
C18_5 C 0.2611(4) 0.4990(4) 0.7501(3)
H8_5 H 0.244753 0.526812 0.740455
N6_5 N 0.1198(5) 0.4648(4) 0.6116(3)
H9_5 H 0.107979 0.487693 0.597748
C19_5 C 0.0616(5) 0.4109(4) 0.5811(3)
H10_5 H 0.049594 0.439272 0.569325
C20_5 C 0.1735(5) 0.6307(4) 0.5997(3)
H11_5 H 0.166390 0.598466 0.591328
C21_5 C 0.2556(5) 0.4516(4) 0.7347(3)
C22_5 C 0.1139(5) 0.3741(4) 0.6252(3)
H12_5 H 0.137234 0.377411 0.643363
C23_5 C 0.2004(5) 0.5469(4) 0.6530(4)
C24_5 C 0.2000(5) 0.6372(4) 0.6305(3)
C25_5 C 0.0992(5) 0.4161(4) 0.6061(3)
C26_5 C 0.1547(6) 0.4818(5) 0.6348(4)
C27_5 C 0.2077(6) 0.4735(4) 0.6801(4)
O32_3 O 0.1848(2) 0.1812(3) 0.62567(18)
O39_3 O 0.3289(2) 0.6740(3) 0.78147(19)
O14_5 O 0.7324(3) 0.4095(2) 0.78380(18)
O16_5 O 0.9007(3) 0.7604(2) 0.62540(19)
O20_3 O 0.8188(3) 0.1848(2) 0.62567(18)
O23_3 O 0.6740(3) 0.6711(2) 0.78147(19)
C28_5 C 0.8887(3) 0.7180(3) 0.6372(3)
C29_5 C 0.6670(3) 0.6291(3) 0.7959(3)
C30_5 C 0.8337(4) 0.2787(4) 0.5943(3)
H13_5 H 0.845726 0.250411 0.582486
C31_5 C 0.7064(4) 0.4448(4) 0.7975(3)
C32_5 C 0.6902(4) 0.5833(4) 0.7794(3)
C33_5 C 0.8425(4) 0.3268(4) 0.5812(3)
C34_5 C 0.9424(4) 0.6779(4) 0.5915(3)
H14_5 H 0.956024 0.709486 0.586330
C35_5 C 0.9985(4) 0.6400(4) 0.5462(3)
C36_5 C 0.8740(4) 0.3320(4) 0.5491(3)
C37_5 C 0.7985(4) 0.2214(4) 0.6414(3)
C38_5 C 0.9059(4) 0.6728(3) 0.6173(3)
C39_5 C 0.8067(4) 0.2734(4) 0.6253(3)
N7_5 N 0.8268(4) 0.5488(3) 0.6585(3)
N8_5 N 0.8337(4) 0.4687(3) 0.6299(3)
C40_5 C 0.6861(4) 0.5359(3) 0.7948(3)
H15_5 H 0.667411 0.531716 0.815344
N9_5 N 0.7746(5) 0.5579(3) 0.7051(3)
H16_5 H 0.783185 0.589037 0.702431
C41_5 C 0.9582(4) 0.6358(4) 0.5736(3)
N10_5 N 0.7782(4) 0.4786(3) 0.6793(3)
C42_5 C 0.7096(4) 0.4954(4) 0.7795(3)
N11_5 N 0.7840(5) 0.4036(3) 0.6516(3)
H17_5 H 0.760217 0.396288 0.666107
C43_5 C 0.7910(4) 0.3151(4) 0.6434(3)
H18_5 H 0.774135 0.311204 0.664768
C44_5 C 0.7197(5) 0.5890(4) 0.7496(3)
H19_5 H 0.722924 0.620781 0.739477
C45_5 C 0.7389(4) 0.5010(4) 0.7501(3)
H20_5 H 0.755247 0.473188 0.740455
N12_5 N 0.8802(5) 0.5352(4) 0.6116(3)
H21_5 H 0.892021 0.512307 0.597748
C46_5 C 0.9384(5) 0.5891(4) 0.5811(3)
H22_5 H 0.950406 0.560728 0.569325
C47_5 C 0.8265(5) 0.3693(4) 0.5997(3)
H23_5 H 0.833610 0.401534 0.591328
C48_5 C 0.7444(5) 0.5484(4) 0.7347(3)
C49_5 C 0.8861(5) 0.6259(4) 0.6252(3)
H24_5 H 0.862766 0.622589 0.643363
C50_5 C 0.7996(5) 0.4531(4) 0.6530(4)
C51_5 C 0.8000(5) 0.3628(4) 0.6305(3)
C52_5 C 0.9008(5) 0.5839(4) 0.6061(3)
C53_5 C 0.8453(6) 0.5182(5) 0.6348(4)
C54_5 C 0.7923(6) 0.5265(4) 0.6801(4)
O33_3 O 0.8152(2) 0.8188(3) 0.62567(18)
O38_3 O 0.6711(2) 0.3260(3) 0.78147(19)
O2_6 O 0.4095(2) 0.2676(3) 0.78380(18)
O4_6 O 0.7604(2) 0.0993(3) 0.62540(19)
C1_6 C 0.7180(3) 0.1113(3) 0.6372(3)
C2_6 C 0.6291(3) 0.3330(3) 0.7959(3)
C3_6 C 0.2787(4) 0.1663(4) 0.5943(3)
H1_6 H 0.250411 0.154274 0.582486
C4_6 C 0.4448(4) 0.2936(4) 0.7975(3)
C5_6 C 0.5833(4) 0.3098(4) 0.7794(3)
C6_6 C 0.3268(4) 0.1575(4) 0.5812(3)
C7_6 C 0.6779(4) 0.0576(4) 0.5915(3)
H2_6 H 0.709486 0.043976 0.586330
C8_6 C 0.6400(4) 0.0015(4) 0.5462(3)
C9_6 C 0.3320(4) 0.1260(4) 0.5491(3)
C10_6 C 0.2214(4) 0.2015(4) 0.6414(3)
C11_6 C 0.6728(3) 0.0941(4) 0.6173(3)
C12_6 C 0.2734(4) 0.1933(4) 0.6253(3)
N1_6 N 0.5488(3) 0.1732(4) 0.6585(3)
N2_6 N 0.4687(3) 0.1663(4) 0.6299(3)
C13_6 C 0.5359(3) 0.3139(4) 0.7948(3)
H3_6 H 0.531716 0.332589 0.815344
N3_6 N 0.5579(3) 0.2254(5) 0.7051(3)
H4_6 H 0.589037 0.216815 0.702431
C14_6 C 0.6358(4) 0.0418(4) 0.5736(3)
N4_6 N 0.4786(3) 0.2218(4) 0.6793(3)
C15_6 C 0.4954(4) 0.2904(4) 0.7795(3)
N5_6 N 0.4036(3) 0.2160(5) 0.6516(3)
H5_6 H 0.396288 0.239783 0.666107
C16_6 C 0.3151(4) 0.2090(4) 0.6434(3)
H6_6 H 0.311204 0.225865 0.664768
C17_6 C 0.5890(4) 0.2803(5) 0.7496(3)
H7_6 H 0.620781 0.277076 0.739477
C18_6 C 0.5010(4) 0.2611(4) 0.7501(3)
H8_6 H 0.473188 0.244753 0.740455
N6_6 N 0.5352(4) 0.1198(5) 0.6116(3)
H9_6 H 0.512307 0.107979 0.597748
C19_6 C 0.5891(4) 0.0616(5) 0.5811(3)
H10_6 H 0.560728 0.049594 0.569325
C20_6 C 0.3693(4) 0.1735(5) 0.5997(3)
H11_6 H 0.401534 0.166390 0.591328
C21_6 C 0.5484(4) 0.2556(5) 0.7347(3)
C22_6 C 0.6259(4) 0.1139(5) 0.6252(3)
H12_6 H 0.622589 0.137234 0.643363
C23_6 C 0.4531(4) 0.2004(5) 0.6530(4)
C24_6 C 0.3628(4) 0.2000(5) 0.6305(3)
C25_6 C 0.5839(4) 0.0992(5) 0.6061(3)
C26_6 C 0.5182(5) 0.1547(6) 0.6348(4)
C27_6 C 0.5265(4) 0.2077(6) 0.6801(4)
O14_6 O 0.5905(2) 0.7324(3) 0.78380(18)
O16_6 O 0.2396(2) 0.9007(3) 0.62540(19)
C28_6 C 0.2820(3) 0.8887(3) 0.6372(3)
C29_6 C 0.3709(3) 0.6670(3) 0.7959(3)
C30_6 C 0.7213(4) 0.8337(4) 0.5943(3)
H13_6 H 0.749589 0.845726 0.582486
C31_6 C 0.5552(4) 0.7064(4) 0.7975(3)
C32_6 C 0.4167(4) 0.6902(4) 0.7794(3)
C33_6 C 0.6732(4) 0.8425(4) 0.5812(3)
C34_6 C 0.3221(4) 0.9424(4) 0.5915(3)
H14_6 H 0.290514 0.956024 0.586330
C35_6 C 0.3600(4) 0.9985(4) 0.5462(3)
C36_6 C 0.6680(4) 0.8740(4) 0.5491(3)
C37_6 C 0.7786(4) 0.7985(4) 0.6414(3)
C38_6 C 0.3272(3) 0.9059(4) 0.6173(3)
C39_6 C 0.7266(4) 0.8067(4) 0.6253(3)
N7_6 N 0.4512(3) 0.8268(4) 0.6585(3)
N8_6 N 0.5313(3) 0.8337(4) 0.6299(3)
C40_6 C 0.4641(3) 0.6861(4) 0.7948(3)
H15_6 H 0.468284 0.667411 0.815344
N9_6 N 0.4421(3) 0.7746(5) 0.7051(3)
H16_6 H 0.410963 0.783185 0.702431
C41_6 C 0.3642(4) 0.9582(4) 0.5736(3)
N10_6 N 0.5214(3) 0.7782(4) 0.6793(3)
C42_6 C 0.5046(4) 0.7096(4) 0.7795(3)
N11_6 N 0.5964(3) 0.7840(5) 0.6516(3)
H17_6 H 0.603712 0.760217 0.666107
C43_6 C 0.6849(4) 0.7910(4) 0.6434(3)
H18_6 H 0.688796 0.774135 0.664768
C44_6 C 0.4110(4) 0.7197(5) 0.7496(3)
H19_6 H 0.379219 0.722924 0.739477
C45_6 C 0.4990(4) 0.7389(4) 0.7501(3)
H20_6 H 0.526812 0.755247 0.740455
N12_6 N 0.4648(4) 0.8802(5) 0.6116(3)
H21_6 H 0.487693 0.892021 0.597748
C46_6 C 0.4109(4) 0.9384(5) 0.5811(3)
H22_6 H 0.439272 0.950406 0.569325
C47_6 C 0.6307(4) 0.8265(5) 0.5997(3)
H23_6 H 0.598466 0.833610 0.591328
C48_6 C 0.4516(4) 0.7444(5) 0.7347(3)
C49_6 C 0.3741(4) 0.8861(5) 0.6252(3)
H24_6 H 0.377411 0.862766 0.643363
C50_6 C 0.5469(4) 0.7996(5) 0.6530(4)
C51_6 C 0.6372(4) 0.8000(5) 0.6305(3)
C52_6 C 0.4161(4) 0.9008(5) 0.6061(3)
C53_6 C 0.4818(5) 0.8453(6) 0.6348(4)
C54_6 C 0.4735(4) 0.7923(6) 0.6801(4)
O2_7 O 0.7676(3) 0.0905(2) 0.28380(18)
O8_4 O 0.6812(3) 0.3152(2) 0.12567(18)
C3_7 C 0.6663(4) 0.2213(4) 0.0943(3)
H1_7 H 0.654274 0.249589 0.082486
C4_7 C 0.7936(4) 0.0552(4) 0.2975(3)
C6_7 C 0.6575(4) 0.1732(4) 0.0812(3)
C9_7 C 0.6260(4) 0.1680(4) 0.0491(3)
C10_7 C 0.7015(4) 0.2786(4) 0.1414(3)
C12_7 C 0.6933(4) 0.2266(4) 0.1253(3)
N2_7 N 0.6663(4) 0.0313(3) 0.1299(3)
N4_7 N 0.7218(4) 0.0214(3) 0.1793(3)
C15_7 C 0.7904(4) 0.0046(4) 0.2795(3)
N5_7 N 0.7160(5) 0.0964(3) 0.1516(3)
H5_7 H 0.739783 0.103712 0.166107
C16_7 C 0.7090(4) 0.1849(4) 0.1434(3)
H6_7 H 0.725865 0.188796 0.164768
H8_7 H 0.744753 0.026812 0.240455
C20_7 C 0.6735(5) 0.1307(4) 0.0997(3)
H11_7 H 0.666390 0.098466 0.091328
C23_7 C 0.7004(5) 0.0469(4) 0.1530(4)
C24_7 C 0.7000(5) 0.1372(4) 0.1305(3)
O16_7 O 0.4007(3) 0.2604(2) 0.12540(19)
O23_4 O 0.1740(3) 0.1711(2) 0.28147(19)
C28_7 C 0.3887(3) 0.2180(3) 0.1372(3)
C29_7 C 0.1670(3) 0.1291(3) 0.2959(3)
C32_7 C 0.1902(4) 0.0833(4) 0.2794(3)
C34_7 C 0.4424(4) 0.1779(4) 0.0915(3)
H14_7 H 0.456024 0.209486 0.086330
C35_7 C 0.4985(4) 0.1400(4) 0.0462(3)
C38_7 C 0.4059(4) 0.1728(3) 0.1173(3)
N7_7 N 0.3268(4) 0.0488(3) 0.1585(3)
C40_7 C 0.1861(4) 0.0359(3) 0.2948(3)
H15_7 H 0.167411 0.031716 0.315344
N9_7 N 0.2746(5) 0.0579(3) 0.2051(3)
H16_7 H 0.283185 0.089037 0.202431
C41_7 C 0.4582(4) 0.1358(4) 0.0736(3)
C44_7 C 0.2197(5) 0.0890(4) 0.2496(3)
H19_7 H 0.222924 0.120781 0.239477
C45_7 C 0.2389(4) 0.0010(4) 0.2501(3)
N12_7 N 0.3802(5) 0.0352(4) 0.1116(3)
H21_7 H 0.392021 0.012307 0.097748
C46_7 C 0.4384(5) 0.0891(4) 0.0811(3)
H22_7 H 0.450406 0.060728 0.069325
C48_7 C 0.2444(5) 0.0484(4) 0.2347(3)
C49_7 C 0.3861(5) 0.1259(4) 0.1252(3)
H24_7 H 0.362766 0.122589 0.143363
C52_7 C 0.4008(5) 0.0839(4) 0.1061(3)
C53_7 C 0.3453(6) 0.0182(5) 0.1348(4)
C54_7 C 0.2923(6) 0.0265(4) 0.1801(4)
O33_4 O 0.3152(2) 0.3188(3) 0.12567(18)
O39_4 O 0.8289(2) 0.1740(3) 0.28147(19)
O4_7 O 0.5993(3) 0.7396(2) 0.12540(19)
O11_4 O 0.8260(3) 0.8289(2) 0.28147(19)
C1_7 C 0.6113(3) 0.7820(3) 0.1372(3)
C2_7 C 0.8330(3) 0.8709(3) 0.2959(3)
C5_7 C 0.8098(4) 0.9167(4) 0.2794(3)
C7_7 C 0.5576(4) 0.8221(4) 0.0915(3)
H2_7 H 0.543976 0.790514 0.086330
C8_7 C 0.5015(4) 0.8600(4) 0.0462(3)
C11_7 C 0.5941(4) 0.8272(3) 0.1173(3)
N1_7 N 0.6732(4) 0.9512(3) 0.1585(3)
C13_7 C 0.8139(4) 0.9641(3) 0.2948(3)
H3_7 H 0.832589 0.968284 0.315344
N3_7 N 0.7254(5) 0.9421(3) 0.2051(3)
H4_7 H 0.716815 0.910963 0.202431
C14_7 C 0.5418(4) 0.8642(4) 0.0736(3)
C17_7 C 0.7803(5) 0.9110(4) 0.2496(3)
H7_7 H 0.777076 0.879219 0.239477
C18_7 C 0.7611(4) 0.9990(4) 0.2501(3)
N6_7 N 0.6198(5) 0.9648(4) 0.1116(3)
H9_7 H 0.607979 0.987693 0.097748
C19_7 C 0.5616(5) 0.9109(4) 0.0811(3)
H10_7 H 0.549594 0.939272 0.069325
C21_7 C 0.7556(5) 0.9516(4) 0.2347(3)
C22_7 C 0.6139(5) 0.8741(4) 0.1252(3)
H12_7 H 0.637234 0.877411 0.143363
C25_7 C 0.5992(5) 0.9161(4) 0.1061(3)
C26_7 C 0.6547(6) 0.9818(5) 0.1348(4)
C27_7 C 0.7077(6) 0.9735(4) 0.1801(4)
O14_7 O 0.2324(3) 0.9095(2) 0.28380(18)
O20_4 O 0.3188(3) 0.6848(2) 0.12567(18)
C30_7 C 0.3337(4) 0.7787(4) 0.0943(3)
H13_7 H 0.345726 0.750411 0.082486
C31_7 C 0.2064(4) 0.9448(4) 0.2975(3)
C33_7 C 0.3425(4) 0.8268(4) 0.0812(3)
C36_7 C 0.3740(4) 0.8320(4) 0.0491(3)
C37_7 C 0.2985(4) 0.7214(4) 0.1414(3)
C39_7 C 0.3067(4) 0.7734(4) 0.1253(3)
N8_7 N 0.3337(4) 0.9687(3) 0.1299(3)
N10_7 N 0.2782(4) 0.9786(3) 0.1793(3)
C42_7 C 0.2096(4) 0.9954(4) 0.2795(3)
N11_7 N 0.2840(5) 0.9036(3) 0.1516(3)
H17_7 H 0.260217 0.896288 0.166107
C43_7 C 0.2910(4) 0.8151(4) 0.1434(3)
H18_7 H 0.274135 0.811204 0.164768
H20_7 H 0.255247 0.973188 0.240455
C47_7 C 0.3265(5) 0.8693(4) 0.0997(3)
H23_7 H 0.333610 0.901534 0.091328
C50_7 C 0.2996(5) 0.9531(4) 0.1530(4)
C51_7 C 0.3000(5) 0.8628(4) 0.1305(3)
O32_4 O 0.6848(2) 0.6812(3) 0.12567(18)
O38_4 O 0.1711(2) 0.8260(3) 0.28147(19)
O4_8 O 0.2604(2) 0.5993(3) 0.12540(19)
C1_8 C 0.2180(3) 0.6113(3) 0.1372(3)
C2_8 C 0.1291(3) 0.8330(3) 0.2959(3)
C5_8 C 0.0833(4) 0.8098(4) 0.2794(3)
C7_8 C 0.1779(4) 0.5576(4) 0.0915(3)
H2_8 H 0.209486 0.543976 0.086330
C8_8 C 0.1400(4) 0.5015(4) 0.0462(3)
C11_8 C 0.1728(3) 0.5941(4) 0.1173(3)
N1_8 N 0.0488(3) 0.6732(4) 0.1585(3)
C13_8 C 0.0359(3) 0.8139(4) 0.2948(3)
H3_8 H 0.031716 0.832589 0.315344
N3_8 N 0.0579(3) 0.7254(5) 0.2051(3)
H4_8 H 0.089037 0.716815 0.202431
C14_8 C 0.1358(4) 0.5418(4) 0.0736(3)
C17_8 C 0.0890(4) 0.7803(5) 0.2496(3)
H7_8 H 0.120781 0.777076 0.239477
C18_8 C 0.0010(4) 0.7611(4) 0.2501(3)
N6_8 N 0.0352(4) 0.6198(5) 0.1116(3)
H9_8 H 0.012307 0.607979 0.097748
C19_8 C 0.0891(4) 0.5616(5) 0.0811(3)
H10_8 H 0.060728 0.549594 0.069325
C21_8 C 0.0484(4) 0.7556(5) 0.2347(3)
C22_8 C 0.1259(4) 0.6139(5) 0.1252(3)
H12_8 H 0.122589 0.637234 0.143363
C25_8 C 0.0839(4) 0.5992(5) 0.1061(3)
C26_8 C 0.0182(5) 0.6547(6) 0.1348(4)
C27_8 C 0.0265(4) 0.7077(6) 0.1801(4)
O14_8 O 0.0905(2) 0.2324(3) 0.28380(18)
C30_8 C 0.2213(4) 0.3337(4) 0.0943(3)
H13_8 H 0.249589 0.345726 0.082486
C31_8 C 0.0552(4) 0.2064(4) 0.2975(3)
C33_8 C 0.1732(4) 0.3425(4) 0.0812(3)
C36_8 C 0.1680(4) 0.3740(4) 0.0491(3)
C37_8 C 0.2786(4) 0.2985(4) 0.1414(3)
C39_8 C 0.2266(4) 0.3067(4) 0.1253(3)
N8_8 N 0.0313(3) 0.3337(4) 0.1299(3)
N10_8 N 0.0214(3) 0.2782(4) 0.1793(3)
C42_8 C 0.0046(4) 0.2096(4) 0.2795(3)
N11_8 N 0.0964(3) 0.2840(5) 0.1516(3)
H17_8 H 0.103712 0.260217 0.166107
C43_8 C 0.1849(4) 0.2910(4) 0.1434(3)
H18_8 H 0.188796 0.274135 0.164768
H20_8 H 0.026812 0.255247 0.240455
C47_8 C 0.1307(4) 0.3265(5) 0.0997(3)
H23_8 H 0.098466 0.333610 0.091328
C50_8 C 0.0469(4) 0.2996(5) 0.1530(4)
C51_8 C 0.1372(4) 0.3000(5) 0.1305(3)
O2_8 O 0.9095(2) 0.7676(3) 0.28380(18)
C3_8 C 0.7787(4) 0.6663(4) 0.0943(3)
H1_8 H 0.750411 0.654274 0.082486
C4_8 C 0.9448(4) 0.7936(4) 0.2975(3)
C6_8 C 0.8268(4) 0.6575(4) 0.0812(3)
C9_8 C 0.8320(4) 0.6260(4) 0.0491(3)
C10_8 C 0.7214(4) 0.7015(4) 0.1414(3)
C12_8 C 0.7734(4) 0.6933(4) 0.1253(3)
N2_8 N 0.9687(3) 0.6663(4) 0.1299(3)
N4_8 N 0.9786(3) 0.7218(4) 0.1793(3)
C15_8 C 0.9954(4) 0.7904(4) 0.2795(3)
N5_8 N 0.9036(3) 0.7160(5) 0.1516(3)
H5_8 H 0.896288 0.739783 0.166107
C16_8 C 0.8151(4) 0.7090(4) 0.1434(3)
H6_8 H 0.811204 0.725865 0.164768
H8_8 H 0.973188 0.744753 0.240455
C20_8 C 0.8693(4) 0.6735(5) 0.0997(3)
H11_8 H 0.901534 0.666390 0.091328
C23_8 C 0.9531(4) 0.7004(5) 0.1530(4)
C24_8 C 0.8628(4) 0.7000(5) 0.1305(3)
O16_8 O 0.7396(2) 0.4007(3) 0.12540(19)
C28_8 C 0.7820(3) 0.3887(3) 0.1372(3)
C29_8 C 0.8709(3) 0.1670(3) 0.2959(3)
C32_8 C 0.9167(4) 0.1902(4) 0.2794(3)
C34_8 C 0.8221(4) 0.4424(4) 0.0915(3)
H14_8 H 0.790514 0.456024 0.086330
C35_8 C 0.8600(4) 0.4985(4) 0.0462(3)
C38_8 C 0.8272(3) 0.4059(4) 0.1173(3)
N7_8 N 0.9512(3) 0.3268(4) 0.1585(3)
C40_8 C 0.9641(3) 0.1861(4) 0.2948(3)
H15_8 H 0.968284 0.167411 0.315344
N9_8 N 0.9421(3) 0.2746(5) 0.2051(3)
H16_8 H 0.910963 0.283185 0.202431
C41_8 C 0.8642(4) 0.4582(4) 0.0736(3)
C44_8 C 0.9110(4) 0.2197(5) 0.2496(3)
H19_8 H 0.879219 0.222924 0.239477
C45_8 C 0.9990(4) 0.2389(4) 0.2501(3)
N12_8 N 0.9648(4) 0.3802(5) 0.1116(3)
H21_8 H 0.987693 0.392021 0.097748
C46_8 C 0.9109(4) 0.4384(5) 0.0811(3)
H22_8 H 0.939272 0.450406 0.069325
C48_8 C 0.9516(4) 0.2444(5) 0.2347(3)
C49_8 C 0.8741(4) 0.3861(5) 0.1252(3)
H24_8 H 0.877411 0.362766 0.143363
C52_8 C 0.9161(4) 0.4008(5) 0.1061(3)
C53_8 C 0.9818(5) 0.3453(6) 0.1348(4)
C54_8 C 0.9735(4) 0.2923(6) 0.1801(4)
loop_
_geom_bond_atom_site_label_1
_geom_bond_atom_site_label_2
_geom_bond_site_symmetry_1
_geom_bond_site_symmetry_2
Cu2 O6 1_555 1_555
Cu5 O16 1_555 1_555
Cu6 O14 1_555 1_555
O13 C31 1_555 1_555
O14 C31 1_555 1_555
O15 Cu2 1_555 1_555
O16 C28 1_555 1_555
O17 C37 1_555 1_555
O19 C36 1_555 1_555
O20 C37 1_555 1_555
O21 C29 1_555 1_555
O22 C28 1_555 1_555
O23 C29 1_555 1_555
C28 C38 1_555 1_555
C29 C32 1_555 1_555
C30 H13 1_555 1_555
C31 C42 1_555 1_555
C32 C40 1_555 1_555
C33 C30 1_555 1_555
C34 H14 1_555 1_555
C36 O15 1_555 1_555
C37 C39 1_555 1_555
C38 C34 1_555 1_555
C39 C30 1_555 1_555
N7 C53 1_555 1_555
N8 C50 1_555 1_555
C40 H15 1_555 1_555
N9 H16 1_555 1_555
C41 C34 1_555 1_555
N10 C50 1_555 1_555
C42 C40 1_555 1_555
N11 H17 1_555 1_555
C43 C39 1_555 1_555
H18 C43 1_555 1_555
C44 C32 1_555 1_555
H19 C44 1_555 1_555
C45 C42 1_555 1_555
H20 C45 1_555 1_555
N12 H21 1_555 1_555
C46 C41 1_555 1_555
H22 C46 1_555 1_555
C47 C33 1_555 1_555
H23 C47 1_555 1_555
C48 N9 1_555 1_555
C49 C38 1_555 1_555
H24 C49 1_555 1_555
C50 N11 1_555 1_555
C51 N11 1_555 1_555
C52 N12 1_555 1_555
C53 N8 1_555 1_555
C54 N7 1_555 1_555
Cu7 Cu2 1_555 1_555
Cu9 O20 1_555 1_555
Cu12 O21 1_555 1_555
Cu13 Cu6 1_555 1_555
Cu16 O23 1_555 1_555
Cu18 O17 1_555 1_555
Cu20 Cu5 1_555 1_555
O26 Cu5 1_555 1_555
O27 Cu2 1_555 1_555
O29 Cu6 1_555 1_555
O30 Cu2 1_555 1_555
O33 Cu5 1_555 1_555
O35 Cu5 1_555 1_555
O36 Cu6 1_555 1_555
O38 Cu6 1_555 1_555
O12 Cu7 1_555 1_555
O13 Cu13 1_555 1_555
O19 Cu7 1_555 1_555
O22 Cu20 1_555 1_555
C33 C36 1_555 1_555
C35 C41 1_555 1_555
N9 C54 1_555 1_555
N10 C54 1_555 1_555
C43 C51 1_555 1_555
C44 C48 1_555 1_555
C45 C48 1_555 1_555
N12 C53 1_555 1_555
C46 C52 1_555 1_555
C47 C51 1_555 1_555
C49 C52 1_555 1_555
Cu9 Cu18 1_555 1_555
Cu12 Cu16 1_555 1_555
Cu1 O7 1_555 1_555
Cu3 O4 1_555 1_555
Cu4 O2 1_555 1_555
O1 C4 1_555 1_555
O2 C4 1_555 1_555
O3 C9 1_555 1_555
O4 C1 1_555 1_555
O5 C10 1_555 1_555
O7 C9 1_555 1_555
O8 C10 1_555 1_555
O9 C2 1_555 1_555
O10 C1 1_555 1_555
O11 C2 1_555 1_555
C1 C11 1_555 1_555
C2 C5 1_555 1_555
C3 H1 1_555 1_555
C4 C15 1_555 1_555
C5 C13 1_555 1_555
C6 C3 1_555 1_555
C7 H2 1_555 1_555
C8 C14 1_555 1_555
C9 C6 1_555 1_555
C10 C12 1_555 1_555
C11 C7 1_555 1_555
C12 C3 1_555 1_555
N1 C26 1_555 1_555
N2 C23 1_555 1_555
C13 H3 1_555 1_555
N3 H4 1_555 1_555
C14 C7 1_555 1_555
N4 C23 1_555 1_555
C15 C13 1_555 1_555
N5 H5 1_555 1_555
C16 C12 1_555 1_555
H6 C16 1_555 1_555
C17 C5 1_555 1_555
H7 C17 1_555 1_555
C18 C15 1_555 1_555
H8 C18 1_555 1_555
N6 H9 1_555 1_555
C19 C14 1_555 1_555
H10 C19 1_555 1_555
C20 C6 1_555 1_555
H11 C20 1_555 1_555
C21 N3 1_555 1_555
C22 C11 1_555 1_555
H12 C22 1_555 1_555
C23 N5 1_555 1_555
C24 N5 1_555 1_555
C25 N6 1_555 1_555
C26 N2 1_555 1_555
C27 N1 1_555 1_555
O24 Cu1 1_555 1_555
Cu8 Cu1 1_555 1_555
Cu10 O8 1_555 1_555
Cu11 O9 1_555 1_555
Cu14 Cu4 1_555 1_555
Cu15 O11 1_555 1_555
Cu17 O5 1_555 1_555
Cu19 Cu3 1_555 1_555
O25 Cu3 1_555 1_555
O28 Cu4 1_555 1_555
O31 Cu1 1_555 1_555
O32 Cu3 1_555 1_555
O34 Cu3 1_555 1_555
O37 Cu4 1_555 1_555
O39 Cu4 1_555 1_555
O40 Cu1 1_555 1_555
O1 Cu14 1_555 1_555
O3 Cu8 1_555 1_555
O10 Cu19 1_555 1_555
N3 C27 1_555 1_555
N4 C27 1_555 1_555
C16 C24 1_555 1_555
C17 C21 1_555 1_555
C18 C21 1_555 1_555
N6 C26 1_555 1_555
C19 C25 1_555 1_555
C20 C24 1_555 1_555
C22 C25 1_555 1_555
O18 Cu8 1_555 1_555
Cu10 Cu17 1_555 1_555
Cu11 Cu15 1_555 1_555
O31_2 Cu7 1_555 1_555
O40_2 Cu7 1_555 1_555
O27_2 Cu8 1_555 1_555
O30_2 Cu8 1_555 1_555
Cu2_2 O6_2 1_555 1_555
Cu10 O16_2 1_555 1_555
Cu16 O14_2 1_555 1_555
O13_2 C31_2 1_555 1_555
O14_2 C31_2 1_555 1_555
O15_2 Cu2_2 1_555 1_555
O16_2 C28_2 1_555 1_555
O17_2 C37_2 1_555 1_555
O19_2 C36_2 1_555 1_555
O33 C37_2 1_555 1_555
O21_2 C29_2 1_555 1_555
O22_2 C28_2 1_555 1_555
O39 C29_2 1_555 1_555
C28_2 C38_2 1_555 1_555
C29_2 C32_2 1_555 1_555
C30_2 H13_2 1_555 1_555
C31_2 C42_2 1_555 1_555
C32_2 C40_2 1_555 1_555
C33_2 C30_2 1_555 1_555
C34_2 H14_2 1_555 1_555
C36_2 O15_2 1_555 1_555
C37_2 C39_2 1_555 1_555
C38_2 C34_2 1_555 1_555
C39_2 C30_2 1_555 1_555
N7_2 C53_2 1_555 1_555
N8_2 C50_2 1_555 1_555
C40_2 H15_2 1_555 1_555
N9_2 H16_2 1_555 1_555
C41_2 C34_2 1_555 1_555
N10_2 C50_2 1_555 1_555
C42_2 C40_2 1_555 1_555
N11_2 H17_2 1_555 1_555
C43_2 C39_2 1_555 1_555
H18_2 C43_2 1_555 1_555
C44_2 C32_2 1_555 1_555
H19_2 C44_2 1_555 1_555
C45_2 C42_2 1_555 1_555
H20_2 C45_2 1_555 1_555
N12_2 H21_2 1_555 1_555
C46_2 C41_2 1_555 1_555
H22_2 C46_2 1_555 1_555
C47_2 C33_2 1_555 1_555
H23_2 C47_2 1_555 1_555
C48_2 N9_2 1_555 1_555
C49_2 C38_2 1_555 1_555
H24_2 C49_2 1_555 1_555
C50_2 N11_2 1_555 1_555
C51_2 N11_2 1_555 1_555
C52_2 N12_2 1_555 1_555
C53_2 N8_2 1_555 1_555
C54_2 N7_2 1_555 1_555
Cu7_2 Cu2_2 1_555 1_555
Cu14 O21_2 1_555 1_555
Cu20 O17_2 1_555 1_555
O26_2 Cu10 1_555 1_555
O27_3 Cu2_2 1_555 1_555
O29_2 Cu16 1_555 1_555
O30_3 Cu2_2 1_555 1_555
O35_2 Cu10 1_555 1_555
O36_2 Cu16 1_555 1_555
O12_2 Cu7_2 1_555 1_555
O13_2 Cu12 1_555 1_555
O19_2 Cu7_2 1_555 1_555
O22_2 Cu17 1_555 1_555
C33_2 C36_2 1_555 1_555
C35_2 C41_2 1_555 1_555
N9_2 C54_2 1_555 1_555
N10_2 C54_2 1_555 1_555
C43_2 C51_2 1_555 1_555
C44_2 C48_2 1_555 1_555
C45_2 C48_2 1_555 1_555
N12_2 C53_2 1_555 1_555
C46_2 C52_2 1_555 1_555
C47_2 C51_2 1_555 1_555
C49_2 C52_2 1_555 1_555
Cu1_2 O7_2 1_555 1_555
Cu9 O4_2 1_555 1_555
Cu15 O2_2 1_555 1_555
O1_2 C4_2 1_555 1_555
O2_2 C4_2 1_555 1_555
O3_2 C9_2 1_555 1_555
O4_2 C1_2 1_555 1_555
O5_2 C10_2 1_555 1_555
O7_2 C9_2 1_555 1_555
O32 C10_2 1_555 1_555
O9_2 C2_2 1_555 1_555
O10_2 C1_2 1_555 1_555
O38 C2_2 1_555 1_555
C1_2 C11_2 1_555 1_555
C2_2 C5_2 1_555 1_555
C3_2 H1_2 1_555 1_555
C4_2 C15_2 1_555 1_555
C5_2 C13_2 1_555 1_555
C6_2 C3_2 1_555 1_555
C7_2 H2_2 1_555 1_555
C8_2 C14_2 1_555 1_555
C9_2 C6_2 1_555 1_555
C10_2 C12_2 1_555 1_555
C11_2 C7_2 1_555 1_555
C12_2 C3_2 1_555 1_555
N1_2 C26_2 1_555 1_555
N2_2 C23_2 1_555 1_555
C13_2 H3_2 1_555 1_555
N3_2 H4_2 1_555 1_555
C14_2 C7_2 1_555 1_555
N4_2 C23_2 1_555 1_555
C15_2 C13_2 1_555 1_555
N5_2 H5_2 1_555 1_555
C16_2 C12_2 1_555 1_555
H6_2 C16_2 1_555 1_555
C17_2 C5_2 1_555 1_555
H7_2 C17_2 1_555 1_555
C18_2 C15_2 1_555 1_555
H8_2 C18_2 1_555 1_555
N6_2 H9_2 1_555 1_555
C19_2 C14_2 1_555 1_555
H10_2 C19_2 1_555 1_555
C20_2 C6_2 1_555 1_555
H11_2 C20_2 1_555 1_555
C21_2 N3_2 1_555 1_555
C22_2 C11_2 1_555 1_555
H12_2 C22_2 1_555 1_555
C23_2 N5_2 1_555 1_555
C24_2 N5_2 1_555 1_555
C25_2 N6_2 1_555 1_555
C26_2 N2_2 1_555 1_555
C27_2 N1_2 1_555 1_555
O24_2 Cu1_2 1_555 1_555
Cu8_2 Cu1_2 1_555 1_555
Cu13 O9_2 1_555 1_555
Cu19 O5_2 1_555 1_555
O25_2 Cu9 1_555 1_555
O28_2 Cu15 1_555 1_555
O31_3 Cu1_2 1_555 1_555
O34_2 Cu9 1_555 1_555
O37_2 Cu15 1_555 1_555
O40_3 Cu1_2 1_555 1_555
O1_2 Cu11 1_555 1_555
O3_2 Cu8_2 1_555 1_555
O10_2 Cu18 1_555 1_555
N3_2 C27_2 1_555 1_555
N4_2 C27_2 1_555 1_555
C16_2 C24_2 1_555 1_555
C17_2 C21_2 1_555 1_555
C18_2 C21_2 1_555 1_555
N6_2 C26_2 1_555 1_555
C19_2 C25_2 1_555 1_555
C20_2 C24_2 1_555 1_555
C22_2 C25_2 1_555 1_555
O18_2 Cu8_2 1_555 1_555
O31_4 Cu7_2 1_555 1_555
O40_4 Cu7_2 1_555 1_555
O27_4 Cu8_2 1_555 1_555
O30_4 Cu8_2 1_555 1_555
Cu7_3 Cu2_3 1_555 1_555
O27_5 Cu2_3 1_555 1_555
O30_5 Cu2_3 1_555 1_555
Cu2_4 O6_3 1_555 1_555
Cu3_2 O4_3 1_555 1_555
O4_3 C1_3 1_555 1_555
O6_3 C8_3 1_555 1_555
O9_3 C2_3 1_555 1_555
O10_3 C1_3 1_555 1_555
O11_2 C2_3 1_555 1_555
O12_3 C8_3 1_555 1_555
C1_3 C11_3 1_555 1_555
C2_3 C5_3 1_555 1_555
C5_3 C13_3 1_555 1_555
C7_3 H2_3 1_555 1_555
C8_3 C14_3 1_555 1_555
C11_3 C7_3 1_555 1_555
N1_3 C26_3 1_555 1_555
C13_3 H3_3 1_555 1_555
N3_3 H4_3 1_555 1_555
C14_3 C7_3 1_555 1_555
C17_3 C5_3 1_555 1_555
H7_3 C17_3 1_555 1_555
N6_3 H9_3 1_555 1_555
C19_3 C14_3 1_555 1_555
H10_3 C19_3 1_555 1_555
C21_3 N3_3 1_555 1_555
C22_3 C11_3 1_555 1_555
H12_3 C22_3 1_555 1_555
C25_3 N6_3 1_555 1_555
C27_3 N1_3 1_555 1_555
Cu6_2 O14_3 1_555 1_555
O13_3 C31_3 1_555 1_555
O14_3 C31_3 1_555 1_555
O15_3 Cu2_4 1_555 1_555
O17_3 C37_3 1_555 1_555
O19_3 C36_3 1_555 1_555
O20_2 C37_3 1_555 1_555
C30_3 H13_3 1_555 1_555
C31_3 C42_3 1_555 1_555
C33_3 C30_3 1_555 1_555
C36_3 O15_3 1_555 1_555
C37_3 C39_3 1_555 1_555
C39_3 C30_3 1_555 1_555
N8_3 C50_3 1_555 1_555
N10_3 C50_3 1_555 1_555
N11_3 H17_3 1_555 1_555
C43_3 C39_3 1_555 1_555
H18_3 C43_3 1_555 1_555
C47_3 C33_3 1_555 1_555
H23_3 C47_3 1_555 1_555
C50_3 N11_3 1_555 1_555
C51_3 N11_3 1_555 1_555
Cu7_4 Cu2_4 1_555 1_555
Cu9_2 O20_2 1_555 1_555
Cu11_2 O9_3 1_555 1_555
Cu13_2 Cu6_2 1_555 1_555
Cu15_2 O11_2 1_555 1_555
Cu18_2 O17_3 1_555 1_555
Cu19_2 Cu3_2 1_555 1_555
O25_3 Cu3_2 1_555 1_555
O29_3 Cu6_2 1_555 1_555
O32_2 Cu3_2 1_555 1_555
O34_3 Cu3_2 1_555 1_555
O36_3 Cu6_2 1_555 1_555
O38_2 Cu6_2 1_555 1_555
O10_3 Cu19_2 1_555 1_555
O12_3 Cu7_4 1_555 1_555
N3_3 C27_3 1_555 1_555
C17_3 C21_3 1_555 1_555
C18_3 C21_3 1_555 1_555
N6_3 C26_3 1_555 1_555
C19_3 C25_3 1_555 1_555
C22_3 C25_3 1_555 1_555
O13_3 Cu13_2 1_555 1_555
O19_3 Cu7_4 1_555 1_555
C33_3 C36_3 1_555 1_555
C43_3 C51_3 1_555 1_555
C47_3 C51_3 1_555 1_555
Cu9_2 Cu18_2 1_555 1_555
Cu11_2 Cu15_2 1_555 1_555
Cu8_3 Cu1_3 1_555 1_555
O31_5 Cu1_3 1_555 1_555
O40_5 Cu1_3 1_555 1_555
Cu1_4 O7_3 1_555 1_555
Cu4_2 O2_3 1_555 1_555
O1_3 C4_3 1_555 1_555
O2_3 C4_3 1_555 1_555
O3_3 C9_3 1_555 1_555
O5_3 C10_3 1_555 1_555
O7_3 C9_3 1_555 1_555
O8_2 C10_3 1_555 1_555
C3_3 H1_3 1_555 1_555
C4_3 C15_3 1_555 1_555
C6_3 C3_3 1_555 1_555
C9_3 C6_3 1_555 1_555
C10_3 C12_3 1_555 1_555
C12_3 C3_3 1_555 1_555
N2_3 C23_3 1_555 1_555
N4_3 C23_3 1_555 1_555
N5_3 H5_3 1_555 1_555
C16_3 C12_3 1_555 1_555
H6_3 C16_3 1_555 1_555
C20_3 C6_3 1_555 1_555
H11_3 C20_3 1_555 1_555
C23_3 N5_3 1_555 1_555
C24_3 N5_3 1_555 1_555
Cu5_2 O16_3 1_555 1_555
O16_3 C28_3 1_555 1_555
O18_3 C35_3 1_555 1_555
O21_3 C29_3 1_555 1_555
O22_3 C28_3 1_555 1_555
O23_2 C29_3 1_555 1_555
O24_3 Cu1_4 1_555 1_555
C28_3 C38_3 1_555 1_555
C29_3 C32_3 1_555 1_555
C32_3 C40_3 1_555 1_555
C34_3 H14_3 1_555 1_555
C35_3 O24_3 1_555 1_555
C38_3 C34_3 1_555 1_555
N7_3 C53_3 1_555 1_555
C40_3 H15_3 1_555 1_555
N9_3 H16_3 1_555 1_555
C41_3 C34_3 1_555 1_555
C44_3 C32_3 1_555 1_555
H19_3 C44_3 1_555 1_555
N12_3 H21_3 1_555 1_555
C46_3 C41_3 1_555 1_555
H22_3 C46_3 1_555 1_555
C48_3 N9_3 1_555 1_555
C49_3 C38_3 1_555 1_555
H24_3 C49_3 1_555 1_555
C52_3 N12_3 1_555 1_555
C54_3 N7_3 1_555 1_555
Cu8_4 Cu1_4 1_555 1_555
Cu10_2 O8_2 1_555 1_555
Cu12_2 O21_3 1_555 1_555
Cu14_2 Cu4_2 1_555 1_555
Cu16_2 O23_2 1_555 1_555
Cu17_2 O5_3 1_555 1_555
Cu20_2 Cu5_2 1_555 1_555
O26_3 Cu5_2 1_555 1_555
O28_3 Cu4_2 1_555 1_555
O33_2 Cu5_2 1_555 1_555
O35_3 Cu5_2 1_555 1_555
O37_3 Cu4_2 1_555 1_555
O39_2 Cu4_2 1_555 1_555
O1_3 Cu14_2 1_555 1_555
O3_3 Cu8_4 1_555 1_555
C16_3 C24_3 1_555 1_555
C20_3 C24_3 1_555 1_555
O18_3 Cu8_4 1_555 1_555
O22_3 Cu20_2 1_555 1_555
C35_3 C41_3 1_555 1_555
N9_3 C54_3 1_555 1_555
C44_3 C48_3 1_555 1_555
C45_3 C48_3 1_555 1_555
N12_3 C53_3 1_555 1_555
C46_3 C52_3 1_555 1_555
C49_3 C52_3 1_555 1_555
Cu10_2 Cu17_2 1_555 1_555
Cu12_2 Cu16_2 1_555 1_555
O31_6 Cu7_3 1_555 1_555
O40_6 Cu7_3 1_555 1_555
O27_6 Cu8_3 1_555 1_555
O30_6 Cu8_3 1_555 1_555
Cu8_5 Cu1_5 1_555 1_555
O31_7 Cu1_5 1_555 1_555
O40_7 Cu1_5 1_555 1_555
Cu1_6 O7_4 1_555 1_555
Cu15_2 O2_4 1_555 1_555
O1_4 C4_4 1_555 1_555
O2_4 C4_4 1_555 1_555
O3_4 C9_4 1_555 1_555
O5_4 C10_4 1_555 1_555
O7_4 C9_4 1_555 1_555
O32_2 C10_4 1_555 1_555
C3_4 H1_4 1_555 1_555
C4_4 C15_4 1_555 1_555
C6_4 C3_4 1_555 1_555
C9_4 C6_4 1_555 1_555
C10_4 C12_4 1_555 1_555
C12_4 C3_4 1_555 1_555
N2_4 C23_4 1_555 1_555
N4_4 C23_4 1_555 1_555
N5_4 H5_4 1_555 1_555
C16_4 C12_4 1_555 1_555
H6_4 C16_4 1_555 1_555
C20_4 C6_4 1_555 1_555
H11_4 C20_4 1_555 1_555
C23_4 N5_4 1_555 1_555
C24_4 N5_4 1_555 1_555
Cu10_2 O16_4 1_555 1_555
O16_4 C28_4 1_555 1_555
O18_4 C35_4 1_555 1_555
O21_4 C29_4 1_555 1_555
O22_4 C28_4 1_555 1_555
O39_2 C29_4 1_555 1_555
O24_4 Cu1_6 1_555 1_555
C28_4 C38_4 1_555 1_555
C29_4 C32_4 1_555 1_555
C32_4 C40_4 1_555 1_555
C34_4 H14_4 1_555 1_555
C35_4 O24_4 1_555 1_555
C38_4 C34_4 1_555 1_555
N7_4 C53_4 1_555 1_555
C40_4 H15_4 1_555 1_555
N9_4 H16_4 1_555 1_555
C41_4 C34_4 1_555 1_555
C44_4 C32_4 1_555 1_555
H19_4 C44_4 1_555 1_555
N12_4 H21_4 1_555 1_555
C46_4 C41_4 1_555 1_555
H22_4 C46_4 1_555 1_555
C48_4 N9_4 1_555 1_555
C49_4 C38_4 1_555 1_555
H24_4 C49_4 1_555 1_555
C52_4 N12_4 1_555 1_555
C54_4 N7_4 1_555 1_555
Cu8_6 Cu1_6 1_555 1_555
Cu14_2 O21_4 1_555 1_555
Cu19_2 O5_4 1_555 1_555
O26_4 Cu10_2 1_555 1_555
O28_4 Cu15_2 1_555 1_555
O35_4 Cu10_2 1_555 1_555
O37_4 Cu15_2 1_555 1_555
O1_4 Cu11_2 1_555 1_555
O3_4 Cu8_6 1_555 1_555
C16_4 C24_4 1_555 1_555
C20_4 C24_4 1_555 1_555
O18_4 Cu8_6 1_555 1_555
O22_4 Cu17_2 1_555 1_555
C35_4 C41_4 1_555 1_555
N9_4 C54_4 1_555 1_555
C44_4 C48_4 1_555 1_555
C45_4 C48_4 1_555 1_555
N12_4 C53_4 1_555 1_555
C46_4 C52_4 1_555 1_555
C49_4 C52_4 1_555 1_555
Cu7_5 Cu2_5 1_555 1_555
O27_7 Cu2_5 1_555 1_555
O30_7 Cu2_5 1_555 1_555
Cu2_6 O6_4 1_555 1_555
Cu9_2 O4_4 1_555 1_555
O4_4 C1_4 1_555 1_555
O6_4 C8_4 1_555 1_555
O9_4 C2_4 1_555 1_555
O10_4 C1_4 1_555 1_555
O38_2 C2_4 1_555 1_555
O12_4 C8_4 1_555 1_555
C1_4 C11_4 1_555 1_555
C2_4 C5_4 1_555 1_555
C5_4 C13_4 1_555 1_555
C7_4 H2_4 1_555 1_555
C8_4 C14_4 1_555 1_555
C11_4 C7_4 1_555 1_555
N1_4 C26_4 1_555 1_555
C13_4 H3_4 1_555 1_555
N3_4 H4_4 1_555 1_555
C14_4 C7_4 1_555 1_555
C17_4 C5_4 1_555 1_555
H7_4 C17_4 1_555 1_555
N6_4 H9_4 1_555 1_555
C19_4 C14_4 1_555 1_555
H10_4 C19_4 1_555 1_555
C21_4 N3_4 1_555 1_555
C22_4 C11_4 1_555 1_555
H12_4 C22_4 1_555 1_555
C25_4 N6_4 1_555 1_555
C27_4 N1_4 1_555 1_555
Cu16_2 O14_4 1_555 1_555
O13_4 C31_4 1_555 1_555
O14_4 C31_4 1_555 1_555
O15_4 Cu2_6 1_555 1_555
O17_4 C37_4 1_555 1_555
O19_4 C36_4 1_555 1_555
O33_2 C37_4 1_555 1_555
C30_4 H13_4 1_555 1_555
C31_4 C42_4 1_555 1_555
C33_4 C30_4 1_555 1_555
C36_4 O15_4 1_555 1_555
C37_4 C39_4 1_555 1_555
C39_4 C30_4 1_555 1_555
N8_4 C50_4 1_555 1_555
N10_4 C50_4 1_555 1_555
N11_4 H17_4 1_555 1_555
C43_4 C39_4 1_555 1_555
H18_4 C43_4 1_555 1_555
C47_4 C33_4 1_555 1_555
H23_4 C47_4 1_555 1_555
C50_4 N11_4 1_555 1_555
C51_4 N11_4 1_555 1_555
Cu7_6 Cu2_6 1_555 1_555
Cu13_2 O9_4 1_555 1_555
Cu20_2 O17_4 1_555 1_555
O25_4 Cu9_2 1_555 1_555
O29_4 Cu16_2 1_555 1_555
O34_4 Cu9_2 1_555 1_555
O36_4 Cu16_2 1_555 1_555
O10_4 Cu18_2 1_555 1_555
O12_4 Cu7_6 1_555 1_555
N3_4 C27_4 1_555 1_555
C17_4 C21_4 1_555 1_555
C18_4 C21_4 1_555 1_555
N6_4 C26_4 1_555 1_555
C19_4 C25_4 1_555 1_555
C22_4 C25_4 1_555 1_555
O13_4 Cu12_2 1_555 1_555
O19_4 Cu7_6 1_555 1_555
C33_4 C36_4 1_555 1_555
C43_4 C51_4 1_555 1_555
C47_4 C51_4 1_555 1_555
O27_8 Cu8_5 1_555 1_555
O30_8 Cu8_5 1_555 1_555
O31_8 Cu7_5 1_555 1_555
O40_8 Cu7_5 1_555 1_555
Cu11_2 O4_5 1_555 1_555
Cu17_2 O2_5 1_555 1_555
O26_4 C4_5 1_555 1_555
O2_5 C4_5 1_555 1_555
O27 C9_5 1_555 1_555
O4_5 C1_5 1_555 1_555
O28_3 C10_5 1_555 1_555
O31_2 C9_5 1_555 1_555
O8_3 C10_5 1_555 1_555
O34_3 C2_5 1_555 1_555
O37_4 C1_5 1_555 1_555
O11_3 C2_5 1_555 1_555
C1_5 C11_5 1_555 1_555
C2_5 C5_5 1_555 1_555
C3_5 H1_5 1_555 1_555
C4_5 C15_5 1_555 1_555
C5_5 C13_5 1_555 1_555
C6_5 C3_5 1_555 1_555
C7_5 H2_5 1_555 1_555
C8_5 C14_5 1_555 1_555
C9_5 C6_5 1_555 1_555
C10_5 C12_5 1_555 1_555
C11_5 C7_5 1_555 1_555
C12_5 C3_5 1_555 1_555
N1_5 C26_5 1_555 1_555
N2_5 C23_5 1_555 1_555
C13_5 H3_5 1_555 1_555
N3_5 H4_5 1_555 1_555
C14_5 C7_5 1_555 1_555
N4_5 C23_5 1_555 1_555
C15_5 C13_5 1_555 1_555
N5_5 H5_5 1_555 1_555
C16_5 C12_5 1_555 1_555
H6_5 C16_5 1_555 1_555
C17_5 C5_5 1_555 1_555
H7_5 C17_5 1_555 1_555
C18_5 C15_5 1_555 1_555
H8_5 C18_5 1_555 1_555
N6_5 H9_5 1_555 1_555
C19_5 C14_5 1_555 1_555
H10_5 C19_5 1_555 1_555
C20_5 C6_5 1_555 1_555
H11_5 C20_5 1_555 1_555
C21_5 N3_5 1_555 1_555
C22_5 C11_5 1_555 1_555
H12_5 C22_5 1_555 1_555
C23_5 N5_5 1_555 1_555
C24_5 N5_5 1_555 1_555
C25_5 N6_5 1_555 1_555
C26_5 N2_5 1_555 1_555
C27_5 N1_5 1_555 1_555
Cu14_2 O8_3 1_555 1_555
Cu19_2 O11_3 1_555 1_555
O32_3 Cu11_2 1_555 1_555
O39_3 Cu17_2 1_555 1_555
N3_5 C27_5 1_555 1_555
N4_5 C27_5 1_555 1_555
C16_5 C24_5 1_555 1_555
C17_5 C21_5 1_555 1_555
C18_5 C21_5 1_555 1_555
N6_5 C26_5 1_555 1_555
C19_5 C25_5 1_555 1_555
C20_5 C24_5 1_555 1_555
C22_5 C25_5 1_555 1_555
Cu12_2 O16_5 1_555 1_555
Cu18_2 O14_5 1_555 1_555
O25_4 C31_5 1_555 1_555
O14_5 C31_5 1_555 1_555
O16_5 C28_5 1_555 1_555
O29_3 C37_5 1_555 1_555
O31 C36_5 1_555 1_555
O20_3 C37_5 1_555 1_555
O35_3 C29_5 1_555 1_555
O36_4 C28_5 1_555 1_555
O23_3 C29_5 1_555 1_555
C28_5 C38_5 1_555 1_555
C29_5 C32_5 1_555 1_555
C30_5 H13_5 1_555 1_555
C31_5 C42_5 1_555 1_555
C32_5 C40_5 1_555 1_555
C33_5 C30_5 1_555 1_555
C34_5 H14_5 1_555 1_555
C36_5 O27_2 1_555 1_555
C37_5 C39_5 1_555 1_555
C38_5 C34_5 1_555 1_555
C39_5 C30_5 1_555 1_555
N7_5 C53_5 1_555 1_555
N8_5 C50_5 1_555 1_555
C40_5 H15_5 1_555 1_555
N9_5 H16_5 1_555 1_555
C41_5 C34_5 1_555 1_555
N10_5 C50_5 1_555 1_555
C42_5 C40_5 1_555 1_555
N11_5 H17_5 1_555 1_555
C43_5 C39_5 1_555 1_555
H18_5 C43_5 1_555 1_555
C44_5 C32_5 1_555 1_555
H19_5 C44_5 1_555 1_555
C45_5 C42_5 1_555 1_555
H20_5 C45_5 1_555 1_555
N12_5 H21_5 1_555 1_555
C46_5 C41_5 1_555 1_555
H22_5 C46_5 1_555 1_555
C47_5 C33_5 1_555 1_555
H23_5 C47_5 1_555 1_555
C48_5 N9_5 1_555 1_555
C49_5 C38_5 1_555 1_555
H24_5 C49_5 1_555 1_555
C50_5 N11_5 1_555 1_555
C51_5 N11_5 1_555 1_555
C52_5 N12_5 1_555 1_555
C53_5 N8_5 1_555 1_555
C54_5 N7_5 1_555 1_555
Cu13_2 O20_3 1_555 1_555
Cu20_2 O23_3 1_555 1_555
O33_3 Cu12_2 1_555 1_555
O38_3 Cu18_2 1_555 1_555
C33_5 C36_5 1_555 1_555
C35_5 C41_5 1_555 1_555
N9_5 C54_5 1_555 1_555
N10_5 C54_5 1_555 1_555
C43_5 C51_5 1_555 1_555
C44_5 C48_5 1_555 1_555
C45_5 C48_5 1_555 1_555
N12_5 C53_5 1_555 1_555
C46_5 C52_5 1_555 1_555
C47_5 C51_5 1_555 1_555
C49_5 C52_5 1_555 1_555
Cu13_2 O4_6 1_555 1_555
Cu19_2 O2_6 1_555 1_555
O25_3 C4_6 1_555 1_555
O2_6 C4_6 1_555 1_555
O27_3 C9_6 1_555 1_555
O4_6 C1_6 1_555 1_555
O28_4 C10_6 1_555 1_555
O31_4 C9_6 1_555 1_555
O32_3 C10_6 1_555 1_555
O34_4 C2_6 1_555 1_555
O36_3 C1_6 1_555 1_555
O38_3 C2_6 1_555 1_555
C1_6 C11_6 1_555 1_555
C2_6 C5_6 1_555 1_555
C3_6 H1_6 1_555 1_555
C4_6 C15_6 1_555 1_555
C5_6 C13_6 1_555 1_555
C6_6 C3_6 1_555 1_555
C7_6 H2_6 1_555 1_555
C8_6 C14_6 1_555 1_555
C9_6 C6_6 1_555 1_555
C10_6 C12_6 1_555 1_555
C11_6 C7_6 1_555 1_555
C12_6 C3_6 1_555 1_555
N1_6 C26_6 1_555 1_555
N2_6 C23_6 1_555 1_555
C13_6 H3_6 1_555 1_555
N3_6 H4_6 1_555 1_555
C14_6 C7_6 1_555 1_555
N4_6 C23_6 1_555 1_555
C15_6 C13_6 1_555 1_555
N5_6 H5_6 1_555 1_555
C16_6 C12_6 1_555 1_555
H6_6 C16_6 1_555 1_555
C17_6 C5_6 1_555 1_555
H7_6 C17_6 1_555 1_555
C18_6 C15_6 1_555 1_555
H8_6 C18_6 1_555 1_555
N6_6 H9_6 1_555 1_555
C19_6 C14_6 1_555 1_555
H10_6 C19_6 1_555 1_555
C20_6 C6_6 1_555 1_555
H11_6 C20_6 1_555 1_555
C21_6 N3_6 1_555 1_555
C22_6 C11_6 1_555 1_555
H12_6 C22_6 1_555 1_555
C23_6 N5_6 1_555 1_555
C24_6 N5_6 1_555 1_555
C25_6 N6_6 1_555 1_555
C26_6 N2_6 1_555 1_555
C27_6 N1_6 1_555 1_555
N3_6 C27_6 1_555 1_555
N4_6 C27_6 1_555 1_555
C16_6 C24_6 1_555 1_555
C17_6 C21_6 1_555 1_555
C18_6 C21_6 1_555 1_555
N6_6 C26_6 1_555 1_555
C19_6 C25_6 1_555 1_555
C20_6 C24_6 1_555 1_555
C22_6 C25_6 1_555 1_555
Cu14_2 O16_6 1_555 1_555
Cu20_2 O14_6 1_555 1_555
O26_3 C31_6 1_555 1_555
O14_6 C31_6 1_555 1_555
O16_6 C28_6 1_555 1_555
O29_4 C37_6 1_555 1_555
O31_3 C36_6 1_555 1_555
O33_3 C37_6 1_555 1_555
O35_4 C29_6 1_555 1_555
O37_3 C28_6 1_555 1_555
O39_3 C29_6 1_555 1_555
C28_6 C38_6 1_555 1_555
C29_6 C32_6 1_555 1_555
C30_6 H13_6 1_555 1_555
C31_6 C42_6 1_555 1_555
C32_6 C40_6 1_555 1_555
C33_6 C30_6 1_555 1_555
C34_6 H14_6 1_555 1_555
C36_6 O27_4 1_555 1_555
C37_6 C39_6 1_555 1_555
C38_6 C34_6 1_555 1_555
C39_6 C30_6 1_555 1_555
N7_6 C53_6 1_555 1_555
N8_6 C50_6 1_555 1_555
C40_6 H15_6 1_555 1_555
N9_6 H16_6 1_555 1_555
C41_6 C34_6 1_555 1_555
N10_6 C50_6 1_555 1_555
C42_6 C40_6 1_555 1_555
N11_6 H17_6 1_555 1_555
C43_6 C39_6 1_555 1_555
H18_6 C43_6 1_555 1_555
C44_6 C32_6 1_555 1_555
H19_6 C44_6 1_555 1_555
C45_6 C42_6 1_555 1_555
H20_6 C45_6 1_555 1_555
N12_6 H21_6 1_555 1_555
C46_6 C41_6 1_555 1_555
H22_6 C46_6 1_555 1_555
C47_6 C33_6 1_555 1_555
H23_6 C47_6 1_555 1_555
C48_6 N9_6 1_555 1_555
C49_6 C38_6 1_555 1_555
H24_6 C49_6 1_555 1_555
C50_6 N11_6 1_555 1_555
C51_6 N11_6 1_555 1_555
C52_6 N12_6 1_555 1_555
C53_6 N8_6 1_555 1_555
C54_6 N7_6 1_555 1_555
C33_6 C36_6 1_555 1_555
C35_6 C41_6 1_555 1_555
N9_6 C54_6 1_555 1_555
N10_6 C54_6 1_555 1_555
C43_6 C51_6 1_555 1_555
C44_6 C48_6 1_555 1_555
C45_6 C48_6 1_555 1_555
N12_6 C53_6 1_555 1_555
C46_6 C52_6 1_555 1_555
C47_6 C51_6 1_555 1_555
C49_6 C52_6 1_555 1_555
Cu17 O2_7 1_555 1_555
O26_2 C4_7 1_555 1_555
O2_7 C4_7 1_555 1_555
O27_5 C9_7 1_555 1_555
O28 C10_7 1_555 1_555
O31_6 C9_7 1_555 1_555
O8_4 C10_7 1_555 1_555
C3_7 H1_7 1_555 1_555
C4_7 C15_7 1_555 1_555
C6_7 C3_7 1_555 1_555
C9_7 C6_7 1_555 1_555
C10_7 C12_7 1_555 1_555
C12_7 C3_7 1_555 1_555
N2_7 C23_7 1_555 1_555
N4_7 C23_7 1_555 1_555
N5_7 H5_7 1_555 1_555
C16_7 C12_7 1_555 1_555
H6_7 C16_7 1_555 1_555
C20_7 C6_7 1_555 1_555
H11_7 C20_7 1_555 1_555
C23_7 N5_7 1_555 1_555
C24_7 N5_7 1_555 1_555
Cu12 O16_7 1_555 1_555
O16_7 C28_7 1_555 1_555
O30_5 C35_7 1_555 1_555
O35 C29_7 1_555 1_555
O36_2 C28_7 1_555 1_555
O23_4 C29_7 1_555 1_555
C28_7 C38_7 1_555 1_555
C29_7 C32_7 1_555 1_555
C32_7 C40_7 1_555 1_555
C34_7 H14_7 1_555 1_555
C35_7 O40_6 1_555 1_555
C38_7 C34_7 1_555 1_555
N7_7 C53_7 1_555 1_555
C40_7 H15_7 1_555 1_555
N9_7 H16_7 1_555 1_555
C41_7 C34_7 1_555 1_555
C44_7 C32_7 1_555 1_555
H19_7 C44_7 1_555 1_555
N12_7 H21_7 1_555 1_555
C46_7 C41_7 1_555 1_555
H22_7 C46_7 1_555 1_555
C48_7 N9_7 1_555 1_555
C49_7 C38_7 1_555 1_555
H24_7 C49_7 1_555 1_555
C52_7 N12_7 1_555 1_555
C54_7 N7_7 1_555 1_555
Cu14 O8_4 1_555 1_555
Cu20 O23_4 1_555 1_555
O33_4 Cu12 1_555 1_555
O39_4 Cu17 1_555 1_555
C16_7 C24_7 1_555 1_555
C20_7 C24_7 1_555 1_555
C35_7 C41_7 1_555 1_555
N9_7 C54_7 1_555 1_555
C44_7 C48_7 1_555 1_555
C45_7 C48_7 1_555 1_555
N12_7 C53_7 1_555 1_555
C46_7 C52_7 1_555 1_555
C49_7 C52_7 1_555 1_555
Cu11 O4_7 1_555 1_555
O4_7 C1_7 1_555 1_555
O30_6 C8_7 1_555 1_555
O34 C2_7 1_555 1_555
O37_2 C1_7 1_555 1_555
O11_4 C2_7 1_555 1_555
O40_5 C8_7 1_555 1_555
C1_7 C11_7 1_555 1_555
C2_7 C5_7 1_555 1_555
C5_7 C13_7 1_555 1_555
C7_7 H2_7 1_555 1_555
C8_7 C14_7 1_555 1_555
C11_7 C7_7 1_555 1_555
N1_7 C26_7 1_555 1_555
C13_7 H3_7 1_555 1_555
N3_7 H4_7 1_555 1_555
C14_7 C7_7 1_555 1_555
C17_7 C5_7 1_555 1_555
H7_7 C17_7 1_555 1_555
N6_7 H9_7 1_555 1_555
C19_7 C14_7 1_555 1_555
H10_7 C19_7 1_555 1_555
C21_7 N3_7 1_555 1_555
C22_7 C11_7 1_555 1_555
H12_7 C22_7 1_555 1_555
C25_7 N6_7 1_555 1_555
C27_7 N1_7 1_555 1_555
Cu18 O14_7 1_555 1_555
O25_2 C31_7 1_555 1_555
O14_7 C31_7 1_555 1_555
O29 C37_7 1_555 1_555
O31_5 C36_7 1_555 1_555
O20_4 C37_7 1_555 1_555
C30_7 H13_7 1_555 1_555
C31_7 C42_7 1_555 1_555
C33_7 C30_7 1_555 1_555
C36_7 O27_6 1_555 1_555
C37_7 C39_7 1_555 1_555
C39_7 C30_7 1_555 1_555
N8_7 C50_7 1_555 1_555
N10_7 C50_7 1_555 1_555
N11_7 H17_7 1_555 1_555
C43_7 C39_7 1_555 1_555
H18_7 C43_7 1_555 1_555
C47_7 C33_7 1_555 1_555
H23_7 C47_7 1_555 1_555
C50_7 N11_7 1_555 1_555
C51_7 N11_7 1_555 1_555
Cu13 O20_4 1_555 1_555
Cu19 O11_4 1_555 1_555
O32_4 Cu11 1_555 1_555
O38_4 Cu18 1_555 1_555
N3_7 C27_7 1_555 1_555
C17_7 C21_7 1_555 1_555
C18_7 C21_7 1_555 1_555
N6_7 C26_7 1_555 1_555
C19_7 C25_7 1_555 1_555
C22_7 C25_7 1_555 1_555
C33_7 C36_7 1_555 1_555
C43_7 C51_7 1_555 1_555
C47_7 C51_7 1_555 1_555
Cu13 O4_8 1_555 1_555
O4_8 C1_8 1_555 1_555
O30_8 C8_8 1_555 1_555
O34_2 C2_8 1_555 1_555
O36 C1_8 1_555 1_555
O38_4 C2_8 1_555 1_555
O40_7 C8_8 1_555 1_555
C1_8 C11_8 1_555 1_555
C2_8 C5_8 1_555 1_555
C5_8 C13_8 1_555 1_555
C7_8 H2_8 1_555 1_555
C8_8 C14_8 1_555 1_555
C11_8 C7_8 1_555 1_555
N1_8 C26_8 1_555 1_555
C13_8 H3_8 1_555 1_555
N3_8 H4_8 1_555 1_555
C14_8 C7_8 1_555 1_555
C17_8 C5_8 1_555 1_555
H7_8 C17_8 1_555 1_555
N6_8 H9_8 1_555 1_555
C19_8 C14_8 1_555 1_555
H10_8 C19_8 1_555 1_555
C21_8 N3_8 1_555 1_555
C22_8 C11_8 1_555 1_555
H12_8 C22_8 1_555 1_555
C25_8 N6_8 1_555 1_555
C27_8 N1_8 1_555 1_555
Cu20 O14_8 1_555 1_555
O26 C31_8 1_555 1_555
O14_8 C31_8 1_555 1_555
O29_2 C37_8 1_555 1_555
O31_7 C36_8 1_555 1_555
O33_4 C37_8 1_555 1_555
C30_8 H13_8 1_555 1_555
C31_8 C42_8 1_555 1_555
C33_8 C30_8 1_555 1_555
C36_8 O27_8 1_555 1_555
C37_8 C39_8 1_555 1_555
C39_8 C30_8 1_555 1_555
N8_8 C50_8 1_555 1_555
N10_8 C50_8 1_555 1_555
N11_8 H17_8 1_555 1_555
C43_8 C39_8 1_555 1_555
H18_8 C43_8 1_555 1_555
C47_8 C33_8 1_555 1_555
H23_8 C47_8 1_555 1_555
C50_8 N11_8 1_555 1_555
C51_8 N11_8 1_555 1_555
N3_8 C27_8 1_555 1_555
C17_8 C21_8 1_555 1_555
C18_8 C21_8 1_555 1_555
N6_8 C26_8 1_555 1_555
C19_8 C25_8 1_555 1_555
C22_8 C25_8 1_555 1_555
C33_8 C36_8 1_555 1_555
C43_8 C51_8 1_555 1_555
C47_8 C51_8 1_555 1_555
Cu19 O2_8 1_555 1_555
O25 C4_8 1_555 1_555
O2_8 C4_8 1_555 1_555
O27_7 C9_8 1_555 1_555
O28_2 C10_8 1_555 1_555
O31_8 C9_8 1_555 1_555
O32_4 C10_8 1_555 1_555
C3_8 H1_8 1_555 1_555
C4_8 C15_8 1_555 1_555
C6_8 C3_8 1_555 1_555
C9_8 C6_8 1_555 1_555
C10_8 C12_8 1_555 1_555
C12_8 C3_8 1_555 1_555
N2_8 C23_8 1_555 1_555
N4_8 C23_8 1_555 1_555
N5_8 H5_8 1_555 1_555
C16_8 C12_8 1_555 1_555
H6_8 C16_8 1_555 1_555
C20_8 C6_8 1_555 1_555
H11_8 C20_8 1_555 1_555
C23_8 N5_8 1_555 1_555
C24_8 N5_8 1_555 1_555
Cu14 O16_8 1_555 1_555
O16_8 C28_8 1_555 1_555
O30_7 C35_8 1_555 1_555
O35_2 C29_8 1_555 1_555
O37 C28_8 1_555 1_555
O39_4 C29_8 1_555 1_555
C28_8 C38_8 1_555 1_555
C29_8 C32_8 1_555 1_555
C32_8 C40_8 1_555 1_555
C34_8 H14_8 1_555 1_555
C35_8 O40_8 1_555 1_555
C38_8 C34_8 1_555 1_555
N7_8 C53_8 1_555 1_555
C40_8 H15_8 1_555 1_555
N9_8 H16_8 1_555 1_555
C41_8 C34_8 1_555 1_555
C44_8 C32_8 1_555 1_555
H19_8 C44_8 1_555 1_555
N12_8 H21_8 1_555 1_555
C46_8 C41_8 1_555 1_555
H22_8 C46_8 1_555 1_555
C48_8 N9_8 1_555 1_555
C49_8 C38_8 1_555 1_555
H24_8 C49_8 1_555 1_555
C52_8 N12_8 1_555 1_555
C54_8 N7_8 1_555 1_555
C16_8 C24_8 1_555 1_555
C20_8 C24_8 1_555 1_555
C35_8 C41_8 1_555 1_555
N9_8 C54_8 1_555 1_555
C44_8 C48_8 1_555 1_555
C45_8 C48_8 1_555 1_555
N12_8 C53_8 1_555 1_555
C46_8 C52_8 1_555 1_555
C49_8 C52_8 1_555 1_555

#END
