
###############################################################################
#
# This file contains modified crystal structure data generated from the
# MOF subset of the Cambridge Structural Database (CSD) v543 
# hosted by the Cambridge Crystallographic Data Centre (CCDC).
#
# This work is licensed under the Creative Commons
# Attribution-NonCommercial-ShareAlike 4.0 International License.
# To view a copy of this license, visit
# http://creativecommons.org/licenses/by-nc-sa/4.0/
# or send a letter to
# Creative Commons, PO Box 1866, Mountain View, CA 94042, USA.
#
# CIF created using the CSD Python API on 29 September 2022
# The structure has been converted into the P1 space group
# The structure has a 3D framework
# The original CSD entry PAPPAB09 is in the tetragonal crystal system
# The framework has been calculated to contain at least 10.0% void space
# The void calculation uses a probe of radius 1.32A, grid spacing 0.4
#
###############################################################################

data_PAPPAB09
_chemical_formula_moiety         '(C432 H192 Cu40 N96 O180)n'
_symmetry_cell_setting           triclinic
_symmetry_space_group_name_H-M   'P 1'
_symmetry_Int_Tables_number      1
_space_group_name_Hall           'P 1'
loop_
_symmetry_equiv_pos_site_id
_symmetry_equiv_pos_as_xyz
1 x,y,z
_cell_length_a                   26.4509(2)
_cell_length_b                   26.4509(2)
_cell_length_c                   37.9288(5)
_cell_angle_alpha                90
_cell_angle_beta                 90
_cell_angle_gamma                90
_cell_volume                     26536.9
loop_
_atom_site_label
_atom_site_type_symbol
_atom_site_fract_x
_atom_site_fract_y
_atom_site_fract_z
Cu2 Cu 0.34338(5) 0.26748(5) 0.80571(4)
Cu3 Cu 0.29937(7) 0.05654(7) 0.500000
Cu4 Cu 0.82197(5) 0.11932(5) 0.64823(4)
O1 O 0.4094(3) 0.2679(3) 0.7838(2)
O2 O 0.4422(3) 0.3202(3) 0.8248(2)
O3 O 0.3764(3) 0.1206(3) 0.5372(2)
O5 O 0.2197(3) 0.2273(3) 0.6690(2)
O6 O 0.6217(3) 0.3565(3) 0.8246(2)
O7 O 0.7602(3) 0.0999(3) 0.6254(2)
O8 O 0.7105(3) 0.1370(3) 0.6652(2)
O9 O 0.1848(3) 0.1807(3) 0.6258(2)
O10 O 0.2941(3) 0.1072(3) 0.5359(2)
O11 O 0.6709(3) 0.3259(3) 0.7816(2)
C1 C 0.7181(3) 0.1114(4) 0.6374(3)
C2 C 0.3323(4) 0.1255(4) 0.5490(3)
C3 C 0.6397(5) 0.0015(5) 0.5462(3)
C4 C 0.4447(4) 0.2935(5) 0.7977(3)
C5 C 0.5358(4) 0.3136(4) 0.7948(3)
H1 H 0.531596 0.332055 0.815445
C6 C 0.5831(4) 0.3096(4) 0.7796(3)
C7 C 0.6288(4) 0.3333(3) 0.7958(3)
C8 C 0.2787(4) 0.1664(4) 0.5944(3)
H2 H 0.250351 0.154381 0.582610
C9 C 0.3264(4) 0.1576(5) 0.5812(3)
C10 C 0.6780(4) 0.0579(4) 0.5916(3)
H3 H 0.709648 0.044324 0.586535
C11 C 0.2215(4) 0.2012(5) 0.6411(3)
C12 C 0.4955(4) 0.2905(4) 0.7794(3)
N1 N 0.5488(4) 0.1738(5) 0.6583(3)
N2 N 0.5578(4) 0.2256(5) 0.7051(3)
H4 H 0.588911 0.217088 0.702343
C13 C 0.6726(4) 0.0941(4) 0.6173(3)
N3 N 0.4684(4) 0.1665(5) 0.6300(3)
N4 N 0.4786(4) 0.2218(5) 0.6793(3)
C14 C 0.2735(4) 0.1931(5) 0.6252(3)
C15 C 0.6359(4) 0.0421(5) 0.5736(3)
N5 N 0.4035(4) 0.2157(5) 0.6516(3)
H5 H 0.396027 0.239346 0.666281
C16 C 0.5008(4) 0.2609(5) 0.7502(4)
H6 H 0.472917 0.244396 0.740663
C17 C 0.4531(5) 0.2003(6) 0.6529(4)
C18 C 0.3151(4) 0.2086(5) 0.6433(3)
H7 H 0.311117 0.225292 0.664651
C19 C 0.3691(5) 0.1733(5) 0.5998(4)
H8 H 0.401323 0.165904 0.591363
C20 C 0.5889(4) 0.2805(6) 0.7499(4)
H9 H 0.620820 0.277339 0.739819
C21 C 0.5484(4) 0.2557(6) 0.7347(4)
C22 C 0.3631(5) 0.1999(5) 0.6306(4)
C23 C 0.5891(5) 0.0618(5) 0.5812(4)
H10 H 0.560721 0.050010 0.569301
N6 N 0.5352(4) 0.1197(5) 0.6116(4)
H11 H 0.512543 0.107794 0.597578
C24 C 0.6261(5) 0.1140(5) 0.6252(4)
H12 H 0.622990 0.137618 0.643292
C25 C 0.5841(4) 0.0991(6) 0.6066(4)
C26 C 0.5265(5) 0.2079(6) 0.6804(4)
C27 C 0.5180(5) 0.1548(7) 0.6346(4)
O16 O 0.3979(3) 0.0194(3) 0.5351(2)
O24 O 0.3145(3) 0.0067(3) 0.5358(2)
Cu7 Cu 0.39148(7) 0.07171(7) 0.500000
Cu8 Cu 0.73252(5) 0.34338(5) 0.80571(4)
Cu10 Cu 0.15662(5) 0.23252(5) 0.69429(4)
Cu12 Cu 0.76748(5) 0.15662(5) 0.69429(4)
Cu16 Cu 0.11932(5) 0.17803(5) 0.64823(4)
Cu17 Cu 0.67803(5) 0.38068(5) 0.85177(4)
Cu20 Cu 0.38068(5) 0.32197(5) 0.85177(4)
O25 O 0.8202(3) 0.0578(3) 0.6752(2)
O29 O 0.2803(3) 0.2727(3) 0.8310(2)
O31 O 0.8783(3) 0.1435(3) 0.6754(2)
O34 O 0.3630(3) 0.2105(3) 0.8348(2)
O35 O 0.8193(3) 0.1848(3) 0.6258(2)
O37 O 0.2941(3) 0.1072(3) 0.4641(2)
O39 O 0.3259(3) 0.3291(3) 0.7816(2)
O40 O 0.3145(3) 0.0067(3) 0.4642(2)
Cu1 Cu 0.60852(7) 0.92829(7) 0.500000
O4 O 0.6021(3) 0.9806(3) 0.5351(2)
O12 O 0.6855(3) 0.9933(3) 0.5358(2)
Cu5 Cu 0.65662(5) 0.73252(5) 0.80571(4)
Cu6 Cu 0.17803(5) 0.88068(5) 0.64823(4)
O13 O 0.5906(3) 0.7321(3) 0.7838(2)
O14 O 0.5578(3) 0.6798(3) 0.8248(2)
O15 O 0.6236(3) 0.8794(3) 0.5372(2)
O17 O 0.7803(3) 0.7727(3) 0.6690(2)
O18 O 0.3783(3) 0.6435(3) 0.8246(2)
O19 O 0.2398(3) 0.9001(3) 0.6254(2)
O20 O 0.2895(3) 0.8630(3) 0.6652(2)
O21 O 0.8152(3) 0.8193(3) 0.6258(2)
O22 O 0.7059(3) 0.8928(3) 0.5359(2)
O23 O 0.3291(3) 0.6741(3) 0.7816(2)
C28 C 0.2819(3) 0.8886(4) 0.6374(3)
C29 C 0.6677(4) 0.8745(4) 0.5490(3)
C30 C 0.3603(5) 0.9985(5) 0.5462(3)
C31 C 0.5553(4) 0.7065(5) 0.7977(3)
C32 C 0.4642(4) 0.6864(4) 0.7948(3)
H13 H 0.468404 0.667945 0.815445
C33 C 0.4169(4) 0.6904(4) 0.7796(3)
C34 C 0.3712(4) 0.6667(3) 0.7958(3)
C35 C 0.7213(4) 0.8336(4) 0.5944(3)
H14 H 0.749649 0.845619 0.582610
C36 C 0.6736(4) 0.8424(5) 0.5812(3)
C37 C 0.3220(4) 0.9421(4) 0.5916(3)
H15 H 0.290352 0.955676 0.586535
C38 C 0.7785(4) 0.7988(5) 0.6411(3)
C39 C 0.5045(4) 0.7095(4) 0.7794(3)
N7 N 0.4512(4) 0.8262(5) 0.6583(3)
N8 N 0.4422(4) 0.7744(5) 0.7051(3)
H16 H 0.411089 0.782912 0.702343
C40 C 0.3274(4) 0.9059(4) 0.6173(3)
N9 N 0.5316(4) 0.8335(5) 0.6300(3)
N10 N 0.5214(4) 0.7782(5) 0.6793(3)
C41 C 0.7265(4) 0.8069(5) 0.6252(3)
C42 C 0.3641(4) 0.9579(5) 0.5736(3)
N11 N 0.5965(4) 0.7843(5) 0.6516(3)
H17 H 0.603973 0.760654 0.666281
C43 C 0.4992(4) 0.7391(5) 0.7502(4)
H18 H 0.527083 0.755604 0.740663
C44 C 0.5469(5) 0.7997(6) 0.6529(4)
C45 C 0.6849(4) 0.7914(5) 0.6433(3)
H19 H 0.688883 0.774708 0.664651
C46 C 0.6309(5) 0.8267(5) 0.5998(4)
H20 H 0.598677 0.834096 0.591363
C47 C 0.4111(4) 0.7195(6) 0.7499(4)
H21 H 0.379180 0.722661 0.739819
C48 C 0.4516(4) 0.7443(6) 0.7347(4)
C49 C 0.6369(5) 0.8001(5) 0.6306(4)
C50 C 0.4109(5) 0.9382(5) 0.5812(4)
H22 H 0.439279 0.949990 0.569301
N12 N 0.4648(4) 0.8803(5) 0.6116(4)
H23 H 0.487457 0.892206 0.597578
C51 C 0.3739(5) 0.8860(5) 0.6252(4)
H24 H 0.377010 0.862382 0.643292
C52 C 0.4159(4) 0.9009(6) 0.6066(4)
C53 C 0.4735(5) 0.7921(6) 0.6804(4)
C54 C 0.4820(5) 0.8452(7) 0.6346(4)
Cu9 Cu 0.26748(5) 0.65662(5) 0.80571(4)
Cu11 Cu 0.84338(5) 0.76748(5) 0.69429(4)
Cu13 Cu 0.23252(5) 0.84338(5) 0.69429(4)
Cu14 Cu 0.70063(7) 0.94346(7) 0.500000
Cu15 Cu 0.88068(5) 0.82197(5) 0.64823(4)
Cu18 Cu 0.32197(5) 0.61932(5) 0.85177(4)
Cu19 Cu 0.61932(5) 0.67803(5) 0.85177(4)
O26 O 0.1798(3) 0.9422(3) 0.6752(2)
O27 O 0.6236(3) 0.8794(3) 0.4628(2)
O28 O 0.6021(3) 0.9806(3) 0.4649(2)
O30 O 0.7197(3) 0.7273(3) 0.8310(2)
O32 O 0.1217(3) 0.8565(3) 0.6754(2)
O33 O 0.6370(3) 0.7895(3) 0.8348(2)
O36 O 0.1807(3) 0.8152(3) 0.6258(2)
O38 O 0.6741(3) 0.6709(3) 0.7816(2)
O27_2 O 0.3764(3) 0.1206(3) 0.4628(2)
O28_2 O 0.3979(3) 0.0194(3) 0.4649(2)
O37_2 O 0.7059(3) 0.8928(3) 0.4641(2)
O40_2 O 0.6855(3) 0.9933(3) 0.4642(2)
Cu1_2 Cu 0.07171(7) 0.60852(7) 0.500000
O4_2 O 0.0194(3) 0.6021(3) 0.5351(2)
O12_2 O 0.0067(3) 0.6855(3) 0.5358(2)
O13_2 O 0.2679(3) 0.5906(3) 0.7838(2)
O14_2 O 0.3202(3) 0.5578(3) 0.8248(2)
O15_2 O 0.1206(3) 0.6236(3) 0.5372(2)
O17_2 O 0.2273(3) 0.7803(3) 0.6690(2)
O18_2 O 0.3565(3) 0.3783(3) 0.8246(2)
O19_2 O 0.0999(3) 0.2398(3) 0.6254(2)
O20_2 O 0.1370(3) 0.2895(3) 0.6652(2)
O22_2 O 0.1072(3) 0.7059(3) 0.5359(2)
C28_2 C 0.1114(4) 0.2819(3) 0.6374(3)
C29_2 C 0.1255(4) 0.6677(4) 0.5490(3)
C30_2 C 0.0015(5) 0.3603(5) 0.5462(3)
C31_2 C 0.2935(5) 0.5553(4) 0.7977(3)
C32_2 C 0.3136(4) 0.4642(4) 0.7948(3)
H13_2 H 0.332055 0.468404 0.815445
C33_2 C 0.3096(4) 0.4169(4) 0.7796(3)
C34_2 C 0.3333(3) 0.3712(4) 0.7958(3)
C35_2 C 0.1664(4) 0.7213(4) 0.5944(3)
H14_2 H 0.154381 0.749649 0.582610
C36_2 C 0.1576(5) 0.6736(4) 0.5812(3)
C37_2 C 0.0579(4) 0.3220(4) 0.5916(3)
H15_2 H 0.044324 0.290352 0.586535
C38_2 C 0.2012(5) 0.7785(4) 0.6411(3)
C39_2 C 0.2905(4) 0.5045(4) 0.7794(3)
N7_2 N 0.1738(5) 0.4512(4) 0.6583(3)
N8_2 N 0.2256(5) 0.4422(4) 0.7051(3)
H16_2 H 0.217088 0.411089 0.702343
C40_2 C 0.0941(4) 0.3274(4) 0.6173(3)
N9_2 N 0.1665(5) 0.5316(4) 0.6300(3)
N10_2 N 0.2218(5) 0.5214(4) 0.6793(3)
C41_2 C 0.1931(5) 0.7265(4) 0.6252(3)
C42_2 C 0.0421(5) 0.3641(4) 0.5736(3)
N11_2 N 0.2157(5) 0.5965(4) 0.6516(3)
H17_2 H 0.239346 0.603973 0.666281
C43_2 C 0.2609(5) 0.4992(4) 0.7502(4)
H18_2 H 0.244396 0.527083 0.740663
C44_2 C 0.2003(6) 0.5469(5) 0.6529(4)
C45_2 C 0.2086(5) 0.6849(4) 0.6433(3)
H19_2 H 0.225292 0.688883 0.664651
C46_2 C 0.1733(5) 0.6309(5) 0.5998(4)
H20_2 H 0.165904 0.598677 0.591363
C47_2 C 0.2805(6) 0.4111(4) 0.7499(4)
H21_2 H 0.277339 0.379180 0.739819
C48_2 C 0.2557(6) 0.4516(4) 0.7347(4)
C49_2 C 0.1999(5) 0.6369(5) 0.6306(4)
C50_2 C 0.0618(5) 0.4109(5) 0.5812(4)
H22_2 H 0.050010 0.439279 0.569301
N12_2 N 0.1197(5) 0.4648(4) 0.6116(4)
H23_2 H 0.107794 0.487457 0.597578
C51_2 C 0.1140(5) 0.3739(5) 0.6252(4)
H24_2 H 0.137618 0.377010 0.643292
C52_2 C 0.0991(6) 0.4159(4) 0.6066(4)
C53_2 C 0.2079(6) 0.4735(5) 0.6804(4)
C54_2 C 0.1548(7) 0.4820(5) 0.6346(4)
Cu14_2 Cu 0.05654(7) 0.70063(7) 0.500000
O26_2 O 0.0578(3) 0.1798(3) 0.6752(2)
O27_3 O 0.1206(3) 0.6236(3) 0.4628(2)
O28_3 O 0.0194(3) 0.6021(3) 0.4649(2)
O30_2 O 0.2727(3) 0.7197(3) 0.8310(2)
O32_2 O 0.1435(3) 0.1217(3) 0.6754(2)
O33_2 O 0.2105(3) 0.6370(3) 0.8348(2)
Cu3_2 Cu 0.94346(7) 0.29937(7) 0.500000
O1_2 O 0.7321(3) 0.4094(3) 0.7838(2)
O2_2 O 0.6798(3) 0.4422(3) 0.8248(2)
O3_2 O 0.8794(3) 0.3764(3) 0.5372(2)
O5_2 O 0.7727(3) 0.2197(3) 0.6690(2)
O6_2 O 0.6435(3) 0.6217(3) 0.8246(2)
O7_2 O 0.9001(3) 0.7602(3) 0.6254(2)
O8_2 O 0.8630(3) 0.7105(3) 0.6652(2)
O10_2 O 0.8928(3) 0.2941(3) 0.5359(2)
C1_2 C 0.8886(4) 0.7181(3) 0.6374(3)
C2_2 C 0.8745(4) 0.3323(4) 0.5490(3)
C3_2 C 0.9985(5) 0.6397(5) 0.5462(3)
C4_2 C 0.7065(5) 0.4447(4) 0.7977(3)
C5_2 C 0.6864(4) 0.5358(4) 0.7948(3)
H1_2 H 0.667945 0.531596 0.815445
C6_2 C 0.6904(4) 0.5831(4) 0.7796(3)
C7_2 C 0.6667(3) 0.6288(4) 0.7958(3)
C8_2 C 0.8336(4) 0.2787(4) 0.5944(3)
H2_2 H 0.845619 0.250351 0.582610
C9_2 C 0.8424(5) 0.3264(4) 0.5812(3)
C10_2 C 0.9421(4) 0.6780(4) 0.5916(3)
H3_2 H 0.955676 0.709648 0.586535
C11_2 C 0.7988(5) 0.2215(4) 0.6411(3)
C12_2 C 0.7095(4) 0.4955(4) 0.7794(3)
N1_2 N 0.8262(5) 0.5488(4) 0.6583(3)
N2_2 N 0.7744(5) 0.5578(4) 0.7051(3)
H4_2 H 0.782912 0.588911 0.702343
C13_2 C 0.9059(4) 0.6726(4) 0.6173(3)
N3_2 N 0.8335(5) 0.4684(4) 0.6300(3)
N4_2 N 0.7782(5) 0.4786(4) 0.6793(3)
C14_2 C 0.8069(5) 0.2735(4) 0.6252(3)
C15_2 C 0.9579(5) 0.6359(4) 0.5736(3)
N5_2 N 0.7843(5) 0.4035(4) 0.6516(3)
H5_2 H 0.760654 0.396027 0.666281
C16_2 C 0.7391(5) 0.5008(4) 0.7502(4)
H6_2 H 0.755604 0.472917 0.740663
C17_2 C 0.7997(6) 0.4531(5) 0.6529(4)
C18_2 C 0.7914(5) 0.3151(4) 0.6433(3)
H7_2 H 0.774708 0.311117 0.664651
C19_2 C 0.8267(5) 0.3691(5) 0.5998(4)
H8_2 H 0.834096 0.401323 0.591363
C20_2 C 0.7195(6) 0.5889(4) 0.7499(4)
H9_2 H 0.722661 0.620820 0.739819
C21_2 C 0.7443(6) 0.5484(4) 0.7347(4)
C22_2 C 0.8001(5) 0.3631(5) 0.6306(4)
C23_2 C 0.9382(5) 0.5891(5) 0.5812(4)
H10_2 H 0.949990 0.560721 0.569301
N6_2 N 0.8803(5) 0.5352(4) 0.6116(4)
H11_2 H 0.892206 0.512543 0.597578
C24_2 C 0.8860(5) 0.6261(5) 0.6252(4)
H12_2 H 0.862382 0.622990 0.643292
C25_2 C 0.9009(6) 0.5841(4) 0.6066(4)
C26_2 C 0.7921(6) 0.5265(5) 0.6804(4)
C27_2 C 0.8452(7) 0.5180(5) 0.6346(4)
O16_2 O 0.9806(3) 0.3979(3) 0.5351(2)
O24_2 O 0.9933(3) 0.3145(3) 0.5358(2)
Cu7_2 Cu 0.92829(7) 0.39148(7) 0.500000
O25_2 O 0.9422(3) 0.8202(3) 0.6752(2)
O29_2 O 0.7273(3) 0.2803(3) 0.8310(2)
O31_2 O 0.8565(3) 0.8783(3) 0.6754(2)
O34_2 O 0.7895(3) 0.3630(3) 0.8348(2)
O37_3 O 0.8928(3) 0.2941(3) 0.4641(2)
O40_3 O 0.9933(3) 0.3145(3) 0.4642(2)
O37_4 O 0.1072(3) 0.7059(3) 0.4641(2)
O40_4 O 0.0067(3) 0.6855(3) 0.4642(2)
O27_4 O 0.8794(3) 0.3764(3) 0.4628(2)
O28_4 O 0.9806(3) 0.3979(3) 0.4649(2)
Cu1_3 Cu 0.10852(7) 0.42829(7) 0.000000
Cu4_2 Cu 0.32197(5) 0.61932(5) 0.14823(4)
O4_3 O 0.1021(3) 0.4806(3) 0.0351(2)
O6_3 O 0.1217(3) 0.8565(3) 0.3246(2)
O7_3 O 0.2602(3) 0.5999(3) 0.1254(2)
O8_3 O 0.2105(3) 0.6370(3) 0.1652(2)
O11_2 O 0.1709(3) 0.8259(3) 0.2816(2)
O12_3 O 0.1855(3) 0.4933(3) 0.0358(2)
C1_3 C 0.2181(3) 0.6114(4) 0.1374(3)
C3_3 C 0.1397(5) 0.5015(5) 0.0462(3)
C5_3 C 0.0358(4) 0.8136(4) 0.2948(3)
H1_3 H 0.031596 0.832055 0.315445
C6_3 C 0.0831(4) 0.8096(4) 0.2796(3)
C7_3 C 0.1288(4) 0.8333(3) 0.2958(3)
C10_3 C 0.1780(4) 0.5579(4) 0.0916(3)
H3_3 H 0.209648 0.544324 0.086535
N1_3 N 0.0488(4) 0.6738(5) 0.1583(3)
N2_3 N 0.0578(4) 0.7256(5) 0.2051(3)
H4_3 H 0.088911 0.717088 0.202343
C13_3 C 0.1726(4) 0.5941(4) 0.1173(3)
C15_3 C 0.1359(4) 0.5421(5) 0.0736(3)
C16_3 C 0.0008(4) 0.7609(5) 0.2502(4)
C20_3 C 0.0889(4) 0.7805(6) 0.2499(4)
H9_3 H 0.120820 0.777339 0.239819
C21_3 C 0.0484(4) 0.7557(6) 0.2347(4)
C23_3 C 0.0891(5) 0.5618(5) 0.0812(4)
H10_3 H 0.060721 0.550010 0.069301
N6_3 N 0.0352(4) 0.6197(5) 0.1116(4)
H11_3 H 0.012543 0.607794 0.097578
C24_3 C 0.1261(5) 0.6140(5) 0.1252(4)
H12_3 H 0.122990 0.637618 0.143292
C25_3 C 0.0841(4) 0.5991(6) 0.1066(4)
C26_3 C 0.0265(5) 0.7079(6) 0.1804(4)
C27_3 C 0.0180(5) 0.6548(7) 0.1346(4)
Cu5_2 Cu 0.15662(5) 0.23252(5) 0.30571(4)
O13_3 O 0.0906(3) 0.2321(3) 0.2838(2)
O14_3 O 0.0578(3) 0.1798(3) 0.3248(2)
O15_3 O 0.1236(3) 0.3794(3) 0.0372(2)
O17_3 O 0.2803(3) 0.2727(3) 0.1690(2)
O21_2 O 0.3152(3) 0.3193(3) 0.1258(2)
O22_3 O 0.2059(3) 0.3928(3) 0.0359(2)
C29_3 C 0.1677(4) 0.3745(4) 0.0490(3)
C31_3 C 0.0553(4) 0.2065(5) 0.2977(3)
C35_3 C 0.2213(4) 0.3336(4) 0.0944(3)
H14_3 H 0.249649 0.345619 0.082610
C36_3 C 0.1736(4) 0.3424(5) 0.0812(3)
C38_3 C 0.2785(4) 0.2988(5) 0.1411(3)
C39_3 C 0.0045(4) 0.2095(4) 0.2794(3)
N9_3 N 0.0316(4) 0.3335(5) 0.1300(3)
N10_3 N 0.0214(4) 0.2782(5) 0.1793(3)
C41_3 C 0.2265(4) 0.3069(5) 0.1252(3)
N11_3 N 0.0965(4) 0.2843(5) 0.1516(3)
H17_3 H 0.103973 0.260654 0.166281
H18_3 H 0.027083 0.255604 0.240663
C44_3 C 0.0469(5) 0.2997(6) 0.1529(4)
C45_3 C 0.1849(4) 0.2914(5) 0.1433(3)
H19_3 H 0.188883 0.274708 0.164651
C46_3 C 0.1309(5) 0.3267(5) 0.0998(4)
H20_3 H 0.098677 0.334096 0.091363
C49_3 C 0.1369(5) 0.3001(5) 0.1306(4)
Cu8_2 Cu 0.23252(5) 0.84338(5) 0.30571(4)
Cu11_2 Cu 0.34338(5) 0.26748(5) 0.19429(4)
Cu12_2 Cu 0.26748(5) 0.65662(5) 0.19429(4)
Cu14_3 Cu 0.20063(7) 0.44346(7) 0.000000
Cu15_2 Cu 0.38068(5) 0.32197(5) 0.14823(4)
Cu17_2 Cu 0.17803(5) 0.88068(5) 0.35177(4)
Cu19_2 Cu 0.11932(5) 0.17803(5) 0.35177(4)
O25_3 O 0.3202(3) 0.5578(3) 0.1752(2)
O30_3 O 0.2197(3) 0.2273(3) 0.3310(2)
O31_3 O 0.3783(3) 0.6435(3) 0.1754(2)
O33_3 O 0.1370(3) 0.2895(3) 0.3348(2)
O35_2 O 0.3193(3) 0.6848(3) 0.1258(2)
O38_2 O 0.1741(3) 0.1709(3) 0.2816(2)
Cu1_4 Cu 0.10852(7) 0.42829(7) 1.000000
Cu14_4 Cu 0.20063(7) 0.44346(7) 1.000000
O27_5 O 0.1236(3) 0.3794(3) 0.9628(2)
O28_5 O 0.1021(3) 0.4806(3) 0.9649(2)
Cu2_2 Cu 0.84338(5) 0.76748(5) 0.30571(4)
Cu3_3 Cu 0.79937(7) 0.55654(7) 0.000000
O1_3 O 0.9094(3) 0.7679(3) 0.2838(2)
O2_3 O 0.9422(3) 0.8202(3) 0.3248(2)
O3_3 O 0.8764(3) 0.6206(3) 0.0372(2)
O5_3 O 0.7197(3) 0.7273(3) 0.1690(2)
O9_2 O 0.6848(3) 0.6807(3) 0.1258(2)
O10_3 O 0.7941(3) 0.6072(3) 0.0359(2)
C2_3 C 0.8323(4) 0.6255(4) 0.0490(3)
C4_3 C 0.9447(4) 0.7935(5) 0.2977(3)
C8_3 C 0.7787(4) 0.6664(4) 0.0944(3)
H2_3 H 0.750351 0.654381 0.082610
C9_3 C 0.8264(4) 0.6576(5) 0.0812(3)
C11_3 C 0.7215(4) 0.7012(5) 0.1411(3)
C12_3 C 0.9955(4) 0.7905(4) 0.2794(3)
N3_3 N 0.9684(4) 0.6665(5) 0.1300(3)
N4_3 N 0.9786(4) 0.7218(5) 0.1793(3)
C14_3 C 0.7735(4) 0.6931(5) 0.1252(3)
N5_3 N 0.9035(4) 0.7157(5) 0.1516(3)
H5_3 H 0.896027 0.739346 0.166281
H6_3 H 0.972917 0.744396 0.240663
C17_3 C 0.9531(5) 0.7003(6) 0.1529(4)
C18_3 C 0.8151(4) 0.7086(5) 0.1433(3)
H7_3 H 0.811117 0.725292 0.164651
C19_3 C 0.8691(5) 0.6733(5) 0.0998(4)
H8_3 H 0.901323 0.665904 0.091363
C22_3 C 0.8631(5) 0.6999(5) 0.1306(4)
Cu6_2 Cu 0.67803(5) 0.38068(5) 0.14823(4)
O16_3 O 0.8979(3) 0.5194(3) 0.0351(2)
O18_3 O 0.8783(3) 0.1435(3) 0.3246(2)
O19_3 O 0.7398(3) 0.4001(3) 0.1254(2)
O20_3 O 0.7895(3) 0.3630(3) 0.1652(2)
O23_2 O 0.8291(3) 0.1741(3) 0.2816(2)
O24_3 O 0.8145(3) 0.5067(3) 0.0358(2)
C28_3 C 0.7819(3) 0.3886(4) 0.1374(3)
C30_3 C 0.8603(5) 0.4985(5) 0.0462(3)
C32_3 C 0.9642(4) 0.1864(4) 0.2948(3)
H13_3 H 0.968404 0.167945 0.315445
C33_3 C 0.9169(4) 0.1904(4) 0.2796(3)
C34_3 C 0.8712(4) 0.1667(3) 0.2958(3)
C37_3 C 0.8220(4) 0.4421(4) 0.0916(3)
H15_3 H 0.790352 0.455676 0.086535
N7_3 N 0.9512(4) 0.3262(5) 0.1583(3)
N8_3 N 0.9422(4) 0.2744(5) 0.2051(3)
H16_3 H 0.911089 0.282912 0.202343
C40_3 C 0.8274(4) 0.4059(4) 0.1173(3)
C42_3 C 0.8641(4) 0.4579(5) 0.0736(3)
C43_3 C 0.9992(4) 0.2391(5) 0.2502(4)
C47_3 C 0.9111(4) 0.2195(6) 0.2499(4)
H21_3 H 0.879180 0.222661 0.239819
C48_3 C 0.9516(4) 0.2443(6) 0.2347(4)
C50_3 C 0.9109(5) 0.4382(5) 0.0812(4)
H22_3 H 0.939279 0.449990 0.069301
N12_3 N 0.9648(4) 0.3803(5) 0.1116(4)
H23_3 H 0.987457 0.392206 0.097578
C51_3 C 0.8739(5) 0.3860(5) 0.1252(4)
H24_3 H 0.877010 0.362382 0.143292
C52_3 C 0.9159(4) 0.4009(6) 0.1066(4)
C53_3 C 0.9735(5) 0.2921(6) 0.1804(4)
C54_3 C 0.9820(5) 0.3452(7) 0.1346(4)
Cu7_3 Cu 0.89148(7) 0.57171(7) 0.000000
Cu9_2 Cu 0.76748(5) 0.15662(5) 0.30571(4)
Cu10_2 Cu 0.65662(5) 0.73252(5) 0.19429(4)
Cu13_2 Cu 0.73252(5) 0.34338(5) 0.19429(4)
Cu16_2 Cu 0.61932(5) 0.67803(5) 0.14823(4)
Cu18_2 Cu 0.82197(5) 0.11932(5) 0.35177(4)
Cu20_2 Cu 0.88068(5) 0.82197(5) 0.35177(4)
O26_3 O 0.6798(3) 0.4422(3) 0.1752(2)
O29_3 O 0.7803(3) 0.7727(3) 0.3310(2)
O32_3 O 0.6217(3) 0.3565(3) 0.1754(2)
O34_3 O 0.8630(3) 0.7105(3) 0.3348(2)
O36_2 O 0.6807(3) 0.3152(3) 0.1258(2)
O39_2 O 0.8259(3) 0.8291(3) 0.2816(2)
Cu3_4 Cu 0.79937(7) 0.55654(7) 1.000000
Cu7_4 Cu 0.89148(7) 0.57171(7) 1.000000
O37_5 O 0.7941(3) 0.6072(3) 0.9641(2)
O40_5 O 0.8145(3) 0.5067(3) 0.9642(2)
O37_6 O 0.2059(3) 0.3928(3) 0.9641(2)
O40_6 O 0.1855(3) 0.4933(3) 0.9642(2)
O27_6 O 0.8764(3) 0.6206(3) 0.9628(2)
O28_6 O 0.8979(3) 0.5194(3) 0.9649(2)
Cu1_5 Cu 0.57171(7) 0.10852(7) 0.000000
O4_4 O 0.5194(3) 0.1021(3) 0.0351(2)
O6_4 O 0.1435(3) 0.1217(3) 0.3246(2)
O7_4 O 0.4001(3) 0.2602(3) 0.1254(2)
O8_4 O 0.3630(3) 0.2105(3) 0.1652(2)
O12_4 O 0.5067(3) 0.1855(3) 0.0358(2)
C1_4 C 0.3886(4) 0.2181(3) 0.1374(3)
C3_4 C 0.4985(5) 0.1397(5) 0.0462(3)
C5_4 C 0.1864(4) 0.0358(4) 0.2948(3)
H1_4 H 0.167945 0.031596 0.315445
C6_4 C 0.1904(4) 0.0831(4) 0.2796(3)
C7_4 C 0.1667(3) 0.1288(4) 0.2958(3)
C10_4 C 0.4421(4) 0.1780(4) 0.0916(3)
H3_4 H 0.455676 0.209648 0.086535
N1_4 N 0.3262(5) 0.0488(4) 0.1583(3)
N2_4 N 0.2744(5) 0.0578(4) 0.2051(3)
H4_4 H 0.282912 0.088911 0.202343
C13_4 C 0.4059(4) 0.1726(4) 0.1173(3)
C15_4 C 0.4579(5) 0.1359(4) 0.0736(3)
C16_4 C 0.2391(5) 0.0008(4) 0.2502(4)
C20_4 C 0.2195(6) 0.0889(4) 0.2499(4)
H9_4 H 0.222661 0.120820 0.239819
C21_4 C 0.2443(6) 0.0484(4) 0.2347(4)
C23_4 C 0.4382(5) 0.0891(5) 0.0812(4)
H10_4 H 0.449990 0.060721 0.069301
N6_4 N 0.3803(5) 0.0352(4) 0.1116(4)
H11_4 H 0.392206 0.012543 0.097578
C24_4 C 0.3860(5) 0.1261(5) 0.1252(4)
H12_4 H 0.362382 0.122990 0.143292
C25_4 C 0.4009(6) 0.0841(4) 0.1066(4)
C26_4 C 0.2921(6) 0.0265(5) 0.1804(4)
C27_4 C 0.3452(7) 0.0180(5) 0.1346(4)
O13_4 O 0.7679(3) 0.0906(3) 0.2838(2)
O14_4 O 0.8202(3) 0.0578(3) 0.3248(2)
O15_4 O 0.6206(3) 0.1236(3) 0.0372(2)
O17_4 O 0.7273(3) 0.2803(3) 0.1690(2)
O22_4 O 0.6072(3) 0.2059(3) 0.0359(2)
C29_4 C 0.6255(4) 0.1677(4) 0.0490(3)
C31_4 C 0.7935(5) 0.0553(4) 0.2977(3)
C35_4 C 0.6664(4) 0.2213(4) 0.0944(3)
H14_4 H 0.654381 0.249649 0.082610
C36_4 C 0.6576(5) 0.1736(4) 0.0812(3)
C38_4 C 0.7012(5) 0.2785(4) 0.1411(3)
C39_4 C 0.7905(4) 0.0045(4) 0.2794(3)
N9_4 N 0.6665(5) 0.0316(4) 0.1300(3)
N10_4 N 0.7218(5) 0.0214(4) 0.1793(3)
C41_4 C 0.6931(5) 0.2265(4) 0.1252(3)
N11_4 N 0.7157(5) 0.0965(4) 0.1516(3)
H17_4 H 0.739346 0.103973 0.166281
H18_4 H 0.744396 0.027083 0.240663
C44_4 C 0.7003(6) 0.0469(5) 0.1529(4)
C45_4 C 0.7086(5) 0.1849(4) 0.1433(3)
H19_4 H 0.725292 0.188883 0.164651
C46_4 C 0.6733(5) 0.1309(5) 0.0998(4)
H20_4 H 0.665904 0.098677 0.091363
C49_4 C 0.6999(5) 0.1369(5) 0.1306(4)
Cu14_5 Cu 0.55654(7) 0.20063(7) 0.000000
O25_4 O 0.4422(3) 0.3202(3) 0.1752(2)
O30_4 O 0.7727(3) 0.2197(3) 0.3310(2)
O31_4 O 0.3565(3) 0.3783(3) 0.1754(2)
O33_4 O 0.7105(3) 0.1370(3) 0.3348(2)
Cu1_6 Cu 0.57171(7) 0.10852(7) 1.000000
Cu14_6 Cu 0.55654(7) 0.20063(7) 1.000000
O27_7 O 0.6206(3) 0.1236(3) 0.9628(2)
O28_7 O 0.5194(3) 0.1021(3) 0.9649(2)
Cu3_5 Cu 0.44346(7) 0.79937(7) 0.000000
O1_4 O 0.2321(3) 0.9094(3) 0.2838(2)
O2_4 O 0.1798(3) 0.9422(3) 0.3248(2)
O3_4 O 0.3794(3) 0.8764(3) 0.0372(2)
O5_4 O 0.2727(3) 0.7197(3) 0.1690(2)
O10_4 O 0.3928(3) 0.7941(3) 0.0359(2)
C2_4 C 0.3745(4) 0.8323(4) 0.0490(3)
C4_4 C 0.2065(5) 0.9447(4) 0.2977(3)
C8_4 C 0.3336(4) 0.7787(4) 0.0944(3)
H2_4 H 0.345619 0.750351 0.082610
C9_4 C 0.3424(5) 0.8264(4) 0.0812(3)
C11_4 C 0.2988(5) 0.7215(4) 0.1411(3)
C12_4 C 0.2095(4) 0.9955(4) 0.2794(3)
N3_4 N 0.3335(5) 0.9684(4) 0.1300(3)
N4_4 N 0.2782(5) 0.9786(4) 0.1793(3)
C14_4 C 0.3069(5) 0.7735(4) 0.1252(3)
N5_4 N 0.2843(5) 0.9035(4) 0.1516(3)
H5_4 H 0.260654 0.896027 0.166281
H6_4 H 0.255604 0.972917 0.240663
C17_4 C 0.2997(6) 0.9531(5) 0.1529(4)
C18_4 C 0.2914(5) 0.8151(4) 0.1433(3)
H7_4 H 0.274708 0.811117 0.164651
C19_4 C 0.3267(5) 0.8691(5) 0.0998(4)
H8_4 H 0.334096 0.901323 0.091363
C22_4 C 0.3001(5) 0.8631(5) 0.1306(4)
O16_4 O 0.4806(3) 0.8979(3) 0.0351(2)
O18_4 O 0.8565(3) 0.8783(3) 0.3246(2)
O19_4 O 0.5999(3) 0.7398(3) 0.1254(2)
O20_4 O 0.6370(3) 0.7895(3) 0.1652(2)
O24_4 O 0.4933(3) 0.8145(3) 0.0358(2)
C28_4 C 0.6114(4) 0.7819(3) 0.1374(3)
C30_4 C 0.5015(5) 0.8603(5) 0.0462(3)
C32_4 C 0.8136(4) 0.9642(4) 0.2948(3)
H13_4 H 0.832055 0.968404 0.315445
C33_4 C 0.8096(4) 0.9169(4) 0.2796(3)
C34_4 C 0.8333(3) 0.8712(4) 0.2958(3)
C37_4 C 0.5579(4) 0.8220(4) 0.0916(3)
H15_4 H 0.544324 0.790352 0.086535
N7_4 N 0.6738(5) 0.9512(4) 0.1583(3)
N8_4 N 0.7256(5) 0.9422(4) 0.2051(3)
H16_4 H 0.717088 0.911089 0.202343
C40_4 C 0.5941(4) 0.8274(4) 0.1173(3)
C42_4 C 0.5421(5) 0.8641(4) 0.0736(3)
C43_4 C 0.7609(5) 0.9992(4) 0.2502(4)
C47_4 C 0.7805(6) 0.9111(4) 0.2499(4)
H21_4 H 0.777339 0.879180 0.239819
C48_4 C 0.7557(6) 0.9516(4) 0.2347(4)
C50_4 C 0.5618(5) 0.9109(5) 0.0812(4)
H22_4 H 0.550010 0.939279 0.069301
N12_4 N 0.6197(5) 0.9648(4) 0.1116(4)
H23_4 H 0.607794 0.987457 0.097578
C51_4 C 0.6140(5) 0.8739(5) 0.1252(4)
H24_4 H 0.637618 0.877010 0.143292
C52_4 C 0.5991(6) 0.9159(4) 0.1066(4)
C53_4 C 0.7079(6) 0.9735(5) 0.1804(4)
C54_4 C 0.6548(7) 0.9820(5) 0.1346(4)
Cu7_5 Cu 0.42829(7) 0.89148(7) 0.000000
O26_4 O 0.5578(3) 0.6798(3) 0.1752(2)
O29_4 O 0.2273(3) 0.7803(3) 0.3310(2)
O32_4 O 0.6435(3) 0.6217(3) 0.1754(2)
O34_4 O 0.2895(3) 0.8630(3) 0.3348(2)
Cu3_6 Cu 0.44346(7) 0.79937(7) 1.000000
Cu7_6 Cu 0.42829(7) 0.89148(7) 1.000000
O37_7 O 0.3928(3) 0.7941(3) 0.9641(2)
O40_7 O 0.4933(3) 0.8145(3) 0.9642(2)
O37_8 O 0.6072(3) 0.2059(3) 0.9641(2)
O40_8 O 0.5067(3) 0.1855(3) 0.9642(2)
O27_8 O 0.3794(3) 0.8764(3) 0.9628(2)
O28_8 O 0.4806(3) 0.8979(3) 0.9649(2)
O13_5 O 0.4094(3) 0.2679(3) 0.2162(2)
O19_5 O 0.7602(3) 0.0999(3) 0.3746(2)
O21_3 O 0.1848(3) 0.1807(3) 0.3742(2)
O23_3 O 0.6709(3) 0.3259(3) 0.2184(2)
C28_5 C 0.7181(3) 0.1114(4) 0.3626(3)
C29_5 C 0.3323(4) 0.1255(4) 0.4510(3)
C30_5 C 0.6397(5) 0.0015(5) 0.4538(3)
C31_5 C 0.4447(4) 0.2935(5) 0.2023(3)
C32_5 C 0.5358(4) 0.3136(4) 0.2052(3)
H13_5 H 0.531596 0.332055 0.184555
C33_5 C 0.5831(4) 0.3096(4) 0.2204(3)
C34_5 C 0.6288(4) 0.3333(3) 0.2042(3)
C35_5 C 0.2787(4) 0.1664(4) 0.4056(3)
H14_5 H 0.250351 0.154381 0.417390
C36_5 C 0.3264(4) 0.1576(5) 0.4188(3)
C37_5 C 0.6780(4) 0.0579(4) 0.4084(3)
H15_5 H 0.709648 0.044324 0.413465
C38_5 C 0.2215(4) 0.2012(5) 0.3589(3)
C39_5 C 0.4955(4) 0.2905(4) 0.2206(3)
N7_5 N 0.5488(4) 0.1738(5) 0.3417(3)
N8_5 N 0.5578(4) 0.2256(5) 0.2949(3)
H16_5 H 0.588911 0.217088 0.297657
C40_5 C 0.6726(4) 0.0941(4) 0.3827(3)
N9_5 N 0.4684(4) 0.1665(5) 0.3700(3)
N10_5 N 0.4786(4) 0.2218(5) 0.3207(3)
C41_5 C 0.2735(4) 0.1931(5) 0.3748(3)
C42_5 C 0.6359(4) 0.0421(5) 0.4264(3)
N11_5 N 0.4035(4) 0.2157(5) 0.3484(3)
H17_5 H 0.396027 0.239346 0.333719
C43_5 C 0.5008(4) 0.2609(5) 0.2498(4)
H18_5 H 0.472917 0.244396 0.259337
C44_5 C 0.4531(5) 0.2003(6) 0.3471(4)
C45_5 C 0.3151(4) 0.2086(5) 0.3567(3)
H19_5 H 0.311117 0.225292 0.335349
C46_5 C 0.3691(5) 0.1733(5) 0.4002(4)
H20_5 H 0.401323 0.165904 0.408637
C47_5 C 0.5889(4) 0.2805(6) 0.2501(4)
H21_5 H 0.620820 0.277339 0.260181
C48_5 C 0.5484(4) 0.2557(6) 0.2653(4)
C49_5 C 0.3631(5) 0.1999(5) 0.3694(4)
C50_5 C 0.5891(5) 0.0618(5) 0.4188(4)
H22_5 H 0.560721 0.050010 0.430699
N12_5 N 0.5352(4) 0.1197(5) 0.3884(4)
H23_5 H 0.512543 0.107794 0.402422
C51_5 C 0.6261(5) 0.1140(5) 0.3748(4)
H24_5 H 0.622990 0.137618 0.356708
C52_5 C 0.5841(4) 0.0991(6) 0.3934(4)
C53_5 C 0.5265(5) 0.2079(6) 0.3196(4)
C54_5 C 0.5180(5) 0.1548(7) 0.3654(4)
O36_3 O 0.8193(3) 0.1848(3) 0.3742(2)
O38_3 O 0.3259(3) 0.3291(3) 0.2184(2)
O1_5 O 0.5906(3) 0.7321(3) 0.2162(2)
O7_5 O 0.2398(3) 0.9001(3) 0.3746(2)
O9_3 O 0.8152(3) 0.8193(3) 0.3742(2)
O11_3 O 0.3291(3) 0.6741(3) 0.2184(2)
C1_5 C 0.2819(3) 0.8886(4) 0.3626(3)
C2_5 C 0.6677(4) 0.8745(4) 0.4510(3)
C3_5 C 0.3603(5) 0.9985(5) 0.4538(3)
C4_5 C 0.5553(4) 0.7065(5) 0.2023(3)
C5_5 C 0.4642(4) 0.6864(4) 0.2052(3)
H1_5 H 0.468404 0.667945 0.184555
C6_5 C 0.4169(4) 0.6904(4) 0.2204(3)
C7_5 C 0.3712(4) 0.6667(3) 0.2042(3)
C8_5 C 0.7213(4) 0.8336(4) 0.4056(3)
H2_5 H 0.749649 0.845619 0.417390
C9_5 C 0.6736(4) 0.8424(5) 0.4188(3)
C10_5 C 0.3220(4) 0.9421(4) 0.4084(3)
H3_5 H 0.290352 0.955676 0.413465
C11_5 C 0.7785(4) 0.7988(5) 0.3589(3)
C12_5 C 0.5045(4) 0.7095(4) 0.2206(3)
N1_5 N 0.4512(4) 0.8262(5) 0.3417(3)
N2_5 N 0.4422(4) 0.7744(5) 0.2949(3)
H4_5 H 0.411089 0.782912 0.297657
C13_5 C 0.3274(4) 0.9059(4) 0.3827(3)
N3_5 N 0.5316(4) 0.8335(5) 0.3700(3)
N4_5 N 0.5214(4) 0.7782(5) 0.3207(3)
C14_5 C 0.7265(4) 0.8069(5) 0.3748(3)
C15_5 C 0.3641(4) 0.9579(5) 0.4264(3)
N5_5 N 0.5965(4) 0.7843(5) 0.3484(3)
H5_5 H 0.603973 0.760654 0.333719
C16_5 C 0.4992(4) 0.7391(5) 0.2498(4)
H6_5 H 0.527083 0.755604 0.259337
C17_5 C 0.5469(5) 0.7997(6) 0.3471(4)
C18_5 C 0.6849(4) 0.7914(5) 0.3567(3)
H7_5 H 0.688883 0.774708 0.335349
C19_5 C 0.6309(5) 0.8267(5) 0.4002(4)
H8_5 H 0.598677 0.834096 0.408637
C20_5 C 0.4111(4) 0.7195(6) 0.2501(4)
H9_5 H 0.379180 0.722661 0.260181
C21_5 C 0.4516(4) 0.7443(6) 0.2653(4)
C22_5 C 0.6369(5) 0.8001(5) 0.3694(4)
C23_5 C 0.4109(5) 0.9382(5) 0.4188(4)
H10_5 H 0.439279 0.949990 0.430699
N6_5 N 0.4648(4) 0.8803(5) 0.3884(4)
H11_5 H 0.487457 0.892206 0.402422
C24_5 C 0.3739(5) 0.8860(5) 0.3748(4)
H12_5 H 0.377010 0.862382 0.356708
C25_5 C 0.4159(4) 0.9009(6) 0.3934(4)
C26_5 C 0.4735(5) 0.7921(6) 0.3196(4)
C27_5 C 0.4820(5) 0.8452(7) 0.3654(4)
O35_3 O 0.1807(3) 0.8152(3) 0.3742(2)
O39_3 O 0.6741(3) 0.6709(3) 0.2184(2)
O1_6 O 0.2679(3) 0.5906(3) 0.2162(2)
O7_6 O 0.0999(3) 0.2398(3) 0.3746(2)
C1_6 C 0.1114(4) 0.2819(3) 0.3626(3)
C2_6 C 0.1255(4) 0.6677(4) 0.4510(3)
C3_6 C 0.0015(5) 0.3603(5) 0.4538(3)
C4_6 C 0.2935(5) 0.5553(4) 0.2023(3)
C5_6 C 0.3136(4) 0.4642(4) 0.2052(3)
H1_6 H 0.332055 0.468404 0.184555
C6_6 C 0.3096(4) 0.4169(4) 0.2204(3)
C7_6 C 0.3333(3) 0.3712(4) 0.2042(3)
C8_6 C 0.1664(4) 0.7213(4) 0.4056(3)
H2_6 H 0.154381 0.749649 0.417390
C9_6 C 0.1576(5) 0.6736(4) 0.4188(3)
C10_6 C 0.0579(4) 0.3220(4) 0.4084(3)
H3_6 H 0.044324 0.290352 0.413465
C11_6 C 0.2012(5) 0.7785(4) 0.3589(3)
C12_6 C 0.2905(4) 0.5045(4) 0.2206(3)
N1_6 N 0.1738(5) 0.4512(4) 0.3417(3)
N2_6 N 0.2256(5) 0.4422(4) 0.2949(3)
H4_6 H 0.217088 0.411089 0.297657
C13_6 C 0.0941(4) 0.3274(4) 0.3827(3)
N3_6 N 0.1665(5) 0.5316(4) 0.3700(3)
N4_6 N 0.2218(5) 0.5214(4) 0.3207(3)
C14_6 C 0.1931(5) 0.7265(4) 0.3748(3)
C15_6 C 0.0421(5) 0.3641(4) 0.4264(3)
N5_6 N 0.2157(5) 0.5965(4) 0.3484(3)
H5_6 H 0.239346 0.603973 0.333719
C16_6 C 0.2609(5) 0.4992(4) 0.2498(4)
H6_6 H 0.244396 0.527083 0.259337
C17_6 C 0.2003(6) 0.5469(5) 0.3471(4)
C18_6 C 0.2086(5) 0.6849(4) 0.3567(3)
H7_6 H 0.225292 0.688883 0.335349
C19_6 C 0.1733(5) 0.6309(5) 0.4002(4)
H8_6 H 0.165904 0.598677 0.408637
C20_6 C 0.2805(6) 0.4111(4) 0.2501(4)
H9_6 H 0.277339 0.379180 0.260181
C21_6 C 0.2557(6) 0.4516(4) 0.2653(4)
C22_6 C 0.1999(5) 0.6369(5) 0.3694(4)
C23_6 C 0.0618(5) 0.4109(5) 0.4188(4)
H10_6 H 0.050010 0.439279 0.430699
N6_6 N 0.1197(5) 0.4648(4) 0.3884(4)
H11_6 H 0.107794 0.487457 0.402422
C24_6 C 0.1140(5) 0.3739(5) 0.3748(4)
H12_6 H 0.137618 0.377010 0.356708
C25_6 C 0.0991(6) 0.4159(4) 0.3934(4)
C26_6 C 0.2079(6) 0.4735(5) 0.3196(4)
C27_6 C 0.1548(7) 0.4820(5) 0.3654(4)
O13_6 O 0.7321(3) 0.4094(3) 0.2162(2)
O19_6 O 0.9001(3) 0.7602(3) 0.3746(2)
C28_6 C 0.8886(4) 0.7181(3) 0.3626(3)
C29_6 C 0.8745(4) 0.3323(4) 0.4510(3)
C30_6 C 0.9985(5) 0.6397(5) 0.4538(3)
C31_6 C 0.7065(5) 0.4447(4) 0.2023(3)
C32_6 C 0.6864(4) 0.5358(4) 0.2052(3)
H13_6 H 0.667945 0.531596 0.184555
C33_6 C 0.6904(4) 0.5831(4) 0.2204(3)
C34_6 C 0.6667(3) 0.6288(4) 0.2042(3)
C35_6 C 0.8336(4) 0.2787(4) 0.4056(3)
H14_6 H 0.845619 0.250351 0.417390
C36_6 C 0.8424(5) 0.3264(4) 0.4188(3)
C37_6 C 0.9421(4) 0.6780(4) 0.4084(3)
H15_6 H 0.955676 0.709648 0.413465
C38_6 C 0.7988(5) 0.2215(4) 0.3589(3)
C39_6 C 0.7095(4) 0.4955(4) 0.2206(3)
N7_6 N 0.8262(5) 0.5488(4) 0.3417(3)
N8_6 N 0.7744(5) 0.5578(4) 0.2949(3)
H16_6 H 0.782912 0.588911 0.297657
C40_6 C 0.9059(4) 0.6726(4) 0.3827(3)
N9_6 N 0.8335(5) 0.4684(4) 0.3700(3)
N10_6 N 0.7782(5) 0.4786(4) 0.3207(3)
C41_6 C 0.8069(5) 0.2735(4) 0.3748(3)
C42_6 C 0.9579(5) 0.6359(4) 0.4264(3)
N11_6 N 0.7843(5) 0.4035(4) 0.3484(3)
H17_6 H 0.760654 0.396027 0.333719
C43_6 C 0.7391(5) 0.5008(4) 0.2498(4)
H18_6 H 0.755604 0.472917 0.259337
C44_6 C 0.7997(6) 0.4531(5) 0.3471(4)
C45_6 C 0.7914(5) 0.3151(4) 0.3567(3)
H19_6 H 0.774708 0.311117 0.335349
C46_6 C 0.8267(5) 0.3691(5) 0.4002(4)
H20_6 H 0.834096 0.401323 0.408637
C47_6 C 0.7195(6) 0.5889(4) 0.2501(4)
H21_6 H 0.722661 0.620820 0.260181
C48_6 C 0.7443(6) 0.5484(4) 0.2653(4)
C49_6 C 0.8001(5) 0.3631(5) 0.3694(4)
C50_6 C 0.9382(5) 0.5891(5) 0.4188(4)
H22_6 H 0.949990 0.560721 0.430699
N12_6 N 0.8803(5) 0.5352(4) 0.3884(4)
H23_6 H 0.892206 0.512543 0.402422
C51_6 C 0.8860(5) 0.6261(5) 0.3748(4)
H24_6 H 0.862382 0.622990 0.356708
C52_6 C 0.9009(6) 0.5841(4) 0.3934(4)
C53_6 C 0.7921(6) 0.5265(5) 0.3196(4)
C54_6 C 0.8452(7) 0.5180(5) 0.3654(4)
O1_7 O 0.0906(3) 0.2321(3) 0.7162(2)
O9_4 O 0.3152(3) 0.3193(3) 0.8742(2)
C2_7 C 0.1677(4) 0.3745(4) 0.9510(3)
C4_7 C 0.0553(4) 0.2065(5) 0.7023(3)
C8_7 C 0.2213(4) 0.3336(4) 0.9056(3)
H2_7 H 0.249649 0.345619 0.917390
C9_7 C 0.1736(4) 0.3424(5) 0.9188(3)
C11_7 C 0.2785(4) 0.2988(5) 0.8589(3)
C12_7 C 0.0045(4) 0.2095(4) 0.7206(3)
N3_7 N 0.0316(4) 0.3335(5) 0.8700(3)
N4_7 N 0.0214(4) 0.2782(5) 0.8207(3)
C14_7 C 0.2265(4) 0.3069(5) 0.8748(3)
N5_7 N 0.0965(4) 0.2843(5) 0.8484(3)
H5_7 H 0.103973 0.260654 0.833719
H6_7 H 0.027083 0.255604 0.759337
C17_7 C 0.0469(5) 0.2997(6) 0.8471(4)
C18_7 C 0.1849(4) 0.2914(5) 0.8567(3)
H7_7 H 0.188883 0.274708 0.835349
C19_7 C 0.1309(5) 0.3267(5) 0.9002(4)
H8_7 H 0.098677 0.334096 0.908637
C22_7 C 0.1369(5) 0.3001(5) 0.8694(4)
O19_7 O 0.2602(3) 0.5999(3) 0.8746(2)
O23_4 O 0.1709(3) 0.8259(3) 0.7184(2)
C28_7 C 0.2181(3) 0.6114(4) 0.8626(3)
C30_7 C 0.1397(5) 0.5015(5) 0.9538(3)
C32_7 C 0.0358(4) 0.8136(4) 0.7052(3)
H13_7 H 0.031596 0.832055 0.684555
C33_7 C 0.0831(4) 0.8096(4) 0.7204(3)
C34_7 C 0.1288(4) 0.8333(3) 0.7042(3)
C37_7 C 0.1780(4) 0.5579(4) 0.9084(3)
H15_7 H 0.209648 0.544324 0.913465
N7_7 N 0.0488(4) 0.6738(5) 0.8417(3)
N8_7 N 0.0578(4) 0.7256(5) 0.7949(3)
H16_7 H 0.088911 0.717088 0.797657
C40_7 C 0.1726(4) 0.5941(4) 0.8827(3)
C42_7 C 0.1359(4) 0.5421(5) 0.9264(3)
C43_7 C 0.0008(4) 0.7609(5) 0.7498(4)
C47_7 C 0.0889(4) 0.7805(6) 0.7501(4)
H21_7 H 0.120820 0.777339 0.760181
C48_7 C 0.0484(4) 0.7557(6) 0.7653(4)
C50_7 C 0.0891(5) 0.5618(5) 0.9188(4)
H22_7 H 0.060721 0.550010 0.930699
N12_7 N 0.0352(4) 0.6197(5) 0.8884(4)
H23_7 H 0.012543 0.607794 0.902422
C51_7 C 0.1261(5) 0.6140(5) 0.8748(4)
H24_7 H 0.122990 0.637618 0.856708
C52_7 C 0.0841(4) 0.5991(6) 0.8934(4)
C53_7 C 0.0265(5) 0.7079(6) 0.8196(4)
C54_7 C 0.0180(5) 0.6548(7) 0.8654(4)
O36_4 O 0.3193(3) 0.6848(3) 0.8742(2)
O39_4 O 0.1741(3) 0.1709(3) 0.7184(2)
O7_7 O 0.7398(3) 0.4001(3) 0.8746(2)
O11_4 O 0.8291(3) 0.1741(3) 0.7184(2)
C1_7 C 0.7819(3) 0.3886(4) 0.8626(3)
C3_7 C 0.8603(5) 0.4985(5) 0.9538(3)
C5_7 C 0.9642(4) 0.1864(4) 0.7052(3)
H1_7 H 0.968404 0.167945 0.684555
C6_7 C 0.9169(4) 0.1904(4) 0.7204(3)
C7_7 C 0.8712(4) 0.1667(3) 0.7042(3)
C10_7 C 0.8220(4) 0.4421(4) 0.9084(3)
H3_7 H 0.790352 0.455676 0.913465
N1_7 N 0.9512(4) 0.3262(5) 0.8417(3)
N2_7 N 0.9422(4) 0.2744(5) 0.7949(3)
H4_7 H 0.911089 0.282912 0.797657
C13_7 C 0.8274(4) 0.4059(4) 0.8827(3)
C15_7 C 0.8641(4) 0.4579(5) 0.9264(3)
C16_7 C 0.9992(4) 0.2391(5) 0.7498(4)
C20_7 C 0.9111(4) 0.2195(6) 0.7501(4)
H9_7 H 0.879180 0.222661 0.760181
C21_7 C 0.9516(4) 0.2443(6) 0.7653(4)
C23_7 C 0.9109(5) 0.4382(5) 0.9188(4)
H10_7 H 0.939279 0.449990 0.930699
N6_7 N 0.9648(4) 0.3803(5) 0.8884(4)
H11_7 H 0.987457 0.392206 0.902422
C24_7 C 0.8739(5) 0.3860(5) 0.8748(4)
H12_7 H 0.877010 0.362382 0.856708
C25_7 C 0.9159(4) 0.4009(6) 0.8934(4)
C26_7 C 0.9735(5) 0.2921(6) 0.8196(4)
C27_7 C 0.9820(5) 0.3452(7) 0.8654(4)
O13_7 O 0.9094(3) 0.7679(3) 0.7162(2)
O21_4 O 0.6848(3) 0.6807(3) 0.8742(2)
C29_7 C 0.8323(4) 0.6255(4) 0.9510(3)
C31_7 C 0.9447(4) 0.7935(5) 0.7023(3)
C35_7 C 0.7787(4) 0.6664(4) 0.9056(3)
H14_7 H 0.750351 0.654381 0.917390
C36_7 C 0.8264(4) 0.6576(5) 0.9188(3)
C38_7 C 0.7215(4) 0.7012(5) 0.8589(3)
C39_7 C 0.9955(4) 0.7905(4) 0.7206(3)
N9_7 N 0.9684(4) 0.6665(5) 0.8700(3)
N10_7 N 0.9786(4) 0.7218(5) 0.8207(3)
C41_7 C 0.7735(4) 0.6931(5) 0.8748(3)
N11_7 N 0.9035(4) 0.7157(5) 0.8484(3)
H17_7 H 0.896027 0.739346 0.833719
H18_7 H 0.972917 0.744396 0.759337
C44_7 C 0.9531(5) 0.7003(6) 0.8471(4)
C45_7 C 0.8151(4) 0.7086(5) 0.8567(3)
H19_7 H 0.811117 0.725292 0.835349
C46_7 C 0.8691(5) 0.6733(5) 0.9002(4)
H20_7 H 0.901323 0.665904 0.908637
C49_7 C 0.8631(5) 0.6999(5) 0.8694(4)
O35_4 O 0.6807(3) 0.3152(3) 0.8742(2)
O38_4 O 0.8259(3) 0.8291(3) 0.7184(2)
O1_8 O 0.7679(3) 0.0906(3) 0.7162(2)
C2_8 C 0.6255(4) 0.1677(4) 0.9510(3)
C4_8 C 0.7935(5) 0.0553(4) 0.7023(3)
C8_8 C 0.6664(4) 0.2213(4) 0.9056(3)
H2_8 H 0.654381 0.249649 0.917390
C9_8 C 0.6576(5) 0.1736(4) 0.9188(3)
C11_8 C 0.7012(5) 0.2785(4) 0.8589(3)
C12_8 C 0.7905(4) 0.0045(4) 0.7206(3)
N3_8 N 0.6665(5) 0.0316(4) 0.8700(3)
N4_8 N 0.7218(5) 0.0214(4) 0.8207(3)
C14_8 C 0.6931(5) 0.2265(4) 0.8748(3)
N5_8 N 0.7157(5) 0.0965(4) 0.8484(3)
H5_8 H 0.739346 0.103973 0.833719
H6_8 H 0.744396 0.027083 0.759337
C17_8 C 0.7003(6) 0.0469(5) 0.8471(4)
C18_8 C 0.7086(5) 0.1849(4) 0.8567(3)
H7_8 H 0.725292 0.188883 0.835349
C19_8 C 0.6733(5) 0.1309(5) 0.9002(4)
H8_8 H 0.665904 0.098677 0.908637
C22_8 C 0.6999(5) 0.1369(5) 0.8694(4)
O19_8 O 0.4001(3) 0.2602(3) 0.8746(2)
C28_8 C 0.3886(4) 0.2181(3) 0.8626(3)
C30_8 C 0.4985(5) 0.1397(5) 0.9538(3)
C32_8 C 0.1864(4) 0.0358(4) 0.7052(3)
H13_8 H 0.167945 0.031596 0.684555
C33_8 C 0.1904(4) 0.0831(4) 0.7204(3)
C34_8 C 0.1667(3) 0.1288(4) 0.7042(3)
C37_8 C 0.4421(4) 0.1780(4) 0.9084(3)
H15_8 H 0.455676 0.209648 0.913465
N7_8 N 0.3262(5) 0.0488(4) 0.8417(3)
N8_8 N 0.2744(5) 0.0578(4) 0.7949(3)
H16_8 H 0.282912 0.088911 0.797657
C40_8 C 0.4059(4) 0.1726(4) 0.8827(3)
C42_8 C 0.4579(5) 0.1359(4) 0.9264(3)
C43_8 C 0.2391(5) 0.0008(4) 0.7498(4)
C47_8 C 0.2195(6) 0.0889(4) 0.7501(4)
H21_8 H 0.222661 0.120820 0.760181
C48_8 C 0.2443(6) 0.0484(4) 0.7653(4)
C50_8 C 0.4382(5) 0.0891(5) 0.9188(4)
H22_8 H 0.449990 0.060721 0.930699
N12_8 N 0.3803(5) 0.0352(4) 0.8884(4)
H23_8 H 0.392206 0.012543 0.902422
C51_8 C 0.3860(5) 0.1261(5) 0.8748(4)
H24_8 H 0.362382 0.122990 0.856708
C52_8 C 0.4009(6) 0.0841(4) 0.8934(4)
C53_8 C 0.2921(6) 0.0265(5) 0.8196(4)
C54_8 C 0.3452(7) 0.0180(5) 0.8654(4)
O7_8 O 0.5999(3) 0.7398(3) 0.8746(2)
C1_8 C 0.6114(4) 0.7819(3) 0.8626(3)
C3_8 C 0.5015(5) 0.8603(5) 0.9538(3)
C5_8 C 0.8136(4) 0.9642(4) 0.7052(3)
H1_8 H 0.832055 0.968404 0.684555
C6_8 C 0.8096(4) 0.9169(4) 0.7204(3)
C7_8 C 0.8333(3) 0.8712(4) 0.7042(3)
C10_8 C 0.5579(4) 0.8220(4) 0.9084(3)
H3_8 H 0.544324 0.790352 0.913465
N1_8 N 0.6738(5) 0.9512(4) 0.8417(3)
N2_8 N 0.7256(5) 0.9422(4) 0.7949(3)
H4_8 H 0.717088 0.911089 0.797657
C13_8 C 0.5941(4) 0.8274(4) 0.8827(3)
C15_8 C 0.5421(5) 0.8641(4) 0.9264(3)
C16_8 C 0.7609(5) 0.9992(4) 0.7498(4)
C20_8 C 0.7805(6) 0.9111(4) 0.7501(4)
H9_8 H 0.777339 0.879180 0.760181
C21_8 C 0.7557(6) 0.9516(4) 0.7653(4)
C23_8 C 0.5618(5) 0.9109(5) 0.9188(4)
H10_8 H 0.550010 0.939279 0.930699
N6_8 N 0.6197(5) 0.9648(4) 0.8884(4)
H11_8 H 0.607794 0.987457 0.902422
C24_8 C 0.6140(5) 0.8739(5) 0.8748(4)
H12_8 H 0.637618 0.877010 0.856708
C25_8 C 0.5991(6) 0.9159(4) 0.8934(4)
C26_8 C 0.7079(6) 0.9735(5) 0.8196(4)
C27_8 C 0.6548(7) 0.9820(5) 0.8654(4)
O13_8 O 0.2321(3) 0.9094(3) 0.7162(2)
C29_8 C 0.3745(4) 0.8323(4) 0.9510(3)
C31_8 C 0.2065(5) 0.9447(4) 0.7023(3)
C35_8 C 0.3336(4) 0.7787(4) 0.9056(3)
H14_8 H 0.345619 0.750351 0.917390
C36_8 C 0.3424(5) 0.8264(4) 0.9188(3)
C38_8 C 0.2988(5) 0.7215(4) 0.8589(3)
C39_8 C 0.2095(4) 0.9955(4) 0.7206(3)
N9_8 N 0.3335(5) 0.9684(4) 0.8700(3)
N10_8 N 0.2782(5) 0.9786(4) 0.8207(3)
C41_8 C 0.3069(5) 0.7735(4) 0.8748(3)
N11_8 N 0.2843(5) 0.9035(4) 0.8484(3)
H17_8 H 0.260654 0.896027 0.833719
H18_8 H 0.255604 0.972917 0.759337
C44_8 C 0.2997(6) 0.9531(5) 0.8471(4)
C45_8 C 0.2914(5) 0.8151(4) 0.8567(3)
H19_8 H 0.274708 0.811117 0.835349
C46_8 C 0.3267(5) 0.8691(5) 0.9002(4)
H20_8 H 0.334096 0.901323 0.908637
C49_8 C 0.3001(5) 0.8631(5) 0.8694(4)
loop_
_geom_bond_atom_site_label_1
_geom_bond_atom_site_label_2
_geom_bond_site_symmetry_1
_geom_bond_site_symmetry_2
Cu2 O1 1_555 1_555
Cu3 O10 1_555 1_555
Cu4 O7 1_555 1_555
O1 C4 1_555 1_555
O2 C4 1_555 1_555
O3 C2 1_555 1_555
O5 C11 1_555 1_555
O6 C7 1_555 1_555
O7 C1 1_555 1_555
O8 C1 1_555 1_555
O9 C11 1_555 1_555
O10 C2 1_555 1_555
O11 C7 1_555 1_555
C1 C13 1_555 1_555
C2 C9 1_555 1_555
C3 C15 1_555 1_555
C4 C12 1_555 1_555
C5 H1 1_555 1_555
C6 C5 1_555 1_555
C7 C6 1_555 1_555
C8 H2 1_555 1_555
C9 C8 1_555 1_555
C10 H3 1_555 1_555
C11 C14 1_555 1_555
C12 C5 1_555 1_555
N1 C26 1_555 1_555
N2 H4 1_555 1_555
C13 C10 1_555 1_555
N3 C17 1_555 1_555
N4 C17 1_555 1_555
C14 C8 1_555 1_555
C15 C10 1_555 1_555
N5 H5 1_555 1_555
C16 C12 1_555 1_555
H6 C16 1_555 1_555
C17 N5 1_555 1_555
C18 C14 1_555 1_555
H7 C18 1_555 1_555
C19 C9 1_555 1_555
H8 C19 1_555 1_555
C20 C6 1_555 1_555
H9 C20 1_555 1_555
C21 N2 1_555 1_555
C22 N5 1_555 1_555
C23 C15 1_555 1_555
H10 C23 1_555 1_555
N6 H11 1_555 1_555
C24 C13 1_555 1_555
H12 C24 1_555 1_555
C25 C23 1_555 1_555
C26 N2 1_555 1_555
C27 N1 1_555 1_555
O24 Cu3 1_555 1_555
Cu7 Cu3 1_555 1_555
Cu8 O11 1_555 1_555
Cu10 O5 1_555 1_555
Cu12 Cu4 1_555 1_555
Cu16 O9 1_555 1_555
Cu17 O6 1_555 1_555
Cu20 Cu2 1_555 1_555
O25 Cu4 1_555 1_555
O29 Cu2 1_555 1_555
O31 Cu4 1_555 1_555
O34 Cu2 1_555 1_555
O35 Cu4 1_555 1_555
O37 Cu3 1_555 1_555
O39 Cu2 1_555 1_555
O40 Cu3 1_555 1_555
O2 Cu20 1_555 1_555
O3 Cu7 1_555 1_555
O8 Cu12 1_555 1_555
N3 C27 1_555 1_555
N4 C26 1_555 1_555
C16 C21 1_555 1_555
C18 C22 1_555 1_555
C19 C22 1_555 1_555
C20 C21 1_555 1_555
N6 C25 1_555 1_555
N6 C27 1_555 1_555
C24 C25 1_555 1_555
O16 Cu7 1_555 1_555
Cu8 Cu17 1_555 1_555
Cu10 Cu16 1_555 1_555
Cu1 O4 1_555 1_555
Cu5 O13 1_555 1_555
Cu6 O19 1_555 1_555
O13 C31 1_555 1_555
O14 C31 1_555 1_555
O15 Cu1 1_555 1_555
O17 C38 1_555 1_555
O18 C34 1_555 1_555
O19 C28 1_555 1_555
O20 C28 1_555 1_555
O21 C38 1_555 1_555
O22 C29 1_555 1_555
O23 C34 1_555 1_555
C28 C40 1_555 1_555
C29 O15 1_555 1_555
C31 C39 1_555 1_555
C32 H13 1_555 1_555
C33 C32 1_555 1_555
C34 C33 1_555 1_555
C35 H14 1_555 1_555
C36 C29 1_555 1_555
C37 H15 1_555 1_555
C38 C41 1_555 1_555
C39 C32 1_555 1_555
N7 C53 1_555 1_555
N8 H16 1_555 1_555
C40 C37 1_555 1_555
N9 C44 1_555 1_555
N10 C44 1_555 1_555
C41 C35 1_555 1_555
C42 C30 1_555 1_555
N11 H17 1_555 1_555
C43 C39 1_555 1_555
H18 C43 1_555 1_555
C44 N11 1_555 1_555
C45 C41 1_555 1_555
H19 C45 1_555 1_555
C46 C36 1_555 1_555
H20 C46 1_555 1_555
C47 C33 1_555 1_555
H21 C47 1_555 1_555
C48 N8 1_555 1_555
C49 N11 1_555 1_555
C50 C42 1_555 1_555
H22 C50 1_555 1_555
N12 H23 1_555 1_555
C51 C40 1_555 1_555
H24 C51 1_555 1_555
C52 C50 1_555 1_555
C53 N8 1_555 1_555
C54 N7 1_555 1_555
Cu9 O23 1_555 1_555
Cu11 O17 1_555 1_555
Cu13 Cu6 1_555 1_555
Cu14 Cu1 1_555 1_555
Cu15 O21 1_555 1_555
Cu18 O18 1_555 1_555
Cu19 Cu5 1_555 1_555
O26 Cu6 1_555 1_555
O27 Cu1 1_555 1_555
O28 Cu1 1_555 1_555
O30 Cu5 1_555 1_555
O32 Cu6 1_555 1_555
O33 Cu5 1_555 1_555
O36 Cu6 1_555 1_555
O38 Cu5 1_555 1_555
O12 Cu14 1_555 1_555
O14 Cu19 1_555 1_555
O20 Cu13 1_555 1_555
O22 Cu14 1_555 1_555
C35 C36 1_555 1_555
C37 C42 1_555 1_555
N9 C54 1_555 1_555
N10 C53 1_555 1_555
C43 C48 1_555 1_555
C45 C49 1_555 1_555
C46 C49 1_555 1_555
C47 C48 1_555 1_555
N12 C52 1_555 1_555
N12 C54 1_555 1_555
C51 C52 1_555 1_555
Cu9 Cu18 1_555 1_555
Cu11 Cu15 1_555 1_555
O27_2 Cu7 1_555 1_555
O28_2 Cu7 1_555 1_555
O37_2 Cu14 1_555 1_555
O40_2 Cu14 1_555 1_555
Cu1_2 O4_2 1_555 1_555
Cu9 O13_2 1_555 1_555
Cu16 O19_2 1_555 1_555
O13_2 C31_2 1_555 1_555
O14_2 C31_2 1_555 1_555
O15_2 Cu1_2 1_555 1_555
O17_2 C38_2 1_555 1_555
O18_2 C34_2 1_555 1_555
O19_2 C28_2 1_555 1_555
O20_2 C28_2 1_555 1_555
O36 C38_2 1_555 1_555
O22_2 C29_2 1_555 1_555
O39 C34_2 1_555 1_555
C28_2 C40_2 1_555 1_555
C29_2 O15_2 1_555 1_555
C31_2 C39_2 1_555 1_555
C32_2 H13_2 1_555 1_555
C33_2 C32_2 1_555 1_555
C34_2 C33_2 1_555 1_555
C35_2 H14_2 1_555 1_555
C36_2 C29_2 1_555 1_555
C37_2 H15_2 1_555 1_555
C38_2 C41_2 1_555 1_555
C39_2 C32_2 1_555 1_555
N7_2 C53_2 1_555 1_555
N8_2 H16_2 1_555 1_555
C40_2 C37_2 1_555 1_555
N9_2 C44_2 1_555 1_555
N10_2 C44_2 1_555 1_555
C41_2 C35_2 1_555 1_555
C42_2 C30_2 1_555 1_555
N11_2 H17_2 1_555 1_555
C43_2 C39_2 1_555 1_555
H18_2 C43_2 1_555 1_555
C44_2 N11_2 1_555 1_555
C45_2 C41_2 1_555 1_555
H19_2 C45_2 1_555 1_555
C46_2 C36_2 1_555 1_555
H20_2 C46_2 1_555 1_555
C47_2 C33_2 1_555 1_555
H21_2 C47_2 1_555 1_555
C48_2 N8_2 1_555 1_555
C49_2 N11_2 1_555 1_555
C50_2 C42_2 1_555 1_555
H22_2 C50_2 1_555 1_555
N12_2 H23_2 1_555 1_555
C51_2 C40_2 1_555 1_555
H24_2 C51_2 1_555 1_555
C52_2 C50_2 1_555 1_555
C53_2 N8_2 1_555 1_555
C54_2 N7_2 1_555 1_555
Cu13 O17_2 1_555 1_555
Cu14_2 Cu1_2 1_555 1_555
Cu20 O18_2 1_555 1_555
O26_2 Cu16 1_555 1_555
O27_3 Cu1_2 1_555 1_555
O28_3 Cu1_2 1_555 1_555
O30_2 Cu9 1_555 1_555
O32_2 Cu16 1_555 1_555
O33_2 Cu9 1_555 1_555
O12_2 Cu14_2 1_555 1_555
O14_2 Cu18 1_555 1_555
O20_2 Cu10 1_555 1_555
O22_2 Cu14_2 1_555 1_555
C35_2 C36_2 1_555 1_555
C37_2 C42_2 1_555 1_555
N9_2 C54_2 1_555 1_555
N10_2 C53_2 1_555 1_555
C43_2 C48_2 1_555 1_555
C45_2 C49_2 1_555 1_555
C46_2 C49_2 1_555 1_555
C47_2 C48_2 1_555 1_555
N12_2 C52_2 1_555 1_555
N12_2 C54_2 1_555 1_555
C51_2 C52_2 1_555 1_555
Cu8 O1_2 1_555 1_555
Cu3_2 O10_2 1_555 1_555
Cu15 O7_2 1_555 1_555
O1_2 C4_2 1_555 1_555
O2_2 C4_2 1_555 1_555
O3_2 C2_2 1_555 1_555
O5_2 C11_2 1_555 1_555
O6_2 C7_2 1_555 1_555
O7_2 C1_2 1_555 1_555
O8_2 C1_2 1_555 1_555
O35 C11_2 1_555 1_555
O10_2 C2_2 1_555 1_555
O38 C7_2 1_555 1_555
C1_2 C13_2 1_555 1_555
C2_2 C9_2 1_555 1_555
C3_2 C15_2 1_555 1_555
C4_2 C12_2 1_555 1_555
C5_2 H1_2 1_555 1_555
C6_2 C5_2 1_555 1_555
C7_2 C6_2 1_555 1_555
C8_2 H2_2 1_555 1_555
C9_2 C8_2 1_555 1_555
C10_2 H3_2 1_555 1_555
C11_2 C14_2 1_555 1_555
C12_2 C5_2 1_555 1_555
N1_2 C26_2 1_555 1_555
N2_2 H4_2 1_555 1_555
C13_2 C10_2 1_555 1_555
N3_2 C17_2 1_555 1_555
N4_2 C17_2 1_555 1_555
C14_2 C8_2 1_555 1_555
C15_2 C10_2 1_555 1_555
N5_2 H5_2 1_555 1_555
C16_2 C12_2 1_555 1_555
H6_2 C16_2 1_555 1_555
C17_2 N5_2 1_555 1_555
C18_2 C14_2 1_555 1_555
H7_2 C18_2 1_555 1_555
C19_2 C9_2 1_555 1_555
H8_2 C19_2 1_555 1_555
C20_2 C6_2 1_555 1_555
H9_2 C20_2 1_555 1_555
C21_2 N2_2 1_555 1_555
C22_2 N5_2 1_555 1_555
C23_2 C15_2 1_555 1_555
H10_2 C23_2 1_555 1_555
N6_2 H11_2 1_555 1_555
C24_2 C13_2 1_555 1_555
H12_2 C24_2 1_555 1_555
C25_2 C23_2 1_555 1_555
C26_2 N2_2 1_555 1_555
C27_2 N1_2 1_555 1_555
O24_2 Cu3_2 1_555 1_555
Cu7_2 Cu3_2 1_555 1_555
Cu12 O5_2 1_555 1_555
Cu19 O6_2 1_555 1_555
O25_2 Cu15 1_555 1_555
O29_2 Cu8 1_555 1_555
O31_2 Cu15 1_555 1_555
O34_2 Cu8 1_555 1_555
O37_3 Cu3_2 1_555 1_555
O40_3 Cu3_2 1_555 1_555
O2_2 Cu17 1_555 1_555
O3_2 Cu7_2 1_555 1_555
O8_2 Cu11 1_555 1_555
N3_2 C27_2 1_555 1_555
N4_2 C26_2 1_555 1_555
C16_2 C21_2 1_555 1_555
C18_2 C22_2 1_555 1_555
C19_2 C22_2 1_555 1_555
C20_2 C21_2 1_555 1_555
N6_2 C25_2 1_555 1_555
N6_2 C27_2 1_555 1_555
C24_2 C25_2 1_555 1_555
O16_2 Cu7_2 1_555 1_555
O37_4 Cu14_2 1_555 1_555
O40_4 Cu14_2 1_555 1_555
O27_4 Cu7_2 1_555 1_555
O28_4 Cu7_2 1_555 1_555
Cu1_3 O4_3 1_555 1_555
Cu4_2 O7_3 1_555 1_555
O4_3 C3_3 1_555 1_555
O6_3 C7_3 1_555 1_555
O7_3 C1_3 1_555 1_555
O8_3 C1_3 1_555 1_555
O11_2 C7_3 1_555 1_555
O12_3 C3_3 1_555 1_555
C1_3 C13_3 1_555 1_555
C3_3 C15_3 1_555 1_555
C5_3 H1_3 1_555 1_555
C6_3 C5_3 1_555 1_555
C7_3 C6_3 1_555 1_555
C10_3 H3_3 1_555 1_555
N1_3 C26_3 1_555 1_555
N2_3 H4_3 1_555 1_555
C13_3 C10_3 1_555 1_555
C15_3 C10_3 1_555 1_555
C20_3 C6_3 1_555 1_555
H9_3 C20_3 1_555 1_555
C21_3 N2_3 1_555 1_555
C23_3 C15_3 1_555 1_555
H10_3 C23_3 1_555 1_555
N6_3 H11_3 1_555 1_555
C24_3 C13_3 1_555 1_555
H12_3 C24_3 1_555 1_555
C25_3 C23_3 1_555 1_555
C26_3 N2_3 1_555 1_555
C27_3 N1_3 1_555 1_555
Cu5_2 O13_3 1_555 1_555
O13_3 C31_3 1_555 1_555
O14_3 C31_3 1_555 1_555
O15_3 Cu1_3 1_555 1_555
O17_3 C38_3 1_555 1_555
O21_2 C38_3 1_555 1_555
O22_3 C29_3 1_555 1_555
C29_3 O15_3 1_555 1_555
C31_3 C39_3 1_555 1_555
C35_3 H14_3 1_555 1_555
C36_3 C29_3 1_555 1_555
C38_3 C41_3 1_555 1_555
N9_3 C44_3 1_555 1_555
N10_3 C44_3 1_555 1_555
C41_3 C35_3 1_555 1_555
N11_3 H17_3 1_555 1_555
C44_3 N11_3 1_555 1_555
C45_3 C41_3 1_555 1_555
H19_3 C45_3 1_555 1_555
C46_3 C36_3 1_555 1_555
H20_3 C46_3 1_555 1_555
C49_3 N11_3 1_555 1_555
Cu8_2 O11_2 1_555 1_555
Cu11_2 O17_3 1_555 1_555
Cu12_2 Cu4_2 1_555 1_555
Cu14_3 Cu1_3 1_555 1_555
Cu15_2 O21_2 1_555 1_555
Cu17_2 O6_3 1_555 1_555
Cu19_2 Cu5_2 1_555 1_555
O25_3 Cu4_2 1_555 1_555
O30_3 Cu5_2 1_555 1_555
O31_3 Cu4_2 1_555 1_555
O33_3 Cu5_2 1_555 1_555
O35_2 Cu4_2 1_555 1_555
O38_2 Cu5_2 1_555 1_555
O8_3 Cu12_2 1_555 1_555
O12_3 Cu14_3 1_555 1_555
C16_3 C21_3 1_555 1_555
C20_3 C21_3 1_555 1_555
N6_3 C25_3 1_555 1_555
N6_3 C27_3 1_555 1_555
C24_3 C25_3 1_555 1_555
O14_3 Cu19_2 1_555 1_555
O22_3 Cu14_3 1_555 1_555
C35_3 C36_3 1_555 1_555
C45_3 C49_3 1_555 1_555
C46_3 C49_3 1_555 1_555
Cu8_2 Cu17_2 1_555 1_555
Cu11_2 Cu15_2 1_555 1_555
Cu14_4 Cu1_4 1_555 1_555
O27_5 Cu1_4 1_555 1_555
O28_5 Cu1_4 1_555 1_555
Cu2_2 O1_3 1_555 1_555
Cu3_3 O10_3 1_555 1_555
O1_3 C4_3 1_555 1_555
O2_3 C4_3 1_555 1_555
O3_3 C2_3 1_555 1_555
O5_3 C11_3 1_555 1_555
O9_2 C11_3 1_555 1_555
O10_3 C2_3 1_555 1_555
C2_3 C9_3 1_555 1_555
C4_3 C12_3 1_555 1_555
C8_3 H2_3 1_555 1_555
C9_3 C8_3 1_555 1_555
C11_3 C14_3 1_555 1_555
N3_3 C17_3 1_555 1_555
N4_3 C17_3 1_555 1_555
C14_3 C8_3 1_555 1_555
N5_3 H5_3 1_555 1_555
C17_3 N5_3 1_555 1_555
C18_3 C14_3 1_555 1_555
H7_3 C18_3 1_555 1_555
C19_3 C9_3 1_555 1_555
H8_3 C19_3 1_555 1_555
C22_3 N5_3 1_555 1_555
Cu6_2 O19_3 1_555 1_555
O16_3 C30_3 1_555 1_555
O18_3 C34_3 1_555 1_555
O19_3 C28_3 1_555 1_555
O20_3 C28_3 1_555 1_555
O23_2 C34_3 1_555 1_555
O24_3 Cu3_3 1_555 1_555
C28_3 C40_3 1_555 1_555
C30_3 O24_3 1_555 1_555
C32_3 H13_3 1_555 1_555
C33_3 C32_3 1_555 1_555
C34_3 C33_3 1_555 1_555
C37_3 H15_3 1_555 1_555
N7_3 C53_3 1_555 1_555
N8_3 H16_3 1_555 1_555
C40_3 C37_3 1_555 1_555
C42_3 C30_3 1_555 1_555
C47_3 C33_3 1_555 1_555
H21_3 C47_3 1_555 1_555
C48_3 N8_3 1_555 1_555
C50_3 C42_3 1_555 1_555
H22_3 C50_3 1_555 1_555
N12_3 H23_3 1_555 1_555
C51_3 C40_3 1_555 1_555
H24_3 C51_3 1_555 1_555
C52_3 C50_3 1_555 1_555
C53_3 N8_3 1_555 1_555
C54_3 N7_3 1_555 1_555
Cu7_3 Cu3_3 1_555 1_555
Cu9_2 O23_2 1_555 1_555
Cu10_2 O5_3 1_555 1_555
Cu13_2 Cu6_2 1_555 1_555
Cu16_2 O9_2 1_555 1_555
Cu18_2 O18_3 1_555 1_555
Cu20_2 Cu2_2 1_555 1_555
O26_3 Cu6_2 1_555 1_555
O29_3 Cu2_2 1_555 1_555
O32_3 Cu6_2 1_555 1_555
O34_3 Cu2_2 1_555 1_555
O36_2 Cu6_2 1_555 1_555
O39_2 Cu2_2 1_555 1_555
O2_3 Cu20_2 1_555 1_555
O3_3 Cu7_3 1_555 1_555
C18_3 C22_3 1_555 1_555
C19_3 C22_3 1_555 1_555
O16_3 Cu7_3 1_555 1_555
O20_3 Cu13_2 1_555 1_555
C37_3 C42_3 1_555 1_555
C43_3 C48_3 1_555 1_555
C47_3 C48_3 1_555 1_555
N12_3 C52_3 1_555 1_555
N12_3 C54_3 1_555 1_555
C51_3 C52_3 1_555 1_555
Cu9_2 Cu18_2 1_555 1_555
Cu10_2 Cu16_2 1_555 1_555
Cu7_4 Cu3_4 1_555 1_555
O37_5 Cu3_4 1_555 1_555
O40_5 Cu3_4 1_555 1_555
O37_6 Cu14_4 1_555 1_555
O40_6 Cu14_4 1_555 1_555
O27_6 Cu7_4 1_555 1_555
O28_6 Cu7_4 1_555 1_555
Cu1_5 O4_4 1_555 1_555
Cu15_2 O7_4 1_555 1_555
O4_4 C3_4 1_555 1_555
O6_4 C7_4 1_555 1_555
O7_4 C1_4 1_555 1_555
O8_4 C1_4 1_555 1_555
O38_2 C7_4 1_555 1_555
O12_4 C3_4 1_555 1_555
C1_4 C13_4 1_555 1_555
C3_4 C15_4 1_555 1_555
C5_4 H1_4 1_555 1_555
C6_4 C5_4 1_555 1_555
C7_4 C6_4 1_555 1_555
C10_4 H3_4 1_555 1_555
N1_4 C26_4 1_555 1_555
N2_4 H4_4 1_555 1_555
C13_4 C10_4 1_555 1_555
C15_4 C10_4 1_555 1_555
C20_4 C6_4 1_555 1_555
H9_4 C20_4 1_555 1_555
C21_4 N2_4 1_555 1_555
C23_4 C15_4 1_555 1_555
H10_4 C23_4 1_555 1_555
N6_4 H11_4 1_555 1_555
C24_4 C13_4 1_555 1_555
H12_4 C24_4 1_555 1_555
C25_4 C23_4 1_555 1_555
C26_4 N2_4 1_555 1_555
C27_4 N1_4 1_555 1_555
Cu9_2 O13_4 1_555 1_555
O13_4 C31_4 1_555 1_555
O14_4 C31_4 1_555 1_555
O15_4 Cu1_5 1_555 1_555
O17_4 C38_4 1_555 1_555
O36_2 C38_4 1_555 1_555
O22_4 C29_4 1_555 1_555
C29_4 O15_4 1_555 1_555
C31_4 C39_4 1_555 1_555
C35_4 H14_4 1_555 1_555
C36_4 C29_4 1_555 1_555
C38_4 C41_4 1_555 1_555
N9_4 C44_4 1_555 1_555
N10_4 C44_4 1_555 1_555
C41_4 C35_4 1_555 1_555
N11_4 H17_4 1_555 1_555
C44_4 N11_4 1_555 1_555
C45_4 C41_4 1_555 1_555
H19_4 C45_4 1_555 1_555
C46_4 C36_4 1_555 1_555
H20_4 C46_4 1_555 1_555
C49_4 N11_4 1_555 1_555
Cu13_2 O17_4 1_555 1_555
Cu14_5 Cu1_5 1_555 1_555
Cu19_2 O6_4 1_555 1_555
O25_4 Cu15_2 1_555 1_555
O30_4 Cu9_2 1_555 1_555
O31_4 Cu15_2 1_555 1_555
O33_4 Cu9_2 1_555 1_555
O8_4 Cu11_2 1_555 1_555
O12_4 Cu14_5 1_555 1_555
C16_4 C21_4 1_555 1_555
C20_4 C21_4 1_555 1_555
N6_4 C25_4 1_555 1_555
N6_4 C27_4 1_555 1_555
C24_4 C25_4 1_555 1_555
O14_4 Cu18_2 1_555 1_555
O22_4 Cu14_5 1_555 1_555
C35_4 C36_4 1_555 1_555
C45_4 C49_4 1_555 1_555
C46_4 C49_4 1_555 1_555
Cu14_6 Cu1_6 1_555 1_555
O27_7 Cu1_6 1_555 1_555
O28_7 Cu1_6 1_555 1_555
Cu8_2 O1_4 1_555 1_555
Cu3_5 O10_4 1_555 1_555
O1_4 C4_4 1_555 1_555
O2_4 C4_4 1_555 1_555
O3_4 C2_4 1_555 1_555
O5_4 C11_4 1_555 1_555
O35_2 C11_4 1_555 1_555
O10_4 C2_4 1_555 1_555
C2_4 C9_4 1_555 1_555
C4_4 C12_4 1_555 1_555
C8_4 H2_4 1_555 1_555
C9_4 C8_4 1_555 1_555
C11_4 C14_4 1_555 1_555
N3_4 C17_4 1_555 1_555
N4_4 C17_4 1_555 1_555
C14_4 C8_4 1_555 1_555
N5_4 H5_4 1_555 1_555
C17_4 N5_4 1_555 1_555
C18_4 C14_4 1_555 1_555
H7_4 C18_4 1_555 1_555
C19_4 C9_4 1_555 1_555
H8_4 C19_4 1_555 1_555
C22_4 N5_4 1_555 1_555
Cu16_2 O19_4 1_555 1_555
O16_4 C30_4 1_555 1_555
O18_4 C34_4 1_555 1_555
O19_4 C28_4 1_555 1_555
O20_4 C28_4 1_555 1_555
O39_2 C34_4 1_555 1_555
O24_4 Cu3_5 1_555 1_555
C28_4 C40_4 1_555 1_555
C30_4 O24_4 1_555 1_555
C32_4 H13_4 1_555 1_555
C33_4 C32_4 1_555 1_555
C34_4 C33_4 1_555 1_555
C37_4 H15_4 1_555 1_555
N7_4 C53_4 1_555 1_555
N8_4 H16_4 1_555 1_555
C40_4 C37_4 1_555 1_555
C42_4 C30_4 1_555 1_555
C47_4 C33_4 1_555 1_555
H21_4 C47_4 1_555 1_555
C48_4 N8_4 1_555 1_555
C50_4 C42_4 1_555 1_555
H22_4 C50_4 1_555 1_555
N12_4 H23_4 1_555 1_555
C51_4 C40_4 1_555 1_555
H24_4 C51_4 1_555 1_555
C52_4 C50_4 1_555 1_555
C53_4 N8_4 1_555 1_555
C54_4 N7_4 1_555 1_555
Cu7_5 Cu3_5 1_555 1_555
Cu12_2 O5_4 1_555 1_555
Cu20_2 O18_4 1_555 1_555
O26_4 Cu16_2 1_555 1_555
O29_4 Cu8_2 1_555 1_555
O32_4 Cu16_2 1_555 1_555
O34_4 Cu8_2 1_555 1_555
O2_4 Cu17_2 1_555 1_555
O3_4 Cu7_5 1_555 1_555
C18_4 C22_4 1_555 1_555
C19_4 C22_4 1_555 1_555
O16_4 Cu7_5 1_555 1_555
O20_4 Cu10_2 1_555 1_555
C37_4 C42_4 1_555 1_555
C43_4 C48_4 1_555 1_555
C47_4 C48_4 1_555 1_555
N12_4 C52_4 1_555 1_555
N12_4 C54_4 1_555 1_555
C51_4 C52_4 1_555 1_555
Cu7_6 Cu3_6 1_555 1_555
O37_7 Cu3_6 1_555 1_555
O40_7 Cu3_6 1_555 1_555
O37_8 Cu14_6 1_555 1_555
O40_8 Cu14_6 1_555 1_555
O27_8 Cu7_6 1_555 1_555
O28_8 Cu7_6 1_555 1_555
Cu11_2 O13_5 1_555 1_555
Cu18_2 O19_5 1_555 1_555
O13_5 C31_5 1_555 1_555
O25_4 C31_5 1_555 1_555
O30_3 C38_5 1_555 1_555
O32_3 C34_5 1_555 1_555
O19_5 C28_5 1_555 1_555
O33_4 C28_5 1_555 1_555
O21_3 C38_5 1_555 1_555
O37 C29_5 1_555 1_555
O23_3 C34_5 1_555 1_555
C28_5 C40_5 1_555 1_555
C29_5 O27_2 1_555 1_555
C31_5 C39_5 1_555 1_555
C32_5 H13_5 1_555 1_555
C33_5 C32_5 1_555 1_555
C34_5 C33_5 1_555 1_555
C35_5 H14_5 1_555 1_555
C36_5 C29_5 1_555 1_555
C37_5 H15_5 1_555 1_555
C38_5 C41_5 1_555 1_555
C39_5 C32_5 1_555 1_555
N7_5 C53_5 1_555 1_555
N8_5 H16_5 1_555 1_555
C40_5 C37_5 1_555 1_555
N9_5 C44_5 1_555 1_555
N10_5 C44_5 1_555 1_555
C41_5 C35_5 1_555 1_555
C42_5 C30_5 1_555 1_555
N11_5 H17_5 1_555 1_555
C43_5 C39_5 1_555 1_555
H18_5 C43_5 1_555 1_555
C44_5 N11_5 1_555 1_555
C45_5 C41_5 1_555 1_555
H19_5 C45_5 1_555 1_555
C46_5 C36_5 1_555 1_555
H20_5 C46_5 1_555 1_555
C47_5 C33_5 1_555 1_555
H21_5 C47_5 1_555 1_555
C48_5 N8_5 1_555 1_555
C49_5 N11_5 1_555 1_555
C50_5 C42_5 1_555 1_555
H22_5 C50_5 1_555 1_555
N12_5 H23_5 1_555 1_555
C51_5 C40_5 1_555 1_555
H24_5 C51_5 1_555 1_555
C52_5 C50_5 1_555 1_555
C53_5 N8_5 1_555 1_555
C54_5 N7_5 1_555 1_555
Cu13_2 O23_3 1_555 1_555
Cu19_2 O21_3 1_555 1_555
O36_3 Cu18_2 1_555 1_555
O38_3 Cu11_2 1_555 1_555
C35_5 C36_5 1_555 1_555
C37_5 C42_5 1_555 1_555
N9_5 C54_5 1_555 1_555
N10_5 C53_5 1_555 1_555
C43_5 C48_5 1_555 1_555
C45_5 C49_5 1_555 1_555
C46_5 C49_5 1_555 1_555
C47_5 C48_5 1_555 1_555
N12_5 C52_5 1_555 1_555
N12_5 C54_5 1_555 1_555
C51_5 C52_5 1_555 1_555
Cu10_2 O1_5 1_555 1_555
Cu17_2 O7_5 1_555 1_555
O1_5 C4_5 1_555 1_555
O26_4 C4_5 1_555 1_555
O27 C2_5 1_555 1_555
O29_3 C11_5 1_555 1_555
O31_3 C7_5 1_555 1_555
O7_5 C1_5 1_555 1_555
O34_4 C1_5 1_555 1_555
O9_3 C11_5 1_555 1_555
O37_2 C2_5 1_555 1_555
O11_3 C7_5 1_555 1_555
C1_5 C13_5 1_555 1_555
C2_5 C9_5 1_555 1_555
C3_5 C15_5 1_555 1_555
C4_5 C12_5 1_555 1_555
C5_5 H1_5 1_555 1_555
C6_5 C5_5 1_555 1_555
C7_5 C6_5 1_555 1_555
C8_5 H2_5 1_555 1_555
C9_5 C8_5 1_555 1_555
C10_5 H3_5 1_555 1_555
C11_5 C14_5 1_555 1_555
C12_5 C5_5 1_555 1_555
N1_5 C26_5 1_555 1_555
N2_5 H4_5 1_555 1_555
C13_5 C10_5 1_555 1_555
N3_5 C17_5 1_555 1_555
N4_5 C17_5 1_555 1_555
C14_5 C8_5 1_555 1_555
C15_5 C10_5 1_555 1_555
N5_5 H5_5 1_555 1_555
C16_5 C12_5 1_555 1_555
H6_5 C16_5 1_555 1_555
C17_5 N5_5 1_555 1_555
C18_5 C14_5 1_555 1_555
H7_5 C18_5 1_555 1_555
C19_5 C9_5 1_555 1_555
H8_5 C19_5 1_555 1_555
C20_5 C6_5 1_555 1_555
H9_5 C20_5 1_555 1_555
C21_5 N2_5 1_555 1_555
C22_5 N5_5 1_555 1_555
C23_5 C15_5 1_555 1_555
H10_5 C23_5 1_555 1_555
N6_5 H11_5 1_555 1_555
C24_5 C13_5 1_555 1_555
H12_5 C24_5 1_555 1_555
C25_5 C23_5 1_555 1_555
C26_5 N2_5 1_555 1_555
C27_5 N1_5 1_555 1_555
Cu12_2 O11_3 1_555 1_555
Cu20_2 O9_3 1_555 1_555
O35_3 Cu17_2 1_555 1_555
O39_3 Cu10_2 1_555 1_555
N3_5 C27_5 1_555 1_555
N4_5 C26_5 1_555 1_555
C16_5 C21_5 1_555 1_555
C18_5 C22_5 1_555 1_555
C19_5 C22_5 1_555 1_555
C20_5 C21_5 1_555 1_555
N6_5 C25_5 1_555 1_555
N6_5 C27_5 1_555 1_555
C24_5 C25_5 1_555 1_555
Cu12_2 O1_6 1_555 1_555
Cu19_2 O7_6 1_555 1_555
O1_6 C4_6 1_555 1_555
O25_3 C4_6 1_555 1_555
O27_3 C2_6 1_555 1_555
O29_4 C11_6 1_555 1_555
O31_4 C7_6 1_555 1_555
O7_6 C1_6 1_555 1_555
O33_3 C1_6 1_555 1_555
O35_3 C11_6 1_555 1_555
O37_4 C2_6 1_555 1_555
O38_3 C7_6 1_555 1_555
C1_6 C13_6 1_555 1_555
C2_6 C9_6 1_555 1_555
C3_6 C15_6 1_555 1_555
C4_6 C12_6 1_555 1_555
C5_6 H1_6 1_555 1_555
C6_6 C5_6 1_555 1_555
C7_6 C6_6 1_555 1_555
C8_6 H2_6 1_555 1_555
C9_6 C8_6 1_555 1_555
C10_6 H3_6 1_555 1_555
C11_6 C14_6 1_555 1_555
C12_6 C5_6 1_555 1_555
N1_6 C26_6 1_555 1_555
N2_6 H4_6 1_555 1_555
C13_6 C10_6 1_555 1_555
N3_6 C17_6 1_555 1_555
N4_6 C17_6 1_555 1_555
C14_6 C8_6 1_555 1_555
C15_6 C10_6 1_555 1_555
N5_6 H5_6 1_555 1_555
C16_6 C12_6 1_555 1_555
H6_6 C16_6 1_555 1_555
C17_6 N5_6 1_555 1_555
C18_6 C14_6 1_555 1_555
H7_6 C18_6 1_555 1_555
C19_6 C9_6 1_555 1_555
H8_6 C19_6 1_555 1_555
C20_6 C6_6 1_555 1_555
H9_6 C20_6 1_555 1_555
C21_6 N2_6 1_555 1_555
C22_6 N5_6 1_555 1_555
C23_6 C15_6 1_555 1_555
H10_6 C23_6 1_555 1_555
N6_6 H11_6 1_555 1_555
C24_6 C13_6 1_555 1_555
H12_6 C24_6 1_555 1_555
C25_6 C23_6 1_555 1_555
C26_6 N2_6 1_555 1_555
C27_6 N1_6 1_555 1_555
N3_6 C27_6 1_555 1_555
N4_6 C26_6 1_555 1_555
C16_6 C21_6 1_555 1_555
C18_6 C22_6 1_555 1_555
C19_6 C22_6 1_555 1_555
C20_6 C21_6 1_555 1_555
N6_6 C25_6 1_555 1_555
N6_6 C27_6 1_555 1_555
C24_6 C25_6 1_555 1_555
Cu13_2 O13_6 1_555 1_555
Cu20_2 O19_6 1_555 1_555
O13_6 C31_6 1_555 1_555
O26_3 C31_6 1_555 1_555
O30_4 C38_6 1_555 1_555
O32_4 C34_6 1_555 1_555
O19_6 C28_6 1_555 1_555
O34_3 C28_6 1_555 1_555
O36_3 C38_6 1_555 1_555
O37_3 C29_6 1_555 1_555
O39_3 C34_6 1_555 1_555
C28_6 C40_6 1_555 1_555
C29_6 O27_4 1_555 1_555
C31_6 C39_6 1_555 1_555
C32_6 H13_6 1_555 1_555
C33_6 C32_6 1_555 1_555
C34_6 C33_6 1_555 1_555
C35_6 H14_6 1_555 1_555
C36_6 C29_6 1_555 1_555
C37_6 H15_6 1_555 1_555
C38_6 C41_6 1_555 1_555
C39_6 C32_6 1_555 1_555
N7_6 C53_6 1_555 1_555
N8_6 H16_6 1_555 1_555
C40_6 C37_6 1_555 1_555
N9_6 C44_6 1_555 1_555
N10_6 C44_6 1_555 1_555
C41_6 C35_6 1_555 1_555
C42_6 C30_6 1_555 1_555
N11_6 H17_6 1_555 1_555
C43_6 C39_6 1_555 1_555
H18_6 C43_6 1_555 1_555
C44_6 N11_6 1_555 1_555
C45_6 C41_6 1_555 1_555
H19_6 C45_6 1_555 1_555
C46_6 C36_6 1_555 1_555
H20_6 C46_6 1_555 1_555
C47_6 C33_6 1_555 1_555
H21_6 C47_6 1_555 1_555
C48_6 N8_6 1_555 1_555
C49_6 N11_6 1_555 1_555
C50_6 C42_6 1_555 1_555
H22_6 C50_6 1_555 1_555
N12_6 H23_6 1_555 1_555
C51_6 C40_6 1_555 1_555
H24_6 C51_6 1_555 1_555
C52_6 C50_6 1_555 1_555
C53_6 N8_6 1_555 1_555
C54_6 N7_6 1_555 1_555
C35_6 C36_6 1_555 1_555
C37_6 C42_6 1_555 1_555
N9_6 C54_6 1_555 1_555
N10_6 C53_6 1_555 1_555
C43_6 C48_6 1_555 1_555
C45_6 C49_6 1_555 1_555
C46_6 C49_6 1_555 1_555
C47_6 C48_6 1_555 1_555
N12_6 C52_6 1_555 1_555
N12_6 C54_6 1_555 1_555
C51_6 C52_6 1_555 1_555
Cu10 O1_7 1_555 1_555
O1_7 C4_7 1_555 1_555
O26_2 C4_7 1_555 1_555
O27_5 C2_7 1_555 1_555
O29 C11_7 1_555 1_555
O9_4 C11_7 1_555 1_555
O37_6 C2_7 1_555 1_555
C2_7 C9_7 1_555 1_555
C4_7 C12_7 1_555 1_555
C8_7 H2_7 1_555 1_555
C9_7 C8_7 1_555 1_555
C11_7 C14_7 1_555 1_555
N3_7 C17_7 1_555 1_555
N4_7 C17_7 1_555 1_555
C14_7 C8_7 1_555 1_555
N5_7 H5_7 1_555 1_555
C17_7 N5_7 1_555 1_555
C18_7 C14_7 1_555 1_555
H7_7 C18_7 1_555 1_555
C19_7 C9_7 1_555 1_555
H8_7 C19_7 1_555 1_555
C22_7 N5_7 1_555 1_555
Cu18 O19_7 1_555 1_555
O28_5 C30_7 1_555 1_555
O32 C34_7 1_555 1_555
O19_7 C28_7 1_555 1_555
O33_2 C28_7 1_555 1_555
O23_4 C34_7 1_555 1_555
C28_7 C40_7 1_555 1_555
C30_7 O40_6 1_555 1_555
C32_7 H13_7 1_555 1_555
C33_7 C32_7 1_555 1_555
C34_7 C33_7 1_555 1_555
C37_7 H15_7 1_555 1_555
N7_7 C53_7 1_555 1_555
N8_7 H16_7 1_555 1_555
C40_7 C37_7 1_555 1_555
C42_7 C30_7 1_555 1_555
C47_7 C33_7 1_555 1_555
H21_7 C47_7 1_555 1_555
C48_7 N8_7 1_555 1_555
C50_7 C42_7 1_555 1_555
H22_7 C50_7 1_555 1_555
N12_7 H23_7 1_555 1_555
C51_7 C40_7 1_555 1_555
H24_7 C51_7 1_555 1_555
C52_7 C50_7 1_555 1_555
C53_7 N8_7 1_555 1_555
C54_7 N7_7 1_555 1_555
Cu13 O23_4 1_555 1_555
Cu20 O9_4 1_555 1_555
O36_4 Cu18 1_555 1_555
O39_4 Cu10 1_555 1_555
C18_7 C22_7 1_555 1_555
C19_7 C22_7 1_555 1_555
C37_7 C42_7 1_555 1_555
C43_7 C48_7 1_555 1_555
C47_7 C48_7 1_555 1_555
N12_7 C52_7 1_555 1_555
N12_7 C54_7 1_555 1_555
C51_7 C52_7 1_555 1_555
Cu17 O7_7 1_555 1_555
O28_6 C3_7 1_555 1_555
O31 C7_7 1_555 1_555
O7_7 C1_7 1_555 1_555
O34_2 C1_7 1_555 1_555
O11_4 C7_7 1_555 1_555
O40_5 C3_7 1_555 1_555
C1_7 C13_7 1_555 1_555
C3_7 C15_7 1_555 1_555
C5_7 H1_7 1_555 1_555
C6_7 C5_7 1_555 1_555
C7_7 C6_7 1_555 1_555
C10_7 H3_7 1_555 1_555
N1_7 C26_7 1_555 1_555
N2_7 H4_7 1_555 1_555
C13_7 C10_7 1_555 1_555
C15_7 C10_7 1_555 1_555
C20_7 C6_7 1_555 1_555
H9_7 C20_7 1_555 1_555
C21_7 N2_7 1_555 1_555
C23_7 C15_7 1_555 1_555
H10_7 C23_7 1_555 1_555
N6_7 H11_7 1_555 1_555
C24_7 C13_7 1_555 1_555
H12_7 C24_7 1_555 1_555
C25_7 C23_7 1_555 1_555
C26_7 N2_7 1_555 1_555
C27_7 N1_7 1_555 1_555
Cu11 O13_7 1_555 1_555
O13_7 C31_7 1_555 1_555
O25_2 C31_7 1_555 1_555
O30 C38_7 1_555 1_555
O21_4 C38_7 1_555 1_555
O37_5 C29_7 1_555 1_555
C29_7 O27_6 1_555 1_555
C31_7 C39_7 1_555 1_555
C35_7 H14_7 1_555 1_555
C36_7 C29_7 1_555 1_555
C38_7 C41_7 1_555 1_555
N9_7 C44_7 1_555 1_555
N10_7 C44_7 1_555 1_555
C41_7 C35_7 1_555 1_555
N11_7 H17_7 1_555 1_555
C44_7 N11_7 1_555 1_555
C45_7 C41_7 1_555 1_555
H19_7 C45_7 1_555 1_555
C46_7 C36_7 1_555 1_555
H20_7 C46_7 1_555 1_555
C49_7 N11_7 1_555 1_555
Cu12 O11_4 1_555 1_555
Cu19 O21_4 1_555 1_555
O35_4 Cu17 1_555 1_555
O38_4 Cu11 1_555 1_555
C16_7 C21_7 1_555 1_555
C20_7 C21_7 1_555 1_555
N6_7 C25_7 1_555 1_555
N6_7 C27_7 1_555 1_555
C24_7 C25_7 1_555 1_555
C35_7 C36_7 1_555 1_555
C45_7 C49_7 1_555 1_555
C46_7 C49_7 1_555 1_555
Cu12 O1_8 1_555 1_555
O1_8 C4_8 1_555 1_555
O25 C4_8 1_555 1_555
O27_7 C2_8 1_555 1_555
O29_2 C11_8 1_555 1_555
O35_4 C11_8 1_555 1_555
O37_8 C2_8 1_555 1_555
C2_8 C9_8 1_555 1_555
C4_8 C12_8 1_555 1_555
C8_8 H2_8 1_555 1_555
C9_8 C8_8 1_555 1_555
C11_8 C14_8 1_555 1_555
N3_8 C17_8 1_555 1_555
N4_8 C17_8 1_555 1_555
C14_8 C8_8 1_555 1_555
N5_8 H5_8 1_555 1_555
C17_8 N5_8 1_555 1_555
C18_8 C14_8 1_555 1_555
H7_8 C18_8 1_555 1_555
C19_8 C9_8 1_555 1_555
H8_8 C19_8 1_555 1_555
C22_8 N5_8 1_555 1_555
Cu20 O19_8 1_555 1_555
O28_7 C30_8 1_555 1_555
O32_2 C34_8 1_555 1_555
O19_8 C28_8 1_555 1_555
O34 C28_8 1_555 1_555
O39_4 C34_8 1_555 1_555
C28_8 C40_8 1_555 1_555
C30_8 O40_8 1_555 1_555
C32_8 H13_8 1_555 1_555
C33_8 C32_8 1_555 1_555
C34_8 C33_8 1_555 1_555
C37_8 H15_8 1_555 1_555
N7_8 C53_8 1_555 1_555
N8_8 H16_8 1_555 1_555
C40_8 C37_8 1_555 1_555
C42_8 C30_8 1_555 1_555
C47_8 C33_8 1_555 1_555
H21_8 C47_8 1_555 1_555
C48_8 N8_8 1_555 1_555
C50_8 C42_8 1_555 1_555
H22_8 C50_8 1_555 1_555
N12_8 H23_8 1_555 1_555
C51_8 C40_8 1_555 1_555
H24_8 C51_8 1_555 1_555
C52_8 C50_8 1_555 1_555
C53_8 N8_8 1_555 1_555
C54_8 N7_8 1_555 1_555
C18_8 C22_8 1_555 1_555
C19_8 C22_8 1_555 1_555
C37_8 C42_8 1_555 1_555
C43_8 C48_8 1_555 1_555
C47_8 C48_8 1_555 1_555
N12_8 C52_8 1_555 1_555
N12_8 C54_8 1_555 1_555
C51_8 C52_8 1_555 1_555
Cu19 O7_8 1_555 1_555
O28_8 C3_8 1_555 1_555
O31_2 C7_8 1_555 1_555
O7_8 C1_8 1_555 1_555
O33 C1_8 1_555 1_555
O38_4 C7_8 1_555 1_555
O40_7 C3_8 1_555 1_555
C1_8 C13_8 1_555 1_555
C3_8 C15_8 1_555 1_555
C5_8 H1_8 1_555 1_555
C6_8 C5_8 1_555 1_555
C7_8 C6_8 1_555 1_555
C10_8 H3_8 1_555 1_555
N1_8 C26_8 1_555 1_555
N2_8 H4_8 1_555 1_555
C13_8 C10_8 1_555 1_555
C15_8 C10_8 1_555 1_555
C20_8 C6_8 1_555 1_555
H9_8 C20_8 1_555 1_555
C21_8 N2_8 1_555 1_555
C23_8 C15_8 1_555 1_555
H10_8 C23_8 1_555 1_555
N6_8 H11_8 1_555 1_555
C24_8 C13_8 1_555 1_555
H12_8 C24_8 1_555 1_555
C25_8 C23_8 1_555 1_555
C26_8 N2_8 1_555 1_555
C27_8 N1_8 1_555 1_555
Cu13 O13_8 1_555 1_555
O13_8 C31_8 1_555 1_555
O26 C31_8 1_555 1_555
O30_2 C38_8 1_555 1_555
O36_4 C38_8 1_555 1_555
O37_7 C29_8 1_555 1_555
C29_8 O27_8 1_555 1_555
C31_8 C39_8 1_555 1_555
C35_8 H14_8 1_555 1_555
C36_8 C29_8 1_555 1_555
C38_8 C41_8 1_555 1_555
N9_8 C44_8 1_555 1_555
N10_8 C44_8 1_555 1_555
C41_8 C35_8 1_555 1_555
N11_8 H17_8 1_555 1_555
C44_8 N11_8 1_555 1_555
C45_8 C41_8 1_555 1_555
H19_8 C45_8 1_555 1_555
C46_8 C36_8 1_555 1_555
H20_8 C46_8 1_555 1_555
C49_8 N11_8 1_555 1_555
C16_8 C21_8 1_555 1_555
C20_8 C21_8 1_555 1_555
N6_8 C25_8 1_555 1_555
N6_8 C27_8 1_555 1_555
C24_8 C25_8 1_555 1_555
C35_8 C36_8 1_555 1_555
C45_8 C49_8 1_555 1_555
C46_8 C49_8 1_555 1_555

#END
