
###############################################################################
#
# This file contains modified crystal structure data generated from the
# MOF subset of the Cambridge Structural Database (CSD) v543 
# hosted by the Cambridge Crystallographic Data Centre (CCDC).
#
# This work is licensed under the Creative Commons
# Attribution-NonCommercial-ShareAlike 4.0 International License.
# To view a copy of this license, visit
# http://creativecommons.org/licenses/by-nc-sa/4.0/
# or send a letter to
# Creative Commons, PO Box 1866, Mountain View, CA 94042, USA.
#
# CIF created using the CSD Python API on 29 September 2022
# The structure has been converted into the P1 space group
# The structure has a 3D framework
# The original CSD entry PAPPAB is in the tetragonal crystal system
# The framework has been calculated to contain at least 10.0% void space
# The void calculation uses a probe of radius 1.32A, grid spacing 0.4
#
###############################################################################

data_PAPPAB
_chemical_formula_moiety         '(C432 H192 Cu40 N96 O180)n'
_symmetry_cell_setting           triclinic
_symmetry_space_group_name_H-M   'P 1'
_symmetry_Int_Tables_number      1
_space_group_name_Hall           'P 1'
loop_
_symmetry_equiv_pos_site_id
_symmetry_equiv_pos_as_xyz
1 x,y,z
_cell_length_a                   26.4620(2)
_cell_length_b                   26.4620(2)
_cell_length_c                   37.9408(5)
_cell_angle_alpha                90
_cell_angle_beta                 90
_cell_angle_gamma                90
_cell_volume                     26567.6
loop_
_atom_site_label
_atom_site_type_symbol
_atom_site_fract_x
_atom_site_fract_y
_atom_site_fract_z
Cu4 Cu 0.07184(7) 0.60856(6) 0.500000
O11 O 0.0195(3) 0.6018(3) 0.4647(2)
O12 O 0.0070(3) 0.6854(3) 0.4641(2)
Cu5 Cu 0.15652(4) 0.23256(4) 0.30575(3)
Cu6 Cu 0.11930(4) 0.17812(4) 0.35178(3)
O13 O 0.2677(3) 0.5906(2) 0.21616(19)
O14 O 0.3202(3) 0.5578(3) 0.1754(2)
O15 O 0.1204(3) 0.6236(3) 0.46288(19)
O16 O 0.0996(3) 0.2396(3) 0.3747(2)
O17 O 0.3562(3) 0.3783(2) 0.1754(2)
O18 O 0.1811(3) 0.8152(3) 0.37440(19)
O19 O 0.2273(3) 0.7803(2) 0.3309(2)
O20 O 0.1371(3) 0.2895(3) 0.3350(2)
O21 O 0.1073(3) 0.7062(3) 0.4640(2)
O22 O 0.3259(3) 0.3291(2) 0.2184(2)
C28 C 0.1114(3) 0.2819(3) 0.3625(3)
C29 C 0.1664(4) 0.7214(4) 0.4057(3)
H13 H 0.154371 0.749777 0.417445
C30 C 0.3331(3) 0.3712(4) 0.2040(3)
C31 C 0.0579(4) 0.3221(4) 0.4085(3)
H14 H 0.044679 0.290410 0.413790
C32 C 0.1258(4) 0.6676(4) 0.4509(3)
C33 C 0.2936(4) 0.5551(4) 0.2024(3)
C34 C 0.3094(4) 0.4168(4) 0.2206(3)
N7 N 0.1665(5) 0.5313(3) 0.3700(3)
C35 C 0.1574(4) 0.6733(4) 0.4190(3)
C36 C 0.0016(4) 0.3602(4) 0.4537(3)
C37 C 0.0940(4) 0.3272(4) 0.3826(3)
C38 C 0.1933(4) 0.7264(4) 0.3748(3)
C39 C 0.3138(4) 0.4641(4) 0.2053(3)
H15 H 0.332580 0.468218 0.184732
N8 N 0.2221(5) 0.5215(3) 0.3206(3)
N9 N 0.1734(5) 0.4514(4) 0.3416(3)
C40 C 0.2904(4) 0.5047(4) 0.2206(3)
C41 C 0.0417(4) 0.3642(4) 0.4265(3)
C42 C 0.2012(5) 0.7784(4) 0.3588(3)
N10 N 0.2257(5) 0.4422(4) 0.2949(3)
H16 H 0.217262 0.411026 0.297594
C43 C 0.2089(5) 0.6847(4) 0.3567(3)
H17 H 0.225868 0.688700 0.335383
N11 N 0.1197(5) 0.4649(4) 0.3884(3)
H18 H 0.107955 0.487685 0.402345
C44 C 0.2611(4) 0.4991(4) 0.2499(3)
H19 H 0.244651 0.526948 0.259585
N12 N 0.2160(5) 0.5962(4) 0.3483(3)
H20 H 0.239725 0.603626 0.333696
C45 C 0.0615(5) 0.4109(4) 0.4187(3)
H21 H 0.049651 0.439292 0.430461
C46 C 0.2807(5) 0.4112(4) 0.2503(4)
H22 H 0.277763 0.379407 0.260619
C47 C 0.1736(5) 0.6308(4) 0.4004(4)
H23 H 0.166736 0.598534 0.408937
C48 C 0.2004(5) 0.5467(4) 0.3470(4)
C49 C 0.2559(5) 0.4516(4) 0.2654(3)
C50 C 0.1999(5) 0.6369(4) 0.3693(4)
C51 C 0.1140(5) 0.3741(4) 0.3746(4)
H24 H 0.137523 0.377261 0.356568
C52 C 0.0992(5) 0.4161(4) 0.3934(4)
C53 C 0.1549(6) 0.4818(5) 0.3653(4)
C54 C 0.2077(6) 0.4738(5) 0.3197(4)
Cu7 Cu 0.05665(7) 0.70061(6) 0.500000
Cu8 Cu 0.23256(4) 0.84348(4) 0.30575(3)
Cu11 Cu 0.34348(4) 0.26744(4) 0.19425(3)
Cu12 Cu 0.26744(4) 0.65652(4) 0.19425(3)
Cu14 Cu 0.17812(4) 0.88070(4) 0.35178(3)
Cu17 Cu 0.38070(4) 0.32188(4) 0.14822(3)
Cu18 Cu 0.32188(4) 0.61930(4) 0.14822(3)
O26 O 0.0906(2) 0.2323(3) 0.28384(19)
O28 O 0.0578(3) 0.1798(3) 0.3246(2)
O29 O 0.1204(3) 0.6236(3) 0.53712(19)
O31 O 0.1438(3) 0.1217(2) 0.3246(2)
O33 O 0.1848(3) 0.1811(3) 0.37440(19)
O35 O 0.2197(2) 0.2273(3) 0.3309(2)
O38 O 0.1741(3) 0.1709(2) 0.2816(2)
O39 O 0.0195(3) 0.6018(3) 0.5353(2)
Cu1 Cu 0.94335(7) 0.29939(6) 0.500000
Cu2 Cu 0.84348(4) 0.76744(4) 0.30575(3)
Cu3 Cu 0.88070(4) 0.82188(4) 0.35178(3)
O1 O 0.7323(3) 0.4094(2) 0.21616(19)
O2 O 0.6798(3) 0.4422(3) 0.1754(2)
O3 O 0.8796(3) 0.3764(3) 0.46288(19)
O4 O 0.9004(3) 0.7604(3) 0.3747(2)
O5 O 0.6438(3) 0.6217(2) 0.1754(2)
O6 O 0.8189(3) 0.1848(3) 0.37440(19)
O7 O 0.7727(3) 0.2197(2) 0.3309(2)
O8 O 0.8629(3) 0.7105(3) 0.3350(2)
O9 O 0.8927(3) 0.2938(3) 0.4640(2)
O10 O 0.6741(3) 0.6709(2) 0.2184(2)
C1 C 0.8886(3) 0.7181(3) 0.3625(3)
C2 C 0.8336(4) 0.2786(4) 0.4057(3)
H1 H 0.845629 0.250223 0.417445
C3 C 0.6669(3) 0.6288(4) 0.2040(3)
C4 C 0.9421(4) 0.6779(4) 0.4085(3)
H2 H 0.955321 0.709590 0.413790
C5 C 0.8742(4) 0.3324(4) 0.4509(3)
C6 C 0.7064(4) 0.4449(4) 0.2024(3)
C7 C 0.6906(4) 0.5832(4) 0.2206(3)
N1 N 0.8335(5) 0.4687(3) 0.3700(3)
C8 C 0.8426(4) 0.3267(4) 0.4190(3)
C9 C 0.9984(4) 0.6398(4) 0.4537(3)
C10 C 0.9060(4) 0.6728(4) 0.3826(3)
C11 C 0.8067(4) 0.2736(4) 0.3748(3)
C12 C 0.6862(4) 0.5359(4) 0.2053(3)
H3 H 0.667420 0.531782 0.184732
N2 N 0.7779(5) 0.4785(3) 0.3206(3)
N3 N 0.8266(5) 0.5486(4) 0.3416(3)
C13 C 0.7096(4) 0.4953(4) 0.2206(3)
C14 C 0.9583(4) 0.6358(4) 0.4265(3)
C15 C 0.7988(5) 0.2216(4) 0.3588(3)
N4 N 0.7743(5) 0.5578(4) 0.2949(3)
H4 H 0.782738 0.588974 0.297594
C16 C 0.7911(5) 0.3153(4) 0.3567(3)
H5 H 0.774132 0.311300 0.335383
N5 N 0.8803(5) 0.5351(4) 0.3884(3)
H6 H 0.892045 0.512315 0.402345
C17 C 0.7389(4) 0.5009(4) 0.2499(3)
H7 H 0.755349 0.473052 0.259585
N6 N 0.7840(5) 0.4038(4) 0.3483(3)
H8 H 0.760275 0.396374 0.333696
C18 C 0.9385(5) 0.5891(4) 0.4187(3)
H9 H 0.950349 0.560708 0.430461
C19 C 0.7193(5) 0.5888(4) 0.2503(4)
H10 H 0.722237 0.620593 0.260619
C20 C 0.8264(5) 0.3692(4) 0.4004(4)
H11 H 0.833264 0.401466 0.408937
C21 C 0.7996(5) 0.4533(4) 0.3470(4)
C22 C 0.7441(5) 0.5484(4) 0.2654(3)
C23 C 0.8001(5) 0.3631(4) 0.3693(4)
C24 C 0.8860(5) 0.6259(4) 0.3746(4)
H12 H 0.862477 0.622739 0.356568
C25 C 0.9008(5) 0.5839(4) 0.3934(4)
C26 C 0.8451(6) 0.5182(5) 0.3653(4)
C27 C 0.7923(6) 0.5262(5) 0.3197(4)
O23 O 0.9805(3) 0.3982(3) 0.4647(2)
O24 O 0.9930(3) 0.3146(3) 0.4641(2)
Cu9 Cu 0.76744(4) 0.15652(4) 0.30575(3)
Cu10 Cu 0.65652(4) 0.73256(4) 0.19425(3)
Cu13 Cu 0.73256(4) 0.34348(4) 0.19425(3)
Cu15 Cu 0.82188(4) 0.11930(4) 0.35178(3)
Cu16 Cu 0.61930(4) 0.67812(4) 0.14822(3)
Cu19 Cu 0.67812(4) 0.38070(4) 0.14822(3)
Cu20 Cu 0.92816(7) 0.39144(6) 0.500000
O25 O 0.9094(2) 0.7677(3) 0.28384(19)
O27 O 0.9422(3) 0.8202(3) 0.3246(2)
O30 O 0.8562(3) 0.8783(2) 0.3246(2)
O32 O 0.8152(3) 0.8189(3) 0.37440(19)
O34 O 0.7803(2) 0.7727(3) 0.3309(2)
O36 O 0.8927(3) 0.2938(3) 0.5360(2)
O37 O 0.8259(3) 0.8291(2) 0.2816(2)
O40 O 0.9930(3) 0.3146(3) 0.5359(2)
O36_2 O 0.1073(3) 0.7062(3) 0.5360(2)
O40_2 O 0.0070(3) 0.6854(3) 0.5359(2)
O29_2 O 0.8796(3) 0.3764(3) 0.53712(19)
O39_2 O 0.9805(3) 0.3982(3) 0.5353(2)
Cu4_2 Cu 0.39144(6) 0.07184(7) 0.500000
O11_2 O 0.3982(3) 0.0195(3) 0.4647(2)
O12_2 O 0.3146(3) 0.0070(3) 0.4641(2)
O13_2 O 0.4094(2) 0.2677(3) 0.21616(19)
O14_2 O 0.4422(3) 0.3202(3) 0.1754(2)
O15_2 O 0.3764(3) 0.1204(3) 0.46288(19)
O16_2 O 0.7604(3) 0.0996(3) 0.3747(2)
O17_2 O 0.6217(2) 0.3562(3) 0.1754(2)
O20_2 O 0.7105(3) 0.1371(3) 0.3350(2)
O21_2 O 0.2938(3) 0.1073(3) 0.4640(2)
O22_2 O 0.6709(2) 0.3259(3) 0.2184(2)
C28_2 C 0.7181(3) 0.1114(3) 0.3625(3)
C29_2 C 0.2786(4) 0.1664(4) 0.4057(3)
H13_2 H 0.250223 0.154371 0.417445
C30_2 C 0.6288(4) 0.3331(3) 0.2040(3)
C31_2 C 0.6779(4) 0.0579(4) 0.4085(3)
H14_2 H 0.709590 0.044679 0.413790
C32_2 C 0.3324(4) 0.1258(4) 0.4509(3)
C33_2 C 0.4449(4) 0.2936(4) 0.2024(3)
C34_2 C 0.5832(4) 0.3094(4) 0.2206(3)
N7_2 N 0.4687(3) 0.1665(5) 0.3700(3)
C35_2 C 0.3267(4) 0.1574(4) 0.4190(3)
C36_2 C 0.6398(4) 0.0016(4) 0.4537(3)
C37_2 C 0.6728(4) 0.0940(4) 0.3826(3)
C38_2 C 0.2736(4) 0.1933(4) 0.3748(3)
C39_2 C 0.5359(4) 0.3138(4) 0.2053(3)
H15_2 H 0.531782 0.332580 0.184732
N8_2 N 0.4785(3) 0.2221(5) 0.3206(3)
N9_2 N 0.5486(4) 0.1734(5) 0.3416(3)
C40_2 C 0.4953(4) 0.2904(4) 0.2206(3)
C41_2 C 0.6358(4) 0.0417(4) 0.4265(3)
C42_2 C 0.2216(4) 0.2012(5) 0.3588(3)
N10_2 N 0.5578(4) 0.2257(5) 0.2949(3)
H16_2 H 0.588974 0.217262 0.297594
C43_2 C 0.3153(4) 0.2089(5) 0.3567(3)
H17_2 H 0.311300 0.225868 0.335383
N11_2 N 0.5351(4) 0.1197(5) 0.3884(3)
H18_2 H 0.512315 0.107955 0.402345
C44_2 C 0.5009(4) 0.2611(4) 0.2499(3)
H19_2 H 0.473052 0.244651 0.259585
N12_2 N 0.4038(4) 0.2160(5) 0.3483(3)
H20_2 H 0.396374 0.239725 0.333696
C45_2 C 0.5891(4) 0.0615(5) 0.4187(3)
H21_2 H 0.560708 0.049651 0.430461
C46_2 C 0.5888(4) 0.2807(5) 0.2503(4)
H22_2 H 0.620593 0.277763 0.260619
C47_2 C 0.3692(4) 0.1736(5) 0.4004(4)
H23_2 H 0.401466 0.166736 0.408937
C48_2 C 0.4533(4) 0.2004(5) 0.3470(4)
C49_2 C 0.5484(4) 0.2559(5) 0.2654(3)
C50_2 C 0.3631(4) 0.1999(5) 0.3693(4)
C51_2 C 0.6259(4) 0.1140(5) 0.3746(4)
H24_2 H 0.622739 0.137523 0.356568
C52_2 C 0.5839(4) 0.0992(5) 0.3934(4)
C53_2 C 0.5182(5) 0.1549(6) 0.3653(4)
C54_2 C 0.5262(5) 0.2077(6) 0.3197(4)
Cu7_2 Cu 0.29939(6) 0.05665(7) 0.500000
O26_2 O 0.7677(3) 0.0906(2) 0.28384(19)
O28_2 O 0.8202(3) 0.0578(3) 0.3246(2)
O29_3 O 0.3764(3) 0.1204(3) 0.53712(19)
O31_2 O 0.8783(2) 0.1438(3) 0.3246(2)
O38_2 O 0.8291(2) 0.1741(3) 0.2816(2)
O39_3 O 0.3982(3) 0.0195(3) 0.5353(2)
Cu1_2 Cu 0.70061(6) 0.94335(7) 0.500000
O1_2 O 0.5906(2) 0.7323(3) 0.21616(19)
O2_2 O 0.5578(3) 0.6798(3) 0.1754(2)
O3_2 O 0.6236(3) 0.8796(3) 0.46288(19)
O4_2 O 0.2396(3) 0.9004(3) 0.3747(2)
O5_2 O 0.3783(2) 0.6438(3) 0.1754(2)
O8_2 O 0.2895(3) 0.8629(3) 0.3350(2)
O9_2 O 0.7062(3) 0.8927(3) 0.4640(2)
O10_2 O 0.3291(2) 0.6741(3) 0.2184(2)
C1_2 C 0.2819(3) 0.8886(3) 0.3625(3)
C2_2 C 0.7214(4) 0.8336(4) 0.4057(3)
H1_2 H 0.749777 0.845629 0.417445
C3_2 C 0.3712(4) 0.6669(3) 0.2040(3)
C4_2 C 0.3221(4) 0.9421(4) 0.4085(3)
H2_2 H 0.290410 0.955321 0.413790
C5_2 C 0.6676(4) 0.8742(4) 0.4509(3)
C6_2 C 0.5551(4) 0.7064(4) 0.2024(3)
C7_2 C 0.4168(4) 0.6906(4) 0.2206(3)
N1_2 N 0.5313(3) 0.8335(5) 0.3700(3)
C8_2 C 0.6733(4) 0.8426(4) 0.4190(3)
C9_2 C 0.3602(4) 0.9984(4) 0.4537(3)
C10_2 C 0.3272(4) 0.9060(4) 0.3826(3)
C11_2 C 0.7264(4) 0.8067(4) 0.3748(3)
C12_2 C 0.4641(4) 0.6862(4) 0.2053(3)
H3_2 H 0.468218 0.667420 0.184732
N2_2 N 0.5215(3) 0.7779(5) 0.3206(3)
N3_2 N 0.4514(4) 0.8266(5) 0.3416(3)
C13_2 C 0.5047(4) 0.7096(4) 0.2206(3)
C14_2 C 0.3642(4) 0.9583(4) 0.4265(3)
C15_2 C 0.7784(4) 0.7988(5) 0.3588(3)
N4_2 N 0.4422(4) 0.7743(5) 0.2949(3)
H4_2 H 0.411026 0.782738 0.297594
C16_2 C 0.6847(4) 0.7911(5) 0.3567(3)
H5_2 H 0.688700 0.774132 0.335383
N5_2 N 0.4649(4) 0.8803(5) 0.3884(3)
H6_2 H 0.487685 0.892045 0.402345
C17_2 C 0.4991(4) 0.7389(4) 0.2499(3)
H7_2 H 0.526948 0.755349 0.259585
N6_2 N 0.5962(4) 0.7840(5) 0.3483(3)
H8_2 H 0.603626 0.760275 0.333696
C18_2 C 0.4109(4) 0.9385(5) 0.4187(3)
H9_2 H 0.439292 0.950349 0.430461
C19_2 C 0.4112(4) 0.7193(5) 0.2503(4)
H10_2 H 0.379407 0.722237 0.260619
C20_2 C 0.6308(4) 0.8264(5) 0.4004(4)
H11_2 H 0.598534 0.833264 0.408937
C21_2 C 0.5467(4) 0.7996(5) 0.3470(4)
C22_2 C 0.4516(4) 0.7441(5) 0.2654(3)
C23_2 C 0.6369(4) 0.8001(5) 0.3693(4)
C24_2 C 0.3741(4) 0.8860(5) 0.3746(4)
H12_2 H 0.377261 0.862477 0.356568
C25_2 C 0.4161(4) 0.9008(5) 0.3934(4)
C26_2 C 0.4818(5) 0.8451(6) 0.3653(4)
C27_2 C 0.4738(5) 0.7923(6) 0.3197(4)
O23_2 O 0.6018(3) 0.9805(3) 0.4647(2)
O24_2 O 0.6854(3) 0.9930(3) 0.4641(2)
Cu20_2 Cu 0.60856(6) 0.92816(7) 0.500000
O25_2 O 0.2323(3) 0.9094(2) 0.28384(19)
O27_2 O 0.1798(3) 0.9422(3) 0.3246(2)
O30_2 O 0.1217(2) 0.8562(3) 0.3246(2)
O36_3 O 0.7062(3) 0.8927(3) 0.5360(2)
O37_2 O 0.1709(2) 0.8259(3) 0.2816(2)
O40_3 O 0.6854(3) 0.9930(3) 0.5359(2)
O36_4 O 0.2938(3) 0.1073(3) 0.5360(2)
O40_4 O 0.3146(3) 0.0070(3) 0.5359(2)
O29_4 O 0.6236(3) 0.8796(3) 0.53712(19)
O39_4 O 0.6018(3) 0.9805(3) 0.5353(2)
Cu4_3 Cu 0.57184(7) 0.10856(6) 0.000000
Cu7_3 Cu 0.55665(7) 0.20061(6) 0.000000
O29_5 O 0.6204(3) 0.1236(3) 0.03712(19)
O39_5 O 0.5195(3) 0.1018(3) 0.0353(2)
Cu2_2 Cu 0.34348(4) 0.26744(4) 0.80575(3)
Cu3_2 Cu 0.38070(4) 0.32188(4) 0.85178(3)
Cu4_4 Cu 0.57184(7) 0.10856(6) 1.000000
O4_3 O 0.4004(3) 0.2604(3) 0.8747(2)
O5_3 O 0.1438(3) 0.1217(2) 0.6754(2)
O8_3 O 0.3629(3) 0.2105(3) 0.8350(2)
O10_3 O 0.1741(3) 0.1709(2) 0.7184(2)
O11_3 O 0.5195(3) 0.1018(3) 0.9647(2)
O12_3 O 0.5070(3) 0.1854(3) 0.9641(2)
C1_3 C 0.3886(3) 0.2181(3) 0.8625(3)
C3_3 C 0.1669(3) 0.1288(4) 0.7040(3)
C4_3 C 0.4421(4) 0.1779(4) 0.9085(3)
H2_3 H 0.455321 0.209590 0.913790
C7_3 C 0.1906(4) 0.0832(4) 0.7206(3)
C9_3 C 0.4984(4) 0.1398(4) 0.9537(3)
C10_3 C 0.4060(4) 0.1728(4) 0.8826(3)
C12_3 C 0.1862(4) 0.0359(4) 0.7053(3)
H3_3 H 0.167420 0.031782 0.684732
N3_3 N 0.3266(5) 0.0486(4) 0.8416(3)
C14_3 C 0.4583(4) 0.1358(4) 0.9265(3)
N4_3 N 0.2743(5) 0.0578(4) 0.7949(3)
H4_3 H 0.282738 0.088974 0.797594
N5_3 N 0.3803(5) 0.0351(4) 0.8884(3)
H6_3 H 0.392045 0.012315 0.902345
C17_3 C 0.2389(4) 0.0009(4) 0.7499(3)
C18_3 C 0.4385(5) 0.0891(4) 0.9187(3)
H9_3 H 0.450349 0.060708 0.930461
C19_3 C 0.2193(5) 0.0888(4) 0.7503(4)
H10_3 H 0.222237 0.120593 0.760619
C22_3 C 0.2441(5) 0.0484(4) 0.7654(3)
C24_3 C 0.3860(5) 0.1259(4) 0.8746(4)
H12_3 H 0.362477 0.122739 0.856568
C25_3 C 0.4008(5) 0.0839(4) 0.8934(4)
C26_3 C 0.3451(6) 0.0182(5) 0.8653(4)
C27_3 C 0.2923(6) 0.0262(5) 0.8197(4)
O13_3 O 0.7677(3) 0.0906(2) 0.71616(19)
O14_3 O 0.8202(3) 0.0578(3) 0.6754(2)
O15_3 O 0.6204(3) 0.1236(3) 0.96288(19)
O18_2 O 0.6811(3) 0.3152(3) 0.87440(19)
O19_2 O 0.7273(3) 0.2803(2) 0.8309(2)
O21_3 O 0.6073(3) 0.2062(3) 0.9640(2)
C29_3 C 0.6664(4) 0.2214(4) 0.9057(3)
H13_3 H 0.654371 0.249777 0.917445
C32_3 C 0.6258(4) 0.1676(4) 0.9509(3)
C33_3 C 0.7936(4) 0.0551(4) 0.7024(3)
N7_3 N 0.6665(5) 0.0313(3) 0.8700(3)
C35_3 C 0.6574(4) 0.1733(4) 0.9190(3)
C38_3 C 0.6933(4) 0.2264(4) 0.8748(3)
N8_3 N 0.7221(5) 0.0215(3) 0.8206(3)
C40_3 C 0.7904(4) 0.0047(4) 0.7206(3)
C42_3 C 0.7012(5) 0.2784(4) 0.8588(3)
C43_3 C 0.7089(5) 0.1847(4) 0.8567(3)
H17_3 H 0.725868 0.188700 0.835383
H19_3 H 0.744651 0.026948 0.759585
N12_3 N 0.7160(5) 0.0962(4) 0.8483(3)
H20_3 H 0.739725 0.103626 0.833696
C47_3 C 0.6736(5) 0.1308(4) 0.9004(4)
H23_3 H 0.666736 0.098534 0.908937
C48_3 C 0.7004(5) 0.0467(4) 0.8470(4)
C50_3 C 0.6999(5) 0.1369(4) 0.8693(4)
Cu7_4 Cu 0.55665(7) 0.20061(6) 1.000000
Cu8_2 Cu 0.73256(4) 0.34348(4) 0.80575(3)
Cu10_2 Cu 0.15652(4) 0.23256(4) 0.69425(3)
Cu12_2 Cu 0.76744(4) 0.15652(4) 0.69425(3)
Cu14_2 Cu 0.67812(4) 0.38070(4) 0.85178(3)
Cu16_2 Cu 0.11930(4) 0.17812(4) 0.64822(3)
Cu18_2 Cu 0.82188(4) 0.11930(4) 0.64822(3)
O25_3 O 0.4094(2) 0.2677(3) 0.78384(19)
O27_3 O 0.4422(3) 0.3202(3) 0.8246(2)
O30_3 O 0.3562(3) 0.3783(2) 0.8246(2)
O32_2 O 0.3152(3) 0.3189(3) 0.87440(19)
O34_2 O 0.2803(2) 0.2727(3) 0.8309(2)
O37_3 O 0.3259(3) 0.3291(2) 0.7816(2)
Cu1_3 Cu 0.44335(7) 0.79939(6) 0.000000
Cu20_3 Cu 0.42816(7) 0.89144(6) 0.000000
O36_5 O 0.3927(3) 0.7938(3) 0.0360(2)
O40_5 O 0.4930(3) 0.8146(3) 0.0359(2)
Cu1_4 Cu 0.44335(7) 0.79939(6) 1.000000
O1_3 O 0.2323(3) 0.9094(2) 0.71616(19)
O2_3 O 0.1798(3) 0.9422(3) 0.6754(2)
O3_3 O 0.3796(3) 0.8764(3) 0.96288(19)
O6_2 O 0.3189(3) 0.6848(3) 0.87440(19)
O7_2 O 0.2727(3) 0.7197(2) 0.8309(2)
O9_3 O 0.3927(3) 0.7938(3) 0.9640(2)
C2_3 C 0.3336(4) 0.7786(4) 0.9057(3)
H1_3 H 0.345629 0.750223 0.917445
C5_3 C 0.3742(4) 0.8324(4) 0.9509(3)
C6_3 C 0.2064(4) 0.9449(4) 0.7024(3)
N1_3 N 0.3335(5) 0.9687(3) 0.8700(3)
C8_3 C 0.3426(4) 0.8267(4) 0.9190(3)
C11_3 C 0.3067(4) 0.7736(4) 0.8748(3)
N2_3 N 0.2779(5) 0.9785(3) 0.8206(3)
C13_3 C 0.2096(4) 0.9953(4) 0.7206(3)
C15_3 C 0.2988(5) 0.7216(4) 0.8588(3)
C16_3 C 0.2911(5) 0.8153(4) 0.8567(3)
H5_3 H 0.274132 0.811300 0.835383
H7_3 H 0.255349 0.973052 0.759585
N6_3 N 0.2840(5) 0.9038(4) 0.8483(3)
H8_3 H 0.260275 0.896374 0.833696
C20_3 C 0.3264(5) 0.8692(4) 0.9004(4)
H11_3 H 0.333264 0.901466 0.908937
C21_3 C 0.2996(5) 0.9533(4) 0.8470(4)
C23_3 C 0.3001(5) 0.8631(4) 0.8693(4)
Cu5_2 Cu 0.65652(4) 0.73256(4) 0.80575(3)
Cu6_2 Cu 0.61930(4) 0.67812(4) 0.85178(3)
O16_3 O 0.5996(3) 0.7396(3) 0.8747(2)
O17_3 O 0.8562(3) 0.8783(2) 0.6754(2)
O20_3 O 0.6371(3) 0.7895(3) 0.8350(2)
O22_3 O 0.8259(3) 0.8291(2) 0.7184(2)
O23_3 O 0.4805(3) 0.8982(3) 0.9647(2)
O24_3 O 0.4930(3) 0.8146(3) 0.9641(2)
C28_3 C 0.6114(3) 0.7819(3) 0.8625(3)
C30_3 C 0.8331(3) 0.8712(4) 0.7040(3)
C31_3 C 0.5579(4) 0.8221(4) 0.9085(3)
H14_3 H 0.544679 0.790410 0.913790
C34_3 C 0.8094(4) 0.9168(4) 0.7206(3)
C36_3 C 0.5016(4) 0.8602(4) 0.9537(3)
C37_3 C 0.5940(4) 0.8272(4) 0.8826(3)
C39_3 C 0.8138(4) 0.9641(4) 0.7053(3)
H15_3 H 0.832580 0.968218 0.684732
N9_3 N 0.6734(5) 0.9514(4) 0.8416(3)
C41_3 C 0.5417(4) 0.8642(4) 0.9265(3)
N10_3 N 0.7257(5) 0.9422(4) 0.7949(3)
H16_3 H 0.717262 0.911026 0.797594
N11_3 N 0.6197(5) 0.9649(4) 0.8884(3)
H18_3 H 0.607955 0.987685 0.902345
C44_3 C 0.7611(4) 0.9991(4) 0.7499(3)
C45_3 C 0.5615(5) 0.9109(4) 0.9187(3)
H21_3 H 0.549651 0.939292 0.930461
C46_3 C 0.7807(5) 0.9112(4) 0.7503(4)
H22_3 H 0.777763 0.879407 0.760619
C49_3 C 0.7559(5) 0.9516(4) 0.7654(3)
C51_3 C 0.6140(5) 0.8741(4) 0.8746(4)
H24_3 H 0.637523 0.877261 0.856568
C52_3 C 0.5992(5) 0.9161(4) 0.8934(4)
C53_3 C 0.6549(6) 0.9818(5) 0.8653(4)
C54_3 C 0.7077(6) 0.9738(5) 0.8197(4)
Cu9_2 Cu 0.26744(4) 0.65652(4) 0.80575(3)
Cu11_2 Cu 0.84348(4) 0.76744(4) 0.69425(3)
Cu13_2 Cu 0.23256(4) 0.84348(4) 0.69425(3)
Cu15_2 Cu 0.32188(4) 0.61930(4) 0.85178(3)
Cu17_2 Cu 0.88070(4) 0.82188(4) 0.64822(3)
Cu19_2 Cu 0.17812(4) 0.88070(4) 0.64822(3)
Cu20_4 Cu 0.42816(7) 0.89144(6) 1.000000
O26_3 O 0.5906(2) 0.7323(3) 0.78384(19)
O28_3 O 0.5578(3) 0.6798(3) 0.8246(2)
O31_3 O 0.6438(3) 0.6217(2) 0.8246(2)
O33_2 O 0.6848(3) 0.6811(3) 0.87440(19)
O35_2 O 0.7197(2) 0.7273(3) 0.8309(2)
O38_3 O 0.6741(3) 0.6709(2) 0.7816(2)
O36_6 O 0.6073(3) 0.2062(3) 0.0360(2)
O40_6 O 0.5070(3) 0.1854(3) 0.0359(2)
O29_6 O 0.3796(3) 0.8764(3) 0.03712(19)
O39_6 O 0.4805(3) 0.8982(3) 0.0353(2)
Cu1_5 Cu 0.20061(6) 0.44335(7) 0.000000
Cu20_5 Cu 0.10856(6) 0.42816(7) 0.000000
O36_7 O 0.2062(3) 0.3927(3) 0.0360(2)
O40_7 O 0.1854(3) 0.4930(3) 0.0359(2)
Cu1_6 Cu 0.20061(6) 0.44335(7) 1.000000
O1_4 O 0.0906(2) 0.2323(3) 0.71616(19)
O2_4 O 0.0578(3) 0.1798(3) 0.6754(2)
O3_4 O 0.1236(3) 0.3796(3) 0.96288(19)
O9_4 O 0.2062(3) 0.3927(3) 0.9640(2)
C2_4 C 0.2214(4) 0.3336(4) 0.9057(3)
H1_4 H 0.249777 0.345629 0.917445
C5_4 C 0.1676(4) 0.3742(4) 0.9509(3)
C6_4 C 0.0551(4) 0.2064(4) 0.7024(3)
N1_4 N 0.0313(3) 0.3335(5) 0.8700(3)
C8_4 C 0.1733(4) 0.3426(4) 0.9190(3)
C11_4 C 0.2264(4) 0.3067(4) 0.8748(3)
N2_4 N 0.0215(3) 0.2779(5) 0.8206(3)
C13_4 C 0.0047(4) 0.2096(4) 0.7206(3)
C15_4 C 0.2784(4) 0.2988(5) 0.8588(3)
C16_4 C 0.1847(4) 0.2911(5) 0.8567(3)
H5_4 H 0.188700 0.274132 0.835383
H7_4 H 0.026948 0.255349 0.759585
N6_4 N 0.0962(4) 0.2840(5) 0.8483(3)
H8_4 H 0.103626 0.260275 0.833696
C20_4 C 0.1308(4) 0.3264(5) 0.9004(4)
H11_4 H 0.098534 0.333264 0.908937
C21_4 C 0.0467(4) 0.2996(5) 0.8470(4)
C23_4 C 0.1369(4) 0.3001(5) 0.8693(4)
O16_4 O 0.2604(3) 0.5996(3) 0.8747(2)
O17_4 O 0.1217(2) 0.8562(3) 0.6754(2)
O20_4 O 0.2105(3) 0.6371(3) 0.8350(2)
O22_4 O 0.1709(2) 0.8259(3) 0.7184(2)
O23_4 O 0.1018(3) 0.4805(3) 0.9647(2)
O24_4 O 0.1854(3) 0.4930(3) 0.9641(2)
C28_4 C 0.2181(3) 0.6114(3) 0.8625(3)
C30_4 C 0.1288(4) 0.8331(3) 0.7040(3)
C31_4 C 0.1779(4) 0.5579(4) 0.9085(3)
H14_4 H 0.209590 0.544679 0.913790
C34_4 C 0.0832(4) 0.8094(4) 0.7206(3)
C36_4 C 0.1398(4) 0.5016(4) 0.9537(3)
C37_4 C 0.1728(4) 0.5940(4) 0.8826(3)
C39_4 C 0.0359(4) 0.8138(4) 0.7053(3)
H15_4 H 0.031782 0.832580 0.684732
N9_4 N 0.0486(4) 0.6734(5) 0.8416(3)
C41_4 C 0.1358(4) 0.5417(4) 0.9265(3)
N10_4 N 0.0578(4) 0.7257(5) 0.7949(3)
H16_4 H 0.088974 0.717262 0.797594
N11_4 N 0.0351(4) 0.6197(5) 0.8884(3)
H18_4 H 0.012315 0.607955 0.902345
C44_4 C 0.0009(4) 0.7611(4) 0.7499(3)
C45_4 C 0.0891(4) 0.5615(5) 0.9187(3)
H21_4 H 0.060708 0.549651 0.930461
C46_4 C 0.0888(4) 0.7807(5) 0.7503(4)
H22_4 H 0.120593 0.777763 0.760619
C49_4 C 0.0484(4) 0.7559(5) 0.7654(3)
C51_4 C 0.1259(4) 0.6140(5) 0.8746(4)
H24_4 H 0.122739 0.637523 0.856568
C52_4 C 0.0839(4) 0.5992(5) 0.8934(4)
C53_4 C 0.0182(5) 0.6549(6) 0.8653(4)
C54_4 C 0.0262(5) 0.7077(6) 0.8197(4)
Cu20_6 Cu 0.10856(6) 0.42816(7) 1.000000
O26_4 O 0.2677(3) 0.5906(2) 0.78384(19)
O28_4 O 0.3202(3) 0.5578(3) 0.8246(2)
O31_4 O 0.3783(2) 0.6438(3) 0.8246(2)
O38_4 O 0.3291(2) 0.6741(3) 0.7816(2)
Cu4_5 Cu 0.89144(6) 0.57184(7) 0.000000
Cu7_5 Cu 0.79939(6) 0.55665(7) 0.000000
O29_7 O 0.8764(3) 0.6204(3) 0.03712(19)
O39_7 O 0.8982(3) 0.5195(3) 0.0353(2)
Cu4_6 Cu 0.89144(6) 0.57184(7) 1.000000
O4_4 O 0.7396(3) 0.4004(3) 0.8747(2)
O5_4 O 0.8783(2) 0.1438(3) 0.6754(2)
O8_4 O 0.7895(3) 0.3629(3) 0.8350(2)
O10_4 O 0.8291(2) 0.1741(3) 0.7184(2)
O11_4 O 0.8982(3) 0.5195(3) 0.9647(2)
O12_4 O 0.8146(3) 0.5070(3) 0.9641(2)
C1_4 C 0.7819(3) 0.3886(3) 0.8625(3)
C3_4 C 0.8712(4) 0.1669(3) 0.7040(3)
C4_4 C 0.8221(4) 0.4421(4) 0.9085(3)
H2_4 H 0.790410 0.455321 0.913790
C7_4 C 0.9168(4) 0.1906(4) 0.7206(3)
C9_4 C 0.8602(4) 0.4984(4) 0.9537(3)
C10_4 C 0.8272(4) 0.4060(4) 0.8826(3)
C12_4 C 0.9641(4) 0.1862(4) 0.7053(3)
H3_4 H 0.968218 0.167420 0.684732
N3_4 N 0.9514(4) 0.3266(5) 0.8416(3)
C14_4 C 0.8642(4) 0.4583(4) 0.9265(3)
N4_4 N 0.9422(4) 0.2743(5) 0.7949(3)
H4_4 H 0.911026 0.282738 0.797594
N5_4 N 0.9649(4) 0.3803(5) 0.8884(3)
H6_4 H 0.987685 0.392045 0.902345
C17_4 C 0.9991(4) 0.2389(4) 0.7499(3)
C18_4 C 0.9109(4) 0.4385(5) 0.9187(3)
H9_4 H 0.939292 0.450349 0.930461
C19_4 C 0.9112(4) 0.2193(5) 0.7503(4)
H10_4 H 0.879407 0.222237 0.760619
C22_4 C 0.9516(4) 0.2441(5) 0.7654(3)
C24_4 C 0.8741(4) 0.3860(5) 0.8746(4)
H12_4 H 0.877261 0.362477 0.856568
C25_4 C 0.9161(4) 0.4008(5) 0.8934(4)
C26_4 C 0.9818(5) 0.3451(6) 0.8653(4)
C27_4 C 0.9738(5) 0.2923(6) 0.8197(4)
O13_4 O 0.9094(2) 0.7677(3) 0.71616(19)
O14_4 O 0.9422(3) 0.8202(3) 0.6754(2)
O15_4 O 0.8764(3) 0.6204(3) 0.96288(19)
O21_4 O 0.7938(3) 0.6073(3) 0.9640(2)
C29_4 C 0.7786(4) 0.6664(4) 0.9057(3)
H13_4 H 0.750223 0.654371 0.917445
C32_4 C 0.8324(4) 0.6258(4) 0.9509(3)
C33_4 C 0.9449(4) 0.7936(4) 0.7024(3)
N7_4 N 0.9687(3) 0.6665(5) 0.8700(3)
C35_4 C 0.8267(4) 0.6574(4) 0.9190(3)
C38_4 C 0.7736(4) 0.6933(4) 0.8748(3)
N8_4 N 0.9785(3) 0.7221(5) 0.8206(3)
C40_4 C 0.9953(4) 0.7904(4) 0.7206(3)
C42_4 C 0.7216(4) 0.7012(5) 0.8588(3)
C43_4 C 0.8153(4) 0.7089(5) 0.8567(3)
H17_4 H 0.811300 0.725868 0.835383
H19_4 H 0.973052 0.744651 0.759585
N12_4 N 0.9038(4) 0.7160(5) 0.8483(3)
H20_4 H 0.896374 0.739725 0.833696
C47_4 C 0.8692(4) 0.6736(5) 0.9004(4)
H23_4 H 0.901466 0.666736 0.908937
C48_4 C 0.9533(4) 0.7004(5) 0.8470(4)
C50_4 C 0.8631(4) 0.6999(5) 0.8693(4)
Cu7_6 Cu 0.79939(6) 0.55665(7) 1.000000
O25_4 O 0.7323(3) 0.4094(2) 0.78384(19)
O27_4 O 0.6798(3) 0.4422(3) 0.8246(2)
O30_4 O 0.6217(2) 0.3562(3) 0.8246(2)
O37_4 O 0.6709(2) 0.3259(3) 0.7816(2)
O29_8 O 0.1236(3) 0.3796(3) 0.03712(19)
O39_8 O 0.1018(3) 0.4805(3) 0.0353(2)
O36_8 O 0.7938(3) 0.6073(3) 0.0360(2)
O40_8 O 0.8146(3) 0.5070(3) 0.0359(2)
O4_5 O 0.0996(3) 0.2396(3) 0.6253(2)
O6_3 O 0.1811(3) 0.8152(3) 0.62560(19)
O7_3 O 0.2273(3) 0.7803(2) 0.6691(2)
O8_5 O 0.1371(3) 0.2895(3) 0.6650(2)
C1_5 C 0.1114(3) 0.2819(3) 0.6375(3)
C2_5 C 0.1664(4) 0.7214(4) 0.5943(3)
H1_5 H 0.154371 0.749777 0.582555
C3_5 C 0.3331(3) 0.3712(4) 0.7960(3)
C4_5 C 0.0579(4) 0.3221(4) 0.5915(3)
H2_5 H 0.044679 0.290410 0.586210
C5_5 C 0.1258(4) 0.6676(4) 0.5491(3)
C6_5 C 0.2936(4) 0.5551(4) 0.7976(3)
C7_5 C 0.3094(4) 0.4168(4) 0.7794(3)
N1_5 N 0.1665(5) 0.5313(3) 0.6300(3)
C8_5 C 0.1574(4) 0.6733(4) 0.5810(3)
C9_5 C 0.0016(4) 0.3602(4) 0.5463(3)
C10_5 C 0.0940(4) 0.3272(4) 0.6174(3)
C11_5 C 0.1933(4) 0.7264(4) 0.6252(3)
C12_5 C 0.3138(4) 0.4641(4) 0.7947(3)
H3_5 H 0.332580 0.468218 0.815268
N2_5 N 0.2221(5) 0.5215(3) 0.6794(3)
N3_5 N 0.1734(5) 0.4514(4) 0.6584(3)
C13_5 C 0.2904(4) 0.5047(4) 0.7794(3)
C14_5 C 0.0417(4) 0.3642(4) 0.5735(3)
C15_5 C 0.2012(5) 0.7784(4) 0.6412(3)
N4_5 N 0.2257(5) 0.4422(4) 0.7051(3)
H4_5 H 0.217262 0.411026 0.702406
C16_5 C 0.2089(5) 0.6847(4) 0.6433(3)
H5_5 H 0.225868 0.688700 0.664617
N5_5 N 0.1197(5) 0.4649(4) 0.6116(3)
H6_5 H 0.107955 0.487685 0.597655
C17_5 C 0.2611(4) 0.4991(4) 0.7501(3)
H7_5 H 0.244651 0.526948 0.740415
N6_5 N 0.2160(5) 0.5962(4) 0.6517(3)
H8_5 H 0.239725 0.603626 0.666304
C18_5 C 0.0615(5) 0.4109(4) 0.5813(3)
H9_5 H 0.049651 0.439292 0.569539
C19_5 C 0.2807(5) 0.4112(4) 0.7497(4)
H10_5 H 0.277763 0.379407 0.739381
C20_5 C 0.1736(5) 0.6308(4) 0.5996(4)
H11_5 H 0.166736 0.598534 0.591063
C21_5 C 0.2004(5) 0.5467(4) 0.6530(4)
C22_5 C 0.2559(5) 0.4516(4) 0.7346(3)
C23_5 C 0.1999(5) 0.6369(4) 0.6307(4)
C24_5 C 0.1140(5) 0.3741(4) 0.6254(4)
H12_5 H 0.137523 0.377261 0.643432
C25_5 C 0.0992(5) 0.4161(4) 0.6066(4)
C26_5 C 0.1549(6) 0.4818(5) 0.6347(4)
C27_5 C 0.2077(6) 0.4738(5) 0.6803(4)
O32_3 O 0.1848(3) 0.1811(3) 0.62560(19)
O34_3 O 0.2197(2) 0.2273(3) 0.6691(2)
O16_5 O 0.9004(3) 0.7604(3) 0.6253(2)
O18_3 O 0.8189(3) 0.1848(3) 0.62560(19)
O19_3 O 0.7727(3) 0.2197(2) 0.6691(2)
O20_5 O 0.8629(3) 0.7105(3) 0.6650(2)
C28_5 C 0.8886(3) 0.7181(3) 0.6375(3)
C29_5 C 0.8336(4) 0.2786(4) 0.5943(3)
H13_5 H 0.845629 0.250223 0.582555
C30_5 C 0.6669(3) 0.6288(4) 0.7960(3)
C31_5 C 0.9421(4) 0.6779(4) 0.5915(3)
H14_5 H 0.955321 0.709590 0.586210
C32_5 C 0.8742(4) 0.3324(4) 0.5491(3)
C33_5 C 0.7064(4) 0.4449(4) 0.7976(3)
C34_5 C 0.6906(4) 0.5832(4) 0.7794(3)
N7_5 N 0.8335(5) 0.4687(3) 0.6300(3)
C35_5 C 0.8426(4) 0.3267(4) 0.5810(3)
C36_5 C 0.9984(4) 0.6398(4) 0.5463(3)
C37_5 C 0.9060(4) 0.6728(4) 0.6174(3)
C38_5 C 0.8067(4) 0.2736(4) 0.6252(3)
C39_5 C 0.6862(4) 0.5359(4) 0.7947(3)
H15_5 H 0.667420 0.531782 0.815268
N8_5 N 0.7779(5) 0.4785(3) 0.6794(3)
N9_5 N 0.8266(5) 0.5486(4) 0.6584(3)
C40_5 C 0.7096(4) 0.4953(4) 0.7794(3)
C41_5 C 0.9583(4) 0.6358(4) 0.5735(3)
C42_5 C 0.7988(5) 0.2216(4) 0.6412(3)
N10_5 N 0.7743(5) 0.5578(4) 0.7051(3)
H16_5 H 0.782738 0.588974 0.702406
C43_5 C 0.7911(5) 0.3153(4) 0.6433(3)
H17_5 H 0.774132 0.311300 0.664617
N11_5 N 0.8803(5) 0.5351(4) 0.6116(3)
H18_5 H 0.892045 0.512315 0.597655
C44_5 C 0.7389(4) 0.5009(4) 0.7501(3)
H19_5 H 0.755349 0.473052 0.740415
N12_5 N 0.7840(5) 0.4038(4) 0.6517(3)
H20_5 H 0.760275 0.396374 0.666304
C45_5 C 0.9385(5) 0.5891(4) 0.5813(3)
H21_5 H 0.950349 0.560708 0.569539
C46_5 C 0.7193(5) 0.5888(4) 0.7497(4)
H22_5 H 0.722237 0.620593 0.739381
C47_5 C 0.8264(5) 0.3692(4) 0.5996(4)
H23_5 H 0.833264 0.401466 0.591063
C48_5 C 0.7996(5) 0.4533(4) 0.6530(4)
C49_5 C 0.7441(5) 0.5484(4) 0.7346(3)
C50_5 C 0.8001(5) 0.3631(4) 0.6307(4)
C51_5 C 0.8860(5) 0.6259(4) 0.6254(4)
H24_5 H 0.862477 0.622739 0.643432
C52_5 C 0.9008(5) 0.5839(4) 0.6066(4)
C53_5 C 0.8451(6) 0.5182(5) 0.6347(4)
C54_5 C 0.7923(6) 0.5262(5) 0.6803(4)
O33_3 O 0.8152(3) 0.8189(3) 0.62560(19)
O35_3 O 0.7803(2) 0.7727(3) 0.6691(2)
O4_6 O 0.7604(3) 0.0996(3) 0.6253(2)
O8_6 O 0.7105(3) 0.1371(3) 0.6650(2)
C1_6 C 0.7181(3) 0.1114(3) 0.6375(3)
C2_6 C 0.2786(4) 0.1664(4) 0.5943(3)
H1_6 H 0.250223 0.154371 0.582555
C3_6 C 0.6288(4) 0.3331(3) 0.7960(3)
C4_6 C 0.6779(4) 0.0579(4) 0.5915(3)
H2_6 H 0.709590 0.044679 0.586210
C5_6 C 0.3324(4) 0.1258(4) 0.5491(3)
C6_6 C 0.4449(4) 0.2936(4) 0.7976(3)
C7_6 C 0.5832(4) 0.3094(4) 0.7794(3)
N1_6 N 0.4687(3) 0.1665(5) 0.6300(3)
C8_6 C 0.3267(4) 0.1574(4) 0.5810(3)
C9_6 C 0.6398(4) 0.0016(4) 0.5463(3)
C10_6 C 0.6728(4) 0.0940(4) 0.6174(3)
C11_6 C 0.2736(4) 0.1933(4) 0.6252(3)
C12_6 C 0.5359(4) 0.3138(4) 0.7947(3)
H3_6 H 0.531782 0.332580 0.815268
N2_6 N 0.4785(3) 0.2221(5) 0.6794(3)
N3_6 N 0.5486(4) 0.1734(5) 0.6584(3)
C13_6 C 0.4953(4) 0.2904(4) 0.7794(3)
C14_6 C 0.6358(4) 0.0417(4) 0.5735(3)
C15_6 C 0.2216(4) 0.2012(5) 0.6412(3)
N4_6 N 0.5578(4) 0.2257(5) 0.7051(3)
H4_6 H 0.588974 0.217262 0.702406
C16_6 C 0.3153(4) 0.2089(5) 0.6433(3)
H5_6 H 0.311300 0.225868 0.664617
N5_6 N 0.5351(4) 0.1197(5) 0.6116(3)
H6_6 H 0.512315 0.107955 0.597655
C17_6 C 0.5009(4) 0.2611(4) 0.7501(3)
H7_6 H 0.473052 0.244651 0.740415
N6_6 N 0.4038(4) 0.2160(5) 0.6517(3)
H8_6 H 0.396374 0.239725 0.666304
C18_6 C 0.5891(4) 0.0615(5) 0.5813(3)
H9_6 H 0.560708 0.049651 0.569539
C19_6 C 0.5888(4) 0.2807(5) 0.7497(4)
H10_6 H 0.620593 0.277763 0.739381
C20_6 C 0.3692(4) 0.1736(5) 0.5996(4)
H11_6 H 0.401466 0.166736 0.591063
C21_6 C 0.4533(4) 0.2004(5) 0.6530(4)
C22_6 C 0.5484(4) 0.2559(5) 0.7346(3)
C23_6 C 0.3631(4) 0.1999(5) 0.6307(4)
C24_6 C 0.6259(4) 0.1140(5) 0.6254(4)
H12_6 H 0.622739 0.137523 0.643432
C25_6 C 0.5839(4) 0.0992(5) 0.6066(4)
C26_6 C 0.5182(5) 0.1549(6) 0.6347(4)
C27_6 C 0.5262(5) 0.2077(6) 0.6803(4)
O16_6 O 0.2396(3) 0.9004(3) 0.6253(2)
O20_6 O 0.2895(3) 0.8629(3) 0.6650(2)
C28_6 C 0.2819(3) 0.8886(3) 0.6375(3)
C29_6 C 0.7214(4) 0.8336(4) 0.5943(3)
H13_6 H 0.749777 0.845629 0.582555
C30_6 C 0.3712(4) 0.6669(3) 0.7960(3)
C31_6 C 0.3221(4) 0.9421(4) 0.5915(3)
H14_6 H 0.290410 0.955321 0.586210
C32_6 C 0.6676(4) 0.8742(4) 0.5491(3)
C33_6 C 0.5551(4) 0.7064(4) 0.7976(3)
C34_6 C 0.4168(4) 0.6906(4) 0.7794(3)
N7_6 N 0.5313(3) 0.8335(5) 0.6300(3)
C35_6 C 0.6733(4) 0.8426(4) 0.5810(3)
C36_6 C 0.3602(4) 0.9984(4) 0.5463(3)
C37_6 C 0.3272(4) 0.9060(4) 0.6174(3)
C38_6 C 0.7264(4) 0.8067(4) 0.6252(3)
C39_6 C 0.4641(4) 0.6862(4) 0.7947(3)
H15_6 H 0.468218 0.667420 0.815268
N8_6 N 0.5215(3) 0.7779(5) 0.6794(3)
N9_6 N 0.4514(4) 0.8266(5) 0.6584(3)
C40_6 C 0.5047(4) 0.7096(4) 0.7794(3)
C41_6 C 0.3642(4) 0.9583(4) 0.5735(3)
C42_6 C 0.7784(4) 0.7988(5) 0.6412(3)
N10_6 N 0.4422(4) 0.7743(5) 0.7051(3)
H16_6 H 0.411026 0.782738 0.702406
C43_6 C 0.6847(4) 0.7911(5) 0.6433(3)
H17_6 H 0.688700 0.774132 0.664617
N11_6 N 0.4649(4) 0.8803(5) 0.6116(3)
H18_6 H 0.487685 0.892045 0.597655
C44_6 C 0.4991(4) 0.7389(4) 0.7501(3)
H19_6 H 0.526948 0.755349 0.740415
N12_6 N 0.5962(4) 0.7840(5) 0.6517(3)
H20_6 H 0.603626 0.760275 0.666304
C45_6 C 0.4109(4) 0.9385(5) 0.5813(3)
H21_6 H 0.439292 0.950349 0.569539
C46_6 C 0.4112(4) 0.7193(5) 0.7497(4)
H22_6 H 0.379407 0.722237 0.739381
C47_6 C 0.6308(4) 0.8264(5) 0.5996(4)
H23_6 H 0.598534 0.833264 0.591063
C48_6 C 0.5467(4) 0.7996(5) 0.6530(4)
C49_6 C 0.4516(4) 0.7441(5) 0.7346(3)
C50_6 C 0.6369(4) 0.8001(5) 0.6307(4)
C51_6 C 0.3741(4) 0.8860(5) 0.6254(4)
H24_6 H 0.377261 0.862477 0.643432
C52_6 C 0.4161(4) 0.9008(5) 0.6066(4)
C53_6 C 0.4818(5) 0.8451(6) 0.6347(4)
C54_6 C 0.4738(5) 0.7923(6) 0.6803(4)
O6_4 O 0.6811(3) 0.3152(3) 0.12560(19)
O7_4 O 0.7273(3) 0.2803(2) 0.1691(2)
C2_7 C 0.6664(4) 0.2214(4) 0.0943(3)
H1_7 H 0.654371 0.249777 0.082555
C5_7 C 0.6258(4) 0.1676(4) 0.0491(3)
C6_7 C 0.7936(4) 0.0551(4) 0.2976(3)
N1_7 N 0.6665(5) 0.0313(3) 0.1300(3)
C8_7 C 0.6574(4) 0.1733(4) 0.0810(3)
C11_7 C 0.6933(4) 0.2264(4) 0.1252(3)
N2_7 N 0.7221(5) 0.0215(3) 0.1794(3)
C13_7 C 0.7904(4) 0.0047(4) 0.2794(3)
C15_7 C 0.7012(5) 0.2784(4) 0.1412(3)
C16_7 C 0.7089(5) 0.1847(4) 0.1433(3)
H5_7 H 0.725868 0.188700 0.164617
H7_7 H 0.744651 0.026948 0.240415
N6_7 N 0.7160(5) 0.0962(4) 0.1517(3)
H8_7 H 0.739725 0.103626 0.166304
C20_7 C 0.6736(5) 0.1308(4) 0.0996(4)
H11_7 H 0.666736 0.098534 0.091063
C21_7 C 0.7004(5) 0.0467(4) 0.1530(4)
C23_7 C 0.6999(5) 0.1369(4) 0.1307(4)
O16_7 O 0.4004(3) 0.2604(3) 0.1253(2)
O20_7 O 0.3629(3) 0.2105(3) 0.1650(2)
C28_7 C 0.3886(3) 0.2181(3) 0.1375(3)
C30_7 C 0.1669(3) 0.1288(4) 0.2960(3)
C31_7 C 0.4421(4) 0.1779(4) 0.0915(3)
H14_7 H 0.455321 0.209590 0.086210
C34_7 C 0.1906(4) 0.0832(4) 0.2794(3)
C36_7 C 0.4984(4) 0.1398(4) 0.0463(3)
C37_7 C 0.4060(4) 0.1728(4) 0.1174(3)
C39_7 C 0.1862(4) 0.0359(4) 0.2947(3)
H15_7 H 0.167420 0.031782 0.315268
N9_7 N 0.3266(5) 0.0486(4) 0.1584(3)
C41_7 C 0.4583(4) 0.1358(4) 0.0735(3)
N10_7 N 0.2743(5) 0.0578(4) 0.2051(3)
H16_7 H 0.282738 0.088974 0.202406
N11_7 N 0.3803(5) 0.0351(4) 0.1116(3)
H18_7 H 0.392045 0.012315 0.097655
C44_7 C 0.2389(4) 0.0009(4) 0.2501(3)
C45_7 C 0.4385(5) 0.0891(4) 0.0813(3)
H21_7 H 0.450349 0.060708 0.069539
C46_7 C 0.2193(5) 0.0888(4) 0.2497(4)
H22_7 H 0.222237 0.120593 0.239381
C49_7 C 0.2441(5) 0.0484(4) 0.2346(3)
C51_7 C 0.3860(5) 0.1259(4) 0.1254(4)
H24_7 H 0.362477 0.122739 0.143432
C52_7 C 0.4008(5) 0.0839(4) 0.1066(4)
C53_7 C 0.3451(6) 0.0182(5) 0.1347(4)
C54_7 C 0.2923(6) 0.0262(5) 0.1803(4)
O33_4 O 0.3152(3) 0.3189(3) 0.12560(19)
O35_4 O 0.2803(2) 0.2727(3) 0.1691(2)
O4_7 O 0.5996(3) 0.7396(3) 0.1253(2)
O8_7 O 0.6371(3) 0.7895(3) 0.1650(2)
C1_7 C 0.6114(3) 0.7819(3) 0.1375(3)
C3_7 C 0.8331(3) 0.8712(4) 0.2960(3)
C4_7 C 0.5579(4) 0.8221(4) 0.0915(3)
H2_7 H 0.544679 0.790410 0.086210
C7_7 C 0.8094(4) 0.9168(4) 0.2794(3)
C9_7 C 0.5016(4) 0.8602(4) 0.0463(3)
C10_7 C 0.5940(4) 0.8272(4) 0.1174(3)
C12_7 C 0.8138(4) 0.9641(4) 0.2947(3)
H3_7 H 0.832580 0.968218 0.315268
N3_7 N 0.6734(5) 0.9514(4) 0.1584(3)
C14_7 C 0.5417(4) 0.8642(4) 0.0735(3)
N4_7 N 0.7257(5) 0.9422(4) 0.2051(3)
H4_7 H 0.717262 0.911026 0.202406
N5_7 N 0.6197(5) 0.9649(4) 0.1116(3)
H6_7 H 0.607955 0.987685 0.097655
C17_7 C 0.7611(4) 0.9991(4) 0.2501(3)
C18_7 C 0.5615(5) 0.9109(4) 0.0813(3)
H9_7 H 0.549651 0.939292 0.069539
C19_7 C 0.7807(5) 0.9112(4) 0.2497(4)
H10_7 H 0.777763 0.879407 0.239381
C22_7 C 0.7559(5) 0.9516(4) 0.2346(3)
C24_7 C 0.6140(5) 0.8741(4) 0.1254(4)
H12_7 H 0.637523 0.877261 0.143432
C25_7 C 0.5992(5) 0.9161(4) 0.1066(4)
C26_7 C 0.6549(6) 0.9818(5) 0.1347(4)
C27_7 C 0.7077(6) 0.9738(5) 0.1803(4)
O18_4 O 0.3189(3) 0.6848(3) 0.12560(19)
O19_4 O 0.2727(3) 0.7197(2) 0.1691(2)
C29_7 C 0.3336(4) 0.7786(4) 0.0943(3)
H13_7 H 0.345629 0.750223 0.082555
C32_7 C 0.3742(4) 0.8324(4) 0.0491(3)
C33_7 C 0.2064(4) 0.9449(4) 0.2976(3)
N7_7 N 0.3335(5) 0.9687(3) 0.1300(3)
C35_7 C 0.3426(4) 0.8267(4) 0.0810(3)
C38_7 C 0.3067(4) 0.7736(4) 0.1252(3)
N8_7 N 0.2779(5) 0.9785(3) 0.1794(3)
C40_7 C 0.2096(4) 0.9953(4) 0.2794(3)
C42_7 C 0.2988(5) 0.7216(4) 0.1412(3)
C43_7 C 0.2911(5) 0.8153(4) 0.1433(3)
H17_7 H 0.274132 0.811300 0.164617
H19_7 H 0.255349 0.973052 0.240415
N12_7 N 0.2840(5) 0.9038(4) 0.1517(3)
H20_7 H 0.260275 0.896374 0.166304
C47_7 C 0.3264(5) 0.8692(4) 0.0996(4)
H23_7 H 0.333264 0.901466 0.091063
C48_7 C 0.2996(5) 0.9533(4) 0.1530(4)
C50_7 C 0.3001(5) 0.8631(4) 0.1307(4)
O32_4 O 0.6848(3) 0.6811(3) 0.12560(19)
O34_4 O 0.7197(2) 0.7273(3) 0.1691(2)
O4_8 O 0.2604(3) 0.5996(3) 0.1253(2)
O8_8 O 0.2105(3) 0.6371(3) 0.1650(2)
C1_8 C 0.2181(3) 0.6114(3) 0.1375(3)
C3_8 C 0.1288(4) 0.8331(3) 0.2960(3)
C4_8 C 0.1779(4) 0.5579(4) 0.0915(3)
H2_8 H 0.209590 0.544679 0.086210
C7_8 C 0.0832(4) 0.8094(4) 0.2794(3)
C9_8 C 0.1398(4) 0.5016(4) 0.0463(3)
C10_8 C 0.1728(4) 0.5940(4) 0.1174(3)
C12_8 C 0.0359(4) 0.8138(4) 0.2947(3)
H3_8 H 0.031782 0.832580 0.315268
N3_8 N 0.0486(4) 0.6734(5) 0.1584(3)
C14_8 C 0.1358(4) 0.5417(4) 0.0735(3)
N4_8 N 0.0578(4) 0.7257(5) 0.2051(3)
H4_8 H 0.088974 0.717262 0.202406
N5_8 N 0.0351(4) 0.6197(5) 0.1116(3)
H6_8 H 0.012315 0.607955 0.097655
C17_8 C 0.0009(4) 0.7611(4) 0.2501(3)
C18_8 C 0.0891(4) 0.5615(5) 0.0813(3)
H9_8 H 0.060708 0.549651 0.069539
C19_8 C 0.0888(4) 0.7807(5) 0.2497(4)
H10_8 H 0.120593 0.777763 0.239381
C22_8 C 0.0484(4) 0.7559(5) 0.2346(3)
C24_8 C 0.1259(4) 0.6140(5) 0.1254(4)
H12_8 H 0.122739 0.637523 0.143432
C25_8 C 0.0839(4) 0.5992(5) 0.1066(4)
C26_8 C 0.0182(5) 0.6549(6) 0.1347(4)
C27_8 C 0.0262(5) 0.7077(6) 0.1803(4)
C29_8 C 0.2214(4) 0.3336(4) 0.0943(3)
H13_8 H 0.249777 0.345629 0.082555
C32_8 C 0.1676(4) 0.3742(4) 0.0491(3)
C33_8 C 0.0551(4) 0.2064(4) 0.2976(3)
N7_8 N 0.0313(3) 0.3335(5) 0.1300(3)
C35_8 C 0.1733(4) 0.3426(4) 0.0810(3)
C38_8 C 0.2264(4) 0.3067(4) 0.1252(3)
N8_8 N 0.0215(3) 0.2779(5) 0.1794(3)
C40_8 C 0.0047(4) 0.2096(4) 0.2794(3)
C42_8 C 0.2784(4) 0.2988(5) 0.1412(3)
C43_8 C 0.1847(4) 0.2911(5) 0.1433(3)
H17_8 H 0.188700 0.274132 0.164617
H19_8 H 0.026948 0.255349 0.240415
N12_8 N 0.0962(4) 0.2840(5) 0.1517(3)
H20_8 H 0.103626 0.260275 0.166304
C47_8 C 0.1308(4) 0.3264(5) 0.0996(4)
H23_8 H 0.098534 0.333264 0.091063
C48_8 C 0.0467(4) 0.2996(5) 0.1530(4)
C50_8 C 0.1369(4) 0.3001(5) 0.1307(4)
C2_8 C 0.7786(4) 0.6664(4) 0.0943(3)
H1_8 H 0.750223 0.654371 0.082555
C5_8 C 0.8324(4) 0.6258(4) 0.0491(3)
C6_8 C 0.9449(4) 0.7936(4) 0.2976(3)
N1_8 N 0.9687(3) 0.6665(5) 0.1300(3)
C8_8 C 0.8267(4) 0.6574(4) 0.0810(3)
C11_8 C 0.7736(4) 0.6933(4) 0.1252(3)
N2_8 N 0.9785(3) 0.7221(5) 0.1794(3)
C13_8 C 0.9953(4) 0.7904(4) 0.2794(3)
C15_8 C 0.7216(4) 0.7012(5) 0.1412(3)
C16_8 C 0.8153(4) 0.7089(5) 0.1433(3)
H5_8 H 0.811300 0.725868 0.164617
H7_8 H 0.973052 0.744651 0.240415
N6_8 N 0.9038(4) 0.7160(5) 0.1517(3)
H8_8 H 0.896374 0.739725 0.166304
C20_8 C 0.8692(4) 0.6736(5) 0.0996(4)
H11_8 H 0.901466 0.666736 0.091063
C21_8 C 0.9533(4) 0.7004(5) 0.1530(4)
C23_8 C 0.8631(4) 0.6999(5) 0.1307(4)
O16_8 O 0.7396(3) 0.4004(3) 0.1253(2)
O20_8 O 0.7895(3) 0.3629(3) 0.1650(2)
C28_8 C 0.7819(3) 0.3886(3) 0.1375(3)
C30_8 C 0.8712(4) 0.1669(3) 0.2960(3)
C31_8 C 0.8221(4) 0.4421(4) 0.0915(3)
H14_8 H 0.790410 0.455321 0.086210
C34_8 C 0.9168(4) 0.1906(4) 0.2794(3)
C36_8 C 0.8602(4) 0.4984(4) 0.0463(3)
C37_8 C 0.8272(4) 0.4060(4) 0.1174(3)
C39_8 C 0.9641(4) 0.1862(4) 0.2947(3)
H15_8 H 0.968218 0.167420 0.315268
N9_8 N 0.9514(4) 0.3266(5) 0.1584(3)
C41_8 C 0.8642(4) 0.4583(4) 0.0735(3)
N10_8 N 0.9422(4) 0.2743(5) 0.2051(3)
H16_8 H 0.911026 0.282738 0.202406
N11_8 N 0.9649(4) 0.3803(5) 0.1116(3)
H18_8 H 0.987685 0.392045 0.097655
C44_8 C 0.9991(4) 0.2389(4) 0.2501(3)
C45_8 C 0.9109(4) 0.4385(5) 0.0813(3)
H21_8 H 0.939292 0.450349 0.069539
C46_8 C 0.9112(4) 0.2193(5) 0.2497(4)
H22_8 H 0.879407 0.222237 0.239381
C49_8 C 0.9516(4) 0.2441(5) 0.2346(3)
C51_8 C 0.8741(4) 0.3860(5) 0.1254(4)
H24_8 H 0.877261 0.362477 0.143432
C52_8 C 0.9161(4) 0.4008(5) 0.1066(4)
C53_8 C 0.9818(5) 0.3451(6) 0.1347(4)
C54_8 C 0.9738(5) 0.2923(6) 0.1803(4)
loop_
_geom_bond_atom_site_label_1
_geom_bond_atom_site_label_2
_geom_bond_site_symmetry_1
_geom_bond_site_symmetry_2
Cu4 O11 1_555 1_555
Cu5 Cu6 1_555 1_555
Cu6 O16 1_555 1_555
O13 C33 1_555 1_555
O14 C33 1_555 1_555
O15 Cu4 1_555 1_555
O16 C28 1_555 1_555
O17 C30 1_555 1_555
O18 C42 1_555 1_555
O19 C42 1_555 1_555
O20 Cu5 1_555 1_555
O21 C32 1_555 1_555
O22 C30 1_555 1_555
C28 O20 1_555 1_555
C29 H13 1_555 1_555
C30 C34 1_555 1_555
C31 H14 1_555 1_555
C32 O15 1_555 1_555
C33 C40 1_555 1_555
C34 C39 1_555 1_555
N7 C48 1_555 1_555
C35 C29 1_555 1_555
C37 C28 1_555 1_555
C38 C29 1_555 1_555
C39 H15 1_555 1_555
N8 C48 1_555 1_555
N9 C53 1_555 1_555
C40 C39 1_555 1_555
C41 C31 1_555 1_555
C42 C38 1_555 1_555
N10 H16 1_555 1_555
C43 C38 1_555 1_555
H17 C43 1_555 1_555
N11 H18 1_555 1_555
C44 C40 1_555 1_555
H19 C44 1_555 1_555
N12 H20 1_555 1_555
C45 C41 1_555 1_555
H21 C45 1_555 1_555
C46 C34 1_555 1_555
H22 C46 1_555 1_555
C47 C35 1_555 1_555
H23 C47 1_555 1_555
C48 N12 1_555 1_555
C49 N10 1_555 1_555
C50 C43 1_555 1_555
C51 C37 1_555 1_555
H24 C51 1_555 1_555
C52 N11 1_555 1_555
C53 N7 1_555 1_555
C54 N8 1_555 1_555
Cu7 Cu4 1_555 1_555
Cu8 O19 1_555 1_555
Cu11 O22 1_555 1_555
Cu12 O13 1_555 1_555
Cu14 O18 1_555 1_555
Cu17 O17 1_555 1_555
Cu18 O14 1_555 1_555
O26 Cu5 1_555 1_555
O28 Cu6 1_555 1_555
O29 Cu4 1_555 1_555
O31 Cu6 1_555 1_555
O33 Cu6 1_555 1_555
O35 Cu5 1_555 1_555
O38 Cu5 1_555 1_555
O39 Cu4 1_555 1_555
O12 Cu7 1_555 1_555
O21 Cu7 1_555 1_555
C31 C37 1_555 1_555
C32 C35 1_555 1_555
C36 C41 1_555 1_555
N9 C54 1_555 1_555
N10 C54 1_555 1_555
N11 C53 1_555 1_555
C44 C49 1_555 1_555
N12 C50 1_555 1_555
C45 C52 1_555 1_555
C46 C49 1_555 1_555
C47 C50 1_555 1_555
C51 C52 1_555 1_555
Cu8 Cu14 1_555 1_555
Cu11 Cu17 1_555 1_555
Cu12 Cu18 1_555 1_555
Cu1 O9 1_555 1_555
Cu2 Cu3 1_555 1_555
Cu3 O4 1_555 1_555
O1 C6 1_555 1_555
O2 C6 1_555 1_555
O3 C5 1_555 1_555
O4 C1 1_555 1_555
O5 C3 1_555 1_555
O6 C15 1_555 1_555
O7 C15 1_555 1_555
O8 Cu2 1_555 1_555
O9 C5 1_555 1_555
O10 C3 1_555 1_555
C1 O8 1_555 1_555
C2 H1 1_555 1_555
C3 C7 1_555 1_555
C4 H2 1_555 1_555
C5 C8 1_555 1_555
C6 C13 1_555 1_555
C7 C12 1_555 1_555
N1 C21 1_555 1_555
C8 C2 1_555 1_555
C9 C14 1_555 1_555
C10 C1 1_555 1_555
C11 C2 1_555 1_555
C12 H3 1_555 1_555
N2 C21 1_555 1_555
N3 C26 1_555 1_555
C13 C12 1_555 1_555
C14 C4 1_555 1_555
C15 C11 1_555 1_555
N4 H4 1_555 1_555
C16 C11 1_555 1_555
H5 C16 1_555 1_555
N5 H6 1_555 1_555
C17 C13 1_555 1_555
H7 C17 1_555 1_555
N6 H8 1_555 1_555
C18 C14 1_555 1_555
H9 C18 1_555 1_555
C19 C7 1_555 1_555
H10 C19 1_555 1_555
C20 C8 1_555 1_555
H11 C20 1_555 1_555
C21 N6 1_555 1_555
C22 N4 1_555 1_555
C23 C16 1_555 1_555
C24 C10 1_555 1_555
H12 C24 1_555 1_555
C25 N5 1_555 1_555
C26 N1 1_555 1_555
C27 N2 1_555 1_555
O24 Cu1 1_555 1_555
Cu9 O7 1_555 1_555
Cu10 O10 1_555 1_555
Cu13 O1 1_555 1_555
Cu15 O6 1_555 1_555
Cu16 O5 1_555 1_555
Cu19 O2 1_555 1_555
Cu20 Cu1 1_555 1_555
O25 Cu2 1_555 1_555
O27 Cu3 1_555 1_555
O30 Cu3 1_555 1_555
O32 Cu3 1_555 1_555
O34 Cu2 1_555 1_555
O36 Cu1 1_555 1_555
O37 Cu2 1_555 1_555
O40 Cu1 1_555 1_555
O3 Cu20 1_555 1_555
C4 C10 1_555 1_555
N3 C27 1_555 1_555
N4 C27 1_555 1_555
N5 C26 1_555 1_555
C17 C22 1_555 1_555
N6 C23 1_555 1_555
C18 C25 1_555 1_555
C19 C22 1_555 1_555
C20 C23 1_555 1_555
C24 C25 1_555 1_555
O23 Cu20 1_555 1_555
Cu9 Cu15 1_555 1_555
Cu10 Cu16 1_555 1_555
Cu13 Cu19 1_555 1_555
O36_2 Cu7 1_555 1_555
O40_2 Cu7 1_555 1_555
O29_2 Cu20 1_555 1_555
O39_2 Cu20 1_555 1_555
Cu4_2 O11_2 1_555 1_555
Cu15 O16_2 1_555 1_555
O13_2 C33_2 1_555 1_555
O14_2 C33_2 1_555 1_555
O15_2 Cu4_2 1_555 1_555
O16_2 C28_2 1_555 1_555
O17_2 C30_2 1_555 1_555
O33 C42_2 1_555 1_555
O35 C42_2 1_555 1_555
O20_2 Cu9 1_555 1_555
O21_2 C32_2 1_555 1_555
O22_2 C30_2 1_555 1_555
C28_2 O20_2 1_555 1_555
C29_2 H13_2 1_555 1_555
C30_2 C34_2 1_555 1_555
C31_2 H14_2 1_555 1_555
C32_2 O15_2 1_555 1_555
C33_2 C40_2 1_555 1_555
C34_2 C39_2 1_555 1_555
N7_2 C48_2 1_555 1_555
C35_2 C29_2 1_555 1_555
C37_2 C28_2 1_555 1_555
C38_2 C29_2 1_555 1_555
C39_2 H15_2 1_555 1_555
N8_2 C48_2 1_555 1_555
N9_2 C53_2 1_555 1_555
C40_2 C39_2 1_555 1_555
C41_2 C31_2 1_555 1_555
C42_2 C38_2 1_555 1_555
N10_2 H16_2 1_555 1_555
C43_2 C38_2 1_555 1_555
H17_2 C43_2 1_555 1_555
N11_2 H18_2 1_555 1_555
C44_2 C40_2 1_555 1_555
H19_2 C44_2 1_555 1_555
N12_2 H20_2 1_555 1_555
C45_2 C41_2 1_555 1_555
H21_2 C45_2 1_555 1_555
C46_2 C34_2 1_555 1_555
H22_2 C46_2 1_555 1_555
C47_2 C35_2 1_555 1_555
H23_2 C47_2 1_555 1_555
C48_2 N12_2 1_555 1_555
C49_2 N10_2 1_555 1_555
C50_2 C43_2 1_555 1_555
C51_2 C37_2 1_555 1_555
H24_2 C51_2 1_555 1_555
C52_2 N11_2 1_555 1_555
C53_2 N7_2 1_555 1_555
C54_2 N8_2 1_555 1_555
Cu7_2 Cu4_2 1_555 1_555
Cu13 O22_2 1_555 1_555
Cu11 O13_2 1_555 1_555
Cu19 O17_2 1_555 1_555
Cu17 O14_2 1_555 1_555
O26_2 Cu9 1_555 1_555
O28_2 Cu15 1_555 1_555
O29_3 Cu4_2 1_555 1_555
O31_2 Cu15 1_555 1_555
O38_2 Cu9 1_555 1_555
O39_3 Cu4_2 1_555 1_555
O12_2 Cu7_2 1_555 1_555
O21_2 Cu7_2 1_555 1_555
C31_2 C37_2 1_555 1_555
C32_2 C35_2 1_555 1_555
C36_2 C41_2 1_555 1_555
N9_2 C54_2 1_555 1_555
N10_2 C54_2 1_555 1_555
N11_2 C53_2 1_555 1_555
C44_2 C49_2 1_555 1_555
N12_2 C50_2 1_555 1_555
C45_2 C52_2 1_555 1_555
C46_2 C49_2 1_555 1_555
C47_2 C50_2 1_555 1_555
C51_2 C52_2 1_555 1_555
Cu1_2 O9_2 1_555 1_555
Cu14 O4_2 1_555 1_555
O1_2 C6_2 1_555 1_555
O2_2 C6_2 1_555 1_555
O3_2 C5_2 1_555 1_555
O4_2 C1_2 1_555 1_555
O5_2 C3_2 1_555 1_555
O32 C15_2 1_555 1_555
O34 C15_2 1_555 1_555
O8_2 Cu8 1_555 1_555
O9_2 C5_2 1_555 1_555
O10_2 C3_2 1_555 1_555
C1_2 O8_2 1_555 1_555
C2_2 H1_2 1_555 1_555
C3_2 C7_2 1_555 1_555
C4_2 H2_2 1_555 1_555
C5_2 C8_2 1_555 1_555
C6_2 C13_2 1_555 1_555
C7_2 C12_2 1_555 1_555
N1_2 C21_2 1_555 1_555
C8_2 C2_2 1_555 1_555
C9_2 C14_2 1_555 1_555
C10_2 C1_2 1_555 1_555
C11_2 C2_2 1_555 1_555
C12_2 H3_2 1_555 1_555
N2_2 C21_2 1_555 1_555
N3_2 C26_2 1_555 1_555
C13_2 C12_2 1_555 1_555
C14_2 C4_2 1_555 1_555
C15_2 C11_2 1_555 1_555
N4_2 H4_2 1_555 1_555
C16_2 C11_2 1_555 1_555
H5_2 C16_2 1_555 1_555
N5_2 H6_2 1_555 1_555
C17_2 C13_2 1_555 1_555
H7_2 C17_2 1_555 1_555
N6_2 H8_2 1_555 1_555
C18_2 C14_2 1_555 1_555
H9_2 C18_2 1_555 1_555
C19_2 C7_2 1_555 1_555
H10_2 C19_2 1_555 1_555
C20_2 C8_2 1_555 1_555
H11_2 C20_2 1_555 1_555
C21_2 N6_2 1_555 1_555
C22_2 N4_2 1_555 1_555
C23_2 C16_2 1_555 1_555
C24_2 C10_2 1_555 1_555
H12_2 C24_2 1_555 1_555
C25_2 N5_2 1_555 1_555
C26_2 N1_2 1_555 1_555
C27_2 N2_2 1_555 1_555
O24_2 Cu1_2 1_555 1_555
Cu12 O10_2 1_555 1_555
Cu10 O1_2 1_555 1_555
Cu18 O5_2 1_555 1_555
Cu16 O2_2 1_555 1_555
Cu20_2 Cu1_2 1_555 1_555
O25_2 Cu8 1_555 1_555
O27_2 Cu14 1_555 1_555
O30_2 Cu14 1_555 1_555
O36_3 Cu1_2 1_555 1_555
O37_2 Cu8 1_555 1_555
O40_3 Cu1_2 1_555 1_555
O3_2 Cu20_2 1_555 1_555
C4_2 C10_2 1_555 1_555
N3_2 C27_2 1_555 1_555
N4_2 C27_2 1_555 1_555
N5_2 C26_2 1_555 1_555
C17_2 C22_2 1_555 1_555
N6_2 C23_2 1_555 1_555
C18_2 C25_2 1_555 1_555
C19_2 C22_2 1_555 1_555
C20_2 C23_2 1_555 1_555
C24_2 C25_2 1_555 1_555
O23_2 Cu20_2 1_555 1_555
O36_4 Cu7_2 1_555 1_555
O40_4 Cu7_2 1_555 1_555
O29_4 Cu20_2 1_555 1_555
O39_4 Cu20_2 1_555 1_555
Cu7_3 Cu4_3 1_555 1_555
O29_5 Cu4_3 1_555 1_555
O39_5 Cu4_3 1_555 1_555
Cu2_2 Cu3_2 1_555 1_555
Cu3_2 O4_3 1_555 1_555
Cu4_4 O11_3 1_555 1_555
O4_3 C1_3 1_555 1_555
O5_3 C3_3 1_555 1_555
O8_3 Cu2_2 1_555 1_555
O10_3 C3_3 1_555 1_555
O11_3 C9_3 1_555 1_555
O12_3 C9_3 1_555 1_555
C1_3 O8_3 1_555 1_555
C3_3 C7_3 1_555 1_555
C4_3 H2_3 1_555 1_555
C7_3 C12_3 1_555 1_555
C9_3 C14_3 1_555 1_555
C10_3 C1_3 1_555 1_555
C12_3 H3_3 1_555 1_555
N3_3 C26_3 1_555 1_555
C14_3 C4_3 1_555 1_555
N4_3 H4_3 1_555 1_555
N5_3 H6_3 1_555 1_555
C18_3 C14_3 1_555 1_555
H9_3 C18_3 1_555 1_555
C19_3 C7_3 1_555 1_555
H10_3 C19_3 1_555 1_555
C22_3 N4_3 1_555 1_555
C24_3 C10_3 1_555 1_555
H12_3 C24_3 1_555 1_555
C25_3 N5_3 1_555 1_555
O13_3 C33_3 1_555 1_555
O14_3 C33_3 1_555 1_555
O15_3 Cu4_4 1_555 1_555
O18_2 C42_3 1_555 1_555
O19_2 C42_3 1_555 1_555
O21_3 C32_3 1_555 1_555
C29_3 H13_3 1_555 1_555
C32_3 O15_3 1_555 1_555
C33_3 C40_3 1_555 1_555
N7_3 C48_3 1_555 1_555
C35_3 C29_3 1_555 1_555
C38_3 C29_3 1_555 1_555
N8_3 C48_3 1_555 1_555
C42_3 C38_3 1_555 1_555
C43_3 C38_3 1_555 1_555
H17_3 C43_3 1_555 1_555
N12_3 H20_3 1_555 1_555
C47_3 C35_3 1_555 1_555
H23_3 C47_3 1_555 1_555
C48_3 N12_3 1_555 1_555
C50_3 C43_3 1_555 1_555
Cu7_4 Cu4_4 1_555 1_555
Cu8_2 O19_2 1_555 1_555
Cu10_2 O10_3 1_555 1_555
Cu12_2 O13_3 1_555 1_555
Cu14_2 O18_2 1_555 1_555
Cu16_2 O5_3 1_555 1_555
Cu18_2 O14_3 1_555 1_555
O25_3 Cu2_2 1_555 1_555
O27_3 Cu3_2 1_555 1_555
O30_3 Cu3_2 1_555 1_555
O32_2 Cu3_2 1_555 1_555
O34_2 Cu2_2 1_555 1_555
O37_3 Cu2_2 1_555 1_555
O12_3 Cu7_4 1_555 1_555
C4_3 C10_3 1_555 1_555
N3_3 C27_3 1_555 1_555
N4_3 C27_3 1_555 1_555
N5_3 C26_3 1_555 1_555
C17_3 C22_3 1_555 1_555
C18_3 C25_3 1_555 1_555
C19_3 C22_3 1_555 1_555
C24_3 C25_3 1_555 1_555
O21_3 Cu7_4 1_555 1_555
C32_3 C35_3 1_555 1_555
N12_3 C50_3 1_555 1_555
C47_3 C50_3 1_555 1_555
Cu8_2 Cu14_2 1_555 1_555
Cu10_2 Cu16_2 1_555 1_555
Cu12_2 Cu18_2 1_555 1_555
Cu20_3 Cu1_3 1_555 1_555
O36_5 Cu1_3 1_555 1_555
O40_5 Cu1_3 1_555 1_555
Cu1_4 O9_3 1_555 1_555
O1_3 C6_3 1_555 1_555
O2_3 C6_3 1_555 1_555
O3_3 C5_3 1_555 1_555
O6_2 C15_3 1_555 1_555
O7_2 C15_3 1_555 1_555
O9_3 C5_3 1_555 1_555
C2_3 H1_3 1_555 1_555
C5_3 C8_3 1_555 1_555
C6_3 C13_3 1_555 1_555
N1_3 C21_3 1_555 1_555
C8_3 C2_3 1_555 1_555
C11_3 C2_3 1_555 1_555
N2_3 C21_3 1_555 1_555
C15_3 C11_3 1_555 1_555
C16_3 C11_3 1_555 1_555
H5_3 C16_3 1_555 1_555
N6_3 H8_3 1_555 1_555
C20_3 C8_3 1_555 1_555
H11_3 C20_3 1_555 1_555
C21_3 N6_3 1_555 1_555
C23_3 C16_3 1_555 1_555
Cu5_2 Cu6_2 1_555 1_555
Cu6_2 O16_3 1_555 1_555
O16_3 C28_3 1_555 1_555
O17_3 C30_3 1_555 1_555
O20_3 Cu5_2 1_555 1_555
O22_3 C30_3 1_555 1_555
O23_3 C36_3 1_555 1_555
O24_3 Cu1_4 1_555 1_555
C28_3 O20_3 1_555 1_555
C30_3 C34_3 1_555 1_555
C31_3 H14_3 1_555 1_555
C34_3 C39_3 1_555 1_555
C36_3 O24_3 1_555 1_555
C37_3 C28_3 1_555 1_555
C39_3 H15_3 1_555 1_555
N9_3 C53_3 1_555 1_555
C41_3 C31_3 1_555 1_555
N10_3 H16_3 1_555 1_555
N11_3 H18_3 1_555 1_555
C45_3 C41_3 1_555 1_555
H21_3 C45_3 1_555 1_555
C46_3 C34_3 1_555 1_555
H22_3 C46_3 1_555 1_555
C49_3 N10_3 1_555 1_555
C51_3 C37_3 1_555 1_555
H24_3 C51_3 1_555 1_555
C52_3 N11_3 1_555 1_555
Cu9_2 O7_2 1_555 1_555
Cu11_2 O22_3 1_555 1_555
Cu13_2 O1_3 1_555 1_555
Cu15_2 O6_2 1_555 1_555
Cu17_2 O17_3 1_555 1_555
Cu19_2 O2_3 1_555 1_555
Cu20_4 Cu1_4 1_555 1_555
O26_3 Cu5_2 1_555 1_555
O28_3 Cu6_2 1_555 1_555
O31_3 Cu6_2 1_555 1_555
O33_2 Cu6_2 1_555 1_555
O35_2 Cu5_2 1_555 1_555
O38_3 Cu5_2 1_555 1_555
O3_3 Cu20_4 1_555 1_555
N6_3 C23_3 1_555 1_555
C20_3 C23_3 1_555 1_555
O23_3 Cu20_4 1_555 1_555
C31_3 C37_3 1_555 1_555
C36_3 C41_3 1_555 1_555
N9_3 C54_3 1_555 1_555
N10_3 C54_3 1_555 1_555
N11_3 C53_3 1_555 1_555
C44_3 C49_3 1_555 1_555
C45_3 C52_3 1_555 1_555
C46_3 C49_3 1_555 1_555
C51_3 C52_3 1_555 1_555
Cu9_2 Cu15_2 1_555 1_555
Cu11_2 Cu17_2 1_555 1_555
Cu13_2 Cu19_2 1_555 1_555
O36_6 Cu7_3 1_555 1_555
O40_6 Cu7_3 1_555 1_555
O29_6 Cu20_3 1_555 1_555
O39_6 Cu20_3 1_555 1_555
Cu20_5 Cu1_5 1_555 1_555
O36_7 Cu1_5 1_555 1_555
O40_7 Cu1_5 1_555 1_555
Cu1_6 O9_4 1_555 1_555
O1_4 C6_4 1_555 1_555
O2_4 C6_4 1_555 1_555
O3_4 C5_4 1_555 1_555
O32_2 C15_4 1_555 1_555
O34_2 C15_4 1_555 1_555
O9_4 C5_4 1_555 1_555
C2_4 H1_4 1_555 1_555
C5_4 C8_4 1_555 1_555
C6_4 C13_4 1_555 1_555
N1_4 C21_4 1_555 1_555
C8_4 C2_4 1_555 1_555
C11_4 C2_4 1_555 1_555
N2_4 C21_4 1_555 1_555
C15_4 C11_4 1_555 1_555
C16_4 C11_4 1_555 1_555
H5_4 C16_4 1_555 1_555
N6_4 H8_4 1_555 1_555
C20_4 C8_4 1_555 1_555
H11_4 C20_4 1_555 1_555
C21_4 N6_4 1_555 1_555
C23_4 C16_4 1_555 1_555
Cu15_2 O16_4 1_555 1_555
O16_4 C28_4 1_555 1_555
O17_4 C30_4 1_555 1_555
O20_4 Cu9_2 1_555 1_555
O22_4 C30_4 1_555 1_555
O23_4 C36_4 1_555 1_555
O24_4 Cu1_6 1_555 1_555
C28_4 O20_4 1_555 1_555
C30_4 C34_4 1_555 1_555
C31_4 H14_4 1_555 1_555
C34_4 C39_4 1_555 1_555
C36_4 O24_4 1_555 1_555
C37_4 C28_4 1_555 1_555
C39_4 H15_4 1_555 1_555
N9_4 C53_4 1_555 1_555
C41_4 C31_4 1_555 1_555
N10_4 H16_4 1_555 1_555
N11_4 H18_4 1_555 1_555
C45_4 C41_4 1_555 1_555
H21_4 C45_4 1_555 1_555
C46_4 C34_4 1_555 1_555
H22_4 C46_4 1_555 1_555
C49_4 N10_4 1_555 1_555
C51_4 C37_4 1_555 1_555
H24_4 C51_4 1_555 1_555
C52_4 N11_4 1_555 1_555
Cu13_2 O22_4 1_555 1_555
Cu10_2 O1_4 1_555 1_555
Cu19_2 O17_4 1_555 1_555
Cu16_2 O2_4 1_555 1_555
Cu20_6 Cu1_6 1_555 1_555
O26_4 Cu9_2 1_555 1_555
O28_4 Cu15_2 1_555 1_555
O31_4 Cu15_2 1_555 1_555
O38_4 Cu9_2 1_555 1_555
O3_4 Cu20_6 1_555 1_555
N6_4 C23_4 1_555 1_555
C20_4 C23_4 1_555 1_555
O23_4 Cu20_6 1_555 1_555
C31_4 C37_4 1_555 1_555
C36_4 C41_4 1_555 1_555
N9_4 C54_4 1_555 1_555
N10_4 C54_4 1_555 1_555
N11_4 C53_4 1_555 1_555
C44_4 C49_4 1_555 1_555
C45_4 C52_4 1_555 1_555
C46_4 C49_4 1_555 1_555
C51_4 C52_4 1_555 1_555
Cu7_5 Cu4_5 1_555 1_555
O29_7 Cu4_5 1_555 1_555
O39_7 Cu4_5 1_555 1_555
Cu14_2 O4_4 1_555 1_555
Cu4_6 O11_4 1_555 1_555
O4_4 C1_4 1_555 1_555
O5_4 C3_4 1_555 1_555
O8_4 Cu8_2 1_555 1_555
O10_4 C3_4 1_555 1_555
O11_4 C9_4 1_555 1_555
O12_4 C9_4 1_555 1_555
C1_4 O8_4 1_555 1_555
C3_4 C7_4 1_555 1_555
C4_4 H2_4 1_555 1_555
C7_4 C12_4 1_555 1_555
C9_4 C14_4 1_555 1_555
C10_4 C1_4 1_555 1_555
C12_4 H3_4 1_555 1_555
N3_4 C26_4 1_555 1_555
C14_4 C4_4 1_555 1_555
N4_4 H4_4 1_555 1_555
N5_4 H6_4 1_555 1_555
C18_4 C14_4 1_555 1_555
H9_4 C18_4 1_555 1_555
C19_4 C7_4 1_555 1_555
H10_4 C19_4 1_555 1_555
C22_4 N4_4 1_555 1_555
C24_4 C10_4 1_555 1_555
H12_4 C24_4 1_555 1_555
C25_4 N5_4 1_555 1_555
O13_4 C33_4 1_555 1_555
O14_4 C33_4 1_555 1_555
O15_4 Cu4_6 1_555 1_555
O33_2 C42_4 1_555 1_555
O35_2 C42_4 1_555 1_555
O21_4 C32_4 1_555 1_555
C29_4 H13_4 1_555 1_555
C32_4 O15_4 1_555 1_555
C33_4 C40_4 1_555 1_555
N7_4 C48_4 1_555 1_555
C35_4 C29_4 1_555 1_555
C38_4 C29_4 1_555 1_555
N8_4 C48_4 1_555 1_555
C42_4 C38_4 1_555 1_555
C43_4 C38_4 1_555 1_555
H17_4 C43_4 1_555 1_555
N12_4 H20_4 1_555 1_555
C47_4 C35_4 1_555 1_555
H23_4 C47_4 1_555 1_555
C48_4 N12_4 1_555 1_555
C50_4 C43_4 1_555 1_555
Cu7_6 Cu4_6 1_555 1_555
Cu12_2 O10_4 1_555 1_555
Cu11_2 O13_4 1_555 1_555
Cu18_2 O5_4 1_555 1_555
Cu17_2 O14_4 1_555 1_555
O25_4 Cu8_2 1_555 1_555
O27_4 Cu14_2 1_555 1_555
O30_4 Cu14_2 1_555 1_555
O37_4 Cu8_2 1_555 1_555
O12_4 Cu7_6 1_555 1_555
C4_4 C10_4 1_555 1_555
N3_4 C27_4 1_555 1_555
N4_4 C27_4 1_555 1_555
N5_4 C26_4 1_555 1_555
C17_4 C22_4 1_555 1_555
C18_4 C25_4 1_555 1_555
C19_4 C22_4 1_555 1_555
C24_4 C25_4 1_555 1_555
O21_4 Cu7_6 1_555 1_555
C32_4 C35_4 1_555 1_555
N12_4 C50_4 1_555 1_555
C47_4 C50_4 1_555 1_555
O29_8 Cu20_5 1_555 1_555
O39_8 Cu20_5 1_555 1_555
O36_8 Cu7_5 1_555 1_555
O40_8 Cu7_5 1_555 1_555
Cu16_2 O4_5 1_555 1_555
O26_4 C6_5 1_555 1_555
O28_4 C6_5 1_555 1_555
O29 C5_5 1_555 1_555
O4_5 C1_5 1_555 1_555
O30_3 C3_5 1_555 1_555
O6_3 C15_5 1_555 1_555
O7_3 C15_5 1_555 1_555
O8_5 Cu10_2 1_555 1_555
O36_2 C5_5 1_555 1_555
O37_3 C3_5 1_555 1_555
C1_5 O8_5 1_555 1_555
C2_5 H1_5 1_555 1_555
C3_5 C7_5 1_555 1_555
C4_5 H2_5 1_555 1_555
C5_5 C8_5 1_555 1_555
C6_5 C13_5 1_555 1_555
C7_5 C12_5 1_555 1_555
N1_5 C21_5 1_555 1_555
C8_5 C2_5 1_555 1_555
C9_5 C14_5 1_555 1_555
C10_5 C1_5 1_555 1_555
C11_5 C2_5 1_555 1_555
C12_5 H3_5 1_555 1_555
N2_5 C21_5 1_555 1_555
N3_5 C26_5 1_555 1_555
C13_5 C12_5 1_555 1_555
C14_5 C4_5 1_555 1_555
C15_5 C11_5 1_555 1_555
N4_5 H4_5 1_555 1_555
C16_5 C11_5 1_555 1_555
H5_5 C16_5 1_555 1_555
N5_5 H6_5 1_555 1_555
C17_5 C13_5 1_555 1_555
H7_5 C17_5 1_555 1_555
N6_5 H8_5 1_555 1_555
C18_5 C14_5 1_555 1_555
H9_5 C18_5 1_555 1_555
C19_5 C7_5 1_555 1_555
H10_5 C19_5 1_555 1_555
C20_5 C8_5 1_555 1_555
H11_5 C20_5 1_555 1_555
C21_5 N6_5 1_555 1_555
C22_5 N4_5 1_555 1_555
C23_5 C16_5 1_555 1_555
C24_5 C10_5 1_555 1_555
H12_5 C24_5 1_555 1_555
C25_5 N5_5 1_555 1_555
C26_5 N1_5 1_555 1_555
C27_5 N2_5 1_555 1_555
Cu13_2 O7_3 1_555 1_555
Cu19_2 O6_3 1_555 1_555
O32_3 Cu16_2 1_555 1_555
O34_3 Cu10_2 1_555 1_555
C4_5 C10_5 1_555 1_555
N3_5 C27_5 1_555 1_555
N4_5 C27_5 1_555 1_555
N5_5 C26_5 1_555 1_555
C17_5 C22_5 1_555 1_555
N6_5 C23_5 1_555 1_555
C18_5 C25_5 1_555 1_555
C19_5 C22_5 1_555 1_555
C20_5 C23_5 1_555 1_555
C24_5 C25_5 1_555 1_555
Cu17_2 O16_5 1_555 1_555
O25_4 C33_5 1_555 1_555
O27_4 C33_5 1_555 1_555
O16_5 C28_5 1_555 1_555
O31_3 C30_5 1_555 1_555
O18_3 C42_5 1_555 1_555
O19_3 C42_5 1_555 1_555
O20_5 Cu11_2 1_555 1_555
O36 C32_5 1_555 1_555
O38_3 C30_5 1_555 1_555
C28_5 O20_5 1_555 1_555
C29_5 H13_5 1_555 1_555
C30_5 C34_5 1_555 1_555
C31_5 H14_5 1_555 1_555
C32_5 O29_2 1_555 1_555
C33_5 C40_5 1_555 1_555
C34_5 C39_5 1_555 1_555
N7_5 C48_5 1_555 1_555
C35_5 C29_5 1_555 1_555
C37_5 C28_5 1_555 1_555
C38_5 C29_5 1_555 1_555
C39_5 H15_5 1_555 1_555
N8_5 C48_5 1_555 1_555
N9_5 C53_5 1_555 1_555
C40_5 C39_5 1_555 1_555
C41_5 C31_5 1_555 1_555
C42_5 C38_5 1_555 1_555
N10_5 H16_5 1_555 1_555
C43_5 C38_5 1_555 1_555
H17_5 C43_5 1_555 1_555
N11_5 H18_5 1_555 1_555
C44_5 C40_5 1_555 1_555
H19_5 C44_5 1_555 1_555
N12_5 H20_5 1_555 1_555
C45_5 C41_5 1_555 1_555
H21_5 C45_5 1_555 1_555
C46_5 C34_5 1_555 1_555
H22_5 C46_5 1_555 1_555
C47_5 C35_5 1_555 1_555
H23_5 C47_5 1_555 1_555
C48_5 N12_5 1_555 1_555
C49_5 N10_5 1_555 1_555
C50_5 C43_5 1_555 1_555
C51_5 C37_5 1_555 1_555
H24_5 C51_5 1_555 1_555
C52_5 N11_5 1_555 1_555
C53_5 N7_5 1_555 1_555
C54_5 N8_5 1_555 1_555
Cu12_2 O19_3 1_555 1_555
Cu18_2 O18_3 1_555 1_555
O33_3 Cu17_2 1_555 1_555
O35_3 Cu11_2 1_555 1_555
C31_5 C37_5 1_555 1_555
C32_5 C35_5 1_555 1_555
C36_5 C41_5 1_555 1_555
N9_5 C54_5 1_555 1_555
N10_5 C54_5 1_555 1_555
N11_5 C53_5 1_555 1_555
C44_5 C49_5 1_555 1_555
N12_5 C50_5 1_555 1_555
C45_5 C52_5 1_555 1_555
C46_5 C49_5 1_555 1_555
C47_5 C50_5 1_555 1_555
C51_5 C52_5 1_555 1_555
Cu18_2 O4_6 1_555 1_555
O25_3 C6_6 1_555 1_555
O27_3 C6_6 1_555 1_555
O29_3 C5_6 1_555 1_555
O4_6 C1_6 1_555 1_555
O30_4 C3_6 1_555 1_555
O32_3 C15_6 1_555 1_555
O34_3 C15_6 1_555 1_555
O8_6 Cu12_2 1_555 1_555
O36_4 C5_6 1_555 1_555
O37_4 C3_6 1_555 1_555
C1_6 O8_6 1_555 1_555
C2_6 H1_6 1_555 1_555
C3_6 C7_6 1_555 1_555
C4_6 H2_6 1_555 1_555
C5_6 C8_6 1_555 1_555
C6_6 C13_6 1_555 1_555
C7_6 C12_6 1_555 1_555
N1_6 C21_6 1_555 1_555
C8_6 C2_6 1_555 1_555
C9_6 C14_6 1_555 1_555
C10_6 C1_6 1_555 1_555
C11_6 C2_6 1_555 1_555
C12_6 H3_6 1_555 1_555
N2_6 C21_6 1_555 1_555
N3_6 C26_6 1_555 1_555
C13_6 C12_6 1_555 1_555
C14_6 C4_6 1_555 1_555
C15_6 C11_6 1_555 1_555
N4_6 H4_6 1_555 1_555
C16_6 C11_6 1_555 1_555
H5_6 C16_6 1_555 1_555
N5_6 H6_6 1_555 1_555
C17_6 C13_6 1_555 1_555
H7_6 C17_6 1_555 1_555
N6_6 H8_6 1_555 1_555
C18_6 C14_6 1_555 1_555
H9_6 C18_6 1_555 1_555
C19_6 C7_6 1_555 1_555
H10_6 C19_6 1_555 1_555
C20_6 C8_6 1_555 1_555
H11_6 C20_6 1_555 1_555
C21_6 N6_6 1_555 1_555
C22_6 N4_6 1_555 1_555
C23_6 C16_6 1_555 1_555
C24_6 C10_6 1_555 1_555
H12_6 C24_6 1_555 1_555
C25_6 N5_6 1_555 1_555
C26_6 N1_6 1_555 1_555
C27_6 N2_6 1_555 1_555
C4_6 C10_6 1_555 1_555
N3_6 C27_6 1_555 1_555
N4_6 C27_6 1_555 1_555
N5_6 C26_6 1_555 1_555
C17_6 C22_6 1_555 1_555
N6_6 C23_6 1_555 1_555
C18_6 C25_6 1_555 1_555
C19_6 C22_6 1_555 1_555
C20_6 C23_6 1_555 1_555
C24_6 C25_6 1_555 1_555
Cu19_2 O16_6 1_555 1_555
O26_3 C33_6 1_555 1_555
O28_3 C33_6 1_555 1_555
O16_6 C28_6 1_555 1_555
O31_4 C30_6 1_555 1_555
O33_3 C42_6 1_555 1_555
O35_3 C42_6 1_555 1_555
O20_6 Cu13_2 1_555 1_555
O36_3 C32_6 1_555 1_555
O38_4 C30_6 1_555 1_555
C28_6 O20_6 1_555 1_555
C29_6 H13_6 1_555 1_555
C30_6 C34_6 1_555 1_555
C31_6 H14_6 1_555 1_555
C32_6 O29_4 1_555 1_555
C33_6 C40_6 1_555 1_555
C34_6 C39_6 1_555 1_555
N7_6 C48_6 1_555 1_555
C35_6 C29_6 1_555 1_555
C37_6 C28_6 1_555 1_555
C38_6 C29_6 1_555 1_555
C39_6 H15_6 1_555 1_555
N8_6 C48_6 1_555 1_555
N9_6 C53_6 1_555 1_555
C40_6 C39_6 1_555 1_555
C41_6 C31_6 1_555 1_555
C42_6 C38_6 1_555 1_555
N10_6 H16_6 1_555 1_555
C43_6 C38_6 1_555 1_555
H17_6 C43_6 1_555 1_555
N11_6 H18_6 1_555 1_555
C44_6 C40_6 1_555 1_555
H19_6 C44_6 1_555 1_555
N12_6 H20_6 1_555 1_555
C45_6 C41_6 1_555 1_555
H21_6 C45_6 1_555 1_555
C46_6 C34_6 1_555 1_555
H22_6 C46_6 1_555 1_555
C47_6 C35_6 1_555 1_555
H23_6 C47_6 1_555 1_555
C48_6 N12_6 1_555 1_555
C49_6 N10_6 1_555 1_555
C50_6 C43_6 1_555 1_555
C51_6 C37_6 1_555 1_555
H24_6 C51_6 1_555 1_555
C52_6 N11_6 1_555 1_555
C53_6 N7_6 1_555 1_555
C54_6 N8_6 1_555 1_555
C31_6 C37_6 1_555 1_555
C32_6 C35_6 1_555 1_555
C36_6 C41_6 1_555 1_555
N9_6 C54_6 1_555 1_555
N10_6 C54_6 1_555 1_555
N11_6 C53_6 1_555 1_555
C44_6 C49_6 1_555 1_555
N12_6 C50_6 1_555 1_555
C45_6 C52_6 1_555 1_555
C46_6 C49_6 1_555 1_555
C47_6 C50_6 1_555 1_555
C51_6 C52_6 1_555 1_555
O26_2 C6_7 1_555 1_555
O28_2 C6_7 1_555 1_555
O29_5 C5_7 1_555 1_555
O6_4 C15_7 1_555 1_555
O7_4 C15_7 1_555 1_555
O36_6 C5_7 1_555 1_555
C2_7 H1_7 1_555 1_555
C5_7 C8_7 1_555 1_555
C6_7 C13_7 1_555 1_555
N1_7 C21_7 1_555 1_555
C8_7 C2_7 1_555 1_555
C11_7 C2_7 1_555 1_555
N2_7 C21_7 1_555 1_555
C15_7 C11_7 1_555 1_555
C16_7 C11_7 1_555 1_555
H5_7 C16_7 1_555 1_555
N6_7 H8_7 1_555 1_555
C20_7 C8_7 1_555 1_555
H11_7 C20_7 1_555 1_555
C21_7 N6_7 1_555 1_555
C23_7 C16_7 1_555 1_555
Cu17 O16_7 1_555 1_555
O16_7 C28_7 1_555 1_555
O31 C30_7 1_555 1_555
O20_7 Cu11 1_555 1_555
O38 C30_7 1_555 1_555
O39_5 C36_7 1_555 1_555
C28_7 O20_7 1_555 1_555
C30_7 C34_7 1_555 1_555
C31_7 H14_7 1_555 1_555
C34_7 C39_7 1_555 1_555
C36_7 O40_6 1_555 1_555
C37_7 C28_7 1_555 1_555
C39_7 H15_7 1_555 1_555
N9_7 C53_7 1_555 1_555
C41_7 C31_7 1_555 1_555
N10_7 H16_7 1_555 1_555
N11_7 H18_7 1_555 1_555
C45_7 C41_7 1_555 1_555
H21_7 C45_7 1_555 1_555
C46_7 C34_7 1_555 1_555
H22_7 C46_7 1_555 1_555
C49_7 N10_7 1_555 1_555
C51_7 C37_7 1_555 1_555
H24_7 C51_7 1_555 1_555
C52_7 N11_7 1_555 1_555
Cu13 O7_4 1_555 1_555
Cu19 O6_4 1_555 1_555
O33_4 Cu17 1_555 1_555
O35_4 Cu11 1_555 1_555
N6_7 C23_7 1_555 1_555
C20_7 C23_7 1_555 1_555
C31_7 C37_7 1_555 1_555
C36_7 C41_7 1_555 1_555
N9_7 C54_7 1_555 1_555
N10_7 C54_7 1_555 1_555
N11_7 C53_7 1_555 1_555
C44_7 C49_7 1_555 1_555
C45_7 C52_7 1_555 1_555
C46_7 C49_7 1_555 1_555
C51_7 C52_7 1_555 1_555
Cu16 O4_7 1_555 1_555
O4_7 C1_7 1_555 1_555
O30 C3_7 1_555 1_555
O8_7 Cu10 1_555 1_555
O37 C3_7 1_555 1_555
O39_6 C9_7 1_555 1_555
O40_5 C9_7 1_555 1_555
C1_7 O8_7 1_555 1_555
C3_7 C7_7 1_555 1_555
C4_7 H2_7 1_555 1_555
C7_7 C12_7 1_555 1_555
C9_7 C14_7 1_555 1_555
C10_7 C1_7 1_555 1_555
C12_7 H3_7 1_555 1_555
N3_7 C26_7 1_555 1_555
C14_7 C4_7 1_555 1_555
N4_7 H4_7 1_555 1_555
N5_7 H6_7 1_555 1_555
C18_7 C14_7 1_555 1_555
H9_7 C18_7 1_555 1_555
C19_7 C7_7 1_555 1_555
H10_7 C19_7 1_555 1_555
C22_7 N4_7 1_555 1_555
C24_7 C10_7 1_555 1_555
H12_7 C24_7 1_555 1_555
C25_7 N5_7 1_555 1_555
O25_2 C33_7 1_555 1_555
O27_2 C33_7 1_555 1_555
O18_4 C42_7 1_555 1_555
O19_4 C42_7 1_555 1_555
O36_5 C32_7 1_555 1_555
C29_7 H13_7 1_555 1_555
C32_7 O29_6 1_555 1_555
C33_7 C40_7 1_555 1_555
N7_7 C48_7 1_555 1_555
C35_7 C29_7 1_555 1_555
C38_7 C29_7 1_555 1_555
N8_7 C48_7 1_555 1_555
C42_7 C38_7 1_555 1_555
C43_7 C38_7 1_555 1_555
H17_7 C43_7 1_555 1_555
N12_7 H20_7 1_555 1_555
C47_7 C35_7 1_555 1_555
H23_7 C47_7 1_555 1_555
C48_7 N12_7 1_555 1_555
C50_7 C43_7 1_555 1_555
Cu12 O19_4 1_555 1_555
Cu18 O18_4 1_555 1_555
O32_4 Cu16 1_555 1_555
O34_4 Cu10 1_555 1_555
C4_7 C10_7 1_555 1_555
N3_7 C27_7 1_555 1_555
N4_7 C27_7 1_555 1_555
N5_7 C26_7 1_555 1_555
C17_7 C22_7 1_555 1_555
C18_7 C25_7 1_555 1_555
C19_7 C22_7 1_555 1_555
C24_7 C25_7 1_555 1_555
C32_7 C35_7 1_555 1_555
N12_7 C50_7 1_555 1_555
C47_7 C50_7 1_555 1_555
Cu18 O4_8 1_555 1_555
O4_8 C1_8 1_555 1_555
O30_2 C3_8 1_555 1_555
O8_8 Cu12 1_555 1_555
O37_2 C3_8 1_555 1_555
O39_8 C9_8 1_555 1_555
O40_7 C9_8 1_555 1_555
C1_8 O8_8 1_555 1_555
C3_8 C7_8 1_555 1_555
C4_8 H2_8 1_555 1_555
C7_8 C12_8 1_555 1_555
C9_8 C14_8 1_555 1_555
C10_8 C1_8 1_555 1_555
C12_8 H3_8 1_555 1_555
N3_8 C26_8 1_555 1_555
C14_8 C4_8 1_555 1_555
N4_8 H4_8 1_555 1_555
N5_8 H6_8 1_555 1_555
C18_8 C14_8 1_555 1_555
H9_8 C18_8 1_555 1_555
C19_8 C7_8 1_555 1_555
H10_8 C19_8 1_555 1_555
C22_8 N4_8 1_555 1_555
C24_8 C10_8 1_555 1_555
H12_8 C24_8 1_555 1_555
C25_8 N5_8 1_555 1_555
O26 C33_8 1_555 1_555
O28 C33_8 1_555 1_555
O33_4 C42_8 1_555 1_555
O35_4 C42_8 1_555 1_555
O36_7 C32_8 1_555 1_555
C29_8 H13_8 1_555 1_555
C32_8 O29_8 1_555 1_555
C33_8 C40_8 1_555 1_555
N7_8 C48_8 1_555 1_555
C35_8 C29_8 1_555 1_555
C38_8 C29_8 1_555 1_555
N8_8 C48_8 1_555 1_555
C42_8 C38_8 1_555 1_555
C43_8 C38_8 1_555 1_555
H17_8 C43_8 1_555 1_555
N12_8 H20_8 1_555 1_555
C47_8 C35_8 1_555 1_555
H23_8 C47_8 1_555 1_555
C48_8 N12_8 1_555 1_555
C50_8 C43_8 1_555 1_555
C4_8 C10_8 1_555 1_555
N3_8 C27_8 1_555 1_555
N4_8 C27_8 1_555 1_555
N5_8 C26_8 1_555 1_555
C17_8 C22_8 1_555 1_555
C18_8 C25_8 1_555 1_555
C19_8 C22_8 1_555 1_555
C24_8 C25_8 1_555 1_555
C32_8 C35_8 1_555 1_555
N12_8 C50_8 1_555 1_555
C47_8 C50_8 1_555 1_555
O25 C6_8 1_555 1_555
O27 C6_8 1_555 1_555
O29_7 C5_8 1_555 1_555
O32_4 C15_8 1_555 1_555
O34_4 C15_8 1_555 1_555
O36_8 C5_8 1_555 1_555
C2_8 H1_8 1_555 1_555
C5_8 C8_8 1_555 1_555
C6_8 C13_8 1_555 1_555
N1_8 C21_8 1_555 1_555
C8_8 C2_8 1_555 1_555
C11_8 C2_8 1_555 1_555
N2_8 C21_8 1_555 1_555
C15_8 C11_8 1_555 1_555
C16_8 C11_8 1_555 1_555
H5_8 C16_8 1_555 1_555
N6_8 H8_8 1_555 1_555
C20_8 C8_8 1_555 1_555
H11_8 C20_8 1_555 1_555
C21_8 N6_8 1_555 1_555
C23_8 C16_8 1_555 1_555
Cu19 O16_8 1_555 1_555
O16_8 C28_8 1_555 1_555
O31_2 C30_8 1_555 1_555
O20_8 Cu13 1_555 1_555
O38_2 C30_8 1_555 1_555
O39_7 C36_8 1_555 1_555
C28_8 O20_8 1_555 1_555
C30_8 C34_8 1_555 1_555
C31_8 H14_8 1_555 1_555
C34_8 C39_8 1_555 1_555
C36_8 O40_8 1_555 1_555
C37_8 C28_8 1_555 1_555
C39_8 H15_8 1_555 1_555
N9_8 C53_8 1_555 1_555
C41_8 C31_8 1_555 1_555
N10_8 H16_8 1_555 1_555
N11_8 H18_8 1_555 1_555
C45_8 C41_8 1_555 1_555
H21_8 C45_8 1_555 1_555
C46_8 C34_8 1_555 1_555
H22_8 C46_8 1_555 1_555
C49_8 N10_8 1_555 1_555
C51_8 C37_8 1_555 1_555
H24_8 C51_8 1_555 1_555
C52_8 N11_8 1_555 1_555
N6_8 C23_8 1_555 1_555
C20_8 C23_8 1_555 1_555
C31_8 C37_8 1_555 1_555
C36_8 C41_8 1_555 1_555
N9_8 C54_8 1_555 1_555
N10_8 C54_8 1_555 1_555
N11_8 C53_8 1_555 1_555
C44_8 C49_8 1_555 1_555
C45_8 C52_8 1_555 1_555
C46_8 C49_8 1_555 1_555
C51_8 C52_8 1_555 1_555

#END
