
###############################################################################
#
# This file contains modified crystal structure data generated from the
# MOF subset of the Cambridge Structural Database (CSD) v543 
# hosted by the Cambridge Crystallographic Data Centre (CCDC).
#
# This work is licensed under the Creative Commons
# Attribution-NonCommercial-ShareAlike 4.0 International License.
# To view a copy of this license, visit
# http://creativecommons.org/licenses/by-nc-sa/4.0/
# or send a letter to
# Creative Commons, PO Box 1866, Mountain View, CA 94042, USA.
#
# CIF created using the CSD Python API on 29 September 2022
# The structure has been converted into the P1 space group
# The structure has a 3D framework
# The original CSD entry PAPPAB12 is in the tetragonal crystal system
# The framework has been calculated to contain at least 10.0% void space
# The void calculation uses a probe of radius 1.32A, grid spacing 0.4
#
###############################################################################

data_PAPPAB12
_chemical_formula_moiety         '(C432 H192 Cu40 N96 O180)n'
_symmetry_cell_setting           triclinic
_symmetry_space_group_name_H-M   'P 1'
_symmetry_Int_Tables_number      1
_space_group_name_Hall           'P 1'
loop_
_symmetry_equiv_pos_site_id
_symmetry_equiv_pos_as_xyz
1 x,y,z
_cell_length_a                   26.4371(2)
_cell_length_b                   26.4371(2)
_cell_length_c                   37.8904(6)
_cell_angle_alpha                90
_cell_angle_beta                 90
_cell_angle_gamma                90
_cell_volume                     26482.4
loop_
_atom_site_label
_atom_site_type_symbol
_atom_site_fract_x
_atom_site_fract_y
_atom_site_fract_z
Cu1 Cu 0.39146(8) 0.07136(9) 0.500000
O9 O 0.3971(3) 0.0190(4) 0.4648(3)
O12 O 0.3139(4) 0.0060(4) 0.4643(3)
Cu5 Cu 0.34306(6) 0.26770(6) 0.19433(4)
Cu6 Cu 0.82231(6) 0.11947(6) 0.35179(4)
O13 O 0.3766(3) 0.1204(4) 0.4629(2)
O14 O 0.2197(3) 0.2274(4) 0.3310(3)
O15 O 0.6213(3) 0.3570(4) 0.1755(3)
O16 O 0.4087(3) 0.2684(4) 0.2162(2)
O17 O 0.4421(3) 0.3201(4) 0.1751(2)
O18 O 0.2944(3) 0.1067(4) 0.4642(3)
O19 O 0.7605(3) 0.1008(3) 0.3746(3)
O20 O 0.6706(3) 0.3256(3) 0.2184(2)
O22 O 0.1849(3) 0.1801(4) 0.3741(2)
O23 O 0.7106(3) 0.1374(4) 0.3348(3)
C28 C 0.7186(4) 0.1117(4) 0.3624(4)
C29 C 0.6282(4) 0.3329(4) 0.2041(4)
C30 C 0.6400(6) 0.0013(6) 0.4538(4)
C31 C 0.3326(5) 0.1249(5) 0.4510(4)
C32 C 0.6781(5) 0.0580(5) 0.4081(4)
H13 H 0.709637 0.043871 0.412842
C33 C 0.3270(5) 0.1573(5) 0.4188(4)
C34 C 0.2793(5) 0.1661(5) 0.4057(4)
H14 H 0.251113 0.154009 0.417684
C35 C 0.5356(5) 0.3136(5) 0.2055(4)
H15 H 0.531484 0.332590 0.185030
C36 C 0.4439(5) 0.2931(6) 0.2024(4)
C37 C 0.2212(5) 0.2004(6) 0.3589(4)
N7 N 0.5575(4) 0.2252(6) 0.2948(4)
H16 H 0.588698 0.216643 0.297413
C38 C 0.5826(5) 0.3091(5) 0.2204(4)
C39 C 0.6731(5) 0.0944(5) 0.3826(4)
N8 N 0.4785(5) 0.2209(6) 0.3206(4)
N9 N 0.4686(5) 0.1668(6) 0.3701(4)
C40 C 0.4949(5) 0.2904(5) 0.2205(4)
C41 C 0.2732(5) 0.1926(6) 0.3749(4)
C42 C 0.6365(6) 0.0425(6) 0.4266(4)
N10 N 0.5485(5) 0.1736(6) 0.3417(4)
C43 C 0.4534(6) 0.1999(7) 0.3471(5)
C44 C 0.3634(5) 0.1996(7) 0.3693(5)
C45 C 0.5890(6) 0.2799(7) 0.2500(5)
H17 H 0.620950 0.276525 0.260076
N11 N 0.4039(5) 0.2152(6) 0.3482(4)
H18 H 0.396381 0.238477 0.333236
C46 C 0.3152(5) 0.2080(6) 0.3570(4)
H19 H 0.311006 0.224720 0.335593
C47 C 0.5002(5) 0.2608(6) 0.2495(4)
H20 H 0.472355 0.244267 0.259019
C48 C 0.3693(5) 0.1727(7) 0.4002(5)
H21 H 0.401537 0.165015 0.408520
C49 C 0.5896(6) 0.0621(7) 0.4190(4)
H22 H 0.561113 0.049972 0.430718
C50 C 0.5479(5) 0.2554(7) 0.2650(4)
C51 C 0.6266(6) 0.1142(6) 0.3751(5)
H23 H 0.623448 0.137710 0.356987
N12 N 0.5351(5) 0.1201(7) 0.3884(4)
H24 H 0.512187 0.107669 0.401990
C52 C 0.5264(6) 0.2077(7) 0.3195(5)
C53 C 0.5846(5) 0.1000(7) 0.3938(5)
C54 C 0.5183(7) 0.1555(8) 0.3655(5)
Cu8 Cu 0.29909(8) 0.05615(8) 0.500000
Cu10 Cu 0.73230(6) 0.34306(6) 0.19433(4)
Cu12 Cu 0.15694(6) 0.23230(6) 0.30567(4)
Cu14 Cu 0.76770(6) 0.15694(6) 0.30567(4)
Cu15 Cu 0.11947(6) 0.17769(6) 0.35179(4)
Cu18 Cu 0.67769(6) 0.38053(6) 0.14821(4)
Cu19 Cu 0.38053(6) 0.32231(6) 0.14821(4)
O25 O 0.3766(3) 0.1204(4) 0.5371(2)
O27 O 0.2803(3) 0.2726(4) 0.1690(3)
O29 O 0.8787(3) 0.1430(4) 0.3245(3)
O31 O 0.8201(4) 0.0579(3) 0.3249(2)
O33 O 0.3256(3) 0.3294(3) 0.2184(2)
O35 O 0.3971(3) 0.0190(4) 0.5352(3)
O37 O 0.8199(4) 0.1849(3) 0.3741(2)
O38 O 0.3626(4) 0.2106(3) 0.1652(3)
Cu2 Cu 0.70091(8) 0.94385(8) 0.500000
Cu3 Cu 0.65694(6) 0.73230(6) 0.19433(4)
Cu4 Cu 0.17769(6) 0.88053(6) 0.35179(4)
O1 O 0.6234(3) 0.8796(4) 0.4629(2)
O2 O 0.7803(3) 0.7726(4) 0.3310(3)
O3 O 0.3787(3) 0.6430(4) 0.1755(3)
O4 O 0.5913(3) 0.7316(4) 0.2162(2)
O5 O 0.5579(3) 0.6799(4) 0.1751(2)
O6 O 0.7056(3) 0.8933(4) 0.4642(3)
O7 O 0.2395(3) 0.8992(3) 0.3746(3)
O8 O 0.3294(3) 0.6744(3) 0.2184(2)
O10 O 0.8151(3) 0.8199(4) 0.3741(2)
O11 O 0.2894(3) 0.8626(4) 0.3348(3)
C1 C 0.2814(4) 0.8883(4) 0.3624(4)
C2 C 0.3718(4) 0.6671(4) 0.2041(4)
C3 C 0.3600(6) 0.9987(6) 0.4538(4)
C4 C 0.6674(5) 0.8751(5) 0.4510(4)
C5 C 0.3219(5) 0.9420(5) 0.4081(4)
H1 H 0.290363 0.956129 0.412842
C6 C 0.6730(5) 0.8427(5) 0.4188(4)
C7 C 0.7207(5) 0.8339(5) 0.4057(4)
H2 H 0.748887 0.845991 0.417684
C8 C 0.4644(5) 0.6864(5) 0.2055(4)
H3 H 0.468516 0.667410 0.185030
C9 C 0.5561(5) 0.7069(6) 0.2024(4)
C10 C 0.7788(5) 0.7996(6) 0.3589(4)
N1 N 0.4425(4) 0.7748(6) 0.2948(4)
H4 H 0.411302 0.783357 0.297413
C11 C 0.4174(5) 0.6909(5) 0.2204(4)
C12 C 0.3269(5) 0.9056(5) 0.3826(4)
N2 N 0.5215(5) 0.7791(6) 0.3206(4)
N3 N 0.5314(5) 0.8332(6) 0.3701(4)
C13 C 0.5051(5) 0.7096(5) 0.2205(4)
C14 C 0.7268(5) 0.8074(6) 0.3749(4)
C15 C 0.3635(6) 0.9575(6) 0.4266(4)
N4 N 0.4515(5) 0.8264(6) 0.3417(4)
C16 C 0.5466(6) 0.8001(7) 0.3471(5)
C17 C 0.6366(5) 0.8004(7) 0.3693(5)
C18 C 0.4110(6) 0.7201(7) 0.2500(5)
H5 H 0.379050 0.723475 0.260076
N5 N 0.5961(5) 0.7848(6) 0.3482(4)
H6 H 0.603619 0.761523 0.333236
C19 C 0.6848(5) 0.7920(6) 0.3570(4)
H7 H 0.688994 0.775280 0.335593
C20 C 0.4998(5) 0.7392(6) 0.2495(4)
H8 H 0.527645 0.755733 0.259019
C21 C 0.6307(5) 0.8273(7) 0.4002(5)
H9 H 0.598463 0.834985 0.408520
C22 C 0.4104(6) 0.9379(7) 0.4190(4)
H10 H 0.438887 0.950028 0.430718
C23 C 0.4521(5) 0.7446(7) 0.2650(4)
C24 C 0.3734(6) 0.8858(6) 0.3751(5)
H11 H 0.376552 0.862290 0.356987
N6 N 0.4649(5) 0.8799(7) 0.3884(4)
H12 H 0.487813 0.892331 0.401990
C25 C 0.4736(6) 0.7923(7) 0.3195(5)
C26 C 0.4154(5) 0.9000(7) 0.3938(5)
C27 C 0.4817(7) 0.8445(8) 0.3655(5)
O21 O 0.6029(3) 0.9810(4) 0.4648(3)
O24 O 0.6861(4) 0.9940(4) 0.4643(3)
Cu7 Cu 0.60854(8) 0.92864(9) 0.500000
Cu9 Cu 0.26770(6) 0.65694(6) 0.19433(4)
Cu11 Cu 0.84306(6) 0.76770(6) 0.30567(4)
Cu13 Cu 0.23230(6) 0.84306(6) 0.30567(4)
Cu16 Cu 0.88053(6) 0.82231(6) 0.35179(4)
Cu17 Cu 0.32231(6) 0.61947(6) 0.14821(4)
Cu20 Cu 0.61947(6) 0.67769(6) 0.14821(4)
O26 O 0.7197(3) 0.7274(4) 0.1690(3)
O28 O 0.1213(3) 0.8570(4) 0.3245(3)
O30 O 0.1799(4) 0.9421(3) 0.3249(2)
O32 O 0.7056(3) 0.8933(4) 0.5358(3)
O34 O 0.6744(3) 0.6706(3) 0.2184(2)
O36 O 0.1801(4) 0.8151(3) 0.3741(2)
O39 O 0.6374(4) 0.7894(3) 0.1652(3)
O40 O 0.6861(4) 0.9940(4) 0.5357(3)
O32_2 O 0.2944(3) 0.1067(4) 0.5358(3)
O40_2 O 0.3139(4) 0.0060(4) 0.5357(3)
O25_2 O 0.6234(3) 0.8796(4) 0.5371(2)
O35_2 O 0.6029(3) 0.9810(4) 0.5352(3)
Cu2_2 Cu 0.05615(8) 0.70091(8) 0.500000
O1_2 O 0.1204(4) 0.6234(3) 0.4629(2)
O2_2 O 0.2274(4) 0.7803(3) 0.3310(3)
O3_2 O 0.3570(4) 0.3787(3) 0.1755(3)
O4_2 O 0.2684(4) 0.5913(3) 0.2162(2)
O5_2 O 0.3201(4) 0.5579(3) 0.1751(2)
O6_2 O 0.1067(4) 0.7056(3) 0.4642(3)
O7_2 O 0.1008(3) 0.2395(3) 0.3746(3)
O11_2 O 0.1374(4) 0.2894(3) 0.3348(3)
C1_2 C 0.1117(4) 0.2814(4) 0.3624(4)
C2_2 C 0.3329(4) 0.3718(4) 0.2041(4)
C3_2 C 0.0013(6) 0.3600(6) 0.4538(4)
C4_2 C 0.1249(5) 0.6674(5) 0.4510(4)
C5_2 C 0.0580(5) 0.3219(5) 0.4081(4)
H1_2 H 0.043871 0.290363 0.412842
C6_2 C 0.1573(5) 0.6730(5) 0.4188(4)
C7_2 C 0.1661(5) 0.7207(5) 0.4057(4)
H2_2 H 0.154009 0.748887 0.417684
C8_2 C 0.3136(5) 0.4644(5) 0.2055(4)
H3_2 H 0.332590 0.468516 0.185030
C9_2 C 0.2931(6) 0.5561(5) 0.2024(4)
C10_2 C 0.2004(6) 0.7788(5) 0.3589(4)
N1_2 N 0.2252(6) 0.4425(4) 0.2948(4)
H4_2 H 0.216643 0.411302 0.297413
C11_2 C 0.3091(5) 0.4174(5) 0.2204(4)
C12_2 C 0.0944(5) 0.3269(5) 0.3826(4)
N2_2 N 0.2209(6) 0.5215(5) 0.3206(4)
N3_2 N 0.1668(6) 0.5314(5) 0.3701(4)
C13_2 C 0.2904(5) 0.5051(5) 0.2205(4)
C14_2 C 0.1926(6) 0.7268(5) 0.3749(4)
C15_2 C 0.0425(6) 0.3635(6) 0.4266(4)
N4_2 N 0.1736(6) 0.4515(5) 0.3417(4)
C16_2 C 0.1999(7) 0.5466(6) 0.3471(5)
C17_2 C 0.1996(7) 0.6366(5) 0.3693(5)
C18_2 C 0.2799(7) 0.4110(6) 0.2500(5)
H5_2 H 0.276525 0.379050 0.260076
N5_2 N 0.2152(6) 0.5961(5) 0.3482(4)
H6_2 H 0.238477 0.603619 0.333236
C19_2 C 0.2080(6) 0.6848(5) 0.3570(4)
H7_2 H 0.224720 0.688994 0.335593
C20_2 C 0.2608(6) 0.4998(5) 0.2495(4)
H8_2 H 0.244267 0.527645 0.259019
C21_2 C 0.1727(7) 0.6307(5) 0.4002(5)
H9_2 H 0.165015 0.598463 0.408520
C22_2 C 0.0621(7) 0.4104(6) 0.4190(4)
H10_2 H 0.049972 0.438887 0.430718
C23_2 C 0.2554(7) 0.4521(5) 0.2650(4)
C24_2 C 0.1142(6) 0.3734(6) 0.3751(5)
H11_2 H 0.137710 0.376552 0.356987
N6_2 N 0.1201(7) 0.4649(5) 0.3884(4)
H12_2 H 0.107669 0.487813 0.401990
C25_2 C 0.2077(7) 0.4736(6) 0.3195(5)
C26_2 C 0.1000(7) 0.4154(5) 0.3938(5)
C27_2 C 0.1555(8) 0.4817(7) 0.3655(5)
O21_2 O 0.0190(4) 0.6029(3) 0.4648(3)
O24_2 O 0.0060(4) 0.6861(4) 0.4643(3)
Cu7_2 Cu 0.07136(9) 0.60854(8) 0.500000
O26_2 O 0.2726(4) 0.7197(3) 0.1690(3)
O28_2 O 0.1430(4) 0.1213(3) 0.3245(3)
O30_2 O 0.0579(3) 0.1799(4) 0.3249(2)
O32_3 O 0.1067(4) 0.7056(3) 0.5358(3)
O39_2 O 0.2106(3) 0.6374(4) 0.1652(3)
O40_3 O 0.0060(4) 0.6861(4) 0.5357(3)
Cu1_2 Cu 0.92864(9) 0.39146(8) 0.500000
O9_2 O 0.9810(4) 0.3971(3) 0.4648(3)
O12_2 O 0.9940(4) 0.3139(4) 0.4643(3)
O13_2 O 0.8796(4) 0.3766(3) 0.4629(2)
O14_2 O 0.7726(4) 0.2197(3) 0.3310(3)
O15_2 O 0.6430(4) 0.6213(3) 0.1755(3)
O16_2 O 0.7316(4) 0.4087(3) 0.2162(2)
O17_2 O 0.6799(4) 0.4421(3) 0.1751(2)
O18_2 O 0.8933(4) 0.2944(3) 0.4642(3)
O19_2 O 0.8992(3) 0.7605(3) 0.3746(3)
O23_2 O 0.8626(4) 0.7106(3) 0.3348(3)
C28_2 C 0.8883(4) 0.7186(4) 0.3624(4)
C29_2 C 0.6671(4) 0.6282(4) 0.2041(4)
C30_2 C 0.9987(6) 0.6400(6) 0.4538(4)
C31_2 C 0.8751(5) 0.3326(5) 0.4510(4)
C32_2 C 0.9420(5) 0.6781(5) 0.4081(4)
H13_2 H 0.956129 0.709637 0.412842
C33_2 C 0.8427(5) 0.3270(5) 0.4188(4)
C34_2 C 0.8339(5) 0.2793(5) 0.4057(4)
H14_2 H 0.845991 0.251113 0.417684
C35_2 C 0.6864(5) 0.5356(5) 0.2055(4)
H15_2 H 0.667410 0.531484 0.185030
C36_2 C 0.7069(6) 0.4439(5) 0.2024(4)
C37_2 C 0.7996(6) 0.2212(5) 0.3589(4)
N7_2 N 0.7748(6) 0.5575(4) 0.2948(4)
H16_2 H 0.783357 0.588698 0.297413
C38_2 C 0.6909(5) 0.5826(5) 0.2204(4)
C39_2 C 0.9056(5) 0.6731(5) 0.3826(4)
N8_2 N 0.7791(6) 0.4785(5) 0.3206(4)
N9_2 N 0.8332(6) 0.4686(5) 0.3701(4)
C40_2 C 0.7096(5) 0.4949(5) 0.2205(4)
C41_2 C 0.8074(6) 0.2732(5) 0.3749(4)
C42_2 C 0.9575(6) 0.6365(6) 0.4266(4)
N10_2 N 0.8264(6) 0.5485(5) 0.3417(4)
C43_2 C 0.8001(7) 0.4534(6) 0.3471(5)
C44_2 C 0.8004(7) 0.3634(5) 0.3693(5)
C45_2 C 0.7201(7) 0.5890(6) 0.2500(5)
H17_2 H 0.723475 0.620950 0.260076
N11_2 N 0.7848(6) 0.4039(5) 0.3482(4)
H18_2 H 0.761523 0.396381 0.333236
C46_2 C 0.7920(6) 0.3152(5) 0.3570(4)
H19_2 H 0.775280 0.311006 0.335593
C47_2 C 0.7392(6) 0.5002(5) 0.2495(4)
H20_2 H 0.755733 0.472355 0.259019
C48_2 C 0.8273(7) 0.3693(5) 0.4002(5)
H21_2 H 0.834985 0.401537 0.408520
C49_2 C 0.9379(7) 0.5896(6) 0.4190(4)
H22_2 H 0.950028 0.561113 0.430718
C50_2 C 0.7446(7) 0.5479(5) 0.2650(4)
C51_2 C 0.8858(6) 0.6266(6) 0.3751(5)
H23_2 H 0.862290 0.623448 0.356987
N12_2 N 0.8799(7) 0.5351(5) 0.3884(4)
H24_2 H 0.892331 0.512187 0.401990
C52_2 C 0.7923(7) 0.5264(6) 0.3195(5)
C53_2 C 0.9000(7) 0.5846(5) 0.3938(5)
C54_2 C 0.8445(8) 0.5183(7) 0.3655(5)
Cu8_2 Cu 0.94385(8) 0.29909(8) 0.500000
O25_3 O 0.8796(4) 0.3766(3) 0.5371(2)
O27_2 O 0.7274(4) 0.2803(3) 0.1690(3)
O29_2 O 0.8570(4) 0.8787(3) 0.3245(3)
O31_2 O 0.9421(3) 0.8201(4) 0.3249(2)
O35_3 O 0.9810(4) 0.3971(3) 0.5352(3)
O38_2 O 0.7894(3) 0.3626(4) 0.1652(3)
O25_4 O 0.1204(4) 0.6234(3) 0.5371(2)
O35_4 O 0.0190(4) 0.6029(3) 0.5352(3)
O32_4 O 0.8933(4) 0.2944(3) 0.5358(3)
O40_4 O 0.9940(4) 0.3139(4) 0.5357(3)
Cu2_3 Cu 0.20091(8) 0.44385(8) 0.000000
Cu7_3 Cu 0.10854(8) 0.42864(9) 0.000000
O32_5 O 0.2056(3) 0.3933(4) 0.0358(3)
O40_5 O 0.1861(4) 0.4940(4) 0.0357(3)
Cu2_4 Cu 0.20091(8) 0.44385(8) 1.000000
Cu3_2 Cu 0.15694(6) 0.23230(6) 0.69433(4)
O1_3 O 0.1234(3) 0.3796(4) 0.9629(2)
O2_3 O 0.2803(3) 0.2726(4) 0.8310(3)
O4_3 O 0.0913(3) 0.2316(4) 0.7162(2)
O5_3 O 0.0579(3) 0.1799(4) 0.6751(2)
O6_3 O 0.2056(3) 0.3933(4) 0.9642(3)
O10_2 O 0.3151(3) 0.3199(4) 0.8741(2)
C4_3 C 0.1674(5) 0.3751(5) 0.9510(4)
C6_3 C 0.1730(5) 0.3427(5) 0.9188(4)
C7_3 C 0.2207(5) 0.3339(5) 0.9057(4)
H2_3 H 0.248887 0.345991 0.917684
C9_3 C 0.0561(5) 0.2069(6) 0.7024(4)
C10_3 C 0.2788(5) 0.2996(6) 0.8589(4)
N2_3 N 0.0215(5) 0.2791(6) 0.8206(4)
N3_3 N 0.0314(5) 0.3332(6) 0.8701(4)
C13_3 C 0.0051(5) 0.2096(5) 0.7205(4)
C14_3 C 0.2268(5) 0.3074(6) 0.8749(4)
C16_3 C 0.0466(6) 0.3001(7) 0.8471(5)
C17_3 C 0.1366(5) 0.3004(7) 0.8693(5)
N5_3 N 0.0961(5) 0.2848(6) 0.8482(4)
H6_3 H 0.103619 0.261523 0.833236
C19_3 C 0.1848(5) 0.2920(6) 0.8570(4)
H7_3 H 0.188994 0.275280 0.835593
H8_3 H 0.027645 0.255733 0.759019
C21_3 C 0.1307(5) 0.3273(7) 0.9002(5)
H9_3 H 0.098463 0.334985 0.908520
Cu6_2 Cu 0.32231(6) 0.61947(6) 0.85179(4)
O15_3 O 0.1213(3) 0.8570(4) 0.6755(3)
O19_3 O 0.2605(3) 0.6008(3) 0.8746(3)
O20_2 O 0.1706(3) 0.8256(3) 0.7184(2)
O21_3 O 0.1029(3) 0.4810(4) 0.9648(3)
O23_3 O 0.2106(3) 0.6374(4) 0.8348(3)
O24_3 O 0.1861(4) 0.4940(4) 0.9643(3)
C28_3 C 0.2186(4) 0.6117(4) 0.8624(4)
C29_3 C 0.1282(4) 0.8329(4) 0.7041(4)
C30_3 C 0.1400(6) 0.5013(6) 0.9538(4)
C32_3 C 0.1781(5) 0.5580(5) 0.9081(4)
H13_3 H 0.209637 0.543871 0.912842
C35_3 C 0.0356(5) 0.8136(5) 0.7055(4)
H15_3 H 0.031484 0.832590 0.685030
N7_3 N 0.0575(4) 0.7252(6) 0.7948(4)
H16_3 H 0.088698 0.716643 0.797413
C38_3 C 0.0826(5) 0.8091(5) 0.7204(4)
C39_3 C 0.1731(5) 0.5944(5) 0.8826(4)
C42_3 C 0.1365(6) 0.5425(6) 0.9266(4)
N10_3 N 0.0485(5) 0.6736(6) 0.8417(4)
C45_3 C 0.0890(6) 0.7799(7) 0.7500(5)
H17_3 H 0.120950 0.776525 0.760076
C47_3 C 0.0002(5) 0.7608(6) 0.7495(4)
C49_3 C 0.0896(6) 0.5621(7) 0.9190(4)
H22_3 H 0.061113 0.549972 0.930718
C50_3 C 0.0479(5) 0.7554(7) 0.7650(4)
C51_3 C 0.1266(6) 0.6142(6) 0.8751(5)
H23_3 H 0.123448 0.637710 0.856987
N12_3 N 0.0351(5) 0.6201(7) 0.8884(4)
H24_3 H 0.012187 0.607669 0.901990
C52_3 C 0.0264(6) 0.7077(7) 0.8195(5)
C53_3 C 0.0846(5) 0.6000(7) 0.8938(5)
C54_3 C 0.0183(7) 0.6555(8) 0.8655(5)
Cu7_4 Cu 0.10854(8) 0.42864(9) 1.000000
Cu10_2 Cu 0.23230(6) 0.84306(6) 0.69433(4)
Cu11_2 Cu 0.34306(6) 0.26770(6) 0.80567(4)
Cu14_2 Cu 0.26770(6) 0.65694(6) 0.80567(4)
Cu16_2 Cu 0.38053(6) 0.32231(6) 0.85179(4)
Cu18_2 Cu 0.17769(6) 0.88053(6) 0.64821(4)
Cu20_2 Cu 0.11947(6) 0.17769(6) 0.64821(4)
O26_3 O 0.2197(3) 0.2274(4) 0.6690(3)
O29_3 O 0.3787(3) 0.6430(4) 0.8245(3)
O31_3 O 0.3201(4) 0.5579(3) 0.8249(2)
O34_2 O 0.1744(3) 0.1706(3) 0.7184(2)
O37_2 O 0.3199(4) 0.6849(3) 0.8741(2)
O39_3 O 0.1374(4) 0.2894(3) 0.6652(3)
Cu1_3 Cu 0.89146(8) 0.57136(9) 0.000000
Cu8_3 Cu 0.79909(8) 0.55615(8) 0.000000
O25_5 O 0.8766(3) 0.6204(4) 0.0371(2)
O35_5 O 0.8971(3) 0.5190(4) 0.0352(3)
Cu1_4 Cu 0.89146(8) 0.57136(9) 1.000000
Cu4_2 Cu 0.67769(6) 0.38053(6) 0.85179(4)
O3_3 O 0.8787(3) 0.1430(4) 0.6755(3)
O7_3 O 0.7395(3) 0.3992(3) 0.8746(3)
O8_2 O 0.8294(3) 0.1744(3) 0.7184(2)
O9_3 O 0.8971(3) 0.5190(4) 0.9648(3)
O11_3 O 0.7894(3) 0.3626(4) 0.8348(3)
O12_3 O 0.8139(4) 0.5060(4) 0.9643(3)
C1_3 C 0.7814(4) 0.3883(4) 0.8624(4)
C2_3 C 0.8718(4) 0.1671(4) 0.7041(4)
C3_3 C 0.8600(6) 0.4987(6) 0.9538(4)
C5_3 C 0.8219(5) 0.4420(5) 0.9081(4)
H1_3 H 0.790363 0.456129 0.912842
C8_3 C 0.9644(5) 0.1864(5) 0.7055(4)
H3_3 H 0.968516 0.167410 0.685030
N1_3 N 0.9425(4) 0.2748(6) 0.7948(4)
H4_3 H 0.911302 0.283357 0.797413
C11_3 C 0.9174(5) 0.1909(5) 0.7204(4)
C12_3 C 0.8269(5) 0.4056(5) 0.8826(4)
C15_3 C 0.8635(6) 0.4575(6) 0.9266(4)
N4_3 N 0.9515(5) 0.3264(6) 0.8417(4)
C18_3 C 0.9110(6) 0.2201(7) 0.7500(5)
H5_3 H 0.879050 0.223475 0.760076
C20_3 C 0.9998(5) 0.2392(6) 0.7495(4)
C22_3 C 0.9104(6) 0.4379(7) 0.9190(4)
H10_3 H 0.938887 0.450028 0.930718
C23_3 C 0.9521(5) 0.2446(7) 0.7650(4)
C24_3 C 0.8734(6) 0.3858(6) 0.8751(5)
H11_3 H 0.876552 0.362290 0.856987
N6_3 N 0.9649(5) 0.3799(7) 0.8884(4)
H12_3 H 0.987813 0.392331 0.901990
C25_3 C 0.9736(6) 0.2923(7) 0.8195(5)
C26_3 C 0.9154(5) 0.4000(7) 0.8938(5)
C27_3 C 0.9817(7) 0.3445(8) 0.8655(5)
Cu5_2 Cu 0.84306(6) 0.76770(6) 0.69433(4)
O13_3 O 0.8766(3) 0.6204(4) 0.9629(2)
O14_3 O 0.7197(3) 0.7274(4) 0.8310(3)
O16_3 O 0.9087(3) 0.7684(4) 0.7162(2)
O17_3 O 0.9421(3) 0.8201(4) 0.6751(2)
O18_3 O 0.7944(3) 0.6067(4) 0.9642(3)
O22_2 O 0.6849(3) 0.6801(4) 0.8741(2)
C31_3 C 0.8326(5) 0.6249(5) 0.9510(4)
C33_3 C 0.8270(5) 0.6573(5) 0.9188(4)
C34_3 C 0.7793(5) 0.6661(5) 0.9057(4)
H14_3 H 0.751113 0.654009 0.917684
C36_3 C 0.9439(5) 0.7931(6) 0.7024(4)
C37_3 C 0.7212(5) 0.7004(6) 0.8589(4)
N8_3 N 0.9785(5) 0.7209(6) 0.8206(4)
N9_3 N 0.9686(5) 0.6668(6) 0.8701(4)
C40_3 C 0.9949(5) 0.7904(5) 0.7205(4)
C41_3 C 0.7732(5) 0.6926(6) 0.8749(4)
C43_3 C 0.9534(6) 0.6999(7) 0.8471(5)
C44_3 C 0.8634(5) 0.6996(7) 0.8693(5)
N11_3 N 0.9039(5) 0.7152(6) 0.8482(4)
H18_3 H 0.896381 0.738477 0.833236
C46_3 C 0.8152(5) 0.7080(6) 0.8570(4)
H19_3 H 0.811006 0.724720 0.835593
H20_3 H 0.972355 0.744267 0.759019
C48_3 C 0.8693(5) 0.6727(7) 0.9002(5)
H21_3 H 0.901537 0.665015 0.908520
Cu8_4 Cu 0.79909(8) 0.55615(8) 1.000000
Cu9_2 Cu 0.76770(6) 0.15694(6) 0.69433(4)
Cu12_2 Cu 0.65694(6) 0.73230(6) 0.80567(4)
Cu13_2 Cu 0.73230(6) 0.34306(6) 0.80567(4)
Cu15_2 Cu 0.61947(6) 0.67769(6) 0.85179(4)
Cu17_2 Cu 0.82231(6) 0.11947(6) 0.64821(4)
Cu19_2 Cu 0.88053(6) 0.82231(6) 0.64821(4)
O27_3 O 0.7803(3) 0.7726(4) 0.6690(3)
O28_3 O 0.6213(3) 0.3570(4) 0.8245(3)
O30_3 O 0.6799(4) 0.4421(3) 0.8249(2)
O33_2 O 0.8256(3) 0.8294(3) 0.7184(2)
O36_2 O 0.6801(4) 0.3151(3) 0.8741(2)
O38_3 O 0.8626(4) 0.7106(3) 0.6652(3)
O25_6 O 0.1234(3) 0.3796(4) 0.0371(2)
O35_6 O 0.1029(3) 0.4810(4) 0.0352(3)
O32_6 O 0.7944(3) 0.6067(4) 0.0358(3)
O40_6 O 0.8139(4) 0.5060(4) 0.0357(3)
Cu2_5 Cu 0.55615(8) 0.20091(8) 0.000000
Cu7_5 Cu 0.57136(9) 0.10854(8) 0.000000
O32_7 O 0.6067(4) 0.2056(3) 0.0358(3)
O40_7 O 0.5060(4) 0.1861(4) 0.0357(3)
Cu2_6 Cu 0.55615(8) 0.20091(8) 1.000000
O1_4 O 0.6204(4) 0.1234(3) 0.9629(2)
O2_4 O 0.7274(4) 0.2803(3) 0.8310(3)
O4_4 O 0.7684(4) 0.0913(3) 0.7162(2)
O5_4 O 0.8201(4) 0.0579(3) 0.6751(2)
O6_4 O 0.6067(4) 0.2056(3) 0.9642(3)
C4_4 C 0.6249(5) 0.1674(5) 0.9510(4)
C6_4 C 0.6573(5) 0.1730(5) 0.9188(4)
C7_4 C 0.6661(5) 0.2207(5) 0.9057(4)
H2_4 H 0.654009 0.248887 0.917684
C9_4 C 0.7931(6) 0.0561(5) 0.7024(4)
C10_4 C 0.7004(6) 0.2788(5) 0.8589(4)
N2_4 N 0.7209(6) 0.0215(5) 0.8206(4)
N3_4 N 0.6668(6) 0.0314(5) 0.8701(4)
C13_4 C 0.7904(5) 0.0051(5) 0.7205(4)
C14_4 C 0.6926(6) 0.2268(5) 0.8749(4)
C16_4 C 0.6999(7) 0.0466(6) 0.8471(5)
C17_4 C 0.6996(7) 0.1366(5) 0.8693(5)
N5_4 N 0.7152(6) 0.0961(5) 0.8482(4)
H6_4 H 0.738477 0.103619 0.833236
C19_4 C 0.7080(6) 0.1848(5) 0.8570(4)
H7_4 H 0.724720 0.188994 0.835593
H8_4 H 0.744267 0.027645 0.759019
C21_4 C 0.6727(7) 0.1307(5) 0.9002(5)
H9_4 H 0.665015 0.098463 0.908520
O15_4 O 0.1430(4) 0.1213(3) 0.6755(3)
O19_4 O 0.3992(3) 0.2605(3) 0.8746(3)
O21_4 O 0.5190(4) 0.1029(3) 0.9648(3)
O23_4 O 0.3626(4) 0.2106(3) 0.8348(3)
O24_4 O 0.5060(4) 0.1861(4) 0.9643(3)
C28_4 C 0.3883(4) 0.2186(4) 0.8624(4)
C29_4 C 0.1671(4) 0.1282(4) 0.7041(4)
C30_4 C 0.4987(6) 0.1400(6) 0.9538(4)
C32_4 C 0.4420(5) 0.1781(5) 0.9081(4)
H13_4 H 0.456129 0.209637 0.912842
C35_4 C 0.1864(5) 0.0356(5) 0.7055(4)
H15_4 H 0.167410 0.031484 0.685030
N7_4 N 0.2748(6) 0.0575(4) 0.7948(4)
H16_4 H 0.283357 0.088698 0.797413
C38_4 C 0.1909(5) 0.0826(5) 0.7204(4)
C39_4 C 0.4056(5) 0.1731(5) 0.8826(4)
C42_4 C 0.4575(6) 0.1365(6) 0.9266(4)
N10_4 N 0.3264(6) 0.0485(5) 0.8417(4)
C45_4 C 0.2201(7) 0.0890(6) 0.7500(5)
H17_4 H 0.223475 0.120950 0.760076
C47_4 C 0.2392(6) 0.0002(5) 0.7495(4)
C49_4 C 0.4379(7) 0.0896(6) 0.9190(4)
H22_4 H 0.450028 0.061113 0.930718
C50_4 C 0.2446(7) 0.0479(5) 0.7650(4)
C51_4 C 0.3858(6) 0.1266(6) 0.8751(5)
H23_4 H 0.362290 0.123448 0.856987
N12_4 N 0.3799(7) 0.0351(5) 0.8884(4)
H24_4 H 0.392331 0.012187 0.901990
C52_4 C 0.2923(7) 0.0264(6) 0.8195(5)
C53_4 C 0.4000(7) 0.0846(5) 0.8938(5)
C54_4 C 0.3445(8) 0.0183(7) 0.8655(5)
Cu7_6 Cu 0.57136(9) 0.10854(8) 1.000000
O26_4 O 0.7726(4) 0.2197(3) 0.6690(3)
O29_4 O 0.3570(4) 0.3787(3) 0.8245(3)
O31_4 O 0.4421(3) 0.3201(4) 0.8249(2)
O39_4 O 0.7106(3) 0.1374(4) 0.6652(3)
Cu1_5 Cu 0.42864(9) 0.89146(8) 0.000000
Cu8_5 Cu 0.44385(8) 0.79909(8) 0.000000
O25_7 O 0.3796(4) 0.8766(3) 0.0371(2)
O35_7 O 0.4810(4) 0.8971(3) 0.0352(3)
Cu1_6 Cu 0.42864(9) 0.89146(8) 1.000000
O3_4 O 0.8570(4) 0.8787(3) 0.6755(3)
O7_4 O 0.6008(3) 0.7395(3) 0.8746(3)
O9_4 O 0.4810(4) 0.8971(3) 0.9648(3)
O11_4 O 0.6374(4) 0.7894(3) 0.8348(3)
O12_4 O 0.4940(4) 0.8139(4) 0.9643(3)
C1_4 C 0.6117(4) 0.7814(4) 0.8624(4)
C2_4 C 0.8329(4) 0.8718(4) 0.7041(4)
C3_4 C 0.5013(6) 0.8600(6) 0.9538(4)
C5_4 C 0.5580(5) 0.8219(5) 0.9081(4)
H1_4 H 0.543871 0.790363 0.912842
C8_4 C 0.8136(5) 0.9644(5) 0.7055(4)
H3_4 H 0.832590 0.968516 0.685030
N1_4 N 0.7252(6) 0.9425(4) 0.7948(4)
H4_4 H 0.716643 0.911302 0.797413
C11_4 C 0.8091(5) 0.9174(5) 0.7204(4)
C12_4 C 0.5944(5) 0.8269(5) 0.8826(4)
C15_4 C 0.5425(6) 0.8635(6) 0.9266(4)
N4_4 N 0.6736(6) 0.9515(5) 0.8417(4)
C18_4 C 0.7799(7) 0.9110(6) 0.7500(5)
H5_4 H 0.776525 0.879050 0.760076
C20_4 C 0.7608(6) 0.9998(5) 0.7495(4)
C22_4 C 0.5621(7) 0.9104(6) 0.9190(4)
H10_4 H 0.549972 0.938887 0.930718
C23_4 C 0.7554(7) 0.9521(5) 0.7650(4)
C24_4 C 0.6142(6) 0.8734(6) 0.8751(5)
H11_4 H 0.637710 0.876552 0.856987
N6_4 N 0.6201(7) 0.9649(5) 0.8884(4)
H12_4 H 0.607669 0.987813 0.901990
C25_4 C 0.7077(7) 0.9736(6) 0.8195(5)
C26_4 C 0.6000(7) 0.9154(5) 0.8938(5)
C27_4 C 0.6555(8) 0.9817(7) 0.8655(5)
O13_4 O 0.3796(4) 0.8766(3) 0.9629(2)
O14_4 O 0.2726(4) 0.7197(3) 0.8310(3)
O16_4 O 0.2316(4) 0.9087(3) 0.7162(2)
O17_4 O 0.1799(4) 0.9421(3) 0.6751(2)
O18_4 O 0.3933(4) 0.7944(3) 0.9642(3)
C31_4 C 0.3751(5) 0.8326(5) 0.9510(4)
C33_4 C 0.3427(5) 0.8270(5) 0.9188(4)
C34_4 C 0.3339(5) 0.7793(5) 0.9057(4)
H14_4 H 0.345991 0.751113 0.917684
C36_4 C 0.2069(6) 0.9439(5) 0.7024(4)
C37_4 C 0.2996(6) 0.7212(5) 0.8589(4)
N8_4 N 0.2791(6) 0.9785(5) 0.8206(4)
N9_4 N 0.3332(6) 0.9686(5) 0.8701(4)
C40_4 C 0.2096(5) 0.9949(5) 0.7205(4)
C41_4 C 0.3074(6) 0.7732(5) 0.8749(4)
C43_4 C 0.3001(7) 0.9534(6) 0.8471(5)
C44_4 C 0.3004(7) 0.8634(5) 0.8693(5)
N11_4 N 0.2848(6) 0.9039(5) 0.8482(4)
H18_4 H 0.261523 0.896381 0.833236
C46_4 C 0.2920(6) 0.8152(5) 0.8570(4)
H19_4 H 0.275280 0.811006 0.835593
H20_4 H 0.255733 0.972355 0.759019
C48_4 C 0.3273(7) 0.8693(5) 0.9002(5)
H21_4 H 0.334985 0.901537 0.908520
Cu8_6 Cu 0.44385(8) 0.79909(8) 1.000000
O27_4 O 0.2274(4) 0.7803(3) 0.6690(3)
O28_4 O 0.6430(4) 0.6213(3) 0.8245(3)
O30_4 O 0.5579(3) 0.6799(4) 0.8249(2)
O38_4 O 0.2894(3) 0.8626(4) 0.6652(3)
O25_8 O 0.6204(4) 0.1234(3) 0.0371(2)
O35_8 O 0.5190(4) 0.1029(3) 0.0352(3)
O32_8 O 0.3933(4) 0.7944(3) 0.0358(3)
O40_8 O 0.4940(4) 0.8139(4) 0.0357(3)
O4_5 O 0.4087(3) 0.2684(4) 0.7838(2)
O7_5 O 0.7605(3) 0.1008(3) 0.6254(3)
O8_3 O 0.6706(3) 0.3256(3) 0.7816(2)
O10_3 O 0.1849(3) 0.1801(4) 0.6259(2)
C1_5 C 0.7186(4) 0.1117(4) 0.6376(4)
C2_5 C 0.6282(4) 0.3329(4) 0.7959(4)
C3_5 C 0.6400(6) 0.0013(6) 0.5462(4)
C4_5 C 0.3326(5) 0.1249(5) 0.5490(4)
C5_5 C 0.6781(5) 0.0580(5) 0.5919(4)
H1_5 H 0.709637 0.043871 0.587158
C6_5 C 0.3270(5) 0.1573(5) 0.5812(4)
C7_5 C 0.2793(5) 0.1661(5) 0.5943(4)
H2_5 H 0.251113 0.154009 0.582316
C8_5 C 0.5356(5) 0.3136(5) 0.7945(4)
H3_5 H 0.531484 0.332590 0.814970
C9_5 C 0.4439(5) 0.2931(6) 0.7976(4)
C10_5 C 0.2212(5) 0.2004(6) 0.6411(4)
N1_5 N 0.5575(4) 0.2252(6) 0.7052(4)
H4_5 H 0.588698 0.216643 0.702587
C11_5 C 0.5826(5) 0.3091(5) 0.7796(4)
C12_5 C 0.6731(5) 0.0944(5) 0.6174(4)
N2_5 N 0.4785(5) 0.2209(6) 0.6794(4)
N3_5 N 0.4686(5) 0.1668(6) 0.6299(4)
C13_5 C 0.4949(5) 0.2904(5) 0.7795(4)
C14_5 C 0.2732(5) 0.1926(6) 0.6251(4)
C15_5 C 0.6365(6) 0.0425(6) 0.5734(4)
N4_5 N 0.5485(5) 0.1736(6) 0.6583(4)
C16_5 C 0.4534(6) 0.1999(7) 0.6529(5)
C17_5 C 0.3634(5) 0.1996(7) 0.6307(5)
C18_5 C 0.5890(6) 0.2799(7) 0.7500(5)
H5_5 H 0.620950 0.276525 0.739924
N5_5 N 0.4039(5) 0.2152(6) 0.6518(4)
H6_5 H 0.396381 0.238477 0.666764
C19_5 C 0.3152(5) 0.2080(6) 0.6430(4)
H7_5 H 0.311006 0.224720 0.664407
C20_5 C 0.5002(5) 0.2608(6) 0.7505(4)
H8_5 H 0.472355 0.244267 0.740981
C21_5 C 0.3693(5) 0.1727(7) 0.5998(5)
H9_5 H 0.401537 0.165015 0.591480
C22_5 C 0.5896(6) 0.0621(7) 0.5810(4)
H10_5 H 0.561113 0.049972 0.569282
C23_5 C 0.5479(5) 0.2554(7) 0.7350(4)
C24_5 C 0.6266(6) 0.1142(6) 0.6249(5)
H11_5 H 0.623448 0.137710 0.643013
N6_5 N 0.5351(5) 0.1201(7) 0.6116(4)
H12_5 H 0.512187 0.107669 0.598010
C25_5 C 0.5264(6) 0.2077(7) 0.6805(5)
C26_5 C 0.5846(5) 0.1000(7) 0.6062(5)
C27_5 C 0.5183(7) 0.1555(8) 0.6345(5)
O34_3 O 0.3256(3) 0.3294(3) 0.7816(2)
O36_3 O 0.8199(4) 0.1849(3) 0.6259(2)
O16_5 O 0.5913(3) 0.7316(4) 0.7838(2)
O19_5 O 0.2395(3) 0.8992(3) 0.6254(3)
O20_3 O 0.3294(3) 0.6744(3) 0.7816(2)
O22_3 O 0.8151(3) 0.8199(4) 0.6259(2)
C28_5 C 0.2814(4) 0.8883(4) 0.6376(4)
C29_5 C 0.3718(4) 0.6671(4) 0.7959(4)
C30_5 C 0.3600(6) 0.9987(6) 0.5462(4)
C31_5 C 0.6674(5) 0.8751(5) 0.5490(4)
C32_5 C 0.3219(5) 0.9420(5) 0.5919(4)
H13_5 H 0.290363 0.956129 0.587158
C33_5 C 0.6730(5) 0.8427(5) 0.5812(4)
C34_5 C 0.7207(5) 0.8339(5) 0.5943(4)
H14_5 H 0.748887 0.845991 0.582316
C35_5 C 0.4644(5) 0.6864(5) 0.7945(4)
H15_5 H 0.468516 0.667410 0.814970
C36_5 C 0.5561(5) 0.7069(6) 0.7976(4)
C37_5 C 0.7788(5) 0.7996(6) 0.6411(4)
N7_5 N 0.4425(4) 0.7748(6) 0.7052(4)
H16_5 H 0.411302 0.783357 0.702587
C38_5 C 0.4174(5) 0.6909(5) 0.7796(4)
C39_5 C 0.3269(5) 0.9056(5) 0.6174(4)
N8_5 N 0.5215(5) 0.7791(6) 0.6794(4)
N9_5 N 0.5314(5) 0.8332(6) 0.6299(4)
C40_5 C 0.5051(5) 0.7096(5) 0.7795(4)
C41_5 C 0.7268(5) 0.8074(6) 0.6251(4)
C42_5 C 0.3635(6) 0.9575(6) 0.5734(4)
N10_5 N 0.4515(5) 0.8264(6) 0.6583(4)
C43_5 C 0.5466(6) 0.8001(7) 0.6529(5)
C44_5 C 0.6366(5) 0.8004(7) 0.6307(5)
C45_5 C 0.4110(6) 0.7201(7) 0.7500(5)
H17_5 H 0.379050 0.723475 0.739924
N11_5 N 0.5961(5) 0.7848(6) 0.6518(4)
H18_5 H 0.603619 0.761523 0.666764
C46_5 C 0.6848(5) 0.7920(6) 0.6430(4)
H19_5 H 0.688994 0.775280 0.664407
C47_5 C 0.4998(5) 0.7392(6) 0.7505(4)
H20_5 H 0.527645 0.755733 0.740981
C48_5 C 0.6307(5) 0.8273(7) 0.5998(5)
H21_5 H 0.598463 0.834985 0.591480
C49_5 C 0.4104(6) 0.9379(7) 0.5810(4)
H22_5 H 0.438887 0.950028 0.569282
C50_5 C 0.4521(5) 0.7446(7) 0.7350(4)
C51_5 C 0.3734(6) 0.8858(6) 0.6249(5)
H23_5 H 0.376552 0.862290 0.643013
N12_5 N 0.4649(5) 0.8799(7) 0.6116(4)
H24_5 H 0.487813 0.892331 0.598010
C52_5 C 0.4736(6) 0.7923(7) 0.6805(5)
C53_5 C 0.4154(5) 0.9000(7) 0.6062(5)
C54_5 C 0.4817(7) 0.8445(8) 0.6345(5)
O33_3 O 0.6744(3) 0.6706(3) 0.7816(2)
O37_3 O 0.1801(4) 0.8151(3) 0.6259(2)
O16_6 O 0.2684(4) 0.5913(3) 0.7838(2)
O19_6 O 0.1008(3) 0.2395(3) 0.6254(3)
C28_6 C 0.1117(4) 0.2814(4) 0.6376(4)
C29_6 C 0.3329(4) 0.3718(4) 0.7959(4)
C30_6 C 0.0013(6) 0.3600(6) 0.5462(4)
C31_6 C 0.1249(5) 0.6674(5) 0.5490(4)
C32_6 C 0.0580(5) 0.3219(5) 0.5919(4)
H13_6 H 0.043871 0.290363 0.587158
C33_6 C 0.1573(5) 0.6730(5) 0.5812(4)
C34_6 C 0.1661(5) 0.7207(5) 0.5943(4)
H14_6 H 0.154009 0.748887 0.582316
C35_6 C 0.3136(5) 0.4644(5) 0.7945(4)
H15_6 H 0.332590 0.468516 0.814970
C36_6 C 0.2931(6) 0.5561(5) 0.7976(4)
C37_6 C 0.2004(6) 0.7788(5) 0.6411(4)
N7_6 N 0.2252(6) 0.4425(4) 0.7052(4)
H16_6 H 0.216643 0.411302 0.702587
C38_6 C 0.3091(5) 0.4174(5) 0.7796(4)
C39_6 C 0.0944(5) 0.3269(5) 0.6174(4)
N8_6 N 0.2209(6) 0.5215(5) 0.6794(4)
N9_6 N 0.1668(6) 0.5314(5) 0.6299(4)
C40_6 C 0.2904(5) 0.5051(5) 0.7795(4)
C41_6 C 0.1926(6) 0.7268(5) 0.6251(4)
C42_6 C 0.0425(6) 0.3635(6) 0.5734(4)
N10_6 N 0.1736(6) 0.4515(5) 0.6583(4)
C43_6 C 0.1999(7) 0.5466(6) 0.6529(5)
C44_6 C 0.1996(7) 0.6366(5) 0.6307(5)
C45_6 C 0.2799(7) 0.4110(6) 0.7500(5)
H17_6 H 0.276525 0.379050 0.739924
N11_6 N 0.2152(6) 0.5961(5) 0.6518(4)
H18_6 H 0.238477 0.603619 0.666764
C46_6 C 0.2080(6) 0.6848(5) 0.6430(4)
H19_6 H 0.224720 0.688994 0.664407
C47_6 C 0.2608(6) 0.4998(5) 0.7505(4)
H20_6 H 0.244267 0.527645 0.740981
C48_6 C 0.1727(7) 0.6307(5) 0.5998(5)
H21_6 H 0.165015 0.598463 0.591480
C49_6 C 0.0621(7) 0.4104(6) 0.5810(4)
H22_6 H 0.049972 0.438887 0.569282
C50_6 C 0.2554(7) 0.4521(5) 0.7350(4)
C51_6 C 0.1142(6) 0.3734(6) 0.6249(5)
H23_6 H 0.137710 0.376552 0.643013
N12_6 N 0.1201(7) 0.4649(5) 0.6116(4)
H24_6 H 0.107669 0.487813 0.598010
C52_6 C 0.2077(7) 0.4736(6) 0.6805(5)
C53_6 C 0.1000(7) 0.4154(5) 0.6062(5)
C54_6 C 0.1555(8) 0.4817(7) 0.6345(5)
O4_6 O 0.7316(4) 0.4087(3) 0.7838(2)
O7_6 O 0.8992(3) 0.7605(3) 0.6254(3)
C1_6 C 0.8883(4) 0.7186(4) 0.6376(4)
C2_6 C 0.6671(4) 0.6282(4) 0.7959(4)
C3_6 C 0.9987(6) 0.6400(6) 0.5462(4)
C4_6 C 0.8751(5) 0.3326(5) 0.5490(4)
C5_6 C 0.9420(5) 0.6781(5) 0.5919(4)
H1_6 H 0.956129 0.709637 0.587158
C6_6 C 0.8427(5) 0.3270(5) 0.5812(4)
C7_6 C 0.8339(5) 0.2793(5) 0.5943(4)
H2_6 H 0.845991 0.251113 0.582316
C8_6 C 0.6864(5) 0.5356(5) 0.7945(4)
H3_6 H 0.667410 0.531484 0.814970
C9_6 C 0.7069(6) 0.4439(5) 0.7976(4)
C10_6 C 0.7996(6) 0.2212(5) 0.6411(4)
N1_6 N 0.7748(6) 0.5575(4) 0.7052(4)
H4_6 H 0.783357 0.588698 0.702587
C11_6 C 0.6909(5) 0.5826(5) 0.7796(4)
C12_6 C 0.9056(5) 0.6731(5) 0.6174(4)
N2_6 N 0.7791(6) 0.4785(5) 0.6794(4)
N3_6 N 0.8332(6) 0.4686(5) 0.6299(4)
C13_6 C 0.7096(5) 0.4949(5) 0.7795(4)
C14_6 C 0.8074(6) 0.2732(5) 0.6251(4)
C15_6 C 0.9575(6) 0.6365(6) 0.5734(4)
N4_6 N 0.8264(6) 0.5485(5) 0.6583(4)
C16_6 C 0.8001(7) 0.4534(6) 0.6529(5)
C17_6 C 0.8004(7) 0.3634(5) 0.6307(5)
C18_6 C 0.7201(7) 0.5890(6) 0.7500(5)
H5_6 H 0.723475 0.620950 0.739924
N5_6 N 0.7848(6) 0.4039(5) 0.6518(4)
H6_6 H 0.761523 0.396381 0.666764
C19_6 C 0.7920(6) 0.3152(5) 0.6430(4)
H7_6 H 0.775280 0.311006 0.664407
C20_6 C 0.7392(6) 0.5002(5) 0.7505(4)
H8_6 H 0.755733 0.472355 0.740981
C21_6 C 0.8273(7) 0.3693(5) 0.5998(5)
H9_6 H 0.834985 0.401537 0.591480
C22_6 C 0.9379(7) 0.5896(6) 0.5810(4)
H10_6 H 0.950028 0.561113 0.569282
C23_6 C 0.7446(7) 0.5479(5) 0.7350(4)
C24_6 C 0.8858(6) 0.6266(6) 0.6249(5)
H11_6 H 0.862290 0.623448 0.643013
N6_6 N 0.8799(7) 0.5351(5) 0.6116(4)
H12_6 H 0.892331 0.512187 0.598010
C25_6 C 0.7923(7) 0.5264(6) 0.6805(5)
C26_6 C 0.9000(7) 0.5846(5) 0.6062(5)
C27_6 C 0.8445(8) 0.5183(7) 0.6345(5)
O7_7 O 0.2605(3) 0.6008(3) 0.1254(3)
O8_4 O 0.1706(3) 0.8256(3) 0.2816(2)
C1_7 C 0.2186(4) 0.6117(4) 0.1376(4)
C2_7 C 0.1282(4) 0.8329(4) 0.2959(4)
C3_7 C 0.1400(6) 0.5013(6) 0.0462(4)
C5_7 C 0.1781(5) 0.5580(5) 0.0919(4)
H1_7 H 0.209637 0.543871 0.087158
C8_7 C 0.0356(5) 0.8136(5) 0.2945(4)
H3_7 H 0.031484 0.832590 0.314970
N1_7 N 0.0575(4) 0.7252(6) 0.2052(4)
H4_7 H 0.088698 0.716643 0.202587
C11_7 C 0.0826(5) 0.8091(5) 0.2796(4)
C12_7 C 0.1731(5) 0.5944(5) 0.1174(4)
C15_7 C 0.1365(6) 0.5425(6) 0.0734(4)
N4_7 N 0.0485(5) 0.6736(6) 0.1583(4)
C18_7 C 0.0890(6) 0.7799(7) 0.2500(5)
H5_7 H 0.120950 0.776525 0.239924
C20_7 C 0.0002(5) 0.7608(6) 0.2505(4)
C22_7 C 0.0896(6) 0.5621(7) 0.0810(4)
H10_7 H 0.061113 0.549972 0.069282
C23_7 C 0.0479(5) 0.7554(7) 0.2350(4)
C24_7 C 0.1266(6) 0.6142(6) 0.1249(5)
H11_7 H 0.123448 0.637710 0.143013
N6_7 N 0.0351(5) 0.6201(7) 0.1116(4)
H12_7 H 0.012187 0.607669 0.098010
C25_7 C 0.0264(6) 0.7077(7) 0.1805(5)
C26_7 C 0.0846(5) 0.6000(7) 0.1062(5)
C27_7 C 0.0183(7) 0.6555(8) 0.1345(5)
O16_7 O 0.0913(3) 0.2316(4) 0.2838(2)
O22_4 O 0.3151(3) 0.3199(4) 0.1259(2)
C31_7 C 0.1674(5) 0.3751(5) 0.0490(4)
C33_7 C 0.1730(5) 0.3427(5) 0.0812(4)
C34_7 C 0.2207(5) 0.3339(5) 0.0943(4)
H14_7 H 0.248887 0.345991 0.082316
C36_7 C 0.0561(5) 0.2069(6) 0.2976(4)
C37_7 C 0.2788(5) 0.2996(6) 0.1411(4)
N8_7 N 0.0215(5) 0.2791(6) 0.1794(4)
N9_7 N 0.0314(5) 0.3332(6) 0.1299(4)
C40_7 C 0.0051(5) 0.2096(5) 0.2795(4)
C41_7 C 0.2268(5) 0.3074(6) 0.1251(4)
C43_7 C 0.0466(6) 0.3001(7) 0.1529(5)
C44_7 C 0.1366(5) 0.3004(7) 0.1307(5)
N11_7 N 0.0961(5) 0.2848(6) 0.1518(4)
H18_7 H 0.103619 0.261523 0.166764
C46_7 C 0.1848(5) 0.2920(6) 0.1430(4)
H19_7 H 0.188994 0.275280 0.164407
H20_7 H 0.027645 0.255733 0.240981
C48_7 C 0.1307(5) 0.3273(7) 0.0998(5)
H21_7 H 0.098463 0.334985 0.091480
O33_4 O 0.1744(3) 0.1706(3) 0.2816(2)
O36_4 O 0.3199(4) 0.6849(3) 0.1259(2)
O4_7 O 0.9087(3) 0.7684(4) 0.2838(2)
O10_4 O 0.6849(3) 0.6801(4) 0.1259(2)
C4_7 C 0.8326(5) 0.6249(5) 0.0490(4)
C6_7 C 0.8270(5) 0.6573(5) 0.0812(4)
C7_7 C 0.7793(5) 0.6661(5) 0.0943(4)
H2_7 H 0.751113 0.654009 0.082316
C9_7 C 0.9439(5) 0.7931(6) 0.2976(4)
C10_7 C 0.7212(5) 0.7004(6) 0.1411(4)
N2_7 N 0.9785(5) 0.7209(6) 0.1794(4)
N3_7 N 0.9686(5) 0.6668(6) 0.1299(4)
C13_7 C 0.9949(5) 0.7904(5) 0.2795(4)
C14_7 C 0.7732(5) 0.6926(6) 0.1251(4)
C16_7 C 0.9534(6) 0.6999(7) 0.1529(5)
C17_7 C 0.8634(5) 0.6996(7) 0.1307(5)
N5_7 N 0.9039(5) 0.7152(6) 0.1518(4)
H6_7 H 0.896381 0.738477 0.166764
C19_7 C 0.8152(5) 0.7080(6) 0.1430(4)
H7_7 H 0.811006 0.724720 0.164407
H8_7 H 0.972355 0.744267 0.240981
C21_7 C 0.8693(5) 0.6727(7) 0.0998(5)
H9_7 H 0.901537 0.665015 0.091480
O19_7 O 0.7395(3) 0.3992(3) 0.1254(3)
O20_4 O 0.8294(3) 0.1744(3) 0.2816(2)
C28_7 C 0.7814(4) 0.3883(4) 0.1376(4)
C29_7 C 0.8718(4) 0.1671(4) 0.2959(4)
C30_7 C 0.8600(6) 0.4987(6) 0.0462(4)
C32_7 C 0.8219(5) 0.4420(5) 0.0919(4)
H13_7 H 0.790363 0.456129 0.087158
C35_7 C 0.9644(5) 0.1864(5) 0.2945(4)
H15_7 H 0.968516 0.167410 0.314970
N7_7 N 0.9425(4) 0.2748(6) 0.2052(4)
H16_7 H 0.911302 0.283357 0.202587
C38_7 C 0.9174(5) 0.1909(5) 0.2796(4)
C39_7 C 0.8269(5) 0.4056(5) 0.1174(4)
C42_7 C 0.8635(6) 0.4575(6) 0.0734(4)
N10_7 N 0.9515(5) 0.3264(6) 0.1583(4)
C45_7 C 0.9110(6) 0.2201(7) 0.2500(5)
H17_7 H 0.879050 0.223475 0.239924
C47_7 C 0.9998(5) 0.2392(6) 0.2505(4)
C49_7 C 0.9104(6) 0.4379(7) 0.0810(4)
H22_7 H 0.938887 0.450028 0.069282
C50_7 C 0.9521(5) 0.2446(7) 0.2350(4)
C51_7 C 0.8734(6) 0.3858(6) 0.1249(5)
H23_7 H 0.876552 0.362290 0.143013
N12_7 N 0.9649(5) 0.3799(7) 0.1116(4)
H24_7 H 0.987813 0.392331 0.098010
C52_7 C 0.9736(6) 0.2923(7) 0.1805(5)
C53_7 C 0.9154(5) 0.4000(7) 0.1062(5)
C54_7 C 0.9817(7) 0.3445(8) 0.1345(5)
O34_4 O 0.8256(3) 0.8294(3) 0.2816(2)
O37_4 O 0.6801(4) 0.3151(3) 0.1259(2)
O7_8 O 0.3992(3) 0.2605(3) 0.1254(3)
C1_8 C 0.3883(4) 0.2186(4) 0.1376(4)
C2_8 C 0.1671(4) 0.1282(4) 0.2959(4)
C3_8 C 0.4987(6) 0.1400(6) 0.0462(4)
C5_8 C 0.4420(5) 0.1781(5) 0.0919(4)
H1_8 H 0.456129 0.209637 0.087158
C8_8 C 0.1864(5) 0.0356(5) 0.2945(4)
H3_8 H 0.167410 0.031484 0.314970
N1_8 N 0.2748(6) 0.0575(4) 0.2052(4)
H4_8 H 0.283357 0.088698 0.202587
C11_8 C 0.1909(5) 0.0826(5) 0.2796(4)
C12_8 C 0.4056(5) 0.1731(5) 0.1174(4)
C15_8 C 0.4575(6) 0.1365(6) 0.0734(4)
N4_8 N 0.3264(6) 0.0485(5) 0.1583(4)
C18_8 C 0.2201(7) 0.0890(6) 0.2500(5)
H5_8 H 0.223475 0.120950 0.239924
C20_8 C 0.2392(6) 0.0002(5) 0.2505(4)
C22_8 C 0.4379(7) 0.0896(6) 0.0810(4)
H10_8 H 0.450028 0.061113 0.069282
C23_8 C 0.2446(7) 0.0479(5) 0.2350(4)
C24_8 C 0.3858(6) 0.1266(6) 0.1249(5)
H11_8 H 0.362290 0.123448 0.143013
N6_8 N 0.3799(7) 0.0351(5) 0.1116(4)
H12_8 H 0.392331 0.012187 0.098010
C25_8 C 0.2923(7) 0.0264(6) 0.1805(5)
C26_8 C 0.4000(7) 0.0846(5) 0.1062(5)
C27_8 C 0.3445(8) 0.0183(7) 0.1345(5)
O16_8 O 0.7684(4) 0.0913(3) 0.2838(2)
C31_8 C 0.6249(5) 0.1674(5) 0.0490(4)
C33_8 C 0.6573(5) 0.1730(5) 0.0812(4)
C34_8 C 0.6661(5) 0.2207(5) 0.0943(4)
H14_8 H 0.654009 0.248887 0.082316
C36_8 C 0.7931(6) 0.0561(5) 0.2976(4)
C37_8 C 0.7004(6) 0.2788(5) 0.1411(4)
N8_8 N 0.7209(6) 0.0215(5) 0.1794(4)
N9_8 N 0.6668(6) 0.0314(5) 0.1299(4)
C40_8 C 0.7904(5) 0.0051(5) 0.2795(4)
C41_8 C 0.6926(6) 0.2268(5) 0.1251(4)
C43_8 C 0.6999(7) 0.0466(6) 0.1529(5)
C44_8 C 0.6996(7) 0.1366(5) 0.1307(5)
N11_8 N 0.7152(6) 0.0961(5) 0.1518(4)
H18_8 H 0.738477 0.103619 0.166764
C46_8 C 0.7080(6) 0.1848(5) 0.1430(4)
H19_8 H 0.724720 0.188994 0.164407
H20_8 H 0.744267 0.027645 0.240981
C48_8 C 0.6727(7) 0.1307(5) 0.0998(5)
H21_8 H 0.665015 0.098463 0.091480
O4_8 O 0.2316(4) 0.9087(3) 0.2838(2)
C4_8 C 0.3751(5) 0.8326(5) 0.0490(4)
C6_8 C 0.3427(5) 0.8270(5) 0.0812(4)
C7_8 C 0.3339(5) 0.7793(5) 0.0943(4)
H2_8 H 0.345991 0.751113 0.082316
C9_8 C 0.2069(6) 0.9439(5) 0.2976(4)
C10_8 C 0.2996(6) 0.7212(5) 0.1411(4)
N2_8 N 0.2791(6) 0.9785(5) 0.1794(4)
N3_8 N 0.3332(6) 0.9686(5) 0.1299(4)
C13_8 C 0.2096(5) 0.9949(5) 0.2795(4)
C14_8 C 0.3074(6) 0.7732(5) 0.1251(4)
C16_8 C 0.3001(7) 0.9534(6) 0.1529(5)
C17_8 C 0.3004(7) 0.8634(5) 0.1307(5)
N5_8 N 0.2848(6) 0.9039(5) 0.1518(4)
H6_8 H 0.261523 0.896381 0.166764
C19_8 C 0.2920(6) 0.8152(5) 0.1430(4)
H7_8 H 0.275280 0.811006 0.164407
H8_8 H 0.255733 0.972355 0.240981
C21_8 C 0.3273(7) 0.8693(5) 0.0998(5)
H9_8 H 0.334985 0.901537 0.091480
O19_8 O 0.6008(3) 0.7395(3) 0.1254(3)
C28_8 C 0.6117(4) 0.7814(4) 0.1376(4)
C29_8 C 0.8329(4) 0.8718(4) 0.2959(4)
C30_8 C 0.5013(6) 0.8600(6) 0.0462(4)
C32_8 C 0.5580(5) 0.8219(5) 0.0919(4)
H13_8 H 0.543871 0.790363 0.087158
C35_8 C 0.8136(5) 0.9644(5) 0.2945(4)
H15_8 H 0.832590 0.968516 0.314970
N7_8 N 0.7252(6) 0.9425(4) 0.2052(4)
H16_8 H 0.716643 0.911302 0.202587
C38_8 C 0.8091(5) 0.9174(5) 0.2796(4)
C39_8 C 0.5944(5) 0.8269(5) 0.1174(4)
C42_8 C 0.5425(6) 0.8635(6) 0.0734(4)
N10_8 N 0.6736(6) 0.9515(5) 0.1583(4)
C45_8 C 0.7799(7) 0.9110(6) 0.2500(5)
H17_8 H 0.776525 0.879050 0.239924
C47_8 C 0.7608(6) 0.9998(5) 0.2505(4)
C49_8 C 0.5621(7) 0.9104(6) 0.0810(4)
H22_8 H 0.549972 0.938887 0.069282
C50_8 C 0.7554(7) 0.9521(5) 0.2350(4)
C51_8 C 0.6142(6) 0.8734(6) 0.1249(5)
H23_8 H 0.637710 0.876552 0.143013
N12_8 N 0.6201(7) 0.9649(5) 0.1116(4)
H24_8 H 0.607669 0.987813 0.098010
C52_8 C 0.7077(7) 0.9736(6) 0.1805(5)
C53_8 C 0.6000(7) 0.9154(5) 0.1062(5)
C54_8 C 0.6555(8) 0.9817(7) 0.1345(5)
loop_
_geom_bond_atom_site_label_1
_geom_bond_atom_site_label_2
_geom_bond_site_symmetry_1
_geom_bond_site_symmetry_2
Cu1 O9 1_555 1_555
Cu5 O16 1_555 1_555
Cu6 O19 1_555 1_555
O13 Cu1 1_555 1_555
O14 C37 1_555 1_555
O15 C29 1_555 1_555
O16 C36 1_555 1_555
O17 C36 1_555 1_555
O18 C31 1_555 1_555
O19 C28 1_555 1_555
O20 C29 1_555 1_555
O22 C37 1_555 1_555
O23 C28 1_555 1_555
C28 C39 1_555 1_555
C29 C38 1_555 1_555
C31 O13 1_555 1_555
C32 H13 1_555 1_555
C33 C31 1_555 1_555
C34 C33 1_555 1_555
H14 C34 1_555 1_555
C35 H15 1_555 1_555
C36 C40 1_555 1_555
C37 C41 1_555 1_555
N7 H16 1_555 1_555
C38 C35 1_555 1_555
C39 C32 1_555 1_555
N8 C43 1_555 1_555
N9 C43 1_555 1_555
C40 C35 1_555 1_555
C41 C34 1_555 1_555
C42 C30 1_555 1_555
N10 C52 1_555 1_555
C43 N11 1_555 1_555
C44 N11 1_555 1_555
C45 C38 1_555 1_555
H17 C45 1_555 1_555
N11 H18 1_555 1_555
C46 C41 1_555 1_555
H19 C46 1_555 1_555
C47 C40 1_555 1_555
H20 C47 1_555 1_555
C48 C33 1_555 1_555
H21 C48 1_555 1_555
C49 C42 1_555 1_555
H22 C49 1_555 1_555
C50 N7 1_555 1_555
C51 C39 1_555 1_555
H23 C51 1_555 1_555
N12 H24 1_555 1_555
C52 N7 1_555 1_555
C53 C49 1_555 1_555
C54 N9 1_555 1_555
Cu8 Cu1 1_555 1_555
Cu10 O20 1_555 1_555
Cu12 O14 1_555 1_555
Cu14 Cu6 1_555 1_555
Cu15 O22 1_555 1_555
Cu18 O15 1_555 1_555
Cu19 Cu5 1_555 1_555
O25 Cu1 1_555 1_555
O27 Cu5 1_555 1_555
O29 Cu6 1_555 1_555
O31 Cu6 1_555 1_555
O33 Cu5 1_555 1_555
O35 Cu1 1_555 1_555
O37 Cu6 1_555 1_555
O38 Cu5 1_555 1_555
O12 Cu8 1_555 1_555
O17 Cu19 1_555 1_555
O18 Cu8 1_555 1_555
O23 Cu14 1_555 1_555
C32 C42 1_555 1_555
N8 C52 1_555 1_555
N10 C54 1_555 1_555
C44 C46 1_555 1_555
C44 C48 1_555 1_555
C45 C50 1_555 1_555
C47 C50 1_555 1_555
C51 C53 1_555 1_555
N12 C53 1_555 1_555
N12 C54 1_555 1_555
Cu10 Cu18 1_555 1_555
Cu12 Cu15 1_555 1_555
Cu2 O6 1_555 1_555
Cu3 O4 1_555 1_555
Cu4 O7 1_555 1_555
O1 C4 1_555 1_555
O2 C10 1_555 1_555
O3 C2 1_555 1_555
O4 C9 1_555 1_555
O5 C9 1_555 1_555
O6 C4 1_555 1_555
O7 C1 1_555 1_555
O8 C2 1_555 1_555
O10 C10 1_555 1_555
O11 C1 1_555 1_555
C1 C12 1_555 1_555
C2 C11 1_555 1_555
C3 C15 1_555 1_555
C4 C6 1_555 1_555
C5 H1 1_555 1_555
C6 C7 1_555 1_555
C7 H2 1_555 1_555
C8 H3 1_555 1_555
C9 C13 1_555 1_555
C10 C14 1_555 1_555
N1 H4 1_555 1_555
C11 C8 1_555 1_555
C12 C5 1_555 1_555
N2 C16 1_555 1_555
N3 C16 1_555 1_555
C13 C8 1_555 1_555
C14 C7 1_555 1_555
C15 C5 1_555 1_555
N4 C25 1_555 1_555
C16 N5 1_555 1_555
C17 N5 1_555 1_555
C18 C11 1_555 1_555
H5 C18 1_555 1_555
N5 H6 1_555 1_555
C19 C14 1_555 1_555
H7 C19 1_555 1_555
C20 C13 1_555 1_555
H8 C20 1_555 1_555
C21 C6 1_555 1_555
H9 C21 1_555 1_555
C22 C15 1_555 1_555
H10 C22 1_555 1_555
C23 N1 1_555 1_555
C24 C12 1_555 1_555
H11 C24 1_555 1_555
N6 H12 1_555 1_555
C25 N1 1_555 1_555
C26 C22 1_555 1_555
C27 N3 1_555 1_555
O24 Cu2 1_555 1_555
Cu7 Cu2 1_555 1_555
Cu9 O8 1_555 1_555
Cu11 O2 1_555 1_555
Cu13 Cu4 1_555 1_555
Cu16 O10 1_555 1_555
Cu17 O3 1_555 1_555
Cu20 Cu3 1_555 1_555
O26 Cu3 1_555 1_555
O28 Cu4 1_555 1_555
O30 Cu4 1_555 1_555
O32 Cu2 1_555 1_555
O34 Cu3 1_555 1_555
O36 Cu4 1_555 1_555
O39 Cu3 1_555 1_555
O40 Cu2 1_555 1_555
O1 Cu7 1_555 1_555
O5 Cu20 1_555 1_555
O11 Cu13 1_555 1_555
N2 C25 1_555 1_555
N4 C27 1_555 1_555
C17 C19 1_555 1_555
C17 C21 1_555 1_555
C18 C23 1_555 1_555
C20 C23 1_555 1_555
C24 C26 1_555 1_555
N6 C26 1_555 1_555
N6 C27 1_555 1_555
O21 Cu7 1_555 1_555
Cu9 Cu17 1_555 1_555
Cu11 Cu16 1_555 1_555
O32_2 Cu8 1_555 1_555
O40_2 Cu8 1_555 1_555
O25_2 Cu7 1_555 1_555
O35_2 Cu7 1_555 1_555
Cu2_2 O6_2 1_555 1_555
Cu9 O4_2 1_555 1_555
Cu15 O7_2 1_555 1_555
O1_2 C4_2 1_555 1_555
O2_2 C10_2 1_555 1_555
O3_2 C2_2 1_555 1_555
O4_2 C9_2 1_555 1_555
O5_2 C9_2 1_555 1_555
O6_2 C4_2 1_555 1_555
O7_2 C1_2 1_555 1_555
O33 C2_2 1_555 1_555
O36 C10_2 1_555 1_555
O11_2 C1_2 1_555 1_555
C1_2 C12_2 1_555 1_555
C2_2 C11_2 1_555 1_555
C3_2 C15_2 1_555 1_555
C4_2 C6_2 1_555 1_555
C5_2 H1_2 1_555 1_555
C6_2 C7_2 1_555 1_555
C7_2 H2_2 1_555 1_555
C8_2 H3_2 1_555 1_555
C9_2 C13_2 1_555 1_555
C10_2 C14_2 1_555 1_555
N1_2 H4_2 1_555 1_555
C11_2 C8_2 1_555 1_555
C12_2 C5_2 1_555 1_555
N2_2 C16_2 1_555 1_555
N3_2 C16_2 1_555 1_555
C13_2 C8_2 1_555 1_555
C14_2 C7_2 1_555 1_555
C15_2 C5_2 1_555 1_555
N4_2 C25_2 1_555 1_555
C16_2 N5_2 1_555 1_555
C17_2 N5_2 1_555 1_555
C18_2 C11_2 1_555 1_555
H5_2 C18_2 1_555 1_555
N5_2 H6_2 1_555 1_555
C19_2 C14_2 1_555 1_555
H7_2 C19_2 1_555 1_555
C20_2 C13_2 1_555 1_555
H8_2 C20_2 1_555 1_555
C21_2 C6_2 1_555 1_555
H9_2 C21_2 1_555 1_555
C22_2 C15_2 1_555 1_555
H10_2 C22_2 1_555 1_555
C23_2 N1_2 1_555 1_555
C24_2 C12_2 1_555 1_555
H11_2 C24_2 1_555 1_555
N6_2 H12_2 1_555 1_555
C25_2 N1_2 1_555 1_555
C26_2 C22_2 1_555 1_555
C27_2 N3_2 1_555 1_555
O24_2 Cu2_2 1_555 1_555
Cu7_2 Cu2_2 1_555 1_555
Cu13 O2_2 1_555 1_555
Cu19 O3_2 1_555 1_555
O26_2 Cu9 1_555 1_555
O28_2 Cu15 1_555 1_555
O30_2 Cu15 1_555 1_555
O32_3 Cu2_2 1_555 1_555
O39_2 Cu9 1_555 1_555
O40_3 Cu2_2 1_555 1_555
O1_2 Cu7_2 1_555 1_555
O5_2 Cu17 1_555 1_555
O11_2 Cu12 1_555 1_555
N2_2 C25_2 1_555 1_555
N4_2 C27_2 1_555 1_555
C17_2 C19_2 1_555 1_555
C17_2 C21_2 1_555 1_555
C18_2 C23_2 1_555 1_555
C20_2 C23_2 1_555 1_555
C24_2 C26_2 1_555 1_555
N6_2 C26_2 1_555 1_555
N6_2 C27_2 1_555 1_555
O21_2 Cu7_2 1_555 1_555
Cu1_2 O9_2 1_555 1_555
Cu10 O16_2 1_555 1_555
Cu16 O19_2 1_555 1_555
O13_2 Cu1_2 1_555 1_555
O14_2 C37_2 1_555 1_555
O15_2 C29_2 1_555 1_555
O16_2 C36_2 1_555 1_555
O17_2 C36_2 1_555 1_555
O18_2 C31_2 1_555 1_555
O19_2 C28_2 1_555 1_555
O34 C29_2 1_555 1_555
O37 C37_2 1_555 1_555
O23_2 C28_2 1_555 1_555
C28_2 C39_2 1_555 1_555
C29_2 C38_2 1_555 1_555
C31_2 O13_2 1_555 1_555
C32_2 H13_2 1_555 1_555
C33_2 C31_2 1_555 1_555
C34_2 C33_2 1_555 1_555
H14_2 C34_2 1_555 1_555
C35_2 H15_2 1_555 1_555
C36_2 C40_2 1_555 1_555
C37_2 C41_2 1_555 1_555
N7_2 H16_2 1_555 1_555
C38_2 C35_2 1_555 1_555
C39_2 C32_2 1_555 1_555
N8_2 C43_2 1_555 1_555
N9_2 C43_2 1_555 1_555
C40_2 C35_2 1_555 1_555
C41_2 C34_2 1_555 1_555
C42_2 C30_2 1_555 1_555
N10_2 C52_2 1_555 1_555
C43_2 N11_2 1_555 1_555
C44_2 N11_2 1_555 1_555
C45_2 C38_2 1_555 1_555
H17_2 C45_2 1_555 1_555
N11_2 H18_2 1_555 1_555
C46_2 C41_2 1_555 1_555
H19_2 C46_2 1_555 1_555
C47_2 C40_2 1_555 1_555
H20_2 C47_2 1_555 1_555
C48_2 C33_2 1_555 1_555
H21_2 C48_2 1_555 1_555
C49_2 C42_2 1_555 1_555
H22_2 C49_2 1_555 1_555
C50_2 N7_2 1_555 1_555
C51_2 C39_2 1_555 1_555
H23_2 C51_2 1_555 1_555
N12_2 H24_2 1_555 1_555
C52_2 N7_2 1_555 1_555
C53_2 C49_2 1_555 1_555
C54_2 N9_2 1_555 1_555
Cu8_2 Cu1_2 1_555 1_555
Cu14 O14_2 1_555 1_555
Cu20 O15_2 1_555 1_555
O25_3 Cu1_2 1_555 1_555
O27_2 Cu10 1_555 1_555
O29_2 Cu16 1_555 1_555
O31_2 Cu16 1_555 1_555
O35_3 Cu1_2 1_555 1_555
O38_2 Cu10 1_555 1_555
O12_2 Cu8_2 1_555 1_555
O17_2 Cu18 1_555 1_555
O18_2 Cu8_2 1_555 1_555
O23_2 Cu11 1_555 1_555
C32_2 C42_2 1_555 1_555
N8_2 C52_2 1_555 1_555
N10_2 C54_2 1_555 1_555
C44_2 C46_2 1_555 1_555
C44_2 C48_2 1_555 1_555
C45_2 C50_2 1_555 1_555
C47_2 C50_2 1_555 1_555
C51_2 C53_2 1_555 1_555
N12_2 C53_2 1_555 1_555
N12_2 C54_2 1_555 1_555
O25_4 Cu7_2 1_555 1_555
O35_4 Cu7_2 1_555 1_555
O32_4 Cu8_2 1_555 1_555
O40_4 Cu8_2 1_555 1_555
Cu7_3 Cu2_3 1_555 1_555
O32_5 Cu2_3 1_555 1_555
O40_5 Cu2_3 1_555 1_555
Cu2_4 O6_3 1_555 1_555
Cu3_2 O4_3 1_555 1_555
O1_3 C4_3 1_555 1_555
O2_3 C10_3 1_555 1_555
O4_3 C9_3 1_555 1_555
O5_3 C9_3 1_555 1_555
O6_3 C4_3 1_555 1_555
O10_2 C10_3 1_555 1_555
C4_3 C6_3 1_555 1_555
C6_3 C7_3 1_555 1_555
C7_3 H2_3 1_555 1_555
C9_3 C13_3 1_555 1_555
C10_3 C14_3 1_555 1_555
N2_3 C16_3 1_555 1_555
N3_3 C16_3 1_555 1_555
C14_3 C7_3 1_555 1_555
C16_3 N5_3 1_555 1_555
C17_3 N5_3 1_555 1_555
N5_3 H6_3 1_555 1_555
C19_3 C14_3 1_555 1_555
H7_3 C19_3 1_555 1_555
C21_3 C6_3 1_555 1_555
H9_3 C21_3 1_555 1_555
Cu6_2 O19_3 1_555 1_555
O15_3 C29_3 1_555 1_555
O19_3 C28_3 1_555 1_555
O20_2 C29_3 1_555 1_555
O21_3 C30_3 1_555 1_555
O23_3 C28_3 1_555 1_555
O24_3 Cu2_4 1_555 1_555
C28_3 C39_3 1_555 1_555
C29_3 C38_3 1_555 1_555
C30_3 O24_3 1_555 1_555
C32_3 H13_3 1_555 1_555
C35_3 H15_3 1_555 1_555
N7_3 H16_3 1_555 1_555
C38_3 C35_3 1_555 1_555
C39_3 C32_3 1_555 1_555
C42_3 C30_3 1_555 1_555
N10_3 C52_3 1_555 1_555
C45_3 C38_3 1_555 1_555
H17_3 C45_3 1_555 1_555
C49_3 C42_3 1_555 1_555
H22_3 C49_3 1_555 1_555
C50_3 N7_3 1_555 1_555
C51_3 C39_3 1_555 1_555
H23_3 C51_3 1_555 1_555
N12_3 H24_3 1_555 1_555
C52_3 N7_3 1_555 1_555
C53_3 C49_3 1_555 1_555
Cu7_4 Cu2_4 1_555 1_555
Cu10_2 O20_2 1_555 1_555
Cu11_2 O2_3 1_555 1_555
Cu14_2 Cu6_2 1_555 1_555
Cu16_2 O10_2 1_555 1_555
Cu18_2 O15_3 1_555 1_555
Cu20_2 Cu3_2 1_555 1_555
O26_3 Cu3_2 1_555 1_555
O29_3 Cu6_2 1_555 1_555
O31_3 Cu6_2 1_555 1_555
O34_2 Cu3_2 1_555 1_555
O37_2 Cu6_2 1_555 1_555
O39_3 Cu3_2 1_555 1_555
O1_3 Cu7_4 1_555 1_555
O5_3 Cu20_2 1_555 1_555
C17_3 C19_3 1_555 1_555
C17_3 C21_3 1_555 1_555
O21_3 Cu7_4 1_555 1_555
O23_3 Cu14_2 1_555 1_555
C32_3 C42_3 1_555 1_555
N10_3 C54_3 1_555 1_555
C45_3 C50_3 1_555 1_555
C47_3 C50_3 1_555 1_555
C51_3 C53_3 1_555 1_555
N12_3 C53_3 1_555 1_555
N12_3 C54_3 1_555 1_555
Cu10_2 Cu18_2 1_555 1_555
Cu11_2 Cu16_2 1_555 1_555
Cu8_3 Cu1_3 1_555 1_555
O25_5 Cu1_3 1_555 1_555
O35_5 Cu1_3 1_555 1_555
Cu1_4 O9_3 1_555 1_555
Cu4_2 O7_3 1_555 1_555
O3_3 C2_3 1_555 1_555
O7_3 C1_3 1_555 1_555
O8_2 C2_3 1_555 1_555
O9_3 C3_3 1_555 1_555
O11_3 C1_3 1_555 1_555
O12_3 C3_3 1_555 1_555
C1_3 C12_3 1_555 1_555
C2_3 C11_3 1_555 1_555
C3_3 C15_3 1_555 1_555
C5_3 H1_3 1_555 1_555
C8_3 H3_3 1_555 1_555
N1_3 H4_3 1_555 1_555
C11_3 C8_3 1_555 1_555
C12_3 C5_3 1_555 1_555
C15_3 C5_3 1_555 1_555
N4_3 C25_3 1_555 1_555
C18_3 C11_3 1_555 1_555
H5_3 C18_3 1_555 1_555
C22_3 C15_3 1_555 1_555
H10_3 C22_3 1_555 1_555
C23_3 N1_3 1_555 1_555
C24_3 C12_3 1_555 1_555
H11_3 C24_3 1_555 1_555
N6_3 H12_3 1_555 1_555
C25_3 N1_3 1_555 1_555
C26_3 C22_3 1_555 1_555
Cu5_2 O16_3 1_555 1_555
O13_3 Cu1_4 1_555 1_555
O14_3 C37_3 1_555 1_555
O16_3 C36_3 1_555 1_555
O17_3 C36_3 1_555 1_555
O18_3 C31_3 1_555 1_555
O22_2 C37_3 1_555 1_555
C31_3 O13_3 1_555 1_555
C33_3 C31_3 1_555 1_555
C34_3 C33_3 1_555 1_555
H14_3 C34_3 1_555 1_555
C36_3 C40_3 1_555 1_555
C37_3 C41_3 1_555 1_555
N8_3 C43_3 1_555 1_555
N9_3 C43_3 1_555 1_555
C41_3 C34_3 1_555 1_555
C43_3 N11_3 1_555 1_555
C44_3 N11_3 1_555 1_555
N11_3 H18_3 1_555 1_555
C46_3 C41_3 1_555 1_555
H19_3 C46_3 1_555 1_555
C48_3 C33_3 1_555 1_555
H21_3 C48_3 1_555 1_555
Cu8_4 Cu1_4 1_555 1_555
Cu9_2 O8_2 1_555 1_555
Cu12_2 O14_3 1_555 1_555
Cu13_2 Cu4_2 1_555 1_555
Cu15_2 O22_2 1_555 1_555
Cu17_2 O3_3 1_555 1_555
Cu19_2 Cu5_2 1_555 1_555
O27_3 Cu5_2 1_555 1_555
O28_3 Cu4_2 1_555 1_555
O30_3 Cu4_2 1_555 1_555
O33_2 Cu5_2 1_555 1_555
O36_2 Cu4_2 1_555 1_555
O38_3 Cu5_2 1_555 1_555
O11_3 Cu13_2 1_555 1_555
O12_3 Cu8_4 1_555 1_555
N4_3 C27_3 1_555 1_555
C18_3 C23_3 1_555 1_555
C20_3 C23_3 1_555 1_555
C24_3 C26_3 1_555 1_555
N6_3 C26_3 1_555 1_555
N6_3 C27_3 1_555 1_555
O17_3 Cu19_2 1_555 1_555
O18_3 Cu8_4 1_555 1_555
C44_3 C46_3 1_555 1_555
C44_3 C48_3 1_555 1_555
Cu9_2 Cu17_2 1_555 1_555
Cu12_2 Cu15_2 1_555 1_555
O25_6 Cu7_3 1_555 1_555
O35_6 Cu7_3 1_555 1_555
O32_6 Cu8_3 1_555 1_555
O40_6 Cu8_3 1_555 1_555
Cu7_5 Cu2_5 1_555 1_555
O32_7 Cu2_5 1_555 1_555
O40_7 Cu2_5 1_555 1_555
Cu2_6 O6_4 1_555 1_555
Cu9_2 O4_4 1_555 1_555
O1_4 C4_4 1_555 1_555
O2_4 C10_4 1_555 1_555
O4_4 C9_4 1_555 1_555
O5_4 C9_4 1_555 1_555
O6_4 C4_4 1_555 1_555
O36_2 C10_4 1_555 1_555
C4_4 C6_4 1_555 1_555
C6_4 C7_4 1_555 1_555
C7_4 H2_4 1_555 1_555
C9_4 C13_4 1_555 1_555
C10_4 C14_4 1_555 1_555
N2_4 C16_4 1_555 1_555
N3_4 C16_4 1_555 1_555
C14_4 C7_4 1_555 1_555
C16_4 N5_4 1_555 1_555
C17_4 N5_4 1_555 1_555
N5_4 H6_4 1_555 1_555
C19_4 C14_4 1_555 1_555
H7_4 C19_4 1_555 1_555
C21_4 C6_4 1_555 1_555
H9_4 C21_4 1_555 1_555
Cu16_2 O19_4 1_555 1_555
O15_4 C29_4 1_555 1_555
O19_4 C28_4 1_555 1_555
O34_2 C29_4 1_555 1_555
O21_4 C30_4 1_555 1_555
O23_4 C28_4 1_555 1_555
O24_4 Cu2_6 1_555 1_555
C28_4 C39_4 1_555 1_555
C29_4 C38_4 1_555 1_555
C30_4 O24_4 1_555 1_555
C32_4 H13_4 1_555 1_555
C35_4 H15_4 1_555 1_555
N7_4 H16_4 1_555 1_555
C38_4 C35_4 1_555 1_555
C39_4 C32_4 1_555 1_555
C42_4 C30_4 1_555 1_555
N10_4 C52_4 1_555 1_555
C45_4 C38_4 1_555 1_555
H17_4 C45_4 1_555 1_555
C49_4 C42_4 1_555 1_555
H22_4 C49_4 1_555 1_555
C50_4 N7_4 1_555 1_555
C51_4 C39_4 1_555 1_555
H23_4 C51_4 1_555 1_555
N12_4 H24_4 1_555 1_555
C52_4 N7_4 1_555 1_555
C53_4 C49_4 1_555 1_555
Cu7_6 Cu2_6 1_555 1_555
Cu13_2 O2_4 1_555 1_555
Cu20_2 O15_4 1_555 1_555
O26_4 Cu9_2 1_555 1_555
O29_4 Cu16_2 1_555 1_555
O31_4 Cu16_2 1_555 1_555
O39_4 Cu9_2 1_555 1_555
O1_4 Cu7_6 1_555 1_555
O5_4 Cu17_2 1_555 1_555
C17_4 C19_4 1_555 1_555
C17_4 C21_4 1_555 1_555
O21_4 Cu7_6 1_555 1_555
O23_4 Cu11_2 1_555 1_555
C32_4 C42_4 1_555 1_555
N10_4 C54_4 1_555 1_555
C45_4 C50_4 1_555 1_555
C47_4 C50_4 1_555 1_555
C51_4 C53_4 1_555 1_555
N12_4 C53_4 1_555 1_555
N12_4 C54_4 1_555 1_555
Cu8_5 Cu1_5 1_555 1_555
O25_7 Cu1_5 1_555 1_555
O35_7 Cu1_5 1_555 1_555
Cu1_6 O9_4 1_555 1_555
Cu15_2 O7_4 1_555 1_555
O3_4 C2_4 1_555 1_555
O7_4 C1_4 1_555 1_555
O33_2 C2_4 1_555 1_555
O9_4 C3_4 1_555 1_555
O11_4 C1_4 1_555 1_555
O12_4 C3_4 1_555 1_555
C1_4 C12_4 1_555 1_555
C2_4 C11_4 1_555 1_555
C3_4 C15_4 1_555 1_555
C5_4 H1_4 1_555 1_555
C8_4 H3_4 1_555 1_555
N1_4 H4_4 1_555 1_555
C11_4 C8_4 1_555 1_555
C12_4 C5_4 1_555 1_555
C15_4 C5_4 1_555 1_555
N4_4 C25_4 1_555 1_555
C18_4 C11_4 1_555 1_555
H5_4 C18_4 1_555 1_555
C22_4 C15_4 1_555 1_555
H10_4 C22_4 1_555 1_555
C23_4 N1_4 1_555 1_555
C24_4 C12_4 1_555 1_555
H11_4 C24_4 1_555 1_555
N6_4 H12_4 1_555 1_555
C25_4 N1_4 1_555 1_555
C26_4 C22_4 1_555 1_555
Cu10_2 O16_4 1_555 1_555
O13_4 Cu1_6 1_555 1_555
O14_4 C37_4 1_555 1_555
O16_4 C36_4 1_555 1_555
O17_4 C36_4 1_555 1_555
O18_4 C31_4 1_555 1_555
O37_2 C37_4 1_555 1_555
C31_4 O13_4 1_555 1_555
C33_4 C31_4 1_555 1_555
C34_4 C33_4 1_555 1_555
H14_4 C34_4 1_555 1_555
C36_4 C40_4 1_555 1_555
C37_4 C41_4 1_555 1_555
N8_4 C43_4 1_555 1_555
N9_4 C43_4 1_555 1_555
C41_4 C34_4 1_555 1_555
C43_4 N11_4 1_555 1_555
C44_4 N11_4 1_555 1_555
N11_4 H18_4 1_555 1_555
C46_4 C41_4 1_555 1_555
H19_4 C46_4 1_555 1_555
C48_4 C33_4 1_555 1_555
H21_4 C48_4 1_555 1_555
Cu8_6 Cu1_6 1_555 1_555
Cu14_2 O14_4 1_555 1_555
Cu19_2 O3_4 1_555 1_555
O27_4 Cu10_2 1_555 1_555
O28_4 Cu15_2 1_555 1_555
O30_4 Cu15_2 1_555 1_555
O38_4 Cu10_2 1_555 1_555
O11_4 Cu12_2 1_555 1_555
O12_4 Cu8_6 1_555 1_555
N4_4 C27_4 1_555 1_555
C18_4 C23_4 1_555 1_555
C20_4 C23_4 1_555 1_555
C24_4 C26_4 1_555 1_555
N6_4 C26_4 1_555 1_555
N6_4 C27_4 1_555 1_555
O17_4 Cu18_2 1_555 1_555
O18_4 Cu8_6 1_555 1_555
C44_4 C46_4 1_555 1_555
C44_4 C48_4 1_555 1_555
O25_8 Cu7_5 1_555 1_555
O35_8 Cu7_5 1_555 1_555
O32_8 Cu8_5 1_555 1_555
O40_8 Cu8_5 1_555 1_555
Cu11_2 O4_5 1_555 1_555
Cu17_2 O7_5 1_555 1_555
O25 C4_5 1_555 1_555
O26_3 C10_5 1_555 1_555
O28_3 C2_5 1_555 1_555
O4_5 C9_5 1_555 1_555
O31_4 C9_5 1_555 1_555
O32_2 C4_5 1_555 1_555
O7_5 C1_5 1_555 1_555
O8_3 C2_5 1_555 1_555
O10_3 C10_5 1_555 1_555
O39_4 C1_5 1_555 1_555
C1_5 C12_5 1_555 1_555
C2_5 C11_5 1_555 1_555
C3_5 C15_5 1_555 1_555
C4_5 C6_5 1_555 1_555
C5_5 H1_5 1_555 1_555
C6_5 C7_5 1_555 1_555
C7_5 H2_5 1_555 1_555
C8_5 H3_5 1_555 1_555
C9_5 C13_5 1_555 1_555
C10_5 C14_5 1_555 1_555
N1_5 H4_5 1_555 1_555
C11_5 C8_5 1_555 1_555
C12_5 C5_5 1_555 1_555
N2_5 C16_5 1_555 1_555
N3_5 C16_5 1_555 1_555
C13_5 C8_5 1_555 1_555
C14_5 C7_5 1_555 1_555
C15_5 C5_5 1_555 1_555
N4_5 C25_5 1_555 1_555
C16_5 N5_5 1_555 1_555
C17_5 N5_5 1_555 1_555
C18_5 C11_5 1_555 1_555
H5_5 C18_5 1_555 1_555
N5_5 H6_5 1_555 1_555
C19_5 C14_5 1_555 1_555
H7_5 C19_5 1_555 1_555
C20_5 C13_5 1_555 1_555
H8_5 C20_5 1_555 1_555
C21_5 C6_5 1_555 1_555
H9_5 C21_5 1_555 1_555
C22_5 C15_5 1_555 1_555
H10_5 C22_5 1_555 1_555
C23_5 N1_5 1_555 1_555
C24_5 C12_5 1_555 1_555
H11_5 C24_5 1_555 1_555
N6_5 H12_5 1_555 1_555
C25_5 N1_5 1_555 1_555
C26_5 C22_5 1_555 1_555
C27_5 N3_5 1_555 1_555
Cu13_2 O8_3 1_555 1_555
Cu20_2 O10_3 1_555 1_555
O34_3 Cu11_2 1_555 1_555
O36_3 Cu17_2 1_555 1_555
N2_5 C25_5 1_555 1_555
N4_5 C27_5 1_555 1_555
C17_5 C19_5 1_555 1_555
C17_5 C21_5 1_555 1_555
C18_5 C23_5 1_555 1_555
C20_5 C23_5 1_555 1_555
C24_5 C26_5 1_555 1_555
N6_5 C26_5 1_555 1_555
N6_5 C27_5 1_555 1_555
Cu12_2 O16_5 1_555 1_555
Cu18_2 O19_5 1_555 1_555
O27_3 C37_5 1_555 1_555
O29_3 C29_5 1_555 1_555
O16_5 C36_5 1_555 1_555
O30_4 C36_5 1_555 1_555
O32 C31_5 1_555 1_555
O19_5 C28_5 1_555 1_555
O20_3 C29_5 1_555 1_555
O22_3 C37_5 1_555 1_555
O38_4 C28_5 1_555 1_555
C28_5 C39_5 1_555 1_555
C29_5 C38_5 1_555 1_555
C31_5 O25_2 1_555 1_555
C32_5 H13_5 1_555 1_555
C33_5 C31_5 1_555 1_555
C34_5 C33_5 1_555 1_555
H14_5 C34_5 1_555 1_555
C35_5 H15_5 1_555 1_555
C36_5 C40_5 1_555 1_555
C37_5 C41_5 1_555 1_555
N7_5 H16_5 1_555 1_555
C38_5 C35_5 1_555 1_555
C39_5 C32_5 1_555 1_555
N8_5 C43_5 1_555 1_555
N9_5 C43_5 1_555 1_555
C40_5 C35_5 1_555 1_555
C41_5 C34_5 1_555 1_555
C42_5 C30_5 1_555 1_555
N10_5 C52_5 1_555 1_555
C43_5 N11_5 1_555 1_555
C44_5 N11_5 1_555 1_555
C45_5 C38_5 1_555 1_555
H17_5 C45_5 1_555 1_555
N11_5 H18_5 1_555 1_555
C46_5 C41_5 1_555 1_555
H19_5 C46_5 1_555 1_555
C47_5 C40_5 1_555 1_555
H20_5 C47_5 1_555 1_555
C48_5 C33_5 1_555 1_555
H21_5 C48_5 1_555 1_555
C49_5 C42_5 1_555 1_555
H22_5 C49_5 1_555 1_555
C50_5 N7_5 1_555 1_555
C51_5 C39_5 1_555 1_555
H23_5 C51_5 1_555 1_555
N12_5 H24_5 1_555 1_555
C52_5 N7_5 1_555 1_555
C53_5 C49_5 1_555 1_555
C54_5 N9_5 1_555 1_555
Cu14_2 O20_3 1_555 1_555
Cu19_2 O22_3 1_555 1_555
O33_3 Cu12_2 1_555 1_555
O37_3 Cu18_2 1_555 1_555
C32_5 C42_5 1_555 1_555
N8_5 C52_5 1_555 1_555
N10_5 C54_5 1_555 1_555
C44_5 C46_5 1_555 1_555
C44_5 C48_5 1_555 1_555
C45_5 C50_5 1_555 1_555
C47_5 C50_5 1_555 1_555
C51_5 C53_5 1_555 1_555
N12_5 C53_5 1_555 1_555
N12_5 C54_5 1_555 1_555
Cu14_2 O16_6 1_555 1_555
Cu20_2 O19_6 1_555 1_555
O27_4 C37_6 1_555 1_555
O29_4 C29_6 1_555 1_555
O16_6 C36_6 1_555 1_555
O31_3 C36_6 1_555 1_555
O32_3 C31_6 1_555 1_555
O19_6 C28_6 1_555 1_555
O34_3 C29_6 1_555 1_555
O37_3 C37_6 1_555 1_555
O39_3 C28_6 1_555 1_555
C28_6 C39_6 1_555 1_555
C29_6 C38_6 1_555 1_555
C31_6 O25_4 1_555 1_555
C32_6 H13_6 1_555 1_555
C33_6 C31_6 1_555 1_555
C34_6 C33_6 1_555 1_555
H14_6 C34_6 1_555 1_555
C35_6 H15_6 1_555 1_555
C36_6 C40_6 1_555 1_555
C37_6 C41_6 1_555 1_555
N7_6 H16_6 1_555 1_555
C38_6 C35_6 1_555 1_555
C39_6 C32_6 1_555 1_555
N8_6 C43_6 1_555 1_555
N9_6 C43_6 1_555 1_555
C40_6 C35_6 1_555 1_555
C41_6 C34_6 1_555 1_555
C42_6 C30_6 1_555 1_555
N10_6 C52_6 1_555 1_555
C43_6 N11_6 1_555 1_555
C44_6 N11_6 1_555 1_555
C45_6 C38_6 1_555 1_555
H17_6 C45_6 1_555 1_555
N11_6 H18_6 1_555 1_555
C46_6 C41_6 1_555 1_555
H19_6 C46_6 1_555 1_555
C47_6 C40_6 1_555 1_555
H20_6 C47_6 1_555 1_555
C48_6 C33_6 1_555 1_555
H21_6 C48_6 1_555 1_555
C49_6 C42_6 1_555 1_555
H22_6 C49_6 1_555 1_555
C50_6 N7_6 1_555 1_555
C51_6 C39_6 1_555 1_555
H23_6 C51_6 1_555 1_555
N12_6 H24_6 1_555 1_555
C52_6 N7_6 1_555 1_555
C53_6 C49_6 1_555 1_555
C54_6 N9_6 1_555 1_555
C32_6 C42_6 1_555 1_555
N8_6 C52_6 1_555 1_555
N10_6 C54_6 1_555 1_555
C44_6 C46_6 1_555 1_555
C44_6 C48_6 1_555 1_555
C45_6 C50_6 1_555 1_555
C47_6 C50_6 1_555 1_555
C51_6 C53_6 1_555 1_555
N12_6 C53_6 1_555 1_555
N12_6 C54_6 1_555 1_555
Cu13_2 O4_6 1_555 1_555
Cu19_2 O7_6 1_555 1_555
O25_3 C4_6 1_555 1_555
O26_4 C10_6 1_555 1_555
O28_4 C2_6 1_555 1_555
O4_6 C9_6 1_555 1_555
O30_3 C9_6 1_555 1_555
O32_4 C4_6 1_555 1_555
O7_6 C1_6 1_555 1_555
O33_3 C2_6 1_555 1_555
O36_3 C10_6 1_555 1_555
O38_3 C1_6 1_555 1_555
C1_6 C12_6 1_555 1_555
C2_6 C11_6 1_555 1_555
C3_6 C15_6 1_555 1_555
C4_6 C6_6 1_555 1_555
C5_6 H1_6 1_555 1_555
C6_6 C7_6 1_555 1_555
C7_6 H2_6 1_555 1_555
C8_6 H3_6 1_555 1_555
C9_6 C13_6 1_555 1_555
C10_6 C14_6 1_555 1_555
N1_6 H4_6 1_555 1_555
C11_6 C8_6 1_555 1_555
C12_6 C5_6 1_555 1_555
N2_6 C16_6 1_555 1_555
N3_6 C16_6 1_555 1_555
C13_6 C8_6 1_555 1_555
C14_6 C7_6 1_555 1_555
C15_6 C5_6 1_555 1_555
N4_6 C25_6 1_555 1_555
C16_6 N5_6 1_555 1_555
C17_6 N5_6 1_555 1_555
C18_6 C11_6 1_555 1_555
H5_6 C18_6 1_555 1_555
N5_6 H6_6 1_555 1_555
C19_6 C14_6 1_555 1_555
H7_6 C19_6 1_555 1_555
C20_6 C13_6 1_555 1_555
H8_6 C20_6 1_555 1_555
C21_6 C6_6 1_555 1_555
H9_6 C21_6 1_555 1_555
C22_6 C15_6 1_555 1_555
H10_6 C22_6 1_555 1_555
C23_6 N1_6 1_555 1_555
C24_6 C12_6 1_555 1_555
H11_6 C24_6 1_555 1_555
N6_6 H12_6 1_555 1_555
C25_6 N1_6 1_555 1_555
C26_6 C22_6 1_555 1_555
C27_6 N3_6 1_555 1_555
N2_6 C25_6 1_555 1_555
N4_6 C27_6 1_555 1_555
C17_6 C19_6 1_555 1_555
C17_6 C21_6 1_555 1_555
C18_6 C23_6 1_555 1_555
C20_6 C23_6 1_555 1_555
C24_6 C26_6 1_555 1_555
N6_6 C26_6 1_555 1_555
N6_6 C27_6 1_555 1_555
Cu17 O7_7 1_555 1_555
O28 C2_7 1_555 1_555
O7_7 C1_7 1_555 1_555
O8_4 C2_7 1_555 1_555
O35_6 C3_7 1_555 1_555
O39_2 C1_7 1_555 1_555
O40_5 C3_7 1_555 1_555
C1_7 C12_7 1_555 1_555
C2_7 C11_7 1_555 1_555
C3_7 C15_7 1_555 1_555
C5_7 H1_7 1_555 1_555
C8_7 H3_7 1_555 1_555
N1_7 H4_7 1_555 1_555
C11_7 C8_7 1_555 1_555
C12_7 C5_7 1_555 1_555
C15_7 C5_7 1_555 1_555
N4_7 C25_7 1_555 1_555
C18_7 C11_7 1_555 1_555
H5_7 C18_7 1_555 1_555
C22_7 C15_7 1_555 1_555
H10_7 C22_7 1_555 1_555
C23_7 N1_7 1_555 1_555
C24_7 C12_7 1_555 1_555
H11_7 C24_7 1_555 1_555
N6_7 H12_7 1_555 1_555
C25_7 N1_7 1_555 1_555
C26_7 C22_7 1_555 1_555
Cu12 O16_7 1_555 1_555
O27 C37_7 1_555 1_555
O16_7 C36_7 1_555 1_555
O30_2 C36_7 1_555 1_555
O32_5 C31_7 1_555 1_555
O22_4 C37_7 1_555 1_555
C31_7 O25_6 1_555 1_555
C33_7 C31_7 1_555 1_555
C34_7 C33_7 1_555 1_555
H14_7 C34_7 1_555 1_555
C36_7 C40_7 1_555 1_555
C37_7 C41_7 1_555 1_555
N8_7 C43_7 1_555 1_555
N9_7 C43_7 1_555 1_555
C41_7 C34_7 1_555 1_555
C43_7 N11_7 1_555 1_555
C44_7 N11_7 1_555 1_555
N11_7 H18_7 1_555 1_555
C46_7 C41_7 1_555 1_555
H19_7 C46_7 1_555 1_555
C48_7 C33_7 1_555 1_555
H21_7 C48_7 1_555 1_555
Cu13 O8_4 1_555 1_555
Cu19 O22_4 1_555 1_555
O33_4 Cu12 1_555 1_555
O36_4 Cu17 1_555 1_555
N4_7 C27_7 1_555 1_555
C18_7 C23_7 1_555 1_555
C20_7 C23_7 1_555 1_555
C24_7 C26_7 1_555 1_555
N6_7 C26_7 1_555 1_555
N6_7 C27_7 1_555 1_555
C44_7 C46_7 1_555 1_555
C44_7 C48_7 1_555 1_555
Cu11 O4_7 1_555 1_555
O25_5 C4_7 1_555 1_555
O26 C10_7 1_555 1_555
O4_7 C9_7 1_555 1_555
O31_2 C9_7 1_555 1_555
O32_6 C4_7 1_555 1_555
O10_4 C10_7 1_555 1_555
C4_7 C6_7 1_555 1_555
C6_7 C7_7 1_555 1_555
C7_7 H2_7 1_555 1_555
C9_7 C13_7 1_555 1_555
C10_7 C14_7 1_555 1_555
N2_7 C16_7 1_555 1_555
N3_7 C16_7 1_555 1_555
C14_7 C7_7 1_555 1_555
C16_7 N5_7 1_555 1_555
C17_7 N5_7 1_555 1_555
N5_7 H6_7 1_555 1_555
C19_7 C14_7 1_555 1_555
H7_7 C19_7 1_555 1_555
C21_7 C6_7 1_555 1_555
H9_7 C21_7 1_555 1_555
Cu18 O19_7 1_555 1_555
O29 C29_7 1_555 1_555
O19_7 C28_7 1_555 1_555
O20_4 C29_7 1_555 1_555
O35_5 C30_7 1_555 1_555
O38_2 C28_7 1_555 1_555
C28_7 C39_7 1_555 1_555
C29_7 C38_7 1_555 1_555
C30_7 O40_6 1_555 1_555
C32_7 H13_7 1_555 1_555
C35_7 H15_7 1_555 1_555
N7_7 H16_7 1_555 1_555
C38_7 C35_7 1_555 1_555
C39_7 C32_7 1_555 1_555
C42_7 C30_7 1_555 1_555
N10_7 C52_7 1_555 1_555
C45_7 C38_7 1_555 1_555
H17_7 C45_7 1_555 1_555
C49_7 C42_7 1_555 1_555
H22_7 C49_7 1_555 1_555
C50_7 N7_7 1_555 1_555
C51_7 C39_7 1_555 1_555
H23_7 C51_7 1_555 1_555
N12_7 H24_7 1_555 1_555
C52_7 N7_7 1_555 1_555
C53_7 C49_7 1_555 1_555
Cu14 O20_4 1_555 1_555
Cu20 O10_4 1_555 1_555
O34_4 Cu11 1_555 1_555
O37_4 Cu18 1_555 1_555
C17_7 C19_7 1_555 1_555
C17_7 C21_7 1_555 1_555
C32_7 C42_7 1_555 1_555
N10_7 C54_7 1_555 1_555
C45_7 C50_7 1_555 1_555
C47_7 C50_7 1_555 1_555
C51_7 C53_7 1_555 1_555
N12_7 C53_7 1_555 1_555
N12_7 C54_7 1_555 1_555
Cu19 O7_8 1_555 1_555
O28_2 C2_8 1_555 1_555
O7_8 C1_8 1_555 1_555
O33_4 C2_8 1_555 1_555
O35_8 C3_8 1_555 1_555
O38 C1_8 1_555 1_555
O40_7 C3_8 1_555 1_555
C1_8 C12_8 1_555 1_555
C2_8 C11_8 1_555 1_555
C3_8 C15_8 1_555 1_555
C5_8 H1_8 1_555 1_555
C8_8 H3_8 1_555 1_555
N1_8 H4_8 1_555 1_555
C11_8 C8_8 1_555 1_555
C12_8 C5_8 1_555 1_555
C15_8 C5_8 1_555 1_555
N4_8 C25_8 1_555 1_555
C18_8 C11_8 1_555 1_555
H5_8 C18_8 1_555 1_555
C22_8 C15_8 1_555 1_555
H10_8 C22_8 1_555 1_555
C23_8 N1_8 1_555 1_555
C24_8 C12_8 1_555 1_555
H11_8 C24_8 1_555 1_555
N6_8 H12_8 1_555 1_555
C25_8 N1_8 1_555 1_555
C26_8 C22_8 1_555 1_555
Cu14 O16_8 1_555 1_555
O27_2 C37_8 1_555 1_555
O16_8 C36_8 1_555 1_555
O31 C36_8 1_555 1_555
O32_7 C31_8 1_555 1_555
O37_4 C37_8 1_555 1_555
C31_8 O25_8 1_555 1_555
C33_8 C31_8 1_555 1_555
C34_8 C33_8 1_555 1_555
H14_8 C34_8 1_555 1_555
C36_8 C40_8 1_555 1_555
C37_8 C41_8 1_555 1_555
N8_8 C43_8 1_555 1_555
N9_8 C43_8 1_555 1_555
C41_8 C34_8 1_555 1_555
C43_8 N11_8 1_555 1_555
C44_8 N11_8 1_555 1_555
N11_8 H18_8 1_555 1_555
C46_8 C41_8 1_555 1_555
H19_8 C46_8 1_555 1_555
C48_8 C33_8 1_555 1_555
H21_8 C48_8 1_555 1_555
N4_8 C27_8 1_555 1_555
C18_8 C23_8 1_555 1_555
C20_8 C23_8 1_555 1_555
C24_8 C26_8 1_555 1_555
N6_8 C26_8 1_555 1_555
N6_8 C27_8 1_555 1_555
C44_8 C46_8 1_555 1_555
C44_8 C48_8 1_555 1_555
Cu13 O4_8 1_555 1_555
O25_7 C4_8 1_555 1_555
O26_2 C10_8 1_555 1_555
O4_8 C9_8 1_555 1_555
O30 C9_8 1_555 1_555
O32_8 C4_8 1_555 1_555
O36_4 C10_8 1_555 1_555
C4_8 C6_8 1_555 1_555
C6_8 C7_8 1_555 1_555
C7_8 H2_8 1_555 1_555
C9_8 C13_8 1_555 1_555
C10_8 C14_8 1_555 1_555
N2_8 C16_8 1_555 1_555
N3_8 C16_8 1_555 1_555
C14_8 C7_8 1_555 1_555
C16_8 N5_8 1_555 1_555
C17_8 N5_8 1_555 1_555
N5_8 H6_8 1_555 1_555
C19_8 C14_8 1_555 1_555
H7_8 C19_8 1_555 1_555
C21_8 C6_8 1_555 1_555
H9_8 C21_8 1_555 1_555
Cu20 O19_8 1_555 1_555
O29_2 C29_8 1_555 1_555
O19_8 C28_8 1_555 1_555
O34_4 C29_8 1_555 1_555
O35_7 C30_8 1_555 1_555
O39 C28_8 1_555 1_555
C28_8 C39_8 1_555 1_555
C29_8 C38_8 1_555 1_555
C30_8 O40_8 1_555 1_555
C32_8 H13_8 1_555 1_555
C35_8 H15_8 1_555 1_555
N7_8 H16_8 1_555 1_555
C38_8 C35_8 1_555 1_555
C39_8 C32_8 1_555 1_555
C42_8 C30_8 1_555 1_555
N10_8 C52_8 1_555 1_555
C45_8 C38_8 1_555 1_555
H17_8 C45_8 1_555 1_555
C49_8 C42_8 1_555 1_555
H22_8 C49_8 1_555 1_555
C50_8 N7_8 1_555 1_555
C51_8 C39_8 1_555 1_555
H23_8 C51_8 1_555 1_555
N12_8 H24_8 1_555 1_555
C52_8 N7_8 1_555 1_555
C53_8 C49_8 1_555 1_555
C17_8 C19_8 1_555 1_555
C17_8 C21_8 1_555 1_555
C32_8 C42_8 1_555 1_555
N10_8 C54_8 1_555 1_555
C45_8 C50_8 1_555 1_555
C47_8 C50_8 1_555 1_555
C51_8 C53_8 1_555 1_555
N12_8 C53_8 1_555 1_555
N12_8 C54_8 1_555 1_555

#END
