
###############################################################################
#
# This file contains modified crystal structure data generated from the
# MOF subset of the Cambridge Structural Database (CSD) v543 
# hosted by the Cambridge Crystallographic Data Centre (CCDC).
#
# This work is licensed under the Creative Commons
# Attribution-NonCommercial-ShareAlike 4.0 International License.
# To view a copy of this license, visit
# http://creativecommons.org/licenses/by-nc-sa/4.0/
# or send a letter to
# Creative Commons, PO Box 1866, Mountain View, CA 94042, USA.
#
# CIF created using the CSD Python API on 29 September 2022
# The structure has been converted into the P1 space group
# The structure has a 3D framework
# The original CSD entry PAPPAB02 is in the tetragonal crystal system
# The framework has been calculated to contain at least 10.0% void space
# The void calculation uses a probe of radius 1.32A, grid spacing 0.4
#
###############################################################################

data_PAPPAB02
_chemical_formula_moiety         '(C432 H192 Cu40 N96 O180)n'
_symmetry_cell_setting           triclinic
_symmetry_space_group_name_H-M   'P 1'
_symmetry_Int_Tables_number      1
_space_group_name_Hall           'P 1'
loop_
_symmetry_equiv_pos_site_id
_symmetry_equiv_pos_as_xyz
1 x,y,z
_cell_length_a                   26.50040(10)
_cell_length_b                   26.50040(10)
_cell_length_c                   37.9967(4)
_cell_angle_alpha                90
_cell_angle_beta                 90
_cell_angle_gamma                90
_cell_volume                     26684
loop_
_atom_site_label
_atom_site_type_symbol
_atom_site_fract_x
_atom_site_fract_y
_atom_site_fract_z
Cu2 Cu 0.29907(5) 0.05687(5) 0.500000
Cu3 Cu 0.82183(3) 0.11923(3) 0.64822(3)
Cu4 Cu 0.76739(3) 0.15629(3) 0.69428(3)
O1 O 0.71072(18) 0.1374(2) 0.66474(15)
O2 O 0.3759(2) 0.12032(19) 0.53710(14)
O3 O 0.40981(18) 0.2671(2) 0.78414(14)
O5 O 0.44191(19) 0.3209(2) 0.82400(14)
O6 O 0.76050(19) 0.0983(2) 0.62558(15)
O7 O 0.62158(19) 0.3556(2) 0.82501(15)
O8 O 0.18443(19) 0.1821(2) 0.62538(14)
O9 O 0.29283(19) 0.1073(2) 0.53615(14)
O10 O 0.67081(19) 0.3268(2) 0.78140(14)
O11 O 0.21981(19) 0.2268(2) 0.66944(15)
N1 N 0.4689(2) 0.1667(3) 0.6297(2)
N2 N 0.5489(3) 0.1737(3) 0.6581(2)
N3 N 0.5580(3) 0.2260(3) 0.7049(2)
H1 H 0.589067 0.217191 0.702512
C1 C 0.7182(3) 0.1113(3) 0.6371(2)
C2 C 0.5832(3) 0.3100(3) 0.7796(2)
N4 N 0.4787(3) 0.2222(3) 0.6790(2)
N5 N 0.4037(3) 0.2166(3) 0.6512(2)
H2 H 0.396581 0.240873 0.665433
C3 C 0.6289(3) 0.3327(3) 0.7961(2)
C4 C 0.3316(3) 0.1265(3) 0.5490(2)
C5 C 0.2781(3) 0.1669(3) 0.5942(2)
H3 H 0.249734 0.155267 0.582327
C6 C 0.3259(3) 0.1576(3) 0.5810(2)
C7 C 0.6783(3) 0.0577(3) 0.5914(2)
H4 H 0.709819 0.044331 0.586120
N6 N 0.5354(3) 0.1203(3) 0.6112(2)
H5 H 0.512792 0.108740 0.597097
C8 C 0.6402(3) 0.0015(3) 0.5462(2)
C9 C 0.5361(3) 0.3143(3) 0.7947(2)
H6 H 0.531869 0.333173 0.815133
C10 C 0.4952(3) 0.2905(3) 0.7794(2)
C11 C 0.2212(3) 0.2018(3) 0.6413(2)
C12 C 0.4452(3) 0.2936(3) 0.7972(2)
C13 C 0.6729(3) 0.0941(3) 0.6173(2)
C14 C 0.6357(3) 0.0418(3) 0.5734(2)
C15 C 0.5890(3) 0.2811(4) 0.7493(3)
H7 H 0.620815 0.278048 0.739150
C16 C 0.2731(3) 0.1937(3) 0.6253(2)
C17 C 0.5889(3) 0.0620(3) 0.5810(2)
H8 H 0.560572 0.050201 0.569206
C18 C 0.3694(3) 0.1737(3) 0.5993(2)
H9 H 0.401493 0.166846 0.590764
C19 C 0.4528(3) 0.2007(3) 0.6528(2)
C20 C 0.3151(3) 0.2098(3) 0.6434(2)
H10 H 0.311296 0.227316 0.664413
C21 C 0.5010(3) 0.2617(3) 0.7499(2)
H11 H 0.473163 0.245367 0.740270
C22 C 0.5480(3) 0.2566(3) 0.7341(2)
C23 C 0.3627(3) 0.2001(3) 0.6304(2)
C24 C 0.6260(3) 0.1148(3) 0.6250(2)
H12 H 0.622953 0.138743 0.642718
C25 C 0.5837(3) 0.0997(3) 0.6061(3)
C26 C 0.5180(3) 0.1552(4) 0.6343(2)
C27 C 0.5265(3) 0.2081(4) 0.6798(3)
O16 O 0.39856(19) 0.0199(2) 0.53541(15)
O24 O 0.3146(2) 0.0073(2) 0.53591(15)
Cu7 Cu 0.39119(5) 0.07195(5) 0.500000
Cu10 Cu 0.11923(3) 0.17817(3) 0.64822(3)
Cu11 Cu 0.67817(3) 0.38077(3) 0.85178(3)
Cu14 Cu 0.38077(3) 0.32183(3) 0.85178(3)
Cu16 Cu 0.15629(3) 0.23261(3) 0.69428(3)
Cu17 Cu 0.73261(3) 0.34371(3) 0.80572(3)
Cu20 Cu 0.34371(3) 0.26739(3) 0.80572(3)
O26 O 0.7671(2) 0.09019(18) 0.71586(14)
O29 O 0.8209(2) 0.05809(19) 0.67600(14)
O31 O 0.87842(19) 0.1444(2) 0.67499(15)
O33 O 0.8179(2) 0.18443(19) 0.62538(14)
O35 O 0.29283(19) 0.1073(2) 0.46385(14)
O36 O 0.82919(19) 0.1732(2) 0.71860(14)
O38 O 0.7732(2) 0.21981(19) 0.66944(15)
O40 O 0.3146(2) 0.0073(2) 0.46409(15)
Cu1 Cu 0.60881(5) 0.92805(5) 0.500000
O4 O 0.60144(19) 0.9801(2) 0.53541(15)
O12 O 0.6854(2) 0.9927(2) 0.53591(15)
Cu5 Cu 0.17817(3) 0.88077(3) 0.64822(3)
Cu6 Cu 0.23261(3) 0.84371(3) 0.69428(3)
O13 O 0.28928(18) 0.8626(2) 0.66474(15)
O14 O 0.6241(2) 0.87968(19) 0.53710(14)
O15 O 0.59019(18) 0.7329(2) 0.78414(14)
O17 O 0.55809(19) 0.6791(2) 0.82400(14)
O18 O 0.23950(19) 0.9017(2) 0.62558(15)
O19 O 0.37842(19) 0.6444(2) 0.82501(15)
O20 O 0.81557(19) 0.8179(2) 0.62538(14)
O21 O 0.70717(19) 0.8927(2) 0.53615(14)
O22 O 0.32919(19) 0.6732(2) 0.78140(14)
O23 O 0.78019(19) 0.7732(2) 0.66944(15)
N7 N 0.5311(2) 0.8333(3) 0.6297(2)
N8 N 0.4511(3) 0.8263(3) 0.6581(2)
N9 N 0.4420(3) 0.7740(3) 0.7049(2)
H13 H 0.410933 0.782809 0.702512
C28 C 0.2818(3) 0.8887(3) 0.6371(2)
C29 C 0.4168(3) 0.6900(3) 0.7796(2)
N10 N 0.5213(3) 0.7778(3) 0.6790(2)
N11 N 0.5963(3) 0.7834(3) 0.6512(2)
H14 H 0.603419 0.759127 0.665433
C30 C 0.3711(3) 0.6673(3) 0.7961(2)
C31 C 0.6684(3) 0.8735(3) 0.5490(2)
C32 C 0.7219(3) 0.8331(3) 0.5942(2)
H15 H 0.750266 0.844733 0.582327
C33 C 0.6741(3) 0.8424(3) 0.5810(2)
C34 C 0.3217(3) 0.9423(3) 0.5914(2)
H16 H 0.290181 0.955669 0.586120
N12 N 0.4646(3) 0.8797(3) 0.6112(2)
H17 H 0.487208 0.891260 0.597097
C35 C 0.3598(3) 0.9985(3) 0.5462(2)
C36 C 0.4639(3) 0.6857(3) 0.7947(2)
H18 H 0.468131 0.666827 0.815133
C37 C 0.5048(3) 0.7095(3) 0.7794(2)
C38 C 0.7788(3) 0.7982(3) 0.6413(2)
C39 C 0.5548(3) 0.7064(3) 0.7972(2)
C40 C 0.3271(3) 0.9059(3) 0.6173(2)
C41 C 0.3643(3) 0.9582(3) 0.5734(2)
C42 C 0.4110(3) 0.7189(4) 0.7493(3)
H19 H 0.379185 0.721952 0.739150
C43 C 0.7269(3) 0.8063(3) 0.6253(2)
C44 C 0.4111(3) 0.9380(3) 0.5810(2)
H20 H 0.439428 0.949799 0.569206
C45 C 0.6306(3) 0.8263(3) 0.5993(2)
H21 H 0.598507 0.833154 0.590764
C46 C 0.5472(3) 0.7993(3) 0.6528(2)
C47 C 0.6849(3) 0.7902(3) 0.6434(2)
H22 H 0.688704 0.772684 0.664413
C48 C 0.4990(3) 0.7383(3) 0.7499(2)
H23 H 0.526837 0.754633 0.740270
C49 C 0.4520(3) 0.7434(3) 0.7341(2)
C50 C 0.6373(3) 0.7999(3) 0.6304(2)
C51 C 0.3740(3) 0.8852(3) 0.6250(2)
H24 H 0.377047 0.861257 0.642718
C52 C 0.4163(3) 0.9003(3) 0.6061(3)
C53 C 0.4820(3) 0.8448(4) 0.6343(2)
C54 C 0.4735(3) 0.7919(4) 0.6798(3)
Cu8 Cu 0.70093(5) 0.94313(5) 0.500000
Cu9 Cu 0.88077(3) 0.82183(3) 0.64822(3)
Cu12 Cu 0.32183(3) 0.61923(3) 0.85178(3)
Cu13 Cu 0.61923(3) 0.67817(3) 0.85178(3)
Cu15 Cu 0.84371(3) 0.76739(3) 0.69428(3)
Cu18 Cu 0.26739(3) 0.65629(3) 0.80572(3)
Cu19 Cu 0.65629(3) 0.73261(3) 0.80572(3)
O25 O 0.6241(2) 0.87968(19) 0.46290(14)
O27 O 0.2329(2) 0.90981(18) 0.71586(14)
O28 O 0.60144(19) 0.9801(2) 0.46459(15)
O30 O 0.1791(2) 0.94191(19) 0.67600(14)
O32 O 0.12158(19) 0.8556(2) 0.67499(15)
O34 O 0.1821(2) 0.81557(19) 0.62538(14)
O37 O 0.17081(19) 0.8268(2) 0.71860(14)
O39 O 0.2268(2) 0.78019(19) 0.66944(15)
O25_2 O 0.3759(2) 0.12032(19) 0.46290(14)
O28_2 O 0.39856(19) 0.0199(2) 0.46459(15)
O35_2 O 0.70717(19) 0.8927(2) 0.46385(14)
O40_2 O 0.6854(2) 0.9927(2) 0.46409(15)
Cu1_2 Cu 0.07195(5) 0.60881(5) 0.500000
O4_2 O 0.0199(2) 0.60144(19) 0.53541(15)
O12_2 O 0.0073(2) 0.6854(2) 0.53591(15)
O13_2 O 0.1374(2) 0.28928(18) 0.66474(15)
O14_2 O 0.12032(19) 0.6241(2) 0.53710(14)
O15_2 O 0.2671(2) 0.59019(18) 0.78414(14)
O17_2 O 0.3209(2) 0.55809(19) 0.82400(14)
O18_2 O 0.0983(2) 0.23950(19) 0.62558(15)
O19_2 O 0.3556(2) 0.37842(19) 0.82501(15)
O21_2 O 0.1073(2) 0.70717(19) 0.53615(14)
O22_2 O 0.3268(2) 0.32919(19) 0.78140(14)
N7_2 N 0.1667(3) 0.5311(2) 0.6297(2)
N8_2 N 0.1737(3) 0.4511(3) 0.6581(2)
N9_2 N 0.2260(3) 0.4420(3) 0.7049(2)
H13_2 H 0.217191 0.410933 0.702512
C28_2 C 0.1113(3) 0.2818(3) 0.6371(2)
C29_2 C 0.3100(3) 0.4168(3) 0.7796(2)
N10_2 N 0.2222(3) 0.5213(3) 0.6790(2)
N11_2 N 0.2166(3) 0.5963(3) 0.6512(2)
H14_2 H 0.240873 0.603419 0.665433
C30_2 C 0.3327(3) 0.3711(3) 0.7961(2)
C31_2 C 0.1265(3) 0.6684(3) 0.5490(2)
C32_2 C 0.1669(3) 0.7219(3) 0.5942(2)
H15_2 H 0.155267 0.750266 0.582327
C33_2 C 0.1576(3) 0.6741(3) 0.5810(2)
C34_2 C 0.0577(3) 0.3217(3) 0.5914(2)
H16_2 H 0.044331 0.290181 0.586120
N12_2 N 0.1203(3) 0.4646(3) 0.6112(2)
H17_2 H 0.108740 0.487208 0.597097
C35_2 C 0.0015(3) 0.3598(3) 0.5462(2)
C36_2 C 0.3143(3) 0.4639(3) 0.7947(2)
H18_2 H 0.333173 0.468131 0.815133
C37_2 C 0.2905(3) 0.5048(3) 0.7794(2)
C38_2 C 0.2018(3) 0.7788(3) 0.6413(2)
C39_2 C 0.2936(3) 0.5548(3) 0.7972(2)
C40_2 C 0.0941(3) 0.3271(3) 0.6173(2)
C41_2 C 0.0418(3) 0.3643(3) 0.5734(2)
C42_2 C 0.2811(4) 0.4110(3) 0.7493(3)
H19_2 H 0.278048 0.379185 0.739150
C43_2 C 0.1937(3) 0.7269(3) 0.6253(2)
C44_2 C 0.0620(3) 0.4111(3) 0.5810(2)
H20_2 H 0.050201 0.439428 0.569206
C45_2 C 0.1737(3) 0.6306(3) 0.5993(2)
H21_2 H 0.166846 0.598507 0.590764
C46_2 C 0.2007(3) 0.5472(3) 0.6528(2)
C47_2 C 0.2098(3) 0.6849(3) 0.6434(2)
H22_2 H 0.227316 0.688704 0.664413
C48_2 C 0.2617(3) 0.4990(3) 0.7499(2)
H23_2 H 0.245367 0.526837 0.740270
C49_2 C 0.2566(3) 0.4520(3) 0.7341(2)
C50_2 C 0.2001(3) 0.6373(3) 0.6304(2)
C51_2 C 0.1148(3) 0.3740(3) 0.6250(2)
H24_2 H 0.138743 0.377047 0.642718
C52_2 C 0.0997(3) 0.4163(3) 0.6061(3)
C53_2 C 0.1552(4) 0.4820(3) 0.6343(2)
C54_2 C 0.2081(4) 0.4735(3) 0.6798(3)
Cu8_2 Cu 0.05687(5) 0.70093(5) 0.500000
O25_3 O 0.12032(19) 0.6241(2) 0.46290(14)
O27_2 O 0.09019(18) 0.2329(2) 0.71586(14)
O28_3 O 0.0199(2) 0.60144(19) 0.46459(15)
O30_2 O 0.05809(19) 0.1791(2) 0.67600(14)
O32_2 O 0.1444(2) 0.12158(19) 0.67499(15)
O37_2 O 0.1732(2) 0.17081(19) 0.71860(14)
Cu2_2 Cu 0.94313(5) 0.29907(5) 0.500000
O1_2 O 0.8626(2) 0.71072(18) 0.66474(15)
O2_2 O 0.87968(19) 0.3759(2) 0.53710(14)
O3_2 O 0.7329(2) 0.40981(18) 0.78414(14)
O5_2 O 0.6791(2) 0.44191(19) 0.82400(14)
O6_2 O 0.9017(2) 0.76050(19) 0.62558(15)
O7_2 O 0.6444(2) 0.62158(19) 0.82501(15)
O9_2 O 0.8927(2) 0.29283(19) 0.53615(14)
O10_2 O 0.6732(2) 0.67081(19) 0.78140(14)
N1_2 N 0.8333(3) 0.4689(2) 0.6297(2)
N2_2 N 0.8263(3) 0.5489(3) 0.6581(2)
N3_2 N 0.7740(3) 0.5580(3) 0.7049(2)
H1_2 H 0.782809 0.589067 0.702512
C1_2 C 0.8887(3) 0.7182(3) 0.6371(2)
C2_2 C 0.6900(3) 0.5832(3) 0.7796(2)
N4_2 N 0.7778(3) 0.4787(3) 0.6790(2)
N5_2 N 0.7834(3) 0.4037(3) 0.6512(2)
H2_2 H 0.759127 0.396581 0.665433
C3_2 C 0.6673(3) 0.6289(3) 0.7961(2)
C4_2 C 0.8735(3) 0.3316(3) 0.5490(2)
C5_2 C 0.8331(3) 0.2781(3) 0.5942(2)
H3_2 H 0.844733 0.249734 0.582327
C6_2 C 0.8424(3) 0.3259(3) 0.5810(2)
C7_2 C 0.9423(3) 0.6783(3) 0.5914(2)
H4_2 H 0.955669 0.709819 0.586120
N6_2 N 0.8797(3) 0.5354(3) 0.6112(2)
H5_2 H 0.891260 0.512792 0.597097
C8_2 C 0.9985(3) 0.6402(3) 0.5462(2)
C9_2 C 0.6857(3) 0.5361(3) 0.7947(2)
H6_2 H 0.666827 0.531869 0.815133
C10_2 C 0.7095(3) 0.4952(3) 0.7794(2)
C11_2 C 0.7982(3) 0.2212(3) 0.6413(2)
C12_2 C 0.7064(3) 0.4452(3) 0.7972(2)
C13_2 C 0.9059(3) 0.6729(3) 0.6173(2)
C14_2 C 0.9582(3) 0.6357(3) 0.5734(2)
C15_2 C 0.7189(4) 0.5890(3) 0.7493(3)
H7_2 H 0.721952 0.620815 0.739150
C16_2 C 0.8063(3) 0.2731(3) 0.6253(2)
C17_2 C 0.9380(3) 0.5889(3) 0.5810(2)
H8_2 H 0.949799 0.560572 0.569206
C18_2 C 0.8263(3) 0.3694(3) 0.5993(2)
H9_2 H 0.833154 0.401493 0.590764
C19_2 C 0.7993(3) 0.4528(3) 0.6528(2)
C20_2 C 0.7902(3) 0.3151(3) 0.6434(2)
H10_2 H 0.772684 0.311296 0.664413
C21_2 C 0.7383(3) 0.5010(3) 0.7499(2)
H11_2 H 0.754633 0.473163 0.740270
C22_2 C 0.7434(3) 0.5480(3) 0.7341(2)
C23_2 C 0.7999(3) 0.3627(3) 0.6304(2)
C24_2 C 0.8852(3) 0.6260(3) 0.6250(2)
H12_2 H 0.861257 0.622953 0.642718
C25_2 C 0.9003(3) 0.5837(3) 0.6061(3)
C26_2 C 0.8448(4) 0.5180(3) 0.6343(2)
C27_2 C 0.7919(4) 0.5265(3) 0.6798(3)
O16_2 O 0.9801(2) 0.39856(19) 0.53541(15)
O24_2 O 0.9927(2) 0.3146(2) 0.53591(15)
Cu7_2 Cu 0.92805(5) 0.39119(5) 0.500000
O26_2 O 0.90981(18) 0.7671(2) 0.71586(14)
O29_2 O 0.94191(19) 0.8209(2) 0.67600(14)
O31_2 O 0.8556(2) 0.87842(19) 0.67499(15)
O35_3 O 0.8927(2) 0.29283(19) 0.46385(14)
O36_2 O 0.8268(2) 0.82919(19) 0.71860(14)
O40_3 O 0.9927(2) 0.3146(2) 0.46409(15)
O35_4 O 0.1073(2) 0.70717(19) 0.46385(14)
O40_4 O 0.0073(2) 0.6854(2) 0.46409(15)
O25_4 O 0.87968(19) 0.3759(2) 0.46290(14)
O28_4 O 0.9801(2) 0.39856(19) 0.46459(15)
Cu1_3 Cu 0.10881(5) 0.42805(5) 0.000000
Cu3_2 Cu 0.32183(3) 0.61923(3) 0.14822(3)
Cu4_2 Cu 0.26739(3) 0.65629(3) 0.19428(3)
O1_3 O 0.21072(18) 0.6374(2) 0.16474(15)
O4_3 O 0.10144(19) 0.4801(2) 0.03541(15)
O6_3 O 0.26050(19) 0.5983(2) 0.12558(15)
O7_3 O 0.12158(19) 0.8556(2) 0.32501(15)
O10_3 O 0.17081(19) 0.8268(2) 0.28140(14)
O12_3 O 0.1854(2) 0.4927(2) 0.03591(15)
N2_3 N 0.0489(3) 0.6737(3) 0.1581(2)
N3_3 N 0.0580(3) 0.7260(3) 0.2049(2)
H1_3 H 0.089067 0.717191 0.202512
C1_3 C 0.2182(3) 0.6113(3) 0.1371(2)
C2_3 C 0.0832(3) 0.8100(3) 0.2796(2)
C3_3 C 0.1289(3) 0.8327(3) 0.2961(2)
C7_3 C 0.1783(3) 0.5577(3) 0.0914(2)
H4_3 H 0.209819 0.544331 0.086120
N6_3 N 0.0354(3) 0.6203(3) 0.1112(2)
H5_3 H 0.012792 0.608740 0.097097
C8_3 C 0.1402(3) 0.5015(3) 0.0462(2)
C9_3 C 0.0361(3) 0.8143(3) 0.2947(2)
H6_3 H 0.031869 0.833173 0.315133
C13_3 C 0.1729(3) 0.5941(3) 0.1173(2)
C14_3 C 0.1357(3) 0.5418(3) 0.0734(2)
C15_3 C 0.0890(3) 0.7811(4) 0.2493(3)
H7_3 H 0.120815 0.778048 0.239150
C17_3 C 0.0889(3) 0.5620(3) 0.0810(2)
H8_3 H 0.060572 0.550201 0.069206
C21_3 C 0.0010(3) 0.7617(3) 0.2499(2)
C22_3 C 0.0480(3) 0.7566(3) 0.2341(2)
C24_3 C 0.1260(3) 0.6148(3) 0.1250(2)
H12_3 H 0.122953 0.638743 0.142718
C25_3 C 0.0837(3) 0.5997(3) 0.1061(3)
C26_3 C 0.0180(3) 0.6552(4) 0.1343(2)
C27_3 C 0.0265(3) 0.7081(4) 0.1798(3)
O14_3 O 0.1241(2) 0.37968(19) 0.03710(14)
O15_3 O 0.09019(18) 0.2329(2) 0.28414(14)
O17_3 O 0.05809(19) 0.1791(2) 0.32400(14)
O20_2 O 0.31557(19) 0.3179(2) 0.12538(14)
O21_3 O 0.20717(19) 0.3927(2) 0.03615(14)
O23_2 O 0.28019(19) 0.2732(2) 0.16944(15)
N7_3 N 0.0311(2) 0.3333(3) 0.1297(2)
N10_3 N 0.0213(3) 0.2778(3) 0.1790(2)
N11_3 N 0.0963(3) 0.2834(3) 0.1512(2)
H14_3 H 0.103419 0.259127 0.165433
C31_3 C 0.1684(3) 0.3735(3) 0.0490(2)
C32_3 C 0.2219(3) 0.3331(3) 0.0942(2)
H15_3 H 0.250266 0.344733 0.082327
C33_3 C 0.1741(3) 0.3424(3) 0.0810(2)
C37_3 C 0.0048(3) 0.2095(3) 0.2794(2)
C38_3 C 0.2788(3) 0.2982(3) 0.1413(2)
C39_3 C 0.0548(3) 0.2064(3) 0.2972(2)
C43_3 C 0.2269(3) 0.3063(3) 0.1253(2)
C45_3 C 0.1306(3) 0.3263(3) 0.0993(2)
H21_3 H 0.098507 0.333154 0.090764
C46_3 C 0.0472(3) 0.2993(3) 0.1528(2)
C47_3 C 0.1849(3) 0.2902(3) 0.1434(2)
H22_3 H 0.188704 0.272684 0.164413
H23_3 H 0.026837 0.254633 0.240270
C50_3 C 0.1373(3) 0.2999(3) 0.1304(2)
Cu8_3 Cu 0.20093(5) 0.44313(5) 0.000000
Cu9_2 Cu 0.38077(3) 0.32183(3) 0.14822(3)
Cu11_2 Cu 0.17817(3) 0.88077(3) 0.35178(3)
Cu13_2 Cu 0.11923(3) 0.17817(3) 0.35178(3)
Cu15_2 Cu 0.34371(3) 0.26739(3) 0.19428(3)
Cu17_2 Cu 0.23261(3) 0.84371(3) 0.30572(3)
Cu19_2 Cu 0.15629(3) 0.23261(3) 0.30572(3)
O26_3 O 0.2671(2) 0.59019(18) 0.21586(14)
O29_3 O 0.3209(2) 0.55809(19) 0.17600(14)
O31_3 O 0.37842(19) 0.6444(2) 0.17499(15)
O33_2 O 0.3179(2) 0.68443(19) 0.12538(14)
O36_3 O 0.32919(19) 0.6732(2) 0.21860(14)
O38_2 O 0.2732(2) 0.71981(19) 0.16944(15)
Cu1_4 Cu 0.10881(5) 0.42805(5) 1.000000
Cu8_4 Cu 0.20093(5) 0.44313(5) 1.000000
O25_5 O 0.1241(2) 0.37968(19) 0.96290(14)
O28_5 O 0.10144(19) 0.4801(2) 0.96459(15)
Cu2_3 Cu 0.79907(5) 0.55687(5) 0.000000
O2_3 O 0.8759(2) 0.62032(19) 0.03710(14)
O3_3 O 0.90981(18) 0.7671(2) 0.28414(14)
O5_3 O 0.94191(19) 0.8209(2) 0.32400(14)
O8_2 O 0.68443(19) 0.6821(2) 0.12538(14)
O9_3 O 0.79283(19) 0.6073(2) 0.03615(14)
O11_2 O 0.71981(19) 0.7268(2) 0.16944(15)
N1_3 N 0.9689(2) 0.6667(3) 0.1297(2)
N4_3 N 0.9787(3) 0.7222(3) 0.1790(2)
N5_3 N 0.9037(3) 0.7166(3) 0.1512(2)
H2_3 H 0.896581 0.740873 0.165433
C4_3 C 0.8316(3) 0.6265(3) 0.0490(2)
C5_3 C 0.7781(3) 0.6669(3) 0.0942(2)
H3_3 H 0.749734 0.655267 0.082327
C6_3 C 0.8259(3) 0.6576(3) 0.0810(2)
C10_3 C 0.9952(3) 0.7905(3) 0.2794(2)
C11_3 C 0.7212(3) 0.7018(3) 0.1413(2)
C12_3 C 0.9452(3) 0.7936(3) 0.2972(2)
C16_3 C 0.7731(3) 0.6937(3) 0.1253(2)
C18_3 C 0.8694(3) 0.6737(3) 0.0993(2)
H9_3 H 0.901493 0.666846 0.090764
C19_3 C 0.9528(3) 0.7007(3) 0.1528(2)
C20_3 C 0.8151(3) 0.7098(3) 0.1434(2)
H10_3 H 0.811296 0.727316 0.164413
H11_3 H 0.973163 0.745367 0.240270
C23_3 C 0.8627(3) 0.7001(3) 0.1304(2)
Cu5_2 Cu 0.67817(3) 0.38077(3) 0.14822(3)
Cu6_2 Cu 0.73261(3) 0.34371(3) 0.19428(3)
O13_3 O 0.78928(18) 0.3626(2) 0.16474(15)
O16_3 O 0.89856(19) 0.5199(2) 0.03541(15)
O18_3 O 0.73950(19) 0.4017(2) 0.12558(15)
O19_3 O 0.87842(19) 0.1444(2) 0.32501(15)
O22_3 O 0.82919(19) 0.1732(2) 0.28140(14)
O24_3 O 0.8146(2) 0.5073(2) 0.03591(15)
N8_3 N 0.9511(3) 0.3263(3) 0.1581(2)
N9_3 N 0.9420(3) 0.2740(3) 0.2049(2)
H13_3 H 0.910933 0.282809 0.202512
C28_3 C 0.7818(3) 0.3887(3) 0.1371(2)
C29_3 C 0.9168(3) 0.1900(3) 0.2796(2)
C30_3 C 0.8711(3) 0.1673(3) 0.2961(2)
C34_3 C 0.8217(3) 0.4423(3) 0.0914(2)
H16_3 H 0.790181 0.455669 0.086120
N12_3 N 0.9646(3) 0.3797(3) 0.1112(2)
H17_3 H 0.987208 0.391260 0.097097
C35_3 C 0.8598(3) 0.4985(3) 0.0462(2)
C36_3 C 0.9639(3) 0.1857(3) 0.2947(2)
H18_3 H 0.968131 0.166827 0.315133
C40_3 C 0.8271(3) 0.4059(3) 0.1173(2)
C41_3 C 0.8643(3) 0.4582(3) 0.0734(2)
C42_3 C 0.9110(3) 0.2189(4) 0.2493(3)
H19_3 H 0.879185 0.221952 0.239150
C44_3 C 0.9111(3) 0.4380(3) 0.0810(2)
H20_3 H 0.939428 0.449799 0.069206
C48_3 C 0.9990(3) 0.2383(3) 0.2499(2)
C49_3 C 0.9520(3) 0.2434(3) 0.2341(2)
C51_3 C 0.8740(3) 0.3852(3) 0.1250(2)
H24_3 H 0.877047 0.361257 0.142718
C52_3 C 0.9163(3) 0.4003(3) 0.1061(3)
C53_3 C 0.9820(3) 0.3448(4) 0.1343(2)
C54_3 C 0.9735(3) 0.2919(4) 0.1798(3)
Cu7_3 Cu 0.89119(5) 0.57195(5) 0.000000
Cu10_2 Cu 0.61923(3) 0.67817(3) 0.14822(3)
Cu12_2 Cu 0.82183(3) 0.11923(3) 0.35178(3)
Cu14_2 Cu 0.88077(3) 0.82183(3) 0.35178(3)
Cu16_2 Cu 0.65629(3) 0.73261(3) 0.19428(3)
Cu18_2 Cu 0.76739(3) 0.15629(3) 0.30572(3)
Cu20_2 Cu 0.84371(3) 0.76739(3) 0.30572(3)
O27_3 O 0.7329(2) 0.40981(18) 0.21586(14)
O30_3 O 0.6791(2) 0.44191(19) 0.17600(14)
O32_3 O 0.62158(19) 0.3556(2) 0.17499(15)
O34_2 O 0.6821(2) 0.31557(19) 0.12538(14)
O37_3 O 0.67081(19) 0.3268(2) 0.21860(14)
O39_2 O 0.7268(2) 0.28019(19) 0.16944(15)
Cu2_4 Cu 0.79907(5) 0.55687(5) 1.000000
Cu7_4 Cu 0.89119(5) 0.57195(5) 1.000000
O35_5 O 0.79283(19) 0.6073(2) 0.96385(14)
O40_5 O 0.8146(2) 0.5073(2) 0.96409(15)
O35_6 O 0.20717(19) 0.3927(2) 0.96385(14)
O40_6 O 0.1854(2) 0.4927(2) 0.96409(15)
O25_6 O 0.8759(2) 0.62032(19) 0.96290(14)
O28_6 O 0.89856(19) 0.5199(2) 0.96459(15)
Cu1_5 Cu 0.57195(5) 0.10881(5) 0.000000
O1_4 O 0.3626(2) 0.21072(18) 0.16474(15)
O4_4 O 0.5199(2) 0.10144(19) 0.03541(15)
O6_4 O 0.4017(2) 0.26050(19) 0.12558(15)
O7_4 O 0.1444(2) 0.12158(19) 0.32501(15)
O10_4 O 0.1732(2) 0.17081(19) 0.28140(14)
O12_4 O 0.5073(2) 0.1854(2) 0.03591(15)
N2_4 N 0.3263(3) 0.0489(3) 0.1581(2)
N3_4 N 0.2740(3) 0.0580(3) 0.2049(2)
H1_4 H 0.282809 0.089067 0.202512
C1_4 C 0.3887(3) 0.2182(3) 0.1371(2)
C2_4 C 0.1900(3) 0.0832(3) 0.2796(2)
C3_4 C 0.1673(3) 0.1289(3) 0.2961(2)
C7_4 C 0.4423(3) 0.1783(3) 0.0914(2)
H4_4 H 0.455669 0.209819 0.086120
N6_4 N 0.3797(3) 0.0354(3) 0.1112(2)
H5_4 H 0.391260 0.012792 0.097097
C8_4 C 0.4985(3) 0.1402(3) 0.0462(2)
C9_4 C 0.1857(3) 0.0361(3) 0.2947(2)
H6_4 H 0.166827 0.031869 0.315133
C13_4 C 0.4059(3) 0.1729(3) 0.1173(2)
C14_4 C 0.4582(3) 0.1357(3) 0.0734(2)
C15_4 C 0.2189(4) 0.0890(3) 0.2493(3)
H7_4 H 0.221952 0.120815 0.239150
C17_4 C 0.4380(3) 0.0889(3) 0.0810(2)
H8_4 H 0.449799 0.060572 0.069206
C21_4 C 0.2383(3) 0.0010(3) 0.2499(2)
C22_4 C 0.2434(3) 0.0480(3) 0.2341(2)
C24_4 C 0.3852(3) 0.1260(3) 0.1250(2)
H12_4 H 0.361257 0.122953 0.142718
C25_4 C 0.4003(3) 0.0837(3) 0.1061(3)
C26_4 C 0.3448(4) 0.0180(3) 0.1343(2)
C27_4 C 0.2919(4) 0.0265(3) 0.1798(3)
O14_4 O 0.62032(19) 0.1241(2) 0.03710(14)
O15_4 O 0.7671(2) 0.09019(18) 0.28414(14)
O17_4 O 0.8209(2) 0.05809(19) 0.32400(14)
O21_4 O 0.6073(2) 0.20717(19) 0.03615(14)
N7_4 N 0.6667(3) 0.0311(2) 0.1297(2)
N10_4 N 0.7222(3) 0.0213(3) 0.1790(2)
N11_4 N 0.7166(3) 0.0963(3) 0.1512(2)
H14_4 H 0.740873 0.103419 0.165433
C31_4 C 0.6265(3) 0.1684(3) 0.0490(2)
C32_4 C 0.6669(3) 0.2219(3) 0.0942(2)
H15_4 H 0.655267 0.250266 0.082327
C33_4 C 0.6576(3) 0.1741(3) 0.0810(2)
C37_4 C 0.7905(3) 0.0048(3) 0.2794(2)
C38_4 C 0.7018(3) 0.2788(3) 0.1413(2)
C39_4 C 0.7936(3) 0.0548(3) 0.2972(2)
C43_4 C 0.6937(3) 0.2269(3) 0.1253(2)
C45_4 C 0.6737(3) 0.1306(3) 0.0993(2)
H21_4 H 0.666846 0.098507 0.090764
C46_4 C 0.7007(3) 0.0472(3) 0.1528(2)
C47_4 C 0.7098(3) 0.1849(3) 0.1434(2)
H22_4 H 0.727316 0.188704 0.164413
H23_4 H 0.745367 0.026837 0.240270
C50_4 C 0.7001(3) 0.1373(3) 0.1304(2)
Cu8_5 Cu 0.55687(5) 0.20093(5) 0.000000
O26_4 O 0.40981(18) 0.2671(2) 0.21586(14)
O29_4 O 0.44191(19) 0.3209(2) 0.17600(14)
O31_4 O 0.3556(2) 0.37842(19) 0.17499(15)
O36_4 O 0.3268(2) 0.32919(19) 0.21860(14)
Cu1_6 Cu 0.57195(5) 0.10881(5) 1.000000
Cu8_6 Cu 0.55687(5) 0.20093(5) 1.000000
O25_7 O 0.62032(19) 0.1241(2) 0.96290(14)
O28_7 O 0.5199(2) 0.10144(19) 0.96459(15)
Cu2_5 Cu 0.44313(5) 0.79907(5) 0.000000
O2_4 O 0.37968(19) 0.8759(2) 0.03710(14)
O3_4 O 0.2329(2) 0.90981(18) 0.28414(14)
O5_4 O 0.1791(2) 0.94191(19) 0.32400(14)
O9_4 O 0.3927(2) 0.79283(19) 0.03615(14)
N1_4 N 0.3333(3) 0.9689(2) 0.1297(2)
N4_4 N 0.2778(3) 0.9787(3) 0.1790(2)
N5_4 N 0.2834(3) 0.9037(3) 0.1512(2)
H2_4 H 0.259127 0.896581 0.165433
C4_4 C 0.3735(3) 0.8316(3) 0.0490(2)
C5_4 C 0.3331(3) 0.7781(3) 0.0942(2)
H3_4 H 0.344733 0.749734 0.082327
C6_4 C 0.3424(3) 0.8259(3) 0.0810(2)
C10_4 C 0.2095(3) 0.9952(3) 0.2794(2)
C11_4 C 0.2982(3) 0.7212(3) 0.1413(2)
C12_4 C 0.2064(3) 0.9452(3) 0.2972(2)
C16_4 C 0.3063(3) 0.7731(3) 0.1253(2)
C18_4 C 0.3263(3) 0.8694(3) 0.0993(2)
H9_4 H 0.333154 0.901493 0.090764
C19_4 C 0.2993(3) 0.9528(3) 0.1528(2)
C20_4 C 0.2902(3) 0.8151(3) 0.1434(2)
H10_4 H 0.272684 0.811296 0.164413
H11_4 H 0.254633 0.973163 0.240270
C23_4 C 0.2999(3) 0.8627(3) 0.1304(2)
O13_4 O 0.6374(2) 0.78928(18) 0.16474(15)
O16_4 O 0.4801(2) 0.89856(19) 0.03541(15)
O18_4 O 0.5983(2) 0.73950(19) 0.12558(15)
O19_4 O 0.8556(2) 0.87842(19) 0.32501(15)
O22_4 O 0.8268(2) 0.82919(19) 0.28140(14)
O24_4 O 0.4927(2) 0.8146(2) 0.03591(15)
N8_4 N 0.6737(3) 0.9511(3) 0.1581(2)
N9_4 N 0.7260(3) 0.9420(3) 0.2049(2)
H13_4 H 0.717191 0.910933 0.202512
C28_4 C 0.6113(3) 0.7818(3) 0.1371(2)
C29_4 C 0.8100(3) 0.9168(3) 0.2796(2)
C30_4 C 0.8327(3) 0.8711(3) 0.2961(2)
C34_4 C 0.5577(3) 0.8217(3) 0.0914(2)
H16_4 H 0.544331 0.790181 0.086120
N12_4 N 0.6203(3) 0.9646(3) 0.1112(2)
H17_4 H 0.608740 0.987208 0.097097
C35_4 C 0.5015(3) 0.8598(3) 0.0462(2)
C36_4 C 0.8143(3) 0.9639(3) 0.2947(2)
H18_4 H 0.833173 0.968131 0.315133
C40_4 C 0.5941(3) 0.8271(3) 0.1173(2)
C41_4 C 0.5418(3) 0.8643(3) 0.0734(2)
C42_4 C 0.7811(4) 0.9110(3) 0.2493(3)
H19_4 H 0.778048 0.879185 0.239150
C44_4 C 0.5620(3) 0.9111(3) 0.0810(2)
H20_4 H 0.550201 0.939428 0.069206
C48_4 C 0.7617(3) 0.9990(3) 0.2499(2)
C49_4 C 0.7566(3) 0.9520(3) 0.2341(2)
C51_4 C 0.6148(3) 0.8740(3) 0.1250(2)
H24_4 H 0.638743 0.877047 0.142718
C52_4 C 0.5997(3) 0.9163(3) 0.1061(3)
C53_4 C 0.6552(4) 0.9820(3) 0.1343(2)
C54_4 C 0.7081(4) 0.9735(3) 0.1798(3)
Cu7_5 Cu 0.42805(5) 0.89119(5) 0.000000
O27_4 O 0.59019(18) 0.7329(2) 0.21586(14)
O30_4 O 0.55809(19) 0.6791(2) 0.17600(14)
O32_4 O 0.6444(2) 0.62158(19) 0.17499(15)
O37_4 O 0.6732(2) 0.67081(19) 0.21860(14)
Cu2_6 Cu 0.44313(5) 0.79907(5) 1.000000
Cu7_6 Cu 0.42805(5) 0.89119(5) 1.000000
O35_7 O 0.3927(2) 0.79283(19) 0.96385(14)
O40_7 O 0.4927(2) 0.8146(2) 0.96409(15)
O35_8 O 0.6073(2) 0.20717(19) 0.96385(14)
O40_8 O 0.5073(2) 0.1854(2) 0.96409(15)
O25_8 O 0.37968(19) 0.8759(2) 0.96290(14)
O28_8 O 0.4801(2) 0.89856(19) 0.96459(15)
O13_5 O 0.71072(18) 0.1374(2) 0.33526(15)
O18_5 O 0.76050(19) 0.0983(2) 0.37442(15)
O20_3 O 0.18443(19) 0.1821(2) 0.37462(14)
O23_3 O 0.21981(19) 0.2268(2) 0.33056(15)
N7_5 N 0.4689(2) 0.1667(3) 0.3703(2)
N8_5 N 0.5489(3) 0.1737(3) 0.3419(2)
N9_5 N 0.5580(3) 0.2260(3) 0.2951(2)
H13_5 H 0.589067 0.217191 0.297488
C28_5 C 0.7182(3) 0.1113(3) 0.3629(2)
C29_5 C 0.5832(3) 0.3100(3) 0.2204(2)
N10_5 N 0.4787(3) 0.2222(3) 0.3210(2)
N11_5 N 0.4037(3) 0.2166(3) 0.3488(2)
H14_5 H 0.396581 0.240873 0.334567
C30_5 C 0.6289(3) 0.3327(3) 0.2039(2)
C31_5 C 0.3316(3) 0.1265(3) 0.4510(2)
C32_5 C 0.2781(3) 0.1669(3) 0.4058(2)
H15_5 H 0.249734 0.155267 0.417673
C33_5 C 0.3259(3) 0.1576(3) 0.4190(2)
C34_5 C 0.6783(3) 0.0577(3) 0.4086(2)
H16_5 H 0.709819 0.044331 0.413880
N12_5 N 0.5354(3) 0.1203(3) 0.3888(2)
H17_5 H 0.512792 0.108740 0.402903
C35_5 C 0.6402(3) 0.0015(3) 0.4538(2)
C36_5 C 0.5361(3) 0.3143(3) 0.2053(2)
H18_5 H 0.531869 0.333173 0.184867
C37_5 C 0.4952(3) 0.2905(3) 0.2206(2)
C38_5 C 0.2212(3) 0.2018(3) 0.3587(2)
C39_5 C 0.4452(3) 0.2936(3) 0.2028(2)
C40_5 C 0.6729(3) 0.0941(3) 0.3827(2)
C41_5 C 0.6357(3) 0.0418(3) 0.4266(2)
C42_5 C 0.5890(3) 0.2811(4) 0.2507(3)
H19_5 H 0.620815 0.278048 0.260850
C43_5 C 0.2731(3) 0.1937(3) 0.3747(2)
C44_5 C 0.5889(3) 0.0620(3) 0.4190(2)
H20_5 H 0.560572 0.050201 0.430794
C45_5 C 0.3694(3) 0.1737(3) 0.4007(2)
H21_5 H 0.401493 0.166846 0.409236
C46_5 C 0.4528(3) 0.2007(3) 0.3472(2)
C47_5 C 0.3151(3) 0.2098(3) 0.3566(2)
H22_5 H 0.311296 0.227316 0.335587
C48_5 C 0.5010(3) 0.2617(3) 0.2501(2)
H23_5 H 0.473163 0.245367 0.259730
C49_5 C 0.5480(3) 0.2566(3) 0.2659(2)
C50_5 C 0.3627(3) 0.2001(3) 0.3696(2)
C51_5 C 0.6260(3) 0.1148(3) 0.3750(2)
H24_5 H 0.622953 0.138743 0.357282
C52_5 C 0.5837(3) 0.0997(3) 0.3939(3)
C53_5 C 0.5180(3) 0.1552(4) 0.3657(2)
C54_5 C 0.5265(3) 0.2081(4) 0.3202(3)
O34_3 O 0.8179(2) 0.18443(19) 0.37462(14)
O39_3 O 0.7732(2) 0.21981(19) 0.33056(15)
O1_5 O 0.28928(18) 0.8626(2) 0.33526(15)
O6_5 O 0.23950(19) 0.9017(2) 0.37442(15)
O8_3 O 0.81557(19) 0.8179(2) 0.37462(14)
O11_3 O 0.78019(19) 0.7732(2) 0.33056(15)
N1_5 N 0.5311(2) 0.8333(3) 0.3703(2)
N2_5 N 0.4511(3) 0.8263(3) 0.3419(2)
N3_5 N 0.4420(3) 0.7740(3) 0.2951(2)
H1_5 H 0.410933 0.782809 0.297488
C1_5 C 0.2818(3) 0.8887(3) 0.3629(2)
C2_5 C 0.4168(3) 0.6900(3) 0.2204(2)
N4_5 N 0.5213(3) 0.7778(3) 0.3210(2)
N5_5 N 0.5963(3) 0.7834(3) 0.3488(2)
H2_5 H 0.603419 0.759127 0.334567
C3_5 C 0.3711(3) 0.6673(3) 0.2039(2)
C4_5 C 0.6684(3) 0.8735(3) 0.4510(2)
C5_5 C 0.7219(3) 0.8331(3) 0.4058(2)
H3_5 H 0.750266 0.844733 0.417673
C6_5 C 0.6741(3) 0.8424(3) 0.4190(2)
C7_5 C 0.3217(3) 0.9423(3) 0.4086(2)
H4_5 H 0.290181 0.955669 0.413880
N6_5 N 0.4646(3) 0.8797(3) 0.3888(2)
H5_5 H 0.487208 0.891260 0.402903
C8_5 C 0.3598(3) 0.9985(3) 0.4538(2)
C9_5 C 0.4639(3) 0.6857(3) 0.2053(2)
H6_5 H 0.468131 0.666827 0.184867
C10_5 C 0.5048(3) 0.7095(3) 0.2206(2)
C11_5 C 0.7788(3) 0.7982(3) 0.3587(2)
C12_5 C 0.5548(3) 0.7064(3) 0.2028(2)
C13_5 C 0.3271(3) 0.9059(3) 0.3827(2)
C14_5 C 0.3643(3) 0.9582(3) 0.4266(2)
C15_5 C 0.4110(3) 0.7189(4) 0.2507(3)
H7_5 H 0.379185 0.721952 0.260850
C16_5 C 0.7269(3) 0.8063(3) 0.3747(2)
C17_5 C 0.4111(3) 0.9380(3) 0.4190(2)
H8_5 H 0.439428 0.949799 0.430794
C18_5 C 0.6306(3) 0.8263(3) 0.4007(2)
H9_5 H 0.598507 0.833154 0.409236
C19_5 C 0.5472(3) 0.7993(3) 0.3472(2)
C20_5 C 0.6849(3) 0.7902(3) 0.3566(2)
H10_5 H 0.688704 0.772684 0.335587
C21_5 C 0.4990(3) 0.7383(3) 0.2501(2)
H11_5 H 0.526837 0.754633 0.259730
C22_5 C 0.4520(3) 0.7434(3) 0.2659(2)
C23_5 C 0.6373(3) 0.7999(3) 0.3696(2)
C24_5 C 0.3740(3) 0.8852(3) 0.3750(2)
H12_5 H 0.377047 0.861257 0.357282
C25_5 C 0.4163(3) 0.9003(3) 0.3939(3)
C26_5 C 0.4820(3) 0.8448(4) 0.3657(2)
C27_5 C 0.4735(3) 0.7919(4) 0.3202(3)
O33_3 O 0.1821(2) 0.81557(19) 0.37462(14)
O38_3 O 0.2268(2) 0.78019(19) 0.33056(15)
O1_6 O 0.1374(2) 0.28928(18) 0.33526(15)
O6_6 O 0.0983(2) 0.23950(19) 0.37442(15)
N1_6 N 0.1667(3) 0.5311(2) 0.3703(2)
N2_6 N 0.1737(3) 0.4511(3) 0.3419(2)
N3_6 N 0.2260(3) 0.4420(3) 0.2951(2)
H1_6 H 0.217191 0.410933 0.297488
C1_6 C 0.1113(3) 0.2818(3) 0.3629(2)
C2_6 C 0.3100(3) 0.4168(3) 0.2204(2)
N4_6 N 0.2222(3) 0.5213(3) 0.3210(2)
N5_6 N 0.2166(3) 0.5963(3) 0.3488(2)
H2_6 H 0.240873 0.603419 0.334567
C3_6 C 0.3327(3) 0.3711(3) 0.2039(2)
C4_6 C 0.1265(3) 0.6684(3) 0.4510(2)
C5_6 C 0.1669(3) 0.7219(3) 0.4058(2)
H3_6 H 0.155267 0.750266 0.417673
C6_6 C 0.1576(3) 0.6741(3) 0.4190(2)
C7_6 C 0.0577(3) 0.3217(3) 0.4086(2)
H4_6 H 0.044331 0.290181 0.413880
N6_6 N 0.1203(3) 0.4646(3) 0.3888(2)
H5_6 H 0.108740 0.487208 0.402903
C8_6 C 0.0015(3) 0.3598(3) 0.4538(2)
C9_6 C 0.3143(3) 0.4639(3) 0.2053(2)
H6_6 H 0.333173 0.468131 0.184867
C10_6 C 0.2905(3) 0.5048(3) 0.2206(2)
C11_6 C 0.2018(3) 0.7788(3) 0.3587(2)
C12_6 C 0.2936(3) 0.5548(3) 0.2028(2)
C13_6 C 0.0941(3) 0.3271(3) 0.3827(2)
C14_6 C 0.0418(3) 0.3643(3) 0.4266(2)
C15_6 C 0.2811(4) 0.4110(3) 0.2507(3)
H7_6 H 0.278048 0.379185 0.260850
C16_6 C 0.1937(3) 0.7269(3) 0.3747(2)
C17_6 C 0.0620(3) 0.4111(3) 0.4190(2)
H8_6 H 0.050201 0.439428 0.430794
C18_6 C 0.1737(3) 0.6306(3) 0.4007(2)
H9_6 H 0.166846 0.598507 0.409236
C19_6 C 0.2007(3) 0.5472(3) 0.3472(2)
C20_6 C 0.2098(3) 0.6849(3) 0.3566(2)
H10_6 H 0.227316 0.688704 0.335587
C21_6 C 0.2617(3) 0.4990(3) 0.2501(2)
H11_6 H 0.245367 0.526837 0.259730
C22_6 C 0.2566(3) 0.4520(3) 0.2659(2)
C23_6 C 0.2001(3) 0.6373(3) 0.3696(2)
C24_6 C 0.1148(3) 0.3740(3) 0.3750(2)
H12_6 H 0.138743 0.377047 0.357282
C25_6 C 0.0997(3) 0.4163(3) 0.3939(3)
C26_6 C 0.1552(4) 0.4820(3) 0.3657(2)
C27_6 C 0.2081(4) 0.4735(3) 0.3202(3)
O13_6 O 0.8626(2) 0.71072(18) 0.33526(15)
O18_6 O 0.9017(2) 0.76050(19) 0.37442(15)
N7_6 N 0.8333(3) 0.4689(2) 0.3703(2)
N8_6 N 0.8263(3) 0.5489(3) 0.3419(2)
N9_6 N 0.7740(3) 0.5580(3) 0.2951(2)
H13_6 H 0.782809 0.589067 0.297488
C28_6 C 0.8887(3) 0.7182(3) 0.3629(2)
C29_6 C 0.6900(3) 0.5832(3) 0.2204(2)
N10_6 N 0.7778(3) 0.4787(3) 0.3210(2)
N11_6 N 0.7834(3) 0.4037(3) 0.3488(2)
H14_6 H 0.759127 0.396581 0.334567
C30_6 C 0.6673(3) 0.6289(3) 0.2039(2)
C31_6 C 0.8735(3) 0.3316(3) 0.4510(2)
C32_6 C 0.8331(3) 0.2781(3) 0.4058(2)
H15_6 H 0.844733 0.249734 0.417673
C33_6 C 0.8424(3) 0.3259(3) 0.4190(2)
C34_6 C 0.9423(3) 0.6783(3) 0.4086(2)
H16_6 H 0.955669 0.709819 0.413880
N12_6 N 0.8797(3) 0.5354(3) 0.3888(2)
H17_6 H 0.891260 0.512792 0.402903
C35_6 C 0.9985(3) 0.6402(3) 0.4538(2)
C36_6 C 0.6857(3) 0.5361(3) 0.2053(2)
H18_6 H 0.666827 0.531869 0.184867
C37_6 C 0.7095(3) 0.4952(3) 0.2206(2)
C38_6 C 0.7982(3) 0.2212(3) 0.3587(2)
C39_6 C 0.7064(3) 0.4452(3) 0.2028(2)
C40_6 C 0.9059(3) 0.6729(3) 0.3827(2)
C41_6 C 0.9582(3) 0.6357(3) 0.4266(2)
C42_6 C 0.7189(4) 0.5890(3) 0.2507(3)
H19_6 H 0.721952 0.620815 0.260850
C43_6 C 0.8063(3) 0.2731(3) 0.3747(2)
C44_6 C 0.9380(3) 0.5889(3) 0.4190(2)
H20_6 H 0.949799 0.560572 0.430794
C45_6 C 0.8263(3) 0.3694(3) 0.4007(2)
H21_6 H 0.833154 0.401493 0.409236
C46_6 C 0.7993(3) 0.4528(3) 0.3472(2)
C47_6 C 0.7902(3) 0.3151(3) 0.3566(2)
H22_6 H 0.772684 0.311296 0.335587
C48_6 C 0.7383(3) 0.5010(3) 0.2501(2)
H23_6 H 0.754633 0.473163 0.259730
C49_6 C 0.7434(3) 0.5480(3) 0.2659(2)
C50_6 C 0.7999(3) 0.3627(3) 0.3696(2)
C51_6 C 0.8852(3) 0.6260(3) 0.3750(2)
H24_6 H 0.861257 0.622953 0.357282
C52_6 C 0.9003(3) 0.5837(3) 0.3939(3)
C53_6 C 0.8448(4) 0.5180(3) 0.3657(2)
C54_6 C 0.7919(4) 0.5265(3) 0.3202(3)
O8_4 O 0.31557(19) 0.3179(2) 0.87462(14)
O11_4 O 0.28019(19) 0.2732(2) 0.83056(15)
N1_7 N 0.0311(2) 0.3333(3) 0.8703(2)
N4_7 N 0.0213(3) 0.2778(3) 0.8210(2)
N5_7 N 0.0963(3) 0.2834(3) 0.8488(2)
H2_7 H 0.103419 0.259127 0.834567
C4_7 C 0.1684(3) 0.3735(3) 0.9510(2)
C5_7 C 0.2219(3) 0.3331(3) 0.9058(2)
H3_7 H 0.250266 0.344733 0.917673
C6_7 C 0.1741(3) 0.3424(3) 0.9190(2)
C10_7 C 0.0048(3) 0.2095(3) 0.7206(2)
C11_7 C 0.2788(3) 0.2982(3) 0.8587(2)
C12_7 C 0.0548(3) 0.2064(3) 0.7028(2)
C16_7 C 0.2269(3) 0.3063(3) 0.8747(2)
C18_7 C 0.1306(3) 0.3263(3) 0.9007(2)
H9_7 H 0.098507 0.333154 0.909236
C19_7 C 0.0472(3) 0.2993(3) 0.8472(2)
C20_7 C 0.1849(3) 0.2902(3) 0.8566(2)
H10_7 H 0.188704 0.272684 0.835587
H11_7 H 0.026837 0.254633 0.759730
C23_7 C 0.1373(3) 0.2999(3) 0.8696(2)
O13_7 O 0.21072(18) 0.6374(2) 0.83526(15)
O18_7 O 0.26050(19) 0.5983(2) 0.87442(15)
N8_7 N 0.0489(3) 0.6737(3) 0.8419(2)
N9_7 N 0.0580(3) 0.7260(3) 0.7951(2)
H13_7 H 0.089067 0.717191 0.797488
C28_7 C 0.2182(3) 0.6113(3) 0.8629(2)
C29_7 C 0.0832(3) 0.8100(3) 0.7204(2)
C30_7 C 0.1289(3) 0.8327(3) 0.7039(2)
C34_7 C 0.1783(3) 0.5577(3) 0.9086(2)
H16_7 H 0.209819 0.544331 0.913880
N12_7 N 0.0354(3) 0.6203(3) 0.8888(2)
H17_7 H 0.012792 0.608740 0.902903
C35_7 C 0.1402(3) 0.5015(3) 0.9538(2)
C36_7 C 0.0361(3) 0.8143(3) 0.7053(2)
H18_7 H 0.031869 0.833173 0.684867
C40_7 C 0.1729(3) 0.5941(3) 0.8827(2)
C41_7 C 0.1357(3) 0.5418(3) 0.9266(2)
C42_7 C 0.0890(3) 0.7811(4) 0.7507(3)
H19_7 H 0.120815 0.778048 0.760850
C44_7 C 0.0889(3) 0.5620(3) 0.9190(2)
H20_7 H 0.060572 0.550201 0.930794
C48_7 C 0.0010(3) 0.7617(3) 0.7501(2)
C49_7 C 0.0480(3) 0.7566(3) 0.7659(2)
C51_7 C 0.1260(3) 0.6148(3) 0.8750(2)
H24_7 H 0.122953 0.638743 0.857282
C52_7 C 0.0837(3) 0.5997(3) 0.8939(3)
C53_7 C 0.0180(3) 0.6552(4) 0.8657(2)
C54_7 C 0.0265(3) 0.7081(4) 0.8202(3)
O34_4 O 0.3179(2) 0.68443(19) 0.87462(14)
O39_4 O 0.2732(2) 0.71981(19) 0.83056(15)
O1_7 O 0.78928(18) 0.3626(2) 0.83526(15)
O6_7 O 0.73950(19) 0.4017(2) 0.87442(15)
N2_7 N 0.9511(3) 0.3263(3) 0.8419(2)
N3_7 N 0.9420(3) 0.2740(3) 0.7951(2)
H1_7 H 0.910933 0.282809 0.797488
C1_7 C 0.7818(3) 0.3887(3) 0.8629(2)
C2_7 C 0.9168(3) 0.1900(3) 0.7204(2)
C3_7 C 0.8711(3) 0.1673(3) 0.7039(2)
C7_7 C 0.8217(3) 0.4423(3) 0.9086(2)
H4_7 H 0.790181 0.455669 0.913880
N6_7 N 0.9646(3) 0.3797(3) 0.8888(2)
H5_7 H 0.987208 0.391260 0.902903
C8_7 C 0.8598(3) 0.4985(3) 0.9538(2)
C9_7 C 0.9639(3) 0.1857(3) 0.7053(2)
H6_7 H 0.968131 0.166827 0.684867
C13_7 C 0.8271(3) 0.4059(3) 0.8827(2)
C14_7 C 0.8643(3) 0.4582(3) 0.9266(2)
C15_7 C 0.9110(3) 0.2189(4) 0.7507(3)
H7_7 H 0.879185 0.221952 0.760850
C17_7 C 0.9111(3) 0.4380(3) 0.9190(2)
H8_7 H 0.939428 0.449799 0.930794
C21_7 C 0.9990(3) 0.2383(3) 0.7501(2)
C22_7 C 0.9520(3) 0.2434(3) 0.7659(2)
C24_7 C 0.8740(3) 0.3852(3) 0.8750(2)
H12_7 H 0.877047 0.361257 0.857282
C25_7 C 0.9163(3) 0.4003(3) 0.8939(3)
C26_7 C 0.9820(3) 0.3448(4) 0.8657(2)
C27_7 C 0.9735(3) 0.2919(4) 0.8202(3)
O20_4 O 0.68443(19) 0.6821(2) 0.87462(14)
O23_4 O 0.71981(19) 0.7268(2) 0.83056(15)
N7_7 N 0.9689(2) 0.6667(3) 0.8703(2)
N10_7 N 0.9787(3) 0.7222(3) 0.8210(2)
N11_7 N 0.9037(3) 0.7166(3) 0.8488(2)
H14_7 H 0.896581 0.740873 0.834567
C31_7 C 0.8316(3) 0.6265(3) 0.9510(2)
C32_7 C 0.7781(3) 0.6669(3) 0.9058(2)
H15_7 H 0.749734 0.655267 0.917673
C33_7 C 0.8259(3) 0.6576(3) 0.9190(2)
C37_7 C 0.9952(3) 0.7905(3) 0.7206(2)
C38_7 C 0.7212(3) 0.7018(3) 0.8587(2)
C39_7 C 0.9452(3) 0.7936(3) 0.7028(2)
C43_7 C 0.7731(3) 0.6937(3) 0.8747(2)
C45_7 C 0.8694(3) 0.6737(3) 0.9007(2)
H21_7 H 0.901493 0.666846 0.909236
C46_7 C 0.9528(3) 0.7007(3) 0.8472(2)
C47_7 C 0.8151(3) 0.7098(3) 0.8566(2)
H22_7 H 0.811296 0.727316 0.835587
H23_7 H 0.973163 0.745367 0.759730
C50_7 C 0.8627(3) 0.7001(3) 0.8696(2)
O33_4 O 0.6821(2) 0.31557(19) 0.87462(14)
O38_4 O 0.7268(2) 0.28019(19) 0.83056(15)
N1_8 N 0.6667(3) 0.0311(2) 0.8703(2)
N4_8 N 0.7222(3) 0.0213(3) 0.8210(2)
N5_8 N 0.7166(3) 0.0963(3) 0.8488(2)
H2_8 H 0.740873 0.103419 0.834567
C4_8 C 0.6265(3) 0.1684(3) 0.9510(2)
C5_8 C 0.6669(3) 0.2219(3) 0.9058(2)
H3_8 H 0.655267 0.250266 0.917673
C6_8 C 0.6576(3) 0.1741(3) 0.9190(2)
C10_8 C 0.7905(3) 0.0048(3) 0.7206(2)
C11_8 C 0.7018(3) 0.2788(3) 0.8587(2)
C12_8 C 0.7936(3) 0.0548(3) 0.7028(2)
C16_8 C 0.6937(3) 0.2269(3) 0.8747(2)
C18_8 C 0.6737(3) 0.1306(3) 0.9007(2)
H9_8 H 0.666846 0.098507 0.909236
C19_8 C 0.7007(3) 0.0472(3) 0.8472(2)
C20_8 C 0.7098(3) 0.1849(3) 0.8566(2)
H10_8 H 0.727316 0.188704 0.835587
H11_8 H 0.745367 0.026837 0.759730
C23_8 C 0.7001(3) 0.1373(3) 0.8696(2)
O13_8 O 0.3626(2) 0.21072(18) 0.83526(15)
O18_8 O 0.4017(2) 0.26050(19) 0.87442(15)
N8_8 N 0.3263(3) 0.0489(3) 0.8419(2)
N9_8 N 0.2740(3) 0.0580(3) 0.7951(2)
H13_8 H 0.282809 0.089067 0.797488
C28_8 C 0.3887(3) 0.2182(3) 0.8629(2)
C29_8 C 0.1900(3) 0.0832(3) 0.7204(2)
C30_8 C 0.1673(3) 0.1289(3) 0.7039(2)
C34_8 C 0.4423(3) 0.1783(3) 0.9086(2)
H16_8 H 0.455669 0.209819 0.913880
N12_8 N 0.3797(3) 0.0354(3) 0.8888(2)
H17_8 H 0.391260 0.012792 0.902903
C35_8 C 0.4985(3) 0.1402(3) 0.9538(2)
C36_8 C 0.1857(3) 0.0361(3) 0.7053(2)
H18_8 H 0.166827 0.031869 0.684867
C40_8 C 0.4059(3) 0.1729(3) 0.8827(2)
C41_8 C 0.4582(3) 0.1357(3) 0.9266(2)
C42_8 C 0.2189(4) 0.0890(3) 0.7507(3)
H19_8 H 0.221952 0.120815 0.760850
C44_8 C 0.4380(3) 0.0889(3) 0.9190(2)
H20_8 H 0.449799 0.060572 0.930794
C48_8 C 0.2383(3) 0.0010(3) 0.7501(2)
C49_8 C 0.2434(3) 0.0480(3) 0.7659(2)
C51_8 C 0.3852(3) 0.1260(3) 0.8750(2)
H24_8 H 0.361257 0.122953 0.857282
C52_8 C 0.4003(3) 0.0837(3) 0.8939(3)
C53_8 C 0.3448(4) 0.0180(3) 0.8657(2)
C54_8 C 0.2919(4) 0.0265(3) 0.8202(3)
O1_8 O 0.6374(2) 0.78928(18) 0.83526(15)
O6_8 O 0.5983(2) 0.73950(19) 0.87442(15)
N2_8 N 0.6737(3) 0.9511(3) 0.8419(2)
N3_8 N 0.7260(3) 0.9420(3) 0.7951(2)
H1_8 H 0.717191 0.910933 0.797488
C1_8 C 0.6113(3) 0.7818(3) 0.8629(2)
C2_8 C 0.8100(3) 0.9168(3) 0.7204(2)
C3_8 C 0.8327(3) 0.8711(3) 0.7039(2)
C7_8 C 0.5577(3) 0.8217(3) 0.9086(2)
H4_8 H 0.544331 0.790181 0.913880
N6_8 N 0.6203(3) 0.9646(3) 0.8888(2)
H5_8 H 0.608740 0.987208 0.902903
C8_8 C 0.5015(3) 0.8598(3) 0.9538(2)
C9_8 C 0.8143(3) 0.9639(3) 0.7053(2)
H6_8 H 0.833173 0.968131 0.684867
C13_8 C 0.5941(3) 0.8271(3) 0.8827(2)
C14_8 C 0.5418(3) 0.8643(3) 0.9266(2)
C15_8 C 0.7811(4) 0.9110(3) 0.7507(3)
H7_8 H 0.778048 0.879185 0.760850
C17_8 C 0.5620(3) 0.9111(3) 0.9190(2)
H8_8 H 0.550201 0.939428 0.930794
C21_8 C 0.7617(3) 0.9990(3) 0.7501(2)
C22_8 C 0.7566(3) 0.9520(3) 0.7659(2)
C24_8 C 0.6148(3) 0.8740(3) 0.8750(2)
H12_8 H 0.638743 0.877047 0.857282
C25_8 C 0.5997(3) 0.9163(3) 0.8939(3)
C26_8 C 0.6552(4) 0.9820(3) 0.8657(2)
C27_8 C 0.7081(4) 0.9735(3) 0.8202(3)
N7_8 N 0.3333(3) 0.9689(2) 0.8703(2)
N10_8 N 0.2778(3) 0.9787(3) 0.8210(2)
N11_8 N 0.2834(3) 0.9037(3) 0.8488(2)
H14_8 H 0.259127 0.896581 0.834567
C31_8 C 0.3735(3) 0.8316(3) 0.9510(2)
C32_8 C 0.3331(3) 0.7781(3) 0.9058(2)
H15_8 H 0.344733 0.749734 0.917673
C33_8 C 0.3424(3) 0.8259(3) 0.9190(2)
C37_8 C 0.2095(3) 0.9952(3) 0.7206(2)
C38_8 C 0.2982(3) 0.7212(3) 0.8587(2)
C39_8 C 0.2064(3) 0.9452(3) 0.7028(2)
C43_8 C 0.3063(3) 0.7731(3) 0.8747(2)
C45_8 C 0.3263(3) 0.8694(3) 0.9007(2)
H21_8 H 0.333154 0.901493 0.909236
C46_8 C 0.2993(3) 0.9528(3) 0.8472(2)
C47_8 C 0.2902(3) 0.8151(3) 0.8566(2)
H22_8 H 0.272684 0.811296 0.835587
H23_8 H 0.254633 0.973163 0.759730
C50_8 C 0.2999(3) 0.8627(3) 0.8696(2)
loop_
_geom_bond_atom_site_label_1
_geom_bond_atom_site_label_2
_geom_bond_site_symmetry_1
_geom_bond_site_symmetry_2
Cu2 O9 1_555 1_555
Cu3 Cu4 1_555 1_555
Cu4 O1 1_555 1_555
O1 C1 1_555 1_555
O2 C4 1_555 1_555
O3 C12 1_555 1_555
O5 C12 1_555 1_555
O6 Cu3 1_555 1_555
O7 C3 1_555 1_555
O8 C11 1_555 1_555
O9 C4 1_555 1_555
O10 C3 1_555 1_555
O11 C11 1_555 1_555
N1 C19 1_555 1_555
N2 C26 1_555 1_555
N3 H1 1_555 1_555
C1 O6 1_555 1_555
C2 C3 1_555 1_555
N4 C19 1_555 1_555
N5 H2 1_555 1_555
C4 C6 1_555 1_555
C5 H3 1_555 1_555
C6 C5 1_555 1_555
C7 H4 1_555 1_555
N6 H5 1_555 1_555
C8 C14 1_555 1_555
C9 C2 1_555 1_555
H6 C9 1_555 1_555
C10 C9 1_555 1_555
C11 C16 1_555 1_555
C12 C10 1_555 1_555
C13 C1 1_555 1_555
C14 C7 1_555 1_555
C15 C2 1_555 1_555
H7 C15 1_555 1_555
C16 C5 1_555 1_555
C17 C14 1_555 1_555
H8 C17 1_555 1_555
C18 C6 1_555 1_555
H9 C18 1_555 1_555
C19 N5 1_555 1_555
C20 C16 1_555 1_555
H10 C20 1_555 1_555
C21 C10 1_555 1_555
H11 C21 1_555 1_555
C22 N3 1_555 1_555
C23 N5 1_555 1_555
C24 C13 1_555 1_555
H12 C24 1_555 1_555
C25 N6 1_555 1_555
C26 N1 1_555 1_555
C27 N2 1_555 1_555
O24 Cu2 1_555 1_555
Cu7 Cu2 1_555 1_555
Cu10 O8 1_555 1_555
Cu11 O7 1_555 1_555
Cu14 O5 1_555 1_555
Cu16 O11 1_555 1_555
Cu17 O10 1_555 1_555
Cu20 O3 1_555 1_555
O26 Cu4 1_555 1_555
O29 Cu3 1_555 1_555
O31 Cu3 1_555 1_555
O33 Cu3 1_555 1_555
O35 Cu2 1_555 1_555
O36 Cu4 1_555 1_555
O38 Cu4 1_555 1_555
O40 Cu2 1_555 1_555
O2 Cu7 1_555 1_555
N3 C27 1_555 1_555
N4 C27 1_555 1_555
C7 C13 1_555 1_555
N6 C26 1_555 1_555
C15 C22 1_555 1_555
C17 C25 1_555 1_555
C18 C23 1_555 1_555
C20 C23 1_555 1_555
C21 C22 1_555 1_555
C24 C25 1_555 1_555
O16 Cu7 1_555 1_555
Cu10 Cu16 1_555 1_555
Cu11 Cu17 1_555 1_555
Cu14 Cu20 1_555 1_555
Cu1 O4 1_555 1_555
Cu5 Cu6 1_555 1_555
Cu6 O13 1_555 1_555
O13 C28 1_555 1_555
O14 Cu1 1_555 1_555
O15 C39 1_555 1_555
O17 C39 1_555 1_555
O18 Cu5 1_555 1_555
O19 C30 1_555 1_555
O20 C38 1_555 1_555
O21 C31 1_555 1_555
O22 C30 1_555 1_555
O23 C38 1_555 1_555
N7 C46 1_555 1_555
N8 C53 1_555 1_555
N9 H13 1_555 1_555
C28 O18 1_555 1_555
C29 C30 1_555 1_555
N10 C46 1_555 1_555
N11 H14 1_555 1_555
C31 O14 1_555 1_555
C32 H15 1_555 1_555
C33 C31 1_555 1_555
C34 H16 1_555 1_555
N12 H17 1_555 1_555
C36 C29 1_555 1_555
H18 C36 1_555 1_555
C37 C36 1_555 1_555
C38 C43 1_555 1_555
C39 C37 1_555 1_555
C40 C28 1_555 1_555
C41 C34 1_555 1_555
C42 C29 1_555 1_555
H19 C42 1_555 1_555
C43 C32 1_555 1_555
C44 C41 1_555 1_555
H20 C44 1_555 1_555
C45 C33 1_555 1_555
H21 C45 1_555 1_555
C46 N11 1_555 1_555
C47 C43 1_555 1_555
H22 C47 1_555 1_555
C48 C37 1_555 1_555
H23 C48 1_555 1_555
C49 N9 1_555 1_555
C50 N11 1_555 1_555
C51 C40 1_555 1_555
H24 C51 1_555 1_555
C52 N12 1_555 1_555
C53 N7 1_555 1_555
C54 N8 1_555 1_555
Cu8 Cu1 1_555 1_555
Cu9 O20 1_555 1_555
Cu12 O19 1_555 1_555
Cu13 O17 1_555 1_555
Cu15 O23 1_555 1_555
Cu18 O22 1_555 1_555
Cu19 O15 1_555 1_555
O25 Cu1 1_555 1_555
O27 Cu6 1_555 1_555
O28 Cu1 1_555 1_555
O30 Cu5 1_555 1_555
O32 Cu5 1_555 1_555
O34 Cu5 1_555 1_555
O37 Cu6 1_555 1_555
O39 Cu6 1_555 1_555
O12 Cu8 1_555 1_555
O21 Cu8 1_555 1_555
N9 C54 1_555 1_555
N10 C54 1_555 1_555
C32 C33 1_555 1_555
C34 C40 1_555 1_555
N12 C53 1_555 1_555
C35 C41 1_555 1_555
C42 C49 1_555 1_555
C44 C52 1_555 1_555
C45 C50 1_555 1_555
C47 C50 1_555 1_555
C48 C49 1_555 1_555
C51 C52 1_555 1_555
Cu9 Cu15 1_555 1_555
Cu12 Cu18 1_555 1_555
Cu13 Cu19 1_555 1_555
O25_2 Cu7 1_555 1_555
O28_2 Cu7 1_555 1_555
O35_2 Cu8 1_555 1_555
O40_2 Cu8 1_555 1_555
Cu1_2 O4_2 1_555 1_555
Cu16 O13_2 1_555 1_555
O13_2 C28_2 1_555 1_555
O14_2 Cu1_2 1_555 1_555
O15_2 C39_2 1_555 1_555
O17_2 C39_2 1_555 1_555
O18_2 Cu10 1_555 1_555
O19_2 C30_2 1_555 1_555
O34 C38_2 1_555 1_555
O21_2 C31_2 1_555 1_555
O22_2 C30_2 1_555 1_555
O39 C38_2 1_555 1_555
N7_2 C46_2 1_555 1_555
N8_2 C53_2 1_555 1_555
N9_2 H13_2 1_555 1_555
C28_2 O18_2 1_555 1_555
C29_2 C30_2 1_555 1_555
N10_2 C46_2 1_555 1_555
N11_2 H14_2 1_555 1_555
C31_2 O14_2 1_555 1_555
C32_2 H15_2 1_555 1_555
C33_2 C31_2 1_555 1_555
C34_2 H16_2 1_555 1_555
N12_2 H17_2 1_555 1_555
C36_2 C29_2 1_555 1_555
H18_2 C36_2 1_555 1_555
C37_2 C36_2 1_555 1_555
C38_2 C43_2 1_555 1_555
C39_2 C37_2 1_555 1_555
C40_2 C28_2 1_555 1_555
C41_2 C34_2 1_555 1_555
C42_2 C29_2 1_555 1_555
H19_2 C42_2 1_555 1_555
C43_2 C32_2 1_555 1_555
C44_2 C41_2 1_555 1_555
H20_2 C44_2 1_555 1_555
C45_2 C33_2 1_555 1_555
H21_2 C45_2 1_555 1_555
C46_2 N11_2 1_555 1_555
C47_2 C43_2 1_555 1_555
H22_2 C47_2 1_555 1_555
C48_2 C37_2 1_555 1_555
H23_2 C48_2 1_555 1_555
C49_2 N9_2 1_555 1_555
C50_2 N11_2 1_555 1_555
C51_2 C40_2 1_555 1_555
H24_2 C51_2 1_555 1_555
C52_2 N12_2 1_555 1_555
C53_2 N7_2 1_555 1_555
C54_2 N8_2 1_555 1_555
Cu8_2 Cu1_2 1_555 1_555
Cu14 O19_2 1_555 1_555
Cu12 O17_2 1_555 1_555
Cu20 O22_2 1_555 1_555
Cu18 O15_2 1_555 1_555
O25_3 Cu1_2 1_555 1_555
O27_2 Cu16 1_555 1_555
O28_3 Cu1_2 1_555 1_555
O30_2 Cu10 1_555 1_555
O32_2 Cu10 1_555 1_555
O37_2 Cu16 1_555 1_555
O12_2 Cu8_2 1_555 1_555
O21_2 Cu8_2 1_555 1_555
N9_2 C54_2 1_555 1_555
N10_2 C54_2 1_555 1_555
C32_2 C33_2 1_555 1_555
C34_2 C40_2 1_555 1_555
N12_2 C53_2 1_555 1_555
C35_2 C41_2 1_555 1_555
C42_2 C49_2 1_555 1_555
C44_2 C52_2 1_555 1_555
C45_2 C50_2 1_555 1_555
C47_2 C50_2 1_555 1_555
C48_2 C49_2 1_555 1_555
C51_2 C52_2 1_555 1_555
Cu2_2 O9_2 1_555 1_555
Cu15 O1_2 1_555 1_555
O1_2 C1_2 1_555 1_555
O2_2 C4_2 1_555 1_555
O3_2 C12_2 1_555 1_555
O5_2 C12_2 1_555 1_555
O6_2 Cu9 1_555 1_555
O7_2 C3_2 1_555 1_555
O33 C11_2 1_555 1_555
O9_2 C4_2 1_555 1_555
O10_2 C3_2 1_555 1_555
O38 C11_2 1_555 1_555
N1_2 C19_2 1_555 1_555
N2_2 C26_2 1_555 1_555
N3_2 H1_2 1_555 1_555
C1_2 O6_2 1_555 1_555
C2_2 C3_2 1_555 1_555
N4_2 C19_2 1_555 1_555
N5_2 H2_2 1_555 1_555
C4_2 C6_2 1_555 1_555
C5_2 H3_2 1_555 1_555
C6_2 C5_2 1_555 1_555
C7_2 H4_2 1_555 1_555
N6_2 H5_2 1_555 1_555
C8_2 C14_2 1_555 1_555
C9_2 C2_2 1_555 1_555
H6_2 C9_2 1_555 1_555
C10_2 C9_2 1_555 1_555
C11_2 C16_2 1_555 1_555
C12_2 C10_2 1_555 1_555
C13_2 C1_2 1_555 1_555
C14_2 C7_2 1_555 1_555
C15_2 C2_2 1_555 1_555
H7_2 C15_2 1_555 1_555
C16_2 C5_2 1_555 1_555
C17_2 C14_2 1_555 1_555
H8_2 C17_2 1_555 1_555
C18_2 C6_2 1_555 1_555
H9_2 C18_2 1_555 1_555
C19_2 N5_2 1_555 1_555
C20_2 C16_2 1_555 1_555
H10_2 C20_2 1_555 1_555
C21_2 C10_2 1_555 1_555
H11_2 C21_2 1_555 1_555
C22_2 N3_2 1_555 1_555
C23_2 N5_2 1_555 1_555
C24_2 C13_2 1_555 1_555
H12_2 C24_2 1_555 1_555
C25_2 N6_2 1_555 1_555
C26_2 N1_2 1_555 1_555
C27_2 N2_2 1_555 1_555
O24_2 Cu2_2 1_555 1_555
Cu7_2 Cu2_2 1_555 1_555
Cu13 O7_2 1_555 1_555
Cu11 O5_2 1_555 1_555
Cu19 O10_2 1_555 1_555
Cu17 O3_2 1_555 1_555
O26_2 Cu15 1_555 1_555
O29_2 Cu9 1_555 1_555
O31_2 Cu9 1_555 1_555
O35_3 Cu2_2 1_555 1_555
O36_2 Cu15 1_555 1_555
O40_3 Cu2_2 1_555 1_555
O2_2 Cu7_2 1_555 1_555
N3_2 C27_2 1_555 1_555
N4_2 C27_2 1_555 1_555
C7_2 C13_2 1_555 1_555
N6_2 C26_2 1_555 1_555
C15_2 C22_2 1_555 1_555
C17_2 C25_2 1_555 1_555
C18_2 C23_2 1_555 1_555
C20_2 C23_2 1_555 1_555
C21_2 C22_2 1_555 1_555
C24_2 C25_2 1_555 1_555
O16_2 Cu7_2 1_555 1_555
O35_4 Cu8_2 1_555 1_555
O40_4 Cu8_2 1_555 1_555
O25_4 Cu7_2 1_555 1_555
O28_4 Cu7_2 1_555 1_555
Cu1_3 O4_3 1_555 1_555
Cu3_2 Cu4_2 1_555 1_555
Cu4_2 O1_3 1_555 1_555
O1_3 C1_3 1_555 1_555
O4_3 C8_3 1_555 1_555
O6_3 Cu3_2 1_555 1_555
O7_3 C3_3 1_555 1_555
O10_3 C3_3 1_555 1_555
O12_3 C8_3 1_555 1_555
N2_3 C26_3 1_555 1_555
N3_3 H1_3 1_555 1_555
C1_3 O6_3 1_555 1_555
C2_3 C3_3 1_555 1_555
C7_3 H4_3 1_555 1_555
N6_3 H5_3 1_555 1_555
C8_3 C14_3 1_555 1_555
C9_3 C2_3 1_555 1_555
H6_3 C9_3 1_555 1_555
C13_3 C1_3 1_555 1_555
C14_3 C7_3 1_555 1_555
C15_3 C2_3 1_555 1_555
H7_3 C15_3 1_555 1_555
C17_3 C14_3 1_555 1_555
H8_3 C17_3 1_555 1_555
C22_3 N3_3 1_555 1_555
C24_3 C13_3 1_555 1_555
H12_3 C24_3 1_555 1_555
C25_3 N6_3 1_555 1_555
C27_3 N2_3 1_555 1_555
O14_3 Cu1_3 1_555 1_555
O15_3 C39_3 1_555 1_555
O17_3 C39_3 1_555 1_555
O20_2 C38_3 1_555 1_555
O21_3 C31_3 1_555 1_555
O23_2 C38_3 1_555 1_555
N7_3 C46_3 1_555 1_555
N10_3 C46_3 1_555 1_555
N11_3 H14_3 1_555 1_555
C31_3 O14_3 1_555 1_555
C32_3 H15_3 1_555 1_555
C33_3 C31_3 1_555 1_555
C38_3 C43_3 1_555 1_555
C39_3 C37_3 1_555 1_555
C43_3 C32_3 1_555 1_555
C45_3 C33_3 1_555 1_555
H21_3 C45_3 1_555 1_555
C46_3 N11_3 1_555 1_555
C47_3 C43_3 1_555 1_555
H22_3 C47_3 1_555 1_555
C50_3 N11_3 1_555 1_555
Cu8_3 Cu1_3 1_555 1_555
Cu9_2 O20_2 1_555 1_555
Cu11_2 O7_3 1_555 1_555
Cu13_2 O17_3 1_555 1_555
Cu15_2 O23_2 1_555 1_555
Cu17_2 O10_3 1_555 1_555
Cu19_2 O15_3 1_555 1_555
O26_3 Cu4_2 1_555 1_555
O29_3 Cu3_2 1_555 1_555
O31_3 Cu3_2 1_555 1_555
O33_2 Cu3_2 1_555 1_555
O36_3 Cu4_2 1_555 1_555
O38_2 Cu4_2 1_555 1_555
O12_3 Cu8_3 1_555 1_555
N3_3 C27_3 1_555 1_555
C7_3 C13_3 1_555 1_555
N6_3 C26_3 1_555 1_555
C15_3 C22_3 1_555 1_555
C17_3 C25_3 1_555 1_555
C21_3 C22_3 1_555 1_555
C24_3 C25_3 1_555 1_555
O21_3 Cu8_3 1_555 1_555
C32_3 C33_3 1_555 1_555
C45_3 C50_3 1_555 1_555
C47_3 C50_3 1_555 1_555
Cu9_2 Cu15_2 1_555 1_555
Cu11_2 Cu17_2 1_555 1_555
Cu13_2 Cu19_2 1_555 1_555
Cu8_4 Cu1_4 1_555 1_555
O25_5 Cu1_4 1_555 1_555
O28_5 Cu1_4 1_555 1_555
Cu2_3 O9_3 1_555 1_555
O2_3 C4_3 1_555 1_555
O3_3 C12_3 1_555 1_555
O5_3 C12_3 1_555 1_555
O8_2 C11_3 1_555 1_555
O9_3 C4_3 1_555 1_555
O11_2 C11_3 1_555 1_555
N1_3 C19_3 1_555 1_555
N4_3 C19_3 1_555 1_555
N5_3 H2_3 1_555 1_555
C4_3 C6_3 1_555 1_555
C5_3 H3_3 1_555 1_555
C6_3 C5_3 1_555 1_555
C11_3 C16_3 1_555 1_555
C12_3 C10_3 1_555 1_555
C16_3 C5_3 1_555 1_555
C18_3 C6_3 1_555 1_555
H9_3 C18_3 1_555 1_555
C19_3 N5_3 1_555 1_555
C20_3 C16_3 1_555 1_555
H10_3 C20_3 1_555 1_555
C23_3 N5_3 1_555 1_555
Cu5_2 Cu6_2 1_555 1_555
Cu6_2 O13_3 1_555 1_555
O13_3 C28_3 1_555 1_555
O16_3 C35_3 1_555 1_555
O18_3 Cu5_2 1_555 1_555
O19_3 C30_3 1_555 1_555
O22_3 C30_3 1_555 1_555
O24_3 Cu2_3 1_555 1_555
N8_3 C53_3 1_555 1_555
N9_3 H13_3 1_555 1_555
C28_3 O18_3 1_555 1_555
C29_3 C30_3 1_555 1_555
C34_3 H16_3 1_555 1_555
N12_3 H17_3 1_555 1_555
C35_3 O24_3 1_555 1_555
C36_3 C29_3 1_555 1_555
H18_3 C36_3 1_555 1_555
C40_3 C28_3 1_555 1_555
C41_3 C34_3 1_555 1_555
C42_3 C29_3 1_555 1_555
H19_3 C42_3 1_555 1_555
C44_3 C41_3 1_555 1_555
H20_3 C44_3 1_555 1_555
C49_3 N9_3 1_555 1_555
C51_3 C40_3 1_555 1_555
H24_3 C51_3 1_555 1_555
C52_3 N12_3 1_555 1_555
C54_3 N8_3 1_555 1_555
Cu7_3 Cu2_3 1_555 1_555
Cu10_2 O8_2 1_555 1_555
Cu12_2 O19_3 1_555 1_555
Cu14_2 O5_3 1_555 1_555
Cu16_2 O11_2 1_555 1_555
Cu18_2 O22_3 1_555 1_555
Cu20_2 O3_3 1_555 1_555
O27_3 Cu6_2 1_555 1_555
O30_3 Cu5_2 1_555 1_555
O32_3 Cu5_2 1_555 1_555
O34_2 Cu5_2 1_555 1_555
O37_3 Cu6_2 1_555 1_555
O39_2 Cu6_2 1_555 1_555
O2_3 Cu7_3 1_555 1_555
C18_3 C23_3 1_555 1_555
C20_3 C23_3 1_555 1_555
O16_3 Cu7_3 1_555 1_555
N9_3 C54_3 1_555 1_555
C34_3 C40_3 1_555 1_555
N12_3 C53_3 1_555 1_555
C35_3 C41_3 1_555 1_555
C42_3 C49_3 1_555 1_555
C44_3 C52_3 1_555 1_555
C48_3 C49_3 1_555 1_555
C51_3 C52_3 1_555 1_555
Cu10_2 Cu16_2 1_555 1_555
Cu12_2 Cu18_2 1_555 1_555
Cu14_2 Cu20_2 1_555 1_555
Cu7_4 Cu2_4 1_555 1_555
O35_5 Cu2_4 1_555 1_555
O40_5 Cu2_4 1_555 1_555
O35_6 Cu8_4 1_555 1_555
O40_6 Cu8_4 1_555 1_555
O25_6 Cu7_4 1_555 1_555
O28_6 Cu7_4 1_555 1_555
Cu1_5 O4_4 1_555 1_555
Cu15_2 O1_4 1_555 1_555
O1_4 C1_4 1_555 1_555
O4_4 C8_4 1_555 1_555
O6_4 Cu9_2 1_555 1_555
O7_4 C3_4 1_555 1_555
O10_4 C3_4 1_555 1_555
O12_4 C8_4 1_555 1_555
N2_4 C26_4 1_555 1_555
N3_4 H1_4 1_555 1_555
C1_4 O6_4 1_555 1_555
C2_4 C3_4 1_555 1_555
C7_4 H4_4 1_555 1_555
N6_4 H5_4 1_555 1_555
C8_4 C14_4 1_555 1_555
C9_4 C2_4 1_555 1_555
H6_4 C9_4 1_555 1_555
C13_4 C1_4 1_555 1_555
C14_4 C7_4 1_555 1_555
C15_4 C2_4 1_555 1_555
H7_4 C15_4 1_555 1_555
C17_4 C14_4 1_555 1_555
H8_4 C17_4 1_555 1_555
C22_4 N3_4 1_555 1_555
C24_4 C13_4 1_555 1_555
H12_4 C24_4 1_555 1_555
C25_4 N6_4 1_555 1_555
C27_4 N2_4 1_555 1_555
O14_4 Cu1_5 1_555 1_555
O15_4 C39_4 1_555 1_555
O17_4 C39_4 1_555 1_555
O34_2 C38_4 1_555 1_555
O21_4 C31_4 1_555 1_555
O39_2 C38_4 1_555 1_555
N7_4 C46_4 1_555 1_555
N10_4 C46_4 1_555 1_555
N11_4 H14_4 1_555 1_555
C31_4 O14_4 1_555 1_555
C32_4 H15_4 1_555 1_555
C33_4 C31_4 1_555 1_555
C38_4 C43_4 1_555 1_555
C39_4 C37_4 1_555 1_555
C43_4 C32_4 1_555 1_555
C45_4 C33_4 1_555 1_555
H21_4 C45_4 1_555 1_555
C46_4 N11_4 1_555 1_555
C47_4 C43_4 1_555 1_555
H22_4 C47_4 1_555 1_555
C50_4 N11_4 1_555 1_555
Cu8_5 Cu1_5 1_555 1_555
Cu13_2 O7_4 1_555 1_555
Cu12_2 O17_4 1_555 1_555
Cu19_2 O10_4 1_555 1_555
Cu18_2 O15_4 1_555 1_555
O26_4 Cu15_2 1_555 1_555
O29_4 Cu9_2 1_555 1_555
O31_4 Cu9_2 1_555 1_555
O36_4 Cu15_2 1_555 1_555
O12_4 Cu8_5 1_555 1_555
N3_4 C27_4 1_555 1_555
C7_4 C13_4 1_555 1_555
N6_4 C26_4 1_555 1_555
C15_4 C22_4 1_555 1_555
C17_4 C25_4 1_555 1_555
C21_4 C22_4 1_555 1_555
C24_4 C25_4 1_555 1_555
O21_4 Cu8_5 1_555 1_555
C32_4 C33_4 1_555 1_555
C45_4 C50_4 1_555 1_555
C47_4 C50_4 1_555 1_555
Cu8_6 Cu1_6 1_555 1_555
O25_7 Cu1_6 1_555 1_555
O28_7 Cu1_6 1_555 1_555
Cu2_5 O9_4 1_555 1_555
O2_4 C4_4 1_555 1_555
O3_4 C12_4 1_555 1_555
O5_4 C12_4 1_555 1_555
O33_2 C11_4 1_555 1_555
O9_4 C4_4 1_555 1_555
O38_2 C11_4 1_555 1_555
N1_4 C19_4 1_555 1_555
N4_4 C19_4 1_555 1_555
N5_4 H2_4 1_555 1_555
C4_4 C6_4 1_555 1_555
C5_4 H3_4 1_555 1_555
C6_4 C5_4 1_555 1_555
C11_4 C16_4 1_555 1_555
C12_4 C10_4 1_555 1_555
C16_4 C5_4 1_555 1_555
C18_4 C6_4 1_555 1_555
H9_4 C18_4 1_555 1_555
C19_4 N5_4 1_555 1_555
C20_4 C16_4 1_555 1_555
H10_4 C20_4 1_555 1_555
C23_4 N5_4 1_555 1_555
Cu16_2 O13_4 1_555 1_555
O13_4 C28_4 1_555 1_555
O16_4 C35_4 1_555 1_555
O18_4 Cu10_2 1_555 1_555
O19_4 C30_4 1_555 1_555
O22_4 C30_4 1_555 1_555
O24_4 Cu2_5 1_555 1_555
N8_4 C53_4 1_555 1_555
N9_4 H13_4 1_555 1_555
C28_4 O18_4 1_555 1_555
C29_4 C30_4 1_555 1_555
C34_4 H16_4 1_555 1_555
N12_4 H17_4 1_555 1_555
C35_4 O24_4 1_555 1_555
C36_4 C29_4 1_555 1_555
H18_4 C36_4 1_555 1_555
C40_4 C28_4 1_555 1_555
C41_4 C34_4 1_555 1_555
C42_4 C29_4 1_555 1_555
H19_4 C42_4 1_555 1_555
C44_4 C41_4 1_555 1_555
H20_4 C44_4 1_555 1_555
C49_4 N9_4 1_555 1_555
C51_4 C40_4 1_555 1_555
H24_4 C51_4 1_555 1_555
C52_4 N12_4 1_555 1_555
C54_4 N8_4 1_555 1_555
Cu7_5 Cu2_5 1_555 1_555
Cu14_2 O19_4 1_555 1_555
Cu11_2 O5_4 1_555 1_555
Cu20_2 O22_4 1_555 1_555
Cu17_2 O3_4 1_555 1_555
O27_4 Cu16_2 1_555 1_555
O30_4 Cu10_2 1_555 1_555
O32_4 Cu10_2 1_555 1_555
O37_4 Cu16_2 1_555 1_555
O2_4 Cu7_5 1_555 1_555
C18_4 C23_4 1_555 1_555
C20_4 C23_4 1_555 1_555
O16_4 Cu7_5 1_555 1_555
N9_4 C54_4 1_555 1_555
C34_4 C40_4 1_555 1_555
N12_4 C53_4 1_555 1_555
C35_4 C41_4 1_555 1_555
C42_4 C49_4 1_555 1_555
C44_4 C52_4 1_555 1_555
C48_4 C49_4 1_555 1_555
C51_4 C52_4 1_555 1_555
Cu7_6 Cu2_6 1_555 1_555
O35_7 Cu2_6 1_555 1_555
O40_7 Cu2_6 1_555 1_555
O35_8 Cu8_6 1_555 1_555
O40_8 Cu8_6 1_555 1_555
O25_8 Cu7_6 1_555 1_555
O28_8 Cu7_6 1_555 1_555
Cu18_2 O13_5 1_555 1_555
O13_5 C28_5 1_555 1_555
O26_4 C39_5 1_555 1_555
O29_4 C39_5 1_555 1_555
O18_5 Cu12_2 1_555 1_555
O32_3 C30_5 1_555 1_555
O20_3 C38_5 1_555 1_555
O35 C31_5 1_555 1_555
O37_3 C30_5 1_555 1_555
O23_3 C38_5 1_555 1_555
N7_5 C46_5 1_555 1_555
N8_5 C53_5 1_555 1_555
N9_5 H13_5 1_555 1_555
C28_5 O18_5 1_555 1_555
C29_5 C30_5 1_555 1_555
N10_5 C46_5 1_555 1_555
N11_5 H14_5 1_555 1_555
C31_5 O25_2 1_555 1_555
C32_5 H15_5 1_555 1_555
C33_5 C31_5 1_555 1_555
C34_5 H16_5 1_555 1_555
N12_5 H17_5 1_555 1_555
C36_5 C29_5 1_555 1_555
H18_5 C36_5 1_555 1_555
C37_5 C36_5 1_555 1_555
C38_5 C43_5 1_555 1_555
C39_5 C37_5 1_555 1_555
C40_5 C28_5 1_555 1_555
C41_5 C34_5 1_555 1_555
C42_5 C29_5 1_555 1_555
H19_5 C42_5 1_555 1_555
C43_5 C32_5 1_555 1_555
C44_5 C41_5 1_555 1_555
H20_5 C44_5 1_555 1_555
C45_5 C33_5 1_555 1_555
H21_5 C45_5 1_555 1_555
C46_5 N11_5 1_555 1_555
C47_5 C43_5 1_555 1_555
H22_5 C47_5 1_555 1_555
C48_5 C37_5 1_555 1_555
H23_5 C48_5 1_555 1_555
C49_5 N9_5 1_555 1_555
C50_5 N11_5 1_555 1_555
C51_5 C40_5 1_555 1_555
H24_5 C51_5 1_555 1_555
C52_5 N12_5 1_555 1_555
C53_5 N7_5 1_555 1_555
C54_5 N8_5 1_555 1_555
Cu13_2 O20_3 1_555 1_555
Cu19_2 O23_3 1_555 1_555
O34_3 Cu12_2 1_555 1_555
O39_3 Cu18_2 1_555 1_555
N9_5 C54_5 1_555 1_555
N10_5 C54_5 1_555 1_555
C32_5 C33_5 1_555 1_555
C34_5 C40_5 1_555 1_555
N12_5 C53_5 1_555 1_555
C35_5 C41_5 1_555 1_555
C42_5 C49_5 1_555 1_555
C44_5 C52_5 1_555 1_555
C45_5 C50_5 1_555 1_555
C47_5 C50_5 1_555 1_555
C48_5 C49_5 1_555 1_555
C51_5 C52_5 1_555 1_555
Cu17_2 O1_5 1_555 1_555
O1_5 C1_5 1_555 1_555
O25 C4_5 1_555 1_555
O27_4 C12_5 1_555 1_555
O30_4 C12_5 1_555 1_555
O6_5 Cu11_2 1_555 1_555
O31_3 C3_5 1_555 1_555
O8_3 C11_5 1_555 1_555
O35_2 C4_5 1_555 1_555
O36_3 C3_5 1_555 1_555
O11_3 C11_5 1_555 1_555
N1_5 C19_5 1_555 1_555
N2_5 C26_5 1_555 1_555
N3_5 H1_5 1_555 1_555
C1_5 O6_5 1_555 1_555
C2_5 C3_5 1_555 1_555
N4_5 C19_5 1_555 1_555
N5_5 H2_5 1_555 1_555
C4_5 C6_5 1_555 1_555
C5_5 H3_5 1_555 1_555
C6_5 C5_5 1_555 1_555
C7_5 H4_5 1_555 1_555
N6_5 H5_5 1_555 1_555
C8_5 C14_5 1_555 1_555
C9_5 C2_5 1_555 1_555
H6_5 C9_5 1_555 1_555
C10_5 C9_5 1_555 1_555
C11_5 C16_5 1_555 1_555
C12_5 C10_5 1_555 1_555
C13_5 C1_5 1_555 1_555
C14_5 C7_5 1_555 1_555
C15_5 C2_5 1_555 1_555
H7_5 C15_5 1_555 1_555
C16_5 C5_5 1_555 1_555
C17_5 C14_5 1_555 1_555
H8_5 C17_5 1_555 1_555
C18_5 C6_5 1_555 1_555
H9_5 C18_5 1_555 1_555
C19_5 N5_5 1_555 1_555
C20_5 C16_5 1_555 1_555
H10_5 C20_5 1_555 1_555
C21_5 C10_5 1_555 1_555
H11_5 C21_5 1_555 1_555
C22_5 N3_5 1_555 1_555
C23_5 N5_5 1_555 1_555
C24_5 C13_5 1_555 1_555
H12_5 C24_5 1_555 1_555
C25_5 N6_5 1_555 1_555
C26_5 N1_5 1_555 1_555
C27_5 N2_5 1_555 1_555
Cu14_2 O8_3 1_555 1_555
Cu20_2 O11_3 1_555 1_555
O33_3 Cu11_2 1_555 1_555
O38_3 Cu17_2 1_555 1_555
N3_5 C27_5 1_555 1_555
N4_5 C27_5 1_555 1_555
C7_5 C13_5 1_555 1_555
N6_5 C26_5 1_555 1_555
C15_5 C22_5 1_555 1_555
C17_5 C25_5 1_555 1_555
C18_5 C23_5 1_555 1_555
C20_5 C23_5 1_555 1_555
C21_5 C22_5 1_555 1_555
C24_5 C25_5 1_555 1_555
Cu19_2 O1_6 1_555 1_555
O1_6 C1_6 1_555 1_555
O25_3 C4_6 1_555 1_555
O26_3 C12_6 1_555 1_555
O29_3 C12_6 1_555 1_555
O6_6 Cu13_2 1_555 1_555
O31_4 C3_6 1_555 1_555
O33_3 C11_6 1_555 1_555
O35_4 C4_6 1_555 1_555
O36_4 C3_6 1_555 1_555
O38_3 C11_6 1_555 1_555
N1_6 C19_6 1_555 1_555
N2_6 C26_6 1_555 1_555
N3_6 H1_6 1_555 1_555
C1_6 O6_6 1_555 1_555
C2_6 C3_6 1_555 1_555
N4_6 C19_6 1_555 1_555
N5_6 H2_6 1_555 1_555
C4_6 C6_6 1_555 1_555
C5_6 H3_6 1_555 1_555
C6_6 C5_6 1_555 1_555
C7_6 H4_6 1_555 1_555
N6_6 H5_6 1_555 1_555
C8_6 C14_6 1_555 1_555
C9_6 C2_6 1_555 1_555
H6_6 C9_6 1_555 1_555
C10_6 C9_6 1_555 1_555
C11_6 C16_6 1_555 1_555
C12_6 C10_6 1_555 1_555
C13_6 C1_6 1_555 1_555
C14_6 C7_6 1_555 1_555
C15_6 C2_6 1_555 1_555
H7_6 C15_6 1_555 1_555
C16_6 C5_6 1_555 1_555
C17_6 C14_6 1_555 1_555
H8_6 C17_6 1_555 1_555
C18_6 C6_6 1_555 1_555
H9_6 C18_6 1_555 1_555
C19_6 N5_6 1_555 1_555
C20_6 C16_6 1_555 1_555
H10_6 C20_6 1_555 1_555
C21_6 C10_6 1_555 1_555
H11_6 C21_6 1_555 1_555
C22_6 N3_6 1_555 1_555
C23_6 N5_6 1_555 1_555
C24_6 C13_6 1_555 1_555
H12_6 C24_6 1_555 1_555
C25_6 N6_6 1_555 1_555
C26_6 N1_6 1_555 1_555
C27_6 N2_6 1_555 1_555
N3_6 C27_6 1_555 1_555
N4_6 C27_6 1_555 1_555
C7_6 C13_6 1_555 1_555
N6_6 C26_6 1_555 1_555
C15_6 C22_6 1_555 1_555
C17_6 C25_6 1_555 1_555
C18_6 C23_6 1_555 1_555
C20_6 C23_6 1_555 1_555
C21_6 C22_6 1_555 1_555
C24_6 C25_6 1_555 1_555
Cu20_2 O13_6 1_555 1_555
O13_6 C28_6 1_555 1_555
O27_3 C39_6 1_555 1_555
O30_3 C39_6 1_555 1_555
O18_6 Cu14_2 1_555 1_555
O32_4 C30_6 1_555 1_555
O34_3 C38_6 1_555 1_555
O35_3 C31_6 1_555 1_555
O37_4 C30_6 1_555 1_555
O39_3 C38_6 1_555 1_555
N7_6 C46_6 1_555 1_555
N8_6 C53_6 1_555 1_555
N9_6 H13_6 1_555 1_555
C28_6 O18_6 1_555 1_555
C29_6 C30_6 1_555 1_555
N10_6 C46_6 1_555 1_555
N11_6 H14_6 1_555 1_555
C31_6 O25_4 1_555 1_555
C32_6 H15_6 1_555 1_555
C33_6 C31_6 1_555 1_555
C34_6 H16_6 1_555 1_555
N12_6 H17_6 1_555 1_555
C36_6 C29_6 1_555 1_555
H18_6 C36_6 1_555 1_555
C37_6 C36_6 1_555 1_555
C38_6 C43_6 1_555 1_555
C39_6 C37_6 1_555 1_555
C40_6 C28_6 1_555 1_555
C41_6 C34_6 1_555 1_555
C42_6 C29_6 1_555 1_555
H19_6 C42_6 1_555 1_555
C43_6 C32_6 1_555 1_555
C44_6 C41_6 1_555 1_555
H20_6 C44_6 1_555 1_555
C45_6 C33_6 1_555 1_555
H21_6 C45_6 1_555 1_555
C46_6 N11_6 1_555 1_555
C47_6 C43_6 1_555 1_555
H22_6 C47_6 1_555 1_555
C48_6 C37_6 1_555 1_555
H23_6 C48_6 1_555 1_555
C49_6 N9_6 1_555 1_555
C50_6 N11_6 1_555 1_555
C51_6 C40_6 1_555 1_555
H24_6 C51_6 1_555 1_555
C52_6 N12_6 1_555 1_555
C53_6 N7_6 1_555 1_555
C54_6 N8_6 1_555 1_555
N9_6 C54_6 1_555 1_555
N10_6 C54_6 1_555 1_555
C32_6 C33_6 1_555 1_555
C34_6 C40_6 1_555 1_555
N12_6 C53_6 1_555 1_555
C35_6 C41_6 1_555 1_555
C42_6 C49_6 1_555 1_555
C44_6 C52_6 1_555 1_555
C45_6 C50_6 1_555 1_555
C47_6 C50_6 1_555 1_555
C48_6 C49_6 1_555 1_555
C51_6 C52_6 1_555 1_555
O25_5 C4_7 1_555 1_555
O27_2 C12_7 1_555 1_555
O30_2 C12_7 1_555 1_555
O8_4 C11_7 1_555 1_555
O35_6 C4_7 1_555 1_555
O11_4 C11_7 1_555 1_555
N1_7 C19_7 1_555 1_555
N4_7 C19_7 1_555 1_555
N5_7 H2_7 1_555 1_555
C4_7 C6_7 1_555 1_555
C5_7 H3_7 1_555 1_555
C6_7 C5_7 1_555 1_555
C11_7 C16_7 1_555 1_555
C12_7 C10_7 1_555 1_555
C16_7 C5_7 1_555 1_555
C18_7 C6_7 1_555 1_555
H9_7 C18_7 1_555 1_555
C19_7 N5_7 1_555 1_555
C20_7 C16_7 1_555 1_555
H10_7 C20_7 1_555 1_555
C23_7 N5_7 1_555 1_555
Cu18 O13_7 1_555 1_555
O13_7 C28_7 1_555 1_555
O28_5 C35_7 1_555 1_555
O18_7 Cu12 1_555 1_555
O32 C30_7 1_555 1_555
O37 C30_7 1_555 1_555
N8_7 C53_7 1_555 1_555
N9_7 H13_7 1_555 1_555
C28_7 O18_7 1_555 1_555
C29_7 C30_7 1_555 1_555
C34_7 H16_7 1_555 1_555
N12_7 H17_7 1_555 1_555
C35_7 O40_6 1_555 1_555
C36_7 C29_7 1_555 1_555
H18_7 C36_7 1_555 1_555
C40_7 C28_7 1_555 1_555
C41_7 C34_7 1_555 1_555
C42_7 C29_7 1_555 1_555
H19_7 C42_7 1_555 1_555
C44_7 C41_7 1_555 1_555
H20_7 C44_7 1_555 1_555
C49_7 N9_7 1_555 1_555
C51_7 C40_7 1_555 1_555
H24_7 C51_7 1_555 1_555
C52_7 N12_7 1_555 1_555
C54_7 N8_7 1_555 1_555
Cu14 O8_4 1_555 1_555
Cu20 O11_4 1_555 1_555
O34_4 Cu12 1_555 1_555
O39_4 Cu18 1_555 1_555
C18_7 C23_7 1_555 1_555
C20_7 C23_7 1_555 1_555
N9_7 C54_7 1_555 1_555
C34_7 C40_7 1_555 1_555
N12_7 C53_7 1_555 1_555
C35_7 C41_7 1_555 1_555
C42_7 C49_7 1_555 1_555
C44_7 C52_7 1_555 1_555
C48_7 C49_7 1_555 1_555
C51_7 C52_7 1_555 1_555
Cu17 O1_7 1_555 1_555
O1_7 C1_7 1_555 1_555
O28_6 C8_7 1_555 1_555
O6_7 Cu11 1_555 1_555
O31 C3_7 1_555 1_555
O36 C3_7 1_555 1_555
O40_5 C8_7 1_555 1_555
N2_7 C26_7 1_555 1_555
N3_7 H1_7 1_555 1_555
C1_7 O6_7 1_555 1_555
C2_7 C3_7 1_555 1_555
C7_7 H4_7 1_555 1_555
N6_7 H5_7 1_555 1_555
C8_7 C14_7 1_555 1_555
C9_7 C2_7 1_555 1_555
H6_7 C9_7 1_555 1_555
C13_7 C1_7 1_555 1_555
C14_7 C7_7 1_555 1_555
C15_7 C2_7 1_555 1_555
H7_7 C15_7 1_555 1_555
C17_7 C14_7 1_555 1_555
H8_7 C17_7 1_555 1_555
C22_7 N3_7 1_555 1_555
C24_7 C13_7 1_555 1_555
H12_7 C24_7 1_555 1_555
C25_7 N6_7 1_555 1_555
C27_7 N2_7 1_555 1_555
O26_2 C39_7 1_555 1_555
O29_2 C39_7 1_555 1_555
O20_4 C38_7 1_555 1_555
O35_5 C31_7 1_555 1_555
O23_4 C38_7 1_555 1_555
N7_7 C46_7 1_555 1_555
N10_7 C46_7 1_555 1_555
N11_7 H14_7 1_555 1_555
C31_7 O25_6 1_555 1_555
C32_7 H15_7 1_555 1_555
C33_7 C31_7 1_555 1_555
C38_7 C43_7 1_555 1_555
C39_7 C37_7 1_555 1_555
C43_7 C32_7 1_555 1_555
C45_7 C33_7 1_555 1_555
H21_7 C45_7 1_555 1_555
C46_7 N11_7 1_555 1_555
C47_7 C43_7 1_555 1_555
H22_7 C47_7 1_555 1_555
C50_7 N11_7 1_555 1_555
Cu13 O20_4 1_555 1_555
Cu19 O23_4 1_555 1_555
O33_4 Cu11 1_555 1_555
O38_4 Cu17 1_555 1_555
N3_7 C27_7 1_555 1_555
C7_7 C13_7 1_555 1_555
N6_7 C26_7 1_555 1_555
C15_7 C22_7 1_555 1_555
C17_7 C25_7 1_555 1_555
C21_7 C22_7 1_555 1_555
C24_7 C25_7 1_555 1_555
C32_7 C33_7 1_555 1_555
C45_7 C50_7 1_555 1_555
C47_7 C50_7 1_555 1_555
O25_7 C4_8 1_555 1_555
O26 C12_8 1_555 1_555
O29 C12_8 1_555 1_555
O33_4 C11_8 1_555 1_555
O35_8 C4_8 1_555 1_555
O38_4 C11_8 1_555 1_555
N1_8 C19_8 1_555 1_555
N4_8 C19_8 1_555 1_555
N5_8 H2_8 1_555 1_555
C4_8 C6_8 1_555 1_555
C5_8 H3_8 1_555 1_555
C6_8 C5_8 1_555 1_555
C11_8 C16_8 1_555 1_555
C12_8 C10_8 1_555 1_555
C16_8 C5_8 1_555 1_555
C18_8 C6_8 1_555 1_555
H9_8 C18_8 1_555 1_555
C19_8 N5_8 1_555 1_555
C20_8 C16_8 1_555 1_555
H10_8 C20_8 1_555 1_555
C23_8 N5_8 1_555 1_555
Cu20 O13_8 1_555 1_555
O13_8 C28_8 1_555 1_555
O28_7 C35_8 1_555 1_555
O18_8 Cu14 1_555 1_555
O32_2 C30_8 1_555 1_555
O37_2 C30_8 1_555 1_555
N8_8 C53_8 1_555 1_555
N9_8 H13_8 1_555 1_555
C28_8 O18_8 1_555 1_555
C29_8 C30_8 1_555 1_555
C34_8 H16_8 1_555 1_555
N12_8 H17_8 1_555 1_555
C35_8 O40_8 1_555 1_555
C36_8 C29_8 1_555 1_555
H18_8 C36_8 1_555 1_555
C40_8 C28_8 1_555 1_555
C41_8 C34_8 1_555 1_555
C42_8 C29_8 1_555 1_555
H19_8 C42_8 1_555 1_555
C44_8 C41_8 1_555 1_555
H20_8 C44_8 1_555 1_555
C49_8 N9_8 1_555 1_555
C51_8 C40_8 1_555 1_555
H24_8 C51_8 1_555 1_555
C52_8 N12_8 1_555 1_555
C54_8 N8_8 1_555 1_555
C18_8 C23_8 1_555 1_555
C20_8 C23_8 1_555 1_555
N9_8 C54_8 1_555 1_555
C34_8 C40_8 1_555 1_555
N12_8 C53_8 1_555 1_555
C35_8 C41_8 1_555 1_555
C42_8 C49_8 1_555 1_555
C44_8 C52_8 1_555 1_555
C48_8 C49_8 1_555 1_555
C51_8 C52_8 1_555 1_555
Cu19 O1_8 1_555 1_555
O1_8 C1_8 1_555 1_555
O28_8 C8_8 1_555 1_555
O6_8 Cu13 1_555 1_555
O31_2 C3_8 1_555 1_555
O36_2 C3_8 1_555 1_555
O40_7 C8_8 1_555 1_555
N2_8 C26_8 1_555 1_555
N3_8 H1_8 1_555 1_555
C1_8 O6_8 1_555 1_555
C2_8 C3_8 1_555 1_555
C7_8 H4_8 1_555 1_555
N6_8 H5_8 1_555 1_555
C8_8 C14_8 1_555 1_555
C9_8 C2_8 1_555 1_555
H6_8 C9_8 1_555 1_555
C13_8 C1_8 1_555 1_555
C14_8 C7_8 1_555 1_555
C15_8 C2_8 1_555 1_555
H7_8 C15_8 1_555 1_555
C17_8 C14_8 1_555 1_555
H8_8 C17_8 1_555 1_555
C22_8 N3_8 1_555 1_555
C24_8 C13_8 1_555 1_555
H12_8 C24_8 1_555 1_555
C25_8 N6_8 1_555 1_555
C27_8 N2_8 1_555 1_555
O27 C39_8 1_555 1_555
O30 C39_8 1_555 1_555
O34_4 C38_8 1_555 1_555
O35_7 C31_8 1_555 1_555
O39_4 C38_8 1_555 1_555
N7_8 C46_8 1_555 1_555
N10_8 C46_8 1_555 1_555
N11_8 H14_8 1_555 1_555
C31_8 O25_8 1_555 1_555
C32_8 H15_8 1_555 1_555
C33_8 C31_8 1_555 1_555
C38_8 C43_8 1_555 1_555
C39_8 C37_8 1_555 1_555
C43_8 C32_8 1_555 1_555
C45_8 C33_8 1_555 1_555
H21_8 C45_8 1_555 1_555
C46_8 N11_8 1_555 1_555
C47_8 C43_8 1_555 1_555
H22_8 C47_8 1_555 1_555
C50_8 N11_8 1_555 1_555
N3_8 C27_8 1_555 1_555
C7_8 C13_8 1_555 1_555
N6_8 C26_8 1_555 1_555
C15_8 C22_8 1_555 1_555
C17_8 C25_8 1_555 1_555
C21_8 C22_8 1_555 1_555
C24_8 C25_8 1_555 1_555
C32_8 C33_8 1_555 1_555
C45_8 C50_8 1_555 1_555
C47_8 C50_8 1_555 1_555

#END
