
###############################################################################
#
# This file contains modified crystal structure data generated from the
# MOF subset of the Cambridge Structural Database (CSD) v543 
# hosted by the Cambridge Crystallographic Data Centre (CCDC).
#
# This work is licensed under the Creative Commons
# Attribution-NonCommercial-ShareAlike 4.0 International License.
# To view a copy of this license, visit
# http://creativecommons.org/licenses/by-nc-sa/4.0/
# or send a letter to
# Creative Commons, PO Box 1866, Mountain View, CA 94042, USA.
#
# CIF created using the CSD Python API on 29 September 2022
# The structure has been converted into the P1 space group
# The structure has a 3D framework
# The original CSD entry PAPPAB07 is in the tetragonal crystal system
# The framework has been calculated to contain at least 10.0% void space
# The void calculation uses a probe of radius 1.32A, grid spacing 0.4
#
###############################################################################

data_PAPPAB07
_chemical_formula_moiety         '(C432 H192 Cu40 N96 O180)n'
_symmetry_cell_setting           triclinic
_symmetry_space_group_name_H-M   'P 1'
_symmetry_Int_Tables_number      1
_space_group_name_Hall           'P 1'
loop_
_symmetry_equiv_pos_site_id
_symmetry_equiv_pos_as_xyz
1 x,y,z
_cell_length_a                   26.4865(2)
_cell_length_b                   26.4865(2)
_cell_length_c                   37.9703(4)
_cell_angle_alpha                90
_cell_angle_beta                 90
_cell_angle_gamma                90
_cell_volume                     26637.5
loop_
_atom_site_label
_atom_site_type_symbol
_atom_site_fract_x
_atom_site_fract_y
_atom_site_fract_z
Cu1 Cu 0.39132(5) 0.07194(5) 0.500000
O10 O 0.3984(2) 0.0199(2) 0.46469(17)
O12 O 0.3145(2) 0.0073(2) 0.46415(17)
Cu5 Cu 0.82185(4) 0.11929(4) 0.35177(3)
Cu6 Cu 0.73260(4) 0.34359(4) 0.19428(3)
O13 O 0.4097(2) 0.2676(2) 0.21609(16)
O14 O 0.7107(2) 0.1373(2) 0.33519(16)
O15 O 0.4420(2) 0.3207(2) 0.17574(16)
O16 O 0.3762(2) 0.1203(2) 0.46289(16)
O17 O 0.7606(2) 0.0988(2) 0.37467(17)
O18 O 0.6216(2) 0.3558(2) 0.17523(16)
O19 O 0.1846(2) 0.1816(2) 0.37447(16)
O20 O 0.2197(2) 0.2270(2) 0.33073(17)
O21 O 0.2933(2) 0.1072(2) 0.46392(16)
O23 O 0.6710(2) 0.3262(2) 0.21847(17)
C28 C 0.7181(3) 0.1114(3) 0.3628(3)
C29 C 0.2785(3) 0.1666(3) 0.4057(2)
H13 H 0.250168 0.154681 0.417557
N7 N 0.4688(3) 0.1666(4) 0.3702(2)
C30 C 0.3264(3) 0.1574(3) 0.4189(2)
C31 C 0.6288(3) 0.3331(3) 0.2038(3)
C32 C 0.6781(3) 0.0578(3) 0.4086(2)
H14 H 0.709692 0.044352 0.413908
C33 C 0.3317(3) 0.1263(3) 0.4508(2)
N8 N 0.5580(3) 0.2257(4) 0.2950(2)
H15 H 0.589070 0.216843 0.297626
N9 N 0.5481(3) 0.1738(4) 0.3418(2)
C34 C 0.4451(3) 0.2935(3) 0.2026(3)
C35 C 0.5833(3) 0.3097(3) 0.2205(2)
C36 C 0.2214(3) 0.2016(4) 0.3587(2)
C37 C 0.5363(3) 0.3140(3) 0.2051(3)
H16 H 0.532207 0.332502 0.184500
N10 N 0.4788(3) 0.2219(4) 0.3208(2)
N11 N 0.4037(3) 0.2164(4) 0.3485(3)
H17 H 0.396408 0.240533 0.334147
C38 C 0.6401(4) 0.0015(4) 0.4537(3)
C39 C 0.4954(3) 0.2908(4) 0.2206(3)
C40 C 0.6729(3) 0.0943(3) 0.3826(2)
C41 C 0.2732(3) 0.1937(4) 0.3747(2)
C42 C 0.6357(3) 0.0418(3) 0.4264(3)
N12 N 0.5353(3) 0.1199(4) 0.3887(3)
H18 H 0.512781 0.108413 0.402856
C43 C 0.3152(3) 0.2093(4) 0.3566(2)
H19 H 0.311548 0.226526 0.335376
C44 C 0.5011(3) 0.2614(4) 0.2501(3)
H20 H 0.473271 0.244798 0.259585
C45 C 0.5890(3) 0.2809(4) 0.2505(3)
H21 H 0.620795 0.278004 0.260702
C46 C 0.5891(3) 0.0615(4) 0.4190(3)
H22 H 0.560805 0.049730 0.430955
C47 C 0.5484(3) 0.2562(4) 0.2657(3)
C48 C 0.3693(3) 0.1735(4) 0.4006(3)
H23 H 0.401476 0.166702 0.409145
C49 C 0.5837(4) 0.0992(4) 0.3936(3)
C50 C 0.4529(4) 0.2006(4) 0.3471(3)
C51 C 0.6259(3) 0.1145(4) 0.3748(3)
H24 H 0.622660 0.138314 0.356999
C52 C 0.3628(4) 0.1998(4) 0.3695(3)
C53 C 0.5262(4) 0.2079(5) 0.3199(3)
C54 C 0.5179(4) 0.1546(5) 0.3656(3)
Cu8 Cu 0.29923(5) 0.05679(5) 0.500000
Cu9 Cu 0.11929(4) 0.17815(4) 0.35177(3)
Cu12 Cu 0.67815(4) 0.38071(4) 0.14823(3)
Cu13 Cu 0.38071(4) 0.32185(4) 0.14823(3)
Cu15 Cu 0.34359(4) 0.26740(4) 0.19428(3)
Cu18 Cu 0.76740(4) 0.15641(4) 0.30572(3)
Cu19 Cu 0.15641(4) 0.23260(4) 0.30572(3)
O26 O 0.7324(2) 0.4097(2) 0.21609(16)
O28 O 0.7893(2) 0.3627(2) 0.16481(16)
O30 O 0.8207(2) 0.0580(2) 0.32426(16)
O31 O 0.3762(2) 0.1203(2) 0.53711(16)
O33 O 0.8784(2) 0.1442(2) 0.32477(16)
O35 O 0.8184(2) 0.1846(2) 0.37447(16)
O37 O 0.7270(2) 0.2803(2) 0.16927(17)
O39 O 0.3984(2) 0.0199(2) 0.53531(17)
Cu2 Cu 0.70077(5) 0.94321(5) 0.500000
Cu3 Cu 0.17815(4) 0.88071(4) 0.35177(3)
Cu4 Cu 0.26740(4) 0.65641(4) 0.19428(3)
O1 O 0.5903(2) 0.7324(2) 0.21609(16)
O2 O 0.2893(2) 0.8627(2) 0.33519(16)
O3 O 0.5580(2) 0.6793(2) 0.17574(16)
O4 O 0.6238(2) 0.8797(2) 0.46289(16)
O5 O 0.2394(2) 0.9012(2) 0.37467(17)
O6 O 0.3784(2) 0.6442(2) 0.17523(16)
O7 O 0.8154(2) 0.8184(2) 0.37447(16)
O8 O 0.7803(2) 0.7730(2) 0.33073(17)
O9 O 0.7067(2) 0.8928(2) 0.46392(16)
O11 O 0.3290(2) 0.6738(2) 0.21847(17)
C1 C 0.2819(3) 0.8886(3) 0.3628(3)
C2 C 0.7215(3) 0.8334(3) 0.4057(2)
H1 H 0.749832 0.845319 0.417557
N1 N 0.5312(3) 0.8334(4) 0.3702(2)
C3 C 0.6736(3) 0.8426(3) 0.4189(2)
C4 C 0.3712(3) 0.6669(3) 0.2038(3)
C5 C 0.3219(3) 0.9422(3) 0.4086(2)
H2 H 0.290308 0.955648 0.413908
C6 C 0.6683(3) 0.8737(3) 0.4508(2)
N2 N 0.4420(3) 0.7743(4) 0.2950(2)
H3 H 0.410930 0.783157 0.297626
N3 N 0.4519(3) 0.8262(4) 0.3418(2)
C7 C 0.5549(3) 0.7065(3) 0.2026(3)
C8 C 0.4167(3) 0.6903(3) 0.2205(2)
C9 C 0.7786(3) 0.7984(4) 0.3587(2)
C10 C 0.4637(3) 0.6860(3) 0.2051(3)
H4 H 0.467793 0.667498 0.184500
N4 N 0.5212(3) 0.7781(4) 0.3208(2)
N5 N 0.5963(3) 0.7836(4) 0.3485(3)
H5 H 0.603592 0.759467 0.334147
C11 C 0.3599(4) 0.9985(4) 0.4537(3)
C12 C 0.5046(3) 0.7092(4) 0.2206(3)
C13 C 0.3271(3) 0.9057(3) 0.3826(2)
C14 C 0.7268(3) 0.8063(4) 0.3747(2)
C15 C 0.3643(3) 0.9582(3) 0.4264(3)
N6 N 0.4647(3) 0.8801(4) 0.3887(3)
H6 H 0.487219 0.891587 0.402856
C16 C 0.6848(3) 0.7907(4) 0.3566(2)
H7 H 0.688452 0.773474 0.335376
C17 C 0.4989(3) 0.7386(4) 0.2501(3)
H8 H 0.526729 0.755202 0.259585
C18 C 0.4110(3) 0.7191(4) 0.2505(3)
H9 H 0.379205 0.721996 0.260702
C19 C 0.4109(3) 0.9385(4) 0.4190(3)
H10 H 0.439195 0.950270 0.430955
C20 C 0.4516(3) 0.7438(4) 0.2657(3)
C21 C 0.6307(3) 0.8265(4) 0.4006(3)
H11 H 0.598524 0.833298 0.409145
C22 C 0.4163(4) 0.9008(4) 0.3936(3)
C23 C 0.5471(4) 0.7994(4) 0.3471(3)
C24 C 0.3741(3) 0.8855(4) 0.3748(3)
H12 H 0.377340 0.861686 0.356999
C25 C 0.6372(4) 0.8002(4) 0.3695(3)
C26 C 0.4738(4) 0.7921(5) 0.3199(3)
C27 C 0.4821(4) 0.8454(5) 0.3656(3)
O22 O 0.6016(2) 0.9801(2) 0.46469(17)
O24 O 0.6855(2) 0.9927(2) 0.46415(17)
Cu7 Cu 0.60868(5) 0.92806(5) 0.500000
Cu10 Cu 0.88071(4) 0.82185(4) 0.35177(3)
Cu11 Cu 0.32185(4) 0.61929(4) 0.14823(3)
Cu14 Cu 0.61929(4) 0.67815(4) 0.14823(3)
Cu16 Cu 0.65641(4) 0.73260(4) 0.19428(3)
Cu17 Cu 0.23260(4) 0.84359(4) 0.30572(3)
Cu20 Cu 0.84359(4) 0.76740(4) 0.30572(3)
O25 O 0.2676(2) 0.5903(2) 0.21609(16)
O27 O 0.2107(2) 0.6373(2) 0.16481(16)
O29 O 0.1793(2) 0.9420(2) 0.32426(16)
O32 O 0.1216(2) 0.8558(2) 0.32477(16)
O34 O 0.1816(2) 0.8154(2) 0.37447(16)
O36 O 0.2730(2) 0.7197(2) 0.16927(17)
O38 O 0.7067(2) 0.8928(2) 0.53608(16)
O40 O 0.6855(2) 0.9927(2) 0.53585(17)
O38_2 O 0.2933(2) 0.1072(2) 0.53608(16)
O40_2 O 0.3145(2) 0.0073(2) 0.53585(17)
O31_2 O 0.6238(2) 0.8797(2) 0.53711(16)
O39_2 O 0.6016(2) 0.9801(2) 0.53531(17)
Cu2_2 Cu 0.05679(5) 0.70077(5) 0.500000
O2_2 O 0.1373(2) 0.2893(2) 0.33519(16)
O3_2 O 0.3207(2) 0.5580(2) 0.17574(16)
O4_2 O 0.1203(2) 0.6238(2) 0.46289(16)
O5_2 O 0.0988(2) 0.2394(2) 0.37467(17)
O6_2 O 0.3558(2) 0.3784(2) 0.17523(16)
O8_2 O 0.2270(2) 0.7803(2) 0.33073(17)
O9_2 O 0.1072(2) 0.7067(2) 0.46392(16)
O11_2 O 0.3262(2) 0.3290(2) 0.21847(17)
C1_2 C 0.1114(3) 0.2819(3) 0.3628(3)
C2_2 C 0.1666(3) 0.7215(3) 0.4057(2)
H1_2 H 0.154681 0.749832 0.417557
N1_2 N 0.1666(4) 0.5312(3) 0.3702(2)
C3_2 C 0.1574(3) 0.6736(3) 0.4189(2)
C4_2 C 0.3331(3) 0.3712(3) 0.2038(3)
C5_2 C 0.0578(3) 0.3219(3) 0.4086(2)
H2_2 H 0.044352 0.290308 0.413908
C6_2 C 0.1263(3) 0.6683(3) 0.4508(2)
N2_2 N 0.2257(4) 0.4420(3) 0.2950(2)
H3_2 H 0.216843 0.410930 0.297626
N3_2 N 0.1738(4) 0.4519(3) 0.3418(2)
C7_2 C 0.2935(3) 0.5549(3) 0.2026(3)
C8_2 C 0.3097(3) 0.4167(3) 0.2205(2)
C9_2 C 0.2016(4) 0.7786(3) 0.3587(2)
C10_2 C 0.3140(3) 0.4637(3) 0.2051(3)
H4_2 H 0.332502 0.467793 0.184500
N4_2 N 0.2219(4) 0.5212(3) 0.3208(2)
N5_2 N 0.2164(4) 0.5963(3) 0.3485(3)
H5_2 H 0.240533 0.603592 0.334147
C11_2 C 0.0015(4) 0.3599(4) 0.4537(3)
C12_2 C 0.2908(4) 0.5046(3) 0.2206(3)
C13_2 C 0.0943(3) 0.3271(3) 0.3826(2)
C14_2 C 0.1937(4) 0.7268(3) 0.3747(2)
C15_2 C 0.0418(3) 0.3643(3) 0.4264(3)
N6_2 N 0.1199(4) 0.4647(3) 0.3887(3)
H6_2 H 0.108413 0.487219 0.402856
C16_2 C 0.2093(4) 0.6848(3) 0.3566(2)
H7_2 H 0.226526 0.688452 0.335376
C17_2 C 0.2614(4) 0.4989(3) 0.2501(3)
H8_2 H 0.244798 0.526729 0.259585
C18_2 C 0.2809(4) 0.4110(3) 0.2505(3)
H9_2 H 0.278004 0.379205 0.260702
C19_2 C 0.0615(4) 0.4109(3) 0.4190(3)
H10_2 H 0.049730 0.439195 0.430955
C20_2 C 0.2562(4) 0.4516(3) 0.2657(3)
C21_2 C 0.1735(4) 0.6307(3) 0.4006(3)
H11_2 H 0.166702 0.598524 0.409145
C22_2 C 0.0992(4) 0.4163(4) 0.3936(3)
C23_2 C 0.2006(4) 0.5471(4) 0.3471(3)
C24_2 C 0.1145(4) 0.3741(3) 0.3748(3)
H12_2 H 0.138314 0.377340 0.356999
C25_2 C 0.1998(4) 0.6372(4) 0.3695(3)
C26_2 C 0.2079(5) 0.4738(4) 0.3199(3)
C27_2 C 0.1546(5) 0.4821(4) 0.3656(3)
O22_2 O 0.0199(2) 0.6016(2) 0.46469(17)
O24_2 O 0.0073(2) 0.6855(2) 0.46415(17)
Cu7_2 Cu 0.07194(5) 0.60868(5) 0.500000
O27_2 O 0.3627(2) 0.2107(2) 0.16481(16)
O29_2 O 0.0580(2) 0.1793(2) 0.32426(16)
O32_2 O 0.1442(2) 0.1216(2) 0.32477(16)
O36_2 O 0.2803(2) 0.2730(2) 0.16927(17)
O38_3 O 0.1072(2) 0.7067(2) 0.53608(16)
O40_3 O 0.0073(2) 0.6855(2) 0.53585(17)
Cu1_2 Cu 0.92806(5) 0.39132(5) 0.500000
O10_2 O 0.9801(2) 0.3984(2) 0.46469(17)
O12_2 O 0.9927(2) 0.3145(2) 0.46415(17)
O14_2 O 0.8627(2) 0.7107(2) 0.33519(16)
O15_2 O 0.6793(2) 0.4420(2) 0.17574(16)
O16_2 O 0.8797(2) 0.3762(2) 0.46289(16)
O17_2 O 0.9012(2) 0.7606(2) 0.37467(17)
O18_2 O 0.6442(2) 0.6216(2) 0.17523(16)
O20_2 O 0.7730(2) 0.2197(2) 0.33073(17)
O21_2 O 0.8928(2) 0.2933(2) 0.46392(16)
O23_2 O 0.6738(2) 0.6710(2) 0.21847(17)
C28_2 C 0.8886(3) 0.7181(3) 0.3628(3)
C29_2 C 0.8334(3) 0.2785(3) 0.4057(2)
H13_2 H 0.845319 0.250168 0.417557
N7_2 N 0.8334(4) 0.4688(3) 0.3702(2)
C30_2 C 0.8426(3) 0.3264(3) 0.4189(2)
C31_2 C 0.6669(3) 0.6288(3) 0.2038(3)
C32_2 C 0.9422(3) 0.6781(3) 0.4086(2)
H14_2 H 0.955648 0.709692 0.413908
C33_2 C 0.8737(3) 0.3317(3) 0.4508(2)
N8_2 N 0.7743(4) 0.5580(3) 0.2950(2)
H15_2 H 0.783157 0.589070 0.297626
N9_2 N 0.8262(4) 0.5481(3) 0.3418(2)
C34_2 C 0.7065(3) 0.4451(3) 0.2026(3)
C35_2 C 0.6903(3) 0.5833(3) 0.2205(2)
C36_2 C 0.7984(4) 0.2214(3) 0.3587(2)
C37_2 C 0.6860(3) 0.5363(3) 0.2051(3)
H16_2 H 0.667498 0.532207 0.184500
N10_2 N 0.7781(4) 0.4788(3) 0.3208(2)
N11_2 N 0.7836(4) 0.4037(3) 0.3485(3)
H17_2 H 0.759467 0.396408 0.334147
C38_2 C 0.9985(4) 0.6401(4) 0.4537(3)
C39_2 C 0.7092(4) 0.4954(3) 0.2206(3)
C40_2 C 0.9057(3) 0.6729(3) 0.3826(2)
C41_2 C 0.8063(4) 0.2732(3) 0.3747(2)
C42_2 C 0.9582(3) 0.6357(3) 0.4264(3)
N12_2 N 0.8801(4) 0.5353(3) 0.3887(3)
H18_2 H 0.891587 0.512781 0.402856
C43_2 C 0.7907(4) 0.3152(3) 0.3566(2)
H19_2 H 0.773474 0.311548 0.335376
C44_2 C 0.7386(4) 0.5011(3) 0.2501(3)
H20_2 H 0.755202 0.473271 0.259585
C45_2 C 0.7191(4) 0.5890(3) 0.2505(3)
H21_2 H 0.721996 0.620795 0.260702
C46_2 C 0.9385(4) 0.5891(3) 0.4190(3)
H22_2 H 0.950270 0.560805 0.430955
C47_2 C 0.7438(4) 0.5484(3) 0.2657(3)
C48_2 C 0.8265(4) 0.3693(3) 0.4006(3)
H23_2 H 0.833298 0.401476 0.409145
C49_2 C 0.9008(4) 0.5837(4) 0.3936(3)
C50_2 C 0.7994(4) 0.4529(4) 0.3471(3)
C51_2 C 0.8855(4) 0.6259(3) 0.3748(3)
H24_2 H 0.861686 0.622660 0.356999
C52_2 C 0.8002(4) 0.3628(4) 0.3695(3)
C53_2 C 0.7921(5) 0.5262(4) 0.3199(3)
C54_2 C 0.8454(5) 0.5179(4) 0.3656(3)
Cu8_2 Cu 0.94321(5) 0.29923(5) 0.500000
O28_2 O 0.6373(2) 0.7893(2) 0.16481(16)
O30_2 O 0.9420(2) 0.8207(2) 0.32426(16)
O31_3 O 0.8797(2) 0.3762(2) 0.53711(16)
O33_2 O 0.8558(2) 0.8784(2) 0.32477(16)
O37_2 O 0.7197(2) 0.7270(2) 0.16927(17)
O39_3 O 0.9801(2) 0.3984(2) 0.53531(17)
O31_4 O 0.1203(2) 0.6238(2) 0.53711(16)
O39_4 O 0.0199(2) 0.6016(2) 0.53531(17)
O38_4 O 0.8928(2) 0.2933(2) 0.53608(16)
O40_4 O 0.9927(2) 0.3145(2) 0.53585(17)
Cu2_3 Cu 0.20077(5) 0.44321(5) 0.000000
Cu7_3 Cu 0.10868(5) 0.42806(5) 0.000000
O38_5 O 0.2067(2) 0.3928(2) 0.03608(16)
O40_5 O 0.1855(2) 0.4927(2) 0.03585(17)
Cu2_4 Cu 0.20077(5) 0.44321(5) 1.000000
O1_2 O 0.0903(2) 0.2324(2) 0.71609(16)
O3_3 O 0.0580(2) 0.1793(2) 0.67574(16)
O4_3 O 0.1238(2) 0.3797(2) 0.96289(16)
O7_2 O 0.3154(2) 0.3184(2) 0.87447(16)
O8_3 O 0.2803(2) 0.2730(2) 0.83073(17)
O9_3 O 0.2067(2) 0.3928(2) 0.96392(16)
C2_3 C 0.2215(3) 0.3334(3) 0.9057(2)
H1_3 H 0.249832 0.345319 0.917557
N1_3 N 0.0312(3) 0.3334(4) 0.8702(2)
C3_3 C 0.1736(3) 0.3426(3) 0.9189(2)
C6_3 C 0.1683(3) 0.3737(3) 0.9508(2)
C7_3 C 0.0549(3) 0.2065(3) 0.7026(3)
C9_3 C 0.2786(3) 0.2984(4) 0.8587(2)
N4_3 N 0.0212(3) 0.2781(4) 0.8208(2)
N5_3 N 0.0963(3) 0.2836(4) 0.8485(3)
H5_3 H 0.103592 0.259467 0.834147
C12_3 C 0.0046(3) 0.2092(4) 0.7206(3)
C14_3 C 0.2268(3) 0.3063(4) 0.8747(2)
C16_3 C 0.1848(3) 0.2907(4) 0.8566(2)
H7_3 H 0.188452 0.273474 0.835376
H8_3 H 0.026729 0.255202 0.759585
C21_3 C 0.1307(3) 0.3265(4) 0.9006(3)
H11_3 H 0.098524 0.333298 0.909145
C23_3 C 0.0471(4) 0.2994(4) 0.8471(3)
C25_3 C 0.1372(4) 0.3002(4) 0.8695(3)
Cu5_2 Cu 0.32185(4) 0.61929(4) 0.85177(3)
Cu6_2 Cu 0.23260(4) 0.84359(4) 0.69428(3)
O14_3 O 0.2107(2) 0.6373(2) 0.83519(16)
O17_3 O 0.2606(2) 0.5988(2) 0.87467(17)
O18_3 O 0.1216(2) 0.8558(2) 0.67523(16)
O22_3 O 0.1016(2) 0.4801(2) 0.96469(17)
O23_3 O 0.1710(2) 0.8262(2) 0.71847(17)
O24_3 O 0.1855(2) 0.4927(2) 0.96415(17)
C28_3 C 0.2181(3) 0.6114(3) 0.8628(3)
C31_3 C 0.1288(3) 0.8331(3) 0.7038(3)
C32_3 C 0.1781(3) 0.5578(3) 0.9086(2)
H14_3 H 0.209692 0.544352 0.913908
N8_3 N 0.0580(3) 0.7257(4) 0.7950(2)
H15_3 H 0.089070 0.716843 0.797626
N9_3 N 0.0481(3) 0.6738(4) 0.8418(2)
C35_3 C 0.0833(3) 0.8097(3) 0.7205(2)
C37_3 C 0.0363(3) 0.8140(3) 0.7051(3)
H16_3 H 0.032207 0.832502 0.684500
C38_3 C 0.1401(4) 0.5015(4) 0.9537(3)
C40_3 C 0.1729(3) 0.5943(3) 0.8826(2)
C42_3 C 0.1357(3) 0.5418(3) 0.9264(3)
N12_3 N 0.0353(3) 0.6199(4) 0.8887(3)
H18_3 H 0.012781 0.608413 0.902856
C44_3 C 0.0011(3) 0.7614(4) 0.7501(3)
C45_3 C 0.0890(3) 0.7809(4) 0.7505(3)
H21_3 H 0.120795 0.778004 0.760702
C46_3 C 0.0891(3) 0.5615(4) 0.9190(3)
H22_3 H 0.060805 0.549730 0.930955
C47_3 C 0.0484(3) 0.7562(4) 0.7657(3)
C49_3 C 0.0837(4) 0.5992(4) 0.8936(3)
C51_3 C 0.1259(3) 0.6145(4) 0.8748(3)
H24_3 H 0.122660 0.638314 0.856999
C53_3 C 0.0262(4) 0.7079(5) 0.8199(3)
C54_3 C 0.0179(4) 0.6546(5) 0.8656(3)
Cu7_4 Cu 0.10868(5) 0.42806(5) 1.000000
Cu10_2 Cu 0.38071(4) 0.32185(4) 0.85177(3)
Cu12_2 Cu 0.17815(4) 0.88071(4) 0.64823(3)
Cu14_2 Cu 0.11929(4) 0.17815(4) 0.64823(3)
Cu16_2 Cu 0.15641(4) 0.23260(4) 0.69428(3)
Cu18_2 Cu 0.26740(4) 0.65641(4) 0.80572(3)
Cu20_2 Cu 0.34359(4) 0.26740(4) 0.80572(3)
O26_2 O 0.2324(2) 0.9097(2) 0.71609(16)
O28_3 O 0.2893(2) 0.8627(2) 0.66481(16)
O30_3 O 0.3207(2) 0.5580(2) 0.82426(16)
O33_3 O 0.3784(2) 0.6442(2) 0.82477(16)
O35_2 O 0.3184(2) 0.6846(2) 0.87447(16)
O37_3 O 0.2270(2) 0.7803(2) 0.66927(17)
Cu1_3 Cu 0.89132(5) 0.57194(5) 0.000000
Cu8_3 Cu 0.79923(5) 0.55679(5) 0.000000
O31_5 O 0.8762(2) 0.6203(2) 0.03711(16)
O39_5 O 0.8984(2) 0.5199(2) 0.03531(17)
Cu1_4 Cu 0.89132(5) 0.57194(5) 1.000000
Cu3_2 Cu 0.67815(4) 0.38071(4) 0.85177(3)
Cu4_2 Cu 0.76740(4) 0.15641(4) 0.69428(3)
O2_3 O 0.7893(2) 0.3627(2) 0.83519(16)
O5_3 O 0.7394(2) 0.4012(2) 0.87467(17)
O6_3 O 0.8784(2) 0.1442(2) 0.67523(16)
O10_3 O 0.8984(2) 0.5199(2) 0.96469(17)
O11_3 O 0.8290(2) 0.1738(2) 0.71847(17)
O12_3 O 0.8145(2) 0.5073(2) 0.96415(17)
C1_3 C 0.7819(3) 0.3886(3) 0.8628(3)
C4_3 C 0.8712(3) 0.1669(3) 0.7038(3)
C5_3 C 0.8219(3) 0.4422(3) 0.9086(2)
H2_3 H 0.790308 0.455648 0.913908
N2_3 N 0.9420(3) 0.2743(4) 0.7950(2)
H3_3 H 0.910930 0.283157 0.797626
N3_3 N 0.9519(3) 0.3262(4) 0.8418(2)
C8_3 C 0.9167(3) 0.1903(3) 0.7205(2)
C10_3 C 0.9637(3) 0.1860(3) 0.7051(3)
H4_3 H 0.967793 0.167498 0.684500
C11_3 C 0.8599(4) 0.4985(4) 0.9537(3)
C13_3 C 0.8271(3) 0.4057(3) 0.8826(2)
C15_3 C 0.8643(3) 0.4582(3) 0.9264(3)
N6_3 N 0.9647(3) 0.3801(4) 0.8887(3)
H6_3 H 0.987219 0.391587 0.902856
C17_3 C 0.9989(3) 0.2386(4) 0.7501(3)
C18_3 C 0.9110(3) 0.2191(4) 0.7505(3)
H9_3 H 0.879205 0.221996 0.760702
C19_3 C 0.9109(3) 0.4385(4) 0.9190(3)
H10_3 H 0.939195 0.450270 0.930955
C20_3 C 0.9516(3) 0.2438(4) 0.7657(3)
C22_3 C 0.9163(4) 0.4008(4) 0.8936(3)
C24_3 C 0.8741(3) 0.3855(4) 0.8748(3)
H12_3 H 0.877340 0.361686 0.856999
C26_3 C 0.9738(4) 0.2921(5) 0.8199(3)
C27_3 C 0.9821(4) 0.3454(5) 0.8656(3)
O13_2 O 0.9097(2) 0.7676(2) 0.71609(16)
O15_3 O 0.9420(2) 0.8207(2) 0.67574(16)
O16_3 O 0.8762(2) 0.6203(2) 0.96289(16)
O19_2 O 0.6846(2) 0.6816(2) 0.87447(16)
O20_3 O 0.7197(2) 0.7270(2) 0.83073(17)
O21_3 O 0.7933(2) 0.6072(2) 0.96392(16)
C29_3 C 0.7785(3) 0.6666(3) 0.9057(2)
H13_3 H 0.750168 0.654681 0.917557
N7_3 N 0.9688(3) 0.6666(4) 0.8702(2)
C30_3 C 0.8264(3) 0.6574(3) 0.9189(2)
C33_3 C 0.8317(3) 0.6263(3) 0.9508(2)
C34_3 C 0.9451(3) 0.7935(3) 0.7026(3)
C36_3 C 0.7214(3) 0.7016(4) 0.8587(2)
N10_3 N 0.9788(3) 0.7219(4) 0.8208(2)
N11_3 N 0.9037(3) 0.7164(4) 0.8485(3)
H17_3 H 0.896408 0.740533 0.834147
C39_3 C 0.9954(3) 0.7908(4) 0.7206(3)
C41_3 C 0.7732(3) 0.6937(4) 0.8747(2)
C43_3 C 0.8152(3) 0.7093(4) 0.8566(2)
H19_3 H 0.811548 0.726526 0.835376
H20_3 H 0.973271 0.744798 0.759585
C48_3 C 0.8693(3) 0.6735(4) 0.9006(3)
H23_3 H 0.901476 0.666702 0.909145
C50_3 C 0.9529(4) 0.7006(4) 0.8471(3)
C52_3 C 0.8628(4) 0.6998(4) 0.8695(3)
Cu8_4 Cu 0.79923(5) 0.55679(5) 1.000000
Cu9_2 Cu 0.61929(4) 0.67815(4) 0.85177(3)
Cu11_2 Cu 0.82185(4) 0.11929(4) 0.64823(3)
Cu13_2 Cu 0.88071(4) 0.82185(4) 0.64823(3)
Cu15_2 Cu 0.84359(4) 0.76740(4) 0.69428(3)
Cu17_2 Cu 0.73260(4) 0.34359(4) 0.80572(3)
Cu19_2 Cu 0.65641(4) 0.73260(4) 0.80572(3)
O25_2 O 0.7676(2) 0.0903(2) 0.71609(16)
O27_3 O 0.7107(2) 0.1373(2) 0.66481(16)
O29_3 O 0.6793(2) 0.4420(2) 0.82426(16)
O32_3 O 0.6216(2) 0.3558(2) 0.82477(16)
O34_2 O 0.6816(2) 0.3154(2) 0.87447(16)
O36_3 O 0.7730(2) 0.2197(2) 0.66927(17)
O31_6 O 0.1238(2) 0.3797(2) 0.03711(16)
O39_6 O 0.1016(2) 0.4801(2) 0.03531(17)
O38_6 O 0.7933(2) 0.6072(2) 0.03608(16)
O40_6 O 0.8145(2) 0.5073(2) 0.03585(17)
Cu2_5 Cu 0.55679(5) 0.20077(5) 0.000000
Cu7_5 Cu 0.57194(5) 0.10868(5) 0.000000
O38_7 O 0.6072(2) 0.2067(2) 0.03608(16)
O40_7 O 0.5073(2) 0.1855(2) 0.03585(17)
Cu2_6 Cu 0.55679(5) 0.20077(5) 1.000000
O3_4 O 0.8207(2) 0.0580(2) 0.67574(16)
O4_4 O 0.6203(2) 0.1238(2) 0.96289(16)
O8_4 O 0.7270(2) 0.2803(2) 0.83073(17)
O9_4 O 0.6072(2) 0.2067(2) 0.96392(16)
C2_4 C 0.6666(3) 0.2215(3) 0.9057(2)
H1_4 H 0.654681 0.249832 0.917557
N1_4 N 0.6666(4) 0.0312(3) 0.8702(2)
C3_4 C 0.6574(3) 0.1736(3) 0.9189(2)
C6_4 C 0.6263(3) 0.1683(3) 0.9508(2)
C7_4 C 0.7935(3) 0.0549(3) 0.7026(3)
C9_4 C 0.7016(4) 0.2786(3) 0.8587(2)
N4_4 N 0.7219(4) 0.0212(3) 0.8208(2)
N5_4 N 0.7164(4) 0.0963(3) 0.8485(3)
H5_4 H 0.740533 0.103592 0.834147
C12_4 C 0.7908(4) 0.0046(3) 0.7206(3)
C14_4 C 0.6937(4) 0.2268(3) 0.8747(2)
C16_4 C 0.7093(4) 0.1848(3) 0.8566(2)
H7_4 H 0.726526 0.188452 0.835376
H8_4 H 0.744798 0.026729 0.759585
C21_4 C 0.6735(4) 0.1307(3) 0.9006(3)
H11_4 H 0.666702 0.098524 0.909145
C23_4 C 0.7006(4) 0.0471(4) 0.8471(3)
C25_4 C 0.6998(4) 0.1372(4) 0.8695(3)
O14_4 O 0.3627(2) 0.2107(2) 0.83519(16)
O17_4 O 0.4012(2) 0.2606(2) 0.87467(17)
O18_4 O 0.1442(2) 0.1216(2) 0.67523(16)
O22_4 O 0.5199(2) 0.1016(2) 0.96469(17)
O23_4 O 0.1738(2) 0.1710(2) 0.71847(17)
O24_4 O 0.5073(2) 0.1855(2) 0.96415(17)
C28_4 C 0.3886(3) 0.2181(3) 0.8628(3)
C31_4 C 0.1669(3) 0.1288(3) 0.7038(3)
C32_4 C 0.4422(3) 0.1781(3) 0.9086(2)
H14_4 H 0.455648 0.209692 0.913908
N8_4 N 0.2743(4) 0.0580(3) 0.7950(2)
H15_4 H 0.283157 0.089070 0.797626
N9_4 N 0.3262(4) 0.0481(3) 0.8418(2)
C35_4 C 0.1903(3) 0.0833(3) 0.7205(2)
C37_4 C 0.1860(3) 0.0363(3) 0.7051(3)
H16_4 H 0.167498 0.032207 0.684500
C38_4 C 0.4985(4) 0.1401(4) 0.9537(3)
C40_4 C 0.4057(3) 0.1729(3) 0.8826(2)
C42_4 C 0.4582(3) 0.1357(3) 0.9264(3)
N12_4 N 0.3801(4) 0.0353(3) 0.8887(3)
H18_4 H 0.391587 0.012781 0.902856
C44_4 C 0.2386(4) 0.0011(3) 0.7501(3)
C45_4 C 0.2191(4) 0.0890(3) 0.7505(3)
H21_4 H 0.221996 0.120795 0.760702
C46_4 C 0.4385(4) 0.0891(3) 0.9190(3)
H22_4 H 0.450270 0.060805 0.930955
C47_4 C 0.2438(4) 0.0484(3) 0.7657(3)
C49_4 C 0.4008(4) 0.0837(4) 0.8936(3)
C51_4 C 0.3855(4) 0.1259(3) 0.8748(3)
H24_4 H 0.361686 0.122660 0.856999
C53_4 C 0.2921(5) 0.0262(4) 0.8199(3)
C54_4 C 0.3454(5) 0.0179(4) 0.8656(3)
Cu7_6 Cu 0.57194(5) 0.10868(5) 1.000000
O28_4 O 0.1373(2) 0.2893(2) 0.66481(16)
O30_4 O 0.4420(2) 0.3207(2) 0.82426(16)
O33_4 O 0.3558(2) 0.3784(2) 0.82477(16)
O37_4 O 0.2197(2) 0.2270(2) 0.66927(17)
Cu1_5 Cu 0.42806(5) 0.89132(5) 0.000000
Cu8_5 Cu 0.44321(5) 0.79923(5) 0.000000
O31_7 O 0.3797(2) 0.8762(2) 0.03711(16)
O39_7 O 0.4801(2) 0.8984(2) 0.03531(17)
Cu1_6 Cu 0.42806(5) 0.89132(5) 1.000000
O2_4 O 0.6373(2) 0.7893(2) 0.83519(16)
O5_4 O 0.5988(2) 0.7394(2) 0.87467(17)
O6_4 O 0.8558(2) 0.8784(2) 0.67523(16)
O10_4 O 0.4801(2) 0.8984(2) 0.96469(17)
O11_4 O 0.8262(2) 0.8290(2) 0.71847(17)
O12_4 O 0.4927(2) 0.8145(2) 0.96415(17)
C1_4 C 0.6114(3) 0.7819(3) 0.8628(3)
C4_4 C 0.8331(3) 0.8712(3) 0.7038(3)
C5_4 C 0.5578(3) 0.8219(3) 0.9086(2)
H2_4 H 0.544352 0.790308 0.913908
N2_4 N 0.7257(4) 0.9420(3) 0.7950(2)
H3_4 H 0.716843 0.910930 0.797626
N3_4 N 0.6738(4) 0.9519(3) 0.8418(2)
C8_4 C 0.8097(3) 0.9167(3) 0.7205(2)
C10_4 C 0.8140(3) 0.9637(3) 0.7051(3)
H4_4 H 0.832502 0.967793 0.684500
C11_4 C 0.5015(4) 0.8599(4) 0.9537(3)
C13_4 C 0.5943(3) 0.8271(3) 0.8826(2)
C15_4 C 0.5418(3) 0.8643(3) 0.9264(3)
N6_4 N 0.6199(4) 0.9647(3) 0.8887(3)
H6_4 H 0.608413 0.987219 0.902856
C17_4 C 0.7614(4) 0.9989(3) 0.7501(3)
C18_4 C 0.7809(4) 0.9110(3) 0.7505(3)
H9_4 H 0.778004 0.879205 0.760702
C19_4 C 0.5615(4) 0.9109(3) 0.9190(3)
H10_4 H 0.549730 0.939195 0.930955
C20_4 C 0.7562(4) 0.9516(3) 0.7657(3)
C22_4 C 0.5992(4) 0.9163(4) 0.8936(3)
C24_4 C 0.6145(4) 0.8741(3) 0.8748(3)
H12_4 H 0.638314 0.877340 0.856999
C26_4 C 0.7079(5) 0.9738(4) 0.8199(3)
C27_4 C 0.6546(5) 0.9821(4) 0.8656(3)
O15_4 O 0.1793(2) 0.9420(2) 0.67574(16)
O16_4 O 0.3797(2) 0.8762(2) 0.96289(16)
O20_4 O 0.2730(2) 0.7197(2) 0.83073(17)
O21_4 O 0.3928(2) 0.7933(2) 0.96392(16)
C29_4 C 0.3334(3) 0.7785(3) 0.9057(2)
H13_4 H 0.345319 0.750168 0.917557
N7_4 N 0.3334(4) 0.9688(3) 0.8702(2)
C30_4 C 0.3426(3) 0.8264(3) 0.9189(2)
C33_4 C 0.3737(3) 0.8317(3) 0.9508(2)
C34_4 C 0.2065(3) 0.9451(3) 0.7026(3)
C36_4 C 0.2984(4) 0.7214(3) 0.8587(2)
N10_4 N 0.2781(4) 0.9788(3) 0.8208(2)
N11_4 N 0.2836(4) 0.9037(3) 0.8485(3)
H17_4 H 0.259467 0.896408 0.834147
C39_4 C 0.2092(4) 0.9954(3) 0.7206(3)
C41_4 C 0.3063(4) 0.7732(3) 0.8747(2)
C43_4 C 0.2907(4) 0.8152(3) 0.8566(2)
H19_4 H 0.273474 0.811548 0.835376
H20_4 H 0.255202 0.973271 0.759585
C48_4 C 0.3265(4) 0.8693(3) 0.9006(3)
H23_4 H 0.333298 0.901476 0.909145
C50_4 C 0.2994(4) 0.9529(4) 0.8471(3)
C52_4 C 0.3002(4) 0.8628(4) 0.8695(3)
Cu8_6 Cu 0.44321(5) 0.79923(5) 1.000000
O27_4 O 0.8627(2) 0.7107(2) 0.66481(16)
O29_4 O 0.5580(2) 0.6793(2) 0.82426(16)
O32_4 O 0.6442(2) 0.6216(2) 0.82477(16)
O36_4 O 0.7803(2) 0.7730(2) 0.66927(17)
O31_8 O 0.6203(2) 0.1238(2) 0.03711(16)
O39_8 O 0.5199(2) 0.1016(2) 0.03531(17)
O38_8 O 0.3928(2) 0.7933(2) 0.03608(16)
O40_8 O 0.4927(2) 0.8145(2) 0.03585(17)
O1_3 O 0.4097(2) 0.2676(2) 0.78391(16)
O5_5 O 0.7606(2) 0.0988(2) 0.62533(17)
O7_3 O 0.1846(2) 0.1816(2) 0.62553(16)
O11_5 O 0.6710(2) 0.3262(2) 0.78153(17)
C1_5 C 0.7181(3) 0.1114(3) 0.6372(3)
C2_5 C 0.2785(3) 0.1666(3) 0.5943(2)
H1_5 H 0.250168 0.154681 0.582443
N1_5 N 0.4688(3) 0.1666(4) 0.6298(2)
C3_5 C 0.3264(3) 0.1574(3) 0.5811(2)
C4_5 C 0.6288(3) 0.3331(3) 0.7962(3)
C5_5 C 0.6781(3) 0.0578(3) 0.5914(2)
H2_5 H 0.709692 0.044352 0.586092
C6_5 C 0.3317(3) 0.1263(3) 0.5492(2)
N2_5 N 0.5580(3) 0.2257(4) 0.7050(2)
H3_5 H 0.589070 0.216843 0.702374
N3_5 N 0.5481(3) 0.1738(4) 0.6582(2)
C7_5 C 0.4451(3) 0.2935(3) 0.7974(3)
C8_5 C 0.5833(3) 0.3097(3) 0.7795(2)
C9_5 C 0.2214(3) 0.2016(4) 0.6413(2)
C10_5 C 0.5363(3) 0.3140(3) 0.7949(3)
H4_5 H 0.532207 0.332502 0.815500
N4_5 N 0.4788(3) 0.2219(4) 0.6792(2)
N5_5 N 0.4037(3) 0.2164(4) 0.6515(3)
H5_5 H 0.396408 0.240533 0.665853
C11_5 C 0.6401(4) 0.0015(4) 0.5463(3)
C12_5 C 0.4954(3) 0.2908(4) 0.7794(3)
C13_5 C 0.6729(3) 0.0943(3) 0.6174(2)
C14_5 C 0.2732(3) 0.1937(4) 0.6253(2)
C15_5 C 0.6357(3) 0.0418(3) 0.5736(3)
N6_5 N 0.5353(3) 0.1199(4) 0.6113(3)
H6_5 H 0.512781 0.108413 0.597144
C16_5 C 0.3152(3) 0.2093(4) 0.6434(2)
H7_5 H 0.311548 0.226526 0.664624
C17_5 C 0.5011(3) 0.2614(4) 0.7499(3)
H8_5 H 0.473271 0.244798 0.740415
C18_5 C 0.5890(3) 0.2809(4) 0.7495(3)
H9_5 H 0.620795 0.278004 0.739298
C19_5 C 0.5891(3) 0.0615(4) 0.5810(3)
H10_5 H 0.560805 0.049730 0.569045
C20_5 C 0.5484(3) 0.2562(4) 0.7343(3)
C21_5 C 0.3693(3) 0.1735(4) 0.5994(3)
H11_5 H 0.401476 0.166702 0.590855
C22_5 C 0.5837(4) 0.0992(4) 0.6064(3)
C23_5 C 0.4529(4) 0.2006(4) 0.6529(3)
C24_5 C 0.6259(3) 0.1145(4) 0.6252(3)
H12_5 H 0.622660 0.138314 0.643001
C25_5 C 0.3628(4) 0.1998(4) 0.6305(3)
C26_5 C 0.5262(4) 0.2079(5) 0.6801(3)
C27_5 C 0.5179(4) 0.1546(5) 0.6344(3)
O25_3 O 0.7324(2) 0.4097(2) 0.78391(16)
O34_3 O 0.8184(2) 0.1846(2) 0.62553(16)
O13_3 O 0.5903(2) 0.7324(2) 0.78391(16)
O17_5 O 0.2394(2) 0.9012(2) 0.62533(17)
O19_3 O 0.8154(2) 0.8184(2) 0.62553(16)
O23_5 O 0.3290(2) 0.6738(2) 0.78153(17)
C28_5 C 0.2819(3) 0.8886(3) 0.6372(3)
C29_5 C 0.7215(3) 0.8334(3) 0.5943(2)
H13_5 H 0.749832 0.845319 0.582443
N7_5 N 0.5312(3) 0.8334(4) 0.6298(2)
C30_5 C 0.6736(3) 0.8426(3) 0.5811(2)
C31_5 C 0.3712(3) 0.6669(3) 0.7962(3)
C32_5 C 0.3219(3) 0.9422(3) 0.5914(2)
H14_5 H 0.290308 0.955648 0.586092
C33_5 C 0.6683(3) 0.8737(3) 0.5492(2)
N8_5 N 0.4420(3) 0.7743(4) 0.7050(2)
H15_5 H 0.410930 0.783157 0.702374
N9_5 N 0.4519(3) 0.8262(4) 0.6582(2)
C34_5 C 0.5549(3) 0.7065(3) 0.7974(3)
C35_5 C 0.4167(3) 0.6903(3) 0.7795(2)
C36_5 C 0.7786(3) 0.7984(4) 0.6413(2)
C37_5 C 0.4637(3) 0.6860(3) 0.7949(3)
H16_5 H 0.467793 0.667498 0.815500
N10_5 N 0.5212(3) 0.7781(4) 0.6792(2)
N11_5 N 0.5963(3) 0.7836(4) 0.6515(3)
H17_5 H 0.603592 0.759467 0.665853
C38_5 C 0.3599(4) 0.9985(4) 0.5463(3)
C39_5 C 0.5046(3) 0.7092(4) 0.7794(3)
C40_5 C 0.3271(3) 0.9057(3) 0.6174(2)
C41_5 C 0.7268(3) 0.8063(4) 0.6253(2)
C42_5 C 0.3643(3) 0.9582(3) 0.5736(3)
N12_5 N 0.4647(3) 0.8801(4) 0.6113(3)
H18_5 H 0.487219 0.891587 0.597144
C43_5 C 0.6848(3) 0.7907(4) 0.6434(2)
H19_5 H 0.688452 0.773474 0.664624
C44_5 C 0.4989(3) 0.7386(4) 0.7499(3)
H20_5 H 0.526729 0.755202 0.740415
C45_5 C 0.4110(3) 0.7191(4) 0.7495(3)
H21_5 H 0.379205 0.721996 0.739298
C46_5 C 0.4109(3) 0.9385(4) 0.5810(3)
H22_5 H 0.439195 0.950270 0.569045
C47_5 C 0.4516(3) 0.7438(4) 0.7343(3)
C48_5 C 0.6307(3) 0.8265(4) 0.5994(3)
H23_5 H 0.598524 0.833298 0.590855
C49_5 C 0.4163(4) 0.9008(4) 0.6064(3)
C50_5 C 0.5471(4) 0.7994(4) 0.6529(3)
C51_5 C 0.3741(3) 0.8855(4) 0.6252(3)
H24_5 H 0.377340 0.861686 0.643001
C52_5 C 0.6372(4) 0.8002(4) 0.6305(3)
C53_5 C 0.4738(4) 0.7921(5) 0.6801(3)
C54_5 C 0.4821(4) 0.8454(5) 0.6344(3)
O26_3 O 0.2676(2) 0.5903(2) 0.78391(16)
O35_3 O 0.1816(2) 0.8154(2) 0.62553(16)
O17_6 O 0.0988(2) 0.2394(2) 0.62533(17)
O23_6 O 0.3262(2) 0.3290(2) 0.78153(17)
C28_6 C 0.1114(3) 0.2819(3) 0.6372(3)
C29_6 C 0.1666(3) 0.7215(3) 0.5943(2)
H13_6 H 0.154681 0.749832 0.582443
N7_6 N 0.1666(4) 0.5312(3) 0.6298(2)
C30_6 C 0.1574(3) 0.6736(3) 0.5811(2)
C31_6 C 0.3331(3) 0.3712(3) 0.7962(3)
C32_6 C 0.0578(3) 0.3219(3) 0.5914(2)
H14_6 H 0.044352 0.290308 0.586092
C33_6 C 0.1263(3) 0.6683(3) 0.5492(2)
N8_6 N 0.2257(4) 0.4420(3) 0.7050(2)
H15_6 H 0.216843 0.410930 0.702374
N9_6 N 0.1738(4) 0.4519(3) 0.6582(2)
C34_6 C 0.2935(3) 0.5549(3) 0.7974(3)
C35_6 C 0.3097(3) 0.4167(3) 0.7795(2)
C36_6 C 0.2016(4) 0.7786(3) 0.6413(2)
C37_6 C 0.3140(3) 0.4637(3) 0.7949(3)
H16_6 H 0.332502 0.467793 0.815500
N10_6 N 0.2219(4) 0.5212(3) 0.6792(2)
N11_6 N 0.2164(4) 0.5963(3) 0.6515(3)
H17_6 H 0.240533 0.603592 0.665853
C38_6 C 0.0015(4) 0.3599(4) 0.5463(3)
C39_6 C 0.2908(4) 0.5046(3) 0.7794(3)
C40_6 C 0.0943(3) 0.3271(3) 0.6174(2)
C41_6 C 0.1937(4) 0.7268(3) 0.6253(2)
C42_6 C 0.0418(3) 0.3643(3) 0.5736(3)
N12_6 N 0.1199(4) 0.4647(3) 0.6113(3)
H18_6 H 0.108413 0.487219 0.597144
C43_6 C 0.2093(4) 0.6848(3) 0.6434(2)
H19_6 H 0.226526 0.688452 0.664624
C44_6 C 0.2614(4) 0.4989(3) 0.7499(3)
H20_6 H 0.244798 0.526729 0.740415
C45_6 C 0.2809(4) 0.4110(3) 0.7495(3)
H21_6 H 0.278004 0.379205 0.739298
C46_6 C 0.0615(4) 0.4109(3) 0.5810(3)
H22_6 H 0.049730 0.439195 0.569045
C47_6 C 0.2562(4) 0.4516(3) 0.7343(3)
C48_6 C 0.1735(4) 0.6307(3) 0.5994(3)
H23_6 H 0.166702 0.598524 0.590855
C49_6 C 0.0992(4) 0.4163(4) 0.6064(3)
C50_6 C 0.2006(4) 0.5471(4) 0.6529(3)
C51_6 C 0.1145(4) 0.3741(3) 0.6252(3)
H24_6 H 0.138314 0.377340 0.643001
C52_6 C 0.1998(4) 0.6372(4) 0.6305(3)
C53_6 C 0.2079(5) 0.4738(4) 0.6801(3)
C54_6 C 0.1546(5) 0.4821(4) 0.6344(3)
O5_6 O 0.9012(2) 0.7606(2) 0.62533(17)
O11_6 O 0.6738(2) 0.6710(2) 0.78153(17)
C1_6 C 0.8886(3) 0.7181(3) 0.6372(3)
C2_6 C 0.8334(3) 0.2785(3) 0.5943(2)
H1_6 H 0.845319 0.250168 0.582443
N1_6 N 0.8334(4) 0.4688(3) 0.6298(2)
C3_6 C 0.8426(3) 0.3264(3) 0.5811(2)
C4_6 C 0.6669(3) 0.6288(3) 0.7962(3)
C5_6 C 0.9422(3) 0.6781(3) 0.5914(2)
H2_6 H 0.955648 0.709692 0.586092
C6_6 C 0.8737(3) 0.3317(3) 0.5492(2)
N2_6 N 0.7743(4) 0.5580(3) 0.7050(2)
H3_6 H 0.783157 0.589070 0.702374
N3_6 N 0.8262(4) 0.5481(3) 0.6582(2)
C7_6 C 0.7065(3) 0.4451(3) 0.7974(3)
C8_6 C 0.6903(3) 0.5833(3) 0.7795(2)
C9_6 C 0.7984(4) 0.2214(3) 0.6413(2)
C10_6 C 0.6860(3) 0.5363(3) 0.7949(3)
H4_6 H 0.667498 0.532207 0.815500
N4_6 N 0.7781(4) 0.4788(3) 0.6792(2)
N5_6 N 0.7836(4) 0.4037(3) 0.6515(3)
H5_6 H 0.759467 0.396408 0.665853
C11_6 C 0.9985(4) 0.6401(4) 0.5463(3)
C12_6 C 0.7092(4) 0.4954(3) 0.7794(3)
C13_6 C 0.9057(3) 0.6729(3) 0.6174(2)
C14_6 C 0.8063(4) 0.2732(3) 0.6253(2)
C15_6 C 0.9582(3) 0.6357(3) 0.5736(3)
N6_6 N 0.8801(4) 0.5353(3) 0.6113(3)
H6_6 H 0.891587 0.512781 0.597144
C16_6 C 0.7907(4) 0.3152(3) 0.6434(2)
H7_6 H 0.773474 0.311548 0.664624
C17_6 C 0.7386(4) 0.5011(3) 0.7499(3)
H8_6 H 0.755202 0.473271 0.740415
C18_6 C 0.7191(4) 0.5890(3) 0.7495(3)
H9_6 H 0.721996 0.620795 0.739298
C19_6 C 0.9385(4) 0.5891(3) 0.5810(3)
H10_6 H 0.950270 0.560805 0.569045
C20_6 C 0.7438(4) 0.5484(3) 0.7343(3)
C21_6 C 0.8265(4) 0.3693(3) 0.5994(3)
H11_6 H 0.833298 0.401476 0.590855
C22_6 C 0.9008(4) 0.5837(4) 0.6064(3)
C23_6 C 0.7994(4) 0.4529(4) 0.6529(3)
C24_6 C 0.8855(4) 0.6259(3) 0.6252(3)
H12_6 H 0.861686 0.622660 0.643001
C25_6 C 0.8002(4) 0.3628(4) 0.6305(3)
C26_6 C 0.7921(5) 0.5262(4) 0.6801(3)
C27_6 C 0.8454(5) 0.5179(4) 0.6344(3)
O5_7 O 0.2606(2) 0.5988(2) 0.12533(17)
O11_7 O 0.1710(2) 0.8262(2) 0.28153(17)
C1_7 C 0.2181(3) 0.6114(3) 0.1372(3)
C4_7 C 0.1288(3) 0.8331(3) 0.2962(3)
C5_7 C 0.1781(3) 0.5578(3) 0.0914(2)
H2_7 H 0.209692 0.544352 0.086092
N2_7 N 0.0580(3) 0.7257(4) 0.2050(2)
H3_7 H 0.089070 0.716843 0.202374
N3_7 N 0.0481(3) 0.6738(4) 0.1582(2)
C8_7 C 0.0833(3) 0.8097(3) 0.2795(2)
C10_7 C 0.0363(3) 0.8140(3) 0.2949(3)
H4_7 H 0.032207 0.832502 0.315500
C11_7 C 0.1401(4) 0.5015(4) 0.0463(3)
C13_7 C 0.1729(3) 0.5943(3) 0.1174(2)
C15_7 C 0.1357(3) 0.5418(3) 0.0736(3)
N6_7 N 0.0353(3) 0.6199(4) 0.1113(3)
H6_7 H 0.012781 0.608413 0.097144
C17_7 C 0.0011(3) 0.7614(4) 0.2499(3)
C18_7 C 0.0890(3) 0.7809(4) 0.2495(3)
H9_7 H 0.120795 0.778004 0.239298
C19_7 C 0.0891(3) 0.5615(4) 0.0810(3)
H10_7 H 0.060805 0.549730 0.069045
C20_7 C 0.0484(3) 0.7562(4) 0.2343(3)
C22_7 C 0.0837(4) 0.5992(4) 0.1064(3)
C24_7 C 0.1259(3) 0.6145(4) 0.1252(3)
H12_7 H 0.122660 0.638314 0.143001
C26_7 C 0.0262(4) 0.7079(5) 0.1801(3)
C27_7 C 0.0179(4) 0.6546(5) 0.1344(3)
O13_4 O 0.0903(2) 0.2324(2) 0.28391(16)
O19_4 O 0.3154(2) 0.3184(2) 0.12553(16)
C29_7 C 0.2215(3) 0.3334(3) 0.0943(2)
H13_7 H 0.249832 0.345319 0.082443
N7_7 N 0.0312(3) 0.3334(4) 0.1298(2)
C30_7 C 0.1736(3) 0.3426(3) 0.0811(2)
C33_7 C 0.1683(3) 0.3737(3) 0.0492(2)
C34_7 C 0.0549(3) 0.2065(3) 0.2974(3)
C36_7 C 0.2786(3) 0.2984(4) 0.1413(2)
N10_7 N 0.0212(3) 0.2781(4) 0.1792(2)
N11_7 N 0.0963(3) 0.2836(4) 0.1515(3)
H17_7 H 0.103592 0.259467 0.165853
C39_7 C 0.0046(3) 0.2092(4) 0.2794(3)
C41_7 C 0.2268(3) 0.3063(4) 0.1253(2)
C43_7 C 0.1848(3) 0.2907(4) 0.1434(2)
H19_7 H 0.188452 0.273474 0.164624
H20_7 H 0.026729 0.255202 0.240415
C48_7 C 0.1307(3) 0.3265(4) 0.0994(3)
H23_7 H 0.098524 0.333298 0.090855
C50_7 C 0.0471(4) 0.2994(4) 0.1529(3)
C52_7 C 0.1372(4) 0.3002(4) 0.1305(3)
O25_4 O 0.2324(2) 0.9097(2) 0.28391(16)
O34_4 O 0.3184(2) 0.6846(2) 0.12553(16)
O1_4 O 0.9097(2) 0.7676(2) 0.28391(16)
O7_4 O 0.6846(2) 0.6816(2) 0.12553(16)
C2_7 C 0.7785(3) 0.6666(3) 0.0943(2)
H1_7 H 0.750168 0.654681 0.082443
N1_7 N 0.9688(3) 0.6666(4) 0.1298(2)
C3_7 C 0.8264(3) 0.6574(3) 0.0811(2)
C6_7 C 0.8317(3) 0.6263(3) 0.0492(2)
C7_7 C 0.9451(3) 0.7935(3) 0.2974(3)
C9_7 C 0.7214(3) 0.7016(4) 0.1413(2)
N4_7 N 0.9788(3) 0.7219(4) 0.1792(2)
N5_7 N 0.9037(3) 0.7164(4) 0.1515(3)
H5_7 H 0.896408 0.740533 0.165853
C12_7 C 0.9954(3) 0.7908(4) 0.2794(3)
C14_7 C 0.7732(3) 0.6937(4) 0.1253(2)
C16_7 C 0.8152(3) 0.7093(4) 0.1434(2)
H7_7 H 0.811548 0.726526 0.164624
H8_7 H 0.973271 0.744798 0.240415
C21_7 C 0.8693(3) 0.6735(4) 0.0994(3)
H11_7 H 0.901476 0.666702 0.090855
C23_7 C 0.9529(4) 0.7006(4) 0.1529(3)
C25_7 C 0.8628(4) 0.6998(4) 0.1305(3)
O17_7 O 0.7394(2) 0.4012(2) 0.12533(17)
O23_7 O 0.8290(2) 0.1738(2) 0.28153(17)
C28_7 C 0.7819(3) 0.3886(3) 0.1372(3)
C31_7 C 0.8712(3) 0.1669(3) 0.2962(3)
C32_7 C 0.8219(3) 0.4422(3) 0.0914(2)
H14_7 H 0.790308 0.455648 0.086092
N8_7 N 0.9420(3) 0.2743(4) 0.2050(2)
H15_7 H 0.910930 0.283157 0.202374
N9_7 N 0.9519(3) 0.3262(4) 0.1582(2)
C35_7 C 0.9167(3) 0.1903(3) 0.2795(2)
C37_7 C 0.9637(3) 0.1860(3) 0.2949(3)
H16_7 H 0.967793 0.167498 0.315500
C38_7 C 0.8599(4) 0.4985(4) 0.0463(3)
C40_7 C 0.8271(3) 0.4057(3) 0.1174(2)
C42_7 C 0.8643(3) 0.4582(3) 0.0736(3)
N12_7 N 0.9647(3) 0.3801(4) 0.1113(3)
H18_7 H 0.987219 0.391587 0.097144
C44_7 C 0.9989(3) 0.2386(4) 0.2499(3)
C45_7 C 0.9110(3) 0.2191(4) 0.2495(3)
H21_7 H 0.879205 0.221996 0.239298
C46_7 C 0.9109(3) 0.4385(4) 0.0810(3)
H22_7 H 0.939195 0.450270 0.069045
C47_7 C 0.9516(3) 0.2438(4) 0.2343(3)
C49_7 C 0.9163(4) 0.4008(4) 0.1064(3)
C51_7 C 0.8741(3) 0.3855(4) 0.1252(3)
H24_7 H 0.877340 0.361686 0.143001
C53_7 C 0.9738(4) 0.2921(5) 0.1801(3)
C54_7 C 0.9821(4) 0.3454(5) 0.1344(3)
O26_4 O 0.7676(2) 0.0903(2) 0.28391(16)
O35_4 O 0.6816(2) 0.3154(2) 0.12553(16)
O5_8 O 0.4012(2) 0.2606(2) 0.12533(17)
O11_8 O 0.1738(2) 0.1710(2) 0.28153(17)
C1_8 C 0.3886(3) 0.2181(3) 0.1372(3)
C4_8 C 0.1669(3) 0.1288(3) 0.2962(3)
C5_8 C 0.4422(3) 0.1781(3) 0.0914(2)
H2_8 H 0.455648 0.209692 0.086092
N2_8 N 0.2743(4) 0.0580(3) 0.2050(2)
H3_8 H 0.283157 0.089070 0.202374
N3_8 N 0.3262(4) 0.0481(3) 0.1582(2)
C8_8 C 0.1903(3) 0.0833(3) 0.2795(2)
C10_8 C 0.1860(3) 0.0363(3) 0.2949(3)
H4_8 H 0.167498 0.032207 0.315500
C11_8 C 0.4985(4) 0.1401(4) 0.0463(3)
C13_8 C 0.4057(3) 0.1729(3) 0.1174(2)
C15_8 C 0.4582(3) 0.1357(3) 0.0736(3)
N6_8 N 0.3801(4) 0.0353(3) 0.1113(3)
H6_8 H 0.391587 0.012781 0.097144
C17_8 C 0.2386(4) 0.0011(3) 0.2499(3)
C18_8 C 0.2191(4) 0.0890(3) 0.2495(3)
H9_8 H 0.221996 0.120795 0.239298
C19_8 C 0.4385(4) 0.0891(3) 0.0810(3)
H10_8 H 0.450270 0.060805 0.069045
C20_8 C 0.2438(4) 0.0484(3) 0.2343(3)
C22_8 C 0.4008(4) 0.0837(4) 0.1064(3)
C24_8 C 0.3855(4) 0.1259(3) 0.1252(3)
H12_8 H 0.361686 0.122660 0.143001
C26_8 C 0.2921(5) 0.0262(4) 0.1801(3)
C27_8 C 0.3454(5) 0.0179(4) 0.1344(3)
C29_8 C 0.6666(3) 0.2215(3) 0.0943(2)
H13_8 H 0.654681 0.249832 0.082443
N7_8 N 0.6666(4) 0.0312(3) 0.1298(2)
C30_8 C 0.6574(3) 0.1736(3) 0.0811(2)
C33_8 C 0.6263(3) 0.1683(3) 0.0492(2)
C34_8 C 0.7935(3) 0.0549(3) 0.2974(3)
C36_8 C 0.7016(4) 0.2786(3) 0.1413(2)
N10_8 N 0.7219(4) 0.0212(3) 0.1792(2)
N11_8 N 0.7164(4) 0.0963(3) 0.1515(3)
H17_8 H 0.740533 0.103592 0.165853
C39_8 C 0.7908(4) 0.0046(3) 0.2794(3)
C41_8 C 0.6937(4) 0.2268(3) 0.1253(2)
C43_8 C 0.7093(4) 0.1848(3) 0.1434(2)
H19_8 H 0.726526 0.188452 0.164624
H20_8 H 0.744798 0.026729 0.240415
C48_8 C 0.6735(4) 0.1307(3) 0.0994(3)
H23_8 H 0.666702 0.098524 0.090855
C50_8 C 0.7006(4) 0.0471(4) 0.1529(3)
C52_8 C 0.6998(4) 0.1372(4) 0.1305(3)
C2_8 C 0.3334(3) 0.7785(3) 0.0943(2)
H1_8 H 0.345319 0.750168 0.082443
N1_8 N 0.3334(4) 0.9688(3) 0.1298(2)
C3_8 C 0.3426(3) 0.8264(3) 0.0811(2)
C6_8 C 0.3737(3) 0.8317(3) 0.0492(2)
C7_8 C 0.2065(3) 0.9451(3) 0.2974(3)
C9_8 C 0.2984(4) 0.7214(3) 0.1413(2)
N4_8 N 0.2781(4) 0.9788(3) 0.1792(2)
N5_8 N 0.2836(4) 0.9037(3) 0.1515(3)
H5_8 H 0.259467 0.896408 0.165853
C12_8 C 0.2092(4) 0.9954(3) 0.2794(3)
C14_8 C 0.3063(4) 0.7732(3) 0.1253(2)
C16_8 C 0.2907(4) 0.8152(3) 0.1434(2)
H7_8 H 0.273474 0.811548 0.164624
H8_8 H 0.255202 0.973271 0.240415
C21_8 C 0.3265(4) 0.8693(3) 0.0994(3)
H11_8 H 0.333298 0.901476 0.090855
C23_8 C 0.2994(4) 0.9529(4) 0.1529(3)
C25_8 C 0.3002(4) 0.8628(4) 0.1305(3)
O17_8 O 0.5988(2) 0.7394(2) 0.12533(17)
O23_8 O 0.8262(2) 0.8290(2) 0.28153(17)
C28_8 C 0.6114(3) 0.7819(3) 0.1372(3)
C31_8 C 0.8331(3) 0.8712(3) 0.2962(3)
C32_8 C 0.5578(3) 0.8219(3) 0.0914(2)
H14_8 H 0.544352 0.790308 0.086092
N8_8 N 0.7257(4) 0.9420(3) 0.2050(2)
H15_8 H 0.716843 0.910930 0.202374
N9_8 N 0.6738(4) 0.9519(3) 0.1582(2)
C35_8 C 0.8097(3) 0.9167(3) 0.2795(2)
C37_8 C 0.8140(3) 0.9637(3) 0.2949(3)
H16_8 H 0.832502 0.967793 0.315500
C38_8 C 0.5015(4) 0.8599(4) 0.0463(3)
C40_8 C 0.5943(3) 0.8271(3) 0.1174(2)
C42_8 C 0.5418(3) 0.8643(3) 0.0736(3)
N12_8 N 0.6199(4) 0.9647(3) 0.1113(3)
H18_8 H 0.608413 0.987219 0.097144
C44_8 C 0.7614(4) 0.9989(3) 0.2499(3)
C45_8 C 0.7809(4) 0.9110(3) 0.2495(3)
H21_8 H 0.778004 0.879205 0.239298
C46_8 C 0.5615(4) 0.9109(3) 0.0810(3)
H22_8 H 0.549730 0.939195 0.069045
C47_8 C 0.7562(4) 0.9516(3) 0.2343(3)
C49_8 C 0.5992(4) 0.9163(4) 0.1064(3)
C51_8 C 0.6145(4) 0.8741(3) 0.1252(3)
H24_8 H 0.638314 0.877340 0.143001
C53_8 C 0.7079(5) 0.9738(4) 0.1801(3)
C54_8 C 0.6546(5) 0.9821(4) 0.1344(3)
loop_
_geom_bond_atom_site_label_1
_geom_bond_atom_site_label_2
_geom_bond_site_symmetry_1
_geom_bond_site_symmetry_2
Cu1 O10 1_555 1_555
Cu5 O17 1_555 1_555
Cu6 O23 1_555 1_555
O13 C34 1_555 1_555
O14 C28 1_555 1_555
O15 C34 1_555 1_555
O16 Cu1 1_555 1_555
O17 C28 1_555 1_555
O18 C31 1_555 1_555
O19 C36 1_555 1_555
O20 C36 1_555 1_555
O21 C33 1_555 1_555
O23 C31 1_555 1_555
C28 C40 1_555 1_555
C29 H13 1_555 1_555
N7 C50 1_555 1_555
C30 C29 1_555 1_555
C31 C35 1_555 1_555
C32 H14 1_555 1_555
C33 O16 1_555 1_555
N8 H15 1_555 1_555
N9 C53 1_555 1_555
C34 C39 1_555 1_555
C35 C37 1_555 1_555
C36 C41 1_555 1_555
C37 H16 1_555 1_555
N10 C50 1_555 1_555
N11 H17 1_555 1_555
C39 C37 1_555 1_555
C40 C32 1_555 1_555
C41 C29 1_555 1_555
C42 C32 1_555 1_555
N12 H18 1_555 1_555
C43 C41 1_555 1_555
H19 C43 1_555 1_555
C44 C39 1_555 1_555
H20 C44 1_555 1_555
C45 C35 1_555 1_555
H21 C45 1_555 1_555
C46 C42 1_555 1_555
H22 C46 1_555 1_555
C47 N8 1_555 1_555
C48 C30 1_555 1_555
H23 C48 1_555 1_555
C49 N12 1_555 1_555
C50 N11 1_555 1_555
C51 C40 1_555 1_555
H24 C51 1_555 1_555
C52 N11 1_555 1_555
C53 N8 1_555 1_555
C54 N7 1_555 1_555
Cu8 Cu1 1_555 1_555
Cu9 O19 1_555 1_555
Cu12 Cu6 1_555 1_555
Cu13 O15 1_555 1_555
Cu15 O13 1_555 1_555
Cu18 Cu5 1_555 1_555
Cu19 O20 1_555 1_555
O26 Cu6 1_555 1_555
O28 Cu6 1_555 1_555
O30 Cu5 1_555 1_555
O31 Cu1 1_555 1_555
O33 Cu5 1_555 1_555
O35 Cu5 1_555 1_555
O37 Cu6 1_555 1_555
O39 Cu1 1_555 1_555
O12 Cu8 1_555 1_555
O14 Cu18 1_555 1_555
O18 Cu12 1_555 1_555
O21 Cu8 1_555 1_555
C30 C33 1_555 1_555
N9 C54 1_555 1_555
N10 C53 1_555 1_555
C38 C42 1_555 1_555
N12 C54 1_555 1_555
C43 C52 1_555 1_555
C44 C47 1_555 1_555
C45 C47 1_555 1_555
C46 C49 1_555 1_555
C48 C52 1_555 1_555
C49 C51 1_555 1_555
Cu9 Cu19 1_555 1_555
Cu13 Cu15 1_555 1_555
Cu2 O9 1_555 1_555
Cu3 O5 1_555 1_555
Cu4 O11 1_555 1_555
O1 C7 1_555 1_555
O2 C1 1_555 1_555
O3 C7 1_555 1_555
O4 C6 1_555 1_555
O5 C1 1_555 1_555
O6 C4 1_555 1_555
O7 C9 1_555 1_555
O8 C9 1_555 1_555
O9 C6 1_555 1_555
O11 C4 1_555 1_555
C1 C13 1_555 1_555
C2 H1 1_555 1_555
N1 C23 1_555 1_555
C3 C2 1_555 1_555
C4 C8 1_555 1_555
C5 H2 1_555 1_555
C6 C3 1_555 1_555
N2 H3 1_555 1_555
N3 C26 1_555 1_555
C7 C12 1_555 1_555
C8 C10 1_555 1_555
C9 C14 1_555 1_555
C10 H4 1_555 1_555
N4 C23 1_555 1_555
N5 H5 1_555 1_555
C11 C15 1_555 1_555
C12 C10 1_555 1_555
C13 C5 1_555 1_555
C14 C2 1_555 1_555
C15 C5 1_555 1_555
N6 H6 1_555 1_555
C16 C14 1_555 1_555
H7 C16 1_555 1_555
C17 C12 1_555 1_555
H8 C17 1_555 1_555
C18 C8 1_555 1_555
H9 C18 1_555 1_555
C19 C15 1_555 1_555
H10 C19 1_555 1_555
C20 N2 1_555 1_555
C21 C3 1_555 1_555
H11 C21 1_555 1_555
C22 N6 1_555 1_555
C23 N5 1_555 1_555
C24 C13 1_555 1_555
H12 C24 1_555 1_555
C25 N5 1_555 1_555
C26 N2 1_555 1_555
C27 N1 1_555 1_555
O24 Cu2 1_555 1_555
Cu7 Cu2 1_555 1_555
Cu10 O7 1_555 1_555
Cu11 Cu4 1_555 1_555
Cu14 O3 1_555 1_555
Cu16 O1 1_555 1_555
Cu17 Cu3 1_555 1_555
Cu20 O8 1_555 1_555
O25 Cu4 1_555 1_555
O27 Cu4 1_555 1_555
O29 Cu3 1_555 1_555
O32 Cu3 1_555 1_555
O34 Cu3 1_555 1_555
O36 Cu4 1_555 1_555
O38 Cu2 1_555 1_555
O40 Cu2 1_555 1_555
O2 Cu17 1_555 1_555
O4 Cu7 1_555 1_555
O6 Cu11 1_555 1_555
N3 C27 1_555 1_555
N4 C26 1_555 1_555
N6 C27 1_555 1_555
C16 C25 1_555 1_555
C17 C20 1_555 1_555
C18 C20 1_555 1_555
C19 C22 1_555 1_555
C21 C25 1_555 1_555
C22 C24 1_555 1_555
O22 Cu7 1_555 1_555
Cu10 Cu20 1_555 1_555
Cu14 Cu16 1_555 1_555
O38_2 Cu8 1_555 1_555
O40_2 Cu8 1_555 1_555
O31_2 Cu7 1_555 1_555
O39_2 Cu7 1_555 1_555
Cu2_2 O9_2 1_555 1_555
Cu9 O5_2 1_555 1_555
Cu15 O11_2 1_555 1_555
O25 C7_2 1_555 1_555
O2_2 C1_2 1_555 1_555
O3_2 C7_2 1_555 1_555
O4_2 C6_2 1_555 1_555
O5_2 C1_2 1_555 1_555
O6_2 C4_2 1_555 1_555
O34 C9_2 1_555 1_555
O8_2 C9_2 1_555 1_555
O9_2 C6_2 1_555 1_555
O11_2 C4_2 1_555 1_555
C1_2 C13_2 1_555 1_555
C2_2 H1_2 1_555 1_555
N1_2 C23_2 1_555 1_555
C3_2 C2_2 1_555 1_555
C4_2 C8_2 1_555 1_555
C5_2 H2_2 1_555 1_555
C6_2 C3_2 1_555 1_555
N2_2 H3_2 1_555 1_555
N3_2 C26_2 1_555 1_555
C7_2 C12_2 1_555 1_555
C8_2 C10_2 1_555 1_555
C9_2 C14_2 1_555 1_555
C10_2 H4_2 1_555 1_555
N4_2 C23_2 1_555 1_555
N5_2 H5_2 1_555 1_555
C11_2 C15_2 1_555 1_555
C12_2 C10_2 1_555 1_555
C13_2 C5_2 1_555 1_555
C14_2 C2_2 1_555 1_555
C15_2 C5_2 1_555 1_555
N6_2 H6_2 1_555 1_555
C16_2 C14_2 1_555 1_555
H7_2 C16_2 1_555 1_555
C17_2 C12_2 1_555 1_555
H8_2 C17_2 1_555 1_555
C18_2 C8_2 1_555 1_555
H9_2 C18_2 1_555 1_555
C19_2 C15_2 1_555 1_555
H10_2 C19_2 1_555 1_555
C20_2 N2_2 1_555 1_555
C21_2 C3_2 1_555 1_555
H11_2 C21_2 1_555 1_555
C22_2 N6_2 1_555 1_555
C23_2 N5_2 1_555 1_555
C24_2 C13_2 1_555 1_555
H12_2 C24_2 1_555 1_555
C25_2 N5_2 1_555 1_555
C26_2 N2_2 1_555 1_555
C27_2 N1_2 1_555 1_555
O24_2 Cu2_2 1_555 1_555
Cu7_2 Cu2_2 1_555 1_555
Cu11 O3_2 1_555 1_555
Cu17 O8_2 1_555 1_555
O27_2 Cu15 1_555 1_555
O29_2 Cu9 1_555 1_555
O32_2 Cu9 1_555 1_555
O36_2 Cu15 1_555 1_555
O38_3 Cu2_2 1_555 1_555
O40_3 Cu2_2 1_555 1_555
O2_2 Cu19 1_555 1_555
O4_2 Cu7_2 1_555 1_555
O6_2 Cu13 1_555 1_555
N3_2 C27_2 1_555 1_555
N4_2 C26_2 1_555 1_555
N6_2 C27_2 1_555 1_555
C16_2 C25_2 1_555 1_555
C17_2 C20_2 1_555 1_555
C18_2 C20_2 1_555 1_555
C19_2 C22_2 1_555 1_555
C21_2 C25_2 1_555 1_555
C22_2 C24_2 1_555 1_555
O22_2 Cu7_2 1_555 1_555
Cu1_2 O10_2 1_555 1_555
Cu10 O17_2 1_555 1_555
Cu16 O23_2 1_555 1_555
O26 C34_2 1_555 1_555
O14_2 C28_2 1_555 1_555
O15_2 C34_2 1_555 1_555
O16_2 Cu1_2 1_555 1_555
O17_2 C28_2 1_555 1_555
O18_2 C31_2 1_555 1_555
O35 C36_2 1_555 1_555
O20_2 C36_2 1_555 1_555
O21_2 C33_2 1_555 1_555
O23_2 C31_2 1_555 1_555
C28_2 C40_2 1_555 1_555
C29_2 H13_2 1_555 1_555
N7_2 C50_2 1_555 1_555
C30_2 C29_2 1_555 1_555
C31_2 C35_2 1_555 1_555
C32_2 H14_2 1_555 1_555
C33_2 O16_2 1_555 1_555
N8_2 H15_2 1_555 1_555
N9_2 C53_2 1_555 1_555
C34_2 C39_2 1_555 1_555
C35_2 C37_2 1_555 1_555
C36_2 C41_2 1_555 1_555
C37_2 H16_2 1_555 1_555
N10_2 C50_2 1_555 1_555
N11_2 H17_2 1_555 1_555
C39_2 C37_2 1_555 1_555
C40_2 C32_2 1_555 1_555
C41_2 C29_2 1_555 1_555
C42_2 C32_2 1_555 1_555
N12_2 H18_2 1_555 1_555
C43_2 C41_2 1_555 1_555
H19_2 C43_2 1_555 1_555
C44_2 C39_2 1_555 1_555
H20_2 C44_2 1_555 1_555
C45_2 C35_2 1_555 1_555
H21_2 C45_2 1_555 1_555
C46_2 C42_2 1_555 1_555
H22_2 C46_2 1_555 1_555
C47_2 N8_2 1_555 1_555
C48_2 C30_2 1_555 1_555
H23_2 C48_2 1_555 1_555
C49_2 N12_2 1_555 1_555
C50_2 N11_2 1_555 1_555
C51_2 C40_2 1_555 1_555
H24_2 C51_2 1_555 1_555
C52_2 N11_2 1_555 1_555
C53_2 N8_2 1_555 1_555
C54_2 N7_2 1_555 1_555
Cu8_2 Cu1_2 1_555 1_555
Cu12 O15_2 1_555 1_555
Cu18 O20_2 1_555 1_555
O28_2 Cu16 1_555 1_555
O30_2 Cu10 1_555 1_555
O31_3 Cu1_2 1_555 1_555
O33_2 Cu10 1_555 1_555
O37_2 Cu16 1_555 1_555
O39_3 Cu1_2 1_555 1_555
O12_2 Cu8_2 1_555 1_555
O14_2 Cu20 1_555 1_555
O18_2 Cu14 1_555 1_555
O21_2 Cu8_2 1_555 1_555
C30_2 C33_2 1_555 1_555
N9_2 C54_2 1_555 1_555
N10_2 C53_2 1_555 1_555
C38_2 C42_2 1_555 1_555
N12_2 C54_2 1_555 1_555
C43_2 C52_2 1_555 1_555
C44_2 C47_2 1_555 1_555
C45_2 C47_2 1_555 1_555
C46_2 C49_2 1_555 1_555
C48_2 C52_2 1_555 1_555
C49_2 C51_2 1_555 1_555
O31_4 Cu7_2 1_555 1_555
O39_4 Cu7_2 1_555 1_555
O38_4 Cu8_2 1_555 1_555
O40_4 Cu8_2 1_555 1_555
Cu7_3 Cu2_3 1_555 1_555
O38_5 Cu2_3 1_555 1_555
O40_5 Cu2_3 1_555 1_555
Cu2_4 O9_3 1_555 1_555
O1_2 C7_3 1_555 1_555
O3_3 C7_3 1_555 1_555
O4_3 C6_3 1_555 1_555
O7_2 C9_3 1_555 1_555
O8_3 C9_3 1_555 1_555
O9_3 C6_3 1_555 1_555
C2_3 H1_3 1_555 1_555
N1_3 C23_3 1_555 1_555
C3_3 C2_3 1_555 1_555
C6_3 C3_3 1_555 1_555
C7_3 C12_3 1_555 1_555
C9_3 C14_3 1_555 1_555
N4_3 C23_3 1_555 1_555
N5_3 H5_3 1_555 1_555
C14_3 C2_3 1_555 1_555
C16_3 C14_3 1_555 1_555
H7_3 C16_3 1_555 1_555
C21_3 C3_3 1_555 1_555
H11_3 C21_3 1_555 1_555
C23_3 N5_3 1_555 1_555
C25_3 N5_3 1_555 1_555
Cu5_2 O17_3 1_555 1_555
Cu6_2 O23_3 1_555 1_555
O14_3 C28_3 1_555 1_555
O17_3 C28_3 1_555 1_555
O18_3 C31_3 1_555 1_555
O22_3 C38_3 1_555 1_555
O23_3 C31_3 1_555 1_555
O24_3 Cu2_4 1_555 1_555
C28_3 C40_3 1_555 1_555
C31_3 C35_3 1_555 1_555
C32_3 H14_3 1_555 1_555
N8_3 H15_3 1_555 1_555
N9_3 C53_3 1_555 1_555
C35_3 C37_3 1_555 1_555
C37_3 H16_3 1_555 1_555
C38_3 O24_3 1_555 1_555
C40_3 C32_3 1_555 1_555
C42_3 C32_3 1_555 1_555
N12_3 H18_3 1_555 1_555
C45_3 C35_3 1_555 1_555
H21_3 C45_3 1_555 1_555
C46_3 C42_3 1_555 1_555
H22_3 C46_3 1_555 1_555
C47_3 N8_3 1_555 1_555
C49_3 N12_3 1_555 1_555
C51_3 C40_3 1_555 1_555
H24_3 C51_3 1_555 1_555
C53_3 N8_3 1_555 1_555
Cu7_4 Cu2_4 1_555 1_555
Cu10_2 O7_2 1_555 1_555
Cu12_2 Cu6_2 1_555 1_555
Cu14_2 O3_3 1_555 1_555
Cu16_2 O1_2 1_555 1_555
Cu18_2 Cu5_2 1_555 1_555
Cu20_2 O8_3 1_555 1_555
O26_2 Cu6_2 1_555 1_555
O28_3 Cu6_2 1_555 1_555
O30_3 Cu5_2 1_555 1_555
O33_3 Cu5_2 1_555 1_555
O35_2 Cu5_2 1_555 1_555
O37_3 Cu6_2 1_555 1_555
O4_3 Cu7_4 1_555 1_555
C16_3 C25_3 1_555 1_555
C21_3 C25_3 1_555 1_555
O14_3 Cu18_2 1_555 1_555
O18_3 Cu12_2 1_555 1_555
O22_3 Cu7_4 1_555 1_555
N9_3 C54_3 1_555 1_555
C38_3 C42_3 1_555 1_555
N12_3 C54_3 1_555 1_555
C44_3 C47_3 1_555 1_555
C45_3 C47_3 1_555 1_555
C46_3 C49_3 1_555 1_555
C49_3 C51_3 1_555 1_555
Cu10_2 Cu20_2 1_555 1_555
Cu14_2 Cu16_2 1_555 1_555
Cu8_3 Cu1_3 1_555 1_555
O31_5 Cu1_3 1_555 1_555
O39_5 Cu1_3 1_555 1_555
Cu1_4 O10_3 1_555 1_555
Cu3_2 O5_3 1_555 1_555
Cu4_2 O11_3 1_555 1_555
O2_3 C1_3 1_555 1_555
O5_3 C1_3 1_555 1_555
O6_3 C4_3 1_555 1_555
O10_3 C11_3 1_555 1_555
O11_3 C4_3 1_555 1_555
O12_3 C11_3 1_555 1_555
C1_3 C13_3 1_555 1_555
C4_3 C8_3 1_555 1_555
C5_3 H2_3 1_555 1_555
N2_3 H3_3 1_555 1_555
N3_3 C26_3 1_555 1_555
C8_3 C10_3 1_555 1_555
C10_3 H4_3 1_555 1_555
C11_3 C15_3 1_555 1_555
C13_3 C5_3 1_555 1_555
C15_3 C5_3 1_555 1_555
N6_3 H6_3 1_555 1_555
C18_3 C8_3 1_555 1_555
H9_3 C18_3 1_555 1_555
C19_3 C15_3 1_555 1_555
H10_3 C19_3 1_555 1_555
C20_3 N2_3 1_555 1_555
C22_3 N6_3 1_555 1_555
C24_3 C13_3 1_555 1_555
H12_3 C24_3 1_555 1_555
C26_3 N2_3 1_555 1_555
O13_2 C34_3 1_555 1_555
O15_3 C34_3 1_555 1_555
O16_3 Cu1_4 1_555 1_555
O19_2 C36_3 1_555 1_555
O20_3 C36_3 1_555 1_555
O21_3 C33_3 1_555 1_555
C29_3 H13_3 1_555 1_555
N7_3 C50_3 1_555 1_555
C30_3 C29_3 1_555 1_555
C33_3 O16_3 1_555 1_555
C34_3 C39_3 1_555 1_555
C36_3 C41_3 1_555 1_555
N10_3 C50_3 1_555 1_555
N11_3 H17_3 1_555 1_555
C41_3 C29_3 1_555 1_555
C43_3 C41_3 1_555 1_555
H19_3 C43_3 1_555 1_555
C48_3 C30_3 1_555 1_555
H23_3 C48_3 1_555 1_555
C50_3 N11_3 1_555 1_555
C52_3 N11_3 1_555 1_555
Cu8_4 Cu1_4 1_555 1_555
Cu9_2 O19_2 1_555 1_555
Cu11_2 Cu4_2 1_555 1_555
Cu13_2 O15_3 1_555 1_555
Cu15_2 O13_2 1_555 1_555
Cu17_2 Cu3_2 1_555 1_555
Cu19_2 O20_3 1_555 1_555
O25_2 Cu4_2 1_555 1_555
O27_3 Cu4_2 1_555 1_555
O29_3 Cu3_2 1_555 1_555
O32_3 Cu3_2 1_555 1_555
O34_2 Cu3_2 1_555 1_555
O36_3 Cu4_2 1_555 1_555
O2_3 Cu17_2 1_555 1_555
O6_3 Cu11_2 1_555 1_555
O12_3 Cu8_4 1_555 1_555
N3_3 C27_3 1_555 1_555
N6_3 C27_3 1_555 1_555
C17_3 C20_3 1_555 1_555
C18_3 C20_3 1_555 1_555
C19_3 C22_3 1_555 1_555
C22_3 C24_3 1_555 1_555
O21_3 Cu8_4 1_555 1_555
C30_3 C33_3 1_555 1_555
C43_3 C52_3 1_555 1_555
C48_3 C52_3 1_555 1_555
Cu9_2 Cu19_2 1_555 1_555
Cu13_2 Cu15_2 1_555 1_555
O31_6 Cu7_3 1_555 1_555
O39_6 Cu7_3 1_555 1_555
O38_6 Cu8_3 1_555 1_555
O40_6 Cu8_3 1_555 1_555
Cu7_5 Cu2_5 1_555 1_555
O38_7 Cu2_5 1_555 1_555
O40_7 Cu2_5 1_555 1_555
Cu2_6 O9_4 1_555 1_555
O25_2 C7_4 1_555 1_555
O3_4 C7_4 1_555 1_555
O4_4 C6_4 1_555 1_555
O34_2 C9_4 1_555 1_555
O8_4 C9_4 1_555 1_555
O9_4 C6_4 1_555 1_555
C2_4 H1_4 1_555 1_555
N1_4 C23_4 1_555 1_555
C3_4 C2_4 1_555 1_555
C6_4 C3_4 1_555 1_555
C7_4 C12_4 1_555 1_555
C9_4 C14_4 1_555 1_555
N4_4 C23_4 1_555 1_555
N5_4 H5_4 1_555 1_555
C14_4 C2_4 1_555 1_555
C16_4 C14_4 1_555 1_555
H7_4 C16_4 1_555 1_555
C21_4 C3_4 1_555 1_555
H11_4 C21_4 1_555 1_555
C23_4 N5_4 1_555 1_555
C25_4 N5_4 1_555 1_555
Cu10_2 O17_4 1_555 1_555
Cu16_2 O23_4 1_555 1_555
O14_4 C28_4 1_555 1_555
O17_4 C28_4 1_555 1_555
O18_4 C31_4 1_555 1_555
O22_4 C38_4 1_555 1_555
O23_4 C31_4 1_555 1_555
O24_4 Cu2_6 1_555 1_555
C28_4 C40_4 1_555 1_555
C31_4 C35_4 1_555 1_555
C32_4 H14_4 1_555 1_555
N8_4 H15_4 1_555 1_555
N9_4 C53_4 1_555 1_555
C35_4 C37_4 1_555 1_555
C37_4 H16_4 1_555 1_555
C38_4 O24_4 1_555 1_555
C40_4 C32_4 1_555 1_555
C42_4 C32_4 1_555 1_555
N12_4 H18_4 1_555 1_555
C45_4 C35_4 1_555 1_555
H21_4 C45_4 1_555 1_555
C46_4 C42_4 1_555 1_555
H22_4 C46_4 1_555 1_555
C47_4 N8_4 1_555 1_555
C49_4 N12_4 1_555 1_555
C51_4 C40_4 1_555 1_555
H24_4 C51_4 1_555 1_555
C53_4 N8_4 1_555 1_555
Cu7_6 Cu2_6 1_555 1_555
Cu11_2 O3_4 1_555 1_555
Cu17_2 O8_4 1_555 1_555
O28_4 Cu16_2 1_555 1_555
O30_4 Cu10_2 1_555 1_555
O33_4 Cu10_2 1_555 1_555
O37_4 Cu16_2 1_555 1_555
O4_4 Cu7_6 1_555 1_555
C16_4 C25_4 1_555 1_555
C21_4 C25_4 1_555 1_555
O14_4 Cu20_2 1_555 1_555
O18_4 Cu14_2 1_555 1_555
O22_4 Cu7_6 1_555 1_555
N9_4 C54_4 1_555 1_555
C38_4 C42_4 1_555 1_555
N12_4 C54_4 1_555 1_555
C44_4 C47_4 1_555 1_555
C45_4 C47_4 1_555 1_555
C46_4 C49_4 1_555 1_555
C49_4 C51_4 1_555 1_555
Cu8_5 Cu1_5 1_555 1_555
O31_7 Cu1_5 1_555 1_555
O39_7 Cu1_5 1_555 1_555
Cu1_6 O10_4 1_555 1_555
Cu9_2 O5_4 1_555 1_555
Cu15_2 O11_4 1_555 1_555
O2_4 C1_4 1_555 1_555
O5_4 C1_4 1_555 1_555
O6_4 C4_4 1_555 1_555
O10_4 C11_4 1_555 1_555
O11_4 C4_4 1_555 1_555
O12_4 C11_4 1_555 1_555
C1_4 C13_4 1_555 1_555
C4_4 C8_4 1_555 1_555
C5_4 H2_4 1_555 1_555
N2_4 H3_4 1_555 1_555
N3_4 C26_4 1_555 1_555
C8_4 C10_4 1_555 1_555
C10_4 H4_4 1_555 1_555
C11_4 C15_4 1_555 1_555
C13_4 C5_4 1_555 1_555
C15_4 C5_4 1_555 1_555
N6_4 H6_4 1_555 1_555
C18_4 C8_4 1_555 1_555
H9_4 C18_4 1_555 1_555
C19_4 C15_4 1_555 1_555
H10_4 C19_4 1_555 1_555
C20_4 N2_4 1_555 1_555
C22_4 N6_4 1_555 1_555
C24_4 C13_4 1_555 1_555
H12_4 C24_4 1_555 1_555
C26_4 N2_4 1_555 1_555
O26_2 C34_4 1_555 1_555
O15_4 C34_4 1_555 1_555
O16_4 Cu1_6 1_555 1_555
O35_2 C36_4 1_555 1_555
O20_4 C36_4 1_555 1_555
O21_4 C33_4 1_555 1_555
C29_4 H13_4 1_555 1_555
N7_4 C50_4 1_555 1_555
C30_4 C29_4 1_555 1_555
C33_4 O16_4 1_555 1_555
C34_4 C39_4 1_555 1_555
C36_4 C41_4 1_555 1_555
N10_4 C50_4 1_555 1_555
N11_4 H17_4 1_555 1_555
C41_4 C29_4 1_555 1_555
C43_4 C41_4 1_555 1_555
H19_4 C43_4 1_555 1_555
C48_4 C30_4 1_555 1_555
H23_4 C48_4 1_555 1_555
C50_4 N11_4 1_555 1_555
C52_4 N11_4 1_555 1_555
Cu8_6 Cu1_6 1_555 1_555
Cu12_2 O15_4 1_555 1_555
Cu18_2 O20_4 1_555 1_555
O27_4 Cu15_2 1_555 1_555
O29_4 Cu9_2 1_555 1_555
O32_4 Cu9_2 1_555 1_555
O36_4 Cu15_2 1_555 1_555
O2_4 Cu19_2 1_555 1_555
O6_4 Cu13_2 1_555 1_555
O12_4 Cu8_6 1_555 1_555
N3_4 C27_4 1_555 1_555
N6_4 C27_4 1_555 1_555
C17_4 C20_4 1_555 1_555
C18_4 C20_4 1_555 1_555
C19_4 C22_4 1_555 1_555
C22_4 C24_4 1_555 1_555
O21_4 Cu8_6 1_555 1_555
C30_4 C33_4 1_555 1_555
C43_4 C52_4 1_555 1_555
C48_4 C52_4 1_555 1_555
O31_8 Cu7_5 1_555 1_555
O39_8 Cu7_5 1_555 1_555
O38_8 Cu8_5 1_555 1_555
O40_8 Cu8_5 1_555 1_555
Cu11_2 O5_5 1_555 1_555
Cu17_2 O11_5 1_555 1_555
O1_3 C7_5 1_555 1_555
O27_3 C1_5 1_555 1_555
O30_4 C7_5 1_555 1_555
O31 C6_5 1_555 1_555
O5_5 C1_5 1_555 1_555
O32_3 C4_5 1_555 1_555
O7_3 C9_5 1_555 1_555
O37_4 C9_5 1_555 1_555
O38_2 C6_5 1_555 1_555
O11_5 C4_5 1_555 1_555
C1_5 C13_5 1_555 1_555
C2_5 H1_5 1_555 1_555
N1_5 C23_5 1_555 1_555
C3_5 C2_5 1_555 1_555
C4_5 C8_5 1_555 1_555
C5_5 H2_5 1_555 1_555
C6_5 C3_5 1_555 1_555
N2_5 H3_5 1_555 1_555
N3_5 C26_5 1_555 1_555
C7_5 C12_5 1_555 1_555
C8_5 C10_5 1_555 1_555
C9_5 C14_5 1_555 1_555
C10_5 H4_5 1_555 1_555
N4_5 C23_5 1_555 1_555
N5_5 H5_5 1_555 1_555
C11_5 C15_5 1_555 1_555
C12_5 C10_5 1_555 1_555
C13_5 C5_5 1_555 1_555
C14_5 C2_5 1_555 1_555
C15_5 C5_5 1_555 1_555
N6_5 H6_5 1_555 1_555
C16_5 C14_5 1_555 1_555
H7_5 C16_5 1_555 1_555
C17_5 C12_5 1_555 1_555
H8_5 C17_5 1_555 1_555
C18_5 C8_5 1_555 1_555
H9_5 C18_5 1_555 1_555
C19_5 C15_5 1_555 1_555
H10_5 C19_5 1_555 1_555
C20_5 N2_5 1_555 1_555
C21_5 C3_5 1_555 1_555
H11_5 C21_5 1_555 1_555
C22_5 N6_5 1_555 1_555
C23_5 N5_5 1_555 1_555
C24_5 C13_5 1_555 1_555
H12_5 C24_5 1_555 1_555
C25_5 N5_5 1_555 1_555
C26_5 N2_5 1_555 1_555
C27_5 N1_5 1_555 1_555
Cu14_2 O7_3 1_555 1_555
Cu20_2 O1_3 1_555 1_555
O25_3 Cu17_2 1_555 1_555
O34_3 Cu11_2 1_555 1_555
N3_5 C27_5 1_555 1_555
N4_5 C26_5 1_555 1_555
N6_5 C27_5 1_555 1_555
C16_5 C25_5 1_555 1_555
C17_5 C20_5 1_555 1_555
C18_5 C20_5 1_555 1_555
C19_5 C22_5 1_555 1_555
C21_5 C25_5 1_555 1_555
C22_5 C24_5 1_555 1_555
Cu12_2 O17_5 1_555 1_555
Cu18_2 O23_5 1_555 1_555
O13_3 C34_5 1_555 1_555
O28_3 C28_5 1_555 1_555
O29_4 C34_5 1_555 1_555
O17_5 C28_5 1_555 1_555
O33_3 C31_5 1_555 1_555
O19_3 C36_5 1_555 1_555
O36_4 C36_5 1_555 1_555
O38 C33_5 1_555 1_555
O23_5 C31_5 1_555 1_555
C28_5 C40_5 1_555 1_555
C29_5 H13_5 1_555 1_555
N7_5 C50_5 1_555 1_555
C30_5 C29_5 1_555 1_555
C31_5 C35_5 1_555 1_555
C32_5 H14_5 1_555 1_555
C33_5 O31_2 1_555 1_555
N8_5 H15_5 1_555 1_555
N9_5 C53_5 1_555 1_555
C34_5 C39_5 1_555 1_555
C35_5 C37_5 1_555 1_555
C36_5 C41_5 1_555 1_555
C37_5 H16_5 1_555 1_555
N10_5 C50_5 1_555 1_555
N11_5 H17_5 1_555 1_555
C39_5 C37_5 1_555 1_555
C40_5 C32_5 1_555 1_555
C41_5 C29_5 1_555 1_555
C42_5 C32_5 1_555 1_555
N12_5 H18_5 1_555 1_555
C43_5 C41_5 1_555 1_555
H19_5 C43_5 1_555 1_555
C44_5 C39_5 1_555 1_555
H20_5 C44_5 1_555 1_555
C45_5 C35_5 1_555 1_555
H21_5 C45_5 1_555 1_555
C46_5 C42_5 1_555 1_555
H22_5 C46_5 1_555 1_555
C47_5 N8_5 1_555 1_555
C48_5 C30_5 1_555 1_555
H23_5 C48_5 1_555 1_555
C49_5 N12_5 1_555 1_555
C50_5 N11_5 1_555 1_555
C51_5 C40_5 1_555 1_555
H24_5 C51_5 1_555 1_555
C52_5 N11_5 1_555 1_555
C53_5 N8_5 1_555 1_555
C54_5 N7_5 1_555 1_555
Cu13_2 O19_3 1_555 1_555
Cu19_2 O13_3 1_555 1_555
O26_3 Cu18_2 1_555 1_555
O35_3 Cu12_2 1_555 1_555
C30_5 C33_5 1_555 1_555
N9_5 C54_5 1_555 1_555
N10_5 C53_5 1_555 1_555
C38_5 C42_5 1_555 1_555
N12_5 C54_5 1_555 1_555
C43_5 C52_5 1_555 1_555
C44_5 C47_5 1_555 1_555
C45_5 C47_5 1_555 1_555
C46_5 C49_5 1_555 1_555
C48_5 C52_5 1_555 1_555
C49_5 C51_5 1_555 1_555
Cu14_2 O17_6 1_555 1_555
Cu20_2 O23_6 1_555 1_555
O26_3 C34_6 1_555 1_555
O28_4 C28_6 1_555 1_555
O30_3 C34_6 1_555 1_555
O17_6 C28_6 1_555 1_555
O33_4 C31_6 1_555 1_555
O35_3 C36_6 1_555 1_555
O37_3 C36_6 1_555 1_555
O38_3 C33_6 1_555 1_555
O23_6 C31_6 1_555 1_555
C28_6 C40_6 1_555 1_555
C29_6 H13_6 1_555 1_555
N7_6 C50_6 1_555 1_555
C30_6 C29_6 1_555 1_555
C31_6 C35_6 1_555 1_555
C32_6 H14_6 1_555 1_555
C33_6 O31_4 1_555 1_555
N8_6 H15_6 1_555 1_555
N9_6 C53_6 1_555 1_555
C34_6 C39_6 1_555 1_555
C35_6 C37_6 1_555 1_555
C36_6 C41_6 1_555 1_555
C37_6 H16_6 1_555 1_555
N10_6 C50_6 1_555 1_555
N11_6 H17_6 1_555 1_555
C39_6 C37_6 1_555 1_555
C40_6 C32_6 1_555 1_555
C41_6 C29_6 1_555 1_555
C42_6 C32_6 1_555 1_555
N12_6 H18_6 1_555 1_555
C43_6 C41_6 1_555 1_555
H19_6 C43_6 1_555 1_555
C44_6 C39_6 1_555 1_555
H20_6 C44_6 1_555 1_555
C45_6 C35_6 1_555 1_555
H21_6 C45_6 1_555 1_555
C46_6 C42_6 1_555 1_555
H22_6 C46_6 1_555 1_555
C47_6 N8_6 1_555 1_555
C48_6 C30_6 1_555 1_555
H23_6 C48_6 1_555 1_555
C49_6 N12_6 1_555 1_555
C50_6 N11_6 1_555 1_555
C51_6 C40_6 1_555 1_555
H24_6 C51_6 1_555 1_555
C52_6 N11_6 1_555 1_555
C53_6 N8_6 1_555 1_555
C54_6 N7_6 1_555 1_555
C30_6 C33_6 1_555 1_555
N9_6 C54_6 1_555 1_555
N10_6 C53_6 1_555 1_555
C38_6 C42_6 1_555 1_555
N12_6 C54_6 1_555 1_555
C43_6 C52_6 1_555 1_555
C44_6 C47_6 1_555 1_555
C45_6 C47_6 1_555 1_555
C46_6 C49_6 1_555 1_555
C48_6 C52_6 1_555 1_555
C49_6 C51_6 1_555 1_555
Cu13_2 O5_6 1_555 1_555
Cu19_2 O11_6 1_555 1_555
O25_3 C7_6 1_555 1_555
O27_4 C1_6 1_555 1_555
O29_3 C7_6 1_555 1_555
O31_3 C6_6 1_555 1_555
O5_6 C1_6 1_555 1_555
O32_4 C4_6 1_555 1_555
O34_3 C9_6 1_555 1_555
O36_3 C9_6 1_555 1_555
O38_4 C6_6 1_555 1_555
O11_6 C4_6 1_555 1_555
C1_6 C13_6 1_555 1_555
C2_6 H1_6 1_555 1_555
N1_6 C23_6 1_555 1_555
C3_6 C2_6 1_555 1_555
C4_6 C8_6 1_555 1_555
C5_6 H2_6 1_555 1_555
C6_6 C3_6 1_555 1_555
N2_6 H3_6 1_555 1_555
N3_6 C26_6 1_555 1_555
C7_6 C12_6 1_555 1_555
C8_6 C10_6 1_555 1_555
C9_6 C14_6 1_555 1_555
C10_6 H4_6 1_555 1_555
N4_6 C23_6 1_555 1_555
N5_6 H5_6 1_555 1_555
C11_6 C15_6 1_555 1_555
C12_6 C10_6 1_555 1_555
C13_6 C5_6 1_555 1_555
C14_6 C2_6 1_555 1_555
C15_6 C5_6 1_555 1_555
N6_6 H6_6 1_555 1_555
C16_6 C14_6 1_555 1_555
H7_6 C16_6 1_555 1_555
C17_6 C12_6 1_555 1_555
H8_6 C17_6 1_555 1_555
C18_6 C8_6 1_555 1_555
H9_6 C18_6 1_555 1_555
C19_6 C15_6 1_555 1_555
H10_6 C19_6 1_555 1_555
C20_6 N2_6 1_555 1_555
C21_6 C3_6 1_555 1_555
H11_6 C21_6 1_555 1_555
C22_6 N6_6 1_555 1_555
C23_6 N5_6 1_555 1_555
C24_6 C13_6 1_555 1_555
H12_6 C24_6 1_555 1_555
C25_6 N5_6 1_555 1_555
C26_6 N2_6 1_555 1_555
C27_6 N1_6 1_555 1_555
N3_6 C27_6 1_555 1_555
N4_6 C26_6 1_555 1_555
N6_6 C27_6 1_555 1_555
C16_6 C25_6 1_555 1_555
C17_6 C20_6 1_555 1_555
C18_6 C20_6 1_555 1_555
C19_6 C22_6 1_555 1_555
C21_6 C25_6 1_555 1_555
C22_6 C24_6 1_555 1_555
Cu11 O5_7 1_555 1_555
Cu17 O11_7 1_555 1_555
O27 C1_7 1_555 1_555
O5_7 C1_7 1_555 1_555
O32 C4_7 1_555 1_555
O39_6 C11_7 1_555 1_555
O11_7 C4_7 1_555 1_555
O40_5 C11_7 1_555 1_555
C1_7 C13_7 1_555 1_555
C4_7 C8_7 1_555 1_555
C5_7 H2_7 1_555 1_555
N2_7 H3_7 1_555 1_555
N3_7 C26_7 1_555 1_555
C8_7 C10_7 1_555 1_555
C10_7 H4_7 1_555 1_555
C11_7 C15_7 1_555 1_555
C13_7 C5_7 1_555 1_555
C15_7 C5_7 1_555 1_555
N6_7 H6_7 1_555 1_555
C18_7 C8_7 1_555 1_555
H9_7 C18_7 1_555 1_555
C19_7 C15_7 1_555 1_555
H10_7 C19_7 1_555 1_555
C20_7 N2_7 1_555 1_555
C22_7 N6_7 1_555 1_555
C24_7 C13_7 1_555 1_555
H12_7 C24_7 1_555 1_555
C26_7 N2_7 1_555 1_555
O13_4 C34_7 1_555 1_555
O29_2 C34_7 1_555 1_555
O19_4 C36_7 1_555 1_555
O36_2 C36_7 1_555 1_555
O38_5 C33_7 1_555 1_555
C29_7 H13_7 1_555 1_555
N7_7 C50_7 1_555 1_555
C30_7 C29_7 1_555 1_555
C33_7 O31_6 1_555 1_555
C34_7 C39_7 1_555 1_555
C36_7 C41_7 1_555 1_555
N10_7 C50_7 1_555 1_555
N11_7 H17_7 1_555 1_555
C41_7 C29_7 1_555 1_555
C43_7 C41_7 1_555 1_555
H19_7 C43_7 1_555 1_555
C48_7 C30_7 1_555 1_555
H23_7 C48_7 1_555 1_555
C50_7 N11_7 1_555 1_555
C52_7 N11_7 1_555 1_555
Cu13 O19_4 1_555 1_555
Cu19 O13_4 1_555 1_555
O25_4 Cu17 1_555 1_555
O34_4 Cu11 1_555 1_555
N3_7 C27_7 1_555 1_555
N6_7 C27_7 1_555 1_555
C17_7 C20_7 1_555 1_555
C18_7 C20_7 1_555 1_555
C19_7 C22_7 1_555 1_555
C22_7 C24_7 1_555 1_555
C30_7 C33_7 1_555 1_555
C43_7 C52_7 1_555 1_555
C48_7 C52_7 1_555 1_555
O1_4 C7_7 1_555 1_555
O30_2 C7_7 1_555 1_555
O31_5 C6_7 1_555 1_555
O7_4 C9_7 1_555 1_555
O37_2 C9_7 1_555 1_555
O38_6 C6_7 1_555 1_555
C2_7 H1_7 1_555 1_555
N1_7 C23_7 1_555 1_555
C3_7 C2_7 1_555 1_555
C6_7 C3_7 1_555 1_555
C7_7 C12_7 1_555 1_555
C9_7 C14_7 1_555 1_555
N4_7 C23_7 1_555 1_555
N5_7 H5_7 1_555 1_555
C14_7 C2_7 1_555 1_555
C16_7 C14_7 1_555 1_555
H7_7 C16_7 1_555 1_555
C21_7 C3_7 1_555 1_555
H11_7 C21_7 1_555 1_555
C23_7 N5_7 1_555 1_555
C25_7 N5_7 1_555 1_555
Cu12 O17_7 1_555 1_555
Cu18 O23_7 1_555 1_555
O28 C28_7 1_555 1_555
O17_7 C28_7 1_555 1_555
O33 C31_7 1_555 1_555
O39_5 C38_7 1_555 1_555
O23_7 C31_7 1_555 1_555
C28_7 C40_7 1_555 1_555
C31_7 C35_7 1_555 1_555
C32_7 H14_7 1_555 1_555
N8_7 H15_7 1_555 1_555
N9_7 C53_7 1_555 1_555
C35_7 C37_7 1_555 1_555
C37_7 H16_7 1_555 1_555
C38_7 O40_6 1_555 1_555
C40_7 C32_7 1_555 1_555
C42_7 C32_7 1_555 1_555
N12_7 H18_7 1_555 1_555
C45_7 C35_7 1_555 1_555
H21_7 C45_7 1_555 1_555
C46_7 C42_7 1_555 1_555
H22_7 C46_7 1_555 1_555
C47_7 N8_7 1_555 1_555
C49_7 N12_7 1_555 1_555
C51_7 C40_7 1_555 1_555
H24_7 C51_7 1_555 1_555
C53_7 N8_7 1_555 1_555
Cu14 O7_4 1_555 1_555
Cu20 O1_4 1_555 1_555
O26_4 Cu18 1_555 1_555
O35_4 Cu12 1_555 1_555
C16_7 C25_7 1_555 1_555
C21_7 C25_7 1_555 1_555
N9_7 C54_7 1_555 1_555
C38_7 C42_7 1_555 1_555
N12_7 C54_7 1_555 1_555
C44_7 C47_7 1_555 1_555
C45_7 C47_7 1_555 1_555
C46_7 C49_7 1_555 1_555
C49_7 C51_7 1_555 1_555
Cu13 O5_8 1_555 1_555
Cu19 O11_8 1_555 1_555
O27_2 C1_8 1_555 1_555
O5_8 C1_8 1_555 1_555
O32_2 C4_8 1_555 1_555
O39_8 C11_8 1_555 1_555
O11_8 C4_8 1_555 1_555
O40_7 C11_8 1_555 1_555
C1_8 C13_8 1_555 1_555
C4_8 C8_8 1_555 1_555
C5_8 H2_8 1_555 1_555
N2_8 H3_8 1_555 1_555
N3_8 C26_8 1_555 1_555
C8_8 C10_8 1_555 1_555
C10_8 H4_8 1_555 1_555
C11_8 C15_8 1_555 1_555
C13_8 C5_8 1_555 1_555
C15_8 C5_8 1_555 1_555
N6_8 H6_8 1_555 1_555
C18_8 C8_8 1_555 1_555
H9_8 C18_8 1_555 1_555
C19_8 C15_8 1_555 1_555
H10_8 C19_8 1_555 1_555
C20_8 N2_8 1_555 1_555
C22_8 N6_8 1_555 1_555
C24_8 C13_8 1_555 1_555
H12_8 C24_8 1_555 1_555
C26_8 N2_8 1_555 1_555
O26_4 C34_8 1_555 1_555
O30 C34_8 1_555 1_555
O35_4 C36_8 1_555 1_555
O37 C36_8 1_555 1_555
O38_7 C33_8 1_555 1_555
C29_8 H13_8 1_555 1_555
N7_8 C50_8 1_555 1_555
C30_8 C29_8 1_555 1_555
C33_8 O31_8 1_555 1_555
C34_8 C39_8 1_555 1_555
C36_8 C41_8 1_555 1_555
N10_8 C50_8 1_555 1_555
N11_8 H17_8 1_555 1_555
C41_8 C29_8 1_555 1_555
C43_8 C41_8 1_555 1_555
H19_8 C43_8 1_555 1_555
C48_8 C30_8 1_555 1_555
H23_8 C48_8 1_555 1_555
C50_8 N11_8 1_555 1_555
C52_8 N11_8 1_555 1_555
N3_8 C27_8 1_555 1_555
N6_8 C27_8 1_555 1_555
C17_8 C20_8 1_555 1_555
C18_8 C20_8 1_555 1_555
C19_8 C22_8 1_555 1_555
C22_8 C24_8 1_555 1_555
C30_8 C33_8 1_555 1_555
C43_8 C52_8 1_555 1_555
C48_8 C52_8 1_555 1_555
O25_4 C7_8 1_555 1_555
O29 C7_8 1_555 1_555
O31_7 C6_8 1_555 1_555
O34_4 C9_8 1_555 1_555
O36 C9_8 1_555 1_555
O38_8 C6_8 1_555 1_555
C2_8 H1_8 1_555 1_555
N1_8 C23_8 1_555 1_555
C3_8 C2_8 1_555 1_555
C6_8 C3_8 1_555 1_555
C7_8 C12_8 1_555 1_555
C9_8 C14_8 1_555 1_555
N4_8 C23_8 1_555 1_555
N5_8 H5_8 1_555 1_555
C14_8 C2_8 1_555 1_555
C16_8 C14_8 1_555 1_555
H7_8 C16_8 1_555 1_555
C21_8 C3_8 1_555 1_555
H11_8 C21_8 1_555 1_555
C23_8 N5_8 1_555 1_555
C25_8 N5_8 1_555 1_555
Cu14 O17_8 1_555 1_555
Cu20 O23_8 1_555 1_555
O28_2 C28_8 1_555 1_555
O17_8 C28_8 1_555 1_555
O33_2 C31_8 1_555 1_555
O39_7 C38_8 1_555 1_555
O23_8 C31_8 1_555 1_555
C28_8 C40_8 1_555 1_555
C31_8 C35_8 1_555 1_555
C32_8 H14_8 1_555 1_555
N8_8 H15_8 1_555 1_555
N9_8 C53_8 1_555 1_555
C35_8 C37_8 1_555 1_555
C37_8 H16_8 1_555 1_555
C38_8 O40_8 1_555 1_555
C40_8 C32_8 1_555 1_555
C42_8 C32_8 1_555 1_555
N12_8 H18_8 1_555 1_555
C45_8 C35_8 1_555 1_555
H21_8 C45_8 1_555 1_555
C46_8 C42_8 1_555 1_555
H22_8 C46_8 1_555 1_555
C47_8 N8_8 1_555 1_555
C49_8 N12_8 1_555 1_555
C51_8 C40_8 1_555 1_555
H24_8 C51_8 1_555 1_555
C53_8 N8_8 1_555 1_555
C16_8 C25_8 1_555 1_555
C21_8 C25_8 1_555 1_555
N9_8 C54_8 1_555 1_555
C38_8 C42_8 1_555 1_555
N12_8 C54_8 1_555 1_555
C44_8 C47_8 1_555 1_555
C45_8 C47_8 1_555 1_555
C46_8 C49_8 1_555 1_555
C49_8 C51_8 1_555 1_555

#END
