
###############################################################################
#
# This file contains modified crystal structure data generated from the
# MOF subset of the Cambridge Structural Database (CSD) v543 
# hosted by the Cambridge Crystallographic Data Centre (CCDC).
#
# This work is licensed under the Creative Commons
# Attribution-NonCommercial-ShareAlike 4.0 International License.
# To view a copy of this license, visit
# http://creativecommons.org/licenses/by-nc-sa/4.0/
# or send a letter to
# Creative Commons, PO Box 1866, Mountain View, CA 94042, USA.
#
# CIF created using the CSD Python API on 29 September 2022
# The structure has been converted into the P1 space group
# The structure has a 3D framework
# The original CSD entry PAPPAB10 is in the tetragonal crystal system
# The framework has been calculated to contain at least 10.0% void space
# The void calculation uses a probe of radius 1.32A, grid spacing 0.4
#
###############################################################################

data_PAPPAB10
_chemical_formula_moiety         '(C432 H192 Cu40 N96 O180)n'
_symmetry_cell_setting           triclinic
_symmetry_space_group_name_H-M   'P 1'
_symmetry_Int_Tables_number      1
_space_group_name_Hall           'P 1'
loop_
_symmetry_equiv_pos_site_id
_symmetry_equiv_pos_as_xyz
1 x,y,z
_cell_length_a                   26.4289(2)
_cell_length_b                   26.4289(2)
_cell_length_c                   37.8826(6)
_cell_angle_alpha                90
_cell_angle_beta                 90
_cell_angle_gamma                90
_cell_volume                     26460.5
loop_
_atom_site_label
_atom_site_type_symbol
_atom_site_fract_x
_atom_site_fract_y
_atom_site_fract_z
Cu1 Cu 0.05618(9) 0.70097(8) 0.500000
Cu3 Cu 0.26764(6) 0.65697(6) 0.80566(5)
Cu4 Cu 0.11941(6) 0.17764(6) 0.64820(5)
O1 O 0.2270(4) 0.7802(3) 0.6690(3)
O2 O 0.1204(4) 0.6236(4) 0.5370(3)
O3 O 0.3570(4) 0.3786(3) 0.8244(3)
O4 O 0.3197(4) 0.5578(3) 0.8250(3)
O5 O 0.1068(4) 0.7056(3) 0.5357(3)
O6 O 0.2686(4) 0.5912(3) 0.7837(3)
O7 O 0.1011(4) 0.2397(4) 0.6253(3)
O8 O 0.1800(4) 0.8151(4) 0.6259(3)
O10 O 0.3253(4) 0.3291(3) 0.7816(3)
O12 O 0.1373(4) 0.2897(3) 0.6651(3)
C1 C 0.1115(5) 0.2816(4) 0.6375(4)
C2 C 0.1660(6) 0.7205(5) 0.5945(4)
H1 H 0.153732 0.748731 0.582607
C3 C 0.3334(4) 0.3716(5) 0.7958(5)
C4 C 0.0583(6) 0.3220(6) 0.5917(4)
H2 H 0.044739 0.290317 0.586714
C5 C 0.0015(6) 0.3603(6) 0.5464(4)
C6 C 0.1575(6) 0.6729(5) 0.5812(4)
C7 C 0.1248(6) 0.6675(6) 0.5488(4)
C8 C 0.0944(6) 0.3273(5) 0.6172(4)
C9 C 0.2926(7) 0.5555(5) 0.7976(4)
C10 C 0.2002(6) 0.7787(6) 0.6409(4)
C11 C 0.1925(6) 0.7267(5) 0.6252(4)
N1 N 0.1669(7) 0.5318(5) 0.6299(4)
C12 C 0.2079(6) 0.6848(6) 0.6433(4)
H3 H 0.224734 0.688849 0.664719
C13 C 0.0422(6) 0.3636(6) 0.5734(4)
C14 C 0.3091(6) 0.4174(5) 0.7796(4)
N2 N 0.1743(7) 0.4526(5) 0.6580(4)
N3 N 0.2247(7) 0.4422(5) 0.7053(4)
H4 H 0.215618 0.411189 0.702628
C15 C 0.3132(5) 0.4642(5) 0.7946(4)
H5 H 0.331924 0.468368 0.815205
N4 N 0.2211(7) 0.5216(5) 0.6796(4)
C16 C 0.2901(6) 0.5046(5) 0.7795(4)
C17 C 0.1140(7) 0.3732(6) 0.6250(5)
H6 H 0.137245 0.376391 0.643363
N5 N 0.2152(7) 0.5960(5) 0.6519(5)
H7 H 0.238560 0.603606 0.666768
C18 C 0.2803(8) 0.4110(6) 0.7502(5)
H8 H 0.277300 0.379074 0.740076
C19 C 0.0620(7) 0.4103(6) 0.5807(5)
H9 H 0.050135 0.438676 0.568809
C20 C 0.1992(7) 0.6365(6) 0.6307(5)
C21 C 0.2553(7) 0.4520(6) 0.7351(5)
C22 C 0.2605(6) 0.4996(6) 0.7503(5)
H10 H 0.244124 0.527497 0.740648
N6 N 0.1203(7) 0.4651(5) 0.6115(5)
H11 H 0.107847 0.487952 0.597881
C23 C 0.1999(8) 0.5464(6) 0.6531(5)
C24 C 0.1728(7) 0.6307(6) 0.5997(5)
H12 H 0.165235 0.598481 0.591254
C25 C 0.0999(8) 0.4152(6) 0.6060(5)
C26 C 0.2081(8) 0.4740(6) 0.6808(5)
C27 C 0.1557(9) 0.4826(8) 0.6344(6)
O21 O 0.0192(4) 0.6030(4) 0.5352(3)
O23 O 0.0058(4) 0.6858(4) 0.5356(3)
Cu8 Cu 0.07141(9) 0.60849(8) 0.500000
Cu9 Cu 0.34303(6) 0.26764(6) 0.80566(5)
Cu11 Cu 0.23236(6) 0.84303(6) 0.69434(5)
Cu13 Cu 0.15697(6) 0.23236(6) 0.69434(5)
Cu16 Cu 0.17764(6) 0.88059(6) 0.64820(5)
Cu17 Cu 0.38059(6) 0.32236(6) 0.85180(5)
Cu20 Cu 0.32236(6) 0.61941(6) 0.85180(5)
O25 O 0.2730(4) 0.7198(3) 0.8310(3)
O28 O 0.1430(4) 0.1214(3) 0.6756(3)
O30 O 0.0578(3) 0.1803(4) 0.6750(3)
O32 O 0.1068(4) 0.7056(3) 0.4643(3)
O33 O 0.1849(4) 0.1800(4) 0.6259(3)
O37 O 0.3291(3) 0.6747(4) 0.7816(3)
O38 O 0.0058(4) 0.6858(4) 0.4644(3)
O40 O 0.2103(3) 0.6373(4) 0.8349(3)
Cu2 Cu 0.92859(9) 0.39151(8) 0.500000
O9 O 0.9808(4) 0.3970(4) 0.5352(3)
O11 O 0.9942(4) 0.3142(4) 0.5356(3)
Cu5 Cu 0.73236(6) 0.34303(6) 0.80566(5)
Cu6 Cu 0.88059(6) 0.82236(6) 0.64820(5)
O13 O 0.7730(4) 0.2198(3) 0.6690(3)
O14 O 0.8796(4) 0.3764(4) 0.5370(3)
O15 O 0.6430(4) 0.6214(3) 0.8244(3)
O16 O 0.6803(4) 0.4422(3) 0.8250(3)
O17 O 0.8932(4) 0.2944(3) 0.5357(3)
O18 O 0.7314(4) 0.4088(3) 0.7837(3)
O19 O 0.8989(4) 0.7603(4) 0.6253(3)
O20 O 0.8200(4) 0.1849(4) 0.6259(3)
O22 O 0.6747(4) 0.6709(3) 0.7816(3)
O24 O 0.8627(4) 0.7103(3) 0.6651(3)
C28 C 0.8885(5) 0.7184(4) 0.6375(4)
C29 C 0.8340(6) 0.2795(5) 0.5945(4)
H13 H 0.846268 0.251269 0.582607
C30 C 0.6666(4) 0.6284(5) 0.7958(5)
C31 C 0.9417(6) 0.6780(6) 0.5917(4)
H14 H 0.955261 0.709683 0.586714
C32 C 0.9985(6) 0.6397(6) 0.5464(4)
C33 C 0.8425(6) 0.3271(5) 0.5812(4)
C34 C 0.8752(6) 0.3325(6) 0.5488(4)
C35 C 0.9056(6) 0.6727(5) 0.6172(4)
C36 C 0.7074(7) 0.4445(5) 0.7976(4)
C37 C 0.7998(6) 0.2213(6) 0.6409(4)
C38 C 0.8075(6) 0.2733(5) 0.6252(4)
N7 N 0.8331(7) 0.4682(5) 0.6299(4)
C39 C 0.7921(6) 0.3152(6) 0.6433(4)
H15 H 0.775266 0.311151 0.664719
C40 C 0.9578(6) 0.6364(6) 0.5734(4)
C41 C 0.6909(6) 0.5826(5) 0.7796(4)
N8 N 0.8257(7) 0.5474(5) 0.6580(4)
N9 N 0.7753(7) 0.5578(5) 0.7053(4)
H16 H 0.784382 0.588811 0.702628
C42 C 0.6868(5) 0.5358(5) 0.7946(4)
H17 H 0.668076 0.531632 0.815205
N10 N 0.7789(7) 0.4784(5) 0.6796(4)
C43 C 0.7099(6) 0.4954(5) 0.7795(4)
C44 C 0.8860(7) 0.6268(6) 0.6250(5)
H18 H 0.862755 0.623609 0.643363
N11 N 0.7848(7) 0.4040(5) 0.6519(5)
H19 H 0.761440 0.396394 0.666768
C45 C 0.7197(8) 0.5890(6) 0.7502(5)
H20 H 0.722700 0.620926 0.740076
C46 C 0.9380(7) 0.5897(6) 0.5807(5)
H21 H 0.949865 0.561324 0.568809
C47 C 0.8008(7) 0.3635(6) 0.6307(5)
C48 C 0.7447(7) 0.5480(6) 0.7351(5)
C49 C 0.7395(6) 0.5004(6) 0.7503(5)
H22 H 0.755876 0.472503 0.740648
N12 N 0.8797(7) 0.5349(5) 0.6115(5)
H23 H 0.892153 0.512048 0.597881
C50 C 0.8001(8) 0.4536(6) 0.6531(5)
C51 C 0.8272(7) 0.3693(6) 0.5997(5)
H24 H 0.834765 0.401519 0.591254
C52 C 0.9001(8) 0.5848(6) 0.6060(5)
C53 C 0.7919(8) 0.5260(6) 0.6808(5)
C54 C 0.8443(9) 0.5174(8) 0.6344(6)
Cu7 Cu 0.94382(9) 0.29903(8) 0.500000
Cu10 Cu 0.65697(6) 0.73236(6) 0.80566(5)
Cu12 Cu 0.76764(6) 0.15697(6) 0.69434(5)
Cu14 Cu 0.84303(6) 0.76764(6) 0.69434(5)
Cu15 Cu 0.82236(6) 0.11941(6) 0.64820(5)
Cu18 Cu 0.61941(6) 0.67764(6) 0.85180(5)
Cu19 Cu 0.67764(6) 0.38059(6) 0.85180(5)
O26 O 0.7270(4) 0.2802(3) 0.8310(3)
O27 O 0.8796(4) 0.3764(4) 0.4630(3)
O29 O 0.8570(4) 0.8786(3) 0.6756(3)
O31 O 0.9422(3) 0.8197(4) 0.6750(3)
O34 O 0.8151(4) 0.8200(4) 0.6259(3)
O35 O 0.9808(4) 0.3970(4) 0.4648(3)
O36 O 0.6709(3) 0.3253(4) 0.7816(3)
O39 O 0.7897(3) 0.3627(4) 0.8349(3)
O27_2 O 0.1204(4) 0.6236(4) 0.4630(3)
O35_2 O 0.0192(4) 0.6030(4) 0.4648(3)
O32_2 O 0.8932(4) 0.2944(3) 0.4643(3)
O38_2 O 0.9942(4) 0.3142(4) 0.4644(3)
Cu1_2 Cu 0.29903(8) 0.05618(9) 0.500000
O1_2 O 0.2198(3) 0.2270(4) 0.6690(3)
O2_2 O 0.3764(4) 0.1204(4) 0.5370(3)
O3_2 O 0.6214(3) 0.3570(4) 0.8244(3)
O4_2 O 0.4422(3) 0.3197(4) 0.8250(3)
O5_2 O 0.2944(3) 0.1068(4) 0.5357(3)
O6_2 O 0.4088(3) 0.2686(4) 0.7837(3)
O7_2 O 0.7603(4) 0.1011(4) 0.6253(3)
O12_2 O 0.7103(3) 0.1373(4) 0.6651(3)
C1_2 C 0.7184(4) 0.1115(5) 0.6375(4)
C2_2 C 0.2795(5) 0.1660(6) 0.5945(4)
H1_2 H 0.251269 0.153732 0.582607
C3_2 C 0.6284(5) 0.3334(4) 0.7958(5)
C4_2 C 0.6780(6) 0.0583(6) 0.5917(4)
H2_2 H 0.709683 0.044739 0.586714
C5_2 C 0.6397(6) 0.0015(6) 0.5464(4)
C6_2 C 0.3271(5) 0.1575(6) 0.5812(4)
C7_2 C 0.3325(6) 0.1248(6) 0.5488(4)
C8_2 C 0.6727(5) 0.0944(6) 0.6172(4)
C9_2 C 0.4445(5) 0.2926(7) 0.7976(4)
C10_2 C 0.2213(6) 0.2002(6) 0.6409(4)
C11_2 C 0.2733(5) 0.1925(6) 0.6252(4)
N1_2 N 0.4682(5) 0.1669(7) 0.6299(4)
C12_2 C 0.3152(6) 0.2079(6) 0.6433(4)
H3_2 H 0.311151 0.224734 0.664719
C13_2 C 0.6364(6) 0.0422(6) 0.5734(4)
C14_2 C 0.5826(5) 0.3091(6) 0.7796(4)
N2_2 N 0.5474(5) 0.1743(7) 0.6580(4)
N3_2 N 0.5578(5) 0.2247(7) 0.7053(4)
H4_2 H 0.588811 0.215618 0.702628
C15_2 C 0.5358(5) 0.3132(5) 0.7946(4)
H5_2 H 0.531632 0.331924 0.815205
N4_2 N 0.4784(5) 0.2211(7) 0.6796(4)
C16_2 C 0.4954(5) 0.2901(6) 0.7795(4)
C17_2 C 0.6268(6) 0.1140(7) 0.6250(5)
H6_2 H 0.623609 0.137245 0.643363
N5_2 N 0.4040(5) 0.2152(7) 0.6519(5)
H7_2 H 0.396394 0.238560 0.666768
C18_2 C 0.5890(6) 0.2803(8) 0.7502(5)
H8_2 H 0.620926 0.277300 0.740076
C19_2 C 0.5897(6) 0.0620(7) 0.5807(5)
H9_2 H 0.561324 0.050135 0.568809
C20_2 C 0.3635(6) 0.1992(7) 0.6307(5)
C21_2 C 0.5480(6) 0.2553(7) 0.7351(5)
C22_2 C 0.5004(6) 0.2605(6) 0.7503(5)
H10_2 H 0.472503 0.244124 0.740648
N6_2 N 0.5349(5) 0.1203(7) 0.6115(5)
H11_2 H 0.512048 0.107847 0.597881
C23_2 C 0.4536(6) 0.1999(8) 0.6531(5)
C24_2 C 0.3693(6) 0.1728(7) 0.5997(5)
H12_2 H 0.401519 0.165235 0.591254
C25_2 C 0.5848(6) 0.0999(8) 0.6060(5)
C26_2 C 0.5260(6) 0.2081(8) 0.6808(5)
C27_2 C 0.5174(8) 0.1557(9) 0.6344(6)
O21_2 O 0.3970(4) 0.0192(4) 0.5352(3)
O23_2 O 0.3142(4) 0.0058(4) 0.5356(3)
Cu8_2 Cu 0.39151(8) 0.07141(9) 0.500000
O25_2 O 0.2802(3) 0.2730(4) 0.8310(3)
O28_2 O 0.8786(3) 0.1430(4) 0.6756(3)
O30_2 O 0.8197(4) 0.0578(3) 0.6750(3)
O32_3 O 0.2944(3) 0.1068(4) 0.4643(3)
O38_3 O 0.3142(4) 0.0058(4) 0.4644(3)
O40_2 O 0.3627(4) 0.2103(3) 0.8349(3)
Cu2_2 Cu 0.60849(8) 0.92859(9) 0.500000
O9_2 O 0.6030(4) 0.9808(4) 0.5352(3)
O11_2 O 0.6858(4) 0.9942(4) 0.5356(3)
O13_2 O 0.7802(3) 0.7730(4) 0.6690(3)
O14_2 O 0.6236(4) 0.8796(4) 0.5370(3)
O15_2 O 0.3786(3) 0.6430(4) 0.8244(3)
O16_2 O 0.5578(3) 0.6803(4) 0.8250(3)
O17_2 O 0.7056(3) 0.8932(4) 0.5357(3)
O18_2 O 0.5912(3) 0.7314(4) 0.7837(3)
O19_2 O 0.2397(4) 0.8989(4) 0.6253(3)
O24_2 O 0.2897(3) 0.8627(4) 0.6651(3)
C28_2 C 0.2816(4) 0.8885(5) 0.6375(4)
C29_2 C 0.7205(5) 0.8340(6) 0.5945(4)
H13_2 H 0.748731 0.846268 0.582607
C30_2 C 0.3716(5) 0.6666(4) 0.7958(5)
C31_2 C 0.3220(6) 0.9417(6) 0.5917(4)
H14_2 H 0.290317 0.955261 0.586714
C32_2 C 0.3603(6) 0.9985(6) 0.5464(4)
C33_2 C 0.6729(5) 0.8425(6) 0.5812(4)
C34_2 C 0.6675(6) 0.8752(6) 0.5488(4)
C35_2 C 0.3273(5) 0.9056(6) 0.6172(4)
C36_2 C 0.5555(5) 0.7074(7) 0.7976(4)
C37_2 C 0.7787(6) 0.7998(6) 0.6409(4)
C38_2 C 0.7267(5) 0.8075(6) 0.6252(4)
N7_2 N 0.5318(5) 0.8331(7) 0.6299(4)
C39_2 C 0.6848(6) 0.7921(6) 0.6433(4)
H15_2 H 0.688849 0.775266 0.664719
C40_2 C 0.3636(6) 0.9578(6) 0.5734(4)
C41_2 C 0.4174(5) 0.6909(6) 0.7796(4)
N8_2 N 0.4526(5) 0.8257(7) 0.6580(4)
N9_2 N 0.4422(5) 0.7753(7) 0.7053(4)
H16_2 H 0.411189 0.784382 0.702628
C42_2 C 0.4642(5) 0.6868(5) 0.7946(4)
H17_2 H 0.468368 0.668076 0.815205
N10_2 N 0.5216(5) 0.7789(7) 0.6796(4)
C43_2 C 0.5046(5) 0.7099(6) 0.7795(4)
C44_2 C 0.3732(6) 0.8860(7) 0.6250(5)
H18_2 H 0.376391 0.862755 0.643363
N11_2 N 0.5960(5) 0.7848(7) 0.6519(5)
H19_2 H 0.603606 0.761440 0.666768
C45_2 C 0.4110(6) 0.7197(8) 0.7502(5)
H20_2 H 0.379074 0.722700 0.740076
C46_2 C 0.4103(6) 0.9380(7) 0.5807(5)
H21_2 H 0.438676 0.949865 0.568809
C47_2 C 0.6365(6) 0.8008(7) 0.6307(5)
C48_2 C 0.4520(6) 0.7447(7) 0.7351(5)
C49_2 C 0.4996(6) 0.7395(6) 0.7503(5)
H22_2 H 0.527497 0.755876 0.740648
N12_2 N 0.4651(5) 0.8797(7) 0.6115(5)
H23_2 H 0.487952 0.892153 0.597881
C50_2 C 0.5464(6) 0.8001(8) 0.6531(5)
C51_2 C 0.6307(6) 0.8272(7) 0.5997(5)
H24_2 H 0.598481 0.834765 0.591254
C52_2 C 0.4152(6) 0.9001(8) 0.6060(5)
C53_2 C 0.4740(6) 0.7919(8) 0.6808(5)
C54_2 C 0.4826(8) 0.8443(9) 0.6344(6)
Cu7_2 Cu 0.70097(8) 0.94382(9) 0.500000
O26_2 O 0.7198(3) 0.7270(4) 0.8310(3)
O27_3 O 0.6236(4) 0.8796(4) 0.4630(3)
O29_2 O 0.1214(3) 0.8570(4) 0.6756(3)
O31_2 O 0.1803(4) 0.9422(3) 0.6750(3)
O35_3 O 0.6030(4) 0.9808(4) 0.4648(3)
O39_2 O 0.6373(4) 0.7897(3) 0.8349(3)
O27_4 O 0.3764(4) 0.1204(4) 0.4630(3)
O35_4 O 0.3970(4) 0.0192(4) 0.4648(3)
O32_4 O 0.7056(3) 0.8932(4) 0.4643(3)
O38_4 O 0.6858(4) 0.9942(4) 0.4644(3)
Cu1_3 Cu 0.55618(9) 0.20097(8) 0.000000
Cu3_2 Cu 0.76764(6) 0.15697(6) 0.30566(5)
O1_3 O 0.7270(4) 0.2802(3) 0.1690(3)
O2_3 O 0.6204(4) 0.1236(4) 0.0370(3)
O4_3 O 0.8197(4) 0.0578(3) 0.3250(3)
O5_3 O 0.6068(4) 0.2056(3) 0.0357(3)
O6_3 O 0.7686(4) 0.0912(3) 0.2837(3)
O8_2 O 0.6800(4) 0.3151(4) 0.1259(3)
C2_3 C 0.6660(6) 0.2205(5) 0.0945(4)
H1_3 H 0.653732 0.248731 0.082607
C6_3 C 0.6575(6) 0.1729(5) 0.0812(4)
C7_3 C 0.6248(6) 0.1675(6) 0.0488(4)
C9_3 C 0.7926(7) 0.0555(5) 0.2976(4)
C10_3 C 0.7002(6) 0.2787(6) 0.1409(4)
C11_3 C 0.6925(6) 0.2267(5) 0.1252(4)
N1_3 N 0.6669(7) 0.0318(5) 0.1299(4)
C12_3 C 0.7079(6) 0.1848(6) 0.1433(4)
H3_3 H 0.724734 0.188849 0.164719
N4_3 N 0.7211(7) 0.0216(5) 0.1796(4)
C16_3 C 0.7901(6) 0.0046(5) 0.2795(4)
N5_3 N 0.7152(7) 0.0960(5) 0.1519(5)
H7_3 H 0.738560 0.103606 0.166768
C20_3 C 0.6992(7) 0.1365(6) 0.1307(5)
H10_3 H 0.744124 0.027497 0.240648
C23_3 C 0.6999(8) 0.0464(6) 0.1531(5)
C24_3 C 0.6728(7) 0.1307(6) 0.0997(5)
H12_3 H 0.665235 0.098481 0.091254
Cu6_2 Cu 0.38059(6) 0.32236(6) 0.14820(5)
O15_3 O 0.1430(4) 0.1214(3) 0.3244(3)
O19_3 O 0.3989(4) 0.2603(4) 0.1253(3)
O21_3 O 0.5192(4) 0.1030(4) 0.0352(3)
O22_2 O 0.1747(4) 0.1709(3) 0.2816(3)
O23_3 O 0.5058(4) 0.1858(4) 0.0356(3)
O24_3 O 0.3627(4) 0.2103(3) 0.1651(3)
C28_3 C 0.3885(5) 0.2184(4) 0.1375(4)
C30_3 C 0.1666(4) 0.1284(5) 0.2958(5)
C31_3 C 0.4417(6) 0.1780(6) 0.0917(4)
H14_3 H 0.455261 0.209683 0.086714
C32_3 C 0.4985(6) 0.1397(6) 0.0464(4)
C35_3 C 0.4056(6) 0.1727(5) 0.1172(4)
C40_3 C 0.4578(6) 0.1364(6) 0.0734(4)
C41_3 C 0.1909(6) 0.0826(5) 0.2796(4)
N8_3 N 0.3257(7) 0.0474(5) 0.1580(4)
N9_3 N 0.2753(7) 0.0578(5) 0.2053(4)
H16_3 H 0.284382 0.088811 0.202628
C42_3 C 0.1868(5) 0.0358(5) 0.2946(4)
H17_3 H 0.168076 0.031632 0.315205
C44_3 C 0.3860(7) 0.1268(6) 0.1250(5)
H18_3 H 0.362755 0.123609 0.143363
C45_3 C 0.2197(8) 0.0890(6) 0.2502(5)
H20_3 H 0.222700 0.120926 0.240076
C46_3 C 0.4380(7) 0.0897(6) 0.0807(5)
H21_3 H 0.449865 0.061324 0.068809
C48_3 C 0.2447(7) 0.0480(6) 0.2351(5)
C49_3 C 0.2395(6) 0.0004(6) 0.2503(5)
N12_3 N 0.3797(7) 0.0349(5) 0.1115(5)
H23_3 H 0.392153 0.012048 0.097881
C52_3 C 0.4001(8) 0.0848(6) 0.1060(5)
C53_3 C 0.2919(8) 0.0260(6) 0.1808(5)
C54_3 C 0.3443(9) 0.0174(8) 0.1344(6)
Cu8_3 Cu 0.57141(9) 0.10849(8) 0.000000
Cu10_2 Cu 0.15697(6) 0.23236(6) 0.30566(5)
Cu11_2 Cu 0.73236(6) 0.34303(6) 0.19434(5)
Cu14_2 Cu 0.34303(6) 0.26764(6) 0.19434(5)
Cu16_2 Cu 0.67764(6) 0.38059(6) 0.14820(5)
Cu18_2 Cu 0.11941(6) 0.17764(6) 0.35180(5)
Cu20_2 Cu 0.82236(6) 0.11941(6) 0.35180(5)
O25_3 O 0.7730(4) 0.2198(3) 0.3310(3)
O29_3 O 0.3570(4) 0.3786(3) 0.1756(3)
O31_3 O 0.4422(3) 0.3197(4) 0.1750(3)
O34_2 O 0.3151(4) 0.3200(4) 0.1259(3)
O37_2 O 0.8291(3) 0.1747(4) 0.2816(3)
O40_3 O 0.7103(3) 0.1373(4) 0.3349(3)
Cu1_4 Cu 0.55618(9) 0.20097(8) 1.000000
Cu8_4 Cu 0.57141(9) 0.10849(8) 1.000000
O32_5 O 0.6068(4) 0.2056(3) 0.9643(3)
O38_5 O 0.5058(4) 0.1858(4) 0.9644(3)
Cu2_3 Cu 0.42859(9) 0.89151(8) 0.000000
Cu4_2 Cu 0.61941(6) 0.67764(6) 0.14820(5)
O3_3 O 0.8570(4) 0.8786(3) 0.3244(3)
O7_3 O 0.6011(4) 0.7397(4) 0.1253(3)
O9_3 O 0.4808(4) 0.8970(4) 0.0352(3)
O10_2 O 0.8253(4) 0.8291(3) 0.2816(3)
O11_3 O 0.4942(4) 0.8142(4) 0.0356(3)
O12_3 O 0.6373(4) 0.7897(3) 0.1651(3)
C1_3 C 0.6115(5) 0.7816(4) 0.1375(4)
C3_3 C 0.8334(4) 0.8716(5) 0.2958(5)
C4_3 C 0.5583(6) 0.8220(6) 0.0917(4)
H2_3 H 0.544739 0.790317 0.086714
C5_3 C 0.5015(6) 0.8603(6) 0.0464(4)
C8_3 C 0.5944(6) 0.8273(5) 0.1172(4)
C13_3 C 0.5422(6) 0.8636(6) 0.0734(4)
C14_3 C 0.8091(6) 0.9174(5) 0.2796(4)
N2_3 N 0.6743(7) 0.9526(5) 0.1580(4)
N3_3 N 0.7247(7) 0.9422(5) 0.2053(4)
H4_3 H 0.715618 0.911189 0.202628
C15_3 C 0.8132(5) 0.9642(5) 0.2946(4)
H5_3 H 0.831924 0.968368 0.315205
C17_3 C 0.6140(7) 0.8732(6) 0.1250(5)
H6_3 H 0.637245 0.876391 0.143363
C18_3 C 0.7803(8) 0.9110(6) 0.2502(5)
H8_3 H 0.777300 0.879074 0.240076
C19_3 C 0.5620(7) 0.9103(6) 0.0807(5)
H9_3 H 0.550135 0.938676 0.068809
C21_3 C 0.7553(7) 0.9520(6) 0.2351(5)
C22_3 C 0.7605(6) 0.9996(6) 0.2503(5)
N6_3 N 0.6203(7) 0.9651(5) 0.1115(5)
H11_3 H 0.607847 0.987952 0.097881
C25_3 C 0.5999(8) 0.9152(6) 0.1060(5)
C26_3 C 0.7081(8) 0.9740(6) 0.1808(5)
C27_3 C 0.6557(9) 0.9826(8) 0.1344(6)
Cu5_2 Cu 0.23236(6) 0.84303(6) 0.30566(5)
O13_3 O 0.2730(4) 0.7198(3) 0.1690(3)
O14_3 O 0.3796(4) 0.8764(4) 0.0370(3)
O16_3 O 0.1803(4) 0.9422(3) 0.3250(3)
O17_3 O 0.3932(4) 0.7944(3) 0.0357(3)
O18_3 O 0.2314(4) 0.9088(3) 0.2837(3)
O20_2 O 0.3200(4) 0.6849(4) 0.1259(3)
C29_3 C 0.3340(6) 0.7795(5) 0.0945(4)
H13_3 H 0.346268 0.751269 0.082607
C33_3 C 0.3425(6) 0.8271(5) 0.0812(4)
C34_3 C 0.3752(6) 0.8325(6) 0.0488(4)
C36_3 C 0.2074(7) 0.9445(5) 0.2976(4)
C37_3 C 0.2998(6) 0.7213(6) 0.1409(4)
C38_3 C 0.3075(6) 0.7733(5) 0.1252(4)
N7_3 N 0.3331(7) 0.9682(5) 0.1299(4)
C39_3 C 0.2921(6) 0.8152(6) 0.1433(4)
H15_3 H 0.275266 0.811151 0.164719
N10_3 N 0.2789(7) 0.9784(5) 0.1796(4)
C43_3 C 0.2099(6) 0.9954(5) 0.2795(4)
N11_3 N 0.2848(7) 0.9040(5) 0.1519(5)
H19_3 H 0.261440 0.896394 0.166768
C47_3 C 0.3008(7) 0.8635(6) 0.1307(5)
H22_3 H 0.255876 0.972503 0.240648
C50_3 C 0.3001(8) 0.9536(6) 0.1531(5)
C51_3 C 0.3272(7) 0.8693(6) 0.0997(5)
H24_3 H 0.334765 0.901519 0.091254
Cu7_3 Cu 0.44382(9) 0.79903(8) 0.000000
Cu9_2 Cu 0.84303(6) 0.76764(6) 0.30566(5)
Cu12_2 Cu 0.26764(6) 0.65697(6) 0.19434(5)
Cu13_2 Cu 0.65697(6) 0.73236(6) 0.19434(5)
Cu15_2 Cu 0.32236(6) 0.61941(6) 0.14820(5)
Cu17_2 Cu 0.88059(6) 0.82236(6) 0.35180(5)
Cu19_2 Cu 0.17764(6) 0.88059(6) 0.35180(5)
O26_3 O 0.2270(4) 0.7802(3) 0.3310(3)
O28_3 O 0.6430(4) 0.6214(3) 0.1756(3)
O30_3 O 0.5578(3) 0.6803(4) 0.1750(3)
O33_2 O 0.6849(4) 0.6800(4) 0.1259(3)
O36_2 O 0.1709(3) 0.8253(4) 0.2816(3)
O39_3 O 0.2897(3) 0.8627(4) 0.3349(3)
Cu2_4 Cu 0.42859(9) 0.89151(8) 1.000000
Cu7_4 Cu 0.44382(9) 0.79903(8) 1.000000
O27_5 O 0.3796(4) 0.8764(4) 0.9630(3)
O35_5 O 0.4808(4) 0.8970(4) 0.9648(3)
O27_6 O 0.6204(4) 0.1236(4) 0.9630(3)
O35_6 O 0.5192(4) 0.1030(4) 0.9648(3)
O32_6 O 0.3932(4) 0.7944(3) 0.9643(3)
O38_6 O 0.4942(4) 0.8142(4) 0.9644(3)
Cu2_5 Cu 0.10849(8) 0.42859(9) 0.000000
O3_4 O 0.1214(3) 0.8570(4) 0.3244(3)
O7_4 O 0.2603(4) 0.6011(4) 0.1253(3)
O9_4 O 0.1030(4) 0.4808(4) 0.0352(3)
O11_4 O 0.1858(4) 0.4942(4) 0.0356(3)
O12_4 O 0.2103(3) 0.6373(4) 0.1651(3)
C1_4 C 0.2184(4) 0.6115(5) 0.1375(4)
C3_4 C 0.1284(5) 0.8334(4) 0.2958(5)
C4_4 C 0.1780(6) 0.5583(6) 0.0917(4)
H2_4 H 0.209683 0.544739 0.086714
C5_4 C 0.1397(6) 0.5015(6) 0.0464(4)
C8_4 C 0.1727(5) 0.5944(6) 0.1172(4)
C13_4 C 0.1364(6) 0.5422(6) 0.0734(4)
C14_4 C 0.0826(5) 0.8091(6) 0.2796(4)
N2_4 N 0.0474(5) 0.6743(7) 0.1580(4)
N3_4 N 0.0578(5) 0.7247(7) 0.2053(4)
H4_4 H 0.088811 0.715618 0.202628
C15_4 C 0.0358(5) 0.8132(5) 0.2946(4)
H5_4 H 0.031632 0.831924 0.315205
C17_4 C 0.1268(6) 0.6140(7) 0.1250(5)
H6_4 H 0.123609 0.637245 0.143363
C18_4 C 0.0890(6) 0.7803(8) 0.2502(5)
H8_4 H 0.120926 0.777300 0.240076
C19_4 C 0.0897(6) 0.5620(7) 0.0807(5)
H9_4 H 0.061324 0.550135 0.068809
C21_4 C 0.0480(6) 0.7553(7) 0.2351(5)
C22_4 C 0.0004(6) 0.7605(6) 0.2503(5)
N6_4 N 0.0349(5) 0.6203(7) 0.1115(5)
H11_4 H 0.012048 0.607847 0.097881
C25_4 C 0.0848(6) 0.5999(8) 0.1060(5)
C26_4 C 0.0260(6) 0.7081(8) 0.1808(5)
C27_4 C 0.0174(8) 0.6557(9) 0.1344(6)
O13_4 O 0.2802(3) 0.2730(4) 0.1690(3)
O14_4 O 0.1236(4) 0.3796(4) 0.0370(3)
O16_4 O 0.0578(3) 0.1803(4) 0.3250(3)
O17_4 O 0.2056(3) 0.3932(4) 0.0357(3)
O18_4 O 0.0912(3) 0.2314(4) 0.2837(3)
C29_4 C 0.2205(5) 0.3340(6) 0.0945(4)
H13_4 H 0.248731 0.346268 0.082607
C33_4 C 0.1729(5) 0.3425(6) 0.0812(4)
C34_4 C 0.1675(6) 0.3752(6) 0.0488(4)
C36_4 C 0.0555(5) 0.2074(7) 0.2976(4)
C37_4 C 0.2787(6) 0.2998(6) 0.1409(4)
C38_4 C 0.2267(5) 0.3075(6) 0.1252(4)
N7_4 N 0.0318(5) 0.3331(7) 0.1299(4)
C39_4 C 0.1848(6) 0.2921(6) 0.1433(4)
H15_4 H 0.188849 0.275266 0.164719
N10_4 N 0.0216(5) 0.2789(7) 0.1796(4)
C43_4 C 0.0046(5) 0.2099(6) 0.2795(4)
N11_4 N 0.0960(5) 0.2848(7) 0.1519(5)
H19_4 H 0.103606 0.261440 0.166768
C47_4 C 0.1365(6) 0.3008(7) 0.1307(5)
H22_4 H 0.027497 0.255876 0.240648
C50_4 C 0.0464(6) 0.3001(8) 0.1531(5)
C51_4 C 0.1307(6) 0.3272(7) 0.0997(5)
H24_4 H 0.098481 0.334765 0.091254
Cu7_5 Cu 0.20097(8) 0.44382(9) 0.000000
O26_4 O 0.2198(3) 0.2270(4) 0.3310(3)
O28_4 O 0.3786(3) 0.6430(4) 0.1756(3)
O30_4 O 0.3197(4) 0.5578(3) 0.1750(3)
O39_4 O 0.1373(4) 0.2897(3) 0.3349(3)
Cu2_6 Cu 0.10849(8) 0.42859(9) 1.000000
Cu7_6 Cu 0.20097(8) 0.44382(9) 1.000000
O27_7 O 0.1236(4) 0.3796(4) 0.9630(3)
O35_7 O 0.1030(4) 0.4808(4) 0.9648(3)
Cu1_5 Cu 0.79903(8) 0.55618(9) 0.000000
O1_4 O 0.7198(3) 0.7270(4) 0.1690(3)
O2_4 O 0.8764(4) 0.6204(4) 0.0370(3)
O4_4 O 0.9422(3) 0.8197(4) 0.3250(3)
O5_4 O 0.7944(3) 0.6068(4) 0.0357(3)
O6_4 O 0.9088(3) 0.7686(4) 0.2837(3)
C2_4 C 0.7795(5) 0.6660(6) 0.0945(4)
H1_4 H 0.751269 0.653732 0.082607
C6_4 C 0.8271(5) 0.6575(6) 0.0812(4)
C7_4 C 0.8325(6) 0.6248(6) 0.0488(4)
C9_4 C 0.9445(5) 0.7926(7) 0.2976(4)
C10_4 C 0.7213(6) 0.7002(6) 0.1409(4)
C11_4 C 0.7733(5) 0.6925(6) 0.1252(4)
N1_4 N 0.9682(5) 0.6669(7) 0.1299(4)
C12_4 C 0.8152(6) 0.7079(6) 0.1433(4)
H3_4 H 0.811151 0.724734 0.164719
N4_4 N 0.9784(5) 0.7211(7) 0.1796(4)
C16_4 C 0.9954(5) 0.7901(6) 0.2795(4)
N5_4 N 0.9040(5) 0.7152(7) 0.1519(5)
H7_4 H 0.896394 0.738560 0.166768
C20_4 C 0.8635(6) 0.6992(7) 0.1307(5)
H10_4 H 0.972503 0.744124 0.240648
C23_4 C 0.9536(6) 0.6999(8) 0.1531(5)
C24_4 C 0.8693(6) 0.6728(7) 0.0997(5)
H12_4 H 0.901519 0.665235 0.091254
O15_4 O 0.8786(3) 0.1430(4) 0.3244(3)
O19_4 O 0.7397(4) 0.3989(4) 0.1253(3)
O21_4 O 0.8970(4) 0.5192(4) 0.0352(3)
O23_4 O 0.8142(4) 0.5058(4) 0.0356(3)
O24_4 O 0.7897(3) 0.3627(4) 0.1651(3)
C28_4 C 0.7816(4) 0.3885(5) 0.1375(4)
C30_4 C 0.8716(5) 0.1666(4) 0.2958(5)
C31_4 C 0.8220(6) 0.4417(6) 0.0917(4)
H14_4 H 0.790317 0.455261 0.086714
C32_4 C 0.8603(6) 0.4985(6) 0.0464(4)
C35_4 C 0.8273(5) 0.4056(6) 0.1172(4)
C40_4 C 0.8636(6) 0.4578(6) 0.0734(4)
C41_4 C 0.9174(5) 0.1909(6) 0.2796(4)
N8_4 N 0.9526(5) 0.3257(7) 0.1580(4)
N9_4 N 0.9422(5) 0.2753(7) 0.2053(4)
H16_4 H 0.911189 0.284382 0.202628
C42_4 C 0.9642(5) 0.1868(5) 0.2946(4)
H17_4 H 0.968368 0.168076 0.315205
C44_4 C 0.8732(6) 0.3860(7) 0.1250(5)
H18_4 H 0.876391 0.362755 0.143363
C45_4 C 0.9110(6) 0.2197(8) 0.2502(5)
H20_4 H 0.879074 0.222700 0.240076
C46_4 C 0.9103(6) 0.4380(7) 0.0807(5)
H21_4 H 0.938676 0.449865 0.068809
C48_4 C 0.9520(6) 0.2447(7) 0.2351(5)
C49_4 C 0.9996(6) 0.2395(6) 0.2503(5)
N12_4 N 0.9651(5) 0.3797(7) 0.1115(5)
H23_4 H 0.987952 0.392153 0.097881
C52_4 C 0.9152(6) 0.4001(8) 0.1060(5)
C53_4 C 0.9740(6) 0.2919(8) 0.1808(5)
C54_4 C 0.9826(8) 0.3443(9) 0.1344(6)
Cu8_5 Cu 0.89151(8) 0.57141(9) 0.000000
O25_4 O 0.7802(3) 0.7730(4) 0.3310(3)
O29_4 O 0.6214(3) 0.3570(4) 0.1756(3)
O31_4 O 0.6803(4) 0.4422(3) 0.1750(3)
O40_4 O 0.8627(4) 0.7103(3) 0.3349(3)
Cu1_6 Cu 0.79903(8) 0.55618(9) 1.000000
Cu8_6 Cu 0.89151(8) 0.57141(9) 1.000000
O32_7 O 0.7944(3) 0.6068(4) 0.9643(3)
O38_7 O 0.8142(4) 0.5058(4) 0.9644(3)
O32_8 O 0.2056(3) 0.3932(4) 0.9643(3)
O38_8 O 0.1858(4) 0.4942(4) 0.9644(3)
O27_8 O 0.8764(4) 0.6204(4) 0.9630(3)
O35_8 O 0.8970(4) 0.5192(4) 0.9648(3)
O18_5 O 0.2686(4) 0.5912(3) 0.2163(3)
O19_5 O 0.1011(4) 0.2397(4) 0.3747(3)
O20_3 O 0.1800(4) 0.8151(4) 0.3741(3)
O22_3 O 0.3253(4) 0.3291(3) 0.2184(3)
C28_5 C 0.1115(5) 0.2816(4) 0.3625(4)
C29_5 C 0.1660(6) 0.7205(5) 0.4055(4)
H13_5 H 0.153732 0.748731 0.417393
C30_5 C 0.3334(4) 0.3716(5) 0.2042(5)
C31_5 C 0.0583(6) 0.3220(6) 0.4083(4)
H14_5 H 0.044739 0.290317 0.413286
C32_5 C 0.0015(6) 0.3603(6) 0.4536(4)
C33_5 C 0.1575(6) 0.6729(5) 0.4188(4)
C34_5 C 0.1248(6) 0.6675(6) 0.4512(4)
C35_5 C 0.0944(6) 0.3273(5) 0.3828(4)
C36_5 C 0.2926(7) 0.5555(5) 0.2024(4)
C37_5 C 0.2002(6) 0.7787(6) 0.3591(4)
C38_5 C 0.1925(6) 0.7267(5) 0.3748(4)
N7_5 N 0.1669(7) 0.5318(5) 0.3701(4)
C39_5 C 0.2079(6) 0.6848(6) 0.3567(4)
H15_5 H 0.224734 0.688849 0.335281
C40_5 C 0.0422(6) 0.3636(6) 0.4266(4)
C41_5 C 0.3091(6) 0.4174(5) 0.2204(4)
N8_5 N 0.1743(7) 0.4526(5) 0.3420(4)
N9_5 N 0.2247(7) 0.4422(5) 0.2947(4)
H16_5 H 0.215618 0.411189 0.297372
C42_5 C 0.3132(5) 0.4642(5) 0.2054(4)
H17_5 H 0.331924 0.468368 0.184795
N10_5 N 0.2211(7) 0.5216(5) 0.3204(4)
C43_5 C 0.2901(6) 0.5046(5) 0.2205(4)
C44_5 C 0.1140(7) 0.3732(6) 0.3750(5)
H18_5 H 0.137245 0.376391 0.356637
N11_5 N 0.2152(7) 0.5960(5) 0.3481(5)
H19_5 H 0.238560 0.603606 0.333232
C45_5 C 0.2803(8) 0.4110(6) 0.2498(5)
H20_5 H 0.277300 0.379074 0.259924
C46_5 C 0.0620(7) 0.4103(6) 0.4193(5)
H21_5 H 0.050135 0.438676 0.431191
C47_5 C 0.1992(7) 0.6365(6) 0.3693(5)
C48_5 C 0.2553(7) 0.4520(6) 0.2649(5)
C49_5 C 0.2605(6) 0.4996(6) 0.2497(5)
H22_5 H 0.244124 0.527497 0.259352
N12_5 N 0.1203(7) 0.4651(5) 0.3885(5)
H23_5 H 0.107847 0.487952 0.402119
C50_5 C 0.1999(8) 0.5464(6) 0.3469(5)
C51_5 C 0.1728(7) 0.6307(6) 0.4003(5)
H24_5 H 0.165235 0.598481 0.408746
C52_5 C 0.0999(8) 0.4152(6) 0.3940(5)
C53_5 C 0.2081(8) 0.4740(6) 0.3192(5)
C54_5 C 0.1557(9) 0.4826(8) 0.3656(6)
O34_3 O 0.1849(4) 0.1800(4) 0.3741(3)
O36_3 O 0.3291(3) 0.6747(4) 0.2184(3)
O6_5 O 0.7314(4) 0.4088(3) 0.2163(3)
O7_5 O 0.8989(4) 0.7603(4) 0.3747(3)
O8_3 O 0.8200(4) 0.1849(4) 0.3741(3)
O10_3 O 0.6747(4) 0.6709(3) 0.2184(3)
C1_5 C 0.8885(5) 0.7184(4) 0.3625(4)
C2_5 C 0.8340(6) 0.2795(5) 0.4055(4)
H1_5 H 0.846268 0.251269 0.417393
C3_5 C 0.6666(4) 0.6284(5) 0.2042(5)
C4_5 C 0.9417(6) 0.6780(6) 0.4083(4)
H2_5 H 0.955261 0.709683 0.413286
C5_5 C 0.9985(6) 0.6397(6) 0.4536(4)
C6_5 C 0.8425(6) 0.3271(5) 0.4188(4)
C7_5 C 0.8752(6) 0.3325(6) 0.4512(4)
C8_5 C 0.9056(6) 0.6727(5) 0.3828(4)
C9_5 C 0.7074(7) 0.4445(5) 0.2024(4)
C10_5 C 0.7998(6) 0.2213(6) 0.3591(4)
C11_5 C 0.8075(6) 0.2733(5) 0.3748(4)
N1_5 N 0.8331(7) 0.4682(5) 0.3701(4)
C12_5 C 0.7921(6) 0.3152(6) 0.3567(4)
H3_5 H 0.775266 0.311151 0.335281
C13_5 C 0.9578(6) 0.6364(6) 0.4266(4)
C14_5 C 0.6909(6) 0.5826(5) 0.2204(4)
N2_5 N 0.8257(7) 0.5474(5) 0.3420(4)
N3_5 N 0.7753(7) 0.5578(5) 0.2947(4)
H4_5 H 0.784382 0.588811 0.297372
C15_5 C 0.6868(5) 0.5358(5) 0.2054(4)
H5_5 H 0.668076 0.531632 0.184795
N4_5 N 0.7789(7) 0.4784(5) 0.3204(4)
C16_5 C 0.7099(6) 0.4954(5) 0.2205(4)
C17_5 C 0.8860(7) 0.6268(6) 0.3750(5)
H6_5 H 0.862755 0.623609 0.356637
N5_5 N 0.7848(7) 0.4040(5) 0.3481(5)
H7_5 H 0.761440 0.396394 0.333232
C18_5 C 0.7197(8) 0.5890(6) 0.2498(5)
H8_5 H 0.722700 0.620926 0.259924
C19_5 C 0.9380(7) 0.5897(6) 0.4193(5)
H9_5 H 0.949865 0.561324 0.431191
C20_5 C 0.8008(7) 0.3635(6) 0.3693(5)
C21_5 C 0.7447(7) 0.5480(6) 0.2649(5)
C22_5 C 0.7395(6) 0.5004(6) 0.2497(5)
H10_5 H 0.755876 0.472503 0.259352
N6_5 N 0.8797(7) 0.5349(5) 0.3885(5)
H11_5 H 0.892153 0.512048 0.402119
C23_5 C 0.8001(8) 0.4536(6) 0.3469(5)
C24_5 C 0.8272(7) 0.3693(6) 0.4003(5)
H12_5 H 0.834765 0.401519 0.408746
C25_5 C 0.9001(8) 0.5848(6) 0.3940(5)
C26_5 C 0.7919(8) 0.5260(6) 0.3192(5)
C27_5 C 0.8443(9) 0.5174(8) 0.3656(6)
O33_3 O 0.8151(4) 0.8200(4) 0.3741(3)
O37_3 O 0.6709(3) 0.3253(4) 0.2184(3)
O18_6 O 0.4088(3) 0.2686(4) 0.2163(3)
O19_6 O 0.7603(4) 0.1011(4) 0.3747(3)
C28_6 C 0.7184(4) 0.1115(5) 0.3625(4)
C29_6 C 0.2795(5) 0.1660(6) 0.4055(4)
H13_6 H 0.251269 0.153732 0.417393
C30_6 C 0.6284(5) 0.3334(4) 0.2042(5)
C31_6 C 0.6780(6) 0.0583(6) 0.4083(4)
H14_6 H 0.709683 0.044739 0.413286
C32_6 C 0.6397(6) 0.0015(6) 0.4536(4)
C33_6 C 0.3271(5) 0.1575(6) 0.4188(4)
C34_6 C 0.3325(6) 0.1248(6) 0.4512(4)
C35_6 C 0.6727(5) 0.0944(6) 0.3828(4)
C36_6 C 0.4445(5) 0.2926(7) 0.2024(4)
C37_6 C 0.2213(6) 0.2002(6) 0.3591(4)
C38_6 C 0.2733(5) 0.1925(6) 0.3748(4)
N7_6 N 0.4682(5) 0.1669(7) 0.3701(4)
C39_6 C 0.3152(6) 0.2079(6) 0.3567(4)
H15_6 H 0.311151 0.224734 0.335281
C40_6 C 0.6364(6) 0.0422(6) 0.4266(4)
C41_6 C 0.5826(5) 0.3091(6) 0.2204(4)
N8_6 N 0.5474(5) 0.1743(7) 0.3420(4)
N9_6 N 0.5578(5) 0.2247(7) 0.2947(4)
H16_6 H 0.588811 0.215618 0.297372
C42_6 C 0.5358(5) 0.3132(5) 0.2054(4)
H17_6 H 0.531632 0.331924 0.184795
N10_6 N 0.4784(5) 0.2211(7) 0.3204(4)
C43_6 C 0.4954(5) 0.2901(6) 0.2205(4)
C44_6 C 0.6268(6) 0.1140(7) 0.3750(5)
H18_6 H 0.623609 0.137245 0.356637
N11_6 N 0.4040(5) 0.2152(7) 0.3481(5)
H19_6 H 0.396394 0.238560 0.333232
C45_6 C 0.5890(6) 0.2803(8) 0.2498(5)
H20_6 H 0.620926 0.277300 0.259924
C46_6 C 0.5897(6) 0.0620(7) 0.4193(5)
H21_6 H 0.561324 0.050135 0.431191
C47_6 C 0.3635(6) 0.1992(7) 0.3693(5)
C48_6 C 0.5480(6) 0.2553(7) 0.2649(5)
C49_6 C 0.5004(6) 0.2605(6) 0.2497(5)
H22_6 H 0.472503 0.244124 0.259352
N12_6 N 0.5349(5) 0.1203(7) 0.3885(5)
H23_6 H 0.512048 0.107847 0.402119
C50_6 C 0.4536(6) 0.1999(8) 0.3469(5)
C51_6 C 0.3693(6) 0.1728(7) 0.4003(5)
H24_6 H 0.401519 0.165235 0.408746
C52_6 C 0.5848(6) 0.0999(8) 0.3940(5)
C53_6 C 0.5260(6) 0.2081(8) 0.3192(5)
C54_6 C 0.5174(8) 0.1557(9) 0.3656(6)
O6_6 O 0.5912(3) 0.7314(4) 0.2163(3)
O7_6 O 0.2397(4) 0.8989(4) 0.3747(3)
C1_6 C 0.2816(4) 0.8885(5) 0.3625(4)
C2_6 C 0.7205(5) 0.8340(6) 0.4055(4)
H1_6 H 0.748731 0.846268 0.417393
C3_6 C 0.3716(5) 0.6666(4) 0.2042(5)
C4_6 C 0.3220(6) 0.9417(6) 0.4083(4)
H2_6 H 0.290317 0.955261 0.413286
C5_6 C 0.3603(6) 0.9985(6) 0.4536(4)
C6_6 C 0.6729(5) 0.8425(6) 0.4188(4)
C7_6 C 0.6675(6) 0.8752(6) 0.4512(4)
C8_6 C 0.3273(5) 0.9056(6) 0.3828(4)
C9_6 C 0.5555(5) 0.7074(7) 0.2024(4)
C10_6 C 0.7787(6) 0.7998(6) 0.3591(4)
C11_6 C 0.7267(5) 0.8075(6) 0.3748(4)
N1_6 N 0.5318(5) 0.8331(7) 0.3701(4)
C12_6 C 0.6848(6) 0.7921(6) 0.3567(4)
H3_6 H 0.688849 0.775266 0.335281
C13_6 C 0.3636(6) 0.9578(6) 0.4266(4)
C14_6 C 0.4174(5) 0.6909(6) 0.2204(4)
N2_6 N 0.4526(5) 0.8257(7) 0.3420(4)
N3_6 N 0.4422(5) 0.7753(7) 0.2947(4)
H4_6 H 0.411189 0.784382 0.297372
C15_6 C 0.4642(5) 0.6868(5) 0.2054(4)
H5_6 H 0.468368 0.668076 0.184795
N4_6 N 0.5216(5) 0.7789(7) 0.3204(4)
C16_6 C 0.5046(5) 0.7099(6) 0.2205(4)
C17_6 C 0.3732(6) 0.8860(7) 0.3750(5)
H6_6 H 0.376391 0.862755 0.356637
N5_6 N 0.5960(5) 0.7848(7) 0.3481(5)
H7_6 H 0.603606 0.761440 0.333232
C18_6 C 0.4110(6) 0.7197(8) 0.2498(5)
H8_6 H 0.379074 0.722700 0.259924
C19_6 C 0.4103(6) 0.9380(7) 0.4193(5)
H9_6 H 0.438676 0.949865 0.431191
C20_6 C 0.6365(6) 0.8008(7) 0.3693(5)
C21_6 C 0.4520(6) 0.7447(7) 0.2649(5)
C22_6 C 0.4996(6) 0.7395(6) 0.2497(5)
H10_6 H 0.527497 0.755876 0.259352
N6_6 N 0.4651(5) 0.8797(7) 0.3885(5)
H11_6 H 0.487952 0.892153 0.402119
C23_6 C 0.5464(6) 0.8001(8) 0.3469(5)
C24_6 C 0.6307(6) 0.8272(7) 0.4003(5)
H12_6 H 0.598481 0.834765 0.408746
C25_6 C 0.4152(6) 0.9001(8) 0.3940(5)
C26_6 C 0.4740(6) 0.7919(8) 0.3192(5)
C27_6 C 0.4826(8) 0.8443(9) 0.3656(6)
O7_7 O 0.3989(4) 0.2603(4) 0.8747(3)
O10_4 O 0.1747(4) 0.1709(3) 0.7184(3)
C1_7 C 0.3885(5) 0.2184(4) 0.8625(4)
C3_7 C 0.1666(4) 0.1284(5) 0.7042(5)
C4_7 C 0.4417(6) 0.1780(6) 0.9083(4)
H2_7 H 0.455261 0.209683 0.913286
C5_7 C 0.4985(6) 0.1397(6) 0.9536(4)
C8_7 C 0.4056(6) 0.1727(5) 0.8828(4)
C13_7 C 0.4578(6) 0.1364(6) 0.9266(4)
C14_7 C 0.1909(6) 0.0826(5) 0.7204(4)
N2_7 N 0.3257(7) 0.0474(5) 0.8420(4)
N3_7 N 0.2753(7) 0.0578(5) 0.7947(4)
H4_7 H 0.284382 0.088811 0.797372
C15_7 C 0.1868(5) 0.0358(5) 0.7054(4)
H5_7 H 0.168076 0.031632 0.684795
C17_7 C 0.3860(7) 0.1268(6) 0.8750(5)
H6_7 H 0.362755 0.123609 0.856637
C18_7 C 0.2197(8) 0.0890(6) 0.7498(5)
H8_7 H 0.222700 0.120926 0.759924
C19_7 C 0.4380(7) 0.0897(6) 0.9193(5)
H9_7 H 0.449865 0.061324 0.931191
C21_7 C 0.2447(7) 0.0480(6) 0.7649(5)
C22_7 C 0.2395(6) 0.0004(6) 0.7497(5)
N6_7 N 0.3797(7) 0.0349(5) 0.8885(5)
H11_7 H 0.392153 0.012048 0.902119
C25_7 C 0.4001(8) 0.0848(6) 0.8940(5)
C26_7 C 0.2919(8) 0.0260(6) 0.8192(5)
C27_7 C 0.3443(9) 0.0174(8) 0.8656(6)
O18_7 O 0.7686(4) 0.0912(3) 0.7163(3)
O20_4 O 0.6800(4) 0.3151(4) 0.8741(3)
C29_7 C 0.6660(6) 0.2205(5) 0.9055(4)
H13_7 H 0.653732 0.248731 0.917393
C33_7 C 0.6575(6) 0.1729(5) 0.9188(4)
C34_7 C 0.6248(6) 0.1675(6) 0.9512(4)
C36_7 C 0.7926(7) 0.0555(5) 0.7024(4)
C37_7 C 0.7002(6) 0.2787(6) 0.8591(4)
C38_7 C 0.6925(6) 0.2267(5) 0.8748(4)
N7_7 N 0.6669(7) 0.0318(5) 0.8701(4)
C39_7 C 0.7079(6) 0.1848(6) 0.8567(4)
H15_7 H 0.724734 0.188849 0.835281
N10_7 N 0.7211(7) 0.0216(5) 0.8204(4)
C43_7 C 0.7901(6) 0.0046(5) 0.7205(4)
N11_7 N 0.7152(7) 0.0960(5) 0.8481(5)
H19_7 H 0.738560 0.103606 0.833232
C47_7 C 0.6992(7) 0.1365(6) 0.8693(5)
H22_7 H 0.744124 0.027497 0.759352
C50_7 C 0.6999(8) 0.0464(6) 0.8469(5)
C51_7 C 0.6728(7) 0.1307(6) 0.9003(5)
H24_7 H 0.665235 0.098481 0.908746
O33_4 O 0.3151(4) 0.3200(4) 0.8741(3)
O36_4 O 0.8291(3) 0.1747(4) 0.7184(3)
O6_7 O 0.2314(4) 0.9088(3) 0.7163(3)
O8_4 O 0.3200(4) 0.6849(4) 0.8741(3)
C2_7 C 0.3340(6) 0.7795(5) 0.9055(4)
H1_7 H 0.346268 0.751269 0.917393
C6_7 C 0.3425(6) 0.8271(5) 0.9188(4)
C7_7 C 0.3752(6) 0.8325(6) 0.9512(4)
C9_7 C 0.2074(7) 0.9445(5) 0.7024(4)
C10_7 C 0.2998(6) 0.7213(6) 0.8591(4)
C11_7 C 0.3075(6) 0.7733(5) 0.8748(4)
N1_7 N 0.3331(7) 0.9682(5) 0.8701(4)
C12_7 C 0.2921(6) 0.8152(6) 0.8567(4)
H3_7 H 0.275266 0.811151 0.835281
N4_7 N 0.2789(7) 0.9784(5) 0.8204(4)
C16_7 C 0.2099(6) 0.9954(5) 0.7205(4)
N5_7 N 0.2848(7) 0.9040(5) 0.8481(5)
H7_7 H 0.261440 0.896394 0.833232
C20_7 C 0.3008(7) 0.8635(6) 0.8693(5)
H10_7 H 0.255876 0.972503 0.759352
C23_7 C 0.3001(8) 0.9536(6) 0.8469(5)
C24_7 C 0.3272(7) 0.8693(6) 0.9003(5)
H12_7 H 0.334765 0.901519 0.908746
O19_7 O 0.6011(4) 0.7397(4) 0.8747(3)
O22_4 O 0.8253(4) 0.8291(3) 0.7184(3)
C28_7 C 0.6115(5) 0.7816(4) 0.8625(4)
C30_7 C 0.8334(4) 0.8716(5) 0.7042(5)
C31_7 C 0.5583(6) 0.8220(6) 0.9083(4)
H14_7 H 0.544739 0.790317 0.913286
C32_7 C 0.5015(6) 0.8603(6) 0.9536(4)
C35_7 C 0.5944(6) 0.8273(5) 0.8828(4)
C40_7 C 0.5422(6) 0.8636(6) 0.9266(4)
C41_7 C 0.8091(6) 0.9174(5) 0.7204(4)
N8_7 N 0.6743(7) 0.9526(5) 0.8420(4)
N9_7 N 0.7247(7) 0.9422(5) 0.7947(4)
H16_7 H 0.715618 0.911189 0.797372
C42_7 C 0.8132(5) 0.9642(5) 0.7054(4)
H17_7 H 0.831924 0.968368 0.684795
C44_7 C 0.6140(7) 0.8732(6) 0.8750(5)
H18_7 H 0.637245 0.876391 0.856637
C45_7 C 0.7803(8) 0.9110(6) 0.7498(5)
H20_7 H 0.777300 0.879074 0.759924
C46_7 C 0.5620(7) 0.9103(6) 0.9193(5)
H21_7 H 0.550135 0.938676 0.931191
C48_7 C 0.7553(7) 0.9520(6) 0.7649(5)
C49_7 C 0.7605(6) 0.9996(6) 0.7497(5)
N12_7 N 0.6203(7) 0.9651(5) 0.8885(5)
H23_7 H 0.607847 0.987952 0.902119
C52_7 C 0.5999(8) 0.9152(6) 0.8940(5)
C53_7 C 0.7081(8) 0.9740(6) 0.8192(5)
C54_7 C 0.6557(9) 0.9826(8) 0.8656(6)
O34_4 O 0.6849(4) 0.6800(4) 0.8741(3)
O37_4 O 0.1709(3) 0.8253(4) 0.7184(3)
O6_8 O 0.0912(3) 0.2314(4) 0.7163(3)
C2_8 C 0.2205(5) 0.3340(6) 0.9055(4)
H1_8 H 0.248731 0.346268 0.917393
C6_8 C 0.1729(5) 0.3425(6) 0.9188(4)
C7_8 C 0.1675(6) 0.3752(6) 0.9512(4)
C9_8 C 0.0555(5) 0.2074(7) 0.7024(4)
C10_8 C 0.2787(6) 0.2998(6) 0.8591(4)
C11_8 C 0.2267(5) 0.3075(6) 0.8748(4)
N1_8 N 0.0318(5) 0.3331(7) 0.8701(4)
C12_8 C 0.1848(6) 0.2921(6) 0.8567(4)
H3_8 H 0.188849 0.275266 0.835281
N4_8 N 0.0216(5) 0.2789(7) 0.8204(4)
C16_8 C 0.0046(5) 0.2099(6) 0.7205(4)
N5_8 N 0.0960(5) 0.2848(7) 0.8481(5)
H7_8 H 0.103606 0.261440 0.833232
C20_8 C 0.1365(6) 0.3008(7) 0.8693(5)
H10_8 H 0.027497 0.255876 0.759352
C23_8 C 0.0464(6) 0.3001(8) 0.8469(5)
C24_8 C 0.1307(6) 0.3272(7) 0.9003(5)
H12_8 H 0.098481 0.334765 0.908746
O19_8 O 0.2603(4) 0.6011(4) 0.8747(3)
C28_8 C 0.2184(4) 0.6115(5) 0.8625(4)
C30_8 C 0.1284(5) 0.8334(4) 0.7042(5)
C31_8 C 0.1780(6) 0.5583(6) 0.9083(4)
H14_8 H 0.209683 0.544739 0.913286
C32_8 C 0.1397(6) 0.5015(6) 0.9536(4)
C35_8 C 0.1727(5) 0.5944(6) 0.8828(4)
C40_8 C 0.1364(6) 0.5422(6) 0.9266(4)
C41_8 C 0.0826(5) 0.8091(6) 0.7204(4)
N8_8 N 0.0474(5) 0.6743(7) 0.8420(4)
N9_8 N 0.0578(5) 0.7247(7) 0.7947(4)
H16_8 H 0.088811 0.715618 0.797372
C42_8 C 0.0358(5) 0.8132(5) 0.7054(4)
H17_8 H 0.031632 0.831924 0.684795
C44_8 C 0.1268(6) 0.6140(7) 0.8750(5)
H18_8 H 0.123609 0.637245 0.856637
C45_8 C 0.0890(6) 0.7803(8) 0.7498(5)
H20_8 H 0.120926 0.777300 0.759924
C46_8 C 0.0897(6) 0.5620(7) 0.9193(5)
H21_8 H 0.061324 0.550135 0.931191
C48_8 C 0.0480(6) 0.7553(7) 0.7649(5)
C49_8 C 0.0004(6) 0.7605(6) 0.7497(5)
N12_8 N 0.0349(5) 0.6203(7) 0.8885(5)
H23_8 H 0.012048 0.607847 0.902119
C52_8 C 0.0848(6) 0.5999(8) 0.8940(5)
C53_8 C 0.0260(6) 0.7081(8) 0.8192(5)
C54_8 C 0.0174(8) 0.6557(9) 0.8656(6)
O7_8 O 0.7397(4) 0.3989(4) 0.8747(3)
C1_8 C 0.7816(4) 0.3885(5) 0.8625(4)
C3_8 C 0.8716(5) 0.1666(4) 0.7042(5)
C4_8 C 0.8220(6) 0.4417(6) 0.9083(4)
H2_8 H 0.790317 0.455261 0.913286
C5_8 C 0.8603(6) 0.4985(6) 0.9536(4)
C8_8 C 0.8273(5) 0.4056(6) 0.8828(4)
C13_8 C 0.8636(6) 0.4578(6) 0.9266(4)
C14_8 C 0.9174(5) 0.1909(6) 0.7204(4)
N2_8 N 0.9526(5) 0.3257(7) 0.8420(4)
N3_8 N 0.9422(5) 0.2753(7) 0.7947(4)
H4_8 H 0.911189 0.284382 0.797372
C15_8 C 0.9642(5) 0.1868(5) 0.7054(4)
H5_8 H 0.968368 0.168076 0.684795
C17_8 C 0.8732(6) 0.3860(7) 0.8750(5)
H6_8 H 0.876391 0.362755 0.856637
C18_8 C 0.9110(6) 0.2197(8) 0.7498(5)
H8_8 H 0.879074 0.222700 0.759924
C19_8 C 0.9103(6) 0.4380(7) 0.9193(5)
H9_8 H 0.938676 0.449865 0.931191
C21_8 C 0.9520(6) 0.2447(7) 0.7649(5)
C22_8 C 0.9996(6) 0.2395(6) 0.7497(5)
N6_8 N 0.9651(5) 0.3797(7) 0.8885(5)
H11_8 H 0.987952 0.392153 0.902119
C25_8 C 0.9152(6) 0.4001(8) 0.8940(5)
C26_8 C 0.9740(6) 0.2919(8) 0.8192(5)
C27_8 C 0.9826(8) 0.3443(9) 0.8656(6)
O18_8 O 0.9088(3) 0.7686(4) 0.7163(3)
C29_8 C 0.7795(5) 0.6660(6) 0.9055(4)
H13_8 H 0.751269 0.653732 0.917393
C33_8 C 0.8271(5) 0.6575(6) 0.9188(4)
C34_8 C 0.8325(6) 0.6248(6) 0.9512(4)
C36_8 C 0.9445(5) 0.7926(7) 0.7024(4)
C37_8 C 0.7213(6) 0.7002(6) 0.8591(4)
C38_8 C 0.7733(5) 0.6925(6) 0.8748(4)
N7_8 N 0.9682(5) 0.6669(7) 0.8701(4)
C39_8 C 0.8152(6) 0.7079(6) 0.8567(4)
H15_8 H 0.811151 0.724734 0.835281
N10_8 N 0.9784(5) 0.7211(7) 0.8204(4)
C43_8 C 0.9954(5) 0.7901(6) 0.7205(4)
N11_8 N 0.9040(5) 0.7152(7) 0.8481(5)
H19_8 H 0.896394 0.738560 0.833232
C47_8 C 0.8635(6) 0.6992(7) 0.8693(5)
H22_8 H 0.972503 0.744124 0.759352
C50_8 C 0.9536(6) 0.6999(8) 0.8469(5)
C51_8 C 0.8693(6) 0.6728(7) 0.9003(5)
H24_8 H 0.901519 0.665235 0.908746
loop_
_geom_bond_atom_site_label_1
_geom_bond_atom_site_label_2
_geom_bond_site_symmetry_1
_geom_bond_site_symmetry_2
Cu1 O5 1_555 1_555
Cu3 O6 1_555 1_555
Cu4 O7 1_555 1_555
O1 C10 1_555 1_555
O2 C7 1_555 1_555
O3 C3 1_555 1_555
O4 C9 1_555 1_555
O5 C7 1_555 1_555
O6 C9 1_555 1_555
O7 C1 1_555 1_555
O8 C10 1_555 1_555
O10 C3 1_555 1_555
O12 C1 1_555 1_555
C1 C8 1_555 1_555
C2 H1 1_555 1_555
C3 C14 1_555 1_555
C4 H2 1_555 1_555
C5 C13 1_555 1_555
C6 C2 1_555 1_555
C7 C6 1_555 1_555
C8 C4 1_555 1_555
C9 C16 1_555 1_555
C10 C11 1_555 1_555
C11 C2 1_555 1_555
N1 C23 1_555 1_555
C12 C11 1_555 1_555
H3 C12 1_555 1_555
C13 C4 1_555 1_555
C14 C15 1_555 1_555
N2 C26 1_555 1_555
N3 H4 1_555 1_555
C15 H5 1_555 1_555
N4 C23 1_555 1_555
C16 C15 1_555 1_555
C17 C8 1_555 1_555
H6 C17 1_555 1_555
N5 H7 1_555 1_555
C18 C14 1_555 1_555
H8 C18 1_555 1_555
C19 C13 1_555 1_555
H9 C19 1_555 1_555
C20 C12 1_555 1_555
C21 N3 1_555 1_555
C22 C16 1_555 1_555
H10 C22 1_555 1_555
N6 H11 1_555 1_555
C23 N5 1_555 1_555
C24 C6 1_555 1_555
H12 C24 1_555 1_555
C25 C17 1_555 1_555
C26 N3 1_555 1_555
C27 N1 1_555 1_555
O23 Cu1 1_555 1_555
Cu8 Cu1 1_555 1_555
Cu9 O10 1_555 1_555
Cu11 O1 1_555 1_555
Cu13 Cu4 1_555 1_555
Cu16 O8 1_555 1_555
Cu17 O3 1_555 1_555
Cu20 Cu3 1_555 1_555
O25 Cu3 1_555 1_555
O28 Cu4 1_555 1_555
O30 Cu4 1_555 1_555
O32 Cu1 1_555 1_555
O33 Cu4 1_555 1_555
O37 Cu3 1_555 1_555
O38 Cu1 1_555 1_555
O40 Cu3 1_555 1_555
O2 Cu8 1_555 1_555
O4 Cu20 1_555 1_555
O12 Cu13 1_555 1_555
N2 C27 1_555 1_555
N4 C26 1_555 1_555
N5 C20 1_555 1_555
C18 C21 1_555 1_555
C19 C25 1_555 1_555
C20 C24 1_555 1_555
C21 C22 1_555 1_555
N6 C25 1_555 1_555
N6 C27 1_555 1_555
O21 Cu8 1_555 1_555
Cu9 Cu17 1_555 1_555
Cu11 Cu16 1_555 1_555
Cu2 O9 1_555 1_555
Cu5 O18 1_555 1_555
Cu6 O19 1_555 1_555
O13 C37 1_555 1_555
O14 Cu2 1_555 1_555
O15 C30 1_555 1_555
O16 C36 1_555 1_555
O17 C34 1_555 1_555
O18 C36 1_555 1_555
O19 C28 1_555 1_555
O20 C37 1_555 1_555
O22 C30 1_555 1_555
O24 C28 1_555 1_555
C28 C35 1_555 1_555
C29 H13 1_555 1_555
C30 C41 1_555 1_555
C31 H14 1_555 1_555
C33 C29 1_555 1_555
C34 O14 1_555 1_555
C35 C31 1_555 1_555
C36 C43 1_555 1_555
C37 C38 1_555 1_555
C38 C29 1_555 1_555
N7 C50 1_555 1_555
C39 C38 1_555 1_555
H15 C39 1_555 1_555
C40 C31 1_555 1_555
C41 C42 1_555 1_555
N8 C53 1_555 1_555
N9 H16 1_555 1_555
C42 H17 1_555 1_555
N10 C50 1_555 1_555
C43 C42 1_555 1_555
C44 C35 1_555 1_555
H18 C44 1_555 1_555
N11 H19 1_555 1_555
C45 C41 1_555 1_555
H20 C45 1_555 1_555
C46 C40 1_555 1_555
H21 C46 1_555 1_555
C47 C39 1_555 1_555
C48 N9 1_555 1_555
C49 C43 1_555 1_555
H22 C49 1_555 1_555
N12 H23 1_555 1_555
C50 N11 1_555 1_555
C51 C33 1_555 1_555
H24 C51 1_555 1_555
C52 C44 1_555 1_555
C53 N9 1_555 1_555
C54 N7 1_555 1_555
Cu7 Cu2 1_555 1_555
Cu10 O22 1_555 1_555
Cu12 O13 1_555 1_555
Cu14 Cu6 1_555 1_555
Cu15 O20 1_555 1_555
Cu18 O15 1_555 1_555
Cu19 Cu5 1_555 1_555
O26 Cu5 1_555 1_555
O27 Cu2 1_555 1_555
O29 Cu6 1_555 1_555
O31 Cu6 1_555 1_555
O34 Cu6 1_555 1_555
O35 Cu2 1_555 1_555
O36 Cu5 1_555 1_555
O39 Cu5 1_555 1_555
O11 Cu7 1_555 1_555
O16 Cu19 1_555 1_555
O17 Cu7 1_555 1_555
O24 Cu14 1_555 1_555
C32 C40 1_555 1_555
C33 C34 1_555 1_555
N8 C54 1_555 1_555
N10 C53 1_555 1_555
N11 C47 1_555 1_555
C45 C48 1_555 1_555
C46 C52 1_555 1_555
C47 C51 1_555 1_555
C48 C49 1_555 1_555
N12 C52 1_555 1_555
N12 C54 1_555 1_555
Cu10 Cu18 1_555 1_555
Cu12 Cu15 1_555 1_555
O27_2 Cu8 1_555 1_555
O35_2 Cu8 1_555 1_555
O32_2 Cu7 1_555 1_555
O38_2 Cu7 1_555 1_555
Cu1_2 O5_2 1_555 1_555
Cu9 O6_2 1_555 1_555
Cu15 O7_2 1_555 1_555
O1_2 C10_2 1_555 1_555
O2_2 C7_2 1_555 1_555
O3_2 C3_2 1_555 1_555
O4_2 C9_2 1_555 1_555
O5_2 C7_2 1_555 1_555
O6_2 C9_2 1_555 1_555
O7_2 C1_2 1_555 1_555
O33 C10_2 1_555 1_555
O36 C3_2 1_555 1_555
O12_2 C1_2 1_555 1_555
C1_2 C8_2 1_555 1_555
C2_2 H1_2 1_555 1_555
C3_2 C14_2 1_555 1_555
C4_2 H2_2 1_555 1_555
C5_2 C13_2 1_555 1_555
C6_2 C2_2 1_555 1_555
C7_2 C6_2 1_555 1_555
C8_2 C4_2 1_555 1_555
C9_2 C16_2 1_555 1_555
C10_2 C11_2 1_555 1_555
C11_2 C2_2 1_555 1_555
N1_2 C23_2 1_555 1_555
C12_2 C11_2 1_555 1_555
H3_2 C12_2 1_555 1_555
C13_2 C4_2 1_555 1_555
C14_2 C15_2 1_555 1_555
N2_2 C26_2 1_555 1_555
N3_2 H4_2 1_555 1_555
C15_2 H5_2 1_555 1_555
N4_2 C23_2 1_555 1_555
C16_2 C15_2 1_555 1_555
C17_2 C8_2 1_555 1_555
H6_2 C17_2 1_555 1_555
N5_2 H7_2 1_555 1_555
C18_2 C14_2 1_555 1_555
H8_2 C18_2 1_555 1_555
C19_2 C13_2 1_555 1_555
H9_2 C19_2 1_555 1_555
C20_2 C12_2 1_555 1_555
C21_2 N3_2 1_555 1_555
C22_2 C16_2 1_555 1_555
H10_2 C22_2 1_555 1_555
N6_2 H11_2 1_555 1_555
C23_2 N5_2 1_555 1_555
C24_2 C6_2 1_555 1_555
H12_2 C24_2 1_555 1_555
C25_2 C17_2 1_555 1_555
C26_2 N3_2 1_555 1_555
C27_2 N1_2 1_555 1_555
O23_2 Cu1_2 1_555 1_555
Cu8_2 Cu1_2 1_555 1_555
Cu13 O1_2 1_555 1_555
Cu19 O3_2 1_555 1_555
O25_2 Cu9 1_555 1_555
O28_2 Cu15 1_555 1_555
O30_2 Cu15 1_555 1_555
O32_3 Cu1_2 1_555 1_555
O38_3 Cu1_2 1_555 1_555
O40_2 Cu9 1_555 1_555
O2_2 Cu8_2 1_555 1_555
O4_2 Cu17 1_555 1_555
O12_2 Cu12 1_555 1_555
N2_2 C27_2 1_555 1_555
N4_2 C26_2 1_555 1_555
N5_2 C20_2 1_555 1_555
C18_2 C21_2 1_555 1_555
C19_2 C25_2 1_555 1_555
C20_2 C24_2 1_555 1_555
C21_2 C22_2 1_555 1_555
N6_2 C25_2 1_555 1_555
N6_2 C27_2 1_555 1_555
O21_2 Cu8_2 1_555 1_555
Cu2_2 O9_2 1_555 1_555
Cu10 O18_2 1_555 1_555
Cu16 O19_2 1_555 1_555
O13_2 C37_2 1_555 1_555
O14_2 Cu2_2 1_555 1_555
O15_2 C30_2 1_555 1_555
O16_2 C36_2 1_555 1_555
O17_2 C34_2 1_555 1_555
O18_2 C36_2 1_555 1_555
O19_2 C28_2 1_555 1_555
O34 C37_2 1_555 1_555
O37 C30_2 1_555 1_555
O24_2 C28_2 1_555 1_555
C28_2 C35_2 1_555 1_555
C29_2 H13_2 1_555 1_555
C30_2 C41_2 1_555 1_555
C31_2 H14_2 1_555 1_555
C33_2 C29_2 1_555 1_555
C34_2 O14_2 1_555 1_555
C35_2 C31_2 1_555 1_555
C36_2 C43_2 1_555 1_555
C37_2 C38_2 1_555 1_555
C38_2 C29_2 1_555 1_555
N7_2 C50_2 1_555 1_555
C39_2 C38_2 1_555 1_555
H15_2 C39_2 1_555 1_555
C40_2 C31_2 1_555 1_555
C41_2 C42_2 1_555 1_555
N8_2 C53_2 1_555 1_555
N9_2 H16_2 1_555 1_555
C42_2 H17_2 1_555 1_555
N10_2 C50_2 1_555 1_555
C43_2 C42_2 1_555 1_555
C44_2 C35_2 1_555 1_555
H18_2 C44_2 1_555 1_555
N11_2 H19_2 1_555 1_555
C45_2 C41_2 1_555 1_555
H20_2 C45_2 1_555 1_555
C46_2 C40_2 1_555 1_555
H21_2 C46_2 1_555 1_555
C47_2 C39_2 1_555 1_555
C48_2 N9_2 1_555 1_555
C49_2 C43_2 1_555 1_555
H22_2 C49_2 1_555 1_555
N12_2 H23_2 1_555 1_555
C50_2 N11_2 1_555 1_555
C51_2 C33_2 1_555 1_555
H24_2 C51_2 1_555 1_555
C52_2 C44_2 1_555 1_555
C53_2 N9_2 1_555 1_555
C54_2 N7_2 1_555 1_555
Cu7_2 Cu2_2 1_555 1_555
Cu14 O13_2 1_555 1_555
Cu20 O15_2 1_555 1_555
O26_2 Cu10 1_555 1_555
O27_3 Cu2_2 1_555 1_555
O29_2 Cu16 1_555 1_555
O31_2 Cu16 1_555 1_555
O35_3 Cu2_2 1_555 1_555
O39_2 Cu10 1_555 1_555
O11_2 Cu7_2 1_555 1_555
O16_2 Cu18 1_555 1_555
O17_2 Cu7_2 1_555 1_555
O24_2 Cu11 1_555 1_555
C32_2 C40_2 1_555 1_555
C33_2 C34_2 1_555 1_555
N8_2 C54_2 1_555 1_555
N10_2 C53_2 1_555 1_555
N11_2 C47_2 1_555 1_555
C45_2 C48_2 1_555 1_555
C46_2 C52_2 1_555 1_555
C47_2 C51_2 1_555 1_555
C48_2 C49_2 1_555 1_555
N12_2 C52_2 1_555 1_555
N12_2 C54_2 1_555 1_555
O27_4 Cu8_2 1_555 1_555
O35_4 Cu8_2 1_555 1_555
O32_4 Cu7_2 1_555 1_555
O38_4 Cu7_2 1_555 1_555
Cu1_3 O5_3 1_555 1_555
Cu3_2 O6_3 1_555 1_555
O1_3 C10_3 1_555 1_555
O2_3 C7_3 1_555 1_555
O4_3 C9_3 1_555 1_555
O5_3 C7_3 1_555 1_555
O6_3 C9_3 1_555 1_555
O8_2 C10_3 1_555 1_555
C2_3 H1_3 1_555 1_555
C6_3 C2_3 1_555 1_555
C7_3 C6_3 1_555 1_555
C9_3 C16_3 1_555 1_555
C10_3 C11_3 1_555 1_555
C11_3 C2_3 1_555 1_555
N1_3 C23_3 1_555 1_555
C12_3 C11_3 1_555 1_555
H3_3 C12_3 1_555 1_555
N4_3 C23_3 1_555 1_555
N5_3 H7_3 1_555 1_555
C20_3 C12_3 1_555 1_555
C23_3 N5_3 1_555 1_555
C24_3 C6_3 1_555 1_555
H12_3 C24_3 1_555 1_555
Cu6_2 O19_3 1_555 1_555
O15_3 C30_3 1_555 1_555
O19_3 C28_3 1_555 1_555
O21_3 C32_3 1_555 1_555
O22_2 C30_3 1_555 1_555
O23_3 Cu1_3 1_555 1_555
O24_3 C28_3 1_555 1_555
C28_3 C35_3 1_555 1_555
C30_3 C41_3 1_555 1_555
C31_3 H14_3 1_555 1_555
C32_3 O23_3 1_555 1_555
C35_3 C31_3 1_555 1_555
C40_3 C31_3 1_555 1_555
C41_3 C42_3 1_555 1_555
N8_3 C53_3 1_555 1_555
N9_3 H16_3 1_555 1_555
C42_3 H17_3 1_555 1_555
C44_3 C35_3 1_555 1_555
H18_3 C44_3 1_555 1_555
C45_3 C41_3 1_555 1_555
H20_3 C45_3 1_555 1_555
C46_3 C40_3 1_555 1_555
H21_3 C46_3 1_555 1_555
C48_3 N9_3 1_555 1_555
N12_3 H23_3 1_555 1_555
C52_3 C44_3 1_555 1_555
C53_3 N9_3 1_555 1_555
Cu8_3 Cu1_3 1_555 1_555
Cu10_2 O22_2 1_555 1_555
Cu11_2 O1_3 1_555 1_555
Cu14_2 Cu6_2 1_555 1_555
Cu16_2 O8_2 1_555 1_555
Cu18_2 O15_3 1_555 1_555
Cu20_2 Cu3_2 1_555 1_555
O25_3 Cu3_2 1_555 1_555
O29_3 Cu6_2 1_555 1_555
O31_3 Cu6_2 1_555 1_555
O34_2 Cu6_2 1_555 1_555
O37_2 Cu3_2 1_555 1_555
O40_3 Cu3_2 1_555 1_555
O2_3 Cu8_3 1_555 1_555
O4_3 Cu20_2 1_555 1_555
N5_3 C20_3 1_555 1_555
C20_3 C24_3 1_555 1_555
O21_3 Cu8_3 1_555 1_555
O24_3 Cu14_2 1_555 1_555
C32_3 C40_3 1_555 1_555
N8_3 C54_3 1_555 1_555
C45_3 C48_3 1_555 1_555
C46_3 C52_3 1_555 1_555
C48_3 C49_3 1_555 1_555
N12_3 C52_3 1_555 1_555
N12_3 C54_3 1_555 1_555
Cu10_2 Cu18_2 1_555 1_555
Cu11_2 Cu16_2 1_555 1_555
Cu8_4 Cu1_4 1_555 1_555
O32_5 Cu1_4 1_555 1_555
O38_5 Cu1_4 1_555 1_555
Cu2_3 O9_3 1_555 1_555
Cu4_2 O7_3 1_555 1_555
O3_3 C3_3 1_555 1_555
O7_3 C1_3 1_555 1_555
O9_3 C5_3 1_555 1_555
O10_2 C3_3 1_555 1_555
O11_3 C5_3 1_555 1_555
O12_3 C1_3 1_555 1_555
C1_3 C8_3 1_555 1_555
C3_3 C14_3 1_555 1_555
C4_3 H2_3 1_555 1_555
C5_3 C13_3 1_555 1_555
C8_3 C4_3 1_555 1_555
C13_3 C4_3 1_555 1_555
C14_3 C15_3 1_555 1_555
N2_3 C26_3 1_555 1_555
N3_3 H4_3 1_555 1_555
C15_3 H5_3 1_555 1_555
C17_3 C8_3 1_555 1_555
H6_3 C17_3 1_555 1_555
C18_3 C14_3 1_555 1_555
H8_3 C18_3 1_555 1_555
C19_3 C13_3 1_555 1_555
H9_3 C19_3 1_555 1_555
C21_3 N3_3 1_555 1_555
N6_3 H11_3 1_555 1_555
C25_3 C17_3 1_555 1_555
C26_3 N3_3 1_555 1_555
Cu5_2 O18_3 1_555 1_555
O13_3 C37_3 1_555 1_555
O14_3 Cu2_3 1_555 1_555
O16_3 C36_3 1_555 1_555
O17_3 C34_3 1_555 1_555
O18_3 C36_3 1_555 1_555
O20_2 C37_3 1_555 1_555
C29_3 H13_3 1_555 1_555
C33_3 C29_3 1_555 1_555
C34_3 O14_3 1_555 1_555
C36_3 C43_3 1_555 1_555
C37_3 C38_3 1_555 1_555
C38_3 C29_3 1_555 1_555
N7_3 C50_3 1_555 1_555
C39_3 C38_3 1_555 1_555
H15_3 C39_3 1_555 1_555
N10_3 C50_3 1_555 1_555
N11_3 H19_3 1_555 1_555
C47_3 C39_3 1_555 1_555
C50_3 N11_3 1_555 1_555
C51_3 C33_3 1_555 1_555
H24_3 C51_3 1_555 1_555
Cu7_3 Cu2_3 1_555 1_555
Cu9_2 O10_2 1_555 1_555
Cu12_2 O13_3 1_555 1_555
Cu13_2 Cu4_2 1_555 1_555
Cu15_2 O20_2 1_555 1_555
Cu17_2 O3_3 1_555 1_555
Cu19_2 Cu5_2 1_555 1_555
O26_3 Cu5_2 1_555 1_555
O28_3 Cu4_2 1_555 1_555
O30_3 Cu4_2 1_555 1_555
O33_2 Cu4_2 1_555 1_555
O36_2 Cu5_2 1_555 1_555
O39_3 Cu5_2 1_555 1_555
O11_3 Cu7_3 1_555 1_555
O12_3 Cu13_2 1_555 1_555
N2_3 C27_3 1_555 1_555
C18_3 C21_3 1_555 1_555
C19_3 C25_3 1_555 1_555
C21_3 C22_3 1_555 1_555
N6_3 C25_3 1_555 1_555
N6_3 C27_3 1_555 1_555
O16_3 Cu19_2 1_555 1_555
O17_3 Cu7_3 1_555 1_555
C33_3 C34_3 1_555 1_555
N11_3 C47_3 1_555 1_555
C47_3 C51_3 1_555 1_555
Cu9_2 Cu17_2 1_555 1_555
Cu12_2 Cu15_2 1_555 1_555
Cu7_4 Cu2_4 1_555 1_555
O27_5 Cu2_4 1_555 1_555
O35_5 Cu2_4 1_555 1_555
O27_6 Cu8_4 1_555 1_555
O35_6 Cu8_4 1_555 1_555
O32_6 Cu7_4 1_555 1_555
O38_6 Cu7_4 1_555 1_555
Cu2_5 O9_4 1_555 1_555
Cu15_2 O7_4 1_555 1_555
O3_4 C3_4 1_555 1_555
O7_4 C1_4 1_555 1_555
O9_4 C5_4 1_555 1_555
O36_2 C3_4 1_555 1_555
O11_4 C5_4 1_555 1_555
O12_4 C1_4 1_555 1_555
C1_4 C8_4 1_555 1_555
C3_4 C14_4 1_555 1_555
C4_4 H2_4 1_555 1_555
C5_4 C13_4 1_555 1_555
C8_4 C4_4 1_555 1_555
C13_4 C4_4 1_555 1_555
C14_4 C15_4 1_555 1_555
N2_4 C26_4 1_555 1_555
N3_4 H4_4 1_555 1_555
C15_4 H5_4 1_555 1_555
C17_4 C8_4 1_555 1_555
H6_4 C17_4 1_555 1_555
C18_4 C14_4 1_555 1_555
H8_4 C18_4 1_555 1_555
C19_4 C13_4 1_555 1_555
H9_4 C19_4 1_555 1_555
C21_4 N3_4 1_555 1_555
N6_4 H11_4 1_555 1_555
C25_4 C17_4 1_555 1_555
C26_4 N3_4 1_555 1_555
Cu10_2 O18_4 1_555 1_555
O13_4 C37_4 1_555 1_555
O14_4 Cu2_5 1_555 1_555
O16_4 C36_4 1_555 1_555
O17_4 C34_4 1_555 1_555
O18_4 C36_4 1_555 1_555
O34_2 C37_4 1_555 1_555
C29_4 H13_4 1_555 1_555
C33_4 C29_4 1_555 1_555
C34_4 O14_4 1_555 1_555
C36_4 C43_4 1_555 1_555
C37_4 C38_4 1_555 1_555
C38_4 C29_4 1_555 1_555
N7_4 C50_4 1_555 1_555
C39_4 C38_4 1_555 1_555
H15_4 C39_4 1_555 1_555
N10_4 C50_4 1_555 1_555
N11_4 H19_4 1_555 1_555
C47_4 C39_4 1_555 1_555
C50_4 N11_4 1_555 1_555
C51_4 C33_4 1_555 1_555
H24_4 C51_4 1_555 1_555
Cu7_5 Cu2_5 1_555 1_555
Cu14_2 O13_4 1_555 1_555
Cu19_2 O3_4 1_555 1_555
O26_4 Cu10_2 1_555 1_555
O28_4 Cu15_2 1_555 1_555
O30_4 Cu15_2 1_555 1_555
O39_4 Cu10_2 1_555 1_555
O11_4 Cu7_5 1_555 1_555
O12_4 Cu12_2 1_555 1_555
N2_4 C27_4 1_555 1_555
C18_4 C21_4 1_555 1_555
C19_4 C25_4 1_555 1_555
C21_4 C22_4 1_555 1_555
N6_4 C25_4 1_555 1_555
N6_4 C27_4 1_555 1_555
O16_4 Cu18_2 1_555 1_555
O17_4 Cu7_5 1_555 1_555
C33_4 C34_4 1_555 1_555
N11_4 C47_4 1_555 1_555
C47_4 C51_4 1_555 1_555
Cu7_6 Cu2_6 1_555 1_555
O27_7 Cu2_6 1_555 1_555
O35_7 Cu2_6 1_555 1_555
Cu1_5 O5_4 1_555 1_555
Cu9_2 O6_4 1_555 1_555
O1_4 C10_4 1_555 1_555
O2_4 C7_4 1_555 1_555
O4_4 C9_4 1_555 1_555
O5_4 C7_4 1_555 1_555
O6_4 C9_4 1_555 1_555
O33_2 C10_4 1_555 1_555
C2_4 H1_4 1_555 1_555
C6_4 C2_4 1_555 1_555
C7_4 C6_4 1_555 1_555
C9_4 C16_4 1_555 1_555
C10_4 C11_4 1_555 1_555
C11_4 C2_4 1_555 1_555
N1_4 C23_4 1_555 1_555
C12_4 C11_4 1_555 1_555
H3_4 C12_4 1_555 1_555
N4_4 C23_4 1_555 1_555
N5_4 H7_4 1_555 1_555
C20_4 C12_4 1_555 1_555
C23_4 N5_4 1_555 1_555
C24_4 C6_4 1_555 1_555
H12_4 C24_4 1_555 1_555
Cu16_2 O19_4 1_555 1_555
O15_4 C30_4 1_555 1_555
O19_4 C28_4 1_555 1_555
O21_4 C32_4 1_555 1_555
O37_2 C30_4 1_555 1_555
O23_4 Cu1_5 1_555 1_555
O24_4 C28_4 1_555 1_555
C28_4 C35_4 1_555 1_555
C30_4 C41_4 1_555 1_555
C31_4 H14_4 1_555 1_555
C32_4 O23_4 1_555 1_555
C35_4 C31_4 1_555 1_555
C40_4 C31_4 1_555 1_555
C41_4 C42_4 1_555 1_555
N8_4 C53_4 1_555 1_555
N9_4 H16_4 1_555 1_555
C42_4 H17_4 1_555 1_555
C44_4 C35_4 1_555 1_555
H18_4 C44_4 1_555 1_555
C45_4 C41_4 1_555 1_555
H20_4 C45_4 1_555 1_555
C46_4 C40_4 1_555 1_555
H21_4 C46_4 1_555 1_555
C48_4 N9_4 1_555 1_555
N12_4 H23_4 1_555 1_555
C52_4 C44_4 1_555 1_555
C53_4 N9_4 1_555 1_555
Cu8_5 Cu1_5 1_555 1_555
Cu13_2 O1_4 1_555 1_555
Cu20_2 O15_4 1_555 1_555
O25_4 Cu9_2 1_555 1_555
O29_4 Cu16_2 1_555 1_555
O31_4 Cu16_2 1_555 1_555
O40_4 Cu9_2 1_555 1_555
O2_4 Cu8_5 1_555 1_555
O4_4 Cu17_2 1_555 1_555
N5_4 C20_4 1_555 1_555
C20_4 C24_4 1_555 1_555
O21_4 Cu8_5 1_555 1_555
O24_4 Cu11_2 1_555 1_555
C32_4 C40_4 1_555 1_555
N8_4 C54_4 1_555 1_555
C45_4 C48_4 1_555 1_555
C46_4 C52_4 1_555 1_555
C48_4 C49_4 1_555 1_555
N12_4 C52_4 1_555 1_555
N12_4 C54_4 1_555 1_555
Cu8_6 Cu1_6 1_555 1_555
O32_7 Cu1_6 1_555 1_555
O38_7 Cu1_6 1_555 1_555
O32_8 Cu7_6 1_555 1_555
O38_8 Cu7_6 1_555 1_555
O27_8 Cu8_6 1_555 1_555
O35_8 Cu8_6 1_555 1_555
Cu12_2 O18_5 1_555 1_555
Cu18_2 O19_5 1_555 1_555
O26_3 C37_5 1_555 1_555
O29_3 C30_5 1_555 1_555
O30_4 C36_5 1_555 1_555
O32 C34_5 1_555 1_555
O18_5 C36_5 1_555 1_555
O19_5 C28_5 1_555 1_555
O20_3 C37_5 1_555 1_555
O22_3 C30_5 1_555 1_555
O39_4 C28_5 1_555 1_555
C28_5 C35_5 1_555 1_555
C29_5 H13_5 1_555 1_555
C30_5 C41_5 1_555 1_555
C31_5 H14_5 1_555 1_555
C33_5 C29_5 1_555 1_555
C34_5 O27_2 1_555 1_555
C35_5 C31_5 1_555 1_555
C36_5 C43_5 1_555 1_555
C37_5 C38_5 1_555 1_555
C38_5 C29_5 1_555 1_555
N7_5 C50_5 1_555 1_555
C39_5 C38_5 1_555 1_555
H15_5 C39_5 1_555 1_555
C40_5 C31_5 1_555 1_555
C41_5 C42_5 1_555 1_555
N8_5 C53_5 1_555 1_555
N9_5 H16_5 1_555 1_555
C42_5 H17_5 1_555 1_555
N10_5 C50_5 1_555 1_555
C43_5 C42_5 1_555 1_555
C44_5 C35_5 1_555 1_555
H18_5 C44_5 1_555 1_555
N11_5 H19_5 1_555 1_555
C45_5 C41_5 1_555 1_555
H20_5 C45_5 1_555 1_555
C46_5 C40_5 1_555 1_555
H21_5 C46_5 1_555 1_555
C47_5 C39_5 1_555 1_555
C48_5 N9_5 1_555 1_555
C49_5 C43_5 1_555 1_555
H22_5 C49_5 1_555 1_555
N12_5 H23_5 1_555 1_555
C50_5 N11_5 1_555 1_555
C51_5 C33_5 1_555 1_555
H24_5 C51_5 1_555 1_555
C52_5 C44_5 1_555 1_555
C53_5 N9_5 1_555 1_555
C54_5 N7_5 1_555 1_555
Cu14_2 O22_3 1_555 1_555
Cu19_2 O20_3 1_555 1_555
O34_3 Cu18_2 1_555 1_555
O36_3 Cu12_2 1_555 1_555
C32_5 C40_5 1_555 1_555
C33_5 C34_5 1_555 1_555
N8_5 C54_5 1_555 1_555
N10_5 C53_5 1_555 1_555
N11_5 C47_5 1_555 1_555
C45_5 C48_5 1_555 1_555
C46_5 C52_5 1_555 1_555
C47_5 C51_5 1_555 1_555
C48_5 C49_5 1_555 1_555
N12_5 C52_5 1_555 1_555
N12_5 C54_5 1_555 1_555
Cu11_2 O6_5 1_555 1_555
Cu17_2 O7_5 1_555 1_555
O25_3 C10_5 1_555 1_555
O27 C7_5 1_555 1_555
O28_3 C3_5 1_555 1_555
O31_4 C9_5 1_555 1_555
O32_2 C7_5 1_555 1_555
O6_5 C9_5 1_555 1_555
O7_5 C1_5 1_555 1_555
O8_3 C10_5 1_555 1_555
O10_3 C3_5 1_555 1_555
O40_4 C1_5 1_555 1_555
C1_5 C8_5 1_555 1_555
C2_5 H1_5 1_555 1_555
C3_5 C14_5 1_555 1_555
C4_5 H2_5 1_555 1_555
C5_5 C13_5 1_555 1_555
C6_5 C2_5 1_555 1_555
C7_5 C6_5 1_555 1_555
C8_5 C4_5 1_555 1_555
C9_5 C16_5 1_555 1_555
C10_5 C11_5 1_555 1_555
C11_5 C2_5 1_555 1_555
N1_5 C23_5 1_555 1_555
C12_5 C11_5 1_555 1_555
H3_5 C12_5 1_555 1_555
C13_5 C4_5 1_555 1_555
C14_5 C15_5 1_555 1_555
N2_5 C26_5 1_555 1_555
N3_5 H4_5 1_555 1_555
C15_5 H5_5 1_555 1_555
N4_5 C23_5 1_555 1_555
C16_5 C15_5 1_555 1_555
C17_5 C8_5 1_555 1_555
H6_5 C17_5 1_555 1_555
N5_5 H7_5 1_555 1_555
C18_5 C14_5 1_555 1_555
H8_5 C18_5 1_555 1_555
C19_5 C13_5 1_555 1_555
H9_5 C19_5 1_555 1_555
C20_5 C12_5 1_555 1_555
C21_5 N3_5 1_555 1_555
C22_5 C16_5 1_555 1_555
H10_5 C22_5 1_555 1_555
N6_5 H11_5 1_555 1_555
C23_5 N5_5 1_555 1_555
C24_5 C6_5 1_555 1_555
H12_5 C24_5 1_555 1_555
C25_5 C17_5 1_555 1_555
C26_5 N3_5 1_555 1_555
C27_5 N1_5 1_555 1_555
Cu13_2 O10_3 1_555 1_555
Cu20_2 O8_3 1_555 1_555
O33_3 Cu17_2 1_555 1_555
O37_3 Cu11_2 1_555 1_555
N2_5 C27_5 1_555 1_555
N4_5 C26_5 1_555 1_555
N5_5 C20_5 1_555 1_555
C18_5 C21_5 1_555 1_555
C19_5 C25_5 1_555 1_555
C20_5 C24_5 1_555 1_555
C21_5 C22_5 1_555 1_555
N6_5 C25_5 1_555 1_555
N6_5 C27_5 1_555 1_555
Cu14_2 O18_6 1_555 1_555
Cu20_2 O19_6 1_555 1_555
O26_4 C37_6 1_555 1_555
O29_4 C30_6 1_555 1_555
O31_3 C36_6 1_555 1_555
O32_3 C34_6 1_555 1_555
O18_6 C36_6 1_555 1_555
O19_6 C28_6 1_555 1_555
O34_3 C37_6 1_555 1_555
O37_3 C30_6 1_555 1_555
O40_3 C28_6 1_555 1_555
C28_6 C35_6 1_555 1_555
C29_6 H13_6 1_555 1_555
C30_6 C41_6 1_555 1_555
C31_6 H14_6 1_555 1_555
C33_6 C29_6 1_555 1_555
C34_6 O27_4 1_555 1_555
C35_6 C31_6 1_555 1_555
C36_6 C43_6 1_555 1_555
C37_6 C38_6 1_555 1_555
C38_6 C29_6 1_555 1_555
N7_6 C50_6 1_555 1_555
C39_6 C38_6 1_555 1_555
H15_6 C39_6 1_555 1_555
C40_6 C31_6 1_555 1_555
C41_6 C42_6 1_555 1_555
N8_6 C53_6 1_555 1_555
N9_6 H16_6 1_555 1_555
C42_6 H17_6 1_555 1_555
N10_6 C50_6 1_555 1_555
C43_6 C42_6 1_555 1_555
C44_6 C35_6 1_555 1_555
H18_6 C44_6 1_555 1_555
N11_6 H19_6 1_555 1_555
C45_6 C41_6 1_555 1_555
H20_6 C45_6 1_555 1_555
C46_6 C40_6 1_555 1_555
H21_6 C46_6 1_555 1_555
C47_6 C39_6 1_555 1_555
C48_6 N9_6 1_555 1_555
C49_6 C43_6 1_555 1_555
H22_6 C49_6 1_555 1_555
N12_6 H23_6 1_555 1_555
C50_6 N11_6 1_555 1_555
C51_6 C33_6 1_555 1_555
H24_6 C51_6 1_555 1_555
C52_6 C44_6 1_555 1_555
C53_6 N9_6 1_555 1_555
C54_6 N7_6 1_555 1_555
C32_6 C40_6 1_555 1_555
C33_6 C34_6 1_555 1_555
N8_6 C54_6 1_555 1_555
N10_6 C53_6 1_555 1_555
N11_6 C47_6 1_555 1_555
C45_6 C48_6 1_555 1_555
C46_6 C52_6 1_555 1_555
C47_6 C51_6 1_555 1_555
C48_6 C49_6 1_555 1_555
N12_6 C52_6 1_555 1_555
N12_6 C54_6 1_555 1_555
Cu13_2 O6_6 1_555 1_555
Cu19_2 O7_6 1_555 1_555
O25_4 C10_6 1_555 1_555
O27_3 C7_6 1_555 1_555
O28_4 C3_6 1_555 1_555
O30_3 C9_6 1_555 1_555
O32_4 C7_6 1_555 1_555
O6_6 C9_6 1_555 1_555
O7_6 C1_6 1_555 1_555
O33_3 C10_6 1_555 1_555
O36_3 C3_6 1_555 1_555
O39_3 C1_6 1_555 1_555
C1_6 C8_6 1_555 1_555
C2_6 H1_6 1_555 1_555
C3_6 C14_6 1_555 1_555
C4_6 H2_6 1_555 1_555
C5_6 C13_6 1_555 1_555
C6_6 C2_6 1_555 1_555
C7_6 C6_6 1_555 1_555
C8_6 C4_6 1_555 1_555
C9_6 C16_6 1_555 1_555
C10_6 C11_6 1_555 1_555
C11_6 C2_6 1_555 1_555
N1_6 C23_6 1_555 1_555
C12_6 C11_6 1_555 1_555
H3_6 C12_6 1_555 1_555
C13_6 C4_6 1_555 1_555
C14_6 C15_6 1_555 1_555
N2_6 C26_6 1_555 1_555
N3_6 H4_6 1_555 1_555
C15_6 H5_6 1_555 1_555
N4_6 C23_6 1_555 1_555
C16_6 C15_6 1_555 1_555
C17_6 C8_6 1_555 1_555
H6_6 C17_6 1_555 1_555
N5_6 H7_6 1_555 1_555
C18_6 C14_6 1_555 1_555
H8_6 C18_6 1_555 1_555
C19_6 C13_6 1_555 1_555
H9_6 C19_6 1_555 1_555
C20_6 C12_6 1_555 1_555
C21_6 N3_6 1_555 1_555
C22_6 C16_6 1_555 1_555
H10_6 C22_6 1_555 1_555
N6_6 H11_6 1_555 1_555
C23_6 N5_6 1_555 1_555
C24_6 C6_6 1_555 1_555
H12_6 C24_6 1_555 1_555
C25_6 C17_6 1_555 1_555
C26_6 N3_6 1_555 1_555
C27_6 N1_6 1_555 1_555
N2_6 C27_6 1_555 1_555
N4_6 C26_6 1_555 1_555
N5_6 C20_6 1_555 1_555
C18_6 C21_6 1_555 1_555
C19_6 C25_6 1_555 1_555
C20_6 C24_6 1_555 1_555
C21_6 C22_6 1_555 1_555
N6_6 C25_6 1_555 1_555
N6_6 C27_6 1_555 1_555
Cu17 O7_7 1_555 1_555
O28 C3_7 1_555 1_555
O7_7 C1_7 1_555 1_555
O35_6 C5_7 1_555 1_555
O10_4 C3_7 1_555 1_555
O38_5 C5_7 1_555 1_555
O40_2 C1_7 1_555 1_555
C1_7 C8_7 1_555 1_555
C3_7 C14_7 1_555 1_555
C4_7 H2_7 1_555 1_555
C5_7 C13_7 1_555 1_555
C8_7 C4_7 1_555 1_555
C13_7 C4_7 1_555 1_555
C14_7 C15_7 1_555 1_555
N2_7 C26_7 1_555 1_555
N3_7 H4_7 1_555 1_555
C15_7 H5_7 1_555 1_555
C17_7 C8_7 1_555 1_555
H6_7 C17_7 1_555 1_555
C18_7 C14_7 1_555 1_555
H8_7 C18_7 1_555 1_555
C19_7 C13_7 1_555 1_555
H9_7 C19_7 1_555 1_555
C21_7 N3_7 1_555 1_555
N6_7 H11_7 1_555 1_555
C25_7 C17_7 1_555 1_555
C26_7 N3_7 1_555 1_555
Cu12 O18_7 1_555 1_555
O26 C37_7 1_555 1_555
O30_2 C36_7 1_555 1_555
O32_5 C34_7 1_555 1_555
O18_7 C36_7 1_555 1_555
O20_4 C37_7 1_555 1_555
C29_7 H13_7 1_555 1_555
C33_7 C29_7 1_555 1_555
C34_7 O27_6 1_555 1_555
C36_7 C43_7 1_555 1_555
C37_7 C38_7 1_555 1_555
C38_7 C29_7 1_555 1_555
N7_7 C50_7 1_555 1_555
C39_7 C38_7 1_555 1_555
H15_7 C39_7 1_555 1_555
N10_7 C50_7 1_555 1_555
N11_7 H19_7 1_555 1_555
C47_7 C39_7 1_555 1_555
C50_7 N11_7 1_555 1_555
C51_7 C33_7 1_555 1_555
H24_7 C51_7 1_555 1_555
Cu13 O10_4 1_555 1_555
Cu19 O20_4 1_555 1_555
O33_4 Cu17 1_555 1_555
O36_4 Cu12 1_555 1_555
N2_7 C27_7 1_555 1_555
C18_7 C21_7 1_555 1_555
C19_7 C25_7 1_555 1_555
C21_7 C22_7 1_555 1_555
N6_7 C25_7 1_555 1_555
N6_7 C27_7 1_555 1_555
C33_7 C34_7 1_555 1_555
N11_7 C47_7 1_555 1_555
C47_7 C51_7 1_555 1_555
Cu11 O6_7 1_555 1_555
O25 C10_7 1_555 1_555
O27_5 C7_7 1_555 1_555
O31_2 C9_7 1_555 1_555
O32_6 C7_7 1_555 1_555
O6_7 C9_7 1_555 1_555
O8_4 C10_7 1_555 1_555
C2_7 H1_7 1_555 1_555
C6_7 C2_7 1_555 1_555
C7_7 C6_7 1_555 1_555
C9_7 C16_7 1_555 1_555
C10_7 C11_7 1_555 1_555
C11_7 C2_7 1_555 1_555
N1_7 C23_7 1_555 1_555
C12_7 C11_7 1_555 1_555
H3_7 C12_7 1_555 1_555
N4_7 C23_7 1_555 1_555
N5_7 H7_7 1_555 1_555
C20_7 C12_7 1_555 1_555
C23_7 N5_7 1_555 1_555
C24_7 C6_7 1_555 1_555
H12_7 C24_7 1_555 1_555
Cu18 O19_7 1_555 1_555
O29 C30_7 1_555 1_555
O19_7 C28_7 1_555 1_555
O35_5 C32_7 1_555 1_555
O22_4 C30_7 1_555 1_555
O39_2 C28_7 1_555 1_555
C28_7 C35_7 1_555 1_555
C30_7 C41_7 1_555 1_555
C31_7 H14_7 1_555 1_555
C32_7 O38_6 1_555 1_555
C35_7 C31_7 1_555 1_555
C40_7 C31_7 1_555 1_555
C41_7 C42_7 1_555 1_555
N8_7 C53_7 1_555 1_555
N9_7 H16_7 1_555 1_555
C42_7 H17_7 1_555 1_555
C44_7 C35_7 1_555 1_555
H18_7 C44_7 1_555 1_555
C45_7 C41_7 1_555 1_555
H20_7 C45_7 1_555 1_555
C46_7 C40_7 1_555 1_555
H21_7 C46_7 1_555 1_555
C48_7 N9_7 1_555 1_555
N12_7 H23_7 1_555 1_555
C52_7 C44_7 1_555 1_555
C53_7 N9_7 1_555 1_555
Cu14 O22_4 1_555 1_555
Cu20 O8_4 1_555 1_555
O34_4 Cu18 1_555 1_555
O37_4 Cu11 1_555 1_555
N5_7 C20_7 1_555 1_555
C20_7 C24_7 1_555 1_555
C32_7 C40_7 1_555 1_555
N8_7 C54_7 1_555 1_555
C45_7 C48_7 1_555 1_555
C46_7 C52_7 1_555 1_555
C48_7 C49_7 1_555 1_555
N12_7 C52_7 1_555 1_555
N12_7 C54_7 1_555 1_555
Cu13 O6_8 1_555 1_555
O25_2 C10_8 1_555 1_555
O27_7 C7_8 1_555 1_555
O30 C9_8 1_555 1_555
O32_8 C7_8 1_555 1_555
O6_8 C9_8 1_555 1_555
O33_4 C10_8 1_555 1_555
C2_8 H1_8 1_555 1_555
C6_8 C2_8 1_555 1_555
C7_8 C6_8 1_555 1_555
C9_8 C16_8 1_555 1_555
C10_8 C11_8 1_555 1_555
C11_8 C2_8 1_555 1_555
N1_8 C23_8 1_555 1_555
C12_8 C11_8 1_555 1_555
H3_8 C12_8 1_555 1_555
N4_8 C23_8 1_555 1_555
N5_8 H7_8 1_555 1_555
C20_8 C12_8 1_555 1_555
C23_8 N5_8 1_555 1_555
C24_8 C6_8 1_555 1_555
H12_8 C24_8 1_555 1_555
Cu20 O19_8 1_555 1_555
O29_2 C30_8 1_555 1_555
O19_8 C28_8 1_555 1_555
O35_7 C32_8 1_555 1_555
O37_4 C30_8 1_555 1_555
O40 C28_8 1_555 1_555
C28_8 C35_8 1_555 1_555
C30_8 C41_8 1_555 1_555
C31_8 H14_8 1_555 1_555
C32_8 O38_8 1_555 1_555
C35_8 C31_8 1_555 1_555
C40_8 C31_8 1_555 1_555
C41_8 C42_8 1_555 1_555
N8_8 C53_8 1_555 1_555
N9_8 H16_8 1_555 1_555
C42_8 H17_8 1_555 1_555
C44_8 C35_8 1_555 1_555
H18_8 C44_8 1_555 1_555
C45_8 C41_8 1_555 1_555
H20_8 C45_8 1_555 1_555
C46_8 C40_8 1_555 1_555
H21_8 C46_8 1_555 1_555
C48_8 N9_8 1_555 1_555
N12_8 H23_8 1_555 1_555
C52_8 C44_8 1_555 1_555
C53_8 N9_8 1_555 1_555
N5_8 C20_8 1_555 1_555
C20_8 C24_8 1_555 1_555
C32_8 C40_8 1_555 1_555
N8_8 C54_8 1_555 1_555
C45_8 C48_8 1_555 1_555
C46_8 C52_8 1_555 1_555
C48_8 C49_8 1_555 1_555
N12_8 C52_8 1_555 1_555
N12_8 C54_8 1_555 1_555
Cu19 O7_8 1_555 1_555
O28_2 C3_8 1_555 1_555
O7_8 C1_8 1_555 1_555
O35_8 C5_8 1_555 1_555
O36_4 C3_8 1_555 1_555
O38_7 C5_8 1_555 1_555
O39 C1_8 1_555 1_555
C1_8 C8_8 1_555 1_555
C3_8 C14_8 1_555 1_555
C4_8 H2_8 1_555 1_555
C5_8 C13_8 1_555 1_555
C8_8 C4_8 1_555 1_555
C13_8 C4_8 1_555 1_555
C14_8 C15_8 1_555 1_555
N2_8 C26_8 1_555 1_555
N3_8 H4_8 1_555 1_555
C15_8 H5_8 1_555 1_555
C17_8 C8_8 1_555 1_555
H6_8 C17_8 1_555 1_555
C18_8 C14_8 1_555 1_555
H8_8 C18_8 1_555 1_555
C19_8 C13_8 1_555 1_555
H9_8 C19_8 1_555 1_555
C21_8 N3_8 1_555 1_555
N6_8 H11_8 1_555 1_555
C25_8 C17_8 1_555 1_555
C26_8 N3_8 1_555 1_555
Cu14 O18_8 1_555 1_555
O26_2 C37_8 1_555 1_555
O31 C36_8 1_555 1_555
O32_7 C34_8 1_555 1_555
O18_8 C36_8 1_555 1_555
O34_4 C37_8 1_555 1_555
C29_8 H13_8 1_555 1_555
C33_8 C29_8 1_555 1_555
C34_8 O27_8 1_555 1_555
C36_8 C43_8 1_555 1_555
C37_8 C38_8 1_555 1_555
C38_8 C29_8 1_555 1_555
N7_8 C50_8 1_555 1_555
C39_8 C38_8 1_555 1_555
H15_8 C39_8 1_555 1_555
N10_8 C50_8 1_555 1_555
N11_8 H19_8 1_555 1_555
C47_8 C39_8 1_555 1_555
C50_8 N11_8 1_555 1_555
C51_8 C33_8 1_555 1_555
H24_8 C51_8 1_555 1_555
N2_8 C27_8 1_555 1_555
C18_8 C21_8 1_555 1_555
C19_8 C25_8 1_555 1_555
C21_8 C22_8 1_555 1_555
N6_8 C25_8 1_555 1_555
N6_8 C27_8 1_555 1_555
C33_8 C34_8 1_555 1_555
N11_8 C47_8 1_555 1_555
C47_8 C51_8 1_555 1_555

#END
