
###############################################################################
#
# This file contains modified crystal structure data generated from the
# MOF subset of the Cambridge Structural Database (CSD) v543 
# hosted by the Cambridge Crystallographic Data Centre (CCDC).
#
# This work is licensed under the Creative Commons
# Attribution-NonCommercial-ShareAlike 4.0 International License.
# To view a copy of this license, visit
# http://creativecommons.org/licenses/by-nc-sa/4.0/
# or send a letter to
# Creative Commons, PO Box 1866, Mountain View, CA 94042, USA.
#
# CIF created using the CSD Python API on 29 September 2022
# The structure has been converted into the P1 space group
# The structure has a 3D framework
# The original CSD entry PAPPAB13 is in the tetragonal crystal system
# The framework has been calculated to contain at least 10.0% void space
# The void calculation uses a probe of radius 1.32A, grid spacing 0.4
#
###############################################################################

data_PAPPAB13
_chemical_formula_moiety         '(C432 H192 Cu40 N96 O180)n'
_symmetry_cell_setting           triclinic
_symmetry_space_group_name_H-M   'P 1'
_symmetry_Int_Tables_number      1
_space_group_name_Hall           'P 1'
loop_
_symmetry_equiv_pos_site_id
_symmetry_equiv_pos_as_xyz
1 x,y,z
_cell_length_a                   26.4419(2)
_cell_length_b                   26.4419(2)
_cell_length_c                   37.8975(6)
_cell_angle_alpha                90
_cell_angle_beta                 90
_cell_angle_gamma                90
_cell_volume                     26496.9
loop_
_atom_site_label
_atom_site_type_symbol
_atom_site_fract_x
_atom_site_fract_y
_atom_site_fract_z
Cu1 Cu 0.29910(7) 0.05624(8) 0.500000
Cu3 Cu 0.34309(5) 0.26771(5) 0.80569(4)
Cu4 Cu 0.82226(6) 0.11948(6) 0.64822(4)
O1 O 0.2199(3) 0.2272(3) 0.6690(2)
O2 O 0.4420(3) 0.3202(3) 0.8249(2)
O3 O 0.3765(3) 0.1204(3) 0.5371(2)
O4 O 0.2943(3) 0.1067(4) 0.5358(2)
O6 O 0.4088(3) 0.2683(4) 0.7837(2)
O7 O 0.6213(3) 0.3568(4) 0.8245(3)
O8 O 0.1848(3) 0.1802(4) 0.6259(2)
O9 O 0.7606(3) 0.1007(3) 0.6254(3)
O11 O 0.7103(3) 0.1374(4) 0.6651(2)
O12 O 0.6707(3) 0.3255(3) 0.7817(2)
C1 C 0.7185(4) 0.1117(4) 0.6374(4)
C2 C 0.6283(4) 0.3331(4) 0.7957(4)
C3 C 0.6398(6) 0.0012(5) 0.5462(4)
C4 C 0.6780(5) 0.0581(5) 0.5917(4)
H1 H 0.709598 0.044380 0.586772
C5 C 0.3325(5) 0.1252(5) 0.5488(4)
C6 C 0.2789(5) 0.1662(5) 0.5946(4)
H2 H 0.250553 0.153924 0.582793
C7 C 0.4441(5) 0.2929(6) 0.7975(4)
C8 C 0.6731(4) 0.0944(5) 0.6174(4)
C9 C 0.5829(5) 0.3091(5) 0.7797(4)
C10 C 0.2214(5) 0.2005(6) 0.6409(4)
C11 C 0.3267(5) 0.1573(5) 0.5810(4)
N1 N 0.4683(4) 0.1668(6) 0.6298(4)
N2 N 0.5574(4) 0.2254(6) 0.7052(4)
H3 H 0.588569 0.216712 0.702623
C12 C 0.5358(5) 0.3136(5) 0.7947(4)
H4 H 0.531577 0.332435 0.815234
C13 C 0.2732(5) 0.1929(6) 0.6252(4)
N3 N 0.5488(4) 0.1736(6) 0.6581(4)
C14 C 0.6363(5) 0.0423(6) 0.5733(4)
C15 C 0.3152(5) 0.2077(6) 0.6433(4)
H5 H 0.311272 0.223967 0.664936
C16 C 0.4953(5) 0.2904(5) 0.7795(4)
N4 N 0.4783(4) 0.2213(6) 0.6793(4)
C17 C 0.6265(6) 0.1140(6) 0.6250(5)
H6 H 0.623260 0.137390 0.643121
C18 C 0.3629(5) 0.1994(6) 0.6307(5)
C19 C 0.5887(5) 0.2803(7) 0.7500(5)
H7 H 0.620577 0.277306 0.739801
N5 N 0.4038(5) 0.2151(6) 0.6517(4)
H8 H 0.396235 0.238563 0.666572
C20 C 0.4533(6) 0.2001(7) 0.6530(5)
C21 C 0.5897(6) 0.0620(6) 0.5809(4)
H9 H 0.561291 0.050113 0.569056
C22 C 0.5005(5) 0.2608(6) 0.7503(4)
H10 H 0.472575 0.244264 0.740853
C23 C 0.5479(5) 0.2556(7) 0.7348(4)
C24 C 0.3694(5) 0.1727(7) 0.5997(5)
H11 H 0.401680 0.165247 0.591395
N6 N 0.5352(5) 0.1201(6) 0.6115(4)
H12 H 0.512313 0.107658 0.597931
C25 C 0.5845(5) 0.0997(7) 0.6062(5)
C26 C 0.5265(6) 0.2077(7) 0.6804(5)
C27 C 0.5179(7) 0.1561(8) 0.6345(5)
O17 O 0.3973(3) 0.0191(4) 0.5351(3)
O22 O 0.3140(4) 0.0062(4) 0.5358(3)
Cu8 Cu 0.39146(8) 0.07138(8) 0.500000
Cu9 Cu 0.73229(5) 0.34309(5) 0.80569(4)
Cu11 Cu 0.15691(5) 0.23229(5) 0.69431(4)
Cu13 Cu 0.76771(5) 0.15691(5) 0.69431(4)
Cu16 Cu 0.11948(6) 0.17774(6) 0.64822(4)
Cu17 Cu 0.67774(6) 0.38052(6) 0.85178(4)
Cu20 Cu 0.38052(6) 0.32226(6) 0.85178(4)
O25 O 0.2801(3) 0.2728(3) 0.8310(2)
O27 O 0.8202(3) 0.0580(3) 0.6751(2)
O30 O 0.2943(3) 0.1067(4) 0.4642(2)
O32 O 0.8787(3) 0.1432(4) 0.6755(3)
O34 O 0.8198(4) 0.1848(3) 0.6259(2)
O36 O 0.3140(4) 0.0062(4) 0.4642(3)
O38 O 0.3626(4) 0.2103(3) 0.8349(2)
O40 O 0.3255(3) 0.3293(3) 0.7817(2)
Cu2 Cu 0.60854(8) 0.92862(8) 0.500000
O5 O 0.6027(3) 0.9809(4) 0.5351(3)
O10 O 0.6860(4) 0.9938(4) 0.5358(3)
Cu5 Cu 0.65691(5) 0.73229(5) 0.80569(4)
Cu6 Cu 0.17774(6) 0.88052(6) 0.64822(4)
O13 O 0.7801(3) 0.7728(3) 0.6690(2)
O14 O 0.5580(3) 0.6798(3) 0.8249(2)
O15 O 0.6235(3) 0.8796(3) 0.5371(2)
O16 O 0.7057(3) 0.8933(4) 0.5358(2)
O18 O 0.5912(3) 0.7317(4) 0.7837(2)
O19 O 0.3787(3) 0.6432(4) 0.8245(3)
O20 O 0.8152(3) 0.8198(4) 0.6259(2)
O21 O 0.2394(3) 0.8993(3) 0.6254(3)
O23 O 0.2897(3) 0.8626(4) 0.6651(2)
O24 O 0.3293(3) 0.6745(3) 0.7817(2)
C28 C 0.2815(4) 0.8883(4) 0.6374(4)
C29 C 0.3717(4) 0.6669(4) 0.7957(4)
C30 C 0.3602(6) 0.9988(5) 0.5462(4)
C31 C 0.3220(5) 0.9419(5) 0.5917(4)
H13 H 0.290402 0.955620 0.586772
C32 C 0.6675(5) 0.8748(5) 0.5488(4)
C33 C 0.7211(5) 0.8338(5) 0.5946(4)
H14 H 0.749447 0.846076 0.582793
C34 C 0.5559(5) 0.7071(6) 0.7975(4)
C35 C 0.3269(4) 0.9056(5) 0.6174(4)
C36 C 0.4171(5) 0.6909(5) 0.7797(4)
C37 C 0.7786(5) 0.7995(6) 0.6409(4)
C38 C 0.6733(5) 0.8427(5) 0.5810(4)
N7 N 0.5317(4) 0.8332(6) 0.6298(4)
N8 N 0.4426(4) 0.7746(6) 0.7052(4)
H15 H 0.411431 0.783288 0.702623
C39 C 0.4642(5) 0.6864(5) 0.7947(4)
H16 H 0.468423 0.667565 0.815234
C40 C 0.7268(5) 0.8071(6) 0.6252(4)
N9 N 0.4512(4) 0.8264(6) 0.6581(4)
C41 C 0.3637(5) 0.9577(6) 0.5733(4)
C42 C 0.6848(5) 0.7923(6) 0.6433(4)
H17 H 0.688728 0.776033 0.664936
C43 C 0.5047(5) 0.7096(5) 0.7795(4)
N10 N 0.5217(4) 0.7787(6) 0.6793(4)
C44 C 0.3735(6) 0.8860(6) 0.6250(5)
H18 H 0.376740 0.862610 0.643121
C45 C 0.6371(5) 0.8006(6) 0.6307(5)
C46 C 0.4113(5) 0.7197(7) 0.7500(5)
H19 H 0.379423 0.722694 0.739801
N11 N 0.5962(5) 0.7849(6) 0.6517(4)
H20 H 0.603765 0.761437 0.666572
C47 C 0.5467(6) 0.7999(7) 0.6530(5)
C48 C 0.4103(6) 0.9380(6) 0.5809(4)
H21 H 0.438709 0.949887 0.569056
C49 C 0.4995(5) 0.7392(6) 0.7503(4)
H22 H 0.527425 0.755736 0.740853
C50 C 0.4521(5) 0.7444(7) 0.7348(4)
C51 C 0.6306(5) 0.8273(7) 0.5997(5)
H23 H 0.598320 0.834753 0.591395
N12 N 0.4648(5) 0.8799(6) 0.6115(4)
H24 H 0.487687 0.892342 0.597931
C52 C 0.4155(5) 0.9003(7) 0.6062(5)
C53 C 0.4735(6) 0.7923(7) 0.6804(5)
C54 C 0.4821(7) 0.8439(8) 0.6345(5)
Cu7 Cu 0.70090(7) 0.94376(8) 0.500000
Cu10 Cu 0.26771(5) 0.65691(5) 0.80569(4)
Cu12 Cu 0.84309(5) 0.76771(5) 0.69431(4)
Cu14 Cu 0.23229(5) 0.84309(5) 0.69431(4)
Cu15 Cu 0.88052(6) 0.82226(6) 0.64822(4)
Cu18 Cu 0.32226(6) 0.61948(6) 0.85178(4)
Cu19 Cu 0.61948(6) 0.67774(6) 0.85178(4)
O26 O 0.7199(3) 0.7272(3) 0.8310(2)
O28 O 0.1798(3) 0.9420(3) 0.6751(2)
O29 O 0.6235(3) 0.8796(3) 0.4629(2)
O31 O 0.6027(3) 0.9809(4) 0.4649(3)
O33 O 0.1213(3) 0.8568(4) 0.6755(3)
O35 O 0.1802(4) 0.8152(3) 0.6259(2)
O37 O 0.6374(4) 0.7897(3) 0.8349(2)
O39 O 0.6745(3) 0.6707(3) 0.7817(2)
O29_2 O 0.3765(3) 0.1204(3) 0.4629(2)
O31_2 O 0.3973(3) 0.0191(4) 0.4649(3)
O30_2 O 0.7057(3) 0.8933(4) 0.4642(2)
O36_2 O 0.6860(4) 0.9938(4) 0.4642(3)
Cu2_2 Cu 0.07138(8) 0.60854(8) 0.500000
O5_2 O 0.0191(4) 0.6027(3) 0.5351(3)
O10_2 O 0.0062(4) 0.6860(4) 0.5358(3)
O13_2 O 0.2272(3) 0.7801(3) 0.6690(2)
O14_2 O 0.3202(3) 0.5580(3) 0.8249(2)
O15_2 O 0.1204(3) 0.6235(3) 0.5371(2)
O16_2 O 0.1067(4) 0.7057(3) 0.5358(2)
O18_2 O 0.2683(4) 0.5912(3) 0.7837(2)
O19_2 O 0.3568(4) 0.3787(3) 0.8245(3)
O21_2 O 0.1007(3) 0.2394(3) 0.6254(3)
O23_2 O 0.1374(4) 0.2897(3) 0.6651(2)
C28_2 C 0.1117(4) 0.2815(4) 0.6374(4)
C29_2 C 0.3331(4) 0.3717(4) 0.7957(4)
C30_2 C 0.0012(5) 0.3602(6) 0.5462(4)
C31_2 C 0.0581(5) 0.3220(5) 0.5917(4)
H13_2 H 0.044380 0.290402 0.586772
C32_2 C 0.1252(5) 0.6675(5) 0.5488(4)
C33_2 C 0.1662(5) 0.7211(5) 0.5946(4)
H14_2 H 0.153924 0.749447 0.582793
C34_2 C 0.2929(6) 0.5559(5) 0.7975(4)
C35_2 C 0.0944(5) 0.3269(4) 0.6174(4)
C36_2 C 0.3091(5) 0.4171(5) 0.7797(4)
C37_2 C 0.2005(6) 0.7786(5) 0.6409(4)
C38_2 C 0.1573(5) 0.6733(5) 0.5810(4)
N7_2 N 0.1668(6) 0.5317(4) 0.6298(4)
N8_2 N 0.2254(6) 0.4426(4) 0.7052(4)
H15_2 H 0.216712 0.411431 0.702623
C39_2 C 0.3136(5) 0.4642(5) 0.7947(4)
H16_2 H 0.332435 0.468423 0.815234
C40_2 C 0.1929(6) 0.7268(5) 0.6252(4)
N9_2 N 0.1736(6) 0.4512(4) 0.6581(4)
C41_2 C 0.0423(6) 0.3637(5) 0.5733(4)
C42_2 C 0.2077(6) 0.6848(5) 0.6433(4)
H17_2 H 0.223967 0.688728 0.664936
C43_2 C 0.2904(5) 0.5047(5) 0.7795(4)
N10_2 N 0.2213(6) 0.5217(4) 0.6793(4)
C44_2 C 0.1140(6) 0.3735(6) 0.6250(5)
H18_2 H 0.137390 0.376740 0.643121
C45_2 C 0.1994(6) 0.6371(5) 0.6307(5)
C46_2 C 0.2803(7) 0.4113(5) 0.7500(5)
H19_2 H 0.277306 0.379423 0.739801
N11_2 N 0.2151(6) 0.5962(5) 0.6517(4)
H20_2 H 0.238563 0.603765 0.666572
C47_2 C 0.2001(7) 0.5467(6) 0.6530(5)
C48_2 C 0.0620(6) 0.4103(6) 0.5809(4)
H21_2 H 0.050113 0.438709 0.569056
C49_2 C 0.2608(6) 0.4995(5) 0.7503(4)
H22_2 H 0.244264 0.527425 0.740853
C50_2 C 0.2556(7) 0.4521(5) 0.7348(4)
C51_2 C 0.1727(7) 0.6306(5) 0.5997(5)
H23_2 H 0.165247 0.598320 0.591395
N12_2 N 0.1201(6) 0.4648(5) 0.6115(4)
H24_2 H 0.107658 0.487687 0.597931
C52_2 C 0.0997(7) 0.4155(5) 0.6062(5)
C53_2 C 0.2077(7) 0.4735(6) 0.6804(5)
C54_2 C 0.1561(8) 0.4821(7) 0.6345(5)
Cu7_2 Cu 0.05624(8) 0.70090(7) 0.500000
O26_2 O 0.2728(3) 0.7199(3) 0.8310(2)
O28_2 O 0.0580(3) 0.1798(3) 0.6751(2)
O29_3 O 0.1204(3) 0.6235(3) 0.4629(2)
O31_3 O 0.0191(4) 0.6027(3) 0.4649(3)
O33_2 O 0.1432(4) 0.1213(3) 0.6755(3)
O37_2 O 0.2103(3) 0.6374(4) 0.8349(2)
Cu1_2 Cu 0.94376(8) 0.29910(7) 0.500000
O1_2 O 0.7728(3) 0.2199(3) 0.6690(2)
O2_2 O 0.6798(3) 0.4420(3) 0.8249(2)
O3_2 O 0.8796(3) 0.3765(3) 0.5371(2)
O4_2 O 0.8933(4) 0.2943(3) 0.5358(2)
O6_2 O 0.7317(4) 0.4088(3) 0.7837(2)
O7_2 O 0.6432(4) 0.6213(3) 0.8245(3)
O9_2 O 0.8993(3) 0.7606(3) 0.6254(3)
O11_2 O 0.8626(4) 0.7103(3) 0.6651(2)
C1_2 C 0.8883(4) 0.7185(4) 0.6374(4)
C2_2 C 0.6669(4) 0.6283(4) 0.7957(4)
C3_2 C 0.9988(5) 0.6398(6) 0.5462(4)
C4_2 C 0.9419(5) 0.6780(5) 0.5917(4)
H1_2 H 0.955620 0.709598 0.586772
C5_2 C 0.8748(5) 0.3325(5) 0.5488(4)
C6_2 C 0.8338(5) 0.2789(5) 0.5946(4)
H2_2 H 0.846076 0.250553 0.582793
C7_2 C 0.7071(6) 0.4441(5) 0.7975(4)
C8_2 C 0.9056(5) 0.6731(4) 0.6174(4)
C9_2 C 0.6909(5) 0.5829(5) 0.7797(4)
C10_2 C 0.7995(6) 0.2214(5) 0.6409(4)
C11_2 C 0.8427(5) 0.3267(5) 0.5810(4)
N1_2 N 0.8332(6) 0.4683(4) 0.6298(4)
N2_2 N 0.7746(6) 0.5574(4) 0.7052(4)
H3_2 H 0.783288 0.588569 0.702623
C12_2 C 0.6864(5) 0.5358(5) 0.7947(4)
H4_2 H 0.667565 0.531577 0.815234
C13_2 C 0.8071(6) 0.2732(5) 0.6252(4)
N3_2 N 0.8264(6) 0.5488(4) 0.6581(4)
C14_2 C 0.9577(6) 0.6363(5) 0.5733(4)
C15_2 C 0.7923(6) 0.3152(5) 0.6433(4)
H5_2 H 0.776033 0.311272 0.664936
C16_2 C 0.7096(5) 0.4953(5) 0.7795(4)
N4_2 N 0.7787(6) 0.4783(4) 0.6793(4)
C17_2 C 0.8860(6) 0.6265(6) 0.6250(5)
H6_2 H 0.862610 0.623260 0.643121
C18_2 C 0.8006(6) 0.3629(5) 0.6307(5)
C19_2 C 0.7197(7) 0.5887(5) 0.7500(5)
H7_2 H 0.722694 0.620577 0.739801
N5_2 N 0.7849(6) 0.4038(5) 0.6517(4)
H8_2 H 0.761437 0.396235 0.666572
C20_2 C 0.7999(7) 0.4533(6) 0.6530(5)
C21_2 C 0.9380(6) 0.5897(6) 0.5809(4)
H9_2 H 0.949887 0.561291 0.569056
C22_2 C 0.7392(6) 0.5005(5) 0.7503(4)
H10_2 H 0.755736 0.472575 0.740853
C23_2 C 0.7444(7) 0.5479(5) 0.7348(4)
C24_2 C 0.8273(7) 0.3694(5) 0.5997(5)
H11_2 H 0.834753 0.401680 0.591395
N6_2 N 0.8799(6) 0.5352(5) 0.6115(4)
H12_2 H 0.892342 0.512313 0.597931
C25_2 C 0.9003(7) 0.5845(5) 0.6062(5)
C26_2 C 0.7923(7) 0.5265(6) 0.6804(5)
C27_2 C 0.8439(8) 0.5179(7) 0.6345(5)
O17_2 O 0.9809(4) 0.3973(3) 0.5351(3)
O22_2 O 0.9938(4) 0.3140(4) 0.5358(3)
Cu8_2 Cu 0.92862(8) 0.39146(8) 0.500000
O25_2 O 0.7272(3) 0.2801(3) 0.8310(2)
O27_2 O 0.9420(3) 0.8202(3) 0.6751(2)
O30_3 O 0.8933(4) 0.2943(3) 0.4642(2)
O32_2 O 0.8568(4) 0.8787(3) 0.6755(3)
O36_3 O 0.9938(4) 0.3140(4) 0.4642(3)
O38_2 O 0.7897(3) 0.3626(4) 0.8349(2)
O30_4 O 0.1067(4) 0.7057(3) 0.4642(2)
O36_4 O 0.0062(4) 0.6860(4) 0.4642(3)
O29_4 O 0.8796(3) 0.3765(3) 0.4629(2)
O31_4 O 0.9809(4) 0.3973(3) 0.4649(3)
Cu2_3 Cu 0.10854(8) 0.42862(8) 0.000000
Cu4_2 Cu 0.32226(6) 0.61948(6) 0.14822(4)
O5_3 O 0.1027(3) 0.4809(4) 0.0351(3)
O7_3 O 0.1213(3) 0.8568(4) 0.3245(3)
O9_3 O 0.2606(3) 0.6007(3) 0.1254(3)
O10_3 O 0.1860(4) 0.4938(4) 0.0358(3)
O11_3 O 0.2103(3) 0.6374(4) 0.1651(2)
O12_2 O 0.1707(3) 0.8255(3) 0.2817(2)
C1_3 C 0.2185(4) 0.6117(4) 0.1374(4)
C2_3 C 0.1283(4) 0.8331(4) 0.2957(4)
C3_3 C 0.1398(6) 0.5012(5) 0.0462(4)
C4_3 C 0.1780(5) 0.5581(5) 0.0917(4)
H1_3 H 0.209598 0.544380 0.086772
C8_3 C 0.1731(4) 0.5944(5) 0.1174(4)
C9_3 C 0.0829(5) 0.8091(5) 0.2797(4)
N2_3 N 0.0574(4) 0.7254(6) 0.2052(4)
H3_3 H 0.088569 0.716712 0.202623
C12_3 C 0.0358(5) 0.8136(5) 0.2947(4)
H4_3 H 0.031577 0.832435 0.315234
N3_3 N 0.0488(4) 0.6736(6) 0.1581(4)
C14_3 C 0.1363(5) 0.5423(6) 0.0733(4)
C17_3 C 0.1265(6) 0.6140(6) 0.1250(5)
H6_3 H 0.123260 0.637390 0.143121
C19_3 C 0.0887(5) 0.7803(7) 0.2500(5)
H7_3 H 0.120577 0.777306 0.239801
C21_3 C 0.0897(6) 0.5620(6) 0.0809(4)
H9_3 H 0.061291 0.550113 0.069056
C22_3 C 0.0005(5) 0.7608(6) 0.2503(4)
C23_3 C 0.0479(5) 0.7556(7) 0.2348(4)
N6_3 N 0.0352(5) 0.6201(6) 0.1115(4)
H12_3 H 0.012313 0.607658 0.097931
C25_3 C 0.0845(5) 0.5997(7) 0.1062(5)
C26_3 C 0.0265(6) 0.7077(7) 0.1804(5)
C27_3 C 0.0179(7) 0.6561(8) 0.1345(5)
Cu5_2 Cu 0.15691(5) 0.23229(5) 0.30569(4)
O13_3 O 0.2801(3) 0.2728(3) 0.1690(2)
O14_3 O 0.0580(3) 0.1798(3) 0.3249(2)
O15_3 O 0.1235(3) 0.3796(3) 0.0371(2)
O16_3 O 0.2057(3) 0.3933(4) 0.0358(2)
O18_3 O 0.0912(3) 0.2317(4) 0.2837(2)
O20_2 O 0.3152(3) 0.3198(4) 0.1259(2)
C32_3 C 0.1675(5) 0.3748(5) 0.0488(4)
C33_3 C 0.2211(5) 0.3338(5) 0.0946(4)
H14_3 H 0.249447 0.346076 0.082793
C34_3 C 0.0559(5) 0.2071(6) 0.2975(4)
C37_3 C 0.2786(5) 0.2995(6) 0.1409(4)
C38_3 C 0.1733(5) 0.3427(5) 0.0810(4)
N7_3 N 0.0317(4) 0.3332(6) 0.1298(4)
C40_3 C 0.2268(5) 0.3071(6) 0.1252(4)
C42_3 C 0.1848(5) 0.2923(6) 0.1433(4)
H17_3 H 0.188728 0.276033 0.164936
C43_3 C 0.0047(5) 0.2096(5) 0.2795(4)
N10_3 N 0.0217(4) 0.2787(6) 0.1793(4)
C45_3 C 0.1371(5) 0.3006(6) 0.1307(5)
N11_3 N 0.0962(5) 0.2849(6) 0.1517(4)
H20_3 H 0.103765 0.261437 0.166572
C47_3 C 0.0467(6) 0.2999(7) 0.1530(5)
H22_3 H 0.027425 0.255736 0.240853
C51_3 C 0.1306(5) 0.3273(7) 0.0997(5)
H23_3 H 0.098320 0.334753 0.091395
Cu7_3 Cu 0.20090(7) 0.44376(8) 0.000000
Cu9_2 Cu 0.23229(5) 0.84309(5) 0.30569(4)
Cu12_2 Cu 0.34309(5) 0.26771(5) 0.19431(4)
Cu13_2 Cu 0.26771(5) 0.65691(5) 0.19431(4)
Cu15_2 Cu 0.38052(6) 0.32226(6) 0.14822(4)
Cu17_2 Cu 0.17774(6) 0.88052(6) 0.35178(4)
Cu19_2 Cu 0.11948(6) 0.17774(6) 0.35178(4)
O26_3 O 0.2199(3) 0.2272(3) 0.3310(2)
O27_3 O 0.3202(3) 0.5580(3) 0.1751(2)
O32_3 O 0.3787(3) 0.6432(4) 0.1755(3)
O34_2 O 0.3198(4) 0.6848(3) 0.1259(2)
O37_3 O 0.1374(4) 0.2897(3) 0.3349(2)
O39_2 O 0.1745(3) 0.1707(3) 0.2817(2)
Cu2_4 Cu 0.10854(8) 0.42862(8) 1.000000
Cu7_4 Cu 0.20090(7) 0.44376(8) 1.000000
O29_5 O 0.1235(3) 0.3796(3) 0.9629(2)
O31_5 O 0.1027(3) 0.4809(4) 0.9649(3)
Cu1_3 Cu 0.79910(7) 0.55624(8) 0.000000
Cu3_2 Cu 0.84309(5) 0.76771(5) 0.30569(4)
O1_3 O 0.7199(3) 0.7272(3) 0.1690(2)
O2_3 O 0.9420(3) 0.8202(3) 0.3249(2)
O3_3 O 0.8765(3) 0.6204(3) 0.0371(2)
O4_3 O 0.7943(3) 0.6067(4) 0.0358(2)
O6_3 O 0.9088(3) 0.7683(4) 0.2837(2)
O8_2 O 0.6848(3) 0.6802(4) 0.1259(2)
C5_3 C 0.8325(5) 0.6252(5) 0.0488(4)
C6_3 C 0.7789(5) 0.6662(5) 0.0946(4)
H2_3 H 0.750553 0.653924 0.082793
C7_3 C 0.9441(5) 0.7929(6) 0.2975(4)
C10_3 C 0.7214(5) 0.7005(6) 0.1409(4)
C11_3 C 0.8267(5) 0.6573(5) 0.0810(4)
N1_3 N 0.9683(4) 0.6668(6) 0.1298(4)
C13_3 C 0.7732(5) 0.6929(6) 0.1252(4)
C15_3 C 0.8152(5) 0.7077(6) 0.1433(4)
H5_3 H 0.811272 0.723967 0.164936
C16_3 C 0.9953(5) 0.7904(5) 0.2795(4)
N4_3 N 0.9783(4) 0.7213(6) 0.1793(4)
C18_3 C 0.8629(5) 0.6994(6) 0.1307(5)
N5_3 N 0.9038(5) 0.7151(6) 0.1517(4)
H8_3 H 0.896235 0.738563 0.166572
C20_3 C 0.9533(6) 0.7001(7) 0.1530(5)
H10_3 H 0.972575 0.744264 0.240853
C24_3 C 0.8694(5) 0.6727(7) 0.0997(5)
H11_3 H 0.901680 0.665247 0.091395
Cu6_2 Cu 0.67774(6) 0.38052(6) 0.14822(4)
O17_3 O 0.8973(3) 0.5191(4) 0.0351(3)
O19_3 O 0.8787(3) 0.1432(4) 0.3245(3)
O21_3 O 0.7394(3) 0.3993(3) 0.1254(3)
O22_3 O 0.8140(4) 0.5062(4) 0.0358(3)
O23_3 O 0.7897(3) 0.3626(4) 0.1651(2)
O24_2 O 0.8293(3) 0.1745(3) 0.2817(2)
C28_3 C 0.7815(4) 0.3883(4) 0.1374(4)
C29_3 C 0.8717(4) 0.1669(4) 0.2957(4)
C30_3 C 0.8602(6) 0.4988(5) 0.0462(4)
C31_3 C 0.8220(5) 0.4419(5) 0.0917(4)
H13_3 H 0.790402 0.455620 0.086772
C35_3 C 0.8269(4) 0.4056(5) 0.1174(4)
C36_3 C 0.9171(5) 0.1909(5) 0.2797(4)
N8_3 N 0.9426(4) 0.2746(6) 0.2052(4)
H15_3 H 0.911431 0.283288 0.202623
C39_3 C 0.9642(5) 0.1864(5) 0.2947(4)
H16_3 H 0.968423 0.167565 0.315234
N9_3 N 0.9512(4) 0.3264(6) 0.1581(4)
C41_3 C 0.8637(5) 0.4577(6) 0.0733(4)
C44_3 C 0.8735(6) 0.3860(6) 0.1250(5)
H18_3 H 0.876740 0.362610 0.143121
C46_3 C 0.9113(5) 0.2197(7) 0.2500(5)
H19_3 H 0.879423 0.222694 0.239801
C48_3 C 0.9103(6) 0.4380(6) 0.0809(4)
H21_3 H 0.938709 0.449887 0.069056
C49_3 C 0.9995(5) 0.2392(6) 0.2503(4)
C50_3 C 0.9521(5) 0.2444(7) 0.2348(4)
N12_3 N 0.9648(5) 0.3799(6) 0.1115(4)
H24_3 H 0.987687 0.392342 0.097931
C52_3 C 0.9155(5) 0.4003(7) 0.1062(5)
C53_3 C 0.9735(6) 0.2923(7) 0.1804(5)
C54_3 C 0.9821(7) 0.3439(8) 0.1345(5)
Cu8_3 Cu 0.89146(8) 0.57138(8) 0.000000
Cu10_2 Cu 0.76771(5) 0.15691(5) 0.30569(4)
Cu11_2 Cu 0.65691(5) 0.73229(5) 0.19431(4)
Cu14_2 Cu 0.73229(5) 0.34309(5) 0.19431(4)
Cu16_2 Cu 0.61948(6) 0.67774(6) 0.14822(4)
Cu18_2 Cu 0.82226(6) 0.11948(6) 0.35178(4)
Cu20_2 Cu 0.88052(6) 0.82226(6) 0.35178(4)
O25_3 O 0.7801(3) 0.7728(3) 0.3310(2)
O28_3 O 0.6798(3) 0.4420(3) 0.1751(2)
O33_3 O 0.6213(3) 0.3568(4) 0.1755(3)
O35_2 O 0.6802(4) 0.3152(3) 0.1259(2)
O38_3 O 0.8626(4) 0.7103(3) 0.3349(2)
O40_2 O 0.8255(3) 0.8293(3) 0.2817(2)
Cu1_4 Cu 0.79910(7) 0.55624(8) 1.000000
Cu8_4 Cu 0.89146(8) 0.57138(8) 1.000000
O30_5 O 0.7943(3) 0.6067(4) 0.9642(2)
O36_5 O 0.8140(4) 0.5062(4) 0.9642(3)
O30_6 O 0.2057(3) 0.3933(4) 0.9642(2)
O36_6 O 0.1860(4) 0.4938(4) 0.9642(3)
O29_6 O 0.8765(3) 0.6204(3) 0.9629(2)
O31_6 O 0.8973(3) 0.5191(4) 0.9649(3)
Cu2_5 Cu 0.57138(8) 0.10854(8) 0.000000
O5_4 O 0.5191(4) 0.1027(3) 0.0351(3)
O7_4 O 0.1432(4) 0.1213(3) 0.3245(3)
O9_4 O 0.3993(3) 0.2606(3) 0.1254(3)
O10_4 O 0.5062(4) 0.1860(4) 0.0358(3)
O11_4 O 0.3626(4) 0.2103(3) 0.1651(2)
C1_4 C 0.3883(4) 0.2185(4) 0.1374(4)
C2_4 C 0.1669(4) 0.1283(4) 0.2957(4)
C3_4 C 0.4988(5) 0.1398(6) 0.0462(4)
C4_4 C 0.4419(5) 0.1780(5) 0.0917(4)
H1_4 H 0.455620 0.209598 0.086772
C8_4 C 0.4056(5) 0.1731(4) 0.1174(4)
C9_4 C 0.1909(5) 0.0829(5) 0.2797(4)
N2_4 N 0.2746(6) 0.0574(4) 0.2052(4)
H3_4 H 0.283288 0.088569 0.202623
C12_4 C 0.1864(5) 0.0358(5) 0.2947(4)
H4_4 H 0.167565 0.031577 0.315234
N3_4 N 0.3264(6) 0.0488(4) 0.1581(4)
C14_4 C 0.4577(6) 0.1363(5) 0.0733(4)
C17_4 C 0.3860(6) 0.1265(6) 0.1250(5)
H6_4 H 0.362610 0.123260 0.143121
C19_4 C 0.2197(7) 0.0887(5) 0.2500(5)
H7_4 H 0.222694 0.120577 0.239801
C21_4 C 0.4380(6) 0.0897(6) 0.0809(4)
H9_4 H 0.449887 0.061291 0.069056
C22_4 C 0.2392(6) 0.0005(5) 0.2503(4)
C23_4 C 0.2444(7) 0.0479(5) 0.2348(4)
N6_4 N 0.3799(6) 0.0352(5) 0.1115(4)
H12_4 H 0.392342 0.012313 0.097931
C25_4 C 0.4003(7) 0.0845(5) 0.1062(5)
C26_4 C 0.2923(7) 0.0265(6) 0.1804(5)
C27_4 C 0.3439(8) 0.0179(7) 0.1345(5)
O13_4 O 0.7272(3) 0.2801(3) 0.1690(2)
O14_4 O 0.8202(3) 0.0580(3) 0.3249(2)
O15_4 O 0.6204(3) 0.1235(3) 0.0371(2)
O16_4 O 0.6067(4) 0.2057(3) 0.0358(2)
O18_4 O 0.7683(4) 0.0912(3) 0.2837(2)
C32_4 C 0.6252(5) 0.1675(5) 0.0488(4)
C33_4 C 0.6662(5) 0.2211(5) 0.0946(4)
H14_4 H 0.653924 0.249447 0.082793
C34_4 C 0.7929(6) 0.0559(5) 0.2975(4)
C37_4 C 0.7005(6) 0.2786(5) 0.1409(4)
C38_4 C 0.6573(5) 0.1733(5) 0.0810(4)
N7_4 N 0.6668(6) 0.0317(4) 0.1298(4)
C40_4 C 0.6929(6) 0.2268(5) 0.1252(4)
C42_4 C 0.7077(6) 0.1848(5) 0.1433(4)
H17_4 H 0.723967 0.188728 0.164936
C43_4 C 0.7904(5) 0.0047(5) 0.2795(4)
N10_4 N 0.7213(6) 0.0217(4) 0.1793(4)
C45_4 C 0.6994(6) 0.1371(5) 0.1307(5)
N11_4 N 0.7151(6) 0.0962(5) 0.1517(4)
H20_4 H 0.738563 0.103765 0.166572
C47_4 C 0.7001(7) 0.0467(6) 0.1530(5)
H22_4 H 0.744264 0.027425 0.240853
C51_4 C 0.6727(7) 0.1306(5) 0.0997(5)
H23_4 H 0.665247 0.098320 0.091395
Cu7_5 Cu 0.55624(8) 0.20090(7) 0.000000
O26_4 O 0.7728(3) 0.2199(3) 0.3310(2)
O27_4 O 0.4420(3) 0.3202(3) 0.1751(2)
O32_4 O 0.3568(4) 0.3787(3) 0.1755(3)
O37_4 O 0.7103(3) 0.1374(4) 0.3349(2)
Cu2_6 Cu 0.57138(8) 0.10854(8) 1.000000
Cu7_6 Cu 0.55624(8) 0.20090(7) 1.000000
O29_7 O 0.6204(3) 0.1235(3) 0.9629(2)
O31_7 O 0.5191(4) 0.1027(3) 0.9649(3)
Cu1_5 Cu 0.44376(8) 0.79910(7) 0.000000
O1_4 O 0.2728(3) 0.7199(3) 0.1690(2)
O2_4 O 0.1798(3) 0.9420(3) 0.3249(2)
O3_4 O 0.3796(3) 0.8765(3) 0.0371(2)
O4_4 O 0.3933(4) 0.7943(3) 0.0358(2)
O6_4 O 0.2317(4) 0.9088(3) 0.2837(2)
C5_4 C 0.3748(5) 0.8325(5) 0.0488(4)
C6_4 C 0.3338(5) 0.7789(5) 0.0946(4)
H2_4 H 0.346076 0.750553 0.082793
C7_4 C 0.2071(6) 0.9441(5) 0.2975(4)
C10_4 C 0.2995(6) 0.7214(5) 0.1409(4)
C11_4 C 0.3427(5) 0.8267(5) 0.0810(4)
N1_4 N 0.3332(6) 0.9683(4) 0.1298(4)
C13_4 C 0.3071(6) 0.7732(5) 0.1252(4)
C15_4 C 0.2923(6) 0.8152(5) 0.1433(4)
H5_4 H 0.276033 0.811272 0.164936
C16_4 C 0.2096(5) 0.9953(5) 0.2795(4)
N4_4 N 0.2787(6) 0.9783(4) 0.1793(4)
C18_4 C 0.3006(6) 0.8629(5) 0.1307(5)
N5_4 N 0.2849(6) 0.9038(5) 0.1517(4)
H8_4 H 0.261437 0.896235 0.166572
C20_4 C 0.2999(7) 0.9533(6) 0.1530(5)
H10_4 H 0.255736 0.972575 0.240853
C24_4 C 0.3273(7) 0.8694(5) 0.0997(5)
H11_4 H 0.334753 0.901680 0.091395
O17_4 O 0.4809(4) 0.8973(3) 0.0351(3)
O19_4 O 0.8568(4) 0.8787(3) 0.3245(3)
O21_4 O 0.6007(3) 0.7394(3) 0.1254(3)
O22_4 O 0.4938(4) 0.8140(4) 0.0358(3)
O23_4 O 0.6374(4) 0.7897(3) 0.1651(2)
C28_4 C 0.6117(4) 0.7815(4) 0.1374(4)
C29_4 C 0.8331(4) 0.8717(4) 0.2957(4)
C30_4 C 0.5012(5) 0.8602(6) 0.0462(4)
C31_4 C 0.5581(5) 0.8220(5) 0.0917(4)
H13_4 H 0.544380 0.790402 0.086772
C35_4 C 0.5944(5) 0.8269(4) 0.1174(4)
C36_4 C 0.8091(5) 0.9171(5) 0.2797(4)
N8_4 N 0.7254(6) 0.9426(4) 0.2052(4)
H15_4 H 0.716712 0.911431 0.202623
C39_4 C 0.8136(5) 0.9642(5) 0.2947(4)
H16_4 H 0.832435 0.968423 0.315234
N9_4 N 0.6736(6) 0.9512(4) 0.1581(4)
C41_4 C 0.5423(6) 0.8637(5) 0.0733(4)
C44_4 C 0.6140(6) 0.8735(6) 0.1250(5)
H18_4 H 0.637390 0.876740 0.143121
C46_4 C 0.7803(7) 0.9113(5) 0.2500(5)
H19_4 H 0.777306 0.879423 0.239801
C48_4 C 0.5620(6) 0.9103(6) 0.0809(4)
H21_4 H 0.550113 0.938709 0.069056
C49_4 C 0.7608(6) 0.9995(5) 0.2503(4)
C50_4 C 0.7556(7) 0.9521(5) 0.2348(4)
N12_4 N 0.6201(6) 0.9648(5) 0.1115(4)
H24_4 H 0.607658 0.987687 0.097931
C52_4 C 0.5997(7) 0.9155(5) 0.1062(5)
C53_4 C 0.7077(7) 0.9735(6) 0.1804(5)
C54_4 C 0.6561(8) 0.9821(7) 0.1345(5)
Cu8_5 Cu 0.42862(8) 0.89146(8) 0.000000
O25_4 O 0.2272(3) 0.7801(3) 0.3310(2)
O28_4 O 0.5580(3) 0.6798(3) 0.1751(2)
O33_4 O 0.6432(4) 0.6213(3) 0.1755(3)
O38_4 O 0.2897(3) 0.8626(4) 0.3349(2)
Cu1_6 Cu 0.44376(8) 0.79910(7) 1.000000
Cu8_6 Cu 0.42862(8) 0.89146(8) 1.000000
O30_7 O 0.3933(4) 0.7943(3) 0.9642(2)
O36_7 O 0.4938(4) 0.8140(4) 0.9642(3)
O30_8 O 0.6067(4) 0.2057(3) 0.9642(2)
O36_8 O 0.5062(4) 0.1860(4) 0.9642(3)
O29_8 O 0.3796(3) 0.8765(3) 0.9629(2)
O31_8 O 0.4809(4) 0.8973(3) 0.9649(3)
O18_5 O 0.4088(3) 0.2683(4) 0.2163(2)
O20_3 O 0.1848(3) 0.1802(4) 0.3741(2)
O21_5 O 0.7606(3) 0.1007(3) 0.3746(3)
O24_3 O 0.6707(3) 0.3255(3) 0.2183(2)
C28_5 C 0.7185(4) 0.1117(4) 0.3626(4)
C29_5 C 0.6283(4) 0.3331(4) 0.2043(4)
C30_5 C 0.6398(6) 0.0012(5) 0.4538(4)
C31_5 C 0.6780(5) 0.0581(5) 0.4083(4)
H13_5 H 0.709598 0.044380 0.413228
C32_5 C 0.3325(5) 0.1252(5) 0.4512(4)
C33_5 C 0.2789(5) 0.1662(5) 0.4054(4)
H14_5 H 0.250553 0.153924 0.417207
C34_5 C 0.4441(5) 0.2929(6) 0.2025(4)
C35_5 C 0.6731(4) 0.0944(5) 0.3826(4)
C36_5 C 0.5829(5) 0.3091(5) 0.2203(4)
C37_5 C 0.2214(5) 0.2005(6) 0.3591(4)
C38_5 C 0.3267(5) 0.1573(5) 0.4190(4)
N7_5 N 0.4683(4) 0.1668(6) 0.3702(4)
N8_5 N 0.5574(4) 0.2254(6) 0.2948(4)
H15_5 H 0.588569 0.216712 0.297377
C39_5 C 0.5358(5) 0.3136(5) 0.2053(4)
H16_5 H 0.531577 0.332435 0.184766
C40_5 C 0.2732(5) 0.1929(6) 0.3748(4)
N9_5 N 0.5488(4) 0.1736(6) 0.3419(4)
C41_5 C 0.6363(5) 0.0423(6) 0.4267(4)
C42_5 C 0.3152(5) 0.2077(6) 0.3567(4)
H17_5 H 0.311272 0.223967 0.335064
C43_5 C 0.4953(5) 0.2904(5) 0.2205(4)
N10_5 N 0.4783(4) 0.2213(6) 0.3207(4)
C44_5 C 0.6265(6) 0.1140(6) 0.3750(5)
H18_5 H 0.623260 0.137390 0.356879
C45_5 C 0.3629(5) 0.1994(6) 0.3693(5)
C46_5 C 0.5887(5) 0.2803(7) 0.2500(5)
H19_5 H 0.620577 0.277306 0.260199
N11_5 N 0.4038(5) 0.2151(6) 0.3483(4)
H20_5 H 0.396235 0.238563 0.333428
C47_5 C 0.4533(6) 0.2001(7) 0.3470(5)
C48_5 C 0.5897(6) 0.0620(6) 0.4191(4)
H21_5 H 0.561291 0.050113 0.430944
C49_5 C 0.5005(5) 0.2608(6) 0.2497(4)
H22_5 H 0.472575 0.244264 0.259147
C50_5 C 0.5479(5) 0.2556(7) 0.2652(4)
C51_5 C 0.3694(5) 0.1727(7) 0.4003(5)
H23_5 H 0.401680 0.165247 0.408605
N12_5 N 0.5352(5) 0.1201(6) 0.3885(4)
H24_5 H 0.512313 0.107658 0.402069
C52_5 C 0.5845(5) 0.0997(7) 0.3938(5)
C53_5 C 0.5265(6) 0.2077(7) 0.3196(5)
C54_5 C 0.5179(7) 0.1561(8) 0.3655(5)
O35_3 O 0.8198(4) 0.1848(3) 0.3741(2)
O39_3 O 0.3255(3) 0.3293(3) 0.2183(2)
O6_5 O 0.5912(3) 0.7317(4) 0.2163(2)
O8_3 O 0.8152(3) 0.8198(4) 0.3741(2)
O9_5 O 0.2394(3) 0.8993(3) 0.3746(3)
O12_3 O 0.3293(3) 0.6745(3) 0.2183(2)
C1_5 C 0.2815(4) 0.8883(4) 0.3626(4)
C2_5 C 0.3717(4) 0.6669(4) 0.2043(4)
C3_5 C 0.3602(6) 0.9988(5) 0.4538(4)
C4_5 C 0.3220(5) 0.9419(5) 0.4083(4)
H1_5 H 0.290402 0.955620 0.413228
C5_5 C 0.6675(5) 0.8748(5) 0.4512(4)
C6_5 C 0.7211(5) 0.8338(5) 0.4054(4)
H2_5 H 0.749447 0.846076 0.417207
C7_5 C 0.5559(5) 0.7071(6) 0.2025(4)
C8_5 C 0.3269(4) 0.9056(5) 0.3826(4)
C9_5 C 0.4171(5) 0.6909(5) 0.2203(4)
C10_5 C 0.7786(5) 0.7995(6) 0.3591(4)
C11_5 C 0.6733(5) 0.8427(5) 0.4190(4)
N1_5 N 0.5317(4) 0.8332(6) 0.3702(4)
N2_5 N 0.4426(4) 0.7746(6) 0.2948(4)
H3_5 H 0.411431 0.783288 0.297377
C12_5 C 0.4642(5) 0.6864(5) 0.2053(4)
H4_5 H 0.468423 0.667565 0.184766
C13_5 C 0.7268(5) 0.8071(6) 0.3748(4)
N3_5 N 0.4512(4) 0.8264(6) 0.3419(4)
C14_5 C 0.3637(5) 0.9577(6) 0.4267(4)
C15_5 C 0.6848(5) 0.7923(6) 0.3567(4)
H5_5 H 0.688728 0.776033 0.335064
C16_5 C 0.5047(5) 0.7096(5) 0.2205(4)
N4_5 N 0.5217(4) 0.7787(6) 0.3207(4)
C17_5 C 0.3735(6) 0.8860(6) 0.3750(5)
H6_5 H 0.376740 0.862610 0.356879
C18_5 C 0.6371(5) 0.8006(6) 0.3693(5)
C19_5 C 0.4113(5) 0.7197(7) 0.2500(5)
H7_5 H 0.379423 0.722694 0.260199
N5_5 N 0.5962(5) 0.7849(6) 0.3483(4)
H8_5 H 0.603765 0.761437 0.333428
C20_5 C 0.5467(6) 0.7999(7) 0.3470(5)
C21_5 C 0.4103(6) 0.9380(6) 0.4191(4)
H9_5 H 0.438709 0.949887 0.430944
C22_5 C 0.4995(5) 0.7392(6) 0.2497(4)
H10_5 H 0.527425 0.755736 0.259147
C23_5 C 0.4521(5) 0.7444(7) 0.2652(4)
C24_5 C 0.6306(5) 0.8273(7) 0.4003(5)
H11_5 H 0.598320 0.834753 0.408605
N6_5 N 0.4648(5) 0.8799(6) 0.3885(4)
H12_5 H 0.487687 0.892342 0.402069
C25_5 C 0.4155(5) 0.9003(7) 0.3938(5)
C26_5 C 0.4735(6) 0.7923(7) 0.3196(5)
C27_5 C 0.4821(7) 0.8439(8) 0.3655(5)
O34_3 O 0.1802(4) 0.8152(3) 0.3741(2)
O40_3 O 0.6745(3) 0.6707(3) 0.2183(2)
O6_6 O 0.2683(4) 0.5912(3) 0.2163(2)
O9_6 O 0.1007(3) 0.2394(3) 0.3746(3)
C1_6 C 0.1117(4) 0.2815(4) 0.3626(4)
C2_6 C 0.3331(4) 0.3717(4) 0.2043(4)
C3_6 C 0.0012(5) 0.3602(6) 0.4538(4)
C4_6 C 0.0581(5) 0.3220(5) 0.4083(4)
H1_6 H 0.044380 0.290402 0.413228
C5_6 C 0.1252(5) 0.6675(5) 0.4512(4)
C6_6 C 0.1662(5) 0.7211(5) 0.4054(4)
H2_6 H 0.153924 0.749447 0.417207
C7_6 C 0.2929(6) 0.5559(5) 0.2025(4)
C8_6 C 0.0944(5) 0.3269(4) 0.3826(4)
C9_6 C 0.3091(5) 0.4171(5) 0.2203(4)
C10_6 C 0.2005(6) 0.7786(5) 0.3591(4)
C11_6 C 0.1573(5) 0.6733(5) 0.4190(4)
N1_6 N 0.1668(6) 0.5317(4) 0.3702(4)
N2_6 N 0.2254(6) 0.4426(4) 0.2948(4)
H3_6 H 0.216712 0.411431 0.297377
C12_6 C 0.3136(5) 0.4642(5) 0.2053(4)
H4_6 H 0.332435 0.468423 0.184766
C13_6 C 0.1929(6) 0.7268(5) 0.3748(4)
N3_6 N 0.1736(6) 0.4512(4) 0.3419(4)
C14_6 C 0.0423(6) 0.3637(5) 0.4267(4)
C15_6 C 0.2077(6) 0.6848(5) 0.3567(4)
H5_6 H 0.223967 0.688728 0.335064
C16_6 C 0.2904(5) 0.5047(5) 0.2205(4)
N4_6 N 0.2213(6) 0.5217(4) 0.3207(4)
C17_6 C 0.1140(6) 0.3735(6) 0.3750(5)
H6_6 H 0.137390 0.376740 0.356879
C18_6 C 0.1994(6) 0.6371(5) 0.3693(5)
C19_6 C 0.2803(7) 0.4113(5) 0.2500(5)
H7_6 H 0.277306 0.379423 0.260199
N5_6 N 0.2151(6) 0.5962(5) 0.3483(4)
H8_6 H 0.238563 0.603765 0.333428
C20_6 C 0.2001(7) 0.5467(6) 0.3470(5)
C21_6 C 0.0620(6) 0.4103(6) 0.4191(4)
H9_6 H 0.050113 0.438709 0.430944
C22_6 C 0.2608(6) 0.4995(5) 0.2497(4)
H10_6 H 0.244264 0.527425 0.259147
C23_6 C 0.2556(7) 0.4521(5) 0.2652(4)
C24_6 C 0.1727(7) 0.6306(5) 0.4003(5)
H11_6 H 0.165247 0.598320 0.408605
N6_6 N 0.1201(6) 0.4648(5) 0.3885(4)
H12_6 H 0.107658 0.487687 0.402069
C25_6 C 0.0997(7) 0.4155(5) 0.3938(5)
C26_6 C 0.2077(7) 0.4735(6) 0.3196(5)
C27_6 C 0.1561(8) 0.4821(7) 0.3655(5)
O18_6 O 0.7317(4) 0.4088(3) 0.2163(2)
O21_6 O 0.8993(3) 0.7606(3) 0.3746(3)
C28_6 C 0.8883(4) 0.7185(4) 0.3626(4)
C29_6 C 0.6669(4) 0.6283(4) 0.2043(4)
C30_6 C 0.9988(5) 0.6398(6) 0.4538(4)
C31_6 C 0.9419(5) 0.6780(5) 0.4083(4)
H13_6 H 0.955620 0.709598 0.413228
C32_6 C 0.8748(5) 0.3325(5) 0.4512(4)
C33_6 C 0.8338(5) 0.2789(5) 0.4054(4)
H14_6 H 0.846076 0.250553 0.417207
C34_6 C 0.7071(6) 0.4441(5) 0.2025(4)
C35_6 C 0.9056(5) 0.6731(4) 0.3826(4)
C36_6 C 0.6909(5) 0.5829(5) 0.2203(4)
C37_6 C 0.7995(6) 0.2214(5) 0.3591(4)
C38_6 C 0.8427(5) 0.3267(5) 0.4190(4)
N7_6 N 0.8332(6) 0.4683(4) 0.3702(4)
N8_6 N 0.7746(6) 0.5574(4) 0.2948(4)
H15_6 H 0.783288 0.588569 0.297377
C39_6 C 0.6864(5) 0.5358(5) 0.2053(4)
H16_6 H 0.667565 0.531577 0.184766
C40_6 C 0.8071(6) 0.2732(5) 0.3748(4)
N9_6 N 0.8264(6) 0.5488(4) 0.3419(4)
C41_6 C 0.9577(6) 0.6363(5) 0.4267(4)
C42_6 C 0.7923(6) 0.3152(5) 0.3567(4)
H17_6 H 0.776033 0.311272 0.335064
C43_6 C 0.7096(5) 0.4953(5) 0.2205(4)
N10_6 N 0.7787(6) 0.4783(4) 0.3207(4)
C44_6 C 0.8860(6) 0.6265(6) 0.3750(5)
H18_6 H 0.862610 0.623260 0.356879
C45_6 C 0.8006(6) 0.3629(5) 0.3693(5)
C46_6 C 0.7197(7) 0.5887(5) 0.2500(5)
H19_6 H 0.722694 0.620577 0.260199
N11_6 N 0.7849(6) 0.4038(5) 0.3483(4)
H20_6 H 0.761437 0.396235 0.333428
C47_6 C 0.7999(7) 0.4533(6) 0.3470(5)
C48_6 C 0.9380(6) 0.5897(6) 0.4191(4)
H21_6 H 0.949887 0.561291 0.430944
C49_6 C 0.7392(6) 0.5005(5) 0.2497(4)
H22_6 H 0.755736 0.472575 0.259147
C50_6 C 0.7444(7) 0.5479(5) 0.2652(4)
C51_6 C 0.8273(7) 0.3694(5) 0.4003(5)
H23_6 H 0.834753 0.401680 0.408605
N12_6 N 0.8799(6) 0.5352(5) 0.3885(4)
H24_6 H 0.892342 0.512313 0.402069
C52_6 C 0.9003(7) 0.5845(5) 0.3938(5)
C53_6 C 0.7923(7) 0.5265(6) 0.3196(5)
C54_6 C 0.8439(8) 0.5179(7) 0.3655(5)
O6_7 O 0.0912(3) 0.2317(4) 0.7163(2)
O8_4 O 0.3152(3) 0.3198(4) 0.8741(2)
C5_7 C 0.1675(5) 0.3748(5) 0.9512(4)
C6_7 C 0.2211(5) 0.3338(5) 0.9054(4)
H2_7 H 0.249447 0.346076 0.917207
C7_7 C 0.0559(5) 0.2071(6) 0.7025(4)
C10_7 C 0.2786(5) 0.2995(6) 0.8591(4)
C11_7 C 0.1733(5) 0.3427(5) 0.9190(4)
N1_7 N 0.0317(4) 0.3332(6) 0.8702(4)
C13_7 C 0.2268(5) 0.3071(6) 0.8748(4)
C15_7 C 0.1848(5) 0.2923(6) 0.8567(4)
H5_7 H 0.188728 0.276033 0.835064
C16_7 C 0.0047(5) 0.2096(5) 0.7205(4)
N4_7 N 0.0217(4) 0.2787(6) 0.8207(4)
C18_7 C 0.1371(5) 0.3006(6) 0.8693(5)
N5_7 N 0.0962(5) 0.2849(6) 0.8483(4)
H8_7 H 0.103765 0.261437 0.833428
C20_7 C 0.0467(6) 0.2999(7) 0.8470(5)
H10_7 H 0.027425 0.255736 0.759147
C24_7 C 0.1306(5) 0.3273(7) 0.9003(5)
H11_7 H 0.098320 0.334753 0.908605
O21_7 O 0.2606(3) 0.6007(3) 0.8746(3)
O24_4 O 0.1707(3) 0.8255(3) 0.7183(2)
C28_7 C 0.2185(4) 0.6117(4) 0.8626(4)
C29_7 C 0.1283(4) 0.8331(4) 0.7043(4)
C30_7 C 0.1398(6) 0.5012(5) 0.9538(4)
C31_7 C 0.1780(5) 0.5581(5) 0.9083(4)
H13_7 H 0.209598 0.544380 0.913228
C35_7 C 0.1731(4) 0.5944(5) 0.8826(4)
C36_7 C 0.0829(5) 0.8091(5) 0.7203(4)
N8_7 N 0.0574(4) 0.7254(6) 0.7948(4)
H15_7 H 0.088569 0.716712 0.797377
C39_7 C 0.0358(5) 0.8136(5) 0.7053(4)
H16_7 H 0.031577 0.832435 0.684766
N9_7 N 0.0488(4) 0.6736(6) 0.8419(4)
C41_7 C 0.1363(5) 0.5423(6) 0.9267(4)
C44_7 C 0.1265(6) 0.6140(6) 0.8750(5)
H18_7 H 0.123260 0.637390 0.856879
C46_7 C 0.0887(5) 0.7803(7) 0.7500(5)
H19_7 H 0.120577 0.777306 0.760199
C48_7 C 0.0897(6) 0.5620(6) 0.9191(4)
H21_7 H 0.061291 0.550113 0.930944
C49_7 C 0.0005(5) 0.7608(6) 0.7497(4)
C50_7 C 0.0479(5) 0.7556(7) 0.7652(4)
N12_7 N 0.0352(5) 0.6201(6) 0.8885(4)
H24_7 H 0.012313 0.607658 0.902069
C52_7 C 0.0845(5) 0.5997(7) 0.8938(5)
C53_7 C 0.0265(6) 0.7077(7) 0.8196(5)
C54_7 C 0.0179(7) 0.6561(8) 0.8655(5)
O35_4 O 0.3198(4) 0.6848(3) 0.8741(2)
O40_4 O 0.1745(3) 0.1707(3) 0.7183(2)
O9_7 O 0.7394(3) 0.3993(3) 0.8746(3)
O12_4 O 0.8293(3) 0.1745(3) 0.7183(2)
C1_7 C 0.7815(4) 0.3883(4) 0.8626(4)
C2_7 C 0.8717(4) 0.1669(4) 0.7043(4)
C3_7 C 0.8602(6) 0.4988(5) 0.9538(4)
C4_7 C 0.8220(5) 0.4419(5) 0.9083(4)
H1_7 H 0.790402 0.455620 0.913228
C8_7 C 0.8269(4) 0.4056(5) 0.8826(4)
C9_7 C 0.9171(5) 0.1909(5) 0.7203(4)
N2_7 N 0.9426(4) 0.2746(6) 0.7948(4)
H3_7 H 0.911431 0.283288 0.797377
C12_7 C 0.9642(5) 0.1864(5) 0.7053(4)
H4_7 H 0.968423 0.167565 0.684766
N3_7 N 0.9512(4) 0.3264(6) 0.8419(4)
C14_7 C 0.8637(5) 0.4577(6) 0.9267(4)
C17_7 C 0.8735(6) 0.3860(6) 0.8750(5)
H6_7 H 0.876740 0.362610 0.856879
C19_7 C 0.9113(5) 0.2197(7) 0.7500(5)
H7_7 H 0.879423 0.222694 0.760199
C21_7 C 0.9103(6) 0.4380(6) 0.9191(4)
H9_7 H 0.938709 0.449887 0.930944
C22_7 C 0.9995(5) 0.2392(6) 0.7497(4)
C23_7 C 0.9521(5) 0.2444(7) 0.7652(4)
N6_7 N 0.9648(5) 0.3799(6) 0.8885(4)
H12_7 H 0.987687 0.392342 0.902069
C25_7 C 0.9155(5) 0.4003(7) 0.8938(5)
C26_7 C 0.9735(6) 0.2923(7) 0.8196(5)
C27_7 C 0.9821(7) 0.3439(8) 0.8655(5)
O18_7 O 0.9088(3) 0.7683(4) 0.7163(2)
O20_4 O 0.6848(3) 0.6802(4) 0.8741(2)
C32_7 C 0.8325(5) 0.6252(5) 0.9512(4)
C33_7 C 0.7789(5) 0.6662(5) 0.9054(4)
H14_7 H 0.750553 0.653924 0.917207
C34_7 C 0.9441(5) 0.7929(6) 0.7025(4)
C37_7 C 0.7214(5) 0.7005(6) 0.8591(4)
C38_7 C 0.8267(5) 0.6573(5) 0.9190(4)
N7_7 N 0.9683(4) 0.6668(6) 0.8702(4)
C40_7 C 0.7732(5) 0.6929(6) 0.8748(4)
C42_7 C 0.8152(5) 0.7077(6) 0.8567(4)
H17_7 H 0.811272 0.723967 0.835064
C43_7 C 0.9953(5) 0.7904(5) 0.7205(4)
N10_7 N 0.9783(4) 0.7213(6) 0.8207(4)
C45_7 C 0.8629(5) 0.6994(6) 0.8693(5)
N11_7 N 0.9038(5) 0.7151(6) 0.8483(4)
H20_7 H 0.896235 0.738563 0.833428
C47_7 C 0.9533(6) 0.7001(7) 0.8470(5)
H22_7 H 0.972575 0.744264 0.759147
C51_7 C 0.8694(5) 0.6727(7) 0.9003(5)
H23_7 H 0.901680 0.665247 0.908605
O34_4 O 0.6802(4) 0.3152(3) 0.8741(2)
O39_4 O 0.8255(3) 0.8293(3) 0.7183(2)
O6_8 O 0.7683(4) 0.0912(3) 0.7163(2)
C5_8 C 0.6252(5) 0.1675(5) 0.9512(4)
C6_8 C 0.6662(5) 0.2211(5) 0.9054(4)
H2_8 H 0.653924 0.249447 0.917207
C7_8 C 0.7929(6) 0.0559(5) 0.7025(4)
C10_8 C 0.7005(6) 0.2786(5) 0.8591(4)
C11_8 C 0.6573(5) 0.1733(5) 0.9190(4)
N1_8 N 0.6668(6) 0.0317(4) 0.8702(4)
C13_8 C 0.6929(6) 0.2268(5) 0.8748(4)
C15_8 C 0.7077(6) 0.1848(5) 0.8567(4)
H5_8 H 0.723967 0.188728 0.835064
C16_8 C 0.7904(5) 0.0047(5) 0.7205(4)
N4_8 N 0.7213(6) 0.0217(4) 0.8207(4)
C18_8 C 0.6994(6) 0.1371(5) 0.8693(5)
N5_8 N 0.7151(6) 0.0962(5) 0.8483(4)
H8_8 H 0.738563 0.103765 0.833428
C20_8 C 0.7001(7) 0.0467(6) 0.8470(5)
H10_8 H 0.744264 0.027425 0.759147
C24_8 C 0.6727(7) 0.1306(5) 0.9003(5)
H11_8 H 0.665247 0.098320 0.908605
O21_8 O 0.3993(3) 0.2606(3) 0.8746(3)
C28_8 C 0.3883(4) 0.2185(4) 0.8626(4)
C29_8 C 0.1669(4) 0.1283(4) 0.7043(4)
C30_8 C 0.4988(5) 0.1398(6) 0.9538(4)
C31_8 C 0.4419(5) 0.1780(5) 0.9083(4)
H13_8 H 0.455620 0.209598 0.913228
C35_8 C 0.4056(5) 0.1731(4) 0.8826(4)
C36_8 C 0.1909(5) 0.0829(5) 0.7203(4)
N8_8 N 0.2746(6) 0.0574(4) 0.7948(4)
H15_8 H 0.283288 0.088569 0.797377
C39_8 C 0.1864(5) 0.0358(5) 0.7053(4)
H16_8 H 0.167565 0.031577 0.684766
N9_8 N 0.3264(6) 0.0488(4) 0.8419(4)
C41_8 C 0.4577(6) 0.1363(5) 0.9267(4)
C44_8 C 0.3860(6) 0.1265(6) 0.8750(5)
H18_8 H 0.362610 0.123260 0.856879
C46_8 C 0.2197(7) 0.0887(5) 0.7500(5)
H19_8 H 0.222694 0.120577 0.760199
C48_8 C 0.4380(6) 0.0897(6) 0.9191(4)
H21_8 H 0.449887 0.061291 0.930944
C49_8 C 0.2392(6) 0.0005(5) 0.7497(4)
C50_8 C 0.2444(7) 0.0479(5) 0.7652(4)
N12_8 N 0.3799(6) 0.0352(5) 0.8885(4)
H24_8 H 0.392342 0.012313 0.902069
C52_8 C 0.4003(7) 0.0845(5) 0.8938(5)
C53_8 C 0.2923(7) 0.0265(6) 0.8196(5)
C54_8 C 0.3439(8) 0.0179(7) 0.8655(5)
O9_8 O 0.6007(3) 0.7394(3) 0.8746(3)
C1_8 C 0.6117(4) 0.7815(4) 0.8626(4)
C2_8 C 0.8331(4) 0.8717(4) 0.7043(4)
C3_8 C 0.5012(5) 0.8602(6) 0.9538(4)
C4_8 C 0.5581(5) 0.8220(5) 0.9083(4)
H1_8 H 0.544380 0.790402 0.913228
C8_8 C 0.5944(5) 0.8269(4) 0.8826(4)
C9_8 C 0.8091(5) 0.9171(5) 0.7203(4)
N2_8 N 0.7254(6) 0.9426(4) 0.7948(4)
H3_8 H 0.716712 0.911431 0.797377
C12_8 C 0.8136(5) 0.9642(5) 0.7053(4)
H4_8 H 0.832435 0.968423 0.684766
N3_8 N 0.6736(6) 0.9512(4) 0.8419(4)
C14_8 C 0.5423(6) 0.8637(5) 0.9267(4)
C17_8 C 0.6140(6) 0.8735(6) 0.8750(5)
H6_8 H 0.637390 0.876740 0.856879
C19_8 C 0.7803(7) 0.9113(5) 0.7500(5)
H7_8 H 0.777306 0.879423 0.760199
C21_8 C 0.5620(6) 0.9103(6) 0.9191(4)
H9_8 H 0.550113 0.938709 0.930944
C22_8 C 0.7608(6) 0.9995(5) 0.7497(4)
C23_8 C 0.7556(7) 0.9521(5) 0.7652(4)
N6_8 N 0.6201(6) 0.9648(5) 0.8885(4)
H12_8 H 0.607658 0.987687 0.902069
C25_8 C 0.5997(7) 0.9155(5) 0.8938(5)
C26_8 C 0.7077(7) 0.9735(6) 0.8196(5)
C27_8 C 0.6561(8) 0.9821(7) 0.8655(5)
O18_8 O 0.2317(4) 0.9088(3) 0.7163(2)
C32_8 C 0.3748(5) 0.8325(5) 0.9512(4)
C33_8 C 0.3338(5) 0.7789(5) 0.9054(4)
H14_8 H 0.346076 0.750553 0.917207
C34_8 C 0.2071(6) 0.9441(5) 0.7025(4)
C37_8 C 0.2995(6) 0.7214(5) 0.8591(4)
C38_8 C 0.3427(5) 0.8267(5) 0.9190(4)
N7_8 N 0.3332(6) 0.9683(4) 0.8702(4)
C40_8 C 0.3071(6) 0.7732(5) 0.8748(4)
C42_8 C 0.2923(6) 0.8152(5) 0.8567(4)
H17_8 H 0.276033 0.811272 0.835064
C43_8 C 0.2096(5) 0.9953(5) 0.7205(4)
N10_8 N 0.2787(6) 0.9783(4) 0.8207(4)
C45_8 C 0.3006(6) 0.8629(5) 0.8693(5)
N11_8 N 0.2849(6) 0.9038(5) 0.8483(4)
H20_8 H 0.261437 0.896235 0.833428
C47_8 C 0.2999(7) 0.9533(6) 0.8470(5)
H22_8 H 0.255736 0.972575 0.759147
C51_8 C 0.3273(7) 0.8694(5) 0.9003(5)
H23_8 H 0.334753 0.901680 0.908605
loop_
_geom_bond_atom_site_label_1
_geom_bond_atom_site_label_2
_geom_bond_site_symmetry_1
_geom_bond_site_symmetry_2
Cu1 O4 1_555 1_555
Cu3 O6 1_555 1_555
Cu4 O9 1_555 1_555
O1 C10 1_555 1_555
O2 C7 1_555 1_555
O3 C5 1_555 1_555
O4 C5 1_555 1_555
O6 C7 1_555 1_555
O7 C2 1_555 1_555
O8 C10 1_555 1_555
O9 C1 1_555 1_555
O11 C1 1_555 1_555
O12 C2 1_555 1_555
C1 C8 1_555 1_555
C2 C9 1_555 1_555
C3 C14 1_555 1_555
C4 H1 1_555 1_555
C5 C11 1_555 1_555
C6 H2 1_555 1_555
C7 C16 1_555 1_555
C8 C4 1_555 1_555
C9 C12 1_555 1_555
C10 C13 1_555 1_555
C11 C6 1_555 1_555
N1 C20 1_555 1_555
N2 H3 1_555 1_555
C12 H4 1_555 1_555
C13 C6 1_555 1_555
N3 C26 1_555 1_555
C14 C4 1_555 1_555
C15 C13 1_555 1_555
H5 C15 1_555 1_555
C16 C12 1_555 1_555
N4 C20 1_555 1_555
C17 C8 1_555 1_555
H6 C17 1_555 1_555
C18 C15 1_555 1_555
C19 C9 1_555 1_555
H7 C19 1_555 1_555
N5 C18 1_555 1_555
H8 N5 1_555 1_555
C20 N5 1_555 1_555
C21 C14 1_555 1_555
H9 C21 1_555 1_555
C22 C16 1_555 1_555
H10 C22 1_555 1_555
C23 N2 1_555 1_555
C24 C11 1_555 1_555
H11 C24 1_555 1_555
N6 H12 1_555 1_555
C25 C17 1_555 1_555
C26 N2 1_555 1_555
C27 N1 1_555 1_555
O22 Cu1 1_555 1_555
Cu8 Cu1 1_555 1_555
Cu9 O12 1_555 1_555
Cu11 O1 1_555 1_555
Cu13 Cu4 1_555 1_555
Cu16 O8 1_555 1_555
Cu17 O7 1_555 1_555
Cu20 Cu3 1_555 1_555
O25 Cu3 1_555 1_555
O27 Cu4 1_555 1_555
O30 Cu1 1_555 1_555
O32 Cu4 1_555 1_555
O34 Cu4 1_555 1_555
O36 Cu1 1_555 1_555
O38 Cu3 1_555 1_555
O40 Cu3 1_555 1_555
O2 Cu20 1_555 1_555
O3 Cu8 1_555 1_555
O11 Cu13 1_555 1_555
N3 C27 1_555 1_555
N4 C26 1_555 1_555
C18 C24 1_555 1_555
C19 C23 1_555 1_555
C21 C25 1_555 1_555
C22 C23 1_555 1_555
N6 C25 1_555 1_555
N6 C27 1_555 1_555
O17 Cu8 1_555 1_555
Cu9 Cu17 1_555 1_555
Cu11 Cu16 1_555 1_555
Cu2 O5 1_555 1_555
Cu5 O18 1_555 1_555
Cu6 O21 1_555 1_555
O13 C37 1_555 1_555
O14 C34 1_555 1_555
O15 Cu2 1_555 1_555
O16 C32 1_555 1_555
O18 C34 1_555 1_555
O19 C29 1_555 1_555
O20 C37 1_555 1_555
O21 C28 1_555 1_555
O23 C28 1_555 1_555
O24 C29 1_555 1_555
C28 C35 1_555 1_555
C29 C36 1_555 1_555
C31 H13 1_555 1_555
C32 O15 1_555 1_555
C33 H14 1_555 1_555
C34 C43 1_555 1_555
C35 C31 1_555 1_555
C36 C39 1_555 1_555
C37 C40 1_555 1_555
C38 C32 1_555 1_555
N7 C47 1_555 1_555
N8 H15 1_555 1_555
C39 H16 1_555 1_555
C40 C33 1_555 1_555
N9 C53 1_555 1_555
C41 C30 1_555 1_555
C42 C40 1_555 1_555
H17 C42 1_555 1_555
C43 C39 1_555 1_555
N10 C47 1_555 1_555
C44 C35 1_555 1_555
H18 C44 1_555 1_555
C45 C42 1_555 1_555
C46 C36 1_555 1_555
H19 C46 1_555 1_555
N11 C45 1_555 1_555
H20 N11 1_555 1_555
C47 N11 1_555 1_555
C48 C41 1_555 1_555
H21 C48 1_555 1_555
C49 C43 1_555 1_555
H22 C49 1_555 1_555
C50 N8 1_555 1_555
C51 C38 1_555 1_555
H23 C51 1_555 1_555
N12 H24 1_555 1_555
C52 C44 1_555 1_555
C53 N8 1_555 1_555
C54 N7 1_555 1_555
Cu7 Cu2 1_555 1_555
Cu10 O24 1_555 1_555
Cu12 O13 1_555 1_555
Cu14 Cu6 1_555 1_555
Cu15 O20 1_555 1_555
Cu18 O19 1_555 1_555
Cu19 Cu5 1_555 1_555
O26 Cu5 1_555 1_555
O28 Cu6 1_555 1_555
O29 Cu2 1_555 1_555
O31 Cu2 1_555 1_555
O33 Cu6 1_555 1_555
O35 Cu6 1_555 1_555
O37 Cu5 1_555 1_555
O39 Cu5 1_555 1_555
O10 Cu7 1_555 1_555
O14 Cu19 1_555 1_555
O16 Cu7 1_555 1_555
O23 Cu14 1_555 1_555
C31 C41 1_555 1_555
C33 C38 1_555 1_555
N9 C54 1_555 1_555
N10 C53 1_555 1_555
C45 C51 1_555 1_555
C46 C50 1_555 1_555
C48 C52 1_555 1_555
C49 C50 1_555 1_555
N12 C52 1_555 1_555
N12 C54 1_555 1_555
Cu10 Cu18 1_555 1_555
Cu12 Cu15 1_555 1_555
O29_2 Cu8 1_555 1_555
O31_2 Cu8 1_555 1_555
O30_2 Cu7 1_555 1_555
O36_2 Cu7 1_555 1_555
Cu2_2 O5_2 1_555 1_555
Cu10 O18_2 1_555 1_555
Cu16 O21_2 1_555 1_555
O13_2 C37_2 1_555 1_555
O14_2 C34_2 1_555 1_555
O15_2 Cu2_2 1_555 1_555
O16_2 C32_2 1_555 1_555
O18_2 C34_2 1_555 1_555
O19_2 C29_2 1_555 1_555
O35 C37_2 1_555 1_555
O21_2 C28_2 1_555 1_555
O23_2 C28_2 1_555 1_555
O40 C29_2 1_555 1_555
C28_2 C35_2 1_555 1_555
C29_2 C36_2 1_555 1_555
C31_2 H13_2 1_555 1_555
C32_2 O15_2 1_555 1_555
C33_2 H14_2 1_555 1_555
C34_2 C43_2 1_555 1_555
C35_2 C31_2 1_555 1_555
C36_2 C39_2 1_555 1_555
C37_2 C40_2 1_555 1_555
C38_2 C32_2 1_555 1_555
N7_2 C47_2 1_555 1_555
N8_2 H15_2 1_555 1_555
C39_2 H16_2 1_555 1_555
C40_2 C33_2 1_555 1_555
N9_2 C53_2 1_555 1_555
C41_2 C30_2 1_555 1_555
C42_2 C40_2 1_555 1_555
H17_2 C42_2 1_555 1_555
C43_2 C39_2 1_555 1_555
N10_2 C47_2 1_555 1_555
C44_2 C35_2 1_555 1_555
H18_2 C44_2 1_555 1_555
C45_2 C42_2 1_555 1_555
C46_2 C36_2 1_555 1_555
H19_2 C46_2 1_555 1_555
N11_2 C45_2 1_555 1_555
H20_2 N11_2 1_555 1_555
C47_2 N11_2 1_555 1_555
C48_2 C41_2 1_555 1_555
H21_2 C48_2 1_555 1_555
C49_2 C43_2 1_555 1_555
H22_2 C49_2 1_555 1_555
C50_2 N8_2 1_555 1_555
C51_2 C38_2 1_555 1_555
H23_2 C51_2 1_555 1_555
N12_2 H24_2 1_555 1_555
C52_2 C44_2 1_555 1_555
C53_2 N8_2 1_555 1_555
C54_2 N7_2 1_555 1_555
Cu7_2 Cu2_2 1_555 1_555
Cu14 O13_2 1_555 1_555
Cu20 O19_2 1_555 1_555
O26_2 Cu10 1_555 1_555
O28_2 Cu16 1_555 1_555
O29_3 Cu2_2 1_555 1_555
O31_3 Cu2_2 1_555 1_555
O33_2 Cu16 1_555 1_555
O37_2 Cu10 1_555 1_555
O10_2 Cu7_2 1_555 1_555
O14_2 Cu18 1_555 1_555
O16_2 Cu7_2 1_555 1_555
O23_2 Cu11 1_555 1_555
C31_2 C41_2 1_555 1_555
C33_2 C38_2 1_555 1_555
N9_2 C54_2 1_555 1_555
N10_2 C53_2 1_555 1_555
C45_2 C51_2 1_555 1_555
C46_2 C50_2 1_555 1_555
C48_2 C52_2 1_555 1_555
C49_2 C50_2 1_555 1_555
N12_2 C52_2 1_555 1_555
N12_2 C54_2 1_555 1_555
Cu1_2 O4_2 1_555 1_555
Cu9 O6_2 1_555 1_555
Cu15 O9_2 1_555 1_555
O1_2 C10_2 1_555 1_555
O2_2 C7_2 1_555 1_555
O3_2 C5_2 1_555 1_555
O4_2 C5_2 1_555 1_555
O6_2 C7_2 1_555 1_555
O7_2 C2_2 1_555 1_555
O34 C10_2 1_555 1_555
O9_2 C1_2 1_555 1_555
O11_2 C1_2 1_555 1_555
O39 C2_2 1_555 1_555
C1_2 C8_2 1_555 1_555
C2_2 C9_2 1_555 1_555
C3_2 C14_2 1_555 1_555
C4_2 H1_2 1_555 1_555
C5_2 C11_2 1_555 1_555
C6_2 H2_2 1_555 1_555
C7_2 C16_2 1_555 1_555
C8_2 C4_2 1_555 1_555
C9_2 C12_2 1_555 1_555
C10_2 C13_2 1_555 1_555
C11_2 C6_2 1_555 1_555
N1_2 C20_2 1_555 1_555
N2_2 H3_2 1_555 1_555
C12_2 H4_2 1_555 1_555
C13_2 C6_2 1_555 1_555
N3_2 C26_2 1_555 1_555
C14_2 C4_2 1_555 1_555
C15_2 C13_2 1_555 1_555
H5_2 C15_2 1_555 1_555
C16_2 C12_2 1_555 1_555
N4_2 C20_2 1_555 1_555
C17_2 C8_2 1_555 1_555
H6_2 C17_2 1_555 1_555
C18_2 C15_2 1_555 1_555
C19_2 C9_2 1_555 1_555
H7_2 C19_2 1_555 1_555
N5_2 C18_2 1_555 1_555
H8_2 N5_2 1_555 1_555
C20_2 N5_2 1_555 1_555
C21_2 C14_2 1_555 1_555
H9_2 C21_2 1_555 1_555
C22_2 C16_2 1_555 1_555
H10_2 C22_2 1_555 1_555
C23_2 N2_2 1_555 1_555
C24_2 C11_2 1_555 1_555
H11_2 C24_2 1_555 1_555
N6_2 H12_2 1_555 1_555
C25_2 C17_2 1_555 1_555
C26_2 N2_2 1_555 1_555
C27_2 N1_2 1_555 1_555
O22_2 Cu1_2 1_555 1_555
Cu8_2 Cu1_2 1_555 1_555
Cu13 O1_2 1_555 1_555
Cu19 O7_2 1_555 1_555
O25_2 Cu9 1_555 1_555
O27_2 Cu15 1_555 1_555
O30_3 Cu1_2 1_555 1_555
O32_2 Cu15 1_555 1_555
O36_3 Cu1_2 1_555 1_555
O38_2 Cu9 1_555 1_555
O2_2 Cu17 1_555 1_555
O3_2 Cu8_2 1_555 1_555
O11_2 Cu12 1_555 1_555
N3_2 C27_2 1_555 1_555
N4_2 C26_2 1_555 1_555
C18_2 C24_2 1_555 1_555
C19_2 C23_2 1_555 1_555
C21_2 C25_2 1_555 1_555
C22_2 C23_2 1_555 1_555
N6_2 C25_2 1_555 1_555
N6_2 C27_2 1_555 1_555
O17_2 Cu8_2 1_555 1_555
O30_4 Cu7_2 1_555 1_555
O36_4 Cu7_2 1_555 1_555
O29_4 Cu8_2 1_555 1_555
O31_4 Cu8_2 1_555 1_555
Cu2_3 O5_3 1_555 1_555
Cu4_2 O9_3 1_555 1_555
O5_3 C3_3 1_555 1_555
O7_3 C2_3 1_555 1_555
O9_3 C1_3 1_555 1_555
O10_3 C3_3 1_555 1_555
O11_3 C1_3 1_555 1_555
O12_2 C2_3 1_555 1_555
C1_3 C8_3 1_555 1_555
C2_3 C9_3 1_555 1_555
C3_3 C14_3 1_555 1_555
C4_3 H1_3 1_555 1_555
C8_3 C4_3 1_555 1_555
C9_3 C12_3 1_555 1_555
N2_3 H3_3 1_555 1_555
C12_3 H4_3 1_555 1_555
N3_3 C26_3 1_555 1_555
C14_3 C4_3 1_555 1_555
C17_3 C8_3 1_555 1_555
H6_3 C17_3 1_555 1_555
C19_3 C9_3 1_555 1_555
H7_3 C19_3 1_555 1_555
C21_3 C14_3 1_555 1_555
H9_3 C21_3 1_555 1_555
C23_3 N2_3 1_555 1_555
N6_3 H12_3 1_555 1_555
C25_3 C17_3 1_555 1_555
C26_3 N2_3 1_555 1_555
Cu5_2 O18_3 1_555 1_555
O13_3 C37_3 1_555 1_555
O14_3 C34_3 1_555 1_555
O15_3 Cu2_3 1_555 1_555
O16_3 C32_3 1_555 1_555
O18_3 C34_3 1_555 1_555
O20_2 C37_3 1_555 1_555
C32_3 O15_3 1_555 1_555
C33_3 H14_3 1_555 1_555
C34_3 C43_3 1_555 1_555
C37_3 C40_3 1_555 1_555
C38_3 C32_3 1_555 1_555
N7_3 C47_3 1_555 1_555
C40_3 C33_3 1_555 1_555
C42_3 C40_3 1_555 1_555
H17_3 C42_3 1_555 1_555
N10_3 C47_3 1_555 1_555
C45_3 C42_3 1_555 1_555
N11_3 C45_3 1_555 1_555
H20_3 N11_3 1_555 1_555
C47_3 N11_3 1_555 1_555
C51_3 C38_3 1_555 1_555
H23_3 C51_3 1_555 1_555
Cu7_3 Cu2_3 1_555 1_555
Cu9_2 O12_2 1_555 1_555
Cu12_2 O13_3 1_555 1_555
Cu13_2 Cu4_2 1_555 1_555
Cu15_2 O20_2 1_555 1_555
Cu17_2 O7_3 1_555 1_555
Cu19_2 Cu5_2 1_555 1_555
O26_3 Cu5_2 1_555 1_555
O27_3 Cu4_2 1_555 1_555
O32_3 Cu4_2 1_555 1_555
O34_2 Cu4_2 1_555 1_555
O37_3 Cu5_2 1_555 1_555
O39_2 Cu5_2 1_555 1_555
O10_3 Cu7_3 1_555 1_555
O11_3 Cu13_2 1_555 1_555
N3_3 C27_3 1_555 1_555
C19_3 C23_3 1_555 1_555
C21_3 C25_3 1_555 1_555
C22_3 C23_3 1_555 1_555
N6_3 C25_3 1_555 1_555
N6_3 C27_3 1_555 1_555
O14_3 Cu19_2 1_555 1_555
O16_3 Cu7_3 1_555 1_555
C33_3 C38_3 1_555 1_555
C45_3 C51_3 1_555 1_555
Cu9_2 Cu17_2 1_555 1_555
Cu12_2 Cu15_2 1_555 1_555
Cu7_4 Cu2_4 1_555 1_555
O29_5 Cu2_4 1_555 1_555
O31_5 Cu2_4 1_555 1_555
Cu1_3 O4_3 1_555 1_555
Cu3_2 O6_3 1_555 1_555
O1_3 C10_3 1_555 1_555
O2_3 C7_3 1_555 1_555
O3_3 C5_3 1_555 1_555
O4_3 C5_3 1_555 1_555
O6_3 C7_3 1_555 1_555
O8_2 C10_3 1_555 1_555
C5_3 C11_3 1_555 1_555
C6_3 H2_3 1_555 1_555
C7_3 C16_3 1_555 1_555
C10_3 C13_3 1_555 1_555
C11_3 C6_3 1_555 1_555
N1_3 C20_3 1_555 1_555
C13_3 C6_3 1_555 1_555
C15_3 C13_3 1_555 1_555
H5_3 C15_3 1_555 1_555
N4_3 C20_3 1_555 1_555
C18_3 C15_3 1_555 1_555
N5_3 C18_3 1_555 1_555
H8_3 N5_3 1_555 1_555
C20_3 N5_3 1_555 1_555
C24_3 C11_3 1_555 1_555
H11_3 C24_3 1_555 1_555
Cu6_2 O21_3 1_555 1_555
O17_3 C30_3 1_555 1_555
O19_3 C29_3 1_555 1_555
O21_3 C28_3 1_555 1_555
O22_3 Cu1_3 1_555 1_555
O23_3 C28_3 1_555 1_555
O24_2 C29_3 1_555 1_555
C28_3 C35_3 1_555 1_555
C29_3 C36_3 1_555 1_555
C30_3 O22_3 1_555 1_555
C31_3 H13_3 1_555 1_555
C35_3 C31_3 1_555 1_555
C36_3 C39_3 1_555 1_555
N8_3 H15_3 1_555 1_555
C39_3 H16_3 1_555 1_555
N9_3 C53_3 1_555 1_555
C41_3 C30_3 1_555 1_555
C44_3 C35_3 1_555 1_555
H18_3 C44_3 1_555 1_555
C46_3 C36_3 1_555 1_555
H19_3 C46_3 1_555 1_555
C48_3 C41_3 1_555 1_555
H21_3 C48_3 1_555 1_555
C50_3 N8_3 1_555 1_555
N12_3 H24_3 1_555 1_555
C52_3 C44_3 1_555 1_555
C53_3 N8_3 1_555 1_555
Cu8_3 Cu1_3 1_555 1_555
Cu10_2 O24_2 1_555 1_555
Cu11_2 O1_3 1_555 1_555
Cu14_2 Cu6_2 1_555 1_555
Cu16_2 O8_2 1_555 1_555
Cu18_2 O19_3 1_555 1_555
Cu20_2 Cu3_2 1_555 1_555
O25_3 Cu3_2 1_555 1_555
O28_3 Cu6_2 1_555 1_555
O33_3 Cu6_2 1_555 1_555
O35_2 Cu6_2 1_555 1_555
O38_3 Cu3_2 1_555 1_555
O40_2 Cu3_2 1_555 1_555
O2_3 Cu20_2 1_555 1_555
O3_3 Cu8_3 1_555 1_555
C18_3 C24_3 1_555 1_555
O17_3 Cu8_3 1_555 1_555
O23_3 Cu14_2 1_555 1_555
C31_3 C41_3 1_555 1_555
N9_3 C54_3 1_555 1_555
C46_3 C50_3 1_555 1_555
C48_3 C52_3 1_555 1_555
C49_3 C50_3 1_555 1_555
N12_3 C52_3 1_555 1_555
N12_3 C54_3 1_555 1_555
Cu10_2 Cu18_2 1_555 1_555
Cu11_2 Cu16_2 1_555 1_555
Cu8_4 Cu1_4 1_555 1_555
O30_5 Cu1_4 1_555 1_555
O36_5 Cu1_4 1_555 1_555
O30_6 Cu7_4 1_555 1_555
O36_6 Cu7_4 1_555 1_555
O29_6 Cu8_4 1_555 1_555
O31_6 Cu8_4 1_555 1_555
Cu2_5 O5_4 1_555 1_555
Cu15_2 O9_4 1_555 1_555
O5_4 C3_4 1_555 1_555
O7_4 C2_4 1_555 1_555
O9_4 C1_4 1_555 1_555
O10_4 C3_4 1_555 1_555
O11_4 C1_4 1_555 1_555
O39_2 C2_4 1_555 1_555
C1_4 C8_4 1_555 1_555
C2_4 C9_4 1_555 1_555
C3_4 C14_4 1_555 1_555
C4_4 H1_4 1_555 1_555
C8_4 C4_4 1_555 1_555
C9_4 C12_4 1_555 1_555
N2_4 H3_4 1_555 1_555
C12_4 H4_4 1_555 1_555
N3_4 C26_4 1_555 1_555
C14_4 C4_4 1_555 1_555
C17_4 C8_4 1_555 1_555
H6_4 C17_4 1_555 1_555
C19_4 C9_4 1_555 1_555
H7_4 C19_4 1_555 1_555
C21_4 C14_4 1_555 1_555
H9_4 C21_4 1_555 1_555
C23_4 N2_4 1_555 1_555
N6_4 H12_4 1_555 1_555
C25_4 C17_4 1_555 1_555
C26_4 N2_4 1_555 1_555
Cu10_2 O18_4 1_555 1_555
O13_4 C37_4 1_555 1_555
O14_4 C34_4 1_555 1_555
O15_4 Cu2_5 1_555 1_555
O16_4 C32_4 1_555 1_555
O18_4 C34_4 1_555 1_555
O35_2 C37_4 1_555 1_555
C32_4 O15_4 1_555 1_555
C33_4 H14_4 1_555 1_555
C34_4 C43_4 1_555 1_555
C37_4 C40_4 1_555 1_555
C38_4 C32_4 1_555 1_555
N7_4 C47_4 1_555 1_555
C40_4 C33_4 1_555 1_555
C42_4 C40_4 1_555 1_555
H17_4 C42_4 1_555 1_555
N10_4 C47_4 1_555 1_555
C45_4 C42_4 1_555 1_555
N11_4 C45_4 1_555 1_555
H20_4 N11_4 1_555 1_555
C47_4 N11_4 1_555 1_555
C51_4 C38_4 1_555 1_555
H23_4 C51_4 1_555 1_555
Cu7_5 Cu2_5 1_555 1_555
Cu14_2 O13_4 1_555 1_555
Cu19_2 O7_4 1_555 1_555
O26_4 Cu10_2 1_555 1_555
O27_4 Cu15_2 1_555 1_555
O32_4 Cu15_2 1_555 1_555
O37_4 Cu10_2 1_555 1_555
O10_4 Cu7_5 1_555 1_555
O11_4 Cu12_2 1_555 1_555
N3_4 C27_4 1_555 1_555
C19_4 C23_4 1_555 1_555
C21_4 C25_4 1_555 1_555
C22_4 C23_4 1_555 1_555
N6_4 C25_4 1_555 1_555
N6_4 C27_4 1_555 1_555
O14_4 Cu18_2 1_555 1_555
O16_4 Cu7_5 1_555 1_555
C33_4 C38_4 1_555 1_555
C45_4 C51_4 1_555 1_555
Cu7_6 Cu2_6 1_555 1_555
O29_7 Cu2_6 1_555 1_555
O31_7 Cu2_6 1_555 1_555
Cu1_5 O4_4 1_555 1_555
Cu9_2 O6_4 1_555 1_555
O1_4 C10_4 1_555 1_555
O2_4 C7_4 1_555 1_555
O3_4 C5_4 1_555 1_555
O4_4 C5_4 1_555 1_555
O6_4 C7_4 1_555 1_555
O34_2 C10_4 1_555 1_555
C5_4 C11_4 1_555 1_555
C6_4 H2_4 1_555 1_555
C7_4 C16_4 1_555 1_555
C10_4 C13_4 1_555 1_555
C11_4 C6_4 1_555 1_555
N1_4 C20_4 1_555 1_555
C13_4 C6_4 1_555 1_555
C15_4 C13_4 1_555 1_555
H5_4 C15_4 1_555 1_555
N4_4 C20_4 1_555 1_555
C18_4 C15_4 1_555 1_555
N5_4 C18_4 1_555 1_555
H8_4 N5_4 1_555 1_555
C20_4 N5_4 1_555 1_555
C24_4 C11_4 1_555 1_555
H11_4 C24_4 1_555 1_555
Cu16_2 O21_4 1_555 1_555
O17_4 C30_4 1_555 1_555
O19_4 C29_4 1_555 1_555
O21_4 C28_4 1_555 1_555
O22_4 Cu1_5 1_555 1_555
O23_4 C28_4 1_555 1_555
O40_2 C29_4 1_555 1_555
C28_4 C35_4 1_555 1_555
C29_4 C36_4 1_555 1_555
C30_4 O22_4 1_555 1_555
C31_4 H13_4 1_555 1_555
C35_4 C31_4 1_555 1_555
C36_4 C39_4 1_555 1_555
N8_4 H15_4 1_555 1_555
C39_4 H16_4 1_555 1_555
N9_4 C53_4 1_555 1_555
C41_4 C30_4 1_555 1_555
C44_4 C35_4 1_555 1_555
H18_4 C44_4 1_555 1_555
C46_4 C36_4 1_555 1_555
H19_4 C46_4 1_555 1_555
C48_4 C41_4 1_555 1_555
H21_4 C48_4 1_555 1_555
C50_4 N8_4 1_555 1_555
N12_4 H24_4 1_555 1_555
C52_4 C44_4 1_555 1_555
C53_4 N8_4 1_555 1_555
Cu8_5 Cu1_5 1_555 1_555
Cu13_2 O1_4 1_555 1_555
Cu20_2 O19_4 1_555 1_555
O25_4 Cu9_2 1_555 1_555
O28_4 Cu16_2 1_555 1_555
O33_4 Cu16_2 1_555 1_555
O38_4 Cu9_2 1_555 1_555
O2_4 Cu17_2 1_555 1_555
O3_4 Cu8_5 1_555 1_555
C18_4 C24_4 1_555 1_555
O17_4 Cu8_5 1_555 1_555
O23_4 Cu11_2 1_555 1_555
C31_4 C41_4 1_555 1_555
N9_4 C54_4 1_555 1_555
C46_4 C50_4 1_555 1_555
C48_4 C52_4 1_555 1_555
C49_4 C50_4 1_555 1_555
N12_4 C52_4 1_555 1_555
N12_4 C54_4 1_555 1_555
Cu8_6 Cu1_6 1_555 1_555
O30_7 Cu1_6 1_555 1_555
O36_7 Cu1_6 1_555 1_555
O30_8 Cu7_6 1_555 1_555
O36_8 Cu7_6 1_555 1_555
O29_8 Cu8_6 1_555 1_555
O31_8 Cu8_6 1_555 1_555
Cu12_2 O18_5 1_555 1_555
Cu18_2 O21_5 1_555 1_555
O26_3 C37_5 1_555 1_555
O27_4 C34_5 1_555 1_555
O30 C32_5 1_555 1_555
O18_5 C34_5 1_555 1_555
O33_3 C29_5 1_555 1_555
O20_3 C37_5 1_555 1_555
O21_5 C28_5 1_555 1_555
O37_4 C28_5 1_555 1_555
O24_3 C29_5 1_555 1_555
C28_5 C35_5 1_555 1_555
C29_5 C36_5 1_555 1_555
C31_5 H13_5 1_555 1_555
C32_5 O29_2 1_555 1_555
C33_5 H14_5 1_555 1_555
C34_5 C43_5 1_555 1_555
C35_5 C31_5 1_555 1_555
C36_5 C39_5 1_555 1_555
C37_5 C40_5 1_555 1_555
C38_5 C32_5 1_555 1_555
N7_5 C47_5 1_555 1_555
N8_5 H15_5 1_555 1_555
C39_5 H16_5 1_555 1_555
C40_5 C33_5 1_555 1_555
N9_5 C53_5 1_555 1_555
C41_5 C30_5 1_555 1_555
C42_5 C40_5 1_555 1_555
H17_5 C42_5 1_555 1_555
C43_5 C39_5 1_555 1_555
N10_5 C47_5 1_555 1_555
C44_5 C35_5 1_555 1_555
H18_5 C44_5 1_555 1_555
C45_5 C42_5 1_555 1_555
C46_5 C36_5 1_555 1_555
H19_5 C46_5 1_555 1_555
N11_5 C45_5 1_555 1_555
H20_5 N11_5 1_555 1_555
C47_5 N11_5 1_555 1_555
C48_5 C41_5 1_555 1_555
H21_5 C48_5 1_555 1_555
C49_5 C43_5 1_555 1_555
H22_5 C49_5 1_555 1_555
C50_5 N8_5 1_555 1_555
C51_5 C38_5 1_555 1_555
H23_5 C51_5 1_555 1_555
N12_5 H24_5 1_555 1_555
C52_5 C44_5 1_555 1_555
C53_5 N8_5 1_555 1_555
C54_5 N7_5 1_555 1_555
Cu14_2 O24_3 1_555 1_555
Cu19_2 O20_3 1_555 1_555
O35_3 Cu18_2 1_555 1_555
O39_3 Cu12_2 1_555 1_555
C31_5 C41_5 1_555 1_555
C33_5 C38_5 1_555 1_555
N9_5 C54_5 1_555 1_555
N10_5 C53_5 1_555 1_555
C45_5 C51_5 1_555 1_555
C46_5 C50_5 1_555 1_555
C48_5 C52_5 1_555 1_555
C49_5 C50_5 1_555 1_555
N12_5 C52_5 1_555 1_555
N12_5 C54_5 1_555 1_555
Cu11_2 O6_5 1_555 1_555
Cu17_2 O9_5 1_555 1_555
O25_3 C10_5 1_555 1_555
O28_4 C7_5 1_555 1_555
O29 C5_5 1_555 1_555
O30_2 C5_5 1_555 1_555
O6_5 C7_5 1_555 1_555
O32_3 C2_5 1_555 1_555
O8_3 C10_5 1_555 1_555
O9_5 C1_5 1_555 1_555
O38_4 C1_5 1_555 1_555
O12_3 C2_5 1_555 1_555
C1_5 C8_5 1_555 1_555
C2_5 C9_5 1_555 1_555
C3_5 C14_5 1_555 1_555
C4_5 H1_5 1_555 1_555
C5_5 C11_5 1_555 1_555
C6_5 H2_5 1_555 1_555
C7_5 C16_5 1_555 1_555
C8_5 C4_5 1_555 1_555
C9_5 C12_5 1_555 1_555
C10_5 C13_5 1_555 1_555
C11_5 C6_5 1_555 1_555
N1_5 C20_5 1_555 1_555
N2_5 H3_5 1_555 1_555
C12_5 H4_5 1_555 1_555
C13_5 C6_5 1_555 1_555
N3_5 C26_5 1_555 1_555
C14_5 C4_5 1_555 1_555
C15_5 C13_5 1_555 1_555
H5_5 C15_5 1_555 1_555
C16_5 C12_5 1_555 1_555
N4_5 C20_5 1_555 1_555
C17_5 C8_5 1_555 1_555
H6_5 C17_5 1_555 1_555
C18_5 C15_5 1_555 1_555
C19_5 C9_5 1_555 1_555
H7_5 C19_5 1_555 1_555
N5_5 C18_5 1_555 1_555
H8_5 N5_5 1_555 1_555
C20_5 N5_5 1_555 1_555
C21_5 C14_5 1_555 1_555
H9_5 C21_5 1_555 1_555
C22_5 C16_5 1_555 1_555
H10_5 C22_5 1_555 1_555
C23_5 N2_5 1_555 1_555
C24_5 C11_5 1_555 1_555
H11_5 C24_5 1_555 1_555
N6_5 H12_5 1_555 1_555
C25_5 C17_5 1_555 1_555
C26_5 N2_5 1_555 1_555
C27_5 N1_5 1_555 1_555
Cu13_2 O12_3 1_555 1_555
Cu20_2 O8_3 1_555 1_555
O34_3 Cu17_2 1_555 1_555
O40_3 Cu11_2 1_555 1_555
N3_5 C27_5 1_555 1_555
N4_5 C26_5 1_555 1_555
C18_5 C24_5 1_555 1_555
C19_5 C23_5 1_555 1_555
C21_5 C25_5 1_555 1_555
C22_5 C23_5 1_555 1_555
N6_5 C25_5 1_555 1_555
N6_5 C27_5 1_555 1_555
Cu13_2 O6_6 1_555 1_555
Cu19_2 O9_6 1_555 1_555
O25_4 C10_6 1_555 1_555
O27_3 C7_6 1_555 1_555
O29_3 C5_6 1_555 1_555
O30_4 C5_6 1_555 1_555
O6_6 C7_6 1_555 1_555
O32_4 C2_6 1_555 1_555
O34_3 C10_6 1_555 1_555
O9_6 C1_6 1_555 1_555
O37_3 C1_6 1_555 1_555
O39_3 C2_6 1_555 1_555
C1_6 C8_6 1_555 1_555
C2_6 C9_6 1_555 1_555
C3_6 C14_6 1_555 1_555
C4_6 H1_6 1_555 1_555
C5_6 C11_6 1_555 1_555
C6_6 H2_6 1_555 1_555
C7_6 C16_6 1_555 1_555
C8_6 C4_6 1_555 1_555
C9_6 C12_6 1_555 1_555
C10_6 C13_6 1_555 1_555
C11_6 C6_6 1_555 1_555
N1_6 C20_6 1_555 1_555
N2_6 H3_6 1_555 1_555
C12_6 H4_6 1_555 1_555
C13_6 C6_6 1_555 1_555
N3_6 C26_6 1_555 1_555
C14_6 C4_6 1_555 1_555
C15_6 C13_6 1_555 1_555
H5_6 C15_6 1_555 1_555
C16_6 C12_6 1_555 1_555
N4_6 C20_6 1_555 1_555
C17_6 C8_6 1_555 1_555
H6_6 C17_6 1_555 1_555
C18_6 C15_6 1_555 1_555
C19_6 C9_6 1_555 1_555
H7_6 C19_6 1_555 1_555
N5_6 C18_6 1_555 1_555
H8_6 N5_6 1_555 1_555
C20_6 N5_6 1_555 1_555
C21_6 C14_6 1_555 1_555
H9_6 C21_6 1_555 1_555
C22_6 C16_6 1_555 1_555
H10_6 C22_6 1_555 1_555
C23_6 N2_6 1_555 1_555
C24_6 C11_6 1_555 1_555
H11_6 C24_6 1_555 1_555
N6_6 H12_6 1_555 1_555
C25_6 C17_6 1_555 1_555
C26_6 N2_6 1_555 1_555
C27_6 N1_6 1_555 1_555
N3_6 C27_6 1_555 1_555
N4_6 C26_6 1_555 1_555
C18_6 C24_6 1_555 1_555
C19_6 C23_6 1_555 1_555
C21_6 C25_6 1_555 1_555
C22_6 C23_6 1_555 1_555
N6_6 C25_6 1_555 1_555
N6_6 C27_6 1_555 1_555
Cu14_2 O18_6 1_555 1_555
Cu20_2 O21_6 1_555 1_555
O26_4 C37_6 1_555 1_555
O28_3 C34_6 1_555 1_555
O30_3 C32_6 1_555 1_555
O18_6 C34_6 1_555 1_555
O33_4 C29_6 1_555 1_555
O35_3 C37_6 1_555 1_555
O21_6 C28_6 1_555 1_555
O38_3 C28_6 1_555 1_555
O40_3 C29_6 1_555 1_555
C28_6 C35_6 1_555 1_555
C29_6 C36_6 1_555 1_555
C31_6 H13_6 1_555 1_555
C32_6 O29_4 1_555 1_555
C33_6 H14_6 1_555 1_555
C34_6 C43_6 1_555 1_555
C35_6 C31_6 1_555 1_555
C36_6 C39_6 1_555 1_555
C37_6 C40_6 1_555 1_555
C38_6 C32_6 1_555 1_555
N7_6 C47_6 1_555 1_555
N8_6 H15_6 1_555 1_555
C39_6 H16_6 1_555 1_555
C40_6 C33_6 1_555 1_555
N9_6 C53_6 1_555 1_555
C41_6 C30_6 1_555 1_555
C42_6 C40_6 1_555 1_555
H17_6 C42_6 1_555 1_555
C43_6 C39_6 1_555 1_555
N10_6 C47_6 1_555 1_555
C44_6 C35_6 1_555 1_555
H18_6 C44_6 1_555 1_555
C45_6 C42_6 1_555 1_555
C46_6 C36_6 1_555 1_555
H19_6 C46_6 1_555 1_555
N11_6 C45_6 1_555 1_555
H20_6 N11_6 1_555 1_555
C47_6 N11_6 1_555 1_555
C48_6 C41_6 1_555 1_555
H21_6 C48_6 1_555 1_555
C49_6 C43_6 1_555 1_555
H22_6 C49_6 1_555 1_555
C50_6 N8_6 1_555 1_555
C51_6 C38_6 1_555 1_555
H23_6 C51_6 1_555 1_555
N12_6 H24_6 1_555 1_555
C52_6 C44_6 1_555 1_555
C53_6 N8_6 1_555 1_555
C54_6 N7_6 1_555 1_555
C31_6 C41_6 1_555 1_555
C33_6 C38_6 1_555 1_555
N9_6 C54_6 1_555 1_555
N10_6 C53_6 1_555 1_555
C45_6 C51_6 1_555 1_555
C46_6 C50_6 1_555 1_555
C48_6 C52_6 1_555 1_555
C49_6 C50_6 1_555 1_555
N12_6 C52_6 1_555 1_555
N12_6 C54_6 1_555 1_555
Cu11 O6_7 1_555 1_555
O25 C10_7 1_555 1_555
O28_2 C7_7 1_555 1_555
O29_5 C5_7 1_555 1_555
O30_6 C5_7 1_555 1_555
O6_7 C7_7 1_555 1_555
O8_4 C10_7 1_555 1_555
C5_7 C11_7 1_555 1_555
C6_7 H2_7 1_555 1_555
C7_7 C16_7 1_555 1_555
C10_7 C13_7 1_555 1_555
C11_7 C6_7 1_555 1_555
N1_7 C20_7 1_555 1_555
C13_7 C6_7 1_555 1_555
C15_7 C13_7 1_555 1_555
H5_7 C15_7 1_555 1_555
N4_7 C20_7 1_555 1_555
C18_7 C15_7 1_555 1_555
N5_7 C18_7 1_555 1_555
H8_7 N5_7 1_555 1_555
C20_7 N5_7 1_555 1_555
C24_7 C11_7 1_555 1_555
H11_7 C24_7 1_555 1_555
Cu18 O21_7 1_555 1_555
O31_5 C30_7 1_555 1_555
O33 C29_7 1_555 1_555
O21_7 C28_7 1_555 1_555
O37_2 C28_7 1_555 1_555
O24_4 C29_7 1_555 1_555
C28_7 C35_7 1_555 1_555
C29_7 C36_7 1_555 1_555
C30_7 O36_6 1_555 1_555
C31_7 H13_7 1_555 1_555
C35_7 C31_7 1_555 1_555
C36_7 C39_7 1_555 1_555
N8_7 H15_7 1_555 1_555
C39_7 H16_7 1_555 1_555
N9_7 C53_7 1_555 1_555
C41_7 C30_7 1_555 1_555
C44_7 C35_7 1_555 1_555
H18_7 C44_7 1_555 1_555
C46_7 C36_7 1_555 1_555
H19_7 C46_7 1_555 1_555
C48_7 C41_7 1_555 1_555
H21_7 C48_7 1_555 1_555
C50_7 N8_7 1_555 1_555
N12_7 H24_7 1_555 1_555
C52_7 C44_7 1_555 1_555
C53_7 N8_7 1_555 1_555
Cu14 O24_4 1_555 1_555
Cu20 O8_4 1_555 1_555
O35_4 Cu18 1_555 1_555
O40_4 Cu11 1_555 1_555
C18_7 C24_7 1_555 1_555
C31_7 C41_7 1_555 1_555
N9_7 C54_7 1_555 1_555
C46_7 C50_7 1_555 1_555
C48_7 C52_7 1_555 1_555
C49_7 C50_7 1_555 1_555
N12_7 C52_7 1_555 1_555
N12_7 C54_7 1_555 1_555
Cu17 O9_7 1_555 1_555
O31_6 C3_7 1_555 1_555
O32 C2_7 1_555 1_555
O9_7 C1_7 1_555 1_555
O36_5 C3_7 1_555 1_555
O38_2 C1_7 1_555 1_555
O12_4 C2_7 1_555 1_555
C1_7 C8_7 1_555 1_555
C2_7 C9_7 1_555 1_555
C3_7 C14_7 1_555 1_555
C4_7 H1_7 1_555 1_555
C8_7 C4_7 1_555 1_555
C9_7 C12_7 1_555 1_555
N2_7 H3_7 1_555 1_555
C12_7 H4_7 1_555 1_555
N3_7 C26_7 1_555 1_555
C14_7 C4_7 1_555 1_555
C17_7 C8_7 1_555 1_555
H6_7 C17_7 1_555 1_555
C19_7 C9_7 1_555 1_555
H7_7 C19_7 1_555 1_555
C21_7 C14_7 1_555 1_555
H9_7 C21_7 1_555 1_555
C23_7 N2_7 1_555 1_555
N6_7 H12_7 1_555 1_555
C25_7 C17_7 1_555 1_555
C26_7 N2_7 1_555 1_555
Cu12 O18_7 1_555 1_555
O26 C37_7 1_555 1_555
O27_2 C34_7 1_555 1_555
O30_5 C32_7 1_555 1_555
O18_7 C34_7 1_555 1_555
O20_4 C37_7 1_555 1_555
C32_7 O29_6 1_555 1_555
C33_7 H14_7 1_555 1_555
C34_7 C43_7 1_555 1_555
C37_7 C40_7 1_555 1_555
C38_7 C32_7 1_555 1_555
N7_7 C47_7 1_555 1_555
C40_7 C33_7 1_555 1_555
C42_7 C40_7 1_555 1_555
H17_7 C42_7 1_555 1_555
N10_7 C47_7 1_555 1_555
C45_7 C42_7 1_555 1_555
N11_7 C45_7 1_555 1_555
H20_7 N11_7 1_555 1_555
C47_7 N11_7 1_555 1_555
C51_7 C38_7 1_555 1_555
H23_7 C51_7 1_555 1_555
Cu13 O12_4 1_555 1_555
Cu19 O20_4 1_555 1_555
O34_4 Cu17 1_555 1_555
O39_4 Cu12 1_555 1_555
N3_7 C27_7 1_555 1_555
C19_7 C23_7 1_555 1_555
C21_7 C25_7 1_555 1_555
C22_7 C23_7 1_555 1_555
N6_7 C25_7 1_555 1_555
N6_7 C27_7 1_555 1_555
C33_7 C38_7 1_555 1_555
C45_7 C51_7 1_555 1_555
Cu13 O6_8 1_555 1_555
O25_2 C10_8 1_555 1_555
O27 C7_8 1_555 1_555
O29_7 C5_8 1_555 1_555
O30_8 C5_8 1_555 1_555
O6_8 C7_8 1_555 1_555
O34_4 C10_8 1_555 1_555
C5_8 C11_8 1_555 1_555
C6_8 H2_8 1_555 1_555
C7_8 C16_8 1_555 1_555
C10_8 C13_8 1_555 1_555
C11_8 C6_8 1_555 1_555
N1_8 C20_8 1_555 1_555
C13_8 C6_8 1_555 1_555
C15_8 C13_8 1_555 1_555
H5_8 C15_8 1_555 1_555
N4_8 C20_8 1_555 1_555
C18_8 C15_8 1_555 1_555
N5_8 C18_8 1_555 1_555
H8_8 N5_8 1_555 1_555
C20_8 N5_8 1_555 1_555
C24_8 C11_8 1_555 1_555
H11_8 C24_8 1_555 1_555
Cu20 O21_8 1_555 1_555
O31_7 C30_8 1_555 1_555
O33_2 C29_8 1_555 1_555
O21_8 C28_8 1_555 1_555
O38 C28_8 1_555 1_555
O40_4 C29_8 1_555 1_555
C28_8 C35_8 1_555 1_555
C29_8 C36_8 1_555 1_555
C30_8 O36_8 1_555 1_555
C31_8 H13_8 1_555 1_555
C35_8 C31_8 1_555 1_555
C36_8 C39_8 1_555 1_555
N8_8 H15_8 1_555 1_555
C39_8 H16_8 1_555 1_555
N9_8 C53_8 1_555 1_555
C41_8 C30_8 1_555 1_555
C44_8 C35_8 1_555 1_555
H18_8 C44_8 1_555 1_555
C46_8 C36_8 1_555 1_555
H19_8 C46_8 1_555 1_555
C48_8 C41_8 1_555 1_555
H21_8 C48_8 1_555 1_555
C50_8 N8_8 1_555 1_555
N12_8 H24_8 1_555 1_555
C52_8 C44_8 1_555 1_555
C53_8 N8_8 1_555 1_555
C18_8 C24_8 1_555 1_555
C31_8 C41_8 1_555 1_555
N9_8 C54_8 1_555 1_555
C46_8 C50_8 1_555 1_555
C48_8 C52_8 1_555 1_555
C49_8 C50_8 1_555 1_555
N12_8 C52_8 1_555 1_555
N12_8 C54_8 1_555 1_555
Cu19 O9_8 1_555 1_555
O31_8 C3_8 1_555 1_555
O32_2 C2_8 1_555 1_555
O9_8 C1_8 1_555 1_555
O36_7 C3_8 1_555 1_555
O37 C1_8 1_555 1_555
O39_4 C2_8 1_555 1_555
C1_8 C8_8 1_555 1_555
C2_8 C9_8 1_555 1_555
C3_8 C14_8 1_555 1_555
C4_8 H1_8 1_555 1_555
C8_8 C4_8 1_555 1_555
C9_8 C12_8 1_555 1_555
N2_8 H3_8 1_555 1_555
C12_8 H4_8 1_555 1_555
N3_8 C26_8 1_555 1_555
C14_8 C4_8 1_555 1_555
C17_8 C8_8 1_555 1_555
H6_8 C17_8 1_555 1_555
C19_8 C9_8 1_555 1_555
H7_8 C19_8 1_555 1_555
C21_8 C14_8 1_555 1_555
H9_8 C21_8 1_555 1_555
C23_8 N2_8 1_555 1_555
N6_8 H12_8 1_555 1_555
C25_8 C17_8 1_555 1_555
C26_8 N2_8 1_555 1_555
Cu14 O18_8 1_555 1_555
O26_2 C37_8 1_555 1_555
O28 C34_8 1_555 1_555
O30_7 C32_8 1_555 1_555
O18_8 C34_8 1_555 1_555
O35_4 C37_8 1_555 1_555
C32_8 O29_8 1_555 1_555
C33_8 H14_8 1_555 1_555
C34_8 C43_8 1_555 1_555
C37_8 C40_8 1_555 1_555
C38_8 C32_8 1_555 1_555
N7_8 C47_8 1_555 1_555
C40_8 C33_8 1_555 1_555
C42_8 C40_8 1_555 1_555
H17_8 C42_8 1_555 1_555
N10_8 C47_8 1_555 1_555
C45_8 C42_8 1_555 1_555
N11_8 C45_8 1_555 1_555
H20_8 N11_8 1_555 1_555
C47_8 N11_8 1_555 1_555
C51_8 C38_8 1_555 1_555
H23_8 C51_8 1_555 1_555
N3_8 C27_8 1_555 1_555
C19_8 C23_8 1_555 1_555
C21_8 C25_8 1_555 1_555
C22_8 C23_8 1_555 1_555
N6_8 C25_8 1_555 1_555
N6_8 C27_8 1_555 1_555
C33_8 C38_8 1_555 1_555
C45_8 C51_8 1_555 1_555

#END
