
###############################################################################
#
# This file contains modified crystal structure data generated from the
# MOF subset of the Cambridge Structural Database (CSD) v543 
# hosted by the Cambridge Crystallographic Data Centre (CCDC).
#
# This work is licensed under the Creative Commons
# Attribution-NonCommercial-ShareAlike 4.0 International License.
# To view a copy of this license, visit
# http://creativecommons.org/licenses/by-nc-sa/4.0/
# or send a letter to
# Creative Commons, PO Box 1866, Mountain View, CA 94042, USA.
#
# CIF created using the CSD Python API on 29 September 2022
# The structure has been converted into the P1 space group
# The structure has a 3D framework
# The original CSD entry PAPPAB15 is in the tetragonal crystal system
# The framework has been calculated to contain at least 10.0% void space
# The void calculation uses a probe of radius 1.32A, grid spacing 0.4
#
###############################################################################

data_PAPPAB15
_chemical_formula_moiety         '(C432 H192 Cu40 N96 O180)n'
_symmetry_cell_setting           triclinic
_symmetry_space_group_name_H-M   'P 1'
_symmetry_Int_Tables_number      1
_space_group_name_Hall           'P 1'
loop_
_symmetry_equiv_pos_site_id
_symmetry_equiv_pos_as_xyz
1 x,y,z
_cell_length_a                   26.4202(3)
_cell_length_b                   26.4202(3)
_cell_length_c                   37.8751(7)
_cell_angle_alpha                90
_cell_angle_beta                 90
_cell_angle_gamma                90
_cell_volume                     26437.8
loop_
_atom_site_label
_atom_site_type_symbol
_atom_site_fract_x
_atom_site_fract_y
_atom_site_fract_z
Cu2 Cu 0.26761(6) 0.34308(6) 0.80568(4)
Cu3 Cu 0.05630(9) 0.29907(8) 0.500000
Cu4 Cu 0.11936(6) 0.82226(6) 0.64817(4)
O1 O 0.3571(4) 0.6205(4) 0.8245(3)
O2 O 0.2687(4) 0.4083(4) 0.7834(2)
O3 O 0.1070(4) 0.2944(3) 0.5359(2)
O4 O 0.3255(4) 0.6701(3) 0.7819(2)
O5 O 0.2271(4) 0.2201(3) 0.6686(3)
O6 O 0.1005(4) 0.7605(4) 0.6257(3)
O7 O 0.1376(4) 0.7105(4) 0.6652(3)
O8 O 0.3200(4) 0.4423(3) 0.8247(3)
O9 O 0.1209(4) 0.3769(4) 0.5371(3)
O11 O 0.1803(4) 0.1853(4) 0.6258(2)
C1 C 0.1116(5) 0.7187(5) 0.6375(4)
C2 C 0.2914(7) 0.4440(6) 0.7972(4)
C3 C 0.1574(6) 0.3273(5) 0.5811(4)
C4 C 0.3330(5) 0.6282(5) 0.7962(4)
C5 C 0.0020(6) 0.6396(6) 0.5461(4)
C6 C 0.1663(5) 0.2798(5) 0.5946(4)
H1 H 0.154529 0.251620 0.582403
C7 C 0.1250(6) 0.3331(6) 0.5484(4)
C8 C 0.3089(6) 0.5829(5) 0.7792(4)
C9 C 0.2904(6) 0.4953(5) 0.7799(4)
C10 C 0.0954(6) 0.6719(5) 0.6175(4)
N1 N 0.2248(7) 0.5577(5) 0.7054(4)
H2 H 0.216202 0.588892 0.702705
C11 C 0.1920(6) 0.2732(6) 0.6253(4)
C12 C 0.2005(6) 0.2210(6) 0.6413(4)
C13 C 0.0430(6) 0.6355(7) 0.5735(4)
N2 N 0.1663(7) 0.4686(6) 0.6306(4)
C14 C 0.3131(6) 0.5360(6) 0.7945(4)
H3 H 0.331775 0.532258 0.815112
C15 C 0.0585(6) 0.6780(6) 0.5920(4)
H4 H 0.044460 0.709647 0.587417
C16 C 0.2090(7) 0.3152(6) 0.6430(4)
H5 H 0.227246 0.310707 0.663805
C17 C 0.2610(6) 0.5012(5) 0.7506(5)
H6 H 0.244386 0.473180 0.741231
N3 N 0.1738(7) 0.5487(5) 0.6581(4)
N4 N 0.2207(6) 0.4785(5) 0.6793(4)
C18 C 0.2795(7) 0.5886(6) 0.7493(4)
H7 H 0.276008 0.620408 0.739044
C19 C 0.2552(7) 0.5475(6) 0.7346(4)
C20 C 0.1141(7) 0.6262(6) 0.6255(5)
H8 H 0.136606 0.622799 0.644226
C21 C 0.0621(7) 0.5890(6) 0.5808(4)
H9 H 0.049799 0.560588 0.569188
C22 C 0.2006(8) 0.4525(7) 0.6525(5)
N5 N 0.2160(7) 0.4041(5) 0.6517(4)
H10 H 0.239731 0.396945 0.666359
C23 C 0.1725(7) 0.3691(6) 0.5999(5)
H11 H 0.164380 0.401316 0.591743
C24 C 0.2001(7) 0.3637(6) 0.6312(5)
N6 N 0.1194(7) 0.5347(5) 0.6118(5)
H12 H 0.106932 0.511658 0.598307
C25 C 0.1003(8) 0.5843(6) 0.6061(5)
C26 C 0.2075(8) 0.5259(7) 0.6810(6)
C27 C 0.1544(9) 0.5184(8) 0.6353(5)
O22 O 0.0189(4) 0.3974(4) 0.5353(3)
O24 O 0.0058(4) 0.3151(4) 0.5356(3)
Cu7 Cu 0.07151(9) 0.39150(8) 0.500000
Cu9 Cu 0.34308(6) 0.73239(6) 0.80568(4)
Cu10 Cu 0.23239(6) 0.15692(6) 0.69432(4)
Cu13 Cu 0.15692(6) 0.76761(6) 0.69432(4)
Cu15 Cu 0.17774(6) 0.11936(6) 0.64817(4)
Cu17 Cu 0.38064(6) 0.67774(6) 0.85183(4)
Cu19 Cu 0.32226(6) 0.38064(6) 0.85183(4)
O25 O 0.1429(4) 0.8795(4) 0.6755(3)
O27 O 0.1070(4) 0.2944(3) 0.4641(2)
O28 O 0.3299(3) 0.3255(4) 0.7819(2)
O30 O 0.2729(4) 0.2799(3) 0.8314(3)
O32 O 0.2105(4) 0.3624(4) 0.8348(3)
O35 O 0.0577(3) 0.8200(4) 0.6753(3)
O39 O 0.1853(4) 0.8197(4) 0.6258(2)
O40 O 0.0058(4) 0.3151(4) 0.4644(3)
Cu1 Cu 0.92849(9) 0.60850(8) 0.500000
O10 O 0.9811(4) 0.6026(4) 0.5353(3)
O12 O 0.9942(4) 0.6849(4) 0.5356(3)
Cu5 Cu 0.73239(6) 0.65692(6) 0.80568(4)
Cu6 Cu 0.88064(6) 0.17774(6) 0.64817(4)
O13 O 0.6429(4) 0.3795(4) 0.8245(3)
O14 O 0.7313(4) 0.5917(4) 0.7834(2)
O15 O 0.8930(4) 0.7056(3) 0.5359(2)
O16 O 0.6745(4) 0.3299(3) 0.7819(2)
O17 O 0.7729(4) 0.7799(3) 0.6686(3)
O18 O 0.8995(4) 0.2395(4) 0.6257(3)
O19 O 0.8624(4) 0.2895(4) 0.6652(3)
O20 O 0.6800(4) 0.5577(3) 0.8247(3)
O21 O 0.8791(4) 0.6231(4) 0.5371(3)
O23 O 0.8197(4) 0.8147(4) 0.6258(2)
C28 C 0.8884(5) 0.2813(5) 0.6375(4)
C29 C 0.7086(7) 0.5560(6) 0.7972(4)
C30 C 0.8426(6) 0.6727(5) 0.5811(4)
C31 C 0.6670(5) 0.3718(5) 0.7962(4)
C32 C 0.9980(6) 0.3604(6) 0.5461(4)
C33 C 0.8337(5) 0.7202(5) 0.5946(4)
H13 H 0.845471 0.748380 0.582403
C34 C 0.8750(6) 0.6669(6) 0.5484(4)
C35 C 0.6911(6) 0.4171(5) 0.7792(4)
C36 C 0.7096(6) 0.5047(5) 0.7799(4)
C37 C 0.9046(6) 0.3281(5) 0.6175(4)
N7 N 0.7752(7) 0.4423(5) 0.7054(4)
H14 H 0.783798 0.411108 0.702705
C38 C 0.8080(6) 0.7268(6) 0.6253(4)
C39 C 0.7995(6) 0.7790(6) 0.6413(4)
C40 C 0.9570(6) 0.3645(7) 0.5735(4)
N8 N 0.8337(7) 0.5314(6) 0.6306(4)
C41 C 0.6869(6) 0.4640(6) 0.7945(4)
H15 H 0.668225 0.467742 0.815112
C42 C 0.9415(6) 0.3220(6) 0.5920(4)
H16 H 0.955540 0.290353 0.587417
C43 C 0.7910(7) 0.6848(6) 0.6430(4)
H17 H 0.772754 0.689293 0.663805
C44 C 0.7390(6) 0.4988(5) 0.7506(5)
H18 H 0.755614 0.526820 0.741231
N9 N 0.8262(7) 0.4513(5) 0.6581(4)
N10 N 0.7793(6) 0.5215(5) 0.6793(4)
C45 C 0.7205(7) 0.4114(6) 0.7493(4)
H19 H 0.723992 0.379592 0.739044
C46 C 0.7448(7) 0.4525(6) 0.7346(4)
C47 C 0.8859(7) 0.3738(6) 0.6255(5)
H20 H 0.863394 0.377201 0.644226
C48 C 0.9379(7) 0.4110(6) 0.5808(4)
H21 H 0.950201 0.439412 0.569188
C49 C 0.7994(8) 0.5475(7) 0.6525(5)
N11 N 0.7840(7) 0.5959(5) 0.6517(4)
H22 H 0.760269 0.603055 0.666359
C50 C 0.8275(7) 0.6309(6) 0.5999(5)
H23 H 0.835620 0.598684 0.591743
C51 C 0.7999(7) 0.6363(6) 0.6312(5)
N12 N 0.8806(7) 0.4653(5) 0.6118(5)
H24 H 0.893068 0.488342 0.598307
C52 C 0.8997(8) 0.4157(6) 0.6061(5)
C53 C 0.7925(8) 0.4741(7) 0.6810(6)
C54 C 0.8456(9) 0.4816(8) 0.6353(5)
Cu8 Cu 0.65692(6) 0.26761(6) 0.80568(4)
Cu11 Cu 0.76761(6) 0.84308(6) 0.69432(4)
Cu12 Cu 0.84308(6) 0.23239(6) 0.69432(4)
Cu14 Cu 0.94370(9) 0.70093(8) 0.500000
Cu16 Cu 0.82226(6) 0.88064(6) 0.64817(4)
Cu18 Cu 0.61936(6) 0.32226(6) 0.85183(4)
Cu20 Cu 0.67774(6) 0.61936(6) 0.85183(4)
O26 O 0.8571(4) 0.1205(4) 0.6755(3)
O29 O 0.6701(3) 0.6745(4) 0.7819(2)
O31 O 0.7271(4) 0.7201(3) 0.8314(3)
O33 O 0.7895(4) 0.6376(4) 0.8348(3)
O34 O 0.9423(3) 0.1800(4) 0.6753(3)
O36 O 0.8791(4) 0.6231(4) 0.4629(3)
O37 O 0.9811(4) 0.6026(4) 0.4647(3)
O38 O 0.8147(4) 0.1803(4) 0.6258(2)
O36_2 O 0.1209(4) 0.3769(4) 0.4629(3)
O37_2 O 0.0189(4) 0.3974(4) 0.4647(3)
O27_2 O 0.8930(4) 0.7056(3) 0.4641(2)
O40_2 O 0.9942(4) 0.6849(4) 0.4644(3)
Cu3_2 Cu 0.70093(8) 0.05630(9) 0.500000
O1_2 O 0.3795(4) 0.3571(4) 0.8245(3)
O2_2 O 0.5917(4) 0.2687(4) 0.7834(2)
O3_2 O 0.7056(3) 0.1070(4) 0.5359(2)
O5_2 O 0.7799(3) 0.2271(4) 0.6686(3)
O6_2 O 0.2395(4) 0.1005(4) 0.6257(3)
O7_2 O 0.2895(4) 0.1376(4) 0.6652(3)
O8_2 O 0.5577(3) 0.3200(4) 0.8247(3)
O9_2 O 0.6231(4) 0.1209(4) 0.5371(3)
C1_2 C 0.2813(5) 0.1116(5) 0.6375(4)
C2_2 C 0.5560(6) 0.2914(7) 0.7972(4)
C3_2 C 0.6727(5) 0.1574(6) 0.5811(4)
C4_2 C 0.3718(5) 0.3330(5) 0.7962(4)
C5_2 C 0.3604(6) 0.0020(6) 0.5461(4)
C6_2 C 0.7202(5) 0.1663(5) 0.5946(4)
H1_2 H 0.748380 0.154529 0.582403
C7_2 C 0.6669(6) 0.1250(6) 0.5484(4)
C8_2 C 0.4171(5) 0.3089(6) 0.7792(4)
C9_2 C 0.5047(5) 0.2904(6) 0.7799(4)
C10_2 C 0.3281(5) 0.0954(6) 0.6175(4)
N1_2 N 0.4423(5) 0.2248(7) 0.7054(4)
H2_2 H 0.411108 0.216202 0.702705
C11_2 C 0.7268(6) 0.1920(6) 0.6253(4)
C12_2 C 0.7790(6) 0.2005(6) 0.6413(4)
C13_2 C 0.3645(7) 0.0430(6) 0.5735(4)
N2_2 N 0.5314(6) 0.1663(7) 0.6306(4)
C14_2 C 0.4640(6) 0.3131(6) 0.7945(4)
H3_2 H 0.467742 0.331775 0.815112
C15_2 C 0.3220(6) 0.0585(6) 0.5920(4)
H4_2 H 0.290353 0.044460 0.587417
C16_2 C 0.6848(6) 0.2090(7) 0.6430(4)
H5_2 H 0.689293 0.227246 0.663805
C17_2 C 0.4988(5) 0.2610(6) 0.7506(5)
H6_2 H 0.526820 0.244386 0.741231
N3_2 N 0.4513(5) 0.1738(7) 0.6581(4)
N4_2 N 0.5215(5) 0.2207(6) 0.6793(4)
C18_2 C 0.4114(6) 0.2795(7) 0.7493(4)
H7_2 H 0.379592 0.276008 0.739044
C19_2 C 0.4525(6) 0.2552(7) 0.7346(4)
C20_2 C 0.3738(6) 0.1141(7) 0.6255(5)
H8_2 H 0.377201 0.136606 0.644226
C21_2 C 0.4110(6) 0.0621(7) 0.5808(4)
H9_2 H 0.439412 0.049799 0.569188
C22_2 C 0.5475(7) 0.2006(8) 0.6525(5)
N5_2 N 0.5959(5) 0.2160(7) 0.6517(4)
H10_2 H 0.603055 0.239731 0.666359
C23_2 C 0.6309(6) 0.1725(7) 0.5999(5)
H11_2 H 0.598684 0.164380 0.591743
C24_2 C 0.6363(6) 0.2001(7) 0.6312(5)
N6_2 N 0.4653(5) 0.1194(7) 0.6118(5)
H12_2 H 0.488342 0.106932 0.598307
C25_2 C 0.4157(6) 0.1003(8) 0.6061(5)
C26_2 C 0.4741(7) 0.2075(8) 0.6810(6)
C27_2 C 0.4816(8) 0.1544(9) 0.6353(5)
O22_2 O 0.6026(4) 0.0189(4) 0.5353(3)
O24_2 O 0.6849(4) 0.0058(4) 0.5356(3)
Cu7_2 Cu 0.60850(8) 0.07151(9) 0.500000
O25_2 O 0.1205(4) 0.1429(4) 0.6755(3)
O27_3 O 0.7056(3) 0.1070(4) 0.4641(2)
O30_2 O 0.7201(3) 0.2729(4) 0.8314(3)
O32_2 O 0.6376(4) 0.2105(4) 0.8348(3)
O35_2 O 0.1800(4) 0.0577(3) 0.6753(3)
O40_3 O 0.6849(4) 0.0058(4) 0.4644(3)
Cu1_2 Cu 0.39150(8) 0.92849(9) 0.500000
O10_2 O 0.3974(4) 0.9811(4) 0.5353(3)
O12_2 O 0.3151(4) 0.9942(4) 0.5356(3)
O13_2 O 0.6205(4) 0.6429(4) 0.8245(3)
O14_2 O 0.4083(4) 0.7313(4) 0.7834(2)
O15_2 O 0.2944(3) 0.8930(4) 0.5359(2)
O17_2 O 0.2201(3) 0.7729(4) 0.6686(3)
O18_2 O 0.7605(4) 0.8995(4) 0.6257(3)
O19_2 O 0.7105(4) 0.8624(4) 0.6652(3)
O20_2 O 0.4423(3) 0.6800(4) 0.8247(3)
O21_2 O 0.3769(4) 0.8791(4) 0.5371(3)
C28_2 C 0.7187(5) 0.8884(5) 0.6375(4)
C29_2 C 0.4440(6) 0.7086(7) 0.7972(4)
C30_2 C 0.3273(5) 0.8426(6) 0.5811(4)
C31_2 C 0.6282(5) 0.6670(5) 0.7962(4)
C32_2 C 0.6396(6) 0.9980(6) 0.5461(4)
C33_2 C 0.2798(5) 0.8337(5) 0.5946(4)
H13_2 H 0.251620 0.845471 0.582403
C34_2 C 0.3331(6) 0.8750(6) 0.5484(4)
C35_2 C 0.5829(5) 0.6911(6) 0.7792(4)
C36_2 C 0.4953(5) 0.7096(6) 0.7799(4)
C37_2 C 0.6719(5) 0.9046(6) 0.6175(4)
N7_2 N 0.5577(5) 0.7752(7) 0.7054(4)
H14_2 H 0.588892 0.783798 0.702705
C38_2 C 0.2732(6) 0.8080(6) 0.6253(4)
C39_2 C 0.2210(6) 0.7995(6) 0.6413(4)
C40_2 C 0.6355(7) 0.9570(6) 0.5735(4)
N8_2 N 0.4686(6) 0.8337(7) 0.6306(4)
C41_2 C 0.5360(6) 0.6869(6) 0.7945(4)
H15_2 H 0.532258 0.668225 0.815112
C42_2 C 0.6780(6) 0.9415(6) 0.5920(4)
H16_2 H 0.709647 0.955540 0.587417
C43_2 C 0.3152(6) 0.7910(7) 0.6430(4)
H17_2 H 0.310707 0.772754 0.663805
C44_2 C 0.5012(5) 0.7390(6) 0.7506(5)
H18_2 H 0.473180 0.755614 0.741231
N9_2 N 0.5487(5) 0.8262(7) 0.6581(4)
N10_2 N 0.4785(5) 0.7793(6) 0.6793(4)
C45_2 C 0.5886(6) 0.7205(7) 0.7493(4)
H19_2 H 0.620408 0.723992 0.739044
C46_2 C 0.5475(6) 0.7448(7) 0.7346(4)
C47_2 C 0.6262(6) 0.8859(7) 0.6255(5)
H20_2 H 0.622799 0.863394 0.644226
C48_2 C 0.5890(6) 0.9379(7) 0.5808(4)
H21_2 H 0.560588 0.950201 0.569188
C49_2 C 0.4525(7) 0.7994(8) 0.6525(5)
N11_2 N 0.4041(5) 0.7840(7) 0.6517(4)
H22_2 H 0.396945 0.760269 0.666359
C50_2 C 0.3691(6) 0.8275(7) 0.5999(5)
H23_2 H 0.401316 0.835620 0.591743
C51_2 C 0.3637(6) 0.7999(7) 0.6312(5)
N12_2 N 0.5347(5) 0.8806(7) 0.6118(5)
H24_2 H 0.511658 0.893068 0.598307
C52_2 C 0.5843(6) 0.8997(8) 0.6061(5)
C53_2 C 0.5259(7) 0.7925(8) 0.6810(6)
C54_2 C 0.5184(8) 0.8456(9) 0.6353(5)
Cu14_2 Cu 0.29907(8) 0.94370(9) 0.500000
O26_2 O 0.8795(4) 0.8571(4) 0.6755(3)
O31_2 O 0.2799(3) 0.7271(4) 0.8314(3)
O33_2 O 0.3624(4) 0.7895(4) 0.8348(3)
O34_2 O 0.8200(4) 0.9423(3) 0.6753(3)
O36_3 O 0.3769(4) 0.8791(4) 0.4629(3)
O37_3 O 0.3974(4) 0.9811(4) 0.4647(3)
O36_4 O 0.6231(4) 0.1209(4) 0.4629(3)
O37_4 O 0.6026(4) 0.0189(4) 0.4647(3)
O27_4 O 0.2944(3) 0.8930(4) 0.4641(2)
O40_4 O 0.3151(4) 0.9942(4) 0.4644(3)
Cu1_3 Cu 0.42849(9) 0.10850(8) -0.000000
Cu4_2 Cu 0.61936(6) 0.32226(6) 0.14817(4)
O1_3 O 0.8571(4) 0.1205(4) 0.3245(3)
O4_2 O 0.8255(4) 0.1701(3) 0.2819(2)
O6_3 O 0.6005(4) 0.2605(4) 0.1257(3)
O7_3 O 0.6376(4) 0.2105(4) 0.1652(3)
O10_3 O 0.4811(4) 0.1026(4) 0.0353(3)
O12_3 O 0.4942(4) 0.1849(4) 0.0356(3)
C1_3 C 0.6116(5) 0.2187(5) 0.1375(4)
C4_3 C 0.8330(5) 0.1282(5) 0.2962(4)
C5_3 C 0.5020(6) 0.1396(6) 0.0461(4)
C8_3 C 0.8089(6) 0.0829(5) 0.2792(4)
C10_3 C 0.5954(6) 0.1719(5) 0.1175(4)
N1_3 N 0.7248(7) 0.0577(5) 0.2054(4)
H2_3 H 0.716202 0.088892 0.202705
C13_3 C 0.5430(6) 0.1355(7) 0.0735(4)
C14_3 C 0.8131(6) 0.0360(6) 0.2945(4)
H3_3 H 0.831775 0.032258 0.315112
C15_3 C 0.5585(6) 0.1780(6) 0.0920(4)
H4_3 H 0.544460 0.209647 0.087417
C17_3 C 0.7610(6) 0.0012(5) 0.2506(5)
N3_3 N 0.6738(7) 0.0487(5) 0.1581(4)
C18_3 C 0.7795(7) 0.0886(6) 0.2493(4)
H7_3 H 0.776008 0.120408 0.239044
C19_3 C 0.7552(7) 0.0475(6) 0.2346(4)
C20_3 C 0.6141(7) 0.1262(6) 0.1255(5)
H8_3 H 0.636606 0.122799 0.144226
C21_3 C 0.5621(7) 0.0890(6) 0.0808(4)
H9_3 H 0.549799 0.060588 0.069188
N6_3 N 0.6194(7) 0.0347(5) 0.1118(5)
H12_3 H 0.606932 0.011658 0.098307
C25_3 C 0.6003(8) 0.0843(6) 0.1061(5)
C26_3 C 0.7075(8) 0.0259(7) 0.1810(6)
C27_3 C 0.6544(9) 0.0184(8) 0.1353(5)
Cu5_2 Cu 0.23239(6) 0.15692(6) 0.30568(4)
O14_3 O 0.2313(4) 0.0917(4) 0.2834(2)
O15_3 O 0.3930(4) 0.2056(3) 0.0359(2)
O17_3 O 0.2729(4) 0.2799(3) 0.1686(3)
O20_3 O 0.1800(4) 0.0577(3) 0.3247(3)
O21_3 O 0.3791(4) 0.1231(4) 0.0371(3)
O23_2 O 0.3197(4) 0.3147(4) 0.1258(2)
C29_3 C 0.2086(7) 0.0560(6) 0.2972(4)
C30_3 C 0.3426(6) 0.1727(5) 0.0811(4)
C33_3 C 0.3337(5) 0.2202(5) 0.0946(4)
H13_3 H 0.345471 0.248380 0.082403
C34_3 C 0.3750(6) 0.1669(6) 0.0484(4)
C36_3 C 0.2096(6) 0.0047(5) 0.2799(4)
C38_3 C 0.3080(6) 0.2268(6) 0.1253(4)
C39_3 C 0.2995(6) 0.2790(6) 0.1413(4)
N8_3 N 0.3337(7) 0.0314(6) 0.1306(4)
C43_3 C 0.2910(7) 0.1848(6) 0.1430(4)
H17_3 H 0.272754 0.189293 0.163805
H18_3 H 0.255614 0.026820 0.241231
N10_3 N 0.2793(6) 0.0215(5) 0.1793(4)
C49_3 C 0.2994(8) 0.0475(7) 0.1525(5)
N11_3 N 0.2840(7) 0.0959(5) 0.1517(4)
H22_3 H 0.260269 0.103055 0.166359
C50_3 C 0.3275(7) 0.1309(6) 0.0999(5)
H23_3 H 0.335620 0.098684 0.091743
C51_3 C 0.2999(7) 0.1363(6) 0.1312(5)
Cu9_2 Cu 0.84308(6) 0.23239(6) 0.30568(4)
Cu11_2 Cu 0.26761(6) 0.34308(6) 0.19432(4)
Cu13_2 Cu 0.65692(6) 0.26761(6) 0.19432(4)
Cu14_3 Cu 0.44370(9) 0.20093(8) -0.000000
Cu16_2 Cu 0.32226(6) 0.38064(6) 0.14817(4)
Cu17_2 Cu 0.88064(6) 0.17774(6) 0.35183(4)
Cu20_2 Cu 0.17774(6) 0.11936(6) 0.35183(4)
O25_3 O 0.6429(4) 0.3795(4) 0.1755(3)
O29_2 O 0.1701(3) 0.1745(4) 0.2819(2)
O31_3 O 0.2271(4) 0.2201(3) 0.3314(3)
O33_3 O 0.2895(4) 0.1376(4) 0.3348(3)
O35_3 O 0.5577(3) 0.3200(4) 0.1753(3)
O39_2 O 0.6853(4) 0.3197(4) 0.1258(2)
Cu1_4 Cu 0.42849(9) 0.10850(8) 1.000000
Cu14_4 Cu 0.44370(9) 0.20093(8) 1.000000
O36_5 O 0.3791(4) 0.1231(4) 0.9629(3)
O37_5 O 0.4811(4) 0.1026(4) 0.9647(3)
Cu2_2 Cu 0.76761(6) 0.84308(6) 0.30568(4)
Cu3_3 Cu 0.55630(9) 0.79907(8) -0.000000
O2_3 O 0.7687(4) 0.9083(4) 0.2834(2)
O3_3 O 0.6070(4) 0.7944(3) 0.0359(2)
O5_3 O 0.7271(4) 0.7201(3) 0.1686(3)
O8_3 O 0.8200(4) 0.9423(3) 0.3247(3)
O9_3 O 0.6209(4) 0.8769(4) 0.0371(3)
O11_2 O 0.6803(4) 0.6853(4) 0.1258(2)
C2_3 C 0.7914(7) 0.9440(6) 0.2972(4)
C3_3 C 0.6574(6) 0.8273(5) 0.0811(4)
C6_3 C 0.6663(5) 0.7798(5) 0.0946(4)
H1_3 H 0.654529 0.751620 0.082403
C7_3 C 0.6250(6) 0.8331(6) 0.0484(4)
C9_3 C 0.7904(6) 0.9953(5) 0.2799(4)
C11_3 C 0.6920(6) 0.7732(6) 0.1253(4)
C12_3 C 0.7005(6) 0.7210(6) 0.1413(4)
N2_3 N 0.6663(7) 0.9686(6) 0.1306(4)
C16_3 C 0.7090(7) 0.8152(6) 0.1430(4)
H5_3 H 0.727246 0.810707 0.163805
H6_3 H 0.744386 0.973180 0.241231
N4_3 N 0.7207(6) 0.9785(5) 0.1793(4)
C22_3 C 0.7006(8) 0.9525(7) 0.1525(5)
N5_3 N 0.7160(7) 0.9041(5) 0.1517(4)
H10_3 H 0.739731 0.896945 0.166359
C23_3 C 0.6725(7) 0.8691(6) 0.0999(5)
H11_3 H 0.664380 0.901316 0.091743
C24_3 C 0.7001(7) 0.8637(6) 0.1312(5)
Cu6_2 Cu 0.38064(6) 0.67774(6) 0.14817(4)
O13_3 O 0.1429(4) 0.8795(4) 0.3245(3)
O16_2 O 0.1745(4) 0.8299(3) 0.2819(2)
O18_3 O 0.3995(4) 0.7395(4) 0.1257(3)
O19_3 O 0.3624(4) 0.7895(4) 0.1652(3)
O22_3 O 0.5189(4) 0.8974(4) 0.0353(3)
O24_3 O 0.5058(4) 0.8151(4) 0.0356(3)
C28_3 C 0.3884(5) 0.7813(5) 0.1375(4)
C31_3 C 0.1670(5) 0.8718(5) 0.2962(4)
C32_3 C 0.4980(6) 0.8604(6) 0.0461(4)
C35_3 C 0.1911(6) 0.9171(5) 0.2792(4)
C37_3 C 0.4046(6) 0.8281(5) 0.1175(4)
N7_3 N 0.2752(7) 0.9423(5) 0.2054(4)
H14_3 H 0.283798 0.911108 0.202705
C40_3 C 0.4570(6) 0.8645(7) 0.0735(4)
C41_3 C 0.1869(6) 0.9640(6) 0.2945(4)
H15_3 H 0.168225 0.967742 0.315112
C42_3 C 0.4415(6) 0.8220(6) 0.0920(4)
H16_3 H 0.455540 0.790353 0.087417
C44_3 C 0.2390(6) 0.9988(5) 0.2506(5)
N9_3 N 0.3262(7) 0.9513(5) 0.1581(4)
C45_3 C 0.2205(7) 0.9114(6) 0.2493(4)
H19_3 H 0.223992 0.879592 0.239044
C46_3 C 0.2448(7) 0.9525(6) 0.2346(4)
C47_3 C 0.3859(7) 0.8738(6) 0.1255(5)
H20_3 H 0.363394 0.877201 0.144226
C48_3 C 0.4379(7) 0.9110(6) 0.0808(4)
H21_3 H 0.450201 0.939412 0.069188
N12_3 N 0.3806(7) 0.9653(5) 0.1118(5)
H24_3 H 0.393068 0.988342 0.098307
C52_3 C 0.3997(8) 0.9157(6) 0.1061(5)
C53_3 C 0.2925(8) 0.9741(7) 0.1810(6)
C54_3 C 0.3456(9) 0.9816(8) 0.1353(5)
Cu7_3 Cu 0.57151(9) 0.89150(8) -0.000000
Cu8_2 Cu 0.15692(6) 0.76761(6) 0.30568(4)
Cu10_2 Cu 0.73239(6) 0.65692(6) 0.19432(4)
Cu12_2 Cu 0.34308(6) 0.73239(6) 0.19432(4)
Cu15_2 Cu 0.67774(6) 0.61936(6) 0.14817(4)
Cu18_2 Cu 0.11936(6) 0.82226(6) 0.35183(4)
Cu19_2 Cu 0.82226(6) 0.88064(6) 0.35183(4)
O26_3 O 0.3571(4) 0.6205(4) 0.1755(3)
O28_2 O 0.8299(3) 0.8255(4) 0.2819(2)
O30_3 O 0.7729(4) 0.7799(3) 0.3314(3)
O32_3 O 0.7105(4) 0.8624(4) 0.3348(3)
O34_3 O 0.4423(3) 0.6800(4) 0.1753(3)
O38_2 O 0.3147(4) 0.6803(4) 0.1258(2)
Cu3_4 Cu 0.55630(9) 0.79907(8) 1.000000
Cu7_4 Cu 0.57151(9) 0.89150(8) 1.000000
O27_5 O 0.6070(4) 0.7944(3) 0.9641(2)
O40_5 O 0.5058(4) 0.8151(4) 0.9644(3)
O27_6 O 0.3930(4) 0.2056(3) 0.9641(2)
O40_6 O 0.4942(4) 0.1849(4) 0.9644(3)
O36_6 O 0.6209(4) 0.8769(4) 0.9629(3)
O37_6 O 0.5189(4) 0.8974(4) 0.9647(3)
Cu3_5 Cu 0.20093(8) 0.55630(9) -0.000000
O2_4 O 0.0917(4) 0.7687(4) 0.2834(2)
O3_4 O 0.2056(3) 0.6070(4) 0.0359(2)
O5_4 O 0.2799(3) 0.7271(4) 0.1686(3)
O8_4 O 0.0577(3) 0.8200(4) 0.3247(3)
O9_4 O 0.1231(4) 0.6209(4) 0.0371(3)
C2_4 C 0.0560(6) 0.7914(7) 0.2972(4)
C3_4 C 0.1727(5) 0.6574(6) 0.0811(4)
C6_4 C 0.2202(5) 0.6663(5) 0.0946(4)
H1_4 H 0.248380 0.654529 0.082403
C7_4 C 0.1669(6) 0.6250(6) 0.0484(4)
C9_4 C 0.0047(5) 0.7904(6) 0.2799(4)
C11_4 C 0.2268(6) 0.6920(6) 0.1253(4)
C12_4 C 0.2790(6) 0.7005(6) 0.1413(4)
N2_4 N 0.0314(6) 0.6663(7) 0.1306(4)
C16_4 C 0.1848(6) 0.7090(7) 0.1430(4)
H5_4 H 0.189293 0.727246 0.163805
H6_4 H 0.026820 0.744386 0.241231
N4_4 N 0.0215(5) 0.7207(6) 0.1793(4)
C22_4 C 0.0475(7) 0.7006(8) 0.1525(5)
N5_4 N 0.0959(5) 0.7160(7) 0.1517(4)
H10_4 H 0.103055 0.739731 0.166359
C23_4 C 0.1309(6) 0.6725(7) 0.0999(5)
H11_4 H 0.098684 0.664380 0.091743
C24_4 C 0.1363(6) 0.7001(7) 0.1312(5)
O13_4 O 0.1205(4) 0.1429(4) 0.3245(3)
O18_4 O 0.2605(4) 0.3995(4) 0.1257(3)
O19_4 O 0.2105(4) 0.3624(4) 0.1652(3)
O22_4 O 0.1026(4) 0.5189(4) 0.0353(3)
O24_4 O 0.1849(4) 0.5058(4) 0.0356(3)
C28_4 C 0.2187(5) 0.3884(5) 0.1375(4)
C31_4 C 0.1282(5) 0.1670(5) 0.2962(4)
C32_4 C 0.1396(6) 0.4980(6) 0.0461(4)
C35_4 C 0.0829(5) 0.1911(6) 0.2792(4)
C37_4 C 0.1719(5) 0.4046(6) 0.1175(4)
N7_4 N 0.0577(5) 0.2752(7) 0.2054(4)
H14_4 H 0.088892 0.283798 0.202705
C40_4 C 0.1355(7) 0.4570(6) 0.0735(4)
C41_4 C 0.0360(6) 0.1869(6) 0.2945(4)
H15_4 H 0.032258 0.168225 0.315112
C42_4 C 0.1780(6) 0.4415(6) 0.0920(4)
H16_4 H 0.209647 0.455540 0.087417
C44_4 C 0.0012(5) 0.2390(6) 0.2506(5)
N9_4 N 0.0487(5) 0.3262(7) 0.1581(4)
C45_4 C 0.0886(6) 0.2205(7) 0.2493(4)
H19_4 H 0.120408 0.223992 0.239044
C46_4 C 0.0475(6) 0.2448(7) 0.2346(4)
C47_4 C 0.1262(6) 0.3859(7) 0.1255(5)
H20_4 H 0.122799 0.363394 0.144226
C48_4 C 0.0890(6) 0.4379(7) 0.0808(4)
H21_4 H 0.060588 0.450201 0.069188
N12_4 N 0.0347(5) 0.3806(7) 0.1118(5)
H24_4 H 0.011658 0.393068 0.098307
C52_4 C 0.0843(6) 0.3997(8) 0.1061(5)
C53_4 C 0.0259(7) 0.2925(8) 0.1810(6)
C54_4 C 0.0184(8) 0.3456(9) 0.1353(5)
Cu7_5 Cu 0.10850(8) 0.57151(9) -0.000000
O26_4 O 0.3795(4) 0.3571(4) 0.1755(3)
O30_4 O 0.2201(3) 0.7729(4) 0.3314(3)
O32_4 O 0.1376(4) 0.7105(4) 0.3348(3)
O34_4 O 0.3200(4) 0.4423(3) 0.1753(3)
Cu3_6 Cu 0.20093(8) 0.55630(9) 1.000000
Cu7_6 Cu 0.10850(8) 0.57151(9) 1.000000
O27_7 O 0.2056(3) 0.6070(4) 0.9641(2)
O40_7 O 0.1849(4) 0.5058(4) 0.9644(3)
Cu1_5 Cu 0.89150(8) 0.42849(9) -0.000000
O1_4 O 0.8795(4) 0.8571(4) 0.3245(3)
O6_4 O 0.7395(4) 0.6005(4) 0.1257(3)
O7_4 O 0.7895(4) 0.6376(4) 0.1652(3)
O10_4 O 0.8974(4) 0.4811(4) 0.0353(3)
O12_4 O 0.8151(4) 0.4942(4) 0.0356(3)
C1_4 C 0.7813(5) 0.6116(5) 0.1375(4)
C4_4 C 0.8718(5) 0.8330(5) 0.2962(4)
C5_4 C 0.8604(6) 0.5020(6) 0.0461(4)
C8_4 C 0.9171(5) 0.8089(6) 0.2792(4)
C10_4 C 0.8281(5) 0.5954(6) 0.1175(4)
N1_4 N 0.9423(5) 0.7248(7) 0.2054(4)
H2_4 H 0.911108 0.716202 0.202705
C13_4 C 0.8645(7) 0.5430(6) 0.0735(4)
C14_4 C 0.9640(6) 0.8131(6) 0.2945(4)
H3_4 H 0.967742 0.831775 0.315112
C15_4 C 0.8220(6) 0.5585(6) 0.0920(4)
H4_4 H 0.790353 0.544460 0.087417
C17_4 C 0.9988(5) 0.7610(6) 0.2506(5)
N3_4 N 0.9513(5) 0.6738(7) 0.1581(4)
C18_4 C 0.9114(6) 0.7795(7) 0.2493(4)
H7_4 H 0.879592 0.776008 0.239044
C19_4 C 0.9525(6) 0.7552(7) 0.2346(4)
C20_4 C 0.8738(6) 0.6141(7) 0.1255(5)
H8_4 H 0.877201 0.636606 0.144226
C21_4 C 0.9110(6) 0.5621(7) 0.0808(4)
H9_4 H 0.939412 0.549799 0.069188
N6_4 N 0.9653(5) 0.6194(7) 0.1118(5)
H12_4 H 0.988342 0.606932 0.098307
C25_4 C 0.9157(6) 0.6003(8) 0.1061(5)
C26_4 C 0.9741(7) 0.7075(8) 0.1810(6)
C27_4 C 0.9816(8) 0.6544(9) 0.1353(5)
O14_4 O 0.9083(4) 0.2313(4) 0.2834(2)
O15_4 O 0.7944(3) 0.3930(4) 0.0359(2)
O17_4 O 0.7201(3) 0.2729(4) 0.1686(3)
O20_4 O 0.9423(3) 0.1800(4) 0.3247(3)
O21_4 O 0.8769(4) 0.3791(4) 0.0371(3)
C29_4 C 0.9440(6) 0.2086(7) 0.2972(4)
C30_4 C 0.8273(5) 0.3426(6) 0.0811(4)
C33_4 C 0.7798(5) 0.3337(5) 0.0946(4)
H13_4 H 0.751620 0.345471 0.082403
C34_4 C 0.8331(6) 0.3750(6) 0.0484(4)
C36_4 C 0.9953(5) 0.2096(6) 0.2799(4)
C38_4 C 0.7732(6) 0.3080(6) 0.1253(4)
C39_4 C 0.7210(6) 0.2995(6) 0.1413(4)
N8_4 N 0.9686(6) 0.3337(7) 0.1306(4)
C43_4 C 0.8152(6) 0.2910(7) 0.1430(4)
H17_4 H 0.810707 0.272754 0.163805
H18_4 H 0.973180 0.255614 0.241231
N10_4 N 0.9785(5) 0.2793(6) 0.1793(4)
C49_4 C 0.9525(7) 0.2994(8) 0.1525(5)
N11_4 N 0.9041(5) 0.2840(7) 0.1517(4)
H22_4 H 0.896945 0.260269 0.166359
C50_4 C 0.8691(6) 0.3275(7) 0.0999(5)
H23_4 H 0.901316 0.335620 0.091743
C51_4 C 0.8637(6) 0.2999(7) 0.1312(5)
Cu14_5 Cu 0.79907(8) 0.44370(9) -0.000000
O25_4 O 0.6205(4) 0.6429(4) 0.1755(3)
O31_4 O 0.7799(3) 0.2271(4) 0.3314(3)
O33_4 O 0.8624(4) 0.2895(4) 0.3348(3)
O35_4 O 0.6800(4) 0.5577(3) 0.1753(3)
Cu1_6 Cu 0.89150(8) 0.42849(9) 1.000000
Cu14_6 Cu 0.79907(8) 0.44370(9) 1.000000
O36_7 O 0.8769(4) 0.3791(4) 0.9629(3)
O37_7 O 0.8974(4) 0.4811(4) 0.9647(3)
O36_8 O 0.1231(4) 0.6209(4) 0.9629(3)
O37_8 O 0.1026(4) 0.5189(4) 0.9647(3)
O27_8 O 0.7944(3) 0.3930(4) 0.9641(2)
O40_8 O 0.8151(4) 0.4942(4) 0.9644(3)
O14_5 O 0.2687(4) 0.4083(4) 0.2166(2)
O16_3 O 0.3255(4) 0.6701(3) 0.2181(2)
O18_5 O 0.1005(4) 0.7605(4) 0.3743(3)
O23_3 O 0.1803(4) 0.1853(4) 0.3742(2)
C28_5 C 0.1116(5) 0.7187(5) 0.3625(4)
C29_5 C 0.2914(7) 0.4440(6) 0.2028(4)
C30_5 C 0.1574(6) 0.3273(5) 0.4189(4)
C31_5 C 0.3330(5) 0.6282(5) 0.2038(4)
C32_5 C 0.0020(6) 0.6396(6) 0.4539(4)
C33_5 C 0.1663(5) 0.2798(5) 0.4054(4)
H13_5 H 0.154529 0.251620 0.417597
C34_5 C 0.1250(6) 0.3331(6) 0.4516(4)
C35_5 C 0.3089(6) 0.5829(5) 0.2208(4)
C36_5 C 0.2904(6) 0.4953(5) 0.2201(4)
C37_5 C 0.0954(6) 0.6719(5) 0.3825(4)
N7_5 N 0.2248(7) 0.5577(5) 0.2946(4)
H14_5 H 0.216202 0.588892 0.297295
C38_5 C 0.1920(6) 0.2732(6) 0.3747(4)
C39_5 C 0.2005(6) 0.2210(6) 0.3587(4)
C40_5 C 0.0430(6) 0.6355(7) 0.4265(4)
N8_5 N 0.1663(7) 0.4686(6) 0.3694(4)
C41_5 C 0.3131(6) 0.5360(6) 0.2055(4)
H15_5 H 0.331775 0.532258 0.184888
C42_5 C 0.0585(6) 0.6780(6) 0.4080(4)
H16_5 H 0.044460 0.709647 0.412583
C43_5 C 0.2090(7) 0.3152(6) 0.3570(4)
H17_5 H 0.227246 0.310707 0.336195
C44_5 C 0.2610(6) 0.5012(5) 0.2494(5)
H18_5 H 0.244386 0.473180 0.258769
N9_5 N 0.1738(7) 0.5487(5) 0.3419(4)
N10_5 N 0.2207(6) 0.4785(5) 0.3207(4)
C45_5 C 0.2795(7) 0.5886(6) 0.2507(4)
H19_5 H 0.276008 0.620408 0.260956
C46_5 C 0.2552(7) 0.5475(6) 0.2654(4)
C47_5 C 0.1141(7) 0.6262(6) 0.3745(5)
H20_5 H 0.136606 0.622799 0.355774
C48_5 C 0.0621(7) 0.5890(6) 0.4192(4)
H21_5 H 0.049799 0.560588 0.430812
C49_5 C 0.2006(8) 0.4525(7) 0.3475(5)
N11_5 N 0.2160(7) 0.4041(5) 0.3483(4)
H22_5 H 0.239731 0.396945 0.333641
C50_5 C 0.1725(7) 0.3691(6) 0.4001(5)
H23_5 H 0.164380 0.401316 0.408257
C51_5 C 0.2001(7) 0.3637(6) 0.3688(5)
N12_5 N 0.1194(7) 0.5347(5) 0.3882(5)
H24_5 H 0.106932 0.511658 0.401693
C52_5 C 0.1003(8) 0.5843(6) 0.3939(5)
C53_5 C 0.2075(8) 0.5259(7) 0.3190(6)
C54_5 C 0.1544(9) 0.5184(8) 0.3647(5)
O29_3 O 0.3299(3) 0.3255(4) 0.2181(2)
O38_3 O 0.1853(4) 0.8197(4) 0.3742(2)
O2_5 O 0.7313(4) 0.5917(4) 0.2166(2)
O4_3 O 0.6745(4) 0.3299(3) 0.2181(2)
O6_5 O 0.8995(4) 0.2395(4) 0.3743(3)
O11_3 O 0.8197(4) 0.8147(4) 0.3742(2)
C1_5 C 0.8884(5) 0.2813(5) 0.3625(4)
C2_5 C 0.7086(7) 0.5560(6) 0.2028(4)
C3_5 C 0.8426(6) 0.6727(5) 0.4189(4)
C4_5 C 0.6670(5) 0.3718(5) 0.2038(4)
C5_5 C 0.9980(6) 0.3604(6) 0.4539(4)
C6_5 C 0.8337(5) 0.7202(5) 0.4054(4)
H1_5 H 0.845471 0.748380 0.417597
C7_5 C 0.8750(6) 0.6669(6) 0.4516(4)
C8_5 C 0.6911(6) 0.4171(5) 0.2208(4)
C9_5 C 0.7096(6) 0.5047(5) 0.2201(4)
C10_5 C 0.9046(6) 0.3281(5) 0.3825(4)
N1_5 N 0.7752(7) 0.4423(5) 0.2946(4)
H2_5 H 0.783798 0.411108 0.297295
C11_5 C 0.8080(6) 0.7268(6) 0.3747(4)
C12_5 C 0.7995(6) 0.7790(6) 0.3587(4)
C13_5 C 0.9570(6) 0.3645(7) 0.4265(4)
N2_5 N 0.8337(7) 0.5314(6) 0.3694(4)
C14_5 C 0.6869(6) 0.4640(6) 0.2055(4)
H3_5 H 0.668225 0.467742 0.184888
C15_5 C 0.9415(6) 0.3220(6) 0.4080(4)
H4_5 H 0.955540 0.290353 0.412583
C16_5 C 0.7910(7) 0.6848(6) 0.3570(4)
H5_5 H 0.772754 0.689293 0.336195
C17_5 C 0.7390(6) 0.4988(5) 0.2494(5)
H6_5 H 0.755614 0.526820 0.258769
N3_5 N 0.8262(7) 0.4513(5) 0.3419(4)
N4_5 N 0.7793(6) 0.5215(5) 0.3207(4)
C18_5 C 0.7205(7) 0.4114(6) 0.2507(4)
H7_5 H 0.723992 0.379592 0.260956
C19_5 C 0.7448(7) 0.4525(6) 0.2654(4)
C20_5 C 0.8859(7) 0.3738(6) 0.3745(5)
H8_5 H 0.863394 0.377201 0.355774
C21_5 C 0.9379(7) 0.4110(6) 0.4192(4)
H9_5 H 0.950201 0.439412 0.430812
C22_5 C 0.7994(8) 0.5475(7) 0.3475(5)
N5_5 N 0.7840(7) 0.5959(5) 0.3483(4)
H10_5 H 0.760269 0.603055 0.333641
C23_5 C 0.8275(7) 0.6309(6) 0.4001(5)
H11_5 H 0.835620 0.598684 0.408257
C24_5 C 0.7999(7) 0.6363(6) 0.3688(5)
N6_5 N 0.8806(7) 0.4653(5) 0.3882(5)
H12_5 H 0.893068 0.488342 0.401693
C25_5 C 0.8997(8) 0.4157(6) 0.3939(5)
C26_5 C 0.7925(8) 0.4741(7) 0.3190(6)
C27_5 C 0.8456(9) 0.4816(8) 0.3647(5)
O28_3 O 0.6701(3) 0.6745(4) 0.2181(2)
O39_3 O 0.8147(4) 0.1803(4) 0.3742(2)
O14_6 O 0.5917(4) 0.2687(4) 0.2166(2)
O18_6 O 0.2395(4) 0.1005(4) 0.3743(3)
C28_6 C 0.2813(5) 0.1116(5) 0.3625(4)
C29_6 C 0.5560(6) 0.2914(7) 0.2028(4)
C30_6 C 0.6727(5) 0.1574(6) 0.4189(4)
C31_6 C 0.3718(5) 0.3330(5) 0.2038(4)
C32_6 C 0.3604(6) 0.0020(6) 0.4539(4)
C33_6 C 0.7202(5) 0.1663(5) 0.4054(4)
H13_6 H 0.748380 0.154529 0.417597
C34_6 C 0.6669(6) 0.1250(6) 0.4516(4)
C35_6 C 0.4171(5) 0.3089(6) 0.2208(4)
C36_6 C 0.5047(5) 0.2904(6) 0.2201(4)
C37_6 C 0.3281(5) 0.0954(6) 0.3825(4)
N7_6 N 0.4423(5) 0.2248(7) 0.2946(4)
H14_6 H 0.411108 0.216202 0.297295
C38_6 C 0.7268(6) 0.1920(6) 0.3747(4)
C39_6 C 0.7790(6) 0.2005(6) 0.3587(4)
C40_6 C 0.3645(7) 0.0430(6) 0.4265(4)
N8_6 N 0.5314(6) 0.1663(7) 0.3694(4)
C41_6 C 0.4640(6) 0.3131(6) 0.2055(4)
H15_6 H 0.467742 0.331775 0.184888
C42_6 C 0.3220(6) 0.0585(6) 0.4080(4)
H16_6 H 0.290353 0.044460 0.412583
C43_6 C 0.6848(6) 0.2090(7) 0.3570(4)
H17_6 H 0.689293 0.227246 0.336195
C44_6 C 0.4988(5) 0.2610(6) 0.2494(5)
H18_6 H 0.526820 0.244386 0.258769
N9_6 N 0.4513(5) 0.1738(7) 0.3419(4)
N10_6 N 0.5215(5) 0.2207(6) 0.3207(4)
C45_6 C 0.4114(6) 0.2795(7) 0.2507(4)
H19_6 H 0.379592 0.276008 0.260956
C46_6 C 0.4525(6) 0.2552(7) 0.2654(4)
C47_6 C 0.3738(6) 0.1141(7) 0.3745(5)
H20_6 H 0.377201 0.136606 0.355774
C48_6 C 0.4110(6) 0.0621(7) 0.4192(4)
H21_6 H 0.439412 0.049799 0.430812
C49_6 C 0.5475(7) 0.2006(8) 0.3475(5)
N11_6 N 0.5959(5) 0.2160(7) 0.3483(4)
H22_6 H 0.603055 0.239731 0.333641
C50_6 C 0.6309(6) 0.1725(7) 0.4001(5)
H23_6 H 0.598684 0.164380 0.408257
C51_6 C 0.6363(6) 0.2001(7) 0.3688(5)
N12_6 N 0.4653(5) 0.1194(7) 0.3882(5)
H24_6 H 0.488342 0.106932 0.401693
C52_6 C 0.4157(6) 0.1003(8) 0.3939(5)
C53_6 C 0.4741(7) 0.2075(8) 0.3190(6)
C54_6 C 0.4816(8) 0.1544(9) 0.3647(5)
O2_6 O 0.4083(4) 0.7313(4) 0.2166(2)
O6_6 O 0.7605(4) 0.8995(4) 0.3743(3)
C1_6 C 0.7187(5) 0.8884(5) 0.3625(4)
C2_6 C 0.4440(6) 0.7086(7) 0.2028(4)
C3_6 C 0.3273(5) 0.8426(6) 0.4189(4)
C4_6 C 0.6282(5) 0.6670(5) 0.2038(4)
C5_6 C 0.6396(6) 0.9980(6) 0.4539(4)
C6_6 C 0.2798(5) 0.8337(5) 0.4054(4)
H1_6 H 0.251620 0.845471 0.417597
C7_6 C 0.3331(6) 0.8750(6) 0.4516(4)
C8_6 C 0.5829(5) 0.6911(6) 0.2208(4)
C9_6 C 0.4953(5) 0.7096(6) 0.2201(4)
C10_6 C 0.6719(5) 0.9046(6) 0.3825(4)
N1_6 N 0.5577(5) 0.7752(7) 0.2946(4)
H2_6 H 0.588892 0.783798 0.297295
C11_6 C 0.2732(6) 0.8080(6) 0.3747(4)
C12_6 C 0.2210(6) 0.7995(6) 0.3587(4)
C13_6 C 0.6355(7) 0.9570(6) 0.4265(4)
N2_6 N 0.4686(6) 0.8337(7) 0.3694(4)
C14_6 C 0.5360(6) 0.6869(6) 0.2055(4)
H3_6 H 0.532258 0.668225 0.184888
C15_6 C 0.6780(6) 0.9415(6) 0.4080(4)
H4_6 H 0.709647 0.955540 0.412583
C16_6 C 0.3152(6) 0.7910(7) 0.3570(4)
H5_6 H 0.310707 0.772754 0.336195
C17_6 C 0.5012(5) 0.7390(6) 0.2494(5)
H6_6 H 0.473180 0.755614 0.258769
N3_6 N 0.5487(5) 0.8262(7) 0.3419(4)
N4_6 N 0.4785(5) 0.7793(6) 0.3207(4)
C18_6 C 0.5886(6) 0.7205(7) 0.2507(4)
H7_6 H 0.620408 0.723992 0.260956
C19_6 C 0.5475(6) 0.7448(7) 0.2654(4)
C20_6 C 0.6262(6) 0.8859(7) 0.3745(5)
H8_6 H 0.622799 0.863394 0.355774
C21_6 C 0.5890(6) 0.9379(7) 0.4192(4)
H9_6 H 0.560588 0.950201 0.430812
C22_6 C 0.4525(7) 0.7994(8) 0.3475(5)
N5_6 N 0.4041(5) 0.7840(7) 0.3483(4)
H10_6 H 0.396945 0.760269 0.333641
C23_6 C 0.3691(6) 0.8275(7) 0.4001(5)
H11_6 H 0.401316 0.835620 0.408257
C24_6 C 0.3637(6) 0.7999(7) 0.3688(5)
N6_6 N 0.5347(5) 0.8806(7) 0.3882(5)
H12_6 H 0.511658 0.893068 0.401693
C25_6 C 0.5843(6) 0.8997(8) 0.3939(5)
C26_6 C 0.5259(7) 0.7925(8) 0.3190(6)
C27_6 C 0.5184(8) 0.8456(9) 0.3647(5)
O2_7 O 0.2313(4) 0.0917(4) 0.7166(2)
O11_4 O 0.3197(4) 0.3147(4) 0.8742(2)
C2_7 C 0.2086(7) 0.0560(6) 0.7028(4)
C3_7 C 0.3426(6) 0.1727(5) 0.9189(4)
C6_7 C 0.3337(5) 0.2202(5) 0.9054(4)
H1_7 H 0.345471 0.248380 0.917597
C7_7 C 0.3750(6) 0.1669(6) 0.9516(4)
C9_7 C 0.2096(6) 0.0047(5) 0.7201(4)
C11_7 C 0.3080(6) 0.2268(6) 0.8747(4)
C12_7 C 0.2995(6) 0.2790(6) 0.8587(4)
N2_7 N 0.3337(7) 0.0314(6) 0.8694(4)
C16_7 C 0.2910(7) 0.1848(6) 0.8570(4)
H5_7 H 0.272754 0.189293 0.836195
H6_7 H 0.255614 0.026820 0.758769
N4_7 N 0.2793(6) 0.0215(5) 0.8207(4)
C22_7 C 0.2994(8) 0.0475(7) 0.8475(5)
N5_7 N 0.2840(7) 0.0959(5) 0.8483(4)
H10_7 H 0.260269 0.103055 0.833641
C23_7 C 0.3275(7) 0.1309(6) 0.9001(5)
H11_7 H 0.335620 0.098684 0.908257
C24_7 C 0.2999(7) 0.1363(6) 0.8688(5)
O16_4 O 0.8255(4) 0.1701(3) 0.7181(2)
O18_7 O 0.6005(4) 0.2605(4) 0.8743(3)
C28_7 C 0.6116(5) 0.2187(5) 0.8625(4)
C31_7 C 0.8330(5) 0.1282(5) 0.7038(4)
C32_7 C 0.5020(6) 0.1396(6) 0.9539(4)
C35_7 C 0.8089(6) 0.0829(5) 0.7208(4)
C37_7 C 0.5954(6) 0.1719(5) 0.8825(4)
N7_7 N 0.7248(7) 0.0577(5) 0.7946(4)
H14_7 H 0.716202 0.088892 0.797295
C40_7 C 0.5430(6) 0.1355(7) 0.9265(4)
C41_7 C 0.8131(6) 0.0360(6) 0.7055(4)
H15_7 H 0.831775 0.032258 0.684888
C42_7 C 0.5585(6) 0.1780(6) 0.9080(4)
H16_7 H 0.544460 0.209647 0.912583
C44_7 C 0.7610(6) 0.0012(5) 0.7494(5)
N9_7 N 0.6738(7) 0.0487(5) 0.8419(4)
C45_7 C 0.7795(7) 0.0886(6) 0.7507(4)
H19_7 H 0.776008 0.120408 0.760956
C46_7 C 0.7552(7) 0.0475(6) 0.7654(4)
C47_7 C 0.6141(7) 0.1262(6) 0.8745(5)
H20_7 H 0.636606 0.122799 0.855774
C48_7 C 0.5621(7) 0.0890(6) 0.9192(4)
H21_7 H 0.549799 0.060588 0.930812
N12_7 N 0.6194(7) 0.0347(5) 0.8882(5)
H24_7 H 0.606932 0.011658 0.901693
C52_7 C 0.6003(8) 0.0843(6) 0.8939(5)
C53_7 C 0.7075(8) 0.0259(7) 0.8190(6)
C54_7 C 0.6544(9) 0.0184(8) 0.8647(5)
O28_4 O 0.1701(3) 0.1745(4) 0.7181(2)
O38_4 O 0.6853(4) 0.3197(4) 0.8742(2)
O4_4 O 0.1745(4) 0.8299(3) 0.7181(2)
O6_7 O 0.3995(4) 0.7395(4) 0.8743(3)
C1_7 C 0.3884(5) 0.7813(5) 0.8625(4)
C4_7 C 0.1670(5) 0.8718(5) 0.7038(4)
C5_7 C 0.4980(6) 0.8604(6) 0.9539(4)
C8_7 C 0.1911(6) 0.9171(5) 0.7208(4)
C10_7 C 0.4046(6) 0.8281(5) 0.8825(4)
N1_7 N 0.2752(7) 0.9423(5) 0.7946(4)
H2_7 H 0.283798 0.911108 0.797295
C13_7 C 0.4570(6) 0.8645(7) 0.9265(4)
C14_7 C 0.1869(6) 0.9640(6) 0.7055(4)
H3_7 H 0.168225 0.967742 0.684888
C15_7 C 0.4415(6) 0.8220(6) 0.9080(4)
H4_7 H 0.455540 0.790353 0.912583
C17_7 C 0.2390(6) 0.9988(5) 0.7494(5)
N3_7 N 0.3262(7) 0.9513(5) 0.8419(4)
C18_7 C 0.2205(7) 0.9114(6) 0.7507(4)
H7_7 H 0.223992 0.879592 0.760956
C19_7 C 0.2448(7) 0.9525(6) 0.7654(4)
C20_7 C 0.3859(7) 0.8738(6) 0.8745(5)
H8_7 H 0.363394 0.877201 0.855774
C21_7 C 0.4379(7) 0.9110(6) 0.9192(4)
H9_7 H 0.450201 0.939412 0.930812
N6_7 N 0.3806(7) 0.9653(5) 0.8882(5)
H12_7 H 0.393068 0.988342 0.901693
C25_7 C 0.3997(8) 0.9157(6) 0.8939(5)
C26_7 C 0.2925(8) 0.9741(7) 0.8190(6)
C27_7 C 0.3456(9) 0.9816(8) 0.8647(5)
O14_7 O 0.7687(4) 0.9083(4) 0.7166(2)
O23_4 O 0.6803(4) 0.6853(4) 0.8742(2)
C29_7 C 0.7914(7) 0.9440(6) 0.7028(4)
C30_7 C 0.6574(6) 0.8273(5) 0.9189(4)
C33_7 C 0.6663(5) 0.7798(5) 0.9054(4)
H13_7 H 0.654529 0.751620 0.917597
C34_7 C 0.6250(6) 0.8331(6) 0.9516(4)
C36_7 C 0.7904(6) 0.9953(5) 0.7201(4)
C38_7 C 0.6920(6) 0.7732(6) 0.8747(4)
C39_7 C 0.7005(6) 0.7210(6) 0.8587(4)
N8_7 N 0.6663(7) 0.9686(6) 0.8694(4)
C43_7 C 0.7090(7) 0.8152(6) 0.8570(4)
H17_7 H 0.727246 0.810707 0.836195
H18_7 H 0.744386 0.973180 0.758769
N10_7 N 0.7207(6) 0.9785(5) 0.8207(4)
C49_7 C 0.7006(8) 0.9525(7) 0.8475(5)
N11_7 N 0.7160(7) 0.9041(5) 0.8483(4)
H22_7 H 0.739731 0.896945 0.833641
C50_7 C 0.6725(7) 0.8691(6) 0.9001(5)
H23_7 H 0.664380 0.901316 0.908257
C51_7 C 0.7001(7) 0.8637(6) 0.8688(5)
O29_4 O 0.8299(3) 0.8255(4) 0.7181(2)
O39_4 O 0.3147(4) 0.6803(4) 0.8742(2)
O6_8 O 0.2605(4) 0.3995(4) 0.8743(3)
C1_8 C 0.2187(5) 0.3884(5) 0.8625(4)
C4_8 C 0.1282(5) 0.1670(5) 0.7038(4)
C5_8 C 0.1396(6) 0.4980(6) 0.9539(4)
C8_8 C 0.0829(5) 0.1911(6) 0.7208(4)
C10_8 C 0.1719(5) 0.4046(6) 0.8825(4)
N1_8 N 0.0577(5) 0.2752(7) 0.7946(4)
H2_8 H 0.088892 0.283798 0.797295
C13_8 C 0.1355(7) 0.4570(6) 0.9265(4)
C14_8 C 0.0360(6) 0.1869(6) 0.7055(4)
H3_8 H 0.032258 0.168225 0.684888
C15_8 C 0.1780(6) 0.4415(6) 0.9080(4)
H4_8 H 0.209647 0.455540 0.912583
C17_8 C 0.0012(5) 0.2390(6) 0.7494(5)
N3_8 N 0.0487(5) 0.3262(7) 0.8419(4)
C18_8 C 0.0886(6) 0.2205(7) 0.7507(4)
H7_8 H 0.120408 0.223992 0.760956
C19_8 C 0.0475(6) 0.2448(7) 0.7654(4)
C20_8 C 0.1262(6) 0.3859(7) 0.8745(5)
H8_8 H 0.122799 0.363394 0.855774
C21_8 C 0.0890(6) 0.4379(7) 0.9192(4)
H9_8 H 0.060588 0.450201 0.930812
N6_8 N 0.0347(5) 0.3806(7) 0.8882(5)
H12_8 H 0.011658 0.393068 0.901693
C25_8 C 0.0843(6) 0.3997(8) 0.8939(5)
C26_8 C 0.0259(7) 0.2925(8) 0.8190(6)
C27_8 C 0.0184(8) 0.3456(9) 0.8647(5)
O14_8 O 0.0917(4) 0.7687(4) 0.7166(2)
C29_8 C 0.0560(6) 0.7914(7) 0.7028(4)
C30_8 C 0.1727(5) 0.6574(6) 0.9189(4)
C33_8 C 0.2202(5) 0.6663(5) 0.9054(4)
H13_8 H 0.248380 0.654529 0.917597
C34_8 C 0.1669(6) 0.6250(6) 0.9516(4)
C36_8 C 0.0047(5) 0.7904(6) 0.7201(4)
C38_8 C 0.2268(6) 0.6920(6) 0.8747(4)
C39_8 C 0.2790(6) 0.7005(6) 0.8587(4)
N8_8 N 0.0314(6) 0.6663(7) 0.8694(4)
C43_8 C 0.1848(6) 0.7090(7) 0.8570(4)
H17_8 H 0.189293 0.727246 0.836195
H18_8 H 0.026820 0.744386 0.758769
N10_8 N 0.0215(5) 0.7207(6) 0.8207(4)
C49_8 C 0.0475(7) 0.7006(8) 0.8475(5)
N11_8 N 0.0959(5) 0.7160(7) 0.8483(4)
H22_8 H 0.103055 0.739731 0.833641
C50_8 C 0.1309(6) 0.6725(7) 0.9001(5)
H23_8 H 0.098684 0.664380 0.908257
C51_8 C 0.1363(6) 0.7001(7) 0.8688(5)
O2_8 O 0.9083(4) 0.2313(4) 0.7166(2)
C2_8 C 0.9440(6) 0.2086(7) 0.7028(4)
C3_8 C 0.8273(5) 0.3426(6) 0.9189(4)
C6_8 C 0.7798(5) 0.3337(5) 0.9054(4)
H1_8 H 0.751620 0.345471 0.917597
C7_8 C 0.8331(6) 0.3750(6) 0.9516(4)
C9_8 C 0.9953(5) 0.2096(6) 0.7201(4)
C11_8 C 0.7732(6) 0.3080(6) 0.8747(4)
C12_8 C 0.7210(6) 0.2995(6) 0.8587(4)
N2_8 N 0.9686(6) 0.3337(7) 0.8694(4)
C16_8 C 0.8152(6) 0.2910(7) 0.8570(4)
H5_8 H 0.810707 0.272754 0.836195
H6_8 H 0.973180 0.255614 0.758769
N4_8 N 0.9785(5) 0.2793(6) 0.8207(4)
C22_8 C 0.9525(7) 0.2994(8) 0.8475(5)
N5_8 N 0.9041(5) 0.2840(7) 0.8483(4)
H10_8 H 0.896945 0.260269 0.833641
C23_8 C 0.8691(6) 0.3275(7) 0.9001(5)
H11_8 H 0.901316 0.335620 0.908257
C24_8 C 0.8637(6) 0.2999(7) 0.8688(5)
O18_8 O 0.7395(4) 0.6005(4) 0.8743(3)
C28_8 C 0.7813(5) 0.6116(5) 0.8625(4)
C31_8 C 0.8718(5) 0.8330(5) 0.7038(4)
C32_8 C 0.8604(6) 0.5020(6) 0.9539(4)
C35_8 C 0.9171(5) 0.8089(6) 0.7208(4)
C37_8 C 0.8281(5) 0.5954(6) 0.8825(4)
N7_8 N 0.9423(5) 0.7248(7) 0.7946(4)
H14_8 H 0.911108 0.716202 0.797295
C40_8 C 0.8645(7) 0.5430(6) 0.9265(4)
C41_8 C 0.9640(6) 0.8131(6) 0.7055(4)
H15_8 H 0.967742 0.831775 0.684888
C42_8 C 0.8220(6) 0.5585(6) 0.9080(4)
H16_8 H 0.790353 0.544460 0.912583
C44_8 C 0.9988(5) 0.7610(6) 0.7494(5)
N9_8 N 0.9513(5) 0.6738(7) 0.8419(4)
C45_8 C 0.9114(6) 0.7795(7) 0.7507(4)
H19_8 H 0.879592 0.776008 0.760956
C46_8 C 0.9525(6) 0.7552(7) 0.7654(4)
C47_8 C 0.8738(6) 0.6141(7) 0.8745(5)
H20_8 H 0.877201 0.636606 0.855774
C48_8 C 0.9110(6) 0.5621(7) 0.9192(4)
H21_8 H 0.939412 0.549799 0.930812
N12_8 N 0.9653(5) 0.6194(7) 0.8882(5)
H24_8 H 0.988342 0.606932 0.901693
C52_8 C 0.9157(6) 0.6003(8) 0.8939(5)
C53_8 C 0.9741(7) 0.7075(8) 0.8190(6)
C54_8 C 0.9816(8) 0.6544(9) 0.8647(5)
loop_
_geom_bond_atom_site_label_1
_geom_bond_atom_site_label_2
_geom_bond_site_symmetry_1
_geom_bond_site_symmetry_2
Cu2 O2 1_555 1_555
Cu3 O3 1_555 1_555
Cu4 O6 1_555 1_555
O1 C4 1_555 1_555
O2 C2 1_555 1_555
O3 C7 1_555 1_555
O4 C4 1_555 1_555
O5 C12 1_555 1_555
O6 C1 1_555 1_555
O7 C1 1_555 1_555
O8 C2 1_555 1_555
O9 C7 1_555 1_555
O11 C12 1_555 1_555
C1 C10 1_555 1_555
C2 C9 1_555 1_555
C3 C6 1_555 1_555
C4 C8 1_555 1_555
C5 C13 1_555 1_555
C6 H1 1_555 1_555
C7 C3 1_555 1_555
C8 C14 1_555 1_555
C9 C14 1_555 1_555
C10 C15 1_555 1_555
N1 H2 1_555 1_555
C11 C6 1_555 1_555
C12 C11 1_555 1_555
C13 C15 1_555 1_555
N2 C22 1_555 1_555
C14 H3 1_555 1_555
C15 H4 1_555 1_555
C16 C11 1_555 1_555
H5 C16 1_555 1_555
C17 C9 1_555 1_555
H6 C17 1_555 1_555
N3 C26 1_555 1_555
N4 C22 1_555 1_555
C18 C8 1_555 1_555
H7 C18 1_555 1_555
C19 N1 1_555 1_555
C20 C10 1_555 1_555
H8 C20 1_555 1_555
C21 C13 1_555 1_555
H9 C21 1_555 1_555
C22 N5 1_555 1_555
N5 H10 1_555 1_555
C23 C3 1_555 1_555
H11 C23 1_555 1_555
C24 C16 1_555 1_555
N6 H12 1_555 1_555
C25 C20 1_555 1_555
C26 N1 1_555 1_555
C27 N2 1_555 1_555
O24 Cu3 1_555 1_555
Cu7 Cu3 1_555 1_555
Cu9 O4 1_555 1_555
Cu10 O5 1_555 1_555
Cu13 Cu4 1_555 1_555
Cu15 O11 1_555 1_555
Cu17 O1 1_555 1_555
Cu19 Cu2 1_555 1_555
O25 Cu4 1_555 1_555
O27 Cu3 1_555 1_555
O28 Cu2 1_555 1_555
O30 Cu2 1_555 1_555
O32 Cu2 1_555 1_555
O35 Cu4 1_555 1_555
O39 Cu4 1_555 1_555
O40 Cu3 1_555 1_555
O7 Cu13 1_555 1_555
O8 Cu19 1_555 1_555
O9 Cu7 1_555 1_555
C17 C19 1_555 1_555
N3 C27 1_555 1_555
N4 C26 1_555 1_555
C18 C19 1_555 1_555
C21 C25 1_555 1_555
N5 C24 1_555 1_555
C23 C24 1_555 1_555
N6 C25 1_555 1_555
N6 C27 1_555 1_555
O22 Cu7 1_555 1_555
Cu9 Cu17 1_555 1_555
Cu10 Cu15 1_555 1_555
Cu1 O10 1_555 1_555
Cu5 O14 1_555 1_555
Cu6 O18 1_555 1_555
O13 C31 1_555 1_555
O14 C29 1_555 1_555
O15 C34 1_555 1_555
O16 C31 1_555 1_555
O17 C39 1_555 1_555
O18 C28 1_555 1_555
O19 C28 1_555 1_555
O20 C29 1_555 1_555
O21 Cu1 1_555 1_555
O23 C39 1_555 1_555
C28 C37 1_555 1_555
C29 C36 1_555 1_555
C30 C33 1_555 1_555
C31 C35 1_555 1_555
C33 H13 1_555 1_555
C34 O21 1_555 1_555
C35 C41 1_555 1_555
C36 C41 1_555 1_555
C37 C42 1_555 1_555
N7 H14 1_555 1_555
C38 C33 1_555 1_555
C39 C38 1_555 1_555
C40 C32 1_555 1_555
N8 C49 1_555 1_555
C41 H15 1_555 1_555
C42 C40 1_555 1_555
H16 C42 1_555 1_555
C43 C38 1_555 1_555
H17 C43 1_555 1_555
C44 C36 1_555 1_555
H18 C44 1_555 1_555
N9 C53 1_555 1_555
N10 C49 1_555 1_555
C45 C35 1_555 1_555
H19 C45 1_555 1_555
C46 N7 1_555 1_555
C47 C37 1_555 1_555
H20 C47 1_555 1_555
C48 C40 1_555 1_555
H21 C48 1_555 1_555
C49 N11 1_555 1_555
N11 H22 1_555 1_555
C50 C30 1_555 1_555
H23 C50 1_555 1_555
C51 C43 1_555 1_555
N12 H24 1_555 1_555
C52 C47 1_555 1_555
C53 N7 1_555 1_555
C54 N8 1_555 1_555
Cu8 O16 1_555 1_555
Cu11 O17 1_555 1_555
Cu12 Cu6 1_555 1_555
Cu14 Cu1 1_555 1_555
Cu16 O23 1_555 1_555
Cu18 O13 1_555 1_555
Cu20 Cu5 1_555 1_555
O26 Cu6 1_555 1_555
O29 Cu5 1_555 1_555
O31 Cu5 1_555 1_555
O33 Cu5 1_555 1_555
O34 Cu6 1_555 1_555
O36 Cu1 1_555 1_555
O37 Cu1 1_555 1_555
O38 Cu6 1_555 1_555
O12 Cu14 1_555 1_555
O15 Cu14 1_555 1_555
O19 Cu12 1_555 1_555
O20 Cu20 1_555 1_555
C30 C34 1_555 1_555
C44 C46 1_555 1_555
N9 C54 1_555 1_555
N10 C53 1_555 1_555
C45 C46 1_555 1_555
C48 C52 1_555 1_555
N11 C51 1_555 1_555
C50 C51 1_555 1_555
N12 C52 1_555 1_555
N12 C54 1_555 1_555
Cu8 Cu18 1_555 1_555
Cu11 Cu16 1_555 1_555
O36_2 Cu7 1_555 1_555
O37_2 Cu7 1_555 1_555
O27_2 Cu14 1_555 1_555
O40_2 Cu14 1_555 1_555
Cu8 O2_2 1_555 1_555
Cu3_2 O3_2 1_555 1_555
Cu15 O6_2 1_555 1_555
O1_2 C4_2 1_555 1_555
O2_2 C2_2 1_555 1_555
O3_2 C7_2 1_555 1_555
O28 C4_2 1_555 1_555
O5_2 C12_2 1_555 1_555
O6_2 C1_2 1_555 1_555
O7_2 C1_2 1_555 1_555
O8_2 C2_2 1_555 1_555
O9_2 C7_2 1_555 1_555
O38 C12_2 1_555 1_555
C1_2 C10_2 1_555 1_555
C2_2 C9_2 1_555 1_555
C3_2 C6_2 1_555 1_555
C4_2 C8_2 1_555 1_555
C5_2 C13_2 1_555 1_555
C6_2 H1_2 1_555 1_555
C7_2 C3_2 1_555 1_555
C8_2 C14_2 1_555 1_555
C9_2 C14_2 1_555 1_555
C10_2 C15_2 1_555 1_555
N1_2 H2_2 1_555 1_555
C11_2 C6_2 1_555 1_555
C12_2 C11_2 1_555 1_555
C13_2 C15_2 1_555 1_555
N2_2 C22_2 1_555 1_555
C14_2 H3_2 1_555 1_555
C15_2 H4_2 1_555 1_555
C16_2 C11_2 1_555 1_555
H5_2 C16_2 1_555 1_555
C17_2 C9_2 1_555 1_555
H6_2 C17_2 1_555 1_555
N3_2 C26_2 1_555 1_555
N4_2 C22_2 1_555 1_555
C18_2 C8_2 1_555 1_555
H7_2 C18_2 1_555 1_555
C19_2 N1_2 1_555 1_555
C20_2 C10_2 1_555 1_555
H8_2 C20_2 1_555 1_555
C21_2 C13_2 1_555 1_555
H9_2 C21_2 1_555 1_555
C22_2 N5_2 1_555 1_555
N5_2 H10_2 1_555 1_555
C23_2 C3_2 1_555 1_555
H11_2 C23_2 1_555 1_555
C24_2 C16_2 1_555 1_555
N6_2 H12_2 1_555 1_555
C25_2 C20_2 1_555 1_555
C26_2 N1_2 1_555 1_555
C27_2 N2_2 1_555 1_555
O24_2 Cu3_2 1_555 1_555
Cu7_2 Cu3_2 1_555 1_555
Cu12 O5_2 1_555 1_555
Cu19 O1_2 1_555 1_555
O25_2 Cu15 1_555 1_555
O27_3 Cu3_2 1_555 1_555
O30_2 Cu8 1_555 1_555
O32_2 Cu8 1_555 1_555
O35_2 Cu15 1_555 1_555
O40_3 Cu3_2 1_555 1_555
O7_2 Cu10 1_555 1_555
O8_2 Cu18 1_555 1_555
O9_2 Cu7_2 1_555 1_555
C17_2 C19_2 1_555 1_555
N3_2 C27_2 1_555 1_555
N4_2 C26_2 1_555 1_555
C18_2 C19_2 1_555 1_555
C21_2 C25_2 1_555 1_555
N5_2 C24_2 1_555 1_555
C23_2 C24_2 1_555 1_555
N6_2 C25_2 1_555 1_555
N6_2 C27_2 1_555 1_555
O22_2 Cu7_2 1_555 1_555
Cu1_2 O10_2 1_555 1_555
Cu9 O14_2 1_555 1_555
Cu16 O18_2 1_555 1_555
O13_2 C31_2 1_555 1_555
O14_2 C29_2 1_555 1_555
O15_2 C34_2 1_555 1_555
O29 C31_2 1_555 1_555
O17_2 C39_2 1_555 1_555
O18_2 C28_2 1_555 1_555
O19_2 C28_2 1_555 1_555
O20_2 C29_2 1_555 1_555
O21_2 Cu1_2 1_555 1_555
O39 C39_2 1_555 1_555
C28_2 C37_2 1_555 1_555
C29_2 C36_2 1_555 1_555
C30_2 C33_2 1_555 1_555
C31_2 C35_2 1_555 1_555
C33_2 H13_2 1_555 1_555
C34_2 O21_2 1_555 1_555
C35_2 C41_2 1_555 1_555
C36_2 C41_2 1_555 1_555
C37_2 C42_2 1_555 1_555
N7_2 H14_2 1_555 1_555
C38_2 C33_2 1_555 1_555
C39_2 C38_2 1_555 1_555
C40_2 C32_2 1_555 1_555
N8_2 C49_2 1_555 1_555
C41_2 H15_2 1_555 1_555
C42_2 C40_2 1_555 1_555
H16_2 C42_2 1_555 1_555
C43_2 C38_2 1_555 1_555
H17_2 C43_2 1_555 1_555
C44_2 C36_2 1_555 1_555
H18_2 C44_2 1_555 1_555
N9_2 C53_2 1_555 1_555
N10_2 C49_2 1_555 1_555
C45_2 C35_2 1_555 1_555
H19_2 C45_2 1_555 1_555
C46_2 N7_2 1_555 1_555
C47_2 C37_2 1_555 1_555
H20_2 C47_2 1_555 1_555
C48_2 C40_2 1_555 1_555
H21_2 C48_2 1_555 1_555
C49_2 N11_2 1_555 1_555
N11_2 H22_2 1_555 1_555
C50_2 C30_2 1_555 1_555
H23_2 C50_2 1_555 1_555
C51_2 C43_2 1_555 1_555
N12_2 H24_2 1_555 1_555
C52_2 C47_2 1_555 1_555
C53_2 N7_2 1_555 1_555
C54_2 N8_2 1_555 1_555
Cu13 O17_2 1_555 1_555
Cu14_2 Cu1_2 1_555 1_555
Cu20 O13_2 1_555 1_555
O26_2 Cu16 1_555 1_555
O31_2 Cu9 1_555 1_555
O33_2 Cu9 1_555 1_555
O34_2 Cu16 1_555 1_555
O36_3 Cu1_2 1_555 1_555
O37_3 Cu1_2 1_555 1_555
O12_2 Cu14_2 1_555 1_555
O15_2 Cu14_2 1_555 1_555
O19_2 Cu11 1_555 1_555
O20_2 Cu17 1_555 1_555
C30_2 C34_2 1_555 1_555
C44_2 C46_2 1_555 1_555
N9_2 C54_2 1_555 1_555
N10_2 C53_2 1_555 1_555
C45_2 C46_2 1_555 1_555
C48_2 C52_2 1_555 1_555
N11_2 C51_2 1_555 1_555
C50_2 C51_2 1_555 1_555
N12_2 C52_2 1_555 1_555
N12_2 C54_2 1_555 1_555
O36_4 Cu7_2 1_555 1_555
O37_4 Cu7_2 1_555 1_555
O27_4 Cu14_2 1_555 1_555
O40_4 Cu14_2 1_555 1_555
Cu1_3 O10_3 1_555 1_555
Cu4_2 O6_3 1_555 1_555
O1_3 C4_3 1_555 1_555
O4_2 C4_3 1_555 1_555
O6_3 C1_3 1_555 1_555
O7_3 C1_3 1_555 1_555
O10_3 C5_3 1_555 1_555
O12_3 C5_3 1_555 1_555
C1_3 C10_3 1_555 1_555
C4_3 C8_3 1_555 1_555
C5_3 C13_3 1_555 1_555
C8_3 C14_3 1_555 1_555
C10_3 C15_3 1_555 1_555
N1_3 H2_3 1_555 1_555
C13_3 C15_3 1_555 1_555
C14_3 H3_3 1_555 1_555
C15_3 H4_3 1_555 1_555
N3_3 C26_3 1_555 1_555
C18_3 C8_3 1_555 1_555
H7_3 C18_3 1_555 1_555
C19_3 N1_3 1_555 1_555
C20_3 C10_3 1_555 1_555
H8_3 C20_3 1_555 1_555
C21_3 C13_3 1_555 1_555
H9_3 C21_3 1_555 1_555
N6_3 H12_3 1_555 1_555
C25_3 C20_3 1_555 1_555
C26_3 N1_3 1_555 1_555
Cu5_2 O14_3 1_555 1_555
O14_3 C29_3 1_555 1_555
O15_3 C34_3 1_555 1_555
O17_3 C39_3 1_555 1_555
O20_3 C29_3 1_555 1_555
O21_3 Cu1_3 1_555 1_555
O23_2 C39_3 1_555 1_555
C29_3 C36_3 1_555 1_555
C30_3 C33_3 1_555 1_555
C33_3 H13_3 1_555 1_555
C34_3 O21_3 1_555 1_555
C38_3 C33_3 1_555 1_555
C39_3 C38_3 1_555 1_555
N8_3 C49_3 1_555 1_555
C43_3 C38_3 1_555 1_555
H17_3 C43_3 1_555 1_555
N10_3 C49_3 1_555 1_555
C49_3 N11_3 1_555 1_555
N11_3 H22_3 1_555 1_555
C50_3 C30_3 1_555 1_555
H23_3 C50_3 1_555 1_555
C51_3 C43_3 1_555 1_555
Cu9_2 O4_2 1_555 1_555
Cu11_2 O17_3 1_555 1_555
Cu13_2 Cu4_2 1_555 1_555
Cu14_3 Cu1_3 1_555 1_555
Cu16_2 O23_2 1_555 1_555
Cu17_2 O1_3 1_555 1_555
Cu20_2 Cu5_2 1_555 1_555
O25_3 Cu4_2 1_555 1_555
O29_2 Cu5_2 1_555 1_555
O31_3 Cu5_2 1_555 1_555
O33_3 Cu5_2 1_555 1_555
O35_3 Cu4_2 1_555 1_555
O39_2 Cu4_2 1_555 1_555
O7_3 Cu13_2 1_555 1_555
O12_3 Cu14_3 1_555 1_555
C17_3 C19_3 1_555 1_555
N3_3 C27_3 1_555 1_555
C18_3 C19_3 1_555 1_555
C21_3 C25_3 1_555 1_555
N6_3 C25_3 1_555 1_555
N6_3 C27_3 1_555 1_555
O15_3 Cu14_3 1_555 1_555
O20_3 Cu20_2 1_555 1_555
C30_3 C34_3 1_555 1_555
N11_3 C51_3 1_555 1_555
C50_3 C51_3 1_555 1_555
Cu9_2 Cu17_2 1_555 1_555
Cu11_2 Cu16_2 1_555 1_555
Cu14_4 Cu1_4 1_555 1_555
O36_5 Cu1_4 1_555 1_555
O37_5 Cu1_4 1_555 1_555
Cu2_2 O2_3 1_555 1_555
Cu3_3 O3_3 1_555 1_555
O2_3 C2_3 1_555 1_555
O3_3 C7_3 1_555 1_555
O5_3 C12_3 1_555 1_555
O8_3 C2_3 1_555 1_555
O9_3 C7_3 1_555 1_555
O11_2 C12_3 1_555 1_555
C2_3 C9_3 1_555 1_555
C3_3 C6_3 1_555 1_555
C6_3 H1_3 1_555 1_555
C7_3 C3_3 1_555 1_555
C11_3 C6_3 1_555 1_555
C12_3 C11_3 1_555 1_555
N2_3 C22_3 1_555 1_555
C16_3 C11_3 1_555 1_555
H5_3 C16_3 1_555 1_555
N4_3 C22_3 1_555 1_555
C22_3 N5_3 1_555 1_555
N5_3 H10_3 1_555 1_555
C23_3 C3_3 1_555 1_555
H11_3 C23_3 1_555 1_555
C24_3 C16_3 1_555 1_555
Cu6_2 O18_3 1_555 1_555
O13_3 C31_3 1_555 1_555
O16_2 C31_3 1_555 1_555
O18_3 C28_3 1_555 1_555
O19_3 C28_3 1_555 1_555
O22_3 C32_3 1_555 1_555
O24_3 Cu3_3 1_555 1_555
C28_3 C37_3 1_555 1_555
C31_3 C35_3 1_555 1_555
C32_3 O24_3 1_555 1_555
C35_3 C41_3 1_555 1_555
C37_3 C42_3 1_555 1_555
N7_3 H14_3 1_555 1_555
C40_3 C32_3 1_555 1_555
C41_3 H15_3 1_555 1_555
C42_3 C40_3 1_555 1_555
H16_3 C42_3 1_555 1_555
N9_3 C53_3 1_555 1_555
C45_3 C35_3 1_555 1_555
H19_3 C45_3 1_555 1_555
C46_3 N7_3 1_555 1_555
C47_3 C37_3 1_555 1_555
H20_3 C47_3 1_555 1_555
C48_3 C40_3 1_555 1_555
H21_3 C48_3 1_555 1_555
N12_3 H24_3 1_555 1_555
C52_3 C47_3 1_555 1_555
C53_3 N7_3 1_555 1_555
Cu7_3 Cu3_3 1_555 1_555
Cu8_2 O16_2 1_555 1_555
Cu10_2 O5_3 1_555 1_555
Cu12_2 Cu6_2 1_555 1_555
Cu15_2 O11_2 1_555 1_555
Cu18_2 O13_3 1_555 1_555
Cu19_2 Cu2_2 1_555 1_555
O26_3 Cu6_2 1_555 1_555
O28_2 Cu2_2 1_555 1_555
O30_3 Cu2_2 1_555 1_555
O32_3 Cu2_2 1_555 1_555
O34_3 Cu6_2 1_555 1_555
O38_2 Cu6_2 1_555 1_555
O8_3 Cu19_2 1_555 1_555
O9_3 Cu7_3 1_555 1_555
N5_3 C24_3 1_555 1_555
C23_3 C24_3 1_555 1_555
O19_3 Cu12_2 1_555 1_555
O22_3 Cu7_3 1_555 1_555
C44_3 C46_3 1_555 1_555
N9_3 C54_3 1_555 1_555
C45_3 C46_3 1_555 1_555
C48_3 C52_3 1_555 1_555
N12_3 C52_3 1_555 1_555
N12_3 C54_3 1_555 1_555
Cu8_2 Cu18_2 1_555 1_555
Cu10_2 Cu15_2 1_555 1_555
Cu7_4 Cu3_4 1_555 1_555
O27_5 Cu3_4 1_555 1_555
O40_5 Cu3_4 1_555 1_555
O27_6 Cu14_4 1_555 1_555
O40_6 Cu14_4 1_555 1_555
O36_6 Cu7_4 1_555 1_555
O37_6 Cu7_4 1_555 1_555
Cu8_2 O2_4 1_555 1_555
Cu3_5 O3_4 1_555 1_555
O2_4 C2_4 1_555 1_555
O3_4 C7_4 1_555 1_555
O5_4 C12_4 1_555 1_555
O8_4 C2_4 1_555 1_555
O9_4 C7_4 1_555 1_555
O38_2 C12_4 1_555 1_555
C2_4 C9_4 1_555 1_555
C3_4 C6_4 1_555 1_555
C6_4 H1_4 1_555 1_555
C7_4 C3_4 1_555 1_555
C11_4 C6_4 1_555 1_555
C12_4 C11_4 1_555 1_555
N2_4 C22_4 1_555 1_555
C16_4 C11_4 1_555 1_555
H5_4 C16_4 1_555 1_555
N4_4 C22_4 1_555 1_555
C22_4 N5_4 1_555 1_555
N5_4 H10_4 1_555 1_555
C23_4 C3_4 1_555 1_555
H11_4 C23_4 1_555 1_555
C24_4 C16_4 1_555 1_555
Cu16_2 O18_4 1_555 1_555
O13_4 C31_4 1_555 1_555
O29_2 C31_4 1_555 1_555
O18_4 C28_4 1_555 1_555
O19_4 C28_4 1_555 1_555
O22_4 C32_4 1_555 1_555
O24_4 Cu3_5 1_555 1_555
C28_4 C37_4 1_555 1_555
C31_4 C35_4 1_555 1_555
C32_4 O24_4 1_555 1_555
C35_4 C41_4 1_555 1_555
C37_4 C42_4 1_555 1_555
N7_4 H14_4 1_555 1_555
C40_4 C32_4 1_555 1_555
C41_4 H15_4 1_555 1_555
C42_4 C40_4 1_555 1_555
H16_4 C42_4 1_555 1_555
N9_4 C53_4 1_555 1_555
C45_4 C35_4 1_555 1_555
H19_4 C45_4 1_555 1_555
C46_4 N7_4 1_555 1_555
C47_4 C37_4 1_555 1_555
H20_4 C47_4 1_555 1_555
C48_4 C40_4 1_555 1_555
H21_4 C48_4 1_555 1_555
N12_4 H24_4 1_555 1_555
C52_4 C47_4 1_555 1_555
C53_4 N7_4 1_555 1_555
Cu7_5 Cu3_5 1_555 1_555
Cu12_2 O5_4 1_555 1_555
Cu20_2 O13_4 1_555 1_555
O26_4 Cu16_2 1_555 1_555
O30_4 Cu8_2 1_555 1_555
O32_4 Cu8_2 1_555 1_555
O34_4 Cu16_2 1_555 1_555
O8_4 Cu18_2 1_555 1_555
O9_4 Cu7_5 1_555 1_555
N5_4 C24_4 1_555 1_555
C23_4 C24_4 1_555 1_555
O19_4 Cu11_2 1_555 1_555
O22_4 Cu7_5 1_555 1_555
C44_4 C46_4 1_555 1_555
N9_4 C54_4 1_555 1_555
C45_4 C46_4 1_555 1_555
C48_4 C52_4 1_555 1_555
N12_4 C52_4 1_555 1_555
N12_4 C54_4 1_555 1_555
Cu7_6 Cu3_6 1_555 1_555
O27_7 Cu3_6 1_555 1_555
O40_7 Cu3_6 1_555 1_555
Cu1_5 O10_4 1_555 1_555
Cu15_2 O6_4 1_555 1_555
O1_4 C4_4 1_555 1_555
O28_2 C4_4 1_555 1_555
O6_4 C1_4 1_555 1_555
O7_4 C1_4 1_555 1_555
O10_4 C5_4 1_555 1_555
O12_4 C5_4 1_555 1_555
C1_4 C10_4 1_555 1_555
C4_4 C8_4 1_555 1_555
C5_4 C13_4 1_555 1_555
C8_4 C14_4 1_555 1_555
C10_4 C15_4 1_555 1_555
N1_4 H2_4 1_555 1_555
C13_4 C15_4 1_555 1_555
C14_4 H3_4 1_555 1_555
C15_4 H4_4 1_555 1_555
N3_4 C26_4 1_555 1_555
C18_4 C8_4 1_555 1_555
H7_4 C18_4 1_555 1_555
C19_4 N1_4 1_555 1_555
C20_4 C10_4 1_555 1_555
H8_4 C20_4 1_555 1_555
C21_4 C13_4 1_555 1_555
H9_4 C21_4 1_555 1_555
N6_4 H12_4 1_555 1_555
C25_4 C20_4 1_555 1_555
C26_4 N1_4 1_555 1_555
Cu9_2 O14_4 1_555 1_555
O14_4 C29_4 1_555 1_555
O15_4 C34_4 1_555 1_555
O17_4 C39_4 1_555 1_555
O20_4 C29_4 1_555 1_555
O21_4 Cu1_5 1_555 1_555
O39_2 C39_4 1_555 1_555
C29_4 C36_4 1_555 1_555
C30_4 C33_4 1_555 1_555
C33_4 H13_4 1_555 1_555
C34_4 O21_4 1_555 1_555
C38_4 C33_4 1_555 1_555
C39_4 C38_4 1_555 1_555
N8_4 C49_4 1_555 1_555
C43_4 C38_4 1_555 1_555
H17_4 C43_4 1_555 1_555
N10_4 C49_4 1_555 1_555
C49_4 N11_4 1_555 1_555
N11_4 H22_4 1_555 1_555
C50_4 C30_4 1_555 1_555
H23_4 C50_4 1_555 1_555
C51_4 C43_4 1_555 1_555
Cu13_2 O17_4 1_555 1_555
Cu14_5 Cu1_5 1_555 1_555
Cu19_2 O1_4 1_555 1_555
O25_4 Cu15_2 1_555 1_555
O31_4 Cu9_2 1_555 1_555
O33_4 Cu9_2 1_555 1_555
O35_4 Cu15_2 1_555 1_555
O7_4 Cu10_2 1_555 1_555
O12_4 Cu14_5 1_555 1_555
C17_4 C19_4 1_555 1_555
N3_4 C27_4 1_555 1_555
C18_4 C19_4 1_555 1_555
C21_4 C25_4 1_555 1_555
N6_4 C25_4 1_555 1_555
N6_4 C27_4 1_555 1_555
O15_4 Cu14_5 1_555 1_555
O20_4 Cu17_2 1_555 1_555
C30_4 C34_4 1_555 1_555
N11_4 C51_4 1_555 1_555
C50_4 C51_4 1_555 1_555
Cu14_6 Cu1_6 1_555 1_555
O36_7 Cu1_6 1_555 1_555
O37_7 Cu1_6 1_555 1_555
O36_8 Cu7_6 1_555 1_555
O37_8 Cu7_6 1_555 1_555
O27_8 Cu14_6 1_555 1_555
O40_8 Cu14_6 1_555 1_555
Cu11_2 O14_5 1_555 1_555
Cu18_2 O18_5 1_555 1_555
O26_3 C31_5 1_555 1_555
O14_5 C29_5 1_555 1_555
O27 C34_5 1_555 1_555
O16_3 C31_5 1_555 1_555
O31_3 C39_5 1_555 1_555
O18_5 C28_5 1_555 1_555
O32_4 C28_5 1_555 1_555
O34_4 C29_5 1_555 1_555
O23_3 C39_5 1_555 1_555
C28_5 C37_5 1_555 1_555
C29_5 C36_5 1_555 1_555
C30_5 C33_5 1_555 1_555
C31_5 C35_5 1_555 1_555
C33_5 H13_5 1_555 1_555
C34_5 O36_2 1_555 1_555
C35_5 C41_5 1_555 1_555
C36_5 C41_5 1_555 1_555
C37_5 C42_5 1_555 1_555
N7_5 H14_5 1_555 1_555
C38_5 C33_5 1_555 1_555
C39_5 C38_5 1_555 1_555
C40_5 C32_5 1_555 1_555
N8_5 C49_5 1_555 1_555
C41_5 H15_5 1_555 1_555
C42_5 C40_5 1_555 1_555
H16_5 C42_5 1_555 1_555
C43_5 C38_5 1_555 1_555
H17_5 C43_5 1_555 1_555
C44_5 C36_5 1_555 1_555
H18_5 C44_5 1_555 1_555
N9_5 C53_5 1_555 1_555
N10_5 C49_5 1_555 1_555
C45_5 C35_5 1_555 1_555
H19_5 C45_5 1_555 1_555
C46_5 N7_5 1_555 1_555
C47_5 C37_5 1_555 1_555
H20_5 C47_5 1_555 1_555
C48_5 C40_5 1_555 1_555
H21_5 C48_5 1_555 1_555
C49_5 N11_5 1_555 1_555
N11_5 H22_5 1_555 1_555
C50_5 C30_5 1_555 1_555
H23_5 C50_5 1_555 1_555
C51_5 C43_5 1_555 1_555
N12_5 H24_5 1_555 1_555
C52_5 C47_5 1_555 1_555
C53_5 N7_5 1_555 1_555
C54_5 N8_5 1_555 1_555
Cu12_2 O16_3 1_555 1_555
Cu20_2 O23_3 1_555 1_555
O29_3 Cu11_2 1_555 1_555
O38_3 Cu18_2 1_555 1_555
C30_5 C34_5 1_555 1_555
C44_5 C46_5 1_555 1_555
N9_5 C54_5 1_555 1_555
N10_5 C53_5 1_555 1_555
C45_5 C46_5 1_555 1_555
C48_5 C52_5 1_555 1_555
N11_5 C51_5 1_555 1_555
C50_5 C51_5 1_555 1_555
N12_5 C52_5 1_555 1_555
N12_5 C54_5 1_555 1_555
Cu10_2 O2_5 1_555 1_555
Cu17_2 O6_5 1_555 1_555
O25_3 C4_5 1_555 1_555
O2_5 C2_5 1_555 1_555
O27_2 C7_5 1_555 1_555
O4_3 C4_5 1_555 1_555
O30_3 C12_5 1_555 1_555
O6_5 C1_5 1_555 1_555
O33_4 C1_5 1_555 1_555
O35_4 C2_5 1_555 1_555
O36 C7_5 1_555 1_555
O11_3 C12_5 1_555 1_555
C1_5 C10_5 1_555 1_555
C2_5 C9_5 1_555 1_555
C3_5 C6_5 1_555 1_555
C4_5 C8_5 1_555 1_555
C5_5 C13_5 1_555 1_555
C6_5 H1_5 1_555 1_555
C7_5 C3_5 1_555 1_555
C8_5 C14_5 1_555 1_555
C9_5 C14_5 1_555 1_555
C10_5 C15_5 1_555 1_555
N1_5 H2_5 1_555 1_555
C11_5 C6_5 1_555 1_555
C12_5 C11_5 1_555 1_555
C13_5 C15_5 1_555 1_555
N2_5 C22_5 1_555 1_555
C14_5 H3_5 1_555 1_555
C15_5 H4_5 1_555 1_555
C16_5 C11_5 1_555 1_555
H5_5 C16_5 1_555 1_555
C17_5 C9_5 1_555 1_555
H6_5 C17_5 1_555 1_555
N3_5 C26_5 1_555 1_555
N4_5 C22_5 1_555 1_555
C18_5 C8_5 1_555 1_555
H7_5 C18_5 1_555 1_555
C19_5 N1_5 1_555 1_555
C20_5 C10_5 1_555 1_555
H8_5 C20_5 1_555 1_555
C21_5 C13_5 1_555 1_555
H9_5 C21_5 1_555 1_555
C22_5 N5_5 1_555 1_555
N5_5 H10_5 1_555 1_555
C23_5 C3_5 1_555 1_555
H11_5 C23_5 1_555 1_555
C24_5 C16_5 1_555 1_555
N6_5 H12_5 1_555 1_555
C25_5 C20_5 1_555 1_555
C26_5 N1_5 1_555 1_555
C27_5 N2_5 1_555 1_555
Cu13_2 O4_3 1_555 1_555
Cu19_2 O11_3 1_555 1_555
O28_3 Cu10_2 1_555 1_555
O39_3 Cu17_2 1_555 1_555
C17_5 C19_5 1_555 1_555
N3_5 C27_5 1_555 1_555
N4_5 C26_5 1_555 1_555
C18_5 C19_5 1_555 1_555
C21_5 C25_5 1_555 1_555
N5_5 C24_5 1_555 1_555
C23_5 C24_5 1_555 1_555
N6_5 C25_5 1_555 1_555
N6_5 C27_5 1_555 1_555
Cu13_2 O14_6 1_555 1_555
Cu20_2 O18_6 1_555 1_555
O26_4 C31_6 1_555 1_555
O14_6 C29_6 1_555 1_555
O27_3 C34_6 1_555 1_555
O29_3 C31_6 1_555 1_555
O31_4 C39_6 1_555 1_555
O18_6 C28_6 1_555 1_555
O33_3 C28_6 1_555 1_555
O35_3 C29_6 1_555 1_555
O39_3 C39_6 1_555 1_555
C28_6 C37_6 1_555 1_555
C29_6 C36_6 1_555 1_555
C30_6 C33_6 1_555 1_555
C31_6 C35_6 1_555 1_555
C33_6 H13_6 1_555 1_555
C34_6 O36_4 1_555 1_555
C35_6 C41_6 1_555 1_555
C36_6 C41_6 1_555 1_555
C37_6 C42_6 1_555 1_555
N7_6 H14_6 1_555 1_555
C38_6 C33_6 1_555 1_555
C39_6 C38_6 1_555 1_555
C40_6 C32_6 1_555 1_555
N8_6 C49_6 1_555 1_555
C41_6 H15_6 1_555 1_555
C42_6 C40_6 1_555 1_555
H16_6 C42_6 1_555 1_555
C43_6 C38_6 1_555 1_555
H17_6 C43_6 1_555 1_555
C44_6 C36_6 1_555 1_555
H18_6 C44_6 1_555 1_555
N9_6 C53_6 1_555 1_555
N10_6 C49_6 1_555 1_555
C45_6 C35_6 1_555 1_555
H19_6 C45_6 1_555 1_555
C46_6 N7_6 1_555 1_555
C47_6 C37_6 1_555 1_555
H20_6 C47_6 1_555 1_555
C48_6 C40_6 1_555 1_555
H21_6 C48_6 1_555 1_555
C49_6 N11_6 1_555 1_555
N11_6 H22_6 1_555 1_555
C50_6 C30_6 1_555 1_555
H23_6 C50_6 1_555 1_555
C51_6 C43_6 1_555 1_555
N12_6 H24_6 1_555 1_555
C52_6 C47_6 1_555 1_555
C53_6 N7_6 1_555 1_555
C54_6 N8_6 1_555 1_555
C30_6 C34_6 1_555 1_555
C44_6 C46_6 1_555 1_555
N9_6 C54_6 1_555 1_555
N10_6 C53_6 1_555 1_555
C45_6 C46_6 1_555 1_555
C48_6 C52_6 1_555 1_555
N11_6 C51_6 1_555 1_555
C50_6 C51_6 1_555 1_555
N12_6 C52_6 1_555 1_555
N12_6 C54_6 1_555 1_555
Cu12_2 O2_6 1_555 1_555
Cu19_2 O6_6 1_555 1_555
O25_4 C4_6 1_555 1_555
O2_6 C2_6 1_555 1_555
O27_4 C7_6 1_555 1_555
O28_3 C4_6 1_555 1_555
O30_4 C12_6 1_555 1_555
O6_6 C1_6 1_555 1_555
O32_3 C1_6 1_555 1_555
O34_3 C2_6 1_555 1_555
O36_3 C7_6 1_555 1_555
O38_3 C12_6 1_555 1_555
C1_6 C10_6 1_555 1_555
C2_6 C9_6 1_555 1_555
C3_6 C6_6 1_555 1_555
C4_6 C8_6 1_555 1_555
C5_6 C13_6 1_555 1_555
C6_6 H1_6 1_555 1_555
C7_6 C3_6 1_555 1_555
C8_6 C14_6 1_555 1_555
C9_6 C14_6 1_555 1_555
C10_6 C15_6 1_555 1_555
N1_6 H2_6 1_555 1_555
C11_6 C6_6 1_555 1_555
C12_6 C11_6 1_555 1_555
C13_6 C15_6 1_555 1_555
N2_6 C22_6 1_555 1_555
C14_6 H3_6 1_555 1_555
C15_6 H4_6 1_555 1_555
C16_6 C11_6 1_555 1_555
H5_6 C16_6 1_555 1_555
C17_6 C9_6 1_555 1_555
H6_6 C17_6 1_555 1_555
N3_6 C26_6 1_555 1_555
N4_6 C22_6 1_555 1_555
C18_6 C8_6 1_555 1_555
H7_6 C18_6 1_555 1_555
C19_6 N1_6 1_555 1_555
C20_6 C10_6 1_555 1_555
H8_6 C20_6 1_555 1_555
C21_6 C13_6 1_555 1_555
H9_6 C21_6 1_555 1_555
C22_6 N5_6 1_555 1_555
N5_6 H10_6 1_555 1_555
C23_6 C3_6 1_555 1_555
H11_6 C23_6 1_555 1_555
C24_6 C16_6 1_555 1_555
N6_6 H12_6 1_555 1_555
C25_6 C20_6 1_555 1_555
C26_6 N1_6 1_555 1_555
C27_6 N2_6 1_555 1_555
C17_6 C19_6 1_555 1_555
N3_6 C27_6 1_555 1_555
N4_6 C26_6 1_555 1_555
C18_6 C19_6 1_555 1_555
C21_6 C25_6 1_555 1_555
N5_6 C24_6 1_555 1_555
C23_6 C24_6 1_555 1_555
N6_6 C25_6 1_555 1_555
N6_6 C27_6 1_555 1_555
Cu10 O2_7 1_555 1_555
O2_7 C2_7 1_555 1_555
O27_6 C7_7 1_555 1_555
O30 C12_7 1_555 1_555
O35_2 C2_7 1_555 1_555
O36_5 C7_7 1_555 1_555
O11_4 C12_7 1_555 1_555
C2_7 C9_7 1_555 1_555
C3_7 C6_7 1_555 1_555
C6_7 H1_7 1_555 1_555
C7_7 C3_7 1_555 1_555
C11_7 C6_7 1_555 1_555
C12_7 C11_7 1_555 1_555
N2_7 C22_7 1_555 1_555
C16_7 C11_7 1_555 1_555
H5_7 C16_7 1_555 1_555
N4_7 C22_7 1_555 1_555
C22_7 N5_7 1_555 1_555
N5_7 H10_7 1_555 1_555
C23_7 C3_7 1_555 1_555
H11_7 C23_7 1_555 1_555
C24_7 C16_7 1_555 1_555
Cu18 O18_7 1_555 1_555
O26 C31_7 1_555 1_555
O16_4 C31_7 1_555 1_555
O18_7 C28_7 1_555 1_555
O32_2 C28_7 1_555 1_555
O37_5 C32_7 1_555 1_555
C28_7 C37_7 1_555 1_555
C31_7 C35_7 1_555 1_555
C32_7 O40_6 1_555 1_555
C35_7 C41_7 1_555 1_555
C37_7 C42_7 1_555 1_555
N7_7 H14_7 1_555 1_555
C40_7 C32_7 1_555 1_555
C41_7 H15_7 1_555 1_555
C42_7 C40_7 1_555 1_555
H16_7 C42_7 1_555 1_555
N9_7 C53_7 1_555 1_555
C45_7 C35_7 1_555 1_555
H19_7 C45_7 1_555 1_555
C46_7 N7_7 1_555 1_555
C47_7 C37_7 1_555 1_555
H20_7 C47_7 1_555 1_555
C48_7 C40_7 1_555 1_555
H21_7 C48_7 1_555 1_555
N12_7 H24_7 1_555 1_555
C52_7 C47_7 1_555 1_555
C53_7 N7_7 1_555 1_555
Cu12 O16_4 1_555 1_555
Cu19 O11_4 1_555 1_555
O28_4 Cu10 1_555 1_555
O38_4 Cu18 1_555 1_555
N5_7 C24_7 1_555 1_555
C23_7 C24_7 1_555 1_555
C44_7 C46_7 1_555 1_555
N9_7 C54_7 1_555 1_555
C45_7 C46_7 1_555 1_555
C48_7 C52_7 1_555 1_555
N12_7 C52_7 1_555 1_555
N12_7 C54_7 1_555 1_555
Cu17 O6_7 1_555 1_555
O25 C4_7 1_555 1_555
O4_4 C4_7 1_555 1_555
O6_7 C1_7 1_555 1_555
O33_2 C1_7 1_555 1_555
O37_6 C5_7 1_555 1_555
O40_5 C5_7 1_555 1_555
C1_7 C10_7 1_555 1_555
C4_7 C8_7 1_555 1_555
C5_7 C13_7 1_555 1_555
C8_7 C14_7 1_555 1_555
C10_7 C15_7 1_555 1_555
N1_7 H2_7 1_555 1_555
C13_7 C15_7 1_555 1_555
C14_7 H3_7 1_555 1_555
C15_7 H4_7 1_555 1_555
N3_7 C26_7 1_555 1_555
C18_7 C8_7 1_555 1_555
H7_7 C18_7 1_555 1_555
C19_7 N1_7 1_555 1_555
C20_7 C10_7 1_555 1_555
H8_7 C20_7 1_555 1_555
C21_7 C13_7 1_555 1_555
H9_7 C21_7 1_555 1_555
N6_7 H12_7 1_555 1_555
C25_7 C20_7 1_555 1_555
C26_7 N1_7 1_555 1_555
Cu11 O14_7 1_555 1_555
O14_7 C29_7 1_555 1_555
O27_5 C34_7 1_555 1_555
O31 C39_7 1_555 1_555
O34_2 C29_7 1_555 1_555
O23_4 C39_7 1_555 1_555
C29_7 C36_7 1_555 1_555
C30_7 C33_7 1_555 1_555
C33_7 H13_7 1_555 1_555
C34_7 O36_6 1_555 1_555
C38_7 C33_7 1_555 1_555
C39_7 C38_7 1_555 1_555
N8_7 C49_7 1_555 1_555
C43_7 C38_7 1_555 1_555
H17_7 C43_7 1_555 1_555
N10_7 C49_7 1_555 1_555
C49_7 N11_7 1_555 1_555
N11_7 H22_7 1_555 1_555
C50_7 C30_7 1_555 1_555
H23_7 C50_7 1_555 1_555
C51_7 C43_7 1_555 1_555
Cu13 O4_4 1_555 1_555
Cu20 O23_4 1_555 1_555
O29_4 Cu11 1_555 1_555
O39_4 Cu17 1_555 1_555
C17_7 C19_7 1_555 1_555
N3_7 C27_7 1_555 1_555
C18_7 C19_7 1_555 1_555
C21_7 C25_7 1_555 1_555
N6_7 C25_7 1_555 1_555
N6_7 C27_7 1_555 1_555
C30_7 C34_7 1_555 1_555
N11_7 C51_7 1_555 1_555
C50_7 C51_7 1_555 1_555
Cu19 O6_8 1_555 1_555
O25_2 C4_8 1_555 1_555
O28_4 C4_8 1_555 1_555
O6_8 C1_8 1_555 1_555
O32 C1_8 1_555 1_555
O37_8 C5_8 1_555 1_555
O40_7 C5_8 1_555 1_555
C1_8 C10_8 1_555 1_555
C4_8 C8_8 1_555 1_555
C5_8 C13_8 1_555 1_555
C8_8 C14_8 1_555 1_555
C10_8 C15_8 1_555 1_555
N1_8 H2_8 1_555 1_555
C13_8 C15_8 1_555 1_555
C14_8 H3_8 1_555 1_555
C15_8 H4_8 1_555 1_555
N3_8 C26_8 1_555 1_555
C18_8 C8_8 1_555 1_555
H7_8 C18_8 1_555 1_555
C19_8 N1_8 1_555 1_555
C20_8 C10_8 1_555 1_555
H8_8 C20_8 1_555 1_555
C21_8 C13_8 1_555 1_555
H9_8 C21_8 1_555 1_555
N6_8 H12_8 1_555 1_555
C25_8 C20_8 1_555 1_555
C26_8 N1_8 1_555 1_555
Cu13 O14_8 1_555 1_555
O14_8 C29_8 1_555 1_555
O27_7 C34_8 1_555 1_555
O31_2 C39_8 1_555 1_555
O35 C29_8 1_555 1_555
O39_4 C39_8 1_555 1_555
C29_8 C36_8 1_555 1_555
C30_8 C33_8 1_555 1_555
C33_8 H13_8 1_555 1_555
C34_8 O36_8 1_555 1_555
C38_8 C33_8 1_555 1_555
C39_8 C38_8 1_555 1_555
N8_8 C49_8 1_555 1_555
C43_8 C38_8 1_555 1_555
H17_8 C43_8 1_555 1_555
N10_8 C49_8 1_555 1_555
C49_8 N11_8 1_555 1_555
N11_8 H22_8 1_555 1_555
C50_8 C30_8 1_555 1_555
H23_8 C50_8 1_555 1_555
C51_8 C43_8 1_555 1_555
C17_8 C19_8 1_555 1_555
N3_8 C27_8 1_555 1_555
C18_8 C19_8 1_555 1_555
C21_8 C25_8 1_555 1_555
N6_8 C25_8 1_555 1_555
N6_8 C27_8 1_555 1_555
C30_8 C34_8 1_555 1_555
N11_8 C51_8 1_555 1_555
C50_8 C51_8 1_555 1_555
Cu12 O2_8 1_555 1_555
O2_8 C2_8 1_555 1_555
O27_8 C7_8 1_555 1_555
O30_2 C12_8 1_555 1_555
O34 C2_8 1_555 1_555
O36_7 C7_8 1_555 1_555
O38_4 C12_8 1_555 1_555
C2_8 C9_8 1_555 1_555
C3_8 C6_8 1_555 1_555
C6_8 H1_8 1_555 1_555
C7_8 C3_8 1_555 1_555
C11_8 C6_8 1_555 1_555
C12_8 C11_8 1_555 1_555
N2_8 C22_8 1_555 1_555
C16_8 C11_8 1_555 1_555
H5_8 C16_8 1_555 1_555
N4_8 C22_8 1_555 1_555
C22_8 N5_8 1_555 1_555
N5_8 H10_8 1_555 1_555
C23_8 C3_8 1_555 1_555
H11_8 C23_8 1_555 1_555
C24_8 C16_8 1_555 1_555
Cu20 O18_8 1_555 1_555
O26_2 C31_8 1_555 1_555
O29_4 C31_8 1_555 1_555
O18_8 C28_8 1_555 1_555
O33 C28_8 1_555 1_555
O37_7 C32_8 1_555 1_555
C28_8 C37_8 1_555 1_555
C31_8 C35_8 1_555 1_555
C32_8 O40_8 1_555 1_555
C35_8 C41_8 1_555 1_555
C37_8 C42_8 1_555 1_555
N7_8 H14_8 1_555 1_555
C40_8 C32_8 1_555 1_555
C41_8 H15_8 1_555 1_555
C42_8 C40_8 1_555 1_555
H16_8 C42_8 1_555 1_555
N9_8 C53_8 1_555 1_555
C45_8 C35_8 1_555 1_555
H19_8 C45_8 1_555 1_555
C46_8 N7_8 1_555 1_555
C47_8 C37_8 1_555 1_555
H20_8 C47_8 1_555 1_555
C48_8 C40_8 1_555 1_555
H21_8 C48_8 1_555 1_555
N12_8 H24_8 1_555 1_555
C52_8 C47_8 1_555 1_555
C53_8 N7_8 1_555 1_555
N5_8 C24_8 1_555 1_555
C23_8 C24_8 1_555 1_555
C44_8 C46_8 1_555 1_555
N9_8 C54_8 1_555 1_555
C45_8 C46_8 1_555 1_555
C48_8 C52_8 1_555 1_555
N12_8 C52_8 1_555 1_555
N12_8 C54_8 1_555 1_555

#END
