
###############################################################################
#
# This file contains modified crystal structure data generated from the
# MOF subset of the Cambridge Structural Database (CSD) v543 
# hosted by the Cambridge Crystallographic Data Centre (CCDC).
#
# This work is licensed under the Creative Commons
# Attribution-NonCommercial-ShareAlike 4.0 International License.
# To view a copy of this license, visit
# http://creativecommons.org/licenses/by-nc-sa/4.0/
# or send a letter to
# Creative Commons, PO Box 1866, Mountain View, CA 94042, USA.
#
# CIF created using the CSD Python API on 29 September 2022
# The structure has been converted into the P1 space group
# The structure has a 3D framework
# The original CSD entry PAPROO is in the trigonal crystal system
# The framework has been calculated to contain at least 10.0% void space
# The void calculation uses a probe of radius 1.32A, grid spacing 0.4
# H atom positions have been added when not included in the experimental data
#
###############################################################################

data_PAPROO
_chemical_formula_moiety         '(C48 H84 Cu9 N12 O48 Tb4)n'
_symmetry_cell_setting           triclinic
_symmetry_space_group_name_H-M   'P 1'
_symmetry_Int_Tables_number      1
_space_group_name_Hall           'P 1'
loop_
_symmetry_equiv_pos_site_id
_symmetry_equiv_pos_as_xyz
1 x,y,z
_cell_length_a                   13.3860(8)
_cell_length_b                   13.3860(8)
_cell_length_c                   14.4646(16)
_cell_angle_alpha                90
_cell_angle_beta                 90
_cell_angle_gamma                120
_cell_volume                     2244.6
loop_
_atom_site_label
_atom_site_type_symbol
_atom_site_fract_x
_atom_site_fract_y
_atom_site_fract_z
Cu1 Cu 0.0000 0.5000 0.0000
Cu5 Cu -0.0000 0.5000 0.5000
N7 N 0.0427(3) 0.3899(3) 0.0584(2)
H9 H 0.0229 0.3494 0.4218
O18 O 0.0744(2) 0.5983(3) 0.1083(2)
H36 H 0.0960797 0.428648 0.112891
H37 H 0.0830733 0.366218 0.0111891
Cu1_2 Cu 0.0000 0.5000 1.0000
H1 H 0.0229 0.6735 0.9218
O10 O 0.1885(2) 0.5490(2) 0.9413(2)
Tb1 Tb 0.6667 0.3333 0.16774(2)
Cu1_3 Cu 1.0000 0.5000 0.0000
O1 O 0.8115(2) 0.4510(2) 0.0587(2)
O3 O 0.7542(2) 0.5598(3) 0.1272(2)
C3 C 0.8160(3) 0.5471(4) 0.0701(3)
C4 C 0.9007(4) 0.6472(4) 0.0114(3)
H5 H 0.9592 0.7058 0.0509
Tb2 Tb 0.6666 0.3333 0.66774(2)
Cu2 Cu 0.5000 0.5000 0.0000
Cu3 Cu 0.5000 0.0000 0.0000
Cu4 Cu 0.5000 0.5000 0.5000
Cu5_2 Cu 1.0000 0.5000 0.5000
Cu6 Cu 0.5000 0.0000 0.5000
O5 O 0.5490(2) 0.3605(3) 0.0587(2)
O6 O 0.6395(3) 0.1885(2) 0.0587(2)
O7 O 0.6395(3) 0.4510(2) 0.5587(2)
O8 O 0.8115(2) 0.3605(3) 0.5587(2)
O9 O 0.5490(2) 0.1885(2) 0.5587(2)
N4 N 0.6528(4) 0.6101(3) 0.4416(2)
N5 N 0.9573(3) 0.3472(4) 0.4416(2)
N6 N 0.3899(3) 0.0427(3) 0.4416(2)
N8 N 0.6101(3) 0.6528(4) 0.0584(2)
H8 H 0.6506 0.6735 0.4218
H11 H 0.9771 0.3265 0.0782
H12 H 0.6735 0.6506 0.0782
H13 H 0.3494 0.0229 0.0782
O15 O 0.4761(4) 0.4017(3) 0.3917(2)
O16 O 0.9256(2) 0.5239(4) 0.3917(2)
O17 O 0.5983(3) 0.0744(2) 0.3917(2)
O19 O 0.4017(3) 0.4761(4) 0.1083(2)
O21 O 0.4402(3) 0.1944(4) 0.1272(2)
O22 O 0.8056(4) 0.2458(2) 0.1272(2)
O23 O 0.8056(4) 0.5598(3) 0.6272(2)
O24 O 0.7542(2) 0.1944(4) 0.6272(2)
O25 O 0.4402(3) 0.2458(2) 0.6272(2)
O28 O 0.5653(4) 0.3811(3) 0.2716(2)
O29 O 0.8158(3) 0.4347(4) 0.2716(2)
O30 O 0.6189(3) 0.1842(3) 0.2716(2)
O31 O 0.8158(3) 0.3811(3) 0.7716(2)
O32 O 0.6189(3) 0.4347(4) 0.7716(2)
O33 O 0.5653(4) 0.1842(3) 0.7716(2)
C7 C 0.5636(6) 0.4377(4) 0.3398(3)
C8 C 0.8741(4) 0.4364(6) 0.3398(3)
C9 C 0.5623(4) 0.1259(4) 0.3398(3)
C12 C 0.6673(6) 0.5513(4) 0.3599(3)
C13 C 0.8840(4) 0.3327(6) 0.3599(3)
C14 C 0.4487(4) 0.1160(4) 0.3599(3)
H16 H 0.6847 0.6008 0.3062
H17 H 0.9161 0.3153 0.3062
H18 H 0.3992 0.0839 0.3062
H21 H 0.7326 0.5400 0.3704
H22 H 0.8074 0.2674 0.3704
H23 H 0.4600 0.1926 0.3704
C15 C 0.4529(4) 0.2689(5) 0.0701(3)
C16 C 0.7311(5) 0.1840(3) 0.0701(3)
C17 C 0.7311(5) 0.5471(4) 0.5701(3)
C18 C 0.8160(3) 0.2689(5) 0.5701(3)
C19 C 0.4529(4) 0.1840(3) 0.5701(3)
C20 C 0.3528(4) 0.2535(6) 0.0114(3)
C21 C 0.7465(6) 0.0993(4) 0.0114(3)
C22 C 0.7465(6) 0.6472(4) 0.5114(3)
C23 C 0.9007(4) 0.2535(6) 0.5114(3)
C24 C 0.3528(4) 0.0993(4) 0.5114(3)
H26 H 0.8204 0.6810 0.4801
H27 H 0.8606 0.1796 0.4801
H28 H 0.3190 0.1394 0.4801
H29 H 0.2942 0.2534 0.0509
H30 H 0.7466 0.0408 0.0509
H31 H 0.7466 0.7058 0.5509
H32 H 0.9592 0.2534 0.5509
H33 H 0.2942 0.0408 0.5509
H34 H 0.571352 0.667431 0.112891
H35 H 0.633782 0.716855 0.0111891
Cu1_4 Cu 1.0000 0.5000 1.0000
N1 N 0.9573(3) 0.6101(3) 0.9416(2)
O2 O 0.9256(2) 0.4017(3) 0.8917(2)
C1 C 0.8741(4) 0.4377(4) 0.8398(3)
C2 C 0.8840(4) 0.5513(4) 0.8599(3)
H2 H 0.9161 0.6008 0.8062
H3 H 0.8074 0.5400 0.8704
H4 H 0.8606 0.6810 0.9801
Cu2_2 Cu 0.5000 0.5000 1.0000
Cu3_2 Cu 0.5000 0.0000 1.0000
O11 O 0.4510(2) 0.6395(3) 0.9413(2)
N2 N 0.3899(3) 0.3472(4) 0.9416(2)
N3 N 0.6528(4) 0.0427(3) 0.9416(2)
H6 H 0.3265 0.3494 0.9218
O13 O 0.5983(3) 0.5239(4) 0.8917(2)
O14 O 0.4761(4) 0.0744(2) 0.8917(2)
C5 C 0.5623(4) 0.4364(6) 0.8398(3)
C6 C 0.5636(6) 0.1259(4) 0.8398(3)
C10 C 0.4487(4) 0.3327(6) 0.8599(3)
C11 C 0.6673(6) 0.1160(4) 0.8599(3)
H14 H 0.3992 0.3153 0.8062
H15 H 0.6847 0.0839 0.8062
H19 H 0.4600 0.2674 0.8704
H20 H 0.7326 0.1926 0.8704
H24 H 0.3190 0.1796 0.9801
H25 H 0.8204 0.1394 0.9801
Cu3_3 Cu 0.5000 1.0000 0.0000
Cu6_2 Cu 0.5000 1.0000 0.5000
N9 N 0.3472(4) 0.9573(3) 0.0584(2)
H10 H 0.3265 0.9771 0.4218
O20 O 0.5239(4) 0.9256(2) 0.1083(2)
H38 H 0.332569 0.90392 0.112891
H39 H 0.283145 0.916927 0.0111891
Cu3_4 Cu 0.5000 1.0000 1.0000
O12 O 0.3605(3) 0.8115(2) 0.9413(2)
H7 H 0.6506 0.9771 0.9218
H1_2 H 0.6735 0.0229 0.5782
H36_2 H 0.428648 0.0960797 0.387109
H37_2 H 0.366218 0.0830733 0.488811
Tb1_2 Tb 0.3333 0.6667 0.33226(2)
O1_2 O 0.4510(2) 0.8115(2) 0.4413(2)
N1_2 N 0.6101(3) 0.9573(3) 0.5584(2)
O2_2 O 0.4017(3) 0.9256(2) 0.6083(2)
O3_2 O 0.5598(3) 0.7542(2) 0.3728(2)
O4 O 0.3811(3) 0.8158(3) 0.7284(2)
C1_2 C 0.4377(4) 0.8741(4) 0.6602(3)
C2_2 C 0.5513(4) 0.8840(4) 0.6401(3)
H2_2 H 0.6008 0.9161 0.6938
H3_2 H 0.5400 0.8074 0.6296
C3_2 C 0.5471(4) 0.8160(3) 0.4299(3)
C4_2 C 0.6472(4) 0.9007(4) 0.4886(3)
H4_2 H 0.6810 0.8606 0.5199
H5_2 H 0.7058 0.9592 0.4491
Tb3 Tb 0.3333 0.6666 0.83226(2)
O5_2 O 0.3605(3) 0.5490(2) 0.4413(2)
O6_2 O 0.1885(2) 0.6395(3) 0.4413(2)
N2_2 N 0.3472(4) 0.3899(3) 0.5584(2)
N3_2 N 0.0427(3) 0.6528(4) 0.5584(2)
H6_2 H 0.3494 0.3265 0.5782
O13_2 O 0.5239(4) 0.5983(3) 0.6083(2)
O14_2 O 0.0744(2) 0.4761(4) 0.6083(2)
O21_2 O 0.1944(4) 0.4402(3) 0.3728(2)
O22_2 O 0.2458(2) 0.8056(4) 0.3728(2)
O26 O 0.4347(4) 0.6189(3) 0.7284(2)
O27 O 0.1842(3) 0.5653(4) 0.7284(2)
O28_2 O 0.3811(3) 0.5653(4) 0.2284(2)
O29_2 O 0.4347(4) 0.8158(3) 0.2284(2)
O30_2 O 0.1842(3) 0.6189(3) 0.2284(2)
C5_2 C 0.4364(6) 0.5623(4) 0.6602(3)
C6_2 C 0.1259(4) 0.5636(6) 0.6602(3)
C7_2 C 0.4377(4) 0.5636(6) 0.1602(3)
C8_2 C 0.4364(6) 0.8741(4) 0.1602(3)
C9_2 C 0.1259(4) 0.5623(4) 0.1602(3)
C10_2 C 0.3327(6) 0.4487(4) 0.6401(3)
C11_2 C 0.1160(4) 0.6673(6) 0.6401(3)
C12_2 C 0.5513(4) 0.6673(6) 0.1401(3)
C13_2 C 0.3327(6) 0.8840(4) 0.1401(3)
C14_2 C 0.1160(4) 0.4487(4) 0.1401(3)
H14_2 H 0.3153 0.3992 0.6938
H15_2 H 0.0839 0.6847 0.6938
H16_2 H 0.6008 0.6847 0.1938
H17_2 H 0.3153 0.9161 0.1938
H18_2 H 0.0839 0.3992 0.1938
H19_2 H 0.2674 0.4600 0.6296
H20_2 H 0.1926 0.7326 0.6296
H21_2 H 0.5400 0.7326 0.1296
H22_2 H 0.2674 0.8074 0.1296
H23_2 H 0.1926 0.4600 0.1296
C15_2 C 0.2689(5) 0.4529(4) 0.4299(3)
C16_2 C 0.1840(3) 0.7311(5) 0.4299(3)
C20_2 C 0.2535(6) 0.3528(4) 0.4886(3)
C21_2 C 0.0993(4) 0.7465(6) 0.4886(3)
H24_2 H 0.1796 0.3190 0.5199
H25_2 H 0.1394 0.8204 0.5199
H26_2 H 0.6810 0.8204 0.0199
H27_2 H 0.1796 0.8606 0.0199
H28_2 H 0.1394 0.3190 0.0199
H29_2 H 0.2534 0.2942 0.4491
H30_2 H 0.0408 0.7466 0.4491
H34_2 H 0.667431 0.571352 0.387109
H35_2 H 0.716855 0.633782 0.488811
O23_2 O 0.5598(3) 0.8056(4) 0.8728(2)
O24_2 O 0.1944(4) 0.7542(2) 0.8728(2)
O25_2 O 0.2458(2) 0.4402(3) 0.8728(2)
C17_2 C 0.5471(4) 0.7311(5) 0.9299(3)
C18_2 C 0.2689(5) 0.8160(3) 0.9299(3)
C19_2 C 0.1840(3) 0.4529(4) 0.9299(3)
C22_2 C 0.6472(4) 0.7465(6) 0.9886(3)
C23_2 C 0.2535(6) 0.9007(4) 0.9886(3)
C24_2 C 0.0993(4) 0.3528(4) 0.9886(3)
H31_2 H 0.7058 0.7466 0.9491
H32_2 H 0.2534 0.9592 0.9491
H33_2 H 0.0408 0.2942 0.9491
H7_2 H 0.9771 0.6506 0.5782
H38_2 H 0.90392 0.332569 0.387109
H39_2 H 0.916927 0.283145 0.488811
H38_3 H 0.667431 0.0960797 0.887109
H39_3 H 0.716855 0.0830733 0.988811
H34_3 H 0.428648 0.332569 0.887109
H35_3 H 0.366218 0.283145 0.988811
H36_3 H 0.90392 0.571352 0.887109
H37_3 H 0.916927 0.633782 0.988811
H38_4 H 0.0960797 0.667431 0.612891
H39_4 H 0.0830733 0.716855 0.511189
H34_4 H 0.332569 0.428648 0.612891
H35_4 H 0.283145 0.366218 0.511189
H36_4 H 0.571352 0.90392 0.612891
H37_4 H 0.633782 0.916927 0.511189
loop_
_geom_bond_atom_site_label_1
_geom_bond_atom_site_label_2
_geom_bond_site_symmetry_1
_geom_bond_site_symmetry_2
N7 Cu1 1_555 1_555
O18 Cu1 1_555 1_555
N7 H36 1_555 1_555
N7 H37 1_555 1_555
O10 Cu1_2 1_555 1_555
Tb1 O1 1_555 1_555
Cu1_3 O1 1_555 1_555
O1 C3 1_555 1_555
O3 Tb1 1_555 1_555
C3 O3 1_555 1_555
H5 C4 1_555 1_555
Tb2 O7 1_555 1_555
Cu2 O5 1_555 1_555
Cu3 O6 1_555 1_555
Cu4 O7 1_555 1_555
Cu5_2 O8 1_555 1_555
Cu6 O9 1_555 1_555
O5 Tb1 1_555 1_555
O6 Tb1 1_555 1_555
O7 C17 1_555 1_555
O8 Tb2 1_555 1_555
O9 Tb2 1_555 1_555
N4 Cu4 1_555 1_555
N5 Cu5_2 1_555 1_555
N6 Cu6 1_555 1_555
N8 Cu2 1_555 1_555
H8 N4 1_555 1_555
H12 N8 1_555 1_555
O15 Cu4 1_555 1_555
O16 Cu5_2 1_555 1_555
O17 Cu6 1_555 1_555
O19 Cu2 1_555 1_555
O21 Tb1 1_555 1_555
O22 Tb1 1_555 1_555
O23 Tb2 1_555 1_555
O24 Tb2 1_555 1_555
O25 Tb2 1_555 1_555
O28 Tb1 1_555 1_555
O29 Tb1 1_555 1_555
O30 Tb1 1_555 1_555
O31 Tb2 1_555 1_555
O32 Tb2 1_555 1_555
O33 Tb2 1_555 1_555
C7 O15 1_555 1_555
C8 O16 1_555 1_555
C9 O17 1_555 1_555
C12 N4 1_555 1_555
C13 N5 1_555 1_555
C14 N6 1_555 1_555
H16 C12 1_555 1_555
H17 C13 1_555 1_555
H18 C14 1_555 1_555
H21 C12 1_555 1_555
H22 C13 1_555 1_555
H23 C14 1_555 1_555
C15 O5 1_555 1_555
C16 O6 1_555 1_555
C17 O23 1_555 1_555
C18 O8 1_555 1_555
C19 O9 1_555 1_555
C22 N4 1_555 1_555
C23 N5 1_555 1_555
C24 N6 1_555 1_555
H26 C22 1_555 1_555
H27 C23 1_555 1_555
H28 C24 1_555 1_555
H29 C20 1_555 1_555
H30 C21 1_555 1_555
H31 C22 1_555 1_555
H32 C23 1_555 1_555
H33 C24 1_555 1_555
C3 C4 1_555 1_555
O21 C15 1_555 1_555
O22 C16 1_555 1_555
O24 C18 1_555 1_555
O25 C19 1_555 1_555
O28 C7 1_555 1_555
O29 C8 1_555 1_555
O30 C9 1_555 1_555
C7 C12 1_555 1_555
C8 C13 1_555 1_555
C9 C14 1_555 1_555
C15 C20 1_555 1_555
C16 C21 1_555 1_555
C17 C22 1_555 1_555
C18 C23 1_555 1_555
C19 C24 1_555 1_555
N8 H34 1_555 1_555
N8 H35 1_555 1_555
N1 Cu1_4 1_555 1_555
O2 Cu1_4 1_555 1_555
O31 C1 1_555 1_555
C1 O2 1_555 1_555
C2 N1 1_555 1_555
H2 C2 1_555 1_555
H3 C2 1_555 1_555
O11 Cu2_2 1_555 1_555
N2 Cu2_2 1_555 1_555
N3 Cu3_2 1_555 1_555
H6 N2 1_555 1_555
O13 Cu2_2 1_555 1_555
O14 Cu3_2 1_555 1_555
C5 O13 1_555 1_555
C6 O14 1_555 1_555
C10 N2 1_555 1_555
C11 N3 1_555 1_555
H14 C10 1_555 1_555
H15 C11 1_555 1_555
H19 C10 1_555 1_555
H20 C11 1_555 1_555
C1 C2 1_555 1_555
O32 C5 1_555 1_555
O33 C6 1_555 1_555
C5 C10 1_555 1_555
C6 C11 1_555 1_555
N9 Cu3_3 1_555 1_555
O20 Cu3_3 1_555 1_555
N9 H38 1_555 1_555
N9 H39 1_555 1_555
O12 Cu3_4 1_555 1_555
N6 H36_2 1_555 1_555
N6 H37_2 1_555 1_555
Tb1_2 O1_2 1_555 1_555
Cu6_2 O1_2 1_555 1_555
O1_2 C3_2 1_555 1_555
N1_2 Cu6_2 1_555 1_555
O2_2 Cu6_2 1_555 1_555
O3_2 Tb1_2 1_555 1_555
O4 C1_2 1_555 1_555
C1_2 O2_2 1_555 1_555
C2_2 N1_2 1_555 1_555
H2_2 C2_2 1_555 1_555
H3_2 C2_2 1_555 1_555
C3_2 O3_2 1_555 1_555
C4_2 N1_2 1_555 1_555
H4_2 C4_2 1_555 1_555
H5_2 C4_2 1_555 1_555
Tb3 O4 1_555 1_555
Cu4 O5_2 1_555 1_555
Cu5 O6_2 1_555 1_555
O5_2 Tb1_2 1_555 1_555
O6_2 Tb1_2 1_555 1_555
N2_2 Cu4 1_555 1_555
N3_2 Cu5 1_555 1_555
H6_2 N2_2 1_555 1_555
O13_2 Cu4 1_555 1_555
O14_2 Cu5 1_555 1_555
O21_2 Tb1_2 1_555 1_555
O22_2 Tb1_2 1_555 1_555
O26 Tb3 1_555 1_555
O27 Tb3 1_555 1_555
O28_2 Tb1_2 1_555 1_555
O29_2 Tb1_2 1_555 1_555
O30_2 Tb1_2 1_555 1_555
C5_2 O13_2 1_555 1_555
C6_2 O14_2 1_555 1_555
C7_2 O19 1_555 1_555
C8_2 O20 1_555 1_555
C9_2 O18 1_555 1_555
C10_2 N2_2 1_555 1_555
C11_2 N3_2 1_555 1_555
C12_2 N8 1_555 1_555
C13_2 N9 1_555 1_555
C14_2 N7 1_555 1_555
H14_2 C10_2 1_555 1_555
H15_2 C11_2 1_555 1_555
H16_2 C12_2 1_555 1_555
H17_2 C13_2 1_555 1_555
H18_2 C14_2 1_555 1_555
H19_2 C10_2 1_555 1_555
H20_2 C11_2 1_555 1_555
H21_2 C12_2 1_555 1_555
H22_2 C13_2 1_555 1_555
H23_2 C14_2 1_555 1_555
C15_2 O5_2 1_555 1_555
C16_2 O6_2 1_555 1_555
C20_2 N2_2 1_555 1_555
C21_2 N3_2 1_555 1_555
H24_2 C20_2 1_555 1_555
H25_2 C21_2 1_555 1_555
H29_2 C20_2 1_555 1_555
H30_2 C21_2 1_555 1_555
C1_2 C2_2 1_555 1_555
C3_2 C4_2 1_555 1_555
O21_2 C15_2 1_555 1_555
O22_2 C16_2 1_555 1_555
O26 C5_2 1_555 1_555
O27 C6_2 1_555 1_555
O28_2 C7_2 1_555 1_555
O29_2 C8_2 1_555 1_555
O30_2 C9_2 1_555 1_555
C5_2 C10_2 1_555 1_555
C6_2 C11_2 1_555 1_555
C7_2 C12_2 1_555 1_555
C8_2 C13_2 1_555 1_555
C9_2 C14_2 1_555 1_555
C15_2 C20_2 1_555 1_555
C16_2 C21_2 1_555 1_555
N4 H34_2 1_555 1_555
N4 H35_2 1_555 1_555
Tb3 O11 1_555 1_555
O11 C17_2 1_555 1_555
O12 Tb3 1_555 1_555
O10 Tb3 1_555 1_555
O23_2 Tb3 1_555 1_555
O24_2 Tb3 1_555 1_555
O25_2 Tb3 1_555 1_555
C17_2 O23_2 1_555 1_555
C18_2 O12 1_555 1_555
C19_2 O10 1_555 1_555
H31_2 C22_2 1_555 1_555
H32_2 C23_2 1_555 1_555
H33_2 C24_2 1_555 1_555
O24_2 C18_2 1_555 1_555
O25_2 C19_2 1_555 1_555
C17_2 C22_2 1_555 1_555
C18_2 C23_2 1_555 1_555
C19_2 C24_2 1_555 1_555
N5 H38_2 1_555 1_555
N5 H39_2 1_555 1_555
N3 H38_3 1_555 1_555
N3 H39_3 1_555 1_555
N2 H34_3 1_555 1_555
N2 H35_3 1_555 1_555
N1 H36_3 1_555 1_555
N1 H37_3 1_555 1_555
N3_2 H38_4 1_555 1_555
N3_2 H39_4 1_555 1_555
N2_2 H34_4 1_555 1_555
N2_2 H35_4 1_555 1_555
N1_2 H36_4 1_555 1_555
N1_2 H37_4 1_555 1_555

#END
