
###############################################################################
#
# This file contains modified crystal structure data generated from the
# MOF subset of the Cambridge Structural Database (CSD) v543 
# hosted by the Cambridge Crystallographic Data Centre (CCDC).
#
# This work is licensed under the Creative Commons
# Attribution-NonCommercial-ShareAlike 4.0 International License.
# To view a copy of this license, visit
# http://creativecommons.org/licenses/by-nc-sa/4.0/
# or send a letter to
# Creative Commons, PO Box 1866, Mountain View, CA 94042, USA.
#
# CIF created using the CSD Python API on 29 September 2022
# The structure has been converted into the P1 space group
# The structure has a 3D framework
# The original CSD entry PAPRUU is in the trigonal crystal system
# The framework has been calculated to contain at least 10.0% void space
# The void calculation uses a probe of radius 1.32A, grid spacing 0.4
# H atom positions have been added when not included in the experimental data
#
###############################################################################

data_PAPRUU
_chemical_formula_moiety         '(C24 H42 La2 N6 Ni6 O24)n'
_symmetry_cell_setting           triclinic
_symmetry_space_group_name_H-M   'P 1'
_symmetry_Int_Tables_number      1
_space_group_name_Hall           'P 1'
loop_
_symmetry_equiv_pos_site_id
_symmetry_equiv_pos_as_xyz
1 x,y,z
_cell_length_a                   13.2539(19)
_cell_length_b                   13.2539(19)
_cell_length_c                   7.4881(15)
_cell_angle_alpha                90
_cell_angle_beta                 90
_cell_angle_gamma                120
_cell_volume                     1139.17
loop_
_atom_site_label
_atom_site_type_symbol
_atom_site_fract_x
_atom_site_fract_y
_atom_site_fract_z
Ni1 Ni 0.5000 0.0000 0.0000
H18 H 0.3545 0.0365 0.1611
O26 O 0.62027(15) 0.16222(16) 0.1105(3)
Ni1_2 Ni 0.5000 0.0000 1.0000
O18 O 0.47644(18) 0.08028(19) 0.7851(3)
N7 N 0.65014(19) 0.03210(18) 0.8695(3)
H36 H 0.719596 0.0774811 0.951248
H37 H 0.660031 0.0793694 0.757556
Ni1_3 Ni 0.5000 1.0000 0.0000
La2 La 0.3333 0.6667 0.66949(3)
Ni5 Ni -0.0000 0.5000 0.0000
Ni6 Ni 0.5000 0.5000 0.0000
O7 O 0.4342(2) 0.8239(2) 0.4605(3)
O8 O 0.1761(2) 0.6103(3) 0.4605(3)
O9 O 0.3897(3) 0.5658(2) 0.4605(3)
O15 O 0.52356(18) 0.91972(19) 0.2149(3)
O16 O 0.08028(19) 0.60384(26) 0.2149(3)
O17 O 0.39616(26) 0.47644(18) 0.2149(3)
C7 C 0.4396(2) 0.8798(2) 0.3234(3)
C8 C 0.1202(2) 0.5598(3) 0.3234(3)
C9 C 0.4402(3) 0.5604(2) 0.3234(3)
C12 C 0.3401(3) 0.9010(3) 0.2924(4)
C13 C 0.0990(3) 0.4391(4) 0.2924(4)
C14 C 0.5609(4) 0.6599(3) 0.2924(4)
H8 H 0.2688 0.8263 0.2853
H9 H 0.1737 0.4425 0.2853
H10 H 0.5575 0.7312 0.2853
H13 H 0.3335 0.9421 0.3948
H14 H 0.0579 0.3914 0.3948
H15 H 0.6086 0.6665 0.3948
N4 N 0.34986(19) 0.96790(18) 0.1305(3)
N5 N 0.03210(18) 0.38196(26) 0.1305(3)
N6 N 0.61804(26) 0.65014(19) 0.1305(3)
H20 H 0.6820 0.6455 0.1611
C17 C 0.2555(2) 0.9061(3) 0.0015(4)
C18 C 0.0939(3) 0.3494(4) 0.0015(4)
C19 C 0.6506(4) 0.7445(2) 0.0015(4)
H31 H 0.1837 0.8559 0.0649
H32 H 0.1441 0.3278 0.0649
H33 H 0.6722 0.8163 0.0649
O28 O 0.54195(22) 0.37973(15) 0.1105(3)
Ni1_4 Ni 0.5000 1.0000 1.0000
Ni5_2 Ni -0.0000 0.5000 1.0000
Ni6_2 Ni 0.5000 0.5000 1.0000
O20 O 0.60384(26) 0.52356(18) 0.7851(3)
N9 N 0.38196(26) 0.34986(19) 0.8695(3)
H21 H 0.6455 0.9635 0.8389
H22 H 0.0365 0.6820 0.8389
H23 H 0.3180 0.3545 0.8389
H26 H 0.2443 0.9621 0.9337
H27 H 0.0379 0.2822 0.9337
H28 H 0.7178 0.7557 0.9337
C22 C 0.2822(2) 0.8333(2) 0.8742(4)
C23 C 0.1667(2) 0.4489(3) 0.8742(4)
C24 C 0.5511(3) 0.7178(2) 0.8742(4)
O23 O 0.37973(15) 0.83778(16) 0.8895(3)
O24 O 0.16222(16) 0.54195(22) 0.8895(3)
O25 O 0.45805(22) 0.62027(15) 0.8895(3)
O31 O 0.20988(16) 0.77115(17) 0.7606(3)
O32 O 0.22885(17) 0.43873(23) 0.7606(3)
O33 O 0.56127(23) 0.79012(16) 0.7606(3)
H38 H 0.357885 0.280404 0.951248
H39 H 0.419338 0.339969 0.757556
Ni5_3 Ni 1.0000 0.5000 0.0000
H19 H 0.9635 0.3180 0.1611
O27 O 0.83778(16) 0.45805(22) 0.1105(3)
Ni5_4 Ni 1.0000 0.5000 1.0000
O19 O 0.91972(19) 0.39616(26) 0.7851(3)
N8 N 0.96790(18) 0.61804(26) 0.8695(3)
H34 H 0.922519 0.642115 0.951248
H35 H 0.920631 0.580662 0.757556
H34_2 H 0.0774811 0.357885 0.0487522
H35_2 H 0.0793694 0.419338 0.242444
H4 H 0.7557 0.0379 0.0663
C4 C 0.7178(2) 0.1667(2) 0.1258(4)
O4 O 0.79012(16) 0.22885(17) 0.2394(3)
La3 La 0.6667 0.3333 0.33051(3)
O10 O 0.5658(2) 0.1761(2) 0.5395(3)
O11 O 0.8239(2) 0.3897(3) 0.5395(3)
O12 O 0.6103(3) 0.4342(2) 0.5395(3)
H24 H 0.9621 0.7178 0.0663
H25 H 0.2822 0.2443 0.0663
C20 C 0.8333(2) 0.5511(3) 0.1258(4)
C21 C 0.4489(3) 0.2822(2) 0.1258(4)
O29 O 0.77115(17) 0.56127(23) 0.2394(3)
O30 O 0.43873(23) 0.20988(16) 0.2394(3)
C1 C 0.5604(2) 0.1202(2) 0.6766(3)
C2 C 0.6599(3) 0.0990(3) 0.7076(4)
H1 H 0.7312 0.1737 0.7147
H2 H 0.6665 0.0579 0.6052
C3 C 0.7445(2) 0.0939(3) 0.9985(4)
H5 H 0.8163 0.1441 0.9351
C5 C 0.8798(2) 0.4402(3) 0.6766(3)
C6 C 0.5598(3) 0.4396(2) 0.6766(3)
C10 C 0.9010(3) 0.5609(4) 0.7076(4)
C11 C 0.4391(4) 0.3401(3) 0.7076(4)
H6 H 0.8263 0.5575 0.7147
H7 H 0.4425 0.2688 0.7147
H11 H 0.9421 0.6086 0.6052
H12 H 0.3914 0.3335 0.6052
C15 C 0.9061(3) 0.6506(4) 0.9985(4)
C16 C 0.3494(4) 0.2555(2) 0.9985(4)
H29 H 0.8559 0.6722 0.9351
H30 H 0.3278 0.1837 0.9351
H38_2 H 0.642115 0.719596 0.0487522
H39_2 H 0.580662 0.660031 0.242444
H36_2 H 0.280404 0.922519 0.0487522
H37_2 H 0.339969 0.920631 0.242444
loop_
_geom_bond_atom_site_label_1
_geom_bond_atom_site_label_2
_geom_bond_site_symmetry_1
_geom_bond_site_symmetry_2
O26 Ni1 1_555 1_555
O18 Ni1_2 1_555 1_555
N7 Ni1_2 1_555 1_555
N7 H36 1_555 1_555
N7 H37 1_555 1_555
Ni1_3 O15 1_555 1_555
La2 O7 1_555 1_555
Ni5 O16 1_555 1_555
Ni6 O17 1_555 1_555
O7 C7 1_555 1_555
O8 La2 1_555 1_555
O9 La2 1_555 1_555
O15 C7 1_555 1_555
O16 C8 1_555 1_555
O17 C9 1_555 1_555
C7 C12 1_555 1_555
C8 O8 1_555 1_555
C9 O9 1_555 1_555
C12 H8 1_555 1_555
C13 C8 1_555 1_555
C14 C9 1_555 1_555
H9 C13 1_555 1_555
H10 C14 1_555 1_555
H13 C12 1_555 1_555
H14 C13 1_555 1_555
H15 C14 1_555 1_555
N4 Ni1_3 1_555 1_555
N5 Ni5 1_555 1_555
N6 Ni6 1_555 1_555
H20 N6 1_555 1_555
C17 N4 1_555 1_555
C18 N5 1_555 1_555
C19 N6 1_555 1_555
H31 C17 1_555 1_555
H32 C18 1_555 1_555
H33 C19 1_555 1_555
O28 Ni6 1_555 1_555
C12 N4 1_555 1_555
C13 N5 1_555 1_555
C14 N6 1_555 1_555
O20 Ni6_2 1_555 1_555
N9 Ni6_2 1_555 1_555
H23 N9 1_555 1_555
O23 La2 1_555 1_555
O24 La2 1_555 1_555
O25 La2 1_555 1_555
O31 La2 1_555 1_555
O32 La2 1_555 1_555
O33 La2 1_555 1_555
Ni1_4 O23 1_555 1_555
Ni5_2 O24 1_555 1_555
Ni6_2 O25 1_555 1_555
C22 O23 1_555 1_555
C22 O31 1_555 1_555
C23 O24 1_555 1_555
C23 O32 1_555 1_555
C24 O25 1_555 1_555
C24 O33 1_555 1_555
N9 H38 1_555 1_555
N9 H39 1_555 1_555
O27 Ni5_3 1_555 1_555
O19 Ni5_4 1_555 1_555
N8 Ni5_4 1_555 1_555
N8 H34 1_555 1_555
N8 H35 1_555 1_555
N5 H34_2 1_555 1_555
N5 H35_2 1_555 1_555
O26 C4 1_555 1_555
O4 C4 1_555 1_555
La3 O26 1_555 1_555
O10 La3 1_555 1_555
O11 La3 1_555 1_555
O12 La3 1_555 1_555
O27 La3 1_555 1_555
O28 La3 1_555 1_555
O29 La3 1_555 1_555
O30 La3 1_555 1_555
O4 La3 1_555 1_555
C20 O27 1_555 1_555
C20 O29 1_555 1_555
C21 O28 1_555 1_555
C21 O30 1_555 1_555
O10 C1 1_555 1_555
O18 C1 1_555 1_555
C1 C2 1_555 1_555
C2 H1 1_555 1_555
H2 C2 1_555 1_555
N7 C2 1_555 1_555
C3 N7 1_555 1_555
H5 C3 1_555 1_555
O19 C5 1_555 1_555
O20 C6 1_555 1_555
C5 O11 1_555 1_555
C6 O12 1_555 1_555
C10 C5 1_555 1_555
C11 C6 1_555 1_555
H6 C10 1_555 1_555
H7 C11 1_555 1_555
H11 C10 1_555 1_555
H12 C11 1_555 1_555
C15 N8 1_555 1_555
C16 N9 1_555 1_555
H29 C15 1_555 1_555
H30 C16 1_555 1_555
C10 N8 1_555 1_555
C11 N9 1_555 1_555
N6 H38_2 1_555 1_555
N6 H39_2 1_555 1_555
N4 H36_2 1_555 1_555
N4 H37_2 1_555 1_555

#END
