
###############################################################################
#
# This file contains modified crystal structure data generated from the
# MOF subset of the Cambridge Structural Database (CSD) v543 
# hosted by the Cambridge Crystallographic Data Centre (CCDC).
#
# This work is licensed under the Creative Commons
# Attribution-NonCommercial-ShareAlike 4.0 International License.
# To view a copy of this license, visit
# http://creativecommons.org/licenses/by-nc-sa/4.0/
# or send a letter to
# Creative Commons, PO Box 1866, Mountain View, CA 94042, USA.
#
# CIF created using the CSD Python API on 29 September 2022
# The structure has been converted into the P1 space group
# The structure has a 3D framework
# The original CSD entry PAPZAJ is in the triclinic crystal system
# The framework has been calculated to contain at least 10.0% void space
# The void calculation uses a probe of radius 1.32A, grid spacing 0.4
# H atom positions have been added when not included in the experimental data
# Generated hydrogen atom positions removed from atoms on special positions
#
###############################################################################

data_PAPZAJ
_chemical_formula_moiety         '(C38 H59 N24 O33 S2 U4)n'
_symmetry_cell_setting           triclinic
_symmetry_space_group_name_H-M   'P 1'
_symmetry_Int_Tables_number      1
_space_group_name_Hall           'P 1'
loop_
_symmetry_equiv_pos_site_id
_symmetry_equiv_pos_as_xyz
1 x,y,z
_cell_length_a                   12.0599(5)
_cell_length_b                   12.2791(5)
_cell_length_c                   12.9380(6)
_cell_angle_alpha                68.730(2)
_cell_angle_beta                 78.639(3)
_cell_angle_gamma                75.692(3)
_cell_volume                     1717.76
loop_
_atom_site_label
_atom_site_type_symbol
_atom_site_fract_x
_atom_site_fract_y
_atom_site_fract_z
_atom_site_U_iso_or_equiv
_atom_site_thermal_displace_type
U1 U 0.043410(12) 0.008647(13) 0.846531(12) 0.0179 Uani
S1 S 0.12325(9) 0.06863(9) 0.54694(9) 0.0176 Uani
O2 O 0.1456(3) 0.1019(3) 0.8232(3) 0.0224 Uani
O4 O 0.0285(3) 0.3587(3) 0.6986(3) 0.0239 Uani
O6 O 0.1132(3) 0.1918(3) 0.5417(3) 0.0223 Uani
O7 O 0.2233(3) 0.0270(3) 0.4794(3) 0.0252 Uani
H25 H 0.4225 0.0018 0.6820 0.0260 Uiso
U7 U 0.041577(13) 0.650108(12) 0.405943(13) 0.0178 Uani
O18 O 0.0545(3) 0.0846(3) 0.1405(3) 0.0260 Uani
O29 O 0.1020(3) 0.4413(3) 0.4640(3) 0.0219 Uani
O9 O 0.0804(3) 0.9080(3) 0.0306(3) 0.0334 Uani
O16 O 0.1937(3) 0.3855(3) 0.2656(3) 0.0281 Uani
O17 O 0.5852(3) 0.1194(3) 0.0149(3) 0.0344 Uani
N9 N 0.2321(3) 0.2684(3) 0.1534(3) 0.0234 Uani
N10 N 0.3369(3) 0.2168(3) 0.2919(3) 0.0222 Uani
N11 N 0.4935(3) 0.1106(3) 0.1918(3) 0.0219 Uani
N12 N 0.3859(3) 0.1575(3) 0.0541(3) 0.0245 Uani
C12 C 0.1377(4) 0.3310(4) 0.0875(4) 0.0227 Uani
H16 H 0.0849 0.3834 0.1238 0.0280 Uiso
H17 H 0.0963 0.2734 0.0858 0.0280 Uiso
C14 C 0.2486(4) 0.2998(4) 0.2390(4) 0.0213 Uani
C15 C 0.3019(4) 0.1535(4) 0.1517(4) 0.0200 Uani
H20 H 0.2539 0.0948 0.1654 0.0240 Uiso
C16 C 0.3762(3) 0.1191(4) 0.2477(4) 0.0201 Uani
H21 H 0.3643 0.0432 0.3048 0.0240 Uiso
C17 C 0.4973(4) 0.1295(4) 0.0799(4) 0.0226 Uani
O33 O 0.7935(2) 0.1680(3) 0.1453(3) 0.0204 Uani
O35 O 0.3983(3) 0.4421(3) 0.3962(3) 0.0258 Uani
O36 O 0.8967(3) 0.4139(3) 0.0048(3) 0.0259 Uani
O37 O 0.5067(3) 0.6883(3) 0.2332(3) 0.0317 Uani
N13 N 0.6342(3) 0.1492(3) 0.2782(3) 0.0207 Uani
N14 N 0.7480(3) 0.2695(3) 0.2714(3) 0.0193 Uani
N15 N 0.5946(3) 0.3706(3) 0.3795(3) 0.0205 Uani
N16 N 0.4780(3) 0.2603(3) 0.3727(3) 0.0218 Uani
N17 N 0.8435(3) 0.4386(3) 0.1777(3) 0.0194 Uani
N18 N 0.8270(3) 0.5988(3) 0.0270(3) 0.0232 Uani
N19 N 0.6809(3) 0.7151(3) 0.1241(3) 0.0243 Uani
N20 N 0.6721(3) 0.5449(3) 0.2631(3) 0.0222 Uani
C21 C 0.7305(4) 0.1934(4) 0.2245(4) 0.0194 Uani
C22 C 0.5884(3) 0.1822(4) 0.3803(4) 0.0192 Uani
H37 H 0.5891 0.1123 0.4481 0.0230 Uiso
C23 C 0.6712(3) 0.2615(3) 0.3778(4) 0.0206 Uani
H38 H 0.7148 0.2265 0.4425 0.0250 Uiso
C24 C 0.4820(4) 0.3655(4) 0.3832(4) 0.0208 Uani
C25 C 0.8543(4) 0.3145(4) 0.2450(4) 0.0197 Uani
H39 H 0.9116 0.2678 0.2057 0.0230 Uiso
H40 H 0.8823 0.3030 0.3142 0.0230 Uiso
C26 C 0.6308(4) 0.4760(4) 0.3754(4) 0.0224 Uani
H41 H 0.5665 0.5257 0.4051 0.0270 Uiso
H42 H 0.6917 0.4526 0.4227 0.0270 Uiso
C27 C 0.8581(4) 0.4775(4) 0.0635(4) 0.0216 Uani
C28 C 0.7953(4) 0.5349(4) 0.2230(4) 0.0204 Uani
H43 H 0.8405 0.5336 0.2788 0.0240 Uiso
C29 C 0.7974(4) 0.6482(4) 0.1178(4) 0.0226 Uani
H44 H 0.8542 0.6933 0.1176 0.0270 Uiso
C30 C 0.6090(4) 0.6526(4) 0.2085(4) 0.0249 Uani
C32 C 0.6421(5) 0.8346(4) 0.0519(4) 0.0283 Uani
H47 H 0.7017 0.8802 0.0383 0.0340 Uiso
H48 H 0.5744 0.8713 0.0906 0.0340 Uiso
C37 C 0.3712(4) 0.2175(4) 0.3931(4) 0.0226 Uani
H51 H 0.3105 0.2678 0.4259 0.0270 Uiso
H52 H 0.3804 0.1373 0.4464 0.0270 Uiso
C38 C 0.5945(4) 0.0621(4) 0.2499(4) 0.0219 Uani
H53 H 0.6562 0.0281 0.2035 0.0260 Uiso
O5 O 0.1160(3) 0.9872(3) 0.6632(3) 0.0233 Uani
O12 O 0.2065(2) 0.8320(3) 0.8547(3) 0.0204 Uani
O13 O 0.6017(3) 0.5579(3) 0.6038(3) 0.0258 Uani
O14 O 0.1033(3) 0.5861(3) 0.9952(3) 0.0259 Uani
O15 O 0.4933(3) 0.3117(3) 0.7668(3) 0.0317 Uani
N1 N 0.3658(3) 0.8508(3) 0.7218(3) 0.0207 Uani
N2 N 0.2520(3) 0.7305(3) 0.7286(3) 0.0193 Uani
N3 N 0.4054(3) 0.6294(3) 0.6205(3) 0.0205 Uani
N4 N 0.5220(3) 0.7397(3) 0.6273(3) 0.0218 Uani
N5 N 0.1565(3) 0.5614(3) 0.8223(3) 0.0194 Uani
N6 N 0.1730(3) 0.4012(3) 0.9730(3) 0.0232 Uani
N7 N 0.3191(3) 0.2849(3) 0.8759(3) 0.0243 Uani
N8 N 0.3279(3) 0.4551(3) 0.7369(3) 0.0222 Uani
C2 C 0.2695(4) 0.8066(4) 0.7755(4) 0.0194 Uani
C3 C 0.4116(3) 0.8178(4) 0.6197(4) 0.0192 Uani
H8 H 0.4109 0.8877 0.5519 0.0230 Uiso
C4 C 0.3288(3) 0.7385(3) 0.6222(4) 0.0206 Uani
H9 H 0.2852 0.7735 0.5575 0.0250 Uiso
C5 C 0.5180(4) 0.6345(4) 0.6168(4) 0.0208 Uani
C6 C 0.1457(4) 0.6855(4) 0.7550(4) 0.0197 Uani
H10 H 0.0884 0.7322 0.7943 0.0230 Uiso
H11 H 0.1177 0.6970 0.6858 0.0230 Uiso
C7 C 0.3692(4) 0.5240(4) 0.6246(4) 0.0224 Uani
H12 H 0.4335 0.4743 0.5949 0.0270 Uiso
H13 H 0.3083 0.5474 0.5773 0.0270 Uiso
C8 C 0.1419(4) 0.5225(4) 0.9365(4) 0.0216 Uani
C9 C 0.2047(4) 0.4651(4) 0.7770(4) 0.0204 Uani
H14 H 0.1595 0.4664 0.7212 0.0240 Uiso
C10 C 0.2026(4) 0.3518(4) 0.8822(4) 0.0226 Uani
H15 H 0.1458 0.3067 0.8824 0.0270 Uiso
C11 C 0.3910(4) 0.3474(4) 0.7915(4) 0.0249 Uani
C13 C 0.3579(5) 0.1654(4) 0.9481(4) 0.0283 Uani
H18 H 0.2983 0.1198 0.9617 0.0340 Uiso
H19 H 0.4256 0.1287 0.9094 0.0340 Uiso
C18 C 0.6288(4) 0.7825(4) 0.6069(4) 0.0226 Uani
H22 H 0.6895 0.7322 0.5741 0.0270 Uiso
H23 H 0.6196 0.8627 0.5536 0.0270 Uiso
C19 C 0.4055(4) 0.9379(4) 0.7501(4) 0.0219 Uani
H24 H 0.3438 0.9719 0.7965 0.0260 Uiso
O20 O 0.1134(3) 0.6585(3) 0.5105(3) 0.0226 Uani
O25 O 0.0703(2) 0.8372(3) 0.2770(3) 0.0198 Uani
H26 H 0.1437 0.8513 0.2779 0.0240 Uiso
O32 O 0.2302(3) 0.6184(3) 0.3030(3) 0.0257 Uani
H33 H 0.2795 0.5607 0.3225 0.0310 Uiso
H34 H 0.2058 0.6396 0.2339 0.0310 Uiso
O38 O 0.8063(3) 0.6145(3) 0.7344(3) 0.0281 Uani
O39 O 0.4148(3) 0.8806(3) 0.9851(3) 0.0344 Uani
N21 N 0.7679(3) 0.7316(3) 0.8466(3) 0.0234 Uani
N22 N 0.6631(3) 0.7832(3) 0.7081(3) 0.0222 Uani
N23 N 0.5065(3) 0.8894(3) 0.8082(3) 0.0219 Uani
N24 N 0.6141(3) 0.8425(3) 0.9459(3) 0.0245 Uani
C20 C 0.0007(4) 0.9360(4) 0.5044(4) 0.0203 Uani
H35 H 0.0696 0.9072 0.4613 0.0240 Uiso
H36 H 0.0017 0.8847 0.5817 0.0240 Uiso
C31 C 0.8623(4) 0.6690(4) 0.9125(4) 0.0227 Uani
H45 H 0.9151 0.6166 0.8762 0.0280 Uiso
H46 H 0.9037 0.7266 0.9142 0.0280 Uiso
C33 C 0.7514(4) 0.7002(4) 0.7610(4) 0.0213 Uani
C34 C 0.6981(4) 0.8465(4) 0.8483(4) 0.0200 Uani
H49 H 0.7461 0.9052 0.8346 0.0240 Uiso
C35 C 0.6238(3) 0.8809(4) 0.7523(4) 0.0201 Uani
H50 H 0.6357 0.9568 0.6952 0.0240 Uiso
C36 C 0.5027(4) 0.8705(4) 0.9201(4) 0.0226 Uani
H57 H 0.0646186 0.63796 0.583642 . .
H58 H 0.188266 0.601582 0.51599 . .
U5 U 0.956590(12) 0.991353(13) 0.153469(12) 0.0179 Uani
H54 H 0.5775 0.9982 0.3180 0.0260 Uiso
U2 U 0.958423(13) 0.349892(12) 0.594057(13) 0.0178 Uani
O3 O 0.8866(3) 0.3415(3) 0.4895(3) 0.0226 Uani
O8 O 0.9297(2) 0.1628(3) 0.7230(3) 0.0198 Uani
H1 H 0.8563 0.1487 0.7221 0.0240 Uiso
O10 O 0.8980(3) 0.5587(3) 0.5360(3) 0.0219 Uani
O11 O 0.7698(3) 0.3816(3) 0.6970(3) 0.0257 Uani
H4 H 0.7205 0.4393 0.6775 0.0310 Uiso
H5 H 0.7942 0.3604 0.7661 0.0310 Uiso
C1 C 0.9993(4) 0.0640(4) 0.4956(4) 0.0203 Uani
H6 H 0.9304 0.0928 0.5387 0.0240 Uiso
H7 H 0.9983 0.1153 0.4183 0.0240 Uiso
O22 O 0.8840(3) 0.0128(3) 0.3368(3) 0.0233 Uani
O26 O 0.9196(3) 0.0920(3) 0.9694(3) 0.0334 Uani
O1 O 0.9455(3) 0.9154(3) 0.8595(3) 0.0260 Uani
S2 S 0.87675(9) 0.93137(9) 0.45306(9) 0.0176 Uani
O19 O 0.8544(3) 0.8981(3) 0.1768(3) 0.0224 Uani
O21 O 0.9715(3) 0.6413(3) 0.3014(3) 0.0239 Uani
O23 O 0.8868(3) 0.8082(3) 0.4583(3) 0.0223 Uani
O24 O 0.7767(3) 0.9730(3) 0.5206(3) 0.0252 Uani
H57_2 H 0.935381 0.36204 0.416358 . .
H58_2 H 0.811734 0.398418 0.48401 . .
loop_
_atom_site_aniso_label
_atom_site_aniso_U_11
_atom_site_aniso_U_22
_atom_site_aniso_U_33
_atom_site_aniso_U_23
_atom_site_aniso_U_13
_atom_site_aniso_U_12
U1 0.01852 0.01566 0.0164 -0.00431 -0.00034 -0.00085
S1 0.0182 0.0168 0.0176 -0.0062 -0.0023 -0.0021
O2 0.0234 0.0173 0.0268 -0.0066 -0.0077 -0.0016
O4 0.0282 0.022 0.0224 -0.0043 -0.0098 -0.0057
O6 0.0205 0.0174 0.0305 -0.0121 0.0001 -0.0024
O7 0.0234 0.0239 0.0267 -0.0121 0.005 -0.0025
U7 0.01936 0.01487 0.01853 -0.00506 -0.00348 -0.00183
O18 0.0201 0.0171 0.0357 -0.0025 -0.0035 -0.0037
O29 0.0248 0.0178 0.0218 -0.0088 0.0004 -0.0011
O9 0.043 0.0266 0.0153 -0.0049 -0.0003 0.0147
O16 0.0305 0.0245 0.0264 -0.0111 -0.0041 0.0047
O17 0.0291 0.043 0.021 -0.0083 0.0031 0.0029
N9 0.0205 0.0213 0.028 -0.0106 -0.0067 0.0033
N10 0.0236 0.0238 0.02 -0.0088 -0.0045 -0.002
N11 0.0198 0.0261 0.0182 -0.0072 -0.001 -0.0025
N12 0.0247 0.0245 0.022 -0.0063 -0.0037 -0.002
C12 0.0188 0.023 0.025 -0.0078 -0.0023 -0.002
C14 0.0212 0.0204 0.021 -0.0052 0.0001 -0.0063
C15 0.0193 0.0173 0.023 -0.0061 -0.0048 -0.0016
C16 0.0175 0.0188 0.021 -0.0055 0.0008 -0.002
C17 0.022 0.0171 0.025 -0.0078 -0.0037 0.0048
O33 0.0188 0.0187 0.0215 -0.0068 -0.0036 0.0014
O35 0.021 0.025 0.029 -0.0109 -0.0049 0.0043
O36 0.0313 0.0212 0.0246 -0.0097 -0.004 -0.0001
O37 0.0255 0.0305 0.035 -0.0104 -0.007 0.0037
N13 0.0174 0.0224 0.0235 -0.0117 0.0012 -0.0023
N14 0.0172 0.018 0.0241 -0.0095 -0.0005 -0.0033
N15 0.0177 0.0195 0.026 -0.0106 -0.0027 -0.002
N16 0.0168 0.0215 0.028 -0.0113 -0.0023 -0.0006
N17 0.0243 0.0144 0.0178 -0.0049 -0.0022 -0.0018
N18 0.0265 0.0187 0.023 -0.0069 -0.0006 -0.0037
N19 0.0293 0.019 0.023 -0.009 -0.0038 0.0021
N20 0.0214 0.0209 0.0231 -0.0094 -0.0026 0.0015
C21 0.0183 0.0153 0.021 -0.0055 -0.0013 0.0016
C22 0.018 0.0149 0.021 -0.0051 -0.0057 0.0049
C23 0.0181 0.0122 0.026 -0.0023 -0.0078 0.005
C24 0.0195 0.024 0.019 -0.0081 -0.004 -0.0016
C25 0.0209 0.0166 0.021 -0.0066 -0.0025 -0.002
C26 0.023 0.023 0.023 -0.0114 -0.0031 -0.0016
C27 0.0199 0.0197 0.025 -0.0069 -0.004 -0.0034
C28 0.0197 0.0201 0.023 -0.0096 -0.0039 -0.0018
C29 0.027 0.018 0.023 -0.0071 -0.0056 -0.0023
C30 0.028 0.024 0.025 -0.0109 -0.0063 -0.0025
C32 0.039 0.02 0.024 -0.0082 -0.0082 0.0024
C37 0.0197 0.031 0.017 -0.01 0.0038 -0.0061
C38 0.0177 0.022 0.027 -0.0112 -0.0015 -0.0019
O5 0.028 0.0195 0.0197 -0.007 -0.006 0.0036
O12 0.0188 0.0187 0.0215 -0.0068 -0.0036 0.0014
O13 0.021 0.025 0.029 -0.0109 -0.0049 0.0043
O14 0.0313 0.0212 0.0246 -0.0097 -0.004 -0.0001
O15 0.0255 0.0305 0.035 -0.0104 -0.007 0.0037
N1 0.0174 0.0224 0.0235 -0.0117 0.0012 -0.0023
N2 0.0172 0.018 0.0241 -0.0095 -0.0005 -0.0033
N3 0.0177 0.0195 0.026 -0.0106 -0.0027 -0.002
N4 0.0168 0.0215 0.028 -0.0113 -0.0023 -0.0006
N5 0.0243 0.0144 0.0178 -0.0049 -0.0022 -0.0018
N6 0.0265 0.0187 0.023 -0.0069 -0.0006 -0.0037
N7 0.0293 0.019 0.023 -0.009 -0.0038 0.0021
N8 0.0214 0.0209 0.0231 -0.0094 -0.0026 0.0015
C2 0.0183 0.0153 0.021 -0.0055 -0.0013 0.0016
C3 0.018 0.0149 0.021 -0.0051 -0.0057 0.0049
C4 0.0181 0.0122 0.026 -0.0023 -0.0078 0.005
C5 0.0195 0.024 0.019 -0.0081 -0.004 -0.0016
C6 0.0209 0.0166 0.021 -0.0066 -0.0025 -0.002
C7 0.023 0.023 0.023 -0.0114 -0.0031 -0.0016
C8 0.0199 0.0197 0.025 -0.0069 -0.004 -0.0034
C9 0.0197 0.0201 0.023 -0.0096 -0.0039 -0.0018
C10 0.027 0.018 0.023 -0.0071 -0.0056 -0.0023
C11 0.028 0.024 0.025 -0.0109 -0.0063 -0.0025
C13 0.039 0.02 0.024 -0.0082 -0.0082 0.0024
C18 0.0197 0.031 0.017 -0.01 0.0038 -0.0061
C19 0.0177 0.022 0.027 -0.0112 -0.0015 -0.0019
O20 0.0232 0.0231 0.0225 -0.0096 -0.006 -0.0003
O25 0.0183 0.017 0.0217 -0.0034 -0.0037 -0.0028
O32 0.0243 0.0191 0.0272 -0.0037 -0.0048 0.0027
O38 0.0305 0.0245 0.0264 -0.0111 -0.0041 0.0047
O39 0.0291 0.043 0.021 -0.0083 0.0031 0.0029
N21 0.0205 0.0213 0.028 -0.0106 -0.0067 0.0033
N22 0.0236 0.0238 0.02 -0.0088 -0.0045 -0.002
N23 0.0198 0.0261 0.0182 -0.0072 -0.001 -0.0025
N24 0.0247 0.0245 0.022 -0.0063 -0.0037 -0.002
C20 0.024 0.0169 0.022 -0.0075 -0.0087 -0.0011
C31 0.0188 0.023 0.025 -0.0078 -0.0023 -0.002
C33 0.0212 0.0204 0.021 -0.0052 0.0001 -0.0063
C34 0.0193 0.0173 0.023 -0.0061 -0.0048 -0.0016
C35 0.0175 0.0188 0.021 -0.0055 0.0008 -0.002
C36 0.022 0.0171 0.025 -0.0078 -0.0037 0.0048
U5 0.01852 0.01566 0.0164 -0.00431 -0.00034 -0.00085
U2 0.01936 0.01487 0.01853 -0.00506 -0.00348 -0.00183
O3 0.0232 0.0231 0.0225 -0.0096 -0.006 -0.0003
O8 0.0183 0.017 0.0217 -0.0034 -0.0037 -0.0028
O10 0.0248 0.0178 0.0218 -0.0088 0.0004 -0.0011
O11 0.0243 0.0191 0.0272 -0.0037 -0.0048 0.0027
C1 0.024 0.0169 0.022 -0.0075 -0.0087 -0.0011
O22 0.028 0.0195 0.0197 -0.007 -0.006 0.0036
O26 0.043 0.0266 0.0153 -0.0049 -0.0003 0.0147
O1 0.0201 0.0171 0.0357 -0.0025 -0.0035 -0.0037
S2 0.0182 0.0168 0.0176 -0.0062 -0.0023 -0.0021
O19 0.0234 0.0173 0.0268 -0.0066 -0.0077 -0.0016
O21 0.0282 0.022 0.0224 -0.0043 -0.0098 -0.0057
O23 0.0205 0.0174 0.0305 -0.0121 0.0001 -0.0024
O24 0.0234 0.0239 0.0267 -0.0121 0.005 -0.0025
loop_
_geom_bond_atom_site_label_1
_geom_bond_atom_site_label_2
_geom_bond_site_symmetry_1
_geom_bond_site_symmetry_2
O2 U1 1_555 1_555
O7 S1 1_555 1_555
S1 O6 1_555 1_555
U7 O29 1_555 1_555
O16 C14 1_555 1_555
O17 C17 1_555 1_555
N9 C12 1_555 1_555
N10 C14 1_555 1_555
N11 C16 1_555 1_555
H16 C12 1_555 1_555
H17 C12 1_555 1_555
C14 N9 1_555 1_555
C15 N9 1_555 1_555
H20 C15 1_555 1_555
C16 N10 1_555 1_555
H21 C16 1_555 1_555
C17 N11 1_555 1_555
O33 C21 1_555 1_555
O35 C24 1_555 1_555
O36 C27 1_555 1_555
O37 C30 1_555 1_555
N13 C21 1_555 1_555
N14 C21 1_555 1_555
N15 C23 1_555 1_555
N16 C22 1_555 1_555
N17 C25 1_555 1_555
N18 C27 1_555 1_555
N19 C29 1_555 1_555
N20 C26 1_555 1_555
C22 N13 1_555 1_555
H37 C22 1_555 1_555
C23 N14 1_555 1_555
H38 C23 1_555 1_555
C24 N15 1_555 1_555
C25 N14 1_555 1_555
H39 C25 1_555 1_555
H40 C25 1_555 1_555
C26 N15 1_555 1_555
H41 C26 1_555 1_555
H42 C26 1_555 1_555
C27 N17 1_555 1_555
C28 N17 1_555 1_555
H43 C28 1_555 1_555
C29 N18 1_555 1_555
H44 C29 1_555 1_555
C30 N19 1_555 1_555
C32 N19 1_555 1_555
H47 C32 1_555 1_555
H48 C32 1_555 1_555
C37 N10 1_555 1_555
H51 C37 1_555 1_555
H52 C37 1_555 1_555
C38 N11 1_555 1_555
H53 C38 1_555 1_555
N12 C15 1_555 1_555
N12 C17 1_555 1_555
C15 C16 1_555 1_555
N13 C38 1_555 1_555
N16 C24 1_555 1_555
N16 C37 1_555 1_555
N20 C28 1_555 1_555
N20 C30 1_555 1_555
C22 C23 1_555 1_555
C28 C29 1_555 1_555
O13 C5 1_555 1_555
O14 C8 1_555 1_555
O15 C11 1_555 1_555
N1 C2 1_555 1_555
N2 C2 1_555 1_555
N3 C4 1_555 1_555
N4 C3 1_555 1_555
N5 C6 1_555 1_555
N6 C8 1_555 1_555
N7 C10 1_555 1_555
N8 C7 1_555 1_555
C2 O12 1_555 1_555
C3 N1 1_555 1_555
H8 C3 1_555 1_555
C4 N2 1_555 1_555
H9 C4 1_555 1_555
C5 N3 1_555 1_555
C6 N2 1_555 1_555
H10 C6 1_555 1_555
H11 C6 1_555 1_555
C7 N3 1_555 1_555
H12 C7 1_555 1_555
H13 C7 1_555 1_555
C8 N5 1_555 1_555
C9 N5 1_555 1_555
H14 C9 1_555 1_555
C10 N6 1_555 1_555
H15 C10 1_555 1_555
C11 N7 1_555 1_555
C13 N7 1_555 1_555
H18 C13 1_555 1_555
H19 C13 1_555 1_555
C18 N4 1_555 1_555
H22 C18 1_555 1_555
H23 C18 1_555 1_555
C19 N1 1_555 1_555
H24 C19 1_555 1_555
U7 O20 1_555 1_555
H26 O25 1_555 1_555
O32 U7 1_555 1_555
H33 O32 1_555 1_555
H34 O32 1_555 1_555
O38 C33 1_555 1_555
O39 C36 1_555 1_555
N21 C31 1_555 1_555
N22 C18 1_555 1_555
N23 C19 1_555 1_555
H35 C20 1_555 1_555
H36 C20 1_555 1_555
H45 C31 1_555 1_555
H46 C31 1_555 1_555
C33 N21 1_555 1_555
C34 N21 1_555 1_555
H49 C34 1_555 1_555
C35 N22 1_555 1_555
H50 C35 1_555 1_555
C36 N23 1_555 1_555
N4 C5 1_555 1_555
N8 C9 1_555 1_555
N8 C11 1_555 1_555
C3 C4 1_555 1_555
C9 C10 1_555 1_555
U7 O25 1_555 1_555
N22 C33 1_555 1_555
N23 C35 1_555 1_555
N24 C34 1_555 1_555
N24 C36 1_555 1_555
C34 C35 1_555 1_555
O20 H57 1_555 1_555
O20 H58 1_555 1_555
U2 O3 1_555 1_555
H1 O8 1_555 1_555
O10 U2 1_555 1_555
O11 U2 1_555 1_555
H4 O11 1_555 1_555
H5 O11 1_555 1_555
H6 C1 1_555 1_555
H7 C1 1_555 1_555
U2 O8 1_555 1_555
O19 U5 1_555 1_555
O24 S2 1_555 1_555
S2 O23 1_555 1_555
O3 H57_2 1_555 1_555
O3 H58_2 1_555 1_555

#END
