
###############################################################################
#
# This file contains modified crystal structure data generated from the
# MOF subset of the Cambridge Structural Database (CSD) v543 
# hosted by the Cambridge Crystallographic Data Centre (CCDC).
#
# This work is licensed under the Creative Commons
# Attribution-NonCommercial-ShareAlike 4.0 International License.
# To view a copy of this license, visit
# http://creativecommons.org/licenses/by-nc-sa/4.0/
# or send a letter to
# Creative Commons, PO Box 1866, Mountain View, CA 94042, USA.
#
# CIF created using the CSD Python API on 29 September 2022
# The structure has been converted into the P1 space group
# The structure has a 3D framework
# The original CSD entry PAQFIY is in the orthorhombic crystal system
# The framework has been calculated to contain at least 10.0% void space
# The void calculation uses a probe of radius 1.32A, grid spacing 0.4
# The framework is charged, counterions have been retained in the structure
#
###############################################################################

data_PAQFIY
_chemical_formula_moiety         '(C96 H80 Cd8 N16 O24 S16)n'
_symmetry_cell_setting           triclinic
_symmetry_space_group_name_H-M   'P 1'
_symmetry_Int_Tables_number      1
_space_group_name_Hall           'P 1'
loop_
_symmetry_equiv_pos_site_id
_symmetry_equiv_pos_as_xyz
1 x,y,z
_cell_length_a                   14.9328(10)
_cell_length_b                   21.2840(14)
_cell_length_c                   10.4079(7)
_cell_angle_alpha                90
_cell_angle_beta                 90
_cell_angle_gamma                90
_cell_volume                     3307.94
loop_
_atom_site_label
_atom_site_type_symbol
_atom_site_fract_x
_atom_site_fract_y
_atom_site_fract_z
N2 N 0.0189(3) 0.3203(2) 0.3527(5)
C6 C 0.0454(5) 0.3788(3) 0.3839(6)
H5 H 0.0468 0.3903 0.4701
C7 C 0.0707(5) 0.4225(3) 0.2918(7)
H6 H 0.0879 0.4626 0.3174
C8 C 0.0708(4) 0.4078(3) 0.1664(6)
C9 C 0.0412(5) 0.3478(3) 0.1325(7)
H7 H 0.0381 0.3360 0.0466
C10 C 0.0166(5) 0.3060(3) 0.2290(6)
C12 C 0.1005(5) 0.4545(3) 0.0701(7)
H10 H 0.1154 0.4944 0.0995
N4 N 0.0189(3) 0.1797(2) 0.6473(5)
C18 C 0.0454(5) 0.1212(3) 0.6161(6)
H15 H 0.0468 0.1097 0.5299
C19 C 0.0707(5) 0.0775(3) 0.7082(7)
H16 H 0.0879 0.0374 0.6826
C20 C 0.0708(4) 0.0922(3) 0.8336(6)
C21 C 0.0412(5) 0.1522(3) 0.8675(7)
H17 H 0.0381 0.1640 0.9534
C22 C 0.0166(5) 0.1940(3) 0.7710(6)
C24 C 0.1005(5) 0.0455(3) 0.9299(7)
H20 H 0.1154 0.0056 0.9005
O3 O 0.0175(3) 0.3405(2) 0.6733(5)
O6 O 0.0175(3) 0.1595(2) 0.3267(5)
Cd1 Cd 0.2500 0.63323(3) 0.5000
Cd2 Cd 0.02973(5) 0.7500 0.5000
S1 S 0.15849(10) 0.70271(6) 0.35287(14)
S2 S 0.07003(10) 0.63295(7) 0.29284(14)
O1 O 0.0828(4) 0.6243(3) 0.1587(5)
O2 O 0.0915(3) 0.57777(19) 0.3678(5)
N1 N 0.1878(3) 0.5720(2) 0.6532(5)
C1 C 0.1626(4) 0.5125(3) 0.6266(6)
H1 H 0.1626 0.4989 0.5416
C2 C 0.1370(5) 0.4712(3) 0.7218(7)
H2 H 0.1207 0.4304 0.7001
C3 C 0.1351(4) 0.4896(3) 0.8482(6)
C4 C 0.1591(5) 0.5513(3) 0.8744(6)
H3 H 0.1575 0.5664 0.9582
C5 C 0.1855(4) 0.5904(3) 0.7740(6)
H4 H 0.2022 0.6315 0.7931
C11 C 0.1073(4) 0.4437(3) 0.9467(7)
H9 H 0.0934 0.4034 0.9184
Cd4 Cd 0.47027(5) 0.7500 0.5000
S3 S 0.34151(10) 0.70271(6) 0.64713(14)
S4 S 0.15849(10) 0.79729(6) 0.64713(14)
S5 S 0.42997(10) 0.63295(7) 0.70716(14)
O4 O 0.4172(4) 0.6243(3) 0.8413(5)
O5 O 0.4085(3) 0.57777(19) 0.6322(5)
O6_2 O 0.5175(3) 0.6595(2) 0.6733(5)
N3 N 0.3122(3) 0.5720(2) 0.3468(5)
C13 C 0.3374(4) 0.5125(3) 0.3734(6)
H11 H 0.3374 0.4989 0.4584
C14 C 0.3630(5) 0.4712(3) 0.2782(7)
H12 H 0.3793 0.4304 0.2999
C15 C 0.3649(4) 0.4896(3) 0.1518(6)
C16 C 0.3409(5) 0.5513(3) 0.1256(6)
H13 H 0.3425 0.5664 0.0418
C17 C 0.3145(4) 0.5904(3) 0.2260(6)
H14 H 0.2978 0.6315 0.2069
C23 C 0.3927(4) 0.4437(3) 0.0533(7)
H19 H 0.4066 0.4034 0.0816
Cd1_2 Cd 0.2500 0.86677(3) 0.5000
S1_2 S 0.34151(10) 0.79729(6) 0.35287(14)
S2_2 S 0.42997(10) 0.86705(7) 0.29284(14)
O1_2 O 0.4172(4) 0.8757(3) 0.1587(5)
O2_2 O 0.4085(3) 0.92223(19) 0.3678(5)
O3_2 O 0.5175(3) 0.8405(2) 0.3267(5)
N1_2 N 0.3122(3) 0.9280(2) 0.6532(5)
C1_2 C 0.3374(4) 0.9875(3) 0.6266(6)
C4_2 C 0.3409(5) 0.9487(3) 0.8744(6)
H3_2 H 0.3425 0.9336 0.9582
C5_2 C 0.3145(4) 0.9096(3) 0.7740(6)
H4_2 H 0.2978 0.8685 0.7931
S5_2 S 0.07003(10) 0.86705(7) 0.70716(14)
O4_2 O 0.0828(4) 0.8757(3) 0.8413(5)
O5_2 O 0.0915(3) 0.92223(19) 0.6322(5)
N3_2 N 0.1878(3) 0.9280(2) 0.3468(5)
N5 N 0.5189(3) 0.8203(2) 0.6473(5)
N6 N 0.5189(3) 0.6797(2) 0.3527(5)
C13_2 C 0.1626(4) 0.9875(3) 0.3734(6)
C16_2 C 0.1591(5) 0.9487(3) 0.1256(6)
H13_2 H 0.1575 0.9336 0.0418
C17_2 C 0.1855(4) 0.9096(3) 0.2260(6)
H14_2 H 0.2022 0.8685 0.2069
H8 H 0.0024 0.7340 0.7946
C18_2 C 0.5454(5) 0.6212(3) 0.3839(6)
H15_2 H 0.5468 0.6097 0.4701
C19_2 C 0.5707(5) 0.5775(3) 0.2918(7)
H16_2 H 0.5879 0.5374 0.3174
C20_2 C 0.5708(4) 0.5922(3) 0.1664(6)
C21_2 C 0.5412(5) 0.6522(3) 0.1325(7)
H17_2 H 0.5381 0.6640 0.0466
C22_2 C 0.5166(5) 0.6940(3) 0.2290(6)
H18 H 0.4976 0.7340 0.2054
C24_2 C 0.6005(5) 0.5455(3) 0.0701(7)
H20_2 H 0.6154 0.5056 0.0995
H18_2 H 0.0024 0.7660 0.2054
C6_2 C 0.5454(5) 0.8788(3) 0.6161(6)
H5_2 H 0.5468 0.8903 0.5299
C7_2 C 0.5707(5) 0.9225(3) 0.7082(7)
H6_2 H 0.5879 0.9626 0.6826
C8_2 C 0.5708(4) 0.9078(3) 0.8336(6)
C9_2 C 0.5412(5) 0.8478(3) 0.8675(7)
H7_2 H 0.5381 0.8360 0.9534
C10_2 C 0.5166(5) 0.8060(3) 0.7710(6)
H8_2 H 0.4976 0.7660 0.7946
C12_2 C 0.6005(5) 0.9545(3) 0.9299(7)
H10_2 H 0.6154 0.9944 0.9005
Cd5 Cd 0.52973(5) 0.2500 0.5000
N4_2 N 0.4811(3) 0.3203(2) 0.6473(5)
C18_3 C 0.4546(5) 0.3788(3) 0.6161(6)
H15_3 H 0.4532 0.3903 0.5299
C19_3 C 0.4293(5) 0.4225(3) 0.7082(7)
H16_3 H 0.4121 0.4626 0.6826
C20_3 C 0.4292(4) 0.4078(3) 0.8336(6)
C21_3 C 0.4588(5) 0.3478(3) 0.8675(7)
H17_3 H 0.4619 0.3360 0.9534
C22_3 C 0.4834(5) 0.3060(3) 0.7710(6)
H18_3 H 0.5024 0.2660 0.7946
C24_3 C 0.3995(5) 0.4545(3) 0.9299(7)
H20_3 H 0.3846 0.4944 0.9005
H8_3 H 0.9976 0.2660 0.2054
Cd3 Cd 0.97027(5) 0.2500 0.5000
N2_2 N 0.4811(3) 0.1797(2) 0.3527(5)
C6_3 C 0.4546(5) 0.1212(3) 0.3839(6)
H5_3 H 0.4532 0.1097 0.4701
C7_3 C 0.4293(5) 0.0775(3) 0.2918(7)
H6_3 H 0.4121 0.0374 0.3174
C8_3 C 0.4292(4) 0.0922(3) 0.1664(6)
C9_3 C 0.4588(5) 0.1522(3) 0.1325(7)
H7_3 H 0.4619 0.1640 0.0466
C10_3 C 0.4834(5) 0.1940(3) 0.2290(6)
H8_4 H 0.5024 0.2340 0.2054
C12_3 C 0.3995(5) 0.0455(3) 0.0701(7)
H10_3 H 0.3846 0.0056 0.0995
H18_4 H 0.9976 0.2340 0.7946
Cd1_3 Cd 0.7500 0.36677(3) 0.5000
S1_3 S 0.84151(10) 0.29729(6) 0.64713(14)
S2_3 S 0.92997(10) 0.36705(7) 0.70716(14)
O1_3 O 0.9172(4) 0.3757(3) 0.8413(5)
O2_3 O 0.9085(3) 0.42223(19) 0.6322(5)
N1_3 N 0.8122(3) 0.4280(2) 0.3468(5)
C1_3 C 0.8374(4) 0.4875(3) 0.3734(6)
H1_2 H 0.8374 0.5011 0.4584
C2_2 C 0.8630(5) 0.5288(3) 0.2782(7)
H2_2 H 0.8793 0.5696 0.2999
C3_2 C 0.8649(4) 0.5104(3) 0.1518(6)
C4_3 C 0.8409(5) 0.4487(3) 0.1256(6)
H3_3 H 0.8425 0.4336 0.0418
C5_3 C 0.8145(4) 0.4096(3) 0.2260(6)
H4_3 H 0.7978 0.3685 0.2069
C11_2 C 0.8927(4) 0.5563(3) 0.0533(7)
H9_2 H 0.9066 0.5966 0.0816
S3_2 S 0.65849(10) 0.29729(6) 0.35287(14)
S4_2 S 0.84151(10) 0.20271(6) 0.35287(14)
S5_3 S 0.57003(10) 0.36705(7) 0.29284(14)
O4_3 O 0.5828(4) 0.3757(3) 0.1587(5)
O5_3 O 0.5915(3) 0.42223(19) 0.3678(5)
O6_3 O 0.4825(3) 0.3405(2) 0.3267(5)
N3_3 N 0.6878(3) 0.4280(2) 0.6532(5)
C13_3 C 0.6626(4) 0.4875(3) 0.6266(6)
H11_2 H 0.6626 0.5011 0.5416
C14_2 C 0.6370(5) 0.5288(3) 0.7218(7)
H12_2 H 0.6207 0.5696 0.7001
C15_2 C 0.6351(4) 0.5104(3) 0.8482(6)
C16_3 C 0.6591(5) 0.4487(3) 0.8744(6)
H13_3 H 0.6575 0.4336 0.9582
C17_3 C 0.6855(4) 0.4096(3) 0.7740(6)
H14_3 H 0.7022 0.3685 0.7931
C23_2 C 0.6073(4) 0.5563(3) 0.9467(7)
H19_2 H 0.5934 0.5966 0.9184
Cd1_4 Cd 0.7500 0.13323(3) 0.5000
S1_4 S 0.65849(10) 0.20271(6) 0.64713(14)
S2_4 S 0.57003(10) 0.13295(7) 0.70716(14)
O1_4 O 0.5828(4) 0.1243(3) 0.8413(5)
O2_4 O 0.5915(3) 0.07777(19) 0.6322(5)
O3_3 O 0.4825(3) 0.1595(2) 0.6733(5)
N1_4 N 0.6878(3) 0.0720(2) 0.3468(5)
C1_4 C 0.6626(4) 0.0125(3) 0.3734(6)
C4_4 C 0.6591(5) 0.0513(3) 0.1256(6)
H3_4 H 0.6575 0.0664 0.0418
C5_4 C 0.6855(4) 0.0904(3) 0.2260(6)
H4_4 H 0.7022 0.1315 0.2069
S5_4 S 0.92997(10) 0.13295(7) 0.29284(14)
O4_4 O 0.9172(4) 0.1243(3) 0.1587(5)
O5_4 O 0.9085(3) 0.07777(19) 0.3678(5)
N3_4 N 0.8122(3) 0.0720(2) 0.6532(5)
C13_4 C 0.8374(4) 0.0125(3) 0.6266(6)
C16_4 C 0.8409(5) 0.0513(3) 0.8744(6)
H13_4 H 0.8425 0.0664 0.9582
C17_4 C 0.8145(4) 0.0904(3) 0.7740(6)
H14_4 H 0.7978 0.1315 0.7931
O3_4 O 0.9825(3) 0.6595(2) 0.3267(5)
N5_2 N 0.9811(3) 0.6797(2) 0.6473(5)
N6_2 N 0.9811(3) 0.8203(2) 0.3527(5)
O6_4 O 0.9825(3) 0.8405(2) 0.6733(5)
C6_4 C 0.9546(5) 0.6212(3) 0.6161(6)
H5_4 H 0.9532 0.6097 0.5299
C7_4 C 0.9293(5) 0.5775(3) 0.7082(7)
H6_4 H 0.9121 0.5374 0.6826
C8_4 C 0.9292(4) 0.5922(3) 0.8336(6)
C9_4 C 0.9588(5) 0.6522(3) 0.8675(7)
H7_4 H 0.9619 0.6640 0.9534
C10_4 C 0.9834(5) 0.6940(3) 0.7710(6)
C12_4 C 0.8995(5) 0.5455(3) 0.9299(7)
H10_4 H 0.8846 0.5056 0.9005
C18_4 C 0.9546(5) 0.8788(3) 0.3839(6)
H15_4 H 0.9532 0.8903 0.4701
C19_4 C 0.9293(5) 0.9225(3) 0.2918(7)
H16_4 H 0.9121 0.9626 0.3174
C20_4 C 0.9292(4) 0.9078(3) 0.1664(6)
C21_4 C 0.9588(5) 0.8478(3) 0.1325(7)
H17_4 H 0.9619 0.8360 0.0466
C22_4 C 0.9834(5) 0.8060(3) 0.2290(6)
C24_4 C 0.8995(5) 0.9545(3) 0.0701(7)
H20_4 H 0.8846 0.9944 0.0995
H1_3 H 0.3374 0.0011 0.5416
C2_3 C 0.3630(5) 0.0288(3) 0.7218(7)
H2_3 H 0.3793 0.0696 0.7001
C3_3 C 0.3649(4) 0.0104(3) 0.8482(6)
C11_3 C 0.3927(4) 0.0563(3) 0.9467(7)
H9_3 H 0.4066 0.0966 0.9184
H11_3 H 0.1626 0.0011 0.4584
C14_3 C 0.1370(5) 0.0288(3) 0.2782(7)
H12_3 H 0.1207 0.0696 0.2999
C15_3 C 0.1351(4) 0.0104(3) 0.1518(6)
C23_3 C 0.1073(4) 0.0563(3) 0.0533(7)
H19_3 H 0.0934 0.0966 0.0816
H1_4 H 0.6626 0.9989 0.4584
C2_4 C 0.6370(5) 0.9712(3) 0.2782(7)
H2_4 H 0.6207 0.9304 0.2999
C3_4 C 0.6351(4) 0.9896(3) 0.1518(6)
C11_4 C 0.6073(4) 0.9437(3) 0.0533(7)
H9_4 H 0.5934 0.9034 0.0816
H11_4 H 0.8374 0.9989 0.5416
C14_4 C 0.8630(5) 0.9712(3) 0.7218(7)
H12_4 H 0.8793 0.9304 0.7001
C15_4 C 0.8649(4) 0.9896(3) 0.8482(6)
C23_4 C 0.8927(4) 0.9437(3) 0.9467(7)
H19_4 H 0.9066 0.9034 0.9184
loop_
_geom_bond_atom_site_label_1
_geom_bond_atom_site_label_2
_geom_bond_site_symmetry_1
_geom_bond_site_symmetry_2
N2 C6 1_555 1_555
C6 H5 1_555 1_555
C7 C6 1_555 1_555
H6 C7 1_555 1_555
C8 C7 1_555 1_555
C9 C8 1_555 1_555
H7 C9 1_555 1_555
C10 N2 1_555 1_555
C12 C8 1_555 1_555
H10 C12 1_555 1_555
C9 C10 1_555 1_555
N4 C18 1_555 1_555
C18 H15 1_555 1_555
C19 C18 1_555 1_555
H16 C19 1_555 1_555
C20 C19 1_555 1_555
C21 C20 1_555 1_555
H17 C21 1_555 1_555
C22 N4 1_555 1_555
C24 C20 1_555 1_555
H20 C24 1_555 1_555
C21 C22 1_555 1_555
Cd1 S1 1_555 1_555
Cd2 S1 1_555 1_555
S1 S2 1_555 1_555
S2 O1 1_555 1_555
O2 S2 1_555 1_555
N1 Cd1 1_555 1_555
C1 N1 1_555 1_555
H1 C1 1_555 1_555
C2 C1 1_555 1_555
H2 C2 1_555 1_555
C3 C2 1_555 1_555
C4 C3 1_555 1_555
H3 C4 1_555 1_555
C5 N1 1_555 1_555
H4 C5 1_555 1_555
C11 C3 1_555 1_555
H9 C11 1_555 1_555
Cd4 S3 1_555 1_555
S3 Cd1 1_555 1_555
S4 Cd2 1_555 1_555
S5 S3 1_555 1_555
O4 S5 1_555 1_555
O5 S5 1_555 1_555
O6_2 S5 1_555 1_555
N3 Cd1 1_555 1_555
C13 N3 1_555 1_555
H11 C13 1_555 1_555
C14 C13 1_555 1_555
H12 C14 1_555 1_555
C15 C14 1_555 1_555
C16 C15 1_555 1_555
H13 C16 1_555 1_555
C17 N3 1_555 1_555
H14 C17 1_555 1_555
C23 C15 1_555 1_555
H19 C23 1_555 1_555
C4 C5 1_555 1_555
C16 C17 1_555 1_555
Cd1_2 S1_2 1_555 1_555
Cd4 S1_2 1_555 1_555
S1_2 S2_2 1_555 1_555
S2_2 O1_2 1_555 1_555
O2_2 S2_2 1_555 1_555
O3_2 S2_2 1_555 1_555
N1_2 Cd1_2 1_555 1_555
C1_2 N1_2 1_555 1_555
H3_2 C4_2 1_555 1_555
C5_2 N1_2 1_555 1_555
H4_2 C5_2 1_555 1_555
S4 Cd1_2 1_555 1_555
S5_2 S4 1_555 1_555
O4_2 S5_2 1_555 1_555
O5_2 S5_2 1_555 1_555
N3_2 Cd1_2 1_555 1_555
N5 Cd4 1_555 1_555
N6 Cd4 1_555 1_555
C13_2 N3_2 1_555 1_555
H13_2 C16_2 1_555 1_555
C17_2 N3_2 1_555 1_555
H14_2 C17_2 1_555 1_555
C4_2 C5_2 1_555 1_555
C16_2 C17_2 1_555 1_555
N6 C18_2 1_555 1_555
C18_2 H15_2 1_555 1_555
C19_2 C18_2 1_555 1_555
H16_2 C19_2 1_555 1_555
C20_2 C19_2 1_555 1_555
C21_2 C20_2 1_555 1_555
H17_2 C21_2 1_555 1_555
C22_2 N6 1_555 1_555
H18 C22_2 1_555 1_555
C24_2 C20_2 1_555 1_555
H20_2 C24_2 1_555 1_555
C21_2 C22_2 1_555 1_555
N5 C6_2 1_555 1_555
C6_2 H5_2 1_555 1_555
C7_2 C6_2 1_555 1_555
H6_2 C7_2 1_555 1_555
C8_2 C7_2 1_555 1_555
C9_2 C8_2 1_555 1_555
H7_2 C9_2 1_555 1_555
C10_2 N5 1_555 1_555
H8_2 C10_2 1_555 1_555
C12_2 C8_2 1_555 1_555
H10_2 C12_2 1_555 1_555
C9_2 C10_2 1_555 1_555
Cd5 N4_2 1_555 1_555
N4_2 C18_3 1_555 1_555
C18_3 H15_3 1_555 1_555
C19_3 C18_3 1_555 1_555
H16_3 C19_3 1_555 1_555
C20_3 C19_3 1_555 1_555
C21_3 C20_3 1_555 1_555
H17_3 C21_3 1_555 1_555
C22_3 N4_2 1_555 1_555
H18_3 C22_3 1_555 1_555
C24_3 C20_3 1_555 1_555
H20_3 C24_3 1_555 1_555
C21_3 C22_3 1_555 1_555
N2_2 C6_3 1_555 1_555
C6_3 H5_3 1_555 1_555
C7_3 C6_3 1_555 1_555
H6_3 C7_3 1_555 1_555
C8_3 C7_3 1_555 1_555
C9_3 C8_3 1_555 1_555
H7_3 C9_3 1_555 1_555
C10_3 N2_2 1_555 1_555
H8_4 C10_3 1_555 1_555
C12_3 C8_3 1_555 1_555
H10_3 C12_3 1_555 1_555
Cd5 N2_2 1_555 1_555
C9_3 C10_3 1_555 1_555
Cd1_3 S1_3 1_555 1_555
Cd3 S1_3 1_555 1_555
S1_3 S2_3 1_555 1_555
S2_3 O1_3 1_555 1_555
O2_3 S2_3 1_555 1_555
N1_3 Cd1_3 1_555 1_555
C1_3 N1_3 1_555 1_555
H1_2 C1_3 1_555 1_555
C2_2 C1_3 1_555 1_555
H2_2 C2_2 1_555 1_555
C3_2 C2_2 1_555 1_555
C4_3 C3_2 1_555 1_555
H3_3 C4_3 1_555 1_555
C5_3 N1_3 1_555 1_555
H4_3 C5_3 1_555 1_555
C11_2 C3_2 1_555 1_555
H9_2 C11_2 1_555 1_555
Cd5 S3_2 1_555 1_555
S3_2 Cd1_3 1_555 1_555
S4_2 Cd3 1_555 1_555
S5_3 S3_2 1_555 1_555
O4_3 S5_3 1_555 1_555
O5_3 S5_3 1_555 1_555
O6_3 S5_3 1_555 1_555
N3_3 Cd1_3 1_555 1_555
C13_3 N3_3 1_555 1_555
H11_2 C13_3 1_555 1_555
C14_2 C13_3 1_555 1_555
H12_2 C14_2 1_555 1_555
C15_2 C14_2 1_555 1_555
C16_3 C15_2 1_555 1_555
H13_3 C16_3 1_555 1_555
C17_3 N3_3 1_555 1_555
H14_3 C17_3 1_555 1_555
C23_2 C15_2 1_555 1_555
H19_2 C23_2 1_555 1_555
C4_3 C5_3 1_555 1_555
C16_3 C17_3 1_555 1_555
Cd1_4 S1_4 1_555 1_555
Cd5 S1_4 1_555 1_555
S1_4 S2_4 1_555 1_555
S2_4 O1_4 1_555 1_555
O2_4 S2_4 1_555 1_555
O3_3 S2_4 1_555 1_555
N1_4 Cd1_4 1_555 1_555
C1_4 N1_4 1_555 1_555
H3_4 C4_4 1_555 1_555
C5_4 N1_4 1_555 1_555
H4_4 C5_4 1_555 1_555
S4_2 Cd1_4 1_555 1_555
S5_4 S4_2 1_555 1_555
O4_4 S5_4 1_555 1_555
O5_4 S5_4 1_555 1_555
N3_4 Cd1_4 1_555 1_555
C13_4 N3_4 1_555 1_555
H13_4 C16_4 1_555 1_555
C17_4 N3_4 1_555 1_555
H14_4 C17_4 1_555 1_555
C4_4 C5_4 1_555 1_555
C16_4 C17_4 1_555 1_555
N5_2 C6_4 1_555 1_555
C6_4 H5_4 1_555 1_555
C7_4 C6_4 1_555 1_555
H6_4 C7_4 1_555 1_555
C8_4 C7_4 1_555 1_555
C9_4 C8_4 1_555 1_555
H7_4 C9_4 1_555 1_555
C10_4 N5_2 1_555 1_555
C12_4 C8_4 1_555 1_555
H10_4 C12_4 1_555 1_555
C9_4 C10_4 1_555 1_555
N6_2 C18_4 1_555 1_555
C18_4 H15_4 1_555 1_555
C19_4 C18_4 1_555 1_555
H16_4 C19_4 1_555 1_555
C20_4 C19_4 1_555 1_555
C21_4 C20_4 1_555 1_555
H17_4 C21_4 1_555 1_555
C22_4 N6_2 1_555 1_555
C24_4 C20_4 1_555 1_555
H20_4 C24_4 1_555 1_555
C21_4 C22_4 1_555 1_555
H2_3 C2_3 1_555 1_555
C3_3 C2_3 1_555 1_555
C11_3 C3_3 1_555 1_555
H9_3 C11_3 1_555 1_555
H12_3 C14_3 1_555 1_555
C15_3 C14_3 1_555 1_555
C23_3 C15_3 1_555 1_555
H19_3 C23_3 1_555 1_555
H2_4 C2_4 1_555 1_555
C3_4 C2_4 1_555 1_555
C11_4 C3_4 1_555 1_555
H9_4 C11_4 1_555 1_555
H12_4 C14_4 1_555 1_555
C15_4 C14_4 1_555 1_555
C23_4 C15_4 1_555 1_555
H19_4 C23_4 1_555 1_555

#END
