
###############################################################################
#
# This file contains modified crystal structure data generated from the
# MOF subset of the Cambridge Structural Database (CSD) v543 
# hosted by the Cambridge Crystallographic Data Centre (CCDC).
#
# This work is licensed under the Creative Commons
# Attribution-NonCommercial-ShareAlike 4.0 International License.
# To view a copy of this license, visit
# http://creativecommons.org/licenses/by-nc-sa/4.0/
# or send a letter to
# Creative Commons, PO Box 1866, Mountain View, CA 94042, USA.
#
# CIF created using the CSD Python API on 29 September 2022
# The structure has been converted into the P1 space group
# The structure has a 3D framework
# The original CSD entry PAQTIM01 is in the monoclinic crystal system
# The framework has been calculated to contain at least 10.0% void space
# The void calculation uses a probe of radius 1.32A, grid spacing 0.4
# The framework is charged, counterions have been retained in the structure
#
###############################################################################

data_PAQTIM01
_chemical_formula_moiety         '(C192 H96 Cs6 Fe2 N16 Ni12 O32)n'
_symmetry_cell_setting           triclinic
_symmetry_space_group_name_H-M   'P 1'
_symmetry_Int_Tables_number      1
_space_group_name_Hall           'P 1'
loop_
_symmetry_equiv_pos_site_id
_symmetry_equiv_pos_as_xyz
1 x,y,z
_cell_length_a                   7.3772(13)
_cell_length_b                   24.965(4)
_cell_length_c                   29.960(5)
_cell_angle_alpha                90
_cell_angle_beta                 93.307(4)
_cell_angle_gamma                90
_cell_volume                     5508.6
loop_
_atom_site_label
_atom_site_type_symbol
_atom_site_fract_x
_atom_site_fract_y
_atom_site_fract_z
Fe1 Fe -0.0000 0.33964(3) 0.2500
O6 O 0.1111(8) 0.29377(17) 0.29670(13)
O10 O 0.0224(4) 0.40267(13) 0.19909(10)
O12 O 0.2512(4) 0.36463(12) 0.23390(10)
Ni1 Ni 1.0000 0.5000 -0.0000
N2 N 0.7927(5) 0.45065(14) 0.00117(12)
C8 C 0.5448(8) 0.4032(2) 0.02338(18)
H4 H 0.4512 0.3918 0.0406
C9 C 0.6733(6) 0.44516(19) 0.03484(15)
N3 N 0.9422(4) 0.52818(14) 0.05824(11)
C25 C 0.8068(6) 0.51124(17) 0.08511(14)
C27 C 0.8144(7) 0.5406(2) 0.12634(16)
H13 H 0.7399 0.5357 0.1500
C28 C 0.9484(6) 0.57636(19) 0.12440(15)
H14 H 0.9827 0.6016 0.1461
C34 C 0.6797(6) 0.47197(17) 0.07471(15)
C42 C 0.5511(6) 0.45577(17) 0.10896(14)
C43 C 0.3675(6) 0.4676(2) 0.10450(16)
H21 H 0.3226 0.4879 0.0803
C44 C 0.2505(6) 0.4496(2) 0.13550(16)
H22 H 0.1275 0.4577 0.1320
C45 C 0.3151(5) 0.41977(18) 0.17157(14)
C46 C 0.5002(6) 0.4090(2) 0.17721(15)
H23 H 0.5449 0.3897 0.2020
C47 C 0.6166(6) 0.4267(2) 0.14648(15)
H24 H 0.7400 0.4194 0.1505
C48 C 0.1892(5) 0.39521(17) 0.20299(14)
Ni1_2 Ni 0.5000 -0.0000 0.5000
C10 C 0.1797(6) 0.02803(17) 0.57471(15)
C18 C 0.0511(6) 0.04423(17) 0.60896(14)
C22 C 0.0002(6) 0.0910(2) 0.67721(15)
H11 H 0.0449 0.1103 0.7020
C23 C 0.1166(6) 0.0733(2) 0.64648(15)
H12 H 0.2400 0.0806 0.6505
N3_2 N 0.5578(4) 0.02818(14) 0.44176(11)
N4 N 0.2927(5) 0.04935(14) 0.50117(12)
C25_2 C 0.6932(6) 0.01124(17) 0.41489(14)
C26 C 0.4709(6) 0.06861(18) 0.41730(14)
C27_2 C 0.6856(7) 0.0406(2) 0.37366(16)
H13_2 H 0.7601 0.0357 0.3500
C28_2 C 0.5516(6) 0.07636(19) 0.37560(15)
H14_2 H 0.5173 0.1016 0.3539
C29 C 0.3216(6) 0.09746(18) 0.43037(15)
C30 C 0.2393(6) 0.08696(18) 0.46923(15)
C31 C 0.0841(8) 0.1161(2) 0.48382(19)
H15 H 0.0228 0.1435 0.4683
C32 C 0.0448(8) 0.0968(2) 0.52338(18)
C33 C 0.1733(6) 0.05484(19) 0.53484(15)
C35 C 0.2439(6) 0.14003(19) 0.39974(16)
C36 C 0.0741(8) 0.1326(2) 0.37844(19)
H17 H 0.0087 0.1016 0.3834
C37 C 0.0026(8) 0.1712(3) 0.3499(2)
C38 C 0.0943(8) 0.2165(3) 0.3409(2)
C39 C 0.2597(10) 0.2241(2) 0.36223(18)
H19 H 0.3240 0.2551 0.3565
C40 C 0.3372(8) 0.1866(2) 0.39281(18)
H20 H 0.4487 0.1932 0.4079
C41 C 0.0121(13) 0.2564(3) 0.3083(2)
H18 H 0.1128 0.1660 0.1636
O8 O 0.1402(10) 0.2507(4) 0.2072(3)
Fe1_2 Fe 1.0000 0.33964(3) 0.2500
Ni1_3 Ni 0.0000 0.5000 0.5000
N2_2 N 0.2073(5) 0.45065(14) 0.49883(12)
C2 C 0.0291(6) 0.43139(18) 0.58270(14)
C5 C 0.1784(6) 0.40254(18) 0.56963(15)
C6 C 0.2607(6) 0.41304(18) 0.53077(15)
C7 C 0.4159(8) 0.3839(2) 0.51618(19)
H3 H 0.4772 0.3565 0.5317
C8_2 C 0.4552(8) 0.4032(2) 0.47662(18)
H4_2 H 0.5488 0.3918 0.4594
C9_2 C 0.3267(6) 0.44516(19) 0.46516(15)
C11 C 0.2561(6) 0.35997(19) 0.60026(16)
C12 C 0.4259(8) 0.3674(2) 0.62156(19)
H5 H 0.4913 0.3984 0.6166
C13 C 0.4974(8) 0.3288(3) 0.6501(2)
H6 H 0.6128 0.3340 0.6636
C14 C 0.4057(8) 0.2835(3) 0.6591(2)
C15 C 0.2403(10) 0.2759(2) 0.63777(18)
H7 H 0.1760 0.2449 0.6435
C16 C 0.1628(8) 0.3134(2) 0.60719(18)
H8 H 0.0513 0.3068 0.5921
C17 C 0.4879(13) 0.2436(3) 0.6917(2)
O1 O 0.3889(8) 0.20623(17) 0.70330(13)
O2 O 0.6402(10) 0.2493(4) 0.7072(3)
Fe4 Fe 0.5000 0.16036(3) 0.7500
N3_3 N 0.0578(4) 0.52818(14) 0.44176(11)
C25_3 C 0.1932(6) 0.51124(17) 0.41489(14)
C27_3 C 0.1856(7) 0.5406(2) 0.37366(16)
H13_3 H 0.2601 0.5357 0.3500
C28_3 C 0.0516(6) 0.57636(19) 0.37560(15)
H14_3 H 0.0173 0.6016 0.3539
C34_2 C 0.3203(6) 0.47197(17) 0.42529(15)
O7 O 0.8889(8) 0.29377(17) 0.20330(13)
C42_2 C 0.4489(6) 0.45577(17) 0.39104(14)
C43_2 C 0.6325(6) 0.4676(2) 0.39550(16)
H21_2 H 0.6774 0.4879 0.4197
C44_2 C 0.7495(6) 0.4496(2) 0.36450(16)
H22_2 H 0.8725 0.4577 0.3680
C45_2 C 0.6849(5) 0.41977(18) 0.32843(14)
C46_2 C 0.4998(6) 0.4090(2) 0.32279(15)
H23_2 H 0.4551 0.3897 0.2980
C47_2 C 0.3834(6) 0.4267(2) 0.35352(15)
H24_2 H 0.2600 0.4194 0.3495
C48_2 C 0.8108(5) 0.39521(17) 0.29701(14)
O9 O 0.9776(4) 0.40267(13) 0.30091(10)
O11 O 0.7488(4) 0.36463(12) 0.26610(10)
Ni1_4 Ni 1.0000 0.5000 1.0000
C2_2 C 0.9709(6) 0.43139(18) 0.91730(14)
C5_2 C 0.8216(6) 0.40254(18) 0.93037(15)
C6_2 C 0.7393(6) 0.41304(18) 0.96923(15)
C7_2 C 0.5841(8) 0.3839(2) 0.98382(19)
H3_2 H 0.5228 0.3565 0.9683
C11_2 C 0.7439(6) 0.35997(19) 0.89974(16)
C12_2 C 0.5741(8) 0.3674(2) 0.87844(19)
H5_2 H 0.5087 0.3984 0.8834
C13_2 C 0.5026(8) 0.3288(3) 0.8499(2)
H6_2 H 0.3872 0.3340 0.8364
C14_2 C 0.5943(8) 0.2835(3) 0.8409(2)
C15_2 C 0.7597(10) 0.2759(2) 0.86223(18)
H7_2 H 0.8240 0.2449 0.8565
C16_2 C 0.8372(8) 0.3134(2) 0.89281(18)
H8_2 H 0.9487 0.3068 0.9079
C17_2 C 0.5121(13) 0.2436(3) 0.8083(2)
O1_2 O 0.6111(8) 0.20623(17) 0.79670(13)
O2_2 O 0.3598(10) 0.2493(4) 0.7928(3)
C19 C 0.8675(6) 0.0324(2) 0.60450(16)
H9 H 0.8226 0.0121 0.5803
C20 C 0.7505(6) 0.0504(2) 0.63550(16)
H10 H 0.6275 0.0423 0.6320
C21 C 0.8151(5) 0.08023(18) 0.67157(14)
C24 C 0.6892(5) 0.10479(17) 0.70299(14)
O3 O 0.5224(4) 0.09733(13) 0.69909(10)
O4 O 0.7512(4) 0.13537(12) 0.73390(10)
H16 H 0.9512 0.1082 0.5406
H18_2 H 0.8872 0.1660 0.3364
O8_2 O 0.8598(10) 0.2507(4) 0.2928(3)
C19_2 C 0.1325(6) 0.0324(2) 0.89550(16)
H9_2 H 0.1774 0.0121 0.9197
C20_2 C 0.2495(6) 0.0504(2) 0.86450(16)
H10_2 H 0.3725 0.0423 0.8680
C21_2 C 0.1849(5) 0.08023(18) 0.82843(14)
C24_2 C 0.3108(5) 0.10479(17) 0.79701(14)
O3_2 O 0.4776(4) 0.09733(13) 0.80091(10)
O4_2 O 0.2488(4) 0.13537(12) 0.76610(10)
H16_2 H 0.0488 0.1082 0.9594
Ni1_5 Ni 0.5000 -0.0000 -0.0000
N3_4 N 0.4422(4) 0.02818(14) 0.05824(11)
C25_4 C 0.3068(6) 0.01124(17) 0.08511(14)
C26_2 C 0.5291(6) 0.06861(18) 0.08270(14)
C27_4 C 0.3144(7) 0.0406(2) 0.12634(16)
H13_4 H 0.2399 0.0357 0.1500
C28_4 C 0.4484(6) 0.07636(19) 0.12440(15)
H14_4 H 0.4827 0.1016 0.1461
C29_2 C 0.6784(6) 0.09746(18) 0.06963(15)
C30_2 C 0.7607(6) 0.08696(18) 0.03077(15)
C31_2 C 0.9159(8) 0.1161(2) 0.01618(19)
H15_2 H 0.9772 0.1435 0.0317
C35_2 C 0.7561(6) 0.14003(19) 0.10026(16)
C36_2 C 0.9259(8) 0.1326(2) 0.12156(19)
H17_2 H 0.9913 0.1016 0.1166
C37_2 C 0.9974(8) 0.1712(3) 0.1501(2)
C38_2 C 0.9057(8) 0.2165(3) 0.1591(2)
C39_2 C 0.7403(10) 0.2241(2) 0.13777(18)
H19_2 H 0.6760 0.2551 0.1435
C40_2 C 0.6628(8) 0.1866(2) 0.10719(18)
H20_2 H 0.5513 0.1932 0.0921
C41_2 C 0.9879(13) 0.2564(3) 0.1917(2)
Ni1_6 Ni 1.0000 0.5000 0.5000
N1 N 0.9422(4) 0.47182(14) 0.55824(11)
C1 C 0.8068(6) 0.48876(17) 0.58511(14)
C3 C 0.8144(7) 0.4594(2) 0.62634(16)
H1 H 0.7399 0.4643 0.6500
C4 C 0.9484(6) 0.42364(19) 0.62440(15)
H2 H 0.9827 0.3984 0.6461
C10_2 C 0.6797(6) 0.52803(17) 0.57471(15)
C18_2 C 0.5511(6) 0.54423(17) 0.60896(14)
C19_3 C 0.3675(6) 0.5324(2) 0.60450(16)
H9_3 H 0.3226 0.5121 0.5803
C20_3 C 0.2505(6) 0.5504(2) 0.63550(16)
H10_3 H 0.1275 0.5423 0.6320
C21_3 C 0.3151(5) 0.58023(18) 0.67157(14)
C22_2 C 0.5002(6) 0.5910(2) 0.67721(15)
H11_2 H 0.5449 0.6103 0.7020
C23_2 C 0.6166(6) 0.5733(2) 0.64648(15)
H12_2 H 0.7400 0.5806 0.6505
C24_3 C 0.1892(5) 0.60479(17) 0.70299(14)
O3_3 O 0.0224(4) 0.59733(13) 0.69909(10)
O4_3 O 0.2512(4) 0.63537(12) 0.73390(10)
Fe2 Fe 0.0000 0.66036(3) 0.7500
Fe3 Fe 0.5000 0.83964(3) 0.2500
N4_2 N 0.7927(5) 0.54935(14) 0.50117(12)
C26_3 C 0.9709(6) 0.56861(18) 0.41730(14)
C29_3 C 0.8216(6) 0.59746(18) 0.43037(15)
C30_3 C 0.7393(6) 0.58696(18) 0.46923(15)
C31_3 C 0.5841(8) 0.6161(2) 0.48382(19)
H15_3 H 0.5228 0.6435 0.4683
C32_2 C 0.5448(8) 0.5968(2) 0.52338(18)
H16_3 H 0.4512 0.6082 0.5406
C33_2 C 0.6733(6) 0.55484(19) 0.53484(15)
C35_3 C 0.7439(6) 0.64003(19) 0.39974(16)
C36_3 C 0.5741(8) 0.6326(2) 0.37844(19)
H17_3 H 0.5087 0.6016 0.3834
C37_3 C 0.5026(8) 0.6712(3) 0.3499(2)
H18_3 H 0.3872 0.6660 0.3364
C38_3 C 0.5943(8) 0.7165(3) 0.3409(2)
C39_3 C 0.7597(10) 0.7241(2) 0.36223(18)
H19_3 H 0.8240 0.7551 0.3565
C40_3 C 0.8372(8) 0.6866(2) 0.39281(18)
H20_3 H 0.9487 0.6932 0.4079
C41_3 C 0.5121(13) 0.7564(3) 0.3083(2)
O5 O 0.6111(8) 0.79377(17) 0.29670(13)
O8_3 O 0.3598(10) 0.7507(4) 0.2928(3)
Ni1_7 Ni -0.0000 0.5000 -0.0000
C26_4 C 0.0291(6) 0.56861(18) 0.08270(14)
C29_4 C 0.1784(6) 0.59746(18) 0.06963(15)
C30_4 C 0.2607(6) 0.58696(18) 0.03077(15)
C31_4 C 0.4159(8) 0.6161(2) 0.01618(19)
H15_4 H 0.4772 0.6435 0.0317
C35_4 C 0.2561(6) 0.64003(19) 0.10026(16)
C36_4 C 0.4259(8) 0.6326(2) 0.12156(19)
H17_4 H 0.4913 0.6016 0.1166
C37_4 C 0.4974(8) 0.6712(3) 0.1501(2)
H18_4 H 0.6128 0.6660 0.1636
C38_4 C 0.4057(8) 0.7165(3) 0.1591(2)
C39_4 C 0.2403(10) 0.7241(2) 0.13777(18)
H19_4 H 0.1760 0.7551 0.1435
C40_4 C 0.1628(8) 0.6866(2) 0.10719(18)
H20_4 H 0.0513 0.6932 0.0921
C41_4 C 0.4879(13) 0.7564(3) 0.1917(2)
O5_2 O 0.3889(8) 0.79377(17) 0.20330(13)
O8_4 O 0.6402(10) 0.7507(4) 0.2072(3)
H4_3 H 0.0488 0.8918 0.4594
H6_3 H 0.1128 0.8340 0.6636
O2_3 O 0.1402(10) 0.7493(4) 0.7072(3)
C43_3 C 0.1325(6) 0.9676(2) 0.39550(16)
H21_3 H 0.1774 0.9879 0.4197
C44_3 C 0.2495(6) 0.9496(2) 0.36450(16)
H22_3 H 0.3725 0.9577 0.3680
C45_3 C 0.1849(5) 0.91977(18) 0.32843(14)
C48_3 C 0.3108(5) 0.89521(17) 0.29701(14)
O9_2 O 0.4776(4) 0.90267(13) 0.30091(10)
O10_2 O 0.5224(4) 0.90267(13) 0.19909(10)
O11_2 O 0.2488(4) 0.86463(12) 0.26610(10)
O12_2 O 0.7512(4) 0.86463(12) 0.23390(10)
Ni1_8 Ni 0.5000 1.0000 1.0000
N1_2 N 0.5578(4) 0.97182(14) 0.94176(11)
C1_2 C 0.6932(6) 0.98876(17) 0.91489(14)
C2_3 C 0.4709(6) 0.93139(18) 0.91730(14)
C3_2 C 0.6856(7) 0.9594(2) 0.87366(16)
H1_2 H 0.7601 0.9643 0.8500
C4_2 C 0.5516(6) 0.92364(19) 0.87560(15)
H2_2 H 0.5173 0.8984 0.8539
C5_3 C 0.3216(6) 0.90254(18) 0.93037(15)
C6_3 C 0.2393(6) 0.91304(18) 0.96923(15)
C7_3 C 0.0841(8) 0.8839(2) 0.98382(19)
H3_3 H 0.0228 0.8565 0.9683
C11_3 C 0.2439(6) 0.85997(19) 0.89974(16)
C12_3 C 0.0741(8) 0.8674(2) 0.87844(19)
H5_3 H 0.0087 0.8984 0.8834
C13_3 C 0.0026(8) 0.8288(3) 0.8499(2)
C14_3 C 0.0943(8) 0.7835(3) 0.8409(2)
C15_3 C 0.2597(10) 0.7759(2) 0.86223(18)
H7_3 H 0.3240 0.7449 0.8565
C16_3 C 0.3372(8) 0.8134(2) 0.89281(18)
H8_3 H 0.4487 0.8068 0.9079
C17_3 C 0.0121(13) 0.7436(3) 0.8083(2)
O1_3 O 0.1111(8) 0.70623(17) 0.79670(13)
H4_4 H 0.9512 0.8918 0.0406
C43_4 C 0.8675(6) 0.9676(2) 0.10450(16)
H21_4 H 0.8226 0.9879 0.0803
C44_4 C 0.7505(6) 0.9496(2) 0.13550(16)
H22_4 H 0.6275 0.9577 0.1320
C45_4 C 0.8151(5) 0.91977(18) 0.17157(14)
C48_4 C 0.6892(5) 0.89521(17) 0.20299(14)
Fe2_2 Fe 1.0000 0.66036(3) 0.7500
Ni1_9 Ni -0.0000 0.5000 1.0000
N1_3 N 0.0578(4) 0.47182(14) 0.94176(11)
C1_3 C 0.1932(6) 0.48876(17) 0.91489(14)
C3_3 C 0.1856(7) 0.4594(2) 0.87366(16)
H1_3 H 0.2601 0.4643 0.8500
C4_3 C 0.0516(6) 0.42364(19) 0.87560(15)
H2_3 H 0.0173 0.3984 0.8539
C10_3 C 0.3203(6) 0.52803(17) 0.92529(15)
C18_3 C 0.4489(6) 0.54423(17) 0.89104(14)
C19_4 C 0.6325(6) 0.5324(2) 0.89550(16)
H9_4 H 0.6774 0.5121 0.9197
C20_4 C 0.7495(6) 0.5504(2) 0.86450(16)
H10_4 H 0.8725 0.5423 0.8680
C21_4 C 0.6849(5) 0.58023(18) 0.82843(14)
C22_3 C 0.4998(6) 0.5910(2) 0.82279(15)
H11_3 H 0.4551 0.6103 0.7980
C23_3 C 0.3834(6) 0.5733(2) 0.85352(15)
H12_3 H 0.2600 0.5806 0.8495
C24_4 C 0.8108(5) 0.60479(17) 0.79701(14)
O3_4 O 0.9776(4) 0.59733(13) 0.80091(10)
O4_4 O 0.7488(4) 0.63537(12) 0.76610(10)
N4_3 N 0.2073(5) 0.54935(14) 0.99883(12)
C32_3 C 0.4552(8) 0.5968(2) 0.97662(18)
H16_4 H 0.5488 0.6082 0.9594
C33_3 C 0.3267(6) 0.55484(19) 0.96516(15)
Ni1_10 Ni 0.5000 1.0000 0.5000
N1_4 N 0.4422(4) 0.97182(14) 0.55824(11)
N2_3 N 0.7073(5) 0.95065(14) 0.49883(12)
C1_4 C 0.3068(6) 0.98876(17) 0.58511(14)
C2_4 C 0.5291(6) 0.93139(18) 0.58270(14)
C3_4 C 0.3144(7) 0.9594(2) 0.62634(16)
H1_4 H 0.2399 0.9643 0.6500
C4_4 C 0.4484(6) 0.92364(19) 0.62440(15)
H2_4 H 0.4827 0.8984 0.6461
C5_4 C 0.6784(6) 0.90254(18) 0.56963(15)
C6_4 C 0.7607(6) 0.91304(18) 0.53077(15)
C7_4 C 0.9159(8) 0.8839(2) 0.51618(19)
H3_4 H 0.9772 0.8565 0.5317
C8_3 C 0.9552(8) 0.9032(2) 0.47662(18)
C9_3 C 0.8267(6) 0.94516(19) 0.46516(15)
C11_4 C 0.7561(6) 0.85997(19) 0.60026(16)
C12_4 C 0.9259(8) 0.8674(2) 0.62156(19)
H5_4 H 0.9913 0.8984 0.6166
C13_4 C 0.9974(8) 0.8288(3) 0.6501(2)
C14_4 C 0.9057(8) 0.7835(3) 0.6591(2)
C15_4 C 0.7403(10) 0.7759(2) 0.63777(18)
H7_4 H 0.6760 0.7449 0.6435
C16_4 C 0.6628(8) 0.8134(2) 0.60719(18)
H8_4 H 0.5513 0.8068 0.5921
C17_4 C 0.9879(13) 0.7436(3) 0.6917(2)
O1_4 O 0.8889(8) 0.70623(17) 0.70330(13)
C34_3 C 0.8203(6) 0.97197(17) 0.42529(15)
C42_3 C 0.9489(6) 0.95577(17) 0.39104(14)
C46_3 C 0.9998(6) 0.9090(2) 0.32279(15)
H23_3 H 0.9551 0.8897 0.2980
C47_3 C 0.8834(6) 0.9267(2) 0.35352(15)
H24_3 H 0.7600 0.9194 0.3495
H6_4 H 0.8872 0.8340 0.8364
O2_4 O 0.8598(10) 0.7493(4) 0.7928(3)
Ni1_11 Ni 0.5000 -0.0000 1.0000
C10_4 C 0.8203(6) 0.02803(17) 0.92529(15)
C18_4 C 0.9489(6) 0.04423(17) 0.89104(14)
C22_4 C 0.9998(6) 0.0910(2) 0.82279(15)
H11_4 H 0.9551 0.1103 0.7980
C23_4 C 0.8834(6) 0.0733(2) 0.85352(15)
H12_4 H 0.7600 0.0806 0.8495
N4_4 N 0.7073(5) 0.04935(14) 0.99883(12)
C32_4 C 0.9552(8) 0.0968(2) 0.97662(18)
C33_4 C 0.8267(6) 0.05484(19) 0.96516(15)
Ni1_12 Ni 0.5000 1.0000 -0.0000
N2_4 N 0.2927(5) 0.95065(14) 0.00117(12)
C8_4 C 0.0448(8) 0.9032(2) 0.02338(18)
C9_4 C 0.1733(6) 0.94516(19) 0.03484(15)
C34_4 C 0.1797(6) 0.97197(17) 0.07471(15)
C42_4 C 0.0511(6) 0.95577(17) 0.10896(14)
C46_4 C 0.0002(6) 0.9090(2) 0.17721(15)
H23_4 H 0.0449 0.8897 0.2020
C47_4 C 0.1166(6) 0.9267(2) 0.14648(15)
H24_4 H 0.2400 0.9194 0.1505
Cs1 Cs 0.5000 0.26083(3) 0.2500
Cs1_2 Cs -0.0000 0.76083(3) 0.2500
Cs1_3 Cs 1.0000 0.76083(3) 0.2500
Cs1_4 Cs 0.5000 0.73917(3) 0.7500
Cs1_5 Cs -0.0000 0.23917(3) 0.7500
Cs1_6 Cs 1.0000 0.23917(3) 0.7500
loop_
_geom_bond_atom_site_label_1
_geom_bond_atom_site_label_2
_geom_bond_site_symmetry_1
_geom_bond_site_symmetry_2
Fe1 O6 1_555 1_555
O10 Fe1 1_555 1_555
O12 Fe1 1_555 1_555
N2 Ni1 1_555 1_555
H4 C8 1_555 1_555
C9 N2 1_555 1_555
N3 Ni1 1_555 1_555
C25 N3 1_555 1_555
C27 C25 1_555 1_555
H13 C27 1_555 1_555
H14 C28 1_555 1_555
C34 C9 1_555 1_555
C42 C34 1_555 1_555
C43 C42 1_555 1_555
H21 C43 1_555 1_555
C44 C43 1_555 1_555
H22 C44 1_555 1_555
C45 C44 1_555 1_555
C46 C45 1_555 1_555
H23 C46 1_555 1_555
C47 C42 1_555 1_555
H24 C47 1_555 1_555
C48 C45 1_555 1_555
C8 C9 1_555 1_555
C25 C34 1_555 1_555
C27 C28 1_555 1_555
C46 C47 1_555 1_555
C48 O10 1_555 1_555
C48 O12 1_555 1_555
C18 C10 1_555 1_555
H11 C22 1_555 1_555
C23 C18 1_555 1_555
H12 C23 1_555 1_555
N3_2 Ni1_2 1_555 1_555
N4 Ni1_2 1_555 1_555
C25_2 N3_2 1_555 1_555
C26 N3_2 1_555 1_555
C27_2 C25_2 1_555 1_555
H13_2 C27_2 1_555 1_555
C28_2 C26 1_555 1_555
H14_2 C28_2 1_555 1_555
C29 C26 1_555 1_555
C30 N4 1_555 1_555
C31 C30 1_555 1_555
H15 C31 1_555 1_555
C32 C31 1_555 1_555
C33 C10 1_555 1_555
C35 C29 1_555 1_555
C36 C35 1_555 1_555
H17 C36 1_555 1_555
C37 C36 1_555 1_555
C38 C37 1_555 1_555
C39 C38 1_555 1_555
H19 C39 1_555 1_555
C40 C35 1_555 1_555
H20 C40 1_555 1_555
C41 C38 1_555 1_555
O6 C41 1_555 1_555
C22 C23 1_555 1_555
N4 C33 1_555 1_555
C27_2 C28_2 1_555 1_555
C29 C30 1_555 1_555
C32 C33 1_555 1_555
C39 C40 1_555 1_555
N2_2 Ni1_3 1_555 1_555
C5 C2 1_555 1_555
C6 N2_2 1_555 1_555
C7 C6 1_555 1_555
H3 C7 1_555 1_555
C8_2 C7 1_555 1_555
H4_2 C8_2 1_555 1_555
C9_2 N2_2 1_555 1_555
C11 C5 1_555 1_555
C12 C11 1_555 1_555
H5 C12 1_555 1_555
C13 C12 1_555 1_555
H6 C13 1_555 1_555
C14 C13 1_555 1_555
C15 C14 1_555 1_555
H7 C15 1_555 1_555
C16 C11 1_555 1_555
H8 C16 1_555 1_555
C17 C14 1_555 1_555
O1 C17 1_555 1_555
O2 C17 1_555 1_555
Fe4 O1 1_555 1_555
N3_3 Ni1_3 1_555 1_555
C25_3 N3_3 1_555 1_555
C27_3 C25_3 1_555 1_555
H13_3 C27_3 1_555 1_555
H14_3 C28_3 1_555 1_555
C34_2 C9_2 1_555 1_555
O7 Fe1_2 1_555 1_555
C42_2 C34_2 1_555 1_555
C43_2 C42_2 1_555 1_555
H21_2 C43_2 1_555 1_555
C44_2 C43_2 1_555 1_555
H22_2 C44_2 1_555 1_555
C45_2 C44_2 1_555 1_555
C46_2 C45_2 1_555 1_555
H23_2 C46_2 1_555 1_555
C47_2 C42_2 1_555 1_555
H24_2 C47_2 1_555 1_555
C48_2 C45_2 1_555 1_555
O9 Fe1_2 1_555 1_555
O11 Fe1_2 1_555 1_555
C5 C6 1_555 1_555
C8_2 C9_2 1_555 1_555
C15 C16 1_555 1_555
C25_3 C34_2 1_555 1_555
C27_3 C28_3 1_555 1_555
C46_2 C47_2 1_555 1_555
C48_2 O9 1_555 1_555
C48_2 O11 1_555 1_555
C5_2 C2_2 1_555 1_555
C7_2 C6_2 1_555 1_555
H3_2 C7_2 1_555 1_555
C11_2 C5_2 1_555 1_555
C12_2 C11_2 1_555 1_555
H5_2 C12_2 1_555 1_555
C13_2 C12_2 1_555 1_555
H6_2 C13_2 1_555 1_555
C14_2 C13_2 1_555 1_555
C15_2 C14_2 1_555 1_555
H7_2 C15_2 1_555 1_555
C16_2 C11_2 1_555 1_555
H8_2 C16_2 1_555 1_555
C17_2 C14_2 1_555 1_555
O1_2 C17_2 1_555 1_555
O2_2 C17_2 1_555 1_555
Fe4 O1_2 1_555 1_555
C5_2 C6_2 1_555 1_555
C15_2 C16_2 1_555 1_555
H9 C19 1_555 1_555
C20 C19 1_555 1_555
H10 C20 1_555 1_555
C21 C20 1_555 1_555
C24 C21 1_555 1_555
O3 C24 1_555 1_555
O4 C24 1_555 1_555
Fe4 O3 1_555 1_555
O4 Fe4 1_555 1_555
H9_2 C19_2 1_555 1_555
C20_2 C19_2 1_555 1_555
H10_2 C20_2 1_555 1_555
C21_2 C20_2 1_555 1_555
C24_2 C21_2 1_555 1_555
O3_2 C24_2 1_555 1_555
O4_2 C24_2 1_555 1_555
Fe4 O3_2 1_555 1_555
O4_2 Fe4 1_555 1_555
N3_4 Ni1_5 1_555 1_555
C25_4 N3_4 1_555 1_555
C26_2 N3_4 1_555 1_555
C27_4 C25_4 1_555 1_555
H13_4 C27_4 1_555 1_555
C28_4 C26_2 1_555 1_555
H14_4 C28_4 1_555 1_555
C29_2 C26_2 1_555 1_555
C31_2 C30_2 1_555 1_555
H15_2 C31_2 1_555 1_555
C35_2 C29_2 1_555 1_555
C36_2 C35_2 1_555 1_555
H17_2 C36_2 1_555 1_555
C37_2 C36_2 1_555 1_555
C38_2 C37_2 1_555 1_555
C39_2 C38_2 1_555 1_555
H19_2 C39_2 1_555 1_555
C40_2 C35_2 1_555 1_555
H20_2 C40_2 1_555 1_555
C41_2 C38_2 1_555 1_555
O7 C41_2 1_555 1_555
C27_4 C28_4 1_555 1_555
C29_2 C30_2 1_555 1_555
C39_2 C40_2 1_555 1_555
Ni1_6 N1 1_555 1_555
N1 C1 1_555 1_555
C1 C3 1_555 1_555
C3 H1 1_555 1_555
H2 C4 1_555 1_555
C10_2 C1 1_555 1_555
C18_2 C10_2 1_555 1_555
C19_3 C18_2 1_555 1_555
H9_3 C19_3 1_555 1_555
C20_3 C19_3 1_555 1_555
H10_3 C20_3 1_555 1_555
C21_3 C20_3 1_555 1_555
C22_2 C21_3 1_555 1_555
H11_2 C22_2 1_555 1_555
C23_2 C18_2 1_555 1_555
H12_2 C23_2 1_555 1_555
C24_3 C21_3 1_555 1_555
O3_3 C24_3 1_555 1_555
O4_3 C24_3 1_555 1_555
Fe2 O3_3 1_555 1_555
Fe3 O5 1_555 1_555
N4_2 Ni1_6 1_555 1_555
C29_3 C26_3 1_555 1_555
C30_3 N4_2 1_555 1_555
C31_3 C30_3 1_555 1_555
H15_3 C31_3 1_555 1_555
C32_2 C31_3 1_555 1_555
H16_3 C32_2 1_555 1_555
C33_2 C10_2 1_555 1_555
C35_3 C29_3 1_555 1_555
C36_3 C35_3 1_555 1_555
H17_3 C36_3 1_555 1_555
C37_3 C36_3 1_555 1_555
H18_3 C37_3 1_555 1_555
C38_3 C37_3 1_555 1_555
C39_3 C38_3 1_555 1_555
H19_3 C39_3 1_555 1_555
C40_3 C35_3 1_555 1_555
H20_3 C40_3 1_555 1_555
C41_3 C38_3 1_555 1_555
O5 C41_3 1_555 1_555
O8_3 C41_3 1_555 1_555
C3 C4 1_555 1_555
C22_2 C23_2 1_555 1_555
O4_3 Fe2 1_555 1_555
N4_2 C33_2 1_555 1_555
C29_3 C30_3 1_555 1_555
C32_2 C33_2 1_555 1_555
C39_3 C40_3 1_555 1_555
Fe3 O5_2 1_555 1_555
C29_4 C26_4 1_555 1_555
C31_4 C30_4 1_555 1_555
H15_4 C31_4 1_555 1_555
C35_4 C29_4 1_555 1_555
C36_4 C35_4 1_555 1_555
H17_4 C36_4 1_555 1_555
C37_4 C36_4 1_555 1_555
H18_4 C37_4 1_555 1_555
C38_4 C37_4 1_555 1_555
C39_4 C38_4 1_555 1_555
H19_4 C39_4 1_555 1_555
C40_4 C35_4 1_555 1_555
H20_4 C40_4 1_555 1_555
C41_4 C38_4 1_555 1_555
O5_2 C41_4 1_555 1_555
O8_4 C41_4 1_555 1_555
C29_4 C30_4 1_555 1_555
C39_4 C40_4 1_555 1_555
H21_3 C43_3 1_555 1_555
C44_3 C43_3 1_555 1_555
H22_3 C44_3 1_555 1_555
C45_3 C44_3 1_555 1_555
C48_3 C45_3 1_555 1_555
O9_2 Fe3 1_555 1_555
O10_2 Fe3 1_555 1_555
O11_2 Fe3 1_555 1_555
O12_2 Fe3 1_555 1_555
C48_3 O9_2 1_555 1_555
C48_3 O11_2 1_555 1_555
Ni1_8 N1_2 1_555 1_555
N1_2 C1_2 1_555 1_555
C1_2 C3_2 1_555 1_555
C2_3 N1_2 1_555 1_555
C3_2 H1_2 1_555 1_555
C4_2 C2_3 1_555 1_555
H2_2 C4_2 1_555 1_555
C5_3 C2_3 1_555 1_555
C7_3 C6_3 1_555 1_555
H3_3 C7_3 1_555 1_555
C11_3 C5_3 1_555 1_555
C12_3 C11_3 1_555 1_555
H5_3 C12_3 1_555 1_555
C13_3 C12_3 1_555 1_555
C14_3 C13_3 1_555 1_555
C15_3 C14_3 1_555 1_555
H7_3 C15_3 1_555 1_555
C16_3 C11_3 1_555 1_555
H8_3 C16_3 1_555 1_555
C17_3 C14_3 1_555 1_555
O1_3 C17_3 1_555 1_555
Fe2 O1_3 1_555 1_555
C3_2 C4_2 1_555 1_555
C5_3 C6_3 1_555 1_555
C15_3 C16_3 1_555 1_555
H21_4 C43_4 1_555 1_555
C44_4 C43_4 1_555 1_555
H22_4 C44_4 1_555 1_555
C45_4 C44_4 1_555 1_555
C48_4 C45_4 1_555 1_555
C48_4 O10_2 1_555 1_555
C48_4 O12_2 1_555 1_555
Ni1_9 N1_3 1_555 1_555
N1_3 C1_3 1_555 1_555
C1_3 C3_3 1_555 1_555
C3_3 H1_3 1_555 1_555
H2_3 C4_3 1_555 1_555
C10_3 C1_3 1_555 1_555
C18_3 C10_3 1_555 1_555
C19_4 C18_3 1_555 1_555
H9_4 C19_4 1_555 1_555
C20_4 C19_4 1_555 1_555
H10_4 C20_4 1_555 1_555
C21_4 C20_4 1_555 1_555
C22_3 C21_4 1_555 1_555
H11_3 C22_3 1_555 1_555
C23_3 C18_3 1_555 1_555
H12_3 C23_3 1_555 1_555
C24_4 C21_4 1_555 1_555
O3_4 C24_4 1_555 1_555
O4_4 C24_4 1_555 1_555
Fe2_2 O3_4 1_555 1_555
N4_3 Ni1_9 1_555 1_555
H16_4 C32_3 1_555 1_555
C33_3 C10_3 1_555 1_555
C3_3 C4_3 1_555 1_555
C22_3 C23_3 1_555 1_555
O4_4 Fe2_2 1_555 1_555
N4_3 C33_3 1_555 1_555
C32_3 C33_3 1_555 1_555
Ni1_10 N1_4 1_555 1_555
N1_4 C1_4 1_555 1_555
N2_3 Ni1_10 1_555 1_555
C1_4 C3_4 1_555 1_555
C2_4 N1_4 1_555 1_555
C3_4 H1_4 1_555 1_555
C4_4 C2_4 1_555 1_555
H2_4 C4_4 1_555 1_555
C5_4 C2_4 1_555 1_555
C6_4 N2_3 1_555 1_555
C7_4 C6_4 1_555 1_555
H3_4 C7_4 1_555 1_555
C8_3 C7_4 1_555 1_555
C9_3 N2_3 1_555 1_555
C11_4 C5_4 1_555 1_555
C12_4 C11_4 1_555 1_555
H5_4 C12_4 1_555 1_555
C13_4 C12_4 1_555 1_555
C14_4 C13_4 1_555 1_555
C15_4 C14_4 1_555 1_555
H7_4 C15_4 1_555 1_555
C16_4 C11_4 1_555 1_555
H8_4 C16_4 1_555 1_555
C17_4 C14_4 1_555 1_555
O1_4 C17_4 1_555 1_555
Fe2_2 O1_4 1_555 1_555
C34_3 C9_3 1_555 1_555
C42_3 C34_3 1_555 1_555
H23_3 C46_3 1_555 1_555
C47_3 C42_3 1_555 1_555
H24_3 C47_3 1_555 1_555
C3_4 C4_4 1_555 1_555
C5_4 C6_4 1_555 1_555
C8_3 C9_3 1_555 1_555
C15_4 C16_4 1_555 1_555
C46_3 C47_3 1_555 1_555
C18_4 C10_4 1_555 1_555
H11_4 C22_4 1_555 1_555
C23_4 C18_4 1_555 1_555
H12_4 C23_4 1_555 1_555
N4_4 Ni1_11 1_555 1_555
C33_4 C10_4 1_555 1_555
C22_4 C23_4 1_555 1_555
N4_4 C33_4 1_555 1_555
C32_4 C33_4 1_555 1_555
N2_4 Ni1_12 1_555 1_555
C9_4 N2_4 1_555 1_555
C34_4 C9_4 1_555 1_555
C42_4 C34_4 1_555 1_555
H23_4 C46_4 1_555 1_555
C47_4 C42_4 1_555 1_555
H24_4 C47_4 1_555 1_555
C8_4 C9_4 1_555 1_555
C46_4 C47_4 1_555 1_555

#END
