
###############################################################################
#
# This file contains modified crystal structure data generated from the
# MOF subset of the Cambridge Structural Database (CSD) v543 
# hosted by the Cambridge Crystallographic Data Centre (CCDC).
#
# This work is licensed under the Creative Commons
# Attribution-NonCommercial-ShareAlike 4.0 International License.
# To view a copy of this license, visit
# http://creativecommons.org/licenses/by-nc-sa/4.0/
# or send a letter to
# Creative Commons, PO Box 1866, Mountain View, CA 94042, USA.
#
# CIF created using the CSD Python API on 29 September 2022
# The structure has been converted into the P1 space group
# The structure has a 3D framework
# The original CSD entry PAQTOS01 is in the monoclinic crystal system
# The framework has been calculated to contain at least 10.0% void space
# The void calculation uses a probe of radius 1.32A, grid spacing 0.4
# The framework is charged, counterions have been retained in the structure
#
###############################################################################

data_PAQTOS01
_chemical_formula_moiety         '(C192 H96 Fe2 N16 Ni12 O28 Rb6 4+)n'
_symmetry_cell_setting           triclinic
_symmetry_space_group_name_H-M   'P 1'
_symmetry_Int_Tables_number      1
_space_group_name_Hall           'P 1'
loop_
_symmetry_equiv_pos_site_id
_symmetry_equiv_pos_as_xyz
1 x,y,z
_cell_length_a                   7.366(3)
_cell_length_b                   25.065(10)
_cell_length_c                   30.377(12)
_cell_angle_alpha                90
_cell_angle_beta                 93.030(8)
_cell_angle_gamma                90
_cell_volume                     5600.63
loop_
_atom_site_label
_atom_site_type_symbol
_atom_site_fract_x
_atom_site_fract_y
_atom_site_fract_z
H1 H 0.0616 0.1041 0.4623
C15 C 0.0038(11) 0.1695(4) 0.6505(3)
H7 H 0.1197 0.1642 0.6634
C17 C 0.0049(18) 0.2545(4) 0.6928(3)
O2 O 0.1611(14) 0.2439(4) 0.7074(3)
C19 C 0.1340(7) 0.0342(2) 0.39549(16)
H9 H 0.1792 0.0139 0.4192
C20 C 0.2524(7) 0.0533(2) 0.36424(15)
H10 H 0.3761 0.0460 0.3676
C21 C 0.1856(6) 0.08266(19) 0.32884(14)
C24 C 0.3090(6) 0.10650(18) 0.29651(14)
O3 O 0.4786(4) 0.10021(14) 0.30042(11)
O4 O 0.2461(4) 0.13800(14) 0.26654(10)
Fe2 Fe 0.5000 0.16221(4) 0.2500
Fe4 Fe 0.0000 0.33779(4) 0.7500
Ni1 Ni 0.5000 -0.0000 1.0000
N2 N 0.5569(5) 0.02803(15) 0.94141(11)
C3 C 0.0819(10) 0.1160(3) 0.9837(2)
H2 H 0.0240 0.1444 0.9690
C4 C 0.2368(7) 0.0865(2) 0.96944(16)
C5 C 0.3186(7) 0.0966(2) 0.93052(15)
C6 C 0.4702(6) 0.0674(2) 0.91807(14)
C7 C 0.5523(7) 0.0747(2) 0.87599(16)
H3 H 0.5185 0.0996 0.8544
C8 C 0.6850(7) 0.0390(2) 0.87435(16)
H4 H 0.7595 0.0337 0.8510
C9 C 0.6926(6) 0.0102(2) 0.91503(13)
C11 C 0.2398(8) 0.1384(2) 0.89936(17)
C12 C 0.3366(12) 0.1870(3) 0.8917(2)
H5 H 0.4487 0.1938 0.9061
C13 C 0.2573(16) 0.2234(3) 0.8620(3)
H6 H 0.3189 0.2549 0.8565
C14 C 0.0870(13) 0.2144(3) 0.8401(2)
C16 C 0.0695(9) 0.1308(3) 0.8779(2)
H8 H 0.0048 0.0997 0.8826
O1 O 0.1058(12) 0.2922(2) 0.79578(16)
H1_2 H 0.9384 0.1041 0.0377
C19_2 C 0.8660(7) 0.0342(2) 0.10451(16)
H9_2 H 0.8208 0.0139 0.0808
C20_2 C 0.7476(7) 0.0533(2) 0.13576(15)
H10_2 H 0.6239 0.0460 0.1324
C21_2 C 0.8144(6) 0.08266(19) 0.17116(14)
C24_2 C 0.6910(6) 0.10650(18) 0.20349(14)
O3_2 O 0.5214(4) 0.10021(14) 0.19958(11)
O4_2 O 0.7539(4) 0.13800(14) 0.23346(10)
Ni1_2 Ni 1.0000 0.5000 0.5000
N2_2 N 0.9431(5) 0.52803(15) 0.55859(11)
C7_2 C 0.9477(7) 0.5747(2) 0.62401(16)
H3_2 H 0.9815 0.5996 0.6456
C8_2 C 0.8150(7) 0.5390(2) 0.62565(16)
H4_2 H 0.7405 0.5337 0.6490
C9_2 C 0.8074(6) 0.5102(2) 0.58497(13)
N3 N 0.7915(5) 0.45128(15) 0.50102(12)
C25 C 0.6704(7) 0.4444(2) 0.53435(16)
C26 C 0.5383(10) 0.4052(3) 0.5219(2)
H13 H 0.4384 0.3959 0.5377
C27 C 0.5819(10) 0.3840(3) 0.4837(2)
H14 H 0.5240 0.3556 0.4690
C28 C 0.7368(7) 0.4135(2) 0.46944(16)
C29 C 0.8186(7) 0.4034(2) 0.43052(15)
C30 C 0.9702(6) 0.4326(2) 0.41807(14)
C34 C 0.6784(6) 0.4712(2) 0.57411(14)
C35 C 0.7398(8) 0.3616(2) 0.39936(17)
C36 C 0.8366(12) 0.3130(3) 0.3917(2)
H17 H 0.9487 0.3062 0.4061
C37 C 0.7573(16) 0.2766(3) 0.3620(3)
H18 H 0.8189 0.2451 0.3565
C38 C 0.5870(13) 0.2856(3) 0.3401(2)
C39 C 0.4962(11) 0.3305(4) 0.3495(3)
H19 H 0.3803 0.3358 0.3366
C40 C 0.5695(9) 0.3692(3) 0.3779(2)
H20 H 0.5048 0.4003 0.3826
C41 C 0.4951(18) 0.2455(4) 0.3072(3)
O5 O 0.6058(12) 0.2078(2) 0.29578(16)
O8 O 0.3389(14) 0.2561(4) 0.2926(3)
C42 C 0.5526(6) 0.4541(2) 0.60913(14)
C43 C 0.3660(7) 0.4658(2) 0.60451(16)
H21 H 0.3208 0.4861 0.5808
C44 C 0.2476(7) 0.4467(2) 0.63576(15)
H22 H 0.1239 0.4540 0.6324
C45 C 0.3144(6) 0.41734(19) 0.67116(14)
C46 C 0.5025(7) 0.4067(2) 0.67681(15)
H23 H 0.5482 0.3871 0.7009
C47 C 0.6189(7) 0.4262(3) 0.64569(17)
H24 H 0.7433 0.4202 0.6497
C48 C 0.1910(6) 0.39350(18) 0.70349(14)
O9 O 0.0214(4) 0.39979(14) 0.69958(11)
O11 O 0.2539(4) 0.36200(14) 0.73346(10)
Ni1_3 Ni -0.0000 0.5000 -0.0000
C27_2 C 0.4181(10) 0.3840(3) 0.0163(2)
H14_2 H 0.4760 0.3556 0.0310
C28_2 C 0.2632(7) 0.4135(2) 0.03056(16)
C29_2 C 0.1814(7) 0.4034(2) 0.06948(15)
C30_2 C 0.0298(6) 0.4326(2) 0.08193(14)
C35_2 C 0.2602(8) 0.3616(2) 0.10064(17)
C36_2 C 0.1634(12) 0.3130(3) 0.1083(2)
H17_2 H 0.0513 0.3062 0.0939
C37_2 C 0.2427(16) 0.2766(3) 0.1380(3)
H18_2 H 0.1811 0.2451 0.1435
C38_2 C 0.4130(13) 0.2856(3) 0.1599(2)
C39_2 C 0.5038(11) 0.3305(4) 0.1505(3)
H19_2 H 0.6197 0.3358 0.1634
C40_2 C 0.4305(9) 0.3692(3) 0.1221(2)
H20_2 H 0.4952 0.4003 0.1174
C41_2 C 0.5049(18) 0.2455(4) 0.1928(3)
O5_2 O 0.3942(12) 0.2078(2) 0.20422(16)
O8_2 O 0.6611(14) 0.2561(4) 0.2074(3)
Ni1_4 Ni 0.5000 -0.0000 0.5000
N1 N 0.7085(5) 0.04872(15) 0.49898(12)
N2_3 N 0.4431(5) 0.02803(15) 0.55859(11)
C1 C 0.8296(7) 0.0556(2) 0.46565(16)
C2 C 0.9617(10) 0.0948(3) 0.4781(2)
C3_2 C 0.9181(10) 0.1160(3) 0.5163(2)
H2_2 H 0.9760 0.1444 0.5310
C4_2 C 0.7632(7) 0.0865(2) 0.53056(16)
C5_2 C 0.6814(7) 0.0966(2) 0.56948(15)
C6_2 C 0.5298(6) 0.0674(2) 0.58193(14)
C7_3 C 0.4477(7) 0.0747(2) 0.62401(16)
H3_3 H 0.4815 0.0996 0.6456
C8_3 C 0.3150(7) 0.0390(2) 0.62565(16)
H4_3 H 0.2405 0.0337 0.6490
C9_3 C 0.3074(6) 0.0102(2) 0.58497(13)
C10 C 0.8216(6) 0.0288(2) 0.42589(14)
C11_2 C 0.7602(8) 0.1384(2) 0.60064(17)
C12_2 C 0.6634(12) 0.1870(3) 0.6083(2)
H5_2 H 0.5513 0.1938 0.5939
C13_2 C 0.7427(16) 0.2234(3) 0.6380(3)
H6_2 H 0.6811 0.2549 0.6435
C14_2 C 0.9130(13) 0.2144(3) 0.6599(2)
C16_2 C 0.9305(9) 0.1308(3) 0.6221(2)
H8_2 H 0.9952 0.0997 0.6174
O1_2 O 0.8942(12) 0.2922(2) 0.70422(16)
C18 C 0.9474(6) 0.0459(2) 0.39087(14)
C22 C 0.9975(7) 0.0933(2) 0.32319(15)
H11 H 0.9518 0.1129 0.2991
C23 C 0.8811(7) 0.0738(3) 0.35431(17)
H12 H 0.7567 0.0798 0.3503
Fe4_2 Fe 1.0000 0.33779(4) 0.7500
C15_2 C 0.9962(11) 0.1695(4) 0.8495(3)
H7_2 H 0.8803 0.1642 0.8366
C17_2 C 0.9951(18) 0.2545(4) 0.8072(3)
O2_2 O 0.8389(14) 0.2439(4) 0.7926(3)
O10 O 0.9786(4) 0.39979(14) 0.80042(11)
O12 O 0.7461(4) 0.36200(14) 0.76654(10)
Ni1_5 Ni -0.0000 0.5000 1.0000
N2_4 N 0.0569(5) 0.52803(15) 0.94141(11)
C7_4 C 0.0523(7) 0.5747(2) 0.87599(16)
H3_4 H 0.0185 0.5996 0.8544
C8_4 C 0.1850(7) 0.5390(2) 0.87435(16)
H4_4 H 0.2595 0.5337 0.8510
C9_4 C 0.1926(6) 0.5102(2) 0.91503(13)
N3_2 N 0.2085(5) 0.45128(15) 0.99898(12)
C25_2 C 0.3296(7) 0.4444(2) 0.96565(16)
C26_2 C 0.4617(10) 0.4052(3) 0.9781(2)
H13_2 H 0.5616 0.3959 0.9623
C34_2 C 0.3216(6) 0.4712(2) 0.92589(14)
C42_2 C 0.4474(6) 0.4541(2) 0.89087(14)
C43_2 C 0.6340(7) 0.4658(2) 0.89549(16)
H21_2 H 0.6792 0.4861 0.9192
C44_2 C 0.7524(7) 0.4467(2) 0.86424(15)
H22_2 H 0.8761 0.4540 0.8676
C45_2 C 0.6856(6) 0.41734(19) 0.82884(14)
C46_2 C 0.4975(7) 0.4067(2) 0.82319(15)
H23_2 H 0.4518 0.3871 0.7991
C47_2 C 0.3811(7) 0.4262(3) 0.85431(17)
H24_2 H 0.2567 0.4202 0.8503
C48_2 C 0.8090(6) 0.39350(18) 0.79651(14)
Ni1_6 Ni 0.5000 1.0000 0.5000
Fe3 Fe 0.0000 0.66221(4) 0.2500
N3_3 N 0.2915(5) 0.95128(15) 0.50102(12)
N4 N 0.5569(5) 0.97197(15) 0.44141(11)
C25_3 C 0.1704(7) 0.9444(2) 0.53435(16)
C26_3 C 0.0383(10) 0.9052(3) 0.5219(2)
C27_3 C 0.0819(10) 0.8840(3) 0.4837(2)
H14_3 H 0.0240 0.8556 0.4690
C28_3 C 0.2368(7) 0.9135(2) 0.46944(16)
C29_3 C 0.3186(7) 0.9034(2) 0.43052(15)
C30_3 C 0.4702(6) 0.9326(2) 0.41807(14)
C31 C 0.5523(7) 0.9253(2) 0.37599(16)
H15 H 0.5185 0.9004 0.3544
C32 C 0.6850(7) 0.9610(2) 0.37435(16)
H16 H 0.7595 0.9663 0.3510
C33 C 0.6926(6) 0.9898(2) 0.41503(13)
C34_3 C 0.1784(6) 0.9712(2) 0.57411(14)
C35_3 C 0.2398(8) 0.8616(2) 0.39936(17)
C36_3 C 0.3366(12) 0.8130(3) 0.3917(2)
H17_3 H 0.4487 0.8062 0.4061
C37_3 C 0.2573(16) 0.7766(3) 0.3620(3)
H18_3 H 0.3189 0.7451 0.3565
C38_3 C 0.0870(13) 0.7856(3) 0.3401(2)
C40_3 C 0.0695(9) 0.8692(3) 0.3779(2)
H20_3 H 0.0048 0.9003 0.3826
O5_3 O 0.1058(12) 0.7078(2) 0.29578(16)
C42_3 C 0.0526(6) 0.9541(2) 0.60913(14)
C46_3 C 0.0025(7) 0.9067(2) 0.67681(15)
H23_3 H 0.0482 0.8871 0.7009
C47_3 C 0.1189(7) 0.9262(3) 0.64569(17)
H24_3 H 0.2433 0.9202 0.6497
C39_3 C 0.0038(11) 0.8305(4) 0.1505(3)
H19_3 H 0.1197 0.8358 0.1634
C41_3 C 0.0049(18) 0.7455(4) 0.1928(3)
O8_3 O 0.1611(14) 0.7561(4) 0.2074(3)
Ni1_7 Ni 1.0000 0.5000 -0.0000
N1_2 N 0.7915(5) 0.54872(15) 0.00102(12)
C1_2 C 0.6704(7) 0.5556(2) 0.03435(16)
C2_2 C 0.5383(10) 0.5948(3) 0.0219(2)
H1_3 H 0.4384 0.6041 0.0377
C10_2 C 0.6784(6) 0.5288(2) 0.07411(14)
C18_2 C 0.5526(6) 0.5459(2) 0.10913(14)
C19_3 C 0.3660(7) 0.5342(2) 0.10451(16)
H9_3 H 0.3208 0.5139 0.0808
C20_3 C 0.2476(7) 0.5533(2) 0.13576(15)
H10_3 H 0.1239 0.5460 0.1324
C21_3 C 0.3144(6) 0.58266(19) 0.17116(14)
C22_2 C 0.5025(7) 0.5933(2) 0.17681(15)
H11_2 H 0.5482 0.6129 0.2009
C23_2 C 0.6189(7) 0.5738(3) 0.14569(17)
H12_2 H 0.7433 0.5798 0.1497
C24_3 C 0.1910(6) 0.60650(18) 0.20349(14)
O3_3 O 0.0214(4) 0.60021(14) 0.19958(11)
O4_3 O 0.2539(4) 0.63800(14) 0.23346(10)
N4_2 N 0.9431(5) 0.47197(15) 0.05859(11)
C31_2 C 0.9477(7) 0.4253(2) 0.12401(16)
H15_2 H 0.9815 0.4004 0.1456
C32_2 C 0.8150(7) 0.4610(2) 0.12565(16)
H16_2 H 0.7405 0.4663 0.1490
C33_2 C 0.8074(6) 0.4898(2) 0.08497(13)
Fe1 Fe 0.5000 0.83779(4) 0.7500
Fe3_2 Fe 1.0000 0.66221(4) 0.2500
H13_3 H 0.9384 0.8959 0.5377
C39_4 C 0.9962(11) 0.8305(4) 0.3495(3)
H19_4 H 0.8803 0.8358 0.3366
C41_4 C 0.9951(18) 0.7455(4) 0.3072(3)
O6 O 0.3942(12) 0.7922(2) 0.70422(16)
O7 O 0.6058(12) 0.7922(2) 0.79578(16)
O8_4 O 0.8389(14) 0.7561(4) 0.2926(3)
C43_3 C 0.8660(7) 0.9658(2) 0.60451(16)
H21_3 H 0.8208 0.9861 0.5808
C44_3 C 0.7476(7) 0.9467(2) 0.63576(15)
H22_3 H 0.6239 0.9540 0.6324
C45_3 C 0.8144(6) 0.91734(19) 0.67116(14)
C48_3 C 0.6910(6) 0.89350(18) 0.70349(14)
O9_2 O 0.5214(4) 0.89979(14) 0.69958(11)
O10_2 O 0.4786(4) 0.89979(14) 0.80042(11)
O11_2 O 0.7539(4) 0.86200(14) 0.73346(10)
O12_2 O 0.2461(4) 0.86200(14) 0.76654(10)
H13_4 H 0.0616 0.8959 0.9623
C43_4 C 0.1340(7) 0.9658(2) 0.89549(16)
H21_4 H 0.1792 0.9861 0.9192
C44_4 C 0.2524(7) 0.9467(2) 0.86424(15)
H22_4 H 0.3761 0.9540 0.8676
C45_4 C 0.1856(6) 0.91734(19) 0.82884(14)
C48_4 C 0.3090(6) 0.89350(18) 0.79651(14)
Ni1_8 Ni 0.5000 1.0000 -0.0000
N4_3 N 0.4431(5) 0.97197(15) 0.05859(11)
C27_4 C 0.9181(10) 0.8840(3) 0.0163(2)
H14_4 H 0.9760 0.8556 0.0310
C28_4 C 0.7632(7) 0.9135(2) 0.03056(16)
C29_4 C 0.6814(7) 0.9034(2) 0.06948(15)
C30_4 C 0.5298(6) 0.9326(2) 0.08193(14)
C31_3 C 0.4477(7) 0.9253(2) 0.12401(16)
H15_3 H 0.4815 0.9004 0.1456
C32_3 C 0.3150(7) 0.9610(2) 0.12565(16)
H16_3 H 0.2405 0.9663 0.1490
C33_3 C 0.3074(6) 0.9898(2) 0.08497(13)
C35_4 C 0.7602(8) 0.8616(2) 0.10064(17)
C36_4 C 0.6634(12) 0.8130(3) 0.1083(2)
H17_4 H 0.5513 0.8062 0.0939
C37_4 C 0.7427(16) 0.7766(3) 0.1380(3)
H18_4 H 0.6811 0.7451 0.1435
C38_4 C 0.9130(13) 0.7856(3) 0.1599(2)
C40_4 C 0.9305(9) 0.8692(3) 0.1221(2)
H20_4 H 0.9952 0.9003 0.1174
O5_4 O 0.8942(12) 0.7078(2) 0.20422(16)
Ni1_9 Ni 0.0000 0.5000 0.5000
N1_3 N 0.2085(5) 0.54872(15) 0.49898(12)
C1_3 C 0.3296(7) 0.5556(2) 0.46565(16)
C2_3 C 0.4617(10) 0.5948(3) 0.4781(2)
H1_4 H 0.5616 0.6041 0.4623
C3_3 C 0.4181(10) 0.6160(3) 0.5163(2)
H2_3 H 0.4760 0.6444 0.5310
C4_3 C 0.2632(7) 0.5865(2) 0.53056(16)
C5_3 C 0.1814(7) 0.5966(2) 0.56948(15)
C6_3 C 0.0298(6) 0.5674(2) 0.58193(14)
C10_3 C 0.3216(6) 0.5288(2) 0.42589(14)
C11_3 C 0.2602(8) 0.6384(2) 0.60064(17)
C12_3 C 0.1634(12) 0.6870(3) 0.6083(2)
H5_3 H 0.0513 0.6938 0.5939
C13_3 C 0.2427(16) 0.7234(3) 0.6380(3)
H6_3 H 0.1811 0.7549 0.6435
C14_3 C 0.4130(13) 0.7144(3) 0.6599(2)
C15_3 C 0.5038(11) 0.6695(4) 0.6505(3)
H7_3 H 0.6197 0.6642 0.6634
C16_3 C 0.4305(9) 0.6308(3) 0.6221(2)
H8_3 H 0.4952 0.5997 0.6174
C17_3 C 0.5049(18) 0.7545(4) 0.6928(3)
O2_3 O 0.6611(14) 0.7439(4) 0.7074(3)
C18_3 C 0.4474(6) 0.5459(2) 0.39087(14)
C19_4 C 0.6340(7) 0.5342(2) 0.39549(16)
H9_4 H 0.6792 0.5139 0.4192
C20_4 C 0.7524(7) 0.5533(2) 0.36424(15)
H10_4 H 0.8761 0.5460 0.3676
C21_4 C 0.6856(6) 0.58266(19) 0.32884(14)
C22_3 C 0.4975(7) 0.5933(2) 0.32319(15)
H11_3 H 0.4518 0.6129 0.2991
C23_3 C 0.3811(7) 0.5738(3) 0.35431(17)
H12_3 H 0.2567 0.5798 0.3503
C24_4 C 0.8090(6) 0.60650(18) 0.29651(14)
O3_4 O 0.9786(4) 0.60021(14) 0.30042(11)
O4_4 O 0.7461(4) 0.63800(14) 0.26654(10)
N4_4 N 0.0569(5) 0.47197(15) 0.44141(11)
C31_4 C 0.0523(7) 0.4253(2) 0.37599(16)
H15_4 H 0.0185 0.4004 0.3544
C32_4 C 0.1850(7) 0.4610(2) 0.37435(16)
H16_4 H 0.2595 0.4663 0.3510
C33_4 C 0.1926(6) 0.4898(2) 0.41503(13)
Ni1_10 Ni 1.0000 0.5000 1.0000
C3_4 C 0.5819(10) 0.6160(3) 0.9837(2)
H2_4 H 0.5240 0.6444 0.9690
C4_4 C 0.7368(7) 0.5865(2) 0.96944(16)
C5_4 C 0.8186(7) 0.5966(2) 0.93052(15)
C6_4 C 0.9702(6) 0.5674(2) 0.91807(14)
C11_4 C 0.7398(8) 0.6384(2) 0.89936(17)
C12_4 C 0.8366(12) 0.6870(3) 0.8917(2)
H5_4 H 0.9487 0.6938 0.9061
C13_4 C 0.7573(16) 0.7234(3) 0.8620(3)
H6_4 H 0.8189 0.7549 0.8565
C14_4 C 0.5870(13) 0.7144(3) 0.8401(2)
C15_4 C 0.4962(11) 0.6695(4) 0.8495(3)
H7_4 H 0.3803 0.6642 0.8366
C16_4 C 0.5695(9) 0.6308(3) 0.8779(2)
H8_4 H 0.5048 0.5997 0.8826
C17_4 C 0.4951(18) 0.7545(4) 0.8072(3)
O2_4 O 0.3389(14) 0.7439(4) 0.7926(3)
Ni1_11 Ni 0.5000 0.0000 -0.0000
N1_4 N 0.2915(5) 0.04872(15) 0.00102(12)
C1_4 C 0.1704(7) 0.0556(2) 0.03435(16)
C2_4 C 0.0383(10) 0.0948(3) 0.0219(2)
C10_4 C 0.1784(6) 0.0288(2) 0.07411(14)
C18_4 C 0.0526(6) 0.0459(2) 0.10913(14)
C22_4 C 0.0025(7) 0.0933(2) 0.17681(15)
H11_4 H 0.0482 0.1129 0.2009
C23_4 C 0.1189(7) 0.0738(3) 0.14569(17)
H12_4 H 0.2433 0.0798 0.1497
Ni1_12 Ni 0.5000 1.0000 1.0000
N3_4 N 0.7085(5) 0.95128(15) 0.99898(12)
C25_4 C 0.8296(7) 0.9444(2) 0.96565(16)
C26_4 C 0.9617(10) 0.9052(3) 0.9781(2)
C34_4 C 0.8216(6) 0.9712(2) 0.92589(14)
C42_4 C 0.9474(6) 0.9541(2) 0.89087(14)
C46_4 C 0.9975(7) 0.9067(2) 0.82319(15)
H23_4 H 0.9518 0.8871 0.7991
C47_4 C 0.8811(7) 0.9262(3) 0.85431(17)
H24_4 H 0.7567 0.9202 0.8503
Rb1 Rb 0.5000 0.26365(5) 0.7500
Rb1_2 Rb 0.0000 0.76365(5) 0.7500
Rb1_3 Rb 1.0000 0.76365(5) 0.7500
Rb1_4 Rb 0.5000 0.73635(5) 0.2500
Rb1_5 Rb -0.0000 0.23635(5) 0.2500
Rb1_6 Rb 1.0000 0.23635(5) 0.2500
loop_
_geom_bond_atom_site_label_1
_geom_bond_atom_site_label_2
_geom_bond_site_symmetry_1
_geom_bond_site_symmetry_2
H7 C15 1_555 1_555
O2 C17 1_555 1_555
H9 C19 1_555 1_555
C20 C19 1_555 1_555
H10 C20 1_555 1_555
C21 C20 1_555 1_555
C24 C21 1_555 1_555
O3 C24 1_555 1_555
O4 C24 1_555 1_555
Fe2 O3 1_555 1_555
O4 Fe2 1_555 1_555
N2 Ni1 1_555 1_555
H2 C3 1_555 1_555
C5 C4 1_555 1_555
C6 N2 1_555 1_555
C7 C6 1_555 1_555
H3 C7 1_555 1_555
C8 C7 1_555 1_555
H4 C8 1_555 1_555
C9 N2 1_555 1_555
C11 C5 1_555 1_555
C12 C11 1_555 1_555
H5 C12 1_555 1_555
C13 C12 1_555 1_555
H6 C13 1_555 1_555
C14 C13 1_555 1_555
C16 C11 1_555 1_555
H8 C16 1_555 1_555
Fe4 O1 1_555 1_555
C3 C4 1_555 1_555
C5 C6 1_555 1_555
C8 C9 1_555 1_555
H9_2 C19_2 1_555 1_555
C20_2 C19_2 1_555 1_555
H10_2 C20_2 1_555 1_555
C21_2 C20_2 1_555 1_555
C24_2 C21_2 1_555 1_555
O3_2 C24_2 1_555 1_555
O4_2 C24_2 1_555 1_555
Fe2 O3_2 1_555 1_555
O4_2 Fe2 1_555 1_555
N2_2 Ni1_2 1_555 1_555
H3_2 C7_2 1_555 1_555
C8_2 C7_2 1_555 1_555
H4_2 C8_2 1_555 1_555
C9_2 N2_2 1_555 1_555
Fe2 O5 1_555 1_555
N3 Ni1_2 1_555 1_555
C25 N3 1_555 1_555
C26 C25 1_555 1_555
H13 C26 1_555 1_555
C27 C26 1_555 1_555
H14 C27 1_555 1_555
C28 N3 1_555 1_555
C29 C28 1_555 1_555
C34 C9_2 1_555 1_555
C35 C29 1_555 1_555
C36 C35 1_555 1_555
H17 C36 1_555 1_555
C37 C36 1_555 1_555
H18 C37 1_555 1_555
C38 C37 1_555 1_555
C39 C38 1_555 1_555
H19 C39 1_555 1_555
C40 C35 1_555 1_555
H20 C40 1_555 1_555
C41 C38 1_555 1_555
O5 C41 1_555 1_555
O8 C41 1_555 1_555
C42 C34 1_555 1_555
C43 C42 1_555 1_555
H21 C43 1_555 1_555
C44 C43 1_555 1_555
H22 C44 1_555 1_555
C45 C44 1_555 1_555
C46 C45 1_555 1_555
H23 C46 1_555 1_555
C47 C42 1_555 1_555
H24 C47 1_555 1_555
C48 C45 1_555 1_555
O9 Fe4 1_555 1_555
O11 Fe4 1_555 1_555
C8_2 C9_2 1_555 1_555
C25 C34 1_555 1_555
C27 C28 1_555 1_555
C29 C30 1_555 1_555
C39 C40 1_555 1_555
C46 C47 1_555 1_555
C48 O9 1_555 1_555
C48 O11 1_555 1_555
Fe2 O5_2 1_555 1_555
H14_2 C27_2 1_555 1_555
C29_2 C28_2 1_555 1_555
C35_2 C29_2 1_555 1_555
C36_2 C35_2 1_555 1_555
H17_2 C36_2 1_555 1_555
C37_2 C36_2 1_555 1_555
H18_2 C37_2 1_555 1_555
C38_2 C37_2 1_555 1_555
C39_2 C38_2 1_555 1_555
H19_2 C39_2 1_555 1_555
C40_2 C35_2 1_555 1_555
H20_2 C40_2 1_555 1_555
C41_2 C38_2 1_555 1_555
O5_2 C41_2 1_555 1_555
O8_2 C41_2 1_555 1_555
C27_2 C28_2 1_555 1_555
C29_2 C30_2 1_555 1_555
C39_2 C40_2 1_555 1_555
Ni1_4 N1 1_555 1_555
N1 C1 1_555 1_555
N2_3 Ni1_4 1_555 1_555
C1 C2 1_555 1_555
C3_2 C2 1_555 1_555
H2_2 C3_2 1_555 1_555
C4_2 N1 1_555 1_555
C5_2 C4_2 1_555 1_555
C6_2 N2_3 1_555 1_555
C7_3 C6_2 1_555 1_555
H3_3 C7_3 1_555 1_555
C8_3 C7_3 1_555 1_555
H4_3 C8_3 1_555 1_555
C9_3 N2_3 1_555 1_555
C10 C1 1_555 1_555
C11_2 C5_2 1_555 1_555
C12_2 C11_2 1_555 1_555
H5_2 C12_2 1_555 1_555
C13_2 C12_2 1_555 1_555
H6_2 C13_2 1_555 1_555
C14_2 C13_2 1_555 1_555
C16_2 C11_2 1_555 1_555
H8_2 C16_2 1_555 1_555
C18 C10 1_555 1_555
H11 C22 1_555 1_555
C23 C18 1_555 1_555
H12 C23 1_555 1_555
Fe4_2 O1_2 1_555 1_555
C3_2 C4_2 1_555 1_555
C5_2 C6_2 1_555 1_555
C8_3 C9_3 1_555 1_555
C22 C23 1_555 1_555
H7_2 C15_2 1_555 1_555
O2_2 C17_2 1_555 1_555
O10 Fe4_2 1_555 1_555
O12 Fe4_2 1_555 1_555
N2_4 Ni1_5 1_555 1_555
H3_4 C7_4 1_555 1_555
C8_4 C7_4 1_555 1_555
H4_4 C8_4 1_555 1_555
C9_4 N2_4 1_555 1_555
N3_2 Ni1_5 1_555 1_555
C25_2 N3_2 1_555 1_555
C26_2 C25_2 1_555 1_555
H13_2 C26_2 1_555 1_555
C34_2 C9_4 1_555 1_555
C42_2 C34_2 1_555 1_555
C43_2 C42_2 1_555 1_555
H21_2 C43_2 1_555 1_555
C44_2 C43_2 1_555 1_555
H22_2 C44_2 1_555 1_555
C45_2 C44_2 1_555 1_555
C46_2 C45_2 1_555 1_555
H23_2 C46_2 1_555 1_555
C47_2 C42_2 1_555 1_555
H24_2 C47_2 1_555 1_555
C48_2 C45_2 1_555 1_555
C8_4 C9_4 1_555 1_555
C25_2 C34_2 1_555 1_555
C46_2 C47_2 1_555 1_555
C48_2 O10 1_555 1_555
C48_2 O12 1_555 1_555
Fe3 O5_3 1_555 1_555
N3_3 Ni1_6 1_555 1_555
N4 Ni1_6 1_555 1_555
C25_3 N3_3 1_555 1_555
C26_3 C25_3 1_555 1_555
C27_3 C26_3 1_555 1_555
H14_3 C27_3 1_555 1_555
C28_3 N3_3 1_555 1_555
C29_3 C28_3 1_555 1_555
C30_3 N4 1_555 1_555
C31 C30_3 1_555 1_555
H15 C31 1_555 1_555
C32 C31 1_555 1_555
H16 C32 1_555 1_555
C35_3 C29_3 1_555 1_555
C36_3 C35_3 1_555 1_555
H17_3 C36_3 1_555 1_555
C37_3 C36_3 1_555 1_555
H18_3 C37_3 1_555 1_555
C38_3 C37_3 1_555 1_555
C40_3 C35_3 1_555 1_555
H20_3 C40_3 1_555 1_555
C42_3 C34_3 1_555 1_555
H23_3 C46_3 1_555 1_555
C47_3 C42_3 1_555 1_555
H24_3 C47_3 1_555 1_555
N4 C33 1_555 1_555
C25_3 C34_3 1_555 1_555
C27_3 C28_3 1_555 1_555
C29_3 C30_3 1_555 1_555
C32 C33 1_555 1_555
C46_3 C47_3 1_555 1_555
H19_3 C39_3 1_555 1_555
O8_3 C41_3 1_555 1_555
Ni1_7 N1_2 1_555 1_555
N1_2 C1_2 1_555 1_555
C1_2 C2_2 1_555 1_555
C2_2 H1_3 1_555 1_555
C10_2 C1_2 1_555 1_555
C18_2 C10_2 1_555 1_555
C19_3 C18_2 1_555 1_555
H9_3 C19_3 1_555 1_555
C20_3 C19_3 1_555 1_555
H10_3 C20_3 1_555 1_555
C21_3 C20_3 1_555 1_555
C22_2 C21_3 1_555 1_555
H11_2 C22_2 1_555 1_555
C23_2 C18_2 1_555 1_555
H12_2 C23_2 1_555 1_555
C24_3 C21_3 1_555 1_555
O3_3 C24_3 1_555 1_555
O4_3 C24_3 1_555 1_555
Fe3 O3_3 1_555 1_555
N4_2 Ni1_7 1_555 1_555
H15_2 C31_2 1_555 1_555
C32_2 C31_2 1_555 1_555
H16_2 C32_2 1_555 1_555
C33_2 C10_2 1_555 1_555
C22_2 C23_2 1_555 1_555
O4_3 Fe3 1_555 1_555
N4_2 C33_2 1_555 1_555
C32_2 C33_2 1_555 1_555
Fe1 O6 1_555 1_555
H19_4 C39_4 1_555 1_555
O7 Fe1 1_555 1_555
O8_4 C41_4 1_555 1_555
H21_3 C43_3 1_555 1_555
C44_3 C43_3 1_555 1_555
H22_3 C44_3 1_555 1_555
C45_3 C44_3 1_555 1_555
C48_3 C45_3 1_555 1_555
O9_2 Fe1 1_555 1_555
O10_2 Fe1 1_555 1_555
O11_2 Fe1 1_555 1_555
O12_2 Fe1 1_555 1_555
C48_3 O9_2 1_555 1_555
C48_3 O11_2 1_555 1_555
H21_4 C43_4 1_555 1_555
C44_4 C43_4 1_555 1_555
H22_4 C44_4 1_555 1_555
C45_4 C44_4 1_555 1_555
C48_4 C45_4 1_555 1_555
C48_4 O10_2 1_555 1_555
C48_4 O12_2 1_555 1_555
Fe3_2 O5_4 1_555 1_555
N4_3 Ni1_8 1_555 1_555
H14_4 C27_4 1_555 1_555
C29_4 C28_4 1_555 1_555
C30_4 N4_3 1_555 1_555
C31_3 C30_4 1_555 1_555
H15_3 C31_3 1_555 1_555
C32_3 C31_3 1_555 1_555
H16_3 C32_3 1_555 1_555
C35_4 C29_4 1_555 1_555
C36_4 C35_4 1_555 1_555
H17_4 C36_4 1_555 1_555
C37_4 C36_4 1_555 1_555
H18_4 C37_4 1_555 1_555
C38_4 C37_4 1_555 1_555
C40_4 C35_4 1_555 1_555
H20_4 C40_4 1_555 1_555
N4_3 C33_3 1_555 1_555
C27_4 C28_4 1_555 1_555
C29_4 C30_4 1_555 1_555
C32_3 C33_3 1_555 1_555
Ni1_9 N1_3 1_555 1_555
N1_3 C1_3 1_555 1_555
C1_3 C2_3 1_555 1_555
C2_3 H1_4 1_555 1_555
C3_3 C2_3 1_555 1_555
H2_3 C3_3 1_555 1_555
C4_3 N1_3 1_555 1_555
C5_3 C4_3 1_555 1_555
C10_3 C1_3 1_555 1_555
C11_3 C5_3 1_555 1_555
C12_3 C11_3 1_555 1_555
H5_3 C12_3 1_555 1_555
C13_3 C12_3 1_555 1_555
H6_3 C13_3 1_555 1_555
C14_3 C13_3 1_555 1_555
C15_3 C14_3 1_555 1_555
H7_3 C15_3 1_555 1_555
C16_3 C11_3 1_555 1_555
H8_3 C16_3 1_555 1_555
C17_3 C14_3 1_555 1_555
O6 C17_3 1_555 1_555
O2_3 C17_3 1_555 1_555
C18_3 C10_3 1_555 1_555
C19_4 C18_3 1_555 1_555
H9_4 C19_4 1_555 1_555
C20_4 C19_4 1_555 1_555
H10_4 C20_4 1_555 1_555
C21_4 C20_4 1_555 1_555
C22_3 C21_4 1_555 1_555
H11_3 C22_3 1_555 1_555
C23_3 C18_3 1_555 1_555
H12_3 C23_3 1_555 1_555
C24_4 C21_4 1_555 1_555
O3_4 C24_4 1_555 1_555
O4_4 C24_4 1_555 1_555
Fe3_2 O3_4 1_555 1_555
N4_4 Ni1_9 1_555 1_555
H15_4 C31_4 1_555 1_555
C32_4 C31_4 1_555 1_555
H16_4 C32_4 1_555 1_555
C33_4 C10_3 1_555 1_555
C3_3 C4_3 1_555 1_555
C5_3 C6_3 1_555 1_555
C15_3 C16_3 1_555 1_555
C22_3 C23_3 1_555 1_555
O4_4 Fe3_2 1_555 1_555
N4_4 C33_4 1_555 1_555
C32_4 C33_4 1_555 1_555
H2_4 C3_4 1_555 1_555
C5_4 C4_4 1_555 1_555
C11_4 C5_4 1_555 1_555
C12_4 C11_4 1_555 1_555
H5_4 C12_4 1_555 1_555
C13_4 C12_4 1_555 1_555
H6_4 C13_4 1_555 1_555
C14_4 C13_4 1_555 1_555
C15_4 C14_4 1_555 1_555
H7_4 C15_4 1_555 1_555
C16_4 C11_4 1_555 1_555
H8_4 C16_4 1_555 1_555
C17_4 C14_4 1_555 1_555
O7 C17_4 1_555 1_555
O2_4 C17_4 1_555 1_555
C3_4 C4_4 1_555 1_555
C5_4 C6_4 1_555 1_555
C15_4 C16_4 1_555 1_555
Ni1_11 N1_4 1_555 1_555
N1_4 C1_4 1_555 1_555
C1_4 C2_4 1_555 1_555
C10_4 C1_4 1_555 1_555
C18_4 C10_4 1_555 1_555
H11_4 C22_4 1_555 1_555
C23_4 C18_4 1_555 1_555
H12_4 C23_4 1_555 1_555
C22_4 C23_4 1_555 1_555
N3_4 Ni1_12 1_555 1_555
C25_4 N3_4 1_555 1_555
C26_4 C25_4 1_555 1_555
C42_4 C34_4 1_555 1_555
H23_4 C46_4 1_555 1_555
C47_4 C42_4 1_555 1_555
H24_4 C47_4 1_555 1_555
C25_4 C34_4 1_555 1_555
C46_4 C47_4 1_555 1_555

#END
