
###############################################################################
#
# This file contains modified crystal structure data generated from the
# MOF subset of the Cambridge Structural Database (CSD) v543 
# hosted by the Cambridge Crystallographic Data Centre (CCDC).
#
# This work is licensed under the Creative Commons
# Attribution-NonCommercial-ShareAlike 4.0 International License.
# To view a copy of this license, visit
# http://creativecommons.org/licenses/by-nc-sa/4.0/
# or send a letter to
# Creative Commons, PO Box 1866, Mountain View, CA 94042, USA.
#
# CIF created using the CSD Python API on 29 September 2022
# The structure has been converted into the P1 space group
# The structure has a 3D framework
# The original CSD entry PAQVOU is in the monoclinic crystal system
# The framework has been calculated to contain at least 10.0% void space
# The void calculation uses a probe of radius 1.32A, grid spacing 0.4
# The framework is charged, counterions have been retained in the structure
#
###############################################################################

data_PAQVOU
_chemical_formula_moiety         '(C192 H96 Fe2 Li6 N16 Ni15 O28 4+)n'
_symmetry_cell_setting           triclinic
_symmetry_space_group_name_H-M   'P 1'
_symmetry_Int_Tables_number      1
_space_group_name_Hall           'P 1'
loop_
_symmetry_equiv_pos_site_id
_symmetry_equiv_pos_as_xyz
1 x,y,z
_cell_length_a                   7.4852(11)
_cell_length_b                   24.226(4)
_cell_length_c                   30.107(4)
_cell_angle_alpha                90
_cell_angle_beta                 93.299(4)
_cell_angle_gamma                90
_cell_volume                     5450.45
loop_
_atom_site_label
_atom_site_type_symbol
_atom_site_fract_x
_atom_site_fract_y
_atom_site_fract_z
Fe4 Fe 0.0000 0.15213(4) 0.2500
Fe1 Fe 1.0000 0.84787(4) 0.7500
O6 O 0.9185(6) 0.79903(16) 0.70302(13)
O10 O 0.9717(4) 0.91191(14) 0.80105(11)
O12 O 0.7521(4) 0.87112(13) 0.76523(10)
Ni1 Ni 0.0000 1.0000 1.0000
N1 N 0.2025(5) 0.94990(14) 0.99770(12)
C1 C 0.3199(6) 0.9443(2) 0.96414(16)
C2 C 0.4470(8) 0.9008(3) 0.9754(2)
H1 H 0.5384 0.8889 0.9580
C10 C 0.3131(6) 0.97254(19) 0.92522(14)
C18 C 0.4424(6) 0.95723(18) 0.89072(14)
C19 C 0.6227(6) 0.97037(19) 0.89673(16)
H9 H 0.6634 0.9900 0.9219
C20 C 0.7426(6) 0.9546(2) 0.86569(16)
H10 H 0.8632 0.9636 0.8699
C21 C 0.6807(6) 0.92502(18) 0.82801(14)
C22 C 0.4990(6) 0.9127(2) 0.82265(15)
H11 H 0.4564 0.8929 0.7978
C23 C 0.3818(6) 0.9291(2) 0.85337(15)
H12 H 0.2606 0.9211 0.8489
C24 C 0.8069(6) 0.90252(18) 0.79659(14)
Ni1_2 Ni 1.0000 0.0000 -0.0000
N3 N 0.7975(5) 0.05010(14) 0.00230(12)
C25 C 0.6801(6) 0.0557(2) 0.03586(16)
C26 C 0.5530(8) 0.0992(3) 0.0246(2)
H13 H 0.4616 0.1111 0.0420
C34 C 0.6869(6) 0.02746(19) 0.07478(14)
C42 C 0.5576(6) 0.04277(18) 0.10928(14)
C43 C 0.3773(6) 0.02963(19) 0.10327(16)
H21 H 0.3366 0.0100 0.0781
C44 C 0.2574(6) 0.0454(2) 0.13431(16)
H22 H 0.1368 0.0364 0.1301
C45 C 0.3193(6) 0.07498(18) 0.17199(14)
C46 C 0.5010(6) 0.0873(2) 0.17735(15)
H23 H 0.5436 0.1071 0.2022
C47 C 0.6182(6) 0.0709(2) 0.14663(15)
H24 H 0.7394 0.0789 0.1511
C48 C 0.1931(6) 0.09748(18) 0.20341(14)
O9 O 0.0283(4) 0.08809(14) 0.19895(11)
O11 O 0.2479(4) 0.12888(13) 0.23477(10)
Ni1_3 Ni 0.5000 0.5000 0.5000
N1_2 N 0.2975(5) 0.44990(14) 0.50230(12)
N2 N 0.5572(4) 0.46986(14) 0.44277(11)
C1_2 C 0.1801(6) 0.4443(2) 0.53586(16)
C2_2 C 0.0530(8) 0.4008(3) 0.5246(2)
C3 C 0.0889(8) 0.3813(3) 0.4862(2)
H2 H 0.0258 0.3534 0.4710
C4 C 0.2428(7) 0.4099(2) 0.47062(15)
C5 C 0.3203(6) 0.39913(18) 0.43106(14)
C6 C 0.4693(6) 0.42755(17) 0.41855(14)
C7 C 0.5479(7) 0.4186(2) 0.37766(16)
H3 H 0.5134 0.3924 0.3562
C8 C 0.6833(6) 0.4553(2) 0.37573(15)
H4 H 0.7586 0.4594 0.3524
C9 C 0.6898(6) 0.48631(18) 0.41539(14)
C10_2 C 0.1869(6) 0.47254(19) 0.57478(14)
C11 C 0.2392(7) 0.3568(2) 0.40085(16)
C12 C 0.3195(9) 0.3079(2) 0.3930(2)
H5 H 0.4284 0.2994 0.4078
C13 C 0.2394(11) 0.2701(2) 0.3625(2)
H6 H 0.2942 0.2364 0.3576
C14 C 0.0795(8) 0.2831(3) 0.3397(2)
C16 C 0.0787(8) 0.3677(3) 0.3789(2)
H8 H 0.0218 0.4013 0.3833
O1 O 0.0815(6) 0.20097(16) 0.29698(13)
C18_2 C 0.0576(6) 0.45723(18) 0.60928(14)
C22_2 C 0.0010(6) 0.4127(2) 0.67735(15)
H11_2 H 0.0436 0.3929 0.7022
C23_2 C 0.1182(6) 0.4291(2) 0.64663(15)
H12_2 H 0.2394 0.4211 0.6511
N3_2 N 0.7025(5) 0.55010(14) 0.49770(12)
N4 N 0.4428(4) 0.53014(14) 0.55723(11)
C25_2 C 0.8199(6) 0.5557(2) 0.46414(16)
C26_2 C 0.9470(8) 0.5992(3) 0.4754(2)
C27 C 0.9111(8) 0.6187(3) 0.5138(2)
H14 H 0.9742 0.6466 0.5290
C28 C 0.7572(7) 0.5901(2) 0.52938(15)
C29 C 0.6797(6) 0.60087(18) 0.56894(14)
C30 C 0.5307(6) 0.57245(17) 0.58145(14)
C31 C 0.4521(7) 0.5814(2) 0.62234(16)
H15 H 0.4866 0.6076 0.6438
C32 C 0.3167(6) 0.5447(2) 0.62427(15)
H16 H 0.2414 0.5406 0.6476
C33 C 0.3102(6) 0.51369(18) 0.58461(14)
C34_2 C 0.8131(6) 0.52746(19) 0.42522(14)
C35 C 0.7608(7) 0.6432(2) 0.59915(16)
C36 C 0.6805(9) 0.6921(2) 0.6070(2)
H17 H 0.5716 0.7006 0.5922
C37 C 0.7606(11) 0.7299(2) 0.6375(2)
H18 H 0.7058 0.7636 0.6424
C38 C 0.9205(8) 0.7169(3) 0.6603(2)
C40 C 0.9213(8) 0.6323(3) 0.6211(2)
H20 H 0.9782 0.5987 0.6167
C42_2 C 0.9424(6) 0.54277(18) 0.39072(14)
C46_2 C 0.9990(6) 0.5873(2) 0.32265(15)
H23_2 H 0.9564 0.6071 0.2978
C47_2 C 0.8818(6) 0.5709(2) 0.35337(15)
H24_2 H 0.7606 0.5789 0.3489
C15 C 0.0004(9) 0.3290(3) 0.1502(3)
H7 H 0.1142 0.3360 0.1630
C17 C 0.0063(11) 0.2429(3) 0.1932(2)
O2 O 0.1542(7) 0.2547(3) 0.2114(2)
C39 C 0.9996(9) 0.6710(3) 0.8498(3)
H19 H 0.8858 0.6640 0.8370
C41 C 0.9937(11) 0.7571(3) 0.8068(2)
O8 O 0.8458(7) 0.7453(3) 0.7886(2)
Ni1_4 Ni 0.0000 -0.0000 0.5000
Fe3 Fe 0.5000 0.34787(4) 0.7500
Fe4_2 Fe 1.0000 0.15213(4) 0.2500
N3_3 N 0.2025(5) 0.05010(14) 0.49770(12)
C25_3 C 0.3199(6) 0.0557(2) 0.46414(16)
C26_3 C 0.4470(8) 0.0992(3) 0.4754(2)
H13_2 H 0.5384 0.1111 0.4580
C27_2 C 0.4111(8) 0.1187(3) 0.5138(2)
H14_2 H 0.4742 0.1466 0.5290
C28_2 C 0.2572(7) 0.0901(2) 0.52938(15)
C29_2 C 0.1797(6) 0.10087(18) 0.56894(14)
C30_2 C 0.0307(6) 0.07245(17) 0.58145(14)
C34_3 C 0.3131(6) 0.02746(19) 0.42522(14)
C35_2 C 0.2608(7) 0.1432(2) 0.59915(16)
C36_2 C 0.1805(9) 0.1921(2) 0.6070(2)
H17_2 H 0.0716 0.2006 0.5922
C37_2 C 0.2606(11) 0.2299(2) 0.6375(2)
H18_2 H 0.2058 0.2636 0.6424
C38_2 C 0.4205(8) 0.2169(3) 0.6603(2)
C39_2 C 0.5004(9) 0.1710(3) 0.6502(3)
H19_2 H 0.6142 0.1640 0.6630
C40_2 C 0.4213(8) 0.1323(3) 0.6211(2)
H20_2 H 0.4782 0.0987 0.6167
C41_2 C 0.5063(11) 0.2571(3) 0.6932(2)
O5 O 0.4185(6) 0.29903(16) 0.70302(13)
O8_2 O 0.6542(7) 0.2453(3) 0.7114(2)
C42_3 C 0.4424(6) 0.04277(18) 0.39072(14)
C43_2 C 0.6227(6) 0.02963(19) 0.39673(16)
H21_2 H 0.6634 0.0100 0.4219
C44_2 C 0.7426(6) 0.0454(2) 0.36569(16)
H22_2 H 0.8632 0.0364 0.3699
C45_2 C 0.6807(6) 0.07498(18) 0.32801(14)
C46_3 C 0.4990(6) 0.0873(2) 0.32265(15)
H23_3 H 0.4564 0.1071 0.2978
C47_3 C 0.3818(6) 0.0709(2) 0.35337(15)
H24_3 H 0.2606 0.0789 0.3489
C48_2 C 0.8069(6) 0.09748(18) 0.29659(14)
O9_2 O 0.9717(4) 0.08809(14) 0.30105(11)
O11_2 O 0.7521(4) 0.12888(13) 0.26523(10)
Ni1_5 Ni 1.0000 -0.0000 1.0000
C27_3 C 0.5889(8) 0.1187(3) 0.9862(2)
H14_3 H 0.5258 0.1466 0.9710
C28_3 C 0.7428(7) 0.0901(2) 0.97062(15)
C29_3 C 0.8203(6) 0.10087(18) 0.93106(14)
C30_3 C 0.9693(6) 0.07245(17) 0.91855(14)
C35_3 C 0.7392(7) 0.1432(2) 0.90085(16)
C36_3 C 0.8195(9) 0.1921(2) 0.8930(2)
H17_3 H 0.9284 0.2006 0.9078
C37_3 C 0.7394(11) 0.2299(2) 0.8625(2)
H18_3 H 0.7942 0.2636 0.8576
C38_3 C 0.5795(8) 0.2169(3) 0.8397(2)
C39_3 C 0.4996(9) 0.1710(3) 0.8498(3)
H19_3 H 0.3858 0.1640 0.8370
C40_3 C 0.5787(8) 0.1323(3) 0.8789(2)
H20_3 H 0.5218 0.0987 0.8833
C41_3 C 0.4937(11) 0.2571(3) 0.8068(2)
O5_2 O 0.5815(6) 0.29903(16) 0.79698(13)
O8_3 O 0.3458(7) 0.2453(3) 0.7886(2)
H1_2 H 0.9616 0.3889 0.5420
C15_2 C 0.9996(9) 0.3290(3) 0.3498(3)
H7_2 H 0.8858 0.3360 0.3370
C17_2 C 0.9937(11) 0.2429(3) 0.3068(2)
O2_2 O 0.8458(7) 0.2547(3) 0.2886(2)
C19_2 C 0.8773(6) 0.47037(19) 0.60327(16)
H9_2 H 0.8366 0.4900 0.5781
C20_2 C 0.7574(6) 0.4546(2) 0.63431(16)
H10_2 H 0.6368 0.4636 0.6301
C21_2 C 0.8193(6) 0.42502(18) 0.67199(14)
C24_2 C 0.6931(6) 0.40252(18) 0.70341(14)
O3 O 0.5283(4) 0.41191(14) 0.69895(11)
O4 O 0.7479(4) 0.37112(13) 0.73477(10)
O10_2 O 0.4717(4) 0.41191(14) 0.80105(11)
O12_2 O 0.2521(4) 0.37112(13) 0.76523(10)
H1_3 H 0.0384 0.3889 0.9580
C19_3 C 0.1227(6) 0.47037(19) 0.89673(16)
H9_3 H 0.1634 0.4900 0.9219
C20_3 C 0.2426(6) 0.4546(2) 0.86569(16)
H10_3 H 0.3632 0.4636 0.8699
C21_3 C 0.1807(6) 0.42502(18) 0.82801(14)
C24_3 C 0.3069(6) 0.40252(18) 0.79659(14)
Ni1_6 Ni 0.5000 0.5000 -0.0000
N2_2 N 0.4428(4) 0.46986(14) 0.05723(11)
C3_2 C 0.9111(8) 0.3813(3) 0.0138(2)
H2_2 H 0.9742 0.3534 0.0290
C4_2 C 0.7572(7) 0.4099(2) 0.02938(15)
C5_2 C 0.6797(6) 0.39913(18) 0.06894(14)
C6_2 C 0.5307(6) 0.42755(17) 0.08145(14)
C7_2 C 0.4521(7) 0.4186(2) 0.12234(16)
H3_2 H 0.4866 0.3924 0.1438
C8_2 C 0.3167(6) 0.4553(2) 0.12427(15)
H4_2 H 0.2414 0.4594 0.1476
C9_2 C 0.3102(6) 0.48631(18) 0.08461(14)
C11_2 C 0.7608(7) 0.3568(2) 0.09915(16)
C12_2 C 0.6805(9) 0.3079(2) 0.1070(2)
H5_2 H 0.5716 0.2994 0.0922
C13_2 C 0.7606(11) 0.2701(2) 0.1375(2)
H6_2 H 0.7058 0.2364 0.1424
C14_2 C 0.9205(8) 0.2831(3) 0.1603(2)
C16_2 C 0.9213(8) 0.3677(3) 0.1211(2)
H8_2 H 0.9782 0.4013 0.1167
O1_2 O 0.9185(6) 0.20097(16) 0.20302(13)
N3_4 N 0.2975(5) 0.55010(14) 0.00230(12)
C25_4 C 0.1801(6) 0.5557(2) 0.03586(16)
C26_4 C 0.0530(8) 0.5992(3) 0.0246(2)
C34_4 C 0.1869(6) 0.52746(19) 0.07478(14)
C42_4 C 0.0576(6) 0.54277(18) 0.10928(14)
C46_4 C 0.0010(6) 0.5873(2) 0.17735(15)
H23_4 H 0.0436 0.6071 0.2022
C47_4 C 0.1182(6) 0.5709(2) 0.14663(15)
H24_4 H 0.2394 0.5789 0.1511
Ni1_7 Ni 0.0000 1.0000 0.5000
N2_3 N 0.0572(4) 0.96986(14) 0.44277(11)
C7_3 C 0.0479(7) 0.9186(2) 0.37766(16)
H3_3 H 0.0134 0.8924 0.3562
C8_3 C 0.1833(6) 0.9553(2) 0.37573(15)
H4_3 H 0.2586 0.9594 0.3524
C9_3 C 0.1898(6) 0.98631(18) 0.41539(14)
Ni1_8 Ni 1.0000 -0.0000 0.5000
N4_2 N 0.9428(4) 0.03014(14) 0.55723(11)
C31_2 C 0.9521(7) 0.0814(2) 0.62234(16)
H15_2 H 0.9866 0.1076 0.6438
C32_2 C 0.8167(6) 0.0447(2) 0.62427(15)
H16_2 H 0.7414 0.0406 0.6476
C33_2 C 0.8102(6) 0.01369(18) 0.58461(14)
Fe1_2 Fe 0.0000 0.84787(4) 0.7500
Ni1_9 Ni 1.0000 1.0000 0.5000
N1_3 N 0.7975(5) 0.94990(14) 0.50230(12)
C1_3 C 0.6801(6) 0.9443(2) 0.53586(16)
C2_3 C 0.5530(8) 0.9008(3) 0.5246(2)
H1_4 H 0.4616 0.8889 0.5420
C3_3 C 0.5889(8) 0.8813(3) 0.4862(2)
H2_3 H 0.5258 0.8534 0.4710
C4_3 C 0.7428(7) 0.9099(2) 0.47062(15)
C5_3 C 0.8203(6) 0.89913(18) 0.43106(14)
C6_3 C 0.9693(6) 0.92755(17) 0.41855(14)
C10_3 C 0.6869(6) 0.97254(19) 0.57478(14)
C11_3 C 0.7392(7) 0.8568(2) 0.40085(16)
C12_3 C 0.8195(9) 0.8079(2) 0.3930(2)
H5_3 H 0.9284 0.7994 0.4078
C13_3 C 0.7394(11) 0.7701(2) 0.3625(2)
H6_3 H 0.7942 0.7364 0.3576
C14_3 C 0.5795(8) 0.7831(3) 0.3397(2)
C15_3 C 0.4996(9) 0.8290(3) 0.3498(3)
H7_3 H 0.3858 0.8360 0.3370
C16_3 C 0.5787(8) 0.8677(3) 0.3789(2)
H8_3 H 0.5218 0.9013 0.3833
C17_3 C 0.4937(11) 0.7429(3) 0.3068(2)
O1_3 O 0.5815(6) 0.70097(16) 0.29698(13)
O2_3 O 0.3458(7) 0.7547(3) 0.2886(2)
C18_3 C 0.5576(6) 0.95723(18) 0.60928(14)
C19_4 C 0.3773(6) 0.97037(19) 0.60327(16)
H9_4 H 0.3366 0.9900 0.5781
C20_4 C 0.2574(6) 0.9546(2) 0.63431(16)
H10_4 H 0.1368 0.9636 0.6301
C21_4 C 0.3193(6) 0.92502(18) 0.67199(14)
C22_3 C 0.5010(6) 0.9127(2) 0.67735(15)
H11_3 H 0.5436 0.8929 0.7022
C23_3 C 0.6182(6) 0.9291(2) 0.64663(15)
H12_3 H 0.7394 0.9211 0.6511
C24_4 C 0.1931(6) 0.90252(18) 0.70341(14)
O3_2 O 0.0283(4) 0.91191(14) 0.69895(11)
O4_2 O 0.2479(4) 0.87112(13) 0.73477(10)
Fe2 Fe 0.5000 0.65213(4) 0.2500
O7 O 0.0815(6) 0.79903(16) 0.79698(13)
Ni1_10 Ni -0.0000 1.0000 -0.0000
C3_4 C 0.4111(8) 0.8813(3) 0.0138(2)
H2_4 H 0.4742 0.8534 0.0290
C4_4 C 0.2572(7) 0.9099(2) 0.02938(15)
C5_4 C 0.1797(6) 0.89913(18) 0.06894(14)
C6_4 C 0.0307(6) 0.92755(17) 0.08145(14)
C11_4 C 0.2608(7) 0.8568(2) 0.09915(16)
C12_4 C 0.1805(9) 0.8079(2) 0.1070(2)
H5_4 H 0.0716 0.7994 0.0922
C13_4 C 0.2606(11) 0.7701(2) 0.1375(2)
H6_4 H 0.2058 0.7364 0.1424
C14_4 C 0.4205(8) 0.7831(3) 0.1603(2)
C15_4 C 0.5004(9) 0.8290(3) 0.1502(3)
H7_4 H 0.6142 0.8360 0.1630
C16_4 C 0.4213(8) 0.8677(3) 0.1211(2)
H8_4 H 0.4782 0.9013 0.1167
C17_4 C 0.5063(11) 0.7429(3) 0.1932(2)
O1_4 O 0.4185(6) 0.70097(16) 0.20302(13)
O2_4 O 0.6542(7) 0.7547(3) 0.2114(2)
H13_3 H 0.0384 0.6111 0.4580
C39_4 C 0.0004(9) 0.6710(3) 0.6502(3)
H19_4 H 0.1142 0.6640 0.6630
C41_4 C 0.0063(11) 0.7571(3) 0.6932(2)
O8_4 O 0.1542(7) 0.7453(3) 0.7114(2)
C43_3 C 0.1227(6) 0.52963(19) 0.39673(16)
H21_3 H 0.1634 0.5100 0.4219
C44_3 C 0.2426(6) 0.5454(2) 0.36569(16)
H22_3 H 0.3632 0.5364 0.3699
C45_3 C 0.1807(6) 0.57498(18) 0.32801(14)
C48_3 C 0.3069(6) 0.59748(18) 0.29659(14)
O9_3 O 0.4717(4) 0.58809(14) 0.30105(11)
O11_3 O 0.2521(4) 0.62888(13) 0.26523(10)
Ni1_11 Ni 0.5000 0.5000 1.0000
N1_4 N 0.7025(5) 0.44990(14) 0.99770(12)
C1_4 C 0.8199(6) 0.4443(2) 0.96414(16)
C2_4 C 0.9470(8) 0.4008(3) 0.9754(2)
C10_4 C 0.8131(6) 0.47254(19) 0.92522(14)
C18_4 C 0.9424(6) 0.45723(18) 0.89072(14)
C22_4 C 0.9990(6) 0.4127(2) 0.82265(15)
H11_4 H 0.9564 0.3929 0.7978
C23_4 C 0.8818(6) 0.4291(2) 0.85337(15)
H12_4 H 0.7606 0.4211 0.8489
N4_3 N 0.5572(4) 0.53014(14) 0.94277(11)
C27_4 C 0.0889(8) 0.6187(3) 0.9862(2)
H14_4 H 0.0258 0.6466 0.9710
C28_4 C 0.2428(7) 0.5901(2) 0.97062(15)
C29_4 C 0.3203(6) 0.60087(18) 0.93106(14)
C30_4 C 0.4693(6) 0.57245(17) 0.91855(14)
C31_3 C 0.5479(7) 0.5814(2) 0.87766(16)
H15_3 H 0.5134 0.6076 0.8562
C32_3 C 0.6833(6) 0.5447(2) 0.87573(15)
H16_3 H 0.7586 0.5406 0.8524
C33_3 C 0.6898(6) 0.51369(18) 0.91539(14)
C35_4 C 0.2392(7) 0.6432(2) 0.90085(16)
C36_4 C 0.3195(9) 0.6921(2) 0.8930(2)
H17_4 H 0.4284 0.7006 0.9078
C37_4 C 0.2394(11) 0.7299(2) 0.8625(2)
H18_4 H 0.2942 0.7636 0.8576
C38_4 C 0.0795(8) 0.7169(3) 0.8397(2)
C40_4 C 0.0787(8) 0.6323(3) 0.8789(2)
H20_4 H 0.0218 0.5987 0.8833
H13_4 H 0.9616 0.6111 0.0420
C43_4 C 0.8773(6) 0.52963(19) 0.10327(16)
H21_4 H 0.8366 0.5100 0.0781
C44_4 C 0.7574(6) 0.5454(2) 0.13431(16)
H22_4 H 0.6368 0.5364 0.1301
C45_4 C 0.8193(6) 0.57498(18) 0.17199(14)
C48_4 C 0.6931(6) 0.59748(18) 0.20341(14)
O9_4 O 0.5283(4) 0.58809(14) 0.19895(11)
O11_4 O 0.7479(4) 0.62888(13) 0.23477(10)
Ni1_12 Ni -0.0000 0.0000 -0.0000
Ni1_13 Ni 0.0000 -0.0000 1.0000
N4_4 N 0.0572(4) 0.03014(14) 0.94277(11)
C31_4 C 0.0479(7) 0.0814(2) 0.87766(16)
H15_4 H 0.0134 0.1076 0.8562
C32_4 C 0.1833(6) 0.0447(2) 0.87573(15)
H16_4 H 0.2586 0.0406 0.8524
C33_4 C 0.1898(6) 0.01369(18) 0.91539(14)
Ni1_14 Ni 1.0000 1.0000 -0.0000
N2_4 N 0.9428(4) 0.96986(14) 0.05723(11)
C7_4 C 0.9521(7) 0.9186(2) 0.12234(16)
H3_4 H 0.9866 0.8924 0.1438
C8_4 C 0.8167(6) 0.9553(2) 0.12427(15)
H4_4 H 0.7414 0.9594 0.1476
C9_4 C 0.8102(6) 0.98631(18) 0.08461(14)
Ni1_15 Ni 1.0000 1.0000 1.0000
Li1 Li 0.5000 0.2283(6) 0.2500
Li1_2 Li 0.0000 0.7283(6) 0.2500
Li1_3 Li 1.0000 0.7283(6) 0.2500
Li1_4 Li 0.5000 0.7717(6) 0.7500
Li1_5 Li 0.0000 0.2717(6) 0.7500
Li1_6 Li 1.0000 0.2717(6) 0.7500
loop_
_geom_bond_atom_site_label_1
_geom_bond_atom_site_label_2
_geom_bond_site_symmetry_1
_geom_bond_site_symmetry_2
O6 Fe1 1_555 1_555
O10 Fe1 1_555 1_555
O12 Fe1 1_555 1_555
Ni1 N1 1_555 1_555
N1 C1 1_555 1_555
C1 C2 1_555 1_555
C2 H1 1_555 1_555
C10 C1 1_555 1_555
C18 C10 1_555 1_555
C19 C18 1_555 1_555
H9 C19 1_555 1_555
C20 C19 1_555 1_555
H10 C20 1_555 1_555
C21 C20 1_555 1_555
C22 C21 1_555 1_555
H11 C22 1_555 1_555
C23 C18 1_555 1_555
H12 C23 1_555 1_555
C24 C21 1_555 1_555
O10 C24 1_555 1_555
C22 C23 1_555 1_555
C24 O12 1_555 1_555
Fe4 O9 1_555 1_555
N3 Ni1_2 1_555 1_555
C25 N3 1_555 1_555
C26 C25 1_555 1_555
H13 C26 1_555 1_555
C42 C34 1_555 1_555
C43 C42 1_555 1_555
H21 C43 1_555 1_555
C44 C43 1_555 1_555
H22 C44 1_555 1_555
C45 C44 1_555 1_555
C46 C45 1_555 1_555
H23 C46 1_555 1_555
C47 C42 1_555 1_555
H24 C47 1_555 1_555
C48 C45 1_555 1_555
O9 C48 1_555 1_555
O11 Fe4 1_555 1_555
C25 C34 1_555 1_555
C46 C47 1_555 1_555
C48 O11 1_555 1_555
Ni1_3 N1_2 1_555 1_555
N1_2 C1_2 1_555 1_555
N2 Ni1_3 1_555 1_555
C1_2 C2_2 1_555 1_555
C3 C2_2 1_555 1_555
H2 C3 1_555 1_555
C4 N1_2 1_555 1_555
C5 C4 1_555 1_555
C6 N2 1_555 1_555
C7 C6 1_555 1_555
H3 C7 1_555 1_555
C8 C7 1_555 1_555
H4 C8 1_555 1_555
C9 N2 1_555 1_555
C10_2 C1_2 1_555 1_555
C11 C5 1_555 1_555
C12 C11 1_555 1_555
H5 C12 1_555 1_555
C13 C12 1_555 1_555
H6 C13 1_555 1_555
C14 C13 1_555 1_555
C16 C11 1_555 1_555
H8 C16 1_555 1_555
C18_2 C10_2 1_555 1_555
H11_2 C22_2 1_555 1_555
C23_2 C18_2 1_555 1_555
H12_2 C23_2 1_555 1_555
Fe4 O1 1_555 1_555
N3_2 Ni1_3 1_555 1_555
N4 Ni1_3 1_555 1_555
C25_2 N3_2 1_555 1_555
C26_2 C25_2 1_555 1_555
C27 C26_2 1_555 1_555
H14 C27 1_555 1_555
C28 N3_2 1_555 1_555
C29 C28 1_555 1_555
C30 N4 1_555 1_555
C31 C30 1_555 1_555
H15 C31 1_555 1_555
C32 C31 1_555 1_555
H16 C32 1_555 1_555
C33 C10_2 1_555 1_555
C34_2 C9 1_555 1_555
C35 C29 1_555 1_555
C36 C35 1_555 1_555
H17 C36 1_555 1_555
C37 C36 1_555 1_555
H18 C37 1_555 1_555
C38 C37 1_555 1_555
C40 C35 1_555 1_555
H20 C40 1_555 1_555
C42_2 C34_2 1_555 1_555
H23_2 C46_2 1_555 1_555
C47_2 C42_2 1_555 1_555
H24_2 C47_2 1_555 1_555
C3 C4 1_555 1_555
C5 C6 1_555 1_555
C8 C9 1_555 1_555
C22_2 C23_2 1_555 1_555
N4 C33 1_555 1_555
C25_2 C34_2 1_555 1_555
C27 C28 1_555 1_555
C29 C30 1_555 1_555
C32 C33 1_555 1_555
C46_2 C47_2 1_555 1_555
H7 C15 1_555 1_555
O2 C17 1_555 1_555
H19 C39 1_555 1_555
O8 C41 1_555 1_555
Fe3 O5 1_555 1_555
Fe4_2 O9_2 1_555 1_555
N3_3 Ni1_4 1_555 1_555
C25_3 N3_3 1_555 1_555
C26_3 C25_3 1_555 1_555
H13_2 C26_3 1_555 1_555
C27_2 C26_3 1_555 1_555
H14_2 C27_2 1_555 1_555
C28_2 N3_3 1_555 1_555
C29_2 C28_2 1_555 1_555
C35_2 C29_2 1_555 1_555
C36_2 C35_2 1_555 1_555
H17_2 C36_2 1_555 1_555
C37_2 C36_2 1_555 1_555
H18_2 C37_2 1_555 1_555
C38_2 C37_2 1_555 1_555
C39_2 C38_2 1_555 1_555
H19_2 C39_2 1_555 1_555
C40_2 C35_2 1_555 1_555
H20_2 C40_2 1_555 1_555
C41_2 C38_2 1_555 1_555
O5 C41_2 1_555 1_555
O8_2 C41_2 1_555 1_555
C42_3 C34_3 1_555 1_555
C43_2 C42_3 1_555 1_555
H21_2 C43_2 1_555 1_555
C44_2 C43_2 1_555 1_555
H22_2 C44_2 1_555 1_555
C45_2 C44_2 1_555 1_555
C46_3 C45_2 1_555 1_555
H23_3 C46_3 1_555 1_555
C47_3 C42_3 1_555 1_555
H24_3 C47_3 1_555 1_555
C48_2 C45_2 1_555 1_555
O9_2 C48_2 1_555 1_555
O11_2 Fe4_2 1_555 1_555
C25_3 C34_3 1_555 1_555
C27_2 C28_2 1_555 1_555
C29_2 C30_2 1_555 1_555
C39_2 C40_2 1_555 1_555
C46_3 C47_3 1_555 1_555
C48_2 O11_2 1_555 1_555
Fe3 O5_2 1_555 1_555
H14_3 C27_3 1_555 1_555
C29_3 C28_3 1_555 1_555
C35_3 C29_3 1_555 1_555
C36_3 C35_3 1_555 1_555
H17_3 C36_3 1_555 1_555
C37_3 C36_3 1_555 1_555
H18_3 C37_3 1_555 1_555
C38_3 C37_3 1_555 1_555
C39_3 C38_3 1_555 1_555
H19_3 C39_3 1_555 1_555
C40_3 C35_3 1_555 1_555
H20_3 C40_3 1_555 1_555
C41_3 C38_3 1_555 1_555
O5_2 C41_3 1_555 1_555
O8_3 C41_3 1_555 1_555
C27_3 C28_3 1_555 1_555
C29_3 C30_3 1_555 1_555
C39_3 C40_3 1_555 1_555
Fe3 O3 1_555 1_555
H7_2 C15_2 1_555 1_555
O2_2 C17_2 1_555 1_555
H9_2 C19_2 1_555 1_555
C20_2 C19_2 1_555 1_555
H10_2 C20_2 1_555 1_555
C21_2 C20_2 1_555 1_555
C24_2 C21_2 1_555 1_555
O3 C24_2 1_555 1_555
O4 Fe3 1_555 1_555
O10_2 Fe3 1_555 1_555
O12_2 Fe3 1_555 1_555
C24_2 O4 1_555 1_555
H9_3 C19_3 1_555 1_555
C20_3 C19_3 1_555 1_555
H10_3 C20_3 1_555 1_555
C21_3 C20_3 1_555 1_555
C24_3 C21_3 1_555 1_555
O10_2 C24_3 1_555 1_555
C24_3 O12_2 1_555 1_555
N2_2 Ni1_6 1_555 1_555
H2_2 C3_2 1_555 1_555
C5_2 C4_2 1_555 1_555
C6_2 N2_2 1_555 1_555
C7_2 C6_2 1_555 1_555
H3_2 C7_2 1_555 1_555
C8_2 C7_2 1_555 1_555
H4_2 C8_2 1_555 1_555
C9_2 N2_2 1_555 1_555
C11_2 C5_2 1_555 1_555
C12_2 C11_2 1_555 1_555
H5_2 C12_2 1_555 1_555
C13_2 C12_2 1_555 1_555
H6_2 C13_2 1_555 1_555
C14_2 C13_2 1_555 1_555
C16_2 C11_2 1_555 1_555
H8_2 C16_2 1_555 1_555
Fe4_2 O1_2 1_555 1_555
N3_4 Ni1_6 1_555 1_555
C25_4 N3_4 1_555 1_555
C26_4 C25_4 1_555 1_555
C34_4 C9_2 1_555 1_555
C42_4 C34_4 1_555 1_555
H23_4 C46_4 1_555 1_555
C47_4 C42_4 1_555 1_555
H24_4 C47_4 1_555 1_555
C3_2 C4_2 1_555 1_555
C5_2 C6_2 1_555 1_555
C8_2 C9_2 1_555 1_555
C25_4 C34_4 1_555 1_555
C46_4 C47_4 1_555 1_555
N2_3 Ni1_7 1_555 1_555
H3_3 C7_3 1_555 1_555
C8_3 C7_3 1_555 1_555
H4_3 C8_3 1_555 1_555
C9_3 N2_3 1_555 1_555
C8_3 C9_3 1_555 1_555
N4_2 Ni1_8 1_555 1_555
H15_2 C31_2 1_555 1_555
C32_2 C31_2 1_555 1_555
H16_2 C32_2 1_555 1_555
N4_2 C33_2 1_555 1_555
C32_2 C33_2 1_555 1_555
Fe1_2 O3_2 1_555 1_555
Ni1_9 N1_3 1_555 1_555
N1_3 C1_3 1_555 1_555
C1_3 C2_3 1_555 1_555
C2_3 H1_4 1_555 1_555
C3_3 C2_3 1_555 1_555
H2_3 C3_3 1_555 1_555
C4_3 N1_3 1_555 1_555
C5_3 C4_3 1_555 1_555
C10_3 C1_3 1_555 1_555
C11_3 C5_3 1_555 1_555
C12_3 C11_3 1_555 1_555
H5_3 C12_3 1_555 1_555
C13_3 C12_3 1_555 1_555
H6_3 C13_3 1_555 1_555
C14_3 C13_3 1_555 1_555
C15_3 C14_3 1_555 1_555
H7_3 C15_3 1_555 1_555
C16_3 C11_3 1_555 1_555
H8_3 C16_3 1_555 1_555
C17_3 C14_3 1_555 1_555
O1_3 C17_3 1_555 1_555
O2_3 C17_3 1_555 1_555
C18_3 C10_3 1_555 1_555
C19_4 C18_3 1_555 1_555
H9_4 C19_4 1_555 1_555
C20_4 C19_4 1_555 1_555
H10_4 C20_4 1_555 1_555
C21_4 C20_4 1_555 1_555
C22_3 C21_4 1_555 1_555
H11_3 C22_3 1_555 1_555
C23_3 C18_3 1_555 1_555
H12_3 C23_3 1_555 1_555
C24_4 C21_4 1_555 1_555
O3_2 C24_4 1_555 1_555
O4_2 Fe1_2 1_555 1_555
Fe2 O1_3 1_555 1_555
O7 Fe1_2 1_555 1_555
C3_3 C4_3 1_555 1_555
C5_3 C6_3 1_555 1_555
C15_3 C16_3 1_555 1_555
C22_3 C23_3 1_555 1_555
C24_4 O4_2 1_555 1_555
H2_4 C3_4 1_555 1_555
C5_4 C4_4 1_555 1_555
C11_4 C5_4 1_555 1_555
C12_4 C11_4 1_555 1_555
H5_4 C12_4 1_555 1_555
C13_4 C12_4 1_555 1_555
H6_4 C13_4 1_555 1_555
C14_4 C13_4 1_555 1_555
C15_4 C14_4 1_555 1_555
H7_4 C15_4 1_555 1_555
C16_4 C11_4 1_555 1_555
H8_4 C16_4 1_555 1_555
C17_4 C14_4 1_555 1_555
O1_4 C17_4 1_555 1_555
O2_4 C17_4 1_555 1_555
Fe2 O1_4 1_555 1_555
C3_4 C4_4 1_555 1_555
C5_4 C6_4 1_555 1_555
C15_4 C16_4 1_555 1_555
Fe2 O9_3 1_555 1_555
H19_4 C39_4 1_555 1_555
O8_4 C41_4 1_555 1_555
H21_3 C43_3 1_555 1_555
C44_3 C43_3 1_555 1_555
H22_3 C44_3 1_555 1_555
C45_3 C44_3 1_555 1_555
C48_3 C45_3 1_555 1_555
O9_3 C48_3 1_555 1_555
O11_3 Fe2 1_555 1_555
C48_3 O11_3 1_555 1_555
Ni1_11 N1_4 1_555 1_555
N1_4 C1_4 1_555 1_555
C1_4 C2_4 1_555 1_555
C10_4 C1_4 1_555 1_555
C18_4 C10_4 1_555 1_555
H11_4 C22_4 1_555 1_555
C23_4 C18_4 1_555 1_555
H12_4 C23_4 1_555 1_555
N4_3 Ni1_11 1_555 1_555
H14_4 C27_4 1_555 1_555
C29_4 C28_4 1_555 1_555
C30_4 N4_3 1_555 1_555
C31_3 C30_4 1_555 1_555
H15_3 C31_3 1_555 1_555
C32_3 C31_3 1_555 1_555
H16_3 C32_3 1_555 1_555
C33_3 C10_4 1_555 1_555
C35_4 C29_4 1_555 1_555
C36_4 C35_4 1_555 1_555
H17_4 C36_4 1_555 1_555
C37_4 C36_4 1_555 1_555
H18_4 C37_4 1_555 1_555
C38_4 C37_4 1_555 1_555
C40_4 C35_4 1_555 1_555
H20_4 C40_4 1_555 1_555
C22_4 C23_4 1_555 1_555
N4_3 C33_3 1_555 1_555
C27_4 C28_4 1_555 1_555
C29_4 C30_4 1_555 1_555
C32_3 C33_3 1_555 1_555
Fe2 O9_4 1_555 1_555
H21_4 C43_4 1_555 1_555
C44_4 C43_4 1_555 1_555
H22_4 C44_4 1_555 1_555
C45_4 C44_4 1_555 1_555
C48_4 C45_4 1_555 1_555
O9_4 C48_4 1_555 1_555
O11_4 Fe2 1_555 1_555
C48_4 O11_4 1_555 1_555
N4_4 Ni1_13 1_555 1_555
H15_4 C31_4 1_555 1_555
C32_4 C31_4 1_555 1_555
H16_4 C32_4 1_555 1_555
N4_4 C33_4 1_555 1_555
C32_4 C33_4 1_555 1_555
N2_4 Ni1_14 1_555 1_555
H3_4 C7_4 1_555 1_555
C8_4 C7_4 1_555 1_555
H4_4 C8_4 1_555 1_555
C9_4 N2_4 1_555 1_555
C8_4 C9_4 1_555 1_555

#END
