
###############################################################################
#
# This file contains modified crystal structure data generated from the
# MOF subset of the Cambridge Structural Database (CSD) v543 
# hosted by the Cambridge Crystallographic Data Centre (CCDC).
#
# This work is licensed under the Creative Commons
# Attribution-NonCommercial-ShareAlike 4.0 International License.
# To view a copy of this license, visit
# http://creativecommons.org/licenses/by-nc-sa/4.0/
# or send a letter to
# Creative Commons, PO Box 1866, Mountain View, CA 94042, USA.
#
# CIF created using the CSD Python API on 29 September 2022
# The structure has been converted into the P1 space group
# The structure has a 3D framework
# The original CSD entry PAQVIO is in the monoclinic crystal system
# The framework has been calculated to contain at least 10.0% void space
# The void calculation uses a probe of radius 1.32A, grid spacing 0.4
# The framework is charged, counterions have been retained in the structure
#
###############################################################################

data_PAQVIO
_chemical_formula_moiety         '(C192 H96 Fe2 N16 Na6 Ni15 O28 4+)n'
_symmetry_cell_setting           triclinic
_symmetry_space_group_name_H-M   'P 1'
_symmetry_Int_Tables_number      1
_space_group_name_Hall           'P 1'
loop_
_symmetry_equiv_pos_site_id
_symmetry_equiv_pos_as_xyz
1 x,y,z
_cell_length_a                   7.090(2)
_cell_length_b                   25.628(9)
_cell_length_c                   30.347(10)
_cell_angle_alpha                90
_cell_angle_beta                 93.375(7)
_cell_angle_gamma                90
_cell_volume                     5504.56
loop_
_atom_site_label
_atom_site_type_symbol
_atom_site_fract_x
_atom_site_fract_y
_atom_site_fract_z
Fe1 Fe 0.0000 0.82794(7) 0.7500
O7 O 0.0326(13) 0.7657(3) 0.7028(3)
O10 O 0.2621(7) 0.85336(19) 0.73325(17)
O12 O 0.0140(6) 0.8855(2) 0.69815(18)
Ni1 Ni -0.0000 1.0000 0.0000
C3 C 0.425(2) 0.8859(5) 0.0168(5)
H2 H 0.4866 0.8593 0.0327
C4 C 0.1774(14) 0.9083(3) 0.0696(3)
C5 C 0.2688(15) 0.9161(4) 0.0322(3)
C6 C 0.0316(10) 0.9370(3) 0.0833(3)
C11 C 0.2546(15) 0.8670(3) 0.0997(3)
C12 C 0.4321(13) 0.8625(3) 0.1213(3)
H5 H 0.5236 0.8878 0.1173
C13 C 0.4728(10) 0.8203(4) 0.1490(3)
H6 H 0.5916 0.8173 0.1635
C14 C 0.3360(14) 0.7825(3) 0.1551(3)
C15 C 0.1584(12) 0.7870(4) 0.1334(3)
H7 H 0.0669 0.7617 0.1374
C16 C 0.1178(11) 0.8292(4) 0.1057(3)
C17 C 0.387(2) 0.7382(6) 0.1898(5)
O1 O 0.5326(13) 0.7343(3) 0.2028(3)
O2 O 0.2537(15) 0.7087(5) 0.2026(4)
Fe2 Fe 0.5000 0.67206(7) 0.2500
Ni1_2 Ni 1.0000 1.0000 0.5000
N1 N 0.7935(10) 0.9513(3) 0.5005(2)
C1 C 0.6657(12) 0.9432(4) 0.5339(3)
C2 C 0.5342(18) 0.9013(5) 0.5223(4)
H1 H 0.4401 0.8882 0.5393
C3_2 C 0.575(2) 0.8859(5) 0.4832(5)
H2_2 H 0.5134 0.8593 0.4673
C4_2 C 0.8226(14) 0.9083(3) 0.4304(3)
C5_2 C 0.7312(15) 0.9161(4) 0.4678(3)
C6_2 C 0.9684(10) 0.9370(3) 0.4167(3)
C10 C 0.6768(10) 0.9673(3) 0.5740(3)
C11_2 C 0.7454(15) 0.8670(3) 0.4003(3)
C12_2 C 0.5679(13) 0.8625(3) 0.3787(3)
H5_2 H 0.4764 0.8878 0.3827
C13_2 C 0.5272(10) 0.8203(4) 0.3510(3)
H6_2 H 0.4084 0.8173 0.3365
C14_2 C 0.6640(14) 0.7825(3) 0.3449(3)
C15_2 C 0.8416(12) 0.7870(4) 0.3666(3)
H7_2 H 0.9331 0.7617 0.3626
C16_2 C 0.8822(11) 0.8292(4) 0.3943(3)
C17_2 C 0.613(2) 0.7382(6) 0.3102(5)
O1_2 O 0.4674(13) 0.7343(3) 0.2972(3)
O2_2 O 0.7463(15) 0.7087(5) 0.2974(4)
C18 C 0.5507(6) 0.9489(2) 0.60982(17)
C19 C 0.6254(5) 0.9179(2) 0.64415(19)
H9 H 0.7545 0.9112 0.6468
C20 C 0.5071(7) 0.8968(2) 0.67449(16)
H10 H 0.5571 0.8761 0.6975
C21 C 0.3142(6) 0.90681(19) 0.67050(15)
C22 C 0.2395(5) 0.93782(19) 0.63617(17)
H11 H 0.1104 0.9445 0.6335
C23 C 0.3578(7) 0.95885(19) 0.60583(15)
H12 H 0.3078 0.9796 0.5829
C24 C 0.1882(11) 0.8820(3) 0.7018(3)
Ni1_3 Ni 0.5000 0.5000 1.0000
N1_2 N 0.7065(10) 0.4513(3) 0.9995(2)
C1_2 C 0.8343(12) 0.4432(4) 0.9661(3)
C2_2 C 0.9658(18) 0.4013(5) 0.9777(4)
C10_2 C 0.8232(10) 0.4673(3) 0.9260(3)
C18_2 C 0.9493(6) 0.4489(2) 0.89018(17)
C19_2 C 0.8746(5) 0.4179(2) 0.85585(19)
H9_2 H 0.7455 0.4112 0.8532
C20_2 C 0.9929(7) 0.3968(2) 0.82551(16)
H10_2 H 0.9429 0.3761 0.8025
N4 N 0.5543(8) 0.5244(2) 0.9421(2)
C27 C 0.075(2) 0.6141(5) 0.9832(5)
H14 H 0.0134 0.6407 0.9673
C28 C 0.3226(14) 0.5917(3) 0.9304(3)
C29 C 0.2312(15) 0.5839(4) 0.9678(3)
C30 C 0.4684(10) 0.5630(3) 0.9167(3)
C31 C 0.5449(12) 0.5673(4) 0.8740(3)
H15 H 0.5083 0.5904 0.8515
C32 C 0.6787(12) 0.5312(5) 0.8735(3)
H16 H 0.7519 0.5244 0.8497
C33 C 0.6939(10) 0.5045(3) 0.9144(3)
C35 C 0.2454(15) 0.6330(3) 0.9003(3)
C36 C 0.0679(13) 0.6375(3) 0.8787(3)
C37 C 0.0272(10) 0.6797(4) 0.8510(3)
C38 C 0.1640(14) 0.7175(3) 0.8449(3)
C39 C 0.3416(12) 0.7130(4) 0.8666(3)
H19 H 0.4331 0.7383 0.8626
C40 C 0.3822(11) 0.6708(4) 0.8943(3)
H20 H 0.5010 0.6678 0.9088
C41 C 0.113(2) 0.7618(6) 0.8102(5)
O8 O 0.2463(15) 0.7913(5) 0.7974(4)
H13 H 0.9401 0.6118 0.0393
C45 C 0.8142(6) 0.59319(19) 0.17050(15)
C46 C 0.7395(5) 0.56218(19) 0.13617(17)
H23 H 0.6104 0.5555 0.1335
C47 C 0.8578(7) 0.54115(19) 0.10583(15)
H24 H 0.8078 0.5204 0.0829
C48 C 0.6882(11) 0.6180(3) 0.2018(3)
O9 O 0.7621(7) 0.64664(19) 0.23325(17)
O11 O 0.5140(6) 0.6145(2) 0.19815(18)
H13_2 H 0.0599 0.6118 0.4607
H17 H 0.0236 0.6122 0.6173
H18 H 0.0916 0.6827 0.6635
C45_2 C 0.1858(6) 0.59319(19) 0.32950(15)
C46_2 C 0.2605(5) 0.56218(19) 0.36383(17)
H23_2 H 0.3896 0.5555 0.3665
C47_2 C 0.1422(7) 0.54115(19) 0.39417(15)
H24_2 H 0.1922 0.5204 0.4171
C48_2 C 0.3118(11) 0.6180(3) 0.2982(3)
O9_2 O 0.2379(7) 0.64664(19) 0.26675(17)
O11_2 O 0.4860(6) 0.6145(2) 0.30185(18)
Ni1_4 Ni 0.0000 0.0000 0.0000
Ni1_5 Ni 0.0000 0.0000 1.0000
N4_2 N 0.0543(8) 0.0244(2) 0.9421(2)
C31_2 C 0.0449(12) 0.0673(4) 0.8740(3)
H15_2 H 0.0083 0.0904 0.8515
C32_2 C 0.1787(12) 0.0312(5) 0.8735(3)
H16_2 H 0.2519 0.0244 0.8497
C33_2 C 0.1939(10) 0.0045(3) 0.9144(3)
H20_2 H 0.0010 0.1678 0.9088
Ni1_6 Ni 0.0000 1.0000 1.0000
Fe1_2 Fe 1.0000 0.82794(7) 0.7500
N1_3 N 0.2065(10) 0.9513(3) 0.9995(2)
C1_3 C 0.3343(12) 0.9432(4) 0.9661(3)
C2_3 C 0.4658(18) 0.9013(5) 0.9777(4)
H1_2 H 0.5599 0.8882 0.9607
C10_3 C 0.3232(10) 0.9673(3) 0.9260(3)
C18_3 C 0.4493(6) 0.9489(2) 0.89018(17)
C19_3 C 0.3746(5) 0.9179(2) 0.85585(19)
H9_3 H 0.2455 0.9112 0.8532
C20_3 C 0.4929(7) 0.8968(2) 0.82551(16)
H10_3 H 0.4429 0.8761 0.8025
C21_2 C 0.6858(6) 0.90681(19) 0.82950(15)
C22_2 C 0.7605(5) 0.93782(19) 0.86383(17)
H11_2 H 0.8896 0.9445 0.8665
C23_2 C 0.6422(7) 0.95885(19) 0.89417(15)
H12_2 H 0.6922 0.9796 0.9171
C24_2 C 0.8118(11) 0.8820(3) 0.7982(3)
O3 O 0.7379(7) 0.85336(19) 0.76675(17)
O4 O 0.9860(6) 0.8855(2) 0.80185(18)
O6 O 0.9674(13) 0.7657(3) 0.7972(3)
Ni1_7 Ni 1.0000 0.0000 0.0000
Fe4 Fe 0.0000 0.17206(7) 0.2500
N3 N 0.7935(10) 0.0487(3) 0.0005(2)
C25 C 0.6657(12) 0.0568(4) 0.0339(3)
C26 C 0.5342(18) 0.0987(5) 0.0223(4)
H13_3 H 0.4401 0.1118 0.0393
C34 C 0.6768(10) 0.0327(3) 0.0740(3)
C42 C 0.5507(6) 0.0511(2) 0.10982(17)
C43 C 0.6254(5) 0.0821(2) 0.14415(19)
H21 H 0.7545 0.0888 0.1468
C44 C 0.5071(7) 0.1032(2) 0.17449(16)
H22 H 0.5571 0.1239 0.1975
C45_3 C 0.3142(6) 0.09319(19) 0.17050(15)
C46_3 C 0.2395(5) 0.06218(19) 0.13617(17)
H23_3 H 0.1104 0.0555 0.1335
C47_3 C 0.3578(7) 0.04115(19) 0.10583(15)
H24_3 H 0.3078 0.0204 0.0829
C48_3 C 0.1882(11) 0.1180(3) 0.2018(3)
O9_3 O 0.2621(7) 0.14664(19) 0.23325(17)
O11_3 O 0.0140(6) 0.1145(2) 0.19815(18)
H5_3 H 0.0236 0.3878 0.1173
H6_3 H 0.0916 0.3173 0.1635
O1_3 O 0.0326(13) 0.2343(3) 0.2028(3)
H17_2 H 0.9764 0.6122 0.8827
H18_2 H 0.9084 0.6827 0.8365
Ni1_8 Ni 0.5000 0.5000 0.5000
N1_4 N 0.2935(10) 0.4513(3) 0.5005(2)
N2 N 0.5543(8) 0.4756(2) 0.4421(2)
C1_4 C 0.1657(12) 0.4432(4) 0.5339(3)
C2_4 C 0.0342(18) 0.4013(5) 0.5223(4)
C3_3 C 0.075(2) 0.3859(5) 0.4832(5)
H2_3 H 0.0134 0.3593 0.4673
C4_3 C 0.3226(14) 0.4083(3) 0.4304(3)
C5_3 C 0.2312(15) 0.4161(4) 0.4678(3)
C6_3 C 0.4684(10) 0.4370(3) 0.4167(3)
C7 C 0.5449(12) 0.4327(4) 0.3740(3)
H3 H 0.5083 0.4096 0.3515
C8 C 0.6787(12) 0.4688(5) 0.3735(3)
H4 H 0.7519 0.4756 0.3497
C9 C 0.6939(10) 0.4955(3) 0.4144(3)
C10_4 C 0.1768(10) 0.4673(3) 0.5740(3)
C11_3 C 0.2454(15) 0.3670(3) 0.4003(3)
C12_3 C 0.0679(13) 0.3625(3) 0.3787(3)
C13_3 C 0.0272(10) 0.3203(4) 0.3510(3)
C14_3 C 0.1640(14) 0.2825(3) 0.3449(3)
C15_3 C 0.3416(12) 0.2870(4) 0.3666(3)
H7_3 H 0.4331 0.2617 0.3626
C16_3 C 0.3822(11) 0.3292(4) 0.3943(3)
H8 H 0.5010 0.3322 0.4088
C17_3 C 0.113(2) 0.2382(6) 0.3102(5)
O2_3 O 0.2463(15) 0.2087(5) 0.2974(4)
C18_4 C 0.0507(6) 0.4489(2) 0.60982(17)
C19_4 C 0.1254(5) 0.4179(2) 0.64415(19)
H9_4 H 0.2545 0.4112 0.6468
C20_4 C 0.0071(7) 0.3968(2) 0.67449(16)
H10_4 H 0.0571 0.3761 0.6975
N3_2 N 0.7065(10) 0.5487(3) 0.4995(2)
N4_3 N 0.4457(8) 0.5244(2) 0.5579(2)
C25_2 C 0.8343(12) 0.5568(4) 0.4661(3)
C26_2 C 0.9658(18) 0.5987(5) 0.4777(4)
C27_2 C 0.925(2) 0.6141(5) 0.5168(5)
H14_2 H 0.9866 0.6407 0.5327
C28_2 C 0.6774(14) 0.5917(3) 0.5696(3)
C29_2 C 0.7688(15) 0.5839(4) 0.5322(3)
C30_2 C 0.5316(10) 0.5630(3) 0.5833(3)
C31_3 C 0.4551(12) 0.5673(4) 0.6260(3)
H15_3 H 0.4917 0.5904 0.6485
C32_3 C 0.3213(12) 0.5312(5) 0.6265(3)
H16_3 H 0.2481 0.5244 0.6503
C33_3 C 0.3061(10) 0.5045(3) 0.5856(3)
C34_2 C 0.8232(10) 0.5327(3) 0.4260(3)
C35_2 C 0.7546(15) 0.6330(3) 0.5997(3)
C36_2 C 0.9321(13) 0.6375(3) 0.6213(3)
C37_2 C 0.9728(10) 0.6797(4) 0.6490(3)
C38_2 C 0.8360(14) 0.7175(3) 0.6551(3)
C39_2 C 0.6584(12) 0.7130(4) 0.6334(3)
H19_2 H 0.5669 0.7383 0.6374
C40_2 C 0.6178(11) 0.6708(4) 0.6057(3)
H20_3 H 0.4990 0.6678 0.5912
C41_2 C 0.887(2) 0.7618(6) 0.6898(5)
O8_2 O 0.7537(15) 0.7913(5) 0.7026(4)
C42_2 C 0.9493(6) 0.5511(2) 0.39018(17)
C43_2 C 0.8746(5) 0.5821(2) 0.35585(19)
H21_2 H 0.7455 0.5888 0.3532
C44_2 C 0.9929(7) 0.6032(2) 0.32551(16)
H22_2 H 0.9429 0.6239 0.3025
Ni1_9 Ni 1.0000 0.0000 1.0000
Fe3 Fe 0.5000 0.32794(7) 0.7500
C27_3 C 0.575(2) 0.1141(5) 0.9832(5)
H14_3 H 0.5134 0.1407 0.9673
C28_3 C 0.8226(14) 0.0917(3) 0.9304(3)
C29_3 C 0.7312(15) 0.0839(4) 0.9678(3)
C30_3 C 0.9684(10) 0.0630(3) 0.9167(3)
C35_3 C 0.7454(15) 0.1330(3) 0.9003(3)
C36_3 C 0.5679(13) 0.1375(3) 0.8787(3)
H17_3 H 0.4764 0.1122 0.8827
C37_3 C 0.5272(10) 0.1797(4) 0.8510(3)
H18_3 H 0.4084 0.1827 0.8365
C38_3 C 0.6640(14) 0.2175(3) 0.8449(3)
C39_3 C 0.8416(12) 0.2130(4) 0.8666(3)
H19_3 H 0.9331 0.2383 0.8626
C40_3 C 0.8822(11) 0.1708(4) 0.8943(3)
C41_3 C 0.613(2) 0.2618(6) 0.8102(5)
O5 O 0.4674(13) 0.2657(3) 0.7972(3)
O8_3 O 0.7463(15) 0.2913(5) 0.7974(4)
Fe4_2 Fe 1.0000 0.17206(7) 0.2500
Ni1_10 Ni 0.0000 0.0000 0.5000
N3_3 N 0.2065(10) 0.0487(3) 0.4995(2)
C25_3 C 0.3343(12) 0.0568(4) 0.4661(3)
C26_3 C 0.4658(18) 0.0987(5) 0.4777(4)
H13_4 H 0.5599 0.1118 0.4607
C27_4 C 0.425(2) 0.1141(5) 0.5168(5)
H14_4 H 0.4866 0.1407 0.5327
C28_4 C 0.1774(14) 0.0917(3) 0.5696(3)
C29_4 C 0.2688(15) 0.0839(4) 0.5322(3)
C30_4 C 0.0316(10) 0.0630(3) 0.5833(3)
C34_3 C 0.3232(10) 0.0327(3) 0.4260(3)
C35_4 C 0.2546(15) 0.1330(3) 0.5997(3)
C36_4 C 0.4321(13) 0.1375(3) 0.6213(3)
H17_4 H 0.5236 0.1122 0.6173
C37_4 C 0.4728(10) 0.1797(4) 0.6490(3)
H18_4 H 0.5916 0.1827 0.6635
C38_4 C 0.3360(14) 0.2175(3) 0.6551(3)
C39_4 C 0.1584(12) 0.2130(4) 0.6334(3)
H19_4 H 0.0669 0.2383 0.6374
C40_4 C 0.1178(11) 0.1708(4) 0.6057(3)
C41_4 C 0.387(2) 0.2618(6) 0.6898(5)
O5_2 O 0.5326(13) 0.2657(3) 0.7028(3)
O8_4 O 0.2537(15) 0.2913(5) 0.7026(4)
C42_3 C 0.4493(6) 0.0511(2) 0.39018(17)
C43_3 C 0.3746(5) 0.0821(2) 0.35585(19)
H21_3 H 0.2455 0.0888 0.3532
C44_3 C 0.4929(7) 0.1032(2) 0.32551(16)
H22_3 H 0.4429 0.1239 0.3025
C45_4 C 0.6858(6) 0.09319(19) 0.32950(15)
C46_4 C 0.7605(5) 0.06218(19) 0.36383(17)
H23_4 H 0.8896 0.0555 0.3665
C47_4 C 0.6422(7) 0.04115(19) 0.39417(15)
H24_4 H 0.6922 0.0204 0.4171
C48_4 C 0.8118(11) 0.1180(3) 0.2982(3)
O9_4 O 0.7379(7) 0.14664(19) 0.26675(17)
O11_4 O 0.9860(6) 0.1145(2) 0.30185(18)
H1_3 H 0.0599 0.3882 0.9607
C21_3 C 0.1858(6) 0.40681(19) 0.82950(15)
C22_3 C 0.2605(5) 0.43782(19) 0.86383(17)
H11_3 H 0.3896 0.4445 0.8665
C23_3 C 0.1422(7) 0.45885(19) 0.89417(15)
H12_3 H 0.1922 0.4796 0.9171
C24_3 C 0.3118(11) 0.3820(3) 0.7982(3)
O3_2 O 0.2379(7) 0.35336(19) 0.76675(17)
O4_2 O 0.4860(6) 0.3855(2) 0.80185(18)
O10_2 O 0.7621(7) 0.35336(19) 0.73325(17)
O12_2 O 0.5140(6) 0.3855(2) 0.69815(18)
Ni1_11 Ni 0.5000 0.5000 0.0000
N2_2 N 0.4457(8) 0.4756(2) 0.0579(2)
C3_4 C 0.925(2) 0.3859(5) 0.0168(5)
H2_4 H 0.9866 0.3593 0.0327
C4_4 C 0.6774(14) 0.4083(3) 0.0696(3)
C5_4 C 0.7688(15) 0.4161(4) 0.0322(3)
C6_4 C 0.5316(10) 0.4370(3) 0.0833(3)
C7_2 C 0.4551(12) 0.4327(4) 0.1260(3)
H3_2 H 0.4917 0.4096 0.1485
C8_2 C 0.3213(12) 0.4688(5) 0.1265(3)
H4_2 H 0.2481 0.4756 0.1503
C9_2 C 0.3061(10) 0.4955(3) 0.0856(3)
C11_4 C 0.7546(15) 0.3670(3) 0.0997(3)
C12_4 C 0.9321(13) 0.3625(3) 0.1213(3)
C13_4 C 0.9728(10) 0.3203(4) 0.1490(3)
C14_4 C 0.8360(14) 0.2825(3) 0.1551(3)
C15_4 C 0.6584(12) 0.2870(4) 0.1334(3)
H7_4 H 0.5669 0.2617 0.1374
C16_4 C 0.6178(11) 0.3292(4) 0.1057(3)
H8_2 H 0.4990 0.3322 0.0912
C17_4 C 0.887(2) 0.2382(6) 0.1898(5)
O2_4 O 0.7537(15) 0.2087(5) 0.2026(4)
N3_4 N 0.2935(10) 0.5487(3) 0.0005(2)
C25_4 C 0.1657(12) 0.5568(4) 0.0339(3)
C26_4 C 0.0342(18) 0.5987(5) 0.0223(4)
C34_4 C 0.1768(10) 0.5327(3) 0.0740(3)
C42_4 C 0.0507(6) 0.5511(2) 0.10982(17)
C43_4 C 0.1254(5) 0.5821(2) 0.14415(19)
H21_4 H 0.2545 0.5888 0.1468
C44_4 C 0.0071(7) 0.6032(2) 0.17449(16)
H22_4 H 0.0571 0.6239 0.1975
H1_4 H 0.9401 0.3882 0.5393
H5_4 H 0.9764 0.3878 0.3827
H6_4 H 0.9084 0.3173 0.3365
O1_4 O 0.9674(13) 0.2343(3) 0.2972(3)
C21_4 C 0.8142(6) 0.40681(19) 0.67050(15)
C22_4 C 0.7395(5) 0.43782(19) 0.63617(17)
H11_4 H 0.6104 0.4445 0.6335
C23_4 C 0.8578(7) 0.45885(19) 0.60583(15)
H12_4 H 0.8078 0.4796 0.5829
C24_4 C 0.6882(11) 0.3820(3) 0.7018(3)
Ni1_12 Ni 1.0000 1.0000 0.0000
N2_3 N 0.9457(8) 0.9756(2) 0.0579(2)
C7_3 C 0.9551(12) 0.9327(4) 0.1260(3)
H3_3 H 0.9917 0.9096 0.1485
C8_3 C 0.8213(12) 0.9688(5) 0.1265(3)
H4_3 H 0.7481 0.9756 0.1503
C9_3 C 0.8061(10) 0.9955(3) 0.0856(3)
H8_3 H 0.9990 0.8322 0.0912
Ni1_13 Ni 1.0000 1.0000 1.0000
Ni1_14 Ni 0.0000 1.0000 0.5000
N2_4 N 0.0543(8) 0.9756(2) 0.4421(2)
C7_4 C 0.0449(12) 0.9327(4) 0.3740(3)
H3_4 H 0.0083 0.9096 0.3515
C8_4 C 0.1787(12) 0.9688(5) 0.3735(3)
H4_4 H 0.2519 0.9756 0.3497
C9_4 C 0.1939(10) 0.9955(3) 0.4144(3)
H8_4 H 0.0010 0.8322 0.4088
Ni1_15 Ni 1.0000 0.0000 0.5000
N4_4 N 0.9457(8) 0.0244(2) 0.5579(2)
C31_4 C 0.9551(12) 0.0673(4) 0.6260(3)
H15_4 H 0.9917 0.0904 0.6485
C32_4 C 0.8213(12) 0.0312(5) 0.6265(3)
H16_4 H 0.7481 0.0244 0.6503
C33_4 C 0.8061(10) 0.0045(3) 0.5856(3)
H20_4 H 0.9990 0.1678 0.5912
Na1 Na 0.5000 0.2190(3) 0.2500
Na1_2 Na 0.0000 0.7190(3) 0.2500
Na1_3 Na 1.0000 0.7190(3) 0.2500
Na1_4 Na 0.5000 0.7810(3) 0.7500
Na1_5 Na -0.0000 0.2810(3) 0.7500
Na1_6 Na 1.0000 0.2810(3) 0.7500
loop_
_geom_bond_atom_site_label_1
_geom_bond_atom_site_label_2
_geom_bond_site_symmetry_1
_geom_bond_site_symmetry_2
O7 Fe1 1_555 1_555
O10 Fe1 1_555 1_555
O12 Fe1 1_555 1_555
H2 C3 1_555 1_555
C4 C5 1_555 1_555
C11 C4 1_555 1_555
C12 C11 1_555 1_555
H5 C12 1_555 1_555
C13 C12 1_555 1_555
H6 C13 1_555 1_555
C14 C13 1_555 1_555
C15 C14 1_555 1_555
H7 C15 1_555 1_555
C16 C11 1_555 1_555
C17 C14 1_555 1_555
O1 C17 1_555 1_555
O2 C17 1_555 1_555
Fe2 O1 1_555 1_555
C3 C5 1_555 1_555
C4 C6 1_555 1_555
C15 C16 1_555 1_555
Ni1_2 N1 1_555 1_555
N1 C1 1_555 1_555
C1 C2 1_555 1_555
C2 H1 1_555 1_555
C3_2 C2 1_555 1_555
H2_2 C3_2 1_555 1_555
C4_2 C5_2 1_555 1_555
C5_2 N1 1_555 1_555
C10 C1 1_555 1_555
C11_2 C4_2 1_555 1_555
C12_2 C11_2 1_555 1_555
H5_2 C12_2 1_555 1_555
C13_2 C12_2 1_555 1_555
H6_2 C13_2 1_555 1_555
C14_2 C13_2 1_555 1_555
C15_2 C14_2 1_555 1_555
H7_2 C15_2 1_555 1_555
C16_2 C11_2 1_555 1_555
C17_2 C14_2 1_555 1_555
O1_2 C17_2 1_555 1_555
O2_2 C17_2 1_555 1_555
C18 C10 1_555 1_555
C19 C18 1_555 1_555
H9 C19 1_555 1_555
C20 C19 1_555 1_555
H10 C20 1_555 1_555
C21 C20 1_555 1_555
C22 C21 1_555 1_555
H11 C22 1_555 1_555
C23 C18 1_555 1_555
H12 C23 1_555 1_555
C24 C21 1_555 1_555
O10 C24 1_555 1_555
Fe2 O1_2 1_555 1_555
C3_2 C5_2 1_555 1_555
C4_2 C6_2 1_555 1_555
C15_2 C16_2 1_555 1_555
C22 C23 1_555 1_555
C24 O12 1_555 1_555
Ni1_3 N1_2 1_555 1_555
N1_2 C1_2 1_555 1_555
C1_2 C2_2 1_555 1_555
C10_2 C1_2 1_555 1_555
C18_2 C10_2 1_555 1_555
C19_2 C18_2 1_555 1_555
H9_2 C19_2 1_555 1_555
C20_2 C19_2 1_555 1_555
H10_2 C20_2 1_555 1_555
N4 Ni1_3 1_555 1_555
H14 C27 1_555 1_555
C28 C29 1_555 1_555
C30 N4 1_555 1_555
C31 C30 1_555 1_555
H15 C31 1_555 1_555
C32 C31 1_555 1_555
H16 C32 1_555 1_555
C33 C10_2 1_555 1_555
C35 C28 1_555 1_555
C36 C35 1_555 1_555
C37 C36 1_555 1_555
C38 C37 1_555 1_555
C39 C38 1_555 1_555
H19 C39 1_555 1_555
C40 C35 1_555 1_555
H20 C40 1_555 1_555
C41 C38 1_555 1_555
O8 C41 1_555 1_555
N4 C33 1_555 1_555
C27 C29 1_555 1_555
C28 C30 1_555 1_555
C32 C33 1_555 1_555
C39 C40 1_555 1_555
Fe2 O9 1_555 1_555
C46 C45 1_555 1_555
H23 C46 1_555 1_555
H24 C47 1_555 1_555
C48 C45 1_555 1_555
O9 C48 1_555 1_555
O11 Fe2 1_555 1_555
C46 C47 1_555 1_555
C48 O11 1_555 1_555
Fe2 O9_2 1_555 1_555
C46_2 C45_2 1_555 1_555
H23_2 C46_2 1_555 1_555
H24_2 C47_2 1_555 1_555
C48_2 C45_2 1_555 1_555
O9_2 C48_2 1_555 1_555
O11_2 Fe2 1_555 1_555
C46_2 C47_2 1_555 1_555
C48_2 O11_2 1_555 1_555
N4_2 Ni1_5 1_555 1_555
H15_2 C31_2 1_555 1_555
C32_2 C31_2 1_555 1_555
H16_2 C32_2 1_555 1_555
N4_2 C33_2 1_555 1_555
C32_2 C33_2 1_555 1_555
Ni1_6 N1_3 1_555 1_555
Fe1_2 O3 1_555 1_555
N1_3 C1_3 1_555 1_555
C1_3 C2_3 1_555 1_555
C2_3 H1_2 1_555 1_555
C10_3 C1_3 1_555 1_555
C18_3 C10_3 1_555 1_555
C19_3 C18_3 1_555 1_555
H9_3 C19_3 1_555 1_555
C20_3 C19_3 1_555 1_555
H10_3 C20_3 1_555 1_555
C21_2 C20_3 1_555 1_555
C22_2 C21_2 1_555 1_555
H11_2 C22_2 1_555 1_555
C23_2 C18_3 1_555 1_555
H12_2 C23_2 1_555 1_555
C24_2 C21_2 1_555 1_555
O3 C24_2 1_555 1_555
O4 Fe1_2 1_555 1_555
O6 Fe1_2 1_555 1_555
C22_2 C23_2 1_555 1_555
C24_2 O4 1_555 1_555
Fe4 O9_3 1_555 1_555
N3 Ni1_7 1_555 1_555
C25 N3 1_555 1_555
C26 C25 1_555 1_555
H13_3 C26 1_555 1_555
C42 C34 1_555 1_555
C43 C42 1_555 1_555
H21 C43 1_555 1_555
C44 C43 1_555 1_555
H22 C44 1_555 1_555
C45_3 C44 1_555 1_555
C46_3 C45_3 1_555 1_555
H23_3 C46_3 1_555 1_555
C47_3 C42 1_555 1_555
H24_3 C47_3 1_555 1_555
C48_3 C45_3 1_555 1_555
O9_3 C48_3 1_555 1_555
O11_3 Fe4 1_555 1_555
C25 C34 1_555 1_555
C46_3 C47_3 1_555 1_555
C48_3 O11_3 1_555 1_555
Fe4 O1_3 1_555 1_555
Ni1_8 N1_4 1_555 1_555
N1_4 C1_4 1_555 1_555
N2 Ni1_8 1_555 1_555
C1_4 C2_4 1_555 1_555
C3_3 C2_4 1_555 1_555
H2_3 C3_3 1_555 1_555
C4_3 C5_3 1_555 1_555
C5_3 N1_4 1_555 1_555
C6_3 N2 1_555 1_555
C7 C6_3 1_555 1_555
H3 C7 1_555 1_555
C8 C7 1_555 1_555
H4 C8 1_555 1_555
C9 N2 1_555 1_555
C10_4 C1_4 1_555 1_555
C11_3 C4_3 1_555 1_555
C12_3 C11_3 1_555 1_555
C13_3 C12_3 1_555 1_555
C14_3 C13_3 1_555 1_555
C15_3 C14_3 1_555 1_555
H7_3 C15_3 1_555 1_555
C16_3 C11_3 1_555 1_555
H8 C16_3 1_555 1_555
C17_3 C14_3 1_555 1_555
O2_3 C17_3 1_555 1_555
C18_4 C10_4 1_555 1_555
C19_4 C18_4 1_555 1_555
H9_4 C19_4 1_555 1_555
C20_4 C19_4 1_555 1_555
H10_4 C20_4 1_555 1_555
N3_2 Ni1_8 1_555 1_555
N4_3 Ni1_8 1_555 1_555
C25_2 N3_2 1_555 1_555
C26_2 C25_2 1_555 1_555
C27_2 C26_2 1_555 1_555
H14_2 C27_2 1_555 1_555
C28_2 C29_2 1_555 1_555
C29_2 N3_2 1_555 1_555
C30_2 N4_3 1_555 1_555
C31_3 C30_2 1_555 1_555
H15_3 C31_3 1_555 1_555
C32_3 C31_3 1_555 1_555
H16_3 C32_3 1_555 1_555
C33_3 C10_4 1_555 1_555
C34_2 C9 1_555 1_555
C35_2 C28_2 1_555 1_555
C36_2 C35_2 1_555 1_555
C37_2 C36_2 1_555 1_555
C38_2 C37_2 1_555 1_555
C39_2 C38_2 1_555 1_555
H19_2 C39_2 1_555 1_555
C40_2 C35_2 1_555 1_555
H20_3 C40_2 1_555 1_555
C41_2 C38_2 1_555 1_555
O8_2 C41_2 1_555 1_555
C42_2 C34_2 1_555 1_555
C43_2 C42_2 1_555 1_555
H21_2 C43_2 1_555 1_555
C44_2 C43_2 1_555 1_555
H22_2 C44_2 1_555 1_555
C3_3 C5_3 1_555 1_555
C4_3 C6_3 1_555 1_555
C8 C9 1_555 1_555
C15_3 C16_3 1_555 1_555
N4_3 C33_3 1_555 1_555
C25_2 C34_2 1_555 1_555
C27_2 C29_2 1_555 1_555
C28_2 C30_2 1_555 1_555
C32_3 C33_3 1_555 1_555
C39_2 C40_2 1_555 1_555
Fe3 O5 1_555 1_555
H14_3 C27_3 1_555 1_555
C28_3 C29_3 1_555 1_555
C35_3 C28_3 1_555 1_555
C36_3 C35_3 1_555 1_555
H17_3 C36_3 1_555 1_555
C37_3 C36_3 1_555 1_555
H18_3 C37_3 1_555 1_555
C38_3 C37_3 1_555 1_555
C39_3 C38_3 1_555 1_555
H19_3 C39_3 1_555 1_555
C40_3 C35_3 1_555 1_555
C41_3 C38_3 1_555 1_555
O5 C41_3 1_555 1_555
O8_3 C41_3 1_555 1_555
C27_3 C29_3 1_555 1_555
C28_3 C30_3 1_555 1_555
C39_3 C40_3 1_555 1_555
Fe3 O5_2 1_555 1_555
Fe4_2 O9_4 1_555 1_555
N3_3 Ni1_10 1_555 1_555
C25_3 N3_3 1_555 1_555
C26_3 C25_3 1_555 1_555
H13_4 C26_3 1_555 1_555
C27_4 C26_3 1_555 1_555
H14_4 C27_4 1_555 1_555
C28_4 C29_4 1_555 1_555
C29_4 N3_3 1_555 1_555
C35_4 C28_4 1_555 1_555
C36_4 C35_4 1_555 1_555
H17_4 C36_4 1_555 1_555
C37_4 C36_4 1_555 1_555
H18_4 C37_4 1_555 1_555
C38_4 C37_4 1_555 1_555
C39_4 C38_4 1_555 1_555
H19_4 C39_4 1_555 1_555
C40_4 C35_4 1_555 1_555
C41_4 C38_4 1_555 1_555
O5_2 C41_4 1_555 1_555
O8_4 C41_4 1_555 1_555
C42_3 C34_3 1_555 1_555
C43_3 C42_3 1_555 1_555
H21_3 C43_3 1_555 1_555
C44_3 C43_3 1_555 1_555
H22_3 C44_3 1_555 1_555
C45_4 C44_3 1_555 1_555
C46_4 C45_4 1_555 1_555
H23_4 C46_4 1_555 1_555
C47_4 C42_3 1_555 1_555
H24_4 C47_4 1_555 1_555
C48_4 C45_4 1_555 1_555
O9_4 C48_4 1_555 1_555
O11_4 Fe4_2 1_555 1_555
C25_3 C34_3 1_555 1_555
C27_4 C29_4 1_555 1_555
C28_4 C30_4 1_555 1_555
C39_4 C40_4 1_555 1_555
C46_4 C47_4 1_555 1_555
C48_4 O11_4 1_555 1_555
Fe3 O3_2 1_555 1_555
C22_3 C21_3 1_555 1_555
H11_3 C22_3 1_555 1_555
H12_3 C23_3 1_555 1_555
C24_3 C21_3 1_555 1_555
O3_2 C24_3 1_555 1_555
O4_2 Fe3 1_555 1_555
O10_2 Fe3 1_555 1_555
O12_2 Fe3 1_555 1_555
C22_3 C23_3 1_555 1_555
C24_3 O4_2 1_555 1_555
N2_2 Ni1_11 1_555 1_555
H2_4 C3_4 1_555 1_555
C4_4 C5_4 1_555 1_555
C6_4 N2_2 1_555 1_555
C7_2 C6_4 1_555 1_555
H3_2 C7_2 1_555 1_555
C8_2 C7_2 1_555 1_555
H4_2 C8_2 1_555 1_555
C9_2 N2_2 1_555 1_555
C11_4 C4_4 1_555 1_555
C12_4 C11_4 1_555 1_555
C13_4 C12_4 1_555 1_555
C14_4 C13_4 1_555 1_555
C15_4 C14_4 1_555 1_555
H7_4 C15_4 1_555 1_555
C16_4 C11_4 1_555 1_555
H8_2 C16_4 1_555 1_555
C17_4 C14_4 1_555 1_555
O2_4 C17_4 1_555 1_555
N3_4 Ni1_11 1_555 1_555
C25_4 N3_4 1_555 1_555
C26_4 C25_4 1_555 1_555
C34_4 C9_2 1_555 1_555
C42_4 C34_4 1_555 1_555
C43_4 C42_4 1_555 1_555
H21_4 C43_4 1_555 1_555
C44_4 C43_4 1_555 1_555
H22_4 C44_4 1_555 1_555
C3_4 C5_4 1_555 1_555
C4_4 C6_4 1_555 1_555
C8_2 C9_2 1_555 1_555
C15_4 C16_4 1_555 1_555
C25_4 C34_4 1_555 1_555
C22_4 C21_4 1_555 1_555
H11_4 C22_4 1_555 1_555
H12_4 C23_4 1_555 1_555
C24_4 C21_4 1_555 1_555
O10_2 C24_4 1_555 1_555
Fe4_2 O1_4 1_555 1_555
C22_4 C23_4 1_555 1_555
C24_4 O12_2 1_555 1_555
N2_3 Ni1_12 1_555 1_555
H3_3 C7_3 1_555 1_555
C8_3 C7_3 1_555 1_555
H4_3 C8_3 1_555 1_555
C9_3 N2_3 1_555 1_555
C8_3 C9_3 1_555 1_555
N2_4 Ni1_14 1_555 1_555
H3_4 C7_4 1_555 1_555
C8_4 C7_4 1_555 1_555
H4_4 C8_4 1_555 1_555
C9_4 N2_4 1_555 1_555
C8_4 C9_4 1_555 1_555
N4_4 Ni1_15 1_555 1_555
H15_4 C31_4 1_555 1_555
C32_4 C31_4 1_555 1_555
H16_4 C32_4 1_555 1_555
N4_4 C33_4 1_555 1_555
C32_4 C33_4 1_555 1_555

#END
