
###############################################################################
#
# This file contains modified crystal structure data generated from the
# MOF subset of the Cambridge Structural Database (CSD) v543 
# hosted by the Cambridge Crystallographic Data Centre (CCDC).
#
# This work is licensed under the Creative Commons
# Attribution-NonCommercial-ShareAlike 4.0 International License.
# To view a copy of this license, visit
# http://creativecommons.org/licenses/by-nc-sa/4.0/
# or send a letter to
# Creative Commons, PO Box 1866, Mountain View, CA 94042, USA.
#
# CIF created using the CSD Python API on 29 September 2022
# The structure has been converted into the P1 space group
# The structure has a 3D framework
# The original CSD entry PARHEW is in the monoclinic crystal system
# The framework has been calculated to contain at least 10.0% void space
# The void calculation uses a probe of radius 1.32A, grid spacing 0.4
#
###############################################################################

data_PARHEW
_chemical_formula_moiety         '(C24 H48 Ca4 O23)n'
_symmetry_cell_setting           triclinic
_symmetry_space_group_name_H-M   'P 1'
_symmetry_Int_Tables_number      1
_space_group_name_Hall           'P 1'
loop_
_symmetry_equiv_pos_site_id
_symmetry_equiv_pos_as_xyz
1 x,y,z
_cell_length_a                   16.8008(8)
_cell_length_b                   15.0736(7)
_cell_length_c                   7.7536(3)
_cell_angle_alpha                90
_cell_angle_beta                 99.799(3)
_cell_angle_gamma                90
_cell_volume                     1934.94
loop_
_atom_site_label
_atom_site_type_symbol
_atom_site_fract_x
_atom_site_fract_y
_atom_site_fract_z
Ca4 Ca 0.249500(14) 0.280890(18) 0.00477(3)
H3 H 0.0355 0.4566 0.3705
O5 O 0.35230(5) 0.12785(7) 0.41750(12)
H9 H 0.3528 0.1304 0.3082
H10 H 0.4015 0.1358 0.4631
O6 O 0.14759(5) 0.12507(7) 0.59200(12)
H11 H 0.1447 0.1307 0.6998
H12 H 0.0988 0.1302 0.5411
Ca3 Ca 0.249500(14) 0.219110(18) 0.50477(3)
O7 O 0.14428(6) 0.33237(7) 0.43701(12)
O8 O 0.19169(5) 0.32674(6) 0.71919(12)
O9 O 0.19169(5) 0.17326(6) 0.21919(12)
C7 C 0.14754(8) 0.36197(9) 0.58984(17)
C8 C 0.09851(8) 0.44353(10) 0.61902(18)
H13 H 0.1345 0.4928 0.6162
H14 H 0.0870 0.4401 0.7360
C9 C 0.02175(8) 0.45694(10) 0.48571(18)
H16 H 0.0144 0.5923 0.5129
O11 O 0.30662(5) 0.17282(6) 0.78984(12)
O12 O 0.30662(5) 0.32718(6) 0.28984(12)
O15 O 0.35421(6) 0.33461(7) 0.57193(12)
Ca1 Ca 0.750500(14) 0.780890(18) 0.49523(3)
O1 O 0.85572(6) 0.66763(7) 0.56299(12)
O2 O 0.80831(5) 0.67326(6) 0.28081(12)
C1 C 0.85246(8) 0.63803(9) 0.41016(17)
C2 C 0.90149(8) 0.55647(10) 0.38098(18)
H1 H 0.8655 0.5072 0.3838
H2 H 0.9130 0.5599 0.2640
C3 C 0.97825(8) 0.54306(10) 0.51429(18)
H4 H 0.9856 0.4077 0.4871
O3 O 0.69338(5) 0.67282(6) 0.71016(12)
O4 O 0.64579(6) 0.66539(7) 0.42807(12)
C4 C 0.64941(8) 0.63674(9) 0.58190(17)
C5 C 0.60010(8) 0.55545(10) 0.61391(18)
H5 H 0.6369 0.5063 0.6207
H6 H 0.5865 0.5619 0.7286
C6 C 0.52545(8) 0.53853(9) 0.47551(18)
H7 H 0.5422 0.5269 0.3653
H8 H 0.4916 0.5902 0.4568
Ca5 Ca 0.750500(14) 0.719110(18) 0.99523(3)
O10 O 0.80831(5) 0.82674(6) 0.78081(12)
H15 H 0.9645 0.5434 0.6295
O13 O 0.69338(5) 0.82718(6) 0.21016(12)
C10 C 0.35059(8) 0.36326(9) 0.41810(17)
C11 C 0.39990(8) 0.44455(10) 0.38609(18)
H17 H 0.3631 0.4937 0.3793
H18 H 0.4135 0.4381 0.2714
C12 C 0.47455(8) 0.46147(9) 0.52449(18)
H19 H 0.4578 0.4731 0.6347
H20 H 0.5084 0.4098 0.5432
O17 O 0.64770(5) 0.87215(7) 0.58250(12)
H21 H 0.6472 0.8696 0.6918
H22 H 0.5985 0.8642 0.5369
O18 O 0.85241(5) 0.87493(7) 0.40800(12)
H23 H 0.8553 0.8693 0.3002
H24 H 0.9012 0.8698 0.4589
C1_2 C 0.14754(8) 0.13803(9) 0.08984(17)
C2_2 C 0.09851(8) 0.05647(10) 0.11902(18)
H1_2 H 0.1345 0.0072 0.1162
H2_2 H 0.0870 0.0599 0.2360
O4_2 O 0.35421(6) 0.16539(7) 0.07193(12)
C6_2 C 0.47455(8) 0.03853(9) 0.02449(18)
H7_2 H 0.4578 0.0269 0.1347
H8_2 H 0.5084 0.0902 0.0432
O18_2 O 0.14759(5) 0.37493(7) 0.09200(12)
H23_2 H 0.1447 0.3693 0.1998
H24_2 H 0.0988 0.3698 0.0411
O1_2 O 0.14428(6) 0.16763(7) 0.93701(12)
C3_2 C 0.02175(8) 0.04306(10) 0.98571(18)
C4_2 C 0.35059(8) 0.13674(9) 0.91810(17)
C5_2 C 0.39990(8) 0.05545(10) 0.88609(18)
H5_2 H 0.3631 0.0063 0.8793
H6_2 H 0.4135 0.0619 0.7714
H15_2 H 0.0355 0.0434 0.8705
O17_2 O 0.35230(5) 0.37215(7) 0.91750(12)
H21_2 H 0.3528 0.3696 0.8082
H22_2 H 0.4015 0.3642 0.9631
H4_2 H 0.0144 0.9077 0.0129
C10_2 C 0.64941(8) 0.86326(9) 0.08190(17)
C11_2 C 0.60010(8) 0.94455(10) 0.11391(18)
H17_2 H 0.6369 0.9937 0.1207
H18_2 H 0.5865 0.9381 0.2286
O16 O 0.64579(6) 0.83461(7) 0.92807(12)
C12_2 C 0.52545(8) 0.96147(9) 0.97551(18)
H19_2 H 0.5422 0.9731 0.8653
H20_2 H 0.4916 0.9098 0.9568
H16_2 H 0.9856 0.0923 0.9871
H3_2 H 0.9645 0.9566 0.1295
O5_2 O 0.64770(5) 0.62785(7) 0.08250(12)
H9_2 H 0.6472 0.6304 0.1918
H10_2 H 0.5985 0.6358 0.0369
O7_2 O 0.85572(6) 0.83237(7) 0.06299(12)
C9_2 C 0.97825(8) 0.95694(10) 0.01429(18)
O6_2 O 0.85241(5) 0.62507(7) 0.90800(12)
H11_2 H 0.8553 0.6307 0.8002
H12_2 H 0.9012 0.6302 0.9589
C7_2 C 0.85246(8) 0.86197(9) 0.91016(17)
C8_2 C 0.90149(8) 0.94353(10) 0.88098(18)
H13_2 H 0.8655 0.9928 0.8838
H14_2 H 0.9130 0.9401 0.7640
loop_
_geom_bond_atom_site_label_1
_geom_bond_atom_site_label_2
_geom_bond_site_symmetry_1
_geom_bond_site_symmetry_2
H3 C9 1_555 1_555
O5 H9 1_555 1_555
H10 O5 1_555 1_555
O6 H11 1_555 1_555
H12 O6 1_555 1_555
Ca3 O5 1_555 1_555
O7 Ca3 1_555 1_555
O8 Ca3 1_555 1_555
O9 Ca3 1_555 1_555
C7 O7 1_555 1_555
C8 C7 1_555 1_555
H13 C8 1_555 1_555
H14 C8 1_555 1_555
O11 Ca3 1_555 1_555
O12 Ca3 1_555 1_555
O15 Ca3 1_555 1_555
O6 Ca3 1_555 1_555
O8 C7 1_555 1_555
C8 C9 1_555 1_555
Ca1 O1 1_555 1_555
O1 C1 1_555 1_555
O2 Ca1 1_555 1_555
C1 O2 1_555 1_555
C2 C1 1_555 1_555
H1 C2 1_555 1_555
H2 C2 1_555 1_555
C3 C2 1_555 1_555
O3 Ca1 1_555 1_555
O4 Ca1 1_555 1_555
C4 O3 1_555 1_555
C5 C4 1_555 1_555
H5 C5 1_555 1_555
H6 C5 1_555 1_555
C6 C5 1_555 1_555
H7 C6 1_555 1_555
H8 C6 1_555 1_555
Ca5 O3 1_555 1_555
Ca4 O12 1_555 1_555
O10 Ca1 1_555 1_555
H15 C3 1_555 1_555
O13 Ca1 1_555 1_555
O12 C10 1_555 1_555
C10 O15 1_555 1_555
C11 C10 1_555 1_555
H17 C11 1_555 1_555
H18 C11 1_555 1_555
C12 C6 1_555 1_555
H19 C12 1_555 1_555
H20 C12 1_555 1_555
O17 Ca1 1_555 1_555
H21 O17 1_555 1_555
H22 O17 1_555 1_555
O18 Ca1 1_555 1_555
H23 O18 1_555 1_555
H24 O18 1_555 1_555
O4 C4 1_555 1_555
Ca5 O10 1_555 1_555
C11 C12 1_555 1_555
O9 Ca4 1_555 1_555
C1_2 O9 1_555 1_555
C2_2 C1_2 1_555 1_555
H1_2 C2_2 1_555 1_555
H2_2 C2_2 1_555 1_555
O4_2 Ca4 1_555 1_555
H7_2 C6_2 1_555 1_555
H8_2 C6_2 1_555 1_555
O18_2 Ca4 1_555 1_555
H23_2 O18_2 1_555 1_555
H24_2 O18_2 1_555 1_555
C4_2 O11 1_555 1_555
C5_2 C4_2 1_555 1_555
H5_2 C5_2 1_555 1_555
H6_2 C5_2 1_555 1_555
H15_2 C3_2 1_555 1_555
H21_2 O17_2 1_555 1_555
H22_2 O17_2 1_555 1_555
O13 C10_2 1_555 1_555
C11_2 C10_2 1_555 1_555
H17_2 C11_2 1_555 1_555
H18_2 C11_2 1_555 1_555
O16 Ca5 1_555 1_555
H19_2 C12_2 1_555 1_555
H20_2 C12_2 1_555 1_555
H3_2 C9_2 1_555 1_555
O5_2 H9_2 1_555 1_555
H10_2 O5_2 1_555 1_555
O6_2 H11_2 1_555 1_555
H12_2 O6_2 1_555 1_555
C8_2 C7_2 1_555 1_555
H13_2 C8_2 1_555 1_555
H14_2 C8_2 1_555 1_555
O6_2 Ca5 1_555 1_555
O10 C7_2 1_555 1_555

#END
