
###############################################################################
#
# This file contains modified crystal structure data generated from the
# MOF subset of the Cambridge Structural Database (CSD) v543 
# hosted by the Cambridge Crystallographic Data Centre (CCDC).
#
# This work is licensed under the Creative Commons
# Attribution-NonCommercial-ShareAlike 4.0 International License.
# To view a copy of this license, visit
# http://creativecommons.org/licenses/by-nc-sa/4.0/
# or send a letter to
# Creative Commons, PO Box 1866, Mountain View, CA 94042, USA.
#
# CIF created using the CSD Python API on 29 September 2022
# The structure has been converted into the P1 space group
# The structure has a 3D framework
# The original CSD entry PARKUQ is in the monoclinic crystal system
# The framework has been calculated to contain at least 10.0% void space
# The void calculation uses a probe of radius 1.32A, grid spacing 0.4
#
###############################################################################

data_PARKUQ
_chemical_formula_moiety         '(C44 H44 Cd4 N4 O24)n'
_symmetry_cell_setting           triclinic
_symmetry_space_group_name_H-M   'P 1'
_symmetry_Int_Tables_number      1
_space_group_name_Hall           'P 1'
loop_
_symmetry_equiv_pos_site_id
_symmetry_equiv_pos_as_xyz
1 x,y,z
_cell_length_a                   10.0957(13)
_cell_length_b                   14.3518(19)
_cell_length_c                   12.9606(17)
_cell_angle_alpha                90
_cell_angle_beta                 105.770(2)
_cell_angle_gamma                90
_cell_volume                     1807.2
loop_
_atom_site_label
_atom_site_type_symbol
_atom_site_fract_x
_atom_site_fract_y
_atom_site_fract_z
Cd4 Cd 0.091234(18) 0.066234(13) 0.939534(16)
O8 O 0.1006(2) 0.13665(16) 0.09716(19)
O1 O 0.3039(2) 0.09852(17) 0.93140(19)
O2 O 0.1895(3) 0.2132(3) 0.8415(3)
O3 O 0.4530(3) 0.44168(16) 0.6675(2)
O4 O 0.6006(2) 0.36335(16) 0.59716(19)
O5 O 0.8957(2) 0.13817(16) 0.86203(19)
O6 O 0.7811(3) 0.04311(17) 0.9430(2)
C1 C 0.2957(3) 0.1700(3) 0.8740(3)
C2 C 0.5301(3) 0.3742(2) 0.6627(3)
C3 C 0.7893(3) 0.1121(2) 0.8871(2)
C4 C 0.4246(3) 0.1995(2) 0.8447(2)
C5 C 0.4228(3) 0.2752(2) 0.7778(3)
H1 H 0.3442 0.3119 0.7565
C6 C 0.5374(3) 0.2968(2) 0.7423(2)
C7 C 0.6554(3) 0.2431(2) 0.7770(2)
H2 H 0.7319 0.2568 0.7527
C8 C 0.6610(3) 0.16946(19) 0.8471(2)
C9 C 0.5442(3) 0.14799(19) 0.8801(2)
H3 H 0.5467 0.0983 0.9266
Cd2 Cd 0.408766(18) 0.566234(13) 0.560466(16)
Cd3 Cd 0.591234(18) 0.433766(13) 0.439534(16)
Cd5 Cd 0.908766(18) 0.933766(13) 0.060466(16)
O10 O 0.2189(3) 0.95689(17) 0.0570(2)
O7 O 0.0470(3) 0.94168(16) 0.8325(2)
O1_2 O 0.1961(2) 0.59852(17) 0.56860(19)
O2_2 O 0.3105(3) 0.7132(3) 0.6585(3)
C1_2 C 0.2043(3) 0.6700(3) 0.6260(3)
C4_2 C 0.0754(3) 0.6995(2) 0.6553(2)
C5_2 C 0.0772(3) 0.7752(2) 0.7222(3)
H1_2 H 0.1558 0.8119 0.7435
O8_2 O 0.3994(2) 0.63665(16) 0.40284(19)
O9 O 0.6043(2) 0.63817(16) 0.63797(19)
O10_2 O 0.2811(3) 0.45689(17) 0.4430(2)
O4_2 O 0.8994(2) 0.86335(16) 0.90284(19)
O6_2 O 0.7189(3) 0.54311(17) 0.5570(2)
C2_2 C 0.9699(3) 0.8742(2) 0.8373(3)
C3_2 C 0.7107(3) 0.6121(2) 0.6129(2)
C6_2 C 0.9626(3) 0.7968(2) 0.7577(2)
C7_2 C 0.8446(3) 0.7431(2) 0.7230(2)
H2_2 H 0.7681 0.7568 0.7473
C8_2 C 0.8390(3) 0.66946(19) 0.6529(2)
C9_2 C 0.9558(3) 0.64799(19) 0.6199(2)
H3_2 H 0.9533 0.5983 0.5734
O9_2 O 0.1043(2) 0.86183(16) 0.13797(19)
O7_2 O 0.9530(3) 0.05832(16) 0.1675(2)
O1_3 O 0.6961(2) 0.90148(17) 0.06860(19)
O2_3 O 0.8105(3) 0.7868(3) 0.1585(3)
O3_2 O 0.5470(3) 0.55832(16) 0.3325(2)
C1_3 C 0.7043(3) 0.8300(3) 0.1260(3)
C2_3 C 0.4699(3) 0.6258(2) 0.3373(3)
C3_3 C 0.2107(3) 0.8879(2) 0.1129(2)
C4_3 C 0.5754(3) 0.8005(2) 0.1553(2)
C5_3 C 0.5772(3) 0.7248(2) 0.2222(3)
H1_3 H 0.6558 0.6881 0.2435
C6_3 C 0.4626(3) 0.7032(2) 0.2577(2)
C7_3 C 0.3446(3) 0.7569(2) 0.2230(2)
H2_3 H 0.2681 0.7432 0.2473
C8_3 C 0.3390(3) 0.83054(19) 0.1529(2)
C9_3 C 0.4558(3) 0.85201(19) 0.1199(2)
H3_3 H 0.4533 0.9017 0.0734
O5_2 O 0.3957(2) 0.36183(16) 0.36203(19)
C2_4 C 0.0301(3) 0.1258(2) 0.1627(3)
C3_4 C 0.2893(3) 0.3879(2) 0.3871(2)
C6_4 C 0.0374(3) 0.2032(2) 0.2423(2)
C7_4 C 0.1554(3) 0.2569(2) 0.2770(2)
H2_4 H 0.2319 0.2432 0.2527
C8_4 C 0.1610(3) 0.33054(19) 0.3471(2)
C9_4 C 0.0442(3) 0.35201(19) 0.3801(2)
H3_4 H 0.0467 0.4017 0.4266
O1_4 O 0.8039(2) 0.40148(17) 0.43140(19)
O2_4 O 0.6895(3) 0.2868(3) 0.3415(3)
C1_4 C 0.7957(3) 0.3300(3) 0.3740(3)
C4_4 C 0.9246(3) 0.3005(2) 0.3447(2)
C5_4 C 0.9228(3) 0.2248(2) 0.2778(3)
H1_4 H 0.8442 0.1881 0.2565
C11 C 0.0844(5) 0.4175(4) 0.6898(5)
H9 H 0.1334 0.3882 0.7557
H10 H 0.0847 0.4838 0.6996
H11 H 0.1284 0.4026 0.6348
N1 N 0.9412(3) 0.3834(3) 0.6578(3)
H4 H 0.8992 0.4042 0.7063
H5 H 0.8953 0.4068 0.5936
C10 C 0.9318(4) 0.2817(3) 0.6422(3)
H6 H 0.9859 0.2633 0.5951
H7 H 0.8375 0.2643 0.6112
H8 H 0.9660 0.2511 0.7101
N1_2 N 0.5588(3) 0.8834(3) 0.8422(3)
H4_2 H 0.6008 0.9042 0.7937
H5_2 H 0.6047 0.9068 0.9064
C10_2 C 0.5682(4) 0.7817(3) 0.8578(3)
H6_2 H 0.5141 0.7633 0.9049
H7_2 H 0.6625 0.7643 0.8888
H8_2 H 0.5340 0.7511 0.7899
C11_2 C 0.4156(5) 0.9175(4) 0.8102(5)
H9_2 H 0.3666 0.8882 0.7443
H10_2 H 0.4153 0.9838 0.8004
H11_2 H 0.3716 0.9026 0.8652
N1_3 N 0.0588(3) 0.6166(3) 0.3422(3)
H4_3 H 0.1008 0.5958 0.2937
H5_3 H 0.1047 0.5932 0.4064
C10_3 C 0.0682(4) 0.7183(3) 0.3578(3)
H6_3 H 0.0141 0.7367 0.4049
H7_3 H 0.1625 0.7357 0.3888
H8_3 H 0.0340 0.7489 0.2899
C11_3 C 0.9156(5) 0.5825(4) 0.3102(5)
H9_3 H 0.8666 0.6118 0.2443
H10_3 H 0.9153 0.5162 0.3004
H11_3 H 0.8716 0.5974 0.3652
N1_4 N 0.4412(3) 0.1166(3) 0.1578(3)
H4_4 H 0.3992 0.0958 0.2063
H5_4 H 0.3953 0.0932 0.0936
C10_4 C 0.4318(4) 0.2183(3) 0.1422(3)
H6_4 H 0.4859 0.2367 0.0951
H7_4 H 0.3375 0.2357 0.1112
H8_4 H 0.4660 0.2489 0.2101
C11_4 C 0.5844(5) 0.0825(4) 0.1898(5)
H9_4 H 0.6334 0.1118 0.2557
H10_4 H 0.5847 0.0162 0.1996
H11_4 H 0.6284 0.0974 0.1348
loop_
_geom_bond_atom_site_label_1
_geom_bond_atom_site_label_2
_geom_bond_site_symmetry_1
_geom_bond_site_symmetry_2
Cd4 O1 1_555 1_555
O1 C1 1_555 1_555
O2 C1 1_555 1_555
O3 C2 1_555 1_555
O4 C2 1_555 1_555
O5 C3 1_555 1_555
O6 C3 1_555 1_555
C1 C4 1_555 1_555
C2 C6 1_555 1_555
C3 C8 1_555 1_555
C4 C5 1_555 1_555
C5 H1 1_555 1_555
C6 C5 1_555 1_555
C7 C6 1_555 1_555
H2 C7 1_555 1_555
C8 C7 1_555 1_555
C9 C4 1_555 1_555
H3 C9 1_555 1_555
Cd2 O3 1_555 1_555
Cd3 O4 1_555 1_555
C8 C9 1_555 1_555
Cd2 O1_2 1_555 1_555
O1_2 C1_2 1_555 1_555
O2_2 C1_2 1_555 1_555
C1_2 C4_2 1_555 1_555
C4_2 C5_2 1_555 1_555
C5_2 H1_2 1_555 1_555
O8_2 Cd2 1_555 1_555
O9 Cd2 1_555 1_555
O10_2 Cd2 1_555 1_555
O4_2 C2_2 1_555 1_555
O9 C3_2 1_555 1_555
O6_2 C3_2 1_555 1_555
C2_2 C6_2 1_555 1_555
C3_2 C8_2 1_555 1_555
C7_2 C6_2 1_555 1_555
H2_2 C7_2 1_555 1_555
C8_2 C7_2 1_555 1_555
H3_2 C9_2 1_555 1_555
Cd3 O6_2 1_555 1_555
C8_2 C9_2 1_555 1_555
Cd5 O1_3 1_555 1_555
O1_3 C1_3 1_555 1_555
O2_3 C1_3 1_555 1_555
O3_2 C2_3 1_555 1_555
O8_2 C2_3 1_555 1_555
O9_2 C3_3 1_555 1_555
O10 C3_3 1_555 1_555
C1_3 C4_3 1_555 1_555
C2_3 C6_3 1_555 1_555
C3_3 C8_3 1_555 1_555
C4_3 C5_3 1_555 1_555
C5_3 H1_3 1_555 1_555
C6_3 C5_3 1_555 1_555
C7_3 C6_3 1_555 1_555
H2_3 C7_3 1_555 1_555
C8_3 C7_3 1_555 1_555
C9_3 C4_3 1_555 1_555
H3_3 C9_3 1_555 1_555
Cd3 O3_2 1_555 1_555
C8_3 C9_3 1_555 1_555
O8 C2_4 1_555 1_555
O5_2 C3_4 1_555 1_555
O10_2 C3_4 1_555 1_555
C2_4 C6_4 1_555 1_555
C3_4 C8_4 1_555 1_555
C7_4 C6_4 1_555 1_555
H2_4 C7_4 1_555 1_555
C8_4 C7_4 1_555 1_555
H3_4 C9_4 1_555 1_555
Cd3 O5_2 1_555 1_555
C8_4 C9_4 1_555 1_555
Cd3 O1_4 1_555 1_555
O1_4 C1_4 1_555 1_555
O2_4 C1_4 1_555 1_555
C1_4 C4_4 1_555 1_555
C4_4 C5_4 1_555 1_555
C5_4 H1_4 1_555 1_555
H9 C11 1_555 1_555
H10 C11 1_555 1_555
H11 C11 1_555 1_555
N1 H4 1_555 1_555
H5 N1 1_555 1_555
C10 N1 1_555 1_555
H6 C10 1_555 1_555
H7 C10 1_555 1_555
H8 C10 1_555 1_555
N1_2 H4_2 1_555 1_555
H5_2 N1_2 1_555 1_555
C10_2 N1_2 1_555 1_555
H6_2 C10_2 1_555 1_555
H7_2 C10_2 1_555 1_555
H8_2 C10_2 1_555 1_555
C11_2 N1_2 1_555 1_555
H9_2 C11_2 1_555 1_555
H10_2 C11_2 1_555 1_555
H11_2 C11_2 1_555 1_555
N1_3 H4_3 1_555 1_555
H5_3 N1_3 1_555 1_555
C10_3 N1_3 1_555 1_555
H6_3 C10_3 1_555 1_555
H7_3 C10_3 1_555 1_555
H8_3 C10_3 1_555 1_555
H9_3 C11_3 1_555 1_555
H10_3 C11_3 1_555 1_555
H11_3 C11_3 1_555 1_555
N1_4 H4_4 1_555 1_555
H5_4 N1_4 1_555 1_555
C10_4 N1_4 1_555 1_555
H6_4 C10_4 1_555 1_555
H7_4 C10_4 1_555 1_555
H8_4 C10_4 1_555 1_555
C11_4 N1_4 1_555 1_555
H9_4 C11_4 1_555 1_555
H10_4 C11_4 1_555 1_555
H11_4 C11_4 1_555 1_555

#END
