
###############################################################################
#
# This file contains modified crystal structure data generated from the
# MOF subset of the Cambridge Structural Database (CSD) v543 
# hosted by the Cambridge Crystallographic Data Centre (CCDC).
#
# This work is licensed under the Creative Commons
# Attribution-NonCommercial-ShareAlike 4.0 International License.
# To view a copy of this license, visit
# http://creativecommons.org/licenses/by-nc-sa/4.0/
# or send a letter to
# Creative Commons, PO Box 1866, Mountain View, CA 94042, USA.
#
# CIF created using the CSD Python API on 29 September 2022
# The structure has been converted into the P1 space group
# The structure has a 3D framework
# The original CSD entry PARKUQ01 is in the monoclinic crystal system
# The framework has been calculated to contain at least 10.0% void space
# The void calculation uses a probe of radius 1.32A, grid spacing 0.4
#
###############################################################################

data_PARKUQ01
_chemical_formula_moiety         '(C44 H44 Cd2 N4 O24)n'
_symmetry_cell_setting           triclinic
_symmetry_space_group_name_H-M   'P 1'
_symmetry_Int_Tables_number      1
_space_group_name_Hall           'P 1'
loop_
_symmetry_equiv_pos_site_id
_symmetry_equiv_pos_as_xyz
1 x,y,z
_cell_length_a                   10.099(2)
_cell_length_b                   14.363(3)
_cell_length_c                   12.975(3)
_cell_angle_alpha                90
_cell_angle_beta                 105.69(3)
_cell_angle_gamma                90
_cell_volume                     1811.92
loop_
_atom_site_label
_atom_site_type_symbol
_atom_site_fract_x
_atom_site_fract_y
_atom_site_fract_z
C1 C 0.5847(5) 0.0826(4) 0.6900(5)
H1 H 0.6272 0.0937 0.6333
H2 H 0.5851 0.0170 0.7044
H3 H 0.6348 0.1149 0.7533
N1 N 0.4411(4) 0.1168(3) 0.6574(3)
H4 H 0.3963 0.0890 0.5957
H5 H 0.3989 0.1004 0.7076
C2 C 0.4314(5) 0.2186(3) 0.6427(4)
H6 H 0.4691 0.2487 0.7103
H7 H 0.3366 0.2361 0.6150
H8 H 0.4820 0.2372 0.5933
N1_2 N 0.0589(4) 0.6168(3) 0.8426(3)
H4_2 H 0.1037 0.5890 0.9043
H5_2 H 0.1011 0.6004 0.7924
C2_2 C 0.0686(5) 0.7186(3) 0.8573(4)
H6_2 H 0.0309 0.7487 0.7897
H7_2 H 0.1634 0.7361 0.8850
H8_2 H 0.0180 0.7372 0.9067
C1_2 C 0.9153(5) 0.5826(4) 0.8100(5)
H1_2 H 0.8728 0.5937 0.8667
H2_2 H 0.9149 0.5170 0.7956
H3_2 H 0.8652 0.6149 0.7467
C1_3 C 0.4153(5) 0.9174(4) 0.3100(5)
H1_3 H 0.3728 0.9063 0.3667
H2_3 H 0.4149 0.9830 0.2956
H3_3 H 0.3652 0.8851 0.2467
N1_3 N 0.5589(4) 0.8832(3) 0.3426(3)
H4_3 H 0.6037 0.9110 0.4043
H5_3 H 0.6011 0.8996 0.2924
C2_3 C 0.5686(5) 0.7814(3) 0.3573(4)
H6_3 H 0.5309 0.7513 0.2897
H7_3 H 0.6634 0.7639 0.3850
H8_3 H 0.5180 0.7628 0.4067
C1_4 C 0.0847(5) 0.4174(4) 0.1900(5)
H1_4 H 0.1272 0.4063 0.1333
H2_4 H 0.0851 0.4830 0.2044
H3_4 H 0.1348 0.3851 0.2533
N1_4 N 0.9411(4) 0.3832(3) 0.1574(3)
H4_4 H 0.8963 0.4110 0.0957
H5_4 H 0.8989 0.3996 0.2076
C2_4 C 0.9314(5) 0.2814(3) 0.1427(4)
H6_4 H 0.9691 0.2513 0.2103
H7_4 H 0.8366 0.2639 0.1150
H8_4 H 0.9820 0.2628 0.0933
Cd1 Cd 0.09120(2) 0.066277(15) 0.439469(18)
O7 O 0.3037(3) 0.09868(19) 0.4316(2)
O9 O 0.1004(3) 0.13682(19) 0.5969(2)
O11 O 0.1890(3) 0.2131(3) 0.3409(3)
O8 O 0.0473(3) 0.94141(19) 0.3324(2)
O10 O 0.2188(3) 0.95723(19) 0.5572(2)
O2 O 0.4527(3) 0.44141(19) 0.1676(2)
O3 O 0.6004(3) 0.36318(19) 0.0969(2)
C3 C 0.5299(4) 0.3744(3) 0.1626(3)
O4 O 0.7812(3) 0.04277(19) 0.4428(2)
O5 O 0.8952(2) 0.13801(18) 0.3620(2)
C4 C 0.6552(4) 0.2428(2) 0.2771(3)
C5 C 0.5444(4) 0.1480(2) 0.3802(3)
C6 C 0.6612(3) 0.1692(2) 0.3472(3)
C7 C 0.4226(4) 0.2751(3) 0.2778(3)
C8 C 0.5372(3) 0.2966(2) 0.2426(3)
C9 C 0.4252(3) 0.1993(3) 0.3449(3)
C10 C 0.7898(4) 0.1118(2) 0.3870(3)
C11 C 0.2962(4) 0.1697(3) 0.3741(3)
H9 H 0.344(4) 0.310(2) 0.255(3)
H10 H 0.543(4) 0.093(3) 0.427(3)
H11 H 0.730(3) 0.254(2) 0.253(3)
Cd3 Cd 0.40880(2) 0.566277(15) 0.060531(18)
Cd5 Cd 0.59120(2) 0.433723(15) 0.939469(18)
Cd4 Cd 0.90880(2) 0.933723(15) 0.560531(18)
O1 O 0.1963(3) 0.59868(19) 0.0684(2)
C7_2 C 0.0774(4) 0.7751(3) 0.2222(3)
C9_2 C 0.0748(3) 0.6993(3) 0.1551(3)
C11_2 C 0.2038(4) 0.6697(3) 0.1259(3)
O6 O 0.3110(3) 0.7131(3) 0.1591(3)
H9_2 H 0.156(4) 0.810(2) 0.245(3)
O3_2 O 0.8996(3) 0.86318(19) 0.4031(2)
C3_2 C 0.9701(4) 0.8744(3) 0.3374(3)
O4_2 O 0.7188(3) 0.54277(19) 0.0572(2)
O5_2 O 0.6048(2) 0.63801(18) 0.1380(2)
C4_2 C 0.8448(4) 0.7428(2) 0.2229(3)
C5_2 C 0.9556(4) 0.6480(2) 0.1198(3)
C6_2 C 0.8388(3) 0.6692(2) 0.1528(3)
C8_2 C 0.9628(3) 0.7966(2) 0.2574(3)
C10_2 C 0.7102(4) 0.6118(2) 0.1130(3)
H10_2 H 0.957(4) 0.593(3) 0.073(3)
H11_2 H 0.770(3) 0.754(2) 0.247(3)
O9_2 O 0.3996(3) 0.63682(19) 0.9031(2)
O10_2 O 0.2812(3) 0.45723(19) 0.9428(2)
O1_2 O 0.6963(3) 0.90132(19) 0.5684(2)
O2_2 O 0.5473(3) 0.55859(19) 0.8324(2)
C3_3 C 0.4701(4) 0.6256(3) 0.8374(3)
O5_3 O 0.1048(2) 0.86199(18) 0.6380(2)
C4_3 C 0.3448(4) 0.7572(2) 0.7229(3)
C5_3 C 0.4556(4) 0.8520(2) 0.6198(3)
C6_3 C 0.3388(3) 0.8308(2) 0.6528(3)
C7_3 C 0.5774(4) 0.7249(3) 0.7222(3)
C8_3 C 0.4628(3) 0.7034(2) 0.7574(3)
C9_3 C 0.5748(3) 0.8007(3) 0.6551(3)
C10_3 C 0.2102(4) 0.8882(2) 0.6130(3)
C11_3 C 0.7038(4) 0.8303(3) 0.6259(3)
O6_2 O 0.8110(3) 0.7869(3) 0.6591(3)
H9_3 H 0.656(4) 0.690(2) 0.745(3)
H10_3 H 0.457(4) 0.907(3) 0.573(3)
H11_3 H 0.270(3) 0.746(2) 0.747(3)
O8_2 O 0.9527(3) 0.05859(19) 0.6676(2)
C3_4 C 0.0299(4) 0.1256(3) 0.6626(3)
O5_4 O 0.3952(2) 0.36199(18) 0.8620(2)
C4_4 C 0.1552(4) 0.2572(2) 0.7771(3)
C5_4 C 0.0444(4) 0.3520(2) 0.8802(3)
C6_4 C 0.1612(3) 0.3308(2) 0.8472(3)
C8_4 C 0.0372(3) 0.2034(2) 0.7426(3)
C10_4 C 0.2898(4) 0.3882(2) 0.8870(3)
H10_4 H 0.043(4) 0.407(3) 0.927(3)
H11_4 H 0.230(3) 0.246(2) 0.753(3)
O7_2 O 0.8037(3) 0.40132(19) 0.9316(2)
O11_2 O 0.6890(3) 0.2869(3) 0.8409(3)
C7_4 C 0.9226(4) 0.2249(3) 0.7778(3)
C9_4 C 0.9252(3) 0.3007(3) 0.8449(3)
C11_4 C 0.7962(4) 0.3303(3) 0.8741(3)
H9_4 H 0.844(4) 0.190(2) 0.755(3)
loop_
_geom_bond_atom_site_label_1
_geom_bond_atom_site_label_2
_geom_bond_site_symmetry_1
_geom_bond_site_symmetry_2
C1 H1 1_555 1_555
H2 C1 1_555 1_555
H3 C1 1_555 1_555
N1 C1 1_555 1_555
H4 N1 1_555 1_555
H5 N1 1_555 1_555
C2 N1 1_555 1_555
H6 C2 1_555 1_555
H7 C2 1_555 1_555
H8 C2 1_555 1_555
H4_2 N1_2 1_555 1_555
H5_2 N1_2 1_555 1_555
C2_2 N1_2 1_555 1_555
H6_2 C2_2 1_555 1_555
H7_2 C2_2 1_555 1_555
H8_2 C2_2 1_555 1_555
C1_2 H1_2 1_555 1_555
H2_2 C1_2 1_555 1_555
H3_2 C1_2 1_555 1_555
C1_3 H1_3 1_555 1_555
H2_3 C1_3 1_555 1_555
H3_3 C1_3 1_555 1_555
N1_3 C1_3 1_555 1_555
H4_3 N1_3 1_555 1_555
H5_3 N1_3 1_555 1_555
C2_3 N1_3 1_555 1_555
H6_3 C2_3 1_555 1_555
H7_3 C2_3 1_555 1_555
H8_3 C2_3 1_555 1_555
C1_4 H1_4 1_555 1_555
H2_4 C1_4 1_555 1_555
H3_4 C1_4 1_555 1_555
H4_4 N1_4 1_555 1_555
H5_4 N1_4 1_555 1_555
C2_4 N1_4 1_555 1_555
H6_4 C2_4 1_555 1_555
H7_4 C2_4 1_555 1_555
H8_4 C2_4 1_555 1_555
O7 Cd1 1_555 1_555
O9 Cd1 1_555 1_555
O11 Cd1 1_555 1_555
O7 C11 1_555 1_555
O2 C3 1_555 1_555
O3 C3 1_555 1_555
C3 C8 1_555 1_555
O4 C10 1_555 1_555
O5 C10 1_555 1_555
C4 C6 1_555 1_555
C5 C6 1_555 1_555
C6 C10 1_555 1_555
C7 C8 1_555 1_555
C8 C4 1_555 1_555
C9 C5 1_555 1_555
C11 C9 1_555 1_555
O11 C11 1_555 1_555
H9 C7 1_555 1_555
H10 C5 1_555 1_555
H11 C4 1_555 1_555
Cd3 O2 1_555 1_555
C7 C9 1_555 1_555
O1 C11_2 1_555 1_555
C11_2 C9_2 1_555 1_555
O6 C11_2 1_555 1_555
H9_2 C7_2 1_555 1_555
Cd3 O1 1_555 1_555
C7_2 C9_2 1_555 1_555
O6 Cd3 1_555 1_555
O3_2 C3_2 1_555 1_555
C3_2 C8_2 1_555 1_555
O4_2 C10_2 1_555 1_555
Cd3 O5_2 1_555 1_555
O5_2 C10_2 1_555 1_555
C4_2 C6_2 1_555 1_555
C5_2 C6_2 1_555 1_555
C6_2 C10_2 1_555 1_555
C8_2 C4_2 1_555 1_555
H10_2 C5_2 1_555 1_555
H11_2 C4_2 1_555 1_555
Cd4 O3_2 1_555 1_555
O1_2 C11_3 1_555 1_555
O2_2 C3_3 1_555 1_555
O9_2 C3_3 1_555 1_555
C3_3 C8_3 1_555 1_555
O10 C10_3 1_555 1_555
O5_3 C10_3 1_555 1_555
C4_3 C6_3 1_555 1_555
C5_3 C6_3 1_555 1_555
C6_3 C10_3 1_555 1_555
C7_3 C8_3 1_555 1_555
C8_3 C4_3 1_555 1_555
C9_3 C5_3 1_555 1_555
C11_3 C9_3 1_555 1_555
O6_2 C11_3 1_555 1_555
H9_3 C7_3 1_555 1_555
H10_3 C5_3 1_555 1_555
H11_3 C4_3 1_555 1_555
Cd4 O1_2 1_555 1_555
Cd5 O2_2 1_555 1_555
C7_3 C9_3 1_555 1_555
O6_2 Cd4 1_555 1_555
O9 C3_4 1_555 1_555
C3_4 C8_4 1_555 1_555
O10_2 C10_4 1_555 1_555
Cd5 O5_4 1_555 1_555
O5_4 C10_4 1_555 1_555
C4_4 C6_4 1_555 1_555
C5_4 C6_4 1_555 1_555
C6_4 C10_4 1_555 1_555
C8_4 C4_4 1_555 1_555
H10_4 C5_4 1_555 1_555
H11_4 C4_4 1_555 1_555
O7_2 Cd5 1_555 1_555
O11_2 Cd5 1_555 1_555
O7_2 C11_4 1_555 1_555
C11_4 C9_4 1_555 1_555
O11_2 C11_4 1_555 1_555
H9_4 C7_4 1_555 1_555
C7_4 C9_4 1_555 1_555

#END
