
###############################################################################
#
# This file contains modified crystal structure data generated from the
# MOF subset of the Cambridge Structural Database (CSD) v543 
# hosted by the Cambridge Crystallographic Data Centre (CCDC).
#
# This work is licensed under the Creative Commons
# Attribution-NonCommercial-ShareAlike 4.0 International License.
# To view a copy of this license, visit
# http://creativecommons.org/licenses/by-nc-sa/4.0/
# or send a letter to
# Creative Commons, PO Box 1866, Mountain View, CA 94042, USA.
#
# CIF created using the CSD Python API on 29 September 2022
# The structure has been converted into the P1 space group
# The structure has a 3D framework
# The original CSD entry PARLON is in the monoclinic crystal system
# The framework has been calculated to contain at least 10.0% void space
# The void calculation uses a probe of radius 1.32A, grid spacing 0.4
#
###############################################################################

data_PARLON
_chemical_formula_moiety         '(C192 H128 Mn14 N64 Nb6 S32)n'
_symmetry_cell_setting           triclinic
_symmetry_space_group_name_H-M   'P 1'
_symmetry_Int_Tables_number      1
_space_group_name_Hall           'P 1'
loop_
_symmetry_equiv_pos_site_id
_symmetry_equiv_pos_as_xyz
1 x,y,z
_cell_length_a                   20.7322(5)
_cell_length_b                   14.0610(3)
_cell_length_c                   20.3783(5)
_cell_angle_alpha                90
_cell_angle_beta                 97.834(2)
_cell_angle_gamma                90
_cell_volume                     5885.15
loop_
_atom_site_label
_atom_site_type_symbol
_atom_site_fract_x
_atom_site_fract_y
_atom_site_fract_z
Mn5 Mn 0.000000 0.000000 0.000000
N8 N 0.7023(3) 0.1099(5) 0.7076(3)
C20 C 0.6823(4) 0.0441(6) 0.7481(4)
H13 H 0.694296 0.052581 0.794402
C23 C 0.6470(4) 0.0198(6) 0.6167(4)
H15 H 0.634633 0.013956 0.570229
C24 C 0.6844(4) 0.0954(5) 0.6422(4)
H16 H 0.698471 0.139974 0.612089
Mn5_2 Mn 0.000000 0.000000 1.000000
Mn8 Mn 0.750000 0.250000 0.750000
Mn5_3 Mn -0.000000 1.000000 0.000000
Nb1 Nb 0.250000 0.61491(6) 0.500000
Mn1 Mn 0.000000 0.500000 0.500000
Mn2 Mn 0.250000 0.750000 0.750000
S1 S 0.06073(15) 0.04722(18) 0.39159(14)
S2 S 0.13073(13) 0.05245(19) 0.33102(14)
S3 S 0.56703(12) 0.77109(16) 0.69947(18)
S4 S 0.58317(12) 0.85429(18) 0.62228(15)
N1 N 0.0934(3) 0.5484(5) 0.4819(4)
N2 N 0.2343(3) 0.6891(5) 0.6533(3)
N3 N 0.2374(4) 0.4242(6) 0.3967(4)
N4 N 0.3465(3) 0.8125(5) 0.5128(3)
N5 N 0.0284(3) 0.3477(5) 0.4705(4)
N6 N 0.0390(3) 0.0263(5) 0.1140(4)
N7 N 0.3548(3) 0.7916(5) 0.7343(3)
C1 C 0.1471(4) 0.5706(5) 0.4878(4)
C2 C 0.2395(3) 0.6625(5) 0.6013(3)
C3 C 0.2429(4) 0.4869(5) 0.4330(4)
C4 C 0.3140(3) 0.7456(5) 0.5110(3)
C7 C 0.0509(5) 0.1667(6) 0.4211(5)
C8 C 0.0950(4) 0.2398(7) 0.4154(6)
H3 H 0.132740 0.229825 0.394625
C9 C 0.0815(4) 0.3285(7) 0.4414(5)
H4 H 0.111763 0.378504 0.438462
C10 C 0.1030(4) 0.0311(7) 0.1348(5)
H5 H 0.131402 0.028993 0.102047
C11 C 0.1309(4) 0.0389(6) 0.1997(5)
H6 H 0.176793 0.041719 0.211150
C12 C 0.0892(5) 0.0424(6) 0.2486(5)
C13 C 0.0244(5) 0.0372(6) 0.2287(5)
C14 C 0.0006(4) 0.0301(6) 0.1618(5)
C15 C 0.3719(4) 0.8056(6) 0.6741(4)
H9 H 0.338023 0.815490 0.638483
C16 C 0.4344(4) 0.8066(6) 0.6601(5)
H10 H 0.443733 0.817466 0.616353
C17 C 0.4842(4) 0.7910(6) 0.7126(5)
C18 C 0.4691(5) 0.7801(6) 0.7745(5)
H11 H 0.502442 0.772062 0.810953
C19 C 0.4039(4) 0.7808(6) 0.7841(4)
H12 H 0.393594 0.773219 0.827847
C21 C 0.6459(5) 0.9653(6) 0.7274(5)
H14 H 0.633529 0.920955 0.758616
C22 C 0.6275(4) 0.9520(6) 0.6597(5)
N9 N 0.4066(3) 0.5484(5) 0.5181(4)
N10 N 0.2657(3) 0.6891(5) 0.3467(3)
N11 N 0.2626(4) 0.4242(6) 0.6033(4)
N12 N 0.1535(3) 0.8125(5) 0.4872(3)
C25 C 0.3529(4) 0.5706(5) 0.5122(4)
C26 C 0.2605(3) 0.6625(5) 0.3987(3)
C27 C 0.2571(4) 0.4869(5) 0.5670(4)
C28 C 0.1860(3) 0.7456(5) 0.4890(3)
C29 C 0.0121(4) 0.7251(7) 0.5258(5)
H17 H 0.050371 0.713833 0.506075
C30 C 0.0025(4) 0.8156(6) 0.5486(5)
H18 H 0.032689 0.864930 0.543159
H23 H 0.005030 0.961652 0.739341
H24 H 0.045260 0.972224 0.850697
N15 N 0.1452(3) 0.7084(5) 0.7657(3)
C39 C 0.1281(4) 0.6944(6) 0.8259(4)
H25 H 0.161977 0.684510 0.861517
C40 C 0.0656(4) 0.6934(6) 0.8399(5)
H26 H 0.056267 0.682534 0.883647
C41 C 0.0158(4) 0.7090(6) 0.7874(5)
C42 C 0.0309(5) 0.7199(6) 0.7255(5)
C43 C 0.0961(4) 0.7192(6) 0.7159(4)
H28 H 0.106406 0.726781 0.672153
Mn3 Mn 0.500000 0.500000 0.500000
Mn5_4 Mn 0.000000 1.000000 1.000000
Mn6 Mn 0.250000 0.750000 0.250000
N18 N 0.2657(3) 0.8109(5) 0.8467(3)
N20 N 0.0390(3) 0.4737(5) 0.6140(4)
N21 N 0.2977(3) 0.6099(5) 0.7924(3)
N22 N 0.2023(3) 0.8901(5) 0.7076(3)
Mn5_5 Mn 1.000000 0.000000 0.000000
Mn5_6 Mn 1.000000 0.000000 1.000000
Mn5_7 Mn 1.000000 1.000000 0.000000
Mn1_2 Mn 1.000000 0.500000 0.500000
C5 C 0.9879(4) 0.2749(7) 0.4742(5)
H1 H 0.949629 0.286167 0.493925
C6 C 0.9975(4) 0.1844(6) 0.4514(5)
H2 H 0.967311 0.135070 0.456841
H7 H 0.994970 0.038348 0.260659
H8 H 0.954740 0.027776 0.149303
S5 S 0.93927(15) 0.95278(18) 0.60841(14)
S6 S 0.86927(13) 0.94755(19) 0.66898(14)
N13 N 0.9716(3) 0.6523(5) 0.5295(4)
N14 N 0.9610(3) 0.9737(5) 0.8860(4)
C31 C 0.9491(5) 0.8333(6) 0.5789(5)
C32 C 0.9050(4) 0.7602(7) 0.5846(6)
H19 H 0.867260 0.770175 0.605375
C33 C 0.9185(4) 0.6715(7) 0.5586(5)
H20 H 0.888237 0.621496 0.561538
C34 C 0.8970(4) 0.9689(7) 0.8652(5)
H21 H 0.868598 0.971007 0.897953
C35 C 0.8691(4) 0.9611(6) 0.8003(5)
H22 H 0.823207 0.958281 0.788850
C36 C 0.9108(5) 0.9576(6) 0.7514(5)
C37 C 0.9756(5) 0.9628(6) 0.7713(5)
C38 C 0.9994(4) 0.9699(6) 0.8382(5)
S7 S 0.93297(12) 0.72891(16) 0.80053(18)
S8 S 0.91683(12) 0.64571(18) 0.87772(15)
N16 N 0.7977(3) 0.3901(5) 0.7924(3)
H27 H 0.997558 0.727938 0.689047
C44 C 0.8177(4) 0.4559(6) 0.7519(4)
H29 H 0.805704 0.447419 0.705598
C45 C 0.8541(5) 0.5347(6) 0.7726(5)
H30 H 0.866471 0.579045 0.741384
C46 C 0.8725(4) 0.5480(6) 0.8403(5)
C47 C 0.8530(4) 0.4802(6) 0.8833(4)
H31 H 0.865367 0.486044 0.929771
C48 C 0.8156(4) 0.4046(5) 0.8578(4)
H32 H 0.801529 0.360026 0.887911
Mn5_8 Mn 1.000000 1.000000 1.000000
N17 N 0.9066(3) 0.4516(5) 0.5181(4)
N19 N 0.9610(3) 0.5263(5) 0.3860(4)
Mn5_9 Mn 0.500000 0.000000 -0.000000
Mn5_10 Mn 0.500000 0.000000 1.000000
S1_2 S 0.43927(15) 0.04722(18) 0.60841(14)
S2_2 S 0.36927(13) 0.05245(19) 0.66898(14)
N5_2 N 0.4716(3) 0.3477(5) 0.5295(4)
N6_2 N 0.4610(3) 0.0263(5) 0.8860(4)
N7_2 N 0.1452(3) 0.7916(5) 0.2657(3)
C5_2 C 0.5121(4) 0.2749(7) 0.5258(5)
H1_2 H 0.550371 0.286167 0.506075
C6_2 C 0.5025(4) 0.1844(6) 0.5486(5)
H2_2 H 0.532689 0.135070 0.543159
C7_2 C 0.4491(5) 0.1667(6) 0.5789(5)
C8_2 C 0.4050(4) 0.2398(7) 0.5846(6)
H3_2 H 0.367260 0.229825 0.605375
C9_2 C 0.4185(4) 0.3285(7) 0.5586(5)
H4_2 H 0.388237 0.378504 0.561538
C10_2 C 0.3970(4) 0.0311(7) 0.8652(5)
H5_2 H 0.368598 0.028993 0.897953
C11_2 C 0.3691(4) 0.0389(6) 0.8003(5)
H6_2 H 0.323207 0.041719 0.788850
C12_2 C 0.4108(5) 0.0424(6) 0.7514(5)
C13_2 C 0.4756(5) 0.0372(6) 0.7713(5)
H7_2 H 0.505030 0.038348 0.739341
C14_2 C 0.4994(4) 0.0301(6) 0.8382(5)
H8_2 H 0.545260 0.027776 0.850697
C15_2 C 0.1281(4) 0.8056(6) 0.3259(4)
H9_2 H 0.161977 0.815490 0.361517
C16_2 C 0.0656(4) 0.8066(6) 0.3399(5)
H10_2 H 0.056267 0.817466 0.383647
C17_2 C 0.0158(4) 0.7910(6) 0.2874(5)
C18_2 C 0.0309(5) 0.7801(6) 0.2255(5)
C19_2 C 0.0961(4) 0.7808(6) 0.2159(4)
H12_2 H 0.106406 0.773219 0.172153
S5_2 S 0.56073(15) 0.95278(18) 0.39159(14)
S6_2 S 0.63073(13) 0.94755(19) 0.33102(14)
N13_2 N 0.5284(3) 0.6523(5) 0.4705(4)
N14_2 N 0.5390(3) 0.9737(5) 0.1140(4)
C29_2 C 0.4879(4) 0.7251(7) 0.4742(5)
H17_2 H 0.449629 0.713833 0.493925
C30_2 C 0.4975(4) 0.8156(6) 0.4514(5)
H18_2 H 0.467311 0.864930 0.456841
C31_2 C 0.5509(5) 0.8333(6) 0.4211(5)
C32_2 C 0.5950(4) 0.7602(7) 0.4154(6)
H19_2 H 0.632740 0.770175 0.394625
C33_2 C 0.5815(4) 0.6715(7) 0.4414(5)
H20_2 H 0.611763 0.621496 0.438462
C34_2 C 0.6030(4) 0.9689(7) 0.1348(5)
H21_2 H 0.631402 0.971007 0.102047
C35_2 C 0.6309(4) 0.9611(6) 0.1997(5)
H22_2 H 0.676793 0.958281 0.211150
C36_2 C 0.5892(5) 0.9576(6) 0.2486(5)
C37_2 C 0.5244(5) 0.9628(6) 0.2287(5)
H23_2 H 0.494970 0.961652 0.260659
C38_2 C 0.5006(4) 0.9699(6) 0.1618(5)
H24_2 H 0.454740 0.972224 0.149303
S7_2 S 0.56703(12) 0.72891(16) 0.19947(18)
S8_2 S 0.58317(12) 0.64571(18) 0.12228(15)
N15_2 N 0.3548(3) 0.7084(5) 0.2343(3)
N16_2 N 0.7023(3) 0.3901(5) 0.2076(3)
C39_2 C 0.3719(4) 0.6944(6) 0.1741(4)
H25_2 H 0.338023 0.684510 0.138483
C40_2 C 0.4344(4) 0.6934(6) 0.1601(5)
H26_2 H 0.443733 0.682534 0.116353
C41_2 C 0.4842(4) 0.7090(6) 0.2126(5)
C42_2 C 0.4691(5) 0.7199(6) 0.2745(5)
H27_2 H 0.502442 0.727938 0.310953
C43_2 C 0.4039(4) 0.7192(6) 0.2841(4)
H28_2 H 0.393594 0.726781 0.327847
C44_2 C 0.6823(4) 0.4559(6) 0.2481(4)
H29_2 H 0.694296 0.447419 0.294402
C45_2 C 0.6459(5) 0.5347(6) 0.2274(5)
H30_2 H 0.633529 0.579045 0.258616
C46_2 C 0.6275(4) 0.5480(6) 0.1597(5)
C47_2 C 0.6470(4) 0.4802(6) 0.1167(4)
H31_2 H 0.634633 0.486044 0.070229
C48_2 C 0.6844(4) 0.4046(5) 0.1422(4)
H32_2 H 0.698471 0.360026 0.112089
Mn5_11 Mn 0.500000 1.000000 -0.000000
Mn7 Mn 0.750000 0.250000 0.250000
N17_2 N 0.5934(3) 0.4516(5) 0.4819(4)
N18_2 N 0.2343(3) 0.8109(5) 0.1533(3)
N19_2 N 0.5390(3) 0.5263(5) 0.6140(4)
N20_2 N 0.4610(3) 0.4737(5) 0.3860(4)
N21_2 N 0.2023(3) 0.6099(5) 0.2076(3)
N22_2 N 0.2977(3) 0.8901(5) 0.2924(3)
Mn5_12 Mn 0.500000 1.000000 1.000000
N8_2 N 0.7977(3) 0.1099(5) 0.2924(3)
C20_2 C 0.8177(4) 0.0441(6) 0.2519(4)
H13_2 H 0.805704 0.052581 0.205598
C23_2 C 0.8530(4) 0.0198(6) 0.3833(4)
H15_2 H 0.865367 0.013956 0.429771
C24_2 C 0.8156(4) 0.0954(5) 0.3578(4)
H16_2 H 0.801529 0.139974 0.387911
S3_2 S 0.93297(12) 0.77109(16) 0.30053(18)
S4_2 S 0.91683(12) 0.85429(18) 0.37772(15)
H11_2 H 0.997558 0.772062 0.189047
C21_2 C 0.8541(5) 0.9653(6) 0.2726(5)
H14_2 H 0.866471 0.920955 0.241384
C22_2 C 0.8725(4) 0.9520(6) 0.3403(5)
S3_3 S 0.06703(12) 0.27109(16) 0.19947(18)
S4_3 S 0.08317(12) 0.35429(18) 0.12228(15)
H11_3 H 0.002442 0.272062 0.310953
C20_3 C 0.1823(4) 0.5441(6) 0.2481(4)
H13_3 H 0.194296 0.552581 0.294402
C21_3 C 0.1459(5) 0.4653(6) 0.2274(5)
H14_3 H 0.133529 0.420955 0.258616
C22_3 C 0.1275(4) 0.4520(6) 0.1597(5)
C23_3 C 0.1470(4) 0.5198(6) 0.1167(4)
H15_3 H 0.134633 0.513956 0.070229
C24_3 C 0.1844(4) 0.5954(5) 0.1422(4)
H16_3 H 0.198471 0.639974 0.112089
Nb1_2 Nb 0.750000 0.11491(6) 0.000000
N2_2 N 0.7343(3) 0.1891(5) 0.1533(3)
N4_2 N 0.8465(3) 0.3125(5) 0.0128(3)
N7_3 N 0.8548(3) 0.2916(5) 0.2343(3)
C2_2 C 0.7395(3) 0.1625(5) 0.1013(3)
C4_2 C 0.8140(3) 0.2456(5) 0.0110(3)
C15_3 C 0.8719(4) 0.3056(6) 0.1741(4)
H9_3 H 0.838023 0.315490 0.138483
C16_3 C 0.9344(4) 0.3066(6) 0.1601(5)
H10_3 H 0.943733 0.317466 0.116353
C17_3 C 0.9842(4) 0.2910(6) 0.2126(5)
C18_3 C 0.9691(5) 0.2801(6) 0.2745(5)
C19_3 C 0.9039(4) 0.2808(6) 0.2841(4)
H12_3 H 0.893594 0.273219 0.327847
N9_2 N 0.9066(3) 0.0484(5) 0.0181(4)
C25_2 C 0.8529(4) 0.0706(5) 0.0122(4)
S5_3 S 0.43927(15) 0.45278(18) 0.10841(14)
S6_3 S 0.36927(13) 0.44755(19) 0.16898(14)
N13_3 N 0.4716(3) 0.1523(5) 0.0295(4)
C29_3 C 0.5121(4) 0.2251(7) 0.0258(5)
H17_3 H 0.550371 0.213833 0.006075
C30_3 C 0.5025(4) 0.3156(6) 0.0486(5)
H18_3 H 0.532689 0.364930 0.043159
C31_3 C 0.4491(5) 0.3333(6) 0.0789(5)
C32_3 C 0.4050(4) 0.2602(7) 0.0846(6)
H19_3 H 0.367260 0.270175 0.105375
C33_3 C 0.4185(4) 0.1715(7) 0.0586(5)
H20_3 H 0.388237 0.121496 0.061538
C34_3 C 0.3970(4) 0.4689(7) 0.3652(5)
H21_3 H 0.368598 0.471007 0.397953
C35_3 C 0.3691(4) 0.4611(6) 0.3003(5)
H22_3 H 0.323207 0.458281 0.288850
C36_3 C 0.4108(5) 0.4576(6) 0.2514(5)
C37_3 C 0.4756(5) 0.4628(6) 0.2713(5)
H23_3 H 0.505030 0.461652 0.239341
C38_3 C 0.4994(4) 0.4699(6) 0.3382(5)
H24_3 H 0.545260 0.472224 0.350697
S7_3 S 0.43297(12) 0.22891(16) 0.30053(18)
S8_3 S 0.41683(12) 0.14571(18) 0.37772(15)
N15_3 N 0.6452(3) 0.2084(5) 0.2657(3)
C39_3 C 0.6281(4) 0.1944(6) 0.3259(4)
H25_3 H 0.661977 0.184510 0.361517
C40_3 C 0.5656(4) 0.1934(6) 0.3399(5)
H26_3 H 0.556267 0.182534 0.383647
C41_3 C 0.5158(4) 0.2090(6) 0.2874(5)
C42_3 C 0.5309(5) 0.2199(6) 0.2255(5)
H27_3 H 0.497558 0.227938 0.189047
C43_3 C 0.5961(4) 0.2192(6) 0.2159(4)
H28_3 H 0.606406 0.226781 0.172153
C45_3 C 0.3541(5) 0.0347(6) 0.2726(5)
H30_3 H 0.366471 0.079045 0.241384
C46_3 C 0.3725(4) 0.0480(6) 0.3403(5)
N18_3 N 0.7657(3) 0.3109(5) 0.3467(3)
Nb1_3 Nb 0.750000 0.11491(6) 1.000000
N1_2 N 0.5934(3) 0.0484(5) 0.9819(4)
C1_2 C 0.6471(4) 0.0706(5) 0.9878(4)
N10_2 N 0.7657(3) 0.1891(5) 0.8467(3)
N12_2 N 0.6535(3) 0.3125(5) 0.9872(3)
C26_2 C 0.7605(3) 0.1625(5) 0.8987(3)
C28_2 C 0.6860(3) 0.2456(5) 0.9890(3)
N11_2 N 0.7626(4) 0.9242(6) 0.1033(4)
C27_2 C 0.7571(4) 0.9869(5) 0.0670(4)
C44_3 C 0.3177(4) 0.9559(6) 0.2519(4)
H29_3 H 0.305704 0.947419 0.205598
C47_3 C 0.3530(4) 0.9802(6) 0.3833(4)
H31_3 H 0.365367 0.986044 0.429771
C48_3 C 0.3156(4) 0.9046(5) 0.3578(4)
H32_3 H 0.301529 0.860026 0.387911
N17_3 N 0.4066(3) 0.9516(5) 0.0181(4)
S1_3 S 0.56073(15) 0.54722(18) 0.89159(14)
S2_3 S 0.63073(13) 0.55245(19) 0.83102(14)
N3_2 N 0.7374(4) 0.9242(6) 0.8967(4)
N5_3 N 0.5284(3) 0.8477(5) 0.9705(4)
C3_2 C 0.7429(4) 0.9869(5) 0.9330(4)
C5_3 C 0.4879(4) 0.7749(7) 0.9742(5)
H1_3 H 0.449629 0.786167 0.993925
C6_3 C 0.4975(4) 0.6844(6) 0.9514(5)
H2_3 H 0.467311 0.635070 0.956841
C7_3 C 0.5509(5) 0.6667(6) 0.9211(5)
C8_3 C 0.5950(4) 0.7398(7) 0.9154(6)
H3_3 H 0.632740 0.729825 0.894625
C9_3 C 0.5815(4) 0.8285(7) 0.9414(5)
H4_3 H 0.611763 0.878504 0.938462
C10_3 C 0.6030(4) 0.5311(7) 0.6348(5)
H5_3 H 0.631402 0.528993 0.602047
C11_3 C 0.6309(4) 0.5389(6) 0.6997(5)
H6_3 H 0.676793 0.541719 0.711150
C12_3 C 0.5892(5) 0.5424(6) 0.7486(5)
C13_3 C 0.5244(5) 0.5372(6) 0.7287(5)
H7_3 H 0.494970 0.538348 0.760659
C14_3 C 0.5006(4) 0.5301(6) 0.6618(5)
H8_3 H 0.454740 0.527776 0.649303
S5_4 S 0.06073(15) 0.45278(18) 0.89159(14)
S6_4 S 0.13073(13) 0.44755(19) 0.83102(14)
N13_4 N 0.0284(3) 0.1523(5) 0.9705(4)
C31_4 C 0.0509(5) 0.3333(6) 0.9211(5)
C32_4 C 0.0950(4) 0.2602(7) 0.9154(6)
H19_4 H 0.132740 0.270175 0.894625
C33_4 C 0.0815(4) 0.1715(7) 0.9414(5)
H20_4 H 0.111763 0.121496 0.938462
C34_4 C 0.1030(4) 0.4689(7) 0.6348(5)
H21_4 H 0.131402 0.471007 0.602047
C35_4 C 0.1309(4) 0.4611(6) 0.6997(5)
H22_4 H 0.176793 0.458281 0.711150
C36_4 C 0.0892(5) 0.4576(6) 0.7486(5)
C37_4 C 0.0244(5) 0.4628(6) 0.7287(5)
C38_4 C 0.0006(4) 0.4699(6) 0.6618(5)
S7_4 S 0.06703(12) 0.22891(16) 0.69947(18)
S8_4 S 0.08317(12) 0.14571(18) 0.62228(15)
H27_4 H 0.002442 0.227938 0.810953
C45_4 C 0.1459(5) 0.0347(6) 0.7274(5)
H30_4 H 0.133529 0.079045 0.758616
C46_4 C 0.1275(4) 0.0480(6) 0.6597(5)
C5_4 C 0.0121(4) 0.7749(7) 0.0258(5)
H1_4 H 0.050371 0.786167 0.006075
C6_4 C 0.0025(4) 0.6844(6) 0.0486(5)
H2_4 H 0.032689 0.635070 0.043159
H7_4 H 0.005030 0.538348 0.239341
H8_4 H 0.045260 0.527776 0.350697
C44_4 C 0.1823(4) 0.9559(6) 0.7481(4)
H29_4 H 0.194296 0.947419 0.794402
C47_4 C 0.1470(4) 0.9802(6) 0.6167(4)
H31_4 H 0.134633 0.986044 0.570229
C48_4 C 0.1844(4) 0.9046(5) 0.6422(4)
H32_4 H 0.198471 0.860026 0.612089
N17_4 N 0.0934(3) 0.9516(5) 0.9819(4)
S3_4 S 0.43297(12) 0.27109(16) 0.80053(18)
S4_4 S 0.41683(12) 0.35429(18) 0.87772(15)
N7_4 N 0.6452(3) 0.2916(5) 0.7657(3)
C15_4 C 0.6281(4) 0.3056(6) 0.8259(4)
H9_4 H 0.661977 0.315490 0.861517
C16_4 C 0.5656(4) 0.3066(6) 0.8399(5)
H10_4 H 0.556267 0.317466 0.883647
C17_4 C 0.5158(4) 0.2910(6) 0.7874(5)
C18_4 C 0.5309(5) 0.2801(6) 0.7255(5)
H11_4 H 0.497558 0.272062 0.689047
C19_4 C 0.5961(4) 0.2808(6) 0.7159(4)
H12_4 H 0.606406 0.273219 0.672153
C20_4 C 0.3177(4) 0.5441(6) 0.7519(4)
H13_4 H 0.305704 0.552581 0.705598
C21_4 C 0.3541(5) 0.4653(6) 0.7726(5)
H14_4 H 0.366471 0.420955 0.741384
C22_4 C 0.3725(4) 0.4520(6) 0.8403(5)
C23_4 C 0.3530(4) 0.5198(6) 0.8833(4)
H15_4 H 0.365367 0.513956 0.929771
C24_4 C 0.3156(4) 0.5954(5) 0.8578(4)
H16_4 H 0.301529 0.639974 0.887911
C29_4 C 0.9879(4) 0.2251(7) 0.9742(5)
H17_4 H 0.949629 0.213833 0.993925
C30_4 C 0.9975(4) 0.3156(6) 0.9514(5)
H18_4 H 0.967311 0.364930 0.956841
H23_4 H 0.994970 0.461652 0.760659
H24_4 H 0.954740 0.472224 0.649303
N15_4 N 0.8548(3) 0.2084(5) 0.7343(3)
C39_4 C 0.8719(4) 0.1944(6) 0.6741(4)
H25_4 H 0.838023 0.184510 0.638483
C40_4 C 0.9344(4) 0.1934(6) 0.6601(5)
H26_4 H 0.943733 0.182534 0.616353
C41_4 C 0.9842(4) 0.2090(6) 0.7126(5)
C42_4 C 0.9691(5) 0.2199(6) 0.7745(5)
C43_4 C 0.9039(4) 0.2192(6) 0.7841(4)
H28_4 H 0.893594 0.226781 0.827847
N18_4 N 0.7343(3) 0.3109(5) 0.6533(3)
S1_4 S 0.93927(15) 0.54722(18) 0.10841(14)
S2_4 S 0.86927(13) 0.55245(19) 0.16898(14)
N5_4 N 0.9716(3) 0.8477(5) 0.0295(4)
C7_4 C 0.9491(5) 0.6667(6) 0.0789(5)
C8_4 C 0.9050(4) 0.7398(7) 0.0846(6)
H3_4 H 0.867260 0.729825 0.105375
C9_4 C 0.9185(4) 0.8285(7) 0.0586(5)
H4_4 H 0.888237 0.878504 0.061538
C10_4 C 0.8970(4) 0.5311(7) 0.3652(5)
H5_4 H 0.868598 0.528993 0.397953
C11_4 C 0.8691(4) 0.5389(6) 0.3003(5)
H6_4 H 0.823207 0.541719 0.288850
C12_4 C 0.9108(5) 0.5424(6) 0.2514(5)
C13_4 C 0.9756(5) 0.5372(6) 0.2713(5)
C14_4 C 0.9994(4) 0.5301(6) 0.3382(5)
Nb1_4 Nb 0.750000 0.38509(6) 0.500000
N3_3 N 0.7626(4) 0.5758(6) 0.6033(4)
N4_3 N 0.6535(3) 0.1875(5) 0.4872(3)
C1_3 C 0.8529(4) 0.4294(5) 0.5122(4)
C2_3 C 0.7605(3) 0.3375(5) 0.3987(3)
C3_3 C 0.7571(4) 0.5131(5) 0.5670(4)
C4_3 C 0.6860(3) 0.2544(5) 0.4890(3)
N11_3 N 0.7374(4) 0.5758(6) 0.3967(4)
N12_3 N 0.8465(3) 0.1875(5) 0.5128(3)
C25_3 C 0.6471(4) 0.4294(5) 0.4878(4)
C26_3 C 0.7395(3) 0.3375(5) 0.6013(3)
C27_3 C 0.7429(4) 0.5131(5) 0.4330(4)
C28_3 C 0.8140(3) 0.2544(5) 0.5110(3)
N3_4 N 0.2626(4) 0.0758(6) 0.1033(4)
C3_4 C 0.2571(4) 0.0131(5) 0.0670(4)
N11_4 N 0.2374(4) 0.0758(6) 0.8967(4)
C27_4 C 0.2429(4) 0.0131(5) 0.9330(4)
Nb1_5 Nb 0.250000 0.88509(6) -0.000000
C1_4 C 0.3529(4) 0.9294(5) 0.0122(4)
N12_4 N 0.3465(3) 0.6875(5) 0.0128(3)
C26_4 C 0.2395(3) 0.8375(5) 0.1013(3)
C28_4 C 0.3140(3) 0.7544(5) 0.0110(3)
Nb1_6 Nb 0.250000 0.88509(6) 1.000000
N4_4 N 0.1535(3) 0.6875(5) 0.9872(3)
C2_4 C 0.2605(3) 0.8375(5) 0.8987(3)
C4_4 C 0.1860(3) 0.7544(5) 0.9890(3)
C25_4 C 0.1471(4) 0.9294(5) 0.9878(4)
loop_
_geom_bond_atom_site_label_1
_geom_bond_atom_site_label_2
_geom_bond_site_symmetry_1
_geom_bond_site_symmetry_2
N8 C20 1_555 1_555
C20 H13 1_555 1_555
H15 C23 1_555 1_555
C24 N8 1_555 1_555
H16 C24 1_555 1_555
Mn8 N8 1_555 1_555
C23 C24 1_555 1_555
Nb1 C1 1_555 1_555
Mn1 N1 1_555 1_555
Mn2 N2 1_555 1_555
S1 S2 1_555 1_555
S2 C12 1_555 1_555
S3 S4 1_555 1_555
S4 C22 1_555 1_555
N1 C1 1_555 1_555
N2 C2 1_555 1_555
N3 C3 1_555 1_555
N4 C4 1_555 1_555
N5 Mn1 1_555 1_555
N6 C10 1_555 1_555
N7 Mn2 1_555 1_555
C2 Nb1 1_555 1_555
C3 Nb1 1_555 1_555
C4 Nb1 1_555 1_555
C7 S1 1_555 1_555
C8 C7 1_555 1_555
H3 C8 1_555 1_555
C9 N5 1_555 1_555
H4 C9 1_555 1_555
C10 H5 1_555 1_555
C11 C10 1_555 1_555
H6 C11 1_555 1_555
C12 C11 1_555 1_555
C13 C12 1_555 1_555
C14 N6 1_555 1_555
C15 N7 1_555 1_555
H9 C15 1_555 1_555
C16 C15 1_555 1_555
H10 C16 1_555 1_555
C17 S3 1_555 1_555
C18 C17 1_555 1_555
H11 C18 1_555 1_555
C19 N7 1_555 1_555
H12 C19 1_555 1_555
H14 C21 1_555 1_555
C22 C21 1_555 1_555
N9 C25 1_555 1_555
N10 C26 1_555 1_555
N11 C27 1_555 1_555
N12 C28 1_555 1_555
C25 Nb1 1_555 1_555
C26 Nb1 1_555 1_555
C27 Nb1 1_555 1_555
C28 Nb1 1_555 1_555
H17 C29 1_555 1_555
C30 C29 1_555 1_555
H18 C30 1_555 1_555
N15 Mn2 1_555 1_555
C39 N15 1_555 1_555
H25 C39 1_555 1_555
C40 C39 1_555 1_555
H26 C40 1_555 1_555
C42 C41 1_555 1_555
C43 N15 1_555 1_555
H28 C43 1_555 1_555
Mn3 N9 1_555 1_555
Mn5 N6 1_555 1_555
Mn6 N10 1_555 1_555
N18 Mn2 1_555 1_555
N20 Mn1 1_555 1_555
N21 Mn2 1_555 1_555
N22 Mn2 1_555 1_555
C8 C9 1_555 1_555
C13 C14 1_555 1_555
C16 C17 1_555 1_555
C18 C19 1_555 1_555
C40 C41 1_555 1_555
C42 C43 1_555 1_555
H1 C5 1_555 1_555
C6 C5 1_555 1_555
H2 C6 1_555 1_555
S5 S6 1_555 1_555
S6 C36 1_555 1_555
N13 Mn1_2 1_555 1_555
N14 C34 1_555 1_555
C31 S5 1_555 1_555
C32 C31 1_555 1_555
H19 C32 1_555 1_555
C33 N13 1_555 1_555
H20 C33 1_555 1_555
C34 H21 1_555 1_555
C35 C34 1_555 1_555
H22 C35 1_555 1_555
C36 C35 1_555 1_555
C37 C36 1_555 1_555
C38 N14 1_555 1_555
S7 S8 1_555 1_555
S8 C46 1_555 1_555
N16 C44 1_555 1_555
C44 H29 1_555 1_555
C45 C44 1_555 1_555
H30 C45 1_555 1_555
C46 C45 1_555 1_555
C47 C46 1_555 1_555
H31 C47 1_555 1_555
C48 N16 1_555 1_555
H32 C48 1_555 1_555
Mn5_8 N14 1_555 1_555
Mn8 N16 1_555 1_555
N17 Mn1_2 1_555 1_555
N19 Mn1_2 1_555 1_555
C32 C33 1_555 1_555
C37 C38 1_555 1_555
C47 C48 1_555 1_555
S1_2 S2_2 1_555 1_555
S2_2 C12_2 1_555 1_555
N5_2 Mn3 1_555 1_555
N6_2 C10_2 1_555 1_555
N7_2 Mn6 1_555 1_555
C5_2 N5_2 1_555 1_555
H1_2 C5_2 1_555 1_555
C6_2 C5_2 1_555 1_555
H2_2 C6_2 1_555 1_555
C7_2 S1_2 1_555 1_555
C8_2 C7_2 1_555 1_555
H3_2 C8_2 1_555 1_555
C9_2 N5_2 1_555 1_555
H4_2 C9_2 1_555 1_555
C10_2 H5_2 1_555 1_555
C11_2 C10_2 1_555 1_555
H6_2 C11_2 1_555 1_555
C12_2 C11_2 1_555 1_555
C13_2 C12_2 1_555 1_555
H7_2 C13_2 1_555 1_555
C14_2 N6_2 1_555 1_555
H8_2 C14_2 1_555 1_555
C15_2 N7_2 1_555 1_555
H9_2 C15_2 1_555 1_555
C16_2 C15_2 1_555 1_555
H10_2 C16_2 1_555 1_555
C18_2 C17_2 1_555 1_555
C19_2 N7_2 1_555 1_555
H12_2 C19_2 1_555 1_555
S5_2 S6_2 1_555 1_555
S6_2 C36_2 1_555 1_555
N13_2 Mn3 1_555 1_555
N14_2 C34_2 1_555 1_555
C29_2 N13_2 1_555 1_555
H17_2 C29_2 1_555 1_555
C30_2 C29_2 1_555 1_555
H18_2 C30_2 1_555 1_555
C31_2 S5_2 1_555 1_555
C32_2 C31_2 1_555 1_555
H19_2 C32_2 1_555 1_555
C33_2 N13_2 1_555 1_555
H20_2 C33_2 1_555 1_555
C34_2 H21_2 1_555 1_555
C35_2 C34_2 1_555 1_555
H22_2 C35_2 1_555 1_555
C36_2 C35_2 1_555 1_555
C37_2 C36_2 1_555 1_555
H23_2 C37_2 1_555 1_555
C38_2 N14_2 1_555 1_555
H24_2 C38_2 1_555 1_555
S7_2 S8_2 1_555 1_555
S8_2 C46_2 1_555 1_555
N15_2 Mn6 1_555 1_555
N16_2 C44_2 1_555 1_555
C39_2 N15_2 1_555 1_555
H25_2 C39_2 1_555 1_555
C40_2 C39_2 1_555 1_555
H26_2 C40_2 1_555 1_555
C41_2 S7_2 1_555 1_555
C42_2 C41_2 1_555 1_555
H27_2 C42_2 1_555 1_555
C43_2 N15_2 1_555 1_555
H28_2 C43_2 1_555 1_555
C44_2 H29_2 1_555 1_555
C45_2 C44_2 1_555 1_555
H30_2 C45_2 1_555 1_555
C46_2 C45_2 1_555 1_555
C47_2 C46_2 1_555 1_555
H31_2 C47_2 1_555 1_555
C48_2 N16_2 1_555 1_555
H32_2 C48_2 1_555 1_555
Mn5_10 N6_2 1_555 1_555
Mn5_11 N14_2 1_555 1_555
Mn7 N16_2 1_555 1_555
N17_2 Mn3 1_555 1_555
N18_2 Mn6 1_555 1_555
N19_2 Mn3 1_555 1_555
N20_2 Mn3 1_555 1_555
N21_2 Mn6 1_555 1_555
N22_2 Mn6 1_555 1_555
C6_2 C7_2 1_555 1_555
C8_2 C9_2 1_555 1_555
C13_2 C14_2 1_555 1_555
C16_2 C17_2 1_555 1_555
C18_2 C19_2 1_555 1_555
C30_2 C31_2 1_555 1_555
C32_2 C33_2 1_555 1_555
C37_2 C38_2 1_555 1_555
C40_2 C41_2 1_555 1_555
C42_2 C43_2 1_555 1_555
C47_2 C48_2 1_555 1_555
N8_2 C20_2 1_555 1_555
C20_2 H13_2 1_555 1_555
H15_2 C23_2 1_555 1_555
C24_2 N8_2 1_555 1_555
H16_2 C24_2 1_555 1_555
Mn7 N8_2 1_555 1_555
C23_2 C24_2 1_555 1_555
S3_2 S4_2 1_555 1_555
S4_2 C22_2 1_555 1_555
H14_2 C21_2 1_555 1_555
C22_2 C21_2 1_555 1_555
S3_3 S4_3 1_555 1_555
S4_3 C22_3 1_555 1_555
N21_2 C20_3 1_555 1_555
C20_3 H13_3 1_555 1_555
C21_3 C20_3 1_555 1_555
H14_3 C21_3 1_555 1_555
C22_3 C21_3 1_555 1_555
C23_3 C22_3 1_555 1_555
H15_3 C23_3 1_555 1_555
C24_3 N21_2 1_555 1_555
H16_3 C24_3 1_555 1_555
C23_3 C24_3 1_555 1_555
Mn7 N2_2 1_555 1_555
N2_2 C2_2 1_555 1_555
N4_2 C4_2 1_555 1_555
N7_3 Mn7 1_555 1_555
C2_2 Nb1_2 1_555 1_555
C4_2 Nb1_2 1_555 1_555
C15_3 N7_3 1_555 1_555
H9_3 C15_3 1_555 1_555
C16_3 C15_3 1_555 1_555
H10_3 C16_3 1_555 1_555
C18_3 C17_3 1_555 1_555
C19_3 N7_3 1_555 1_555
H12_3 C19_3 1_555 1_555
N9_2 C25_2 1_555 1_555
C25_2 Nb1_2 1_555 1_555
S5_3 S6_3 1_555 1_555
S6_3 C36_3 1_555 1_555
N13_3 Mn5_9 1_555 1_555
N20_2 C34_3 1_555 1_555
C29_3 N13_3 1_555 1_555
H17_3 C29_3 1_555 1_555
C30_3 C29_3 1_555 1_555
H18_3 C30_3 1_555 1_555
C31_3 S5_3 1_555 1_555
C32_3 C31_3 1_555 1_555
H19_3 C32_3 1_555 1_555
C33_3 N13_3 1_555 1_555
H20_3 C33_3 1_555 1_555
C34_3 H21_3 1_555 1_555
C35_3 C34_3 1_555 1_555
H22_3 C35_3 1_555 1_555
C36_3 C35_3 1_555 1_555
C37_3 C36_3 1_555 1_555
H23_3 C37_3 1_555 1_555
C38_3 N20_2 1_555 1_555
H24_3 C38_3 1_555 1_555
S7_3 S8_3 1_555 1_555
S8_3 C46_3 1_555 1_555
N15_3 Mn7 1_555 1_555
C39_3 N15_3 1_555 1_555
H25_3 C39_3 1_555 1_555
C40_3 C39_3 1_555 1_555
H26_3 C40_3 1_555 1_555
C41_3 S7_3 1_555 1_555
C42_3 C41_3 1_555 1_555
H27_3 C42_3 1_555 1_555
C43_3 N15_3 1_555 1_555
H28_3 C43_3 1_555 1_555
H30_3 C45_3 1_555 1_555
C46_3 C45_3 1_555 1_555
Mn5_5 N9_2 1_555 1_555
N18_3 Mn7 1_555 1_555
C16_3 C17_3 1_555 1_555
C18_3 C19_3 1_555 1_555
C30_3 C31_3 1_555 1_555
C32_3 C33_3 1_555 1_555
C37_3 C38_3 1_555 1_555
C40_3 C41_3 1_555 1_555
C42_3 C43_3 1_555 1_555
Nb1_3 C1_2 1_555 1_555
Mn5_10 N1_2 1_555 1_555
N1_2 C1_2 1_555 1_555
N10_2 C26_2 1_555 1_555
N12_2 C28_2 1_555 1_555
C26_2 Nb1_3 1_555 1_555
C28_2 Nb1_3 1_555 1_555
Mn8 N10_2 1_555 1_555
N11_2 C27_2 1_555 1_555
N22_2 C44_3 1_555 1_555
C44_3 H29_3 1_555 1_555
H31_3 C47_3 1_555 1_555
C48_3 N22_2 1_555 1_555
H32_3 C48_3 1_555 1_555
N17_3 Mn5_11 1_555 1_555
C47_3 C48_3 1_555 1_555
S1_3 S2_3 1_555 1_555
S2_3 C12_3 1_555 1_555
N3_2 C3_2 1_555 1_555
N5_3 Mn5_12 1_555 1_555
N19_2 C10_3 1_555 1_555
C5_3 N5_3 1_555 1_555
H1_3 C5_3 1_555 1_555
C6_3 C5_3 1_555 1_555
H2_3 C6_3 1_555 1_555
C7_3 S1_3 1_555 1_555
C8_3 C7_3 1_555 1_555
H3_3 C8_3 1_555 1_555
C9_3 N5_3 1_555 1_555
H4_3 C9_3 1_555 1_555
C10_3 H5_3 1_555 1_555
C11_3 C10_3 1_555 1_555
H6_3 C11_3 1_555 1_555
C12_3 C11_3 1_555 1_555
C13_3 C12_3 1_555 1_555
H7_3 C13_3 1_555 1_555
C14_3 N19_2 1_555 1_555
H8_3 C14_3 1_555 1_555
C6_3 C7_3 1_555 1_555
C8_3 C9_3 1_555 1_555
C13_3 C14_3 1_555 1_555
S5_4 S6_4 1_555 1_555
S6_4 C36_4 1_555 1_555
N13_4 Mn5_2 1_555 1_555
N20 C34_4 1_555 1_555
C31_4 S5_4 1_555 1_555
C32_4 C31_4 1_555 1_555
H19_4 C32_4 1_555 1_555
C33_4 N13_4 1_555 1_555
H20_4 C33_4 1_555 1_555
C34_4 H21_4 1_555 1_555
C35_4 C34_4 1_555 1_555
H22_4 C35_4 1_555 1_555
C36_4 C35_4 1_555 1_555
C37_4 C36_4 1_555 1_555
C38_4 N20 1_555 1_555
S7_4 S8_4 1_555 1_555
S8_4 C46_4 1_555 1_555
H30_4 C45_4 1_555 1_555
C46_4 C45_4 1_555 1_555
C32_4 C33_4 1_555 1_555
C37_4 C38_4 1_555 1_555
H1_4 C5_4 1_555 1_555
C6_4 C5_4 1_555 1_555
H2_4 C6_4 1_555 1_555
N22 C44_4 1_555 1_555
C44_4 H29_4 1_555 1_555
H31_4 C47_4 1_555 1_555
C48_4 N22 1_555 1_555
H32_4 C48_4 1_555 1_555
N17_4 Mn5_4 1_555 1_555
C47_4 C48_4 1_555 1_555
S3_4 S4_4 1_555 1_555
S4_4 C22_4 1_555 1_555
N7_4 Mn8 1_555 1_555
N21 C20_4 1_555 1_555
C15_4 N7_4 1_555 1_555
H9_4 C15_4 1_555 1_555
C16_4 C15_4 1_555 1_555
H10_4 C16_4 1_555 1_555
C17_4 S3_4 1_555 1_555
C18_4 C17_4 1_555 1_555
H11_4 C18_4 1_555 1_555
C19_4 N7_4 1_555 1_555
H12_4 C19_4 1_555 1_555
C20_4 H13_4 1_555 1_555
C21_4 C20_4 1_555 1_555
H14_4 C21_4 1_555 1_555
C22_4 C21_4 1_555 1_555
C23_4 C22_4 1_555 1_555
H15_4 C23_4 1_555 1_555
C24_4 N21 1_555 1_555
H16_4 C24_4 1_555 1_555
H17_4 C29_4 1_555 1_555
C30_4 C29_4 1_555 1_555
H18_4 C30_4 1_555 1_555
N15_4 Mn8 1_555 1_555
C39_4 N15_4 1_555 1_555
H25_4 C39_4 1_555 1_555
C40_4 C39_4 1_555 1_555
H26_4 C40_4 1_555 1_555
C42_4 C41_4 1_555 1_555
C43_4 N15_4 1_555 1_555
H28_4 C43_4 1_555 1_555
N18_4 Mn8 1_555 1_555
C16_4 C17_4 1_555 1_555
C18_4 C19_4 1_555 1_555
C23_4 C24_4 1_555 1_555
C40_4 C41_4 1_555 1_555
C42_4 C43_4 1_555 1_555
S1_4 S2_4 1_555 1_555
S2_4 C12_4 1_555 1_555
N5_4 Mn5_7 1_555 1_555
N19 C10_4 1_555 1_555
C7_4 S1_4 1_555 1_555
C8_4 C7_4 1_555 1_555
H3_4 C8_4 1_555 1_555
C9_4 N5_4 1_555 1_555
H4_4 C9_4 1_555 1_555
C10_4 H5_4 1_555 1_555
C11_4 C10_4 1_555 1_555
H6_4 C11_4 1_555 1_555
C12_4 C11_4 1_555 1_555
C13_4 C12_4 1_555 1_555
C14_4 N19 1_555 1_555
C8_4 C9_4 1_555 1_555
C13_4 C14_4 1_555 1_555
Nb1_4 C1_3 1_555 1_555
N17 C1_3 1_555 1_555
N18_3 C2_3 1_555 1_555
N3_3 C3_3 1_555 1_555
N4_3 C4_3 1_555 1_555
C2_3 Nb1_4 1_555 1_555
C3_3 Nb1_4 1_555 1_555
C4_3 Nb1_4 1_555 1_555
N17_2 C25_3 1_555 1_555
N18_4 C26_3 1_555 1_555
N11_3 C27_3 1_555 1_555
N12_3 C28_3 1_555 1_555
C25_3 Nb1_4 1_555 1_555
C26_3 Nb1_4 1_555 1_555
C27_3 Nb1_4 1_555 1_555
C28_3 Nb1_4 1_555 1_555
N3_4 C3_4 1_555 1_555
N11_4 C27_4 1_555 1_555
Nb1_5 C1_4 1_555 1_555
N17_3 C1_4 1_555 1_555
N18_2 C26_4 1_555 1_555
N12_4 C28_4 1_555 1_555
C26_4 Nb1_5 1_555 1_555
C28_4 Nb1_5 1_555 1_555
N18 C2_4 1_555 1_555
N4_4 C4_4 1_555 1_555
C2_4 Nb1_6 1_555 1_555
C4_4 Nb1_6 1_555 1_555
N17_4 C25_4 1_555 1_555
C25_4 Nb1_6 1_555 1_555

#END
