
###############################################################################
#
# This file contains modified crystal structure data generated from the
# MOF subset of the Cambridge Structural Database (CSD) v543 
# hosted by the Cambridge Crystallographic Data Centre (CCDC).
#
# This work is licensed under the Creative Commons
# Attribution-NonCommercial-ShareAlike 4.0 International License.
# To view a copy of this license, visit
# http://creativecommons.org/licenses/by-nc-sa/4.0/
# or send a letter to
# Creative Commons, PO Box 1866, Mountain View, CA 94042, USA.
#
# CIF created using the CSD Python API on 29 September 2022
# The structure has been converted into the P1 space group
# The structure has a 3D framework
# The original CSD entry PARMIG is in the tetragonal crystal system
# The original CSD entry PARMIG is in a Sohncke space group
# The framework has been calculated to contain at least 10.0% void space
# The void calculation uses a probe of radius 1.32A, grid spacing 0.4
#
###############################################################################

data_PARMIG
_chemical_formula_moiety         '(C64 H40 N16 Ni5 O16)n'
_symmetry_cell_setting           triclinic
_symmetry_space_group_name_H-M   'P 1'
_symmetry_Int_Tables_number      1
_space_group_name_Hall           'P 1'
loop_
_symmetry_equiv_pos_site_id
_symmetry_equiv_pos_as_xyz
1 x,y,z
_cell_length_a                   15.0363(3)
_cell_length_b                   15.0363(3)
_cell_length_c                   8.3862(4)
_cell_angle_alpha                90
_cell_angle_beta                 90
_cell_angle_gamma                90
_cell_volume                     1896.04
loop_
_atom_site_label
_atom_site_type_symbol
_atom_site_fract_x
_atom_site_fract_y
_atom_site_fract_z
N4 N 0.0209(2) 0.7319(3) 0.0126(4)
H7 H 0.0685 0.7262 0.0685
C9 C 0.1223(2) 0.7590(3) 0.4481(4)
C10 C 0.0552(2) 0.7578(3) 0.5790(4)
C14 C 0.0165(2) 0.7432(3) 0.8498(4)
C15 C 0.0818(2) 0.7470(3) 0.7339(4)
Ni3 Ni 0.24420(3) 0.75580(3) 0.2500
O5 O 0.09966(16) 0.7607(2) 0.3048(3)
O8 O 0.20412(15) 0.75505(18) 0.4847(3)
H8 H 0.139(3) 0.742(3) 0.757(5)
C8 C 0.7314(3) 0.9371(3) 0.9321(5)
H1 H 0.7258 0.9229 0.8246
Ni1 Ni 0.74420(3) 0.74420(3) 1.0000
C11 C 0.9640(2) 0.7670(3) 0.5425(4)
C12 C 0.8989(2) 0.7627(3) 0.6578(4)
C13 C 0.9258(2) 0.7487(3) 0.8157(4)
N3 N 0.87748(19) 0.7398(3) 0.9554(3)
O3 O 0.59966(16) 0.7393(2) 0.9452(3)
O6 O 0.70412(15) 0.74495(18) 0.7653(3)
H9 H 0.949(2) 0.779(2) 0.437(5)
H10 H 0.837(2) 0.769(2) 0.634(4)
C1 C 0.2410(3) 0.8777(2) 0.0519(4)
O1 O 0.2393(2) 0.90034(16) 0.1952(3)
O2 O 0.24495(18) 0.79588(15) 0.0153(3)
C1_2 C 0.6223(2) 0.7410(3) 0.8019(4)
C2 C 0.5552(2) 0.7422(3) 0.6710(4)
C3 C 0.4640(2) 0.7330(3) 0.7075(4)
C4 C 0.3989(2) 0.7373(3) 0.5922(4)
C5 C 0.4258(2) 0.7513(3) 0.4343(4)
C6 C 0.5165(2) 0.7568(3) 0.4002(4)
C7 C 0.5818(2) 0.7530(3) 0.5161(4)
C8_2 C 0.4371(3) 0.7686(3) 0.1821(5)
H1_2 H 0.4229 0.7742 0.0746
N1 N 0.37748(19) 0.7602(3) 0.2946(3)
N2 N 0.5209(2) 0.7681(3) 0.2374(4)
H2 H 0.5685 0.7738 0.1815
H3 H 0.639(3) 0.758(3) 0.493(5)
H4 H 0.449(2) 0.721(2) 0.813(5)
H5 H 0.337(2) 0.731(2) 0.616(4)
C13_2 C 0.2487(3) 0.5742(2) 0.0657(4)
C14_2 C 0.2432(3) 0.4835(2) 0.0998(4)
C16 C 0.2314(3) 0.5629(3) 0.3179(5)
H6 H 0.2258 0.5771 0.4254
N3_2 N 0.2398(3) 0.62252(19) 0.2054(3)
N4_2 N 0.2319(3) 0.4791(2) 0.2626(4)
H7_2 H 0.2262 0.4315 0.3185
H8_2 H 0.242(3) 0.361(3) 0.007(5)
C1_3 C 0.7590(3) 0.1223(2) 0.5519(4)
C2_2 C 0.7578(3) 0.0552(2) 0.4210(4)
C6_2 C 0.7432(3) 0.0165(2) 0.1502(4)
C7_2 C 0.7470(3) 0.0818(2) 0.2661(4)
O1_2 O 0.7607(2) 0.09966(16) 0.6952(3)
O2_2 O 0.75505(18) 0.20412(15) 0.5153(3)
H3_2 H 0.742(3) 0.139(3) 0.243(5)
Ni2 Ni 0.75580(3) 0.24420(3) 0.7500
C3_2 C 0.7670(3) 0.9640(2) 0.4575(4)
C4_2 C 0.7627(3) 0.8989(2) 0.3422(4)
C5_2 C 0.7487(3) 0.9258(2) 0.1843(4)
N1_2 N 0.7398(3) 0.87748(19) 0.0446(3)
Ni1_2 Ni 0.74420(3) 0.74420(3) 0.0000
H4_2 H 0.779(2) 0.949(2) 0.563(5)
H5_2 H 0.769(2) 0.837(2) 0.366(4)
C16_2 C 0.9371(3) 0.7314(3) 0.0679(5)
H6_2 H 0.9229 0.7258 0.1754
O4 O 0.7393(2) 0.59966(16) 0.0548(3)
O7 O 0.74495(18) 0.70412(15) 0.2347(3)
C9_2 C 0.8777(2) 0.2410(3) 0.9481(4)
O5_2 O 0.90034(16) 0.2393(2) 0.8048(3)
O8_2 O 0.79588(15) 0.24495(18) 0.9847(3)
C5_3 C 0.5742(2) 0.2487(3) 0.9343(4)
C6_3 C 0.4835(2) 0.2432(3) 0.9002(4)
C8_3 C 0.5629(3) 0.2314(3) 0.6821(5)
H1_3 H 0.5771 0.2258 0.5746
N1_3 N 0.62252(19) 0.2398(3) 0.7946(3)
N2_2 N 0.4791(2) 0.2319(3) 0.7374(4)
H2_2 H 0.4315 0.2262 0.6815
H3_3 H 0.361(3) 0.242(3) 0.993(5)
C9_3 C 0.7410(3) 0.6223(2) 0.1981(4)
C10_2 C 0.7422(3) 0.5552(2) 0.3290(4)
C11_2 C 0.7330(3) 0.4640(2) 0.2925(4)
C12_2 C 0.7373(3) 0.3989(2) 0.4078(4)
C13_3 C 0.7513(3) 0.4258(2) 0.5657(4)
C14_3 C 0.7568(3) 0.5165(2) 0.5998(4)
C15_2 C 0.7530(3) 0.5818(2) 0.4839(4)
C16_3 C 0.7686(3) 0.4371(3) 0.8179(5)
H6_3 H 0.7742 0.4229 0.9254
N3_3 N 0.7602(3) 0.37748(19) 0.7054(3)
N4_3 N 0.7681(3) 0.5209(2) 0.7626(4)
H7_3 H 0.7738 0.5685 0.8185
H8_3 H 0.758(3) 0.639(3) 0.507(5)
H9_2 H 0.721(2) 0.449(2) 0.187(5)
H10_2 H 0.731(2) 0.337(2) 0.384(4)
N2_3 N 0.7319(3) 0.0209(2) 0.9874(4)
H2_3 H 0.7262 0.0685 0.9315
H4_3 H 0.221(2) 0.051(2) 0.063(5)
C3_3 C 0.2330(3) 0.0360(2) 0.9575(4)
C4_3 C 0.2373(3) 0.1011(2) 0.8422(4)
C5_4 C 0.2513(3) 0.0742(2) 0.6843(4)
C8_4 C 0.2686(3) 0.0629(3) 0.4321(5)
H1_4 H 0.2742 0.0771 0.3246
N1_4 N 0.2602(3) 0.12252(19) 0.5446(3)
Ni1_3 Ni 0.25580(3) 0.25580(3) 0.5000
H5_3 H 0.231(2) 0.163(2) 0.866(4)
C11_3 C 0.0360(2) 0.2330(3) 0.0425(4)
C12_3 C 0.1011(2) 0.2373(3) 0.1578(4)
C13_4 C 0.0742(2) 0.2513(3) 0.3157(4)
C16_4 C 0.0629(3) 0.2686(3) 0.5679(5)
H6_4 H 0.0771 0.2742 0.6754
N3_4 N 0.12252(19) 0.2602(3) 0.4554(3)
O3_2 O 0.40034(16) 0.2607(2) 0.4452(3)
O4_2 O 0.2607(2) 0.40034(16) 0.5548(3)
O6_2 O 0.29588(15) 0.25505(18) 0.2653(3)
O7_2 O 0.25505(18) 0.29588(15) 0.7347(3)
H10_3 H 0.163(2) 0.231(2) 0.134(4)
C1_4 C 0.3777(2) 0.2590(3) 0.3019(4)
C2_3 C 0.4448(2) 0.2578(3) 0.1710(4)
C3_4 C 0.5360(2) 0.2670(3) 0.2075(4)
C4_4 C 0.6011(2) 0.2627(3) 0.0922(4)
C7_3 C 0.4182(2) 0.2470(3) 0.0161(4)
H4_4 H 0.551(2) 0.279(2) 0.313(5)
H5_4 H 0.663(2) 0.269(2) 0.116(4)
C9_4 C 0.2590(3) 0.3777(2) 0.6981(4)
C10_3 C 0.2578(3) 0.4448(2) 0.8290(4)
C11_4 C 0.2670(3) 0.5360(2) 0.7925(4)
C12_4 C 0.2627(3) 0.6011(2) 0.9078(4)
C15_3 C 0.2470(3) 0.4182(2) 0.9839(4)
H9_3 H 0.279(2) 0.551(2) 0.687(5)
H10_4 H 0.269(2) 0.663(2) 0.884(4)
H9_4 H 0.051(2) 0.221(2) 0.937(5)
C2_4 C 0.2422(3) 0.9448(2) 0.9210(4)
C6_4 C 0.2568(3) 0.9835(2) 0.6502(4)
C7_4 C 0.2530(3) 0.9182(2) 0.7661(4)
N2_4 N 0.2681(3) 0.9791(2) 0.4874(4)
H2_4 H 0.2738 0.9315 0.4315
H3_4 H 0.258(3) 0.861(3) 0.743(5)
C10_4 C 0.9448(2) 0.2422(3) 0.0790(4)
C14_4 C 0.9835(2) 0.2568(3) 0.3498(4)
C15_4 C 0.9182(2) 0.2530(3) 0.2339(4)
N4_4 N 0.9791(2) 0.2681(3) 0.5126(4)
H7_4 H 0.9315 0.2738 0.5685
H8_4 H 0.861(3) 0.258(3) 0.257(5)
loop_
_geom_bond_atom_site_label_1
_geom_bond_atom_site_label_2
_geom_bond_site_symmetry_1
_geom_bond_site_symmetry_2
H7 N4 1_555 1_555
C9 C10 1_555 1_555
C14 C15 1_555 1_555
C15 C10 1_555 1_555
Ni3 O5 1_555 1_555
O5 C9 1_555 1_555
O8 C9 1_555 1_555
H8 C15 1_555 1_555
Ni3 O8 1_555 1_555
C8 H1 1_555 1_555
C11 C12 1_555 1_555
C12 C13 1_555 1_555
N3 Ni1 1_555 1_555
O3 Ni1 1_555 1_555
O6 Ni1 1_555 1_555
H9 C11 1_555 1_555
H10 C12 1_555 1_555
C13 N3 1_555 1_555
O1 C1 1_555 1_555
O2 C1 1_555 1_555
Ni3 O1 1_555 1_555
O2 Ni3 1_555 1_555
C1_2 C2 1_555 1_555
C2 C3 1_555 1_555
C3 C4 1_555 1_555
C4 C5 1_555 1_555
C5 C6 1_555 1_555
C6 C7 1_555 1_555
C7 C2 1_555 1_555
C8_2 H1_2 1_555 1_555
N1 C5 1_555 1_555
N2 C6 1_555 1_555
H2 N2 1_555 1_555
Ni3 N1 1_555 1_555
O3 C1_2 1_555 1_555
O6 C1_2 1_555 1_555
H3 C7 1_555 1_555
H4 C3 1_555 1_555
H5 C4 1_555 1_555
C13_2 C14_2 1_555 1_555
C16 H6 1_555 1_555
N3_2 Ni3 1_555 1_555
N4_2 C14_2 1_555 1_555
H7_2 N4_2 1_555 1_555
C8_2 N1 1_555 1_555
C8_2 N2 1_555 1_555
C13_2 N3_2 1_555 1_555
C16 N3_2 1_555 1_555
C16 N4_2 1_555 1_555
C1_3 C2_2 1_555 1_555
C6_2 C7_2 1_555 1_555
C7_2 C2_2 1_555 1_555
O1_2 C1_3 1_555 1_555
O2_2 C1_3 1_555 1_555
H3_2 C7_2 1_555 1_555
Ni2 O1_2 1_555 1_555
O2_2 Ni2 1_555 1_555
C3_2 C4_2 1_555 1_555
C4_2 C5_2 1_555 1_555
N1_2 C5_2 1_555 1_555
Ni1_2 N1_2 1_555 1_555
H4_2 C3_2 1_555 1_555
H5_2 C4_2 1_555 1_555
C16_2 H6_2 1_555 1_555
O4 Ni1_2 1_555 1_555
O7 Ni1_2 1_555 1_555
Ni2 O5_2 1_555 1_555
O5_2 C9_2 1_555 1_555
O8_2 C9_2 1_555 1_555
Ni2 O8_2 1_555 1_555
C5_3 C6_3 1_555 1_555
C8_3 H1_3 1_555 1_555
N1_3 C5_3 1_555 1_555
N2_2 C6_3 1_555 1_555
H2_2 N2_2 1_555 1_555
Ni2 N1_3 1_555 1_555
C9_3 C10_2 1_555 1_555
C10_2 C11_2 1_555 1_555
C11_2 C12_2 1_555 1_555
C12_2 C13_3 1_555 1_555
C13_3 C14_3 1_555 1_555
C14_3 C15_2 1_555 1_555
C15_2 C10_2 1_555 1_555
C16_3 H6_3 1_555 1_555
N3_3 Ni2 1_555 1_555
N4_3 C14_3 1_555 1_555
H7_3 N4_3 1_555 1_555
O4 C9_3 1_555 1_555
O7 C9_3 1_555 1_555
H8_3 C15_2 1_555 1_555
H9_2 C11_2 1_555 1_555
H10_2 C12_2 1_555 1_555
C8_3 N1_3 1_555 1_555
C8_3 N2_2 1_555 1_555
C13_3 N3_3 1_555 1_555
C16_3 N3_3 1_555 1_555
C16_3 N4_3 1_555 1_555
H2_3 N2_3 1_555 1_555
C3_3 C4_3 1_555 1_555
C4_3 C5_4 1_555 1_555
C8_4 H1_4 1_555 1_555
N1_4 C5_4 1_555 1_555
Ni1_3 N1_4 1_555 1_555
H5_3 C4_3 1_555 1_555
C11_3 C12_3 1_555 1_555
C12_3 C13_4 1_555 1_555
C16_4 H6_4 1_555 1_555
N3_4 Ni1_3 1_555 1_555
O3_2 Ni1_3 1_555 1_555
O4_2 Ni1_3 1_555 1_555
O6_2 Ni1_3 1_555 1_555
O7_2 Ni1_3 1_555 1_555
H10_3 C12_3 1_555 1_555
C8_4 N1_4 1_555 1_555
C13_4 N3_4 1_555 1_555
C16_4 N3_4 1_555 1_555
C1_4 C2_3 1_555 1_555
C2_3 C3_4 1_555 1_555
C3_4 C4_4 1_555 1_555
C7_3 C2_3 1_555 1_555
O3_2 C1_4 1_555 1_555
O6_2 C1_4 1_555 1_555
H4_4 C3_4 1_555 1_555
H5_4 C4_4 1_555 1_555
C9_4 C10_3 1_555 1_555
C10_3 C11_4 1_555 1_555
C11_4 C12_4 1_555 1_555
C15_3 C10_3 1_555 1_555
O4_2 C9_4 1_555 1_555
O7_2 C9_4 1_555 1_555
H9_3 C11_4 1_555 1_555
H10_4 C12_4 1_555 1_555
C6_4 C7_4 1_555 1_555
C7_4 C2_4 1_555 1_555
N2_4 C6_4 1_555 1_555
H2_4 N2_4 1_555 1_555
H3_4 C7_4 1_555 1_555
C14_4 C15_4 1_555 1_555
C15_4 C10_4 1_555 1_555
N4_4 C14_4 1_555 1_555
H7_4 N4_4 1_555 1_555
H8_4 C15_4 1_555 1_555

#END
