
###############################################################################
#
# This file contains modified crystal structure data generated from the
# MOF subset of the Cambridge Structural Database (CSD) v543 
# hosted by the Cambridge Crystallographic Data Centre (CCDC).
#
# This work is licensed under the Creative Commons
# Attribution-NonCommercial-ShareAlike 4.0 International License.
# To view a copy of this license, visit
# http://creativecommons.org/licenses/by-nc-sa/4.0/
# or send a letter to
# Creative Commons, PO Box 1866, Mountain View, CA 94042, USA.
#
# CIF created using the CSD Python API on 29 September 2022
# The structure has been converted into the P1 space group
# The structure has a 3D framework
# The original CSD entry PARNON is in the monoclinic crystal system
# The framework has been calculated to contain at least 10.0% void space
# The void calculation uses a probe of radius 1.32A, grid spacing 0.4
#
###############################################################################

data_PARNON
_chemical_formula_moiety         '(C272 H240 Cu16 N16 O96)n'
_symmetry_cell_setting           triclinic
_symmetry_space_group_name_H-M   'P 1'
_symmetry_Int_Tables_number      1
_space_group_name_Hall           'P 1'
loop_
_symmetry_equiv_pos_site_id
_symmetry_equiv_pos_as_xyz
1 x,y,z
_cell_length_a                   26.257(5)
_cell_length_b                   16.047(3)
_cell_length_c                   20.808(4)
_cell_angle_alpha                90
_cell_angle_beta                 95.45(3)
_cell_angle_gamma                90
_cell_volume                     8727.74
loop_
_atom_site_label
_atom_site_type_symbol
_atom_site_fract_x
_atom_site_fract_y
_atom_site_fract_z
O5 O 0.29197(16) 0.1618(2) 0.44453(18)
O9 O 0.20637(15) 0.1478(2) 0.43667(19)
C12 C 0.2121(2) 0.0022(3) 0.3638(3)
H9 H 0.1799 0.0243 0.3679
C13 C 0.2507(2) 0.1241(3) 0.4258(3)
C21 C 0.2556(2) 0.0450(3) 0.3896(3)
C27 C 0.3033(2) 0.0114(3) 0.3816(3)
H18 H 0.3325 0.0401 0.3978
Cu4 Cu 0.29993(2) 0.25872(4) 0.50305(3)
Cu5 Cu 0.20007(2) 0.24128(4) 0.49695(3)
C10 C 0.1557(3) 0.9522(6) 0.5067(3)
H6 H 0.1670 0.9243 0.4698
H7 H 0.1776 0.9990 0.5178
H8 H 0.1569 0.9143 0.5425
O4 O 0.19878(16) 0.3210(2) 0.42540(19)
O6 O 0.05408(15) 0.9070(2) 0.29871(18)
Cu1 Cu 0.00909(2) 0.99876(3) 0.31369(3)
O8 O 0.04857(15) 0.9174(2) 0.19063(18)
O10 O 0.28426(16) 0.3379(2) 0.43186(19)
O11 O 0.12037(19) 0.2369(3) 0.5058(3)
O12 O 0.21441(16) 0.6324(3) 0.2419(2)
N1 N 0.10390(19) 0.9809(3) 0.4917(2)
C11 C 0.0658(2) 0.8849(3) 0.2434(3)
C14 C 0.2389(2) 0.3559(3) 0.4103(3)
C15 C 0.1035(2) 0.8155(3) 0.2428(3)
C16 C 0.2670(2) 0.5408(3) 0.3062(3)
H10 H 0.2951 0.5713 0.2954
C17 C 0.1613(2) 0.7326(4) 0.1872(3)
H11 H 0.1759 0.7188 0.1496
C18 C 0.2181(2) 0.5645(3) 0.2832(3)
C19 C 0.2739(2) 0.4711(4) 0.3457(3)
H12 H 0.3068 0.4543 0.3607
C20 C 0.2321(2) 0.4266(3) 0.3628(3)
C22 C 0.1175(2) 0.7708(4) 0.2993(3)
H13 H 0.1024 0.7838 0.3367
C23 C 0.1258(2) 0.7955(4) 0.1869(3)
H14 H 0.1167 0.8248 0.1490
C25 C 0.0796(2) 0.9734(4) 0.4328(3)
H16 H 0.0965 0.9452 0.4020
C26 C 0.1764(2) 0.5189(4) 0.2981(3)
H17 H 0.1436 0.5342 0.2812
C28 C 0.1832(2) 0.4509(4) 0.3378(3)
H19 H 0.1549 0.4206 0.3481
C29 C 0.1753(2) 0.6896(4) 0.2444(3)
C30 C 0.1530(2) 0.7082(4) 0.3003(3)
H20 H 0.1619 0.6785 0.3381
H22 H 0.0809 0.9874 0.5799
N2 N 0.0348(3) 0.2230(6) 0.4880(6)
C32 C 0.0875(5) 0.2215(6) 0.4736(5)
H24 H 0.0935 0.2054 0.4320
C33 C 0.0247(6) 0.2457(10) 0.5526(8)
H26 H 0.0372 0.3011 0.5619
H27 H 0.0416 0.2073 0.5828
H28 H 0.0093 0.1811 0.4071
O14 O 0.20803(16) 0.3382(2) 0.55547(18)
O17 O 0.21574(16) 0.1621(2) 0.56814(19)
C34 C 0.0033(5) 0.1953(10) 0.0525(9)
H29 H 0.0290 0.2379 0.0594
H30 H 0.0180 0.1468 0.0346
O4_2 O 0.30122(16) 0.1790(2) 0.57460(19)
O11_2 O 0.37963(19) 0.2631(3) 0.4942(3)
C14_2 C 0.2611(2) 0.1441(3) 0.5897(3)
C19_2 C 0.2261(2) 0.0289(4) 0.6543(3)
H12_2 H 0.1932 0.0457 0.6393
C20_2 C 0.2679(2) 0.0734(3) 0.6372(3)
C28_2 C 0.3168(2) 0.0491(4) 0.6622(3)
H19_2 H 0.3451 0.0794 0.6519
N2_2 N 0.4652(3) 0.2770(6) 0.5120(6)
C32_2 C 0.4125(5) 0.2785(6) 0.5264(5)
H24_2 H 0.4065 0.2946 0.5680
C33_2 C 0.4753(6) 0.2543(10) 0.4474(8)
H25 H 0.5115 0.2560 0.4440
H26_2 H 0.4628 0.1989 0.4381
H27_2 H 0.4584 0.2927 0.4172
C34_2 C 0.5033(5) 0.3047(10) 0.5525(9)
H28_2 H 0.4907 0.3189 0.5929
H29_2 H 0.5290 0.2621 0.5594
H30_2 H 0.5180 0.3532 0.5346
O16 O 0.29363(15) 0.3522(2) 0.56333(19)
O1 O 0.04023(15) 0.9125(2) 0.68387(19)
O2 O 0.06280(15) 0.9208(2) 0.79056(18)
C1 C 0.0683(2) 0.8939(3) 0.7348(3)
C2 C 0.1115(2) 0.8352(3) 0.7265(3)
C3 C 0.1445(2) 0.8114(3) 0.7804(3)
H1 H 0.1391 0.8318 0.8211
C4 C 0.1852(2) 0.7573(3) 0.7735(3)
H2 H 0.2071 0.7416 0.8093
C5 C 0.1204(2) 0.8053(3) 0.6668(3)
H3 H 0.0989 0.8217 0.6310
C6 C 0.1608(2) 0.7510(4) 0.6583(3)
H4 H 0.1664 0.7311 0.6175
C7 C 0.1927(2) 0.7274(3) 0.7129(3)
O3 O 0.23601(16) 0.6796(3) 0.7092(2)
C8 C 0.2352(2) 0.6058(4) 0.6741(3)
C9 C 0.1915(2) 0.5639(4) 0.6499(3)
H5 H 0.1592 0.5857 0.6547
C12_2 C 0.2879(2) 0.4978(3) 0.6362(3)
H9_2 H 0.3201 0.4757 0.6321
C13_2 C 0.2493(2) 0.3759(3) 0.5742(3)
C21_2 C 0.2444(2) 0.4550(3) 0.6104(3)
C24 C 0.2835(2) 0.5727(4) 0.6678(3)
H15 H 0.3127 0.6009 0.6848
C27_2 C 0.1967(2) 0.4886(3) 0.6184(3)
H18_2 H 0.1675 0.4599 0.6022
O7 O 0.03670(16) 0.9994(2) 0.91583(19)
O1_2 O 0.45977(15) 0.5875(2) 0.31613(19)
O2_2 O 0.43720(15) 0.5792(2) 0.20944(18)
C1_2 C 0.4317(2) 0.6061(3) 0.2652(3)
C2_2 C 0.3885(2) 0.6648(3) 0.2735(3)
C3_2 C 0.3555(2) 0.6886(3) 0.2196(3)
H1_2 H 0.3609 0.6682 0.1789
C4_2 C 0.3148(2) 0.7427(3) 0.2265(3)
H2_2 H 0.2929 0.7584 0.1907
C5_2 C 0.3796(2) 0.6947(3) 0.3332(3)
H3_2 H 0.4011 0.6783 0.3690
C6_2 C 0.3392(2) 0.7490(4) 0.3417(3)
H4_2 H 0.3336 0.7689 0.3825
C7_2 C 0.3073(2) 0.7726(3) 0.2871(3)
O3_2 O 0.26399(16) 0.8204(3) 0.2908(2)
C8_2 C 0.2648(2) 0.8942(4) 0.3259(3)
C9_2 C 0.3085(2) 0.9361(4) 0.3501(3)
H5_2 H 0.3408 0.9143 0.3453
C10_2 C 0.6557(3) 0.4522(6) 0.5067(3)
H6_2 H 0.6670 0.4243 0.4698
H7_2 H 0.6776 0.4990 0.5178
H8_2 H 0.6569 0.4143 0.5425
O6_2 O 0.55408(15) 0.4070(2) 0.29871(18)
Cu1_2 Cu 0.50909(2) 0.49876(3) 0.31369(3)
O7_2 O 0.53670(16) 0.5006(2) 0.41583(19)
O8_2 O 0.54857(15) 0.4174(2) 0.19063(18)
O12_2 O 0.71441(16) 0.1324(3) 0.2419(2)
N1_2 N 0.60390(19) 0.4809(3) 0.4917(2)
C11_2 C 0.5658(2) 0.3849(3) 0.2434(3)
C15_2 C 0.6035(2) 0.3155(3) 0.2428(3)
C16_2 C 0.7670(2) 0.0408(3) 0.3062(3)
H10_2 H 0.7951 0.0713 0.2954
C17_2 C 0.6613(2) 0.2326(4) 0.1872(3)
H11_2 H 0.6759 0.2188 0.1496
C18_2 C 0.7181(2) 0.0645(3) 0.2832(3)
C22_2 C 0.6175(2) 0.2708(4) 0.2993(3)
H13_2 H 0.6024 0.2838 0.3367
C23_2 C 0.6258(2) 0.2955(4) 0.1869(3)
H14_2 H 0.6167 0.3248 0.1490
C24_2 C 0.2165(2) 0.9273(4) 0.3322(3)
H15_2 H 0.1873 0.8991 0.3152
C25_2 C 0.5796(2) 0.4734(4) 0.4328(3)
H16_2 H 0.5965 0.4452 0.4020
C26_2 C 0.6764(2) 0.0189(4) 0.2981(3)
H17_2 H 0.6436 0.0342 0.2812
C29_2 C 0.6753(2) 0.1896(4) 0.2444(3)
C30_2 C 0.6530(2) 0.2082(4) 0.3003(3)
H20_2 H 0.6619 0.1785 0.3381
C31 C 0.5816(3) 0.5241(5) 0.5435(3)
H21 H 0.5473 0.5410 0.5290
H22_2 H 0.5809 0.4874 0.5799
H23 H 0.6018 0.5723 0.5560
O13 O 0.56280(15) 0.5792(2) 0.29056(18)
Cu3 Cu 0.49091(2) 0.49876(3) 0.18631(3)
O15 O 0.45143(15) 0.4174(2) 0.30937(18)
O1_3 O 0.54023(15) 0.5875(2) 0.18387(19)
C1_3 C 0.5683(2) 0.6061(3) 0.2348(3)
C2_3 C 0.6115(2) 0.6648(3) 0.2265(3)
C3_3 C 0.6445(2) 0.6886(3) 0.2804(3)
H1_3 H 0.6391 0.6682 0.3211
C4_3 C 0.6852(2) 0.7427(3) 0.2735(3)
H2_3 H 0.7071 0.7584 0.3093
C5_3 C 0.6204(2) 0.6947(3) 0.1668(3)
H3_3 H 0.5989 0.6783 0.1310
C6_3 C 0.6608(2) 0.7490(4) 0.1583(3)
H4_3 H 0.6664 0.7689 0.1175
C7_3 C 0.6927(2) 0.7726(3) 0.2129(3)
O3_3 O 0.73601(16) 0.8204(3) 0.2092(2)
C8_3 C 0.7352(2) 0.8942(4) 0.1741(3)
C9_3 C 0.6915(2) 0.9361(4) 0.1499(3)
H5_3 H 0.6592 0.9143 0.1547
H6_3 H 0.3330 0.4243 0.0302
O6_3 O 0.44592(15) 0.4070(2) 0.20129(18)
O7_3 O 0.46330(16) 0.5006(2) 0.08417(19)
O12_3 O 0.28559(16) 0.1324(3) 0.2581(2)
N1_3 N 0.39610(19) 0.4809(3) 0.0083(2)
C11_3 C 0.4342(2) 0.3849(3) 0.2566(3)
C15_3 C 0.3965(2) 0.3155(3) 0.2572(3)
C16_3 C 0.2330(2) 0.0408(3) 0.1938(3)
H10_3 H 0.2049 0.0713 0.2046
C17_3 C 0.3387(2) 0.2326(4) 0.3128(3)
H11_3 H 0.3241 0.2188 0.3504
C18_3 C 0.2819(2) 0.0645(3) 0.2168(3)
C22_3 C 0.3825(2) 0.2708(4) 0.2007(3)
H13_3 H 0.3976 0.2838 0.1633
C23_3 C 0.3742(2) 0.2955(4) 0.3131(3)
H14_3 H 0.3833 0.3248 0.3510
C24_3 C 0.7835(2) 0.9273(4) 0.1678(3)
H15_3 H 0.8127 0.8991 0.1848
C25_3 C 0.4204(2) 0.4734(4) 0.0672(3)
H16_3 H 0.4035 0.4452 0.0980
C26_3 C 0.3236(2) 0.0189(4) 0.2019(3)
H17_3 H 0.3564 0.0342 0.2188
C29_3 C 0.3247(2) 0.1896(4) 0.2556(3)
C30_3 C 0.3470(2) 0.2082(4) 0.1997(3)
H20_3 H 0.3381 0.1785 0.1619
O4_3 O 0.69878(16) 0.8210(2) 0.42540(19)
Cu2 Cu 0.70007(2) 0.74128(4) 0.49695(3)
O10_2 O 0.78426(16) 0.8379(2) 0.43186(19)
O11_3 O 0.62037(19) 0.7369(3) 0.5058(3)
C14_3 C 0.7389(2) 0.8559(3) 0.4103(3)
C19_3 C 0.7739(2) 0.9711(4) 0.3457(3)
H12_3 H 0.8068 0.9543 0.3607
C20_3 C 0.7321(2) 0.9266(3) 0.3628(3)
C28_3 C 0.6832(2) 0.9509(4) 0.3378(3)
H19_3 H 0.6549 0.9206 0.3481
N2_3 N 0.5348(3) 0.7230(6) 0.4880(6)
C32_3 C 0.5875(5) 0.7215(6) 0.4736(5)
H24_3 H 0.5935 0.7054 0.4320
C33_3 C 0.5247(6) 0.7457(10) 0.5526(8)
H25_2 H 0.4885 0.7440 0.5560
H26_3 H 0.5372 0.8011 0.5619
H27_3 H 0.5416 0.7073 0.5828
C34_3 C 0.4967(5) 0.6953(10) 0.4475(9)
H28_3 H 0.5093 0.6811 0.4071
H29_3 H 0.4710 0.7379 0.4406
H30_3 H 0.4820 0.6468 0.4654
O14_2 O 0.70803(16) 0.8382(2) 0.55547(18)
Cu6 Cu 0.79993(2) 0.75872(4) 0.50305(3)
O16_2 O 0.70637(15) 0.6478(2) 0.43667(19)
O17_2 O 0.71574(16) 0.6621(2) 0.56814(19)
O1_4 O 0.95977(15) 0.0875(2) 0.31613(19)
O2_3 O 0.93720(15) 0.0792(2) 0.20944(18)
C1_4 C 0.9317(2) 0.1061(3) 0.2652(3)
C2_4 C 0.8885(2) 0.1648(3) 0.2735(3)
C3_4 C 0.8555(2) 0.1886(3) 0.2196(3)
H1_4 H 0.8609 0.1682 0.1789
C4_4 C 0.8148(2) 0.2427(3) 0.2265(3)
H2_4 H 0.7929 0.2584 0.1907
C5_4 C 0.8796(2) 0.1947(3) 0.3332(3)
H3_4 H 0.9011 0.1783 0.3690
C6_4 C 0.8392(2) 0.2490(4) 0.3417(3)
H4_4 H 0.8336 0.2689 0.3825
C7_4 C 0.8073(2) 0.2726(3) 0.2871(3)
O3_4 O 0.76399(16) 0.3204(3) 0.2908(2)
C8_4 C 0.7648(2) 0.3942(4) 0.3259(3)
C9_4 C 0.8085(2) 0.4361(4) 0.3501(3)
H5_4 H 0.8408 0.4143 0.3453
O5_2 O 0.79197(16) 0.6618(2) 0.44453(18)
C12_3 C 0.7121(2) 0.5022(3) 0.3638(3)
H9_3 H 0.6799 0.5243 0.3679
C13_3 C 0.7507(2) 0.6241(3) 0.4258(3)
C21_3 C 0.7556(2) 0.5450(3) 0.3896(3)
C24_4 C 0.7165(2) 0.4273(4) 0.3322(3)
H15_4 H 0.6873 0.3991 0.3152
C27_3 C 0.8033(2) 0.5114(3) 0.3816(3)
H18_3 H 0.8325 0.5401 0.3978
O7_4 O 0.96330(16) 0.0006(2) 0.08417(19)
O9_2 O 0.79363(15) 0.8522(2) 0.56333(19)
C12_4 C 0.7879(2) 0.9978(3) 0.6362(3)
H9_4 H 0.8201 0.9757 0.6321
C13_4 C 0.7493(2) 0.8759(3) 0.5742(3)
C21_4 C 0.7444(2) 0.9550(3) 0.6104(3)
C27_4 C 0.6967(2) 0.9886(3) 0.6184(3)
H18_4 H 0.6675 0.9599 0.6022
C10_3 C 0.8443(3) 0.0478(6) 0.4933(3)
H6_4 H 0.8330 0.0757 0.5302
H7_3 H 0.8224 0.0010 0.4822
H8_3 H 0.8431 0.0857 0.4575
O4_4 O 0.80122(16) 0.6790(2) 0.57460(19)
O6_4 O 0.94592(15) 0.0930(2) 0.70129(18)
Cu1_3 Cu 0.99091(2) 0.00124(3) 0.68631(3)
O8_3 O 0.95143(15) 0.0826(2) 0.80937(18)
O11_4 O 0.87963(19) 0.7631(3) 0.4942(3)
O12_4 O 0.78559(16) 0.3676(3) 0.7581(2)
N1_4 N 0.89610(19) 0.0191(3) 0.5083(2)
C11_4 C 0.9342(2) 0.1151(3) 0.7566(3)
C14_4 C 0.7611(2) 0.6441(3) 0.5897(3)
C15_4 C 0.8965(2) 0.1845(3) 0.7572(3)
C16_4 C 0.7330(2) 0.4592(3) 0.6938(3)
H10_4 H 0.7049 0.4287 0.7046
C17_4 C 0.8387(2) 0.2674(4) 0.8128(3)
H11_4 H 0.8241 0.2812 0.8504
C18_4 C 0.7819(2) 0.4355(3) 0.7168(3)
C19_4 C 0.7261(2) 0.5289(4) 0.6543(3)
H12_4 H 0.6932 0.5457 0.6393
C20_4 C 0.7679(2) 0.5734(3) 0.6372(3)
C22_4 C 0.8825(2) 0.2292(4) 0.7007(3)
H13_4 H 0.8976 0.2162 0.6633
C23_4 C 0.8742(2) 0.2045(4) 0.8131(3)
H14_4 H 0.8833 0.1752 0.8510
C25_4 C 0.9204(2) 0.0266(4) 0.5672(3)
H16_4 H 0.9035 0.0548 0.5980
C26_4 C 0.8236(2) 0.4811(4) 0.7019(3)
H17_4 H 0.8564 0.4658 0.7188
C28_4 C 0.8168(2) 0.5491(4) 0.6622(3)
H19_4 H 0.8451 0.5794 0.6519
C29_4 C 0.8247(2) 0.3104(4) 0.7556(3)
C30_4 C 0.8470(2) 0.2918(4) 0.6997(3)
H20_4 H 0.8381 0.3215 0.6619
H22_3 H 0.9191 0.0126 0.4201
N2_4 N 0.9652(3) 0.7770(6) 0.5120(6)
C32_4 C 0.9125(5) 0.7785(6) 0.5264(5)
H24_4 H 0.9065 0.7946 0.5680
C33_4 C 0.9753(6) 0.7543(10) 0.4474(8)
H26_4 H 0.9628 0.6989 0.4381
H27_4 H 0.9584 0.7927 0.4172
H28_4 H 0.9907 0.8189 0.5929
C34_4 C 0.9967(5) 0.8047(10) 0.9475(9)
H29_4 H 0.9710 0.7621 0.9406
H30_4 H 0.9820 0.8532 0.9654
O5_3 O 0.70803(16) 0.1618(2) 0.05547(18)
O9_3 O 0.79363(15) 0.1478(2) 0.06333(19)
C12_5 C 0.7879(2) 0.0022(3) 0.1362(3)
H9_5 H 0.8201 0.0243 0.1321
C13_5 C 0.7493(2) 0.1241(3) 0.0742(3)
C21_5 C 0.7444(2) 0.0450(3) 0.1104(3)
C27_5 C 0.6967(2) 0.0114(3) 0.1184(3)
H18_5 H 0.6675 0.0401 0.1022
Cu5_2 Cu 0.79993(2) 0.24128(4) 0.00305(3)
H25_3 H 0.9885 0.2440 0.5560
C34_5 C 0.9967(5) 0.1953(10) 0.4475(9)
H29_5 H 0.9710 0.2379 0.4406
H30_5 H 0.9820 0.1468 0.4654
Cu3_2 Cu 0.99091(2) 0.99876(3) 0.18631(3)
O15_2 O 0.95143(15) 0.9174(2) 0.30937(18)
H6_5 H 0.8330 0.9243 0.0302
O4_5 O 0.80122(16) 0.3210(2) 0.07460(19)
O6_5 O 0.94592(15) 0.9070(2) 0.20129(18)
O10_3 O 0.71574(16) 0.3379(2) 0.06814(19)
O12_5 O 0.78559(16) 0.6324(3) 0.2581(2)
N1_5 N 0.89610(19) 0.9809(3) 0.0083(2)
C11_5 C 0.9342(2) 0.8849(3) 0.2566(3)
C14_5 C 0.7611(2) 0.3559(3) 0.0897(3)
C15_5 C 0.8965(2) 0.8155(3) 0.2572(3)
C16_5 C 0.7330(2) 0.5408(3) 0.1938(3)
H10_5 H 0.7049 0.5713 0.2046
C17_5 C 0.8387(2) 0.7326(4) 0.3128(3)
H11_5 H 0.8241 0.7188 0.3504
C18_5 C 0.7819(2) 0.5645(3) 0.2168(3)
C19_5 C 0.7261(2) 0.4711(4) 0.1543(3)
H12_5 H 0.6932 0.4543 0.1393
C20_5 C 0.7679(2) 0.4266(3) 0.1372(3)
C22_5 C 0.8825(2) 0.7708(4) 0.2007(3)
H13_5 H 0.8976 0.7838 0.1633
C23_5 C 0.8742(2) 0.7955(4) 0.3131(3)
H14_5 H 0.8833 0.8248 0.3510
C25_5 C 0.9204(2) 0.9734(4) 0.0672(3)
H16_5 H 0.9035 0.9452 0.0980
C26_5 C 0.8236(2) 0.5189(4) 0.2019(3)
H17_5 H 0.8564 0.5342 0.2188
C28_5 C 0.8168(2) 0.4509(4) 0.1622(3)
H19_5 H 0.8451 0.4206 0.1519
C29_5 C 0.8247(2) 0.6896(4) 0.2556(3)
C30_5 C 0.8470(2) 0.7082(4) 0.1997(3)
H20_5 H 0.8381 0.6785 0.1619
N2_5 N 0.9652(3) 0.2230(6) 0.0120(6)
C32_5 C 0.9125(5) 0.2215(6) 0.0264(5)
H24_5 H 0.9065 0.2054 0.0680
H28_5 H 0.9907 0.1811 0.0929
O11_5 O 0.62037(19) 0.2631(3) 0.0058(3)
C33_5 C 0.5247(6) 0.2543(10) 0.0526(8)
H25_4 H 0.4885 0.2560 0.0560
H26_5 H 0.5372 0.1989 0.0619
H27_5 H 0.5416 0.2927 0.0828
Cu4_2 Cu 0.70007(2) 0.25872(4) 0.99695(3)
C10_4 C 0.8443(3) 0.9522(6) 0.9933(3)
H7_4 H 0.8224 0.9990 0.9822
H8_4 H 0.8431 0.9143 0.9575
O11_6 O 0.87963(19) 0.2369(3) 0.9942(3)
H22_4 H 0.9191 0.9874 0.9201
C33_6 C 0.9753(6) 0.2457(10) 0.9474(8)
H26_6 H 0.9628 0.3011 0.9381
H27_6 H 0.9584 0.2073 0.9172
O14_3 O 0.79197(16) 0.3382(2) 0.94453(18)
O17_3 O 0.78426(16) 0.1621(2) 0.93186(19)
O4_6 O 0.69878(16) 0.1790(2) 0.92540(19)
C14_6 C 0.7389(2) 0.1441(3) 0.9103(3)
C19_6 C 0.7739(2) 0.0289(4) 0.8457(3)
H12_6 H 0.8068 0.0457 0.8607
C20_6 C 0.7321(2) 0.0734(3) 0.8628(3)
C28_6 C 0.6832(2) 0.0491(4) 0.8378(3)
H19_6 H 0.6549 0.0794 0.8481
N2_6 N 0.5348(3) 0.2770(6) 0.9880(6)
C32_6 C 0.5875(5) 0.2785(6) 0.9736(5)
H24_6 H 0.5935 0.2946 0.9320
C34_6 C 0.4967(5) 0.3047(10) 0.9475(9)
H28_6 H 0.5093 0.3189 0.9071
H29_6 H 0.4710 0.2621 0.9406
H30_6 H 0.4820 0.3532 0.9654
O16_3 O 0.70637(15) 0.3522(2) 0.93667(19)
O7_5 O 0.96330(16) 0.9994(2) 0.58417(19)
C31_2 C 0.9184(3) 0.9759(5) 0.4565(3)
H21_2 H 0.9527 0.9590 0.4710
H23_2 H 0.8982 0.9277 0.4440
O13_2 O 0.93720(15) 0.9208(2) 0.70944(18)
O1_5 O 0.95977(15) 0.9125(2) 0.81613(19)
C1_5 C 0.9317(2) 0.8939(3) 0.7652(3)
C2_5 C 0.8885(2) 0.8352(3) 0.7735(3)
C3_5 C 0.8555(2) 0.8114(3) 0.7196(3)
H1_5 H 0.8609 0.8318 0.6789
C4_5 C 0.8148(2) 0.7573(3) 0.7265(3)
H2_5 H 0.7929 0.7416 0.6907
C5_5 C 0.8796(2) 0.8053(3) 0.8332(3)
H3_5 H 0.9011 0.8217 0.8690
C6_5 C 0.8392(2) 0.7510(4) 0.8417(3)
H4_5 H 0.8336 0.7311 0.8825
C7_5 C 0.8073(2) 0.7274(3) 0.7871(3)
O3_5 O 0.76399(16) 0.6796(3) 0.7908(2)
C8_5 C 0.7648(2) 0.6058(4) 0.8259(3)
C9_5 C 0.8085(2) 0.5639(4) 0.8501(3)
H5_5 H 0.8408 0.5857 0.8453
C12_6 C 0.7121(2) 0.4978(3) 0.8638(3)
H9_6 H 0.6799 0.4757 0.8679
C13_6 C 0.7507(2) 0.3759(3) 0.9258(3)
C21_6 C 0.7556(2) 0.4550(3) 0.8896(3)
C24_5 C 0.7165(2) 0.5727(4) 0.8322(3)
H15_5 H 0.6873 0.6009 0.8152
C27_6 C 0.8033(2) 0.4886(3) 0.8816(3)
H18_6 H 0.8325 0.4599 0.8978
C10_5 C 0.3443(3) 0.4522(6) 0.9933(3)
H7_5 H 0.3224 0.4990 0.9822
H8_5 H 0.3431 0.4143 0.9575
C31_3 C 0.4184(3) 0.5241(5) 0.9565(3)
H21_3 H 0.4527 0.5410 0.9710
H22_5 H 0.4191 0.4874 0.9201
H23_3 H 0.3982 0.5723 0.9440
O4_7 O 0.30122(16) 0.8210(2) 0.07460(19)
Cu2_2 Cu 0.29993(2) 0.74128(4) 0.00305(3)
O10_4 O 0.21574(16) 0.8379(2) 0.06814(19)
C14_7 C 0.2611(2) 0.8559(3) 0.0897(3)
C19_7 C 0.2261(2) 0.9711(4) 0.1543(3)
H12_7 H 0.1932 0.9543 0.1393
C20_7 C 0.2679(2) 0.9266(3) 0.1372(3)
C28_7 C 0.3168(2) 0.9509(4) 0.1622(3)
H19_7 H 0.3451 0.9206 0.1519
N2_7 N 0.4652(3) 0.7230(6) 0.0120(6)
C32_7 C 0.4125(5) 0.7215(6) 0.0264(5)
H24_7 H 0.4065 0.7054 0.0680
C34_7 C 0.5033(5) 0.6953(10) 0.0525(9)
H28_7 H 0.4907 0.6811 0.0929
H29_7 H 0.5290 0.7379 0.0594
H30_7 H 0.5180 0.6468 0.0346
O16_4 O 0.29363(15) 0.6478(2) 0.06333(19)
O7_6 O 0.03670(16) 0.0006(2) 0.41583(19)
C31_4 C 0.0816(3) 0.0241(5) 0.5435(3)
H21_4 H 0.0473 0.0410 0.5290
H23_4 H 0.1018 0.0723 0.5560
O13_3 O 0.06280(15) 0.0792(2) 0.29056(18)
O1_6 O 0.04023(15) 0.0875(2) 0.18387(19)
C1_6 C 0.0683(2) 0.1061(3) 0.2348(3)
C2_6 C 0.1115(2) 0.1648(3) 0.2265(3)
C3_6 C 0.1445(2) 0.1886(3) 0.2804(3)
H1_6 H 0.1391 0.1682 0.3211
C4_6 C 0.1852(2) 0.2427(3) 0.2735(3)
H2_6 H 0.2071 0.2584 0.3093
C5_6 C 0.1204(2) 0.1947(3) 0.1668(3)
H3_6 H 0.0989 0.1783 0.1310
C6_6 C 0.1608(2) 0.2490(4) 0.1583(3)
H4_6 H 0.1664 0.2689 0.1175
C7_6 C 0.1927(2) 0.2726(3) 0.2129(3)
O3_6 O 0.23601(16) 0.3204(3) 0.2092(2)
C8_6 C 0.2352(2) 0.3942(4) 0.1741(3)
C9_6 C 0.1915(2) 0.4361(4) 0.1499(3)
H5_6 H 0.1592 0.4143 0.1547
O5_4 O 0.20803(16) 0.6618(2) 0.05547(18)
C12_7 C 0.2879(2) 0.5022(3) 0.1362(3)
H9_7 H 0.3201 0.5243 0.1321
C13_7 C 0.2493(2) 0.6241(3) 0.0742(3)
C21_7 C 0.2444(2) 0.5450(3) 0.1104(3)
C24_6 C 0.2835(2) 0.4273(4) 0.1678(3)
H15_6 H 0.3127 0.3991 0.1848
C27_7 C 0.1967(2) 0.5114(3) 0.1184(3)
H18_7 H 0.1675 0.5401 0.1022
C10_6 C 0.1557(3) 0.0478(6) 0.0067(3)
H7_6 H 0.1776 0.0010 0.0178
H8_6 H 0.1569 0.0857 0.0425
O11_7 O 0.12037(19) 0.7631(3) 0.0058(3)
H22_6 H 0.0809 0.0126 0.0799
C33_7 C 0.0247(6) 0.7543(10) 0.0526(8)
H26_7 H 0.0372 0.6989 0.0619
H27_7 H 0.0416 0.7927 0.0828
O11_8 O 0.37963(19) 0.7369(3) 0.9942(3)
C33_8 C 0.4753(6) 0.7457(10) 0.9474(8)
H25_5 H 0.5115 0.7440 0.9440
H26_8 H 0.4628 0.8011 0.9381
H27_8 H 0.4584 0.7073 0.9172
O14_4 O 0.29197(16) 0.8382(2) 0.94453(18)
Cu6_2 Cu 0.20007(2) 0.75872(4) 0.99695(3)
O17_4 O 0.28426(16) 0.6621(2) 0.93186(19)
O9_4 O 0.20637(15) 0.8522(2) 0.93667(19)
C12_8 C 0.2121(2) 0.9978(3) 0.8638(3)
H9_8 H 0.1799 0.9757 0.8679
C13_8 C 0.2507(2) 0.8759(3) 0.9258(3)
C21_8 C 0.2556(2) 0.9550(3) 0.8896(3)
C27_8 C 0.3033(2) 0.9886(3) 0.8816(3)
H18_8 H 0.3325 0.9599 0.8978
H25_6 H 0.0115 0.7560 0.4440
C34_8 C 0.0033(5) 0.8047(10) 0.5525(9)
H29_8 H 0.0290 0.7621 0.5594
H30_8 H 0.0180 0.8532 0.5346
Cu3_3 Cu 0.00909(2) 0.00124(3) 0.81369(3)
O15_3 O 0.04857(15) 0.0826(2) 0.69063(18)
H6_6 H 0.1670 0.0757 0.9698
O4_8 O 0.19878(16) 0.6790(2) 0.92540(19)
O6_6 O 0.05408(15) 0.0930(2) 0.79871(18)
O12_6 O 0.21441(16) 0.3676(3) 0.7419(2)
N1_6 N 0.10390(19) 0.0191(3) 0.9917(2)
C11_6 C 0.0658(2) 0.1151(3) 0.7434(3)
C14_8 C 0.2389(2) 0.6441(3) 0.9103(3)
C15_6 C 0.1035(2) 0.1845(3) 0.7428(3)
C16_6 C 0.2670(2) 0.4592(3) 0.8062(3)
H10_6 H 0.2951 0.4287 0.7954
C17_6 C 0.1613(2) 0.2674(4) 0.6872(3)
H11_6 H 0.1759 0.2812 0.6496
C18_6 C 0.2181(2) 0.4355(3) 0.7832(3)
C19_8 C 0.2739(2) 0.5289(4) 0.8457(3)
H12_8 H 0.3068 0.5457 0.8607
C20_8 C 0.2321(2) 0.5734(3) 0.8628(3)
C22_6 C 0.1175(2) 0.2292(4) 0.7993(3)
H13_6 H 0.1024 0.2162 0.8367
C23_6 C 0.1258(2) 0.2045(4) 0.6869(3)
H14_6 H 0.1167 0.1752 0.6490
C25_6 C 0.0796(2) 0.0266(4) 0.9328(3)
H16_6 H 0.0965 0.0548 0.9020
C26_6 C 0.1764(2) 0.4811(4) 0.7981(3)
H17_6 H 0.1436 0.4658 0.7812
C28_8 C 0.1832(2) 0.5491(4) 0.8378(3)
H19_8 H 0.1549 0.5794 0.8481
C29_6 C 0.1753(2) 0.3104(4) 0.7444(3)
C30_6 C 0.1530(2) 0.2918(4) 0.8003(3)
H20_6 H 0.1619 0.3215 0.8381
N2_8 N 0.0348(3) 0.7770(6) 0.9880(6)
C32_8 C 0.0875(5) 0.7785(6) 0.9736(5)
H24_8 H 0.0935 0.7946 0.9320
H28_8 H 0.0093 0.8189 0.9071
H25_7 H 0.0115 0.2440 0.9440
C31_5 C 0.9184(3) 0.0241(5) 0.9565(3)
H21_5 H 0.9527 0.0410 0.9710
H23_5 H 0.8982 0.0723 0.9440
O1_7 O 0.54023(15) 0.4125(2) 0.68387(19)
O2_4 O 0.56280(15) 0.4208(2) 0.79056(18)
C1_7 C 0.5683(2) 0.3939(3) 0.7348(3)
C2_7 C 0.6115(2) 0.3352(3) 0.7265(3)
C3_7 C 0.6445(2) 0.3114(3) 0.7804(3)
H1_7 H 0.6391 0.3318 0.8211
C4_7 C 0.6852(2) 0.2573(3) 0.7735(3)
H2_7 H 0.7071 0.2416 0.8093
C5_7 C 0.6204(2) 0.3053(3) 0.6668(3)
H3_7 H 0.5989 0.3217 0.6310
C6_7 C 0.6608(2) 0.2510(4) 0.6583(3)
H4_7 H 0.6664 0.2311 0.6175
C7_7 C 0.6927(2) 0.2274(3) 0.7129(3)
O3_7 O 0.73601(16) 0.1796(3) 0.7092(2)
C8_7 C 0.7352(2) 0.1058(4) 0.6741(3)
C9_7 C 0.6915(2) 0.0639(4) 0.6499(3)
H5_7 H 0.6592 0.0857 0.6547
C10_7 C 0.3443(3) 0.5478(6) 0.4933(3)
H6_7 H 0.3330 0.5757 0.5302
H7_7 H 0.3224 0.5010 0.4822
H8_7 H 0.3431 0.5857 0.4575
O6_7 O 0.44592(15) 0.5930(2) 0.70129(18)
Cu1_4 Cu 0.49091(2) 0.50124(3) 0.68631(3)
O7_7 O 0.46330(16) 0.4994(2) 0.58417(19)
O8_4 O 0.45143(15) 0.5826(2) 0.80937(18)
O12_7 O 0.28559(16) 0.8676(3) 0.7581(2)
N1_7 N 0.39610(19) 0.5191(3) 0.5083(2)
C11_7 C 0.4342(2) 0.6151(3) 0.7566(3)
C15_7 C 0.3965(2) 0.6845(3) 0.7572(3)
C16_7 C 0.2330(2) 0.9592(3) 0.6938(3)
H10_7 H 0.2049 0.9287 0.7046
C17_7 C 0.3387(2) 0.7674(4) 0.8128(3)
H11_7 H 0.3241 0.7812 0.8504
C18_7 C 0.2819(2) 0.9355(3) 0.7168(3)
C22_7 C 0.3825(2) 0.7292(4) 0.7007(3)
H13_7 H 0.3976 0.7162 0.6633
C23_7 C 0.3742(2) 0.7045(4) 0.8131(3)
H14_7 H 0.3833 0.6752 0.8510
C24_7 C 0.7835(2) 0.0727(4) 0.6678(3)
H15_7 H 0.8127 0.1009 0.6848
C25_7 C 0.4204(2) 0.5266(4) 0.5672(3)
H16_7 H 0.4035 0.5548 0.5980
C26_7 C 0.3236(2) 0.9811(4) 0.7019(3)
H17_7 H 0.3564 0.9658 0.7188
C29_7 C 0.3247(2) 0.8104(4) 0.7556(3)
C30_7 C 0.3470(2) 0.7918(4) 0.6997(3)
H20_7 H 0.3381 0.8215 0.6619
C31_6 C 0.4184(3) 0.4759(5) 0.4565(3)
H21_6 H 0.4527 0.4590 0.4710
H22_7 H 0.4191 0.5126 0.4201
H23_6 H 0.3982 0.4277 0.4440
O13_4 O 0.43720(15) 0.4208(2) 0.70944(18)
Cu3_4 Cu 0.50909(2) 0.50124(3) 0.81369(3)
O15_4 O 0.54857(15) 0.5826(2) 0.69063(18)
O1_8 O 0.45977(15) 0.4125(2) 0.81613(19)
C1_8 C 0.4317(2) 0.3939(3) 0.7652(3)
C2_8 C 0.3885(2) 0.3352(3) 0.7735(3)
C3_8 C 0.3555(2) 0.3114(3) 0.7196(3)
H1_8 H 0.3609 0.3318 0.6789
C4_8 C 0.3148(2) 0.2573(3) 0.7265(3)
H2_8 H 0.2929 0.2416 0.6907
C5_8 C 0.3796(2) 0.3053(3) 0.8332(3)
H3_8 H 0.4011 0.3217 0.8690
C6_8 C 0.3392(2) 0.2510(4) 0.8417(3)
H4_8 H 0.3336 0.2311 0.8825
C7_8 C 0.3073(2) 0.2274(3) 0.7871(3)
O3_8 O 0.26399(16) 0.1796(3) 0.7908(2)
C8_8 C 0.2648(2) 0.1058(4) 0.8259(3)
C9_8 C 0.3085(2) 0.0639(4) 0.8501(3)
H5_8 H 0.3408 0.0857 0.8453
H6_8 H 0.6670 0.5757 0.9698
O6_8 O 0.55408(15) 0.5930(2) 0.79871(18)
O7_8 O 0.53670(16) 0.4994(2) 0.91583(19)
O12_8 O 0.71441(16) 0.8676(3) 0.7419(2)
N1_8 N 0.60390(19) 0.5191(3) 0.9917(2)
C11_8 C 0.5658(2) 0.6151(3) 0.7434(3)
C15_8 C 0.6035(2) 0.6845(3) 0.7428(3)
C16_8 C 0.7670(2) 0.9592(3) 0.8062(3)
H10_8 H 0.7951 0.9287 0.7954
C17_8 C 0.6613(2) 0.7674(4) 0.6872(3)
H11_8 H 0.6759 0.7812 0.6496
C18_8 C 0.7181(2) 0.9355(3) 0.7832(3)
C22_8 C 0.6175(2) 0.7292(4) 0.7993(3)
H13_8 H 0.6024 0.7162 0.8367
C23_8 C 0.6258(2) 0.7045(4) 0.6869(3)
H14_8 H 0.6167 0.6752 0.6490
C24_8 C 0.2165(2) 0.0727(4) 0.8322(3)
H15_8 H 0.1873 0.1009 0.8152
C25_8 C 0.5796(2) 0.5266(4) 0.9328(3)
H16_8 H 0.5965 0.5548 0.9020
C26_8 C 0.6764(2) 0.9811(4) 0.7981(3)
H17_8 H 0.6436 0.9658 0.7812
C29_8 C 0.6753(2) 0.8104(4) 0.7444(3)
C30_8 C 0.6530(2) 0.7918(4) 0.8003(3)
H20_8 H 0.6619 0.8215 0.8381
C10_8 C 0.6557(3) 0.5478(6) 0.0067(3)
H7_8 H 0.6776 0.5010 0.0178
H8_8 H 0.6569 0.5857 0.0425
C31_7 C 0.5816(3) 0.4759(5) 0.0435(3)
H21_7 H 0.5473 0.4590 0.0290
H22_8 H 0.5809 0.5126 0.0799
H23_7 H 0.6018 0.4277 0.0560
C31_8 C 0.0816(3) 0.9759(5) 0.0435(3)
H21_8 H 0.0473 0.9590 0.0290
H23_8 H 0.1018 0.9277 0.0560
H25_8 H 0.9885 0.7560 0.0560
loop_
_geom_bond_atom_site_label_1
_geom_bond_atom_site_label_2
_geom_bond_site_symmetry_1
_geom_bond_site_symmetry_2
O5 C13 1_555 1_555
O9 C13 1_555 1_555
C12 H9 1_555 1_555
C13 C21 1_555 1_555
C21 C12 1_555 1_555
H18 C27 1_555 1_555
Cu4 O5 1_555 1_555
Cu5 O9 1_555 1_555
C21 C27 1_555 1_555
C10 H6 1_555 1_555
H7 C10 1_555 1_555
H8 C10 1_555 1_555
O4 Cu5 1_555 1_555
O6 Cu1 1_555 1_555
Cu5 O11 1_555 1_555
O8 C11 1_555 1_555
O10 C14 1_555 1_555
O11 C32 1_555 1_555
O12 C18 1_555 1_555
N1 C10 1_555 1_555
C11 O6 1_555 1_555
C14 O4 1_555 1_555
C15 C11 1_555 1_555
C16 H10 1_555 1_555
C17 H11 1_555 1_555
C18 C16 1_555 1_555
C19 C16 1_555 1_555
H12 C19 1_555 1_555
C20 C14 1_555 1_555
C22 C15 1_555 1_555
H13 C22 1_555 1_555
C23 C15 1_555 1_555
H14 C23 1_555 1_555
H16 C25 1_555 1_555
C26 C18 1_555 1_555
H17 C26 1_555 1_555
C28 C20 1_555 1_555
H19 C28 1_555 1_555
C29 O12 1_555 1_555
C30 C22 1_555 1_555
H20 C30 1_555 1_555
N2 C32 1_555 1_555
C32 H24 1_555 1_555
C33 N2 1_555 1_555
H26 C33 1_555 1_555
H27 C33 1_555 1_555
O14 Cu5 1_555 1_555
Cu4 O10 1_555 1_555
O17 Cu5 1_555 1_555
N1 C25 1_555 1_555
C17 C23 1_555 1_555
C17 C29 1_555 1_555
C19 C20 1_555 1_555
C26 C28 1_555 1_555
C29 C30 1_555 1_555
H29 C34 1_555 1_555
H30 C34 1_555 1_555
O4_2 Cu4 1_555 1_555
Cu4 O11_2 1_555 1_555
O17 C14_2 1_555 1_555
O11_2 C32_2 1_555 1_555
C14_2 O4_2 1_555 1_555
H12_2 C19_2 1_555 1_555
C20_2 C14_2 1_555 1_555
C28_2 C20_2 1_555 1_555
H19_2 C28_2 1_555 1_555
N2_2 C32_2 1_555 1_555
C32_2 H24_2 1_555 1_555
C33_2 N2_2 1_555 1_555
H25 C33_2 1_555 1_555
H26_2 C33_2 1_555 1_555
H27_2 C33_2 1_555 1_555
C34_2 N2_2 1_555 1_555
H28_2 C34_2 1_555 1_555
H29_2 C34_2 1_555 1_555
H30_2 C34_2 1_555 1_555
O16 Cu4 1_555 1_555
C19_2 C20_2 1_555 1_555
O1 C1 1_555 1_555
O2 C1 1_555 1_555
C1 C2 1_555 1_555
C2 C3 1_555 1_555
C3 H1 1_555 1_555
C4 C3 1_555 1_555
H2 C4 1_555 1_555
C5 C2 1_555 1_555
H3 C5 1_555 1_555
C6 C5 1_555 1_555
H4 C6 1_555 1_555
C7 C4 1_555 1_555
O3 C7 1_555 1_555
C8 O3 1_555 1_555
C9 C8 1_555 1_555
H5 C9 1_555 1_555
O14 C13_2 1_555 1_555
O16 C13_2 1_555 1_555
C12_2 H9_2 1_555 1_555
C13_2 C21_2 1_555 1_555
C21_2 C12_2 1_555 1_555
C24 C8 1_555 1_555
H15 C24 1_555 1_555
C27_2 C9 1_555 1_555
H18_2 C27_2 1_555 1_555
C6 C7 1_555 1_555
C12_2 C24 1_555 1_555
C21_2 C27_2 1_555 1_555
O1_2 C1_2 1_555 1_555
O2_2 C1_2 1_555 1_555
C1_2 C2_2 1_555 1_555
C2_2 C3_2 1_555 1_555
C3_2 H1_2 1_555 1_555
C4_2 C3_2 1_555 1_555
H2_2 C4_2 1_555 1_555
C5_2 C2_2 1_555 1_555
H3_2 C5_2 1_555 1_555
C6_2 C5_2 1_555 1_555
H4_2 C6_2 1_555 1_555
C7_2 C4_2 1_555 1_555
O3_2 C7_2 1_555 1_555
C8_2 O3_2 1_555 1_555
C9_2 C8_2 1_555 1_555
H5_2 C9_2 1_555 1_555
C10_2 H6_2 1_555 1_555
H7_2 C10_2 1_555 1_555
H8_2 C10_2 1_555 1_555
O6_2 Cu1_2 1_555 1_555
Cu1_2 O1_2 1_555 1_555
O7_2 Cu1_2 1_555 1_555
O8_2 C11_2 1_555 1_555
O12_2 C18_2 1_555 1_555
N1_2 C10_2 1_555 1_555
C11_2 O6_2 1_555 1_555
C15_2 C11_2 1_555 1_555
C16_2 H10_2 1_555 1_555
C17_2 H11_2 1_555 1_555
C18_2 C16_2 1_555 1_555
C22_2 C15_2 1_555 1_555
H13_2 C22_2 1_555 1_555
C23_2 C15_2 1_555 1_555
H14_2 C23_2 1_555 1_555
C24_2 C8_2 1_555 1_555
H15_2 C24_2 1_555 1_555
C25_2 O7_2 1_555 1_555
H16_2 C25_2 1_555 1_555
C26_2 C18_2 1_555 1_555
H17_2 C26_2 1_555 1_555
C29_2 O12_2 1_555 1_555
C30_2 C22_2 1_555 1_555
H20_2 C30_2 1_555 1_555
C31 N1_2 1_555 1_555
H21 C31 1_555 1_555
H22_2 C31 1_555 1_555
H23 C31 1_555 1_555
O13 Cu1_2 1_555 1_555
Cu3 O2_2 1_555 1_555
O15 Cu1_2 1_555 1_555
C6_2 C7_2 1_555 1_555
O8_2 Cu3 1_555 1_555
N1_2 C25_2 1_555 1_555
C17_2 C23_2 1_555 1_555
C17_2 C29_2 1_555 1_555
C29_2 C30_2 1_555 1_555
O1_3 C1_3 1_555 1_555
O13 C1_3 1_555 1_555
C1_3 C2_3 1_555 1_555
C2_3 C3_3 1_555 1_555
C3_3 H1_3 1_555 1_555
C4_3 C3_3 1_555 1_555
H2_3 C4_3 1_555 1_555
C5_3 C2_3 1_555 1_555
H3_3 C5_3 1_555 1_555
C6_3 C5_3 1_555 1_555
H4_3 C6_3 1_555 1_555
C7_3 C4_3 1_555 1_555
O3_3 C7_3 1_555 1_555
C8_3 O3_3 1_555 1_555
C9_3 C8_3 1_555 1_555
H5_3 C9_3 1_555 1_555
O6_3 Cu3 1_555 1_555
Cu3 O1_3 1_555 1_555
O7_3 Cu3 1_555 1_555
O15 C11_3 1_555 1_555
O12_3 C18_3 1_555 1_555
C11_3 O6_3 1_555 1_555
C15_3 C11_3 1_555 1_555
C16_3 H10_3 1_555 1_555
C17_3 H11_3 1_555 1_555
C18_3 C16_3 1_555 1_555
C22_3 C15_3 1_555 1_555
H13_3 C22_3 1_555 1_555
C23_3 C15_3 1_555 1_555
H14_3 C23_3 1_555 1_555
C24_3 C8_3 1_555 1_555
H15_3 C24_3 1_555 1_555
C25_3 O7_3 1_555 1_555
H16_3 C25_3 1_555 1_555
C26_3 C18_3 1_555 1_555
H17_3 C26_3 1_555 1_555
C29_3 O12_3 1_555 1_555
C30_3 C22_3 1_555 1_555
H20_3 C30_3 1_555 1_555
C6_3 C7_3 1_555 1_555
N1_3 C25_3 1_555 1_555
C17_3 C23_3 1_555 1_555
C17_3 C29_3 1_555 1_555
C29_3 C30_3 1_555 1_555
O4_3 Cu2 1_555 1_555
Cu2 O11_3 1_555 1_555
O10_2 C14_3 1_555 1_555
O11_3 C32_3 1_555 1_555
C14_3 O4_3 1_555 1_555
H12_3 C19_3 1_555 1_555
C20_3 C14_3 1_555 1_555
C28_3 C20_3 1_555 1_555
H19_3 C28_3 1_555 1_555
N2_3 C32_3 1_555 1_555
C32_3 H24_3 1_555 1_555
C33_3 N2_3 1_555 1_555
H25_2 C33_3 1_555 1_555
H26_3 C33_3 1_555 1_555
H27_3 C33_3 1_555 1_555
C34_3 N2_3 1_555 1_555
H28_3 C34_3 1_555 1_555
H29_3 C34_3 1_555 1_555
H30_3 C34_3 1_555 1_555
O14_2 Cu2 1_555 1_555
Cu6 O10_2 1_555 1_555
O16_2 Cu2 1_555 1_555
O17_2 Cu2 1_555 1_555
C19_3 C20_3 1_555 1_555
O1_4 C1_4 1_555 1_555
O2_3 C1_4 1_555 1_555
C1_4 C2_4 1_555 1_555
C2_4 C3_4 1_555 1_555
C3_4 H1_4 1_555 1_555
C4_4 C3_4 1_555 1_555
H2_4 C4_4 1_555 1_555
C5_4 C2_4 1_555 1_555
H3_4 C5_4 1_555 1_555
C6_4 C5_4 1_555 1_555
H4_4 C6_4 1_555 1_555
C7_4 C4_4 1_555 1_555
O3_4 C7_4 1_555 1_555
C8_4 O3_4 1_555 1_555
C9_4 C8_4 1_555 1_555
H5_4 C9_4 1_555 1_555
O5_2 C13_3 1_555 1_555
O16_2 C13_3 1_555 1_555
C12_3 H9_3 1_555 1_555
C13_3 C21_3 1_555 1_555
C21_3 C12_3 1_555 1_555
C24_4 C8_4 1_555 1_555
H15_4 C24_4 1_555 1_555
C27_3 C9_4 1_555 1_555
H18_3 C27_3 1_555 1_555
Cu6 O5_2 1_555 1_555
C6_4 C7_4 1_555 1_555
C12_3 C24_4 1_555 1_555
C21_3 C27_3 1_555 1_555
O14_2 C13_4 1_555 1_555
O9_2 C13_4 1_555 1_555
C12_4 H9_4 1_555 1_555
C13_4 C21_4 1_555 1_555
C21_4 C12_4 1_555 1_555
H18_4 C27_4 1_555 1_555
Cu6 O9_2 1_555 1_555
C21_4 C27_4 1_555 1_555
C10_3 H6_4 1_555 1_555
H7_3 C10_3 1_555 1_555
H8_3 C10_3 1_555 1_555
O4_4 Cu6 1_555 1_555
O6_4 Cu1_3 1_555 1_555
Cu6 O11_4 1_555 1_555
O8_3 C11_4 1_555 1_555
O17_2 C14_4 1_555 1_555
O11_4 C32_4 1_555 1_555
O12_4 C18_4 1_555 1_555
N1_4 C10_3 1_555 1_555
C11_4 O6_4 1_555 1_555
C14_4 O4_4 1_555 1_555
C15_4 C11_4 1_555 1_555
C16_4 H10_4 1_555 1_555
C17_4 H11_4 1_555 1_555
C18_4 C16_4 1_555 1_555
C19_4 C16_4 1_555 1_555
H12_4 C19_4 1_555 1_555
C20_4 C14_4 1_555 1_555
C22_4 C15_4 1_555 1_555
H13_4 C22_4 1_555 1_555
C23_4 C15_4 1_555 1_555
H14_4 C23_4 1_555 1_555
H16_4 C25_4 1_555 1_555
C26_4 C18_4 1_555 1_555
H17_4 C26_4 1_555 1_555
C28_4 C20_4 1_555 1_555
H19_4 C28_4 1_555 1_555
C29_4 O12_4 1_555 1_555
C30_4 C22_4 1_555 1_555
H20_4 C30_4 1_555 1_555
N2_4 C32_4 1_555 1_555
C32_4 H24_4 1_555 1_555
C33_4 N2_4 1_555 1_555
H26_4 C33_4 1_555 1_555
H27_4 C33_4 1_555 1_555
N1_4 C25_4 1_555 1_555
C17_4 C23_4 1_555 1_555
C17_4 C29_4 1_555 1_555
C19_4 C20_4 1_555 1_555
C26_4 C28_4 1_555 1_555
C29_4 C30_4 1_555 1_555
H29_4 C34_4 1_555 1_555
H30_4 C34_4 1_555 1_555
O5_3 C13_5 1_555 1_555
O9_3 C13_5 1_555 1_555
C12_5 H9_5 1_555 1_555
C13_5 C21_5 1_555 1_555
C21_5 C12_5 1_555 1_555
H18_5 C27_5 1_555 1_555
Cu5_2 O9_3 1_555 1_555
C21_5 C27_5 1_555 1_555
H29_5 C34_5 1_555 1_555
H30_5 C34_5 1_555 1_555
O4_5 Cu5_2 1_555 1_555
O6_5 Cu3_2 1_555 1_555
O15_2 C11_5 1_555 1_555
O10_3 C14_5 1_555 1_555
O12_5 C18_5 1_555 1_555
C11_5 O6_5 1_555 1_555
C14_5 O4_5 1_555 1_555
C15_5 C11_5 1_555 1_555
C16_5 H10_5 1_555 1_555
C17_5 H11_5 1_555 1_555
C18_5 C16_5 1_555 1_555
C19_5 C16_5 1_555 1_555
H12_5 C19_5 1_555 1_555
C20_5 C14_5 1_555 1_555
C22_5 C15_5 1_555 1_555
H13_5 C22_5 1_555 1_555
C23_5 C15_5 1_555 1_555
H14_5 C23_5 1_555 1_555
H16_5 C25_5 1_555 1_555
C26_5 C18_5 1_555 1_555
H17_5 C26_5 1_555 1_555
C28_5 C20_5 1_555 1_555
H19_5 C28_5 1_555 1_555
C29_5 O12_5 1_555 1_555
C30_5 C22_5 1_555 1_555
H20_5 C30_5 1_555 1_555
N2_5 C32_5 1_555 1_555
C32_5 H24_5 1_555 1_555
N1_5 C25_5 1_555 1_555
C17_5 C23_5 1_555 1_555
C17_5 C29_5 1_555 1_555
C19_5 C20_5 1_555 1_555
C26_5 C28_5 1_555 1_555
C29_5 C30_5 1_555 1_555
H25_4 C33_5 1_555 1_555
H26_5 C33_5 1_555 1_555
H27_5 C33_5 1_555 1_555
H7_4 C10_4 1_555 1_555
H8_4 C10_4 1_555 1_555
H26_6 C33_6 1_555 1_555
H27_6 C33_6 1_555 1_555
O4_6 Cu4_2 1_555 1_555
O17_3 C14_6 1_555 1_555
C14_6 O4_6 1_555 1_555
H12_6 C19_6 1_555 1_555
C20_6 C14_6 1_555 1_555
C28_6 C20_6 1_555 1_555
H19_6 C28_6 1_555 1_555
N2_6 C32_6 1_555 1_555
C32_6 H24_6 1_555 1_555
C34_6 N2_6 1_555 1_555
H28_6 C34_6 1_555 1_555
H29_6 C34_6 1_555 1_555
H30_6 C34_6 1_555 1_555
O16_3 Cu4_2 1_555 1_555
C19_6 C20_6 1_555 1_555
H21_2 C31_2 1_555 1_555
H23_2 C31_2 1_555 1_555
O1_5 C1_5 1_555 1_555
O13_2 C1_5 1_555 1_555
C1_5 C2_5 1_555 1_555
C2_5 C3_5 1_555 1_555
C3_5 H1_5 1_555 1_555
C4_5 C3_5 1_555 1_555
H2_5 C4_5 1_555 1_555
C5_5 C2_5 1_555 1_555
H3_5 C5_5 1_555 1_555
C6_5 C5_5 1_555 1_555
H4_5 C6_5 1_555 1_555
C7_5 C4_5 1_555 1_555
O3_5 C7_5 1_555 1_555
C8_5 O3_5 1_555 1_555
C9_5 C8_5 1_555 1_555
H5_5 C9_5 1_555 1_555
O14_3 C13_6 1_555 1_555
O16_3 C13_6 1_555 1_555
C12_6 H9_6 1_555 1_555
C13_6 C21_6 1_555 1_555
C21_6 C12_6 1_555 1_555
C24_5 C8_5 1_555 1_555
H15_5 C24_5 1_555 1_555
C27_6 C9_5 1_555 1_555
H18_6 C27_6 1_555 1_555
C6_5 C7_5 1_555 1_555
C12_6 C24_5 1_555 1_555
C21_6 C27_6 1_555 1_555
H7_5 C10_5 1_555 1_555
H8_5 C10_5 1_555 1_555
H21_3 C31_3 1_555 1_555
H22_5 C31_3 1_555 1_555
H23_3 C31_3 1_555 1_555
O4_7 Cu2_2 1_555 1_555
O10_4 C14_7 1_555 1_555
C14_7 O4_7 1_555 1_555
H12_7 C19_7 1_555 1_555
C20_7 C14_7 1_555 1_555
C28_7 C20_7 1_555 1_555
H19_7 C28_7 1_555 1_555
N2_7 C32_7 1_555 1_555
C32_7 H24_7 1_555 1_555
C34_7 N2_7 1_555 1_555
H28_7 C34_7 1_555 1_555
H29_7 C34_7 1_555 1_555
H30_7 C34_7 1_555 1_555
O16_4 Cu2_2 1_555 1_555
C19_7 C20_7 1_555 1_555
H21_4 C31_4 1_555 1_555
H23_4 C31_4 1_555 1_555
O1_6 C1_6 1_555 1_555
O13_3 C1_6 1_555 1_555
C1_6 C2_6 1_555 1_555
C2_6 C3_6 1_555 1_555
C3_6 H1_6 1_555 1_555
C4_6 C3_6 1_555 1_555
H2_6 C4_6 1_555 1_555
C5_6 C2_6 1_555 1_555
H3_6 C5_6 1_555 1_555
C6_6 C5_6 1_555 1_555
H4_6 C6_6 1_555 1_555
C7_6 C4_6 1_555 1_555
O3_6 C7_6 1_555 1_555
C8_6 O3_6 1_555 1_555
C9_6 C8_6 1_555 1_555
H5_6 C9_6 1_555 1_555
O5_4 C13_7 1_555 1_555
O16_4 C13_7 1_555 1_555
C12_7 H9_7 1_555 1_555
C13_7 C21_7 1_555 1_555
C21_7 C12_7 1_555 1_555
C24_6 C8_6 1_555 1_555
H15_6 C24_6 1_555 1_555
C27_7 C9_6 1_555 1_555
H18_7 C27_7 1_555 1_555
C6_6 C7_6 1_555 1_555
C12_7 C24_6 1_555 1_555
C21_7 C27_7 1_555 1_555
H7_6 C10_6 1_555 1_555
H8_6 C10_6 1_555 1_555
H26_7 C33_7 1_555 1_555
H27_7 C33_7 1_555 1_555
H25_5 C33_8 1_555 1_555
H26_8 C33_8 1_555 1_555
H27_8 C33_8 1_555 1_555
O14_4 C13_8 1_555 1_555
O9_4 C13_8 1_555 1_555
C12_8 H9_8 1_555 1_555
C13_8 C21_8 1_555 1_555
C21_8 C12_8 1_555 1_555
H18_8 C27_8 1_555 1_555
Cu6_2 O9_4 1_555 1_555
C21_8 C27_8 1_555 1_555
H29_8 C34_8 1_555 1_555
H30_8 C34_8 1_555 1_555
O4_8 Cu6_2 1_555 1_555
O6_6 Cu3_3 1_555 1_555
O15_3 C11_6 1_555 1_555
O17_4 C14_8 1_555 1_555
O12_6 C18_6 1_555 1_555
C11_6 O6_6 1_555 1_555
C14_8 O4_8 1_555 1_555
C15_6 C11_6 1_555 1_555
C16_6 H10_6 1_555 1_555
C17_6 H11_6 1_555 1_555
C18_6 C16_6 1_555 1_555
C19_8 C16_6 1_555 1_555
H12_8 C19_8 1_555 1_555
C20_8 C14_8 1_555 1_555
C22_6 C15_6 1_555 1_555
H13_6 C22_6 1_555 1_555
C23_6 C15_6 1_555 1_555
H14_6 C23_6 1_555 1_555
H16_6 C25_6 1_555 1_555
C26_6 C18_6 1_555 1_555
H17_6 C26_6 1_555 1_555
C28_8 C20_8 1_555 1_555
H19_8 C28_8 1_555 1_555
C29_6 O12_6 1_555 1_555
C30_6 C22_6 1_555 1_555
H20_6 C30_6 1_555 1_555
N2_8 C32_8 1_555 1_555
C32_8 H24_8 1_555 1_555
N1_6 C25_6 1_555 1_555
C17_6 C23_6 1_555 1_555
C17_6 C29_6 1_555 1_555
C19_8 C20_8 1_555 1_555
C26_6 C28_8 1_555 1_555
C29_6 C30_6 1_555 1_555
H21_5 C31_5 1_555 1_555
H23_5 C31_5 1_555 1_555
O1_7 C1_7 1_555 1_555
O2_4 C1_7 1_555 1_555
C1_7 C2_7 1_555 1_555
C2_7 C3_7 1_555 1_555
C3_7 H1_7 1_555 1_555
C4_7 C3_7 1_555 1_555
H2_7 C4_7 1_555 1_555
C5_7 C2_7 1_555 1_555
H3_7 C5_7 1_555 1_555
C6_7 C5_7 1_555 1_555
H4_7 C6_7 1_555 1_555
C7_7 C4_7 1_555 1_555
O3_7 C7_7 1_555 1_555
C8_7 O3_7 1_555 1_555
C9_7 C8_7 1_555 1_555
H5_7 C9_7 1_555 1_555
C10_7 H6_7 1_555 1_555
H7_7 C10_7 1_555 1_555
H8_7 C10_7 1_555 1_555
O6_7 Cu1_4 1_555 1_555
Cu1_4 O1_7 1_555 1_555
O7_7 Cu1_4 1_555 1_555
O8_4 C11_7 1_555 1_555
O12_7 C18_7 1_555 1_555
N1_7 C10_7 1_555 1_555
C11_7 O6_7 1_555 1_555
C15_7 C11_7 1_555 1_555
C16_7 H10_7 1_555 1_555
C17_7 H11_7 1_555 1_555
C18_7 C16_7 1_555 1_555
C22_7 C15_7 1_555 1_555
H13_7 C22_7 1_555 1_555
C23_7 C15_7 1_555 1_555
H14_7 C23_7 1_555 1_555
C24_7 C8_7 1_555 1_555
H15_7 C24_7 1_555 1_555
C25_7 O7_7 1_555 1_555
H16_7 C25_7 1_555 1_555
C26_7 C18_7 1_555 1_555
H17_7 C26_7 1_555 1_555
C29_7 O12_7 1_555 1_555
C30_7 C22_7 1_555 1_555
H20_7 C30_7 1_555 1_555
C31_6 N1_7 1_555 1_555
H21_6 C31_6 1_555 1_555
H22_7 C31_6 1_555 1_555
H23_6 C31_6 1_555 1_555
O13_4 Cu1_4 1_555 1_555
Cu3_4 O2_4 1_555 1_555
O15_4 Cu1_4 1_555 1_555
C6_7 C7_7 1_555 1_555
O8_4 Cu3_4 1_555 1_555
N1_7 C25_7 1_555 1_555
C17_7 C23_7 1_555 1_555
C17_7 C29_7 1_555 1_555
C29_7 C30_7 1_555 1_555
O1_8 C1_8 1_555 1_555
O13_4 C1_8 1_555 1_555
C1_8 C2_8 1_555 1_555
C2_8 C3_8 1_555 1_555
C3_8 H1_8 1_555 1_555
C4_8 C3_8 1_555 1_555
H2_8 C4_8 1_555 1_555
C5_8 C2_8 1_555 1_555
H3_8 C5_8 1_555 1_555
C6_8 C5_8 1_555 1_555
H4_8 C6_8 1_555 1_555
C7_8 C4_8 1_555 1_555
O3_8 C7_8 1_555 1_555
C8_8 O3_8 1_555 1_555
C9_8 C8_8 1_555 1_555
H5_8 C9_8 1_555 1_555
O6_8 Cu3_4 1_555 1_555
Cu3_4 O1_8 1_555 1_555
O7_8 Cu3_4 1_555 1_555
O15_4 C11_8 1_555 1_555
O12_8 C18_8 1_555 1_555
C11_8 O6_8 1_555 1_555
C15_8 C11_8 1_555 1_555
C16_8 H10_8 1_555 1_555
C17_8 H11_8 1_555 1_555
C18_8 C16_8 1_555 1_555
C22_8 C15_8 1_555 1_555
H13_8 C22_8 1_555 1_555
C23_8 C15_8 1_555 1_555
H14_8 C23_8 1_555 1_555
C24_8 C8_8 1_555 1_555
H15_8 C24_8 1_555 1_555
C25_8 O7_8 1_555 1_555
H16_8 C25_8 1_555 1_555
C26_8 C18_8 1_555 1_555
H17_8 C26_8 1_555 1_555
C29_8 O12_8 1_555 1_555
C30_8 C22_8 1_555 1_555
H20_8 C30_8 1_555 1_555
C6_8 C7_8 1_555 1_555
N1_8 C25_8 1_555 1_555
C17_8 C23_8 1_555 1_555
C17_8 C29_8 1_555 1_555
C29_8 C30_8 1_555 1_555
H7_8 C10_8 1_555 1_555
H8_8 C10_8 1_555 1_555
H21_7 C31_7 1_555 1_555
H22_8 C31_7 1_555 1_555
H23_7 C31_7 1_555 1_555
H21_8 C31_8 1_555 1_555
H23_8 C31_8 1_555 1_555

#END
