
###############################################################################
#
# This file contains modified crystal structure data generated from the
# MOF subset of the Cambridge Structural Database (CSD) v543 
# hosted by the Cambridge Crystallographic Data Centre (CCDC).
#
# This work is licensed under the Creative Commons
# Attribution-NonCommercial-ShareAlike 4.0 International License.
# To view a copy of this license, visit
# http://creativecommons.org/licenses/by-nc-sa/4.0/
# or send a letter to
# Creative Commons, PO Box 1866, Mountain View, CA 94042, USA.
#
# CIF created using the CSD Python API on 29 September 2022
# The structure has been converted into the P1 space group
# The structure has a 3D framework
# The original CSD entry PARVUB is in the monoclinic crystal system
# The framework has been calculated to contain at least 10.0% void space
# The void calculation uses a probe of radius 1.32A, grid spacing 0.4
#
###############################################################################

data_PARVUB
_chemical_formula_moiety         '(C352 H328 Co11 N64 O60 S8)n'
_symmetry_cell_setting           triclinic
_symmetry_space_group_name_H-M   'P 1'
_symmetry_Int_Tables_number      1
_space_group_name_Hall           'P 1'
loop_
_symmetry_equiv_pos_site_id
_symmetry_equiv_pos_as_xyz
1 x,y,z
_cell_length_a                   45.497(2)
_cell_length_b                   10.5235(5)
_cell_length_c                   19.0900(9)
_cell_angle_alpha                90
_cell_angle_beta                 99.9690(10)
_cell_angle_gamma                90
_cell_volume                     9002.06
loop_
_atom_site_label
_atom_site_type_symbol
_atom_site_fract_x
_atom_site_fract_y
_atom_site_fract_z
C4 C 0.14400(8) 0.0217(3) 0.20014(18)
H7 H 0.1534 0.0769 0.2382
N3 N 0.13590(5) 0.3367(2) 0.31588(12)
C5 C 0.14851(7) 0.3761(3) 0.20764(16)
N4 N 0.12575(5) 0.2875(2) 0.20060(12)
C6 C 0.15418(6) 0.4093(3) 0.27960(15)
C7 C 0.17487(7) 0.5037(3) 0.30326(17)
H8 H 0.1783 0.5301 0.3505
C8 C 0.19023(8) 0.5570(4) 0.25414(19)
H9 H 0.2042 0.6202 0.2687
C9 C 0.18517(8) 0.5181(4) 0.1835(2)
H10 H 0.1965 0.5538 0.1524
C10 C 0.16407(8) 0.4290(3) 0.15829(18)
H11 H 0.1604 0.4051 0.1107
C11 C 0.11961(6) 0.2686(3) 0.26641(15)
H12 H 0.1051 0.2122 0.2758
C12 C 0.11512(8) 0.2075(3) 0.13843(16)
H13 H 0.0957 0.1731 0.1422
H14 H 0.1129 0.2590 0.0957
C44 C 0.13624(8) 0.1002(3) 0.13242(17)
H40 H 0.1274 0.0449 0.0939
H41 H 0.1545 0.1347 0.1203
Co5 Co 0.139130(7) 0.30255(3) 0.427330(18)
N9 N 0.13721(5) 0.2720(2) 0.53525(12)
C46 C 0.15502(6) 0.1904(3) 0.57392(15)
H44 H 0.1693 0.1429 0.5560
N11 N 0.15066(5) 0.1821(2) 0.64193(12)
C47 C 0.16446(7) 0.0898(3) 0.69488(17)
H45 H 0.1693 0.1310 0.7409
H46 H 0.1829 0.0594 0.6820
H47 H 0.1256 0.0099 0.7131
C57 C 0.12780(6) 0.2651(3) 0.64872(15)
C58 C 0.11942(6) 0.3215(3) 0.58180(14)
C59 C 0.09654(6) 0.4105(3) 0.57127(16)
H58 H 0.0903 0.4479 0.5270
C60 C 0.08338(7) 0.4414(4) 0.62878(18)
H59 H 0.0681 0.5011 0.6231
C61 C 0.09239(8) 0.3855(4) 0.69517(18)
H60 H 0.0831 0.4098 0.7328
C62 C 0.11444(7) 0.2961(3) 0.70645(17)
H61 H 0.1202 0.2579 0.7506
N1 N 0.13721(5) 0.7280(2) 0.03525(12)
C2 C 0.15502(6) 0.8096(3) 0.07392(15)
H3 H 0.1693 0.8571 0.0560
N2 N 0.15066(5) 0.8179(2) 0.14193(12)
C3 C 0.16446(7) 0.9102(3) 0.19488(17)
H4 H 0.1693 0.8690 0.2409
H5 H 0.1829 0.9406 0.1820
H6 H 0.1256 0.9901 0.2131
C13 C 0.12780(6) 0.7349(3) 0.14872(15)
C14 C 0.11942(6) 0.6785(3) 0.08180(14)
C15 C 0.09654(6) 0.5895(3) 0.07127(16)
H17 H 0.0903 0.5521 0.0270
C16 C 0.08338(7) 0.5586(4) 0.12878(18)
H18 H 0.0681 0.4989 0.1231
C17 C 0.09239(8) 0.6145(4) 0.19517(18)
H19 H 0.0831 0.5902 0.2328
C18 C 0.11444(7) 0.7039(3) 0.20645(17)
H20 H 0.1202 0.7421 0.2506
H25 H 0.1824 0.5096 0.0180
C26 C 0.23982(6) 0.4165(3) 0.03043(16)
H26 H 0.2300 0.3895 0.0692
H27 H 0.2599 0.4436 0.0506
C45 C 0.25857(7) 0.1945(3) 0.01919(17)
H42 H 0.2489 0.1675 0.0581
H43 H 0.2786 0.2219 0.0392
C1 C 0.24143(7) 0.3055(3) 0.98081(17)
H1 H 0.2511 0.3325 0.9419
H2 H 0.2214 0.2781 0.9608
O1 O 0.12735(4) 0.50689(17) 0.93712(10)
Co2 Co 0.139130(7) 0.69745(3) 0.927330(18)
O2 O 0.07952(4) 0.50883(19) 0.88646(13)
S1 S 0.166400(15) 0.02849(7) 0.92588(4)
O4 O 0.03170(4) 0.10810(18) 0.78511(10)
N5 N 0.18482(4) 0.6483(2) 0.94976(12)
N6 N 0.22340(5) 0.5239(2) 0.99338(13)
O6 O 0.18466(4) 0.0631(2) 0.87459(12)
O7 O 0.17894(4) 0.0625(2) 0.99802(11)
O8 O 0.09155(4) 0.75199(19) 0.90513(10)
H15 H 0.0808 0.6859 0.8959
H16 H 0.0871 0.7890 0.9416
C19 C 0.23365(6) 0.6073(3) 0.94689(16)
C20 C 0.20946(6) 0.6851(3) 0.91962(15)
C21 C 0.21248(6) 0.7764(3) 0.86963(16)
H21 H 0.1965 0.8281 0.8505
C22 C 0.23978(7) 0.7887(3) 0.84902(19)
H22 H 0.2423 0.8498 0.8154
C23 C 0.26379(7) 0.7114(3) 0.8776(2)
H23 H 0.2820 0.7233 0.8628
C24 C 0.26145(6) 0.6191(3) 0.92640(19)
H24 H 0.2775 0.5671 0.9449
C25 C 0.19451(6) 0.5533(3) 0.99162(15)
C27 C 0.13173(6) 0.2460(3) 0.91678(14)
H28 H 0.1485 0.2881 0.9406
C28 C 0.10507(6) 0.3128(3) 0.89491(14)
C29 C 0.08017(5) 0.2475(3) 0.86039(13)
H29 H 0.0623 0.2908 0.8468
C30 C 0.08157(5) 0.1191(3) 0.84591(13)
C31 C 0.10823(6) 0.0547(3) 0.86745(14)
C32 C 0.13303(5) 0.1169(3) 0.90283(14)
C33 C 0.10372(6) 0.4540(3) 0.90714(14)
C34 C 0.05530(6) 0.0452(3) 0.80960(14)
C37 C 0.04503(7) 0.0398(3) 0.61835(17)
H31 H 0.0482 0.0921 0.6582
C38 C 0.05946(8) 0.0607(4) 0.56192(19)
H32 H 0.0728 0.1282 0.5638
H33 H 0.0648 0.0003 0.4648
C48 C 0.14400(8) 0.9783(3) 0.70014(18)
H48 H 0.1534 0.9231 0.7382
N12 N 0.13590(5) 0.6633(2) 0.81588(12)
C49 C 0.14851(7) 0.6239(3) 0.70764(16)
N14 N 0.12575(5) 0.7125(2) 0.70060(12)
C50 C 0.15418(6) 0.5907(3) 0.77960(15)
C51 C 0.17487(7) 0.4963(3) 0.80326(17)
H49 H 0.1783 0.4699 0.8505
C52 C 0.19023(8) 0.4430(4) 0.75414(19)
H50 H 0.2042 0.3798 0.7687
C53 C 0.18517(8) 0.4819(4) 0.6835(2)
H51 H 0.1965 0.4462 0.6524
O14 O 0.15627(4) 0.89650(18) 0.91921(11)
C54 C 0.16407(8) 0.5710(3) 0.65829(18)
H52 H 0.1604 0.5949 0.6107
C55 C 0.11961(6) 0.7314(3) 0.76641(15)
H53 H 0.1051 0.7878 0.7758
C56 C 0.11512(8) 0.7925(3) 0.63843(16)
H54 H 0.0957 0.8269 0.6422
H55 H 0.1129 0.7410 0.5957
C70 C 0.26018(6) 0.0835(3) 0.96957(16)
H67 H 0.2700 0.1105 0.9308
H68 H 0.2401 0.0564 0.9494
C88 C 0.13624(8) 0.8998(3) 0.63242(17)
H81 H 0.1274 0.9551 0.5939
H82 H 0.1545 0.8653 0.6203
Co7 Co 0.360870(7) 0.80255(3) 0.072670(18)
N15 N 0.31518(4) 0.8517(2) 0.05024(12)
N17 N 0.27660(5) 0.9761(2) 0.00662(13)
C63 C 0.26635(6) 0.8927(3) 0.05311(16)
C64 C 0.29054(6) 0.8149(3) 0.08038(15)
C65 C 0.28752(6) 0.7236(3) 0.13037(16)
H62 H 0.3035 0.6719 0.1495
C66 C 0.26022(7) 0.7113(3) 0.15098(19)
H63 H 0.2577 0.6502 0.1846
C67 C 0.23621(7) 0.7886(3) 0.1224(2)
H64 H 0.2180 0.7767 0.1372
C68 C 0.23855(6) 0.8809(3) 0.07360(19)
H65 H 0.2225 0.9329 0.0551
C69 C 0.30549(6) 0.9467(3) 0.00838(15)
Co1 Co 0.0000 0.98234(5) 0.7500
O3 O 0.05670(4) 0.9280(2) 0.80440(10)
N7 N 0.00752(5) 0.8951(2) 0.66121(13)
H30 H 0.1093 0.9684 0.8578
C35 C 0.02087(7) 0.8607(3) 0.55287(16)
C36 C 0.02555(6) 0.9378(3) 0.61373(15)
C39 C 0.05464(9) 0.9833(4) 0.5019(2)
C40 C 0.03534(8) 0.8830(4) 0.49623(19)
H34 H 0.0321 0.8319 0.4559
C43 C 0.00716(8) 0.5546(4) 0.5236(2)
H38 H 0.0114 0.5264 0.5727
H39 H 0.0259 0.5780 0.5095
Co3 Co -0.0000 0.01766(5) 0.2500
N20 N 0.00023(6) 0.2278(3) 0.43501(14)
H66 H 0.3176 0.9904 0.9820
C85 C 0.00716(6) 0.2028(3) 0.37093(17)
H76 H 0.0210 0.2499 0.3511
C86 C 0.01300(8) 0.3310(3) 0.4822(2)
H77 H 0.0165 0.3008 0.5309
H78 H 0.0321 0.3555 0.4702
N10 N 0.86279(5) 0.7280(2) 0.46475(12)
O9 O 0.87265(4) 0.50689(17) 0.56288(10)
N13 N 0.86410(5) 0.6633(2) 0.68412(12)
Co4 Co 0.860870(7) 0.69745(3) 0.572670(18)
O10 O 0.92048(4) 0.50883(19) 0.61354(13)
S2 S 0.833600(15) 0.02849(7) 0.57412(4)
O12 O 0.96830(4) 0.10810(18) 0.71489(10)
N16 N 0.81518(4) 0.6483(2) 0.55024(12)
O15 O 0.84373(4) 0.89650(18) 0.58079(11)
O16 O 0.81534(4) 0.0631(2) 0.62541(12)
O17 O 0.82106(4) 0.0625(2) 0.50198(11)
O18 O 0.90845(4) 0.75199(19) 0.59487(10)
H56 H 0.9192 0.6859 0.6041
H57 H 0.9129 0.7890 0.5584
C71 C 0.86827(6) 0.2460(3) 0.58322(14)
H69 H 0.8515 0.2881 0.5594
C72 C 0.89493(6) 0.3128(3) 0.60509(14)
C73 C 0.91983(5) 0.2475(3) 0.63961(13)
H70 H 0.9377 0.2908 0.6532
C74 C 0.91843(5) 0.1191(3) 0.65409(13)
C75 C 0.89177(6) 0.0547(3) 0.63255(14)
C76 C 0.86697(5) 0.1169(3) 0.59717(14)
C77 C 0.89628(6) 0.4540(3) 0.59286(14)
C78 C 0.94470(6) 0.0452(3) 0.69040(14)
Co1_2 Co 1.0000 0.98234(5) 0.7500
N8 N 0.99977(6) 0.7722(3) 0.56499(14)
C41 C 0.99284(6) 0.7972(3) 0.62907(17)
H35 H 0.9790 0.7501 0.6489
C42 C 0.98700(8) 0.6690(3) 0.5178(2)
H36 H 0.9835 0.6992 0.4691
H37 H 0.9679 0.6445 0.5298
Co3_2 Co 1.0000 0.01766(5) 0.2500
O11 O 0.94330(4) 0.9280(2) 0.69560(10)
N18 N 0.99248(5) 0.1049(2) 0.33879(13)
N19 N 0.99248(5) 0.8951(2) 0.83879(13)
H71 H 0.8907 0.9684 0.6422
C79 C 0.97913(7) 0.1393(3) 0.44713(16)
C80 C 0.97445(6) 0.0622(3) 0.38627(15)
C83 C 0.94536(9) 0.0167(4) 0.4981(2)
C84 C 0.96466(8) 0.1170(4) 0.50377(19)
H75 H 0.9679 0.1681 0.5441
C87 C 0.99284(8) 0.4454(4) 0.4764(2)
H79 H 0.9886 0.4736 0.4273
H80 H 0.9741 0.4220 0.4905
C81 C 0.95497(7) 0.9602(3) 0.38165(17)
H72 H 0.9518 0.9079 0.3418
C82 C 0.94054(8) 0.9393(4) 0.43808(19)
H73 H 0.9272 0.8718 0.4362
H74 H 0.9352 0.9997 0.5352
H36_2 H 0.0165 0.6992 0.0309
N18_2 N 0.00752(5) 0.1049(2) 0.16121(13)
C79_2 C 0.02087(7) 0.1393(3) 0.05287(16)
C80_2 C 0.02555(6) 0.0622(3) 0.11373(15)
C83_2 C 0.05464(9) 0.0167(4) 0.0019(2)
C87_2 C 0.00716(8) 0.4454(4) 0.0236(2)
H79_2 H 0.0114 0.4736 0.0727
H80_2 H 0.0259 0.4220 0.0095
N8_2 N 0.00023(6) 0.7722(3) 0.93501(14)
C41_2 C 0.00716(6) 0.7972(3) 0.87093(17)
H35_2 H 0.0210 0.7501 0.8511
C42_2 C 0.01300(8) 0.6690(3) 0.9822(2)
H37_2 H 0.0321 0.6445 0.9702
C84_2 C 0.03534(8) 0.1170(4) 0.99623(19)
H75_2 H 0.0321 0.1681 0.9559
C81_2 C 0.04503(7) 0.9602(3) 0.11835(17)
H72_2 H 0.0482 0.9079 0.1582
C82_2 C 0.05946(8) 0.9393(4) 0.06192(19)
H73_2 H 0.0728 0.8718 0.0638
Co9 Co 0.860870(7) 0.30255(3) 0.072670(18)
C4_2 C 0.85600(8) 0.0217(3) 0.29986(18)
H7_2 H 0.8466 0.0769 0.2618
N3_2 N 0.86410(5) 0.3367(2) 0.18412(12)
C5_2 C 0.85149(7) 0.3761(3) 0.29236(16)
N4_2 N 0.87425(5) 0.2875(2) 0.29940(12)
C6_2 C 0.84582(6) 0.4093(3) 0.22040(15)
C7_2 C 0.82513(7) 0.5037(3) 0.19674(17)
H8_2 H 0.8217 0.5301 0.1495
C8_2 C 0.80977(8) 0.5570(4) 0.24586(19)
H9_2 H 0.7958 0.6202 0.2313
C9_2 C 0.81483(8) 0.5181(4) 0.3165(2)
H10_2 H 0.8035 0.5538 0.3476
C10_2 C 0.83593(8) 0.4290(3) 0.34171(18)
H11_2 H 0.8396 0.4051 0.3893
C11_2 C 0.88039(6) 0.2686(3) 0.23359(15)
H12_2 H 0.8949 0.2122 0.2242
C12_2 C 0.88488(8) 0.2075(3) 0.36157(16)
H13_2 H 0.9043 0.1731 0.3578
H14_2 H 0.8871 0.2590 0.4043
C44_2 C 0.86376(8) 0.1002(3) 0.36758(17)
H40_2 H 0.8726 0.0449 0.4061
H41_2 H 0.8455 0.1347 0.3797
N9_2 N 0.86279(5) 0.2720(2) 0.96475(12)
C46_2 C 0.84498(6) 0.1904(3) 0.92608(15)
H44_2 H 0.8307 0.1429 0.9440
N11_2 N 0.84934(5) 0.1821(2) 0.85807(12)
C47_2 C 0.83554(7) 0.0898(3) 0.80512(17)
H45_2 H 0.8307 0.1310 0.7591
H46_2 H 0.8171 0.0594 0.8180
H47_2 H 0.8744 0.0099 0.7869
C57_2 C 0.87220(6) 0.2651(3) 0.85128(15)
C58_2 C 0.88058(6) 0.3215(3) 0.91820(14)
C59_2 C 0.90346(6) 0.4105(3) 0.92873(16)
H58_2 H 0.9097 0.4479 0.9730
C60_2 C 0.91662(7) 0.4414(4) 0.87122(18)
H59_2 H 0.9319 0.5011 0.8769
C61_2 C 0.90761(8) 0.3855(4) 0.80483(18)
H60_2 H 0.9169 0.4098 0.7672
C62_2 C 0.88556(7) 0.2961(3) 0.79355(17)
H61_2 H 0.8798 0.2579 0.7494
C1_2 C 0.75857(7) 0.3055(3) 0.51919(17)
H1_2 H 0.7489 0.3325 0.5581
H2_2 H 0.7786 0.2781 0.5392
C2_2 C 0.84498(6) 0.8096(3) 0.42608(15)
H3_2 H 0.8307 0.8571 0.4440
N2_2 N 0.84934(5) 0.8179(2) 0.35807(12)
C3_2 C 0.83554(7) 0.9102(3) 0.30512(17)
H4_2 H 0.8307 0.8690 0.2591
H5_2 H 0.8171 0.9406 0.3180
H6_2 H 0.8744 0.9901 0.2869
N6_2 N 0.77660(5) 0.5239(2) 0.50662(13)
C13_2 C 0.87220(6) 0.7349(3) 0.35128(15)
C14_2 C 0.88058(6) 0.6785(3) 0.41820(14)
C15_2 C 0.90346(6) 0.5895(3) 0.42873(16)
H17_2 H 0.9097 0.5521 0.4730
C16_2 C 0.91662(7) 0.5586(4) 0.37122(18)
H18_2 H 0.9319 0.4989 0.3769
C17_2 C 0.90761(8) 0.6145(4) 0.30483(18)
H19_2 H 0.9169 0.5902 0.2672
C18_2 C 0.88556(7) 0.7039(3) 0.29355(17)
H20_2 H 0.8798 0.7421 0.2494
C19_2 C 0.76635(6) 0.6073(3) 0.55311(16)
C20_2 C 0.79054(6) 0.6851(3) 0.58038(15)
C21_2 C 0.78752(6) 0.7764(3) 0.63037(16)
H21_2 H 0.8035 0.8281 0.6495
C22_2 C 0.76022(7) 0.7887(3) 0.65098(19)
H22_2 H 0.7577 0.8498 0.6846
C23_2 C 0.73621(7) 0.7114(3) 0.6224(2)
H23_2 H 0.7180 0.7233 0.6372
C24_2 C 0.73855(6) 0.6191(3) 0.57360(19)
H24_2 H 0.7225 0.5671 0.5551
C25_2 C 0.80549(6) 0.5533(3) 0.50838(15)
H25_2 H 0.8176 0.5096 0.4820
C26_2 C 0.76018(6) 0.4165(3) 0.46957(16)
H26_2 H 0.7700 0.3895 0.4308
H27_2 H 0.7401 0.4436 0.4494
C37_2 C 0.95497(7) 0.0398(3) 0.88165(17)
H31_2 H 0.9518 0.0921 0.8418
C38_2 C 0.94054(8) 0.0607(4) 0.93808(19)
H32_2 H 0.9272 0.1282 0.9362
C45_2 C 0.74143(7) 0.1945(3) 0.48081(17)
H42_2 H 0.7511 0.1675 0.4419
H43_2 H 0.7214 0.2219 0.4608
C48_2 C 0.85600(8) 0.9783(3) 0.79986(18)
H48_2 H 0.8466 0.9231 0.7618
C49_2 C 0.85149(7) 0.6239(3) 0.79236(16)
N14_2 N 0.87425(5) 0.7125(2) 0.79940(12)
C50_2 C 0.84582(6) 0.5907(3) 0.72040(15)
C51_2 C 0.82513(7) 0.4963(3) 0.69674(17)
H49_2 H 0.8217 0.4699 0.6495
C52_2 C 0.80977(8) 0.4430(4) 0.74586(19)
H50_2 H 0.7958 0.3798 0.7313
C53_2 C 0.81483(8) 0.4819(4) 0.8165(2)
H51_2 H 0.8035 0.4462 0.8476
C54_2 C 0.83593(8) 0.5710(3) 0.84171(18)
H52_2 H 0.8396 0.5949 0.8893
C55_2 C 0.88039(6) 0.7314(3) 0.73359(15)
H53_2 H 0.8949 0.7878 0.7242
C56_2 C 0.88488(8) 0.7925(3) 0.86157(16)
H54_2 H 0.9043 0.8269 0.8578
H55_2 H 0.8871 0.7410 0.9043
C70_2 C 0.73982(6) 0.0835(3) 0.53043(16)
H67_2 H 0.7300 0.1105 0.5692
H68_2 H 0.7599 0.0564 0.5506
C88_2 C 0.86376(8) 0.8998(3) 0.86758(17)
H81_2 H 0.8726 0.9551 0.9061
H82_2 H 0.8455 0.8653 0.8797
C40_2 C 0.96466(8) 0.8830(4) 0.00377(19)
H34_2 H 0.9679 0.8319 0.0441
N20_2 N 0.99977(6) 0.2278(3) 0.06499(14)
C85_2 C 0.99284(6) 0.2028(3) 0.12907(17)
H76_2 H 0.9790 0.2499 0.1489
C86_2 C 0.98700(8) 0.3310(3) 0.0178(2)
H78_2 H 0.9679 0.3555 0.0298
C35_2 C 0.97913(7) 0.8607(3) 0.94713(16)
C36_2 C 0.97445(6) 0.9378(3) 0.88627(15)
C39_2 C 0.94536(9) 0.9833(4) 0.9981(2)
C43_2 C 0.99284(8) 0.5546(4) 0.9764(2)
H38_2 H 0.9886 0.5264 0.9273
H39_2 H 0.9741 0.5780 0.9905
Co7_2 Co 0.639130(7) 0.80255(3) 0.427330(18)
N15_2 N 0.68482(4) 0.8517(2) 0.44976(12)
N17_2 N 0.72340(5) 0.9761(2) 0.49338(13)
C63_2 C 0.73365(6) 0.8927(3) 0.44689(16)
C64_2 C 0.70946(6) 0.8149(3) 0.41962(15)
C65_2 C 0.71248(6) 0.7236(3) 0.36963(16)
H62_2 H 0.6965 0.6719 0.3505
C66_2 C 0.73978(7) 0.7113(3) 0.34902(19)
H63_2 H 0.7423 0.6502 0.3154
C67_2 C 0.76379(7) 0.7886(3) 0.3776(2)
H64_2 H 0.7820 0.7767 0.3628
C68_2 C 0.76145(6) 0.8809(3) 0.42640(19)
H65_2 H 0.7775 0.9329 0.4449
C69_2 C 0.69451(6) 0.9467(3) 0.49162(15)
H66_2 H 0.6824 0.9904 0.5180
H77_2 H 0.9835 0.3008 0.9691
C7_3 C 0.67487(7) 0.0037(3) 0.30326(17)
H8_3 H 0.6783 0.0301 0.3505
C8_3 C 0.69023(8) 0.0570(4) 0.25414(19)
H9_3 H 0.7042 0.1202 0.2687
C9_3 C 0.68517(8) 0.0181(4) 0.1835(2)
H10_3 H 0.6965 0.0538 0.1524
H59_3 H 0.5681 0.0011 0.6231
N1_2 N 0.63721(5) 0.2280(2) 0.03525(12)
C2_3 C 0.65502(6) 0.3096(3) 0.07392(15)
H3_3 H 0.6693 0.3571 0.0560
N2_3 N 0.65066(5) 0.3179(2) 0.14193(12)
C3_3 C 0.66446(7) 0.4102(3) 0.19488(17)
H4_3 H 0.6693 0.3690 0.2409
H5_3 H 0.6829 0.4406 0.1820
C4_3 C 0.64400(8) 0.5217(3) 0.20014(18)
H6_3 H 0.6256 0.4901 0.2131
H7_3 H 0.6534 0.5769 0.2382
N3_3 N 0.63590(5) 0.8367(2) 0.31588(12)
C5_3 C 0.64851(7) 0.8761(3) 0.20764(16)
N4_3 N 0.62575(5) 0.7875(2) 0.20060(12)
C6_3 C 0.65418(6) 0.9093(3) 0.27960(15)
C10_3 C 0.66407(8) 0.9290(3) 0.15829(18)
H11_3 H 0.6604 0.9051 0.1107
C11_3 C 0.61961(6) 0.7686(3) 0.26641(15)
H12_3 H 0.6051 0.7122 0.2758
C12_3 C 0.61512(8) 0.7075(3) 0.13843(16)
H13_3 H 0.5957 0.6731 0.1422
H14_3 H 0.6129 0.7590 0.0957
C13_3 C 0.62780(6) 0.2349(3) 0.14872(15)
C14_3 C 0.61942(6) 0.1785(3) 0.08180(14)
C15_3 C 0.59654(6) 0.0895(3) 0.07127(16)
H17_3 H 0.5903 0.0521 0.0270
C16_3 C 0.58338(7) 0.0586(4) 0.12878(18)
C17_3 C 0.59239(8) 0.1145(4) 0.19517(18)
H19_3 H 0.5831 0.0902 0.2328
C18_3 C 0.61444(7) 0.2039(3) 0.20645(17)
H20_3 H 0.6202 0.2421 0.2506
H25_3 H 0.6824 0.0096 0.0180
C44_3 C 0.63624(8) 0.6002(3) 0.13242(17)
H40_3 H 0.6274 0.5449 0.0939
H41_3 H 0.6545 0.6347 0.1203
O1_2 O 0.62735(4) 0.00689(17) 0.93712(10)
Co2_2 Co 0.639130(7) 0.19745(3) 0.927330(18)
O2_2 O 0.57952(4) 0.00883(19) 0.88646(13)
N5_2 N 0.68482(4) 0.1483(2) 0.94976(12)
N6_3 N 0.72340(5) 0.0239(2) 0.99338(13)
O8_2 O 0.59155(4) 0.25199(19) 0.90513(10)
H15_2 H 0.5808 0.1859 0.8959
H16_2 H 0.5871 0.2890 0.9416
C19_3 C 0.73365(6) 0.1073(3) 0.94689(16)
C20_3 C 0.70946(6) 0.1851(3) 0.91962(15)
C21_3 C 0.71248(6) 0.2764(3) 0.86963(16)
H21_3 H 0.6965 0.3281 0.8505
C22_3 C 0.73978(7) 0.2887(3) 0.84902(19)
H22_3 H 0.7423 0.3498 0.8154
C23_3 C 0.76379(7) 0.2114(3) 0.8776(2)
H23_3 H 0.7820 0.2233 0.8628
C24_3 C 0.76145(6) 0.1191(3) 0.92640(19)
H24_3 H 0.7775 0.0671 0.9449
C25_3 C 0.69451(6) 0.0533(3) 0.99162(15)
N9_3 N 0.63721(5) 0.7720(2) 0.53525(12)
N10_2 N 0.36279(5) 0.2280(2) 0.46475(12)
C46_3 C 0.65502(6) 0.6904(3) 0.57392(15)
H44_3 H 0.6693 0.6429 0.5560
N11_3 N 0.65066(5) 0.6821(2) 0.64193(12)
C47_3 C 0.66446(7) 0.5898(3) 0.69488(17)
H45_3 H 0.6693 0.6310 0.7409
H46_3 H 0.6829 0.5594 0.6820
C48_3 C 0.64400(8) 0.4783(3) 0.70014(18)
H47_3 H 0.6256 0.5099 0.7131
H48_3 H 0.6534 0.4231 0.7382
O9_2 O 0.37265(4) 0.00689(17) 0.56288(10)
N12_2 N 0.63590(5) 0.1633(2) 0.81588(12)
N13_2 N 0.36410(5) 0.1633(2) 0.68412(12)
C49_3 C 0.64851(7) 0.1239(3) 0.70764(16)
Co4_2 Co 0.360870(7) 0.19745(3) 0.572670(18)
N14_3 N 0.62575(5) 0.2125(2) 0.70060(12)
O10_2 O 0.42048(4) 0.00883(19) 0.61354(13)
C50_3 C 0.65418(6) 0.0907(3) 0.77960(15)
N16_2 N 0.31518(4) 0.1483(2) 0.55024(12)
O14_2 O 0.65627(4) 0.39650(18) 0.91921(11)
O15_2 O 0.34373(4) 0.39650(18) 0.58079(11)
C54_3 C 0.66407(8) 0.0710(3) 0.65829(18)
H52_3 H 0.6604 0.0949 0.6107
C55_3 C 0.61961(6) 0.2314(3) 0.76641(15)
H53_3 H 0.6051 0.2878 0.7758
C56_3 C 0.61512(8) 0.2925(3) 0.63843(16)
H54_3 H 0.5957 0.3269 0.6422
H55_3 H 0.6129 0.2410 0.5957
O18_2 O 0.40845(4) 0.25199(19) 0.59487(10)
H56_2 H 0.4192 0.1859 0.6041
H57_2 H 0.4129 0.2890 0.5584
C57_3 C 0.62780(6) 0.7651(3) 0.64872(15)
C58_3 C 0.61942(6) 0.8215(3) 0.58180(14)
C59_3 C 0.59654(6) 0.9105(3) 0.57127(16)
H58_3 H 0.5903 0.9479 0.5270
C60_3 C 0.58338(7) 0.9414(4) 0.62878(18)
C61_3 C 0.59239(8) 0.8855(4) 0.69517(18)
H60_3 H 0.5831 0.9098 0.7328
C62_3 C 0.61444(7) 0.7961(3) 0.70645(17)
H61_3 H 0.6202 0.7579 0.7506
C88_3 C 0.63624(8) 0.3998(3) 0.63242(17)
H81_3 H 0.6274 0.4551 0.5939
H82_3 H 0.6545 0.3653 0.6203
H18_3 H 0.5681 0.9989 0.1231
C26_3 C 0.73982(6) 0.9165(3) 0.03043(16)
H26_3 H 0.7300 0.8895 0.0692
H27_3 H 0.7599 0.9436 0.0506
C45_3 C 0.75857(7) 0.6945(3) 0.01919(17)
H42_3 H 0.7489 0.6675 0.0581
H43_3 H 0.7786 0.7219 0.0392
N15_3 N 0.81518(4) 0.3517(2) 0.05024(12)
N17_3 N 0.77660(5) 0.4761(2) 0.00662(13)
C63_3 C 0.76635(6) 0.3927(3) 0.05311(16)
C64_3 C 0.79054(6) 0.3149(3) 0.08038(15)
C65_3 C 0.78752(6) 0.2236(3) 0.13037(16)
H62_3 H 0.8035 0.1719 0.1495
C66_3 C 0.76022(7) 0.2113(3) 0.15098(19)
H63_3 H 0.7577 0.1502 0.1846
C67_3 C 0.73621(7) 0.2886(3) 0.1224(2)
H64_3 H 0.7180 0.2767 0.1372
C68_3 C 0.73855(6) 0.3809(3) 0.07360(19)
H65_3 H 0.7225 0.4329 0.0551
C69_3 C 0.80549(6) 0.4467(3) 0.00838(15)
C1_3 C 0.74143(7) 0.8055(3) 0.98081(17)
H1_3 H 0.7511 0.8325 0.9419
H2_3 H 0.7214 0.7781 0.9608
Co1_3 Co 0.5000 0.48234(5) 0.7500
S1_2 S 0.666400(15) 0.52849(7) 0.92588(4)
O3_2 O 0.55670(4) 0.4280(2) 0.80440(10)
O4_2 O 0.53170(4) 0.60810(18) 0.78511(10)
O6_2 O 0.68466(4) 0.5631(2) 0.87459(12)
N7_2 N 0.50752(5) 0.3951(2) 0.66121(13)
O7_2 O 0.67894(4) 0.5625(2) 0.99802(11)
N8_3 N 0.49977(6) 0.2722(3) 0.56499(14)
C27_2 C 0.63173(6) 0.7460(3) 0.91678(14)
H28_2 H 0.6485 0.7881 0.9406
C28_2 C 0.60507(6) 0.8128(3) 0.89491(14)
C29_2 C 0.58017(5) 0.7475(3) 0.86039(13)
H29_2 H 0.5623 0.7908 0.8468
C30_2 C 0.58157(5) 0.6191(3) 0.84591(13)
C31_2 C 0.60823(6) 0.5547(3) 0.86745(14)
H30_2 H 0.6093 0.4684 0.8578
C32_2 C 0.63303(5) 0.6169(3) 0.90283(14)
C33_2 C 0.60372(6) 0.9540(3) 0.90714(14)
C34_2 C 0.55530(6) 0.5452(3) 0.80960(14)
C35_3 C 0.52087(7) 0.3607(3) 0.55287(16)
C36_3 C 0.52555(6) 0.4378(3) 0.61373(15)
C37_3 C 0.54503(7) 0.5398(3) 0.61835(17)
H31_3 H 0.5482 0.5921 0.6582
C38_3 C 0.55946(8) 0.5607(4) 0.56192(19)
H32_3 H 0.5728 0.6282 0.5638
C39_3 C 0.55464(9) 0.4833(4) 0.5019(2)
H33_2 H 0.5648 0.5003 0.4648
C40_3 C 0.53534(8) 0.3830(4) 0.49623(19)
H34_3 H 0.5321 0.3319 0.4559
C41_3 C 0.49284(6) 0.2972(3) 0.62907(17)
H35_3 H 0.4790 0.2501 0.6489
C42_3 C 0.48700(8) 0.1690(3) 0.5178(2)
H36_3 H 0.4835 0.1992 0.4691
H37_3 H 0.4679 0.1445 0.5298
C43_3 C 0.50716(8) 0.0546(4) 0.5236(2)
H38_3 H 0.5114 0.0264 0.5727
H39_3 H 0.5259 0.0780 0.5095
S2_2 S 0.333600(15) 0.52849(7) 0.57412(4)
O11_2 O 0.44330(4) 0.4280(2) 0.69560(10)
C51_3 C 0.67487(7) 0.9963(3) 0.80326(17)
H49_3 H 0.6783 0.9699 0.8505
O12_2 O 0.46830(4) 0.60810(18) 0.71489(10)
C52_3 C 0.69023(8) 0.9430(4) 0.75414(19)
H50_3 H 0.7042 0.8798 0.7687
C53_3 C 0.68517(8) 0.9819(4) 0.6835(2)
H51_3 H 0.6965 0.9462 0.6524
O16_2 O 0.31534(4) 0.5631(2) 0.62541(12)
N19_2 N 0.49248(5) 0.3951(2) 0.83879(13)
O17_2 O 0.32106(4) 0.5625(2) 0.50198(11)
H66_3 H 0.8176 0.4904 0.9820
C70_3 C 0.76018(6) 0.5835(3) 0.96957(16)
H67_3 H 0.7700 0.6105 0.9308
H68_3 H 0.7401 0.5564 0.9494
C71_2 C 0.36827(6) 0.7460(3) 0.58322(14)
H69_2 H 0.3515 0.7881 0.5594
C72_2 C 0.39493(6) 0.8128(3) 0.60509(14)
C73_2 C 0.41983(5) 0.7475(3) 0.63961(13)
H70_2 H 0.4377 0.7908 0.6532
C74_2 C 0.41843(5) 0.6191(3) 0.65409(13)
C75_2 C 0.39177(6) 0.5547(3) 0.63255(14)
H71_2 H 0.3907 0.4684 0.6422
C76_2 C 0.36697(5) 0.6169(3) 0.59717(14)
C77_2 C 0.39628(6) 0.9540(3) 0.59286(14)
C78_2 C 0.44470(6) 0.5452(3) 0.69040(14)
Co3_3 Co 0.5000 0.51766(5) 0.2500
N18_3 N 0.49248(5) 0.6049(2) 0.33879(13)
N20_3 N 0.50023(6) 0.7278(3) 0.43501(14)
C79_3 C 0.47913(7) 0.6393(3) 0.44713(16)
C80_3 C 0.47445(6) 0.5622(3) 0.38627(15)
C81_3 C 0.45497(7) 0.4602(3) 0.38165(17)
H72_3 H 0.4518 0.4079 0.3418
C82_3 C 0.44054(8) 0.4393(4) 0.43808(19)
H73_3 H 0.4272 0.3718 0.4362
C83_3 C 0.44536(9) 0.5167(4) 0.4981(2)
H74_2 H 0.4352 0.4997 0.5352
C84_3 C 0.46466(8) 0.6170(4) 0.50377(19)
H75_3 H 0.4679 0.6681 0.5441
C85_3 C 0.50716(6) 0.7028(3) 0.37093(17)
H76_3 H 0.5210 0.7499 0.3511
C86_3 C 0.51300(8) 0.8310(3) 0.4822(2)
H77_3 H 0.5165 0.8008 0.5309
H78_3 H 0.5321 0.8555 0.4702
C87_3 C 0.49284(8) 0.9454(4) 0.4764(2)
H79_3 H 0.4886 0.9736 0.4273
H80_3 H 0.4741 0.9220 0.4905
C7_4 C 0.32513(7) 0.0037(3) 0.19674(17)
H8_4 H 0.3217 0.0301 0.1495
C8_4 C 0.30977(8) 0.0570(4) 0.24586(19)
H9_4 H 0.2958 0.1202 0.2313
C9_4 C 0.31483(8) 0.0181(4) 0.3165(2)
H10_4 H 0.3035 0.0538 0.3476
H59_4 H 0.4319 0.0011 0.8769
C2_4 C 0.34498(6) 0.3096(3) 0.42608(15)
H3_4 H 0.3307 0.3571 0.4440
N2_4 N 0.34934(5) 0.3179(2) 0.35807(12)
C3_4 C 0.33554(7) 0.4102(3) 0.30512(17)
H4_4 H 0.3307 0.3690 0.2591
H5_4 H 0.3171 0.4406 0.3180
C4_4 C 0.35600(8) 0.5217(3) 0.29986(18)
H6_4 H 0.3744 0.4901 0.2869
H7_4 H 0.3466 0.5769 0.2618
N3_4 N 0.36410(5) 0.8367(2) 0.18412(12)
C5_4 C 0.35149(7) 0.8761(3) 0.29236(16)
N4_4 N 0.37425(5) 0.7875(2) 0.29940(12)
C6_4 C 0.34582(6) 0.9093(3) 0.22040(15)
N6_4 N 0.27660(5) 0.0239(2) 0.50662(13)
C10_4 C 0.33593(8) 0.9290(3) 0.34171(18)
H11_4 H 0.3396 0.9051 0.3893
C11_4 C 0.38039(6) 0.7686(3) 0.23359(15)
H12_4 H 0.3949 0.7122 0.2242
C12_4 C 0.38488(8) 0.7075(3) 0.36157(16)
H13_4 H 0.4043 0.6731 0.3578
H14_4 H 0.3871 0.7590 0.4043
C13_4 C 0.37220(6) 0.2349(3) 0.35128(15)
C14_4 C 0.38058(6) 0.1785(3) 0.41820(14)
C15_4 C 0.40346(6) 0.0895(3) 0.42873(16)
H17_4 H 0.4097 0.0521 0.4730
C16_4 C 0.41662(7) 0.0586(4) 0.37122(18)
C17_4 C 0.40761(8) 0.1145(4) 0.30483(18)
H19_4 H 0.4169 0.0902 0.2672
C18_4 C 0.38556(7) 0.2039(3) 0.29355(17)
H20_4 H 0.3798 0.2421 0.2494
C19_4 C 0.26635(6) 0.1073(3) 0.55311(16)
C20_4 C 0.29054(6) 0.1851(3) 0.58038(15)
C21_4 C 0.28752(6) 0.2764(3) 0.63037(16)
H21_4 H 0.3035 0.3281 0.6495
C22_4 C 0.26022(7) 0.2887(3) 0.65098(19)
H22_4 H 0.2577 0.3498 0.6846
C23_4 C 0.23621(7) 0.2114(3) 0.6224(2)
H23_4 H 0.2180 0.2233 0.6372
C24_4 C 0.23855(6) 0.1191(3) 0.57360(19)
H24_4 H 0.2225 0.0671 0.5551
C25_4 C 0.30549(6) 0.0533(3) 0.50838(15)
H25_4 H 0.3176 0.0096 0.4820
C44_4 C 0.36376(8) 0.6002(3) 0.36758(17)
H40_4 H 0.3726 0.5449 0.4061
H41_4 H 0.3455 0.6347 0.3797
N9_4 N 0.36279(5) 0.7720(2) 0.96475(12)
C46_4 C 0.34498(6) 0.6904(3) 0.92608(15)
H44_4 H 0.3307 0.6429 0.9440
N11_4 N 0.34934(5) 0.6821(2) 0.85807(12)
C47_4 C 0.33554(7) 0.5898(3) 0.80512(17)
H45_4 H 0.3307 0.6310 0.7591
H46_4 H 0.3171 0.5594 0.8180
C48_4 C 0.35600(8) 0.4783(3) 0.79986(18)
H47_4 H 0.3744 0.5099 0.7869
H48_4 H 0.3466 0.4231 0.7618
C49_4 C 0.35149(7) 0.1239(3) 0.79236(16)
N14_4 N 0.37425(5) 0.2125(2) 0.79940(12)
C50_4 C 0.34582(6) 0.0907(3) 0.72040(15)
C54_4 C 0.33593(8) 0.0710(3) 0.84171(18)
H52_4 H 0.3396 0.0949 0.8893
C55_4 C 0.38039(6) 0.2314(3) 0.73359(15)
H53_4 H 0.3949 0.2878 0.7242
C56_4 C 0.38488(8) 0.2925(3) 0.86157(16)
H54_4 H 0.4043 0.3269 0.8578
H55_4 H 0.3871 0.2410 0.9043
C57_4 C 0.37220(6) 0.7651(3) 0.85128(15)
C58_4 C 0.38058(6) 0.8215(3) 0.91820(14)
C59_4 C 0.40346(6) 0.9105(3) 0.92873(16)
H58_4 H 0.4097 0.9479 0.9730
C60_4 C 0.41662(7) 0.9414(4) 0.87122(18)
C61_4 C 0.40761(8) 0.8855(4) 0.80483(18)
H60_4 H 0.4169 0.9098 0.7672
C62_4 C 0.38556(7) 0.7961(3) 0.79355(17)
H61_4 H 0.3798 0.7579 0.7494
C88_4 C 0.36376(8) 0.3998(3) 0.86758(17)
H81_4 H 0.3726 0.4551 0.9061
H82_4 H 0.3455 0.3653 0.8797
C1_4 C 0.25857(7) 0.8055(3) 0.51919(17)
H1_4 H 0.2489 0.8325 0.5581
H2_4 H 0.2786 0.7781 0.5392
N8_4 N 0.50023(6) 0.2722(3) 0.93501(14)
H18_4 H 0.4319 0.9989 0.3769
C26_4 C 0.26018(6) 0.9165(3) 0.46957(16)
H26_4 H 0.2700 0.8895 0.4308
H27_4 H 0.2401 0.9436 0.4494
C35_4 C 0.47913(7) 0.3607(3) 0.94713(16)
C36_4 C 0.47445(6) 0.4378(3) 0.88627(15)
C37_4 C 0.45497(7) 0.5398(3) 0.88165(17)
H31_4 H 0.4518 0.5921 0.8418
C38_4 C 0.44054(8) 0.5607(4) 0.93808(19)
H32_4 H 0.4272 0.6282 0.9362
C39_4 C 0.44536(9) 0.4833(4) 0.9981(2)
C41_4 C 0.50716(6) 0.2972(3) 0.87093(17)
H35_4 H 0.5210 0.2501 0.8511
C42_4 C 0.51300(8) 0.1690(3) 0.9822(2)
H37_4 H 0.5321 0.1445 0.9702
C43_4 C 0.49284(8) 0.0546(4) 0.9764(2)
H38_4 H 0.4886 0.0264 0.9273
H39_4 H 0.4741 0.0780 0.9905
C45_4 C 0.24143(7) 0.6945(3) 0.48081(17)
H42_4 H 0.2511 0.6675 0.4419
H43_4 H 0.2214 0.7219 0.4608
C51_4 C 0.32513(7) 0.9963(3) 0.69674(17)
H49_4 H 0.3217 0.9699 0.6495
C52_4 C 0.30977(8) 0.9430(4) 0.74586(19)
H50_4 H 0.2958 0.8798 0.7313
N15_4 N 0.18482(4) 0.3517(2) 0.44976(12)
C53_4 C 0.31483(8) 0.9819(4) 0.8165(2)
H51_4 H 0.3035 0.9462 0.8476
N17_4 N 0.22340(5) 0.4761(2) 0.49338(13)
C63_4 C 0.23365(6) 0.3927(3) 0.44689(16)
C64_4 C 0.20946(6) 0.3149(3) 0.41962(15)
C65_4 C 0.21248(6) 0.2236(3) 0.36963(16)
H62_4 H 0.1965 0.1719 0.3505
C66_4 C 0.23978(7) 0.2113(3) 0.34902(19)
H63_4 H 0.2423 0.1502 0.3154
C67_4 C 0.26379(7) 0.2886(3) 0.3776(2)
H64_4 H 0.2820 0.2767 0.3628
C68_4 C 0.26145(6) 0.3809(3) 0.42640(19)
H65_4 H 0.2775 0.4329 0.4449
C69_4 C 0.19451(6) 0.4467(3) 0.49162(15)
H66_4 H 0.1824 0.4904 0.5180
C70_4 C 0.23982(6) 0.5835(3) 0.53043(16)
H67_4 H 0.2300 0.6105 0.5692
H68_4 H 0.2599 0.5564 0.5506
N18_4 N 0.50752(5) 0.6049(2) 0.16121(13)
N20_4 N 0.49977(6) 0.7278(3) 0.06499(14)
C79_4 C 0.52087(7) 0.6393(3) 0.05287(16)
C80_4 C 0.52555(6) 0.5622(3) 0.11373(15)
C81_4 C 0.54503(7) 0.4602(3) 0.11835(17)
H72_4 H 0.5482 0.4079 0.1582
C82_4 C 0.55946(8) 0.4393(4) 0.06192(19)
H73_4 H 0.5728 0.3718 0.0638
C83_4 C 0.55464(9) 0.5167(4) 0.0019(2)
C85_4 C 0.49284(6) 0.7028(3) 0.12907(17)
H76_4 H 0.4790 0.7499 0.1489
C86_4 C 0.48700(8) 0.8310(3) 0.0178(2)
H78_4 H 0.4679 0.8555 0.0298
C87_4 C 0.50716(8) 0.9454(4) 0.0236(2)
H79_4 H 0.5114 0.9736 0.0727
H80_4 H 0.5259 0.9220 0.0095
O11_3 O 0.05670(4) 0.0720(2) 0.30440(10)
O13 O 0.15627(4) 0.10350(18) 0.41921(11)
H71_3 H 0.1093 0.0316 0.3578
O9_3 O 0.12735(4) 0.49311(17) 0.43712(10)
O10_3 O 0.07952(4) 0.49117(19) 0.38646(13)
S2_3 S 0.166400(15) 0.97151(7) 0.42588(4)
O12_3 O 0.03170(4) 0.89190(18) 0.28511(10)
O16_3 O 0.18466(4) 0.9369(2) 0.37459(12)
O17_3 O 0.17894(4) 0.9375(2) 0.49802(11)
O18_3 O 0.09155(4) 0.24801(19) 0.40513(10)
H56_3 H 0.0808 0.3141 0.3959
H57_3 H 0.0871 0.2110 0.4416
C71_3 C 0.13173(6) 0.7540(3) 0.41678(14)
H69_3 H 0.1485 0.7119 0.4406
C72_3 C 0.10507(6) 0.6872(3) 0.39491(14)
C73_3 C 0.08017(5) 0.7525(3) 0.36039(13)
H70_3 H 0.0623 0.7092 0.3468
C74_3 C 0.08157(5) 0.8809(3) 0.34591(13)
C75_3 C 0.10823(6) 0.9453(3) 0.36745(14)
C76_3 C 0.13303(5) 0.8831(3) 0.40283(14)
C77_3 C 0.10372(6) 0.5460(3) 0.40714(14)
C78_3 C 0.05530(6) 0.9548(3) 0.30960(14)
O3_3 O 0.94330(4) 0.0720(2) 0.19560(10)
O5 O 0.84373(4) 0.10350(18) 0.08079(11)
H30_3 H 0.8907 0.0316 0.1422
O1_3 O 0.87265(4) 0.49311(17) 0.06288(10)
O2_3 O 0.92048(4) 0.49117(19) 0.11354(13)
S1_3 S 0.833600(15) 0.97151(7) 0.07412(4)
O4_3 O 0.96830(4) 0.89190(18) 0.21489(10)
O6_3 O 0.81534(4) 0.9369(2) 0.12541(12)
O7_3 O 0.82106(4) 0.9375(2) 0.00198(11)
O8_3 O 0.90845(4) 0.24801(19) 0.09487(10)
H15_3 H 0.9192 0.3141 0.1041
H16_3 H 0.9129 0.2110 0.0584
C27_3 C 0.86827(6) 0.7540(3) 0.08322(14)
H28_3 H 0.8515 0.7119 0.0594
C28_3 C 0.89493(6) 0.6872(3) 0.10509(14)
C29_3 C 0.91983(5) 0.7525(3) 0.13961(13)
H29_3 H 0.9377 0.7092 0.1532
C30_3 C 0.91843(5) 0.8809(3) 0.15409(13)
C31_3 C 0.89177(6) 0.9453(3) 0.13255(14)
C32_3 C 0.86697(5) 0.8831(3) 0.09717(14)
C33_3 C 0.89628(6) 0.5460(3) 0.09286(14)
C34_3 C 0.94470(6) 0.9548(3) 0.19040(14)
S1_4 S 0.333600(15) 0.47151(7) 0.07412(4)
O3_4 O 0.44330(4) 0.5720(2) 0.19560(10)
O4_4 O 0.46830(4) 0.39190(18) 0.21489(10)
O5_2 O 0.34373(4) 0.60350(18) 0.08079(11)
O6_4 O 0.31534(4) 0.4369(2) 0.12541(12)
O7_4 O 0.32106(4) 0.4375(2) 0.00198(11)
C27_4 C 0.36827(6) 0.2540(3) 0.08322(14)
H28_4 H 0.3515 0.2119 0.0594
C28_4 C 0.39493(6) 0.1872(3) 0.10509(14)
C29_4 C 0.41983(5) 0.2525(3) 0.13961(13)
H29_4 H 0.4377 0.2092 0.1532
C30_4 C 0.41843(5) 0.3809(3) 0.15409(13)
C31_4 C 0.39177(6) 0.4453(3) 0.13255(14)
H30_4 H 0.3907 0.5316 0.1422
C32_4 C 0.36697(5) 0.3831(3) 0.09717(14)
C33_4 C 0.39628(6) 0.0460(3) 0.09286(14)
C34_4 C 0.44470(6) 0.4548(3) 0.19040(14)
S2_4 S 0.666400(15) 0.47151(7) 0.42588(4)
O11_4 O 0.55670(4) 0.5720(2) 0.30440(10)
O12_4 O 0.53170(4) 0.39190(18) 0.28511(10)
O13_2 O 0.65627(4) 0.60350(18) 0.41921(11)
O16_4 O 0.68466(4) 0.4369(2) 0.37459(12)
O17_4 O 0.67894(4) 0.4375(2) 0.49802(11)
C71_4 C 0.63173(6) 0.2540(3) 0.41678(14)
H69_4 H 0.6485 0.2119 0.4406
C72_4 C 0.60507(6) 0.1872(3) 0.39491(14)
C73_4 C 0.58017(5) 0.2525(3) 0.36039(13)
H70_4 H 0.5623 0.2092 0.3468
C74_4 C 0.58157(5) 0.3809(3) 0.34591(13)
C75_4 C 0.60823(6) 0.4453(3) 0.36745(14)
H71_4 H 0.6093 0.5316 0.3578
C76_4 C 0.63303(5) 0.3831(3) 0.40283(14)
C77_4 C 0.60372(6) 0.0460(3) 0.40714(14)
C78_4 C 0.55530(6) 0.4548(3) 0.30960(14)
O1_4 O 0.37265(4) 0.99311(17) 0.06288(10)
O2_4 O 0.42048(4) 0.99117(19) 0.11354(13)
O8_4 O 0.40845(4) 0.74801(19) 0.09487(10)
H15_4 H 0.4192 0.8141 0.1041
H16_4 H 0.4129 0.7110 0.0584
O9_4 O 0.62735(4) 0.99311(17) 0.43712(10)
O10_4 O 0.57952(4) 0.99117(19) 0.38646(13)
O18_4 O 0.59155(4) 0.74801(19) 0.40513(10)
H56_4 H 0.5808 0.8141 0.3959
H57_4 H 0.5871 0.7110 0.4416
H74_3 H 0.0648 0.9997 0.9648
H33_3 H 0.9352 0.0003 0.0352
H33_4 H 0.4352 0.5003 0.0352
C40_4 C 0.46466(8) 0.3830(4) 0.00377(19)
H34_4 H 0.4679 0.3319 0.0441
H36_4 H 0.5165 0.1992 0.0309
H74_4 H 0.5648 0.4997 0.9648
C84_4 C 0.53534(8) 0.6170(4) 0.99623(19)
H75_4 H 0.5321 0.6681 0.9559
H77_4 H 0.4835 0.8008 0.9691
loop_
_geom_bond_atom_site_label_1
_geom_bond_atom_site_label_2
_geom_bond_site_symmetry_1
_geom_bond_site_symmetry_2
H7 C4 1_555 1_555
N3 C6 1_555 1_555
C5 N4 1_555 1_555
N4 C11 1_555 1_555
C6 C5 1_555 1_555
C7 C6 1_555 1_555
H8 C7 1_555 1_555
C8 C7 1_555 1_555
H9 C8 1_555 1_555
C9 C8 1_555 1_555
H10 C9 1_555 1_555
C10 C5 1_555 1_555
H11 C10 1_555 1_555
C11 N3 1_555 1_555
H12 C11 1_555 1_555
C12 N4 1_555 1_555
H13 C12 1_555 1_555
H14 C12 1_555 1_555
C44 C4 1_555 1_555
H40 C44 1_555 1_555
H41 C44 1_555 1_555
Co5 N3 1_555 1_555
C9 C10 1_555 1_555
C12 C44 1_555 1_555
N9 C46 1_555 1_555
C46 H44 1_555 1_555
N11 C46 1_555 1_555
C47 N11 1_555 1_555
H45 C47 1_555 1_555
H46 C47 1_555 1_555
Co5 N9 1_555 1_555
C57 N11 1_555 1_555
C58 N9 1_555 1_555
C59 C58 1_555 1_555
H58 C59 1_555 1_555
C60 C59 1_555 1_555
H59 C60 1_555 1_555
C61 C60 1_555 1_555
H60 C61 1_555 1_555
C62 C57 1_555 1_555
H61 C62 1_555 1_555
C57 C58 1_555 1_555
C61 C62 1_555 1_555
N1 C2 1_555 1_555
C2 H3 1_555 1_555
N2 C2 1_555 1_555
C3 N2 1_555 1_555
H4 C3 1_555 1_555
H5 C3 1_555 1_555
C13 N2 1_555 1_555
C14 N1 1_555 1_555
C15 C14 1_555 1_555
H17 C15 1_555 1_555
C16 C15 1_555 1_555
H18 C16 1_555 1_555
C17 C16 1_555 1_555
H19 C17 1_555 1_555
C18 C13 1_555 1_555
H20 C18 1_555 1_555
H26 C26 1_555 1_555
H27 C26 1_555 1_555
H42 C45 1_555 1_555
H43 C45 1_555 1_555
C13 C14 1_555 1_555
C17 C18 1_555 1_555
C1 H1 1_555 1_555
H2 C1 1_555 1_555
O1 Co2 1_555 1_555
O2 C33 1_555 1_555
O4 C34 1_555 1_555
N5 Co2 1_555 1_555
N6 C19 1_555 1_555
O6 S1 1_555 1_555
O7 S1 1_555 1_555
O8 Co2 1_555 1_555
H15 O8 1_555 1_555
H16 O8 1_555 1_555
C19 C20 1_555 1_555
C20 N5 1_555 1_555
C21 C20 1_555 1_555
H21 C21 1_555 1_555
C22 C21 1_555 1_555
H22 C22 1_555 1_555
C23 C22 1_555 1_555
H23 C23 1_555 1_555
C24 C19 1_555 1_555
H24 C24 1_555 1_555
C25 N5 1_555 1_555
C27 H28 1_555 1_555
C28 C27 1_555 1_555
C29 C28 1_555 1_555
H29 C29 1_555 1_555
C30 C29 1_555 1_555
C31 C30 1_555 1_555
C32 S1 1_555 1_555
C33 O1 1_555 1_555
C34 C30 1_555 1_555
H31 C37 1_555 1_555
C38 C37 1_555 1_555
H32 C38 1_555 1_555
H48 C48 1_555 1_555
N12 Co2 1_555 1_555
C49 N14 1_555 1_555
N14 C55 1_555 1_555
C50 N12 1_555 1_555
C51 C50 1_555 1_555
H49 C51 1_555 1_555
C52 C51 1_555 1_555
H50 C52 1_555 1_555
C53 C52 1_555 1_555
H51 C53 1_555 1_555
O14 Co2 1_555 1_555
C54 C49 1_555 1_555
H52 C54 1_555 1_555
C55 N12 1_555 1_555
H53 C55 1_555 1_555
C56 N14 1_555 1_555
H54 C56 1_555 1_555
H55 C56 1_555 1_555
H67 C70 1_555 1_555
H68 C70 1_555 1_555
C88 C48 1_555 1_555
H81 C88 1_555 1_555
H82 C88 1_555 1_555
N6 C25 1_555 1_555
C23 C24 1_555 1_555
C27 C32 1_555 1_555
C28 C33 1_555 1_555
C31 C32 1_555 1_555
C49 C50 1_555 1_555
C53 C54 1_555 1_555
C56 C88 1_555 1_555
Co7 N15 1_555 1_555
N15 C64 1_555 1_555
N17 C63 1_555 1_555
C63 C64 1_555 1_555
C64 C65 1_555 1_555
C65 H62 1_555 1_555
C66 C65 1_555 1_555
H63 C66 1_555 1_555
C67 C66 1_555 1_555
H64 C67 1_555 1_555
C68 C63 1_555 1_555
H65 C68 1_555 1_555
C69 N15 1_555 1_555
N17 C69 1_555 1_555
C67 C68 1_555 1_555
N7 Co1 1_555 1_555
C35 C36 1_555 1_555
C36 N7 1_555 1_555
C40 C35 1_555 1_555
H34 C40 1_555 1_555
H38 C43 1_555 1_555
H39 C43 1_555 1_555
H76 C85 1_555 1_555
C86 N20 1_555 1_555
H77 C86 1_555 1_555
H78 C86 1_555 1_555
C39 C40 1_555 1_555
N20 C85 1_555 1_555
N10 Co4 1_555 1_555
O9 Co4 1_555 1_555
N13 Co4 1_555 1_555
Co4 N16 1_555 1_555
O10 C77 1_555 1_555
O15 Co4 1_555 1_555
O16 S2 1_555 1_555
O17 S2 1_555 1_555
O18 Co4 1_555 1_555
H56 O18 1_555 1_555
H57 O18 1_555 1_555
C71 H69 1_555 1_555
C72 C71 1_555 1_555
C73 C72 1_555 1_555
H70 C73 1_555 1_555
C74 C73 1_555 1_555
C75 C74 1_555 1_555
C76 S2 1_555 1_555
C77 O9 1_555 1_555
C78 O12 1_555 1_555
C71 C76 1_555 1_555
C72 C77 1_555 1_555
C74 C78 1_555 1_555
C75 C76 1_555 1_555
H35 C41 1_555 1_555
C42 N8 1_555 1_555
H36 C42 1_555 1_555
H37 C42 1_555 1_555
Co3_2 N18 1_555 1_555
N18 C80 1_555 1_555
N19 Co1_2 1_555 1_555
C79 C80 1_555 1_555
C84 C79 1_555 1_555
H75 C84 1_555 1_555
H79 C87 1_555 1_555
H80 C87 1_555 1_555
N8 C41 1_555 1_555
C83 C84 1_555 1_555
C81 H72 1_555 1_555
C82 C81 1_555 1_555
H73 C82 1_555 1_555
Co3 N18_2 1_555 1_555
N18_2 C80_2 1_555 1_555
C79_2 C80_2 1_555 1_555
H79_2 C87_2 1_555 1_555
H80_2 C87_2 1_555 1_555
H35_2 C41_2 1_555 1_555
C42_2 N8_2 1_555 1_555
H37_2 C42_2 1_555 1_555
H75_2 C84_2 1_555 1_555
N8_2 C41_2 1_555 1_555
C81_2 H72_2 1_555 1_555
C82_2 C81_2 1_555 1_555
H73_2 C82_2 1_555 1_555
H7_2 C4_2 1_555 1_555
N3_2 C6_2 1_555 1_555
C5_2 N4_2 1_555 1_555
N4_2 C11_2 1_555 1_555
C6_2 C5_2 1_555 1_555
C7_2 C6_2 1_555 1_555
H8_2 C7_2 1_555 1_555
C8_2 C7_2 1_555 1_555
H9_2 C8_2 1_555 1_555
C9_2 C8_2 1_555 1_555
H10_2 C9_2 1_555 1_555
C10_2 C5_2 1_555 1_555
H11_2 C10_2 1_555 1_555
C11_2 N3_2 1_555 1_555
H12_2 C11_2 1_555 1_555
C12_2 N4_2 1_555 1_555
H13_2 C12_2 1_555 1_555
H14_2 C12_2 1_555 1_555
C44_2 C4_2 1_555 1_555
H40_2 C44_2 1_555 1_555
H41_2 C44_2 1_555 1_555
N9_2 C46_2 1_555 1_555
C46_2 H44_2 1_555 1_555
N11_2 C46_2 1_555 1_555
C47_2 N11_2 1_555 1_555
H45_2 C47_2 1_555 1_555
H46_2 C47_2 1_555 1_555
Co9 N3_2 1_555 1_555
C57_2 N11_2 1_555 1_555
C58_2 N9_2 1_555 1_555
C59_2 C58_2 1_555 1_555
H58_2 C59_2 1_555 1_555
C60_2 C59_2 1_555 1_555
H59_2 C60_2 1_555 1_555
C61_2 C60_2 1_555 1_555
H60_2 C61_2 1_555 1_555
C62_2 C57_2 1_555 1_555
H61_2 C62_2 1_555 1_555
C9_2 C10_2 1_555 1_555
C12_2 C44_2 1_555 1_555
C57_2 C58_2 1_555 1_555
C61_2 C62_2 1_555 1_555
C1_2 H1_2 1_555 1_555
H2_2 C1_2 1_555 1_555
N10 C2_2 1_555 1_555
C2_2 H3_2 1_555 1_555
N2_2 C2_2 1_555 1_555
C3_2 N2_2 1_555 1_555
H4_2 C3_2 1_555 1_555
H5_2 C3_2 1_555 1_555
N6_2 C19_2 1_555 1_555
C13_2 N2_2 1_555 1_555
C14_2 N10 1_555 1_555
C15_2 C14_2 1_555 1_555
H17_2 C15_2 1_555 1_555
C16_2 C15_2 1_555 1_555
H18_2 C16_2 1_555 1_555
C17_2 C16_2 1_555 1_555
H19_2 C17_2 1_555 1_555
C18_2 C13_2 1_555 1_555
H20_2 C18_2 1_555 1_555
C19_2 C20_2 1_555 1_555
C20_2 N16 1_555 1_555
C21_2 C20_2 1_555 1_555
H21_2 C21_2 1_555 1_555
C22_2 C21_2 1_555 1_555
H22_2 C22_2 1_555 1_555
C23_2 C22_2 1_555 1_555
H23_2 C23_2 1_555 1_555
C24_2 C19_2 1_555 1_555
H24_2 C24_2 1_555 1_555
C25_2 N16 1_555 1_555
H25_2 C25_2 1_555 1_555
C26_2 C1_2 1_555 1_555
H26_2 C26_2 1_555 1_555
H27_2 C26_2 1_555 1_555
H31_2 C37_2 1_555 1_555
C38_2 C37_2 1_555 1_555
H32_2 C38_2 1_555 1_555
C45_2 C1_2 1_555 1_555
H42_2 C45_2 1_555 1_555
H43_2 C45_2 1_555 1_555
H48_2 C48_2 1_555 1_555
C49_2 N14_2 1_555 1_555
N14_2 C55_2 1_555 1_555
C50_2 N13 1_555 1_555
C51_2 C50_2 1_555 1_555
H49_2 C51_2 1_555 1_555
C52_2 C51_2 1_555 1_555
H50_2 C52_2 1_555 1_555
C53_2 C52_2 1_555 1_555
H51_2 C53_2 1_555 1_555
C54_2 C49_2 1_555 1_555
H52_2 C54_2 1_555 1_555
C55_2 N13 1_555 1_555
H53_2 C55_2 1_555 1_555
C56_2 N14_2 1_555 1_555
H54_2 C56_2 1_555 1_555
H55_2 C56_2 1_555 1_555
C70_2 C45_2 1_555 1_555
H67_2 C70_2 1_555 1_555
H68_2 C70_2 1_555 1_555
C88_2 C48_2 1_555 1_555
H81_2 C88_2 1_555 1_555
H82_2 C88_2 1_555 1_555
N6_2 C25_2 1_555 1_555
N6_2 C26_2 1_555 1_555
C13_2 C14_2 1_555 1_555
C17_2 C18_2 1_555 1_555
C23_2 C24_2 1_555 1_555
C49_2 C50_2 1_555 1_555
C53_2 C54_2 1_555 1_555
C56_2 C88_2 1_555 1_555
H34_2 C40_2 1_555 1_555
H76_2 C85_2 1_555 1_555
C86_2 N20_2 1_555 1_555
H78_2 C86_2 1_555 1_555
N20_2 C85_2 1_555 1_555
C35_2 C36_2 1_555 1_555
C36_2 N19 1_555 1_555
H38_2 C43_2 1_555 1_555
H39_2 C43_2 1_555 1_555
Co7_2 N15_2 1_555 1_555
N15_2 C64_2 1_555 1_555
N17_2 C63_2 1_555 1_555
C63_2 C64_2 1_555 1_555
C64_2 C65_2 1_555 1_555
C65_2 H62_2 1_555 1_555
C66_2 C65_2 1_555 1_555
H63_2 C66_2 1_555 1_555
C67_2 C66_2 1_555 1_555
H64_2 C67_2 1_555 1_555
C68_2 C63_2 1_555 1_555
H65_2 C68_2 1_555 1_555
C69_2 N15_2 1_555 1_555
H66_2 C69_2 1_555 1_555
N17_2 C69_2 1_555 1_555
C67_2 C68_2 1_555 1_555
H8_3 C7_3 1_555 1_555
C8_3 C7_3 1_555 1_555
H9_3 C8_3 1_555 1_555
C9_3 C8_3 1_555 1_555
H10_3 C9_3 1_555 1_555
N1_2 C2_3 1_555 1_555
C2_3 H3_3 1_555 1_555
N2_3 C2_3 1_555 1_555
C3_3 N2_3 1_555 1_555
H4_3 C3_3 1_555 1_555
H5_3 C3_3 1_555 1_555
C4_3 C3_3 1_555 1_555
H6_3 C4_3 1_555 1_555
H7_3 C4_3 1_555 1_555
N3_3 C6_3 1_555 1_555
C5_3 N4_3 1_555 1_555
N4_3 C11_3 1_555 1_555
C6_3 C5_3 1_555 1_555
C10_3 C5_3 1_555 1_555
H11_3 C10_3 1_555 1_555
C11_3 N3_3 1_555 1_555
H12_3 C11_3 1_555 1_555
C12_3 N4_3 1_555 1_555
H13_3 C12_3 1_555 1_555
H14_3 C12_3 1_555 1_555
C13_3 N2_3 1_555 1_555
C14_3 N1_2 1_555 1_555
C15_3 C14_3 1_555 1_555
H17_3 C15_3 1_555 1_555
C16_3 C15_3 1_555 1_555
C17_3 C16_3 1_555 1_555
H19_3 C17_3 1_555 1_555
C18_3 C13_3 1_555 1_555
H20_3 C18_3 1_555 1_555
C44_3 C4_3 1_555 1_555
H40_3 C44_3 1_555 1_555
H41_3 C44_3 1_555 1_555
Co7_2 N3_3 1_555 1_555
C12_3 C44_3 1_555 1_555
C13_3 C14_3 1_555 1_555
C17_3 C18_3 1_555 1_555
O1_2 Co2_2 1_555 1_555
N5_2 Co2_2 1_555 1_555
N6_3 C19_3 1_555 1_555
O8_2 Co2_2 1_555 1_555
H15_2 O8_2 1_555 1_555
H16_2 O8_2 1_555 1_555
C19_3 C20_3 1_555 1_555
C20_3 N5_2 1_555 1_555
C21_3 C20_3 1_555 1_555
H21_3 C21_3 1_555 1_555
C22_3 C21_3 1_555 1_555
H22_3 C22_3 1_555 1_555
C23_3 C22_3 1_555 1_555
H23_3 C23_3 1_555 1_555
C24_3 C19_3 1_555 1_555
H24_3 C24_3 1_555 1_555
C25_3 N5_2 1_555 1_555
N9_3 C46_3 1_555 1_555
N10_2 Co4_2 1_555 1_555
C46_3 H44_3 1_555 1_555
N11_3 C46_3 1_555 1_555
C47_3 N11_3 1_555 1_555
H45_3 C47_3 1_555 1_555
H46_3 C47_3 1_555 1_555
C48_3 C47_3 1_555 1_555
H47_3 C48_3 1_555 1_555
H48_3 C48_3 1_555 1_555
O9_2 Co4_2 1_555 1_555
N12_2 Co2_2 1_555 1_555
N13_2 Co4_2 1_555 1_555
C49_3 N14_3 1_555 1_555
Co4_2 N16_2 1_555 1_555
Co7_2 N9_3 1_555 1_555
N14_3 C55_3 1_555 1_555
C50_3 N12_2 1_555 1_555
O14_2 Co2_2 1_555 1_555
O15_2 Co4_2 1_555 1_555
C54_3 C49_3 1_555 1_555
H52_3 C54_3 1_555 1_555
C55_3 N12_2 1_555 1_555
H53_3 C55_3 1_555 1_555
C56_3 N14_3 1_555 1_555
H54_3 C56_3 1_555 1_555
H55_3 C56_3 1_555 1_555
O18_2 Co4_2 1_555 1_555
H56_2 O18_2 1_555 1_555
H57_2 O18_2 1_555 1_555
C57_3 N11_3 1_555 1_555
C58_3 N9_3 1_555 1_555
C59_3 C58_3 1_555 1_555
H58_3 C59_3 1_555 1_555
C60_3 C59_3 1_555 1_555
C61_3 C60_3 1_555 1_555
H60_3 C61_3 1_555 1_555
C62_3 C57_3 1_555 1_555
H61_3 C62_3 1_555 1_555
C88_3 C48_3 1_555 1_555
H81_3 C88_3 1_555 1_555
H82_3 C88_3 1_555 1_555
N6_3 C25_3 1_555 1_555
C23_3 C24_3 1_555 1_555
C49_3 C50_3 1_555 1_555
C56_3 C88_3 1_555 1_555
C57_3 C58_3 1_555 1_555
C61_3 C62_3 1_555 1_555
H26_3 C26_3 1_555 1_555
H27_3 C26_3 1_555 1_555
H42_3 C45_3 1_555 1_555
H43_3 C45_3 1_555 1_555
Co9 N15_3 1_555 1_555
N15_3 C64_3 1_555 1_555
N17_3 C63_3 1_555 1_555
C63_3 C64_3 1_555 1_555
C64_3 C65_3 1_555 1_555
C65_3 H62_3 1_555 1_555
C66_3 C65_3 1_555 1_555
H63_3 C66_3 1_555 1_555
C67_3 C66_3 1_555 1_555
H64_3 C67_3 1_555 1_555
C68_3 C63_3 1_555 1_555
H65_3 C68_3 1_555 1_555
C69_3 N15_3 1_555 1_555
N17_3 C69_3 1_555 1_555
C67_3 C68_3 1_555 1_555
C1_3 H1_3 1_555 1_555
H2_3 C1_3 1_555 1_555
Co1_3 O4_2 1_555 1_555
S1_2 O14_2 1_555 1_555
O3_2 C34_2 1_555 1_555
O4_2 C34_2 1_555 1_555
O6_2 S1_2 1_555 1_555
N7_2 Co1_3 1_555 1_555
O7_2 S1_2 1_555 1_555
N8_3 C35_3 1_555 1_555
C27_2 H28_2 1_555 1_555
C28_2 C27_2 1_555 1_555
C29_2 C28_2 1_555 1_555
H29_2 C29_2 1_555 1_555
C30_2 C29_2 1_555 1_555
C31_2 C30_2 1_555 1_555
H30_2 C31_2 1_555 1_555
C32_2 S1_2 1_555 1_555
C34_2 C30_2 1_555 1_555
C35_3 C36_3 1_555 1_555
C36_3 N7_2 1_555 1_555
C37_3 C36_3 1_555 1_555
H31_3 C37_3 1_555 1_555
C38_3 C37_3 1_555 1_555
H32_3 C38_3 1_555 1_555
C39_3 C38_3 1_555 1_555
H33_2 C39_3 1_555 1_555
C40_3 C35_3 1_555 1_555
H34_3 C40_3 1_555 1_555
C41_3 N7_2 1_555 1_555
H35_3 C41_3 1_555 1_555
C42_3 N8_3 1_555 1_555
H36_3 C42_3 1_555 1_555
H37_3 C42_3 1_555 1_555
C43_3 C42_3 1_555 1_555
H38_3 C43_3 1_555 1_555
H39_3 C43_3 1_555 1_555
S2_2 O15_2 1_555 1_555
O11_2 C78_2 1_555 1_555
H49_3 C51_3 1_555 1_555
O12_2 Co1_3 1_555 1_555
C52_3 C51_3 1_555 1_555
H50_3 C52_3 1_555 1_555
C53_3 C52_3 1_555 1_555
H51_3 C53_3 1_555 1_555
O16_2 S2_2 1_555 1_555
N19_2 Co1_3 1_555 1_555
O17_2 S2_2 1_555 1_555
H67_3 C70_3 1_555 1_555
H68_3 C70_3 1_555 1_555
C71_2 H69_2 1_555 1_555
C72_2 C71_2 1_555 1_555
C73_2 C72_2 1_555 1_555
H70_2 C73_2 1_555 1_555
C74_2 C73_2 1_555 1_555
C75_2 C74_2 1_555 1_555
H71_2 C75_2 1_555 1_555
C76_2 S2_2 1_555 1_555
C78_2 O12_2 1_555 1_555
N8_3 C41_3 1_555 1_555
C27_2 C32_2 1_555 1_555
C28_2 C33_2 1_555 1_555
C31_2 C32_2 1_555 1_555
C39_3 C40_3 1_555 1_555
C71_2 C76_2 1_555 1_555
C72_2 C77_2 1_555 1_555
C74_2 C78_2 1_555 1_555
C75_2 C76_2 1_555 1_555
Co3_3 N18_3 1_555 1_555
N18_3 C80_3 1_555 1_555
N20_3 C79_3 1_555 1_555
C79_3 C80_3 1_555 1_555
C80_3 C81_3 1_555 1_555
C81_3 H72_3 1_555 1_555
C82_3 C81_3 1_555 1_555
H73_3 C82_3 1_555 1_555
C83_3 C82_3 1_555 1_555
H74_2 C83_3 1_555 1_555
C84_3 C79_3 1_555 1_555
H75_3 C84_3 1_555 1_555
C85_3 N18_3 1_555 1_555
H76_3 C85_3 1_555 1_555
C86_3 N20_3 1_555 1_555
H77_3 C86_3 1_555 1_555
H78_3 C86_3 1_555 1_555
H79_3 C87_3 1_555 1_555
H80_3 C87_3 1_555 1_555
N20_3 C85_3 1_555 1_555
C83_3 C84_3 1_555 1_555
C86_3 C87_3 1_555 1_555
H8_4 C7_4 1_555 1_555
C8_4 C7_4 1_555 1_555
H9_4 C8_4 1_555 1_555
C9_4 C8_4 1_555 1_555
H10_4 C9_4 1_555 1_555
N10_2 C2_4 1_555 1_555
C2_4 H3_4 1_555 1_555
N2_4 C2_4 1_555 1_555
C3_4 N2_4 1_555 1_555
H4_4 C3_4 1_555 1_555
H5_4 C3_4 1_555 1_555
C4_4 C3_4 1_555 1_555
H6_4 C4_4 1_555 1_555
H7_4 C4_4 1_555 1_555
N3_4 C6_4 1_555 1_555
C5_4 N4_4 1_555 1_555
N4_4 C11_4 1_555 1_555
C6_4 C5_4 1_555 1_555
N6_4 C19_4 1_555 1_555
C10_4 C5_4 1_555 1_555
H11_4 C10_4 1_555 1_555
C11_4 N3_4 1_555 1_555
H12_4 C11_4 1_555 1_555
C12_4 N4_4 1_555 1_555
H13_4 C12_4 1_555 1_555
H14_4 C12_4 1_555 1_555
C13_4 N2_4 1_555 1_555
C14_4 N10_2 1_555 1_555
C15_4 C14_4 1_555 1_555
H17_4 C15_4 1_555 1_555
C16_4 C15_4 1_555 1_555
C17_4 C16_4 1_555 1_555
H19_4 C17_4 1_555 1_555
C18_4 C13_4 1_555 1_555
H20_4 C18_4 1_555 1_555
C19_4 C20_4 1_555 1_555
C20_4 N16_2 1_555 1_555
C21_4 C20_4 1_555 1_555
H21_4 C21_4 1_555 1_555
C22_4 C21_4 1_555 1_555
H22_4 C22_4 1_555 1_555
C23_4 C22_4 1_555 1_555
H23_4 C23_4 1_555 1_555
C24_4 C19_4 1_555 1_555
H24_4 C24_4 1_555 1_555
C25_4 N16_2 1_555 1_555
H25_4 C25_4 1_555 1_555
C44_4 C4_4 1_555 1_555
H40_4 C44_4 1_555 1_555
H41_4 C44_4 1_555 1_555
N9_4 C46_4 1_555 1_555
C46_4 H44_4 1_555 1_555
N11_4 C46_4 1_555 1_555
C47_4 N11_4 1_555 1_555
H45_4 C47_4 1_555 1_555
H46_4 C47_4 1_555 1_555
C48_4 C47_4 1_555 1_555
H47_4 C48_4 1_555 1_555
H48_4 C48_4 1_555 1_555
C49_4 N14_4 1_555 1_555
Co7 N3_4 1_555 1_555
N14_4 C55_4 1_555 1_555
C50_4 N13_2 1_555 1_555
C54_4 C49_4 1_555 1_555
H52_4 C54_4 1_555 1_555
C55_4 N13_2 1_555 1_555
H53_4 C55_4 1_555 1_555
C56_4 N14_4 1_555 1_555
H54_4 C56_4 1_555 1_555
H55_4 C56_4 1_555 1_555
C57_4 N11_4 1_555 1_555
C58_4 N9_4 1_555 1_555
C59_4 C58_4 1_555 1_555
H58_4 C59_4 1_555 1_555
C60_4 C59_4 1_555 1_555
C61_4 C60_4 1_555 1_555
H60_4 C61_4 1_555 1_555
C62_4 C57_4 1_555 1_555
H61_4 C62_4 1_555 1_555
C88_4 C48_4 1_555 1_555
H81_4 C88_4 1_555 1_555
H82_4 C88_4 1_555 1_555
N6_4 C25_4 1_555 1_555
C12_4 C44_4 1_555 1_555
C13_4 C14_4 1_555 1_555
C17_4 C18_4 1_555 1_555
C23_4 C24_4 1_555 1_555
C49_4 C50_4 1_555 1_555
C56_4 C88_4 1_555 1_555
C57_4 C58_4 1_555 1_555
C61_4 C62_4 1_555 1_555
C1_4 H1_4 1_555 1_555
H2_4 C1_4 1_555 1_555
N8_4 C35_4 1_555 1_555
C26_4 C1_4 1_555 1_555
H26_4 C26_4 1_555 1_555
H27_4 C26_4 1_555 1_555
C35_4 C36_4 1_555 1_555
C36_4 N19_2 1_555 1_555
C37_4 C36_4 1_555 1_555
H31_4 C37_4 1_555 1_555
C38_4 C37_4 1_555 1_555
H32_4 C38_4 1_555 1_555
C39_4 C38_4 1_555 1_555
C41_4 N19_2 1_555 1_555
H35_4 C41_4 1_555 1_555
C42_4 N8_4 1_555 1_555
H37_4 C42_4 1_555 1_555
C43_4 C42_4 1_555 1_555
H38_4 C43_4 1_555 1_555
H39_4 C43_4 1_555 1_555
C45_4 C1_4 1_555 1_555
H42_4 C45_4 1_555 1_555
H43_4 C45_4 1_555 1_555
Co5 N15_4 1_555 1_555
H49_4 C51_4 1_555 1_555
C52_4 C51_4 1_555 1_555
H50_4 C52_4 1_555 1_555
N15_4 C64_4 1_555 1_555
C53_4 C52_4 1_555 1_555
H51_4 C53_4 1_555 1_555
N17_4 C63_4 1_555 1_555
C63_4 C64_4 1_555 1_555
C64_4 C65_4 1_555 1_555
C65_4 H62_4 1_555 1_555
C66_4 C65_4 1_555 1_555
H63_4 C66_4 1_555 1_555
C67_4 C66_4 1_555 1_555
H64_4 C67_4 1_555 1_555
C68_4 C63_4 1_555 1_555
H65_4 C68_4 1_555 1_555
C69_4 N15_4 1_555 1_555
H66_4 C69_4 1_555 1_555
C70_4 C45_4 1_555 1_555
H67_4 C70_4 1_555 1_555
H68_4 C70_4 1_555 1_555
N8_4 C41_4 1_555 1_555
N17_4 C69_4 1_555 1_555
N17_4 C70_4 1_555 1_555
C67_4 C68_4 1_555 1_555
Co3_3 N18_4 1_555 1_555
N18_4 C80_4 1_555 1_555
N20_4 C79_4 1_555 1_555
C79_4 C80_4 1_555 1_555
C80_4 C81_4 1_555 1_555
C81_4 H72_4 1_555 1_555
C82_4 C81_4 1_555 1_555
H73_4 C82_4 1_555 1_555
C83_4 C82_4 1_555 1_555
C85_4 N18_4 1_555 1_555
H76_4 C85_4 1_555 1_555
C86_4 N20_4 1_555 1_555
H78_4 C86_4 1_555 1_555
H79_4 C87_4 1_555 1_555
H80_4 C87_4 1_555 1_555
N20_4 C85_4 1_555 1_555
C86_4 C87_4 1_555 1_555
Co5 O13 1_555 1_555
O9_3 Co5 1_555 1_555
O10_3 C77_3 1_555 1_555
O16_3 S2_3 1_555 1_555
O17_3 S2_3 1_555 1_555
O18_3 Co5 1_555 1_555
H56_3 O18_3 1_555 1_555
H57_3 O18_3 1_555 1_555
C71_3 H69_3 1_555 1_555
C72_3 C71_3 1_555 1_555
C73_3 C72_3 1_555 1_555
H70_3 C73_3 1_555 1_555
C74_3 C73_3 1_555 1_555
C75_3 C74_3 1_555 1_555
C76_3 S2_3 1_555 1_555
C77_3 O9_3 1_555 1_555
C78_3 O12_3 1_555 1_555
C71_3 C76_3 1_555 1_555
C72_3 C77_3 1_555 1_555
C74_3 C78_3 1_555 1_555
C75_3 C76_3 1_555 1_555
O5 Co9 1_555 1_555
O1_3 Co9 1_555 1_555
O2_3 C33_3 1_555 1_555
O4_3 C34_3 1_555 1_555
O6_3 S1_3 1_555 1_555
O7_3 S1_3 1_555 1_555
O8_3 Co9 1_555 1_555
H15_3 O8_3 1_555 1_555
H16_3 O8_3 1_555 1_555
C27_3 H28_3 1_555 1_555
C28_3 C27_3 1_555 1_555
C29_3 C28_3 1_555 1_555
H29_3 C29_3 1_555 1_555
C30_3 C29_3 1_555 1_555
C31_3 C30_3 1_555 1_555
C32_3 S1_3 1_555 1_555
C33_3 O1_3 1_555 1_555
C34_3 C30_3 1_555 1_555
C27_3 C32_3 1_555 1_555
C28_3 C33_3 1_555 1_555
C31_3 C32_3 1_555 1_555
Co3_3 O4_4 1_555 1_555
S1_4 O5_2 1_555 1_555
O3_4 C34_4 1_555 1_555
O4_4 C34_4 1_555 1_555
O5_2 Co7 1_555 1_555
O6_4 S1_4 1_555 1_555
O7_4 S1_4 1_555 1_555
C27_4 H28_4 1_555 1_555
C28_4 C27_4 1_555 1_555
C29_4 C28_4 1_555 1_555
H29_4 C29_4 1_555 1_555
C30_4 C29_4 1_555 1_555
C31_4 C30_4 1_555 1_555
H30_4 C31_4 1_555 1_555
C32_4 S1_4 1_555 1_555
C34_4 C30_4 1_555 1_555
Co7_2 O13_2 1_555 1_555
S2_4 O13_2 1_555 1_555
O11_4 C78_4 1_555 1_555
O12_4 Co3_3 1_555 1_555
O16_4 S2_4 1_555 1_555
O17_4 S2_4 1_555 1_555
C71_4 H69_4 1_555 1_555
C72_4 C71_4 1_555 1_555
C73_4 C72_4 1_555 1_555
H70_4 C73_4 1_555 1_555
C74_4 C73_4 1_555 1_555
C75_4 C74_4 1_555 1_555
H71_4 C75_4 1_555 1_555
C76_4 S2_4 1_555 1_555
C78_4 O12_4 1_555 1_555
C27_4 C32_4 1_555 1_555
C28_4 C33_4 1_555 1_555
C31_4 C32_4 1_555 1_555
C71_4 C76_4 1_555 1_555
C72_4 C77_4 1_555 1_555
C74_4 C78_4 1_555 1_555
C75_4 C76_4 1_555 1_555
O1_4 Co7 1_555 1_555
O8_4 Co7 1_555 1_555
H15_4 O8_4 1_555 1_555
H16_4 O8_4 1_555 1_555
O9_4 Co7_2 1_555 1_555
O18_4 Co7_2 1_555 1_555
H56_4 O18_4 1_555 1_555
H57_4 O18_4 1_555 1_555
H34_4 C40_4 1_555 1_555
H75_4 C84_4 1_555 1_555

#END
