
###############################################################################
#
# This file contains modified crystal structure data generated from the
# MOF subset of the Cambridge Structural Database (CSD) v543 
# hosted by the Cambridge Crystallographic Data Centre (CCDC).
#
# This work is licensed under the Creative Commons
# Attribution-NonCommercial-ShareAlike 4.0 International License.
# To view a copy of this license, visit
# http://creativecommons.org/licenses/by-nc-sa/4.0/
# or send a letter to
# Creative Commons, PO Box 1866, Mountain View, CA 94042, USA.
#
# CIF created using the CSD Python API on 29 September 2022
# The structure has been converted into the P1 space group
# The structure has a 3D framework
# The original CSD entry PASFIA is in the monoclinic crystal system
# The framework has been calculated to contain at least 10.0% void space
# The void calculation uses a probe of radius 1.32A, grid spacing 0.4
#
###############################################################################

data_PASFIA
_chemical_formula_moiety         '(C48 H16 Cu18 N16 O28)n'
_symmetry_cell_setting           triclinic
_symmetry_space_group_name_H-M   'P 1'
_symmetry_Int_Tables_number      1
_space_group_name_Hall           'P 1'
loop_
_symmetry_equiv_pos_site_id
_symmetry_equiv_pos_as_xyz
1 x,y,z
_cell_length_a                   19.4082(4)
_cell_length_b                   12.5929(2)
_cell_length_c                   7.5885(2)
_cell_angle_alpha                90
_cell_angle_beta                 107.0340(10)
_cell_angle_gamma                90
_cell_volume                     1773.31
loop_
_atom_site_label
_atom_site_type_symbol
_atom_site_fract_x
_atom_site_fract_y
_atom_site_fract_z
Cu1 Cu 0.20534(5) 0.68383(6) 0.27775(13)
O1 O 0.1092(3) 0.6144(4) 0.0830(7)
O4 O 0.1002(3) 0.2410(5) 0.1733(9)
N1 N 0.2319(3) 0.5337(4) 0.3087(8)
N2 N 0.2619(3) 0.3180(4) 0.2998(8)
C1 C 0.2941(4) 0.4923(5) 0.4169(10)
H1 H 0.3272 0.5365 0.4971
C2 C 0.3093(4) 0.3857(6) 0.4106(10)
H2 H 0.3532 0.3598 0.4843
C3 C 0.1976(4) 0.3580(5) 0.2002(9)
C4 C 0.1835(3) 0.4669(5) 0.2013(8)
C5 C 0.1157(4) 0.5160(5) 0.0753(9)
C6 C 0.1441(3) 0.2749(5) 0.0943(9)
Cu6 Cu 0.29466(5) 0.18383(6) 0.22225(13)
Cu9 Cu 0.0000 0.37053(18) 0.2500
O8 O 0.1498(3) 0.7559(4) 0.4448(7)
N5 N 0.2381(3) 0.8180(4) 0.2002(8)
Cu2 Cu 0.0000 0.62947(18) 0.7500
Cu3 Cu 0.0000 0.30257(18) 0.7500
O2 O 0.0715(3) 0.4544(4) 0.9740(7)
O3 O 0.1498(3) 0.2441(4) 0.9448(7)
Cu5 Cu 0.20534(5) 0.31617(6) 0.77775(13)
O12 O 0.1002(3) 0.7590(5) 0.6733(9)
Cu9_2 Cu 1.0000 0.37053(18) 0.2500
Cu2_2 Cu 1.0000 0.62947(18) 0.7500
Cu3_2 Cu 1.0000 0.30257(18) 0.7500
Cu4 Cu 0.79466(5) 0.68383(6) 0.22225(13)
Cu7 Cu 0.79466(5) 0.31617(6) 0.72225(13)
Cu8 Cu 0.70534(5) 0.18383(6) 0.27775(13)
O5 O 0.8908(3) 0.6144(4) 0.4170(7)
O6 O 0.9285(3) 0.4544(4) 0.5260(7)
O7 O 0.8502(3) 0.2441(4) 0.5552(7)
O9 O 0.8502(3) 0.7559(4) 0.0552(7)
O10 O 0.8998(3) 0.2410(5) 0.3267(9)
O11 O 0.8998(3) 0.7590(5) 0.8267(9)
N3 N 0.7681(3) 0.5337(4) 0.1913(8)
N4 N 0.7381(3) 0.3180(4) 0.2002(8)
N6 N 0.7619(3) 0.8180(4) 0.2998(8)
C7 C 0.7059(4) 0.4923(5) 0.0831(10)
H3 H 0.6728 0.5365 0.0029
C8 C 0.6907(4) 0.3857(6) 0.0894(10)
H4 H 0.6468 0.3598 0.0157
C9 C 0.8024(4) 0.3580(5) 0.2998(9)
C10 C 0.8165(3) 0.4669(5) 0.2987(8)
C11 C 0.8843(4) 0.5160(5) 0.4247(9)
C12 C 0.8559(3) 0.2749(5) 0.4057(9)
O1_2 O 0.6092(3) 0.1144(4) 0.0830(7)
N1_2 N 0.7319(3) 0.0337(4) 0.3087(8)
H1_2 H 0.8272 0.0365 0.4971
C5_2 C 0.6157(4) 0.0160(5) 0.0753(9)
O8_2 O 0.6498(3) 0.2559(4) 0.4448(7)
Cu2_3 Cu 0.5000 0.12947(18) 0.7500
O5_2 O 0.3908(3) 0.1144(4) 0.4170(7)
O9_2 O 0.3502(3) 0.2559(4) 0.0552(7)
O11_2 O 0.3998(3) 0.2590(5) 0.8267(9)
O12_2 O 0.6002(3) 0.2590(5) 0.6733(9)
N3_2 N 0.2681(3) 0.0337(4) 0.1913(8)
H3_2 H 0.1728 0.0365 0.0029
C11_2 C 0.3843(4) 0.0160(5) 0.4247(9)
O4_2 O 0.6002(3) 0.7410(5) 0.1733(9)
C1_2 C 0.7941(4) 0.9923(5) 0.4169(10)
C2_2 C 0.8093(4) 0.8857(6) 0.4106(10)
H2_2 H 0.8532 0.8598 0.4843
C3_2 C 0.6976(4) 0.8580(5) 0.2002(9)
C4_2 C 0.6835(3) 0.9669(5) 0.2013(8)
C6_2 C 0.6441(3) 0.7749(5) 0.0943(9)
Cu9_3 Cu 0.5000 0.87053(18) 0.2500
Cu3_3 Cu 0.5000 0.80257(18) 0.7500
O2_2 O 0.5715(3) 0.9544(4) 0.9740(7)
O3_2 O 0.6498(3) 0.7441(4) 0.9448(7)
Cu5_2 Cu 0.70534(5) 0.81617(6) 0.77775(13)
Cu7_2 Cu 0.29466(5) 0.81617(6) 0.72225(13)
O6_2 O 0.4285(3) 0.9544(4) 0.5260(7)
O7_2 O 0.3502(3) 0.7441(4) 0.5552(7)
O10_2 O 0.3998(3) 0.7410(5) 0.3267(9)
C7_2 C 0.2059(4) 0.9923(5) 0.0831(10)
C8_2 C 0.1907(4) 0.8857(6) 0.0894(10)
H4_2 H 0.1468 0.8598 0.0157
C9_2 C 0.3024(4) 0.8580(5) 0.2998(9)
C10_2 C 0.3165(3) 0.9669(5) 0.2987(8)
C12_2 C 0.3559(3) 0.7749(5) 0.4057(9)
Cu3_4 Cu 0.0000 0.69743(18) 0.2500
O5_3 O 0.1092(3) 0.3856(4) 0.5830(7)
O6_3 O 0.0715(3) 0.5456(4) 0.4740(7)
N3_3 N 0.2319(3) 0.4663(4) 0.8087(8)
N4_2 N 0.2619(3) 0.6820(4) 0.7998(8)
N6_2 N 0.2381(3) 0.1820(4) 0.7002(8)
C7_3 C 0.2941(4) 0.5077(5) 0.9169(10)
H3_3 H 0.3272 0.4635 0.9971
C8_3 C 0.3093(4) 0.6143(6) 0.9106(10)
H4_3 H 0.3532 0.6402 0.9843
C9_3 C 0.1976(4) 0.6420(5) 0.7002(9)
C10_3 C 0.1835(3) 0.5331(5) 0.7013(8)
C11_3 C 0.1157(4) 0.4840(5) 0.5753(9)
C12_3 C 0.1441(3) 0.7251(5) 0.5943(9)
Cu3_5 Cu 1.0000 0.69743(18) 0.2500
O2_3 O 0.9285(3) 0.5456(4) 0.0260(7)
O1_3 O 0.8908(3) 0.3856(4) 0.9170(7)
N1_3 N 0.7681(3) 0.4663(4) 0.6913(8)
N2_2 N 0.7381(3) 0.6820(4) 0.7002(8)
C1_3 C 0.7059(4) 0.5077(5) 0.5831(10)
H1_3 H 0.6728 0.4635 0.5029
C2_3 C 0.6907(4) 0.6143(6) 0.5894(10)
H2_3 H 0.6468 0.6402 0.5157
C3_3 C 0.8024(4) 0.6420(5) 0.7998(9)
C4_3 C 0.8165(3) 0.5331(5) 0.7987(8)
C5_3 C 0.8843(4) 0.4840(5) 0.9247(9)
C6_3 C 0.8559(3) 0.7251(5) 0.9057(9)
N5_2 N 0.7619(3) 0.1820(4) 0.7998(8)
Cu3_6 Cu 0.5000 0.19743(18) 0.2500
O2_4 O 0.4285(3) 0.0456(4) 0.0260(7)
O6_4 O 0.5715(3) 0.0456(4) 0.4740(7)
C7_4 C 0.7941(4) 0.0077(5) 0.9169(10)
C8_4 C 0.8093(4) 0.1143(6) 0.9106(10)
H4_4 H 0.8532 0.1402 0.9843
C9_4 C 0.6976(4) 0.1420(5) 0.7002(9)
C10_4 C 0.6835(3) 0.0331(5) 0.7013(8)
C12_4 C 0.6441(3) 0.2251(5) 0.5943(9)
C1_4 C 0.2059(4) 0.0077(5) 0.5831(10)
C2_4 C 0.1907(4) 0.1143(6) 0.5894(10)
H2_4 H 0.1468 0.1402 0.5157
C3_4 C 0.3024(4) 0.1420(5) 0.7998(9)
C4_4 C 0.3165(3) 0.0331(5) 0.7987(8)
C6_4 C 0.3559(3) 0.2251(5) 0.9057(9)
O5_4 O 0.6092(3) 0.8856(4) 0.5830(7)
N3_4 N 0.7319(3) 0.9663(4) 0.8087(8)
H3_4 H 0.8272 0.9635 0.9971
C11_4 C 0.6157(4) 0.9840(5) 0.5753(9)
O1_4 O 0.3908(3) 0.8856(4) 0.9170(7)
N1_4 N 0.2681(3) 0.9663(4) 0.6913(8)
H1_4 H 0.1728 0.9635 0.5029
C5_4 C 0.3843(4) 0.9840(5) 0.9247(9)
loop_
_geom_bond_atom_site_label_1
_geom_bond_atom_site_label_2
_geom_bond_site_symmetry_1
_geom_bond_site_symmetry_2
Cu1 O1 1_555 1_555
O1 C5 1_555 1_555
O4 C6 1_555 1_555
N1 Cu1 1_555 1_555
N2 C2 1_555 1_555
C1 N1 1_555 1_555
H1 C1 1_555 1_555
C2 C1 1_555 1_555
H2 C2 1_555 1_555
C3 N2 1_555 1_555
C4 N1 1_555 1_555
C5 C4 1_555 1_555
C6 C3 1_555 1_555
Cu6 N2 1_555 1_555
Cu9 O4 1_555 1_555
O8 Cu1 1_555 1_555
N5 Cu1 1_555 1_555
C3 C4 1_555 1_555
Cu3 O2 1_555 1_555
Cu5 O3 1_555 1_555
O12 Cu2 1_555 1_555
Cu4 O5 1_555 1_555
Cu7 O7 1_555 1_555
Cu8 N4 1_555 1_555
Cu9_2 O10 1_555 1_555
O5 Cu2_2 1_555 1_555
O6 Cu3_2 1_555 1_555
O7 C12 1_555 1_555
O9 Cu4 1_555 1_555
O10 C12 1_555 1_555
O11 Cu2_2 1_555 1_555
N3 Cu4 1_555 1_555
N4 C8 1_555 1_555
N6 Cu4 1_555 1_555
C7 N3 1_555 1_555
H3 C7 1_555 1_555
C8 C7 1_555 1_555
H4 C8 1_555 1_555
C9 N4 1_555 1_555
C10 N3 1_555 1_555
C11 O5 1_555 1_555
C12 C9 1_555 1_555
O6 C11 1_555 1_555
C9 C10 1_555 1_555
C10 C11 1_555 1_555
Cu8 O1_2 1_555 1_555
O1_2 C5_2 1_555 1_555
N1_2 Cu8 1_555 1_555
O8_2 Cu8 1_555 1_555
Cu6 O5_2 1_555 1_555
O5_2 Cu2_3 1_555 1_555
O9_2 Cu6 1_555 1_555
O11_2 Cu2_3 1_555 1_555
O12_2 Cu2_3 1_555 1_555
N3_2 Cu6 1_555 1_555
C11_2 O5_2 1_555 1_555
O4_2 C6_2 1_555 1_555
N6 C2_2 1_555 1_555
C2_2 C1_2 1_555 1_555
H2_2 C2_2 1_555 1_555
C3_2 N6 1_555 1_555
C6_2 C3_2 1_555 1_555
Cu9_3 O4_2 1_555 1_555
C3_2 C4_2 1_555 1_555
Cu3_3 O2_2 1_555 1_555
Cu5_2 O3_2 1_555 1_555
Cu7_2 O7_2 1_555 1_555
Cu9_3 O10_2 1_555 1_555
O6_2 Cu3_3 1_555 1_555
O7_2 C12_2 1_555 1_555
O10_2 C12_2 1_555 1_555
N5 C8_2 1_555 1_555
C8_2 C7_2 1_555 1_555
H4_2 C8_2 1_555 1_555
C9_2 N5 1_555 1_555
C12_2 C9_2 1_555 1_555
C9_2 C10_2 1_555 1_555
Cu5 O5_3 1_555 1_555
Cu7_2 N4_2 1_555 1_555
O5_3 Cu9 1_555 1_555
O6_3 Cu3_4 1_555 1_555
O8 C12_3 1_555 1_555
O12 C12_3 1_555 1_555
N3_3 Cu5 1_555 1_555
N4_2 C8_3 1_555 1_555
N6_2 Cu5 1_555 1_555
C7_3 N3_3 1_555 1_555
H3_3 C7_3 1_555 1_555
C8_3 C7_3 1_555 1_555
H4_3 C8_3 1_555 1_555
C9_3 N4_2 1_555 1_555
C10_3 N3_3 1_555 1_555
C11_3 O5_3 1_555 1_555
C12_3 C9_3 1_555 1_555
O6_3 C11_3 1_555 1_555
C9_3 C10_3 1_555 1_555
C10_3 C11_3 1_555 1_555
Cu3_5 O2_3 1_555 1_555
Cu7 O1_3 1_555 1_555
O1_3 C5_3 1_555 1_555
O11 C6_3 1_555 1_555
N1_3 Cu7 1_555 1_555
N2_2 C2_3 1_555 1_555
C1_3 N1_3 1_555 1_555
H1_3 C1_3 1_555 1_555
C2_3 C1_3 1_555 1_555
H2_3 C2_3 1_555 1_555
C3_3 N2_2 1_555 1_555
C4_3 N1_3 1_555 1_555
C5_3 C4_3 1_555 1_555
C6_3 C3_3 1_555 1_555
Cu5_2 N2_2 1_555 1_555
N5_2 Cu7 1_555 1_555
C3_3 C4_3 1_555 1_555
Cu3_6 O2_4 1_555 1_555
O6_4 Cu3_6 1_555 1_555
O8_2 C12_4 1_555 1_555
O12_2 C12_4 1_555 1_555
N5_2 C8_4 1_555 1_555
C8_4 C7_4 1_555 1_555
H4_4 C8_4 1_555 1_555
C9_4 N5_2 1_555 1_555
C12_4 C9_4 1_555 1_555
C9_4 C10_4 1_555 1_555
O11_2 C6_4 1_555 1_555
N6_2 C2_4 1_555 1_555
C2_4 C1_4 1_555 1_555
H2_4 C2_4 1_555 1_555
C3_4 N6_2 1_555 1_555
C6_4 C3_4 1_555 1_555
C3_4 C4_4 1_555 1_555
Cu5_2 O5_4 1_555 1_555
O5_4 Cu9_3 1_555 1_555
N3_4 Cu5_2 1_555 1_555
C11_4 O5_4 1_555 1_555
Cu7_2 O1_4 1_555 1_555
O1_4 C5_4 1_555 1_555
N1_4 Cu7_2 1_555 1_555

#END
