
###############################################################################
#
# This file contains modified crystal structure data generated from the
# MOF subset of the Cambridge Structural Database (CSD) v543 
# hosted by the Cambridge Crystallographic Data Centre (CCDC).
#
# This work is licensed under the Creative Commons
# Attribution-NonCommercial-ShareAlike 4.0 International License.
# To view a copy of this license, visit
# http://creativecommons.org/licenses/by-nc-sa/4.0/
# or send a letter to
# Creative Commons, PO Box 1866, Mountain View, CA 94042, USA.
#
# CIF created using the CSD Python API on 29 September 2022
# The structure has been converted into the P1 space group
# The structure has a 3D framework
# The original CSD entry PASJEA is in the triclinic crystal system
# The framework has been calculated to contain at least 10.0% void space
# The void calculation uses a probe of radius 1.32A, grid spacing 0.4
#
###############################################################################

data_PASJEA
_chemical_formula_moiety         '(C64 H46 Cu4 N10 O16)n'
_symmetry_cell_setting           triclinic
_symmetry_space_group_name_H-M   'P 1'
_symmetry_Int_Tables_number      1
_space_group_name_Hall           'P 1'
loop_
_symmetry_equiv_pos_site_id
_symmetry_equiv_pos_as_xyz
1 x,y,z
_cell_length_a                   7.778(4)
_cell_length_b                   13.275(7)
_cell_length_c                   16.678(8)
_cell_angle_alpha                81.622(10)
_cell_angle_beta                 86.283(12)
_cell_angle_gamma                88.301(14)
_cell_volume                     1699.74
loop_
_atom_site_label
_atom_site_type_symbol
_atom_site_fract_x
_atom_site_fract_y
_atom_site_fract_z
Cu4 Cu 0.11922(5) 0.23477(3) 0.22757(2)
O1 O 0.9173(4) 0.1014(3) 0.3965(2)
N1 N 0.3415(4) 0.3155(2) 0.20093(16)
C1 C 0.6817(4) 0.1986(3) 0.3397(2)
O2 O 0.9277(3) 0.1488(2) 0.26259(17)
C2 C 0.5985(4) 0.2343(2) 0.2689(2)
H1 H 0.6522 0.2253 0.2175
O3 O 0.4533(3) 0.12238(19) 0.07449(14)
N3 N 0.1841(4) 0.0596(2) 0.94888(17)
C3 C 0.4379(4) 0.2828(2) 0.27308(19)
O4 O 0.2281(3) 0.14042(18) 0.16022(15)
C4 C 0.3593(4) 0.2956(2) 0.35028(19)
O5 O 0.0317(4) 0.3691(2) 0.14164(17)
C5 C 0.4469(5) 0.2612(3) 0.4190(2)
H2 H 0.3957 0.2712 0.4706
O6 O 0.0740(5) 0.5367(2) 0.12895(18)
C6 C 0.6069(5) 0.2124(3) 0.4151(2)
H3 H 0.6640 0.1889 0.4631
O7 O 0.0631(3) 0.31435(18) 0.31653(15)
C7 C 0.8548(5) 0.1451(3) 0.3343(3)
O8 O 0.1441(3) 0.3848(2) 0.42073(14)
C8 C 0.1768(4) 0.3354(2) 0.36269(19)
C9 C 0.4143(5) 0.2816(3) 0.1244(2)
H4 H 0.5414 0.2864 0.1215
H5 H 0.3706 0.3272 0.0774
C10 C 0.3655(5) 0.1726(3) 0.1198(2)
C11 C 0.2940(5) 0.4263(2) 0.1858(2)
H6 H 0.3834 0.4627 0.1485
H7 H 0.2907 0.4545 0.2377
C12 C 0.1184(6) 0.4450(3) 0.1488(2)
C16 C 0.0181(5) 0.1664(3) 0.6540(2)
H11 H 0.0602 0.0982 0.6564
C17 C 0.0009(4) 0.2118(2) 0.7242(2)
C18 C 0.0558(4) 0.1592(2) 0.80309(19)
C19 C 0.0900(5) 0.2123(3) 0.8664(2)
H12 H 0.0706 0.2839 0.8611
C20 C 0.0815(5) 0.0529(3) 0.8175(2)
H13 H 0.0549 0.0125 0.7776
C21 C 0.1520(5) 0.1605(3) 0.9368(2)
H14 H 0.1731 0.1984 0.9792
C22 C 0.1450(5) 0.0076(3) 0.8894(2)
Cu6 Cu 0.29782(6) 0.99261(3) 0.04137(3)
H15 H 0.1621 0.9357 0.8973
N7 N 0.3701(4) 0.8820(2) 0.12010(17)
Cu2 Cu 0.87432(6) 0.39589(3) 0.46825(2)
N2 N 0.9105(4) 0.3163(2) 0.57214(17)
N4 N 0.7459(4) 0.4884(2) 0.39368(17)
C13 C 0.8918(5) 0.3603(3) 0.6409(2)
H8 H 0.8461 0.4279 0.6372
C14 C 0.9740(6) 0.2204(3) 0.5803(2)
H9 H 0.9895 0.1879 0.5331
C15 C 0.9354(4) 0.3124(3) 0.7152(2)
H10 H 0.9213 0.3473 0.7611
C23 C 0.6588(5) 0.5673(3) 0.4204(2)
H16 H 0.6530 0.5711 0.4770
C24 C 0.7488(5) 0.4839(3) 0.3137(2)
H17 H 0.8081 0.4282 0.2936
C25 C 0.5771(5) 0.6432(3) 0.3698(2)
H18 H 0.5176 0.6976 0.3916
C26 C 0.6697(4) 0.5564(3) 0.2590(2)
H19 H 0.6746 0.5496 0.2029
C27 C 0.5826(4) 0.6395(2) 0.28651(19)
C28 C 0.5044(4) 0.7232(2) 0.22980(19)
C29 C 0.4846(5) 0.8209(3) 0.2490(2)
H20 H 0.5163 0.8355 0.3001
C30 C 0.4539(4) 0.7064(3) 0.1538(2)
H21 H 0.4653 0.6405 0.1381
C31 C 0.4186(5) 0.8970(3) 0.1933(2)
H22 H 0.4068 0.9638 0.2075
C32 C 0.3871(5) 0.7867(3) 0.1018(2)
H23 H 0.3516 0.7739 0.0508
Cu2_2 Cu 0.12568(6) 0.60411(3) 0.53175(2)
N2_2 N 0.0895(4) 0.6837(2) 0.42786(17)
N4_2 N 0.2541(4) 0.5116(2) 0.60632(17)
N5 N 0.6299(4) 0.1180(2) 0.87990(17)
C13_2 C 0.1082(5) 0.6397(3) 0.3591(2)
H8_2 H 0.1539 0.5721 0.3628
C14_2 C 0.0260(6) 0.7796(3) 0.4197(2)
H9_2 H 0.0105 0.8121 0.4669
C15_2 C 0.0646(4) 0.6876(3) 0.2848(2)
H10_2 H 0.0787 0.6527 0.2389
C23_2 C 0.3412(5) 0.4327(3) 0.5796(2)
H16_2 H 0.3470 0.4289 0.5230
C24_2 C 0.2512(5) 0.5161(3) 0.6863(2)
H17_2 H 0.1919 0.5718 0.7064
C25_2 C 0.4229(5) 0.3568(3) 0.6302(2)
H18_2 H 0.4824 0.3024 0.6084
C26_2 C 0.3303(4) 0.4436(3) 0.7410(2)
H19_2 H 0.3254 0.4504 0.7971
C27_2 C 0.4174(4) 0.3605(2) 0.71349(19)
C28_2 C 0.4956(4) 0.2768(2) 0.77020(19)
C29_2 C 0.5154(5) 0.1791(3) 0.7510(2)
H20_2 H 0.4837 0.1645 0.6999
C30_2 C 0.5461(4) 0.2936(3) 0.8462(2)
H21_2 H 0.5347 0.3595 0.8619
C31_2 C 0.5814(5) 0.1030(3) 0.8067(2)
H22_2 H 0.5932 0.0362 0.7925
C32_2 C 0.6129(5) 0.2133(3) 0.8982(2)
H23_2 H 0.6484 0.2261 0.9492
O9 O 0.0723(3) 0.8512(2) 0.73741(17)
Cu5 Cu 0.70218(6) 0.00739(3) 0.95863(3)
H15_2 H 0.8379 0.0643 0.1027
N6 N 0.8159(4) 0.9404(2) 0.05112(17)
Cu1 Cu 0.88078(5) 0.76523(3) 0.77243(2)
O1_2 O 0.0827(4) 0.8986(3) 0.6035(2)
N1_2 N 0.6585(4) 0.6845(2) 0.79907(16)
C1_2 C 0.3183(4) 0.8014(3) 0.6603(2)
C2_2 C 0.4015(4) 0.7657(2) 0.7311(2)
H1_2 H 0.3478 0.7747 0.7825
O3_2 O 0.5467(3) 0.87762(19) 0.92551(14)
C3_2 C 0.5621(4) 0.7172(2) 0.72692(19)
O4_2 O 0.7719(3) 0.85958(18) 0.83978(15)
C4_2 C 0.6407(4) 0.7044(2) 0.64972(19)
O5_2 O 0.9683(4) 0.6309(2) 0.85836(17)
C5_2 C 0.5531(5) 0.7388(3) 0.5810(2)
H2_2 H 0.6043 0.7288 0.5294
O6_2 O 0.9260(5) 0.4633(2) 0.87105(18)
C6_2 C 0.3931(5) 0.7876(3) 0.5849(2)
H3_2 H 0.3360 0.8111 0.5369
O7_2 O 0.9369(3) 0.68565(18) 0.68347(15)
C7_2 C 0.1452(5) 0.8549(3) 0.6657(3)
O8_2 O 0.8559(3) 0.6152(2) 0.57927(14)
C8_2 C 0.8232(4) 0.6646(2) 0.63731(19)
C9_2 C 0.5857(5) 0.7184(3) 0.8756(2)
H4_2 H 0.4586 0.7136 0.8785
H5_2 H 0.6294 0.6728 0.9226
C10_2 C 0.6345(5) 0.8274(3) 0.8802(2)
C11_2 C 0.7060(5) 0.5737(2) 0.8142(2)
H6_2 H 0.6166 0.5373 0.8515
H7_2 H 0.7093 0.5455 0.7623
C12_2 C 0.8816(6) 0.5550(3) 0.8512(2)
C16_2 C 0.9819(5) 0.8336(3) 0.3460(2)
H11_2 H 0.9398 0.9018 0.3436
C17_2 C 0.9991(4) 0.7882(2) 0.2758(2)
C18_2 C 0.9442(4) 0.8408(2) 0.19691(19)
C19_2 C 0.9100(5) 0.7877(3) 0.1336(2)
H12_2 H 0.9294 0.7161 0.1389
C20_2 C 0.9185(5) 0.9471(3) 0.1825(2)
H13_2 H 0.9451 0.9875 0.2224
C21_2 C 0.8480(5) 0.8395(3) 0.0632(2)
H14_2 H 0.8269 0.8016 0.0208
C22_2 C 0.8550(5) 0.9924(3) 0.1106(2)
loop_
_geom_bond_atom_site_label_1
_geom_bond_atom_site_label_2
_geom_bond_site_symmetry_1
_geom_bond_site_symmetry_2
Cu4 N1 1_555 1_555
O1 C7 1_555 1_555
N1 C3 1_555 1_555
C1 C2 1_555 1_555
O2 C7 1_555 1_555
C2 H1 1_555 1_555
O3 C10 1_555 1_555
N3 C21 1_555 1_555
C3 C2 1_555 1_555
O4 Cu4 1_555 1_555
C4 C3 1_555 1_555
O5 Cu4 1_555 1_555
C5 C4 1_555 1_555
H2 C5 1_555 1_555
O6 C12 1_555 1_555
C6 C1 1_555 1_555
H3 C6 1_555 1_555
O7 Cu4 1_555 1_555
C7 C1 1_555 1_555
C8 C4 1_555 1_555
C9 N1 1_555 1_555
H4 C9 1_555 1_555
H5 C9 1_555 1_555
C10 O4 1_555 1_555
C11 N1 1_555 1_555
H6 C11 1_555 1_555
H7 C11 1_555 1_555
C12 O5 1_555 1_555
H11 C16 1_555 1_555
C18 C17 1_555 1_555
C19 C18 1_555 1_555
H12 C19 1_555 1_555
C20 C18 1_555 1_555
H13 C20 1_555 1_555
C21 C19 1_555 1_555
H14 C21 1_555 1_555
C22 N3 1_555 1_555
C5 C6 1_555 1_555
O7 C8 1_555 1_555
O8 C8 1_555 1_555
C9 C10 1_555 1_555
C11 C12 1_555 1_555
C16 C17 1_555 1_555
C20 C22 1_555 1_555
N7 Cu6 1_555 1_555
Cu2 N2 1_555 1_555
N2 C13 1_555 1_555
N4 Cu2 1_555 1_555
N7 C31 1_555 1_555
C13 H8 1_555 1_555
C14 N2 1_555 1_555
H9 C14 1_555 1_555
C15 C13 1_555 1_555
H10 C15 1_555 1_555
C23 N4 1_555 1_555
H16 C23 1_555 1_555
C24 N4 1_555 1_555
H17 C24 1_555 1_555
C25 C23 1_555 1_555
H18 C25 1_555 1_555
C26 C24 1_555 1_555
H19 C26 1_555 1_555
C27 C25 1_555 1_555
C28 C27 1_555 1_555
C29 C28 1_555 1_555
H20 C29 1_555 1_555
C30 C28 1_555 1_555
H21 C30 1_555 1_555
C31 C29 1_555 1_555
H22 C31 1_555 1_555
C32 N7 1_555 1_555
H23 C32 1_555 1_555
C26 C27 1_555 1_555
C30 C32 1_555 1_555
Cu2_2 N2_2 1_555 1_555
N2_2 C13_2 1_555 1_555
N4_2 Cu2_2 1_555 1_555
N5 C31_2 1_555 1_555
C13_2 H8_2 1_555 1_555
C14_2 N2_2 1_555 1_555
H9_2 C14_2 1_555 1_555
C15_2 C13_2 1_555 1_555
H10_2 C15_2 1_555 1_555
C23_2 N4_2 1_555 1_555
H16_2 C23_2 1_555 1_555
C24_2 N4_2 1_555 1_555
H17_2 C24_2 1_555 1_555
C25_2 C23_2 1_555 1_555
H18_2 C25_2 1_555 1_555
C26_2 C24_2 1_555 1_555
H19_2 C26_2 1_555 1_555
C27_2 C25_2 1_555 1_555
C28_2 C27_2 1_555 1_555
C29_2 C28_2 1_555 1_555
H20_2 C29_2 1_555 1_555
C30_2 C28_2 1_555 1_555
H21_2 C30_2 1_555 1_555
C31_2 C29_2 1_555 1_555
H22_2 C31_2 1_555 1_555
C32_2 N5 1_555 1_555
H23_2 C32_2 1_555 1_555
Cu5 N5 1_555 1_555
C26_2 C27_2 1_555 1_555
C30_2 C32_2 1_555 1_555
Cu1 N1_2 1_555 1_555
O1_2 C7_2 1_555 1_555
N1_2 C3_2 1_555 1_555
C1_2 C2_2 1_555 1_555
O9 C7_2 1_555 1_555
C2_2 H1_2 1_555 1_555
O3_2 C10_2 1_555 1_555
N6 C21_2 1_555 1_555
C3_2 C2_2 1_555 1_555
O4_2 Cu1 1_555 1_555
C4_2 C3_2 1_555 1_555
O5_2 Cu1 1_555 1_555
C5_2 C4_2 1_555 1_555
H2_2 C5_2 1_555 1_555
O6_2 C12_2 1_555 1_555
C6_2 C1_2 1_555 1_555
H3_2 C6_2 1_555 1_555
O7_2 Cu1 1_555 1_555
C7_2 C1_2 1_555 1_555
C8_2 C4_2 1_555 1_555
C9_2 N1_2 1_555 1_555
H4_2 C9_2 1_555 1_555
H5_2 C9_2 1_555 1_555
C10_2 O4_2 1_555 1_555
C11_2 N1_2 1_555 1_555
H6_2 C11_2 1_555 1_555
H7_2 C11_2 1_555 1_555
C12_2 O5_2 1_555 1_555
H11_2 C16_2 1_555 1_555
C18_2 C17_2 1_555 1_555
C19_2 C18_2 1_555 1_555
H12_2 C19_2 1_555 1_555
C20_2 C18_2 1_555 1_555
H13_2 C20_2 1_555 1_555
C21_2 C19_2 1_555 1_555
H14_2 C21_2 1_555 1_555
C22_2 N6 1_555 1_555
C5_2 C6_2 1_555 1_555
O7_2 C8_2 1_555 1_555
O8_2 C8_2 1_555 1_555
C9_2 C10_2 1_555 1_555
C11_2 C12_2 1_555 1_555
C16_2 C17_2 1_555 1_555
C20_2 C22_2 1_555 1_555

#END
