
###############################################################################
#
# This file contains modified crystal structure data generated from the
# MOF subset of the Cambridge Structural Database (CSD) v543 
# hosted by the Cambridge Crystallographic Data Centre (CCDC).
#
# This work is licensed under the Creative Commons
# Attribution-NonCommercial-ShareAlike 4.0 International License.
# To view a copy of this license, visit
# http://creativecommons.org/licenses/by-nc-sa/4.0/
# or send a letter to
# Creative Commons, PO Box 1866, Mountain View, CA 94042, USA.
#
# CIF created using the CSD Python API on 29 September 2022
# The structure has been converted into the P1 space group
# The structure has a 3D framework
# The original CSD entry PASMUT is in the monoclinic crystal system
# The framework has been calculated to contain at least 10.0% void space
# The void calculation uses a probe of radius 1.32A, grid spacing 0.4
#
###############################################################################

data_PASMUT
_chemical_formula_moiety         '(C48 H86 O77 Zn12)n'
_symmetry_cell_setting           triclinic
_symmetry_space_group_name_H-M   'P 1'
_symmetry_Int_Tables_number      1
_space_group_name_Hall           'P 1'
loop_
_symmetry_equiv_pos_site_id
_symmetry_equiv_pos_as_xyz
1 x,y,z
_cell_length_a                   11.8113(10)
_cell_length_b                   16.3344(14)
_cell_length_c                   13.8479(12)
_cell_angle_alpha                90
_cell_angle_beta                 112.8510(10)
_cell_angle_gamma                90
_cell_volume                     2462
loop_
_atom_site_label
_atom_site_type_symbol
_atom_site_fract_x
_atom_site_fract_y
_atom_site_fract_z
Zn1 Zn 0.39669(3) 0.54738(2) 0.40022(3)
Zn2 Zn 0.25546(4) 0.54509(2) 0.71655(3)
Zn3 Zn 0.05188(3) 0.36869(2) 0.12724(3)
C1 C 0.2438(3) 0.46616(19) 0.5072(2)
C2 C 0.1669(3) 0.39501(19) 0.5189(2)
H1 H 0.1034 0.4193 0.5390
C3 C 0.2341(3) 0.33016(19) 0.6050(2)
H2 H 0.1668 0.2952 0.6054
C4 C 0.3171(3) 0.27011(19) 0.5775(2)
H3 H 0.3336 0.2255 0.6285
C5 C 0.2437(3) 0.23032(18) 0.4693(2)
H4 H 0.1762 0.2026 0.4805
C6 C 0.1764(3) 0.28973(19) 0.3788(2)
H5 H 0.1182 0.2563 0.3227
C7 C 0.0976(3) 0.34746(19) 0.4157(2)
H6 H 0.0492 0.3084 0.4376
C8 C 0.2942(3) 0.3589(2) 0.7187(3)
C9 C 0.4422(3) 0.30611(19) 0.5952(2)
C10 C 0.3071(3) 0.1606(2) 0.4366(2)
C11 C 0.2643(3) 0.32649(18) 0.3341(2)
O1 O 0.2658(2) 0.47163(13) 0.42608(16)
O2 O 0.2779(2) 0.52129(13) 0.57862(17)
O3 O 0.2559(2) 0.42397(14) 0.74600(18)
O4 O 0.3700(2) 0.31233(15) 0.78228(18)
O5 O 0.4579(2) 0.38218(13) 0.60547(17)
O6 O 0.5300(2) 0.25669(13) 0.60497(18)
O7 O 0.3821(2) 0.11459(13) 0.50508(17)
O8 O 0.2717(2) 0.14629(15) 0.34071(18)
O9 O 0.37710(19) 0.31732(14) 0.38602(17)
O10 O 0.2226(2) 0.36094(13) 0.24513(16)
O13 O 0.3401(2) 0.50621(14) 0.24766(17)
H7 H 0.2999 0.5421 0.2075
O14 O 0.2820(2) 0.65076(14) 0.36674(18)
H8 H 0.3237 0.6923 0.3749
O15 O 0.5183(2) 0.44109(13) 0.43693(17)
O16 O 0.2657(3) 0.67375(17) 0.6931(3)
H9 H 0.2076 0.6967 0.7001
O17 O 0.4547(2) 0.55277(19) 0.7885(2)
H10 H 0.4844 0.5257 0.7542
O18 O 0.2680(2) 0.5653(2) 0.8697(2)
H11 H 0.1996 0.5754 0.8687
O19 O 0.0677(2) 0.49656(14) 0.12748(19)
H12 H 0.0808 0.5111 0.0761
O20 O 0.1457(3) 0.36688(18) 0.0245(2)
H14 H 0.2992 0.4619 0.2385
H15 H 0.5822 0.4479 0.4235
H16 H 0.3259 0.6929 0.6815
H17 H 0.2461 0.6505 0.3000
H18 H 0.3287 0.5684 0.9273
H19 H 0.0437 0.5239 0.1676
H20 H 0.2231 0.3664 0.0470
H21 H 0.4889 0.5934 0.8258
H22 H 0.4789 0.3967 0.4185
Zn4 Zn 0.60331(3) 0.45262(2) 0.59978(3)
Zn6 Zn 0.55188(3) 0.13131(2) 0.62724(3)
O21 O 0.5421(2) 0.61782(13) 0.39453(17)
O22 O 0.0300(2) 0.24331(13) 0.10497(18)
O24 O 0.0684(2) 0.55954(15) 0.63623(17)
O25 O 0.4817(2) 0.55891(13) 0.56307(17)
H23 H 0.4178 0.5521 0.5765
H24 H 0.5211 0.6033 0.5815
C12 C 0.9971(3) 0.39632(19) 0.3314(2)
O11 O 0.9739(2) 0.38516(14) 0.23638(16)
O12 O 0.9316(2) 0.44046(15) 0.36377(17)
Zn5 Zn 0.74454(4) 0.45491(2) 0.28345(3)
O23 O 0.8821(2) 0.38541(13) 0.00508(17)
Zn1_2 Zn 0.10331(3) 0.04738(2) 0.09978(3)
O13_2 O 0.1599(2) 0.00621(14) 0.25234(17)
H7_2 H 0.2001 0.0421 0.2925
O14_2 O 0.2180(2) 0.15076(14) 0.13326(18)
H8_2 H 0.1763 0.1923 0.1251
H12_2 H 0.4192 0.0111 0.4239
H17_2 H 0.2539 0.1505 0.2000
H19_2 H 0.4563 0.0239 0.3324
Zn2_2 Zn 0.24454(4) 0.04509(2) 0.78345(3)
O2_2 O 0.2221(2) 0.02129(13) 0.92138(17)
O16_2 O 0.2343(3) 0.17375(17) 0.8069(3)
H9_2 H 0.2924 0.1967 0.7999
O17_2 O 0.0453(2) 0.05277(19) 0.7115(2)
H10_2 H 0.0156 0.0257 0.7458
O18_2 O 0.2320(2) 0.0653(2) 0.6303(2)
H11_2 H 0.3004 0.0754 0.6313
H16_2 H 0.1741 0.1929 0.8185
H18_2 H 0.1713 0.0684 0.5727
H21_2 H 0.0111 0.0934 0.6742
O24_2 O 0.4316(2) 0.05954(15) 0.86377(17)
O25_2 O 0.0183(2) 0.05891(13) 0.93693(17)
H23_2 H 0.0822 0.0521 0.9235
Zn3_2 Zn 0.44812(3) 0.86869(2) 0.37276(3)
C5_2 C 0.2563(3) 0.73032(18) 0.0307(2)
H4_2 H 0.3238 0.7026 0.0195
C6_2 C 0.3236(3) 0.78973(19) 0.1212(2)
H5_2 H 0.3818 0.7563 0.1773
C7_2 C 0.4024(3) 0.84746(19) 0.0843(2)
H6_2 H 0.4508 0.8084 0.0624
C10_2 C 0.1929(3) 0.6606(2) 0.0634(2)
C11_2 C 0.2357(3) 0.82649(18) 0.1659(2)
C12_2 C 0.5029(3) 0.89632(19) 0.1686(2)
O1_2 O 0.2342(2) 0.97163(13) 0.07392(16)
O8_2 O 0.2283(2) 0.64629(15) 0.15929(18)
O9_2 O 0.12290(19) 0.81732(14) 0.11398(17)
O10_2 O 0.2774(2) 0.86094(13) 0.25487(16)
O11_2 O 0.5261(2) 0.88516(14) 0.26362(16)
O12_2 O 0.5684(2) 0.94046(15) 0.13623(17)
O19_2 O 0.4323(2) 0.99656(14) 0.37252(19)
O20_2 O 0.3543(3) 0.86688(18) 0.4755(2)
H13 H 0.3857 0.8326 0.5214
H14_2 H 0.2008 0.9619 0.2615
H20_2 H 0.2769 0.8664 0.4530
H22_2 H 0.0211 0.8967 0.0815
Zn5_2 Zn 0.75546(4) 0.95491(2) 0.21655(3)
O22_2 O 0.4700(2) 0.74331(13) 0.39503(18)
O23_2 O 0.6179(2) 0.88541(13) 0.49492(17)
C1_2 C 0.2562(3) 0.96616(19) 0.9928(2)
C2_2 C 0.3331(3) 0.89501(19) 0.9811(2)
H1_2 H 0.3966 0.9193 0.9610
C3_2 C 0.2659(3) 0.83016(19) 0.8950(2)
H2_2 H 0.3332 0.7952 0.8946
C4_2 C 0.1829(3) 0.77011(19) 0.9225(2)
H3_2 H 0.1664 0.7255 0.8715
C8_2 C 0.2058(3) 0.8589(2) 0.7813(3)
C9_2 C 0.0578(3) 0.80611(19) 0.9048(2)
O3_2 O 0.2441(2) 0.92397(14) 0.75400(18)
O4_2 O 0.1300(2) 0.81233(15) 0.71772(18)
O5_2 O 0.0421(2) 0.88218(13) 0.89453(17)
O7_2 O 0.1179(2) 0.61459(13) 0.99492(17)
O21_2 O 0.9579(2) 0.11782(13) 0.10547(17)
H24_2 H 0.9789 0.1033 0.9185
O15_2 O 0.9817(2) 0.94109(13) 0.06307(17)
H15_2 H 0.9178 0.9479 0.0765
O6_2 O 0.9700(2) 0.75669(13) 0.89503(18)
Zn4_2 Zn 0.89669(3) 0.95262(2) 0.90022(3)
Zn6_2 Zn 0.94812(3) 0.63131(2) 0.87276(3)
C12_3 C 0.0029(3) 0.60368(19) 0.6686(2)
O11_3 O 0.0261(2) 0.61484(14) 0.76362(16)
C1_3 C 0.7562(3) 0.53384(19) 0.4928(2)
C2_3 C 0.8331(3) 0.60499(19) 0.4811(2)
H1_3 H 0.8966 0.5807 0.4610
C3_3 C 0.7659(3) 0.66984(19) 0.3950(2)
H2_3 H 0.8332 0.7048 0.3946
C4_3 C 0.6829(3) 0.72989(19) 0.4225(2)
H3_3 H 0.6664 0.7745 0.3715
C5_3 C 0.7563(3) 0.76968(18) 0.5307(2)
H4_3 H 0.8238 0.7974 0.5195
C6_3 C 0.8236(3) 0.71027(19) 0.6212(2)
H5_3 H 0.8818 0.7437 0.6773
C7_3 C 0.9024(3) 0.65254(19) 0.5843(2)
H6_3 H 0.9508 0.6916 0.5624
C8_3 C 0.7058(3) 0.6411(2) 0.2813(3)
C9_3 C 0.5578(3) 0.69389(19) 0.4048(2)
C10_3 C 0.6929(3) 0.8394(2) 0.5634(2)
C11_3 C 0.7357(3) 0.67351(18) 0.6659(2)
O1_3 O 0.7342(2) 0.52837(13) 0.57392(16)
O2_3 O 0.7221(2) 0.47871(13) 0.42138(17)
O3_3 O 0.7441(2) 0.57603(14) 0.25400(18)
O4_3 O 0.6300(2) 0.68767(15) 0.21772(18)
O8_3 O 0.7283(2) 0.85371(15) 0.65929(18)
O9_3 O 0.62290(19) 0.68268(14) 0.61398(17)
O10_3 O 0.7774(2) 0.63906(13) 0.75487(16)
O13_3 O 0.6599(2) 0.49379(14) 0.75234(17)
H7_3 H 0.7001 0.4579 0.7925
O14_3 O 0.7180(2) 0.34924(14) 0.63326(18)
H8_3 H 0.6763 0.3077 0.6251
O16_3 O 0.7343(3) 0.32625(17) 0.3069(3)
H9_3 H 0.7924 0.3033 0.2999
O17_3 O 0.5453(2) 0.44723(19) 0.2115(2)
H10_3 H 0.5156 0.4743 0.2458
O18_3 O 0.7320(2) 0.4347(2) 0.1303(2)
H11_3 H 0.8004 0.4246 0.1313
O19_3 O 0.9323(2) 0.50344(14) 0.87252(19)
H12_3 H 0.9192 0.4889 0.9239
O20_3 O 0.8543(3) 0.63312(18) 0.9755(2)
H14_3 H 0.7008 0.5381 0.7615
H16_3 H 0.6741 0.3071 0.3185
H17_3 H 0.7539 0.3495 0.7000
H18_3 H 0.6713 0.4316 0.0727
H19_3 H 0.9563 0.4761 0.8324
H20_3 H 0.7769 0.6336 0.9530
H21_3 H 0.5111 0.4066 0.1742
C1_4 C 0.7438(3) 0.03384(19) 0.0072(2)
C2_4 C 0.6669(3) 0.10499(19) 0.0189(2)
H1_4 H 0.6034 0.0807 0.0390
C3_4 C 0.7341(3) 0.16984(19) 0.1050(2)
H2_4 H 0.6668 0.2048 0.1054
C4_4 C 0.8171(3) 0.22989(19) 0.0775(2)
H3_4 H 0.8336 0.2745 0.1285
C8_4 C 0.7942(3) 0.1411(2) 0.2187(3)
C9_4 C 0.9422(3) 0.19389(19) 0.0952(2)
O3_4 O 0.7559(2) 0.07603(14) 0.24600(18)
O4_4 O 0.8700(2) 0.18767(15) 0.28228(18)
C5_4 C 0.7437(3) 0.26968(18) 0.9693(2)
H4_4 H 0.6762 0.2974 0.9805
C6_4 C 0.6764(3) 0.21027(19) 0.8788(2)
H5_4 H 0.6182 0.2437 0.8227
C7_4 C 0.5976(3) 0.15254(19) 0.9157(2)
H6_4 H 0.5492 0.1916 0.9376
C10_4 C 0.8071(3) 0.3394(2) 0.9366(2)
C11_4 C 0.7643(3) 0.17351(18) 0.8341(2)
C12_4 C 0.4971(3) 0.10368(19) 0.8314(2)
O1_4 O 0.7658(2) 0.02837(13) 0.92608(16)
O8_4 O 0.7717(2) 0.35371(15) 0.84071(18)
O9_4 O 0.87710(19) 0.18268(14) 0.88602(17)
O10_4 O 0.7226(2) 0.13906(13) 0.74513(16)
O11_4 O 0.4739(2) 0.11484(14) 0.73638(16)
O19_4 O 0.5677(2) 0.00344(14) 0.62748(19)
O20_4 O 0.6457(3) 0.13312(18) 0.5245(2)
H13_2 H 0.6143 0.1674 0.4786
H14_4 H 0.7992 0.0381 0.7385
H20_4 H 0.7231 0.1336 0.5470
O2_4 O 0.7779(2) 0.97871(13) 0.07862(17)
O16_4 O 0.7657(3) 0.82625(17) 0.1931(3)
H9_4 H 0.7076 0.8033 0.2001
O17_4 O 0.9547(2) 0.94723(19) 0.2885(2)
H10_4 H 0.9844 0.9743 0.2542
O18_4 O 0.7680(2) 0.9347(2) 0.3697(2)
H11_4 H 0.6996 0.9246 0.3687
H16_4 H 0.8259 0.8071 0.1815
H18_4 H 0.8287 0.9316 0.4273
H21_4 H 0.9889 0.9066 0.3258
O13_4 O 0.8401(2) 0.99379(14) 0.74766(17)
H7_4 H 0.7999 0.9579 0.7075
O14_4 O 0.7820(2) 0.84924(14) 0.86674(18)
H8_4 H 0.8237 0.8077 0.8749
H12_4 H 0.5808 0.9889 0.5761
H17_4 H 0.7461 0.8495 0.8000
H19_4 H 0.5437 0.9761 0.6676
H13_3 H 0.1143 0.3326 0.9786
H13_4 H 0.8857 0.6674 0.0214
loop_
_geom_bond_atom_site_label_1
_geom_bond_atom_site_label_2
_geom_bond_site_symmetry_1
_geom_bond_site_symmetry_2
Zn1 O1 1_555 1_555
Zn2 O2 1_555 1_555
Zn3 O10 1_555 1_555
C1 C2 1_555 1_555
C2 H1 1_555 1_555
C3 C2 1_555 1_555
H2 C3 1_555 1_555
C4 C3 1_555 1_555
H3 C4 1_555 1_555
C5 C4 1_555 1_555
H4 C5 1_555 1_555
C6 C5 1_555 1_555
H5 C6 1_555 1_555
C7 C2 1_555 1_555
H6 C7 1_555 1_555
C8 C3 1_555 1_555
C9 C4 1_555 1_555
C10 C5 1_555 1_555
C11 C6 1_555 1_555
O1 C1 1_555 1_555
O2 C1 1_555 1_555
O3 Zn2 1_555 1_555
O4 C8 1_555 1_555
O5 C9 1_555 1_555
O6 C9 1_555 1_555
O7 C10 1_555 1_555
O8 C10 1_555 1_555
O9 C11 1_555 1_555
O10 C11 1_555 1_555
O13 Zn1 1_555 1_555
H7 O13 1_555 1_555
O14 Zn1 1_555 1_555
H8 O14 1_555 1_555
O15 Zn1 1_555 1_555
O16 Zn2 1_555 1_555
H9 O16 1_555 1_555
O17 Zn2 1_555 1_555
H10 O17 1_555 1_555
O18 Zn2 1_555 1_555
H11 O18 1_555 1_555
O19 Zn3 1_555 1_555
H12 O19 1_555 1_555
O20 Zn3 1_555 1_555
H14 O13 1_555 1_555
H15 O15 1_555 1_555
H16 O16 1_555 1_555
H17 O14 1_555 1_555
H18 O18 1_555 1_555
H19 O19 1_555 1_555
H20 O20 1_555 1_555
H21 O17 1_555 1_555
H22 O15 1_555 1_555
Zn4 O5 1_555 1_555
Zn6 O6 1_555 1_555
O21 Zn1 1_555 1_555
O22 Zn3 1_555 1_555
O24 Zn2 1_555 1_555
O25 Zn1 1_555 1_555
H23 O25 1_555 1_555
H24 O25 1_555 1_555
C6 C7 1_555 1_555
C8 O3 1_555 1_555
O7 Zn6 1_555 1_555
O15 Zn4 1_555 1_555
Zn4 O25 1_555 1_555
O12 C12 1_555 1_555
Zn5 O12 1_555 1_555
C12 O11 1_555 1_555
O13_2 Zn1_2 1_555 1_555
H7_2 O13_2 1_555 1_555
O14_2 Zn1_2 1_555 1_555
H8_2 O14_2 1_555 1_555
H17_2 O14_2 1_555 1_555
Zn2_2 O2_2 1_555 1_555
O16_2 Zn2_2 1_555 1_555
H9_2 O16_2 1_555 1_555
O17_2 Zn2_2 1_555 1_555
H10_2 O17_2 1_555 1_555
O18_2 Zn2_2 1_555 1_555
H11_2 O18_2 1_555 1_555
H16_2 O16_2 1_555 1_555
H18_2 O18_2 1_555 1_555
H21_2 O17_2 1_555 1_555
O24_2 Zn2_2 1_555 1_555
H23_2 O25_2 1_555 1_555
Zn3_2 O10_2 1_555 1_555
H4_2 C5_2 1_555 1_555
C6_2 C5_2 1_555 1_555
H5_2 C6_2 1_555 1_555
H6_2 C7_2 1_555 1_555
C10_2 C5_2 1_555 1_555
C11_2 C6_2 1_555 1_555
C12_2 C7_2 1_555 1_555
O8_2 C10_2 1_555 1_555
O9_2 C11_2 1_555 1_555
O10_2 C11_2 1_555 1_555
O11_2 Zn3_2 1_555 1_555
O12_2 C12_2 1_555 1_555
O19_2 Zn3_2 1_555 1_555
O20_2 Zn3_2 1_555 1_555
H13 O20_2 1_555 1_555
H20_2 O20_2 1_555 1_555
Zn5_2 O12_2 1_555 1_555
O22_2 Zn3_2 1_555 1_555
O23_2 Zn3_2 1_555 1_555
C6_2 C7_2 1_555 1_555
C12_2 O11_2 1_555 1_555
C1_2 C2_2 1_555 1_555
C2_2 H1_2 1_555 1_555
C3_2 C2_2 1_555 1_555
H2_2 C3_2 1_555 1_555
C4_2 C3_2 1_555 1_555
H3_2 C4_2 1_555 1_555
C8_2 C3_2 1_555 1_555
C9_2 C4_2 1_555 1_555
O4_2 C8_2 1_555 1_555
O5_2 C9_2 1_555 1_555
C8_2 O3_2 1_555 1_555
H15_2 O15_2 1_555 1_555
Zn6_2 O6_2 1_555 1_555
O24 C12_3 1_555 1_555
C12_3 O11_3 1_555 1_555
Zn4 O1_3 1_555 1_555
Zn5 O2_3 1_555 1_555
Zn6_2 O10_3 1_555 1_555
C1_3 C2_3 1_555 1_555
C2_3 H1_3 1_555 1_555
C3_3 C2_3 1_555 1_555
H2_3 C3_3 1_555 1_555
C4_3 C3_3 1_555 1_555
H3_3 C4_3 1_555 1_555
C5_3 C4_3 1_555 1_555
H4_3 C5_3 1_555 1_555
C6_3 C5_3 1_555 1_555
H5_3 C6_3 1_555 1_555
C7_3 C2_3 1_555 1_555
H6_3 C7_3 1_555 1_555
C8_3 C3_3 1_555 1_555
C9_3 C4_3 1_555 1_555
C10_3 C5_3 1_555 1_555
C11_3 C6_3 1_555 1_555
O1_3 C1_3 1_555 1_555
O2_3 C1_3 1_555 1_555
O3_3 Zn5 1_555 1_555
O4_3 C8_3 1_555 1_555
O21 C9_3 1_555 1_555
O22_2 C9_3 1_555 1_555
O23_2 C10_3 1_555 1_555
O8_3 C10_3 1_555 1_555
O9_3 C11_3 1_555 1_555
O10_3 C11_3 1_555 1_555
O13_3 Zn4 1_555 1_555
H7_3 O13_3 1_555 1_555
O14_3 Zn4 1_555 1_555
H8_3 O14_3 1_555 1_555
O16_3 Zn5 1_555 1_555
H9_3 O16_3 1_555 1_555
O17_3 Zn5 1_555 1_555
H10_3 O17_3 1_555 1_555
O18_3 Zn5 1_555 1_555
H11_3 O18_3 1_555 1_555
O19_3 Zn6_2 1_555 1_555
H12_3 O19_3 1_555 1_555
O20_3 Zn6_2 1_555 1_555
H14_3 O13_3 1_555 1_555
H16_3 O16_3 1_555 1_555
H17_3 O14_3 1_555 1_555
H18_3 O18_3 1_555 1_555
H19_3 O19_3 1_555 1_555
H20_3 O20_3 1_555 1_555
H21_3 O17_3 1_555 1_555
C6_3 C7_3 1_555 1_555
C8_3 O3_3 1_555 1_555
C1_4 C2_4 1_555 1_555
C2_4 H1_4 1_555 1_555
C3_4 C2_4 1_555 1_555
H2_4 C3_4 1_555 1_555
C4_4 C3_4 1_555 1_555
H3_4 C4_4 1_555 1_555
C8_4 C3_4 1_555 1_555
C9_4 C4_4 1_555 1_555
O4_4 C8_4 1_555 1_555
O21_2 C9_4 1_555 1_555
C8_4 O3_4 1_555 1_555
Zn6 O10_4 1_555 1_555
H4_4 C5_4 1_555 1_555
C6_4 C5_4 1_555 1_555
H5_4 C6_4 1_555 1_555
H6_4 C7_4 1_555 1_555
C10_4 C5_4 1_555 1_555
C11_4 C6_4 1_555 1_555
C12_4 C7_4 1_555 1_555
O8_4 C10_4 1_555 1_555
O9_4 C11_4 1_555 1_555
O10_4 C11_4 1_555 1_555
O11_4 Zn6 1_555 1_555
O24_2 C12_4 1_555 1_555
O19_4 Zn6 1_555 1_555
O20_4 Zn6 1_555 1_555
H13_2 O20_4 1_555 1_555
H20_4 O20_4 1_555 1_555
C6_4 C7_4 1_555 1_555
C12_4 O11_4 1_555 1_555
Zn5_2 O2_4 1_555 1_555
O16_4 Zn5_2 1_555 1_555
H9_4 O16_4 1_555 1_555
O17_4 Zn5_2 1_555 1_555
H10_4 O17_4 1_555 1_555
O18_4 Zn5_2 1_555 1_555
H11_4 O18_4 1_555 1_555
H16_4 O16_4 1_555 1_555
H18_4 O18_4 1_555 1_555
H21_4 O17_4 1_555 1_555
O13_4 Zn4_2 1_555 1_555
H7_4 O13_4 1_555 1_555
O14_4 Zn4_2 1_555 1_555
H8_4 O14_4 1_555 1_555
H17_4 O14_4 1_555 1_555

#END
