
###############################################################################
#
# This file contains modified crystal structure data generated from the
# MOF subset of the Cambridge Structural Database (CSD) v543 
# hosted by the Cambridge Crystallographic Data Centre (CCDC).
#
# This work is licensed under the Creative Commons
# Attribution-NonCommercial-ShareAlike 4.0 International License.
# To view a copy of this license, visit
# http://creativecommons.org/licenses/by-nc-sa/4.0/
# or send a letter to
# Creative Commons, PO Box 1866, Mountain View, CA 94042, USA.
#
# CIF created using the CSD Python API on 29 September 2022
# The structure has been converted into the P1 space group
# The structure has a 3D framework
# The original CSD entry PASNAB is in the hexagonal crystal system
# The framework has been calculated to contain at least 10.0% void space
# The void calculation uses a probe of radius 1.32A, grid spacing 0.4
# The framework is charged, counterions have been retained in the structure
#
###############################################################################

data_PASNAB
_chemical_formula_moiety         '(C86 H42 Bi8 N10 O44 10-)n'
_symmetry_cell_setting           triclinic
_symmetry_space_group_name_H-M   'P 1'
_symmetry_Int_Tables_number      1
_space_group_name_Hall           'P 1'
loop_
_symmetry_equiv_pos_site_id
_symmetry_equiv_pos_as_xyz
1 x,y,z
_cell_length_a                   15.4088(5)
_cell_length_b                   15.4088(5)
_cell_length_c                   11.5700(4)
_cell_angle_alpha                90
_cell_angle_beta                 90
_cell_angle_gamma                120
_cell_volume                     2379.04
loop_
_atom_site_label
_atom_site_type_symbol
_atom_site_fract_x
_atom_site_fract_y
_atom_site_fract_z
Bi1 Bi 0.35895(8) -0.0000 0.0000
O1 O 0.2945(19) 0.110(2) 0.0000
C1 C 0.284(3) 0.284(3) 0.0000
H1 H 0.2236 0.2236 0.0000
C2 C 0.386(3) 0.198(3) 0.0000
C3 C 0.374(3) 0.287(4) 0.0000
C4 C 0.466(4) 0.377(3) 0.0000
H2 H 0.5249 0.3746 0.0000
O2 O 0.461(2) 0.191(2) 0.0000
N1 N 0.470(4) 0.470(4) 0.0000
O5 O 0.110(2) 0.2945(19) 0.0000
C9 C 0.198(3) 0.386(3) 0.0000
C10 C 0.287(4) 0.374(3) 0.0000
C11 C 0.377(3) 0.466(4) 0.0000
H5 H 0.3746 0.5249 0.0000
O6 O 0.191(2) 0.461(2) 0.0000
Bi3 Bi 0.64105(8) 0.64105(8) 0.0000
Bi4 Bi 0.0000 0.35895(8) 0.0000
N2 N 0.530(4) -0.000(6) 0.0000
O11 O 0.3049(9) -0.0000 0.2001(13)
O12 O 0.4532(11) -0.0000 0.2008(15)
Bi1_2 Bi 0.35895(8) -0.0000 1.0000
O1_2 O 0.2945(19) 0.110(2) 1.0000
C1_2 C 0.284(3) 0.284(3) 1.0000
H1_2 H 0.2236 0.2236 1.0000
C2_2 C 0.386(3) 0.198(3) 1.0000
C3_2 C 0.374(3) 0.287(4) 1.0000
C4_2 C 0.466(4) 0.377(3) 1.0000
H2_2 H 0.5249 0.3746 1.0000
O2_2 O 0.461(2) 0.191(2) 1.0000
N1_2 N 0.470(4) 0.470(4) 1.0000
C5 C 0.3799(12) -0.0000 0.6197(17)
C6 C 0.3789(11) -0.0000 0.7531(17)
O3 O 0.3049(9) -0.0000 0.7999(13)
O4 O 0.4532(11) 0.0000 0.7992(15)
C7 C 0.3000(13) -0.0000 0.5614(11)
H3 H 0.2480 -0.0000 0.6024
C8 C 0.4574(15) -0.0000 0.5603(11)
H4 H 0.5097 -0.0000 0.6005
O5_2 O 0.110(2) 0.2945(19) 1.0000
C9_2 C 0.198(3) 0.386(3) 1.0000
C10_2 C 0.287(4) 0.374(3) 1.0000
C11_2 C 0.377(3) 0.466(4) 1.0000
H5_2 H 0.3746 0.5249 1.0000
O6_2 O 0.191(2) 0.461(2) 1.0000
C12 C 0.3799(12) -0.0000 0.3803(17)
C13 C 0.3789(11) -0.0000 0.2469(17)
C14 C 0.3000(13) -0.0000 0.4386(11)
H6 H 0.2480 -0.0000 0.3976
C15 C 0.4574(15) -0.0000 0.4397(11)
H7 H 0.5097 -0.0000 0.3995
Bi3_2 Bi 0.64105(8) 0.64105(8) 1.0000
Bi4_2 Bi 0.0000 0.35895(8) 1.0000
N2_2 N 0.530(4) -0.000(6) 1.0000
Bi1_3 Bi 0.35895(8) 1.0000 0.0000
O9 O 0.1845(28) 0.890(2) 0.0000
O10 O 0.270(3) 0.809(2) 0.0000
N2_3 N 0.530(4) 1.000(6) 0.0000
O11_2 O 0.3049(9) 1.0000 0.2001(13)
O12_2 O 0.4532(11) 1.0000 0.2008(15)
Bi1_4 Bi 0.35895(8) 1.0000 1.0000
C5_2 C 0.3799(12) 1.0000 0.6197(17)
C6_2 C 0.3789(11) 1.0000 0.7531(17)
O3_2 O 0.3049(9) 1.0000 0.7999(13)
O4_2 O 0.4532(11) 1.0000 0.7992(15)
C7_2 C 0.3000(13) 1.0000 0.5614(11)
H3_2 H 0.2480 1.0000 0.6024
C8_2 C 0.4574(15) 1.0000 0.5603(11)
H4_2 H 0.5097 1.0000 0.6005
C12_2 C 0.3799(12) 1.0000 0.3803(17)
C13_2 C 0.3789(11) 1.0000 0.2469(17)
C14_2 C 0.3000(13) 1.0000 0.4386(11)
H6_2 H 0.2480 1.0000 0.3976
C15_2 C 0.4574(15) 1.0000 0.4397(11)
H7_2 H 0.5097 1.0000 0.3995
O9_2 O 0.1845(28) 0.890(2) 1.0000
O10_2 O 0.270(3) 0.809(2) 1.0000
N2_4 N 0.530(4) 1.000(6) 1.0000
Bi4_3 Bi 1.0000 0.35895(8) 0.0000
Bi4_4 Bi 1.0000 0.35895(8) 1.0000
C1_3 C 0.000(4) 0.716(3) -0.0000
H1_3 H 0.0000 0.7764 -0.0000
N1_3 N -0.000(6) 0.530(4) -0.0000
C9_3 C 0.188(4) 0.802(3) -0.0000
C10_3 C 0.087(5) 0.713(4) -0.0000
C11_3 C 0.089(5) 0.623(3) -0.0000
H5_3 H 0.1503 0.6254 -0.0000
C1_4 C 0.000(4) 0.716(3) 1.0000
H1_4 H 0.0000 0.7764 1.0000
N1_4 N -0.000(6) 0.530(4) 1.0000
C9_4 C 0.188(4) 0.802(3) 1.0000
C10_4 C 0.087(5) 0.713(4) 1.0000
C11_4 C 0.089(5) 0.623(3) 1.0000
H5_4 H 0.1503 0.6254 1.0000
O1_3 O 0.8155(28) 0.7055(19) -0.0000
C1_5 C 1.000(4) 0.716(3) -0.0000
H1_5 H 1.0000 0.7764 -0.0000
C2_3 C 0.812(4) 0.614(3) -0.0000
C3_3 C 0.913(5) 0.626(3) -0.0000
C4_3 C 0.911(5) 0.534(4) -0.0000
H2_3 H 0.8497 0.4751 -0.0000
O2_3 O 0.730(3) 0.539(2) -0.0000
N1_5 N 1.000(6) 0.530(4) -0.0000
C5_3 C 0.6201(12) 0.6201(12) 0.3803(17)
C6_3 C 0.6211(11) 0.6211(11) 0.2469(17)
O3_3 O 0.6951(9) 0.6951(9) 0.2001(13)
O4_3 O 0.5468(11) 0.5468(11) 0.2008(15)
C7_3 C 0.7000(13) 0.7000(13) 0.4386(11)
H3_3 H 0.7520 0.7520 0.3976
C8_3 C 0.5426(15) 0.5426(15) 0.4397(11)
H4_3 H 0.4903 0.4903 0.3995
C12_3 C 0.6201(12) 0.6201(12) 0.6197(17)
C13_3 C 0.6211(11) 0.6211(11) 0.7531(17)
O7 O 0.6951(9) 0.6951(9) 0.7999(13)
O8 O 0.5468(11) 0.5468(11) 0.7992(15)
C14_3 C 0.7000(13) 0.7000(13) 0.5614(11)
H6_3 H 0.7520 0.7520 0.6024
C15_3 C 0.5426(15) 0.5426(15) 0.5603(11)
H7_3 H 0.4903 0.4903 0.6005
O9_3 O 0.7055(34) 0.8155(28) -0.0000
O10_3 O 0.539(4) 0.730(3) -0.0000
O1_4 O 0.8155(28) 0.7055(19) 1.0000
C1_6 C 1.000(4) 0.716(3) 1.0000
H1_6 H 1.0000 0.7764 1.0000
C2_4 C 0.812(4) 0.614(3) 1.0000
C3_4 C 0.913(5) 0.626(3) 1.0000
C4_4 C 0.911(5) 0.534(4) 1.0000
H2_4 H 0.8497 0.4751 1.0000
O2_4 O 0.730(3) 0.539(2) 1.0000
N1_6 N 1.000(6) 0.530(4) 1.0000
O9_4 O 0.7055(34) 0.8155(28) 1.0000
O10_4 O 0.539(4) 0.730(3) 1.0000
O11_3 O 0.0000 0.3049(9) 0.2001(13)
O12_3 O -0.0000 0.4532(11) 0.2008(15)
C5_4 C 0.0000 0.3799(12) 0.6197(17)
C6_4 C -0.0000 0.3789(11) 0.7531(17)
O3_4 O 0.0000 0.3049(9) 0.7999(13)
O4_4 O 0.0000 0.4532(11) 0.7992(15)
C7_4 C 0.0000 0.3000(13) 0.5614(11)
H3_4 H 0.0000 0.2480 0.6024
C8_4 C 0.0000 0.4574(15) 0.5603(11)
H4_4 H 0.0000 0.5097 0.6005
C12_4 C 0.0000 0.3799(12) 0.3803(17)
C13_4 C -0.0000 0.3789(11) 0.2469(17)
C14_4 C 0.0000 0.3000(13) 0.4386(11)
H6_4 H 0.0000 0.2480 0.3976
C15_4 C 0.0000 0.4574(15) 0.4397(11)
H7_4 H 0.0000 0.5097 0.3995
O1_5 O 0.890(2) 0.1845(28) 0.0000
C1_7 C 0.716(3) -0.000(4) 0.0000
H1_7 H 0.7764 -0.0000 0.0000
C2_5 C 0.802(3) 0.188(4) 0.0000
C3_5 C 0.713(4) 0.087(5) 0.0000
C4_5 C 0.623(3) 0.089(5) 0.0000
H2_5 H 0.6254 0.1503 0.0000
O2_5 O 0.809(2) 0.270(3) 0.0000
O11_4 O 1.0000 0.3049(9) 0.2001(13)
O12_4 O 1.0000 0.4532(11) 0.2008(15)
O1_6 O 0.890(2) 0.1845(28) 1.0000
C1_8 C 0.716(3) 0.000(4) 1.0000
H1_8 H 0.7764 0.0000 1.0000
C2_6 C 0.802(3) 0.188(4) 1.0000
C3_6 C 0.713(4) 0.087(5) 1.0000
C4_6 C 0.623(3) 0.089(5) 1.0000
H2_6 H 0.6254 0.1503 1.0000
O2_6 O 0.809(2) 0.270(3) 1.0000
C5_5 C 1.0000 0.3799(12) 0.6197(17)
C6_5 C 1.0000 0.3789(11) 0.7531(17)
O3_5 O 1.0000 0.3049(9) 0.7999(13)
O4_5 O 1.0000 0.4532(11) 0.7992(15)
C7_5 C 1.0000 0.3000(13) 0.5614(11)
H3_5 H 1.0000 0.2480 0.6024
C8_5 C 1.0000 0.4574(15) 0.5603(11)
H4_5 H 1.0000 0.5097 0.6005
C12_5 C 1.0000 0.3799(12) 0.3803(17)
C13_5 C 1.0000 0.3789(11) 0.2469(17)
C14_5 C 1.0000 0.3000(13) 0.4386(11)
H6_5 H 1.0000 0.2480 0.3976
C15_5 C 1.0000 0.4574(15) 0.4397(11)
H7_5 H 1.0000 0.5097 0.3995
C1_9 C 0.716(3) 1.000(4) 0.0000
H1_9 H 0.7764 1.0000 0.0000
C9_5 C 0.614(3) 0.812(4) 0.0000
C10_5 C 0.626(3) 0.913(5) 0.0000
C11_5 C 0.534(4) 0.911(5) 0.0000
H5_5 H 0.4751 0.8497 0.0000
C1_10 C 0.716(3) 1.000(4) 1.0000
H1_10 H 0.7764 1.0000 1.0000
C9_6 C 0.614(3) 0.812(4) 1.0000
C10_6 C 0.626(3) 0.913(5) 1.0000
C11_6 C 0.534(4) 0.911(5) 1.0000
H5_6 H 0.4751 0.8497 1.0000
loop_
_geom_bond_atom_site_label_1
_geom_bond_atom_site_label_2
_geom_bond_site_symmetry_1
_geom_bond_site_symmetry_2
Bi1 O1 1_555 1_555
O1 C2 1_555 1_555
C1 H1 1_555 1_555
C2 C3 1_555 1_555
C3 C1 1_555 1_555
C4 C3 1_555 1_555
H2 C4 1_555 1_555
O2 Bi1 1_555 1_555
N1 C4 1_555 1_555
O5 C9 1_555 1_555
C9 C10 1_555 1_555
C10 C1 1_555 1_555
C11 N1 1_555 1_555
H5 C11 1_555 1_555
O6 C9 1_555 1_555
Bi3 N1 1_555 1_555
Bi4 O5 1_555 1_555
N2 Bi1 1_555 1_555
O11 Bi1 1_555 1_555
O12 Bi1 1_555 1_555
C2 O2 1_555 1_555
C10 C11 1_555 1_555
O6 Bi4 1_555 1_555
Bi1_2 O1_2 1_555 1_555
O1_2 C2_2 1_555 1_555
C1_2 H1_2 1_555 1_555
C2_2 C3_2 1_555 1_555
C3_2 C1_2 1_555 1_555
C4_2 C3_2 1_555 1_555
H2_2 C4_2 1_555 1_555
O2_2 Bi1_2 1_555 1_555
N1_2 C4_2 1_555 1_555
C5 C6 1_555 1_555
C6 O3 1_555 1_555
O3 Bi1_2 1_555 1_555
O4 Bi1_2 1_555 1_555
C7 C5 1_555 1_555
H3 C7 1_555 1_555
C8 C5 1_555 1_555
H4 C8 1_555 1_555
O5_2 C9_2 1_555 1_555
C9_2 C10_2 1_555 1_555
C10_2 C1_2 1_555 1_555
C11_2 N1_2 1_555 1_555
H5_2 C11_2 1_555 1_555
O6_2 C9_2 1_555 1_555
C12 C13 1_555 1_555
C13 O11 1_555 1_555
O12 C13 1_555 1_555
C14 C7 1_555 1_555
H6 C14 1_555 1_555
C15 C8 1_555 1_555
H7 C15 1_555 1_555
Bi3_2 N1_2 1_555 1_555
Bi4_2 O5_2 1_555 1_555
N2_2 Bi1_2 1_555 1_555
C2_2 O2_2 1_555 1_555
C6 O4 1_555 1_555
C10_2 C11_2 1_555 1_555
O6_2 Bi4_2 1_555 1_555
C12 C14 1_555 1_555
C12 C15 1_555 1_555
O9 Bi1_3 1_555 1_555
O10 Bi1_3 1_555 1_555
N2_3 Bi1_3 1_555 1_555
O11_2 Bi1_3 1_555 1_555
O12_2 Bi1_3 1_555 1_555
C5_2 C6_2 1_555 1_555
C6_2 O3_2 1_555 1_555
O3_2 Bi1_4 1_555 1_555
O4_2 Bi1_4 1_555 1_555
C7_2 C5_2 1_555 1_555
H3_2 C7_2 1_555 1_555
C8_2 C5_2 1_555 1_555
H4_2 C8_2 1_555 1_555
C12_2 C13_2 1_555 1_555
C13_2 O11_2 1_555 1_555
O12_2 C13_2 1_555 1_555
C14_2 C7_2 1_555 1_555
H6_2 C14_2 1_555 1_555
C15_2 C8_2 1_555 1_555
H7_2 C15_2 1_555 1_555
O9_2 Bi1_4 1_555 1_555
O10_2 Bi1_4 1_555 1_555
N2_4 Bi1_4 1_555 1_555
C6_2 O4_2 1_555 1_555
C12_2 C14_2 1_555 1_555
C12_2 C15_2 1_555 1_555
C1_3 H1_3 1_555 1_555
O9 C9_3 1_555 1_555
C9_3 C10_3 1_555 1_555
C10_3 C1_3 1_555 1_555
C11_3 N1_3 1_555 1_555
H5_3 C11_3 1_555 1_555
O10 C9_3 1_555 1_555
Bi4 N1_3 1_555 1_555
C10_3 C11_3 1_555 1_555
C1_4 H1_4 1_555 1_555
O9_2 C9_4 1_555 1_555
C9_4 C10_4 1_555 1_555
C10_4 C1_4 1_555 1_555
C11_4 N1_4 1_555 1_555
H5_4 C11_4 1_555 1_555
O10_2 C9_4 1_555 1_555
Bi4_2 N1_4 1_555 1_555
C10_4 C11_4 1_555 1_555
Bi3 O1_3 1_555 1_555
O1_3 C2_3 1_555 1_555
C1_5 H1_5 1_555 1_555
C2_3 C3_3 1_555 1_555
C3_3 C1_5 1_555 1_555
C4_3 C3_3 1_555 1_555
H2_3 C4_3 1_555 1_555
O2_3 Bi3 1_555 1_555
N1_5 C4_3 1_555 1_555
C5_3 C6_3 1_555 1_555
C6_3 O3_3 1_555 1_555
O3_3 Bi3 1_555 1_555
O4_3 Bi3 1_555 1_555
C7_3 C5_3 1_555 1_555
H3_3 C7_3 1_555 1_555
C8_3 C5_3 1_555 1_555
H4_3 C8_3 1_555 1_555
C12_3 C13_3 1_555 1_555
C13_3 O7 1_555 1_555
O7 Bi3_2 1_555 1_555
O8 C13_3 1_555 1_555
C14_3 C7_3 1_555 1_555
H6_3 C14_3 1_555 1_555
C15_3 C8_3 1_555 1_555
H7_3 C15_3 1_555 1_555
Bi3_2 O8 1_555 1_555
Bi4_3 N1_5 1_555 1_555
O9_3 Bi3 1_555 1_555
O10_3 Bi3 1_555 1_555
C2_3 O2_3 1_555 1_555
C6_3 O4_3 1_555 1_555
C12_3 C14_3 1_555 1_555
C12_3 C15_3 1_555 1_555
Bi3_2 O1_4 1_555 1_555
O1_4 C2_4 1_555 1_555
C1_6 H1_6 1_555 1_555
C2_4 C3_4 1_555 1_555
C3_4 C1_6 1_555 1_555
C4_4 C3_4 1_555 1_555
H2_4 C4_4 1_555 1_555
O2_4 Bi3_2 1_555 1_555
N1_6 C4_4 1_555 1_555
Bi4_4 N1_6 1_555 1_555
O9_4 Bi3_2 1_555 1_555
O10_4 Bi3_2 1_555 1_555
C2_4 O2_4 1_555 1_555
O11_3 Bi4 1_555 1_555
O12_3 Bi4 1_555 1_555
C5_4 C6_4 1_555 1_555
C6_4 O3_4 1_555 1_555
O3_4 Bi4_2 1_555 1_555
O4_4 Bi4_2 1_555 1_555
C7_4 C5_4 1_555 1_555
H3_4 C7_4 1_555 1_555
C8_4 C5_4 1_555 1_555
H4_4 C8_4 1_555 1_555
C12_4 C13_4 1_555 1_555
C13_4 O11_3 1_555 1_555
O12_3 C13_4 1_555 1_555
C14_4 C7_4 1_555 1_555
H6_4 C14_4 1_555 1_555
C15_4 C8_4 1_555 1_555
H7_4 C15_4 1_555 1_555
C6_4 O4_4 1_555 1_555
C12_4 C14_4 1_555 1_555
C12_4 C15_4 1_555 1_555
Bi4_3 O1_5 1_555 1_555
O1_5 C2_5 1_555 1_555
C1_7 H1_7 1_555 1_555
C2_5 C3_5 1_555 1_555
C3_5 C1_7 1_555 1_555
C4_5 C3_5 1_555 1_555
H2_5 C4_5 1_555 1_555
O2_5 Bi4_3 1_555 1_555
N2 C4_5 1_555 1_555
O11_4 Bi4_3 1_555 1_555
O12_4 Bi4_3 1_555 1_555
C2_5 O2_5 1_555 1_555
Bi4_4 O1_6 1_555 1_555
O1_6 C2_6 1_555 1_555
C1_8 H1_8 1_555 1_555
C2_6 C3_6 1_555 1_555
C3_6 C1_8 1_555 1_555
C4_6 C3_6 1_555 1_555
H2_6 C4_6 1_555 1_555
O2_6 Bi4_4 1_555 1_555
N2_2 C4_6 1_555 1_555
C5_5 C6_5 1_555 1_555
C6_5 O3_5 1_555 1_555
O3_5 Bi4_4 1_555 1_555
O4_5 Bi4_4 1_555 1_555
C7_5 C5_5 1_555 1_555
H3_5 C7_5 1_555 1_555
C8_5 C5_5 1_555 1_555
H4_5 C8_5 1_555 1_555
C12_5 C13_5 1_555 1_555
C13_5 O11_4 1_555 1_555
O12_4 C13_5 1_555 1_555
C14_5 C7_5 1_555 1_555
H6_5 C14_5 1_555 1_555
C15_5 C8_5 1_555 1_555
H7_5 C15_5 1_555 1_555
C2_6 O2_6 1_555 1_555
C6_5 O4_5 1_555 1_555
C12_5 C14_5 1_555 1_555
C12_5 C15_5 1_555 1_555
C1_9 H1_9 1_555 1_555
O9_3 C9_5 1_555 1_555
C9_5 C10_5 1_555 1_555
C10_5 C1_9 1_555 1_555
C11_5 N2_3 1_555 1_555
H5_5 C11_5 1_555 1_555
O10_3 C9_5 1_555 1_555
C10_5 C11_5 1_555 1_555
C1_10 H1_10 1_555 1_555
O9_4 C9_6 1_555 1_555
C9_6 C10_6 1_555 1_555
C10_6 C1_10 1_555 1_555
C11_6 N2_4 1_555 1_555
H5_6 C11_6 1_555 1_555
O10_4 C9_6 1_555 1_555
C10_6 C11_6 1_555 1_555

#END
