
###############################################################################
#
# This file contains modified crystal structure data generated from the
# MOF subset of the Cambridge Structural Database (CSD) v543 
# hosted by the Cambridge Crystallographic Data Centre (CCDC).
#
# This work is licensed under the Creative Commons
# Attribution-NonCommercial-ShareAlike 4.0 International License.
# To view a copy of this license, visit
# http://creativecommons.org/licenses/by-nc-sa/4.0/
# or send a letter to
# Creative Commons, PO Box 1866, Mountain View, CA 94042, USA.
#
# CIF created using the CSD Python API on 29 September 2022
# The structure has been converted into the P1 space group
# The structure has a 3D framework
# The original CSD entry PASNEE is in the monoclinic crystal system
# The framework has been calculated to contain at least 10.0% void space
# The void calculation uses a probe of radius 1.32A, grid spacing 0.4
#
###############################################################################

data_PASNEE
_chemical_formula_moiety         '(C96 H136 Cu22 O134)n'
_symmetry_cell_setting           triclinic
_symmetry_space_group_name_H-M   'P 1'
_symmetry_Int_Tables_number      1
_space_group_name_Hall           'P 1'
loop_
_symmetry_equiv_pos_site_id
_symmetry_equiv_pos_as_xyz
1 x,y,z
_cell_length_a                   17.0978(17)
_cell_length_b                   8.3863(8)
_cell_length_c                   27.613(3)
_cell_angle_alpha                90
_cell_angle_beta                 104.6500(10)
_cell_angle_gamma                90
_cell_volume                     3830.63
loop_
_atom_site_label
_atom_site_type_symbol
_atom_site_fract_x
_atom_site_fract_y
_atom_site_fract_z
O23 O 0.39674(11) 0.1110(3) 0.02089(7)
O26 O 0.26516(11) 0.0586(2) 0.00084(7)
Cu1 Cu 0.5000 0.26199(5) 0.7500
Cu2 Cu 0.435561(19) 0.01720(4) 0.581783(12)
Cu3 Cu 0.820030(19) 0.28584(4) 0.775570(12)
C1 C 0.61400(15) 0.2516(3) 0.62991(9)
H1 H 0.6066 0.3618 0.6178
C2 C 0.60814(15) 0.1520(3) 0.58167(9)
H2 H 0.5581 0.1851 0.5577
C3 C 0.67790(15) 0.2004(3) 0.55863(9)
H3 H 0.6671 0.3124 0.5492
C4 C 0.76320(15) 0.2018(3) 0.59508(9)
H4 H 0.7978 0.2593 0.5776
C5 C 0.76202(15) 0.3039(3) 0.64117(9)
H5 H 0.7438 0.4088 0.6271
C6 C 0.69710(15) 0.2540(3) 0.66852(9)
H6 H 0.6944 0.3418 0.6915
C7 C 0.54671(16) 0.2274(3) 0.65588(10)
C9 C 0.67238(16) 0.1146(3) 0.50921(10)
C10 C 0.80617(16) 0.0460(3) 0.61196(10)
C11 C 0.84796(15) 0.3339(3) 0.67281(10)
C12 C 0.71153(15) 0.1032(3) 0.70093(9)
O1 O 0.56071(11) 0.2789(2) 0.69940(7)
O2 O 0.47865(11) 0.1715(3) 0.63303(7)
O5 O 0.60326(11) 0.1110(3) 0.47911(7)
O6 O 0.73484(11) 0.0586(2) 0.49916(7)
O8 O 0.82706(13) 0.0098(2) 0.65569(7)
O9 O 0.90191(11) 0.3492(2) 0.65017(7)
O10 O 0.86154(11) 0.3569(2) 0.71991(7)
O11 O 0.76685(11) 0.0997(2) 0.74099(7)
O13 O 0.5000 0.0287(3) 0.7500
O14 O 0.5000 0.4930(4) 0.7500
H9 H 0.4896 0.5255 0.7757
O15 O 0.37160(12) 0.2209(2) 0.69110(8)
H10 H 0.3552 0.3057 0.6775
O16 O 0.33109(12) 0.1218(3) 0.57727(8)
H11 H 0.2988 0.0953 0.5512
O17 O 0.95032(12) 0.1939(3) 0.81393(8)
H12 H 0.9502 0.1502 0.8405
O18 O 0.79105(13) 0.1890(2) 0.83449(7)
H13 H 0.8085 0.2451 0.8592
H14 H 0.7401 0.1813 0.8295
H15 H 0.3979 0.1778 0.6722
H16 H 0.9906 0.2572 0.8204
H17 H 0.3246 0.2213 0.5716
Cu4 Cu 0.564439(19) 0.01720(4) 0.918217(12)
Cu7 Cu 0.179970(19) 0.28584(4) 0.724430(12)
C13 C 0.38600(15) 0.2516(3) 0.87009(9)
H18 H 0.3934 0.3618 0.8822
C14 C 0.39186(15) 0.1520(3) 0.91833(9)
H19 H 0.4419 0.1851 0.9423
C15 C 0.32210(15) 0.2004(3) 0.94137(9)
H20 H 0.3329 0.3124 0.9508
C16 C 0.23680(15) 0.2018(3) 0.90492(9)
H21 H 0.2022 0.2593 0.9224
C17 C 0.23798(15) 0.3039(3) 0.85883(9)
H22 H 0.2562 0.4088 0.8729
C18 C 0.30290(15) 0.2540(3) 0.83148(9)
H23 H 0.3056 0.3418 0.8085
C19 C 0.45329(16) 0.2274(3) 0.84412(10)
C21 C 0.32762(16) 0.1146(3) 0.99079(10)
C22 C 0.19383(16) 0.0460(3) 0.88804(10)
C23 C 0.15204(15) 0.3339(3) 0.82719(10)
C24 C 0.28847(15) 0.1032(3) 0.79907(9)
O19 O 0.43929(11) 0.2789(2) 0.80060(7)
O20 O 0.52135(11) 0.1715(3) 0.86697(7)
O28 O 0.17294(13) 0.0098(2) 0.84431(7)
O29 O 0.09809(11) 0.3492(2) 0.84983(7)
O30 O 0.13846(11) 0.3569(2) 0.78009(7)
O31 O 0.23315(11) 0.0997(2) 0.75901(7)
O33 O 0.83638(11) 0.4890(2) 0.81246(7)
O34 O 0.16362(11) 0.4890(2) 0.68754(7)
H26 H 0.5104 0.5255 0.7243
O35 O 0.62840(12) 0.2209(2) 0.80890(8)
H27 H 0.6448 0.3057 0.8225
O36 O 0.66891(12) 0.1218(3) 0.92273(8)
H28 H 0.7012 0.0953 0.9488
O37 O 0.04968(12) 0.1939(3) 0.68607(8)
H29 H 0.0498 0.1502 0.6595
O38 O 0.20895(13) 0.1890(2) 0.66551(7)
H30 H 0.1915 0.2451 0.6408
H31 H 0.2599 0.1813 0.6705
H32 H 0.6021 0.1778 0.8278
H33 H 0.0094 0.2572 0.6796
H34 H 0.6754 0.2213 0.9284
Cu6 Cu 0.435561(19) 0.98280(4) 0.081783(12)
C8 C 0.60319(16) 0.9707(3) 0.58645(9)
O3 O 0.53630(11) 0.9087(2) 0.58939(7)
O4 O 0.66249(11) 0.8884(2) 0.58411(7)
O7 O 0.82965(12) 0.9588(2) 0.57808(7)
H7 H 0.8076 0.9916 0.5500
O12 O 0.66362(11) 0.9890(2) 0.68754(7)
H8 H 0.5460 0.9961 0.7622
Cu5 Cu 0.564439(19) 0.98280(4) 0.418217(12)
Cu8 Cu 0.679970(19) 0.78584(4) 0.724430(12)
Cu9 Cu 0.320030(19) 0.78584(4) 0.775570(12)
C20 C 0.39681(16) 0.9707(3) 0.91355(9)
O21 O 0.46370(11) 0.9087(2) 0.91061(7)
O22 O 0.33751(11) 0.8884(2) 0.91589(7)
O24 O 0.39674(11) 0.8890(3) 0.52089(7)
O25 O 0.60326(11) 0.8890(3) 0.97911(7)
O27 O 0.17035(12) 0.9588(2) 0.92192(7)
H24 H 0.1924 0.9916 0.9500
O32 O 0.33638(11) 0.9890(2) 0.81246(7)
H25 H 0.4540 0.9961 0.7378
Cu1_2 Cu 0.0000 0.76199(5) 0.7500
C1_2 C 0.11400(15) 0.7516(3) 0.62991(9)
H1_2 H 0.1066 0.8618 0.6178
C2_2 C 0.10814(15) 0.6520(3) 0.58167(9)
H2_2 H 0.0581 0.6851 0.5577
C3_2 C 0.17790(15) 0.7004(3) 0.55863(9)
H3_2 H 0.1671 0.8124 0.5492
C4_2 C 0.26320(15) 0.7018(3) 0.59508(9)
H4_2 H 0.2978 0.7593 0.5776
C5_2 C 0.26202(15) 0.8039(3) 0.64117(9)
H5_2 H 0.2438 0.9088 0.6271
C6_2 C 0.19710(15) 0.7540(3) 0.66852(9)
H6_2 H 0.1944 0.8418 0.6915
C7_2 C 0.04671(16) 0.7274(3) 0.65588(10)
C8_2 C 0.10319(16) 0.4707(3) 0.58645(9)
C9_2 C 0.17238(16) 0.6146(3) 0.50921(10)
C10_2 C 0.30617(16) 0.5460(3) 0.61196(10)
C11_2 C 0.34796(15) 0.8339(3) 0.67281(10)
C12_2 C 0.21153(15) 0.6032(3) 0.70093(9)
O1_2 O 0.06071(11) 0.7789(2) 0.69940(7)
O3_2 O 0.03630(11) 0.4087(2) 0.58939(7)
O4_2 O 0.16249(11) 0.3884(2) 0.58411(7)
O5_2 O 0.10326(11) 0.6110(3) 0.47911(7)
O6_2 O 0.23484(11) 0.5586(2) 0.49916(7)
O7_2 O 0.32965(12) 0.4588(2) 0.57808(7)
H7_2 H 0.3076 0.4916 0.5500
O8_2 O 0.32706(13) 0.5098(2) 0.65569(7)
O9_2 O 0.40191(11) 0.8492(2) 0.65017(7)
O10_2 O 0.36154(11) 0.8569(2) 0.71991(7)
O11_2 O 0.26685(11) 0.5997(2) 0.74099(7)
O13_2 O 0.0000 0.5287(3) 0.7500
H8_2 H 0.0460 0.4961 0.7622
O14_2 O 0.0000 0.9930(4) 0.7500
O17_2 O 0.45032(12) 0.6939(3) 0.81393(8)
H12_2 H 0.4502 0.6502 0.8405
O18_2 O 0.29105(13) 0.6890(2) 0.83449(7)
H13_2 H 0.3085 0.7451 0.8592
H14_2 H 0.2401 0.6813 0.8295
H16_2 H 0.4906 0.7572 0.8204
Cu4_2 Cu 0.064439(19) 0.51720(4) 0.918217(12)
Cu5_2 Cu 0.064439(19) 0.48280(4) 0.418217(12)
O20_2 O 0.02135(11) 0.6715(3) 0.86697(7)
O25_2 O 0.10326(11) 0.3890(3) 0.97911(7)
O35_2 O 0.12840(12) 0.7209(2) 0.80890(8)
H27_2 H 0.1448 0.8057 0.8225
O36_2 O 0.16891(12) 0.6218(3) 0.92273(8)
H28_2 H 0.2012 0.5953 0.9488
H32_2 H 0.1021 0.6778 0.8278
H34_2 H 0.1754 0.7213 0.9284
Cu6_2 Cu 0.935561(19) 0.48280(4) 0.081783(12)
O23_2 O 0.89674(11) 0.6110(3) 0.02089(7)
O26_2 O 0.76516(11) 0.5586(2) 0.00084(7)
Cu1_3 Cu 1.0000 0.76199(5) 0.7500
Cu2_2 Cu 0.935561(19) 0.51720(4) 0.581783(12)
O2_2 O 0.97865(11) 0.6715(3) 0.63303(7)
O13_3 O 1.0000 0.5287(3) 0.7500
O14_3 O 1.0000 0.9930(4) 0.7500
O15_2 O 0.87160(12) 0.7209(2) 0.69110(8)
H10_2 H 0.8552 0.8057 0.6775
O16_2 O 0.83109(12) 0.6218(3) 0.57727(8)
H11_2 H 0.7988 0.5953 0.5512
H15_2 H 0.8979 0.6778 0.6722
H17_2 H 0.8246 0.7213 0.5716
C13_2 C 0.88600(15) 0.7516(3) 0.87009(9)
H18_2 H 0.8934 0.8618 0.8822
C14_2 C 0.89186(15) 0.6520(3) 0.91833(9)
H19_2 H 0.9419 0.6851 0.9423
C15_2 C 0.82210(15) 0.7004(3) 0.94137(9)
H20_2 H 0.8329 0.8124 0.9508
C16_2 C 0.73680(15) 0.7018(3) 0.90492(9)
H21_2 H 0.7022 0.7593 0.9224
C17_2 C 0.73798(15) 0.8039(3) 0.85883(9)
H22_2 H 0.7562 0.9088 0.8729
C18_2 C 0.80290(15) 0.7540(3) 0.83148(9)
H23_2 H 0.8056 0.8418 0.8085
C19_2 C 0.95329(16) 0.7274(3) 0.84412(10)
C20_2 C 0.89681(16) 0.4707(3) 0.91355(9)
C21_2 C 0.82762(16) 0.6146(3) 0.99079(10)
C22_2 C 0.69383(16) 0.5460(3) 0.88804(10)
C23_2 C 0.65204(15) 0.8339(3) 0.82719(10)
C24_2 C 0.78847(15) 0.6032(3) 0.79907(9)
O19_2 O 0.93929(11) 0.7789(2) 0.80060(7)
O21_2 O 0.96370(11) 0.4087(2) 0.91061(7)
O22_2 O 0.83751(11) 0.3884(2) 0.91589(7)
O24_2 O 0.89674(11) 0.3890(3) 0.52089(7)
O27_2 O 0.67035(12) 0.4588(2) 0.92192(7)
H24_2 H 0.6924 0.4916 0.9500
O28_2 O 0.67294(13) 0.5098(2) 0.84431(7)
O29_2 O 0.59809(11) 0.8492(2) 0.84983(7)
O30_2 O 0.63846(11) 0.8569(2) 0.78009(7)
O31_2 O 0.73315(11) 0.5997(2) 0.75901(7)
H25_2 H 0.9540 0.4961 0.7378
O37_2 O 0.54968(12) 0.6939(3) 0.68607(8)
H29_2 H 0.5498 0.6502 0.6595
O38_2 O 0.70895(13) 0.6890(2) 0.66551(7)
H30_2 H 0.6915 0.7451 0.6408
H31_2 H 0.7599 0.6813 0.6705
H33_2 H 0.5094 0.7572 0.6796
C8_3 C 0.39681(16) 0.0293(3) 0.41355(9)
O3_3 O 0.46370(11) 0.0913(2) 0.41061(7)
O4_3 O 0.33751(11) 0.1116(2) 0.41589(7)
O7_3 O 0.17035(12) 0.0412(2) 0.42192(7)
H7_3 H 0.1924 0.0084 0.4500
O12_2 O 0.33638(11) 0.0110(2) 0.31246(7)
H8_3 H 0.4540 0.0039 0.2378
Cu8_2 Cu 0.320030(19) 0.21416(4) 0.275570(12)
Cu9_2 Cu 0.679970(19) 0.21416(4) 0.224430(12)
C20_3 C 0.60319(16) 0.0293(3) 0.08645(9)
O21_3 O 0.53630(11) 0.0913(2) 0.08939(7)
O22_3 O 0.66249(11) 0.1116(2) 0.08411(7)
O27_3 O 0.82965(12) 0.0412(2) 0.07808(7)
H24_3 H 0.8076 0.0084 0.0500
O32_2 O 0.66362(11) 0.0110(2) 0.18754(7)
H25_3 H 0.5460 0.0039 0.2622
Cu1_4 Cu 0.5000 0.73801(5) 0.2500
Cu3_2 Cu 0.179970(19) 0.71416(4) 0.224430(12)
C1_3 C 0.38600(15) 0.7484(3) 0.37009(9)
H1_3 H 0.3934 0.6382 0.3822
C2_3 C 0.39186(15) 0.8480(3) 0.41833(9)
H2_3 H 0.4419 0.8149 0.4423
C3_3 C 0.32210(15) 0.7996(3) 0.44137(9)
H3_3 H 0.3329 0.6876 0.4508
C4_3 C 0.23680(15) 0.7982(3) 0.40492(9)
H4_3 H 0.2022 0.7407 0.4224
C5_3 C 0.23798(15) 0.6961(3) 0.35883(9)
H5_3 H 0.2562 0.5912 0.3729
C6_3 C 0.30290(15) 0.7460(3) 0.33148(9)
H6_3 H 0.3056 0.6582 0.3085
C7_3 C 0.45329(16) 0.7726(3) 0.34412(10)
C9_3 C 0.32762(16) 0.8854(3) 0.49079(10)
C10_3 C 0.19383(16) 0.9540(3) 0.38804(10)
C11_3 C 0.15204(15) 0.6661(3) 0.32719(10)
C12_3 C 0.28847(15) 0.8968(3) 0.29907(9)
O1_3 O 0.43929(11) 0.7211(2) 0.30060(7)
O2_3 O 0.52135(11) 0.8285(3) 0.36697(7)
O6_3 O 0.26516(11) 0.9414(2) 0.50084(7)
O8_3 O 0.17294(13) 0.9902(2) 0.34431(7)
O9_3 O 0.09809(11) 0.6508(2) 0.34983(7)
O10_3 O 0.13846(11) 0.6431(2) 0.28009(7)
O11_3 O 0.23315(11) 0.9003(2) 0.25901(7)
O13_4 O 0.5000 0.9713(3) 0.2500
O14_4 O 0.5000 0.5070(4) 0.2500
H9_2 H 0.5104 0.4745 0.2243
O15_3 O 0.62840(12) 0.7791(2) 0.30890(8)
H10_3 H 0.6448 0.6943 0.3225
O16_3 O 0.66891(12) 0.8782(3) 0.42273(8)
H11_3 H 0.7012 0.9047 0.4488
O17_3 O 0.04968(12) 0.8061(3) 0.18607(8)
H12_3 H 0.0498 0.8498 0.1595
O18_3 O 0.20895(13) 0.8110(2) 0.16551(7)
H13_3 H 0.1915 0.7549 0.1408
H14_3 H 0.2599 0.8187 0.1705
H15_3 H 0.6021 0.8222 0.3278
H16_3 H 0.0094 0.7428 0.1796
H17_3 H 0.6754 0.7787 0.4284
Cu7_2 Cu 0.820030(19) 0.71416(4) 0.275570(12)
C13_3 C 0.61400(15) 0.7484(3) 0.12991(9)
H18_3 H 0.6066 0.6382 0.1178
C14_3 C 0.60814(15) 0.8480(3) 0.08167(9)
H19_3 H 0.5581 0.8149 0.0577
C15_3 C 0.67790(15) 0.7996(3) 0.05863(9)
H20_3 H 0.6671 0.6876 0.0492
C16_3 C 0.76320(15) 0.7982(3) 0.09508(9)
H21_3 H 0.7978 0.7407 0.0776
C17_3 C 0.76202(15) 0.6961(3) 0.14117(9)
H22_3 H 0.7438 0.5912 0.1271
C18_3 C 0.69710(15) 0.7460(3) 0.16852(9)
H23_3 H 0.6944 0.6582 0.1915
C19_3 C 0.54671(16) 0.7726(3) 0.15588(10)
C21_3 C 0.67238(16) 0.8854(3) 0.00921(10)
C22_3 C 0.80617(16) 0.9540(3) 0.11196(10)
C23_3 C 0.84796(15) 0.6661(3) 0.17281(10)
C24_3 C 0.71153(15) 0.8968(3) 0.20093(9)
O19_3 O 0.56071(11) 0.7211(2) 0.19940(7)
O20_3 O 0.47865(11) 0.8285(3) 0.13303(7)
O28_3 O 0.82706(13) 0.9902(2) 0.15569(7)
O29_3 O 0.90191(11) 0.6508(2) 0.15017(7)
O30_3 O 0.86154(11) 0.6431(2) 0.21991(7)
O31_3 O 0.76685(11) 0.9003(2) 0.24099(7)
O33_2 O 0.16362(11) 0.5110(2) 0.18754(7)
O34_2 O 0.83638(11) 0.5110(2) 0.31246(7)
H26_2 H 0.4896 0.4745 0.2757
O35_3 O 0.37160(12) 0.7791(2) 0.19110(8)
H27_3 H 0.3552 0.6943 0.1775
O36_3 O 0.33109(12) 0.8782(3) 0.07727(8)
H28_3 H 0.2988 0.9047 0.0512
O37_3 O 0.95032(12) 0.8061(3) 0.31393(8)
H29_3 H 0.9502 0.8498 0.3405
O38_3 O 0.79105(13) 0.8110(2) 0.33449(7)
H30_3 H 0.8085 0.7549 0.3592
H31_3 H 0.7401 0.8187 0.3295
H32_3 H 0.3979 0.8222 0.1722
H33_3 H 0.9906 0.7428 0.3204
H34_3 H 0.3246 0.7787 0.0716
O26_3 O 0.73484(11) 0.9414(2) 0.99916(7)
Cu1_5 Cu 0.0000 0.23801(5) 0.2500
O2_4 O 0.02135(11) 0.3285(3) 0.36697(7)
O13_5 O 0.0000 0.4713(3) 0.2500
O14_5 O 0.0000 0.0070(4) 0.2500
O15_4 O 0.12840(12) 0.2791(2) 0.30890(8)
H10_4 H 0.1448 0.1943 0.3225
O16_4 O 0.16891(12) 0.3782(3) 0.42273(8)
H11_4 H 0.2012 0.4047 0.4488
H15_4 H 0.1021 0.3222 0.3278
H17_4 H 0.1754 0.2787 0.4284
C13_4 C 0.11400(15) 0.2484(3) 0.12991(9)
H18_4 H 0.1066 0.1382 0.1178
C14_4 C 0.10814(15) 0.3480(3) 0.08167(9)
H19_4 H 0.0581 0.3149 0.0577
C15_4 C 0.17790(15) 0.2996(3) 0.05863(9)
H20_4 H 0.1671 0.1876 0.0492
C16_4 C 0.26320(15) 0.2982(3) 0.09508(9)
H21_4 H 0.2978 0.2407 0.0776
C17_4 C 0.26202(15) 0.1961(3) 0.14117(9)
H22_4 H 0.2438 0.0912 0.1271
C18_4 C 0.19710(15) 0.2460(3) 0.16852(9)
H23_4 H 0.1944 0.1582 0.1915
C19_4 C 0.04671(16) 0.2726(3) 0.15588(10)
C20_4 C 0.10319(16) 0.5293(3) 0.08645(9)
C21_4 C 0.17238(16) 0.3854(3) 0.00921(10)
C22_4 C 0.30617(16) 0.4540(3) 0.11196(10)
C23_4 C 0.34796(15) 0.1661(3) 0.17281(10)
C24_4 C 0.21153(15) 0.3968(3) 0.20093(9)
O19_4 O 0.06071(11) 0.2211(2) 0.19940(7)
O21_4 O 0.03630(11) 0.5913(2) 0.08939(7)
O22_4 O 0.16249(11) 0.6116(2) 0.08411(7)
O27_4 O 0.32965(12) 0.5412(2) 0.07808(7)
H24_4 H 0.3076 0.5084 0.0500
O28_4 O 0.32706(13) 0.4902(2) 0.15569(7)
O29_4 O 0.40191(11) 0.1508(2) 0.15017(7)
O30_4 O 0.36154(11) 0.1431(2) 0.21991(7)
O31_4 O 0.26685(11) 0.4003(2) 0.24099(7)
H25_4 H 0.0460 0.5039 0.2622
O37_4 O 0.45032(12) 0.3061(3) 0.31393(8)
H29_4 H 0.4502 0.3498 0.3405
O38_4 O 0.29105(13) 0.3110(2) 0.33449(7)
H30_4 H 0.3085 0.2549 0.3592
H31_4 H 0.2401 0.3187 0.3295
H33_4 H 0.4906 0.2428 0.3204
O26_4 O 0.23484(11) 0.4414(2) 0.99916(7)
Cu1_6 Cu 1.0000 0.23801(5) 0.2500
C1_4 C 0.88600(15) 0.2484(3) 0.37009(9)
H1_4 H 0.8934 0.1382 0.3822
C2_4 C 0.89186(15) 0.3480(3) 0.41833(9)
H2_4 H 0.9419 0.3149 0.4423
C3_4 C 0.82210(15) 0.2996(3) 0.44137(9)
H3_4 H 0.8329 0.1876 0.4508
C4_4 C 0.73680(15) 0.2982(3) 0.40492(9)
H4_4 H 0.7022 0.2407 0.4224
C5_4 C 0.73798(15) 0.1961(3) 0.35883(9)
H5_4 H 0.7562 0.0912 0.3729
C6_4 C 0.80290(15) 0.2460(3) 0.33148(9)
H6_4 H 0.8056 0.1582 0.3085
C7_4 C 0.95329(16) 0.2726(3) 0.34412(10)
C8_4 C 0.89681(16) 0.5293(3) 0.41355(9)
C9_4 C 0.82762(16) 0.3854(3) 0.49079(10)
C10_4 C 0.69383(16) 0.4540(3) 0.38804(10)
C11_4 C 0.65204(15) 0.1661(3) 0.32719(10)
C12_4 C 0.78847(15) 0.3968(3) 0.29907(9)
O1_4 O 0.93929(11) 0.2211(2) 0.30060(7)
O3_4 O 0.96370(11) 0.5913(2) 0.41061(7)
O4_4 O 0.83751(11) 0.6116(2) 0.41589(7)
O6_4 O 0.76516(11) 0.4414(2) 0.50084(7)
O7_4 O 0.67035(12) 0.5412(2) 0.42192(7)
H7_4 H 0.6924 0.5084 0.4500
O8_4 O 0.67294(13) 0.4902(2) 0.34431(7)
O9_4 O 0.59809(11) 0.1508(2) 0.34983(7)
O10_4 O 0.63846(11) 0.1431(2) 0.28009(7)
O11_4 O 0.73315(11) 0.4003(2) 0.25901(7)
O13_6 O 1.0000 0.4713(3) 0.2500
H8_4 H 0.9540 0.5039 0.2378
O14_6 O 1.0000 0.0070(4) 0.2500
O17_4 O 0.54968(12) 0.3061(3) 0.18607(8)
H12_4 H 0.5498 0.3498 0.1595
O18_4 O 0.70895(13) 0.3110(2) 0.16551(7)
H13_4 H 0.6915 0.2549 0.1408
H14_4 H 0.7599 0.3187 0.1705
H16_4 H 0.5094 0.2428 0.1796
O20_4 O 0.97865(11) 0.3285(3) 0.13303(7)
O35_4 O 0.87160(12) 0.2791(2) 0.19110(8)
H27_4 H 0.8552 0.1943 0.1775
O36_4 O 0.83109(12) 0.3782(3) 0.07727(8)
H28_4 H 0.7988 0.4047 0.0512
H32_4 H 0.8979 0.3222 0.1722
H34_4 H 0.8246 0.2787 0.0716
H26_3 H 0.0104 0.0255 0.7243
H9_3 H 0.9896 0.0255 0.7757
H9_4 H 0.0104 0.9745 0.2243
H26_4 H 0.9896 0.9745 0.2757
loop_
_geom_bond_atom_site_label_1
_geom_bond_atom_site_label_2
_geom_bond_site_symmetry_1
_geom_bond_site_symmetry_2
Cu1 O1 1_555 1_555
Cu2 O2 1_555 1_555
Cu3 O10 1_555 1_555
C1 H1 1_555 1_555
C2 C1 1_555 1_555
H2 C2 1_555 1_555
C3 C2 1_555 1_555
H3 C3 1_555 1_555
C4 C3 1_555 1_555
H4 C4 1_555 1_555
C5 C4 1_555 1_555
H5 C5 1_555 1_555
C6 C1 1_555 1_555
H6 C6 1_555 1_555
C7 C1 1_555 1_555
C9 C3 1_555 1_555
C10 C4 1_555 1_555
C11 C5 1_555 1_555
C12 C6 1_555 1_555
O1 C7 1_555 1_555
O2 C7 1_555 1_555
O5 C9 1_555 1_555
O6 C9 1_555 1_555
O8 C10 1_555 1_555
O9 C11 1_555 1_555
O10 C11 1_555 1_555
O11 Cu3 1_555 1_555
O13 Cu1 1_555 1_555
O14 Cu1 1_555 1_555
H9 O14 1_555 1_555
O15 Cu1 1_555 1_555
H10 O15 1_555 1_555
O16 Cu2 1_555 1_555
H11 O16 1_555 1_555
O17 Cu3 1_555 1_555
H12 O17 1_555 1_555
O18 Cu3 1_555 1_555
H13 O18 1_555 1_555
H14 O18 1_555 1_555
H15 O15 1_555 1_555
H16 O17 1_555 1_555
H17 O16 1_555 1_555
Cu4 O20 1_555 1_555
Cu7 O30 1_555 1_555
C13 H18 1_555 1_555
C14 C13 1_555 1_555
H19 C14 1_555 1_555
C15 C14 1_555 1_555
H20 C15 1_555 1_555
C16 C15 1_555 1_555
H21 C16 1_555 1_555
C17 C16 1_555 1_555
H22 C17 1_555 1_555
C18 C13 1_555 1_555
H23 C18 1_555 1_555
C19 C13 1_555 1_555
C21 C15 1_555 1_555
C22 C16 1_555 1_555
C23 C17 1_555 1_555
C24 C18 1_555 1_555
O19 Cu1 1_555 1_555
O20 C19 1_555 1_555
O28 C22 1_555 1_555
O29 C23 1_555 1_555
O30 C23 1_555 1_555
O31 Cu7 1_555 1_555
O33 Cu3 1_555 1_555
O34 Cu7 1_555 1_555
H26 O14 1_555 1_555
O35 Cu1 1_555 1_555
H27 O35 1_555 1_555
O36 Cu4 1_555 1_555
H28 O36 1_555 1_555
O37 Cu7 1_555 1_555
H29 O37 1_555 1_555
O38 Cu7 1_555 1_555
H30 O38 1_555 1_555
H31 O38 1_555 1_555
H32 O35 1_555 1_555
H33 O37 1_555 1_555
H34 O36 1_555 1_555
C5 C6 1_555 1_555
C12 O11 1_555 1_555
C17 C18 1_555 1_555
C19 O19 1_555 1_555
C24 O31 1_555 1_555
O4 C8 1_555 1_555
H7 O7 1_555 1_555
Cu8 O12 1_555 1_555
Cu9 O32 1_555 1_555
O22 C20 1_555 1_555
H24 O27 1_555 1_555
C8 O3 1_555 1_555
C20 O21 1_555 1_555
Cu1_2 O1_2 1_555 1_555
Cu9 O10_2 1_555 1_555
C1_2 H1_2 1_555 1_555
C2_2 C1_2 1_555 1_555
H2_2 C2_2 1_555 1_555
C3_2 C2_2 1_555 1_555
H3_2 C3_2 1_555 1_555
C4_2 C3_2 1_555 1_555
H4_2 C4_2 1_555 1_555
C5_2 C4_2 1_555 1_555
H5_2 C5_2 1_555 1_555
C6_2 C1_2 1_555 1_555
H6_2 C6_2 1_555 1_555
C7_2 C1_2 1_555 1_555
C8_2 C2_2 1_555 1_555
C9_2 C3_2 1_555 1_555
C10_2 C4_2 1_555 1_555
C11_2 C5_2 1_555 1_555
C12_2 C6_2 1_555 1_555
O1_2 C7_2 1_555 1_555
O4_2 C8_2 1_555 1_555
O5_2 C9_2 1_555 1_555
O6_2 C9_2 1_555 1_555
O7_2 C10_2 1_555 1_555
H7_2 O7_2 1_555 1_555
O8_2 C10_2 1_555 1_555
O9_2 C11_2 1_555 1_555
O10_2 C11_2 1_555 1_555
O11_2 Cu9 1_555 1_555
O34 C12_2 1_555 1_555
O13_2 Cu1_2 1_555 1_555
H8_2 O13_2 1_555 1_555
O14_2 Cu1_2 1_555 1_555
O17_2 Cu9 1_555 1_555
H12_2 O17_2 1_555 1_555
O18_2 Cu9 1_555 1_555
H13_2 O18_2 1_555 1_555
H14_2 O18_2 1_555 1_555
H16_2 O17_2 1_555 1_555
Cu4_2 O20_2 1_555 1_555
Cu5_2 O5_2 1_555 1_555
O25_2 Cu4_2 1_555 1_555
O35_2 Cu1_2 1_555 1_555
H27_2 O35_2 1_555 1_555
O36_2 Cu4_2 1_555 1_555
H28_2 O36_2 1_555 1_555
H32_2 O35_2 1_555 1_555
H34_2 O36_2 1_555 1_555
C5_2 C6_2 1_555 1_555
C8_2 O3_2 1_555 1_555
C12_2 O11_2 1_555 1_555
Cu6_2 O23_2 1_555 1_555
Cu2_2 O2_2 1_555 1_555
O13_3 Cu1_3 1_555 1_555
O14_3 Cu1_3 1_555 1_555
O15_2 Cu1_3 1_555 1_555
H10_2 O15_2 1_555 1_555
O16_2 Cu2_2 1_555 1_555
H11_2 O16_2 1_555 1_555
H15_2 O15_2 1_555 1_555
H17_2 O16_2 1_555 1_555
Cu8 O30_2 1_555 1_555
C13_2 H18_2 1_555 1_555
C14_2 C13_2 1_555 1_555
H19_2 C14_2 1_555 1_555
C15_2 C14_2 1_555 1_555
H20_2 C15_2 1_555 1_555
C16_2 C15_2 1_555 1_555
H21_2 C16_2 1_555 1_555
C17_2 C16_2 1_555 1_555
H22_2 C17_2 1_555 1_555
C18_2 C13_2 1_555 1_555
H23_2 C18_2 1_555 1_555
C19_2 C13_2 1_555 1_555
C20_2 C14_2 1_555 1_555
C21_2 C15_2 1_555 1_555
C22_2 C16_2 1_555 1_555
C23_2 C17_2 1_555 1_555
C24_2 C18_2 1_555 1_555
O19_2 Cu1_3 1_555 1_555
O22_2 C20_2 1_555 1_555
O24_2 Cu2_2 1_555 1_555
O27_2 C22_2 1_555 1_555
H24_2 O27_2 1_555 1_555
O28_2 C22_2 1_555 1_555
O29_2 C23_2 1_555 1_555
O30_2 C23_2 1_555 1_555
O31_2 Cu8 1_555 1_555
O33 C24_2 1_555 1_555
H25_2 O13_3 1_555 1_555
O37_2 Cu8 1_555 1_555
H29_2 O37_2 1_555 1_555
O38_2 Cu8 1_555 1_555
H30_2 O38_2 1_555 1_555
H31_2 O38_2 1_555 1_555
H33_2 O37_2 1_555 1_555
C17_2 C18_2 1_555 1_555
C19_2 O19_2 1_555 1_555
C20_2 O21_2 1_555 1_555
C24_2 O31_2 1_555 1_555
O4_3 C8_3 1_555 1_555
H7_3 O7_3 1_555 1_555
Cu8_2 O12_2 1_555 1_555
Cu9_2 O32_2 1_555 1_555
O22_3 C20_3 1_555 1_555
H24_3 O27_3 1_555 1_555
C8_3 O3_3 1_555 1_555
C20_3 O21_3 1_555 1_555
Cu1_4 O1_3 1_555 1_555
Cu5 O2_3 1_555 1_555
Cu3_2 O10_3 1_555 1_555
C1_3 H1_3 1_555 1_555
C2_3 C1_3 1_555 1_555
H2_3 C2_3 1_555 1_555
C3_3 C2_3 1_555 1_555
H3_3 C3_3 1_555 1_555
C4_3 C3_3 1_555 1_555
H4_3 C4_3 1_555 1_555
C5_3 C4_3 1_555 1_555
H5_3 C5_3 1_555 1_555
C6_3 C1_3 1_555 1_555
H6_3 C6_3 1_555 1_555
C7_3 C1_3 1_555 1_555
C9_3 C3_3 1_555 1_555
C10_3 C4_3 1_555 1_555
C11_3 C5_3 1_555 1_555
C12_3 C6_3 1_555 1_555
O1_3 C7_3 1_555 1_555
O2_3 C7_3 1_555 1_555
O24 C9_3 1_555 1_555
O6_3 C9_3 1_555 1_555
O8_3 C10_3 1_555 1_555
O9_3 C11_3 1_555 1_555
O10_3 C11_3 1_555 1_555
O11_3 Cu3_2 1_555 1_555
O13_4 Cu1_4 1_555 1_555
O14_4 Cu1_4 1_555 1_555
H9_2 O14_4 1_555 1_555
O15_3 Cu1_4 1_555 1_555
H10_3 O15_3 1_555 1_555
O16_3 Cu5 1_555 1_555
H11_3 O16_3 1_555 1_555
O17_3 Cu3_2 1_555 1_555
H12_3 O17_3 1_555 1_555
O18_3 Cu3_2 1_555 1_555
H13_3 O18_3 1_555 1_555
H14_3 O18_3 1_555 1_555
H15_3 O15_3 1_555 1_555
H16_3 O17_3 1_555 1_555
H17_3 O16_3 1_555 1_555
Cu6 O20_3 1_555 1_555
Cu7_2 O30_3 1_555 1_555
C13_3 H18_3 1_555 1_555
C14_3 C13_3 1_555 1_555
H19_3 C14_3 1_555 1_555
C15_3 C14_3 1_555 1_555
H20_3 C15_3 1_555 1_555
C16_3 C15_3 1_555 1_555
H21_3 C16_3 1_555 1_555
C17_3 C16_3 1_555 1_555
H22_3 C17_3 1_555 1_555
C18_3 C13_3 1_555 1_555
H23_3 C18_3 1_555 1_555
C19_3 C13_3 1_555 1_555
C21_3 C15_3 1_555 1_555
C22_3 C16_3 1_555 1_555
C23_3 C17_3 1_555 1_555
C24_3 C18_3 1_555 1_555
O19_3 Cu1_4 1_555 1_555
O20_3 C19_3 1_555 1_555
O28_3 C22_3 1_555 1_555
O29_3 C23_3 1_555 1_555
O30_3 C23_3 1_555 1_555
O31_3 Cu7_2 1_555 1_555
O33_2 Cu3_2 1_555 1_555
O34_2 Cu7_2 1_555 1_555
H26_2 O14_4 1_555 1_555
O35_3 Cu1_4 1_555 1_555
H27_3 O35_3 1_555 1_555
O36_3 Cu6 1_555 1_555
H28_3 O36_3 1_555 1_555
O37_3 Cu7_2 1_555 1_555
H29_3 O37_3 1_555 1_555
O38_3 Cu7_2 1_555 1_555
H30_3 O38_3 1_555 1_555
H31_3 O38_3 1_555 1_555
H32_3 O35_3 1_555 1_555
H33_3 O37_3 1_555 1_555
H34_3 O36_3 1_555 1_555
C5_3 C6_3 1_555 1_555
C12_3 O11_3 1_555 1_555
C17_3 C18_3 1_555 1_555
C19_3 O19_3 1_555 1_555
C24_3 O31_3 1_555 1_555
Cu5_2 O2_4 1_555 1_555
O13_5 Cu1_5 1_555 1_555
O14_5 Cu1_5 1_555 1_555
O15_4 Cu1_5 1_555 1_555
H10_4 O15_4 1_555 1_555
O16_4 Cu5_2 1_555 1_555
H11_4 O16_4 1_555 1_555
H15_4 O15_4 1_555 1_555
H17_4 O16_4 1_555 1_555
Cu8_2 O30_4 1_555 1_555
C13_4 H18_4 1_555 1_555
C14_4 C13_4 1_555 1_555
H19_4 C14_4 1_555 1_555
C15_4 C14_4 1_555 1_555
H20_4 C15_4 1_555 1_555
C16_4 C15_4 1_555 1_555
H21_4 C16_4 1_555 1_555
C17_4 C16_4 1_555 1_555
H22_4 C17_4 1_555 1_555
C18_4 C13_4 1_555 1_555
H23_4 C18_4 1_555 1_555
C19_4 C13_4 1_555 1_555
C20_4 C14_4 1_555 1_555
C21_4 C15_4 1_555 1_555
C22_4 C16_4 1_555 1_555
C23_4 C17_4 1_555 1_555
C24_4 C18_4 1_555 1_555
O19_4 Cu1_5 1_555 1_555
O22_4 C20_4 1_555 1_555
O27_4 C22_4 1_555 1_555
H24_4 O27_4 1_555 1_555
O28_4 C22_4 1_555 1_555
O29_4 C23_4 1_555 1_555
O30_4 C23_4 1_555 1_555
O31_4 Cu8_2 1_555 1_555
O33_2 C24_4 1_555 1_555
H25_4 O13_5 1_555 1_555
O37_4 Cu8_2 1_555 1_555
H29_4 O37_4 1_555 1_555
O38_4 Cu8_2 1_555 1_555
H30_4 O38_4 1_555 1_555
H31_4 O38_4 1_555 1_555
H33_4 O37_4 1_555 1_555
C17_4 C18_4 1_555 1_555
C19_4 O19_4 1_555 1_555
C20_4 O21_4 1_555 1_555
C24_4 O31_4 1_555 1_555
Cu1_6 O1_4 1_555 1_555
Cu9_2 O10_4 1_555 1_555
C1_4 H1_4 1_555 1_555
C2_4 C1_4 1_555 1_555
H2_4 C2_4 1_555 1_555
C3_4 C2_4 1_555 1_555
H3_4 C3_4 1_555 1_555
C4_4 C3_4 1_555 1_555
H4_4 C4_4 1_555 1_555
C5_4 C4_4 1_555 1_555
H5_4 C5_4 1_555 1_555
C6_4 C1_4 1_555 1_555
H6_4 C6_4 1_555 1_555
C7_4 C1_4 1_555 1_555
C8_4 C2_4 1_555 1_555
C9_4 C3_4 1_555 1_555
C10_4 C4_4 1_555 1_555
C11_4 C5_4 1_555 1_555
C12_4 C6_4 1_555 1_555
O1_4 C7_4 1_555 1_555
O4_4 C8_4 1_555 1_555
O24_2 C9_4 1_555 1_555
O6_4 C9_4 1_555 1_555
O7_4 C10_4 1_555 1_555
H7_4 O7_4 1_555 1_555
O8_4 C10_4 1_555 1_555
O9_4 C11_4 1_555 1_555
O10_4 C11_4 1_555 1_555
O11_4 Cu9_2 1_555 1_555
O34_2 C12_4 1_555 1_555
O13_6 Cu1_6 1_555 1_555
H8_4 O13_6 1_555 1_555
O14_6 Cu1_6 1_555 1_555
O17_4 Cu9_2 1_555 1_555
H12_4 O17_4 1_555 1_555
O18_4 Cu9_2 1_555 1_555
H13_4 O18_4 1_555 1_555
H14_4 O18_4 1_555 1_555
H16_4 O17_4 1_555 1_555
Cu6_2 O20_4 1_555 1_555
O35_4 Cu1_6 1_555 1_555
H27_4 O35_4 1_555 1_555
O36_4 Cu6_2 1_555 1_555
H28_4 O36_4 1_555 1_555
H32_4 O35_4 1_555 1_555
H34_4 O36_4 1_555 1_555
C5_4 C6_4 1_555 1_555
C8_4 O3_4 1_555 1_555
C12_4 O11_4 1_555 1_555

#END
