
###############################################################################
#
# This file contains modified crystal structure data generated from the
# MOF subset of the Cambridge Structural Database (CSD) v543 
# hosted by the Cambridge Crystallographic Data Centre (CCDC).
#
# This work is licensed under the Creative Commons
# Attribution-NonCommercial-ShareAlike 4.0 International License.
# To view a copy of this license, visit
# http://creativecommons.org/licenses/by-nc-sa/4.0/
# or send a letter to
# Creative Commons, PO Box 1866, Mountain View, CA 94042, USA.
#
# CIF created using the CSD Python API on 29 September 2022
# The structure has been converted into the P1 space group
# The structure has a 3D framework
# The original CSD entry PATWOY is in the triclinic crystal system
# The framework has been calculated to contain at least 10.0% void space
# The void calculation uses a probe of radius 1.32A, grid spacing 0.4
#
###############################################################################

data_PATWOY
_chemical_formula_moiety         '(C98 H68 N6 O14 Zn4)n'
_symmetry_cell_setting           triclinic
_symmetry_space_group_name_H-M   'P 1'
_symmetry_Int_Tables_number      1
_space_group_name_Hall           'P 1'
loop_
_symmetry_equiv_pos_site_id
_symmetry_equiv_pos_as_xyz
1 x,y,z
_cell_length_a                   9.4710(11)
_cell_length_b                   17.3579(17)
_cell_length_c                   19.6831(19)
_cell_angle_alpha                76.227(3)
_cell_angle_beta                 83.232(3)
_cell_angle_gamma                88.407(3)
_cell_volume                     3120.89
loop_
_atom_site_label
_atom_site_type_symbol
_atom_site_fract_x
_atom_site_fract_y
_atom_site_fract_z
O15 O 0.1529(3) 0.01141(18) 0.08719(16)
Zn6 Zn 0.86866(4) 0.04619(2) 0.98953(2)
Zn2 Zn 0.0000 0.5000 1.0000
O2 O 0.9742(3) 0.88535(16) 0.07429(17)
C1 C 0.2049(5) 0.0885(3) 0.1909(3)
H3 H 0.2639 0.0460 0.1856
O6 O 0.7712(3) 0.95222(17) 0.06010(16)
N1 N 0.3269(3) 0.41573(19) 0.39502(17)
N2 N 0.1578(3) 0.4089(2) 0.99084(18)
N3 N 0.7048(3) 0.12438(19) 0.98473(17)
C2 C 0.2473(5) 0.2268(3) 0.3494(2)
H4 H 0.2560 0.1726 0.3676
C3 C 0.2335(5) 0.1346(3) 0.2362(3)
H5 H 0.3101 0.1218 0.2624
C4 C 0.2923(5) 0.2796(2) 0.3849(2)
H6 H 0.3324 0.2606 0.4267
C6 C 0.6178(4) 0.8312(2) 0.1593(2)
H7 H 0.5709 0.8792 0.1454
C7 C 0.0500(4) 0.4058(3) 0.5469(2)
C8 C 0.0292(4) 0.2145(2) 0.2079(2)
C9 C 0.0872(4) 0.1059(2) 0.1531(2)
C10 C 0.5451(4) 0.7677(2) 0.2029(2)
H10 H 0.4498 0.7736 0.2187
C11 C 0.8288(4) 0.7522(2) 0.1577(2)
H11 H 0.9250 0.7469 0.1434
C12 C 0.2178(4) 0.3893(2) 0.2973(2)
H12 H 0.2066 0.4436 0.2801
C14 C 0.1887(4) 0.2550(2) 0.2859(2)
C15 C 0.7559(4) 0.6884(2) 0.2004(2)
H14 H 0.8031 0.6404 0.2139
C17 C 0.1736(4) 0.3360(2) 0.2606(2)
H16 H 0.1338 0.3552 0.2188
C18 C 0.7623(4) 0.8247(2) 0.1354(2)
C19 C 0.4311(4) 0.6277(2) 0.3245(2)
H17 H 0.4078 0.6769 0.3338
C20 C 0.2582(4) 0.4159(2) 0.4630(2)
C21 C 0.3368(4) 0.4351(2) 0.5126(2)
H18 H 0.4345 0.4425 0.5019
C22 C 0.0602(4) 0.0593(2) 0.1007(2)
C25 C 0.2681(4) 0.4200(3) 0.9408(2)
H21 H 0.2721 0.4671 0.9062
C26 C 0.3750(4) 0.3667(2) 0.9371(2)
H22 H 0.4501 0.3780 0.9013
C27 C 0.4977(4) 0.4813(2) 0.2976(2)
H23 H 0.5200 0.4322 0.2879
C28 C 0.4863(4) 0.2352(2) 0.9869(2)
C30 C 0.6237(4) 0.2584(2) 0.9592(2)
H25 H 0.6449 0.3118 0.9407
C31 C 0.1485(4) 0.2006(2) 0.2434(2)
C32 C 0.6112(4) 0.6938(2) 0.2241(2)
C33 C 0.3949(4) 0.4859(2) 0.3543(2)
C34 C 0.5339(4) 0.6227(2) 0.2689(2)
C35 C 0.1144(4) 0.3999(3) 0.4819(2)
H26 H 0.0610 0.3850 0.4504
C36 C 0.1077(4) 0.4979(2) 0.6944(2)
H27 H 0.1760 0.5339 0.6682
C37 C 0.1253(4) 0.4291(2) 0.5959(2)
C38 C 0.2721(4) 0.4431(2) 0.5767(2)
H28 H 0.3260 0.4581 0.6080
C39 C 0.0586(4) 0.4394(2) 0.6648(2)
C42 C 0.3710(4) 0.2954(2) 0.9872(2)
C43 C 0.2783(4) 0.3607(2) 0.3591(2)
C44 C 0.5645(4) 0.5471(2) 0.2573(2)
H30 H 0.6330 0.5421 0.2206
C45 C 0.8421(4) 0.8924(2) 0.0860(2)
C46 C 0.0572(4) 0.5032(2) 0.7617(2)
H31 H 0.0930 0.5417 0.7808
C47 C 0.3638(4) 0.5606(2) 0.3658(2)
H32 H 0.2954 0.5655 0.4026
C48 C 0.7291(4) 0.2022(2) 0.9591(2)
H33 H 0.8210 0.2189 0.9404
O13 O 0.1497(3) 0.59322(16) 0.95963(15)
H35 H 0.2001 0.6120 0.9901
H36 H 0.1648 0.6152 0.9114
O18 O 0.2288(3) 0.04778(17) 0.93990(16)
Zn1 Zn 0.13134(4) 0.95381(2) 0.01047(2)
N7 N 0.2952(3) 0.87562(19) 0.01527(17)
Zn2_2 Zn 1.0000 0.5000 0.0000
O4 O 0.8503(3) 0.40678(16) 0.04037(15)
H1 H 0.7999 0.3880 0.0099
H2 H 0.8352 0.3848 0.0886
O9 O 0.0258(3) 0.11465(16) 0.92571(17)
O14 O 0.8471(3) 0.98859(18) 0.91281(16)
C50 C 0.7951(5) 0.9115(3) 0.8091(3)
H37 H 0.7361 0.9540 0.8144
N4 N 0.6731(3) 0.58427(19) 0.60498(17)
N5 N 0.8422(3) 0.5911(2) 0.00916(18)
C51 C 0.7527(5) 0.7732(3) 0.6506(2)
H38 H 0.7440 0.8274 0.6324
C52 C 0.7665(5) 0.8654(3) 0.7638(3)
H39 H 0.6899 0.8782 0.7376
C53 C 0.7077(5) 0.7204(2) 0.6151(2)
H40 H 0.6676 0.7394 0.5733
C55 C 0.3822(4) 0.1688(2) 0.8407(2)
H41 H 0.4291 0.1208 0.8546
C56 C 0.9500(4) 0.5942(3) 0.4531(2)
C57 C 0.9708(4) 0.7855(2) 0.7921(2)
C58 C 0.9128(4) 0.8941(2) 0.8469(2)
C59 C 0.4549(4) 0.2323(2) 0.7971(2)
H44 H 0.5502 0.2264 0.7813
C60 C 0.1712(4) 0.2478(2) 0.8423(2)
H45 H 0.0750 0.2531 0.8566
C61 C 0.7822(4) 0.6107(2) 0.7027(2)
H46 H 0.7934 0.5564 0.7199
C63 C 0.8113(4) 0.7450(2) 0.7141(2)
C64 C 0.2441(4) 0.3116(2) 0.7996(2)
H48 H 0.1969 0.3596 0.7861
C66 C 0.8264(4) 0.6640(2) 0.7394(2)
H50 H 0.8662 0.6448 0.7812
C67 C 0.2377(4) 0.1753(2) 0.8646(2)
C68 C 0.5689(4) 0.3723(2) 0.6755(2)
H51 H 0.5922 0.3231 0.6662
C69 C 0.7418(4) 0.5841(2) 0.5370(2)
C70 C 0.6632(4) 0.5649(2) 0.4874(2)
H52 H 0.5655 0.5575 0.4981
C71 C 0.9398(4) 0.9407(2) 0.8993(2)
C74 C 0.7319(4) 0.5800(3) 0.0592(2)
H55 H 0.7279 0.5329 0.0938
C75 C 0.6250(4) 0.6333(2) 0.0629(2)
H56 H 0.5499 0.6220 0.0987
C76 C 0.5023(4) 0.5187(2) 0.7024(2)
H57 H 0.4800 0.5678 0.7121
C77 C 0.5137(4) 0.7648(2) 0.0131(2)
C79 C 0.3763(4) 0.7416(2) 0.0408(2)
H59 H 0.3551 0.6882 0.0593
C80 C 0.8515(4) 0.7994(2) 0.7566(2)
C81 C 0.3888(4) 0.3062(2) 0.7759(2)
C82 C 0.6051(4) 0.5141(2) 0.6457(2)
C83 C 0.4661(4) 0.3773(2) 0.7311(2)
C84 C 0.8856(4) 0.6001(3) 0.5181(2)
H60 H 0.9390 0.6150 0.5496
C85 C 0.8923(4) 0.5021(2) 0.3056(2)
H61 H 0.8240 0.4661 0.3318
C86 C 0.8747(4) 0.5709(2) 0.4041(2)
C87 C 0.7279(4) 0.5569(2) 0.4233(2)
H62 H 0.6740 0.5419 0.3920
C88 C 0.9414(4) 0.5606(2) 0.3352(2)
C91 C 0.6290(4) 0.7046(2) 0.0128(2)
C92 C 0.7217(4) 0.6393(2) 0.6409(2)
C93 C 0.4355(4) 0.4529(2) 0.7427(2)
H64 H 0.3670 0.4579 0.7794
C94 C 0.1579(4) 0.1076(2) 0.9140(2)
C95 C 0.9428(4) 0.4968(2) 0.2383(2)
H65 H 0.9070 0.4583 0.2192
C96 C 0.6362(4) 0.4394(2) 0.6342(2)
H66 H 0.7046 0.4345 0.5974
C97 C 0.2709(4) 0.7978(2) 0.0409(2)
H67 H 0.1790 0.7811 0.0596
O11 O 0.0521(3) 0.92480(18) 0.92695(17)
Zn2_3 Zn 0.0000 0.5000 0.0000
C24 C 0.4595(4) 0.1541(2) 0.0132(2)
H20 H 0.3680 0.1360 0.0315
C29 C 0.2571(4) 0.2829(3) 0.0404(3)
H24 H 0.2504 0.2367 0.0761
C41 C 0.5707(4) 0.1012(2) 0.0118(2)
H29 H 0.5526 0.0474 0.0301
C49 C 0.1540(4) 0.3416(2) 0.0382(2)
H34 H 0.0767 0.3324 0.0728
O8 O 0.1867(4) 0.5943(2) 0.08944(17)
O20 O 0.0392(3) 0.49236(16) 0.10182(14)
C54 C 0.0973(4) 0.5459(3) 0.1241(2)
H42 H 0.0463 0.6059 0.4414
H43 H 0.0317 0.7441 0.7858
C62 C 0.1029(4) 0.6042(3) 0.2290(2)
H47 H 0.1758 0.6377 0.2037
C65 C 0.0012(4) 0.8320(2) 0.8369(2)
H49 H 0.0818 0.8213 0.8604
C72 C 0.0506(4) 0.6103(2) 0.2962(2)
H53 H 0.0886 0.6479 0.3156
C89 C 0.0476(4) 0.5489(2) 0.1989(2)
Zn2_4 Zn 1.0000 0.5000 1.0000
O1 O 0.8133(4) 0.4057(2) 0.91056(17)
O3 O 0.9479(3) 0.07520(18) 0.07305(17)
O7 O 0.9608(3) 0.50764(16) 0.89818(14)
C5 C 0.9027(4) 0.4541(3) 0.8759(2)
H8 H 0.9537 0.3941 0.5586
H9 H 0.9683 0.2559 0.2142
C13 C 0.8971(4) 0.3958(3) 0.7710(2)
H13 H 0.8242 0.3623 0.7963
C16 C 0.9988(4) 0.1680(2) 0.1631(2)
H15 H 0.9182 0.1787 0.1396
C23 C 0.9494(4) 0.3897(2) 0.7038(2)
H19 H 0.9114 0.3521 0.6844
C40 C 0.9524(4) 0.4511(2) 0.8011(2)
C73 C 0.5405(4) 0.8459(2) 0.9868(2)
H54 H 0.6320 0.8640 0.9685
C78 C 0.7429(4) 0.7171(3) 0.9596(3)
H58 H 0.7496 0.7633 0.9239
C90 C 0.4293(4) 0.8988(2) 0.9882(2)
H63 H 0.4474 0.9526 0.9699
C98 C 0.8460(4) 0.6584(2) 0.9618(2)
H68 H 0.9233 0.6676 0.9272
loop_
_geom_bond_atom_site_label_1
_geom_bond_atom_site_label_2
_geom_bond_site_symmetry_1
_geom_bond_site_symmetry_2
O2 C45 1_555 1_555
O15 C22 1_555 1_555
C1 H3 1_555 1_555
O6 C45 1_555 1_555
N1 C20 1_555 1_555
N2 Zn2 1_555 1_555
C2 H4 1_555 1_555
C3 C1 1_555 1_555
H5 C3 1_555 1_555
C4 C2 1_555 1_555
H6 C4 1_555 1_555
C6 H7 1_555 1_555
C9 C1 1_555 1_555
C10 C6 1_555 1_555
H10 C10 1_555 1_555
C11 H11 1_555 1_555
C12 H12 1_555 1_555
C14 C2 1_555 1_555
C15 C11 1_555 1_555
H14 C15 1_555 1_555
C17 C12 1_555 1_555
H16 C17 1_555 1_555
C18 C6 1_555 1_555
C19 H17 1_555 1_555
C20 C21 1_555 1_555
C21 H18 1_555 1_555
C22 C9 1_555 1_555
C25 N2 1_555 1_555
H21 C25 1_555 1_555
C26 C25 1_555 1_555
H22 C26 1_555 1_555
C27 H23 1_555 1_555
C30 C28 1_555 1_555
H25 C30 1_555 1_555
C31 C3 1_555 1_555
C32 C10 1_555 1_555
C33 N1 1_555 1_555
C34 C19 1_555 1_555
C35 C7 1_555 1_555
H26 C35 1_555 1_555
C36 H27 1_555 1_555
C37 C7 1_555 1_555
C38 C21 1_555 1_555
H28 C38 1_555 1_555
C42 C26 1_555 1_555
C43 N1 1_555 1_555
C44 C27 1_555 1_555
H30 C44 1_555 1_555
C45 C18 1_555 1_555
C46 C36 1_555 1_555
H31 C46 1_555 1_555
C47 C19 1_555 1_555
H32 C47 1_555 1_555
C48 N3 1_555 1_555
H33 C48 1_555 1_555
Zn6 N3 1_555 1_555
O13 Zn2 1_555 1_555
H35 O13 1_555 1_555
H36 O13 1_555 1_555
C4 C43 1_555 1_555
C8 C31 1_555 1_555
C11 C18 1_555 1_555
C12 C43 1_555 1_555
C14 C17 1_555 1_555
C14 C31 1_555 1_555
C15 C32 1_555 1_555
C20 C35 1_555 1_555
C27 C33 1_555 1_555
C28 C42 1_555 1_555
C30 C48 1_555 1_555
C32 C34 1_555 1_555
C33 C47 1_555 1_555
C34 C44 1_555 1_555
C36 C39 1_555 1_555
C37 C38 1_555 1_555
C37 C39 1_555 1_555
N7 Zn1 1_555 1_555
Zn2_2 O4 1_555 1_555
O4 H1 1_555 1_555
H2 O4 1_555 1_555
O9 C94 1_555 1_555
O14 C71 1_555 1_555
C50 H37 1_555 1_555
O18 C94 1_555 1_555
N4 C69 1_555 1_555
N5 Zn2_2 1_555 1_555
C51 H38 1_555 1_555
C52 C50 1_555 1_555
H39 C52 1_555 1_555
C53 C51 1_555 1_555
H40 C53 1_555 1_555
C55 H41 1_555 1_555
C58 C50 1_555 1_555
C59 C55 1_555 1_555
H44 C59 1_555 1_555
C60 H45 1_555 1_555
C61 H46 1_555 1_555
C63 C51 1_555 1_555
C64 C60 1_555 1_555
H48 C64 1_555 1_555
C66 C61 1_555 1_555
H50 C66 1_555 1_555
C67 C55 1_555 1_555
C68 H51 1_555 1_555
C69 C70 1_555 1_555
C70 H52 1_555 1_555
C71 C58 1_555 1_555
C74 N5 1_555 1_555
H55 C74 1_555 1_555
C75 C74 1_555 1_555
H56 C75 1_555 1_555
C76 H57 1_555 1_555
C79 C77 1_555 1_555
H59 C79 1_555 1_555
C80 C52 1_555 1_555
C81 C59 1_555 1_555
C82 N4 1_555 1_555
C83 C68 1_555 1_555
C84 C56 1_555 1_555
H60 C84 1_555 1_555
C85 H61 1_555 1_555
C86 C56 1_555 1_555
C87 C70 1_555 1_555
H62 C87 1_555 1_555
C91 C75 1_555 1_555
C92 N4 1_555 1_555
C93 C76 1_555 1_555
H64 C93 1_555 1_555
C94 C67 1_555 1_555
C95 C85 1_555 1_555
H65 C95 1_555 1_555
C96 C68 1_555 1_555
H66 C96 1_555 1_555
C97 N7 1_555 1_555
H67 C97 1_555 1_555
C53 C92 1_555 1_555
C57 C80 1_555 1_555
C60 C67 1_555 1_555
C61 C92 1_555 1_555
C63 C66 1_555 1_555
C63 C80 1_555 1_555
C64 C81 1_555 1_555
C69 C84 1_555 1_555
C76 C82 1_555 1_555
C77 C91 1_555 1_555
C79 C97 1_555 1_555
C81 C83 1_555 1_555
C82 C96 1_555 1_555
C83 C93 1_555 1_555
C85 C88 1_555 1_555
C86 C87 1_555 1_555
C86 C88 1_555 1_555
C24 H20 1_555 1_555
C29 H24 1_555 1_555
C41 C24 1_555 1_555
H29 C41 1_555 1_555
H34 C49 1_555 1_555
O8 C54 1_555 1_555
O20 Zn2_3 1_555 1_555
C54 O20 1_555 1_555
C62 H47 1_555 1_555
H49 C65 1_555 1_555
C72 C62 1_555 1_555
H53 C72 1_555 1_555
C89 C54 1_555 1_555
C29 C49 1_555 1_555
C62 C89 1_555 1_555
O1 C5 1_555 1_555
O7 Zn2_4 1_555 1_555
C5 O7 1_555 1_555
C13 H13 1_555 1_555
H15 C16 1_555 1_555
C23 C13 1_555 1_555
H19 C23 1_555 1_555
C40 C5 1_555 1_555
C73 H54 1_555 1_555
C78 H58 1_555 1_555
C90 C73 1_555 1_555
H63 C90 1_555 1_555
H68 C98 1_555 1_555
C13 C40 1_555 1_555
C78 C98 1_555 1_555

#END
