
###############################################################################
#
# This file contains modified crystal structure data generated from the
# MOF subset of the Cambridge Structural Database (CSD) v543 
# hosted by the Cambridge Crystallographic Data Centre (CCDC).
#
# This work is licensed under the Creative Commons
# Attribution-NonCommercial-ShareAlike 4.0 International License.
# To view a copy of this license, visit
# http://creativecommons.org/licenses/by-nc-sa/4.0/
# or send a letter to
# Creative Commons, PO Box 1866, Mountain View, CA 94042, USA.
#
# CIF created using the CSD Python API on 29 September 2022
# The structure has been converted into the P1 space group
# The structure has a 3D framework
# The original CSD entry PAVKIH is in the monoclinic crystal system
# The framework has been calculated to contain at least 10.0% void space
# The void calculation uses a probe of radius 1.32A, grid spacing 0.4
# The framework is charged, counterions have been retained in the structure
#
###############################################################################

data_PAVKIH
_chemical_formula_moiety         '(C328 H272 Ag33 F72 N80 O104 S24 9+)n'
_symmetry_cell_setting           triclinic
_symmetry_space_group_name_H-M   'P 1'
_symmetry_Int_Tables_number      1
_space_group_name_Hall           'P 1'
loop_
_symmetry_equiv_pos_site_id
_symmetry_equiv_pos_as_xyz
1 x,y,z
_cell_length_a                   24.0395(4)
_cell_length_b                   14.8168(3)
_cell_length_c                   42.3734(6)
_cell_angle_alpha                90
_cell_angle_beta                 97.1210(10)
_cell_angle_gamma                90
_cell_volume                     14976.5
loop_
_atom_site_label
_atom_site_type_symbol
_atom_site_fract_x
_atom_site_fract_y
_atom_site_fract_z
Ag5 Ag 0.0000 0.5000 0.5000
C29 C 0.0033(7) 0.4328(11) 0.5676(4)
H29 H 0.0425 0.4403 0.5675
H30 H 0.0097 0.3627 0.6086
O12 O 0.0465(4) 0.5667(7) 0.6401(3)
O13 O 0.0010(5) 0.6861(10) 0.6095(3)
O14 O 0.0696(5) 0.7161(8) 0.6554(2)
S2 S 0.04892(16) 0.6590(3) 0.62989(9)
C78 C 0.1032(8) 0.6590(15) 0.6051(5)
F4 F 0.1508(4) 0.6226(8) 0.6173(3)
F5 F 0.1132(4) 0.7392(7) 0.5938(2)
F6 F 0.0869(7) 0.6091(9) 0.5770(3)
Ag9 Ag 0.17127(4) 0.88835(8) 0.76811(3)
Ag11 Ag 0.33102(4) 0.66321(8) 0.72656(3)
N21 N 0.0948(5) 0.8112(8) 0.7586(3)
C79 C 0.0816(6) 0.7650(10) 0.7307(3)
H69 H 0.1061 0.7680 0.7148
C80 C 0.0320(6) 0.7128(9) 0.7250(3)
H70 H 0.0222 0.6822 0.7054
C82 C 0.0140(5) 0.7527(8) 0.7770(3)
C83 C 0.0631(6) 0.8039(10) 0.7802(3)
H72 H 0.0733 0.8352 0.7996
N24 N 0.2610(4) 0.5778(7) 0.7080(3)
C86 C 0.2095(6) 0.6063(9) 0.7032(4)
H76 H 0.2024 0.6671 0.7086
C87 C 0.1643(5) 0.5540(8) 0.6906(3)
H77 H 0.1273 0.5774 0.6867
C88 C 0.1772(5) 0.4634(9) 0.6842(3)
C89 C 0.2305(5) 0.4329(8) 0.6900(3)
H78 H 0.2391 0.3714 0.6866
C90 C 0.2721(5) 0.4928(10) 0.7010(3)
H79 H 0.3100 0.4729 0.7037
N26 N 0.1323(4) 0.4032(6) 0.6719(2)
C91 C 0.1402(6) 0.3554(11) 0.6422(3)
H80 H 0.1078 0.3165 0.6358
H81 H 0.1438 0.3996 0.6253
H82 H 0.1742 0.3185 0.6456
C92 C 0.0806(5) 0.4026(8) 0.6801(3)
O16 O 0.0423(3) 0.3640(6) 0.66491(19)
N32 N 0.0332(5) 0.5340(9) 0.4573(2)
N35 N 0.0208(4) 0.4868(6) 0.7109(2)
C119 C 0.0698(5) 0.4463(8) 0.7110(3)
C120 C 0.1056(5) 0.4325(8) 0.7400(2)
H107 H 0.1403 0.4020 0.7399
C121 C 0.0888(5) 0.4643(9) 0.7686(3)
H108 H 0.1111 0.4548 0.7884
C122 C 0.0386(5) 0.5100(10) 0.7667(3)
H109 H 0.0257 0.5335 0.7853
C123 C 0.0086(6) 0.5208(9) 0.7386(3)
C10 C 0.1772(5) 0.0366(9) 0.1842(3)
C11 C 0.2305(5) 0.0671(8) 0.1900(3)
H10 H 0.2391 0.1286 0.1866
C12 C 0.2721(5) 0.0072(10) 0.2010(3)
H11 H 0.3100 0.0271 0.2037
N4 N 0.1323(4) 0.0968(6) 0.1719(2)
C13 C 0.1402(6) 0.1446(11) 0.1422(3)
H12 H 0.1078 0.1835 0.1358
H13 H 0.1438 0.1004 0.1253
H14 H 0.1742 0.1815 0.1456
C14 C 0.0806(5) 0.0974(8) 0.1801(3)
O2 O 0.0423(3) 0.1360(6) 0.16491(19)
N12 N 0.0208(4) 0.0132(6) 0.2109(2)
C41 C 0.0698(5) 0.0537(8) 0.2110(3)
C42 C 0.1056(5) 0.0675(8) 0.2400(2)
H39 H 0.1403 0.0980 0.2399
C43 C 0.0888(5) 0.0357(9) 0.2686(3)
H40 H 0.1111 0.0452 0.2884
Ag1 Ag 0.17127(4) 0.61165(8) 0.26811(3)
Ag2 Ag 0.33102(4) 0.83679(8) 0.22656(3)
Ag3 Ag 0.74829(4) 0.77625(7) 0.49791(2)
Ag4 Ag 0.5000 0.5000 0.5000
Ag5_2 Ag 1.0000 0.5000 0.5000
Ag6 Ag 0.53616(4) 0.45955(7) 0.33702(2)
Ag7 Ag 0.96468(4) 0.50218(7) 0.66376(2)
N1 N 0.0948(5) 0.6888(8) 0.2586(3)
C1 C 0.0816(6) 0.7350(10) 0.2307(3)
H1 H 0.1061 0.7320 0.2148
C2 C 0.0320(6) 0.7872(9) 0.2250(3)
H2 H 0.0222 0.8178 0.2054
C4 C 0.0140(5) 0.7473(8) 0.2770(3)
C5 C 0.0631(6) 0.6961(10) 0.2802(3)
H4 H 0.0733 0.6648 0.2996
N3 N 0.2610(4) 0.9222(7) 0.2080(3)
C8 C 0.2095(6) 0.8937(9) 0.2032(4)
H8 H 0.2024 0.8329 0.2086
C9 C 0.1643(5) 0.9460(8) 0.1906(3)
H9 H 0.1273 0.9226 0.1867
N5 N 0.8083(4) 0.7878(7) 0.5390(2)
C15 C 0.8040(5) 0.8500(9) 0.5628(3)
H15 H 0.7792 0.8994 0.5580
C16 C 0.8321(6) 0.8459(9) 0.5922(3)
H16 H 0.8293 0.8932 0.6070
C17 C 0.8665(5) 0.7683(9) 0.6007(3)
C18 C 0.8755(5) 0.7085(11) 0.5774(3)
H17 H 0.9012 0.6602 0.5823
C19 C 0.8479(6) 0.7168(10) 0.5465(3)
H18 H 0.8554 0.6752 0.5305
N6 N 0.8931(4) 0.7590(7) 0.6316(2)
C20 C 0.9279(6) 0.8355(9) 0.6461(3)
H19 H 0.9438 0.8192 0.6678
H20 H 0.9584 0.8479 0.6334
H21 H 0.9045 0.8894 0.6468
C21 C 0.8963(6) 0.6811(9) 0.6477(3)
O3 O 0.9289(4) 0.6687(6) 0.67181(18)
N7 N 0.5311(5) 0.4425(10) 0.4586(3)
C22 C 0.5860(6) 0.4339(11) 0.4579(3)
H22 H 0.6113 0.4603 0.4744
C23 C 0.6067(6) 0.3874(12) 0.4338(4)
H23 H 0.6461 0.3834 0.4336
C24 C 0.5705(6) 0.3457(10) 0.4096(3)
C25 C 0.5147(6) 0.3594(9) 0.4100(3)
H24 H 0.4888 0.3387 0.3928
C26 C 0.4956(7) 0.4027(13) 0.4351(3)
H25 H 0.4564 0.4051 0.4361
N8 N 0.5905(5) 0.2967(8) 0.3837(3)
C27 C 0.5607(7) 0.2080(9) 0.3782(4)
H26 H 0.5751 0.1762 0.3606
H27 H 0.5204 0.2187 0.3728
H28 H 0.5672 0.1712 0.3975
C28 C 0.6327(6) 0.3199(10) 0.3682(3)
O4 O 0.6540(5) 0.2696(8) 0.3502(2)
N9 N 0.9668(5) 0.4660(9) 0.5427(2)
C30 C 0.9837(6) 0.3890(10) 0.5926(3)
C31 C 0.9287(6) 0.3827(10) 0.5947(4)
C32 C 0.8891(7) 0.4126(10) 0.5700(3)
H31 H 0.8498 0.4056 0.5700
C33 C 0.9133(6) 0.4538(10) 0.5457(3)
H32 H 0.8876 0.4764 0.5286
N10 N 0.9090(5) 0.3310(7) 0.6200(3)
C34 C 0.9340(6) 0.2406(11) 0.6278(4)
H33 H 0.9166 0.2139 0.6453
H34 H 0.9273 0.2014 0.6091
H35 H 0.9744 0.2469 0.6341
C35 C 0.8664(7) 0.3573(10) 0.6357(3)
O5 O 0.8464(4) 0.3075(8) 0.6561(2)
N11 N 0.4791(4) 0.4390(7) 0.2903(2)
C36 C 0.4306(5) 0.3948(8) 0.2906(3)
C37 C 0.3960(5) 0.3818(9) 0.2618(3)
H36 H 0.3620 0.3493 0.2621
C38 C 0.4092(5) 0.4141(9) 0.2330(3)
H37 H 0.3855 0.4051 0.2136
C39 C 0.4600(5) 0.4610(8) 0.2347(3)
H38 H 0.4720 0.4842 0.2157
C40 C 0.4927(6) 0.4741(10) 0.2631(3)
C44 C 0.0386(5) 0.9900(10) 0.2667(3)
H41 H 0.0257 0.9665 0.2853
C45 C 0.0086(6) 0.9792(9) 0.2386(3)
N13 N 0.4037(5) 0.7557(7) 0.2378(3)
C46 C 0.4196(5) 0.7147(8) 0.2645(3)
H42 H 0.3959 0.7189 0.2808
C47 C 0.4704(6) 0.6633(8) 0.2712(3)
H43 H 0.4798 0.6363 0.2915
C48 C 0.5032(6) 0.6542(9) 0.2494(4)
C49 C 0.4873(5) 0.6975(10) 0.2194(3)
H44 H 0.5094 0.6891 0.2025
C50 C 0.4413(6) 0.7504(9) 0.2150(3)
H45 H 0.4341 0.7848 0.1961
N14 N 0.5518(4) 0.6011(6) 0.2525(2)
C51 C 0.6055(6) 0.6415(9) 0.2484(3)
H46 H 0.6349 0.5953 0.2513
H47 H 0.6141 0.6895 0.2642
H48 H 0.6038 0.6670 0.2270
C52 C 0.5506(6) 0.5184(10) 0.2649(3)
O6 O 0.5944(4) 0.4748(6) 0.2750(2)
N15 N 0.2386(4) 0.5307(7) 0.2890(3)
C53 C 0.2917(6) 0.5584(11) 0.2957(3)
H49 H 0.3000 0.6193 0.2910
C54 C 0.3353(5) 0.5043(9) 0.3089(3)
H50 H 0.3723 0.5277 0.3131
C55 C 0.3243(5) 0.4175(8) 0.3156(2)
C56 C 0.2683(6) 0.3854(10) 0.3092(3)
H51 H 0.2588 0.3248 0.3136
C57 C 0.2301(5) 0.4441(10) 0.2968(3)
H52 H 0.1926 0.4228 0.2931
N16 N 0.3674(4) 0.3558(7) 0.3293(2)
C58 C 0.3611(6) 0.3102(11) 0.3595(3)
H53 H 0.3936 0.2710 0.3656
H54 H 0.3269 0.2737 0.3570
H55 H 0.3588 0.3554 0.3762
C59 C 0.4206(5) 0.3600(9) 0.3208(3)
O7 O 0.4589(4) 0.3195(7) 0.3382(2)
N17 N 0.6888(5) 0.7738(8) 0.4569(2)
C60 C 0.6927(7) 0.8268(10) 0.4314(3)
H56 H 0.7159 0.8787 0.4349
C61 C 0.6670(7) 0.8142(11) 0.4007(3)
H57 H 0.6735 0.8544 0.3841
C62 C 0.6303(6) 0.7392(10) 0.3948(3)
C63 C 0.6235(6) 0.6844(9) 0.4214(3)
H58 H 0.5990 0.6339 0.4190
C64 C 0.6511(6) 0.7032(9) 0.4501(3)
H59 H 0.6445 0.6649 0.4672
N18 N 0.6051(4) 0.7209(7) 0.3648(2)
C65 C 0.5716(6) 0.7983(10) 0.3477(3)
H60 H 0.5552 0.7782 0.3266
H61 H 0.5965 0.8497 0.3456
H62 H 0.5415 0.8165 0.3601
C66 C 0.6028(5) 0.6385(10) 0.3517(3)
O8 O 0.5719(4) 0.6224(6) 0.3269(2)
N19 N 0.6223(4) 0.4809(8) 0.3638(2)
C67 C 0.6441(5) 0.5700(10) 0.3656(3)
C68 C 0.6992(6) 0.5836(11) 0.3768(3)
H63 H 0.7135 0.6433 0.3786
C69 C 0.7333(6) 0.5138(10) 0.3853(3)
H64 H 0.7715 0.5251 0.3927
C70 C 0.7142(5) 0.4263(10) 0.3835(3)
H65 H 0.7382 0.3764 0.3890
C71 C 0.6566(6) 0.4157(9) 0.3728(3)
N20 N 0.8788(4) 0.5239(8) 0.6383(2)
C72 C 0.8429(6) 0.4495(10) 0.6314(3)
C73 C 0.7863(6) 0.4655(13) 0.6204(3)
H66 H 0.7629 0.4154 0.6140
C74 C 0.7640(6) 0.5482(10) 0.6186(3)
H67 H 0.7249 0.5572 0.6127
C75 C 0.8005(5) 0.6210(10) 0.6256(3)
H68 H 0.7872 0.6813 0.6235
C76 C 0.8565(6) 0.6035(9) 0.6359(3)
O9 O 0.4519(4) 0.5217(6) 0.3598(2)
O10 O 0.4999(5) 0.6513(9) 0.3867(3)
O11 O 0.4287(5) 0.6724(8) 0.3416(3)
S1 S 0.45053(16) 0.6168(3) 0.36765(9)
C77 C 0.3967(6) 0.6222(11) 0.3944(4)
F1 F 0.4128(5) 0.5814(8) 0.4221(2)
F2 F 0.3498(4) 0.5853(8) 0.3817(2)
F3 F 0.3874(4) 0.7094(7) 0.4024(2)
Ag8 Ag 0.82873(4) 0.38835(8) 0.73189(3)
Ag10 Ag 0.66898(4) 0.16321(8) 0.77344(3)
Ag12 Ag 0.25171(4) 0.22375(7) 0.50209(2)
Ag14 Ag 0.46384(4) 0.54045(7) 0.66298(2)
Ag15 Ag 0.03532(4) 0.49782(7) 0.33624(2)
N22 N 0.9052(5) 0.3112(8) 0.7414(3)
C81 C 0.9975(5) 0.7082(8) 0.7499(3)
H71 H 0.9922 0.7492 0.7942
N23 N 0.9499(4) 0.6526(7) 0.7459(3)
C84 C 0.8965(6) 0.6938(9) 0.7475(4)
H73 H 0.9019 0.7562 0.7549
H74 H 0.8749 0.6934 0.7263
H75 H 0.8762 0.6600 0.7623
C85 C 0.9491(7) 0.5607(13) 0.7355(3)
O15 O 0.9073(4) 0.5241(6) 0.7260(2)
N25 N 0.7390(4) 0.0778(7) 0.7920(3)
N27 N 0.1917(4) 0.2122(7) 0.4610(2)
C93 C 0.1960(5) 0.1500(9) 0.4372(3)
H83 H 0.2208 0.1006 0.4420
C94 C 0.1679(6) 0.1541(9) 0.4078(3)
H84 H 0.1707 0.1068 0.3930
C95 C 0.1335(5) 0.2317(9) 0.3993(3)
C96 C 0.1245(5) 0.2915(11) 0.4226(3)
H85 H 0.0988 0.3398 0.4177
C97 C 0.1521(6) 0.2832(10) 0.4535(3)
H86 H 0.1446 0.3248 0.4695
N28 N 0.1069(4) 0.2410(7) 0.3684(2)
C98 C 0.0721(6) 0.1645(9) 0.3539(3)
H87 H 0.0562 0.1808 0.3322
H88 H 0.0416 0.1521 0.3666
H89 H 0.0955 0.1106 0.3532
C99 C 0.1037(6) 0.3189(9) 0.3523(3)
O17 O 0.0711(4) 0.3313(6) 0.32819(18)
N29 N 0.4689(5) 0.5575(10) 0.5414(3)
C100 C 0.4140(6) 0.5661(11) 0.5421(3)
H90 H 0.3887 0.5397 0.5256
C101 C 0.3933(6) 0.6126(12) 0.5662(4)
H91 H 0.3539 0.6166 0.5664
C102 C 0.4295(6) 0.6543(10) 0.5904(3)
C103 C 0.4853(6) 0.6406(9) 0.5900(3)
H92 H 0.5112 0.6613 0.6072
C104 C 0.5044(7) 0.5973(13) 0.5649(3)
H93 H 0.5436 0.5949 0.5639
N30 N 0.4095(5) 0.7033(8) 0.6163(3)
C105 C 0.4393(7) 0.7920(9) 0.6218(4)
H94 H 0.4249 0.8238 0.6394
H95 H 0.4796 0.7813 0.6272
H96 H 0.4328 0.8288 0.6025
C106 C 0.3673(6) 0.6801(10) 0.6318(3)
O18 O 0.3460(5) 0.7304(8) 0.6498(2)
C108 C 0.0163(6) 0.6110(10) 0.4074(3)
C109 C 0.0713(6) 0.6173(10) 0.4053(4)
C110 C 0.1109(7) 0.5874(10) 0.4300(3)
H99 H 0.1502 0.5944 0.4300
C111 C 0.0867(6) 0.5462(10) 0.4543(3)
H100 H 0.1124 0.5236 0.4714
N33 N 0.0910(5) 0.6690(7) 0.3800(3)
C112 C 0.0660(6) 0.7594(11) 0.3722(4)
H101 H 0.0834 0.7861 0.3547
H102 H 0.0727 0.7986 0.3909
H103 H 0.0256 0.7531 0.3659
C113 C 0.1336(7) 0.6427(10) 0.3643(3)
O19 O 0.1536(4) 0.6925(8) 0.3439(2)
N34 N 0.5209(4) 0.5610(7) 0.7097(2)
C114 C 0.5694(5) 0.6052(8) 0.7094(3)
C115 C 0.6040(5) 0.6182(9) 0.7382(3)
H104 H 0.6380 0.6507 0.7379
C116 C 0.5908(5) 0.5859(9) 0.7670(3)
H105 H 0.6145 0.5949 0.7864
C117 C 0.5400(5) 0.5390(8) 0.7653(3)
H106 H 0.5280 0.5158 0.7843
C118 C 0.5073(6) 0.5259(10) 0.7369(3)
N37 N 0.5963(5) 0.2443(7) 0.7622(3)
C124 C 0.5804(5) 0.2853(8) 0.7355(3)
H110 H 0.6041 0.2811 0.7192
C125 C 0.5296(6) 0.3367(8) 0.7288(3)
H111 H 0.5202 0.3637 0.7085
C126 C 0.4968(6) 0.3458(9) 0.7506(4)
C127 C 0.5127(5) 0.3025(10) 0.7806(3)
H112 H 0.4906 0.3109 0.7975
C128 C 0.5587(6) 0.2496(9) 0.7850(3)
H113 H 0.5659 0.2152 0.8039
N38 N 0.4482(4) 0.3989(6) 0.7475(2)
C129 C 0.3945(6) 0.3585(9) 0.7516(3)
H114 H 0.3651 0.4047 0.7487
H115 H 0.3859 0.3105 0.7358
H116 H 0.3962 0.3330 0.7730
C130 C 0.4494(6) 0.4816(10) 0.7351(3)
O20 O 0.4056(4) 0.5252(6) 0.7250(2)
N39 N 0.7614(4) 0.4693(7) 0.7110(3)
C131 C 0.7083(6) 0.4416(11) 0.7043(3)
H117 H 0.7000 0.3807 0.7090
C132 C 0.6647(5) 0.4957(9) 0.6911(3)
H118 H 0.6277 0.4723 0.6869
C133 C 0.6757(5) 0.5825(8) 0.6844(2)
C134 C 0.7317(6) 0.6146(10) 0.6908(3)
H119 H 0.7412 0.6752 0.6864
C135 C 0.7699(5) 0.5559(10) 0.7032(3)
H120 H 0.8074 0.5772 0.7069
N40 N 0.6326(4) 0.6442(7) 0.6707(2)
C136 C 0.6389(6) 0.6898(11) 0.6405(3)
H121 H 0.6064 0.7290 0.6344
H122 H 0.6731 0.7263 0.6430
H123 H 0.6412 0.6446 0.6238
C137 C 0.5794(5) 0.6400(9) 0.6792(3)
O21 O 0.5411(4) 0.6805(7) 0.6618(2)
N41 N 0.3112(5) 0.2262(8) 0.5431(2)
C138 C 0.3073(7) 0.1732(10) 0.5686(3)
H124 H 0.2841 0.1213 0.5651
C139 C 0.3330(7) 0.1858(11) 0.5993(3)
H125 H 0.3265 0.1456 0.6159
C140 C 0.3697(6) 0.2608(10) 0.6052(3)
C141 C 0.3765(6) 0.3156(9) 0.5786(3)
H126 H 0.4010 0.3661 0.5810
C142 C 0.3489(6) 0.2968(9) 0.5499(3)
H127 H 0.3555 0.3351 0.5328
N42 N 0.3949(4) 0.2791(7) 0.6352(2)
C143 C 0.4284(6) 0.2017(10) 0.6523(3)
H128 H 0.4448 0.2218 0.6734
H129 H 0.4035 0.1503 0.6544
H130 H 0.4585 0.1835 0.6399
C144 C 0.3972(5) 0.3615(10) 0.6483(3)
O22 O 0.4281(4) 0.3776(6) 0.6731(2)
N43 N 0.3777(4) 0.5191(8) 0.6362(2)
C145 C 0.3559(5) 0.4300(10) 0.6344(3)
C146 C 0.3008(6) 0.4164(11) 0.6232(3)
H131 H 0.2865 0.3567 0.6214
C147 C 0.2667(6) 0.4862(10) 0.6147(3)
H132 H 0.2285 0.4749 0.6073
C148 C 0.2858(5) 0.5737(10) 0.6165(3)
H133 H 0.2618 0.6236 0.6110
C149 C 0.3434(6) 0.5843(9) 0.6272(3)
N44 N 0.1212(4) 0.4761(8) 0.3617(2)
C150 C 0.1571(6) 0.5505(10) 0.3686(3)
C151 C 0.2137(6) 0.5345(13) 0.3796(3)
H134 H 0.2371 0.5846 0.3860
C152 C 0.2360(6) 0.4518(10) 0.3814(3)
H135 H 0.2751 0.4428 0.3873
C153 C 0.1995(5) 0.3790(10) 0.3744(3)
H136 H 0.2128 0.3187 0.3765
C154 C 0.1435(6) 0.3965(9) 0.3641(3)
O23 O 0.5481(4) 0.4783(6) 0.6402(2)
O24 O 0.5001(5) 0.3487(9) 0.6133(3)
O25 O 0.5713(5) 0.3276(8) 0.6584(3)
S3 S 0.54947(16) 0.3832(3) 0.63235(9)
C155 C 0.6033(6) 0.3778(11) 0.6056(4)
F7 F 0.5872(5) 0.4186(8) 0.5779(2)
F8 F 0.6502(4) 0.4147(8) 0.6183(2)
F9 F 0.6126(4) 0.2906(7) 0.5976(2)
C3 C 0.9975(5) 0.7918(8) 0.2499(3)
H3 H 0.9922 0.7508 0.2942
N2 N 0.9499(4) 0.8474(7) 0.2459(3)
C6 C 0.8965(6) 0.8062(9) 0.2475(4)
H5 H 0.9019 0.7438 0.2549
H6 H 0.8749 0.8066 0.2263
H7 H 0.8762 0.8400 0.2623
C7 C 0.9491(7) 0.9393(13) 0.2355(3)
O1 O 0.9073(4) 0.9759(6) 0.2260(2)
Ag16 Ag 0.96468(4) 0.99782(7) 0.16376(2)
C107 C 0.9967(7) 0.5672(11) 0.4324(4)
H97 H 0.9575 0.5597 0.4325
H98 H 0.9903 0.6373 0.3914
N36 N 0.9792(4) 0.5132(6) 0.2891(2)
O26 O 0.9535(4) 0.4333(7) 0.3599(3)
O27 O 0.9990(5) 0.3139(10) 0.3905(3)
O28 O 0.9304(5) 0.2839(8) 0.3446(2)
S4 S 0.95108(16) 0.3410(3) 0.37011(9)
C156 C 0.8968(8) 0.3410(15) 0.3949(5)
F10 F 0.8492(4) 0.3774(8) 0.3827(3)
F11 F 0.8868(4) 0.2608(7) 0.4062(2)
F12 F 0.9131(7) 0.3909(9) 0.4230(3)
C3_2 C 0.0025(5) 0.2918(8) 0.2501(3)
H3_2 H 0.0078 0.2508 0.2058
N2_2 N 0.0501(4) 0.3474(7) 0.2541(3)
C6_2 C 0.1035(6) 0.3062(9) 0.2525(4)
H5_2 H 0.0981 0.2438 0.2451
H6_2 H 0.1251 0.3066 0.2737
H7_2 H 0.1238 0.3400 0.2377
C7_2 C 0.0509(7) 0.4393(13) 0.2645(3)
O1_2 O 0.0927(4) 0.4759(6) 0.2740(2)
Ag13 Ag -0.0000 0.0000 -0.0000
C107_2 C 0.0033(7) 0.0672(11) 0.0676(4)
H97_2 H 0.0425 0.0597 0.0675
H98_2 H 0.0097 0.1373 0.1086
Ag13_2 Ag 0.0000 -0.0000 1.0000
Ag13_3 Ag 0.0000 1.0000 -0.0000
O26_2 O 0.0465(4) 0.9333(7) 0.1401(3)
O27_2 O 0.0010(5) 0.8139(10) 0.1095(3)
O28_2 O 0.0696(5) 0.7839(8) 0.1554(2)
S4_2 S 0.04892(16) 0.8410(3) 0.12989(9)
C156_2 C 0.1032(8) 0.8410(15) 0.1051(5)
F10_2 F 0.1508(4) 0.8774(8) 0.1173(3)
F11_2 F 0.1132(4) 0.7608(7) 0.0938(2)
F12_2 F 0.0869(7) 0.8909(9) 0.0770(3)
Ag13_4 Ag 0.0000 1.0000 1.0000
Ag1_2 Ag 0.82873(4) 0.11165(8) 0.23189(3)
Ag2_2 Ag 0.66898(4) 0.33679(8) 0.27344(3)
Ag3_2 Ag 0.25171(4) 0.27625(7) 0.00209(2)
Ag4_2 Ag 0.5000 0.0000 -0.0000
N1_2 N 0.9052(5) 0.1888(8) 0.2414(3)
C1_2 C 0.9184(6) 0.2350(10) 0.2693(3)
H1_2 H 0.8939 0.2320 0.2852
C2_2 C 0.9680(6) 0.2872(9) 0.2750(3)
H2_2 H 0.9778 0.3178 0.2946
C4_2 C 0.9860(5) 0.2473(8) 0.2230(3)
C5_2 C 0.9369(6) 0.1961(10) 0.2198(3)
H4_2 H 0.9267 0.1648 0.2004
N3_2 N 0.7390(4) 0.4222(7) 0.2920(3)
C8_2 C 0.7905(6) 0.3937(9) 0.2968(4)
H8_2 H 0.7976 0.3329 0.2914
C9_2 C 0.8357(5) 0.4460(8) 0.3094(3)
H9_2 H 0.8727 0.4226 0.3133
C10_2 C 0.8228(5) 0.5366(9) 0.3158(3)
C11_2 C 0.7695(5) 0.5671(8) 0.3100(3)
H10_2 H 0.7609 0.6286 0.3134
C12_2 C 0.7279(5) 0.5072(10) 0.2990(3)
H11_2 H 0.6900 0.5271 0.2963
N4_2 N 0.8677(4) 0.5968(6) 0.3281(2)
C13_2 C 0.8598(6) 0.6446(11) 0.3578(3)
H12_2 H 0.8922 0.6835 0.3642
H13_2 H 0.8562 0.6004 0.3747
H14_2 H 0.8258 0.6815 0.3544
C14_2 C 0.9194(5) 0.5974(8) 0.3199(3)
O2_2 O 0.9577(3) 0.6360(6) 0.33509(19)
C41_2 C 0.9302(5) 0.5537(8) 0.2890(3)
C42_2 C 0.8944(5) 0.5675(8) 0.2600(2)
H39_2 H 0.8597 0.5980 0.2601
C43_2 C 0.9112(5) 0.5357(9) 0.2314(3)
H40_2 H 0.8889 0.5452 0.2116
C44_2 C 0.9614(5) 0.4900(10) 0.2333(3)
H41_2 H 0.9743 0.4665 0.2147
C45_2 C 0.9914(6) 0.4792(9) 0.2614(3)
N13_2 N 0.5963(5) 0.2557(7) 0.2622(3)
C46_2 C 0.5804(5) 0.2147(8) 0.2355(3)
H42_2 H 0.6041 0.2189 0.2192
C47_2 C 0.5296(6) 0.1633(8) 0.2288(3)
H43_2 H 0.5202 0.1363 0.2085
C48_2 C 0.4968(6) 0.1542(9) 0.2506(4)
C49_2 C 0.5127(5) 0.1975(10) 0.2806(3)
H44_2 H 0.4906 0.1891 0.2975
C50_2 C 0.5587(6) 0.2504(9) 0.2850(3)
H45_2 H 0.5659 0.2848 0.3039
N14_2 N 0.4482(4) 0.1011(6) 0.2475(2)
C51_2 C 0.3945(6) 0.1415(9) 0.2516(3)
H46_2 H 0.3651 0.0953 0.2487
H47_2 H 0.3859 0.1895 0.2358
H48_2 H 0.3962 0.1670 0.2730
C52_2 C 0.4494(6) 0.0184(10) 0.2351(3)
N15_2 N 0.7614(4) 0.0307(7) 0.2110(3)
C53_2 C 0.7083(6) 0.0584(11) 0.2043(3)
H49_2 H 0.7000 0.1193 0.2090
C54_2 C 0.6647(5) 0.0043(9) 0.1911(3)
H50_2 H 0.6277 0.0277 0.1869
N17_2 N 0.3112(5) 0.2738(8) 0.0431(2)
C60_2 C 0.3073(7) 0.3268(10) 0.0686(3)
H56_2 H 0.2841 0.3787 0.0651
C61_2 C 0.3330(7) 0.3142(11) 0.0993(3)
H57_2 H 0.3265 0.3544 0.1159
C62_2 C 0.3697(6) 0.2392(10) 0.1052(3)
C63_2 C 0.3765(6) 0.1844(9) 0.0786(3)
H58_2 H 0.4010 0.1339 0.0810
C64_2 C 0.3489(6) 0.2032(9) 0.0499(3)
H59_2 H 0.3555 0.1649 0.0328
N18_2 N 0.3949(4) 0.2209(7) 0.1352(2)
C65_2 C 0.4284(6) 0.2983(10) 0.1523(3)
H60_2 H 0.4448 0.2782 0.1734
H61_2 H 0.4035 0.3497 0.1544
H62_2 H 0.4585 0.3165 0.1399
C66_2 C 0.3972(5) 0.1385(10) 0.1483(3)
O8_2 O 0.4281(4) 0.1224(6) 0.1731(2)
C67_2 C 0.3559(5) 0.0700(10) 0.1344(3)
C68_2 C 0.3008(6) 0.0836(11) 0.1232(3)
H63_2 H 0.2865 0.1433 0.1214
C69_2 C 0.2667(6) 0.0138(10) 0.1147(3)
H64_2 H 0.2285 0.0251 0.1073
O9_2 O 0.5481(4) 0.0217(6) 0.1402(2)
O10_2 O 0.5001(5) 0.1513(9) 0.1133(3)
O11_2 O 0.5713(5) 0.1724(8) 0.1584(3)
S1_2 S 0.54947(16) 0.1168(3) 0.13235(9)
C77_2 C 0.6033(6) 0.1222(11) 0.1056(4)
F1_2 F 0.5872(5) 0.0814(8) 0.0779(2)
F2_2 F 0.6502(4) 0.0853(8) 0.1183(2)
F3_2 F 0.6126(4) 0.2094(7) 0.0976(2)
Ag13_5 Ag 1.0000 0.0000 -0.0000
N31 N 0.9668(5) 0.0340(9) 0.0427(2)
C108_2 C 0.9837(6) 0.1110(10) 0.0926(3)
C109_2 C 0.9287(6) 0.1173(10) 0.0947(4)
C110_2 C 0.8891(7) 0.0874(10) 0.0700(3)
H99_2 H 0.8498 0.0944 0.0700
C111_2 C 0.9133(6) 0.0462(10) 0.0457(3)
H100_2 H 0.8876 0.0236 0.0286
N33_2 N 0.9090(5) 0.1690(7) 0.1200(3)
C112_2 C 0.9340(6) 0.2594(11) 0.1278(4)
H101_2 H 0.9166 0.2861 0.1453
H102_2 H 0.9273 0.2986 0.1091
H103_2 H 0.9744 0.2531 0.1341
C113_2 C 0.8664(7) 0.1427(10) 0.1357(3)
O19_2 O 0.8464(4) 0.1925(8) 0.1561(2)
C150_2 C 0.8429(6) 0.0505(10) 0.1314(3)
C151_2 C 0.7863(6) 0.0345(13) 0.1204(3)
H134_2 H 0.7629 0.0846 0.1140
Ag4_3 Ag 0.5000 -0.0000 1.0000
Ag7_2 Ag 0.03532(4) 0.00218(7) 0.83624(2)
N5_2 N 0.1917(4) 0.2878(7) 0.9610(2)
C15_2 C 0.1960(5) 0.3500(9) 0.9372(3)
H15_2 H 0.2208 0.3994 0.9420
C16_2 C 0.1679(6) 0.3459(9) 0.9078(3)
H16_2 H 0.1707 0.3932 0.8930
C17_2 C 0.1335(5) 0.2683(9) 0.8993(3)
C18_2 C 0.1245(5) 0.2085(11) 0.9226(3)
H17_2 H 0.0988 0.1602 0.9177
C19_2 C 0.1521(6) 0.2168(10) 0.9535(3)
H18_2 H 0.1446 0.1752 0.9695
N6_2 N 0.1069(4) 0.2590(7) 0.8684(2)
C20_2 C 0.0721(6) 0.3355(9) 0.8539(3)
H19_2 H 0.0562 0.3192 0.8322
H20_2 H 0.0416 0.3479 0.8666
H21_2 H 0.0955 0.3894 0.8532
C21_2 C 0.1037(6) 0.1811(9) 0.8523(3)
O3_2 O 0.0711(4) 0.1687(6) 0.82819(18)
N20_2 N 0.1212(4) 0.0239(8) 0.8617(2)
C74_2 C 0.2360(6) 0.0482(10) 0.8814(3)
H67_2 H 0.2751 0.0572 0.8873
C75_2 C 0.1995(5) 0.1210(10) 0.8744(3)
H68_2 H 0.2128 0.1813 0.8765
C76_2 C 0.1435(6) 0.1035(9) 0.8641(3)
Ag13_6 Ag 1.0000 -0.0000 1.0000
Ag14_2 Ag 0.53616(4) 0.04045(7) 0.83702(2)
C81_2 C 0.0025(5) 0.2082(8) 0.7501(3)
H71_2 H 0.0078 0.2492 0.7058
N23_2 N 0.0501(4) 0.1526(7) 0.7541(3)
C84_2 C 0.1035(6) 0.1938(9) 0.7525(4)
H73_2 H 0.0981 0.2562 0.7451
H74_2 H 0.1251 0.1934 0.7737
H75_2 H 0.1238 0.1600 0.7377
C85_2 C 0.0509(7) 0.0607(13) 0.7645(3)
O15_2 O 0.0927(4) 0.0241(6) 0.7740(2)
N29_2 N 0.5311(5) 0.0575(10) 0.9586(3)
C100_2 C 0.5860(6) 0.0661(11) 0.9579(3)
H90_2 H 0.6113 0.0397 0.9744
C101_2 C 0.6067(6) 0.1126(12) 0.9338(4)
H91_2 H 0.6461 0.1166 0.9336
C102_2 C 0.5705(6) 0.1543(10) 0.9096(3)
C103_2 C 0.5147(6) 0.1406(9) 0.9100(3)
H92_2 H 0.4888 0.1613 0.8928
C104_2 C 0.4956(7) 0.0973(13) 0.9351(3)
H93_2 H 0.4564 0.0949 0.9361
N30_2 N 0.5905(5) 0.2033(8) 0.8837(3)
C105_2 C 0.5607(7) 0.2920(9) 0.8782(4)
H94_2 H 0.5751 0.3238 0.8606
H95_2 H 0.5204 0.2813 0.8728
H96_2 H 0.5672 0.3288 0.8975
C106_2 C 0.6327(6) 0.1801(10) 0.8682(3)
O18_2 O 0.6540(5) 0.2304(8) 0.8502(2)
N34_2 N 0.4791(4) 0.0610(7) 0.7903(2)
C114_2 C 0.4306(5) 0.1052(8) 0.7906(3)
C115_2 C 0.3960(5) 0.1182(9) 0.7618(3)
H104_2 H 0.3620 0.1507 0.7621
C116_2 C 0.4092(5) 0.0859(9) 0.7330(3)
H105_2 H 0.3855 0.0949 0.7136
C117_2 C 0.4600(5) 0.0390(8) 0.7347(3)
H106_2 H 0.4720 0.0158 0.7157
C118_2 C 0.4927(6) 0.0259(10) 0.7631(3)
O20_2 O 0.5944(4) 0.0252(6) 0.7750(2)
C133_2 C 0.3243(5) 0.0825(8) 0.8156(2)
C134_2 C 0.2683(6) 0.1146(10) 0.8092(3)
H119_2 H 0.2588 0.1752 0.8136
C135_2 C 0.2301(5) 0.0559(10) 0.7968(3)
H120_2 H 0.1926 0.0772 0.7931
N40_2 N 0.3674(4) 0.1442(7) 0.8293(2)
C136_2 C 0.3611(6) 0.1898(11) 0.8595(3)
H121_2 H 0.3936 0.2290 0.8656
H122_2 H 0.3269 0.2263 0.8570
H123_2 H 0.3588 0.1446 0.8762
C137_2 C 0.4206(5) 0.1400(9) 0.8208(3)
O21_2 O 0.4589(4) 0.1805(7) 0.8382(2)
N43_2 N 0.6223(4) 0.0191(8) 0.8638(2)
C148_2 C 0.7142(5) 0.0737(10) 0.8835(3)
H133_2 H 0.7382 0.1236 0.8890
C149_2 C 0.6566(6) 0.0843(9) 0.8728(3)
Ag4_4 Ag 0.5000 1.0000 -0.0000
Ag6_2 Ag 0.46384(4) 0.95955(7) 0.16298(2)
N7_2 N 0.4689(5) 0.9425(10) 0.0414(3)
C22_2 C 0.4140(6) 0.9339(11) 0.0421(3)
H22_2 H 0.3887 0.9603 0.0256
C23_2 C 0.3933(6) 0.8874(12) 0.0662(4)
H23_2 H 0.3539 0.8834 0.0664
C24_2 C 0.4295(6) 0.8457(10) 0.0904(3)
C25_2 C 0.4853(6) 0.8594(9) 0.0900(3)
H24_2 H 0.5112 0.8387 0.1072
C26_2 C 0.5044(7) 0.9027(13) 0.0649(3)
H25_2 H 0.5436 0.9051 0.0639
N8_2 N 0.4095(5) 0.7967(8) 0.1163(3)
C27_2 C 0.4393(7) 0.7080(9) 0.1218(4)
H26_2 H 0.4249 0.6762 0.1394
H27_2 H 0.4796 0.7187 0.1272
H28_2 H 0.4328 0.6712 0.1025
C28_2 C 0.3673(6) 0.8199(10) 0.1318(3)
O4_2 O 0.3460(5) 0.7696(8) 0.1498(2)
N11_2 N 0.5209(4) 0.9390(7) 0.2097(2)
C36_2 C 0.5694(5) 0.8948(8) 0.2094(3)
C37_2 C 0.6040(5) 0.8818(9) 0.2382(3)
H36_2 H 0.6380 0.8493 0.2379
C38_2 C 0.5908(5) 0.9141(9) 0.2670(3)
H37_2 H 0.6145 0.9051 0.2864
C39_2 C 0.5400(5) 0.9610(8) 0.2653(3)
H38_2 H 0.5280 0.9842 0.2843
C40_2 C 0.5073(6) 0.9741(10) 0.2369(3)
O6_2 O 0.4056(4) 0.9748(6) 0.2250(2)
C55_2 C 0.6757(5) 0.9175(8) 0.1844(2)
C56_2 C 0.7317(6) 0.8854(10) 0.1908(3)
H51_2 H 0.7412 0.8248 0.1864
C57_2 C 0.7699(5) 0.9441(10) 0.2032(3)
H52_2 H 0.8074 0.9228 0.2069
N16_2 N 0.6326(4) 0.8558(7) 0.1707(2)
C58_2 C 0.6389(6) 0.8102(11) 0.1405(3)
H53_2 H 0.6064 0.7710 0.1344
H54_2 H 0.6731 0.7737 0.1430
H55_2 H 0.6412 0.8554 0.1238
C59_2 C 0.5794(5) 0.8600(9) 0.1792(3)
O7_2 O 0.5411(4) 0.8195(7) 0.1618(2)
N19_2 N 0.3777(4) 0.9809(8) 0.1362(2)
C70_2 C 0.2858(5) 0.9263(10) 0.1165(3)
H65_2 H 0.2618 0.8764 0.1110
C71_2 C 0.3434(6) 0.9157(9) 0.1272(3)
Ag13_7 Ag 1.0000 1.0000 -0.0000
N27_2 N 0.8083(4) 0.7122(7) 0.0390(2)
C93_2 C 0.8040(5) 0.6500(9) 0.0628(3)
H83_2 H 0.7792 0.6006 0.0580
C94_2 C 0.8321(6) 0.6541(9) 0.0922(3)
H84_2 H 0.8293 0.6068 0.1070
C95_2 C 0.8665(5) 0.7317(9) 0.1007(3)
C96_2 C 0.8755(5) 0.7915(11) 0.0774(3)
H85_2 H 0.9012 0.8398 0.0823
C97_2 C 0.8479(6) 0.7832(10) 0.0465(3)
H86_2 H 0.8554 0.8248 0.0305
N28_2 N 0.8931(4) 0.7410(7) 0.1316(2)
C98_2 C 0.9279(6) 0.6645(9) 0.1461(3)
H87_2 H 0.9438 0.6808 0.1678
H88_2 H 0.9584 0.6521 0.1334
H89_2 H 0.9045 0.6106 0.1468
C99_2 C 0.8963(6) 0.8189(9) 0.1477(3)
O17_2 O 0.9289(4) 0.8313(6) 0.17181(18)
N44_2 N 0.8788(4) 0.9761(8) 0.1383(2)
C152_2 C 0.7640(6) 0.9518(10) 0.1186(3)
H135_2 H 0.7249 0.9428 0.1127
C153_2 C 0.8005(5) 0.8790(10) 0.1256(3)
H136_2 H 0.7872 0.8187 0.1235
C154_2 C 0.8565(6) 0.8965(9) 0.1359(3)
Ag4_5 Ag 0.5000 1.0000 1.0000
N9_2 N 0.0332(5) 0.9660(9) 0.9573(2)
C30_2 C 0.0163(6) 0.8890(10) 0.9074(3)
C31_2 C 0.0713(6) 0.8827(10) 0.9053(4)
C32_2 C 0.1109(7) 0.9126(10) 0.9300(3)
H31_2 H 0.1502 0.9056 0.9300
C33_2 C 0.0867(6) 0.9538(10) 0.9543(3)
H32_2 H 0.1124 0.9764 0.9714
N10_2 N 0.0910(5) 0.8310(7) 0.8800(3)
C34_2 C 0.0660(6) 0.7406(11) 0.8722(4)
H33_2 H 0.0834 0.7139 0.8547
H34_2 H 0.0727 0.7014 0.8909
H35_2 H 0.0256 0.7469 0.8659
C35_2 C 0.1336(7) 0.8573(10) 0.8643(3)
O5_2 O 0.1536(4) 0.8075(8) 0.8439(2)
C72_2 C 0.1571(6) 0.9495(10) 0.8686(3)
C73_2 C 0.2137(6) 0.9655(13) 0.8796(3)
H66_2 H 0.2371 0.9154 0.8860
Ag12_2 Ag 0.74829(4) 0.72375(7) 0.99791(2)
Ag13_8 Ag 1.0000 1.0000 1.0000
N37_2 N 0.4037(5) 0.7443(7) 0.7378(3)
C124_2 C 0.4196(5) 0.7853(8) 0.7645(3)
H110_2 H 0.3959 0.7811 0.7808
C125_2 C 0.4704(6) 0.8367(8) 0.7712(3)
H111_2 H 0.4798 0.8637 0.7915
C126_2 C 0.5032(6) 0.8458(9) 0.7494(4)
C127_2 C 0.4873(5) 0.8025(10) 0.7194(3)
H112_2 H 0.5094 0.8109 0.7025
C128_2 C 0.4413(6) 0.7496(9) 0.7150(3)
H113_2 H 0.4341 0.7152 0.6961
N38_2 N 0.5518(4) 0.8989(6) 0.7525(2)
C129_2 C 0.6055(6) 0.8585(9) 0.7484(3)
H114_2 H 0.6349 0.9047 0.7513
H115_2 H 0.6141 0.8105 0.7642
H116_2 H 0.6038 0.8330 0.7270
C130_2 C 0.5506(6) 0.9816(10) 0.7649(3)
N39_2 N 0.2386(4) 0.9693(7) 0.7890(3)
C131_2 C 0.2917(6) 0.9416(11) 0.7957(3)
H117_2 H 0.3000 0.8807 0.7910
C132_2 C 0.3353(5) 0.9957(9) 0.8089(3)
H118_2 H 0.3723 0.9723 0.8131
N41_2 N 0.6888(5) 0.7262(8) 0.9569(2)
C138_2 C 0.6927(7) 0.6732(10) 0.9314(3)
H124_2 H 0.7159 0.6213 0.9349
C139_2 C 0.6670(7) 0.6858(11) 0.9007(3)
H125_2 H 0.6735 0.6456 0.8841
C140_2 C 0.6303(6) 0.7608(10) 0.8948(3)
C141_2 C 0.6235(6) 0.8156(9) 0.9214(3)
H126_2 H 0.5990 0.8661 0.9190
C142_2 C 0.6511(6) 0.7968(9) 0.9501(3)
H127_2 H 0.6445 0.8351 0.9672
N42_2 N 0.6051(4) 0.7791(7) 0.8648(2)
C143_2 C 0.5716(6) 0.7017(10) 0.8477(3)
H128_2 H 0.5552 0.7218 0.8266
H129_2 H 0.5965 0.6503 0.8456
H130_2 H 0.5415 0.6835 0.8601
C144_2 C 0.6028(5) 0.8615(10) 0.8517(3)
O22_2 O 0.5719(4) 0.8776(6) 0.8269(2)
C145_2 C 0.6441(5) 0.9300(10) 0.8656(3)
C146_2 C 0.6992(6) 0.9164(11) 0.8768(3)
H131_2 H 0.7135 0.8567 0.8786
C147_2 C 0.7333(6) 0.9862(10) 0.8853(3)
H132_2 H 0.7715 0.9749 0.8927
O23_2 O 0.4519(4) 0.9783(6) 0.8598(2)
O24_2 O 0.4999(5) 0.8487(9) 0.8867(3)
O25_2 O 0.4287(5) 0.8276(8) 0.8416(3)
S3_2 S 0.45053(16) 0.8832(3) 0.86765(9)
C155_2 C 0.3967(6) 0.8778(11) 0.8944(4)
F7_2 F 0.4128(5) 0.9186(8) 0.9221(2)
F8_2 F 0.3498(4) 0.9147(8) 0.8817(2)
F9_2 F 0.3874(4) 0.7906(7) 0.9024(2)
O12_2 O 0.9535(4) 0.0667(7) 0.8599(3)
O13_2 O 0.9990(5) 0.1861(10) 0.8905(3)
O14_2 O 0.9304(5) 0.2161(8) 0.8446(2)
S2_2 S 0.95108(16) 0.1590(3) 0.87011(9)
C78_2 C 0.8968(8) 0.1590(15) 0.8949(5)
F4_2 F 0.8492(4) 0.1226(8) 0.8827(3)
F5_2 F 0.8868(4) 0.2392(7) 0.9062(2)
F6_2 F 0.9131(7) 0.1091(9) 0.9230(3)
C79_2 C 0.9184(6) 0.2650(10) 0.7693(3)
H69_2 H 0.8939 0.2680 0.7852
C80_2 C 0.9680(6) 0.2128(9) 0.7750(3)
H70_2 H 0.9778 0.1822 0.7946
C82_2 C 0.9860(5) 0.2527(8) 0.7230(3)
C83_2 C 0.9369(6) 0.3039(10) 0.7198(3)
H72_2 H 0.9267 0.3352 0.7004
C86_2 C 0.7905(6) 0.1063(9) 0.7968(4)
H76_2 H 0.7976 0.1671 0.7914
C87_2 C 0.8357(5) 0.0540(8) 0.8094(3)
H77_2 H 0.8727 0.0774 0.8133
C122_2 C 0.9614(5) 0.0100(10) 0.7333(3)
H109_2 H 0.9743 0.0335 0.7147
C123_2 C 0.9914(6) 0.0208(9) 0.7614(3)
C29_2 C 0.9967(7) 0.9328(11) 0.9324(4)
H29_2 H 0.9575 0.9403 0.9325
H30_2 H 0.9903 0.8627 0.8914
C88_2 C 0.8228(5) 0.9634(9) 0.8158(3)
C89_2 C 0.7695(5) 0.9329(8) 0.8100(3)
H78_2 H 0.7609 0.8714 0.8134
C90_2 C 0.7279(5) 0.9928(10) 0.7990(3)
H79_2 H 0.6900 0.9729 0.7963
N26_2 N 0.8677(4) 0.9032(6) 0.8281(2)
C91_2 C 0.8598(6) 0.8554(11) 0.8578(3)
H80_2 H 0.8922 0.8165 0.8642
H81_2 H 0.8562 0.8996 0.8747
H82_2 H 0.8258 0.8185 0.8544
C92_2 C 0.9194(5) 0.9026(8) 0.8199(3)
O16_2 O 0.9577(3) 0.8640(6) 0.83509(19)
N35_2 N 0.9792(4) 0.9868(6) 0.7891(2)
C119_2 C 0.9302(5) 0.9463(8) 0.7890(3)
C120_2 C 0.8944(5) 0.9325(8) 0.7600(2)
H107_2 H 0.8597 0.9020 0.7601
C121_2 C 0.9112(5) 0.9643(9) 0.7314(3)
H108_2 H 0.8889 0.9548 0.7116
F15 F 0.6947(8) 0.0608(10) 0.0439(4)
O29 O 0.6810(7) 0.8225(10) 0.0271(3)
O30 O 0.6063(4) 0.9272(8) 0.0178(2)
O31 O 0.6533(5) 0.9035(8) 0.0710(2)
S5 S 0.65596(15) 0.9013(3) 0.03759(8)
C157 C 0.7066(8) 0.9860(14) 0.0309(4)
F13 F 0.7113(4) 0.9987(8) 0.00082(16)
F14 F 0.7563(5) 0.9660(11) 0.0446(3)
O29_2 O 0.3190(7) 0.3225(10) 0.4729(3)
O30_2 O 0.3937(4) 0.4272(8) 0.4822(2)
O31_2 O 0.3467(5) 0.4035(8) 0.4290(2)
S5_2 S 0.34404(15) 0.4013(3) 0.46241(8)
C157_2 C 0.2934(8) 0.4860(14) 0.4691(4)
F13_2 F 0.2887(4) 0.4987(8) 0.49918(16)
F14_2 F 0.2437(5) 0.4660(11) 0.4554(3)
F15_2 F 0.3053(8) 0.5608(10) 0.4561(4)
O29_3 O 0.3190(7) 0.1775(10) 0.9729(3)
O30_3 O 0.3937(4) 0.0728(8) 0.9822(2)
O31_3 O 0.3467(5) 0.0965(8) 0.9290(2)
S5_3 S 0.34404(15) 0.0987(3) 0.96241(8)
C157_3 C 0.2934(8) 0.0140(14) 0.9691(4)
F13_3 F 0.2887(4) 0.0013(8) 0.99918(16)
F14_3 F 0.2437(5) 0.0340(11) 0.9554(3)
F15_3 F 0.3053(8) 0.9392(10) 0.9561(4)
O29_4 O 0.6810(7) 0.6775(10) 0.5271(3)
O30_4 O 0.6063(4) 0.5728(8) 0.5178(2)
O31_4 O 0.6533(5) 0.5965(8) 0.5710(2)
S5_4 S 0.65596(15) 0.5987(3) 0.53759(8)
C157_4 C 0.7066(8) 0.5140(14) 0.5309(4)
F13_4 F 0.7113(4) 0.5013(8) 0.50082(16)
F14_4 F 0.7563(5) 0.5340(11) 0.5446(3)
F15_4 F 0.6947(8) 0.4392(10) 0.5439(4)
O32 O 0.9008(5) 0.6063(8) 0.4836(2)
O33 O 0.8000(5) 0.6324(9) 0.4737(3)
O34 O 0.8509(5) 0.5685(11) 0.4315(3)
S6 S 0.85225(16) 0.6217(3) 0.46014(8)
C158 C 0.8627(9) 0.7313(16) 0.4476(4)
F16 F 0.8655(6) 0.7911(8) 0.4690(3)
F17 F 0.8228(8) 0.7574(12) 0.4234(4)
F18 F 0.9125(5) 0.7368(8) 0.4318(3)
O32_2 O 0.0992(5) 0.1063(8) 0.0164(2)
O33_2 O 0.2000(5) 0.1324(9) 0.0263(3)
O34_2 O 0.1491(5) 0.0685(11) 0.0685(3)
S6_2 S 0.14775(16) 0.1217(3) 0.03986(8)
C158_2 C 0.1373(9) 0.2313(16) 0.0524(4)
F16_2 F 0.1345(6) 0.2911(8) 0.0310(3)
F17_2 F 0.1772(8) 0.2574(12) 0.0766(4)
F18_2 F 0.0875(5) 0.2368(8) 0.0682(3)
O32_3 O 0.0992(5) 0.3937(8) 0.5164(2)
O33_3 O 0.2000(5) 0.3676(9) 0.5263(3)
O34_3 O 0.1491(5) 0.4315(11) 0.5685(3)
S6_3 S 0.14775(16) 0.3783(3) 0.53986(8)
C158_3 C 0.1373(9) 0.2687(16) 0.5524(4)
F16_3 F 0.1345(6) 0.2089(8) 0.5310(3)
F17_3 F 0.1772(8) 0.2426(12) 0.5766(4)
F18_3 F 0.0875(5) 0.2632(8) 0.5682(3)
O32_4 O 0.9008(5) 0.8937(8) 0.9836(2)
O33_4 O 0.8000(5) 0.8676(9) 0.9737(3)
O34_4 O 0.8509(5) 0.9315(11) 0.9315(3)
S6_4 S 0.85225(16) 0.8783(3) 0.96014(8)
C158_4 C 0.8627(9) 0.7687(16) 0.9476(4)
F16_4 F 0.8655(6) 0.7089(8) 0.9690(3)
F17_4 F 0.8228(8) 0.7426(12) 0.9234(4)
F18_4 F 0.9125(5) 0.7632(8) 0.9318(3)
O35 O 0.1924(8) 0.1821(13) 0.2998(4)
O36 O 0.2443(6) 0.1830(10) 0.3505(3)
O37 O 0.1911(4) 0.0489(7) 0.3324(2)
S7 S 0.22009(19) 0.1287(3) 0.32529(10)
C159 C 0.2728(12) 0.0989(18) 0.3039(7)
F19 F 0.2564(10) 0.0498(13) 0.2777(4)
F20 F 0.3037(5) 0.1650(8) 0.2964(4)
F21 F 0.3073(7) 0.0412(14) 0.3225(9)
O35_2 O 0.8076(8) 0.6821(13) 0.2002(4)
O36_2 O 0.7557(6) 0.6830(10) 0.1495(3)
O37_2 O 0.8089(4) 0.5489(7) 0.1676(2)
S7_2 S 0.77991(19) 0.6287(3) 0.17471(10)
C159_2 C 0.7272(12) 0.5989(18) 0.1961(7)
F19_2 F 0.7436(10) 0.5498(13) 0.2223(4)
F20_2 F 0.6963(5) 0.6650(8) 0.2036(4)
F21_2 F 0.6927(7) 0.5412(14) 0.1775(9)
O35_3 O 0.8076(8) 0.8179(13) 0.7002(4)
O36_3 O 0.7557(6) 0.8170(10) 0.6495(3)
O37_3 O 0.8089(4) 0.9511(7) 0.6676(2)
S7_3 S 0.77991(19) 0.8713(3) 0.67471(10)
C159_3 C 0.7272(12) 0.9011(18) 0.6961(7)
F19_3 F 0.7436(10) 0.9502(13) 0.7223(4)
F20_3 F 0.6963(5) 0.8350(8) 0.7036(4)
F21_3 F 0.6927(7) 0.9588(14) 0.6775(9)
O35_4 O 0.1924(8) 0.3179(13) 0.7998(4)
O36_4 O 0.2443(6) 0.3170(10) 0.8505(3)
O37_4 O 0.1911(4) 0.4511(7) 0.8324(2)
S7_4 S 0.22009(19) 0.3713(3) 0.82529(10)
C159_4 C 0.2728(12) 0.4011(18) 0.8039(7)
F19_4 F 0.2564(10) 0.4502(13) 0.7777(4)
F20_4 F 0.3037(5) 0.3350(8) 0.7964(4)
F21_4 F 0.3073(7) 0.4588(14) 0.8225(9)
O38 O 0.2527(7) 0.2700(10) 0.1535(3)
O39 O 0.3085(5) 0.4007(7) 0.1707(2)
O40 O 0.3067(10) 0.2716(16) 0.2047(8)
S8 S 0.27904(19) 0.3242(3) 0.17798(11)
C160 C 0.2286(15) 0.354(2) 0.2013(10)
F22 F 0.2530(14) 0.3968(16) 0.2279(6)
F23 F 0.1977(7) 0.4196(13) 0.1877(10)
F24 F 0.1938(7) 0.2881(12) 0.2051(5)
O38_2 O 0.7473(7) 0.7700(10) 0.3465(3)
O39_2 O 0.6915(5) 0.9007(7) 0.3293(2)
O40_2 O 0.6933(10) 0.7716(16) 0.2953(8)
S8_2 S 0.72096(19) 0.8242(3) 0.32202(11)
C160_2 C 0.7714(15) 0.854(2) 0.2987(10)
F22_2 F 0.7470(14) 0.8968(16) 0.2721(6)
F23_2 F 0.8023(7) 0.9196(13) 0.3123(10)
F24_2 F 0.8062(7) 0.7881(12) 0.2949(5)
O38_3 O 0.7473(7) 0.7300(10) 0.8465(3)
O39_3 O 0.6915(5) 0.5993(7) 0.8293(2)
O40_3 O 0.6933(10) 0.7284(16) 0.7953(8)
S8_3 S 0.72096(19) 0.6758(3) 0.82202(11)
C160_3 C 0.7714(15) 0.646(2) 0.7987(10)
F22_3 F 0.7470(14) 0.6032(16) 0.7721(6)
F23_3 F 0.8023(7) 0.5804(13) 0.8123(10)
F24_3 F 0.8062(7) 0.7119(12) 0.7949(5)
O38_4 O 0.2527(7) 0.2300(10) 0.6535(3)
O39_4 O 0.3085(5) 0.0993(7) 0.6707(2)
O40_4 O 0.3067(10) 0.2284(16) 0.7047(8)
S8_4 S 0.27904(19) 0.1758(3) 0.67798(11)
C160_4 C 0.2286(15) 0.146(2) 0.7013(10)
F22_4 F 0.2530(14) 0.1032(16) 0.7279(6)
F23_4 F 0.1977(7) 0.0804(13) 0.6877(10)
F24_4 F 0.1938(7) 0.2119(12) 0.7051(5)
loop_
_geom_bond_atom_site_label_1
_geom_bond_atom_site_label_2
_geom_bond_site_symmetry_1
_geom_bond_site_symmetry_2
C29 H29 1_555 1_555
O13 S2 1_555 1_555
O14 S2 1_555 1_555
S2 O12 1_555 1_555
C78 S2 1_555 1_555
F4 C78 1_555 1_555
F5 C78 1_555 1_555
F6 C78 1_555 1_555
Ag9 N21 1_555 1_555
Ag11 N24 1_555 1_555
N21 C79 1_555 1_555
C79 H69 1_555 1_555
C80 C79 1_555 1_555
H70 C80 1_555 1_555
C83 N21 1_555 1_555
H72 C83 1_555 1_555
N24 C86 1_555 1_555
C86 H76 1_555 1_555
C87 C86 1_555 1_555
H77 C87 1_555 1_555
C88 C87 1_555 1_555
C89 C88 1_555 1_555
H78 C89 1_555 1_555
C90 N24 1_555 1_555
H79 C90 1_555 1_555
N26 C88 1_555 1_555
C91 N26 1_555 1_555
H80 C91 1_555 1_555
H81 C91 1_555 1_555
H82 C91 1_555 1_555
C92 N26 1_555 1_555
O16 C92 1_555 1_555
N32 Ag5 1_555 1_555
C119 C92 1_555 1_555
C120 C119 1_555 1_555
H107 C120 1_555 1_555
C121 C120 1_555 1_555
H108 C121 1_555 1_555
C122 C121 1_555 1_555
H109 C122 1_555 1_555
C82 C83 1_555 1_555
C89 C90 1_555 1_555
N35 C119 1_555 1_555
N35 C123 1_555 1_555
C122 C123 1_555 1_555
C11 C10 1_555 1_555
H10 C11 1_555 1_555
H11 C12 1_555 1_555
N4 C10 1_555 1_555
C13 N4 1_555 1_555
H12 C13 1_555 1_555
H13 C13 1_555 1_555
H14 C13 1_555 1_555
C14 N4 1_555 1_555
O2 C14 1_555 1_555
N12 C41 1_555 1_555
C41 C14 1_555 1_555
C42 C41 1_555 1_555
H39 C42 1_555 1_555
C43 C42 1_555 1_555
H40 C43 1_555 1_555
C11 C12 1_555 1_555
Ag1 N1 1_555 1_555
Ag2 N3 1_555 1_555
Ag3 N5 1_555 1_555
Ag4 N7 1_555 1_555
Ag5_2 N9 1_555 1_555
Ag6 N11 1_555 1_555
Ag7 N20 1_555 1_555
N1 C1 1_555 1_555
C1 H1 1_555 1_555
C2 C1 1_555 1_555
H2 C2 1_555 1_555
C5 N1 1_555 1_555
H4 C5 1_555 1_555
N3 C8 1_555 1_555
C8 H8 1_555 1_555
C9 C8 1_555 1_555
H9 C9 1_555 1_555
N5 C15 1_555 1_555
C15 H15 1_555 1_555
C16 C15 1_555 1_555
H16 C16 1_555 1_555
C17 C16 1_555 1_555
C18 C17 1_555 1_555
H17 C18 1_555 1_555
C19 N5 1_555 1_555
H18 C19 1_555 1_555
N6 C17 1_555 1_555
C20 N6 1_555 1_555
H19 C20 1_555 1_555
H20 C20 1_555 1_555
H21 C20 1_555 1_555
C21 N6 1_555 1_555
O3 C21 1_555 1_555
N7 C22 1_555 1_555
C22 H22 1_555 1_555
C23 C22 1_555 1_555
H23 C23 1_555 1_555
C24 C23 1_555 1_555
C25 C24 1_555 1_555
H24 C25 1_555 1_555
C26 N7 1_555 1_555
H25 C26 1_555 1_555
N8 C24 1_555 1_555
C27 N8 1_555 1_555
H26 C27 1_555 1_555
H27 C27 1_555 1_555
H28 C27 1_555 1_555
C28 N8 1_555 1_555
O4 C28 1_555 1_555
C31 C30 1_555 1_555
C32 C31 1_555 1_555
H31 C32 1_555 1_555
C33 N9 1_555 1_555
H32 C33 1_555 1_555
N10 C31 1_555 1_555
C34 N10 1_555 1_555
H33 C34 1_555 1_555
H34 C34 1_555 1_555
H35 C34 1_555 1_555
C35 N10 1_555 1_555
O5 C35 1_555 1_555
N11 C36 1_555 1_555
C36 C37 1_555 1_555
C37 H36 1_555 1_555
C38 C37 1_555 1_555
H37 C38 1_555 1_555
C39 C38 1_555 1_555
H38 C39 1_555 1_555
C40 N11 1_555 1_555
H41 C44 1_555 1_555
N13 Ag2 1_555 1_555
C46 N13 1_555 1_555
H42 C46 1_555 1_555
C47 C46 1_555 1_555
H43 C47 1_555 1_555
C48 C47 1_555 1_555
C49 C48 1_555 1_555
H44 C49 1_555 1_555
C50 N13 1_555 1_555
H45 C50 1_555 1_555
N14 C48 1_555 1_555
C51 N14 1_555 1_555
H46 C51 1_555 1_555
H47 C51 1_555 1_555
H48 C51 1_555 1_555
C52 C40 1_555 1_555
O6 C52 1_555 1_555
N15 Ag1 1_555 1_555
C53 N15 1_555 1_555
H49 C53 1_555 1_555
C54 C53 1_555 1_555
H50 C54 1_555 1_555
C55 C54 1_555 1_555
C56 C55 1_555 1_555
H51 C56 1_555 1_555
C57 N15 1_555 1_555
H52 C57 1_555 1_555
N16 C55 1_555 1_555
C58 N16 1_555 1_555
H53 C58 1_555 1_555
H54 C58 1_555 1_555
H55 C58 1_555 1_555
C59 C36 1_555 1_555
O7 C59 1_555 1_555
N17 Ag3 1_555 1_555
C60 N17 1_555 1_555
H56 C60 1_555 1_555
C61 C60 1_555 1_555
H57 C61 1_555 1_555
C62 C61 1_555 1_555
C63 C62 1_555 1_555
H58 C63 1_555 1_555
C64 N17 1_555 1_555
H59 C64 1_555 1_555
N18 C62 1_555 1_555
C65 N18 1_555 1_555
H60 C65 1_555 1_555
H61 C65 1_555 1_555
H62 C65 1_555 1_555
C66 N18 1_555 1_555
O8 C66 1_555 1_555
N19 Ag6 1_555 1_555
C67 C66 1_555 1_555
C68 C67 1_555 1_555
H63 C68 1_555 1_555
C69 C68 1_555 1_555
H64 C69 1_555 1_555
C70 C69 1_555 1_555
H65 C70 1_555 1_555
C71 C28 1_555 1_555
N20 C72 1_555 1_555
C72 C35 1_555 1_555
C73 C72 1_555 1_555
H66 C73 1_555 1_555
C74 C73 1_555 1_555
H67 C74 1_555 1_555
C75 C74 1_555 1_555
H68 C75 1_555 1_555
C76 C21 1_555 1_555
O9 Ag6 1_555 1_555
O10 S1 1_555 1_555
O11 S1 1_555 1_555
S1 O9 1_555 1_555
C77 S1 1_555 1_555
F1 C77 1_555 1_555
F2 C77 1_555 1_555
F3 C77 1_555 1_555
Ag8 N22 1_555 1_555
Ag10 N25 1_555 1_555
Ag12 N27 1_555 1_555
Ag14 N34 1_555 1_555
N23 C81 1_555 1_555
C84 N23 1_555 1_555
H73 C84 1_555 1_555
H74 C84 1_555 1_555
H75 C84 1_555 1_555
C85 N23 1_555 1_555
O15 C85 1_555 1_555
N27 C93 1_555 1_555
C93 H83 1_555 1_555
C94 C93 1_555 1_555
H84 C94 1_555 1_555
C95 C94 1_555 1_555
C96 C95 1_555 1_555
H85 C96 1_555 1_555
C97 N27 1_555 1_555
H86 C97 1_555 1_555
N28 C95 1_555 1_555
C98 N28 1_555 1_555
H87 C98 1_555 1_555
H88 C98 1_555 1_555
H89 C98 1_555 1_555
C99 N28 1_555 1_555
O17 C99 1_555 1_555
N29 Ag4 1_555 1_555
C100 N29 1_555 1_555
H90 C100 1_555 1_555
C101 C100 1_555 1_555
H91 C101 1_555 1_555
C102 C101 1_555 1_555
C103 C102 1_555 1_555
H92 C103 1_555 1_555
C104 N29 1_555 1_555
H93 C104 1_555 1_555
N30 C102 1_555 1_555
C105 N30 1_555 1_555
H94 C105 1_555 1_555
H95 C105 1_555 1_555
H96 C105 1_555 1_555
C106 N30 1_555 1_555
O18 C106 1_555 1_555
C109 C108 1_555 1_555
C110 C109 1_555 1_555
H99 C110 1_555 1_555
C111 N32 1_555 1_555
H100 C111 1_555 1_555
N33 C109 1_555 1_555
C112 N33 1_555 1_555
H101 C112 1_555 1_555
H102 C112 1_555 1_555
H103 C112 1_555 1_555
C113 N33 1_555 1_555
O19 C113 1_555 1_555
N34 C114 1_555 1_555
C114 C115 1_555 1_555
C115 H104 1_555 1_555
C116 C115 1_555 1_555
H105 C116 1_555 1_555
C117 C116 1_555 1_555
H106 C117 1_555 1_555
C118 N34 1_555 1_555
N37 Ag10 1_555 1_555
C124 N37 1_555 1_555
H110 C124 1_555 1_555
C125 C124 1_555 1_555
H111 C125 1_555 1_555
C126 C125 1_555 1_555
C127 C126 1_555 1_555
H112 C127 1_555 1_555
C128 N37 1_555 1_555
H113 C128 1_555 1_555
N38 C126 1_555 1_555
C129 N38 1_555 1_555
H114 C129 1_555 1_555
H115 C129 1_555 1_555
H116 C129 1_555 1_555
C130 C118 1_555 1_555
O20 C130 1_555 1_555
N39 Ag8 1_555 1_555
C131 N39 1_555 1_555
H117 C131 1_555 1_555
C132 C131 1_555 1_555
H118 C132 1_555 1_555
C133 C132 1_555 1_555
C134 C133 1_555 1_555
H119 C134 1_555 1_555
C135 N39 1_555 1_555
H120 C135 1_555 1_555
N40 C133 1_555 1_555
C136 N40 1_555 1_555
H121 C136 1_555 1_555
H122 C136 1_555 1_555
H123 C136 1_555 1_555
C137 C114 1_555 1_555
O21 C137 1_555 1_555
N41 Ag12 1_555 1_555
C138 N41 1_555 1_555
H124 C138 1_555 1_555
C139 C138 1_555 1_555
H125 C139 1_555 1_555
C140 C139 1_555 1_555
C141 C140 1_555 1_555
H126 C141 1_555 1_555
C142 N41 1_555 1_555
H127 C142 1_555 1_555
N42 C140 1_555 1_555
C143 N42 1_555 1_555
H128 C143 1_555 1_555
H129 C143 1_555 1_555
H130 C143 1_555 1_555
C144 N42 1_555 1_555
O22 C144 1_555 1_555
N43 Ag14 1_555 1_555
C145 C144 1_555 1_555
C146 C145 1_555 1_555
H131 C146 1_555 1_555
C147 C146 1_555 1_555
H132 C147 1_555 1_555
C148 C147 1_555 1_555
H133 C148 1_555 1_555
C149 C106 1_555 1_555
N44 Ag15 1_555 1_555
C150 C113 1_555 1_555
C151 C150 1_555 1_555
H134 C151 1_555 1_555
C152 C151 1_555 1_555
H135 C152 1_555 1_555
C153 C152 1_555 1_555
H136 C153 1_555 1_555
C154 C99 1_555 1_555
O23 Ag14 1_555 1_555
O24 S3 1_555 1_555
O25 S3 1_555 1_555
S3 O23 1_555 1_555
C155 S3 1_555 1_555
F7 C155 1_555 1_555
F8 C155 1_555 1_555
F9 C155 1_555 1_555
C4 C5 1_555 1_555
C18 C19 1_555 1_555
C25 C26 1_555 1_555
C32 C33 1_555 1_555
C39 C40 1_555 1_555
C44 C45 1_555 1_555
C49 C50 1_555 1_555
N14 C52 1_555 1_555
C56 C57 1_555 1_555
N16 C59 1_555 1_555
C63 C64 1_555 1_555
N19 C67 1_555 1_555
N19 C71 1_555 1_555
C70 C71 1_555 1_555
N20 C76 1_555 1_555
C75 C76 1_555 1_555
C96 C97 1_555 1_555
C103 C104 1_555 1_555
C110 C111 1_555 1_555
C117 C118 1_555 1_555
C127 C128 1_555 1_555
N38 C130 1_555 1_555
C134 C135 1_555 1_555
N40 C137 1_555 1_555
C141 C142 1_555 1_555
N43 C145 1_555 1_555
N43 C149 1_555 1_555
C148 C149 1_555 1_555
N44 C150 1_555 1_555
N44 C154 1_555 1_555
C153 C154 1_555 1_555
N2 C3 1_555 1_555
C6 N2 1_555 1_555
H5 C6 1_555 1_555
H6 C6 1_555 1_555
H7 C6 1_555 1_555
C7 N2 1_555 1_555
O1 C7 1_555 1_555
C107 H97 1_555 1_555
O27 S4 1_555 1_555
O28 S4 1_555 1_555
S4 O26 1_555 1_555
C156 S4 1_555 1_555
F10 C156 1_555 1_555
F11 C156 1_555 1_555
F12 C156 1_555 1_555
N2_2 C3_2 1_555 1_555
C6_2 N2_2 1_555 1_555
H5_2 C6_2 1_555 1_555
H6_2 C6_2 1_555 1_555
H7_2 C6_2 1_555 1_555
C7_2 N2_2 1_555 1_555
O1_2 C7_2 1_555 1_555
C107_2 H97_2 1_555 1_555
O27_2 S4_2 1_555 1_555
O28_2 S4_2 1_555 1_555
S4_2 O26_2 1_555 1_555
C156_2 S4_2 1_555 1_555
F10_2 C156_2 1_555 1_555
F11_2 C156_2 1_555 1_555
F12_2 C156_2 1_555 1_555
Ag1_2 N1_2 1_555 1_555
Ag2_2 N3_2 1_555 1_555
N1_2 C1_2 1_555 1_555
C1_2 H1_2 1_555 1_555
C2_2 C1_2 1_555 1_555
H2_2 C2_2 1_555 1_555
C5_2 N1_2 1_555 1_555
H4_2 C5_2 1_555 1_555
N3_2 C8_2 1_555 1_555
C8_2 H8_2 1_555 1_555
C9_2 C8_2 1_555 1_555
H9_2 C9_2 1_555 1_555
C10_2 C9_2 1_555 1_555
C11_2 C10_2 1_555 1_555
H10_2 C11_2 1_555 1_555
C12_2 N3_2 1_555 1_555
H11_2 C12_2 1_555 1_555
N4_2 C10_2 1_555 1_555
C13_2 N4_2 1_555 1_555
H12_2 C13_2 1_555 1_555
H13_2 C13_2 1_555 1_555
H14_2 C13_2 1_555 1_555
C14_2 N4_2 1_555 1_555
O2_2 C14_2 1_555 1_555
N36 C41_2 1_555 1_555
C41_2 C14_2 1_555 1_555
C42_2 C41_2 1_555 1_555
H39_2 C42_2 1_555 1_555
C43_2 C42_2 1_555 1_555
H40_2 C43_2 1_555 1_555
C44_2 C43_2 1_555 1_555
H41_2 C44_2 1_555 1_555
N13_2 Ag2_2 1_555 1_555
C46_2 N13_2 1_555 1_555
H42_2 C46_2 1_555 1_555
C47_2 C46_2 1_555 1_555
H43_2 C47_2 1_555 1_555
C48_2 C47_2 1_555 1_555
C49_2 C48_2 1_555 1_555
H44_2 C49_2 1_555 1_555
C50_2 N13_2 1_555 1_555
H45_2 C50_2 1_555 1_555
N14_2 C48_2 1_555 1_555
C51_2 N14_2 1_555 1_555
H46_2 C51_2 1_555 1_555
H47_2 C51_2 1_555 1_555
H48_2 C51_2 1_555 1_555
N15_2 Ag1_2 1_555 1_555
C53_2 N15_2 1_555 1_555
H49_2 C53_2 1_555 1_555
C54_2 C53_2 1_555 1_555
H50_2 C54_2 1_555 1_555
N17_2 Ag3_2 1_555 1_555
C60_2 N17_2 1_555 1_555
H56_2 C60_2 1_555 1_555
C61_2 C60_2 1_555 1_555
H57_2 C61_2 1_555 1_555
C62_2 C61_2 1_555 1_555
C63_2 C62_2 1_555 1_555
H58_2 C63_2 1_555 1_555
C64_2 N17_2 1_555 1_555
H59_2 C64_2 1_555 1_555
N18_2 C62_2 1_555 1_555
C65_2 N18_2 1_555 1_555
H60_2 C65_2 1_555 1_555
H61_2 C65_2 1_555 1_555
H62_2 C65_2 1_555 1_555
C66_2 N18_2 1_555 1_555
O8_2 C66_2 1_555 1_555
C67_2 C66_2 1_555 1_555
C68_2 C67_2 1_555 1_555
H63_2 C68_2 1_555 1_555
C69_2 C68_2 1_555 1_555
H64_2 C69_2 1_555 1_555
O10_2 S1_2 1_555 1_555
O11_2 S1_2 1_555 1_555
S1_2 O9_2 1_555 1_555
C77_2 S1_2 1_555 1_555
F1_2 C77_2 1_555 1_555
F2_2 C77_2 1_555 1_555
F3_2 C77_2 1_555 1_555
Ag13_5 N31 1_555 1_555
C109_2 C108_2 1_555 1_555
C110_2 C109_2 1_555 1_555
H99_2 C110_2 1_555 1_555
C111_2 N31 1_555 1_555
H100_2 C111_2 1_555 1_555
N33_2 C109_2 1_555 1_555
C112_2 N33_2 1_555 1_555
H101_2 C112_2 1_555 1_555
H102_2 C112_2 1_555 1_555
H103_2 C112_2 1_555 1_555
C113_2 N33_2 1_555 1_555
O19_2 C113_2 1_555 1_555
C150_2 C113_2 1_555 1_555
C151_2 C150_2 1_555 1_555
H134_2 C151_2 1_555 1_555
C4_2 C5_2 1_555 1_555
C11_2 C12_2 1_555 1_555
N36 C45_2 1_555 1_555
C44_2 C45_2 1_555 1_555
C49_2 C50_2 1_555 1_555
N14_2 C52_2 1_555 1_555
C63_2 C64_2 1_555 1_555
C110_2 C111_2 1_555 1_555
Ag7_2 N20_2 1_555 1_555
N5_2 C15_2 1_555 1_555
C15_2 H15_2 1_555 1_555
C16_2 C15_2 1_555 1_555
H16_2 C16_2 1_555 1_555
C17_2 C16_2 1_555 1_555
C18_2 C17_2 1_555 1_555
H17_2 C18_2 1_555 1_555
C19_2 N5_2 1_555 1_555
H18_2 C19_2 1_555 1_555
N6_2 C17_2 1_555 1_555
C20_2 N6_2 1_555 1_555
H19_2 C20_2 1_555 1_555
H20_2 C20_2 1_555 1_555
H21_2 C20_2 1_555 1_555
C21_2 N6_2 1_555 1_555
O3_2 C21_2 1_555 1_555
H67_2 C74_2 1_555 1_555
C75_2 C74_2 1_555 1_555
H68_2 C75_2 1_555 1_555
C76_2 C21_2 1_555 1_555
Ag14_2 N34_2 1_555 1_555
N23_2 C81_2 1_555 1_555
C84_2 N23_2 1_555 1_555
H73_2 C84_2 1_555 1_555
H74_2 C84_2 1_555 1_555
H75_2 C84_2 1_555 1_555
C85_2 N23_2 1_555 1_555
O15_2 C85_2 1_555 1_555
N29_2 Ag4_3 1_555 1_555
C100_2 N29_2 1_555 1_555
H90_2 C100_2 1_555 1_555
C101_2 C100_2 1_555 1_555
H91_2 C101_2 1_555 1_555
C102_2 C101_2 1_555 1_555
C103_2 C102_2 1_555 1_555
H92_2 C103_2 1_555 1_555
C104_2 N29_2 1_555 1_555
H93_2 C104_2 1_555 1_555
N30_2 C102_2 1_555 1_555
C105_2 N30_2 1_555 1_555
H94_2 C105_2 1_555 1_555
H95_2 C105_2 1_555 1_555
H96_2 C105_2 1_555 1_555
C106_2 N30_2 1_555 1_555
O18_2 C106_2 1_555 1_555
N34_2 C114_2 1_555 1_555
C114_2 C115_2 1_555 1_555
C115_2 H104_2 1_555 1_555
C116_2 C115_2 1_555 1_555
H105_2 C116_2 1_555 1_555
C117_2 C116_2 1_555 1_555
H106_2 C117_2 1_555 1_555
C118_2 N34_2 1_555 1_555
C134_2 C133_2 1_555 1_555
H119_2 C134_2 1_555 1_555
H120_2 C135_2 1_555 1_555
N40_2 C133_2 1_555 1_555
C136_2 N40_2 1_555 1_555
H121_2 C136_2 1_555 1_555
H122_2 C136_2 1_555 1_555
H123_2 C136_2 1_555 1_555
C137_2 C114_2 1_555 1_555
O21_2 C137_2 1_555 1_555
N43_2 Ag14_2 1_555 1_555
H133_2 C148_2 1_555 1_555
C149_2 C106_2 1_555 1_555
C18_2 C19_2 1_555 1_555
N20_2 C76_2 1_555 1_555
C75_2 C76_2 1_555 1_555
C103_2 C104_2 1_555 1_555
C117_2 C118_2 1_555 1_555
C134_2 C135_2 1_555 1_555
N40_2 C137_2 1_555 1_555
N43_2 C149_2 1_555 1_555
C148_2 C149_2 1_555 1_555
Ag4_4 N7_2 1_555 1_555
Ag6_2 N11_2 1_555 1_555
N7_2 C22_2 1_555 1_555
C22_2 H22_2 1_555 1_555
C23_2 C22_2 1_555 1_555
H23_2 C23_2 1_555 1_555
C24_2 C23_2 1_555 1_555
C25_2 C24_2 1_555 1_555
H24_2 C25_2 1_555 1_555
C26_2 N7_2 1_555 1_555
H25_2 C26_2 1_555 1_555
N8_2 C24_2 1_555 1_555
C27_2 N8_2 1_555 1_555
H26_2 C27_2 1_555 1_555
H27_2 C27_2 1_555 1_555
H28_2 C27_2 1_555 1_555
C28_2 N8_2 1_555 1_555
O4_2 C28_2 1_555 1_555
N11_2 C36_2 1_555 1_555
C36_2 C37_2 1_555 1_555
C37_2 H36_2 1_555 1_555
C38_2 C37_2 1_555 1_555
H37_2 C38_2 1_555 1_555
C39_2 C38_2 1_555 1_555
H38_2 C39_2 1_555 1_555
C40_2 N11_2 1_555 1_555
C56_2 C55_2 1_555 1_555
H51_2 C56_2 1_555 1_555
H52_2 C57_2 1_555 1_555
N16_2 C55_2 1_555 1_555
C58_2 N16_2 1_555 1_555
H53_2 C58_2 1_555 1_555
H54_2 C58_2 1_555 1_555
H55_2 C58_2 1_555 1_555
C59_2 C36_2 1_555 1_555
O7_2 C59_2 1_555 1_555
N19_2 Ag6_2 1_555 1_555
H65_2 C70_2 1_555 1_555
C71_2 C28_2 1_555 1_555
N27_2 C93_2 1_555 1_555
C93_2 H83_2 1_555 1_555
C94_2 C93_2 1_555 1_555
H84_2 C94_2 1_555 1_555
C95_2 C94_2 1_555 1_555
C96_2 C95_2 1_555 1_555
H85_2 C96_2 1_555 1_555
C97_2 N27_2 1_555 1_555
H86_2 C97_2 1_555 1_555
N28_2 C95_2 1_555 1_555
C98_2 N28_2 1_555 1_555
H87_2 C98_2 1_555 1_555
H88_2 C98_2 1_555 1_555
H89_2 C98_2 1_555 1_555
C99_2 N28_2 1_555 1_555
O17_2 C99_2 1_555 1_555
N44_2 Ag16 1_555 1_555
H135_2 C152_2 1_555 1_555
C153_2 C152_2 1_555 1_555
H136_2 C153_2 1_555 1_555
C154_2 C99_2 1_555 1_555
C25_2 C26_2 1_555 1_555
C39_2 C40_2 1_555 1_555
C56_2 C57_2 1_555 1_555
N16_2 C59_2 1_555 1_555
N19_2 C71_2 1_555 1_555
C70_2 C71_2 1_555 1_555
C96_2 C97_2 1_555 1_555
N44_2 C154_2 1_555 1_555
C153_2 C154_2 1_555 1_555
Ag13_4 N9_2 1_555 1_555
C31_2 C30_2 1_555 1_555
C32_2 C31_2 1_555 1_555
H31_2 C32_2 1_555 1_555
C33_2 N9_2 1_555 1_555
H32_2 C33_2 1_555 1_555
N10_2 C31_2 1_555 1_555
C34_2 N10_2 1_555 1_555
H33_2 C34_2 1_555 1_555
H34_2 C34_2 1_555 1_555
H35_2 C34_2 1_555 1_555
C35_2 N10_2 1_555 1_555
O5_2 C35_2 1_555 1_555
C72_2 C35_2 1_555 1_555
C73_2 C72_2 1_555 1_555
H66_2 C73_2 1_555 1_555
N37_2 Ag11 1_555 1_555
C124_2 N37_2 1_555 1_555
H110_2 C124_2 1_555 1_555
C125_2 C124_2 1_555 1_555
H111_2 C125_2 1_555 1_555
C126_2 C125_2 1_555 1_555
C127_2 C126_2 1_555 1_555
H112_2 C127_2 1_555 1_555
C128_2 N37_2 1_555 1_555
H113_2 C128_2 1_555 1_555
N38_2 C126_2 1_555 1_555
C129_2 N38_2 1_555 1_555
H114_2 C129_2 1_555 1_555
H115_2 C129_2 1_555 1_555
H116_2 C129_2 1_555 1_555
N39_2 Ag9 1_555 1_555
C131_2 N39_2 1_555 1_555
H117_2 C131_2 1_555 1_555
C132_2 C131_2 1_555 1_555
H118_2 C132_2 1_555 1_555
N41_2 Ag12_2 1_555 1_555
C138_2 N41_2 1_555 1_555
H124_2 C138_2 1_555 1_555
C139_2 C138_2 1_555 1_555
H125_2 C139_2 1_555 1_555
C140_2 C139_2 1_555 1_555
C141_2 C140_2 1_555 1_555
H126_2 C141_2 1_555 1_555
C142_2 N41_2 1_555 1_555
H127_2 C142_2 1_555 1_555
N42_2 C140_2 1_555 1_555
C143_2 N42_2 1_555 1_555
H128_2 C143_2 1_555 1_555
H129_2 C143_2 1_555 1_555
H130_2 C143_2 1_555 1_555
C144_2 N42_2 1_555 1_555
O22_2 C144_2 1_555 1_555
C145_2 C144_2 1_555 1_555
C146_2 C145_2 1_555 1_555
H131_2 C146_2 1_555 1_555
C147_2 C146_2 1_555 1_555
H132_2 C147_2 1_555 1_555
O24_2 S3_2 1_555 1_555
O25_2 S3_2 1_555 1_555
S3_2 O23_2 1_555 1_555
C155_2 S3_2 1_555 1_555
F7_2 C155_2 1_555 1_555
F8_2 C155_2 1_555 1_555
F9_2 C155_2 1_555 1_555
C32_2 C33_2 1_555 1_555
C127_2 C128_2 1_555 1_555
N38_2 C130_2 1_555 1_555
C141_2 C142_2 1_555 1_555
O13_2 S2_2 1_555 1_555
O14_2 S2_2 1_555 1_555
S2_2 O12_2 1_555 1_555
C78_2 S2_2 1_555 1_555
F4_2 C78_2 1_555 1_555
F5_2 C78_2 1_555 1_555
F6_2 C78_2 1_555 1_555
N22 C79_2 1_555 1_555
C79_2 H69_2 1_555 1_555
C80_2 C79_2 1_555 1_555
H70_2 C80_2 1_555 1_555
C83_2 N22 1_555 1_555
H72_2 C83_2 1_555 1_555
N25 C86_2 1_555 1_555
C86_2 H76_2 1_555 1_555
C87_2 C86_2 1_555 1_555
H77_2 C87_2 1_555 1_555
H109_2 C122_2 1_555 1_555
C82_2 C83_2 1_555 1_555
C122_2 C123_2 1_555 1_555
C29_2 H29_2 1_555 1_555
C89_2 C88_2 1_555 1_555
H78_2 C89_2 1_555 1_555
H79_2 C90_2 1_555 1_555
N26_2 C88_2 1_555 1_555
C91_2 N26_2 1_555 1_555
H80_2 C91_2 1_555 1_555
H81_2 C91_2 1_555 1_555
H82_2 C91_2 1_555 1_555
C92_2 N26_2 1_555 1_555
O16_2 C92_2 1_555 1_555
C119_2 C92_2 1_555 1_555
C120_2 C119_2 1_555 1_555
H107_2 C120_2 1_555 1_555
C121_2 C120_2 1_555 1_555
H108_2 C121_2 1_555 1_555
C89_2 C90_2 1_555 1_555
N35_2 C119_2 1_555 1_555
O29 S5 1_555 1_555
O30 S5 1_555 1_555
O31 S5 1_555 1_555
S5 C157 1_555 1_555
C157 F13 1_555 1_555
F14 C157 1_555 1_555
O29_2 S5_2 1_555 1_555
O30_2 S5_2 1_555 1_555
O31_2 S5_2 1_555 1_555
S5_2 C157_2 1_555 1_555
C157_2 F13_2 1_555 1_555
F14_2 C157_2 1_555 1_555
F15_2 C157_2 1_555 1_555
O29_3 S5_3 1_555 1_555
O30_3 S5_3 1_555 1_555
O31_3 S5_3 1_555 1_555
S5_3 C157_3 1_555 1_555
C157_3 F13_3 1_555 1_555
F14_3 C157_3 1_555 1_555
O29_4 S5_4 1_555 1_555
O30_4 S5_4 1_555 1_555
O31_4 S5_4 1_555 1_555
S5_4 C157_4 1_555 1_555
C157_4 F13_4 1_555 1_555
F14_4 C157_4 1_555 1_555
F15_4 C157_4 1_555 1_555
O32 S6 1_555 1_555
O33 S6 1_555 1_555
O34 S6 1_555 1_555
S6 C158 1_555 1_555
C158 F16 1_555 1_555
F17 C158 1_555 1_555
F18 C158 1_555 1_555
O32_2 S6_2 1_555 1_555
O33_2 S6_2 1_555 1_555
O34_2 S6_2 1_555 1_555
S6_2 C158_2 1_555 1_555
C158_2 F16_2 1_555 1_555
F17_2 C158_2 1_555 1_555
F18_2 C158_2 1_555 1_555
O32_3 S6_3 1_555 1_555
O33_3 S6_3 1_555 1_555
O34_3 S6_3 1_555 1_555
S6_3 C158_3 1_555 1_555
C158_3 F16_3 1_555 1_555
F17_3 C158_3 1_555 1_555
F18_3 C158_3 1_555 1_555
O32_4 S6_4 1_555 1_555
O33_4 S6_4 1_555 1_555
O34_4 S6_4 1_555 1_555
S6_4 C158_4 1_555 1_555
C158_4 F16_4 1_555 1_555
F17_4 C158_4 1_555 1_555
F18_4 C158_4 1_555 1_555
O35 S7 1_555 1_555
O36 S7 1_555 1_555
O37 S7 1_555 1_555
S7 C159 1_555 1_555
C159 F19 1_555 1_555
F20 C159 1_555 1_555
F21 C159 1_555 1_555
O35_2 S7_2 1_555 1_555
O36_2 S7_2 1_555 1_555
O37_2 S7_2 1_555 1_555
S7_2 C159_2 1_555 1_555
C159_2 F19_2 1_555 1_555
F20_2 C159_2 1_555 1_555
F21_2 C159_2 1_555 1_555
O35_3 S7_3 1_555 1_555
O36_3 S7_3 1_555 1_555
O37_3 S7_3 1_555 1_555
S7_3 C159_3 1_555 1_555
C159_3 F19_3 1_555 1_555
F20_3 C159_3 1_555 1_555
F21_3 C159_3 1_555 1_555
O35_4 S7_4 1_555 1_555
O36_4 S7_4 1_555 1_555
O37_4 S7_4 1_555 1_555
S7_4 C159_4 1_555 1_555
C159_4 F19_4 1_555 1_555
F20_4 C159_4 1_555 1_555
F21_4 C159_4 1_555 1_555
O38 S8 1_555 1_555
O39 S8 1_555 1_555
O40 S8 1_555 1_555
S8 C160 1_555 1_555
C160 F22 1_555 1_555
F23 C160 1_555 1_555
F24 C160 1_555 1_555
O38_2 S8_2 1_555 1_555
O39_2 S8_2 1_555 1_555
O40_2 S8_2 1_555 1_555
S8_2 C160_2 1_555 1_555
C160_2 F22_2 1_555 1_555
F23_2 C160_2 1_555 1_555
F24_2 C160_2 1_555 1_555
O38_3 S8_3 1_555 1_555
O39_3 S8_3 1_555 1_555
O40_3 S8_3 1_555 1_555
S8_3 C160_3 1_555 1_555
C160_3 F22_3 1_555 1_555
F23_3 C160_3 1_555 1_555
F24_3 C160_3 1_555 1_555
O38_4 S8_4 1_555 1_555
O39_4 S8_4 1_555 1_555
O40_4 S8_4 1_555 1_555
S8_4 C160_4 1_555 1_555
C160_4 F22_4 1_555 1_555
F23_4 C160_4 1_555 1_555
F24_4 C160_4 1_555 1_555

#END
