
###############################################################################
#
# This file contains modified crystal structure data generated from the
# MOF subset of the Cambridge Structural Database (CSD) v543 
# hosted by the Cambridge Crystallographic Data Centre (CCDC).
#
# This work is licensed under the Creative Commons
# Attribution-NonCommercial-ShareAlike 4.0 International License.
# To view a copy of this license, visit
# http://creativecommons.org/licenses/by-nc-sa/4.0/
# or send a letter to
# Creative Commons, PO Box 1866, Mountain View, CA 94042, USA.
#
# CIF created using the CSD Python API on 29 September 2022
# The structure has been converted into the P1 space group
# The structure has a 3D framework
# The original CSD entry PAVNEI is in the orthorhombic crystal system
# The framework has been calculated to contain at least 10.0% void space
# The void calculation uses a probe of radius 1.32A, grid spacing 0.4
# The framework is charged, counterions have been retained in the structure
#
###############################################################################

data_PAVNEI
_chemical_formula_moiety         '(C352 H528 Mo48 N14 O200 P6 Zn16 2+)n'
_symmetry_cell_setting           triclinic
_symmetry_space_group_name_H-M   'P 1'
_symmetry_Int_Tables_number      1
_space_group_name_Hall           'P 1'
loop_
_symmetry_equiv_pos_site_id
_symmetry_equiv_pos_as_xyz
1 x,y,z
_cell_length_a                   27.391(2)
_cell_length_b                   32.349(3)
_cell_length_c                   14.7330(13)
_cell_angle_alpha                90
_cell_angle_beta                 90
_cell_angle_gamma                90
_cell_volume                     13054.5
loop_
_atom_site_label
_atom_site_type_symbol
_atom_site_fract_x
_atom_site_fract_y
_atom_site_fract_z
O24 O 0.8962(4) 0.6587(3) 0.0272(9)
Zn6 Zn 0.97422(5) 0.71866(4) 0.04657(9)
O1 O 0.9558(2) 0.75488(18) 0.2729(4)
O2 O 0.9860(2) 0.81038(16) 0.1687(4)
O8 O 0.9805(2) 0.87005(19) 0.4465(4)
O11 O 0.9718(3) 0.7567(2) 0.4736(5)
O17 O 0.9545(3) 0.8252(3) 0.5952(4)
O18 O 0.9857(3) 0.6850(2) 0.1574(6)
Mo3 Mo 0.97683(3) 0.81804(3) 0.49054(5)
P1 P 1.0000 0.78238(9) 0.2500
C21 C 0.8341(4) 0.9126(4) 0.2880(8)
C22 C 0.7969(4) 0.9441(4) 0.3144(8)
C23 C 0.7911(5) 0.9792(4) 0.2598(9)
H13 H 0.8100 0.9823 0.2077
C26 C 0.7383(6) 0.9722(5) 0.4201(10)
H15 H 0.7220 0.9708 0.4754
C27 C 0.7713(6) 0.9406(5) 0.3921(9)
H16 H 0.7752 0.9172 0.4281
O28 O 0.9164(2) 0.80894(19) 0.4171(4)
O29 O 0.8817(2) 0.81290(18) 0.2106(4)
O30 O 0.9508(2) 0.87964(17) 0.2788(4)
O31 O 0.9832(3) 0.94084(19) 0.1453(5)
O32 O 0.9214(3) 0.87218(19) 0.1068(4)
O34 O 0.8555(3) 0.8171(2) 0.0210(5)
O37 O 0.9176(2) 0.75181(19) 0.0880(5)
O38 O 0.8178(3) 0.7471(2) 0.1537(5)
O39 O 0.8697(3) 0.7420(3) 0.5128(6)
O40 O 0.9226(3) 0.6952(2) 0.3889(5)
O41 O 0.8607(2) 0.7543(2) 0.3282(5)
O44 O 0.8929(3) 0.6927(2) 0.2075(6)
O45 O 0.9440(4) 0.6242(2) 0.2811(8)
O46 O 0.8405(3) 0.8822(2) 0.3483(5)
O47 O 0.8535(3) 0.9138(2) 0.2131(6)
Zn3 Zn 0.89481(4) 0.84620(3) 0.32112(7)
Mo7 Mo 0.98589(3) 0.89008(2) 0.16546(5)
Mo8 Mo 0.90535(3) 0.81141(2) 0.08545(5)
Mo10 Mo 0.87453(3) 0.75362(2) 0.19423(6)
Mo11 Mo 0.90509(3) 0.74746(3) 0.41944(6)
Mo12 Mo 0.95423(4) 0.67495(3) 0.27495(8)
C1 C 0.6659(4) 0.4126(4) 0.2880(8)
C2 C 0.7031(4) 0.4441(4) 0.3144(8)
C3 C 0.7089(5) 0.4792(4) 0.2598(9)
H1 H 0.6900 0.4823 0.2077
C4 C 0.7424(6) 0.5091(5) 0.2827(11)
H2 H 0.7474 0.5319 0.2453
C5 C 0.7684(6) 0.5045(5) 0.3625(12)
C6 C 0.7617(6) 0.4722(5) 0.4201(10)
H3 H 0.7780 0.4708 0.4754
C7 C 0.7287(6) 0.4406(5) 0.3921(9)
H4 H 0.7248 0.4172 0.4281
C8 C 0.8184(7) 0.5470(5) 0.4605(14)
C9 C 0.7916(6) 0.5441(6) 0.5421(13)
H5 H 0.7611 0.5314 0.5414
C10 C 0.8099(7) 0.5600(5) 0.6246(13)
H6 H 0.7920 0.5582 0.6780
C11 C 0.8565(6) 0.5787(5) 0.6232(13)
C12 C 0.8827(7) 0.5833(7) 0.5400(16)
H7 H 0.9127 0.5968 0.5400
C13 C 0.8640(7) 0.5675(6) 0.4581(15)
H8 H 0.8811 0.5705 0.4039
C14 C 0.8770(6) 0.5991(5) 0.7058(13)
C15 C 0.8569(9) 0.5888(6) 0.7909(14)
H9 H 0.8336 0.5679 0.7938
C16 C 0.8709(8) 0.6089(6) 0.8723(15)
H10 H 0.8546 0.6035 0.9264
C17 C 0.9084(7) 0.6362(5) 0.8700(14)
C18 C 0.9292(6) 0.6454(7) 0.7886(16)
H11 H 0.9550 0.6640 0.7873
C19 C 0.9130(6) 0.6276(6) 0.7043(15)
H12 H 0.9270 0.6356 0.6497
C20 C 0.9237(6) 0.6590(5) 0.9550(13)
O1_2 O 0.4558(2) 0.25488(18) 0.2271(4)
O2_2 O 0.4860(2) 0.31038(16) 0.3313(4)
O3 O 0.5836(2) 0.30894(19) 0.4171(4)
O4 O 0.6183(2) 0.31290(18) 0.2106(4)
O5 O 0.5492(2) 0.37964(17) 0.2788(4)
O6 O 0.5168(3) 0.44084(19) 0.1453(5)
O7 O 0.5786(3) 0.37218(19) 0.1068(4)
O8_2 O 0.4805(2) 0.37005(19) 0.0535(4)
O9 O 0.6445(3) 0.3171(2) 0.0210(5)
O11_2 O 0.4718(3) 0.2567(2) 0.0264(5)
O12 O 0.5824(2) 0.25181(19) 0.0880(5)
O13 O 0.6822(3) 0.2471(2) 0.1537(5)
O14 O 0.6303(3) 0.2420(3) 0.5128(6)
O15 O 0.5774(3) 0.1952(2) 0.3889(5)
O16 O 0.6393(2) 0.2543(2) 0.3282(5)
O18_2 O 0.4857(3) 0.1850(2) 0.3426(6)
O19 O 0.6071(3) 0.1927(2) 0.2075(6)
O20 O 0.5560(4) 0.1242(2) 0.2811(8)
O21 O 0.6595(3) 0.3822(2) 0.3483(5)
O22 O 0.6465(3) 0.4138(2) 0.2131(6)
O23 O 0.9581(4) 0.6833(3) 0.9468(7)
O25 O 0.8025(5) 0.5353(4) 0.3754(9)
Zn1 Zn 0.60519(4) 0.34620(3) 0.32112(7)
Zn2 Zn 0.52578(5) 0.21866(4) 0.04657(9)
Mo1 Mo 0.51411(3) 0.39008(2) 0.16546(5)
Mo2 Mo 0.59465(3) 0.31141(2) 0.08545(5)
Mo3_2 Mo 0.47683(3) 0.31804(3) 0.00946(5)
Mo4 Mo 0.62547(3) 0.25362(2) 0.19423(6)
Mo5 Mo 0.59491(3) 0.24746(3) 0.41944(6)
Mo6 Mo 0.54577(4) 0.17495(3) 0.27495(8)
P1_2 P 0.5000 0.28238(9) 0.2500
O26 O 0.5442(2) 0.25488(18) 0.2729(4)
O27 O 0.5140(2) 0.31038(16) 0.1687(4)
C21_2 C 0.3341(4) 0.4126(4) 0.2120(8)
C22_2 C 0.2969(4) 0.4441(4) 0.1856(8)
C23_2 C 0.2911(5) 0.4792(4) 0.2402(9)
H13_2 H 0.3100 0.4823 0.2923
C24 C 0.2576(6) 0.5091(5) 0.2173(11)
H14 H 0.2526 0.5319 0.2547
C25 C 0.2316(6) 0.5045(5) 0.1375(12)
C26_2 C 0.2383(6) 0.4722(5) 0.0799(10)
H15_2 H 0.2220 0.4708 0.0246
C27_2 C 0.2713(6) 0.4406(5) 0.1079(9)
H16_2 H 0.2752 0.4172 0.0719
C28 C 0.1816(7) 0.5470(5) 0.0395(14)
C33 C 0.1360(7) 0.5675(6) 0.0419(15)
H20 H 0.1189 0.5705 0.0961
O28_2 O 0.4164(2) 0.30894(19) 0.0829(4)
O29_2 O 0.3817(2) 0.31290(18) 0.2894(4)
O30_2 O 0.4508(2) 0.37964(17) 0.2212(4)
O31_2 O 0.4832(3) 0.44084(19) 0.3547(5)
O32_2 O 0.4214(3) 0.37218(19) 0.3932(4)
O33 O 0.5195(2) 0.37005(19) 0.4465(4)
O34_2 O 0.3555(3) 0.3171(2) 0.4790(5)
O35 O 0.4576(3) 0.3115(2) 0.5089(4)
O36 O 0.5282(3) 0.2567(2) 0.4736(5)
O37_2 O 0.4176(2) 0.25181(19) 0.4120(5)
O38_2 O 0.3178(3) 0.2471(2) 0.3463(5)
O40_2 O 0.4226(3) 0.1952(2) 0.1111(5)
O41_2 O 0.3607(2) 0.2543(2) 0.1718(5)
O42 O 0.5455(3) 0.3252(3) 0.5952(4)
O43 O 0.5143(3) 0.1850(2) 0.1574(6)
O44_2 O 0.3929(3) 0.1927(2) 0.2925(6)
O45_2 O 0.4440(4) 0.1242(2) 0.2189(8)
O46_2 O 0.3405(3) 0.3822(2) 0.1517(5)
O47_2 O 0.3535(3) 0.4138(2) 0.2869(6)
O50 O 0.1975(5) 0.5353(4) 0.1246(9)
Zn3_2 Zn 0.39481(4) 0.34620(3) 0.17888(7)
Zn4 Zn 0.47422(5) 0.21866(4) 0.45343(9)
Mo7_2 Mo 0.48589(3) 0.39008(2) 0.33454(5)
Mo8_2 Mo 0.40535(3) 0.31141(2) 0.41455(5)
Mo9 Mo 0.52317(3) 0.31804(3) 0.49054(5)
Mo10_2 Mo 0.37453(3) 0.25362(2) 0.30577(6)
Mo11_2 Mo 0.40509(3) 0.24746(3) 0.08056(6)
Mo12_2 Mo 0.45423(4) 0.17495(3) 0.22505(8)
O51 O 0.4581(4) 0.1833(3) 0.5532(7)
C9_2 C 0.2916(6) 0.0441(6) 0.9579(13)
H5_2 H 0.2611 0.0314 0.9586
C10_2 C 0.3099(7) 0.0600(5) 0.8754(13)
H6_2 H 0.2920 0.0582 0.8220
C11_2 C 0.3565(6) 0.0787(5) 0.8768(13)
C12_2 C 0.3827(7) 0.0833(7) 0.9600(16)
H7_2 H 0.4127 0.0968 0.9600
C14_2 C 0.3770(6) 0.0991(5) 0.7942(13)
C15_2 C 0.3569(9) 0.0888(6) 0.7091(14)
H9_2 H 0.3336 0.0679 0.7062
C16_2 C 0.3709(8) 0.1089(6) 0.6277(15)
H10_2 H 0.3546 0.1035 0.5736
C17_2 C 0.4084(7) 0.1362(5) 0.6300(14)
C18_2 C 0.4292(6) 0.1454(7) 0.7114(16)
H11_2 H 0.4550 0.1640 0.7127
C19_2 C 0.4130(6) 0.1276(6) 0.7957(15)
H12_2 H 0.4270 0.1356 0.8503
C20_2 C 0.4237(6) 0.1590(5) 0.5450(13)
O24_2 O 0.3962(4) 0.1587(3) 0.4728(9)
O49 O 0.6038(4) 0.1587(3) 0.0272(9)
O35_2 O 0.9576(3) 0.8115(2) 0.9911(4)
O10 O 0.5424(3) 0.3115(2) 0.9911(4)
O17_2 O 0.4545(3) 0.3252(3) 0.9048(4)
C29 C 0.2084(6) 0.5441(6) 0.9579(13)
H17 H 0.2389 0.5314 0.9586
C30 C 0.1901(7) 0.5600(5) 0.8754(13)
H18 H 0.2080 0.5582 0.8220
C31 C 0.1435(6) 0.5787(5) 0.8768(13)
C32 C 0.1173(7) 0.5833(7) 0.9600(16)
H19 H 0.0873 0.5968 0.9600
C34 C 0.1230(6) 0.5991(5) 0.7942(13)
C35 C 0.1431(9) 0.5888(6) 0.7091(14)
H21 H 0.1664 0.5679 0.7062
C36 C 0.1291(8) 0.6089(6) 0.6277(15)
H22 H 0.1454 0.6035 0.5736
C37 C 0.0916(7) 0.6362(5) 0.6300(14)
C38 C 0.0708(6) 0.6454(7) 0.7114(16)
H23 H 0.0450 0.6640 0.7127
C39 C 0.0870(6) 0.6276(6) 0.7957(15)
H24 H 0.0730 0.6356 0.8503
C40 C 0.0763(6) 0.6590(5) 0.5450(13)
O39_2 O 0.3697(3) 0.2420(3) 0.9872(6)
O48 O 0.0419(4) 0.6833(3) 0.5532(7)
O49_2 O 0.1038(4) 0.6587(3) 0.4728(9)
O52 O 0.5419(4) 0.1833(3) 0.9468(7)
Zn5 Zn 0.02578(5) 0.71866(4) 0.45343(9)
C1_2 C 0.1659(4) 0.9126(4) 0.2120(8)
C2_2 C 0.2031(4) 0.9441(4) 0.1856(8)
C3_2 C 0.2089(5) 0.9792(4) 0.2402(9)
H1_2 H 0.1900 0.9823 0.2923
C6_2 C 0.2617(6) 0.9722(5) 0.0799(10)
H3_2 H 0.2780 0.9708 0.0246
C7_2 C 0.2287(6) 0.9406(5) 0.1079(9)
H4_2 H 0.2248 0.9172 0.0719
O3_2 O 0.0836(2) 0.80894(19) 0.0829(4)
O4_2 O 0.1183(2) 0.81290(18) 0.2894(4)
O5_2 O 0.0492(2) 0.87964(17) 0.2212(4)
O6_2 O 0.0168(3) 0.94084(19) 0.3547(5)
O7_2 O 0.0786(3) 0.87218(19) 0.3932(4)
O9_2 O 0.1445(3) 0.8171(2) 0.4790(5)
O10_2 O 0.0424(3) 0.8115(2) 0.5089(4)
O12_2 O 0.0824(2) 0.75181(19) 0.4120(5)
O13_2 O 0.1822(3) 0.7471(2) 0.3463(5)
O15_2 O 0.0774(3) 0.6952(2) 0.1111(5)
O16_2 O 0.1393(2) 0.7543(2) 0.1718(5)
O19_2 O 0.1071(3) 0.6927(2) 0.2925(6)
O20_2 O 0.0560(4) 0.6242(2) 0.2189(8)
O21_2 O 0.1595(3) 0.8822(2) 0.1517(5)
O22_2 O 0.1465(3) 0.9138(2) 0.2869(6)
Zn1_2 Zn 0.10519(4) 0.84620(3) 0.17888(7)
Mo1_2 Mo 0.01411(3) 0.89008(2) 0.33454(5)
Mo2_2 Mo 0.09465(3) 0.81141(2) 0.41455(5)
Mo4_2 Mo 0.12547(3) 0.75362(2) 0.30577(6)
Mo5_2 Mo 0.09491(3) 0.74746(3) 0.08056(6)
Mo6_2 Mo 0.04577(4) 0.67495(3) 0.22505(8)
P1_3 P 0.0000 0.78238(9) 0.2500
O26_2 O 0.0442(2) 0.75488(18) 0.2271(4)
O27_2 O 0.0140(2) 0.81038(16) 0.3313(4)
O33_2 O 0.0195(2) 0.87005(19) 0.0535(4)
O36_2 O 0.0282(3) 0.7567(2) 0.0264(5)
O43_2 O 0.0143(3) 0.6850(2) 0.3426(6)
Mo9_2 Mo 0.02317(3) 0.81804(3) 0.00946(5)
C24_2 C 0.7576(6) 0.0091(5) 0.2827(11)
H14_2 H 0.7526 0.0319 0.2453
C25_2 C 0.7316(6) 0.0045(5) 0.3625(12)
C28_2 C 0.6816(7) 0.0470(5) 0.4605(14)
C29_2 C 0.7084(6) 0.0441(6) 0.5421(13)
H17_2 H 0.7389 0.0314 0.5414
C30_2 C 0.6901(7) 0.0600(5) 0.6246(13)
H18_2 H 0.7080 0.0582 0.6780
C31_2 C 0.6435(6) 0.0787(5) 0.6232(13)
C32_2 C 0.6173(7) 0.0833(7) 0.5400(16)
H19_2 H 0.5873 0.0968 0.5400
C33_2 C 0.6360(7) 0.0675(6) 0.4581(15)
H20_2 H 0.6189 0.0705 0.4039
C34_2 C 0.6230(6) 0.0991(5) 0.7058(13)
C35_2 C 0.6431(9) 0.0888(6) 0.7909(14)
H21_2 H 0.6664 0.0679 0.7938
C36_2 C 0.6291(8) 0.1089(6) 0.8723(15)
H22_2 H 0.6454 0.1035 0.9264
C37_2 C 0.5916(7) 0.1362(5) 0.8700(14)
C38_2 C 0.5708(6) 0.1454(7) 0.7886(16)
H23_2 H 0.5450 0.1640 0.7873
C39_2 C 0.5870(6) 0.1276(6) 0.7043(15)
H24_2 H 0.5730 0.1356 0.6497
C40_2 C 0.5763(6) 0.1590(5) 0.9550(13)
O50_2 O 0.6975(5) 0.0353(4) 0.3754(9)
O35_3 O 0.0424(3) 0.1885(2) 0.0089(4)
O51_2 O 0.0419(4) 0.3167(3) 0.0532(7)
O49_3 O 0.3962(4) 0.8413(3) 0.9728(9)
Zn5_2 Zn 0.47422(5) 0.78134(4) 0.95343(9)
C9_3 C 0.7084(6) 0.9559(6) 0.0421(13)
H5_3 H 0.7389 0.9686 0.0414
C10_3 C 0.6901(7) 0.9400(5) 0.1246(13)
H6_3 H 0.7080 0.9418 0.1780
C11_3 C 0.6435(6) 0.9213(5) 0.1232(13)
C12_3 C 0.6173(7) 0.9167(7) 0.0400(16)
H7_3 H 0.5873 0.9032 0.0400
C14_3 C 0.6230(6) 0.9009(5) 0.2058(13)
C15_3 C 0.6431(9) 0.9112(6) 0.2909(14)
H9_3 H 0.6664 0.9321 0.2938
C16_3 C 0.6291(8) 0.8911(6) 0.3723(15)
H10_3 H 0.6454 0.8965 0.4264
C17_3 C 0.5916(7) 0.8638(5) 0.3700(14)
C18_3 C 0.5708(6) 0.8546(7) 0.2886(16)
H11_3 H 0.5450 0.8360 0.2873
C19_3 C 0.5870(6) 0.8724(6) 0.2043(15)
H12_3 H 0.5730 0.8644 0.1497
C20_3 C 0.5763(6) 0.8410(5) 0.4550(13)
O23_2 O 0.5419(4) 0.8167(3) 0.4468(7)
O24_3 O 0.6038(4) 0.8413(3) 0.5272(9)
Zn6_2 Zn 0.52578(5) 0.78134(4) 0.54657(9)
C1_3 C 0.3341(4) 0.5874(4) 0.7120(8)
C2_3 C 0.2969(4) 0.5559(4) 0.6856(8)
C3_3 C 0.2911(5) 0.5208(4) 0.7402(9)
H1_3 H 0.3100 0.5177 0.7923
C4_2 C 0.2576(6) 0.4909(5) 0.7173(11)
H2_2 H 0.2526 0.4681 0.7547
C5_2 C 0.2316(6) 0.4955(5) 0.6375(12)
C6_3 C 0.2383(6) 0.5278(5) 0.5799(10)
H3_3 H 0.2220 0.5292 0.5246
C7_3 C 0.2713(6) 0.5594(5) 0.6079(9)
H4_3 H 0.2752 0.5828 0.5719
C8_2 C 0.1816(7) 0.4530(5) 0.5395(14)
C9_4 C 0.2084(6) 0.4559(6) 0.4579(13)
H5_4 H 0.2389 0.4686 0.4586
C10_4 C 0.1901(7) 0.4400(5) 0.3754(13)
H6_4 H 0.2080 0.4418 0.3220
C11_4 C 0.1435(6) 0.4213(5) 0.3768(13)
C12_4 C 0.1173(7) 0.4167(7) 0.4600(16)
H7_4 H 0.0873 0.4032 0.4600
C13_2 C 0.1360(7) 0.4325(6) 0.5419(15)
H8_2 H 0.1189 0.4295 0.5961
C14_4 C 0.1230(6) 0.4009(5) 0.2942(13)
C15_4 C 0.1431(9) 0.4112(6) 0.2091(14)
H9_4 H 0.1664 0.4321 0.2062
C16_4 C 0.1291(8) 0.3911(6) 0.1277(15)
H10_4 H 0.1454 0.3965 0.0736
C17_4 C 0.0916(7) 0.3638(5) 0.1300(14)
C18_4 C 0.0708(6) 0.3546(7) 0.2114(16)
H11_4 H 0.0450 0.3360 0.2127
C19_4 C 0.0870(6) 0.3724(6) 0.2957(15)
H12_4 H 0.0730 0.3644 0.3503
C20_4 C 0.0763(6) 0.3410(5) 0.0450(13)
O1_3 O 0.5442(2) 0.74512(18) 0.7729(4)
O2_3 O 0.5140(2) 0.68962(16) 0.6687(4)
O3_3 O 0.4164(2) 0.69106(19) 0.5829(4)
O4_3 O 0.3817(2) 0.68710(18) 0.7894(4)
O5_3 O 0.4508(2) 0.62036(17) 0.7212(4)
O6_3 O 0.4832(3) 0.55916(19) 0.8547(5)
O7_3 O 0.4214(3) 0.62782(19) 0.8932(4)
O8_3 O 0.5195(2) 0.62995(19) 0.9465(4)
O9_3 O 0.3555(3) 0.6829(2) 0.9790(5)
O11_3 O 0.5282(3) 0.7433(2) 0.9736(5)
O12_3 O 0.4176(2) 0.74819(19) 0.9120(5)
O13_3 O 0.3178(3) 0.7529(2) 0.8463(5)
O14_2 O 0.3697(3) 0.7580(3) 0.4872(6)
O15_3 O 0.4226(3) 0.8048(2) 0.6111(5)
O16_3 O 0.3607(2) 0.7457(2) 0.6718(5)
O18_3 O 0.5143(3) 0.8150(2) 0.6574(6)
O19_3 O 0.3929(3) 0.8073(2) 0.7925(6)
O20_3 O 0.4440(4) 0.8758(2) 0.7189(8)
O21_3 O 0.3405(3) 0.6178(2) 0.6517(5)
O22_3 O 0.3535(3) 0.5862(2) 0.7869(6)
O25_2 O 0.1975(5) 0.4647(4) 0.6246(9)
Zn1_3 Zn 0.39481(4) 0.65380(3) 0.67888(7)
Mo1_3 Mo 0.48589(3) 0.60992(2) 0.83454(5)
Mo2_3 Mo 0.40535(3) 0.68859(2) 0.91455(5)
Mo3_3 Mo 0.52317(3) 0.68196(3) 0.99054(5)
Mo4_3 Mo 0.37453(3) 0.74638(2) 0.80577(6)
Mo5_3 Mo 0.40509(3) 0.75254(3) 0.58056(6)
Mo6_3 Mo 0.45423(4) 0.82505(3) 0.72505(8)
P1_4 P 0.5000 0.71762(9) 0.7500
O26_3 O 0.4558(2) 0.74512(18) 0.7271(4)
O27_3 O 0.4860(2) 0.68962(16) 0.8313(4)
C21_3 C 0.6659(4) 0.5874(4) 0.7880(8)
C22_3 C 0.7031(4) 0.5559(4) 0.8144(8)
C23_3 C 0.7089(5) 0.5208(4) 0.7598(9)
H13_3 H 0.6900 0.5177 0.7077
C24_3 C 0.7424(6) 0.4909(5) 0.7827(11)
H14_3 H 0.7474 0.4681 0.7453
C25_3 C 0.7684(6) 0.4955(5) 0.8625(12)
C26_3 C 0.7617(6) 0.5278(5) 0.9201(10)
H15_3 H 0.7780 0.5292 0.9754
C27_3 C 0.7287(6) 0.5594(5) 0.8921(9)
H16_3 H 0.7248 0.5828 0.9281
C28_3 C 0.8184(7) 0.4530(5) 0.9605(14)
C33_3 C 0.8640(7) 0.4325(6) 0.9581(15)
H20_3 H 0.8811 0.4295 0.9039
O28_3 O 0.5836(2) 0.69106(19) 0.9171(4)
O29_3 O 0.6183(2) 0.68710(18) 0.7106(4)
O30_3 O 0.5492(2) 0.62036(17) 0.7788(4)
O31_3 O 0.5168(3) 0.55916(19) 0.6453(5)
O32_3 O 0.5786(3) 0.62782(19) 0.6068(4)
O33_3 O 0.4805(2) 0.62995(19) 0.5535(4)
O34_3 O 0.6445(3) 0.6829(2) 0.5210(5)
O35_4 O 0.5424(3) 0.6885(2) 0.4911(4)
O36_3 O 0.4718(3) 0.7433(2) 0.5264(5)
O37_3 O 0.5824(2) 0.74819(19) 0.5880(5)
O38_3 O 0.6822(3) 0.7529(2) 0.6537(5)
O40_3 O 0.5774(3) 0.8048(2) 0.8889(5)
O41_3 O 0.6393(2) 0.7457(2) 0.8282(5)
O42_2 O 0.4545(3) 0.6748(3) 0.4048(4)
O43_3 O 0.4857(3) 0.8150(2) 0.8426(6)
O44_3 O 0.6071(3) 0.8073(2) 0.7075(6)
O45_3 O 0.5560(4) 0.8758(2) 0.7811(8)
O46_3 O 0.6595(3) 0.6178(2) 0.8483(5)
O47_3 O 0.6465(3) 0.5862(2) 0.7131(6)
O50_3 O 0.8025(5) 0.4647(4) 0.8754(9)
Zn3_3 Zn 0.60519(4) 0.65380(3) 0.82112(7)
Mo7_3 Mo 0.51411(3) 0.60992(2) 0.66546(5)
Mo8_3 Mo 0.59465(3) 0.68859(2) 0.58545(5)
Mo9_3 Mo 0.47683(3) 0.68196(3) 0.50946(5)
Mo10_3 Mo 0.62547(3) 0.74638(2) 0.69423(6)
Mo11_3 Mo 0.59491(3) 0.75254(3) 0.91944(6)
Mo12_3 Mo 0.54577(4) 0.82505(3) 0.77495(8)
O1_4 O 0.0442(2) 0.24512(18) 0.7271(4)
O2_4 O 0.0140(2) 0.18962(16) 0.8313(4)
O8_4 O 0.0195(2) 0.12995(19) 0.5535(4)
O11_4 O 0.0282(3) 0.2433(2) 0.5264(5)
O17_3 O 0.0455(3) 0.1748(3) 0.4048(4)
O18_4 O 0.0143(3) 0.3150(2) 0.8426(6)
Mo3_4 Mo 0.02317(3) 0.18196(3) 0.50946(5)
P1_5 P 0.0000 0.21762(9) 0.7500
C21_4 C 0.1659(4) 0.0874(4) 0.7120(8)
C22_4 C 0.2031(4) 0.0559(4) 0.6856(8)
C23_4 C 0.2089(5) 0.0208(4) 0.7402(9)
H13_4 H 0.1900 0.0177 0.7923
C26_4 C 0.2617(6) 0.0278(5) 0.5799(10)
H15_4 H 0.2780 0.0292 0.5246
C27_4 C 0.2287(6) 0.0594(5) 0.6079(9)
H16_4 H 0.2248 0.0828 0.5719
O28_4 O 0.0836(2) 0.19106(19) 0.5829(4)
O29_4 O 0.1183(2) 0.18710(18) 0.7894(4)
O30_4 O 0.0492(2) 0.12036(17) 0.7212(4)
O31_4 O 0.0168(3) 0.05916(19) 0.8547(5)
O32_4 O 0.0786(3) 0.12782(19) 0.8932(4)
O34_4 O 0.1445(3) 0.1829(2) 0.9790(5)
O37_4 O 0.0824(2) 0.24819(19) 0.9120(5)
O38_4 O 0.1822(3) 0.2529(2) 0.8463(5)
O39_3 O 0.1303(3) 0.2580(3) 0.4872(6)
O40_4 O 0.0774(3) 0.3048(2) 0.6111(5)
O41_4 O 0.1393(2) 0.2457(2) 0.6718(5)
O44_4 O 0.1071(3) 0.3073(2) 0.7925(6)
O45_4 O 0.0560(4) 0.3758(2) 0.7189(8)
O46_4 O 0.1595(3) 0.1178(2) 0.6517(5)
O47_4 O 0.1465(3) 0.0862(2) 0.7869(6)
Zn3_4 Zn 0.10519(4) 0.15380(3) 0.67888(7)
Zn4_2 Zn 0.02578(5) 0.28134(4) 0.95343(9)
Mo7_4 Mo 0.01411(3) 0.10992(2) 0.83454(5)
Mo8_4 Mo 0.09465(3) 0.18859(2) 0.91455(5)
Mo10_4 Mo 0.12547(3) 0.24638(2) 0.80577(6)
Mo11_4 Mo 0.09491(3) 0.25254(3) 0.58056(6)
Mo12_4 Mo 0.04577(4) 0.32505(3) 0.72505(8)
O24_4 O 0.1038(4) 0.3413(3) 0.9728(9)
C24_4 C 0.2424(6) 0.9909(5) 0.7173(11)
H14_4 H 0.2474 0.9681 0.7547
C25_4 C 0.2684(6) 0.9955(5) 0.6375(12)
C28_4 C 0.3184(7) 0.9530(5) 0.5395(14)
C29_3 C 0.2916(6) 0.9559(6) 0.4579(13)
H17_3 H 0.2611 0.9686 0.4586
C30_3 C 0.3099(7) 0.9400(5) 0.3754(13)
H18_3 H 0.2920 0.9418 0.3220
C31_3 C 0.3565(6) 0.9213(5) 0.3768(13)
C32_3 C 0.3827(7) 0.9167(7) 0.4600(16)
H19_3 H 0.4127 0.9032 0.4600
C33_4 C 0.3640(7) 0.9325(6) 0.5419(15)
H20_4 H 0.3811 0.9295 0.5961
C34_3 C 0.3770(6) 0.9009(5) 0.2942(13)
C35_3 C 0.3569(9) 0.9112(6) 0.2091(14)
H21_3 H 0.3336 0.9321 0.2062
C36_3 C 0.3709(8) 0.8911(6) 0.1277(15)
H22_3 H 0.3546 0.8965 0.0736
C37_3 C 0.4084(7) 0.8638(5) 0.1300(14)
C38_3 C 0.4292(6) 0.8546(7) 0.2114(16)
H23_3 H 0.4550 0.8360 0.2127
C39_3 C 0.4130(6) 0.8724(6) 0.2957(15)
H24_3 H 0.4270 0.8644 0.3503
C40_3 C 0.4237(6) 0.8410(5) 0.0450(13)
O48_2 O 0.4581(4) 0.8167(3) 0.0532(7)
O50_4 O 0.3025(5) 0.9647(4) 0.6246(9)
C1_4 C 0.8341(4) 0.0874(4) 0.7880(8)
C2_4 C 0.7969(4) 0.0559(4) 0.8144(8)
C3_4 C 0.7911(5) 0.0208(4) 0.7598(9)
H1_4 H 0.8100 0.0177 0.7077
C6_4 C 0.7383(6) 0.0278(5) 0.9201(10)
H3_4 H 0.7220 0.0292 0.9754
C7_4 C 0.7713(6) 0.0594(5) 0.8921(9)
H4_4 H 0.7752 0.0828 0.9281
O3_4 O 0.9164(2) 0.19106(19) 0.9171(4)
O4_4 O 0.8817(2) 0.18710(18) 0.7106(4)
O5_4 O 0.9508(2) 0.12036(17) 0.7788(4)
O6_4 O 0.9832(3) 0.05916(19) 0.6453(5)
O7_4 O 0.9214(3) 0.12782(19) 0.6068(4)
O9_4 O 0.8555(3) 0.1829(2) 0.5210(5)
O10_3 O 0.9576(3) 0.1885(2) 0.4911(4)
O12_4 O 0.9176(2) 0.24819(19) 0.5880(5)
O13_4 O 0.8178(3) 0.2529(2) 0.6537(5)
O15_4 O 0.9226(3) 0.3048(2) 0.8889(5)
O16_4 O 0.8607(2) 0.2457(2) 0.8282(5)
O19_4 O 0.8929(3) 0.3073(2) 0.7075(6)
O20_4 O 0.9440(4) 0.3758(2) 0.7811(8)
O21_4 O 0.8405(3) 0.1178(2) 0.8483(5)
O22_4 O 0.8535(3) 0.0862(2) 0.7131(6)
Zn1_4 Zn 0.89481(4) 0.15380(3) 0.82112(7)
Zn2_2 Zn 0.97422(5) 0.28134(4) 0.54657(9)
Mo1_4 Mo 0.98589(3) 0.10992(2) 0.66546(5)
Mo2_4 Mo 0.90535(3) 0.18859(2) 0.58545(5)
Mo4_4 Mo 0.87453(3) 0.24638(2) 0.69423(6)
Mo5_4 Mo 0.90509(3) 0.25254(3) 0.91944(6)
Mo6_4 Mo 0.95423(4) 0.32505(3) 0.77495(8)
P1_6 P 1.0000 0.21762(9) 0.7500
O26_4 O 0.9558(2) 0.24512(18) 0.7729(4)
O27_4 O 0.9860(2) 0.18962(16) 0.6687(4)
O33_4 O 0.9805(2) 0.12995(19) 0.9465(4)
O36_4 O 0.9718(3) 0.2433(2) 0.9736(5)
O43_4 O 0.9857(3) 0.3150(2) 0.6574(6)
Mo9_4 Mo 0.97683(3) 0.18196(3) 0.99054(5)
O52_2 O 0.9581(4) 0.3167(3) 0.4468(7)
O10_4 O 0.4576(3) 0.6885(2) 0.0089(4)
O17_4 O 0.5455(3) 0.6748(3) 0.0952(4)
C29_4 C 0.7916(6) 0.4559(6) 0.0421(13)
H17_4 H 0.7611 0.4686 0.0414
C30_4 C 0.8099(7) 0.4400(5) 0.1246(13)
H18_4 H 0.7920 0.4418 0.1780
C31_4 C 0.8565(6) 0.4213(5) 0.1232(13)
C32_4 C 0.8827(7) 0.4167(7) 0.0400(16)
H19_4 H 0.9127 0.4032 0.0400
C34_4 C 0.8770(6) 0.4009(5) 0.2058(13)
C35_4 C 0.8569(9) 0.4112(6) 0.2909(14)
H21_4 H 0.8336 0.4321 0.2938
C36_4 C 0.8709(8) 0.3911(6) 0.3723(15)
H22_4 H 0.8546 0.3965 0.4264
C37_4 C 0.9084(7) 0.3638(5) 0.3700(14)
C38_4 C 0.9292(6) 0.3546(7) 0.2886(16)
H23_4 H 0.9550 0.3360 0.2873
C39_4 C 0.9130(6) 0.3724(6) 0.2043(15)
H24_4 H 0.9270 0.3644 0.1497
C40_4 C 0.9237(6) 0.3410(5) 0.4550(13)
O39_4 O 0.6303(3) 0.7580(3) 0.0128(6)
O49_4 O 0.8962(4) 0.3413(3) 0.5272(9)
O14_3 O 0.8697(3) 0.2580(3) 0.0128(6)
O42_3 O 0.9545(3) 0.1748(3) 0.0952(4)
C4_3 C 0.7576(6) 0.9909(5) 0.7827(11)
H2_3 H 0.7526 0.9681 0.7453
C5_3 C 0.7316(6) 0.9955(5) 0.8625(12)
C8_3 C 0.6816(7) 0.9530(5) 0.9605(14)
C13_3 C 0.6360(7) 0.9325(6) 0.9581(15)
H8_3 H 0.6189 0.9295 0.9039
O25_3 O 0.6975(5) 0.9647(4) 0.8754(9)
C4_4 C 0.2424(6) 0.0091(5) 0.2173(11)
H2_4 H 0.2474 0.0319 0.2547
C5_4 C 0.2684(6) 0.0045(5) 0.1375(12)
C8_4 C 0.3184(7) 0.0470(5) 0.0395(14)
C13_4 C 0.3640(7) 0.0675(6) 0.0419(15)
H8_4 H 0.3811 0.0705 0.0961
O25_4 O 0.3025(5) 0.0353(4) 0.1246(9)
O14_4 O 0.1303(3) 0.7420(3) 0.9872(6)
O42_4 O 0.0455(3) 0.8252(3) 0.9048(4)
H47 H 0.7039 0.2195 0.0069
C53 C 0.7661(10) 0.1630(8) 0.0636(18)
H51 H 0.7522 0.1780 0.1144
H52 H 0.7450 0.1397 0.0504
C54 C 0.8160(12) 0.1477(10) 0.088(2)
H53 H 0.8137 0.1301 0.1408
H54 H 0.8367 0.1708 0.1020
H55 H 0.8294 0.1324 0.0386
C41 C 0.7415(7) 0.2718(6) 0.9002(14)
H25 H 0.7247 0.2831 0.9527
H26 H 0.7741 0.2643 0.9198
C42 C 0.7460(7) 0.3034(6) 0.8369(16)
H27 H 0.7135 0.3139 0.8243
H28 H 0.7581 0.2912 0.7810
C43 C 0.7796(9) 0.3414(7) 0.8607(16)
H29 H 0.7636 0.3576 0.9074
H30 H 0.8099 0.3311 0.8860
C44 C 0.7908(10) 0.3679(9) 0.786(2)
H31 H 0.8124 0.3895 0.8060
H32 H 0.7612 0.3799 0.7630
H33 H 0.8063 0.3522 0.7390
C45 C 0.7394(6) 0.2118(4) 0.7939(9)
H34 H 0.7324 0.2278 0.7399
H35 H 0.7744 0.2128 0.8034
C46 C 0.7260(7) 0.1693(6) 0.7760(12)
H36 H 0.6907 0.1671 0.7715
H37 H 0.7368 0.1519 0.8257
C47 C 0.7509(6) 0.1540(5) 0.6821(11)
H38 H 0.7847 0.1629 0.6791
H39 H 0.7499 0.1241 0.6776
C48 C 0.7234(8) 0.1723(7) 0.6110(15)
H40 H 0.7374 0.1648 0.5535
H41 H 0.7241 0.2019 0.6174
H42 H 0.6903 0.1628 0.6139
C49 C 0.6607(6) 0.2409(7) 0.8563(13)
H43 H 0.6430 0.2164 0.8753
H44 H 0.6510 0.2631 0.8967
C50 C 0.6446(11) 0.2509(9) 0.771(2)
H45 H 0.6555 0.2301 0.7285
H46 H 0.6585 0.2772 0.7534
C51 C 0.7180(6) 0.2049(6) 0.9558(10)
H48 H 0.6982 0.1805 0.9449
C52 C 0.7686(6) 0.1914(7) 0.9809(15)
H49 H 0.7885 0.2153 0.9946
H50 H 0.7833 0.1768 0.9304
N1 N 0.7153(4) 0.2326(4) 0.8727(10)
C55 C 0.5778(14) 0.2544(12) 0.768(3)
H56 H 0.5635 0.2506 0.7082
H57 H 0.5610 0.2383 0.8138
C56 C 0.5863(15) 0.2929(13) 0.790(3)
H58 H 0.5559 0.3075 0.7957
H59 H 0.6061 0.3057 0.7445
H60 H 0.6032 0.2937 0.8475
C41_2 C 0.7585(7) 0.2282(6) 0.4002(14)
H25_2 H 0.7753 0.2169 0.4527
H26_2 H 0.7259 0.2357 0.4198
C42_2 C 0.7540(7) 0.1966(6) 0.3369(16)
H27_2 H 0.7865 0.1861 0.3243
H28_2 H 0.7419 0.2088 0.2810
C43_2 C 0.7204(9) 0.1586(7) 0.3607(16)
H29_2 H 0.7364 0.1424 0.4074
H30_2 H 0.6901 0.1689 0.3860
C44_2 C 0.7092(10) 0.1321(9) 0.286(2)
H31_2 H 0.6876 0.1105 0.3060
H32_2 H 0.7388 0.1201 0.2630
H33_2 H 0.6937 0.1478 0.2390
C45_2 C 0.7606(6) 0.2882(4) 0.2939(9)
H34_2 H 0.7676 0.2722 0.2399
H35_2 H 0.7256 0.2872 0.3034
C46_2 C 0.7740(7) 0.3307(6) 0.2760(12)
H36_2 H 0.8093 0.3329 0.2715
H37_2 H 0.7632 0.3481 0.3257
C47_2 C 0.7491(6) 0.3460(5) 0.1821(11)
H38_2 H 0.7153 0.3371 0.1791
H39_2 H 0.7501 0.3759 0.1776
C48_2 C 0.7766(8) 0.3277(7) 0.1110(15)
H40_2 H 0.7626 0.3352 0.0535
H41_2 H 0.7759 0.2981 0.1174
H42_2 H 0.8097 0.3372 0.1139
C49_2 C 0.8393(6) 0.2591(7) 0.3563(13)
H43_2 H 0.8570 0.2836 0.3753
H44_2 H 0.8490 0.2369 0.3967
C50_2 C 0.8554(11) 0.2491(9) 0.271(2)
H45_2 H 0.8445 0.2699 0.2285
H46_2 H 0.8415 0.2228 0.2534
C51_2 C 0.7820(6) 0.2951(6) 0.4558(10)
H47_2 H 0.7961 0.2805 0.5069
H48_2 H 0.8018 0.3195 0.4449
C52_2 C 0.7314(6) 0.3086(7) 0.4809(15)
H49_2 H 0.7115 0.2847 0.4946
H50_2 H 0.7167 0.3232 0.4304
C53_2 C 0.7339(10) 0.3370(8) 0.5636(18)
H51_2 H 0.7478 0.3220 0.6144
H52_2 H 0.7550 0.3603 0.5504
C54_2 C 0.6840(12) 0.3523(10) 0.588(2)
H53_2 H 0.6863 0.3699 0.6408
H54_2 H 0.6633 0.3292 0.6020
H55_2 H 0.6706 0.3676 0.5386
N1_2 N 0.7847(4) 0.2674(4) 0.3727(10)
C55_2 C 0.9222(14) 0.2456(12) 0.268(3)
H56_2 H 0.9365 0.2494 0.2082
H57_2 H 0.9390 0.2617 0.3138
C56_2 C 0.9137(15) 0.2071(13) 0.290(3)
H58_2 H 0.9441 0.1925 0.2957
H59_2 H 0.8939 0.1943 0.2445
H60_2 H 0.8968 0.2063 0.3475
C41_3 C 0.2415(7) 0.2282(6) 0.0998(14)
H25_3 H 0.2247 0.2169 0.0473
H26_3 H 0.2741 0.2357 0.0802
C42_3 C 0.2460(7) 0.1966(6) 0.1631(16)
H27_3 H 0.2135 0.1861 0.1757
H28_3 H 0.2581 0.2088 0.2190
C43_3 C 0.2796(9) 0.1586(7) 0.1393(16)
H29_3 H 0.2636 0.1424 0.0926
H30_3 H 0.3099 0.1689 0.1140
C44_3 C 0.2908(10) 0.1321(9) 0.214(2)
H31_3 H 0.3124 0.1105 0.1940
H32_3 H 0.2612 0.1201 0.2370
H33_3 H 0.3063 0.1478 0.2610
C45_3 C 0.2394(6) 0.2882(4) 0.2061(9)
H34_3 H 0.2324 0.2722 0.2601
H35_3 H 0.2744 0.2872 0.1966
C46_3 C 0.2260(7) 0.3307(6) 0.2240(12)
H36_3 H 0.1907 0.3329 0.2285
H37_3 H 0.2368 0.3481 0.1743
C47_3 C 0.2509(6) 0.3460(5) 0.3179(11)
H38_3 H 0.2847 0.3371 0.3209
H39_3 H 0.2499 0.3759 0.3224
C48_3 C 0.2234(8) 0.3277(7) 0.3890(15)
H40_3 H 0.2374 0.3352 0.4465
H41_3 H 0.2241 0.2981 0.3826
H42_3 H 0.1903 0.3372 0.3861
C49_3 C 0.1607(6) 0.2591(7) 0.1437(13)
H43_3 H 0.1430 0.2836 0.1247
H44_3 H 0.1510 0.2369 0.1033
C50_3 C 0.1446(11) 0.2491(9) 0.229(2)
H45_3 H 0.1555 0.2699 0.2715
H46_3 H 0.1585 0.2228 0.2466
C51_3 C 0.2180(6) 0.2951(6) 0.0442(10)
H48_3 H 0.1982 0.3195 0.0551
C52_3 C 0.2686(6) 0.3086(7) 0.0191(15)
H49_3 H 0.2885 0.2847 0.0054
H50_3 H 0.2833 0.3232 0.0696
N1_3 N 0.2153(4) 0.2674(4) 0.1273(10)
C55_3 C 0.0778(14) 0.2456(12) 0.232(3)
H56_3 H 0.0635 0.2494 0.2918
H57_3 H 0.0610 0.2617 0.1862
C56_3 C 0.0863(15) 0.2071(13) 0.210(3)
H58_3 H 0.0559 0.1925 0.2043
H59_3 H 0.1061 0.1943 0.2555
H60_3 H 0.1032 0.2063 0.1525
H47_3 H 0.2039 0.2805 0.9931
C53_3 C 0.2661(10) 0.3370(8) 0.9364(18)
H51_3 H 0.2522 0.3220 0.8856
H52_3 H 0.2450 0.3603 0.9496
C54_3 C 0.3160(12) 0.3523(10) 0.912(2)
H53_3 H 0.3137 0.3699 0.8592
H54_3 H 0.3367 0.3292 0.8980
H55_3 H 0.3294 0.3676 0.9614
C41_4 C 0.2585(7) 0.2718(6) 0.5998(14)
H25_4 H 0.2753 0.2831 0.5473
H26_4 H 0.2259 0.2643 0.5802
C42_4 C 0.2540(7) 0.3034(6) 0.6631(16)
H27_4 H 0.2865 0.3139 0.6757
H28_4 H 0.2419 0.2912 0.7190
C43_4 C 0.2204(9) 0.3414(7) 0.6393(16)
H29_4 H 0.2364 0.3576 0.5926
H30_4 H 0.1901 0.3311 0.6140
C44_4 C 0.2092(10) 0.3679(9) 0.714(2)
H31_4 H 0.1876 0.3895 0.6940
H32_4 H 0.2388 0.3799 0.7370
H33_4 H 0.1937 0.3522 0.7610
C45_4 C 0.2606(6) 0.2118(4) 0.7061(9)
H34_4 H 0.2676 0.2278 0.7601
H35_4 H 0.2256 0.2128 0.6966
C46_4 C 0.2740(7) 0.1693(6) 0.7240(12)
H36_4 H 0.3093 0.1671 0.7285
H37_4 H 0.2632 0.1519 0.6743
C47_4 C 0.2491(6) 0.1540(5) 0.8179(11)
H38_4 H 0.2153 0.1629 0.8209
H39_4 H 0.2501 0.1241 0.8224
C48_4 C 0.2766(8) 0.1723(7) 0.8890(15)
H40_4 H 0.2626 0.1648 0.9465
H41_4 H 0.2759 0.2019 0.8826
H42_4 H 0.3097 0.1628 0.8861
C49_4 C 0.3393(6) 0.2409(7) 0.6437(13)
H43_4 H 0.3570 0.2164 0.6247
H44_4 H 0.3490 0.2631 0.6033
C50_4 C 0.3554(11) 0.2509(9) 0.729(2)
H45_4 H 0.3445 0.2301 0.7715
H46_4 H 0.3415 0.2772 0.7466
C51_4 C 0.2820(6) 0.2049(6) 0.5442(10)
H47_4 H 0.2961 0.2195 0.4931
H48_4 H 0.3018 0.1805 0.5551
C52_4 C 0.2314(6) 0.1914(7) 0.5191(15)
H49_4 H 0.2115 0.2153 0.5054
H50_4 H 0.2167 0.1768 0.5696
C53_4 C 0.2339(10) 0.1630(8) 0.4364(18)
H51_4 H 0.2478 0.1780 0.3856
H52_4 H 0.2550 0.1397 0.4496
C54_4 C 0.1840(12) 0.1477(10) 0.412(2)
H53_4 H 0.1863 0.1301 0.3592
H54_4 H 0.1633 0.1708 0.3980
H55_4 H 0.1706 0.1324 0.4614
N1_4 N 0.2847(4) 0.2326(4) 0.6273(10)
C55_4 C 0.4222(14) 0.2544(12) 0.732(3)
H56_4 H 0.4365 0.2506 0.7918
H57_4 H 0.4390 0.2383 0.6862
C56_4 C 0.4137(15) 0.2929(13) 0.710(3)
H58_4 H 0.4441 0.3075 0.7043
H59_4 H 0.3939 0.3057 0.7555
H60_4 H 0.3968 0.2937 0.6525
C41_5 C 0.2585(7) 0.7282(6) 0.0998(14)
H25_5 H 0.2753 0.7169 0.0473
H26_5 H 0.2259 0.7357 0.0802
C42_5 C 0.2540(7) 0.6966(6) 0.1631(16)
H27_5 H 0.2865 0.6861 0.1757
H28_5 H 0.2419 0.7088 0.2190
C43_5 C 0.2204(9) 0.6586(7) 0.1393(16)
H29_5 H 0.2364 0.6424 0.0926
H30_5 H 0.1901 0.6689 0.1140
C44_5 C 0.2092(10) 0.6321(9) 0.214(2)
H31_5 H 0.1876 0.6105 0.1940
H32_5 H 0.2388 0.6201 0.2370
H33_5 H 0.1937 0.6478 0.2610
C45_5 C 0.2606(6) 0.7882(4) 0.2061(9)
H34_5 H 0.2676 0.7722 0.2601
H35_5 H 0.2256 0.7872 0.1966
C46_5 C 0.2740(7) 0.8307(6) 0.2240(12)
H36_5 H 0.3093 0.8329 0.2285
H37_5 H 0.2632 0.8481 0.1743
C47_5 C 0.2491(6) 0.8460(5) 0.3179(11)
H38_5 H 0.2153 0.8371 0.3209
H39_5 H 0.2501 0.8759 0.3224
C48_5 C 0.2766(8) 0.8277(7) 0.3890(15)
H40_5 H 0.2626 0.8352 0.4465
H41_5 H 0.2759 0.7981 0.3826
H42_5 H 0.3097 0.8372 0.3861
C49_5 C 0.3393(6) 0.7591(7) 0.1437(13)
H43_5 H 0.3570 0.7836 0.1247
H44_5 H 0.3490 0.7369 0.1033
C50_5 C 0.3554(11) 0.7491(9) 0.229(2)
H45_5 H 0.3445 0.7699 0.2715
H46_5 H 0.3415 0.7228 0.2466
C51_5 C 0.2820(6) 0.7951(6) 0.0442(10)
H48_5 H 0.3018 0.8195 0.0551
C52_5 C 0.2314(6) 0.8086(7) 0.0191(15)
H49_5 H 0.2115 0.7847 0.0054
H50_5 H 0.2167 0.8232 0.0696
N1_5 N 0.2847(4) 0.7674(4) 0.1273(10)
C55_5 C 0.4222(14) 0.7456(12) 0.232(3)
H56_5 H 0.4365 0.7494 0.2918
H57_5 H 0.4390 0.7617 0.1862
C56_5 C 0.4137(15) 0.7071(13) 0.210(3)
H58_5 H 0.4441 0.6925 0.2043
H59_5 H 0.3939 0.6943 0.2555
H60_5 H 0.3968 0.7063 0.1525
H47_5 H 0.2961 0.7805 0.9931
C53_5 C 0.2339(10) 0.8370(8) 0.9364(18)
H51_5 H 0.2478 0.8220 0.8856
H52_5 H 0.2550 0.8603 0.9496
C54_5 C 0.1840(12) 0.8523(10) 0.912(2)
H53_5 H 0.1863 0.8699 0.8592
H54_5 H 0.1633 0.8292 0.8980
H55_5 H 0.1706 0.8676 0.9614
C41_6 C 0.2415(7) 0.7718(6) 0.5998(14)
H25_6 H 0.2247 0.7831 0.5473
H26_6 H 0.2741 0.7643 0.5802
C42_6 C 0.2460(7) 0.8034(6) 0.6631(16)
H27_6 H 0.2135 0.8139 0.6757
H28_6 H 0.2581 0.7912 0.7190
C43_6 C 0.2796(9) 0.8414(7) 0.6393(16)
H29_6 H 0.2636 0.8576 0.5926
H30_6 H 0.3099 0.8311 0.6140
C44_6 C 0.2908(10) 0.8679(9) 0.714(2)
H31_6 H 0.3124 0.8895 0.6940
H32_6 H 0.2612 0.8799 0.7370
H33_6 H 0.3063 0.8522 0.7610
C45_6 C 0.2394(6) 0.7118(4) 0.7061(9)
H34_6 H 0.2324 0.7278 0.7601
H35_6 H 0.2744 0.7128 0.6966
C46_6 C 0.2260(7) 0.6693(6) 0.7240(12)
H36_6 H 0.1907 0.6671 0.7285
H37_6 H 0.2368 0.6519 0.6743
C47_6 C 0.2509(6) 0.6540(5) 0.8179(11)
H38_6 H 0.2847 0.6629 0.8209
H39_6 H 0.2499 0.6241 0.8224
C48_6 C 0.2234(8) 0.6723(7) 0.8890(15)
H40_6 H 0.2374 0.6648 0.9465
H41_6 H 0.2241 0.7019 0.8826
H42_6 H 0.1903 0.6628 0.8861
C49_6 C 0.1607(6) 0.7409(7) 0.6437(13)
H43_6 H 0.1430 0.7164 0.6247
H44_6 H 0.1510 0.7631 0.6033
C50_6 C 0.1446(11) 0.7509(9) 0.729(2)
H45_6 H 0.1555 0.7301 0.7715
H46_6 H 0.1585 0.7772 0.7466
C51_6 C 0.2180(6) 0.7049(6) 0.5442(10)
H47_6 H 0.2039 0.7195 0.4931
H48_6 H 0.1982 0.6805 0.5551
C52_6 C 0.2686(6) 0.6914(7) 0.5191(15)
H49_6 H 0.2885 0.7153 0.5054
H50_6 H 0.2833 0.6768 0.5696
C53_6 C 0.2661(10) 0.6630(8) 0.4364(18)
H51_6 H 0.2522 0.6780 0.3856
H52_6 H 0.2450 0.6397 0.4496
C54_6 C 0.3160(12) 0.6477(10) 0.412(2)
H53_6 H 0.3137 0.6301 0.3592
H54_6 H 0.3367 0.6708 0.3980
H55_6 H 0.3294 0.6324 0.4614
N1_6 N 0.2153(4) 0.7326(4) 0.6273(10)
C55_6 C 0.0778(14) 0.7544(12) 0.732(3)
H56_6 H 0.0635 0.7506 0.7918
H57_6 H 0.0610 0.7383 0.6862
C56_6 C 0.0863(15) 0.7929(13) 0.710(3)
H58_6 H 0.0559 0.8075 0.7043
H59_6 H 0.1061 0.8057 0.7555
H60_6 H 0.1032 0.7937 0.6525
H47_7 H 0.7961 0.7195 0.0069
C53_7 C 0.7339(10) 0.6630(8) 0.0636(18)
H51_7 H 0.7478 0.6780 0.1144
H52_7 H 0.7550 0.6397 0.0504
C54_7 C 0.6840(12) 0.6477(10) 0.088(2)
H53_7 H 0.6863 0.6301 0.1408
H54_7 H 0.6633 0.6708 0.1020
H55_7 H 0.6706 0.6324 0.0386
C41_7 C 0.7585(7) 0.7718(6) 0.9002(14)
H25_7 H 0.7753 0.7831 0.9527
H26_7 H 0.7259 0.7643 0.9198
C42_7 C 0.7540(7) 0.8034(6) 0.8369(16)
H27_7 H 0.7865 0.8139 0.8243
H28_7 H 0.7419 0.7912 0.7810
C43_7 C 0.7204(9) 0.8414(7) 0.8607(16)
H29_7 H 0.7364 0.8576 0.9074
H30_7 H 0.6901 0.8311 0.8860
C44_7 C 0.7092(10) 0.8679(9) 0.786(2)
H31_7 H 0.6876 0.8895 0.8060
H32_7 H 0.7388 0.8799 0.7630
H33_7 H 0.6937 0.8522 0.7390
C45_7 C 0.7606(6) 0.7118(4) 0.7939(9)
H34_7 H 0.7676 0.7278 0.7399
H35_7 H 0.7256 0.7128 0.8034
C46_7 C 0.7740(7) 0.6693(6) 0.7760(12)
H36_7 H 0.8093 0.6671 0.7715
H37_7 H 0.7632 0.6519 0.8257
C47_7 C 0.7491(6) 0.6540(5) 0.6821(11)
H38_7 H 0.7153 0.6629 0.6791
H39_7 H 0.7501 0.6241 0.6776
C48_7 C 0.7766(8) 0.6723(7) 0.6110(15)
H40_7 H 0.7626 0.6648 0.5535
H41_7 H 0.7759 0.7019 0.6174
H42_7 H 0.8097 0.6628 0.6139
C49_7 C 0.8393(6) 0.7409(7) 0.8563(13)
H43_7 H 0.8570 0.7164 0.8753
H44_7 H 0.8490 0.7631 0.8967
C50_7 C 0.8554(11) 0.7509(9) 0.771(2)
H45_7 H 0.8445 0.7301 0.7285
H46_7 H 0.8415 0.7772 0.7534
C51_7 C 0.7820(6) 0.7049(6) 0.9558(10)
H48_7 H 0.8018 0.6805 0.9449
C52_7 C 0.7314(6) 0.6914(7) 0.9809(15)
H49_7 H 0.7115 0.7153 0.9946
H50_7 H 0.7167 0.6768 0.9304
N1_7 N 0.7847(4) 0.7326(4) 0.8727(10)
C55_7 C 0.9222(14) 0.7544(12) 0.768(3)
H56_7 H 0.9365 0.7506 0.7082
H57_7 H 0.9390 0.7383 0.8138
C56_7 C 0.9137(15) 0.7929(13) 0.790(3)
H58_7 H 0.9441 0.8075 0.7957
H59_7 H 0.8939 0.8057 0.7445
H60_7 H 0.8968 0.7937 0.8475
C41_8 C 0.7415(7) 0.7282(6) 0.4002(14)
H25_8 H 0.7247 0.7169 0.4527
H26_8 H 0.7741 0.7357 0.4198
C42_8 C 0.7460(7) 0.6966(6) 0.3369(16)
H27_8 H 0.7135 0.6861 0.3243
H28_8 H 0.7581 0.7088 0.2810
C43_8 C 0.7796(9) 0.6586(7) 0.3607(16)
H29_8 H 0.7636 0.6424 0.4074
H30_8 H 0.8099 0.6689 0.3860
C44_8 C 0.7908(10) 0.6321(9) 0.286(2)
H31_8 H 0.8124 0.6105 0.3060
H32_8 H 0.7612 0.6201 0.2630
H33_8 H 0.8063 0.6478 0.2390
C45_8 C 0.7394(6) 0.7882(4) 0.2939(9)
H34_8 H 0.7324 0.7722 0.2399
H35_8 H 0.7744 0.7872 0.3034
C46_8 C 0.7260(7) 0.8307(6) 0.2760(12)
H36_8 H 0.6907 0.8329 0.2715
H37_8 H 0.7368 0.8481 0.3257
C47_8 C 0.7509(6) 0.8460(5) 0.1821(11)
H38_8 H 0.7847 0.8371 0.1791
H39_8 H 0.7499 0.8759 0.1776
C48_8 C 0.7234(8) 0.8277(7) 0.1110(15)
H40_8 H 0.7374 0.8352 0.0535
H41_8 H 0.7241 0.7981 0.1174
H42_8 H 0.6903 0.8372 0.1139
C49_8 C 0.6607(6) 0.7591(7) 0.3563(13)
H43_8 H 0.6430 0.7836 0.3753
H44_8 H 0.6510 0.7369 0.3967
C50_8 C 0.6446(11) 0.7491(9) 0.271(2)
H45_8 H 0.6555 0.7699 0.2285
H46_8 H 0.6585 0.7228 0.2534
C51_8 C 0.7180(6) 0.7951(6) 0.4558(10)
H47_8 H 0.7039 0.7805 0.5069
H48_8 H 0.6982 0.8195 0.4449
C52_8 C 0.7686(6) 0.8086(7) 0.4809(15)
H49_8 H 0.7885 0.7847 0.4946
H50_8 H 0.7833 0.8232 0.4304
C53_8 C 0.7661(10) 0.8370(8) 0.5636(18)
H51_8 H 0.7522 0.8220 0.6144
H52_8 H 0.7450 0.8603 0.5504
C54_8 C 0.8160(12) 0.8523(10) 0.588(2)
H53_8 H 0.8137 0.8699 0.6408
H54_8 H 0.8367 0.8292 0.6020
H55_8 H 0.8294 0.8676 0.5386
N1_8 N 0.7153(4) 0.7674(4) 0.3727(10)
C55_8 C 0.5778(14) 0.7456(12) 0.268(3)
H56_8 H 0.5635 0.7494 0.2082
H57_8 H 0.5610 0.7617 0.3138
C56_8 C 0.5863(15) 0.7071(13) 0.290(3)
H58_8 H 0.5559 0.6925 0.2957
H59_8 H 0.6061 0.6943 0.2445
H60_8 H 0.6032 0.7063 0.3475
C68 C 0.3960(12) 0.4582(10) 0.023(2)
H85 H 0.3837 0.4808 0.0586
H86 H 0.4156 0.4406 0.0608
C57 C 0.5250(6) 0.4616(4) 0.6797(9)
H61 H 0.5001 0.4780 0.6500
H62 H 0.5464 0.4805 0.7118
C58 C 0.5537(7) 0.4410(5) 0.6096(11)
H63 H 0.5330 0.4225 0.5747
H64 H 0.5795 0.4248 0.6371
C59 C 0.5753(8) 0.4738(6) 0.5482(15)
H65 H 0.5488 0.4899 0.5225
H66 H 0.5951 0.4922 0.5846
C60 C 0.6040(12) 0.4582(10) 0.477(2)
H67 H 0.6163 0.4808 0.4414
H68 H 0.5844 0.4406 0.4392
H69 H 0.6308 0.4427 0.5015
C61 C 0.5372(6) 0.4061(4) 0.7968(11)
H70 H 0.5198 0.3873 0.8364
H71 H 0.5534 0.3896 0.7508
C62 C 0.5752(7) 0.4275(6) 0.8511(14)
H72 H 0.5602 0.4388 0.9053
H73 H 0.5882 0.4503 0.8160
C63 C 0.6172(8) 0.3988(6) 0.8788(15)
H74 H 0.6037 0.3751 0.9102
H75 H 0.6331 0.3888 0.8242
C64 C 0.6553(9) 0.4185(8) 0.9390(18)
H76 H 0.6798 0.3984 0.9542
H77 H 0.6401 0.4285 0.9935
H78 H 0.6703 0.4412 0.9075
N2 N 0.5000 0.4338(4) 0.7500
C65 C 0.4750(6) 0.4616(4) 0.8203(9)
H79 H 0.4999 0.4780 0.8500
H80 H 0.4536 0.4805 0.7882
C66 C 0.4463(7) 0.4410(5) 0.8904(11)
H81 H 0.4670 0.4225 0.9253
H82 H 0.4205 0.4248 0.8629
C67 C 0.4247(8) 0.4738(6) 0.9518(15)
H83 H 0.4512 0.4899 0.9775
H84 H 0.4049 0.4922 0.9154
H87 H 0.3692 0.4427 0.9985
C69 C 0.4628(6) 0.4061(4) 0.7032(11)
H88 H 0.4802 0.3873 0.6636
H89 H 0.4466 0.3896 0.7492
C70 C 0.4248(7) 0.4275(6) 0.6489(14)
H90 H 0.4398 0.4388 0.5947
H91 H 0.4118 0.4503 0.6840
C71 C 0.3828(8) 0.3988(6) 0.6212(15)
H92 H 0.3963 0.3751 0.5898
H93 H 0.3669 0.3888 0.6758
C72 C 0.3447(9) 0.4185(8) 0.5610(18)
H94 H 0.3202 0.3984 0.5458
H95 H 0.3599 0.4285 0.5065
H96 H 0.3297 0.4412 0.5925
N2_2 N 0.0000 0.0662(4) 0.2500
C65_2 C 0.0250(6) 0.0384(4) 0.3203(9)
H79_2 H 0.0001 0.0220 0.3500
H80_2 H 0.0464 0.0195 0.2882
C66_2 C 0.0537(7) 0.0590(5) 0.3904(11)
H81_2 H 0.0330 0.0775 0.4253
H82_2 H 0.0795 0.0752 0.3629
C67_2 C 0.0753(8) 0.0262(6) 0.4518(15)
H83_2 H 0.0488 0.0101 0.4775
H84_2 H 0.0951 0.0078 0.4154
C68_2 C 0.1040(12) 0.0418(10) 0.523(2)
H85_2 H 0.1163 0.0192 0.5586
H86_2 H 0.0844 0.0594 0.5608
H87_2 H 0.1308 0.0573 0.4985
C69_2 C 0.0372(6) 0.0939(4) 0.2032(11)
H88_2 H 0.0198 0.1127 0.1636
H89_2 H 0.0534 0.1104 0.2492
C70_2 C 0.0752(7) 0.0725(6) 0.1489(14)
H90_2 H 0.0602 0.0612 0.0947
H91_2 H 0.0882 0.0497 0.1840
C71_2 C 0.1172(8) 0.1012(6) 0.1212(15)
H92_2 H 0.1037 0.1249 0.0898
H93_2 H 0.1331 0.1112 0.1758
C72_2 C 0.1553(9) 0.0815(8) 0.0610(18)
H94_2 H 0.1798 0.1016 0.0458
H95_2 H 0.1401 0.0715 0.0065
H96_2 H 0.1703 0.0588 0.0925
C57_2 C 0.9750(6) 0.0384(4) 0.1797(9)
H61_2 H 0.9999 0.0220 0.1500
H62_2 H 0.9536 0.0195 0.2118
C58_2 C 0.9463(7) 0.0590(5) 0.1096(11)
H63_2 H 0.9670 0.0775 0.0747
H64_2 H 0.9205 0.0752 0.1371
C59_2 C 0.9247(8) 0.0262(6) 0.0482(15)
H65_2 H 0.9512 0.0101 0.0225
H66_2 H 0.9049 0.0078 0.0846
H69_2 H 0.8692 0.0573 0.0015
C61_2 C 0.9628(6) 0.0939(4) 0.2968(11)
H70_2 H 0.9802 0.1127 0.3364
H71_2 H 0.9466 0.1104 0.2508
C62_2 C 0.9248(7) 0.0725(6) 0.3511(14)
H72_2 H 0.9398 0.0612 0.4053
H73_2 H 0.9118 0.0497 0.3160
C63_2 C 0.8828(8) 0.1012(6) 0.3788(15)
H74_2 H 0.8963 0.1249 0.4102
H75_2 H 0.8669 0.1112 0.3242
C64_2 C 0.8447(9) 0.0815(8) 0.4390(18)
H76_2 H 0.8202 0.1016 0.4542
H77_2 H 0.8599 0.0715 0.4935
H78_2 H 0.8297 0.0588 0.4075
N2_3 N 1.0000 0.0662(4) 0.2500
C60_2 C 0.8960(12) 0.0418(10) 0.977(2)
H67_2 H 0.8837 0.0192 0.9414
H68_2 H 0.9156 0.0594 0.9392
C57_3 C 0.4750(6) 0.5384(4) 0.3203(9)
H61_3 H 0.4999 0.5220 0.3500
H62_3 H 0.4536 0.5195 0.2882
C58_3 C 0.4463(7) 0.5590(5) 0.3904(11)
H63_3 H 0.4670 0.5775 0.4253
H64_3 H 0.4205 0.5752 0.3629
C59_3 C 0.4247(8) 0.5262(6) 0.4518(15)
H65_3 H 0.4512 0.5101 0.4775
H66_3 H 0.4049 0.5078 0.4154
C60_3 C 0.3960(12) 0.5418(10) 0.523(2)
H67_3 H 0.3837 0.5192 0.5586
H68_3 H 0.4156 0.5594 0.5608
H69_3 H 0.3692 0.5573 0.4985
C61_3 C 0.4628(6) 0.5939(4) 0.2032(11)
H70_3 H 0.4802 0.6127 0.1636
H71_3 H 0.4466 0.6104 0.2492
C62_3 C 0.4248(7) 0.5725(6) 0.1489(14)
H72_3 H 0.4398 0.5612 0.0947
H73_3 H 0.4118 0.5497 0.1840
C63_3 C 0.3828(8) 0.6012(6) 0.1212(15)
H74_3 H 0.3963 0.6249 0.0898
H75_3 H 0.3669 0.6112 0.1758
C64_3 C 0.3447(9) 0.5815(8) 0.0610(18)
H76_3 H 0.3202 0.6016 0.0458
H77_3 H 0.3599 0.5715 0.0065
H78_3 H 0.3297 0.5588 0.0925
N2_4 N 0.5000 0.5662(4) 0.2500
C65_3 C 0.5250(6) 0.5384(4) 0.1797(9)
H79_3 H 0.5001 0.5220 0.1500
H80_3 H 0.5464 0.5195 0.2118
C66_3 C 0.5537(7) 0.5590(5) 0.1096(11)
H81_3 H 0.5330 0.5775 0.0747
H82_3 H 0.5795 0.5752 0.1371
C67_3 C 0.5753(8) 0.5262(6) 0.0482(15)
H83_3 H 0.5488 0.5101 0.0225
H84_3 H 0.5951 0.5078 0.0846
H87_3 H 0.6308 0.5573 0.0015
C69_3 C 0.5372(6) 0.5939(4) 0.2968(11)
H88_3 H 0.5198 0.6127 0.3364
H89_3 H 0.5534 0.6104 0.2508
C70_3 C 0.5752(7) 0.5725(6) 0.3511(14)
H90_3 H 0.5602 0.5612 0.4053
H91_3 H 0.5882 0.5497 0.3160
C71_3 C 0.6172(8) 0.6012(6) 0.3788(15)
H92_3 H 0.6037 0.6249 0.4102
H93_3 H 0.6331 0.6112 0.3242
C72_3 C 0.6553(9) 0.5815(8) 0.4390(18)
H94_3 H 0.6798 0.6016 0.4542
H95_3 H 0.6401 0.5715 0.4935
H96_3 H 0.6703 0.5588 0.4075
C68_3 C 0.6040(12) 0.5418(10) 0.977(2)
H85_3 H 0.6163 0.5192 0.9414
H86_3 H 0.5844 0.5594 0.9392
C60_4 C 0.1040(12) 0.9582(10) 0.023(2)
H67_4 H 0.1163 0.9808 0.0586
H68_4 H 0.0844 0.9406 0.0608
C57_4 C 0.0250(6) 0.9616(4) 0.8203(9)
H61_4 H 0.0001 0.9780 0.8500
H62_4 H 0.0464 0.9805 0.7882
C58_4 C 0.0537(7) 0.9410(5) 0.8904(11)
H63_4 H 0.0330 0.9225 0.9253
H64_4 H 0.0795 0.9248 0.8629
C59_4 C 0.0753(8) 0.9738(6) 0.9518(15)
H65_4 H 0.0488 0.9899 0.9775
H66_4 H 0.0951 0.9922 0.9154
H69_4 H 0.1308 0.9427 0.9985
C61_4 C 0.0372(6) 0.9061(4) 0.7032(11)
H70_4 H 0.0198 0.8873 0.6636
H71_4 H 0.0534 0.8896 0.7492
C62_4 C 0.0752(7) 0.9275(6) 0.6489(14)
H72_4 H 0.0602 0.9388 0.5947
H73_4 H 0.0882 0.9503 0.6840
C63_4 C 0.1172(8) 0.8988(6) 0.6212(15)
H74_4 H 0.1037 0.8751 0.5898
H75_4 H 0.1331 0.8888 0.6758
C64_4 C 0.1553(9) 0.9185(8) 0.5610(18)
H76_4 H 0.1798 0.8984 0.5458
H77_4 H 0.1401 0.9285 0.5065
H78_4 H 0.1703 0.9412 0.5925
N2_5 N -0.0000 0.9338(4) 0.7500
N2_6 N 1.0000 0.9338(4) 0.7500
C65_4 C 0.9750(6) 0.9616(4) 0.6797(9)
H79_4 H 0.9999 0.9780 0.6500
H80_4 H 0.9536 0.9805 0.7118
C66_4 C 0.9463(7) 0.9410(5) 0.6096(11)
H81_4 H 0.9670 0.9225 0.5747
H82_4 H 0.9205 0.9248 0.6371
C67_4 C 0.9247(8) 0.9738(6) 0.5482(15)
H83_4 H 0.9512 0.9899 0.5225
H84_4 H 0.9049 0.9922 0.5846
C68_4 C 0.8960(12) 0.9582(10) 0.477(2)
H85_4 H 0.8837 0.9808 0.4414
H86_4 H 0.9156 0.9406 0.4392
H87_4 H 0.8692 0.9427 0.5015
C69_4 C 0.9628(6) 0.9061(4) 0.7968(11)
H88_4 H 0.9802 0.8873 0.8364
H89_4 H 0.9466 0.8896 0.7508
C70_4 C 0.9248(7) 0.9275(6) 0.8511(14)
H90_4 H 0.9398 0.9388 0.9053
H91_4 H 0.9118 0.9503 0.8160
C71_4 C 0.8828(8) 0.8988(6) 0.8788(15)
H92_4 H 0.8963 0.8751 0.9102
H93_4 H 0.8669 0.8888 0.8242
C72_4 C 0.8447(9) 0.9185(8) 0.9390(18)
H94_4 H 0.8202 0.8984 0.9542
H95_4 H 0.8599 0.9285 0.9935
H96_4 H 0.8297 0.9412 0.9075
loop_
_geom_bond_atom_site_label_1
_geom_bond_atom_site_label_2
_geom_bond_site_symmetry_1
_geom_bond_site_symmetry_2
O1 P1 1_555 1_555
O2 P1 1_555 1_555
O17 Mo3 1_555 1_555
Mo3 O8 1_555 1_555
C21 C22 1_555 1_555
C22 C23 1_555 1_555
C23 H13 1_555 1_555
H15 C26 1_555 1_555
C27 C22 1_555 1_555
H16 C27 1_555 1_555
O28 Mo3 1_555 1_555
O29 Zn3 1_555 1_555
O31 Mo7 1_555 1_555
O32 Mo7 1_555 1_555
O34 Mo8 1_555 1_555
O37 Zn6 1_555 1_555
O38 Mo10 1_555 1_555
O39 Mo11 1_555 1_555
O40 Mo11 1_555 1_555
O41 Mo10 1_555 1_555
O44 Mo10 1_555 1_555
O45 Mo12 1_555 1_555
O46 C21 1_555 1_555
O47 C21 1_555 1_555
Zn3 O28 1_555 1_555
Zn6 O18 1_555 1_555
Mo7 O2 1_555 1_555
Mo8 O2 1_555 1_555
Mo10 O1 1_555 1_555
Mo11 O1 1_555 1_555
Mo12 O1 1_555 1_555
O11 Mo3 1_555 1_555
O11 Mo11 1_555 1_555
O18 Mo12 1_555 1_555
Mo3 Mo11 1_555 1_555
C26 C27 1_555 1_555
O28 Mo11 1_555 1_555
O29 Mo8 1_555 1_555
O29 Mo10 1_555 1_555
O30 Zn3 1_555 1_555
O30 Mo7 1_555 1_555
O32 Mo8 1_555 1_555
O37 Mo8 1_555 1_555
O37 Mo10 1_555 1_555
O40 Mo12 1_555 1_555
O41 Mo11 1_555 1_555
O44 Mo12 1_555 1_555
O46 Zn3 1_555 1_555
Mo8 Mo10 1_555 1_555
C1 C2 1_555 1_555
C2 C3 1_555 1_555
C3 H1 1_555 1_555
C4 C3 1_555 1_555
H2 C4 1_555 1_555
C5 C4 1_555 1_555
C6 C5 1_555 1_555
H3 C6 1_555 1_555
C7 C2 1_555 1_555
H4 C7 1_555 1_555
C8 C9 1_555 1_555
C9 H5 1_555 1_555
C10 C9 1_555 1_555
H6 C10 1_555 1_555
C11 C10 1_555 1_555
C12 C11 1_555 1_555
H7 C12 1_555 1_555
C13 C8 1_555 1_555
H8 C13 1_555 1_555
C14 C11 1_555 1_555
C15 C14 1_555 1_555
H9 C15 1_555 1_555
C16 C15 1_555 1_555
H10 C16 1_555 1_555
C17 C16 1_555 1_555
C18 C17 1_555 1_555
H11 C18 1_555 1_555
C19 C14 1_555 1_555
H12 C19 1_555 1_555
C20 C17 1_555 1_555
O1_2 P1_2 1_555 1_555
O2_2 P1_2 1_555 1_555
O3 Zn1 1_555 1_555
O4 Zn1 1_555 1_555
O5 Zn1 1_555 1_555
O6 Mo1 1_555 1_555
O7 Mo1 1_555 1_555
O8_2 Mo1 1_555 1_555
O9 Mo2 1_555 1_555
O11_2 Zn2 1_555 1_555
O12 Zn2 1_555 1_555
O13 Mo4 1_555 1_555
O14 Mo5 1_555 1_555
O15 Mo5 1_555 1_555
O16 Mo4 1_555 1_555
O18_2 Mo6 1_555 1_555
O19 Mo4 1_555 1_555
O20 Mo6 1_555 1_555
O21 C1 1_555 1_555
O22 C1 1_555 1_555
O23 C20 1_555 1_555
O25 C5 1_555 1_555
Zn1 O21 1_555 1_555
Zn2 O43 1_555 1_555
Mo1 O5 1_555 1_555
Mo2 O4 1_555 1_555
Mo3_2 O8_2 1_555 1_555
Mo4 O4 1_555 1_555
Mo5 O3 1_555 1_555
Mo6 O15 1_555 1_555
P1_2 O26 1_555 1_555
O26 Mo4 1_555 1_555
O27 Mo1 1_555 1_555
C21_2 C22_2 1_555 1_555
C22_2 C23_2 1_555 1_555
C23_2 H13_2 1_555 1_555
C24 C23_2 1_555 1_555
H14 C24 1_555 1_555
C25 C24 1_555 1_555
C26_2 C25 1_555 1_555
H15_2 C26_2 1_555 1_555
C27_2 C22_2 1_555 1_555
H16_2 C27_2 1_555 1_555
C33 C28 1_555 1_555
H20 C33 1_555 1_555
O28_2 Mo3_2 1_555 1_555
O29_2 Zn3_2 1_555 1_555
O30_2 Mo1 1_555 1_555
O31_2 Mo7_2 1_555 1_555
O32_2 Mo7_2 1_555 1_555
O33 Mo7_2 1_555 1_555
O34_2 Mo8_2 1_555 1_555
O35 Mo8_2 1_555 1_555
O36 Mo5 1_555 1_555
O37_2 Zn4 1_555 1_555
O38_2 Mo10_2 1_555 1_555
O40_2 Mo11_2 1_555 1_555
O41_2 Mo10_2 1_555 1_555
O42 Mo9 1_555 1_555
O43 Mo6 1_555 1_555
O44_2 Mo10_2 1_555 1_555
O45_2 Mo12_2 1_555 1_555
O46_2 C21_2 1_555 1_555
O47_2 C21_2 1_555 1_555
O50 C25 1_555 1_555
Zn3_2 O28_2 1_555 1_555
Zn4 O18_2 1_555 1_555
Mo7_2 O2_2 1_555 1_555
Mo8_2 O2_2 1_555 1_555
Mo9 O2_2 1_555 1_555
Mo10_2 O1_2 1_555 1_555
Mo11_2 O1_2 1_555 1_555
Mo12_2 O1_2 1_555 1_555
O51 Zn4 1_555 1_555
C6 C7 1_555 1_555
C8 O25 1_555 1_555
C12 C13 1_555 1_555
C18 C19 1_555 1_555
O3 Mo9 1_555 1_555
O5 Mo7_2 1_555 1_555
O7 Mo2 1_555 1_555
O11_2 Mo3_2 1_555 1_555
O11_2 Mo11_2 1_555 1_555
O12 Mo2 1_555 1_555
O12 Mo4 1_555 1_555
O16 Mo5 1_555 1_555
O18_2 Mo12_2 1_555 1_555
O19 Mo6 1_555 1_555
Mo1 Mo7_2 1_555 1_555
Mo2 Mo4 1_555 1_555
Mo2 O27 1_555 1_555
Mo3_2 O27 1_555 1_555
Mo3_2 Mo11_2 1_555 1_555
Mo5 O26 1_555 1_555
Mo5 Mo9 1_555 1_555
Mo6 O26 1_555 1_555
Mo6 Mo12_2 1_555 1_555
P1_2 O27 1_555 1_555
C26_2 C27_2 1_555 1_555
C28 O50 1_555 1_555
O28_2 Mo11_2 1_555 1_555
O29_2 Mo8_2 1_555 1_555
O29_2 Mo10_2 1_555 1_555
O30_2 Zn3_2 1_555 1_555
O30_2 Mo7_2 1_555 1_555
O32_2 Mo8_2 1_555 1_555
O33 Mo9 1_555 1_555
O35 Mo9 1_555 1_555
O36 Zn4 1_555 1_555
O36 Mo9 1_555 1_555
O37_2 Mo8_2 1_555 1_555
O37_2 Mo10_2 1_555 1_555
O40_2 Mo12_2 1_555 1_555
O41_2 Mo11_2 1_555 1_555
O43 Mo12_2 1_555 1_555
O44_2 Mo12_2 1_555 1_555
O46_2 Zn3_2 1_555 1_555
Mo8_2 Mo10_2 1_555 1_555
C9_2 H5_2 1_555 1_555
C10_2 C9_2 1_555 1_555
H6_2 C10_2 1_555 1_555
C11_2 C10_2 1_555 1_555
C12_2 C11_2 1_555 1_555
H7_2 C12_2 1_555 1_555
C14_2 C11_2 1_555 1_555
C15_2 C14_2 1_555 1_555
H9_2 C15_2 1_555 1_555
C16_2 C15_2 1_555 1_555
H10_2 C16_2 1_555 1_555
C17_2 C16_2 1_555 1_555
C18_2 C17_2 1_555 1_555
H11_2 C18_2 1_555 1_555
C19_2 C14_2 1_555 1_555
H12_2 C19_2 1_555 1_555
C20_2 C17_2 1_555 1_555
O51 C20_2 1_555 1_555
O24_2 C20_2 1_555 1_555
C18_2 C19_2 1_555 1_555
C29 H17 1_555 1_555
C30 C29 1_555 1_555
H18 C30 1_555 1_555
C31 C30 1_555 1_555
C32 C31 1_555 1_555
H19 C32 1_555 1_555
C34 C31 1_555 1_555
C35 C34 1_555 1_555
H21 C35 1_555 1_555
C36 C35 1_555 1_555
H22 C36 1_555 1_555
C37 C36 1_555 1_555
C38 C37 1_555 1_555
H23 C38 1_555 1_555
C39 C34 1_555 1_555
H24 C39 1_555 1_555
C40 C37 1_555 1_555
O48 C40 1_555 1_555
O49_2 C40 1_555 1_555
Zn5 O48 1_555 1_555
C38 C39 1_555 1_555
C1_2 C2_2 1_555 1_555
C2_2 C3_2 1_555 1_555
C3_2 H1_2 1_555 1_555
H3_2 C6_2 1_555 1_555
C7_2 C2_2 1_555 1_555
H4_2 C7_2 1_555 1_555
O3_2 Zn1_2 1_555 1_555
O4_2 Zn1_2 1_555 1_555
O5_2 Zn1_2 1_555 1_555
O6_2 Mo1_2 1_555 1_555
O7_2 Mo1_2 1_555 1_555
O9_2 Mo2_2 1_555 1_555
O10_2 Mo2_2 1_555 1_555
O12_2 Zn5 1_555 1_555
O13_2 Mo4_2 1_555 1_555
O15_2 Mo5_2 1_555 1_555
O16_2 Mo4_2 1_555 1_555
O19_2 Mo4_2 1_555 1_555
O20_2 Mo6_2 1_555 1_555
O21_2 C1_2 1_555 1_555
O22_2 C1_2 1_555 1_555
Zn1_2 O21_2 1_555 1_555
Zn5 O43_2 1_555 1_555
Mo1_2 O5_2 1_555 1_555
Mo2_2 O4_2 1_555 1_555
Mo4_2 O4_2 1_555 1_555
Mo5_2 O3_2 1_555 1_555
Mo6_2 O15_2 1_555 1_555
P1_3 O26_2 1_555 1_555
O26_2 Mo4_2 1_555 1_555
O27_2 Mo1_2 1_555 1_555
O36_2 Mo5_2 1_555 1_555
O43_2 Mo6_2 1_555 1_555
C6_2 C7_2 1_555 1_555
O3_2 Mo9_2 1_555 1_555
O7_2 Mo2_2 1_555 1_555
O12_2 Mo2_2 1_555 1_555
O12_2 Mo4_2 1_555 1_555
O16_2 Mo5_2 1_555 1_555
O19_2 Mo6_2 1_555 1_555
Mo2_2 Mo4_2 1_555 1_555
Mo2_2 O27_2 1_555 1_555
Mo5_2 O26_2 1_555 1_555
Mo5_2 Mo9_2 1_555 1_555
Mo6_2 O26_2 1_555 1_555
P1_3 O27_2 1_555 1_555
O33_2 Mo9_2 1_555 1_555
O36_2 Mo9_2 1_555 1_555
H14_2 C24_2 1_555 1_555
C25_2 C24_2 1_555 1_555
C28_2 C29_2 1_555 1_555
C29_2 H17_2 1_555 1_555
C30_2 C29_2 1_555 1_555
H18_2 C30_2 1_555 1_555
C31_2 C30_2 1_555 1_555
C32_2 C31_2 1_555 1_555
H19_2 C32_2 1_555 1_555
C33_2 C28_2 1_555 1_555
H20_2 C33_2 1_555 1_555
C34_2 C31_2 1_555 1_555
C35_2 C34_2 1_555 1_555
H21_2 C35_2 1_555 1_555
C36_2 C35_2 1_555 1_555
H22_2 C36_2 1_555 1_555
C37_2 C36_2 1_555 1_555
C38_2 C37_2 1_555 1_555
H23_2 C38_2 1_555 1_555
C39_2 C34_2 1_555 1_555
H24_2 C39_2 1_555 1_555
C40_2 C37_2 1_555 1_555
O52 C40_2 1_555 1_555
O50_2 C25_2 1_555 1_555
C28_2 O50_2 1_555 1_555
C32_2 C33_2 1_555 1_555
C38_2 C39_2 1_555 1_555
C9_3 H5_3 1_555 1_555
C10_3 C9_3 1_555 1_555
H6_3 C10_3 1_555 1_555
C11_3 C10_3 1_555 1_555
C12_3 C11_3 1_555 1_555
H7_3 C12_3 1_555 1_555
C14_3 C11_3 1_555 1_555
C15_3 C14_3 1_555 1_555
H9_3 C15_3 1_555 1_555
C16_3 C15_3 1_555 1_555
H10_3 C16_3 1_555 1_555
C17_3 C16_3 1_555 1_555
C18_3 C17_3 1_555 1_555
H11_3 C18_3 1_555 1_555
C19_3 C14_3 1_555 1_555
H12_3 C19_3 1_555 1_555
C20_3 C17_3 1_555 1_555
O23_2 C20_3 1_555 1_555
O24_3 C20_3 1_555 1_555
Zn6_2 O23_2 1_555 1_555
C18_3 C19_3 1_555 1_555
C1_3 C2_3 1_555 1_555
C2_3 C3_3 1_555 1_555
C3_3 H1_3 1_555 1_555
C4_2 C3_3 1_555 1_555
H2_2 C4_2 1_555 1_555
C5_2 C4_2 1_555 1_555
C6_3 C5_2 1_555 1_555
H3_3 C6_3 1_555 1_555
C7_3 C2_3 1_555 1_555
H4_3 C7_3 1_555 1_555
C8_2 C9_4 1_555 1_555
C9_4 H5_4 1_555 1_555
C10_4 C9_4 1_555 1_555
H6_4 C10_4 1_555 1_555
C11_4 C10_4 1_555 1_555
C12_4 C11_4 1_555 1_555
H7_4 C12_4 1_555 1_555
C13_2 C8_2 1_555 1_555
H8_2 C13_2 1_555 1_555
C14_4 C11_4 1_555 1_555
C15_4 C14_4 1_555 1_555
H9_4 C15_4 1_555 1_555
C16_4 C15_4 1_555 1_555
H10_4 C16_4 1_555 1_555
C17_4 C16_4 1_555 1_555
C18_4 C17_4 1_555 1_555
H11_4 C18_4 1_555 1_555
C19_4 C14_4 1_555 1_555
H12_4 C19_4 1_555 1_555
C20_4 C17_4 1_555 1_555
O1_3 P1_4 1_555 1_555
O2_3 P1_4 1_555 1_555
O3_3 Zn1_3 1_555 1_555
O4_3 Zn1_3 1_555 1_555
O5_3 Zn1_3 1_555 1_555
O6_3 Mo1_3 1_555 1_555
O7_3 Mo1_3 1_555 1_555
O8_3 Mo1_3 1_555 1_555
O9_3 Mo2_3 1_555 1_555
O11_3 Zn5_2 1_555 1_555
O12_3 Zn5_2 1_555 1_555
O13_3 Mo4_3 1_555 1_555
O14_2 Mo5_3 1_555 1_555
O15_3 Mo5_3 1_555 1_555
O16_3 Mo4_3 1_555 1_555
O18_3 Mo6_3 1_555 1_555
O19_3 Mo4_3 1_555 1_555
O20_3 Mo6_3 1_555 1_555
O21_3 C1_3 1_555 1_555
O22_3 C1_3 1_555 1_555
O51_2 C20_4 1_555 1_555
O25_2 C5_2 1_555 1_555
Zn1_3 O21_3 1_555 1_555
Zn5_2 O43_3 1_555 1_555
Mo1_3 O5_3 1_555 1_555
Mo2_3 O4_3 1_555 1_555
Mo3_3 O8_3 1_555 1_555
Mo4_3 O4_3 1_555 1_555
Mo5_3 O3_3 1_555 1_555
Mo6_3 O15_3 1_555 1_555
P1_4 O26_3 1_555 1_555
O26_3 Mo4_3 1_555 1_555
O27_3 Mo1_3 1_555 1_555
C21_3 C22_3 1_555 1_555
C22_3 C23_3 1_555 1_555
C23_3 H13_3 1_555 1_555
C24_3 C23_3 1_555 1_555
H14_3 C24_3 1_555 1_555
C25_3 C24_3 1_555 1_555
C26_3 C25_3 1_555 1_555
H15_3 C26_3 1_555 1_555
C27_3 C22_3 1_555 1_555
H16_3 C27_3 1_555 1_555
C33_3 C28_3 1_555 1_555
H20_3 C33_3 1_555 1_555
O28_3 Mo3_3 1_555 1_555
O29_3 Zn3_3 1_555 1_555
O30_3 Mo1_3 1_555 1_555
O31_3 Mo7_3 1_555 1_555
O32_3 Mo7_3 1_555 1_555
O33_3 Mo7_3 1_555 1_555
O34_3 Mo8_3 1_555 1_555
O35_4 Mo8_3 1_555 1_555
O36_3 Mo5_3 1_555 1_555
O37_3 Zn6_2 1_555 1_555
O38_3 Mo10_3 1_555 1_555
O40_3 Mo11_3 1_555 1_555
O41_3 Mo10_3 1_555 1_555
O42_2 Mo9_3 1_555 1_555
O43_3 Mo6_3 1_555 1_555
O44_3 Mo10_3 1_555 1_555
O45_3 Mo12_3 1_555 1_555
O46_3 C21_3 1_555 1_555
O47_3 C21_3 1_555 1_555
O50_3 C25_3 1_555 1_555
Zn3_3 O28_3 1_555 1_555
Zn6_2 O18_3 1_555 1_555
Mo7_3 O2_3 1_555 1_555
Mo8_3 O2_3 1_555 1_555
Mo9_3 O2_3 1_555 1_555
Mo10_3 O1_3 1_555 1_555
Mo11_3 O1_3 1_555 1_555
Mo12_3 O1_3 1_555 1_555
C6_3 C7_3 1_555 1_555
C8_2 O25_2 1_555 1_555
C12_4 C13_2 1_555 1_555
C18_4 C19_4 1_555 1_555
O3_3 Mo9_3 1_555 1_555
O5_3 Mo7_3 1_555 1_555
O7_3 Mo2_3 1_555 1_555
O11_3 Mo3_3 1_555 1_555
O11_3 Mo11_3 1_555 1_555
O12_3 Mo2_3 1_555 1_555
O12_3 Mo4_3 1_555 1_555
O16_3 Mo5_3 1_555 1_555
O18_3 Mo12_3 1_555 1_555
O19_3 Mo6_3 1_555 1_555
Mo1_3 Mo7_3 1_555 1_555
Mo2_3 Mo4_3 1_555 1_555
Mo2_3 O27_3 1_555 1_555
Mo3_3 O27_3 1_555 1_555
Mo3_3 Mo11_3 1_555 1_555
Mo5_3 O26_3 1_555 1_555
Mo5_3 Mo9_3 1_555 1_555
Mo6_3 O26_3 1_555 1_555
Mo6_3 Mo12_3 1_555 1_555
P1_4 O27_3 1_555 1_555
C26_3 C27_3 1_555 1_555
C28_3 O50_3 1_555 1_555
O28_3 Mo11_3 1_555 1_555
O29_3 Mo8_3 1_555 1_555
O29_3 Mo10_3 1_555 1_555
O30_3 Zn3_3 1_555 1_555
O30_3 Mo7_3 1_555 1_555
O32_3 Mo8_3 1_555 1_555
O33_3 Mo9_3 1_555 1_555
O35_4 Mo9_3 1_555 1_555
O36_3 Zn6_2 1_555 1_555
O36_3 Mo9_3 1_555 1_555
O37_3 Mo8_3 1_555 1_555
O37_3 Mo10_3 1_555 1_555
O40_3 Mo12_3 1_555 1_555
O41_3 Mo11_3 1_555 1_555
O43_3 Mo12_3 1_555 1_555
O44_3 Mo12_3 1_555 1_555
O46_3 Zn3_3 1_555 1_555
Mo8_3 Mo10_3 1_555 1_555
O1_4 P1_5 1_555 1_555
O2_4 P1_5 1_555 1_555
O17_3 Mo3_4 1_555 1_555
Mo3_4 O8_4 1_555 1_555
C21_4 C22_4 1_555 1_555
C22_4 C23_4 1_555 1_555
C23_4 H13_4 1_555 1_555
H15_4 C26_4 1_555 1_555
C27_4 C22_4 1_555 1_555
H16_4 C27_4 1_555 1_555
O28_4 Mo3_4 1_555 1_555
O29_4 Zn3_4 1_555 1_555
O31_4 Mo7_4 1_555 1_555
O32_4 Mo7_4 1_555 1_555
O34_4 Mo8_4 1_555 1_555
O37_4 Zn4_2 1_555 1_555
O38_4 Mo10_4 1_555 1_555
O39_3 Mo11_4 1_555 1_555
O40_4 Mo11_4 1_555 1_555
O41_4 Mo10_4 1_555 1_555
O44_4 Mo10_4 1_555 1_555
O45_4 Mo12_4 1_555 1_555
O46_4 C21_4 1_555 1_555
O47_4 C21_4 1_555 1_555
Zn3_4 O28_4 1_555 1_555
Zn4_2 O18_4 1_555 1_555
Mo7_4 O2_4 1_555 1_555
Mo8_4 O2_4 1_555 1_555
Mo10_4 O1_4 1_555 1_555
Mo11_4 O1_4 1_555 1_555
Mo12_4 O1_4 1_555 1_555
O11_4 Mo3_4 1_555 1_555
O11_4 Mo11_4 1_555 1_555
O18_4 Mo12_4 1_555 1_555
Mo3_4 Mo11_4 1_555 1_555
C26_4 C27_4 1_555 1_555
O28_4 Mo11_4 1_555 1_555
O29_4 Mo8_4 1_555 1_555
O29_4 Mo10_4 1_555 1_555
O30_4 Zn3_4 1_555 1_555
O30_4 Mo7_4 1_555 1_555
O32_4 Mo8_4 1_555 1_555
O37_4 Mo8_4 1_555 1_555
O37_4 Mo10_4 1_555 1_555
O40_4 Mo12_4 1_555 1_555
O41_4 Mo11_4 1_555 1_555
O44_4 Mo12_4 1_555 1_555
O46_4 Zn3_4 1_555 1_555
Mo8_4 Mo10_4 1_555 1_555
H14_4 C24_4 1_555 1_555
C25_4 C24_4 1_555 1_555
C28_4 C29_3 1_555 1_555
C29_3 H17_3 1_555 1_555
C30_3 C29_3 1_555 1_555
H18_3 C30_3 1_555 1_555
C31_3 C30_3 1_555 1_555
C32_3 C31_3 1_555 1_555
H19_3 C32_3 1_555 1_555
C33_4 C28_4 1_555 1_555
H20_4 C33_4 1_555 1_555
C34_3 C31_3 1_555 1_555
C35_3 C34_3 1_555 1_555
H21_3 C35_3 1_555 1_555
C36_3 C35_3 1_555 1_555
H22_3 C36_3 1_555 1_555
C37_3 C36_3 1_555 1_555
C38_3 C37_3 1_555 1_555
H23_3 C38_3 1_555 1_555
C39_3 C34_3 1_555 1_555
H24_3 C39_3 1_555 1_555
C40_3 C37_3 1_555 1_555
O48_2 C40_3 1_555 1_555
O50_4 C25_4 1_555 1_555
C28_4 O50_4 1_555 1_555
C32_3 C33_4 1_555 1_555
C38_3 C39_3 1_555 1_555
C1_4 C2_4 1_555 1_555
C2_4 C3_4 1_555 1_555
C3_4 H1_4 1_555 1_555
H3_4 C6_4 1_555 1_555
C7_4 C2_4 1_555 1_555
H4_4 C7_4 1_555 1_555
O3_4 Zn1_4 1_555 1_555
O4_4 Zn1_4 1_555 1_555
O5_4 Zn1_4 1_555 1_555
O6_4 Mo1_4 1_555 1_555
O7_4 Mo1_4 1_555 1_555
O9_4 Mo2_4 1_555 1_555
O10_3 Mo2_4 1_555 1_555
O12_4 Zn2_2 1_555 1_555
O13_4 Mo4_4 1_555 1_555
O15_4 Mo5_4 1_555 1_555
O16_4 Mo4_4 1_555 1_555
O19_4 Mo4_4 1_555 1_555
O20_4 Mo6_4 1_555 1_555
O21_4 C1_4 1_555 1_555
O22_4 C1_4 1_555 1_555
Zn1_4 O21_4 1_555 1_555
Zn2_2 O43_4 1_555 1_555
Mo1_4 O5_4 1_555 1_555
Mo2_4 O4_4 1_555 1_555
Mo4_4 O4_4 1_555 1_555
Mo5_4 O3_4 1_555 1_555
Mo6_4 O15_4 1_555 1_555
P1_6 O26_4 1_555 1_555
O26_4 Mo4_4 1_555 1_555
O27_4 Mo1_4 1_555 1_555
O36_4 Mo5_4 1_555 1_555
O43_4 Mo6_4 1_555 1_555
O52_2 Zn2_2 1_555 1_555
C6_4 C7_4 1_555 1_555
O3_4 Mo9_4 1_555 1_555
O7_4 Mo2_4 1_555 1_555
O12_4 Mo2_4 1_555 1_555
O12_4 Mo4_4 1_555 1_555
O16_4 Mo5_4 1_555 1_555
O19_4 Mo6_4 1_555 1_555
Mo2_4 Mo4_4 1_555 1_555
Mo2_4 O27_4 1_555 1_555
Mo5_4 O26_4 1_555 1_555
Mo5_4 Mo9_4 1_555 1_555
Mo6_4 O26_4 1_555 1_555
P1_6 O27_4 1_555 1_555
O33_4 Mo9_4 1_555 1_555
O36_4 Mo9_4 1_555 1_555
C29_4 H17_4 1_555 1_555
C30_4 C29_4 1_555 1_555
H18_4 C30_4 1_555 1_555
C31_4 C30_4 1_555 1_555
C32_4 C31_4 1_555 1_555
H19_4 C32_4 1_555 1_555
C34_4 C31_4 1_555 1_555
C35_4 C34_4 1_555 1_555
H21_4 C35_4 1_555 1_555
C36_4 C35_4 1_555 1_555
H22_4 C36_4 1_555 1_555
C37_4 C36_4 1_555 1_555
C38_4 C37_4 1_555 1_555
H23_4 C38_4 1_555 1_555
C39_4 C34_4 1_555 1_555
H24_4 C39_4 1_555 1_555
C40_4 C37_4 1_555 1_555
O52_2 C40_4 1_555 1_555
O49_4 C40_4 1_555 1_555
C38_4 C39_4 1_555 1_555
H2_3 C4_3 1_555 1_555
C5_3 C4_3 1_555 1_555
C13_3 C8_3 1_555 1_555
H8_3 C13_3 1_555 1_555
O25_3 C5_3 1_555 1_555
C8_3 O25_3 1_555 1_555
H2_4 C4_4 1_555 1_555
C5_4 C4_4 1_555 1_555
C13_4 C8_4 1_555 1_555
H8_4 C13_4 1_555 1_555
O25_4 C5_4 1_555 1_555
C8_4 O25_4 1_555 1_555
H51 C53 1_555 1_555
H52 C53 1_555 1_555
C54 C53 1_555 1_555
H53 C54 1_555 1_555
H54 C54 1_555 1_555
H55 C54 1_555 1_555
C41 H25 1_555 1_555
H26 C41 1_555 1_555
C42 C41 1_555 1_555
H27 C42 1_555 1_555
H28 C42 1_555 1_555
C43 C42 1_555 1_555
H29 C43 1_555 1_555
H30 C43 1_555 1_555
C44 C43 1_555 1_555
H31 C44 1_555 1_555
H32 C44 1_555 1_555
H33 C44 1_555 1_555
C45 H34 1_555 1_555
H35 C45 1_555 1_555
C46 C45 1_555 1_555
H36 C46 1_555 1_555
H37 C46 1_555 1_555
C47 C46 1_555 1_555
H38 C47 1_555 1_555
H39 C47 1_555 1_555
C48 C47 1_555 1_555
H40 C48 1_555 1_555
H41 C48 1_555 1_555
H42 C48 1_555 1_555
C49 H43 1_555 1_555
H44 C49 1_555 1_555
C50 C49 1_555 1_555
H45 C50 1_555 1_555
H46 C50 1_555 1_555
H48 C51 1_555 1_555
C52 C51 1_555 1_555
H49 C52 1_555 1_555
H50 C52 1_555 1_555
N1 C41 1_555 1_555
C55 C50 1_555 1_555
H56 C55 1_555 1_555
H57 C55 1_555 1_555
C56 C55 1_555 1_555
H58 C56 1_555 1_555
H59 C56 1_555 1_555
H60 C56 1_555 1_555
C45 N1 1_555 1_555
C49 N1 1_555 1_555
C51 N1 1_555 1_555
C41_2 H25_2 1_555 1_555
H26_2 C41_2 1_555 1_555
C42_2 C41_2 1_555 1_555
H27_2 C42_2 1_555 1_555
H28_2 C42_2 1_555 1_555
C43_2 C42_2 1_555 1_555
H29_2 C43_2 1_555 1_555
H30_2 C43_2 1_555 1_555
C44_2 C43_2 1_555 1_555
H31_2 C44_2 1_555 1_555
H32_2 C44_2 1_555 1_555
H33_2 C44_2 1_555 1_555
C45_2 H34_2 1_555 1_555
H35_2 C45_2 1_555 1_555
C46_2 C45_2 1_555 1_555
H36_2 C46_2 1_555 1_555
H37_2 C46_2 1_555 1_555
C47_2 C46_2 1_555 1_555
H38_2 C47_2 1_555 1_555
H39_2 C47_2 1_555 1_555
C48_2 C47_2 1_555 1_555
H40_2 C48_2 1_555 1_555
H41_2 C48_2 1_555 1_555
H42_2 C48_2 1_555 1_555
C49_2 H43_2 1_555 1_555
H44_2 C49_2 1_555 1_555
C50_2 C49_2 1_555 1_555
H45_2 C50_2 1_555 1_555
H46_2 C50_2 1_555 1_555
C51_2 H47_2 1_555 1_555
H48_2 C51_2 1_555 1_555
C52_2 C51_2 1_555 1_555
H49_2 C52_2 1_555 1_555
H50_2 C52_2 1_555 1_555
C53_2 C52_2 1_555 1_555
H51_2 C53_2 1_555 1_555
H52_2 C53_2 1_555 1_555
C54_2 C53_2 1_555 1_555
H53_2 C54_2 1_555 1_555
H54_2 C54_2 1_555 1_555
H55_2 C54_2 1_555 1_555
N1_2 C41_2 1_555 1_555
C55_2 C50_2 1_555 1_555
H56_2 C55_2 1_555 1_555
H57_2 C55_2 1_555 1_555
C56_2 C55_2 1_555 1_555
H58_2 C56_2 1_555 1_555
H59_2 C56_2 1_555 1_555
H60_2 C56_2 1_555 1_555
C45_2 N1_2 1_555 1_555
C49_2 N1_2 1_555 1_555
C51_2 N1_2 1_555 1_555
C41_3 H25_3 1_555 1_555
H26_3 C41_3 1_555 1_555
C42_3 C41_3 1_555 1_555
H27_3 C42_3 1_555 1_555
H28_3 C42_3 1_555 1_555
C43_3 C42_3 1_555 1_555
H29_3 C43_3 1_555 1_555
H30_3 C43_3 1_555 1_555
C44_3 C43_3 1_555 1_555
H31_3 C44_3 1_555 1_555
H32_3 C44_3 1_555 1_555
H33_3 C44_3 1_555 1_555
C45_3 H34_3 1_555 1_555
H35_3 C45_3 1_555 1_555
C46_3 C45_3 1_555 1_555
H36_3 C46_3 1_555 1_555
H37_3 C46_3 1_555 1_555
C47_3 C46_3 1_555 1_555
H38_3 C47_3 1_555 1_555
H39_3 C47_3 1_555 1_555
C48_3 C47_3 1_555 1_555
H40_3 C48_3 1_555 1_555
H41_3 C48_3 1_555 1_555
H42_3 C48_3 1_555 1_555
C49_3 H43_3 1_555 1_555
H44_3 C49_3 1_555 1_555
C50_3 C49_3 1_555 1_555
H45_3 C50_3 1_555 1_555
H46_3 C50_3 1_555 1_555
H48_3 C51_3 1_555 1_555
C52_3 C51_3 1_555 1_555
H49_3 C52_3 1_555 1_555
H50_3 C52_3 1_555 1_555
N1_3 C41_3 1_555 1_555
C55_3 C50_3 1_555 1_555
H56_3 C55_3 1_555 1_555
H57_3 C55_3 1_555 1_555
C56_3 C55_3 1_555 1_555
H58_3 C56_3 1_555 1_555
H59_3 C56_3 1_555 1_555
H60_3 C56_3 1_555 1_555
C45_3 N1_3 1_555 1_555
C49_3 N1_3 1_555 1_555
C51_3 N1_3 1_555 1_555
H51_3 C53_3 1_555 1_555
H52_3 C53_3 1_555 1_555
C54_3 C53_3 1_555 1_555
H53_3 C54_3 1_555 1_555
H54_3 C54_3 1_555 1_555
H55_3 C54_3 1_555 1_555
C41_4 H25_4 1_555 1_555
H26_4 C41_4 1_555 1_555
C42_4 C41_4 1_555 1_555
H27_4 C42_4 1_555 1_555
H28_4 C42_4 1_555 1_555
C43_4 C42_4 1_555 1_555
H29_4 C43_4 1_555 1_555
H30_4 C43_4 1_555 1_555
C44_4 C43_4 1_555 1_555
H31_4 C44_4 1_555 1_555
H32_4 C44_4 1_555 1_555
H33_4 C44_4 1_555 1_555
C45_4 H34_4 1_555 1_555
H35_4 C45_4 1_555 1_555
C46_4 C45_4 1_555 1_555
H36_4 C46_4 1_555 1_555
H37_4 C46_4 1_555 1_555
C47_4 C46_4 1_555 1_555
H38_4 C47_4 1_555 1_555
H39_4 C47_4 1_555 1_555
C48_4 C47_4 1_555 1_555
H40_4 C48_4 1_555 1_555
H41_4 C48_4 1_555 1_555
H42_4 C48_4 1_555 1_555
C49_4 H43_4 1_555 1_555
H44_4 C49_4 1_555 1_555
C50_4 C49_4 1_555 1_555
H45_4 C50_4 1_555 1_555
H46_4 C50_4 1_555 1_555
C51_4 H47_4 1_555 1_555
H48_4 C51_4 1_555 1_555
C52_4 C51_4 1_555 1_555
H49_4 C52_4 1_555 1_555
H50_4 C52_4 1_555 1_555
C53_4 C52_4 1_555 1_555
H51_4 C53_4 1_555 1_555
H52_4 C53_4 1_555 1_555
C54_4 C53_4 1_555 1_555
H53_4 C54_4 1_555 1_555
H54_4 C54_4 1_555 1_555
H55_4 C54_4 1_555 1_555
N1_4 C41_4 1_555 1_555
C55_4 C50_4 1_555 1_555
H56_4 C55_4 1_555 1_555
H57_4 C55_4 1_555 1_555
C56_4 C55_4 1_555 1_555
H58_4 C56_4 1_555 1_555
H59_4 C56_4 1_555 1_555
H60_4 C56_4 1_555 1_555
C45_4 N1_4 1_555 1_555
C49_4 N1_4 1_555 1_555
C51_4 N1_4 1_555 1_555
C41_5 H25_5 1_555 1_555
H26_5 C41_5 1_555 1_555
C42_5 C41_5 1_555 1_555
H27_5 C42_5 1_555 1_555
H28_5 C42_5 1_555 1_555
C43_5 C42_5 1_555 1_555
H29_5 C43_5 1_555 1_555
H30_5 C43_5 1_555 1_555
C44_5 C43_5 1_555 1_555
H31_5 C44_5 1_555 1_555
H32_5 C44_5 1_555 1_555
H33_5 C44_5 1_555 1_555
C45_5 H34_5 1_555 1_555
H35_5 C45_5 1_555 1_555
C46_5 C45_5 1_555 1_555
H36_5 C46_5 1_555 1_555
H37_5 C46_5 1_555 1_555
C47_5 C46_5 1_555 1_555
H38_5 C47_5 1_555 1_555
H39_5 C47_5 1_555 1_555
C48_5 C47_5 1_555 1_555
H40_5 C48_5 1_555 1_555
H41_5 C48_5 1_555 1_555
H42_5 C48_5 1_555 1_555
C49_5 H43_5 1_555 1_555
H44_5 C49_5 1_555 1_555
C50_5 C49_5 1_555 1_555
H45_5 C50_5 1_555 1_555
H46_5 C50_5 1_555 1_555
H48_5 C51_5 1_555 1_555
C52_5 C51_5 1_555 1_555
H49_5 C52_5 1_555 1_555
H50_5 C52_5 1_555 1_555
N1_5 C41_5 1_555 1_555
C55_5 C50_5 1_555 1_555
H56_5 C55_5 1_555 1_555
H57_5 C55_5 1_555 1_555
C56_5 C55_5 1_555 1_555
H58_5 C56_5 1_555 1_555
H59_5 C56_5 1_555 1_555
H60_5 C56_5 1_555 1_555
C45_5 N1_5 1_555 1_555
C49_5 N1_5 1_555 1_555
C51_5 N1_5 1_555 1_555
H51_5 C53_5 1_555 1_555
H52_5 C53_5 1_555 1_555
C54_5 C53_5 1_555 1_555
H53_5 C54_5 1_555 1_555
H54_5 C54_5 1_555 1_555
H55_5 C54_5 1_555 1_555
C41_6 H25_6 1_555 1_555
H26_6 C41_6 1_555 1_555
C42_6 C41_6 1_555 1_555
H27_6 C42_6 1_555 1_555
H28_6 C42_6 1_555 1_555
C43_6 C42_6 1_555 1_555
H29_6 C43_6 1_555 1_555
H30_6 C43_6 1_555 1_555
C44_6 C43_6 1_555 1_555
H31_6 C44_6 1_555 1_555
H32_6 C44_6 1_555 1_555
H33_6 C44_6 1_555 1_555
C45_6 H34_6 1_555 1_555
H35_6 C45_6 1_555 1_555
C46_6 C45_6 1_555 1_555
H36_6 C46_6 1_555 1_555
H37_6 C46_6 1_555 1_555
C47_6 C46_6 1_555 1_555
H38_6 C47_6 1_555 1_555
H39_6 C47_6 1_555 1_555
C48_6 C47_6 1_555 1_555
H40_6 C48_6 1_555 1_555
H41_6 C48_6 1_555 1_555
H42_6 C48_6 1_555 1_555
C49_6 H43_6 1_555 1_555
H44_6 C49_6 1_555 1_555
C50_6 C49_6 1_555 1_555
H45_6 C50_6 1_555 1_555
H46_6 C50_6 1_555 1_555
C51_6 H47_6 1_555 1_555
H48_6 C51_6 1_555 1_555
C52_6 C51_6 1_555 1_555
H49_6 C52_6 1_555 1_555
H50_6 C52_6 1_555 1_555
C53_6 C52_6 1_555 1_555
H51_6 C53_6 1_555 1_555
H52_6 C53_6 1_555 1_555
C54_6 C53_6 1_555 1_555
H53_6 C54_6 1_555 1_555
H54_6 C54_6 1_555 1_555
H55_6 C54_6 1_555 1_555
N1_6 C41_6 1_555 1_555
C55_6 C50_6 1_555 1_555
H56_6 C55_6 1_555 1_555
H57_6 C55_6 1_555 1_555
C56_6 C55_6 1_555 1_555
H58_6 C56_6 1_555 1_555
H59_6 C56_6 1_555 1_555
H60_6 C56_6 1_555 1_555
C45_6 N1_6 1_555 1_555
C49_6 N1_6 1_555 1_555
C51_6 N1_6 1_555 1_555
H51_7 C53_7 1_555 1_555
H52_7 C53_7 1_555 1_555
C54_7 C53_7 1_555 1_555
H53_7 C54_7 1_555 1_555
H54_7 C54_7 1_555 1_555
H55_7 C54_7 1_555 1_555
C41_7 H25_7 1_555 1_555
H26_7 C41_7 1_555 1_555
C42_7 C41_7 1_555 1_555
H27_7 C42_7 1_555 1_555
H28_7 C42_7 1_555 1_555
C43_7 C42_7 1_555 1_555
H29_7 C43_7 1_555 1_555
H30_7 C43_7 1_555 1_555
C44_7 C43_7 1_555 1_555
H31_7 C44_7 1_555 1_555
H32_7 C44_7 1_555 1_555
H33_7 C44_7 1_555 1_555
C45_7 H34_7 1_555 1_555
H35_7 C45_7 1_555 1_555
C46_7 C45_7 1_555 1_555
H36_7 C46_7 1_555 1_555
H37_7 C46_7 1_555 1_555
C47_7 C46_7 1_555 1_555
H38_7 C47_7 1_555 1_555
H39_7 C47_7 1_555 1_555
C48_7 C47_7 1_555 1_555
H40_7 C48_7 1_555 1_555
H41_7 C48_7 1_555 1_555
H42_7 C48_7 1_555 1_555
C49_7 H43_7 1_555 1_555
H44_7 C49_7 1_555 1_555
C50_7 C49_7 1_555 1_555
H45_7 C50_7 1_555 1_555
H46_7 C50_7 1_555 1_555
H48_7 C51_7 1_555 1_555
C52_7 C51_7 1_555 1_555
H49_7 C52_7 1_555 1_555
H50_7 C52_7 1_555 1_555
N1_7 C41_7 1_555 1_555
C55_7 C50_7 1_555 1_555
H56_7 C55_7 1_555 1_555
H57_7 C55_7 1_555 1_555
C56_7 C55_7 1_555 1_555
H58_7 C56_7 1_555 1_555
H59_7 C56_7 1_555 1_555
H60_7 C56_7 1_555 1_555
C45_7 N1_7 1_555 1_555
C49_7 N1_7 1_555 1_555
C51_7 N1_7 1_555 1_555
C41_8 H25_8 1_555 1_555
H26_8 C41_8 1_555 1_555
C42_8 C41_8 1_555 1_555
H27_8 C42_8 1_555 1_555
H28_8 C42_8 1_555 1_555
C43_8 C42_8 1_555 1_555
H29_8 C43_8 1_555 1_555
H30_8 C43_8 1_555 1_555
C44_8 C43_8 1_555 1_555
H31_8 C44_8 1_555 1_555
H32_8 C44_8 1_555 1_555
H33_8 C44_8 1_555 1_555
C45_8 H34_8 1_555 1_555
H35_8 C45_8 1_555 1_555
C46_8 C45_8 1_555 1_555
H36_8 C46_8 1_555 1_555
H37_8 C46_8 1_555 1_555
C47_8 C46_8 1_555 1_555
H38_8 C47_8 1_555 1_555
H39_8 C47_8 1_555 1_555
C48_8 C47_8 1_555 1_555
H40_8 C48_8 1_555 1_555
H41_8 C48_8 1_555 1_555
H42_8 C48_8 1_555 1_555
C49_8 H43_8 1_555 1_555
H44_8 C49_8 1_555 1_555
C50_8 C49_8 1_555 1_555
H45_8 C50_8 1_555 1_555
H46_8 C50_8 1_555 1_555
C51_8 H47_8 1_555 1_555
H48_8 C51_8 1_555 1_555
C52_8 C51_8 1_555 1_555
H49_8 C52_8 1_555 1_555
H50_8 C52_8 1_555 1_555
C53_8 C52_8 1_555 1_555
H51_8 C53_8 1_555 1_555
H52_8 C53_8 1_555 1_555
C54_8 C53_8 1_555 1_555
H53_8 C54_8 1_555 1_555
H54_8 C54_8 1_555 1_555
H55_8 C54_8 1_555 1_555
N1_8 C41_8 1_555 1_555
C55_8 C50_8 1_555 1_555
H56_8 C55_8 1_555 1_555
H57_8 C55_8 1_555 1_555
C56_8 C55_8 1_555 1_555
H58_8 C56_8 1_555 1_555
H59_8 C56_8 1_555 1_555
H60_8 C56_8 1_555 1_555
C45_8 N1_8 1_555 1_555
C49_8 N1_8 1_555 1_555
C51_8 N1_8 1_555 1_555
H85 C68 1_555 1_555
H86 C68 1_555 1_555
C57 H61 1_555 1_555
H62 C57 1_555 1_555
C58 C57 1_555 1_555
H63 C58 1_555 1_555
H64 C58 1_555 1_555
C59 C58 1_555 1_555
H65 C59 1_555 1_555
H66 C59 1_555 1_555
C60 C59 1_555 1_555
H67 C60 1_555 1_555
H68 C60 1_555 1_555
H69 C60 1_555 1_555
C61 H70 1_555 1_555
H71 C61 1_555 1_555
C62 C61 1_555 1_555
H72 C62 1_555 1_555
H73 C62 1_555 1_555
C63 C62 1_555 1_555
H74 C63 1_555 1_555
H75 C63 1_555 1_555
C64 C63 1_555 1_555
H76 C64 1_555 1_555
H77 C64 1_555 1_555
H78 C64 1_555 1_555
N2 C57 1_555 1_555
C65 N2 1_555 1_555
H79 C65 1_555 1_555
H80 C65 1_555 1_555
C66 C65 1_555 1_555
H81 C66 1_555 1_555
H82 C66 1_555 1_555
C67 C66 1_555 1_555
H83 C67 1_555 1_555
H84 C67 1_555 1_555
C69 N2 1_555 1_555
H88 C69 1_555 1_555
H89 C69 1_555 1_555
C70 C69 1_555 1_555
H90 C70 1_555 1_555
H91 C70 1_555 1_555
C71 C70 1_555 1_555
H92 C71 1_555 1_555
H93 C71 1_555 1_555
C72 C71 1_555 1_555
H94 C72 1_555 1_555
H95 C72 1_555 1_555
H96 C72 1_555 1_555
C61 N2 1_555 1_555
C65_2 N2_2 1_555 1_555
H79_2 C65_2 1_555 1_555
H80_2 C65_2 1_555 1_555
C66_2 C65_2 1_555 1_555
H81_2 C66_2 1_555 1_555
H82_2 C66_2 1_555 1_555
C67_2 C66_2 1_555 1_555
H83_2 C67_2 1_555 1_555
H84_2 C67_2 1_555 1_555
C68_2 C67_2 1_555 1_555
H85_2 C68_2 1_555 1_555
H86_2 C68_2 1_555 1_555
H87_2 C68_2 1_555 1_555
C69_2 N2_2 1_555 1_555
H88_2 C69_2 1_555 1_555
H89_2 C69_2 1_555 1_555
C70_2 C69_2 1_555 1_555
H90_2 C70_2 1_555 1_555
H91_2 C70_2 1_555 1_555
C71_2 C70_2 1_555 1_555
H92_2 C71_2 1_555 1_555
H93_2 C71_2 1_555 1_555
C72_2 C71_2 1_555 1_555
H94_2 C72_2 1_555 1_555
H95_2 C72_2 1_555 1_555
H96_2 C72_2 1_555 1_555
C57_2 H61_2 1_555 1_555
H62_2 C57_2 1_555 1_555
C58_2 C57_2 1_555 1_555
H63_2 C58_2 1_555 1_555
H64_2 C58_2 1_555 1_555
C59_2 C58_2 1_555 1_555
H65_2 C59_2 1_555 1_555
H66_2 C59_2 1_555 1_555
C61_2 H70_2 1_555 1_555
H71_2 C61_2 1_555 1_555
C62_2 C61_2 1_555 1_555
H72_2 C62_2 1_555 1_555
H73_2 C62_2 1_555 1_555
C63_2 C62_2 1_555 1_555
H74_2 C63_2 1_555 1_555
H75_2 C63_2 1_555 1_555
C64_2 C63_2 1_555 1_555
H76_2 C64_2 1_555 1_555
H77_2 C64_2 1_555 1_555
H78_2 C64_2 1_555 1_555
N2_3 C57_2 1_555 1_555
C61_2 N2_3 1_555 1_555
H67_2 C60_2 1_555 1_555
H68_2 C60_2 1_555 1_555
C57_3 H61_3 1_555 1_555
H62_3 C57_3 1_555 1_555
C58_3 C57_3 1_555 1_555
H63_3 C58_3 1_555 1_555
H64_3 C58_3 1_555 1_555
C59_3 C58_3 1_555 1_555
H65_3 C59_3 1_555 1_555
H66_3 C59_3 1_555 1_555
C60_3 C59_3 1_555 1_555
H67_3 C60_3 1_555 1_555
H68_3 C60_3 1_555 1_555
H69_3 C60_3 1_555 1_555
C61_3 H70_3 1_555 1_555
H71_3 C61_3 1_555 1_555
C62_3 C61_3 1_555 1_555
H72_3 C62_3 1_555 1_555
H73_3 C62_3 1_555 1_555
C63_3 C62_3 1_555 1_555
H74_3 C63_3 1_555 1_555
H75_3 C63_3 1_555 1_555
C64_3 C63_3 1_555 1_555
H76_3 C64_3 1_555 1_555
H77_3 C64_3 1_555 1_555
H78_3 C64_3 1_555 1_555
N2_4 C57_3 1_555 1_555
C65_3 N2_4 1_555 1_555
H79_3 C65_3 1_555 1_555
H80_3 C65_3 1_555 1_555
C66_3 C65_3 1_555 1_555
H81_3 C66_3 1_555 1_555
H82_3 C66_3 1_555 1_555
C67_3 C66_3 1_555 1_555
H83_3 C67_3 1_555 1_555
H84_3 C67_3 1_555 1_555
C69_3 N2_4 1_555 1_555
H88_3 C69_3 1_555 1_555
H89_3 C69_3 1_555 1_555
C70_3 C69_3 1_555 1_555
H90_3 C70_3 1_555 1_555
H91_3 C70_3 1_555 1_555
C71_3 C70_3 1_555 1_555
H92_3 C71_3 1_555 1_555
H93_3 C71_3 1_555 1_555
C72_3 C71_3 1_555 1_555
H94_3 C72_3 1_555 1_555
H95_3 C72_3 1_555 1_555
H96_3 C72_3 1_555 1_555
C61_3 N2_4 1_555 1_555
H85_3 C68_3 1_555 1_555
H86_3 C68_3 1_555 1_555
H67_4 C60_4 1_555 1_555
H68_4 C60_4 1_555 1_555
C57_4 H61_4 1_555 1_555
H62_4 C57_4 1_555 1_555
C58_4 C57_4 1_555 1_555
H63_4 C58_4 1_555 1_555
H64_4 C58_4 1_555 1_555
C59_4 C58_4 1_555 1_555
H65_4 C59_4 1_555 1_555
H66_4 C59_4 1_555 1_555
C61_4 H70_4 1_555 1_555
H71_4 C61_4 1_555 1_555
C62_4 C61_4 1_555 1_555
H72_4 C62_4 1_555 1_555
H73_4 C62_4 1_555 1_555
C63_4 C62_4 1_555 1_555
H74_4 C63_4 1_555 1_555
H75_4 C63_4 1_555 1_555
C64_4 C63_4 1_555 1_555
H76_4 C64_4 1_555 1_555
H77_4 C64_4 1_555 1_555
H78_4 C64_4 1_555 1_555
N2_5 C57_4 1_555 1_555
C61_4 N2_5 1_555 1_555
C65_4 N2_6 1_555 1_555
H79_4 C65_4 1_555 1_555
H80_4 C65_4 1_555 1_555
C66_4 C65_4 1_555 1_555
H81_4 C66_4 1_555 1_555
H82_4 C66_4 1_555 1_555
C67_4 C66_4 1_555 1_555
H83_4 C67_4 1_555 1_555
H84_4 C67_4 1_555 1_555
C68_4 C67_4 1_555 1_555
H85_4 C68_4 1_555 1_555
H86_4 C68_4 1_555 1_555
H87_4 C68_4 1_555 1_555
C69_4 N2_6 1_555 1_555
H88_4 C69_4 1_555 1_555
H89_4 C69_4 1_555 1_555
C70_4 C69_4 1_555 1_555
H90_4 C70_4 1_555 1_555
H91_4 C70_4 1_555 1_555
C71_4 C70_4 1_555 1_555
H92_4 C71_4 1_555 1_555
H93_4 C71_4 1_555 1_555
C72_4 C71_4 1_555 1_555
H94_4 C72_4 1_555 1_555
H95_4 C72_4 1_555 1_555
H96_4 C72_4 1_555 1_555

#END
