
###############################################################################
#
# This file contains modified crystal structure data generated from the
# MOF subset of the Cambridge Structural Database (CSD) v543 
# hosted by the Cambridge Crystallographic Data Centre (CCDC).
#
# This work is licensed under the Creative Commons
# Attribution-NonCommercial-ShareAlike 4.0 International License.
# To view a copy of this license, visit
# http://creativecommons.org/licenses/by-nc-sa/4.0/
# or send a letter to
# Creative Commons, PO Box 1866, Mountain View, CA 94042, USA.
#
# CIF created using the CSD Python API on 29 September 2022
# The structure has been converted into the P1 space group
# The structure has a 3D framework
# The original CSD entry PAWNUA is in the cubic crystal system
# The framework has been calculated to contain at least 10.0% void space
# The void calculation uses a probe of radius 1.32A, grid spacing 0.4
#
###############################################################################

data_PAWNUA
_chemical_formula_moiety         '(C312 H192 Co21 N24 O48)n'
_symmetry_cell_setting           triclinic
_symmetry_space_group_name_H-M   'P 1'
_symmetry_Int_Tables_number      1
_space_group_name_Hall           'P 1'
loop_
_symmetry_equiv_pos_site_id
_symmetry_equiv_pos_as_xyz
1 x,y,z
_cell_length_a                   27.478(3)
_cell_length_b                   27.478(3)
_cell_length_c                   27.478(3)
_cell_angle_alpha                90
_cell_angle_beta                 90
_cell_angle_gamma                90
_cell_volume                     20747
loop_
_atom_site_label
_atom_site_type_symbol
_atom_site_fract_x
_atom_site_fract_y
_atom_site_fract_z
Co6 Co 0.0000 0.5000 0.20208(3)
Co13 Co 0.0000 0.5000 0.29792(3)
O28 O 0.05233(15) 0.55110(12) 0.21093(12)
O34 O 0.05233(15) 0.44890(12) 0.21093(12)
N7 N 0.0000 0.5000 0.1278(2)
N6 N 0.1278(2) 0.0000 0.5000
C134 C 0.0255(3) 0.0000 0.5000
C135 C 0.0992(3) 0.0385(3) 0.5000
H81 H 0.1149 0.0694 0.5000
C136 C 0.0546(3) 0.0388(3) 0.5000
H82 H 0.0392 0.0698 0.5000
Co5 Co 0.20208(3) 0.0000 0.5000
Co11 Co 0.29792(3) 0.0000 0.5000
O25 O 0.21093(12) 0.05233(15) 0.55110(12)
O35 O 0.21093(12) 0.05233(15) 0.44890(12)
C124 C 0.0000 0.5000 0.0255(3)
C125 C 0.0385(3) 0.5000 0.0992(3)
H73 H 0.0694 0.5000 0.1149
C126 C 0.0388(3) 0.5000 0.0546(3)
H74 H 0.0698 0.5000 0.0392
Co3 Co -0.0000 0.5000 0.79792(3)
N3 N -0.0000 0.5000 0.8722(2)
C121 C -0.0000 0.5000 0.9745(3)
C127 C 0.0385(3) 0.5000 0.9008(3)
H75 H 0.0694 0.5000 0.8851
C128 C 0.0388(3) 0.5000 0.9454(3)
H76 H 0.0698 0.5000 0.9608
N6_2 N 0.1278(2) 1.0000 0.5000
C132 C 0.0992(3) 0.9615(3) 0.5000
H79 H 0.1149 0.9306 0.5000
C133 C 0.0546(3) 0.9612(3) 0.5000
H80 H 0.0392 0.9302 0.5000
C134_2 C 0.0255(3) 1.0000 0.5000
Co5_2 Co 0.20208(3) 1.0000 0.5000
Co11_2 Co 0.29792(3) 1.0000 0.5000
Co15 Co 0.0000 0.5000 0.70208(3)
O26 O 0.21093(12) 0.94767(15) 0.44890(12)
O27 O 0.05233(15) 0.44890(12) 0.78907(12)
O37 O 0.05233(15) 0.55110(12) 0.78907(12)
O41 O 0.21093(12) 0.94767(15) 0.55110(12)
N2 N 0.5000 0.1278(2) 0.0000
C33 C 0.5000 0.0255(3) 0.0000
C34 C 0.5000 0.0992(3) 0.0385(3)
H20 H 0.5000 0.1149 0.0694
C35 C 0.5000 0.0546(3) 0.0388(3)
H21 H 0.5000 0.0392 0.0698
Co2 Co 0.5000 0.20208(3) 0.0000
O13 O 0.55110(12) 0.21093(12) 0.05233(15)
C65 C 0.56566(18) 0.2500 0.06566(18)
C66 C 0.6005(3) 0.2500 0.1005(3)
C67 C 0.6183(3) 0.20549(19) 0.1242(3)
H39 H 0.6023 0.1755 0.1181
C68 C 0.6590(3) 0.2062(2) 0.1559(3)
H40 H 0.6753 0.1769 0.1642
C69 C 0.67448(19) 0.2500 0.17448(19)
C70 C 0.7141(3) 0.2500 0.2141(3)
C71 C 0.7137(2) 0.2137(2) 0.2500
H41 H 0.6893 0.1893 0.2500
O14 O 0.94767(15) 0.44890(12) 0.21093(12)
C72 C 0.93434(18) 0.43434(18) 0.2500
C73 C 0.8995(3) 0.3995(3) 0.2500
C74 C 0.8758(3) 0.3817(3) 0.20549(19)
H42 H 0.8819 0.3977 0.1755
C75 C 0.8441(3) 0.3410(3) 0.2062(2)
H43 H 0.8358 0.3247 0.1769
C76 C 0.82552(19) 0.32552(19) 0.2500
C77 C 0.7859(3) 0.2859(3) 0.2500
C78 C 0.7500 0.2863(2) 0.2137(2)
H44 H 0.7500 0.3107 0.1893
O15 O 0.78907(12) 0.05233(15) 0.44890(12)
C79 C 0.7500 0.06566(18) 0.43434(18)
C80 C 0.7500 0.1005(3) 0.3995(3)
C81 C 0.79451(19) 0.1242(3) 0.3817(3)
H45 H 0.8245 0.1181 0.3977
C82 C 0.7938(2) 0.1559(3) 0.3410(3)
H46 H 0.8231 0.1642 0.3247
C83 C 0.7500 0.17448(19) 0.32552(19)
C84 C 0.7500 0.2141(3) 0.2859(3)
C85 C 0.7863(2) 0.2500 0.2863(2)
H47 H 0.8107 0.2500 0.3107
O16 O 0.71093(12) 0.05110(12) 0.44767(15)
C86 C 0.70549(19) 0.1183(3) 0.3758(3)
H48 H 0.6755 0.1023 0.3819
C87 C 0.7062(2) 0.1590(3) 0.3441(3)
H49 H 0.6769 0.1753 0.3358
O17 O 0.55233(15) 0.28907(12) 0.05110(12)
C88 C 0.6242(3) 0.29451(19) 0.1183(3)
H50 H 0.6181 0.3245 0.1023
C89 C 0.6559(3) 0.2938(2) 0.1590(3)
H51 H 0.6642 0.3231 0.1753
O18 O 0.94890(12) 0.44767(15) 0.28907(12)
C90 C 0.8817(3) 0.3758(3) 0.29451(19)
H52 H 0.8977 0.3819 0.3245
C91 C 0.8410(3) 0.3441(3) 0.2938(2)
H53 H 0.8247 0.3358 0.3231
Co6_2 Co 1.0000 0.5000 0.20208(3)
Co8 Co 0.70208(3) 0.0000 0.5000
Co13_2 Co 1.0000 0.5000 0.29792(3)
Co16 Co 0.5000 0.29792(3) 0.0000
Co18 Co 0.79792(3) 0.0000 0.5000
O30 O 0.44890(12) 0.21093(12) 0.05233(15)
O39 O 0.94767(15) 0.55110(12) 0.21093(12)
N7_2 N 1.0000 0.5000 0.1278(2)
N2_2 N 0.5000 0.1278(2) 1.0000
C31 C 0.5000 0.0992(3) 0.9615(3)
H18 H 0.5000 0.1149 0.9306
C32 C 0.5000 0.0546(3) 0.9612(3)
H19 H 0.5000 0.0392 0.9302
C33_2 C 0.5000 0.0255(3) 1.0000
Co2_2 Co 0.5000 0.20208(3) 1.0000
O7 O 0.44890(12) 0.21093(12) 0.94767(15)
C38 C 0.43434(18) 0.2500 0.93434(18)
C39 C 0.3995(3) 0.2500 0.8995(3)
C40 C 0.3817(3) 0.20549(19) 0.8758(3)
H24 H 0.3977 0.1755 0.8819
C41 C 0.3410(3) 0.2062(2) 0.8441(3)
H25 H 0.3247 0.1769 0.8358
C42 C 0.32552(19) 0.2500 0.82552(19)
C43 C 0.2859(3) 0.2500 0.7859(3)
C44 C 0.2863(2) 0.2137(2) 0.7500
H26 H 0.3107 0.1893 0.7500
C45 C 0.06566(18) 0.43434(18) 0.7500
C46 C 0.1005(3) 0.3995(3) 0.7500
C47 C 0.1242(3) 0.3817(3) 0.79451(19)
H27 H 0.1181 0.3977 0.8245
C48 C 0.1559(3) 0.3410(3) 0.7938(2)
H28 H 0.1642 0.3247 0.8231
C49 C 0.17448(19) 0.32552(19) 0.7500
C50 C 0.2141(3) 0.2859(3) 0.7500
C51 C 0.2500 0.2863(2) 0.7863(2)
H29 H 0.2500 0.3107 0.8107
C52 C 0.2500 0.06566(18) 0.56566(18)
C53 C 0.2500 0.1005(3) 0.6005(3)
C54 C 0.20549(19) 0.1242(3) 0.6183(3)
H30 H 0.1755 0.1181 0.6023
C55 C 0.2062(2) 0.1559(3) 0.6590(3)
H31 H 0.1769 0.1642 0.6753
C56 C 0.2500 0.17448(19) 0.67448(19)
C57 C 0.2500 0.2141(3) 0.7141(3)
C58 C 0.2137(2) 0.2500 0.7137(2)
H32 H 0.1893 0.2500 0.6893
O10 O 0.28907(12) 0.05110(12) 0.55233(15)
C59 C 0.29451(19) 0.1183(3) 0.6242(3)
H33 H 0.3245 0.1023 0.6181
C60 C 0.2938(2) 0.1590(3) 0.6559(3)
H34 H 0.3231 0.1753 0.6642
O11 O 0.44767(15) 0.28907(12) 0.94890(12)
C61 C 0.3758(3) 0.29451(19) 0.8817(3)
H35 H 0.3819 0.3245 0.8977
C62 C 0.3441(3) 0.2938(2) 0.8410(3)
H36 H 0.3358 0.3231 0.8247
O12 O 0.05110(12) 0.44767(15) 0.71093(12)
C63 C 0.1183(3) 0.3758(3) 0.70549(19)
H37 H 0.1023 0.3819 0.6755
C64 C 0.1590(3) 0.3441(3) 0.7062(2)
H38 H 0.1753 0.3358 0.6769
N5 N 0.8722(2) 0.0000 0.5000
C131 C 0.9745(3) 0.0000 0.5000
C137 C 0.9008(3) 0.0385(3) 0.5000
H83 H 0.8851 0.0694 0.5000
C138 C 0.9454(3) 0.0388(3) 0.5000
H84 H 0.9608 0.0698 0.5000
Co16_2 Co 0.5000 0.29792(3) 1.0000
O33 O 0.55110(12) 0.21093(12) 0.94767(15)
O38 O 0.78907(12) 0.05233(15) 0.55110(12)
Co1 Co 0.5000 0.79792(3) 0.0000
N1 N 0.5000 0.8722(2) 0.0000
C10 C 0.5000 0.9745(3) 0.0000
C36 C 0.5000 0.9008(3) 0.0385(3)
H22 H 0.5000 0.8851 0.0694
C37 C 0.5000 0.9454(3) 0.0388(3)
H23 H 0.5000 0.9608 0.0698
O19 O 0.44890(12) 0.78907(12) 0.05233(15)
C92 C 0.43434(18) 0.7500 0.06566(18)
C93 C 0.3995(3) 0.7500 0.1005(3)
C94 C 0.3817(3) 0.79451(19) 0.1242(3)
H54 H 0.3977 0.8245 0.1181
C95 C 0.3410(3) 0.7938(2) 0.1559(3)
H55 H 0.3247 0.8231 0.1642
C96 C 0.32552(19) 0.7500 0.17448(19)
C97 C 0.2859(3) 0.7500 0.2141(3)
C98 C 0.2863(2) 0.7863(2) 0.2500
H56 H 0.3107 0.8107 0.2500
C99 C 0.06566(18) 0.56566(18) 0.2500
C100 C 0.1005(3) 0.6005(3) 0.2500
C101 C 0.1242(3) 0.6183(3) 0.20549(19)
H57 H 0.1181 0.6023 0.1755
C102 C 0.1559(3) 0.6590(3) 0.2062(2)
H58 H 0.1642 0.6753 0.1769
C103 C 0.17448(19) 0.67448(19) 0.2500
C104 C 0.2141(3) 0.7141(3) 0.2500
C105 C 0.2500 0.7137(2) 0.2137(2)
H59 H 0.2500 0.6893 0.1893
C106 C 0.2500 0.93434(18) 0.43434(18)
C107 C 0.2500 0.8995(3) 0.3995(3)
C108 C 0.20549(19) 0.8758(3) 0.3817(3)
H60 H 0.1755 0.8819 0.3977
C109 C 0.2062(2) 0.8441(3) 0.3410(3)
H61 H 0.1769 0.8358 0.3247
C110 C 0.2500 0.82552(19) 0.32552(19)
C111 C 0.2500 0.7859(3) 0.2859(3)
C112 C 0.2137(2) 0.7500 0.2863(2)
H62 H 0.1893 0.7500 0.3107
O22 O 0.28907(12) 0.94890(12) 0.44767(15)
C113 C 0.29451(19) 0.8817(3) 0.3758(3)
H63 H 0.3245 0.8977 0.3819
C114 C 0.2938(2) 0.8410(3) 0.3441(3)
H64 H 0.3231 0.8247 0.3358
O23 O 0.44767(15) 0.71093(12) 0.05110(12)
C115 C 0.3758(3) 0.70549(19) 0.1183(3)
H65 H 0.3819 0.6755 0.1023
C116 C 0.3441(3) 0.7062(2) 0.1590(3)
H66 H 0.3358 0.6769 0.1753
O24 O 0.05110(12) 0.55233(15) 0.28907(12)
C117 C 0.1183(3) 0.6242(3) 0.29451(19)
H67 H 0.1023 0.6181 0.3245
C118 C 0.1590(3) 0.6559(3) 0.2938(2)
H68 H 0.1753 0.6642 0.3231
C122 C 0.9615(3) 0.5000 0.0992(3)
H71 H 0.9306 0.5000 0.1149
C123 C 0.9612(3) 0.5000 0.0546(3)
H72 H 0.9302 0.5000 0.0392
C124_2 C 1.0000 0.5000 0.0255(3)
Co8_2 Co 0.70208(3) 1.0000 0.5000
Co18_2 Co 0.79792(3) 1.0000 0.5000
Co23 Co 0.5000 0.70208(3) 0.0000
O31 O 0.55110(12) 0.78907(12) 0.05233(15)
Co1_2 Co 0.5000 0.79792(3) 1.0000
O1 O 0.55110(12) 0.78907(12) 0.94767(15)
N1_2 N 0.5000 0.8722(2) 1.0000
C1 C 0.56566(18) 0.7500 0.93434(18)
C2 C 0.6005(3) 0.7500 0.8995(3)
C3 C 0.6183(3) 0.79451(19) 0.8758(3)
H1 H 0.6023 0.8245 0.8819
C4 C 0.6590(3) 0.7938(2) 0.8441(3)
H2 H 0.6753 0.8231 0.8358
C5 C 0.67448(19) 0.7500 0.82552(19)
C6 C 0.7141(3) 0.7500 0.7859(3)
C7 C 0.7137(2) 0.7863(2) 0.7500
H3 H 0.6893 0.8107 0.7500
C8 C 0.5000 0.9008(3) 0.9615(3)
H4 H 0.5000 0.8851 0.9306
C9 C 0.5000 0.9454(3) 0.9612(3)
H5 H 0.5000 0.9608 0.9302
C10_2 C 0.5000 0.9745(3) 1.0000
O2 O 0.94767(15) 0.55110(12) 0.78907(12)
C11 C 0.93434(18) 0.56566(18) 0.7500
C12 C 0.8995(3) 0.6005(3) 0.7500
C13 C 0.8758(3) 0.6183(3) 0.79451(19)
H6 H 0.8819 0.6023 0.8245
C14 C 0.8441(3) 0.6590(3) 0.7938(2)
H7 H 0.8358 0.6753 0.8231
C15 C 0.82552(19) 0.67448(19) 0.7500
C16 C 0.7859(3) 0.7141(3) 0.7500
C17 C 0.7500 0.7137(2) 0.7863(2)
H8 H 0.7500 0.6893 0.8107
O3 O 0.78907(12) 0.94767(15) 0.55110(12)
C18 C 0.7500 0.93434(18) 0.56566(18)
C19 C 0.7500 0.8995(3) 0.6005(3)
C20 C 0.79451(19) 0.8758(3) 0.6183(3)
H9 H 0.8245 0.8819 0.6023
C21 C 0.7938(2) 0.8441(3) 0.6590(3)
H10 H 0.8231 0.8358 0.6753
C22 C 0.7500 0.82552(19) 0.67448(19)
C23 C 0.7500 0.7859(3) 0.7141(3)
C24 C 0.7863(2) 0.7500 0.7137(2)
H11 H 0.8107 0.7500 0.6893
O4 O 0.71093(12) 0.94890(12) 0.55233(15)
C25 C 0.70549(19) 0.8817(3) 0.6242(3)
H12 H 0.6755 0.8977 0.6181
C26 C 0.7062(2) 0.8410(3) 0.6559(3)
H13 H 0.6769 0.8247 0.6642
O5 O 0.55233(15) 0.71093(12) 0.94890(12)
C27 C 0.6242(3) 0.70549(19) 0.8817(3)
H14 H 0.6181 0.6755 0.8977
C28 C 0.6559(3) 0.7062(2) 0.8410(3)
H15 H 0.6642 0.6769 0.8247
O6 O 0.94890(12) 0.55233(15) 0.71093(12)
C29 C 0.8817(3) 0.6242(3) 0.70549(19)
H16 H 0.8977 0.6181 0.6755
C30 C 0.8410(3) 0.6559(3) 0.7062(2)
H17 H 0.8247 0.6642 0.6769
Co3_2 Co 1.0000 0.5000 0.79792(3)
N3_2 N 1.0000 0.5000 0.8722(2)
C119 C 0.9615(3) 0.5000 0.9008(3)
H69 H 0.9306 0.5000 0.8851
C120 C 0.9612(3) 0.5000 0.9454(3)
H70 H 0.9302 0.5000 0.9608
C121_2 C 1.0000 0.5000 0.9745(3)
N5_2 N 0.8722(2) 1.0000 0.5000
C129 C 0.9008(3) 0.9615(3) 0.5000
H77 H 0.8851 0.9306 0.5000
C130 C 0.9454(3) 0.9612(3) 0.5000
H78 H 0.9608 0.9302 0.5000
C131_2 C 0.9745(3) 1.0000 0.5000
Co15_2 Co 1.0000 0.5000 0.70208(3)
Co23_2 Co 0.5000 0.70208(3) 1.0000
O32 O 0.44890(12) 0.78907(12) 0.94767(15)
O36 O 0.78907(12) 0.94767(15) 0.44890(12)
O40 O 0.94767(15) 0.44890(12) 0.78907(12)
N3_3 N -0.0000 0.5000 0.3722(2)
C119_2 C -0.0000 0.4615(3) 0.4008(3)
H69_2 H 0.0000 0.4306 0.3851
C120_2 C 0.0000 0.4612(3) 0.4454(3)
H70_2 H 0.0000 0.4302 0.4608
C121_3 C 0.0000 0.5000 0.4745(3)
N4 N 0.0000 0.5000 0.6278(2)
C122_2 C -0.0000 0.4615(3) 0.5992(3)
H71_2 H 0.0000 0.4306 0.6149
C123_2 C 0.0000 0.4612(3) 0.5546(3)
H72_2 H 0.0000 0.4302 0.5392
C124_3 C 0.0000 0.5000 0.5255(3)
C125_2 C -0.0000 0.5385(3) 0.5992(3)
H73_2 H -0.0000 0.5694 0.6149
C126_2 C -0.0000 0.5388(3) 0.5546(3)
H74_2 H 0.0000 0.5698 0.5392
C127_2 C 0.0000 0.5385(3) 0.4008(3)
H75_2 H 0.0000 0.5694 0.3851
C128_2 C -0.0000 0.5388(3) 0.4454(3)
H76_2 H -0.0000 0.5698 0.4608
O40_2 O 0.05110(12) 0.44767(15) 0.28907(12)
N1_3 N 0.6278(2) 0.0000 0.5000
C8_2 C 0.5992(3) 0.0000 0.4615(3)
H4_2 H 0.6149 0.0000 0.4306
C9_2 C 0.5546(3) 0.0000 0.4612(3)
H5_2 H 0.5392 0.0000 0.4302
C10_3 C 0.5255(3) 0.0000 0.5000
N2_3 N 0.3722(2) 0.0000 0.5000
C31_2 C 0.4008(3) 0.0000 0.4615(3)
H18_2 H 0.3851 0.0000 0.4306
C32_2 C 0.4454(3) 0.0000 0.4612(3)
H19_2 H 0.4608 0.0000 0.4302
C33_3 C 0.4745(3) 0.0000 0.5000
C34_2 C 0.4008(3) 0.0000 0.5385(3)
H20_2 H 0.3851 -0.0000 0.5694
C35_2 C 0.4454(3) -0.0000 0.5388(3)
H21_2 H 0.4608 0.0000 0.5698
C36_2 C 0.5992(3) 0.0000 0.5385(3)
H22_2 H 0.6149 0.0000 0.5694
C37_2 C 0.5546(3) -0.0000 0.5388(3)
H23_2 H 0.5392 0.0000 0.5698
N3_4 N 1.0000 0.5000 0.3722(2)
C119_3 C 1.0000 0.4615(3) 0.4008(3)
H69_3 H 1.0000 0.4306 0.3851
C120_3 C 1.0000 0.4612(3) 0.4454(3)
H70_3 H 1.0000 0.4302 0.4608
C121_4 C 1.0000 0.5000 0.4745(3)
N4_2 N 1.0000 0.5000 0.6278(2)
C122_3 C 1.0000 0.4615(3) 0.5992(3)
H71_3 H 1.0000 0.4306 0.6149
C123_3 C 1.0000 0.4612(3) 0.5546(3)
H72_3 H 1.0000 0.4302 0.5392
C124_4 C 1.0000 0.5000 0.5255(3)
C125_3 C 1.0000 0.5385(3) 0.5992(3)
H73_3 H 1.0000 0.5694 0.6149
C126_3 C 1.0000 0.5388(3) 0.5546(3)
H74_3 H 1.0000 0.5698 0.5392
C127_3 C 1.0000 0.5385(3) 0.4008(3)
H75_3 H 1.0000 0.5694 0.3851
C128_3 C 1.0000 0.5388(3) 0.4454(3)
H76_3 H 1.0000 0.5698 0.4608
N5_3 N 0.5000 0.3722(2) 0.0000
C129_2 C 0.5385(3) 0.4008(3) 0.0000
H77_2 H 0.5694 0.3851 0.0000
C130_2 C 0.5388(3) 0.4454(3) 0.0000
H78_2 H 0.5698 0.4608 0.0000
C131_3 C 0.5000 0.4745(3) 0.0000
N6_3 N 0.5000 0.6278(2) 0.0000
C132_2 C 0.5385(3) 0.5992(3) 0.0000
H79_2 H 0.5694 0.6149 0.0000
C133_2 C 0.5388(3) 0.5546(3) 0.0000
H80_2 H 0.5698 0.5392 0.0000
C134_3 C 0.5000 0.5255(3) 0.0000
C135_2 C 0.4615(3) 0.5992(3) 0.0000
H81_2 H 0.4306 0.6149 0.0000
C136_2 C 0.4612(3) 0.5546(3) 0.0000
H82_2 H 0.4302 0.5392 0.0000
C137_2 C 0.4615(3) 0.4008(3) 0.0000
H83_2 H 0.4306 0.3851 0.0000
C138_2 C 0.4612(3) 0.4454(3) 0.0000
H84_2 H 0.4302 0.4608 0.0000
O31_2 O 0.71093(12) 0.05110(12) 0.55233(15)
O33_2 O 0.28907(12) 0.05110(12) 0.44767(15)
O34_2 O 0.05110(12) 0.55233(15) 0.71093(12)
O37_2 O 0.94890(12) 0.55233(15) 0.28907(12)
O38_2 O 0.44767(15) 0.28907(12) 0.05110(12)
O41_2 O 0.55233(15) 0.71093(12) 0.05110(12)
N5_4 N 0.5000 0.3722(2) 1.0000
C129_3 C 0.5385(3) 0.4008(3) 1.0000
H77_3 H 0.5694 0.3851 1.0000
C130_3 C 0.5388(3) 0.4454(3) 1.0000
H78_3 H 0.5698 0.4608 1.0000
C131_4 C 0.5000 0.4745(3) 1.0000
N6_4 N 0.5000 0.6278(2) 1.0000
C132_3 C 0.5385(3) 0.5992(3) 1.0000
H79_3 H 0.5694 0.6149 1.0000
C133_3 C 0.5388(3) 0.5546(3) 1.0000
H80_3 H 0.5698 0.5392 1.0000
C134_4 C 0.5000 0.5255(3) 1.0000
C135_3 C 0.4615(3) 0.5992(3) 1.0000
H81_3 H 0.4306 0.6149 1.0000
C136_3 C 0.4612(3) 0.5546(3) 1.0000
H82_3 H 0.4302 0.5392 1.0000
C137_3 C 0.4615(3) 0.4008(3) 1.0000
H83_3 H 0.4306 0.3851 1.0000
C138_3 C 0.4612(3) 0.4454(3) 1.0000
H84_3 H 0.4302 0.4608 1.0000
O35_2 O 0.44767(15) 0.71093(12) 0.94890(12)
O36_2 O 0.55233(15) 0.28907(12) 0.94890(12)
N1_4 N 0.6278(2) 1.0000 0.5000
C8_3 C 0.5992(3) 1.0000 0.4615(3)
H4_3 H 0.6149 1.0000 0.4306
C9_3 C 0.5546(3) 1.0000 0.4612(3)
H5_3 H 0.5392 1.0000 0.4302
C10_4 C 0.5255(3) 1.0000 0.5000
N2_4 N 0.3722(2) 1.0000 0.5000
C31_3 C 0.4008(3) 1.0000 0.4615(3)
H18_3 H 0.3851 1.0000 0.4306
C32_3 C 0.4454(3) 1.0000 0.4612(3)
H19_3 H 0.4608 1.0000 0.4302
C33_4 C 0.4745(3) 1.0000 0.5000
C34_3 C 0.4008(3) 1.0000 0.5385(3)
H20_3 H 0.3851 1.0000 0.5694
C35_3 C 0.4454(3) 1.0000 0.5388(3)
H21_3 H 0.4608 1.0000 0.5698
C36_3 C 0.5992(3) 1.0000 0.5385(3)
H22_3 H 0.6149 1.0000 0.5694
C37_3 C 0.5546(3) 1.0000 0.5388(3)
H23_3 H 0.5392 1.0000 0.5698
O30_2 O 0.28907(12) 0.94890(12) 0.55233(15)
O32_2 O 0.71093(12) 0.94890(12) 0.44767(15)
O39_2 O 0.94890(12) 0.44767(15) 0.71093(12)
C1_2 C 0.43434(18) 0.2500 0.06566(18)
C2_2 C 0.3995(3) 0.2500 0.1005(3)
C3_2 C 0.3817(3) 0.20549(19) 0.1242(3)
H1_2 H 0.3977 0.1755 0.1181
C4_2 C 0.3410(3) 0.2062(2) 0.1559(3)
H2_2 H 0.3247 0.1769 0.1642
C5_2 C 0.32552(19) 0.2500 0.17448(19)
C6_2 C 0.2859(3) 0.2500 0.2141(3)
C7_2 C 0.2863(2) 0.2137(2) 0.2500
H3_2 H 0.3107 0.1893 0.2500
C11_2 C 0.06566(18) 0.43434(18) 0.2500
C12_2 C 0.1005(3) 0.3995(3) 0.2500
C13_2 C 0.1242(3) 0.3817(3) 0.20549(19)
H6_2 H 0.1181 0.3977 0.1755
C14_2 C 0.1559(3) 0.3410(3) 0.2062(2)
H7_2 H 0.1642 0.3247 0.1769
C15_2 C 0.17448(19) 0.32552(19) 0.2500
C16_2 C 0.2141(3) 0.2859(3) 0.2500
C17_2 C 0.2500 0.2863(2) 0.2137(2)
H8_2 H 0.2500 0.3107 0.1893
C18_2 C 0.2500 0.06566(18) 0.43434(18)
C19_2 C 0.2500 0.1005(3) 0.3995(3)
C20_2 C 0.20549(19) 0.1242(3) 0.3817(3)
H9_2 H 0.1755 0.1181 0.3977
C21_2 C 0.2062(2) 0.1559(3) 0.3410(3)
H10_2 H 0.1769 0.1642 0.3247
C22_2 C 0.2500 0.17448(19) 0.32552(19)
C23_2 C 0.2500 0.2141(3) 0.2859(3)
C24_2 C 0.2137(2) 0.2500 0.2863(2)
H11_2 H 0.1893 0.2500 0.3107
C25_2 C 0.29451(19) 0.1183(3) 0.3758(3)
H12_2 H 0.3245 0.1023 0.3819
C26_2 C 0.2938(2) 0.1590(3) 0.3441(3)
H13_2 H 0.3231 0.1753 0.3358
C27_2 C 0.3758(3) 0.29451(19) 0.1183(3)
H14_2 H 0.3819 0.3245 0.1023
C28_2 C 0.3441(3) 0.2938(2) 0.1590(3)
H15_2 H 0.3358 0.3231 0.1753
C29_2 C 0.1183(3) 0.3758(3) 0.29451(19)
H16_2 H 0.1023 0.3819 0.3245
C30_2 C 0.1590(3) 0.3441(3) 0.2938(2)
H17_2 H 0.1753 0.3358 0.3231
C92_2 C 0.56566(18) 0.2500 0.93434(18)
C93_2 C 0.6005(3) 0.2500 0.8995(3)
C94_2 C 0.6183(3) 0.20549(19) 0.8758(3)
H54_2 H 0.6023 0.1755 0.8819
C95_2 C 0.6590(3) 0.2062(2) 0.8441(3)
H55_2 H 0.6753 0.1769 0.8358
C96_2 C 0.67448(19) 0.2500 0.82552(19)
C97_2 C 0.7141(3) 0.2500 0.7859(3)
C98_2 C 0.7137(2) 0.2137(2) 0.7500
H56_2 H 0.6893 0.1893 0.7500
C99_2 C 0.93434(18) 0.43434(18) 0.7500
C100_2 C 0.8995(3) 0.3995(3) 0.7500
C101_2 C 0.8758(3) 0.3817(3) 0.79451(19)
H57_2 H 0.8819 0.3977 0.8245
C102_2 C 0.8441(3) 0.3410(3) 0.7938(2)
H58_2 H 0.8358 0.3247 0.8231
C103_2 C 0.82552(19) 0.32552(19) 0.7500
C104_2 C 0.7859(3) 0.2859(3) 0.7500
C105_2 C 0.7500 0.2863(2) 0.7863(2)
H59_2 H 0.7500 0.3107 0.8107
C106_2 C 0.7500 0.06566(18) 0.56566(18)
C107_2 C 0.7500 0.1005(3) 0.6005(3)
C108_2 C 0.79451(19) 0.1242(3) 0.6183(3)
H60_2 H 0.8245 0.1181 0.6023
C109_2 C 0.7938(2) 0.1559(3) 0.6590(3)
H61_2 H 0.8231 0.1642 0.6753
C110_2 C 0.7500 0.17448(19) 0.67448(19)
C111_2 C 0.7500 0.2141(3) 0.7141(3)
C112_2 C 0.7863(2) 0.2500 0.7137(2)
H62_2 H 0.8107 0.2500 0.6893
C113_2 C 0.70549(19) 0.1183(3) 0.6242(3)
H63_2 H 0.6755 0.1023 0.6181
C114_2 C 0.7062(2) 0.1590(3) 0.6559(3)
H64_2 H 0.6769 0.1753 0.6642
C115_2 C 0.6242(3) 0.29451(19) 0.8817(3)
H65_2 H 0.6181 0.3245 0.8977
C116_2 C 0.6559(3) 0.2938(2) 0.8410(3)
H66_2 H 0.6642 0.3231 0.8247
C117_2 C 0.8817(3) 0.3758(3) 0.70549(19)
H67_2 H 0.8977 0.3819 0.6755
C118_2 C 0.8410(3) 0.3441(3) 0.7062(2)
H68_2 H 0.8247 0.3358 0.6769
C38_2 C 0.56566(18) 0.7500 0.06566(18)
C39_2 C 0.6005(3) 0.7500 0.1005(3)
C40_2 C 0.6183(3) 0.79451(19) 0.1242(3)
H24_2 H 0.6023 0.8245 0.1181
C41_2 C 0.6590(3) 0.7938(2) 0.1559(3)
H25_2 H 0.6753 0.8231 0.1642
C42_2 C 0.67448(19) 0.7500 0.17448(19)
C43_2 C 0.7141(3) 0.7500 0.2141(3)
C44_2 C 0.7137(2) 0.7863(2) 0.2500
H26_2 H 0.6893 0.8107 0.2500
C45_2 C 0.93434(18) 0.56566(18) 0.2500
C46_2 C 0.8995(3) 0.6005(3) 0.2500
C47_2 C 0.8758(3) 0.6183(3) 0.20549(19)
H27_2 H 0.8819 0.6023 0.1755
C48_2 C 0.8441(3) 0.6590(3) 0.2062(2)
H28_2 H 0.8358 0.6753 0.1769
C49_2 C 0.82552(19) 0.67448(19) 0.2500
C50_2 C 0.7859(3) 0.7141(3) 0.2500
C51_2 C 0.7500 0.7137(2) 0.2137(2)
H29_2 H 0.7500 0.6893 0.1893
C52_2 C 0.7500 0.93434(18) 0.43434(18)
C53_2 C 0.7500 0.8995(3) 0.3995(3)
C54_2 C 0.79451(19) 0.8758(3) 0.3817(3)
H30_2 H 0.8245 0.8819 0.3977
C55_2 C 0.7938(2) 0.8441(3) 0.3410(3)
H31_2 H 0.8231 0.8358 0.3247
C56_2 C 0.7500 0.82552(19) 0.32552(19)
C57_2 C 0.7500 0.7859(3) 0.2859(3)
C58_2 C 0.7863(2) 0.7500 0.2863(2)
H32_2 H 0.8107 0.7500 0.3107
C59_2 C 0.70549(19) 0.8817(3) 0.3758(3)
H33_2 H 0.6755 0.8977 0.3819
C60_2 C 0.7062(2) 0.8410(3) 0.3441(3)
H34_2 H 0.6769 0.8247 0.3358
C61_2 C 0.6242(3) 0.70549(19) 0.1183(3)
H35_2 H 0.6181 0.6755 0.1023
C62_2 C 0.6559(3) 0.7062(2) 0.1590(3)
H36_2 H 0.6642 0.6769 0.1753
C63_2 C 0.8817(3) 0.6242(3) 0.29451(19)
H37_2 H 0.8977 0.6181 0.3245
C64_2 C 0.8410(3) 0.6559(3) 0.2938(2)
H38_2 H 0.8247 0.6642 0.3231
C65_2 C 0.43434(18) 0.7500 0.93434(18)
C66_2 C 0.3995(3) 0.7500 0.8995(3)
C67_2 C 0.3817(3) 0.79451(19) 0.8758(3)
H39_2 H 0.3977 0.8245 0.8819
C68_2 C 0.3410(3) 0.7938(2) 0.8441(3)
H40_2 H 0.3247 0.8231 0.8358
C69_2 C 0.32552(19) 0.7500 0.82552(19)
C70_2 C 0.2859(3) 0.7500 0.7859(3)
C71_2 C 0.2863(2) 0.7863(2) 0.7500
H41_2 H 0.3107 0.8107 0.7500
C72_2 C 0.06566(18) 0.56566(18) 0.7500
C73_2 C 0.1005(3) 0.6005(3) 0.7500
C74_2 C 0.1242(3) 0.6183(3) 0.79451(19)
H42_2 H 0.1181 0.6023 0.8245
C75_2 C 0.1559(3) 0.6590(3) 0.7938(2)
H43_2 H 0.1642 0.6753 0.8231
C76_2 C 0.17448(19) 0.67448(19) 0.7500
C77_2 C 0.2141(3) 0.7141(3) 0.7500
C78_2 C 0.2500 0.7137(2) 0.7863(2)
H44_2 H 0.2500 0.6893 0.8107
C79_2 C 0.2500 0.93434(18) 0.56566(18)
C80_2 C 0.2500 0.8995(3) 0.6005(3)
C81_2 C 0.20549(19) 0.8758(3) 0.6183(3)
H45_2 H 0.1755 0.8819 0.6023
C82_2 C 0.2062(2) 0.8441(3) 0.6590(3)
H46_2 H 0.1769 0.8358 0.6753
C83_2 C 0.2500 0.82552(19) 0.67448(19)
C84_2 C 0.2500 0.7859(3) 0.7141(3)
C85_2 C 0.2137(2) 0.7500 0.7137(2)
H47_2 H 0.1893 0.7500 0.6893
C86_2 C 0.29451(19) 0.8817(3) 0.6242(3)
H48_2 H 0.3245 0.8977 0.6181
C87_2 C 0.2938(2) 0.8410(3) 0.6559(3)
H49_2 H 0.3231 0.8247 0.6642
C88_2 C 0.3758(3) 0.70549(19) 0.8817(3)
H50_2 H 0.3819 0.6755 0.8977
C89_2 C 0.3441(3) 0.7062(2) 0.8410(3)
H51_2 H 0.3358 0.6769 0.8247
C90_2 C 0.1183(3) 0.6242(3) 0.70549(19)
H52_2 H 0.1023 0.6181 0.6755
C91_2 C 0.1590(3) 0.6559(3) 0.7062(2)
H53_2 H 0.1753 0.6642 0.6769
loop_
_geom_bond_atom_site_label_1
_geom_bond_atom_site_label_2
_geom_bond_site_symmetry_1
_geom_bond_site_symmetry_2
O28 Co6 1_555 1_555
O34 Co6 1_555 1_555
N7 Co6 1_555 1_555
Co6 Co13 1_555 1_555
C135 N6 1_555 1_555
H81 C135 1_555 1_555
C136 C134 1_555 1_555
H82 C136 1_555 1_555
Co5 N6 1_555 1_555
Co11 Co5 1_555 1_555
O25 Co5 1_555 1_555
O35 Co5 1_555 1_555
C135 C136 1_555 1_555
C125 N7 1_555 1_555
H73 C125 1_555 1_555
C126 C124 1_555 1_555
H74 C126 1_555 1_555
C125 C126 1_555 1_555
N3 Co3 1_555 1_555
C127 N3 1_555 1_555
H75 C127 1_555 1_555
C128 C121 1_555 1_555
H76 C128 1_555 1_555
N6_2 C132 1_555 1_555
C132 H79 1_555 1_555
C133 C132 1_555 1_555
H80 C133 1_555 1_555
Co5_2 N6_2 1_555 1_555
Co11_2 Co5_2 1_555 1_555
O26 Co5_2 1_555 1_555
O27 Co3 1_555 1_555
O37 Co3 1_555 1_555
O41 Co5_2 1_555 1_555
Co3 Co15 1_555 1_555
C127 C128 1_555 1_555
C133 C134_2 1_555 1_555
C34 N2 1_555 1_555
H20 C34 1_555 1_555
C35 C33 1_555 1_555
H21 C35 1_555 1_555
Co2 N2 1_555 1_555
O13 Co2 1_555 1_555
C65 O13 1_555 1_555
C66 C65 1_555 1_555
C67 C66 1_555 1_555
H39 C67 1_555 1_555
C68 C67 1_555 1_555
H40 C68 1_555 1_555
C69 C68 1_555 1_555
C70 C69 1_555 1_555
C71 C70 1_555 1_555
H41 C71 1_555 1_555
O14 C72 1_555 1_555
C72 C73 1_555 1_555
C73 C74 1_555 1_555
C74 H42 1_555 1_555
C75 C74 1_555 1_555
H43 C75 1_555 1_555
C76 C75 1_555 1_555
C77 C76 1_555 1_555
C78 C70 1_555 1_555
H44 C78 1_555 1_555
O15 C79 1_555 1_555
C79 C80 1_555 1_555
C80 C81 1_555 1_555
C81 H45 1_555 1_555
C82 C81 1_555 1_555
H46 C82 1_555 1_555
C83 C82 1_555 1_555
C84 C71 1_555 1_555
C85 C77 1_555 1_555
H47 C85 1_555 1_555
O16 C79 1_555 1_555
C86 C80 1_555 1_555
H48 C86 1_555 1_555
C87 C83 1_555 1_555
H49 C87 1_555 1_555
O17 C65 1_555 1_555
C88 C66 1_555 1_555
H50 C88 1_555 1_555
C89 C69 1_555 1_555
H51 C89 1_555 1_555
O18 C72 1_555 1_555
C90 C73 1_555 1_555
H52 C90 1_555 1_555
C91 C76 1_555 1_555
H53 C91 1_555 1_555
Co6_2 O14 1_555 1_555
Co8 O16 1_555 1_555
Co13_2 O18 1_555 1_555
Co16 Co2 1_555 1_555
Co18 O15 1_555 1_555
O30 Co2 1_555 1_555
O39 Co6_2 1_555 1_555
N7_2 Co6_2 1_555 1_555
C34 C35 1_555 1_555
C77 C78 1_555 1_555
C83 C84 1_555 1_555
C84 C85 1_555 1_555
C86 C87 1_555 1_555
O17 Co16 1_555 1_555
C88 C89 1_555 1_555
C90 C91 1_555 1_555
Co6_2 Co13_2 1_555 1_555
Co8 Co18 1_555 1_555
N2_2 C31 1_555 1_555
C31 H18 1_555 1_555
C32 C31 1_555 1_555
H19 C32 1_555 1_555
Co2_2 N2_2 1_555 1_555
O7 Co2_2 1_555 1_555
C38 O7 1_555 1_555
C39 C38 1_555 1_555
C40 C39 1_555 1_555
H24 C40 1_555 1_555
C41 C40 1_555 1_555
H25 C41 1_555 1_555
C42 C41 1_555 1_555
C43 C42 1_555 1_555
C44 C43 1_555 1_555
H26 C44 1_555 1_555
O27 C45 1_555 1_555
C45 C46 1_555 1_555
C46 C47 1_555 1_555
C47 H27 1_555 1_555
C48 C47 1_555 1_555
H28 C48 1_555 1_555
C49 C48 1_555 1_555
C50 C49 1_555 1_555
C51 C43 1_555 1_555
H29 C51 1_555 1_555
O25 C52 1_555 1_555
C52 C53 1_555 1_555
C53 C54 1_555 1_555
C54 H30 1_555 1_555
C55 C54 1_555 1_555
H31 C55 1_555 1_555
C56 C55 1_555 1_555
C57 C44 1_555 1_555
C58 C50 1_555 1_555
H32 C58 1_555 1_555
O10 C52 1_555 1_555
C59 C53 1_555 1_555
H33 C59 1_555 1_555
C60 C56 1_555 1_555
H34 C60 1_555 1_555
O11 C38 1_555 1_555
C61 C39 1_555 1_555
H35 C61 1_555 1_555
C62 C42 1_555 1_555
H36 C62 1_555 1_555
O12 C45 1_555 1_555
C63 C46 1_555 1_555
H37 C63 1_555 1_555
C64 C49 1_555 1_555
H38 C64 1_555 1_555
N5 Co18 1_555 1_555
C137 N5 1_555 1_555
H83 C137 1_555 1_555
C138 C131 1_555 1_555
H84 C138 1_555 1_555
Co11 O10 1_555 1_555
Co15 O12 1_555 1_555
Co16_2 Co2_2 1_555 1_555
O33 Co2_2 1_555 1_555
O38 Co18 1_555 1_555
C32 C33_2 1_555 1_555
C50 C51 1_555 1_555
C56 C57 1_555 1_555
C57 C58 1_555 1_555
C59 C60 1_555 1_555
O11 Co16_2 1_555 1_555
C61 C62 1_555 1_555
C63 C64 1_555 1_555
C137 C138 1_555 1_555
N1 Co1 1_555 1_555
C36 N1 1_555 1_555
H22 C36 1_555 1_555
C37 C10 1_555 1_555
H23 C37 1_555 1_555
O19 Co1 1_555 1_555
C92 O19 1_555 1_555
C93 C92 1_555 1_555
C94 C93 1_555 1_555
H54 C94 1_555 1_555
C95 C94 1_555 1_555
H55 C95 1_555 1_555
C96 C95 1_555 1_555
C97 C96 1_555 1_555
C98 C97 1_555 1_555
H56 C98 1_555 1_555
O28 C99 1_555 1_555
C99 C100 1_555 1_555
C100 C101 1_555 1_555
C101 H57 1_555 1_555
C102 C101 1_555 1_555
H58 C102 1_555 1_555
C103 C102 1_555 1_555
C104 C103 1_555 1_555
C105 C97 1_555 1_555
H59 C105 1_555 1_555
O26 C106 1_555 1_555
C106 C107 1_555 1_555
C107 C108 1_555 1_555
C108 H60 1_555 1_555
C109 C108 1_555 1_555
H61 C109 1_555 1_555
C110 C109 1_555 1_555
C111 C98 1_555 1_555
C112 C104 1_555 1_555
H62 C112 1_555 1_555
O22 C106 1_555 1_555
C113 C107 1_555 1_555
H63 C113 1_555 1_555
C114 C110 1_555 1_555
H64 C114 1_555 1_555
O23 C92 1_555 1_555
C115 C93 1_555 1_555
H65 C115 1_555 1_555
C116 C96 1_555 1_555
H66 C116 1_555 1_555
O24 C99 1_555 1_555
C117 C100 1_555 1_555
H67 C117 1_555 1_555
C118 C103 1_555 1_555
H68 C118 1_555 1_555
N7_2 C122 1_555 1_555
C122 H71 1_555 1_555
C123 C122 1_555 1_555
H72 C123 1_555 1_555
Co11_2 O22 1_555 1_555
Co13 O24 1_555 1_555
Co23 Co1 1_555 1_555
O31 Co1 1_555 1_555
C36 C37 1_555 1_555
C104 C105 1_555 1_555
C110 C111 1_555 1_555
C111 C112 1_555 1_555
C113 C114 1_555 1_555
O23 Co23 1_555 1_555
C115 C116 1_555 1_555
C117 C118 1_555 1_555
C123 C124_2 1_555 1_555
Co8_2 Co18_2 1_555 1_555
Co1_2 O1 1_555 1_555
O1 C1 1_555 1_555
N1_2 Co1_2 1_555 1_555
C1 C2 1_555 1_555
C2 C3 1_555 1_555
C3 H1 1_555 1_555
C4 C3 1_555 1_555
H2 C4 1_555 1_555
C5 C4 1_555 1_555
C6 C5 1_555 1_555
C7 C6 1_555 1_555
H3 C7 1_555 1_555
C8 N1_2 1_555 1_555
H4 C8 1_555 1_555
C9 C8 1_555 1_555
H5 C9 1_555 1_555
C10_2 C9 1_555 1_555
O2 C11 1_555 1_555
C11 C12 1_555 1_555
C12 C13 1_555 1_555
C13 H6 1_555 1_555
C14 C13 1_555 1_555
H7 C14 1_555 1_555
C15 C14 1_555 1_555
C16 C15 1_555 1_555
C17 C6 1_555 1_555
H8 C17 1_555 1_555
O3 C18 1_555 1_555
C18 C19 1_555 1_555
C19 C20 1_555 1_555
C20 H9 1_555 1_555
C21 C20 1_555 1_555
H10 C21 1_555 1_555
C22 C21 1_555 1_555
C23 C7 1_555 1_555
C24 C16 1_555 1_555
H11 C24 1_555 1_555
O4 C18 1_555 1_555
C25 C19 1_555 1_555
H12 C25 1_555 1_555
C26 C22 1_555 1_555
H13 C26 1_555 1_555
O5 C1 1_555 1_555
C27 C2 1_555 1_555
H14 C27 1_555 1_555
C28 C5 1_555 1_555
H15 C28 1_555 1_555
O6 C11 1_555 1_555
C29 C12 1_555 1_555
H16 C29 1_555 1_555
C30 C15 1_555 1_555
H17 C30 1_555 1_555
Co3_2 O2 1_555 1_555
N3_2 Co3_2 1_555 1_555
C119 N3_2 1_555 1_555
H69 C119 1_555 1_555
C120 C119 1_555 1_555
H70 C120 1_555 1_555
C121_2 C120 1_555 1_555
Co18_2 O3 1_555 1_555
N5_2 Co18_2 1_555 1_555
C129 N5_2 1_555 1_555
H77 C129 1_555 1_555
C130 C129 1_555 1_555
H78 C130 1_555 1_555
C131_2 C130 1_555 1_555
Co8_2 O4 1_555 1_555
Co15_2 O6 1_555 1_555
Co23_2 Co1_2 1_555 1_555
O32 Co1_2 1_555 1_555
O36 Co18_2 1_555 1_555
O40 Co3_2 1_555 1_555
C16 C17 1_555 1_555
C22 C23 1_555 1_555
C23 C24 1_555 1_555
C25 C26 1_555 1_555
O5 Co23_2 1_555 1_555
C27 C28 1_555 1_555
C29 C30 1_555 1_555
Co3_2 Co15_2 1_555 1_555
N3_3 Co13 1_555 1_555
C119_2 N3_3 1_555 1_555
H69_2 C119_2 1_555 1_555
C120_2 C119_2 1_555 1_555
H70_2 C120_2 1_555 1_555
C121_3 C120_2 1_555 1_555
N4 C122_2 1_555 1_555
C122_2 H71_2 1_555 1_555
C123_2 C122_2 1_555 1_555
H72_2 C123_2 1_555 1_555
C124_3 C121_3 1_555 1_555
C125_2 N4 1_555 1_555
H73_2 C125_2 1_555 1_555
C126_2 C124_3 1_555 1_555
H74_2 C126_2 1_555 1_555
C127_2 N3_3 1_555 1_555
H75_2 C127_2 1_555 1_555
C128_2 C121_3 1_555 1_555
H76_2 C128_2 1_555 1_555
Co15 N4 1_555 1_555
O40_2 Co13 1_555 1_555
C123_2 C124_3 1_555 1_555
C125_2 C126_2 1_555 1_555
C127_2 C128_2 1_555 1_555
N1_3 Co8 1_555 1_555
C8_2 N1_3 1_555 1_555
H4_2 C8_2 1_555 1_555
C9_2 C8_2 1_555 1_555
H5_2 C9_2 1_555 1_555
C10_3 C9_2 1_555 1_555
N2_3 C31_2 1_555 1_555
C31_2 H18_2 1_555 1_555
C32_2 C31_2 1_555 1_555
H19_2 C32_2 1_555 1_555
C33_3 C10_3 1_555 1_555
C34_2 N2_3 1_555 1_555
H20_2 C34_2 1_555 1_555
C35_2 C33_3 1_555 1_555
H21_2 C35_2 1_555 1_555
C36_2 N1_3 1_555 1_555
H22_2 C36_2 1_555 1_555
C37_2 C10_3 1_555 1_555
H23_2 C37_2 1_555 1_555
Co11 N2_3 1_555 1_555
N3_4 Co13_2 1_555 1_555
C119_3 N3_4 1_555 1_555
H69_3 C119_3 1_555 1_555
C120_3 C119_3 1_555 1_555
H70_3 C120_3 1_555 1_555
C121_4 C120_3 1_555 1_555
N4_2 C122_3 1_555 1_555
C122_3 H71_3 1_555 1_555
C123_3 C122_3 1_555 1_555
H72_3 C123_3 1_555 1_555
C124_4 C121_4 1_555 1_555
C125_3 N4_2 1_555 1_555
H73_3 C125_3 1_555 1_555
C126_3 C124_4 1_555 1_555
H74_3 C126_3 1_555 1_555
C127_3 N3_4 1_555 1_555
H75_3 C127_3 1_555 1_555
C128_3 C121_4 1_555 1_555
H76_3 C128_3 1_555 1_555
N5_3 Co16 1_555 1_555
C129_2 N5_3 1_555 1_555
H77_2 C129_2 1_555 1_555
C130_2 C129_2 1_555 1_555
H78_2 C130_2 1_555 1_555
C131_3 C130_2 1_555 1_555
N6_3 C132_2 1_555 1_555
C132_2 H79_2 1_555 1_555
C133_2 C132_2 1_555 1_555
H80_2 C133_2 1_555 1_555
C134_3 C131_3 1_555 1_555
C135_2 N6_3 1_555 1_555
H81_2 C135_2 1_555 1_555
C136_2 C134_3 1_555 1_555
H82_2 C136_2 1_555 1_555
C137_2 N5_3 1_555 1_555
H83_2 C137_2 1_555 1_555
C138_2 C131_3 1_555 1_555
H84_2 C138_2 1_555 1_555
Co23 N6_3 1_555 1_555
Co15_2 N4_2 1_555 1_555
O31_2 Co8 1_555 1_555
O33_2 Co11 1_555 1_555
O34_2 Co15 1_555 1_555
O37_2 Co13_2 1_555 1_555
O38_2 Co16 1_555 1_555
O41_2 Co23 1_555 1_555
C32_2 C33_3 1_555 1_555
C34_2 C35_2 1_555 1_555
C36_2 C37_2 1_555 1_555
C123_3 C124_4 1_555 1_555
C125_3 C126_3 1_555 1_555
C127_3 C128_3 1_555 1_555
C133_2 C134_3 1_555 1_555
C135_2 C136_2 1_555 1_555
C137_2 C138_2 1_555 1_555
N5_4 Co16_2 1_555 1_555
C129_3 N5_4 1_555 1_555
H77_3 C129_3 1_555 1_555
C130_3 C129_3 1_555 1_555
H78_3 C130_3 1_555 1_555
C131_4 C130_3 1_555 1_555
N6_4 C132_3 1_555 1_555
C132_3 H79_3 1_555 1_555
C133_3 C132_3 1_555 1_555
H80_3 C133_3 1_555 1_555
C134_4 C131_4 1_555 1_555
C135_3 N6_4 1_555 1_555
H81_3 C135_3 1_555 1_555
C136_3 C134_4 1_555 1_555
H82_3 C136_3 1_555 1_555
C137_3 N5_4 1_555 1_555
H83_3 C137_3 1_555 1_555
C138_3 C131_4 1_555 1_555
H84_3 C138_3 1_555 1_555
Co23_2 N6_4 1_555 1_555
O35_2 Co23_2 1_555 1_555
O36_2 Co16_2 1_555 1_555
C133_3 C134_4 1_555 1_555
C135_3 C136_3 1_555 1_555
C137_3 C138_3 1_555 1_555
N1_4 Co8_2 1_555 1_555
C8_3 N1_4 1_555 1_555
H4_3 C8_3 1_555 1_555
C9_3 C8_3 1_555 1_555
H5_3 C9_3 1_555 1_555
C10_4 C9_3 1_555 1_555
N2_4 C31_3 1_555 1_555
C31_3 H18_3 1_555 1_555
C32_3 C31_3 1_555 1_555
H19_3 C32_3 1_555 1_555
C33_4 C10_4 1_555 1_555
C34_3 N2_4 1_555 1_555
H20_3 C34_3 1_555 1_555
C35_3 C33_4 1_555 1_555
H21_3 C35_3 1_555 1_555
C36_3 N1_4 1_555 1_555
H22_3 C36_3 1_555 1_555
C37_3 C10_4 1_555 1_555
H23_3 C37_3 1_555 1_555
Co11_2 N2_4 1_555 1_555
O30_2 Co11_2 1_555 1_555
O32_2 Co8_2 1_555 1_555
C32_3 C33_4 1_555 1_555
C34_3 C35_3 1_555 1_555
C36_3 C37_3 1_555 1_555
O39_2 Co15_2 1_555 1_555
O30 C1_2 1_555 1_555
C1_2 C2_2 1_555 1_555
C2_2 C3_2 1_555 1_555
C3_2 H1_2 1_555 1_555
C4_2 C3_2 1_555 1_555
H2_2 C4_2 1_555 1_555
C5_2 C4_2 1_555 1_555
C6_2 C5_2 1_555 1_555
C7_2 C6_2 1_555 1_555
H3_2 C7_2 1_555 1_555
O34 C11_2 1_555 1_555
C11_2 C12_2 1_555 1_555
C12_2 C13_2 1_555 1_555
C13_2 H6_2 1_555 1_555
C14_2 C13_2 1_555 1_555
H7_2 C14_2 1_555 1_555
C15_2 C14_2 1_555 1_555
C16_2 C15_2 1_555 1_555
C17_2 C6_2 1_555 1_555
H8_2 C17_2 1_555 1_555
O35 C18_2 1_555 1_555
C18_2 C19_2 1_555 1_555
C19_2 C20_2 1_555 1_555
C20_2 H9_2 1_555 1_555
C21_2 C20_2 1_555 1_555
H10_2 C21_2 1_555 1_555
C22_2 C21_2 1_555 1_555
C23_2 C7_2 1_555 1_555
C24_2 C16_2 1_555 1_555
H11_2 C24_2 1_555 1_555
O33_2 C18_2 1_555 1_555
C25_2 C19_2 1_555 1_555
H12_2 C25_2 1_555 1_555
C26_2 C22_2 1_555 1_555
H13_2 C26_2 1_555 1_555
O38_2 C1_2 1_555 1_555
C27_2 C2_2 1_555 1_555
H14_2 C27_2 1_555 1_555
C28_2 C5_2 1_555 1_555
H15_2 C28_2 1_555 1_555
O40_2 C11_2 1_555 1_555
C29_2 C12_2 1_555 1_555
H16_2 C29_2 1_555 1_555
C30_2 C15_2 1_555 1_555
H17_2 C30_2 1_555 1_555
C16_2 C17_2 1_555 1_555
C22_2 C23_2 1_555 1_555
C23_2 C24_2 1_555 1_555
C25_2 C26_2 1_555 1_555
C27_2 C28_2 1_555 1_555
C29_2 C30_2 1_555 1_555
C92_2 O33 1_555 1_555
C93_2 C92_2 1_555 1_555
C94_2 C93_2 1_555 1_555
H54_2 C94_2 1_555 1_555
C95_2 C94_2 1_555 1_555
H55_2 C95_2 1_555 1_555
C96_2 C95_2 1_555 1_555
C97_2 C96_2 1_555 1_555
C98_2 C97_2 1_555 1_555
H56_2 C98_2 1_555 1_555
O40 C99_2 1_555 1_555
C99_2 C100_2 1_555 1_555
C100_2 C101_2 1_555 1_555
C101_2 H57_2 1_555 1_555
C102_2 C101_2 1_555 1_555
H58_2 C102_2 1_555 1_555
C103_2 C102_2 1_555 1_555
C104_2 C103_2 1_555 1_555
C105_2 C97_2 1_555 1_555
H59_2 C105_2 1_555 1_555
O38 C106_2 1_555 1_555
C106_2 C107_2 1_555 1_555
C107_2 C108_2 1_555 1_555
C108_2 H60_2 1_555 1_555
C109_2 C108_2 1_555 1_555
H61_2 C109_2 1_555 1_555
C110_2 C109_2 1_555 1_555
C111_2 C98_2 1_555 1_555
C112_2 C104_2 1_555 1_555
H62_2 C112_2 1_555 1_555
O31_2 C106_2 1_555 1_555
C113_2 C107_2 1_555 1_555
H63_2 C113_2 1_555 1_555
C114_2 C110_2 1_555 1_555
H64_2 C114_2 1_555 1_555
O36_2 C92_2 1_555 1_555
C115_2 C93_2 1_555 1_555
H65_2 C115_2 1_555 1_555
C116_2 C96_2 1_555 1_555
H66_2 C116_2 1_555 1_555
O39_2 C99_2 1_555 1_555
C117_2 C100_2 1_555 1_555
H67_2 C117_2 1_555 1_555
C118_2 C103_2 1_555 1_555
H68_2 C118_2 1_555 1_555
C104_2 C105_2 1_555 1_555
C110_2 C111_2 1_555 1_555
C111_2 C112_2 1_555 1_555
C113_2 C114_2 1_555 1_555
C115_2 C116_2 1_555 1_555
C117_2 C118_2 1_555 1_555
C38_2 O31 1_555 1_555
C39_2 C38_2 1_555 1_555
C40_2 C39_2 1_555 1_555
H24_2 C40_2 1_555 1_555
C41_2 C40_2 1_555 1_555
H25_2 C41_2 1_555 1_555
C42_2 C41_2 1_555 1_555
C43_2 C42_2 1_555 1_555
C44_2 C43_2 1_555 1_555
H26_2 C44_2 1_555 1_555
O39 C45_2 1_555 1_555
C45_2 C46_2 1_555 1_555
C46_2 C47_2 1_555 1_555
C47_2 H27_2 1_555 1_555
C48_2 C47_2 1_555 1_555
H28_2 C48_2 1_555 1_555
C49_2 C48_2 1_555 1_555
C50_2 C49_2 1_555 1_555
C51_2 C43_2 1_555 1_555
H29_2 C51_2 1_555 1_555
O36 C52_2 1_555 1_555
C52_2 C53_2 1_555 1_555
C53_2 C54_2 1_555 1_555
C54_2 H30_2 1_555 1_555
C55_2 C54_2 1_555 1_555
H31_2 C55_2 1_555 1_555
C56_2 C55_2 1_555 1_555
C57_2 C44_2 1_555 1_555
C58_2 C50_2 1_555 1_555
H32_2 C58_2 1_555 1_555
O32_2 C52_2 1_555 1_555
C59_2 C53_2 1_555 1_555
H33_2 C59_2 1_555 1_555
C60_2 C56_2 1_555 1_555
H34_2 C60_2 1_555 1_555
O41_2 C38_2 1_555 1_555
C61_2 C39_2 1_555 1_555
H35_2 C61_2 1_555 1_555
C62_2 C42_2 1_555 1_555
H36_2 C62_2 1_555 1_555
O37_2 C45_2 1_555 1_555
C63_2 C46_2 1_555 1_555
H37_2 C63_2 1_555 1_555
C64_2 C49_2 1_555 1_555
H38_2 C64_2 1_555 1_555
C50_2 C51_2 1_555 1_555
C56_2 C57_2 1_555 1_555
C57_2 C58_2 1_555 1_555
C59_2 C60_2 1_555 1_555
C61_2 C62_2 1_555 1_555
C63_2 C64_2 1_555 1_555
C65_2 O32 1_555 1_555
C66_2 C65_2 1_555 1_555
C67_2 C66_2 1_555 1_555
H39_2 C67_2 1_555 1_555
C68_2 C67_2 1_555 1_555
H40_2 C68_2 1_555 1_555
C69_2 C68_2 1_555 1_555
C70_2 C69_2 1_555 1_555
C71_2 C70_2 1_555 1_555
H41_2 C71_2 1_555 1_555
O37 C72_2 1_555 1_555
C72_2 C73_2 1_555 1_555
C73_2 C74_2 1_555 1_555
C74_2 H42_2 1_555 1_555
C75_2 C74_2 1_555 1_555
H43_2 C75_2 1_555 1_555
C76_2 C75_2 1_555 1_555
C77_2 C76_2 1_555 1_555
C78_2 C70_2 1_555 1_555
H44_2 C78_2 1_555 1_555
O41 C79_2 1_555 1_555
C79_2 C80_2 1_555 1_555
C80_2 C81_2 1_555 1_555
C81_2 H45_2 1_555 1_555
C82_2 C81_2 1_555 1_555
H46_2 C82_2 1_555 1_555
C83_2 C82_2 1_555 1_555
C84_2 C71_2 1_555 1_555
C85_2 C77_2 1_555 1_555
H47_2 C85_2 1_555 1_555
O30_2 C79_2 1_555 1_555
C86_2 C80_2 1_555 1_555
H48_2 C86_2 1_555 1_555
C87_2 C83_2 1_555 1_555
H49_2 C87_2 1_555 1_555
O35_2 C65_2 1_555 1_555
C88_2 C66_2 1_555 1_555
H50_2 C88_2 1_555 1_555
C89_2 C69_2 1_555 1_555
H51_2 C89_2 1_555 1_555
O34_2 C72_2 1_555 1_555
C90_2 C73_2 1_555 1_555
H52_2 C90_2 1_555 1_555
C91_2 C76_2 1_555 1_555
H53_2 C91_2 1_555 1_555
C77_2 C78_2 1_555 1_555
C83_2 C84_2 1_555 1_555
C84_2 C85_2 1_555 1_555
C86_2 C87_2 1_555 1_555
C88_2 C89_2 1_555 1_555
C90_2 C91_2 1_555 1_555

#END
