
###############################################################################
#
# This file contains modified crystal structure data generated from the
# MOF subset of the Cambridge Structural Database (CSD) v543 
# hosted by the Cambridge Crystallographic Data Centre (CCDC).
#
# This work is licensed under the Creative Commons
# Attribution-NonCommercial-ShareAlike 4.0 International License.
# To view a copy of this license, visit
# http://creativecommons.org/licenses/by-nc-sa/4.0/
# or send a letter to
# Creative Commons, PO Box 1866, Mountain View, CA 94042, USA.
#
# CIF created using the CSD Python API on 29 September 2022
# The structure has been converted into the P1 space group
# The structure has a 3D framework
# The original CSD entry PAWWUJ is in the orthorhombic crystal system
# The original CSD entry PAWWUJ is in a Sohncke space group
# The framework has been calculated to contain at least 10.0% void space
# The void calculation uses a probe of radius 1.32A, grid spacing 0.4
# H atom positions have been added when not included in the experimental data
#
###############################################################################

data_PAWWUJ
_chemical_formula_moiety         '(C144 H232 Na4 O124)n'
_symmetry_cell_setting           triclinic
_symmetry_space_group_name_H-M   'P 1'
_symmetry_Int_Tables_number      1
_space_group_name_Hall           'P 1'
loop_
_symmetry_equiv_pos_site_id
_symmetry_equiv_pos_as_xyz
1 x,y,z
_cell_length_a                   11.57090(10)
_cell_length_b                   15.97420(10)
_cell_length_c                   26.59540(10)
_cell_angle_alpha                90
_cell_angle_beta                 90
_cell_angle_gamma                90
_cell_volume                     4915.78
loop_
_atom_site_label
_atom_site_type_symbol
_atom_site_fract_x
_atom_site_fract_y
_atom_site_fract_z
Na3 Na 0.32038(14) 0.02803(10) 0.16028(7)
O1 O 0.6003(2) 0.75448(15) 0.21355(9)
O2 O 0.2056(3) 0.50078(15) 0.17872(9)
O7 O 0.4067(2) 0.71976(14) 0.19850(9)
O8 O 0.6109(2) 0.79919(15) 0.07806(9)
O9 O 0.1504(2) 0.30634(14) 0.10966(9)
O10 O 0.1823(2) 0.38411(14) 0.03625(8)
O11 O 0.1753(2) 0.75149(15) 0.22082(10)
H2 H 0.1193 0.7602 0.2027
O13 O 0.3169(2) 0.51639(14) 0.24941(9)
O15 O 0.8260(2) 0.78092(17) 0.18771(10)
H5 H 0.8897 0.7842 0.1744
O16 O 0.7804(2) 0.75678(18) 0.03866(10)
O17 O 0.0294(2) 0.6022(2) 0.22555(11)
H6 H 0.0241 0.5897 0.1957
O20 O 0.1695(3) 0.2725(2) 0.21087(11)
H8 H 0.1965 0.2451 0.2341
O21 O 0.4710(3) 0.93387(17) 0.11660(11)
O23 O 0.5783(3) 0.92519(16) 0.01406(10)
O25 O 0.3460(2) 0.88970(17) 0.20345(10)
O26 O 0.5104(2) 0.5868(2) 0.30225(12)
C1 C 0.4832(3) 0.7780(2) 0.22028(12)
H12 H 0.4667 0.7829 0.2563
C3 C 0.3916(3) 0.5771(2) 0.22581(13)
H14 H 0.3982 0.5631 0.1900
C7 C 0.2034(3) 0.5167(2) 0.23123(12)
H19 H 0.1584 0.4732 0.2483
C8 C 0.6331(3) 0.7418(2) 0.16199(12)
H20 H 0.5886 0.6948 0.1484
C9 C 0.4613(3) 0.8615(2) 0.19494(13)
H21 H 0.5148 0.9029 0.2091
C10 C 0.0995(3) 0.3429(2) 0.06620(12)
H22 H 0.0611 0.2994 0.0463
C12 C 0.3422(3) 0.6650(2) 0.23033(12)
H24 H 0.3475 0.6841 0.2653
C13 C 0.1344(3) 0.43613(19) 0.15829(13)
H25 H 0.0790 0.4165 0.1835
C14 C 0.6081(3) 0.8201(2) 0.13024(12)
H26 H 0.6650 0.8638 0.1376
C15 C 0.0114(3) 0.4079(2) 0.08238(12)
C16 C 0.5092(3) 0.5675(2) 0.24982(16)
H28 H 0.5353 0.5103 0.2452
H29 H 0.5634 0.6039 0.2327
C18 C 0.2603(4) 0.3140(2) 0.18504(15)
H31 H 0.3148 0.2730 0.1724
H32 H 0.3010 0.3506 0.2081
C21 C 0.1470(3) 0.6022(2) 0.23992(12)
H35 H 0.1507 0.6144 0.2760
C23 C 0.2169(3) 0.6695(2) 0.21246(12)
H37 H 0.2147 0.6578 0.1763
C24 C 0.7596(3) 0.7176(2) 0.16342(14)
H38 H 0.7684 0.6651 0.1813
H39 H 0.7878 0.7098 0.1294
C26 C 0.0712(4) 0.4750(2) 0.11399(13)
H41 H 0.1282 0.5035 0.0927
O28 O 0.5057(4) 0.2805(4) 0.04669(18)
H42 H 0.5103 0.2913 0.0768
C27 C 0.8035(4) 0.6148(3) 0.01154(17)
H44 H 0.8812 0.6352 0.0053
C28 C 0.3882(4) 0.2710(4) 0.03317(19)
H45 H 0.3391 0.2302 0.0461
C30 C 0.7051(3) 0.8247(2) 0.04874(13)
H47 H 0.7477 0.8684 0.0667
H48 H 0.3865 0.3904 0.0040
C32 C 0.7217(3) 0.6884(2) 0.01433(14)
H49 H 0.6540 0.6726 0.0344
C34 C 0.4855(3) 0.8534(2) 0.13910(12)
H52 H 0.4297 0.8143 0.1243
C36 C 0.2126(3) 0.3648(2) 0.14175(12)
H54 H 0.2774 0.3882 0.1227
O31 O 0.8035(8) 0.5665(5) 0.0561(2)
H57 H 0.8026 0.5166 0.0489
Na2 Na 0.67962(14) 0.52803(10) 0.33972(7)
H58 H 0.363287 0.313303 0.0633952
O3 O 0.4066(2) 0.44487(14) 0.91709(9)
O4 O 0.5272(2) 0.70636(14) 0.84711(9)
H1 H 0.5742 0.7282 0.8281
O5 O 0.6164(2) 0.65410(14) 0.93891(9)
O6 O 0.6951(2) 0.53626(14) 0.90139(9)
O14 O 0.5702(3) 0.82429(16) 0.92056(10)
H4 H 0.5591 0.7853 0.9011
O18 O 0.3998(2) 0.30843(15) 0.94739(10)
O19 O 0.3681(2) 0.55799(17) 0.84061(11)
H7 H 0.3372 0.6032 0.8349
O22 O 0.0611(2) 0.38867(19) 0.94083(11)
H9 H 0.0294 0.4232 0.9590
H10 H 0.5772 0.9618 0.9925
O24 O 0.2124(3) 0.41467(19) 0.85658(10)
H11 H 0.2521 0.4572 0.8566
C2 C 0.6819(3) 0.7181(2) 0.96280(13)
H13 H 0.7486 0.7334 0.9420
C4 C 0.6571(3) 0.6196(2) 0.89360(12)
H15 H 0.7218 0.6533 0.8811
C5 C 0.6003(3) 0.7926(2) 0.96825(12)
H17 H 0.5299 0.7740 0.9854
C6 C 0.6073(3) 0.4845(2) 0.92425(13)
H18 H 0.5848 0.5095 0.9564
C11 C 0.4599(3) 0.5694(2) 0.87584(13)
H23 H 0.4288 0.5964 0.9060
C17 C 0.5010(3) 0.4812(2) 0.88987(13)
H30 H 0.5178 0.4485 0.8595
C19 C 0.1831(3) 0.3942(2) 0.94692(13)
H33 H 0.2040 0.4529 0.9528
C20 C 0.3719(3) 0.3620(2) 0.90693(13)
H34 H 0.4101 0.3421 0.8763
C22 C 0.2415(3) 0.3645(2) 0.89872(13)
H36 H 0.2153 0.3072 0.8919
C25 C 0.2228(3) 0.3424(2) 0.99165(13)
H40 H 0.1891 0.2862 0.9897
H43 H 0.7816 0.5794 0.9835
O29 O 0.7138(3) 0.36826(18) 0.88937(15)
C29 C 0.6570(3) 0.8610(2) 0.99951(13)
H46 H 0.7205 0.8859 0.9802
C31 C 0.3535(3) 0.3359(2) 0.99497(14)
C33 C 0.6639(4) 0.4008(2) 0.93423(17)
H50 H 0.7233 0.4073 0.9596
H51 H 0.6067 0.3618 0.9469
C35 C 0.5584(3) 0.6224(2) 0.85551(13)
H53 H 0.5852 0.5981 0.8238
Na1 Na 0.82038(14) 0.47197(10) 0.83972(7)
O30 O 0.6883(6) 0.4188(5) 0.7797(2)
H55 H 0.6016 0.4363 0.7739
H56 H 0.7021 0.3721 0.7524
O32 O 0.9710(3) 0.56613(17) 0.88340(11)
O33 O 0.8460(2) 0.61030(17) 0.79655(10)
O34 O 0.9896(2) 0.4132(2) 0.80225(12)
O2_2 O 0.2944(3) 0.49922(15) 0.67872(9)
O3_2 O 0.0934(2) 0.55513(14) 0.41709(9)
O7_2 O 0.0933(2) 0.28024(14) 0.69850(9)
O9_2 O 0.3496(2) 0.69366(14) 0.60966(9)
O10_2 O 0.3177(2) 0.61589(14) 0.53625(8)
O11_2 O 0.3247(2) 0.24851(15) 0.72082(10)
H2_2 H 0.3807 0.2398 0.7027
O12 O 0.5385(2) 0.55525(19) 0.53862(10)
H3 H 0.5151 0.5798 0.5135
O13_2 O 0.1831(2) 0.48361(14) 0.74941(9)
O17_2 O 0.4706(2) 0.3978(2) 0.72555(11)
H6_2 H 0.4759 0.4103 0.6957
O18_2 O 0.1002(2) 0.69157(15) 0.44739(10)
O19_2 O 0.1319(2) 0.44201(17) 0.34061(11)
H7_2 H 0.1628 0.3968 0.3349
O20_2 O 0.3305(3) 0.7275(2) 0.71087(11)
H8_2 H 0.3035 0.7549 0.7341
O21_2 O 0.0290(3) 0.06613(17) 0.61660(11)
O22_2 O 0.4389(2) 0.61133(19) 0.44083(11)
H9_2 H 0.4706 0.5768 0.4590
O24_2 O 0.2876(3) 0.58533(19) 0.35658(10)
H11_2 H 0.2479 0.5428 0.3566
O25_2 O 0.1540(2) 0.11030(17) 0.70345(10)
C1_2 C 0.0168(3) 0.2220(2) 0.72028(12)
H12_2 H 0.0333 0.2171 0.7563
C3_2 C 0.1084(3) 0.4229(2) 0.72581(13)
H14_2 H 0.1018 0.4369 0.6900
O27 O 0.5098(3) 0.4645(2) 0.63096(12)
H16 H 0.5192 0.4290 0.6091
C7_2 C 0.2966(3) 0.4833(2) 0.73123(12)
H19_2 H 0.3416 0.5268 0.7483
C9_2 C 0.0387(3) 0.1385(2) 0.69494(13)
C10_2 C 0.4005(3) 0.6571(2) 0.56620(12)
H22_2 H 0.4389 0.7006 0.5463
C11_2 C 0.0401(3) 0.4306(2) 0.37584(13)
H23_2 H 0.0712 0.4036 0.4060
C12_2 C 0.1578(3) 0.3350(2) 0.73033(12)
H24_2 H 0.1525 0.3159 0.7653
C13_2 C 0.3656(3) 0.56387(19) 0.65829(13)
H25_2 H 0.4210 0.5835 0.6835
C15_2 C 0.4886(3) 0.5921(2) 0.58238(12)
H27 H 0.5492 0.6190 0.6024
C18_2 C 0.2397(4) 0.6860(2) 0.68504(15)
H31_2 H 0.1852 0.7270 0.6724
H32_2 H 0.1990 0.6494 0.7081
C19_2 C 0.3169(3) 0.6058(2) 0.44692(13)
H33_2 H 0.2960 0.5471 0.4528
C20_2 C 0.1281(3) 0.6380(2) 0.40693(13)
H34_2 H 0.0899 0.6579 0.3763
C21_2 C 0.3530(3) 0.3978(2) 0.73992(12)
H35_2 H 0.3493 0.3856 0.7760
C22_2 C 0.2585(3) 0.6355(2) 0.39872(13)
H36_2 H 0.2847 0.6928 0.3919
C23_2 C 0.2831(3) 0.3305(2) 0.71246(12)
H37_2 H 0.2853 0.3422 0.6763
C25_2 C 0.2772(3) 0.6576(2) 0.49165(13)
H40_2 H 0.3109 0.7138 0.4897
C26_2 C 0.4288(4) 0.5250(2) 0.61399(13)
H41_2 H 0.3718 0.4965 0.5927
C28_2 C 0.1118(4) 0.7290(4) 0.53317(19)
H45_2 H 0.1609 0.7698 0.5461
C31_2 C 0.1465(3) 0.6641(2) 0.49497(14)
H48_2 H 0.1135 0.6096 0.5040
C34_2 C 0.0145(3) 0.1466(2) 0.63910(12)
H52_2 H 0.0703 0.1857 0.6243
C36_2 C 0.2874(3) 0.6352(2) 0.64175(12)
H54_2 H 0.2226 0.6118 0.6227
H58_2 H 0.136713 0.686697 0.563395
O1_2 O 0.8997(2) 0.24552(15) 0.71355(9)
O4_2 O 0.9728(2) 0.29364(14) 0.34711(9)
H1_2 H 0.9258 0.2718 0.3281
O5_2 O 0.8836(2) 0.34590(14) 0.43891(9)
O6_2 O 0.8049(2) 0.46374(14) 0.40139(9)
O8_2 O 0.8891(2) 0.20081(15) 0.57806(9)
O14_2 O 0.9298(3) 0.17571(16) 0.42056(10)
H4_2 H 0.9409 0.2147 0.4011
O15_2 O 0.6740(2) 0.21908(17) 0.68771(10)
H5_2 H 0.6103 0.2158 0.6744
O16_2 O 0.7196(2) 0.24322(18) 0.53866(10)
O23_2 O 0.9217(3) 0.07481(16) 0.51406(10)
H10_2 H 0.9228 0.0382 0.4925
C2_2 C 0.8181(3) 0.2819(2) 0.46280(13)
H13_2 H 0.7514 0.2666 0.4420
C4_2 C 0.8429(3) 0.3804(2) 0.39360(12)
H15_2 H 0.7782 0.3467 0.3811
C5_2 C 0.8997(3) 0.2074(2) 0.46825(12)
H17_2 H 0.9701 0.2260 0.4854
C6_2 C 0.8927(3) 0.5155(2) 0.42425(13)
H18_2 H 0.9152 0.4905 0.4564
C8_2 C 0.8669(3) 0.2582(2) 0.66199(12)
H20_2 H 0.9114 0.3052 0.6484
H21_2 H 0.9852 0.0971 0.7091
C14_2 C 0.8919(3) 0.1799(2) 0.63024(12)
H26_2 H 0.8350 0.1362 0.6376
C16_2 C 0.9908(3) 0.4325(2) 0.74982(16)
H28_2 H 0.9647 0.4897 0.7452
H29_2 H 0.9366 0.3961 0.7327
C17_2 C 0.9990(3) 0.5188(2) 0.38987(13)
H30_2 H 0.9822 0.5515 0.3595
C24_2 C 0.7404(3) 0.2824(2) 0.66342(14)
H38_2 H 0.7316 0.3349 0.6813
H39_2 H 0.7122 0.2902 0.6294
O28_2 O 0.9943(4) 0.7195(4) 0.54669(18)
H42_2 H 0.9897 0.7087 0.5768
C27_2 C 0.6965(4) 0.3852(3) 0.51154(17)
H43_2 H 0.7184 0.4206 0.4835
H44_2 H 0.6188 0.3648 0.5053
O29_2 O 0.7862(3) 0.63174(18) 0.38937(15)
C29_2 C 0.8430(3) 0.1390(2) 0.49951(13)
H46_2 H 0.7795 0.1141 0.4802
C30_2 C 0.7949(3) 0.1753(2) 0.54874(13)
H47_2 H 0.7523 0.1316 0.5667
C32_2 C 0.7783(3) 0.3116(2) 0.51433(14)
H49_2 H 0.8460 0.3274 0.5344
C33_2 C 0.8361(4) 0.5992(2) 0.43423(17)
H50_2 H 0.7767 0.5927 0.4596
H51_2 H 0.8933 0.6382 0.4469
C35_2 C 0.9416(3) 0.3776(2) 0.35551(13)
H53_2 H 0.9148 0.4019 0.3238
O30_2 O 0.8117(6) 0.5812(5) 0.2797(2)
H55_2 H 0.8984 0.5637 0.2739
H56_2 H 0.7979 0.6279 0.2524
O31_2 O 0.6965(8) 0.4335(5) 0.5561(2)
H57_2 H 0.6974 0.4834 0.5489
O32_2 O 0.5290(3) 0.43387(17) 0.38340(11)
O33_2 O 0.6540(2) 0.38970(17) 0.29655(10)
O1_3 O 0.3997(2) 0.25448(15) 0.28645(9)
O2_3 O 0.7944(3) 0.00078(15) 0.32128(9)
O4_3 O 0.4728(2) 0.20636(14) 0.65289(9)
H1_3 H 0.4258 0.2282 0.6719
O5_3 O 0.3836(2) 0.15410(14) 0.56109(9)
O6_3 O 0.3049(2) 0.03626(14) 0.59861(9)
O7_3 O 0.5933(2) 0.21976(14) 0.30150(9)
O8_3 O 0.3891(2) 0.29919(15) 0.42194(9)
O11_3 O 0.8247(2) 0.25149(15) 0.27918(10)
H2_3 H 0.8807 0.2602 0.2973
O13_3 O 0.6831(2) 0.01639(14) 0.25059(9)
O14_3 O 0.4298(3) 0.32429(16) 0.57944(10)
H4_3 H 0.4409 0.2853 0.5989
O15_3 O 0.1740(2) 0.28092(17) 0.31229(10)
H5_3 H 0.1103 0.2842 0.3256
O16_3 O 0.2196(2) 0.25678(18) 0.46134(10)
O17_3 O 0.9706(2) 0.1022(2) 0.27445(11)
H6_3 H 0.9759 0.0897 0.3043
O19_3 O 0.6319(2) 0.05799(17) 0.65939(11)
H7_3 H 0.6628 0.1032 0.6651
O23_3 O 0.4217(3) 0.42519(16) 0.48594(10)
H10_3 H 0.4228 0.4618 0.5075
O26_2 O 0.4896(2) 0.0868(2) 0.19775(12)
C1_3 C 0.5168(3) 0.2780(2) 0.27972(12)
H12_3 H 0.5333 0.2829 0.2437
C2_3 C 0.3181(3) 0.2181(2) 0.53720(13)
H13_3 H 0.2514 0.2334 0.5580
C3_3 C 0.6084(3) 0.0771(2) 0.27419(13)
H14_3 H 0.6018 0.0631 0.3100
C4_3 C 0.3429(3) 0.1196(2) 0.60640(12)
H15_3 H 0.2782 0.1533 0.6189
C5_3 C 0.3997(3) 0.2926(2) 0.53175(12)
H17_3 H 0.4701 0.2740 0.5146
H18_3 H 0.4152 0.0095 0.5436
C7_3 C 0.7966(3) 0.0167(2) 0.26877(12)
C8_3 C 0.3669(3) 0.2418(2) 0.33801(12)
H20_3 H 0.4114 0.1948 0.3516
C9_3 C 0.5387(3) 0.3615(2) 0.30506(13)
H21_3 H 0.4852 0.4029 0.2909
C11_3 C 0.5401(3) 0.0694(2) 0.62416(13)
H23_3 H 0.5712 0.0964 0.5940
C12_3 C 0.6578(3) 0.1650(2) 0.26967(12)
H24_3 H 0.6525 0.1841 0.2347
C14_3 C 0.3919(3) 0.3201(2) 0.36976(12)
H26_3 H 0.3350 0.3638 0.3624
C16_3 C 0.4908(3) 0.0675(2) 0.25018(16)
H28_3 H 0.4647 0.0103 0.2548
H29_3 H 0.4366 0.1039 0.2673
C21_3 C 0.8530(3) 0.1022(2) 0.26008(12)
H35_3 H 0.8493 0.1144 0.2240
C23_3 C 0.7831(3) 0.1695(2) 0.28754(12)
H37_3 H 0.7853 0.1578 0.3237
C24_3 C 0.2404(3) 0.2176(2) 0.33658(14)
H38_3 H 0.2316 0.1651 0.3187
H39_3 H 0.2122 0.2098 0.3706
H41_3 H 0.8718 0.0035 0.4073
C27_3 C 0.1965(4) 0.1148(3) 0.48846(17)
H43_3 H 0.2184 0.0794 0.5165
H44_3 H 0.1188 0.1352 0.4947
C29_3 C 0.3430(3) 0.3610(2) 0.50049(13)
H46_3 H 0.2795 0.3859 0.5198
C30_3 C 0.2949(3) 0.3247(2) 0.45126(13)
H47_3 H 0.2523 0.3684 0.4333
C32_3 C 0.2783(3) 0.1884(2) 0.48567(14)
H49_3 H 0.3460 0.1726 0.4656
C34_3 C 0.5145(3) 0.3534(2) 0.36090(12)
H52_3 H 0.5703 0.3143 0.3757
C35_3 C 0.4416(3) 0.1224(2) 0.64449(13)
H53_3 H 0.4148 0.0981 0.6762
O31_3 O 0.1965(8) 0.0665(5) 0.4439(2)
H57_3 H 0.1974 0.0166 0.4511
C6_3 C 0.1073(3) 0.0155(2) 0.07575(13)
C17_3 C 0.0010(3) 0.0188(2) 0.11013(13)
H30_3 H 0.0178 0.0515 0.1405
O29_3 O 0.2138(3) 0.13174(18) 0.11063(15)
C33_3 C 0.1639(4) 0.0992(2) 0.06577(17)
H50_3 H 0.2233 0.0927 0.0404
H51_3 H 0.1067 0.1382 0.0531
O30_3 O 0.1883(6) 0.0812(5) 0.2203(2)
H55_3 H 0.1016 0.0637 0.2261
H56_3 H 0.2021 0.1279 0.2476
O4_4 O 0.0272(2) 0.79364(14) 0.15289(9)
H1_4 H 0.0742 0.7718 0.1719
O5_4 O 0.1164(2) 0.84590(14) 0.06109(9)
O6_4 O 0.1951(2) 0.96374(14) 0.09861(9)
O14_4 O 0.0702(3) 0.67571(16) 0.07944(10)
H4_4 H 0.0591 0.7147 0.0989
H10_4 H 0.0772 0.5382 0.0075
C2_4 C 0.1819(3) 0.7819(2) 0.03720(13)
H13_4 H 0.2486 0.7666 0.0580
C4_4 C 0.1571(3) 0.8804(2) 0.10640(12)
H15_4 H 0.2218 0.8467 0.1189
C5_4 C 0.1003(3) 0.7074(2) 0.03175(12)
H17_4 H 0.0299 0.7260 0.0146
H18_4 H 0.0848 0.9905 0.0436
H43_4 H 0.2816 0.9206 0.0165
C29_4 C 0.1570(3) 0.6390(2) 0.00049(13)
H46_4 H 0.2205 0.6141 0.0198
C35_4 C 0.0584(3) 0.8776(2) 0.14449(13)
H53_4 H 0.0852 0.9019 0.1762
O2_4 O 0.7056(3) 0.99922(15) 0.82128(9)
O7_4 O 0.9067(2) 0.78024(14) 0.80150(9)
O11_4 O 0.6753(2) 0.74851(15) 0.77918(10)
H2_4 H 0.6193 0.7398 0.7973
O13_4 O 0.8169(2) 0.98361(14) 0.75059(9)
O17_4 O 0.5294(2) 0.8978(2) 0.77445(11)
H6_4 H 0.5241 0.9103 0.8043
C1_4 C 0.9832(3) 0.7220(2) 0.77972(12)
H12_4 H 0.9667 0.7171 0.7437
C3_4 C 0.8916(3) 0.9229(2) 0.77419(13)
H14_4 H 0.8982 0.9369 0.8100
O27_2 O 0.4902(3) 0.9645(2) 0.86904(12)
H16_2 H 0.4808 0.9290 0.8909
C7_4 C 0.7034(3) 0.9833(2) 0.76877(12)
C9_4 C 0.9613(3) 0.6385(2) 0.80506(13)
C12_4 C 0.8422(3) 0.8350(2) 0.76967(12)
H24_4 H 0.8475 0.8159 0.7347
C21_4 C 0.6470(3) 0.8978(2) 0.76008(12)
H35_4 H 0.6507 0.8856 0.7240
C23_4 C 0.7169(3) 0.8305(2) 0.78754(12)
H37_4 H 0.7147 0.8422 0.8237
H41_4 H 0.6282 0.9965 0.9073
C34_4 C 0.9855(3) 0.6466(2) 0.86090(12)
H52_4 H 0.9297 0.6857 0.8757
O12_2 O 0.9615(2) 0.44475(19) 0.03862(10)
H3_2 H 0.9849 0.4202 0.0135
O27_3 O 0.9902(3) 0.5355(2) 0.13096(12)
H16_3 H 0.9808 0.5710 0.1091
H27_2 H 0.9508 0.3810 0.1024
Na3_2 Na 0.17962(14) 0.97197(10) 0.66028(7)
O3_3 O 0.5934(2) 0.94487(14) 0.58291(9)
O9_3 O 0.8496(2) 0.80634(14) 0.39034(9)
O10_3 O 0.8177(2) 0.88411(14) 0.46375(8)
O18_3 O 0.6002(2) 0.80843(15) 0.55261(10)
O20_3 O 0.8305(3) 0.7725(2) 0.28913(11)
H8_3 H 0.8035 0.7451 0.2659
O22_3 O 0.9389(2) 0.88867(19) 0.55917(11)
H9_3 H 0.9706 0.9232 0.5410
O24_3 O 0.7876(3) 0.91467(19) 0.64342(10)
H11_3 H 0.7479 0.9572 0.6434
C6_4 C 0.3927(3) 0.9845(2) 0.57575(13)
H19_3 H 0.8416 0.9732 0.2517
C10_3 C 0.9005(3) 0.8429(2) 0.43380(12)
H22_3 H 0.9389 0.7994 0.4537
C13_3 C 0.8656(3) 0.93613(19) 0.34171(13)
H25_3 H 0.9210 0.9165 0.3165
C15_3 C 0.9886(3) 0.9079(2) 0.41762(12)
C17_4 C 0.4990(3) 0.9812(2) 0.61013(13)
H30_4 H 0.4822 0.9485 0.6405
C18_3 C 0.7397(4) 0.8140(2) 0.31496(15)
H31_3 H 0.6852 0.7730 0.3276
H32_3 H 0.6990 0.8506 0.2919
C19_3 C 0.8169(3) 0.8942(2) 0.55308(13)
H33_3 H 0.7960 0.9529 0.5472
C20_3 C 0.6281(3) 0.8620(2) 0.59307(13)
H34_3 H 0.5899 0.8421 0.6237
C22_3 C 0.7585(3) 0.8645(2) 0.60128(13)
H36_3 H 0.7847 0.8072 0.6081
C25_3 C 0.7772(3) 0.8424(2) 0.50835(13)
H40_3 H 0.8109 0.7862 0.5103
C26_3 C 0.9288(4) 0.9750(2) 0.38601(13)
O28_3 O 0.4943(4) 0.7805(4) 0.45331(18)
H42_3 H 0.4897 0.7913 0.4232
C28_3 C 0.6118(4) 0.7710(4) 0.46683(19)
H45_3 H 0.6609 0.7302 0.4539
O29_4 O 0.2862(3) 0.86826(18) 0.61063(15)
C31_3 C 0.6465(3) 0.8359(2) 0.50503(14)
H48_3 H 0.6135 0.8904 0.4960
C33_4 C 0.3361(4) 0.9008(2) 0.56577(17)
H50_4 H 0.2767 0.9073 0.5404
H51_4 H 0.3933 0.8618 0.5531
C36_3 C 0.7874(3) 0.8648(2) 0.35825(12)
H54_3 H 0.7226 0.8882 0.3773
O30_4 O 0.3117(6) 0.9188(5) 0.7203(2)
H55_4 H 0.3984 0.9363 0.7261
H56_4 H 0.2979 0.8721 0.7476
O34_2 O 0.0104(2) 0.9132(2) 0.69775(12)
H58_3 H 0.636713 0.813303 0.436605
O1_4 O 0.1003(2) 0.74552(15) 0.78645(9)
O8_4 O 0.1109(2) 0.70081(15) 0.92194(9)
O15_4 O 0.3260(2) 0.71908(17) 0.81229(10)
H5_4 H 0.3897 0.7158 0.8256
O16_4 O 0.2804(2) 0.74322(18) 0.96134(10)
O23_4 O 0.0783(3) 0.57481(16) 0.98594(10)
C8_4 C 0.1331(3) 0.7582(2) 0.83801(12)
H20_4 H 0.0886 0.8052 0.8516
H21_4 H 0.0148 0.5971 0.7909
C14_4 C 0.1081(3) 0.6799(2) 0.86976(12)
H26_4 H 0.1650 0.6362 0.8624
C16_4 C 0.0092(3) 0.9325(2) 0.75018(16)
H28_4 H 0.0353 0.9897 0.7548
H29_4 H 0.0634 0.8961 0.7673
C24_4 C 0.2596(3) 0.7824(2) 0.83658(14)
H38_4 H 0.2684 0.8349 0.8187
H39_4 H 0.2878 0.7902 0.8706
C27_4 C 0.3035(4) 0.8852(3) 0.98846(17)
H44_4 H 0.3812 0.8648 0.9947
C30_4 C 0.2051(3) 0.6753(2) 0.95126(13)
H47_4 H 0.2477 0.6316 0.9333
C32_4 C 0.2217(3) 0.8116(2) 0.98567(14)
H49_4 H 0.1540 0.8274 0.9656
O31_4 O 0.3035(8) 0.9335(5) 0.9439(2)
H57_4 H 0.3026 0.9834 0.9511
O27_4 O 0.0098(3) 0.0355(2) 0.36904(12)
H16_4 H 0.0192 0.0710 0.3909
O12_3 O 0.0385(2) 0.94475(19) 0.46138(10)
H3_3 H 0.0151 0.9202 0.4865
H27_3 H 0.0492 0.8810 0.3976
O28_4 O 0.0057(4) 0.2195(4) 0.95331(18)
H42_4 H 0.0103 0.2087 0.9232
O3_4 O 0.9066(2) 0.05513(14) 0.08291(9)
O18_4 O 0.8998(2) 0.19157(15) 0.05261(10)
O22_4 O 0.5611(2) 0.11133(19) 0.05917(11)
H9_4 H 0.5294 0.0768 0.0410
O24_4 O 0.7124(3) 0.08533(19) 0.14342(10)
H11_4 H 0.7521 0.0428 0.1434
C19_4 C 0.6831(3) 0.1058(2) 0.05308(13)
H33_4 H 0.7040 0.0471 0.0472
C20_4 C 0.8719(3) 0.1380(2) 0.09307(13)
H34_4 H 0.9101 0.1579 0.1237
C22_4 C 0.7415(3) 0.1355(2) 0.10128(13)
H36_4 H 0.7153 0.1928 0.1081
C25_4 C 0.7228(3) 0.1576(2) 0.00835(13)
H40_4 H 0.6891 0.2138 0.0103
C31_4 C 0.8535(3) 0.1641(2) 0.00503(14)
O9_4 O 0.6504(2) 0.19366(14) 0.89034(9)
O10_4 O 0.6823(2) 0.11589(14) 0.96375(8)
O12_4 O 0.4615(2) 0.05525(19) 0.96138(10)
H3_4 H 0.4849 0.0798 0.9865
O20_4 O 0.6695(3) 0.2275(2) 0.78913(11)
H8_4 H 0.6965 0.2549 0.7659
H19_4 H 0.6584 0.0268 0.7517
C10_4 C 0.5995(3) 0.1571(2) 0.93380(12)
H22_4 H 0.5611 0.2006 0.9537
C13_4 C 0.6344(3) 0.06387(19) 0.84171(13)
H25_4 H 0.5790 0.0835 0.8165
C15_4 C 0.5114(3) 0.0921(2) 0.91762(12)
H27_4 H 0.4508 0.1190 0.8976
C18_4 C 0.7603(4) 0.1860(2) 0.81496(15)
H31_4 H 0.8148 0.2270 0.8276
H32_4 H 0.8010 0.1494 0.7919
C26_4 C 0.5712(4) 0.0250(2) 0.88601(13)
C28_4 C 0.8882(4) 0.2290(4) 0.96683(19)
H45_4 H 0.8391 0.2698 0.9539
H48_4 H 0.8865 0.1096 0.9960
C36_4 C 0.7126(3) 0.1352(2) 0.85825(12)
H54_4 H 0.7774 0.1118 0.8773
H58_4 H 0.863287 0.186697 0.936605
O19_4 O 0.8681(2) 0.94201(17) 0.15939(11)
H7_4 H 0.8372 0.8968 0.1651
C11_4 C 0.9599(3) 0.9306(2) 0.12416(13)
H23_4 H 0.9288 0.9036 0.0940
loop_
_geom_bond_atom_site_label_1
_geom_bond_atom_site_label_2
_geom_bond_site_symmetry_1
_geom_bond_site_symmetry_2
O1 C1 1_555 1_555
O2 C7 1_555 1_555
O7 C1 1_555 1_555
O8 C14 1_555 1_555
O9 C10 1_555 1_555
O10 C10 1_555 1_555
O11 H2 1_555 1_555
O13 C3 1_555 1_555
O15 H5 1_555 1_555
O16 C30 1_555 1_555
O17 H6 1_555 1_555
O20 H8 1_555 1_555
O21 C34 1_555 1_555
O25 C9 1_555 1_555
O26 C16 1_555 1_555
C1 H12 1_555 1_555
C3 H14 1_555 1_555
C7 O13 1_555 1_555
H19 C7 1_555 1_555
C8 O1 1_555 1_555
H20 C8 1_555 1_555
C9 C1 1_555 1_555
H21 C9 1_555 1_555
C10 H22 1_555 1_555
C12 O7 1_555 1_555
H24 C12 1_555 1_555
C13 O2 1_555 1_555
H25 C13 1_555 1_555
C14 C8 1_555 1_555
H26 C14 1_555 1_555
C16 C3 1_555 1_555
H28 C16 1_555 1_555
H29 C16 1_555 1_555
C18 O20 1_555 1_555
H31 C18 1_555 1_555
H32 C18 1_555 1_555
C21 O17 1_555 1_555
H35 C21 1_555 1_555
C23 O11 1_555 1_555
H37 C23 1_555 1_555
C24 O15 1_555 1_555
H38 C24 1_555 1_555
H39 C24 1_555 1_555
H41 C26 1_555 1_555
O28 H42 1_555 1_555
H44 C27 1_555 1_555
C28 O28 1_555 1_555
H45 C28 1_555 1_555
C30 O8 1_555 1_555
H47 C30 1_555 1_555
C32 O16 1_555 1_555
H49 C32 1_555 1_555
C34 C9 1_555 1_555
H52 C34 1_555 1_555
C36 O9 1_555 1_555
H54 C36 1_555 1_555
O31 C27 1_555 1_555
H57 O31 1_555 1_555
Na2 O26 1_555 1_555
C3 C12 1_555 1_555
C7 C21 1_555 1_555
C8 C24 1_555 1_555
C10 C15 1_555 1_555
C12 C23 1_555 1_555
C13 C26 1_555 1_555
C13 C36 1_555 1_555
C14 C34 1_555 1_555
C15 C26 1_555 1_555
C18 C36 1_555 1_555
C21 C23 1_555 1_555
C27 C32 1_555 1_555
C28 H58 1_555 1_555
O3 C17 1_555 1_555
O4 H1 1_555 1_555
O5 C2 1_555 1_555
O6 C4 1_555 1_555
O14 H4 1_555 1_555
O18 C20 1_555 1_555
O19 H7 1_555 1_555
O22 H9 1_555 1_555
O24 H11 1_555 1_555
C2 H13 1_555 1_555
C4 O5 1_555 1_555
H15 C4 1_555 1_555
C5 O14 1_555 1_555
H17 C5 1_555 1_555
C6 O6 1_555 1_555
H18 C6 1_555 1_555
C11 O19 1_555 1_555
H23 C11 1_555 1_555
C17 C6 1_555 1_555
H30 C17 1_555 1_555
C19 O22 1_555 1_555
H33 C19 1_555 1_555
C20 O3 1_555 1_555
H34 C20 1_555 1_555
C22 O24 1_555 1_555
H36 C22 1_555 1_555
H40 C25 1_555 1_555
O29 C33 1_555 1_555
H46 C29 1_555 1_555
C31 O18 1_555 1_555
C33 C6 1_555 1_555
H50 C33 1_555 1_555
H51 C33 1_555 1_555
C35 O4 1_555 1_555
H53 C35 1_555 1_555
Na1 O6 1_555 1_555
O30 Na1 1_555 1_555
H55 O30 1_555 1_555
H56 O30 1_555 1_555
O32 Na1 1_555 1_555
O33 Na1 1_555 1_555
O34 Na1 1_555 1_555
C2 C5 1_555 1_555
C4 C35 1_555 1_555
C5 C29 1_555 1_555
C11 C17 1_555 1_555
C11 C35 1_555 1_555
C19 C22 1_555 1_555
C19 C25 1_555 1_555
C20 C22 1_555 1_555
C25 C31 1_555 1_555
O29 Na1 1_555 1_555
O2_2 C7_2 1_555 1_555
O7_2 C1_2 1_555 1_555
O9_2 C10_2 1_555 1_555
O10_2 C10_2 1_555 1_555
O11_2 H2_2 1_555 1_555
O12 H3 1_555 1_555
O13_2 C3_2 1_555 1_555
O17_2 H6_2 1_555 1_555
O18_2 C20_2 1_555 1_555
O19_2 H7_2 1_555 1_555
O20_2 H8_2 1_555 1_555
O21_2 C34_2 1_555 1_555
O22_2 H9_2 1_555 1_555
O24_2 H11_2 1_555 1_555
O25_2 C9_2 1_555 1_555
C1_2 H12_2 1_555 1_555
C3_2 H14_2 1_555 1_555
O27 H16 1_555 1_555
C7_2 O13_2 1_555 1_555
H19_2 C7_2 1_555 1_555
C9_2 C1_2 1_555 1_555
C10_2 H22_2 1_555 1_555
C11_2 O19_2 1_555 1_555
H23_2 C11_2 1_555 1_555
C12_2 O7_2 1_555 1_555
H24_2 C12_2 1_555 1_555
C13_2 O2_2 1_555 1_555
H25_2 C13_2 1_555 1_555
C15_2 O12 1_555 1_555
H27 C15_2 1_555 1_555
C18_2 O20_2 1_555 1_555
H31_2 C18_2 1_555 1_555
H32_2 C18_2 1_555 1_555
C19_2 O22_2 1_555 1_555
H33_2 C19_2 1_555 1_555
C20_2 O3_2 1_555 1_555
H34_2 C20_2 1_555 1_555
C21_2 O17_2 1_555 1_555
H35_2 C21_2 1_555 1_555
C22_2 O24_2 1_555 1_555
H36_2 C22_2 1_555 1_555
C23_2 O11_2 1_555 1_555
H37_2 C23_2 1_555 1_555
C25_2 O10_2 1_555 1_555
H40_2 C25_2 1_555 1_555
C26_2 O27 1_555 1_555
H41_2 C26_2 1_555 1_555
H45_2 C28_2 1_555 1_555
C31_2 O18_2 1_555 1_555
H48_2 C31_2 1_555 1_555
C34_2 C9_2 1_555 1_555
H52_2 C34_2 1_555 1_555
C36_2 O9_2 1_555 1_555
H54_2 C36_2 1_555 1_555
C3_2 C12_2 1_555 1_555
C7_2 C21_2 1_555 1_555
C10_2 C15_2 1_555 1_555
C12_2 C23_2 1_555 1_555
C13_2 C26_2 1_555 1_555
C13_2 C36_2 1_555 1_555
C15_2 C26_2 1_555 1_555
C18_2 C36_2 1_555 1_555
C19_2 C22_2 1_555 1_555
C19_2 C25_2 1_555 1_555
C20_2 C22_2 1_555 1_555
C21_2 C23_2 1_555 1_555
C25_2 C31_2 1_555 1_555
C28_2 C31_2 1_555 1_555
C28_2 H58_2 1_555 1_555
O4_2 H1_2 1_555 1_555
O5_2 C2_2 1_555 1_555
O6_2 C4_2 1_555 1_555
O8_2 C14_2 1_555 1_555
O14_2 H4_2 1_555 1_555
O15_2 H5_2 1_555 1_555
O16_2 C30_2 1_555 1_555
O23_2 H10_2 1_555 1_555
O34 C16_2 1_555 1_555
C2_2 H13_2 1_555 1_555
C4_2 O5_2 1_555 1_555
H15_2 C4_2 1_555 1_555
C5_2 O14_2 1_555 1_555
H17_2 C5_2 1_555 1_555
C6_2 O6_2 1_555 1_555
H18_2 C6_2 1_555 1_555
C8_2 O1_2 1_555 1_555
H20_2 C8_2 1_555 1_555
C14_2 C8_2 1_555 1_555
H26_2 C14_2 1_555 1_555
H28_2 C16_2 1_555 1_555
H29_2 C16_2 1_555 1_555
C17_2 C6_2 1_555 1_555
H30_2 C17_2 1_555 1_555
C24_2 O15_2 1_555 1_555
H38_2 C24_2 1_555 1_555
H39_2 C24_2 1_555 1_555
O28_2 H42_2 1_555 1_555
C27_2 H43_2 1_555 1_555
H44_2 C27_2 1_555 1_555
O29_2 C33_2 1_555 1_555
C29_2 O23_2 1_555 1_555
H46_2 C29_2 1_555 1_555
C30_2 O8_2 1_555 1_555
H47_2 C30_2 1_555 1_555
C32_2 O16_2 1_555 1_555
H49_2 C32_2 1_555 1_555
C33_2 C6_2 1_555 1_555
H50_2 C33_2 1_555 1_555
H51_2 C33_2 1_555 1_555
C35_2 O4_2 1_555 1_555
H53_2 C35_2 1_555 1_555
Na2 O6_2 1_555 1_555
O30_2 Na2 1_555 1_555
H55_2 O30_2 1_555 1_555
H56_2 O30_2 1_555 1_555
O31_2 C27_2 1_555 1_555
H57_2 O31_2 1_555 1_555
O32_2 Na2 1_555 1_555
O33_2 Na2 1_555 1_555
C2_2 C5_2 1_555 1_555
C2_2 C32_2 1_555 1_555
C4_2 C35_2 1_555 1_555
C5_2 C29_2 1_555 1_555
C8_2 C24_2 1_555 1_555
C27_2 C32_2 1_555 1_555
O29_2 Na2 1_555 1_555
C29_2 C30_2 1_555 1_555
O1_3 C1_3 1_555 1_555
O2_3 C7_3 1_555 1_555
O4_3 H1_3 1_555 1_555
O5_3 C2_3 1_555 1_555
O6_3 C4_3 1_555 1_555
O7_3 C1_3 1_555 1_555
O8_3 C14_3 1_555 1_555
O11_3 H2_3 1_555 1_555
O13_3 C3_3 1_555 1_555
O14_3 H4_3 1_555 1_555
O15_3 H5_3 1_555 1_555
O16_3 C30_3 1_555 1_555
O17_3 H6_3 1_555 1_555
O19_3 H7_3 1_555 1_555
O32_2 C34_3 1_555 1_555
O23_3 H10_3 1_555 1_555
O33_2 C9_3 1_555 1_555
O26_2 C16_3 1_555 1_555
C1_3 H12_3 1_555 1_555
C2_3 H13_3 1_555 1_555
C3_3 H14_3 1_555 1_555
C4_3 O5_3 1_555 1_555
H15_3 C4_3 1_555 1_555
C5_3 O14_3 1_555 1_555
H17_3 C5_3 1_555 1_555
C7_3 O13_3 1_555 1_555
C8_3 O1_3 1_555 1_555
H20_3 C8_3 1_555 1_555
C9_3 C1_3 1_555 1_555
H21_3 C9_3 1_555 1_555
C11_3 O19_3 1_555 1_555
H23_3 C11_3 1_555 1_555
C12_3 O7_3 1_555 1_555
H24_3 C12_3 1_555 1_555
C14_3 C8_3 1_555 1_555
H26_3 C14_3 1_555 1_555
C16_3 C3_3 1_555 1_555
H28_3 C16_3 1_555 1_555
H29_3 C16_3 1_555 1_555
C21_3 O17_3 1_555 1_555
H35_3 C21_3 1_555 1_555
C23_3 O11_3 1_555 1_555
H37_3 C23_3 1_555 1_555
C24_3 O15_3 1_555 1_555
H38_3 C24_3 1_555 1_555
H39_3 C24_3 1_555 1_555
C27_3 H43_3 1_555 1_555
H44_3 C27_3 1_555 1_555
C29_3 O23_3 1_555 1_555
H46_3 C29_3 1_555 1_555
C30_3 O8_3 1_555 1_555
H47_3 C30_3 1_555 1_555
C32_3 O16_3 1_555 1_555
H49_3 C32_3 1_555 1_555
C34_3 C9_3 1_555 1_555
H52_3 C34_3 1_555 1_555
C35_3 O4_3 1_555 1_555
H53_3 C35_3 1_555 1_555
O31_3 C27_3 1_555 1_555
H57_3 O31_3 1_555 1_555
Na3 O26_2 1_555 1_555
C2_3 C5_3 1_555 1_555
C2_3 C32_3 1_555 1_555
C3_3 C12_3 1_555 1_555
C4_3 C35_3 1_555 1_555
C5_3 C29_3 1_555 1_555
C7_3 C21_3 1_555 1_555
C8_3 C24_3 1_555 1_555
C11_3 C35_3 1_555 1_555
C12_3 C23_3 1_555 1_555
C14_3 C34_3 1_555 1_555
C21_3 C23_3 1_555 1_555
C27_3 C32_3 1_555 1_555
C29_3 C30_3 1_555 1_555
C17_3 C6_3 1_555 1_555
H30_3 C17_3 1_555 1_555
O29_3 C33_3 1_555 1_555
C33_3 C6_3 1_555 1_555
H50_3 C33_3 1_555 1_555
H51_3 C33_3 1_555 1_555
O30_3 Na3 1_555 1_555
H55_3 O30_3 1_555 1_555
H56_3 O30_3 1_555 1_555
O29_3 Na3 1_555 1_555
O4_4 H1_4 1_555 1_555
O5_4 C2_4 1_555 1_555
O6_4 C4_4 1_555 1_555
O14_4 H4_4 1_555 1_555
C2_4 H13_4 1_555 1_555
C4_4 O5_4 1_555 1_555
H15_4 C4_4 1_555 1_555
C5_4 O14_4 1_555 1_555
H17_4 C5_4 1_555 1_555
H46_4 C29_4 1_555 1_555
C35_4 O4_4 1_555 1_555
H53_4 C35_4 1_555 1_555
C2_4 C5_4 1_555 1_555
C4_4 C35_4 1_555 1_555
C5_4 C29_4 1_555 1_555
O2_4 C7_4 1_555 1_555
O7_4 C1_4 1_555 1_555
O11_4 H2_4 1_555 1_555
O13_4 C3_4 1_555 1_555
O17_4 H6_4 1_555 1_555
O32 C34_4 1_555 1_555
O33 C9_4 1_555 1_555
C1_4 H12_4 1_555 1_555
C3_4 H14_4 1_555 1_555
O27_2 H16_2 1_555 1_555
C7_4 O13_4 1_555 1_555
C9_4 C1_4 1_555 1_555
C12_4 O7_4 1_555 1_555
H24_4 C12_4 1_555 1_555
C21_4 O17_4 1_555 1_555
H35_4 C21_4 1_555 1_555
C23_4 O11_4 1_555 1_555
H37_4 C23_4 1_555 1_555
C34_4 C9_4 1_555 1_555
H52_4 C34_4 1_555 1_555
C3_4 C12_4 1_555 1_555
C7_4 C21_4 1_555 1_555
C12_4 C23_4 1_555 1_555
C21_4 C23_4 1_555 1_555
O12_2 H3_2 1_555 1_555
O27_3 H16_3 1_555 1_555
O3_3 C17_4 1_555 1_555
O9_3 C10_3 1_555 1_555
O10_3 C10_3 1_555 1_555
O18_3 C20_3 1_555 1_555
O20_3 H8_3 1_555 1_555
O22_3 H9_3 1_555 1_555
O24_3 H11_3 1_555 1_555
C10_3 H22_3 1_555 1_555
H25_3 C13_3 1_555 1_555
C17_4 C6_4 1_555 1_555
H30_4 C17_4 1_555 1_555
C18_3 O20_3 1_555 1_555
H31_3 C18_3 1_555 1_555
H32_3 C18_3 1_555 1_555
C19_3 O22_3 1_555 1_555
H33_3 C19_3 1_555 1_555
C20_3 O3_3 1_555 1_555
H34_3 C20_3 1_555 1_555
C22_3 O24_3 1_555 1_555
H36_3 C22_3 1_555 1_555
C25_3 O10_3 1_555 1_555
H40_3 C25_3 1_555 1_555
O28_3 H42_3 1_555 1_555
C28_3 O28_3 1_555 1_555
H45_3 C28_3 1_555 1_555
O29_4 C33_4 1_555 1_555
C31_3 O18_3 1_555 1_555
H48_3 C31_3 1_555 1_555
C33_4 C6_4 1_555 1_555
H50_4 C33_4 1_555 1_555
H51_4 C33_4 1_555 1_555
C36_3 O9_3 1_555 1_555
H54_3 C36_3 1_555 1_555
O30_4 Na3_2 1_555 1_555
H55_4 O30_4 1_555 1_555
H56_4 O30_4 1_555 1_555
O34_2 Na3_2 1_555 1_555
C10_3 C15_3 1_555 1_555
C13_3 C26_3 1_555 1_555
C13_3 C36_3 1_555 1_555
C15_3 C26_3 1_555 1_555
C18_3 C36_3 1_555 1_555
C19_3 C22_3 1_555 1_555
C19_3 C25_3 1_555 1_555
C20_3 C22_3 1_555 1_555
C25_3 C31_3 1_555 1_555
C28_3 C31_3 1_555 1_555
O29_4 Na3_2 1_555 1_555
C28_3 H58_3 1_555 1_555
O8_4 C14_4 1_555 1_555
O15_4 H5_4 1_555 1_555
O16_4 C30_4 1_555 1_555
O34_2 C16_4 1_555 1_555
C8_4 O1_4 1_555 1_555
H20_4 C8_4 1_555 1_555
C14_4 C8_4 1_555 1_555
H26_4 C14_4 1_555 1_555
H28_4 C16_4 1_555 1_555
H29_4 C16_4 1_555 1_555
C24_4 O15_4 1_555 1_555
H38_4 C24_4 1_555 1_555
H39_4 C24_4 1_555 1_555
H44_4 C27_4 1_555 1_555
C30_4 O8_4 1_555 1_555
H47_4 C30_4 1_555 1_555
C32_4 O16_4 1_555 1_555
H49_4 C32_4 1_555 1_555
O31_4 C27_4 1_555 1_555
H57_4 O31_4 1_555 1_555
C8_4 C24_4 1_555 1_555
C27_4 C32_4 1_555 1_555
O27_4 H16_4 1_555 1_555
O12_3 H3_3 1_555 1_555
O28_4 H42_4 1_555 1_555
O18_4 C20_4 1_555 1_555
O22_4 H9_4 1_555 1_555
O24_4 H11_4 1_555 1_555
C19_4 O22_4 1_555 1_555
H33_4 C19_4 1_555 1_555
C20_4 O3_4 1_555 1_555
H34_4 C20_4 1_555 1_555
C22_4 O24_4 1_555 1_555
H36_4 C22_4 1_555 1_555
H40_4 C25_4 1_555 1_555
C31_4 O18_4 1_555 1_555
C19_4 C22_4 1_555 1_555
C19_4 C25_4 1_555 1_555
C20_4 C22_4 1_555 1_555
C25_4 C31_4 1_555 1_555
O9_4 C10_4 1_555 1_555
O10_4 C10_4 1_555 1_555
O12_4 H3_4 1_555 1_555
O20_4 H8_4 1_555 1_555
C10_4 H22_4 1_555 1_555
H25_4 C13_4 1_555 1_555
C15_4 O12_4 1_555 1_555
H27_4 C15_4 1_555 1_555
C18_4 O20_4 1_555 1_555
H31_4 C18_4 1_555 1_555
H32_4 C18_4 1_555 1_555
H45_4 C28_4 1_555 1_555
C36_4 O9_4 1_555 1_555
H54_4 C36_4 1_555 1_555
C10_4 C15_4 1_555 1_555
C13_4 C26_4 1_555 1_555
C13_4 C36_4 1_555 1_555
C15_4 C26_4 1_555 1_555
C18_4 C36_4 1_555 1_555
C28_4 H58_4 1_555 1_555
O19_4 H7_4 1_555 1_555
C11_4 O19_4 1_555 1_555
H23_4 C11_4 1_555 1_555

#END
