
###############################################################################
#
# This file contains modified crystal structure data generated from the
# MOF subset of the Cambridge Structural Database (CSD) v543 
# hosted by the Cambridge Crystallographic Data Centre (CCDC).
#
# This work is licensed under the Creative Commons
# Attribution-NonCommercial-ShareAlike 4.0 International License.
# To view a copy of this license, visit
# http://creativecommons.org/licenses/by-nc-sa/4.0/
# or send a letter to
# Creative Commons, PO Box 1866, Mountain View, CA 94042, USA.
#
# CIF created using the CSD Python API on 29 September 2022
# The structure has been converted into the P1 space group
# The structure has a 3D framework
# The original CSD entry PAWXIX is in the cubic crystal system
# The original CSD entry PAWXIX is in a Sohncke space group
# The framework has been calculated to contain at least 10.0% void space
# The void calculation uses a probe of radius 1.32A, grid spacing 0.4
# The framework is charged, counterions have been retained in the structure
#
###############################################################################

data_PAWXIX
_chemical_formula_moiety         '(C576 H792 Cl140 Cu62 N168 16-)n'
_symmetry_cell_setting           triclinic
_symmetry_space_group_name_H-M   'P 1'
_symmetry_Int_Tables_number      1
_space_group_name_Hall           'P 1'
loop_
_symmetry_equiv_pos_site_id
_symmetry_equiv_pos_as_xyz
1 x,y,z
_cell_length_a                   26.85010(10)
_cell_length_b                   26.85010(10)
_cell_length_c                   26.85010(10)
_cell_angle_alpha                90
_cell_angle_beta                 90
_cell_angle_gamma                90
_cell_volume                     19357
loop_
_atom_site_label
_atom_site_type_symbol
_atom_site_fract_x
_atom_site_fract_y
_atom_site_fract_z
Cl10 Cl 0.79188(8) 0.000 0.000
Cu10 Cu 0.69955(4) 0.000 0.000
N44 N 0.6895(3) 0.0530(3) 0.0533(3)
Cu12 Cu 0.30045(4) 0.000 0.000
Cu13 Cu -0.000 0.30045(4) 0.000
Cu14 Cu 0.000 0.69955(4) 0.000
C1 C 0.2419(4) 0.0852(4) 0.5505(4)
H1 H 0.2575 0.0527 0.548
H2 H 0.2631 0.1059 0.5712
C2 C 0.1935(4) 0.0796(4) 0.5751(5)
H3 H 0.1983 0.0707 0.6098
H4 H 0.1746 0.0533 0.5592
C3 C 0.2867(3) 0.1315(4) 0.4846(4)
H5 H 0.2884 0.1334 0.4485
H6 H 0.3144 0.1113 0.4961
C4 C 0.2909(3) 0.1840(3) 0.5067(5)
H7 H 0.2955 0.1819 0.5425
H8 H 0.3195 0.201 0.4927
C5 C 0.2227(4) 0.0698(4) 0.4646(4)
H9 H 0.1981 0.0487 0.4806
H10 H 0.2509 0.0491 0.4555
C6 C 0.2007(5) 0.0919(5) 0.4187(4)
H11 H 0.2271 0.1044 0.3976
H12 H 0.183 0.0662 0.4004
C7 C 0.1136(3) 0.1186(4) 0.4223(4)
H13 H 0.0926 0.1464 0.432
H14 H 0.1054 0.0907 0.4438
C8 C 0.0676(3) 0.0668(3) 0.3597(3)
H15 H 0.0542 0.0494 0.3865
C9 C 0.1015(3) 0.1046(3) 0.3694(4)
C10 C 0.1234(3) 0.1274(4) 0.3274(4)
H16 H 0.1476 0.1518 0.3319
C11 C 0.1092(5) 0.1139(5) 0.2796(4)
H17 H 0.1224 0.1301 0.252
C12 C 0.0745(4) 0.0755(4) 0.2737(3)
H18 H 0.0665 0.0647 0.2418
C13 C 0.1129(3) 0.1210(4) 0.5825(4)
H19 H 0.0995 0.0959 0.5602
H20 H 0.0959 0.1521 0.5753
C14 C 0.0670(3) 0.0681(4) 0.6441(3)
H21 H 0.053 0.0521 0.6167
C15 C 0.1015(3) 0.1061(4) 0.6352(3)
C16 C 0.1211(5) 0.1297(5) 0.6750(4)
H22 H 0.1425 0.1566 0.6709
C17 C 0.1086(6) 0.1130(7) 0.7222(5)
H23 H 0.1242 0.1267 0.7499
C18 C 0.0744(4) 0.0775(5) 0.7282(4)
H24 H 0.0648 0.0689 0.7604
C19 C 0.2412(5) 0.2612(4) 0.5160(5)
H25 H 0.2314 0.2578 0.5506
H26 H 0.2141 0.2778 0.4989
C20 C 0.3019(6) 0.3099(6) 0.5585(7)
H27 H 0.2859 0.2984 0.587
C21 C 0.2851(5) 0.2945(4) 0.5143(5)
C22 C 0.3076(9) 0.3131(7) 0.4711(9)
H28 H 0.2964 0.3043 0.4395
C23 C 0.3493(14) 0.3468(8) 0.4781(9)
H29 H 0.3665 0.3615 0.4519
C24 C 0.3604(7) 0.3546(7) 0.5255(7)
H30 H 0.3886 0.3743 0.5299
N1 N 0.23903(19) 0.10774(19) 0.4995(3)
N2 N 0.1661(3) 0.1273(3) 0.5716(2)
H31 H 0.1795 0.149 0.5977
N3 N 0.2455(3) 0.2118(3) 0.4955(5)
H32 H 0.2477 0.2177 0.4595
N4 N 0.1663(3) 0.1324(3) 0.4305(3)
H33 H 0.1736 0.1592 0.4068
N5 N 0.0527(3) 0.0539(3) 0.3128(3)
N6 N 0.0530(3) 0.0533(3) 0.6895(3)
N7 N 0.3415(5) 0.3416(4) 0.5642(5)
Cl1 Cl 0.12676(7) 0.21857(7) 0.50315(10)
Cl2 Cl -0.000 0.000 0.20812(8)
Cl3 Cl 0.3113(2) 0.3113(2) 0.6887(2)
Cu1 Cu 0.18552(3) 0.16063(3) 0.50221(5)
Cu2 Cu 0.000 0.000 0.30045(4)
Cu3 Cu 0.36386(12) 0.36386(12) 0.63614(12)
Cl7 Cl 0.000 0.000 0.79188(8)
Cu7 Cu 0.000 0.000 0.69955(4)
C97 C 0.4495(4) 0.2419(4) 0.9148(4)
H133 H 0.452 0.2575 0.9473
H134 H 0.4288 0.2631 0.8941
C98 C 0.4249(5) 0.1935(4) 0.9204(4)
H135 H 0.3902 0.1983 0.9293
H136 H 0.4408 0.1746 0.9467
C99 C 0.5154(4) 0.2867(3) 0.8685(4)
H137 H 0.5515 0.2884 0.8666
H138 H 0.5039 0.3144 0.8887
C100 C 0.4933(5) 0.2909(3) 0.8160(3)
H139 H 0.4575 0.2955 0.8181
H140 H 0.5073 0.3195 0.799
C101 C 0.5354(4) 0.2227(4) 0.9302(4)
H141 H 0.5194 0.1981 0.9513
H142 H 0.5445 0.2509 0.9509
C102 C 0.5813(4) 0.2007(5) 0.9081(5)
H143 H 0.6024 0.2271 0.8956
H144 H 0.5996 0.183 0.9338
C103 C 0.5777(4) 0.1136(3) 0.8814(4)
H145 H 0.568 0.0926 0.8536
H146 H 0.5562 0.1054 0.9093
C104 C 0.6403(3) 0.0676(3) 0.9332(3)
H147 H 0.6135 0.0542 0.9506
C105 C 0.6306(4) 0.1015(3) 0.8954(3)
C106 C 0.6726(4) 0.1234(3) 0.8726(4)
H148 H 0.6681 0.1476 0.8482
C107 C 0.7204(4) 0.1092(5) 0.8861(5)
H149 H 0.748 0.1224 0.8699
C108 C 0.7263(3) 0.0745(4) 0.9245(4)
H150 H 0.7582 0.0665 0.9353
C109 C 0.4175(4) 0.1129(3) 0.8790(4)
H151 H 0.4398 0.0995 0.9041
H152 H 0.4247 0.0959 0.8479
C110 C 0.3559(3) 0.0670(3) 0.9319(4)
H153 H 0.3833 0.053 0.9479
C111 C 0.3648(3) 0.1015(3) 0.8939(4)
C112 C 0.3250(4) 0.1211(5) 0.8703(5)
H154 H 0.3291 0.1425 0.8434
C113 C 0.2778(5) 0.1086(6) 0.8870(7)
H155 H 0.2501 0.1242 0.8733
C114 C 0.2718(4) 0.0744(4) 0.9225(5)
H156 H 0.2396 0.0648 0.9311
C115 C 0.4840(5) 0.2412(5) 0.7388(4)
H157 H 0.4494 0.2314 0.7422
H158 H 0.5011 0.2141 0.7222
C116 C 0.4415(7) 0.3019(6) 0.6901(6)
H159 H 0.413 0.2859 0.7016
C117 C 0.4857(5) 0.2851(5) 0.7055(4)
C118 C 0.5289(9) 0.3076(9) 0.6869(7)
H160 H 0.5605 0.2964 0.6957
C119 C 0.5219(9) 0.3493(14) 0.6532(8)
H161 H 0.5481 0.3665 0.6385
C120 C 0.4745(7) 0.3604(7) 0.6454(7)
H162 H 0.4701 0.3886 0.6257
N29 N 0.5005(3) 0.23903(19) 0.89226(19)
N30 N 0.4284(2) 0.1661(3) 0.8727(3)
H163 H 0.4023 0.1795 0.851
N31 N 0.5045(5) 0.2455(3) 0.7882(3)
H164 H 0.5405 0.2477 0.7823
N32 N 0.5695(3) 0.1663(3) 0.8676(3)
H165 H 0.5932 0.1736 0.8408
N33 N 0.6872(3) 0.0527(3) 0.9461(3)
N34 N 0.3105(3) 0.0530(3) 0.9467(3)
N35 N 0.4358(5) 0.3415(5) 0.6584(4)
Cl9 Cl 0.49685(10) 0.12676(7) 0.78143(7)
Cl10_2 Cl 0.79188(8) 0.000 1.000
Cu9 Cu 0.49779(5) 0.18552(3) 0.83937(3)
Cu10_2 Cu 0.69955(4) 0.000 1.000
C121 C 0.0852(4) 0.4495(4) 0.7581(4)
H166 H 0.0527 0.452 0.7425
H167 H 0.1059 0.4288 0.7369
C122 C 0.0796(4) 0.4249(5) 0.8065(4)
H168 H 0.0707 0.3902 0.8017
H169 H 0.0533 0.4408 0.8254
C123 C 0.1315(4) 0.5154(4) 0.7133(3)
H170 H 0.1334 0.5515 0.7116
H171 H 0.1113 0.5039 0.6856
C124 C 0.1840(3) 0.4933(5) 0.7091(3)
H172 H 0.1819 0.4575 0.7045
H173 H 0.201 0.5073 0.6805
C125 C 0.0698(4) 0.5354(4) 0.7773(4)
H174 H 0.0487 0.5194 0.8019
H175 H 0.0491 0.5445 0.7491
C126 C 0.0919(5) 0.5813(4) 0.7993(5)
H176 H 0.1044 0.6024 0.7729
H177 H 0.0662 0.5996 0.817
C127 C 0.1186(4) 0.5777(4) 0.8864(3)
H178 H 0.1464 0.568 0.9074
H179 H 0.0907 0.5562 0.8946
C128 C 0.0668(3) 0.6403(3) 0.9324(3)
H180 H 0.0494 0.6135 0.9458
C129 C 0.1046(3) 0.6306(4) 0.8985(3)
C130 C 0.1274(4) 0.6726(4) 0.8766(3)
H181 H 0.1518 0.6681 0.8524
C131 C 0.1139(5) 0.7204(4) 0.8908(5)
H182 H 0.1301 0.748 0.8776
C132 C 0.0755(4) 0.7263(3) 0.9255(4)
H183 H 0.0647 0.7582 0.9335
C133 C 0.1210(4) 0.4175(4) 0.8871(3)
H184 H 0.0959 0.4398 0.9005
H185 H 0.1521 0.4247 0.9041
C134 C 0.0681(4) 0.3559(3) 0.9330(3)
H186 H 0.0521 0.3833 0.947
C135 C 0.1061(4) 0.3648(3) 0.8985(3)
C136 C 0.1297(5) 0.3250(4) 0.8789(5)
H187 H 0.1566 0.3291 0.8575
C137 C 0.1130(7) 0.2778(5) 0.8914(6)
H188 H 0.1267 0.2501 0.8758
C138 C 0.0775(5) 0.2718(4) 0.9256(4)
H189 H 0.0689 0.2396 0.9352
C139 C 0.2612(4) 0.4840(5) 0.7588(5)
H190 H 0.2578 0.4494 0.7686
H191 H 0.2778 0.5011 0.7859
C140 C 0.3099(6) 0.4415(7) 0.6981(6)
H192 H 0.2984 0.413 0.7141
C141 C 0.2945(4) 0.4857(5) 0.7149(5)
C142 C 0.3131(7) 0.5289(9) 0.6924(9)
H193 H 0.3043 0.5605 0.7036
C143 C 0.3468(8) 0.5219(9) 0.6507(14)
H194 H 0.3615 0.5481 0.6335
C144 C 0.3546(7) 0.4745(7) 0.6396(7)
H195 H 0.3743 0.4701 0.6114
N36 N 0.10774(19) 0.5005(3) 0.76097(19)
N37 N 0.1273(3) 0.4284(2) 0.8339(3)
H196 H 0.149 0.4023 0.8205
N38 N 0.2118(3) 0.5045(5) 0.7545(3)
H197 H 0.2177 0.5405 0.7523
N39 N 0.1324(3) 0.5695(3) 0.8337(3)
H198 H 0.1592 0.5932 0.8264
N40 N 0.0539(3) 0.6872(3) 0.9473(3)
N41 N 0.0533(3) 0.3105(3) 0.9470(3)
N42 N 0.3416(4) 0.4358(5) 0.6585(5)
Cl11 Cl 0.21857(7) 0.49685(10) 0.87324(7)
Cu11 Cu 0.16063(3) 0.49779(5) 0.81448(3)
Cu12_2 Cu 0.30045(4) 0.000 1.000
Cu13_2 Cu -0.000 0.30045(4) 1.000
Cu14_2 Cu 0.000 0.69955(4) 1.000
Cl10_3 Cl 0.79188(8) 1.000 0.000
Cu10_3 Cu 0.69955(4) 1.000 0.000
N43 N 0.6872(3) 0.9473(3) 0.0539(3)
Cu12_3 Cu 0.30045(4) 1.000 0.000
Cl2_2 Cl 0.000 1.000 0.20812(8)
Cu2_2 Cu -0.000 1.000 0.30045(4)
C49 C 0.2419(4) 0.9148(4) 0.4495(4)
H67 H 0.2575 0.9473 0.452
H68 H 0.2631 0.8941 0.4288
C50 C 0.1935(4) 0.9204(4) 0.4249(5)
H69 H 0.1983 0.9293 0.3902
H70 H 0.1746 0.9467 0.4408
C51 C 0.2867(3) 0.8685(4) 0.5154(4)
H71 H 0.2884 0.8666 0.5515
H72 H 0.3144 0.8887 0.5039
C52 C 0.2909(3) 0.8160(3) 0.4933(5)
H73 H 0.2955 0.8181 0.4575
H74 H 0.3195 0.799 0.5073
C53 C 0.2227(4) 0.9302(4) 0.5354(4)
H75 H 0.1981 0.9513 0.5194
H76 H 0.2509 0.9509 0.5445
C54 C 0.2007(5) 0.9081(5) 0.5813(4)
H77 H 0.2271 0.8956 0.6024
H78 H 0.183 0.9338 0.5996
C55 C 0.1136(3) 0.8814(4) 0.5777(4)
H79 H 0.0926 0.8536 0.568
H80 H 0.1054 0.9093 0.5562
C56 C 0.0676(3) 0.9332(3) 0.6403(3)
H81 H 0.0542 0.9506 0.6135
C57 C 0.1015(3) 0.8954(3) 0.6306(4)
C58 C 0.1234(3) 0.8726(4) 0.6726(4)
H82 H 0.1476 0.8482 0.6681
C59 C 0.1092(5) 0.8861(5) 0.7204(4)
H83 H 0.1224 0.8699 0.748
C60 C 0.0745(4) 0.9245(4) 0.7263(3)
H84 H 0.0665 0.9353 0.7582
C61 C 0.1129(3) 0.8790(4) 0.4175(4)
H85 H 0.0995 0.9041 0.4398
H86 H 0.0959 0.8479 0.4247
C62 C 0.0670(3) 0.9319(4) 0.3559(3)
H87 H 0.053 0.9479 0.3833
C63 C 0.1015(3) 0.8939(4) 0.3648(3)
C64 C 0.1211(5) 0.8703(5) 0.3250(4)
H88 H 0.1425 0.8434 0.3291
C65 C 0.1086(6) 0.8870(7) 0.2778(5)
H89 H 0.1242 0.8733 0.2501
C66 C 0.0744(4) 0.9225(5) 0.2718(4)
H90 H 0.0648 0.9311 0.2396
C67 C 0.2412(5) 0.7388(4) 0.4840(5)
H91 H 0.2314 0.7422 0.4494
H92 H 0.2141 0.7222 0.5011
C68 C 0.3019(6) 0.6901(6) 0.4415(7)
H93 H 0.2859 0.7016 0.413
C69 C 0.2851(5) 0.7055(4) 0.4857(5)
C70 C 0.3076(9) 0.6869(7) 0.5289(9)
H94 H 0.2964 0.6957 0.5605
C71 C 0.3493(14) 0.6532(8) 0.5219(9)
H95 H 0.3665 0.6385 0.5481
C72 C 0.3604(7) 0.6454(7) 0.4745(7)
H96 H 0.3886 0.6257 0.4701
N15 N 0.23903(19) 0.89226(19) 0.5005(3)
N16 N 0.1661(3) 0.8727(3) 0.4284(2)
H97 H 0.1795 0.851 0.4023
N17 N 0.2455(3) 0.7882(3) 0.5045(5)
H98 H 0.2477 0.7823 0.5405
N18 N 0.1663(3) 0.8676(3) 0.5695(3)
H99 H 0.1736 0.8408 0.5932
N19 N 0.0527(3) 0.9461(3) 0.6872(3)
N20 N 0.0530(3) 0.9467(3) 0.3105(3)
N21 N 0.3415(5) 0.6584(4) 0.4358(5)
Cl6 Cl 0.12676(7) 0.78143(7) 0.49685(10)
Cl7_2 Cl 0.000 1.000 0.79188(8)
Cu6 Cu 0.18552(3) 0.83937(3) 0.49779(5)
Cu7_2 Cu 0.000 1.000 0.69955(4)
Cl10_4 Cl 0.79188(8) 1.000 1.000
Cu10_4 Cu 0.69955(4) 1.000 1.000
N45 N 0.6895(3) 0.9470(3) 0.9467(3)
Cu12_4 Cu 0.30045(4) 1.000 1.000
Cu15 Cu 0.36386(12) 0.63614(12) 0.36386(12)
Cu13_3 Cu 1.000 0.30045(4) 0.000
Cu14_3 Cu 1.000 0.69955(4) 0.000
Cl2_3 Cl 1.000 0.000 0.20812(8)
Cu2_3 Cu 1.000 0.000 0.30045(4)
Cl7_3 Cl 1.000 0.000 0.79188(8)
Cu7_3 Cu 1.000 0.000 0.69955(4)
C73 C 0.7581(4) 0.0852(4) 0.4495(4)
H100 H 0.7425 0.0527 0.452
H101 H 0.7369 0.1059 0.4288
C74 C 0.8065(4) 0.0796(4) 0.4249(5)
H102 H 0.8017 0.0707 0.3902
H103 H 0.8254 0.0533 0.4408
C75 C 0.7133(3) 0.1315(4) 0.5154(4)
H104 H 0.7116 0.1334 0.5515
H105 H 0.6856 0.1113 0.5039
C76 C 0.7091(3) 0.1840(3) 0.4933(5)
H106 H 0.7045 0.1819 0.4575
H107 H 0.6805 0.201 0.5073
C77 C 0.7773(4) 0.0698(4) 0.5354(4)
H108 H 0.8019 0.0487 0.5194
H109 H 0.7491 0.0491 0.5445
C78 C 0.7993(5) 0.0919(5) 0.5813(4)
H110 H 0.7729 0.1044 0.6024
H111 H 0.817 0.0662 0.5996
C79 C 0.8864(3) 0.1186(4) 0.5777(4)
H112 H 0.9074 0.1464 0.568
H113 H 0.8946 0.0907 0.5562
C80 C 0.9324(3) 0.0668(3) 0.6403(3)
H114 H 0.9458 0.0494 0.6135
C81 C 0.8985(3) 0.1046(3) 0.6306(4)
C82 C 0.8766(3) 0.1274(4) 0.6726(4)
H115 H 0.8524 0.1518 0.6681
C83 C 0.8908(5) 0.1139(5) 0.7204(4)
H116 H 0.8776 0.1301 0.748
C84 C 0.9255(4) 0.0755(4) 0.7263(3)
H117 H 0.9335 0.0647 0.7582
C85 C 0.8871(3) 0.1210(4) 0.4175(4)
H118 H 0.9005 0.0959 0.4398
H119 H 0.9041 0.1521 0.4247
C86 C 0.9330(3) 0.0681(4) 0.3559(3)
H120 H 0.947 0.0521 0.3833
C87 C 0.8985(3) 0.1061(4) 0.3648(3)
C88 C 0.8789(5) 0.1297(5) 0.3250(4)
H121 H 0.8575 0.1566 0.3291
C89 C 0.8914(6) 0.1130(7) 0.2778(5)
H122 H 0.8758 0.1267 0.2501
C90 C 0.9256(4) 0.0775(5) 0.2718(4)
H123 H 0.9352 0.0689 0.2396
C91 C 0.7588(5) 0.2612(4) 0.4840(5)
H124 H 0.7686 0.2578 0.4494
H125 H 0.7859 0.2778 0.5011
C92 C 0.6981(6) 0.3099(6) 0.4415(7)
H126 H 0.7141 0.2984 0.413
C93 C 0.7149(5) 0.2945(4) 0.4857(5)
C94 C 0.6924(9) 0.3131(7) 0.5289(9)
H127 H 0.7036 0.3043 0.5605
C95 C 0.6507(14) 0.3468(8) 0.5219(9)
H128 H 0.6335 0.3615 0.5481
C96 C 0.6396(7) 0.3546(7) 0.4745(7)
H129 H 0.6114 0.3743 0.4701
N22 N 0.76097(19) 0.10774(19) 0.5005(3)
N23 N 0.8339(3) 0.1273(3) 0.4284(2)
H130 H 0.8205 0.149 0.4023
N24 N 0.7545(3) 0.2118(3) 0.5045(5)
H131 H 0.7523 0.2177 0.5405
N25 N 0.8337(3) 0.1324(3) 0.5695(3)
H132 H 0.8264 0.1592 0.5932
N26 N 0.9473(3) 0.0539(3) 0.6872(3)
N27 N 0.9470(3) 0.0533(3) 0.3105(3)
N28 N 0.6585(5) 0.3416(4) 0.4358(5)
Cl8 Cl 0.87324(7) 0.21857(7) 0.49685(10)
Cu8 Cu 0.81448(3) 0.16063(3) 0.49779(5)
Cu13_4 Cu 1.000 0.30045(4) 1.000
Cu14_4 Cu 1.000 0.69955(4) 1.000
Cu16 Cu 0.63614(12) 0.36386(12) 0.36386(12)
Cl2_4 Cl 1.000 1.000 0.20812(8)
Cu2_4 Cu 1.000 1.000 0.30045(4)
C25 C 0.7581(4) 0.9148(4) 0.5505(4)
H34 H 0.7425 0.9473 0.548
H35 H 0.7369 0.8941 0.5712
C26 C 0.8065(4) 0.9204(4) 0.5751(5)
H36 H 0.8017 0.9293 0.6098
H37 H 0.8254 0.9467 0.5592
C27 C 0.7133(3) 0.8685(4) 0.4846(4)
H38 H 0.7116 0.8666 0.4485
H39 H 0.6856 0.8887 0.4961
C28 C 0.7091(3) 0.8160(3) 0.5067(5)
H40 H 0.7045 0.8181 0.5425
H41 H 0.6805 0.799 0.4927
C29 C 0.7773(4) 0.9302(4) 0.4646(4)
H42 H 0.8019 0.9513 0.4806
H43 H 0.7491 0.9509 0.4555
C30 C 0.7993(5) 0.9081(5) 0.4187(4)
H44 H 0.7729 0.8956 0.3976
H45 H 0.817 0.9338 0.4004
C31 C 0.8864(3) 0.8814(4) 0.4223(4)
H46 H 0.9074 0.8536 0.432
H47 H 0.8946 0.9093 0.4438
C32 C 0.9324(3) 0.9332(3) 0.3597(3)
H48 H 0.9458 0.9506 0.3865
C33 C 0.8985(3) 0.8954(3) 0.3694(4)
C34 C 0.8766(3) 0.8726(4) 0.3274(4)
H49 H 0.8524 0.8482 0.3319
C35 C 0.8908(5) 0.8861(5) 0.2796(4)
H50 H 0.8776 0.8699 0.252
C36 C 0.9255(4) 0.9245(4) 0.2737(3)
H51 H 0.9335 0.9353 0.2418
C37 C 0.8871(3) 0.8790(4) 0.5825(4)
H52 H 0.9005 0.9041 0.5602
H53 H 0.9041 0.8479 0.5753
C38 C 0.9330(3) 0.9319(4) 0.6441(3)
H54 H 0.947 0.9479 0.6167
C39 C 0.8985(3) 0.8939(4) 0.6352(3)
C40 C 0.8789(5) 0.8703(5) 0.6750(4)
H55 H 0.8575 0.8434 0.6709
C41 C 0.8914(6) 0.8870(7) 0.7222(5)
H56 H 0.8758 0.8733 0.7499
C42 C 0.9256(4) 0.9225(5) 0.7282(4)
H57 H 0.9352 0.9311 0.7604
C43 C 0.7588(5) 0.7388(4) 0.5160(5)
H58 H 0.7686 0.7422 0.5506
H59 H 0.7859 0.7222 0.4989
C44 C 0.6981(6) 0.6901(6) 0.5585(7)
H60 H 0.7141 0.7016 0.587
C45 C 0.7149(5) 0.7055(4) 0.5143(5)
C46 C 0.6924(9) 0.6869(7) 0.4711(9)
H61 H 0.7036 0.6957 0.4395
C47 C 0.6507(14) 0.6532(8) 0.4781(9)
H62 H 0.6335 0.6385 0.4519
C48 C 0.6396(7) 0.6454(7) 0.5255(7)
H63 H 0.6114 0.6257 0.5299
N8 N 0.76097(19) 0.89226(19) 0.4995(3)
N9 N 0.8339(3) 0.8727(3) 0.5716(2)
H64 H 0.8205 0.851 0.5977
N10 N 0.7545(3) 0.7882(3) 0.4955(5)
H65 H 0.7523 0.7823 0.4595
N11 N 0.8337(3) 0.8676(3) 0.4305(3)
H66 H 0.8264 0.8408 0.4068
N12 N 0.9473(3) 0.9461(3) 0.3128(3)
N13 N 0.9470(3) 0.9467(3) 0.6895(3)
N14 N 0.6585(5) 0.6584(4) 0.5642(5)
Cl4 Cl 0.87324(7) 0.78143(7) 0.50315(10)
Cl5 Cl 0.6887(2) 0.6887(2) 0.6887(2)
Cu4 Cu 0.81448(3) 0.83937(3) 0.50221(5)
Cu5 Cu 0.63614(12) 0.63614(12) 0.63614(12)
Cl7_4 Cl 1.000 1.000 0.79188(8)
Cu7_4 Cu 1.000 1.000 0.69955(4)
N46 N 0.6584(4) 0.5642(5) 0.6585(5)
N47 N 0.5642(5) 0.6585(5) 0.6584(4)
Cl10_5 Cl 0.20812(8) 0.000 0.000
N43_2 N 0.3128(3) 0.0527(3) 0.0539(3)
Cl10_6 Cl 0.20812(8) 0.000 1.000
Cl10_7 Cl 0.20812(8) 1.000 0.000
N44_2 N 0.3105(3) 0.9470(3) 0.0533(3)
C97_2 C 0.5505(4) 0.7581(4) 0.9148(4)
H133_2 H 0.548 0.7425 0.9473
H134_2 H 0.5712 0.7369 0.8941
C98_2 C 0.5751(5) 0.8065(4) 0.9204(4)
H135_2 H 0.6098 0.8017 0.9293
H136_2 H 0.5592 0.8254 0.9467
C99_2 C 0.4846(4) 0.7133(3) 0.8685(4)
H137_2 H 0.4485 0.7116 0.8666
H138_2 H 0.4961 0.6856 0.8887
C100_2 C 0.5067(5) 0.7091(3) 0.8160(3)
H139_2 H 0.5425 0.7045 0.8181
H140_2 H 0.4927 0.6805 0.799
C101_2 C 0.4646(4) 0.7773(4) 0.9302(4)
H141_2 H 0.4806 0.8019 0.9513
H142_2 H 0.4555 0.7491 0.9509
C102_2 C 0.4187(4) 0.7993(5) 0.9081(5)
H143_2 H 0.3976 0.7729 0.8956
H144_2 H 0.4004 0.817 0.9338
C103_2 C 0.4223(4) 0.8864(3) 0.8814(4)
H145_2 H 0.432 0.9074 0.8536
H146_2 H 0.4438 0.8946 0.9093
C104_2 C 0.3597(3) 0.9324(3) 0.9332(3)
H147_2 H 0.3865 0.9458 0.9506
C105_2 C 0.3694(4) 0.8985(3) 0.8954(3)
C106_2 C 0.3274(4) 0.8766(3) 0.8726(4)
H148_2 H 0.3319 0.8524 0.8482
C107_2 C 0.2796(4) 0.8908(5) 0.8861(5)
H149_2 H 0.252 0.8776 0.8699
C108_2 C 0.2737(3) 0.9255(4) 0.9245(4)
H150_2 H 0.2418 0.9335 0.9353
C109_2 C 0.5825(4) 0.8871(3) 0.8790(4)
H151_2 H 0.5602 0.9005 0.9041
H152_2 H 0.5753 0.9041 0.8479
C110_2 C 0.6441(3) 0.9330(3) 0.9319(4)
H153_2 H 0.6167 0.947 0.9479
C111_2 C 0.6352(3) 0.8985(3) 0.8939(4)
C112_2 C 0.6750(4) 0.8789(5) 0.8703(5)
H154_2 H 0.6709 0.8575 0.8434
C113_2 C 0.7222(5) 0.8914(6) 0.8870(7)
H155_2 H 0.7499 0.8758 0.8733
C114_2 C 0.7282(4) 0.9256(4) 0.9225(5)
H156_2 H 0.7604 0.9352 0.9311
C115_2 C 0.5160(5) 0.7588(5) 0.7388(4)
H157_2 H 0.5506 0.7686 0.7422
H158_2 H 0.4989 0.7859 0.7222
C116_2 C 0.5585(7) 0.6981(6) 0.6901(6)
H159_2 H 0.587 0.7141 0.7016
C117_2 C 0.5143(5) 0.7149(5) 0.7055(4)
C118_2 C 0.4711(9) 0.6924(9) 0.6869(7)
H160_2 H 0.4395 0.7036 0.6957
C119_2 C 0.4781(9) 0.6507(14) 0.6532(8)
H161_2 H 0.4519 0.6335 0.6385
C120_2 C 0.5255(7) 0.6396(7) 0.6454(7)
H162_2 H 0.5299 0.6114 0.6257
N29_2 N 0.4995(3) 0.76097(19) 0.89226(19)
N30_2 N 0.5716(2) 0.8339(3) 0.8727(3)
H163_2 H 0.5977 0.8205 0.851
N31_2 N 0.4955(5) 0.7545(3) 0.7882(3)
H164_2 H 0.4595 0.7523 0.7823
N32_2 N 0.4305(3) 0.8337(3) 0.8676(3)
H165_2 H 0.4068 0.8264 0.8408
N33_2 N 0.3128(3) 0.9473(3) 0.9461(3)
Cl9_2 Cl 0.50315(10) 0.87324(7) 0.78143(7)
Cl10_8 Cl 0.20812(8) 1.000 1.000
Cu9_2 Cu 0.50221(5) 0.81448(3) 0.83937(3)
C121_2 C 0.9148(4) 0.5505(4) 0.7581(4)
H166_2 H 0.9473 0.548 0.7425
H167_2 H 0.8941 0.5712 0.7369
C122_2 C 0.9204(4) 0.5751(5) 0.8065(4)
H168_2 H 0.9293 0.6098 0.8017
H169_2 H 0.9467 0.5592 0.8254
C123_2 C 0.8685(4) 0.4846(4) 0.7133(3)
H170_2 H 0.8666 0.4485 0.7116
H171_2 H 0.8887 0.4961 0.6856
C124_2 C 0.8160(3) 0.5067(5) 0.7091(3)
H172_2 H 0.8181 0.5425 0.7045
H173_2 H 0.799 0.4927 0.6805
C125_2 C 0.9302(4) 0.4646(4) 0.7773(4)
H174_2 H 0.9513 0.4806 0.8019
H175_2 H 0.9509 0.4555 0.7491
C126_2 C 0.9081(5) 0.4187(4) 0.7993(5)
H176_2 H 0.8956 0.3976 0.7729
H177_2 H 0.9338 0.4004 0.817
C127_2 C 0.8814(4) 0.4223(4) 0.8864(3)
H178_2 H 0.8536 0.432 0.9074
H179_2 H 0.9093 0.4438 0.8946
C128_2 C 0.9332(3) 0.3597(3) 0.9324(3)
H180_2 H 0.9506 0.3865 0.9458
C129_2 C 0.8954(3) 0.3694(4) 0.8985(3)
C130_2 C 0.8726(4) 0.3274(4) 0.8766(3)
H181_2 H 0.8482 0.3319 0.8524
C131_2 C 0.8861(5) 0.2796(4) 0.8908(5)
H182_2 H 0.8699 0.252 0.8776
C132_2 C 0.9245(4) 0.2737(3) 0.9255(4)
H183_2 H 0.9353 0.2418 0.9335
C133_2 C 0.8790(4) 0.5825(4) 0.8871(3)
H184_2 H 0.9041 0.5602 0.9005
H185_2 H 0.8479 0.5753 0.9041
C134_2 C 0.9319(4) 0.6441(3) 0.9330(3)
H186_2 H 0.9479 0.6167 0.947
C135_2 C 0.8939(4) 0.6352(3) 0.8985(3)
C136_2 C 0.8703(5) 0.6750(4) 0.8789(5)
H187_2 H 0.8434 0.6709 0.8575
C137_2 C 0.8870(7) 0.7222(5) 0.8914(6)
H188_2 H 0.8733 0.7499 0.8758
C138_2 C 0.9225(5) 0.7282(4) 0.9256(4)
H189_2 H 0.9311 0.7604 0.9352
C139_2 C 0.7388(4) 0.5160(5) 0.7588(5)
H190_2 H 0.7422 0.5506 0.7686
H191_2 H 0.7222 0.4989 0.7859
C140_2 C 0.6901(6) 0.5585(7) 0.6981(6)
H192_2 H 0.7016 0.587 0.7141
C141_2 C 0.7055(4) 0.5143(5) 0.7149(5)
C142_2 C 0.6869(7) 0.4711(9) 0.6924(9)
H193_2 H 0.6957 0.4395 0.7036
C143_2 C 0.6532(8) 0.4781(9) 0.6507(14)
H194_2 H 0.6385 0.4519 0.6335
C144_2 C 0.6454(7) 0.5255(7) 0.6396(7)
H195_2 H 0.6257 0.5299 0.6114
N36_2 N 0.89226(19) 0.4995(3) 0.76097(19)
N37_2 N 0.8727(3) 0.5716(2) 0.8339(3)
H196_2 H 0.851 0.5977 0.8205
N38_2 N 0.7882(3) 0.4955(5) 0.7545(3)
H197_2 H 0.7823 0.4595 0.7523
N39_2 N 0.8676(3) 0.4305(3) 0.8337(3)
H198_2 H 0.8408 0.4068 0.8264
N40_2 N 0.9461(3) 0.3128(3) 0.9473(3)
N41_2 N 0.9467(3) 0.6895(3) 0.9470(3)
Cl11_2 Cl 0.78143(7) 0.50315(10) 0.87324(7)
Cu11_2 Cu 0.83937(3) 0.50221(5) 0.81448(3)
Cl3_2 Cl 0.3113(2) 0.6887(2) 0.3113(2)
C97_3 C 0.4495(4) 0.7581(4) 0.0852(4)
H133_3 H 0.452 0.7425 0.0527
H134_3 H 0.4288 0.7369 0.1059
C98_3 C 0.4249(5) 0.8065(4) 0.0796(4)
H135_3 H 0.3902 0.8017 0.0707
H136_3 H 0.4408 0.8254 0.0533
C99_3 C 0.5154(4) 0.7133(3) 0.1315(4)
H137_3 H 0.5515 0.7116 0.1334
H138_3 H 0.5039 0.6856 0.1113
C100_3 C 0.4933(5) 0.7091(3) 0.1840(3)
H139_3 H 0.4575 0.7045 0.1819
H140_3 H 0.5073 0.6805 0.201
C101_3 C 0.5354(4) 0.7773(4) 0.0698(4)
H141_3 H 0.5194 0.8019 0.0487
H142_3 H 0.5445 0.7491 0.0491
C102_3 C 0.5813(4) 0.7993(5) 0.0919(5)
H143_3 H 0.6024 0.7729 0.1044
H144_3 H 0.5996 0.817 0.0662
C103_3 C 0.5777(4) 0.8864(3) 0.1186(4)
H145_3 H 0.568 0.9074 0.1464
H146_3 H 0.5562 0.8946 0.0907
C104_3 C 0.6403(3) 0.9324(3) 0.0668(3)
H147_3 H 0.6135 0.9458 0.0494
C105_3 C 0.6306(4) 0.8985(3) 0.1046(3)
C106_3 C 0.6726(4) 0.8766(3) 0.1274(4)
H148_3 H 0.6681 0.8524 0.1518
C107_3 C 0.7204(4) 0.8908(5) 0.1139(5)
H149_3 H 0.748 0.8776 0.1301
C108_3 C 0.7263(3) 0.9255(4) 0.0755(4)
H150_3 H 0.7582 0.9335 0.0647
C109_3 C 0.4175(4) 0.8871(3) 0.1210(4)
H151_3 H 0.4398 0.9005 0.0959
H152_3 H 0.4247 0.9041 0.1521
C110_3 C 0.3559(3) 0.9330(3) 0.0681(4)
H153_3 H 0.3833 0.947 0.0521
C111_3 C 0.3648(3) 0.8985(3) 0.1061(4)
C112_3 C 0.3250(4) 0.8789(5) 0.1297(5)
H154_3 H 0.3291 0.8575 0.1566
C113_3 C 0.2778(5) 0.8914(6) 0.1130(7)
H155_3 H 0.2501 0.8758 0.1267
C114_3 C 0.2718(4) 0.9256(4) 0.0775(5)
H156_3 H 0.2396 0.9352 0.0689
C115_3 C 0.4840(5) 0.7588(5) 0.2612(4)
H157_3 H 0.4494 0.7686 0.2578
H158_3 H 0.5011 0.7859 0.2778
C116_3 C 0.4415(7) 0.6981(6) 0.3099(6)
H159_3 H 0.413 0.7141 0.2984
C117_3 C 0.4857(5) 0.7149(5) 0.2945(4)
C118_3 C 0.5289(9) 0.6924(9) 0.3131(7)
H160_3 H 0.5605 0.7036 0.3043
C119_3 C 0.5219(9) 0.6507(14) 0.3468(8)
H161_3 H 0.5481 0.6335 0.3615
C120_3 C 0.4745(7) 0.6396(7) 0.3546(7)
H162_3 H 0.4701 0.6114 0.3743
N29_3 N 0.5005(3) 0.76097(19) 0.10774(19)
N30_3 N 0.4284(2) 0.8339(3) 0.1273(3)
H163_3 H 0.4023 0.8205 0.149
N31_3 N 0.5045(5) 0.7545(3) 0.2118(3)
H164_3 H 0.5405 0.7523 0.2177
N32_3 N 0.5695(3) 0.8337(3) 0.1324(3)
H165_3 H 0.5932 0.8264 0.1592
N35_2 N 0.4358(5) 0.6585(5) 0.3416(4)
Cl9_3 Cl 0.49685(10) 0.87324(7) 0.21857(7)
Cu9_3 Cu 0.49779(5) 0.81448(3) 0.16063(3)
C121_3 C 0.0852(4) 0.5505(4) 0.2419(4)
H166_3 H 0.0527 0.548 0.2575
H167_3 H 0.1059 0.5712 0.2631
C122_3 C 0.0796(4) 0.5751(5) 0.1935(4)
H168_3 H 0.0707 0.6098 0.1983
H169_3 H 0.0533 0.5592 0.1746
C123_3 C 0.1315(4) 0.4846(4) 0.2867(3)
H170_3 H 0.1334 0.4485 0.2884
H171_3 H 0.1113 0.4961 0.3144
C124_3 C 0.1840(3) 0.5067(5) 0.2909(3)
H172_3 H 0.1819 0.5425 0.2955
H173_3 H 0.201 0.4927 0.3195
C125_3 C 0.0698(4) 0.4646(4) 0.2227(4)
H174_3 H 0.0487 0.4806 0.1981
H175_3 H 0.0491 0.4555 0.2509
C126_3 C 0.0919(5) 0.4187(4) 0.2007(5)
H176_3 H 0.1044 0.3976 0.2271
H177_3 H 0.0662 0.4004 0.183
C127_3 C 0.1186(4) 0.4223(4) 0.1136(3)
H178_3 H 0.1464 0.432 0.0926
H179_3 H 0.0907 0.4438 0.1054
C128_3 C 0.0668(3) 0.3597(3) 0.0676(3)
H180_3 H 0.0494 0.3865 0.0542
C129_3 C 0.1046(3) 0.3694(4) 0.1015(3)
C130_3 C 0.1274(4) 0.3274(4) 0.1234(3)
H181_3 H 0.1518 0.3319 0.1476
C131_3 C 0.1139(5) 0.2796(4) 0.1092(5)
H182_3 H 0.1301 0.252 0.1224
C132_3 C 0.0755(4) 0.2737(3) 0.0745(4)
H183_3 H 0.0647 0.2418 0.0665
C133_3 C 0.1210(4) 0.5825(4) 0.1129(3)
H184_3 H 0.0959 0.5602 0.0995
H185_3 H 0.1521 0.5753 0.0959
C134_3 C 0.0681(4) 0.6441(3) 0.0670(3)
H186_3 H 0.0521 0.6167 0.053
C135_3 C 0.1061(4) 0.6352(3) 0.1015(3)
C136_3 C 0.1297(5) 0.6750(4) 0.1211(5)
H187_3 H 0.1566 0.6709 0.1425
C137_3 C 0.1130(7) 0.7222(5) 0.1086(6)
H188_3 H 0.1267 0.7499 0.1242
C138_3 C 0.0775(5) 0.7282(4) 0.0744(4)
H189_3 H 0.0689 0.7604 0.0648
C139_3 C 0.2612(4) 0.5160(5) 0.2412(5)
H190_3 H 0.2578 0.5506 0.2314
H191_3 H 0.2778 0.4989 0.2141
C140_3 C 0.3099(6) 0.5585(7) 0.3019(6)
H192_3 H 0.2984 0.587 0.2859
C141_3 C 0.2945(4) 0.5143(5) 0.2851(5)
C142_3 C 0.3131(7) 0.4711(9) 0.3076(9)
H193_3 H 0.3043 0.4395 0.2964
C143_3 C 0.3468(8) 0.4781(9) 0.3493(14)
H194_3 H 0.3615 0.4519 0.3665
C144_3 C 0.3546(7) 0.5255(7) 0.3604(7)
H195_3 H 0.3743 0.5299 0.3886
N36_3 N 0.10774(19) 0.4995(3) 0.23903(19)
N37_3 N 0.1273(3) 0.5716(2) 0.1661(3)
H196_3 H 0.149 0.5977 0.1795
N38_3 N 0.2118(3) 0.4955(5) 0.2455(3)
H197_3 H 0.2177 0.4595 0.2477
N39_3 N 0.1324(3) 0.4305(3) 0.1663(3)
H198_3 H 0.1592 0.4068 0.1736
N40_3 N 0.0539(3) 0.3128(3) 0.0527(3)
N41_3 N 0.0533(3) 0.6895(3) 0.0530(3)
N42_2 N 0.3416(4) 0.5642(5) 0.3415(5)
Cl11_3 Cl 0.21857(7) 0.50315(10) 0.12676(7)
Cu11_3 Cu 0.16063(3) 0.50221(5) 0.18552(3)
Cl5_2 Cl 0.6887(2) 0.3113(2) 0.3113(2)
N46_2 N 0.6584(4) 0.4358(5) 0.3415(5)
N47_2 N 0.5642(5) 0.3415(5) 0.3416(4)
C97_4 C 0.5505(4) 0.2419(4) 0.0852(4)
H133_4 H 0.548 0.2575 0.0527
H134_4 H 0.5712 0.2631 0.1059
C98_4 C 0.5751(5) 0.1935(4) 0.0796(4)
H135_4 H 0.6098 0.1983 0.0707
H136_4 H 0.5592 0.1746 0.0533
C99_4 C 0.4846(4) 0.2867(3) 0.1315(4)
H137_4 H 0.4485 0.2884 0.1334
H138_4 H 0.4961 0.3144 0.1113
C100_4 C 0.5067(5) 0.2909(3) 0.1840(3)
H139_4 H 0.5425 0.2955 0.1819
H140_4 H 0.4927 0.3195 0.201
C101_4 C 0.4646(4) 0.2227(4) 0.0698(4)
H141_4 H 0.4806 0.1981 0.0487
H142_4 H 0.4555 0.2509 0.0491
C102_4 C 0.4187(4) 0.2007(5) 0.0919(5)
H143_4 H 0.3976 0.2271 0.1044
H144_4 H 0.4004 0.183 0.0662
C103_4 C 0.4223(4) 0.1136(3) 0.1186(4)
H145_4 H 0.432 0.0926 0.1464
H146_4 H 0.4438 0.1054 0.0907
C104_4 C 0.3597(3) 0.0676(3) 0.0668(3)
H147_4 H 0.3865 0.0542 0.0494
C105_4 C 0.3694(4) 0.1015(3) 0.1046(3)
C106_4 C 0.3274(4) 0.1234(3) 0.1274(4)
H148_4 H 0.3319 0.1476 0.1518
C107_4 C 0.2796(4) 0.1092(5) 0.1139(5)
H149_4 H 0.252 0.1224 0.1301
C108_4 C 0.2737(3) 0.0745(4) 0.0755(4)
H150_4 H 0.2418 0.0665 0.0647
C109_4 C 0.5825(4) 0.1129(3) 0.1210(4)
H151_4 H 0.5602 0.0995 0.0959
H152_4 H 0.5753 0.0959 0.1521
C110_4 C 0.6441(3) 0.0670(3) 0.0681(4)
H153_4 H 0.6167 0.053 0.0521
C111_4 C 0.6352(3) 0.1015(3) 0.1061(4)
C112_4 C 0.6750(4) 0.1211(5) 0.1297(5)
H154_4 H 0.6709 0.1425 0.1566
C113_4 C 0.7222(5) 0.1086(6) 0.1130(7)
H155_4 H 0.7499 0.1242 0.1267
C114_4 C 0.7282(4) 0.0744(4) 0.0775(5)
H156_4 H 0.7604 0.0648 0.0689
C115_4 C 0.5160(5) 0.2412(5) 0.2612(4)
H157_4 H 0.5506 0.2314 0.2578
H158_4 H 0.4989 0.2141 0.2778
C116_4 C 0.5585(7) 0.3019(6) 0.3099(6)
H159_4 H 0.587 0.2859 0.2984
C117_4 C 0.5143(5) 0.2851(5) 0.2945(4)
C118_4 C 0.4711(9) 0.3076(9) 0.3131(7)
H160_4 H 0.4395 0.2964 0.3043
C119_4 C 0.4781(9) 0.3493(14) 0.3468(8)
H161_4 H 0.4519 0.3665 0.3615
C120_4 C 0.5255(7) 0.3604(7) 0.3546(7)
H162_4 H 0.5299 0.3886 0.3743
N29_4 N 0.4995(3) 0.23903(19) 0.10774(19)
N30_4 N 0.5716(2) 0.1661(3) 0.1273(3)
H163_4 H 0.5977 0.1795 0.149
N31_4 N 0.4955(5) 0.2455(3) 0.2118(3)
H164_4 H 0.4595 0.2477 0.2177
N32_4 N 0.4305(3) 0.1663(3) 0.1324(3)
H165_4 H 0.4068 0.1736 0.1592
Cl9_4 Cl 0.50315(10) 0.12676(7) 0.21857(7)
Cu9_4 Cu 0.50221(5) 0.18552(3) 0.16063(3)
C121_4 C 0.9148(4) 0.4495(4) 0.2419(4)
H166_4 H 0.9473 0.452 0.2575
H167_4 H 0.8941 0.4288 0.2631
C122_4 C 0.9204(4) 0.4249(5) 0.1935(4)
H168_4 H 0.9293 0.3902 0.1983
H169_4 H 0.9467 0.4408 0.1746
C123_4 C 0.8685(4) 0.5154(4) 0.2867(3)
H170_4 H 0.8666 0.5515 0.2884
H171_4 H 0.8887 0.5039 0.3144
C124_4 C 0.8160(3) 0.4933(5) 0.2909(3)
H172_4 H 0.8181 0.4575 0.2955
H173_4 H 0.799 0.5073 0.3195
C125_4 C 0.9302(4) 0.5354(4) 0.2227(4)
H174_4 H 0.9513 0.5194 0.1981
H175_4 H 0.9509 0.5445 0.2509
C126_4 C 0.9081(5) 0.5813(4) 0.2007(5)
H176_4 H 0.8956 0.6024 0.2271
H177_4 H 0.9338 0.5996 0.183
C127_4 C 0.8814(4) 0.5777(4) 0.1136(3)
H178_4 H 0.8536 0.568 0.0926
H179_4 H 0.9093 0.5562 0.1054
C128_4 C 0.9332(3) 0.6403(3) 0.0676(3)
H180_4 H 0.9506 0.6135 0.0542
C129_4 C 0.8954(3) 0.6306(4) 0.1015(3)
C130_4 C 0.8726(4) 0.6726(4) 0.1234(3)
H181_4 H 0.8482 0.6681 0.1476
C131_4 C 0.8861(5) 0.7204(4) 0.1092(5)
H182_4 H 0.8699 0.748 0.1224
C132_4 C 0.9245(4) 0.7263(3) 0.0745(4)
H183_4 H 0.9353 0.7582 0.0665
C133_4 C 0.8790(4) 0.4175(4) 0.1129(3)
H184_4 H 0.9041 0.4398 0.0995
H185_4 H 0.8479 0.4247 0.0959
C134_4 C 0.9319(4) 0.3559(3) 0.0670(3)
H186_4 H 0.9479 0.3833 0.053
C135_4 C 0.8939(4) 0.3648(3) 0.1015(3)
C136_4 C 0.8703(5) 0.3250(4) 0.1211(5)
H187_4 H 0.8434 0.3291 0.1425
C137_4 C 0.8870(7) 0.2778(5) 0.1086(6)
H188_4 H 0.8733 0.2501 0.1242
C138_4 C 0.9225(5) 0.2718(4) 0.0744(4)
H189_4 H 0.9311 0.2396 0.0648
C139_4 C 0.7388(4) 0.4840(5) 0.2412(5)
H190_4 H 0.7422 0.4494 0.2314
H191_4 H 0.7222 0.5011 0.2141
C140_4 C 0.6901(6) 0.4415(7) 0.3019(6)
H192_4 H 0.7016 0.413 0.2859
C141_4 C 0.7055(4) 0.4857(5) 0.2851(5)
C142_4 C 0.6869(7) 0.5289(9) 0.3076(9)
H193_4 H 0.6957 0.5605 0.2964
C143_4 C 0.6532(8) 0.5219(9) 0.3493(14)
H194_4 H 0.6385 0.5481 0.3665
C144_4 C 0.6454(7) 0.4745(7) 0.3604(7)
H195_4 H 0.6257 0.4701 0.3886
N36_4 N 0.89226(19) 0.5005(3) 0.23903(19)
N37_4 N 0.8727(3) 0.4284(2) 0.1661(3)
H196_4 H 0.851 0.4023 0.1795
N38_4 N 0.7882(3) 0.5045(5) 0.2455(3)
H197_4 H 0.7823 0.5405 0.2477
N39_4 N 0.8676(3) 0.5695(3) 0.1663(3)
H198_4 H 0.8408 0.5932 0.1736
N40_4 N 0.9461(3) 0.6872(3) 0.0527(3)
N41_4 N 0.9467(3) 0.3105(3) 0.0530(3)
Cl11_4 Cl 0.78143(7) 0.49685(10) 0.12676(7)
Cu11_4 Cu 0.83937(3) 0.49779(5) 0.18552(3)
Cl10_9 Cl -0.000 0.79188(8) 0.000
Cl10_10 Cl -0.000 0.79188(8) 1.000
Cl10_11 Cl 1.000 0.79188(8) 0.000
Cl10_12 Cl 1.000 0.79188(8) 1.000
Cl2_5 Cl 0.000 0.20812(8) -0.000
Cl2_6 Cl 0.000 0.20812(8) 1.000
Cl2_7 Cl 1.000 0.20812(8) -0.000
Cl2_8 Cl 1.000 0.20812(8) 1.000
C99_5 C 0.0154(4) 0.7867(3) 0.3685(4)
H137_5 H 0.0515 0.7884 0.3666
H138_5 H 0.0039 0.8144 0.3887
H140_5 H 0.0073 0.8195 0.299
C101_5 C 0.0354(4) 0.7227(4) 0.4302(4)
H141_5 H 0.0194 0.6981 0.4513
H142_5 H 0.0445 0.7509 0.4509
C102_5 C 0.0813(4) 0.7007(5) 0.4081(5)
H143_5 H 0.1024 0.7271 0.3956
H144_5 H 0.0996 0.683 0.4338
C103_5 C 0.0777(4) 0.6136(3) 0.3814(4)
H145_5 H 0.068 0.5926 0.3536
H146_5 H 0.0562 0.6054 0.4093
C104_5 C 0.1403(3) 0.5676(3) 0.4332(3)
H147_5 H 0.1135 0.5542 0.4506
C105_5 C 0.1306(4) 0.6015(3) 0.3954(3)
C106_5 C 0.1726(4) 0.6234(3) 0.3726(4)
H148_5 H 0.1681 0.6476 0.3482
C107_5 C 0.2204(4) 0.6092(5) 0.3861(5)
H149_5 H 0.248 0.6224 0.3699
C108_5 C 0.2263(3) 0.5745(4) 0.4245(4)
H150_5 H 0.2582 0.5665 0.4353
H158_5 H 0.0011 0.7141 0.2222
C118_5 C 0.0289(9) 0.8076(9) 0.1869(7)
H160_5 H 0.0605 0.7964 0.1957
C119_5 C 0.0219(9) 0.8493(14) 0.1532(8)
H161_5 H 0.0481 0.8665 0.1385
N29_5 N 0.0005(3) 0.73903(19) 0.39226(19)
N31_5 N 0.0045(5) 0.7455(3) 0.2882(3)
H164_5 H 0.0405 0.7477 0.2823
N32_5 N 0.0695(3) 0.6663(3) 0.3676(3)
H165_5 H 0.0932 0.6736 0.3408
N33_3 N 0.1872(3) 0.5527(3) 0.4461(3)
Cl10_13 Cl 0.29188(8) 0.500 0.500
Cu10_5 Cu 0.19955(4) 0.500 0.500
N43_3 N 0.1872(3) 0.4473(3) 0.5539(3)
N44_3 N 0.1895(3) 0.5530(3) 0.5533(3)
N45_2 N 0.1895(3) 0.4470(3) 0.4467(3)
C123_5 C 0.6315(4) 0.0154(4) 0.2133(3)
H170_5 H 0.6334 0.0515 0.2116
H171_5 H 0.6113 0.0039 0.1856
H173_5 H 0.701 0.0073 0.1805
C125_5 C 0.5698(4) 0.0354(4) 0.2773(4)
H174_5 H 0.5487 0.0194 0.3019
H175_5 H 0.5491 0.0445 0.2491
C126_5 C 0.5919(5) 0.0813(4) 0.2993(5)
H176_5 H 0.6044 0.1024 0.2729
H177_5 H 0.5662 0.0996 0.317
C127_5 C 0.6186(4) 0.0777(4) 0.3864(3)
H178_5 H 0.6464 0.068 0.4074
H179_5 H 0.5907 0.0562 0.3946
C128_5 C 0.5668(3) 0.1403(3) 0.4324(3)
H180_5 H 0.5494 0.1135 0.4458
C129_5 C 0.6046(3) 0.1306(4) 0.3985(3)
C130_5 C 0.6274(4) 0.1726(4) 0.3766(3)
H181_5 H 0.6518 0.1681 0.3524
C131_5 C 0.6139(5) 0.2204(4) 0.3908(5)
H182_5 H 0.6301 0.248 0.3776
C132_5 C 0.5755(4) 0.2263(3) 0.4255(4)
H183_5 H 0.5647 0.2582 0.4335
H191_5 H 0.7778 0.0011 0.2859
C142_5 C 0.8131(7) 0.0289(9) 0.1924(9)
H193_5 H 0.8043 0.0605 0.2036
C143_5 C 0.8468(8) 0.0219(9) 0.1507(14)
H194_5 H 0.8615 0.0481 0.1335
N36_5 N 0.60774(19) 0.0005(3) 0.26097(19)
N38_5 N 0.7118(3) 0.0045(5) 0.2545(3)
H197_5 H 0.7177 0.0405 0.2523
N39_5 N 0.6324(3) 0.0695(3) 0.3337(3)
H198_5 H 0.6592 0.0932 0.3264
N40_5 N 0.5539(3) 0.1872(3) 0.4473(3)
Cu14_5 Cu 0.500 0.19955(4) 0.500
C1_2 C 0.7419(4) 0.5852(4) 0.0505(4)
H1_2 H 0.7575 0.5527 0.048
H2_2 H 0.7631 0.6059 0.0712
C2_2 C 0.6935(4) 0.5796(4) 0.0751(5)
H3_2 H 0.6983 0.5707 0.1098
H4_2 H 0.6746 0.5533 0.0592
C4_2 C 0.7909(3) 0.6840(3) 0.0067(5)
H7_2 H 0.7955 0.6819 0.0425
C13_2 C 0.6129(3) 0.6210(4) 0.0825(4)
H19_2 H 0.5995 0.5959 0.0602
H20_2 H 0.5959 0.6521 0.0753
C14_2 C 0.5670(3) 0.5681(4) 0.1441(3)
H21_2 H 0.553 0.5521 0.1167
C15_2 C 0.6015(3) 0.6061(4) 0.1352(3)
C16_2 C 0.6211(5) 0.6297(5) 0.1750(4)
H22_2 H 0.6425 0.6566 0.1709
C17_2 C 0.6086(6) 0.6130(7) 0.2222(5)
H23_2 H 0.6242 0.6267 0.2499
C18_2 C 0.5744(4) 0.5775(5) 0.2282(4)
H24_2 H 0.5648 0.5689 0.2604
C19_2 C 0.7412(5) 0.7612(4) 0.0160(5)
H25_2 H 0.7314 0.7578 0.0506
C20_2 C 0.8019(6) 0.8099(6) 0.0585(7)
H27_2 H 0.7859 0.7984 0.087
C21_2 C 0.7851(5) 0.7945(4) 0.0143(5)
C24_2 C 0.8604(7) 0.8546(7) 0.0255(7)
H30_2 H 0.8886 0.8743 0.0299
N2_2 N 0.6661(3) 0.6273(3) 0.0716(2)
H31_2 H 0.6795 0.649 0.0977
N6_2 N 0.5530(3) 0.5533(3) 0.1895(3)
N7_2 N 0.8415(5) 0.8416(4) 0.0642(5)
Cl1_2 Cl 0.62676(7) 0.71857(7) 0.00315(10)
Cl3_3 Cl 0.8113(2) 0.8113(2) 0.1887(2)
Cu1_2 Cu 0.68552(3) 0.66063(3) 0.00221(5)
Cu3_2 Cu 0.86386(12) 0.86386(12) 0.13614(12)
C25_2 C 0.2581(4) 0.4148(4) 0.0505(4)
H34_2 H 0.2425 0.4473 0.048
H35_2 H 0.2369 0.3941 0.0712
C26_2 C 0.3065(4) 0.4204(4) 0.0751(5)
H36_2 H 0.3017 0.4293 0.1098
H37_2 H 0.3254 0.4467 0.0592
C28_2 C 0.2091(3) 0.3160(3) 0.0067(5)
H40_2 H 0.2045 0.3181 0.0425
C37_2 C 0.3871(3) 0.3790(4) 0.0825(4)
H52_2 H 0.4005 0.4041 0.0602
H53_2 H 0.4041 0.3479 0.0753
C38_2 C 0.4330(3) 0.4319(4) 0.1441(3)
H54_2 H 0.447 0.4479 0.1167
C39_2 C 0.3985(3) 0.3939(4) 0.1352(3)
C40_2 C 0.3789(5) 0.3703(5) 0.1750(4)
H55_2 H 0.3575 0.3434 0.1709
C41_2 C 0.3914(6) 0.3870(7) 0.2222(5)
H56_2 H 0.3758 0.3733 0.2499
C42_2 C 0.4256(4) 0.4225(5) 0.2282(4)
H57_2 H 0.4352 0.4311 0.2604
C43_2 C 0.2588(5) 0.2388(4) 0.0160(5)
H58_2 H 0.2686 0.2422 0.0506
C44_2 C 0.1981(6) 0.1901(6) 0.0585(7)
H60_2 H 0.2141 0.2016 0.087
C45_2 C 0.2149(5) 0.2055(4) 0.0143(5)
C48_2 C 0.1396(7) 0.1454(7) 0.0255(7)
H63_2 H 0.1114 0.1257 0.0299
N9_2 N 0.3339(3) 0.3727(3) 0.0716(2)
H64_2 H 0.3205 0.351 0.0977
N13_2 N 0.4470(3) 0.4467(3) 0.1895(3)
N14_2 N 0.1585(5) 0.1584(4) 0.0642(5)
Cl4_2 Cl 0.37324(7) 0.28143(7) 0.00315(10)
Cl5_3 Cl 0.1887(2) 0.1887(2) 0.1887(2)
Cu4_2 Cu 0.31448(3) 0.33937(3) 0.00221(5)
Cu5_2 Cu 0.13614(12) 0.13614(12) 0.13614(12)
C51_2 C 0.7867(3) 0.3685(4) 0.0154(4)
H71_2 H 0.7884 0.3666 0.0515
H72_2 H 0.8144 0.3887 0.0039
H74_2 H 0.8195 0.299 0.0073
C53_2 C 0.7227(4) 0.4302(4) 0.0354(4)
H75_2 H 0.6981 0.4513 0.0194
H76_2 H 0.7509 0.4509 0.0445
C54_2 C 0.7007(5) 0.4081(5) 0.0813(4)
H77_2 H 0.7271 0.3956 0.1024
H78_2 H 0.683 0.4338 0.0996
C55_2 C 0.6136(3) 0.3814(4) 0.0777(4)
H79_2 H 0.5926 0.3536 0.068
H80_2 H 0.6054 0.4093 0.0562
C56_2 C 0.5676(3) 0.4332(3) 0.1403(3)
H81_2 H 0.5542 0.4506 0.1135
C57_2 C 0.6015(3) 0.3954(3) 0.1306(4)
C58_2 C 0.6234(3) 0.3726(4) 0.1726(4)
H82_2 H 0.6476 0.3482 0.1681
C59_2 C 0.6092(5) 0.3861(5) 0.2204(4)
H83_2 H 0.6224 0.3699 0.248
C60_2 C 0.5745(4) 0.4245(4) 0.2263(3)
H84_2 H 0.5665 0.4353 0.2582
H92_2 H 0.7141 0.2222 0.0011
C70_2 C 0.8076(9) 0.1869(7) 0.0289(9)
H94_2 H 0.7964 0.1957 0.0605
C71_2 C 0.8493(14) 0.1532(8) 0.0219(9)
H95_2 H 0.8665 0.1385 0.0481
N15_2 N 0.73903(19) 0.39226(19) 0.0005(3)
N17_2 N 0.7455(3) 0.2882(3) 0.0045(5)
H98_2 H 0.7477 0.2823 0.0405
N18_2 N 0.6663(3) 0.3676(3) 0.0695(3)
H99_2 H 0.6736 0.3408 0.0932
N19_2 N 0.5527(3) 0.4461(3) 0.1872(3)
Cl7_5 Cl 0.500 0.500 0.29188(8)
Cu7_5 Cu 0.500 0.500 0.19955(4)
C75_2 C 0.2133(3) 0.6315(4) 0.0154(4)
H104_2 H 0.2116 0.6334 0.0515
H105_2 H 0.1856 0.6113 0.0039
H107_2 H 0.1805 0.701 0.0073
C77_2 C 0.2773(4) 0.5698(4) 0.0354(4)
H108_2 H 0.3019 0.5487 0.0194
H109_2 H 0.2491 0.5491 0.0445
C78_2 C 0.2993(5) 0.5919(5) 0.0813(4)
H110_2 H 0.2729 0.6044 0.1024
H111_2 H 0.317 0.5662 0.0996
C79_2 C 0.3864(3) 0.6186(4) 0.0777(4)
H112_2 H 0.4074 0.6464 0.068
H113_2 H 0.3946 0.5907 0.0562
C80_2 C 0.4324(3) 0.5668(3) 0.1403(3)
H114_2 H 0.4458 0.5494 0.1135
C81_2 C 0.3985(3) 0.6046(3) 0.1306(4)
C82_2 C 0.3766(3) 0.6274(4) 0.1726(4)
H115_2 H 0.3524 0.6518 0.1681
C83_2 C 0.3908(5) 0.6139(5) 0.2204(4)
H116_2 H 0.3776 0.6301 0.248
C84_2 C 0.4255(4) 0.5755(4) 0.2263(3)
H117_2 H 0.4335 0.5647 0.2582
H125_2 H 0.2859 0.7778 0.0011
C94_2 C 0.1924(9) 0.8131(7) 0.0289(9)
H127_2 H 0.2036 0.8043 0.0605
C95_2 C 0.1507(14) 0.8468(8) 0.0219(9)
H128_2 H 0.1335 0.8615 0.0481
N22_2 N 0.26097(19) 0.60774(19) 0.0005(3)
N24_2 N 0.2545(3) 0.7118(3) 0.0045(5)
H131_2 H 0.2523 0.7177 0.0405
N25_2 N 0.3337(3) 0.6324(3) 0.0695(3)
H132_2 H 0.3264 0.6592 0.0932
N26_2 N 0.4473(3) 0.5539(3) 0.1872(3)
C97_5 C 0.9495(4) 0.7419(4) 0.4148(4)
H133_5 H 0.952 0.7575 0.4473
H134_5 H 0.9288 0.7631 0.3941
C98_5 C 0.9249(5) 0.6935(4) 0.4204(4)
H135_5 H 0.8902 0.6983 0.4293
H136_5 H 0.9408 0.6746 0.4467
C100_5 C 0.9933(5) 0.7909(3) 0.3160(3)
H139_5 H 0.9575 0.7955 0.3181
C109_5 C 0.9175(4) 0.6129(3) 0.3790(4)
H151_5 H 0.9398 0.5995 0.4041
H152_5 H 0.9247 0.5959 0.3479
C110_5 C 0.8559(3) 0.5670(3) 0.4319(4)
H153_5 H 0.8833 0.553 0.4479
C111_5 C 0.8648(3) 0.6015(3) 0.3939(4)
C112_5 C 0.8250(4) 0.6211(5) 0.3703(5)
H154_5 H 0.8291 0.6425 0.3434
C113_5 C 0.7778(5) 0.6086(6) 0.3870(7)
H155_5 H 0.7501 0.6242 0.3733
C114_5 C 0.7718(4) 0.5744(4) 0.4225(5)
H156_5 H 0.7396 0.5648 0.4311
C115_5 C 0.9840(5) 0.7412(5) 0.2388(4)
H157_5 H 0.9494 0.7314 0.2422
C116_5 C 0.9415(7) 0.8019(6) 0.1901(6)
H159_5 H 0.913 0.7859 0.2016
C117_5 C 0.9857(5) 0.7851(5) 0.2055(4)
C120_5 C 0.9745(7) 0.8604(7) 0.1454(7)
H162_5 H 0.9701 0.8886 0.1257
N30_5 N 0.9284(2) 0.6661(3) 0.3727(3)
H163_5 H 0.9023 0.6795 0.351
N34_2 N 0.8105(3) 0.5530(3) 0.4467(3)
N35_3 N 0.9358(5) 0.8415(5) 0.1584(4)
Cl9_5 Cl 0.99685(10) 0.62676(7) 0.28143(7)
Cu9_5 Cu 0.99779(5) 0.68552(3) 0.33937(3)
C121_5 C 0.5852(4) 0.9495(4) 0.2581(4)
H166_5 H 0.5527 0.952 0.2425
H167_5 H 0.6059 0.9288 0.2369
C122_5 C 0.5796(4) 0.9249(5) 0.3065(4)
H168_5 H 0.5707 0.8902 0.3017
H169_5 H 0.5533 0.9408 0.3254
C124_5 C 0.6840(3) 0.9933(5) 0.2091(3)
H172_5 H 0.6819 0.9575 0.2045
C133_5 C 0.6210(4) 0.9175(4) 0.3871(3)
H184_5 H 0.5959 0.9398 0.4005
H185_5 H 0.6521 0.9247 0.4041
C134_5 C 0.5681(4) 0.8559(3) 0.4330(3)
H186_5 H 0.5521 0.8833 0.447
C135_5 C 0.6061(4) 0.8648(3) 0.3985(3)
C136_5 C 0.6297(5) 0.8250(4) 0.3789(5)
H187_5 H 0.6566 0.8291 0.3575
C137_5 C 0.6130(7) 0.7778(5) 0.3914(6)
H188_5 H 0.6267 0.7501 0.3758
C138_5 C 0.5775(5) 0.7718(4) 0.4256(4)
H189_5 H 0.5689 0.7396 0.4352
C139_5 C 0.7612(4) 0.9840(5) 0.2588(5)
H190_5 H 0.7578 0.9494 0.2686
C140_5 C 0.8099(6) 0.9415(7) 0.1981(6)
H192_5 H 0.7984 0.913 0.2141
C141_5 C 0.7945(4) 0.9857(5) 0.2149(5)
C144_5 C 0.8546(7) 0.9745(7) 0.1396(7)
H195_5 H 0.8743 0.9701 0.1114
N37_5 N 0.6273(3) 0.9284(2) 0.3339(3)
H196_5 H 0.649 0.9023 0.3205
N41_5 N 0.5533(3) 0.8105(3) 0.4470(3)
N42_3 N 0.8416(4) 0.9358(5) 0.1585(5)
Cl11_5 Cl 0.71857(7) 0.99685(10) 0.37324(7)
Cu11_5 Cu 0.66063(3) 0.99779(5) 0.31448(3)
N46_3 N 0.1584(4) 0.0642(5) 0.1585(5)
N47_3 N 0.0642(5) 0.1585(5) 0.1584(4)
Cu12_5 Cu 0.80045(4) 0.500 0.500
Cu13_5 Cu 0.500 0.80045(4) 0.500
C3_2 C 0.7867(3) 0.6315(4) 0.9846(4)
H5_2 H 0.7884 0.6334 0.9485
H6_2 H 0.8144 0.6113 0.9961
H8_2 H 0.8195 0.701 0.9927
C5_2 C 0.7227(4) 0.5698(4) 0.9646(4)
H9_2 H 0.6981 0.5487 0.9806
H10_2 H 0.7509 0.5491 0.9555
C6_2 C 0.7007(5) 0.5919(5) 0.9187(4)
H11_2 H 0.7271 0.6044 0.8976
H12_2 H 0.683 0.5662 0.9004
C7_2 C 0.6136(3) 0.6186(4) 0.9223(4)
H13_2 H 0.5926 0.6464 0.932
H14_2 H 0.6054 0.5907 0.9438
C8_2 C 0.5676(3) 0.5668(3) 0.8597(3)
H15_2 H 0.5542 0.5494 0.8865
C9_2 C 0.6015(3) 0.6046(3) 0.8694(4)
C10_2 C 0.6234(3) 0.6274(4) 0.8274(4)
H16_2 H 0.6476 0.6518 0.8319
C11_2 C 0.6092(5) 0.6139(5) 0.7796(4)
H17_2 H 0.6224 0.6301 0.752
C12_2 C 0.5745(4) 0.5755(4) 0.7737(3)
H18_2 H 0.5665 0.5647 0.7418
H26_2 H 0.7141 0.7778 0.9989
C22_2 C 0.8076(9) 0.8131(7) 0.9711(9)
H28_2 H 0.7964 0.8043 0.9395
C23_2 C 0.8493(14) 0.8468(8) 0.9781(9)
H29_2 H 0.8665 0.8615 0.9519
N1_2 N 0.73903(19) 0.60774(19) 0.9995(3)
N3_2 N 0.7455(3) 0.7118(3) 0.9955(5)
H32_2 H 0.7477 0.7177 0.9595
N4_2 N 0.6663(3) 0.6324(3) 0.9305(3)
H33_2 H 0.6736 0.6592 0.9068
N5_2 N 0.5527(3) 0.5539(3) 0.8128(3)
Cl2_9 Cl 0.500 0.500 0.70812(8)
Cu2_5 Cu 0.500 0.500 0.80045(4)
C27_2 C 0.2133(3) 0.3685(4) 0.9846(4)
H38_2 H 0.2116 0.3666 0.9485
H39_2 H 0.1856 0.3887 0.9961
H41_2 H 0.1805 0.299 0.9927
C29_2 C 0.2773(4) 0.4302(4) 0.9646(4)
H42_2 H 0.3019 0.4513 0.9806
H43_2 H 0.2491 0.4509 0.9555
C30_2 C 0.2993(5) 0.4081(5) 0.9187(4)
H44_2 H 0.2729 0.3956 0.8976
H45_2 H 0.317 0.4338 0.9004
C31_2 C 0.3864(3) 0.3814(4) 0.9223(4)
H46_2 H 0.4074 0.3536 0.932
H47_2 H 0.3946 0.4093 0.9438
C32_2 C 0.4324(3) 0.4332(3) 0.8597(3)
H48_2 H 0.4458 0.4506 0.8865
C33_2 C 0.3985(3) 0.3954(3) 0.8694(4)
C34_2 C 0.3766(3) 0.3726(4) 0.8274(4)
H49_2 H 0.3524 0.3482 0.8319
C35_2 C 0.3908(5) 0.3861(5) 0.7796(4)
H50_2 H 0.3776 0.3699 0.752
C36_2 C 0.4255(4) 0.4245(4) 0.7737(3)
H51_2 H 0.4335 0.4353 0.7418
H59_2 H 0.2859 0.2222 0.9989
C46_2 C 0.1924(9) 0.1869(7) 0.9711(9)
H61_2 H 0.2036 0.1957 0.9395
C47_2 C 0.1507(14) 0.1532(8) 0.9781(9)
H62_2 H 0.1335 0.1385 0.9519
N8_2 N 0.26097(19) 0.39226(19) 0.9995(3)
N10_2 N 0.2545(3) 0.2882(3) 0.9955(5)
H65_2 H 0.2523 0.2823 0.9595
N11_2 N 0.3337(3) 0.3676(3) 0.9305(3)
H66_2 H 0.3264 0.3408 0.9068
N12_2 N 0.4473(3) 0.4461(3) 0.8128(3)
C49_2 C 0.7419(4) 0.4148(4) 0.9495(4)
H67_2 H 0.7575 0.4473 0.952
H68_2 H 0.7631 0.3941 0.9288
C50_2 C 0.6935(4) 0.4204(4) 0.9249(5)
H69_2 H 0.6983 0.4293 0.8902
H70_2 H 0.6746 0.4467 0.9408
C52_2 C 0.7909(3) 0.3160(3) 0.9933(5)
H73_2 H 0.7955 0.3181 0.9575
C61_2 C 0.6129(3) 0.3790(4) 0.9175(4)
H85_2 H 0.5995 0.4041 0.9398
H86_2 H 0.5959 0.3479 0.9247
C62_2 C 0.5670(3) 0.4319(4) 0.8559(3)
H87_2 H 0.553 0.4479 0.8833
C63_2 C 0.6015(3) 0.3939(4) 0.8648(3)
C64_2 C 0.6211(5) 0.3703(5) 0.8250(4)
H88_2 H 0.6425 0.3434 0.8291
C65_2 C 0.6086(6) 0.3870(7) 0.7778(5)
H89_2 H 0.6242 0.3733 0.7501
C66_2 C 0.5744(4) 0.4225(5) 0.7718(4)
H90_2 H 0.5648 0.4311 0.7396
C67_2 C 0.7412(5) 0.2388(4) 0.9840(5)
H91_2 H 0.7314 0.2422 0.9494
C68_2 C 0.8019(6) 0.1901(6) 0.9415(7)
H93_2 H 0.7859 0.2016 0.913
C69_2 C 0.7851(5) 0.2055(4) 0.9857(5)
C72_2 C 0.8604(7) 0.1454(7) 0.9745(7)
H96_2 H 0.8886 0.1257 0.9701
N16_2 N 0.6661(3) 0.3727(3) 0.9284(2)
H97_2 H 0.6795 0.351 0.9023
N20_2 N 0.5530(3) 0.4467(3) 0.8105(3)
N21_2 N 0.8415(5) 0.1584(4) 0.9358(5)
Cl6_2 Cl 0.62676(7) 0.28143(7) 0.99685(10)
Cu6_2 Cu 0.68552(3) 0.33937(3) 0.99779(5)
C73_2 C 0.2581(4) 0.5852(4) 0.9495(4)
H100_2 H 0.2425 0.5527 0.952
H101_2 H 0.2369 0.6059 0.9288
C74_2 C 0.3065(4) 0.5796(4) 0.9249(5)
H102_2 H 0.3017 0.5707 0.8902
H103_2 H 0.3254 0.5533 0.9408
C76_2 C 0.2091(3) 0.6840(3) 0.9933(5)
H106_2 H 0.2045 0.6819 0.9575
C85_2 C 0.3871(3) 0.6210(4) 0.9175(4)
H118_2 H 0.4005 0.5959 0.9398
H119_2 H 0.4041 0.6521 0.9247
C86_2 C 0.4330(3) 0.5681(4) 0.8559(3)
H120_2 H 0.447 0.5521 0.8833
C87_2 C 0.3985(3) 0.6061(4) 0.8648(3)
C88_2 C 0.3789(5) 0.6297(5) 0.8250(4)
H121_2 H 0.3575 0.6566 0.8291
C89_2 C 0.3914(6) 0.6130(7) 0.7778(5)
H122_2 H 0.3758 0.6267 0.7501
C90_2 C 0.4256(4) 0.5775(5) 0.7718(4)
H123_2 H 0.4352 0.5689 0.7396
C91_2 C 0.2588(5) 0.7612(4) 0.9840(5)
H124_2 H 0.2686 0.7578 0.9494
C92_2 C 0.1981(6) 0.8099(6) 0.9415(7)
H126_2 H 0.2141 0.7984 0.913
C93_2 C 0.2149(5) 0.7945(4) 0.9857(5)
C96_2 C 0.1396(7) 0.8546(7) 0.9745(7)
H129_2 H 0.1114 0.8743 0.9701
N23_2 N 0.3339(3) 0.6273(3) 0.9284(2)
H130_2 H 0.3205 0.649 0.9023
N27_2 N 0.4470(3) 0.5533(3) 0.8105(3)
N28_2 N 0.1585(5) 0.8416(4) 0.9358(5)
Cl8_2 Cl 0.37324(7) 0.71857(7) 0.99685(10)
Cu8_2 Cu 0.31448(3) 0.66063(3) 0.99779(5)
Cu15_2 Cu 0.86386(12) 0.13614(12) 0.86386(12)
Cu16_2 Cu 0.13614(12) 0.86386(12) 0.86386(12)
C97_6 C 0.0505(4) 0.2581(4) 0.4148(4)
H133_6 H 0.048 0.2425 0.4473
H134_6 H 0.0712 0.2369 0.3941
C98_6 C 0.0751(5) 0.3065(4) 0.4204(4)
H135_6 H 0.1098 0.3017 0.4293
H136_6 H 0.0592 0.3254 0.4467
C100_6 C 0.0067(5) 0.2091(3) 0.3160(3)
H139_6 H 0.0425 0.2045 0.3181
C109_6 C 0.0825(4) 0.3871(3) 0.3790(4)
H151_6 H 0.0602 0.4005 0.4041
H152_6 H 0.0753 0.4041 0.3479
C110_6 C 0.1441(3) 0.4330(3) 0.4319(4)
H153_6 H 0.1167 0.447 0.4479
C111_6 C 0.1352(3) 0.3985(3) 0.3939(4)
C112_6 C 0.1750(4) 0.3789(5) 0.3703(5)
H154_6 H 0.1709 0.3575 0.3434
C113_6 C 0.2222(5) 0.3914(6) 0.3870(7)
H155_6 H 0.2499 0.3758 0.3733
C114_6 C 0.2282(4) 0.4256(4) 0.4225(5)
H156_6 H 0.2604 0.4352 0.4311
C115_6 C 0.0160(5) 0.2588(5) 0.2388(4)
H157_6 H 0.0506 0.2686 0.2422
C116_6 C 0.0585(7) 0.1981(6) 0.1901(6)
H159_6 H 0.087 0.2141 0.2016
C117_6 C 0.0143(5) 0.2149(5) 0.2055(4)
C120_6 C 0.0255(7) 0.1396(7) 0.1454(7)
H162_6 H 0.0299 0.1114 0.1257
N30_6 N 0.0716(2) 0.3339(3) 0.3727(3)
H163_6 H 0.0977 0.3205 0.351
Cl9_6 Cl 0.00315(10) 0.37324(7) 0.28143(7)
Cu9_6 Cu 0.00221(5) 0.31448(3) 0.33937(3)
C121_6 C 0.4148(4) 0.0505(4) 0.2581(4)
H166_6 H 0.4473 0.048 0.2425
H167_6 H 0.3941 0.0712 0.2369
C122_6 C 0.4204(4) 0.0751(5) 0.3065(4)
H168_6 H 0.4293 0.1098 0.3017
H169_6 H 0.4467 0.0592 0.3254
C124_6 C 0.3160(3) 0.0067(5) 0.2091(3)
H172_6 H 0.3181 0.0425 0.2045
C133_6 C 0.3790(4) 0.0825(4) 0.3871(3)
H184_6 H 0.4041 0.0602 0.4005
H185_6 H 0.3479 0.0753 0.4041
C134_6 C 0.4319(4) 0.1441(3) 0.4330(3)
H186_6 H 0.4479 0.1167 0.447
C135_6 C 0.3939(4) 0.1352(3) 0.3985(3)
C136_6 C 0.3703(5) 0.1750(4) 0.3789(5)
H187_6 H 0.3434 0.1709 0.3575
C137_6 C 0.3870(7) 0.2222(5) 0.3914(6)
H188_6 H 0.3733 0.2499 0.3758
C138_6 C 0.4225(5) 0.2282(4) 0.4256(4)
H189_6 H 0.4311 0.2604 0.4352
C139_6 C 0.2388(4) 0.0160(5) 0.2588(5)
H190_6 H 0.2422 0.0506 0.2686
C140_6 C 0.1901(6) 0.0585(7) 0.1981(6)
H192_6 H 0.2016 0.087 0.2141
C141_6 C 0.2055(4) 0.0143(5) 0.2149(5)
C144_6 C 0.1454(7) 0.0255(7) 0.1396(7)
H195_6 H 0.1257 0.0299 0.1114
N37_6 N 0.3727(3) 0.0716(2) 0.3339(3)
H196_6 H 0.351 0.0977 0.3205
N41_6 N 0.4467(3) 0.1895(3) 0.4470(3)
Cl11_6 Cl 0.28143(7) 0.00315(10) 0.37324(7)
Cu11_6 Cu 0.33937(3) 0.00221(5) 0.31448(3)
C123_6 C 0.3685(4) 0.9846(4) 0.2133(3)
H170_6 H 0.3666 0.9485 0.2116
H171_6 H 0.3887 0.9961 0.1856
H173_6 H 0.299 0.9927 0.1805
C125_6 C 0.4302(4) 0.9646(4) 0.2773(4)
H174_6 H 0.4513 0.9806 0.3019
H175_6 H 0.4509 0.9555 0.2491
C126_6 C 0.4081(5) 0.9187(4) 0.2993(5)
H176_6 H 0.3956 0.8976 0.2729
H177_6 H 0.4338 0.9004 0.317
C127_6 C 0.3814(4) 0.9223(4) 0.3864(3)
H178_6 H 0.3536 0.932 0.4074
H179_6 H 0.4093 0.9438 0.3946
C128_6 C 0.4332(3) 0.8597(3) 0.4324(3)
H180_6 H 0.4506 0.8865 0.4458
C129_6 C 0.3954(3) 0.8694(4) 0.3985(3)
C130_6 C 0.3726(4) 0.8274(4) 0.3766(3)
H181_6 H 0.3482 0.8319 0.3524
C131_6 C 0.3861(5) 0.7796(4) 0.3908(5)
H182_6 H 0.3699 0.752 0.3776
C132_6 C 0.4245(4) 0.7737(3) 0.4255(4)
H183_6 H 0.4353 0.7418 0.4335
H191_6 H 0.2222 0.9989 0.2859
C142_6 C 0.1869(7) 0.9711(9) 0.1924(9)
H193_6 H 0.1957 0.9395 0.2036
C143_6 C 0.1532(8) 0.9781(9) 0.1507(14)
H194_6 H 0.1385 0.9519 0.1335
N36_6 N 0.39226(19) 0.9995(3) 0.26097(19)
N38_6 N 0.2882(3) 0.9955(5) 0.2545(3)
H197_6 H 0.2823 0.9595 0.2523
N39_6 N 0.3676(3) 0.9305(3) 0.3337(3)
H198_6 H 0.3408 0.9068 0.3264
N40_6 N 0.4461(3) 0.8128(3) 0.4473(3)
C99_6 C 0.9846(4) 0.2133(3) 0.3685(4)
H137_6 H 0.9485 0.2116 0.3666
H138_6 H 0.9961 0.1856 0.3887
H140_6 H 0.9927 0.1805 0.299
C101_6 C 0.9646(4) 0.2773(4) 0.4302(4)
H141_6 H 0.9806 0.3019 0.4513
H142_6 H 0.9555 0.2491 0.4509
C102_6 C 0.9187(4) 0.2993(5) 0.4081(5)
H143_6 H 0.8976 0.2729 0.3956
H144_6 H 0.9004 0.317 0.4338
C103_6 C 0.9223(4) 0.3864(3) 0.3814(4)
H145_6 H 0.932 0.4074 0.3536
H146_6 H 0.9438 0.3946 0.4093
C104_6 C 0.8597(3) 0.4324(3) 0.4332(3)
H147_6 H 0.8865 0.4458 0.4506
C105_6 C 0.8694(4) 0.3985(3) 0.3954(3)
C106_6 C 0.8274(4) 0.3766(3) 0.3726(4)
H148_6 H 0.8319 0.3524 0.3482
C107_6 C 0.7796(4) 0.3908(5) 0.3861(5)
H149_6 H 0.752 0.3776 0.3699
C108_6 C 0.7737(3) 0.4255(4) 0.4245(4)
H150_6 H 0.7418 0.4335 0.4353
H158_6 H 0.9989 0.2859 0.2222
C118_6 C 0.9711(9) 0.1924(9) 0.1869(7)
H160_6 H 0.9395 0.2036 0.1957
C119_6 C 0.9781(9) 0.1507(14) 0.1532(8)
H161_6 H 0.9519 0.1335 0.1385
N29_6 N 0.9995(3) 0.26097(19) 0.39226(19)
N31_6 N 0.9955(5) 0.2545(3) 0.2882(3)
H164_6 H 0.9595 0.2523 0.2823
N32_6 N 0.9305(3) 0.3337(3) 0.3676(3)
H165_6 H 0.9068 0.3264 0.3408
N33_4 N 0.8128(3) 0.4473(3) 0.4461(3)
Cl10_14 Cl 0.70812(8) 0.500 0.500
N43_4 N 0.8128(3) 0.5527(3) 0.5539(3)
N44_4 N 0.8105(3) 0.4470(3) 0.5533(3)
C99_7 C 0.0154(4) 0.2133(3) 0.6315(4)
H137_7 H 0.0515 0.2116 0.6334
H138_7 H 0.0039 0.1856 0.6113
H140_7 H 0.0073 0.1805 0.701
C101_7 C 0.0354(4) 0.2773(4) 0.5698(4)
H141_7 H 0.0194 0.3019 0.5487
H142_7 H 0.0445 0.2491 0.5491
C102_7 C 0.0813(4) 0.2993(5) 0.5919(5)
H143_7 H 0.1024 0.2729 0.6044
H144_7 H 0.0996 0.317 0.5662
C103_7 C 0.0777(4) 0.3864(3) 0.6186(4)
H145_7 H 0.068 0.4074 0.6464
H146_7 H 0.0562 0.3946 0.5907
C104_7 C 0.1403(3) 0.4324(3) 0.5668(3)
H147_7 H 0.1135 0.4458 0.5494
C105_7 C 0.1306(4) 0.3985(3) 0.6046(3)
C106_7 C 0.1726(4) 0.3766(3) 0.6274(4)
H148_7 H 0.1681 0.3524 0.6518
C107_7 C 0.2204(4) 0.3908(5) 0.6139(5)
H149_7 H 0.248 0.3776 0.6301
C108_7 C 0.2263(3) 0.4255(4) 0.5755(4)
H150_7 H 0.2582 0.4335 0.5647
H158_7 H 0.0011 0.2859 0.7778
C118_7 C 0.0289(9) 0.1924(9) 0.8131(7)
H160_7 H 0.0605 0.2036 0.8043
C119_7 C 0.0219(9) 0.1507(14) 0.8468(8)
H161_7 H 0.0481 0.1335 0.8615
N29_7 N 0.0005(3) 0.26097(19) 0.60774(19)
N31_7 N 0.0045(5) 0.2545(3) 0.7118(3)
H164_7 H 0.0405 0.2523 0.7177
N32_7 N 0.0695(3) 0.3337(3) 0.6324(3)
H165_7 H 0.0932 0.3264 0.6592
Cl3_4 Cl 0.8113(2) 0.1887(2) 0.8113(2)
Cl5_4 Cl 0.1887(2) 0.8113(2) 0.8113(2)
C97_7 C 0.9495(4) 0.2581(4) 0.5852(4)
H133_7 H 0.952 0.2425 0.5527
H134_7 H 0.9288 0.2369 0.6059
C98_7 C 0.9249(5) 0.3065(4) 0.5796(4)
H135_7 H 0.8902 0.3017 0.5707
H136_7 H 0.9408 0.3254 0.5533
C100_7 C 0.9933(5) 0.2091(3) 0.6840(3)
H139_7 H 0.9575 0.2045 0.6819
C109_7 C 0.9175(4) 0.3871(3) 0.6210(4)
H151_7 H 0.9398 0.4005 0.5959
H152_7 H 0.9247 0.4041 0.6521
C110_7 C 0.8559(3) 0.4330(3) 0.5681(4)
H153_7 H 0.8833 0.447 0.5521
C111_7 C 0.8648(3) 0.3985(3) 0.6061(4)
C112_7 C 0.8250(4) 0.3789(5) 0.6297(5)
H154_7 H 0.8291 0.3575 0.6566
C113_7 C 0.7778(5) 0.3914(6) 0.6130(7)
H155_7 H 0.7501 0.3758 0.6267
C114_7 C 0.7718(4) 0.4256(4) 0.5775(5)
H156_7 H 0.7396 0.4352 0.5689
C115_7 C 0.9840(5) 0.2588(5) 0.7612(4)
H157_7 H 0.9494 0.2686 0.7578
C116_7 C 0.9415(7) 0.1981(6) 0.8099(6)
H159_7 H 0.913 0.2141 0.7984
C117_7 C 0.9857(5) 0.2149(5) 0.7945(4)
C120_7 C 0.9745(7) 0.1396(7) 0.8546(7)
H162_7 H 0.9701 0.1114 0.8743
N30_7 N 0.9284(2) 0.3339(3) 0.6273(3)
H163_7 H 0.9023 0.3205 0.649
N35_4 N 0.9358(5) 0.1585(5) 0.8416(4)
Cl9_7 Cl 0.99685(10) 0.37324(7) 0.71857(7)
Cu9_7 Cu 0.99779(5) 0.31448(3) 0.66063(3)
C121_7 C 0.5852(4) 0.0505(4) 0.7419(4)
H166_7 H 0.5527 0.048 0.7575
H167_7 H 0.6059 0.0712 0.7631
C122_7 C 0.5796(4) 0.0751(5) 0.6935(4)
H168_7 H 0.5707 0.1098 0.6983
H169_7 H 0.5533 0.0592 0.6746
C124_7 C 0.6840(3) 0.0067(5) 0.7909(3)
H172_7 H 0.6819 0.0425 0.7955
C133_7 C 0.6210(4) 0.0825(4) 0.6129(3)
H184_7 H 0.5959 0.0602 0.5995
H185_7 H 0.6521 0.0753 0.5959
C134_7 C 0.5681(4) 0.1441(3) 0.5670(3)
H186_7 H 0.5521 0.1167 0.553
C135_7 C 0.6061(4) 0.1352(3) 0.6015(3)
C136_7 C 0.6297(5) 0.1750(4) 0.6211(5)
H187_7 H 0.6566 0.1709 0.6425
C137_7 C 0.6130(7) 0.2222(5) 0.6086(6)
H188_7 H 0.6267 0.2499 0.6242
C138_7 C 0.5775(5) 0.2282(4) 0.5744(4)
H189_7 H 0.5689 0.2604 0.5648
C139_7 C 0.7612(4) 0.0160(5) 0.7412(5)
H190_7 H 0.7578 0.0506 0.7314
C140_7 C 0.8099(6) 0.0585(7) 0.8019(6)
H192_7 H 0.7984 0.087 0.7859
C141_7 C 0.7945(4) 0.0143(5) 0.7851(5)
C144_7 C 0.8546(7) 0.0255(7) 0.8604(7)
H195_7 H 0.8743 0.0299 0.8886
N37_7 N 0.6273(3) 0.0716(2) 0.6661(3)
H196_7 H 0.649 0.0977 0.6795
N41_7 N 0.5533(3) 0.1895(3) 0.5530(3)
N42_4 N 0.8416(4) 0.0642(5) 0.8415(5)
Cl11_7 Cl 0.71857(7) 0.00315(10) 0.62676(7)
Cu11_7 Cu 0.66063(3) 0.00221(5) 0.68552(3)
N46_4 N 0.1584(4) 0.9358(5) 0.8415(5)
N47_4 N 0.0642(5) 0.8415(5) 0.8416(4)
C123_7 C 0.6315(4) 0.9846(4) 0.7867(3)
H170_7 H 0.6334 0.9485 0.7884
H171_7 H 0.6113 0.9961 0.8144
H173_7 H 0.701 0.9927 0.8195
C125_7 C 0.5698(4) 0.9646(4) 0.7227(4)
H174_7 H 0.5487 0.9806 0.6981
H175_7 H 0.5491 0.9555 0.7509
C126_7 C 0.5919(5) 0.9187(4) 0.7007(5)
H176_7 H 0.6044 0.8976 0.7271
H177_7 H 0.5662 0.9004 0.683
C127_7 C 0.6186(4) 0.9223(4) 0.6136(3)
H178_7 H 0.6464 0.932 0.5926
H179_7 H 0.5907 0.9438 0.6054
C128_7 C 0.5668(3) 0.8597(3) 0.5676(3)
H180_7 H 0.5494 0.8865 0.5542
C129_7 C 0.6046(3) 0.8694(4) 0.6015(3)
C130_7 C 0.6274(4) 0.8274(4) 0.6234(3)
H181_7 H 0.6518 0.8319 0.6476
C131_7 C 0.6139(5) 0.7796(4) 0.6092(5)
H182_7 H 0.6301 0.752 0.6224
C132_7 C 0.5755(4) 0.7737(3) 0.5745(4)
H183_7 H 0.5647 0.7418 0.5665
H191_7 H 0.7778 0.9989 0.7141
C142_7 C 0.8131(7) 0.9711(9) 0.8076(9)
H193_7 H 0.8043 0.9395 0.7964
C143_7 C 0.8468(8) 0.9781(9) 0.8493(14)
H194_7 H 0.8615 0.9519 0.8665
N36_7 N 0.60774(19) 0.9995(3) 0.73903(19)
N38_7 N 0.7118(3) 0.9955(5) 0.7455(3)
H197_7 H 0.7177 0.9595 0.7477
N39_7 N 0.6324(3) 0.9305(3) 0.6663(3)
H198_7 H 0.6592 0.9068 0.6736
N40_7 N 0.5539(3) 0.8128(3) 0.5527(3)
C123_8 C 0.3685(4) 0.0154(4) 0.7867(3)
H170_8 H 0.3666 0.0515 0.7884
H171_8 H 0.3887 0.0039 0.8144
H173_8 H 0.299 0.0073 0.8195
C125_8 C 0.4302(4) 0.0354(4) 0.7227(4)
H174_8 H 0.4513 0.0194 0.6981
H175_8 H 0.4509 0.0445 0.7509
C126_8 C 0.4081(5) 0.0813(4) 0.7007(5)
H176_8 H 0.3956 0.1024 0.7271
H177_8 H 0.4338 0.0996 0.683
C127_8 C 0.3814(4) 0.0777(4) 0.6136(3)
H178_8 H 0.3536 0.068 0.5926
H179_8 H 0.4093 0.0562 0.6054
C128_8 C 0.4332(3) 0.1403(3) 0.5676(3)
H180_8 H 0.4506 0.1135 0.5542
C129_8 C 0.3954(3) 0.1306(4) 0.6015(3)
C130_8 C 0.3726(4) 0.1726(4) 0.6234(3)
H181_8 H 0.3482 0.1681 0.6476
C131_8 C 0.3861(5) 0.2204(4) 0.6092(5)
H182_8 H 0.3699 0.248 0.6224
C132_8 C 0.4245(4) 0.2263(3) 0.5745(4)
H183_8 H 0.4353 0.2582 0.5665
H191_8 H 0.2222 0.0011 0.7141
C142_8 C 0.1869(7) 0.0289(9) 0.8076(9)
H193_8 H 0.1957 0.0605 0.7964
C143_8 C 0.1532(8) 0.0219(9) 0.8493(14)
H194_8 H 0.1385 0.0481 0.8665
N36_8 N 0.39226(19) 0.0005(3) 0.73903(19)
N38_8 N 0.2882(3) 0.0045(5) 0.7455(3)
H197_8 H 0.2823 0.0405 0.7477
N39_8 N 0.3676(3) 0.0695(3) 0.6663(3)
H198_8 H 0.3408 0.0932 0.6736
N40_8 N 0.4461(3) 0.1872(3) 0.5527(3)
C97_8 C 0.0505(4) 0.7419(4) 0.5852(4)
H133_8 H 0.048 0.7575 0.5527
H134_8 H 0.0712 0.7631 0.6059
C98_8 C 0.0751(5) 0.6935(4) 0.5796(4)
H135_8 H 0.1098 0.6983 0.5707
H136_8 H 0.0592 0.6746 0.5533
C100_8 C 0.0067(5) 0.7909(3) 0.6840(3)
H139_8 H 0.0425 0.7955 0.6819
C109_8 C 0.0825(4) 0.6129(3) 0.6210(4)
H151_8 H 0.0602 0.5995 0.5959
H152_8 H 0.0753 0.5959 0.6521
C110_8 C 0.1441(3) 0.5670(3) 0.5681(4)
H153_8 H 0.1167 0.553 0.5521
C111_8 C 0.1352(3) 0.6015(3) 0.6061(4)
C112_8 C 0.1750(4) 0.6211(5) 0.6297(5)
H154_8 H 0.1709 0.6425 0.6566
C113_8 C 0.2222(5) 0.6086(6) 0.6130(7)
H155_8 H 0.2499 0.6242 0.6267
C114_8 C 0.2282(4) 0.5744(4) 0.5775(5)
H156_8 H 0.2604 0.5648 0.5689
C115_8 C 0.0160(5) 0.7412(5) 0.7612(4)
H157_8 H 0.0506 0.7314 0.7578
C116_8 C 0.0585(7) 0.8019(6) 0.8099(6)
H159_8 H 0.087 0.7859 0.7984
C117_8 C 0.0143(5) 0.7851(5) 0.7945(4)
C120_8 C 0.0255(7) 0.8604(7) 0.8546(7)
H162_8 H 0.0299 0.8886 0.8743
N30_8 N 0.0716(2) 0.6661(3) 0.6273(3)
H163_8 H 0.0977 0.6795 0.649
Cl9_8 Cl 0.00315(10) 0.62676(7) 0.71857(7)
Cu9_8 Cu 0.00221(5) 0.68552(3) 0.66063(3)
C121_8 C 0.4148(4) 0.9495(4) 0.7419(4)
H166_8 H 0.4473 0.952 0.7575
H167_8 H 0.3941 0.9288 0.7631
C122_8 C 0.4204(4) 0.9249(5) 0.6935(4)
H168_8 H 0.4293 0.8902 0.6983
H169_8 H 0.4467 0.9408 0.6746
C124_8 C 0.3160(3) 0.9933(5) 0.7909(3)
H172_8 H 0.3181 0.9575 0.7955
C133_8 C 0.3790(4) 0.9175(4) 0.6129(3)
H184_8 H 0.4041 0.9398 0.5995
H185_8 H 0.3479 0.9247 0.5959
C134_8 C 0.4319(4) 0.8559(3) 0.5670(3)
H186_8 H 0.4479 0.8833 0.553
C135_8 C 0.3939(4) 0.8648(3) 0.6015(3)
C136_8 C 0.3703(5) 0.8250(4) 0.6211(5)
H187_8 H 0.3434 0.8291 0.6425
C137_8 C 0.3870(7) 0.7778(5) 0.6086(6)
H188_8 H 0.3733 0.7501 0.6242
C138_8 C 0.4225(5) 0.7718(4) 0.5744(4)
H189_8 H 0.4311 0.7396 0.5648
C139_8 C 0.2388(4) 0.9840(5) 0.7412(5)
H190_8 H 0.2422 0.9494 0.7314
C140_8 C 0.1901(6) 0.9415(7) 0.8019(6)
H192_8 H 0.2016 0.913 0.7859
C141_8 C 0.2055(4) 0.9857(5) 0.7851(5)
C144_8 C 0.1454(7) 0.9745(7) 0.8604(7)
H195_8 H 0.1257 0.9701 0.8886
N37_8 N 0.3727(3) 0.9284(2) 0.6661(3)
H196_8 H 0.351 0.9023 0.6795
N41_8 N 0.4467(3) 0.8105(3) 0.5530(3)
Cl11_8 Cl 0.28143(7) 0.99685(10) 0.62676(7)
Cu11_8 Cu 0.33937(3) 0.99779(5) 0.68552(3)
C99_8 C 0.9846(4) 0.7867(3) 0.6315(4)
H137_8 H 0.9485 0.7884 0.6334
H138_8 H 0.9961 0.8144 0.6113
H140_8 H 0.9927 0.8195 0.701
C101_8 C 0.9646(4) 0.7227(4) 0.5698(4)
H141_8 H 0.9806 0.6981 0.5487
H142_8 H 0.9555 0.7509 0.5491
C102_8 C 0.9187(4) 0.7007(5) 0.5919(5)
H143_8 H 0.8976 0.7271 0.6044
H144_8 H 0.9004 0.683 0.5662
C103_8 C 0.9223(4) 0.6136(3) 0.6186(4)
H145_8 H 0.932 0.5926 0.6464
H146_8 H 0.9438 0.6054 0.5907
C104_8 C 0.8597(3) 0.5676(3) 0.5668(3)
H147_8 H 0.8865 0.5542 0.5494
C105_8 C 0.8694(4) 0.6015(3) 0.6046(3)
C106_8 C 0.8274(4) 0.6234(3) 0.6274(4)
H148_8 H 0.8319 0.6476 0.6518
C107_8 C 0.7796(4) 0.6092(5) 0.6139(5)
H149_8 H 0.752 0.6224 0.6301
C108_8 C 0.7737(3) 0.5745(4) 0.5755(4)
H150_8 H 0.7418 0.5665 0.5647
H158_8 H 0.9989 0.7141 0.7778
C118_8 C 0.9711(9) 0.8076(9) 0.8131(7)
H160_8 H 0.9395 0.7964 0.8043
C119_8 C 0.9781(9) 0.8493(14) 0.8468(8)
H161_8 H 0.9519 0.8665 0.8615
N29_8 N 0.9995(3) 0.73903(19) 0.60774(19)
N31_8 N 0.9955(5) 0.7455(3) 0.7118(3)
H164_8 H 0.9595 0.7477 0.7177
N32_8 N 0.9305(3) 0.6663(3) 0.6324(3)
H165_8 H 0.9068 0.6736 0.6592
Cl10_15 Cl 0.500 0.29188(8) 0.500
Cl2_10 Cl 0.500 0.70812(8) 0.500
Cl12 Cl 0.09504(11) 0.000 0.500
Cl12_2 Cl 0.09504(11) 1.000 0.500
Cl12_3 Cl 0.90496(11) 0.000 0.500
Cl12_4 Cl 0.90496(11) 1.000 0.500
Cl12_5 Cl 0.500 0.09504(11) 0.000
Cl12_6 Cl 0.500 0.09504(11) 1.000
Cl12_7 Cl 0.000 0.500 0.09504(11)
Cl12_8 Cl 1.000 0.500 0.09504(11)
Cl12_9 Cl 0.500 0.90496(11) 0.000
Cl12_10 Cl 0.500 0.90496(11) 1.000
Cl12_11 Cl 0.000 0.500 0.90496(11)
Cl12_12 Cl 1.000 0.500 0.90496(11)
Cl12_13 Cl 0.59504(11) 0.500 0.000
Cl12_14 Cl 0.59504(11) 0.500 1.000
Cl12_15 Cl 0.40496(11) 0.500 0.000
Cl12_16 Cl 0.40496(11) 0.500 1.000
Cl12_17 Cl -0.000 0.59504(11) 0.500
Cl12_18 Cl 1.000 0.59504(11) 0.500
Cl12_19 Cl 0.500 0.000 0.59504(11)
Cl12_20 Cl 0.500 1.000 0.59504(11)
Cl12_21 Cl 0.000 0.40496(11) 0.500
Cl12_22 Cl 1.000 0.40496(11) 0.500
Cl12_23 Cl 0.500 0.000 0.40496(11)
Cl12_24 Cl 0.500 1.000 0.40496(11)
Cl13 Cl 0.2306(3) 0.2186(3) 0.3726(2)
Cl13_2 Cl 0.7694(3) 0.7814(3) 0.3726(2)
Cl13_3 Cl 0.2306(3) 0.7814(3) 0.6274(2)
Cl13_4 Cl 0.7694(3) 0.2186(3) 0.6274(2)
Cl13_5 Cl 0.3726(2) 0.2306(3) 0.2186(3)
Cl13_6 Cl 0.2186(3) 0.3726(2) 0.2306(3)
Cl13_7 Cl 0.6274(2) 0.7694(3) 0.2186(3)
Cl13_8 Cl 0.7814(3) 0.3726(2) 0.7694(3)
Cl13_9 Cl 0.3726(2) 0.7694(3) 0.7814(3)
Cl13_10 Cl 0.7814(3) 0.6274(2) 0.2306(3)
Cl13_11 Cl 0.6274(2) 0.2306(3) 0.7814(3)
Cl13_12 Cl 0.2186(3) 0.6274(2) 0.7694(3)
Cl13_13 Cl 0.7306(3) 0.7186(3) 0.8726(2)
Cl13_14 Cl 0.2694(3) 0.2814(3) 0.8726(2)
Cl13_15 Cl 0.7306(3) 0.2814(3) 0.1274(2)
Cl13_16 Cl 0.2694(3) 0.7186(3) 0.1274(2)
Cl13_17 Cl 0.8726(2) 0.7306(3) 0.7186(3)
Cl13_18 Cl 0.7186(3) 0.8726(2) 0.7306(3)
Cl13_19 Cl 0.1274(2) 0.2694(3) 0.7186(3)
Cl13_20 Cl 0.2814(3) 0.8726(2) 0.2694(3)
Cl13_21 Cl 0.8726(2) 0.2694(3) 0.2814(3)
Cl13_22 Cl 0.2814(3) 0.1274(2) 0.7306(3)
Cl13_23 Cl 0.1274(2) 0.7306(3) 0.2814(3)
Cl13_24 Cl 0.7186(3) 0.1274(2) 0.2694(3)
Cl14 Cl -0.000 0.000 0.440(2)
Cl14_2 Cl 0.000 1.000 0.440(2)
Cl14_3 Cl 1.000 0.000 0.440(2)
Cl14_4 Cl 1.000 1.000 0.440(2)
Cl14_5 Cl 0.000 0.000 0.560(2)
Cl14_6 Cl 0.000 1.000 0.560(2)
Cl14_7 Cl 1.000 0.000 0.560(2)
Cl14_8 Cl 1.000 1.000 0.560(2)
Cl14_9 Cl 0.440(2) -0.000 0.000
Cl14_10 Cl 0.440(2) 0.000 1.000
Cl14_11 Cl 0.440(2) 1.000 0.000
Cl14_12 Cl 0.440(2) 1.000 1.000
Cl14_13 Cl 0.000 0.440(2) -0.000
Cl14_14 Cl 0.000 0.440(2) 1.000
Cl14_15 Cl 1.000 0.440(2) -0.000
Cl14_16 Cl 1.000 0.440(2) 1.000
Cl14_17 Cl 0.560(2) 0.000 0.000
Cl14_18 Cl 0.560(2) 0.000 1.000
Cl14_19 Cl 0.560(2) 1.000 0.000
Cl14_20 Cl 0.560(2) 1.000 1.000
Cl14_21 Cl 0.000 0.560(2) -0.000
Cl14_22 Cl 0.000 0.560(2) 1.000
Cl14_23 Cl 1.000 0.560(2) -0.000
Cl14_24 Cl 1.000 0.560(2) 1.000
Cl14_25 Cl 0.500 0.500 0.940(2)
Cl14_26 Cl 0.500 0.500 0.060(2)
Cl14_27 Cl 0.940(2) 0.500 0.500
Cl14_28 Cl 0.500 0.940(2) 0.500
Cl14_29 Cl 0.060(2) 0.500 0.500
Cl14_30 Cl 0.500 0.060(2) 0.500
loop_
_geom_bond_atom_site_label_1
_geom_bond_atom_site_label_2
_geom_bond_site_symmetry_1
_geom_bond_site_symmetry_2
Cl10 Cu10 1_555 1_555
N44 Cu10 1_555 1_555
C1 H1 1_555 1_555
H2 C1 1_555 1_555
C2 C1 1_555 1_555
H3 C2 1_555 1_555
H4 C2 1_555 1_555
C3 H5 1_555 1_555
H6 C3 1_555 1_555
C4 C3 1_555 1_555
H7 C4 1_555 1_555
H8 C4 1_555 1_555
C5 H9 1_555 1_555
H10 C5 1_555 1_555
C6 C5 1_555 1_555
H11 C6 1_555 1_555
H12 C6 1_555 1_555
C7 H13 1_555 1_555
H14 C7 1_555 1_555
C8 H15 1_555 1_555
C9 C7 1_555 1_555
C10 C9 1_555 1_555
H16 C10 1_555 1_555
C11 C10 1_555 1_555
H17 C11 1_555 1_555
C12 C11 1_555 1_555
H18 C12 1_555 1_555
C13 H19 1_555 1_555
H20 C13 1_555 1_555
C14 H21 1_555 1_555
C15 C13 1_555 1_555
C16 C15 1_555 1_555
H22 C16 1_555 1_555
C17 C16 1_555 1_555
H23 C17 1_555 1_555
C18 C17 1_555 1_555
H24 C18 1_555 1_555
C19 H25 1_555 1_555
H26 C19 1_555 1_555
C20 H27 1_555 1_555
C21 C19 1_555 1_555
C22 C21 1_555 1_555
H28 C22 1_555 1_555
C23 C22 1_555 1_555
H29 C23 1_555 1_555
C24 C23 1_555 1_555
H30 C24 1_555 1_555
N1 C1 1_555 1_555
N2 C2 1_555 1_555
H31 N2 1_555 1_555
N3 C4 1_555 1_555
H32 N3 1_555 1_555
N4 C6 1_555 1_555
H33 N4 1_555 1_555
N5 C8 1_555 1_555
N6 C14 1_555 1_555
N7 C20 1_555 1_555
Cl1 Cu1 1_555 1_555
Cl2 Cu2 1_555 1_555
Cl3 Cu3 1_555 1_555
Cu1 N1 1_555 1_555
Cu2 N5 1_555 1_555
Cu3 N7 1_555 1_555
Cl7 Cu7 1_555 1_555
Cu7 N6 1_555 1_555
C97 H133 1_555 1_555
H134 C97 1_555 1_555
C98 C97 1_555 1_555
H135 C98 1_555 1_555
H136 C98 1_555 1_555
C99 H137 1_555 1_555
H138 C99 1_555 1_555
C100 C99 1_555 1_555
H139 C100 1_555 1_555
H140 C100 1_555 1_555
C101 H141 1_555 1_555
H142 C101 1_555 1_555
C102 C101 1_555 1_555
H143 C102 1_555 1_555
H144 C102 1_555 1_555
C103 H145 1_555 1_555
H146 C103 1_555 1_555
C104 H147 1_555 1_555
C105 C103 1_555 1_555
C106 C105 1_555 1_555
H148 C106 1_555 1_555
C107 C106 1_555 1_555
H149 C107 1_555 1_555
C108 C107 1_555 1_555
H150 C108 1_555 1_555
C109 H151 1_555 1_555
H152 C109 1_555 1_555
C110 H153 1_555 1_555
C111 C109 1_555 1_555
C112 C111 1_555 1_555
H154 C112 1_555 1_555
C113 C112 1_555 1_555
H155 C113 1_555 1_555
C114 C113 1_555 1_555
H156 C114 1_555 1_555
C115 H157 1_555 1_555
H158 C115 1_555 1_555
C116 H159 1_555 1_555
C117 C115 1_555 1_555
C118 C117 1_555 1_555
H160 C118 1_555 1_555
C119 C118 1_555 1_555
H161 C119 1_555 1_555
C120 C119 1_555 1_555
H162 C120 1_555 1_555
N29 C97 1_555 1_555
N30 C98 1_555 1_555
H163 N30 1_555 1_555
N31 C100 1_555 1_555
H164 N31 1_555 1_555
N32 C102 1_555 1_555
H165 N32 1_555 1_555
N33 C104 1_555 1_555
N34 C110 1_555 1_555
N35 Cu3 1_555 1_555
Cl9 Cu9 1_555 1_555
Cl10_2 Cu10_2 1_555 1_555
Cu9 N29 1_555 1_555
Cu10_2 N33 1_555 1_555
C121 H166 1_555 1_555
H167 C121 1_555 1_555
C122 C121 1_555 1_555
H168 C122 1_555 1_555
H169 C122 1_555 1_555
C123 H170 1_555 1_555
H171 C123 1_555 1_555
C124 C123 1_555 1_555
H172 C124 1_555 1_555
H173 C124 1_555 1_555
C125 H174 1_555 1_555
H175 C125 1_555 1_555
C126 C125 1_555 1_555
H176 C126 1_555 1_555
H177 C126 1_555 1_555
C127 H178 1_555 1_555
H179 C127 1_555 1_555
C128 H180 1_555 1_555
C129 C127 1_555 1_555
C130 C129 1_555 1_555
H181 C130 1_555 1_555
C131 C130 1_555 1_555
H182 C131 1_555 1_555
C132 C131 1_555 1_555
H183 C132 1_555 1_555
C133 H184 1_555 1_555
H185 C133 1_555 1_555
C134 H186 1_555 1_555
C135 C133 1_555 1_555
C136 C135 1_555 1_555
H187 C136 1_555 1_555
C137 C136 1_555 1_555
H188 C137 1_555 1_555
C138 C137 1_555 1_555
H189 C138 1_555 1_555
C139 H190 1_555 1_555
H191 C139 1_555 1_555
C140 H192 1_555 1_555
C141 C139 1_555 1_555
C142 C141 1_555 1_555
H193 C142 1_555 1_555
C143 C142 1_555 1_555
H194 C143 1_555 1_555
C144 C143 1_555 1_555
H195 C144 1_555 1_555
N36 C121 1_555 1_555
N37 C122 1_555 1_555
H196 N37 1_555 1_555
N38 C124 1_555 1_555
H197 N38 1_555 1_555
N39 C126 1_555 1_555
H198 N39 1_555 1_555
N40 C128 1_555 1_555
N41 C134 1_555 1_555
N42 Cu3 1_555 1_555
Cl11 Cu11 1_555 1_555
Cu11 N36 1_555 1_555
Cu12_2 N34 1_555 1_555
Cu13_2 N41 1_555 1_555
Cu14_2 N40 1_555 1_555
C3 N1 1_555 1_555
C5 N1 1_555 1_555
C7 N4 1_555 1_555
C8 C9 1_555 1_555
C12 N5 1_555 1_555
C13 N2 1_555 1_555
C14 C15 1_555 1_555
C18 N6 1_555 1_555
C19 N3 1_555 1_555
C20 C21 1_555 1_555
C24 N7 1_555 1_555
N2 Cu1 1_555 1_555
N3 Cu1 1_555 1_555
N4 Cu1 1_555 1_555
C99 N29 1_555 1_555
C101 N29 1_555 1_555
C103 N32 1_555 1_555
C104 C105 1_555 1_555
C108 N33 1_555 1_555
C109 N30 1_555 1_555
C110 C111 1_555 1_555
C114 N34 1_555 1_555
C115 N31 1_555 1_555
C116 C117 1_555 1_555
C116 N35 1_555 1_555
C120 N35 1_555 1_555
N30 Cu9 1_555 1_555
N31 Cu9 1_555 1_555
N32 Cu9 1_555 1_555
C123 N36 1_555 1_555
C125 N36 1_555 1_555
C127 N39 1_555 1_555
C128 C129 1_555 1_555
C132 N40 1_555 1_555
C133 N37 1_555 1_555
C134 C135 1_555 1_555
C138 N41 1_555 1_555
C139 N38 1_555 1_555
C140 C141 1_555 1_555
C140 N42 1_555 1_555
C144 N42 1_555 1_555
N37 Cu11 1_555 1_555
N38 Cu11 1_555 1_555
N39 Cu11 1_555 1_555
Cl10_3 Cu10_3 1_555 1_555
N43 Cu10_3 1_555 1_555
Cl2_2 Cu2_2 1_555 1_555
C49 H67 1_555 1_555
H68 C49 1_555 1_555
C50 C49 1_555 1_555
H69 C50 1_555 1_555
H70 C50 1_555 1_555
C51 H71 1_555 1_555
H72 C51 1_555 1_555
C52 C51 1_555 1_555
H73 C52 1_555 1_555
H74 C52 1_555 1_555
C53 H75 1_555 1_555
H76 C53 1_555 1_555
C54 C53 1_555 1_555
H77 C54 1_555 1_555
H78 C54 1_555 1_555
C55 H79 1_555 1_555
H80 C55 1_555 1_555
C56 H81 1_555 1_555
C57 C55 1_555 1_555
C58 C57 1_555 1_555
H82 C58 1_555 1_555
C59 C58 1_555 1_555
H83 C59 1_555 1_555
C60 C59 1_555 1_555
H84 C60 1_555 1_555
C61 H85 1_555 1_555
H86 C61 1_555 1_555
C62 H87 1_555 1_555
C63 C61 1_555 1_555
C64 C63 1_555 1_555
H88 C64 1_555 1_555
C65 C64 1_555 1_555
H89 C65 1_555 1_555
C66 C65 1_555 1_555
H90 C66 1_555 1_555
C67 H91 1_555 1_555
H92 C67 1_555 1_555
C68 H93 1_555 1_555
C69 C67 1_555 1_555
C70 C69 1_555 1_555
H94 C70 1_555 1_555
C71 C70 1_555 1_555
H95 C71 1_555 1_555
C72 C71 1_555 1_555
H96 C72 1_555 1_555
N15 C49 1_555 1_555
N16 C50 1_555 1_555
H97 N16 1_555 1_555
N17 C52 1_555 1_555
H98 N17 1_555 1_555
N18 C54 1_555 1_555
H99 N18 1_555 1_555
N19 C56 1_555 1_555
N20 Cu2_2 1_555 1_555
N21 C68 1_555 1_555
Cl6 Cu6 1_555 1_555
Cl7_2 Cu7_2 1_555 1_555
Cu6 N15 1_555 1_555
Cl10_4 Cu10_4 1_555 1_555
N45 Cu10_4 1_555 1_555
Cu15 N21 1_555 1_555
C51 N15 1_555 1_555
C53 N15 1_555 1_555
C55 N18 1_555 1_555
C56 C57 1_555 1_555
C60 N19 1_555 1_555
C61 N16 1_555 1_555
C62 C63 1_555 1_555
C62 N20 1_555 1_555
C66 N20 1_555 1_555
C67 N17 1_555 1_555
C68 C69 1_555 1_555
C72 N21 1_555 1_555
N16 Cu6 1_555 1_555
N17 Cu6 1_555 1_555
N18 Cu6 1_555 1_555
N19 Cu7_2 1_555 1_555
Cl2_3 Cu2_3 1_555 1_555
Cl7_3 Cu7_3 1_555 1_555
C73 H100 1_555 1_555
H101 C73 1_555 1_555
C74 C73 1_555 1_555
H102 C74 1_555 1_555
H103 C74 1_555 1_555
C75 H104 1_555 1_555
H105 C75 1_555 1_555
C76 C75 1_555 1_555
H106 C76 1_555 1_555
H107 C76 1_555 1_555
C77 H108 1_555 1_555
H109 C77 1_555 1_555
C78 C77 1_555 1_555
H110 C78 1_555 1_555
H111 C78 1_555 1_555
C79 H112 1_555 1_555
H113 C79 1_555 1_555
C80 H114 1_555 1_555
C81 C79 1_555 1_555
C82 C81 1_555 1_555
H115 C82 1_555 1_555
C83 C82 1_555 1_555
H116 C83 1_555 1_555
C84 C83 1_555 1_555
H117 C84 1_555 1_555
C85 H118 1_555 1_555
H119 C85 1_555 1_555
C86 H120 1_555 1_555
C87 C85 1_555 1_555
C88 C87 1_555 1_555
H121 C88 1_555 1_555
C89 C88 1_555 1_555
H122 C89 1_555 1_555
C90 C89 1_555 1_555
H123 C90 1_555 1_555
C91 H124 1_555 1_555
H125 C91 1_555 1_555
C92 H126 1_555 1_555
C93 C91 1_555 1_555
C94 C93 1_555 1_555
H127 C94 1_555 1_555
C95 C94 1_555 1_555
H128 C95 1_555 1_555
C96 C95 1_555 1_555
H129 C96 1_555 1_555
N22 C73 1_555 1_555
N23 C74 1_555 1_555
H130 N23 1_555 1_555
N24 C76 1_555 1_555
H131 N24 1_555 1_555
N25 C78 1_555 1_555
H132 N25 1_555 1_555
N26 Cu7_3 1_555 1_555
N27 Cu2_3 1_555 1_555
N28 C92 1_555 1_555
Cl8 Cu8 1_555 1_555
Cu8 N22 1_555 1_555
Cu16 N28 1_555 1_555
C75 N22 1_555 1_555
C77 N22 1_555 1_555
C79 N25 1_555 1_555
C80 C81 1_555 1_555
C80 N26 1_555 1_555
C84 N26 1_555 1_555
C85 N23 1_555 1_555
C86 C87 1_555 1_555
C86 N27 1_555 1_555
C90 N27 1_555 1_555
C91 N24 1_555 1_555
C92 C93 1_555 1_555
C96 N28 1_555 1_555
N23 Cu8 1_555 1_555
N24 Cu8 1_555 1_555
N25 Cu8 1_555 1_555
Cl2_4 Cu2_4 1_555 1_555
C25 H34 1_555 1_555
H35 C25 1_555 1_555
C26 C25 1_555 1_555
H36 C26 1_555 1_555
H37 C26 1_555 1_555
C27 H38 1_555 1_555
H39 C27 1_555 1_555
C28 C27 1_555 1_555
H40 C28 1_555 1_555
H41 C28 1_555 1_555
C29 H42 1_555 1_555
H43 C29 1_555 1_555
C30 C29 1_555 1_555
H44 C30 1_555 1_555
H45 C30 1_555 1_555
C31 H46 1_555 1_555
H47 C31 1_555 1_555
C32 H48 1_555 1_555
C33 C31 1_555 1_555
C34 C33 1_555 1_555
H49 C34 1_555 1_555
C35 C34 1_555 1_555
H50 C35 1_555 1_555
C36 C35 1_555 1_555
H51 C36 1_555 1_555
C37 H52 1_555 1_555
H53 C37 1_555 1_555
C38 H54 1_555 1_555
C39 C37 1_555 1_555
C40 C39 1_555 1_555
H55 C40 1_555 1_555
C41 C40 1_555 1_555
H56 C41 1_555 1_555
C42 C41 1_555 1_555
H57 C42 1_555 1_555
C43 H58 1_555 1_555
H59 C43 1_555 1_555
C44 H60 1_555 1_555
C45 C43 1_555 1_555
C46 C45 1_555 1_555
H61 C46 1_555 1_555
C47 C46 1_555 1_555
H62 C47 1_555 1_555
C48 C47 1_555 1_555
H63 C48 1_555 1_555
N8 C25 1_555 1_555
N9 C26 1_555 1_555
H64 N9 1_555 1_555
N10 C28 1_555 1_555
H65 N10 1_555 1_555
N11 C30 1_555 1_555
H66 N11 1_555 1_555
N12 Cu2_4 1_555 1_555
N13 C38 1_555 1_555
N14 C44 1_555 1_555
Cl4 Cu4 1_555 1_555
Cl5 Cu5 1_555 1_555
Cu4 N8 1_555 1_555
Cu5 N14 1_555 1_555
Cl7_4 Cu7_4 1_555 1_555
N46 Cu5 1_555 1_555
N47 Cu5 1_555 1_555
C27 N8 1_555 1_555
C29 N8 1_555 1_555
C31 N11 1_555 1_555
C32 C33 1_555 1_555
C32 N12 1_555 1_555
C36 N12 1_555 1_555
C37 N9 1_555 1_555
C38 C39 1_555 1_555
C42 N13 1_555 1_555
C43 N10 1_555 1_555
C44 C45 1_555 1_555
C48 N14 1_555 1_555
N9 Cu4 1_555 1_555
N10 Cu4 1_555 1_555
N11 Cu4 1_555 1_555
N13 Cu7_4 1_555 1_555
Cl10_5 Cu12 1_555 1_555
N43_2 Cu12 1_555 1_555
Cl10_6 Cu12_2 1_555 1_555
Cl10_7 Cu12_3 1_555 1_555
N44_2 Cu12_3 1_555 1_555
C97_2 H133_2 1_555 1_555
H134_2 C97_2 1_555 1_555
C98_2 C97_2 1_555 1_555
H135_2 C98_2 1_555 1_555
H136_2 C98_2 1_555 1_555
C99_2 H137_2 1_555 1_555
H138_2 C99_2 1_555 1_555
C100_2 C99_2 1_555 1_555
H139_2 C100_2 1_555 1_555
H140_2 C100_2 1_555 1_555
C101_2 H141_2 1_555 1_555
H142_2 C101_2 1_555 1_555
C102_2 C101_2 1_555 1_555
H143_2 C102_2 1_555 1_555
H144_2 C102_2 1_555 1_555
C103_2 H145_2 1_555 1_555
H146_2 C103_2 1_555 1_555
C104_2 H147_2 1_555 1_555
C105_2 C103_2 1_555 1_555
C106_2 C105_2 1_555 1_555
H148_2 C106_2 1_555 1_555
C107_2 C106_2 1_555 1_555
H149_2 C107_2 1_555 1_555
C108_2 C107_2 1_555 1_555
H150_2 C108_2 1_555 1_555
C109_2 H151_2 1_555 1_555
H152_2 C109_2 1_555 1_555
C110_2 H153_2 1_555 1_555
C111_2 C109_2 1_555 1_555
C112_2 C111_2 1_555 1_555
H154_2 C112_2 1_555 1_555
C113_2 C112_2 1_555 1_555
H155_2 C113_2 1_555 1_555
C114_2 C113_2 1_555 1_555
H156_2 C114_2 1_555 1_555
C115_2 H157_2 1_555 1_555
H158_2 C115_2 1_555 1_555
C116_2 H159_2 1_555 1_555
C117_2 C115_2 1_555 1_555
C118_2 C117_2 1_555 1_555
H160_2 C118_2 1_555 1_555
C119_2 C118_2 1_555 1_555
H161_2 C119_2 1_555 1_555
C120_2 C119_2 1_555 1_555
H162_2 C120_2 1_555 1_555
N29_2 C97_2 1_555 1_555
N30_2 C98_2 1_555 1_555
H163_2 N30_2 1_555 1_555
N31_2 C100_2 1_555 1_555
H164_2 N31_2 1_555 1_555
N32_2 C102_2 1_555 1_555
H165_2 N32_2 1_555 1_555
N33_2 C104_2 1_555 1_555
N45 C110_2 1_555 1_555
Cl9_2 Cu9_2 1_555 1_555
Cl10_8 Cu12_4 1_555 1_555
Cu9_2 N29_2 1_555 1_555
Cu12_4 N33_2 1_555 1_555
C121_2 H166_2 1_555 1_555
H167_2 C121_2 1_555 1_555
C122_2 C121_2 1_555 1_555
H168_2 C122_2 1_555 1_555
H169_2 C122_2 1_555 1_555
C123_2 H170_2 1_555 1_555
H171_2 C123_2 1_555 1_555
C124_2 C123_2 1_555 1_555
H172_2 C124_2 1_555 1_555
H173_2 C124_2 1_555 1_555
C125_2 H174_2 1_555 1_555
H175_2 C125_2 1_555 1_555
C126_2 C125_2 1_555 1_555
H176_2 C126_2 1_555 1_555
H177_2 C126_2 1_555 1_555
C127_2 H178_2 1_555 1_555
H179_2 C127_2 1_555 1_555
C128_2 H180_2 1_555 1_555
C129_2 C127_2 1_555 1_555
C130_2 C129_2 1_555 1_555
H181_2 C130_2 1_555 1_555
C131_2 C130_2 1_555 1_555
H182_2 C131_2 1_555 1_555
C132_2 C131_2 1_555 1_555
H183_2 C132_2 1_555 1_555
C133_2 H184_2 1_555 1_555
H185_2 C133_2 1_555 1_555
C134_2 H186_2 1_555 1_555
C135_2 C133_2 1_555 1_555
C136_2 C135_2 1_555 1_555
H187_2 C136_2 1_555 1_555
C137_2 C136_2 1_555 1_555
H188_2 C137_2 1_555 1_555
C138_2 C137_2 1_555 1_555
H189_2 C138_2 1_555 1_555
C139_2 H190_2 1_555 1_555
H191_2 C139_2 1_555 1_555
C140_2 H192_2 1_555 1_555
C141_2 C139_2 1_555 1_555
C142_2 C141_2 1_555 1_555
H193_2 C142_2 1_555 1_555
C143_2 C142_2 1_555 1_555
H194_2 C143_2 1_555 1_555
C144_2 C143_2 1_555 1_555
H195_2 C144_2 1_555 1_555
N36_2 C121_2 1_555 1_555
N37_2 C122_2 1_555 1_555
H196_2 N37_2 1_555 1_555
N38_2 C124_2 1_555 1_555
H197_2 N38_2 1_555 1_555
N39_2 C126_2 1_555 1_555
H198_2 N39_2 1_555 1_555
N40_2 C128_2 1_555 1_555
N41_2 C134_2 1_555 1_555
Cl11_2 Cu11_2 1_555 1_555
Cu11_2 N36_2 1_555 1_555
Cu14_4 N41_2 1_555 1_555
Cu13_4 N40_2 1_555 1_555
C99_2 N29_2 1_555 1_555
C101_2 N29_2 1_555 1_555
C103_2 N32_2 1_555 1_555
C104_2 C105_2 1_555 1_555
C108_2 N33_2 1_555 1_555
C109_2 N30_2 1_555 1_555
C110_2 C111_2 1_555 1_555
C114_2 N45 1_555 1_555
C115_2 N31_2 1_555 1_555
C116_2 C117_2 1_555 1_555
C116_2 N47 1_555 1_555
C120_2 N47 1_555 1_555
N30_2 Cu9_2 1_555 1_555
N31_2 Cu9_2 1_555 1_555
N32_2 Cu9_2 1_555 1_555
C123_2 N36_2 1_555 1_555
C125_2 N36_2 1_555 1_555
C127_2 N39_2 1_555 1_555
C128_2 C129_2 1_555 1_555
C132_2 N40_2 1_555 1_555
C133_2 N37_2 1_555 1_555
C134_2 C135_2 1_555 1_555
C138_2 N41_2 1_555 1_555
C139_2 N38_2 1_555 1_555
C140_2 C141_2 1_555 1_555
C140_2 N46 1_555 1_555
C144_2 N46 1_555 1_555
N37_2 Cu11_2 1_555 1_555
N38_2 Cu11_2 1_555 1_555
N39_2 Cu11_2 1_555 1_555
Cl3_2 Cu15 1_555 1_555
C97_3 H133_3 1_555 1_555
H134_3 C97_3 1_555 1_555
C98_3 C97_3 1_555 1_555
H135_3 C98_3 1_555 1_555
H136_3 C98_3 1_555 1_555
C99_3 H137_3 1_555 1_555
H138_3 C99_3 1_555 1_555
C100_3 C99_3 1_555 1_555
H139_3 C100_3 1_555 1_555
H140_3 C100_3 1_555 1_555
C101_3 H141_3 1_555 1_555
H142_3 C101_3 1_555 1_555
C102_3 C101_3 1_555 1_555
H143_3 C102_3 1_555 1_555
H144_3 C102_3 1_555 1_555
C103_3 H145_3 1_555 1_555
H146_3 C103_3 1_555 1_555
C104_3 H147_3 1_555 1_555
C105_3 C103_3 1_555 1_555
C106_3 C105_3 1_555 1_555
H148_3 C106_3 1_555 1_555
C107_3 C106_3 1_555 1_555
H149_3 C107_3 1_555 1_555
C108_3 C107_3 1_555 1_555
H150_3 C108_3 1_555 1_555
C109_3 H151_3 1_555 1_555
H152_3 C109_3 1_555 1_555
C110_3 H153_3 1_555 1_555
C111_3 C109_3 1_555 1_555
C112_3 C111_3 1_555 1_555
H154_3 C112_3 1_555 1_555
C113_3 C112_3 1_555 1_555
H155_3 C113_3 1_555 1_555
C114_3 C113_3 1_555 1_555
H156_3 C114_3 1_555 1_555
C115_3 H157_3 1_555 1_555
H158_3 C115_3 1_555 1_555
C116_3 H159_3 1_555 1_555
C117_3 C115_3 1_555 1_555
C118_3 C117_3 1_555 1_555
H160_3 C118_3 1_555 1_555
C119_3 C118_3 1_555 1_555
H161_3 C119_3 1_555 1_555
C120_3 C119_3 1_555 1_555
H162_3 C120_3 1_555 1_555
N29_3 C97_3 1_555 1_555
N30_3 C98_3 1_555 1_555
H163_3 N30_3 1_555 1_555
N31_3 C100_3 1_555 1_555
H164_3 N31_3 1_555 1_555
N32_3 C102_3 1_555 1_555
H165_3 N32_3 1_555 1_555
N43 C104_3 1_555 1_555
N44_2 C110_3 1_555 1_555
N35_2 Cu15 1_555 1_555
Cl9_3 Cu9_3 1_555 1_555
Cu9_3 N29_3 1_555 1_555
C121_3 H166_3 1_555 1_555
H167_3 C121_3 1_555 1_555
C122_3 C121_3 1_555 1_555
H168_3 C122_3 1_555 1_555
H169_3 C122_3 1_555 1_555
C123_3 H170_3 1_555 1_555
H171_3 C123_3 1_555 1_555
C124_3 C123_3 1_555 1_555
H172_3 C124_3 1_555 1_555
H173_3 C124_3 1_555 1_555
C125_3 H174_3 1_555 1_555
H175_3 C125_3 1_555 1_555
C126_3 C125_3 1_555 1_555
H176_3 C126_3 1_555 1_555
H177_3 C126_3 1_555 1_555
C127_3 H178_3 1_555 1_555
H179_3 C127_3 1_555 1_555
C128_3 H180_3 1_555 1_555
C129_3 C127_3 1_555 1_555
C130_3 C129_3 1_555 1_555
H181_3 C130_3 1_555 1_555
C131_3 C130_3 1_555 1_555
H182_3 C131_3 1_555 1_555
C132_3 C131_3 1_555 1_555
H183_3 C132_3 1_555 1_555
C133_3 H184_3 1_555 1_555
H185_3 C133_3 1_555 1_555
C134_3 H186_3 1_555 1_555
C135_3 C133_3 1_555 1_555
C136_3 C135_3 1_555 1_555
H187_3 C136_3 1_555 1_555
C137_3 C136_3 1_555 1_555
H188_3 C137_3 1_555 1_555
C138_3 C137_3 1_555 1_555
H189_3 C138_3 1_555 1_555
C139_3 H190_3 1_555 1_555
H191_3 C139_3 1_555 1_555
C140_3 H192_3 1_555 1_555
C141_3 C139_3 1_555 1_555
C142_3 C141_3 1_555 1_555
H193_3 C142_3 1_555 1_555
C143_3 C142_3 1_555 1_555
H194_3 C143_3 1_555 1_555
C144_3 C143_3 1_555 1_555
H195_3 C144_3 1_555 1_555
N36_3 C121_3 1_555 1_555
N37_3 C122_3 1_555 1_555
H196_3 N37_3 1_555 1_555
N38_3 C124_3 1_555 1_555
H197_3 N38_3 1_555 1_555
N39_3 C126_3 1_555 1_555
H198_3 N39_3 1_555 1_555
N40_3 C128_3 1_555 1_555
N41_3 C134_3 1_555 1_555
N42_2 Cu15 1_555 1_555
Cl11_3 Cu11_3 1_555 1_555
Cu11_3 N36_3 1_555 1_555
Cu14 N41_3 1_555 1_555
Cu13 N40_3 1_555 1_555
C99_3 N29_3 1_555 1_555
C101_3 N29_3 1_555 1_555
C103_3 N32_3 1_555 1_555
C104_3 C105_3 1_555 1_555
C108_3 N43 1_555 1_555
C109_3 N30_3 1_555 1_555
C110_3 C111_3 1_555 1_555
C114_3 N44_2 1_555 1_555
C115_3 N31_3 1_555 1_555
C116_3 C117_3 1_555 1_555
C116_3 N35_2 1_555 1_555
C120_3 N35_2 1_555 1_555
N30_3 Cu9_3 1_555 1_555
N31_3 Cu9_3 1_555 1_555
N32_3 Cu9_3 1_555 1_555
C123_3 N36_3 1_555 1_555
C125_3 N36_3 1_555 1_555
C127_3 N39_3 1_555 1_555
C128_3 C129_3 1_555 1_555
C132_3 N40_3 1_555 1_555
C133_3 N37_3 1_555 1_555
C134_3 C135_3 1_555 1_555
C138_3 N41_3 1_555 1_555
C139_3 N38_3 1_555 1_555
C140_3 C141_3 1_555 1_555
C140_3 N42_2 1_555 1_555
C144_3 N42_2 1_555 1_555
N37_3 Cu11_3 1_555 1_555
N38_3 Cu11_3 1_555 1_555
N39_3 Cu11_3 1_555 1_555
Cl5_2 Cu16 1_555 1_555
N46_2 Cu16 1_555 1_555
N47_2 Cu16 1_555 1_555
C97_4 H133_4 1_555 1_555
H134_4 C97_4 1_555 1_555
C98_4 C97_4 1_555 1_555
H135_4 C98_4 1_555 1_555
H136_4 C98_4 1_555 1_555
C99_4 H137_4 1_555 1_555
H138_4 C99_4 1_555 1_555
C100_4 C99_4 1_555 1_555
H139_4 C100_4 1_555 1_555
H140_4 C100_4 1_555 1_555
C101_4 H141_4 1_555 1_555
H142_4 C101_4 1_555 1_555
C102_4 C101_4 1_555 1_555
H143_4 C102_4 1_555 1_555
H144_4 C102_4 1_555 1_555
C103_4 H145_4 1_555 1_555
H146_4 C103_4 1_555 1_555
C104_4 H147_4 1_555 1_555
C105_4 C103_4 1_555 1_555
C106_4 C105_4 1_555 1_555
H148_4 C106_4 1_555 1_555
C107_4 C106_4 1_555 1_555
H149_4 C107_4 1_555 1_555
C108_4 C107_4 1_555 1_555
H150_4 C108_4 1_555 1_555
C109_4 H151_4 1_555 1_555
H152_4 C109_4 1_555 1_555
C110_4 H153_4 1_555 1_555
C111_4 C109_4 1_555 1_555
C112_4 C111_4 1_555 1_555
H154_4 C112_4 1_555 1_555
C113_4 C112_4 1_555 1_555
H155_4 C113_4 1_555 1_555
C114_4 C113_4 1_555 1_555
H156_4 C114_4 1_555 1_555
C115_4 H157_4 1_555 1_555
H158_4 C115_4 1_555 1_555
C116_4 H159_4 1_555 1_555
C117_4 C115_4 1_555 1_555
C118_4 C117_4 1_555 1_555
H160_4 C118_4 1_555 1_555
C119_4 C118_4 1_555 1_555
H161_4 C119_4 1_555 1_555
C120_4 C119_4 1_555 1_555
H162_4 C120_4 1_555 1_555
N29_4 C97_4 1_555 1_555
N30_4 C98_4 1_555 1_555
H163_4 N30_4 1_555 1_555
N31_4 C100_4 1_555 1_555
H164_4 N31_4 1_555 1_555
N32_4 C102_4 1_555 1_555
H165_4 N32_4 1_555 1_555
N43_2 C104_4 1_555 1_555
N44 C110_4 1_555 1_555
Cl9_4 Cu9_4 1_555 1_555
Cu9_4 N29_4 1_555 1_555
C121_4 H166_4 1_555 1_555
H167_4 C121_4 1_555 1_555
C122_4 C121_4 1_555 1_555
H168_4 C122_4 1_555 1_555
H169_4 C122_4 1_555 1_555
C123_4 H170_4 1_555 1_555
H171_4 C123_4 1_555 1_555
C124_4 C123_4 1_555 1_555
H172_4 C124_4 1_555 1_555
H173_4 C124_4 1_555 1_555
C125_4 H174_4 1_555 1_555
H175_4 C125_4 1_555 1_555
C126_4 C125_4 1_555 1_555
H176_4 C126_4 1_555 1_555
H177_4 C126_4 1_555 1_555
C127_4 H178_4 1_555 1_555
H179_4 C127_4 1_555 1_555
C128_4 H180_4 1_555 1_555
C129_4 C127_4 1_555 1_555
C130_4 C129_4 1_555 1_555
H181_4 C130_4 1_555 1_555
C131_4 C130_4 1_555 1_555
H182_4 C131_4 1_555 1_555
C132_4 C131_4 1_555 1_555
H183_4 C132_4 1_555 1_555
C133_4 H184_4 1_555 1_555
H185_4 C133_4 1_555 1_555
C134_4 H186_4 1_555 1_555
C135_4 C133_4 1_555 1_555
C136_4 C135_4 1_555 1_555
H187_4 C136_4 1_555 1_555
C137_4 C136_4 1_555 1_555
H188_4 C137_4 1_555 1_555
C138_4 C137_4 1_555 1_555
H189_4 C138_4 1_555 1_555
C139_4 H190_4 1_555 1_555
H191_4 C139_4 1_555 1_555
C140_4 H192_4 1_555 1_555
C141_4 C139_4 1_555 1_555
C142_4 C141_4 1_555 1_555
H193_4 C142_4 1_555 1_555
C143_4 C142_4 1_555 1_555
H194_4 C143_4 1_555 1_555
C144_4 C143_4 1_555 1_555
H195_4 C144_4 1_555 1_555
N36_4 C121_4 1_555 1_555
N37_4 C122_4 1_555 1_555
H196_4 N37_4 1_555 1_555
N38_4 C124_4 1_555 1_555
H197_4 N38_4 1_555 1_555
N39_4 C126_4 1_555 1_555
H198_4 N39_4 1_555 1_555
N40_4 C128_4 1_555 1_555
N41_4 C134_4 1_555 1_555
Cl11_4 Cu11_4 1_555 1_555
Cu11_4 N36_4 1_555 1_555
Cu13_3 N41_4 1_555 1_555
Cu14_3 N40_4 1_555 1_555
C99_4 N29_4 1_555 1_555
C101_4 N29_4 1_555 1_555
C103_4 N32_4 1_555 1_555
C104_4 C105_4 1_555 1_555
C108_4 N43_2 1_555 1_555
C109_4 N30_4 1_555 1_555
C110_4 C111_4 1_555 1_555
C114_4 N44 1_555 1_555
C115_4 N31_4 1_555 1_555
C116_4 C117_4 1_555 1_555
C116_4 N47_2 1_555 1_555
C120_4 N47_2 1_555 1_555
N30_4 Cu9_4 1_555 1_555
N31_4 Cu9_4 1_555 1_555
N32_4 Cu9_4 1_555 1_555
C123_4 N36_4 1_555 1_555
C125_4 N36_4 1_555 1_555
C127_4 N39_4 1_555 1_555
C128_4 C129_4 1_555 1_555
C132_4 N40_4 1_555 1_555
C133_4 N37_4 1_555 1_555
C134_4 C135_4 1_555 1_555
C138_4 N41_4 1_555 1_555
C139_4 N38_4 1_555 1_555
C140_4 C141_4 1_555 1_555
C140_4 N46_2 1_555 1_555
C144_4 N46_2 1_555 1_555
N37_4 Cu11_4 1_555 1_555
N38_4 Cu11_4 1_555 1_555
N39_4 Cu11_4 1_555 1_555
Cl10_9 Cu14 1_555 1_555
Cl10_10 Cu14_2 1_555 1_555
Cl10_11 Cu14_3 1_555 1_555
Cl10_12 Cu14_4 1_555 1_555
Cl2_5 Cu13 1_555 1_555
Cl2_6 Cu13_2 1_555 1_555
Cl2_7 Cu13_3 1_555 1_555
Cl2_8 Cu13_4 1_555 1_555
C99_5 H137_5 1_555 1_555
H138_5 C99_5 1_555 1_555
C101_5 H141_5 1_555 1_555
H142_5 C101_5 1_555 1_555
C102_5 C101_5 1_555 1_555
H143_5 C102_5 1_555 1_555
H144_5 C102_5 1_555 1_555
C103_5 H145_5 1_555 1_555
H146_5 C103_5 1_555 1_555
C104_5 H147_5 1_555 1_555
C105_5 C103_5 1_555 1_555
C106_5 C105_5 1_555 1_555
H148_5 C106_5 1_555 1_555
C107_5 C106_5 1_555 1_555
H149_5 C107_5 1_555 1_555
C108_5 C107_5 1_555 1_555
H150_5 C108_5 1_555 1_555
H160_5 C118_5 1_555 1_555
C119_5 C118_5 1_555 1_555
H161_5 C119_5 1_555 1_555
H164_5 N31_5 1_555 1_555
N32_5 C102_5 1_555 1_555
H165_5 N32_5 1_555 1_555
N33_3 C104_5 1_555 1_555
Cl10_13 Cu10_5 1_555 1_555
Cu10_5 N33_3 1_555 1_555
N43_3 Cu10_5 1_555 1_555
N44_3 Cu10_5 1_555 1_555
N45_2 Cu10_5 1_555 1_555
C99_5 N29_5 1_555 1_555
C101_5 N29_5 1_555 1_555
C103_5 N32_5 1_555 1_555
C104_5 C105_5 1_555 1_555
C108_5 N33_3 1_555 1_555
C123_5 H170_5 1_555 1_555
H171_5 C123_5 1_555 1_555
C125_5 H174_5 1_555 1_555
H175_5 C125_5 1_555 1_555
C126_5 C125_5 1_555 1_555
H176_5 C126_5 1_555 1_555
H177_5 C126_5 1_555 1_555
C127_5 H178_5 1_555 1_555
H179_5 C127_5 1_555 1_555
C128_5 H180_5 1_555 1_555
C129_5 C127_5 1_555 1_555
C130_5 C129_5 1_555 1_555
H181_5 C130_5 1_555 1_555
C131_5 C130_5 1_555 1_555
H182_5 C131_5 1_555 1_555
C132_5 C131_5 1_555 1_555
H183_5 C132_5 1_555 1_555
H193_5 C142_5 1_555 1_555
C143_5 C142_5 1_555 1_555
H194_5 C143_5 1_555 1_555
H197_5 N38_5 1_555 1_555
N39_5 C126_5 1_555 1_555
H198_5 N39_5 1_555 1_555
N40_5 C128_5 1_555 1_555
Cu14_5 N40_5 1_555 1_555
C123_5 N36_5 1_555 1_555
C125_5 N36_5 1_555 1_555
C127_5 N39_5 1_555 1_555
C128_5 C129_5 1_555 1_555
C132_5 N40_5 1_555 1_555
C1_2 H1_2 1_555 1_555
H2_2 C1_2 1_555 1_555
C2_2 C1_2 1_555 1_555
H3_2 C2_2 1_555 1_555
H4_2 C2_2 1_555 1_555
H7_2 C4_2 1_555 1_555
C13_2 H19_2 1_555 1_555
H20_2 C13_2 1_555 1_555
C14_2 H21_2 1_555 1_555
C15_2 C13_2 1_555 1_555
C16_2 C15_2 1_555 1_555
H22_2 C16_2 1_555 1_555
C17_2 C16_2 1_555 1_555
H23_2 C17_2 1_555 1_555
C18_2 C17_2 1_555 1_555
H24_2 C18_2 1_555 1_555
C19_2 H25_2 1_555 1_555
C20_2 H27_2 1_555 1_555
C21_2 C19_2 1_555 1_555
H30_2 C24_2 1_555 1_555
N2_2 C2_2 1_555 1_555
H31_2 N2_2 1_555 1_555
N6_2 C14_2 1_555 1_555
N7_2 C20_2 1_555 1_555
Cl1_2 Cu1_2 1_555 1_555
Cl3_3 Cu3_2 1_555 1_555
Cu3_2 N7_2 1_555 1_555
C25_2 H34_2 1_555 1_555
H35_2 C25_2 1_555 1_555
C26_2 C25_2 1_555 1_555
H36_2 C26_2 1_555 1_555
H37_2 C26_2 1_555 1_555
H40_2 C28_2 1_555 1_555
C37_2 H52_2 1_555 1_555
H53_2 C37_2 1_555 1_555
C38_2 H54_2 1_555 1_555
C39_2 C37_2 1_555 1_555
C40_2 C39_2 1_555 1_555
H55_2 C40_2 1_555 1_555
C41_2 C40_2 1_555 1_555
H56_2 C41_2 1_555 1_555
C42_2 C41_2 1_555 1_555
H57_2 C42_2 1_555 1_555
C43_2 H58_2 1_555 1_555
C44_2 H60_2 1_555 1_555
C45_2 C43_2 1_555 1_555
H63_2 C48_2 1_555 1_555
N9_2 C26_2 1_555 1_555
H64_2 N9_2 1_555 1_555
N13_2 C38_2 1_555 1_555
N14_2 C44_2 1_555 1_555
Cl4_2 Cu4_2 1_555 1_555
Cl5_3 Cu5_2 1_555 1_555
Cu5_2 N14_2 1_555 1_555
C51_2 H71_2 1_555 1_555
H72_2 C51_2 1_555 1_555
C53_2 H75_2 1_555 1_555
H76_2 C53_2 1_555 1_555
C54_2 C53_2 1_555 1_555
H77_2 C54_2 1_555 1_555
H78_2 C54_2 1_555 1_555
C55_2 H79_2 1_555 1_555
H80_2 C55_2 1_555 1_555
C56_2 H81_2 1_555 1_555
C57_2 C55_2 1_555 1_555
C58_2 C57_2 1_555 1_555
H82_2 C58_2 1_555 1_555
C59_2 C58_2 1_555 1_555
H83_2 C59_2 1_555 1_555
C60_2 C59_2 1_555 1_555
H84_2 C60_2 1_555 1_555
H94_2 C70_2 1_555 1_555
C71_2 C70_2 1_555 1_555
H95_2 C71_2 1_555 1_555
H98_2 N17_2 1_555 1_555
N18_2 C54_2 1_555 1_555
H99_2 N18_2 1_555 1_555
N19_2 C56_2 1_555 1_555
Cl7_5 Cu7_5 1_555 1_555
Cu7_5 N6_2 1_555 1_555
C75_2 H104_2 1_555 1_555
H105_2 C75_2 1_555 1_555
C77_2 H108_2 1_555 1_555
H109_2 C77_2 1_555 1_555
C78_2 C77_2 1_555 1_555
H110_2 C78_2 1_555 1_555
H111_2 C78_2 1_555 1_555
C79_2 H112_2 1_555 1_555
H113_2 C79_2 1_555 1_555
C80_2 H114_2 1_555 1_555
C81_2 C79_2 1_555 1_555
C82_2 C81_2 1_555 1_555
H115_2 C82_2 1_555 1_555
C83_2 C82_2 1_555 1_555
H116_2 C83_2 1_555 1_555
C84_2 C83_2 1_555 1_555
H117_2 C84_2 1_555 1_555
H127_2 C94_2 1_555 1_555
C95_2 C94_2 1_555 1_555
H128_2 C95_2 1_555 1_555
H131_2 N24_2 1_555 1_555
N25_2 C78_2 1_555 1_555
H132_2 N25_2 1_555 1_555
N26_2 Cu7_5 1_555 1_555
C97_5 H133_5 1_555 1_555
H134_5 C97_5 1_555 1_555
C98_5 C97_5 1_555 1_555
H135_5 C98_5 1_555 1_555
H136_5 C98_5 1_555 1_555
H139_5 C100_5 1_555 1_555
C109_5 H151_5 1_555 1_555
H152_5 C109_5 1_555 1_555
C110_5 H153_5 1_555 1_555
C111_5 C109_5 1_555 1_555
C112_5 C111_5 1_555 1_555
H154_5 C112_5 1_555 1_555
C113_5 C112_5 1_555 1_555
H155_5 C113_5 1_555 1_555
C114_5 C113_5 1_555 1_555
H156_5 C114_5 1_555 1_555
C115_5 H157_5 1_555 1_555
C116_5 H159_5 1_555 1_555
C117_5 C115_5 1_555 1_555
H162_5 C120_5 1_555 1_555
N30_5 C98_5 1_555 1_555
H163_5 N30_5 1_555 1_555
N34_2 C110_5 1_555 1_555
N35_3 Cu3_2 1_555 1_555
Cl9_5 Cu9_5 1_555 1_555
C121_5 H166_5 1_555 1_555
H167_5 C121_5 1_555 1_555
C122_5 C121_5 1_555 1_555
H168_5 C122_5 1_555 1_555
H169_5 C122_5 1_555 1_555
H172_5 C124_5 1_555 1_555
C133_5 H184_5 1_555 1_555
H185_5 C133_5 1_555 1_555
C134_5 H186_5 1_555 1_555
C135_5 C133_5 1_555 1_555
C136_5 C135_5 1_555 1_555
H187_5 C136_5 1_555 1_555
C137_5 C136_5 1_555 1_555
H188_5 C137_5 1_555 1_555
C138_5 C137_5 1_555 1_555
H189_5 C138_5 1_555 1_555
C139_5 H190_5 1_555 1_555
C140_5 H192_5 1_555 1_555
C141_5 C139_5 1_555 1_555
H195_5 C144_5 1_555 1_555
N37_5 C122_5 1_555 1_555
H196_5 N37_5 1_555 1_555
N41_5 C134_5 1_555 1_555
N42_3 Cu3_2 1_555 1_555
Cl11_5 Cu11_5 1_555 1_555
N46_3 Cu5_2 1_555 1_555
N47_3 Cu5_2 1_555 1_555
Cu12_5 N34_2 1_555 1_555
Cu13_5 N41_5 1_555 1_555
C13_2 N2_2 1_555 1_555
C14_2 C15_2 1_555 1_555
C18_2 N6_2 1_555 1_555
C20_2 C21_2 1_555 1_555
C24_2 N7_2 1_555 1_555
N2_2 Cu1_2 1_555 1_555
C37_2 N9_2 1_555 1_555
C38_2 C39_2 1_555 1_555
C42_2 N13_2 1_555 1_555
C44_2 C45_2 1_555 1_555
C48_2 N14_2 1_555 1_555
N9_2 Cu4_2 1_555 1_555
N13_2 Cu7_5 1_555 1_555
C51_2 N15_2 1_555 1_555
C53_2 N15_2 1_555 1_555
C55_2 N18_2 1_555 1_555
C56_2 C57_2 1_555 1_555
C60_2 N19_2 1_555 1_555
N19_2 Cu7_5 1_555 1_555
C75_2 N22_2 1_555 1_555
C77_2 N22_2 1_555 1_555
C79_2 N25_2 1_555 1_555
C80_2 C81_2 1_555 1_555
C80_2 N26_2 1_555 1_555
C84_2 N26_2 1_555 1_555
C109_5 N30_5 1_555 1_555
C110_5 C111_5 1_555 1_555
C114_5 N34_2 1_555 1_555
C116_5 C117_5 1_555 1_555
C116_5 N35_3 1_555 1_555
C120_5 N35_3 1_555 1_555
N30_5 Cu9_5 1_555 1_555
C133_5 N37_5 1_555 1_555
C134_5 C135_5 1_555 1_555
C138_5 N41_5 1_555 1_555
C140_5 C141_5 1_555 1_555
C140_5 N42_3 1_555 1_555
C144_5 N42_3 1_555 1_555
N37_5 Cu11_5 1_555 1_555
C3_2 H5_2 1_555 1_555
H6_2 C3_2 1_555 1_555
C5_2 H9_2 1_555 1_555
H10_2 C5_2 1_555 1_555
C6_2 C5_2 1_555 1_555
H11_2 C6_2 1_555 1_555
H12_2 C6_2 1_555 1_555
C7_2 H13_2 1_555 1_555
H14_2 C7_2 1_555 1_555
C8_2 H15_2 1_555 1_555
C9_2 C7_2 1_555 1_555
C10_2 C9_2 1_555 1_555
H16_2 C10_2 1_555 1_555
C11_2 C10_2 1_555 1_555
H17_2 C11_2 1_555 1_555
C12_2 C11_2 1_555 1_555
H18_2 C12_2 1_555 1_555
H28_2 C22_2 1_555 1_555
C23_2 C22_2 1_555 1_555
H29_2 C23_2 1_555 1_555
H32_2 N3_2 1_555 1_555
N4_2 C6_2 1_555 1_555
H33_2 N4_2 1_555 1_555
N5_2 C8_2 1_555 1_555
Cl2_9 Cu2_5 1_555 1_555
Cu2_5 N5_2 1_555 1_555
C27_2 H38_2 1_555 1_555
H39_2 C27_2 1_555 1_555
C29_2 H42_2 1_555 1_555
H43_2 C29_2 1_555 1_555
C30_2 C29_2 1_555 1_555
H44_2 C30_2 1_555 1_555
H45_2 C30_2 1_555 1_555
C31_2 H46_2 1_555 1_555
H47_2 C31_2 1_555 1_555
C32_2 H48_2 1_555 1_555
C33_2 C31_2 1_555 1_555
C34_2 C33_2 1_555 1_555
H49_2 C34_2 1_555 1_555
C35_2 C34_2 1_555 1_555
H50_2 C35_2 1_555 1_555
C36_2 C35_2 1_555 1_555
H51_2 C36_2 1_555 1_555
H61_2 C46_2 1_555 1_555
C47_2 C46_2 1_555 1_555
H62_2 C47_2 1_555 1_555
H65_2 N10_2 1_555 1_555
N11_2 C30_2 1_555 1_555
H66_2 N11_2 1_555 1_555
N12_2 Cu2_5 1_555 1_555
C49_2 H67_2 1_555 1_555
H68_2 C49_2 1_555 1_555
C50_2 C49_2 1_555 1_555
H69_2 C50_2 1_555 1_555
H70_2 C50_2 1_555 1_555
H73_2 C52_2 1_555 1_555
C61_2 H85_2 1_555 1_555
H86_2 C61_2 1_555 1_555
C62_2 H87_2 1_555 1_555
C63_2 C61_2 1_555 1_555
C64_2 C63_2 1_555 1_555
H88_2 C64_2 1_555 1_555
C65_2 C64_2 1_555 1_555
H89_2 C65_2 1_555 1_555
C66_2 C65_2 1_555 1_555
H90_2 C66_2 1_555 1_555
C67_2 H91_2 1_555 1_555
C68_2 H93_2 1_555 1_555
C69_2 C67_2 1_555 1_555
H96_2 C72_2 1_555 1_555
N16_2 C50_2 1_555 1_555
H97_2 N16_2 1_555 1_555
N20_2 Cu2_5 1_555 1_555
N21_2 C68_2 1_555 1_555
Cl6_2 Cu6_2 1_555 1_555
C73_2 H100_2 1_555 1_555
H101_2 C73_2 1_555 1_555
C74_2 C73_2 1_555 1_555
H102_2 C74_2 1_555 1_555
H103_2 C74_2 1_555 1_555
H106_2 C76_2 1_555 1_555
C85_2 H118_2 1_555 1_555
H119_2 C85_2 1_555 1_555
C86_2 H120_2 1_555 1_555
C87_2 C85_2 1_555 1_555
C88_2 C87_2 1_555 1_555
H121_2 C88_2 1_555 1_555
C89_2 C88_2 1_555 1_555
H122_2 C89_2 1_555 1_555
C90_2 C89_2 1_555 1_555
H123_2 C90_2 1_555 1_555
C91_2 H124_2 1_555 1_555
C92_2 H126_2 1_555 1_555
C93_2 C91_2 1_555 1_555
H129_2 C96_2 1_555 1_555
N23_2 C74_2 1_555 1_555
H130_2 N23_2 1_555 1_555
N27_2 Cu2_5 1_555 1_555
N28_2 C92_2 1_555 1_555
Cl8_2 Cu8_2 1_555 1_555
Cu15_2 N21_2 1_555 1_555
Cu16_2 N28_2 1_555 1_555
C3_2 N1_2 1_555 1_555
C5_2 N1_2 1_555 1_555
C7_2 N4_2 1_555 1_555
C8_2 C9_2 1_555 1_555
C12_2 N5_2 1_555 1_555
C27_2 N8_2 1_555 1_555
C29_2 N8_2 1_555 1_555
C31_2 N11_2 1_555 1_555
C32_2 C33_2 1_555 1_555
C32_2 N12_2 1_555 1_555
C36_2 N12_2 1_555 1_555
C61_2 N16_2 1_555 1_555
C62_2 C63_2 1_555 1_555
C62_2 N20_2 1_555 1_555
C66_2 N20_2 1_555 1_555
C68_2 C69_2 1_555 1_555
C72_2 N21_2 1_555 1_555
N16_2 Cu6_2 1_555 1_555
C85_2 N23_2 1_555 1_555
C86_2 C87_2 1_555 1_555
C86_2 N27_2 1_555 1_555
C90_2 N27_2 1_555 1_555
C92_2 C93_2 1_555 1_555
C96_2 N28_2 1_555 1_555
N23_2 Cu8_2 1_555 1_555
C97_6 H133_6 1_555 1_555
H134_6 C97_6 1_555 1_555
C98_6 C97_6 1_555 1_555
H135_6 C98_6 1_555 1_555
H136_6 C98_6 1_555 1_555
H139_6 C100_6 1_555 1_555
C109_6 H151_6 1_555 1_555
H152_6 C109_6 1_555 1_555
C110_6 H153_6 1_555 1_555
C111_6 C109_6 1_555 1_555
C112_6 C111_6 1_555 1_555
H154_6 C112_6 1_555 1_555
C113_6 C112_6 1_555 1_555
H155_6 C113_6 1_555 1_555
C114_6 C113_6 1_555 1_555
H156_6 C114_6 1_555 1_555
C115_6 H157_6 1_555 1_555
C116_6 H159_6 1_555 1_555
C117_6 C115_6 1_555 1_555
H162_6 C120_6 1_555 1_555
N30_6 C98_6 1_555 1_555
H163_6 N30_6 1_555 1_555
N45_2 C110_6 1_555 1_555
Cl9_6 Cu9_6 1_555 1_555
C121_6 H166_6 1_555 1_555
H167_6 C121_6 1_555 1_555
C122_6 C121_6 1_555 1_555
H168_6 C122_6 1_555 1_555
H169_6 C122_6 1_555 1_555
H172_6 C124_6 1_555 1_555
C133_6 H184_6 1_555 1_555
H185_6 C133_6 1_555 1_555
C134_6 H186_6 1_555 1_555
C135_6 C133_6 1_555 1_555
C136_6 C135_6 1_555 1_555
H187_6 C136_6 1_555 1_555
C137_6 C136_6 1_555 1_555
H188_6 C137_6 1_555 1_555
C138_6 C137_6 1_555 1_555
H189_6 C138_6 1_555 1_555
C139_6 H190_6 1_555 1_555
C140_6 H192_6 1_555 1_555
C141_6 C139_6 1_555 1_555
H195_6 C144_6 1_555 1_555
N37_6 C122_6 1_555 1_555
H196_6 N37_6 1_555 1_555
N41_6 C134_6 1_555 1_555
Cl11_6 Cu11_6 1_555 1_555
Cu14_5 N41_6 1_555 1_555
C109_6 N30_6 1_555 1_555
C110_6 C111_6 1_555 1_555
C114_6 N45_2 1_555 1_555
C116_6 C117_6 1_555 1_555
C116_6 N47_3 1_555 1_555
C120_6 N47_3 1_555 1_555
N30_6 Cu9_6 1_555 1_555
C133_6 N37_6 1_555 1_555
C134_6 C135_6 1_555 1_555
C138_6 N41_6 1_555 1_555
C140_6 C141_6 1_555 1_555
C140_6 N46_3 1_555 1_555
C144_6 N46_3 1_555 1_555
N37_6 Cu11_6 1_555 1_555
C123_6 H170_6 1_555 1_555
H171_6 C123_6 1_555 1_555
C125_6 H174_6 1_555 1_555
H175_6 C125_6 1_555 1_555
C126_6 C125_6 1_555 1_555
H176_6 C126_6 1_555 1_555
H177_6 C126_6 1_555 1_555
C127_6 H178_6 1_555 1_555
H179_6 C127_6 1_555 1_555
C128_6 H180_6 1_555 1_555
C129_6 C127_6 1_555 1_555
C130_6 C129_6 1_555 1_555
H181_6 C130_6 1_555 1_555
C131_6 C130_6 1_555 1_555
H182_6 C131_6 1_555 1_555
C132_6 C131_6 1_555 1_555
H183_6 C132_6 1_555 1_555
H193_6 C142_6 1_555 1_555
C143_6 C142_6 1_555 1_555
H194_6 C143_6 1_555 1_555
H197_6 N38_6 1_555 1_555
N39_6 C126_6 1_555 1_555
H198_6 N39_6 1_555 1_555
N40_6 C128_6 1_555 1_555
Cu13_5 N40_6 1_555 1_555
C123_6 N36_6 1_555 1_555
C125_6 N36_6 1_555 1_555
C127_6 N39_6 1_555 1_555
C128_6 C129_6 1_555 1_555
C132_6 N40_6 1_555 1_555
C99_6 H137_6 1_555 1_555
H138_6 C99_6 1_555 1_555
C101_6 H141_6 1_555 1_555
H142_6 C101_6 1_555 1_555
C102_6 C101_6 1_555 1_555
H143_6 C102_6 1_555 1_555
H144_6 C102_6 1_555 1_555
C103_6 H145_6 1_555 1_555
H146_6 C103_6 1_555 1_555
C104_6 H147_6 1_555 1_555
C105_6 C103_6 1_555 1_555
C106_6 C105_6 1_555 1_555
H148_6 C106_6 1_555 1_555
C107_6 C106_6 1_555 1_555
H149_6 C107_6 1_555 1_555
C108_6 C107_6 1_555 1_555
H150_6 C108_6 1_555 1_555
H160_6 C118_6 1_555 1_555
C119_6 C118_6 1_555 1_555
H161_6 C119_6 1_555 1_555
H164_6 N31_6 1_555 1_555
N32_6 C102_6 1_555 1_555
H165_6 N32_6 1_555 1_555
N33_4 C104_6 1_555 1_555
Cl10_14 Cu12_5 1_555 1_555
Cu12_5 N33_4 1_555 1_555
N43_4 Cu12_5 1_555 1_555
N44_4 Cu12_5 1_555 1_555
C99_6 N29_6 1_555 1_555
C101_6 N29_6 1_555 1_555
C103_6 N32_6 1_555 1_555
C104_6 C105_6 1_555 1_555
C108_6 N33_4 1_555 1_555
C99_7 H137_7 1_555 1_555
H138_7 C99_7 1_555 1_555
C101_7 H141_7 1_555 1_555
H142_7 C101_7 1_555 1_555
C102_7 C101_7 1_555 1_555
H143_7 C102_7 1_555 1_555
H144_7 C102_7 1_555 1_555
C103_7 H145_7 1_555 1_555
H146_7 C103_7 1_555 1_555
C104_7 H147_7 1_555 1_555
C105_7 C103_7 1_555 1_555
C106_7 C105_7 1_555 1_555
H148_7 C106_7 1_555 1_555
C107_7 C106_7 1_555 1_555
H149_7 C107_7 1_555 1_555
C108_7 C107_7 1_555 1_555
H150_7 C108_7 1_555 1_555
H160_7 C118_7 1_555 1_555
C119_7 C118_7 1_555 1_555
H161_7 C119_7 1_555 1_555
H164_7 N31_7 1_555 1_555
N32_7 C102_7 1_555 1_555
H165_7 N32_7 1_555 1_555
N43_3 C104_7 1_555 1_555
C99_7 N29_7 1_555 1_555
C101_7 N29_7 1_555 1_555
C103_7 N32_7 1_555 1_555
C104_7 C105_7 1_555 1_555
C108_7 N43_3 1_555 1_555
Cl3_4 Cu15_2 1_555 1_555
Cl5_4 Cu16_2 1_555 1_555
C97_7 H133_7 1_555 1_555
H134_7 C97_7 1_555 1_555
C98_7 C97_7 1_555 1_555
H135_7 C98_7 1_555 1_555
H136_7 C98_7 1_555 1_555
H139_7 C100_7 1_555 1_555
C109_7 H151_7 1_555 1_555
H152_7 C109_7 1_555 1_555
C110_7 H153_7 1_555 1_555
C111_7 C109_7 1_555 1_555
C112_7 C111_7 1_555 1_555
H154_7 C112_7 1_555 1_555
C113_7 C112_7 1_555 1_555
H155_7 C113_7 1_555 1_555
C114_7 C113_7 1_555 1_555
H156_7 C114_7 1_555 1_555
C115_7 H157_7 1_555 1_555
C116_7 H159_7 1_555 1_555
C117_7 C115_7 1_555 1_555
H162_7 C120_7 1_555 1_555
N30_7 C98_7 1_555 1_555
H163_7 N30_7 1_555 1_555
N44_4 C110_7 1_555 1_555
N35_4 Cu15_2 1_555 1_555
Cl9_7 Cu9_7 1_555 1_555
C121_7 H166_7 1_555 1_555
H167_7 C121_7 1_555 1_555
C122_7 C121_7 1_555 1_555
H168_7 C122_7 1_555 1_555
H169_7 C122_7 1_555 1_555
H172_7 C124_7 1_555 1_555
C133_7 H184_7 1_555 1_555
H185_7 C133_7 1_555 1_555
C134_7 H186_7 1_555 1_555
C135_7 C133_7 1_555 1_555
C136_7 C135_7 1_555 1_555
H187_7 C136_7 1_555 1_555
C137_7 C136_7 1_555 1_555
H188_7 C137_7 1_555 1_555
C138_7 C137_7 1_555 1_555
H189_7 C138_7 1_555 1_555
C139_7 H190_7 1_555 1_555
C140_7 H192_7 1_555 1_555
C141_7 C139_7 1_555 1_555
H195_7 C144_7 1_555 1_555
N37_7 C122_7 1_555 1_555
H196_7 N37_7 1_555 1_555
N41_7 C134_7 1_555 1_555
N42_4 Cu15_2 1_555 1_555
Cl11_7 Cu11_7 1_555 1_555
N46_4 Cu16_2 1_555 1_555
N47_4 Cu16_2 1_555 1_555
Cu14_5 N41_7 1_555 1_555
C109_7 N30_7 1_555 1_555
C110_7 C111_7 1_555 1_555
C114_7 N44_4 1_555 1_555
C116_7 C117_7 1_555 1_555
C116_7 N35_4 1_555 1_555
C120_7 N35_4 1_555 1_555
N30_7 Cu9_7 1_555 1_555
C133_7 N37_7 1_555 1_555
C134_7 C135_7 1_555 1_555
C138_7 N41_7 1_555 1_555
C140_7 C141_7 1_555 1_555
C140_7 N42_4 1_555 1_555
C144_7 N42_4 1_555 1_555
N37_7 Cu11_7 1_555 1_555
C123_7 H170_7 1_555 1_555
H171_7 C123_7 1_555 1_555
C125_7 H174_7 1_555 1_555
H175_7 C125_7 1_555 1_555
C126_7 C125_7 1_555 1_555
H176_7 C126_7 1_555 1_555
H177_7 C126_7 1_555 1_555
C127_7 H178_7 1_555 1_555
H179_7 C127_7 1_555 1_555
C128_7 H180_7 1_555 1_555
C129_7 C127_7 1_555 1_555
C130_7 C129_7 1_555 1_555
H181_7 C130_7 1_555 1_555
C131_7 C130_7 1_555 1_555
H182_7 C131_7 1_555 1_555
C132_7 C131_7 1_555 1_555
H183_7 C132_7 1_555 1_555
H193_7 C142_7 1_555 1_555
C143_7 C142_7 1_555 1_555
H194_7 C143_7 1_555 1_555
H197_7 N38_7 1_555 1_555
N39_7 C126_7 1_555 1_555
H198_7 N39_7 1_555 1_555
N40_7 C128_7 1_555 1_555
Cu13_5 N40_7 1_555 1_555
C123_7 N36_7 1_555 1_555
C125_7 N36_7 1_555 1_555
C127_7 N39_7 1_555 1_555
C128_7 C129_7 1_555 1_555
C132_7 N40_7 1_555 1_555
C123_8 H170_8 1_555 1_555
H171_8 C123_8 1_555 1_555
C125_8 H174_8 1_555 1_555
H175_8 C125_8 1_555 1_555
C126_8 C125_8 1_555 1_555
H176_8 C126_8 1_555 1_555
H177_8 C126_8 1_555 1_555
C127_8 H178_8 1_555 1_555
H179_8 C127_8 1_555 1_555
C128_8 H180_8 1_555 1_555
C129_8 C127_8 1_555 1_555
C130_8 C129_8 1_555 1_555
H181_8 C130_8 1_555 1_555
C131_8 C130_8 1_555 1_555
H182_8 C131_8 1_555 1_555
C132_8 C131_8 1_555 1_555
H183_8 C132_8 1_555 1_555
H193_8 C142_8 1_555 1_555
C143_8 C142_8 1_555 1_555
H194_8 C143_8 1_555 1_555
H197_8 N38_8 1_555 1_555
N39_8 C126_8 1_555 1_555
H198_8 N39_8 1_555 1_555
N40_8 C128_8 1_555 1_555
Cu14_5 N40_8 1_555 1_555
C123_8 N36_8 1_555 1_555
C125_8 N36_8 1_555 1_555
C127_8 N39_8 1_555 1_555
C128_8 C129_8 1_555 1_555
C132_8 N40_8 1_555 1_555
C97_8 H133_8 1_555 1_555
H134_8 C97_8 1_555 1_555
C98_8 C97_8 1_555 1_555
H135_8 C98_8 1_555 1_555
H136_8 C98_8 1_555 1_555
H139_8 C100_8 1_555 1_555
C109_8 H151_8 1_555 1_555
H152_8 C109_8 1_555 1_555
C110_8 H153_8 1_555 1_555
C111_8 C109_8 1_555 1_555
C112_8 C111_8 1_555 1_555
H154_8 C112_8 1_555 1_555
C113_8 C112_8 1_555 1_555
H155_8 C113_8 1_555 1_555
C114_8 C113_8 1_555 1_555
H156_8 C114_8 1_555 1_555
C115_8 H157_8 1_555 1_555
C116_8 H159_8 1_555 1_555
C117_8 C115_8 1_555 1_555
H162_8 C120_8 1_555 1_555
N30_8 C98_8 1_555 1_555
H163_8 N30_8 1_555 1_555
N44_3 C110_8 1_555 1_555
Cl9_8 Cu9_8 1_555 1_555
C121_8 H166_8 1_555 1_555
H167_8 C121_8 1_555 1_555
C122_8 C121_8 1_555 1_555
H168_8 C122_8 1_555 1_555
H169_8 C122_8 1_555 1_555
H172_8 C124_8 1_555 1_555
C133_8 H184_8 1_555 1_555
H185_8 C133_8 1_555 1_555
C134_8 H186_8 1_555 1_555
C135_8 C133_8 1_555 1_555
C136_8 C135_8 1_555 1_555
H187_8 C136_8 1_555 1_555
C137_8 C136_8 1_555 1_555
H188_8 C137_8 1_555 1_555
C138_8 C137_8 1_555 1_555
H189_8 C138_8 1_555 1_555
C139_8 H190_8 1_555 1_555
C140_8 H192_8 1_555 1_555
C141_8 C139_8 1_555 1_555
H195_8 C144_8 1_555 1_555
N37_8 C122_8 1_555 1_555
H196_8 N37_8 1_555 1_555
N41_8 C134_8 1_555 1_555
Cl11_8 Cu11_8 1_555 1_555
Cu13_5 N41_8 1_555 1_555
C109_8 N30_8 1_555 1_555
C110_8 C111_8 1_555 1_555
C114_8 N44_3 1_555 1_555
C116_8 C117_8 1_555 1_555
C116_8 N47_4 1_555 1_555
C120_8 N47_4 1_555 1_555
N30_8 Cu9_8 1_555 1_555
C133_8 N37_8 1_555 1_555
C134_8 C135_8 1_555 1_555
C138_8 N41_8 1_555 1_555
C140_8 C141_8 1_555 1_555
C140_8 N46_4 1_555 1_555
C144_8 N46_4 1_555 1_555
N37_8 Cu11_8 1_555 1_555
C99_8 H137_8 1_555 1_555
H138_8 C99_8 1_555 1_555
C101_8 H141_8 1_555 1_555
H142_8 C101_8 1_555 1_555
C102_8 C101_8 1_555 1_555
H143_8 C102_8 1_555 1_555
H144_8 C102_8 1_555 1_555
C103_8 H145_8 1_555 1_555
H146_8 C103_8 1_555 1_555
C104_8 H147_8 1_555 1_555
C105_8 C103_8 1_555 1_555
C106_8 C105_8 1_555 1_555
H148_8 C106_8 1_555 1_555
C107_8 C106_8 1_555 1_555
H149_8 C107_8 1_555 1_555
C108_8 C107_8 1_555 1_555
H150_8 C108_8 1_555 1_555
H160_8 C118_8 1_555 1_555
C119_8 C118_8 1_555 1_555
H161_8 C119_8 1_555 1_555
H164_8 N31_8 1_555 1_555
N32_8 C102_8 1_555 1_555
H165_8 N32_8 1_555 1_555
N43_4 C104_8 1_555 1_555
C99_8 N29_8 1_555 1_555
C101_8 N29_8 1_555 1_555
C103_8 N32_8 1_555 1_555
C104_8 C105_8 1_555 1_555
C108_8 N43_4 1_555 1_555
Cl10_15 Cu14_5 1_555 1_555
Cl2_10 Cu13_5 1_555 1_555

#END
