
###############################################################################
#
# This file contains modified crystal structure data generated from the
# MOF subset of the Cambridge Structural Database (CSD) v543 
# hosted by the Cambridge Crystallographic Data Centre (CCDC).
#
# This work is licensed under the Creative Commons
# Attribution-NonCommercial-ShareAlike 4.0 International License.
# To view a copy of this license, visit
# http://creativecommons.org/licenses/by-nc-sa/4.0/
# or send a letter to
# Creative Commons, PO Box 1866, Mountain View, CA 94042, USA.
#
# CIF created using the CSD Python API on 29 September 2022
# The structure has been converted into the P1 space group
# The structure has a 3D framework
# The original CSD entry PAXJOQ is in the orthorhombic crystal system
# The framework has been calculated to contain at least 10.0% void space
# The void calculation uses a probe of radius 1.32A, grid spacing 0.4
#
###############################################################################

data_PAXJOQ
_chemical_formula_moiety         '(C200 H224 Ag8 Mg22 N32 O72)n'
_symmetry_cell_setting           triclinic
_symmetry_space_group_name_H-M   'P 1'
_symmetry_Int_Tables_number      1
_space_group_name_Hall           'P 1'
loop_
_symmetry_equiv_pos_site_id
_symmetry_equiv_pos_as_xyz
1 x,y,z
_cell_length_a                   17.4437(12)
_cell_length_b                   14.1394(10)
_cell_length_c                   29.0311(19)
_cell_angle_alpha                90
_cell_angle_beta                 90
_cell_angle_gamma                90
_cell_volume                     7160.33
loop_
_atom_site_label
_atom_site_type_symbol
_atom_site_fract_x
_atom_site_fract_y
_atom_site_fract_z
C7 C 0.0289(2) 0.2153(2) 0.90578(12)
H7 H 0.0009 0.1921 0.9328
H8 H 0.0832 0.2227 0.9135
H9 H 0.0236 0.1699 0.8805
C9 C 0.04272(17) 0.3725(2) 0.86463(10)
C10 C 0.02040(17) 0.4666(2) 0.85232(10)
C11 C 0.07581(18) 0.5272(2) 0.82529(12)
H10 H 0.0727 0.5107 0.7926
H11 H 0.1281 0.5161 0.8364
H12 H 0.0626 0.5940 0.8294
C12 C 0.11730(19) 0.3411(2) 0.85222(11)
N2 N 0.17745(17) 0.3140(2) 0.84258(10)
Ag4 Ag 0.27277(2) 0.20431(2) 0.83937(2)
Mg2 Mg 0.5000 0.5000 1.0000
O4 O 0.04225(11) 0.00227(15) 0.63651(7)
O6 O 0.20000(11) 0.06212(15) 0.61963(7)
O7 O 0.42587(12) 0.51527(15) 0.94657(7)
O8 O 0.50857(11) 0.36181(15) 0.97989(7)
C1 C 0.0980(2) 0.0241(3) 0.46317(11)
H2 H 0.1330 0.0212 0.4368
H3 H 0.0888 0.0904 0.4714
C15 C 0.22336(16) 0.0429(2) 0.69916(10)
C16 C 0.22447(17) 0.0946(2) 0.65649(10)
C17 C 0.2573(2) 0.1938(2) 0.65561(11)
H16 H 0.3074 0.1930 0.6403
H17 H 0.2634 0.2169 0.6872
H18 H 0.2225 0.2357 0.6388
C18 C 0.24863(17) 0.0896(2) 0.73983(11)
C19 C 0.3592(2) 0.4969(3) 0.87596(14)
H19 H 0.3378 0.5583 0.8849
H20 H 0.3174 0.4519 0.8707
H21 H 0.3892 0.5041 0.8477
C20 C 0.41007(17) 0.4607(2) 0.91394(11)
C21 C 0.43797(17) 0.3655(2) 0.91079(10)
C22 C 0.48393(17) 0.3205(2) 0.94471(11)
C23 C 0.5039(2) 0.2174(2) 0.93854(13)
H22 H 0.5486 0.2118 0.9183
H23 H 0.4603 0.1842 0.9247
H24 H 0.5157 0.1894 0.9686
C24 C 0.41610(17) 0.3140(2) 0.87100(11)
N3 N 0.26656(16) 0.12625(19) 0.77343(9)
N4 N 0.39844(15) 0.27388(19) 0.83787(9)
O9 O 0.59165(13) 0.53447(16) 0.95718(8)
H25 H 0.588(2) 0.524(3) 0.9289(7)
C25 C 0.65343(18) 0.5983(3) 0.96613(12)
H26 H 0.6379 0.6627 0.9579
H27 H 0.6981 0.5799 0.9477
H28 H 0.6667 0.5959 0.9989
N9 N 0.28577(17) 0.1478(2) 0.91145(9)
H1 H 0.4507 0.0061 0.9550
C3 C 0.31085(17) 0.0990(2) 0.99542(10)
H5 H 0.2205 0.2494 0.9912
C6 C 0.29640(18) 0.1257(2) 0.94879(11)
Mg2_2 Mg 0.5000 0.0000 0.5000
O7_2 O 0.57413(12) 0.01527(15) 0.55343(7)
H19_2 H 0.6622 0.0583 0.6151
H21_2 H 0.6108 0.0041 0.6523
O9_2 O 0.40835(13) 0.03447(16) 0.54282(8)
H25_2 H 0.412(2) 0.024(3) 0.5711(7)
C25_2 C 0.34657(18) 0.0983(3) 0.53387(12)
H26_2 H 0.3621 0.1627 0.5421
H27_2 H 0.3019 0.0799 0.5523
H28_2 H 0.3333 0.0959 0.5011
Mg3 Mg 0.13776(5) 0.55602(7) 0.10606(3)
O10 O 0.11148(12) 0.50278(15) 0.04281(7)
O11 O 0.22387(11) 0.62617(15) 0.07252(7)
O12 O 0.07049(12) 0.67225(15) 0.09685(8)
O13 O 0.04225(11) 0.49773(15) 0.13651(7)
O14 O 0.17256(12) 0.59999(14) 0.17033(7)
O15 O 0.20000(11) 0.43788(15) 0.11963(7)
O17 O 0.50857(11) 0.13819(15) 0.47989(7)
C27 C 0.13308(18) 0.5266(2) 0.00336(11)
C29 C 0.23299(16) 0.6434(2) 0.03082(10)
C30 C 0.29569(18) 0.7121(2) 0.01791(11)
H32 H 0.3425 0.6771 0.0103
H34 H 0.3058 0.7545 0.0439
C33 C 0.00343(17) 0.6910(2) 0.10874(10)
C38 C 0.2062(2) 0.6011(2) 0.24945(11)
H41 H 0.1686 0.5742 0.2708
H42 H 0.2580 0.5913 0.2616
H43 H 0.1966 0.6691 0.2459
C39 C 0.19906(16) 0.5532(2) 0.20319(10)
C40 C 0.22336(16) 0.4571(2) 0.19916(10)
C41 C 0.22447(17) 0.4054(2) 0.15649(10)
C42 C 0.2573(2) 0.3062(2) 0.15561(11)
H44 H 0.3074 0.3070 0.1403
H45 H 0.2634 0.2831 0.1872
H46 H 0.2225 0.2643 0.1388
C43 C 0.24863(17) 0.4104(2) 0.23983(11)
C44 C 0.3592(2) 0.0031(3) 0.37596(14)
H48 H 0.3174 0.0481 0.3707
C45 C 0.41007(17) 0.0393(2) 0.41394(11)
C46 C 0.43797(17) 0.1345(2) 0.41079(10)
C47 C 0.48393(17) 0.1795(2) 0.44471(11)
C48 C 0.5039(2) 0.2826(2) 0.43854(13)
H50 H 0.5486 0.2882 0.4183
H51 H 0.4603 0.3158 0.4247
H52 H 0.5157 0.3106 0.4686
C49 C 0.41610(17) 0.1860(2) 0.37100(11)
N7 N 0.26656(16) 0.37375(19) 0.27343(9)
N8 N 0.39844(15) 0.22612(19) 0.33787(9)
Ag2 Ag 0.27277(2) 0.29569(2) 0.33937(2)
N10 N 0.28577(17) 0.3522(2) 0.41145(9)
N12 N 0.17745(17) 0.1860(2) 0.34258(10)
C26 C 0.0980(2) 0.4759(3) 0.96317(11)
H29 H 0.0493 0.5061 0.9550
H30 H 0.1330 0.4788 0.9368
H31 H 0.0888 0.4096 0.9714
C28 C 0.18915(17) 0.5990(2) 0.99542(10)
H33 H 0.2795 0.7494 0.9912
C31 C 0.20360(18) 0.6257(2) 0.94879(11)
N5 N 0.21423(17) 0.6478(2) 0.91145(9)
Ag5 Ag 0.22723(2) 0.70431(2) 0.83937(2)
Mg2_3 Mg -0.0000 1.0000 1.0000
Mg3_2 Mg 0.36224(5) 0.44398(7) 0.60606(3)
O10_2 O 0.38852(12) 0.49722(15) 0.54281(7)
O11_2 O 0.27613(11) 0.37383(15) 0.57252(7)
O12_2 O 0.42951(12) 0.32775(15) 0.59685(8)
O13_2 O 0.45775(11) 0.50227(15) 0.63651(7)
O14_2 O 0.32744(12) 0.40001(14) 0.67033(7)
O15_2 O 0.30000(11) 0.56212(15) 0.61963(7)
C26_2 C 0.4020(2) 0.5241(3) 0.46317(11)
H29_2 H 0.4507 0.4939 0.4550
H30_2 H 0.3670 0.5212 0.4368
H31_2 H 0.4112 0.5904 0.4714
C27_2 C 0.36692(18) 0.4734(2) 0.50336(11)
C28_2 C 0.31085(17) 0.4010(2) 0.49542(10)
C29_2 C 0.26701(16) 0.3566(2) 0.53082(10)
C30_2 C 0.20431(18) 0.2879(2) 0.51791(11)
H32_2 H 0.1575 0.3229 0.5103
H33_2 H 0.2205 0.2506 0.4912
H34_2 H 0.1942 0.2455 0.5439
C31_2 C 0.29640(18) 0.3743(2) 0.44879(11)
C32 C 0.5289(2) 0.2153(2) 0.59422(12)
H35 H 0.5009 0.1921 0.5672
H36 H 0.5832 0.2227 0.5865
H37 H 0.5236 0.1699 0.6195
C33_2 C 0.49657(17) 0.3090(2) 0.60874(10)
C34 C 0.54272(17) 0.3725(2) 0.63537(10)
C35 C 0.52040(17) 0.4666(2) 0.64768(10)
C36 C 0.57581(18) 0.5272(2) 0.67471(12)
H38 H 0.5727 0.5107 0.7074
H39 H 0.6281 0.5161 0.6636
H40 H 0.5626 0.5940 0.6706
C37 C 0.61730(19) 0.3411(2) 0.64778(11)
C38_2 C 0.2938(2) 0.3989(2) 0.74945(11)
H41_2 H 0.3314 0.4258 0.7708
H42_2 H 0.2420 0.4087 0.7616
H43_2 H 0.3034 0.3309 0.7459
C39_2 C 0.30094(16) 0.4468(2) 0.70319(10)
C40_2 C 0.27664(16) 0.5429(2) 0.69916(10)
C41_2 C 0.27553(17) 0.5946(2) 0.65649(10)
C42_2 C 0.2427(2) 0.6938(2) 0.65561(11)
H44_2 H 0.1926 0.6930 0.6403
H45_2 H 0.2366 0.7169 0.6872
H46_2 H 0.2775 0.7357 0.6388
C43_2 C 0.25137(17) 0.5896(2) 0.73983(11)
C44_2 C 0.1408(2) 0.9969(3) 0.87596(14)
H48_2 H 0.1826 0.9519 0.8707
C45_2 C 0.08993(17) 0.9607(2) 0.91394(11)
C46_2 C 0.06203(17) 0.8655(2) 0.91079(10)
C47_2 C 0.01607(17) 0.8205(2) 0.94471(11)
H51_2 H 0.0397 0.6842 0.9247
C49_2 C 0.08390(17) 0.8140(2) 0.87100(11)
N6 N 0.67745(17) 0.3140(2) 0.65742(10)
N7_2 N 0.23344(16) 0.62625(19) 0.77343(9)
N8_2 N 0.10156(15) 0.77388(19) 0.83787(9)
N12_2 N 0.32255(17) 0.8140(2) 0.84258(10)
Ag6 Ag 0.77277(2) 0.20431(2) 0.66063(2)
C32_2 C 0.0289(2) 0.2847(2) 0.40578(12)
H35_2 H 0.0009 0.3079 0.4328
H36_2 H 0.0832 0.2773 0.4135
H37_2 H 0.0236 0.3301 0.3805
C34_2 C 0.04272(17) 0.1275(2) 0.36463(10)
C35_2 C 0.02040(17) 0.0334(2) 0.35232(10)
C37_2 C 0.11730(19) 0.1589(2) 0.35222(11)
Mg3_3 Mg 0.86224(5) 0.05602(7) 0.39394(3)
O10_3 O 0.88852(12) 0.00278(15) 0.45719(7)
O11_3 O 0.77613(11) 0.12617(15) 0.42748(7)
O12_3 O 0.92951(12) 0.17225(15) 0.40315(8)
O14_3 O 0.82744(12) 0.09999(14) 0.32967(7)
H29_3 H 0.9507 0.0061 0.5450
C27_3 C 0.86692(18) 0.0266(2) 0.49664(11)
C28_3 C 0.81085(17) 0.0990(2) 0.50458(10)
C29_3 C 0.76701(16) 0.1434(2) 0.46918(10)
C30_3 C 0.70431(18) 0.2121(2) 0.48209(11)
H32_3 H 0.6575 0.1771 0.4897
H33_3 H 0.7205 0.2494 0.5088
H34_3 H 0.6942 0.2545 0.4561
C31_3 C 0.79640(18) 0.1257(2) 0.55121(11)
C33_3 C 0.99657(17) 0.1910(2) 0.39126(10)
C38_3 C 0.7938(2) 0.1011(2) 0.25055(11)
H41_3 H 0.8314 0.0742 0.2292
H42_3 H 0.7420 0.0913 0.2384
H43_3 H 0.8034 0.1691 0.2541
C39_3 C 0.80094(16) 0.0532(2) 0.29681(10)
N5_2 N 0.78577(17) 0.1478(2) 0.58855(9)
Mg2_4 Mg 1.0000 0.5000 0.5000
O8_2 O 0.99143(11) 0.63819(15) 0.47989(7)
C23_2 C 0.9961(2) 0.7826(2) 0.43854(13)
H22_2 H 0.9514 0.7882 0.4183
H24_2 H 0.9843 0.8106 0.4686
O9_3 O 0.90835(13) 0.46553(16) 0.45718(8)
H25_3 H 0.912(2) 0.476(3) 0.4289(7)
C25_3 C 0.84657(18) 0.4017(3) 0.46613(12)
H26_3 H 0.8621 0.3373 0.4579
H27_3 H 0.8019 0.4201 0.4477
H28_3 H 0.8333 0.4041 0.4989
O13_3 O 0.54225(11) 0.00227(15) 0.86349(7)
O15_3 O 0.70000(11) 0.06212(15) 0.88037(7)
O16 O 0.92587(12) 0.51527(15) 0.55343(7)
C36_2 C 0.42419(18) 0.0272(2) 0.82529(12)
H38_2 H 0.4273 0.0107 0.7926
H39_2 H 0.3719 0.0161 0.8364
H40_2 H 0.4374 0.0940 0.8294
C40_3 C 0.72336(16) 0.0429(2) 0.80084(10)
C41_3 C 0.72447(17) 0.0946(2) 0.84351(10)
C42_3 C 0.7573(2) 0.1938(2) 0.84439(11)
H44_3 H 0.8074 0.1930 0.8597
H45_3 H 0.7634 0.2169 0.8128
H46_3 H 0.7225 0.2357 0.8612
C43_3 C 0.74863(17) 0.0896(2) 0.76017(11)
C44_3 C 0.8592(2) 0.4969(3) 0.62404(14)
H47 H 0.8378 0.5583 0.6151
H48_3 H 0.8174 0.4519 0.6293
H49 H 0.8892 0.5041 0.6523
C45_3 C 0.91007(17) 0.4607(2) 0.58606(11)
C46_3 C 0.93797(17) 0.3655(2) 0.58921(10)
C47_3 C 0.98393(17) 0.3205(2) 0.55529(11)
H51_3 H 0.9603 0.1842 0.5753
C49_3 C 0.91610(17) 0.3140(2) 0.62900(11)
N7_3 N 0.76656(16) 0.12625(19) 0.72657(9)
N8_3 N 0.89844(15) 0.27388(19) 0.66213(9)
Mg3_4 Mg 0.63776(5) 0.94398(7) 0.89394(3)
O10_4 O 0.61148(12) 0.99722(15) 0.95719(7)
O11_4 O 0.72387(11) 0.87383(15) 0.92748(7)
O12_4 O 0.57049(12) 0.82775(15) 0.90315(8)
O14_4 O 0.67256(12) 0.90001(14) 0.82967(7)
C27_4 C 0.63308(18) 0.9734(2) 0.99664(11)
C29_4 C 0.73299(16) 0.8566(2) 0.96918(10)
C30_4 C 0.79569(18) 0.7879(2) 0.98209(11)
H32_4 H 0.8425 0.8229 0.9897
H34_4 H 0.8058 0.7455 0.9561
C32_3 C 0.4711(2) 0.7153(2) 0.90578(12)
H35_3 H 0.4991 0.6921 0.9328
H36_3 H 0.4168 0.7227 0.9135
H37_3 H 0.4764 0.6699 0.8805
C33_4 C 0.50343(17) 0.8090(2) 0.89126(10)
C34_3 C 0.45728(17) 0.8725(2) 0.86463(10)
C35_3 C 0.47960(17) 0.9666(2) 0.85232(10)
C37_3 C 0.38270(19) 0.8411(2) 0.85222(11)
C38_4 C 0.7062(2) 0.8989(2) 0.75055(11)
H41_4 H 0.6686 0.9258 0.7292
H42_4 H 0.7580 0.9087 0.7384
H43_4 H 0.6966 0.8309 0.7541
C39_4 C 0.69906(16) 0.9468(2) 0.79681(10)
C1_2 C 0.9020(2) 0.5241(3) 0.03683(11)
H1_2 H 0.9507 0.4939 0.0450
H2_2 H 0.8670 0.5212 0.0632
H3_2 H 0.9112 0.5904 0.0286
C3_2 C 0.81085(17) 0.4010(2) 0.00458(10)
H5_2 H 0.7205 0.2506 0.0088
C6_2 C 0.79640(18) 0.3743(2) 0.05121(11)
N1 N 0.78577(17) 0.3522(2) 0.08855(9)
Ag3 Ag 0.77277(2) 0.29569(2) 0.16063(2)
Mg1 Mg 0.86224(5) 0.44398(7) 0.89394(3)
Mg2_5 Mg 0.5000 1.0000 0.5000
O1 O 0.88852(12) 0.49722(15) 0.95719(7)
O2 O 0.77613(11) 0.37383(15) 0.92748(7)
O3 O 0.92951(12) 0.32775(15) 0.90315(8)
O4_2 O 0.95775(11) 0.50227(15) 0.86349(7)
O5 O 0.82744(12) 0.40001(14) 0.82967(7)
O6_2 O 0.80000(11) 0.56212(15) 0.88037(7)
O8_3 O 0.49143(11) 0.86181(15) 0.52011(7)
C2 C 0.86692(18) 0.4734(2) 0.99664(11)
C4 C 0.76701(16) 0.3566(2) 0.96918(10)
C5 C 0.70431(18) 0.2879(2) 0.98209(11)
H4 H 0.6575 0.3229 0.9897
H6 H 0.6942 0.2455 0.9561
C8 C 0.99657(17) 0.3090(2) 0.89126(10)
C13 C 0.7938(2) 0.3989(2) 0.75055(11)
H13 H 0.8314 0.4258 0.7292
H14 H 0.7420 0.4087 0.7384
H15 H 0.8034 0.3309 0.7541
C14 C 0.80094(16) 0.4468(2) 0.79681(10)
C15_2 C 0.77664(16) 0.5429(2) 0.80084(10)
C16_2 C 0.77553(17) 0.5946(2) 0.84351(10)
C17_2 C 0.7427(2) 0.6938(2) 0.84439(11)
H16_2 H 0.6926 0.6930 0.8597
H17_2 H 0.7366 0.7169 0.8128
H18_2 H 0.7775 0.7357 0.8612
C18_2 C 0.75137(17) 0.5896(2) 0.76017(11)
C19_2 C 0.6408(2) 0.9969(3) 0.62404(14)
H20_2 H 0.6826 0.9519 0.6293
C20_2 C 0.58993(17) 0.9607(2) 0.58606(11)
C21_2 C 0.56203(17) 0.8655(2) 0.58921(10)
C22_2 C 0.51607(17) 0.8205(2) 0.55529(11)
C23_3 C 0.4961(2) 0.7174(2) 0.56146(13)
H22_3 H 0.4514 0.7118 0.5817
H23_2 H 0.5397 0.6842 0.5753
H24_3 H 0.4843 0.6894 0.5314
C24_2 C 0.58390(17) 0.8140(2) 0.62900(11)
N3_2 N 0.73344(16) 0.62625(19) 0.72657(9)
N4_2 N 0.60156(15) 0.77388(19) 0.66213(9)
Ag1 Ag 0.72723(2) 0.70431(2) 0.66063(2)
O16_2 O 0.42587(12) 0.98473(15) 0.44657(7)
H47_2 H 0.3378 0.9417 0.3849
H49_2 H 0.3892 0.9959 0.3477
O18 O 0.59165(13) 0.96553(16) 0.45718(8)
H53 H 0.588(2) 0.976(3) 0.4289(7)
C50 C 0.65343(18) 0.9017(3) 0.46613(12)
H54 H 0.6379 0.8373 0.4579
H55 H 0.6981 0.9201 0.4477
H56 H 0.6667 0.9041 0.4989
N9_2 N 0.71423(17) 0.6478(2) 0.58855(9)
N11 N 0.82255(17) 0.8140(2) 0.65742(10)
Mg1_2 Mg 0.63776(5) 0.55602(7) 0.39394(3)
Mg2_6 Mg 1.0000 -0.0000 0.0000
O1_2 O 0.61148(12) 0.50278(15) 0.45719(7)
O2_2 O 0.72387(11) 0.62617(15) 0.42748(7)
O3_2 O 0.57049(12) 0.67225(15) 0.40315(8)
O4_3 O 0.54225(11) 0.49773(15) 0.36349(7)
O5_2 O 0.67256(12) 0.59999(14) 0.32967(7)
O6_3 O 0.70000(11) 0.43788(15) 0.38037(7)
C1_3 C 0.5980(2) 0.4759(3) 0.53683(11)
H1_3 H 0.5493 0.5061 0.5450
H2_3 H 0.6330 0.4788 0.5632
H3_3 H 0.5888 0.4096 0.5286
C2_2 C 0.63308(18) 0.5266(2) 0.49664(11)
C3_3 C 0.68915(17) 0.5990(2) 0.50458(10)
C4_2 C 0.73299(16) 0.6434(2) 0.46918(10)
C5_2 C 0.79569(18) 0.7121(2) 0.48209(11)
H4_2 H 0.8425 0.6771 0.4897
H5_3 H 0.7795 0.7494 0.5088
H6_2 H 0.8058 0.7545 0.4561
C6_3 C 0.70360(18) 0.6257(2) 0.55121(11)
C7_2 C 0.4711(2) 0.7847(2) 0.40578(12)
H7_2 H 0.4991 0.8079 0.4328
H8_2 H 0.4168 0.7773 0.4135
H9_2 H 0.4764 0.8301 0.3805
C8_2 C 0.50343(17) 0.6910(2) 0.39126(10)
C9_2 C 0.45728(17) 0.6275(2) 0.36463(10)
C10_2 C 0.47960(17) 0.5334(2) 0.35232(10)
C11_2 C 0.42419(18) 0.4728(2) 0.32529(12)
H10_2 H 0.4273 0.4893 0.2926
H11_2 H 0.3719 0.4839 0.3364
H12_2 H 0.4374 0.4060 0.3294
C12_2 C 0.38270(19) 0.6589(2) 0.35222(11)
C13_2 C 0.7062(2) 0.6011(2) 0.25055(11)
H13_2 H 0.6686 0.5742 0.2292
H14_2 H 0.7580 0.5913 0.2384
H15_2 H 0.6966 0.6691 0.2541
C14_2 C 0.69906(16) 0.5532(2) 0.29681(10)
C15_3 C 0.72336(16) 0.4571(2) 0.30084(10)
C16_3 C 0.72447(17) 0.4054(2) 0.34351(10)
C17_3 C 0.7573(2) 0.3062(2) 0.34439(11)
H16_3 H 0.8074 0.3070 0.3597
H17_3 H 0.7634 0.2831 0.3128
H18_3 H 0.7225 0.2643 0.3612
C18_3 C 0.74863(17) 0.4104(2) 0.26017(11)
C19_3 C 0.8592(2) 0.0031(3) 0.12404(14)
H20_3 H 0.8174 0.0481 0.1293
C20_3 C 0.91007(17) 0.0393(2) 0.08606(11)
C21_3 C 0.93797(17) 0.1345(2) 0.08921(10)
C22_3 C 0.98393(17) 0.1795(2) 0.05529(11)
H23_3 H 0.9603 0.3158 0.0753
C24_3 C 0.91610(17) 0.1860(2) 0.12900(11)
N2_2 N 0.32255(17) 0.6860(2) 0.34258(10)
N3_3 N 0.76656(16) 0.37375(19) 0.22657(9)
N4_3 N 0.89844(15) 0.22612(19) 0.16213(9)
N11_2 N 0.67745(17) 0.1860(2) 0.15742(10)
Ag4_2 Ag 0.22723(2) 0.79569(2) 0.33937(2)
Mg1_3 Mg 0.13776(5) 0.94398(7) 0.60606(3)
O1_3 O 0.11148(12) 0.99722(15) 0.54281(7)
O2_3 O 0.22387(11) 0.87383(15) 0.57252(7)
O3_3 O 0.07049(12) 0.82775(15) 0.59685(8)
O5_3 O 0.17256(12) 0.90001(14) 0.67033(7)
H1_4 H 0.0493 0.9939 0.4550
C2_3 C 0.13308(18) 0.9734(2) 0.50336(11)
C3_4 C 0.18915(17) 0.9010(2) 0.49542(10)
C4_3 C 0.23299(16) 0.8566(2) 0.53082(10)
C5_3 C 0.29569(18) 0.7879(2) 0.51791(11)
H4_3 H 0.3425 0.8229 0.5103
H5_4 H 0.2795 0.7506 0.4912
H6_3 H 0.3058 0.7455 0.5439
C6_4 C 0.20360(18) 0.8743(2) 0.44879(11)
C8_3 C 0.00343(17) 0.8090(2) 0.60874(10)
C13_3 C 0.2062(2) 0.8989(2) 0.74945(11)
H13_3 H 0.1686 0.9258 0.7708
H14_3 H 0.2580 0.9087 0.7616
H15_3 H 0.1966 0.8309 0.7459
C14_3 C 0.19906(16) 0.9468(2) 0.70319(10)
N1_2 N 0.21423(17) 0.8522(2) 0.41145(9)
C7_3 C 0.9711(2) 0.7153(2) 0.59422(12)
H7_3 H 0.9991 0.6921 0.5672
H8_3 H 0.9168 0.7227 0.5865
H9_3 H 0.9764 0.6699 0.6195
C9_3 C 0.95728(17) 0.8725(2) 0.63537(10)
C10_3 C 0.97960(17) 0.9666(2) 0.64768(10)
C12_3 C 0.88270(19) 0.8411(2) 0.64778(11)
Mg1_4 Mg 0.36224(5) 0.05602(7) 0.10606(3)
O1_4 O 0.38852(12) 0.00278(15) 0.04281(7)
O2_4 O 0.27613(11) 0.12617(15) 0.07252(7)
O3_4 O 0.42951(12) 0.17225(15) 0.09685(8)
O5_4 O 0.32744(12) 0.09999(14) 0.17033(7)
C2_4 C 0.36692(18) 0.0266(2) 0.00336(11)
C4_4 C 0.26701(16) 0.1434(2) 0.03082(10)
C5_4 C 0.20431(18) 0.2121(2) 0.01791(11)
H4_4 H 0.1575 0.1771 0.0103
H6_4 H 0.1942 0.2545 0.0439
C7_4 C 0.5289(2) 0.2847(2) 0.09422(12)
H7_4 H 0.5009 0.3079 0.0672
H8_4 H 0.5832 0.2773 0.0865
H9_4 H 0.5236 0.3301 0.1195
C8_4 C 0.49657(17) 0.1910(2) 0.10874(10)
C9_4 C 0.54272(17) 0.1275(2) 0.13537(10)
C10_4 C 0.52040(17) 0.0334(2) 0.14768(10)
C12_4 C 0.61730(19) 0.1589(2) 0.14778(11)
C13_4 C 0.2938(2) 0.1011(2) 0.24945(11)
H13_4 H 0.3314 0.0742 0.2708
H14_4 H 0.2420 0.0913 0.2616
H15_4 H 0.3034 0.1691 0.2459
C14_4 C 0.30094(16) 0.0532(2) 0.20319(10)
Mg2_7 Mg 0.0000 0.5000 0.5000
O4_4 O 0.45775(11) 0.99773(15) 0.13651(7)
O6_4 O 0.30000(11) 0.93788(15) 0.11963(7)
O7_3 O 0.07413(12) 0.48473(15) 0.44657(7)
C11_3 C 0.57581(18) 0.9728(2) 0.17471(12)
H10_3 H 0.5727 0.9893 0.2074
H11_3 H 0.6281 0.9839 0.1636
H12_3 H 0.5626 0.9060 0.1706
C15_4 C 0.27664(16) 0.9571(2) 0.19916(10)
C16_4 C 0.27553(17) 0.9054(2) 0.15649(10)
C17_4 C 0.2427(2) 0.8062(2) 0.15561(11)
H16_4 H 0.1926 0.8070 0.1403
H17_4 H 0.2366 0.7831 0.1872
H18_4 H 0.2775 0.7643 0.1388
C18_4 C 0.25137(17) 0.9104(2) 0.23983(11)
C19_4 C 0.1408(2) 0.5031(3) 0.37596(14)
H19_3 H 0.1622 0.4417 0.3849
H20_4 H 0.1826 0.5481 0.3707
H21_3 H 0.1108 0.4959 0.3477
C20_4 C 0.08993(17) 0.5393(2) 0.41394(11)
C21_4 C 0.06203(17) 0.6345(2) 0.41079(10)
C22_4 C 0.01607(17) 0.6795(2) 0.44471(11)
H23_4 H 0.0397 0.8158 0.4247
C24_4 C 0.08390(17) 0.6860(2) 0.37100(11)
N3_4 N 0.23344(16) 0.87375(19) 0.27343(9)
N4_4 N 0.10156(15) 0.72612(19) 0.33787(9)
O17_2 O 0.00857(11) 0.36181(15) 0.52011(7)
C48_2 C 0.0039(2) 0.2174(2) 0.56146(13)
H50_2 H 0.0486 0.2118 0.5817
H52_2 H 0.0157 0.1894 0.5314
O18_2 O 0.09165(13) 0.53447(16) 0.54282(8)
H53_2 H 0.088(2) 0.524(3) 0.5711(7)
C50_2 C 0.15343(18) 0.5983(3) 0.53387(12)
H54_2 H 0.1379 0.6627 0.5421
H55_2 H 0.1981 0.5799 0.5523
H56_2 H 0.1667 0.5959 0.5011
C32_4 C 0.9711(2) 0.7847(2) 0.09422(12)
H35_4 H 0.9991 0.8079 0.0672
H36_4 H 0.9168 0.7773 0.0865
H37_4 H 0.9764 0.8301 0.1195
C34_4 C 0.95728(17) 0.6275(2) 0.13537(10)
C35_4 C 0.97960(17) 0.5334(2) 0.14768(10)
C36_3 C 0.92419(18) 0.4728(2) 0.17471(12)
H38_3 H 0.9273 0.4893 0.2074
H39_3 H 0.8719 0.4839 0.1636
H40_3 H 0.9374 0.4060 0.1706
C37_4 C 0.88270(19) 0.6589(2) 0.14778(11)
N6_2 N 0.82255(17) 0.6860(2) 0.15742(10)
Ag6_2 Ag 0.72723(2) 0.79569(2) 0.16063(2)
Mg2_8 Mg 0.5000 0.5000 0.0000
O13_4 O 0.95775(11) 0.99773(15) 0.36349(7)
O15_4 O 0.80000(11) 0.93788(15) 0.38037(7)
O16_3 O 0.57413(12) 0.48473(15) 0.05343(7)
O17_3 O 0.49143(11) 0.63819(15) 0.02011(7)
C26_3 C 0.9020(2) 0.9759(3) 0.53683(11)
H30_3 H 0.8670 0.9788 0.5632
H31_3 H 0.9112 0.9096 0.5286
C40_4 C 0.77664(16) 0.9571(2) 0.30084(10)
C41_4 C 0.77553(17) 0.9054(2) 0.34351(10)
C42_4 C 0.7427(2) 0.8062(2) 0.34439(11)
H44_4 H 0.6926 0.8070 0.3597
H45_4 H 0.7366 0.7831 0.3128
H46_4 H 0.7775 0.7643 0.3612
C43_4 C 0.75137(17) 0.9104(2) 0.26017(11)
C44_4 C 0.6408(2) 0.5031(3) 0.12404(14)
H47_3 H 0.6622 0.4417 0.1151
H48_4 H 0.6826 0.5481 0.1293
H49_3 H 0.6108 0.4959 0.1523
C45_4 C 0.58993(17) 0.5393(2) 0.08606(11)
C46_4 C 0.56203(17) 0.6345(2) 0.08921(10)
C47_4 C 0.51607(17) 0.6795(2) 0.05529(11)
C48_3 C 0.4961(2) 0.7826(2) 0.06146(13)
H50_3 H 0.4514 0.7882 0.0817
H51_4 H 0.5397 0.8158 0.0753
H52_3 H 0.4843 0.8106 0.0314
C49_4 C 0.58390(17) 0.6860(2) 0.12900(11)
N7_4 N 0.73344(16) 0.87375(19) 0.22657(9)
N8_4 N 0.60156(15) 0.72612(19) 0.16213(9)
O18_3 O 0.40835(13) 0.46553(16) 0.04282(8)
H53_3 H 0.412(2) 0.476(3) 0.0711(7)
C50_3 C 0.34657(18) 0.4017(3) 0.03387(12)
H54_3 H 0.3621 0.3373 0.0421
H55_3 H 0.3019 0.4201 0.0523
H56_3 H 0.3333 0.4041 0.0011
N10_2 N 0.71423(17) 0.8522(2) 0.08855(9)
H29_4 H 0.5493 0.9939 0.0450
C28_4 C 0.68915(17) 0.9010(2) 0.00458(10)
H33_4 H 0.7795 0.7506 0.0088
C31_4 C 0.70360(18) 0.8743(2) 0.05121(11)
Mg2_9 Mg -0.0000 -0.0000 0.0000
O8_4 O 0.00857(11) 0.13819(15) 0.02011(7)
C23_4 C 0.0039(2) 0.2826(2) 0.06146(13)
H22_4 H 0.0486 0.2882 0.0817
H24_4 H 0.0157 0.3106 0.0314
Mg2_10 Mg -0.0000 -0.0000 1.0000
O16_4 O 0.07413(12) 0.01527(15) 0.94657(7)
H47_4 H 0.1622 0.0583 0.8849
H49_4 H 0.1108 0.0041 0.8477
Mg2_11 Mg -0.0000 1.0000 0.0000
O9_4 O 0.09165(13) 0.96553(16) 0.04282(8)
H25_4 H 0.088(2) 0.976(3) 0.0711(7)
C25_4 C 0.15343(18) 0.9017(3) 0.03387(12)
H26_4 H 0.1379 0.8373 0.0421
H27_4 H 0.1981 0.9201 0.0523
H28_4 H 0.1667 0.9041 0.0011
Mg2_12 Mg 1.0000 -0.0000 1.0000
O18_4 O 0.90835(13) 0.03447(16) 0.95718(8)
H53_4 H 0.912(2) 0.024(3) 0.9289(7)
C50_4 C 0.84657(18) 0.0983(3) 0.96613(12)
H54_4 H 0.8621 0.1627 0.9579
H55_4 H 0.8019 0.0799 0.9477
H56_4 H 0.8333 0.0959 0.9989
Mg2_13 Mg 1.0000 1.0000 0.0000
O7_4 O 0.92587(12) 0.98473(15) 0.05343(7)
H19_4 H 0.8378 0.9417 0.1151
H21_4 H 0.8892 0.9959 0.1523
Mg2_14 Mg 1.0000 1.0000 1.0000
O17_4 O 0.99143(11) 0.86181(15) 0.97989(7)
C48_4 C 0.9961(2) 0.7174(2) 0.93854(13)
H50_4 H 0.9514 0.7118 0.9183
H52_4 H 0.9843 0.6894 0.9686
C36_4 C 0.07581(18) 0.9728(2) 0.32529(12)
H38_4 H 0.0727 0.9893 0.2926
H39_4 H 0.1281 0.9839 0.3364
H40_4 H 0.0626 0.9060 0.3294
C11_4 C 0.92419(18) 0.0272(2) 0.67471(12)
H10_4 H 0.9273 0.0107 0.7074
H11_4 H 0.8719 0.0161 0.6636
H12_4 H 0.9374 0.0940 0.6706
C1_4 C 0.4020(2) 0.9759(3) 0.96317(11)
H2_4 H 0.3670 0.9788 0.9368
H3_4 H 0.4112 0.9096 0.9714
C26_4 C 0.5980(2) 0.0241(3) 0.03683(11)
H30_4 H 0.6330 0.0212 0.0632
H31_4 H 0.5888 0.0904 0.0286
loop_
_geom_bond_atom_site_label_1
_geom_bond_atom_site_label_2
_geom_bond_site_symmetry_1
_geom_bond_site_symmetry_2
C7 H7 1_555 1_555
H8 C7 1_555 1_555
H9 C7 1_555 1_555
C11 C10 1_555 1_555
H10 C11 1_555 1_555
H11 C11 1_555 1_555
H12 C11 1_555 1_555
C12 C9 1_555 1_555
N2 C12 1_555 1_555
Ag4 N2 1_555 1_555
C9 C10 1_555 1_555
Mg2 O7 1_555 1_555
O7 C20 1_555 1_555
O8 Mg2 1_555 1_555
H2 C1 1_555 1_555
H3 C1 1_555 1_555
C16 O6 1_555 1_555
C17 C16 1_555 1_555
H16 C17 1_555 1_555
H17 C17 1_555 1_555
H18 C17 1_555 1_555
C18 C15 1_555 1_555
C19 H19 1_555 1_555
H20 C19 1_555 1_555
H21 C19 1_555 1_555
C20 C19 1_555 1_555
C21 C20 1_555 1_555
C22 O8 1_555 1_555
C23 C22 1_555 1_555
H22 C23 1_555 1_555
H23 C23 1_555 1_555
H24 C23 1_555 1_555
C24 C21 1_555 1_555
N3 C18 1_555 1_555
N4 C24 1_555 1_555
Ag4 N3 1_555 1_555
O9 Mg2 1_555 1_555
H25 O9 1_555 1_555
C25 O9 1_555 1_555
H26 C25 1_555 1_555
H27 C25 1_555 1_555
H28 C25 1_555 1_555
N9 Ag4 1_555 1_555
C15 C16 1_555 1_555
C21 C22 1_555 1_555
N4 Ag4 1_555 1_555
C6 C3 1_555 1_555
N9 C6 1_555 1_555
Mg2_2 O7_2 1_555 1_555
O9_2 Mg2_2 1_555 1_555
H25_2 O9_2 1_555 1_555
C25_2 O9_2 1_555 1_555
H26_2 C25_2 1_555 1_555
H27_2 C25_2 1_555 1_555
H28_2 C25_2 1_555 1_555
Mg3 O10 1_555 1_555
O10 C27 1_555 1_555
O11 Mg3 1_555 1_555
O12 Mg3 1_555 1_555
O13 Mg3 1_555 1_555
O14 Mg3 1_555 1_555
O15 Mg3 1_555 1_555
O17 Mg2_2 1_555 1_555
C29 O11 1_555 1_555
C30 C29 1_555 1_555
H32 C30 1_555 1_555
H34 C30 1_555 1_555
C33 O12 1_555 1_555
C38 H41 1_555 1_555
H42 C38 1_555 1_555
H43 C38 1_555 1_555
C39 O14 1_555 1_555
C40 C39 1_555 1_555
C41 O15 1_555 1_555
C42 C41 1_555 1_555
H44 C42 1_555 1_555
H45 C42 1_555 1_555
H46 C42 1_555 1_555
C43 C40 1_555 1_555
H48 C44 1_555 1_555
C46 C45 1_555 1_555
C47 O17 1_555 1_555
C48 C47 1_555 1_555
H50 C48 1_555 1_555
H51 C48 1_555 1_555
H52 C48 1_555 1_555
C49 C46 1_555 1_555
N7 C43 1_555 1_555
N8 C49 1_555 1_555
Ag2 N7 1_555 1_555
N10 Ag2 1_555 1_555
N12 Ag2 1_555 1_555
C38 C39 1_555 1_555
C40 C41 1_555 1_555
C44 C45 1_555 1_555
C46 C47 1_555 1_555
N8 Ag2 1_555 1_555
C26 H29 1_555 1_555
H30 C26 1_555 1_555
H31 C26 1_555 1_555
C31 C28 1_555 1_555
N5 C31 1_555 1_555
Ag5 N5 1_555 1_555
Mg3_2 O10_2 1_555 1_555
O10_2 C27_2 1_555 1_555
O11_2 Mg3_2 1_555 1_555
O12_2 Mg3_2 1_555 1_555
O13_2 Mg3_2 1_555 1_555
O14_2 Mg3_2 1_555 1_555
O15_2 Mg3_2 1_555 1_555
C26_2 H29_2 1_555 1_555
H30_2 C26_2 1_555 1_555
H31_2 C26_2 1_555 1_555
C27_2 C26_2 1_555 1_555
C28_2 C27_2 1_555 1_555
C29_2 O11_2 1_555 1_555
C30_2 C29_2 1_555 1_555
H32_2 C30_2 1_555 1_555
H33_2 C30_2 1_555 1_555
H34_2 C30_2 1_555 1_555
C31_2 C28_2 1_555 1_555
C32 H35 1_555 1_555
H36 C32 1_555 1_555
H37 C32 1_555 1_555
C33_2 O12_2 1_555 1_555
C34 C33_2 1_555 1_555
C35 O13_2 1_555 1_555
C36 C35 1_555 1_555
H38 C36 1_555 1_555
H39 C36 1_555 1_555
H40 C36 1_555 1_555
C37 C34 1_555 1_555
C38_2 H41_2 1_555 1_555
H42_2 C38_2 1_555 1_555
H43_2 C38_2 1_555 1_555
C39_2 O14_2 1_555 1_555
C40_2 C39_2 1_555 1_555
C41_2 O15_2 1_555 1_555
C42_2 C41_2 1_555 1_555
H44_2 C42_2 1_555 1_555
H45_2 C42_2 1_555 1_555
H46_2 C42_2 1_555 1_555
C43_2 C40_2 1_555 1_555
H48_2 C44_2 1_555 1_555
C46_2 C45_2 1_555 1_555
C49_2 C46_2 1_555 1_555
N10 C31_2 1_555 1_555
N6 C37 1_555 1_555
N7_2 C43_2 1_555 1_555
N8_2 C49_2 1_555 1_555
Ag5 N7_2 1_555 1_555
N12_2 Ag5 1_555 1_555
Ag6 N6 1_555 1_555
C28_2 C29_2 1_555 1_555
C32 C33_2 1_555 1_555
C34 C35 1_555 1_555
C38_2 C39_2 1_555 1_555
C40_2 C41_2 1_555 1_555
C44_2 C45_2 1_555 1_555
C46_2 C47_2 1_555 1_555
N8_2 Ag5 1_555 1_555
C32_2 H35_2 1_555 1_555
H36_2 C32_2 1_555 1_555
H37_2 C32_2 1_555 1_555
C37_2 C34_2 1_555 1_555
N12 C37_2 1_555 1_555
C34_2 C35_2 1_555 1_555
Mg3_3 O10_3 1_555 1_555
O10_3 C27_3 1_555 1_555
O11_3 Mg3_3 1_555 1_555
O12_3 Mg3_3 1_555 1_555
O14_3 Mg3_3 1_555 1_555
C28_3 C27_3 1_555 1_555
C29_3 O11_3 1_555 1_555
C30_3 C29_3 1_555 1_555
H32_3 C30_3 1_555 1_555
H33_3 C30_3 1_555 1_555
H34_3 C30_3 1_555 1_555
C31_3 C28_3 1_555 1_555
C33_3 O12_3 1_555 1_555
C38_3 H41_3 1_555 1_555
H42_3 C38_3 1_555 1_555
H43_3 C38_3 1_555 1_555
C39_3 O14_3 1_555 1_555
N5_2 C31_3 1_555 1_555
Ag6 N5_2 1_555 1_555
C28_3 C29_3 1_555 1_555
C38_3 C39_3 1_555 1_555
O8_2 Mg2_4 1_555 1_555
H22_2 C23_2 1_555 1_555
H24_2 C23_2 1_555 1_555
O9_3 Mg2_4 1_555 1_555
H25_3 O9_3 1_555 1_555
C25_3 O9_3 1_555 1_555
H26_3 C25_3 1_555 1_555
H27_3 C25_3 1_555 1_555
H28_3 C25_3 1_555 1_555
O16 Mg2_4 1_555 1_555
H38_2 C36_2 1_555 1_555
H39_2 C36_2 1_555 1_555
H40_2 C36_2 1_555 1_555
C41_3 O15_3 1_555 1_555
C42_3 C41_3 1_555 1_555
H44_3 C42_3 1_555 1_555
H45_3 C42_3 1_555 1_555
H46_3 C42_3 1_555 1_555
C43_3 C40_3 1_555 1_555
C44_3 H47 1_555 1_555
H48_3 C44_3 1_555 1_555
H49 C44_3 1_555 1_555
C45_3 O16 1_555 1_555
C46_3 C45_3 1_555 1_555
C49_3 C46_3 1_555 1_555
N7_3 C43_3 1_555 1_555
N8_3 C49_3 1_555 1_555
Ag6 N7_3 1_555 1_555
C40_3 C41_3 1_555 1_555
C44_3 C45_3 1_555 1_555
C46_3 C47_3 1_555 1_555
N8_3 Ag6 1_555 1_555
Mg3_4 O10_4 1_555 1_555
O10_4 C27_4 1_555 1_555
O11_4 Mg3_4 1_555 1_555
O12_4 Mg3_4 1_555 1_555
O14_4 Mg3_4 1_555 1_555
C29_4 O11_4 1_555 1_555
C30_4 C29_4 1_555 1_555
H32_4 C30_4 1_555 1_555
H34_4 C30_4 1_555 1_555
C32_3 H35_3 1_555 1_555
H36_3 C32_3 1_555 1_555
H37_3 C32_3 1_555 1_555
C33_4 O12_4 1_555 1_555
C34_3 C33_4 1_555 1_555
C37_3 C34_3 1_555 1_555
C38_4 H41_4 1_555 1_555
H42_4 C38_4 1_555 1_555
H43_4 C38_4 1_555 1_555
C39_4 O14_4 1_555 1_555
N12_2 C37_3 1_555 1_555
C32_3 C33_4 1_555 1_555
C34_3 C35_3 1_555 1_555
C38_4 C39_4 1_555 1_555
C1_2 H1_2 1_555 1_555
H2_2 C1_2 1_555 1_555
H3_2 C1_2 1_555 1_555
C6_2 C3_2 1_555 1_555
N1 C6_2 1_555 1_555
Ag3 N1 1_555 1_555
Mg1 O1 1_555 1_555
O1 C2 1_555 1_555
O2 Mg1 1_555 1_555
O3 Mg1 1_555 1_555
O4_2 Mg1 1_555 1_555
O5 Mg1 1_555 1_555
O6_2 Mg1 1_555 1_555
O8_3 Mg2_5 1_555 1_555
C4 O2 1_555 1_555
C5 C4 1_555 1_555
H4 C5 1_555 1_555
H6 C5 1_555 1_555
C8 O3 1_555 1_555
C13 H13 1_555 1_555
H14 C13 1_555 1_555
H15 C13 1_555 1_555
C14 O5 1_555 1_555
C15_2 C14 1_555 1_555
C16_2 O6_2 1_555 1_555
C17_2 C16_2 1_555 1_555
H16_2 C17_2 1_555 1_555
H17_2 C17_2 1_555 1_555
H18_2 C17_2 1_555 1_555
C18_2 C15_2 1_555 1_555
H20_2 C19_2 1_555 1_555
C20_2 C19_2 1_555 1_555
C21_2 C20_2 1_555 1_555
C22_2 O8_3 1_555 1_555
C23_3 C22_2 1_555 1_555
H22_3 C23_3 1_555 1_555
H23_2 C23_3 1_555 1_555
H24_3 C23_3 1_555 1_555
C24_2 C21_2 1_555 1_555
N3_2 C18_2 1_555 1_555
N4_2 C24_2 1_555 1_555
Ag1 N3_2 1_555 1_555
O16_2 Mg2_5 1_555 1_555
O18 Mg2_5 1_555 1_555
H53 O18 1_555 1_555
C50 O18 1_555 1_555
H54 C50 1_555 1_555
H55 C50 1_555 1_555
H56 C50 1_555 1_555
N9_2 Ag1 1_555 1_555
N11 Ag1 1_555 1_555
C13 C14 1_555 1_555
C15_2 C16_2 1_555 1_555
C21_2 C22_2 1_555 1_555
N4_2 Ag1 1_555 1_555
Mg1_2 O1_2 1_555 1_555
O1_2 C2_2 1_555 1_555
O2_2 Mg1_2 1_555 1_555
O3_2 Mg1_2 1_555 1_555
O4_3 Mg1_2 1_555 1_555
O5_2 Mg1_2 1_555 1_555
O6_3 Mg1_2 1_555 1_555
C1_3 H1_3 1_555 1_555
H2_3 C1_3 1_555 1_555
H3_3 C1_3 1_555 1_555
C2_2 C1_3 1_555 1_555
C3_3 C2_2 1_555 1_555
C4_2 O2_2 1_555 1_555
C5_2 C4_2 1_555 1_555
H4_2 C5_2 1_555 1_555
H5_3 C5_2 1_555 1_555
H6_2 C5_2 1_555 1_555
C6_3 C3_3 1_555 1_555
C7_2 H7_2 1_555 1_555
H8_2 C7_2 1_555 1_555
H9_2 C7_2 1_555 1_555
C8_2 O3_2 1_555 1_555
C9_2 C8_2 1_555 1_555
C10_2 O4_3 1_555 1_555
C11_2 C10_2 1_555 1_555
H10_2 C11_2 1_555 1_555
H11_2 C11_2 1_555 1_555
H12_2 C11_2 1_555 1_555
C12_2 C9_2 1_555 1_555
C13_2 H13_2 1_555 1_555
H14_2 C13_2 1_555 1_555
H15_2 C13_2 1_555 1_555
C14_2 O5_2 1_555 1_555
C15_3 C14_2 1_555 1_555
C16_3 O6_3 1_555 1_555
C17_3 C16_3 1_555 1_555
H16_3 C17_3 1_555 1_555
H17_3 C17_3 1_555 1_555
H18_3 C17_3 1_555 1_555
C18_3 C15_3 1_555 1_555
H20_3 C19_3 1_555 1_555
C20_3 C19_3 1_555 1_555
C21_3 C20_3 1_555 1_555
C24_3 C21_3 1_555 1_555
N9_2 C6_3 1_555 1_555
N2_2 C12_2 1_555 1_555
N3_3 C18_3 1_555 1_555
N4_3 C24_3 1_555 1_555
Ag3 N3_3 1_555 1_555
N11_2 Ag3 1_555 1_555
Ag4_2 N2_2 1_555 1_555
C3_3 C4_2 1_555 1_555
C7_2 C8_2 1_555 1_555
C9_2 C10_2 1_555 1_555
C13_2 C14_2 1_555 1_555
C15_3 C16_3 1_555 1_555
C21_3 C22_3 1_555 1_555
N4_3 Ag3 1_555 1_555
Mg1_3 O1_3 1_555 1_555
O1_3 C2_3 1_555 1_555
O2_3 Mg1_3 1_555 1_555
O3_3 Mg1_3 1_555 1_555
O5_3 Mg1_3 1_555 1_555
C3_4 C2_3 1_555 1_555
C4_3 O2_3 1_555 1_555
C5_3 C4_3 1_555 1_555
H4_3 C5_3 1_555 1_555
H5_4 C5_3 1_555 1_555
H6_3 C5_3 1_555 1_555
C6_4 C3_4 1_555 1_555
C8_3 O3_3 1_555 1_555
C13_3 H13_3 1_555 1_555
H14_3 C13_3 1_555 1_555
H15_3 C13_3 1_555 1_555
C14_3 O5_3 1_555 1_555
N1_2 C6_4 1_555 1_555
Ag4_2 N1_2 1_555 1_555
C3_4 C4_3 1_555 1_555
C13_3 C14_3 1_555 1_555
C7_3 H7_3 1_555 1_555
H8_3 C7_3 1_555 1_555
H9_3 C7_3 1_555 1_555
C12_3 C9_3 1_555 1_555
N11 C12_3 1_555 1_555
C9_3 C10_3 1_555 1_555
Mg1_4 O1_4 1_555 1_555
O1_4 C2_4 1_555 1_555
O2_4 Mg1_4 1_555 1_555
O3_4 Mg1_4 1_555 1_555
O5_4 Mg1_4 1_555 1_555
C4_4 O2_4 1_555 1_555
C5_4 C4_4 1_555 1_555
H4_4 C5_4 1_555 1_555
H6_4 C5_4 1_555 1_555
C7_4 H7_4 1_555 1_555
H8_4 C7_4 1_555 1_555
H9_4 C7_4 1_555 1_555
C8_4 O3_4 1_555 1_555
C9_4 C8_4 1_555 1_555
C12_4 C9_4 1_555 1_555
C13_4 H13_4 1_555 1_555
H14_4 C13_4 1_555 1_555
H15_4 C13_4 1_555 1_555
C14_4 O5_4 1_555 1_555
N11_2 C12_4 1_555 1_555
C7_4 C8_4 1_555 1_555
C9_4 C10_4 1_555 1_555
C13_4 C14_4 1_555 1_555
Mg2_7 O7_3 1_555 1_555
O7_3 C20_4 1_555 1_555
H10_3 C11_3 1_555 1_555
H11_3 C11_3 1_555 1_555
H12_3 C11_3 1_555 1_555
C16_4 O6_4 1_555 1_555
C17_4 C16_4 1_555 1_555
H16_4 C17_4 1_555 1_555
H17_4 C17_4 1_555 1_555
H18_4 C17_4 1_555 1_555
C18_4 C15_4 1_555 1_555
C19_4 H19_3 1_555 1_555
H20_4 C19_4 1_555 1_555
H21_3 C19_4 1_555 1_555
C20_4 C19_4 1_555 1_555
C21_4 C20_4 1_555 1_555
C24_4 C21_4 1_555 1_555
N3_4 C18_4 1_555 1_555
N4_4 C24_4 1_555 1_555
Ag4_2 N3_4 1_555 1_555
O17_2 Mg2_7 1_555 1_555
H50_2 C48_2 1_555 1_555
H52_2 C48_2 1_555 1_555
O18_2 Mg2_7 1_555 1_555
H53_2 O18_2 1_555 1_555
C50_2 O18_2 1_555 1_555
H54_2 C50_2 1_555 1_555
H55_2 C50_2 1_555 1_555
H56_2 C50_2 1_555 1_555
C15_4 C16_4 1_555 1_555
C21_4 C22_4 1_555 1_555
N4_4 Ag4_2 1_555 1_555
C32_4 H35_4 1_555 1_555
H36_4 C32_4 1_555 1_555
H37_4 C32_4 1_555 1_555
C36_3 C35_4 1_555 1_555
H38_3 C36_3 1_555 1_555
H39_3 C36_3 1_555 1_555
H40_3 C36_3 1_555 1_555
C37_4 C34_4 1_555 1_555
N6_2 C37_4 1_555 1_555
Ag6_2 N6_2 1_555 1_555
C34_4 C35_4 1_555 1_555
O16_3 Mg2_8 1_555 1_555
O17_3 Mg2_8 1_555 1_555
H30_3 C26_3 1_555 1_555
H31_3 C26_3 1_555 1_555
C41_4 O15_4 1_555 1_555
C42_4 C41_4 1_555 1_555
H44_4 C42_4 1_555 1_555
H45_4 C42_4 1_555 1_555
H46_4 C42_4 1_555 1_555
C43_4 C40_4 1_555 1_555
C44_4 H47_3 1_555 1_555
H48_4 C44_4 1_555 1_555
H49_3 C44_4 1_555 1_555
C45_4 O16_3 1_555 1_555
C46_4 C45_4 1_555 1_555
C47_4 O17_3 1_555 1_555
C48_3 C47_4 1_555 1_555
H50_3 C48_3 1_555 1_555
H51_4 C48_3 1_555 1_555
H52_3 C48_3 1_555 1_555
C49_4 C46_4 1_555 1_555
N7_4 C43_4 1_555 1_555
N8_4 C49_4 1_555 1_555
Ag6_2 N7_4 1_555 1_555
O18_3 Mg2_8 1_555 1_555
H53_3 O18_3 1_555 1_555
C50_3 O18_3 1_555 1_555
H54_3 C50_3 1_555 1_555
H55_3 C50_3 1_555 1_555
H56_3 C50_3 1_555 1_555
N10_2 Ag6_2 1_555 1_555
C40_4 C41_4 1_555 1_555
C44_4 C45_4 1_555 1_555
C46_4 C47_4 1_555 1_555
N8_4 Ag6_2 1_555 1_555
C31_4 C28_4 1_555 1_555
N10_2 C31_4 1_555 1_555
O8_4 Mg2_9 1_555 1_555
H22_4 C23_4 1_555 1_555
H24_4 C23_4 1_555 1_555
O16_4 Mg2_10 1_555 1_555
O9_4 Mg2_11 1_555 1_555
H25_4 O9_4 1_555 1_555
C25_4 O9_4 1_555 1_555
H26_4 C25_4 1_555 1_555
H27_4 C25_4 1_555 1_555
H28_4 C25_4 1_555 1_555
O18_4 Mg2_12 1_555 1_555
H53_4 O18_4 1_555 1_555
C50_4 O18_4 1_555 1_555
H54_4 C50_4 1_555 1_555
H55_4 C50_4 1_555 1_555
H56_4 C50_4 1_555 1_555
Mg2_13 O7_4 1_555 1_555
O17_4 Mg2_14 1_555 1_555
H50_4 C48_4 1_555 1_555
H52_4 C48_4 1_555 1_555
H38_4 C36_4 1_555 1_555
H39_4 C36_4 1_555 1_555
H40_4 C36_4 1_555 1_555
H10_4 C11_4 1_555 1_555
H11_4 C11_4 1_555 1_555
H12_4 C11_4 1_555 1_555
H2_4 C1_4 1_555 1_555
H3_4 C1_4 1_555 1_555
H30_4 C26_4 1_555 1_555
H31_4 C26_4 1_555 1_555

#END
