
###############################################################################
#
# This file contains modified crystal structure data generated from the
# MOF subset of the Cambridge Structural Database (CSD) v543 
# hosted by the Cambridge Crystallographic Data Centre (CCDC).
#
# This work is licensed under the Creative Commons
# Attribution-NonCommercial-ShareAlike 4.0 International License.
# To view a copy of this license, visit
# http://creativecommons.org/licenses/by-nc-sa/4.0/
# or send a letter to
# Creative Commons, PO Box 1866, Mountain View, CA 94042, USA.
#
# CIF created using the CSD Python API on 29 September 2022
# The structure has been converted into the P1 space group
# The structure has a 3D framework
# The original CSD entry PAYHOQ is in the monoclinic crystal system
# The framework has been calculated to contain at least 10.0% void space
# The void calculation uses a probe of radius 1.32A, grid spacing 0.4
#
###############################################################################

data_PAYHOQ
_chemical_formula_moiety         '(C244 H220 N20 O68 Zn12)n'
_symmetry_cell_setting           triclinic
_symmetry_space_group_name_H-M   'P 1'
_symmetry_Int_Tables_number      1
_space_group_name_Hall           'P 1'
loop_
_symmetry_equiv_pos_site_id
_symmetry_equiv_pos_as_xyz
1 x,y,z
_cell_length_a                   25.909(5)
_cell_length_b                   17.361(4)
_cell_length_c                   17.014(3)
_cell_angle_alpha                90
_cell_angle_beta                 93.90(3)
_cell_angle_gamma                90
_cell_volume                     7635.28
loop_
_atom_site_label
_atom_site_type_symbol
_atom_site_fract_x
_atom_site_fract_y
_atom_site_fract_z
Zn1 Zn 0.07583(4) 0.64215(5) 0.70873(5)
Zn2 Zn 0.10445(4) 0.66535(5) 0.12138(5)
Zn3 Zn 0.24832(4) 0.35522(5) 0.43076(6)
O4 O 0.1502(2) 0.7153(3) 0.2142(3)
O5 O 0.1091(2) 0.6183(3) 0.6117(3)
O6 O 0.1096(2) 0.7947(3) 0.2916(3)
O7 O 0.1840(2) 0.3056(3) 0.3951(3)
O8 O 0.0846(2) 0.7321(3) 0.5647(3)
O9 O 0.2249(2) 0.4572(3) 0.4628(3)
O10 O 0.1113(2) 0.5555(3) 0.1720(3)
O11 O 0.2274(2) 0.4753(3) 0.3334(3)
O12 O 0.0578(2) 0.6152(3) 0.0284(3)
O14 O 0.2297(2) 0.1979(3) 0.3920(4)
N1 N 0.0978(3) 0.4705(4) 0.2702(4)
O15 O 0.2743(3) 0.3148(4) 0.5364(4)
C1 C 0.0481(3) 0.1942(4) 0.3106(4)
C3 C 0.0929(3) 0.2331(4) 0.3399(5)
H1 H 0.0911 0.2859 0.3542
C4 C 0.1330(3) 0.6518(4) 0.4849(4)
C5 C 0.0522(3) 0.1176(4) 0.2875(4)
H2 H 0.0221 0.0915 0.2665
C6 C 0.0985(3) 0.0784(4) 0.2941(5)
C7 C 0.1855(3) 0.5694(4) 0.4086(4)
C8 C 0.1628(3) 0.5852(4) 0.4774(5)
H3 H 0.1674 0.5505 0.5205
C9 C 0.1408(3) 0.1932(4) 0.3479(5)
C10 C 0.1435(3) 0.1174(5) 0.3238(5)
H4 H 0.1758 0.0914 0.3272
N4 N 0.3163(3) 0.3472(4) 0.3794(5)
C11 C 0.1070(3) 0.6687(4) 0.5589(5)
C13 C 0.0936(3) 0.5397(5) 0.2365(5)
H5 H 0.0762 0.5791 0.2630
C14 C 0.2150(3) 0.4962(5) 0.3996(5)
C15 C 0.1771(3) 0.6194(4) 0.3446(5)
H6 H 0.1921 0.6080 0.2965
C16 C 0.1474(3) 0.6849(4) 0.3497(5)
C17 C 0.1350(3) 0.7357(4) 0.2803(5)
C18 C 0.1249(3) 0.7017(4) 0.4202(4)
H7 H 0.1042 0.7465 0.4242
C19 C 0.1885(3) 0.2346(5) 0.3810(5)
C20 C 0.0122(4) 0.6041(5) 0.0312(5)
C21 C 0.0764(4) 0.4570(5) 0.3462(5)
H9 H 0.0624 0.5053 0.3657
H10 H 0.1038 0.4380 0.3840
H11 H 0.0487 0.4186 0.3401
C22 C 0.1250(4) 0.4061(4) 0.2364(5)
H12 H 0.1427 0.4240 0.1908
H13 H 0.1000 0.3658 0.2198
H14 H 0.1504 0.3851 0.2761
N5 N 0.2634(4) 0.2556(6) 0.6511(6)
C24 C 0.8336(4) 0.3768(5) 0.0204(6)
H18 H 0.8653 0.3993 0.0400
O16 O 0.6082(3) 0.2036(6) 0.1569(6)
C25 C 0.7924(4) 0.3755(6) 0.0684(6)
H19 H 0.7966 0.3960 0.1202
C26 C 0.7468(4) 0.3456(6) 0.0421(6)
C27 C 0.5581(4) 0.3336(7) 0.2068(7)
C28 C 0.2482(5) 0.2788(6) 0.5797(6)
H20 H 0.2140 0.2662 0.5606
O17 O 0.5151(4) 0.3496(7) 0.0858(7)
C29 C 0.6080(4) 0.3361(7) 0.1697(8)
C30 C 0.3327(4) 0.4021(6) 0.3358(7)
H21 H 0.3113 0.4458 0.3248
C31 C 0.3470(4) 0.2876(6) 0.3925(7)
H22 H 0.3357 0.2472 0.4248
C32 C 0.3942(4) 0.2805(7) 0.3624(8)
H23 H 0.4144 0.2358 0.3739
C33 C 0.4125(4) 0.3366(7) 0.3161(8)
C34 C 0.6317(4) 0.4077(8) 0.1572(8)
C35 C 0.5117(5) 0.3407(9) 0.1670(8)
C37 C 0.4633(4) 0.3344(8) 0.2809(8)
C38 C 0.7002(4) 0.3445(8) 0.0887(7)
C39 C 0.6782(5) 0.4133(8) 0.1190(8)
C40 C 0.5584(4) 0.3239(8) 0.2923(8)
C42 C 0.6320(4) 0.2732(7) 0.1443(7)
C43 C 0.5116(5) 0.3227(8) 0.3289(8)
C44 C 0.6774(4) 0.2756(8) 0.1043(7)
H28 H 0.6926 0.2290 0.0878
C45 C 0.4646(5) 0.3415(8) 0.2014(8)
H29 H 0.4333 0.3470 0.1694
C47 C 0.3816(4) 0.3983(7) 0.3044(7)
H31 H 0.3930 0.4404 0.2742
C48 C 0.6087(5) 0.4747(8) 0.1820(9)
H32 H 0.5764 0.4705 0.2049
C49 C 0.6037(5) 0.3146(9) 0.3370(8)
H33 H 0.6354 0.3158 0.3119
C50 C 0.6304(5) 0.5496(9) 0.1752(10)
H34 H 0.6133 0.5931 0.1952
C51 C 0.6053(5) 0.3034(10) 0.4188(9)
H35 H 0.6374 0.2938 0.4475
C52 C 0.3160(7) 0.2752(10) 0.6834(9)
H36 H 0.3377 0.2289 0.6850
H37 H 0.3144 0.2957 0.7369
H38 H 0.3309 0.3141 0.6499
C53 C 0.6769(6) 0.5594(10) 0.1391(9)
H39 H 0.6921 0.6089 0.1344
C54 C 0.7005(6) 0.4926(9) 0.1099(9)
H40 H 0.7314 0.4981 0.0835
C55 C 0.2314(6) 0.2153(10) 0.7013(8)
H41 H 0.1967 0.2094 0.6751
H42 H 0.2290 0.2442 0.7504
H43 H 0.2462 0.1643 0.7132
C56 C 0.5140(5) 0.3144(9) 0.4166(9)
H44 H 0.4826 0.3149 0.4422
C57 C 0.5579(5) 0.3063(10) 0.4597(9)
H45 H 0.5585 0.3025 0.5155
C58 C 0.6383(9) 0.1329(12) 0.1535(15)
H46 H 0.6530 0.1282 0.1015
H47 H 0.6160 0.0876 0.1612
C59 C 0.6800(11) 0.1361(11) 0.2161(16)
H48 H 0.7017 0.1813 0.2083
H49 H 0.7011 0.0894 0.2146
H50 H 0.6651 0.1399 0.2674
C60 C 0.4689(7) 0.3682(14) 0.0295(12)
H51 H 0.4520 0.4165 0.0449
H52 H 0.4432 0.3259 0.0284
Zn6 Zn 0.07583(4) 0.85785(5) 0.20873(5)
Zn9 Zn 0.10445(4) 0.83465(5) 0.62138(5)
O18 O 0.0417(2) 0.6859(3) 0.1920(3)
O19 O 0.0068(2) 0.6957(3) 0.6945(3)
O20 O 0.0597(2) 0.5375(3) 0.7452(3)
O21 O 0.1096(2) 0.7053(3) 0.7916(3)
O22 O 0.0846(2) 0.7679(3) 0.0647(3)
N6 N 0.1697(3) 0.6527(4) 0.0527(4)
N3 N 0.8303(3) 0.3473(4) 0.9473(4)
C36 C 0.7848(4) 0.3163(7) 0.9209(7)
H24 H 0.7817 0.2944 0.8697
H27 H 0.0333 0.5949 0.8901
C46 C 0.7428(4) 0.3154(7) 0.9657(7)
H30 H 0.7109 0.2943 0.9448
C61 C 0.4949(13) 0.378(2) 0.938(2)
H53 H 0.5311 0.3889 0.9365
H54 H 0.4869 0.3304 0.9115
H55 H 0.4752 0.4190 0.9127
Zn8 Zn 0.89555(4) 0.33465(5) 0.87862(5)
O3 O 0.0597(2) 0.9625(3) 0.2452(3)
O13 O 0.1452(2) 0.9623(3) 0.2729(4)
C12 C 0.1026(3) 0.9952(5) 0.2696(5)
O1 O 0.9583(2) 0.1859(3) 0.3080(3)
O2 O 0.9932(2) 0.3043(3) 0.3055(3)
C2 C 0.9961(3) 0.2324(4) 0.3075(5)
H8 H 0.9988 0.6020 0.0818
H15 H 0.9181 0.5798 0.0327
Zn4 Zn 0.92417(4) 0.35785(5) 0.29127(5)
Zn7 Zn 0.89555(4) 0.16535(5) 0.37862(5)
O2_2 O 0.0068(2) 0.8043(3) 0.1945(3)
C2_2 C 0.0039(3) 0.7324(4) 0.1925(5)
O4_2 O 0.8498(2) 0.2153(3) 0.2858(3)
O6_2 O 0.8904(2) 0.2947(3) 0.2084(3)
O10_2 O 0.8887(2) 0.0555(3) 0.3280(3)
O12_2 O 0.9422(2) 0.1152(3) 0.4716(3)
C4_2 C 0.8670(3) 0.1518(4) 0.0151(4)
C7_2 C 0.8145(3) 0.0694(4) 0.0914(4)
C8_2 C 0.8372(3) 0.0852(4) 0.0226(5)
C13_2 C 0.9064(3) 0.0397(5) 0.2635(5)
H5_2 H 0.9238 0.0791 0.2370
C15_2 C 0.8229(3) 0.1194(4) 0.1554(5)
H6_2 H 0.8079 0.1080 0.2035
C16_2 C 0.8526(3) 0.1849(4) 0.1503(5)
C17_2 C 0.8650(3) 0.2357(4) 0.2197(5)
C18_2 C 0.8751(3) 0.2017(4) 0.0798(4)
H7_2 H 0.8958 0.2465 0.0758
C20_2 C 0.9878(4) 0.1041(5) 0.4688(5)
H9_2 H 0.9376 0.0053 0.1343
H27_2 H 0.9667 0.0949 0.6099
C50_2 C 0.3696(5) 0.0496(9) 0.3248(10)
H34_2 H 0.3867 0.0931 0.3048
C53_2 C 0.3231(6) 0.0594(10) 0.3609(9)
H39_2 H 0.3079 0.1089 0.3656
O22_2 O 0.9154(2) 0.2679(3) 0.4353(3)
N6_2 N 0.8303(3) 0.1527(4) 0.4473(4)
Zn1_2 Zn 0.92417(4) 0.14215(5) 0.79127(5)
O5_2 O 0.8909(2) 0.1183(3) 0.8883(3)
O8_2 O 0.9154(2) 0.2321(3) 0.9353(3)
H3_2 H 0.8326 0.0505 0.9795
C11_2 C 0.8930(3) 0.1687(4) 0.9411(5)
O19_2 O 0.9932(2) 0.1957(3) 0.8055(3)
O20_2 O 0.9403(2) 0.0375(3) 0.7548(3)
O21_2 O 0.8904(2) 0.2053(3) 0.7084(3)
Zn3_2 Zn 0.75168(4) 0.85522(5) 0.06924(6)
O3_2 O 0.9403(2) 0.4625(3) 0.2548(3)
O7_2 O 0.8160(2) 0.8056(3) 0.1049(3)
O9_2 O 0.7751(2) 0.9572(3) 0.0372(3)
O11_2 O 0.7726(2) 0.9753(3) 0.1666(3)
O13_2 O 0.8548(2) 0.4623(3) 0.2271(4)
O14_2 O 0.7703(2) 0.6979(3) 0.1080(4)
N1_2 N 0.9022(3) 0.9705(4) 0.2298(4)
C1_2 C 0.9519(3) 0.6942(4) 0.1894(4)
N3_2 N 0.1697(3) 0.8473(4) 0.5527(4)
C3_2 C 0.9071(3) 0.7331(4) 0.1601(5)
H1_2 H 0.9089 0.7859 0.1458
C5_2 C 0.9478(3) 0.6176(4) 0.2125(4)
H2_2 H 0.9779 0.5915 0.2335
C6_2 C 0.9015(3) 0.5784(4) 0.2059(5)
C9_2 C 0.8592(3) 0.6932(4) 0.1521(5)
C10_2 C 0.8565(3) 0.6174(5) 0.1762(5)
H4_2 H 0.8242 0.5914 0.1728
N4_2 N 0.6837(3) 0.8472(4) 0.1206(5)
C12_2 C 0.8974(3) 0.4952(5) 0.2304(5)
C14_2 C 0.7850(3) 0.9962(5) 0.1004(5)
C19_2 C 0.8115(3) 0.7346(5) 0.1190(5)
C21_2 C 0.9236(4) 0.9570(5) 0.1538(5)
H10_2 H 0.8962 0.9380 0.1160
H11_2 H 0.9513 0.9186 0.1599
C22_2 C 0.8750(4) 0.9061(4) 0.2636(5)
H12_2 H 0.8573 0.9240 0.3092
H13_2 H 0.9000 0.8658 0.2802
H14_2 H 0.8496 0.8851 0.2239
C24_2 C 0.1664(4) 0.8768(5) 0.4796(6)
H18_2 H 0.1347 0.8993 0.4600
O16_2 O 0.3918(3) 0.7036(6) 0.3431(6)
C25_2 C 0.2076(4) 0.8755(6) 0.4316(6)
H19_2 H 0.2034 0.8960 0.3798
C26_2 C 0.2532(4) 0.8456(6) 0.4579(6)
C27_2 C 0.4419(4) 0.8336(7) 0.2932(7)
O17_2 O 0.4849(4) 0.8496(7) 0.4142(7)
C29_2 C 0.3920(4) 0.8361(7) 0.3303(8)
C30_2 C 0.6673(4) 0.9021(6) 0.1642(7)
H21_2 H 0.6887 0.9458 0.1752
C31_2 C 0.6530(4) 0.7876(6) 0.1075(7)
H22_2 H 0.6643 0.7472 0.0752
C32_2 C 0.6058(4) 0.7805(7) 0.1376(8)
H23_2 H 0.5856 0.7358 0.1261
C33_2 C 0.5875(4) 0.8366(7) 0.1839(8)
C34_2 C 0.3683(4) 0.9077(8) 0.3428(8)
C35_2 C 0.4883(5) 0.8407(9) 0.3330(8)
C36_2 C 0.2152(4) 0.8163(7) 0.5791(7)
H24_2 H 0.2183 0.7944 0.6303
C37_2 C 0.5367(4) 0.8344(8) 0.2191(8)
C38_2 C 0.2998(4) 0.8445(8) 0.4113(7)
C39_2 C 0.3218(5) 0.9133(8) 0.3810(8)
C40_2 C 0.4416(4) 0.8239(8) 0.2077(8)
C42_2 C 0.3680(4) 0.7732(7) 0.3557(7)
C43_2 C 0.4884(5) 0.8227(8) 0.1711(8)
C44_2 C 0.3226(4) 0.7756(8) 0.3957(7)
H28_2 H 0.3074 0.7290 0.4122
C45_2 C 0.5354(5) 0.8415(8) 0.2986(8)
H29_2 H 0.5667 0.8470 0.3306
C46_2 C 0.2572(4) 0.8154(7) 0.5343(7)
H30_2 H 0.2891 0.7943 0.5552
C47_2 C 0.6184(4) 0.8983(7) 0.1956(7)
H31_2 H 0.6070 0.9404 0.2258
C48_2 C 0.3913(5) 0.9747(8) 0.3180(9)
H32_2 H 0.4236 0.9705 0.2951
C49_2 C 0.3963(5) 0.8146(9) 0.1630(8)
H33_2 H 0.3646 0.8158 0.1881
C51_2 C 0.3947(5) 0.8034(10) 0.0812(9)
H35_2 H 0.3626 0.7938 0.0525
C54_2 C 0.2995(6) 0.9926(9) 0.3901(9)
H40_2 H 0.2686 0.9981 0.4165
C56_2 C 0.4860(5) 0.8144(9) 0.0834(9)
H44_2 H 0.5174 0.8149 0.0578
C57_2 C 0.4421(5) 0.8063(10) 0.0403(9)
C58_2 C 0.3617(9) 0.6329(12) 0.3465(15)
H46_2 H 0.3470 0.6282 0.3985
H47_2 H 0.3840 0.5876 0.3388
C59_2 C 0.3200(11) 0.6361(11) 0.2839(16)
H48_2 H 0.2983 0.6813 0.2917
H49_2 H 0.2989 0.5894 0.2854
H50_2 H 0.3349 0.6399 0.2326
C60_2 C 0.5311(7) 0.8682(14) 0.4705(12)
H51_2 H 0.5480 0.9165 0.4551
H52_2 H 0.5568 0.8259 0.4716
C61_2 C 0.5051(13) 0.878(2) 0.562(2)
H53_2 H 0.4689 0.8889 0.5635
H54_2 H 0.5131 0.8304 0.5885
H55_2 H 0.5248 0.9190 0.5873
O1_2 O 0.0417(2) 0.8141(3) 0.6920(3)
C2_3 C 0.0039(3) 0.7676(4) 0.6925(5)
H8_2 H 0.0012 0.3980 0.9182
H15_2 H 0.0819 0.4202 0.9673
O13_3 O 0.8548(2) 0.0377(3) 0.7271(4)
C12_3 C 0.8974(3) 0.0048(5) 0.7304(5)
C36_3 C 0.2152(4) 0.6837(7) 0.0791(7)
H24_3 H 0.2183 0.7056 0.1303
H27_3 H 0.9667 0.4051 0.1099
C46_3 C 0.2572(4) 0.6846(7) 0.0343(7)
H30_3 H 0.2891 0.7057 0.0552
C61_3 C 0.5051(13) 0.622(2) 0.062(2)
H53_3 H 0.4689 0.6111 0.0635
H54_3 H 0.5131 0.6696 0.0885
H55_3 H 0.5248 0.5810 0.0873
Zn3_3 Zn 0.75168(4) 0.64478(5) 0.56924(6)
O4_3 O 0.8498(2) 0.2847(3) 0.7858(3)
O5_3 O 0.8909(2) 0.3817(3) 0.3883(3)
O7_3 O 0.8160(2) 0.6944(3) 0.6049(3)
O9_3 O 0.7751(2) 0.5428(3) 0.5372(3)
O10_3 O 0.8887(2) 0.4445(3) 0.8280(3)
O11_3 O 0.7726(2) 0.5247(3) 0.6666(3)
O12_3 O 0.9422(2) 0.3848(3) 0.9716(3)
O14_3 O 0.7703(2) 0.8021(3) 0.6080(4)
N1_3 N 0.9022(3) 0.5295(4) 0.7298(4)
O15_2 O 0.7257(3) 0.6852(4) 0.4636(4)
C1_3 C 0.9519(3) 0.8058(4) 0.6894(4)
C3_3 C 0.9071(3) 0.7669(4) 0.6601(5)
H1_3 H 0.9089 0.7141 0.6458
C4_3 C 0.8670(3) 0.3482(4) 0.5151(4)
C5_3 C 0.9478(3) 0.8824(4) 0.7125(4)
H2_3 H 0.9779 0.9085 0.7335
C6_3 C 0.9015(3) 0.9216(4) 0.7059(5)
C7_3 C 0.8145(3) 0.4306(4) 0.5914(4)
C8_3 C 0.8372(3) 0.4148(4) 0.5226(5)
H3_3 H 0.8326 0.4495 0.4795
C9_3 C 0.8592(3) 0.8068(4) 0.6521(5)
C10_3 C 0.8565(3) 0.8826(5) 0.6762(5)
H4_3 H 0.8242 0.9086 0.6728
N4_3 N 0.6837(3) 0.6528(4) 0.6206(5)
C11_3 C 0.8930(3) 0.3313(4) 0.4411(5)
C13_3 C 0.9064(3) 0.4603(5) 0.7635(5)
H5_3 H 0.9238 0.4209 0.7370
C14_3 C 0.7850(3) 0.5038(5) 0.6004(5)
C15_3 C 0.8229(3) 0.3806(4) 0.6554(5)
H6_3 H 0.8079 0.3920 0.7035
C16_3 C 0.8526(3) 0.3151(4) 0.6503(5)
C17_3 C 0.8650(3) 0.2643(4) 0.7197(5)
C18_3 C 0.8751(3) 0.2983(4) 0.5798(4)
H7_3 H 0.8958 0.2535 0.5758
C19_3 C 0.8115(3) 0.7654(5) 0.6190(5)
C20_3 C 0.9878(4) 0.3959(5) 0.9688(5)
C21_3 C 0.9236(4) 0.5430(5) 0.6538(5)
H9_3 H 0.9376 0.4947 0.6343
H10_3 H 0.8962 0.5620 0.6160
H11_3 H 0.9513 0.5814 0.6599
C22_3 C 0.8750(4) 0.5939(4) 0.7636(5)
H12_3 H 0.8573 0.5760 0.8092
H13_3 H 0.9000 0.6342 0.7802
H14_3 H 0.8496 0.6149 0.7239
N5_2 N 0.7366(4) 0.7444(6) 0.3489(6)
C24_3 C 0.1664(4) 0.6232(5) 0.9796(6)
H18_3 H 0.1347 0.6007 0.9600
O16_3 O 0.3918(3) 0.7964(6) 0.8431(6)
C25_3 C 0.2076(4) 0.6245(6) 0.9316(6)
H19_3 H 0.2034 0.6040 0.8798
C26_3 C 0.2532(4) 0.6544(6) 0.9579(6)
C27_3 C 0.4419(4) 0.6664(7) 0.7932(7)
C28_2 C 0.7518(5) 0.7212(6) 0.4203(6)
H20_2 H 0.7860 0.7338 0.4394
O17_3 O 0.4849(4) 0.6504(7) 0.9142(7)
C29_3 C 0.3920(4) 0.6639(7) 0.8303(8)
C30_3 C 0.6673(4) 0.5979(6) 0.6642(7)
H21_3 H 0.6887 0.5542 0.6752
C31_3 C 0.6530(4) 0.7124(6) 0.6075(7)
H22_3 H 0.6643 0.7528 0.5752
C32_3 C 0.6058(4) 0.7195(7) 0.6376(8)
H23_3 H 0.5856 0.7642 0.6261
C33_3 C 0.5875(4) 0.6634(7) 0.6839(8)
C34_3 C 0.3683(4) 0.5923(8) 0.8428(8)
C35_3 C 0.4883(5) 0.6593(9) 0.8330(8)
C37_3 C 0.5367(4) 0.6656(8) 0.7191(8)
C38_3 C 0.2998(4) 0.6555(8) 0.9113(7)
C39_3 C 0.3218(5) 0.5867(8) 0.8810(8)
C40_3 C 0.4416(4) 0.6761(8) 0.7077(8)
C42_3 C 0.3680(4) 0.7268(7) 0.8557(7)
C43_3 C 0.4884(5) 0.6773(8) 0.6711(8)
C44_3 C 0.3226(4) 0.7244(8) 0.8957(7)
H28_3 H 0.3074 0.7710 0.9122
C45_3 C 0.5354(5) 0.6585(8) 0.7986(8)
H29_3 H 0.5667 0.6530 0.8306
C47_3 C 0.6184(4) 0.6017(7) 0.6956(7)
H31_3 H 0.6070 0.5596 0.7258
C48_3 C 0.3913(5) 0.5253(8) 0.8180(9)
H32_3 H 0.4236 0.5295 0.7951
C49_3 C 0.3963(5) 0.6854(9) 0.6630(8)
H33_3 H 0.3646 0.6842 0.6881
C50_3 C 0.3696(5) 0.4504(9) 0.8248(10)
H34_3 H 0.3867 0.4069 0.8048
C51_3 C 0.3947(5) 0.6966(10) 0.5812(9)
H35_3 H 0.3626 0.7062 0.5525
C52_2 C 0.6840(7) 0.7248(10) 0.3166(9)
H36_2 H 0.6623 0.7711 0.3150
H37_2 H 0.6856 0.7043 0.2631
H38_2 H 0.6691 0.6859 0.3501
C53_3 C 0.3231(6) 0.4406(10) 0.8609(9)
H39_3 H 0.3079 0.3911 0.8656
C54_3 C 0.2995(6) 0.5074(9) 0.8901(9)
H40_3 H 0.2686 0.5019 0.9165
C55_2 C 0.7686(6) 0.7847(10) 0.2987(8)
H41_2 H 0.8033 0.7906 0.3249
H42_2 H 0.7710 0.7558 0.2496
H43_2 H 0.7538 0.8357 0.2868
C56_3 C 0.4860(5) 0.6856(9) 0.5834(9)
H44_3 H 0.5174 0.6851 0.5578
C57_3 C 0.4421(5) 0.6937(10) 0.5403(9)
H45_2 H 0.4415 0.6975 0.4845
C58_3 C 0.3617(9) 0.8671(12) 0.8465(15)
H46_3 H 0.3470 0.8718 0.8985
H47_3 H 0.3840 0.9124 0.8388
C59_3 C 0.3200(11) 0.8639(11) 0.7839(16)
H48_3 H 0.2983 0.8187 0.7917
H49_3 H 0.2989 0.9106 0.7854
H50_3 H 0.3349 0.8601 0.7326
C60_3 C 0.5311(7) 0.6318(14) 0.9705(12)
H51_3 H 0.5480 0.5835 0.9551
H52_3 H 0.5568 0.6741 0.9716
O18_2 O 0.9583(2) 0.3141(3) 0.8080(3)
Zn3_4 Zn 0.24832(4) 0.14478(5) 0.93076(6)
O7_4 O 0.1840(2) 0.1944(3) 0.8951(3)
O9_4 O 0.2249(2) 0.0428(3) 0.9628(3)
O11_4 O 0.2274(2) 0.0247(3) 0.8334(3)
O13_4 O 0.1452(2) 0.5377(3) 0.7729(4)
O14_4 O 0.2297(2) 0.3021(3) 0.8920(4)
N1_4 N 0.0978(3) 0.0295(4) 0.7702(4)
C1_4 C 0.0481(3) 0.3058(4) 0.8106(4)
C3_4 C 0.0929(3) 0.2669(4) 0.8399(5)
H1_4 H 0.0911 0.2141 0.8542
C5_4 C 0.0522(3) 0.3824(4) 0.7875(4)
H2_4 H 0.0221 0.4085 0.7665
C6_4 C 0.0985(3) 0.4216(4) 0.7941(5)
C9_4 C 0.1408(3) 0.3068(4) 0.8479(5)
C10_4 C 0.1435(3) 0.3826(5) 0.8238(5)
H4_4 H 0.1758 0.4086 0.8272
N4_4 N 0.3163(3) 0.1528(4) 0.8794(5)
C12_4 C 0.1026(3) 0.5048(5) 0.7696(5)
C14_4 C 0.2150(3) 0.0038(5) 0.8996(5)
C19_4 C 0.1885(3) 0.2654(5) 0.8810(5)
C21_4 C 0.0764(4) 0.0430(5) 0.8462(5)
H10_4 H 0.1038 0.0620 0.8840
H11_4 H 0.0487 0.0814 0.8401
C22_4 C 0.1250(4) 0.0939(4) 0.7364(5)
H12_4 H 0.1427 0.0760 0.6908
H13_4 H 0.1000 0.1342 0.7198
H14_4 H 0.1504 0.1149 0.7761
C24_4 C 0.8336(4) 0.1232(5) 0.5204(6)
H18_4 H 0.8653 0.1007 0.5400
O16_4 O 0.6082(3) 0.2964(6) 0.6569(6)
C25_4 C 0.7924(4) 0.1245(6) 0.5684(6)
H19_4 H 0.7966 0.1040 0.6202
C26_4 C 0.7468(4) 0.1544(6) 0.5421(6)
C27_4 C 0.5581(4) 0.1664(7) 0.7068(7)
O17_4 O 0.5151(4) 0.1504(7) 0.5858(7)
C29_4 C 0.6080(4) 0.1639(7) 0.6697(8)
C30_4 C 0.3327(4) 0.0979(6) 0.8358(7)
H21_4 H 0.3113 0.0542 0.8248
C31_4 C 0.3470(4) 0.2124(6) 0.8925(7)
H22_4 H 0.3357 0.2528 0.9248
C32_4 C 0.3942(4) 0.2195(7) 0.8624(8)
H23_4 H 0.4144 0.2642 0.8739
C33_4 C 0.4125(4) 0.1634(7) 0.8161(8)
C34_4 C 0.6317(4) 0.0923(8) 0.6572(8)
C35_4 C 0.5117(5) 0.1593(9) 0.6670(8)
C36_4 C 0.7848(4) 0.1837(7) 0.4209(7)
H24_4 H 0.7817 0.2056 0.3697
C37_4 C 0.4633(4) 0.1656(8) 0.7809(8)
C38_4 C 0.7002(4) 0.1555(8) 0.5887(7)
C39_4 C 0.6782(5) 0.0867(8) 0.6190(8)
C40_4 C 0.5584(4) 0.1761(8) 0.7923(8)
C42_4 C 0.6320(4) 0.2268(7) 0.6443(7)
C43_4 C 0.5116(5) 0.1773(8) 0.8289(8)
C44_4 C 0.6774(4) 0.2244(8) 0.6043(7)
H28_4 H 0.6926 0.2710 0.5878
C45_4 C 0.4646(5) 0.1585(8) 0.7014(8)
H29_4 H 0.4333 0.1530 0.6694
C46_4 C 0.7428(4) 0.1846(7) 0.4657(7)
H30_4 H 0.7109 0.2057 0.4448
C47_4 C 0.3816(4) 0.1017(7) 0.8044(7)
H31_4 H 0.3930 0.0596 0.7742
C48_4 C 0.6087(5) 0.0253(8) 0.6820(9)
H32_4 H 0.5764 0.0295 0.7049
C49_4 C 0.6037(5) 0.1854(9) 0.8370(8)
H33_4 H 0.6354 0.1842 0.8119
C51_4 C 0.6053(5) 0.1966(10) 0.9188(9)
H35_4 H 0.6374 0.2062 0.9475
C54_4 C 0.7005(6) 0.0074(9) 0.6099(9)
H40_4 H 0.7314 0.0019 0.5835
C56_4 C 0.5140(5) 0.1856(9) 0.9166(9)
H44_4 H 0.4826 0.1851 0.9422
C57_4 C 0.5579(5) 0.1937(10) 0.9597(9)
C58_4 C 0.6383(9) 0.3671(12) 0.6535(15)
H46_4 H 0.6530 0.3718 0.6015
H47_4 H 0.6160 0.4124 0.6612
C59_4 C 0.6800(11) 0.3639(11) 0.7161(16)
H48_4 H 0.7017 0.3187 0.7083
H49_4 H 0.7011 0.4106 0.7146
H50_4 H 0.6651 0.3601 0.7674
C60_4 C 0.4689(7) 0.1318(14) 0.5295(12)
H51_4 H 0.4520 0.0835 0.5449
H52_4 H 0.4432 0.1741 0.5284
C61_4 C 0.4949(13) 0.122(2) 0.438(2)
H53_4 H 0.5311 0.1111 0.4365
H54_4 H 0.4869 0.1696 0.4115
H55_4 H 0.4752 0.0810 0.4127
O5_4 O 0.1091(2) 0.8817(3) 0.1117(3)
H3_4 H 0.1674 0.9495 0.0205
C11_4 C 0.1070(3) 0.8313(4) 0.0589(5)
O4_4 O 0.1502(2) 0.7847(3) 0.7142(3)
O10_4 O 0.1113(2) 0.9445(3) 0.6720(3)
O12_4 O 0.0578(2) 0.8848(3) 0.5284(3)
C4_4 C 0.1330(3) 0.8482(4) 0.9849(4)
C7_4 C 0.1855(3) 0.9306(4) 0.9086(4)
C8_4 C 0.1628(3) 0.9148(4) 0.9774(5)
C13_4 C 0.0936(3) 0.9603(5) 0.7365(5)
H5_4 H 0.0762 0.9209 0.7630
C15_4 C 0.1771(3) 0.8806(4) 0.8446(5)
H6_4 H 0.1921 0.8920 0.7965
C16_4 C 0.1474(3) 0.8151(4) 0.8497(5)
C17_4 C 0.1350(3) 0.7643(4) 0.7803(5)
C18_4 C 0.1249(3) 0.7983(4) 0.9202(4)
H7_4 H 0.1042 0.7535 0.9242
C20_4 C 0.0122(4) 0.8959(5) 0.5312(5)
H9_4 H 0.0624 0.9947 0.8657
H27_4 H 0.0333 0.9051 0.3901
C50_4 C 0.6304(5) 0.9504(9) 0.6752(10)
H34_4 H 0.6133 0.9069 0.6952
C53_4 C 0.6769(6) 0.9406(10) 0.6391(9)
H39_4 H 0.6921 0.8911 0.6344
C2_4 C 0.9961(3) 0.2676(4) 0.8075(5)
N2 N 0.9787(3) 0.5944(4) 0.9684(4)
C23 C 0.9246(3) 0.5814(5) 0.9766(5)
H16 H 0.9143 0.5322 0.9519
H17 H 0.9044 0.6232 0.9509
C41 C 0.9955(4) 0.5978(8) 0.8885(6)
H25 H 0.9839 0.6464 0.8638
H26 H 0.9805 0.5545 0.8578
N2_2 N 0.0213(3) 0.0944(4) 0.5316(4)
H8_3 H 0.0012 0.1020 0.4182
C23_2 C 0.0754(3) 0.0814(5) 0.5234(5)
H15_3 H 0.0819 0.0798 0.4673
H16_2 H 0.0857 0.0322 0.5481
H17_2 H 0.0956 0.1232 0.5491
C41_2 C 0.0045(4) 0.0978(8) 0.6115(6)
H25_2 H 0.0161 0.1464 0.6362
H26_2 H 0.0195 0.0545 0.6422
O15_3 O 0.7257(3) 0.8148(4) 0.9636(4)
N5_3 N 0.7366(4) 0.7556(6) 0.8489(6)
C28_3 C 0.7518(5) 0.7788(6) 0.9203(6)
H20_3 H 0.7860 0.7662 0.9394
C52_3 C 0.6840(7) 0.7752(10) 0.8166(9)
H36_3 H 0.6623 0.7289 0.8150
H37_3 H 0.6856 0.7957 0.7631
H38_3 H 0.6691 0.8141 0.8501
C55_3 C 0.7686(6) 0.7153(10) 0.7987(8)
H41_3 H 0.8033 0.7094 0.8249
H42_3 H 0.7710 0.7442 0.7496
H43_3 H 0.7538 0.6643 0.7868
H45_3 H 0.4415 0.8025 0.9845
N2_3 N 0.0213(3) 0.4056(4) 0.0316(4)
C23_3 C 0.0754(3) 0.4186(5) 0.0234(5)
H16_3 H 0.0857 0.4678 0.0481
H17_3 H 0.0956 0.3768 0.0491
C41_3 C 0.0045(4) 0.4022(8) 0.1115(6)
H25_3 H 0.0161 0.3536 0.1362
H26_3 H 0.0195 0.4455 0.1422
O15_4 O 0.2743(3) 0.1852(4) 0.0364(4)
N5_4 N 0.2634(4) 0.2444(6) 0.1511(6)
C28_4 C 0.2482(5) 0.2212(6) 0.0797(6)
H20_4 H 0.2140 0.2338 0.0606
C52_4 C 0.3160(7) 0.2248(10) 0.1834(9)
H36_4 H 0.3377 0.2711 0.1850
H37_4 H 0.3144 0.2043 0.2369
H38_4 H 0.3309 0.1859 0.1499
C55_4 C 0.2314(6) 0.2847(10) 0.2013(8)
H41_4 H 0.1967 0.2906 0.1751
H42_4 H 0.2290 0.2558 0.2504
H43_4 H 0.2462 0.3357 0.2132
H45_4 H 0.5585 0.1975 0.0155
N2_4 N 0.9787(3) 0.9056(4) 0.4684(4)
H8_4 H 0.9988 0.8980 0.5818
C23_4 C 0.9246(3) 0.9186(5) 0.4766(5)
H15_4 H 0.9181 0.9202 0.5327
H16_4 H 0.9143 0.9678 0.4519
H17_4 H 0.9044 0.8768 0.4509
C41_4 C 0.9955(4) 0.9022(8) 0.3885(6)
H25_4 H 0.9839 0.8536 0.3638
H26_4 H 0.9805 0.9455 0.3578
loop_
_geom_bond_atom_site_label_1
_geom_bond_atom_site_label_2
_geom_bond_site_symmetry_1
_geom_bond_site_symmetry_2
Zn1 O5 1_555 1_555
Zn2 O4 1_555 1_555
Zn3 O7 1_555 1_555
O4 C17 1_555 1_555
O5 C11 1_555 1_555
O6 C17 1_555 1_555
O7 C19 1_555 1_555
O8 C11 1_555 1_555
O9 Zn3 1_555 1_555
O10 Zn2 1_555 1_555
O11 C14 1_555 1_555
O12 Zn2 1_555 1_555
O14 C19 1_555 1_555
N1 C13 1_555 1_555
O15 Zn3 1_555 1_555
C3 C1 1_555 1_555
H1 C3 1_555 1_555
C4 C8 1_555 1_555
C5 C1 1_555 1_555
H2 C5 1_555 1_555
C6 C5 1_555 1_555
C7 C8 1_555 1_555
C8 H3 1_555 1_555
C9 C3 1_555 1_555
C10 C6 1_555 1_555
H4 C10 1_555 1_555
N4 Zn3 1_555 1_555
C11 C4 1_555 1_555
C13 O10 1_555 1_555
H5 C13 1_555 1_555
C14 O9 1_555 1_555
C15 C7 1_555 1_555
H6 C15 1_555 1_555
C16 C15 1_555 1_555
C17 C16 1_555 1_555
C18 C4 1_555 1_555
H7 C18 1_555 1_555
C19 C9 1_555 1_555
C20 O12 1_555 1_555
C21 N1 1_555 1_555
H9 C21 1_555 1_555
H10 C21 1_555 1_555
H11 C21 1_555 1_555
C22 N1 1_555 1_555
H12 C22 1_555 1_555
H13 C22 1_555 1_555
H14 C22 1_555 1_555
N5 C28 1_555 1_555
C24 H18 1_555 1_555
O16 C42 1_555 1_555
C25 C24 1_555 1_555
H19 C25 1_555 1_555
C26 C25 1_555 1_555
C27 C29 1_555 1_555
C28 O15 1_555 1_555
H20 C28 1_555 1_555
O17 C35 1_555 1_555
C29 C34 1_555 1_555
C30 N4 1_555 1_555
H21 C30 1_555 1_555
C31 N4 1_555 1_555
H22 C31 1_555 1_555
C32 C31 1_555 1_555
H23 C32 1_555 1_555
C33 C32 1_555 1_555
C34 C39 1_555 1_555
C35 C27 1_555 1_555
C37 C33 1_555 1_555
C38 C26 1_555 1_555
C39 C38 1_555 1_555
C40 C27 1_555 1_555
C42 C29 1_555 1_555
C43 C37 1_555 1_555
C44 C38 1_555 1_555
H28 C44 1_555 1_555
C45 C35 1_555 1_555
H29 C45 1_555 1_555
C47 C30 1_555 1_555
H31 C47 1_555 1_555
C48 C34 1_555 1_555
H32 C48 1_555 1_555
C49 C40 1_555 1_555
H33 C49 1_555 1_555
C50 C48 1_555 1_555
H34 C50 1_555 1_555
C51 C49 1_555 1_555
H35 C51 1_555 1_555
C52 N5 1_555 1_555
H36 C52 1_555 1_555
H37 C52 1_555 1_555
H38 C52 1_555 1_555
C53 C50 1_555 1_555
H39 C53 1_555 1_555
C54 C39 1_555 1_555
H40 C54 1_555 1_555
C55 N5 1_555 1_555
H41 C55 1_555 1_555
H42 C55 1_555 1_555
H43 C55 1_555 1_555
C56 C43 1_555 1_555
H44 C56 1_555 1_555
C57 C51 1_555 1_555
H45 C57 1_555 1_555
C58 O16 1_555 1_555
H46 C58 1_555 1_555
H47 C58 1_555 1_555
C59 C58 1_555 1_555
H48 C59 1_555 1_555
H49 C59 1_555 1_555
H50 C59 1_555 1_555
C60 O17 1_555 1_555
H51 C60 1_555 1_555
H52 C60 1_555 1_555
Zn6 O6 1_555 1_555
Zn9 O8 1_555 1_555
O18 Zn2 1_555 1_555
O19 Zn1 1_555 1_555
O20 Zn1 1_555 1_555
O21 Zn1 1_555 1_555
O22 Zn2 1_555 1_555
N6 Zn2 1_555 1_555
C7 C14 1_555 1_555
C9 C10 1_555 1_555
C16 C18 1_555 1_555
C33 C47 1_555 1_555
C37 C45 1_555 1_555
C40 C43 1_555 1_555
C42 C44 1_555 1_555
C53 C54 1_555 1_555
C56 C57 1_555 1_555
C36 N3 1_555 1_555
H24 C36 1_555 1_555
H30 C46 1_555 1_555
H53 C61 1_555 1_555
H54 C61 1_555 1_555
H55 C61 1_555 1_555
Zn8 N3 1_555 1_555
C36 C46 1_555 1_555
O3 C12 1_555 1_555
O13 C12 1_555 1_555
Zn6 O3 1_555 1_555
O1 C2 1_555 1_555
O2 C2 1_555 1_555
Zn4 O2 1_555 1_555
Zn7 O1 1_555 1_555
O18 C2_2 1_555 1_555
O2_2 C2_2 1_555 1_555
Zn6 O2_2 1_555 1_555
Zn7 O4_2 1_555 1_555
O4_2 C17_2 1_555 1_555
O6_2 C17_2 1_555 1_555
O10_2 Zn7 1_555 1_555
O12_2 Zn7 1_555 1_555
C4_2 C8_2 1_555 1_555
C7_2 C8_2 1_555 1_555
C13_2 O10_2 1_555 1_555
H5_2 C13_2 1_555 1_555
C15_2 C7_2 1_555 1_555
H6_2 C15_2 1_555 1_555
C16_2 C15_2 1_555 1_555
C17_2 C16_2 1_555 1_555
C18_2 C4_2 1_555 1_555
H7_2 C18_2 1_555 1_555
C20_2 O12_2 1_555 1_555
H34_2 C50_2 1_555 1_555
C53_2 C50_2 1_555 1_555
H39_2 C53_2 1_555 1_555
Zn4 O6_2 1_555 1_555
O22_2 Zn7 1_555 1_555
N6_2 Zn7 1_555 1_555
C16_2 C18_2 1_555 1_555
Zn1_2 O5_2 1_555 1_555
O5_2 C11_2 1_555 1_555
O8_2 C11_2 1_555 1_555
Zn8 O8_2 1_555 1_555
O19_2 Zn1_2 1_555 1_555
O20_2 Zn1_2 1_555 1_555
O21_2 Zn1_2 1_555 1_555
Zn3_2 O7_2 1_555 1_555
O3_2 C12_2 1_555 1_555
O7_2 C19_2 1_555 1_555
O9_2 Zn3_2 1_555 1_555
O11_2 C14_2 1_555 1_555
O13_2 C12_2 1_555 1_555
O14_2 C19_2 1_555 1_555
N3_2 C24_2 1_555 1_555
C3_2 C1_2 1_555 1_555
H1_2 C3_2 1_555 1_555
C5_2 C1_2 1_555 1_555
H2_2 C5_2 1_555 1_555
C6_2 C5_2 1_555 1_555
C9_2 C3_2 1_555 1_555
C10_2 C6_2 1_555 1_555
H4_2 C10_2 1_555 1_555
N4_2 Zn3_2 1_555 1_555
C12_2 C6_2 1_555 1_555
C14_2 O9_2 1_555 1_555
C19_2 C9_2 1_555 1_555
C21_2 N1_2 1_555 1_555
H10_2 C21_2 1_555 1_555
H11_2 C21_2 1_555 1_555
C22_2 N1_2 1_555 1_555
H12_2 C22_2 1_555 1_555
H13_2 C22_2 1_555 1_555
H14_2 C22_2 1_555 1_555
C24_2 H18_2 1_555 1_555
O16_2 C42_2 1_555 1_555
C25_2 C24_2 1_555 1_555
H19_2 C25_2 1_555 1_555
C26_2 C25_2 1_555 1_555
C27_2 C29_2 1_555 1_555
O17_2 C35_2 1_555 1_555
C29_2 C34_2 1_555 1_555
C30_2 N4_2 1_555 1_555
H21_2 C30_2 1_555 1_555
C31_2 N4_2 1_555 1_555
H22_2 C31_2 1_555 1_555
C32_2 C31_2 1_555 1_555
H23_2 C32_2 1_555 1_555
C33_2 C32_2 1_555 1_555
C34_2 C39_2 1_555 1_555
C35_2 C27_2 1_555 1_555
C36_2 N3_2 1_555 1_555
H24_2 C36_2 1_555 1_555
C37_2 C33_2 1_555 1_555
C38_2 C26_2 1_555 1_555
C39_2 C38_2 1_555 1_555
C40_2 C27_2 1_555 1_555
C42_2 C29_2 1_555 1_555
C43_2 C37_2 1_555 1_555
C44_2 C38_2 1_555 1_555
H28_2 C44_2 1_555 1_555
C45_2 C35_2 1_555 1_555
H29_2 C45_2 1_555 1_555
C46_2 C26_2 1_555 1_555
H30_2 C46_2 1_555 1_555
C47_2 C30_2 1_555 1_555
H31_2 C47_2 1_555 1_555
C48_2 C34_2 1_555 1_555
H32_2 C48_2 1_555 1_555
C49_2 C40_2 1_555 1_555
H33_2 C49_2 1_555 1_555
C51_2 C49_2 1_555 1_555
H35_2 C51_2 1_555 1_555
C54_2 C39_2 1_555 1_555
H40_2 C54_2 1_555 1_555
C56_2 C43_2 1_555 1_555
H44_2 C56_2 1_555 1_555
C57_2 C51_2 1_555 1_555
C58_2 O16_2 1_555 1_555
H46_2 C58_2 1_555 1_555
H47_2 C58_2 1_555 1_555
C59_2 C58_2 1_555 1_555
H48_2 C59_2 1_555 1_555
H49_2 C59_2 1_555 1_555
H50_2 C59_2 1_555 1_555
C60_2 O17_2 1_555 1_555
H51_2 C60_2 1_555 1_555
H52_2 C60_2 1_555 1_555
C61_2 C60_2 1_555 1_555
H53_2 C61_2 1_555 1_555
H54_2 C61_2 1_555 1_555
H55_2 C61_2 1_555 1_555
Zn4 O3_2 1_555 1_555
Zn9 N3_2 1_555 1_555
C9_2 C10_2 1_555 1_555
C33_2 C47_2 1_555 1_555
C36_2 C46_2 1_555 1_555
C37_2 C45_2 1_555 1_555
C40_2 C43_2 1_555 1_555
C42_2 C44_2 1_555 1_555
C56_2 C57_2 1_555 1_555
O1_2 C2_3 1_555 1_555
O19 C2_3 1_555 1_555
Zn9 O1_2 1_555 1_555
O20_2 C12_3 1_555 1_555
O13_3 C12_3 1_555 1_555
C36_3 N6 1_555 1_555
H24_3 C36_3 1_555 1_555
H30_3 C46_3 1_555 1_555
H53_3 C61_3 1_555 1_555
H54_3 C61_3 1_555 1_555
H55_3 C61_3 1_555 1_555
C36_3 C46_3 1_555 1_555
Zn4 O5_3 1_555 1_555
Zn8 O4_3 1_555 1_555
Zn3_3 O7_3 1_555 1_555
O4_3 C17_3 1_555 1_555
O5_3 C11_3 1_555 1_555
O21_2 C17_3 1_555 1_555
O7_3 C19_3 1_555 1_555
O22_2 C11_3 1_555 1_555
O9_3 Zn3_3 1_555 1_555
O10_3 Zn8 1_555 1_555
O11_3 C14_3 1_555 1_555
O12_3 Zn8 1_555 1_555
O14_3 C19_3 1_555 1_555
N1_3 C13_3 1_555 1_555
O15_2 Zn3_3 1_555 1_555
C3_3 C1_3 1_555 1_555
H1_3 C3_3 1_555 1_555
C4_3 C8_3 1_555 1_555
C5_3 C1_3 1_555 1_555
H2_3 C5_3 1_555 1_555
C6_3 C5_3 1_555 1_555
C7_3 C8_3 1_555 1_555
C8_3 H3_3 1_555 1_555
C9_3 C3_3 1_555 1_555
C10_3 C6_3 1_555 1_555
H4_3 C10_3 1_555 1_555
N4_3 Zn3_3 1_555 1_555
C11_3 C4_3 1_555 1_555
C13_3 O10_3 1_555 1_555
H5_3 C13_3 1_555 1_555
C14_3 O9_3 1_555 1_555
C15_3 C7_3 1_555 1_555
H6_3 C15_3 1_555 1_555
C16_3 C15_3 1_555 1_555
C17_3 C16_3 1_555 1_555
C18_3 C4_3 1_555 1_555
H7_3 C18_3 1_555 1_555
C19_3 C9_3 1_555 1_555
C20_3 O12_3 1_555 1_555
C21_3 N1_3 1_555 1_555
H9_3 C21_3 1_555 1_555
H10_3 C21_3 1_555 1_555
H11_3 C21_3 1_555 1_555
C22_3 N1_3 1_555 1_555
H12_3 C22_3 1_555 1_555
H13_3 C22_3 1_555 1_555
H14_3 C22_3 1_555 1_555
N5_2 C28_2 1_555 1_555
C24_3 H18_3 1_555 1_555
O16_3 C42_3 1_555 1_555
C25_3 C24_3 1_555 1_555
H19_3 C25_3 1_555 1_555
C26_3 C25_3 1_555 1_555
C27_3 C29_3 1_555 1_555
C28_2 O15_2 1_555 1_555
H20_2 C28_2 1_555 1_555
O17_3 C35_3 1_555 1_555
C29_3 C34_3 1_555 1_555
C30_3 N4_3 1_555 1_555
H21_3 C30_3 1_555 1_555
C31_3 N4_3 1_555 1_555
H22_3 C31_3 1_555 1_555
C32_3 C31_3 1_555 1_555
H23_3 C32_3 1_555 1_555
C33_3 C32_3 1_555 1_555
C34_3 C39_3 1_555 1_555
C35_3 C27_3 1_555 1_555
C37_3 C33_3 1_555 1_555
C38_3 C26_3 1_555 1_555
C39_3 C38_3 1_555 1_555
C40_3 C27_3 1_555 1_555
C42_3 C29_3 1_555 1_555
C43_3 C37_3 1_555 1_555
C44_3 C38_3 1_555 1_555
H28_3 C44_3 1_555 1_555
C45_3 C35_3 1_555 1_555
H29_3 C45_3 1_555 1_555
C47_3 C30_3 1_555 1_555
H31_3 C47_3 1_555 1_555
C48_3 C34_3 1_555 1_555
H32_3 C48_3 1_555 1_555
C49_3 C40_3 1_555 1_555
H33_3 C49_3 1_555 1_555
C50_3 C48_3 1_555 1_555
H34_3 C50_3 1_555 1_555
C51_3 C49_3 1_555 1_555
H35_3 C51_3 1_555 1_555
C52_2 N5_2 1_555 1_555
H36_2 C52_2 1_555 1_555
H37_2 C52_2 1_555 1_555
H38_2 C52_2 1_555 1_555
C53_3 C50_3 1_555 1_555
H39_3 C53_3 1_555 1_555
C54_3 C39_3 1_555 1_555
H40_3 C54_3 1_555 1_555
C55_2 N5_2 1_555 1_555
H41_2 C55_2 1_555 1_555
H42_2 C55_2 1_555 1_555
H43_2 C55_2 1_555 1_555
C56_3 C43_3 1_555 1_555
H44_3 C56_3 1_555 1_555
C57_3 C51_3 1_555 1_555
H45_2 C57_3 1_555 1_555
C58_3 O16_3 1_555 1_555
H46_3 C58_3 1_555 1_555
H47_3 C58_3 1_555 1_555
C59_3 C58_3 1_555 1_555
H48_3 C59_3 1_555 1_555
H49_3 C59_3 1_555 1_555
H50_3 C59_3 1_555 1_555
C60_3 O17_3 1_555 1_555
H51_3 C60_3 1_555 1_555
H52_3 C60_3 1_555 1_555
O18_2 Zn8 1_555 1_555
C7_3 C14_3 1_555 1_555
C9_3 C10_3 1_555 1_555
C16_3 C18_3 1_555 1_555
C33_3 C47_3 1_555 1_555
C37_3 C45_3 1_555 1_555
C40_3 C43_3 1_555 1_555
C42_3 C44_3 1_555 1_555
C53_3 C54_3 1_555 1_555
C56_3 C57_3 1_555 1_555
Zn3_4 O7_4 1_555 1_555
O20 C12_4 1_555 1_555
O7_4 C19_4 1_555 1_555
O9_4 Zn3_4 1_555 1_555
O11_4 C14_4 1_555 1_555
O13_4 C12_4 1_555 1_555
O14_4 C19_4 1_555 1_555
N6_2 C24_4 1_555 1_555
C3_4 C1_4 1_555 1_555
H1_4 C3_4 1_555 1_555
C5_4 C1_4 1_555 1_555
H2_4 C5_4 1_555 1_555
C6_4 C5_4 1_555 1_555
C9_4 C3_4 1_555 1_555
C10_4 C6_4 1_555 1_555
H4_4 C10_4 1_555 1_555
N4_4 Zn3_4 1_555 1_555
C12_4 C6_4 1_555 1_555
C14_4 O9_4 1_555 1_555
C19_4 C9_4 1_555 1_555
C21_4 N1_4 1_555 1_555
H10_4 C21_4 1_555 1_555
H11_4 C21_4 1_555 1_555
C22_4 N1_4 1_555 1_555
H12_4 C22_4 1_555 1_555
H13_4 C22_4 1_555 1_555
H14_4 C22_4 1_555 1_555
C24_4 H18_4 1_555 1_555
O16_4 C42_4 1_555 1_555
C25_4 C24_4 1_555 1_555
H19_4 C25_4 1_555 1_555
C26_4 C25_4 1_555 1_555
C27_4 C29_4 1_555 1_555
O17_4 C35_4 1_555 1_555
C29_4 C34_4 1_555 1_555
C30_4 N4_4 1_555 1_555
H21_4 C30_4 1_555 1_555
C31_4 N4_4 1_555 1_555
H22_4 C31_4 1_555 1_555
C32_4 C31_4 1_555 1_555
H23_4 C32_4 1_555 1_555
C33_4 C32_4 1_555 1_555
C34_4 C39_4 1_555 1_555
C35_4 C27_4 1_555 1_555
C36_4 N6_2 1_555 1_555
H24_4 C36_4 1_555 1_555
C37_4 C33_4 1_555 1_555
C38_4 C26_4 1_555 1_555
C39_4 C38_4 1_555 1_555
C40_4 C27_4 1_555 1_555
C42_4 C29_4 1_555 1_555
C43_4 C37_4 1_555 1_555
C44_4 C38_4 1_555 1_555
H28_4 C44_4 1_555 1_555
C45_4 C35_4 1_555 1_555
H29_4 C45_4 1_555 1_555
C46_4 C26_4 1_555 1_555
H30_4 C46_4 1_555 1_555
C47_4 C30_4 1_555 1_555
H31_4 C47_4 1_555 1_555
C48_4 C34_4 1_555 1_555
H32_4 C48_4 1_555 1_555
C49_4 C40_4 1_555 1_555
H33_4 C49_4 1_555 1_555
C51_4 C49_4 1_555 1_555
H35_4 C51_4 1_555 1_555
C54_4 C39_4 1_555 1_555
H40_4 C54_4 1_555 1_555
C56_4 C43_4 1_555 1_555
H44_4 C56_4 1_555 1_555
C57_4 C51_4 1_555 1_555
C58_4 O16_4 1_555 1_555
H46_4 C58_4 1_555 1_555
H47_4 C58_4 1_555 1_555
C59_4 C58_4 1_555 1_555
H48_4 C59_4 1_555 1_555
H49_4 C59_4 1_555 1_555
H50_4 C59_4 1_555 1_555
C60_4 O17_4 1_555 1_555
H51_4 C60_4 1_555 1_555
H52_4 C60_4 1_555 1_555
C61_4 C60_4 1_555 1_555
H53_4 C61_4 1_555 1_555
H54_4 C61_4 1_555 1_555
H55_4 C61_4 1_555 1_555
C9_4 C10_4 1_555 1_555
C33_4 C47_4 1_555 1_555
C36_4 C46_4 1_555 1_555
C37_4 C45_4 1_555 1_555
C40_4 C43_4 1_555 1_555
C42_4 C44_4 1_555 1_555
C56_4 C57_4 1_555 1_555
Zn6 O5_4 1_555 1_555
O5_4 C11_4 1_555 1_555
O22 C11_4 1_555 1_555
Zn9 O4_4 1_555 1_555
O4_4 C17_4 1_555 1_555
O21 C17_4 1_555 1_555
O10_4 Zn9 1_555 1_555
O12_4 Zn9 1_555 1_555
C4_4 C8_4 1_555 1_555
C7_4 C8_4 1_555 1_555
C13_4 O10_4 1_555 1_555
H5_4 C13_4 1_555 1_555
C15_4 C7_4 1_555 1_555
H6_4 C15_4 1_555 1_555
C16_4 C15_4 1_555 1_555
C17_4 C16_4 1_555 1_555
C18_4 C4_4 1_555 1_555
H7_4 C18_4 1_555 1_555
C20_4 O12_4 1_555 1_555
H34_4 C50_4 1_555 1_555
C53_4 C50_4 1_555 1_555
H39_4 C53_4 1_555 1_555
C16_4 C18_4 1_555 1_555
O18_2 C2_4 1_555 1_555
O19_2 C2_4 1_555 1_555
C23 N2 1_555 1_555
H16 C23 1_555 1_555
H17 C23 1_555 1_555
C41 N2 1_555 1_555
H25 C41 1_555 1_555
H26 C41 1_555 1_555
C23_2 N2_2 1_555 1_555
H15_3 C23_2 1_555 1_555
H16_2 C23_2 1_555 1_555
H17_2 C23_2 1_555 1_555
C41_2 N2_2 1_555 1_555
H25_2 C41_2 1_555 1_555
H26_2 C41_2 1_555 1_555
N5_3 C28_3 1_555 1_555
C28_3 O15_3 1_555 1_555
H20_3 C28_3 1_555 1_555
C52_3 N5_3 1_555 1_555
H36_3 C52_3 1_555 1_555
H37_3 C52_3 1_555 1_555
H38_3 C52_3 1_555 1_555
C55_3 N5_3 1_555 1_555
H41_3 C55_3 1_555 1_555
H42_3 C55_3 1_555 1_555
H43_3 C55_3 1_555 1_555
C23_3 N2_3 1_555 1_555
H16_3 C23_3 1_555 1_555
H17_3 C23_3 1_555 1_555
C41_3 N2_3 1_555 1_555
H25_3 C41_3 1_555 1_555
H26_3 C41_3 1_555 1_555
N5_4 C28_4 1_555 1_555
C28_4 O15_4 1_555 1_555
H20_4 C28_4 1_555 1_555
C52_4 N5_4 1_555 1_555
H36_4 C52_4 1_555 1_555
H37_4 C52_4 1_555 1_555
H38_4 C52_4 1_555 1_555
C55_4 N5_4 1_555 1_555
H41_4 C55_4 1_555 1_555
H42_4 C55_4 1_555 1_555
H43_4 C55_4 1_555 1_555
C23_4 N2_4 1_555 1_555
H15_4 C23_4 1_555 1_555
H16_4 C23_4 1_555 1_555
H17_4 C23_4 1_555 1_555
C41_4 N2_4 1_555 1_555
H25_4 C41_4 1_555 1_555
H26_4 C41_4 1_555 1_555

#END
