
###############################################################################
#
# This file contains modified crystal structure data generated from the
# MOF subset of the Cambridge Structural Database (CSD) v543 
# hosted by the Cambridge Crystallographic Data Centre (CCDC).
#
# This work is licensed under the Creative Commons
# Attribution-NonCommercial-ShareAlike 4.0 International License.
# To view a copy of this license, visit
# http://creativecommons.org/licenses/by-nc-sa/4.0/
# or send a letter to
# Creative Commons, PO Box 1866, Mountain View, CA 94042, USA.
#
# CIF created using the CSD Python API on 29 September 2022
# The structure has been converted into the P1 space group
# The structure has a 3D framework
# The original CSD entry PAZDUS is in the hexagonal crystal system
# The framework has been calculated to contain at least 10.0% void space
# The void calculation uses a probe of radius 1.32A, grid spacing 0.4
# H atom positions have been added when not included in the experimental data
#
###############################################################################

data_PAZDUS
_chemical_formula_moiety         '(C180 H72 N72 O105 Zr24)n'
_symmetry_cell_setting           triclinic
_symmetry_space_group_name_H-M   'P 1'
_symmetry_Int_Tables_number      1
_space_group_name_Hall           'P 1'
loop_
_symmetry_equiv_pos_site_id
_symmetry_equiv_pos_as_xyz
1 x,y,z
_cell_length_a                   18.950(3)
_cell_length_b                   18.950(3)
_cell_length_c                   43.979(9)
_cell_angle_alpha                90
_cell_angle_beta                 90
_cell_angle_gamma                120
_cell_volume                     13677.1
loop_
_atom_site_label
_atom_site_type_symbol
_atom_site_fract_x
_atom_site_fract_y
_atom_site_fract_z
O40 O 0.1551 0.7111 0.6548
O41 O 0.1130 0.6292 0.6970
C56 C 0.1031 0.6709 0.6759
C57 C 0.0074 0.7099 0.6525
C59 C 0.0262 0.6726 0.6761
O43 O 0.2002 0.5394 0.6072
C65 C 0.1017 0.4874 0.5545
N26 N 0.0527 0.4628 0.5283
C66 C 0.1792 0.5896 0.5960
C67 C 0.1270 0.5635 0.5680
C68 C 0.0266 0.5133 0.5143
O44 O 0.2002 0.6608 0.6072
C69 C 0.1017 0.6143 0.5545
N27 N 0.0527 0.5899 0.5283
C83 C 0.0292 0.3629 0.2999
N33 N 0.1021 0.3617 0.2996
N34 N 0.0655 0.2888 0.3474
C85 C 0.1226 0.3249 0.3235
O52 O 0.4440 0.2889 0.3452
O53 O 0.4838 0.3708 0.3030
C86 C 0.4322 0.3291 0.3241
C87 C 0.2975 0.2901 0.3475
C88 C 0.3337 0.3629 0.2999
N35 N 0.2596 0.3617 0.2996
N36 N 0.2233 0.2888 0.3474
C89 C 0.3536 0.3274 0.3239
C90 C 0.2023 0.3249 0.3235
Zr14 Zr 0.5506(16) 0.2753(8) 0.3613(11)
Zr19 Zr 0.2753(8) 0.5506(16) 0.6387(11)
Zr21 Zr 0.2753(18) 0.7247(8) 0.6387(11)
Zr24 Zr 0.6078(6) 0.3922(6) 0.2898(9)
Zr28 Zr 0.2156(8) 0.6078(6) 0.7102(9)
H25 H 0.120375 0.446722 0.564507
H26 H 0.120375 0.673653 0.564507
H29 H 0.0502194 0.738267 0.633823
H32 H 0.0151277 0.391738 0.281282
H33 H 0.37661 0.391738 0.281282
H35 H 0.311952 0.261733 0.366177
O9 O 0.7111 0.1551 0.3452
O10 O 0.6292 0.1130 0.3030
C10 C 0.6709 0.1031 0.3241
C11 C 0.7099 0.0074 0.3475
C13 C 0.6726 0.0262 0.3239
Zr5 Zr 0.6078(6) 0.2156(8) 0.2898(9)
O21 O 0.4440 0.1551 0.3452
O22 O 0.4838 0.1130 0.3030
C31 C 0.4322 0.1031 0.3241
C32 C 0.2975 0.0074 0.3475
C34 C 0.3536 0.0262 0.3239
O23 O 0.5270 0.1738 0.2500
O24 O 0.6028(6) 0.2056(8) 0.3482(10)
Zr11 Zr 0.7247(8) 0.2753(18) 0.3613(11)
O54 O 0.6667 0.3333 0.375(4)
O56 O 0.7320(5) 0.2680(11) 0.2961(8)
O57 O 0.5360(10) 0.2680(5) 0.2961(8)
O58 O 0.6667 0.3333 0.277(3)
Zr18 Zr 0.7247(18) 0.4494(16) 0.3613(11)
Zr26 Zr 0.7844(8) 0.3922(6) 0.2898(9)
Zr33 Zr 0.6078(6) 0.2156(8) 0.2102(9)
O59 O 0.8449 0.2889 0.3452
O68 O 0.6608 0.2002 0.3928
O71 O 0.7998 0.3392 0.3928
O77 O 0.6468 0.1738 0.2500
O81 O 0.7944(8) 0.3972(6) 0.3482(10)
H1 H 0.738267 0.0502194 0.366177
H16 H 0.311952 0.0502194 0.366177
O1 O 0.7111 0.5560 0.3452
O2 O 0.6292 0.5162 0.3030
O3 O 0.5394 0.3392 0.3928
C1 C 0.4874 0.3857 0.4455
N1 N 0.4628 0.4101 0.4717
C2 C 0.6709 0.5678 0.3241
C3 C 0.7099 0.7025 0.3475
C4 C 0.6371 0.6663 0.2999
N2 N 0.6383 0.7404 0.2996
N3 N 0.7112 0.7767 0.3474
C5 C 0.6726 0.6464 0.3239
C6 C 0.6751 0.7977 0.3235
C7 C 0.5896 0.4104 0.4040
C8 C 0.5635 0.4365 0.4320
C9 C 0.5133 0.4867 0.4857
O4 O 0.6468 0.4730 0.2500
O6 O 0.6028(6) 0.3972(6) 0.3482(10)
C12 C 0.6371 0.9708 0.2999
N4 N 0.6383 0.8979 0.2996
N5 N 0.7112 0.9345 0.3474
C14 C 0.6751 0.8774 0.3235
O11 O 0.3392 0.5394 0.6072
C15 C 0.3857 0.4874 0.5545
N6 N 0.4101 0.4628 0.5283
C16 C 0.4104 0.5896 0.5960
C17 C 0.4365 0.5635 0.5680
C18 C 0.4867 0.5133 0.5143
O12 O 0.4606 0.6608 0.6072
C19 C 0.5126 0.6143 0.5545
N7 N 0.5372 0.5899 0.5283
O13 O 0.6608 0.4606 0.3928
C20 C 0.6143 0.5126 0.4455
N8 N 0.5899 0.5372 0.4717
C21 C 0.6143 0.1017 0.4455
N9 N 0.5899 0.0527 0.4717
C22 C 0.5896 0.1792 0.4040
C23 C 0.5635 0.1270 0.4320
C24 C 0.5133 0.0266 0.4857
O20 O 0.5394 0.2002 0.3928
C30 C 0.4874 0.1017 0.4455
N12 N 0.4628 0.0527 0.4717
C33 C 0.3337 0.9708 0.2999
N13 N 0.2596 0.8979 0.2996
N14 N 0.2233 0.9345 0.3474
C35 C 0.2023 0.8774 0.3235
C38 C 0.0292 0.6663 0.2999
N15 N 0.1021 0.7404 0.2996
N16 N 0.0655 0.7767 0.3474
C40 C 0.1226 0.7977 0.3235
O33 O 0.8262 0.3532 0.2500
O34 O 0.7320(11) 0.4640(10) 0.2961(8)
Zr10 Zr 0.3922(6) 0.6078(6) 0.7102(9)
O36 O 0.5560 0.7111 0.6548
O37 O 0.5162 0.6292 0.6970
C51 C 0.5678 0.6709 0.6759
C52 C 0.7025 0.7099 0.6525
C53 C 0.6663 0.6371 0.7001
N21 N 0.7404 0.6383 0.7004
N22 N 0.7767 0.7112 0.6526
C54 C 0.6464 0.6726 0.6761
C55 C 0.7977 0.6751 0.6765
O38 O 0.2680(5) 0.5360(10) 0.7039(8)
O39 O 0.3972(6) 0.6028(6) 0.6518(10)
C58 C 0.9708 0.6371 0.7001
N23 N 0.8979 0.6383 0.7004
N24 N 0.9345 0.7112 0.6526
C60 C 0.8774 0.6751 0.6765
C61 C 0.8983 0.3857 0.4455
N25 N 0.9473 0.4101 0.4717
C62 C 0.8208 0.4104 0.4040
C63 C 0.8730 0.4365 0.4320
C64 C 0.9734 0.4867 0.4857
O45 O 0.7998 0.4606 0.3928
C70 C 0.8983 0.5126 0.4455
N28 N 0.9473 0.5372 0.4717
O51 O 0.8870 0.3708 0.3030
C81 C 0.8969 0.3291 0.3241
C82 C 0.9926 0.2901 0.3475
C84 C 0.9738 0.3274 0.3239
O55 O 0.5270 0.3532 0.2500
Zr12 Zr 0.4494(16) 0.7247(18) 0.6387(11)
Zr29 Zr 0.6078(6) 0.3922(6) 0.2102(9)
Zr31 Zr 0.7844(8) 0.3922(6) 0.2102(9)
O60 O 0.1551 0.4440 0.6548
O61 O 0.2889 0.4440 0.6548
O62 O 0.5560 0.8449 0.6548
O63 O 0.8449 0.5560 0.3452
O65 O 0.3708 0.4838 0.6970
O66 O 0.8870 0.5162 0.3030
O69 O 0.4606 0.7998 0.6072
O72 O 0.3532 0.5270 0.7500
O73 O 0.4730 0.6468 0.7500
O75 O 0.8262 0.4730 0.2500
O80 O 0.4640(10) 0.7320(11) 0.7039(8)
O82 O 0.2056(8) 0.6028(6) 0.6518(10)
O83 O 0.3972(6) 0.7944(8) 0.6518(10)
O84 O 0.3333 0.6667 0.625(4)
O86 O 0.3333 0.6667 0.723(3)
H2 H 0.738267 0.688048 0.366177
H3 H 0.608262 0.62339 0.281282
H4 H 0.608262 0.984872 0.281282
H5 H 0.326347 0.446722 0.564507
H6 H 0.446722 0.326347 0.435493
H8 H 0.673653 0.553278 0.435493
H10 H 0.446722 0.120375 0.435493
H12 H 0.0151277 0.62339 0.281282
H14 H 0.673653 0.120375 0.435493
H15 H 0.37661 0.984872 0.281282
H17 H 0.553278 0.673653 0.564507
H19 H 0.879625 0.553278 0.435493
H22 H 0.688048 0.738267 0.633823
H24 H 0.984872 0.608262 0.718718
H28 H 0.879625 0.326347 0.435493
H30 H 0.62339 0.608262 0.718718
H36 H 0.949781 0.261733 0.366177
C25 C 0.5126 0.8983 0.5545
N10 N 0.5372 0.9473 0.5283
C26 C 0.4104 0.8208 0.5960
C27 C 0.4365 0.8730 0.5680
C28 C 0.4867 0.9734 0.5143
O19 O 0.3392 0.7998 0.6072
C29 C 0.3857 0.8983 0.5545
N11 N 0.4101 0.9473 0.5283
H7 H 0.553278 0.879625 0.564507
H18 H 0.326347 0.879625 0.564507
C36 C 0.8969 0.5678 0.3241
C37 C 0.9926 0.7025 0.3475
C39 C 0.9738 0.6464 0.3239
H11 H 0.949781 0.688048 0.366177
C53_2 C 0.3629 0.0292 0.7001
N21_2 N 0.3617 0.1021 0.7004
N22_2 N 0.2888 0.0655 0.6526
C55_2 C 0.3249 0.1226 0.6765
C56_2 C 0.3291 0.4322 0.6759
C57_2 C 0.2901 0.2975 0.6525
C58_2 C 0.3629 0.3337 0.7001
N23_2 N 0.3617 0.2596 0.7004
N24_2 N 0.2888 0.2233 0.6526
C59_2 C 0.3274 0.3536 0.6761
C60_2 C 0.3249 0.2023 0.6765
H24_2 H 0.391738 0.37661 0.718718
H29_2 H 0.261733 0.311952 0.633823
H30_2 H 0.391738 0.0151277 0.718718
Zr10_2 Zr 0.3922(6) 0.7844(8) 0.7102(9)
O36_2 O 0.2889 0.8449 0.6548
O37_2 O 0.3708 0.8870 0.6970
C51_2 C 0.3291 0.8969 0.6759
C52_2 C 0.2901 0.9926 0.6525
C54_2 C 0.3274 0.9738 0.6761
O65_2 O 0.5162 0.8870 0.6970
O72_2 O 0.4730 0.8262 0.7500
O73_2 O 0.3532 0.8262 0.7500
O80_2 O 0.2680(11) 0.7320(15) 0.7039(8)
H22_2 H 0.261733 0.949781 0.633823
O37_3 O 0.1130 0.4838 0.6970
C51_3 C 0.1031 0.4322 0.6759
C52_3 C 0.0074 0.2975 0.6525
C54_3 C 0.0262 0.3536 0.6761
O72_3 O 0.1738 0.6468 0.7500
O73_3 O 0.1738 0.5270 0.7500
H22_3 H 0.0502194 0.311952 0.633823
C53_3 C 0.9708 0.3337 0.7001
N21_3 N 0.8979 0.2596 0.7004
N22_3 N 0.9345 0.2233 0.6526
C55_3 C 0.8774 0.2023 0.6765
C58_3 C 0.6663 0.0292 0.7001
N23_3 N 0.7404 0.1021 0.7004
N24_3 N 0.7767 0.0655 0.6526
C60_3 C 0.7977 0.1226 0.6765
H24_3 H 0.62339 0.0151277 0.718718
H30_3 H 0.984872 0.37661 0.718718
C56_3 C 0.5678 0.8969 0.6759
C57_3 C 0.7025 0.9926 0.6525
C59_3 C 0.6464 0.9738 0.6761
H29_3 H 0.688048 0.949781 0.633823
O48 O 0.1551 0.4440 0.8452
O49 O 0.1130 0.4838 0.8030
C76 C 0.1031 0.4322 0.8241
C77 C 0.0074 0.2975 0.8475
C79 C 0.0262 0.3536 0.8239
Zr16 Zr 0.2753(18) 0.5506(16) 0.8613(11)
Zr25 Zr 0.2156(8) 0.6078(6) 0.7898(9)
H34 H 0.0502194 0.311952 0.866177
O27 O 0.1551 0.7111 0.8452
O28 O 0.1130 0.6292 0.8030
C41 C 0.1031 0.6709 0.8241
C42 C 0.0074 0.7099 0.8475
C44 C 0.0262 0.6726 0.8239
O30 O 0.2056(8) 0.6028(6) 0.8482(10)
Zr15 Zr 0.2753(8) 0.7247(18) 0.8613(11)
O78 O 0.2680(5) 0.7320(11) 0.7961(8)
O79 O 0.2680(11) 0.5360(10) 0.7961(8)
O85 O 0.3333 0.6667 0.777(3)
H9 H 0.0502194 0.738267 0.866177
O18 O 0.5394 0.2002 0.1072
C25_2 C 0.4874 0.1017 0.0545
N10_2 N 0.4628 0.0527 0.0283
C26_2 C 0.5896 0.1792 0.0960
C27_2 C 0.5635 0.1270 0.0680
C28_2 C 0.5133 0.0266 0.0143
O19_2 O 0.6608 0.2002 0.1072
C29_2 C 0.6143 0.1017 0.0545
N11_2 N 0.5899 0.0527 0.0283
Zr20 Zr 0.7247(18) 0.2753(8) 0.1387(11)
Zr22 Zr 0.5506(16) 0.2753(18) 0.1387(11)
H7_2 H 0.446722 0.120375 0.0645072
H18_2 H 0.673653 0.120375 0.0645072
C73 C 0.6663 0.0292 0.7999
N29 N 0.7404 0.1021 0.7996
N30 N 0.7767 0.0655 0.8474
C75 C 0.7977 0.1226 0.8235
C78 C 0.9708 0.3337 0.7999
N31 N 0.8979 0.2596 0.7996
N32 N 0.9345 0.2233 0.8474
C80 C 0.8774 0.2023 0.8235
H27 H 0.62339 0.0151277 0.781282
H31 H 0.984872 0.37661 0.781282
O11_2 O 0.6608 0.4606 0.1072
C15_2 C 0.6143 0.5126 0.0545
N6_2 N 0.5899 0.5372 0.0283
C16_2 C 0.5896 0.4104 0.0960
C17_2 C 0.5635 0.4365 0.0680
C18_2 C 0.5133 0.4867 0.0143
O12_2 O 0.5394 0.3392 0.1072
C19_2 C 0.4874 0.3857 0.0545
N7_2 N 0.4628 0.4101 0.0283
Zr9 Zr 0.7247(8) 0.4494(16) 0.1387(11)
O36_3 O 0.4440 0.2889 0.1548
O37_4 O 0.4838 0.3708 0.1970
C51_4 C 0.4322 0.3291 0.1759
C52_4 C 0.2975 0.2901 0.1525
C53_4 C 0.3337 0.3629 0.2001
N21_4 N 0.2596 0.3617 0.2004
N22_4 N 0.2233 0.2888 0.1526
C54_4 C 0.3536 0.3274 0.1761
C55_4 C 0.2023 0.3249 0.1765
O38_2 O 0.7320(5) 0.4640(10) 0.2039(8)
O39_2 O 0.6028(6) 0.3972(6) 0.1518(10)
C58_4 C 0.0292 0.3629 0.2001
N23_4 N 0.1021 0.3617 0.2004
N24_4 N 0.0655 0.2888 0.1526
C60_4 C 0.1226 0.3249 0.1765
O60_2 O 0.8449 0.5560 0.1548
O61_2 O 0.7111 0.5560 0.1548
O62_2 O 0.4440 0.1551 0.1548
O65_3 O 0.6292 0.5162 0.1970
O70 O 0.7998 0.4606 0.1072
O80_3 O 0.5360(10) 0.2680(11) 0.2039(8)
O82_2 O 0.7944(8) 0.3972(6) 0.1518(10)
O83_2 O 0.6028(6) 0.2056(8) 0.1518(10)
O84_2 O 0.6667 0.3333 0.125(4)
O86_2 O 0.6667 0.3333 0.223(3)
H5_2 H 0.673653 0.553278 0.0645072
H17_2 H 0.446722 0.326347 0.0645072
H22_4 H 0.311952 0.261733 0.133823
H24_4 H 0.0151277 0.391738 0.218718
H30_4 H 0.37661 0.391738 0.218718
Zr1 Zr 0.4494(16) 0.7247(8) 0.8613(11)
Zr2 Zr 0.3922(6) 0.6078(6) 0.7898(9)
O1_2 O 0.2889 0.4440 0.8452
O2_2 O 0.3708 0.4838 0.8030
O3_2 O 0.4606 0.6608 0.8928
C1_2 C 0.5126 0.6143 0.9455
N1_2 N 0.5372 0.5899 0.9717
C2_2 C 0.3291 0.4322 0.8241
C3_2 C 0.2901 0.2975 0.8475
C4_2 C 0.3629 0.3337 0.7999
N2_2 N 0.3617 0.2596 0.7996
N3_2 N 0.2888 0.2233 0.8474
C5_2 C 0.3274 0.3536 0.8239
C6_2 C 0.3249 0.2023 0.8235
C7_2 C 0.4104 0.5896 0.9040
C8_2 C 0.4365 0.5635 0.9320
C9_2 C 0.4867 0.5133 0.9857
O5 O 0.4640(10) 0.7320(5) 0.7961(8)
O6_2 O 0.3972(6) 0.6028(6) 0.8482(10)
O7 O 0.3333 0.6667 0.875(4)
C12_2 C 0.3629 0.0292 0.7999
N4_2 N 0.3617 0.1021 0.7996
N5_2 N 0.2888 0.0655 0.8474
C14_2 C 0.3249 0.1226 0.8235
O13_2 O 0.3392 0.5394 0.8928
C20_2 C 0.3857 0.4874 0.9455
N8_2 N 0.4101 0.4628 0.9717
Zr4 Zr 0.3922(6) 0.7844(8) 0.7898(9)
O14 O 0.3392 0.7998 0.8928
C21_2 C 0.3857 0.8983 0.9455
N9_2 N 0.4101 0.9473 0.9717
C22_2 C 0.4104 0.8208 0.9040
C23_2 C 0.4365 0.8730 0.9320
C24_2 C 0.4867 0.9734 0.9857
O17 O 0.3972(6) 0.7944(8) 0.8482(10)
O20_2 O 0.4606 0.7998 0.8928
C30_2 C 0.5126 0.8983 0.9455
N12_2 N 0.5372 0.9473 0.9717
C43 C 0.9708 0.6371 0.7999
N17 N 0.8979 0.6383 0.7996
N18 N 0.9345 0.7112 0.8474
C45 C 0.8774 0.6751 0.8235
O31 O 0.5560 0.7111 0.8452
O32 O 0.5162 0.6292 0.8030
C46 C 0.5678 0.6709 0.8241
C47 C 0.7025 0.7099 0.8475
C48 C 0.6663 0.6371 0.7999
N19 N 0.7404 0.6383 0.7996
N20 N 0.7767 0.7112 0.8474
C49 C 0.6464 0.6726 0.8239
C50 C 0.7977 0.6751 0.8235
O42 O 0.2002 0.6608 0.8928
C61_2 C 0.1017 0.6143 0.9455
N25_2 N 0.0527 0.5899 0.9717
C62_2 C 0.1792 0.5896 0.9040
C63_2 C 0.1270 0.5635 0.9320
C64_2 C 0.0266 0.5133 0.9857
O45_2 O 0.2002 0.5394 0.8928
C70_2 C 0.1017 0.4874 0.9455
N28_2 N 0.0527 0.4628 0.9717
O46 O 0.5560 0.8449 0.8452
O47 O 0.5162 0.8870 0.8030
C71 C 0.5678 0.8969 0.8241
C72 C 0.7025 0.9926 0.8475
C74 C 0.6464 0.9738 0.8239
O64 O 0.2889 0.8449 0.8452
O67 O 0.3708 0.8870 0.8030
H2_2 H 0.261733 0.311952 0.866177
H3_2 H 0.391738 0.37661 0.781282
H4_2 H 0.391738 0.0151277 0.781282
H6_2 H 0.553278 0.673653 0.935493
H8_2 H 0.326347 0.446722 0.935493
H10_2 H 0.553278 0.879625 0.935493
H13 H 0.984872 0.608262 0.781282
H14_2 H 0.326347 0.879625 0.935493
H19_2 H 0.120375 0.446722 0.935493
H20 H 0.688048 0.738267 0.866177
H21 H 0.62339 0.608262 0.781282
H23 H 0.688048 0.949781 0.866177
H28_2 H 0.120375 0.673653 0.935493
C10_2 C 0.3291 0.8969 0.8241
C11_2 C 0.2901 0.9926 0.8475
C13_2 C 0.3274 0.9738 0.8239
H1_2 H 0.261733 0.949781 0.866177
O40_2 O 0.8449 0.2889 0.1548
O41_2 O 0.8870 0.3708 0.1970
C56_4 C 0.8969 0.3291 0.1759
C57_4 C 0.9926 0.2901 0.1525
C59_4 C 0.9738 0.3274 0.1761
C65_2 C 0.8983 0.5126 0.0545
N26_2 N 0.9473 0.5372 0.0283
C66_2 C 0.8208 0.4104 0.0960
C67_2 C 0.8730 0.4365 0.0680
C68_2 C 0.9734 0.4867 0.0143
O44_2 O 0.7998 0.3392 0.1072
C69_2 C 0.8983 0.3857 0.0545
N27_2 N 0.9473 0.4101 0.0283
H25_2 H 0.879625 0.553278 0.0645072
H26_2 H 0.879625 0.326347 0.0645072
H29_4 H 0.949781 0.261733 0.133823
O36_4 O 0.7111 0.1551 0.1548
O37_5 O 0.6292 0.1130 0.1970
C51_5 C 0.6709 0.1031 0.1759
C52_5 C 0.7099 0.0074 0.1525
C54_5 C 0.6726 0.0262 0.1761
O65_4 O 0.4838 0.1130 0.1970
O80_4 O 0.7320(11) 0.2680(15) 0.2039(8)
H22_5 H 0.738267 0.0502194 0.133823
C53_5 C 0.6371 0.9708 0.2001
N21_5 N 0.6383 0.8979 0.2004
N22_5 N 0.7112 0.9345 0.1526
C55_5 C 0.6751 0.8774 0.1765
C56_5 C 0.6709 0.5678 0.1759
C57_5 C 0.7099 0.7025 0.1525
C58_5 C 0.6371 0.6663 0.2001
N23_5 N 0.6383 0.7404 0.2004
N24_5 N 0.7112 0.7767 0.1526
C59_5 C 0.6726 0.6464 0.1761
C60_5 C 0.6751 0.7977 0.1765
H24_5 H 0.608262 0.62339 0.218718
H29_5 H 0.738267 0.688048 0.133823
H30_5 H 0.608262 0.984872 0.218718
C56_6 C 0.4322 0.1031 0.1759
C57_6 C 0.2975 0.0074 0.1525
C59_6 C 0.3536 0.0262 0.1761
H29_6 H 0.311952 0.0502194 0.133823
C53_6 C 0.0292 0.6663 0.2001
N21_6 N 0.1021 0.7404 0.2004
N22_6 N 0.0655 0.7767 0.1526
C55_6 C 0.1226 0.7977 0.1765
C58_6 C 0.3337 0.9708 0.2001
N23_6 N 0.2596 0.8979 0.2004
N24_6 N 0.2233 0.9345 0.1526
C60_6 C 0.2023 0.8774 0.1765
H24_6 H 0.37661 0.984872 0.218718
H30_6 H 0.0151277 0.62339 0.218718
O37_6 O 0.8870 0.5162 0.1970
C51_6 C 0.8969 0.5678 0.1759
C52_6 C 0.9926 0.7025 0.1525
C54_6 C 0.9738 0.6464 0.1761
H22_6 H 0.949781 0.688048 0.133823
loop_
_geom_bond_atom_site_label_1
_geom_bond_atom_site_label_2
_geom_bond_site_symmetry_1
_geom_bond_site_symmetry_2
O40 C56 1_555 1_555
O41 C56 1_555 1_555
C56 C59 1_555 1_555
C59 C57 1_555 1_555
O43 C66 1_555 1_555
C65 N26 1_555 1_555
N26 C68 1_555 1_555
C66 C67 1_555 1_555
C67 C65 1_555 1_555
C68 N27 1_555 1_555
O44 C66 1_555 1_555
C69 C67 1_555 1_555
N27 C69 1_555 1_555
C83 N33 1_555 1_555
N33 C85 1_555 1_555
N34 C85 1_555 1_555
C85 C90 1_555 1_555
O52 C86 1_555 1_555
O53 C86 1_555 1_555
C86 C89 1_555 1_555
C87 N36 1_555 1_555
C88 N35 1_555 1_555
N35 C90 1_555 1_555
N36 C90 1_555 1_555
C89 C87 1_555 1_555
Zr14 O52 1_555 1_555
Zr19 O43 1_555 1_555
Zr21 O40 1_555 1_555
Zr24 O53 1_555 1_555
Zr28 O41 1_555 1_555
O44 Zr21 1_555 1_555
C88 C89 1_555 1_555
C65 H25 1_555 1_555
C69 H26 1_555 1_555
C57 H29 1_555 1_555
C83 H32 1_555 1_555
C88 H33 1_555 1_555
C87 H35 1_555 1_555
O9 C10 1_555 1_555
O10 C10 1_555 1_555
C10 C13 1_555 1_555
C13 C11 1_555 1_555
Zr5 O10 1_555 1_555
O21 C31 1_555 1_555
O22 Zr5 1_555 1_555
C31 O22 1_555 1_555
C34 C31 1_555 1_555
O23 Zr5 1_555 1_555
O24 Zr5 1_555 1_555
Zr11 O9 1_555 1_555
O54 Zr11 1_555 1_555
O56 Zr5 1_555 1_555
O57 Zr5 1_555 1_555
O58 Zr5 1_555 1_555
Zr14 O21 1_555 1_555
Zr18 O54 1_555 1_555
Zr24 O57 1_555 1_555
Zr26 O56 1_555 1_555
Zr33 O23 1_555 1_555
O59 Zr11 1_555 1_555
O68 Zr11 1_555 1_555
O71 Zr11 1_555 1_555
O77 Zr5 1_555 1_555
O81 Zr11 1_555 1_555
C32 C34 1_555 1_555
O24 Zr11 1_555 1_555
O24 Zr14 1_555 1_555
O54 Zr14 1_555 1_555
O58 Zr24 1_555 1_555
O58 Zr26 1_555 1_555
Zr18 O81 1_555 1_555
Zr26 O81 1_555 1_555
Zr33 O77 1_555 1_555
C11 H1 1_555 1_555
C32 H16 1_555 1_555
Zr14 O3 1_555 1_555
Zr24 O2 1_555 1_555
O1 C2 1_555 1_555
O2 C2 1_555 1_555
O3 C7 1_555 1_555
C1 N1 1_555 1_555
N1 C9 1_555 1_555
C2 C5 1_555 1_555
C3 N3 1_555 1_555
C4 N2 1_555 1_555
N2 C6 1_555 1_555
N3 C6 1_555 1_555
C5 C3 1_555 1_555
C6 C14 1_555 1_555
C7 C8 1_555 1_555
C8 C1 1_555 1_555
C9 C18 1_555 1_555
O4 Zr24 1_555 1_555
O6 Zr14 1_555 1_555
C12 N4 1_555 1_555
N4 C14 1_555 1_555
N5 C14 1_555 1_555
O11 C16 1_555 1_555
C15 N6 1_555 1_555
N6 C18 1_555 1_555
C16 C17 1_555 1_555
C17 C15 1_555 1_555
C18 N7 1_555 1_555
O12 C16 1_555 1_555
C19 C17 1_555 1_555
N7 C19 1_555 1_555
O13 C7 1_555 1_555
C20 C8 1_555 1_555
N8 C9 1_555 1_555
C21 N9 1_555 1_555
N9 C24 1_555 1_555
C22 O68 1_555 1_555
C23 C21 1_555 1_555
O20 Zr14 1_555 1_555
C30 C23 1_555 1_555
N12 C24 1_555 1_555
C33 N13 1_555 1_555
N13 C35 1_555 1_555
N14 C35 1_555 1_555
C35 C40 1_555 1_555
C38 N15 1_555 1_555
N15 C40 1_555 1_555
N16 C40 1_555 1_555
Zr18 O1 1_555 1_555
O33 Zr26 1_555 1_555
O34 Zr24 1_555 1_555
Zr19 O11 1_555 1_555
Zr10 O37 1_555 1_555
O36 C51 1_555 1_555
O37 C51 1_555 1_555
C51 C54 1_555 1_555
C52 N22 1_555 1_555
C53 N21 1_555 1_555
N21 C55 1_555 1_555
N22 C55 1_555 1_555
C54 C52 1_555 1_555
C55 C60 1_555 1_555
O38 Zr10 1_555 1_555
O39 Zr19 1_555 1_555
C58 N23 1_555 1_555
N23 C60 1_555 1_555
N24 C60 1_555 1_555
C61 N25 1_555 1_555
N25 C64 1_555 1_555
C62 O71 1_555 1_555
C63 C61 1_555 1_555
O45 Zr18 1_555 1_555
C70 C63 1_555 1_555
N28 C64 1_555 1_555
O51 Zr26 1_555 1_555
C81 O59 1_555 1_555
C84 C81 1_555 1_555
O55 Zr24 1_555 1_555
Zr12 O12 1_555 1_555
Zr28 O38 1_555 1_555
Zr29 O4 1_555 1_555
Zr31 O33 1_555 1_555
O60 Zr19 1_555 1_555
O61 Zr19 1_555 1_555
O62 Zr12 1_555 1_555
O63 Zr18 1_555 1_555
O65 Zr10 1_555 1_555
O66 Zr26 1_555 1_555
O69 Zr12 1_555 1_555
O72 Zr10 1_555 1_555
O73 Zr10 1_555 1_555
O75 Zr26 1_555 1_555
O80 Zr10 1_555 1_555
O82 Zr19 1_555 1_555
O83 Zr12 1_555 1_555
O84 Zr19 1_555 1_555
O86 Zr10 1_555 1_555
Zr24 O6 1_555 1_555
C4 C5 1_555 1_555
O6 Zr18 1_555 1_555
O13 Zr18 1_555 1_555
C20 N8 1_555 1_555
C22 C23 1_555 1_555
C22 O20 1_555 1_555
C30 N12 1_555 1_555
Zr26 O34 1_555 1_555
Zr10 O39 1_555 1_555
O36 Zr12 1_555 1_555
C53 C54 1_555 1_555
O39 Zr12 1_555 1_555
C62 C63 1_555 1_555
C62 O45 1_555 1_555
C70 N28 1_555 1_555
O51 C81 1_555 1_555
C82 C84 1_555 1_555
O55 Zr29 1_555 1_555
Zr12 O84 1_555 1_555
Zr28 O82 1_555 1_555
Zr28 O86 1_555 1_555
Zr31 O75 1_555 1_555
C3 H2 1_555 1_555
C4 H3 1_555 1_555
C12 H4 1_555 1_555
C15 H5 1_555 1_555
C1 H6 1_555 1_555
C20 H8 1_555 1_555
C30 H10 1_555 1_555
C38 H12 1_555 1_555
C21 H14 1_555 1_555
C33 H15 1_555 1_555
C19 H17 1_555 1_555
C70 H19 1_555 1_555
C52 H22 1_555 1_555
C58 H24 1_555 1_555
C61 H28 1_555 1_555
C53 H30 1_555 1_555
C82 H36 1_555 1_555
O69 C26 1_555 1_555
C25 N10 1_555 1_555
N10 C28 1_555 1_555
C26 C27 1_555 1_555
C27 C25 1_555 1_555
C28 N11 1_555 1_555
O19 C26 1_555 1_555
C29 C27 1_555 1_555
N11 C29 1_555 1_555
Zr21 O19 1_555 1_555
C25 H7 1_555 1_555
C29 H18 1_555 1_555
O63 C36 1_555 1_555
O66 C36 1_555 1_555
C36 C39 1_555 1_555
C39 C37 1_555 1_555
C37 H11 1_555 1_555
C53_2 N21_2 1_555 1_555
N21_2 C55_2 1_555 1_555
N22_2 C55_2 1_555 1_555
C55_2 C60_2 1_555 1_555
O61 C56_2 1_555 1_555
O65 C56_2 1_555 1_555
C56_2 C59_2 1_555 1_555
C57_2 N24_2 1_555 1_555
C58_2 N23_2 1_555 1_555
N23_2 C60_2 1_555 1_555
N24_2 C60_2 1_555 1_555
C59_2 C57_2 1_555 1_555
C58_2 C59_2 1_555 1_555
C58_2 H24_2 1_555 1_555
C57_2 H29_2 1_555 1_555
C53_2 H30_2 1_555 1_555
Zr10_2 O37_2 1_555 1_555
O36_2 C51_2 1_555 1_555
O37_2 C51_2 1_555 1_555
C51_2 C54_2 1_555 1_555
C54_2 C52_2 1_555 1_555
O80 Zr10_2 1_555 1_555
O65_2 Zr10_2 1_555 1_555
O72_2 Zr10_2 1_555 1_555
O73_2 Zr10_2 1_555 1_555
O80_2 Zr10_2 1_555 1_555
O82 Zr21 1_555 1_555
O86 Zr10_2 1_555 1_555
Zr10_2 O83 1_555 1_555
O36_2 Zr21 1_555 1_555
O83 Zr21 1_555 1_555
Zr21 O84 1_555 1_555
C52_2 H22_2 1_555 1_555
Zr28 O37_3 1_555 1_555
O60 C51_3 1_555 1_555
O37_3 C51_3 1_555 1_555
C51_3 C54_3 1_555 1_555
C54_3 C52_3 1_555 1_555
O80_2 Zr28 1_555 1_555
O72_3 Zr28 1_555 1_555
O73_3 Zr28 1_555 1_555
C52_3 H22_3 1_555 1_555
C53_3 N21_3 1_555 1_555
N21_3 C55_3 1_555 1_555
N22_3 C55_3 1_555 1_555
C55_3 C60_3 1_555 1_555
C58_3 N23_3 1_555 1_555
N23_3 C60_3 1_555 1_555
N24_3 C60_3 1_555 1_555
C58_3 H24_3 1_555 1_555
C53_3 H30_3 1_555 1_555
O62 C56_3 1_555 1_555
O65_2 C56_3 1_555 1_555
C56_3 C59_3 1_555 1_555
C59_3 C57_3 1_555 1_555
C57_3 H29_3 1_555 1_555
O48 C76 1_555 1_555
O49 C76 1_555 1_555
C76 C79 1_555 1_555
C79 C77 1_555 1_555
Zr16 O48 1_555 1_555
Zr25 O49 1_555 1_555
C77 H34 1_555 1_555
O27 C41 1_555 1_555
O28 Zr25 1_555 1_555
C41 O28 1_555 1_555
C44 C41 1_555 1_555
O72_3 Zr25 1_555 1_555
O30 Zr25 1_555 1_555
Zr15 O27 1_555 1_555
O73_3 Zr25 1_555 1_555
O78 Zr25 1_555 1_555
O79 Zr25 1_555 1_555
O85 Zr25 1_555 1_555
C42 C44 1_555 1_555
O30 Zr15 1_555 1_555
O30 Zr16 1_555 1_555
C42 H9 1_555 1_555
O18 C26_2 1_555 1_555
C25_2 N10_2 1_555 1_555
N10_2 C28_2 1_555 1_555
C26_2 C27_2 1_555 1_555
C27_2 C25_2 1_555 1_555
C28_2 N11_2 1_555 1_555
O19_2 C26_2 1_555 1_555
C29_2 C27_2 1_555 1_555
N11_2 C29_2 1_555 1_555
Zr20 O19_2 1_555 1_555
Zr22 O18 1_555 1_555
C25_2 H7_2 1_555 1_555
C29_2 H18_2 1_555 1_555
C73 N29 1_555 1_555
N29 C75 1_555 1_555
N30 C75 1_555 1_555
C75 C80 1_555 1_555
C78 N31 1_555 1_555
N31 C80 1_555 1_555
N32 C80 1_555 1_555
C73 H27 1_555 1_555
C78 H31 1_555 1_555
O11_2 C16_2 1_555 1_555
C15_2 N6_2 1_555 1_555
N6_2 C18_2 1_555 1_555
C16_2 C17_2 1_555 1_555
C17_2 C15_2 1_555 1_555
C18_2 N7_2 1_555 1_555
O12_2 C16_2 1_555 1_555
C19_2 C17_2 1_555 1_555
N7_2 C19_2 1_555 1_555
Zr9 O11_2 1_555 1_555
Zr29 O37_4 1_555 1_555
O36_3 C51_4 1_555 1_555
O37_4 C51_4 1_555 1_555
C51_4 C54_4 1_555 1_555
C52_4 N22_4 1_555 1_555
C53_4 N21_4 1_555 1_555
N21_4 C55_4 1_555 1_555
N22_4 C55_4 1_555 1_555
C54_4 C52_4 1_555 1_555
C55_4 C60_4 1_555 1_555
O38_2 Zr29 1_555 1_555
O39_2 Zr9 1_555 1_555
C58_4 N23_4 1_555 1_555
N23_4 C60_4 1_555 1_555
N24_4 C60_4 1_555 1_555
Zr22 O12_2 1_555 1_555
Zr31 O38_2 1_555 1_555
O60_2 Zr9 1_555 1_555
O61_2 Zr9 1_555 1_555
O62_2 Zr22 1_555 1_555
O65_3 Zr29 1_555 1_555
O70 Zr9 1_555 1_555
O80_3 Zr29 1_555 1_555
O82_2 Zr9 1_555 1_555
O83_2 Zr22 1_555 1_555
O84_2 Zr9 1_555 1_555
O86_2 Zr29 1_555 1_555
Zr29 O39_2 1_555 1_555
O36_3 Zr22 1_555 1_555
C53_4 C54_4 1_555 1_555
O39_2 Zr22 1_555 1_555
Zr22 O84_2 1_555 1_555
Zr31 O82_2 1_555 1_555
Zr31 O86_2 1_555 1_555
C15_2 H5_2 1_555 1_555
C19_2 H17_2 1_555 1_555
C52_4 H22_4 1_555 1_555
C58_4 H24_4 1_555 1_555
C53_4 H30_4 1_555 1_555
Zr1 O3_2 1_555 1_555
Zr2 O2_2 1_555 1_555
O1_2 C2_2 1_555 1_555
O2_2 C2_2 1_555 1_555
O3_2 C7_2 1_555 1_555
C1_2 N1_2 1_555 1_555
N1_2 C9_2 1_555 1_555
C2_2 C5_2 1_555 1_555
C3_2 N3_2 1_555 1_555
C4_2 N2_2 1_555 1_555
N2_2 C6_2 1_555 1_555
N3_2 C6_2 1_555 1_555
C5_2 C3_2 1_555 1_555
C6_2 C14_2 1_555 1_555
C7_2 C8_2 1_555 1_555
C8_2 C1_2 1_555 1_555
O72 Zr2 1_555 1_555
O5 Zr2 1_555 1_555
O6_2 Zr1 1_555 1_555
O7 Zr1 1_555 1_555
O85 Zr2 1_555 1_555
C12_2 N4_2 1_555 1_555
N4_2 C14_2 1_555 1_555
N5_2 C14_2 1_555 1_555
O13_2 C7_2 1_555 1_555
C20_2 C8_2 1_555 1_555
N8_2 C9_2 1_555 1_555
Zr15 O7 1_555 1_555
Zr4 O5 1_555 1_555
O14 Zr15 1_555 1_555
C21_2 N9_2 1_555 1_555
N9_2 C24_2 1_555 1_555
C22_2 O14 1_555 1_555
C23_2 C21_2 1_555 1_555
O72_2 Zr4 1_555 1_555
O78 Zr4 1_555 1_555
O17 Zr1 1_555 1_555
O20_2 Zr1 1_555 1_555
C30_2 C23_2 1_555 1_555
N12_2 C24_2 1_555 1_555
C43 N17 1_555 1_555
N17 C45 1_555 1_555
N18 C45 1_555 1_555
C45 C50 1_555 1_555
O31 Zr1 1_555 1_555
O32 Zr2 1_555 1_555
C46 O31 1_555 1_555
C47 N20 1_555 1_555
C48 N19 1_555 1_555
N19 C50 1_555 1_555
N20 C50 1_555 1_555
C49 C46 1_555 1_555
Zr16 O1_2 1_555 1_555
O79 Zr2 1_555 1_555
O42 Zr15 1_555 1_555
C61_2 N25_2 1_555 1_555
N25_2 C64_2 1_555 1_555
C62_2 O42 1_555 1_555
C63_2 C61_2 1_555 1_555
O45_2 Zr16 1_555 1_555
C70_2 C63_2 1_555 1_555
N28_2 C64_2 1_555 1_555
O46 Zr1 1_555 1_555
O47 Zr4 1_555 1_555
C71 O46 1_555 1_555
C74 C71 1_555 1_555
O73 Zr2 1_555 1_555
O64 Zr15 1_555 1_555
O67 Zr4 1_555 1_555
O73_2 Zr4 1_555 1_555
Zr2 O6_2 1_555 1_555
C4_2 C5_2 1_555 1_555
O6_2 Zr16 1_555 1_555
O7 Zr16 1_555 1_555
O85 Zr4 1_555 1_555
O13_2 Zr16 1_555 1_555
C20_2 N8_2 1_555 1_555
Zr15 O17 1_555 1_555
Zr4 O17 1_555 1_555
C22_2 C23_2 1_555 1_555
C22_2 O20_2 1_555 1_555
C30_2 N12_2 1_555 1_555
O32 C46 1_555 1_555
C47 C49 1_555 1_555
C48 C49 1_555 1_555
C62_2 C63_2 1_555 1_555
C62_2 O45_2 1_555 1_555
C70_2 N28_2 1_555 1_555
O47 C71 1_555 1_555
C72 C74 1_555 1_555
C3_2 H2_2 1_555 1_555
C4_2 H3_2 1_555 1_555
C12_2 H4_2 1_555 1_555
C1_2 H6_2 1_555 1_555
C20_2 H8_2 1_555 1_555
C30_2 H10_2 1_555 1_555
C43 H13 1_555 1_555
C21_2 H14_2 1_555 1_555
C70_2 H19_2 1_555 1_555
C47 H20 1_555 1_555
C48 H21 1_555 1_555
C72 H23 1_555 1_555
C61_2 H28_2 1_555 1_555
O64 C10_2 1_555 1_555
O67 C10_2 1_555 1_555
C10_2 C13_2 1_555 1_555
C13_2 C11_2 1_555 1_555
C11_2 H1_2 1_555 1_555
O40_2 C56_4 1_555 1_555
O41_2 C56_4 1_555 1_555
C56_4 C59_4 1_555 1_555
C59_4 C57_4 1_555 1_555
O70 C66_2 1_555 1_555
C65_2 N26_2 1_555 1_555
N26_2 C68_2 1_555 1_555
C66_2 C67_2 1_555 1_555
C67_2 C65_2 1_555 1_555
C68_2 N27_2 1_555 1_555
O44_2 C66_2 1_555 1_555
C69_2 C67_2 1_555 1_555
N27_2 C69_2 1_555 1_555
Zr20 O40_2 1_555 1_555
Zr31 O41_2 1_555 1_555
O44_2 Zr20 1_555 1_555
C65_2 H25_2 1_555 1_555
C69_2 H26_2 1_555 1_555
C57_4 H29_4 1_555 1_555
Zr33 O37_5 1_555 1_555
O36_4 C51_5 1_555 1_555
O37_5 C51_5 1_555 1_555
C51_5 C54_5 1_555 1_555
C54_5 C52_5 1_555 1_555
O80_3 Zr33 1_555 1_555
O65_4 Zr33 1_555 1_555
O80_4 Zr33 1_555 1_555
O82_2 Zr20 1_555 1_555
O86_2 Zr33 1_555 1_555
Zr33 O83_2 1_555 1_555
O36_4 Zr20 1_555 1_555
O83_2 Zr20 1_555 1_555
Zr20 O84_2 1_555 1_555
C52_5 H22_5 1_555 1_555
C53_5 N21_5 1_555 1_555
N21_5 C55_5 1_555 1_555
N22_5 C55_5 1_555 1_555
C55_5 C60_5 1_555 1_555
O61_2 C56_5 1_555 1_555
O65_3 C56_5 1_555 1_555
C56_5 C59_5 1_555 1_555
C57_5 N24_5 1_555 1_555
C58_5 N23_5 1_555 1_555
N23_5 C60_5 1_555 1_555
N24_5 C60_5 1_555 1_555
C59_5 C57_5 1_555 1_555
C58_5 C59_5 1_555 1_555
C58_5 H24_5 1_555 1_555
C57_5 H29_5 1_555 1_555
C53_5 H30_5 1_555 1_555
O62_2 C56_6 1_555 1_555
O65_4 C56_6 1_555 1_555
C56_6 C59_6 1_555 1_555
C59_6 C57_6 1_555 1_555
C57_6 H29_6 1_555 1_555
C53_6 N21_6 1_555 1_555
N21_6 C55_6 1_555 1_555
N22_6 C55_6 1_555 1_555
C55_6 C60_6 1_555 1_555
C58_6 N23_6 1_555 1_555
N23_6 C60_6 1_555 1_555
N24_6 C60_6 1_555 1_555
C58_6 H24_6 1_555 1_555
C53_6 H30_6 1_555 1_555
Zr31 O37_6 1_555 1_555
O60_2 C51_6 1_555 1_555
O37_6 C51_6 1_555 1_555
C51_6 C54_6 1_555 1_555
C54_6 C52_6 1_555 1_555
O80_4 Zr31 1_555 1_555
C52_6 H22_6 1_555 1_555

#END
