
###############################################################################
#
# This file contains modified crystal structure data generated from the
# MOF subset of the Cambridge Structural Database (CSD) v543 
# hosted by the Cambridge Crystallographic Data Centre (CCDC).
#
# This work is licensed under the Creative Commons
# Attribution-NonCommercial-ShareAlike 4.0 International License.
# To view a copy of this license, visit
# http://creativecommons.org/licenses/by-nc-sa/4.0/
# or send a letter to
# Creative Commons, PO Box 1866, Mountain View, CA 94042, USA.
#
# CIF created using the CSD Python API on 29 September 2022
# The structure has been converted into the P1 space group
# The structure has a 3D framework
# The original CSD entry PEBJUF is in the cubic crystal system
# The framework has been calculated to contain at least 10.0% void space
# The void calculation uses a probe of radius 1.32A, grid spacing 0.4
#
###############################################################################

data_PEBJUF
_chemical_formula_moiety         '(C96 F96 O109 Zr20)n'
_symmetry_cell_setting           triclinic
_symmetry_space_group_name_H-M   'P 1'
_symmetry_Int_Tables_number      1
_space_group_name_Hall           'P 1'
loop_
_symmetry_equiv_pos_site_id
_symmetry_equiv_pos_as_xyz
1 x,y,z
_cell_length_a                   18.0812(13)
_cell_length_b                   18.0812(13)
_cell_length_c                   18.0812(13)
_cell_angle_alpha                90
_cell_angle_beta                 90
_cell_angle_gamma                90
_cell_volume                     5911.28
loop_
_atom_site_label
_atom_site_type_symbol
_atom_site_fract_x
_atom_site_fract_y
_atom_site_fract_z
_atom_site_U_iso_or_equiv
_atom_site_thermal_displace_type
C3 C 0.2544(10) 0.2071(11) 0.0017(10) 0.1013 Uiso
O4 O 0.118(4) 0.200(5) 0.004(5) 0.1013 Uiso
F4 F 0.263(3) 0.185(2) 0.074(3) 0.1013 Uiso
O5 O 0.069(5) 0.069(5) 0.069(5) 0.0025 Uiso
C7 C 0.2456(10) 0.2929(11) 0.0017(10) 0.1013 Uiso
O10 O 0.382(4) 0.300(5) 0.004(5) 0.1013 Uiso
F8 F 0.237(3) 0.315(2) 0.074(3) 0.1013 Uiso
Zr11 Zr 0.5033(9) 0.3566(3) 0.0043(9) 0.0025 Uiso
O45 O 0.200(5) 0.004(5) 0.118(4) 0.1013 Uiso
Zr1 Zr 0.1434(3) 0.0043(9) 0.9967(9) 0.0025 Uiso
C4 C 0.179(3) 0.170(3) 0.982(3) 0.1013 Uiso
O3 O 0.178(4) 0.109(5) 0.945(5) 0.1013 Uiso
F3 F 0.297(3) 0.184(2) 0.944(3) 0.1013 Uiso
O6 O 0.056(5) 0.071(4) 0.945(5) 0.0025 Uiso
C8 C 0.321(3) 0.330(3) 0.982(3) 0.1013 Uiso
O9 O 0.322(4) 0.391(5) 0.945(5) 0.1013 Uiso
F7 F 0.203(3) 0.316(2) 0.944(3) 0.1013 Uiso
C10 C 0.343(3) 0.003(4) 0.700(2) 0.1013 Uiso
O12 O 0.413(5) 0.007(9) 0.712(3) 0.1013 Uiso
O13 O 0.318(4) 0.002(7) 0.633(4) 0.1013 Uiso
F10 F 0.305(3) 0.064(4) 0.800(3) 0.1013 Uiso
C14 C 0.157(3) 0.003(4) 0.800(2) 0.1013 Uiso
O18 O 0.087(5) 0.007(9) 0.788(3) 0.1013 Uiso
O19 O 0.182(4) 0.002(7) 0.867(4) 0.1013 Uiso
F14 F 0.195(3) 0.064(4) 0.700(3) 0.1013 Uiso
Zr8 Zr 0.3566(3) 0.4957(9) 0.9967(9) 0.0025 Uiso
Zr9 Zr 0.3566(3) 0.0043(9) 0.5033(9) 0.0025 Uiso
Zr17 Zr 0.5043(9) 0.0033(9) 0.6434(3) 0.0025 Uiso
C1 C 0.2355(8) 0.7105(11) 0.0010(17) 0.1013 Uiso
F1 F 0.209(3) 0.695(3) 0.070(4) 0.1013 Uiso
C5 C 0.2645(8) 0.7895(11) 0.0010(17) 0.1013 Uiso
F5 F 0.291(3) 0.805(3) 0.070(4) 0.1013 Uiso
Zr15 Zr 0.0043(9) 0.9967(9) 0.1434(3) 0.0025 Uiso
O34 O 0.007(9) 0.788(3) 0.087(5) 0.1013 Uiso
O42 O 0.300(5) 0.496(5) 0.118(4) 0.1013 Uiso
O48 O 0.431(5) 0.431(5) 0.069(5) 0.0025 Uiso
O50 O 0.429(4) 0.555(5) 0.056(5) 0.0025 Uiso
O53 O 0.071(4) 0.945(5) 0.056(5) 0.0025 Uiso
C2 C 0.300(2) 0.657(3) 0.997(4) 0.1013 Uiso
O1 O 0.288(3) 0.587(5) 0.993(9) 0.1013 Uiso
O2 O 0.367(4) 0.682(4) 0.998(7) 0.1013 Uiso
F2 F 0.200(3) 0.695(3) 0.936(4) 0.1013 Uiso
C6 C 0.200(2) 0.843(3) 0.997(4) 0.1013 Uiso
O7 O 0.212(3) 0.913(5) 0.993(9) 0.1013 Uiso
O8 O 0.133(4) 0.818(4) 0.998(7) 0.1013 Uiso
F6 F 0.300(3) 0.805(3) 0.936(4) 0.1013 Uiso
O11 O 0.444(5) 0.429(4) 0.945(5) 0.0025 Uiso
C9 C 0.2895(11) 0.9990(17) 0.7645(8) 0.1013 Uiso
F9 F 0.305(3) 0.930(4) 0.791(3) 0.1013 Uiso
C13 C 0.2105(11) 0.9990(17) 0.7355(8) 0.1013 Uiso
F13 F 0.195(3) 0.930(4) 0.709(3) 0.1013 Uiso
C17 C 0.2895(11) 0.5010(17) 0.7355(8) 0.1013 Uiso
C18 C 0.343(3) 0.497(4) 0.800(2) 0.1013 Uiso
O22 O 0.413(5) 0.493(9) 0.788(3) 0.1013 Uiso
O23 O 0.318(4) 0.498(7) 0.867(4) 0.1013 Uiso
F17 F 0.305(3) 0.570(4) 0.709(3) 0.1013 Uiso
F18 F 0.305(3) 0.436(4) 0.700(3) 0.1013 Uiso
C21 C 0.2105(11) 0.5010(17) 0.7645(8) 0.1013 Uiso
C22 C 0.157(3) 0.497(4) 0.700(2) 0.1013 Uiso
O27 O 0.087(5) 0.493(9) 0.712(3) 0.1013 Uiso
O28 O 0.182(4) 0.498(7) 0.633(4) 0.1013 Uiso
F21 F 0.195(3) 0.570(4) 0.791(3) 0.1013 Uiso
F22 F 0.195(3) 0.436(4) 0.800(3) 0.1013 Uiso
Zr5 Zr 0.0033(9) 0.8566(3) 0.9957(9) 0.0025 Uiso
O31 O 0.055(5) 0.944(5) 0.929(4) 0.0025 Uiso
Zr6 Zr 0.0033(9) 0.6434(3) 0.5043(9) 0.0025 Uiso
O32 O 0.055(5) 0.556(5) 0.571(4) 0.0025 Uiso
Zr14 Zr 0.4967(9) 0.6434(3) 0.9957(9) 0.0025 Uiso
Zr19 Zr 0.5043(9) 0.4967(9) 0.8566(3) 0.0025 Uiso
Zr20 Zr 0.1434(3) 0.4957(9) 0.5033(9) 0.0025 Uiso
O33 O 0.007(9) 0.712(3) 0.413(5) 0.1013 Uiso
O35 O 0.133(4) 0.682(4) 0.502(7) 0.1013 Uiso
O39 O 0.055(5) 0.822(4) 0.891(5) 0.1013 Uiso
O40 O 0.055(5) 0.678(4) 0.609(5) 0.1013 Uiso
O51 O 0.445(5) 0.556(5) 0.929(4) 0.0025 Uiso
O52 O 0.071(4) 0.555(5) 0.444(5) 0.0025 Uiso
O54 O 0.056(5) 0.429(4) 0.555(5) 0.0025 Uiso
Zr13 Zr 0.9967(9) 0.1434(3) 0.0043(9) 0.0025 Uiso
Zr3 Zr 0.9957(9) 0.0033(9) 0.8566(3) 0.0025 Uiso
C12 C 0.830(3) 0.018(3) 0.821(3) 0.1013 Uiso
O14 O 0.891(5) 0.055(5) 0.822(4) 0.1013 Uiso
F11 F 0.816(2) 0.056(3) 0.703(3) 0.1013 Uiso
O17 O 0.929(4) 0.055(5) 0.944(5) 0.0025 Uiso
C16 C 0.670(3) 0.018(3) 0.679(3) 0.1013 Uiso
O20 O 0.609(5) 0.055(5) 0.678(4) 0.1013 Uiso
F15 F 0.684(2) 0.056(3) 0.797(3) 0.1013 Uiso
O36 O 0.998(7) 0.133(4) 0.818(4) 0.1013 Uiso
Zr21 Zr 0.8566(3) 0.9957(9) 0.0033(9) 0.0025 Uiso
Zr23 Zr 0.6434(3) 0.5043(9) 0.0033(9) 0.0025 Uiso
O55 O 0.944(5) 0.929(4) 0.055(5) 0.0025 Uiso
C11 C 0.7929(11) 0.9983(10) 0.7456(10) 0.1013 Uiso
O15 O 0.800(5) 0.996(5) 0.882(4) 0.1013 Uiso
F12 F 0.815(2) 0.926(3) 0.737(3) 0.1013 Uiso
O16 O 0.931(5) 0.931(5) 0.931(5) 0.0025 Uiso
C15 C 0.7071(11) 0.9983(10) 0.7544(10) 0.1013 Uiso
O21 O 0.700(5) 0.996(5) 0.618(4) 0.1013 Uiso
F16 F 0.685(2) 0.926(3) 0.763(3) 0.1013 Uiso
Zr4 Zr 0.9957(9) 0.4967(9) 0.6434(3) 0.0025 Uiso
C19 C 0.7929(11) 0.5017(10) 0.7544(10) 0.1013 Uiso
C20 C 0.830(3) 0.482(3) 0.679(3) 0.1013 Uiso
O24 O 0.891(5) 0.445(5) 0.678(4) 0.1013 Uiso
O25 O 0.800(5) 0.504(5) 0.618(4) 0.1013 Uiso
F19 F 0.816(2) 0.444(3) 0.797(3) 0.1013 Uiso
F20 F 0.815(2) 0.574(3) 0.763(3) 0.1013 Uiso
O26 O 0.929(4) 0.445(5) 0.556(5) 0.0025 Uiso
C23 C 0.7071(11) 0.5017(10) 0.7456(10) 0.1013 Uiso
C24 C 0.670(3) 0.482(3) 0.821(3) 0.1013 Uiso
O29 O 0.609(5) 0.445(5) 0.822(4) 0.1013 Uiso
O30 O 0.700(5) 0.504(5) 0.882(4) 0.1013 Uiso
F23 F 0.684(2) 0.444(3) 0.703(3) 0.1013 Uiso
F24 F 0.685(2) 0.574(3) 0.737(3) 0.1013 Uiso
Zr7 Zr 0.8566(3) 0.5043(9) 0.4967(9) 0.0025 Uiso
Zr12 Zr 0.9967(9) 0.3566(3) 0.4957(9) 0.0025 Uiso
Zr22 Zr 0.6434(3) 0.9957(9) 0.4967(9) 0.0025 Uiso
O37 O 0.998(7) 0.367(4) 0.682(4) 0.1013 Uiso
O41 O 0.882(4) 0.700(5) 0.504(5) 0.1013 Uiso
O43 O 0.996(5) 0.882(4) 0.800(5) 0.1013 Uiso
O44 O 0.996(5) 0.618(4) 0.700(5) 0.1013 Uiso
O46 O 0.882(4) 0.800(5) 0.996(5) 0.1013 Uiso
O47 O 0.931(5) 0.569(5) 0.569(5) 0.0025 Uiso
O49 O 0.944(5) 0.571(4) 0.445(5) 0.0025 Uiso
O26_2 O 0.571(4) 0.055(5) 0.556(5) 0.0025 Uiso
Zr12_2 Zr 0.5033(9) 0.1434(3) 0.4957(9) 0.0025 Uiso
O37_2 O 0.502(7) 0.133(4) 0.682(4) 0.1013 Uiso
O54_2 O 0.444(5) 0.071(4) 0.555(5) 0.0025 Uiso
Zr15_2 Zr 0.4957(9) 0.5033(9) 0.1434(3) 0.0025 Uiso
O34_2 O 0.493(9) 0.712(3) 0.087(5) 0.1013 Uiso
O55_2 O 0.556(5) 0.571(4) 0.055(5) 0.0025 Uiso
O16_2 O 0.569(5) 0.569(5) 0.931(5) 0.0025 Uiso
O17_2 O 0.571(4) 0.445(5) 0.944(5) 0.0025 Uiso
Zr6_2 Zr 0.4967(9) 0.8566(3) 0.5043(9) 0.0025 Uiso
O32_2 O 0.445(5) 0.944(5) 0.571(4) 0.0025 Uiso
O33_2 O 0.493(9) 0.788(3) 0.413(5) 0.1013 Uiso
O35_2 O 0.367(4) 0.818(4) 0.502(7) 0.1013 Uiso
O36_2 O 0.502(7) 0.367(4) 0.818(4) 0.1013 Uiso
O39_2 O 0.445(5) 0.678(4) 0.891(5) 0.1013 Uiso
O40_2 O 0.445(5) 0.822(4) 0.609(5) 0.1013 Uiso
O41_2 O 0.618(4) 0.800(5) 0.504(5) 0.1013 Uiso
O43_2 O 0.504(5) 0.618(4) 0.800(5) 0.1013 Uiso
O44_2 O 0.504(5) 0.882(4) 0.700(5) 0.1013 Uiso
O46_2 O 0.618(4) 0.700(5) 0.996(5) 0.1013 Uiso
O47_2 O 0.569(5) 0.931(5) 0.569(5) 0.0025 Uiso
O49_2 O 0.556(5) 0.929(4) 0.445(5) 0.0025 Uiso
O52_2 O 0.429(4) 0.945(5) 0.444(5) 0.0025 Uiso
C3_2 C 0.2456(10) 0.2071(11) 0.4983(10) 0.1013 Uiso
C4_2 C 0.321(3) 0.170(3) 0.518(3) 0.1013 Uiso
O3_2 O 0.322(4) 0.109(5) 0.555(5) 0.1013 Uiso
O4_2 O 0.382(4) 0.200(5) 0.496(5) 0.1013 Uiso
F3_2 F 0.203(3) 0.184(2) 0.556(3) 0.1013 Uiso
F4_2 F 0.237(3) 0.185(2) 0.426(3) 0.1013 Uiso
O5_2 O 0.431(5) 0.069(5) 0.431(5) 0.0025 Uiso
C7_2 C 0.2544(10) 0.2929(11) 0.4983(10) 0.1013 Uiso
C8_2 C 0.179(3) 0.330(3) 0.518(3) 0.1013 Uiso
O9_2 O 0.178(4) 0.391(5) 0.555(5) 0.1013 Uiso
O10_2 O 0.118(4) 0.300(5) 0.496(5) 0.1013 Uiso
F7_2 F 0.297(3) 0.316(2) 0.556(3) 0.1013 Uiso
F8_2 F 0.263(3) 0.315(2) 0.426(3) 0.1013 Uiso
O45_2 O 0.300(5) 0.004(5) 0.382(4) 0.1013 Uiso
C1_2 C 0.2645(8) 0.7105(11) 0.4990(17) 0.1013 Uiso
C2_2 C 0.200(2) 0.657(3) 0.503(4) 0.1013 Uiso
O1_2 O 0.212(3) 0.587(5) 0.507(9) 0.1013 Uiso
F1_2 F 0.291(3) 0.695(3) 0.430(4) 0.1013 Uiso
F2_2 F 0.300(3) 0.695(3) 0.564(4) 0.1013 Uiso
C5_2 C 0.2355(8) 0.7895(11) 0.4990(17) 0.1013 Uiso
C6_2 C 0.300(2) 0.843(3) 0.503(4) 0.1013 Uiso
O7_2 O 0.288(3) 0.913(5) 0.507(9) 0.1013 Uiso
F5_2 F 0.209(3) 0.805(3) 0.430(4) 0.1013 Uiso
F6_2 F 0.200(3) 0.805(3) 0.564(4) 0.1013 Uiso
Zr15_3 Zr 0.4957(9) 0.9967(9) 0.3566(3) 0.0025 Uiso
O42_2 O 0.200(5) 0.496(5) 0.382(4) 0.1013 Uiso
O48_2 O 0.069(5) 0.431(5) 0.431(5) 0.0025 Uiso
Zr2 Zr 0.0043(9) 0.5033(9) 0.3566(3) 0.0025 Uiso
C18_2 C 0.003(4) 0.700(2) 0.343(3) 0.1013 Uiso
O23_2 O 0.002(7) 0.633(4) 0.318(4) 0.1013 Uiso
F18_2 F 0.064(4) 0.800(3) 0.305(3) 0.1013 Uiso
C22_2 C 0.003(4) 0.800(2) 0.157(3) 0.1013 Uiso
O28_2 O 0.002(7) 0.867(4) 0.182(4) 0.1013 Uiso
F22_2 F 0.064(4) 0.700(3) 0.195(3) 0.1013 Uiso
O38 O 0.109(5) 0.555(5) 0.322(4) 0.1013 Uiso
O42_3 O 0.004(5) 0.382(4) 0.300(5) 0.1013 Uiso
C20_2 C 0.018(3) 0.821(3) 0.830(3) 0.1013 Uiso
F19_2 F 0.056(3) 0.703(3) 0.816(2) 0.1013 Uiso
C24_2 C 0.018(3) 0.679(3) 0.670(3) 0.1013 Uiso
F23_2 F 0.056(3) 0.797(3) 0.684(2) 0.1013 Uiso
O33_3 O 0.788(3) 0.087(5) 0.007(9) 0.1013 Uiso
O52_3 O 0.945(5) 0.056(5) 0.071(4) 0.0025 Uiso
C1_3 C 0.7895(11) 0.4990(17) 0.2355(8) 0.1013 Uiso
C2_3 C 0.843(3) 0.503(4) 0.300(2) 0.1013 Uiso
O1_3 O 0.913(5) 0.507(9) 0.288(3) 0.1013 Uiso
O2_2 O 0.818(4) 0.502(7) 0.367(4) 0.1013 Uiso
F1_3 F 0.805(3) 0.430(4) 0.209(3) 0.1013 Uiso
F2_3 F 0.805(3) 0.564(4) 0.200(3) 0.1013 Uiso
C3_3 C 0.2929(11) 0.4983(10) 0.2544(10) 0.1013 Uiso
C4_3 C 0.330(3) 0.518(3) 0.179(3) 0.1013 Uiso
O3_3 O 0.391(5) 0.555(5) 0.178(4) 0.1013 Uiso
F3_3 F 0.316(2) 0.556(3) 0.297(3) 0.1013 Uiso
F4_3 F 0.315(2) 0.426(3) 0.263(3) 0.1013 Uiso
C5_3 C 0.7105(11) 0.4990(17) 0.2645(8) 0.1013 Uiso
C6_3 C 0.657(3) 0.503(4) 0.200(2) 0.1013 Uiso
O7_3 O 0.587(5) 0.507(9) 0.212(3) 0.1013 Uiso
O8_2 O 0.682(4) 0.502(7) 0.133(4) 0.1013 Uiso
F5_3 F 0.695(3) 0.430(4) 0.291(3) 0.1013 Uiso
F6_3 F 0.695(3) 0.564(4) 0.300(3) 0.1013 Uiso
C7_3 C 0.2071(11) 0.4983(10) 0.2456(10) 0.1013 Uiso
C8_3 C 0.170(3) 0.518(3) 0.321(3) 0.1013 Uiso
F7_3 F 0.184(2) 0.556(3) 0.203(3) 0.1013 Uiso
F8_3 F 0.185(2) 0.426(3) 0.237(3) 0.1013 Uiso
C9_2 C 0.5010(17) 0.7355(8) 0.2895(11) 0.1013 Uiso
C10_2 C 0.497(4) 0.800(2) 0.343(3) 0.1013 Uiso
O13_2 O 0.498(7) 0.867(4) 0.318(4) 0.1013 Uiso
F9_2 F 0.570(4) 0.709(3) 0.305(3) 0.1013 Uiso
F10_2 F 0.436(4) 0.700(3) 0.305(3) 0.1013 Uiso
C13_2 C 0.5010(17) 0.7645(8) 0.2105(11) 0.1013 Uiso
C14_2 C 0.497(4) 0.700(2) 0.157(3) 0.1013 Uiso
O19_2 O 0.498(7) 0.633(4) 0.182(4) 0.1013 Uiso
F13_2 F 0.570(4) 0.791(3) 0.195(3) 0.1013 Uiso
F14_2 F 0.436(4) 0.800(3) 0.195(3) 0.1013 Uiso
C17_2 C 0.9990(17) 0.7645(8) 0.2895(11) 0.1013 Uiso
F17_2 F 0.930(4) 0.791(3) 0.305(3) 0.1013 Uiso
C21_2 C 0.9990(17) 0.7355(8) 0.2105(11) 0.1013 Uiso
F21_2 F 0.930(4) 0.709(3) 0.195(3) 0.1013 Uiso
O34_3 O 0.712(3) 0.413(5) 0.007(9) 0.1013 Uiso
O35_3 O 0.818(4) 0.998(7) 0.133(4) 0.1013 Uiso
O39_3 O 0.678(4) 0.609(5) 0.055(5) 0.1013 Uiso
O40_3 O 0.822(4) 0.891(5) 0.055(5) 0.1013 Uiso
O45_3 O 0.496(5) 0.382(4) 0.200(5) 0.1013 Uiso
O50_2 O 0.945(5) 0.444(5) 0.429(4) 0.0025 Uiso
O53_2 O 0.555(5) 0.444(5) 0.071(4) 0.0025 Uiso
C11_2 C 0.5017(10) 0.7544(10) 0.7929(11) 0.1013 Uiso
C12_2 C 0.482(3) 0.679(3) 0.830(3) 0.1013 Uiso
F11_2 F 0.444(3) 0.797(3) 0.816(2) 0.1013 Uiso
F12_2 F 0.574(3) 0.763(3) 0.815(2) 0.1013 Uiso
C15_2 C 0.5017(10) 0.7456(10) 0.7071(11) 0.1013 Uiso
C16_2 C 0.482(3) 0.821(3) 0.670(3) 0.1013 Uiso
F15_2 F 0.444(3) 0.703(3) 0.684(2) 0.1013 Uiso
F16_2 F 0.574(3) 0.737(3) 0.685(2) 0.1013 Uiso
C19_2 C 0.9983(10) 0.7456(10) 0.7929(11) 0.1013 Uiso
F20_2 F 0.926(3) 0.737(3) 0.815(2) 0.1013 Uiso
C23_2 C 0.9983(10) 0.7544(10) 0.7071(11) 0.1013 Uiso
F24_2 F 0.926(3) 0.763(3) 0.685(2) 0.1013 Uiso
O42_4 O 0.004(5) 0.118(4) 0.200(5) 0.1013 Uiso
O38_2 O 0.109(5) 0.945(5) 0.178(4) 0.1013 Uiso
C1_4 C 0.7895(11) 0.0010(17) 0.2645(8) 0.1013 Uiso
F1_4 F 0.805(3) 0.070(4) 0.291(3) 0.1013 Uiso
C3_4 C 0.2929(11) 0.0017(10) 0.2456(10) 0.1013 Uiso
F4_4 F 0.315(2) 0.074(3) 0.237(3) 0.1013 Uiso
C5_4 C 0.7105(11) 0.0010(17) 0.2355(8) 0.1013 Uiso
F5_4 F 0.695(3) 0.070(4) 0.209(3) 0.1013 Uiso
C7_4 C 0.2071(11) 0.0017(10) 0.2544(10) 0.1013 Uiso
F8_4 F 0.185(2) 0.074(3) 0.263(3) 0.1013 Uiso
O34_4 O 0.712(3) 0.087(5) 0.493(9) 0.1013 Uiso
O45_4 O 0.496(5) 0.118(4) 0.300(5) 0.1013 Uiso
O53_3 O 0.555(5) 0.056(5) 0.429(4) 0.0025 Uiso
C2_4 C 0.843(3) 0.997(4) 0.200(2) 0.1013 Uiso
O1_4 O 0.913(5) 0.993(9) 0.212(3) 0.1013 Uiso
F2_4 F 0.805(3) 0.936(4) 0.300(3) 0.1013 Uiso
C4_4 C 0.330(3) 0.982(3) 0.321(3) 0.1013 Uiso
O3_4 O 0.391(5) 0.945(5) 0.322(4) 0.1013 Uiso
F3_4 F 0.316(2) 0.944(3) 0.203(3) 0.1013 Uiso
C6_4 C 0.657(3) 0.997(4) 0.300(2) 0.1013 Uiso
O7_4 O 0.587(5) 0.993(9) 0.288(3) 0.1013 Uiso
O8_3 O 0.682(4) 0.998(7) 0.367(4) 0.1013 Uiso
F6_4 F 0.695(3) 0.936(4) 0.200(3) 0.1013 Uiso
C8_4 C 0.170(3) 0.982(3) 0.179(3) 0.1013 Uiso
F7_4 F 0.184(2) 0.944(3) 0.297(3) 0.1013 Uiso
O33_4 O 0.788(3) 0.413(5) 0.493(9) 0.1013 Uiso
O39_4 O 0.678(4) 0.891(5) 0.445(5) 0.1013 Uiso
O40_4 O 0.822(4) 0.609(5) 0.445(5) 0.1013 Uiso
C3_5 C 0.4983(10) 0.2456(10) 0.2071(11) 0.1013 Uiso
C4_5 C 0.518(3) 0.321(3) 0.170(3) 0.1013 Uiso
O3_5 O 0.555(5) 0.322(4) 0.109(5) 0.1013 Uiso
F3_5 F 0.556(3) 0.203(3) 0.184(2) 0.1013 Uiso
F4_5 F 0.426(3) 0.237(3) 0.185(2) 0.1013 Uiso
C7_5 C 0.4983(10) 0.2544(10) 0.2929(11) 0.1013 Uiso
C8_5 C 0.518(3) 0.179(3) 0.330(3) 0.1013 Uiso
O9_3 O 0.555(5) 0.178(4) 0.391(5) 0.1013 Uiso
F7_5 F 0.556(3) 0.297(3) 0.316(2) 0.1013 Uiso
F8_5 F 0.426(3) 0.263(3) 0.315(2) 0.1013 Uiso
C10_3 C 0.800(2) 0.157(3) 0.003(4) 0.1013 Uiso
O13_3 O 0.867(4) 0.182(4) 0.002(7) 0.1013 Uiso
F10_3 F 0.700(3) 0.195(3) 0.064(4) 0.1013 Uiso
C12_3 C 0.679(3) 0.670(3) 0.018(3) 0.1013 Uiso
F11_3 F 0.797(3) 0.684(2) 0.056(3) 0.1013 Uiso
C14_3 C 0.700(2) 0.343(3) 0.003(4) 0.1013 Uiso
O19_3 O 0.633(4) 0.318(4) 0.002(7) 0.1013 Uiso
F14_3 F 0.800(3) 0.305(3) 0.064(4) 0.1013 Uiso
C16_3 C 0.821(3) 0.830(3) 0.018(3) 0.1013 Uiso
F15_3 F 0.703(3) 0.816(2) 0.056(3) 0.1013 Uiso
C1_5 C 0.4990(17) 0.2645(8) 0.7105(11) 0.1013 Uiso
C2_5 C 0.503(4) 0.200(2) 0.657(3) 0.1013 Uiso
O1_5 O 0.507(9) 0.212(3) 0.587(5) 0.1013 Uiso
F1_5 F 0.430(4) 0.291(3) 0.695(3) 0.1013 Uiso
F2_5 F 0.564(4) 0.300(3) 0.695(3) 0.1013 Uiso
C5_5 C 0.4990(17) 0.2355(8) 0.7895(11) 0.1013 Uiso
C6_5 C 0.503(4) 0.300(2) 0.843(3) 0.1013 Uiso
O7_5 O 0.507(9) 0.288(3) 0.913(5) 0.1013 Uiso
F5_5 F 0.430(4) 0.209(3) 0.805(3) 0.1013 Uiso
F6_5 F 0.564(4) 0.200(3) 0.805(3) 0.1013 Uiso
C9_3 C 0.7355(8) 0.2105(11) 0.9990(17) 0.1013 Uiso
F9_3 F 0.709(3) 0.195(3) 0.930(4) 0.1013 Uiso
C11_3 C 0.7544(10) 0.7071(11) 0.9983(10) 0.1013 Uiso
F12_3 F 0.763(3) 0.685(2) 0.926(3) 0.1013 Uiso
C13_3 C 0.7645(8) 0.2895(11) 0.9990(17) 0.1013 Uiso
F13_3 F 0.791(3) 0.305(3) 0.930(4) 0.1013 Uiso
C15_3 C 0.7456(10) 0.7929(11) 0.9983(10) 0.1013 Uiso
F16_3 F 0.737(3) 0.815(2) 0.926(3) 0.1013 Uiso
C17_3 C 0.7645(8) 0.2105(11) 0.5010(17) 0.1013 Uiso
C18_3 C 0.700(2) 0.157(3) 0.497(4) 0.1013 Uiso
O23_3 O 0.633(4) 0.182(4) 0.498(7) 0.1013 Uiso
F17_3 F 0.791(3) 0.195(3) 0.570(4) 0.1013 Uiso
F18_3 F 0.800(3) 0.195(3) 0.436(4) 0.1013 Uiso
C19_3 C 0.7456(10) 0.7071(11) 0.5017(10) 0.1013 Uiso
C20_3 C 0.821(3) 0.670(3) 0.482(3) 0.1013 Uiso
F19_3 F 0.703(3) 0.684(2) 0.444(3) 0.1013 Uiso
F20_3 F 0.737(3) 0.685(2) 0.574(3) 0.1013 Uiso
C21_3 C 0.7355(8) 0.2895(11) 0.5010(17) 0.1013 Uiso
C22_3 C 0.800(2) 0.343(3) 0.497(4) 0.1013 Uiso
O28_3 O 0.867(4) 0.318(4) 0.498(7) 0.1013 Uiso
F21_3 F 0.709(3) 0.305(3) 0.570(4) 0.1013 Uiso
F22_3 F 0.700(3) 0.305(3) 0.436(4) 0.1013 Uiso
C23_3 C 0.7544(10) 0.7929(11) 0.5017(10) 0.1013 Uiso
C24_3 C 0.679(3) 0.830(3) 0.482(3) 0.1013 Uiso
F23_3 F 0.797(3) 0.816(2) 0.444(3) 0.1013 Uiso
F24_3 F 0.763(3) 0.815(2) 0.574(3) 0.1013 Uiso
C1_6 C 0.0010(17) 0.2645(8) 0.7895(11) 0.1013 Uiso
F1_6 F 0.070(4) 0.291(3) 0.805(3) 0.1013 Uiso
C3_6 C 0.0017(10) 0.2456(10) 0.2929(11) 0.1013 Uiso
F4_6 F 0.074(3) 0.237(3) 0.315(2) 0.1013 Uiso
C5_6 C 0.0010(17) 0.2355(8) 0.7105(11) 0.1013 Uiso
F5_6 F 0.070(4) 0.209(3) 0.695(3) 0.1013 Uiso
C7_6 C 0.0017(10) 0.2544(10) 0.2071(11) 0.1013 Uiso
F8_6 F 0.074(3) 0.263(3) 0.185(2) 0.1013 Uiso
O38_3 O 0.945(5) 0.178(4) 0.109(5) 0.1013 Uiso
C2_6 C 0.997(4) 0.200(2) 0.843(3) 0.1013 Uiso
O1_6 O 0.993(9) 0.212(3) 0.913(5) 0.1013 Uiso
F2_6 F 0.936(4) 0.300(3) 0.805(3) 0.1013 Uiso
C4_6 C 0.982(3) 0.321(3) 0.330(3) 0.1013 Uiso
O3_6 O 0.945(5) 0.322(4) 0.391(5) 0.1013 Uiso
F3_6 F 0.944(3) 0.203(3) 0.316(2) 0.1013 Uiso
C6_6 C 0.997(4) 0.300(2) 0.657(3) 0.1013 Uiso
O7_6 O 0.993(9) 0.288(3) 0.587(5) 0.1013 Uiso
F6_6 F 0.936(4) 0.200(3) 0.695(3) 0.1013 Uiso
C8_6 C 0.982(3) 0.179(3) 0.170(3) 0.1013 Uiso
F7_6 F 0.944(3) 0.297(3) 0.184(2) 0.1013 Uiso
loop_
_geom_bond_atom_site_label_1
_geom_bond_atom_site_label_2
_geom_bond_site_symmetry_1
_geom_bond_site_symmetry_2
F4 C3 1_555 1_555
C7 C3 1_555 1_555
F8 C7 1_555 1_555
Zr11 O10 1_555 1_555
Zr1 O3 1_555 1_555
C4 O3 1_555 1_555
O6 Zr1 1_555 1_555
O9 C8 1_555 1_555
C10 O12 1_555 1_555
O12 Zr17 1_555 1_555
O13 C10 1_555 1_555
O19 Zr1 1_555 1_555
Zr8 O9 1_555 1_555
Zr9 O13 1_555 1_555
C14 O18 1_555 1_555
C14 O19 1_555 1_555
F1 C1 1_555 1_555
C5 C1 1_555 1_555
F5 C5 1_555 1_555
Zr11 O48 1_555 1_555
Zr15 O53 1_555 1_555
C2 O1 1_555 1_555
O1 Zr8 1_555 1_555
O2 C2 1_555 1_555
O8 C6 1_555 1_555
Zr8 O11 1_555 1_555
F9 C9 1_555 1_555
C13 C9 1_555 1_555
F13 C13 1_555 1_555
C17 C18 1_555 1_555
C18 O22 1_555 1_555
O22 Zr19 1_555 1_555
O23 Zr8 1_555 1_555
F17 C17 1_555 1_555
F18 C17 1_555 1_555
C21 C17 1_555 1_555
C22 C21 1_555 1_555
O28 C22 1_555 1_555
F21 C21 1_555 1_555
F22 C21 1_555 1_555
Zr5 O8 1_555 1_555
Zr6 O32 1_555 1_555
Zr14 O2 1_555 1_555
Zr19 O11 1_555 1_555
Zr20 O28 1_555 1_555
O33 Zr6 1_555 1_555
O35 Zr6 1_555 1_555
O39 Zr5 1_555 1_555
O40 Zr6 1_555 1_555
O51 Zr8 1_555 1_555
O52 Zr6 1_555 1_555
C6 O7 1_555 1_555
C18 O23 1_555 1_555
C22 O27 1_555 1_555
Zr5 O31 1_555 1_555
O32 Zr20 1_555 1_555
Zr14 O51 1_555 1_555
Zr19 O51 1_555 1_555
Zr20 O52 1_555 1_555
Zr20 O54 1_555 1_555
C12 O14 1_555 1_555
O14 Zr3 1_555 1_555
O17 Zr3 1_555 1_555
O20 C16 1_555 1_555
Zr17 O20 1_555 1_555
O36 Zr3 1_555 1_555
Zr21 O55 1_555 1_555
F12 C11 1_555 1_555
C15 C11 1_555 1_555
F16 C15 1_555 1_555
Zr4 O24 1_555 1_555
C19 C20 1_555 1_555
C20 O24 1_555 1_555
O25 C20 1_555 1_555
F19 C19 1_555 1_555
F20 C19 1_555 1_555
O26 Zr4 1_555 1_555
C23 C19 1_555 1_555
C24 C23 1_555 1_555
O29 C24 1_555 1_555
O30 C24 1_555 1_555
F23 C23 1_555 1_555
F24 C23 1_555 1_555
Zr7 O25 1_555 1_555
Zr12 O26 1_555 1_555
Zr19 O29 1_555 1_555
Zr22 O21 1_555 1_555
O37 Zr4 1_555 1_555
O44 Zr4 1_555 1_555
O47 Zr4 1_555 1_555
O26 Zr7 1_555 1_555
Zr7 O47 1_555 1_555
Zr7 O49 1_555 1_555
O26_2 Zr17 1_555 1_555
Zr12_2 O26_2 1_555 1_555
O37_2 Zr17 1_555 1_555
O54_2 Zr17 1_555 1_555
Zr12_2 O54_2 1_555 1_555
Zr9 O54_2 1_555 1_555
Zr15_2 O48 1_555 1_555
Zr15_2 O50 1_555 1_555
Zr15_2 O55_2 1_555 1_555
Zr23 O55_2 1_555 1_555
O16_2 Zr19 1_555 1_555
O17_2 Zr19 1_555 1_555
Zr6_2 O32_2 1_555 1_555
O33_2 Zr6_2 1_555 1_555
O35_2 Zr6_2 1_555 1_555
O36_2 Zr19 1_555 1_555
O39_2 Zr14 1_555 1_555
O40_2 Zr6_2 1_555 1_555
O41_2 Zr6_2 1_555 1_555
O43_2 Zr19 1_555 1_555
O46_2 Zr14 1_555 1_555
O49_2 Zr6_2 1_555 1_555
O52_2 Zr6_2 1_555 1_555
O16_2 Zr14 1_555 1_555
Zr6_2 O47_2 1_555 1_555
Zr22 O47_2 1_555 1_555
Zr22 O49_2 1_555 1_555
Zr9 O3_2 1_555 1_555
C3_2 C4_2 1_555 1_555
C4_2 O3_2 1_555 1_555
O4_2 C4_2 1_555 1_555
F3_2 C3_2 1_555 1_555
F4_2 C3_2 1_555 1_555
O5_2 Zr9 1_555 1_555
C7_2 C3_2 1_555 1_555
C8_2 C7_2 1_555 1_555
O9_2 C8_2 1_555 1_555
O10_2 C8_2 1_555 1_555
F7_2 C7_2 1_555 1_555
F8_2 C7_2 1_555 1_555
Zr20 O9_2 1_555 1_555
Zr12_2 O4_2 1_555 1_555
O45_2 Zr9 1_555 1_555
O5_2 Zr12_2 1_555 1_555
C1_2 C2_2 1_555 1_555
C2_2 O1_2 1_555 1_555
O1_2 Zr20 1_555 1_555
O35 C2_2 1_555 1_555
F1_2 C1_2 1_555 1_555
F2_2 C1_2 1_555 1_555
C5_2 C1_2 1_555 1_555
C6_2 C5_2 1_555 1_555
O35_2 C6_2 1_555 1_555
F5_2 C5_2 1_555 1_555
F6_2 C5_2 1_555 1_555
O42_2 Zr20 1_555 1_555
O48_2 Zr20 1_555 1_555
C6_2 O7_2 1_555 1_555
Zr15_3 O52_2 1_555 1_555
Zr15_3 O49_2 1_555 1_555
Zr2 O52 1_555 1_555
C18_2 O33 1_555 1_555
O23_2 Zr2 1_555 1_555
O28_2 C22_2 1_555 1_555
Zr15 O28_2 1_555 1_555
O38 Zr2 1_555 1_555
O42_3 Zr2 1_555 1_555
O48_2 Zr2 1_555 1_555
C18_2 O23_2 1_555 1_555
C22_2 O34 1_555 1_555
C20_2 O39 1_555 1_555
O40 C24_2 1_555 1_555
Zr15_2 O3_3 1_555 1_555
C1_3 C2_3 1_555 1_555
C2_3 O1_3 1_555 1_555
O2_2 C2_3 1_555 1_555
F1_3 C1_3 1_555 1_555
F2_3 C1_3 1_555 1_555
C3_3 C4_3 1_555 1_555
C4_3 O3_3 1_555 1_555
O42 C4_3 1_555 1_555
F3_3 C3_3 1_555 1_555
F4_3 C3_3 1_555 1_555
C5_3 C1_3 1_555 1_555
C6_3 C5_3 1_555 1_555
O7_3 Zr15_2 1_555 1_555
O8_2 C6_3 1_555 1_555
F5_3 C5_3 1_555 1_555
F6_3 C5_3 1_555 1_555
C7_3 C3_3 1_555 1_555
C8_3 C7_3 1_555 1_555
O38 C8_3 1_555 1_555
O42_2 C8_3 1_555 1_555
F7_3 C7_3 1_555 1_555
F8_3 C7_3 1_555 1_555
C9_2 C10_2 1_555 1_555
C10_2 O33_2 1_555 1_555
O13_2 C10_2 1_555 1_555
F9_2 C9_2 1_555 1_555
F10_2 C9_2 1_555 1_555
C13_2 C9_2 1_555 1_555
C14_2 C13_2 1_555 1_555
O19_2 Zr15_2 1_555 1_555
F13_2 C13_2 1_555 1_555
F14_2 C13_2 1_555 1_555
F17_2 C17_2 1_555 1_555
C21_2 C17_2 1_555 1_555
F21_2 C21_2 1_555 1_555
Zr23 O8_2 1_555 1_555
Zr15_3 O13_2 1_555 1_555
Zr7 O2_2 1_555 1_555
O34_3 Zr23 1_555 1_555
O35_3 Zr21 1_555 1_555
O39_3 Zr23 1_555 1_555
O40_3 Zr21 1_555 1_555
O45_3 Zr15_2 1_555 1_555
O53_2 Zr15_2 1_555 1_555
C6_3 O7_3 1_555 1_555
C14_2 O34_2 1_555 1_555
C14_2 O19_2 1_555 1_555
Zr23 O53_2 1_555 1_555
Zr7 O50_2 1_555 1_555
Zr11 O53_2 1_555 1_555
C11_2 C12_2 1_555 1_555
C12_2 O39_2 1_555 1_555
O43_2 C12_2 1_555 1_555
F11_2 C11_2 1_555 1_555
F12_2 C11_2 1_555 1_555
C15_2 C11_2 1_555 1_555
C16_2 C15_2 1_555 1_555
O40_2 C16_2 1_555 1_555
O44_2 C16_2 1_555 1_555
F15_2 C15_2 1_555 1_555
F16_2 C15_2 1_555 1_555
F20_2 C19_2 1_555 1_555
C23_2 C19_2 1_555 1_555
F24_2 C23_2 1_555 1_555
O38_2 Zr15 1_555 1_555
F1_4 C1_4 1_555 1_555
F4_4 C3_4 1_555 1_555
C5_4 C1_4 1_555 1_555
F5_4 C5_4 1_555 1_555
C7_4 C3_4 1_555 1_555
F8_4 C7_4 1_555 1_555
Zr12_2 O53_3 1_555 1_555
Zr15_3 O3_4 1_555 1_555
C2_4 O1_4 1_555 1_555
O35_3 C2_4 1_555 1_555
C4_4 O3_4 1_555 1_555
O7_4 Zr15_3 1_555 1_555
O8_3 C6_4 1_555 1_555
O38_2 C8_4 1_555 1_555
Zr22 O8_3 1_555 1_555
O33_4 Zr7 1_555 1_555
O39_4 Zr22 1_555 1_555
O40_4 Zr7 1_555 1_555
C6_4 O7_4 1_555 1_555
Zr11 O3_5 1_555 1_555
C3_5 C4_5 1_555 1_555
C4_5 O3_5 1_555 1_555
O45_3 C4_5 1_555 1_555
F3_5 C3_5 1_555 1_555
F4_5 C3_5 1_555 1_555
C7_5 C3_5 1_555 1_555
C8_5 C7_5 1_555 1_555
O9_3 C8_5 1_555 1_555
O45_4 C8_5 1_555 1_555
F7_5 C7_5 1_555 1_555
F8_5 C7_5 1_555 1_555
C10_3 O33_3 1_555 1_555
O13_3 C10_3 1_555 1_555
C12_3 O39_3 1_555 1_555
O19_3 Zr11 1_555 1_555
O40_3 C16_3 1_555 1_555
Zr12_2 O9_3 1_555 1_555
Zr13 O13_3 1_555 1_555
C14_3 O34_3 1_555 1_555
C14_3 O19_3 1_555 1_555
C1_5 C2_5 1_555 1_555
C2_5 O1_5 1_555 1_555
O1_5 Zr12_2 1_555 1_555
O37_2 C2_5 1_555 1_555
F1_5 C1_5 1_555 1_555
F2_5 C1_5 1_555 1_555
C5_5 C1_5 1_555 1_555
C6_5 C5_5 1_555 1_555
O36_2 C6_5 1_555 1_555
F5_5 C5_5 1_555 1_555
F6_5 C5_5 1_555 1_555
F9_3 C9_3 1_555 1_555
F12_3 C11_3 1_555 1_555
C13_3 C9_3 1_555 1_555
F13_3 C13_3 1_555 1_555
C15_3 C11_3 1_555 1_555
F16_3 C15_3 1_555 1_555
C17_3 C18_3 1_555 1_555
C18_3 O34_4 1_555 1_555
O23_3 Zr12_2 1_555 1_555
F17_3 C17_3 1_555 1_555
F18_3 C17_3 1_555 1_555
C19_3 C20_3 1_555 1_555
C20_3 O40_4 1_555 1_555
O41 C20_3 1_555 1_555
F19_3 C19_3 1_555 1_555
F20_3 C19_3 1_555 1_555
C21_3 C17_3 1_555 1_555
C22_3 C21_3 1_555 1_555
O28_3 C22_3 1_555 1_555
F21_3 C21_3 1_555 1_555
F22_3 C21_3 1_555 1_555
C23_3 C19_3 1_555 1_555
C24_3 C23_3 1_555 1_555
O39_4 C24_3 1_555 1_555
O41_2 C24_3 1_555 1_555
F23_3 C23_3 1_555 1_555
F24_3 C23_3 1_555 1_555
Zr12 O28_3 1_555 1_555
C6_5 O7_5 1_555 1_555
C18_3 O23_3 1_555 1_555
C22_3 O33_4 1_555 1_555
Zr12 O50_2 1_555 1_555
Zr13 O52_3 1_555 1_555
F1_6 C1_6 1_555 1_555
F4_6 C3_6 1_555 1_555
C5_6 C1_6 1_555 1_555
F5_6 C5_6 1_555 1_555
C7_6 C3_6 1_555 1_555
F8_6 C7_6 1_555 1_555
O38_3 Zr13 1_555 1_555
Zr12 O3_6 1_555 1_555
C2_6 O1_6 1_555 1_555
O36 C2_6 1_555 1_555
C4_6 O3_6 1_555 1_555
O7_6 Zr12 1_555 1_555
O37 C6_6 1_555 1_555
O38_3 C8_6 1_555 1_555
C6_6 O7_6 1_555 1_555

#END
