
###############################################################################
#
# This file contains modified crystal structure data generated from the
# MOF subset of the Cambridge Structural Database (CSD) v543 
# hosted by the Cambridge Crystallographic Data Centre (CCDC).
#
# This work is licensed under the Creative Commons
# Attribution-NonCommercial-ShareAlike 4.0 International License.
# To view a copy of this license, visit
# http://creativecommons.org/licenses/by-nc-sa/4.0/
# or send a letter to
# Creative Commons, PO Box 1866, Mountain View, CA 94042, USA.
#
# CIF created using the CSD Python API on 29 September 2022
# The structure has been converted into the P1 space group
# The structure has a 3D framework
# The original CSD entry PEBXIF is in the monoclinic crystal system
# The framework has been calculated to contain at least 10.0% void space
# The void calculation uses a probe of radius 1.32A, grid spacing 0.4
#
###############################################################################

data_PEBXIF
_chemical_formula_moiety         '(C192 H136 N16 Ni8 O38)n'
_symmetry_cell_setting           triclinic
_symmetry_space_group_name_H-M   'P 1'
_symmetry_Int_Tables_number      1
_space_group_name_Hall           'P 1'
loop_
_symmetry_equiv_pos_site_id
_symmetry_equiv_pos_as_xyz
1 x,y,z
_cell_length_a                   21.1785(16)
_cell_length_b                   17.1352(13)
_cell_length_c                   16.676(2)
_cell_angle_alpha                90
_cell_angle_beta                 128.7520(10)
_cell_angle_gamma                90
_cell_volume                     4719.48
loop_
_atom_site_label
_atom_site_type_symbol
_atom_site_fract_x
_atom_site_fract_y
_atom_site_fract_z
Ni7 Ni 0.90410(3) 0.61066(2) 0.71607(3)
O7 O 0.82483(16) 0.57422(15) 0.56773(19)
O9 O 0.89281(19) 0.47226(19) 0.5723(2)
H18 H 0.9289 0.4904 0.6291
O10 O 0.5664(2) 0.4646(2) 0.1091(3)
C35 C 0.8307(2) 0.5150(2) 0.5277(3)
C36 C 0.7584(2) 0.4958(2) 0.4196(3)
C37 C 0.7587(3) 0.4331(3) 0.3672(3)
H27 H 0.8034 0.4002 0.4014
C38 C 0.6937(3) 0.4184(3) 0.2649(3)
H28 H 0.6945 0.3753 0.2316
C39 C 0.6285(2) 0.4677(3) 0.2136(3)
C40 C 0.6251(3) 0.5296(3) 0.2640(3)
H29 H 0.5799 0.5619 0.2294
C41 C 0.6905(2) 0.5434(2) 0.3678(3)
H30 H 0.6884 0.5848 0.4021
C42 C 0.5596(3) 0.4009(3) 0.0537(4)
C46 C 0.5201(3) 0.2673(3) 0.0006(3)
H33 H 0.4993 0.2205 0.0035
C47 C 0.5291(3) 0.3315(3) 0.0594(4)
H34 H 0.5148 0.3274 0.1018
Ni1 Ni 0.40410(3) 0.11066(2) 0.71607(3)
N1 N 0.31996(19) 0.18715(17) 0.7044(2)
N2 N 0.13739(19) 0.51794(18) 0.7419(2)
O1 O 0.32483(16) 0.07422(15) 0.56773(19)
C1 C 0.3318(2) 0.2074(2) 0.7909(3)
H2 H 0.3675 0.1779 0.8500
C2 C 0.2934(3) 0.2696(2) 0.7961(3)
H3 H 0.3035 0.2813 0.8577
C3 C 0.2394(2) 0.3152(2) 0.7090(3)
C4 C 0.2241(2) 0.2929(2) 0.6189(3)
H4 H 0.1870 0.3203 0.5584
C5 C 0.2649(2) 0.2287(2) 0.6191(3)
H5 H 0.2534 0.2140 0.5576
C6 C 0.2025(3) 0.3859(2) 0.7164(4)
C7 C 0.2483(2) 0.4312(2) 0.8064(3)
H6 H 0.3016 0.4176 0.8599
C8 C 0.2151(2) 0.4949(3) 0.8155(3)
H7 H 0.2473 0.5243 0.8754
C9 C 0.0942(2) 0.4767(2) 0.6550(3)
H8 H 0.0412 0.4921 0.6026
C10 C 0.1243(3) 0.4119(3) 0.6386(3)
H9 H 0.0922 0.3860 0.5758
C11 C 0.3307(2) 0.0150(2) 0.5277(3)
C16 C 0.1251(3) 0.0296(3) 0.2640(3)
H12 H 0.0799 0.0619 0.2294
C17 C 0.1905(2) 0.0434(2) 0.3678(3)
H13 H 0.1884 0.0848 0.4021
O6 O 0.5000 0.0384(2) 0.7500
Ni3 Ni 0.09590(3) 0.61066(2) 0.78393(3)
Ni6 Ni 0.59590(3) 0.11066(2) 0.78393(3)
N4 N 0.36261(19) 0.01794(18) 0.7581(2)
O11 O 0.48854(16) 0.15057(15) 0.8636(2)
O13 O 0.57633(16) 0.20436(15) 0.8471(2)
O14 O 0.42367(16) 0.20436(15) 0.6529(2)
H24 H 0.2527 0.0243 0.6246
C43 C 0.5797(3) 0.4084(3) 0.9912(4)
H31 H 0.5983 0.4560 0.9865
C44 C 0.5723(2) 0.3441(2) 0.9338(3)
H32 H 0.5877 0.3487 0.8927
C45 C 0.5422(2) 0.2740(2) 0.9378(3)
C48 C 0.5349(2) 0.2042(2) 0.8775(3)
O2 O 0.39281(19) 0.97226(19) 0.5723(2)
H1 H 0.4289 0.9904 0.6291
O3 O 0.0664(2) 0.9646(2) 0.1091(3)
C12 C 0.2584(2) 0.9958(2) 0.4196(3)
C13 C 0.2587(3) 0.9331(3) 0.3672(3)
H10 H 0.3034 0.9002 0.4014
C14 C 0.1937(3) 0.9184(3) 0.2649(3)
H11 H 0.1945 0.8753 0.2316
C15 C 0.1285(2) 0.9677(3) 0.2136(3)
C18 C 0.0596(3) 0.9009(3) 0.0537(4)
C22 C 0.0201(3) 0.7673(3) 0.0006(3)
C23 C 0.0291(3) 0.8315(3) 0.0594(4)
H17 H 0.0148 0.8274 0.1018
N3 N 0.18004(19) 0.68715(17) 0.7956(2)
O8 O 0.17517(16) 0.57422(15) 0.93227(19)
O12 O 0.01146(16) 0.65057(15) 0.6364(2)
O15 O 0.07633(16) 0.70436(15) 0.8471(2)
C25 C 0.1682(2) 0.7074(2) 0.7091(3)
H19 H 0.1325 0.6779 0.6500
C26 C 0.2066(3) 0.7696(2) 0.7039(3)
H20 H 0.1965 0.7813 0.6423
C27 C 0.2606(2) 0.8152(2) 0.7910(3)
C28 C 0.2759(2) 0.7929(2) 0.8811(3)
H21 H 0.3130 0.8203 0.9416
C29 C 0.2351(2) 0.7287(2) 0.8809(3)
H22 H 0.2466 0.7140 0.9424
C30 C 0.2975(3) 0.8859(2) 0.7836(4)
C31 C 0.2517(2) 0.9312(2) 0.6936(3)
H23 H 0.1984 0.9176 0.6401
C32 C 0.2849(2) 0.9949(3) 0.6845(3)
C33 C 0.4058(2) 0.9767(2) 0.8450(3)
H25 H 0.4588 0.9921 0.8974
C34 C 0.3757(3) 0.9119(3) 0.8614(3)
H26 H 0.4078 0.8860 0.9242
O16 O -0.0000 0.5384(2) 0.7500
C19 C 0.0797(3) 0.9084(3) 0.9912(4)
H14 H 0.0983 0.9560 0.9865
C20 C 0.0723(2) 0.8441(2) 0.9338(3)
H15 H 0.0877 0.8487 0.8927
C21 C 0.0422(2) 0.7740(2) 0.9378(3)
C24 C 0.0349(2) 0.7042(2) 0.8775(3)
H16 H 0.9993 0.7205 0.0035
O16_2 O 1.0000 0.5384(2) 0.7500
O4 O 0.98854(16) 0.65057(15) 0.8636(2)
H16_2 H 0.0007 0.7205 0.4965
N1_2 N 0.68004(19) 0.18715(17) 0.7956(2)
N2_2 N 0.86261(19) 0.51794(18) 0.7581(2)
O1_2 O 0.67517(16) 0.07422(15) 0.93227(19)
C1_2 C 0.6682(2) 0.2074(2) 0.7091(3)
H2_2 H 0.6325 0.1779 0.6500
C2_2 C 0.7066(3) 0.2696(2) 0.7039(3)
H3_2 H 0.6965 0.2813 0.6423
C3_2 C 0.7606(2) 0.3152(2) 0.7910(3)
C4_2 C 0.7759(2) 0.2929(2) 0.8811(3)
H4_2 H 0.8130 0.3203 0.9416
C5_2 C 0.7351(2) 0.2287(2) 0.8809(3)
H5_2 H 0.7466 0.2140 0.9424
C6_2 C 0.7975(3) 0.3859(2) 0.7836(4)
C7_2 C 0.7517(2) 0.4312(2) 0.6936(3)
H6_2 H 0.6984 0.4176 0.6401
C8_2 C 0.7849(2) 0.4949(3) 0.6845(3)
H7_2 H 0.7527 0.5243 0.6246
C9_2 C 0.9058(2) 0.4767(2) 0.8450(3)
H8_2 H 0.9588 0.4921 0.8974
C10_2 C 0.8757(3) 0.4119(3) 0.8614(3)
H9_2 H 0.9078 0.3860 0.9242
C11_2 C 0.6693(2) 0.0150(2) 0.9723(3)
N4_2 N 0.63739(19) 0.01794(18) 0.7419(2)
O10_2 O 0.4336(2) 0.4646(2) 0.3909(3)
O11_2 O 0.51146(16) 0.15057(15) 0.6364(2)
H24_2 H 0.7473 0.0243 0.8754
C36_2 C 0.2416(2) 0.4958(2) 0.0804(3)
C37_2 C 0.2413(3) 0.4331(3) 0.1328(3)
H27_2 H 0.1966 0.4002 0.0986
C38_2 C 0.3063(3) 0.4184(3) 0.2351(3)
H28_2 H 0.3055 0.3753 0.2684
C39_2 C 0.3715(2) 0.4677(3) 0.2864(3)
C40_2 C 0.3749(3) 0.5296(3) 0.2360(3)
H29_2 H 0.4201 0.5619 0.2706
C41_2 C 0.3095(2) 0.5434(2) 0.1322(3)
H30_2 H 0.3116 0.5848 0.0979
C42_2 C 0.4404(3) 0.4009(3) 0.4463(4)
C43_2 C 0.4203(3) 0.4084(3) 0.5088(4)
H31_2 H 0.4017 0.4560 0.5135
C44_2 C 0.4277(2) 0.3441(2) 0.5662(3)
H32_2 H 0.4123 0.3487 0.6073
C45_2 C 0.4578(2) 0.2740(2) 0.5622(3)
C46_2 C 0.4799(3) 0.2673(3) 0.4994(3)
H33_2 H 0.5007 0.2205 0.4965
C47_2 C 0.4709(3) 0.3315(3) 0.4406(4)
H34_2 H 0.4852 0.3274 0.3982
C48_2 C 0.4651(2) 0.2042(2) 0.6225(3)
O9_2 O 0.10719(19) 0.47226(19) 0.9277(2)
H18_2 H 0.0711 0.4904 0.8709
C35_2 C 0.1693(2) 0.5150(2) 0.9723(3)
O3_2 O 0.9336(2) 0.9646(2) 0.3909(3)
O5 O 0.92367(16) 0.70436(15) 0.6529(2)
C12_2 C 0.7416(2) 0.9958(2) 0.0804(3)
C13_2 C 0.7413(3) 0.9331(3) 0.1328(3)
H10_2 H 0.6966 0.9002 0.0986
C14_2 C 0.8063(3) 0.9184(3) 0.2351(3)
H11_2 H 0.8055 0.8753 0.2684
C15_2 C 0.8715(2) 0.9677(3) 0.2864(3)
C18_2 C 0.9404(3) 0.9009(3) 0.4463(4)
C19_2 C 0.9203(3) 0.9084(3) 0.5088(4)
H14_2 H 0.9017 0.9560 0.5135
C20_2 C 0.9277(2) 0.8441(2) 0.5662(3)
H15_2 H 0.9123 0.8487 0.6073
C21_2 C 0.9578(2) 0.7740(2) 0.5622(3)
C22_2 C 0.9799(3) 0.7673(3) 0.4994(3)
C23_2 C 0.9709(3) 0.8315(3) 0.4406(4)
H17_2 H 0.9852 0.8274 0.3982
C24_2 C 0.9651(2) 0.7042(2) 0.6225(3)
O2_2 O 0.60719(19) 0.97226(19) 0.9277(2)
H1_2 H 0.5711 0.9904 0.8709
N3_2 N 0.81996(19) 0.68715(17) 0.7044(2)
C25_2 C 0.8318(2) 0.7074(2) 0.7909(3)
H19_2 H 0.8675 0.6779 0.8500
C26_2 C 0.7934(3) 0.7696(2) 0.7961(3)
H20_2 H 0.8035 0.7813 0.8577
C27_2 C 0.7394(2) 0.8152(2) 0.7090(3)
C28_2 C 0.7241(2) 0.7929(2) 0.6189(3)
H21_2 H 0.6870 0.8203 0.5584
C29_2 C 0.7649(2) 0.7287(2) 0.6191(3)
H22_2 H 0.7534 0.7140 0.5576
C30_2 C 0.7025(3) 0.8859(2) 0.7164(4)
C31_2 C 0.7483(2) 0.9312(2) 0.8064(3)
H23_2 H 0.8016 0.9176 0.8599
C32_2 C 0.7151(2) 0.9949(3) 0.8155(3)
C33_2 C 0.5942(2) 0.9767(2) 0.6550(3)
H25_2 H 0.5412 0.9921 0.6026
C34_2 C 0.6243(3) 0.9119(3) 0.6386(3)
H26_2 H 0.5922 0.8860 0.5758
C16_2 C 0.8749(3) 0.0296(3) 0.2360(3)
H12_2 H 0.9201 0.0619 0.2706
C17_2 C 0.8095(2) 0.0434(2) 0.1322(3)
H13_2 H 0.8116 0.0848 0.0979
O4_2 O 0.01146(16) 0.34943(15) 0.1364(2)
Ni4 Ni 0.09590(3) 0.38934(2) 0.28393(3)
H16_3 H 0.0007 0.2795 0.9965
O16_3 O 0.0000 0.4616(2) 0.2500
O5_2 O 0.92367(16) 0.29564(15) 0.1529(2)
C19_3 C 0.9203(3) 0.0916(3) 0.0088(4)
H14_3 H 0.9017 0.0440 0.0135
C20_3 C 0.9277(2) 0.1559(2) 0.0662(3)
H15_3 H 0.9123 0.1513 0.1073
C21_3 C 0.9578(2) 0.2260(2) 0.0622(3)
C24_3 C 0.9651(2) 0.2958(2) 0.1225(3)
Ni5 Ni 0.90410(3) 0.38934(2) 0.21607(3)
O2_3 O 0.60719(19) 0.02774(19) 0.4277(2)
H1_3 H 0.5711 0.0096 0.3709
O3_3 O 0.9336(2) 0.0354(2) 0.8909(3)
C12_3 C 0.7416(2) 0.0042(2) 0.5804(3)
C13_3 C 0.7413(3) 0.0669(3) 0.6328(3)
H10_3 H 0.6966 0.0998 0.5986
C14_3 C 0.8063(3) 0.0816(3) 0.7351(3)
H11_3 H 0.8055 0.1247 0.7684
C15_3 C 0.8715(2) 0.0323(3) 0.7864(3)
C18_3 C 0.9404(3) 0.0991(3) 0.9463(4)
C22_3 C 0.9799(3) 0.2327(3) 0.9994(3)
C23_3 C 0.9709(3) 0.1685(3) 0.9406(4)
H17_3 H 0.9852 0.1726 0.8982
N3_3 N 0.81996(19) 0.31285(17) 0.2044(2)
N5 N 0.86261(19) 0.48206(18) 0.2581(2)
O8_2 O 0.82483(16) 0.42578(15) 0.06773(19)
O12_2 O 0.98854(16) 0.34943(15) 0.3636(2)
C25_3 C 0.8318(2) 0.2926(2) 0.2909(3)
H19_3 H 0.8675 0.3221 0.3500
C26_3 C 0.7934(3) 0.2304(2) 0.2961(3)
H20_3 H 0.8035 0.2187 0.3577
C27_3 C 0.7394(2) 0.1848(2) 0.2090(3)
C28_3 C 0.7241(2) 0.2071(2) 0.1189(3)
H21_3 H 0.6870 0.1797 0.0584
C29_3 C 0.7649(2) 0.2713(2) 0.1191(3)
H22_3 H 0.7534 0.2860 0.0576
C30_3 C 0.7025(3) 0.1141(2) 0.2164(4)
C31_3 C 0.7483(2) 0.0688(2) 0.3064(3)
H23_3 H 0.8016 0.0824 0.3599
C32_3 C 0.7151(2) 0.0051(3) 0.3155(3)
C33_3 C 0.5942(2) 0.0233(2) 0.1550(3)
H25_3 H 0.5412 0.0079 0.1026
C34_3 C 0.6243(3) 0.0881(3) 0.1386(3)
H26_3 H 0.5922 0.1140 0.0758
O16_4 O 1.0000 0.4616(2) 0.2500
Ni1_2 Ni 0.59590(3) 0.88934(2) 0.28393(3)
N1_3 N 0.68004(19) 0.81285(17) 0.2956(2)
O1_3 O 0.67517(16) 0.92578(15) 0.43227(19)
C1_3 C 0.6682(2) 0.7926(2) 0.2091(3)
H2_3 H 0.6325 0.8221 0.1500
C2_3 C 0.7066(3) 0.7304(2) 0.2039(3)
H3_3 H 0.6965 0.7187 0.1423
C3_3 C 0.7606(2) 0.6848(2) 0.2910(3)
C4_3 C 0.7759(2) 0.7071(2) 0.3811(3)
H4_3 H 0.8130 0.6797 0.4416
C5_3 C 0.7351(2) 0.7713(2) 0.3809(3)
H5_3 H 0.7466 0.7860 0.4424
C6_3 C 0.7975(3) 0.6141(2) 0.2836(4)
C7_3 C 0.7517(2) 0.5688(2) 0.1936(3)
H6_3 H 0.6984 0.5824 0.1401
C8_3 C 0.7849(2) 0.5051(3) 0.1845(3)
H7_3 H 0.7527 0.4757 0.1246
C9_3 C 0.9058(2) 0.5233(2) 0.3450(3)
H8_3 H 0.9588 0.5079 0.3974
C10_3 C 0.8757(3) 0.5881(3) 0.3614(3)
H9_3 H 0.9078 0.6140 0.4242
C11_3 C 0.6693(2) 0.9850(2) 0.4723(3)
C16_3 C 0.8749(3) 0.9704(3) 0.7360(3)
H12_3 H 0.9201 0.9381 0.7706
C17_3 C 0.8095(2) 0.9566(2) 0.6322(3)
H13_3 H 0.8116 0.9152 0.5979
O6_2 O 0.5000 0.9616(2) 0.2500
Ni6_2 Ni 0.40410(3) 0.88934(2) 0.21607(3)
N4_3 N 0.63739(19) 0.98206(18) 0.2419(2)
O11_3 O 0.51146(16) 0.84943(15) 0.1364(2)
O13_2 O 0.42367(16) 0.79564(15) 0.1529(2)
O14_2 O 0.57633(16) 0.79564(15) 0.3471(2)
H24_3 H 0.7473 0.9757 0.3754
C43_3 C 0.4203(3) 0.5916(3) 0.0088(4)
H31_3 H 0.4017 0.5440 0.0135
C44_3 C 0.4277(2) 0.6559(2) 0.0662(3)
H32_3 H 0.4123 0.6513 0.1073
C45_3 C 0.4578(2) 0.7260(2) 0.0622(3)
C48_3 C 0.4651(2) 0.7958(2) 0.1225(3)
O7_2 O 0.17517(16) 0.42578(15) 0.43227(19)
O9_3 O 0.10719(19) 0.52774(19) 0.4277(2)
H18_3 H 0.0711 0.5096 0.3709
O10_3 O 0.4336(2) 0.5354(2) 0.8909(3)
C35_3 C 0.1693(2) 0.4850(2) 0.4723(3)
C36_3 C 0.2416(2) 0.5042(2) 0.5804(3)
C37_3 C 0.2413(3) 0.5669(3) 0.6328(3)
H27_3 H 0.1966 0.5998 0.5986
C38_3 C 0.3063(3) 0.5816(3) 0.7351(3)
H28_3 H 0.3055 0.6247 0.7684
C39_3 C 0.3715(2) 0.5323(3) 0.7864(3)
C40_3 C 0.3749(3) 0.4704(3) 0.7360(3)
H29_3 H 0.4201 0.4381 0.7706
C41_3 C 0.3095(2) 0.4566(2) 0.6322(3)
H30_3 H 0.3116 0.4152 0.5979
C42_3 C 0.4404(3) 0.5991(3) 0.9463(4)
C46_3 C 0.4799(3) 0.7327(3) 0.9994(3)
H33_3 H 0.5007 0.7795 0.9965
C47_3 C 0.4709(3) 0.6685(3) 0.9406(4)
H34_3 H 0.4852 0.6726 0.8982
O2_4 O 0.39281(19) 0.02774(19) 0.0723(2)
H1_4 H 0.4289 0.0096 0.1291
N3_4 N 0.18004(19) 0.31285(17) 0.2956(2)
N5_2 N 0.13739(19) 0.48206(18) 0.2419(2)
O15_2 O 0.07633(16) 0.29564(15) 0.3471(2)
C25_4 C 0.1682(2) 0.2926(2) 0.2091(3)
H19_4 H 0.1325 0.3221 0.1500
C26_4 C 0.2066(3) 0.2304(2) 0.2039(3)
H20_4 H 0.1965 0.2187 0.1423
C27_4 C 0.2606(2) 0.1848(2) 0.2910(3)
C28_4 C 0.2759(2) 0.2071(2) 0.3811(3)
H21_4 H 0.3130 0.1797 0.4416
C29_4 C 0.2351(2) 0.2713(2) 0.3809(3)
H22_4 H 0.2466 0.2860 0.4424
C30_4 C 0.2975(3) 0.1141(2) 0.2836(4)
C31_4 C 0.2517(2) 0.0688(2) 0.1936(3)
H23_4 H 0.1984 0.0824 0.1401
C32_4 C 0.2849(2) 0.0051(3) 0.1845(3)
C33_4 C 0.4058(2) 0.0233(2) 0.3450(3)
H25_4 H 0.4588 0.0079 0.3974
C34_4 C 0.3757(3) 0.0881(3) 0.3614(3)
H26_4 H 0.4078 0.1140 0.4242
O3_4 O 0.0664(2) 0.0354(2) 0.6091(3)
C12_4 C 0.2584(2) 0.0042(2) 0.9196(3)
C13_4 C 0.2587(3) 0.0669(3) 0.8672(3)
H10_4 H 0.3034 0.0998 0.9014
C14_4 C 0.1937(3) 0.0816(3) 0.7649(3)
H11_4 H 0.1945 0.1247 0.7316
C15_4 C 0.1285(2) 0.0323(3) 0.7136(3)
C18_4 C 0.0596(3) 0.0991(3) 0.5537(4)
C19_4 C 0.0797(3) 0.0916(3) 0.4912(4)
H14_4 H 0.0983 0.0440 0.4865
C20_4 C 0.0723(2) 0.1559(2) 0.4338(3)
H15_4 H 0.0877 0.1513 0.3927
C21_4 C 0.0422(2) 0.2260(2) 0.4378(3)
C22_4 C 0.0201(3) 0.2327(3) 0.5006(3)
C23_4 C 0.0291(3) 0.1685(3) 0.5594(4)
H17_4 H 0.0148 0.1726 0.6018
C24_4 C 0.0349(2) 0.2958(2) 0.3775(3)
O9_4 O 0.89281(19) 0.52774(19) 0.0723(2)
H18_4 H 0.9289 0.5096 0.1291
C35_4 C 0.8307(2) 0.4850(2) 0.0277(3)
N1_4 N 0.31996(19) 0.81285(17) 0.2044(2)
O1_4 O 0.32483(16) 0.92578(15) 0.06773(19)
C1_4 C 0.3318(2) 0.7926(2) 0.2909(3)
H2_4 H 0.3675 0.8221 0.3500
C2_4 C 0.2934(3) 0.7304(2) 0.2961(3)
H3_4 H 0.3035 0.7187 0.3577
C3_4 C 0.2394(2) 0.6848(2) 0.2090(3)
C4_4 C 0.2241(2) 0.7071(2) 0.1189(3)
H4_4 H 0.1870 0.6797 0.0584
C5_4 C 0.2649(2) 0.7713(2) 0.1191(3)
H5_4 H 0.2534 0.7860 0.0576
C6_4 C 0.2025(3) 0.6141(2) 0.2164(4)
C7_4 C 0.2483(2) 0.5688(2) 0.3064(3)
H6_4 H 0.3016 0.5824 0.3599
C8_4 C 0.2151(2) 0.5051(3) 0.3155(3)
H7_4 H 0.2473 0.4757 0.3754
C9_4 C 0.0942(2) 0.5233(2) 0.1550(3)
H8_4 H 0.0412 0.5079 0.1026
C10_4 C 0.1243(3) 0.5881(3) 0.1386(3)
H9_4 H 0.0922 0.6140 0.0758
C11_4 C 0.3307(2) 0.9850(2) 0.0277(3)
N4_4 N 0.36261(19) 0.98206(18) 0.2581(2)
O10_4 O 0.5664(2) 0.5354(2) 0.6091(3)
O11_4 O 0.48854(16) 0.84943(15) 0.3636(2)
H24_4 H 0.2527 0.9757 0.1246
C36_4 C 0.7584(2) 0.5042(2) 0.9196(3)
C37_4 C 0.7587(3) 0.5669(3) 0.8672(3)
H27_4 H 0.8034 0.5998 0.9014
C38_4 C 0.6937(3) 0.5816(3) 0.7649(3)
H28_4 H 0.6945 0.6247 0.7316
C39_4 C 0.6285(2) 0.5323(3) 0.7136(3)
C40_4 C 0.6251(3) 0.4704(3) 0.7640(3)
H29_4 H 0.5799 0.4381 0.7294
C41_4 C 0.6905(2) 0.4566(2) 0.8678(3)
H30_4 H 0.6884 0.4152 0.9021
C42_4 C 0.5596(3) 0.5991(3) 0.5537(4)
C43_4 C 0.5797(3) 0.5916(3) 0.4912(4)
H31_4 H 0.5983 0.5440 0.4865
C44_4 C 0.5723(2) 0.6559(2) 0.4338(3)
H32_4 H 0.5877 0.6513 0.3927
C45_4 C 0.5422(2) 0.7260(2) 0.4378(3)
C46_4 C 0.5201(3) 0.7327(3) 0.5006(3)
H33_4 H 0.4993 0.7795 0.5035
C47_4 C 0.5291(3) 0.6685(3) 0.5594(4)
H34_4 H 0.5148 0.6726 0.6018
C48_4 C 0.5349(2) 0.7958(2) 0.3775(3)
H16_4 H 0.9993 0.2795 0.5035
C16_4 C 0.1251(3) 0.9704(3) 0.7640(3)
H12_4 H 0.0799 0.9381 0.7294
C17_4 C 0.1905(2) 0.9566(2) 0.8678(3)
H13_4 H 0.1884 0.9152 0.9021
loop_
_geom_bond_atom_site_label_1
_geom_bond_atom_site_label_2
_geom_bond_site_symmetry_1
_geom_bond_site_symmetry_2
Ni7 O7 1_555 1_555
O7 C35 1_555 1_555
O9 H18 1_555 1_555
O10 C39 1_555 1_555
C35 O9 1_555 1_555
C36 C35 1_555 1_555
C37 C36 1_555 1_555
H27 C37 1_555 1_555
C38 C37 1_555 1_555
H28 C38 1_555 1_555
C39 C38 1_555 1_555
C40 C39 1_555 1_555
H29 C40 1_555 1_555
C41 C36 1_555 1_555
H30 C41 1_555 1_555
C42 O10 1_555 1_555
H33 C46 1_555 1_555
C47 C42 1_555 1_555
H34 C47 1_555 1_555
C40 C41 1_555 1_555
C46 C47 1_555 1_555
Ni1 N1 1_555 1_555
N1 C1 1_555 1_555
N2 C8 1_555 1_555
O1 Ni1 1_555 1_555
C1 H2 1_555 1_555
C2 C1 1_555 1_555
H3 C2 1_555 1_555
C3 C2 1_555 1_555
C4 C3 1_555 1_555
H4 C4 1_555 1_555
C5 N1 1_555 1_555
H5 C5 1_555 1_555
C6 C3 1_555 1_555
C7 C6 1_555 1_555
H6 C7 1_555 1_555
C8 C7 1_555 1_555
H7 C8 1_555 1_555
C9 N2 1_555 1_555
H8 C9 1_555 1_555
C10 C6 1_555 1_555
H9 C10 1_555 1_555
C11 O1 1_555 1_555
H12 C16 1_555 1_555
H13 C17 1_555 1_555
O6 Ni1 1_555 1_555
Ni3 N2 1_555 1_555
Ni6 O6 1_555 1_555
N4 Ni1 1_555 1_555
O11 Ni1 1_555 1_555
O13 Ni6 1_555 1_555
O14 Ni1 1_555 1_555
H31 C43 1_555 1_555
C44 C43 1_555 1_555
H32 C44 1_555 1_555
C45 C44 1_555 1_555
C48 O11 1_555 1_555
C4 C5 1_555 1_555
C9 C10 1_555 1_555
C16 C17 1_555 1_555
O13 C48 1_555 1_555
C45 C48 1_555 1_555
O2 H1 1_555 1_555
O3 C15 1_555 1_555
C13 C12 1_555 1_555
H10 C13 1_555 1_555
C14 C13 1_555 1_555
H11 C14 1_555 1_555
C15 C14 1_555 1_555
C18 O3 1_555 1_555
C23 C18 1_555 1_555
H17 C23 1_555 1_555
Ni3 N3 1_555 1_555
N3 C25 1_555 1_555
O8 Ni3 1_555 1_555
O12 Ni3 1_555 1_555
O15 Ni3 1_555 1_555
C25 H19 1_555 1_555
C26 C25 1_555 1_555
H20 C26 1_555 1_555
C27 C26 1_555 1_555
C28 C27 1_555 1_555
H21 C28 1_555 1_555
C29 N3 1_555 1_555
H22 C29 1_555 1_555
C30 C27 1_555 1_555
C31 C30 1_555 1_555
H23 C31 1_555 1_555
H25 C33 1_555 1_555
C34 C30 1_555 1_555
H26 C34 1_555 1_555
O16 Ni3 1_555 1_555
C22 C23 1_555 1_555
C28 C29 1_555 1_555
C31 C32 1_555 1_555
C33 C34 1_555 1_555
O15 C24 1_555 1_555
H14 C19 1_555 1_555
C20 C19 1_555 1_555
H15 C20 1_555 1_555
C21 C20 1_555 1_555
C24 C21 1_555 1_555
Ni7 O4 1_555 1_555
Ni6 N1_2 1_555 1_555
N1_2 C1_2 1_555 1_555
N2_2 C8_2 1_555 1_555
O1_2 Ni6 1_555 1_555
C1_2 H2_2 1_555 1_555
C2_2 C1_2 1_555 1_555
H3_2 C2_2 1_555 1_555
C3_2 C2_2 1_555 1_555
C4_2 C3_2 1_555 1_555
H4_2 C4_2 1_555 1_555
C5_2 N1_2 1_555 1_555
H5_2 C5_2 1_555 1_555
C6_2 C3_2 1_555 1_555
C7_2 C6_2 1_555 1_555
H6_2 C7_2 1_555 1_555
C8_2 C7_2 1_555 1_555
H7_2 C8_2 1_555 1_555
C9_2 N2_2 1_555 1_555
H8_2 C9_2 1_555 1_555
C10_2 C6_2 1_555 1_555
H9_2 C10_2 1_555 1_555
C11_2 O1_2 1_555 1_555
Ni7 N2_2 1_555 1_555
N4_2 Ni6 1_555 1_555
O10_2 C39_2 1_555 1_555
O11_2 Ni6 1_555 1_555
C37_2 C36_2 1_555 1_555
H27_2 C37_2 1_555 1_555
C38_2 C37_2 1_555 1_555
H28_2 C38_2 1_555 1_555
C39_2 C38_2 1_555 1_555
C40_2 C39_2 1_555 1_555
H29_2 C40_2 1_555 1_555
C41_2 C36_2 1_555 1_555
H30_2 C41_2 1_555 1_555
C42_2 O10_2 1_555 1_555
C43_2 C42_2 1_555 1_555
H31_2 C43_2 1_555 1_555
C44_2 C43_2 1_555 1_555
H32_2 C44_2 1_555 1_555
C45_2 C44_2 1_555 1_555
C46_2 C45_2 1_555 1_555
H33_2 C46_2 1_555 1_555
C47_2 C42_2 1_555 1_555
H34_2 C47_2 1_555 1_555
C48_2 O11_2 1_555 1_555
C4_2 C5_2 1_555 1_555
C9_2 C10_2 1_555 1_555
O14 C48_2 1_555 1_555
C40_2 C41_2 1_555 1_555
C45_2 C48_2 1_555 1_555
C46_2 C47_2 1_555 1_555
O8 C35_2 1_555 1_555
O9_2 H18_2 1_555 1_555
C35_2 O9_2 1_555 1_555
O3_2 C15_2 1_555 1_555
O5 C24_2 1_555 1_555
C13_2 C12_2 1_555 1_555
H10_2 C13_2 1_555 1_555
C14_2 C13_2 1_555 1_555
H11_2 C14_2 1_555 1_555
C15_2 C14_2 1_555 1_555
C18_2 O3_2 1_555 1_555
C19_2 C18_2 1_555 1_555
H14_2 C19_2 1_555 1_555
C20_2 C19_2 1_555 1_555
H15_2 C20_2 1_555 1_555
C21_2 C20_2 1_555 1_555
C22_2 C21_2 1_555 1_555
C23_2 C18_2 1_555 1_555
H17_2 C23_2 1_555 1_555
C24_2 C21_2 1_555 1_555
Ni7 O5 1_555 1_555
C22_2 C23_2 1_555 1_555
O2_2 H1_2 1_555 1_555
Ni7 N3_2 1_555 1_555
N3_2 C25_2 1_555 1_555
C25_2 H19_2 1_555 1_555
C26_2 C25_2 1_555 1_555
H20_2 C26_2 1_555 1_555
C27_2 C26_2 1_555 1_555
C28_2 C27_2 1_555 1_555
H21_2 C28_2 1_555 1_555
C29_2 N3_2 1_555 1_555
H22_2 C29_2 1_555 1_555
C30_2 C27_2 1_555 1_555
C31_2 C30_2 1_555 1_555
H23_2 C31_2 1_555 1_555
H25_2 C33_2 1_555 1_555
C34_2 C30_2 1_555 1_555
H26_2 C34_2 1_555 1_555
O16_2 Ni7 1_555 1_555
C28_2 C29_2 1_555 1_555
C31_2 C32_2 1_555 1_555
C33_2 C34_2 1_555 1_555
H12_2 C16_2 1_555 1_555
H13_2 C17_2 1_555 1_555
C16_2 C17_2 1_555 1_555
Ni4 O4_2 1_555 1_555
O5_2 C24_3 1_555 1_555
H14_3 C19_3 1_555 1_555
C20_3 C19_3 1_555 1_555
H15_3 C20_3 1_555 1_555
C21_3 C20_3 1_555 1_555
C24_3 C21_3 1_555 1_555
Ni5 O5_2 1_555 1_555
O2_3 H1_3 1_555 1_555
O3_3 C15_3 1_555 1_555
C13_3 C12_3 1_555 1_555
H10_3 C13_3 1_555 1_555
C14_3 C13_3 1_555 1_555
H11_3 C14_3 1_555 1_555
C15_3 C14_3 1_555 1_555
C18_3 O3_3 1_555 1_555
C23_3 C18_3 1_555 1_555
H17_3 C23_3 1_555 1_555
Ni5 N3_3 1_555 1_555
N3_3 C25_3 1_555 1_555
N5 Ni5 1_555 1_555
O8_2 Ni5 1_555 1_555
O12_2 Ni5 1_555 1_555
C25_3 H19_3 1_555 1_555
C26_3 C25_3 1_555 1_555
H20_3 C26_3 1_555 1_555
C27_3 C26_3 1_555 1_555
C28_3 C27_3 1_555 1_555
H21_3 C28_3 1_555 1_555
C29_3 N3_3 1_555 1_555
H22_3 C29_3 1_555 1_555
C30_3 C27_3 1_555 1_555
C31_3 C30_3 1_555 1_555
H23_3 C31_3 1_555 1_555
H25_3 C33_3 1_555 1_555
C34_3 C30_3 1_555 1_555
H26_3 C34_3 1_555 1_555
O16_4 Ni5 1_555 1_555
C22_3 C23_3 1_555 1_555
C28_3 C29_3 1_555 1_555
C31_3 C32_3 1_555 1_555
C33_3 C34_3 1_555 1_555
Ni1_2 N1_3 1_555 1_555
N1_3 C1_3 1_555 1_555
N5 C8_3 1_555 1_555
O1_3 Ni1_2 1_555 1_555
C1_3 H2_3 1_555 1_555
C2_3 C1_3 1_555 1_555
H3_3 C2_3 1_555 1_555
C3_3 C2_3 1_555 1_555
C4_3 C3_3 1_555 1_555
H4_3 C4_3 1_555 1_555
C5_3 N1_3 1_555 1_555
H5_3 C5_3 1_555 1_555
C6_3 C3_3 1_555 1_555
C7_3 C6_3 1_555 1_555
H6_3 C7_3 1_555 1_555
C8_3 C7_3 1_555 1_555
H7_3 C8_3 1_555 1_555
C9_3 N5 1_555 1_555
H8_3 C9_3 1_555 1_555
C10_3 C6_3 1_555 1_555
H9_3 C10_3 1_555 1_555
C11_3 O1_3 1_555 1_555
H12_3 C16_3 1_555 1_555
H13_3 C17_3 1_555 1_555
O6_2 Ni1_2 1_555 1_555
Ni6_2 O6_2 1_555 1_555
N4_3 Ni1_2 1_555 1_555
O11_3 Ni1_2 1_555 1_555
O13_2 Ni6_2 1_555 1_555
O14_2 Ni1_2 1_555 1_555
H31_3 C43_3 1_555 1_555
C44_3 C43_3 1_555 1_555
H32_3 C44_3 1_555 1_555
C45_3 C44_3 1_555 1_555
C48_3 O11_3 1_555 1_555
C4_3 C5_3 1_555 1_555
C9_3 C10_3 1_555 1_555
C16_3 C17_3 1_555 1_555
O13_2 C48_3 1_555 1_555
C45_3 C48_3 1_555 1_555
Ni4 O7_2 1_555 1_555
O7_2 C35_3 1_555 1_555
O9_3 H18_3 1_555 1_555
O10_3 C39_3 1_555 1_555
C35_3 O9_3 1_555 1_555
C36_3 C35_3 1_555 1_555
C37_3 C36_3 1_555 1_555
H27_3 C37_3 1_555 1_555
C38_3 C37_3 1_555 1_555
H28_3 C38_3 1_555 1_555
C39_3 C38_3 1_555 1_555
C40_3 C39_3 1_555 1_555
H29_3 C40_3 1_555 1_555
C41_3 C36_3 1_555 1_555
H30_3 C41_3 1_555 1_555
C42_3 O10_3 1_555 1_555
H33_3 C46_3 1_555 1_555
C47_3 C42_3 1_555 1_555
H34_3 C47_3 1_555 1_555
C40_3 C41_3 1_555 1_555
C46_3 C47_3 1_555 1_555
O2_4 H1_4 1_555 1_555
Ni4 N3_4 1_555 1_555
N3_4 C25_4 1_555 1_555
N5_2 Ni4 1_555 1_555
O15_2 Ni4 1_555 1_555
C25_4 H19_4 1_555 1_555
C26_4 C25_4 1_555 1_555
H20_4 C26_4 1_555 1_555
C27_4 C26_4 1_555 1_555
C28_4 C27_4 1_555 1_555
H21_4 C28_4 1_555 1_555
C29_4 N3_4 1_555 1_555
H22_4 C29_4 1_555 1_555
C30_4 C27_4 1_555 1_555
C31_4 C30_4 1_555 1_555
H23_4 C31_4 1_555 1_555
H25_4 C33_4 1_555 1_555
C34_4 C30_4 1_555 1_555
H26_4 C34_4 1_555 1_555
O16_3 Ni4 1_555 1_555
C28_4 C29_4 1_555 1_555
C31_4 C32_4 1_555 1_555
C33_4 C34_4 1_555 1_555
O3_4 C15_4 1_555 1_555
O15_2 C24_4 1_555 1_555
C13_4 C12_4 1_555 1_555
H10_4 C13_4 1_555 1_555
C14_4 C13_4 1_555 1_555
H11_4 C14_4 1_555 1_555
C15_4 C14_4 1_555 1_555
C18_4 O3_4 1_555 1_555
C19_4 C18_4 1_555 1_555
H14_4 C19_4 1_555 1_555
C20_4 C19_4 1_555 1_555
H15_4 C20_4 1_555 1_555
C21_4 C20_4 1_555 1_555
C22_4 C21_4 1_555 1_555
C23_4 C18_4 1_555 1_555
H17_4 C23_4 1_555 1_555
C24_4 C21_4 1_555 1_555
C22_4 C23_4 1_555 1_555
O8_2 C35_4 1_555 1_555
O9_4 H18_4 1_555 1_555
C35_4 O9_4 1_555 1_555
Ni6_2 N1_4 1_555 1_555
N1_4 C1_4 1_555 1_555
N5_2 C8_4 1_555 1_555
O1_4 Ni6_2 1_555 1_555
C1_4 H2_4 1_555 1_555
C2_4 C1_4 1_555 1_555
H3_4 C2_4 1_555 1_555
C3_4 C2_4 1_555 1_555
C4_4 C3_4 1_555 1_555
H4_4 C4_4 1_555 1_555
C5_4 N1_4 1_555 1_555
H5_4 C5_4 1_555 1_555
C6_4 C3_4 1_555 1_555
C7_4 C6_4 1_555 1_555
H6_4 C7_4 1_555 1_555
C8_4 C7_4 1_555 1_555
H7_4 C8_4 1_555 1_555
C9_4 N5_2 1_555 1_555
H8_4 C9_4 1_555 1_555
C10_4 C6_4 1_555 1_555
H9_4 C10_4 1_555 1_555
C11_4 O1_4 1_555 1_555
N4_4 Ni6_2 1_555 1_555
O10_4 C39_4 1_555 1_555
O11_4 Ni6_2 1_555 1_555
C37_4 C36_4 1_555 1_555
H27_4 C37_4 1_555 1_555
C38_4 C37_4 1_555 1_555
H28_4 C38_4 1_555 1_555
C39_4 C38_4 1_555 1_555
C40_4 C39_4 1_555 1_555
H29_4 C40_4 1_555 1_555
C41_4 C36_4 1_555 1_555
H30_4 C41_4 1_555 1_555
C42_4 O10_4 1_555 1_555
C43_4 C42_4 1_555 1_555
H31_4 C43_4 1_555 1_555
C44_4 C43_4 1_555 1_555
H32_4 C44_4 1_555 1_555
C45_4 C44_4 1_555 1_555
C46_4 C45_4 1_555 1_555
H33_4 C46_4 1_555 1_555
C47_4 C42_4 1_555 1_555
H34_4 C47_4 1_555 1_555
C48_4 O11_4 1_555 1_555
C4_4 C5_4 1_555 1_555
C9_4 C10_4 1_555 1_555
O14_2 C48_4 1_555 1_555
C40_4 C41_4 1_555 1_555
C45_4 C48_4 1_555 1_555
C46_4 C47_4 1_555 1_555
H12_4 C16_4 1_555 1_555
H13_4 C17_4 1_555 1_555
C16_4 C17_4 1_555 1_555

#END
