
###############################################################################
#
# This file contains modified crystal structure data generated from the
# MOF subset of the Cambridge Structural Database (CSD) v543 
# hosted by the Cambridge Crystallographic Data Centre (CCDC).
#
# This work is licensed under the Creative Commons
# Attribution-NonCommercial-ShareAlike 4.0 International License.
# To view a copy of this license, visit
# http://creativecommons.org/licenses/by-nc-sa/4.0/
# or send a letter to
# Creative Commons, PO Box 1866, Mountain View, CA 94042, USA.
#
# CIF created using the CSD Python API on 29 September 2022
# The structure has been converted into the P1 space group
# The structure has a 3D framework
# The original CSD entry PECCIM is in the monoclinic crystal system
# The framework has been calculated to contain at least 10.0% void space
# The void calculation uses a probe of radius 1.32A, grid spacing 0.4
#
###############################################################################

data_PECCIM
_chemical_formula_moiety         '(C288 H208 N16 O62 Zn8)n'
_symmetry_cell_setting           triclinic
_symmetry_space_group_name_H-M   'P 1'
_symmetry_Int_Tables_number      1
_space_group_name_Hall           'P 1'
loop_
_symmetry_equiv_pos_site_id
_symmetry_equiv_pos_as_xyz
1 x,y,z
_cell_length_a                   12.9802(14)
_cell_length_b                   21.770(3)
_cell_length_c                   29.233(4)
_cell_angle_alpha                90
_cell_angle_beta                 98.645(2)
_cell_angle_gamma                90
_cell_volume                     8166.78
loop_
_atom_site_label
_atom_site_type_symbol
_atom_site_fract_x
_atom_site_fract_y
_atom_site_fract_z
O4 O 0.1318(2) 0.05760(11) 0.96233(9)
O6 O 0.0839(2) 0.30360(13) 0.84440(11)
C3 C 0.0639(3) 0.15055(14) 0.92760(13)
C7 C 0.1510(3) 0.16222(15) 0.90723(14)
H1 H 0.2073 0.1354 0.9123
C9 C 0.0575(3) 0.09477(15) 0.95714(14)
C20 C 0.1563(3) 0.21326(17) 0.87926(15)
H9 H 0.2153 0.2206 0.8656
C21 C 0.0728(4) 0.25284(16) 0.87202(15)
H12 H 0.0184 0.4098 0.8631
H26 H 0.0043 0.5121 0.8617
Zn4 Zn 0.10208(3) 0.97741(2) 0.99302(2)
O7 O 0.9525(2) 0.25428(12) 0.03870(12)
C12 C 0.8260(3) 0.45333(16) 0.01158(15)
H3 H 0.8265 0.4929 0.0236
C22 C 0.9194(3) 0.42185(16) 0.01408(14)
H10 H 0.9815 0.4398 0.0277
Zn2 Zn 0.39792(3) 0.52259(2) 0.00698(2)
O11 O 0.6409(2) 0.51538(10) 0.05671(9)
O12 O 0.4833(2) 0.54823(12) 0.06786(9)
O14 O 0.9750(2) 0.91098(11) 0.47441(10)
O16 O 0.7182(3) 0.5814(2) 0.27019(13)
C51 C 0.5785(3) 0.53750(15) 0.08124(14)
C53 C 0.9824(3) 0.80839(16) 0.42005(14)
H34 H 0.9236 0.8151 0.4340
C54 C 0.6192(3) 0.55213(18) 0.13034(15)
C55 C 0.7223(3) 0.54857(19) 0.14835(16)
H35 H 0.7696 0.5379 0.1287
C56 C 0.9907(4) 0.6663(2) 0.32539(17)
C59 C 0.9859(3) 0.75752(17) 0.39223(15)
H37 H 0.9298 0.7305 0.3872
C60 C 0.9709(4) 0.6089(2) 0.34029(16)
C61 C 0.7600(4) 0.5602(2) 0.19440(17)
H39 H 0.8311 0.5585 0.2051
C62 C 0.8795(4) 0.5774(2) 0.32171(18)
C63 C 0.8146(4) 0.6073(3) 0.28751(18)
C64 C 0.6920(4) 0.5738(3) 0.2233(2)
C65 C 0.9247(5) 0.6952(2) 0.29131(19)
H40 H 0.9396 0.7343 0.2814
C66 C 0.8355(5) 0.6649(3) 0.27198(19)
H41 H 0.7896 0.6834 0.2485
C67 C 0.8550(7) 0.5145(3) 0.3403(2)
C68 C 0.5539(4) 0.5689(4) 0.1598(2)
H42 H 0.4834 0.5733 0.1487
C69 C 0.5884(5) 0.5799(5) 0.2060(2)
H43 H 0.5412 0.5914 0.2254
C70 C 0.8383(7) 0.4674(3) 0.3004(3)
H44 H 0.9008 0.4642 0.2867
H45 H 0.8219 0.4280 0.3122
H46 H 0.7819 0.4807 0.2775
C71 C 0.7586(9) 0.5183(5) 0.3637(3)
H47 H 0.7005 0.5316 0.3417
H48 H 0.7439 0.4786 0.3754
H49 H 0.7703 0.5471 0.3888
C72 C 0.9422(8) 0.4916(3) 0.3756(3)
H50 H 0.9541 0.5201 0.4009
H51 H 0.9241 0.4522 0.3868
Zn3 Zn 0.89792(3) 0.97741(2) 0.50698(2)
O18 O 0.3682(2) 0.44240(11) 0.03767(9)
N5 N 0.2648(2) 0.57098(12) 0.00740(10)
O20 O 0.5250(2) 0.41098(11) 0.02559(10)
O4_2 O 0.8682(2) 0.05760(11) 0.53767(9)
O6_2 O 0.9161(2) 0.30360(13) 0.65560(11)
C3_2 C 0.9361(3) 0.15055(14) 0.57240(13)
C7_2 C 0.8490(3) 0.16222(15) 0.59277(14)
H1_2 H 0.7927 0.1354 0.5877
C9_2 C 0.9425(3) 0.09477(15) 0.54286(14)
C20_2 C 0.8437(3) 0.21326(17) 0.62074(15)
H9_2 H 0.7847 0.2206 0.6344
C21_2 C 0.9272(4) 0.25284(16) 0.62798(15)
H12_2 H 0.9816 0.4098 0.6369
H26_2 H 0.9957 0.5121 0.6383
O11_2 O 0.8591(2) 0.01538(10) 0.44329(9)
O15 O 0.4161(2) 0.19640(13) 0.15560(11)
C49 C 0.4361(3) 0.34945(14) 0.07240(13)
O16_2 O 0.7818(3) 0.0814(2) 0.22981(13)
C50 C 0.3490(3) 0.33778(15) 0.09277(14)
H33 H 0.2927 0.3646 0.0877
C51_2 C 0.9215(3) 0.03750(15) 0.41876(14)
C52 C 0.4425(3) 0.40523(15) 0.04286(14)
C53_2 C 0.5176(3) 0.30839(16) 0.07995(14)
H34_2 H 0.5764 0.3151 0.0660
C54_2 C 0.8808(3) 0.05213(18) 0.36966(15)
C55_2 C 0.7777(3) 0.04857(19) 0.35165(16)
H35_2 H 0.7304 0.0379 0.3713
C56_2 C 0.5093(4) 0.1663(2) 0.17461(17)
C57 C 0.3437(3) 0.28674(17) 0.12074(15)
H36 H 0.2847 0.2794 0.1344
C58 C 0.4272(4) 0.24716(16) 0.12798(15)
C59_2 C 0.5141(3) 0.25752(17) 0.10777(15)
H37_2 H 0.5702 0.2305 0.1128
C60_2 C 0.5291(4) 0.1089(2) 0.15971(16)
H38 H 0.4816 0.0902 0.1369
C61_2 C 0.7400(4) 0.0602(2) 0.30560(17)
H39_2 H 0.6689 0.0585 0.2949
C62_2 C 0.6205(4) 0.0774(2) 0.17829(18)
C63_2 C 0.6854(4) 0.1073(3) 0.21249(18)
C64_2 C 0.8080(4) 0.0738(3) 0.2767(2)
C65_2 C 0.5753(5) 0.1952(2) 0.20869(19)
H40_2 H 0.5604 0.2343 0.2186
C66_2 C 0.6645(5) 0.1649(3) 0.22802(19)
H41_2 H 0.7104 0.1834 0.2515
C67_2 C 0.6450(7) 0.0145(3) 0.1597(2)
C68_2 C 0.9461(4) 0.0689(4) 0.3402(2)
C69_2 C 0.9116(5) 0.0799(5) 0.2940(2)
H43_2 H 0.9588 0.0914 0.2746
C71_2 C 0.7414(9) 0.0183(5) 0.1363(3)
H47_2 H 0.7995 0.0316 0.1583
H49_2 H 0.7297 0.0471 0.1112
H50_2 H 0.5459 0.0201 0.0991
O1 O 0.42456(19) 0.90589(10) 0.54564(10)
O3 O 0.9833(2) 0.95177(12) 0.56786(9)
N1 N 0.7648(2) 0.92902(12) 0.50740(10)
N2 N 0.4848(2) 0.83091(11) 0.50250(11)
C1 C 0.2017(2) 0.73383(13) 0.49948(12)
O7_2 O 0.5475(2) 0.75428(12) 0.46130(12)
C2 C 0.3745(3) 0.74180(14) 0.47668(13)
C4 C 0.1892(3) 0.67780(13) 0.47514(13)
C5 C 0.5815(3) 0.86408(15) 0.50375(13)
C6 C 0.4092(3) 0.85721(15) 0.52580(13)
C10 C 0.4756(3) 0.77421(16) 0.47851(15)
C11 C 0.3592(3) 0.68749(14) 0.45332(14)
H2 H 0.4109 0.6718 0.4378
C12_2 C 0.6740(3) 0.95333(16) 0.48842(15)
H3_2 H 0.6735 0.9929 0.4764
C14 C 0.2657(3) 0.65546(15) 0.45280(14)
H5 H 0.2557 0.6184 0.4369
C16 C 0.7648(3) 0.87250(16) 0.52440(14)
H6 H 0.8278 0.8549 0.5373
C17 C 0.6740(3) 0.83887(16) 0.52353(15)
H7 H 0.6759 0.7996 0.5362
C22_2 C 0.5806(3) 0.92185(16) 0.48592(14)
H10_2 H 0.5185 0.9398 0.4723
H16 H 0.9834 0.9267 0.6487
O9 O 0.07544(19) 0.59411(10) 0.45436(10)
N4 N 0.0152(2) 0.66909(11) 0.49750(11)
C37 C 0.2983(2) 0.76617(13) 0.50052(12)
C38 C 0.1255(3) 0.75820(14) 0.52332(13)
C39 C 0.3108(3) 0.82220(13) 0.52486(13)
C41 C 0.0908(3) 0.64279(15) 0.47420(13)
C42 C 0.0244(3) 0.72579(16) 0.52149(15)
C43 C 0.1408(3) 0.81251(14) 0.54668(14)
H27 H 0.0891 0.8282 0.5622
C45 C 0.2343(3) 0.84454(15) 0.54720(14)
H29 H 0.2443 0.8816 0.5631
C70_2 C 0.6617(7) 0.9674(3) 0.1996(3)
H44_2 H 0.5992 0.9642 0.2133
H45_2 H 0.6781 0.9280 0.1878
H46_2 H 0.7181 0.9807 0.2225
H48_2 H 0.7561 0.9786 0.1246
C72_2 C 0.5578(8) 0.9916(3) 0.1244(3)
H51_2 H 0.5759 0.9522 0.1132
H52 H 0.4957 0.9879 0.1383
C40 C 0.0815(3) 0.63592(15) 0.00375(13)
C46 C 0.2648(3) 0.62750(16) 0.02440(14)
H30 H 0.3278 0.6451 0.0373
C47 C 0.1740(3) 0.66113(16) 0.02353(15)
H31 H 0.1759 0.7004 0.0362
O1_2 O 0.57544(19) 0.90589(10) 0.95436(10)
O3_2 O 0.0167(2) 0.95177(12) 0.93214(9)
N1_2 N 0.2352(2) 0.92902(12) 0.99260(10)
N2_2 N 0.5152(2) 0.83091(11) 0.99750(11)
C5_2 C 0.4185(3) 0.86408(15) 0.99625(13)
C6_2 C 0.5908(3) 0.85721(15) 0.97420(13)
C16_2 C 0.2352(3) 0.87250(16) 0.97560(14)
H6_2 H 0.1722 0.8549 0.9627
C17_2 C 0.3260(3) 0.83887(16) 0.97647(15)
H7_2 H 0.3241 0.7996 0.9638
H16_2 H 0.0166 0.9267 0.8513
C37_2 C 0.7017(2) 0.76617(13) 0.99948(12)
C38_2 C 0.8745(3) 0.75820(14) 0.97668(13)
C39_2 C 0.6892(3) 0.82220(13) 0.97514(13)
C42_2 C 0.9756(3) 0.72579(16) 0.97851(15)
C43_2 C 0.8592(3) 0.81251(14) 0.95332(14)
H27_2 H 0.9109 0.8282 0.9378
C45_2 C 0.7657(3) 0.84454(15) 0.95280(14)
H29_2 H 0.7557 0.8816 0.9369
Zn7 Zn 0.89792(3) 0.02259(2) 0.00698(2)
O1_3 O 0.92456(19) 0.40589(10) 0.54564(10)
N2_3 N 0.9848(2) 0.33091(11) 0.50250(11)
C1_2 C 0.7017(2) 0.23383(13) 0.49948(12)
C2_2 C 0.8745(3) 0.24180(14) 0.47668(13)
C4_2 C 0.6892(3) 0.17780(13) 0.47514(13)
C6_3 C 0.9092(3) 0.35721(15) 0.52580(13)
C10_2 C 0.9756(3) 0.27421(16) 0.47851(15)
C11_2 C 0.8592(3) 0.18749(14) 0.45332(14)
H2_2 H 0.9109 0.1718 0.4378
C14_2 C 0.7657(3) 0.15546(15) 0.45280(14)
H5_2 H 0.7557 0.1184 0.4369
O9_2 O 0.57544(19) 0.09411(10) 0.45436(10)
N3 N 0.2352(2) 0.07098(12) 0.49260(10)
N4_2 N 0.5152(2) 0.16909(11) 0.49750(11)
C37_3 C 0.7983(2) 0.26617(13) 0.50052(12)
O10 O 0.4525(2) 0.24572(12) 0.53870(12)
C38_3 C 0.6255(3) 0.25820(14) 0.52332(13)
C39_3 C 0.8108(3) 0.32220(13) 0.52486(13)
C40_2 C 0.4185(3) 0.13592(15) 0.49625(13)
C41_2 C 0.5908(3) 0.14279(15) 0.47420(13)
C42_3 C 0.5244(3) 0.22579(16) 0.52149(15)
C43_3 C 0.6408(3) 0.31251(14) 0.54668(14)
H27_3 H 0.5891 0.3282 0.5622
C44 C 0.3260(3) 0.04667(16) 0.51158(15)
H28 H 0.3265 0.0071 0.5236
C45_3 C 0.7343(3) 0.34454(15) 0.54720(14)
H29_3 H 0.7443 0.3816 0.5631
C46_2 C 0.2352(3) 0.12750(16) 0.47560(14)
H30_2 H 0.1722 0.1451 0.4627
C47_2 C 0.3260(3) 0.16113(16) 0.47647(15)
H31_2 H 0.3241 0.2004 0.4638
C48 C 0.4194(3) 0.07815(16) 0.51408(14)
H32 H 0.4815 0.0602 0.5277
O13 O 0.8682(2) 0.94240(11) 0.03767(9)
O15_2 O 0.9161(2) 0.69640(13) 0.15560(11)
C49_2 C 0.9361(3) 0.84945(14) 0.07240(13)
C50_2 C 0.8490(3) 0.83778(15) 0.09277(14)
H33_2 H 0.7927 0.8646 0.0877
C52_2 C 0.9425(3) 0.90523(15) 0.04286(14)
C57_2 C 0.8437(3) 0.78674(17) 0.12074(15)
H36_2 H 0.7847 0.7794 0.1344
C58_2 C 0.9272(4) 0.74716(16) 0.12798(15)
H38_2 H 0.9816 0.5902 0.1369
H52_2 H 0.9957 0.4879 0.1383
Zn5 Zn 0.10208(3) 0.02259(2) 0.49302(2)
C1_3 C 0.2983(2) 0.23383(13) 0.00052(12)
C2_3 C 0.1255(3) 0.24180(14) 0.02332(13)
C4_3 C 0.3108(3) 0.17780(13) 0.02486(13)
C10_3 C 0.0244(3) 0.27421(16) 0.02149(15)
C11_3 C 0.1408(3) 0.18749(14) 0.04668(14)
H2_3 H 0.0891 0.1718 0.0622
C14_3 C 0.2343(3) 0.15546(15) 0.04720(14)
H5_3 H 0.2443 0.1184 0.0631
O9_3 O 0.42456(19) 0.09411(10) 0.04564(10)
N3_2 N 0.7648(2) 0.07098(12) 0.00740(10)
N4_3 N 0.4848(2) 0.16909(11) 0.00250(11)
C40_3 C 0.5815(3) 0.13592(15) 0.00375(13)
C41_3 C 0.4092(3) 0.14279(15) 0.02580(13)
C46_3 C 0.7648(3) 0.12750(16) 0.02440(14)
H30_3 H 0.8278 0.1451 0.0373
C47_3 C 0.6740(3) 0.16113(16) 0.02353(15)
H31_3 H 0.6759 0.2004 0.0362
O13_2 O 0.1318(2) 0.94240(11) 0.46233(9)
O15_3 O 0.0839(2) 0.69640(13) 0.34440(11)
C49_3 C 0.0639(3) 0.84945(14) 0.42760(13)
C50_3 C 0.1510(3) 0.83778(15) 0.40723(14)
H33_3 H 0.2073 0.8646 0.4123
C52_3 C 0.0575(3) 0.90523(15) 0.45714(14)
C57_3 C 0.1563(3) 0.78674(17) 0.37926(15)
H36_3 H 0.2153 0.7794 0.3656
C58_3 C 0.0728(4) 0.74716(16) 0.37202(15)
H38_3 H 0.0184 0.5902 0.3631
H52_3 H 0.0043 0.4879 0.3617
Zn1 Zn 0.60208(3) 0.47741(2) 0.99302(2)
O2 O 0.3591(2) 0.48462(10) 0.94329(9)
O3_3 O 0.5167(2) 0.45177(12) 0.93214(9)
N1_3 N 0.7352(2) 0.42902(12) 0.99260(10)
O5 O 0.0250(2) 0.08902(11) 0.52559(10)
C5_3 C 0.9185(3) 0.36408(15) 0.99625(13)
O8 O 0.2818(3) 0.4186(2) 0.72981(13)
C8 C 0.4215(3) 0.46250(15) 0.91876(14)
C13 C 0.0176(3) 0.19161(16) 0.57995(14)
H4 H 0.0764 0.1849 0.5660
C15 C 0.3808(3) 0.44787(18) 0.86966(15)
C16_3 C 0.7352(3) 0.37250(16) 0.97560(14)
H6_3 H 0.6722 0.3549 0.9627
C17_3 C 0.8260(3) 0.33887(16) 0.97647(15)
H7_3 H 0.8241 0.2996 0.9638
C18 C 0.2777(3) 0.45143(19) 0.85165(16)
H8 H 0.2304 0.4621 0.8713
C19 C 0.0093(4) 0.3337(2) 0.67461(17)
C23 C 0.0141(3) 0.24248(17) 0.60777(15)
H11 H 0.0702 0.2695 0.6128
C24 C 0.0291(4) 0.3911(2) 0.65971(16)
C25 C 0.2400(4) 0.4398(2) 0.80560(17)
H13 H 0.1689 0.4415 0.7949
C26 C 0.1205(4) 0.4226(2) 0.67829(18)
C27 C 0.1854(4) 0.3927(3) 0.71249(18)
C28 C 0.3080(4) 0.4262(3) 0.7767(2)
C29 C 0.0753(5) 0.3048(2) 0.70869(19)
H14 H 0.0604 0.2657 0.7186
C30 C 0.1645(5) 0.3351(3) 0.72802(19)
H15 H 0.2104 0.3166 0.7515
C31 C 0.1450(7) 0.4855(3) 0.6597(2)
C32 C 0.4461(4) 0.4311(4) 0.8402(2)
H16_3 H 0.5166 0.4267 0.8513
C33 C 0.4116(5) 0.4201(5) 0.7940(2)
H17 H 0.4588 0.4086 0.7746
C34 C 0.1617(7) 0.5326(3) 0.6996(3)
H18 H 0.0992 0.5358 0.7133
H19 H 0.1781 0.5720 0.6878
H20 H 0.2181 0.5193 0.7225
C35 C 0.2414(9) 0.4817(5) 0.6363(3)
H21 H 0.2995 0.4684 0.6583
H22 H 0.2561 0.5214 0.6246
H23 H 0.2297 0.4529 0.6112
C36 C 0.0578(8) 0.5084(3) 0.6244(3)
H24 H 0.0459 0.4799 0.5991
H25 H 0.0759 0.5478 0.6132
O17 O 0.6318(2) 0.55760(11) 0.96233(9)
O19 O 0.4750(2) 0.58902(11) 0.97441(10)
C34_2 C 0.3383(7) 0.0326(3) 0.8004(3)
H18_2 H 0.4008 0.0358 0.7867
H19_2 H 0.3219 0.0720 0.8122
H20_2 H 0.2819 0.0193 0.7775
H22_2 H 0.2439 0.0214 0.8754
C36_2 C 0.4422(8) 0.0084(3) 0.8756(3)
H25_2 H 0.4241 0.0478 0.8868
H26_3 H 0.5043 0.0121 0.8617
O12_2 O 0.0167(2) 0.04823(12) 0.43214(9)
H42_2 H 0.0166 0.0733 0.3513
O2_2 O 0.1409(2) 0.98462(10) 0.55671(9)
O6_3 O 0.5839(2) 0.80360(13) 0.84440(11)
C3_3 C 0.5639(3) 0.65055(14) 0.92760(13)
O8_2 O 0.2182(3) 0.9186(2) 0.77019(13)
C7_3 C 0.6510(3) 0.66222(15) 0.90723(14)
H1_3 H 0.7073 0.6354 0.9123
C8_2 C 0.0785(3) 0.96250(15) 0.58124(14)
C9_3 C 0.5575(3) 0.59477(15) 0.95714(14)
C13_2 C 0.4824(3) 0.69161(16) 0.92005(14)
H4_2 H 0.4236 0.6849 0.9340
C15_2 C 0.1192(3) 0.94787(18) 0.63034(15)
C18_2 C 0.2223(3) 0.95143(19) 0.64835(16)
H8_2 H 0.2696 0.9621 0.6287
C19_2 C 0.4907(4) 0.8337(2) 0.82539(17)
C20_3 C 0.6563(3) 0.71326(17) 0.87926(15)
H9_3 H 0.7153 0.7206 0.8656
C21_3 C 0.5728(4) 0.75284(16) 0.87202(15)
C23_2 C 0.4859(3) 0.74248(17) 0.89223(15)
H11_2 H 0.4298 0.7695 0.8872
C24_2 C 0.4709(4) 0.8911(2) 0.84029(16)
H12_3 H 0.5184 0.9098 0.8631
C25_2 C 0.2600(4) 0.9398(2) 0.69440(17)
H13_2 H 0.3311 0.9415 0.7051
C26_2 C 0.3795(4) 0.9226(2) 0.82171(18)
C27_2 C 0.3146(4) 0.8927(3) 0.78751(18)
C28_2 C 0.1920(4) 0.9262(3) 0.7233(2)
C29_2 C 0.4247(5) 0.8048(2) 0.79131(19)
H14_2 H 0.4396 0.7657 0.7814
C30_2 C 0.3355(5) 0.8351(3) 0.77198(19)
H15_2 H 0.2896 0.8166 0.7485
C31_2 C 0.3550(7) 0.9855(3) 0.8403(2)
C32_2 C 0.0539(4) 0.9311(4) 0.6598(2)
C33_2 C 0.0884(5) 0.9201(5) 0.7060(2)
H17_2 H 0.0412 0.9086 0.7254
C35_2 C 0.2586(9) 0.9817(5) 0.8637(3)
H21_2 H 0.2005 0.9684 0.8417
H23_2 H 0.2703 0.9529 0.8888
H24_2 H 0.4541 0.9799 0.9009
O10_2 O 0.0475(2) 0.74572(12) 0.96130(12)
C44_2 C 0.1740(3) 0.54667(16) 0.98842(15)
H28_2 H 0.1735 0.5071 0.9764
C48_2 C 0.0806(3) 0.57815(16) 0.98592(14)
H32_2 H 0.0185 0.5602 0.9723
O12_3 O 0.9833(2) 0.04823(12) 0.06786(9)
H42_3 H 0.9834 0.0733 0.1487
Zn1_2 Zn 0.39792(3) 0.47741(2) 0.50698(2)
O2_3 O 0.6409(2) 0.48462(10) 0.55671(9)
O3_4 O 0.4833(2) 0.45177(12) 0.56786(9)
N1_4 N 0.2648(2) 0.42902(12) 0.50740(10)
O5_2 O 0.9750(2) 0.08902(11) 0.97441(10)
O7_3 O 0.0475(2) 0.25428(12) 0.46130(12)
C5_4 C 0.0815(3) 0.36408(15) 0.50375(13)
O8_3 O 0.7182(3) 0.4186(2) 0.77019(13)
C8_3 C 0.5785(3) 0.46250(15) 0.58124(14)
C12_3 C 0.1740(3) 0.45333(16) 0.48842(15)
H3_3 H 0.1735 0.4929 0.4764
C13_3 C 0.9824(3) 0.19161(16) 0.92005(14)
H4_3 H 0.9236 0.1849 0.9340
C15_3 C 0.6192(3) 0.44787(18) 0.63034(15)
C16_4 C 0.2648(3) 0.37250(16) 0.52440(14)
H6_4 H 0.3278 0.3549 0.5373
C17_4 C 0.1740(3) 0.33887(16) 0.52353(15)
H7_4 H 0.1759 0.2996 0.5362
C18_3 C 0.7223(3) 0.45143(19) 0.64835(16)
H8_3 H 0.7696 0.4621 0.6287
C19_3 C 0.9907(4) 0.3337(2) 0.82539(17)
C22_3 C 0.0806(3) 0.42185(16) 0.48592(14)
H10_3 H 0.0185 0.4398 0.4723
C23_3 C 0.9859(3) 0.24248(17) 0.89223(15)
H11_3 H 0.9298 0.2695 0.8872
C24_3 C 0.9709(4) 0.3911(2) 0.84029(16)
C25_3 C 0.7600(4) 0.4398(2) 0.69440(17)
H13_3 H 0.8311 0.4415 0.7051
C26_3 C 0.8795(4) 0.4226(2) 0.82171(18)
C27_3 C 0.8146(4) 0.3927(3) 0.78751(18)
C28_3 C 0.6920(4) 0.4262(3) 0.7233(2)
C29_3 C 0.9247(5) 0.3048(2) 0.79131(19)
H14_3 H 0.9396 0.2657 0.7814
C30_3 C 0.8355(5) 0.3351(3) 0.77198(19)
H15_3 H 0.7896 0.3166 0.7485
C31_3 C 0.8550(7) 0.4855(3) 0.8403(2)
C32_3 C 0.5539(4) 0.4311(4) 0.6598(2)
H16_4 H 0.4834 0.4267 0.6487
C33_3 C 0.5884(5) 0.4201(5) 0.7060(2)
H17_3 H 0.5412 0.4086 0.7254
C34_3 C 0.8383(7) 0.5326(3) 0.8004(3)
H18_3 H 0.9008 0.5358 0.7867
H19_3 H 0.8219 0.5720 0.8122
H20_3 H 0.7819 0.5193 0.7775
C35_3 C 0.7586(9) 0.4817(5) 0.8637(3)
H21_3 H 0.7005 0.4684 0.8417
H22_3 H 0.7439 0.5214 0.8754
H23_3 H 0.7703 0.4529 0.8888
C36_3 C 0.9422(8) 0.5084(3) 0.8756(3)
H24_3 H 0.9541 0.4799 0.9009
H25_3 H 0.9241 0.5478 0.8868
Zn2_2 Zn 0.60208(3) 0.52259(2) 0.49302(2)
O11_3 O 0.3591(2) 0.51538(10) 0.44329(9)
O12_4 O 0.5167(2) 0.54823(12) 0.43214(9)
O14_2 O 0.0250(2) 0.91098(11) 0.02559(10)
O16_3 O 0.2818(3) 0.5814(2) 0.22981(13)
C51_3 C 0.4215(3) 0.53750(15) 0.41876(14)
C53_3 C 0.0176(3) 0.80839(16) 0.07995(14)
H34_3 H 0.0764 0.8151 0.0660
C54_3 C 0.3808(3) 0.55213(18) 0.36966(15)
C55_3 C 0.2777(3) 0.54857(19) 0.35165(16)
H35_3 H 0.2304 0.5379 0.3713
C56_3 C 0.0093(4) 0.6663(2) 0.17461(17)
C59_3 C 0.0141(3) 0.75752(17) 0.10777(15)
H37_3 H 0.0702 0.7305 0.1128
C60_3 C 0.0291(4) 0.6089(2) 0.15971(16)
C61_3 C 0.2400(4) 0.5602(2) 0.30560(17)
H39_3 H 0.1689 0.5585 0.2949
C62_3 C 0.1205(4) 0.5774(2) 0.17829(18)
C63_3 C 0.1854(4) 0.6073(3) 0.21249(18)
C64_3 C 0.3080(4) 0.5738(3) 0.2767(2)
C65_3 C 0.0753(5) 0.6952(2) 0.20869(19)
H40_3 H 0.0604 0.7343 0.2186
C66_3 C 0.1645(5) 0.6649(3) 0.22802(19)
H41_3 H 0.2104 0.6834 0.2515
C67_3 C 0.1450(7) 0.5145(3) 0.1597(2)
C68_3 C 0.4461(4) 0.5689(4) 0.3402(2)
H42_4 H 0.5166 0.5733 0.3513
C69_3 C 0.4116(5) 0.5799(5) 0.2940(2)
H43_3 H 0.4588 0.5914 0.2746
C70_3 C 0.1617(7) 0.4674(3) 0.1996(3)
H44_3 H 0.0992 0.4642 0.2133
H45_3 H 0.1781 0.4280 0.1878
H46_3 H 0.2181 0.4807 0.2225
C71_3 C 0.2414(9) 0.5183(5) 0.1363(3)
H47_3 H 0.2995 0.5316 0.1583
H48_3 H 0.2561 0.4786 0.1246
H49_3 H 0.2297 0.5471 0.1112
C72_3 C 0.0578(8) 0.4916(3) 0.1244(3)
H50_3 H 0.0459 0.5201 0.0991
H51_3 H 0.0759 0.4522 0.1132
O17_2 O 0.3682(2) 0.55760(11) 0.53767(9)
O18_2 O 0.6318(2) 0.44240(11) 0.46233(9)
N5_2 N 0.7352(2) 0.57098(12) 0.49260(10)
O19_2 O 0.5250(2) 0.58902(11) 0.52559(10)
O20_2 O 0.4750(2) 0.41098(11) 0.47441(10)
O1_4 O 0.07544(19) 0.40589(10) 0.95436(10)
N2_4 N 0.0152(2) 0.33091(11) 0.99750(11)
C6_4 C 0.0908(3) 0.35721(15) 0.97420(13)
C37_4 C 0.2017(2) 0.26617(13) 0.99948(12)
O10_3 O 0.5475(2) 0.24572(12) 0.96130(12)
C38_4 C 0.3745(3) 0.25820(14) 0.97668(13)
C39_4 C 0.1892(3) 0.32220(13) 0.97514(13)
C42_4 C 0.4756(3) 0.22579(16) 0.97851(15)
C43_4 C 0.3592(3) 0.31251(14) 0.95332(14)
H27_4 H 0.4109 0.3282 0.9378
C44_3 C 0.6740(3) 0.04667(16) 0.98842(15)
H28_3 H 0.6735 0.0071 0.9764
C45_4 C 0.2657(3) 0.34454(15) 0.95280(14)
H29_4 H 0.2557 0.3816 0.9369
C48_3 C 0.5806(3) 0.07815(16) 0.98592(14)
H32_3 H 0.5185 0.0602 0.9723
O10_4 O 0.9525(2) 0.74572(12) 0.53870(12)
C40_4 C 0.9185(3) 0.63592(15) 0.49625(13)
C44_4 C 0.8260(3) 0.54667(16) 0.51158(15)
H28_4 H 0.8265 0.5071 0.5236
C46_4 C 0.7352(3) 0.62750(16) 0.47560(14)
H30_4 H 0.6722 0.6451 0.4627
C47_4 C 0.8260(3) 0.66113(16) 0.47647(15)
H31_4 H 0.8241 0.7004 0.4638
C48_4 C 0.9194(3) 0.57815(16) 0.51408(14)
H32_4 H 0.9815 0.5602 0.5277
O11_4 O 0.1409(2) 0.01538(10) 0.05671(9)
O15_4 O 0.5839(2) 0.19640(13) 0.34440(11)
C49_4 C 0.5639(3) 0.34945(14) 0.42760(13)
O16_4 O 0.2182(3) 0.0814(2) 0.27019(13)
C50_4 C 0.6510(3) 0.33778(15) 0.40723(14)
H33_4 H 0.7073 0.3646 0.4123
C51_4 C 0.0785(3) 0.03750(15) 0.08124(14)
C52_4 C 0.5575(3) 0.40523(15) 0.45714(14)
C53_4 C 0.4824(3) 0.30839(16) 0.42005(14)
H34_4 H 0.4236 0.3151 0.4340
C54_4 C 0.1192(3) 0.05213(18) 0.13034(15)
C55_4 C 0.2223(3) 0.04857(19) 0.14835(16)
H35_4 H 0.2696 0.0379 0.1287
C56_4 C 0.4907(4) 0.1663(2) 0.32539(17)
C57_4 C 0.6563(3) 0.28674(17) 0.37926(15)
H36_4 H 0.7153 0.2794 0.3656
C58_4 C 0.5728(4) 0.24716(16) 0.37202(15)
C59_4 C 0.4859(3) 0.25752(17) 0.39223(15)
H37_4 H 0.4298 0.2305 0.3872
C60_4 C 0.4709(4) 0.1089(2) 0.34029(16)
H38_4 H 0.5184 0.0902 0.3631
C61_4 C 0.2600(4) 0.0602(2) 0.19440(17)
H39_4 H 0.3311 0.0585 0.2051
C62_4 C 0.3795(4) 0.0774(2) 0.32171(18)
C63_4 C 0.3146(4) 0.1073(3) 0.28751(18)
C64_4 C 0.1920(4) 0.0738(3) 0.2233(2)
C65_4 C 0.4247(5) 0.1952(2) 0.29131(19)
H40_4 H 0.4396 0.2343 0.2814
C66_4 C 0.3355(5) 0.1649(3) 0.27198(19)
H41_4 H 0.2896 0.1834 0.2485
C67_4 C 0.3550(7) 0.0145(3) 0.3403(2)
C68_4 C 0.0539(4) 0.0689(4) 0.1598(2)
C69_4 C 0.0884(5) 0.0799(5) 0.2060(2)
H43_4 H 0.0412 0.0914 0.2254
C71_4 C 0.2586(9) 0.0183(5) 0.3637(3)
H47_4 H 0.2005 0.0316 0.3417
H49_4 H 0.2703 0.0471 0.3888
H50_4 H 0.4541 0.0201 0.4009
C1_4 C 0.7983(2) 0.73383(13) 0.00052(12)
O7_4 O 0.4525(2) 0.75428(12) 0.03870(12)
C2_4 C 0.6255(3) 0.74180(14) 0.02332(13)
C4_4 C 0.8108(3) 0.67780(13) 0.02486(13)
C10_4 C 0.5244(3) 0.77421(16) 0.02149(15)
C11_4 C 0.6408(3) 0.68749(14) 0.04668(14)
H2_4 H 0.5891 0.6718 0.0622
C12_4 C 0.3260(3) 0.95333(16) 0.01158(15)
H3_4 H 0.3265 0.9929 0.0236
C14_4 C 0.7343(3) 0.65546(15) 0.04720(14)
H5_4 H 0.7443 0.6184 0.0631
C22_4 C 0.4194(3) 0.92185(16) 0.01408(14)
H10_4 H 0.4815 0.9398 0.0277
O9_4 O 0.92456(19) 0.59411(10) 0.04564(10)
N4_4 N 0.9848(2) 0.66909(11) 0.00250(11)
C41_4 C 0.9092(3) 0.64279(15) 0.02580(13)
C70_4 C 0.3383(7) 0.9674(3) 0.3004(3)
H44_4 H 0.4008 0.9642 0.2867
H45_4 H 0.3219 0.9280 0.3122
H46_4 H 0.2819 0.9807 0.2775
H48_4 H 0.2439 0.9786 0.3754
C72_4 C 0.4422(8) 0.9916(3) 0.3756(3)
H51_4 H 0.4241 0.9522 0.3868
H52_4 H 0.5043 0.9879 0.3617
C34_4 C 0.6617(7) 0.0326(3) 0.6996(3)
H18_4 H 0.5992 0.0358 0.7133
H19_4 H 0.6781 0.0720 0.6878
H20_4 H 0.7181 0.0193 0.7225
H22_4 H 0.7561 0.0214 0.6246
C36_4 C 0.5578(8) 0.0084(3) 0.6244(3)
H25_4 H 0.5759 0.0478 0.6132
H26_4 H 0.4957 0.0121 0.6383
O2_4 O 0.8591(2) 0.98462(10) 0.94329(9)
O6_4 O 0.4161(2) 0.80360(13) 0.65560(11)
C3_4 C 0.4361(3) 0.65055(14) 0.57240(13)
O8_4 O 0.7818(3) 0.9186(2) 0.72981(13)
C7_4 C 0.3490(3) 0.66222(15) 0.59277(14)
H1_4 H 0.2927 0.6354 0.5877
C8_4 C 0.9215(3) 0.96250(15) 0.91876(14)
C9_4 C 0.4425(3) 0.59477(15) 0.54286(14)
C13_4 C 0.5176(3) 0.69161(16) 0.57995(14)
H4_4 H 0.5764 0.6849 0.5660
C15_4 C 0.8808(3) 0.94787(18) 0.86966(15)
C18_4 C 0.7777(3) 0.95143(19) 0.85165(16)
H8_4 H 0.7304 0.9621 0.8713
C19_4 C 0.5093(4) 0.8337(2) 0.67461(17)
C20_4 C 0.3437(3) 0.71326(17) 0.62074(15)
H9_4 H 0.2847 0.7206 0.6344
C21_4 C 0.4272(4) 0.75284(16) 0.62798(15)
C23_4 C 0.5141(3) 0.74248(17) 0.60777(15)
H11_4 H 0.5702 0.7695 0.6128
C24_4 C 0.5291(4) 0.8911(2) 0.65971(16)
H12_4 H 0.4816 0.9098 0.6369
C25_4 C 0.7400(4) 0.9398(2) 0.80560(17)
H13_4 H 0.6689 0.9415 0.7949
C26_4 C 0.6205(4) 0.9226(2) 0.67829(18)
C27_4 C 0.6854(4) 0.8927(3) 0.71249(18)
C28_4 C 0.8080(4) 0.9262(3) 0.7767(2)
C29_4 C 0.5753(5) 0.8048(2) 0.70869(19)
H14_4 H 0.5604 0.7657 0.7186
C30_4 C 0.6645(5) 0.8351(3) 0.72802(19)
H15_4 H 0.7104 0.8166 0.7515
C31_4 C 0.6450(7) 0.9855(3) 0.6597(2)
C32_4 C 0.9461(4) 0.9311(4) 0.8402(2)
C33_4 C 0.9116(5) 0.9201(5) 0.7940(2)
H17_4 H 0.9588 0.9086 0.7746
C35_4 C 0.7414(9) 0.9817(5) 0.6363(3)
H21_4 H 0.7995 0.9684 0.6583
H23_4 H 0.7297 0.9529 0.6112
H24_4 H 0.5459 0.9799 0.5991
loop_
_geom_bond_atom_site_label_1
_geom_bond_atom_site_label_2
_geom_bond_site_symmetry_1
_geom_bond_site_symmetry_2
O4 C9 1_555 1_555
C3 C7 1_555 1_555
C7 H1 1_555 1_555
C9 C3 1_555 1_555
C20 C7 1_555 1_555
H9 C20 1_555 1_555
C21 O6 1_555 1_555
C20 C21 1_555 1_555
H3 C12 1_555 1_555
H10 C22 1_555 1_555
O12 Zn2 1_555 1_555
O16 C63 1_555 1_555
C51 O11 1_555 1_555
H34 C53 1_555 1_555
C54 C51 1_555 1_555
C55 C54 1_555 1_555
H35 C55 1_555 1_555
C56 C60 1_555 1_555
C59 C53 1_555 1_555
H37 C59 1_555 1_555
C61 C55 1_555 1_555
H39 C61 1_555 1_555
C62 C60 1_555 1_555
C63 C62 1_555 1_555
C64 O16 1_555 1_555
C65 C56 1_555 1_555
H40 C65 1_555 1_555
C66 C63 1_555 1_555
H41 C66 1_555 1_555
C67 C62 1_555 1_555
C68 C54 1_555 1_555
H42 C68 1_555 1_555
C69 C64 1_555 1_555
H43 C69 1_555 1_555
C70 C67 1_555 1_555
H44 C70 1_555 1_555
H45 C70 1_555 1_555
H46 C70 1_555 1_555
C71 C67 1_555 1_555
H47 C71 1_555 1_555
H48 C71 1_555 1_555
H49 C71 1_555 1_555
C72 C67 1_555 1_555
H50 C72 1_555 1_555
H51 C72 1_555 1_555
Zn3 O14 1_555 1_555
O18 Zn2 1_555 1_555
N5 Zn2 1_555 1_555
C12 C22 1_555 1_555
O12 C51 1_555 1_555
C61 C64 1_555 1_555
C65 C66 1_555 1_555
C68 C69 1_555 1_555
O4_2 C9_2 1_555 1_555
C3_2 C7_2 1_555 1_555
C7_2 H1_2 1_555 1_555
C9_2 C3_2 1_555 1_555
C20_2 C7_2 1_555 1_555
H9_2 C20_2 1_555 1_555
C21_2 O6_2 1_555 1_555
C20_2 C21_2 1_555 1_555
O18 C52 1_555 1_555
O20 C52 1_555 1_555
O15 C56_2 1_555 1_555
C49 C50 1_555 1_555
O16_2 C63_2 1_555 1_555
C50 H33 1_555 1_555
C51_2 O11_2 1_555 1_555
C52 C49 1_555 1_555
C53_2 C49 1_555 1_555
H34_2 C53_2 1_555 1_555
C54_2 C51_2 1_555 1_555
C55_2 C54_2 1_555 1_555
H35_2 C55_2 1_555 1_555
C56_2 C60_2 1_555 1_555
C57 C50 1_555 1_555
H36 C57 1_555 1_555
C58 O15 1_555 1_555
C59_2 C53_2 1_555 1_555
H37_2 C59_2 1_555 1_555
C60_2 H38 1_555 1_555
C61_2 C55_2 1_555 1_555
H39_2 C61_2 1_555 1_555
C62_2 C60_2 1_555 1_555
C63_2 C62_2 1_555 1_555
C64_2 O16_2 1_555 1_555
C65_2 C56_2 1_555 1_555
H40_2 C65_2 1_555 1_555
C66_2 C63_2 1_555 1_555
H41_2 C66_2 1_555 1_555
C67_2 C62_2 1_555 1_555
C68_2 C54_2 1_555 1_555
C69_2 C64_2 1_555 1_555
H43_2 C69_2 1_555 1_555
C71_2 C67_2 1_555 1_555
H47_2 C71_2 1_555 1_555
H49_2 C71_2 1_555 1_555
C57 C58 1_555 1_555
C58 C59_2 1_555 1_555
C61_2 C64_2 1_555 1_555
C65_2 C66_2 1_555 1_555
C68_2 C69_2 1_555 1_555
Zn3 O3 1_555 1_555
O1 C6 1_555 1_555
N1 Zn3 1_555 1_555
N2 C5 1_555 1_555
C1 C4 1_555 1_555
O7_2 C10 1_555 1_555
C2 C10 1_555 1_555
C4 C14 1_555 1_555
C5 C17 1_555 1_555
C6 N2 1_555 1_555
C10 N2 1_555 1_555
C11 C2 1_555 1_555
H2 C11 1_555 1_555
C12_2 N1 1_555 1_555
H3_2 C12_2 1_555 1_555
C14 C11 1_555 1_555
H5 C14 1_555 1_555
C16 N1 1_555 1_555
H6 C16 1_555 1_555
C17 C16 1_555 1_555
H7 C17 1_555 1_555
C22_2 C5 1_555 1_555
H10_2 C22_2 1_555 1_555
O9 C41 1_555 1_555
C37 C1 1_555 1_555
C38 C1 1_555 1_555
C39 C6 1_555 1_555
C41 C4 1_555 1_555
C42 N4 1_555 1_555
C43 C38 1_555 1_555
H27 C43 1_555 1_555
C45 C39 1_555 1_555
H29 C45 1_555 1_555
H44_2 C70_2 1_555 1_555
H45_2 C70_2 1_555 1_555
H46_2 C70_2 1_555 1_555
H51_2 C72_2 1_555 1_555
H52 C72_2 1_555 1_555
C2 C37 1_555 1_555
C12_2 C22_2 1_555 1_555
N4 C41 1_555 1_555
C37 C39 1_555 1_555
C38 C42 1_555 1_555
C43 C45 1_555 1_555
C40 C47 1_555 1_555
C46 N5 1_555 1_555
H30 C46 1_555 1_555
C47 C46 1_555 1_555
H31 C47 1_555 1_555
Zn4 O3_2 1_555 1_555
O1_2 C6_2 1_555 1_555
N1_2 Zn4 1_555 1_555
N2_2 C5_2 1_555 1_555
C5_2 C17_2 1_555 1_555
C6_2 N2_2 1_555 1_555
C16_2 N1_2 1_555 1_555
H6_2 C16_2 1_555 1_555
C17_2 C16_2 1_555 1_555
H7_2 C17_2 1_555 1_555
C39_2 C6_2 1_555 1_555
C43_2 C38_2 1_555 1_555
H27_2 C43_2 1_555 1_555
C45_2 C39_2 1_555 1_555
H29_2 C45_2 1_555 1_555
C37_2 C39_2 1_555 1_555
C38_2 C42_2 1_555 1_555
C43_2 C45_2 1_555 1_555
O1_3 C6_3 1_555 1_555
C1_2 C4_2 1_555 1_555
C2_2 C10_2 1_555 1_555
C4_2 C14_2 1_555 1_555
C6_3 N2_3 1_555 1_555
C10_2 N2_3 1_555 1_555
C11_2 C2_2 1_555 1_555
H2_2 C11_2 1_555 1_555
C14_2 C11_2 1_555 1_555
H5_2 C14_2 1_555 1_555
O9_2 C41_2 1_555 1_555
N3 C44 1_555 1_555
N4_2 C40_2 1_555 1_555
C37_3 C1_2 1_555 1_555
O10 C42_3 1_555 1_555
C38_3 C1_2 1_555 1_555
C39_3 C6_3 1_555 1_555
C40_2 C47_2 1_555 1_555
C41_2 C4_2 1_555 1_555
C42_3 N4_2 1_555 1_555
C43_3 C38_3 1_555 1_555
H27_3 C43_3 1_555 1_555
C44 H28 1_555 1_555
C45_3 C39_3 1_555 1_555
H29_3 C45_3 1_555 1_555
C46_2 N3 1_555 1_555
H30_2 C46_2 1_555 1_555
C47_2 C46_2 1_555 1_555
H31_2 C47_2 1_555 1_555
C48 C40_2 1_555 1_555
H32 C48 1_555 1_555
O13 C52_2 1_555 1_555
C49_2 C50_2 1_555 1_555
C50_2 H33_2 1_555 1_555
C52_2 C49_2 1_555 1_555
C57_2 C50_2 1_555 1_555
H36_2 C57_2 1_555 1_555
C58_2 O15_2 1_555 1_555
Zn5 N3 1_555 1_555
C2_2 C37_3 1_555 1_555
N4_2 C41_2 1_555 1_555
C37_3 C39_3 1_555 1_555
C38_3 C42_3 1_555 1_555
C43_3 C45_3 1_555 1_555
C44 C48 1_555 1_555
C57_2 C58_2 1_555 1_555
C1_3 C4_3 1_555 1_555
C2_3 C10_3 1_555 1_555
C4_3 C14_3 1_555 1_555
C11_3 C2_3 1_555 1_555
H2_3 C11_3 1_555 1_555
C14_3 C11_3 1_555 1_555
H5_3 C14_3 1_555 1_555
O9_3 C41_3 1_555 1_555
N4_3 C40_3 1_555 1_555
C40_3 C47_3 1_555 1_555
C41_3 C4_3 1_555 1_555
C46_3 N3_2 1_555 1_555
H30_3 C46_3 1_555 1_555
C47_3 C46_3 1_555 1_555
H31_3 C47_3 1_555 1_555
O13_2 C52_3 1_555 1_555
C49_3 C50_3 1_555 1_555
C50_3 H33_3 1_555 1_555
C52_3 C49_3 1_555 1_555
C57_3 C50_3 1_555 1_555
H36_3 C57_3 1_555 1_555
C58_3 O15_3 1_555 1_555
Zn7 N3_2 1_555 1_555
N4_3 C41_3 1_555 1_555
C57_3 C58_3 1_555 1_555
Zn1 O3_3 1_555 1_555
O2 C8 1_555 1_555
O3_3 C8 1_555 1_555
N1_3 Zn1 1_555 1_555
C5_3 C17_3 1_555 1_555
O8 C27 1_555 1_555
C8 C15 1_555 1_555
H4 C13 1_555 1_555
C15 C18 1_555 1_555
C16_3 N1_3 1_555 1_555
H6_3 C16_3 1_555 1_555
C17_3 C16_3 1_555 1_555
H7_3 C17_3 1_555 1_555
C18 H8 1_555 1_555
C19 C24 1_555 1_555
C23 C13 1_555 1_555
H11 C23 1_555 1_555
C25 C18 1_555 1_555
H13 C25 1_555 1_555
C26 C24 1_555 1_555
C27 C26 1_555 1_555
C28 O8 1_555 1_555
C29 C19 1_555 1_555
H14 C29 1_555 1_555
C30 C27 1_555 1_555
H15 C30 1_555 1_555
C31 C26 1_555 1_555
C32 C15 1_555 1_555
H16_3 C32 1_555 1_555
C33 C28 1_555 1_555
H17 C33 1_555 1_555
C34 C31 1_555 1_555
H18 C34 1_555 1_555
H19 C34 1_555 1_555
H20 C34 1_555 1_555
C35 C31 1_555 1_555
H21 C35 1_555 1_555
H22 C35 1_555 1_555
H23 C35 1_555 1_555
C36 C31 1_555 1_555
H24 C36 1_555 1_555
H25 C36 1_555 1_555
Zn5 O5 1_555 1_555
O17 Zn1 1_555 1_555
C25 C28 1_555 1_555
C29 C30 1_555 1_555
C32 C33 1_555 1_555
H18_2 C34_2 1_555 1_555
H19_2 C34_2 1_555 1_555
H20_2 C34_2 1_555 1_555
H25_2 C36_2 1_555 1_555
H26_3 C36_2 1_555 1_555
O12_2 Zn5 1_555 1_555
O2_2 C8_2 1_555 1_555
O17 C9_3 1_555 1_555
O19 C9_3 1_555 1_555
O6_3 C19_2 1_555 1_555
C3_3 C7_3 1_555 1_555
O8_2 C27_2 1_555 1_555
C7_3 H1_3 1_555 1_555
C8_2 C15_2 1_555 1_555
C9_3 C3_3 1_555 1_555
C13_2 C3_3 1_555 1_555
H4_2 C13_2 1_555 1_555
C15_2 C18_2 1_555 1_555
C18_2 H8_2 1_555 1_555
C19_2 C24_2 1_555 1_555
C20_3 C7_3 1_555 1_555
H9_3 C20_3 1_555 1_555
C21_3 O6_3 1_555 1_555
C23_2 C13_2 1_555 1_555
H11_2 C23_2 1_555 1_555
C24_2 H12_3 1_555 1_555
C25_2 C18_2 1_555 1_555
H13_2 C25_2 1_555 1_555
C26_2 C24_2 1_555 1_555
C27_2 C26_2 1_555 1_555
C28_2 O8_2 1_555 1_555
C29_2 C19_2 1_555 1_555
H14_2 C29_2 1_555 1_555
C30_2 C27_2 1_555 1_555
H15_2 C30_2 1_555 1_555
C31_2 C26_2 1_555 1_555
C32_2 C15_2 1_555 1_555
C33_2 C28_2 1_555 1_555
H17_2 C33_2 1_555 1_555
C35_2 C31_2 1_555 1_555
H21_2 C35_2 1_555 1_555
H23_2 C35_2 1_555 1_555
C20_3 C21_3 1_555 1_555
C21_3 C23_2 1_555 1_555
C25_2 C28_2 1_555 1_555
C29_2 C30_2 1_555 1_555
C32_2 C33_2 1_555 1_555
C44_2 H28_2 1_555 1_555
H32_2 C48_2 1_555 1_555
C44_2 C48_2 1_555 1_555
O12_3 Zn7 1_555 1_555
Zn1_2 O3_4 1_555 1_555
O2_3 C8_3 1_555 1_555
O3_4 C8_3 1_555 1_555
N1_4 Zn1_2 1_555 1_555
C5_4 C17_4 1_555 1_555
O8_3 C27_3 1_555 1_555
C8_3 C15_3 1_555 1_555
C12_3 N1_4 1_555 1_555
H3_3 C12_3 1_555 1_555
H4_3 C13_3 1_555 1_555
C15_3 C18_3 1_555 1_555
C16_4 N1_4 1_555 1_555
H6_4 C16_4 1_555 1_555
C17_4 C16_4 1_555 1_555
H7_4 C17_4 1_555 1_555
C18_3 H8_3 1_555 1_555
C19_3 C24_3 1_555 1_555
C22_3 C5_4 1_555 1_555
H10_3 C22_3 1_555 1_555
C23_3 C13_3 1_555 1_555
H11_3 C23_3 1_555 1_555
C25_3 C18_3 1_555 1_555
H13_3 C25_3 1_555 1_555
C26_3 C24_3 1_555 1_555
C27_3 C26_3 1_555 1_555
C28_3 O8_3 1_555 1_555
C29_3 C19_3 1_555 1_555
H14_3 C29_3 1_555 1_555
C30_3 C27_3 1_555 1_555
H15_3 C30_3 1_555 1_555
C31_3 C26_3 1_555 1_555
C32_3 C15_3 1_555 1_555
H16_4 C32_3 1_555 1_555
C33_3 C28_3 1_555 1_555
H17_3 C33_3 1_555 1_555
C34_3 C31_3 1_555 1_555
H18_3 C34_3 1_555 1_555
H19_3 C34_3 1_555 1_555
H20_3 C34_3 1_555 1_555
C35_3 C31_3 1_555 1_555
H21_3 C35_3 1_555 1_555
H22_3 C35_3 1_555 1_555
H23_3 C35_3 1_555 1_555
C36_3 C31_3 1_555 1_555
H24_3 C36_3 1_555 1_555
H25_3 C36_3 1_555 1_555
Zn2_2 O2_3 1_555 1_555
O11_3 Zn1_2 1_555 1_555
O12_4 Zn2_2 1_555 1_555
O16_3 C63_3 1_555 1_555
C51_3 O11_3 1_555 1_555
H34_3 C53_3 1_555 1_555
C54_3 C51_3 1_555 1_555
C55_3 C54_3 1_555 1_555
H35_3 C55_3 1_555 1_555
C56_3 C60_3 1_555 1_555
C59_3 C53_3 1_555 1_555
H37_3 C59_3 1_555 1_555
C61_3 C55_3 1_555 1_555
H39_3 C61_3 1_555 1_555
C62_3 C60_3 1_555 1_555
C63_3 C62_3 1_555 1_555
C64_3 O16_3 1_555 1_555
C65_3 C56_3 1_555 1_555
H40_3 C65_3 1_555 1_555
C66_3 C63_3 1_555 1_555
H41_3 C66_3 1_555 1_555
C67_3 C62_3 1_555 1_555
C68_3 C54_3 1_555 1_555
H42_4 C68_3 1_555 1_555
C69_3 C64_3 1_555 1_555
H43_3 C69_3 1_555 1_555
C70_3 C67_3 1_555 1_555
H44_3 C70_3 1_555 1_555
H45_3 C70_3 1_555 1_555
H46_3 C70_3 1_555 1_555
C71_3 C67_3 1_555 1_555
H47_3 C71_3 1_555 1_555
H48_3 C71_3 1_555 1_555
H49_3 C71_3 1_555 1_555
C72_3 C67_3 1_555 1_555
H50_3 C72_3 1_555 1_555
H51_3 C72_3 1_555 1_555
O17_2 Zn1_2 1_555 1_555
O18_2 Zn2_2 1_555 1_555
N5_2 Zn2_2 1_555 1_555
O19_2 Zn2_2 1_555 1_555
O20_2 Zn1_2 1_555 1_555
C12_3 C22_3 1_555 1_555
C25_3 C28_3 1_555 1_555
C29_3 C30_3 1_555 1_555
C32_3 C33_3 1_555 1_555
O12_4 C51_3 1_555 1_555
C61_3 C64_3 1_555 1_555
C65_3 C66_3 1_555 1_555
C68_3 C69_3 1_555 1_555
O1_4 C6_4 1_555 1_555
C6_4 N2_4 1_555 1_555
O10_3 C42_4 1_555 1_555
C39_4 C6_4 1_555 1_555
C43_4 C38_4 1_555 1_555
H27_4 C43_4 1_555 1_555
C44_3 H28_3 1_555 1_555
C45_4 C39_4 1_555 1_555
H29_4 C45_4 1_555 1_555
H32_3 C48_3 1_555 1_555
C37_4 C39_4 1_555 1_555
C38_4 C42_4 1_555 1_555
C43_4 C45_4 1_555 1_555
C44_3 C48_3 1_555 1_555
N5_2 C44_4 1_555 1_555
C40_4 C47_4 1_555 1_555
C44_4 H28_4 1_555 1_555
C46_4 N5_2 1_555 1_555
H30_4 C46_4 1_555 1_555
C47_4 C46_4 1_555 1_555
H31_4 C47_4 1_555 1_555
C48_4 C40_4 1_555 1_555
H32_4 C48_4 1_555 1_555
C44_4 C48_4 1_555 1_555
O18_2 C52_4 1_555 1_555
O20_2 C52_4 1_555 1_555
O15_4 C56_4 1_555 1_555
C49_4 C50_4 1_555 1_555
O16_4 C63_4 1_555 1_555
C50_4 H33_4 1_555 1_555
C51_4 O11_4 1_555 1_555
C52_4 C49_4 1_555 1_555
C53_4 C49_4 1_555 1_555
H34_4 C53_4 1_555 1_555
C54_4 C51_4 1_555 1_555
C55_4 C54_4 1_555 1_555
H35_4 C55_4 1_555 1_555
C56_4 C60_4 1_555 1_555
C57_4 C50_4 1_555 1_555
H36_4 C57_4 1_555 1_555
C58_4 O15_4 1_555 1_555
C59_4 C53_4 1_555 1_555
H37_4 C59_4 1_555 1_555
C60_4 H38_4 1_555 1_555
C61_4 C55_4 1_555 1_555
H39_4 C61_4 1_555 1_555
C62_4 C60_4 1_555 1_555
C63_4 C62_4 1_555 1_555
C64_4 O16_4 1_555 1_555
C65_4 C56_4 1_555 1_555
H40_4 C65_4 1_555 1_555
C66_4 C63_4 1_555 1_555
H41_4 C66_4 1_555 1_555
C67_4 C62_4 1_555 1_555
C68_4 C54_4 1_555 1_555
C69_4 C64_4 1_555 1_555
H43_4 C69_4 1_555 1_555
C71_4 C67_4 1_555 1_555
H47_4 C71_4 1_555 1_555
H49_4 C71_4 1_555 1_555
C57_4 C58_4 1_555 1_555
C58_4 C59_4 1_555 1_555
C61_4 C64_4 1_555 1_555
C65_4 C66_4 1_555 1_555
C68_4 C69_4 1_555 1_555
C1_4 C4_4 1_555 1_555
O7_4 C10_4 1_555 1_555
C2_4 C10_4 1_555 1_555
C4_4 C14_4 1_555 1_555
C11_4 C2_4 1_555 1_555
H2_4 C11_4 1_555 1_555
H3_4 C12_4 1_555 1_555
C14_4 C11_4 1_555 1_555
H5_4 C14_4 1_555 1_555
H10_4 C22_4 1_555 1_555
O9_4 C41_4 1_555 1_555
C41_4 C4_4 1_555 1_555
H44_4 C70_4 1_555 1_555
H45_4 C70_4 1_555 1_555
H46_4 C70_4 1_555 1_555
H51_4 C72_4 1_555 1_555
H52_4 C72_4 1_555 1_555
C12_4 C22_4 1_555 1_555
N4_4 C41_4 1_555 1_555
H18_4 C34_4 1_555 1_555
H19_4 C34_4 1_555 1_555
H20_4 C34_4 1_555 1_555
H25_4 C36_4 1_555 1_555
H26_4 C36_4 1_555 1_555
O2_4 C8_4 1_555 1_555
O17_2 C9_4 1_555 1_555
O19_2 C9_4 1_555 1_555
O6_4 C19_4 1_555 1_555
C3_4 C7_4 1_555 1_555
O8_4 C27_4 1_555 1_555
C7_4 H1_4 1_555 1_555
C8_4 C15_4 1_555 1_555
C9_4 C3_4 1_555 1_555
C13_4 C3_4 1_555 1_555
H4_4 C13_4 1_555 1_555
C15_4 C18_4 1_555 1_555
C18_4 H8_4 1_555 1_555
C19_4 C24_4 1_555 1_555
C20_4 C7_4 1_555 1_555
H9_4 C20_4 1_555 1_555
C21_4 O6_4 1_555 1_555
C23_4 C13_4 1_555 1_555
H11_4 C23_4 1_555 1_555
C24_4 H12_4 1_555 1_555
C25_4 C18_4 1_555 1_555
H13_4 C25_4 1_555 1_555
C26_4 C24_4 1_555 1_555
C27_4 C26_4 1_555 1_555
C28_4 O8_4 1_555 1_555
C29_4 C19_4 1_555 1_555
H14_4 C29_4 1_555 1_555
C30_4 C27_4 1_555 1_555
H15_4 C30_4 1_555 1_555
C31_4 C26_4 1_555 1_555
C32_4 C15_4 1_555 1_555
C33_4 C28_4 1_555 1_555
H17_4 C33_4 1_555 1_555
C35_4 C31_4 1_555 1_555
H21_4 C35_4 1_555 1_555
H23_4 C35_4 1_555 1_555
C20_4 C21_4 1_555 1_555
C21_4 C23_4 1_555 1_555
C25_4 C28_4 1_555 1_555
C29_4 C30_4 1_555 1_555
C32_4 C33_4 1_555 1_555

#END
