
###############################################################################
#
# This file contains modified crystal structure data generated from the
# MOF subset of the Cambridge Structural Database (CSD) v543 
# hosted by the Cambridge Crystallographic Data Centre (CCDC).
#
# This work is licensed under the Creative Commons
# Attribution-NonCommercial-ShareAlike 4.0 International License.
# To view a copy of this license, visit
# http://creativecommons.org/licenses/by-nc-sa/4.0/
# or send a letter to
# Creative Commons, PO Box 1866, Mountain View, CA 94042, USA.
#
# CIF created using the CSD Python API on 29 September 2022
# The structure has been converted into the P1 space group
# The structure has a 3D framework
# The original CSD entry PEDKUF is in the tetragonal crystal system
# The framework has been calculated to contain at least 10.0% void space
# The void calculation uses a probe of radius 1.32A, grid spacing 0.4
# The framework is charged, counterions have been retained in the structure
#
###############################################################################

data_PEDKUF
_chemical_formula_moiety         '(C432 H288 Ag8 S48 8+)n'
_symmetry_cell_setting           triclinic
_symmetry_space_group_name_H-M   'P 1'
_symmetry_Int_Tables_number      1
_space_group_name_Hall           'P 1'
loop_
_symmetry_equiv_pos_site_id
_symmetry_equiv_pos_as_xyz
1 x,y,z
_cell_length_a                   20.1978(6)
_cell_length_b                   20.1978(6)
_cell_length_c                   25.0325(14)
_cell_angle_alpha                90
_cell_angle_beta                 90
_cell_angle_gamma                90
_cell_volume                     10212
loop_
_atom_site_label
_atom_site_type_symbol
_atom_site_fract_x
_atom_site_fract_y
_atom_site_fract_z
H24 H 0.0310 0.2210 0.1482
Ag1 Ag 0.266858(14) 0.24615(2) 0.125385(14)
S1 S 0.36164(5) 0.23707(7) 0.04988(4)
S2 S 0.36678(5) 0.26149(6) 0.18604(4)
S3 S 0.68139(6) 0.32235(6) 0.31595(4)
S4 S 0.81367(8) 0.30804(6) 0.25769(4)
C1 C 0.4945(2) 0.2282(2) 0.06214(17)
H1 H 0.4931 0.2162 0.0263
C2 C 0.4356(2) 0.2391(2) 0.08886(18)
C3 C 0.4380(2) 0.2531(2) 0.14398(17)
C4 C 0.4979(2) 0.2599(3) 0.16868(17)
H2 H 0.4986 0.2701 0.2049
C5 C 0.6224(3) 0.2832(2) 0.22171(17)
H3 H 0.5824 0.2882 0.2398
C6 C 0.6808(2) 0.2960(2) 0.24829(15)
C7 C 0.7413(2) 0.2884(2) 0.22128(17)
C8 C 0.7413(2) 0.26730(19) 0.16792(14)
H4 H 0.7813 0.2622 0.1500
C9 C 0.7384(2) 0.2166(2) 0.05673(16)
H5 H 0.7791 0.2201 0.0739
C10 C 0.7368(2) 0.1978(2) 0.00334(16)
C12 C 0.6178(2) 0.2046(2) 0.00446(16)
C13 C 0.6188(2) 0.2231(2) 0.05844(17)
C14 C 0.5563(2) 0.2347(2) 0.08710(16)
C15 C 0.55805(19) 0.2522(2) 0.14211(16)
C16 C 0.6216(2) 0.2630(2) 0.16839(15)
C17 C 0.6815(2) 0.25370(19) 0.14110(14)
C18 C 0.6800(2) 0.23070(19) 0.08562(16)
C19 C 0.3741(2) 0.3119(3) 0.0128(2)
C20 C 0.3744(4) 0.3732(3) 0.0363(3)
H7 H 0.3667 0.3767 0.0729
C21 C 0.3852(4) 0.4273(4) 0.0083(5)
H8 H 0.3863 0.4681 0.0255
C25 C 0.3773(2) 0.1882(3) 0.22556(19)
C26 C 0.3859(3) 0.1953(3) 0.2794(2)
H12 H 0.3857 0.2366 0.2958
C27 C 0.3954(3) 0.1353(5) 0.3091(3)
H13 H 0.4021 0.1376 0.3458
C28 C 0.3947(4) 0.0747(4) 0.2849(4)
H14 H 0.4006 0.0368 0.3053
C29 C 0.3863(4) 0.0695(4) 0.2358(4)
H15 H 0.3865 0.0275 0.2206
C30 C 0.3763(3) 0.1257(3) 0.2017(3)
H16 H 0.3695 0.1207 0.1652
C31 C 0.5953(3) 0.3281(2) 0.33206(19)
C32 C 0.5663(3) 0.2801(3) 0.3629(2)
H17 H 0.5902 0.2430 0.3736
C33 C 0.4998(5) 0.2880(4) 0.3782(3)
H18 H 0.4802 0.2563 0.4000
C34 C 0.4645(6) 0.3395(4) 0.3623(4)
H19 H 0.4204 0.3435 0.3726
C35 C 0.4949(5) 0.3904(4) 0.3282(4)
H20 H 0.4704 0.4266 0.3163
C36 C 0.5600(3) 0.3833(3) 0.3144(3)
H21 H 0.5806 0.4151 0.2933
C37 C 0.8801(3) 0.2783(2) 0.2188(2)
C38 C 0.9002(3) 0.2121(4) 0.2214(3)
H22 H 0.8751 0.1822 0.2411
C39 C 0.9551(4) 0.1907(5) 0.1961(4)
H23 H 0.9680 0.1467 0.1988
C40 C 0.9929(7) 0.2358(4) 0.1653(4)
C41 C 0.9749(7) 0.2997(5) 0.1601(5)
H25 H 0.9998 0.3287 0.1394
C42 C 0.9162(5) 0.3222(4) 0.1873(4)
H26 H 0.9024 0.3659 0.1838
Ag3 Ag 0.74615(2) 0.233142(14) 0.374615(14)
Ag5 Ag 0.233142(14) 0.25385(2) 0.625385(14)
S9 S 0.17765(6) 0.18139(6) 0.18405(4)
S11 S 0.19196(6) 0.31367(8) 0.24231(4)
S13 S 0.31218(5) 0.31392(6) 0.52989(4)
S14 S 0.18782(5) 0.18608(6) 0.02989(4)
S16 S 0.32597(6) 0.17613(5) 0.59294(4)
S17 S 0.17403(6) 0.32387(5) 0.09294(4)
C59 C 0.2168(2) 0.1224(3) 0.27829(17)
H39 H 0.2118 0.0824 0.2602
C60 C 0.2040(2) 0.1808(2) 0.25171(15)
C61 C 0.2116(2) 0.2413(2) 0.27872(17)
C62 C 0.23270(19) 0.2413(2) 0.33208(14)
H40 H 0.2378 0.2813 0.3500
C63 C 0.2834(2) 0.2384(2) 0.44327(16)
H41 H 0.2799 0.2791 0.4261
C64 C 0.3022(2) 0.2368(2) 0.49666(16)
C65 C 0.3060(2) 0.1756(2) 0.52285(16)
C66 C 0.2954(2) 0.1178(2) 0.49554(16)
H42 H 0.3004 0.0775 0.5130
C67 C 0.2769(2) 0.1188(2) 0.44156(17)
C68 C 0.2653(2) 0.0563(2) 0.41290(16)
C69 C 0.2478(2) 0.05805(19) 0.35789(16)
C70 C 0.2370(2) 0.1216(2) 0.33161(15)
C71 C 0.24630(19) 0.1815(2) 0.35890(14)
C72 C 0.26930(19) 0.1800(2) 0.41438(16)
C85 C 0.1719(2) 0.0953(3) 0.16794(19)
C86 C 0.2199(3) 0.0663(3) 0.1371(2)
H53 H 0.2570 0.0902 0.1264
C90 C 0.1167(3) 0.0600(3) 0.1856(3)
H57 H 0.0849 0.0806 0.2067
C91 C 0.2217(2) 0.3801(3) 0.2812(2)
C92 C 0.2879(4) 0.4002(3) 0.2786(3)
H58 H 0.3178 0.3751 0.2589
C93 C 0.3093(5) 0.4551(4) 0.3039(4)
H59 H 0.3533 0.4680 0.3012
C94 C 0.2642(4) 0.4929(7) 0.3347(4)
H60 H 0.2790 0.5310 0.3518
C95 C 0.2003(5) 0.4749(7) 0.3399(5)
H61 H 0.1713 0.4998 0.3606
C96 C 0.1778(4) 0.4162(5) 0.3127(4)
H62 H 0.1341 0.4024 0.3162
C97 C 0.4003(2) 0.3222(2) 0.53562(18)
C98 C 0.4220(3) 0.3833(3) 0.5551(2)
H63 H 0.3917 0.4165 0.5633
C99 C 0.4896(3) 0.3937(3) 0.5619(2)
H64 H 0.5039 0.4335 0.5766
C100 C 0.5354(3) 0.3472(3) 0.5477(2)
H65 H 0.5805 0.3547 0.5519
C101 C 0.5117(3) 0.2881(3) 0.5268(3)
H66 H 0.5422 0.2562 0.5161
C102 C 0.4451(3) 0.2744(2) 0.5209(2)
H67 H 0.4309 0.2340 0.5074
C103 C 0.3104(2) 0.0930(3) 0.61313(16)
C104 C 0.2522(3) 0.0765(3) 0.6372(2)
H68 H 0.2189 0.1077 0.6419
C105 C 0.2440(4) 0.0099(5) 0.6551(3)
C108 C 0.3614(3) 0.0476(4) 0.6069(3)
H72 H 0.4011 0.0611 0.5917
S5 S 0.81392(6) 0.18782(5) 0.97011(4)
S6 S 0.67613(5) 0.17403(6) 0.90706(4)
C11 C 0.6756(2) 0.1940(2) 0.97715(16)
H6 H 0.5775 0.1996 0.9870
C22 C 0.3950(4) 0.4244(5) 0.9532(4)
H9 H 0.4013 0.4629 0.9335
C23 C 0.3951(3) 0.3646(4) 0.9286(3)
H10 H 0.4019 0.3616 0.8919
C24 C 0.3849(3) 0.3082(3) 0.9587(2)
H11 H 0.3853 0.2670 0.9421
C43 C 0.8222(2) 0.0997(2) 0.96438(18)
C44 C 0.8833(3) 0.0780(3) 0.9449(2)
H27 H 0.9165 0.1083 0.9367
C45 C 0.8937(3) 0.0104(3) 0.9381(2)
C48 C 0.7744(2) 0.0549(3) 0.9791(2)
H31 H 0.7340 0.0691 0.9926
C49 C 0.5930(3) 0.1896(2) 0.88687(16)
C50 C 0.5765(3) 0.2478(3) 0.8628(2)
H32 H 0.6077 0.2811 0.8581
C51 C 0.5099(5) 0.2560(4) 0.8449(3)
H33 H 0.4978 0.2956 0.8287
C52 C 0.4666(5) 0.2108(4) 0.8507(4)
H34 H 0.4238 0.2178 0.8382
C53 C 0.4836(5) 0.1462(4) 0.8772(4)
H35 H 0.4521 0.1132 0.8824
C54 C 0.5476(4) 0.1386(3) 0.8931(3)
H36 H 0.5611 0.0989 0.9083
Ag4 Ag 0.75385(2) 0.266858(14) 0.874615(14)
Ag2 Ag 0.25385(2) 0.766858(14) 0.374615(14)
S7 S 0.26293(7) 0.86164(5) 0.45012(4)
S8 S 0.23851(6) 0.86678(5) 0.31396(4)
S10 S 0.31861(6) 0.67765(6) 0.31595(4)
S12 S 0.18633(8) 0.69196(6) 0.25769(4)
S15 S 0.31392(6) 0.68782(5) 0.47011(4)
S18 S 0.17613(5) 0.67403(6) 0.40706(4)
C55 C 0.2718(2) 0.9945(2) 0.43786(17)
H37 H 0.2838 0.9931 0.4737
C56 C 0.2609(2) 0.9356(2) 0.41114(18)
C57 C 0.2469(2) 0.9380(2) 0.35602(17)
C58 C 0.2401(3) 0.9979(2) 0.33132(17)
H38 H 0.2299 0.9986 0.2951
C73 C 0.1881(3) 0.8741(2) 0.4872(2)
C74 C 0.1268(3) 0.8744(4) 0.4637(3)
H43 H 0.1233 0.8667 0.4271
C75 C 0.0727(4) 0.8852(4) 0.4917(5)
H44 H 0.0319 0.8863 0.4745
C76 C 0.0756(5) 0.8950(4) 0.5468(4)
H45 H 0.0371 0.9013 0.5665
C77 C 0.1354(4) 0.8951(3) 0.5714(3)
H46 H 0.1384 0.9019 0.6081
C78 C 0.1918(3) 0.8849(3) 0.5413(2)
H47 H 0.2330 0.8853 0.5579
C79 C 0.3118(3) 0.8773(2) 0.27444(19)
C80 C 0.3047(3) 0.8859(3) 0.2206(2)
H48 H 0.2634 0.8857 0.2042
C81 C 0.3647(5) 0.8954(3) 0.1909(3)
H49 H 0.3624 0.9021 0.1542
C82 C 0.4253(4) 0.8947(4) 0.2151(4)
H50 H 0.4632 0.9006 0.1947
C83 C 0.4305(4) 0.8863(4) 0.2642(4)
H51 H 0.4725 0.8865 0.2794
C84 C 0.3743(3) 0.8763(3) 0.2983(3)
H52 H 0.3793 0.8695 0.3348
C87 C 0.2120(4) 0.9998(5) 0.1218(3)
H54 H 0.2437 0.9802 0.1000
C88 C 0.1605(4) 0.9645(6) 0.1377(4)
H55 H 0.1565 0.9204 0.1274
C89 C 0.1096(4) 0.9949(5) 0.1718(4)
H56 H 0.0734 0.9704 0.1837
H69 H 0.2044 0.9978 0.6713
C106 C 0.2892(4) 0.9666(5) 0.6493(4)
H70 H 0.2822 0.9238 0.6618
C107 C 0.3538(4) 0.9836(5) 0.6228(4)
H71 H 0.3868 0.9521 0.6176
S7_2 S 0.73707(7) 0.13836(5) 0.45012(4)
S8_2 S 0.76149(6) 0.13322(5) 0.31396(4)
S15_2 S 0.68608(6) 0.31218(5) 0.47011(4)
S18_2 S 0.82387(5) 0.32597(6) 0.40706(4)
C55_2 C 0.7282(2) 0.0055(2) 0.43786(17)
H37_2 H 0.7162 0.0069 0.4737
C56_2 C 0.7391(2) 0.0644(2) 0.41114(18)
C57_2 C 0.7531(2) 0.0620(2) 0.35602(17)
C58_2 C 0.7599(3) 0.0021(2) 0.33132(17)
H38_2 H 0.7701 0.0014 0.2951
C73_2 C 0.8119(3) 0.1259(2) 0.4872(2)
C74_2 C 0.8732(3) 0.1256(4) 0.4637(3)
H43_2 H 0.8767 0.1333 0.4271
C75_2 C 0.9273(4) 0.1148(4) 0.4917(5)
H44_2 H 0.9681 0.1137 0.4745
C76_2 C 0.9244(5) 0.1050(4) 0.5468(4)
H45_2 H 0.9629 0.0987 0.5665
C77_2 C 0.8646(4) 0.1049(3) 0.5714(3)
H46_2 H 0.8616 0.0981 0.6081
C78_2 C 0.8082(3) 0.1151(3) 0.5413(2)
H47_2 H 0.7670 0.1147 0.5579
C79_2 C 0.6882(3) 0.1227(2) 0.27444(19)
C80_2 C 0.6953(3) 0.1141(3) 0.2206(2)
H48_2 H 0.7366 0.1143 0.2042
C81_2 C 0.6353(5) 0.1046(3) 0.1909(3)
H49_2 H 0.6376 0.0979 0.1542
C82_2 C 0.5747(4) 0.1053(4) 0.2151(4)
H50_2 H 0.5368 0.0994 0.1947
C83_2 C 0.5695(4) 0.1137(4) 0.2642(4)
H51_2 H 0.5275 0.1135 0.2794
C84_2 C 0.6257(3) 0.1237(3) 0.2983(3)
H52_2 H 0.6207 0.1305 0.3348
C87_2 C 0.7880(4) 0.0002(5) 0.1218(3)
H54_2 H 0.7563 0.0198 0.1000
C88_2 C 0.8395(4) 0.0355(6) 0.1377(4)
H55_2 H 0.8435 0.0796 0.1274
C89_2 C 0.8904(4) 0.0051(5) 0.1718(4)
H56_2 H 0.9266 0.0296 0.1837
H69_2 H 0.7956 0.0022 0.6713
C106_2 C 0.7108(4) 0.0334(5) 0.6493(4)
H70_2 H 0.7178 0.0762 0.6618
C107_2 C 0.6462(4) 0.0164(5) 0.6228(4)
H71_2 H 0.6132 0.0479 0.6176
Ag1_2 Ag 0.733142(14) 0.75385(2) 0.125385(14)
S1_2 S 0.63836(5) 0.76293(7) 0.04988(4)
S2_2 S 0.63322(5) 0.73851(6) 0.18604(4)
C1_2 C 0.5055(2) 0.7718(2) 0.06214(17)
H1_2 H 0.5069 0.7838 0.0263
C2_2 C 0.5644(2) 0.7609(2) 0.08886(18)
C3_2 C 0.5620(2) 0.7469(2) 0.14398(17)
C4_2 C 0.5021(2) 0.7401(3) 0.16868(17)
H2_2 H 0.5014 0.7299 0.2049
C5_2 C 0.3776(3) 0.7168(2) 0.22171(17)
H3_2 H 0.4176 0.7118 0.2398
C6_2 C 0.3192(2) 0.7040(2) 0.24829(15)
C7_2 C 0.2587(2) 0.7116(2) 0.22128(17)
C8_2 C 0.2587(2) 0.73270(19) 0.16792(14)
H4_2 H 0.2187 0.7378 0.1500
C9_2 C 0.2616(2) 0.7834(2) 0.05673(16)
H5_2 H 0.2209 0.7799 0.0739
C10_2 C 0.2632(2) 0.8022(2) 0.00334(16)
C12_2 C 0.3822(2) 0.7954(2) 0.00446(16)
C13_2 C 0.3812(2) 0.7769(2) 0.05844(17)
C14_2 C 0.4437(2) 0.7653(2) 0.08710(16)
C15_2 C 0.44195(19) 0.7478(2) 0.14211(16)
C16_2 C 0.3784(2) 0.7370(2) 0.16839(15)
C17_2 C 0.3185(2) 0.74630(19) 0.14110(14)
C18_2 C 0.3200(2) 0.76930(19) 0.08562(16)
C19_2 C 0.6259(2) 0.6881(3) 0.0128(2)
C20_2 C 0.6256(4) 0.6268(3) 0.0363(3)
H7_2 H 0.6333 0.6233 0.0729
C21_2 C 0.6148(4) 0.5727(4) 0.0083(5)
H8_2 H 0.6137 0.5319 0.0255
C25_2 C 0.6227(2) 0.8118(3) 0.22556(19)
C26_2 C 0.6141(3) 0.8047(3) 0.2794(2)
H12_2 H 0.6143 0.7634 0.2958
C27_2 C 0.6046(3) 0.8647(5) 0.3091(3)
H13_2 H 0.5979 0.8624 0.3458
C28_2 C 0.6053(4) 0.9253(4) 0.2849(4)
H14_2 H 0.5994 0.9632 0.3053
C29_2 C 0.6137(4) 0.9305(4) 0.2358(4)
H15_2 H 0.6135 0.9725 0.2206
C30_2 C 0.6237(3) 0.8743(3) 0.2017(3)
H16_2 H 0.6305 0.8793 0.1652
C31_2 C 0.4047(3) 0.6719(2) 0.33206(19)
C32_2 C 0.4337(3) 0.7199(3) 0.3629(2)
H17_2 H 0.4098 0.7570 0.3736
C33_2 C 0.5002(5) 0.7120(4) 0.3782(3)
H18_2 H 0.5198 0.7437 0.4000
C34_2 C 0.5355(6) 0.6605(4) 0.3623(4)
H19_2 H 0.5796 0.6565 0.3726
C35_2 C 0.5051(5) 0.6096(4) 0.3282(4)
H20_2 H 0.5296 0.5734 0.3163
C36_2 C 0.4400(3) 0.6167(3) 0.3144(3)
H21_2 H 0.4194 0.5849 0.2933
C37_2 C 0.1199(3) 0.7217(2) 0.2188(2)
C38_2 C 0.0998(3) 0.7879(4) 0.2214(3)
H22_2 H 0.1249 0.8178 0.2411
C39_2 C 0.0449(4) 0.8093(5) 0.1961(4)
H23_2 H 0.0320 0.8533 0.1988
C40_2 C 0.0071(7) 0.7642(4) 0.1653(4)
C41_2 C 0.0251(7) 0.7003(5) 0.1601(5)
H25_2 H 0.0002 0.6713 0.1394
C42_2 C 0.0838(5) 0.6778(4) 0.1873(4)
H26_2 H 0.0976 0.6341 0.1838
Ag5_2 Ag 0.766858(14) 0.74615(2) 0.625385(14)
S9_2 S 0.82235(6) 0.81861(6) 0.18405(4)
S11_2 S 0.80804(6) 0.68633(8) 0.24231(4)
S13_2 S 0.68782(5) 0.68608(6) 0.52989(4)
S14_2 S 0.81218(5) 0.81392(6) 0.02989(4)
S16_2 S 0.67403(6) 0.82387(5) 0.59294(4)
S17_2 S 0.82597(6) 0.67613(5) 0.09294(4)
C59_2 C 0.7832(2) 0.8776(3) 0.27829(17)
H39_2 H 0.7882 0.9176 0.2602
C60_2 C 0.7960(2) 0.8192(2) 0.25171(15)
C61_2 C 0.7884(2) 0.7587(2) 0.27872(17)
C62_2 C 0.76730(19) 0.7587(2) 0.33208(14)
H40_2 H 0.7622 0.7187 0.3500
C63_2 C 0.7166(2) 0.7616(2) 0.44327(16)
H41_2 H 0.7201 0.7209 0.4261
C64_2 C 0.6978(2) 0.7632(2) 0.49666(16)
C65_2 C 0.6940(2) 0.8244(2) 0.52285(16)
C66_2 C 0.7046(2) 0.8822(2) 0.49554(16)
H42_2 H 0.6996 0.9225 0.5130
C67_2 C 0.7231(2) 0.8812(2) 0.44156(17)
C68_2 C 0.7347(2) 0.9437(2) 0.41290(16)
C69_2 C 0.7522(2) 0.94195(19) 0.35789(16)
C70_2 C 0.7630(2) 0.8784(2) 0.33161(15)
C71_2 C 0.75370(19) 0.8185(2) 0.35890(14)
C72_2 C 0.73070(19) 0.8200(2) 0.41438(16)
C85_2 C 0.8281(2) 0.9047(3) 0.16794(19)
C86_2 C 0.7801(3) 0.9337(3) 0.1371(2)
H53_2 H 0.7430 0.9098 0.1264
C90_2 C 0.8833(3) 0.9400(3) 0.1856(3)
H57_2 H 0.9151 0.9194 0.2067
C91_2 C 0.7783(2) 0.6199(3) 0.2812(2)
C92_2 C 0.7121(4) 0.5998(3) 0.2786(3)
H58_2 H 0.6822 0.6249 0.2589
C93_2 C 0.6907(5) 0.5449(4) 0.3039(4)
H59_2 H 0.6467 0.5320 0.3012
C94_2 C 0.7358(4) 0.5071(7) 0.3347(4)
H60_2 H 0.7210 0.4690 0.3518
C95_2 C 0.7997(5) 0.5251(7) 0.3399(5)
H61_2 H 0.8287 0.5002 0.3606
C96_2 C 0.8222(4) 0.5838(5) 0.3127(4)
H62_2 H 0.8659 0.5976 0.3162
C97_2 C 0.5997(2) 0.6778(2) 0.53562(18)
C98_2 C 0.5780(3) 0.6167(3) 0.5551(2)
H63_2 H 0.6083 0.5835 0.5633
C99_2 C 0.5104(3) 0.6063(3) 0.5619(2)
H64_2 H 0.4961 0.5665 0.5766
C100_2 C 0.4646(3) 0.6528(3) 0.5477(2)
H65_2 H 0.4195 0.6453 0.5519
C101_2 C 0.4883(3) 0.7119(3) 0.5268(3)
H66_2 H 0.4578 0.7438 0.5161
C102_2 C 0.5549(3) 0.7256(2) 0.5209(2)
H67_2 H 0.5691 0.7660 0.5074
C103_2 C 0.6896(2) 0.9070(3) 0.61313(16)
C104_2 C 0.7478(3) 0.9235(3) 0.6372(2)
H68_2 H 0.7811 0.8923 0.6419
C105_2 C 0.7560(4) 0.9901(5) 0.6551(3)
C108_2 C 0.6386(3) 0.9524(4) 0.6069(3)
H72_2 H 0.5989 0.9389 0.5917
S5_2 S 0.18608(6) 0.81218(5) 0.97011(4)
S6_2 S 0.32387(5) 0.82597(6) 0.90706(4)
C11_2 C 0.3244(2) 0.8060(2) 0.97715(16)
H6_2 H 0.4225 0.8004 0.9870
C22_2 C 0.6050(4) 0.5756(5) 0.9532(4)
H9_2 H 0.5987 0.5371 0.9335
C23_2 C 0.6049(3) 0.6354(4) 0.9286(3)
H10_2 H 0.5981 0.6384 0.8919
C24_2 C 0.6151(3) 0.6918(3) 0.9587(2)
H11_2 H 0.6147 0.7330 0.9421
C43_2 C 0.1778(2) 0.9003(2) 0.96438(18)
C44_2 C 0.1167(3) 0.9220(3) 0.9449(2)
H27_2 H 0.0835 0.8917 0.9367
C45_2 C 0.1063(3) 0.9896(3) 0.9381(2)
C48_2 C 0.2256(2) 0.9451(3) 0.9791(2)
H31_2 H 0.2660 0.9309 0.9926
C49_2 C 0.4070(3) 0.8104(2) 0.88687(16)
C50_2 C 0.4235(3) 0.7522(3) 0.8628(2)
H32_2 H 0.3923 0.7189 0.8581
C51_2 C 0.4901(5) 0.7440(4) 0.8449(3)
H33_2 H 0.5022 0.7044 0.8287
C52_2 C 0.5334(5) 0.7892(4) 0.8507(4)
H34_2 H 0.5762 0.7822 0.8382
C53_2 C 0.5164(5) 0.8538(4) 0.8772(4)
H35_2 H 0.5479 0.8868 0.8824
C54_2 C 0.4524(4) 0.8614(3) 0.8931(3)
H36_2 H 0.4389 0.9011 0.9083
Ag4_2 Ag 0.24615(2) 0.733142(14) 0.874615(14)
C11_3 C 0.1940(2) 0.3244(2) 0.02285(16)
H6_3 H 0.1996 0.4225 0.0130
C22_3 C 0.4244(5) 0.6050(4) 0.0468(4)
H9_3 H 0.4629 0.5987 0.0665
C23_3 C 0.3646(4) 0.6049(3) 0.0714(3)
H10_3 H 0.3616 0.5981 0.1081
C24_3 C 0.3082(3) 0.6151(3) 0.0413(2)
H11_3 H 0.2670 0.6147 0.0579
C43_3 C 0.0997(2) 0.1778(2) 0.03562(18)
C44_3 C 0.0780(3) 0.1167(3) 0.0551(2)
H27_3 H 0.1083 0.0835 0.0633
C45_3 C 0.0104(3) 0.1063(3) 0.0619(2)
C48_3 C 0.0549(3) 0.2256(2) 0.0209(2)
H31_3 H 0.0691 0.2660 0.0074
C49_3 C 0.1896(2) 0.4070(3) 0.11313(16)
C50_3 C 0.2478(3) 0.4235(3) 0.1372(2)
H32_3 H 0.2811 0.3923 0.1419
C51_3 C 0.2560(4) 0.4901(5) 0.1551(3)
H33_3 H 0.2956 0.5022 0.1713
C52_3 C 0.2108(4) 0.5334(5) 0.1493(4)
H34_3 H 0.2178 0.5762 0.1618
C53_3 C 0.1462(4) 0.5164(5) 0.1228(4)
H35_3 H 0.1132 0.5479 0.1176
C54_3 C 0.1386(3) 0.4524(4) 0.1069(3)
H36_3 H 0.0989 0.4389 0.0917
S1_3 S 0.23707(7) 0.63836(5) 0.95012(4)
S2_3 S 0.26149(6) 0.63322(5) 0.81396(4)
S3_2 S 0.32235(6) 0.31861(6) 0.68405(4)
S4_2 S 0.30804(6) 0.18633(8) 0.74231(4)
C1_3 C 0.2282(2) 0.5055(2) 0.93786(17)
H1_3 H 0.2162 0.5069 0.9737
C2_3 C 0.2391(2) 0.5644(2) 0.91114(18)
C3_3 C 0.2531(2) 0.5620(2) 0.85602(17)
C4_3 C 0.2599(3) 0.5021(2) 0.83132(17)
H2_3 H 0.2701 0.5014 0.7951
C5_3 C 0.2832(2) 0.3776(3) 0.77829(17)
H3_3 H 0.2882 0.4176 0.7602
C6_3 C 0.2960(2) 0.3192(2) 0.75171(15)
C7_3 C 0.2884(2) 0.2587(2) 0.77872(17)
C8_3 C 0.26730(19) 0.2587(2) 0.83208(14)
H4_3 H 0.2622 0.2187 0.8500
C9_3 C 0.2166(2) 0.2616(2) 0.94327(16)
H5_3 H 0.2201 0.2209 0.9261
C10_3 C 0.1978(2) 0.2632(2) 0.99666(16)
C12_3 C 0.2046(2) 0.3822(2) 0.99554(16)
C13_3 C 0.2231(2) 0.3812(2) 0.94156(17)
C14_3 C 0.2347(2) 0.4437(2) 0.91290(16)
C15_3 C 0.2522(2) 0.44195(19) 0.85789(16)
C16_3 C 0.2630(2) 0.3784(2) 0.83161(15)
C17_3 C 0.25370(19) 0.3185(2) 0.85890(14)
C18_3 C 0.23070(19) 0.3200(2) 0.91438(16)
C19_3 C 0.3119(3) 0.6259(2) 0.9872(2)
C20_3 C 0.3732(3) 0.6256(4) 0.9637(3)
H7_3 H 0.3767 0.6333 0.9271
C21_3 C 0.4273(4) 0.6148(4) 0.9917(5)
H8_3 H 0.4681 0.6137 0.9745
C25_3 C 0.1882(3) 0.6227(2) 0.77444(19)
C26_3 C 0.1953(3) 0.6141(3) 0.7206(2)
H12_3 H 0.2366 0.6143 0.7042
C27_3 C 0.1353(5) 0.6046(3) 0.6909(3)
H13_3 H 0.1376 0.5979 0.6542
C28_3 C 0.0747(4) 0.6053(4) 0.7151(4)
H14_3 H 0.0368 0.5994 0.6947
C29_3 C 0.0695(4) 0.6137(4) 0.7642(4)
H15_3 H 0.0275 0.6135 0.7794
C30_3 C 0.1257(3) 0.6237(3) 0.7983(3)
H16_3 H 0.1207 0.6305 0.8348
C31_3 C 0.3281(2) 0.4047(3) 0.66794(19)
C32_3 C 0.2801(3) 0.4337(3) 0.6371(2)
H17_3 H 0.2430 0.4098 0.6264
C33_3 C 0.2880(4) 0.5002(5) 0.6218(3)
H18_3 H 0.2563 0.5198 0.6000
C34_3 C 0.3395(4) 0.5355(6) 0.6377(4)
H19_3 H 0.3435 0.5796 0.6274
C35_3 C 0.3904(4) 0.5051(5) 0.6718(4)
H20_3 H 0.4266 0.5296 0.6837
C36_3 C 0.3833(3) 0.4400(3) 0.6856(3)
H21_3 H 0.4151 0.4194 0.7067
C37_3 C 0.2783(2) 0.1199(3) 0.7812(2)
C38_3 C 0.2121(4) 0.0998(3) 0.7786(3)
H22_3 H 0.1822 0.1249 0.7589
C39_3 C 0.1907(5) 0.0449(4) 0.8039(4)
H23_3 H 0.1467 0.0320 0.8012
C40_3 C 0.2358(4) 0.0071(7) 0.8347(4)
C41_3 C 0.2997(5) 0.0251(7) 0.8399(5)
H25_3 H 0.3287 0.0002 0.8606
C42_3 C 0.3222(4) 0.0838(5) 0.8127(4)
H26_3 H 0.3659 0.0976 0.8162
S9_3 S 0.18139(6) 0.82235(6) 0.81595(4)
S11_3 S 0.31367(8) 0.80804(6) 0.75769(4)
C59_3 C 0.1224(3) 0.7832(2) 0.72171(17)
H39_3 H 0.0824 0.7882 0.7398
C60_3 C 0.1808(2) 0.7960(2) 0.74829(15)
C61_3 C 0.2413(2) 0.7884(2) 0.72128(17)
C62_3 C 0.2413(2) 0.76730(19) 0.66792(14)
H40_3 H 0.2813 0.7622 0.6500
C63_3 C 0.2384(2) 0.7166(2) 0.55673(16)
H41_3 H 0.2791 0.7201 0.5739
C64_3 C 0.2368(2) 0.6978(2) 0.50334(16)
C65_3 C 0.1756(2) 0.6940(2) 0.47715(16)
C66_3 C 0.1178(2) 0.7046(2) 0.50446(16)
H42_3 H 0.0775 0.6996 0.4870
C67_3 C 0.1188(2) 0.7231(2) 0.55844(17)
C68_3 C 0.0563(2) 0.7347(2) 0.58710(16)
C69_3 C 0.05805(19) 0.7522(2) 0.64211(16)
C70_3 C 0.1216(2) 0.7630(2) 0.66839(15)
C71_3 C 0.1815(2) 0.75370(19) 0.64110(14)
C72_3 C 0.1800(2) 0.73070(19) 0.58562(16)
C85_3 C 0.0953(3) 0.8281(2) 0.83206(19)
C86_3 C 0.0663(3) 0.7801(3) 0.8629(2)
H53_3 H 0.0902 0.7430 0.8736
C90_3 C 0.0600(3) 0.8833(3) 0.8144(3)
H57_3 H 0.0806 0.9151 0.7933
C91_3 C 0.3801(3) 0.7783(2) 0.7188(2)
C92_3 C 0.4002(3) 0.7121(4) 0.7214(3)
H58_3 H 0.3751 0.6822 0.7411
C93_3 C 0.4551(4) 0.6907(5) 0.6961(4)
H59_3 H 0.4680 0.6467 0.6988
C94_3 C 0.4929(7) 0.7358(4) 0.6653(4)
H60_3 H 0.5310 0.7210 0.6482
C95_3 C 0.4749(7) 0.7997(5) 0.6601(5)
H61_3 H 0.4998 0.8287 0.6394
C96_3 C 0.4162(5) 0.8222(4) 0.6873(4)
H62_3 H 0.4024 0.8659 0.6838
C97_3 C 0.3222(2) 0.5997(2) 0.46438(18)
C98_3 C 0.3833(3) 0.5780(3) 0.4449(2)
H63_3 H 0.4165 0.6083 0.4367
C99_3 C 0.3937(3) 0.5104(3) 0.4381(2)
H64_3 H 0.4335 0.4961 0.4234
C100_3 C 0.3472(3) 0.4646(3) 0.4523(2)
H65_3 H 0.3547 0.4195 0.4481
C101_3 C 0.2881(3) 0.4883(3) 0.4732(3)
H66_3 H 0.2562 0.4578 0.4839
C102_3 C 0.2744(2) 0.5549(3) 0.4791(2)
H67_3 H 0.2340 0.5691 0.4926
C103_3 C 0.0930(3) 0.6896(2) 0.38687(16)
C104_3 C 0.0765(3) 0.7478(3) 0.3628(2)
H68_3 H 0.1077 0.7811 0.3581
C105_3 C 0.0099(5) 0.7560(4) 0.3449(3)
C108_3 C 0.0476(4) 0.6386(3) 0.3931(3)
H72_3 H 0.0611 0.5989 0.4083
S7_3 S 0.86164(5) 0.73707(7) 0.54988(4)
S8_3 S 0.86678(5) 0.76149(6) 0.68604(4)
S10_2 S 0.67765(6) 0.68139(6) 0.68405(4)
S12_2 S 0.69196(6) 0.81367(8) 0.74231(4)
C55_3 C 0.9945(2) 0.7282(2) 0.56214(17)
H37_3 H 0.9931 0.7162 0.5263
C56_3 C 0.9356(2) 0.7391(2) 0.58886(18)
C57_3 C 0.9380(2) 0.7531(2) 0.64398(17)
C58_3 C 0.9979(2) 0.7599(3) 0.66868(17)
H38_3 H 0.9986 0.7701 0.7049
C73_3 C 0.8741(2) 0.8119(3) 0.5128(2)
C74_3 C 0.8744(4) 0.8732(3) 0.5363(3)
H43_3 H 0.8667 0.8767 0.5729
C75_3 C 0.8852(4) 0.9273(4) 0.5083(5)
H44_3 H 0.8863 0.9681 0.5255
C76_3 C 0.8950(4) 0.9244(5) 0.4532(4)
H45_3 H 0.9013 0.9629 0.4335
C77_3 C 0.8951(3) 0.8646(4) 0.4286(3)
H46_3 H 0.9019 0.8616 0.3919
C78_3 C 0.8849(3) 0.8082(3) 0.4587(2)
H47_3 H 0.8853 0.7670 0.4421
C79_3 C 0.8773(2) 0.6882(3) 0.72556(19)
C80_3 C 0.8859(3) 0.6953(3) 0.7794(2)
H48_3 H 0.8857 0.7366 0.7958
C81_3 C 0.8954(3) 0.6353(5) 0.8091(3)
H49_3 H 0.9021 0.6376 0.8458
C82_3 C 0.8947(4) 0.5747(4) 0.7849(4)
H50_3 H 0.9006 0.5368 0.8053
C83_3 C 0.8863(4) 0.5695(4) 0.7358(4)
H51_3 H 0.8865 0.5275 0.7206
C84_3 C 0.8763(3) 0.6257(3) 0.7017(3)
H52_3 H 0.8695 0.6207 0.6652
C87_3 C 0.9998(5) 0.7880(4) 0.8782(3)
H54_3 H 0.9802 0.7563 0.9000
C88_3 C 0.9645(6) 0.8395(4) 0.8623(4)
H55_3 H 0.9204 0.8435 0.8726
C89_3 C 0.9949(5) 0.8904(4) 0.8282(4)
H56_3 H 0.9704 0.9266 0.8163
H69_3 H 0.9978 0.7956 0.3287
C106_3 C 0.9666(5) 0.7108(4) 0.3507(4)
H70_3 H 0.9238 0.7178 0.3382
C107_3 C 0.9836(5) 0.6462(4) 0.3772(4)
H71_3 H 0.9521 0.6132 0.3824
S7_4 S 0.13836(5) 0.26293(7) 0.54988(4)
S8_4 S 0.13322(5) 0.23851(6) 0.68604(4)
C55_4 C 0.0055(2) 0.2718(2) 0.56214(17)
H37_4 H 0.0069 0.2838 0.5263
C56_4 C 0.0644(2) 0.2609(2) 0.58886(18)
C57_4 C 0.0620(2) 0.2469(2) 0.64398(17)
C58_4 C 0.0021(2) 0.2401(3) 0.66868(17)
H38_4 H 0.0014 0.2299 0.7049
C73_4 C 0.1259(2) 0.1881(3) 0.5128(2)
C74_4 C 0.1256(4) 0.1268(3) 0.5363(3)
H43_4 H 0.1333 0.1233 0.5729
C75_4 C 0.1148(4) 0.0727(4) 0.5083(5)
H44_4 H 0.1137 0.0319 0.5255
C76_4 C 0.1050(4) 0.0756(5) 0.4532(4)
H45_4 H 0.0987 0.0371 0.4335
C77_4 C 0.1049(3) 0.1354(4) 0.4286(3)
H46_4 H 0.0981 0.1384 0.3919
C78_4 C 0.1151(3) 0.1918(3) 0.4587(2)
H47_4 H 0.1147 0.2330 0.4421
C79_4 C 0.1227(2) 0.3118(3) 0.72556(19)
C80_4 C 0.1141(3) 0.3047(3) 0.7794(2)
H48_4 H 0.1143 0.2634 0.7958
C81_4 C 0.1046(3) 0.3647(5) 0.8091(3)
H49_4 H 0.0979 0.3624 0.8458
C82_4 C 0.1053(4) 0.4253(4) 0.7849(4)
H50_4 H 0.0994 0.4632 0.8053
C83_4 C 0.1137(4) 0.4305(4) 0.7358(4)
H51_4 H 0.1135 0.4725 0.7206
C84_4 C 0.1237(3) 0.3743(3) 0.7017(3)
H52_4 H 0.1305 0.3793 0.6652
C87_4 C 0.0002(5) 0.2120(4) 0.8782(3)
H54_4 H 0.0198 0.2437 0.9000
C88_4 C 0.0355(6) 0.1605(4) 0.8623(4)
H55_4 H 0.0796 0.1565 0.8726
C89_4 C 0.0051(5) 0.1096(4) 0.8282(4)
H56_4 H 0.0296 0.0734 0.8163
H69_4 H 0.0022 0.2044 0.3287
C106_4 C 0.0334(5) 0.2892(4) 0.3507(4)
H70_4 H 0.0762 0.2822 0.3382
C107_4 C 0.0164(5) 0.3538(4) 0.3772(4)
H71_4 H 0.0479 0.3868 0.3824
C11_4 C 0.8060(2) 0.6756(2) 0.02285(16)
H6_4 H 0.8004 0.5775 0.0130
C22_4 C 0.5756(5) 0.3950(4) 0.0468(4)
H9_4 H 0.5371 0.4013 0.0665
C23_4 C 0.6354(4) 0.3951(3) 0.0714(3)
H10_4 H 0.6384 0.4019 0.1081
C24_4 C 0.6918(3) 0.3849(3) 0.0413(2)
H11_4 H 0.7330 0.3853 0.0579
C43_4 C 0.9003(2) 0.8222(2) 0.03562(18)
C44_4 C 0.9220(3) 0.8833(3) 0.0551(2)
H27_4 H 0.8917 0.9165 0.0633
C45_4 C 0.9896(3) 0.8937(3) 0.0619(2)
C48_4 C 0.9451(3) 0.7744(2) 0.0209(2)
H31_4 H 0.9309 0.7340 0.0074
C49_4 C 0.8104(2) 0.5930(3) 0.11313(16)
C50_4 C 0.7522(3) 0.5765(3) 0.1372(2)
H32_4 H 0.7189 0.6077 0.1419
C51_4 C 0.7440(4) 0.5099(5) 0.1551(3)
H33_4 H 0.7044 0.4978 0.1713
C52_4 C 0.7892(4) 0.4666(5) 0.1493(4)
H34_4 H 0.7822 0.4238 0.1618
C53_4 C 0.8538(4) 0.4836(5) 0.1228(4)
H35_4 H 0.8868 0.4521 0.1176
C54_4 C 0.8614(3) 0.5476(4) 0.1069(3)
H36_4 H 0.9011 0.5611 0.0917
S1_4 S 0.76293(7) 0.36164(5) 0.95012(4)
S2_4 S 0.73851(6) 0.36678(5) 0.81396(4)
C1_4 C 0.7718(2) 0.4945(2) 0.93786(17)
H1_4 H 0.7838 0.4931 0.9737
C2_4 C 0.7609(2) 0.4356(2) 0.91114(18)
C3_4 C 0.7469(2) 0.4380(2) 0.85602(17)
C4_4 C 0.7401(3) 0.4979(2) 0.83132(17)
H2_4 H 0.7299 0.4986 0.7951
C5_4 C 0.7168(2) 0.6224(3) 0.77829(17)
H3_4 H 0.7118 0.5824 0.7602
C6_4 C 0.7040(2) 0.6808(2) 0.75171(15)
C7_4 C 0.7116(2) 0.7413(2) 0.77872(17)
C8_4 C 0.73270(19) 0.7413(2) 0.83208(14)
H4_4 H 0.7378 0.7813 0.8500
C9_4 C 0.7834(2) 0.7384(2) 0.94327(16)
H5_4 H 0.7799 0.7791 0.9261
C10_4 C 0.8022(2) 0.7368(2) 0.99666(16)
C12_4 C 0.7954(2) 0.6178(2) 0.99554(16)
C13_4 C 0.7769(2) 0.6188(2) 0.94156(17)
C14_4 C 0.7653(2) 0.5563(2) 0.91290(16)
C15_4 C 0.7478(2) 0.55805(19) 0.85789(16)
C16_4 C 0.7370(2) 0.6216(2) 0.83161(15)
C17_4 C 0.74630(19) 0.6815(2) 0.85890(14)
C18_4 C 0.76930(19) 0.6800(2) 0.91438(16)
C19_4 C 0.6881(3) 0.3741(2) 0.9872(2)
C20_4 C 0.6268(3) 0.3744(4) 0.9637(3)
H7_4 H 0.6233 0.3667 0.9271
C21_4 C 0.5727(4) 0.3852(4) 0.9917(5)
H8_4 H 0.5319 0.3863 0.9745
C25_4 C 0.8118(3) 0.3773(2) 0.77444(19)
C26_4 C 0.8047(3) 0.3859(3) 0.7206(2)
H12_4 H 0.7634 0.3857 0.7042
C27_4 C 0.8647(5) 0.3954(3) 0.6909(3)
H13_4 H 0.8624 0.4021 0.6542
C28_4 C 0.9253(4) 0.3947(4) 0.7151(4)
H14_4 H 0.9632 0.4006 0.6947
C29_4 C 0.9305(4) 0.3863(4) 0.7642(4)
H15_4 H 0.9725 0.3865 0.7794
C30_4 C 0.8743(3) 0.3763(3) 0.7983(3)
H16_4 H 0.8793 0.3695 0.8348
C31_4 C 0.6719(2) 0.5953(3) 0.66794(19)
C32_4 C 0.7199(3) 0.5663(3) 0.6371(2)
H17_4 H 0.7570 0.5902 0.6264
C33_4 C 0.7120(4) 0.4998(5) 0.6218(3)
H18_4 H 0.7437 0.4802 0.6000
C34_4 C 0.6605(4) 0.4645(6) 0.6377(4)
H19_4 H 0.6565 0.4204 0.6274
C35_4 C 0.6096(4) 0.4949(5) 0.6718(4)
H20_4 H 0.5734 0.4704 0.6837
C36_4 C 0.6167(3) 0.5600(3) 0.6856(3)
H21_4 H 0.5849 0.5806 0.7067
C37_4 C 0.7217(2) 0.8801(3) 0.7812(2)
C38_4 C 0.7879(4) 0.9002(3) 0.7786(3)
H22_4 H 0.8178 0.8751 0.7589
C39_4 C 0.8093(5) 0.9551(4) 0.8039(4)
H23_4 H 0.8533 0.9680 0.8012
C40_4 C 0.7642(4) 0.9929(7) 0.8347(4)
C41_4 C 0.7003(5) 0.9749(7) 0.8399(5)
H25_4 H 0.6713 0.9998 0.8606
C42_4 C 0.6778(4) 0.9162(5) 0.8127(4)
H26_4 H 0.6341 0.9024 0.8162
S9_4 S 0.81861(6) 0.17765(6) 0.81595(4)
S11_4 S 0.68633(8) 0.19196(6) 0.75769(4)
C59_4 C 0.8776(3) 0.2168(2) 0.72171(17)
H39_4 H 0.9176 0.2118 0.7398
C60_4 C 0.8192(2) 0.2040(2) 0.74829(15)
C61_4 C 0.7587(2) 0.2116(2) 0.72128(17)
C62_4 C 0.7587(2) 0.23270(19) 0.66792(14)
H40_4 H 0.7187 0.2378 0.6500
C63_4 C 0.7616(2) 0.2834(2) 0.55673(16)
H41_4 H 0.7209 0.2799 0.5739
C64_4 C 0.7632(2) 0.3022(2) 0.50334(16)
C65_4 C 0.8244(2) 0.3060(2) 0.47715(16)
C66_4 C 0.8822(2) 0.2954(2) 0.50446(16)
H42_4 H 0.9225 0.3004 0.4870
C67_4 C 0.8812(2) 0.2769(2) 0.55844(17)
C68_4 C 0.9437(2) 0.2653(2) 0.58710(16)
C69_4 C 0.94195(19) 0.2478(2) 0.64211(16)
C70_4 C 0.8784(2) 0.2370(2) 0.66839(15)
C71_4 C 0.8185(2) 0.24630(19) 0.64110(14)
C72_4 C 0.8200(2) 0.26930(19) 0.58562(16)
C85_4 C 0.9047(3) 0.1719(2) 0.83206(19)
C86_4 C 0.9337(3) 0.2199(3) 0.8629(2)
H53_4 H 0.9098 0.2570 0.8736
C90_4 C 0.9400(3) 0.1167(3) 0.8144(3)
H57_4 H 0.9194 0.0849 0.7933
C91_4 C 0.6199(3) 0.2217(2) 0.7188(2)
C92_4 C 0.5998(3) 0.2879(4) 0.7214(3)
H58_4 H 0.6249 0.3178 0.7411
C93_4 C 0.5449(4) 0.3093(5) 0.6961(4)
H59_4 H 0.5320 0.3533 0.6988
C94_4 C 0.5071(7) 0.2642(4) 0.6653(4)
H60_4 H 0.4690 0.2790 0.6482
C95_4 C 0.5251(7) 0.2003(5) 0.6601(5)
H61_4 H 0.5002 0.1713 0.6394
C96_4 C 0.5838(5) 0.1778(4) 0.6873(4)
H62_4 H 0.5976 0.1341 0.6838
C97_4 C 0.6778(2) 0.4003(2) 0.46438(18)
C98_4 C 0.6167(3) 0.4220(3) 0.4449(2)
H63_4 H 0.5835 0.3917 0.4367
C99_4 C 0.6063(3) 0.4896(3) 0.4381(2)
H64_4 H 0.5665 0.5039 0.4234
C100_4 C 0.6528(3) 0.5354(3) 0.4523(2)
H65_4 H 0.6453 0.5805 0.4481
C101_4 C 0.7119(3) 0.5117(3) 0.4732(3)
H66_4 H 0.7438 0.5422 0.4839
C102_4 C 0.7256(2) 0.4451(3) 0.4791(2)
H67_4 H 0.7660 0.4309 0.4926
C103_4 C 0.9070(3) 0.3104(2) 0.38687(16)
C104_4 C 0.9235(3) 0.2522(3) 0.3628(2)
H68_4 H 0.8923 0.2189 0.3581
C105_4 C 0.9901(5) 0.2440(4) 0.3449(3)
C108_4 C 0.9524(4) 0.3614(3) 0.3931(3)
H72_4 H 0.9389 0.4011 0.4083
H28 H 0.9335 0.9961 0.9234
C46 C 0.8472(3) 0.9646(3) 0.9523(2)
H29 H 0.8547 0.9195 0.9481
C47 C 0.7881(3) 0.9883(3) 0.9732(3)
H30 H 0.7562 0.9578 0.9839
H28_2 H 0.0665 0.0039 0.9234
C46_2 C 0.1528(3) 0.0354(3) 0.9523(2)
H29_2 H 0.1453 0.0805 0.9481
C47_2 C 0.2119(3) 0.0117(3) 0.9732(3)
H30_2 H 0.2438 0.0422 0.9839
H24_2 H 0.9690 0.7790 0.1482
H24_3 H 0.2210 0.9690 0.8518
H28_3 H 0.9961 0.0665 0.0766
C46_3 C 0.9646(3) 0.1528(3) 0.0477(2)
H29_3 H 0.9195 0.1453 0.0519
C47_3 C 0.9883(3) 0.2119(3) 0.0268(3)
H30_3 H 0.9578 0.2438 0.0161
H28_4 H 0.0039 0.9335 0.0766
C46_4 C 0.0354(3) 0.8472(3) 0.0477(2)
H29_4 H 0.0805 0.8547 0.0519
C47_4 C 0.0117(3) 0.7881(3) 0.0268(3)
H30_4 H 0.0422 0.7562 0.0161
H24_4 H 0.7790 0.0310 0.8518
loop_
_geom_bond_atom_site_label_1
_geom_bond_atom_site_label_2
_geom_bond_site_symmetry_1
_geom_bond_site_symmetry_2
Ag1 S1 1_555 1_555
S1 C2 1_555 1_555
S2 Ag1 1_555 1_555
S3 C6 1_555 1_555
S4 C7 1_555 1_555
C1 H1 1_555 1_555
C2 C1 1_555 1_555
C3 S2 1_555 1_555
C4 C3 1_555 1_555
H2 C4 1_555 1_555
C5 H3 1_555 1_555
C6 C5 1_555 1_555
C7 C6 1_555 1_555
C8 C7 1_555 1_555
H4 C8 1_555 1_555
C9 H5 1_555 1_555
C10 C9 1_555 1_555
C13 C12 1_555 1_555
C14 C1 1_555 1_555
C15 C4 1_555 1_555
C16 C5 1_555 1_555
C17 C8 1_555 1_555
C18 C9 1_555 1_555
C19 S1 1_555 1_555
C20 C19 1_555 1_555
H7 C20 1_555 1_555
C21 C20 1_555 1_555
H8 C21 1_555 1_555
C25 S2 1_555 1_555
C26 C25 1_555 1_555
H12 C26 1_555 1_555
C27 C26 1_555 1_555
H13 C27 1_555 1_555
C28 C27 1_555 1_555
H14 C28 1_555 1_555
C29 C28 1_555 1_555
H15 C29 1_555 1_555
C30 C25 1_555 1_555
H16 C30 1_555 1_555
C31 S3 1_555 1_555
C32 C31 1_555 1_555
H17 C32 1_555 1_555
C33 C32 1_555 1_555
H18 C33 1_555 1_555
C34 C33 1_555 1_555
H19 C34 1_555 1_555
C35 C34 1_555 1_555
H20 C35 1_555 1_555
C36 C31 1_555 1_555
H21 C36 1_555 1_555
C37 S4 1_555 1_555
C38 C37 1_555 1_555
H22 C38 1_555 1_555
C39 C38 1_555 1_555
H23 C39 1_555 1_555
C40 C39 1_555 1_555
C41 C40 1_555 1_555
H25 C41 1_555 1_555
C42 C37 1_555 1_555
H26 C42 1_555 1_555
Ag3 S3 1_555 1_555
Ag5 S13 1_555 1_555
S9 Ag1 1_555 1_555
S11 Ag1 1_555 1_555
S13 C64 1_555 1_555
S14 Ag1 1_555 1_555
S16 Ag5 1_555 1_555
S17 Ag1 1_555 1_555
C59 H39 1_555 1_555
C60 S9 1_555 1_555
C61 S11 1_555 1_555
C62 C61 1_555 1_555
H40 C62 1_555 1_555
C63 H41 1_555 1_555
C64 C63 1_555 1_555
C65 S16 1_555 1_555
C66 C65 1_555 1_555
H42 C66 1_555 1_555
C67 C66 1_555 1_555
C70 C59 1_555 1_555
C71 C62 1_555 1_555
C72 C63 1_555 1_555
C85 S9 1_555 1_555
C86 C85 1_555 1_555
H53 C86 1_555 1_555
C90 C85 1_555 1_555
H57 C90 1_555 1_555
C91 S11 1_555 1_555
C92 C91 1_555 1_555
H58 C92 1_555 1_555
C93 C92 1_555 1_555
H59 C93 1_555 1_555
C94 C93 1_555 1_555
H60 C94 1_555 1_555
C95 C94 1_555 1_555
H61 C95 1_555 1_555
C96 C91 1_555 1_555
H62 C96 1_555 1_555
C97 S13 1_555 1_555
C98 C97 1_555 1_555
H63 C98 1_555 1_555
C99 C98 1_555 1_555
H64 C99 1_555 1_555
C100 C99 1_555 1_555
H65 C100 1_555 1_555
C101 C100 1_555 1_555
H66 C101 1_555 1_555
C102 C97 1_555 1_555
H67 C102 1_555 1_555
C103 S16 1_555 1_555
C104 C103 1_555 1_555
H68 C104 1_555 1_555
C105 C104 1_555 1_555
C108 C103 1_555 1_555
H72 C108 1_555 1_555
S4 Ag3 1_555 1_555
C2 C3 1_555 1_555
C13 C14 1_555 1_555
C13 C18 1_555 1_555
C14 C15 1_555 1_555
C15 C16 1_555 1_555
C16 C17 1_555 1_555
C17 C18 1_555 1_555
C29 C30 1_555 1_555
C35 C36 1_555 1_555
C41 C42 1_555 1_555
C59 C60 1_555 1_555
C60 C61 1_555 1_555
C64 C65 1_555 1_555
C67 C68 1_555 1_555
C67 C72 1_555 1_555
C68 C69 1_555 1_555
C69 C70 1_555 1_555
C70 C71 1_555 1_555
C71 C72 1_555 1_555
C95 C96 1_555 1_555
C101 C102 1_555 1_555
S6 C11 1_555 1_555
H9 C22 1_555 1_555
C23 C22 1_555 1_555
H10 C23 1_555 1_555
H11 C24 1_555 1_555
C43 S5 1_555 1_555
C44 C43 1_555 1_555
H27 C44 1_555 1_555
C45 C44 1_555 1_555
C48 C43 1_555 1_555
H31 C48 1_555 1_555
C49 S6 1_555 1_555
C50 C49 1_555 1_555
H32 C50 1_555 1_555
C51 C50 1_555 1_555
H33 C51 1_555 1_555
C52 C51 1_555 1_555
H34 C52 1_555 1_555
C53 C52 1_555 1_555
H35 C53 1_555 1_555
C54 C49 1_555 1_555
H36 C54 1_555 1_555
Ag4 S5 1_555 1_555
S6 Ag4 1_555 1_555
C23 C24 1_555 1_555
C53 C54 1_555 1_555
Ag2 S7 1_555 1_555
S7 C56 1_555 1_555
S8 Ag2 1_555 1_555
S10 Ag2 1_555 1_555
S12 Ag2 1_555 1_555
S15 Ag2 1_555 1_555
S18 Ag2 1_555 1_555
C55 H37 1_555 1_555
C56 C55 1_555 1_555
C57 S8 1_555 1_555
C58 C57 1_555 1_555
H38 C58 1_555 1_555
C73 S7 1_555 1_555
C74 C73 1_555 1_555
H43 C74 1_555 1_555
C75 C74 1_555 1_555
H44 C75 1_555 1_555
C76 C75 1_555 1_555
H45 C76 1_555 1_555
C77 C76 1_555 1_555
H46 C77 1_555 1_555
C78 C73 1_555 1_555
H47 C78 1_555 1_555
C79 S8 1_555 1_555
C80 C79 1_555 1_555
H48 C80 1_555 1_555
C81 C80 1_555 1_555
H49 C81 1_555 1_555
C82 C81 1_555 1_555
H50 C82 1_555 1_555
C83 C82 1_555 1_555
H51 C83 1_555 1_555
C84 C79 1_555 1_555
H52 C84 1_555 1_555
H54 C87 1_555 1_555
C88 C87 1_555 1_555
H55 C88 1_555 1_555
C89 C88 1_555 1_555
H56 C89 1_555 1_555
H70 C106 1_555 1_555
C107 C106 1_555 1_555
H71 C107 1_555 1_555
C56 C57 1_555 1_555
C77 C78 1_555 1_555
C83 C84 1_555 1_555
Ag3 S7_2 1_555 1_555
S7_2 C56_2 1_555 1_555
S8_2 Ag3 1_555 1_555
S15_2 Ag3 1_555 1_555
S18_2 Ag3 1_555 1_555
C55_2 H37_2 1_555 1_555
C56_2 C55_2 1_555 1_555
C57_2 S8_2 1_555 1_555
C58_2 C57_2 1_555 1_555
H38_2 C58_2 1_555 1_555
C73_2 S7_2 1_555 1_555
C74_2 C73_2 1_555 1_555
H43_2 C74_2 1_555 1_555
C75_2 C74_2 1_555 1_555
H44_2 C75_2 1_555 1_555
C76_2 C75_2 1_555 1_555
H45_2 C76_2 1_555 1_555
C77_2 C76_2 1_555 1_555
H46_2 C77_2 1_555 1_555
C78_2 C73_2 1_555 1_555
H47_2 C78_2 1_555 1_555
C79_2 S8_2 1_555 1_555
C80_2 C79_2 1_555 1_555
H48_2 C80_2 1_555 1_555
C81_2 C80_2 1_555 1_555
H49_2 C81_2 1_555 1_555
C82_2 C81_2 1_555 1_555
H50_2 C82_2 1_555 1_555
C83_2 C82_2 1_555 1_555
H51_2 C83_2 1_555 1_555
C84_2 C79_2 1_555 1_555
H52_2 C84_2 1_555 1_555
H54_2 C87_2 1_555 1_555
C88_2 C87_2 1_555 1_555
H55_2 C88_2 1_555 1_555
C89_2 C88_2 1_555 1_555
H56_2 C89_2 1_555 1_555
H70_2 C106_2 1_555 1_555
C107_2 C106_2 1_555 1_555
H71_2 C107_2 1_555 1_555
C56_2 C57_2 1_555 1_555
C77_2 C78_2 1_555 1_555
C83_2 C84_2 1_555 1_555
Ag1_2 S1_2 1_555 1_555
S1_2 C2_2 1_555 1_555
S2_2 Ag1_2 1_555 1_555
S10 C6_2 1_555 1_555
S12 C7_2 1_555 1_555
C1_2 H1_2 1_555 1_555
C2_2 C1_2 1_555 1_555
C3_2 S2_2 1_555 1_555
C4_2 C3_2 1_555 1_555
H2_2 C4_2 1_555 1_555
C5_2 H3_2 1_555 1_555
C6_2 C5_2 1_555 1_555
C7_2 C6_2 1_555 1_555
C8_2 C7_2 1_555 1_555
H4_2 C8_2 1_555 1_555
C9_2 H5_2 1_555 1_555
C10_2 C9_2 1_555 1_555
C13_2 C12_2 1_555 1_555
C14_2 C1_2 1_555 1_555
C15_2 C4_2 1_555 1_555
C16_2 C5_2 1_555 1_555
C17_2 C8_2 1_555 1_555
C18_2 C9_2 1_555 1_555
C19_2 S1_2 1_555 1_555
C20_2 C19_2 1_555 1_555
H7_2 C20_2 1_555 1_555
C21_2 C20_2 1_555 1_555
H8_2 C21_2 1_555 1_555
C25_2 S2_2 1_555 1_555
C26_2 C25_2 1_555 1_555
H12_2 C26_2 1_555 1_555
C27_2 C26_2 1_555 1_555
H13_2 C27_2 1_555 1_555
C28_2 C27_2 1_555 1_555
H14_2 C28_2 1_555 1_555
C29_2 C28_2 1_555 1_555
H15_2 C29_2 1_555 1_555
C30_2 C25_2 1_555 1_555
H16_2 C30_2 1_555 1_555
C31_2 S10 1_555 1_555
C32_2 C31_2 1_555 1_555
H17_2 C32_2 1_555 1_555
C33_2 C32_2 1_555 1_555
H18_2 C33_2 1_555 1_555
C34_2 C33_2 1_555 1_555
H19_2 C34_2 1_555 1_555
C35_2 C34_2 1_555 1_555
H20_2 C35_2 1_555 1_555
C36_2 C31_2 1_555 1_555
H21_2 C36_2 1_555 1_555
C37_2 S12 1_555 1_555
C38_2 C37_2 1_555 1_555
H22_2 C38_2 1_555 1_555
C39_2 C38_2 1_555 1_555
H23_2 C39_2 1_555 1_555
C40_2 C39_2 1_555 1_555
C41_2 C40_2 1_555 1_555
H25_2 C41_2 1_555 1_555
C42_2 C37_2 1_555 1_555
H26_2 C42_2 1_555 1_555
Ag5_2 S13_2 1_555 1_555
S9_2 Ag1_2 1_555 1_555
S11_2 Ag1_2 1_555 1_555
S13_2 C64_2 1_555 1_555
S14_2 Ag1_2 1_555 1_555
S16_2 Ag5_2 1_555 1_555
S17_2 Ag1_2 1_555 1_555
C59_2 H39_2 1_555 1_555
C60_2 S9_2 1_555 1_555
C61_2 S11_2 1_555 1_555
C62_2 C61_2 1_555 1_555
H40_2 C62_2 1_555 1_555
C63_2 H41_2 1_555 1_555
C64_2 C63_2 1_555 1_555
C65_2 S16_2 1_555 1_555
C66_2 C65_2 1_555 1_555
H42_2 C66_2 1_555 1_555
C67_2 C66_2 1_555 1_555
C70_2 C59_2 1_555 1_555
C71_2 C62_2 1_555 1_555
C72_2 C63_2 1_555 1_555
C85_2 S9_2 1_555 1_555
C86_2 C85_2 1_555 1_555
H53_2 C86_2 1_555 1_555
C90_2 C85_2 1_555 1_555
H57_2 C90_2 1_555 1_555
C91_2 S11_2 1_555 1_555
C92_2 C91_2 1_555 1_555
H58_2 C92_2 1_555 1_555
C93_2 C92_2 1_555 1_555
H59_2 C93_2 1_555 1_555
C94_2 C93_2 1_555 1_555
H60_2 C94_2 1_555 1_555
C95_2 C94_2 1_555 1_555
H61_2 C95_2 1_555 1_555
C96_2 C91_2 1_555 1_555
H62_2 C96_2 1_555 1_555
C97_2 S13_2 1_555 1_555
C98_2 C97_2 1_555 1_555
H63_2 C98_2 1_555 1_555
C99_2 C98_2 1_555 1_555
H64_2 C99_2 1_555 1_555
C100_2 C99_2 1_555 1_555
H65_2 C100_2 1_555 1_555
C101_2 C100_2 1_555 1_555
H66_2 C101_2 1_555 1_555
C102_2 C97_2 1_555 1_555
H67_2 C102_2 1_555 1_555
C103_2 S16_2 1_555 1_555
C104_2 C103_2 1_555 1_555
H68_2 C104_2 1_555 1_555
C105_2 C104_2 1_555 1_555
C108_2 C103_2 1_555 1_555
H72_2 C108_2 1_555 1_555
C2_2 C3_2 1_555 1_555
C13_2 C14_2 1_555 1_555
C13_2 C18_2 1_555 1_555
C14_2 C15_2 1_555 1_555
C15_2 C16_2 1_555 1_555
C16_2 C17_2 1_555 1_555
C17_2 C18_2 1_555 1_555
C29_2 C30_2 1_555 1_555
C35_2 C36_2 1_555 1_555
C41_2 C42_2 1_555 1_555
C59_2 C60_2 1_555 1_555
C60_2 C61_2 1_555 1_555
C64_2 C65_2 1_555 1_555
C67_2 C68_2 1_555 1_555
C67_2 C72_2 1_555 1_555
C68_2 C69_2 1_555 1_555
C69_2 C70_2 1_555 1_555
C70_2 C71_2 1_555 1_555
C71_2 C72_2 1_555 1_555
C95_2 C96_2 1_555 1_555
C101_2 C102_2 1_555 1_555
S6_2 C11_2 1_555 1_555
H9_2 C22_2 1_555 1_555
C23_2 C22_2 1_555 1_555
H10_2 C23_2 1_555 1_555
H11_2 C24_2 1_555 1_555
C43_2 S5_2 1_555 1_555
C44_2 C43_2 1_555 1_555
H27_2 C44_2 1_555 1_555
C45_2 C44_2 1_555 1_555
C48_2 C43_2 1_555 1_555
H31_2 C48_2 1_555 1_555
C49_2 S6_2 1_555 1_555
C50_2 C49_2 1_555 1_555
H32_2 C50_2 1_555 1_555
C51_2 C50_2 1_555 1_555
H33_2 C51_2 1_555 1_555
C52_2 C51_2 1_555 1_555
H34_2 C52_2 1_555 1_555
C53_2 C52_2 1_555 1_555
H35_2 C53_2 1_555 1_555
C54_2 C49_2 1_555 1_555
H36_2 C54_2 1_555 1_555
Ag4_2 S5_2 1_555 1_555
S6_2 Ag4_2 1_555 1_555
C23_2 C24_2 1_555 1_555
C53_2 C54_2 1_555 1_555
S17 C11_3 1_555 1_555
H9_3 C22_3 1_555 1_555
C23_3 C22_3 1_555 1_555
H10_3 C23_3 1_555 1_555
H11_3 C24_3 1_555 1_555
C43_3 S14 1_555 1_555
C44_3 C43_3 1_555 1_555
H27_3 C44_3 1_555 1_555
C45_3 C44_3 1_555 1_555
C48_3 C43_3 1_555 1_555
H31_3 C48_3 1_555 1_555
C49_3 S17 1_555 1_555
C50_3 C49_3 1_555 1_555
H32_3 C50_3 1_555 1_555
C51_3 C50_3 1_555 1_555
H33_3 C51_3 1_555 1_555
C52_3 C51_3 1_555 1_555
H34_3 C52_3 1_555 1_555
C53_3 C52_3 1_555 1_555
H35_3 C53_3 1_555 1_555
C54_3 C49_3 1_555 1_555
H36_3 C54_3 1_555 1_555
C23_3 C24_3 1_555 1_555
C53_3 C54_3 1_555 1_555
Ag4_2 S1_3 1_555 1_555
S1_3 C2_3 1_555 1_555
S2_3 Ag4_2 1_555 1_555
S3_2 C6_3 1_555 1_555
S4_2 C7_3 1_555 1_555
C1_3 H1_3 1_555 1_555
C2_3 C1_3 1_555 1_555
C3_3 S2_3 1_555 1_555
C4_3 C3_3 1_555 1_555
H2_3 C4_3 1_555 1_555
C5_3 H3_3 1_555 1_555
C6_3 C5_3 1_555 1_555
C7_3 C6_3 1_555 1_555
C8_3 C7_3 1_555 1_555
H4_3 C8_3 1_555 1_555
C9_3 H5_3 1_555 1_555
C10_3 C9_3 1_555 1_555
C13_3 C12_3 1_555 1_555
C14_3 C1_3 1_555 1_555
C15_3 C4_3 1_555 1_555
C16_3 C5_3 1_555 1_555
C17_3 C8_3 1_555 1_555
C18_3 C9_3 1_555 1_555
C19_3 S1_3 1_555 1_555
C20_3 C19_3 1_555 1_555
H7_3 C20_3 1_555 1_555
C21_3 C20_3 1_555 1_555
H8_3 C21_3 1_555 1_555
C25_3 S2_3 1_555 1_555
C26_3 C25_3 1_555 1_555
H12_3 C26_3 1_555 1_555
C27_3 C26_3 1_555 1_555
H13_3 C27_3 1_555 1_555
C28_3 C27_3 1_555 1_555
H14_3 C28_3 1_555 1_555
C29_3 C28_3 1_555 1_555
H15_3 C29_3 1_555 1_555
C30_3 C25_3 1_555 1_555
H16_3 C30_3 1_555 1_555
C31_3 S3_2 1_555 1_555
C32_3 C31_3 1_555 1_555
H17_3 C32_3 1_555 1_555
C33_3 C32_3 1_555 1_555
H18_3 C33_3 1_555 1_555
C34_3 C33_3 1_555 1_555
H19_3 C34_3 1_555 1_555
C35_3 C34_3 1_555 1_555
H20_3 C35_3 1_555 1_555
C36_3 C31_3 1_555 1_555
H21_3 C36_3 1_555 1_555
C37_3 S4_2 1_555 1_555
C38_3 C37_3 1_555 1_555
H22_3 C38_3 1_555 1_555
C39_3 C38_3 1_555 1_555
H23_3 C39_3 1_555 1_555
C40_3 C39_3 1_555 1_555
C41_3 C40_3 1_555 1_555
H25_3 C41_3 1_555 1_555
C42_3 C37_3 1_555 1_555
H26_3 C42_3 1_555 1_555
Ag5 S3_2 1_555 1_555
S9_3 Ag4_2 1_555 1_555
S11_3 Ag4_2 1_555 1_555
S15 C64_3 1_555 1_555
C59_3 H39_3 1_555 1_555
C60_3 S9_3 1_555 1_555
C61_3 S11_3 1_555 1_555
C62_3 C61_3 1_555 1_555
H40_3 C62_3 1_555 1_555
C63_3 H41_3 1_555 1_555
C64_3 C63_3 1_555 1_555
C65_3 S18 1_555 1_555
C66_3 C65_3 1_555 1_555
H42_3 C66_3 1_555 1_555
C67_3 C66_3 1_555 1_555
C70_3 C59_3 1_555 1_555
C71_3 C62_3 1_555 1_555
C72_3 C63_3 1_555 1_555
C85_3 S9_3 1_555 1_555
C86_3 C85_3 1_555 1_555
H53_3 C86_3 1_555 1_555
C90_3 C85_3 1_555 1_555
H57_3 C90_3 1_555 1_555
C91_3 S11_3 1_555 1_555
C92_3 C91_3 1_555 1_555
H58_3 C92_3 1_555 1_555
C93_3 C92_3 1_555 1_555
H59_3 C93_3 1_555 1_555
C94_3 C93_3 1_555 1_555
H60_3 C94_3 1_555 1_555
C95_3 C94_3 1_555 1_555
H61_3 C95_3 1_555 1_555
C96_3 C91_3 1_555 1_555
H62_3 C96_3 1_555 1_555
C97_3 S15 1_555 1_555
C98_3 C97_3 1_555 1_555
H63_3 C98_3 1_555 1_555
C99_3 C98_3 1_555 1_555
H64_3 C99_3 1_555 1_555
C100_3 C99_3 1_555 1_555
H65_3 C100_3 1_555 1_555
C101_3 C100_3 1_555 1_555
H66_3 C101_3 1_555 1_555
C102_3 C97_3 1_555 1_555
H67_3 C102_3 1_555 1_555
C103_3 S18 1_555 1_555
C104_3 C103_3 1_555 1_555
H68_3 C104_3 1_555 1_555
C105_3 C104_3 1_555 1_555
C108_3 C103_3 1_555 1_555
H72_3 C108_3 1_555 1_555
S4_2 Ag5 1_555 1_555
C2_3 C3_3 1_555 1_555
C13_3 C14_3 1_555 1_555
C13_3 C18_3 1_555 1_555
C14_3 C15_3 1_555 1_555
C15_3 C16_3 1_555 1_555
C16_3 C17_3 1_555 1_555
C17_3 C18_3 1_555 1_555
C29_3 C30_3 1_555 1_555
C35_3 C36_3 1_555 1_555
C41_3 C42_3 1_555 1_555
C59_3 C60_3 1_555 1_555
C60_3 C61_3 1_555 1_555
C64_3 C65_3 1_555 1_555
C67_3 C68_3 1_555 1_555
C67_3 C72_3 1_555 1_555
C68_3 C69_3 1_555 1_555
C69_3 C70_3 1_555 1_555
C70_3 C71_3 1_555 1_555
C71_3 C72_3 1_555 1_555
C95_3 C96_3 1_555 1_555
C101_3 C102_3 1_555 1_555
Ag5_2 S7_3 1_555 1_555
S7_3 C56_3 1_555 1_555
S8_3 Ag5_2 1_555 1_555
S10_2 Ag5_2 1_555 1_555
S12_2 Ag5_2 1_555 1_555
C55_3 H37_3 1_555 1_555
C56_3 C55_3 1_555 1_555
C57_3 S8_3 1_555 1_555
C58_3 C57_3 1_555 1_555
H38_3 C58_3 1_555 1_555
C73_3 S7_3 1_555 1_555
C74_3 C73_3 1_555 1_555
H43_3 C74_3 1_555 1_555
C75_3 C74_3 1_555 1_555
H44_3 C75_3 1_555 1_555
C76_3 C75_3 1_555 1_555
H45_3 C76_3 1_555 1_555
C77_3 C76_3 1_555 1_555
H46_3 C77_3 1_555 1_555
C78_3 C73_3 1_555 1_555
H47_3 C78_3 1_555 1_555
C79_3 S8_3 1_555 1_555
C80_3 C79_3 1_555 1_555
H48_3 C80_3 1_555 1_555
C81_3 C80_3 1_555 1_555
H49_3 C81_3 1_555 1_555
C82_3 C81_3 1_555 1_555
H50_3 C82_3 1_555 1_555
C83_3 C82_3 1_555 1_555
H51_3 C83_3 1_555 1_555
C84_3 C79_3 1_555 1_555
H52_3 C84_3 1_555 1_555
H54_3 C87_3 1_555 1_555
C88_3 C87_3 1_555 1_555
H55_3 C88_3 1_555 1_555
C89_3 C88_3 1_555 1_555
H56_3 C89_3 1_555 1_555
H70_3 C106_3 1_555 1_555
C107_3 C106_3 1_555 1_555
H71_3 C107_3 1_555 1_555
C56_3 C57_3 1_555 1_555
C77_3 C78_3 1_555 1_555
C83_3 C84_3 1_555 1_555
Ag5 S7_4 1_555 1_555
S7_4 C56_4 1_555 1_555
S8_4 Ag5 1_555 1_555
C55_4 H37_4 1_555 1_555
C56_4 C55_4 1_555 1_555
C57_4 S8_4 1_555 1_555
C58_4 C57_4 1_555 1_555
H38_4 C58_4 1_555 1_555
C73_4 S7_4 1_555 1_555
C74_4 C73_4 1_555 1_555
H43_4 C74_4 1_555 1_555
C75_4 C74_4 1_555 1_555
H44_4 C75_4 1_555 1_555
C76_4 C75_4 1_555 1_555
H45_4 C76_4 1_555 1_555
C77_4 C76_4 1_555 1_555
H46_4 C77_4 1_555 1_555
C78_4 C73_4 1_555 1_555
H47_4 C78_4 1_555 1_555
C79_4 S8_4 1_555 1_555
C80_4 C79_4 1_555 1_555
H48_4 C80_4 1_555 1_555
C81_4 C80_4 1_555 1_555
H49_4 C81_4 1_555 1_555
C82_4 C81_4 1_555 1_555
H50_4 C82_4 1_555 1_555
C83_4 C82_4 1_555 1_555
H51_4 C83_4 1_555 1_555
C84_4 C79_4 1_555 1_555
H52_4 C84_4 1_555 1_555
H54_4 C87_4 1_555 1_555
C88_4 C87_4 1_555 1_555
H55_4 C88_4 1_555 1_555
C89_4 C88_4 1_555 1_555
H56_4 C89_4 1_555 1_555
H70_4 C106_4 1_555 1_555
C107_4 C106_4 1_555 1_555
H71_4 C107_4 1_555 1_555
C56_4 C57_4 1_555 1_555
C77_4 C78_4 1_555 1_555
C83_4 C84_4 1_555 1_555
S17_2 C11_4 1_555 1_555
H9_4 C22_4 1_555 1_555
C23_4 C22_4 1_555 1_555
H10_4 C23_4 1_555 1_555
H11_4 C24_4 1_555 1_555
C43_4 S14_2 1_555 1_555
C44_4 C43_4 1_555 1_555
H27_4 C44_4 1_555 1_555
C45_4 C44_4 1_555 1_555
C48_4 C43_4 1_555 1_555
H31_4 C48_4 1_555 1_555
C49_4 S17_2 1_555 1_555
C50_4 C49_4 1_555 1_555
H32_4 C50_4 1_555 1_555
C51_4 C50_4 1_555 1_555
H33_4 C51_4 1_555 1_555
C52_4 C51_4 1_555 1_555
H34_4 C52_4 1_555 1_555
C53_4 C52_4 1_555 1_555
H35_4 C53_4 1_555 1_555
C54_4 C49_4 1_555 1_555
H36_4 C54_4 1_555 1_555
C23_4 C24_4 1_555 1_555
C53_4 C54_4 1_555 1_555
Ag4 S1_4 1_555 1_555
S1_4 C2_4 1_555 1_555
S2_4 Ag4 1_555 1_555
S10_2 C6_4 1_555 1_555
S12_2 C7_4 1_555 1_555
C1_4 H1_4 1_555 1_555
C2_4 C1_4 1_555 1_555
C3_4 S2_4 1_555 1_555
C4_4 C3_4 1_555 1_555
H2_4 C4_4 1_555 1_555
C5_4 H3_4 1_555 1_555
C6_4 C5_4 1_555 1_555
C7_4 C6_4 1_555 1_555
C8_4 C7_4 1_555 1_555
H4_4 C8_4 1_555 1_555
C9_4 H5_4 1_555 1_555
C10_4 C9_4 1_555 1_555
C13_4 C12_4 1_555 1_555
C14_4 C1_4 1_555 1_555
C15_4 C4_4 1_555 1_555
C16_4 C5_4 1_555 1_555
C17_4 C8_4 1_555 1_555
C18_4 C9_4 1_555 1_555
C19_4 S1_4 1_555 1_555
C20_4 C19_4 1_555 1_555
H7_4 C20_4 1_555 1_555
C21_4 C20_4 1_555 1_555
H8_4 C21_4 1_555 1_555
C25_4 S2_4 1_555 1_555
C26_4 C25_4 1_555 1_555
H12_4 C26_4 1_555 1_555
C27_4 C26_4 1_555 1_555
H13_4 C27_4 1_555 1_555
C28_4 C27_4 1_555 1_555
H14_4 C28_4 1_555 1_555
C29_4 C28_4 1_555 1_555
H15_4 C29_4 1_555 1_555
C30_4 C25_4 1_555 1_555
H16_4 C30_4 1_555 1_555
C31_4 S10_2 1_555 1_555
C32_4 C31_4 1_555 1_555
H17_4 C32_4 1_555 1_555
C33_4 C32_4 1_555 1_555
H18_4 C33_4 1_555 1_555
C34_4 C33_4 1_555 1_555
H19_4 C34_4 1_555 1_555
C35_4 C34_4 1_555 1_555
H20_4 C35_4 1_555 1_555
C36_4 C31_4 1_555 1_555
H21_4 C36_4 1_555 1_555
C37_4 S12_2 1_555 1_555
C38_4 C37_4 1_555 1_555
H22_4 C38_4 1_555 1_555
C39_4 C38_4 1_555 1_555
H23_4 C39_4 1_555 1_555
C40_4 C39_4 1_555 1_555
C41_4 C40_4 1_555 1_555
H25_4 C41_4 1_555 1_555
C42_4 C37_4 1_555 1_555
H26_4 C42_4 1_555 1_555
S9_4 Ag4 1_555 1_555
S11_4 Ag4 1_555 1_555
S15_2 C64_4 1_555 1_555
C59_4 H39_4 1_555 1_555
C60_4 S9_4 1_555 1_555
C61_4 S11_4 1_555 1_555
C62_4 C61_4 1_555 1_555
H40_4 C62_4 1_555 1_555
C63_4 H41_4 1_555 1_555
C64_4 C63_4 1_555 1_555
C65_4 S18_2 1_555 1_555
C66_4 C65_4 1_555 1_555
H42_4 C66_4 1_555 1_555
C67_4 C66_4 1_555 1_555
C70_4 C59_4 1_555 1_555
C71_4 C62_4 1_555 1_555
C72_4 C63_4 1_555 1_555
C85_4 S9_4 1_555 1_555
C86_4 C85_4 1_555 1_555
H53_4 C86_4 1_555 1_555
C90_4 C85_4 1_555 1_555
H57_4 C90_4 1_555 1_555
C91_4 S11_4 1_555 1_555
C92_4 C91_4 1_555 1_555
H58_4 C92_4 1_555 1_555
C93_4 C92_4 1_555 1_555
H59_4 C93_4 1_555 1_555
C94_4 C93_4 1_555 1_555
H60_4 C94_4 1_555 1_555
C95_4 C94_4 1_555 1_555
H61_4 C95_4 1_555 1_555
C96_4 C91_4 1_555 1_555
H62_4 C96_4 1_555 1_555
C97_4 S15_2 1_555 1_555
C98_4 C97_4 1_555 1_555
H63_4 C98_4 1_555 1_555
C99_4 C98_4 1_555 1_555
H64_4 C99_4 1_555 1_555
C100_4 C99_4 1_555 1_555
H65_4 C100_4 1_555 1_555
C101_4 C100_4 1_555 1_555
H66_4 C101_4 1_555 1_555
C102_4 C97_4 1_555 1_555
H67_4 C102_4 1_555 1_555
C103_4 S18_2 1_555 1_555
C104_4 C103_4 1_555 1_555
H68_4 C104_4 1_555 1_555
C105_4 C104_4 1_555 1_555
C108_4 C103_4 1_555 1_555
H72_4 C108_4 1_555 1_555
C2_4 C3_4 1_555 1_555
C13_4 C14_4 1_555 1_555
C13_4 C18_4 1_555 1_555
C14_4 C15_4 1_555 1_555
C15_4 C16_4 1_555 1_555
C16_4 C17_4 1_555 1_555
C17_4 C18_4 1_555 1_555
C29_4 C30_4 1_555 1_555
C35_4 C36_4 1_555 1_555
C41_4 C42_4 1_555 1_555
C59_4 C60_4 1_555 1_555
C60_4 C61_4 1_555 1_555
C64_4 C65_4 1_555 1_555
C67_4 C68_4 1_555 1_555
C67_4 C72_4 1_555 1_555
C68_4 C69_4 1_555 1_555
C69_4 C70_4 1_555 1_555
C70_4 C71_4 1_555 1_555
C71_4 C72_4 1_555 1_555
C95_4 C96_4 1_555 1_555
C101_4 C102_4 1_555 1_555
H29 C46 1_555 1_555
C47 C46 1_555 1_555
H30 C47 1_555 1_555
H29_2 C46_2 1_555 1_555
C47_2 C46_2 1_555 1_555
H30_2 C47_2 1_555 1_555
H29_3 C46_3 1_555 1_555
C47_3 C46_3 1_555 1_555
H30_3 C47_3 1_555 1_555
H29_4 C46_4 1_555 1_555
C47_4 C46_4 1_555 1_555
H30_4 C47_4 1_555 1_555

#END
