
###############################################################################
#
# This file contains modified crystal structure data generated from the
# MOF subset of the Cambridge Structural Database (CSD) v543 
# hosted by the Cambridge Crystallographic Data Centre (CCDC).
#
# This work is licensed under the Creative Commons
# Attribution-NonCommercial-ShareAlike 4.0 International License.
# To view a copy of this license, visit
# http://creativecommons.org/licenses/by-nc-sa/4.0/
# or send a letter to
# Creative Commons, PO Box 1866, Mountain View, CA 94042, USA.
#
# CIF created using the CSD Python API on 29 September 2022
# The structure has been converted into the P1 space group
# The structure has a 3D framework
# The original CSD entry PEDLAM is in the tetragonal crystal system
# The framework has been calculated to contain at least 10.0% void space
# The void calculation uses a probe of radius 1.32A, grid spacing 0.4
# The framework is charged, counterions have been retained in the structure
#
###############################################################################

data_PEDLAM
_chemical_formula_moiety         '(C432 H288 Ag8 S46 8+)n'
_symmetry_cell_setting           triclinic
_symmetry_space_group_name_H-M   'P 1'
_symmetry_Int_Tables_number      1
_space_group_name_Hall           'P 1'
loop_
_symmetry_equiv_pos_site_id
_symmetry_equiv_pos_as_xyz
1 x,y,z
_cell_length_a                   20.1972(3)
_cell_length_b                   20.1972(3)
_cell_length_c                   25.0091(7)
_cell_angle_alpha                90
_cell_angle_beta                 90
_cell_angle_gamma                90
_cell_volume                     10201.9
loop_
_atom_site_label
_atom_site_type_symbol
_atom_site_fract_x
_atom_site_fract_y
_atom_site_fract_z
Ag2 Ag 0.244604(10) 0.233553(7) 0.124414(7)
S7 S 0.23675(3) 0.13848(3) 0.19876(2)
S8 S 0.26011(4) 0.13348(3) 0.06266(3)
S10 S 0.18177(3) 0.32373(3) 0.06679(2)
S12 S 0.31377(4) 0.30923(3) 0.00828(2)
S15 S 0.32433(3) 0.32584(3) 0.157950(19)
S18 S 0.18663(3) 0.31209(3) 0.22068(2)
C55 C 0.31169(13) 0.12686(12) 0.23483(12)
C56 C 0.37271(17) 0.12550(18) 0.20881(18)
H37 H 0.3753 0.1312 0.1712
C57 C 0.42992(18) 0.11555(18) 0.2391(2)
H38 H 0.4716 0.1148 0.2215
C58 C 0.4277(2) 0.10675(17) 0.2937(2)
H39 H 0.4674 0.1004 0.3135
C59 C 0.3673(2) 0.10730(17) 0.31924(17)
H40 H 0.3647 0.1004 0.3568
C60 C 0.30895(16) 0.11822(14) 0.28908(13)
H41 H 0.2673 0.1196 0.3067
C61 C 0.23806(12) 0.06434(10) 0.15984(10)
C62 C 0.22782(12) 0.00544(11) 0.18682(9)
H42 H 0.2159 0.0067 0.2236
C65 C 0.25866(14) 0.00196(11) 0.08005(9)
H43 H 0.2687 0.0010 0.0429
C66 C 0.25198(13) 0.06266(10) 0.10484(10)
C67 C 0.18834(14) 0.12219(12) 0.02168(11)
C68 C 0.12456(18) 0.12368(17) 0.04194(16)
H44 H 0.1172 0.1320 0.0789
C69 C 0.0715(2) 0.1130(2) 0.0078(3)
H45 H 0.0278 0.1132 0.0219
H62 H 0.2945 0.0026 0.4242
C96 C 0.2102(2) 0.0339(3) 0.3991(2)
H63 H 0.2173 0.0776 0.4120
C97 C 0.15230(19) 0.0195(3) 0.3736(2)
H64 H 0.1204 0.0533 0.3679
C70 C 0.0807(2) 0.10218(18) 0.9547(2)
H46 H 0.0435 0.0958 0.9320
C71 C 0.1431(2) 0.10051(17) 0.93396(16)
H47 H 0.1493 0.0924 0.8969
C72 C 0.19824(17) 0.11078(14) 0.96725(12)
H48 H 0.2418 0.1100 0.9528
H50 H 0.2473 0.0154 0.8470
C76 C 0.3382(2) 0.0337(3) 0.88265(19)
H51 H 0.3431 0.0779 0.8702
C77 C 0.3860(2) 0.0060(3) 0.91494(18)
H52 H 0.4221 0.0328 0.9263
C16 C 0.10218(18) 0.9193(2) 0.0453(2)
H10 H 0.0958 0.9565 0.0680
C17 C 0.10051(17) 0.8569(2) 0.06604(16)
H11 H 0.0924 0.8507 0.1031
C18 C 0.11078(14) 0.80176(17) 0.03275(12)
H12 H 0.1100 0.7582 0.0472
H14 H 0.0154 0.7527 0.1530
C22 C 0.0337(3) 0.6618(2) 0.11735(19)
H15 H 0.0779 0.6569 0.1298
C23 C 0.0060(3) 0.6140(2) 0.08506(18)
H16 H 0.0328 0.5779 0.0737
Ag5 Ag 0.266447(7) 0.744604(10) 0.375586(7)
S13 S 0.17416(3) 0.82433(3) 0.342050(19)
S16 S 0.18791(3) 0.68663(3) 0.27932(2)
C63 C 0.23452(11) 0.94387(10) 0.16135(9)
C64 C 0.25131(12) 0.94238(10) 0.10696(9)
C79 C 0.29657(11) 0.81938(10) 0.00076(8)
C80 C 0.28384(11) 0.87745(12) 0.02760(9)
H54 H 0.2893 0.9182 0.0092
C81 C 0.26337(11) 0.87865(10) 0.08041(8)
C82 C 0.25403(11) 0.81901(10) 0.10766(8)
C83 C 0.23064(11) 0.82026(10) 0.16331(8)
C84 C 0.22341(11) 0.88198(11) 0.19021(9)
C85 C 0.26720(11) 0.75891(9) 0.08143(8)
H55 H 0.2612 0.7181 0.0998
C86 C 0.28927(11) 0.75901(11) 0.02816(9)
C87 C 0.27870(12) 0.61931(16) 0.03099(11)
C88 C 0.32300(19) 0.5816(3) 0.0589(2)
H56 H 0.3681 0.5947 0.0608
C89 C 0.3018(3) 0.5229(3) 0.0853(3)
H57 H 0.3327 0.4955 0.1035
C90 C 0.23690(18) 0.5068(3) 0.08379(17)
H58 H 0.2215 0.4687 0.1022
C91 C 0.1927(2) 0.5461(2) 0.0551(2)
H59 H 0.1472 0.5342 0.0541
C92 C 0.2130(2) 0.60080(18) 0.02881(15)
H60 H 0.1822 0.6265 0.0089
C93 C 0.18944(12) 0.90792(15) 0.36231(9)
C94 C 0.24734(15) 0.92456(18) 0.38736(13)
H61 H 0.2815 0.8928 0.3921
C95 C 0.25500(19) 0.9906(3) 0.40609(17)
C98 C 0.13980(17) 0.9538(2) 0.35570(18)
H65 H 0.0988 0.9421 0.3397
C99 C 0.19428(10) 0.82440(10) 0.27244(8)
C100 C 0.20553(11) 0.88266(11) 0.24439(9)
H66 H 0.2010 0.9239 0.2623
C101 C 0.19823(11) 0.76354(10) 0.24589(8)
C102 C 0.21615(10) 0.76201(11) 0.19243(8)
H67 H 0.2188 0.7205 0.1747
C103 C 0.10031(12) 0.67798(12) 0.28555(9)
C104 C 0.07946(13) 0.61674(15) 0.30464(11)
H68 H 0.1110 0.5836 0.3135
C105 C 0.01146(15) 0.60408(14) 0.31079(12)
C108 C 0.05554(14) 0.72570(13) 0.27087(12)
H72 H 0.0700 0.7669 0.2568
Ag1 Ag 0.233553(7) 0.755396(10) 0.875586(7)
S1 S 0.13848(3) 0.76325(3) 0.80124(2)
S2 S 0.13348(3) 0.73989(4) 0.93734(3)
C1 C 0.12686(12) 0.68831(13) 0.76517(12)
C2 C 0.12550(18) 0.62729(17) 0.79119(18)
H1 H 0.1312 0.6247 0.8288
C3 C 0.11555(18) 0.57008(18) 0.7609(2)
H2 H 0.1148 0.5284 0.7785
C4 C 0.10675(17) 0.5723(2) 0.7063(2)
H3 H 0.1004 0.5326 0.6865
C5 C 0.10730(17) 0.6327(2) 0.68076(17)
H4 H 0.1004 0.6353 0.6432
C6 C 0.11822(14) 0.69105(16) 0.71092(13)
H5 H 0.1196 0.7327 0.6933
C7 C 0.06434(10) 0.76194(12) 0.84016(10)
C8 C 0.00544(11) 0.77218(12) 0.81318(9)
H6 H 0.0067 0.7841 0.7764
C11 C 0.00196(11) 0.74134(14) 0.91995(9)
H7 H 0.0010 0.7313 0.9571
C12 C 0.06266(10) 0.74802(13) 0.89516(10)
C13 C 0.12219(12) 0.81166(14) 0.97832(11)
C14 C 0.12368(17) 0.87544(18) 0.95806(16)
H8 H 0.1320 0.8828 0.9211
C15 C 0.1130(2) 0.9285(2) 0.9922(3)
H9 H 0.1132 0.9722 0.9781
H26 H 0.0026 0.7055 0.5758
C42 C 0.0339(3) 0.7898(2) 0.6009(2)
H27 H 0.0776 0.7827 0.5880
C43 C 0.0195(3) 0.84770(19) 0.6264(2)
H28 H 0.0533 0.8796 0.6321
S9 S 0.32373(3) 0.81823(3) 0.93321(2)
S11 S 0.30923(3) 0.68623(4) 0.99172(2)
S14 S 0.32584(3) 0.67567(3) 0.842050(19)
S17 S 0.31209(3) 0.81337(3) 0.77932(2)
C73 C 0.32729(13) 0.90380(15) 0.91643(11)
C74 C 0.27762(16) 0.93108(16) 0.88522(12)
H49 H 0.2405 0.9049 0.8755
C75 C 0.28150(19) 0.9963(3) 0.86797(16)
C78 C 0.38332(17) 0.93940(18) 0.93180(13)
H53 H 0.4177 0.9199 0.9524
H33 H 0.5627 0.0032 0.6756
C52 C 0.65243(15) 0.03393(18) 0.70323(13)
H34 H 0.6443 0.0800 0.6992
C53 C 0.71210(14) 0.01249(17) 0.72288(14)
H35 H 0.7449 0.0441 0.7325
S3 S 0.81823(3) 0.67627(3) 0.06679(2)
S4 S 0.68623(4) 0.69077(3) 0.00828(2)
C19 C 0.90380(15) 0.67271(13) 0.08357(11)
C20 C 0.93108(16) 0.72238(16) 0.11478(12)
H13 H 0.9049 0.7595 0.1245
C21 C 0.9963(3) 0.71850(19) 0.13203(16)
C24 C 0.93940(18) 0.61668(17) 0.06820(13)
H17 H 0.9199 0.5823 0.0476
Ag3 Ag 0.755396(10) 0.766447(7) 0.124414(7)
H69 H 0.9968 0.5627 0.3244
C106 C 0.96607(18) 0.65243(15) 0.29677(13)
H70 H 0.9200 0.6443 0.3008
C107 C 0.98751(17) 0.71210(14) 0.27712(14)
H71 H 0.9559 0.7449 0.2675
S5 S 0.82433(3) 0.82584(3) 0.657950(19)
S6 S 0.68663(3) 0.81209(3) 0.72068(2)
C9 C 0.94387(10) 0.76548(11) 0.83865(9)
C10 C 0.94238(10) 0.74869(12) 0.89304(9)
C25 C 0.81938(10) 0.70343(11) 0.99924(8)
C26 C 0.87745(12) 0.71616(11) 0.97240(9)
H18 H 0.9182 0.7107 0.9908
C27 C 0.87865(10) 0.73663(11) 0.91959(8)
C28 C 0.81901(10) 0.74597(11) 0.89234(8)
C29 C 0.82026(10) 0.76936(11) 0.83669(8)
C30 C 0.88198(11) 0.77659(11) 0.80979(9)
C31 C 0.75891(9) 0.73280(11) 0.91857(8)
H19 H 0.7181 0.7388 0.9002
C32 C 0.75901(11) 0.71073(11) 0.97184(9)
C33 C 0.61931(16) 0.72130(12) 0.96901(11)
C34 C 0.5816(3) 0.67700(19) 0.9411(2)
H20 H 0.5947 0.6319 0.9392
C35 C 0.5229(3) 0.6982(3) 0.9147(3)
H21 H 0.4955 0.6673 0.8965
C36 C 0.5068(3) 0.76310(18) 0.91621(17)
H22 H 0.4687 0.7785 0.8978
C37 C 0.5461(2) 0.8073(2) 0.9449(2)
H23 H 0.5342 0.8528 0.9459
C38 C 0.60080(18) 0.7870(2) 0.97119(15)
H24 H 0.6265 0.8178 0.9911
C39 C 0.90792(15) 0.81056(12) 0.63769(9)
C40 C 0.92456(18) 0.75266(15) 0.61264(13)
H25 H 0.8928 0.7185 0.6079
C41 C 0.9906(3) 0.74500(19) 0.59391(17)
C44 C 0.9538(2) 0.86020(17) 0.64430(18)
H29 H 0.9421 0.9012 0.6603
C45 C 0.82440(10) 0.80572(10) 0.72756(8)
C46 C 0.88266(11) 0.79447(11) 0.75561(9)
H30 H 0.9239 0.7990 0.7377
C47 C 0.76354(10) 0.80177(11) 0.75411(8)
C48 C 0.76201(11) 0.78385(10) 0.80757(8)
H31 H 0.7205 0.7812 0.8253
C49 C 0.67798(12) 0.89969(12) 0.71445(9)
C50 C 0.61674(15) 0.92054(13) 0.69536(11)
H32 H 0.5836 0.8890 0.6865
C51 C 0.60408(14) 0.98854(15) 0.68921(12)
C54 C 0.72570(13) 0.94446(14) 0.72913(12)
H36 H 0.7669 0.9300 0.7432
Ag4 Ag 0.744604(10) 0.733553(7) 0.624414(7)
C19_2 C 0.09620(15) 0.32729(13) 0.08357(11)
C20_2 C 0.06892(16) 0.27762(16) 0.11478(12)
H13_2 H 0.0951 0.2405 0.1245
C21_2 C 0.0037(3) 0.28150(19) 0.13203(16)
C24_2 C 0.06060(18) 0.38332(17) 0.06820(13)
H17_2 H 0.0801 0.4177 0.0476
H69_2 H 0.0032 0.4373 0.3244
C106_2 C 0.03393(18) 0.34757(15) 0.29677(13)
H70_2 H 0.0800 0.3557 0.3008
C107_2 C 0.01249(17) 0.28790(14) 0.27712(14)
H71_2 H 0.0441 0.2551 0.2675
S5_2 S 0.17567(3) 0.17416(3) 0.657950(19)
S6_2 S 0.31337(3) 0.18791(3) 0.72068(2)
C9_2 C 0.05613(10) 0.23452(11) 0.83865(9)
C10_2 C 0.05762(10) 0.25131(12) 0.89304(9)
C25_2 C 0.18062(10) 0.29657(11) 0.99924(8)
C26_2 C 0.12255(12) 0.28384(11) 0.97240(9)
H18_2 H 0.0818 0.2893 0.9908
C27_2 C 0.12135(10) 0.26337(11) 0.91959(8)
C28_2 C 0.18099(10) 0.25403(11) 0.89234(8)
C29_2 C 0.17974(10) 0.23064(11) 0.83669(8)
C30_2 C 0.11802(11) 0.22341(11) 0.80979(9)
C31_2 C 0.24109(9) 0.26720(11) 0.91857(8)
H19_2 H 0.2819 0.2612 0.9002
C32_2 C 0.24099(11) 0.28927(11) 0.97184(9)
C33_2 C 0.38069(16) 0.27870(12) 0.96901(11)
C34_2 C 0.4184(3) 0.32300(19) 0.9411(2)
H20_2 H 0.4053 0.3681 0.9392
C35_2 C 0.4771(3) 0.3018(3) 0.9147(3)
H21_2 H 0.5045 0.3327 0.8965
C36_2 C 0.4932(3) 0.23690(18) 0.91621(17)
H22_2 H 0.5313 0.2215 0.8978
C37_2 C 0.4539(2) 0.1927(2) 0.9449(2)
H23_2 H 0.4658 0.1472 0.9459
C38_2 C 0.39920(18) 0.2130(2) 0.97119(15)
H24_2 H 0.3735 0.1822 0.9911
C39_2 C 0.09208(15) 0.18944(12) 0.63769(9)
C40_2 C 0.07544(18) 0.24734(15) 0.61264(13)
H25_2 H 0.1072 0.2815 0.6079
C41_2 C 0.0094(3) 0.25500(19) 0.59391(17)
C44_2 C 0.0462(2) 0.13980(17) 0.64430(18)
H29_2 H 0.0579 0.0988 0.6603
C45_2 C 0.17560(10) 0.19428(10) 0.72756(8)
C46_2 C 0.11734(11) 0.20553(11) 0.75561(9)
H30_2 H 0.0761 0.2010 0.7377
C47_2 C 0.23646(10) 0.19823(11) 0.75411(8)
C48_2 C 0.23799(11) 0.21615(10) 0.80757(8)
H31_2 H 0.2795 0.2188 0.8253
C49_2 C 0.32202(12) 0.10031(12) 0.71445(9)
C50_2 C 0.38326(15) 0.07946(13) 0.69536(11)
H32_2 H 0.4164 0.1110 0.6865
C51_2 C 0.39592(14) 0.01146(15) 0.68921(12)
C54_2 C 0.27430(13) 0.05554(14) 0.72913(12)
H36_2 H 0.2331 0.0700 0.7432
Ag4_2 Ag 0.255396(10) 0.266447(7) 0.624414(7)
H33_2 H 0.4373 0.9968 0.6756
C52_2 C 0.34757(15) 0.96607(18) 0.70323(13)
H34_2 H 0.3557 0.9200 0.6992
C53_2 C 0.28790(14) 0.98751(17) 0.72288(14)
H35_2 H 0.2551 0.9559 0.7325
C16_2 C 0.89782(18) 0.0807(2) 0.0453(2)
H10_2 H 0.9042 0.0435 0.0680
C17_2 C 0.89949(17) 0.1431(2) 0.06604(16)
H11_2 H 0.9076 0.1493 0.1031
C18_2 C 0.88922(14) 0.19824(17) 0.03275(12)
H12_2 H 0.8900 0.2418 0.0472
H14_2 H 0.9846 0.2473 0.1530
C22_2 C 0.9663(3) 0.3382(2) 0.11735(19)
H15_2 H 0.9221 0.3431 0.1298
C23_2 C 0.9940(3) 0.3860(2) 0.08506(18)
H16_2 H 0.9672 0.4221 0.0737
Ag5_2 Ag 0.733553(7) 0.255396(10) 0.375586(7)
S13_2 S 0.82584(3) 0.17567(3) 0.342050(19)
S16_2 S 0.81209(3) 0.31337(3) 0.27932(2)
C63_2 C 0.76548(11) 0.05613(10) 0.16135(9)
C64_2 C 0.74869(12) 0.05762(10) 0.10696(9)
C79_2 C 0.70343(11) 0.18062(10) 0.00076(8)
C80_2 C 0.71616(11) 0.12255(12) 0.02760(9)
H54_2 H 0.7107 0.0818 0.0092
C81_2 C 0.73663(11) 0.12135(10) 0.08041(8)
C82_2 C 0.74597(11) 0.18099(10) 0.10766(8)
C83_2 C 0.76936(11) 0.17974(10) 0.16331(8)
C84_2 C 0.77659(11) 0.11802(11) 0.19021(9)
C85_2 C 0.73280(11) 0.24109(9) 0.08143(8)
H55_2 H 0.7388 0.2819 0.0998
C86_2 C 0.71073(11) 0.24099(11) 0.02816(9)
C87_2 C 0.72130(12) 0.38069(16) 0.03099(11)
C88_2 C 0.67700(19) 0.4184(3) 0.0589(2)
H56_2 H 0.6319 0.4053 0.0608
C89_2 C 0.6982(3) 0.4771(3) 0.0853(3)
H57_2 H 0.6673 0.5045 0.1035
C90_2 C 0.76310(18) 0.4932(3) 0.08379(17)
H58_2 H 0.7785 0.5313 0.1022
C91_2 C 0.8073(2) 0.4539(2) 0.0551(2)
H59_2 H 0.8528 0.4658 0.0541
C92_2 C 0.7870(2) 0.39920(18) 0.02881(15)
H60_2 H 0.8178 0.3735 0.0089
C93_2 C 0.81056(12) 0.09208(15) 0.36231(9)
C94_2 C 0.75266(15) 0.07544(18) 0.38736(13)
H61_2 H 0.7185 0.1072 0.3921
C95_2 C 0.74500(19) 0.0094(3) 0.40609(17)
C98_2 C 0.86020(17) 0.0462(2) 0.35570(18)
H65_2 H 0.9012 0.0579 0.3397
C99_2 C 0.80572(10) 0.17560(10) 0.27244(8)
C100_2 C 0.79447(11) 0.11734(11) 0.24439(9)
H66_2 H 0.7990 0.0761 0.2623
C101_2 C 0.80177(11) 0.23646(10) 0.24589(8)
C102_2 C 0.78385(10) 0.23799(11) 0.19243(8)
H67_2 H 0.7812 0.2795 0.1747
C103_2 C 0.89969(12) 0.32202(12) 0.28555(9)
C104_2 C 0.92054(13) 0.38326(15) 0.30464(11)
H68_2 H 0.8890 0.4164 0.3135
C105_2 C 0.98854(15) 0.39592(14) 0.31079(12)
C108_2 C 0.94446(14) 0.27430(13) 0.27087(12)
H72_2 H 0.9300 0.2331 0.2568
Ag1_2 Ag 0.766447(7) 0.244604(10) 0.875586(7)
S1_2 S 0.86152(3) 0.23675(3) 0.80124(2)
S2_2 S 0.86652(3) 0.26011(4) 0.93734(3)
C1_2 C 0.87314(12) 0.31169(13) 0.76517(12)
C2_2 C 0.87450(18) 0.37271(17) 0.79119(18)
H1_2 H 0.8688 0.3753 0.8288
C3_2 C 0.88445(18) 0.42992(18) 0.7609(2)
H2_2 H 0.8852 0.4716 0.7785
C4_2 C 0.89325(17) 0.4277(2) 0.7063(2)
H3_2 H 0.8996 0.4674 0.6865
C5_2 C 0.89270(17) 0.3673(2) 0.68076(17)
H4_2 H 0.8996 0.3647 0.6432
C6_2 C 0.88178(14) 0.30895(16) 0.71092(13)
H5_2 H 0.8804 0.2673 0.6933
C7_2 C 0.93566(10) 0.23806(12) 0.84016(10)
C8_2 C 0.99456(11) 0.22782(12) 0.81318(9)
H6_2 H 0.9933 0.2159 0.7764
C11_2 C 0.99804(11) 0.25866(14) 0.91995(9)
H7_2 H 0.9990 0.2687 0.9571
C12_2 C 0.93734(10) 0.25198(13) 0.89516(10)
C13_2 C 0.87781(12) 0.18834(14) 0.97832(11)
C14_2 C 0.87632(17) 0.12456(18) 0.95806(16)
H8_2 H 0.8680 0.1172 0.9211
C15_2 C 0.8870(2) 0.0715(2) 0.9922(3)
H9_2 H 0.8868 0.0278 0.9781
H26_2 H 0.9974 0.2945 0.5758
C42_2 C 0.9661(3) 0.2102(2) 0.6009(2)
H27_2 H 0.9224 0.2173 0.5880
C43_2 C 0.9805(3) 0.15230(19) 0.6264(2)
H28_2 H 0.9467 0.1204 0.6321
S9_2 S 0.67627(3) 0.18177(3) 0.93321(2)
S11_2 S 0.69077(3) 0.31377(4) 0.99172(2)
S14_2 S 0.67416(3) 0.32433(3) 0.842050(19)
S17_2 S 0.68791(3) 0.18663(3) 0.77932(2)
C73_2 C 0.67271(13) 0.09620(15) 0.91643(11)
C74_2 C 0.72238(16) 0.06892(16) 0.88522(12)
H49_2 H 0.7595 0.0951 0.8755
C75_2 C 0.71850(19) 0.0037(3) 0.86797(16)
C78_2 C 0.61668(17) 0.06060(18) 0.93180(13)
H53_2 H 0.5823 0.0801 0.9524
S7_2 S 0.76325(3) 0.86152(3) 0.19876(2)
S8_2 S 0.73989(4) 0.86652(3) 0.06266(3)
S15_2 S 0.67567(3) 0.67416(3) 0.157950(19)
S18_2 S 0.81337(3) 0.68791(3) 0.22068(2)
C55_2 C 0.68831(13) 0.87314(12) 0.23483(12)
C56_2 C 0.62729(17) 0.87450(18) 0.20881(18)
H37_2 H 0.6247 0.8688 0.1712
C57_2 C 0.57008(18) 0.88445(18) 0.2391(2)
H38_2 H 0.5284 0.8852 0.2215
C58_2 C 0.5723(2) 0.89325(17) 0.2937(2)
H39_2 H 0.5326 0.8996 0.3135
C59_2 C 0.6327(2) 0.89270(17) 0.31924(17)
H40_2 H 0.6353 0.8996 0.3568
C60_2 C 0.69105(16) 0.88178(14) 0.28908(13)
H41_2 H 0.7327 0.8804 0.3067
C61_2 C 0.76194(12) 0.93566(10) 0.15984(10)
C62_2 C 0.77218(12) 0.99456(11) 0.18682(9)
H42_2 H 0.7841 0.9933 0.2236
C65_2 C 0.74134(14) 0.99804(11) 0.08005(9)
H43_2 H 0.7313 0.9990 0.0429
C66_2 C 0.74802(13) 0.93734(10) 0.10484(10)
C67_2 C 0.81166(14) 0.87781(12) 0.02168(11)
C68_2 C 0.87544(18) 0.87632(17) 0.04194(16)
H44_2 H 0.8828 0.8680 0.0789
C69_2 C 0.9285(2) 0.8870(2) 0.0078(3)
H45_2 H 0.9722 0.8868 0.0219
H62_2 H 0.7055 0.9974 0.4242
C96_2 C 0.7898(2) 0.9661(3) 0.3991(2)
H63_2 H 0.7827 0.9224 0.4120
C97_2 C 0.84770(19) 0.9805(3) 0.3736(2)
H64_2 H 0.8796 0.9467 0.3679
C70_2 C 0.9193(2) 0.89782(18) 0.9547(2)
H46_2 H 0.9565 0.9042 0.9320
C71_2 C 0.8569(2) 0.89949(17) 0.93396(16)
H47_2 H 0.8507 0.9076 0.8969
C72_2 C 0.80176(17) 0.88922(14) 0.96725(12)
H48_2 H 0.7582 0.8900 0.9528
H50_2 H 0.7527 0.9846 0.8470
C76_2 C 0.6618(2) 0.9663(3) 0.88265(19)
H51_2 H 0.6569 0.9221 0.8702
C77_2 C 0.6140(2) 0.9940(3) 0.91494(18)
H52_2 H 0.5779 0.9672 0.9263
S1_3 S 0.63848(3) 0.26325(3) 0.30124(2)
S2_3 S 0.63348(3) 0.23989(4) 0.43734(3)
S3_2 S 0.31823(3) 0.17627(3) 0.56679(2)
S4_2 S 0.18623(4) 0.19077(3) 0.50828(2)
C1_3 C 0.62686(12) 0.18831(13) 0.26517(12)
C2_3 C 0.62550(18) 0.12729(17) 0.29119(18)
H1_3 H 0.6312 0.1247 0.3288
C3_3 C 0.61555(18) 0.07008(18) 0.2609(2)
H2_3 H 0.6148 0.0284 0.2785
C4_3 C 0.60675(17) 0.0723(2) 0.2063(2)
H3_3 H 0.6004 0.0326 0.1865
C5_3 C 0.60730(17) 0.1327(2) 0.18076(17)
H4_3 H 0.6004 0.1353 0.1432
C6_3 C 0.61822(14) 0.19105(16) 0.21092(13)
H5_3 H 0.6196 0.2327 0.1933
C7_3 C 0.56434(10) 0.26194(12) 0.34016(10)
C8_3 C 0.50544(11) 0.27218(12) 0.31318(9)
H6_3 H 0.5067 0.2841 0.2764
C9_3 C 0.44387(10) 0.26548(11) 0.33865(9)
C10_3 C 0.44238(10) 0.24869(12) 0.39304(9)
C11_3 C 0.50196(11) 0.24134(14) 0.41995(9)
H7_3 H 0.5010 0.2313 0.4571
C12_3 C 0.56266(10) 0.24802(13) 0.39516(10)
C13_3 C 0.62219(12) 0.31166(14) 0.47832(11)
C14_3 C 0.62368(17) 0.37544(18) 0.45806(16)
H8_3 H 0.6320 0.3828 0.4211
C15_3 C 0.6130(2) 0.4285(2) 0.4922(3)
H9_3 H 0.6132 0.4722 0.4781
C16_3 C 0.60218(18) 0.4193(2) 0.5453(2)
H10_3 H 0.5958 0.4565 0.5680
C17_3 C 0.60051(17) 0.3569(2) 0.56604(16)
H11_3 H 0.5924 0.3507 0.6031
C18_3 C 0.61078(14) 0.30176(17) 0.53275(12)
H12_3 H 0.6100 0.2582 0.5472
C19_3 C 0.40380(15) 0.17271(13) 0.58357(11)
C20_3 C 0.43108(16) 0.22238(16) 0.61478(12)
H13_3 H 0.4049 0.2595 0.6245
C21_3 C 0.4963(3) 0.21850(19) 0.63203(16)
H14_3 H 0.5154 0.2527 0.6530
C22_3 C 0.5337(3) 0.1618(2) 0.61735(19)
H15_3 H 0.5779 0.1569 0.6298
C23_3 C 0.5060(3) 0.1140(2) 0.58506(18)
H16_3 H 0.5328 0.0779 0.5737
C24_3 C 0.43940(18) 0.11668(17) 0.56820(13)
H17_3 H 0.4199 0.0823 0.5476
C25_3 C 0.31938(10) 0.20343(11) 0.49924(8)
C26_3 C 0.37745(12) 0.21616(11) 0.47240(9)
H18_3 H 0.4182 0.2107 0.4908
C27_3 C 0.37865(10) 0.23663(11) 0.41959(8)
C28_3 C 0.31901(10) 0.24597(11) 0.39234(8)
C29_3 C 0.32026(10) 0.26936(11) 0.33669(8)
C30_3 C 0.38198(11) 0.27659(11) 0.30979(9)
C31_3 C 0.25891(9) 0.23280(11) 0.41857(8)
H19_3 H 0.2181 0.2388 0.4002
C32_3 C 0.25901(11) 0.21073(11) 0.47184(9)
C33_3 C 0.11931(16) 0.22130(12) 0.46901(11)
C34_3 C 0.0816(3) 0.17700(19) 0.4411(2)
H20_3 H 0.0947 0.1319 0.4392
C35_3 C 0.0229(3) 0.1982(3) 0.4147(3)
C36_3 C 0.0068(3) 0.26310(18) 0.41621(17)
C37_3 C 0.0461(2) 0.3073(2) 0.4449(2)
H23_3 H 0.0342 0.3528 0.4459
C38_3 C 0.10080(18) 0.2870(2) 0.47119(15)
H24_3 H 0.1265 0.3178 0.4911
C39_3 C 0.40792(15) 0.31056(12) 0.13769(9)
C40_3 C 0.42456(18) 0.25266(15) 0.11264(13)
H25_3 H 0.3928 0.2185 0.1079
C41_3 C 0.4906(3) 0.24500(19) 0.09391(17)
H26_3 H 0.5026 0.2055 0.0758
C42_3 C 0.5339(3) 0.2898(2) 0.1009(2)
H27_3 H 0.5776 0.2827 0.0880
C43_3 C 0.5195(3) 0.34770(19) 0.1264(2)
H28_3 H 0.5533 0.3796 0.1321
C44_3 C 0.4538(2) 0.36020(17) 0.14430(18)
H29_3 H 0.4421 0.4012 0.1603
C45_3 C 0.32440(10) 0.30572(10) 0.22756(8)
C46_3 C 0.38266(11) 0.29447(11) 0.25561(9)
H30_3 H 0.4239 0.2990 0.2377
C47_3 C 0.26354(10) 0.30177(11) 0.25411(8)
C48_3 C 0.26201(11) 0.28385(10) 0.30757(8)
H31_3 H 0.2205 0.2812 0.3253
C49_3 C 0.17798(12) 0.39969(12) 0.21445(9)
C50_3 C 0.11674(15) 0.42054(13) 0.19536(11)
H32_3 H 0.0836 0.3890 0.1865
C51_3 C 0.10408(14) 0.48854(15) 0.18921(12)
H33_3 H 0.0627 0.5032 0.1756
C52_3 C 0.15243(15) 0.53393(18) 0.20323(13)
H34_3 H 0.1443 0.5800 0.1992
C53_3 C 0.21210(14) 0.51249(17) 0.22288(14)
H35_3 H 0.2449 0.5441 0.2325
C54_3 C 0.22570(13) 0.44446(14) 0.22913(12)
H36_3 H 0.2669 0.4300 0.2432
S7_3 S 0.73675(3) 0.63848(3) 0.69876(2)
S8_3 S 0.76011(4) 0.63348(3) 0.56266(3)
S9_3 S 0.82373(3) 0.31823(3) 0.43321(2)
S10_2 S 0.68177(3) 0.82373(3) 0.56679(2)
S11_3 S 0.80923(3) 0.18623(4) 0.49172(2)
S12_2 S 0.81377(4) 0.80923(3) 0.50828(2)
C55_3 C 0.81169(13) 0.62686(12) 0.73483(12)
C56_3 C 0.87271(17) 0.62550(18) 0.70881(18)
H37_3 H 0.8753 0.6312 0.6712
C57_3 C 0.92992(18) 0.61555(18) 0.7391(2)
H38_3 H 0.9716 0.6148 0.7215
C58_3 C 0.9277(2) 0.60675(17) 0.7937(2)
H39_3 H 0.9674 0.6004 0.8135
C59_3 C 0.8673(2) 0.60730(17) 0.81924(17)
H40_3 H 0.8647 0.6004 0.8568
C60_3 C 0.80895(16) 0.61822(14) 0.78908(13)
H41_3 H 0.7673 0.6196 0.8067
C61_3 C 0.73806(12) 0.56434(10) 0.65984(10)
C62_3 C 0.72782(12) 0.50544(11) 0.68682(9)
H42_3 H 0.7159 0.5067 0.7236
C63_3 C 0.73452(11) 0.44387(10) 0.66135(9)
C64_3 C 0.75131(12) 0.44238(10) 0.60696(9)
C65_3 C 0.75866(14) 0.50196(11) 0.58005(9)
H43_3 H 0.7687 0.5010 0.5429
C66_3 C 0.75198(13) 0.56266(10) 0.60484(10)
C67_3 C 0.68834(14) 0.62219(12) 0.52168(11)
C68_3 C 0.62456(18) 0.62368(17) 0.54194(16)
H44_3 H 0.6172 0.6320 0.5789
C69_3 C 0.5715(2) 0.6130(2) 0.5078(3)
H45_3 H 0.5278 0.6132 0.5219
C70_3 C 0.5807(2) 0.60218(18) 0.4547(2)
H46_3 H 0.5435 0.5958 0.4320
C71_3 C 0.6431(2) 0.60051(17) 0.43396(16)
H47_3 H 0.6493 0.5924 0.3969
C72_3 C 0.69824(17) 0.61078(14) 0.46725(12)
H48_3 H 0.7418 0.6100 0.4528
C73_3 C 0.82729(13) 0.40380(15) 0.41643(11)
C74_3 C 0.77762(16) 0.43108(16) 0.38522(12)
H49_3 H 0.7405 0.4049 0.3755
C75_3 C 0.78150(19) 0.4963(3) 0.36797(16)
H50_3 H 0.7473 0.5154 0.3470
C76_3 C 0.8382(2) 0.5337(3) 0.38265(19)
H51_3 H 0.8431 0.5779 0.3702
C77_3 C 0.8860(2) 0.5060(3) 0.41494(18)
H52_3 H 0.9221 0.5328 0.4263
C78_3 C 0.88332(17) 0.43940(18) 0.43180(13)
H53_3 H 0.9177 0.4199 0.4524
C79_3 C 0.79657(11) 0.31938(10) 0.50076(8)
C80_3 C 0.78384(11) 0.37745(12) 0.52760(9)
H54_3 H 0.7893 0.4182 0.5092
C81_3 C 0.76337(11) 0.37865(10) 0.58041(8)
C82_3 C 0.75403(11) 0.31901(10) 0.60766(8)
C83_3 C 0.73064(11) 0.32026(10) 0.66331(8)
C84_3 C 0.72341(11) 0.38198(11) 0.69021(9)
C85_3 C 0.76720(11) 0.25891(9) 0.58143(8)
H55_3 H 0.7612 0.2181 0.5998
C86_3 C 0.78927(11) 0.25901(11) 0.52816(9)
C87_3 C 0.77870(12) 0.11931(16) 0.53099(11)
C88_3 C 0.82300(19) 0.0816(3) 0.5589(2)
H56_3 H 0.8681 0.0947 0.5608
C89_3 C 0.8018(3) 0.0229(3) 0.5853(3)
C90_3 C 0.73690(18) 0.0068(3) 0.58379(17)
C91_3 C 0.6927(2) 0.0461(2) 0.5551(2)
H59_3 H 0.6472 0.0342 0.5541
C92_3 C 0.7130(2) 0.10080(18) 0.52881(15)
H60_3 H 0.6822 0.1265 0.5089
C93_3 C 0.68944(12) 0.40792(15) 0.86231(9)
C94_3 C 0.74734(15) 0.42456(18) 0.88736(13)
H61_3 H 0.7815 0.3928 0.8921
C95_3 C 0.75500(19) 0.4906(3) 0.90609(17)
H62_3 H 0.7945 0.5026 0.9242
C96_3 C 0.7102(2) 0.5339(3) 0.8991(2)
H63_3 H 0.7173 0.5776 0.9120
C97_3 C 0.65230(19) 0.5195(3) 0.8736(2)
H64_3 H 0.6204 0.5533 0.8679
C98_3 C 0.63980(17) 0.4538(2) 0.85570(18)
H65_3 H 0.5988 0.4421 0.8397
C99_3 C 0.69428(10) 0.32440(10) 0.77244(8)
C100_3 C 0.70553(11) 0.38266(11) 0.74439(9)
H66_3 H 0.7010 0.4239 0.7623
C101_3 C 0.69823(11) 0.26354(10) 0.74589(8)
C102_3 C 0.71615(10) 0.26201(11) 0.69243(8)
H67_3 H 0.7188 0.2205 0.6747
C103_3 C 0.60031(12) 0.17798(12) 0.78555(9)
C104_3 C 0.57946(13) 0.11674(15) 0.80464(11)
H68_3 H 0.6110 0.0836 0.8135
C105_3 C 0.51146(15) 0.10408(14) 0.81079(12)
H69_3 H 0.4968 0.0627 0.8244
C106_3 C 0.46607(18) 0.15243(15) 0.79677(13)
H70_3 H 0.4200 0.1443 0.8008
C107_3 C 0.48751(17) 0.21210(14) 0.77712(14)
H71_3 H 0.4559 0.2449 0.7675
C108_3 C 0.55554(14) 0.22570(13) 0.77087(12)
H72_3 H 0.5700 0.2669 0.7568
S1_4 S 0.36152(3) 0.73675(3) 0.30124(2)
S2_4 S 0.36652(3) 0.76011(4) 0.43734(3)
C1_4 C 0.37314(12) 0.81169(13) 0.26517(12)
C2_4 C 0.37450(18) 0.87271(17) 0.29119(18)
H1_4 H 0.3688 0.8753 0.3288
C3_4 C 0.38445(18) 0.92992(18) 0.2609(2)
H2_4 H 0.3852 0.9716 0.2785
C4_4 C 0.39325(17) 0.9277(2) 0.2063(2)
H3_4 H 0.3996 0.9674 0.1865
C5_4 C 0.39270(17) 0.8673(2) 0.18076(17)
H4_4 H 0.3996 0.8647 0.1432
C6_4 C 0.38178(14) 0.80895(16) 0.21092(13)
H5_4 H 0.3804 0.7673 0.1933
C7_4 C 0.43566(10) 0.73806(12) 0.34016(10)
C8_4 C 0.49456(11) 0.72782(12) 0.31318(9)
H6_4 H 0.4933 0.7159 0.2764
C9_4 C 0.55613(10) 0.73452(11) 0.33865(9)
C10_4 C 0.55762(10) 0.75131(12) 0.39304(9)
C11_4 C 0.49804(11) 0.75866(14) 0.41995(9)
H7_4 H 0.4990 0.7687 0.4571
C12_4 C 0.43734(10) 0.75198(13) 0.39516(10)
C13_4 C 0.37781(12) 0.68834(14) 0.47832(11)
C14_4 C 0.37632(17) 0.62456(18) 0.45806(16)
H8_4 H 0.3680 0.6172 0.4211
C15_4 C 0.3870(2) 0.5715(2) 0.4922(3)
H9_4 H 0.3868 0.5278 0.4781
C16_4 C 0.39782(18) 0.5807(2) 0.5453(2)
H10_4 H 0.4042 0.5435 0.5680
C17_4 C 0.39949(17) 0.6431(2) 0.56604(16)
H11_4 H 0.4076 0.6493 0.6031
C18_4 C 0.38922(14) 0.69824(17) 0.53275(12)
H12_4 H 0.3900 0.7418 0.5472
C19_4 C 0.59620(15) 0.82729(13) 0.58357(11)
C20_4 C 0.56892(16) 0.77762(16) 0.61478(12)
H13_4 H 0.5951 0.7405 0.6245
C21_4 C 0.5037(3) 0.78150(19) 0.63203(16)
H14_4 H 0.4846 0.7473 0.6530
C22_4 C 0.4663(3) 0.8382(2) 0.61735(19)
H15_4 H 0.4221 0.8431 0.6298
C23_4 C 0.4940(3) 0.8860(2) 0.58506(18)
H16_4 H 0.4672 0.9221 0.5737
C24_4 C 0.56060(18) 0.88332(17) 0.56820(13)
H17_4 H 0.5801 0.9177 0.5476
C25_4 C 0.68062(10) 0.79657(11) 0.49924(8)
C26_4 C 0.62255(12) 0.78384(11) 0.47240(9)
H18_4 H 0.5818 0.7893 0.4908
C27_4 C 0.62135(10) 0.76337(11) 0.41959(8)
C28_4 C 0.68099(10) 0.75403(11) 0.39234(8)
C29_4 C 0.67974(10) 0.73064(11) 0.33669(8)
C30_4 C 0.61802(11) 0.72341(11) 0.30979(9)
C31_4 C 0.74109(9) 0.76720(11) 0.41857(8)
H19_4 H 0.7819 0.7612 0.4002
C32_4 C 0.74099(11) 0.78927(11) 0.47184(9)
C33_4 C 0.88069(16) 0.77870(12) 0.46901(11)
C34_4 C 0.9184(3) 0.82300(19) 0.4411(2)
H20_4 H 0.9053 0.8681 0.4392
C35_4 C 0.9771(3) 0.8018(3) 0.4147(3)
C36_4 C 0.9932(3) 0.73690(18) 0.41621(17)
C37_4 C 0.9539(2) 0.6927(2) 0.4449(2)
H23_4 H 0.9658 0.6472 0.4459
C38_4 C 0.89920(18) 0.7130(2) 0.47119(15)
H24_4 H 0.8735 0.6822 0.4911
C39_4 C 0.59208(15) 0.68944(12) 0.13769(9)
C40_4 C 0.57544(18) 0.74734(15) 0.11264(13)
H25_4 H 0.6072 0.7815 0.1079
C41_4 C 0.5094(3) 0.75500(19) 0.09391(17)
H26_4 H 0.4974 0.7945 0.0758
C42_4 C 0.4661(3) 0.7102(2) 0.1009(2)
H27_4 H 0.4224 0.7173 0.0880
C43_4 C 0.4805(3) 0.65230(19) 0.1264(2)
H28_4 H 0.4467 0.6204 0.1321
C44_4 C 0.5462(2) 0.63980(17) 0.14430(18)
H29_4 H 0.5579 0.5988 0.1603
C45_4 C 0.67560(10) 0.69428(10) 0.22756(8)
C46_4 C 0.61734(11) 0.70553(11) 0.25561(9)
H30_4 H 0.5761 0.7010 0.2377
C47_4 C 0.73646(10) 0.69823(11) 0.25411(8)
C48_4 C 0.73799(11) 0.71615(10) 0.30757(8)
H31_4 H 0.7795 0.7188 0.3253
C49_4 C 0.82202(12) 0.60031(12) 0.21445(9)
C50_4 C 0.88326(15) 0.57946(13) 0.19536(11)
H32_4 H 0.9164 0.6110 0.1865
C51_4 C 0.89592(14) 0.51146(15) 0.18921(12)
H33_4 H 0.9373 0.4968 0.1756
C52_4 C 0.84757(15) 0.46607(18) 0.20323(13)
H34_4 H 0.8557 0.4200 0.1992
C53_4 C 0.78790(14) 0.48751(17) 0.22288(14)
H35_4 H 0.7551 0.4559 0.2325
C54_4 C 0.77430(13) 0.55554(14) 0.22913(12)
H36_4 H 0.7331 0.5700 0.2432
S7_4 S 0.26325(3) 0.36152(3) 0.69876(2)
S8_4 S 0.23989(4) 0.36652(3) 0.56266(3)
S9_4 S 0.17627(3) 0.68177(3) 0.43321(2)
S11_4 S 0.19077(3) 0.81377(4) 0.49172(2)
C55_4 C 0.18831(13) 0.37314(12) 0.73483(12)
C56_4 C 0.12729(17) 0.37450(18) 0.70881(18)
H37_4 H 0.1247 0.3688 0.6712
C57_4 C 0.07008(18) 0.38445(18) 0.7391(2)
H38_4 H 0.0284 0.3852 0.7215
C58_4 C 0.0723(2) 0.39325(17) 0.7937(2)
H39_4 H 0.0326 0.3996 0.8135
C59_4 C 0.1327(2) 0.39270(17) 0.81924(17)
H40_4 H 0.1353 0.3996 0.8568
C60_4 C 0.19105(16) 0.38178(14) 0.78908(13)
H41_4 H 0.2327 0.3804 0.8067
C61_4 C 0.26194(12) 0.43566(10) 0.65984(10)
C62_4 C 0.27218(12) 0.49456(11) 0.68682(9)
H42_4 H 0.2841 0.4933 0.7236
C63_4 C 0.26548(11) 0.55613(10) 0.66135(9)
C64_4 C 0.24869(12) 0.55762(10) 0.60696(9)
C65_4 C 0.24134(14) 0.49804(11) 0.58005(9)
H43_4 H 0.2313 0.4990 0.5429
C66_4 C 0.24802(13) 0.43734(10) 0.60484(10)
C67_4 C 0.31166(14) 0.37781(12) 0.52168(11)
C68_4 C 0.37544(18) 0.37632(17) 0.54194(16)
H44_4 H 0.3828 0.3680 0.5789
C69_4 C 0.4285(2) 0.3870(2) 0.5078(3)
H45_4 H 0.4722 0.3868 0.5219
C70_4 C 0.4193(2) 0.39782(18) 0.4547(2)
H46_4 H 0.4565 0.4042 0.4320
C71_4 C 0.3569(2) 0.39949(17) 0.43396(16)
H47_4 H 0.3507 0.4076 0.3969
C72_4 C 0.30176(17) 0.38922(14) 0.46725(12)
H48_4 H 0.2582 0.3900 0.4528
C73_4 C 0.17271(13) 0.59620(15) 0.41643(11)
C74_4 C 0.22238(16) 0.56892(16) 0.38522(12)
H49_4 H 0.2595 0.5951 0.3755
C75_4 C 0.21850(19) 0.5037(3) 0.36797(16)
H50_4 H 0.2527 0.4846 0.3470
C76_4 C 0.1618(2) 0.4663(3) 0.38265(19)
H51_4 H 0.1569 0.4221 0.3702
C77_4 C 0.1140(2) 0.4940(3) 0.41494(18)
H52_4 H 0.0779 0.4672 0.4263
C78_4 C 0.11668(17) 0.56060(18) 0.43180(13)
H53_4 H 0.0823 0.5801 0.4524
C79_4 C 0.20343(11) 0.68062(10) 0.50076(8)
C80_4 C 0.21616(11) 0.62255(12) 0.52760(9)
H54_4 H 0.2107 0.5818 0.5092
C81_4 C 0.23663(11) 0.62135(10) 0.58041(8)
C82_4 C 0.24597(11) 0.68099(10) 0.60766(8)
C83_4 C 0.26936(11) 0.67974(10) 0.66331(8)
C84_4 C 0.27659(11) 0.61802(11) 0.69021(9)
C85_4 C 0.23280(11) 0.74109(9) 0.58143(8)
H55_4 H 0.2388 0.7819 0.5998
C86_4 C 0.21073(11) 0.74099(11) 0.52816(9)
C87_4 C 0.22130(12) 0.88069(16) 0.53099(11)
C88_4 C 0.17700(19) 0.9184(3) 0.5589(2)
H56_4 H 0.1319 0.9053 0.5608
C89_4 C 0.1982(3) 0.9771(3) 0.5853(3)
C90_4 C 0.26310(18) 0.9932(3) 0.58379(17)
C91_4 C 0.3073(2) 0.9539(2) 0.5551(2)
H59_4 H 0.3528 0.9658 0.5541
C92_4 C 0.2870(2) 0.89920(18) 0.52881(15)
H60_4 H 0.3178 0.8735 0.5089
C93_4 C 0.31056(12) 0.59208(15) 0.86231(9)
C94_4 C 0.25266(15) 0.57544(18) 0.88736(13)
H61_4 H 0.2185 0.6072 0.8921
C95_4 C 0.24500(19) 0.5094(3) 0.90609(17)
H62_4 H 0.2055 0.4974 0.9242
C96_4 C 0.2898(2) 0.4661(3) 0.8991(2)
H63_4 H 0.2827 0.4224 0.9120
C97_4 C 0.34770(19) 0.4805(3) 0.8736(2)
H64_4 H 0.3796 0.4467 0.8679
C98_4 C 0.36020(17) 0.5462(2) 0.85570(18)
H65_4 H 0.4012 0.5579 0.8397
C99_4 C 0.30572(10) 0.67560(10) 0.77244(8)
C100_4 C 0.29447(11) 0.61734(11) 0.74439(9)
H66_4 H 0.2990 0.5761 0.7623
C101_4 C 0.30177(11) 0.73646(10) 0.74589(8)
C102_4 C 0.28385(10) 0.73799(11) 0.69243(8)
H67_4 H 0.2812 0.7795 0.6747
C103_4 C 0.39969(12) 0.82202(12) 0.78555(9)
C104_4 C 0.42054(13) 0.88326(15) 0.80464(11)
H68_4 H 0.3890 0.9164 0.8135
C105_4 C 0.48854(15) 0.89592(14) 0.81079(12)
H69_4 H 0.5032 0.9373 0.8244
C106_4 C 0.53393(18) 0.84757(15) 0.79677(13)
H70_4 H 0.5800 0.8557 0.8008
C107_4 C 0.51249(17) 0.78790(14) 0.77712(14)
H71_4 H 0.5441 0.7551 0.7675
C108_4 C 0.44446(14) 0.77430(13) 0.77087(12)
H72_4 H 0.4300 0.7331 0.7568
H57_3 H 0.8327 0.9955 0.6035
H58_3 H 0.7215 0.9687 0.6022
H21_3 H 0.9955 0.1673 0.3965
H22_3 H 0.9687 0.2785 0.3978
H21_4 H 0.0045 0.8327 0.3965
H22_4 H 0.0313 0.7215 0.3978
H57_4 H 0.1673 0.0045 0.6035
H58_4 H 0.2785 0.0313 0.6022
loop_
_geom_bond_atom_site_label_1
_geom_bond_atom_site_label_2
_geom_bond_site_symmetry_1
_geom_bond_site_symmetry_2
Ag2 S7 1_555 1_555
S7 C55 1_555 1_555
S8 Ag2 1_555 1_555
S10 Ag2 1_555 1_555
S12 Ag2 1_555 1_555
S15 Ag2 1_555 1_555
S18 Ag2 1_555 1_555
C55 C56 1_555 1_555
C56 H37 1_555 1_555
C57 C56 1_555 1_555
H38 C57 1_555 1_555
C58 C57 1_555 1_555
H39 C58 1_555 1_555
C59 C58 1_555 1_555
H40 C59 1_555 1_555
C60 C55 1_555 1_555
H41 C60 1_555 1_555
C61 S7 1_555 1_555
C62 C61 1_555 1_555
H42 C62 1_555 1_555
H43 C65 1_555 1_555
C66 S8 1_555 1_555
C67 S8 1_555 1_555
C68 C67 1_555 1_555
H44 C68 1_555 1_555
C69 C68 1_555 1_555
H45 C69 1_555 1_555
H63 C96 1_555 1_555
C97 C96 1_555 1_555
H64 C97 1_555 1_555
C59 C60 1_555 1_555
C61 C66 1_555 1_555
C65 C66 1_555 1_555
H46 C70 1_555 1_555
C71 C70 1_555 1_555
H47 C71 1_555 1_555
H48 C72 1_555 1_555
H51 C76 1_555 1_555
C77 C76 1_555 1_555
H52 C77 1_555 1_555
C71 C72 1_555 1_555
H10 C16 1_555 1_555
C17 C16 1_555 1_555
H11 C17 1_555 1_555
H12 C18 1_555 1_555
H15 C22 1_555 1_555
C23 C22 1_555 1_555
H16 C23 1_555 1_555
Ag5 S13 1_555 1_555
S13 C93 1_555 1_555
S16 Ag5 1_555 1_555
C64 C63 1_555 1_555
C80 C79 1_555 1_555
H54 C80 1_555 1_555
C81 C64 1_555 1_555
C82 C81 1_555 1_555
C83 C82 1_555 1_555
C84 C63 1_555 1_555
C85 C82 1_555 1_555
H55 C85 1_555 1_555
C88 C87 1_555 1_555
H56 C88 1_555 1_555
C89 C88 1_555 1_555
H57 C89 1_555 1_555
C90 C89 1_555 1_555
H58 C90 1_555 1_555
C91 C90 1_555 1_555
H59 C91 1_555 1_555
C92 C87 1_555 1_555
H60 C92 1_555 1_555
C93 C94 1_555 1_555
C94 H61 1_555 1_555
C95 C94 1_555 1_555
C98 C93 1_555 1_555
H65 C98 1_555 1_555
C99 S13 1_555 1_555
C100 C84 1_555 1_555
H66 C100 1_555 1_555
C101 S16 1_555 1_555
C102 C83 1_555 1_555
H67 C102 1_555 1_555
C103 S16 1_555 1_555
C104 C103 1_555 1_555
H68 C104 1_555 1_555
C105 C104 1_555 1_555
C108 C103 1_555 1_555
H72 C108 1_555 1_555
C17 C18 1_555 1_555
C79 C86 1_555 1_555
C80 C81 1_555 1_555
C83 C84 1_555 1_555
C85 C86 1_555 1_555
C91 C92 1_555 1_555
C99 C100 1_555 1_555
C99 C101 1_555 1_555
C101 C102 1_555 1_555
Ag1 S1 1_555 1_555
S1 C1 1_555 1_555
S2 Ag1 1_555 1_555
C1 C2 1_555 1_555
C2 H1 1_555 1_555
C3 C2 1_555 1_555
H2 C3 1_555 1_555
C4 C3 1_555 1_555
H3 C4 1_555 1_555
C5 C4 1_555 1_555
H4 C5 1_555 1_555
C6 C1 1_555 1_555
H5 C6 1_555 1_555
C7 S1 1_555 1_555
C8 C7 1_555 1_555
H6 C8 1_555 1_555
H7 C11 1_555 1_555
C12 S2 1_555 1_555
C13 S2 1_555 1_555
C14 C13 1_555 1_555
H8 C14 1_555 1_555
C15 C14 1_555 1_555
H9 C15 1_555 1_555
H27 C42 1_555 1_555
C43 C42 1_555 1_555
H28 C43 1_555 1_555
S9 Ag1 1_555 1_555
S11 Ag1 1_555 1_555
S14 Ag1 1_555 1_555
S17 Ag1 1_555 1_555
C73 S9 1_555 1_555
C74 C73 1_555 1_555
H49 C74 1_555 1_555
C75 C74 1_555 1_555
C78 C73 1_555 1_555
H53 C78 1_555 1_555
C5 C6 1_555 1_555
C7 C12 1_555 1_555
C11 C12 1_555 1_555
H34 C52 1_555 1_555
C53 C52 1_555 1_555
H35 C53 1_555 1_555
S3 C19 1_555 1_555
C19 C20 1_555 1_555
C20 H13 1_555 1_555
C21 C20 1_555 1_555
C24 C19 1_555 1_555
H17 C24 1_555 1_555
Ag3 S3 1_555 1_555
H70 C106 1_555 1_555
C107 C106 1_555 1_555
H71 C107 1_555 1_555
S4 Ag3 1_555 1_555
S5 C39 1_555 1_555
S6 C47 1_555 1_555
C10 C9 1_555 1_555
C26 C25 1_555 1_555
H18 C26 1_555 1_555
C27 C10 1_555 1_555
C28 C27 1_555 1_555
C29 C28 1_555 1_555
C30 C9 1_555 1_555
C31 C28 1_555 1_555
H19 C31 1_555 1_555
C32 C25 1_555 1_555
C34 C33 1_555 1_555
H20 C34 1_555 1_555
C35 C34 1_555 1_555
H21 C35 1_555 1_555
C36 C35 1_555 1_555
H22 C36 1_555 1_555
C37 C36 1_555 1_555
H23 C37 1_555 1_555
C38 C33 1_555 1_555
H24 C38 1_555 1_555
C39 C40 1_555 1_555
C40 H25 1_555 1_555
C41 C40 1_555 1_555
C44 C39 1_555 1_555
H29 C44 1_555 1_555
C45 S5 1_555 1_555
C46 C30 1_555 1_555
H30 C46 1_555 1_555
C47 C45 1_555 1_555
C48 C29 1_555 1_555
H31 C48 1_555 1_555
C49 S6 1_555 1_555
C50 C49 1_555 1_555
H32 C50 1_555 1_555
C51 C50 1_555 1_555
C54 C49 1_555 1_555
H36 C54 1_555 1_555
Ag4 S5 1_555 1_555
S6 Ag4 1_555 1_555
C26 C27 1_555 1_555
C29 C30 1_555 1_555
C31 C32 1_555 1_555
C37 C38 1_555 1_555
C45 C46 1_555 1_555
C47 C48 1_555 1_555
S10 C19_2 1_555 1_555
C19_2 C20_2 1_555 1_555
C20_2 H13_2 1_555 1_555
C21_2 C20_2 1_555 1_555
C24_2 C19_2 1_555 1_555
H17_2 C24_2 1_555 1_555
H70_2 C106_2 1_555 1_555
C107_2 C106_2 1_555 1_555
H71_2 C107_2 1_555 1_555
S5_2 C39_2 1_555 1_555
S6_2 C47_2 1_555 1_555
C10_2 C9_2 1_555 1_555
C26_2 C25_2 1_555 1_555
H18_2 C26_2 1_555 1_555
C27_2 C10_2 1_555 1_555
C28_2 C27_2 1_555 1_555
C29_2 C28_2 1_555 1_555
C30_2 C9_2 1_555 1_555
C31_2 C28_2 1_555 1_555
H19_2 C31_2 1_555 1_555
C32_2 C25_2 1_555 1_555
C34_2 C33_2 1_555 1_555
H20_2 C34_2 1_555 1_555
C35_2 C34_2 1_555 1_555
H21_2 C35_2 1_555 1_555
C36_2 C35_2 1_555 1_555
H22_2 C36_2 1_555 1_555
C37_2 C36_2 1_555 1_555
H23_2 C37_2 1_555 1_555
C38_2 C33_2 1_555 1_555
H24_2 C38_2 1_555 1_555
C39_2 C40_2 1_555 1_555
C40_2 H25_2 1_555 1_555
C41_2 C40_2 1_555 1_555
C44_2 C39_2 1_555 1_555
H29_2 C44_2 1_555 1_555
C45_2 S5_2 1_555 1_555
C46_2 C30_2 1_555 1_555
H30_2 C46_2 1_555 1_555
C47_2 C45_2 1_555 1_555
C48_2 C29_2 1_555 1_555
H31_2 C48_2 1_555 1_555
C49_2 S6_2 1_555 1_555
C50_2 C49_2 1_555 1_555
H32_2 C50_2 1_555 1_555
C51_2 C50_2 1_555 1_555
C54_2 C49_2 1_555 1_555
H36_2 C54_2 1_555 1_555
Ag4_2 S5_2 1_555 1_555
S6_2 Ag4_2 1_555 1_555
C26_2 C27_2 1_555 1_555
C29_2 C30_2 1_555 1_555
C31_2 C32_2 1_555 1_555
C37_2 C38_2 1_555 1_555
C45_2 C46_2 1_555 1_555
C47_2 C48_2 1_555 1_555
H34_2 C52_2 1_555 1_555
C53_2 C52_2 1_555 1_555
H35_2 C53_2 1_555 1_555
H10_2 C16_2 1_555 1_555
C17_2 C16_2 1_555 1_555
H11_2 C17_2 1_555 1_555
H12_2 C18_2 1_555 1_555
H15_2 C22_2 1_555 1_555
C23_2 C22_2 1_555 1_555
H16_2 C23_2 1_555 1_555
Ag5_2 S13_2 1_555 1_555
S13_2 C93_2 1_555 1_555
S16_2 Ag5_2 1_555 1_555
C64_2 C63_2 1_555 1_555
C80_2 C79_2 1_555 1_555
H54_2 C80_2 1_555 1_555
C81_2 C64_2 1_555 1_555
C82_2 C81_2 1_555 1_555
C83_2 C82_2 1_555 1_555
C84_2 C63_2 1_555 1_555
C85_2 C82_2 1_555 1_555
H55_2 C85_2 1_555 1_555
C88_2 C87_2 1_555 1_555
H56_2 C88_2 1_555 1_555
C89_2 C88_2 1_555 1_555
H57_2 C89_2 1_555 1_555
C90_2 C89_2 1_555 1_555
H58_2 C90_2 1_555 1_555
C91_2 C90_2 1_555 1_555
H59_2 C91_2 1_555 1_555
C92_2 C87_2 1_555 1_555
H60_2 C92_2 1_555 1_555
C93_2 C94_2 1_555 1_555
C94_2 H61_2 1_555 1_555
C95_2 C94_2 1_555 1_555
C98_2 C93_2 1_555 1_555
H65_2 C98_2 1_555 1_555
C99_2 S13_2 1_555 1_555
C100_2 C84_2 1_555 1_555
H66_2 C100_2 1_555 1_555
C101_2 S16_2 1_555 1_555
C102_2 C83_2 1_555 1_555
H67_2 C102_2 1_555 1_555
C103_2 S16_2 1_555 1_555
C104_2 C103_2 1_555 1_555
H68_2 C104_2 1_555 1_555
C105_2 C104_2 1_555 1_555
C108_2 C103_2 1_555 1_555
H72_2 C108_2 1_555 1_555
C17_2 C18_2 1_555 1_555
C79_2 C86_2 1_555 1_555
C80_2 C81_2 1_555 1_555
C83_2 C84_2 1_555 1_555
C85_2 C86_2 1_555 1_555
C91_2 C92_2 1_555 1_555
C99_2 C100_2 1_555 1_555
C99_2 C101_2 1_555 1_555
C101_2 C102_2 1_555 1_555
Ag1_2 S1_2 1_555 1_555
S1_2 C1_2 1_555 1_555
S2_2 Ag1_2 1_555 1_555
C1_2 C2_2 1_555 1_555
C2_2 H1_2 1_555 1_555
C3_2 C2_2 1_555 1_555
H2_2 C3_2 1_555 1_555
C4_2 C3_2 1_555 1_555
H3_2 C4_2 1_555 1_555
C5_2 C4_2 1_555 1_555
H4_2 C5_2 1_555 1_555
C6_2 C1_2 1_555 1_555
H5_2 C6_2 1_555 1_555
C7_2 S1_2 1_555 1_555
C8_2 C7_2 1_555 1_555
H6_2 C8_2 1_555 1_555
H7_2 C11_2 1_555 1_555
C12_2 S2_2 1_555 1_555
C13_2 S2_2 1_555 1_555
C14_2 C13_2 1_555 1_555
H8_2 C14_2 1_555 1_555
C15_2 C14_2 1_555 1_555
H9_2 C15_2 1_555 1_555
H27_2 C42_2 1_555 1_555
C43_2 C42_2 1_555 1_555
H28_2 C43_2 1_555 1_555
S9_2 Ag1_2 1_555 1_555
S11_2 Ag1_2 1_555 1_555
S14_2 Ag1_2 1_555 1_555
S17_2 Ag1_2 1_555 1_555
C73_2 S9_2 1_555 1_555
C74_2 C73_2 1_555 1_555
H49_2 C74_2 1_555 1_555
C75_2 C74_2 1_555 1_555
C78_2 C73_2 1_555 1_555
H53_2 C78_2 1_555 1_555
C5_2 C6_2 1_555 1_555
C7_2 C12_2 1_555 1_555
C11_2 C12_2 1_555 1_555
Ag3 S7_2 1_555 1_555
S7_2 C55_2 1_555 1_555
S8_2 Ag3 1_555 1_555
S15_2 Ag3 1_555 1_555
S18_2 Ag3 1_555 1_555
C55_2 C56_2 1_555 1_555
C56_2 H37_2 1_555 1_555
C57_2 C56_2 1_555 1_555
H38_2 C57_2 1_555 1_555
C58_2 C57_2 1_555 1_555
H39_2 C58_2 1_555 1_555
C59_2 C58_2 1_555 1_555
H40_2 C59_2 1_555 1_555
C60_2 C55_2 1_555 1_555
H41_2 C60_2 1_555 1_555
C61_2 S7_2 1_555 1_555
C62_2 C61_2 1_555 1_555
H42_2 C62_2 1_555 1_555
H43_2 C65_2 1_555 1_555
C66_2 S8_2 1_555 1_555
C67_2 S8_2 1_555 1_555
C68_2 C67_2 1_555 1_555
H44_2 C68_2 1_555 1_555
C69_2 C68_2 1_555 1_555
H45_2 C69_2 1_555 1_555
H63_2 C96_2 1_555 1_555
C97_2 C96_2 1_555 1_555
H64_2 C97_2 1_555 1_555
C59_2 C60_2 1_555 1_555
C61_2 C66_2 1_555 1_555
C65_2 C66_2 1_555 1_555
H46_2 C70_2 1_555 1_555
C71_2 C70_2 1_555 1_555
H47_2 C71_2 1_555 1_555
H48_2 C72_2 1_555 1_555
H51_2 C76_2 1_555 1_555
C77_2 C76_2 1_555 1_555
H52_2 C77_2 1_555 1_555
C71_2 C72_2 1_555 1_555
Ag5_2 S1_3 1_555 1_555
S1_3 C1_3 1_555 1_555
S2_3 Ag5_2 1_555 1_555
S3_2 C19_3 1_555 1_555
S4_2 C32_3 1_555 1_555
S15 C39_3 1_555 1_555
S18 C47_3 1_555 1_555
C1_3 C2_3 1_555 1_555
C2_3 H1_3 1_555 1_555
C3_3 C2_3 1_555 1_555
H2_3 C3_3 1_555 1_555
C4_3 C3_3 1_555 1_555
H3_3 C4_3 1_555 1_555
C5_3 C4_3 1_555 1_555
H4_3 C5_3 1_555 1_555
C6_3 C1_3 1_555 1_555
H5_3 C6_3 1_555 1_555
C7_3 S1_3 1_555 1_555
C8_3 C7_3 1_555 1_555
H6_3 C8_3 1_555 1_555
C9_3 C8_3 1_555 1_555
C10_3 C9_3 1_555 1_555
C11_3 C10_3 1_555 1_555
H7_3 C11_3 1_555 1_555
C12_3 S2_3 1_555 1_555
C13_3 S2_3 1_555 1_555
C14_3 C13_3 1_555 1_555
H8_3 C14_3 1_555 1_555
C15_3 C14_3 1_555 1_555
H9_3 C15_3 1_555 1_555
C16_3 C15_3 1_555 1_555
H10_3 C16_3 1_555 1_555
C17_3 C16_3 1_555 1_555
H11_3 C17_3 1_555 1_555
C18_3 C13_3 1_555 1_555
H12_3 C18_3 1_555 1_555
C19_3 C20_3 1_555 1_555
C20_3 H13_3 1_555 1_555
C21_3 C20_3 1_555 1_555
H14_3 C21_3 1_555 1_555
C22_3 C21_3 1_555 1_555
H15_3 C22_3 1_555 1_555
C23_3 C22_3 1_555 1_555
H16_3 C23_3 1_555 1_555
C24_3 C19_3 1_555 1_555
H17_3 C24_3 1_555 1_555
C25_3 S3_2 1_555 1_555
C26_3 C25_3 1_555 1_555
H18_3 C26_3 1_555 1_555
C27_3 C10_3 1_555 1_555
C28_3 C27_3 1_555 1_555
C29_3 C28_3 1_555 1_555
C30_3 C9_3 1_555 1_555
C31_3 C28_3 1_555 1_555
H19_3 C31_3 1_555 1_555
C32_3 C25_3 1_555 1_555
C33_3 S4_2 1_555 1_555
C34_3 C33_3 1_555 1_555
H20_3 C34_3 1_555 1_555
C35_3 C34_3 1_555 1_555
C36_3 C35_3 1_555 1_555
C37_3 C36_3 1_555 1_555
H23_3 C37_3 1_555 1_555
C38_3 C33_3 1_555 1_555
H24_3 C38_3 1_555 1_555
C39_3 C40_3 1_555 1_555
C40_3 H25_3 1_555 1_555
C41_3 C40_3 1_555 1_555
H26_3 C41_3 1_555 1_555
C42_3 C41_3 1_555 1_555
H27_3 C42_3 1_555 1_555
C43_3 C42_3 1_555 1_555
H28_3 C43_3 1_555 1_555
C44_3 C39_3 1_555 1_555
H29_3 C44_3 1_555 1_555
C45_3 S15 1_555 1_555
C46_3 C30_3 1_555 1_555
H30_3 C46_3 1_555 1_555
C47_3 C45_3 1_555 1_555
C48_3 C29_3 1_555 1_555
H31_3 C48_3 1_555 1_555
C49_3 S18 1_555 1_555
C50_3 C49_3 1_555 1_555
H32_3 C50_3 1_555 1_555
C51_3 C50_3 1_555 1_555
H33_3 C51_3 1_555 1_555
C52_3 C51_3 1_555 1_555
H34_3 C52_3 1_555 1_555
C53_3 C52_3 1_555 1_555
H35_3 C53_3 1_555 1_555
C54_3 C49_3 1_555 1_555
H36_3 C54_3 1_555 1_555
Ag4 S7_3 1_555 1_555
Ag4_2 S3_2 1_555 1_555
S7_3 C55_3 1_555 1_555
S8_3 Ag4 1_555 1_555
S9_3 Ag5_2 1_555 1_555
S10_2 Ag4 1_555 1_555
S11_3 Ag5_2 1_555 1_555
S12_2 Ag4 1_555 1_555
S14_2 C93_3 1_555 1_555
C55_3 C56_3 1_555 1_555
C56_3 H37_3 1_555 1_555
C57_3 C56_3 1_555 1_555
H38_3 C57_3 1_555 1_555
C58_3 C57_3 1_555 1_555
H39_3 C58_3 1_555 1_555
C59_3 C58_3 1_555 1_555
H40_3 C59_3 1_555 1_555
C60_3 C55_3 1_555 1_555
H41_3 C60_3 1_555 1_555
C61_3 S7_3 1_555 1_555
C62_3 C61_3 1_555 1_555
H42_3 C62_3 1_555 1_555
C63_3 C62_3 1_555 1_555
C64_3 C63_3 1_555 1_555
C65_3 C64_3 1_555 1_555
H43_3 C65_3 1_555 1_555
C66_3 S8_3 1_555 1_555
C67_3 S8_3 1_555 1_555
C68_3 C67_3 1_555 1_555
H44_3 C68_3 1_555 1_555
C69_3 C68_3 1_555 1_555
H45_3 C69_3 1_555 1_555
C70_3 C69_3 1_555 1_555
H46_3 C70_3 1_555 1_555
C71_3 C70_3 1_555 1_555
H47_3 C71_3 1_555 1_555
C72_3 C67_3 1_555 1_555
H48_3 C72_3 1_555 1_555
C73_3 S9_3 1_555 1_555
C74_3 C73_3 1_555 1_555
H49_3 C74_3 1_555 1_555
C75_3 C74_3 1_555 1_555
H50_3 C75_3 1_555 1_555
C76_3 C75_3 1_555 1_555
H51_3 C76_3 1_555 1_555
C77_3 C76_3 1_555 1_555
H52_3 C77_3 1_555 1_555
C78_3 C73_3 1_555 1_555
H53_3 C78_3 1_555 1_555
C79_3 S9_3 1_555 1_555
C80_3 C79_3 1_555 1_555
H54_3 C80_3 1_555 1_555
C81_3 C64_3 1_555 1_555
C82_3 C81_3 1_555 1_555
C83_3 C82_3 1_555 1_555
C84_3 C63_3 1_555 1_555
C85_3 C82_3 1_555 1_555
H55_3 C85_3 1_555 1_555
C86_3 S11_3 1_555 1_555
C87_3 S11_3 1_555 1_555
C88_3 C87_3 1_555 1_555
H56_3 C88_3 1_555 1_555
C89_3 C88_3 1_555 1_555
C90_3 C89_3 1_555 1_555
C91_3 C90_3 1_555 1_555
H59_3 C91_3 1_555 1_555
C92_3 C87_3 1_555 1_555
H60_3 C92_3 1_555 1_555
C93_3 C94_3 1_555 1_555
C94_3 H61_3 1_555 1_555
C95_3 C94_3 1_555 1_555
H62_3 C95_3 1_555 1_555
C96_3 C95_3 1_555 1_555
H63_3 C96_3 1_555 1_555
C97_3 C96_3 1_555 1_555
H64_3 C97_3 1_555 1_555
C98_3 C93_3 1_555 1_555
H65_3 C98_3 1_555 1_555
C99_3 S14_2 1_555 1_555
C100_3 C84_3 1_555 1_555
H66_3 C100_3 1_555 1_555
C101_3 S17_2 1_555 1_555
C102_3 C83_3 1_555 1_555
H67_3 C102_3 1_555 1_555
C103_3 S17_2 1_555 1_555
C104_3 C103_3 1_555 1_555
H68_3 C104_3 1_555 1_555
C105_3 C104_3 1_555 1_555
H69_3 C105_3 1_555 1_555
C106_3 C105_3 1_555 1_555
H70_3 C106_3 1_555 1_555
C107_3 C106_3 1_555 1_555
H71_3 C107_3 1_555 1_555
C108_3 C103_3 1_555 1_555
H72_3 C108_3 1_555 1_555
S4_2 Ag4_2 1_555 1_555
C5_3 C6_3 1_555 1_555
C7_3 C12_3 1_555 1_555
C11_3 C12_3 1_555 1_555
C17_3 C18_3 1_555 1_555
C23_3 C24_3 1_555 1_555
C26_3 C27_3 1_555 1_555
C29_3 C30_3 1_555 1_555
C31_3 C32_3 1_555 1_555
C37_3 C38_3 1_555 1_555
C43_3 C44_3 1_555 1_555
C45_3 C46_3 1_555 1_555
C47_3 C48_3 1_555 1_555
C53_3 C54_3 1_555 1_555
C59_3 C60_3 1_555 1_555
C61_3 C66_3 1_555 1_555
C65_3 C66_3 1_555 1_555
C71_3 C72_3 1_555 1_555
C77_3 C78_3 1_555 1_555
C79_3 C86_3 1_555 1_555
C80_3 C81_3 1_555 1_555
C83_3 C84_3 1_555 1_555
C85_3 C86_3 1_555 1_555
C91_3 C92_3 1_555 1_555
C97_3 C98_3 1_555 1_555
C99_3 C100_3 1_555 1_555
C99_3 C101_3 1_555 1_555
C101_3 C102_3 1_555 1_555
C107_3 C108_3 1_555 1_555
Ag5 S1_4 1_555 1_555
S1_4 C1_4 1_555 1_555
S2_4 Ag5 1_555 1_555
S10_2 C19_4 1_555 1_555
S12_2 C32_4 1_555 1_555
S15_2 C39_4 1_555 1_555
S18_2 C47_4 1_555 1_555
C1_4 C2_4 1_555 1_555
C2_4 H1_4 1_555 1_555
C3_4 C2_4 1_555 1_555
H2_4 C3_4 1_555 1_555
C4_4 C3_4 1_555 1_555
H3_4 C4_4 1_555 1_555
C5_4 C4_4 1_555 1_555
H4_4 C5_4 1_555 1_555
C6_4 C1_4 1_555 1_555
H5_4 C6_4 1_555 1_555
C7_4 S1_4 1_555 1_555
C8_4 C7_4 1_555 1_555
H6_4 C8_4 1_555 1_555
C9_4 C8_4 1_555 1_555
C10_4 C9_4 1_555 1_555
C11_4 C10_4 1_555 1_555
H7_4 C11_4 1_555 1_555
C12_4 S2_4 1_555 1_555
C13_4 S2_4 1_555 1_555
C14_4 C13_4 1_555 1_555
H8_4 C14_4 1_555 1_555
C15_4 C14_4 1_555 1_555
H9_4 C15_4 1_555 1_555
C16_4 C15_4 1_555 1_555
H10_4 C16_4 1_555 1_555
C17_4 C16_4 1_555 1_555
H11_4 C17_4 1_555 1_555
C18_4 C13_4 1_555 1_555
H12_4 C18_4 1_555 1_555
C19_4 C20_4 1_555 1_555
C20_4 H13_4 1_555 1_555
C21_4 C20_4 1_555 1_555
H14_4 C21_4 1_555 1_555
C22_4 C21_4 1_555 1_555
H15_4 C22_4 1_555 1_555
C23_4 C22_4 1_555 1_555
H16_4 C23_4 1_555 1_555
C24_4 C19_4 1_555 1_555
H17_4 C24_4 1_555 1_555
C25_4 S10_2 1_555 1_555
C26_4 C25_4 1_555 1_555
H18_4 C26_4 1_555 1_555
C27_4 C10_4 1_555 1_555
C28_4 C27_4 1_555 1_555
C29_4 C28_4 1_555 1_555
C30_4 C9_4 1_555 1_555
C31_4 C28_4 1_555 1_555
H19_4 C31_4 1_555 1_555
C32_4 C25_4 1_555 1_555
C33_4 S12_2 1_555 1_555
C34_4 C33_4 1_555 1_555
H20_4 C34_4 1_555 1_555
C35_4 C34_4 1_555 1_555
C36_4 C35_4 1_555 1_555
C37_4 C36_4 1_555 1_555
H23_4 C37_4 1_555 1_555
C38_4 C33_4 1_555 1_555
H24_4 C38_4 1_555 1_555
C39_4 C40_4 1_555 1_555
C40_4 H25_4 1_555 1_555
C41_4 C40_4 1_555 1_555
H26_4 C41_4 1_555 1_555
C42_4 C41_4 1_555 1_555
H27_4 C42_4 1_555 1_555
C43_4 C42_4 1_555 1_555
H28_4 C43_4 1_555 1_555
C44_4 C39_4 1_555 1_555
H29_4 C44_4 1_555 1_555
C45_4 S15_2 1_555 1_555
C46_4 C30_4 1_555 1_555
H30_4 C46_4 1_555 1_555
C47_4 C45_4 1_555 1_555
C48_4 C29_4 1_555 1_555
H31_4 C48_4 1_555 1_555
C49_4 S18_2 1_555 1_555
C50_4 C49_4 1_555 1_555
H32_4 C50_4 1_555 1_555
C51_4 C50_4 1_555 1_555
H33_4 C51_4 1_555 1_555
C52_4 C51_4 1_555 1_555
H34_4 C52_4 1_555 1_555
C53_4 C52_4 1_555 1_555
H35_4 C53_4 1_555 1_555
C54_4 C49_4 1_555 1_555
H36_4 C54_4 1_555 1_555
Ag4_2 S7_4 1_555 1_555
S7_4 C55_4 1_555 1_555
S8_4 Ag4_2 1_555 1_555
S9_4 Ag5 1_555 1_555
S11_4 Ag5 1_555 1_555
S14 C93_4 1_555 1_555
C55_4 C56_4 1_555 1_555
C56_4 H37_4 1_555 1_555
C57_4 C56_4 1_555 1_555
H38_4 C57_4 1_555 1_555
C58_4 C57_4 1_555 1_555
H39_4 C58_4 1_555 1_555
C59_4 C58_4 1_555 1_555
H40_4 C59_4 1_555 1_555
C60_4 C55_4 1_555 1_555
H41_4 C60_4 1_555 1_555
C61_4 S7_4 1_555 1_555
C62_4 C61_4 1_555 1_555
H42_4 C62_4 1_555 1_555
C63_4 C62_4 1_555 1_555
C64_4 C63_4 1_555 1_555
C65_4 C64_4 1_555 1_555
H43_4 C65_4 1_555 1_555
C66_4 S8_4 1_555 1_555
C67_4 S8_4 1_555 1_555
C68_4 C67_4 1_555 1_555
H44_4 C68_4 1_555 1_555
C69_4 C68_4 1_555 1_555
H45_4 C69_4 1_555 1_555
C70_4 C69_4 1_555 1_555
H46_4 C70_4 1_555 1_555
C71_4 C70_4 1_555 1_555
H47_4 C71_4 1_555 1_555
C72_4 C67_4 1_555 1_555
H48_4 C72_4 1_555 1_555
C73_4 S9_4 1_555 1_555
C74_4 C73_4 1_555 1_555
H49_4 C74_4 1_555 1_555
C75_4 C74_4 1_555 1_555
H50_4 C75_4 1_555 1_555
C76_4 C75_4 1_555 1_555
H51_4 C76_4 1_555 1_555
C77_4 C76_4 1_555 1_555
H52_4 C77_4 1_555 1_555
C78_4 C73_4 1_555 1_555
H53_4 C78_4 1_555 1_555
C79_4 S9_4 1_555 1_555
C80_4 C79_4 1_555 1_555
H54_4 C80_4 1_555 1_555
C81_4 C64_4 1_555 1_555
C82_4 C81_4 1_555 1_555
C83_4 C82_4 1_555 1_555
C84_4 C63_4 1_555 1_555
C85_4 C82_4 1_555 1_555
H55_4 C85_4 1_555 1_555
C86_4 S11_4 1_555 1_555
C87_4 S11_4 1_555 1_555
C88_4 C87_4 1_555 1_555
H56_4 C88_4 1_555 1_555
C89_4 C88_4 1_555 1_555
C90_4 C89_4 1_555 1_555
C91_4 C90_4 1_555 1_555
H59_4 C91_4 1_555 1_555
C92_4 C87_4 1_555 1_555
H60_4 C92_4 1_555 1_555
C93_4 C94_4 1_555 1_555
C94_4 H61_4 1_555 1_555
C95_4 C94_4 1_555 1_555
H62_4 C95_4 1_555 1_555
C96_4 C95_4 1_555 1_555
H63_4 C96_4 1_555 1_555
C97_4 C96_4 1_555 1_555
H64_4 C97_4 1_555 1_555
C98_4 C93_4 1_555 1_555
H65_4 C98_4 1_555 1_555
C99_4 S14 1_555 1_555
C100_4 C84_4 1_555 1_555
H66_4 C100_4 1_555 1_555
C101_4 S17 1_555 1_555
C102_4 C83_4 1_555 1_555
H67_4 C102_4 1_555 1_555
C103_4 S17 1_555 1_555
C104_4 C103_4 1_555 1_555
H68_4 C104_4 1_555 1_555
C105_4 C104_4 1_555 1_555
H69_4 C105_4 1_555 1_555
C106_4 C105_4 1_555 1_555
H70_4 C106_4 1_555 1_555
C107_4 C106_4 1_555 1_555
H71_4 C107_4 1_555 1_555
C108_4 C103_4 1_555 1_555
H72_4 C108_4 1_555 1_555
C5_4 C6_4 1_555 1_555
C7_4 C12_4 1_555 1_555
C11_4 C12_4 1_555 1_555
C17_4 C18_4 1_555 1_555
C23_4 C24_4 1_555 1_555
C26_4 C27_4 1_555 1_555
C29_4 C30_4 1_555 1_555
C31_4 C32_4 1_555 1_555
C37_4 C38_4 1_555 1_555
C43_4 C44_4 1_555 1_555
C45_4 C46_4 1_555 1_555
C47_4 C48_4 1_555 1_555
C53_4 C54_4 1_555 1_555
C59_4 C60_4 1_555 1_555
C61_4 C66_4 1_555 1_555
C65_4 C66_4 1_555 1_555
C71_4 C72_4 1_555 1_555
C77_4 C78_4 1_555 1_555
C79_4 C86_4 1_555 1_555
C80_4 C81_4 1_555 1_555
C83_4 C84_4 1_555 1_555
C85_4 C86_4 1_555 1_555
C91_4 C92_4 1_555 1_555
C97_4 C98_4 1_555 1_555
C99_4 C100_4 1_555 1_555
C99_4 C101_4 1_555 1_555
C101_4 C102_4 1_555 1_555
C107_4 C108_4 1_555 1_555

#END
