
###############################################################################
#
# This file contains modified crystal structure data generated from the
# MOF subset of the Cambridge Structural Database (CSD) v543 
# hosted by the Cambridge Crystallographic Data Centre (CCDC).
#
# This work is licensed under the Creative Commons
# Attribution-NonCommercial-ShareAlike 4.0 International License.
# To view a copy of this license, visit
# http://creativecommons.org/licenses/by-nc-sa/4.0/
# or send a letter to
# Creative Commons, PO Box 1866, Mountain View, CA 94042, USA.
#
# CIF created using the CSD Python API on 29 September 2022
# The structure has been converted into the P1 space group
# The structure has a 3D framework
# The original CSD entry PEDRID is in the monoclinic crystal system
# The framework has been calculated to contain at least 10.0% void space
# The void calculation uses a probe of radius 1.32A, grid spacing 0.4
#
###############################################################################

data_PEDRID
_chemical_formula_moiety         '(C48 H128 Cu14 Mo24 N24 O144 Te6)n'
_symmetry_cell_setting           triclinic
_symmetry_space_group_name_H-M   'P 1'
_symmetry_Int_Tables_number      1
_space_group_name_Hall           'P 1'
loop_
_symmetry_equiv_pos_site_id
_symmetry_equiv_pos_as_xyz
1 x,y,z
_cell_length_a                   24.0117(11)
_cell_length_b                   10.4193(4)
_cell_length_c                   18.3664(7)
_cell_angle_alpha                90
_cell_angle_beta                 96.4040(10)
_cell_angle_gamma                90
_cell_volume                     4566.33
loop_
_atom_site_label
_atom_site_type_symbol
_atom_site_fract_x
_atom_site_fract_y
_atom_site_fract_z
H3 H 0.703734 0.054882 0.372012
H4 H 0.679385 0.014334 0.306582
Te1 Te 0.750000 0.250000 0.500000
Mo1 Mo 0.77934(2) 0.47738(2) 0.38821(2)
Mo2 Mo 0.64747(2) 0.39533(3) 0.39849(2)
Mo3 Mo 0.61882(2) 0.16316(3) 0.50955(2)
Cu1 Cu 0.73243(2) 0.81400(4) 0.36261(2)
Cu2 Cu 0.500000 0.70732(6) 0.250000
O1 O 0.68724(8) 0.19868(19) 0.43172(10)
O2 O 0.77492(8) 0.07656(18) 0.51983(10)
O3 O 0.66037(8) 0.0062(2) 0.53294(11)
O4 O 0.71061(8) 0.4062(2) 0.34139(10)
O5 O 0.61567(8) 0.3426(2) 0.48554(11)
O6 O 0.79865(8) 0.2798(2) 0.42502(10)
O7 O 0.78841(9) 0.8801(2) 0.43811(11)
H1 H 0.774289 0.940854 0.460966
H2 H 0.796299 0.822524 0.470406
O8 O 0.75702(9) 0.6347(2) 0.39440(11)
O9 O 0.62926(9) 0.5537(2) 0.40292(12)
O10 O 0.70371(11) 0.9932(2) 0.34173(13)
O11 O 0.81619(9) 0.4701(2) 0.31469(11)
O12 O 0.79984(11) 0.8024(3) 0.29110(12)
H5 H 0.785829 0.789103 0.246995
H6 H 0.819569 0.735628 0.302304
N1 N 0.67641(10) 0.7351(2) 0.28489(12)
O13 O 0.58054(9) 0.1710(2) 0.58254(13)
O14 O 0.57490(9) 0.1011(2) 0.43861(13)
O15 O 0.60148(9) 0.3275(2) 0.33189(12)
O16 O 0.66775(12) 0.7924(3) 0.45384(15)
H7 H 0.658700 0.856506 0.478631
H8 H 0.638139 0.747212 0.447337
N2 N 0.58178(10) 0.6950(3) 0.24269(13)
O17 O 0.50181(10) 0.5658(3) 0.16519(13)
N3 N 0.55689(11) 0.5118(3) 0.07820(13)
H9 H 0.590339 0.513481 0.065668
C1 C 0.65278(12) 0.5976(3) 0.18196(16)
H10 H 0.663975 0.544669 0.145485
C2 C 0.69181(12) 0.6585(3) 0.23233(16)
H11 H 0.729784 0.645358 0.229259
O18 O 0.51117(13) 0.8520(3) 0.33408(18)
H12 H 0.481175 0.858601 0.354682
H13 H 0.514767 0.925148 0.314344
C3 C 0.62110(12) 0.7502(3) 0.28717(15)
H14 H 0.609803 0.804070 0.323129
C4 C 0.59707(12) 0.6189(3) 0.18843(15)
C5 C 0.54821(12) 0.5631(3) 0.14138(16)
C6 C 0.51306(14) 0.4522(4) 0.02833(17)
H15 H 0.484231 0.418631 0.056116
H16 H 0.528756 0.380884 0.003482
O19 O 0.81276(8) 0.30132(19) 0.56828(10)
O20 O 0.72508(8) 0.42344(18) 0.48017(10)
O21 O 0.70135(8) 0.2202(2) 0.57498(10)
O23 O 0.48883(13) 0.8520(3) 0.16592(18)
H23 H 0.518825 0.858601 0.145318
H24 H 0.485233 0.925148 0.185656
Mo4 Mo 0.72066(2) 0.02262(2) 0.61179(2)
Mo5 Mo 0.85253(2) 0.10467(3) 0.60151(2)
Mo6 Mo 0.88118(2) 0.33684(3) 0.49045(2)
O24 O 0.83963(8) 0.4938(2) 0.46706(11)
O25 O 0.78939(8) 0.0938(2) 0.65861(10)
O26 O 0.88433(8) 0.1574(2) 0.51446(11)
O31 O 0.68381(9) 0.0299(2) 0.68531(11)
O33 O 0.91946(9) 0.3290(2) 0.41746(13)
O34 O 0.92510(9) 0.3989(2) 0.56139(13)
O35 O 0.89852(9) 0.1725(2) 0.66811(12)
N8 N 0.41822(10) 0.6950(3) 0.25731(13)
O37 O 0.49819(10) 0.5658(3) 0.33481(13)
N4 N 0.32359(10) 0.2649(2) 0.71511(12)
N5 N 0.41822(10) 0.3050(3) 0.75731(13)
O22 O 0.49819(10) 0.4342(3) 0.83481(13)
N6 N 0.44311(11) 0.4882(3) 0.92180(13)
H17 H 0.409661 0.486519 0.934332
C7 C 0.34722(12) 0.4024(3) 0.81804(16)
H18 H 0.336025 0.455331 0.854515
C8 C 0.30819(12) 0.3415(3) 0.76767(16)
H19 H 0.270216 0.354642 0.770741
C9 C 0.37890(12) 0.2498(3) 0.71283(15)
H20 H 0.390197 0.195930 0.676871
C10 C 0.40293(12) 0.3811(3) 0.81157(15)
C11 C 0.45179(12) 0.4369(3) 0.85862(16)
C12 C 0.48694(14) 0.5478(4) 0.97167(17)
H21 H 0.515769 0.581369 0.943884
H22 H 0.471244 0.619116 0.996518
Cu4 Cu 0.26757(2) 0.18600(4) 0.63739(2)
Cu5 Cu 0.500000 0.29268(6) 0.750000
Te1_2 Te 0.250000 0.250000 0.000000
Mo1_2 Mo 0.22066(2) 0.47738(2) 0.11179(2)
Mo2_2 Mo 0.35253(2) 0.39533(3) 0.10151(2)
Cu1_2 Cu 0.26757(2) 0.81400(4) 0.13739(2)
O1_2 O 0.31276(8) 0.19868(19) 0.06828(10)
O4_2 O 0.28939(8) 0.4062(2) 0.15861(10)
O5_2 O 0.38433(8) 0.3426(2) 0.01446(11)
O6_2 O 0.20135(8) 0.2798(2) 0.07498(10)
O7_2 O 0.21159(9) 0.8801(2) 0.06189(11)
H1_2 H 0.225711 0.940854 0.039034
H2_2 H 0.203701 0.822524 0.029594
O8_2 O 0.24298(9) 0.6347(2) 0.10560(11)
O9_2 O 0.37074(9) 0.5537(2) 0.09708(12)
O10_2 O 0.29629(11) 0.9932(2) 0.15827(13)
O11_2 O 0.18381(9) 0.4701(2) 0.18531(11)
O12_2 O 0.20016(11) 0.8024(3) 0.20890(12)
H5_2 H 0.214171 0.789103 0.253005
H6_2 H 0.180431 0.735628 0.197696
N1_2 N 0.32359(10) 0.7351(2) 0.21511(12)
O14_2 O 0.42510(9) 0.1011(2) 0.06139(13)
O15_2 O 0.39852(9) 0.3275(2) 0.16811(12)
O16_2 O 0.33225(12) 0.7924(3) 0.04616(15)
H7_2 H 0.341300 0.856506 0.021369
H8_2 H 0.361861 0.747212 0.052663
N3_2 N 0.44311(11) 0.5118(3) 0.42180(13)
H9_2 H 0.409661 0.513481 0.434332
C1_2 C 0.34722(12) 0.5976(3) 0.31804(16)
H10_2 H 0.336025 0.544669 0.354515
C2_2 C 0.30819(12) 0.6585(3) 0.26767(16)
H11_2 H 0.270216 0.645358 0.270741
C3_2 C 0.37890(12) 0.7502(3) 0.21283(15)
H14_2 H 0.390197 0.804070 0.176871
C4_2 C 0.40293(12) 0.6189(3) 0.31157(15)
C5_2 C 0.45179(12) 0.5631(3) 0.35862(16)
C6_2 C 0.48694(14) 0.4522(4) 0.47167(17)
H15_2 H 0.515769 0.418631 0.443884
H16_2 H 0.471244 0.380884 0.496518
O20_2 O 0.27492(8) 0.42344(18) 0.01983(10)
N4_2 N 0.67641(10) 0.2649(2) 0.78489(12)
N5_2 N 0.58178(10) 0.3050(3) 0.74269(13)
O22_2 O 0.50181(10) 0.4342(3) 0.66519(13)
N6_2 N 0.55689(11) 0.4882(3) 0.57820(13)
H17_2 H 0.590339 0.486519 0.565668
C7_2 C 0.65278(12) 0.4024(3) 0.68196(16)
H18_2 H 0.663975 0.455331 0.645485
C8_2 C 0.69181(12) 0.3415(3) 0.73233(16)
H19_2 H 0.729784 0.354642 0.729259
C9_2 C 0.62110(12) 0.2498(3) 0.78717(15)
H20_2 H 0.609803 0.195930 0.823129
C10_2 C 0.59707(12) 0.3811(3) 0.68843(15)
C11_2 C 0.54821(12) 0.4369(3) 0.64138(16)
C12_2 C 0.51306(14) 0.5478(4) 0.52833(17)
H21_2 H 0.484231 0.581369 0.556116
H22_2 H 0.528756 0.619116 0.503482
Mo6_2 Mo 0.11882(2) 0.33684(3) 0.00955(2)
O24_2 O 0.16037(8) 0.4938(2) 0.03294(11)
O33_2 O 0.08054(9) 0.3290(2) 0.08254(13)
Cu4_2 Cu 0.73243(2) 0.18600(4) 0.86261(2)
Te1_3 Te 0.250000 0.750000 0.500000
Mo1_3 Mo 0.27934(2) 0.97738(2) 0.38821(2)
Mo2_3 Mo 0.14747(2) 0.89533(3) 0.39849(2)
Mo3_2 Mo 0.11882(2) 0.66316(3) 0.50955(2)
O1_3 O 0.18724(8) 0.69868(19) 0.43172(10)
O2_2 O 0.27492(8) 0.57656(18) 0.51983(10)
O3_2 O 0.16037(8) 0.5062(2) 0.53294(11)
O4_3 O 0.21061(8) 0.9062(2) 0.34139(10)
O5_3 O 0.11567(8) 0.8426(2) 0.48554(11)
O6_3 O 0.29865(8) 0.7798(2) 0.42502(10)
O11_3 O 0.31619(9) 0.9701(2) 0.31469(11)
O13_2 O 0.08054(9) 0.6710(2) 0.58254(13)
O14_3 O 0.07490(9) 0.6011(2) 0.43861(13)
O15_3 O 0.10148(9) 0.8275(2) 0.33189(12)
C6_3 C 0.01306(14) 0.9522(4) 0.02833(17)
H16_3 H 0.028756 0.880884 0.003482
O19_2 O 0.31276(8) 0.80132(19) 0.56828(10)
O20_3 O 0.22508(8) 0.92344(18) 0.48017(10)
O21_2 O 0.20135(8) 0.7202(2) 0.57498(10)
Mo4_2 Mo 0.22066(2) 0.52262(2) 0.61179(2)
Mo5_2 Mo 0.35253(2) 0.60467(3) 0.60151(2)
Mo6_3 Mo 0.38118(2) 0.83684(3) 0.49045(2)
O24_3 O 0.33963(8) 0.9938(2) 0.46706(11)
O25_2 O 0.28939(8) 0.5938(2) 0.65861(10)
O26_2 O 0.38433(8) 0.6574(2) 0.51446(11)
O27 O 0.21159(9) 0.1199(2) 0.56189(11)
H25 H 0.225711 0.059146 0.539034
H26 H 0.203701 0.177476 0.529594
O28 O 0.24298(9) 0.3653(2) 0.60560(11)
O29 O 0.37074(9) 0.4463(2) 0.59708(12)
O30 O 0.29629(11) 0.0068(2) 0.65827(13)
O31_2 O 0.18381(9) 0.5299(2) 0.68531(11)
O32 O 0.20016(11) 0.1976(3) 0.70890(12)
H29 H 0.214171 0.210897 0.753005
H30 H 0.180431 0.264372 0.697696
O33_3 O 0.41946(9) 0.8290(2) 0.41746(13)
O34_2 O 0.42510(9) 0.8989(2) 0.56139(13)
O35_2 O 0.39852(9) 0.6725(2) 0.66811(12)
O36 O 0.33225(12) 0.2076(3) 0.54616(15)
H31 H 0.341300 0.143494 0.521369
H32 H 0.361861 0.252788 0.552663
C12_3 C 0.98694(14) 0.0478(4) 0.97167(17)
H22_3 H 0.971244 0.119116 0.996518
Te1_4 Te 0.750000 0.750000 1.000000
Mo3_3 Mo 0.88118(2) 0.66316(3) 0.99045(2)
O2_3 O 0.72508(8) 0.57656(18) 0.98017(10)
O3_3 O 0.83963(8) 0.5062(2) 0.96706(11)
O13_3 O 0.91946(9) 0.6710(2) 0.91746(13)
O19_3 O 0.68724(8) 0.80132(19) 0.93172(10)
O21_3 O 0.79865(8) 0.7202(2) 0.92502(10)
Mo4_3 Mo 0.77934(2) 0.52262(2) 0.88821(2)
Mo5_3 Mo 0.64747(2) 0.60467(3) 0.89849(2)
O25_3 O 0.71061(8) 0.5938(2) 0.84139(10)
O26_3 O 0.61567(8) 0.6574(2) 0.98554(11)
O27_2 O 0.78841(9) 0.1199(2) 0.93811(11)
H25_2 H 0.774289 0.059146 0.960966
H26_2 H 0.796299 0.177476 0.970406
O28_2 O 0.75702(9) 0.3653(2) 0.89440(11)
O29_2 O 0.62926(9) 0.4463(2) 0.90292(12)
O30_2 O 0.70371(11) 0.0068(2) 0.84173(13)
O31_3 O 0.81619(9) 0.5299(2) 0.81469(11)
O32_2 O 0.79984(11) 0.1976(3) 0.79110(12)
H29_2 H 0.785829 0.210897 0.746995
H30_2 H 0.819569 0.264372 0.802304
O34_3 O 0.57490(9) 0.8989(2) 0.93861(13)
O35_3 O 0.60148(9) 0.6725(2) 0.83189(12)
O36_2 O 0.66775(12) 0.2076(3) 0.95384(15)
H31_2 H 0.658700 0.143494 0.978631
H32_2 H 0.638139 0.252788 0.947337
O18_2 O 0.48883(13) 0.1480(3) 0.66592(18)
H12_2 H 0.518825 0.141399 0.645318
H13_2 H 0.485233 0.074852 0.685656
O23_2 O 0.51117(13) 0.1480(3) 0.83408(18)
H23_2 H 0.481175 0.141399 0.854682
H24_2 H 0.514767 0.074852 0.814344
Cu3 Cu 0.76757(2) 0.68600(4) 0.63739(2)
O27_3 O 0.71159(9) 0.6199(2) 0.56189(11)
H25_3 H 0.725711 0.559146 0.539034
H26_3 H 0.703701 0.677476 0.529594
O28_3 O 0.74298(9) 0.8653(2) 0.60560(11)
O29_3 O 0.87074(9) 0.9463(2) 0.59708(12)
O30_3 O 0.79629(11) 0.5068(2) 0.65827(13)
H27 H 0.796266 0.445118 0.627988
H28 H 0.820615 0.485666 0.693418
O32_3 O 0.70016(11) 0.6976(3) 0.70890(12)
H29_3 H 0.714171 0.710897 0.753005
H30_3 H 0.680431 0.764372 0.697696
O36_3 O 0.83225(12) 0.7076(3) 0.54616(15)
H31_3 H 0.841300 0.643494 0.521369
H32_3 H 0.861861 0.752788 0.552663
N7 N 0.82359(10) 0.7649(2) 0.71511(12)
N5_3 N 0.91822(10) 0.8050(3) 0.75731(13)
O22_3 O 0.99819(10) 0.9342(3) 0.83481(13)
N6_3 N 0.94311(11) 0.9882(3) 0.92180(13)
H17_3 H 0.909661 0.986519 0.934332
C7_3 C 0.84722(12) 0.9024(3) 0.81804(16)
H18_3 H 0.836025 0.955331 0.854515
C8_3 C 0.80819(12) 0.8415(3) 0.76767(16)
H19_3 H 0.770216 0.854642 0.770741
C9_3 C 0.87890(12) 0.7498(3) 0.71283(15)
H20_3 H 0.890197 0.695930 0.676871
C10_3 C 0.90293(12) 0.8811(3) 0.81157(15)
C11_3 C 0.95179(12) 0.9369(3) 0.85862(16)
Cu5_2 Cu 1.000000 0.79268(6) 0.750000
Te1_5 Te 0.750000 0.750000 0.000000
Mo1_4 Mo 0.72066(2) 0.97738(2) 0.11179(2)
Mo2_4 Mo 0.85253(2) 0.89533(3) 0.10151(2)
O1_4 O 0.81276(8) 0.69868(19) 0.06828(10)
O4_4 O 0.78939(8) 0.9062(2) 0.15861(10)
O5_4 O 0.88433(8) 0.8426(2) 0.01446(11)
O6_4 O 0.70135(8) 0.7798(2) 0.07498(10)
O11_4 O 0.68381(9) 0.9701(2) 0.18531(11)
O14_4 O 0.92510(9) 0.6011(2) 0.06139(13)
O15_4 O 0.89852(9) 0.8275(2) 0.16811(12)
C6_4 C 0.98694(14) 0.9522(4) 0.47167(17)
H16_4 H 0.971244 0.880884 0.496518
O20_4 O 0.77492(8) 0.92344(18) 0.01983(10)
Mo6_4 Mo 0.61882(2) 0.83684(3) 0.00955(2)
O24_4 O 0.66037(8) 0.9938(2) 0.03294(11)
O33_4 O 0.58054(9) 0.8290(2) 0.08254(13)
O18_3 O 0.98883(13) 0.6480(3) 0.66592(18)
H13_3 H 0.985233 0.574852 0.685656
H23_3 H 0.981175 0.641399 0.854682
H3_2 H 0.296266 0.054882 0.127988
H4_2 H 0.320615 0.014334 0.193418
Te1_6 Te 0.250000 0.250000 1.000000
Mo3_4 Mo 0.38118(2) 0.16316(3) 0.99045(2)
O2_4 O 0.22508(8) 0.07656(18) 0.98017(10)
O3_4 O 0.33963(8) 0.0062(2) 0.96706(11)
O13_4 O 0.41946(9) 0.1710(2) 0.91746(13)
O19_4 O 0.18724(8) 0.30132(19) 0.93172(10)
O21_4 O 0.29865(8) 0.2202(2) 0.92502(10)
Mo4_4 Mo 0.27934(2) 0.02262(2) 0.88821(2)
Mo5_4 Mo 0.14747(2) 0.10467(3) 0.89849(2)
O25_4 O 0.21061(8) 0.0938(2) 0.84139(10)
O26_4 O 0.11567(8) 0.1574(2) 0.98554(11)
O31_4 O 0.31619(9) 0.0299(2) 0.81469(11)
O34_4 O 0.07490(9) 0.3989(2) 0.93861(13)
O35_4 O 0.10148(9) 0.1725(2) 0.83189(12)
Cu1_3 Cu 0.23243(2) 0.31400(4) 0.36261(2)
Cu2_2 Cu 0.000000 0.20732(6) 0.250000
O7_3 O 0.28841(9) 0.3801(2) 0.43811(11)
H1_3 H 0.274289 0.440854 0.460966
H2_3 H 0.296299 0.322524 0.470406
O8_3 O 0.25702(9) 0.1347(2) 0.39440(11)
O9_3 O 0.12926(9) 0.0537(2) 0.40292(12)
O10_3 O 0.20371(11) 0.4932(2) 0.34173(13)
H3_3 H 0.203734 0.554882 0.372012
H4_3 H 0.179385 0.514334 0.306582
O12_3 O 0.29984(11) 0.3024(3) 0.29110(12)
H5_3 H 0.285829 0.289103 0.246995
H6_3 H 0.319569 0.235628 0.302304
N1_3 N 0.17641(10) 0.2351(2) 0.28489(12)
O16_3 O 0.16775(12) 0.2924(3) 0.45384(15)
H7_3 H 0.158700 0.356506 0.478631
H8_3 H 0.138139 0.247212 0.447337
N2_2 N 0.08178(10) 0.1950(3) 0.24269(13)
O17_2 O 0.00181(10) 0.0658(3) 0.16519(13)
N3_3 N 0.05689(11) 0.0118(3) 0.07820(13)
H9_3 H 0.090339 0.013481 0.065668
C1_3 C 0.15278(12) 0.0976(3) 0.18196(16)
H10_3 H 0.163975 0.044669 0.145485
C2_3 C 0.19181(12) 0.1585(3) 0.23233(16)
H11_3 H 0.229784 0.145358 0.229259
O18_4 O 0.01117(13) 0.3520(3) 0.33408(18)
H13_4 H 0.014767 0.425148 0.314344
C3_3 C 0.12110(12) 0.2502(3) 0.28717(15)
H14_3 H 0.109803 0.304070 0.323129
C4_3 C 0.09707(12) 0.1189(3) 0.18843(15)
C5_3 C 0.04821(12) 0.0631(3) 0.14138(16)
H23_4 H 0.018825 0.358601 0.145318
C12_4 C 0.01306(14) 0.0478(4) 0.52833(17)
H22_4 H 0.028756 0.119116 0.503482
Cu3_2 Cu 0.23243(2) 0.68600(4) 0.86261(2)
O27_4 O 0.28841(9) 0.6199(2) 0.93811(11)
H25_4 H 0.274289 0.559146 0.960966
H26_4 H 0.296299 0.677476 0.970406
O28_4 O 0.25702(9) 0.8653(2) 0.89440(11)
O29_4 O 0.12926(9) 0.9463(2) 0.90292(12)
O30_4 O 0.20371(11) 0.5068(2) 0.84173(13)
H27_2 H 0.203734 0.445118 0.872012
H28_2 H 0.179385 0.485666 0.806582
O32_4 O 0.29984(11) 0.6976(3) 0.79110(12)
H29_4 H 0.285829 0.710897 0.746995
H30_4 H 0.319569 0.764372 0.802304
O36_4 O 0.16775(12) 0.7076(3) 0.95384(15)
H31_4 H 0.158700 0.643494 0.978631
H32_4 H 0.138139 0.752788 0.947337
N7_2 N 0.17641(10) 0.7649(2) 0.78489(12)
Cu5_3 Cu -0.000000 0.79268(6) 0.750000
H15_3 H 0.015769 0.918631 0.443884
N5_4 N 0.08178(10) 0.8050(3) 0.74269(13)
O22_4 O 0.00181(10) 0.9342(3) 0.66519(13)
N6_4 N 0.05689(11) 0.9882(3) 0.57820(13)
H17_4 H 0.090339 0.986519 0.565668
C7_4 C 0.15278(12) 0.9024(3) 0.68196(16)
H18_4 H 0.163975 0.955331 0.645485
C8_4 C 0.19181(12) 0.8415(3) 0.73233(16)
H19_4 H 0.229784 0.854642 0.729259
C9_4 C 0.12110(12) 0.7498(3) 0.78717(15)
H20_4 H 0.109803 0.695930 0.823129
C10_4 C 0.09707(12) 0.8811(3) 0.68843(15)
C11_4 C 0.04821(12) 0.9369(3) 0.64138(16)
H12_3 H 0.018825 0.641399 0.645318
O23_3 O 0.01117(13) 0.6480(3) 0.83408(18)
H24_3 H 0.014767 0.574852 0.814344
H21_3 H 0.015769 0.081369 0.943884
H27_3 H 0.296266 0.945118 0.627988
H28_3 H 0.320615 0.985666 0.693418
Cu2_3 Cu 1.000000 0.20732(6) 0.250000
H12_4 H 0.981175 0.358601 0.354682
O23_4 O 0.98883(13) 0.3520(3) 0.16592(18)
H24_4 H 0.985233 0.425148 0.185656
N8_2 N 0.91822(10) 0.1950(3) 0.25731(13)
O37_2 O 0.99819(10) 0.0658(3) 0.33481(13)
Cu1_4 Cu 0.76757(2) 0.31400(4) 0.13739(2)
O7_4 O 0.71159(9) 0.3801(2) 0.06189(11)
H1_4 H 0.725711 0.440854 0.039034
H2_4 H 0.703701 0.322524 0.029594
O8_4 O 0.74298(9) 0.1347(2) 0.10560(11)
O9_4 O 0.87074(9) 0.0537(2) 0.09708(12)
O10_4 O 0.79629(11) 0.4932(2) 0.15827(13)
H3_4 H 0.796266 0.554882 0.127988
H4_4 H 0.820615 0.514334 0.193418
O12_4 O 0.70016(11) 0.3024(3) 0.20890(12)
H5_4 H 0.714171 0.289103 0.253005
H6_4 H 0.680431 0.235628 0.197696
N1_4 N 0.82359(10) 0.2351(2) 0.21511(12)
O16_4 O 0.83225(12) 0.2924(3) 0.04616(15)
H7_4 H 0.841300 0.356506 0.021369
H8_4 H 0.861861 0.247212 0.052663
N3_4 N 0.94311(11) 0.0118(3) 0.42180(13)
H9_4 H 0.909661 0.013481 0.434332
C1_4 C 0.84722(12) 0.0976(3) 0.31804(16)
H10_4 H 0.836025 0.044669 0.354515
C2_4 C 0.80819(12) 0.1585(3) 0.26767(16)
H11_4 H 0.770216 0.145358 0.270741
C3_4 C 0.87890(12) 0.2502(3) 0.21283(15)
H14_4 H 0.890197 0.304070 0.176871
C4_4 C 0.90293(12) 0.1189(3) 0.31157(15)
C5_4 C 0.95179(12) 0.0631(3) 0.35862(16)
H21_4 H 0.984231 0.081369 0.556116
H15_4 H 0.984231 0.918631 0.056116
H27_4 H 0.703734 0.945118 0.872012
H28_4 H 0.679385 0.985666 0.806582
loop_
_geom_bond_atom_site_label_1
_geom_bond_atom_site_label_2
_geom_bond_site_symmetry_1
_geom_bond_site_symmetry_2
Te1 O1 1_555 1_555
Mo1 O4 1_555 1_555
Mo2 O1 1_555 1_555
Mo3 O1 1_555 1_555
Cu1 O7 1_555 1_555
Cu2 N2 1_555 1_555
O2 Te1 1_555 1_555
O3 Mo3 1_555 1_555
O4 Mo2 1_555 1_555
O5 Mo2 1_555 1_555
O6 Te1 1_555 1_555
O7 H1 1_555 1_555
H2 O7 1_555 1_555
O8 Mo1 1_555 1_555
O9 Mo2 1_555 1_555
O10 Cu1 1_555 1_555
O11 Mo1 1_555 1_555
O12 Cu1 1_555 1_555
H5 O12 1_555 1_555
H6 O12 1_555 1_555
N1 Cu1 1_555 1_555
O13 Mo3 1_555 1_555
O14 Mo3 1_555 1_555
O15 Mo2 1_555 1_555
O16 Cu1 1_555 1_555
H7 O16 1_555 1_555
H8 O16 1_555 1_555
N2 C3 1_555 1_555
O17 Cu2 1_555 1_555
N3 H9 1_555 1_555
C1 H10 1_555 1_555
C2 N1 1_555 1_555
H11 C2 1_555 1_555
O18 Cu2 1_555 1_555
H12 O18 1_555 1_555
H13 O18 1_555 1_555
C3 N1 1_555 1_555
H14 C3 1_555 1_555
C4 N2 1_555 1_555
C5 O17 1_555 1_555
C6 N3 1_555 1_555
H15 C6 1_555 1_555
H16 C6 1_555 1_555
O19 Te1 1_555 1_555
O20 Te1 1_555 1_555
O21 Te1 1_555 1_555
O23 Cu2 1_555 1_555
H23 O23 1_555 1_555
H24 O23 1_555 1_555
Mo4 O2 1_555 1_555
Mo5 O2 1_555 1_555
Mo6 O6 1_555 1_555
O24 Mo1 1_555 1_555
O25 Mo4 1_555 1_555
O26 Mo5 1_555 1_555
O31 Mo4 1_555 1_555
O33 Mo6 1_555 1_555
O34 Mo6 1_555 1_555
O35 Mo5 1_555 1_555
N8 Cu2 1_555 1_555
O37 Cu2 1_555 1_555
Mo1 O6 1_555 1_555
Mo1 O20 1_555 1_555
Mo2 O20 1_555 1_555
Mo3 O5 1_555 1_555
Mo3 O21 1_555 1_555
Cu1 O8 1_555 1_555
O3 Mo4 1_555 1_555
N3 C5 1_555 1_555
C1 C2 1_555 1_555
C1 C4 1_555 1_555
C4 C5 1_555 1_555
O19 Mo5 1_555 1_555
O19 Mo6 1_555 1_555
O21 Mo4 1_555 1_555
Mo5 O25 1_555 1_555
Mo6 O24 1_555 1_555
Mo6 O26 1_555 1_555
N4 C8 1_555 1_555
N5 C9 1_555 1_555
O22 C11 1_555 1_555
N6 H17 1_555 1_555
C7 H18 1_555 1_555
C8 C7 1_555 1_555
H19 C8 1_555 1_555
C9 N4 1_555 1_555
H20 C9 1_555 1_555
C10 N5 1_555 1_555
C11 N6 1_555 1_555
H21 C12 1_555 1_555
H22 C12 1_555 1_555
Cu4 N4 1_555 1_555
Cu5 N5 1_555 1_555
O22 Cu5 1_555 1_555
N6 C12 1_555 1_555
C7 C10 1_555 1_555
C10 C11 1_555 1_555
Te1_2 O1_2 1_555 1_555
Mo1_2 O4_2 1_555 1_555
Mo2_2 O1_2 1_555 1_555
Cu1_2 O7_2 1_555 1_555
O4_2 Mo2_2 1_555 1_555
O5_2 Mo2_2 1_555 1_555
O6_2 Te1_2 1_555 1_555
O7_2 H1_2 1_555 1_555
H2_2 O7_2 1_555 1_555
O8_2 Mo1_2 1_555 1_555
O9_2 Mo2_2 1_555 1_555
O10_2 Cu1_2 1_555 1_555
O11_2 Mo1_2 1_555 1_555
O12_2 Cu1_2 1_555 1_555
H5_2 O12_2 1_555 1_555
H6_2 O12_2 1_555 1_555
N1_2 Cu1_2 1_555 1_555
O15_2 Mo2_2 1_555 1_555
O16_2 Cu1_2 1_555 1_555
H7_2 O16_2 1_555 1_555
H8_2 O16_2 1_555 1_555
N8 C3_2 1_555 1_555
N3_2 H9_2 1_555 1_555
C1_2 H10_2 1_555 1_555
C2_2 N1_2 1_555 1_555
H11_2 C2_2 1_555 1_555
C3_2 N1_2 1_555 1_555
H14_2 C3_2 1_555 1_555
C4_2 N8 1_555 1_555
C5_2 O37 1_555 1_555
C6_2 N3_2 1_555 1_555
H15_2 C6_2 1_555 1_555
H16_2 C6_2 1_555 1_555
O20_2 Te1_2 1_555 1_555
N4_2 C8_2 1_555 1_555
N5_2 C9_2 1_555 1_555
O22_2 C11_2 1_555 1_555
N6_2 H17_2 1_555 1_555
C7_2 H18_2 1_555 1_555
C8_2 C7_2 1_555 1_555
H19_2 C8_2 1_555 1_555
C9_2 N4_2 1_555 1_555
H20_2 C9_2 1_555 1_555
C10_2 N5_2 1_555 1_555
C11_2 N6_2 1_555 1_555
C12_2 C6_2 1_555 1_555
H21_2 C12_2 1_555 1_555
H22_2 C12_2 1_555 1_555
Mo6_2 O6_2 1_555 1_555
O24_2 Mo1_2 1_555 1_555
O33_2 Mo6_2 1_555 1_555
Cu4_2 N4_2 1_555 1_555
Cu5 N5_2 1_555 1_555
Mo1_2 O6_2 1_555 1_555
Mo1_2 O20_2 1_555 1_555
Mo2_2 O20_2 1_555 1_555
Cu1_2 O8_2 1_555 1_555
N3_2 C5_2 1_555 1_555
C1_2 C2_2 1_555 1_555
C1_2 C4_2 1_555 1_555
C4_2 C5_2 1_555 1_555
O22_2 Cu5 1_555 1_555
N6_2 C12_2 1_555 1_555
C7_2 C10_2 1_555 1_555
C10_2 C11_2 1_555 1_555
Mo6_2 O24_2 1_555 1_555
Te1_3 O1_3 1_555 1_555
Mo1_3 O4_3 1_555 1_555
Mo2_3 O1_3 1_555 1_555
Mo3_2 O1_3 1_555 1_555
O2_2 Te1_3 1_555 1_555
O3_2 Mo3_2 1_555 1_555
O4_3 Mo2_3 1_555 1_555
O5_3 Mo2_3 1_555 1_555
O6_3 Te1_3 1_555 1_555
O11_3 Mo1_3 1_555 1_555
O13_2 Mo3_2 1_555 1_555
O14_3 Mo3_2 1_555 1_555
O15_3 Mo2_3 1_555 1_555
H16_3 C6_3 1_555 1_555
O19_2 Te1_3 1_555 1_555
O20_3 Te1_3 1_555 1_555
O21_2 Te1_3 1_555 1_555
Mo4_2 O2_2 1_555 1_555
Mo5_2 O2_2 1_555 1_555
Mo6_3 O6_3 1_555 1_555
Cu4 O27 1_555 1_555
O24_3 Mo1_3 1_555 1_555
O25_2 Mo4_2 1_555 1_555
O26_2 Mo5_2 1_555 1_555
O27 H25 1_555 1_555
H26 O27 1_555 1_555
O28 Mo4_2 1_555 1_555
O29 Mo5_2 1_555 1_555
O30 Cu4 1_555 1_555
O31_2 Mo4_2 1_555 1_555
O32 Cu4 1_555 1_555
H29 O32 1_555 1_555
H30 O32 1_555 1_555
O33_3 Mo6_3 1_555 1_555
O34_2 Mo6_3 1_555 1_555
O35_2 Mo5_2 1_555 1_555
O36 Cu4 1_555 1_555
H31 O36 1_555 1_555
H32 O36 1_555 1_555
Mo1_3 O6_3 1_555 1_555
Mo1_3 O20_3 1_555 1_555
Mo2_3 O20_3 1_555 1_555
Mo3_2 O5_3 1_555 1_555
Mo3_2 O21_2 1_555 1_555
O3_2 Mo4_2 1_555 1_555
O19_2 Mo5_2 1_555 1_555
O19_2 Mo6_3 1_555 1_555
O21_2 Mo4_2 1_555 1_555
Mo5_2 O25_2 1_555 1_555
Mo6_3 O24_3 1_555 1_555
Mo6_3 O26_2 1_555 1_555
Cu4 O28 1_555 1_555
H22_3 C12_3 1_555 1_555
O2_3 Te1_4 1_555 1_555
O3_3 Mo3_3 1_555 1_555
O13_3 Mo3_3 1_555 1_555
O19_3 Te1_4 1_555 1_555
O21_3 Te1_4 1_555 1_555
Mo4_3 O2_3 1_555 1_555
Mo5_3 O2_3 1_555 1_555
Cu4_2 O27_2 1_555 1_555
O25_3 Mo4_3 1_555 1_555
O26_3 Mo5_3 1_555 1_555
O27_2 H25_2 1_555 1_555
H26_2 O27_2 1_555 1_555
O28_2 Mo4_3 1_555 1_555
O29_2 Mo5_3 1_555 1_555
O30_2 Cu4_2 1_555 1_555
O31_3 Mo4_3 1_555 1_555
O32_2 Cu4_2 1_555 1_555
H29_2 O32_2 1_555 1_555
H30_2 O32_2 1_555 1_555
O35_3 Mo5_3 1_555 1_555
O36_2 Cu4_2 1_555 1_555
H31_2 O36_2 1_555 1_555
H32_2 O36_2 1_555 1_555
Mo3_3 O21_3 1_555 1_555
O3_3 Mo4_3 1_555 1_555
O19_3 Mo5_3 1_555 1_555
O21_3 Mo4_3 1_555 1_555
Mo5_3 O25_3 1_555 1_555
Cu4_2 O28_2 1_555 1_555
O18_2 Cu5 1_555 1_555
H12_2 O18_2 1_555 1_555
H13_2 O18_2 1_555 1_555
O23_2 Cu5 1_555 1_555
H23_2 O23_2 1_555 1_555
H24_2 O23_2 1_555 1_555
Cu3 O27_3 1_555 1_555
O27_3 H25_3 1_555 1_555
H26_3 O27_3 1_555 1_555
O30_3 Cu3 1_555 1_555
H27 O30_3 1_555 1_555
H28 O30_3 1_555 1_555
O32_3 Cu3 1_555 1_555
H29_3 O32_3 1_555 1_555
H30_3 O32_3 1_555 1_555
O36_3 Cu3 1_555 1_555
H31_3 O36_3 1_555 1_555
H32_3 O36_3 1_555 1_555
N7 Cu3 1_555 1_555
Cu3 O28_3 1_555 1_555
N7 C8_3 1_555 1_555
N5_3 C9_3 1_555 1_555
O22_3 C11_3 1_555 1_555
N6_3 H17_3 1_555 1_555
C7_3 H18_3 1_555 1_555
C8_3 C7_3 1_555 1_555
H19_3 C8_3 1_555 1_555
C9_3 N7 1_555 1_555
H20_3 C9_3 1_555 1_555
C10_3 N5_3 1_555 1_555
C11_3 N6_3 1_555 1_555
Cu5_2 N5_3 1_555 1_555
O22_3 Cu5_2 1_555 1_555
C7_3 C10_3 1_555 1_555
C10_3 C11_3 1_555 1_555
Te1_5 O1_4 1_555 1_555
Mo1_4 O4_4 1_555 1_555
Mo2_4 O1_4 1_555 1_555
O4_4 Mo2_4 1_555 1_555
O5_4 Mo2_4 1_555 1_555
O6_4 Te1_5 1_555 1_555
O11_4 Mo1_4 1_555 1_555
O15_4 Mo2_4 1_555 1_555
H16_4 C6_4 1_555 1_555
O20_4 Te1_5 1_555 1_555
Mo6_4 O6_4 1_555 1_555
O24_4 Mo1_4 1_555 1_555
O33_4 Mo6_4 1_555 1_555
Mo1_4 O6_4 1_555 1_555
Mo1_4 O20_4 1_555 1_555
Mo2_4 O20_4 1_555 1_555
Mo6_4 O24_4 1_555 1_555
O18_3 Cu5_2 1_555 1_555
H13_3 O18_3 1_555 1_555
O2_4 Te1_6 1_555 1_555
O3_4 Mo3_4 1_555 1_555
O13_4 Mo3_4 1_555 1_555
O19_4 Te1_6 1_555 1_555
O21_4 Te1_6 1_555 1_555
Mo4_4 O2_4 1_555 1_555
Mo5_4 O2_4 1_555 1_555
O25_4 Mo4_4 1_555 1_555
O26_4 Mo5_4 1_555 1_555
O31_4 Mo4_4 1_555 1_555
O35_4 Mo5_4 1_555 1_555
Mo3_4 O21_4 1_555 1_555
O3_4 Mo4_4 1_555 1_555
O19_4 Mo5_4 1_555 1_555
O21_4 Mo4_4 1_555 1_555
Mo5_4 O25_4 1_555 1_555
Cu1_3 O7_3 1_555 1_555
Cu2_2 N2_2 1_555 1_555
O7_3 H1_3 1_555 1_555
H2_3 O7_3 1_555 1_555
O10_3 Cu1_3 1_555 1_555
H3_3 O10_3 1_555 1_555
H4_3 O10_3 1_555 1_555
O12_3 Cu1_3 1_555 1_555
H5_3 O12_3 1_555 1_555
H6_3 O12_3 1_555 1_555
N1_3 Cu1_3 1_555 1_555
O16_3 Cu1_3 1_555 1_555
H7_3 O16_3 1_555 1_555
H8_3 O16_3 1_555 1_555
N2_2 C3_3 1_555 1_555
O17_2 Cu2_2 1_555 1_555
N3_3 H9_3 1_555 1_555
C1_3 H10_3 1_555 1_555
C2_3 N1_3 1_555 1_555
H11_3 C2_3 1_555 1_555
O18_4 Cu2_2 1_555 1_555
H13_4 O18_4 1_555 1_555
C3_3 N1_3 1_555 1_555
H14_3 C3_3 1_555 1_555
C4_3 N2_2 1_555 1_555
C5_3 O17_2 1_555 1_555
Cu1_3 O8_3 1_555 1_555
N3_3 C5_3 1_555 1_555
C1_3 C2_3 1_555 1_555
C1_3 C4_3 1_555 1_555
C4_3 C5_3 1_555 1_555
H22_4 C12_4 1_555 1_555
Cu3_2 O27_4 1_555 1_555
O27_4 H25_4 1_555 1_555
H26_4 O27_4 1_555 1_555
O30_4 Cu3_2 1_555 1_555
H27_2 O30_4 1_555 1_555
H28_2 O30_4 1_555 1_555
O32_4 Cu3_2 1_555 1_555
H29_4 O32_4 1_555 1_555
H30_4 O32_4 1_555 1_555
O36_4 Cu3_2 1_555 1_555
H31_4 O36_4 1_555 1_555
H32_4 O36_4 1_555 1_555
N7_2 Cu3_2 1_555 1_555
Cu3_2 O28_4 1_555 1_555
N7_2 C8_4 1_555 1_555
N5_4 C9_4 1_555 1_555
O22_4 C11_4 1_555 1_555
N6_4 H17_4 1_555 1_555
C7_4 H18_4 1_555 1_555
C8_4 C7_4 1_555 1_555
H19_4 C8_4 1_555 1_555
C9_4 N7_2 1_555 1_555
H20_4 C9_4 1_555 1_555
C10_4 N5_4 1_555 1_555
C11_4 N6_4 1_555 1_555
Cu5_3 N5_4 1_555 1_555
O22_4 Cu5_3 1_555 1_555
C7_4 C10_4 1_555 1_555
C10_4 C11_4 1_555 1_555
O23_3 Cu5_3 1_555 1_555
H24_3 O23_3 1_555 1_555
O23_4 Cu2_3 1_555 1_555
H24_4 O23_4 1_555 1_555
N8_2 Cu2_3 1_555 1_555
O37_2 Cu2_3 1_555 1_555
Cu1_4 O7_4 1_555 1_555
O7_4 H1_4 1_555 1_555
H2_4 O7_4 1_555 1_555
O10_4 Cu1_4 1_555 1_555
H3_4 O10_4 1_555 1_555
H4_4 O10_4 1_555 1_555
O12_4 Cu1_4 1_555 1_555
H5_4 O12_4 1_555 1_555
H6_4 O12_4 1_555 1_555
N1_4 Cu1_4 1_555 1_555
O16_4 Cu1_4 1_555 1_555
H7_4 O16_4 1_555 1_555
H8_4 O16_4 1_555 1_555
N8_2 C3_4 1_555 1_555
N3_4 H9_4 1_555 1_555
C1_4 H10_4 1_555 1_555
C2_4 N1_4 1_555 1_555
H11_4 C2_4 1_555 1_555
C3_4 N1_4 1_555 1_555
H14_4 C3_4 1_555 1_555
C4_4 N8_2 1_555 1_555
C5_4 O37_2 1_555 1_555
Cu1_4 O8_4 1_555 1_555
N3_4 C5_4 1_555 1_555
C1_4 C2_4 1_555 1_555
C1_4 C4_4 1_555 1_555
C4_4 C5_4 1_555 1_555

#END
