
###############################################################################
#
# This file contains modified crystal structure data generated from the
# MOF subset of the Cambridge Structural Database (CSD) v543 
# hosted by the Cambridge Crystallographic Data Centre (CCDC).
#
# This work is licensed under the Creative Commons
# Attribution-NonCommercial-ShareAlike 4.0 International License.
# To view a copy of this license, visit
# http://creativecommons.org/licenses/by-nc-sa/4.0/
# or send a letter to
# Creative Commons, PO Box 1866, Mountain View, CA 94042, USA.
#
# CIF created using the CSD Python API on 29 September 2022
# The structure has been converted into the P1 space group
# The structure has a 3D framework
# The original CSD entry PEFSUQ is in the triclinic crystal system
# The original CSD entry PEFSUQ is in a Sohncke space group
# The framework has been calculated to contain at least 10.0% void space
# The void calculation uses a probe of radius 1.32A, grid spacing 0.4
# H atom positions have been added when not included in the experimental data
#
###############################################################################

data_PEFSUQ
_chemical_formula_moiety         '(C72 H106 Cu6 N18 O20)n'
_symmetry_cell_setting           triclinic
_symmetry_space_group_name_H-M   'P 1'
_symmetry_Int_Tables_number      1
_space_group_name_Hall           'P 1'
loop_
_symmetry_equiv_pos_site_id
_symmetry_equiv_pos_as_xyz
1 x,y,z
_cell_length_a                   12.7711(14)
_cell_length_b                   14.229(2)
_cell_length_c                   16.003(2)
_cell_angle_alpha                106.640(2)
_cell_angle_beta                 103.935(3)
_cell_angle_gamma                106.606(3)
_cell_volume                     2499.77
loop_
_atom_site_label
_atom_site_type_symbol
_atom_site_fract_x
_atom_site_fract_y
_atom_site_fract_z
_atom_site_U_iso_or_equiv
_atom_site_thermal_displace_type
O20 O 0.3201(9) 0.1708(9) 0.0985(8) 0.1060 Uani
C47 C 0.6052(11) 0.1878(12) 0.0523(12) 0.1020 Uani
C48 C 0.7132(17) 0.229(3) 0.066(3) 0.2701 Uani
C49 C 0.780(2) 0.334(2) 0.153(3) 0.2378 Uani
C50 C 0.7805(13) 0.1931(16) 0.0082(18) 0.1335 Uani
H46 H 0.1265 0.1426 0.0223 0.1170 Uiso
H47 H 0.0069 0.1030 0.0409 0.1170 Uiso
H49 H 0.406158 0.207683 0.128654 . .
H50 H 0.284668 0.223415 0.0928631 . .
H80 H 0.772791 0.319149 0.214866 . .
H81 H 0.871588 0.364476 0.160211 . .
H82 H 0.742515 0.392085 0.144997 . .
H86 H 0.871684 0.247222 0.0405996 . .
H87 H 0.774132 0.11349 0.00289305 . .
H91 H 0.601697 0.175073 0.115679 . .
H92 H 0.571548 0.24878 0.0465423 . .
H97 H 0.73293 0.183349 0.107476 . .
Cu2 Cu 0.27375(8) 0.04311(10) 0.94758(9) 0.0618 Uani
Cu3 Cu 0.41433(9) 0.22627(9) 0.73395(8) 0.0568 Uani
O16 O 0.2067(6) 0.0957(8) 0.8525(7) 0.0844 Uani
O17 O 0.4823(5) 0.1756(5) 0.8283(5) 0.0574 Uani
O18 O 0.3091(7) 0.2381(8) 0.6323(6) 0.0870 Uani
O19 O 0.1363(8) 0.2423(8) 0.5784(8) 0.1004 Uani
N15 N 0.4150(7) 0.1002(7) 0.9248(7) 0.0635 Uani
N16 N 0.2783(7) 0.1845(6) 0.7635(6) 0.0570 Uani
C46 C 0.5141(6) 0.0832(8) 0.9710(7) 0.0541 Uani
H35 H 0.5508 0.0568 0.9255 0.0650 Uiso
C51 C 0.4052(7) 0.1390(7) 0.8605(7) 0.0535 Uani
C52 C 0.2811(8) 0.1361(8) 0.8241(7) 0.0582 Uani
C53 C 0.1735(9) 0.1920(8) 0.7098(8) 0.0622 Uani
H36 H 0.1086 0.1204 0.6800 0.0750 Uiso
C54 C 0.2089(10) 0.2264(10) 0.6325(8) 0.0735 Uani
C55 C 0.1340(10) 0.2710(10) 0.7638(10) 0.0751 Uani
C56 C 0.070(2) 0.239(2) 0.823(2) 0.1626 Uani
C57 C 0.056(3) 0.326(2) 0.890(2) 0.1711 Uani
C68 C 0.0428(9) 0.0990(10) 0.9930(9) 0.0777 Uani
H48 H 0.0063 0.1252 0.9483 0.1170 Uiso
N20 N 0.5511(7) 0.3013(6) 0.7107(6) 0.0602 Uani
H83 H 0.0771977 0.289638 0.713925 . .
H84 H 0.211264 0.342113 0.80881 . .
H85 H 0.744889 0.19234 0.938848 . .
H93 H 0.121747 0.20817 0.864226 . .
H94 H 0.00803285 0.362351 0.852439 . .
H95 H 0.00799566 0.294609 0.930155 . .
H96 H 0.141628 0.385316 0.936905 . .
O14 O 0.5353(6) 0.9598(6) 0.0413(5) 0.0655 Uani
O15 O 0.3628(5) 0.9731(6) 0.0072(5) 0.0590 Uani
C45 C 0.4687(8) 0.9982(8) 0.0095(6) 0.0518 Uani
Cu8 Cu 0.51674(8) 0.89039(9) 0.15662(7) 0.0543 Uani
O11 O 0.5134(6) 0.7596(5) 0.0644(5) 0.0621 Uani
N10 N 0.3515(7) 0.8154(7) 0.1125(5) 0.0558 Uani
C20 C 0.7891(9) 0.9133(12) 0.0454(7) 0.0770 Uani
H18 H 0.7254 0.9113 0.0697 0.1150 Uiso
H19 H 0.8539 0.9824 0.0804 0.1150 Uiso
H20 H 0.8160 0.8570 0.0520 0.1150 Uiso
C27 C 0.4094(7) 0.7089(8) 0.0069(6) 0.0538 Uani
C28 C 0.3099(8) 0.7366(8) 0.0339(6) 0.0539 Uani
C29 C 0.2832(7) 0.8748(8) 0.1468(6) 0.0533 Uani
H22 H 0.2218 0.8716 0.0926 0.0640 Uiso
C30 C 0.2259(12) 0.8358(12) 0.2107(9) 0.0896 Uani
C31 C 0.1138(16) 0.7442(17) 0.1651(15) 0.1289 Uani
C32 C 0.065(3) 0.705(3) 0.235(2) 0.2111 Uani
C33 C 0.0165(14) 0.773(2) 0.1099(17) 0.1583 Uani
C34 C 0.3703(9) 0.9894(10) 0.2011(7) 0.0689 Uani
N19 N 0.6838(6) 0.9622(7) 0.2337(5) 0.0579 Uani
H62 H 0.211352 0.901541 0.254403 . .
H63 H 0.286892 0.814139 0.254234 . .
H64 H 0.051448 0.768916 0.28213 . .
H66 H 0.12723 0.681367 0.275026 . .
H67 H 0.042158 0.797059 0.0567188 . .
H69 H 0.00514906 0.837934 0.157752 . .
H70 H 0.124499 0.679136 0.116837 . .
H71 H 0.549184 0.592715 0.0336226 . .
H73 H 0.651151 0.474635 0.0602739 . .
H74 H 0.498011 0.403516 0.00317558 . .
H78 H 0.736185 0.612829 0.0514062 . .
N18 N 0.5382(7) 0.3568(7) 0.6584(6) 0.0703 Uani
H6 H 0.4704 0.3566 0.6289 0.0840 Uiso
C8 C 0.998(4) 0.737(2) 0.572(3) 0.3332 Uani
C10 C 0.964(3) 0.622(5) 0.488(3) 0.3287 Uani
H13 H 0.9380 0.8839 0.4239 0.1430 Uiso
H14 H 0.9687 0.9980 0.5006 0.1430 Uiso
C35 C 0.7629(9) 0.8214(9) 0.2261(8) 0.0669 Uani
H23 H 0.6805 0.7752 0.1919 0.1010 Uiso
H24 H 0.7914 0.8067 0.2817 0.1010 Uiso
H25 H 0.8085 0.8078 0.1861 0.1010 Uiso
C36 C 0.7753(8) 0.9329(8) 0.2542(6) 0.0551 Uani
C40 C 0.8389(18) 0.358(3) 0.5479(13) 0.2730 Uani
H29 H 0.8988 0.3638 0.5191 0.4110 Uiso
H30 H 0.7849 0.3886 0.5223 0.4110 Uiso
H31 H 0.7956 0.2838 0.5348 0.4110 Uiso
C41 C 0.8952(12) 0.4179(14) 0.6501(8) 0.1262 Uani
C42 C 0.8494(8) 0.4323(8) 0.7201(6) 0.0605 Uani
C43 C 0.9433(8) 0.4950(8) 0.8018(7) 0.0600 Uani
C44 C 0.9409(10) 0.5324(13) 0.8992(8) 0.0851 Uani
H33 H 0.9088 0.4708 0.9145 0.1280 Uiso
H34 H 0.8919 0.5742 0.9031 0.1280 Uiso
C59 C 0.7178(11) 0.2707(13) 0.8053(12) 0.0942 Uani
H37 H 0.6556 0.2259 0.8191 0.1410 Uiso
H38 H 0.7767 0.3262 0.8636 0.1410 Uiso
H39 H 0.7542 0.2271 0.7733 0.1410 Uiso
C60 C 0.6663(8) 0.3217(8) 0.7431(7) 0.0581 Uani
C61 C 0.7221(8) 0.3909(8) 0.7069(7) 0.0650 Uani
C62 C 0.6390(9) 0.4130(11) 0.6553(9) 0.0844 Uani
C63 C 0.6415(16) 0.482(2) 0.6000(18) 0.1988 Uani
H40 H 0.5624 0.4784 0.5727 0.2970 Uiso
H41 H 0.6708 0.4568 0.5502 0.2970 Uiso
H42 H 0.6928 0.5552 0.6409 0.2970 Uiso
H55 H 0.969859 0.563189 0.518043 . .
H56 H 0.875335 0.596169 0.440234 . .
H58 H 0.954834 0.712012 0.617365 . .
H60 H 0.962095 0.85452 0.592297 . .
N13 N 0.1142(6) 0.9581(7) 0.9367(6) 0.0608 Uani
N14 N 0.0680(7) 0.8544(7) 0.8816(8) 0.0697 Uani
H5 H 0.1089 0.8165 0.8657 0.0840 Uiso
C67 C 0.0252(7) 0.9842(8) 0.9424(7) 0.0532 Uani
O12 O 0.4803(6) 0.0091(6) 0.2220(5) 0.0669 Uani
O13 O 0.3335(8) 0.0628(7) 0.2232(6) 0.0864 Uani
Cu4 Cu 0.30886(9) 0.03766(10) 0.50944(8) 0.0598 Uani
O1 O 0.5874(7) 0.1897(8) 0.4654(7) 0.0943 Uani
O2 O 0.4072(6) 0.1236(7) 0.4613(5) 0.0713 Uani
N1 N 0.1888(7) 0.0800(7) 0.3614(6) 0.0648 Uani
H1 H 0.2573 0.1050 0.3561 0.0780 Uiso
N2 N 0.1676(7) 0.0323(7) 0.4231(6) 0.0598 Uani
N3 N 0.4512(7) 0.0264(9) 0.5679(7) 0.0725 Uani
C1 C 0.5127(9) 0.1322(9) 0.4845(7) 0.0659 Uani
C2 C 0.5476(10) 0.0728(12) 0.5399(10) 0.0883 Uani
H7 H 0.6036 0.1316 0.5998 0.1060 Uiso
C11 C 0.0930(12) 0.1256(15) 0.2343(11) 0.1020 Uani
H9 H 0.1737 0.1547 0.2369 0.1530 Uiso
H10 H 0.0617 0.1816 0.2431 0.1530 Uiso
H11 H 0.0455 0.0680 0.1735 0.1530 Uiso
C12 C 0.0902(9) 0.0824(10) 0.3112(8) 0.0672 Uani
C13 C 0.0033(9) 0.0354(9) 0.3384(6) 0.0617 Uani
C14 C 0.0552(8) 0.0049(8) 0.4084(6) 0.0553 Uani
C58 C 0.953(2) 0.149(2) 0.766(2) 0.1985 Uani
C70 C 0.621(2) 0.013(2) 0.515(2) 0.2070 Uiso
H88 H 0.965979 0.0803912 0.725235 . .
H89 H 0.909023 0.128095 0.81236 . .
H90 H 0.899718 0.173684 0.719345 . .
H106 H 0.693383 0.0624328 0.502569 . .
Cu1 Cu 0.46707(8) 0.86680(8) 0.73471(7) 0.0518 Uani
Cu6 Cu 0.21111(9) 0.60459(8) 0.85641(8) 0.0535 Uani
O3 O 0.2479(5) 0.9614(6) 0.5868(5) 0.0647 Uani
O4 O 0.5301(5) 0.9569(6) 0.6699(5) 0.0651 Uani
O5 O 0.3791(5) 0.8039(5) 0.8027(5) 0.0540 Uani
O6 O 0.2016(5) 0.7467(5) 0.8104(5) 0.0580 Uani
O7 O 0.4386(9) 0.7038(8) 0.6268(6) 0.0910 Uani
O8 O 0.4112(8) 0.5467(7) 0.7080(6) 0.0822 Uani
O9 O 0.2551(6) 0.5443(6) 0.7488(5) 0.0657 Uani
O10 O 0.2066(5) 0.6867(5) 0.9770(5) 0.0605 Uani
N4 N 0.3247(6) 0.8815(7) 0.6811(6) 0.0582 Uani
N5 N 0.6179(6) 0.8786(6) 0.8137(5) 0.0493 Uani
N6 N 0.6366(6) 0.8884(6) 0.9033(5) 0.0499 Uani
H2 H 0.5848 0.8891 0.9309 0.0590 Uiso
N7 N 0.0128(8) 0.4707(10) 0.6943(7) 0.1010 Uani
H3 H 0.0635 0.4720 0.6655 0.1220 Uiso
N8 N 0.0425(7) 0.5203(6) 0.7864(6) 0.0579 Uani
N9 N 0.3718(7) 0.6389(6) 0.9255(6) 0.0552 Uani
C3 C 0.4492(7) 0.9773(9) 0.6228(7) 0.0587 Uani
C4 C 0.3279(7) 0.9356(8) 0.6288(7) 0.0551 Uani
C5 C 0.2231(7) 0.8257(9) 0.6994(7) 0.0610 Uani
H8 H 0.1838 0.8746 0.7209 0.0730 Uiso
C6 C 0.2705(7) 0.7898(7) 0.7763(6) 0.0478 Uani
C7 C 0.1349(13) 0.7256(18) 0.6137(15) 0.1475 Uani
C9 C 0.033(4) 0.827(3) 0.608(3) 1.7849 Uani
C15 C 0.0007(10) 0.9524(14) 0.4654(9) 0.0948 Uani
H12 H 0.0601 0.9413 0.5087 0.1430 Uiso
C16 C 0.7281(10) 0.8666(14) 0.7040(8) 0.0904 Uani
H15 H 0.6552 0.8593 0.6601 0.1340 Uiso
H16 H 0.7447 0.8028 0.6811 0.1340 Uiso
H17 H 0.7922 0.9287 0.7099 0.1340 Uiso
C17 C 0.7163(7) 0.8807(8) 0.7986(6) 0.0505 Uani
C18 C 0.8015(7) 0.8938(7) 0.8808(6) 0.0463 Uani
C19 C 0.7462(6) 0.8968(7) 0.9441(6) 0.0459 Uani
C21 C 0.3640(9) 0.5634(7) 0.7690(8) 0.0606 Uani
C22 C 0.4360(8) 0.6039(8) 0.8701(8) 0.0586 Uani
H21 H 0.5095 0.6647 0.8844 0.0710 Uiso
C23 C 0.4669(11) 0.5122(9) 0.8884(10) 0.0801 Uani
C24 C 0.5664(18) 0.5445(14) 0.9762(12) 0.1346 Uani
C25 C 0.578(6) 0.448(3) 0.996(2) 0.3804 Uani
C26 C 0.676(2) 0.596(3) 0.983(3) 0.2384 Uani
H32 H 0.0204 0.5763 0.9434 0.1280 Uiso
C64 C 0.8781(12) 0.7038(9) 0.7879(13) 0.1012 Uani
H43 H 0.9279 0.6646 0.7744 0.1520 Uiso
H44 H 0.8307 0.7039 0.7299 0.1520 Uiso
H45 H 0.8269 0.6695 0.8163 0.1520 Uiso
C65 C 0.9542(8) 0.8175(8) 0.8550(9) 0.0668 Uani
C66 C 0.9211(7) 0.8994(7) 0.8927(6) 0.0471 Uani
C69 C 0.544(3) 0.914(2) 0.4259(19) 0.2160 Uiso
C71 C 0.618(4) 0.844(3) 0.413(3) 0.2700 Uiso
C72 C 0.438(5) 0.851(4) 0.443(7) 1.2000 Uiso
H51 H 0.514363 0.704448 0.620764 . .
H52 H 0.406104 0.646608 0.648165 . .
H53 H 0.12077 0.656988 0.633296 . .
H54 H 0.171113 0.714575 0.558231 . .
H57 H 0.0243805 0.630793 0.450319 . .
H59 H 0.100213 0.862828 0.583122 . .
H61 H 0.0701481 0.849682 0.682992 . .
H72 H 0.593077 0.397305 0.938614 . .
H75 H 0.488926 0.472128 0.830181 . .
H76 H 0.389959 0.457073 0.891341 . .
H77 H 0.68301 0.670186 0.973759 . .
H79 H 0.697699 0.546756 0.92935 . .
H98 H 0.388761 0.900218 0.460145 . .
H99 H 0.382602 0.780584 0.380441 . .
H100 H 0.467116 0.827314 0.500598 . .
H101 H 0.518412 0.934737 0.365775 . .
H102 H 0.639313 0.82287 0.473421 . .
H103 H 0.568038 0.772088 0.350608 . .
H104 H 0.698217 0.888262 0.405982 . .
H105 H 0.654944 0.989278 0.571392 . .
N12 N 0.7294(8) 0.0709(7) 0.2703(6) 0.0658 Uani
H4 H 0.6877 0.1102 0.2663 0.0790 Uiso
C37 C 0.8802(8) 0.0253(8) 0.3042(6) 0.0582 Uani
C38 C 0.8447(8) 0.1098(9) 0.3127(7) 0.0662 Uani
C39 C 0.9131(17) 0.2272(12) 0.3593(17) 0.1808 Uani
H26 H 0.8599 0.2646 0.3522 0.2710 Uiso
H27 H 0.9707 0.2480 0.3304 0.2710 Uiso
H28 H 0.9533 0.2457 0.4256 0.2710 Uiso
H65 H 0.982337 0.637417 0.196523 . .
H68 H 0.934664 0.703995 0.0769186 . .
loop_
_atom_site_aniso_label
_atom_site_aniso_U_11
_atom_site_aniso_U_22
_atom_site_aniso_U_33
_atom_site_aniso_U_23
_atom_site_aniso_U_13
_atom_site_aniso_U_12
O20 0.086 0.117 0.108 0.027 0.028 0.05
C47 0.047 0.094 0.13 0.009 0.029 0.014
C48 0.057 0.2 0.36 -0.07 0.056 -0.028
C49 0.106 0.15 0.26 -0.03 -0.027 -0.041
C50 0.058 0.143 0.23 0.088 0.077 0.042
Cu2 0.0321 0.0979 0.0909 0.0646 0.0334 0.0357
Cu3 0.0427 0.0646 0.0678 0.0338 0.0241 0.0145
O16 0.045 0.146 0.128 0.104 0.052 0.058
O17 0.036 0.076 0.08 0.046 0.033 0.022
O18 0.049 0.123 0.076 0.059 0.012 0.002
O19 0.074 0.111 0.12 0.076 0.012 0.027
N15 0.037 0.096 0.101 0.068 0.039 0.043
N16 0.041 0.069 0.073 0.045 0.021 0.019
C46 0.019 0.086 0.073 0.044 0.02 0.025
C51 0.036 0.064 0.091 0.051 0.033 0.031
C52 0.045 0.079 0.08 0.054 0.03 0.034
C53 0.046 0.059 0.078 0.036 0.015 0.011
C54 0.057 0.087 0.079 0.055 0.015 0.015
C55 0.053 0.093 0.113 0.063 0.04 0.042
C56 0.16 0.18 0.28 0.17 0.14 0.114
C57 0.24 0.19 0.26 0.15 0.2 0.17
C68 0.043 0.102 0.082 0.019 0.021 0.036
N20 0.048 0.064 0.08 0.037 0.033 0.019
O14 0.045 0.109 0.077 0.052 0.032 0.052
O15 0.041 0.09 0.082 0.056 0.038 0.038
C45 0.044 0.072 0.056 0.03 0.022 0.036
Cu8 0.0377 0.0703 0.0551 0.0204 0.0142 0.0263
O11 0.045 0.068 0.073 0.021 0.017 0.03
N10 0.049 0.073 0.053 0.025 0.02 0.031
C20 0.048 0.135 0.065 0.047 0.023 0.047
C27 0.04 0.068 0.065 0.037 0.015 0.028
C28 0.054 0.069 0.054 0.032 0.025 0.031
C29 0.03 0.078 0.052 0.017 0.02 0.024
C30 0.075 0.127 0.083 0.055 0.052 0.026
C31 0.09 0.155 0.144 0.059 0.076 0.019
C32 0.22 0.2 0.21 0.1 0.14 0
C33 0.051 0.24 0.165 0.053 0.035 0.056
C34 0.052 0.1 0.064 0.029 0.029 0.037
N19 0.041 0.087 0.047 0.021 0.014 0.032
N18 0.049 0.078 0.071 0.045 0.01 -0.001
C8 0.38 0.14 0.23 0.09 -0.19 -0.02
C10 0.101 0.43 0.21 0.04 -0.05 -0.07
C35 0.051 0.076 0.078 0.037 0.016 0.028
C36 0.051 0.083 0.045 0.032 0.017 0.037
C40 0.098 0.41 0.081 -0.03 0.045 -0.11
C41 0.071 0.152 0.062 -0.009 0.037 -0.049
C42 0.046 0.063 0.051 0.018 0.013 -0.002
C43 0.045 0.068 0.071 0.034 0.021 0.019
C44 0.056 0.133 0.074 0.043 0.028 0.039
C59 0.061 0.12 0.149 0.086 0.057 0.049
C60 0.041 0.061 0.079 0.032 0.029 0.017
C61 0.042 0.07 0.06 0.023 0.012 -0.004
C62 0.041 0.112 0.082 0.064 0.002 -0.007
C63 0.083 0.25 0.21 0.19 -0.021 -0.053
N13 0.037 0.091 0.086 0.058 0.035 0.033
N14 0.044 0.082 0.131 0.068 0.055 0.043
C67 0.039 0.075 0.071 0.045 0.03 0.031
O12 0.048 0.083 0.058 0.008 0.017 0.029
O13 0.083 0.095 0.093 0.019 0.042 0.058
Cu4 0.0347 0.0824 0.0641 0.0462 0.0076 0.0148
O1 0.061 0.118 0.094 0.063 0.027 -0.002
O2 0.047 0.103 0.067 0.056 0.013 0.015
N1 0.041 0.094 0.064 0.054 0.008 0.017
N2 0.039 0.086 0.059 0.043 0.011 0.02
N3 0.038 0.109 0.09 0.075 0.019 0.021
C1 0.045 0.079 0.063 0.034 0.013 0.007
C2 0.048 0.145 0.117 0.085 0.045 0.051
C11 0.062 0.168 0.115 0.105 0.03 0.048
C12 0.043 0.091 0.07 0.05 0.006 0.021
C13 0.055 0.078 0.049 0.026 0.008 0.028
C14 0.038 0.083 0.045 0.035 0.007 0.019
C58 0.104 0.19 0.27 0.06 0.12 -0.005
Cu1 0.0282 0.0762 0.0619 0.0408 0.0149 0.0215
Cu6 0.0413 0.059 0.0608 0.0237 0.0187 0.0185
O3 0.038 0.096 0.074 0.054 0.014 0.028
O4 0.036 0.091 0.087 0.062 0.018 0.025
O5 0.033 0.067 0.076 0.04 0.02 0.025
O6 0.043 0.08 0.087 0.054 0.04 0.037
O7 0.098 0.095 0.079 0.028 0.045 0.029
O8 0.078 0.101 0.079 0.032 0.045 0.038
O9 0.05 0.071 0.063 0.011 0.019 0.02
O10 0.04 0.072 0.071 0.027 0.025 0.019
N4 0.031 0.083 0.07 0.049 0.014 0.018
N5 0.035 0.078 0.051 0.037 0.018 0.029
N6 0.031 0.075 0.062 0.04 0.021 0.028
N7 0.058 0.118 0.067 0.009 0.032 -0.032
N8 0.05 0.052 0.065 0.021 0.022 0.01
N9 0.046 0.058 0.065 0.021 0.022 0.025
C3 0.027 0.08 0.079 0.045 0.019 0.019
C4 0.031 0.071 0.064 0.033 0.011 0.018
C5 0.024 0.081 0.077 0.043 0.008 0.014
C6 0.041 0.051 0.058 0.022 0.025 0.019
C7 0.057 0.178 0.147 0.102 -0.014 -0.038
C9 2 2 2 1.76 0.08 1.18
C15 0.047 0.167 0.09 0.087 0.018 0.035
C16 0.066 0.183 0.078 0.082 0.055 0.068
C17 0.032 0.077 0.056 0.036 0.019 0.026
C18 0.031 0.055 0.066 0.032 0.025 0.019
C19 0.025 0.066 0.052 0.028 0.008 0.024
C21 0.056 0.054 0.08 0.025 0.031 0.027
C22 0.04 0.06 0.079 0.029 0.022 0.02
C23 0.073 0.065 0.112 0.036 0.025 0.044
C24 0.135 0.112 0.113 0 -0.032 0.092
C25 0.66 0.27 0.16 -0.02 -0.05 0.37
C26 0.099 0.18 0.32 0.01 -0.05 0.08
C64 0.079 0.054 0.177 0.041 0.061 0.024
C65 0.044 0.074 0.123 0.063 0.048 0.038
C66 0.03 0.063 0.067 0.037 0.025 0.025
N12 0.055 0.071 0.061 0.012 0.008 0.033
C37 0.047 0.071 0.056 0.026 0.013 0.024
C38 0.046 0.075 0.061 0.012 0.003 0.027
C39 0.13 0.065 0.2 -0.053 -0.074 0.046
loop_
_geom_bond_atom_site_label_1
_geom_bond_atom_site_label_2
_geom_bond_site_symmetry_1
_geom_bond_site_symmetry_2
C48 C47 1_555 1_555
C49 C48 1_555 1_555
C50 C48 1_555 1_555
O20 H49 1_555 1_555
O20 H50 1_555 1_555
C49 H80 1_555 1_555
C49 H81 1_555 1_555
C49 H82 1_555 1_555
C50 H86 1_555 1_555
C50 H87 1_555 1_555
C47 H91 1_555 1_555
C47 H92 1_555 1_555
C48 H97 1_555 1_555
Cu3 O17 1_555 1_555
O16 Cu2 1_555 1_555
O17 C51 1_555 1_555
O18 Cu3 1_555 1_555
O19 C54 1_555 1_555
N15 Cu2 1_555 1_555
N16 Cu3 1_555 1_555
C46 N15 1_555 1_555
H35 C46 1_555 1_555
C51 N15 1_555 1_555
C52 O16 1_555 1_555
C53 N16 1_555 1_555
H36 C53 1_555 1_555
C54 O18 1_555 1_555
C55 C53 1_555 1_555
C56 C55 1_555 1_555
C57 C56 1_555 1_555
H48 C68 1_555 1_555
N20 Cu3 1_555 1_555
N16 C52 1_555 1_555
C51 C52 1_555 1_555
C53 C54 1_555 1_555
C55 H83 1_555 1_555
C55 H84 1_555 1_555
C56 H93 1_555 1_555
C57 H94 1_555 1_555
C57 H95 1_555 1_555
C57 H96 1_555 1_555
O14 C45 1_555 1_555
O15 C45 1_555 1_555
Cu8 O14 1_555 1_555
Cu8 O11 1_555 1_555
O11 C27 1_555 1_555
N10 Cu8 1_555 1_555
H18 C20 1_555 1_555
H19 C20 1_555 1_555
H20 C20 1_555 1_555
C29 N10 1_555 1_555
H22 C29 1_555 1_555
C30 C29 1_555 1_555
C31 C30 1_555 1_555
C32 C31 1_555 1_555
C33 C31 1_555 1_555
N19 Cu8 1_555 1_555
N10 C28 1_555 1_555
C27 C28 1_555 1_555
C29 C34 1_555 1_555
C30 H62 1_555 1_555
C30 H63 1_555 1_555
C32 H64 1_555 1_555
C32 H66 1_555 1_555
C33 H67 1_555 1_555
C33 H69 1_555 1_555
C31 H70 1_555 1_555
N20 N18 1_555 1_555
N18 H6 1_555 1_555
C10 C8 1_555 1_555
C35 H23 1_555 1_555
H24 C35 1_555 1_555
H25 C35 1_555 1_555
C36 N19 1_555 1_555
C40 H29 1_555 1_555
H30 C40 1_555 1_555
H31 C40 1_555 1_555
C42 C41 1_555 1_555
C44 C43 1_555 1_555
H33 C44 1_555 1_555
H34 C44 1_555 1_555
C59 H37 1_555 1_555
H38 C59 1_555 1_555
H39 C59 1_555 1_555
C60 N20 1_555 1_555
C61 C42 1_555 1_555
C62 N18 1_555 1_555
C63 C62 1_555 1_555
H40 C63 1_555 1_555
H41 C63 1_555 1_555
H42 C63 1_555 1_555
C35 C36 1_555 1_555
C40 C41 1_555 1_555
C42 C43 1_555 1_555
C59 C60 1_555 1_555
C60 C61 1_555 1_555
C61 C62 1_555 1_555
C10 H55 1_555 1_555
C10 H56 1_555 1_555
C8 H58 1_555 1_555
N14 N13 1_555 1_555
H5 N14 1_555 1_555
C67 N13 1_555 1_555
Cu4 O2 1_555 1_555
O1 C1 1_555 1_555
O2 C1 1_555 1_555
N1 H1 1_555 1_555
N2 Cu4 1_555 1_555
N3 Cu4 1_555 1_555
C1 C2 1_555 1_555
C2 N3 1_555 1_555
H7 C2 1_555 1_555
C11 H9 1_555 1_555
H10 C11 1_555 1_555
H11 C11 1_555 1_555
C12 N1 1_555 1_555
C13 C12 1_555 1_555
C14 N2 1_555 1_555
C70 C2 1_555 1_555
N1 N2 1_555 1_555
C11 C12 1_555 1_555
C13 C14 1_555 1_555
C58 H88 1_555 1_555
C58 H89 1_555 1_555
C58 H90 1_555 1_555
C70 H106 1_555 1_555
Cu1 O4 1_555 1_555
Cu6 O6 1_555 1_555
O4 C3 1_555 1_555
O5 Cu1 1_555 1_555
O6 C6 1_555 1_555
O7 Cu1 1_555 1_555
O8 C21 1_555 1_555
O9 Cu6 1_555 1_555
O10 Cu6 1_555 1_555
N4 Cu1 1_555 1_555
N5 Cu1 1_555 1_555
N6 N5 1_555 1_555
H2 N6 1_555 1_555
N7 H3 1_555 1_555
N8 Cu6 1_555 1_555
N9 Cu6 1_555 1_555
C4 O3 1_555 1_555
C5 N4 1_555 1_555
H8 C5 1_555 1_555
C6 O5 1_555 1_555
C7 C5 1_555 1_555
H12 C15 1_555 1_555
C16 H15 1_555 1_555
H16 C16 1_555 1_555
H17 C16 1_555 1_555
C17 N5 1_555 1_555
C18 C17 1_555 1_555
C19 N6 1_555 1_555
C21 O9 1_555 1_555
C22 N9 1_555 1_555
H21 C22 1_555 1_555
C23 C22 1_555 1_555
C24 C23 1_555 1_555
C25 C24 1_555 1_555
C26 C24 1_555 1_555
C64 H43 1_555 1_555
H44 C64 1_555 1_555
H45 C64 1_555 1_555
C66 C18 1_555 1_555
C71 C69 1_555 1_555
C72 C69 1_555 1_555
N4 C4 1_555 1_555
N7 N8 1_555 1_555
C3 C4 1_555 1_555
C5 C6 1_555 1_555
C16 C17 1_555 1_555
C18 C19 1_555 1_555
C21 C22 1_555 1_555
C64 C65 1_555 1_555
C65 C66 1_555 1_555
O7 H51 1_555 1_555
O7 H52 1_555 1_555
C7 H53 1_555 1_555
C7 H54 1_555 1_555
C9 H59 1_555 1_555
C9 H61 1_555 1_555
C25 H72 1_555 1_555
C23 H75 1_555 1_555
C23 H76 1_555 1_555
C26 H77 1_555 1_555
C26 H79 1_555 1_555
C72 H98 1_555 1_555
C72 H99 1_555 1_555
C72 H100 1_555 1_555
C69 H101 1_555 1_555
C71 H102 1_555 1_555
C71 H103 1_555 1_555
C71 H104 1_555 1_555
N12 H4 1_555 1_555
C38 N12 1_555 1_555
C39 C38 1_555 1_555
H26 C39 1_555 1_555
H27 C39 1_555 1_555
H28 C39 1_555 1_555
C37 C38 1_555 1_555

#END
