
###############################################################################
#
# This file contains modified crystal structure data generated from the
# MOF subset of the Cambridge Structural Database (CSD) v543 
# hosted by the Cambridge Crystallographic Data Centre (CCDC).
#
# This work is licensed under the Creative Commons
# Attribution-NonCommercial-ShareAlike 4.0 International License.
# To view a copy of this license, visit
# http://creativecommons.org/licenses/by-nc-sa/4.0/
# or send a letter to
# Creative Commons, PO Box 1866, Mountain View, CA 94042, USA.
#
# CIF created using the CSD Python API on 29 September 2022
# The structure has been converted into the P1 space group
# The structure has a 3D framework
# The original CSD entry PEFSIE is in the orthorhombic crystal system
# The original CSD entry PEFSIE is in a Sohncke space group
# The framework has been calculated to contain at least 10.0% void space
# The void calculation uses a probe of radius 1.32A, grid spacing 0.4
#
###############################################################################

data_PEFSIE
_chemical_formula_moiety         '(C88 H120 Cu8 N24 O24)n'
_symmetry_cell_setting           triclinic
_symmetry_space_group_name_H-M   'P 1'
_symmetry_Int_Tables_number      1
_space_group_name_Hall           'P 1'
loop_
_symmetry_equiv_pos_site_id
_symmetry_equiv_pos_as_xyz
1 x,y,z
_cell_length_a                   11.821(5)
_cell_length_b                   26.001(11)
_cell_length_c                   9.892(4)
_cell_angle_alpha                90
_cell_angle_beta                 90
_cell_angle_gamma                90
_cell_volume                     3040.38
loop_
_atom_site_label
_atom_site_type_symbol
_atom_site_fract_x
_atom_site_fract_y
_atom_site_fract_z
H19 H 0.3044 0.0194 0.4615
Cu4 Cu 0.62353(6) 0.16745(3) 0.79398(6)
C35 C 0.6604(9) 0.0135(4) 0.4380(10)
H47 H 0.7169 0.0361 0.3964
H48 H 0.5984 0.0076 0.3741
C36 C 0.6164(7) 0.0376(3) 0.5591(8)
C37 C 0.5359(6) 0.0231(2) 0.6530(7)
C38 C 0.5362(6) 0.0622(3) 0.7470(7)
C39 C 0.4628(8) 0.0678(3) 0.8713(10)
H50 H 0.4849 0.0989 0.9208
H51 H 0.4726 0.0377 0.9296
H52 H 0.3833 0.0705 0.8440
N9 N 0.6619(5) 0.0818(2) 0.6061(6)
H59 H 0.7174 0.0983 0.5658
N10 N 0.6137(5) 0.09755(18) 0.7193(6)
C1 C 0.4705(9) 0.6844(4) 0.1364(10)
H1 H 0.5290 0.6755 0.2026
H2 H 0.4892 0.6689 0.0489
H3 H 0.3972 0.6714 0.1674
C2 C 0.4643(7) 0.7454(3) 0.1206(7)
H4 H 0.4364 0.7584 0.2097
C3 C 0.5714(8) 0.7722(5) 0.0970(9)
H5 H 0.5571 0.8092 0.0875
H6 H 0.6064 0.7592 0.0140
H7 H 0.6224 0.7663 0.1735
C4 C 0.3750(6) 0.7612(3) 0.0189(6)
H8 H 0.3173 0.7331 0.0153
C5 C 0.3130(6) 0.8112(3) 0.0586(7)
C22 C 0.6528(11) 0.5141(4) 0.0623(11)
H26 H 0.7108 0.5357 0.1047
H27 H 0.6840 0.4798 0.0446
H28 H 0.5876 0.5111 0.1231
O1 O 0.2713(4) 0.8130(2) 0.1730(5)
Cu8 Cu 0.11868(6) 0.83098(3) 0.30093(7)
Cu9 Cu 0.88132(6) 0.16902(3) 0.30093(7)
C23 C 0.5295(9) 0.3156(4) 0.1364(10)
H31 H 0.4710 0.3245 0.2026
H32 H 0.5108 0.3311 0.0489
H33 H 0.6028 0.3286 0.1674
C24 C 0.5357(7) 0.2546(3) 0.1206(7)
H34 H 0.5636 0.2416 0.2097
C25 C 0.4286(8) 0.2278(5) 0.0970(9)
H35 H 0.4429 0.1908 0.0875
H36 H 0.3936 0.2408 0.0140
H37 H 0.3776 0.2337 0.1735
C26 C 0.6250(6) 0.2388(3) 0.0189(6)
H38 H 0.6827 0.2669 0.0153
C27 C 0.6870(6) 0.1888(3) 0.0586(7)
C44 C 0.3472(11) 0.4859(4) 0.0623(11)
H56 H 0.2892 0.4643 0.1047
H57 H 0.3160 0.5202 0.0446
H58 H 0.4124 0.4889 0.1231
O7 O 0.7287(4) 0.1870(2) 0.1730(5)
Cu1 Cu 0.37647(6) 0.83255(3) 0.79398(6)
Cu2 Cu 0.61868(6) 0.66902(3) 0.69907(7)
C6 C 0.4771(6) 0.7388(2) 0.8082(7)
C7 C 0.5145(6) 0.7627(2) 0.6761(6)
C8 C 0.6335(6) 0.7423(2) 0.4819(7)
H9 H 0.5685 0.7498 0.4201
C9 C 0.6861(6) 0.6914(3) 0.4358(7)
C10 C 0.7198(7) 0.7851(3) 0.4627(9)
H10 H 0.7586 0.7787 0.3745
C11 C 0.8068(9) 0.7823(4) 0.5689(11)
H11 H 0.8391 0.7476 0.5709
H12 H 0.7725 0.7900 0.6568
H13 H 0.8667 0.8073 0.5498
C12 C 0.6661(11) 0.8386(4) 0.4544(14)
H14 H 0.7255 0.8645 0.4433
H15 H 0.6239 0.8455 0.5377
H16 H 0.6145 0.8399 0.3770
C13 C 0.3396(9) 0.9865(4) 0.4380(10)
H17 H 0.2831 0.9639 0.3964
H18 H 0.4016 0.9924 0.3741
C14 C 0.3836(7) 0.9624(3) 0.5591(8)
C15 C 0.4641(6) 0.9769(2) 0.6530(7)
C16 C 0.4638(6) 0.9378(3) 0.7470(7)
C17 C 0.5372(8) 0.9322(3) 0.8713(10)
H20 H 0.5151 0.9011 0.9208
H21 H 0.5274 0.9623 0.9296
H22 H 0.6167 0.9295 0.8440
C18 C 0.4611(8) 0.5684(3) 0.6171(10)
H23 H 0.4779 0.6012 0.5728
H24 H 0.3814 0.5677 0.6443
H25 H 0.4759 0.5401 0.5541
C19 C 0.5335(6) 0.5625(2) 0.7379(7)
C20 C 0.5358(6) 0.5235(3) 0.8364(7)
C21 C 0.6153(7) 0.5385(2) 0.9296(7)
N1 N 0.5871(4) 0.73359(18) 0.6153(5)
N2 N 0.4155(5) 0.7695(2) 0.8821(5)
N3 N 0.3381(5) 0.9182(2) 0.6061(6)
H29 H 0.2826 0.9017 0.5658
N4 N 0.3863(5) 0.90245(18) 0.7193(6)
N5 N 0.6091(5) 0.59827(19) 0.7702(5)
N6 N 0.6568(5) 0.5842(2) 0.8882(6)
H30 H 0.7078 0.6023 0.9322
O2 O 0.3072(4) 0.84754(17) 0.9729(5)
O3 O 0.4745(4) 0.80597(17) 0.6416(4)
O4 O 0.5095(5) 0.69336(18) 0.8357(5)
O5 O 0.6896(4) 0.65435(17) 0.5223(4)
O6 O 0.7219(4) 0.6880(2) 0.3190(5)
Cu5 Cu 0.87647(6) 0.66745(3) 0.20602(6)
Cu6 Cu 0.12353(6) 0.33255(3) 0.20602(6)
Cu7 Cu 0.38132(6) 0.33098(3) 0.69907(7)
C28 C 0.5229(6) 0.2612(2) 0.8082(7)
C29 C 0.4855(6) 0.2373(2) 0.6761(6)
C30 C 0.3665(6) 0.2577(2) 0.4819(7)
H39 H 0.4315 0.2502 0.4201
C31 C 0.3139(6) 0.3086(3) 0.4358(7)
C32 C 0.2802(7) 0.2149(3) 0.4627(9)
H40 H 0.2414 0.2213 0.3745
C33 C 0.1932(9) 0.2177(4) 0.5689(11)
H41 H 0.1609 0.2524 0.5709
H42 H 0.2275 0.2100 0.6568
H43 H 0.1333 0.1927 0.5498
C34 C 0.3339(11) 0.1614(4) 0.4544(14)
H44 H 0.2745 0.1355 0.4433
H45 H 0.3761 0.1545 0.5377
H46 H 0.3855 0.1601 0.3770
H49 H 0.6956 0.9806 0.4615
C40 C 0.5389(8) 0.4316(3) 0.6171(10)
H53 H 0.5221 0.3988 0.5728
H54 H 0.6186 0.4323 0.6443
H55 H 0.5241 0.4599 0.5541
C41 C 0.4665(6) 0.4375(2) 0.7379(7)
C42 C 0.4642(6) 0.4765(3) 0.8364(7)
C43 C 0.3847(7) 0.4615(2) 0.9296(7)
N7 N 0.4129(4) 0.26641(18) 0.6153(5)
N8 N 0.5845(5) 0.2305(2) 0.8821(5)
N12 N 0.3909(5) 0.40173(19) 0.7702(5)
N13 N 0.3432(5) 0.4158(2) 0.8882(6)
H60 H 0.2922 0.3977 0.9322
O8 O 0.7713(4) 0.6870(2) 0.8270(5)
O9 O 0.2287(4) 0.3130(2) 0.8270(5)
O10 O 0.6928(4) 0.15246(17) 0.9729(5)
O11 O 0.5255(4) 0.19403(17) 0.6416(4)
O12 O 0.4905(5) 0.30664(18) 0.8357(5)
O13 O 0.3104(4) 0.34565(17) 0.5223(4)
O14 O 0.2781(4) 0.3120(2) 0.3190(5)
O15 O 0.2219(4) 0.8120(2) 0.6810(5)
O16 O 0.7781(4) 0.1880(2) 0.6810(5)
C28_2 C 0.0229(6) 0.2388(2) 0.1918(7)
C40_2 C 0.0389(8) 0.0684(3) 0.3829(10)
H53_2 H 0.0221 0.1012 0.4272
H54_2 H 0.1186 0.0677 0.3557
H55_2 H 0.0241 0.0401 0.4459
N8_2 N 0.0845(5) 0.2695(2) 0.1179(5)
N11 N 0.1137(5) 0.40245(18) 0.2807(6)
O10_2 O 0.1928(4) 0.34754(17) 0.0271(5)
O11_2 O 0.0255(4) 0.30597(17) 0.3584(4)
H27_2 H 0.1840 0.0202 0.9554
C23_2 C 0.0295(9) 0.1844(4) 0.8636(10)
H32_2 H 0.0108 0.1689 0.9511
H33_2 H 0.1028 0.1714 0.8326
C24_2 C 0.0357(7) 0.2454(3) 0.8794(7)
H34_2 H 0.0636 0.2584 0.7903
C26_2 C 0.1250(6) 0.2612(3) 0.9811(6)
H38_2 H 0.1827 0.2331 0.9847
C27_2 C 0.1870(6) 0.3112(3) 0.9414(7)
C7_2 C 0.0145(6) 0.7373(2) 0.3239(6)
C8_2 C 0.1335(6) 0.7577(2) 0.5181(7)
H9_2 H 0.0685 0.7502 0.5799
C9_2 C 0.1861(6) 0.8086(3) 0.5642(7)
C10_2 C 0.2198(7) 0.7149(3) 0.5373(9)
H10_2 H 0.2586 0.7213 0.6255
C11_2 C 0.3068(9) 0.7177(4) 0.4311(11)
H11_2 H 0.3391 0.7524 0.4291
H12_2 H 0.2725 0.7100 0.3432
H13_2 H 0.3667 0.6927 0.4502
C12_2 C 0.1661(11) 0.6614(4) 0.5456(14)
H14_2 H 0.2255 0.6355 0.5567
H15_2 H 0.1239 0.6545 0.4623
H16_2 H 0.1145 0.6601 0.6230
C17_2 C 0.0372(8) 0.5678(3) 0.1287(10)
H20_2 H 0.0151 0.5989 0.0792
H21_2 H 0.0274 0.5377 0.0704
H22_2 H 0.1167 0.5705 0.1560
C19_2 C 0.0335(6) 0.9375(2) 0.2621(7)
C20_2 C 0.0358(6) 0.9765(3) 0.1636(7)
C21_2 C 0.1153(7) 0.9615(2) 0.0704(7)
N1_2 N 0.0871(4) 0.76641(18) 0.3847(5)
N5_2 N 0.1091(5) 0.90173(19) 0.2298(5)
N6_2 N 0.1568(5) 0.9158(2) 0.1118(6)
H30_2 H 0.2078 0.8977 0.0678
O4_2 O 0.0095(5) 0.80664(18) 0.1643(5)
O5_2 O 0.1896(4) 0.84565(17) 0.4777(4)
C35_2 C 0.1604(9) 0.4865(4) 0.5620(10)
H47_2 H 0.2169 0.4639 0.6036
H48_2 H 0.0984 0.4924 0.6259
H49_2 H 0.1956 0.5194 0.5385
C36_2 C 0.1164(7) 0.4624(3) 0.4409(8)
C37_2 C 0.0359(6) 0.4769(2) 0.3470(7)
C38_2 C 0.0362(6) 0.4378(3) 0.2530(7)
N9_2 N 0.1619(5) 0.4182(2) 0.3939(6)
H59_2 H 0.2174 0.4017 0.4342
C29_2 C 0.9855(6) 0.2627(2) 0.3239(6)
C30_2 C 0.8665(6) 0.2423(2) 0.5181(7)
H39_2 H 0.9315 0.2498 0.5799
C31_2 C 0.8139(6) 0.1914(3) 0.5642(7)
C32_2 C 0.7802(7) 0.2851(3) 0.5373(9)
H40_2 H 0.7414 0.2787 0.6255
C33_2 C 0.6932(9) 0.2823(4) 0.4311(11)
H41_2 H 0.6609 0.2476 0.4291
H42_2 H 0.7275 0.2900 0.3432
H43_2 H 0.6333 0.3073 0.4502
C34_2 C 0.8339(11) 0.3386(4) 0.5456(14)
H44_2 H 0.7745 0.3645 0.5567
H45_2 H 0.8761 0.3455 0.4623
H46_2 H 0.8855 0.3399 0.6230
C41_2 C 0.9665(6) 0.0625(2) 0.2621(7)
C42_2 C 0.9642(6) 0.0235(3) 0.1636(7)
C43_2 C 0.8847(7) 0.0385(2) 0.0704(7)
N7_2 N 0.9129(4) 0.23359(18) 0.3847(5)
N12_2 N 0.8909(5) 0.09827(19) 0.2298(5)
N13_2 N 0.8432(5) 0.0842(2) 0.1118(6)
H60_2 H 0.7922 0.1023 0.0678
O12_2 O 0.9905(5) 0.19336(18) 0.1643(5)
O13_2 O 0.8104(4) 0.15435(17) 0.4777(4)
C6_2 C 0.9771(6) 0.7612(2) 0.1918(7)
C13_2 C 0.8396(9) 0.5135(4) 0.5620(10)
H17_2 H 0.7831 0.5361 0.6036
H18_2 H 0.9016 0.5076 0.6259
H19_2 H 0.8044 0.4806 0.5385
C14_2 C 0.8836(7) 0.5376(3) 0.4409(8)
C15_2 C 0.9641(6) 0.5231(2) 0.3470(7)
C16_2 C 0.9638(6) 0.5622(3) 0.2530(7)
C18_2 C 0.9611(8) 0.9316(3) 0.3829(10)
H23_2 H 0.9779 0.8988 0.4272
H24_2 H 0.8814 0.9323 0.3557
H25_2 H 0.9759 0.9599 0.4459
N2_2 N 0.9155(5) 0.7305(2) 0.1179(5)
N3_2 N 0.8381(5) 0.5818(2) 0.3939(6)
H29_2 H 0.7826 0.5983 0.4342
N4_2 N 0.8863(5) 0.59755(18) 0.2807(6)
O2_2 O 0.8072(4) 0.65246(17) 0.0271(5)
O3_2 O 0.9745(4) 0.69403(17) 0.3584(4)
C39_2 C 0.9628(8) 0.4322(3) 0.1287(10)
H50_2 H 0.9849 0.4011 0.0792
H51_2 H 0.9726 0.4623 0.0704
H52_2 H 0.8833 0.4295 0.1560
C1_2 C 0.9705(9) 0.8156(4) 0.8636(10)
H2_2 H 0.9892 0.8311 0.9511
H3_2 H 0.8972 0.8286 0.8326
C2_2 C 0.9643(7) 0.7546(3) 0.8794(7)
H4_2 H 0.9364 0.7416 0.7903
C4_2 C 0.8750(6) 0.7388(3) 0.9811(6)
H8_2 H 0.8173 0.7669 0.9847
C5_2 C 0.8130(6) 0.6888(3) 0.9414(7)
H57_2 H 0.8160 0.9798 0.9554
H1_2 H 0.0290 0.8245 0.7974
C3_2 C 0.0714(8) 0.7278(5) 0.9030(9)
H5_2 H 0.0571 0.6908 0.9125
H6_2 H 0.1064 0.7408 0.9860
H7_2 H 0.1224 0.7337 0.8265
C22_2 C 0.1528(11) 0.9859(4) 0.9377(11)
H26_2 H 0.2108 0.9643 0.8953
H28_2 H 0.0876 0.9889 0.8769
H31_2 H 0.9710 0.1755 0.7974
C25_2 C 0.9286(8) 0.2722(5) 0.9030(9)
H35_2 H 0.9429 0.3092 0.9125
H36_2 H 0.8936 0.2592 0.9860
H37_2 H 0.8776 0.2663 0.8265
C44_2 C 0.8472(11) 0.0141(4) 0.9377(11)
H56_2 H 0.7892 0.0357 0.8953
H58_2 H 0.9124 0.0111 0.8769
loop_
_geom_bond_atom_site_label_1
_geom_bond_atom_site_label_2
_geom_bond_site_symmetry_1
_geom_bond_site_symmetry_2
Cu4 N10 1_555 1_555
C35 H47 1_555 1_555
H48 C35 1_555 1_555
C36 C35 1_555 1_555
C38 C37 1_555 1_555
C39 C38 1_555 1_555
H50 C39 1_555 1_555
H51 C39 1_555 1_555
H52 C39 1_555 1_555
N9 C36 1_555 1_555
H59 N9 1_555 1_555
N10 C38 1_555 1_555
C36 C37 1_555 1_555
N9 N10 1_555 1_555
C1 H1 1_555 1_555
H2 C1 1_555 1_555
H3 C1 1_555 1_555
C2 C1 1_555 1_555
H4 C2 1_555 1_555
C3 C2 1_555 1_555
H5 C3 1_555 1_555
H6 C3 1_555 1_555
H7 C3 1_555 1_555
C4 C2 1_555 1_555
H8 C4 1_555 1_555
C5 C4 1_555 1_555
H26 C22 1_555 1_555
H27 C22 1_555 1_555
H28 C22 1_555 1_555
O1 C5 1_555 1_555
Cu8 O1 1_555 1_555
Cu9 O7 1_555 1_555
C23 H31 1_555 1_555
H32 C23 1_555 1_555
H33 C23 1_555 1_555
C24 C23 1_555 1_555
H34 C24 1_555 1_555
C25 C24 1_555 1_555
H35 C25 1_555 1_555
H36 C25 1_555 1_555
H37 C25 1_555 1_555
C26 C24 1_555 1_555
H38 C26 1_555 1_555
C27 C26 1_555 1_555
H56 C44 1_555 1_555
H57 C44 1_555 1_555
H58 C44 1_555 1_555
O7 C27 1_555 1_555
Cu1 N2 1_555 1_555
Cu2 N1 1_555 1_555
C6 C7 1_555 1_555
C7 N1 1_555 1_555
C8 H9 1_555 1_555
C9 C8 1_555 1_555
C10 C8 1_555 1_555
H10 C10 1_555 1_555
C11 C10 1_555 1_555
H11 C11 1_555 1_555
H12 C11 1_555 1_555
H13 C11 1_555 1_555
C12 C10 1_555 1_555
H14 C12 1_555 1_555
H15 C12 1_555 1_555
H16 C12 1_555 1_555
C13 H17 1_555 1_555
H18 C13 1_555 1_555
C14 C13 1_555 1_555
C15 C14 1_555 1_555
C16 C15 1_555 1_555
C17 C16 1_555 1_555
H20 C17 1_555 1_555
H21 C17 1_555 1_555
H22 C17 1_555 1_555
C18 H23 1_555 1_555
H24 C18 1_555 1_555
H25 C18 1_555 1_555
C19 C18 1_555 1_555
C20 C19 1_555 1_555
C21 C20 1_555 1_555
N1 C8 1_555 1_555
N3 C14 1_555 1_555
H29 N3 1_555 1_555
N4 Cu1 1_555 1_555
N5 Cu2 1_555 1_555
N6 C21 1_555 1_555
H30 N6 1_555 1_555
O2 Cu1 1_555 1_555
O3 Cu1 1_555 1_555
O4 Cu2 1_555 1_555
O5 Cu2 1_555 1_555
O6 C9 1_555 1_555
Cu4 N8 1_555 1_555
Cu5 O6 1_555 1_555
Cu6 O14 1_555 1_555
Cu7 N7 1_555 1_555
C28 C29 1_555 1_555
C29 N7 1_555 1_555
C30 H39 1_555 1_555
C31 C30 1_555 1_555
C32 C30 1_555 1_555
H40 C32 1_555 1_555
C33 C32 1_555 1_555
H41 C33 1_555 1_555
H42 C33 1_555 1_555
H43 C33 1_555 1_555
C34 C32 1_555 1_555
H44 C34 1_555 1_555
H45 C34 1_555 1_555
H46 C34 1_555 1_555
C40 H53 1_555 1_555
H54 C40 1_555 1_555
H55 C40 1_555 1_555
C41 C40 1_555 1_555
C42 C20 1_555 1_555
C43 C42 1_555 1_555
N7 C30 1_555 1_555
N12 Cu7 1_555 1_555
N13 C43 1_555 1_555
H60 N13 1_555 1_555
O8 Cu2 1_555 1_555
O9 Cu7 1_555 1_555
O10 Cu4 1_555 1_555
O11 Cu4 1_555 1_555
O12 Cu7 1_555 1_555
O13 Cu7 1_555 1_555
O14 C31 1_555 1_555
O15 Cu1 1_555 1_555
O16 Cu4 1_555 1_555
C6 N2 1_555 1_555
C6 O4 1_555 1_555
C7 O3 1_555 1_555
C9 O5 1_555 1_555
C16 N4 1_555 1_555
C19 N5 1_555 1_555
N3 N4 1_555 1_555
N5 N6 1_555 1_555
C28 N8 1_555 1_555
C28 O12 1_555 1_555
C29 O11 1_555 1_555
C31 O13 1_555 1_555
C41 C42 1_555 1_555
C41 N12 1_555 1_555
N12 N13 1_555 1_555
Cu6 N8_2 1_555 1_555
C40_2 H53_2 1_555 1_555
H54_2 C40_2 1_555 1_555
H55_2 C40_2 1_555 1_555
N11 Cu6 1_555 1_555
O10_2 Cu6 1_555 1_555
O11_2 Cu6 1_555 1_555
C28_2 N8_2 1_555 1_555
H32_2 C23_2 1_555 1_555
H33_2 C23_2 1_555 1_555
C24_2 C23_2 1_555 1_555
H34_2 C24_2 1_555 1_555
C26_2 C24_2 1_555 1_555
H38_2 C26_2 1_555 1_555
C27_2 C26_2 1_555 1_555
O9 C27_2 1_555 1_555
Cu8 N1_2 1_555 1_555
C7_2 N1_2 1_555 1_555
C8_2 H9_2 1_555 1_555
C9_2 C8_2 1_555 1_555
C10_2 C8_2 1_555 1_555
H10_2 C10_2 1_555 1_555
C11_2 C10_2 1_555 1_555
H11_2 C11_2 1_555 1_555
H12_2 C11_2 1_555 1_555
H13_2 C11_2 1_555 1_555
C12_2 C10_2 1_555 1_555
H14_2 C12_2 1_555 1_555
H15_2 C12_2 1_555 1_555
H16_2 C12_2 1_555 1_555
H20_2 C17_2 1_555 1_555
H21_2 C17_2 1_555 1_555
H22_2 C17_2 1_555 1_555
C20_2 C19_2 1_555 1_555
C21_2 C20_2 1_555 1_555
N1_2 C8_2 1_555 1_555
N5_2 Cu8 1_555 1_555
N6_2 C21_2 1_555 1_555
H30_2 N6_2 1_555 1_555
O4_2 Cu8 1_555 1_555
O5_2 Cu8 1_555 1_555
O15 C9_2 1_555 1_555
C35_2 H47_2 1_555 1_555
H48_2 C35_2 1_555 1_555
H49_2 C35_2 1_555 1_555
C36_2 C35_2 1_555 1_555
C38_2 C37_2 1_555 1_555
N9_2 C36_2 1_555 1_555
H59_2 N9_2 1_555 1_555
N11 C38_2 1_555 1_555
C9_2 O5_2 1_555 1_555
C19_2 N5_2 1_555 1_555
N5_2 N6_2 1_555 1_555
C36_2 C37_2 1_555 1_555
N9_2 N11 1_555 1_555
Cu9 N7_2 1_555 1_555
C29_2 N7_2 1_555 1_555
C30_2 H39_2 1_555 1_555
C31_2 C30_2 1_555 1_555
C32_2 C30_2 1_555 1_555
H40_2 C32_2 1_555 1_555
C33_2 C32_2 1_555 1_555
H41_2 C33_2 1_555 1_555
H42_2 C33_2 1_555 1_555
H43_2 C33_2 1_555 1_555
C34_2 C32_2 1_555 1_555
H44_2 C34_2 1_555 1_555
H45_2 C34_2 1_555 1_555
H46_2 C34_2 1_555 1_555
C43_2 C42_2 1_555 1_555
N7_2 C30_2 1_555 1_555
N12_2 Cu9 1_555 1_555
N13_2 C43_2 1_555 1_555
H60_2 N13_2 1_555 1_555
O12_2 Cu9 1_555 1_555
O13_2 Cu9 1_555 1_555
O16 C31_2 1_555 1_555
C31_2 O13_2 1_555 1_555
C41_2 C42_2 1_555 1_555
C41_2 N12_2 1_555 1_555
N12_2 N13_2 1_555 1_555
Cu5 N2_2 1_555 1_555
C13_2 H17_2 1_555 1_555
H18_2 C13_2 1_555 1_555
H19_2 C13_2 1_555 1_555
C14_2 C13_2 1_555 1_555
C15_2 C14_2 1_555 1_555
C16_2 C15_2 1_555 1_555
C18_2 H23_2 1_555 1_555
H24_2 C18_2 1_555 1_555
H25_2 C18_2 1_555 1_555
N3_2 C14_2 1_555 1_555
H29_2 N3_2 1_555 1_555
N4_2 Cu5 1_555 1_555
O2_2 Cu5 1_555 1_555
O3_2 Cu5 1_555 1_555
H50_2 C39_2 1_555 1_555
H51_2 C39_2 1_555 1_555
H52_2 C39_2 1_555 1_555
C6_2 N2_2 1_555 1_555
C16_2 N4_2 1_555 1_555
N3_2 N4_2 1_555 1_555
H2_2 C1_2 1_555 1_555
H3_2 C1_2 1_555 1_555
C2_2 C1_2 1_555 1_555
H4_2 C2_2 1_555 1_555
C4_2 C2_2 1_555 1_555
H8_2 C4_2 1_555 1_555
C5_2 C4_2 1_555 1_555
O8 C5_2 1_555 1_555
H5_2 C3_2 1_555 1_555
H6_2 C3_2 1_555 1_555
H7_2 C3_2 1_555 1_555
H26_2 C22_2 1_555 1_555
H28_2 C22_2 1_555 1_555
H35_2 C25_2 1_555 1_555
H36_2 C25_2 1_555 1_555
H37_2 C25_2 1_555 1_555
H56_2 C44_2 1_555 1_555
H58_2 C44_2 1_555 1_555

#END
