
###############################################################################
#
# This file contains modified crystal structure data generated from the
# MOF subset of the Cambridge Structural Database (CSD) v543 
# hosted by the Cambridge Crystallographic Data Centre (CCDC).
#
# This work is licensed under the Creative Commons
# Attribution-NonCommercial-ShareAlike 4.0 International License.
# To view a copy of this license, visit
# http://creativecommons.org/licenses/by-nc-sa/4.0/
# or send a letter to
# Creative Commons, PO Box 1866, Mountain View, CA 94042, USA.
#
# CIF created using the CSD Python API on 29 September 2022
# The structure has been converted into the P1 space group
# The structure has a 3D framework
# The original CSD entry PEFTAX is in the orthorhombic crystal system
# The original CSD entry PEFTAX is in a Sohncke space group
# The framework has been calculated to contain at least 10.0% void space
# The void calculation uses a probe of radius 1.32A, grid spacing 0.4
#
###############################################################################

data_PEFTAX
_chemical_formula_moiety         '(C72 H88 Cu8 N24 O24)n'
_symmetry_cell_setting           triclinic
_symmetry_space_group_name_H-M   'P 1'
_symmetry_Int_Tables_number      1
_space_group_name_Hall           'P 1'
loop_
_symmetry_equiv_pos_site_id
_symmetry_equiv_pos_as_xyz
1 x,y,z
_cell_length_a                   10.7957(6)
_cell_length_b                   26.9671(17)
_cell_length_c                   9.6972(4)
_cell_angle_alpha                90
_cell_angle_beta                 90
_cell_angle_gamma                90
_cell_volume                     2823.13
loop_
_atom_site_label
_atom_site_type_symbol
_atom_site_fract_x
_atom_site_fract_y
_atom_site_fract_z
H18 H 0.7021 0.0166 0.4737
Cu7 Cu 0.38980(4) 0.166095(14) 0.81325(4)
N11 N 0.3366(3) 0.08349(12) 0.6265(4)
H24 H 0.2798 0.1007 0.5823
N12 N 0.3926(4) 0.09877(12) 0.7448(4)
C32 C 0.3348(8) 0.0158(2) 0.4538(8)
H39 H 0.2728 0.0372 0.4101
H41 H 0.4054 0.0115 0.3913
C33 C 0.3781(4) 0.03913(16) 0.5853(6)
C34 C 0.4643(3) 0.02330(13) 0.6803(5)
C35 C 0.4722(5) 0.06151(17) 0.7778(5)
C36 C 0.5534(7) 0.0663(2) 0.9016(8)
H42 H 0.5354 0.0977 0.9486
H43 H 0.6404 0.0659 0.8728
H44 H 0.5376 0.0386 0.9646
O5 O 0.7040(3) 0.81510(12) 0.2078(3)
C6 C 0.6163(5) 0.76291(17) 0.0350(4)
H7 H 0.6826 0.7371 0.0305
C7 C 0.5148(7) 0.7450(3) 0.1314(5)
H8 H 0.4810 0.7136 0.0970
H9 H 0.4486 0.7698 0.1354
H10 H 0.5491 0.7400 0.2239
C8 C 0.6733(4) 0.81137(16) 0.0861(4)
C13 C 0.3306(8) 0.5140(2) 0.0282(8)
H14 H 0.2718 0.5360 0.0748
H15 H 0.3986 0.5059 0.0914
H16 H 0.2882 0.4835 0.0005
Cu4 Cu 0.88507(4) 0.832123(15) 0.31405(5)
Cu5 Cu 0.11493(4) 0.167877(15) 0.31405(5)
O11 O 0.2960(3) 0.18490(12) 0.2078(3)
C24 C 0.3837(5) 0.23709(17) 0.0350(4)
H29 H 0.3174 0.2629 0.0305
C25 C 0.4852(7) 0.2550(3) 0.1314(5)
H30 H 0.5190 0.2864 0.0970
H31 H 0.5514 0.2302 0.1354
H32 H 0.4509 0.2600 0.2239
C26 C 0.3267(4) 0.18863(16) 0.0861(4)
C31 C 0.6694(8) 0.4860(2) 0.0282(8)
H36 H 0.7282 0.4640 0.0748
H37 H 0.6014 0.4941 0.0914
H38 H 0.7118 0.5165 0.0005
Cu1 Cu 0.38507(4) 0.667877(15) 0.68595(5)
Cu2 Cu 0.61020(4) 0.833905(14) 0.81325(4)
O1 O 0.3171(3) 0.65469(10) 0.4982(3)
O2 O 0.4870(3) 0.69512(10) 0.8430(3)
O3 O 0.5032(3) 0.80773(10) 0.6572(3)
O4 O 0.6824(3) 0.84723(10) 0.9981(3)
O6 O 0.2833(3) 0.68957(13) 0.2946(3)
N1 N 0.4099(3) 0.73208(12) 0.6093(3)
N2 N 0.5704(3) 0.77197(12) 0.8968(3)
N3 N 0.3965(4) 0.59898(12) 0.7522(3)
N4 N 0.3416(3) 0.58391(12) 0.8668(4)
H1 H 0.2860 0.6014 0.9122
N5 N 0.6634(3) 0.91651(12) 0.6265(4)
H2 H 0.7202 0.8993 0.5823
N6 N 0.6074(4) 0.90123(12) 0.7448(4)
C1 C 0.2495(5) 0.77715(19) 0.4806(6)
H3 H 0.2763 0.8093 0.5171
H4 H 0.1858 0.7631 0.5410
H5 H 0.2155 0.7816 0.3878
C2 C 0.3590(4) 0.74232(15) 0.4745(4)
H6 H 0.4248 0.7567 0.4139
C3 C 0.3174(4) 0.69177(16) 0.4165(4)
C4 C 0.4730(3) 0.76297(13) 0.6834(4)
C5 C 0.5131(3) 0.74013(13) 0.8189(4)
C9 C 0.5476(6) 0.5678(2) 0.5861(7)
H11 H 0.5337 0.6005 0.5452
H12 H 0.5228 0.5420 0.5203
H13 H 0.6356 0.5639 0.6085
C10 C 0.4723(4) 0.56292(15) 0.7147(5)
C11 C 0.4648(3) 0.52356(14) 0.8065(5)
C12 C 0.3806(5) 0.53896(16) 0.9053(6)
C14 C 0.6652(8) 0.9842(2) 0.4538(8)
H17 H 0.7272 0.9628 0.4101
H19 H 0.5946 0.9885 0.3913
C15 C 0.6219(4) 0.96087(16) 0.5853(6)
C16 C 0.5357(3) 0.97670(13) 0.6803(5)
C17 C 0.5278(5) 0.93849(17) 0.7778(5)
C18 C 0.4466(7) 0.9337(2) 0.9016(8)
H20 H 0.4646 0.9023 0.9486
H21 H 0.3596 0.9341 0.8728
H22 H 0.4624 0.9614 0.9646
Cu3 Cu 0.61493(4) 0.332123(15) 0.68595(5)
Cu8 Cu 0.11020(4) 0.666095(14) 0.18675(4)
Cu9 Cu 0.88980(4) 0.333905(14) 0.18675(4)
O7 O 0.6829(3) 0.34531(10) 0.4982(3)
O8 O 0.5130(3) 0.30488(10) 0.8430(3)
O9 O 0.4968(3) 0.19227(10) 0.6572(3)
O10 O 0.3176(3) 0.15277(10) 0.9981(3)
O12 O 0.2040(3) 0.68490(12) 0.7922(3)
O13 O 0.7960(3) 0.31510(12) 0.7922(3)
O14 O 0.7167(3) 0.31043(13) 0.2946(3)
O15 O 0.7833(3) 0.81043(13) 0.7054(3)
O16 O 0.2167(3) 0.18957(13) 0.7054(3)
N7 N 0.5901(3) 0.26792(12) 0.6093(3)
N8 N 0.4296(3) 0.22803(12) 0.8968(3)
N9 N 0.6035(4) 0.40102(12) 0.7522(3)
N10 N 0.6584(3) 0.41609(12) 0.8668(4)
H23 H 0.7140 0.3986 0.9122
C19 C 0.7505(5) 0.22285(19) 0.4806(6)
H25 H 0.7237 0.1907 0.5171
H26 H 0.8142 0.2369 0.5410
H27 H 0.7845 0.2184 0.3878
C20 C 0.6410(4) 0.25768(15) 0.4745(4)
H28 H 0.5752 0.2433 0.4139
C21 C 0.6826(4) 0.30823(16) 0.4165(4)
C22 C 0.5270(3) 0.23703(13) 0.6834(4)
C23 C 0.4869(3) 0.25987(13) 0.8189(4)
C27 C 0.4524(6) 0.4322(2) 0.5861(7)
H33 H 0.4663 0.3995 0.5452
H34 H 0.4772 0.4580 0.5203
H35 H 0.3644 0.4361 0.6085
C28 C 0.5277(4) 0.43708(15) 0.7147(5)
C29 C 0.5352(3) 0.47644(14) 0.8065(5)
C30 C 0.6194(5) 0.46104(16) 0.9053(6)
H40 H 0.2979 0.9834 0.4737
O7_2 O 0.1829(3) 0.15469(10) 0.5018(3)
O8_2 O 0.0130(3) 0.19512(10) 0.1570(3)
N7_2 N 0.0901(3) 0.23208(12) 0.3907(3)
N9_2 N 0.1035(4) 0.09898(12) 0.2478(3)
N10_2 N 0.1584(3) 0.08391(12) 0.1332(4)
H23_2 H 0.2140 0.1014 0.0878
C19_2 C 0.2505(5) 0.27715(19) 0.5194(6)
H25_2 H 0.2237 0.3093 0.4829
H26_2 H 0.3142 0.2631 0.4590
H27_2 H 0.2845 0.2816 0.6122
C20_2 C 0.1410(4) 0.24232(15) 0.5255(4)
H28_2 H 0.0752 0.2567 0.5861
C21_2 C 0.1826(4) 0.19177(16) 0.5835(4)
C22_2 C 0.0270(3) 0.26297(13) 0.3166(4)
C28_2 C 0.0277(4) 0.06292(15) 0.2853(5)
C29_2 C 0.0352(3) 0.02356(14) 0.1935(5)
C30_2 C 0.1194(5) 0.03896(16) 0.0947(6)
O3_2 O 0.0032(3) 0.69227(10) 0.3428(3)
O4_2 O 0.1824(3) 0.65277(10) 0.0019(3)
N2_2 N 0.0704(3) 0.72803(12) 0.1032(3)
N5_2 N 0.1634(3) 0.58349(12) 0.3735(4)
H2_2 H 0.2202 0.6007 0.4177
N6_2 N 0.1074(4) 0.59877(12) 0.2552(4)
C5_2 C 0.0131(3) 0.75987(13) 0.1811(4)
C9_2 C 0.0476(6) 0.9322(2) 0.4139(7)
H11_2 H 0.0337 0.8995 0.4548
H12_2 H 0.0228 0.9580 0.4797
H13_2 H 0.1356 0.9361 0.3915
C14_2 C 0.1652(8) 0.5158(2) 0.5462(8)
H17_2 H 0.2272 0.5372 0.5899
H18_2 H 0.2021 0.4834 0.5263
H19_2 H 0.0946 0.5115 0.6087
C15_2 C 0.1219(4) 0.53913(16) 0.4147(6)
C16_2 C 0.0357(3) 0.52330(13) 0.3197(5)
C17_2 C 0.0278(5) 0.56151(17) 0.2222(5)
C36_2 C 0.0534(7) 0.4337(2) 0.0984(8)
H42_2 H 0.0354 0.4023 0.0514
H43_2 H 0.1404 0.4341 0.1272
H44_2 H 0.0376 0.4614 0.0354
C6_2 C 0.1163(5) 0.73709(17) 0.9650(4)
H7_2 H 0.1826 0.7629 0.9695
C7_2 C 0.0148(7) 0.7550(3) 0.8686(5)
H10_2 H 0.0491 0.7600 0.7761
C8_2 C 0.1733(4) 0.68863(16) 0.9139(4)
H38_2 H 0.2118 0.9835 0.9995
O9_2 O 0.9968(3) 0.30773(10) 0.3428(3)
O10_2 O 0.8176(3) 0.34723(10) 0.0019(3)
N8_2 N 0.9296(3) 0.27197(12) 0.1032(3)
N13 N 0.8926(4) 0.40123(12) 0.2552(4)
C23_2 C 0.9869(3) 0.24013(13) 0.1811(4)
C27_2 C 0.9524(6) 0.0678(2) 0.4139(7)
H33_2 H 0.9663 0.1005 0.4548
H34_2 H 0.9772 0.0420 0.4797
H35_2 H 0.8644 0.0639 0.3915
H16_2 H 0.7882 0.0165 0.9995
C24_2 C 0.8837(5) 0.26291(17) 0.9650(4)
H29_2 H 0.8174 0.2371 0.9695
C25_2 C 0.9852(7) 0.2450(3) 0.8686(5)
H32_2 H 0.9509 0.2400 0.7761
C26_2 C 0.8267(4) 0.31137(16) 0.9139(4)
O1_2 O 0.8171(3) 0.84531(10) 0.5018(3)
O2_2 O 0.9870(3) 0.80488(10) 0.1570(3)
N1_2 N 0.9099(3) 0.76792(12) 0.3907(3)
N3_2 N 0.8965(4) 0.90102(12) 0.2478(3)
N4_2 N 0.8416(3) 0.91609(12) 0.1332(4)
H1_2 H 0.7860 0.8986 0.0878
C1_2 C 0.7495(5) 0.72285(19) 0.5194(6)
H3_2 H 0.7763 0.6907 0.4829
H4_2 H 0.6858 0.7369 0.4590
H5_2 H 0.7155 0.7184 0.6122
C2_2 C 0.8590(4) 0.75768(15) 0.5255(4)
H6_2 H 0.9248 0.7433 0.5861
C3_2 C 0.8174(4) 0.80823(16) 0.5835(4)
C4_2 C 0.9730(3) 0.73703(13) 0.3166(4)
C10_2 C 0.9723(4) 0.93708(15) 0.2853(5)
C11_2 C 0.9648(3) 0.97644(14) 0.1935(5)
C12_2 C 0.8806(5) 0.96104(16) 0.0947(6)
C18_2 C 0.9466(7) 0.5663(2) 0.0984(8)
H20_2 H 0.9646 0.5977 0.0514
H21_2 H 0.8596 0.5659 0.1272
H22_2 H 0.9624 0.5386 0.0354
N11_2 N 0.8366(3) 0.41651(12) 0.3735(4)
H24_2 H 0.7798 0.3993 0.4177
C32_2 C 0.8348(8) 0.4842(2) 0.5462(8)
H39_2 H 0.7728 0.4628 0.5899
H40_2 H 0.7979 0.5166 0.5263
H41_2 H 0.9054 0.4885 0.6087
C33_2 C 0.8781(4) 0.46087(16) 0.4147(6)
C34_2 C 0.9643(3) 0.47670(13) 0.3197(5)
C35_2 C 0.9722(5) 0.43849(17) 0.2222(5)
H30_2 H 0.0190 0.2136 0.9030
H31_2 H 0.0514 0.2698 0.8646
C31_2 C 0.1694(8) 0.0140(2) 0.9718(8)
H36_2 H 0.2282 0.0360 0.9252
H37_2 H 0.1014 0.0059 0.9086
H8_2 H 0.9810 0.7864 0.9030
H9_2 H 0.9486 0.7302 0.8646
C13_2 C 0.8306(8) 0.9860(2) 0.9718(8)
H14_2 H 0.7718 0.9640 0.9252
H15_2 H 0.8986 0.9941 0.9086
loop_
_geom_bond_atom_site_label_1
_geom_bond_atom_site_label_2
_geom_bond_site_symmetry_1
_geom_bond_site_symmetry_2
Cu7 N12 1_555 1_555
N11 H24 1_555 1_555
N12 N11 1_555 1_555
C32 H39 1_555 1_555
H41 C32 1_555 1_555
C33 N11 1_555 1_555
C35 N12 1_555 1_555
C36 C35 1_555 1_555
H42 C36 1_555 1_555
H43 C36 1_555 1_555
H44 C36 1_555 1_555
C32 C33 1_555 1_555
C33 C34 1_555 1_555
C34 C35 1_555 1_555
O5 C8 1_555 1_555
H7 C6 1_555 1_555
C7 C6 1_555 1_555
H8 C7 1_555 1_555
H9 C7 1_555 1_555
H10 C7 1_555 1_555
H14 C13 1_555 1_555
H15 C13 1_555 1_555
H16 C13 1_555 1_555
Cu4 O5 1_555 1_555
Cu5 O11 1_555 1_555
O11 C26 1_555 1_555
H29 C24 1_555 1_555
C25 C24 1_555 1_555
H30 C25 1_555 1_555
H31 C25 1_555 1_555
H32 C25 1_555 1_555
H36 C31 1_555 1_555
H37 C31 1_555 1_555
H38 C31 1_555 1_555
C6 C8 1_555 1_555
C24 C26 1_555 1_555
Cu1 O1 1_555 1_555
Cu2 O3 1_555 1_555
O1 C3 1_555 1_555
O2 Cu1 1_555 1_555
O3 C4 1_555 1_555
O4 Cu2 1_555 1_555
O6 C3 1_555 1_555
N1 Cu1 1_555 1_555
N2 Cu2 1_555 1_555
N3 Cu1 1_555 1_555
N4 N3 1_555 1_555
H1 N4 1_555 1_555
N5 H2 1_555 1_555
N6 Cu2 1_555 1_555
C1 H3 1_555 1_555
H4 C1 1_555 1_555
H5 C1 1_555 1_555
C2 N1 1_555 1_555
H6 C2 1_555 1_555
C3 C2 1_555 1_555
C4 N1 1_555 1_555
C5 O2 1_555 1_555
C9 H11 1_555 1_555
H12 C9 1_555 1_555
H13 C9 1_555 1_555
C10 N3 1_555 1_555
C11 C10 1_555 1_555
C12 N4 1_555 1_555
C14 H17 1_555 1_555
H19 C14 1_555 1_555
C15 N5 1_555 1_555
C16 C15 1_555 1_555
C17 N6 1_555 1_555
C18 C17 1_555 1_555
H20 C18 1_555 1_555
H21 C18 1_555 1_555
H22 C18 1_555 1_555
Cu3 O7 1_555 1_555
Cu7 O9 1_555 1_555
Cu8 O6 1_555 1_555
Cu9 O14 1_555 1_555
O7 C21 1_555 1_555
O8 Cu3 1_555 1_555
O9 C22 1_555 1_555
O10 Cu7 1_555 1_555
O12 Cu1 1_555 1_555
O13 Cu3 1_555 1_555
O14 C21 1_555 1_555
O15 Cu2 1_555 1_555
O16 Cu7 1_555 1_555
N7 Cu3 1_555 1_555
N8 Cu7 1_555 1_555
N9 Cu3 1_555 1_555
N10 N9 1_555 1_555
H23 N10 1_555 1_555
C19 H25 1_555 1_555
H26 C19 1_555 1_555
H27 C19 1_555 1_555
C20 N7 1_555 1_555
H28 C20 1_555 1_555
C21 C20 1_555 1_555
C22 N7 1_555 1_555
C23 O8 1_555 1_555
C27 H33 1_555 1_555
H34 C27 1_555 1_555
H35 C27 1_555 1_555
C28 N9 1_555 1_555
C29 C11 1_555 1_555
C30 N10 1_555 1_555
N2 C5 1_555 1_555
N5 N6 1_555 1_555
C1 C2 1_555 1_555
C4 C5 1_555 1_555
C9 C10 1_555 1_555
C11 C12 1_555 1_555
C14 C15 1_555 1_555
C16 C17 1_555 1_555
N8 C23 1_555 1_555
C19 C20 1_555 1_555
C22 C23 1_555 1_555
C27 C28 1_555 1_555
C28 C29 1_555 1_555
C29 C30 1_555 1_555
Cu5 O7_2 1_555 1_555
O7_2 C21_2 1_555 1_555
O8_2 Cu5 1_555 1_555
O16 C21_2 1_555 1_555
N7_2 Cu5 1_555 1_555
N9_2 Cu5 1_555 1_555
N10_2 N9_2 1_555 1_555
H23_2 N10_2 1_555 1_555
C19_2 H25_2 1_555 1_555
H26_2 C19_2 1_555 1_555
H27_2 C19_2 1_555 1_555
C20_2 N7_2 1_555 1_555
H28_2 C20_2 1_555 1_555
C21_2 C20_2 1_555 1_555
C22_2 N7_2 1_555 1_555
C28_2 N9_2 1_555 1_555
C30_2 N10_2 1_555 1_555
C19_2 C20_2 1_555 1_555
C28_2 C29_2 1_555 1_555
C29_2 C30_2 1_555 1_555
Cu8 O3_2 1_555 1_555
O4_2 Cu8 1_555 1_555
N2_2 Cu8 1_555 1_555
N5_2 H2_2 1_555 1_555
N6_2 Cu8 1_555 1_555
C9_2 H11_2 1_555 1_555
H12_2 C9_2 1_555 1_555
H13_2 C9_2 1_555 1_555
C14_2 H17_2 1_555 1_555
H18_2 C14_2 1_555 1_555
H19_2 C14_2 1_555 1_555
C15_2 N5_2 1_555 1_555
C16_2 C15_2 1_555 1_555
C17_2 N6_2 1_555 1_555
H42_2 C36_2 1_555 1_555
H43_2 C36_2 1_555 1_555
H44_2 C36_2 1_555 1_555
N2_2 C5_2 1_555 1_555
N5_2 N6_2 1_555 1_555
C14_2 C15_2 1_555 1_555
C16_2 C17_2 1_555 1_555
O12 C8_2 1_555 1_555
H7_2 C6_2 1_555 1_555
C7_2 C6_2 1_555 1_555
H10_2 C7_2 1_555 1_555
C6_2 C8_2 1_555 1_555
Cu9 O9_2 1_555 1_555
O10_2 Cu9 1_555 1_555
N8_2 Cu9 1_555 1_555
N13 Cu9 1_555 1_555
C27_2 H33_2 1_555 1_555
H34_2 C27_2 1_555 1_555
H35_2 C27_2 1_555 1_555
N8_2 C23_2 1_555 1_555
O13 C26_2 1_555 1_555
H29_2 C24_2 1_555 1_555
C25_2 C24_2 1_555 1_555
H32_2 C25_2 1_555 1_555
C24_2 C26_2 1_555 1_555
Cu4 O1_2 1_555 1_555
O1_2 C3_2 1_555 1_555
O2_2 Cu4 1_555 1_555
O15 C3_2 1_555 1_555
N1_2 Cu4 1_555 1_555
N3_2 Cu4 1_555 1_555
N4_2 N3_2 1_555 1_555
H1_2 N4_2 1_555 1_555
C1_2 H3_2 1_555 1_555
H4_2 C1_2 1_555 1_555
H5_2 C1_2 1_555 1_555
C2_2 N1_2 1_555 1_555
H6_2 C2_2 1_555 1_555
C3_2 C2_2 1_555 1_555
C4_2 N1_2 1_555 1_555
C10_2 N3_2 1_555 1_555
C11_2 C10_2 1_555 1_555
C12_2 N4_2 1_555 1_555
H20_2 C18_2 1_555 1_555
H21_2 C18_2 1_555 1_555
H22_2 C18_2 1_555 1_555
N11_2 H24_2 1_555 1_555
N13 N11_2 1_555 1_555
C32_2 H39_2 1_555 1_555
H40_2 C32_2 1_555 1_555
H41_2 C32_2 1_555 1_555
C33_2 N11_2 1_555 1_555
C35_2 N13 1_555 1_555
C1_2 C2_2 1_555 1_555
C11_2 C12_2 1_555 1_555
C32_2 C33_2 1_555 1_555
C33_2 C34_2 1_555 1_555
C34_2 C35_2 1_555 1_555
H36_2 C31_2 1_555 1_555
H37_2 C31_2 1_555 1_555
H14_2 C13_2 1_555 1_555
H15_2 C13_2 1_555 1_555

#END
