
###############################################################################
#
# This file contains modified crystal structure data generated from the
# MOF subset of the Cambridge Structural Database (CSD) v543 
# hosted by the Cambridge Crystallographic Data Centre (CCDC).
#
# This work is licensed under the Creative Commons
# Attribution-NonCommercial-ShareAlike 4.0 International License.
# To view a copy of this license, visit
# http://creativecommons.org/licenses/by-nc-sa/4.0/
# or send a letter to
# Creative Commons, PO Box 1866, Mountain View, CA 94042, USA.
#
# CIF created using the CSD Python API on 29 September 2022
# The structure has been converted into the P1 space group
# The structure has a 3D framework
# The original CSD entry PEGBAG is in the monoclinic crystal system
# The framework has been calculated to contain at least 10.0% void space
# The void calculation uses a probe of radius 1.32A, grid spacing 0.4
#
###############################################################################

data_PEGBAG
_chemical_formula_moiety         '(C56 H64 N46 Zn8)n'
_symmetry_cell_setting           triclinic
_symmetry_space_group_name_H-M   'P 1'
_symmetry_Int_Tables_number      1
_space_group_name_Hall           'P 1'
loop_
_symmetry_equiv_pos_site_id
_symmetry_equiv_pos_as_xyz
1 x,y,z
_cell_length_a                   10.5783(14)
_cell_length_b                   12.3288(17)
_cell_length_c                   17.236(2)
_cell_angle_alpha                90
_cell_angle_beta                 93.714(2)
_cell_angle_gamma                90
_cell_volume                     2243.16
loop_
_atom_site_label
_atom_site_type_symbol
_atom_site_fract_x
_atom_site_fract_y
_atom_site_fract_z
N7 N 0.0590(2) 0.69429(18) 0.04684(12)
Zn3 Zn 0.21699(3) 0.75956(2) 0.093250(16)
N2 N 0.0644(2) 0.87721(18) 0.54675(13)
N3 N 0.0519(2) 0.79294(19) 0.49312(12)
N8 N 0.0683(2) 0.64041(18) 0.97639(12)
Zn4 Zn 0.20552(3) 0.74400(2) 0.445620(17)
Zn1 Zn 0.71699(3) 0.74044(2) 0.593250(16)
Zn2 Zn 0.70552(3) 0.75600(2) 0.945620(17)
N1 N 0.8744(2) 0.80168(18) 0.55279(12)
N4 N 0.7403(2) 0.59116(17) 0.54892(12)
N5 N 0.8517(2) 0.46811(18) 0.48664(12)
N6 N 0.7776(2) 0.41604(17) 0.53925(12)
N9 N 0.8687(2) 0.69199(18) 0.98749(12)
N10 N 0.7345(2) 0.71884(18) 0.83529(12)
N11 N 0.8365(2) 0.65435(19) 0.73608(12)
N12 N 0.7395(2) 0.72329(19) 0.70797(12)
C1 C 0.5756(3) 0.8397(2) 0.76442(16)
H1 H 0.5564 0.8613 0.7102
H2 H 0.5005 0.8063 0.7848
H3 H 0.5999 0.9039 0.7955
C2 C 0.6822(3) 0.7601(2) 0.76861(15)
C3 C 0.8302(2) 0.6550(2) 0.81194(14)
C4 C 0.9178(3) 0.5892(2) 0.86618(15)
H4 H 0.9965 0.5742 0.8399
H5 H 0.8769 0.5187 0.8757
C5 C 0.9528(2) 0.6419(2) 0.94320(14)
C8 C 0.9294(3) 0.9562(3) 0.6438(2)
H10 H 0.9373 0.9189 0.6941
H11 H 0.8430 0.9841 0.6347
C9 C 0.9569(3) 0.8790(2) 0.58114(16)
C10 C 0.9375(3) 0.75039(19) 0.49836(16)
C11 C 0.8837(3) 0.6599(2) 0.44870(14)
H12 H 0.9518 0.6287 0.4188
H13 H 0.8180 0.6895 0.4110
C12 C 0.8266(2) 0.5716(2) 0.49477(14)
C13 C 0.7130(2) 0.4912(2) 0.57456(15)
C14 C 0.6190(3) 0.4683(2) 0.63357(19)
H14 H 0.6111 0.3898 0.6403
H15 H 0.5365 0.4986 0.6158
H16 H 0.6477 0.5016 0.6833
Zn5 Zn 0.79448(3) 0.25600(2) 0.554380(17)
N13 N 0.5519(2) 0.70706(19) 0.99312(12)
N14 N 0.7224(2) 0.91604(17) 0.96075(12)
N15 N 0.5590(2) 0.80571(18) 0.54684(12)
N3_2 N 0.4481(2) 0.29294(19) 0.00688(12)
C10_2 C 0.5625(3) 0.25039(19) 0.00164(16)
C11_2 C 0.6163(3) 0.1599(2) 0.05130(14)
H12_2 H 0.5482 0.1287 0.0812
H13_2 H 0.6820 0.1895 0.0890
C12_2 C 0.6734(2) 0.0716(2) 0.00523(14)
Zn4_2 Zn 0.29448(3) 0.24400(2) 0.054380(17)
Zn1_2 Zn 0.78301(3) 0.24044(2) 0.906750(16)
N1_2 N 0.6256(2) 0.30168(18) 0.94721(12)
N2_2 N 0.4356(2) 0.37721(18) 0.95325(13)
N4_2 N 0.7597(2) 0.09116(17) 0.95108(12)
N7_2 N 0.4410(2) 0.19429(18) 0.45316(12)
N8_2 N 0.4317(2) 0.14041(18) 0.52361(12)
N9_2 N 0.6313(2) 0.19199(18) 0.51251(12)
N10_2 N 0.7655(2) 0.21884(18) 0.66471(12)
N11_2 N 0.6635(2) 0.15435(19) 0.76392(12)
N12_2 N 0.7605(2) 0.22329(19) 0.79203(12)
C1_2 C 0.9244(3) 0.3397(2) 0.73558(16)
H1_2 H 0.9436 0.3613 0.7898
H2_2 H 0.9995 0.3063 0.7152
H3_2 H 0.9001 0.4039 0.7045
C2_2 C 0.8178(3) 0.2601(2) 0.73139(15)
C3_2 C 0.6698(2) 0.1550(2) 0.68806(14)
C4_2 C 0.5822(3) 0.0892(2) 0.63382(15)
H4_2 H 0.5035 0.0742 0.6601
H5_2 H 0.6231 0.0187 0.6243
C5_2 C 0.5472(2) 0.1419(2) 0.55680(14)
C6 C 0.5611(3) 0.2239(2) 0.44888(15)
C7 C 0.6135(3) 0.2843(3) 0.38342(17)
H6 H 0.5440 0.3073 0.3468
H7 H 0.6597 0.3482 0.4037
H8 H 0.6712 0.2371 0.3567
C8_2 C 0.5706(3) 0.4562(3) 0.8562(2)
H9 H 0.5104 0.5166 0.8559
H10_2 H 0.5627 0.4189 0.8059
H11_2 H 0.6570 0.4841 0.8653
C9_2 C 0.5431(3) 0.3790(2) 0.91886(16)
H16_2 H 0.8523 0.0016 0.8167
Zn3_2 Zn 0.28301(3) 0.25956(2) 0.406750(16)
N13_2 N 0.9481(2) 0.20706(19) 0.50688(12)
N15_2 N 0.9410(2) 0.30571(18) 0.95316(12)
C13_2 C 0.7870(2) 0.9912(2) 0.92544(15)
C14_2 C 0.8810(3) 0.9683(2) 0.86643(19)
H14_2 H 0.8889 0.8898 0.8597
H15_2 H 0.9635 0.9986 0.8842
N1_3 N 0.1256(2) 0.19832(18) 0.44721(12)
N4_3 N 0.2597(2) 0.40884(17) 0.45108(12)
N5_2 N 0.1483(2) 0.53189(18) 0.51336(12)
N6_2 N 0.2224(2) 0.58396(17) 0.46075(12)
N9_3 N 0.1313(2) 0.30801(18) 0.01251(12)
N10_3 N 0.2655(2) 0.28116(18) 0.16471(12)
N11_3 N 0.1635(2) 0.34565(19) 0.26392(12)
N12_3 N 0.2605(2) 0.27671(19) 0.29203(12)
C1_3 C 0.4244(3) 0.1603(2) 0.23558(16)
H1_3 H 0.4436 0.1387 0.2898
H2_3 H 0.4995 0.1937 0.2152
H3_3 H 0.4001 0.0961 0.2045
C2_3 C 0.3178(3) 0.2399(2) 0.23139(15)
C3_3 C 0.1698(2) 0.3450(2) 0.18806(14)
C4_3 C 0.0822(3) 0.4108(2) 0.13382(15)
H4_3 H 0.0035 0.4258 0.1601
H5_3 H 0.1231 0.4813 0.1243
C5_3 C 0.0472(2) 0.3581(2) 0.05680(14)
C8_3 C 0.0706(3) 0.0438(3) 0.3562(2)
H10_3 H 0.0627 0.0811 0.3059
H11_3 H 0.1570 0.0159 0.3653
C9_3 C 0.0431(3) 0.1210(2) 0.41886(16)
C10_3 C 0.0625(3) 0.24961(19) 0.50164(16)
C11_3 C 0.1163(3) 0.3401(2) 0.55130(14)
H12_3 H 0.0482 0.3713 0.5812
H13_3 H 0.1820 0.3105 0.5890
C12_3 C 0.1734(2) 0.4284(2) 0.50523(14)
C13_3 C 0.2870(2) 0.5088(2) 0.42544(15)
C14_3 C 0.3810(3) 0.5317(2) 0.36643(19)
H14_3 H 0.3889 0.6102 0.3597
H15_3 H 0.4635 0.5014 0.3842
H16_3 H 0.3523 0.4984 0.3167
N14_2 N 0.2776(2) 0.08396(17) 0.03925(12)
N2_3 N 0.9356(2) 0.12279(18) 0.45325(13)
N8_3 N 0.9317(2) 0.35959(18) 0.02361(12)
C13_4 C 0.2130(2) 0.0088(2) 0.07456(15)
C14_4 C 0.1190(3) 0.0317(2) 0.13357(19)
H14_4 H 0.1111 0.1102 0.1403
H15_4 H 0.0365 0.0014 0.1158
N1_4 N 0.3744(2) 0.69832(18) 0.05279(12)
N2_4 N 0.5644(2) 0.62279(18) 0.04675(13)
N4_4 N 0.2403(2) 0.90884(17) 0.04892(12)
N8_4 N 0.5683(2) 0.85959(18) 0.47639(12)
N9_4 N 0.3687(2) 0.80801(18) 0.48749(12)
N10_4 N 0.2345(2) 0.78116(18) 0.33529(12)
N11_4 N 0.3365(2) 0.84565(19) 0.23608(12)
N12_4 N 0.2395(2) 0.77671(19) 0.20797(12)
C1_4 C 0.0756(3) 0.6603(2) 0.26442(16)
H1_4 H 0.0564 0.6387 0.2102
H2_4 H 0.0005 0.6937 0.2848
H3_4 H 0.0999 0.5961 0.2955
C2_4 C 0.1822(3) 0.7399(2) 0.26861(15)
C3_4 C 0.3302(2) 0.8450(2) 0.31194(14)
C4_4 C 0.4178(3) 0.9108(2) 0.36618(15)
H4_4 H 0.4965 0.9258 0.3399
H5_4 H 0.3769 0.9813 0.3757
C5_4 C 0.4528(2) 0.8581(2) 0.44320(14)
C6_2 C 0.4389(3) 0.7761(2) 0.55112(15)
C7_2 C 0.3865(3) 0.7157(3) 0.61658(17)
H6_2 H 0.4560 0.6927 0.6532
H7_2 H 0.3403 0.6518 0.5963
H8_2 H 0.3288 0.7629 0.6433
C8_4 C 0.4294(3) 0.5438(3) 0.1438(2)
H9_2 H 0.4896 0.4834 0.1441
H10_4 H 0.4373 0.5811 0.1941
H11_4 H 0.3430 0.5159 0.1347
C9_4 C 0.4569(3) 0.6210(2) 0.08114(16)
H16_4 H 0.1477 0.9984 0.1833
C10_4 C 0.4375(3) 0.74961(19) 0.99836(16)
C11_4 C 0.3837(3) 0.8401(2) 0.94870(14)
H12_4 H 0.4518 0.8713 0.9188
H13_4 H 0.3180 0.8105 0.9110
C12_4 C 0.3266(2) 0.9284(2) 0.99477(14)
H9_3 H 0.9896 0.0166 0.6441
C6_3 C 0.9389(3) 0.7239(2) 0.05112(15)
C7_3 C 0.8865(3) 0.7843(3) 0.11658(17)
H6_3 H 0.9560 0.8073 0.1532
H7_3 H 0.8403 0.8482 0.0963
H8_3 H 0.8288 0.7371 0.1433
N5_3 N 0.6483(2) 0.96811(18) 0.01336(12)
C6_4 C 0.0611(3) 0.2761(2) 0.94888(15)
C7_4 C 0.1135(3) 0.2157(3) 0.88342(17)
H6_4 H 0.0440 0.1927 0.8468
H7_4 H 0.1597 0.1518 0.9037
H8_4 H 0.1712 0.2629 0.8567
H9_4 H 0.0104 0.9834 0.3559
N5_4 N 0.3517(2) 0.03189(18) 0.98664(12)
loop_
_geom_bond_atom_site_label_1
_geom_bond_atom_site_label_2
_geom_bond_site_symmetry_1
_geom_bond_site_symmetry_2
Zn3 N7 1_555 1_555
N2 N3 1_555 1_555
Zn4 N3 1_555 1_555
Zn1 N1 1_555 1_555
Zn2 N9 1_555 1_555
N1 C9 1_555 1_555
N4 Zn1 1_555 1_555
N5 N6 1_555 1_555
N6 C13 1_555 1_555
N9 C5 1_555 1_555
N10 Zn2 1_555 1_555
N11 N12 1_555 1_555
N12 Zn1 1_555 1_555
C1 H1 1_555 1_555
H2 C1 1_555 1_555
H3 C1 1_555 1_555
C2 N10 1_555 1_555
C3 N10 1_555 1_555
C4 C3 1_555 1_555
H4 C4 1_555 1_555
H5 C4 1_555 1_555
C5 C4 1_555 1_555
H10 C8 1_555 1_555
H11 C8 1_555 1_555
C10 N1 1_555 1_555
C11 C10 1_555 1_555
H12 C11 1_555 1_555
H13 C11 1_555 1_555
C12 N4 1_555 1_555
C13 N4 1_555 1_555
C14 C13 1_555 1_555
H14 C14 1_555 1_555
H15 C14 1_555 1_555
H16 C14 1_555 1_555
Zn5 N6 1_555 1_555
N13 Zn2 1_555 1_555
N14 Zn2 1_555 1_555
N15 Zn1 1_555 1_555
N5 C12 1_555 1_555
N11 C3 1_555 1_555
N12 C2 1_555 1_555
C1 C2 1_555 1_555
C8 C9 1_555 1_555
C11 C12 1_555 1_555
N3_2 C10_2 1_555 1_555
C11_2 C10_2 1_555 1_555
H12_2 C11_2 1_555 1_555
H13_2 C11_2 1_555 1_555
Zn4_2 N3_2 1_555 1_555
C11_2 C12_2 1_555 1_555
Zn1_2 N1_2 1_555 1_555
Zn5 N9_2 1_555 1_555
N1_2 C9_2 1_555 1_555
N4_2 Zn1_2 1_555 1_555
N7_2 N8_2 1_555 1_555
N8_2 C5_2 1_555 1_555
N9_2 C5_2 1_555 1_555
N10_2 Zn5 1_555 1_555
N11_2 N12_2 1_555 1_555
N12_2 Zn1_2 1_555 1_555
C1_2 H1_2 1_555 1_555
H2_2 C1_2 1_555 1_555
H3_2 C1_2 1_555 1_555
C2_2 N10_2 1_555 1_555
C3_2 N10_2 1_555 1_555
C4_2 C3_2 1_555 1_555
H4_2 C4_2 1_555 1_555
H5_2 C4_2 1_555 1_555
C5_2 C4_2 1_555 1_555
C6 N7_2 1_555 1_555
C7 C6 1_555 1_555
H6 C7 1_555 1_555
H7 C7 1_555 1_555
H8 C7 1_555 1_555
C8_2 H9 1_555 1_555
H10_2 C8_2 1_555 1_555
H11_2 C8_2 1_555 1_555
C9_2 N2_2 1_555 1_555
Zn3_2 N7_2 1_555 1_555
N13_2 Zn5 1_555 1_555
N15_2 Zn1_2 1_555 1_555
N9_2 C6 1_555 1_555
N11_2 C3_2 1_555 1_555
N12_2 C2_2 1_555 1_555
C1_2 C2_2 1_555 1_555
C8_2 C9_2 1_555 1_555
N14 C13_2 1_555 1_555
C14_2 C13_2 1_555 1_555
H14_2 C14_2 1_555 1_555
H15_2 C14_2 1_555 1_555
Zn3_2 N1_3 1_555 1_555
Zn4_2 N9_3 1_555 1_555
N1_3 C9_3 1_555 1_555
N4_3 Zn3_2 1_555 1_555
N5_2 N6_2 1_555 1_555
N6_2 C13_3 1_555 1_555
N9_3 C5_3 1_555 1_555
N10_3 Zn4_2 1_555 1_555
N11_3 N12_3 1_555 1_555
N12_3 Zn3_2 1_555 1_555
C1_3 H1_3 1_555 1_555
H2_3 C1_3 1_555 1_555
H3_3 C1_3 1_555 1_555
C2_3 N10_3 1_555 1_555
C3_3 N10_3 1_555 1_555
C4_3 C3_3 1_555 1_555
H4_3 C4_3 1_555 1_555
H5_3 C4_3 1_555 1_555
C5_3 C4_3 1_555 1_555
H10_3 C8_3 1_555 1_555
H11_3 C8_3 1_555 1_555
C10_3 N1_3 1_555 1_555
C11_3 C10_3 1_555 1_555
H12_3 C11_3 1_555 1_555
H13_3 C11_3 1_555 1_555
C12_3 N4_3 1_555 1_555
C13_3 N4_3 1_555 1_555
C14_3 C13_3 1_555 1_555
H14_3 C14_3 1_555 1_555
H15_3 C14_3 1_555 1_555
H16_3 C14_3 1_555 1_555
Zn4 N6_2 1_555 1_555
N14_2 Zn4_2 1_555 1_555
N5_2 C12_3 1_555 1_555
N11_3 C3_3 1_555 1_555
N12_3 C2_3 1_555 1_555
C1_3 C2_3 1_555 1_555
C8_3 C9_3 1_555 1_555
C11_3 C12_3 1_555 1_555
N2_3 N13_2 1_555 1_555
N14_2 C13_4 1_555 1_555
C14_4 C13_4 1_555 1_555
H14_4 C14_4 1_555 1_555
H15_4 C14_4 1_555 1_555
Zn3 N1_4 1_555 1_555
Zn4 N9_4 1_555 1_555
N1_4 C9_4 1_555 1_555
N4_4 Zn3 1_555 1_555
N15 N8_4 1_555 1_555
N8_4 C5_4 1_555 1_555
N9_4 C5_4 1_555 1_555
N10_4 Zn4 1_555 1_555
N11_4 N12_4 1_555 1_555
N12_4 Zn3 1_555 1_555
C1_4 H1_4 1_555 1_555
H2_4 C1_4 1_555 1_555
H3_4 C1_4 1_555 1_555
C2_4 N10_4 1_555 1_555
C3_4 N10_4 1_555 1_555
C4_4 C3_4 1_555 1_555
H4_4 C4_4 1_555 1_555
H5_4 C4_4 1_555 1_555
C5_4 C4_4 1_555 1_555
C6_2 N15 1_555 1_555
C7_2 C6_2 1_555 1_555
H6_2 C7_2 1_555 1_555
H7_2 C7_2 1_555 1_555
H8_2 C7_2 1_555 1_555
C8_4 H9_2 1_555 1_555
H10_4 C8_4 1_555 1_555
H11_4 C8_4 1_555 1_555
C9_4 N2_4 1_555 1_555
N9_4 C6_2 1_555 1_555
N11_4 C3_4 1_555 1_555
N12_4 C2_4 1_555 1_555
C1_4 C2_4 1_555 1_555
C8_4 C9_4 1_555 1_555
N13 C10_4 1_555 1_555
C11_4 C10_4 1_555 1_555
H12_4 C11_4 1_555 1_555
H13_4 C11_4 1_555 1_555
C11_4 C12_4 1_555 1_555
C7_3 C6_3 1_555 1_555
H6_3 C7_3 1_555 1_555
H7_3 C7_3 1_555 1_555
H8_3 C7_3 1_555 1_555
C7_4 C6_4 1_555 1_555
H6_4 C7_4 1_555 1_555
H7_4 C7_4 1_555 1_555
H8_4 C7_4 1_555 1_555

#END
