
###############################################################################
#
# This file contains modified crystal structure data generated from the
# MOF subset of the Cambridge Structural Database (CSD) v543 
# hosted by the Cambridge Crystallographic Data Centre (CCDC).
#
# This work is licensed under the Creative Commons
# Attribution-NonCommercial-ShareAlike 4.0 International License.
# To view a copy of this license, visit
# http://creativecommons.org/licenses/by-nc-sa/4.0/
# or send a letter to
# Creative Commons, PO Box 1866, Mountain View, CA 94042, USA.
#
# CIF created using the CSD Python API on 29 September 2022
# The structure has been converted into the P1 space group
# The structure has a 3D framework
# The original CSD entry PEGBEL is in the monoclinic crystal system
# The framework has been calculated to contain at least 10.0% void space
# The void calculation uses a probe of radius 1.32A, grid spacing 0.4
#
###############################################################################

data_PEGBEL
_chemical_formula_moiety         '(C432 H336 N32 O72 S8 Zn16)n'
_symmetry_cell_setting           triclinic
_symmetry_space_group_name_H-M   'P 1'
_symmetry_Int_Tables_number      1
_space_group_name_Hall           'P 1'
loop_
_symmetry_equiv_pos_site_id
_symmetry_equiv_pos_as_xyz
1 x,y,z
_cell_length_a                   25.042(5)
_cell_length_b                   24.275(5)
_cell_length_c                   26.689(5)
_cell_angle_alpha                90
_cell_angle_beta                 94.740(5)
_cell_angle_gamma                90
_cell_volume                     16168.6
loop_
_atom_site_label
_atom_site_type_symbol
_atom_site_fract_x
_atom_site_fract_y
_atom_site_fract_z
C76 C 0.05425(16) 0.30790(17) 0.00285(15)
C77 C 0.01959(19) 0.28504(19) 0.03669(17)
H60 H 0.0015 0.2523 0.0289
C78 C 0.01299(18) 0.31173(18) 0.08133(16)
C79 C 0.04040(17) 0.36097(17) 0.09268(14)
C80 C 0.07506(17) 0.38158(18) 0.06119(16)
H62 H 0.0941 0.4135 0.0701
C81 C 0.08275(17) 0.35587(18) 0.01546(16)
C82 C 0.0790(2) 0.36734(18) 0.19291(16)
C83 C 0.0737(2) 0.3141(2) 0.2095(2)
H64 H 0.0438 0.2934 0.1986
C84 C 0.1131(3) 0.2921(2) 0.2423(2)
H65 H 0.1110 0.2553 0.2516
C85 C 0.15568(19) 0.3237(2) 0.26159(18)
C86 C 0.1597(2) 0.3758(2) 0.2459(2)
H66 H 0.1875 0.3979 0.2596
C87 C 0.1227(2) 0.3969(2) 0.2094(2)
H67 H 0.1280 0.4317 0.1961
C88 C 0.18338(17) 0.28148(16) 0.34283(15)
C89 C 0.2700(2) 0.2820(2) 0.34075(18)
H68 H 0.3065 0.2772 0.3492
C90 C 0.2467(2) 0.3043(2) 0.2980(2)
H69 H 0.2650 0.3186 0.2720
C91 C 0.13029(18) 0.2743(2) 0.36179(19)
H70 H 0.1058 0.3011 0.3456
H71 H 0.1331 0.2819 0.3976
C92 C 0.1059(2) 0.2146(2) 0.3525(2)
H72 H 0.0715 0.2126 0.3658
H73 H 0.1295 0.1878 0.3689
H74 H 0.1019 0.2072 0.3170
N7 N 0.19257(15) 0.30257(18) 0.29866(13)
N8 N 0.22713(14) 0.26729(13) 0.37044(12)
O19 O 0.04252(13) 0.45304(11) 0.14206(10)
Zn3 Zn 0.240057(14) 0.250221(16) 0.443615(14)
S2 S 0.02956(5) 0.39515(5) 0.14900(4)
O22 O 0.19035(10) 0.30818(10) 0.47193(10)
O23 O 0.29602(10) 0.18927(10) 0.44463(10)
O25 O 0.18551(10) 0.19312(10) 0.45941(10)
O26 O 0.30054(10) 0.30567(10) 0.45733(10)
C23 C 0.31860(13) 0.17369(14) 0.48643(15)
C24 C 0.36076(13) 0.12982(14) 0.48455(14)
C25 C 0.37089(14) 0.10349(14) 0.44034(13)
H23 H 0.3510 0.1128 0.4106
C26 C 0.40990(14) 0.06392(15) 0.43983(14)
H24 H 0.4160 0.0466 0.4097
C27 C 0.44069(14) 0.04915(14) 0.48381(14)
C28 C 0.43008(15) 0.07510(16) 0.52785(14)
H25 H 0.4500 0.0660 0.5577
C29 C 0.39052(15) 0.11424(15) 0.52832(14)
H26 H 0.3836 0.1306 0.5586
C30 C 0.48356(13) 0.00883(14) 0.48082(13)
C31 C 0.32377(15) 0.32306(15) 0.49830(16)
C32 C 0.36458(15) 0.36693(15) 0.49384(15)
C33 C 0.39773(17) 0.38131(18) 0.53520(16)
H28 H 0.3946 0.3634 0.5656
C34 C 0.43542(19) 0.4217(2) 0.53218(18)
H29 H 0.4575 0.4307 0.5607
C35 C 0.44155(17) 0.44953(19) 0.48776(16)
C36 C 0.40793(17) 0.43513(17) 0.44622(17)
H30 H 0.4111 0.4534 0.4160
C37 C 0.36907(15) 0.39356(16) 0.44839(16)
H31 H 0.3469 0.3841 0.4200
C38 C 0.48096(15) 0.49327(18) 0.48186(16)
H32 H 0.4795 0.5125 0.4517
O1 O 0.30965(10) 0.19182(10) 0.52807(10)
O3 O 0.31449(10) 0.30688(10) 0.54059(10)
H47 H 0.5117 0.0058 0.5507
C63 C 0.67623(15) 0.67694(15) 0.50170(16)
C64 C 0.63542(15) 0.63307(15) 0.50616(15)
C65 C 0.60227(17) 0.61869(18) 0.46480(16)
H48 H 0.6054 0.6366 0.4344
C66 C 0.56458(19) 0.5783(2) 0.46782(18)
H49 H 0.5425 0.5693 0.4393
C67 C 0.55845(17) 0.55047(19) 0.51224(16)
C68 C 0.59207(17) 0.56487(17) 0.55378(17)
H50 H 0.5889 0.5466 0.5840
C69 C 0.63093(15) 0.60644(16) 0.55161(16)
H51 H 0.6531 0.6159 0.5800
C70 C 0.51904(15) 0.50673(18) 0.51814(16)
H52 H 0.5205 0.4875 0.5483
O13 O 0.68551(10) 0.69312(10) 0.45941(10)
O14 O 0.69946(10) 0.69433(10) 0.54267(10)
Zn6 Zn 0.740057(14) 0.750221(16) 0.443615(14)
Zn8 Zn 0.759943(14) 0.749779(16) 0.556385(14)
Zn9 Zn 0.259943(14) 0.249779(16) 0.556385(14)
H27 H 0.4883 0.9942 0.4493
C55 C 0.68140(13) 0.82631(14) 0.51357(15)
C56 C 0.63924(13) 0.87018(14) 0.51545(14)
C57 C 0.62911(14) 0.89651(14) 0.55966(13)
H43 H 0.6490 0.8872 0.5894
C58 C 0.59010(14) 0.93608(15) 0.56017(14)
H44 H 0.5840 0.9534 0.5903
C59 C 0.55931(14) 0.95085(14) 0.51619(14)
C60 C 0.56992(15) 0.92490(16) 0.47215(14)
H45 H 0.5500 0.9340 0.4423
C61 C 0.60948(15) 0.88576(15) 0.47168(14)
H46 H 0.6164 0.8694 0.4414
C62 C 0.51644(13) 0.99117(14) 0.51918(13)
O11 O 0.69035(10) 0.80818(10) 0.47193(10)
O12 O 0.70398(10) 0.81073(10) 0.55537(10)
C76_2 C 0.55425(16) 0.80790(17) 0.00285(15)
C77_2 C 0.51959(19) 0.78504(19) 0.03669(17)
H60_2 H 0.5015 0.7523 0.0289
C78_2 C 0.51299(18) 0.81173(18) 0.08133(16)
H61 H 0.4904 0.7971 0.1038
C79_2 C 0.54040(17) 0.86097(17) 0.09268(14)
C80_2 C 0.57506(17) 0.88158(18) 0.06119(16)
H62_2 H 0.5941 0.9135 0.0701
C81_2 C 0.58275(17) 0.85587(18) 0.01546(16)
C82_2 C 0.5790(2) 0.86734(18) 0.19291(16)
C83_2 C 0.5737(2) 0.8141(2) 0.2095(2)
H64_2 H 0.5438 0.7934 0.1986
C84_2 C 0.6131(3) 0.7921(2) 0.2423(2)
H65_2 H 0.6110 0.7553 0.2516
C85_2 C 0.65568(19) 0.8237(2) 0.26159(18)
C86_2 C 0.6597(2) 0.8758(2) 0.2459(2)
H66_2 H 0.6875 0.8979 0.2596
C87_2 C 0.6227(2) 0.8969(2) 0.2094(2)
H67_2 H 0.6280 0.9317 0.1961
C88_2 C 0.68338(17) 0.78148(16) 0.34283(15)
C89_2 C 0.7700(2) 0.7820(2) 0.34075(18)
H68_2 H 0.8065 0.7772 0.3492
C90_2 C 0.7467(2) 0.8043(2) 0.2980(2)
H69_2 H 0.7650 0.8186 0.2720
C91_2 C 0.63029(18) 0.7743(2) 0.36179(19)
H70_2 H 0.6058 0.8011 0.3456
H71_2 H 0.6331 0.7819 0.3976
C92_2 C 0.6059(2) 0.7146(2) 0.3525(2)
H72_2 H 0.5715 0.7126 0.3658
H73_2 H 0.6295 0.6878 0.3689
H74_2 H 0.6019 0.7072 0.3170
N7_2 N 0.69257(15) 0.80257(18) 0.29866(13)
N8_2 N 0.72713(14) 0.76729(13) 0.37044(12)
O19_2 O 0.54252(13) 0.95304(11) 0.14206(10)
O20 O 0.47748(12) 0.87848(14) 0.16392(11)
S2_2 S 0.52956(5) 0.89515(5) 0.14900(4)
O23_2 O 0.79602(10) 0.68927(10) 0.44463(10)
O26_2 O 0.80054(10) 0.80567(10) 0.45733(10)
C63_2 C 0.17623(15) 0.17694(15) 0.50170(16)
C64_2 C 0.13542(15) 0.13307(15) 0.50616(15)
C65_2 C 0.10227(17) 0.11869(18) 0.46480(16)
H48_2 H 0.1054 0.1366 0.4344
C66_2 C 0.06458(19) 0.0783(2) 0.46782(18)
H49_2 H 0.0425 0.0693 0.4393
C67_2 C 0.05845(17) 0.05047(19) 0.51224(16)
C68_2 C 0.09207(17) 0.06487(17) 0.55378(17)
H50_2 H 0.0889 0.0466 0.5840
C69_2 C 0.13093(15) 0.10644(16) 0.55161(16)
H51_2 H 0.1531 0.1159 0.5800
C70_2 C 0.01904(15) 0.00673(18) 0.51814(16)
O14_2 O 0.19946(10) 0.19433(10) 0.54267(10)
C55_2 C 0.18140(13) 0.32631(14) 0.51357(15)
C56_2 C 0.13924(13) 0.37018(14) 0.51545(14)
C57_2 C 0.12911(14) 0.39651(14) 0.55966(13)
H43_2 H 0.1490 0.3872 0.5894
C58_2 C 0.09010(14) 0.43608(15) 0.56017(14)
H44_2 H 0.0840 0.4534 0.5903
C59_2 C 0.05931(14) 0.45085(14) 0.51619(14)
C60_2 C 0.06992(15) 0.42490(16) 0.47215(14)
H45_2 H 0.0500 0.4340 0.4423
C61_2 C 0.10948(15) 0.38576(15) 0.47168(14)
H46_2 H 0.1164 0.3694 0.4414
C62_2 C 0.01644(13) 0.49117(14) 0.51918(13)
H47_2 H 0.0117 0.5058 0.5507
O12_2 O 0.20398(10) 0.31073(10) 0.55537(10)
H52_2 H 0.0205 0.9875 0.5483
H32_2 H 0.9795 0.0125 0.4517
C23_2 C 0.81860(13) 0.67369(14) 0.48643(15)
C24_2 C 0.86076(13) 0.62982(14) 0.48455(14)
C25_2 C 0.87089(14) 0.60349(14) 0.44034(13)
H23_2 H 0.8510 0.6128 0.4106
C26_2 C 0.90990(14) 0.56392(15) 0.43983(14)
H24_2 H 0.9160 0.5466 0.4097
C27_2 C 0.94069(14) 0.54915(14) 0.48381(14)
C28_2 C 0.93008(15) 0.57510(16) 0.52785(14)
H25_2 H 0.9500 0.5660 0.5577
C29_2 C 0.89052(15) 0.61424(15) 0.52832(14)
H26_2 H 0.8836 0.6306 0.5586
C30_2 C 0.98356(13) 0.50883(14) 0.48082(13)
H27_2 H 0.9883 0.4942 0.4493
C31_2 C 0.82377(15) 0.82306(15) 0.49830(16)
C32_2 C 0.86458(15) 0.86693(15) 0.49384(15)
C33_2 C 0.89773(17) 0.88131(18) 0.53520(16)
H28_2 H 0.8946 0.8634 0.5656
C34_2 C 0.93542(19) 0.9217(2) 0.53218(18)
H29_2 H 0.9575 0.9307 0.5607
C35_2 C 0.94155(17) 0.94953(19) 0.48776(16)
C36_2 C 0.90793(17) 0.93513(17) 0.44622(17)
H30_2 H 0.9111 0.9534 0.4160
C37_2 C 0.86907(15) 0.89356(16) 0.44839(16)
H31_2 H 0.8469 0.8841 0.4200
C38_2 C 0.98096(15) 0.99327(18) 0.48186(16)
O1_2 O 0.80965(10) 0.69182(10) 0.52807(10)
O3_2 O 0.81449(10) 0.80688(10) 0.54059(10)
C76_3 C 0.94575(16) 0.69210(17) 0.99715(15)
C77_3 C 0.98041(19) 0.71496(19) 0.96331(17)
H60_3 H 0.9985 0.7477 0.9711
C78_3 C 0.98701(18) 0.68827(18) 0.91867(16)
C79_3 C 0.95960(17) 0.63903(17) 0.90732(14)
C80_3 C 0.92494(17) 0.61842(18) 0.93881(16)
H62_3 H 0.9059 0.5865 0.9299
C81_3 C 0.91725(17) 0.64413(18) 0.98454(16)
C82_3 C 0.9210(2) 0.63266(18) 0.80709(16)
C83_3 C 0.9263(2) 0.6859(2) 0.7905(2)
H64_3 H 0.9562 0.7066 0.8014
C84_3 C 0.8869(3) 0.7079(2) 0.7577(2)
H65_3 H 0.8890 0.7447 0.7484
C85_3 C 0.84432(19) 0.6763(2) 0.73841(18)
C86_3 C 0.8403(2) 0.6242(2) 0.7541(2)
H66_3 H 0.8125 0.6021 0.7404
C87_3 C 0.8773(2) 0.6031(2) 0.7906(2)
H67_3 H 0.8720 0.5683 0.8039
C88_3 C 0.81662(17) 0.71852(16) 0.65717(15)
C89_3 C 0.7300(2) 0.7180(2) 0.65925(18)
H68_3 H 0.6935 0.7228 0.6508
C90_3 C 0.7533(2) 0.6957(2) 0.7020(2)
H69_3 H 0.7350 0.6814 0.7280
C91_3 C 0.86971(18) 0.7257(2) 0.63821(19)
H70_3 H 0.8942 0.6989 0.6544
H71_3 H 0.8669 0.7181 0.6024
C92_3 C 0.8941(2) 0.7854(2) 0.6475(2)
H72_3 H 0.9285 0.7874 0.6342
H73_3 H 0.8705 0.8122 0.6311
H74_3 H 0.8981 0.7928 0.6830
N7_3 N 0.80743(15) 0.69743(18) 0.70134(13)
N8_3 N 0.77287(14) 0.73271(13) 0.62956(12)
O19_3 O 0.95748(13) 0.54696(11) 0.85794(10)
S2_3 S 0.97044(5) 0.60485(5) 0.85100(4)
C76_4 C 0.44575(16) 0.19210(17) 0.99715(15)
C77_4 C 0.48041(19) 0.21496(19) 0.96331(17)
H60_4 H 0.4985 0.2477 0.9711
C78_4 C 0.48701(18) 0.18827(18) 0.91867(16)
H61_2 H 0.5096 0.2029 0.8962
C79_4 C 0.45960(17) 0.13903(17) 0.90732(14)
C80_4 C 0.42494(17) 0.11842(18) 0.93881(16)
H62_4 H 0.4059 0.0865 0.9299
C81_4 C 0.41725(17) 0.14413(18) 0.98454(16)
C82_4 C 0.4210(2) 0.13266(18) 0.80709(16)
C83_4 C 0.4263(2) 0.1859(2) 0.7905(2)
H64_4 H 0.4562 0.2066 0.8014
C84_4 C 0.3869(3) 0.2079(2) 0.7577(2)
H65_4 H 0.3890 0.2447 0.7484
C85_4 C 0.34432(19) 0.1763(2) 0.73841(18)
C86_4 C 0.3403(2) 0.1242(2) 0.7541(2)
H66_4 H 0.3125 0.1021 0.7404
C87_4 C 0.3773(2) 0.1031(2) 0.7906(2)
H67_4 H 0.3720 0.0683 0.8039
C88_4 C 0.31662(17) 0.21852(16) 0.65717(15)
C89_4 C 0.2300(2) 0.2180(2) 0.65925(18)
H68_4 H 0.1935 0.2228 0.6508
C90_4 C 0.2533(2) 0.1957(2) 0.7020(2)
H69_4 H 0.2350 0.1814 0.7280
C91_4 C 0.36971(18) 0.2257(2) 0.63821(19)
H70_4 H 0.3942 0.1989 0.6544
H71_4 H 0.3669 0.2181 0.6024
C92_4 C 0.3941(2) 0.2854(2) 0.6475(2)
H72_4 H 0.4285 0.2874 0.6342
H73_4 H 0.3705 0.3122 0.6311
H74_4 H 0.3981 0.2928 0.6830
N7_4 N 0.30743(15) 0.19743(18) 0.70134(13)
N8_4 N 0.27287(14) 0.23271(13) 0.62956(12)
O19_4 O 0.45748(13) 0.04696(11) 0.85794(10)
O20_2 O 0.52252(12) 0.12152(14) 0.83608(11)
S2_4 S 0.47044(5) 0.10485(5) 0.85100(4)
C4 C 0.03506(15) 0.29310(16) 0.58022(14)
H3 H 0.0464 0.3136 0.6105
H4 H 0.0379 0.3175 0.5518
C5 C 0.07370(17) 0.24442(19) 0.57554(18)
H5 H 0.1096 0.2581 0.5746
H6 H 0.0636 0.2244 0.5452
H7 H 0.0720 0.2204 0.6039
H9 H 0.0096 0.2971 0.3962
O10 O 0.02252(12) 0.37848(14) 0.33608(11)
C71 C 0.02078(15) 0.27766(16) 0.91785(15)
C72 C 0.10642(17) 0.2650(2) 0.93924(18)
H53 H 0.1398 0.2649 0.9573
C73 C 0.09532(16) 0.24755(18) 0.89156(15)
H54 H 0.1200 0.2326 0.8711
H63 H 0.1064 0.3705 0.9939
C93 C 0.07102(13) 0.32560(14) 0.73954(13)
C94 C 0.11354(14) 0.36862(14) 0.73707(15)
C95 C 0.15170(15) 0.37511(16) 0.77735(15)
H75 H 0.1511 0.3528 0.8056
C96 C 0.19100(16) 0.41546(16) 0.77509(16)
H76 H 0.2172 0.4192 0.8016
C97 C 0.19153(15) 0.45010(15) 0.73371(15)
C98 C 0.15306(14) 0.44258(15) 0.69352(14)
H77 H 0.1534 0.4648 0.6652
C99 C 0.11485(15) 0.40263(15) 0.69562(14)
H78 H 0.0892 0.3982 0.6686
C100 C 0.23105(15) 0.49390(15) 0.73170(16)
H79 H 0.2313 0.5127 0.7014
C101 C 0.26665(16) 0.50999(16) 0.76808(16)
H80 H 0.2661 0.4921 0.7989
C102 C 0.30724(15) 0.55380(16) 0.76444(16)
C103 C 0.33867(15) 0.56922(17) 0.80845(15)
H81 H 0.3338 0.5519 0.8388
C104 C 0.37666(14) 0.61013(15) 0.80638(14)
H82 H 0.3972 0.6201 0.8356
C105 C 0.38491(14) 0.63639(14) 0.76244(14)
C106 C 0.35394(16) 0.62033(16) 0.71902(15)
H83 H 0.3596 0.6372 0.6886
C107 C 0.31518(15) 0.58013(16) 0.71994(15)
H84 H 0.2945 0.5708 0.6906
C108 C 0.42859(13) 0.67843(14) 0.75985(16)
N5 N 0.04085(11) 0.25551(11) 0.87779(11)
N6 N 0.05901(12) 0.28302(14) 0.95605(12)
O15 O 0.06923(9) 0.30101(10) 0.78016(10)
O16 O 0.03982(9) 0.31745(9) 0.70047(9)
O17 O 0.44338(9) 0.68789(10) 0.71612(10)
O18 O 0.44711(9) 0.69946(9) 0.79959(9)
Zn4 Zn 0.010837(14) 0.251377(16) 0.806150(14)
O27 O 0.05662(9) 0.18789(10) 0.78388(10)
O29 O 0.05289(9) 0.19946(9) 0.70041(9)
Zn11 Zn 0.489163(14) 0.751377(16) 0.693850(14)
Zn13 Zn 0.510837(14) 0.751377(16) 0.806150(14)
C1 C 0.97922(15) 0.27766(16) 0.58215(15)
C2 C 0.89358(17) 0.2650(2) 0.56076(18)
H1 H 0.8602 0.2649 0.5427
C3 C 0.90468(16) 0.24755(18) 0.60844(15)
H2 H 0.8800 0.2326 0.6289
C6 C 0.94575(16) 0.30790(17) 0.49715(15)
C7 C 0.98041(19) 0.28504(19) 0.46331(17)
H8 H 0.9985 0.2523 0.4711
C8 C 0.98701(18) 0.31173(18) 0.41867(16)
C9 C 0.95960(17) 0.36097(17) 0.40732(14)
C10 C 0.92494(17) 0.38158(18) 0.43881(16)
H10 H 0.9059 0.4135 0.4299
C11 C 0.91725(17) 0.35587(18) 0.48454(16)
H11 H 0.8936 0.3705 0.5061
C12 C 0.9210(2) 0.36734(18) 0.30709(16)
C13 C 0.9263(2) 0.3141(2) 0.2905(2)
H12 H 0.9562 0.2934 0.3014
C14 C 0.8869(3) 0.2921(2) 0.2577(2)
H13 H 0.8890 0.2553 0.2484
C15 C 0.84432(19) 0.3237(2) 0.23841(18)
C16 C 0.8403(2) 0.3758(2) 0.2541(2)
H14 H 0.8125 0.3979 0.2404
C17 C 0.8773(2) 0.3969(2) 0.2906(2)
H15 H 0.8720 0.4317 0.3039
C18 C 0.81662(17) 0.28148(16) 0.15717(15)
C19 C 0.7300(2) 0.2820(2) 0.15925(18)
H16 H 0.6935 0.2772 0.1508
C20 C 0.7533(2) 0.3043(2) 0.2020(2)
H17 H 0.7350 0.3186 0.2280
C21 C 0.86971(18) 0.2743(2) 0.13821(19)
H18 H 0.8942 0.3011 0.1544
H19 H 0.8669 0.2819 0.1024
C22 C 0.8941(2) 0.2146(2) 0.1475(2)
H20 H 0.9285 0.2126 0.1342
H21 H 0.8705 0.1878 0.1311
H22 H 0.8981 0.2072 0.1830
C23_3 C 0.68140(13) 0.17369(14) 0.01357(15)
C24_3 C 0.63924(13) 0.12982(14) 0.01545(14)
C25_3 C 0.62911(14) 0.10349(14) 0.05966(13)
H23_3 H 0.6490 0.1128 0.0894
C26_3 C 0.59010(14) 0.06392(15) 0.06017(14)
H24_3 H 0.5840 0.0466 0.0903
C27_3 C 0.55931(14) 0.04915(14) 0.01619(14)
C30_3 C 0.51644(13) 0.00883(14) 0.01918(13)
C31_3 C 0.67623(15) 0.32306(15) 0.00170(16)
C32_3 C 0.63542(15) 0.36693(15) 0.00616(15)
C35_3 C 0.55845(17) 0.44953(19) 0.01224(16)
C36_3 C 0.59207(17) 0.43513(17) 0.05378(17)
H30_3 H 0.5889 0.4534 0.0840
C37_3 C 0.63093(15) 0.39356(16) 0.05161(16)
H31_3 H 0.6531 0.3841 0.0800
C38_3 C 0.51904(15) 0.49327(18) 0.01814(16)
H32_3 H 0.5205 0.5125 0.0483
C39 C 0.92898(13) 0.32560(14) 0.76046(13)
C40 C 0.88646(14) 0.36862(14) 0.76293(15)
C41 C 0.84830(15) 0.37511(16) 0.72265(15)
H33 H 0.8489 0.3528 0.6944
C42 C 0.80900(16) 0.41546(16) 0.72491(16)
H34 H 0.7828 0.4192 0.6984
C43 C 0.80847(15) 0.45010(15) 0.76629(15)
C44 C 0.84694(14) 0.44258(15) 0.80648(14)
H35 H 0.8466 0.4648 0.8348
C45 C 0.88515(15) 0.40263(15) 0.80438(14)
H36 H 0.9108 0.3982 0.8314
C46 C 0.76895(15) 0.49390(15) 0.76830(16)
H37 H 0.7687 0.5127 0.7986
C47 C 0.73335(16) 0.50999(16) 0.73192(16)
H38 H 0.7339 0.4921 0.7011
C48 C 0.69276(15) 0.55380(16) 0.73556(16)
C49 C 0.66133(15) 0.56922(17) 0.69155(15)
H39 H 0.6662 0.5519 0.6612
C50 C 0.62334(14) 0.61013(15) 0.69362(14)
H40 H 0.6028 0.6201 0.6644
C51 C 0.61509(14) 0.63639(14) 0.73756(14)
C52 C 0.64606(16) 0.62033(16) 0.78098(15)
H41 H 0.6404 0.6372 0.8114
C53 C 0.68482(15) 0.58013(16) 0.78006(15)
H42 H 0.7055 0.5708 0.8094
C54 C 0.57141(13) 0.67843(14) 0.74015(16)
N1 N 0.95915(11) 0.25551(11) 0.62221(11)
N2 N 0.94099(12) 0.28302(14) 0.54395(12)
N3 N 0.80743(15) 0.30257(18) 0.20134(13)
N4 N 0.77287(14) 0.26729(13) 0.12956(12)
O2 O 0.70398(10) 0.18927(10) 0.05537(10)
O4 O 0.69946(10) 0.30567(10) 0.04267(10)
O5 O 0.93077(9) 0.30101(10) 0.71984(10)
O6 O 0.96018(9) 0.31745(9) 0.79953(9)
O7 O 0.55662(9) 0.68789(10) 0.78388(10)
O8 O 0.55289(9) 0.69946(9) 0.70041(9)
O9 O 0.95748(13) 0.45304(11) 0.35794(10)
Zn1 Zn 0.759943(14) 0.250221(16) 0.056385(14)
Zn2 Zn 0.989163(14) 0.251377(16) 0.693850(14)
S1 S 0.97044(5) 0.39515(5) 0.35100(4)
C65_3 C 0.39773(17) 0.61869(18) 0.03520(16)
H48_3 H 0.3946 0.6366 0.0656
C66_3 C 0.43542(19) 0.5783(2) 0.03218(18)
H49_3 H 0.4575 0.5693 0.0607
O13_2 O 0.31449(10) 0.69312(10) 0.04059(10)
C74 C 0.96494(15) 0.29310(16) 0.91978(14)
H55 H 0.9536 0.3136 0.8895
H56 H 0.9621 0.3175 0.9482
C75 C 0.92630(17) 0.24442(19) 0.92446(18)
H57 H 0.8904 0.2581 0.9254
H58 H 0.9364 0.2244 0.9548
H59 H 0.9280 0.2204 0.8961
O21 O 0.80965(10) 0.30818(10) 0.02807(10)
O24 O 0.81449(10) 0.19312(10) 0.04059(10)
O28 O 0.94338(9) 0.18789(10) 0.71612(10)
O30 O 0.94711(9) 0.19946(9) 0.79959(9)
Zn6_2 Zn 0.259943(14) 0.750221(16) 0.056385(14)
H27_3 H 0.5117 0.9942 0.0507
C60_3 C 0.43008(15) 0.92490(16) 0.02785(14)
H45_3 H 0.4500 0.9340 0.0577
C61_3 C 0.39052(15) 0.88576(15) 0.02832(14)
H46_3 H 0.3836 0.8694 0.0586
O11_2 O 0.30965(10) 0.80818(10) 0.02807(10)
H32_4 H 0.0205 0.0125 0.0483
H37_2 H 0.2687 0.0127 0.7986
C47_2 C 0.23335(16) 0.00999(16) 0.73192(16)
C48_2 C 0.19276(15) 0.05380(16) 0.73556(16)
C49_2 C 0.16133(15) 0.06922(17) 0.69155(15)
H39_2 H 0.1662 0.0519 0.6612
C50_2 C 0.12334(14) 0.11013(15) 0.69362(14)
H40_2 H 0.1028 0.1201 0.6644
C51_2 C 0.11509(14) 0.13639(14) 0.73756(14)
C52_2 C 0.14606(16) 0.12033(16) 0.78098(15)
H41_2 H 0.1404 0.1372 0.8114
C53_2 C 0.18482(15) 0.08013(16) 0.78006(15)
H42_2 H 0.2055 0.0708 0.8094
C54_2 C 0.07141(13) 0.17843(14) 0.74015(16)
H79_2 H 0.7313 0.0127 0.7014
C101_2 C 0.76665(16) 0.00999(16) 0.76808(16)
C102_2 C 0.80724(15) 0.05380(16) 0.76444(16)
C103_2 C 0.83867(15) 0.06922(17) 0.80845(15)
H81_2 H 0.8338 0.0519 0.8388
C104_2 C 0.87666(14) 0.11013(15) 0.80638(14)
H82_2 H 0.8972 0.1201 0.8356
C105_2 C 0.88491(14) 0.13639(14) 0.76244(14)
C106_2 C 0.85394(16) 0.12033(16) 0.71902(15)
H83_2 H 0.8596 0.1372 0.6886
C107_2 C 0.81518(15) 0.08013(16) 0.71994(15)
H84_2 H 0.7945 0.0708 0.6906
C108_2 C 0.92859(13) 0.17843(14) 0.75985(16)
C1_2 C 0.47922(15) 0.77766(16) 0.58215(15)
C2_2 C 0.39358(17) 0.7650(2) 0.56076(18)
H1_2 H 0.3602 0.7649 0.5427
C3_2 C 0.40468(16) 0.74755(18) 0.60844(15)
H2_2 H 0.3800 0.7326 0.6289
C4_2 C 0.53506(15) 0.79310(16) 0.58022(14)
H3_2 H 0.5464 0.8136 0.6105
H4_2 H 0.5379 0.8175 0.5518
C5_2 C 0.57370(17) 0.74442(19) 0.57554(18)
H5_2 H 0.6096 0.7581 0.5746
H6_2 H 0.5636 0.7244 0.5452
H7_2 H 0.5720 0.7204 0.6039
C6_2 C 0.44575(16) 0.80790(17) 0.49715(15)
C7_2 C 0.48041(19) 0.78504(19) 0.46331(17)
H8_2 H 0.4985 0.7523 0.4711
C8_2 C 0.48701(18) 0.81173(18) 0.41867(16)
H9_2 H 0.5096 0.7971 0.3962
C9_2 C 0.45960(17) 0.86097(17) 0.40732(14)
C10_2 C 0.42494(17) 0.88158(18) 0.43881(16)
H10_2 H 0.4059 0.9135 0.4299
C11_2 C 0.41725(17) 0.85587(18) 0.48454(16)
H11_2 H 0.3936 0.8705 0.5061
C12_2 C 0.4210(2) 0.86734(18) 0.30709(16)
C13_2 C 0.4263(2) 0.8141(2) 0.2905(2)
H12_2 H 0.4562 0.7934 0.3014
C14_2 C 0.3869(3) 0.7921(2) 0.2577(2)
H13_2 H 0.3890 0.7553 0.2484
C15_2 C 0.34432(19) 0.8237(2) 0.23841(18)
C16_2 C 0.3403(2) 0.8758(2) 0.2541(2)
H14_2 H 0.3125 0.8979 0.2404
C17_2 C 0.3773(2) 0.8969(2) 0.2906(2)
H15_2 H 0.3720 0.9317 0.3039
C18_2 C 0.31662(17) 0.78148(16) 0.15717(15)
C19_2 C 0.2300(2) 0.7820(2) 0.15925(18)
H16_2 H 0.1935 0.7772 0.1508
C20_2 C 0.2533(2) 0.8043(2) 0.2020(2)
H17_2 H 0.2350 0.8186 0.2280
C21_2 C 0.36971(18) 0.7743(2) 0.13821(19)
H18_2 H 0.3942 0.8011 0.1544
H19_2 H 0.3669 0.7819 0.1024
C22_2 C 0.3941(2) 0.7146(2) 0.1475(2)
H20_2 H 0.4285 0.7126 0.1342
H21_2 H 0.3705 0.6878 0.1311
H22_2 H 0.3981 0.7072 0.1830
C23_4 C 0.18140(13) 0.67369(14) 0.01357(15)
C24_4 C 0.13924(13) 0.62982(14) 0.01545(14)
C25_4 C 0.12911(14) 0.60349(14) 0.05966(13)
H23_4 H 0.1490 0.6128 0.0894
C26_4 C 0.09010(14) 0.56392(15) 0.06017(14)
H24_4 H 0.0840 0.5466 0.0903
C27_4 C 0.05931(14) 0.54915(14) 0.01619(14)
C30_4 C 0.01644(13) 0.50883(14) 0.01918(13)
H27_4 H 0.0117 0.4942 0.0507
C31_4 C 0.17623(15) 0.82306(15) 0.00170(16)
C32_4 C 0.13542(15) 0.86693(15) 0.00616(15)
C35_4 C 0.05845(17) 0.94953(19) 0.01224(16)
C36_4 C 0.09207(17) 0.93513(17) 0.05378(17)
H30_4 H 0.0889 0.9534 0.0840
C37_4 C 0.13093(15) 0.89356(16) 0.05161(16)
H31_4 H 0.1531 0.8841 0.0800
C38_4 C 0.01904(15) 0.99327(18) 0.01814(16)
C39_2 C 0.42898(13) 0.82560(14) 0.76046(13)
C40_2 C 0.38646(14) 0.86862(14) 0.76293(15)
C41_2 C 0.34830(15) 0.87511(16) 0.72265(15)
H33_2 H 0.3489 0.8528 0.6944
C42_2 C 0.30900(16) 0.91546(16) 0.72491(16)
H34_2 H 0.2828 0.9192 0.6984
C43_2 C 0.30847(15) 0.95010(15) 0.76629(15)
C44_2 C 0.34694(14) 0.94258(15) 0.80648(14)
H35_2 H 0.3466 0.9648 0.8348
C45_2 C 0.38515(15) 0.90263(15) 0.80438(14)
H36_2 H 0.4108 0.8982 0.8314
C46_2 C 0.26895(15) 0.99390(15) 0.76830(16)
H38_2 H 0.2339 0.9921 0.7011
N1_2 N 0.45915(11) 0.75551(11) 0.62221(11)
N2_2 N 0.44099(12) 0.78302(14) 0.54395(12)
N3_2 N 0.30743(15) 0.80257(18) 0.20134(13)
N4_2 N 0.27287(14) 0.76729(13) 0.12956(12)
O2_2 O 0.20398(10) 0.68927(10) 0.05537(10)
O4_2 O 0.19946(10) 0.80567(10) 0.04267(10)
O5_2 O 0.43077(9) 0.80101(10) 0.71984(10)
O6_2 O 0.46018(9) 0.81745(9) 0.79953(9)
O9_2 O 0.45748(13) 0.95304(11) 0.35794(10)
O10_2 O 0.52252(12) 0.87848(14) 0.33608(11)
S1_2 S 0.47044(5) 0.89515(5) 0.35100(4)
C71_2 C 0.52078(15) 0.77766(16) 0.91785(15)
C72_2 C 0.60642(17) 0.7650(2) 0.93924(18)
H53_2 H 0.6398 0.7649 0.9573
C73_2 C 0.59532(16) 0.74755(18) 0.89156(15)
H54_2 H 0.6200 0.7326 0.8711
C74_2 C 0.46494(15) 0.79310(16) 0.91978(14)
H55_2 H 0.4536 0.8136 0.8895
H56_2 H 0.4621 0.8175 0.9482
C75_2 C 0.42630(17) 0.74442(19) 0.92446(18)
H57_2 H 0.3904 0.7581 0.9254
H58_2 H 0.4364 0.7244 0.9548
H59_2 H 0.4280 0.7204 0.8961
H63_2 H 0.6064 0.8705 0.9939
C93_2 C 0.57102(13) 0.82560(14) 0.73954(13)
C94_2 C 0.61354(14) 0.86862(14) 0.73707(15)
C95_2 C 0.65170(15) 0.87511(16) 0.77735(15)
H75_2 H 0.6511 0.8528 0.8056
C96_2 C 0.69100(16) 0.91546(16) 0.77509(16)
H76_2 H 0.7172 0.9192 0.8016
C97_2 C 0.69153(15) 0.95010(15) 0.73371(15)
C98_2 C 0.65306(14) 0.94258(15) 0.69352(14)
H77_2 H 0.6534 0.9648 0.6652
C99_2 C 0.61485(15) 0.90263(15) 0.69562(14)
H78_2 H 0.5892 0.8982 0.6686
C100_2 C 0.73105(15) 0.99390(15) 0.73170(16)
H80_2 H 0.7661 0.9921 0.7989
N5_2 N 0.54085(11) 0.75551(11) 0.87779(11)
N6_2 N 0.55901(12) 0.78302(14) 0.95605(12)
O15_2 O 0.56923(9) 0.80101(10) 0.78016(10)
O16_2 O 0.53982(9) 0.81745(9) 0.70047(9)
C65_4 C 0.89773(17) 0.11869(18) 0.03520(16)
H48_4 H 0.8946 0.1366 0.0656
C66_4 C 0.93542(19) 0.0783(2) 0.03218(18)
H49_4 H 0.9575 0.0693 0.0607
C60_4 C 0.93008(15) 0.42490(16) 0.02785(14)
H45_4 H 0.9500 0.4340 0.0577
C61_4 C 0.89052(15) 0.38576(15) 0.02832(14)
H46_4 H 0.8836 0.3694 0.0586
H61_3 H 0.9904 0.2971 0.1038
O20_3 O 0.97748(12) 0.37848(14) 0.16392(11)
C28_3 C 0.56992(15) 0.07510(16) 0.97215(14)
H25_3 H 0.5500 0.0660 0.9423
C29_3 C 0.60948(15) 0.11424(15) 0.97168(14)
H26_3 H 0.6164 0.1306 0.9414
C33_3 C 0.60227(17) 0.38131(18) 0.96480(16)
H28_3 H 0.6054 0.3634 0.9344
C34_3 C 0.56458(19) 0.4217(2) 0.96782(18)
H29_3 H 0.5425 0.4307 0.9393
O1_3 O 0.69035(10) 0.19182(10) 0.97193(10)
O3_3 O 0.68551(10) 0.30688(10) 0.95941(10)
H47_3 H 0.4883 0.0058 0.9493
C63_3 C 0.32377(15) 0.67694(15) 0.99830(16)
C64_3 C 0.36458(15) 0.63307(15) 0.99384(15)
C67_3 C 0.44155(17) 0.55047(19) 0.98776(16)
C68_3 C 0.40793(17) 0.56487(17) 0.94622(17)
H50_3 H 0.4111 0.5466 0.9160
C69_3 C 0.36907(15) 0.60644(16) 0.94839(16)
H51_3 H 0.3469 0.6159 0.9200
C70_3 C 0.48096(15) 0.50673(18) 0.98186(16)
H52_3 H 0.4795 0.4875 0.9517
O14_3 O 0.30054(10) 0.69433(10) 0.95733(10)
Zn8_2 Zn 0.240057(14) 0.749779(16) 0.943615(14)
Zn9_2 Zn 0.740057(14) 0.249779(16) 0.943615(14)
C55_3 C 0.31860(13) 0.82631(14) 0.98643(15)
C56_3 C 0.36076(13) 0.87018(14) 0.98455(14)
C57_3 C 0.37089(14) 0.89651(14) 0.94034(13)
H43_3 H 0.3510 0.8872 0.9106
C58_3 C 0.40990(14) 0.93608(15) 0.93983(14)
H44_3 H 0.4160 0.9534 0.9097
C59_3 C 0.44069(14) 0.95085(14) 0.98381(14)
C62_3 C 0.48356(13) 0.99117(14) 0.98082(13)
O12_3 O 0.29602(10) 0.81073(10) 0.94463(10)
C28_4 C 0.06992(15) 0.57510(16) 0.97215(14)
H25_4 H 0.0500 0.5660 0.9423
C29_4 C 0.10948(15) 0.61424(15) 0.97168(14)
H26_4 H 0.1164 0.6306 0.9414
C33_4 C 0.10227(17) 0.88131(18) 0.96480(16)
H28_4 H 0.1054 0.8634 0.9344
C34_4 C 0.06458(19) 0.9217(2) 0.96782(18)
H29_4 H 0.0425 0.9307 0.9393
O1_4 O 0.19035(10) 0.69182(10) 0.97193(10)
O3_4 O 0.18551(10) 0.80688(10) 0.95941(10)
C63_4 C 0.82377(15) 0.17694(15) 0.99830(16)
C64_4 C 0.86458(15) 0.13307(15) 0.99384(15)
C67_4 C 0.94155(17) 0.05047(19) 0.98776(16)
C68_4 C 0.90793(17) 0.06487(17) 0.94622(17)
H50_4 H 0.9111 0.0466 0.9160
C69_4 C 0.86907(15) 0.10644(16) 0.94839(16)
H51_4 H 0.8469 0.1159 0.9200
C70_4 C 0.98096(15) 0.00673(18) 0.98186(16)
O14_4 O 0.80054(10) 0.19433(10) 0.95733(10)
C55_4 C 0.81860(13) 0.32631(14) 0.98643(15)
C56_4 C 0.86076(13) 0.37018(14) 0.98455(14)
C57_4 C 0.87089(14) 0.39651(14) 0.94034(13)
H43_4 H 0.8510 0.3872 0.9106
C58_4 C 0.90990(14) 0.43608(15) 0.93983(14)
H44_4 H 0.9160 0.4534 0.9097
C59_4 C 0.94069(14) 0.45085(14) 0.98381(14)
C62_4 C 0.98356(13) 0.49117(14) 0.98082(13)
H47_4 H 0.9883 0.5058 0.9493
O12_4 O 0.79602(10) 0.31073(10) 0.94463(10)
H52_4 H 0.9795 0.9875 0.9517
C1_3 C 0.02078(15) 0.72234(16) 0.41785(15)
C2_3 C 0.10642(17) 0.7350(2) 0.43924(18)
H1_3 H 0.1398 0.7351 0.4573
C3_3 C 0.09532(16) 0.75245(18) 0.39156(15)
H2_3 H 0.1200 0.7674 0.3711
C6_3 C 0.05425(16) 0.69210(17) 0.50285(15)
C7_3 C 0.01959(19) 0.71496(19) 0.53669(17)
H8_3 H 0.0015 0.7477 0.5289
C8_3 C 0.01299(18) 0.68827(18) 0.58133(16)
C9_3 C 0.04040(17) 0.63903(17) 0.59268(14)
C10_3 C 0.07506(17) 0.61842(18) 0.56119(16)
H10_3 H 0.0941 0.5865 0.5701
C11_3 C 0.08275(17) 0.64413(18) 0.51546(16)
H11_3 H 0.1064 0.6295 0.4939
C12_3 C 0.0790(2) 0.63266(18) 0.69291(16)
C13_3 C 0.0737(2) 0.6859(2) 0.7095(2)
H12_3 H 0.0438 0.7066 0.6986
C14_3 C 0.1131(3) 0.7079(2) 0.7423(2)
H13_3 H 0.1110 0.7447 0.7516
C15_3 C 0.15568(19) 0.6763(2) 0.76159(18)
C16_3 C 0.1597(2) 0.6242(2) 0.7459(2)
H14_3 H 0.1875 0.6021 0.7596
C17_3 C 0.1227(2) 0.6031(2) 0.7094(2)
H15_3 H 0.1280 0.5683 0.6961
C18_3 C 0.18338(17) 0.71852(16) 0.84283(15)
C19_3 C 0.2700(2) 0.7180(2) 0.84075(18)
H16_3 H 0.3065 0.7228 0.8492
C20_3 C 0.2467(2) 0.6957(2) 0.7980(2)
H17_3 H 0.2650 0.6814 0.7720
C21_3 C 0.13029(18) 0.7257(2) 0.86179(19)
H18_3 H 0.1058 0.6989 0.8456
H19_3 H 0.1331 0.7181 0.8976
C22_3 C 0.1059(2) 0.7854(2) 0.8525(2)
H20_3 H 0.0715 0.7874 0.8658
H21_3 H 0.1295 0.8122 0.8689
H22_3 H 0.1019 0.7928 0.8170
C39_3 C 0.07102(13) 0.67440(14) 0.23954(13)
C40_3 C 0.11354(14) 0.63138(14) 0.23707(15)
C41_3 C 0.15170(15) 0.62489(16) 0.27735(15)
H33_3 H 0.1511 0.6472 0.3056
C42_3 C 0.19100(16) 0.58454(16) 0.27509(16)
H34_3 H 0.2172 0.5808 0.3016
C43_3 C 0.19153(15) 0.54990(15) 0.23371(15)
C44_3 C 0.15306(14) 0.55742(15) 0.19352(14)
H35_3 H 0.1534 0.5352 0.1652
C45_3 C 0.11485(15) 0.59737(15) 0.19562(14)
H36_3 H 0.0892 0.6018 0.1686
C46_3 C 0.23105(15) 0.50610(15) 0.23170(16)
H37_3 H 0.2313 0.4873 0.2014
C47_3 C 0.26665(16) 0.49001(16) 0.26808(16)
H38_3 H 0.2661 0.5079 0.2989
C48_3 C 0.30724(15) 0.44620(16) 0.26444(16)
C49_3 C 0.33867(15) 0.43078(17) 0.30845(15)
H39_3 H 0.3338 0.4481 0.3388
C50_3 C 0.37666(14) 0.38987(15) 0.30638(14)
H40_3 H 0.3972 0.3799 0.3356
C51_3 C 0.38491(14) 0.36361(14) 0.26244(14)
C52_3 C 0.35394(16) 0.37967(16) 0.21902(15)
H41_3 H 0.3596 0.3628 0.1886
C53_3 C 0.31518(15) 0.41987(16) 0.21994(15)
H42_3 H 0.2945 0.4292 0.1906
C54_3 C 0.42859(13) 0.32157(14) 0.25985(16)
N1_3 N 0.04085(11) 0.74449(11) 0.37779(11)
N2_3 N 0.05901(12) 0.71698(14) 0.45605(12)
N3_3 N 0.19257(15) 0.69743(18) 0.79866(13)
N4_3 N 0.22713(14) 0.73271(13) 0.87044(12)
O5_3 O 0.06923(9) 0.69899(10) 0.28016(10)
O6_3 O 0.03982(9) 0.68255(9) 0.20047(9)
O7_2 O 0.44338(9) 0.31211(10) 0.21612(10)
O8_2 O 0.44711(9) 0.30054(9) 0.29959(9)
O9_3 O 0.04252(13) 0.54696(11) 0.64206(10)
Zn2_2 Zn 0.010837(14) 0.748623(16) 0.306150(14)
S1_3 S 0.02956(5) 0.60485(5) 0.64900(4)
C74_3 C 0.03506(15) 0.70690(16) 0.08022(14)
H55_3 H 0.0464 0.6864 0.1105
H56_3 H 0.0379 0.6825 0.0518
C75_3 C 0.07370(17) 0.75558(19) 0.07554(18)
H57_3 H 0.1096 0.7419 0.0746
H58_3 H 0.0636 0.7756 0.0452
H59_3 H 0.0720 0.7796 0.1039
O28_2 O 0.05662(9) 0.81211(10) 0.28388(10)
O30_2 O 0.05289(9) 0.80054(9) 0.20041(9)
Zn10 Zn 0.510837(14) 0.248623(16) 0.306150(14)
Zn12 Zn 0.489163(14) 0.248623(16) 0.193850(14)
C4_3 C 0.96494(15) 0.70690(16) 0.41978(14)
H3_3 H 0.9536 0.6864 0.3895
H4_3 H 0.9621 0.6825 0.4482
C5_3 C 0.92630(17) 0.75558(19) 0.42446(18)
H5_3 H 0.8904 0.7419 0.4254
H6_3 H 0.9364 0.7756 0.4548
H7_3 H 0.9280 0.7796 0.3961
H9_3 H 0.9904 0.7029 0.6038
O10_3 O 0.97748(12) 0.62152(14) 0.66392(11)
C71_3 C 0.97922(15) 0.72234(16) 0.08215(15)
C72_3 C 0.89358(17) 0.7350(2) 0.06076(18)
H53_3 H 0.8602 0.7351 0.0427
C73_3 C 0.90468(16) 0.75245(18) 0.10844(15)
H54_3 H 0.8800 0.7674 0.1289
H63_3 H 0.8936 0.6295 0.0061
C93_3 C 0.92898(13) 0.67440(14) 0.26046(13)
C94_3 C 0.88646(14) 0.63138(14) 0.26293(15)
C95_3 C 0.84830(15) 0.62489(16) 0.22265(15)
H75_3 H 0.8489 0.6472 0.1944
C96_3 C 0.80900(16) 0.58454(16) 0.22491(16)
H76_3 H 0.7828 0.5808 0.1984
C97_3 C 0.80847(15) 0.54990(15) 0.26629(15)
C98_3 C 0.84694(14) 0.55742(15) 0.30648(14)
H77_3 H 0.8466 0.5352 0.3348
C99_3 C 0.88515(15) 0.59737(15) 0.30438(14)
H78_3 H 0.9108 0.6018 0.3314
C100_3 C 0.76895(15) 0.50610(15) 0.26830(16)
H79_3 H 0.7687 0.4873 0.2986
C101_3 C 0.73335(16) 0.49001(16) 0.23192(16)
H80_3 H 0.7339 0.5079 0.2011
C102_3 C 0.69276(15) 0.44620(16) 0.23556(16)
C103_3 C 0.66133(15) 0.43078(17) 0.19155(15)
H81_3 H 0.6662 0.4481 0.1612
C104_3 C 0.62334(14) 0.38987(15) 0.19362(14)
H82_3 H 0.6028 0.3799 0.1644
C105_3 C 0.61509(14) 0.36361(14) 0.23756(14)
C106_3 C 0.64606(16) 0.37967(16) 0.28098(15)
H83_3 H 0.6404 0.3628 0.3114
C107_3 C 0.68482(15) 0.41987(16) 0.28006(15)
H84_3 H 0.7055 0.4292 0.3094
C108_3 C 0.57141(13) 0.32157(14) 0.24015(16)
N5_3 N 0.95915(11) 0.74449(11) 0.12221(11)
N6_3 N 0.94099(12) 0.71698(14) 0.04395(12)
O15_3 O 0.93077(9) 0.69899(10) 0.21984(10)
O16_3 O 0.96018(9) 0.68255(9) 0.29953(9)
O17_2 O 0.55662(9) 0.31211(10) 0.28388(10)
O18_2 O 0.55289(9) 0.30054(9) 0.20041(9)
Zn4_2 Zn 0.989163(14) 0.748623(16) 0.193850(14)
O27_2 O 0.94338(9) 0.81211(10) 0.21612(10)
O29_2 O 0.94711(9) 0.80054(9) 0.29959(9)
C1_4 C 0.52078(15) 0.22234(16) 0.41785(15)
C2_4 C 0.60642(17) 0.2350(2) 0.43924(18)
H1_4 H 0.6398 0.2351 0.4573
C3_4 C 0.59532(16) 0.25245(18) 0.39156(15)
H2_4 H 0.6200 0.2674 0.3711
C4_4 C 0.46494(15) 0.20690(16) 0.41978(14)
H3_4 H 0.4536 0.1864 0.3895
H4_4 H 0.4621 0.1825 0.4482
C5_4 C 0.42630(17) 0.25558(19) 0.42446(18)
H5_4 H 0.3904 0.2419 0.4254
H6_4 H 0.4364 0.2756 0.4548
H7_4 H 0.4280 0.2796 0.3961
C6_4 C 0.55425(16) 0.19210(17) 0.50285(15)
C7_4 C 0.51959(19) 0.21496(19) 0.53669(17)
H8_4 H 0.5015 0.2477 0.5289
C8_4 C 0.51299(18) 0.18827(18) 0.58133(16)
H9_4 H 0.4904 0.2029 0.6038
C9_4 C 0.54040(17) 0.13903(17) 0.59268(14)
C10_4 C 0.57506(17) 0.11842(18) 0.56119(16)
H10_4 H 0.5941 0.0865 0.5701
C11_4 C 0.58275(17) 0.14413(18) 0.51546(16)
H11_4 H 0.6064 0.1295 0.4939
C12_4 C 0.5790(2) 0.13266(18) 0.69291(16)
C13_4 C 0.5737(2) 0.1859(2) 0.7095(2)
H12_4 H 0.5438 0.2066 0.6986
C14_4 C 0.6131(3) 0.2079(2) 0.7423(2)
H13_4 H 0.6110 0.2447 0.7516
C15_4 C 0.65568(19) 0.1763(2) 0.76159(18)
C16_4 C 0.6597(2) 0.1242(2) 0.7459(2)
H14_4 H 0.6875 0.1021 0.7596
C17_4 C 0.6227(2) 0.1031(2) 0.7094(2)
H15_4 H 0.6280 0.0683 0.6961
C18_4 C 0.68338(17) 0.21852(16) 0.84283(15)
C19_4 C 0.7700(2) 0.2180(2) 0.84075(18)
H16_4 H 0.8065 0.2228 0.8492
C20_4 C 0.7467(2) 0.1957(2) 0.7980(2)
H17_4 H 0.7650 0.1814 0.7720
C21_4 C 0.63029(18) 0.2257(2) 0.86179(19)
H18_4 H 0.6058 0.1989 0.8456
H19_4 H 0.6331 0.2181 0.8976
C22_4 C 0.6059(2) 0.2854(2) 0.8525(2)
H20_4 H 0.5715 0.2874 0.8658
H21_4 H 0.6295 0.3122 0.8689
H22_4 H 0.6019 0.2928 0.8170
C39_4 C 0.57102(13) 0.17440(14) 0.23954(13)
C40_4 C 0.61354(14) 0.13138(14) 0.23707(15)
C41_4 C 0.65170(15) 0.12489(16) 0.27735(15)
H33_4 H 0.6511 0.1472 0.3056
C42_4 C 0.69100(16) 0.08454(16) 0.27509(16)
H34_4 H 0.7172 0.0808 0.3016
C43_4 C 0.69153(15) 0.04990(15) 0.23371(15)
C44_4 C 0.65306(14) 0.05742(15) 0.19352(14)
H35_4 H 0.6534 0.0352 0.1652
C45_4 C 0.61485(15) 0.09737(15) 0.19562(14)
H36_4 H 0.5892 0.1018 0.1686
C46_4 C 0.73105(15) 0.00610(15) 0.23170(16)
H38_4 H 0.7661 0.0079 0.2989
N1_4 N 0.54085(11) 0.24449(11) 0.37779(11)
N2_4 N 0.55901(12) 0.21698(14) 0.45605(12)
N3_4 N 0.69257(15) 0.19743(18) 0.79866(13)
N4_4 N 0.72713(14) 0.23271(13) 0.87044(12)
O5_4 O 0.56923(9) 0.19899(10) 0.28016(10)
O6_4 O 0.53982(9) 0.18255(9) 0.20047(9)
O9_4 O 0.54252(13) 0.04696(11) 0.64206(10)
O10_4 O 0.47748(12) 0.12152(14) 0.66392(11)
S1_4 S 0.52956(5) 0.10485(5) 0.64900(4)
C71_4 C 0.47922(15) 0.22234(16) 0.08215(15)
C72_4 C 0.39358(17) 0.2350(2) 0.06076(18)
H53_4 H 0.3602 0.2351 0.0427
C73_4 C 0.40468(16) 0.25245(18) 0.10844(15)
H54_4 H 0.3800 0.2674 0.1289
C74_4 C 0.53506(15) 0.20690(16) 0.08022(14)
H55_4 H 0.5464 0.1864 0.1105
H56_4 H 0.5379 0.1825 0.0518
C75_4 C 0.57370(17) 0.25558(19) 0.07554(18)
H57_4 H 0.6096 0.2419 0.0746
H58_4 H 0.5636 0.2756 0.0452
H59_4 H 0.5720 0.2796 0.1039
H63_4 H 0.3936 0.1295 0.0061
C93_4 C 0.42898(13) 0.17440(14) 0.26046(13)
C94_4 C 0.38646(14) 0.13138(14) 0.26293(15)
C95_4 C 0.34830(15) 0.12489(16) 0.22265(15)
H75_4 H 0.3489 0.1472 0.1944
C96_4 C 0.30900(16) 0.08454(16) 0.22491(16)
H76_4 H 0.2828 0.0808 0.1984
C97_4 C 0.30847(15) 0.04990(15) 0.26629(15)
C98_4 C 0.34694(14) 0.05742(15) 0.30648(14)
H77_4 H 0.3466 0.0352 0.3348
C99_4 C 0.38515(15) 0.09737(15) 0.30438(14)
H78_4 H 0.4108 0.1018 0.3314
C100_4 C 0.26895(15) 0.00610(15) 0.26830(16)
H80_4 H 0.2339 0.0079 0.2011
N5_4 N 0.45915(11) 0.24449(11) 0.12221(11)
N6_4 N 0.44099(12) 0.21698(14) 0.04395(12)
O15_4 O 0.43077(9) 0.19899(10) 0.21984(10)
O16_4 O 0.46018(9) 0.18255(9) 0.29953(9)
H37_4 H 0.7313 0.9873 0.2014
C47_4 C 0.76665(16) 0.99001(16) 0.26808(16)
C48_4 C 0.80724(15) 0.94620(16) 0.26444(16)
C49_4 C 0.83867(15) 0.93078(17) 0.30845(15)
H39_4 H 0.8338 0.9481 0.3388
C50_4 C 0.87666(14) 0.88987(15) 0.30638(14)
H40_4 H 0.8972 0.8799 0.3356
C51_4 C 0.88491(14) 0.86361(14) 0.26244(14)
C52_4 C 0.85394(16) 0.87967(16) 0.21902(15)
H41_4 H 0.8596 0.8628 0.1886
C53_4 C 0.81518(15) 0.91987(16) 0.21994(15)
H42_4 H 0.7945 0.9292 0.1906
C54_4 C 0.92859(13) 0.82157(14) 0.25985(16)
H79_4 H 0.2687 0.9873 0.2986
C101_4 C 0.23335(16) 0.99001(16) 0.23192(16)
C102_4 C 0.19276(15) 0.94620(16) 0.23556(16)
C103_4 C 0.16133(15) 0.93078(17) 0.19155(15)
H81_4 H 0.1662 0.9481 0.1612
C104_4 C 0.12334(14) 0.88987(15) 0.19362(14)
H82_4 H 0.1028 0.8799 0.1644
C105_4 C 0.11509(14) 0.86361(14) 0.23756(14)
C106_4 C 0.14606(16) 0.87967(16) 0.28098(15)
H83_4 H 0.1404 0.8628 0.3114
C107_4 C 0.18482(15) 0.91987(16) 0.28006(15)
H84_4 H 0.2055 0.9292 0.3094
C108_4 C 0.07141(13) 0.82157(14) 0.24015(16)
H61_4 H 0.0096 0.7029 0.8962
O20_4 O 0.02252(12) 0.62152(14) 0.83608(11)
loop_
_geom_bond_atom_site_label_1
_geom_bond_atom_site_label_2
_geom_bond_site_symmetry_1
_geom_bond_site_symmetry_2
C76 C77 1_555 1_555
C77 H60 1_555 1_555
C78 C77 1_555 1_555
C79 C78 1_555 1_555
C80 C79 1_555 1_555
H62 C80 1_555 1_555
C81 C76 1_555 1_555
C82 C83 1_555 1_555
C83 H64 1_555 1_555
C84 C83 1_555 1_555
H65 C84 1_555 1_555
C85 C84 1_555 1_555
C86 C85 1_555 1_555
H66 C86 1_555 1_555
C87 C82 1_555 1_555
H67 C87 1_555 1_555
C88 C91 1_555 1_555
C89 H68 1_555 1_555
C90 C89 1_555 1_555
H69 C90 1_555 1_555
C91 H70 1_555 1_555
H71 C91 1_555 1_555
C92 C91 1_555 1_555
H72 C92 1_555 1_555
H73 C92 1_555 1_555
H74 C92 1_555 1_555
N7 C85 1_555 1_555
N8 C88 1_555 1_555
O19 S2 1_555 1_555
Zn3 N8 1_555 1_555
S2 C79 1_555 1_555
O22 Zn3 1_555 1_555
O23 Zn3 1_555 1_555
O25 Zn3 1_555 1_555
O26 Zn3 1_555 1_555
C80 C81 1_555 1_555
C82 S2 1_555 1_555
C86 C87 1_555 1_555
C88 N7 1_555 1_555
C89 N8 1_555 1_555
C90 N7 1_555 1_555
C23 C24 1_555 1_555
C24 C25 1_555 1_555
C25 H23 1_555 1_555
C26 C25 1_555 1_555
H24 C26 1_555 1_555
C27 C26 1_555 1_555
C28 C27 1_555 1_555
H25 C28 1_555 1_555
C29 C24 1_555 1_555
H26 C29 1_555 1_555
C30 C27 1_555 1_555
C31 C32 1_555 1_555
C32 C33 1_555 1_555
C33 H28 1_555 1_555
C34 C33 1_555 1_555
H29 C34 1_555 1_555
C35 C34 1_555 1_555
C36 C35 1_555 1_555
H30 C36 1_555 1_555
C37 C32 1_555 1_555
H31 C37 1_555 1_555
C38 C35 1_555 1_555
H32 C38 1_555 1_555
O1 C23 1_555 1_555
O23 C23 1_555 1_555
O3 C31 1_555 1_555
O26 C31 1_555 1_555
C63 C64 1_555 1_555
C64 C65 1_555 1_555
C65 H48 1_555 1_555
C66 C65 1_555 1_555
H49 C66 1_555 1_555
C67 C66 1_555 1_555
C68 C67 1_555 1_555
H50 C68 1_555 1_555
C69 C64 1_555 1_555
H51 C69 1_555 1_555
C70 C38 1_555 1_555
H52 C70 1_555 1_555
O13 C63 1_555 1_555
O14 C63 1_555 1_555
Zn6 O13 1_555 1_555
Zn8 O14 1_555 1_555
Zn9 O1 1_555 1_555
C28 C29 1_555 1_555
C36 C37 1_555 1_555
O3 Zn9 1_555 1_555
C67 C70 1_555 1_555
C68 C69 1_555 1_555
C55 C56 1_555 1_555
C56 C57 1_555 1_555
C57 H43 1_555 1_555
C58 C57 1_555 1_555
H44 C58 1_555 1_555
C59 C58 1_555 1_555
C60 C59 1_555 1_555
H45 C60 1_555 1_555
C61 C56 1_555 1_555
H46 C61 1_555 1_555
O11 C55 1_555 1_555
O12 C55 1_555 1_555
Zn6 O11 1_555 1_555
Zn8 O12 1_555 1_555
C59 C62 1_555 1_555
C60 C61 1_555 1_555
C76_2 C77_2 1_555 1_555
C77_2 H60_2 1_555 1_555
C78_2 C77_2 1_555 1_555
H61 C78_2 1_555 1_555
C79_2 C78_2 1_555 1_555
C80_2 C79_2 1_555 1_555
H62_2 C80_2 1_555 1_555
C81_2 C76_2 1_555 1_555
C82_2 C83_2 1_555 1_555
C83_2 H64_2 1_555 1_555
C84_2 C83_2 1_555 1_555
H65_2 C84_2 1_555 1_555
C85_2 C84_2 1_555 1_555
C86_2 C85_2 1_555 1_555
H66_2 C86_2 1_555 1_555
C87_2 C82_2 1_555 1_555
H67_2 C87_2 1_555 1_555
C88_2 C91_2 1_555 1_555
C89_2 H68_2 1_555 1_555
C90_2 C89_2 1_555 1_555
H69_2 C90_2 1_555 1_555
C91_2 H70_2 1_555 1_555
H71_2 C91_2 1_555 1_555
C92_2 C91_2 1_555 1_555
H72_2 C92_2 1_555 1_555
H73_2 C92_2 1_555 1_555
H74_2 C92_2 1_555 1_555
N7_2 C85_2 1_555 1_555
N8_2 C88_2 1_555 1_555
O19_2 S2_2 1_555 1_555
O20 S2_2 1_555 1_555
Zn6 N8_2 1_555 1_555
S2_2 C79_2 1_555 1_555
O23_2 Zn6 1_555 1_555
O26_2 Zn6 1_555 1_555
C80_2 C81_2 1_555 1_555
C82_2 S2_2 1_555 1_555
C86_2 C87_2 1_555 1_555
C88_2 N7_2 1_555 1_555
C89_2 N8_2 1_555 1_555
C90_2 N7_2 1_555 1_555
C63_2 C64_2 1_555 1_555
C64_2 C65_2 1_555 1_555
C65_2 H48_2 1_555 1_555
C66_2 C65_2 1_555 1_555
H49_2 C66_2 1_555 1_555
C67_2 C66_2 1_555 1_555
C68_2 C67_2 1_555 1_555
H50_2 C68_2 1_555 1_555
C69_2 C64_2 1_555 1_555
H51_2 C69_2 1_555 1_555
O25 C63_2 1_555 1_555
O14_2 C63_2 1_555 1_555
Zn9 O14_2 1_555 1_555
C67_2 C70_2 1_555 1_555
C68_2 C69_2 1_555 1_555
C55_2 C56_2 1_555 1_555
C56_2 C57_2 1_555 1_555
C57_2 H43_2 1_555 1_555
C58_2 C57_2 1_555 1_555
H44_2 C58_2 1_555 1_555
C59_2 C58_2 1_555 1_555
C60_2 C59_2 1_555 1_555
H45_2 C60_2 1_555 1_555
C61_2 C56_2 1_555 1_555
H46_2 C61_2 1_555 1_555
H47_2 C62_2 1_555 1_555
O22 C55_2 1_555 1_555
O12_2 C55_2 1_555 1_555
Zn9 O12_2 1_555 1_555
C59_2 C62_2 1_555 1_555
C60_2 C61_2 1_555 1_555
C23_2 C24_2 1_555 1_555
C24_2 C25_2 1_555 1_555
C25_2 H23_2 1_555 1_555
C26_2 C25_2 1_555 1_555
H24_2 C26_2 1_555 1_555
C27_2 C26_2 1_555 1_555
C28_2 C27_2 1_555 1_555
H25_2 C28_2 1_555 1_555
C29_2 C24_2 1_555 1_555
H26_2 C29_2 1_555 1_555
C30_2 C27_2 1_555 1_555
H27_2 C30_2 1_555 1_555
C31_2 C32_2 1_555 1_555
C32_2 C33_2 1_555 1_555
C33_2 H28_2 1_555 1_555
C34_2 C33_2 1_555 1_555
H29_2 C34_2 1_555 1_555
C35_2 C34_2 1_555 1_555
C36_2 C35_2 1_555 1_555
H30_2 C36_2 1_555 1_555
C37_2 C32_2 1_555 1_555
H31_2 C37_2 1_555 1_555
C38_2 C35_2 1_555 1_555
O1_2 C23_2 1_555 1_555
O23_2 C23_2 1_555 1_555
O3_2 C31_2 1_555 1_555
O26_2 C31_2 1_555 1_555
Zn8 O1_2 1_555 1_555
C28_2 C29_2 1_555 1_555
C36_2 C37_2 1_555 1_555
O3_2 Zn8 1_555 1_555
C76_3 C77_3 1_555 1_555
C77_3 H60_3 1_555 1_555
C78_3 C77_3 1_555 1_555
C79_3 C78_3 1_555 1_555
C80_3 C79_3 1_555 1_555
H62_3 C80_3 1_555 1_555
C81_3 C76_3 1_555 1_555
C82_3 C83_3 1_555 1_555
C83_3 H64_3 1_555 1_555
C84_3 C83_3 1_555 1_555
H65_3 C84_3 1_555 1_555
C85_3 C84_3 1_555 1_555
C86_3 C85_3 1_555 1_555
H66_3 C86_3 1_555 1_555
C87_3 C82_3 1_555 1_555
H67_3 C87_3 1_555 1_555
C88_3 C91_3 1_555 1_555
C89_3 H68_3 1_555 1_555
C90_3 C89_3 1_555 1_555
H69_3 C90_3 1_555 1_555
C91_3 H70_3 1_555 1_555
H71_3 C91_3 1_555 1_555
C92_3 C91_3 1_555 1_555
H72_3 C92_3 1_555 1_555
H73_3 C92_3 1_555 1_555
H74_3 C92_3 1_555 1_555
N7_3 C85_3 1_555 1_555
N8_3 C88_3 1_555 1_555
O19_3 S2_3 1_555 1_555
Zn8 N8_3 1_555 1_555
S2_3 C79_3 1_555 1_555
C80_3 C81_3 1_555 1_555
C82_3 S2_3 1_555 1_555
C86_3 C87_3 1_555 1_555
C88_3 N7_3 1_555 1_555
C89_3 N8_3 1_555 1_555
C90_3 N7_3 1_555 1_555
C76_4 C77_4 1_555 1_555
C77_4 H60_4 1_555 1_555
C78_4 C77_4 1_555 1_555
H61_2 C78_4 1_555 1_555
C79_4 C78_4 1_555 1_555
C80_4 C79_4 1_555 1_555
H62_4 C80_4 1_555 1_555
C81_4 C76_4 1_555 1_555
C82_4 C83_4 1_555 1_555
C83_4 H64_4 1_555 1_555
C84_4 C83_4 1_555 1_555
H65_4 C84_4 1_555 1_555
C85_4 C84_4 1_555 1_555
C86_4 C85_4 1_555 1_555
H66_4 C86_4 1_555 1_555
C87_4 C82_4 1_555 1_555
H67_4 C87_4 1_555 1_555
C88_4 C91_4 1_555 1_555
C89_4 H68_4 1_555 1_555
C90_4 C89_4 1_555 1_555
H69_4 C90_4 1_555 1_555
C91_4 H70_4 1_555 1_555
H71_4 C91_4 1_555 1_555
C92_4 C91_4 1_555 1_555
H72_4 C92_4 1_555 1_555
H73_4 C92_4 1_555 1_555
H74_4 C92_4 1_555 1_555
N7_4 C85_4 1_555 1_555
N8_4 C88_4 1_555 1_555
O19_4 S2_4 1_555 1_555
O20_2 S2_4 1_555 1_555
Zn9 N8_4 1_555 1_555
S2_4 C79_4 1_555 1_555
C80_4 C81_4 1_555 1_555
C82_4 S2_4 1_555 1_555
C86_4 C87_4 1_555 1_555
C88_4 N7_4 1_555 1_555
C89_4 N8_4 1_555 1_555
C90_4 N7_4 1_555 1_555
C4 H3 1_555 1_555
H4 C4 1_555 1_555
C5 C4 1_555 1_555
H5 C5 1_555 1_555
H6 C5 1_555 1_555
H7 C5 1_555 1_555
C72 H53 1_555 1_555
C73 C72 1_555 1_555
H54 C73 1_555 1_555
C93 C94 1_555 1_555
C94 C95 1_555 1_555
C95 H75 1_555 1_555
C96 C95 1_555 1_555
H76 C96 1_555 1_555
C97 C96 1_555 1_555
C98 C97 1_555 1_555
H77 C98 1_555 1_555
C99 C94 1_555 1_555
H78 C99 1_555 1_555
C100 C97 1_555 1_555
H79 C100 1_555 1_555
C101 C100 1_555 1_555
H80 C101 1_555 1_555
C102 C101 1_555 1_555
C103 C102 1_555 1_555
H81 C103 1_555 1_555
C104 C103 1_555 1_555
H82 C104 1_555 1_555
C105 C104 1_555 1_555
C106 C105 1_555 1_555
H83 C106 1_555 1_555
C107 C102 1_555 1_555
H84 C107 1_555 1_555
C108 C105 1_555 1_555
N5 C71 1_555 1_555
N6 C71 1_555 1_555
O15 C93 1_555 1_555
O17 C108 1_555 1_555
O18 C108 1_555 1_555
O27 Zn4 1_555 1_555
Zn11 O17 1_555 1_555
Zn13 O18 1_555 1_555
C72 N6 1_555 1_555
C73 N5 1_555 1_555
C93 O16 1_555 1_555
C98 C99 1_555 1_555
C106 C107 1_555 1_555
N5 Zn4 1_555 1_555
O15 Zn4 1_555 1_555
C2 H1 1_555 1_555
C3 C2 1_555 1_555
H2 C3 1_555 1_555
C6 C7 1_555 1_555
C7 H8 1_555 1_555
C8 C7 1_555 1_555
C9 C8 1_555 1_555
C10 C9 1_555 1_555
H10 C10 1_555 1_555
C11 C6 1_555 1_555
H11 C11 1_555 1_555
C12 C13 1_555 1_555
C13 H12 1_555 1_555
C14 C13 1_555 1_555
H13 C14 1_555 1_555
C15 C14 1_555 1_555
C16 C15 1_555 1_555
H14 C16 1_555 1_555
C17 C12 1_555 1_555
H15 C17 1_555 1_555
C18 C21 1_555 1_555
C19 H16 1_555 1_555
C20 C19 1_555 1_555
H17 C20 1_555 1_555
C21 H18 1_555 1_555
H19 C21 1_555 1_555
C22 C21 1_555 1_555
H20 C22 1_555 1_555
H21 C22 1_555 1_555
H22 C22 1_555 1_555
C23_3 C24_3 1_555 1_555
C24_3 C25_3 1_555 1_555
C25_3 H23_3 1_555 1_555
C26_3 C25_3 1_555 1_555
H24_3 C26_3 1_555 1_555
C27_3 C26_3 1_555 1_555
C30_3 C27_3 1_555 1_555
C31_3 C32_3 1_555 1_555
C36_3 C35_3 1_555 1_555
H30_3 C36_3 1_555 1_555
C37_3 C32_3 1_555 1_555
H31_3 C37_3 1_555 1_555
C38_3 C35_3 1_555 1_555
H32_3 C38_3 1_555 1_555
C39 C40 1_555 1_555
C40 C41 1_555 1_555
C41 H33 1_555 1_555
C42 C41 1_555 1_555
H34 C42 1_555 1_555
C43 C42 1_555 1_555
C44 C43 1_555 1_555
H35 C44 1_555 1_555
C45 C40 1_555 1_555
H36 C45 1_555 1_555
C46 C43 1_555 1_555
H37 C46 1_555 1_555
C47 C46 1_555 1_555
H38 C47 1_555 1_555
C48 C47 1_555 1_555
C49 C48 1_555 1_555
H39 C49 1_555 1_555
C50 C49 1_555 1_555
H40 C50 1_555 1_555
C51 C50 1_555 1_555
C52 C51 1_555 1_555
H41 C52 1_555 1_555
C53 C48 1_555 1_555
H42 C53 1_555 1_555
C54 C51 1_555 1_555
N1 C1 1_555 1_555
N2 C1 1_555 1_555
N3 C15 1_555 1_555
N4 C18 1_555 1_555
O2 C23_3 1_555 1_555
O4 C31_3 1_555 1_555
O5 C39 1_555 1_555
O6 C39 1_555 1_555
O7 C54 1_555 1_555
O8 C54 1_555 1_555
O9 S1 1_555 1_555
Zn1 N4 1_555 1_555
Zn2 N1 1_555 1_555
S1 C9 1_555 1_555
C65_3 H48_3 1_555 1_555
C66_3 C65_3 1_555 1_555
H49_3 C66_3 1_555 1_555
C74 H55 1_555 1_555
H56 C74 1_555 1_555
C75 C74 1_555 1_555
H57 C75 1_555 1_555
H58 C75 1_555 1_555
H59 C75 1_555 1_555
O21 Zn1 1_555 1_555
O24 Zn1 1_555 1_555
O28 Zn2 1_555 1_555
Zn6_2 O13_2 1_555 1_555
Zn11 O8 1_555 1_555
Zn13 O7 1_555 1_555
C2 N2 1_555 1_555
C3 N1 1_555 1_555
C6 N2 1_555 1_555
C10 C11 1_555 1_555
C12 S1 1_555 1_555
C16 C17 1_555 1_555
C18 N3 1_555 1_555
C19 N4 1_555 1_555
C20 N3 1_555 1_555
C36_3 C37_3 1_555 1_555
C44 C45 1_555 1_555
C52 C53 1_555 1_555
O2 Zn1 1_555 1_555
O4 Zn1 1_555 1_555
O5 Zn2 1_555 1_555
H45_3 C60_3 1_555 1_555
H46_3 C61_3 1_555 1_555
Zn6_2 O11_2 1_555 1_555
C60_3 C61_3 1_555 1_555
C48_2 C47_2 1_555 1_555
C49_2 C48_2 1_555 1_555
H39_2 C49_2 1_555 1_555
C50_2 C49_2 1_555 1_555
H40_2 C50_2 1_555 1_555
C51_2 C50_2 1_555 1_555
C52_2 C51_2 1_555 1_555
H41_2 C52_2 1_555 1_555
C53_2 C48_2 1_555 1_555
H42_2 C53_2 1_555 1_555
C54_2 C51_2 1_555 1_555
O27 C54_2 1_555 1_555
O29 C54_2 1_555 1_555
C102_2 C101_2 1_555 1_555
C103_2 C102_2 1_555 1_555
H81_2 C103_2 1_555 1_555
C104_2 C103_2 1_555 1_555
H82_2 C104_2 1_555 1_555
C105_2 C104_2 1_555 1_555
C106_2 C105_2 1_555 1_555
H83_2 C106_2 1_555 1_555
C107_2 C102_2 1_555 1_555
H84_2 C107_2 1_555 1_555
C108_2 C105_2 1_555 1_555
O28 C108_2 1_555 1_555
O30 C108_2 1_555 1_555
C52_2 C53_2 1_555 1_555
C106_2 C107_2 1_555 1_555
C1_2 C4_2 1_555 1_555
C2_2 H1_2 1_555 1_555
C3_2 C2_2 1_555 1_555
H2_2 C3_2 1_555 1_555
C4_2 H3_2 1_555 1_555
H4_2 C4_2 1_555 1_555
C5_2 C4_2 1_555 1_555
H5_2 C5_2 1_555 1_555
H6_2 C5_2 1_555 1_555
H7_2 C5_2 1_555 1_555
C6_2 C7_2 1_555 1_555
C7_2 H8_2 1_555 1_555
C8_2 C7_2 1_555 1_555
H9_2 C8_2 1_555 1_555
C9_2 C8_2 1_555 1_555
C10_2 C9_2 1_555 1_555
H10_2 C10_2 1_555 1_555
C11_2 C6_2 1_555 1_555
H11_2 C11_2 1_555 1_555
C12_2 C13_2 1_555 1_555
C13_2 H12_2 1_555 1_555
C14_2 C13_2 1_555 1_555
H13_2 C14_2 1_555 1_555
C15_2 C14_2 1_555 1_555
C16_2 C15_2 1_555 1_555
H14_2 C16_2 1_555 1_555
C17_2 C12_2 1_555 1_555
H15_2 C17_2 1_555 1_555
C18_2 C21_2 1_555 1_555
C19_2 H16_2 1_555 1_555
C20_2 C19_2 1_555 1_555
H17_2 C20_2 1_555 1_555
C21_2 H18_2 1_555 1_555
H19_2 C21_2 1_555 1_555
C22_2 C21_2 1_555 1_555
H20_2 C22_2 1_555 1_555
H21_2 C22_2 1_555 1_555
H22_2 C22_2 1_555 1_555
C23_4 C24_4 1_555 1_555
C24_4 C25_4 1_555 1_555
C25_4 H23_4 1_555 1_555
C26_4 C25_4 1_555 1_555
H24_4 C26_4 1_555 1_555
C27_4 C26_4 1_555 1_555
C30_4 C27_4 1_555 1_555
H27_4 C30_4 1_555 1_555
C31_4 C32_4 1_555 1_555
C36_4 C35_4 1_555 1_555
H30_4 C36_4 1_555 1_555
C37_4 C32_4 1_555 1_555
H31_4 C37_4 1_555 1_555
C38_4 C35_4 1_555 1_555
C39_2 C40_2 1_555 1_555
C40_2 C41_2 1_555 1_555
C41_2 H33_2 1_555 1_555
C42_2 C41_2 1_555 1_555
H34_2 C42_2 1_555 1_555
C43_2 C42_2 1_555 1_555
C44_2 C43_2 1_555 1_555
H35_2 C44_2 1_555 1_555
C45_2 C40_2 1_555 1_555
H36_2 C45_2 1_555 1_555
C46_2 C43_2 1_555 1_555
N1_2 C1_2 1_555 1_555
N2_2 C1_2 1_555 1_555
N3_2 C15_2 1_555 1_555
N4_2 C18_2 1_555 1_555
O2_2 C23_4 1_555 1_555
O4_2 C31_4 1_555 1_555
O5_2 C39_2 1_555 1_555
O6_2 C39_2 1_555 1_555
O9_2 S1_2 1_555 1_555
O10_2 S1_2 1_555 1_555
Zn6_2 N4_2 1_555 1_555
Zn11 N1_2 1_555 1_555
S1_2 C9_2 1_555 1_555
C71_2 C74_2 1_555 1_555
C72_2 H53_2 1_555 1_555
C73_2 C72_2 1_555 1_555
H54_2 C73_2 1_555 1_555
C74_2 H55_2 1_555 1_555
H56_2 C74_2 1_555 1_555
C75_2 C74_2 1_555 1_555
H57_2 C75_2 1_555 1_555
H58_2 C75_2 1_555 1_555
H59_2 C75_2 1_555 1_555
C93_2 C94_2 1_555 1_555
C94_2 C95_2 1_555 1_555
C95_2 H75_2 1_555 1_555
C96_2 C95_2 1_555 1_555
H76_2 C96_2 1_555 1_555
C97_2 C96_2 1_555 1_555
C98_2 C97_2 1_555 1_555
H77_2 C98_2 1_555 1_555
C99_2 C94_2 1_555 1_555
H78_2 C99_2 1_555 1_555
C100_2 C97_2 1_555 1_555
N5_2 C71_2 1_555 1_555
N6_2 C71_2 1_555 1_555
O15_2 C93_2 1_555 1_555
O16_2 Zn11 1_555 1_555
Zn13 O6_2 1_555 1_555
C2_2 N2_2 1_555 1_555
C3_2 N1_2 1_555 1_555
C6_2 N2_2 1_555 1_555
C10_2 C11_2 1_555 1_555
C12_2 S1_2 1_555 1_555
C16_2 C17_2 1_555 1_555
C18_2 N3_2 1_555 1_555
C19_2 N4_2 1_555 1_555
C20_2 N3_2 1_555 1_555
C36_4 C37_4 1_555 1_555
C44_2 C45_2 1_555 1_555
O2_2 Zn6_2 1_555 1_555
O4_2 Zn6_2 1_555 1_555
O5_2 Zn11 1_555 1_555
C72_2 N6_2 1_555 1_555
C73_2 N5_2 1_555 1_555
C93_2 O16_2 1_555 1_555
C98_2 C99_2 1_555 1_555
N5_2 Zn13 1_555 1_555
O15_2 Zn13 1_555 1_555
C65_4 H48_4 1_555 1_555
C66_4 C65_4 1_555 1_555
H49_4 C66_4 1_555 1_555
H45_4 C60_4 1_555 1_555
H46_4 C61_4 1_555 1_555
C60_4 C61_4 1_555 1_555
H25_3 C28_3 1_555 1_555
H26_3 C29_3 1_555 1_555
C33_3 H28_3 1_555 1_555
C34_3 C33_3 1_555 1_555
H29_3 C34_3 1_555 1_555
C63_3 C64_3 1_555 1_555
C68_3 C67_3 1_555 1_555
H50_3 C68_3 1_555 1_555
C69_3 C64_3 1_555 1_555
H51_3 C69_3 1_555 1_555
H52_3 C70_3 1_555 1_555
O14_3 C63_3 1_555 1_555
Zn8_2 O14_3 1_555 1_555
Zn9_2 O1_3 1_555 1_555
C28_3 C29_3 1_555 1_555
O3_3 Zn9_2 1_555 1_555
C67_3 C70_3 1_555 1_555
C68_3 C69_3 1_555 1_555
C55_3 C56_3 1_555 1_555
C56_3 C57_3 1_555 1_555
C57_3 H43_3 1_555 1_555
C58_3 C57_3 1_555 1_555
H44_3 C58_3 1_555 1_555
C59_3 C58_3 1_555 1_555
O12_3 C55_3 1_555 1_555
Zn8_2 O12_3 1_555 1_555
C59_3 C62_3 1_555 1_555
H25_4 C28_4 1_555 1_555
H26_4 C29_4 1_555 1_555
C33_4 H28_4 1_555 1_555
C34_4 C33_4 1_555 1_555
H29_4 C34_4 1_555 1_555
Zn8_2 O1_4 1_555 1_555
C28_4 C29_4 1_555 1_555
O3_4 Zn8_2 1_555 1_555
C63_4 C64_4 1_555 1_555
C68_4 C67_4 1_555 1_555
H50_4 C68_4 1_555 1_555
C69_4 C64_4 1_555 1_555
H51_4 C69_4 1_555 1_555
O14_4 C63_4 1_555 1_555
Zn9_2 O14_4 1_555 1_555
C67_4 C70_4 1_555 1_555
C68_4 C69_4 1_555 1_555
C55_4 C56_4 1_555 1_555
C56_4 C57_4 1_555 1_555
C57_4 H43_4 1_555 1_555
C58_4 C57_4 1_555 1_555
H44_4 C58_4 1_555 1_555
C59_4 C58_4 1_555 1_555
H47_4 C62_4 1_555 1_555
O12_4 C55_4 1_555 1_555
Zn9_2 O12_4 1_555 1_555
C59_4 C62_4 1_555 1_555
C2_3 H1_3 1_555 1_555
C3_3 C2_3 1_555 1_555
H2_3 C3_3 1_555 1_555
C6_3 C7_3 1_555 1_555
C7_3 H8_3 1_555 1_555
C8_3 C7_3 1_555 1_555
C9_3 C8_3 1_555 1_555
C10_3 C9_3 1_555 1_555
H10_3 C10_3 1_555 1_555
C11_3 C6_3 1_555 1_555
H11_3 C11_3 1_555 1_555
C12_3 C13_3 1_555 1_555
C13_3 H12_3 1_555 1_555
C14_3 C13_3 1_555 1_555
H13_3 C14_3 1_555 1_555
C15_3 C14_3 1_555 1_555
C16_3 C15_3 1_555 1_555
H14_3 C16_3 1_555 1_555
C17_3 C12_3 1_555 1_555
H15_3 C17_3 1_555 1_555
C18_3 C21_3 1_555 1_555
C19_3 H16_3 1_555 1_555
C20_3 C19_3 1_555 1_555
H17_3 C20_3 1_555 1_555
C21_3 H18_3 1_555 1_555
H19_3 C21_3 1_555 1_555
C22_3 C21_3 1_555 1_555
H20_3 C22_3 1_555 1_555
H21_3 C22_3 1_555 1_555
H22_3 C22_3 1_555 1_555
C39_3 C40_3 1_555 1_555
C40_3 C41_3 1_555 1_555
C41_3 H33_3 1_555 1_555
C42_3 C41_3 1_555 1_555
H34_3 C42_3 1_555 1_555
C43_3 C42_3 1_555 1_555
C44_3 C43_3 1_555 1_555
H35_3 C44_3 1_555 1_555
C45_3 C40_3 1_555 1_555
H36_3 C45_3 1_555 1_555
C46_3 C43_3 1_555 1_555
H37_3 C46_3 1_555 1_555
C47_3 C46_3 1_555 1_555
H38_3 C47_3 1_555 1_555
C48_3 C47_3 1_555 1_555
C49_3 C48_3 1_555 1_555
H39_3 C49_3 1_555 1_555
C50_3 C49_3 1_555 1_555
H40_3 C50_3 1_555 1_555
C51_3 C50_3 1_555 1_555
C52_3 C51_3 1_555 1_555
H41_3 C52_3 1_555 1_555
C53_3 C48_3 1_555 1_555
H42_3 C53_3 1_555 1_555
C54_3 C51_3 1_555 1_555
N1_3 C1_3 1_555 1_555
N2_3 C1_3 1_555 1_555
N3_3 C15_3 1_555 1_555
N4_3 C18_3 1_555 1_555
O5_3 C39_3 1_555 1_555
O6_3 C39_3 1_555 1_555
O7_2 C54_3 1_555 1_555
O8_2 C54_3 1_555 1_555
O9_3 S1_3 1_555 1_555
Zn8_2 N4_3 1_555 1_555
Zn2_2 N1_3 1_555 1_555
S1_3 C9_3 1_555 1_555
C74_3 H55_3 1_555 1_555
H56_3 C74_3 1_555 1_555
C75_3 C74_3 1_555 1_555
H57_3 C75_3 1_555 1_555
H58_3 C75_3 1_555 1_555
H59_3 C75_3 1_555 1_555
O28_2 Zn2_2 1_555 1_555
Zn10 O8_2 1_555 1_555
Zn12 O7_2 1_555 1_555
C2_3 N2_3 1_555 1_555
C3_3 N1_3 1_555 1_555
C6_3 N2_3 1_555 1_555
C10_3 C11_3 1_555 1_555
C12_3 S1_3 1_555 1_555
C16_3 C17_3 1_555 1_555
C18_3 N3_3 1_555 1_555
C19_3 N4_3 1_555 1_555
C20_3 N3_3 1_555 1_555
C44_3 C45_3 1_555 1_555
C52_3 C53_3 1_555 1_555
O5_3 Zn2_2 1_555 1_555
C4_3 H3_3 1_555 1_555
H4_3 C4_3 1_555 1_555
C5_3 C4_3 1_555 1_555
H5_3 C5_3 1_555 1_555
H6_3 C5_3 1_555 1_555
H7_3 C5_3 1_555 1_555
C72_3 H53_3 1_555 1_555
C73_3 C72_3 1_555 1_555
H54_3 C73_3 1_555 1_555
C93_3 C94_3 1_555 1_555
C94_3 C95_3 1_555 1_555
C95_3 H75_3 1_555 1_555
C96_3 C95_3 1_555 1_555
H76_3 C96_3 1_555 1_555
C97_3 C96_3 1_555 1_555
C98_3 C97_3 1_555 1_555
H77_3 C98_3 1_555 1_555
C99_3 C94_3 1_555 1_555
H78_3 C99_3 1_555 1_555
C100_3 C97_3 1_555 1_555
H79_3 C100_3 1_555 1_555
C101_3 C100_3 1_555 1_555
H80_3 C101_3 1_555 1_555
C102_3 C101_3 1_555 1_555
C103_3 C102_3 1_555 1_555
H81_3 C103_3 1_555 1_555
C104_3 C103_3 1_555 1_555
H82_3 C104_3 1_555 1_555
C105_3 C104_3 1_555 1_555
C106_3 C105_3 1_555 1_555
H83_3 C106_3 1_555 1_555
C107_3 C102_3 1_555 1_555
H84_3 C107_3 1_555 1_555
C108_3 C105_3 1_555 1_555
N5_3 C71_3 1_555 1_555
N6_3 C71_3 1_555 1_555
O15_3 C93_3 1_555 1_555
O17_2 C108_3 1_555 1_555
O18_2 C108_3 1_555 1_555
O27_2 Zn4_2 1_555 1_555
Zn10 O17_2 1_555 1_555
Zn12 O18_2 1_555 1_555
C72_3 N6_3 1_555 1_555
C73_3 N5_3 1_555 1_555
C93_3 O16_3 1_555 1_555
C98_3 C99_3 1_555 1_555
C106_3 C107_3 1_555 1_555
N5_3 Zn4_2 1_555 1_555
O15_3 Zn4_2 1_555 1_555
C1_4 C4_4 1_555 1_555
C2_4 H1_4 1_555 1_555
C3_4 C2_4 1_555 1_555
H2_4 C3_4 1_555 1_555
C4_4 H3_4 1_555 1_555
H4_4 C4_4 1_555 1_555
C5_4 C4_4 1_555 1_555
H5_4 C5_4 1_555 1_555
H6_4 C5_4 1_555 1_555
H7_4 C5_4 1_555 1_555
C6_4 C7_4 1_555 1_555
C7_4 H8_4 1_555 1_555
C8_4 C7_4 1_555 1_555
H9_4 C8_4 1_555 1_555
C9_4 C8_4 1_555 1_555
C10_4 C9_4 1_555 1_555
H10_4 C10_4 1_555 1_555
C11_4 C6_4 1_555 1_555
H11_4 C11_4 1_555 1_555
C12_4 C13_4 1_555 1_555
C13_4 H12_4 1_555 1_555
C14_4 C13_4 1_555 1_555
H13_4 C14_4 1_555 1_555
C15_4 C14_4 1_555 1_555
C16_4 C15_4 1_555 1_555
H14_4 C16_4 1_555 1_555
C17_4 C12_4 1_555 1_555
H15_4 C17_4 1_555 1_555
C18_4 C21_4 1_555 1_555
C19_4 H16_4 1_555 1_555
C20_4 C19_4 1_555 1_555
H17_4 C20_4 1_555 1_555
C21_4 H18_4 1_555 1_555
H19_4 C21_4 1_555 1_555
C22_4 C21_4 1_555 1_555
H20_4 C22_4 1_555 1_555
H21_4 C22_4 1_555 1_555
H22_4 C22_4 1_555 1_555
C39_4 C40_4 1_555 1_555
C40_4 C41_4 1_555 1_555
C41_4 H33_4 1_555 1_555
C42_4 C41_4 1_555 1_555
H34_4 C42_4 1_555 1_555
C43_4 C42_4 1_555 1_555
C44_4 C43_4 1_555 1_555
H35_4 C44_4 1_555 1_555
C45_4 C40_4 1_555 1_555
H36_4 C45_4 1_555 1_555
C46_4 C43_4 1_555 1_555
N1_4 C1_4 1_555 1_555
N2_4 C1_4 1_555 1_555
N3_4 C15_4 1_555 1_555
N4_4 C18_4 1_555 1_555
O5_4 C39_4 1_555 1_555
O6_4 C39_4 1_555 1_555
O9_4 S1_4 1_555 1_555
O10_4 S1_4 1_555 1_555
Zn9_2 N4_4 1_555 1_555
Zn10 N1_4 1_555 1_555
S1_4 C9_4 1_555 1_555
C71_4 C74_4 1_555 1_555
C72_4 H53_4 1_555 1_555
C73_4 C72_4 1_555 1_555
H54_4 C73_4 1_555 1_555
C74_4 H55_4 1_555 1_555
H56_4 C74_4 1_555 1_555
C75_4 C74_4 1_555 1_555
H57_4 C75_4 1_555 1_555
H58_4 C75_4 1_555 1_555
H59_4 C75_4 1_555 1_555
C93_4 C94_4 1_555 1_555
C94_4 C95_4 1_555 1_555
C95_4 H75_4 1_555 1_555
C96_4 C95_4 1_555 1_555
H76_4 C96_4 1_555 1_555
C97_4 C96_4 1_555 1_555
C98_4 C97_4 1_555 1_555
H77_4 C98_4 1_555 1_555
C99_4 C94_4 1_555 1_555
H78_4 C99_4 1_555 1_555
C100_4 C97_4 1_555 1_555
N5_4 C71_4 1_555 1_555
N6_4 C71_4 1_555 1_555
O15_4 C93_4 1_555 1_555
O16_4 Zn10 1_555 1_555
Zn12 O6_4 1_555 1_555
C2_4 N2_4 1_555 1_555
C3_4 N1_4 1_555 1_555
C6_4 N2_4 1_555 1_555
C10_4 C11_4 1_555 1_555
C12_4 S1_4 1_555 1_555
C16_4 C17_4 1_555 1_555
C18_4 N3_4 1_555 1_555
C19_4 N4_4 1_555 1_555
C20_4 N3_4 1_555 1_555
C44_4 C45_4 1_555 1_555
O5_4 Zn10 1_555 1_555
C72_4 N6_4 1_555 1_555
C73_4 N5_4 1_555 1_555
C93_4 O16_4 1_555 1_555
C98_4 C99_4 1_555 1_555
N5_4 Zn12 1_555 1_555
O15_4 Zn12 1_555 1_555
C48_4 C47_4 1_555 1_555
C49_4 C48_4 1_555 1_555
H39_4 C49_4 1_555 1_555
C50_4 C49_4 1_555 1_555
H40_4 C50_4 1_555 1_555
C51_4 C50_4 1_555 1_555
C52_4 C51_4 1_555 1_555
H41_4 C52_4 1_555 1_555
C53_4 C48_4 1_555 1_555
H42_4 C53_4 1_555 1_555
C54_4 C51_4 1_555 1_555
O27_2 C54_4 1_555 1_555
O29_2 C54_4 1_555 1_555
C102_4 C101_4 1_555 1_555
C103_4 C102_4 1_555 1_555
H81_4 C103_4 1_555 1_555
C104_4 C103_4 1_555 1_555
H82_4 C104_4 1_555 1_555
C105_4 C104_4 1_555 1_555
C106_4 C105_4 1_555 1_555
H83_4 C106_4 1_555 1_555
C107_4 C102_4 1_555 1_555
H84_4 C107_4 1_555 1_555
C108_4 C105_4 1_555 1_555
O28_2 C108_4 1_555 1_555
O30_2 C108_4 1_555 1_555
C52_4 C53_4 1_555 1_555
C106_4 C107_4 1_555 1_555

#END
