
###############################################################################
#
# This file contains modified crystal structure data generated from the
# MOF subset of the Cambridge Structural Database (CSD) v543 
# hosted by the Cambridge Crystallographic Data Centre (CCDC).
#
# This work is licensed under the Creative Commons
# Attribution-NonCommercial-ShareAlike 4.0 International License.
# To view a copy of this license, visit
# http://creativecommons.org/licenses/by-nc-sa/4.0/
# or send a letter to
# Creative Commons, PO Box 1866, Mountain View, CA 94042, USA.
#
# CIF created using the CSD Python API on 29 September 2022
# The structure has been converted into the P1 space group
# The structure has a 3D framework
# The original CSD entry PEGBUA is in the monoclinic crystal system
# The framework has been calculated to contain at least 10.0% void space
# The void calculation uses a probe of radius 1.32A, grid spacing 0.4
#
###############################################################################

data_PEGBUA
_chemical_formula_moiety         '(C56 H64 N48 Zn8)n'
_symmetry_cell_setting           triclinic
_symmetry_space_group_name_H-M   'P 1'
_symmetry_Int_Tables_number      1
_space_group_name_Hall           'P 1'
loop_
_symmetry_equiv_pos_site_id
_symmetry_equiv_pos_as_xyz
1 x,y,z
_cell_length_a                   10.6825(13)
_cell_length_b                   12.3388(15)
_cell_length_c                   17.126(2)
_cell_angle_alpha                90
_cell_angle_beta                 95.447(2)
_cell_angle_gamma                90
_cell_volume                     2247.17
loop_
_atom_site_label
_atom_site_type_symbol
_atom_site_fract_x
_atom_site_fract_y
_atom_site_fract_z
N2 N 0.0745(2) 0.87308(18) 0.56223(13)
N3 N 0.05801(18) 0.79223(17) 0.50553(12)
H9 H 0.0196 0.9937 0.6738
Zn4 Zn 0.20692(2) 0.74499(2) 0.456589(15)
Zn1 Zn 0.72690(2) 0.73659(2) 0.600912(15)
N1 N 0.88321(18) 0.79953(17) 0.56428(12)
N4 N 0.74475(17) 0.59022(16) 0.55065(11)
N5 N 0.85109(17) 0.47008(16) 0.48414(11)
N6 N 0.77567(18) 0.41577(16) 0.53336(11)
N7 N 0.56541(17) 0.79903(16) 0.55525(11)
N8 N 0.56849(18) 0.85881(16) 0.48654(11)
N9 N 0.37077(17) 0.80692(16) 0.49965(11)
N10 N 0.23115(18) 0.78417(16) 0.34494(11)
N11 N 0.33123(18) 0.85559(17) 0.24826(11)
N12 N 0.24036(19) 0.78242(17) 0.21716(11)
C1 C 0.0856(2) 0.6553(2) 0.26822(14)
H1 H 0.0669 0.6368 0.2127
H2 H 0.0090 0.6818 0.2892
H3 H 0.1162 0.5908 0.2975
C2 C 0.1838(2) 0.74134(18) 0.27631(14)
C3 C 0.3232(2) 0.85260(19) 0.32413(13)
C4 C 0.4056(2) 0.9196(2) 0.38161(14)
H4 H 0.4796 0.9445 0.3558
H5 H 0.3582 0.9848 0.3953
C5 C 0.4508(2) 0.86096(18) 0.45584(13)
C6 C 0.4466(2) 0.76944(19) 0.56086(13)
C7 C 0.4003(2) 0.7036(2) 0.62493(15)
H6 H 0.4716 0.6816 0.6618
H7 H 0.3573 0.6389 0.6026
H8 H 0.3415 0.7468 0.6526
C8 C 0.9451(3) 0.9486(3) 0.6608(2)
H10 H 0.9275 0.9061 0.7068
H11 H 0.8728 0.9951 0.6447
C9 C 0.9682(2) 0.8741(2) 0.59555(15)
C10 C 0.9445(2) 0.75051(18) 0.50855(14)
C11 C 0.8895(2) 0.66334(19) 0.45526(13)
H12 H 0.9568 0.6326 0.4260
H13 H 0.8257 0.6960 0.4165
C12 C 0.8292(2) 0.57316(19) 0.49696(12)
C13 C 0.7139(2) 0.48942(19) 0.57077(13)
C14 C 0.6190(3) 0.4635(2) 0.62755(17)
H14 H 0.6173 0.3851 0.6363
H15 H 0.5357 0.4880 0.6059
H16 H 0.6424 0.5005 0.6774
Zn3 Zn 0.22690(2) 0.76341(2) 0.100912(15)
Zn5 Zn 0.79308(2) 0.25501(2) 0.543411(15)
N14 N 0.22433(18) 0.58423(16) 0.46664(11)
N15 N 0.74036(19) 0.71758(17) 0.71716(11)
Zn2 Zn 0.29308(2) 0.24499(2) 0.043411(15)
N9_2 N 0.12923(17) 0.30692(16) 0.00035(11)
N10_2 N 0.26885(18) 0.28417(16) 0.15506(11)
N11_2 N 0.16877(18) 0.35559(17) 0.25174(11)
N12_2 N 0.25964(19) 0.28242(17) 0.28284(11)
C1_2 C 0.4144(2) 0.1553(2) 0.23178(14)
H1_2 H 0.4331 0.1368 0.2873
H2_2 H 0.4910 0.1818 0.2108
H3_2 H 0.3838 0.0908 0.2025
C2_2 C 0.3162(2) 0.24134(18) 0.22369(14)
C3_2 C 0.1768(2) 0.35260(19) 0.17587(13)
C4_2 C 0.0944(2) 0.4196(2) 0.11839(14)
H4_2 H 0.0204 0.4445 0.1442
H5_2 H 0.1418 0.4848 0.1047
C5_2 C 0.0492(2) 0.36096(18) 0.04416(13)
Zn3_2 Zn 0.27310(2) 0.26341(2) 0.399088(15)
N14_2 N 0.27567(18) 0.08423(16) 0.03336(11)
C6_2 C 0.0534(2) 0.26944(19) 0.93914(13)
C7_2 C 0.0997(2) 0.2036(2) 0.87507(15)
H6_2 H 0.0284 0.1816 0.8382
H7_2 H 0.1427 0.1389 0.8974
H8_2 H 0.1585 0.2468 0.8474
N13 N 0.44199(18) 0.29223(17) 0.99447(12)
N8_2 N 0.93151(18) 0.35881(16) 0.01346(11)
C11_2 C 0.6105(2) 0.16334(19) 0.04474(13)
H12_2 H 0.5432 0.1326 0.0740
H13_2 H 0.6743 0.1960 0.0835
C12_2 C 0.6708(2) 0.07316(19) 0.00304(12)
Zn1_2 Zn 0.77310(2) 0.23659(2) 0.899088(15)
N1_2 N 0.61679(18) 0.29953(17) 0.93572(12)
N2_2 N 0.4255(2) 0.37308(18) 0.93777(13)
N4_2 N 0.75525(17) 0.09022(16) 0.94935(11)
N7_2 N 0.93459(17) 0.29903(16) 0.94475(11)
C8_2 C 0.5549(3) 0.4486(3) 0.8392(2)
H9_2 H 0.4804 0.4937 0.8262
H10_2 H 0.5725 0.4061 0.7932
H11_2 H 0.6272 0.4951 0.8553
C9_2 C 0.5318(2) 0.3741(2) 0.90445(15)
C10_2 C 0.5555(2) 0.25051(18) 0.99145(14)
H16_2 H 0.8576 0.0005 0.8226
N15_2 N 0.75964(19) 0.21758(17) 0.78284(11)
N6_2 N 0.72433(18) 0.91577(16) 0.96664(11)
C13_2 C 0.7861(2) 0.98942(19) 0.92923(13)
C14_2 C 0.8810(3) 0.9635(2) 0.87245(17)
H14_2 H 0.8827 0.8851 0.8637
H15_2 H 0.9643 0.9880 0.8941
Zn5_2 Zn 0.70692(2) 0.75501(2) 0.956589(15)
N1_3 N 0.11679(18) 0.20047(17) 0.43572(12)
N4_3 N 0.25525(17) 0.40978(16) 0.44935(11)
N5_2 N 0.14891(17) 0.52992(16) 0.51586(11)
N7_3 N 0.43459(17) 0.20097(16) 0.44475(11)
N8_3 N 0.43151(18) 0.14119(16) 0.51346(11)
N9_3 N 0.62923(17) 0.19308(16) 0.50035(11)
N10_3 N 0.76885(18) 0.21583(16) 0.65506(11)
N11_3 N 0.66877(18) 0.14441(17) 0.75174(11)
C1_3 C 0.9144(2) 0.3447(2) 0.73178(14)
H1_3 H 0.9331 0.3632 0.7873
H2_3 H 0.9910 0.3182 0.7108
H3_3 H 0.8838 0.4092 0.7025
C2_3 C 0.8162(2) 0.25866(18) 0.72369(14)
C3_3 C 0.6768(2) 0.14740(19) 0.67587(13)
C4_3 C 0.5944(2) 0.0804(2) 0.61839(14)
H4_3 H 0.5204 0.0555 0.6442
H5_3 H 0.6418 0.0152 0.6047
C5_3 C 0.5492(2) 0.13904(18) 0.54416(13)
C6_3 C 0.5534(2) 0.23056(19) 0.43914(13)
C7_3 C 0.5997(2) 0.2964(2) 0.37507(15)
H6_3 H 0.5284 0.3184 0.3382
H7_3 H 0.6427 0.3611 0.3974
H8_3 H 0.6585 0.2532 0.3474
C8_3 C 0.0549(3) 0.0514(3) 0.3392(2)
H10_3 H 0.0725 0.0939 0.2932
H11_3 H 0.1272 0.0049 0.3553
C9_3 C 0.0318(2) 0.1259(2) 0.40445(15)
C10_3 C 0.0555(2) 0.24949(18) 0.49145(14)
C11_3 C 0.1105(2) 0.33666(19) 0.54474(13)
H12_3 H 0.0432 0.3674 0.5740
H13_3 H 0.1743 0.3040 0.5835
C12_3 C 0.1708(2) 0.42684(19) 0.50304(12)
C13_3 C 0.2861(2) 0.51058(19) 0.42923(13)
C14_3 C 0.3810(3) 0.5365(2) 0.37245(17)
H14_3 H 0.3827 0.6149 0.3637
H15_3 H 0.4643 0.5120 0.3941
H16_3 H 0.3576 0.4995 0.3226
N13_2 N 0.94199(18) 0.20777(17) 0.49447(12)
N2_3 N 0.9255(2) 0.12692(18) 0.43777(13)
H9_3 H 0.9804 0.0063 0.3262
C13_4 C 0.2139(2) 0.01058(19) 0.07077(13)
C14_4 C 0.1190(3) 0.0365(2) 0.12755(17)
H14_4 H 0.1173 0.1149 0.1363
H15_4 H 0.0357 0.0120 0.1059
N1_4 N 0.38321(18) 0.70047(17) 0.06428(12)
N2_4 N 0.5745(2) 0.62692(18) 0.06223(13)
N3_2 N 0.55801(18) 0.70777(17) 0.00553(12)
N4_4 N 0.24475(17) 0.90978(16) 0.05065(11)
N7_4 N 0.06541(17) 0.70097(16) 0.05525(11)
C8_4 C 0.4451(3) 0.5514(3) 0.1608(2)
H9_4 H 0.5196 0.5063 0.1738
H10_4 H 0.4275 0.5939 0.2068
H11_4 H 0.3728 0.5049 0.1447
C9_4 C 0.4682(2) 0.6259(2) 0.09555(15)
C10_4 C 0.4445(2) 0.74949(18) 0.00855(14)
H16_4 H 0.1424 0.9995 0.1774
N8_4 N 0.06849(18) 0.64119(16) 0.98654(11)
C11_4 C 0.3895(2) 0.83666(19) 0.95526(13)
H12_4 H 0.4568 0.8674 0.9260
H13_4 H 0.3257 0.8040 0.9165
C12_4 C 0.3292(2) 0.92684(19) 0.99696(12)
C6_4 C 0.9466(2) 0.73056(19) 0.06086(13)
C7_4 C 0.9003(2) 0.7964(2) 0.12493(15)
H6_4 H 0.9716 0.8184 0.1618
H7_4 H 0.8573 0.8611 0.1026
H8_4 H 0.8415 0.7532 0.1526
N9_4 N 0.87077(17) 0.69308(16) 0.99965(11)
N10_4 N 0.73115(18) 0.71583(16) 0.84494(11)
N11_4 N 0.83123(18) 0.64441(17) 0.74826(11)
C1_4 C 0.5856(2) 0.8447(2) 0.76822(14)
H1_4 H 0.5669 0.8632 0.7127
H2_4 H 0.5090 0.8182 0.7892
H3_4 H 0.6162 0.9092 0.7975
C2_4 C 0.6838(2) 0.75866(18) 0.77631(14)
C3_4 C 0.8232(2) 0.64740(19) 0.82413(13)
C4_4 C 0.9056(2) 0.5804(2) 0.88161(14)
H4_4 H 0.9796 0.5555 0.8558
H5_4 H 0.8582 0.5152 0.8953
C5_4 C 0.9508(2) 0.63904(18) 0.95584(13)
N5_3 N 0.64891(17) 0.97008(16) 0.01586(11)
N5_4 N 0.35109(17) 0.02992(16) 0.98414(11)
loop_
_geom_bond_atom_site_label_1
_geom_bond_atom_site_label_2
_geom_bond_site_symmetry_1
_geom_bond_site_symmetry_2
N2 N3 1_555 1_555
Zn4 N3 1_555 1_555
Zn1 N1 1_555 1_555
Zn4 N9 1_555 1_555
N1 C9 1_555 1_555
N4 Zn1 1_555 1_555
N5 N6 1_555 1_555
N6 C13 1_555 1_555
N7 Zn1 1_555 1_555
N8 N7 1_555 1_555
N9 C5 1_555 1_555
N10 Zn4 1_555 1_555
N11 N12 1_555 1_555
N12 C2 1_555 1_555
C1 H1 1_555 1_555
H2 C1 1_555 1_555
H3 C1 1_555 1_555
C2 N10 1_555 1_555
C3 N10 1_555 1_555
C4 C3 1_555 1_555
H4 C4 1_555 1_555
H5 C4 1_555 1_555
C5 N8 1_555 1_555
C6 N7 1_555 1_555
C7 C6 1_555 1_555
H6 C7 1_555 1_555
H7 C7 1_555 1_555
H8 C7 1_555 1_555
H10 C8 1_555 1_555
H11 C8 1_555 1_555
C10 N1 1_555 1_555
C11 C10 1_555 1_555
H12 C11 1_555 1_555
H13 C11 1_555 1_555
C12 N4 1_555 1_555
C13 N4 1_555 1_555
C14 C13 1_555 1_555
H14 C14 1_555 1_555
H15 C14 1_555 1_555
H16 C14 1_555 1_555
Zn3 N12 1_555 1_555
Zn5 N6 1_555 1_555
N14 Zn4 1_555 1_555
N15 Zn1 1_555 1_555
N5 C12 1_555 1_555
N9 C6 1_555 1_555
N11 C3 1_555 1_555
C1 C2 1_555 1_555
C4 C5 1_555 1_555
C8 C9 1_555 1_555
C11 C12 1_555 1_555
Zn2 N9_2 1_555 1_555
N9_2 C5_2 1_555 1_555
N10_2 Zn2 1_555 1_555
N11_2 N12_2 1_555 1_555
N12_2 C2_2 1_555 1_555
C1_2 H1_2 1_555 1_555
H2_2 C1_2 1_555 1_555
H3_2 C1_2 1_555 1_555
C2_2 N10_2 1_555 1_555
C3_2 N10_2 1_555 1_555
C4_2 C3_2 1_555 1_555
H4_2 C4_2 1_555 1_555
H5_2 C4_2 1_555 1_555
Zn3_2 N12_2 1_555 1_555
N14_2 Zn2 1_555 1_555
N11_2 C3_2 1_555 1_555
C1_2 C2_2 1_555 1_555
C4_2 C5_2 1_555 1_555
C7_2 C6_2 1_555 1_555
H6_2 C7_2 1_555 1_555
H7_2 C7_2 1_555 1_555
H8_2 C7_2 1_555 1_555
H12_2 C11_2 1_555 1_555
H13_2 C11_2 1_555 1_555
C11_2 C12_2 1_555 1_555
Zn1_2 N1_2 1_555 1_555
N1_2 C9_2 1_555 1_555
N2_2 N13 1_555 1_555
N13 C10_2 1_555 1_555
N4_2 Zn1_2 1_555 1_555
N7_2 Zn1_2 1_555 1_555
C8_2 H9_2 1_555 1_555
H10_2 C8_2 1_555 1_555
H11_2 C8_2 1_555 1_555
C9_2 N2_2 1_555 1_555
C10_2 N1_2 1_555 1_555
N15_2 Zn1_2 1_555 1_555
C8_2 C9_2 1_555 1_555
N6_2 C13_2 1_555 1_555
C14_2 C13_2 1_555 1_555
H14_2 C14_2 1_555 1_555
H15_2 C14_2 1_555 1_555
Zn5_2 N6_2 1_555 1_555
Zn3_2 N1_3 1_555 1_555
Zn5 N9_3 1_555 1_555
N1_3 C9_3 1_555 1_555
N4_3 Zn3_2 1_555 1_555
N5_2 N14 1_555 1_555
N14 C13_3 1_555 1_555
N7_3 Zn3_2 1_555 1_555
N8_3 N7_3 1_555 1_555
N9_3 C5_3 1_555 1_555
N10_3 Zn5 1_555 1_555
N11_3 N15_2 1_555 1_555
N15_2 C2_3 1_555 1_555
C1_3 H1_3 1_555 1_555
H2_3 C1_3 1_555 1_555
H3_3 C1_3 1_555 1_555
C2_3 N10_3 1_555 1_555
C3_3 N10_3 1_555 1_555
C4_3 C3_3 1_555 1_555
H4_3 C4_3 1_555 1_555
H5_3 C4_3 1_555 1_555
C5_3 N8_3 1_555 1_555
C6_3 N7_3 1_555 1_555
C7_3 C6_3 1_555 1_555
H6_3 C7_3 1_555 1_555
H7_3 C7_3 1_555 1_555
H8_3 C7_3 1_555 1_555
H10_3 C8_3 1_555 1_555
H11_3 C8_3 1_555 1_555
C10_3 N1_3 1_555 1_555
C11_3 C10_3 1_555 1_555
H12_3 C11_3 1_555 1_555
H13_3 C11_3 1_555 1_555
C12_3 N4_3 1_555 1_555
C13_3 N4_3 1_555 1_555
C14_3 C13_3 1_555 1_555
H14_3 C14_3 1_555 1_555
H15_3 C14_3 1_555 1_555
H16_3 C14_3 1_555 1_555
N13_2 Zn5 1_555 1_555
N5_2 C12_3 1_555 1_555
N9_3 C6_3 1_555 1_555
N11_3 C3_3 1_555 1_555
C1_3 C2_3 1_555 1_555
C4_3 C5_3 1_555 1_555
C8_3 C9_3 1_555 1_555
C11_3 C12_3 1_555 1_555
N2_3 N13_2 1_555 1_555
N14_2 C13_4 1_555 1_555
C14_4 C13_4 1_555 1_555
H14_4 C14_4 1_555 1_555
H15_4 C14_4 1_555 1_555
Zn3 N1_4 1_555 1_555
N1_4 C9_4 1_555 1_555
N2_4 N3_2 1_555 1_555
N3_2 C10_4 1_555 1_555
N4_4 Zn3 1_555 1_555
N7_4 Zn3 1_555 1_555
C8_4 H9_4 1_555 1_555
H10_4 C8_4 1_555 1_555
H11_4 C8_4 1_555 1_555
C9_4 N2_4 1_555 1_555
C10_4 N1_4 1_555 1_555
C8_4 C9_4 1_555 1_555
H12_4 C11_4 1_555 1_555
H13_4 C11_4 1_555 1_555
C11_4 C12_4 1_555 1_555
C7_4 C6_4 1_555 1_555
H6_4 C7_4 1_555 1_555
H7_4 C7_4 1_555 1_555
H8_4 C7_4 1_555 1_555
Zn5_2 N9_4 1_555 1_555
N9_4 C5_4 1_555 1_555
N10_4 Zn5_2 1_555 1_555
N11_4 N15 1_555 1_555
N15 C2_4 1_555 1_555
C1_4 H1_4 1_555 1_555
H2_4 C1_4 1_555 1_555
H3_4 C1_4 1_555 1_555
C2_4 N10_4 1_555 1_555
C3_4 N10_4 1_555 1_555
C4_4 C3_4 1_555 1_555
H4_4 C4_4 1_555 1_555
H5_4 C4_4 1_555 1_555
N11_4 C3_4 1_555 1_555
C1_4 C2_4 1_555 1_555
C4_4 C5_4 1_555 1_555

#END
