
###############################################################################
#
# This file contains modified crystal structure data generated from the
# MOF subset of the Cambridge Structural Database (CSD) v543 
# hosted by the Cambridge Crystallographic Data Centre (CCDC).
#
# This work is licensed under the Creative Commons
# Attribution-NonCommercial-ShareAlike 4.0 International License.
# To view a copy of this license, visit
# http://creativecommons.org/licenses/by-nc-sa/4.0/
# or send a letter to
# Creative Commons, PO Box 1866, Mountain View, CA 94042, USA.
#
# CIF created using the CSD Python API on 29 September 2022
# The structure has been converted into the P1 space group
# The structure has a 3D framework
# The original CSD entry PEGBEK01 is in the monoclinic crystal system
# The framework has been calculated to contain at least 10.0% void space
# The void calculation uses a probe of radius 1.32A, grid spacing 0.4
#
###############################################################################

data_PEGBEK01
_chemical_formula_moiety         '(C56 H64 N48 Zn8)n'
_symmetry_cell_setting           triclinic
_symmetry_space_group_name_H-M   'P 1'
_symmetry_Int_Tables_number      1
_space_group_name_Hall           'P 1'
loop_
_symmetry_equiv_pos_site_id
_symmetry_equiv_pos_as_xyz
1 x,y,z
_cell_length_a                   10.680(3)
_cell_length_b                   12.356(3)
_cell_length_c                   17.104(5)
_cell_angle_alpha                90
_cell_angle_beta                 95.470(4)
_cell_angle_gamma                90
_cell_volume                     2246.8
loop_
_atom_site_label
_atom_site_type_symbol
_atom_site_fract_x
_atom_site_fract_y
_atom_site_fract_z
N2 N 0.0745(2) 0.8724(2) 0.56257(16)
N3 N 0.0582(2) 0.7917(2) 0.50589(15)
H9 H 0.0174 0.9955 0.6728
Zn4 Zn 0.20707(3) 0.74485(3) 0.456995(18)
Zn1 Zn 0.72711(3) 0.73610(3) 0.601028(18)
N1 N 0.8834(2) 0.7988(2) 0.56459(14)
N4 N 0.7447(2) 0.59006(19) 0.55066(13)
N5 N 0.8509(2) 0.47024(19) 0.48418(13)
N6 N 0.7756(2) 0.41571(19) 0.53323(14)
N7 N 0.5655(2) 0.79865(19) 0.55543(13)
N8 N 0.5684(2) 0.85863(19) 0.48684(13)
N9 N 0.3709(2) 0.80670(19) 0.50020(13)
N10 N 0.2312(2) 0.78435(19) 0.34519(13)
N11 N 0.3318(2) 0.8560(2) 0.24866(14)
N12 N 0.2408(2) 0.7828(2) 0.21742(14)
C1 C 0.0858(3) 0.6557(3) 0.26811(17)
H1 H 0.0674 0.6374 0.2125
H2 H 0.0091 0.6819 0.2890
H3 H 0.1164 0.5912 0.2973
C2 C 0.1841(3) 0.7420(2) 0.27660(16)
C3 C 0.3232(3) 0.8530(2) 0.32471(16)
C4 C 0.4055(3) 0.9199(2) 0.38222(17)
H4 H 0.4795 0.9448 0.3565
H5 H 0.3580 0.9848 0.3961
C5 C 0.4505(3) 0.8608(2) 0.45628(16)
C6 C 0.4468(3) 0.7684(2) 0.56104(17)
C7 C 0.4011(3) 0.7027(3) 0.62528(17)
H6 H 0.4723 0.6833 0.6631
H7 H 0.3610 0.6366 0.6033
H8 H 0.3399 0.7448 0.6518
C8 C 0.9447(4) 0.9478(3) 0.6612(2)
H10 H 0.9310 0.9054 0.7080
H11 H 0.8698 0.9915 0.6457
C9 C 0.9687(3) 0.8736(3) 0.59599(19)
C10 C 0.9447(3) 0.7505(2) 0.50881(17)
C11 C 0.8897(3) 0.6631(2) 0.45514(16)
H12 H 0.8261 0.6957 0.4162
H13 H 0.9572 0.6324 0.4260
C12 C 0.8295(3) 0.5734(2) 0.49657(15)
C13 C 0.7144(3) 0.4890(2) 0.57083(17)
C14 C 0.6190(3) 0.4635(3) 0.6269(2)
H14 H 0.6173 0.3852 0.6360
H15 H 0.5357 0.4877 0.6046
H16 H 0.6414 0.5009 0.6768
Zn3 Zn 0.22711(3) 0.76390(3) 0.101028(18)
Zn5 Zn 0.79293(3) 0.25515(3) 0.543005(18)
N14 N 0.2244(2) 0.58429(19) 0.46677(14)
N15 N 0.7408(2) 0.7172(2) 0.71742(14)
Zn2 Zn 0.29293(3) 0.24485(3) 0.043005(18)
N10_2 N 0.2688(2) 0.28435(19) 0.15481(13)
N11_2 N 0.1682(2) 0.3560(2) 0.25134(14)
N12_2 N 0.2592(2) 0.2828(2) 0.28258(14)
C1_2 C 0.4142(3) 0.1557(3) 0.23189(17)
H1_2 H 0.4326 0.1374 0.2875
H2_2 H 0.4909 0.1819 0.2110
H3_2 H 0.3836 0.0912 0.2027
C2_2 C 0.3159(3) 0.2420(2) 0.22340(16)
C3_2 C 0.1768(3) 0.3530(2) 0.17529(16)
C4_2 C 0.0945(3) 0.4199(2) 0.11778(17)
H4_2 H 0.0205 0.4448 0.1435
H5_2 H 0.1420 0.4848 0.1039
C5_2 C 0.0495(3) 0.3608(2) 0.04372(16)
Zn3_2 Zn 0.27289(3) 0.26390(3) 0.398972(18)
N14_2 N 0.2756(2) 0.08429(19) 0.03323(14)
N9_2 N 0.1291(2) 0.30670(19) 0.99980(13)
C6_2 C 0.0532(3) 0.2684(2) 0.93896(17)
C7_2 C 0.0989(3) 0.2027(3) 0.87472(17)
H6_2 H 0.0277 0.1833 0.8369
H7_2 H 0.1390 0.1366 0.8967
H8_2 H 0.1601 0.2448 0.8482
N13 N 0.4418(2) 0.2917(2) 0.99411(15)
N8_2 N 0.9316(2) 0.35863(19) 0.01316(13)
C11_2 C 0.6103(3) 0.1631(2) 0.04486(16)
H12_2 H 0.6739 0.1957 0.0838
H13_2 H 0.5428 0.1324 0.0740
C12_2 C 0.6705(3) 0.0734(2) 0.00343(15)
Zn1_2 Zn 0.77289(3) 0.23610(3) 0.898972(18)
N1_2 N 0.6166(2) 0.2988(2) 0.93541(14)
N2_2 N 0.4255(2) 0.3724(2) 0.93743(16)
N4_2 N 0.7553(2) 0.09006(19) 0.94934(13)
N7_2 N 0.9345(2) 0.29865(19) 0.94457(13)
C8_2 C 0.5553(4) 0.4478(3) 0.8388(2)
H9_2 H 0.4826 0.4955 0.8272
H10_2 H 0.5690 0.4054 0.7920
H11_2 H 0.6302 0.4915 0.8543
C9_2 C 0.5313(3) 0.3736(3) 0.90401(19)
C10_2 C 0.5553(3) 0.2505(2) 0.99119(17)
H16_2 H 0.8586 0.0009 0.8232
N15_2 N 0.7592(2) 0.2172(2) 0.78258(14)
N6_2 N 0.7244(2) 0.91571(19) 0.96677(14)
C13_2 C 0.7856(3) 0.9890(2) 0.92917(17)
C14_2 C 0.8810(3) 0.9635(3) 0.8731(2)
H14_2 H 0.8827 0.8852 0.8640
H15_2 H 0.9643 0.9877 0.8954
Zn5_2 Zn 0.70707(3) 0.75515(3) 0.956995(18)
N1_3 N 0.1166(2) 0.2012(2) 0.43541(14)
N4_3 N 0.2553(2) 0.40994(19) 0.44934(13)
N5_2 N 0.1491(2) 0.52976(19) 0.51582(13)
N7_3 N 0.4345(2) 0.20135(19) 0.44457(13)
N8_3 N 0.4316(2) 0.14137(19) 0.51316(13)
N9_3 N 0.6291(2) 0.19330(19) 0.49980(13)
N10_3 N 0.7688(2) 0.21565(19) 0.65481(13)
N11_3 N 0.6682(2) 0.1440(2) 0.75134(14)
C1_3 C 0.9142(3) 0.3443(3) 0.73189(17)
H1_3 H 0.9326 0.3626 0.7875
H2_3 H 0.9909 0.3181 0.7110
H3_3 H 0.8836 0.4088 0.7027
C2_3 C 0.8159(3) 0.2580(2) 0.72340(16)
C3_3 C 0.6768(3) 0.1470(2) 0.67529(16)
C4_3 C 0.5945(3) 0.0801(2) 0.61778(17)
H4_3 H 0.5205 0.0552 0.6435
H5_3 H 0.6420 0.0152 0.6039
C5_3 C 0.5495(3) 0.1392(2) 0.54372(16)
C6_3 C 0.5532(3) 0.2316(2) 0.43896(17)
C7_3 C 0.5989(3) 0.2973(3) 0.37472(17)
H6_3 H 0.5277 0.3167 0.3369
H7_3 H 0.6390 0.3634 0.3967
H8_3 H 0.6601 0.2552 0.3482
C8_3 C 0.0553(4) 0.0522(3) 0.3388(2)
H10_3 H 0.0690 0.0946 0.2920
H11_3 H 0.1302 0.0085 0.3543
C9_3 C 0.0313(3) 0.1264(3) 0.40401(19)
C10_3 C 0.0553(3) 0.2495(2) 0.49119(17)
C11_3 C 0.1103(3) 0.3369(2) 0.54486(16)
H12_3 H 0.1739 0.3043 0.5838
H13_3 H 0.0428 0.3676 0.5740
C12_3 C 0.1705(3) 0.4266(2) 0.50343(15)
C13_3 C 0.2856(3) 0.5110(2) 0.42917(17)
C14_3 C 0.3810(3) 0.5365(3) 0.3731(2)
H14_3 H 0.3827 0.6148 0.3640
H15_3 H 0.4643 0.5123 0.3954
H16_3 H 0.3586 0.4991 0.3232
N13_2 N 0.9418(2) 0.2083(2) 0.49411(15)
N2_3 N 0.9255(2) 0.1276(2) 0.43743(16)
H9_3 H 0.9826 0.0045 0.3272
C13_4 C 0.2144(3) 0.0110(2) 0.07083(17)
C14_4 C 0.1190(3) 0.0365(3) 0.1269(2)
H14_4 H 0.1173 0.1148 0.1360
H15_4 H 0.0357 0.0123 0.1046
N1_4 N 0.3834(2) 0.7012(2) 0.06459(14)
N2_4 N 0.5745(2) 0.6276(2) 0.06257(16)
N3_2 N 0.5582(2) 0.7083(2) 0.00589(15)
N4_4 N 0.2447(2) 0.90994(19) 0.05066(13)
N7_4 N 0.0655(2) 0.70135(19) 0.05543(13)
C8_4 C 0.4447(4) 0.5522(3) 0.1612(2)
H9_4 H 0.5174 0.5045 0.1728
H10_4 H 0.4310 0.5946 0.2080
H11_4 H 0.3698 0.5085 0.1457
C9_4 C 0.4687(3) 0.6264(3) 0.09599(19)
C10_4 C 0.4447(3) 0.7495(2) 0.00881(17)
H16_4 H 0.1414 0.9991 0.1768
N8_4 N 0.0684(2) 0.64137(19) 0.98684(13)
C11_4 C 0.3897(3) 0.8369(2) 0.95514(16)
H12_4 H 0.3261 0.8043 0.9162
H13_4 H 0.4572 0.8676 0.9260
C12_4 C 0.3295(3) 0.9266(2) 0.99657(15)
N9_4 N 0.8709(2) 0.69330(19) 0.00020(13)
C6_4 C 0.9468(3) 0.7316(2) 0.06104(17)
C7_4 C 0.9011(3) 0.7973(3) 0.12528(17)
H6_4 H 0.9723 0.8167 0.1631
H7_4 H 0.8610 0.8634 0.1033
H8_4 H 0.8399 0.7552 0.1518
N10_4 N 0.7312(2) 0.71565(19) 0.84519(13)
N11_4 N 0.8318(2) 0.6440(2) 0.74866(14)
C1_4 C 0.5858(3) 0.8443(3) 0.76811(17)
H1_4 H 0.5674 0.8626 0.7125
H2_4 H 0.5091 0.8181 0.7890
H3_4 H 0.6164 0.9088 0.7973
C2_4 C 0.6841(3) 0.7580(2) 0.77660(16)
C3_4 C 0.8232(3) 0.6470(2) 0.82471(16)
C4_4 C 0.9055(3) 0.5801(2) 0.88222(17)
H4_4 H 0.9795 0.5552 0.8565
H5_4 H 0.8580 0.5152 0.8961
C5_4 C 0.9505(3) 0.6392(2) 0.95628(16)
N5_3 N 0.6491(2) 0.97024(19) 0.01582(13)
N5_4 N 0.3509(2) 0.02976(19) 0.98418(13)
loop_
_geom_bond_atom_site_label_1
_geom_bond_atom_site_label_2
_geom_bond_site_symmetry_1
_geom_bond_site_symmetry_2
N2 N3 1_555 1_555
Zn4 N3 1_555 1_555
Zn1 N1 1_555 1_555
Zn4 N9 1_555 1_555
N1 C9 1_555 1_555
N4 Zn1 1_555 1_555
N5 N6 1_555 1_555
N6 C13 1_555 1_555
N7 Zn1 1_555 1_555
N8 N7 1_555 1_555
N9 C5 1_555 1_555
N10 Zn4 1_555 1_555
N11 N12 1_555 1_555
N12 C2 1_555 1_555
C1 H1 1_555 1_555
H2 C1 1_555 1_555
H3 C1 1_555 1_555
C2 N10 1_555 1_555
C3 N10 1_555 1_555
C4 C3 1_555 1_555
H4 C4 1_555 1_555
H5 C4 1_555 1_555
C5 N8 1_555 1_555
C6 N7 1_555 1_555
C7 C6 1_555 1_555
H6 C7 1_555 1_555
H7 C7 1_555 1_555
H8 C7 1_555 1_555
H10 C8 1_555 1_555
H11 C8 1_555 1_555
C10 N1 1_555 1_555
C11 C10 1_555 1_555
H12 C11 1_555 1_555
H13 C11 1_555 1_555
C12 N4 1_555 1_555
C13 N4 1_555 1_555
C14 C13 1_555 1_555
H14 C14 1_555 1_555
H15 C14 1_555 1_555
H16 C14 1_555 1_555
Zn3 N12 1_555 1_555
Zn5 N6 1_555 1_555
N14 Zn4 1_555 1_555
N15 Zn1 1_555 1_555
N5 C12 1_555 1_555
N9 C6 1_555 1_555
N11 C3 1_555 1_555
C1 C2 1_555 1_555
C4 C5 1_555 1_555
C8 C9 1_555 1_555
C11 C12 1_555 1_555
N10_2 Zn2 1_555 1_555
N11_2 N12_2 1_555 1_555
N12_2 C2_2 1_555 1_555
C1_2 H1_2 1_555 1_555
H2_2 C1_2 1_555 1_555
H3_2 C1_2 1_555 1_555
C2_2 N10_2 1_555 1_555
C3_2 N10_2 1_555 1_555
C4_2 C3_2 1_555 1_555
H4_2 C4_2 1_555 1_555
H5_2 C4_2 1_555 1_555
Zn3_2 N12_2 1_555 1_555
N14_2 Zn2 1_555 1_555
N11_2 C3_2 1_555 1_555
C1_2 C2_2 1_555 1_555
C4_2 C5_2 1_555 1_555
C7_2 C6_2 1_555 1_555
H6_2 C7_2 1_555 1_555
H7_2 C7_2 1_555 1_555
H8_2 C7_2 1_555 1_555
N9_2 C6_2 1_555 1_555
H12_2 C11_2 1_555 1_555
H13_2 C11_2 1_555 1_555
C11_2 C12_2 1_555 1_555
Zn1_2 N1_2 1_555 1_555
N1_2 C9_2 1_555 1_555
N2_2 N13 1_555 1_555
N13 C10_2 1_555 1_555
N4_2 Zn1_2 1_555 1_555
N7_2 Zn1_2 1_555 1_555
C8_2 H9_2 1_555 1_555
H10_2 C8_2 1_555 1_555
H11_2 C8_2 1_555 1_555
C9_2 N2_2 1_555 1_555
C10_2 N1_2 1_555 1_555
N15_2 Zn1_2 1_555 1_555
C8_2 C9_2 1_555 1_555
N6_2 C13_2 1_555 1_555
C14_2 C13_2 1_555 1_555
H14_2 C14_2 1_555 1_555
H15_2 C14_2 1_555 1_555
Zn5_2 N6_2 1_555 1_555
Zn3_2 N1_3 1_555 1_555
Zn5 N9_3 1_555 1_555
N1_3 C9_3 1_555 1_555
N4_3 Zn3_2 1_555 1_555
N5_2 N14 1_555 1_555
N14 C13_3 1_555 1_555
N7_3 Zn3_2 1_555 1_555
N8_3 N7_3 1_555 1_555
N9_3 C5_3 1_555 1_555
N10_3 Zn5 1_555 1_555
N11_3 N15_2 1_555 1_555
N15_2 C2_3 1_555 1_555
C1_3 H1_3 1_555 1_555
H2_3 C1_3 1_555 1_555
H3_3 C1_3 1_555 1_555
C2_3 N10_3 1_555 1_555
C3_3 N10_3 1_555 1_555
C4_3 C3_3 1_555 1_555
H4_3 C4_3 1_555 1_555
H5_3 C4_3 1_555 1_555
C5_3 N8_3 1_555 1_555
C6_3 N7_3 1_555 1_555
C7_3 C6_3 1_555 1_555
H6_3 C7_3 1_555 1_555
H7_3 C7_3 1_555 1_555
H8_3 C7_3 1_555 1_555
H10_3 C8_3 1_555 1_555
H11_3 C8_3 1_555 1_555
C10_3 N1_3 1_555 1_555
C11_3 C10_3 1_555 1_555
H12_3 C11_3 1_555 1_555
H13_3 C11_3 1_555 1_555
C12_3 N4_3 1_555 1_555
C13_3 N4_3 1_555 1_555
C14_3 C13_3 1_555 1_555
H14_3 C14_3 1_555 1_555
H15_3 C14_3 1_555 1_555
H16_3 C14_3 1_555 1_555
N13_2 Zn5 1_555 1_555
N5_2 C12_3 1_555 1_555
N9_3 C6_3 1_555 1_555
N11_3 C3_3 1_555 1_555
C1_3 C2_3 1_555 1_555
C4_3 C5_3 1_555 1_555
C8_3 C9_3 1_555 1_555
C11_3 C12_3 1_555 1_555
N2_3 N13_2 1_555 1_555
N14_2 C13_4 1_555 1_555
C14_4 C13_4 1_555 1_555
H14_4 C14_4 1_555 1_555
H15_4 C14_4 1_555 1_555
Zn3 N1_4 1_555 1_555
N1_4 C9_4 1_555 1_555
N2_4 N3_2 1_555 1_555
N3_2 C10_4 1_555 1_555
N4_4 Zn3 1_555 1_555
N7_4 Zn3 1_555 1_555
C8_4 H9_4 1_555 1_555
H10_4 C8_4 1_555 1_555
H11_4 C8_4 1_555 1_555
C9_4 N2_4 1_555 1_555
C10_4 N1_4 1_555 1_555
C8_4 C9_4 1_555 1_555
H12_4 C11_4 1_555 1_555
H13_4 C11_4 1_555 1_555
C11_4 C12_4 1_555 1_555
C7_4 C6_4 1_555 1_555
H6_4 C7_4 1_555 1_555
H7_4 C7_4 1_555 1_555
H8_4 C7_4 1_555 1_555
N9_4 C6_4 1_555 1_555
N10_4 Zn5_2 1_555 1_555
N11_4 N15 1_555 1_555
N15 C2_4 1_555 1_555
C1_4 H1_4 1_555 1_555
H2_4 C1_4 1_555 1_555
H3_4 C1_4 1_555 1_555
C2_4 N10_4 1_555 1_555
C3_4 N10_4 1_555 1_555
C4_4 C3_4 1_555 1_555
H4_4 C4_4 1_555 1_555
H5_4 C4_4 1_555 1_555
N11_4 C3_4 1_555 1_555
C1_4 C2_4 1_555 1_555
C4_4 C5_4 1_555 1_555

#END
