
###############################################################################
#
# This file contains modified crystal structure data generated from the
# MOF subset of the Cambridge Structural Database (CSD) v543 
# hosted by the Cambridge Crystallographic Data Centre (CCDC).
#
# This work is licensed under the Creative Commons
# Attribution-NonCommercial-ShareAlike 4.0 International License.
# To view a copy of this license, visit
# http://creativecommons.org/licenses/by-nc-sa/4.0/
# or send a letter to
# Creative Commons, PO Box 1866, Mountain View, CA 94042, USA.
#
# CIF created using the CSD Python API on 29 September 2022
# The structure has been converted into the P1 space group
# The structure has a 3D framework
# The original CSD entry PEGCEL is in the monoclinic crystal system
# The framework has been calculated to contain at least 10.0% void space
# The void calculation uses a probe of radius 1.32A, grid spacing 0.4
#
###############################################################################

data_PEGCEL
_chemical_formula_moiety         '(C56 H64 N48 Zn8)n'
_symmetry_cell_setting           triclinic
_symmetry_space_group_name_H-M   'P 1'
_symmetry_Int_Tables_number      1
_space_group_name_Hall           'P 1'
loop_
_symmetry_equiv_pos_site_id
_symmetry_equiv_pos_as_xyz
1 x,y,z
_cell_length_a                   10.877(5)
_cell_length_b                   12.829(6)
_cell_length_c                   16.881(8)
_cell_angle_alpha                90
_cell_angle_beta                 94.445(6)
_cell_angle_gamma                90
_cell_volume                     2348.51
loop_
_atom_site_label
_atom_site_type_symbol
_atom_site_fract_x
_atom_site_fract_y
_atom_site_fract_z
N2 N 0.0588(4) 0.8696(3) 0.5525(3)
N3 N 0.0528(3) 0.7852(3) 0.5013(2)
Zn4 Zn 0.20527(4) 0.73983(3) 0.45509(3)
Zn1 Zn 0.72393(4) 0.72686(4) 0.59466(3)
N1 N 0.8758(3) 0.7909(3) 0.5554(2)
N4 N 0.7530(3) 0.5839(3) 0.55044(19)
N5 N 0.8582(3) 0.4674(3) 0.48426(19)
N6 N 0.7851(3) 0.4155(3) 0.53550(19)
N7 N 0.5641(3) 0.7822(3) 0.5480(2)
N8 N 0.5645(3) 0.8457(3) 0.4810(2)
N9 N 0.3724(3) 0.7907(3) 0.49575(19)
N10 N 0.2292(3) 0.7835(3) 0.34258(19)
N11 N 0.3286(3) 0.8552(3) 0.2450(2)
N12 N 0.2383(3) 0.7872(3) 0.2128(2)
C1 C 0.0824(4) 0.6663(4) 0.2630(3)
H1 H 0.0666 0.6484 0.2067
H2 H 0.0068 0.6939 0.2832
H3 H 0.1085 0.6037 0.2931
C2 C 0.1816(4) 0.7466(3) 0.2723(2)
C3 C 0.3201(4) 0.8490(3) 0.3220(2)
C4 C 0.4025(4) 0.9102(4) 0.3812(3)
H4 H 0.4743 0.9364 0.3544
H5 H 0.3564 0.9714 0.3988
C5 C 0.4482(4) 0.8485(3) 0.4524(2)
C6 C 0.4490(4) 0.7512(3) 0.5548(2)
C7 C 0.4072(4) 0.6825(4) 0.6187(3)
H6 H 0.4777 0.6652 0.6561
H7 H 0.3720 0.6183 0.5951
H8 H 0.3445 0.7189 0.6469
C8 C 0.9137(6) 0.9484(6) 0.6418(5)
H9 H 0.9836 0.9946 0.6562
H10 H 0.8894 0.9126 0.6895
H11 H 0.8441 0.9895 0.6185
C9 C 0.9498(4) 0.8701(4) 0.5832(3)
C10 C 0.9434(4) 0.7412(3) 0.5040(3)
C11 C 0.8965(4) 0.6524(3) 0.4525(2)
H12 H 0.9664 0.6228 0.4256
H13 H 0.8361 0.6799 0.4108
C12 C 0.8365(3) 0.5662(3) 0.4958(2)
C13 C 0.7242(4) 0.4871(3) 0.5732(2)
C14 C 0.6325(5) 0.4626(4) 0.6323(3)
H14 H 0.6301 0.3871 0.6409
H15 H 0.5507 0.4869 0.6120
H16 H 0.6567 0.4976 0.6827
Zn3 Zn 0.22393(4) 0.77314(4) 0.09466(3)
Zn5 Zn 0.79473(4) 0.26017(3) 0.54491(3)
N14 N 0.2149(3) 0.5845(3) 0.46450(19)
N15 N 0.7383(3) 0.7128(3) 0.7128(2)
Zn2 Zn 0.29473(4) 0.23983(3) 0.04491(3)
N9_2 N 0.1276(3) 0.2907(3) 0.00425(19)
N10_2 N 0.2708(3) 0.2835(3) 0.15742(19)
N11_2 N 0.1714(3) 0.3552(3) 0.2550(2)
N12_2 N 0.2617(3) 0.2872(3) 0.2872(2)
C1_2 C 0.4176(4) 0.1663(4) 0.2370(3)
H1_2 H 0.4334 0.1484 0.2933
H2_2 H 0.4932 0.1939 0.2168
H3_2 H 0.3915 0.1037 0.2069
C2_2 C 0.3184(4) 0.2466(3) 0.2277(2)
C3_2 C 0.1799(4) 0.3490(3) 0.1780(2)
C4_2 C 0.0975(4) 0.4102(4) 0.1188(3)
H4_2 H 0.0257 0.4364 0.1456
H5_2 H 0.1436 0.4714 0.1012
C5_2 C 0.0518(4) 0.3485(3) 0.0476(2)
Zn3_2 Zn 0.27607(4) 0.27314(4) 0.40534(3)
N14_2 N 0.2851(3) 0.0845(3) 0.03550(19)
C6_2 C 0.0510(4) 0.2512(3) 0.9452(2)
C7_2 C 0.0928(4) 0.1825(4) 0.8813(3)
H6_2 H 0.0223 0.1652 0.8439
H7_2 H 0.1280 0.1183 0.9049
H8_2 H 0.1555 0.2189 0.8531
N13 N 0.4472(3) 0.2852(3) 0.9987(2)
N8_2 N 0.9355(3) 0.3457(3) 0.0190(2)
C11_2 C 0.6035(4) 0.1524(3) 0.0475(2)
H12_2 H 0.5336 0.1228 0.0744
H13_2 H 0.6639 0.1799 0.0892
C12_2 C 0.6635(3) 0.0662(3) 0.0042(2)
Zn1_2 Zn 0.77607(4) 0.22686(4) 0.90534(3)
N1_2 N 0.6242(3) 0.2909(3) 0.9446(2)
N2_2 N 0.4412(4) 0.3696(3) 0.9475(3)
N4_2 N 0.7470(3) 0.0839(3) 0.94956(19)
N7_2 N 0.9359(3) 0.2822(3) 0.9520(2)
C8_2 C 0.5863(6) 0.4484(6) 0.8582(5)
H9_2 H 0.5164 0.4946 0.8438
H10_2 H 0.6106 0.4126 0.8105
H11_2 H 0.6559 0.4895 0.8815
C9_2 C 0.5502(4) 0.3701(4) 0.9168(3)
C10_2 C 0.5566(4) 0.2412(3) 0.9960(3)
N15_2 N 0.7617(3) 0.2128(3) 0.7872(2)
N6_2 N 0.7149(3) 0.9155(3) 0.96450(19)
C13_2 C 0.7758(4) 0.9871(3) 0.9268(2)
C14_2 C 0.8675(5) 0.9626(4) 0.8677(3)
H14_2 H 0.8699 0.8871 0.8591
H15_2 H 0.9493 0.9869 0.8880
H16_2 H 0.8433 0.9976 0.8173
Zn5_2 Zn 0.70527(4) 0.76017(3) 0.95509(3)
N1_3 N 0.1242(3) 0.2091(3) 0.4446(2)
N4_3 N 0.2470(3) 0.4161(3) 0.44956(19)
N5_2 N 0.1418(3) 0.5326(3) 0.51574(19)
N7_3 N 0.4359(3) 0.2178(3) 0.4520(2)
N8_3 N 0.4355(3) 0.1543(3) 0.5190(2)
N9_3 N 0.6276(3) 0.2093(3) 0.50425(19)
N10_3 N 0.7708(3) 0.2165(3) 0.65742(19)
N11_3 N 0.6714(3) 0.1448(3) 0.7550(2)
C1_3 C 0.9176(4) 0.3337(4) 0.7370(3)
H1_3 H 0.9334 0.3516 0.7933
H2_3 H 0.9932 0.3061 0.7168
H3_3 H 0.8915 0.3963 0.7069
C2_3 C 0.8184(4) 0.2534(3) 0.7277(2)
C3_3 C 0.6799(4) 0.1510(3) 0.6780(2)
C4_3 C 0.5975(4) 0.0898(4) 0.6188(3)
H4_3 H 0.5257 0.0636 0.6456
H5_3 H 0.6436 0.0286 0.6012
C5_3 C 0.5518(4) 0.1515(3) 0.5476(2)
C6_3 C 0.5510(4) 0.2488(3) 0.4452(2)
C7_3 C 0.5928(4) 0.3175(4) 0.3813(3)
H6_3 H 0.5223 0.3348 0.3439
H7_3 H 0.6280 0.3817 0.4049
H8_3 H 0.6555 0.2811 0.3531
C8_3 C 0.0863(6) 0.0516(6) 0.3582(5)
H9_3 H 0.0164 0.0054 0.3438
H10_3 H 0.1106 0.0874 0.3105
H11_3 H 0.1559 0.0105 0.3815
C9_3 C 0.0502(4) 0.1299(4) 0.4168(3)
C10_3 C 0.0566(4) 0.2588(3) 0.4960(3)
C11_3 C 0.1035(4) 0.3476(3) 0.5475(2)
H12_3 H 0.0336 0.3772 0.5744
H13_3 H 0.1639 0.3201 0.5892
C12_3 C 0.1635(3) 0.4338(3) 0.5042(2)
C13_3 C 0.2758(4) 0.5129(3) 0.4268(2)
C14_3 C 0.3675(5) 0.5374(4) 0.3677(3)
H14_3 H 0.3699 0.6129 0.3591
H15_3 H 0.4493 0.5131 0.3880
H16_3 H 0.3433 0.5024 0.3173
N13_2 N 0.9472(3) 0.2148(3) 0.4987(2)
N2_3 N 0.9412(4) 0.1304(3) 0.4475(3)
C13_4 C 0.2242(4) 0.0129(3) 0.0732(2)
C14_4 C 0.1325(5) 0.0374(4) 0.1323(3)
H14_4 H 0.1301 0.1129 0.1409
H15_4 H 0.0507 0.0131 0.1120
H16_4 H 0.1567 0.0024 0.1827
N1_4 N 0.3758(3) 0.7091(3) 0.0554(2)
N2_4 N 0.5588(4) 0.6304(3) 0.0525(3)
N3_2 N 0.5528(3) 0.7148(3) 0.0013(2)
N4_4 N 0.2530(3) 0.9161(3) 0.05044(19)
N7_4 N 0.0641(3) 0.7178(3) 0.0480(2)
C8_4 C 0.4137(6) 0.5516(6) 0.1418(5)
H9_4 H 0.4836 0.5054 0.1562
H10_4 H 0.3894 0.5874 0.1895
H11_4 H 0.3441 0.5105 0.1185
C9_4 C 0.4498(4) 0.6299(4) 0.0832(3)
C10_4 C 0.4434(4) 0.7588(3) 0.0040(3)
N8_4 N 0.0645(3) 0.6543(3) 0.9810(2)
C11_4 C 0.3965(4) 0.8476(3) 0.9525(2)
H12_4 H 0.4664 0.8772 0.9256
H13_4 H 0.3361 0.8201 0.9108
C12_4 C 0.3365(3) 0.9338(3) 0.9958(2)
C6_4 C 0.9490(4) 0.7488(3) 0.0548(2)
C7_4 C 0.9072(4) 0.8175(4) 0.1187(3)
H6_4 H 0.9777 0.8348 0.1561
H7_4 H 0.8720 0.8817 0.0951
H8_4 H 0.8445 0.7811 0.1469
N9_4 N 0.8724(3) 0.7093(3) 0.99575(19)
N10_4 N 0.7292(3) 0.7165(3) 0.84258(19)
N11_4 N 0.8286(3) 0.6448(3) 0.7450(2)
C1_4 C 0.5824(4) 0.8337(4) 0.7630(3)
H1_4 H 0.5666 0.8516 0.7067
H2_4 H 0.5068 0.8061 0.7832
H3_4 H 0.6085 0.8963 0.7931
C2_4 C 0.6816(4) 0.7534(3) 0.7723(2)
C3_4 C 0.8201(4) 0.6510(3) 0.8220(2)
C4_4 C 0.9025(4) 0.5898(4) 0.8812(3)
H4_4 H 0.9743 0.5636 0.8544
H5_4 H 0.8564 0.5286 0.8988
C5_4 C 0.9482(4) 0.6515(3) 0.9524(2)
N5_3 N 0.6418(3) 0.9674(3) 0.01574(19)
N5_4 N 0.3582(3) 0.0326(3) 0.98426(19)
loop_
_geom_bond_atom_site_label_1
_geom_bond_atom_site_label_2
_geom_bond_site_symmetry_1
_geom_bond_site_symmetry_2
N2 N3 1_555 1_555
Zn4 N3 1_555 1_555
Zn1 N1 1_555 1_555
Zn4 N9 1_555 1_555
N1 C9 1_555 1_555
N4 Zn1 1_555 1_555
N5 N6 1_555 1_555
N6 C13 1_555 1_555
N7 Zn1 1_555 1_555
N8 N7 1_555 1_555
N9 C5 1_555 1_555
N10 Zn4 1_555 1_555
N11 N12 1_555 1_555
N12 C2 1_555 1_555
C1 H1 1_555 1_555
H2 C1 1_555 1_555
H3 C1 1_555 1_555
C2 N10 1_555 1_555
C3 N10 1_555 1_555
C4 C3 1_555 1_555
H4 C4 1_555 1_555
H5 C4 1_555 1_555
C5 N8 1_555 1_555
C6 N7 1_555 1_555
C7 C6 1_555 1_555
H6 C7 1_555 1_555
H7 C7 1_555 1_555
H8 C7 1_555 1_555
C8 H9 1_555 1_555
H10 C8 1_555 1_555
H11 C8 1_555 1_555
C10 N1 1_555 1_555
C11 C10 1_555 1_555
H12 C11 1_555 1_555
H13 C11 1_555 1_555
C12 N4 1_555 1_555
C13 N4 1_555 1_555
C14 C13 1_555 1_555
H14 C14 1_555 1_555
H15 C14 1_555 1_555
H16 C14 1_555 1_555
Zn3 N12 1_555 1_555
Zn5 N6 1_555 1_555
N14 Zn4 1_555 1_555
N15 Zn1 1_555 1_555
N5 C12 1_555 1_555
N9 C6 1_555 1_555
N11 C3 1_555 1_555
C1 C2 1_555 1_555
C4 C5 1_555 1_555
C8 C9 1_555 1_555
C11 C12 1_555 1_555
Zn2 N9_2 1_555 1_555
N9_2 C5_2 1_555 1_555
N10_2 Zn2 1_555 1_555
N11_2 N12_2 1_555 1_555
N12_2 C2_2 1_555 1_555
C1_2 H1_2 1_555 1_555
H2_2 C1_2 1_555 1_555
H3_2 C1_2 1_555 1_555
C2_2 N10_2 1_555 1_555
C3_2 N10_2 1_555 1_555
C4_2 C3_2 1_555 1_555
H4_2 C4_2 1_555 1_555
H5_2 C4_2 1_555 1_555
Zn3_2 N12_2 1_555 1_555
N14_2 Zn2 1_555 1_555
N11_2 C3_2 1_555 1_555
C1_2 C2_2 1_555 1_555
C4_2 C5_2 1_555 1_555
C7_2 C6_2 1_555 1_555
H6_2 C7_2 1_555 1_555
H7_2 C7_2 1_555 1_555
H8_2 C7_2 1_555 1_555
H12_2 C11_2 1_555 1_555
H13_2 C11_2 1_555 1_555
C11_2 C12_2 1_555 1_555
Zn1_2 N1_2 1_555 1_555
N1_2 C9_2 1_555 1_555
N2_2 N13 1_555 1_555
N13 C10_2 1_555 1_555
N4_2 Zn1_2 1_555 1_555
N7_2 Zn1_2 1_555 1_555
C8_2 H9_2 1_555 1_555
H10_2 C8_2 1_555 1_555
H11_2 C8_2 1_555 1_555
C9_2 N2_2 1_555 1_555
C10_2 N1_2 1_555 1_555
N15_2 Zn1_2 1_555 1_555
C8_2 C9_2 1_555 1_555
N6_2 C13_2 1_555 1_555
C14_2 C13_2 1_555 1_555
H14_2 C14_2 1_555 1_555
H15_2 C14_2 1_555 1_555
H16_2 C14_2 1_555 1_555
Zn5_2 N6_2 1_555 1_555
Zn3_2 N1_3 1_555 1_555
Zn5 N9_3 1_555 1_555
N1_3 C9_3 1_555 1_555
N4_3 Zn3_2 1_555 1_555
N5_2 N14 1_555 1_555
N14 C13_3 1_555 1_555
N7_3 Zn3_2 1_555 1_555
N8_3 N7_3 1_555 1_555
N9_3 C5_3 1_555 1_555
N10_3 Zn5 1_555 1_555
N11_3 N15_2 1_555 1_555
N15_2 C2_3 1_555 1_555
C1_3 H1_3 1_555 1_555
H2_3 C1_3 1_555 1_555
H3_3 C1_3 1_555 1_555
C2_3 N10_3 1_555 1_555
C3_3 N10_3 1_555 1_555
C4_3 C3_3 1_555 1_555
H4_3 C4_3 1_555 1_555
H5_3 C4_3 1_555 1_555
C5_3 N8_3 1_555 1_555
C6_3 N7_3 1_555 1_555
C7_3 C6_3 1_555 1_555
H6_3 C7_3 1_555 1_555
H7_3 C7_3 1_555 1_555
H8_3 C7_3 1_555 1_555
C8_3 H9_3 1_555 1_555
H10_3 C8_3 1_555 1_555
H11_3 C8_3 1_555 1_555
C10_3 N1_3 1_555 1_555
C11_3 C10_3 1_555 1_555
H12_3 C11_3 1_555 1_555
H13_3 C11_3 1_555 1_555
C12_3 N4_3 1_555 1_555
C13_3 N4_3 1_555 1_555
C14_3 C13_3 1_555 1_555
H14_3 C14_3 1_555 1_555
H15_3 C14_3 1_555 1_555
H16_3 C14_3 1_555 1_555
N13_2 Zn5 1_555 1_555
N5_2 C12_3 1_555 1_555
N9_3 C6_3 1_555 1_555
N11_3 C3_3 1_555 1_555
C1_3 C2_3 1_555 1_555
C4_3 C5_3 1_555 1_555
C8_3 C9_3 1_555 1_555
C11_3 C12_3 1_555 1_555
N2_3 N13_2 1_555 1_555
N14_2 C13_4 1_555 1_555
C14_4 C13_4 1_555 1_555
H14_4 C14_4 1_555 1_555
H15_4 C14_4 1_555 1_555
H16_4 C14_4 1_555 1_555
Zn3 N1_4 1_555 1_555
N1_4 C9_4 1_555 1_555
N2_4 N3_2 1_555 1_555
N3_2 C10_4 1_555 1_555
N4_4 Zn3 1_555 1_555
N7_4 Zn3 1_555 1_555
C8_4 H9_4 1_555 1_555
H10_4 C8_4 1_555 1_555
H11_4 C8_4 1_555 1_555
C9_4 N2_4 1_555 1_555
C10_4 N1_4 1_555 1_555
C8_4 C9_4 1_555 1_555
H12_4 C11_4 1_555 1_555
H13_4 C11_4 1_555 1_555
C11_4 C12_4 1_555 1_555
C7_4 C6_4 1_555 1_555
H6_4 C7_4 1_555 1_555
H7_4 C7_4 1_555 1_555
H8_4 C7_4 1_555 1_555
Zn5_2 N9_4 1_555 1_555
N9_4 C5_4 1_555 1_555
N10_4 Zn5_2 1_555 1_555
N11_4 N15 1_555 1_555
N15 C2_4 1_555 1_555
C1_4 H1_4 1_555 1_555
H2_4 C1_4 1_555 1_555
H3_4 C1_4 1_555 1_555
C2_4 N10_4 1_555 1_555
C3_4 N10_4 1_555 1_555
C4_4 C3_4 1_555 1_555
H4_4 C4_4 1_555 1_555
H5_4 C4_4 1_555 1_555
N11_4 C3_4 1_555 1_555
C1_4 C2_4 1_555 1_555
C4_4 C5_4 1_555 1_555

#END
