
###############################################################################
#
# This file contains modified crystal structure data generated from the
# MOF subset of the Cambridge Structural Database (CSD) v543 
# hosted by the Cambridge Crystallographic Data Centre (CCDC).
#
# This work is licensed under the Creative Commons
# Attribution-NonCommercial-ShareAlike 4.0 International License.
# To view a copy of this license, visit
# http://creativecommons.org/licenses/by-nc-sa/4.0/
# or send a letter to
# Creative Commons, PO Box 1866, Mountain View, CA 94042, USA.
#
# CIF created using the CSD Python API on 29 September 2022
# The structure has been converted into the P1 space group
# The structure has a 3D framework
# The original CSD entry PEGCIP is in the hexagonal crystal system
# The original CSD entry PEGCIP is in a Sohncke space group
# The framework has been calculated to contain at least 10.0% void space
# The void calculation uses a probe of radius 1.32A, grid spacing 0.4
#
###############################################################################

data_PEGCIP
_chemical_formula_moiety         '(C204 H120 O58 S24 Zn12)n'
_symmetry_cell_setting           triclinic
_symmetry_space_group_name_H-M   'P 1'
_symmetry_Int_Tables_number      1
_space_group_name_Hall           'P 1'
loop_
_symmetry_equiv_pos_site_id
_symmetry_equiv_pos_as_xyz
1 x,y,z
_cell_length_a                   19.293(3)
_cell_length_b                   19.293(3)
_cell_length_c                   20.838(3)
_cell_angle_alpha                90
_cell_angle_beta                 90
_cell_angle_gamma                120
_cell_volume                     6717.17
loop_
_atom_site_label
_atom_site_type_symbol
_atom_site_fract_x
_atom_site_fract_y
_atom_site_fract_z
C7 C 0.1201(2) 0.3976(2) 0.07438(17)
C8 C 0.0587(2) 0.3699(2) 0.11969(18)
H1 H 0.0555 0.4066 0.1482
C9 C 0.0670(2) 0.2636(2) 0.03517(18)
H2 H 0.0699 0.2272 0.0062
C10 C 0.0068(2) 0.2357(2) 0.08122(17)
C11 C 0.0027(2) 0.2897(2) 0.12328(19)
C12 C 0.12267(7) 0.34458(7) 0.03141(6)
C13 C 0.18523(7) 0.48396(7) 0.07199(6)
O1 O 0.18233(7) 0.53382(7) 0.10875(6)
O2 O 0.24154(7) 0.50005(7) 0.03327(6)
Zn6 Zn 0.27772(2) 0.64659(3) 0.12386(2)
H4 H 0.1628 0.3636 0.9991
Zn3 Zn 0.27716(3) 0.56431(2) 0.95346(2)
S4 S 0.00250(5) 0.92704(5) 0.10690(4)
C28 C 0.1305(2) 0.7537(2) 0.16457(17)
C29 C 0.1349(2) 0.8202(2) 0.19379(17)
H13 H 0.1770 0.8505 0.2232
C30 C 0.0789(2) 0.8432(2) 0.18082(18)
H14 H 0.0833 0.8895 0.2006
C31 C 0.0167(2) 0.7984(2) 0.13892(17)
C32 C 0.0125(2) 0.7325(2) 0.10833(18)
C33 C 0.0693(2) 0.7107(2) 0.12173(19)
H16 H 0.0661 0.6652 0.1010
C34 C 0.1900(2) 0.7283(2) 0.18030(18)
O7 O 0.19245(14) 0.67745(14) 0.14533(12)
O8 O 0.23346(14) 0.76102(15) 0.22982(12)
Zn5 Zn 0.28715(2) 0.72284(3) 0.28680(2)
S1 S 0.99958(5) 0.09057(5) 0.08589(5)
S2 S 0.82336(5) 0.00204(6) 0.09366(5)
C3 C 0.9518(2) 0.1482(2) 0.08672(18)
C4 C 0.8716(2) 0.1074(2) 0.09047(17)
H3 H 0.9613 0.2711 0.1545
C14 C 0.71498(7) 0.20364(7) 0.09510(6)
C15 C 0.77766(7) 0.23362(7) 0.05161(6)
H5 H 0.7855 0.2753 0.0231
C16 C 0.8291(2) 0.2027(2) 0.04970(18)
H6 H 0.8723 0.2235 0.0200
C17 C 0.8173(2) 0.1409(2) 0.09165(17)
C18 C 0.7543(2) 0.1114(2) 0.13557(19)
H7 H 0.7465 0.0701 0.1645
C19 C 0.7031(2) 0.1422(2) 0.13712(18)
H8 H 0.6599 0.1216 0.1668
C20 C 0.6589(2) 0.2352(2) 0.09793(18)
O3 O 0.60672(15) 0.21220(16) 0.14146(12)
O4 O 0.66453(15) 0.28747(15) 0.05751(12)
Zn1 Zn 0.56431(2) 0.28715(2) 0.12013(2)
H17 H 0.618(2) 0.388(2) 0.0145(11)
O12 O 0.50005(7) 0.25851(10) 0.19994(6)
O13 O 0.61497(15) 0.40465(15) 0.11017(12)
O16 O 0.47244(21) 0.23346(14) 0.06315(12)
Zn2 Zn 0.63113(2) 0.27772(2) 0.95719(2)
O9 O 0.60855(16) 0.37230(15) 0.97558(13)
H18 H 0.631(2) 0.4015(19) 0.9456(13)
O10 O 0.74877(16) 0.36809(16) 0.94302(13)
H19 H 0.761(2) 0.362(2) 0.9066(12)
H20 H 0.755(2) 0.4144(15) 0.952(2)
O11 O 0.64851(10) 0.18233(7) 0.94208(6)
O14 O 0.59924(13) 0.28390(18) 0.86018(12)
O15 O 0.51500(20) 0.19245(14) 0.97866(12)
C1 C 0.9119(2) 0.9976(2) 0.09567(17)
C2 C 0.9130(2) 0.9300(2) 0.10314(16)
S3 S 0.82646(5) 0.83495(5) 0.10927(5)
C5 C 0.8775(2) 0.7817(2) 0.12540(18)
C6 C 0.9577(2) 0.8251(2) 0.12576(17)
C21 C 0.7244(2) 0.5279(2) 0.14578(17)
C22 C 0.7920(2) 0.5685(2) 0.18398(17)
H9 H 0.8043 0.5396 0.2145
C23 C 0.8417(2) 0.6505(2) 0.17819(17)
H10 H 0.8875 0.6774 0.2049
C24 C 0.8250(2) 0.6940(2) 0.13342(17)
C25 C 0.7560(2) 0.6531(2) 0.09587(18)
H11 H 0.7428 0.6820 0.0660
C26 C 0.7067(2) 0.5715(2) 0.10165(18)
H12 H 0.6604 0.5447 0.0754
C27 C 0.6720(2) 0.4394(2) 0.15091(17)
O6 O 0.68466(13) 0.40076(13) 0.19351(12)
H15 H 0.9710 0.7026 0.0784
Zn7 Zn 0.64659(3) 0.36887(2) 0.29052(2)
S4_2 S 0.07296(5) 0.07546(7) 0.77357(4)
C5_2 C 0.2183(2) 0.0958(3) 0.79207(18)
C6_2 C 0.1749(2) 0.1326(3) 0.79243(17)
C21_2 C 0.4721(2) 0.1965(3) 0.81245(17)
C22_2 C 0.4315(2) 0.2235(3) 0.85065(17)
H9_2 H 0.4604 0.2647 0.8812
C23_2 C 0.3495(2) 0.1912(3) 0.84486(17)
H10_2 H 0.3226 0.2101 0.8716
C24_2 C 0.3060(2) 0.1310(3) 0.80009(17)
C25_2 C 0.3469(2) 0.1029(3) 0.76254(18)
H11_2 H 0.3180 0.0608 0.7327
C26_2 C 0.4285(2) 0.1352(3) 0.76832(18)
H12_2 H 0.4553 0.1157 0.7421
C27_2 C 0.5606(2) 0.2326(3) 0.81758(17)
O5 O 0.59535(15) 0.21032(21) 0.77684(12)
C28_2 C 0.2463(2) 0.3768(3) 0.83124(17)
C29_2 C 0.1798(2) 0.3147(3) 0.86046(17)
H13_2 H 0.1495 0.3265 0.8899
C30_2 C 0.1568(2) 0.2357(3) 0.84749(18)
H14_2 H 0.1105 0.1938 0.8673
C31_2 C 0.2016(2) 0.2183(3) 0.80559(17)
C32_2 C 0.2675(2) 0.2800(3) 0.77500(18)
H15_2 H 0.2974 0.2684 0.7451
C33_2 C 0.2893(2) 0.3586(3) 0.78840(19)
H16_2 H 0.3348 0.4009 0.7677
C34_2 C 0.2717(2) 0.4617(3) 0.84697(18)
O7_2 O 0.32255(14) 0.51500(20) 0.81200(12)
O8_2 O 0.23898(15) 0.47244(21) 0.89649(12)
Zn4 Zn 0.71285(2) 0.27716(3) 0.78680(2)
Zn8 Zn 0.35341(3) 0.63113(4) 0.79052(2)
S1_2 S 0.90943(5) 0.90901(7) 0.75256(5)
S2_2 S 0.99796(6) 0.82132(8) 0.76033(5)
C3_2 C 0.8518(2) 0.8036(3) 0.75339(18)
C4_2 C 0.8926(2) 0.7642(3) 0.75714(17)
C7_2 C 0.6024(2) 0.7225(3) 0.74105(17)
C8_2 C 0.6301(2) 0.6888(3) 0.78636(18)
H1_2 H 0.5934 0.6489 0.8149
C9_2 C 0.7364(2) 0.8034(3) 0.70184(18)
H2_2 H 0.7728 0.8427 0.6729
C10_2 C 0.7643(2) 0.7711(3) 0.74789(17)
C11_2 C 0.7103(2) 0.7130(3) 0.78995(19)
H3_2 H 0.7289 0.6902 0.8212
C12_2 C 0.65542(7) 0.77809(10) 0.69808(6)
H4_2 H 0.6364 0.7992 0.6658
C13_2 C 0.51604(7) 0.70127(10) 0.73866(6)
O1_2 O 0.46618(7) 0.64851(10) 0.77542(6)
O2_2 O 0.49995(7) 0.74149(10) 0.69994(6)
C14_2 C 0.79636(7) 0.51134(10) 0.76177(6)
C15_2 C 0.76638(7) 0.54404(10) 0.71828(6)
H5_2 H 0.7247 0.5102 0.6898
C16_2 C 0.7973(2) 0.6264(3) 0.71637(18)
H6_2 H 0.7765 0.6488 0.6867
C17_2 C 0.8591(2) 0.6764(3) 0.75832(17)
C18_2 C 0.8886(2) 0.6429(3) 0.80224(19)
H7_2 H 0.9299 0.6764 0.8312
C19_2 C 0.8578(2) 0.5609(3) 0.80379(18)
H8_2 H 0.8784 0.5383 0.8335
C20_2 C 0.7648(2) 0.4237(3) 0.76460(18)
O3_2 O 0.78780(16) 0.39452(22) 0.80813(12)
O4_2 O 0.71253(15) 0.37706(21) 0.72418(12)
Zn2_2 Zn 0.72228(2) 0.35341(3) 0.62386(2)
O9_2 O 0.62770(15) 0.23625(22) 0.64225(13)
H17_2 H 0.612(2) 0.230(3) 0.6812(11)
H18_2 H 0.5985(19) 0.2295(28) 0.6123(13)
O10_2 O 0.63191(16) 0.38068(23) 0.60969(13)
H19_2 H 0.638(2) 0.399(3) 0.5733(12)
H20_2 H 0.5856(15) 0.3406(25) 0.619(2)
O11_2 O 0.81767(7) 0.46618(12) 0.60875(6)
O12_2 O 0.74149(10) 0.24154(12) 0.86660(6)
O14_2 O 0.71610(18) 0.31534(22) 0.52684(12)
O15_2 O 0.80755(14) 0.32255(24) 0.64533(12)
O16_2 O 0.76654(14) 0.23898(25) 0.72982(12)
Zn3_2 Zn 0.43569(2) 0.71285(4) 0.62013(2)
C1_2 C 0.0857(3) 0.0881(2) 0.42900(17)
C2_2 C 0.0170(3) 0.0870(2) 0.43647(16)
S1_3 S 0.09099(7) 0.00042(5) 0.41922(5)
S2_3 S 0.17868(8) 0.17664(5) 0.42699(5)
S3_2 S 0.00849(7) 0.17354(5) 0.44260(5)
C3_3 C 0.1964(3) 0.0482(2) 0.42005(18)
C4_3 C 0.2358(3) 0.1284(2) 0.42380(17)
H3_3 H 0.3098 0.0387 0.4878
C14_3 C 0.48866(10) 0.28502(7) 0.42843(6)
C15_3 C 0.45596(10) 0.22234(7) 0.38494(6)
H5_3 H 0.4898 0.2145 0.3564
C16_3 C 0.3736(3) 0.1709(2) 0.38303(18)
H6_3 H 0.3512 0.1277 0.3533
C17_3 C 0.3236(3) 0.1827(2) 0.42498(17)
C18_3 C 0.3571(3) 0.2457(2) 0.46890(19)
H7_3 H 0.3236 0.2535 0.4978
C19_3 C 0.4391(3) 0.2969(2) 0.47045(18)
H8_3 H 0.4617 0.3401 0.5001
C20_3 C 0.5763(3) 0.3411(2) 0.43126(18)
O3_3 O 0.60548(22) 0.39328(15) 0.47479(12)
O4_3 O 0.62294(21) 0.33547(15) 0.39084(12)
Zn1_2 Zn 0.72284(3) 0.43569(2) 0.45346(2)
O9_3 O 0.76375(22) 0.39145(16) 0.30891(13)
H17_3 H 0.770(3) 0.382(2) 0.3478(11)
H18_3 H 0.7705(28) 0.369(2) 0.2789(13)
O10_3 O 0.61932(23) 0.25123(16) 0.27635(13)
H19_3 H 0.601(3) 0.239(2) 0.2399(12)
H20_3 H 0.6594(25) 0.245(2) 0.285(2)
O11_3 O 0.53382(12) 0.35149(10) 0.27542(6)
O12_3 O 0.75846(12) 0.49995(7) 0.53327(6)
O13_2 O 0.78968(21) 0.38503(15) 0.44350(12)
O15_3 O 0.67745(24) 0.48500(20) 0.31200(12)
O16_3 O 0.76102(25) 0.52756(21) 0.39649(12)
C7_3 C 0.2775(3) 0.8799(2) 0.40771(17)
C8_3 C 0.3112(3) 0.9413(2) 0.45302(18)
H1_3 H 0.3511 0.9445 0.4815
C9_3 C 0.1966(3) 0.9330(2) 0.36850(18)
H2_3 H 0.1573 0.9301 0.3395
C10_3 C 0.2289(3) 0.9932(2) 0.41455(17)
C11_3 C 0.2870(3) 0.9973(2) 0.45661(19)
C12_3 C 0.22191(10) 0.87733(7) 0.36474(6)
H4_3 H 0.2008 0.8372 0.3324
C13_3 C 0.29873(10) 0.81477(7) 0.40532(6)
O1_3 O 0.35149(10) 0.81767(7) 0.44208(6)
O2_3 O 0.25851(10) 0.75846(7) 0.36660(6)
Zn6_2 Zn 0.36887(4) 0.72228(2) 0.45719(2)
C5_3 C 0.9042(3) 0.1225(2) 0.45873(18)
C6_3 C 0.8674(3) 0.0423(2) 0.45909(17)
C21_3 C 0.8035(3) 0.2756(2) 0.47911(17)
C22_3 C 0.7765(3) 0.2080(2) 0.51731(17)
H9_3 H 0.7353 0.1957 0.5478
C23_3 C 0.8088(3) 0.1583(2) 0.51152(17)
H10_3 H 0.7899 0.1125 0.5382
C24_3 C 0.8690(3) 0.1750(2) 0.46675(17)
C25_3 C 0.8971(3) 0.2440(2) 0.42920(18)
H11_3 H 0.9392 0.2572 0.3993
C26_3 C 0.8648(3) 0.2933(2) 0.43498(18)
H12_3 H 0.8843 0.3396 0.4087
C27_3 C 0.7674(3) 0.3280(2) 0.48424(17)
H15_3 H 0.7316 0.0290 0.4117
S4_3 S 0.92454(7) 0.99750(5) 0.44023(4)
C28_3 C 0.6232(3) 0.8695(2) 0.49790(17)
C29_3 C 0.6853(3) 0.8651(2) 0.52712(17)
H13_3 H 0.6735 0.8230 0.5565
C30_3 C 0.7643(3) 0.9211(2) 0.51415(18)
H14_3 H 0.8062 0.9167 0.5339
C31_3 C 0.7817(3) 0.9833(2) 0.47225(17)
C32_3 C 0.7200(3) 0.9875(2) 0.44166(18)
C33_3 C 0.6414(3) 0.9307(2) 0.45506(19)
H16_3 H 0.5991 0.9339 0.4343
C34_3 C 0.5383(3) 0.8100(2) 0.51363(18)
O7_3 O 0.48500(20) 0.80755(14) 0.47866(12)
O8_3 O 0.52756(21) 0.76654(14) 0.56315(12)
C1_3 C 0.0881(2) 0.0024(2) 0.59567(17)
C2_3 C 0.0870(2) 0.0700(2) 0.60314(16)
S3_3 S 0.17354(5) 0.16505(5) 0.60927(5)
C5_4 C 0.1225(2) 0.2183(2) 0.62540(18)
C6_4 C 0.0423(2) 0.1749(2) 0.62576(17)
C21_4 C 0.2756(2) 0.4721(2) 0.64578(17)
C22_4 C 0.2080(2) 0.4315(2) 0.68398(17)
H9_4 H 0.1957 0.4604 0.7145
C23_4 C 0.1583(2) 0.3495(2) 0.67819(17)
H10_4 H 0.1125 0.3226 0.7049
C24_4 C 0.1750(2) 0.3060(2) 0.63342(17)
C25_4 C 0.2440(2) 0.3469(2) 0.59587(18)
H11_4 H 0.2572 0.3180 0.5660
C26_4 C 0.2933(2) 0.4285(2) 0.60165(18)
H12_4 H 0.3396 0.4553 0.5754
C27_4 C 0.3280(2) 0.5606(2) 0.65091(17)
O5_2 O 0.38503(15) 0.59535(15) 0.61017(12)
O6_2 O 0.31534(13) 0.59924(13) 0.69351(12)
H15_4 H 0.0290 0.2974 0.5784
S1_4 S 0.00042(5) 0.90943(5) 0.58589(5)
S2_4 S 0.17664(5) 0.99796(6) 0.59366(5)
C3_4 C 0.0482(2) 0.8518(2) 0.58672(18)
C4_4 C 0.1284(2) 0.8926(2) 0.59047(17)
H3_4 H 0.0387 0.7289 0.6545
C14_4 C 0.28502(7) 0.79636(7) 0.59510(6)
C15_4 C 0.22234(7) 0.76638(7) 0.55161(6)
H5_4 H 0.2145 0.7247 0.5231
C16_4 C 0.1709(2) 0.7973(2) 0.54970(18)
H6_4 H 0.1277 0.7765 0.5200
C17_4 C 0.1827(2) 0.8591(2) 0.59165(17)
C18_4 C 0.2457(2) 0.8886(2) 0.63557(19)
H7_4 H 0.2535 0.9299 0.6645
C19_4 C 0.2969(2) 0.8578(2) 0.63712(18)
H8_4 H 0.3401 0.8784 0.6668
C20_4 C 0.3411(2) 0.7648(2) 0.59793(18)
O3_4 O 0.39328(15) 0.78780(16) 0.64146(12)
O4_4 O 0.33547(15) 0.71253(15) 0.55751(12)
O9_4 O 0.39145(16) 0.62770(15) 0.47558(13)
H17_4 H 0.382(2) 0.612(2) 0.5145(11)
H18_4 H 0.369(2) 0.5985(19) 0.4456(13)
O10_4 O 0.25123(16) 0.63191(16) 0.44302(13)
H19_4 H 0.239(2) 0.638(2) 0.4066(12)
H20_4 H 0.245(2) 0.5856(15) 0.452(2)
O14_3 O 0.40076(13) 0.71610(18) 0.36018(12)
S4_4 S 0.99750(5) 0.07296(5) 0.60690(4)
C28_4 C 0.8695(2) 0.2463(2) 0.66457(17)
C29_4 C 0.8651(2) 0.1798(2) 0.69379(17)
H13_4 H 0.8230 0.1495 0.7232
C30_4 C 0.9211(2) 0.1568(2) 0.68082(18)
H14_4 H 0.9167 0.1105 0.7006
C31_4 C 0.9833(2) 0.2016(2) 0.63892(17)
C32_4 C 0.9875(2) 0.2675(2) 0.60833(18)
C33_4 C 0.9307(2) 0.2893(2) 0.62173(19)
H16_4 H 0.9339 0.3348 0.6010
C34_4 C 0.8100(2) 0.2717(2) 0.68030(18)
C7_4 C 0.8799(2) 0.6024(2) 0.57438(17)
C8_4 C 0.9413(2) 0.6301(2) 0.61969(18)
H1_4 H 0.9445 0.5934 0.6482
C9_4 C 0.9330(2) 0.7364(2) 0.53517(18)
H2_4 H 0.9301 0.7728 0.5062
C10_4 C 0.9932(2) 0.7643(2) 0.58122(17)
C11_4 C 0.9973(2) 0.7103(2) 0.62328(19)
C12_4 C 0.87733(7) 0.65542(7) 0.53141(6)
H4_4 H 0.8372 0.6364 0.4991
C13_4 C 0.81477(7) 0.51604(7) 0.57199(6)
S1_5 S 0.09057(5) 0.09099(7) 0.25256(5)
S2_5 S 0.00204(6) 0.17868(8) 0.26033(5)
C3_5 C 0.1482(2) 0.1964(3) 0.25339(18)
C4_5 C 0.1074(2) 0.2358(3) 0.25714(17)
C7_5 C 0.3976(2) 0.2775(3) 0.24105(17)
C8_5 C 0.3699(2) 0.3112(3) 0.28636(18)
H1_5 H 0.4066 0.3511 0.3149
C9_5 C 0.2636(2) 0.1966(3) 0.20184(18)
H2_5 H 0.2272 0.1573 0.1729
C10_5 C 0.2357(2) 0.2289(3) 0.24789(17)
C11_5 C 0.2897(2) 0.2870(3) 0.28995(19)
H3_5 H 0.2711 0.3098 0.3212
C12_5 C 0.34458(7) 0.22191(10) 0.19808(6)
H4_5 H 0.3636 0.2008 0.1658
C13_5 C 0.48396(7) 0.29873(10) 0.23866(6)
C14_5 C 0.20364(7) 0.48866(10) 0.26177(6)
C15_5 C 0.23362(7) 0.45596(10) 0.21828(6)
H5_5 H 0.2753 0.4898 0.1898
C16_5 C 0.2027(2) 0.3736(3) 0.21637(18)
H6_5 H 0.2235 0.3512 0.1867
C17_5 C 0.1409(2) 0.3236(3) 0.25832(17)
C18_5 C 0.1114(2) 0.3571(3) 0.30224(19)
H7_5 H 0.0701 0.3236 0.3312
C19_5 C 0.1422(2) 0.4391(3) 0.30379(18)
H8_5 H 0.1216 0.4617 0.3335
C20_5 C 0.2352(2) 0.5763(3) 0.26460(18)
O3_5 O 0.21220(16) 0.60548(22) 0.30813(12)
O4_5 O 0.28747(15) 0.62294(21) 0.22418(12)
O9_5 O 0.37230(15) 0.76375(22) 0.14225(13)
H17_5 H 0.388(2) 0.770(3) 0.1812(11)
H18_5 H 0.4015(19) 0.7705(28) 0.1123(13)
O10_5 O 0.36809(16) 0.61932(23) 0.10969(13)
H19_5 H 0.362(2) 0.601(3) 0.0733(12)
H20_5 H 0.4144(15) 0.6594(25) 0.119(2)
O13_3 O 0.40465(15) 0.78968(21) 0.27684(12)
O14_4 O 0.28390(18) 0.68466(22) 0.02684(12)
S4_5 S 0.92704(5) 0.92454(7) 0.27357(4)
C5_5 C 0.7817(2) 0.9042(3) 0.29207(18)
C6_5 C 0.8251(2) 0.8674(3) 0.29243(17)
C21_5 C 0.5279(2) 0.8035(3) 0.31245(17)
C22_5 C 0.5685(2) 0.7765(3) 0.35065(17)
H9_5 H 0.5396 0.7353 0.3812
C23_5 C 0.6505(2) 0.8088(3) 0.34486(17)
H10_5 H 0.6774 0.7899 0.3716
C24_5 C 0.6940(2) 0.8690(3) 0.30009(17)
C25_5 C 0.6531(2) 0.8971(3) 0.26254(18)
H11_5 H 0.6820 0.9392 0.2327
C26_5 C 0.5715(2) 0.8648(3) 0.26832(18)
H12_5 H 0.5447 0.8843 0.2421
C27_5 C 0.4394(2) 0.7674(3) 0.31758(17)
C28_5 C 0.7537(2) 0.6232(3) 0.33124(17)
C29_5 C 0.8202(2) 0.6853(3) 0.36046(17)
H13_5 H 0.8505 0.6735 0.3899
C30_5 C 0.8432(2) 0.7643(3) 0.34749(18)
H14_5 H 0.8895 0.8062 0.3673
C31_5 C 0.7984(2) 0.7817(3) 0.30559(17)
C32_5 C 0.7325(2) 0.7200(3) 0.27500(18)
H15_5 H 0.7026 0.7316 0.2451
C33_5 C 0.7107(2) 0.6414(3) 0.28840(19)
H16_5 H 0.6652 0.5991 0.2677
C34_5 C 0.7283(2) 0.5383(3) 0.34697(18)
C29_6 C 0.3147(3) 0.1349(2) 0.02712(17)
H13_6 H 0.3265 0.1770 0.0565
C30_6 C 0.2357(3) 0.0789(2) 0.01415(18)
H14_6 H 0.1938 0.0833 0.0339
C34_6 C 0.4617(3) 0.1900(2) 0.01363(18)
S4_6 S 0.07546(7) 0.00250(5) 0.94023(4)
C28_6 C 0.3768(3) 0.1305(2) 0.99790(17)
C31_6 C 0.2183(3) 0.0167(2) 0.97225(17)
C32_6 C 0.2800(3) 0.0125(2) 0.94166(18)
C33_6 C 0.3586(3) 0.0693(2) 0.95506(19)
H16_6 H 0.4009 0.0661 0.9343
C22_6 C 0.2235(3) 0.7920(2) 0.01731(17)
H9_6 H 0.2647 0.8043 0.0478
C23_6 C 0.1912(3) 0.8417(2) 0.01152(17)
H10_6 H 0.2101 0.8875 0.0382
C5_6 C 0.0958(3) 0.8775(2) 0.95873(18)
C6_6 C 0.1326(3) 0.9577(2) 0.95909(17)
C21_6 C 0.1965(3) 0.7244(2) 0.97911(17)
C24_6 C 0.1310(3) 0.8250(2) 0.96675(17)
C25_6 C 0.1029(3) 0.7560(2) 0.92920(18)
H11_6 H 0.0608 0.7428 0.8993
C26_6 C 0.1352(3) 0.7067(2) 0.93498(18)
H12_6 H 0.1157 0.6604 0.9087
C27_6 C 0.2326(3) 0.6720(2) 0.98424(17)
O5_3 O 0.21032(21) 0.61497(15) 0.94350(12)
H15_6 H 0.2684 0.9710 0.9117
C7_6 C 0.7225(3) 0.1201(2) 0.90771(17)
C8_6 C 0.6888(3) 0.0587(2) 0.95302(18)
H1_6 H 0.6489 0.0555 0.9815
C9_6 C 0.8034(3) 0.0670(2) 0.86850(18)
H2_6 H 0.8427 0.0699 0.8395
C10_6 C 0.7711(3) 0.0068(2) 0.91455(17)
C11_6 C 0.7130(3) 0.0027(2) 0.95661(19)
C12_6 C 0.77809(10) 0.12267(7) 0.86474(6)
H4_6 H 0.7992 0.1628 0.8324
C13_6 C 0.70127(10) 0.18523(7) 0.90532(6)
H8_6 H 0.5383 0.6599 0.0001
C1_4 C 0.9143(3) 0.9119(2) 0.92900(17)
C2_4 C 0.9830(3) 0.9130(2) 0.93647(16)
S1_6 S 0.90901(7) 0.99958(5) 0.91922(5)
S2_6 S 0.82132(8) 0.82336(5) 0.92699(5)
S3_4 S 0.99151(7) 0.82646(5) 0.94260(5)
C3_6 C 0.8036(3) 0.9518(2) 0.92005(18)
C4_6 C 0.7642(3) 0.8716(2) 0.92380(17)
H3_6 H 0.6902 0.9613 0.9878
C14_6 C 0.51134(10) 0.71498(7) 0.92843(6)
C15_6 C 0.54404(10) 0.77766(7) 0.88494(6)
H5_6 H 0.5102 0.7855 0.8564
C16_6 C 0.6264(3) 0.8291(2) 0.88303(18)
H6_6 H 0.6488 0.8723 0.8533
C17_6 C 0.6764(3) 0.8173(2) 0.92498(17)
C18_6 C 0.6429(3) 0.7543(2) 0.96890(19)
H7_6 H 0.6764 0.7465 0.9978
C19_6 C 0.5609(3) 0.7031(2) 0.97045(18)
C20_6 C 0.4237(3) 0.6589(2) 0.93126(18)
O3_6 O 0.39452(22) 0.60672(15) 0.97479(12)
O4_6 O 0.37706(21) 0.66453(15) 0.89084(12)
O9_6 O 0.23625(22) 0.60855(16) 0.80891(13)
H17_6 H 0.230(3) 0.618(2) 0.8478(11)
H18_6 H 0.2295(28) 0.631(2) 0.7789(13)
O10_6 O 0.38068(23) 0.74877(16) 0.77635(13)
H19_6 H 0.399(3) 0.761(2) 0.7399(12)
H20_6 H 0.3406(25) 0.755(2) 0.785(2)
C1_5 C 0.0024(2) 0.9143(3) 0.76234(17)
C2_5 C 0.0700(2) 0.9830(3) 0.76981(16)
S3_5 S 0.16505(5) 0.99151(7) 0.77594(5)
C1_6 C 0.9976(2) 0.0857(3) 0.26234(17)
C2_6 C 0.9300(2) 0.0170(3) 0.26981(16)
S3_6 S 0.83495(5) 0.00849(7) 0.27594(5)
loop_
_geom_bond_atom_site_label_1
_geom_bond_atom_site_label_2
_geom_bond_site_symmetry_1
_geom_bond_site_symmetry_2
C7 C8 1_555 1_555
C8 H1 1_555 1_555
C9 H2 1_555 1_555
C11 C8 1_555 1_555
C12 C7 1_555 1_555
C13 C7 1_555 1_555
O1 C13 1_555 1_555
O2 C13 1_555 1_555
Zn6 O1 1_555 1_555
C9 C10 1_555 1_555
C9 C12 1_555 1_555
C10 C11 1_555 1_555
C28 C29 1_555 1_555
C29 H13 1_555 1_555
C30 C29 1_555 1_555
H14 C30 1_555 1_555
C32 C31 1_555 1_555
C33 C28 1_555 1_555
H16 C33 1_555 1_555
C34 C28 1_555 1_555
O7 C34 1_555 1_555
O8 C34 1_555 1_555
Zn5 O8 1_555 1_555
Zn6 O7 1_555 1_555
C30 C31 1_555 1_555
C32 C33 1_555 1_555
C3 S1 1_555 1_555
C4 S2 1_555 1_555
C14 C15 1_555 1_555
C15 H5 1_555 1_555
C16 C15 1_555 1_555
H6 C16 1_555 1_555
C17 C4 1_555 1_555
C18 C17 1_555 1_555
H7 C18 1_555 1_555
C19 C14 1_555 1_555
H8 C19 1_555 1_555
C20 C14 1_555 1_555
O3 C20 1_555 1_555
O4 C20 1_555 1_555
Zn1 O3 1_555 1_555
O12 Zn1 1_555 1_555
O13 Zn1 1_555 1_555
O16 Zn1 1_555 1_555
C3 C4 1_555 1_555
C16 C17 1_555 1_555
C18 C19 1_555 1_555
O4 Zn1 1_555 1_555
O9 Zn2 1_555 1_555
H18 O9 1_555 1_555
O10 Zn2 1_555 1_555
H19 O10 1_555 1_555
H20 O10 1_555 1_555
O11 Zn2 1_555 1_555
O14 Zn2 1_555 1_555
O15 Zn2 1_555 1_555
C1 C2 1_555 1_555
C2 S3 1_555 1_555
S3 C5 1_555 1_555
C5 C6 1_555 1_555
C21 C22 1_555 1_555
C22 H9 1_555 1_555
C23 C22 1_555 1_555
H10 C23 1_555 1_555
C24 C5 1_555 1_555
C25 C24 1_555 1_555
H11 C25 1_555 1_555
C26 C21 1_555 1_555
H12 C26 1_555 1_555
C27 C21 1_555 1_555
O13 C27 1_555 1_555
O6 C27 1_555 1_555
Zn7 O6 1_555 1_555
C23 C24 1_555 1_555
C25 C26 1_555 1_555
C5_2 C6_2 1_555 1_555
C6_2 S4_2 1_555 1_555
C21_2 C22_2 1_555 1_555
C22_2 H9_2 1_555 1_555
C23_2 C22_2 1_555 1_555
H10_2 C23_2 1_555 1_555
C24_2 C5_2 1_555 1_555
C25_2 C24_2 1_555 1_555
H11_2 C25_2 1_555 1_555
C26_2 C21_2 1_555 1_555
H12_2 C26_2 1_555 1_555
C27_2 C21_2 1_555 1_555
O5 C27_2 1_555 1_555
O14 C27_2 1_555 1_555
C28_2 C29_2 1_555 1_555
C29_2 H13_2 1_555 1_555
C30_2 C29_2 1_555 1_555
H14_2 C30_2 1_555 1_555
C31_2 C6_2 1_555 1_555
C32_2 C31_2 1_555 1_555
H15_2 C32_2 1_555 1_555
C33_2 C28_2 1_555 1_555
H16_2 C33_2 1_555 1_555
C34_2 C28_2 1_555 1_555
O7_2 C34_2 1_555 1_555
O8_2 C34_2 1_555 1_555
Zn4 O5 1_555 1_555
Zn3 O8_2 1_555 1_555
Zn8 O7_2 1_555 1_555
C23_2 C24_2 1_555 1_555
C25_2 C26_2 1_555 1_555
C30_2 C31_2 1_555 1_555
C32_2 C33_2 1_555 1_555
C3_2 S1_2 1_555 1_555
C4_2 S2_2 1_555 1_555
C7_2 C8_2 1_555 1_555
C8_2 H1_2 1_555 1_555
C9_2 H2_2 1_555 1_555
C10_2 C3_2 1_555 1_555
C11_2 C8_2 1_555 1_555
H3_2 C11_2 1_555 1_555
C12_2 C7_2 1_555 1_555
H4_2 C12_2 1_555 1_555
C13_2 C7_2 1_555 1_555
O1_2 C13_2 1_555 1_555
O2_2 C13_2 1_555 1_555
C14_2 C15_2 1_555 1_555
C15_2 H5_2 1_555 1_555
C16_2 C15_2 1_555 1_555
H6_2 C16_2 1_555 1_555
C17_2 C4_2 1_555 1_555
C18_2 C17_2 1_555 1_555
H7_2 C18_2 1_555 1_555
C19_2 C14_2 1_555 1_555
H8_2 C19_2 1_555 1_555
C20_2 C14_2 1_555 1_555
O3_2 C20_2 1_555 1_555
O4_2 C20_2 1_555 1_555
Zn4 O3_2 1_555 1_555
Zn2_2 O4_2 1_555 1_555
O9_2 Zn2_2 1_555 1_555
H17_2 O9_2 1_555 1_555
H18_2 O9_2 1_555 1_555
O10_2 Zn2_2 1_555 1_555
H19_2 O10_2 1_555 1_555
H20_2 O10_2 1_555 1_555
O11_2 Zn2_2 1_555 1_555
O12_2 Zn4 1_555 1_555
O14_2 Zn2_2 1_555 1_555
O15_2 Zn2_2 1_555 1_555
O16_2 Zn4 1_555 1_555
Zn3_2 O2_2 1_555 1_555
Zn8 O1_2 1_555 1_555
C3_2 C4_2 1_555 1_555
C9_2 C10_2 1_555 1_555
C9_2 C12_2 1_555 1_555
C10_2 C11_2 1_555 1_555
C16_2 C17_2 1_555 1_555
C18_2 C19_2 1_555 1_555
O4_2 Zn4 1_555 1_555
C1_2 C2_2 1_555 1_555
C2_2 S3_2 1_555 1_555
S1_3 C1_2 1_555 1_555
S2_3 C1_2 1_555 1_555
C3_3 S1_3 1_555 1_555
C4_3 S2_3 1_555 1_555
C14_3 C15_3 1_555 1_555
C15_3 H5_3 1_555 1_555
C16_3 C15_3 1_555 1_555
H6_3 C16_3 1_555 1_555
C17_3 C4_3 1_555 1_555
C18_3 C17_3 1_555 1_555
H7_3 C18_3 1_555 1_555
C19_3 C14_3 1_555 1_555
H8_3 C19_3 1_555 1_555
C20_3 C14_3 1_555 1_555
O3_3 C20_3 1_555 1_555
O4_3 C20_3 1_555 1_555
Zn1_2 O3_3 1_555 1_555
Zn7 O4_3 1_555 1_555
O9_3 Zn7 1_555 1_555
H17_3 O9_3 1_555 1_555
H18_3 O9_3 1_555 1_555
O10_3 Zn7 1_555 1_555
H19_3 O10_3 1_555 1_555
H20_3 O10_3 1_555 1_555
O11_3 Zn7 1_555 1_555
O12_3 Zn1_2 1_555 1_555
O13_2 Zn1_2 1_555 1_555
O15_3 Zn7 1_555 1_555
O16_3 Zn1_2 1_555 1_555
C3_3 C4_3 1_555 1_555
C16_3 C17_3 1_555 1_555
C18_3 C19_3 1_555 1_555
O4_3 Zn1_2 1_555 1_555
C7_3 C8_3 1_555 1_555
C8_3 H1_3 1_555 1_555
C9_3 H2_3 1_555 1_555
C11_3 C8_3 1_555 1_555
C12_3 C7_3 1_555 1_555
H4_3 C12_3 1_555 1_555
C13_3 C7_3 1_555 1_555
O1_3 C13_3 1_555 1_555
O2_3 C13_3 1_555 1_555
Zn5 O2_3 1_555 1_555
Zn6_2 O1_3 1_555 1_555
C9_3 C10_3 1_555 1_555
C9_3 C12_3 1_555 1_555
C10_3 C11_3 1_555 1_555
C5_3 C6_3 1_555 1_555
C21_3 C22_3 1_555 1_555
C22_3 H9_3 1_555 1_555
C23_3 C22_3 1_555 1_555
H10_3 C23_3 1_555 1_555
C24_3 C5_3 1_555 1_555
C25_3 C24_3 1_555 1_555
H11_3 C25_3 1_555 1_555
C26_3 C21_3 1_555 1_555
H12_3 C26_3 1_555 1_555
C27_3 C21_3 1_555 1_555
O13_2 C27_3 1_555 1_555
O14_2 C27_3 1_555 1_555
C23_3 C24_3 1_555 1_555
C25_3 C26_3 1_555 1_555
C28_3 C29_3 1_555 1_555
C29_3 H13_3 1_555 1_555
C30_3 C29_3 1_555 1_555
H14_3 C30_3 1_555 1_555
C32_3 C31_3 1_555 1_555
C33_3 C28_3 1_555 1_555
H16_3 C33_3 1_555 1_555
C34_3 C28_3 1_555 1_555
O7_3 C34_3 1_555 1_555
O8_3 C34_3 1_555 1_555
Zn3_2 O8_3 1_555 1_555
Zn6_2 O7_3 1_555 1_555
C30_3 C31_3 1_555 1_555
C32_3 C33_3 1_555 1_555
C1_3 C2_3 1_555 1_555
C2_3 S3_3 1_555 1_555
S3_3 C5_4 1_555 1_555
C5_4 C6_4 1_555 1_555
C21_4 C22_4 1_555 1_555
C22_4 H9_4 1_555 1_555
C23_4 C22_4 1_555 1_555
H10_4 C23_4 1_555 1_555
C24_4 C5_4 1_555 1_555
C25_4 C24_4 1_555 1_555
H11_4 C25_4 1_555 1_555
C26_4 C21_4 1_555 1_555
H12_4 C26_4 1_555 1_555
C27_4 C21_4 1_555 1_555
O5_2 C27_4 1_555 1_555
O6_2 C27_4 1_555 1_555
Zn3_2 O5_2 1_555 1_555
Zn8 O6_2 1_555 1_555
C23_4 C24_4 1_555 1_555
C25_4 C26_4 1_555 1_555
C3_4 S1_4 1_555 1_555
C4_4 S2_4 1_555 1_555
C14_4 C15_4 1_555 1_555
C15_4 H5_4 1_555 1_555
C16_4 C15_4 1_555 1_555
H6_4 C16_4 1_555 1_555
C17_4 C4_4 1_555 1_555
C18_4 C17_4 1_555 1_555
H7_4 C18_4 1_555 1_555
C19_4 C14_4 1_555 1_555
H8_4 C19_4 1_555 1_555
C20_4 C14_4 1_555 1_555
O3_4 C20_4 1_555 1_555
O4_4 C20_4 1_555 1_555
Zn3_2 O3_4 1_555 1_555
Zn6_2 O4_4 1_555 1_555
O9_4 Zn6_2 1_555 1_555
H17_4 O9_4 1_555 1_555
H18_4 O9_4 1_555 1_555
O10_4 Zn6_2 1_555 1_555
H19_4 O10_4 1_555 1_555
H20_4 O10_4 1_555 1_555
O14_3 Zn6_2 1_555 1_555
C3_4 C4_4 1_555 1_555
C16_4 C17_4 1_555 1_555
C18_4 C19_4 1_555 1_555
O4_4 Zn3_2 1_555 1_555
C28_4 C29_4 1_555 1_555
C29_4 H13_4 1_555 1_555
C30_4 C29_4 1_555 1_555
H14_4 C30_4 1_555 1_555
C32_4 C31_4 1_555 1_555
C33_4 C28_4 1_555 1_555
H16_4 C33_4 1_555 1_555
C34_4 C28_4 1_555 1_555
O15_2 C34_4 1_555 1_555
O16_2 C34_4 1_555 1_555
C30_4 C31_4 1_555 1_555
C32_4 C33_4 1_555 1_555
C7_4 C8_4 1_555 1_555
C8_4 H1_4 1_555 1_555
C9_4 H2_4 1_555 1_555
C11_4 C8_4 1_555 1_555
C12_4 C7_4 1_555 1_555
H4_4 C12_4 1_555 1_555
C13_4 C7_4 1_555 1_555
O11_2 C13_4 1_555 1_555
O12_3 C13_4 1_555 1_555
C9_4 C10_4 1_555 1_555
C9_4 C12_4 1_555 1_555
C10_4 C11_4 1_555 1_555
C3_5 S1_5 1_555 1_555
C4_5 S2_5 1_555 1_555
C7_5 C8_5 1_555 1_555
C8_5 H1_5 1_555 1_555
C9_5 H2_5 1_555 1_555
C10_5 C3_5 1_555 1_555
C11_5 C8_5 1_555 1_555
H3_5 C11_5 1_555 1_555
C12_5 C7_5 1_555 1_555
H4_5 C12_5 1_555 1_555
C13_5 C7_5 1_555 1_555
O11_3 C13_5 1_555 1_555
O12 C13_5 1_555 1_555
C14_5 C15_5 1_555 1_555
C15_5 H5_5 1_555 1_555
C16_5 C15_5 1_555 1_555
H6_5 C16_5 1_555 1_555
C17_5 C4_5 1_555 1_555
C18_5 C17_5 1_555 1_555
H7_5 C18_5 1_555 1_555
C19_5 C14_5 1_555 1_555
H8_5 C19_5 1_555 1_555
C20_5 C14_5 1_555 1_555
O3_5 C20_5 1_555 1_555
O4_5 C20_5 1_555 1_555
Zn5 O3_5 1_555 1_555
Zn6 O4_5 1_555 1_555
O9_5 Zn6 1_555 1_555
H17_5 O9_5 1_555 1_555
H18_5 O9_5 1_555 1_555
O10_5 Zn6 1_555 1_555
H19_5 O10_5 1_555 1_555
H20_5 O10_5 1_555 1_555
O13_3 Zn5 1_555 1_555
O14_4 Zn6 1_555 1_555
C3_5 C4_5 1_555 1_555
C9_5 C10_5 1_555 1_555
C9_5 C12_5 1_555 1_555
C10_5 C11_5 1_555 1_555
C16_5 C17_5 1_555 1_555
C18_5 C19_5 1_555 1_555
O4_5 Zn5 1_555 1_555
C5_5 C6_5 1_555 1_555
C6_5 S4_5 1_555 1_555
C21_5 C22_5 1_555 1_555
C22_5 H9_5 1_555 1_555
C23_5 C22_5 1_555 1_555
H10_5 C23_5 1_555 1_555
C24_5 C5_5 1_555 1_555
C25_5 C24_5 1_555 1_555
H11_5 C25_5 1_555 1_555
C26_5 C21_5 1_555 1_555
H12_5 C26_5 1_555 1_555
C27_5 C21_5 1_555 1_555
O13_3 C27_5 1_555 1_555
O14_3 C27_5 1_555 1_555
C28_5 C29_5 1_555 1_555
C29_5 H13_5 1_555 1_555
C30_5 C29_5 1_555 1_555
H14_5 C30_5 1_555 1_555
C31_5 C6_5 1_555 1_555
C32_5 C31_5 1_555 1_555
H15_5 C32_5 1_555 1_555
C33_5 C28_5 1_555 1_555
H16_5 C33_5 1_555 1_555
C34_5 C28_5 1_555 1_555
O15_3 C34_5 1_555 1_555
O16_3 C34_5 1_555 1_555
C23_5 C24_5 1_555 1_555
C25_5 C26_5 1_555 1_555
C30_5 C31_5 1_555 1_555
C32_5 C33_5 1_555 1_555
C29_6 H13_6 1_555 1_555
C30_6 C29_6 1_555 1_555
H14_6 C30_6 1_555 1_555
O16 C34_6 1_555 1_555
C32_6 C31_6 1_555 1_555
C33_6 C28_6 1_555 1_555
H16_6 C33_6 1_555 1_555
C32_6 C33_6 1_555 1_555
C22_6 H9_6 1_555 1_555
C23_6 C22_6 1_555 1_555
H10_6 C23_6 1_555 1_555
C5_6 C6_6 1_555 1_555
C24_6 C5_6 1_555 1_555
C25_6 C24_6 1_555 1_555
H11_6 C25_6 1_555 1_555
C26_6 C21_6 1_555 1_555
H12_6 C26_6 1_555 1_555
C27_6 C21_6 1_555 1_555
O5_3 C27_6 1_555 1_555
Zn3 O5_3 1_555 1_555
C25_6 C26_6 1_555 1_555
C7_6 C8_6 1_555 1_555
C8_6 H1_6 1_555 1_555
C9_6 H2_6 1_555 1_555
C11_6 C8_6 1_555 1_555
C12_6 C7_6 1_555 1_555
H4_6 C12_6 1_555 1_555
C13_6 C7_6 1_555 1_555
O11 C13_6 1_555 1_555
O12_2 C13_6 1_555 1_555
C9_6 C10_6 1_555 1_555
C9_6 C12_6 1_555 1_555
C10_6 C11_6 1_555 1_555
C1_4 C2_4 1_555 1_555
C2_4 S3_4 1_555 1_555
S1_6 C1_4 1_555 1_555
S2_6 C1_4 1_555 1_555
C3_6 S1_6 1_555 1_555
C4_6 S2_6 1_555 1_555
C14_6 C15_6 1_555 1_555
C15_6 H5_6 1_555 1_555
C16_6 C15_6 1_555 1_555
H6_6 C16_6 1_555 1_555
C17_6 C4_6 1_555 1_555
C18_6 C17_6 1_555 1_555
H7_6 C18_6 1_555 1_555
C19_6 C14_6 1_555 1_555
C20_6 C14_6 1_555 1_555
O3_6 C20_6 1_555 1_555
O4_6 C20_6 1_555 1_555
Zn3 O3_6 1_555 1_555
Zn8 O4_6 1_555 1_555
O9_6 Zn8 1_555 1_555
H17_6 O9_6 1_555 1_555
H18_6 O9_6 1_555 1_555
O10_6 Zn8 1_555 1_555
H19_6 O10_6 1_555 1_555
H20_6 O10_6 1_555 1_555
C3_6 C4_6 1_555 1_555
C16_6 C17_6 1_555 1_555
C18_6 C19_6 1_555 1_555
O4_6 Zn3 1_555 1_555
C1_5 C2_5 1_555 1_555
C2_5 S3_5 1_555 1_555
C1_6 C2_6 1_555 1_555
C2_6 S3_6 1_555 1_555

#END
