
###############################################################################
#
# This file contains modified crystal structure data generated from the
# MOF subset of the Cambridge Structural Database (CSD) v543 
# hosted by the Cambridge Crystallographic Data Centre (CCDC).
#
# This work is licensed under the Creative Commons
# Attribution-NonCommercial-ShareAlike 4.0 International License.
# To view a copy of this license, visit
# http://creativecommons.org/licenses/by-nc-sa/4.0/
# or send a letter to
# Creative Commons, PO Box 1866, Mountain View, CA 94042, USA.
#
# CIF created using the CSD Python API on 29 September 2022
# The structure has been converted into the P1 space group
# The structure has a 3D framework
# The original CSD entry PEGPOI is in the tetragonal crystal system
# The framework has been calculated to contain at least 10.0% void space
# The void calculation uses a probe of radius 1.32A, grid spacing 0.4
# H atom positions have been added when not included in the experimental data
#
###############################################################################

data_PEGPOI
_chemical_formula_moiety         '(C160 H128 N64 O170 Y32)n'
_symmetry_cell_setting           triclinic
_symmetry_space_group_name_H-M   'P 1'
_symmetry_Int_Tables_number      1
_space_group_name_Hall           'P 1'
loop_
_symmetry_equiv_pos_site_id
_symmetry_equiv_pos_as_xyz
1 x,y,z
_cell_length_a                   20.1547(15)
_cell_length_b                   20.1547(15)
_cell_length_c                   15.905(2)
_cell_angle_alpha                90
_cell_angle_beta                 90
_cell_angle_gamma                90
_cell_volume                     6460.8
loop_
_atom_site_label
_atom_site_type_symbol
_atom_site_fract_x
_atom_site_fract_y
_atom_site_fract_z
C7 C 0.1967(5) 0.1406(4) 0.0733(6)
C8 C 0.1471(4) 0.0996(4) 0.1030(6)
C9 C 0.1186(5) 0.0870(5) 0.1872(6)
C10 C 0.2379(4) 0.1928(4) 0.1089(5)
N4 N 0.1265(4) 0.0599(4) 0.0391(5)
O3 O 0.4143(4) 0.0424(4) 0.0626(4)
O5 O 0.0808(3) 0.0367(3) 0.1925(4)
O6 O 0.1327(3) 0.1250(3) 0.2472(4)
O7 O 0.2298(3) 0.2167(3) 0.1824(4)
O8 O 0.2827(3) 0.2165(3) 0.0623(4)
Y5 Y 0.20673(4) 0.18090(4) 0.33083(5)
Y6 Y 0.29327(4) 0.31910(4) 0.16917(5)
Y1 Y 0.29266(4) 0.17302(4) 0.90881(6)
H1 H 0.2462 0.0031 0.8067
C2 C 0.3472(4) 0.0194(4) 0.9431(5)
C5 C 0.3828(5) 0.0629(4) 0.9996(6)
C6 C 0.1625(4) 0.0780(5) 0.9736(6)
H2 H 0.1577 0.0590 0.9207
N2 N 0.3036(3) 0.0485(4) 0.8862(5)
N3 N 0.2061(4) 0.1255(4) 0.9898(5)
O4 O 0.3799(3) 0.1248(3) 0.9836(5)
O9 O 0.3700(3) 0.2601(4) 0.9187(4)
O10 O 0.2221(4) 0.2661(4) 0.9110(5)
O12 O 0.3491(3) 0.1677(3) 0.7848(4)
O13 O 0.2076(4) 0.1643(4) 0.8126(4)
H5 H 0.396044 0.262725 0.865807
H6 H 0.346181 0.302624 0.927821
H7 H 0.186881 0.259385 0.953823
H8 H 0.248235 0.306313 0.925298
O2 O 0.4177(3) 0.9009(3) 0.0348(4)
Y3 Y 0.42302(4) 0.95734(4) 0.15881(6)
Y4 Y 0.06910(4) 0.95673(4) 0.08083(5)
Y2 Y 0.29327(4) 0.81910(4) 0.83083(5)
C1 C 0.2779(5) 0.9981(5) 0.8487(6)
C3 C 0.3436(4) 0.9508(4) 0.9358(6)
C4 C 0.3781(5) 0.8949(5) 0.9743(6)
N1 N 0.2995(4) 0.9369(4) 0.8734(5)
O1 O 0.3657(3) 0.8383(3) 0.9431(4)
O11 O 0.3816(4) 0.7442(3) 0.8019(5)
N5 N 0.1901(4) 0.8765(4) 0.7891(5)
O14 O 0.2133(3) 0.8308(3) 0.9425(4)
O15 O 0.3673(3) 0.8750(3) 0.7472(4)
O16 O 0.2702(3) 0.7833(3) 0.6824(4)
O17 O 0.2298(3) 0.7167(3) 0.8176(4)
O18 O 0.2827(3) 0.7165(3) 0.9377(4)
H3 H 0.409908 0.739495 0.85265
H4 H 0.363084 0.700226 0.786336
C1_2 C 0.2221(5) 0.0019(5) 0.3487(6)
C3_2 C 0.1564(4) 0.0492(4) 0.4358(6)
C4_2 C 0.1219(5) 0.1051(5) 0.4743(6)
N1_2 N 0.2005(4) 0.0631(4) 0.3734(5)
O1_2 O 0.1343(3) 0.1617(3) 0.4431(4)
O2_2 O 0.0823(3) 0.0991(3) 0.5348(4)
O11_2 O 0.1184(4) 0.2558(3) 0.3019(5)
Y3_2 Y 0.07698(4) 0.04266(4) 0.65881(6)
Y4_2 Y 0.43090(4) 0.04327(4) 0.58083(5)
N5_2 N 0.3099(4) 0.1235(4) 0.2891(5)
O14_2 O 0.2867(3) 0.1692(3) 0.4425(4)
O17_2 O 0.2702(3) 0.2833(3) 0.3176(4)
O18_2 O 0.2173(3) 0.2835(3) 0.4377(4)
H3_2 H 0.0900919 0.260505 0.35265
H4_2 H 0.136916 0.299774 0.286336
Y1_2 Y 0.20734(4) 0.82698(4) 0.40881(6)
H1_2 H 0.2538 0.9969 0.3067
C2_2 C 0.1528(4) 0.9806(4) 0.4431(5)
C5_2 C 0.1172(5) 0.9371(4) 0.4996(6)
C6_2 C 0.3375(4) 0.9220(5) 0.4736(6)
H2_2 H 0.3423 0.9410 0.4207
C7_2 C 0.3033(5) 0.8594(4) 0.5733(6)
C8_2 C 0.3529(4) 0.9004(4) 0.6030(6)
C9_2 C 0.3814(5) 0.9130(5) 0.6872(6)
C10_2 C 0.2621(4) 0.8072(4) 0.6089(5)
N2_2 N 0.1964(3) 0.9515(4) 0.3862(5)
N3_2 N 0.2939(4) 0.8745(4) 0.4898(5)
N4_2 N 0.3735(4) 0.9401(4) 0.5391(5)
O3_2 O 0.0857(4) 0.9576(4) 0.5626(4)
O4_2 O 0.1201(3) 0.8752(3) 0.4836(5)
O5_2 O 0.4192(3) 0.9633(3) 0.6925(4)
O8_2 O 0.2173(3) 0.7835(3) 0.5623(4)
O9_2 O 0.1300(3) 0.7399(4) 0.4187(4)
O10_2 O 0.2779(4) 0.7339(4) 0.4110(5)
Y6_2 Y 0.20673(4) 0.68090(4) 0.66917(5)
O12_2 O 0.1509(3) 0.8323(3) 0.2848(4)
O13_2 O 0.2924(4) 0.8357(4) 0.3126(4)
H5_2 H 0.103956 0.737275 0.365807
H6_2 H 0.153819 0.697376 0.427821
H7_2 H 0.313119 0.740615 0.453823
H8_2 H 0.251765 0.693687 0.425298
O11_3 O 0.0058(3) 0.6316(4) 0.0519(5)
O17_3 O 0.0333(3) 0.4798(3) 0.0676(4)
O18_3 O 0.0335(3) 0.5327(3) 0.1877(4)
H3_3 H 0.0105054 0.659908 0.10265
H4_3 H 0.0497741 0.613084 0.0363357
Y1_3 Y 0.57698(4) 0.54266(4) 0.15881(6)
Y2_2 Y 0.93090(4) 0.54327(4) 0.08083(5)
C1_3 C 0.7519(5) 0.5279(5) 0.0987(6)
H1_3 H 0.7469 0.4962 0.0567
C2_3 C 0.7306(4) 0.5972(4) 0.1931(5)
C3_3 C 0.7992(4) 0.5936(4) 0.1858(6)
C4_3 C 0.8551(5) 0.6281(5) 0.2243(6)
C5_3 C 0.6871(4) 0.6328(5) 0.2496(6)
C6_3 C 0.6720(5) 0.4125(4) 0.2236(6)
H2_3 H 0.6910 0.4077 0.1707
C7_3 C 0.6094(4) 0.4467(5) 0.3233(6)
C8_3 C 0.6504(4) 0.3971(4) 0.3530(6)
C9_3 C 0.6630(5) 0.3686(5) 0.4372(6)
C10_3 C 0.5572(4) 0.4879(4) 0.3589(5)
N1_3 N 0.8131(4) 0.5495(4) 0.1234(5)
N2_3 N 0.7015(4) 0.5536(3) 0.1362(5)
N3_3 N 0.6245(4) 0.4561(4) 0.2398(5)
N4_3 N 0.6901(4) 0.3765(4) 0.2891(5)
O1_3 O 0.9117(3) 0.6157(3) 0.1931(4)
O2_3 O 0.8491(3) 0.6677(3) 0.2848(4)
O3_3 O 0.7076(4) 0.6643(4) 0.3126(4)
O4_3 O 0.6252(3) 0.6299(3) 0.2336(5)
O5_3 O 0.7133(3) 0.3308(3) 0.4425(4)
O6_2 O 0.6250(3) 0.3827(3) 0.4972(4)
O7_2 O 0.5333(3) 0.4798(3) 0.4324(4)
O8_3 O 0.5335(3) 0.5327(3) 0.3123(4)
O9_3 O 0.4899(4) 0.6200(3) 0.1687(4)
O10_3 O 0.4839(4) 0.4721(4) 0.1610(5)
Y3_3 Y 0.79266(4) 0.67302(4) 0.40881(6)
Y4_3 Y 0.79327(4) 0.31910(4) 0.33083(5)
Y5_2 Y 0.56910(4) 0.45673(4) 0.58083(5)
Y6_3 Y 0.43090(4) 0.54327(4) 0.41917(5)
N5_3 N 0.8735(4) 0.4401(4) 0.0391(5)
O12_3 O 0.5823(3) 0.5991(3) 0.0348(4)
O13_3 O 0.5857(4) 0.4576(4) 0.0626(4)
O14_3 O 0.9192(3) 0.4633(3) 0.1925(4)
H5_3 H 0.487275 0.646044 0.115807
H6_3 H 0.447376 0.596181 0.177821
H7_3 H 0.490615 0.436881 0.203823
H8_3 H 0.443687 0.498235 0.175298
O15_2 O 0.8750(3) 0.6173(3) 0.9972(4)
O16_2 O 0.9667(3) 0.5202(3) 0.9324(4)
O9_4 O 0.0101(4) 0.3800(3) 0.6687(4)
O10_4 O 0.0161(4) 0.5279(4) 0.6610(5)
Y6_4 Y 0.06910(4) 0.45673(4) 0.91917(5)
H5_4 H 0.0127248 0.353956 0.615807
H6_4 H 0.0526239 0.403819 0.677821
H7_4 H 0.0093855 0.563119 0.703823
H8_4 H 0.0563129 0.501765 0.675298
Y1_4 Y 0.92302(4) 0.45734(4) 0.65881(6)
C1_4 C 0.7481(5) 0.4721(5) 0.5987(6)
H1_4 H 0.7531 0.5038 0.5567
C2_4 C 0.7694(4) 0.4028(4) 0.6931(5)
C3_4 C 0.7008(4) 0.4064(4) 0.6858(6)
C4_4 C 0.6449(5) 0.3719(5) 0.7243(6)
C5_4 C 0.8129(4) 0.3672(5) 0.7496(6)
C6_4 C 0.8280(5) 0.5875(4) 0.7236(6)
H2_4 H 0.8090 0.5923 0.6707
C7_4 C 0.8906(4) 0.5533(5) 0.8233(6)
C8_4 C 0.8496(4) 0.6029(4) 0.8530(6)
C9_4 C 0.8370(5) 0.6314(5) 0.9372(6)
C10_4 C 0.9428(4) 0.5121(4) 0.8589(5)
N1_4 N 0.6869(4) 0.4505(4) 0.6234(5)
N2_4 N 0.7985(4) 0.4464(3) 0.6362(5)
N3_4 N 0.8755(4) 0.5439(4) 0.7398(5)
N4_4 N 0.8099(4) 0.6235(4) 0.7891(5)
O1_4 O 0.5883(3) 0.3843(3) 0.6931(4)
O2_4 O 0.6509(3) 0.3323(3) 0.7848(4)
O3_4 O 0.7924(4) 0.3357(4) 0.8126(4)
O4_4 O 0.8748(3) 0.3701(3) 0.7336(5)
O5_4 O 0.7867(3) 0.6692(3) 0.9425(4)
O8_4 O 0.9665(3) 0.4673(3) 0.8123(4)
O11_4 O 0.4942(3) 0.3684(4) 0.5519(5)
Y3_4 Y 0.70734(4) 0.32698(4) 0.90881(6)
Y4_4 Y 0.70673(4) 0.68090(4) 0.83083(5)
N5_4 N 0.6265(4) 0.5599(4) 0.5391(5)
O12_4 O 0.9177(3) 0.4009(3) 0.5348(4)
O13_4 O 0.9143(4) 0.5424(4) 0.5626(4)
O14_4 O 0.5808(3) 0.5367(3) 0.6925(4)
O17_4 O 0.4667(3) 0.5202(3) 0.5676(4)
O18_4 O 0.4665(3) 0.4673(3) 0.6877(4)
H3_4 H 0.489495 0.340092 0.60265
H4_4 H 0.450226 0.386916 0.536336
C1_5 C 0.7779(5) 0.4981(5) 0.3487(6)
H1_5 H 0.7462 0.5031 0.3067
C2_5 C 0.8472(4) 0.5194(4) 0.4431(5)
C3_5 C 0.8436(4) 0.4508(4) 0.4358(6)
C4_5 C 0.8781(5) 0.3949(5) 0.4743(6)
C5_5 C 0.8828(5) 0.5629(4) 0.4996(6)
C6_5 C 0.6625(4) 0.5780(5) 0.4736(6)
H2_5 H 0.6577 0.5590 0.4207
C7_5 C 0.6967(5) 0.6406(4) 0.5733(6)
C8_5 C 0.6471(4) 0.5996(4) 0.6030(6)
C9_5 C 0.6186(5) 0.5870(5) 0.6872(6)
C10_5 C 0.7379(4) 0.6928(4) 0.6089(5)
N1_5 N 0.7995(4) 0.4369(4) 0.3734(5)
N2_5 N 0.8036(3) 0.5485(4) 0.3862(5)
N3_5 N 0.7061(4) 0.6255(4) 0.4898(5)
O1_5 O 0.8657(3) 0.3383(3) 0.4431(4)
O4_5 O 0.8799(3) 0.6248(3) 0.4836(5)
O6_3 O 0.6327(3) 0.6250(3) 0.7472(4)
O7_3 O 0.7298(3) 0.7167(3) 0.6824(4)
O8_5 O 0.7827(3) 0.7165(3) 0.5623(4)
O9_5 O 0.8700(3) 0.7601(4) 0.4187(4)
O10_5 O 0.7221(4) 0.7661(4) 0.4110(5)
O11_5 O 0.8816(4) 0.2442(3) 0.3019(5)
Y6_5 Y 0.79327(4) 0.81910(4) 0.66917(5)
O15_3 O 0.8673(3) 0.3750(3) 0.2472(4)
O16_3 O 0.7702(3) 0.2833(3) 0.1824(4)
O17_5 O 0.7298(3) 0.2167(3) 0.3176(4)
O18_5 O 0.7827(3) 0.2165(3) 0.4377(4)
H3_5 H 0.909908 0.239495 0.35265
H4_5 H 0.863084 0.200226 0.286336
H5_5 H 0.896044 0.762725 0.365807
H6_5 H 0.846181 0.802624 0.427821
H7_5 H 0.686881 0.759385 0.453823
H8_5 H 0.748235 0.806313 0.425298
C7_6 C 0.8033(5) 0.3594(4) 0.0733(6)
C8_6 C 0.8529(4) 0.4004(4) 0.1030(6)
C9_6 C 0.8814(5) 0.4130(5) 0.1872(6)
C10_6 C 0.7621(4) 0.3072(4) 0.1089(5)
O8_6 O 0.7173(3) 0.2835(3) 0.0623(4)
Y6_6 Y 0.70673(4) 0.18090(4) 0.16917(5)
C1_6 C 0.7221(5) 0.5019(5) 0.8487(6)
H1_6 H 0.7538 0.4969 0.8067
C2_6 C 0.6528(4) 0.4806(4) 0.9431(5)
C3_6 C 0.6564(4) 0.5492(4) 0.9358(6)
C4_6 C 0.6219(5) 0.6051(5) 0.9743(6)
C5_6 C 0.6172(5) 0.4371(4) 0.9996(6)
C6_6 C 0.8375(4) 0.4220(5) 0.9736(6)
H2_6 H 0.8423 0.4410 0.9207
N1_6 N 0.7005(4) 0.5631(4) 0.8734(5)
N2_6 N 0.6964(3) 0.4515(4) 0.8862(5)
N3_6 N 0.7939(4) 0.3745(4) 0.9898(5)
O1_6 O 0.6343(3) 0.6617(3) 0.9431(4)
O4_6 O 0.6201(3) 0.3752(3) 0.9836(5)
O9_6 O 0.6300(3) 0.2399(4) 0.9187(4)
O10_6 O 0.7779(4) 0.2339(4) 0.9110(5)
O11_6 O 0.6184(4) 0.7558(3) 0.8019(5)
O17_6 O 0.7702(3) 0.7833(3) 0.8176(4)
O18_6 O 0.7173(3) 0.7835(3) 0.9377(4)
H3_6 H 0.590092 0.760505 0.85265
H4_6 H 0.636916 0.799774 0.786336
H5_6 H 0.603956 0.237275 0.865807
H6_6 H 0.653819 0.197376 0.927821
H7_6 H 0.813119 0.240615 0.953823
H8_6 H 0.751765 0.193687 0.925298
C1_7 C 0.2519(5) 0.0279(5) 0.5987(6)
C2_7 C 0.2306(4) 0.0972(4) 0.6931(5)
C3_7 C 0.2992(4) 0.0936(4) 0.6858(6)
C4_7 C 0.3551(5) 0.1281(5) 0.7243(6)
C5_7 C 0.1871(4) 0.1328(5) 0.7496(6)
N1_7 N 0.3131(4) 0.0495(4) 0.6234(5)
N2_7 N 0.2015(4) 0.0536(3) 0.6362(5)
O1_7 O 0.4117(3) 0.1157(3) 0.6931(4)
O4_7 O 0.1252(3) 0.1299(3) 0.7336(5)
O8_7 O 0.0335(3) 0.0327(3) 0.8123(4)
O11_7 O 0.5058(3) 0.1316(4) 0.5519(5)
O15_4 O 0.3750(3) 0.1173(3) 0.4972(4)
O16_4 O 0.4667(3) 0.0202(3) 0.4324(4)
O18_7 O 0.5335(3) 0.0327(3) 0.6877(4)
H3_7 H 0.510505 0.159908 0.60265
H4_7 H 0.549774 0.113084 0.536336
H1_7 H 0.2469 0.9962 0.5567
C6_7 C 0.1720(5) 0.9125(4) 0.7236(6)
H2_7 H 0.1910 0.9077 0.6707
C7_7 C 0.1094(4) 0.9467(5) 0.8233(6)
C8_7 C 0.1504(4) 0.8971(4) 0.8530(6)
C9_7 C 0.1630(5) 0.8686(5) 0.9372(6)
C10_7 C 0.0572(4) 0.9879(4) 0.8589(5)
N3_7 N 0.1245(4) 0.9561(4) 0.7398(5)
O6_4 O 0.1250(3) 0.8827(3) 0.9972(4)
O7_4 O 0.0333(3) 0.9798(3) 0.9324(4)
O17_7 O 0.5333(3) 0.9798(3) 0.5676(4)
O9_7 O 0.9899(4) 0.1200(3) 0.6687(4)
Y6_7 Y 0.93090(4) 0.04327(4) 0.91917(5)
H5_7 H 0.987275 0.146044 0.615807
H6_7 H 0.947376 0.0961812 0.677821
H1_8 H 0.2531 0.0038 0.0567
C6_8 C 0.3280(5) 0.0875(4) 0.2236(6)
H2_8 H 0.3090 0.0923 0.1707
C7_8 C 0.3906(4) 0.0533(5) 0.3233(6)
C8_8 C 0.3496(4) 0.1029(4) 0.3530(6)
C9_8 C 0.3370(5) 0.1314(5) 0.4372(6)
C10_8 C 0.4428(4) 0.0121(4) 0.3589(5)
N3_8 N 0.3755(4) 0.0439(4) 0.2398(5)
O10_7 O 0.5161(4) 0.0279(4) 0.1610(5)
H7_7 H 0.509385 0.0631186 0.203823
H8_7 H 0.556313 0.00176509 0.175298
C1_8 C 0.2481(5) 0.9721(5) 0.0987(6)
C2_8 C 0.2694(4) 0.9028(4) 0.1931(5)
C3_8 C 0.2008(4) 0.9064(4) 0.1858(6)
C4_8 C 0.1449(5) 0.8719(5) 0.2243(6)
C5_8 C 0.3129(4) 0.8672(5) 0.2496(6)
N1_8 N 0.1869(4) 0.9505(4) 0.1234(5)
N2_8 N 0.2985(4) 0.9464(3) 0.1362(5)
O1_8 O 0.0883(3) 0.8843(3) 0.1931(4)
O4_8 O 0.3748(3) 0.8701(3) 0.2336(5)
O8_8 O 0.4665(3) 0.9673(3) 0.3123(4)
O9_8 O 0.5101(4) 0.8800(3) 0.1687(4)
Y6_8 Y 0.56910(4) 0.95673(4) 0.41917(5)
H5_8 H 0.512725 0.853956 0.115807
H6_8 H 0.552624 0.903819 0.177821
O17_8 O 0.9667(3) 0.0202(3) 0.0676(4)
O11_8 O 0.9942(3) 0.8684(4) 0.0519(5)
O18_8 O 0.9665(3) 0.9673(3) 0.1877(4)
H3_8 H 0.989495 0.840092 0.10265
H4_8 H 0.950226 0.886916 0.0363357
C1_9 C 0.7221(5) 0.0019(5) 0.1513(6)
C3_9 C 0.6564(4) 0.0492(4) 0.0642(6)
C4_9 C 0.6219(5) 0.1051(5) 0.0257(6)
N1_9 N 0.7005(4) 0.0631(4) 0.1266(5)
O1_9 O 0.6343(3) 0.1617(3) 0.0569(4)
O11_9 O 0.6184(4) 0.2558(3) 0.1981(5)
N5_5 N 0.8099(4) 0.1235(4) 0.2109(5)
O14_5 O 0.7867(3) 0.1692(3) 0.0575(4)
O15_5 O 0.6327(3) 0.1250(3) 0.2528(4)
H3_9 H 0.590092 0.260505 0.14735
H4_9 H 0.636916 0.299774 0.213664
O2_5 O 0.5823(3) 0.0991(3) 0.9652(4)
Y3_5 Y 0.57698(4) 0.04266(4) 0.84119(6)
Y1_5 Y 0.70734(4) 0.82698(4) 0.09119(6)
H1_9 H 0.7538 0.9969 0.1933
C2_9 C 0.6528(4) 0.9806(4) 0.0569(5)
C5_9 C 0.6172(5) 0.9371(4) 0.0004(6)
C6_9 C 0.8375(4) 0.9220(5) 0.0264(6)
H2_9 H 0.8423 0.9410 0.0793
N2_9 N 0.6964(3) 0.9515(4) 0.1138(5)
N3_9 N 0.7939(4) 0.8745(4) 0.0102(5)
O4_9 O 0.6201(3) 0.8752(3) 0.0164(5)
O9_9 O 0.6300(3) 0.7399(4) 0.0813(4)
O10_8 O 0.7779(4) 0.7339(4) 0.0890(5)
O12_5 O 0.6509(3) 0.8323(3) 0.2152(4)
O13_5 O 0.7924(4) 0.8357(4) 0.1874(4)
H5_9 H 0.603956 0.737275 0.134193
H6_9 H 0.653819 0.697376 0.0721793
H7_8 H 0.813119 0.740615 0.0461773
H8_8 H 0.751765 0.693687 0.0747019
C7_9 C 0.8033(5) 0.8594(4) 0.9267(6)
C8_9 C 0.8529(4) 0.9004(4) 0.8970(6)
C9_9 C 0.8814(5) 0.9130(5) 0.8128(6)
C10_9 C 0.7621(4) 0.8072(4) 0.8911(5)
N4_5 N 0.8735(4) 0.9401(4) 0.9609(5)
O3_5 O 0.5857(4) 0.9576(4) 0.9374(4)
O5_5 O 0.9192(3) 0.9633(3) 0.8075(4)
O6_5 O 0.8673(3) 0.8750(3) 0.7528(4)
Y1_6 Y 0.79266(4) 0.17302(4) 0.59119(6)
H1_10 H 0.7462 0.0031 0.6933
C2_10 C 0.8472(4) 0.0194(4) 0.5569(5)
C5_10 C 0.8828(5) 0.0629(4) 0.5004(6)
C6_10 C 0.6625(4) 0.0780(5) 0.5264(6)
H2_10 H 0.6577 0.0590 0.5793
C7_10 C 0.6967(5) 0.1406(4) 0.4267(6)
C8_10 C 0.6471(4) 0.0996(4) 0.3970(6)
C9_10 C 0.6186(5) 0.0870(5) 0.3128(6)
C10_10 C 0.7379(4) 0.1928(4) 0.3911(5)
N2_10 N 0.8036(3) 0.0485(4) 0.6138(5)
N3_10 N 0.7061(4) 0.1255(4) 0.5102(5)
N4_6 N 0.6265(4) 0.0599(4) 0.4609(5)
O3_6 O 0.9143(4) 0.0424(4) 0.4374(4)
O4_10 O 0.8799(3) 0.1248(3) 0.5164(5)
O5_6 O 0.5808(3) 0.0367(3) 0.3075(4)
O9_10 O 0.8700(3) 0.2601(4) 0.5813(4)
O10_9 O 0.7221(4) 0.2661(4) 0.5890(5)
O12_6 O 0.8491(3) 0.1677(3) 0.7152(4)
O13_6 O 0.7076(4) 0.1643(4) 0.6874(4)
H5_10 H 0.896044 0.262725 0.634193
H6_10 H 0.846181 0.302624 0.572179
H7_9 H 0.686881 0.259385 0.546177
H8_9 H 0.748235 0.306313 0.574702
C1_10 C 0.7779(5) 0.9981(5) 0.6513(6)
C3_10 C 0.8436(4) 0.9508(4) 0.5642(6)
C4_10 C 0.8781(5) 0.8949(5) 0.5257(6)
N1_10 N 0.7995(4) 0.9369(4) 0.6266(5)
O1_10 O 0.8657(3) 0.8383(3) 0.5569(4)
O2_6 O 0.9177(3) 0.9009(3) 0.4652(4)
O11_10 O 0.8816(4) 0.7442(3) 0.6981(5)
Y3_6 Y 0.92302(4) 0.95734(4) 0.34119(6)
N5_6 N 0.6901(4) 0.8765(4) 0.7109(5)
O14_6 O 0.7133(3) 0.8308(3) 0.5575(4)
H3_10 H 0.909908 0.739495 0.64735
H4_10 H 0.863084 0.700226 0.713664
O15_6 O 0.1250(3) 0.3827(3) 0.0028(4)
Y1_7 Y 0.42302(4) 0.45734(4) 0.84119(6)
C1_11 C 0.2481(5) 0.4721(5) 0.9013(6)
H1_11 H 0.2531 0.5038 0.9433
C2_11 C 0.2694(4) 0.4028(4) 0.8069(5)
C3_11 C 0.2008(4) 0.4064(4) 0.8142(6)
C4_11 C 0.1449(5) 0.3719(5) 0.7757(6)
C5_11 C 0.3129(4) 0.3672(5) 0.7504(6)
C6_11 C 0.3280(5) 0.5875(4) 0.7764(6)
H2_11 H 0.3090 0.5923 0.8293
C7_11 C 0.3906(4) 0.5533(5) 0.6767(6)
C8_11 C 0.3496(4) 0.6029(4) 0.6470(6)
C9_11 C 0.3370(5) 0.6314(5) 0.5628(6)
C10_11 C 0.4428(4) 0.5121(4) 0.6411(5)
N1_11 N 0.1869(4) 0.4505(4) 0.8766(5)
N2_11 N 0.2985(4) 0.4464(3) 0.8638(5)
N3_11 N 0.3755(4) 0.5439(4) 0.7602(5)
N4_7 N 0.3099(4) 0.6235(4) 0.7109(5)
O1_11 O 0.0883(3) 0.3843(3) 0.8069(4)
O2_7 O 0.1509(3) 0.3323(3) 0.7152(4)
O3_7 O 0.2924(4) 0.3357(4) 0.6874(4)
O4_11 O 0.3748(3) 0.3701(3) 0.7664(5)
O5_7 O 0.2867(3) 0.6692(3) 0.5575(4)
O6_6 O 0.3750(3) 0.6173(3) 0.5028(4)
O9_11 O 0.5101(4) 0.3800(3) 0.8313(4)
O10_10 O 0.5161(4) 0.5279(4) 0.8390(5)
Y3_7 Y 0.20734(4) 0.32698(4) 0.59119(6)
N5_7 N 0.1265(4) 0.5599(4) 0.9609(5)
O12_7 O 0.4177(3) 0.4009(3) 0.9652(4)
O13_7 O 0.4143(4) 0.5424(4) 0.9374(4)
O14_7 O 0.0808(3) 0.5367(3) 0.8075(4)
H5_11 H 0.512725 0.353956 0.884193
H6_11 H 0.552624 0.403819 0.822179
H7_10 H 0.509385 0.563119 0.796177
H8_10 H 0.556313 0.501765 0.824702
O11_11 O 0.9942(3) 0.3684(4) 0.9481(5)
H3_11 H 0.989495 0.340092 0.89735
H4_11 H 0.950226 0.386916 0.963664
Y1_8 Y 0.07698(4) 0.54266(4) 0.34119(6)
C1_12 C 0.2519(5) 0.5279(5) 0.4013(6)
H1_12 H 0.2469 0.4962 0.4433
C2_12 C 0.2306(4) 0.5972(4) 0.3069(5)
C3_12 C 0.2992(4) 0.5936(4) 0.3142(6)
C4_12 C 0.3551(5) 0.6281(5) 0.2757(6)
C5_12 C 0.1871(4) 0.6328(5) 0.2504(6)
C6_12 C 0.1720(5) 0.4125(4) 0.2764(6)
H2_12 H 0.1910 0.4077 0.3293
C7_12 C 0.1094(4) 0.4467(5) 0.1767(6)
C8_12 C 0.1504(4) 0.3971(4) 0.1470(6)
C9_12 C 0.1630(5) 0.3686(5) 0.0628(6)
C10_12 C 0.0572(4) 0.4879(4) 0.1411(5)
N1_12 N 0.3131(4) 0.5495(4) 0.3766(5)
N2_12 N 0.2015(4) 0.5536(3) 0.3638(5)
N3_12 N 0.1245(4) 0.4561(4) 0.2602(5)
N4_8 N 0.1901(4) 0.3765(4) 0.2109(5)
O1_12 O 0.4117(3) 0.6157(3) 0.3069(4)
O2_8 O 0.3491(3) 0.6677(3) 0.2152(4)
O3_8 O 0.2076(4) 0.6643(4) 0.1874(4)
O4_12 O 0.1252(3) 0.6299(3) 0.2664(5)
O5_8 O 0.2133(3) 0.3308(3) 0.0575(4)
O11_12 O 0.5058(3) 0.6316(4) 0.4481(5)
Y3_8 Y 0.29266(4) 0.67302(4) 0.09119(6)
N5_8 N 0.3735(4) 0.4401(4) 0.4609(5)
O12_8 O 0.0823(3) 0.5991(3) 0.4652(4)
O13_8 O 0.0857(4) 0.4576(4) 0.4374(4)
O14_8 O 0.4192(3) 0.4633(3) 0.3075(4)
H3_12 H 0.510505 0.659908 0.39735
H4_12 H 0.549774 0.613084 0.463664
O9_12 O 0.9899(4) 0.6200(3) 0.3313(4)
O10_11 O 0.9839(4) 0.4721(4) 0.3390(5)
H5_12 H 0.987275 0.646044 0.384193
H6_12 H 0.947376 0.596181 0.322179
H7_11 H 0.990615 0.436881 0.296177
H8_11 H 0.943687 0.498235 0.324702
C1_13 C 0.2221(5) 0.5019(5) 0.6513(6)
H1_13 H 0.2538 0.4969 0.6933
C2_13 C 0.1528(4) 0.4806(4) 0.5569(5)
C3_13 C 0.1564(4) 0.5492(4) 0.5642(6)
C4_13 C 0.1219(5) 0.6051(5) 0.5257(6)
C5_13 C 0.1172(5) 0.4371(4) 0.5004(6)
C6_13 C 0.3375(4) 0.4220(5) 0.5264(6)
H2_13 H 0.3423 0.4410 0.5793
C7_13 C 0.3033(5) 0.3594(4) 0.4267(6)
C8_13 C 0.3529(4) 0.4004(4) 0.3970(6)
C9_13 C 0.3814(5) 0.4130(5) 0.3128(6)
C10_13 C 0.2621(4) 0.3072(4) 0.3911(5)
N1_13 N 0.2005(4) 0.5631(4) 0.6266(5)
N2_13 N 0.1964(3) 0.4515(4) 0.6138(5)
N3_13 N 0.2939(4) 0.3745(4) 0.5102(5)
O1_13 O 0.1343(3) 0.6617(3) 0.5569(4)
O4_13 O 0.1201(3) 0.3752(3) 0.5164(5)
O6_7 O 0.3673(3) 0.3750(3) 0.2528(4)
O9_13 O 0.1300(3) 0.2399(4) 0.5813(4)
O10_12 O 0.2779(4) 0.2339(4) 0.5890(5)
O11_13 O 0.1184(4) 0.7558(3) 0.6981(5)
O15_7 O 0.1327(3) 0.6250(3) 0.7528(4)
H3_13 H 0.0900919 0.760505 0.64735
H4_13 H 0.136916 0.799774 0.713664
H5_13 H 0.103956 0.237275 0.634193
H6_13 H 0.153819 0.197376 0.572179
H7_12 H 0.313119 0.240615 0.546177
H8_12 H 0.251765 0.193687 0.574702
C1_14 C 0.2779(5) 0.4981(5) 0.1513(6)
H1_14 H 0.2462 0.5031 0.1933
C2_14 C 0.3472(4) 0.5194(4) 0.0569(5)
C3_14 C 0.3436(4) 0.4508(4) 0.0642(6)
C4_14 C 0.3781(5) 0.3949(5) 0.0257(6)
C5_14 C 0.3828(5) 0.5629(4) 0.0004(6)
C6_14 C 0.1625(4) 0.5780(5) 0.0264(6)
H2_14 H 0.1577 0.5590 0.0793
N1_14 N 0.2995(4) 0.4369(4) 0.1266(5)
N2_14 N 0.3036(3) 0.5485(4) 0.1138(5)
N3_14 N 0.2061(4) 0.6255(4) 0.0102(5)
O1_14 O 0.3657(3) 0.3383(3) 0.0569(4)
O4_14 O 0.3799(3) 0.6248(3) 0.0164(5)
O9_14 O 0.3700(3) 0.7601(4) 0.0813(4)
O10_13 O 0.2221(4) 0.7661(4) 0.0890(5)
O11_14 O 0.3816(4) 0.2442(3) 0.1981(5)
H3_14 H 0.409908 0.239495 0.14735
H4_14 H 0.363084 0.200226 0.213664
H5_14 H 0.396044 0.762725 0.134193
H6_14 H 0.346181 0.802624 0.0721793
H7_13 H 0.186881 0.759385 0.0461773
H8_13 H 0.248235 0.806313 0.0747019
C7_14 C 0.1967(5) 0.6406(4) 0.9267(6)
C8_14 C 0.1471(4) 0.5996(4) 0.8970(6)
C9_14 C 0.1186(5) 0.5870(5) 0.8128(6)
C10_14 C 0.2379(4) 0.6928(4) 0.8911(5)
O9_15 O 0.0101(4) 0.8800(3) 0.3313(4)
H5_15 H 0.0127248 0.853956 0.384193
H6_15 H 0.0526239 0.903819 0.322179
H1_15 H 0.7531 0.0038 0.4433
C6_15 C 0.8280(5) 0.0875(4) 0.2764(6)
H2_15 H 0.8090 0.0923 0.3293
C7_15 C 0.8906(4) 0.0533(5) 0.1767(6)
C8_15 C 0.8496(4) 0.1029(4) 0.1470(6)
C9_15 C 0.8370(5) 0.1314(5) 0.0628(6)
C10_15 C 0.9428(4) 0.0121(4) 0.1411(5)
N3_15 N 0.8755(4) 0.0439(4) 0.2602(5)
O6_8 O 0.8750(3) 0.1173(3) 0.0028(4)
C1_15 C 0.7481(5) 0.9721(5) 0.4013(6)
C2_15 C 0.7694(4) 0.9028(4) 0.3069(5)
C3_15 C 0.7008(4) 0.9064(4) 0.3142(6)
C4_15 C 0.6449(5) 0.8719(5) 0.2757(6)
C5_15 C 0.8129(4) 0.8672(5) 0.2504(6)
N1_15 N 0.6869(4) 0.9505(4) 0.3766(5)
N2_15 N 0.7985(4) 0.9464(3) 0.3638(5)
O1_15 O 0.5883(3) 0.8843(3) 0.3069(4)
O4_15 O 0.8748(3) 0.8701(3) 0.2664(5)
O11_15 O 0.4942(3) 0.8684(4) 0.4481(5)
O15_8 O 0.6250(3) 0.8827(3) 0.5028(4)
H3_15 H 0.489495 0.840092 0.39735
H4_15 H 0.450226 0.886916 0.463664
O11_16 O 0.0058(3) 0.1316(4) 0.9481(5)
H3_16 H 0.0105054 0.159908 0.89735
H4_16 H 0.0497741 0.113084 0.963664
C1_16 C 0.7519(5) 0.0279(5) 0.9013(6)
C2_16 C 0.7306(4) 0.0972(4) 0.8069(5)
C3_16 C 0.7992(4) 0.0936(4) 0.8142(6)
C4_16 C 0.8551(5) 0.1281(5) 0.7757(6)
C5_16 C 0.6871(4) 0.1328(5) 0.7504(6)
N1_16 N 0.8131(4) 0.0495(4) 0.8766(5)
N2_16 N 0.7015(4) 0.0536(3) 0.8638(5)
O1_16 O 0.9117(3) 0.1157(3) 0.8069(4)
O4_16 O 0.6252(3) 0.1299(3) 0.7664(5)
O9_16 O 0.4899(4) 0.1200(3) 0.8313(4)
H5_16 H 0.487275 0.146044 0.884193
H6_16 H 0.447376 0.0961812 0.822179
H1_16 H 0.7469 0.9962 0.9433
C6_16 C 0.6720(5) 0.9125(4) 0.7764(6)
H2_16 H 0.6910 0.9077 0.8293
C7_16 C 0.6094(4) 0.9467(5) 0.6767(6)
C8_16 C 0.6504(4) 0.8971(4) 0.6470(6)
C9_16 C 0.6630(5) 0.8686(5) 0.5628(6)
C10_16 C 0.5572(4) 0.9879(4) 0.6411(5)
N3_16 N 0.6245(4) 0.9561(4) 0.7602(5)
O10_14 O 0.4839(4) 0.9721(4) 0.8390(5)
H7_14 H 0.490615 0.936881 0.796177
H8_14 H 0.443687 0.998235 0.824702
O10_15 O 0.9839(4) 0.9721(4) 0.6610(5)
H7_15 H 0.990615 0.936881 0.703823
H8_15 H 0.943687 0.998235 0.675298
O10_16 O 0.0161(4) 0.0279(4) 0.3390(5)
H7_16 H 0.0093855 0.0631186 0.296177
H8_16 H 0.0563129 0.00176509 0.324702
loop_
_geom_bond_atom_site_label_1
_geom_bond_atom_site_label_2
_geom_bond_site_symmetry_1
_geom_bond_site_symmetry_2
C7 C8 1_555 1_555
C8 C9 1_555 1_555
C9 O5 1_555 1_555
C10 C7 1_555 1_555
O6 C9 1_555 1_555
O7 C10 1_555 1_555
Y5 O6 1_555 1_555
Y6 O7 1_555 1_555
C8 N4 1_555 1_555
C10 O8 1_555 1_555
O7 Y5 1_555 1_555
O8 Y6 1_555 1_555
Y1 N2 1_555 1_555
C5 C2 1_555 1_555
C6 H2 1_555 1_555
N3 Y1 1_555 1_555
O4 Y1 1_555 1_555
O9 Y1 1_555 1_555
O10 Y1 1_555 1_555
O12 Y1 1_555 1_555
O13 Y1 1_555 1_555
C2 N2 1_555 1_555
C5 O4 1_555 1_555
C6 N3 1_555 1_555
O9 H5 1_555 1_555
O9 H6 1_555 1_555
O10 H7 1_555 1_555
O10 H8 1_555 1_555
Y3 O2 1_555 1_555
Y2 N1 1_555 1_555
C3 C4 1_555 1_555
C4 O1 1_555 1_555
N1 C1 1_555 1_555
O1 Y2 1_555 1_555
O11 Y2 1_555 1_555
N5 Y2 1_555 1_555
O14 Y2 1_555 1_555
O15 Y2 1_555 1_555
O16 Y2 1_555 1_555
O17 Y2 1_555 1_555
O18 Y2 1_555 1_555
C3 N1 1_555 1_555
O11 H3 1_555 1_555
O11 H4 1_555 1_555
Y5 N1_2 1_555 1_555
C3_2 C4_2 1_555 1_555
C4_2 O1_2 1_555 1_555
N1_2 C1_2 1_555 1_555
O1_2 Y5 1_555 1_555
O2_2 C4_2 1_555 1_555
O11_2 Y5 1_555 1_555
Y3_2 O2_2 1_555 1_555
N5_2 Y5 1_555 1_555
O14_2 Y5 1_555 1_555
O17_2 Y5 1_555 1_555
O18_2 Y5 1_555 1_555
C3_2 N1_2 1_555 1_555
O11_2 H3_2 1_555 1_555
O11_2 H4_2 1_555 1_555
Y1_2 N2_2 1_555 1_555
C5_2 C2_2 1_555 1_555
C6_2 H2_2 1_555 1_555
C7_2 C8_2 1_555 1_555
C8_2 C9_2 1_555 1_555
C9_2 O5_2 1_555 1_555
C10_2 C7_2 1_555 1_555
N3_2 Y1_2 1_555 1_555
N4_2 C6_2 1_555 1_555
O3_2 C5_2 1_555 1_555
O4_2 Y1_2 1_555 1_555
O15 C9_2 1_555 1_555
O16 C10_2 1_555 1_555
O8_2 Y1_2 1_555 1_555
O9_2 Y1_2 1_555 1_555
O10_2 Y1_2 1_555 1_555
Y6_2 O16 1_555 1_555
O12_2 Y1_2 1_555 1_555
O13_2 Y1_2 1_555 1_555
C2_2 N2_2 1_555 1_555
C5_2 O4_2 1_555 1_555
C6_2 N3_2 1_555 1_555
C7_2 N3_2 1_555 1_555
C8_2 N4_2 1_555 1_555
C10_2 O8_2 1_555 1_555
O8_2 Y6_2 1_555 1_555
O9_2 H5_2 1_555 1_555
O9_2 H6_2 1_555 1_555
O10_2 H7_2 1_555 1_555
O10_2 H8_2 1_555 1_555
O11_3 H3_3 1_555 1_555
O11_3 H4_3 1_555 1_555
Y1_3 N2_3 1_555 1_555
Y2_2 N1_3 1_555 1_555
C1_3 H1_3 1_555 1_555
C2_3 C3_3 1_555 1_555
C3_3 C4_3 1_555 1_555
C4_3 O1_3 1_555 1_555
C5_3 C2_3 1_555 1_555
C6_3 H2_3 1_555 1_555
C7_3 C8_3 1_555 1_555
C8_3 C9_3 1_555 1_555
C9_3 O5_3 1_555 1_555
C10_3 C7_3 1_555 1_555
N1_3 C1_3 1_555 1_555
N2_3 C1_3 1_555 1_555
N3_3 Y1_3 1_555 1_555
N4_3 C6_3 1_555 1_555
O1_3 Y2_2 1_555 1_555
O2_3 C4_3 1_555 1_555
O3_3 C5_3 1_555 1_555
O4_3 Y1_3 1_555 1_555
O5_3 Y4_3 1_555 1_555
O6_2 C9_3 1_555 1_555
O7_2 C10_3 1_555 1_555
O8_3 Y1_3 1_555 1_555
O9_3 Y1_3 1_555 1_555
O10_3 Y1_3 1_555 1_555
Y3_3 O2_3 1_555 1_555
Y4_3 N4_3 1_555 1_555
Y5_2 O6_2 1_555 1_555
Y6_3 O7_2 1_555 1_555
N5_3 Y2_2 1_555 1_555
O12_3 Y1_3 1_555 1_555
O13_3 Y1_3 1_555 1_555
O14_3 Y2_2 1_555 1_555
C2_3 N2_3 1_555 1_555
C3_3 N1_3 1_555 1_555
C5_3 O4_3 1_555 1_555
C6_3 N3_3 1_555 1_555
C7_3 N3_3 1_555 1_555
C8_3 N4_3 1_555 1_555
C10_3 O8_3 1_555 1_555
O3_3 Y3_3 1_555 1_555
O7_2 Y5_2 1_555 1_555
O8_3 Y6_3 1_555 1_555
O9_3 H5_3 1_555 1_555
O9_3 H6_3 1_555 1_555
O10_3 H7_3 1_555 1_555
O10_3 H8_3 1_555 1_555
O9_4 H5_4 1_555 1_555
O9_4 H6_4 1_555 1_555
O10_4 H7_4 1_555 1_555
O10_4 H8_4 1_555 1_555
Y1_4 N2_4 1_555 1_555
Y5_2 N1_4 1_555 1_555
C1_4 H1_4 1_555 1_555
C2_4 C3_4 1_555 1_555
C3_4 C4_4 1_555 1_555
C4_4 O1_4 1_555 1_555
C5_4 C2_4 1_555 1_555
C6_4 H2_4 1_555 1_555
C7_4 C8_4 1_555 1_555
C8_4 C9_4 1_555 1_555
C9_4 O5_4 1_555 1_555
C10_4 C7_4 1_555 1_555
N1_4 C1_4 1_555 1_555
N2_4 C1_4 1_555 1_555
N3_4 Y1_4 1_555 1_555
N4_4 C6_4 1_555 1_555
O1_4 Y5_2 1_555 1_555
O2_4 C4_4 1_555 1_555
O3_4 C5_4 1_555 1_555
O4_4 Y1_4 1_555 1_555
O5_4 Y4_4 1_555 1_555
O15_2 C9_4 1_555 1_555
O16_2 C10_4 1_555 1_555
O8_4 Y1_4 1_555 1_555
O11_4 Y5_2 1_555 1_555
Y3_4 O2_4 1_555 1_555
Y4_4 N4_4 1_555 1_555
N5_4 Y5_2 1_555 1_555
O12_4 Y1_4 1_555 1_555
O13_4 Y1_4 1_555 1_555
O14_4 Y5_2 1_555 1_555
O17_4 Y5_2 1_555 1_555
O18_4 Y5_2 1_555 1_555
C2_4 N2_4 1_555 1_555
C3_4 N1_4 1_555 1_555
C5_4 O4_4 1_555 1_555
C6_4 N3_4 1_555 1_555
C7_4 N3_4 1_555 1_555
C8_4 N4_4 1_555 1_555
C10_4 O8_4 1_555 1_555
O3_4 Y3_4 1_555 1_555
O11_4 H3_4 1_555 1_555
O11_4 H4_4 1_555 1_555
Y3_3 N2_5 1_555 1_555
Y4_3 N1_5 1_555 1_555
C1_5 H1_5 1_555 1_555
C2_5 C3_5 1_555 1_555
C3_5 C4_5 1_555 1_555
C4_5 O1_5 1_555 1_555
C5_5 C2_5 1_555 1_555
C6_5 H2_5 1_555 1_555
C7_5 C8_5 1_555 1_555
C8_5 C9_5 1_555 1_555
C9_5 O14_4 1_555 1_555
C10_5 C7_5 1_555 1_555
N1_5 C1_5 1_555 1_555
N2_5 C1_5 1_555 1_555
N3_5 Y3_3 1_555 1_555
N5_4 C6_5 1_555 1_555
O1_5 Y4_3 1_555 1_555
O12_4 C4_5 1_555 1_555
O13_4 C5_5 1_555 1_555
O4_5 Y3_3 1_555 1_555
O6_3 C9_5 1_555 1_555
O7_3 C10_5 1_555 1_555
O8_5 Y3_3 1_555 1_555
O9_5 Y3_3 1_555 1_555
O10_5 Y3_3 1_555 1_555
O11_5 Y4_3 1_555 1_555
Y4_4 O6_3 1_555 1_555
Y6_5 O7_3 1_555 1_555
O15_3 Y4_3 1_555 1_555
O16_3 Y4_3 1_555 1_555
O17_5 Y4_3 1_555 1_555
O18_5 Y4_3 1_555 1_555
C2_5 N2_5 1_555 1_555
C3_5 N1_5 1_555 1_555
C5_5 O4_5 1_555 1_555
C6_5 N3_5 1_555 1_555
C7_5 N3_5 1_555 1_555
C8_5 N5_4 1_555 1_555
C10_5 O8_5 1_555 1_555
O7_3 Y4_4 1_555 1_555
O8_5 Y6_5 1_555 1_555
O11_5 H3_5 1_555 1_555
O11_5 H4_5 1_555 1_555
O9_5 H5_5 1_555 1_555
O9_5 H6_5 1_555 1_555
O10_5 H7_5 1_555 1_555
O10_5 H8_5 1_555 1_555
C7_6 C8_6 1_555 1_555
C8_6 C9_6 1_555 1_555
C9_6 O14_3 1_555 1_555
C10_6 C7_6 1_555 1_555
O15_3 C9_6 1_555 1_555
O16_3 C10_6 1_555 1_555
Y6_6 O16_3 1_555 1_555
C8_6 N5_3 1_555 1_555
C10_6 O8_6 1_555 1_555
O8_6 Y6_6 1_555 1_555
Y3_4 N2_6 1_555 1_555
Y4_4 N1_6 1_555 1_555
C1_6 H1_6 1_555 1_555
C2_6 C3_6 1_555 1_555
C3_6 C4_6 1_555 1_555
C4_6 O1_6 1_555 1_555
C5_6 C2_6 1_555 1_555
C6_6 H2_6 1_555 1_555
N1_6 C1_6 1_555 1_555
N2_6 C1_6 1_555 1_555
N3_6 Y3_4 1_555 1_555
O1_6 Y4_4 1_555 1_555
O4_6 Y3_4 1_555 1_555
O9_6 Y3_4 1_555 1_555
O10_6 Y3_4 1_555 1_555
O11_6 Y4_4 1_555 1_555
O17_6 Y4_4 1_555 1_555
O18_6 Y4_4 1_555 1_555
C2_6 N2_6 1_555 1_555
C3_6 N1_6 1_555 1_555
C5_6 O4_6 1_555 1_555
C6_6 N3_6 1_555 1_555
O11_6 H3_6 1_555 1_555
O11_6 H4_6 1_555 1_555
O9_6 H5_6 1_555 1_555
O9_6 H6_6 1_555 1_555
O10_6 H7_6 1_555 1_555
O10_6 H8_6 1_555 1_555
Y3_2 N2_7 1_555 1_555
Y4_2 N1_7 1_555 1_555
C2_7 C3_7 1_555 1_555
C3_7 C4_7 1_555 1_555
C4_7 O1_7 1_555 1_555
C5_7 C2_7 1_555 1_555
N1_7 C1_7 1_555 1_555
N2_7 C1_7 1_555 1_555
O1_7 Y4_2 1_555 1_555
O12 C4_7 1_555 1_555
O13 C5_7 1_555 1_555
O4_7 Y3_2 1_555 1_555
O8_7 Y3_2 1_555 1_555
O11_7 Y4_2 1_555 1_555
O15_4 Y4_2 1_555 1_555
O16_4 Y4_2 1_555 1_555
O18_7 Y4_2 1_555 1_555
C2_7 N2_7 1_555 1_555
C3_7 N1_7 1_555 1_555
C5_7 O4_7 1_555 1_555
O11_7 H3_7 1_555 1_555
O11_7 H4_7 1_555 1_555
C6_7 H2_7 1_555 1_555
C7_7 C8_7 1_555 1_555
C8_7 C9_7 1_555 1_555
C9_7 O14 1_555 1_555
C10_7 C7_7 1_555 1_555
N5 C6_7 1_555 1_555
O6_4 C9_7 1_555 1_555
O7_4 C10_7 1_555 1_555
C6_7 N3_7 1_555 1_555
C7_7 N3_7 1_555 1_555
C8_7 N5 1_555 1_555
O9_7 H5_7 1_555 1_555
O9_7 H6_7 1_555 1_555
C6_8 H2_8 1_555 1_555
C7_8 C8_8 1_555 1_555
C8_8 C9_8 1_555 1_555
C9_8 O14_2 1_555 1_555
C10_8 C7_8 1_555 1_555
N5_2 C6_8 1_555 1_555
O15_4 C9_8 1_555 1_555
O16_4 C10_8 1_555 1_555
C6_8 N3_8 1_555 1_555
C7_8 N3_8 1_555 1_555
C8_8 N5_2 1_555 1_555
O10_7 H7_7 1_555 1_555
O10_7 H8_7 1_555 1_555
Y3 N2_8 1_555 1_555
Y4 N1_8 1_555 1_555
C2_8 C3_8 1_555 1_555
C3_8 C4_8 1_555 1_555
C4_8 O1_8 1_555 1_555
C5_8 C2_8 1_555 1_555
N1_8 C1_8 1_555 1_555
N2_8 C1_8 1_555 1_555
O1_8 Y4 1_555 1_555
O12_2 C4_8 1_555 1_555
O13_2 C5_8 1_555 1_555
O4_8 Y3 1_555 1_555
O8_8 Y3 1_555 1_555
O9_8 Y3 1_555 1_555
C2_8 N2_8 1_555 1_555
C3_8 N1_8 1_555 1_555
C5_8 O4_8 1_555 1_555
O8_8 Y6_8 1_555 1_555
O9_8 H5_8 1_555 1_555
O9_8 H6_8 1_555 1_555
O11_8 H3_8 1_555 1_555
O11_8 H4_8 1_555 1_555
Y6_6 N1_9 1_555 1_555
C3_9 C4_9 1_555 1_555
C4_9 O1_9 1_555 1_555
N1_9 C1_9 1_555 1_555
O1_9 Y6_6 1_555 1_555
O11_9 Y6_6 1_555 1_555
N5_5 Y6_6 1_555 1_555
O14_5 Y6_6 1_555 1_555
O15_5 Y6_6 1_555 1_555
O17_5 Y6_6 1_555 1_555
C3_9 N1_9 1_555 1_555
O11_9 H3_9 1_555 1_555
O11_9 H4_9 1_555 1_555
Y3_5 O2_5 1_555 1_555
Y1_5 N2_9 1_555 1_555
C5_9 C2_9 1_555 1_555
C6_9 H2_9 1_555 1_555
N3_9 Y1_5 1_555 1_555
O4_9 Y1_5 1_555 1_555
O9_9 Y1_5 1_555 1_555
O10_8 Y1_5 1_555 1_555
O12_5 Y1_5 1_555 1_555
O13_5 Y1_5 1_555 1_555
C2_9 N2_9 1_555 1_555
C5_9 O4_9 1_555 1_555
C6_9 N3_9 1_555 1_555
O9_9 H5_9 1_555 1_555
O9_9 H6_9 1_555 1_555
O10_8 H7_8 1_555 1_555
O10_8 H8_8 1_555 1_555
C7_9 C8_9 1_555 1_555
C8_9 C9_9 1_555 1_555
C9_9 O5_5 1_555 1_555
C10_9 C7_9 1_555 1_555
O6_5 C9_9 1_555 1_555
O17_6 C10_9 1_555 1_555
Y6_5 O6_5 1_555 1_555
C8_9 N4_5 1_555 1_555
C10_9 O18_6 1_555 1_555
O17_6 Y6_5 1_555 1_555
Y1_6 N2_10 1_555 1_555
C5_10 C2_10 1_555 1_555
C6_10 H2_10 1_555 1_555
C7_10 C8_10 1_555 1_555
C8_10 C9_10 1_555 1_555
C9_10 O5_6 1_555 1_555
C10_10 C7_10 1_555 1_555
N3_10 Y1_6 1_555 1_555
N4_6 C6_10 1_555 1_555
O3_6 C5_10 1_555 1_555
O4_10 Y1_6 1_555 1_555
O15_5 C9_10 1_555 1_555
O17_5 C10_10 1_555 1_555
O18_5 Y1_6 1_555 1_555
O9_10 Y1_6 1_555 1_555
O10_9 Y1_6 1_555 1_555
O12_6 Y1_6 1_555 1_555
O13_6 Y1_6 1_555 1_555
C2_10 N2_10 1_555 1_555
C5_10 O4_10 1_555 1_555
C6_10 N3_10 1_555 1_555
C7_10 N3_10 1_555 1_555
C8_10 N4_6 1_555 1_555
C10_10 O18_5 1_555 1_555
O9_10 H5_10 1_555 1_555
O9_10 H6_10 1_555 1_555
O10_9 H7_9 1_555 1_555
O10_9 H8_9 1_555 1_555
Y6_5 N1_10 1_555 1_555
C3_10 C4_10 1_555 1_555
C4_10 O1_10 1_555 1_555
N1_10 C1_10 1_555 1_555
O1_10 Y6_5 1_555 1_555
O2_6 C4_10 1_555 1_555
O11_10 Y6_5 1_555 1_555
Y3_6 O2_6 1_555 1_555
N5_6 Y6_5 1_555 1_555
O14_6 Y6_5 1_555 1_555
C3_10 N1_10 1_555 1_555
O11_10 H3_10 1_555 1_555
O11_10 H4_10 1_555 1_555
Y1_7 N2_11 1_555 1_555
Y6_4 N1_11 1_555 1_555
C1_11 H1_11 1_555 1_555
C2_11 C3_11 1_555 1_555
C3_11 C4_11 1_555 1_555
C4_11 O1_11 1_555 1_555
C5_11 C2_11 1_555 1_555
C6_11 H2_11 1_555 1_555
C7_11 C8_11 1_555 1_555
C8_11 C9_11 1_555 1_555
C9_11 O5_7 1_555 1_555
C10_11 C7_11 1_555 1_555
N1_11 C1_11 1_555 1_555
N2_11 C1_11 1_555 1_555
N3_11 Y1_7 1_555 1_555
N4_7 C6_11 1_555 1_555
O1_11 Y6_4 1_555 1_555
O2_7 C4_11 1_555 1_555
O3_7 C5_11 1_555 1_555
O4_11 Y1_7 1_555 1_555
O5_7 Y6_2 1_555 1_555
O6_6 C9_11 1_555 1_555
O17_4 C10_11 1_555 1_555
O18_4 Y1_7 1_555 1_555
O9_11 Y1_7 1_555 1_555
O10_10 Y1_7 1_555 1_555
Y3_7 O2_7 1_555 1_555
Y6_2 N4_7 1_555 1_555
Y6_3 O6_6 1_555 1_555
N5_7 Y6_4 1_555 1_555
O12_7 Y1_7 1_555 1_555
O13_7 Y1_7 1_555 1_555
O14_7 Y6_4 1_555 1_555
C2_11 N2_11 1_555 1_555
C3_11 N1_11 1_555 1_555
C5_11 O4_11 1_555 1_555
C6_11 N3_11 1_555 1_555
C7_11 N3_11 1_555 1_555
C8_11 N4_7 1_555 1_555
C10_11 O18_4 1_555 1_555
O3_7 Y3_7 1_555 1_555
O17_4 Y6_3 1_555 1_555
O9_11 H5_11 1_555 1_555
O9_11 H6_11 1_555 1_555
O10_10 H7_10 1_555 1_555
O10_10 H8_10 1_555 1_555
O11_11 H3_11 1_555 1_555
O11_11 H4_11 1_555 1_555
Y1_8 N2_12 1_555 1_555
Y6_3 N1_12 1_555 1_555
C1_12 H1_12 1_555 1_555
C2_12 C3_12 1_555 1_555
C3_12 C4_12 1_555 1_555
C4_12 O1_12 1_555 1_555
C5_12 C2_12 1_555 1_555
C6_12 H2_12 1_555 1_555
C7_12 C8_12 1_555 1_555
C8_12 C9_12 1_555 1_555
C9_12 O5_8 1_555 1_555
C10_12 C7_12 1_555 1_555
N1_12 C1_12 1_555 1_555
N2_12 C1_12 1_555 1_555
N3_12 Y1_8 1_555 1_555
N4_8 C6_12 1_555 1_555
O1_12 Y6_3 1_555 1_555
O2_8 C4_12 1_555 1_555
O3_8 C5_12 1_555 1_555
O4_12 Y1_8 1_555 1_555
O5_8 Y6 1_555 1_555
O15_6 C9_12 1_555 1_555
O17_3 C10_12 1_555 1_555
O18_3 Y1_8 1_555 1_555
O11_12 Y6_3 1_555 1_555
Y3_8 O2_8 1_555 1_555
Y6 N4_8 1_555 1_555
N5_8 Y6_3 1_555 1_555
O12_8 Y1_8 1_555 1_555
O13_8 Y1_8 1_555 1_555
O14_8 Y6_3 1_555 1_555
C2_12 N2_12 1_555 1_555
C3_12 N1_12 1_555 1_555
C5_12 O4_12 1_555 1_555
C6_12 N3_12 1_555 1_555
C7_12 N3_12 1_555 1_555
C8_12 N4_8 1_555 1_555
C10_12 O18_3 1_555 1_555
O3_8 Y3_8 1_555 1_555
O11_12 H3_12 1_555 1_555
O11_12 H4_12 1_555 1_555
O9_12 H5_12 1_555 1_555
O9_12 H6_12 1_555 1_555
O10_11 H7_11 1_555 1_555
O10_11 H8_11 1_555 1_555
Y3_7 N2_13 1_555 1_555
Y6_2 N1_13 1_555 1_555
C1_13 H1_13 1_555 1_555
C2_13 C3_13 1_555 1_555
C3_13 C4_13 1_555 1_555
C4_13 O1_13 1_555 1_555
C5_13 C2_13 1_555 1_555
C6_13 H2_13 1_555 1_555
C7_13 C8_13 1_555 1_555
C8_13 C9_13 1_555 1_555
C9_13 O14_8 1_555 1_555
C10_13 C7_13 1_555 1_555
N1_13 C1_13 1_555 1_555
N2_13 C1_13 1_555 1_555
N3_13 Y3_7 1_555 1_555
N5_8 C6_13 1_555 1_555
O1_13 Y6_2 1_555 1_555
O12_8 C4_13 1_555 1_555
O13_8 C5_13 1_555 1_555
O4_13 Y3_7 1_555 1_555
O6_7 C9_13 1_555 1_555
O17_2 C10_13 1_555 1_555
O18_2 Y3_7 1_555 1_555
O9_13 Y3_7 1_555 1_555
O10_12 Y3_7 1_555 1_555
O11_13 Y6_2 1_555 1_555
Y6 O6_7 1_555 1_555
O15_7 Y6_2 1_555 1_555
O17 Y6_2 1_555 1_555
C2_13 N2_13 1_555 1_555
C3_13 N1_13 1_555 1_555
C5_13 O4_13 1_555 1_555
C6_13 N3_13 1_555 1_555
C7_13 N3_13 1_555 1_555
C8_13 N5_8 1_555 1_555
C10_13 O18_2 1_555 1_555
O17_2 Y6 1_555 1_555
O11_13 H3_13 1_555 1_555
O11_13 H4_13 1_555 1_555
O9_13 H5_13 1_555 1_555
O9_13 H6_13 1_555 1_555
O10_12 H7_12 1_555 1_555
O10_12 H8_12 1_555 1_555
Y3_8 N2_14 1_555 1_555
Y6 N1_14 1_555 1_555
C1_14 H1_14 1_555 1_555
C2_14 C3_14 1_555 1_555
C3_14 C4_14 1_555 1_555
C4_14 O1_14 1_555 1_555
C5_14 C2_14 1_555 1_555
C6_14 H2_14 1_555 1_555
N1_14 C1_14 1_555 1_555
N2_14 C1_14 1_555 1_555
N3_14 Y3_8 1_555 1_555
O1_14 Y6 1_555 1_555
O4_14 Y3_8 1_555 1_555
O9_14 Y3_8 1_555 1_555
O10_13 Y3_8 1_555 1_555
O11_14 Y6 1_555 1_555
C2_14 N2_14 1_555 1_555
C3_14 N1_14 1_555 1_555
C5_14 O4_14 1_555 1_555
C6_14 N3_14 1_555 1_555
O11_14 H3_14 1_555 1_555
O11_14 H4_14 1_555 1_555
O9_14 H5_14 1_555 1_555
O9_14 H6_14 1_555 1_555
O10_13 H7_13 1_555 1_555
O10_13 H8_13 1_555 1_555
C7_14 C8_14 1_555 1_555
C8_14 C9_14 1_555 1_555
C9_14 O14_7 1_555 1_555
C10_14 C7_14 1_555 1_555
O15_7 C9_14 1_555 1_555
O17 C10_14 1_555 1_555
C8_14 N5_7 1_555 1_555
C10_14 O18 1_555 1_555
O9_15 H5_15 1_555 1_555
O9_15 H6_15 1_555 1_555
C6_15 H2_15 1_555 1_555
C7_15 C8_15 1_555 1_555
C8_15 C9_15 1_555 1_555
C9_15 O14_5 1_555 1_555
C10_15 C7_15 1_555 1_555
N5_5 C6_15 1_555 1_555
O6_8 C9_15 1_555 1_555
O17_8 C10_15 1_555 1_555
C6_15 N3_15 1_555 1_555
C7_15 N3_15 1_555 1_555
C8_15 N5_5 1_555 1_555
Y3_6 N2_15 1_555 1_555
Y6_8 N1_15 1_555 1_555
C2_15 C3_15 1_555 1_555
C3_15 C4_15 1_555 1_555
C4_15 O1_15 1_555 1_555
C5_15 C2_15 1_555 1_555
N1_15 C1_15 1_555 1_555
N2_15 C1_15 1_555 1_555
O1_15 Y6_8 1_555 1_555
O12_5 C4_15 1_555 1_555
O13_5 C5_15 1_555 1_555
O4_15 Y3_6 1_555 1_555
O18_8 Y3_6 1_555 1_555
O11_15 Y6_8 1_555 1_555
O15_8 Y6_8 1_555 1_555
O17_7 Y6_8 1_555 1_555
C2_15 N2_15 1_555 1_555
C3_15 N1_15 1_555 1_555
C5_15 O4_15 1_555 1_555
O11_15 H3_15 1_555 1_555
O11_15 H4_15 1_555 1_555
O11_16 H3_16 1_555 1_555
O11_16 H4_16 1_555 1_555
Y3_5 N2_16 1_555 1_555
Y6_7 N1_16 1_555 1_555
C2_16 C3_16 1_555 1_555
C3_16 C4_16 1_555 1_555
C4_16 O1_16 1_555 1_555
C5_16 C2_16 1_555 1_555
N1_16 C1_16 1_555 1_555
N2_16 C1_16 1_555 1_555
O1_16 Y6_7 1_555 1_555
O12_6 C4_16 1_555 1_555
O13_6 C5_16 1_555 1_555
O4_16 Y3_5 1_555 1_555
O18_7 Y3_5 1_555 1_555
O9_16 Y3_5 1_555 1_555
C2_16 N2_16 1_555 1_555
C3_16 N1_16 1_555 1_555
C5_16 O4_16 1_555 1_555
O9_16 H5_16 1_555 1_555
O9_16 H6_16 1_555 1_555
C6_16 H2_16 1_555 1_555
C7_16 C8_16 1_555 1_555
C8_16 C9_16 1_555 1_555
C9_16 O14_6 1_555 1_555
C10_16 C7_16 1_555 1_555
N5_6 C6_16 1_555 1_555
O15_8 C9_16 1_555 1_555
O17_7 C10_16 1_555 1_555
C6_16 N3_16 1_555 1_555
C7_16 N3_16 1_555 1_555
C8_16 N5_6 1_555 1_555
O10_14 H7_14 1_555 1_555
O10_14 H8_14 1_555 1_555
O10_15 H7_15 1_555 1_555
O10_15 H8_15 1_555 1_555
O10_16 H7_16 1_555 1_555
O10_16 H8_16 1_555 1_555

#END
