
###############################################################################
#
# This file contains modified crystal structure data generated from the
# MOF subset of the Cambridge Structural Database (CSD) v543 
# hosted by the Cambridge Crystallographic Data Centre (CCDC).
#
# This work is licensed under the Creative Commons
# Attribution-NonCommercial-ShareAlike 4.0 International License.
# To view a copy of this license, visit
# http://creativecommons.org/licenses/by-nc-sa/4.0/
# or send a letter to
# Creative Commons, PO Box 1866, Mountain View, CA 94042, USA.
#
# CIF created using the CSD Python API on 29 September 2022
# The structure has been converted into the P1 space group
# The structure has a 3D framework
# The original CSD entry PEGPUO is in the tetragonal crystal system
# The framework has been calculated to contain at least 10.0% void space
# The void calculation uses a probe of radius 1.32A, grid spacing 0.4
# H atom positions have been added when not included in the experimental data
#
###############################################################################

data_PEGPUO
_chemical_formula_moiety         '(C160 H128 N64 O172 Pr32)n'
_symmetry_cell_setting           triclinic
_symmetry_space_group_name_H-M   'P 1'
_symmetry_Int_Tables_number      1
_space_group_name_Hall           'P 1'
loop_
_symmetry_equiv_pos_site_id
_symmetry_equiv_pos_as_xyz
1 x,y,z
_cell_length_a                   20.3093(8)
_cell_length_b                   20.3093(8)
_cell_length_c                   16.654
_cell_angle_alpha                90
_cell_angle_beta                 90
_cell_angle_gamma                90
_cell_volume                     6869.24
loop_
_atom_site_label
_atom_site_type_symbol
_atom_site_fract_x
_atom_site_fract_y
_atom_site_fract_z
C5 C 0.6083(6) 0.4450(6) 0.0240(7)
C7 C 0.7985(6) 0.3631(5) 0.0806(7)
C8 C 0.8494(6) 0.4048(6) 0.1055(7)
C9 C 0.8825(6) 0.4157(6) 0.1839(7)
C10 C 0.7583(6) 0.3105(5) 0.1160(7)
N3 N 0.7850(5) 0.3781(5) 0.0006(5)
N4 N 0.8668(5) 0.4454(5) 0.0434(5)
O2 O 0.5845(4) 0.6144(4) 0.0478(5)
O3 O 0.5786(4) 0.4734(4) 0.0811(5)
O4 O 0.6113(4) 0.3843(4) 0.0135(5)
O5 O 0.9205(4) 0.4642(4) 0.1859(4)
O6 O 0.8723(4) 0.3765(4) 0.2411(5)
O7 O 0.7711(4) 0.2867(4) 0.1859(4)
O8 O 0.7116(4) 0.2863(4) 0.0740(4)
Pr3 Pr 0.57768(3) 0.56114(3) 0.17722(4)
Pr4 Pr 0.93205(3) 0.55004(3) 0.07912(4)
Pr5 Pr 0.80004(3) 0.31795(3) 0.32912(4)
Pr6 Pr 0.69996(3) 0.18205(3) 0.17088(4)
Pr1 Pr 0.68886(3) 0.32768(3) 0.92722(4)
Pr2 Pr 0.69996(3) 0.68205(3) 0.82912(4)
C1 C 0.7036(6) 0.5029(6) 0.8621(7)
H1 H 0.7310 0.4948 0.8185
C2 C 0.6417(6) 0.4879(6) 0.9617(7)
C3 C 0.6448(6) 0.5549(6) 0.9476(7)
C4 C 0.6158(6) 0.6155(6) 0.9830(7)
C6 C 0.8271(6) 0.4252(6) 0.9840(7)
H2 H 0.8292 0.4439 0.9331
N1 N 0.6866(5) 0.5642(5) 0.8827(6)
N2 N 0.6799(5) 0.4545(5) 0.9061(6)
O1 O 0.6233(4) 0.6669(4) 0.9422(5)
O9 O 0.5856(4) 0.2576(5) 0.9368(6)
O10 O 0.7430(5) 0.2186(4) 0.9252(5)
O11 O 0.6077(5) 0.7595(5) 0.7898(6)
N5 N 0.8046(5) 0.6168(5) 0.7934(5)
O12 O 0.6356(4) 0.3345(4) 0.7978(5)
O13 O 0.7766(4) 0.3286(4) 0.8311(5)
O14 O 0.7858(4) 0.6705(4) 0.9359(4)
O15 O 0.6277(4) 0.6235(4) 0.7411(5)
O16 O 0.7711(4) 0.7867(4) 0.8141(4)
O17 O 0.7289(4) 0.7133(4) 0.6859(4)
O18 O 0.7116(4) 0.7863(4) 0.9260(4)
H3 H 0.578907 0.767549 0.83698
H4 H 0.626621 0.801896 0.771099
H5 H 0.559774 0.261945 0.886449
H6 H 0.598128 0.210793 0.944773
H7 H 0.782673 0.219661 0.960025
H8 H 0.711893 0.184712 0.945407
Pr1_2 Pr 0.81114(3) 0.67232(3) 0.42722(4)
C1_2 C 0.7964(6) 0.4971(6) 0.3621(7)
H1_2 H 0.7690 0.5052 0.3185
C2_2 C 0.8583(6) 0.5121(6) 0.4617(7)
C3_2 C 0.8552(6) 0.4451(6) 0.4476(7)
C4_2 C 0.8842(6) 0.3845(6) 0.4830(7)
C5_2 C 0.8917(6) 0.5550(6) 0.5240(7)
C6_2 C 0.6729(6) 0.5748(6) 0.4840(7)
H2_2 H 0.6708 0.5561 0.4331
C7_2 C 0.7015(6) 0.6369(5) 0.5806(7)
C8_2 C 0.6506(6) 0.5952(6) 0.6055(7)
C9_2 C 0.6175(6) 0.5843(6) 0.6839(7)
C10_2 C 0.7417(6) 0.6895(5) 0.6160(7)
N1_2 N 0.8134(5) 0.4358(5) 0.3827(6)
N2_2 N 0.8201(5) 0.5455(5) 0.4061(6)
N3_2 N 0.7150(5) 0.6219(5) 0.5006(5)
N4_2 N 0.6332(5) 0.5546(5) 0.5434(5)
O1_2 O 0.8767(4) 0.3331(4) 0.4422(5)
O2_2 O 0.9155(4) 0.3856(4) 0.5478(5)
O3_2 O 0.9214(4) 0.5266(4) 0.5811(5)
O4_2 O 0.8887(4) 0.6157(4) 0.5135(5)
O5_2 O 0.5795(4) 0.5358(4) 0.6859(4)
O8_2 O 0.7884(4) 0.7137(4) 0.5740(4)
O9_2 O 0.9144(4) 0.7424(5) 0.4368(6)
O10_2 O 0.7570(5) 0.7814(4) 0.4252(5)
O11_2 O 0.8923(5) 0.2405(5) 0.2898(6)
Pr3_2 Pr 0.92232(3) 0.43886(3) 0.67722(4)
Pr4_2 Pr 0.56795(3) 0.44996(3) 0.57912(4)
Pr6_2 Pr 0.80004(3) 0.81795(3) 0.67088(4)
N5_2 N 0.6954(5) 0.3832(5) 0.2934(5)
O12_2 O 0.8644(4) 0.6655(4) 0.2978(5)
O13_2 O 0.7234(4) 0.6714(4) 0.3311(5)
O14_2 O 0.7142(4) 0.3295(4) 0.4359(4)
O16_2 O 0.7289(4) 0.2133(4) 0.3141(4)
O18_2 O 0.7884(4) 0.2137(4) 0.4260(4)
H3_2 H 0.921093 0.232451 0.33698
H4_2 H 0.873379 0.198104 0.271099
H5_2 H 0.940226 0.738055 0.386449
H6_2 H 0.901872 0.789207 0.444773
H7_2 H 0.717327 0.780339 0.460025
H8_2 H 0.788107 0.815288 0.445407
C6_3 C 0.3248(6) 0.0771(6) 0.2340(7)
H2_3 H 0.3061 0.0792 0.1831
C7_3 C 0.3869(5) 0.0485(6) 0.3306(7)
C8_3 C 0.3452(6) 0.0994(6) 0.3555(7)
C9_3 C 0.3343(6) 0.1325(6) 0.4339(7)
C10_3 C 0.4395(5) 0.0083(6) 0.3660(7)
N3_3 N 0.3719(5) 0.0350(5) 0.2506(5)
N4_3 N 0.3046(5) 0.1168(5) 0.2934(5)
O5_3 O 0.2858(4) 0.1705(4) 0.4359(4)
O6_2 O 0.3735(4) 0.1223(4) 0.4911(5)
O7_2 O 0.4633(4) 0.0211(4) 0.4359(4)
Pr4_3 Pr 0.19996(3) 0.18205(3) 0.32912(4)
Pr5_2 Pr 0.43205(3) 0.05004(3) 0.57912(4)
N5_3 N 0.1332(5) 0.0546(5) 0.0434(5)
O13_3 O 0.4214(4) 0.0266(4) 0.0811(5)
O14_3 O 0.0795(4) 0.0358(4) 0.1859(4)
H7_3 H 0.530339 0.0326734 0.210025
Pr1_3 Pr 0.42232(3) 0.93886(3) 0.17722(4)
Pr2_2 Pr 0.06795(3) 0.94996(3) 0.07912(4)
C1_3 C 0.2471(6) 0.9536(6) 0.1121(7)
H1_3 H 0.2552 0.9810 0.0685
C2_3 C 0.2621(6) 0.8917(6) 0.2117(7)
C3_3 C 0.1951(6) 0.8948(6) 0.1976(7)
C4_3 C 0.1345(6) 0.8658(6) 0.2330(7)
C5_3 C 0.3050(6) 0.8583(6) 0.2740(7)
N1_3 N 0.1858(5) 0.9366(5) 0.1327(6)
N2_3 N 0.2955(5) 0.9299(5) 0.1561(6)
O1_3 O 0.0831(4) 0.8733(4) 0.1922(5)
O2_3 O 0.1356(4) 0.8345(4) 0.2978(5)
O3_3 O 0.2766(4) 0.8286(4) 0.3311(5)
O4_3 O 0.3657(4) 0.8613(4) 0.2635(5)
O8_3 O 0.4637(4) 0.9616(4) 0.3240(4)
O9_3 O 0.4924(5) 0.8356(4) 0.1868(6)
O10_3 O 0.5314(4) 0.9930(5) 0.1752(5)
Pr3_3 Pr 0.18886(3) 0.82768(3) 0.42722(4)
Pr6_3 Pr 0.56795(3) 0.94996(3) 0.42088(4)
O12_3 O 0.4155(4) 0.8856(4) 0.0478(5)
H5_3 H 0.488055 0.809774 0.136449
H6_3 H 0.539207 0.848128 0.194773
H8_3 H 0.565288 0.961893 0.195407
O15_2 O 0.1265(4) 0.8777(4) 0.9911(5)
O17_2 O 0.0367(4) 0.9789(4) 0.9359(4)
O16_3 O 0.9633(4) 0.0211(4) 0.0641(4)
O11_3 O 0.9905(5) 0.8577(5) 0.0398(6)
O18_3 O 0.9637(4) 0.9616(4) 0.1760(4)
H3_3 H 0.982451 0.828907 0.0869801
H4_3 H 0.948104 0.876621 0.0210987
Pr1_4 Pr 0.07768(3) 0.06114(3) 0.67722(4)
C1_4 C 0.2529(6) 0.0464(6) 0.6121(7)
H1_4 H 0.2448 0.0190 0.5685
C2_4 C 0.2379(6) 0.1083(6) 0.7117(7)
C3_4 C 0.3049(6) 0.1052(6) 0.6976(7)
C4_4 C 0.3655(6) 0.1342(6) 0.7330(7)
C5_4 C 0.1950(6) 0.1417(6) 0.7740(7)
N1_4 N 0.3142(5) 0.0634(5) 0.6327(6)
N2_4 N 0.2045(5) 0.0701(5) 0.6561(6)
O1_4 O 0.4169(4) 0.1267(4) 0.6922(5)
O2_4 O 0.3644(4) 0.1655(4) 0.7978(5)
O3_4 O 0.2234(4) 0.1714(4) 0.8311(5)
O4_4 O 0.1343(4) 0.1387(4) 0.7635(5)
O8_4 O 0.0363(4) 0.0384(4) 0.8240(4)
O9_4 O 0.0076(5) 0.1644(4) 0.6868(6)
O11_4 O 0.5095(5) 0.1423(5) 0.5398(6)
Pr3_4 Pr 0.31114(3) 0.17232(3) 0.92722(4)
O12_4 O 0.0845(4) 0.1144(4) 0.5478(5)
O18_4 O 0.5363(4) 0.0384(4) 0.6760(4)
H3_4 H 0.517549 0.171093 0.58698
H4_4 H 0.551896 0.123379 0.521099
H5_4 H 0.0119447 0.190226 0.636449
C6_4 C 0.1752(6) 0.9229(6) 0.7340(7)
H2_4 H 0.1939 0.9208 0.6831
C7_4 C 0.1131(5) 0.9515(6) 0.8306(7)
C8_4 C 0.1548(6) 0.9006(6) 0.8555(7)
C9_4 C 0.1657(6) 0.8675(6) 0.9339(7)
C10_4 C 0.0605(5) 0.9917(6) 0.8660(7)
N3_4 N 0.1281(5) 0.9650(5) 0.7506(5)
N4_4 N 0.1954(5) 0.8832(5) 0.7934(5)
O5_4 O 0.2142(4) 0.8295(4) 0.9359(4)
Pr4_4 Pr 0.30004(3) 0.81795(3) 0.82912(4)
N5_4 N 0.3668(5) 0.9454(5) 0.5434(5)
O13_4 O 0.0786(4) 0.9734(4) 0.5811(5)
O14_4 O 0.4205(4) 0.9642(4) 0.6859(4)
O16_4 O 0.5367(4) 0.9789(4) 0.5641(4)
O10_4 O 0.9686(4) 0.0070(5) 0.6752(5)
Pr6_4 Pr 0.93205(3) 0.05004(3) 0.92088(4)
H6_4 H 0.960793 0.151872 0.694773
H8_4 H 0.934712 0.0381071 0.695407
C1_5 C 0.2036(6) 0.0029(6) 0.3621(7)
C3_5 C 0.1448(6) 0.0549(6) 0.4476(7)
C4_5 C 0.1158(6) 0.1155(6) 0.4830(7)
N1_5 N 0.1866(5) 0.0642(5) 0.3827(6)
O1_5 O 0.1233(4) 0.1669(4) 0.4422(5)
O11_5 O 0.1077(5) 0.2595(5) 0.2898(6)
O15_3 O 0.1277(4) 0.1235(4) 0.2411(5)
O16_5 O 0.2711(4) 0.2867(4) 0.3141(4)
O17_3 O 0.2289(4) 0.2133(4) 0.1859(4)
O18_5 O 0.2116(4) 0.2863(4) 0.4260(4)
H3_5 H 0.0789072 0.267549 0.33698
H4_5 H 0.126621 0.301896 0.271099
H1_5 H 0.2310 0.9948 0.3185
C2_5 C 0.1417(6) 0.9879(6) 0.4617(7)
C5_5 C 0.1083(6) 0.9450(6) 0.5240(7)
C6_5 C 0.3271(6) 0.9252(6) 0.4840(7)
H2_5 H 0.3292 0.9439 0.4331
C7_5 C 0.2985(6) 0.8631(5) 0.5806(7)
C8_5 C 0.3494(6) 0.9048(6) 0.6055(7)
C9_5 C 0.3825(6) 0.9157(6) 0.6839(7)
C10_5 C 0.2583(6) 0.8105(5) 0.6160(7)
N2_5 N 0.1799(5) 0.9545(5) 0.4061(6)
N3_5 N 0.2850(5) 0.8781(5) 0.5006(5)
O4_5 O 0.1113(4) 0.8843(4) 0.5135(5)
O6_3 O 0.3723(4) 0.8765(4) 0.7411(5)
O7_3 O 0.2711(4) 0.7867(4) 0.6859(4)
O8_5 O 0.2116(4) 0.7863(4) 0.5740(4)
O9_5 O 0.0856(4) 0.7576(5) 0.4368(6)
O10_5 O 0.2430(5) 0.7186(4) 0.4252(5)
Pr6_5 Pr 0.19996(3) 0.68205(3) 0.67088(4)
H5_5 H 0.0597743 0.761945 0.386449
H6_5 H 0.0981283 0.710793 0.444773
H7_4 H 0.282673 0.719661 0.460025
H8_5 H 0.211893 0.684712 0.445407
C5_6 C 0.3917(6) 0.0550(6) 0.0240(7)
C7_6 C 0.2015(6) 0.1369(5) 0.0806(7)
C8_6 C 0.1506(6) 0.0952(6) 0.1055(7)
C9_6 C 0.1175(6) 0.0843(6) 0.1839(7)
C10_6 C 0.2417(6) 0.1895(5) 0.1160(7)
N3_6 N 0.2150(5) 0.1219(5) 0.0006(5)
O4_6 O 0.3887(4) 0.1157(4) 0.0135(5)
O8_6 O 0.2884(4) 0.2137(4) 0.0740(4)
Pr6_6 Pr 0.30004(3) 0.31795(3) 0.17088(4)
H1_6 H 0.2690 0.0052 0.8185
C2_6 C 0.3583(6) 0.0121(6) 0.9617(7)
C6_6 C 0.1729(6) 0.0748(6) 0.9840(7)
H2_6 H 0.1708 0.0561 0.9331
N2_6 N 0.3201(5) 0.0455(5) 0.9061(6)
O9_6 O 0.4144(4) 0.2424(5) 0.9368(6)
O10_6 O 0.2570(5) 0.2814(4) 0.9252(5)
H5_6 H 0.440226 0.238055 0.886449
H6_6 H 0.401872 0.289207 0.944773
H7_5 H 0.217327 0.280339 0.960025
H8_6 H 0.288107 0.315288 0.945407
C1_6 C 0.2964(6) 0.9971(6) 0.8621(7)
C3_6 C 0.3552(6) 0.9451(6) 0.9476(7)
C4_6 C 0.3842(6) 0.8845(6) 0.9830(7)
N1_6 N 0.3134(5) 0.9358(5) 0.8827(6)
O1_6 O 0.3767(4) 0.8331(4) 0.9422(5)
O11_6 O 0.3923(5) 0.7405(5) 0.7898(6)
O16_6 O 0.2289(4) 0.7133(4) 0.8141(4)
O18_6 O 0.2884(4) 0.7137(4) 0.9260(4)
H3_6 H 0.421093 0.732451 0.83698
H4_6 H 0.373379 0.698104 0.771099
O10_7 O 0.0314(4) 0.4930(5) 0.6752(5)
Pr6_7 Pr 0.06795(3) 0.44996(3) 0.92088(4)
H6_7 H 0.0392071 0.348128 0.694773
H7_6 H 0.0303392 0.532673 0.710025
H8_7 H 0.0652878 0.461893 0.695407
C1_7 C 0.7471(6) 0.4536(6) 0.6121(7)
H1_7 H 0.7552 0.4810 0.5685
C2_7 C 0.7621(6) 0.3917(6) 0.7117(7)
C3_7 C 0.6951(6) 0.3948(6) 0.6976(7)
C4_7 C 0.6345(6) 0.3658(6) 0.7330(7)
C5_7 C 0.8050(6) 0.3583(6) 0.7740(7)
C6_7 C 0.8248(6) 0.5771(6) 0.7340(7)
H2_7 H 0.8061 0.5792 0.6831
C7_7 C 0.8869(5) 0.5485(6) 0.8306(7)
C8_7 C 0.8452(6) 0.5994(6) 0.8555(7)
C9_7 C 0.8343(6) 0.6325(6) 0.9339(7)
C10_7 C 0.9395(5) 0.5083(6) 0.8660(7)
N1_7 N 0.6858(5) 0.4366(5) 0.6327(6)
N2_7 N 0.7955(5) 0.4299(5) 0.6561(6)
N3_7 N 0.8719(5) 0.5350(5) 0.7506(5)
O1_7 O 0.5831(4) 0.3733(4) 0.6922(5)
O4_7 O 0.8657(4) 0.3613(4) 0.7635(5)
O6_4 O 0.8735(4) 0.6223(4) 0.9911(5)
O7_4 O 0.9633(4) 0.5211(4) 0.9359(4)
O8_7 O 0.9637(4) 0.4616(4) 0.8240(4)
O9_7 O 0.9924(5) 0.3356(4) 0.6868(6)
O11_7 O 0.4905(5) 0.3577(5) 0.5398(6)
O15_4 O 0.6265(4) 0.3777(4) 0.4911(5)
O16_7 O 0.4633(4) 0.5211(4) 0.5641(4)
O17_4 O 0.5367(4) 0.4789(4) 0.4359(4)
O18_7 O 0.4637(4) 0.4616(4) 0.6760(4)
H3_7 H 0.482451 0.328907 0.58698
H4_7 H 0.448104 0.376621 0.521099
H5_7 H 0.988055 0.309774 0.636449
O11_8 O 0.0095(5) 0.6423(5) 0.0398(6)
O16_8 O 0.0367(4) 0.4789(4) 0.0641(4)
O18_8 O 0.0363(4) 0.5384(4) 0.1760(4)
H3_8 H 0.0175487 0.671093 0.0869801
H4_8 H 0.051896 0.623379 0.0210987
C1_8 C 0.7529(6) 0.5464(6) 0.1121(7)
H1_8 H 0.7448 0.5190 0.0685
C2_8 C 0.7379(6) 0.6083(6) 0.2117(7)
C3_8 C 0.8049(6) 0.6052(6) 0.1976(7)
C4_8 C 0.8655(6) 0.6342(6) 0.2330(7)
C5_8 C 0.6950(6) 0.6417(6) 0.2740(7)
C6_8 C 0.6752(6) 0.4229(6) 0.2340(7)
H2_8 H 0.6939 0.4208 0.1831
C7_8 C 0.6131(5) 0.4515(6) 0.3306(7)
C8_8 C 0.6548(6) 0.4006(6) 0.3555(7)
C9_8 C 0.6657(6) 0.3675(6) 0.4339(7)
C10_8 C 0.5605(5) 0.4917(6) 0.3660(7)
N1_8 N 0.8142(5) 0.5634(5) 0.1327(6)
N2_8 N 0.7045(5) 0.5701(5) 0.1561(6)
N3_8 N 0.6281(5) 0.4650(5) 0.2506(5)
O1_8 O 0.9169(4) 0.6267(4) 0.1922(5)
O4_8 O 0.6343(4) 0.6387(4) 0.2635(5)
O8_8 O 0.5363(4) 0.5384(4) 0.3240(4)
O9_8 O 0.5076(5) 0.6644(4) 0.1868(6)
O10_8 O 0.4686(4) 0.5070(5) 0.1752(5)
Pr6_8 Pr 0.43205(3) 0.55004(3) 0.42088(4)
H5_8 H 0.511945 0.690226 0.136449
H6_8 H 0.460793 0.651872 0.194773
H7_7 H 0.469661 0.467327 0.210025
H8_8 H 0.434712 0.538107 0.195407
Pr1_5 Pr 0.31114(3) 0.67232(3) 0.07278(4)
C1_9 C 0.2964(6) 0.4971(6) 0.1379(7)
H1_9 H 0.2690 0.5052 0.1815
C2_9 C 0.3583(6) 0.5121(6) 0.0383(7)
C3_9 C 0.3552(6) 0.4451(6) 0.0524(7)
C4_9 C 0.3842(6) 0.3845(6) 0.0170(7)
C6_9 C 0.1729(6) 0.5748(6) 0.0160(7)
H2_9 H 0.1708 0.5561 0.0669
N1_9 N 0.3134(5) 0.4358(5) 0.1173(6)
N2_9 N 0.3201(5) 0.5455(5) 0.0939(6)
O1_9 O 0.3767(4) 0.3331(4) 0.0578(5)
O9_9 O 0.4144(4) 0.7424(5) 0.0632(6)
O10_9 O 0.2570(5) 0.7814(4) 0.0748(5)
O11_9 O 0.3923(5) 0.2405(5) 0.2102(6)
N5_5 N 0.1954(5) 0.3832(5) 0.2066(5)
O12_5 O 0.3644(4) 0.6655(4) 0.2022(5)
O13_5 O 0.2234(4) 0.6714(4) 0.1689(5)
O14_5 O 0.2142(4) 0.3295(4) 0.0641(4)
O15_5 O 0.3723(4) 0.3765(4) 0.2589(5)
H3_9 H 0.421093 0.232451 0.16302
H4_9 H 0.373379 0.198104 0.228901
H5_9 H 0.440226 0.738055 0.113551
H6_9 H 0.401872 0.789207 0.0552268
H7_8 H 0.217327 0.780339 0.039975
H8_9 H 0.288107 0.815288 0.0545927
C5_9 C 0.3917(6) 0.5550(6) 0.9760(7)
C7_9 C 0.2015(6) 0.6369(5) 0.9194(7)
C8_9 C 0.1506(6) 0.5952(6) 0.8945(7)
C9_9 C 0.1175(6) 0.5843(6) 0.8161(7)
C10_9 C 0.2417(6) 0.6895(5) 0.8840(7)
N3_9 N 0.2150(5) 0.6219(5) 0.9994(5)
N4_5 N 0.1332(5) 0.5546(5) 0.9566(5)
O2_5 O 0.4155(4) 0.3856(4) 0.9522(5)
O3_5 O 0.4214(4) 0.5266(4) 0.9189(5)
O4_9 O 0.3887(4) 0.6157(4) 0.9865(5)
O5_5 O 0.0795(4) 0.5358(4) 0.8141(4)
O6_5 O 0.1277(4) 0.6235(4) 0.7589(5)
Pr3_5 Pr 0.42232(3) 0.43886(3) 0.82278(4)
Pr1_6 Pr 0.18886(3) 0.32768(3) 0.57278(4)
C1_10 C 0.2036(6) 0.5029(6) 0.6379(7)
H1_10 H 0.2310 0.4948 0.6815
C2_10 C 0.1417(6) 0.4879(6) 0.5383(7)
C3_10 C 0.1448(6) 0.5549(6) 0.5524(7)
C4_10 C 0.1158(6) 0.6155(6) 0.5170(7)
C5_10 C 0.1083(6) 0.4450(6) 0.4760(7)
C6_10 C 0.3271(6) 0.4252(6) 0.5160(7)
H2_10 H 0.3292 0.4439 0.5669
C7_10 C 0.2985(6) 0.3631(5) 0.4194(7)
C8_10 C 0.3494(6) 0.4048(6) 0.3945(7)
C9_10 C 0.3825(6) 0.4157(6) 0.3161(7)
C10_10 C 0.2583(6) 0.3105(5) 0.3840(7)
N1_10 N 0.1866(5) 0.5642(5) 0.6173(6)
N2_10 N 0.1799(5) 0.4545(5) 0.5939(6)
N3_10 N 0.2850(5) 0.3781(5) 0.4994(5)
N4_6 N 0.3668(5) 0.4454(5) 0.4566(5)
O1_10 O 0.1233(4) 0.6669(4) 0.5578(5)
O2_6 O 0.0845(4) 0.6144(4) 0.4522(5)
O3_6 O 0.0786(4) 0.4734(4) 0.4189(5)
O4_10 O 0.1113(4) 0.3843(4) 0.4865(5)
O5_6 O 0.4205(4) 0.4642(4) 0.3141(4)
O9_10 O 0.0856(4) 0.2576(5) 0.5632(6)
O10_10 O 0.2430(5) 0.2186(4) 0.5748(5)
O11_10 O 0.1077(5) 0.7595(5) 0.7102(6)
Pr3_6 Pr 0.07768(3) 0.56114(3) 0.32278(4)
N5_6 N 0.3046(5) 0.6168(5) 0.7066(5)
O12_6 O 0.1356(4) 0.3345(4) 0.7022(5)
O13_6 O 0.2766(4) 0.3286(4) 0.6689(5)
O14_6 O 0.2858(4) 0.6705(4) 0.5641(4)
H3_10 H 0.0789072 0.767549 0.66302
H4_10 H 0.126621 0.801896 0.728901
H5_10 H 0.0597743 0.261945 0.613551
H6_10 H 0.0981283 0.210793 0.555227
H7_9 H 0.282673 0.219661 0.539975
H8_10 H 0.211893 0.184712 0.554593
O11_11 O 0.0095(5) 0.1423(5) 0.9602(6)
H3_11 H 0.0175487 0.171093 0.91302
H4_11 H 0.051896 0.123379 0.978901
O15_6 O 0.8735(4) 0.1223(4) 0.0089(5)
Pr1_7 Pr 0.57768(3) 0.06114(3) 0.82278(4)
C1_11 C 0.7529(6) 0.0464(6) 0.8879(7)
H1_11 H 0.7448 0.0190 0.9315
C2_11 C 0.7379(6) 0.1083(6) 0.7883(7)
C3_11 C 0.8049(6) 0.1052(6) 0.8024(7)
C4_11 C 0.8655(6) 0.1342(6) 0.7670(7)
C5_11 C 0.6950(6) 0.1417(6) 0.7260(7)
N1_11 N 0.8142(5) 0.0634(5) 0.8673(6)
N2_11 N 0.7045(5) 0.0701(5) 0.8439(6)
O1_11 O 0.9169(4) 0.1267(4) 0.8078(5)
O2_7 O 0.8644(4) 0.1655(4) 0.7022(5)
O3_7 O 0.7234(4) 0.1714(4) 0.6689(5)
O4_11 O 0.6343(4) 0.1387(4) 0.7365(5)
O9_11 O 0.5076(5) 0.1644(4) 0.8132(6)
O10_11 O 0.4686(4) 0.0070(5) 0.8248(5)
Pr3_7 Pr 0.81114(3) 0.17232(3) 0.57278(4)
O12_7 O 0.5845(4) 0.1144(4) 0.9522(5)
H5_11 H 0.511945 0.190226 0.863551
H6_11 H 0.460793 0.151872 0.805227
H8_11 H 0.434712 0.0381071 0.804593
C6_11 C 0.6752(6) 0.9229(6) 0.7660(7)
H2_11 H 0.6939 0.9208 0.8169
C7_11 C 0.6131(5) 0.9515(6) 0.6694(7)
C8_11 C 0.6548(6) 0.9006(6) 0.6445(7)
C9_11 C 0.6657(6) 0.8675(6) 0.5661(7)
C10_11 C 0.5605(5) 0.9917(6) 0.6340(7)
N3_11 N 0.6281(5) 0.9650(5) 0.7494(5)
N4_7 N 0.6954(5) 0.8832(5) 0.7066(5)
O5_7 O 0.7142(4) 0.8295(4) 0.5641(4)
O6_6 O 0.6265(4) 0.8777(4) 0.5089(5)
N5_7 N 0.8668(5) 0.9454(5) 0.9566(5)
O13_7 O 0.5786(4) 0.9734(4) 0.9189(5)
O14_7 O 0.9205(4) 0.9642(4) 0.8141(4)
H7_10 H 0.469661 0.967327 0.789975
O10_12 O 0.0314(4) 0.9930(5) 0.3248(5)
H6_12 H 0.0392071 0.848128 0.305227
H8_12 H 0.0652878 0.961893 0.304593
C6_12 C 0.8248(6) 0.0771(6) 0.2660(7)
H2_12 H 0.8061 0.0792 0.3169
C7_12 C 0.8869(5) 0.0485(6) 0.1694(7)
C8_12 C 0.8452(6) 0.0994(6) 0.1445(7)
C9_12 C 0.8343(6) 0.1325(6) 0.0661(7)
C10_12 C 0.9395(5) 0.0083(6) 0.1340(7)
N3_12 N 0.8719(5) 0.0350(5) 0.2494(5)
N4_8 N 0.8046(5) 0.1168(5) 0.2066(5)
O5_8 O 0.7858(4) 0.1705(4) 0.0641(4)
N5_8 N 0.6332(5) 0.0546(5) 0.4566(5)
O13_8 O 0.9214(4) 0.0266(4) 0.4189(5)
O14_8 O 0.5795(4) 0.0358(4) 0.3141(4)
Pr1_8 Pr 0.92232(3) 0.93886(3) 0.32278(4)
C1_12 C 0.7471(6) 0.9536(6) 0.3879(7)
H1_12 H 0.7552 0.9810 0.4315
C2_12 C 0.7621(6) 0.8917(6) 0.2883(7)
C3_12 C 0.6951(6) 0.8948(6) 0.3024(7)
C4_12 C 0.6345(6) 0.8658(6) 0.2670(7)
C5_12 C 0.8050(6) 0.8583(6) 0.2260(7)
N1_12 N 0.6858(5) 0.9366(5) 0.3673(6)
N2_12 N 0.7955(5) 0.9299(5) 0.3439(6)
O1_12 O 0.5831(4) 0.8733(4) 0.3078(5)
O2_8 O 0.6356(4) 0.8345(4) 0.2022(5)
O3_8 O 0.7766(4) 0.8286(4) 0.1689(5)
O4_12 O 0.8657(4) 0.8613(4) 0.2365(5)
O9_12 O 0.9924(5) 0.8356(4) 0.3132(6)
O11_12 O 0.4905(5) 0.8577(5) 0.4602(6)
Pr3_8 Pr 0.68886(3) 0.82768(3) 0.07278(4)
O12_8 O 0.9155(4) 0.8856(4) 0.4522(5)
H3_12 H 0.482451 0.828907 0.41302
H4_12 H 0.448104 0.876621 0.478901
H5_12 H 0.988055 0.809774 0.363551
H1_13 H 0.7690 0.0052 0.6815
C2_13 C 0.8583(6) 0.0121(6) 0.5383(7)
C5_13 C 0.8917(6) 0.0550(6) 0.4760(7)
C6_13 C 0.6729(6) 0.0748(6) 0.5160(7)
H2_13 H 0.6708 0.0561 0.5669
C7_13 C 0.7015(6) 0.1369(5) 0.4194(7)
C8_13 C 0.6506(6) 0.0952(6) 0.3945(7)
C9_13 C 0.6175(6) 0.0843(6) 0.3161(7)
C10_13 C 0.7417(6) 0.1895(5) 0.3840(7)
N2_13 N 0.8201(5) 0.0455(5) 0.5939(6)
N3_13 N 0.7150(5) 0.1219(5) 0.4994(5)
O4_13 O 0.8887(4) 0.1157(4) 0.4865(5)
O6_7 O 0.6277(4) 0.1235(4) 0.2589(5)
O9_13 O 0.9144(4) 0.2424(5) 0.5632(6)
O10_13 O 0.7570(5) 0.2814(4) 0.5748(5)
H5_13 H 0.940226 0.238055 0.613551
H6_13 H 0.901872 0.289207 0.555227
H7_11 H 0.717327 0.280339 0.539975
H8_13 H 0.788107 0.315288 0.554593
C1_13 C 0.7964(6) 0.9971(6) 0.6379(7)
C3_13 C 0.8552(6) 0.9451(6) 0.5524(7)
C4_13 C 0.8842(6) 0.8845(6) 0.5170(7)
N1_13 N 0.8134(5) 0.9358(5) 0.6173(6)
O1_13 O 0.8767(4) 0.8331(4) 0.5578(5)
O11_13 O 0.8923(5) 0.7405(5) 0.7102(6)
O15_7 O 0.8723(4) 0.8765(4) 0.7589(5)
H3_13 H 0.921093 0.732451 0.66302
H4_13 H 0.873379 0.698104 0.728901
C1_14 C 0.7036(6) 0.0029(6) 0.1379(7)
C3_14 C 0.6448(6) 0.0549(6) 0.0524(7)
C4_14 C 0.6158(6) 0.1155(6) 0.0170(7)
N1_14 N 0.6866(5) 0.0642(5) 0.1173(6)
O1_14 O 0.6233(4) 0.1669(4) 0.0578(5)
O11_14 O 0.6077(5) 0.2595(5) 0.2102(6)
H3_14 H 0.578907 0.267549 0.16302
H4_14 H 0.626621 0.301896 0.228901
H1_14 H 0.7310 0.9948 0.1815
C2_14 C 0.6417(6) 0.9879(6) 0.0383(7)
C6_14 C 0.8271(6) 0.9252(6) 0.0160(7)
H2_14 H 0.8292 0.9439 0.0669
N2_14 N 0.6799(5) 0.9545(5) 0.0939(6)
O9_14 O 0.5856(4) 0.7576(5) 0.0632(6)
O10_14 O 0.7430(5) 0.7186(4) 0.0748(5)
H5_14 H 0.559774 0.761945 0.113551
H6_14 H 0.598128 0.710793 0.0552268
H7_12 H 0.782673 0.719661 0.039975
H8_14 H 0.711893 0.684712 0.0545927
C5_14 C 0.6083(6) 0.9450(6) 0.9760(7)
C7_14 C 0.7985(6) 0.8631(5) 0.9194(7)
C8_14 C 0.8494(6) 0.9048(6) 0.8945(7)
C9_14 C 0.8825(6) 0.9157(6) 0.8161(7)
C10_14 C 0.7583(6) 0.8105(5) 0.8840(7)
N3_14 N 0.7850(5) 0.8781(5) 0.9994(5)
O4_14 O 0.6113(4) 0.8843(4) 0.9865(5)
C1_15 C 0.2529(6) 0.5464(6) 0.3879(7)
H1_15 H 0.2448 0.5190 0.4315
C2_15 C 0.2379(6) 0.6083(6) 0.2883(7)
C3_15 C 0.3049(6) 0.6052(6) 0.3024(7)
C4_15 C 0.3655(6) 0.6342(6) 0.2670(7)
C5_15 C 0.1950(6) 0.6417(6) 0.2260(7)
C6_15 C 0.1752(6) 0.4229(6) 0.2660(7)
H2_15 H 0.1939 0.4208 0.3169
C7_15 C 0.1131(5) 0.4515(6) 0.1694(7)
C8_15 C 0.1548(6) 0.4006(6) 0.1445(7)
C9_15 C 0.1657(6) 0.3675(6) 0.0661(7)
C10_15 C 0.0605(5) 0.4917(6) 0.1340(7)
N1_15 N 0.3142(5) 0.5634(5) 0.3673(6)
N2_15 N 0.2045(5) 0.5701(5) 0.3439(6)
N3_15 N 0.1281(5) 0.4650(5) 0.2494(5)
O1_15 O 0.4169(4) 0.6267(4) 0.3078(5)
O4_15 O 0.1343(4) 0.6387(4) 0.2365(5)
O6_8 O 0.1265(4) 0.3777(4) 0.0089(5)
O9_15 O 0.0076(5) 0.6644(4) 0.3132(6)
O11_15 O 0.5095(5) 0.6423(5) 0.4602(6)
O15_8 O 0.3735(4) 0.6223(4) 0.5089(5)
H3_15 H 0.517549 0.671093 0.41302
H4_15 H 0.551896 0.623379 0.478901
H5_15 H 0.0119447 0.690226 0.363551
O10_15 O 0.9686(4) 0.5070(5) 0.3248(5)
H6_15 H 0.960793 0.651872 0.305227
H7_13 H 0.969661 0.467327 0.289975
H8_15 H 0.934712 0.538107 0.304593
C1_16 C 0.2471(6) 0.4536(6) 0.8879(7)
H1_16 H 0.2552 0.4810 0.9315
C2_16 C 0.2621(6) 0.3917(6) 0.7883(7)
C3_16 C 0.1951(6) 0.3948(6) 0.8024(7)
C4_16 C 0.1345(6) 0.3658(6) 0.7670(7)
C5_16 C 0.3050(6) 0.3583(6) 0.7260(7)
C6_16 C 0.3248(6) 0.5771(6) 0.7660(7)
H2_16 H 0.3061 0.5792 0.8169
C7_16 C 0.3869(5) 0.5485(6) 0.6694(7)
C8_16 C 0.3452(6) 0.5994(6) 0.6445(7)
C9_16 C 0.3343(6) 0.6325(6) 0.5661(7)
C10_16 C 0.4395(5) 0.5083(6) 0.6340(7)
N1_16 N 0.1858(5) 0.4366(5) 0.8673(6)
N2_16 N 0.2955(5) 0.4299(5) 0.8439(6)
N3_16 N 0.3719(5) 0.5350(5) 0.7494(5)
O1_16 O 0.0831(4) 0.3733(4) 0.8078(5)
O4_16 O 0.3657(4) 0.3613(4) 0.7365(5)
O9_16 O 0.4924(5) 0.3356(4) 0.8132(6)
O10_16 O 0.5314(4) 0.4930(5) 0.8248(5)
H5_16 H 0.488055 0.309774 0.863551
H6_16 H 0.539207 0.348128 0.805227
H7_14 H 0.530339 0.532673 0.789975
H8_16 H 0.565288 0.461893 0.804593
O11_16 O 0.9905(5) 0.3577(5) 0.9602(6)
H3_16 H 0.982451 0.328907 0.91302
H4_16 H 0.948104 0.376621 0.978901
H7_15 H 0.969661 0.967327 0.710025
H7_16 H 0.0303392 0.0326734 0.289975
loop_
_geom_bond_atom_site_label_1
_geom_bond_atom_site_label_2
_geom_bond_site_symmetry_1
_geom_bond_site_symmetry_2
C7 C8 1_555 1_555
C8 C9 1_555 1_555
C9 O5 1_555 1_555
C10 C7 1_555 1_555
O3 C5 1_555 1_555
O5 Pr4 1_555 1_555
O6 C9 1_555 1_555
O7 C10 1_555 1_555
Pr3 O2 1_555 1_555
Pr4 N4 1_555 1_555
Pr5 O6 1_555 1_555
Pr6 O7 1_555 1_555
C5 O4 1_555 1_555
C7 N3 1_555 1_555
C8 N4 1_555 1_555
C10 O8 1_555 1_555
O3 Pr3 1_555 1_555
O7 Pr5 1_555 1_555
O8 Pr6 1_555 1_555
Pr1 N2 1_555 1_555
Pr2 N1 1_555 1_555
C1 H1 1_555 1_555
C2 C3 1_555 1_555
C3 C4 1_555 1_555
C4 O1 1_555 1_555
C6 H2 1_555 1_555
N1 C1 1_555 1_555
N2 C1 1_555 1_555
O1 Pr2 1_555 1_555
O9 Pr1 1_555 1_555
O10 Pr1 1_555 1_555
O11 Pr2 1_555 1_555
N5 Pr2 1_555 1_555
O12 Pr1 1_555 1_555
O13 Pr1 1_555 1_555
O14 Pr2 1_555 1_555
O15 Pr2 1_555 1_555
O16 Pr2 1_555 1_555
O17 Pr2 1_555 1_555
O18 Pr2 1_555 1_555
C2 N2 1_555 1_555
C3 N1 1_555 1_555
O11 H3 1_555 1_555
O11 H4 1_555 1_555
O9 H5 1_555 1_555
O9 H6 1_555 1_555
O10 H7 1_555 1_555
O10 H8 1_555 1_555
Pr1_2 N2_2 1_555 1_555
Pr5 N1_2 1_555 1_555
C1_2 H1_2 1_555 1_555
C2_2 C3_2 1_555 1_555
C3_2 C4_2 1_555 1_555
C4_2 O1_2 1_555 1_555
C5_2 C2_2 1_555 1_555
C6_2 H2_2 1_555 1_555
C7_2 C8_2 1_555 1_555
C8_2 C9_2 1_555 1_555
C9_2 O5_2 1_555 1_555
C10_2 C7_2 1_555 1_555
N1_2 C1_2 1_555 1_555
N2_2 C1_2 1_555 1_555
N3_2 Pr1_2 1_555 1_555
N4_2 C6_2 1_555 1_555
O1_2 Pr5 1_555 1_555
O2_2 C4_2 1_555 1_555
O3_2 C5_2 1_555 1_555
O4_2 Pr1_2 1_555 1_555
O5_2 Pr4_2 1_555 1_555
O15 C9_2 1_555 1_555
O17 C10_2 1_555 1_555
O8_2 Pr1_2 1_555 1_555
O9_2 Pr1_2 1_555 1_555
O10_2 Pr1_2 1_555 1_555
O11_2 Pr5 1_555 1_555
Pr3_2 O2_2 1_555 1_555
Pr4_2 N4_2 1_555 1_555
Pr6_2 O17 1_555 1_555
N5_2 Pr5 1_555 1_555
O12_2 Pr1_2 1_555 1_555
O13_2 Pr1_2 1_555 1_555
O14_2 Pr5 1_555 1_555
O16_2 Pr5 1_555 1_555
O18_2 Pr5 1_555 1_555
C2_2 N2_2 1_555 1_555
C3_2 N1_2 1_555 1_555
C5_2 O4_2 1_555 1_555
C6_2 N3_2 1_555 1_555
C7_2 N3_2 1_555 1_555
C8_2 N4_2 1_555 1_555
C10_2 O8_2 1_555 1_555
O3_2 Pr3_2 1_555 1_555
O8_2 Pr6_2 1_555 1_555
O11_2 H3_2 1_555 1_555
O11_2 H4_2 1_555 1_555
O9_2 H5_2 1_555 1_555
O9_2 H6_2 1_555 1_555
O10_2 H7_2 1_555 1_555
O10_2 H8_2 1_555 1_555
C6_3 H2_3 1_555 1_555
C7_3 C8_3 1_555 1_555
C8_3 C9_3 1_555 1_555
C9_3 O5_3 1_555 1_555
C10_3 C7_3 1_555 1_555
N4_3 C6_3 1_555 1_555
O5_3 Pr4_3 1_555 1_555
O6_2 C9_3 1_555 1_555
O7_2 C10_3 1_555 1_555
Pr4_3 N4_3 1_555 1_555
Pr5_2 O6_2 1_555 1_555
C6_3 N3_3 1_555 1_555
C7_3 N3_3 1_555 1_555
C8_3 N4_3 1_555 1_555
O7_2 Pr5_2 1_555 1_555
Pr1_3 N2_3 1_555 1_555
Pr2_2 N1_3 1_555 1_555
C1_3 H1_3 1_555 1_555
C2_3 C3_3 1_555 1_555
C3_3 C4_3 1_555 1_555
C4_3 O1_3 1_555 1_555
C5_3 C2_3 1_555 1_555
N1_3 C1_3 1_555 1_555
N2_3 C1_3 1_555 1_555
O1_3 Pr2_2 1_555 1_555
O2_3 C4_3 1_555 1_555
O3_3 C5_3 1_555 1_555
O4_3 Pr1_3 1_555 1_555
O8_3 Pr1_3 1_555 1_555
O9_3 Pr1_3 1_555 1_555
O10_3 Pr1_3 1_555 1_555
Pr3_3 O2_3 1_555 1_555
O12_3 Pr1_3 1_555 1_555
C2_3 N2_3 1_555 1_555
C3_3 N1_3 1_555 1_555
C5_3 O4_3 1_555 1_555
O3_3 Pr3_3 1_555 1_555
O8_3 Pr6_3 1_555 1_555
O9_3 H5_3 1_555 1_555
O9_3 H6_3 1_555 1_555
O10_3 H8_3 1_555 1_555
O11_3 H3_3 1_555 1_555
O11_3 H4_3 1_555 1_555
Pr1_4 N2_4 1_555 1_555
Pr5_2 N1_4 1_555 1_555
C1_4 H1_4 1_555 1_555
C2_4 C3_4 1_555 1_555
C3_4 C4_4 1_555 1_555
C4_4 O1_4 1_555 1_555
C5_4 C2_4 1_555 1_555
N1_4 C1_4 1_555 1_555
N2_4 C1_4 1_555 1_555
O1_4 Pr5_2 1_555 1_555
O2_4 C4_4 1_555 1_555
O3_4 C5_4 1_555 1_555
O4_4 Pr1_4 1_555 1_555
O8_4 Pr1_4 1_555 1_555
O9_4 Pr1_4 1_555 1_555
O11_4 Pr5_2 1_555 1_555
Pr3_4 O2_4 1_555 1_555
O12_4 Pr1_4 1_555 1_555
O18_4 Pr5_2 1_555 1_555
C2_4 N2_4 1_555 1_555
C3_4 N1_4 1_555 1_555
C5_4 O4_4 1_555 1_555
O3_4 Pr3_4 1_555 1_555
O11_4 H3_4 1_555 1_555
O11_4 H4_4 1_555 1_555
O9_4 H5_4 1_555 1_555
C6_4 H2_4 1_555 1_555
C7_4 C8_4 1_555 1_555
C8_4 C9_4 1_555 1_555
C9_4 O5_4 1_555 1_555
C10_4 C7_4 1_555 1_555
N4_4 C6_4 1_555 1_555
O5_4 Pr4_4 1_555 1_555
O15_2 C9_4 1_555 1_555
O17_2 C10_4 1_555 1_555
Pr4_4 N4_4 1_555 1_555
C6_4 N3_4 1_555 1_555
C7_4 N3_4 1_555 1_555
C8_4 N4_4 1_555 1_555
O10_4 H8_4 1_555 1_555
Pr4_3 N1_5 1_555 1_555
C3_5 C4_5 1_555 1_555
C4_5 O1_5 1_555 1_555
N1_5 C1_5 1_555 1_555
O1_5 Pr4_3 1_555 1_555
O12_4 C4_5 1_555 1_555
O11_5 Pr4_3 1_555 1_555
O15_3 Pr4_3 1_555 1_555
O16_5 Pr4_3 1_555 1_555
O17_3 Pr4_3 1_555 1_555
O18_5 Pr4_3 1_555 1_555
C3_5 N1_5 1_555 1_555
O11_5 H3_5 1_555 1_555
O11_5 H4_5 1_555 1_555
Pr3_3 N2_5 1_555 1_555
C5_5 C2_5 1_555 1_555
C6_5 H2_5 1_555 1_555
C7_5 C8_5 1_555 1_555
C8_5 C9_5 1_555 1_555
C9_5 O14_4 1_555 1_555
C10_5 C7_5 1_555 1_555
N3_5 Pr3_3 1_555 1_555
N5_4 C6_5 1_555 1_555
O13_4 C5_5 1_555 1_555
O4_5 Pr3_3 1_555 1_555
O6_3 C9_5 1_555 1_555
O7_3 C10_5 1_555 1_555
O8_5 Pr3_3 1_555 1_555
O9_5 Pr3_3 1_555 1_555
O10_5 Pr3_3 1_555 1_555
Pr4_4 O6_3 1_555 1_555
Pr6_5 O7_3 1_555 1_555
C2_5 N2_5 1_555 1_555
C5_5 O4_5 1_555 1_555
C6_5 N3_5 1_555 1_555
C7_5 N3_5 1_555 1_555
C8_5 N5_4 1_555 1_555
C10_5 O8_5 1_555 1_555
O7_3 Pr4_4 1_555 1_555
O8_5 Pr6_5 1_555 1_555
O9_5 H5_5 1_555 1_555
O9_5 H6_5 1_555 1_555
O10_5 H7_4 1_555 1_555
O10_5 H8_5 1_555 1_555
C7_6 C8_6 1_555 1_555
C8_6 C9_6 1_555 1_555
C9_6 O14_3 1_555 1_555
C10_6 C7_6 1_555 1_555
O13_3 C5_6 1_555 1_555
O15_3 C9_6 1_555 1_555
O17_3 C10_6 1_555 1_555
Pr6_6 O17_3 1_555 1_555
C5_6 O4_6 1_555 1_555
C7_6 N3_6 1_555 1_555
C8_6 N5_3 1_555 1_555
C10_6 O8_6 1_555 1_555
O8_6 Pr6_6 1_555 1_555
Pr3_4 N2_6 1_555 1_555
C6_6 H2_6 1_555 1_555
O9_6 Pr3_4 1_555 1_555
O10_6 Pr3_4 1_555 1_555
C2_6 N2_6 1_555 1_555
O9_6 H5_6 1_555 1_555
O9_6 H6_6 1_555 1_555
O10_6 H7_5 1_555 1_555
O10_6 H8_6 1_555 1_555
Pr4_4 N1_6 1_555 1_555
C3_6 C4_6 1_555 1_555
C4_6 O1_6 1_555 1_555
N1_6 C1_6 1_555 1_555
O1_6 Pr4_4 1_555 1_555
O11_6 Pr4_4 1_555 1_555
O16_6 Pr4_4 1_555 1_555
O18_6 Pr4_4 1_555 1_555
C3_6 N1_6 1_555 1_555
O11_6 H3_6 1_555 1_555
O11_6 H4_6 1_555 1_555
O10_7 H7_6 1_555 1_555
O10_7 H8_7 1_555 1_555
Pr3_2 N2_7 1_555 1_555
Pr4_2 N1_7 1_555 1_555
C1_7 H1_7 1_555 1_555
C2_7 C3_7 1_555 1_555
C3_7 C4_7 1_555 1_555
C4_7 O1_7 1_555 1_555
C5_7 C2_7 1_555 1_555
C6_7 H2_7 1_555 1_555
C7_7 C8_7 1_555 1_555
C8_7 C9_7 1_555 1_555
C9_7 O14 1_555 1_555
C10_7 C7_7 1_555 1_555
N1_7 C1_7 1_555 1_555
N2_7 C1_7 1_555 1_555
N3_7 Pr3_2 1_555 1_555
N5 C6_7 1_555 1_555
O1_7 Pr4_2 1_555 1_555
O12 C4_7 1_555 1_555
O13 C5_7 1_555 1_555
O4_7 Pr3_2 1_555 1_555
O6_4 C9_7 1_555 1_555
O7_4 C10_7 1_555 1_555
O8_7 Pr3_2 1_555 1_555
O9_7 Pr3_2 1_555 1_555
O11_7 Pr4_2 1_555 1_555
O15_4 Pr4_2 1_555 1_555
O16_7 Pr4_2 1_555 1_555
O17_4 Pr4_2 1_555 1_555
O18_7 Pr4_2 1_555 1_555
C2_7 N2_7 1_555 1_555
C3_7 N1_7 1_555 1_555
C5_7 O4_7 1_555 1_555
C6_7 N3_7 1_555 1_555
C7_7 N3_7 1_555 1_555
C8_7 N5 1_555 1_555
C10_7 O8_7 1_555 1_555
O11_7 H3_7 1_555 1_555
O11_7 H4_7 1_555 1_555
O9_7 H5_7 1_555 1_555
O11_8 H3_8 1_555 1_555
O11_8 H4_8 1_555 1_555
Pr3 N2_8 1_555 1_555
Pr4 N1_8 1_555 1_555
C1_8 H1_8 1_555 1_555
C2_8 C3_8 1_555 1_555
C3_8 C4_8 1_555 1_555
C4_8 O1_8 1_555 1_555
C5_8 C2_8 1_555 1_555
C6_8 H2_8 1_555 1_555
C7_8 C8_8 1_555 1_555
C8_8 C9_8 1_555 1_555
C9_8 O14_2 1_555 1_555
C10_8 C7_8 1_555 1_555
N1_8 C1_8 1_555 1_555
N2_8 C1_8 1_555 1_555
N3_8 Pr3 1_555 1_555
N5_2 C6_8 1_555 1_555
O1_8 Pr4 1_555 1_555
O12_2 C4_8 1_555 1_555
O13_2 C5_8 1_555 1_555
O4_8 Pr3 1_555 1_555
O15_4 C9_8 1_555 1_555
O17_4 C10_8 1_555 1_555
O8_8 Pr3 1_555 1_555
O9_8 Pr3 1_555 1_555
O10_8 Pr3 1_555 1_555
Pr6_8 O17_4 1_555 1_555
C2_8 N2_8 1_555 1_555
C3_8 N1_8 1_555 1_555
C5_8 O4_8 1_555 1_555
C6_8 N3_8 1_555 1_555
C7_8 N3_8 1_555 1_555
C8_8 N5_2 1_555 1_555
C10_8 O8_8 1_555 1_555
O8_8 Pr6_8 1_555 1_555
O9_8 H5_8 1_555 1_555
O9_8 H6_8 1_555 1_555
O10_8 H7_7 1_555 1_555
O10_8 H8_8 1_555 1_555
Pr1_5 N2_9 1_555 1_555
Pr6_6 N1_9 1_555 1_555
C1_9 H1_9 1_555 1_555
C2_9 C3_9 1_555 1_555
C3_9 C4_9 1_555 1_555
C4_9 O1_9 1_555 1_555
C6_9 H2_9 1_555 1_555
N1_9 C1_9 1_555 1_555
N2_9 C1_9 1_555 1_555
O1_9 Pr6_6 1_555 1_555
O9_9 Pr1_5 1_555 1_555
O10_9 Pr1_5 1_555 1_555
O11_9 Pr6_6 1_555 1_555
N5_5 Pr6_6 1_555 1_555
O12_5 Pr1_5 1_555 1_555
O13_5 Pr1_5 1_555 1_555
O14_5 Pr6_6 1_555 1_555
O15_5 Pr6_6 1_555 1_555
O16_5 Pr6_6 1_555 1_555
C2_9 N2_9 1_555 1_555
C3_9 N1_9 1_555 1_555
O11_9 H3_9 1_555 1_555
O11_9 H4_9 1_555 1_555
O9_9 H5_9 1_555 1_555
O9_9 H6_9 1_555 1_555
O10_9 H7_8 1_555 1_555
O10_9 H8_9 1_555 1_555
C7_9 C8_9 1_555 1_555
C8_9 C9_9 1_555 1_555
C9_9 O5_5 1_555 1_555
C10_9 C7_9 1_555 1_555
O3_5 C5_9 1_555 1_555
O5_5 Pr6_7 1_555 1_555
O6_5 C9_9 1_555 1_555
O16_6 C10_9 1_555 1_555
Pr3_5 O2_5 1_555 1_555
Pr6_7 N4_5 1_555 1_555
Pr6_5 O6_5 1_555 1_555
C5_9 O4_9 1_555 1_555
C7_9 N3_9 1_555 1_555
C8_9 N4_5 1_555 1_555
C10_9 O18_6 1_555 1_555
O3_5 Pr3_5 1_555 1_555
O16_6 Pr6_5 1_555 1_555
Pr1_6 N2_10 1_555 1_555
Pr6_5 N1_10 1_555 1_555
C1_10 H1_10 1_555 1_555
C2_10 C3_10 1_555 1_555
C3_10 C4_10 1_555 1_555
C4_10 O1_10 1_555 1_555
C5_10 C2_10 1_555 1_555
C6_10 H2_10 1_555 1_555
C7_10 C8_10 1_555 1_555
C8_10 C9_10 1_555 1_555
C9_10 O5_6 1_555 1_555
C10_10 C7_10 1_555 1_555
N1_10 C1_10 1_555 1_555
N2_10 C1_10 1_555 1_555
N3_10 Pr1_6 1_555 1_555
N4_6 C6_10 1_555 1_555
O1_10 Pr6_5 1_555 1_555
O2_6 C4_10 1_555 1_555
O3_6 C5_10 1_555 1_555
O4_10 Pr1_6 1_555 1_555
O5_6 Pr6_8 1_555 1_555
O15_5 C9_10 1_555 1_555
O16_5 C10_10 1_555 1_555
O18_5 Pr1_6 1_555 1_555
O9_10 Pr1_6 1_555 1_555
O10_10 Pr1_6 1_555 1_555
O11_10 Pr6_5 1_555 1_555
Pr3_6 O2_6 1_555 1_555
Pr6_8 N4_6 1_555 1_555
N5_6 Pr6_5 1_555 1_555
O12_6 Pr1_6 1_555 1_555
O13_6 Pr1_6 1_555 1_555
O14_6 Pr6_5 1_555 1_555
C2_10 N2_10 1_555 1_555
C3_10 N1_10 1_555 1_555
C5_10 O4_10 1_555 1_555
C6_10 N3_10 1_555 1_555
C7_10 N3_10 1_555 1_555
C8_10 N4_6 1_555 1_555
C10_10 O18_5 1_555 1_555
O3_6 Pr3_6 1_555 1_555
O11_10 H3_10 1_555 1_555
O11_10 H4_10 1_555 1_555
O9_10 H5_10 1_555 1_555
O9_10 H6_10 1_555 1_555
O10_10 H7_9 1_555 1_555
O10_10 H8_10 1_555 1_555
O11_11 H3_11 1_555 1_555
O11_11 H4_11 1_555 1_555
Pr1_7 N2_11 1_555 1_555
Pr6_4 N1_11 1_555 1_555
C1_11 H1_11 1_555 1_555
C2_11 C3_11 1_555 1_555
C3_11 C4_11 1_555 1_555
C4_11 O1_11 1_555 1_555
C5_11 C2_11 1_555 1_555
N1_11 C1_11 1_555 1_555
N2_11 C1_11 1_555 1_555
O1_11 Pr6_4 1_555 1_555
O2_7 C4_11 1_555 1_555
O3_7 C5_11 1_555 1_555
O4_11 Pr1_7 1_555 1_555
O18_4 Pr1_7 1_555 1_555
O9_11 Pr1_7 1_555 1_555
O10_11 Pr1_7 1_555 1_555
Pr3_7 O2_7 1_555 1_555
O12_7 Pr1_7 1_555 1_555
C2_11 N2_11 1_555 1_555
C3_11 N1_11 1_555 1_555
C5_11 O4_11 1_555 1_555
O3_7 Pr3_7 1_555 1_555
O9_11 H5_11 1_555 1_555
O9_11 H6_11 1_555 1_555
O10_11 H8_11 1_555 1_555
C6_11 H2_11 1_555 1_555
C7_11 C8_11 1_555 1_555
C8_11 C9_11 1_555 1_555
C9_11 O5_7 1_555 1_555
C10_11 C7_11 1_555 1_555
N4_7 C6_11 1_555 1_555
O5_7 Pr6_2 1_555 1_555
O6_6 C9_11 1_555 1_555
O16_4 C10_11 1_555 1_555
Pr6_2 N4_7 1_555 1_555
Pr6_3 O6_6 1_555 1_555
C6_11 N3_11 1_555 1_555
C7_11 N3_11 1_555 1_555
C8_11 N4_7 1_555 1_555
O16_4 Pr6_3 1_555 1_555
O10_12 H8_12 1_555 1_555
C6_12 H2_12 1_555 1_555
C7_12 C8_12 1_555 1_555
C8_12 C9_12 1_555 1_555
C9_12 O5_8 1_555 1_555
C10_12 C7_12 1_555 1_555
N4_8 C6_12 1_555 1_555
O5_8 Pr6 1_555 1_555
O15_6 C9_12 1_555 1_555
O16_3 C10_12 1_555 1_555
Pr6 N4_8 1_555 1_555
C6_12 N3_12 1_555 1_555
C7_12 N3_12 1_555 1_555
C8_12 N4_8 1_555 1_555
Pr1_8 N2_12 1_555 1_555
Pr6_3 N1_12 1_555 1_555
C1_12 H1_12 1_555 1_555
C2_12 C3_12 1_555 1_555
C3_12 C4_12 1_555 1_555
C4_12 O1_12 1_555 1_555
C5_12 C2_12 1_555 1_555
N1_12 C1_12 1_555 1_555
N2_12 C1_12 1_555 1_555
O1_12 Pr6_3 1_555 1_555
O2_8 C4_12 1_555 1_555
O3_8 C5_12 1_555 1_555
O4_12 Pr1_8 1_555 1_555
O18_3 Pr1_8 1_555 1_555
O9_12 Pr1_8 1_555 1_555
O11_12 Pr6_3 1_555 1_555
Pr3_8 O2_8 1_555 1_555
O12_8 Pr1_8 1_555 1_555
C2_12 N2_12 1_555 1_555
C3_12 N1_12 1_555 1_555
C5_12 O4_12 1_555 1_555
O3_8 Pr3_8 1_555 1_555
O11_12 H3_12 1_555 1_555
O11_12 H4_12 1_555 1_555
O9_12 H5_12 1_555 1_555
Pr3_7 N2_13 1_555 1_555
C5_13 C2_13 1_555 1_555
C6_13 H2_13 1_555 1_555
C7_13 C8_13 1_555 1_555
C8_13 C9_13 1_555 1_555
C9_13 O14_8 1_555 1_555
C10_13 C7_13 1_555 1_555
N3_13 Pr3_7 1_555 1_555
N5_8 C6_13 1_555 1_555
O13_8 C5_13 1_555 1_555
O4_13 Pr3_7 1_555 1_555
O6_7 C9_13 1_555 1_555
O16_2 C10_13 1_555 1_555
O18_2 Pr3_7 1_555 1_555
O9_13 Pr3_7 1_555 1_555
O10_13 Pr3_7 1_555 1_555
Pr6 O6_7 1_555 1_555
C2_13 N2_13 1_555 1_555
C5_13 O4_13 1_555 1_555
C6_13 N3_13 1_555 1_555
C7_13 N3_13 1_555 1_555
C8_13 N5_8 1_555 1_555
C10_13 O18_2 1_555 1_555
O16_2 Pr6 1_555 1_555
O9_13 H5_13 1_555 1_555
O9_13 H6_13 1_555 1_555
O10_13 H7_11 1_555 1_555
O10_13 H8_13 1_555 1_555
Pr6_2 N1_13 1_555 1_555
C3_13 C4_13 1_555 1_555
C4_13 O1_13 1_555 1_555
N1_13 C1_13 1_555 1_555
O1_13 Pr6_2 1_555 1_555
O12_8 C4_13 1_555 1_555
O11_13 Pr6_2 1_555 1_555
O15_7 Pr6_2 1_555 1_555
O16 Pr6_2 1_555 1_555
C3_13 N1_13 1_555 1_555
O11_13 H3_13 1_555 1_555
O11_13 H4_13 1_555 1_555
Pr6 N1_14 1_555 1_555
C3_14 C4_14 1_555 1_555
C4_14 O1_14 1_555 1_555
N1_14 C1_14 1_555 1_555
O1_14 Pr6 1_555 1_555
O11_14 Pr6 1_555 1_555
C3_14 N1_14 1_555 1_555
O11_14 H3_14 1_555 1_555
O11_14 H4_14 1_555 1_555
Pr3_8 N2_14 1_555 1_555
C6_14 H2_14 1_555 1_555
O9_14 Pr3_8 1_555 1_555
O10_14 Pr3_8 1_555 1_555
C2_14 N2_14 1_555 1_555
O9_14 H5_14 1_555 1_555
O9_14 H6_14 1_555 1_555
O10_14 H7_12 1_555 1_555
O10_14 H8_14 1_555 1_555
C7_14 C8_14 1_555 1_555
C8_14 C9_14 1_555 1_555
C9_14 O14_7 1_555 1_555
C10_14 C7_14 1_555 1_555
O13_7 C5_14 1_555 1_555
O15_7 C9_14 1_555 1_555
O16 C10_14 1_555 1_555
C5_14 O4_14 1_555 1_555
C7_14 N3_14 1_555 1_555
C8_14 N5_7 1_555 1_555
C10_14 O18 1_555 1_555
Pr3_6 N2_15 1_555 1_555
Pr6_8 N1_15 1_555 1_555
C1_15 H1_15 1_555 1_555
C2_15 C3_15 1_555 1_555
C3_15 C4_15 1_555 1_555
C4_15 O1_15 1_555 1_555
C5_15 C2_15 1_555 1_555
C6_15 H2_15 1_555 1_555
C7_15 C8_15 1_555 1_555
C8_15 C9_15 1_555 1_555
C9_15 O14_5 1_555 1_555
C10_15 C7_15 1_555 1_555
N1_15 C1_15 1_555 1_555
N2_15 C1_15 1_555 1_555
N3_15 Pr3_6 1_555 1_555
N5_5 C6_15 1_555 1_555
O1_15 Pr6_8 1_555 1_555
O12_5 C4_15 1_555 1_555
O13_5 C5_15 1_555 1_555
O4_15 Pr3_6 1_555 1_555
O6_8 C9_15 1_555 1_555
O16_8 C10_15 1_555 1_555
O18_8 Pr3_6 1_555 1_555
O9_15 Pr3_6 1_555 1_555
O11_15 Pr6_8 1_555 1_555
O15_8 Pr6_8 1_555 1_555
O16_7 Pr6_8 1_555 1_555
C2_15 N2_15 1_555 1_555
C3_15 N1_15 1_555 1_555
C5_15 O4_15 1_555 1_555
C6_15 N3_15 1_555 1_555
C7_15 N3_15 1_555 1_555
C8_15 N5_5 1_555 1_555
C10_15 O18_8 1_555 1_555
O11_15 H3_15 1_555 1_555
O11_15 H4_15 1_555 1_555
O9_15 H5_15 1_555 1_555
O10_15 H7_13 1_555 1_555
O10_15 H8_15 1_555 1_555
Pr3_5 N2_16 1_555 1_555
Pr6_7 N1_16 1_555 1_555
C1_16 H1_16 1_555 1_555
C2_16 C3_16 1_555 1_555
C3_16 C4_16 1_555 1_555
C4_16 O1_16 1_555 1_555
C5_16 C2_16 1_555 1_555
C6_16 H2_16 1_555 1_555
C7_16 C8_16 1_555 1_555
C8_16 C9_16 1_555 1_555
C9_16 O14_6 1_555 1_555
C10_16 C7_16 1_555 1_555
N1_16 C1_16 1_555 1_555
N2_16 C1_16 1_555 1_555
N3_16 Pr3_5 1_555 1_555
N5_6 C6_16 1_555 1_555
O1_16 Pr6_7 1_555 1_555
O12_6 C4_16 1_555 1_555
O13_6 C5_16 1_555 1_555
O4_16 Pr3_5 1_555 1_555
O15_8 C9_16 1_555 1_555
O16_7 C10_16 1_555 1_555
O18_7 Pr3_5 1_555 1_555
O9_16 Pr3_5 1_555 1_555
O10_16 Pr3_5 1_555 1_555
C2_16 N2_16 1_555 1_555
C3_16 N1_16 1_555 1_555
C5_16 O4_16 1_555 1_555
C6_16 N3_16 1_555 1_555
C7_16 N3_16 1_555 1_555
C8_16 N5_6 1_555 1_555
C10_16 O18_7 1_555 1_555
O9_16 H5_16 1_555 1_555
O9_16 H6_16 1_555 1_555
O10_16 H7_14 1_555 1_555
O10_16 H8_16 1_555 1_555
O11_16 H3_16 1_555 1_555
O11_16 H4_16 1_555 1_555

#END
