
###############################################################################
#
# This file contains modified crystal structure data generated from the
# MOF subset of the Cambridge Structural Database (CSD) v543 
# hosted by the Cambridge Crystallographic Data Centre (CCDC).
#
# This work is licensed under the Creative Commons
# Attribution-NonCommercial-ShareAlike 4.0 International License.
# To view a copy of this license, visit
# http://creativecommons.org/licenses/by-nc-sa/4.0/
# or send a letter to
# Creative Commons, PO Box 1866, Mountain View, CA 94042, USA.
#
# CIF created using the CSD Python API on 29 September 2022
# The structure has been converted into the P1 space group
# The structure has a 3D framework
# The original CSD entry PEGQID is in the tetragonal crystal system
# The framework has been calculated to contain at least 10.0% void space
# The void calculation uses a probe of radius 1.32A, grid spacing 0.4
# H atom positions have been added when not included in the experimental data
#
###############################################################################

data_PEGQID
_chemical_formula_moiety         '(C160 H128 Gd32 N64 O172)n'
_symmetry_cell_setting           triclinic
_symmetry_space_group_name_H-M   'P 1'
_symmetry_Int_Tables_number      1
_space_group_name_Hall           'P 1'
loop_
_symmetry_equiv_pos_site_id
_symmetry_equiv_pos_as_xyz
1 x,y,z
_cell_length_a                   20.269(3)
_cell_length_b                   20.269(3)
_cell_length_c                   16.116(3)
_cell_angle_alpha                90
_cell_angle_beta                 90
_cell_angle_gamma                90
_cell_volume                     6620.97
loop_
_atom_site_label
_atom_site_type_symbol
_atom_site_fract_x
_atom_site_fract_y
_atom_site_fract_z
O2 O 0.0805(3) 0.0984(3) 0.0347(3)
Gd3 Gd 0.076350(19) 0.044417(19) 0.16087(2)
Gd4 Gd 0.431480(18) 0.044850(18) 0.08109(2)
Gd2 Gd 0.205150(18) 0.181480(18) 0.83109(2)
C1 C 0.2200(4) 0.0027(4) 0.8494(6)
C3 C 0.1543(4) 0.0488(4) 0.9369(5)
C4 C 0.1195(4) 0.1041(4) 0.9743(5)
N1 N 0.1983(3) 0.0623(3) 0.8746(4)
O1 O 0.1313(3) 0.1614(3) 0.9428(3)
O11 O 0.1146(3) 0.2569(3) 0.8008(4)
N5 N 0.3088(3) 0.1229(3) 0.7904(4)
O14 O 0.2878(3) 0.1695(3) 0.9411(3)
O15 O 0.1311(3) 0.1252(3) 0.7452(4)
O16 O 0.2296(2) 0.2150(3) 0.6833(3)
O17 O 0.2704(2) 0.2850(3) 0.8167(3)
O18 O 0.2165(3) 0.2845(3) 0.9353(3)
H7 H 0.0862267 0.261546 0.850689
H8 H 0.132692 0.300718 0.785255
C5 C 0.1156(4) 0.9367(4) 0.0018(5)
C7 C 0.3028(4) 0.8606(4) 0.0752(5)
C8 C 0.3522(4) 0.9020(4) 0.1043(5)
C9 C 0.3809(4) 0.9133(4) 0.1865(5)
C10 C 0.2614(4) 0.8078(4) 0.1099(5)
N4 N 0.3729(3) 0.9412(3) 0.0404(4)
O3 O 0.0869(3) 0.9584(3) 0.0648(4)
O5 O 0.4195(3) 0.9622(3) 0.1911(3)
O6 O 0.3689(3) 0.8748(3) 0.2452(4)
O7 O 0.2704(2) 0.7850(3) 0.1833(3)
O8 O 0.2165(3) 0.7845(3) 0.0647(3)
Gd5 Gd 0.294850(18) 0.818520(18) 0.33109(2)
Gd6 Gd 0.205150(18) 0.681480(18) 0.16891(2)
Gd1 Gd 0.205583(19) 0.826350(19) 0.91087(2)
H1 H 0.257(4) 0.997(4) 0.805(5)
C2 C 0.1512(4) 0.9801(4) 0.9456(5)
C6 C 0.3362(4) 0.9223(4) 0.9759(5)
H2 H 0.336(4) 0.942(4) 0.925(5)
N2 N 0.1937(3) 0.9517(3) 0.8893(4)
N3 N 0.2923(3) 0.8748(3) 0.9923(4)
O4 O 0.1165(3) 0.8757(3) 0.9838(4)
O9 O 0.1270(3) 0.7385(4) 0.9195(4)
O10 O 0.2777(3) 0.7326(3) 0.9141(4)
O12 O 0.1516(3) 0.8305(3) 0.7847(3)
O13 O 0.2916(3) 0.8369(3) 0.8148(4)
H3 H 0.311928 0.739265 0.957379
H4 H 0.251777 0.692334 0.927097
H5 H 0.101298 0.73629 0.867118
H6 H 0.150496 0.696078 0.928253
Gd1_2 Gd 0.294417(19) 0.173650(19) 0.41087(2)
H1_2 H 0.243(4) 0.003(4) 0.305(5)
C2_2 C 0.3488(4) 0.0199(4) 0.4456(5)
C5_2 C 0.3844(4) 0.0633(4) 0.5018(5)
C6_2 C 0.1638(4) 0.0777(4) 0.4759(5)
H2_2 H 0.164(4) 0.058(4) 0.425(5)
C7_2 C 0.1972(4) 0.1394(4) 0.5752(5)
C8_2 C 0.1478(4) 0.0980(4) 0.6043(5)
C9_2 C 0.1191(4) 0.0867(4) 0.6865(5)
C10_2 C 0.2386(4) 0.1922(4) 0.6099(5)
N2_2 N 0.3063(3) 0.0483(3) 0.3893(4)
N3_2 N 0.2077(3) 0.1252(3) 0.4923(4)
N4_2 N 0.1271(3) 0.0588(3) 0.5404(4)
O3_2 O 0.4131(3) 0.0416(3) 0.5648(4)
O4_2 O 0.3835(3) 0.1243(3) 0.4838(4)
O5_2 O 0.0805(3) 0.0378(3) 0.6911(3)
O8_2 O 0.2835(3) 0.2155(3) 0.5647(3)
O9_2 O 0.3730(3) 0.2615(4) 0.4195(4)
O10_2 O 0.2223(3) 0.2674(3) 0.4141(4)
Gd6_2 Gd 0.294850(18) 0.318520(18) 0.66891(2)
O12_2 O 0.3484(3) 0.1695(3) 0.2847(3)
O13_2 O 0.2084(3) 0.1631(3) 0.3148(4)
H3_2 H 0.188072 0.260735 0.457379
H4_2 H 0.248223 0.307666 0.427097
H5_2 H 0.398702 0.26371 0.367118
H6_2 H 0.349504 0.303922 0.428253
C1_2 C 0.2800(4) 0.9973(4) 0.3494(6)
C3_2 C 0.3457(4) 0.9512(4) 0.4369(5)
C4_2 C 0.3805(4) 0.8959(4) 0.4743(5)
N1_2 N 0.3017(3) 0.9377(3) 0.3746(4)
O1_2 O 0.3687(3) 0.8386(3) 0.4428(3)
O2_2 O 0.4195(3) 0.9016(3) 0.5347(3)
O11_2 O 0.3854(3) 0.7431(3) 0.3008(4)
Gd3_2 Gd 0.423650(19) 0.955583(19) 0.66087(2)
Gd4_2 Gd 0.068520(18) 0.955150(18) 0.58109(2)
N5_2 N 0.1912(3) 0.8771(3) 0.2904(4)
O14_2 O 0.2122(3) 0.8305(3) 0.4411(3)
O17_2 O 0.2296(2) 0.7150(3) 0.3167(3)
O18_2 O 0.2835(3) 0.7155(3) 0.4353(3)
H7_2 H 0.413773 0.738454 0.350689
H8_2 H 0.367308 0.699282 0.285255
O9_3 O 0.0115(4) 0.3770(3) 0.1695(4)
O10_3 O 0.0174(3) 0.5277(3) 0.1641(4)
Gd6_3 Gd 0.068520(18) 0.455150(18) 0.41891(2)
H3_3 H 0.0107352 0.561928 0.207379
H4_3 H 0.0576658 0.501777 0.177097
H5_3 H 0.0137097 0.351298 0.117118
H6_3 H 0.0539217 0.400496 0.178253
Gd1_3 Gd 0.923650(19) 0.455583(19) 0.16087(2)
Gd2_2 Gd 0.568520(18) 0.455150(18) 0.08109(2)
C1_3 C 0.7473(4) 0.4700(4) 0.0994(6)
H1_3 H 0.753(4) 0.507(4) 0.055(5)
C2_3 C 0.7699(4) 0.4012(4) 0.1956(5)
C3_3 C 0.7012(4) 0.4043(4) 0.1869(5)
C4_3 C 0.6459(4) 0.3695(4) 0.2243(5)
C5_3 C 0.8133(4) 0.3656(4) 0.2518(5)
C6_3 C 0.8277(4) 0.5862(4) 0.2259(5)
H2_3 H 0.808(4) 0.586(4) 0.175(5)
C7_3 C 0.8894(4) 0.5528(4) 0.3252(5)
C8_3 C 0.8480(4) 0.6022(4) 0.3543(5)
C9_3 C 0.8367(4) 0.6309(4) 0.4365(5)
C10_3 C 0.9422(4) 0.5114(4) 0.3599(5)
N1_3 N 0.6877(3) 0.4483(3) 0.1246(4)
N2_3 N 0.7983(3) 0.4437(3) 0.1393(4)
N3_3 N 0.8752(3) 0.5423(3) 0.2423(4)
N4_3 N 0.8088(3) 0.6229(3) 0.2904(4)
O1_3 O 0.5886(3) 0.3813(3) 0.1928(3)
O2_3 O 0.6516(3) 0.3305(3) 0.2847(3)
O3_3 O 0.7916(3) 0.3369(3) 0.3148(4)
O4_3 O 0.8743(3) 0.3665(3) 0.2338(4)
O5_3 O 0.7878(3) 0.6695(3) 0.4411(3)
O6_2 O 0.8752(3) 0.6189(3) 0.4952(4)
O7_2 O 0.9650(3) 0.5204(2) 0.4333(3)
O8_3 O 0.9655(3) 0.4665(3) 0.3147(3)
O11_3 O 0.4931(3) 0.3646(3) 0.0508(4)
Gd3_3 Gd 0.705583(19) 0.326350(19) 0.41087(2)
Gd4_3 Gd 0.705150(18) 0.681480(18) 0.33109(2)
Gd5_2 Gd 0.931480(18) 0.544850(18) 0.58109(2)
N5_3 N 0.6271(3) 0.5588(3) 0.0404(4)
O12_3 O 0.9195(3) 0.4016(3) 0.0347(3)
O13_3 O 0.9131(3) 0.5416(3) 0.0648(4)
O14_3 O 0.5805(3) 0.5378(3) 0.1911(3)
O17_3 O 0.4650(3) 0.5204(2) 0.0667(3)
O18_3 O 0.4655(3) 0.4665(3) 0.1853(3)
H7_3 H 0.488454 0.336227 0.100689
H8_3 H 0.449282 0.382692 0.0352552
O15_2 O 0.6248(3) 0.3811(3) 0.9952(4)
O16_2 O 0.5350(3) 0.4796(2) 0.9333(3)
O11_4 O 0.0069(3) 0.6354(3) 0.5508(4)
O17_4 O 0.0350(3) 0.4796(2) 0.5667(3)
O18_4 O 0.0345(3) 0.5335(3) 0.6853(3)
H7_4 H 0.0115456 0.663773 0.600689
H8_4 H 0.0507183 0.617308 0.535255
Gd1_4 Gd 0.576350(19) 0.544417(19) 0.66087(2)
C1_4 C 0.7527(4) 0.5300(4) 0.5994(6)
H1_4 H 0.747(4) 0.493(4) 0.555(5)
C2_4 C 0.7301(4) 0.5988(4) 0.6956(5)
C3_4 C 0.7988(4) 0.5957(4) 0.6869(5)
C4_4 C 0.8541(4) 0.6305(4) 0.7243(5)
C5_4 C 0.6867(4) 0.6344(4) 0.7518(5)
C6_4 C 0.6723(4) 0.4138(4) 0.7259(5)
H2_4 H 0.692(4) 0.414(4) 0.675(5)
C7_4 C 0.6106(4) 0.4472(4) 0.8252(5)
C8_4 C 0.6520(4) 0.3978(4) 0.8543(5)
C9_4 C 0.6633(4) 0.3691(4) 0.9365(5)
C10_4 C 0.5578(4) 0.4886(4) 0.8599(5)
N1_4 N 0.8123(3) 0.5517(3) 0.6246(4)
N2_4 N 0.7017(3) 0.5563(3) 0.6393(4)
N3_4 N 0.6248(3) 0.4577(3) 0.7423(4)
N4_4 N 0.6912(3) 0.3771(3) 0.7904(4)
O1_4 O 0.9114(3) 0.6187(3) 0.6928(3)
O2_4 O 0.8484(3) 0.6695(3) 0.7847(3)
O3_4 O 0.7084(3) 0.6631(3) 0.8148(4)
O4_4 O 0.6257(3) 0.6335(3) 0.7338(4)
O5_4 O 0.7122(3) 0.3305(3) 0.9411(3)
O8_4 O 0.5345(3) 0.5335(3) 0.8147(3)
O9_4 O 0.4885(4) 0.6230(3) 0.6695(4)
O10_4 O 0.4826(3) 0.4723(3) 0.6641(4)
Gd3_4 Gd 0.794417(19) 0.673650(19) 0.91087(2)
Gd4_4 Gd 0.794850(18) 0.318520(18) 0.83109(2)
Gd6_4 Gd 0.431480(18) 0.544850(18) 0.91891(2)
N5_4 N 0.8729(3) 0.4412(3) 0.5404(4)
O12_4 O 0.5805(3) 0.5984(3) 0.5347(3)
O13_4 O 0.5869(3) 0.4584(3) 0.5648(4)
O14_4 O 0.9195(3) 0.4622(3) 0.6911(3)
H3_4 H 0.489265 0.438072 0.707379
H4_4 H 0.442334 0.498223 0.677097
H5_4 H 0.48629 0.648702 0.617118
H6_4 H 0.446078 0.599504 0.678253
C1_5 C 0.7200(4) 0.5027(4) 0.3494(6)
H1_5 H 0.757(4) 0.497(4) 0.305(5)
C2_5 C 0.6512(4) 0.4801(4) 0.4456(5)
C3_5 C 0.6543(4) 0.5488(4) 0.4369(5)
C4_5 C 0.6195(4) 0.6041(4) 0.4743(5)
C5_5 C 0.6156(4) 0.4367(4) 0.5018(5)
C6_5 C 0.8362(4) 0.4223(4) 0.4759(5)
H2_5 H 0.836(4) 0.442(4) 0.425(5)
C7_5 C 0.8028(4) 0.3606(4) 0.5752(5)
C8_5 C 0.8522(4) 0.4020(4) 0.6043(5)
C9_5 C 0.8809(4) 0.4133(4) 0.6865(5)
C10_5 C 0.7614(4) 0.3078(4) 0.6099(5)
N1_5 N 0.6983(3) 0.5623(3) 0.3746(4)
N2_5 N 0.6937(3) 0.4517(3) 0.3893(4)
N3_5 N 0.7923(3) 0.3748(3) 0.4923(4)
O1_5 O 0.6313(3) 0.6614(3) 0.4428(3)
O4_5 O 0.6165(3) 0.3757(3) 0.4838(4)
O6_3 O 0.8689(3) 0.3748(3) 0.7452(4)
O7_3 O 0.7704(2) 0.2850(3) 0.6833(3)
O8_5 O 0.7165(3) 0.2845(3) 0.5647(3)
O9_5 O 0.6270(3) 0.2385(4) 0.4195(4)
O10_5 O 0.7777(3) 0.2326(3) 0.4141(4)
O11_5 O 0.6146(3) 0.7569(3) 0.3008(4)
Gd6_5 Gd 0.705150(18) 0.181480(18) 0.66891(2)
O15_3 O 0.6311(3) 0.6252(3) 0.2452(4)
O16_3 O 0.7296(2) 0.7150(3) 0.1833(3)
O17_5 O 0.7704(2) 0.7850(3) 0.3167(3)
O18_5 O 0.7165(3) 0.7845(3) 0.4353(3)
H3_5 H 0.811928 0.239265 0.457379
H4_5 H 0.751777 0.192334 0.427097
H5_5 H 0.601298 0.23629 0.367118
H6_5 H 0.650496 0.196078 0.428253
H7_5 H 0.586227 0.761546 0.350689
H8_5 H 0.632692 0.800718 0.285255
C5_6 C 0.8844(4) 0.5633(4) 0.0018(5)
C7_6 C 0.6972(4) 0.6394(4) 0.0752(5)
C8_6 C 0.6478(4) 0.5980(4) 0.1043(5)
C9_6 C 0.6191(4) 0.5867(4) 0.1865(5)
C10_6 C 0.7386(4) 0.6922(4) 0.1099(5)
O8_6 O 0.7835(3) 0.7155(3) 0.0647(3)
Gd6_6 Gd 0.794850(18) 0.818520(18) 0.16891(2)
C1_6 C 0.7800(4) 0.4973(4) 0.8494(6)
H1_6 H 0.743(4) 0.503(4) 0.805(5)
C2_6 C 0.8488(4) 0.5199(4) 0.9456(5)
C3_6 C 0.8457(4) 0.4512(4) 0.9369(5)
C4_6 C 0.8805(4) 0.3959(4) 0.9743(5)
C6_6 C 0.6638(4) 0.5777(4) 0.9759(5)
H2_6 H 0.664(4) 0.558(4) 0.925(5)
N1_6 N 0.8017(3) 0.4377(3) 0.8746(4)
N2_6 N 0.8063(3) 0.5483(3) 0.8893(4)
N3_6 N 0.7077(3) 0.6252(3) 0.9923(4)
O1_6 O 0.8687(3) 0.3386(3) 0.9428(3)
O4_6 O 0.8835(3) 0.6243(3) 0.9838(4)
O9_6 O 0.8730(3) 0.7615(4) 0.9195(4)
O10_6 O 0.7223(3) 0.7674(3) 0.9141(4)
O11_6 O 0.8854(3) 0.2431(3) 0.8008(4)
O17_6 O 0.7296(2) 0.2150(3) 0.8167(3)
O18_6 O 0.7835(3) 0.2155(3) 0.9353(3)
H3_6 H 0.688072 0.760735 0.957379
H4_6 H 0.748223 0.807666 0.927097
H5_6 H 0.898702 0.76371 0.867118
H6_6 H 0.849504 0.803922 0.928253
H7_6 H 0.913773 0.238454 0.850689
H8_6 H 0.867308 0.199282 0.785255
H1_7 H 0.253(4) 0.007(4) 0.555(5)
C6_7 C 0.3277(4) 0.0862(4) 0.7259(5)
H2_7 H 0.308(4) 0.086(4) 0.675(5)
C7_7 C 0.3894(4) 0.0528(4) 0.8252(5)
C8_7 C 0.3480(4) 0.1022(4) 0.8543(5)
C9_7 C 0.3367(4) 0.1309(4) 0.9365(5)
C10_7 C 0.4422(4) 0.0114(4) 0.8599(5)
N3_7 N 0.3752(3) 0.0423(3) 0.7423(4)
O6_4 O 0.3752(3) 0.1189(3) 0.9952(4)
O7_4 O 0.4650(3) 0.0204(2) 0.9333(3)
O10_7 O 0.5174(3) 0.0277(3) 0.6641(4)
H3_7 H 0.510735 0.0619284 0.707379
H4_7 H 0.557666 0.00177727 0.677097
C1_7 C 0.2473(4) 0.9700(4) 0.5994(6)
C2_7 C 0.2699(4) 0.9012(4) 0.6956(5)
C3_7 C 0.2012(4) 0.9043(4) 0.6869(5)
C4_7 C 0.1459(4) 0.8695(4) 0.7243(5)
C5_7 C 0.3133(4) 0.8656(4) 0.7518(5)
N1_7 N 0.1877(3) 0.9483(3) 0.6246(4)
N2_7 N 0.2983(3) 0.9437(3) 0.6393(4)
O1_7 O 0.0886(3) 0.8813(3) 0.6928(3)
O4_7 O 0.3743(3) 0.8665(3) 0.7338(4)
O8_7 O 0.4655(3) 0.9665(3) 0.8147(3)
O9_7 O 0.5115(4) 0.8770(3) 0.6695(4)
Gd6_7 Gd 0.568520(18) 0.955150(18) 0.91891(2)
O15_4 O 0.1248(3) 0.8811(3) 0.4952(4)
O16_4 O 0.0350(3) 0.9796(2) 0.4333(3)
H5_7 H 0.51371 0.851298 0.617118
H6_7 H 0.553922 0.900496 0.678253
O17_7 O 0.9650(3) 0.0204(2) 0.5667(3)
O11_7 O 0.9931(3) 0.8646(3) 0.5508(4)
O18_7 O 0.9655(3) 0.9665(3) 0.6853(3)
H7_7 H 0.988454 0.836227 0.600689
H8_7 H 0.949282 0.882692 0.535255
C1_8 C 0.2527(4) 0.0300(4) 0.0994(6)
C2_8 C 0.2301(4) 0.0988(4) 0.1956(5)
C3_8 C 0.2988(4) 0.0957(4) 0.1869(5)
C4_8 C 0.3541(4) 0.1305(4) 0.2243(5)
C5_8 C 0.1867(4) 0.1344(4) 0.2518(5)
N1_8 N 0.3123(3) 0.0517(3) 0.1246(4)
N2_8 N 0.2017(3) 0.0563(3) 0.1393(4)
O1_8 O 0.4114(3) 0.1187(3) 0.1928(3)
O4_8 O 0.1257(3) 0.1335(3) 0.2338(4)
O8_8 O 0.0345(3) 0.0335(3) 0.3147(3)
O11_8 O 0.5069(3) 0.1354(3) 0.0508(4)
O18_8 O 0.5345(3) 0.0335(3) 0.1853(3)
H7_8 H 0.511546 0.163773 0.100689
H8_8 H 0.550718 0.117308 0.0352552
H1_8 H 0.247(4) 0.993(4) 0.055(5)
C6_8 C 0.1723(4) 0.9138(4) 0.2259(5)
H2_8 H 0.192(4) 0.914(4) 0.175(5)
C7_8 C 0.1106(4) 0.9472(4) 0.3252(5)
C8_8 C 0.1520(4) 0.8978(4) 0.3543(5)
C9_8 C 0.1633(4) 0.8691(4) 0.4365(5)
C10_8 C 0.0578(4) 0.9886(4) 0.3599(5)
N3_8 N 0.1248(3) 0.9577(3) 0.2423(4)
O17_8 O 0.5350(3) 0.9796(2) 0.0667(3)
O9_8 O 0.9885(4) 0.1230(3) 0.1695(4)
Gd6_8 Gd 0.931480(18) 0.044850(18) 0.41891(2)
H5_8 H 0.98629 0.148702 0.117118
H6_8 H 0.946078 0.0995036 0.178253
Gd1_5 Gd 0.794417(19) 0.173650(19) 0.08913(2)
H1_9 H 0.743(4) 0.003(4) 0.195(5)
C2_9 C 0.8488(4) 0.0199(4) 0.0544(5)
C6_9 C 0.6638(4) 0.0777(4) 0.0241(5)
H2_9 H 0.664(4) 0.058(4) 0.075(5)
N2_9 N 0.8063(3) 0.0483(3) 0.1107(4)
N3_9 N 0.7077(3) 0.1252(3) 0.0077(4)
O4_9 O 0.8835(3) 0.1243(3) 0.0162(4)
O9_9 O 0.8730(3) 0.2615(4) 0.0805(4)
O10_8 O 0.7223(3) 0.2674(3) 0.0859(4)
O12_5 O 0.8484(3) 0.1695(3) 0.2153(3)
O13_5 O 0.7084(3) 0.1631(3) 0.1852(4)
H3_8 H 0.688072 0.260735 0.0426214
H4_8 H 0.748223 0.307666 0.0729026
H5_9 H 0.898702 0.26371 0.132882
H6_9 H 0.849504 0.303922 0.0717465
C5_9 C 0.8844(4) 0.0633(4) 0.9982(5)
C7_9 C 0.6972(4) 0.1394(4) 0.9248(5)
C8_9 C 0.6478(4) 0.0980(4) 0.8957(5)
C9_9 C 0.6191(4) 0.0867(4) 0.8135(5)
C10_9 C 0.7386(4) 0.1922(4) 0.8901(5)
N4_5 N 0.6271(3) 0.0588(3) 0.9596(4)
O3_5 O 0.9131(3) 0.0416(3) 0.9352(4)
O5_5 O 0.5805(3) 0.0378(3) 0.8089(3)
O6_5 O 0.6311(3) 0.1252(3) 0.7548(4)
C1_9 C 0.7800(4) 0.9973(4) 0.1506(6)
C3_9 C 0.8457(4) 0.9512(4) 0.0631(5)
C4_9 C 0.8805(4) 0.8959(4) 0.0257(5)
N1_9 N 0.8017(3) 0.9377(3) 0.1254(4)
O1_9 O 0.8687(3) 0.8386(3) 0.0572(3)
O11_9 O 0.8854(3) 0.7431(3) 0.1992(4)
N5_5 N 0.6912(3) 0.8771(3) 0.2096(4)
O14_5 O 0.7122(3) 0.8305(3) 0.0589(3)
O15_5 O 0.8689(3) 0.8748(3) 0.2548(4)
H7_9 H 0.913773 0.738454 0.149311
H8_9 H 0.867308 0.699282 0.214745
O2_5 O 0.9195(3) 0.9016(3) 0.9653(3)
Gd3_5 Gd 0.923650(19) 0.955583(19) 0.83913(2)
C1_10 C 0.7200(4) 0.0027(4) 0.6506(6)
C3_10 C 0.6543(4) 0.0488(4) 0.5631(5)
C4_10 C 0.6195(4) 0.1041(4) 0.5257(5)
N1_10 N 0.6983(3) 0.0623(3) 0.6254(4)
O1_10 O 0.6313(3) 0.1614(3) 0.5572(3)
O2_6 O 0.5805(3) 0.0984(3) 0.4653(3)
O11_10 O 0.6146(3) 0.2569(3) 0.6992(4)
Gd3_6 Gd 0.576350(19) 0.044417(19) 0.33913(2)
N5_6 N 0.8088(3) 0.1229(3) 0.7096(4)
O14_6 O 0.7878(3) 0.1695(3) 0.5589(3)
H7_10 H 0.586227 0.261546 0.649311
H8_10 H 0.632692 0.300718 0.714745
Gd1_6 Gd 0.705583(19) 0.826350(19) 0.58913(2)
H1_10 H 0.757(4) 0.997(4) 0.695(5)
C2_10 C 0.6512(4) 0.9801(4) 0.5544(5)
C5_10 C 0.6156(4) 0.9367(4) 0.4982(5)
C6_10 C 0.8362(4) 0.9223(4) 0.5241(5)
H2_10 H 0.836(4) 0.942(4) 0.575(5)
C7_10 C 0.8028(4) 0.8606(4) 0.4248(5)
C8_10 C 0.8522(4) 0.9020(4) 0.3957(5)
C9_10 C 0.8809(4) 0.9133(4) 0.3135(5)
C10_10 C 0.7614(4) 0.8078(4) 0.3901(5)
N2_10 N 0.6937(3) 0.9517(3) 0.6107(4)
N3_10 N 0.7923(3) 0.8748(3) 0.5077(4)
N4_6 N 0.8729(3) 0.9412(3) 0.4596(4)
O3_6 O 0.5869(3) 0.9584(3) 0.4352(4)
O4_10 O 0.6165(3) 0.8757(3) 0.5162(4)
O5_6 O 0.9195(3) 0.9622(3) 0.3089(3)
O9_10 O 0.6270(3) 0.7385(4) 0.5805(4)
O10_9 O 0.7777(3) 0.7326(3) 0.5859(4)
O12_6 O 0.6516(3) 0.8305(3) 0.7153(3)
O13_6 O 0.7916(3) 0.8369(3) 0.6852(4)
H3_9 H 0.811928 0.739265 0.542621
H4_9 H 0.751777 0.692334 0.572903
H5_10 H 0.601298 0.73629 0.632882
H6_10 H 0.650496 0.696078 0.571747
O15_6 O 0.3752(3) 0.6189(3) 0.0048(4)
Gd1_7 Gd 0.076350(19) 0.544417(19) 0.83913(2)
C1_11 C 0.2527(4) 0.5300(4) 0.9006(6)
H1_11 H 0.247(4) 0.493(4) 0.945(5)
C2_11 C 0.2301(4) 0.5988(4) 0.8044(5)
C3_11 C 0.2988(4) 0.5957(4) 0.8131(5)
C4_11 C 0.3541(4) 0.6305(4) 0.7757(5)
C5_11 C 0.1867(4) 0.6344(4) 0.7482(5)
C6_11 C 0.1723(4) 0.4138(4) 0.7741(5)
H2_11 H 0.192(4) 0.414(4) 0.825(5)
C7_11 C 0.1106(4) 0.4472(4) 0.6748(5)
C8_11 C 0.1520(4) 0.3978(4) 0.6457(5)
C9_11 C 0.1633(4) 0.3691(4) 0.5635(5)
C10_11 C 0.0578(4) 0.4886(4) 0.6401(5)
N1_11 N 0.3123(3) 0.5517(3) 0.8754(4)
N2_11 N 0.2017(3) 0.5563(3) 0.8607(4)
N3_11 N 0.1248(3) 0.4577(3) 0.7577(4)
N4_7 N 0.1912(3) 0.3771(3) 0.7096(4)
O1_11 O 0.4114(3) 0.6187(3) 0.8072(3)
O2_7 O 0.3484(3) 0.6695(3) 0.7153(3)
O3_7 O 0.2084(3) 0.6631(3) 0.6852(4)
O4_11 O 0.1257(3) 0.6335(3) 0.7662(4)
O5_7 O 0.2122(3) 0.3305(3) 0.5589(3)
O6_6 O 0.1248(3) 0.3811(3) 0.5048(4)
O11_11 O 0.5069(3) 0.6354(3) 0.9492(4)
Gd3_7 Gd 0.294417(19) 0.673650(19) 0.58913(2)
N5_7 N 0.3729(3) 0.4412(3) 0.9596(4)
O12_7 O 0.0805(3) 0.5984(3) 0.9653(3)
O13_7 O 0.0869(3) 0.4584(3) 0.9352(4)
O14_7 O 0.4195(3) 0.4622(3) 0.8089(3)
H7_11 H 0.511546 0.663773 0.899311
H8_11 H 0.550718 0.617308 0.964745
O9_11 O 0.9885(4) 0.6230(3) 0.8305(4)
O10_10 O 0.9826(3) 0.4723(3) 0.8359(4)
H3_10 H 0.989265 0.438072 0.792621
H4_10 H 0.942334 0.498223 0.822903
H5_11 H 0.98629 0.648702 0.882882
H6_11 H 0.946078 0.599504 0.821747
Gd1_8 Gd 0.423650(19) 0.455583(19) 0.33913(2)
C1_12 C 0.2473(4) 0.4700(4) 0.4006(6)
H1_12 H 0.253(4) 0.507(4) 0.445(5)
C2_12 C 0.2699(4) 0.4012(4) 0.3044(5)
C3_12 C 0.2012(4) 0.4043(4) 0.3131(5)
C4_12 C 0.1459(4) 0.3695(4) 0.2757(5)
C5_12 C 0.3133(4) 0.3656(4) 0.2482(5)
C6_12 C 0.3277(4) 0.5862(4) 0.2741(5)
H2_12 H 0.308(4) 0.586(4) 0.325(5)
C7_12 C 0.3894(4) 0.5528(4) 0.1748(5)
C8_12 C 0.3480(4) 0.6022(4) 0.1457(5)
C9_12 C 0.3367(4) 0.6309(4) 0.0635(5)
C10_12 C 0.4422(4) 0.5114(4) 0.1401(5)
N1_12 N 0.1877(3) 0.4483(3) 0.3754(4)
N2_12 N 0.2983(3) 0.4437(3) 0.3607(4)
N3_12 N 0.3752(3) 0.5423(3) 0.2577(4)
N4_8 N 0.3088(3) 0.6229(3) 0.2096(4)
O1_12 O 0.0886(3) 0.3813(3) 0.3072(3)
O2_8 O 0.1516(3) 0.3305(3) 0.2153(3)
O3_8 O 0.2916(3) 0.3369(3) 0.1852(4)
O4_12 O 0.3743(3) 0.3665(3) 0.2662(4)
O5_8 O 0.2878(3) 0.6695(3) 0.0589(3)
O9_12 O 0.5115(4) 0.3770(3) 0.3305(4)
O10_11 O 0.5174(3) 0.5277(3) 0.3359(4)
Gd3_8 Gd 0.205583(19) 0.326350(19) 0.08913(2)
N5_8 N 0.1271(3) 0.5588(3) 0.4596(4)
O12_8 O 0.4195(3) 0.4016(3) 0.4653(3)
O13_8 O 0.4131(3) 0.5416(3) 0.4352(4)
O14_8 O 0.0805(3) 0.5378(3) 0.3089(3)
H3_11 H 0.510735 0.561928 0.292621
H4_11 H 0.557666 0.501777 0.322903
H5_12 H 0.51371 0.351298 0.382882
H6_12 H 0.553922 0.400496 0.321747
O11_12 O 0.9931(3) 0.3646(3) 0.4492(4)
H7_12 H 0.988454 0.336227 0.399311
H8_12 H 0.949282 0.382692 0.464745
C1_13 C 0.2800(4) 0.4973(4) 0.6506(6)
H1_13 H 0.243(4) 0.503(4) 0.695(5)
C2_13 C 0.3488(4) 0.5199(4) 0.5544(5)
C3_13 C 0.3457(4) 0.4512(4) 0.5631(5)
C4_13 C 0.3805(4) 0.3959(4) 0.5257(5)
C5_13 C 0.3844(4) 0.5633(4) 0.4982(5)
C6_13 C 0.1638(4) 0.5777(4) 0.5241(5)
H2_13 H 0.164(4) 0.558(4) 0.575(5)
C7_13 C 0.1972(4) 0.6394(4) 0.4248(5)
C8_13 C 0.1478(4) 0.5980(4) 0.3957(5)
C9_13 C 0.1191(4) 0.5867(4) 0.3135(5)
C10_13 C 0.2386(4) 0.6922(4) 0.3901(5)
N1_13 N 0.3017(3) 0.4377(3) 0.6254(4)
N2_13 N 0.3063(3) 0.5483(3) 0.6107(4)
N3_13 N 0.2077(3) 0.6252(3) 0.5077(4)
O1_13 O 0.3687(3) 0.3386(3) 0.5572(3)
O4_13 O 0.3835(3) 0.6243(3) 0.5162(4)
O6_7 O 0.1311(3) 0.6252(3) 0.2548(4)
O9_13 O 0.3730(3) 0.7615(4) 0.5805(4)
O10_12 O 0.2223(3) 0.7674(3) 0.5859(4)
O11_13 O 0.3854(3) 0.2431(3) 0.6992(4)
O15_7 O 0.3689(3) 0.3748(3) 0.7548(4)
H3_12 H 0.188072 0.760735 0.542621
H4_12 H 0.248223 0.807666 0.572903
H5_13 H 0.398702 0.76371 0.632882
H6_13 H 0.349504 0.803922 0.571747
H7_13 H 0.413773 0.238454 0.649311
H8_13 H 0.367308 0.199282 0.714745
C1_14 C 0.2200(4) 0.5027(4) 0.1506(6)
H1_14 H 0.257(4) 0.497(4) 0.195(5)
C2_14 C 0.1512(4) 0.4801(4) 0.0544(5)
C3_14 C 0.1543(4) 0.5488(4) 0.0631(5)
C4_14 C 0.1195(4) 0.6041(4) 0.0257(5)
C6_14 C 0.3362(4) 0.4223(4) 0.0241(5)
H2_14 H 0.336(4) 0.442(4) 0.075(5)
N1_14 N 0.1983(3) 0.5623(3) 0.1254(4)
N2_14 N 0.1937(3) 0.4517(3) 0.1107(4)
N3_14 N 0.2923(3) 0.3748(3) 0.0077(4)
O1_14 O 0.1313(3) 0.6614(3) 0.0572(3)
O4_14 O 0.1165(3) 0.3757(3) 0.0162(4)
O9_14 O 0.1270(3) 0.2385(4) 0.0805(4)
O10_13 O 0.2777(3) 0.2326(3) 0.0859(4)
O11_14 O 0.1146(3) 0.7569(3) 0.1992(4)
H3_13 H 0.311928 0.239265 0.0426214
H4_13 H 0.251777 0.192334 0.0729026
H5_14 H 0.101298 0.23629 0.132882
H6_14 H 0.150496 0.196078 0.0717465
H7_14 H 0.0862267 0.761546 0.149311
H8_14 H 0.132692 0.800718 0.214745
C5_14 C 0.1156(4) 0.4367(4) 0.9982(5)
C7_14 C 0.3028(4) 0.3606(4) 0.9248(5)
C8_14 C 0.3522(4) 0.4020(4) 0.8957(5)
C9_14 C 0.3809(4) 0.4133(4) 0.8135(5)
C10_14 C 0.2614(4) 0.3078(4) 0.8901(5)
O11_15 O 0.0069(3) 0.1354(3) 0.4492(4)
H7_15 H 0.0115456 0.163773 0.399311
H8_15 H 0.0507183 0.117308 0.464745
C1_15 C 0.7527(4) 0.0300(4) 0.4006(6)
C2_15 C 0.7301(4) 0.0988(4) 0.3044(5)
C3_15 C 0.7988(4) 0.0957(4) 0.3131(5)
C4_15 C 0.8541(4) 0.1305(4) 0.2757(5)
C5_15 C 0.6867(4) 0.1344(4) 0.2482(5)
N1_15 N 0.8123(3) 0.0517(3) 0.3754(4)
N2_15 N 0.7017(3) 0.0563(3) 0.3607(4)
O1_15 O 0.9114(3) 0.1187(3) 0.3072(3)
O4_15 O 0.6257(3) 0.1335(3) 0.2662(4)
O9_15 O 0.4885(4) 0.1230(3) 0.3305(4)
O15_8 O 0.8752(3) 0.1189(3) 0.5048(4)
H5_15 H 0.48629 0.148702 0.382882
H6_15 H 0.446078 0.0995036 0.321747
H1_15 H 0.747(4) 0.993(4) 0.445(5)
C6_15 C 0.6723(4) 0.9138(4) 0.2741(5)
H2_15 H 0.692(4) 0.914(4) 0.325(5)
C7_15 C 0.6106(4) 0.9472(4) 0.1748(5)
C8_15 C 0.6520(4) 0.8978(4) 0.1457(5)
C9_15 C 0.6633(4) 0.8691(4) 0.0635(5)
C10_15 C 0.5578(4) 0.9886(4) 0.1401(5)
N3_15 N 0.6248(3) 0.9577(3) 0.2577(4)
O6_8 O 0.6248(3) 0.8811(3) 0.0048(4)
O10_14 O 0.4826(3) 0.9723(3) 0.3359(4)
H3_14 H 0.489265 0.938072 0.292621
H4_14 H 0.442334 0.998223 0.322903
O9_16 O 0.0115(4) 0.8770(3) 0.8305(4)
H5_16 H 0.0137097 0.851298 0.882882
H6_16 H 0.0539217 0.900496 0.821747
H1_16 H 0.753(4) 0.007(4) 0.945(5)
C6_16 C 0.8277(4) 0.0862(4) 0.7741(5)
H2_16 H 0.808(4) 0.086(4) 0.825(5)
C7_16 C 0.8894(4) 0.0528(4) 0.6748(5)
C8_16 C 0.8480(4) 0.1022(4) 0.6457(5)
C9_16 C 0.8367(4) 0.1309(4) 0.5635(5)
C10_16 C 0.9422(4) 0.0114(4) 0.6401(5)
N3_16 N 0.8752(3) 0.0423(3) 0.7577(4)
C1_16 C 0.7473(4) 0.9700(4) 0.9006(6)
C2_16 C 0.7699(4) 0.9012(4) 0.8044(5)
C3_16 C 0.7012(4) 0.9043(4) 0.8131(5)
C4_16 C 0.6459(4) 0.8695(4) 0.7757(5)
C5_16 C 0.8133(4) 0.8656(4) 0.7482(5)
N1_16 N 0.6877(3) 0.9483(3) 0.8754(4)
N2_16 N 0.7983(3) 0.9437(3) 0.8607(4)
O1_16 O 0.5886(3) 0.8813(3) 0.8072(3)
O4_16 O 0.8743(3) 0.8665(3) 0.7662(4)
O11_16 O 0.4931(3) 0.8646(3) 0.9492(4)
H7_16 H 0.488454 0.836227 0.899311
H8_16 H 0.449282 0.882692 0.964745
O10_15 O 0.9826(3) 0.9723(3) 0.1641(4)
H3_15 H 0.989265 0.938072 0.207379
H4_15 H 0.942334 0.998223 0.177097
O10_16 O 0.0174(3) 0.0277(3) 0.8359(4)
H3_16 H 0.0107352 0.0619284 0.792621
H4_16 H 0.0576658 0.00177727 0.822903
loop_
_geom_bond_atom_site_label_1
_geom_bond_atom_site_label_2
_geom_bond_site_symmetry_1
_geom_bond_site_symmetry_2
Gd3 O2 1_555 1_555
Gd2 N1 1_555 1_555
C3 C4 1_555 1_555
C4 O1 1_555 1_555
N1 C1 1_555 1_555
O1 Gd2 1_555 1_555
O11 Gd2 1_555 1_555
N5 Gd2 1_555 1_555
O14 Gd2 1_555 1_555
O15 Gd2 1_555 1_555
O16 Gd2 1_555 1_555
O17 Gd2 1_555 1_555
O18 Gd2 1_555 1_555
C3 N1 1_555 1_555
O11 H7 1_555 1_555
O11 H8 1_555 1_555
C7 C8 1_555 1_555
C8 C9 1_555 1_555
C9 O5 1_555 1_555
C10 C7 1_555 1_555
O3 C5 1_555 1_555
O6 C9 1_555 1_555
O7 C10 1_555 1_555
Gd5 O6 1_555 1_555
Gd6 O7 1_555 1_555
C8 N4 1_555 1_555
C10 O8 1_555 1_555
O7 Gd5 1_555 1_555
O8 Gd6 1_555 1_555
Gd1 N2 1_555 1_555
C6 H2 1_555 1_555
N3 Gd1 1_555 1_555
O4 Gd1 1_555 1_555
O9 Gd1 1_555 1_555
O10 Gd1 1_555 1_555
O12 Gd1 1_555 1_555
O13 Gd1 1_555 1_555
C2 N2 1_555 1_555
C6 N3 1_555 1_555
O10 H3 1_555 1_555
O10 H4 1_555 1_555
O9 H5 1_555 1_555
O9 H6 1_555 1_555
Gd1_2 N2_2 1_555 1_555
C5_2 C2_2 1_555 1_555
C6_2 H2_2 1_555 1_555
C7_2 C8_2 1_555 1_555
C8_2 C9_2 1_555 1_555
C9_2 O5_2 1_555 1_555
C10_2 C7_2 1_555 1_555
N3_2 Gd1_2 1_555 1_555
N4_2 C6_2 1_555 1_555
O3_2 C5_2 1_555 1_555
O4_2 Gd1_2 1_555 1_555
O15 C9_2 1_555 1_555
O16 C10_2 1_555 1_555
O8_2 Gd1_2 1_555 1_555
O9_2 Gd1_2 1_555 1_555
O10_2 Gd1_2 1_555 1_555
Gd6_2 O16 1_555 1_555
O12_2 Gd1_2 1_555 1_555
O13_2 Gd1_2 1_555 1_555
C2_2 N2_2 1_555 1_555
C5_2 O4_2 1_555 1_555
C6_2 N3_2 1_555 1_555
C7_2 N3_2 1_555 1_555
C8_2 N4_2 1_555 1_555
C10_2 O8_2 1_555 1_555
O8_2 Gd6_2 1_555 1_555
O10_2 H3_2 1_555 1_555
O10_2 H4_2 1_555 1_555
O9_2 H5_2 1_555 1_555
O9_2 H6_2 1_555 1_555
Gd5 N1_2 1_555 1_555
C3_2 C4_2 1_555 1_555
C4_2 O1_2 1_555 1_555
N1_2 C1_2 1_555 1_555
O1_2 Gd5 1_555 1_555
O2_2 C4_2 1_555 1_555
O11_2 Gd5 1_555 1_555
Gd3_2 O2_2 1_555 1_555
N5_2 Gd5 1_555 1_555
O14_2 Gd5 1_555 1_555
O17_2 Gd5 1_555 1_555
O18_2 Gd5 1_555 1_555
C3_2 N1_2 1_555 1_555
O11_2 H7_2 1_555 1_555
O11_2 H8_2 1_555 1_555
O10_3 H3_3 1_555 1_555
O10_3 H4_3 1_555 1_555
O9_3 H5_3 1_555 1_555
O9_3 H6_3 1_555 1_555
Gd1_3 N2_3 1_555 1_555
Gd2_2 N1_3 1_555 1_555
C1_3 H1_3 1_555 1_555
C2_3 C3_3 1_555 1_555
C3_3 C4_3 1_555 1_555
C4_3 O1_3 1_555 1_555
C5_3 C2_3 1_555 1_555
C6_3 H2_3 1_555 1_555
C7_3 C8_3 1_555 1_555
C8_3 C9_3 1_555 1_555
C9_3 O5_3 1_555 1_555
C10_3 C7_3 1_555 1_555
N1_3 C1_3 1_555 1_555
N2_3 C1_3 1_555 1_555
N3_3 Gd1_3 1_555 1_555
N4_3 C6_3 1_555 1_555
O1_3 Gd2_2 1_555 1_555
O2_3 C4_3 1_555 1_555
O3_3 C5_3 1_555 1_555
O4_3 Gd1_3 1_555 1_555
O5_3 Gd4_3 1_555 1_555
O6_2 C9_3 1_555 1_555
O7_2 C10_3 1_555 1_555
O8_3 Gd1_3 1_555 1_555
O11_3 Gd2_2 1_555 1_555
Gd3_3 O2_3 1_555 1_555
Gd4_3 N4_3 1_555 1_555
Gd5_2 O6_2 1_555 1_555
N5_3 Gd2_2 1_555 1_555
O12_3 Gd1_3 1_555 1_555
O13_3 Gd1_3 1_555 1_555
O14_3 Gd2_2 1_555 1_555
O17_3 Gd2_2 1_555 1_555
O18_3 Gd2_2 1_555 1_555
C2_3 N2_3 1_555 1_555
C3_3 N1_3 1_555 1_555
C5_3 O4_3 1_555 1_555
C6_3 N3_3 1_555 1_555
C7_3 N3_3 1_555 1_555
C8_3 N4_3 1_555 1_555
C10_3 O8_3 1_555 1_555
O3_3 Gd3_3 1_555 1_555
O7_2 Gd5_2 1_555 1_555
O11_3 H7_3 1_555 1_555
O11_3 H8_3 1_555 1_555
O11_4 H7_4 1_555 1_555
O11_4 H8_4 1_555 1_555
Gd1_4 N2_4 1_555 1_555
Gd5_2 N1_4 1_555 1_555
C1_4 H1_4 1_555 1_555
C2_4 C3_4 1_555 1_555
C3_4 C4_4 1_555 1_555
C4_4 O1_4 1_555 1_555
C5_4 C2_4 1_555 1_555
C6_4 H2_4 1_555 1_555
C7_4 C8_4 1_555 1_555
C8_4 C9_4 1_555 1_555
C9_4 O5_4 1_555 1_555
C10_4 C7_4 1_555 1_555
N1_4 C1_4 1_555 1_555
N2_4 C1_4 1_555 1_555
N3_4 Gd1_4 1_555 1_555
N4_4 C6_4 1_555 1_555
O1_4 Gd5_2 1_555 1_555
O2_4 C4_4 1_555 1_555
O3_4 C5_4 1_555 1_555
O4_4 Gd1_4 1_555 1_555
O5_4 Gd4_4 1_555 1_555
O15_2 C9_4 1_555 1_555
O16_2 C10_4 1_555 1_555
O8_4 Gd1_4 1_555 1_555
O9_4 Gd1_4 1_555 1_555
O10_4 Gd1_4 1_555 1_555
Gd3_4 O2_4 1_555 1_555
Gd4_4 N4_4 1_555 1_555
Gd6_4 O16_2 1_555 1_555
N5_4 Gd5_2 1_555 1_555
O12_4 Gd1_4 1_555 1_555
O13_4 Gd1_4 1_555 1_555
O14_4 Gd5_2 1_555 1_555
C2_4 N2_4 1_555 1_555
C3_4 N1_4 1_555 1_555
C5_4 O4_4 1_555 1_555
C6_4 N3_4 1_555 1_555
C7_4 N3_4 1_555 1_555
C8_4 N4_4 1_555 1_555
C10_4 O8_4 1_555 1_555
O3_4 Gd3_4 1_555 1_555
O8_4 Gd6_4 1_555 1_555
O10_4 H3_4 1_555 1_555
O10_4 H4_4 1_555 1_555
O9_4 H5_4 1_555 1_555
O9_4 H6_4 1_555 1_555
Gd3_3 N2_5 1_555 1_555
Gd4_3 N1_5 1_555 1_555
C1_5 H1_5 1_555 1_555
C2_5 C3_5 1_555 1_555
C3_5 C4_5 1_555 1_555
C4_5 O1_5 1_555 1_555
C5_5 C2_5 1_555 1_555
C6_5 H2_5 1_555 1_555
C7_5 C8_5 1_555 1_555
C8_5 C9_5 1_555 1_555
C9_5 O14_4 1_555 1_555
C10_5 C7_5 1_555 1_555
N1_5 C1_5 1_555 1_555
N2_5 C1_5 1_555 1_555
N3_5 Gd3_3 1_555 1_555
N5_4 C6_5 1_555 1_555
O1_5 Gd4_3 1_555 1_555
O12_4 C4_5 1_555 1_555
O13_4 C5_5 1_555 1_555
O4_5 Gd3_3 1_555 1_555
O6_3 C9_5 1_555 1_555
O7_3 C10_5 1_555 1_555
O8_5 Gd3_3 1_555 1_555
O9_5 Gd3_3 1_555 1_555
O10_5 Gd3_3 1_555 1_555
O11_5 Gd4_3 1_555 1_555
Gd4_4 O6_3 1_555 1_555
Gd6_5 O7_3 1_555 1_555
O15_3 Gd4_3 1_555 1_555
O16_3 Gd4_3 1_555 1_555
O17_5 Gd4_3 1_555 1_555
O18_5 Gd4_3 1_555 1_555
C2_5 N2_5 1_555 1_555
C3_5 N1_5 1_555 1_555
C5_5 O4_5 1_555 1_555
C6_5 N3_5 1_555 1_555
C7_5 N3_5 1_555 1_555
C8_5 N5_4 1_555 1_555
C10_5 O8_5 1_555 1_555
O7_3 Gd4_4 1_555 1_555
O8_5 Gd6_5 1_555 1_555
O10_5 H3_5 1_555 1_555
O10_5 H4_5 1_555 1_555
O9_5 H5_5 1_555 1_555
O9_5 H6_5 1_555 1_555
O11_5 H7_5 1_555 1_555
O11_5 H8_5 1_555 1_555
C7_6 C8_6 1_555 1_555
C8_6 C9_6 1_555 1_555
C9_6 O14_3 1_555 1_555
C10_6 C7_6 1_555 1_555
O13_3 C5_6 1_555 1_555
O15_3 C9_6 1_555 1_555
O16_3 C10_6 1_555 1_555
Gd6_6 O16_3 1_555 1_555
C8_6 N5_3 1_555 1_555
C10_6 O8_6 1_555 1_555
O8_6 Gd6_6 1_555 1_555
Gd3_4 N2_6 1_555 1_555
Gd4_4 N1_6 1_555 1_555
C1_6 H1_6 1_555 1_555
C2_6 C3_6 1_555 1_555
C3_6 C4_6 1_555 1_555
C4_6 O1_6 1_555 1_555
C6_6 H2_6 1_555 1_555
N1_6 C1_6 1_555 1_555
N2_6 C1_6 1_555 1_555
N3_6 Gd3_4 1_555 1_555
O1_6 Gd4_4 1_555 1_555
O4_6 Gd3_4 1_555 1_555
O9_6 Gd3_4 1_555 1_555
O10_6 Gd3_4 1_555 1_555
O11_6 Gd4_4 1_555 1_555
O17_6 Gd4_4 1_555 1_555
O18_6 Gd4_4 1_555 1_555
C2_6 N2_6 1_555 1_555
C3_6 N1_6 1_555 1_555
C6_6 N3_6 1_555 1_555
O10_6 H3_6 1_555 1_555
O10_6 H4_6 1_555 1_555
O9_6 H5_6 1_555 1_555
O9_6 H6_6 1_555 1_555
O11_6 H7_6 1_555 1_555
O11_6 H8_6 1_555 1_555
C6_7 H2_7 1_555 1_555
C7_7 C8_7 1_555 1_555
C8_7 C9_7 1_555 1_555
C9_7 O14 1_555 1_555
C10_7 C7_7 1_555 1_555
N5 C6_7 1_555 1_555
O6_4 C9_7 1_555 1_555
O7_4 C10_7 1_555 1_555
C6_7 N3_7 1_555 1_555
C7_7 N3_7 1_555 1_555
C8_7 N5 1_555 1_555
O10_7 H3_7 1_555 1_555
O10_7 H4_7 1_555 1_555
Gd3_2 N2_7 1_555 1_555
Gd4_2 N1_7 1_555 1_555
C2_7 C3_7 1_555 1_555
C3_7 C4_7 1_555 1_555
C4_7 O1_7 1_555 1_555
C5_7 C2_7 1_555 1_555
N1_7 C1_7 1_555 1_555
N2_7 C1_7 1_555 1_555
O1_7 Gd4_2 1_555 1_555
O12 C4_7 1_555 1_555
O13 C5_7 1_555 1_555
O4_7 Gd3_2 1_555 1_555
O8_7 Gd3_2 1_555 1_555
O9_7 Gd3_2 1_555 1_555
O15_4 Gd4_2 1_555 1_555
O16_4 Gd4_2 1_555 1_555
C2_7 N2_7 1_555 1_555
C3_7 N1_7 1_555 1_555
C5_7 O4_7 1_555 1_555
O8_7 Gd6_7 1_555 1_555
O9_7 H5_7 1_555 1_555
O9_7 H6_7 1_555 1_555
O11_7 H7_7 1_555 1_555
O11_7 H8_7 1_555 1_555
Gd3 N2_8 1_555 1_555
Gd4 N1_8 1_555 1_555
C2_8 C3_8 1_555 1_555
C3_8 C4_8 1_555 1_555
C4_8 O1_8 1_555 1_555
C5_8 C2_8 1_555 1_555
N1_8 C1_8 1_555 1_555
N2_8 C1_8 1_555 1_555
O1_8 Gd4 1_555 1_555
O12_2 C4_8 1_555 1_555
O13_2 C5_8 1_555 1_555
O4_8 Gd3 1_555 1_555
O8_8 Gd3 1_555 1_555
O11_8 Gd4 1_555 1_555
O18_8 Gd4 1_555 1_555
C2_8 N2_8 1_555 1_555
C3_8 N1_8 1_555 1_555
C5_8 O4_8 1_555 1_555
O11_8 H7_8 1_555 1_555
O11_8 H8_8 1_555 1_555
C6_8 H2_8 1_555 1_555
C7_8 C8_8 1_555 1_555
C8_8 C9_8 1_555 1_555
C9_8 O14_2 1_555 1_555
C10_8 C7_8 1_555 1_555
N5_2 C6_8 1_555 1_555
O15_4 C9_8 1_555 1_555
O16_4 C10_8 1_555 1_555
C6_8 N3_8 1_555 1_555
C7_8 N3_8 1_555 1_555
C8_8 N5_2 1_555 1_555
O9_8 H5_8 1_555 1_555
O9_8 H6_8 1_555 1_555
Gd1_5 N2_9 1_555 1_555
C6_9 H2_9 1_555 1_555
N3_9 Gd1_5 1_555 1_555
O4_9 Gd1_5 1_555 1_555
O9_9 Gd1_5 1_555 1_555
O10_8 Gd1_5 1_555 1_555
O12_5 Gd1_5 1_555 1_555
O13_5 Gd1_5 1_555 1_555
C2_9 N2_9 1_555 1_555
C6_9 N3_9 1_555 1_555
O10_8 H3_8 1_555 1_555
O10_8 H4_8 1_555 1_555
O9_9 H5_9 1_555 1_555
O9_9 H6_9 1_555 1_555
C7_9 C8_9 1_555 1_555
C8_9 C9_9 1_555 1_555
C9_9 O5_5 1_555 1_555
C10_9 C7_9 1_555 1_555
O3_5 C5_9 1_555 1_555
O6_5 C9_9 1_555 1_555
O17_6 C10_9 1_555 1_555
Gd6_5 O6_5 1_555 1_555
C8_9 N4_5 1_555 1_555
C10_9 O18_6 1_555 1_555
O17_6 Gd6_5 1_555 1_555
Gd6_6 N1_9 1_555 1_555
C3_9 C4_9 1_555 1_555
C4_9 O1_9 1_555 1_555
N1_9 C1_9 1_555 1_555
O1_9 Gd6_6 1_555 1_555
O11_9 Gd6_6 1_555 1_555
N5_5 Gd6_6 1_555 1_555
O14_5 Gd6_6 1_555 1_555
O15_5 Gd6_6 1_555 1_555
O17_5 Gd6_6 1_555 1_555
C3_9 N1_9 1_555 1_555
O11_9 H7_9 1_555 1_555
O11_9 H8_9 1_555 1_555
Gd3_5 O2_5 1_555 1_555
Gd6_5 N1_10 1_555 1_555
C3_10 C4_10 1_555 1_555
C4_10 O1_10 1_555 1_555
N1_10 C1_10 1_555 1_555
O1_10 Gd6_5 1_555 1_555
O2_6 C4_10 1_555 1_555
O11_10 Gd6_5 1_555 1_555
Gd3_6 O2_6 1_555 1_555
N5_6 Gd6_5 1_555 1_555
O14_6 Gd6_5 1_555 1_555
C3_10 N1_10 1_555 1_555
O11_10 H7_10 1_555 1_555
O11_10 H8_10 1_555 1_555
Gd1_6 N2_10 1_555 1_555
C5_10 C2_10 1_555 1_555
C6_10 H2_10 1_555 1_555
C7_10 C8_10 1_555 1_555
C8_10 C9_10 1_555 1_555
C9_10 O5_6 1_555 1_555
C10_10 C7_10 1_555 1_555
N3_10 Gd1_6 1_555 1_555
N4_6 C6_10 1_555 1_555
O3_6 C5_10 1_555 1_555
O4_10 Gd1_6 1_555 1_555
O15_5 C9_10 1_555 1_555
O17_5 C10_10 1_555 1_555
O18_5 Gd1_6 1_555 1_555
O9_10 Gd1_6 1_555 1_555
O10_9 Gd1_6 1_555 1_555
O12_6 Gd1_6 1_555 1_555
O13_6 Gd1_6 1_555 1_555
C2_10 N2_10 1_555 1_555
C5_10 O4_10 1_555 1_555
C6_10 N3_10 1_555 1_555
C7_10 N3_10 1_555 1_555
C8_10 N4_6 1_555 1_555
C10_10 O18_5 1_555 1_555
O10_9 H3_9 1_555 1_555
O10_9 H4_9 1_555 1_555
O9_10 H5_10 1_555 1_555
O9_10 H6_10 1_555 1_555
Gd1_7 N2_11 1_555 1_555
Gd6_4 N1_11 1_555 1_555
C1_11 H1_11 1_555 1_555
C2_11 C3_11 1_555 1_555
C3_11 C4_11 1_555 1_555
C4_11 O1_11 1_555 1_555
C5_11 C2_11 1_555 1_555
C6_11 H2_11 1_555 1_555
C7_11 C8_11 1_555 1_555
C8_11 C9_11 1_555 1_555
C9_11 O5_7 1_555 1_555
C10_11 C7_11 1_555 1_555
N1_11 C1_11 1_555 1_555
N2_11 C1_11 1_555 1_555
N3_11 Gd1_7 1_555 1_555
N4_7 C6_11 1_555 1_555
O1_11 Gd6_4 1_555 1_555
O2_7 C4_11 1_555 1_555
O3_7 C5_11 1_555 1_555
O4_11 Gd1_7 1_555 1_555
O5_7 Gd6_2 1_555 1_555
O6_6 C9_11 1_555 1_555
O17_4 C10_11 1_555 1_555
O18_4 Gd1_7 1_555 1_555
O11_11 Gd6_4 1_555 1_555
Gd3_7 O2_7 1_555 1_555
Gd6_2 N4_7 1_555 1_555
Gd6_3 O6_6 1_555 1_555
N5_7 Gd6_4 1_555 1_555
O12_7 Gd1_7 1_555 1_555
O13_7 Gd1_7 1_555 1_555
O14_7 Gd6_4 1_555 1_555
C2_11 N2_11 1_555 1_555
C3_11 N1_11 1_555 1_555
C5_11 O4_11 1_555 1_555
C6_11 N3_11 1_555 1_555
C7_11 N3_11 1_555 1_555
C8_11 N4_7 1_555 1_555
C10_11 O18_4 1_555 1_555
O3_7 Gd3_7 1_555 1_555
O17_4 Gd6_3 1_555 1_555
O11_11 H7_11 1_555 1_555
O11_11 H8_11 1_555 1_555
O10_10 H3_10 1_555 1_555
O10_10 H4_10 1_555 1_555
O9_11 H5_11 1_555 1_555
O9_11 H6_11 1_555 1_555
Gd1_8 N2_12 1_555 1_555
Gd6_3 N1_12 1_555 1_555
C1_12 H1_12 1_555 1_555
C2_12 C3_12 1_555 1_555
C3_12 C4_12 1_555 1_555
C4_12 O1_12 1_555 1_555
C5_12 C2_12 1_555 1_555
C6_12 H2_12 1_555 1_555
C7_12 C8_12 1_555 1_555
C8_12 C9_12 1_555 1_555
C9_12 O5_8 1_555 1_555
C10_12 C7_12 1_555 1_555
N1_12 C1_12 1_555 1_555
N2_12 C1_12 1_555 1_555
N3_12 Gd1_8 1_555 1_555
N4_8 C6_12 1_555 1_555
O1_12 Gd6_3 1_555 1_555
O2_8 C4_12 1_555 1_555
O3_8 C5_12 1_555 1_555
O4_12 Gd1_8 1_555 1_555
O5_8 Gd6 1_555 1_555
O15_6 C9_12 1_555 1_555
O17_3 C10_12 1_555 1_555
O18_3 Gd1_8 1_555 1_555
O9_12 Gd1_8 1_555 1_555
O10_11 Gd1_8 1_555 1_555
Gd3_8 O2_8 1_555 1_555
Gd6 N4_8 1_555 1_555
N5_8 Gd6_3 1_555 1_555
O12_8 Gd1_8 1_555 1_555
O13_8 Gd1_8 1_555 1_555
O14_8 Gd6_3 1_555 1_555
C2_12 N2_12 1_555 1_555
C3_12 N1_12 1_555 1_555
C5_12 O4_12 1_555 1_555
C6_12 N3_12 1_555 1_555
C7_12 N3_12 1_555 1_555
C8_12 N4_8 1_555 1_555
C10_12 O18_3 1_555 1_555
O3_8 Gd3_8 1_555 1_555
O10_11 H3_11 1_555 1_555
O10_11 H4_11 1_555 1_555
O9_12 H5_12 1_555 1_555
O9_12 H6_12 1_555 1_555
O11_12 H7_12 1_555 1_555
O11_12 H8_12 1_555 1_555
Gd3_7 N2_13 1_555 1_555
Gd6_2 N1_13 1_555 1_555
C1_13 H1_13 1_555 1_555
C2_13 C3_13 1_555 1_555
C3_13 C4_13 1_555 1_555
C4_13 O1_13 1_555 1_555
C5_13 C2_13 1_555 1_555
C6_13 H2_13 1_555 1_555
C7_13 C8_13 1_555 1_555
C8_13 C9_13 1_555 1_555
C9_13 O14_8 1_555 1_555
C10_13 C7_13 1_555 1_555
N1_13 C1_13 1_555 1_555
N2_13 C1_13 1_555 1_555
N3_13 Gd3_7 1_555 1_555
N5_8 C6_13 1_555 1_555
O1_13 Gd6_2 1_555 1_555
O12_8 C4_13 1_555 1_555
O13_8 C5_13 1_555 1_555
O4_13 Gd3_7 1_555 1_555
O6_7 C9_13 1_555 1_555
O17_2 C10_13 1_555 1_555
O18_2 Gd3_7 1_555 1_555
O9_13 Gd3_7 1_555 1_555
O10_12 Gd3_7 1_555 1_555
O11_13 Gd6_2 1_555 1_555
Gd6 O6_7 1_555 1_555
O15_7 Gd6_2 1_555 1_555
O17 Gd6_2 1_555 1_555
C2_13 N2_13 1_555 1_555
C3_13 N1_13 1_555 1_555
C5_13 O4_13 1_555 1_555
C6_13 N3_13 1_555 1_555
C7_13 N3_13 1_555 1_555
C8_13 N5_8 1_555 1_555
C10_13 O18_2 1_555 1_555
O17_2 Gd6 1_555 1_555
O10_12 H3_12 1_555 1_555
O10_12 H4_12 1_555 1_555
O9_13 H5_13 1_555 1_555
O9_13 H6_13 1_555 1_555
O11_13 H7_13 1_555 1_555
O11_13 H8_13 1_555 1_555
Gd3_8 N2_14 1_555 1_555
Gd6 N1_14 1_555 1_555
C1_14 H1_14 1_555 1_555
C2_14 C3_14 1_555 1_555
C3_14 C4_14 1_555 1_555
C4_14 O1_14 1_555 1_555
C6_14 H2_14 1_555 1_555
N1_14 C1_14 1_555 1_555
N2_14 C1_14 1_555 1_555
N3_14 Gd3_8 1_555 1_555
O1_14 Gd6 1_555 1_555
O4_14 Gd3_8 1_555 1_555
O9_14 Gd3_8 1_555 1_555
O10_13 Gd3_8 1_555 1_555
O11_14 Gd6 1_555 1_555
C2_14 N2_14 1_555 1_555
C3_14 N1_14 1_555 1_555
C6_14 N3_14 1_555 1_555
O10_13 H3_13 1_555 1_555
O10_13 H4_13 1_555 1_555
O9_14 H5_14 1_555 1_555
O9_14 H6_14 1_555 1_555
O11_14 H7_14 1_555 1_555
O11_14 H8_14 1_555 1_555
C7_14 C8_14 1_555 1_555
C8_14 C9_14 1_555 1_555
C9_14 O14_7 1_555 1_555
C10_14 C7_14 1_555 1_555
O13_7 C5_14 1_555 1_555
O15_7 C9_14 1_555 1_555
O17 C10_14 1_555 1_555
C8_14 N5_7 1_555 1_555
C10_14 O18 1_555 1_555
O11_15 H7_15 1_555 1_555
O11_15 H8_15 1_555 1_555
Gd3_6 N2_15 1_555 1_555
Gd6_8 N1_15 1_555 1_555
C2_15 C3_15 1_555 1_555
C3_15 C4_15 1_555 1_555
C4_15 O1_15 1_555 1_555
C5_15 C2_15 1_555 1_555
N1_15 C1_15 1_555 1_555
N2_15 C1_15 1_555 1_555
O1_15 Gd6_8 1_555 1_555
O12_5 C4_15 1_555 1_555
O13_5 C5_15 1_555 1_555
O4_15 Gd3_6 1_555 1_555
O18_8 Gd3_6 1_555 1_555
O9_15 Gd3_6 1_555 1_555
O15_8 Gd6_8 1_555 1_555
O17_7 Gd6_8 1_555 1_555
C2_15 N2_15 1_555 1_555
C3_15 N1_15 1_555 1_555
C5_15 O4_15 1_555 1_555
O9_15 H5_15 1_555 1_555
O9_15 H6_15 1_555 1_555
C6_15 H2_15 1_555 1_555
C7_15 C8_15 1_555 1_555
C8_15 C9_15 1_555 1_555
C9_15 O14_5 1_555 1_555
C10_15 C7_15 1_555 1_555
N5_5 C6_15 1_555 1_555
O6_8 C9_15 1_555 1_555
O17_8 C10_15 1_555 1_555
C6_15 N3_15 1_555 1_555
C7_15 N3_15 1_555 1_555
C8_15 N5_5 1_555 1_555
O10_14 H3_14 1_555 1_555
O10_14 H4_14 1_555 1_555
O9_16 H5_16 1_555 1_555
O9_16 H6_16 1_555 1_555
C6_16 H2_16 1_555 1_555
C7_16 C8_16 1_555 1_555
C8_16 C9_16 1_555 1_555
C9_16 O14_6 1_555 1_555
C10_16 C7_16 1_555 1_555
N5_6 C6_16 1_555 1_555
O15_8 C9_16 1_555 1_555
O17_7 C10_16 1_555 1_555
C6_16 N3_16 1_555 1_555
C7_16 N3_16 1_555 1_555
C8_16 N5_6 1_555 1_555
Gd3_5 N2_16 1_555 1_555
Gd6_7 N1_16 1_555 1_555
C2_16 C3_16 1_555 1_555
C3_16 C4_16 1_555 1_555
C4_16 O1_16 1_555 1_555
C5_16 C2_16 1_555 1_555
N1_16 C1_16 1_555 1_555
N2_16 C1_16 1_555 1_555
O1_16 Gd6_7 1_555 1_555
O12_6 C4_16 1_555 1_555
O13_6 C5_16 1_555 1_555
O4_16 Gd3_5 1_555 1_555
O18_7 Gd3_5 1_555 1_555
O11_16 Gd6_7 1_555 1_555
C2_16 N2_16 1_555 1_555
C3_16 N1_16 1_555 1_555
C5_16 O4_16 1_555 1_555
O11_16 H7_16 1_555 1_555
O11_16 H8_16 1_555 1_555
O10_15 H3_15 1_555 1_555
O10_15 H4_15 1_555 1_555
O10_16 H3_16 1_555 1_555
O10_16 H4_16 1_555 1_555

#END
