
###############################################################################
#
# This file contains modified crystal structure data generated from the
# MOF subset of the Cambridge Structural Database (CSD) v543 
# hosted by the Cambridge Crystallographic Data Centre (CCDC).
#
# This work is licensed under the Creative Commons
# Attribution-NonCommercial-ShareAlike 4.0 International License.
# To view a copy of this license, visit
# http://creativecommons.org/licenses/by-nc-sa/4.0/
# or send a letter to
# Creative Commons, PO Box 1866, Mountain View, CA 94042, USA.
#
# CIF created using the CSD Python API on 29 September 2022
# The structure has been converted into the P1 space group
# The structure has a 3D framework
# The original CSD entry PEGQAV is in the tetragonal crystal system
# The framework has been calculated to contain at least 10.0% void space
# The void calculation uses a probe of radius 1.32A, grid spacing 0.4
# H atom positions have been added when not included in the experimental data
#
###############################################################################

data_PEGQAV
_chemical_formula_moiety         '(C160 H128 N64 Nd32 O172)n'
_symmetry_cell_setting           triclinic
_symmetry_space_group_name_H-M   'P 1'
_symmetry_Int_Tables_number      1
_space_group_name_Hall           'P 1'
loop_
_symmetry_equiv_pos_site_id
_symmetry_equiv_pos_as_xyz
1 x,y,z
_cell_length_a                   20.2517(7)
_cell_length_b                   20.2517(7)
_cell_length_c                   16.5700(8)
_cell_angle_alpha                90
_cell_angle_beta                 90
_cell_angle_gamma                90
_cell_volume                     6795.88
loop_
_atom_site_label
_atom_site_type_symbol
_atom_site_fract_x
_atom_site_fract_y
_atom_site_fract_z
Nd1 Nd 0.68878(4) 0.67220(4) 0.07299(5)
Nd2 Nd 0.70022(5) 0.31794(4) 0.17077(5)
C1 C 0.7062(9) 0.4975(8) 0.1404(11)
H1 H 0.7343 0.5052 0.1837
C2 C 0.6418(8) 0.5135(7) 0.0378(9)
C3 C 0.6463(8) 0.4456(8) 0.0533(9)
C4 C 0.6176(8) 0.3856(9) 0.0178(10)
C6 C 0.8274(8) 0.5730(9) 0.0173(11)
H2 H 0.8303 0.5542 0.0684
N1 N 0.6869(7) 0.4377(7) 0.1175(9)
N2 N 0.6808(7) 0.5455(6) 0.0944(8)
O1 O 0.6248(7) 0.3329(6) 0.0581(7)
O9 O 0.5876(7) 0.7420(7) 0.0640(9)
O10 O 0.7420(8) 0.7813(6) 0.0750(8)
O11 O 0.6083(9) 0.2402(8) 0.2091(10)
N5 N 0.8049(8) 0.3833(7) 0.2076(8)
O12 O 0.6369(7) 0.6642(7) 0.2025(7)
O13 O 0.7771(6) 0.6696(6) 0.1669(7)
O14 O 0.7831(6) 0.3299(6) 0.0634(7)
O15 O 0.6273(6) 0.3765(6) 0.2579(7)
O16 O 0.7711(6) 0.2128(5) 0.1858(6)
O17 O 0.7289(6) 0.2872(5) 0.3142(6)
O18 O 0.7127(6) 0.2141(5) 0.0739(7)
H3 H 0.781875 0.780465 0.0401413
H4 H 0.710622 0.815046 0.054518
H5 H 0.579516 0.232379 0.161536
H6 H 0.627346 0.197603 0.227514
H7 H 0.561867 0.73791 0.114766
H8 H 0.600501 0.78883 0.0558222
C5 C 0.6073(8) 0.5542(7) 0.9768(9)
C7 C 0.7965(7) 0.6361(7) 0.9188(9)
C8 C 0.8486(7) 0.5939(7) 0.8939(9)
C9 C 0.8816(8) 0.5832(9) 0.8157(10)
C10 C 0.7587(7) 0.6886(7) 0.8848(8)
N3 N 0.7835(7) 0.6199(7) 0.9998(8)
N4 N 0.8667(7) 0.5549(8) 0.9576(8)
O2 O 0.5858(7) 0.3869(7) 0.9525(7)
O3 O 0.5804(6) 0.5271(6) 0.9169(7)
O4 O 0.6133(7) 0.6149(6) 0.9850(8)
O5 O 0.9201(6) 0.5331(6) 0.8134(7)
O6 O 0.8727(6) 0.6235(6) 0.7579(7)
O7 O 0.7711(6) 0.7128(5) 0.8142(6)
O8 O 0.7127(6) 0.7141(5) 0.9261(7)
Nd3 Nd 0.57780(4) 0.43878(4) 0.82299(5)
Nd4 Nd 0.93206(4) 0.45022(5) 0.92077(5)
Nd5 Nd 0.79978(5) 0.68206(4) 0.67077(5)
Nd6 Nd 0.70022(5) 0.81794(4) 0.82923(5)
Nd1_2 Nd 0.81122(4) 0.32780(4) 0.57299(5)
C1_2 C 0.7938(9) 0.5025(8) 0.6404(11)
H1_2 H 0.7657 0.4948 0.6837
C2_2 C 0.8582(8) 0.4865(7) 0.5378(9)
C3_2 C 0.8537(8) 0.5544(8) 0.5533(9)
C4_2 C 0.8824(8) 0.6144(9) 0.5178(10)
C5_2 C 0.8927(8) 0.4458(7) 0.4768(9)
C6_2 C 0.6726(8) 0.4270(9) 0.5173(11)
H2_2 H 0.6697 0.4458 0.5684
C7_2 C 0.7035(7) 0.3639(7) 0.4188(9)
C8_2 C 0.6514(7) 0.4061(7) 0.3939(9)
C9_2 C 0.6184(8) 0.4168(9) 0.3157(10)
C10_2 C 0.7413(7) 0.3114(7) 0.3848(8)
N1_2 N 0.8131(7) 0.5623(7) 0.6175(9)
N2_2 N 0.8192(7) 0.4545(6) 0.5944(8)
N3_2 N 0.7165(7) 0.3801(7) 0.4998(8)
N4_2 N 0.6333(7) 0.4451(8) 0.4576(8)
O1_2 O 0.8752(7) 0.6671(6) 0.5581(7)
O2_2 O 0.9142(7) 0.6131(7) 0.4525(7)
O3_2 O 0.9196(6) 0.4729(6) 0.4169(7)
O4_2 O 0.8867(7) 0.3851(6) 0.4850(8)
O5_2 O 0.5799(6) 0.4669(6) 0.3134(7)
O8_2 O 0.7873(6) 0.2859(5) 0.4261(7)
O9_2 O 0.9124(7) 0.2580(7) 0.5640(9)
O10_2 O 0.7580(8) 0.2187(6) 0.5750(8)
O11_2 O 0.8917(9) 0.7598(8) 0.7091(10)
Nd3_2 Nd 0.92220(4) 0.56122(4) 0.32299(5)
Nd4_2 Nd 0.56794(4) 0.54978(5) 0.42077(5)
Nd6_2 Nd 0.79978(5) 0.18206(4) 0.32923(5)
N5_2 N 0.6951(8) 0.6167(7) 0.7076(8)
O12_2 O 0.8631(7) 0.3358(7) 0.7025(7)
O13_2 O 0.7229(6) 0.3304(6) 0.6669(7)
O14_2 O 0.7169(6) 0.6701(6) 0.5634(7)
O16_2 O 0.7289(6) 0.7872(5) 0.6858(6)
O18_2 O 0.7873(6) 0.7859(5) 0.5739(7)
H3_2 H 0.718125 0.219535 0.540141
H4_2 H 0.789378 0.184954 0.554518
H5_2 H 0.920484 0.767621 0.661536
H6_2 H 0.872654 0.802397 0.727514
H7_2 H 0.938133 0.26209 0.614766
H8_2 H 0.899499 0.21117 0.555822
C6_3 C 0.1770(9) 0.0774(8) 0.2673(11)
H2_3 H 0.1958 0.0803 0.3184
C7_3 C 0.1139(7) 0.0465(7) 0.1688(9)
C8_3 C 0.1561(7) 0.0986(7) 0.1439(9)
C9_3 C 0.1668(9) 0.1316(8) 0.0657(10)
C10_3 C 0.0614(7) 0.0087(7) 0.1348(8)
N3_3 N 0.1301(7) 0.0335(7) 0.2498(8)
N4_3 N 0.1951(8) 0.1167(7) 0.2076(8)
O5_3 O 0.2169(6) 0.1701(6) 0.0634(7)
O6_2 O 0.1265(6) 0.1227(6) 0.0079(7)
O7_2 O 0.0372(5) 0.0211(6) 0.0642(6)
Nd4_3 Nd 0.29978(5) 0.18206(4) 0.17077(5)
N5_3 N 0.3667(7) 0.0549(8) 0.4576(8)
O13_3 O 0.0804(6) 0.0271(6) 0.4169(7)
O14_3 O 0.4201(6) 0.0331(6) 0.3134(7)
O16_3 O 0.5372(5) 0.0211(6) 0.4358(6)
Nd5_2 Nd 0.06794(4) 0.04978(5) 0.92077(5)
Nd1_3 Nd 0.07780(4) 0.93878(4) 0.32299(5)
Nd2_2 Nd 0.43206(4) 0.95022(5) 0.42077(5)
C1_3 C 0.2525(8) 0.9562(9) 0.3904(11)
H1_3 H 0.2448 0.9843 0.4337
C2_3 C 0.2365(7) 0.8918(8) 0.2878(9)
C3_3 C 0.3044(8) 0.8963(8) 0.3033(9)
C4_3 C 0.3644(9) 0.8676(8) 0.2678(10)
C5_3 C 0.1958(7) 0.8573(8) 0.2268(9)
N1_3 N 0.3123(7) 0.9369(7) 0.3675(9)
N2_3 N 0.2045(6) 0.9308(7) 0.3444(8)
O1_3 O 0.4171(6) 0.8748(7) 0.3081(7)
O2_3 O 0.3631(7) 0.8358(7) 0.2025(7)
O3_3 O 0.2229(6) 0.8304(6) 0.1669(7)
O4_3 O 0.1351(6) 0.8633(7) 0.2350(8)
O8_3 O 0.0359(5) 0.9627(6) 0.1761(7)
O9_3 O 0.0080(7) 0.8376(7) 0.3140(9)
O11_3 O 0.5098(8) 0.8583(9) 0.4591(10)
Nd3_3 Nd 0.31122(4) 0.82780(4) 0.07299(5)
O12_3 O 0.0858(7) 0.8869(7) 0.4525(7)
O15_2 O 0.3735(6) 0.8773(6) 0.5079(7)
O17_2 O 0.4628(5) 0.9789(6) 0.5642(6)
O18_3 O 0.5359(5) 0.9627(6) 0.3239(7)
H5_3 H 0.517621 0.829516 0.411536
H6_3 H 0.552397 0.877346 0.477514
H7_3 H 0.0120895 0.811867 0.364766
O10_3 O 0.9687(6) 0.9920(8) 0.3250(8)
Nd6_3 Nd 0.93206(4) 0.95022(5) 0.07923(5)
H4_3 H 0.934954 0.960622 0.304518
H8_3 H 0.96117 0.850501 0.305822
Nd1_4 Nd 0.42220(4) 0.06122(4) 0.82299(5)
C1_4 C 0.2475(8) 0.0438(9) 0.8904(11)
H1_4 H 0.2552 0.0157 0.9337
C2_4 C 0.2635(7) 0.1082(8) 0.7878(9)
C3_4 C 0.1956(8) 0.1037(8) 0.8033(9)
C4_4 C 0.1356(9) 0.1324(8) 0.7678(10)
C5_4 C 0.3042(7) 0.1427(8) 0.7268(9)
N1_4 N 0.1877(7) 0.0631(7) 0.8675(9)
N2_4 N 0.2955(6) 0.0692(7) 0.8444(8)
O1_4 O 0.0829(6) 0.1252(7) 0.8081(7)
O2_4 O 0.1369(7) 0.1642(7) 0.7025(7)
O3_4 O 0.2771(6) 0.1696(6) 0.6669(7)
O4_4 O 0.3649(6) 0.1367(7) 0.7350(8)
O8_4 O 0.4641(5) 0.0373(6) 0.6761(7)
O9_4 O 0.4920(7) 0.1624(7) 0.8140(9)
O10_4 O 0.5313(6) 0.0080(8) 0.8250(8)
Nd3_4 Nd 0.18878(4) 0.17220(4) 0.57299(5)
Nd6_4 Nd 0.56794(4) 0.04978(5) 0.57923(5)
O12_4 O 0.4142(7) 0.1131(7) 0.9525(7)
H4_4 H 0.565046 0.0393781 0.804518
H7_4 H 0.48791 0.188133 0.864766
H8_4 H 0.53883 0.149499 0.805822
C6_4 C 0.3230(9) 0.9226(8) 0.7673(11)
H2_4 H 0.3042 0.9197 0.8184
C7_4 C 0.3861(7) 0.9535(7) 0.6688(9)
C8_4 C 0.3439(7) 0.9014(7) 0.6439(9)
C9_4 C 0.3332(9) 0.8684(8) 0.5657(10)
C10_4 C 0.4386(7) 0.9913(7) 0.6348(8)
N3_4 N 0.3699(7) 0.9665(7) 0.7498(8)
N4_4 N 0.3049(8) 0.8833(7) 0.7076(8)
O5_4 O 0.2831(6) 0.8299(6) 0.5634(7)
Nd4_4 Nd 0.20022(5) 0.81794(4) 0.67077(5)
N5_4 N 0.1333(7) 0.9451(8) 0.9576(8)
O13_4 O 0.4196(6) 0.9729(6) 0.9169(7)
O14_4 O 0.0799(6) 0.9669(6) 0.8134(7)
H3_3 H 0.530465 0.968125 0.790141
O11_4 O 0.9902(8) 0.1417(9) 0.9591(10)
O18_4 O 0.9641(5) 0.0373(6) 0.8239(7)
H5_4 H 0.982379 0.170484 0.911536
H6_4 H 0.947603 0.122654 0.977514
O16_4 O 0.9628(5) 0.9789(6) 0.9358(6)
H1_5 H 0.2343 0.0052 0.6837
C2_5 C 0.1418(8) 0.0135(7) 0.5378(9)
C5_5 C 0.1073(8) 0.0542(7) 0.4768(9)
C6_5 C 0.3274(8) 0.0730(9) 0.5173(11)
H2_5 H 0.3303 0.0542 0.5684
C7_5 C 0.2965(7) 0.1361(7) 0.4188(9)
C8_5 C 0.3486(7) 0.0939(7) 0.3939(9)
C9_5 C 0.3816(8) 0.0832(9) 0.3157(10)
C10_5 C 0.2587(7) 0.1886(7) 0.3848(8)
N2_5 N 0.1808(7) 0.0455(6) 0.5944(8)
N3_5 N 0.2835(7) 0.1199(7) 0.4998(8)
O4_5 O 0.1133(7) 0.1149(6) 0.4850(8)
O6_3 O 0.3727(6) 0.1235(6) 0.2579(7)
O7_3 O 0.2711(6) 0.2128(5) 0.3142(6)
O8_5 O 0.2127(6) 0.2141(5) 0.4261(7)
O9_5 O 0.0876(7) 0.2420(7) 0.5640(9)
O10_5 O 0.2420(8) 0.2813(6) 0.5750(8)
Nd6_5 Nd 0.20022(5) 0.31794(4) 0.32923(5)
H3_4 H 0.281875 0.280465 0.540141
H4_5 H 0.210622 0.315046 0.554518
H7_5 H 0.0618674 0.23791 0.614766
H8_5 H 0.100501 0.28883 0.555822
C1_5 C 0.2062(9) 0.9975(8) 0.6404(11)
C3_5 C 0.1463(8) 0.9456(8) 0.5533(9)
C4_5 C 0.1176(8) 0.8856(9) 0.5178(10)
N1_5 N 0.1869(7) 0.9377(7) 0.6175(9)
O1_5 O 0.1248(7) 0.8329(6) 0.5581(7)
O11_5 O 0.1083(9) 0.7402(8) 0.7091(10)
O15_3 O 0.1273(6) 0.8765(6) 0.7579(7)
O16_5 O 0.2711(6) 0.7128(5) 0.6858(6)
O17_3 O 0.2289(6) 0.7872(5) 0.8142(6)
O18_5 O 0.2127(6) 0.7141(5) 0.5739(7)
H5_5 H 0.079516 0.732379 0.661536
H6_5 H 0.127346 0.697603 0.727514
C1_6 C 0.2938(9) 0.0025(8) 0.1404(11)
C3_6 C 0.3537(8) 0.0544(8) 0.0533(9)
C4_6 C 0.3824(8) 0.1144(9) 0.0178(10)
N1_6 N 0.3131(7) 0.0623(7) 0.1175(9)
O1_6 O 0.3752(7) 0.1671(6) 0.0581(7)
O11_6 O 0.3917(9) 0.2598(8) 0.2091(10)
O16_6 O 0.2289(6) 0.2872(5) 0.1858(6)
O18_6 O 0.2873(6) 0.2859(5) 0.0739(7)
H5_6 H 0.420484 0.267621 0.161536
H6_6 H 0.372654 0.302397 0.227514
H1_6 H 0.2657 0.9948 0.1837
C2_6 C 0.3582(8) 0.9865(7) 0.0378(9)
C6_6 C 0.1726(8) 0.9270(9) 0.0173(11)
H2_6 H 0.1697 0.9458 0.0684
N2_6 N 0.3192(7) 0.9545(6) 0.0944(8)
O9_6 O 0.4124(7) 0.7580(7) 0.0640(9)
O10_6 O 0.2580(8) 0.7187(6) 0.0750(8)
H3_5 H 0.218125 0.719535 0.0401413
H4_6 H 0.289378 0.684954 0.054518
H7_6 H 0.438133 0.76209 0.114766
H8_6 H 0.399499 0.71117 0.0558222
C5_6 C 0.3927(8) 0.9458(7) 0.9768(9)
C7_6 C 0.2035(7) 0.8639(7) 0.9188(9)
C8_6 C 0.1514(7) 0.9061(7) 0.8939(9)
C9_6 C 0.1184(8) 0.9168(9) 0.8157(10)
C10_6 C 0.2413(7) 0.8114(7) 0.8848(8)
N3_6 N 0.2165(7) 0.8801(7) 0.9998(8)
O4_6 O 0.3867(7) 0.8851(6) 0.9850(8)
O8_6 O 0.2873(6) 0.7859(5) 0.9261(7)
Nd6_6 Nd 0.29978(5) 0.68206(4) 0.82923(5)
O11_7 O 0.0098(8) 0.3583(9) 0.9591(10)
O16_7 O 0.0372(5) 0.5211(6) 0.9358(6)
O18_7 O 0.0359(5) 0.4627(6) 0.8239(7)
H5_7 H 0.0176207 0.329516 0.911536
H6_7 H 0.0523969 0.377346 0.977514
O15_4 O 0.8735(6) 0.3773(6) 0.0079(7)
O17_4 O 0.9628(5) 0.4789(6) 0.0642(6)
C1_7 C 0.7525(8) 0.4562(9) 0.8904(11)
H1_7 H 0.7448 0.4843 0.9337
C2_7 C 0.7365(7) 0.3918(8) 0.7878(9)
C3_7 C 0.8044(8) 0.3963(8) 0.8033(9)
C4_7 C 0.8644(9) 0.3676(8) 0.7678(10)
C5_7 C 0.6958(7) 0.3573(8) 0.7268(9)
C6_7 C 0.6770(9) 0.5774(8) 0.7673(11)
H2_7 H 0.6958 0.5803 0.8184
C7_7 C 0.6139(7) 0.5465(7) 0.6688(9)
C8_7 C 0.6561(7) 0.5986(7) 0.6439(9)
C9_7 C 0.6668(9) 0.6316(8) 0.5657(10)
C10_7 C 0.5614(7) 0.5087(7) 0.6348(8)
N1_7 N 0.8123(7) 0.4369(7) 0.8675(9)
N2_7 N 0.7045(6) 0.4308(7) 0.8444(8)
N3_7 N 0.6301(7) 0.5335(7) 0.7498(8)
O1_7 O 0.9171(6) 0.3748(7) 0.8081(7)
O4_7 O 0.6351(6) 0.3633(7) 0.7350(8)
O6_4 O 0.6265(6) 0.6227(6) 0.5079(7)
O7_4 O 0.5372(5) 0.5211(6) 0.5642(6)
O8_7 O 0.5359(5) 0.4627(6) 0.6761(7)
O9_7 O 0.5080(7) 0.3376(7) 0.8140(9)
O10_7 O 0.4687(6) 0.4920(8) 0.8250(8)
Nd6_7 Nd 0.43206(4) 0.45022(5) 0.57923(5)
H3_6 H 0.469535 0.531875 0.790141
H4_7 H 0.434954 0.460622 0.804518
H7_7 H 0.51209 0.311867 0.864766
H8_7 H 0.46117 0.350501 0.805822
O10_8 O 0.0313(6) 0.5080(8) 0.3250(8)
Nd6_8 Nd 0.06794(4) 0.54978(5) 0.07923(5)
H3_7 H 0.0304652 0.468125 0.290141
H4_8 H 0.0650461 0.539378 0.304518
H8_8 H 0.0388298 0.649499 0.305822
C1_8 C 0.7475(8) 0.5438(9) 0.3904(11)
H1_8 H 0.7552 0.5157 0.4337
C2_8 C 0.7635(7) 0.6082(8) 0.2878(9)
C3_8 C 0.6956(8) 0.6037(8) 0.3033(9)
C4_8 C 0.6356(9) 0.6324(8) 0.2678(10)
C5_8 C 0.8042(7) 0.6427(8) 0.2268(9)
C6_8 C 0.8230(9) 0.4226(8) 0.2673(11)
H2_8 H 0.8042 0.4197 0.3184
C7_8 C 0.8861(7) 0.4535(7) 0.1688(9)
C8_8 C 0.8439(7) 0.4014(7) 0.1439(9)
C9_8 C 0.8332(9) 0.3684(8) 0.0657(10)
C10_8 C 0.9386(7) 0.4913(7) 0.1348(8)
N1_8 N 0.6877(7) 0.5631(7) 0.3675(9)
N2_8 N 0.7955(6) 0.5692(7) 0.3444(8)
N3_8 N 0.8699(7) 0.4665(7) 0.2498(8)
O1_8 O 0.5829(6) 0.6252(7) 0.3081(7)
O4_8 O 0.8649(6) 0.6367(7) 0.2350(8)
O8_8 O 0.9641(5) 0.5373(6) 0.1761(7)
O9_8 O 0.9920(7) 0.6624(7) 0.3140(9)
O11_8 O 0.4902(8) 0.6417(9) 0.4591(10)
O16_8 O 0.4628(5) 0.4789(6) 0.4358(6)
O18_8 O 0.4641(5) 0.5373(6) 0.3239(7)
H5_8 H 0.482379 0.670484 0.411536
H6_8 H 0.447603 0.622654 0.477514
H7_8 H 0.98791 0.688133 0.364766
C5_9 C 0.3927(8) 0.4458(7) 0.0232(9)
C7_9 C 0.2035(7) 0.3639(7) 0.0812(9)
C8_9 C 0.1514(7) 0.4061(7) 0.1061(9)
C9_9 C 0.1184(8) 0.4168(9) 0.1843(10)
C10_9 C 0.2413(7) 0.3114(7) 0.1152(8)
N3_9 N 0.2165(7) 0.3801(7) 0.0002(8)
N4_5 N 0.1333(7) 0.4451(8) 0.0424(8)
O2_5 O 0.4142(7) 0.6131(7) 0.0475(7)
O3_5 O 0.4196(6) 0.4729(6) 0.0831(7)
O4_9 O 0.3867(7) 0.3851(6) 0.0150(8)
O5_5 O 0.0799(6) 0.4669(6) 0.1866(7)
O6_5 O 0.1273(6) 0.3765(6) 0.2421(7)
Nd3_5 Nd 0.42220(4) 0.56122(4) 0.17701(5)
Nd1_5 Nd 0.31122(4) 0.32780(4) 0.92701(5)
C1_9 C 0.2938(9) 0.5025(8) 0.8596(11)
H1_9 H 0.2657 0.4948 0.8163
C2_9 C 0.3582(8) 0.4865(7) 0.9622(9)
C3_9 C 0.3537(8) 0.5544(8) 0.9467(9)
C4_9 C 0.3824(8) 0.6144(9) 0.9822(10)
C6_9 C 0.1726(8) 0.4270(9) 0.9827(11)
H2_9 H 0.1697 0.4458 0.9316
N1_9 N 0.3131(7) 0.5623(7) 0.8825(9)
N2_9 N 0.3192(7) 0.4545(6) 0.9056(8)
O1_9 O 0.3752(7) 0.6671(6) 0.9419(7)
O9_9 O 0.4124(7) 0.2580(7) 0.9360(9)
O10_9 O 0.2580(8) 0.2187(6) 0.9250(8)
O11_9 O 0.3917(9) 0.7598(8) 0.7909(10)
N5_5 N 0.1951(8) 0.6167(7) 0.7924(8)
O12_5 O 0.3631(7) 0.3358(7) 0.7975(7)
O13_5 O 0.2229(6) 0.3304(6) 0.8331(7)
O14_5 O 0.2169(6) 0.6701(6) 0.9366(7)
O15_5 O 0.3727(6) 0.6235(6) 0.7421(7)
H3_8 H 0.218125 0.219535 0.959859
H4_9 H 0.289378 0.184954 0.945482
H5_9 H 0.420484 0.767621 0.838464
H6_9 H 0.372654 0.802397 0.772486
H7_9 H 0.438133 0.26209 0.885234
H8_9 H 0.399499 0.21117 0.944178
Nd1_6 Nd 0.18878(4) 0.67220(4) 0.42701(5)
C1_10 C 0.2062(9) 0.4975(8) 0.3596(11)
H1_10 H 0.2343 0.5052 0.3163
C2_10 C 0.1418(8) 0.5135(7) 0.4622(9)
C3_10 C 0.1463(8) 0.4456(8) 0.4467(9)
C4_10 C 0.1176(8) 0.3856(9) 0.4822(10)
C5_10 C 0.1073(8) 0.5542(7) 0.5232(9)
C6_10 C 0.3274(8) 0.5730(9) 0.4827(11)
H2_10 H 0.3303 0.5542 0.4316
C7_10 C 0.2965(7) 0.6361(7) 0.5812(9)
C8_10 C 0.3486(7) 0.5939(7) 0.6061(9)
C9_10 C 0.3816(8) 0.5832(9) 0.6843(10)
C10_10 C 0.2587(7) 0.6886(7) 0.6152(8)
N1_10 N 0.1869(7) 0.4377(7) 0.3825(9)
N2_10 N 0.1808(7) 0.5455(6) 0.4056(8)
N3_10 N 0.2835(7) 0.6199(7) 0.5002(8)
N4_6 N 0.3667(7) 0.5549(8) 0.5424(8)
O1_10 O 0.1248(7) 0.3329(6) 0.4419(7)
O2_6 O 0.0858(7) 0.3869(7) 0.5475(7)
O3_6 O 0.0804(6) 0.5271(6) 0.5831(7)
O4_10 O 0.1133(7) 0.6149(6) 0.5150(8)
O5_6 O 0.4201(6) 0.5331(6) 0.6866(7)
O9_10 O 0.0876(7) 0.7420(7) 0.4360(9)
O10_10 O 0.2420(8) 0.7813(6) 0.4250(8)
O11_10 O 0.1083(9) 0.2402(8) 0.2909(10)
Nd3_6 Nd 0.07780(4) 0.43878(4) 0.67701(5)
N5_6 N 0.3049(8) 0.3833(7) 0.2924(8)
O12_6 O 0.1369(7) 0.6642(7) 0.2975(7)
O13_6 O 0.2771(6) 0.6696(6) 0.3331(7)
O14_6 O 0.2831(6) 0.3299(6) 0.4366(7)
H3_9 H 0.281875 0.780465 0.459859
H4_10 H 0.210622 0.815046 0.445482
H5_10 H 0.079516 0.232379 0.338464
H6_10 H 0.127346 0.197603 0.272486
H7_10 H 0.0618674 0.73791 0.385234
H8_10 H 0.100501 0.78883 0.444178
O10_11 O 0.0313(6) 0.0080(8) 0.6750(8)
H4_11 H 0.0650461 0.0393781 0.695482
H8_11 H 0.0388298 0.149499 0.694178
Nd1_7 Nd 0.92220(4) 0.06122(4) 0.67701(5)
C1_11 C 0.7475(8) 0.0438(9) 0.6096(11)
H1_11 H 0.7552 0.0157 0.5663
C2_11 C 0.7635(7) 0.1082(8) 0.7122(9)
C3_11 C 0.6956(8) 0.1037(8) 0.6967(9)
C4_11 C 0.6356(9) 0.1324(8) 0.7322(10)
C5_11 C 0.8042(7) 0.1427(8) 0.7732(9)
N1_11 N 0.6877(7) 0.0631(7) 0.6325(9)
N2_11 N 0.7955(6) 0.0692(7) 0.6556(8)
O1_11 O 0.5829(6) 0.1252(7) 0.6919(7)
O2_7 O 0.6369(7) 0.1642(7) 0.7975(7)
O3_7 O 0.7771(6) 0.1696(6) 0.8331(7)
O4_11 O 0.8649(6) 0.1367(7) 0.7650(8)
O9_11 O 0.9920(7) 0.1624(7) 0.6860(9)
O11_11 O 0.4902(8) 0.1417(9) 0.5409(10)
Nd3_7 Nd 0.68878(4) 0.17220(4) 0.92701(5)
O12_7 O 0.9142(7) 0.1131(7) 0.5475(7)
O15_6 O 0.6265(6) 0.1227(6) 0.4921(7)
H5_11 H 0.482379 0.170484 0.588464
H6_11 H 0.447603 0.122654 0.522486
H7_11 H 0.98791 0.188133 0.635234
C6_11 C 0.8230(9) 0.9226(8) 0.7327(11)
H2_11 H 0.8042 0.9197 0.6816
C7_11 C 0.8861(7) 0.9535(7) 0.8312(9)
C8_11 C 0.8439(7) 0.9014(7) 0.8561(9)
C9_11 C 0.8332(9) 0.8684(8) 0.9343(10)
C10_11 C 0.9386(7) 0.9913(7) 0.8652(8)
N3_11 N 0.8699(7) 0.9665(7) 0.7502(8)
N4_7 N 0.8049(8) 0.8833(7) 0.7924(8)
O5_7 O 0.7831(6) 0.8299(6) 0.9366(7)
O6_6 O 0.8735(6) 0.8773(6) 0.9921(7)
N5_7 N 0.6333(7) 0.9451(8) 0.5424(8)
O13_7 O 0.9196(6) 0.9729(6) 0.5831(7)
O14_7 O 0.5799(6) 0.9669(6) 0.6866(7)
O11_12 O 0.0098(8) 0.8583(9) 0.0409(10)
H5_12 H 0.0176207 0.829516 0.0884642
H6_12 H 0.0523969 0.877346 0.0224863
C6_12 C 0.6770(9) 0.0774(8) 0.2327(11)
H2_12 H 0.6958 0.0803 0.1816
C7_12 C 0.6139(7) 0.0465(7) 0.3312(9)
C8_12 C 0.6561(7) 0.0986(7) 0.3561(9)
C9_12 C 0.6668(9) 0.1316(8) 0.4343(10)
C10_12 C 0.5614(7) 0.0087(7) 0.3652(8)
N3_12 N 0.6301(7) 0.0335(7) 0.2502(8)
N4_8 N 0.6951(8) 0.1167(7) 0.2924(8)
O5_8 O 0.7169(6) 0.1701(6) 0.4366(7)
N5_8 N 0.8667(7) 0.0549(8) 0.0424(8)
O13_8 O 0.5804(6) 0.0271(6) 0.0831(7)
O14_8 O 0.9201(6) 0.0331(6) 0.1866(7)
H3_10 H 0.469535 0.0318755 0.209859
Nd1_8 Nd 0.57780(4) 0.93878(4) 0.17701(5)
C1_12 C 0.7525(8) 0.9562(9) 0.1096(11)
H1_12 H 0.7448 0.9843 0.0663
C2_12 C 0.7365(7) 0.8918(8) 0.2122(9)
C3_12 C 0.8044(8) 0.8963(8) 0.1967(9)
C4_12 C 0.8644(9) 0.8676(8) 0.2322(10)
C5_12 C 0.6958(7) 0.8573(8) 0.2732(9)
N1_12 N 0.8123(7) 0.9369(7) 0.1325(9)
N2_12 N 0.7045(6) 0.9308(7) 0.1556(8)
O1_12 O 0.9171(6) 0.8748(7) 0.1919(7)
O2_8 O 0.8631(7) 0.8358(7) 0.2975(7)
O3_8 O 0.7229(6) 0.8304(6) 0.3331(7)
O4_12 O 0.6351(6) 0.8633(7) 0.2650(8)
O9_12 O 0.5080(7) 0.8376(7) 0.1860(9)
O10_12 O 0.4687(6) 0.9920(8) 0.1750(8)
Nd3_8 Nd 0.81122(4) 0.82780(4) 0.42701(5)
O12_8 O 0.5858(7) 0.8869(7) 0.0475(7)
H4_12 H 0.434954 0.960622 0.195482
H7_12 H 0.51209 0.811867 0.135234
H8_12 H 0.46117 0.850501 0.194178
C1_13 C 0.7938(9) 0.0025(8) 0.3596(11)
C3_13 C 0.8537(8) 0.0544(8) 0.4467(9)
C4_13 C 0.8824(8) 0.1144(9) 0.4822(10)
N1_13 N 0.8131(7) 0.0623(7) 0.3825(9)
O1_13 O 0.8752(7) 0.1671(6) 0.4419(7)
O11_13 O 0.8917(9) 0.2598(8) 0.2909(10)
O15_7 O 0.8727(6) 0.1235(6) 0.2421(7)
H5_13 H 0.920484 0.267621 0.338464
H6_13 H 0.872654 0.302397 0.272486
H1_13 H 0.7657 0.9948 0.3163
C2_13 C 0.8582(8) 0.9865(7) 0.4622(9)
C5_13 C 0.8927(8) 0.9458(7) 0.5232(9)
C6_13 C 0.6726(8) 0.9270(9) 0.4827(11)
H2_13 H 0.6697 0.9458 0.4316
C7_13 C 0.7035(7) 0.8639(7) 0.5812(9)
C8_13 C 0.6514(7) 0.9061(7) 0.6061(9)
C9_13 C 0.6184(8) 0.9168(9) 0.6843(10)
C10_13 C 0.7413(7) 0.8114(7) 0.6152(8)
N2_13 N 0.8192(7) 0.9545(6) 0.4056(8)
N3_13 N 0.7165(7) 0.8801(7) 0.5002(8)
O4_13 O 0.8867(7) 0.8851(6) 0.5150(8)
O6_7 O 0.6273(6) 0.8765(6) 0.7421(7)
O9_13 O 0.9124(7) 0.7580(7) 0.4360(9)
O10_13 O 0.7580(8) 0.7187(6) 0.4250(8)
H3_11 H 0.718125 0.719535 0.459859
H4_13 H 0.789378 0.684954 0.445482
H7_13 H 0.938133 0.76209 0.385234
H8_13 H 0.899499 0.71117 0.444178
C5_14 C 0.6073(8) 0.0542(7) 0.0232(9)
C7_14 C 0.7965(7) 0.1361(7) 0.0812(9)
C8_14 C 0.8486(7) 0.0939(7) 0.1061(9)
C9_14 C 0.8816(8) 0.0832(9) 0.1843(10)
C10_14 C 0.7587(7) 0.1886(7) 0.1152(8)
N3_14 N 0.7835(7) 0.1199(7) 0.0002(8)
O4_14 O 0.6133(7) 0.1149(6) 0.0150(8)
H1_14 H 0.7343 0.0052 0.8163
C2_14 C 0.6418(8) 0.0135(7) 0.9622(9)
C6_14 C 0.8274(8) 0.0730(9) 0.9827(11)
H2_14 H 0.8303 0.0542 0.9316
N2_14 N 0.6808(7) 0.0455(6) 0.9056(8)
O9_14 O 0.5876(7) 0.2420(7) 0.9360(9)
O10_14 O 0.7420(8) 0.2813(6) 0.9250(8)
H3_12 H 0.781875 0.280465 0.959859
H4_14 H 0.710622 0.315046 0.945482
H7_14 H 0.561867 0.23791 0.885234
H8_14 H 0.600501 0.28883 0.944178
C1_14 C 0.7062(9) 0.9975(8) 0.8596(11)
C3_14 C 0.6463(8) 0.9456(8) 0.9467(9)
C4_14 C 0.6176(8) 0.8856(9) 0.9822(10)
N1_14 N 0.6869(7) 0.9377(7) 0.8825(9)
O1_14 O 0.6248(7) 0.8329(6) 0.9419(7)
O11_14 O 0.6083(9) 0.7402(8) 0.7909(10)
H5_14 H 0.579516 0.732379 0.838464
H6_14 H 0.627346 0.697603 0.772486
C1_15 C 0.2475(8) 0.5438(9) 0.1096(11)
H1_15 H 0.2552 0.5157 0.0663
C2_15 C 0.2635(7) 0.6082(8) 0.2122(9)
C3_15 C 0.1956(8) 0.6037(8) 0.1967(9)
C4_15 C 0.1356(9) 0.6324(8) 0.2322(10)
C5_15 C 0.3042(7) 0.6427(8) 0.2732(9)
C6_15 C 0.3230(9) 0.4226(8) 0.2327(11)
H2_15 H 0.3042 0.4197 0.1816
C7_15 C 0.3861(7) 0.4535(7) 0.3312(9)
C8_15 C 0.3439(7) 0.4014(7) 0.3561(9)
C9_15 C 0.3332(9) 0.3684(8) 0.4343(10)
C10_15 C 0.4386(7) 0.4913(7) 0.3652(8)
N1_15 N 0.1877(7) 0.5631(7) 0.1325(9)
N2_15 N 0.2955(6) 0.5692(7) 0.1556(8)
N3_15 N 0.3699(7) 0.4665(7) 0.2502(8)
O1_15 O 0.0829(6) 0.6252(7) 0.1919(7)
O4_15 O 0.3649(6) 0.6367(7) 0.2650(8)
O6_8 O 0.3735(6) 0.3773(6) 0.4921(7)
O9_15 O 0.4920(7) 0.6624(7) 0.1860(9)
O10_15 O 0.5313(6) 0.5080(8) 0.1750(8)
H3_13 H 0.530465 0.468125 0.209859
H4_15 H 0.565046 0.539378 0.195482
H7_15 H 0.48791 0.688133 0.135234
H8_15 H 0.53883 0.649499 0.194178
O15_8 O 0.1265(6) 0.6227(6) 0.9921(7)
O11_15 O 0.9902(8) 0.6417(9) 0.0409(10)
H5_15 H 0.982379 0.670484 0.0884642
H6_15 H 0.947603 0.622654 0.0224863
C1_16 C 0.2525(8) 0.4562(9) 0.6096(11)
H1_16 H 0.2448 0.4843 0.5663
C2_16 C 0.2365(7) 0.3918(8) 0.7122(9)
C3_16 C 0.3044(8) 0.3963(8) 0.6967(9)
C4_16 C 0.3644(9) 0.3676(8) 0.7322(10)
C5_16 C 0.1958(7) 0.3573(8) 0.7732(9)
C6_16 C 0.1770(9) 0.5774(8) 0.7327(11)
H2_16 H 0.1958 0.5803 0.6816
C7_16 C 0.1139(7) 0.5465(7) 0.8312(9)
C8_16 C 0.1561(7) 0.5986(7) 0.8561(9)
C9_16 C 0.1668(9) 0.6316(8) 0.9343(10)
C10_16 C 0.0614(7) 0.5087(7) 0.8652(8)
N1_16 N 0.3123(7) 0.4369(7) 0.6325(9)
N2_16 N 0.2045(6) 0.4308(7) 0.6556(8)
N3_16 N 0.1301(7) 0.5335(7) 0.7502(8)
O1_16 O 0.4171(6) 0.3748(7) 0.6919(7)
O4_16 O 0.1351(6) 0.3633(7) 0.7650(8)
O9_16 O 0.0080(7) 0.3376(7) 0.6860(9)
O11_16 O 0.5098(8) 0.3583(9) 0.5409(10)
H5_16 H 0.517621 0.329516 0.588464
H6_16 H 0.552397 0.377346 0.522486
H7_16 H 0.0120895 0.311867 0.635234
O10_16 O 0.9687(6) 0.4920(8) 0.6750(8)
H3_14 H 0.969535 0.531875 0.709859
H4_16 H 0.934954 0.460622 0.695482
H8_16 H 0.96117 0.350501 0.694178
H3_15 H 0.969535 0.0318755 0.290141
H3_16 H 0.0304652 0.968125 0.709859
loop_
_geom_bond_atom_site_label_1
_geom_bond_atom_site_label_2
_geom_bond_site_symmetry_1
_geom_bond_site_symmetry_2
Nd1 N2 1_555 1_555
Nd2 N1 1_555 1_555
C1 H1 1_555 1_555
C2 C3 1_555 1_555
C3 C4 1_555 1_555
C4 O1 1_555 1_555
C6 H2 1_555 1_555
N1 C1 1_555 1_555
N2 C1 1_555 1_555
O1 Nd2 1_555 1_555
O9 Nd1 1_555 1_555
O10 Nd1 1_555 1_555
O11 Nd2 1_555 1_555
N5 Nd2 1_555 1_555
O12 Nd1 1_555 1_555
O13 Nd1 1_555 1_555
O14 Nd2 1_555 1_555
O15 Nd2 1_555 1_555
O16 Nd2 1_555 1_555
O17 Nd2 1_555 1_555
O18 Nd2 1_555 1_555
C2 N2 1_555 1_555
C3 N1 1_555 1_555
O10 H3 1_555 1_555
O10 H4 1_555 1_555
O11 H5 1_555 1_555
O11 H6 1_555 1_555
O9 H7 1_555 1_555
O9 H8 1_555 1_555
C7 C8 1_555 1_555
C8 C9 1_555 1_555
C9 O5 1_555 1_555
C10 C7 1_555 1_555
O3 C5 1_555 1_555
O5 Nd4 1_555 1_555
O6 C9 1_555 1_555
O7 C10 1_555 1_555
Nd3 O2 1_555 1_555
Nd4 N4 1_555 1_555
Nd5 O6 1_555 1_555
Nd6 O7 1_555 1_555
C5 O4 1_555 1_555
C7 N3 1_555 1_555
C8 N4 1_555 1_555
C10 O8 1_555 1_555
O3 Nd3 1_555 1_555
O7 Nd5 1_555 1_555
O8 Nd6 1_555 1_555
Nd1_2 N2_2 1_555 1_555
Nd5 N1_2 1_555 1_555
C1_2 H1_2 1_555 1_555
C2_2 C3_2 1_555 1_555
C3_2 C4_2 1_555 1_555
C4_2 O1_2 1_555 1_555
C5_2 C2_2 1_555 1_555
C6_2 H2_2 1_555 1_555
C7_2 C8_2 1_555 1_555
C8_2 C9_2 1_555 1_555
C9_2 O5_2 1_555 1_555
C10_2 C7_2 1_555 1_555
N1_2 C1_2 1_555 1_555
N2_2 C1_2 1_555 1_555
N3_2 Nd1_2 1_555 1_555
N4_2 C6_2 1_555 1_555
O1_2 Nd5 1_555 1_555
O2_2 C4_2 1_555 1_555
O3_2 C5_2 1_555 1_555
O4_2 Nd1_2 1_555 1_555
O5_2 Nd4_2 1_555 1_555
O15 C9_2 1_555 1_555
O17 C10_2 1_555 1_555
O8_2 Nd1_2 1_555 1_555
O9_2 Nd1_2 1_555 1_555
O10_2 Nd1_2 1_555 1_555
O11_2 Nd5 1_555 1_555
Nd3_2 O2_2 1_555 1_555
Nd4_2 N4_2 1_555 1_555
Nd6_2 O17 1_555 1_555
N5_2 Nd5 1_555 1_555
O12_2 Nd1_2 1_555 1_555
O13_2 Nd1_2 1_555 1_555
O14_2 Nd5 1_555 1_555
O16_2 Nd5 1_555 1_555
O18_2 Nd5 1_555 1_555
C2_2 N2_2 1_555 1_555
C3_2 N1_2 1_555 1_555
C5_2 O4_2 1_555 1_555
C6_2 N3_2 1_555 1_555
C7_2 N3_2 1_555 1_555
C8_2 N4_2 1_555 1_555
C10_2 O8_2 1_555 1_555
O3_2 Nd3_2 1_555 1_555
O8_2 Nd6_2 1_555 1_555
O10_2 H3_2 1_555 1_555
O10_2 H4_2 1_555 1_555
O11_2 H5_2 1_555 1_555
O11_2 H6_2 1_555 1_555
O9_2 H7_2 1_555 1_555
O9_2 H8_2 1_555 1_555
C6_3 H2_3 1_555 1_555
C7_3 C8_3 1_555 1_555
C8_3 C9_3 1_555 1_555
C9_3 O5_3 1_555 1_555
C10_3 C7_3 1_555 1_555
N4_3 C6_3 1_555 1_555
O5_3 Nd4_3 1_555 1_555
O6_2 C9_3 1_555 1_555
O7_2 C10_3 1_555 1_555
Nd4_3 N4_3 1_555 1_555
C6_3 N3_3 1_555 1_555
C7_3 N3_3 1_555 1_555
C8_3 N4_3 1_555 1_555
Nd1_3 N2_3 1_555 1_555
Nd2_2 N1_3 1_555 1_555
C1_3 H1_3 1_555 1_555
C2_3 C3_3 1_555 1_555
C3_3 C4_3 1_555 1_555
C4_3 O1_3 1_555 1_555
C5_3 C2_3 1_555 1_555
N1_3 C1_3 1_555 1_555
N2_3 C1_3 1_555 1_555
O1_3 Nd2_2 1_555 1_555
O2_3 C4_3 1_555 1_555
O3_3 C5_3 1_555 1_555
O4_3 Nd1_3 1_555 1_555
O8_3 Nd1_3 1_555 1_555
O9_3 Nd1_3 1_555 1_555
O11_3 Nd2_2 1_555 1_555
Nd3_3 O2_3 1_555 1_555
O12_3 Nd1_3 1_555 1_555
O15_2 Nd2_2 1_555 1_555
O17_2 Nd2_2 1_555 1_555
O18_3 Nd2_2 1_555 1_555
C2_3 N2_3 1_555 1_555
C3_3 N1_3 1_555 1_555
C5_3 O4_3 1_555 1_555
O3_3 Nd3_3 1_555 1_555
O11_3 H5_3 1_555 1_555
O11_3 H6_3 1_555 1_555
O9_3 H7_3 1_555 1_555
O10_3 H4_3 1_555 1_555
Nd1_4 N2_4 1_555 1_555
Nd5_2 N1_4 1_555 1_555
C1_4 H1_4 1_555 1_555
C2_4 C3_4 1_555 1_555
C3_4 C4_4 1_555 1_555
C4_4 O1_4 1_555 1_555
C5_4 C2_4 1_555 1_555
N1_4 C1_4 1_555 1_555
N2_4 C1_4 1_555 1_555
O1_4 Nd5_2 1_555 1_555
O2_4 C4_4 1_555 1_555
O3_4 C5_4 1_555 1_555
O4_4 Nd1_4 1_555 1_555
O8_4 Nd1_4 1_555 1_555
O9_4 Nd1_4 1_555 1_555
O10_4 Nd1_4 1_555 1_555
Nd3_4 O2_4 1_555 1_555
O12_4 Nd1_4 1_555 1_555
C2_4 N2_4 1_555 1_555
C3_4 N1_4 1_555 1_555
C5_4 O4_4 1_555 1_555
O3_4 Nd3_4 1_555 1_555
O8_4 Nd6_4 1_555 1_555
O10_4 H4_4 1_555 1_555
O9_4 H7_4 1_555 1_555
O9_4 H8_4 1_555 1_555
C6_4 H2_4 1_555 1_555
C7_4 C8_4 1_555 1_555
C8_4 C9_4 1_555 1_555
C9_4 O5_4 1_555 1_555
C10_4 C7_4 1_555 1_555
N4_4 C6_4 1_555 1_555
O5_4 Nd4_4 1_555 1_555
O15_2 C9_4 1_555 1_555
O17_2 C10_4 1_555 1_555
Nd4_4 N4_4 1_555 1_555
C6_4 N3_4 1_555 1_555
C7_4 N3_4 1_555 1_555
C8_4 N4_4 1_555 1_555
O11_4 H5_4 1_555 1_555
O11_4 H6_4 1_555 1_555
Nd3_4 N2_5 1_555 1_555
C5_5 C2_5 1_555 1_555
C6_5 H2_5 1_555 1_555
C7_5 C8_5 1_555 1_555
C8_5 C9_5 1_555 1_555
C9_5 O14_3 1_555 1_555
C10_5 C7_5 1_555 1_555
N3_5 Nd3_4 1_555 1_555
N5_3 C6_5 1_555 1_555
O13_3 C5_5 1_555 1_555
O4_5 Nd3_4 1_555 1_555
O6_3 C9_5 1_555 1_555
O7_3 C10_5 1_555 1_555
O8_5 Nd3_4 1_555 1_555
O9_5 Nd3_4 1_555 1_555
O10_5 Nd3_4 1_555 1_555
Nd4_3 O6_3 1_555 1_555
Nd6_5 O7_3 1_555 1_555
C2_5 N2_5 1_555 1_555
C5_5 O4_5 1_555 1_555
C6_5 N3_5 1_555 1_555
C7_5 N3_5 1_555 1_555
C8_5 N5_3 1_555 1_555
C10_5 O8_5 1_555 1_555
O7_3 Nd4_3 1_555 1_555
O8_5 Nd6_5 1_555 1_555
O10_5 H3_4 1_555 1_555
O10_5 H4_5 1_555 1_555
O9_5 H7_5 1_555 1_555
O9_5 H8_5 1_555 1_555
Nd4_4 N1_5 1_555 1_555
C3_5 C4_5 1_555 1_555
C4_5 O1_5 1_555 1_555
N1_5 C1_5 1_555 1_555
O1_5 Nd4_4 1_555 1_555
O12_3 C4_5 1_555 1_555
O11_5 Nd4_4 1_555 1_555
O15_3 Nd4_4 1_555 1_555
O16_5 Nd4_4 1_555 1_555
O17_3 Nd4_4 1_555 1_555
O18_5 Nd4_4 1_555 1_555
C3_5 N1_5 1_555 1_555
O11_5 H5_5 1_555 1_555
O11_5 H6_5 1_555 1_555
Nd4_3 N1_6 1_555 1_555
C3_6 C4_6 1_555 1_555
C4_6 O1_6 1_555 1_555
N1_6 C1_6 1_555 1_555
O1_6 Nd4_3 1_555 1_555
O11_6 Nd4_3 1_555 1_555
O16_6 Nd4_3 1_555 1_555
O18_6 Nd4_3 1_555 1_555
C3_6 N1_6 1_555 1_555
O11_6 H5_6 1_555 1_555
O11_6 H6_6 1_555 1_555
Nd3_3 N2_6 1_555 1_555
C6_6 H2_6 1_555 1_555
O9_6 Nd3_3 1_555 1_555
O10_6 Nd3_3 1_555 1_555
C2_6 N2_6 1_555 1_555
O10_6 H3_5 1_555 1_555
O10_6 H4_6 1_555 1_555
O9_6 H7_6 1_555 1_555
O9_6 H8_6 1_555 1_555
C7_6 C8_6 1_555 1_555
C8_6 C9_6 1_555 1_555
C9_6 O14_4 1_555 1_555
C10_6 C7_6 1_555 1_555
O13_4 C5_6 1_555 1_555
O15_3 C9_6 1_555 1_555
O17_3 C10_6 1_555 1_555
Nd6_6 O17_3 1_555 1_555
C5_6 O4_6 1_555 1_555
C7_6 N3_6 1_555 1_555
C8_6 N5_4 1_555 1_555
C10_6 O8_6 1_555 1_555
O8_6 Nd6_6 1_555 1_555
O11_7 H5_7 1_555 1_555
O11_7 H6_7 1_555 1_555
Nd3 N2_7 1_555 1_555
Nd4 N1_7 1_555 1_555
C1_7 H1_7 1_555 1_555
C2_7 C3_7 1_555 1_555
C3_7 C4_7 1_555 1_555
C4_7 O1_7 1_555 1_555
C5_7 C2_7 1_555 1_555
C6_7 H2_7 1_555 1_555
C7_7 C8_7 1_555 1_555
C8_7 C9_7 1_555 1_555
C9_7 O14_2 1_555 1_555
C10_7 C7_7 1_555 1_555
N1_7 C1_7 1_555 1_555
N2_7 C1_7 1_555 1_555
N3_7 Nd3 1_555 1_555
N5_2 C6_7 1_555 1_555
O1_7 Nd4 1_555 1_555
O12_2 C4_7 1_555 1_555
O13_2 C5_7 1_555 1_555
O4_7 Nd3 1_555 1_555
O6_4 C9_7 1_555 1_555
O7_4 C10_7 1_555 1_555
O8_7 Nd3 1_555 1_555
O9_7 Nd3 1_555 1_555
O10_7 Nd3 1_555 1_555
Nd4_2 O6_4 1_555 1_555
Nd6_7 O7_4 1_555 1_555
C2_7 N2_7 1_555 1_555
C3_7 N1_7 1_555 1_555
C5_7 O4_7 1_555 1_555
C6_7 N3_7 1_555 1_555
C7_7 N3_7 1_555 1_555
C8_7 N5_2 1_555 1_555
C10_7 O8_7 1_555 1_555
O7_4 Nd4_2 1_555 1_555
O8_7 Nd6_7 1_555 1_555
O10_7 H3_6 1_555 1_555
O10_7 H4_7 1_555 1_555
O9_7 H7_7 1_555 1_555
O9_7 H8_7 1_555 1_555
O10_8 H3_7 1_555 1_555
O10_8 H4_8 1_555 1_555
Nd3_2 N2_8 1_555 1_555
Nd4_2 N1_8 1_555 1_555
C1_8 H1_8 1_555 1_555
C2_8 C3_8 1_555 1_555
C3_8 C4_8 1_555 1_555
C4_8 O1_8 1_555 1_555
C5_8 C2_8 1_555 1_555
C6_8 H2_8 1_555 1_555
C7_8 C8_8 1_555 1_555
C8_8 C9_8 1_555 1_555
C9_8 O14 1_555 1_555
C10_8 C7_8 1_555 1_555
N1_8 C1_8 1_555 1_555
N2_8 C1_8 1_555 1_555
N3_8 Nd3_2 1_555 1_555
N5 C6_8 1_555 1_555
O1_8 Nd4_2 1_555 1_555
O12 C4_8 1_555 1_555
O13 C5_8 1_555 1_555
O4_8 Nd3_2 1_555 1_555
O15_4 C9_8 1_555 1_555
O17_4 C10_8 1_555 1_555
O8_8 Nd3_2 1_555 1_555
O9_8 Nd3_2 1_555 1_555
O11_8 Nd4_2 1_555 1_555
O16_8 Nd4_2 1_555 1_555
O18_8 Nd4_2 1_555 1_555
C2_8 N2_8 1_555 1_555
C3_8 N1_8 1_555 1_555
C5_8 O4_8 1_555 1_555
C6_8 N3_8 1_555 1_555
C7_8 N3_8 1_555 1_555
C8_8 N5 1_555 1_555
C10_8 O8_8 1_555 1_555
O11_8 H5_8 1_555 1_555
O11_8 H6_8 1_555 1_555
O9_8 H7_8 1_555 1_555
C7_9 C8_9 1_555 1_555
C8_9 C9_9 1_555 1_555
C9_9 O5_5 1_555 1_555
C10_9 C7_9 1_555 1_555
O3_5 C5_9 1_555 1_555
O5_5 Nd6_8 1_555 1_555
O6_5 C9_9 1_555 1_555
O16_6 C10_9 1_555 1_555
Nd3_5 O2_5 1_555 1_555
Nd6_8 N4_5 1_555 1_555
Nd6_5 O6_5 1_555 1_555
C5_9 O4_9 1_555 1_555
C7_9 N3_9 1_555 1_555
C8_9 N4_5 1_555 1_555
C10_9 O18_6 1_555 1_555
O3_5 Nd3_5 1_555 1_555
O16_6 Nd6_5 1_555 1_555
Nd1_5 N2_9 1_555 1_555
Nd6_6 N1_9 1_555 1_555
C1_9 H1_9 1_555 1_555
C2_9 C3_9 1_555 1_555
C3_9 C4_9 1_555 1_555
C4_9 O1_9 1_555 1_555
C6_9 H2_9 1_555 1_555
N1_9 C1_9 1_555 1_555
N2_9 C1_9 1_555 1_555
O1_9 Nd6_6 1_555 1_555
O9_9 Nd1_5 1_555 1_555
O10_9 Nd1_5 1_555 1_555
O11_9 Nd6_6 1_555 1_555
N5_5 Nd6_6 1_555 1_555
O12_5 Nd1_5 1_555 1_555
O13_5 Nd1_5 1_555 1_555
O14_5 Nd6_6 1_555 1_555
O15_5 Nd6_6 1_555 1_555
O16_5 Nd6_6 1_555 1_555
C2_9 N2_9 1_555 1_555
C3_9 N1_9 1_555 1_555
O10_9 H3_8 1_555 1_555
O10_9 H4_9 1_555 1_555
O11_9 H5_9 1_555 1_555
O11_9 H6_9 1_555 1_555
O9_9 H7_9 1_555 1_555
O9_9 H8_9 1_555 1_555
Nd1_6 N2_10 1_555 1_555
Nd6_5 N1_10 1_555 1_555
C1_10 H1_10 1_555 1_555
C2_10 C3_10 1_555 1_555
C3_10 C4_10 1_555 1_555
C4_10 O1_10 1_555 1_555
C5_10 C2_10 1_555 1_555
C6_10 H2_10 1_555 1_555
C7_10 C8_10 1_555 1_555
C8_10 C9_10 1_555 1_555
C9_10 O5_6 1_555 1_555
C10_10 C7_10 1_555 1_555
N1_10 C1_10 1_555 1_555
N2_10 C1_10 1_555 1_555
N3_10 Nd1_6 1_555 1_555
N4_6 C6_10 1_555 1_555
O1_10 Nd6_5 1_555 1_555
O2_6 C4_10 1_555 1_555
O3_6 C5_10 1_555 1_555
O4_10 Nd1_6 1_555 1_555
O5_6 Nd6_7 1_555 1_555
O15_5 C9_10 1_555 1_555
O16_5 C10_10 1_555 1_555
O18_5 Nd1_6 1_555 1_555
O9_10 Nd1_6 1_555 1_555
O10_10 Nd1_6 1_555 1_555
O11_10 Nd6_5 1_555 1_555
Nd3_6 O2_6 1_555 1_555
Nd6_7 N4_6 1_555 1_555
N5_6 Nd6_5 1_555 1_555
O12_6 Nd1_6 1_555 1_555
O13_6 Nd1_6 1_555 1_555
O14_6 Nd6_5 1_555 1_555
C2_10 N2_10 1_555 1_555
C3_10 N1_10 1_555 1_555
C5_10 O4_10 1_555 1_555
C6_10 N3_10 1_555 1_555
C7_10 N3_10 1_555 1_555
C8_10 N4_6 1_555 1_555
C10_10 O18_5 1_555 1_555
O3_6 Nd3_6 1_555 1_555
O10_10 H3_9 1_555 1_555
O10_10 H4_10 1_555 1_555
O11_10 H5_10 1_555 1_555
O11_10 H6_10 1_555 1_555
O9_10 H7_10 1_555 1_555
O9_10 H8_10 1_555 1_555
O10_11 H4_11 1_555 1_555
Nd1_7 N2_11 1_555 1_555
Nd6_4 N1_11 1_555 1_555
C1_11 H1_11 1_555 1_555
C2_11 C3_11 1_555 1_555
C3_11 C4_11 1_555 1_555
C4_11 O1_11 1_555 1_555
C5_11 C2_11 1_555 1_555
N1_11 C1_11 1_555 1_555
N2_11 C1_11 1_555 1_555
O1_11 Nd6_4 1_555 1_555
O2_7 C4_11 1_555 1_555
O3_7 C5_11 1_555 1_555
O4_11 Nd1_7 1_555 1_555
O18_4 Nd1_7 1_555 1_555
O9_11 Nd1_7 1_555 1_555
O11_11 Nd6_4 1_555 1_555
Nd3_7 O2_7 1_555 1_555
O12_7 Nd1_7 1_555 1_555
O15_6 Nd6_4 1_555 1_555
O16_3 Nd6_4 1_555 1_555
C2_11 N2_11 1_555 1_555
C3_11 N1_11 1_555 1_555
C5_11 O4_11 1_555 1_555
O3_7 Nd3_7 1_555 1_555
O11_11 H5_11 1_555 1_555
O11_11 H6_11 1_555 1_555
O9_11 H7_11 1_555 1_555
C6_11 H2_11 1_555 1_555
C7_11 C8_11 1_555 1_555
C8_11 C9_11 1_555 1_555
C9_11 O5_7 1_555 1_555
C10_11 C7_11 1_555 1_555
N4_7 C6_11 1_555 1_555
O5_7 Nd6 1_555 1_555
O6_6 C9_11 1_555 1_555
O16_4 C10_11 1_555 1_555
Nd6 N4_7 1_555 1_555
C6_11 N3_11 1_555 1_555
C7_11 N3_11 1_555 1_555
C8_11 N4_7 1_555 1_555
O11_12 H5_12 1_555 1_555
O11_12 H6_12 1_555 1_555
C6_12 H2_12 1_555 1_555
C7_12 C8_12 1_555 1_555
C8_12 C9_12 1_555 1_555
C9_12 O5_8 1_555 1_555
C10_12 C7_12 1_555 1_555
N4_8 C6_12 1_555 1_555
O5_8 Nd6_2 1_555 1_555
O15_6 C9_12 1_555 1_555
O16_3 C10_12 1_555 1_555
Nd6_2 N4_8 1_555 1_555
C6_12 N3_12 1_555 1_555
C7_12 N3_12 1_555 1_555
C8_12 N4_8 1_555 1_555
Nd1_8 N2_12 1_555 1_555
Nd6_3 N1_12 1_555 1_555
C1_12 H1_12 1_555 1_555
C2_12 C3_12 1_555 1_555
C3_12 C4_12 1_555 1_555
C4_12 O1_12 1_555 1_555
C5_12 C2_12 1_555 1_555
N1_12 C1_12 1_555 1_555
N2_12 C1_12 1_555 1_555
O1_12 Nd6_3 1_555 1_555
O2_8 C4_12 1_555 1_555
O3_8 C5_12 1_555 1_555
O4_12 Nd1_8 1_555 1_555
O18_3 Nd1_8 1_555 1_555
O9_12 Nd1_8 1_555 1_555
O10_12 Nd1_8 1_555 1_555
Nd3_8 O2_8 1_555 1_555
O12_8 Nd1_8 1_555 1_555
C2_12 N2_12 1_555 1_555
C3_12 N1_12 1_555 1_555
C5_12 O4_12 1_555 1_555
O3_8 Nd3_8 1_555 1_555
O10_12 H4_12 1_555 1_555
O9_12 H7_12 1_555 1_555
O9_12 H8_12 1_555 1_555
Nd6_2 N1_13 1_555 1_555
C3_13 C4_13 1_555 1_555
C4_13 O1_13 1_555 1_555
N1_13 C1_13 1_555 1_555
O1_13 Nd6_2 1_555 1_555
O12_7 C4_13 1_555 1_555
O11_13 Nd6_2 1_555 1_555
O15_7 Nd6_2 1_555 1_555
O16 Nd6_2 1_555 1_555
C3_13 N1_13 1_555 1_555
O11_13 H5_13 1_555 1_555
O11_13 H6_13 1_555 1_555
Nd3_8 N2_13 1_555 1_555
C5_13 C2_13 1_555 1_555
C6_13 H2_13 1_555 1_555
C7_13 C8_13 1_555 1_555
C8_13 C9_13 1_555 1_555
C9_13 O14_7 1_555 1_555
C10_13 C7_13 1_555 1_555
N3_13 Nd3_8 1_555 1_555
N5_7 C6_13 1_555 1_555
O13_7 C5_13 1_555 1_555
O4_13 Nd3_8 1_555 1_555
O6_7 C9_13 1_555 1_555
O16_2 C10_13 1_555 1_555
O18_2 Nd3_8 1_555 1_555
O9_13 Nd3_8 1_555 1_555
O10_13 Nd3_8 1_555 1_555
Nd6 O6_7 1_555 1_555
C2_13 N2_13 1_555 1_555
C5_13 O4_13 1_555 1_555
C6_13 N3_13 1_555 1_555
C7_13 N3_13 1_555 1_555
C8_13 N5_7 1_555 1_555
C10_13 O18_2 1_555 1_555
O16_2 Nd6 1_555 1_555
O10_13 H3_11 1_555 1_555
O10_13 H4_13 1_555 1_555
O9_13 H7_13 1_555 1_555
O9_13 H8_13 1_555 1_555
C7_14 C8_14 1_555 1_555
C8_14 C9_14 1_555 1_555
C9_14 O14_8 1_555 1_555
C10_14 C7_14 1_555 1_555
O13_8 C5_14 1_555 1_555
O15_7 C9_14 1_555 1_555
O16 C10_14 1_555 1_555
C5_14 O4_14 1_555 1_555
C7_14 N3_14 1_555 1_555
C8_14 N5_8 1_555 1_555
C10_14 O18 1_555 1_555
Nd3_7 N2_14 1_555 1_555
C6_14 H2_14 1_555 1_555
O9_14 Nd3_7 1_555 1_555
O10_14 Nd3_7 1_555 1_555
C2_14 N2_14 1_555 1_555
O10_14 H3_12 1_555 1_555
O10_14 H4_14 1_555 1_555
O9_14 H7_14 1_555 1_555
O9_14 H8_14 1_555 1_555
Nd6 N1_14 1_555 1_555
C3_14 C4_14 1_555 1_555
C4_14 O1_14 1_555 1_555
N1_14 C1_14 1_555 1_555
O1_14 Nd6 1_555 1_555
O11_14 Nd6 1_555 1_555
C3_14 N1_14 1_555 1_555
O11_14 H5_14 1_555 1_555
O11_14 H6_14 1_555 1_555
Nd3_5 N2_15 1_555 1_555
Nd6_8 N1_15 1_555 1_555
C1_15 H1_15 1_555 1_555
C2_15 C3_15 1_555 1_555
C3_15 C4_15 1_555 1_555
C4_15 O1_15 1_555 1_555
C5_15 C2_15 1_555 1_555
C6_15 H2_15 1_555 1_555
C7_15 C8_15 1_555 1_555
C8_15 C9_15 1_555 1_555
C9_15 O14_6 1_555 1_555
C10_15 C7_15 1_555 1_555
N1_15 C1_15 1_555 1_555
N2_15 C1_15 1_555 1_555
N3_15 Nd3_5 1_555 1_555
N5_6 C6_15 1_555 1_555
O1_15 Nd6_8 1_555 1_555
O12_6 C4_15 1_555 1_555
O13_6 C5_15 1_555 1_555
O4_15 Nd3_5 1_555 1_555
O6_8 C9_15 1_555 1_555
O16_8 C10_15 1_555 1_555
O18_8 Nd3_5 1_555 1_555
O9_15 Nd3_5 1_555 1_555
O10_15 Nd3_5 1_555 1_555
Nd6_7 O6_8 1_555 1_555
C2_15 N2_15 1_555 1_555
C3_15 N1_15 1_555 1_555
C5_15 O4_15 1_555 1_555
C6_15 N3_15 1_555 1_555
C7_15 N3_15 1_555 1_555
C8_15 N5_6 1_555 1_555
C10_15 O18_8 1_555 1_555
O16_8 Nd6_7 1_555 1_555
O10_15 H3_13 1_555 1_555
O10_15 H4_15 1_555 1_555
O9_15 H7_15 1_555 1_555
O9_15 H8_15 1_555 1_555
O11_15 H5_15 1_555 1_555
O11_15 H6_15 1_555 1_555
Nd3_6 N2_16 1_555 1_555
Nd6_7 N1_16 1_555 1_555
C1_16 H1_16 1_555 1_555
C2_16 C3_16 1_555 1_555
C3_16 C4_16 1_555 1_555
C4_16 O1_16 1_555 1_555
C5_16 C2_16 1_555 1_555
C6_16 H2_16 1_555 1_555
C7_16 C8_16 1_555 1_555
C8_16 C9_16 1_555 1_555
C9_16 O14_5 1_555 1_555
C10_16 C7_16 1_555 1_555
N1_16 C1_16 1_555 1_555
N2_16 C1_16 1_555 1_555
N3_16 Nd3_6 1_555 1_555
N5_5 C6_16 1_555 1_555
O1_16 Nd6_7 1_555 1_555
O12_5 C4_16 1_555 1_555
O13_5 C5_16 1_555 1_555
O4_16 Nd3_6 1_555 1_555
O15_8 C9_16 1_555 1_555
O16_7 C10_16 1_555 1_555
O18_7 Nd3_6 1_555 1_555
O9_16 Nd3_6 1_555 1_555
O11_16 Nd6_7 1_555 1_555
C2_16 N2_16 1_555 1_555
C3_16 N1_16 1_555 1_555
C5_16 O4_16 1_555 1_555
C6_16 N3_16 1_555 1_555
C7_16 N3_16 1_555 1_555
C8_16 N5_5 1_555 1_555
C10_16 O18_7 1_555 1_555
O11_16 H5_16 1_555 1_555
O11_16 H6_16 1_555 1_555
O9_16 H7_16 1_555 1_555
O10_16 H3_14 1_555 1_555
O10_16 H4_16 1_555 1_555

#END
