
###############################################################################
#
# This file contains modified crystal structure data generated from the
# MOF subset of the Cambridge Structural Database (CSD) v543 
# hosted by the Cambridge Crystallographic Data Centre (CCDC).
#
# This work is licensed under the Creative Commons
# Attribution-NonCommercial-ShareAlike 4.0 International License.
# To view a copy of this license, visit
# http://creativecommons.org/licenses/by-nc-sa/4.0/
# or send a letter to
# Creative Commons, PO Box 1866, Mountain View, CA 94042, USA.
#
# CIF created using the CSD Python API on 29 September 2022
# The structure has been converted into the P1 space group
# The structure has a 3D framework
# The original CSD entry PEGQOJ is in the tetragonal crystal system
# The framework has been calculated to contain at least 10.0% void space
# The void calculation uses a probe of radius 1.32A, grid spacing 0.4
# H atom positions have been added when not included in the experimental data
#
###############################################################################

data_PEGQOJ
_chemical_formula_moiety         '(C160 H128 N64 O172 Tb32)n'
_symmetry_cell_setting           triclinic
_symmetry_space_group_name_H-M   'P 1'
_symmetry_Int_Tables_number      1
_space_group_name_Hall           'P 1'
loop_
_symmetry_equiv_pos_site_id
_symmetry_equiv_pos_as_xyz
1 x,y,z
_cell_length_a                   20.2103(18)
_cell_length_b                   20.2103(18)
_cell_length_c                   16.023(2)
_cell_angle_alpha                90
_cell_angle_beta                 90
_cell_angle_gamma                90
_cell_volume                     6544.69
loop_
_atom_site_label
_atom_site_type_symbol
_atom_site_fract_x
_atom_site_fract_y
_atom_site_fract_z
Tb1 Tb 0.79349(4) 0.32684(4) 0.09011(5)
Tb2 Tb 0.79420(4) 0.68111(4) 0.16926(5)
C1 C 0.7786(10) 0.5049(9) 0.1509(11)
H1 H 0.7466 0.5006 0.1924
C2 C 0.8479(8) 0.4804(8) 0.0548(13)
C3 C 0.8449(8) 0.5487(8) 0.0634(10)
C4 C 0.8791(8) 0.6046(8) 0.0251(10)
C6 C 0.6632(9) 0.4214(9) 0.0257(11)
H2 H 0.6592 0.4402 0.0784
N1 N 0.8016(7) 0.5644(7) 0.1265(8)
N2 N 0.8045(7) 0.4518(7) 0.1119(9)
N3 N 0.7055(7) 0.3740(7) 0.0092(10)
O1 O 0.8685(6) 0.6613(6) 0.0570(8)
O4 O 0.8827(6) 0.3746(6) 0.0176(9)
O9 O 0.8720(7) 0.2377(7) 0.0814(8)
O10 O 0.7211(8) 0.2332(6) 0.0853(9)
O11 O 0.8840(6) 0.7571(6) 0.1981(9)
N5 N 0.6909(7) 0.6237(7) 0.2112(8)
O12 O 0.8491(6) 0.3313(6) 0.2160(8)
O13 O 0.7083(6) 0.3366(7) 0.1878(8)
O14 O 0.7127(6) 0.6697(6) 0.0575(8)
O15 O 0.8687(6) 0.6248(6) 0.2550(8)
O16 O 0.7708(6) 0.7160(5) 0.3167(8)
O17 O 0.7292(6) 0.7840(5) 0.1833(8)
O18 O 0.7827(5) 0.7847(5) 0.0643(7)
H3 H 0.911931 0.761994 0.14749
H4 H 0.8656 0.800885 0.213977
H5 H 0.687452 0.239932 0.0409454
H6 H 0.747175 0.19273 0.0729199
H7 H 0.897661 0.2352 0.134155
H8 H 0.848117 0.195356 0.0724216
C5 C 0.8845(8) 0.4369(8) 0.9997(13)
C7 C 0.6964(7) 0.3606(8) 0.9237(12)
C8 C 0.6478(8) 0.4011(8) 0.8962(10)
C9 C 0.6182(8) 0.4144(10) 0.8136(11)
C10 C 0.7385(8) 0.3082(8) 0.8925(11)
N4 N 0.6263(7) 0.4409(7) 0.9612(8)
O2 O 0.9187(6) 0.5991(6) 0.9660(8)
O3 O 0.9134(7) 0.4583(6) 0.9378(8)
O5 O 0.5803(6) 0.4627(6) 0.8075(8)
O6 O 0.6313(6) 0.3752(6) 0.7550(8)
O7 O 0.7292(6) 0.2840(5) 0.8167(8)
O8 O 0.7827(5) 0.2847(5) 0.9357(7)
Tb3 Tb 0.92316(4) 0.54349(4) 0.84011(5)
Tb4 Tb 0.56889(4) 0.54420(4) 0.91926(5)
Tb5 Tb 0.70580(4) 0.31889(4) 0.66926(5)
Tb6 Tb 0.79420(4) 0.18111(4) 0.83074(5)
Tb1_2 Tb 0.70651(4) 0.67316(4) 0.59011(5)
C1_2 C 0.7214(10) 0.4951(9) 0.6509(11)
H1_2 H 0.7534 0.4994 0.6924
C2_2 C 0.6521(8) 0.5196(8) 0.5548(13)
C3_2 C 0.6551(8) 0.4513(8) 0.5634(10)
C4_2 C 0.6209(8) 0.3954(8) 0.5251(10)
C5_2 C 0.6155(8) 0.5631(8) 0.4997(13)
C6_2 C 0.8368(9) 0.5786(9) 0.5257(11)
H2_2 H 0.8408 0.5598 0.5784
C7_2 C 0.8036(7) 0.6394(8) 0.4237(12)
C8_2 C 0.8522(8) 0.5989(8) 0.3962(10)
C9_2 C 0.8818(8) 0.5856(10) 0.3136(11)
C10_2 C 0.7615(8) 0.6918(8) 0.3925(11)
N1_2 N 0.6984(7) 0.4356(7) 0.6265(8)
N2_2 N 0.6955(7) 0.5482(7) 0.6119(9)
N3_2 N 0.7945(7) 0.6260(7) 0.5092(10)
N4_2 N 0.8737(7) 0.5591(7) 0.4612(8)
O1_2 O 0.6315(6) 0.3387(6) 0.5570(8)
O2_2 O 0.5813(6) 0.4009(6) 0.4660(8)
O3_2 O 0.5866(7) 0.5417(6) 0.4378(8)
O4_2 O 0.6173(6) 0.6254(6) 0.5176(9)
O5_2 O 0.9197(6) 0.5373(6) 0.3075(8)
O8_2 O 0.7173(5) 0.7153(5) 0.4357(7)
O9_2 O 0.6280(7) 0.7623(7) 0.5814(8)
O10_2 O 0.7789(8) 0.7668(6) 0.5853(9)
O11_2 O 0.6160(6) 0.2429(6) 0.6981(9)
Tb3_2 Tb 0.57684(4) 0.45651(4) 0.34011(5)
Tb4_2 Tb 0.93111(4) 0.45580(4) 0.41926(5)
Tb6_2 Tb 0.70580(4) 0.81889(4) 0.33074(5)
N5_2 N 0.8091(7) 0.3763(7) 0.7112(8)
O12_2 O 0.6509(6) 0.6687(6) 0.7160(8)
O13_2 O 0.7917(6) 0.6634(7) 0.6878(8)
O14_2 O 0.7873(6) 0.3303(6) 0.5575(8)
O17_2 O 0.7708(6) 0.2160(5) 0.6833(8)
O18_2 O 0.7173(5) 0.2153(5) 0.5643(7)
H3_2 H 0.588069 0.238006 0.64749
H4_2 H 0.6344 0.199115 0.713977
H5_2 H 0.812548 0.760068 0.540945
H6_2 H 0.752825 0.80727 0.57292
H7_2 H 0.602339 0.7648 0.634155
H8_2 H 0.651883 0.804644 0.572422
Tb1_3 Tb 0.42316(4) 0.04349(4) 0.34011(5)
Tb2_2 Tb 0.06889(4) 0.04420(4) 0.41926(5)
C1_3 C 0.2451(9) 0.0286(10) 0.4009(11)
C2_3 C 0.2696(8) 0.0979(8) 0.3048(13)
C3_3 C 0.2013(8) 0.0949(8) 0.3134(10)
C4_3 C 0.1454(8) 0.1291(8) 0.2751(10)
C5_3 C 0.3131(8) 0.1345(8) 0.2497(13)
N1_3 N 0.1856(7) 0.0516(7) 0.3765(8)
N2_3 N 0.2982(7) 0.0545(7) 0.3619(9)
O1_3 O 0.0887(6) 0.1185(6) 0.3070(8)
O2_3 O 0.1509(6) 0.1687(6) 0.2160(8)
O3_3 O 0.2917(6) 0.1634(7) 0.1878(8)
O4_3 O 0.3754(6) 0.1327(6) 0.2676(9)
O8_3 O 0.4653(5) 0.0327(5) 0.1857(7)
O9_3 O 0.5123(7) 0.1220(7) 0.3314(8)
Tb3_3 Tb 0.20651(4) 0.17316(4) 0.09011(5)
Tb6_3 Tb 0.56889(4) 0.04420(4) 0.08074(5)
O12_3 O 0.4187(6) 0.0991(6) 0.4660(8)
O15_2 O 0.1252(6) 0.1187(6) 0.5050(8)
O16_2 O 0.0340(5) 0.0208(6) 0.5667(8)
H7_3 H 0.5148 0.147661 0.384155
H8_3 H 0.554644 0.0981175 0.322422
H1_3 H 0.2494 0.9966 0.4424
C6_3 C 0.3286(9) 0.9132(9) 0.2757(11)
H2_3 H 0.3098 0.9092 0.3284
C7_3 C 0.3894(8) 0.9464(7) 0.1737(12)
C8_3 C 0.3489(8) 0.8978(8) 0.1462(10)
C9_3 C 0.3356(10) 0.8682(8) 0.0636(11)
C10_3 C 0.4418(8) 0.9885(8) 0.1425(11)
N3_3 N 0.3760(7) 0.9555(7) 0.2592(10)
N4_3 N 0.3091(7) 0.8763(7) 0.2112(8)
O5_3 O 0.2873(6) 0.8303(6) 0.0575(8)
O6_2 O 0.3748(6) 0.8813(6) 0.0050(8)
O7_2 O 0.4660(5) 0.9792(6) 0.0667(8)
O10_3 O 0.5168(6) 0.9711(8) 0.3353(9)
Tb4_3 Tb 0.20580(4) 0.81889(4) 0.16926(5)
N5_3 N 0.1263(7) 0.9409(7) 0.4612(8)
O13_3 O 0.4134(7) 0.9583(6) 0.4378(8)
O14_3 O 0.0803(6) 0.9627(6) 0.3075(8)
H5_3 H 0.510068 0.937452 0.290945
H6_3 H 0.55727 0.997175 0.32292
Tb5_2 Tb 0.43111(4) 0.95580(4) 0.91926(5)
O11_3 O 0.9929(6) 0.1340(6) 0.4481(9)
O18_3 O 0.9653(5) 0.0327(5) 0.3143(7)
H3_3 H 0.988006 0.161931 0.39749
H4_3 H 0.949115 0.1156 0.463977
O17_3 O 0.9660(5) 0.9792(6) 0.4333(8)
H1_4 H 0.2506 0.0034 0.9424
C6_4 C 0.1714(9) 0.0868(9) 0.7757(11)
H2_4 H 0.1902 0.0908 0.8284
C7_4 C 0.1106(8) 0.0536(7) 0.6737(12)
C8_4 C 0.1511(8) 0.1022(8) 0.6462(10)
C9_4 C 0.1644(10) 0.1318(8) 0.5636(11)
C10_4 C 0.0582(8) 0.0115(8) 0.6425(11)
N3_4 N 0.1240(7) 0.0445(7) 0.7592(10)
N4_4 N 0.1909(7) 0.1237(7) 0.7112(8)
O5_4 O 0.2127(6) 0.1697(6) 0.5575(8)
Tb4_4 Tb 0.29420(4) 0.18111(4) 0.66926(5)
N5_4 N 0.3737(7) 0.0591(7) 0.9612(8)
O13_4 O 0.0866(7) 0.0417(6) 0.9378(8)
O14_4 O 0.4197(6) 0.0373(6) 0.8075(8)
O17_4 O 0.5340(5) 0.0208(6) 0.9333(8)
Tb1_4 Tb 0.07684(4) 0.95651(4) 0.84011(5)
C1_4 C 0.2549(9) 0.9714(10) 0.9009(11)
C2_4 C 0.2304(8) 0.9021(8) 0.8048(13)
C3_4 C 0.2987(8) 0.9051(8) 0.8134(10)
C4_4 C 0.3546(8) 0.8709(8) 0.7751(10)
C5_4 C 0.1869(8) 0.8655(8) 0.7497(13)
N1_4 N 0.3144(7) 0.9484(7) 0.8765(8)
N2_4 N 0.2018(7) 0.9455(7) 0.8619(9)
O1_4 O 0.4113(6) 0.8815(6) 0.8070(8)
O2_4 O 0.3491(6) 0.8313(6) 0.7160(8)
O3_4 O 0.2083(6) 0.8366(7) 0.6878(8)
O4_4 O 0.1246(6) 0.8673(6) 0.7676(9)
O8_4 O 0.0347(5) 0.9673(5) 0.6857(7)
O11_4 O 0.5071(6) 0.8660(6) 0.9481(9)
Tb3_4 Tb 0.29349(4) 0.82684(4) 0.59011(5)
O12_4 O 0.0813(6) 0.9009(6) 0.9660(8)
O18_4 O 0.5347(5) 0.9673(5) 0.8143(7)
H3_4 H 0.511994 0.838069 0.89749
H4_4 H 0.550885 0.8844 0.963977
O9_4 O 0.9877(7) 0.8780(7) 0.8314(8)
Tb6_4 Tb 0.93111(4) 0.95580(4) 0.58074(5)
H7_4 H 0.9852 0.852339 0.884155
H8_4 H 0.945356 0.901883 0.822422
C1_5 C 0.2786(10) 0.0049(9) 0.6509(11)
H1_5 H 0.2466 0.0006 0.6924
C3_5 C 0.3449(8) 0.0487(8) 0.5634(10)
C4_5 C 0.3791(8) 0.1046(8) 0.5251(10)
N1_5 N 0.3016(7) 0.0644(7) 0.6265(8)
O1_5 O 0.3685(6) 0.1613(6) 0.5570(8)
O11_5 O 0.3840(6) 0.2571(6) 0.6981(9)
O15_3 O 0.3687(6) 0.1248(6) 0.7550(8)
O16_3 O 0.2708(6) 0.2160(5) 0.8167(8)
O17_5 O 0.2292(6) 0.2840(5) 0.6833(8)
O18_5 O 0.2827(5) 0.2847(5) 0.5643(7)
H3_5 H 0.411931 0.261994 0.64749
H4_5 H 0.3656 0.300885 0.713977
C2_5 C 0.3479(8) 0.9804(8) 0.5548(13)
C5_5 C 0.3845(8) 0.9369(8) 0.4997(13)
C6_5 C 0.1632(9) 0.9214(9) 0.5257(11)
H2_5 H 0.1592 0.9402 0.5784
C7_5 C 0.1964(7) 0.8606(8) 0.4237(12)
C8_5 C 0.1478(8) 0.9011(8) 0.3962(10)
C9_5 C 0.1182(8) 0.9144(10) 0.3136(11)
C10_5 C 0.2385(8) 0.8082(8) 0.3925(11)
N2_5 N 0.3045(7) 0.9518(7) 0.6119(9)
N3_5 N 0.2055(7) 0.8740(7) 0.5092(10)
O4_5 O 0.3827(6) 0.8746(6) 0.5176(9)
O6_3 O 0.1313(6) 0.8752(6) 0.2550(8)
O7_3 O 0.2292(6) 0.7840(5) 0.3167(8)
O8_5 O 0.2827(5) 0.7847(5) 0.4357(7)
O9_5 O 0.3720(7) 0.7377(7) 0.5814(8)
O10_4 O 0.2211(8) 0.7332(6) 0.5853(9)
Tb6_5 Tb 0.29420(4) 0.68111(4) 0.33074(5)
H5_4 H 0.187452 0.739932 0.540945
H6_4 H 0.247175 0.69273 0.57292
H7_5 H 0.397661 0.7352 0.634155
H8_5 H 0.348117 0.695356 0.572422
C2_6 C 0.1521(8) 0.0196(8) 0.0548(13)
C6_6 C 0.3368(9) 0.0786(9) 0.0257(11)
H2_6 H 0.3408 0.0598 0.0784
N2_6 N 0.1955(7) 0.0482(7) 0.1119(9)
N3_6 N 0.2945(7) 0.1260(7) 0.0092(10)
O4_6 O 0.1173(6) 0.1254(6) 0.0176(9)
O9_6 O 0.1280(7) 0.2623(7) 0.0814(8)
O10_5 O 0.2789(8) 0.2668(6) 0.0853(9)
H5_5 H 0.312548 0.260068 0.0409454
H6_5 H 0.252825 0.30727 0.0729199
H7_6 H 0.102339 0.2648 0.134155
H8_6 H 0.151883 0.304644 0.0724216
C5_6 C 0.1155(8) 0.0631(8) 0.9997(13)
C7_6 C 0.3036(7) 0.1394(8) 0.9237(12)
C8_6 C 0.3522(8) 0.0989(8) 0.8962(10)
C9_6 C 0.3818(8) 0.0856(10) 0.8136(11)
C10_6 C 0.2615(8) 0.1918(8) 0.8925(11)
O8_6 O 0.2173(5) 0.2153(5) 0.9357(7)
Tb6_6 Tb 0.20580(4) 0.31889(4) 0.83074(5)
C1_6 C 0.2214(10) 0.9951(9) 0.1509(11)
H1_6 H 0.2534 0.9994 0.1924
C3_6 C 0.1551(8) 0.9513(8) 0.0634(10)
C4_6 C 0.1209(8) 0.8954(8) 0.0251(10)
N1_6 N 0.1984(7) 0.9356(7) 0.1265(8)
O1_6 O 0.1315(6) 0.8387(6) 0.0570(8)
O11_6 O 0.1160(6) 0.7429(6) 0.1981(9)
O17_6 O 0.2708(6) 0.7160(5) 0.1833(8)
O18_6 O 0.2173(5) 0.7153(5) 0.0643(7)
H3_6 H 0.0880689 0.738006 0.14749
H4_6 H 0.1344 0.699115 0.213977
O9_7 O 0.0123(7) 0.6220(7) 0.8314(8)
O10_6 O 0.0168(6) 0.4711(8) 0.8353(9)
Tb6_7 Tb 0.06889(4) 0.54420(4) 0.58074(5)
H5_6 H 0.0100676 0.437452 0.790945
H6_6 H 0.0572701 0.497175 0.82292
H7_7 H 0.0148003 0.647661 0.884155
H8_7 H 0.0546443 0.598117 0.822422
O15_4 O 0.6252(6) 0.6187(6) 0.0050(8)
O16_4 O 0.5340(5) 0.5208(6) 0.0667(8)
C1_7 C 0.7451(9) 0.5286(10) 0.9009(11)
H1_7 H 0.7494 0.4966 0.9424
C2_7 C 0.7696(8) 0.5979(8) 0.8048(13)
C3_7 C 0.7013(8) 0.5949(8) 0.8134(10)
C4_7 C 0.6454(8) 0.6291(8) 0.7751(10)
C5_7 C 0.8131(8) 0.6345(8) 0.7497(13)
C6_7 C 0.8286(9) 0.4132(9) 0.7757(11)
H2_7 H 0.8098 0.4092 0.8284
C7_7 C 0.8894(8) 0.4464(7) 0.6737(12)
C8_7 C 0.8489(8) 0.3978(8) 0.6462(10)
C9_7 C 0.8356(10) 0.3682(8) 0.5636(11)
C10_7 C 0.9418(8) 0.4885(8) 0.6425(11)
N1_7 N 0.6856(7) 0.5516(7) 0.8765(8)
N2_7 N 0.7982(7) 0.5545(7) 0.8619(9)
N3_7 N 0.8760(7) 0.4555(7) 0.7592(10)
O1_7 O 0.5887(6) 0.6185(6) 0.8070(8)
O4_7 O 0.8754(6) 0.6327(6) 0.7676(9)
O6_4 O 0.8748(6) 0.3813(6) 0.5050(8)
O7_4 O 0.9660(5) 0.4792(6) 0.5667(8)
O8_7 O 0.9653(5) 0.5327(5) 0.6857(7)
O11_7 O 0.4929(6) 0.6340(6) 0.9481(9)
O17_7 O 0.4660(5) 0.4792(6) 0.9333(8)
O18_7 O 0.4653(5) 0.5327(5) 0.8143(7)
H3_7 H 0.488006 0.661931 0.89749
H4_7 H 0.449115 0.6156 0.963977
O11_8 O 0.0071(6) 0.3660(6) 0.4481(9)
O17_8 O 0.0340(5) 0.5208(6) 0.4333(8)
O18_8 O 0.0347(5) 0.4673(5) 0.3143(7)
H3_8 H 0.0119943 0.338069 0.39749
H4_8 H 0.0508846 0.3844 0.463977
C1_8 C 0.7549(9) 0.4714(10) 0.4009(11)
H1_8 H 0.7506 0.5034 0.4424
C2_8 C 0.7304(8) 0.4021(8) 0.3048(13)
C3_8 C 0.7987(8) 0.4051(8) 0.3134(10)
C4_8 C 0.8546(8) 0.3709(8) 0.2751(10)
C5_8 C 0.6869(8) 0.3655(8) 0.2497(13)
C6_8 C 0.6714(9) 0.5868(9) 0.2757(11)
H2_8 H 0.6902 0.5908 0.3284
C7_8 C 0.6106(8) 0.5536(7) 0.1737(12)
C8_8 C 0.6511(8) 0.6022(8) 0.1462(10)
C9_8 C 0.6644(10) 0.6318(8) 0.0636(11)
C10_8 C 0.5582(8) 0.5115(8) 0.1425(11)
N1_8 N 0.8144(7) 0.4484(7) 0.3765(8)
N2_8 N 0.7018(7) 0.4455(7) 0.3619(9)
N3_8 N 0.6240(7) 0.5445(7) 0.2592(10)
O1_8 O 0.9113(6) 0.3815(6) 0.3070(8)
O4_8 O 0.6246(6) 0.3673(6) 0.2676(9)
O8_8 O 0.5347(5) 0.4673(5) 0.1857(7)
O9_8 O 0.4877(7) 0.3780(7) 0.3314(8)
O10_7 O 0.4832(6) 0.5289(8) 0.3353(9)
Tb6_8 Tb 0.43111(4) 0.45580(4) 0.08074(5)
H5_7 H 0.489932 0.562548 0.290945
H6_7 H 0.44273 0.502825 0.32292
H7_8 H 0.4852 0.352339 0.384155
H8_8 H 0.445356 0.401883 0.322422
C5_9 C 0.1155(8) 0.5631(8) 0.0003(13)
C7_9 C 0.3036(7) 0.6394(8) 0.0763(12)
C8_9 C 0.3522(8) 0.5989(8) 0.1038(10)
C9_9 C 0.3818(8) 0.5856(10) 0.1864(11)
C10_9 C 0.2615(8) 0.6918(8) 0.1075(11)
N4_5 N 0.3737(7) 0.5591(7) 0.0388(8)
O2_5 O 0.0813(6) 0.4009(6) 0.0340(8)
O3_5 O 0.0866(7) 0.5417(6) 0.0622(8)
O5_5 O 0.4197(6) 0.5373(6) 0.1925(8)
O6_5 O 0.3687(6) 0.6248(6) 0.2450(8)
Tb3_5 Tb 0.07684(4) 0.45651(4) 0.15989(5)
Tb1_5 Tb 0.20651(4) 0.67316(4) 0.90989(5)
C1_9 C 0.2214(10) 0.4951(9) 0.8491(11)
H1_9 H 0.2534 0.4994 0.8076
C2_9 C 0.1521(8) 0.5196(8) 0.9452(13)
C3_9 C 0.1551(8) 0.4513(8) 0.9366(10)
C4_9 C 0.1209(8) 0.3954(8) 0.9749(10)
C6_9 C 0.3368(9) 0.5786(9) 0.9743(11)
H2_9 H 0.3408 0.5598 0.9216
N1_9 N 0.1984(7) 0.4356(7) 0.8735(8)
N2_9 N 0.1955(7) 0.5482(7) 0.8881(9)
N3_9 N 0.2945(7) 0.6260(7) 0.9908(10)
O1_9 O 0.1315(6) 0.3387(6) 0.9430(8)
O4_9 O 0.1173(6) 0.6254(6) 0.9824(9)
O9_9 O 0.1280(7) 0.7623(7) 0.9186(8)
O10_8 O 0.2789(8) 0.7668(6) 0.9147(9)
O11_9 O 0.1160(6) 0.2429(6) 0.8019(9)
N5_5 N 0.3091(7) 0.3763(7) 0.7888(8)
O12_5 O 0.1509(6) 0.6687(6) 0.7840(8)
O13_5 O 0.2917(6) 0.6634(7) 0.8122(8)
O14_5 O 0.2873(6) 0.3303(6) 0.9425(8)
O15_5 O 0.1313(6) 0.3752(6) 0.7450(8)
H3_9 H 0.0880689 0.238006 0.85251
H4_9 H 0.1344 0.199115 0.786023
H5_8 H 0.312548 0.760068 0.959055
H6_8 H 0.252825 0.80727 0.92708
H7_9 H 0.102339 0.7648 0.865845
H8_9 H 0.151883 0.804644 0.927578
Tb1_6 Tb 0.29349(4) 0.32684(4) 0.40989(5)
C1_10 C 0.2786(10) 0.5049(9) 0.3491(11)
H1_10 H 0.2466 0.5006 0.3076
C2_10 C 0.3479(8) 0.4804(8) 0.4452(13)
C3_10 C 0.3449(8) 0.5487(8) 0.4366(10)
C4_10 C 0.3791(8) 0.6046(8) 0.4749(10)
C5_10 C 0.3845(8) 0.4369(8) 0.5003(13)
C6_10 C 0.1632(9) 0.4214(9) 0.4743(11)
H2_10 H 0.1592 0.4402 0.4216
C7_10 C 0.1964(7) 0.3606(8) 0.5763(12)
C8_10 C 0.1478(8) 0.4011(8) 0.6038(10)
C9_10 C 0.1182(8) 0.4144(10) 0.6864(11)
C10_10 C 0.2385(8) 0.3082(8) 0.6075(11)
N1_10 N 0.3016(7) 0.5644(7) 0.3735(8)
N2_10 N 0.3045(7) 0.4518(7) 0.3881(9)
N3_10 N 0.2055(7) 0.3740(7) 0.4908(10)
N4_6 N 0.1263(7) 0.4409(7) 0.5388(8)
O1_10 O 0.3685(6) 0.6613(6) 0.4430(8)
O2_6 O 0.4187(6) 0.5991(6) 0.5340(8)
O3_6 O 0.4134(7) 0.4583(6) 0.5622(8)
O4_10 O 0.3827(6) 0.3746(6) 0.4824(9)
O5_6 O 0.0803(6) 0.4627(6) 0.6925(8)
O9_10 O 0.3720(7) 0.2377(7) 0.4186(8)
O10_9 O 0.2211(8) 0.2332(6) 0.4147(9)
O11_10 O 0.3840(6) 0.7571(6) 0.3019(9)
Tb3_6 Tb 0.42316(4) 0.54349(4) 0.65989(5)
N5_6 N 0.1909(7) 0.6237(7) 0.2888(8)
O12_6 O 0.3491(6) 0.3313(6) 0.2840(8)
O13_6 O 0.2083(6) 0.3366(7) 0.3122(8)
O14_6 O 0.2127(6) 0.6697(6) 0.4425(8)
H3_10 H 0.411931 0.761994 0.35251
H4_10 H 0.3656 0.800885 0.286023
H5_9 H 0.187452 0.239932 0.459055
H6_9 H 0.247175 0.19273 0.42708
H7_10 H 0.397661 0.2352 0.365845
H8_10 H 0.348117 0.195356 0.427578
O11_11 O 0.0071(6) 0.8660(6) 0.5519(9)
H3_11 H 0.0119943 0.838069 0.60251
H4_11 H 0.0508846 0.8844 0.536023
H1_11 H 0.7506 0.0034 0.5576
C6_11 C 0.6714(9) 0.0868(9) 0.7243(11)
H2_11 H 0.6902 0.0908 0.6716
C7_11 C 0.6106(8) 0.0536(7) 0.8263(12)
C8_11 C 0.6511(8) 0.1022(8) 0.8538(10)
C9_11 C 0.6644(10) 0.1318(8) 0.9364(11)
C10_11 C 0.5582(8) 0.0115(8) 0.8575(11)
N3_11 N 0.6240(7) 0.0445(7) 0.7408(10)
N4_7 N 0.6909(7) 0.1237(7) 0.7888(8)
O5_7 O 0.7127(6) 0.1697(6) 0.9425(8)
O6_6 O 0.6252(6) 0.1187(6) 0.9950(8)
O10_10 O 0.4832(6) 0.0289(8) 0.6647(9)
N5_7 N 0.8737(7) 0.0591(7) 0.5388(8)
O13_7 O 0.5866(7) 0.0417(6) 0.5622(8)
O14_7 O 0.9197(6) 0.0373(6) 0.6925(8)
H5_10 H 0.489932 0.062548 0.709055
H6_10 H 0.44273 0.00282469 0.67708
Tb1_7 Tb 0.57684(4) 0.95651(4) 0.65989(5)
C1_11 C 0.7549(9) 0.9714(10) 0.5991(11)
C2_11 C 0.7304(8) 0.9021(8) 0.6952(13)
C3_11 C 0.7987(8) 0.9051(8) 0.6866(10)
C4_11 C 0.8546(8) 0.8709(8) 0.7249(10)
C5_11 C 0.6869(8) 0.8655(8) 0.7503(13)
N1_11 N 0.8144(7) 0.9484(7) 0.6235(8)
N2_11 N 0.7018(7) 0.9455(7) 0.6381(9)
O1_11 O 0.9113(6) 0.8815(6) 0.6930(8)
O2_7 O 0.8491(6) 0.8313(6) 0.7840(8)
O3_7 O 0.7083(6) 0.8366(7) 0.8122(8)
O4_11 O 0.6246(6) 0.8673(6) 0.7324(9)
O9_11 O 0.4877(7) 0.8780(7) 0.6686(8)
Tb3_7 Tb 0.79349(4) 0.82684(4) 0.90989(5)
O12_7 O 0.5813(6) 0.9009(6) 0.5340(8)
O15_6 O 0.8748(6) 0.8813(6) 0.4950(8)
H7_11 H 0.4852 0.852339 0.615845
H8_11 H 0.445356 0.901883 0.677578
O9_12 O 0.0123(7) 0.1220(7) 0.1686(8)
H7_12 H 0.0148003 0.147661 0.115845
H8_12 H 0.0546443 0.0981175 0.177578
Tb1_8 Tb 0.92316(4) 0.04349(4) 0.15989(5)
C1_12 C 0.7451(9) 0.0286(10) 0.0991(11)
C2_12 C 0.7696(8) 0.0979(8) 0.1952(13)
C3_12 C 0.7013(8) 0.0949(8) 0.1866(10)
C4_12 C 0.6454(8) 0.1291(8) 0.2249(10)
C5_12 C 0.8131(8) 0.1345(8) 0.2503(13)
N1_12 N 0.6856(7) 0.0516(7) 0.1235(8)
N2_12 N 0.7982(7) 0.0545(7) 0.1381(9)
O1_12 O 0.5887(6) 0.1185(6) 0.1930(8)
O2_8 O 0.6509(6) 0.1687(6) 0.2840(8)
O3_8 O 0.7917(6) 0.1634(7) 0.3122(8)
O4_12 O 0.8754(6) 0.1327(6) 0.2324(9)
O11_12 O 0.4929(6) 0.1340(6) 0.0519(9)
Tb3_8 Tb 0.70651(4) 0.17316(4) 0.40989(5)
O12_8 O 0.9187(6) 0.0991(6) 0.0340(8)
H3_12 H 0.488006 0.161931 0.10251
H4_12 H 0.449115 0.1156 0.0360232
H1_12 H 0.7494 0.9966 0.0576
C6_12 C 0.8286(9) 0.9132(9) 0.2243(11)
H2_12 H 0.8098 0.9092 0.1716
C7_12 C 0.8894(8) 0.9464(7) 0.3263(12)
C8_12 C 0.8489(8) 0.8978(8) 0.3538(10)
C9_12 C 0.8356(10) 0.8682(8) 0.4364(11)
C10_12 C 0.9418(8) 0.9885(8) 0.3575(11)
N3_12 N 0.8760(7) 0.9555(7) 0.2408(10)
N4_8 N 0.8091(7) 0.8763(7) 0.2888(8)
O5_8 O 0.7873(6) 0.8303(6) 0.4425(8)
N5_8 N 0.6263(7) 0.9409(7) 0.0388(8)
O13_8 O 0.9134(7) 0.9583(6) 0.0622(8)
O14_8 O 0.5803(6) 0.9627(6) 0.1925(8)
C2_13 C 0.6521(8) 0.0196(8) 0.4452(13)
C5_13 C 0.6155(8) 0.0631(8) 0.5003(13)
C6_13 C 0.8368(9) 0.0786(9) 0.4743(11)
H2_13 H 0.8408 0.0598 0.4216
C7_13 C 0.8036(7) 0.1394(8) 0.5763(12)
C8_13 C 0.8522(8) 0.0989(8) 0.6038(10)
C9_13 C 0.8818(8) 0.0856(10) 0.6864(11)
C10_13 C 0.7615(8) 0.1918(8) 0.6075(11)
N2_13 N 0.6955(7) 0.0482(7) 0.3881(9)
N3_13 N 0.7945(7) 0.1260(7) 0.4908(10)
O4_13 O 0.6173(6) 0.1254(6) 0.4824(9)
O6_7 O 0.8687(6) 0.1248(6) 0.7450(8)
O9_13 O 0.6280(7) 0.2623(7) 0.4186(8)
O10_11 O 0.7789(8) 0.2668(6) 0.4147(9)
H5_11 H 0.812548 0.260068 0.459055
H6_11 H 0.752825 0.30727 0.42708
H7_13 H 0.602339 0.2648 0.365845
H8_13 H 0.651883 0.304644 0.427578
C1_13 C 0.7214(10) 0.9951(9) 0.3491(11)
H1_13 H 0.7534 0.9994 0.3076
C3_13 C 0.6551(8) 0.9513(8) 0.4366(10)
C4_13 C 0.6209(8) 0.8954(8) 0.4749(10)
N1_13 N 0.6984(7) 0.9356(7) 0.3735(8)
O1_13 O 0.6315(6) 0.8387(6) 0.4430(8)
O11_13 O 0.6160(6) 0.7429(6) 0.3019(9)
O15_7 O 0.6313(6) 0.8752(6) 0.2450(8)
H3_13 H 0.588069 0.738006 0.35251
H4_13 H 0.6344 0.699115 0.286023
C1_14 C 0.7786(10) 0.0049(9) 0.8491(11)
H1_14 H 0.7466 0.0006 0.8076
C3_14 C 0.8449(8) 0.0487(8) 0.9366(10)
C4_14 C 0.8791(8) 0.1046(8) 0.9749(10)
N1_14 N 0.8016(7) 0.0644(7) 0.8735(8)
O1_14 O 0.8685(6) 0.1613(6) 0.9430(8)
O11_14 O 0.8840(6) 0.2571(6) 0.8019(9)
H3_14 H 0.911931 0.261994 0.85251
H4_14 H 0.8656 0.300885 0.786023
C5_14 C 0.8845(8) 0.9369(8) 0.0003(13)
C7_14 C 0.6964(7) 0.8606(8) 0.0763(12)
C8_14 C 0.6478(8) 0.9011(8) 0.1038(10)
C9_14 C 0.6182(8) 0.9144(10) 0.1864(11)
C10_14 C 0.7385(8) 0.8082(8) 0.1075(11)
C2_14 C 0.8479(8) 0.9804(8) 0.9452(13)
C6_14 C 0.6632(9) 0.9214(9) 0.9743(11)
H2_14 H 0.6592 0.9402 0.9216
N2_14 N 0.8045(7) 0.9518(7) 0.8881(9)
N3_14 N 0.7055(7) 0.8740(7) 0.9908(10)
O4_14 O 0.8827(6) 0.8746(6) 0.9824(9)
O9_14 O 0.8720(7) 0.7377(7) 0.9186(8)
O10_12 O 0.7211(8) 0.7332(6) 0.9147(9)
H5_12 H 0.687452 0.739932 0.959055
H6_12 H 0.747175 0.69273 0.92708
H7_14 H 0.897661 0.7352 0.865845
H8_14 H 0.848117 0.695356 0.927578
C1_15 C 0.2549(9) 0.4714(10) 0.0991(11)
H1_15 H 0.2506 0.5034 0.0576
C2_15 C 0.2304(8) 0.4021(8) 0.1952(13)
C3_15 C 0.2987(8) 0.4051(8) 0.1866(10)
C4_15 C 0.3546(8) 0.3709(8) 0.2249(10)
C5_15 C 0.1869(8) 0.3655(8) 0.2503(13)
C6_15 C 0.1714(9) 0.5868(9) 0.2243(11)
H2_15 H 0.1902 0.5908 0.1716
C7_15 C 0.1106(8) 0.5536(7) 0.3263(12)
C8_15 C 0.1511(8) 0.6022(8) 0.3538(10)
C9_15 C 0.1644(10) 0.6318(8) 0.4364(11)
C10_15 C 0.0582(8) 0.5115(8) 0.3575(11)
N1_15 N 0.3144(7) 0.4484(7) 0.1235(8)
N2_15 N 0.2018(7) 0.4455(7) 0.1381(9)
N3_15 N 0.1240(7) 0.5445(7) 0.2408(10)
O1_15 O 0.4113(6) 0.3815(6) 0.1930(8)
O4_15 O 0.1246(6) 0.3673(6) 0.2324(9)
O6_8 O 0.1252(6) 0.6187(6) 0.4950(8)
O11_15 O 0.5071(6) 0.3660(6) 0.0519(9)
H3_15 H 0.511994 0.338069 0.10251
H4_15 H 0.550885 0.3844 0.0360232
O15_8 O 0.3748(6) 0.3813(6) 0.9950(8)
O9_15 O 0.9877(7) 0.3780(7) 0.1686(8)
O10_13 O 0.9832(6) 0.5289(8) 0.1647(9)
H5_13 H 0.989932 0.562548 0.209055
H6_13 H 0.94273 0.502825 0.17708
H7_15 H 0.9852 0.352339 0.115845
H8_15 H 0.945356 0.401883 0.177578
C1_16 C 0.2451(9) 0.5286(10) 0.5991(11)
H1_16 H 0.2494 0.4966 0.5576
C2_16 C 0.2696(8) 0.5979(8) 0.6952(13)
C3_16 C 0.2013(8) 0.5949(8) 0.6866(10)
C4_16 C 0.1454(8) 0.6291(8) 0.7249(10)
C5_16 C 0.3131(8) 0.6345(8) 0.7503(13)
C6_16 C 0.3286(9) 0.4132(9) 0.7243(11)
H2_16 H 0.3098 0.4092 0.6716
C7_16 C 0.3894(8) 0.4464(7) 0.8263(12)
C8_16 C 0.3489(8) 0.3978(8) 0.8538(10)
C9_16 C 0.3356(10) 0.3682(8) 0.9364(11)
C10_16 C 0.4418(8) 0.4885(8) 0.8575(11)
N1_16 N 0.1856(7) 0.5516(7) 0.6235(8)
N2_16 N 0.2982(7) 0.5545(7) 0.6381(9)
N3_16 N 0.3760(7) 0.4555(7) 0.7408(10)
O1_16 O 0.0887(6) 0.6185(6) 0.6930(8)
O4_16 O 0.3754(6) 0.6327(6) 0.7324(9)
O9_16 O 0.5123(7) 0.6220(7) 0.6686(8)
O10_14 O 0.5168(6) 0.4711(8) 0.6647(9)
H5_14 H 0.510068 0.437452 0.709055
H6_14 H 0.55727 0.497175 0.67708
H7_16 H 0.5148 0.647661 0.615845
H8_16 H 0.554644 0.598117 0.677578
O11_16 O 0.9929(6) 0.6340(6) 0.5519(9)
H3_16 H 0.988006 0.661931 0.60251
H4_16 H 0.949115 0.6156 0.536023
O10_15 O 0.9832(6) 0.0289(8) 0.8353(9)
H5_15 H 0.989932 0.062548 0.790945
H6_15 H 0.94273 0.00282469 0.82292
O10_16 O 0.0168(6) 0.9711(8) 0.1647(9)
H5_16 H 0.0100676 0.937452 0.209055
H6_16 H 0.0572701 0.997175 0.17708
loop_
_geom_bond_atom_site_label_1
_geom_bond_atom_site_label_2
_geom_bond_site_symmetry_1
_geom_bond_site_symmetry_2
Tb1 N2 1_555 1_555
Tb2 N1 1_555 1_555
C1 H1 1_555 1_555
C2 C3 1_555 1_555
C3 C4 1_555 1_555
C4 O1 1_555 1_555
C6 H2 1_555 1_555
N1 C1 1_555 1_555
N2 C1 1_555 1_555
N3 Tb1 1_555 1_555
O1 Tb2 1_555 1_555
O4 Tb1 1_555 1_555
O9 Tb1 1_555 1_555
O10 Tb1 1_555 1_555
O11 Tb2 1_555 1_555
N5 Tb2 1_555 1_555
O12 Tb1 1_555 1_555
O13 Tb1 1_555 1_555
O14 Tb2 1_555 1_555
O15 Tb2 1_555 1_555
O16 Tb2 1_555 1_555
O17 Tb2 1_555 1_555
O18 Tb2 1_555 1_555
C2 N2 1_555 1_555
C3 N1 1_555 1_555
C6 N3 1_555 1_555
O11 H3 1_555 1_555
O11 H4 1_555 1_555
O10 H5 1_555 1_555
O10 H6 1_555 1_555
O9 H7 1_555 1_555
O9 H8 1_555 1_555
C7 C8 1_555 1_555
C8 C9 1_555 1_555
C9 O5 1_555 1_555
C10 C7 1_555 1_555
O3 C5 1_555 1_555
O5 Tb4 1_555 1_555
O6 C9 1_555 1_555
O7 C10 1_555 1_555
Tb3 O2 1_555 1_555
Tb4 N4 1_555 1_555
Tb5 O6 1_555 1_555
Tb6 O7 1_555 1_555
C8 N4 1_555 1_555
C10 O8 1_555 1_555
O3 Tb3 1_555 1_555
O7 Tb5 1_555 1_555
O8 Tb6 1_555 1_555
Tb1_2 N2_2 1_555 1_555
Tb5 N1_2 1_555 1_555
C1_2 H1_2 1_555 1_555
C2_2 C3_2 1_555 1_555
C3_2 C4_2 1_555 1_555
C4_2 O1_2 1_555 1_555
C5_2 C2_2 1_555 1_555
C6_2 H2_2 1_555 1_555
C7_2 C8_2 1_555 1_555
C8_2 C9_2 1_555 1_555
C9_2 O5_2 1_555 1_555
C10_2 C7_2 1_555 1_555
N1_2 C1_2 1_555 1_555
N2_2 C1_2 1_555 1_555
N3_2 Tb1_2 1_555 1_555
N4_2 C6_2 1_555 1_555
O1_2 Tb5 1_555 1_555
O2_2 C4_2 1_555 1_555
O3_2 C5_2 1_555 1_555
O4_2 Tb1_2 1_555 1_555
O5_2 Tb4_2 1_555 1_555
O15 C9_2 1_555 1_555
O16 C10_2 1_555 1_555
O8_2 Tb1_2 1_555 1_555
O9_2 Tb1_2 1_555 1_555
O10_2 Tb1_2 1_555 1_555
O11_2 Tb5 1_555 1_555
Tb3_2 O2_2 1_555 1_555
Tb4_2 N4_2 1_555 1_555
Tb6_2 O16 1_555 1_555
N5_2 Tb5 1_555 1_555
O12_2 Tb1_2 1_555 1_555
O13_2 Tb1_2 1_555 1_555
O14_2 Tb5 1_555 1_555
O17_2 Tb5 1_555 1_555
O18_2 Tb5 1_555 1_555
C2_2 N2_2 1_555 1_555
C3_2 N1_2 1_555 1_555
C5_2 O4_2 1_555 1_555
C6_2 N3_2 1_555 1_555
C7_2 N3_2 1_555 1_555
C8_2 N4_2 1_555 1_555
C10_2 O8_2 1_555 1_555
O3_2 Tb3_2 1_555 1_555
O8_2 Tb6_2 1_555 1_555
O11_2 H3_2 1_555 1_555
O11_2 H4_2 1_555 1_555
O10_2 H5_2 1_555 1_555
O10_2 H6_2 1_555 1_555
O9_2 H7_2 1_555 1_555
O9_2 H8_2 1_555 1_555
Tb1_3 N2_3 1_555 1_555
Tb2_2 N1_3 1_555 1_555
C2_3 C3_3 1_555 1_555
C3_3 C4_3 1_555 1_555
C4_3 O1_3 1_555 1_555
C5_3 C2_3 1_555 1_555
N1_3 C1_3 1_555 1_555
N2_3 C1_3 1_555 1_555
O1_3 Tb2_2 1_555 1_555
O2_3 C4_3 1_555 1_555
O3_3 C5_3 1_555 1_555
O4_3 Tb1_3 1_555 1_555
O8_3 Tb1_3 1_555 1_555
O9_3 Tb1_3 1_555 1_555
Tb3_3 O2_3 1_555 1_555
O12_3 Tb1_3 1_555 1_555
O15_2 Tb2_2 1_555 1_555
O16_2 Tb2_2 1_555 1_555
C2_3 N2_3 1_555 1_555
C3_3 N1_3 1_555 1_555
C5_3 O4_3 1_555 1_555
O3_3 Tb3_3 1_555 1_555
O8_3 Tb6_3 1_555 1_555
O9_3 H7_3 1_555 1_555
O9_3 H8_3 1_555 1_555
C6_3 H2_3 1_555 1_555
C7_3 C8_3 1_555 1_555
C8_3 C9_3 1_555 1_555
C9_3 O5_3 1_555 1_555
C10_3 C7_3 1_555 1_555
N4_3 C6_3 1_555 1_555
O5_3 Tb4_3 1_555 1_555
O6_2 C9_3 1_555 1_555
O7_2 C10_3 1_555 1_555
Tb4_3 N4_3 1_555 1_555
C6_3 N3_3 1_555 1_555
C7_3 N3_3 1_555 1_555
C8_3 N4_3 1_555 1_555
O10_3 H5_3 1_555 1_555
O10_3 H6_3 1_555 1_555
O11_3 H3_3 1_555 1_555
O11_3 H4_3 1_555 1_555
C6_4 H2_4 1_555 1_555
C7_4 C8_4 1_555 1_555
C8_4 C9_4 1_555 1_555
C9_4 O5_4 1_555 1_555
C10_4 C7_4 1_555 1_555
N4_4 C6_4 1_555 1_555
O5_4 Tb4_4 1_555 1_555
O15_2 C9_4 1_555 1_555
O16_2 C10_4 1_555 1_555
Tb4_4 N4_4 1_555 1_555
C6_4 N3_4 1_555 1_555
C7_4 N3_4 1_555 1_555
C8_4 N4_4 1_555 1_555
Tb1_4 N2_4 1_555 1_555
Tb5_2 N1_4 1_555 1_555
C2_4 C3_4 1_555 1_555
C3_4 C4_4 1_555 1_555
C4_4 O1_4 1_555 1_555
C5_4 C2_4 1_555 1_555
N1_4 C1_4 1_555 1_555
N2_4 C1_4 1_555 1_555
O1_4 Tb5_2 1_555 1_555
O2_4 C4_4 1_555 1_555
O3_4 C5_4 1_555 1_555
O4_4 Tb1_4 1_555 1_555
O8_4 Tb1_4 1_555 1_555
O11_4 Tb5_2 1_555 1_555
Tb3_4 O2_4 1_555 1_555
O12_4 Tb1_4 1_555 1_555
O18_4 Tb5_2 1_555 1_555
C2_4 N2_4 1_555 1_555
C3_4 N1_4 1_555 1_555
C5_4 O4_4 1_555 1_555
O3_4 Tb3_4 1_555 1_555
O11_4 H3_4 1_555 1_555
O11_4 H4_4 1_555 1_555
O9_4 H7_4 1_555 1_555
O9_4 H8_4 1_555 1_555
Tb4_4 N1_5 1_555 1_555
C1_5 H1_5 1_555 1_555
C3_5 C4_5 1_555 1_555
C4_5 O1_5 1_555 1_555
N1_5 C1_5 1_555 1_555
O1_5 Tb4_4 1_555 1_555
O12_3 C4_5 1_555 1_555
O11_5 Tb4_4 1_555 1_555
O15_3 Tb4_4 1_555 1_555
O16_3 Tb4_4 1_555 1_555
O17_5 Tb4_4 1_555 1_555
O18_5 Tb4_4 1_555 1_555
C3_5 N1_5 1_555 1_555
O11_5 H3_5 1_555 1_555
O11_5 H4_5 1_555 1_555
Tb3_4 N2_5 1_555 1_555
C5_5 C2_5 1_555 1_555
C6_5 H2_5 1_555 1_555
C7_5 C8_5 1_555 1_555
C8_5 C9_5 1_555 1_555
C9_5 O14_3 1_555 1_555
C10_5 C7_5 1_555 1_555
N3_5 Tb3_4 1_555 1_555
N5_3 C6_5 1_555 1_555
O13_3 C5_5 1_555 1_555
O4_5 Tb3_4 1_555 1_555
O6_3 C9_5 1_555 1_555
O7_3 C10_5 1_555 1_555
O8_5 Tb3_4 1_555 1_555
O9_5 Tb3_4 1_555 1_555
O10_4 Tb3_4 1_555 1_555
Tb4_3 O6_3 1_555 1_555
Tb6_5 O7_3 1_555 1_555
C2_5 N2_5 1_555 1_555
C5_5 O4_5 1_555 1_555
C6_5 N3_5 1_555 1_555
C7_5 N3_5 1_555 1_555
C8_5 N5_3 1_555 1_555
C10_5 O8_5 1_555 1_555
O7_3 Tb4_3 1_555 1_555
O8_5 Tb6_5 1_555 1_555
O10_4 H5_4 1_555 1_555
O10_4 H6_4 1_555 1_555
O9_5 H7_5 1_555 1_555
O9_5 H8_5 1_555 1_555
Tb3_3 N2_6 1_555 1_555
C6_6 H2_6 1_555 1_555
N3_6 Tb3_3 1_555 1_555
O4_6 Tb3_3 1_555 1_555
O9_6 Tb3_3 1_555 1_555
O10_5 Tb3_3 1_555 1_555
C2_6 N2_6 1_555 1_555
C6_6 N3_6 1_555 1_555
O10_5 H5_5 1_555 1_555
O10_5 H6_5 1_555 1_555
O9_6 H7_6 1_555 1_555
O9_6 H8_6 1_555 1_555
C7_6 C8_6 1_555 1_555
C8_6 C9_6 1_555 1_555
C9_6 O14_4 1_555 1_555
C10_6 C7_6 1_555 1_555
O13_4 C5_6 1_555 1_555
O15_3 C9_6 1_555 1_555
O16_3 C10_6 1_555 1_555
Tb6_6 O16_3 1_555 1_555
C8_6 N5_4 1_555 1_555
C10_6 O8_6 1_555 1_555
O8_6 Tb6_6 1_555 1_555
Tb4_3 N1_6 1_555 1_555
C1_6 H1_6 1_555 1_555
C3_6 C4_6 1_555 1_555
C4_6 O1_6 1_555 1_555
N1_6 C1_6 1_555 1_555
O1_6 Tb4_3 1_555 1_555
O11_6 Tb4_3 1_555 1_555
O17_6 Tb4_3 1_555 1_555
O18_6 Tb4_3 1_555 1_555
C3_6 N1_6 1_555 1_555
O11_6 H3_6 1_555 1_555
O11_6 H4_6 1_555 1_555
O10_6 H5_6 1_555 1_555
O10_6 H6_6 1_555 1_555
O9_7 H7_7 1_555 1_555
O9_7 H8_7 1_555 1_555
Tb3 N2_7 1_555 1_555
Tb4 N1_7 1_555 1_555
C1_7 H1_7 1_555 1_555
C2_7 C3_7 1_555 1_555
C3_7 C4_7 1_555 1_555
C4_7 O1_7 1_555 1_555
C5_7 C2_7 1_555 1_555
C6_7 H2_7 1_555 1_555
C7_7 C8_7 1_555 1_555
C8_7 C9_7 1_555 1_555
C9_7 O14_2 1_555 1_555
C10_7 C7_7 1_555 1_555
N1_7 C1_7 1_555 1_555
N2_7 C1_7 1_555 1_555
N3_7 Tb3 1_555 1_555
N5_2 C6_7 1_555 1_555
O1_7 Tb4 1_555 1_555
O12_2 C4_7 1_555 1_555
O13_2 C5_7 1_555 1_555
O4_7 Tb3 1_555 1_555
O6_4 C9_7 1_555 1_555
O7_4 C10_7 1_555 1_555
O8_7 Tb3 1_555 1_555
O11_7 Tb4 1_555 1_555
Tb4_2 O6_4 1_555 1_555
O17_7 Tb4 1_555 1_555
O18_7 Tb4 1_555 1_555
C2_7 N2_7 1_555 1_555
C3_7 N1_7 1_555 1_555
C5_7 O4_7 1_555 1_555
C6_7 N3_7 1_555 1_555
C7_7 N3_7 1_555 1_555
C8_7 N5_2 1_555 1_555
C10_7 O8_7 1_555 1_555
O7_4 Tb4_2 1_555 1_555
O11_7 H3_7 1_555 1_555
O11_7 H4_7 1_555 1_555
O11_8 H3_8 1_555 1_555
O11_8 H4_8 1_555 1_555
Tb3_2 N2_8 1_555 1_555
Tb4_2 N1_8 1_555 1_555
C1_8 H1_8 1_555 1_555
C2_8 C3_8 1_555 1_555
C3_8 C4_8 1_555 1_555
C4_8 O1_8 1_555 1_555
C5_8 C2_8 1_555 1_555
C6_8 H2_8 1_555 1_555
C7_8 C8_8 1_555 1_555
C8_8 C9_8 1_555 1_555
C9_8 O14 1_555 1_555
C10_8 C7_8 1_555 1_555
N1_8 C1_8 1_555 1_555
N2_8 C1_8 1_555 1_555
N3_8 Tb3_2 1_555 1_555
N5 C6_8 1_555 1_555
O1_8 Tb4_2 1_555 1_555
O12 C4_8 1_555 1_555
O13 C5_8 1_555 1_555
O4_8 Tb3_2 1_555 1_555
O15_4 C9_8 1_555 1_555
O16_4 C10_8 1_555 1_555
O8_8 Tb3_2 1_555 1_555
O9_8 Tb3_2 1_555 1_555
O10_7 Tb3_2 1_555 1_555
Tb6_8 O16_4 1_555 1_555
C2_8 N2_8 1_555 1_555
C3_8 N1_8 1_555 1_555
C5_8 O4_8 1_555 1_555
C6_8 N3_8 1_555 1_555
C7_8 N3_8 1_555 1_555
C8_8 N5 1_555 1_555
C10_8 O8_8 1_555 1_555
O8_8 Tb6_8 1_555 1_555
O10_7 H5_7 1_555 1_555
O10_7 H6_7 1_555 1_555
O9_8 H7_8 1_555 1_555
O9_8 H8_8 1_555 1_555
C7_9 C8_9 1_555 1_555
C8_9 C9_9 1_555 1_555
C9_9 O5_5 1_555 1_555
C10_9 C7_9 1_555 1_555
O3_5 C5_9 1_555 1_555
O5_5 Tb6_8 1_555 1_555
O6_5 C9_9 1_555 1_555
O17_6 C10_9 1_555 1_555
Tb3_5 O2_5 1_555 1_555
Tb6_8 N4_5 1_555 1_555
Tb6_5 O6_5 1_555 1_555
C8_9 N4_5 1_555 1_555
C10_9 O18_6 1_555 1_555
O3_5 Tb3_5 1_555 1_555
O17_6 Tb6_5 1_555 1_555
Tb1_5 N2_9 1_555 1_555
Tb6_6 N1_9 1_555 1_555
C1_9 H1_9 1_555 1_555
C2_9 C3_9 1_555 1_555
C3_9 C4_9 1_555 1_555
C4_9 O1_9 1_555 1_555
C6_9 H2_9 1_555 1_555
N1_9 C1_9 1_555 1_555
N2_9 C1_9 1_555 1_555
N3_9 Tb1_5 1_555 1_555
O1_9 Tb6_6 1_555 1_555
O4_9 Tb1_5 1_555 1_555
O9_9 Tb1_5 1_555 1_555
O10_8 Tb1_5 1_555 1_555
O11_9 Tb6_6 1_555 1_555
N5_5 Tb6_6 1_555 1_555
O12_5 Tb1_5 1_555 1_555
O13_5 Tb1_5 1_555 1_555
O14_5 Tb6_6 1_555 1_555
O15_5 Tb6_6 1_555 1_555
O17_5 Tb6_6 1_555 1_555
C2_9 N2_9 1_555 1_555
C3_9 N1_9 1_555 1_555
C6_9 N3_9 1_555 1_555
O11_9 H3_9 1_555 1_555
O11_9 H4_9 1_555 1_555
O10_8 H5_8 1_555 1_555
O10_8 H6_8 1_555 1_555
O9_9 H7_9 1_555 1_555
O9_9 H8_9 1_555 1_555
Tb1_6 N2_10 1_555 1_555
Tb6_5 N1_10 1_555 1_555
C1_10 H1_10 1_555 1_555
C2_10 C3_10 1_555 1_555
C3_10 C4_10 1_555 1_555
C4_10 O1_10 1_555 1_555
C5_10 C2_10 1_555 1_555
C6_10 H2_10 1_555 1_555
C7_10 C8_10 1_555 1_555
C8_10 C9_10 1_555 1_555
C9_10 O5_6 1_555 1_555
C10_10 C7_10 1_555 1_555
N1_10 C1_10 1_555 1_555
N2_10 C1_10 1_555 1_555
N3_10 Tb1_6 1_555 1_555
N4_6 C6_10 1_555 1_555
O1_10 Tb6_5 1_555 1_555
O2_6 C4_10 1_555 1_555
O3_6 C5_10 1_555 1_555
O4_10 Tb1_6 1_555 1_555
O5_6 Tb6_7 1_555 1_555
O15_5 C9_10 1_555 1_555
O17_5 C10_10 1_555 1_555
O18_5 Tb1_6 1_555 1_555
O9_10 Tb1_6 1_555 1_555
O10_9 Tb1_6 1_555 1_555
O11_10 Tb6_5 1_555 1_555
Tb3_6 O2_6 1_555 1_555
Tb6_7 N4_6 1_555 1_555
N5_6 Tb6_5 1_555 1_555
O12_6 Tb1_6 1_555 1_555
O13_6 Tb1_6 1_555 1_555
O14_6 Tb6_5 1_555 1_555
C2_10 N2_10 1_555 1_555
C3_10 N1_10 1_555 1_555
C5_10 O4_10 1_555 1_555
C6_10 N3_10 1_555 1_555
C7_10 N3_10 1_555 1_555
C8_10 N4_6 1_555 1_555
C10_10 O18_5 1_555 1_555
O3_6 Tb3_6 1_555 1_555
O11_10 H3_10 1_555 1_555
O11_10 H4_10 1_555 1_555
O10_9 H5_9 1_555 1_555
O10_9 H6_9 1_555 1_555
O9_10 H7_10 1_555 1_555
O9_10 H8_10 1_555 1_555
O11_11 H3_11 1_555 1_555
O11_11 H4_11 1_555 1_555
C6_11 H2_11 1_555 1_555
C7_11 C8_11 1_555 1_555
C8_11 C9_11 1_555 1_555
C9_11 O5_7 1_555 1_555
C10_11 C7_11 1_555 1_555
N4_7 C6_11 1_555 1_555
O5_7 Tb6 1_555 1_555
O6_6 C9_11 1_555 1_555
O17_4 C10_11 1_555 1_555
Tb6 N4_7 1_555 1_555
C6_11 N3_11 1_555 1_555
C7_11 N3_11 1_555 1_555
C8_11 N4_7 1_555 1_555
O10_10 H5_10 1_555 1_555
O10_10 H6_10 1_555 1_555
Tb1_7 N2_11 1_555 1_555
Tb6_4 N1_11 1_555 1_555
C2_11 C3_11 1_555 1_555
C3_11 C4_11 1_555 1_555
C4_11 O1_11 1_555 1_555
C5_11 C2_11 1_555 1_555
N1_11 C1_11 1_555 1_555
N2_11 C1_11 1_555 1_555
O1_11 Tb6_4 1_555 1_555
O2_7 C4_11 1_555 1_555
O3_7 C5_11 1_555 1_555
O4_11 Tb1_7 1_555 1_555
O18_4 Tb1_7 1_555 1_555
O9_11 Tb1_7 1_555 1_555
Tb3_7 O2_7 1_555 1_555
O12_7 Tb1_7 1_555 1_555
O15_6 Tb6_4 1_555 1_555
O17_3 Tb6_4 1_555 1_555
C2_11 N2_11 1_555 1_555
C3_11 N1_11 1_555 1_555
C5_11 O4_11 1_555 1_555
O3_7 Tb3_7 1_555 1_555
O9_11 H7_11 1_555 1_555
O9_11 H8_11 1_555 1_555
O9_12 H7_12 1_555 1_555
O9_12 H8_12 1_555 1_555
Tb1_8 N2_12 1_555 1_555
Tb6_3 N1_12 1_555 1_555
C2_12 C3_12 1_555 1_555
C3_12 C4_12 1_555 1_555
C4_12 O1_12 1_555 1_555
C5_12 C2_12 1_555 1_555
N1_12 C1_12 1_555 1_555
N2_12 C1_12 1_555 1_555
O1_12 Tb6_3 1_555 1_555
O2_8 C4_12 1_555 1_555
O3_8 C5_12 1_555 1_555
O4_12 Tb1_8 1_555 1_555
O18_3 Tb1_8 1_555 1_555
O11_12 Tb6_3 1_555 1_555
Tb3_8 O2_8 1_555 1_555
O12_8 Tb1_8 1_555 1_555
C2_12 N2_12 1_555 1_555
C3_12 N1_12 1_555 1_555
C5_12 O4_12 1_555 1_555
O3_8 Tb3_8 1_555 1_555
O11_12 H3_12 1_555 1_555
O11_12 H4_12 1_555 1_555
C6_12 H2_12 1_555 1_555
C7_12 C8_12 1_555 1_555
C8_12 C9_12 1_555 1_555
C9_12 O5_8 1_555 1_555
C10_12 C7_12 1_555 1_555
N4_8 C6_12 1_555 1_555
O5_8 Tb6_2 1_555 1_555
O15_6 C9_12 1_555 1_555
O17_3 C10_12 1_555 1_555
Tb6_2 N4_8 1_555 1_555
C6_12 N3_12 1_555 1_555
C7_12 N3_12 1_555 1_555
C8_12 N4_8 1_555 1_555
Tb3_8 N2_13 1_555 1_555
C5_13 C2_13 1_555 1_555
C6_13 H2_13 1_555 1_555
C7_13 C8_13 1_555 1_555
C8_13 C9_13 1_555 1_555
C9_13 O14_7 1_555 1_555
C10_13 C7_13 1_555 1_555
N3_13 Tb3_8 1_555 1_555
N5_7 C6_13 1_555 1_555
O13_7 C5_13 1_555 1_555
O4_13 Tb3_8 1_555 1_555
O6_7 C9_13 1_555 1_555
O17_2 C10_13 1_555 1_555
O18_2 Tb3_8 1_555 1_555
O9_13 Tb3_8 1_555 1_555
O10_11 Tb3_8 1_555 1_555
Tb6 O6_7 1_555 1_555
C2_13 N2_13 1_555 1_555
C5_13 O4_13 1_555 1_555
C6_13 N3_13 1_555 1_555
C7_13 N3_13 1_555 1_555
C8_13 N5_7 1_555 1_555
C10_13 O18_2 1_555 1_555
O17_2 Tb6 1_555 1_555
O10_11 H5_11 1_555 1_555
O10_11 H6_11 1_555 1_555
O9_13 H7_13 1_555 1_555
O9_13 H8_13 1_555 1_555
Tb6_2 N1_13 1_555 1_555
C1_13 H1_13 1_555 1_555
C3_13 C4_13 1_555 1_555
C4_13 O1_13 1_555 1_555
N1_13 C1_13 1_555 1_555
O1_13 Tb6_2 1_555 1_555
O12_7 C4_13 1_555 1_555
O11_13 Tb6_2 1_555 1_555
O15_7 Tb6_2 1_555 1_555
O17 Tb6_2 1_555 1_555
C3_13 N1_13 1_555 1_555
O11_13 H3_13 1_555 1_555
O11_13 H4_13 1_555 1_555
Tb6 N1_14 1_555 1_555
C1_14 H1_14 1_555 1_555
C3_14 C4_14 1_555 1_555
C4_14 O1_14 1_555 1_555
N1_14 C1_14 1_555 1_555
O1_14 Tb6 1_555 1_555
O11_14 Tb6 1_555 1_555
C3_14 N1_14 1_555 1_555
O11_14 H3_14 1_555 1_555
O11_14 H4_14 1_555 1_555
C7_14 C8_14 1_555 1_555
C8_14 C9_14 1_555 1_555
C9_14 O14_8 1_555 1_555
C10_14 C7_14 1_555 1_555
O13_8 C5_14 1_555 1_555
O15_7 C9_14 1_555 1_555
O17 C10_14 1_555 1_555
C8_14 N5_8 1_555 1_555
C10_14 O18 1_555 1_555
Tb3_7 N2_14 1_555 1_555
C6_14 H2_14 1_555 1_555
N3_14 Tb3_7 1_555 1_555
O4_14 Tb3_7 1_555 1_555
O9_14 Tb3_7 1_555 1_555
O10_12 Tb3_7 1_555 1_555
C2_14 N2_14 1_555 1_555
C6_14 N3_14 1_555 1_555
O10_12 H5_12 1_555 1_555
O10_12 H6_12 1_555 1_555
O9_14 H7_14 1_555 1_555
O9_14 H8_14 1_555 1_555
Tb3_5 N2_15 1_555 1_555
Tb6_8 N1_15 1_555 1_555
C1_15 H1_15 1_555 1_555
C2_15 C3_15 1_555 1_555
C3_15 C4_15 1_555 1_555
C4_15 O1_15 1_555 1_555
C5_15 C2_15 1_555 1_555
C6_15 H2_15 1_555 1_555
C7_15 C8_15 1_555 1_555
C8_15 C9_15 1_555 1_555
C9_15 O14_6 1_555 1_555
C10_15 C7_15 1_555 1_555
N1_15 C1_15 1_555 1_555
N2_15 C1_15 1_555 1_555
N3_15 Tb3_5 1_555 1_555
N5_6 C6_15 1_555 1_555
O1_15 Tb6_8 1_555 1_555
O12_6 C4_15 1_555 1_555
O13_6 C5_15 1_555 1_555
O4_15 Tb3_5 1_555 1_555
O6_8 C9_15 1_555 1_555
O17_8 C10_15 1_555 1_555
O18_8 Tb3_5 1_555 1_555
O11_15 Tb6_8 1_555 1_555
Tb6_7 O6_8 1_555 1_555
C2_15 N2_15 1_555 1_555
C3_15 N1_15 1_555 1_555
C5_15 O4_15 1_555 1_555
C6_15 N3_15 1_555 1_555
C7_15 N3_15 1_555 1_555
C8_15 N5_6 1_555 1_555
C10_15 O18_8 1_555 1_555
O17_8 Tb6_7 1_555 1_555
O11_15 H3_15 1_555 1_555
O11_15 H4_15 1_555 1_555
O10_13 H5_13 1_555 1_555
O10_13 H6_13 1_555 1_555
O9_15 H7_15 1_555 1_555
O9_15 H8_15 1_555 1_555
Tb3_6 N2_16 1_555 1_555
Tb6_7 N1_16 1_555 1_555
C1_16 H1_16 1_555 1_555
C2_16 C3_16 1_555 1_555
C3_16 C4_16 1_555 1_555
C4_16 O1_16 1_555 1_555
C5_16 C2_16 1_555 1_555
C6_16 H2_16 1_555 1_555
C7_16 C8_16 1_555 1_555
C8_16 C9_16 1_555 1_555
C9_16 O14_5 1_555 1_555
C10_16 C7_16 1_555 1_555
N1_16 C1_16 1_555 1_555
N2_16 C1_16 1_555 1_555
N3_16 Tb3_6 1_555 1_555
N5_5 C6_16 1_555 1_555
O1_16 Tb6_7 1_555 1_555
O12_5 C4_16 1_555 1_555
O13_5 C5_16 1_555 1_555
O4_16 Tb3_6 1_555 1_555
O15_8 C9_16 1_555 1_555
O17_7 C10_16 1_555 1_555
O18_7 Tb3_6 1_555 1_555
O9_16 Tb3_6 1_555 1_555
O10_14 Tb3_6 1_555 1_555
C2_16 N2_16 1_555 1_555
C3_16 N1_16 1_555 1_555
C5_16 O4_16 1_555 1_555
C6_16 N3_16 1_555 1_555
C7_16 N3_16 1_555 1_555
C8_16 N5_5 1_555 1_555
C10_16 O18_7 1_555 1_555
O10_14 H5_14 1_555 1_555
O10_14 H6_14 1_555 1_555
O9_16 H7_16 1_555 1_555
O9_16 H8_16 1_555 1_555
O11_16 H3_16 1_555 1_555
O11_16 H4_16 1_555 1_555
O10_15 H5_15 1_555 1_555
O10_15 H6_15 1_555 1_555
O10_16 H5_16 1_555 1_555
O10_16 H6_16 1_555 1_555

#END
