
###############################################################################
#
# This file contains modified crystal structure data generated from the
# MOF subset of the Cambridge Structural Database (CSD) v543 
# hosted by the Cambridge Crystallographic Data Centre (CCDC).
#
# This work is licensed under the Creative Commons
# Attribution-NonCommercial-ShareAlike 4.0 International License.
# To view a copy of this license, visit
# http://creativecommons.org/licenses/by-nc-sa/4.0/
# or send a letter to
# Creative Commons, PO Box 1866, Mountain View, CA 94042, USA.
#
# CIF created using the CSD Python API on 29 September 2022
# The structure has been converted into the P1 space group
# The structure has a 3D framework
# The original CSD entry PEGQUP is in the tetragonal crystal system
# The framework has been calculated to contain at least 10.0% void space
# The void calculation uses a probe of radius 1.32A, grid spacing 0.4
# H atom positions have been added when not included in the experimental data
#
###############################################################################

data_PEGQUP
_chemical_formula_moiety         '(C160 H128 Er32 N64 O172)n'
_symmetry_cell_setting           triclinic
_symmetry_space_group_name_H-M   'P 1'
_symmetry_Int_Tables_number      1
_space_group_name_Hall           'P 1'
loop_
_symmetry_equiv_pos_site_id
_symmetry_equiv_pos_as_xyz
1 x,y,z
_cell_length_a                   20.1447(8)
_cell_length_b                   20.1447(8)
_cell_length_c                   15.8730(10)
_cell_angle_alpha                90
_cell_angle_beta                 90
_cell_angle_gamma                90
_cell_volume                     6441.41
loop_
_atom_site_label
_atom_site_type_symbol
_atom_site_fract_x
_atom_site_fract_y
_atom_site_fract_z
Er2 Er 0.706798(17) 0.180550(17) 0.16944(2)
C1 C 0.7231(5) 0.0035(4) 0.1527(6)
C3 C 0.6558(4) 0.0486(4) 0.0652(5)
C4 C 0.6212(4) 0.1042(4) 0.0264(5)
N1 N 0.7009(3) 0.0627(3) 0.1269(4)
O1 O 0.6340(3) 0.1623(3) 0.0577(3)
O11 O 0.6183(3) 0.2556(3) 0.1981(4)
N5 N 0.8090(4) 0.1244(3) 0.2120(4)
O14 O 0.7873(3) 0.1689(3) 0.0574(4)
O15 O 0.6316(3) 0.1260(3) 0.2530(4)
O16 O 0.7296(3) 0.2175(3) 0.3178(3)
O17 O 0.7704(3) 0.2825(3) 0.1822(3)
O18 O 0.7167(3) 0.2836(3) 0.0622(4)
H5 H 0.591115 0.238213 0.24539
H6 H 0.636805 0.299602 0.213706
O2 O 0.5819(3) 0.0991(3) 0.9650(4)
Er3 Er 0.577262(18) 0.042577(18) 0.84158(2)
Er4 Er 0.930550(17) 0.043202(17) 0.91944(2)
Er1 Er 0.707423(18) 0.827262(18) 0.09158(2)
H1 H 0.7551 0.9990 0.1945
C2 C 0.6530(4) 0.9801(4) 0.0562(5)
C6 C 0.8383(4) 0.9216(4) 0.0274(5)
H2 H 0.8435 0.9399 0.0808
N2 N 0.6955(4) 0.9511(3) 0.1135(4)
N3 N 0.7940(4) 0.8741(3) 0.0110(4)
O4 O 0.6200(3) 0.8744(3) 0.0168(4)
O9 O 0.6315(4) 0.7404(3) 0.0812(4)
O10 O 0.7775(4) 0.7339(3) 0.0886(4)
O12 O 0.6509(3) 0.8319(3) 0.2150(4)
O13 O 0.7917(3) 0.8359(3) 0.1874(4)
H3 H 0.601357 0.748462 0.0327699
H4 H 0.655706 0.69801 0.072504
H7 H 0.798677 0.728136 0.144616
H8 H 0.751039 0.693764 0.0747714
C5 C 0.6165(4) 0.9358(4) 0.9997(5)
C7 C 0.8035(4) 0.8590(4) 0.9270(5)
C8 C 0.8527(4) 0.9014(4) 0.8968(5)
C9 C 0.8810(4) 0.9128(4) 0.8123(5)
C10 C 0.7622(4) 0.8066(4) 0.8915(5)
N4 N 0.8744(3) 0.9410(4) 0.9620(4)
O3 O 0.5859(3) 0.9583(3) 0.9374(4)
O5 O 0.9189(3) 0.9627(3) 0.8074(4)
O6 O 0.8684(3) 0.8740(3) 0.7530(4)
O7 O 0.7704(3) 0.7825(3) 0.8178(3)
O8 O 0.7167(3) 0.7836(3) 0.9378(4)
Er5 Er 0.793202(17) 0.819450(17) 0.66944(2)
Er6 Er 0.706798(17) 0.680550(17) 0.83056(2)
Er1_2 Er 0.792577(18) 0.172738(18) 0.59158(2)
H1_2 H 0.7449 0.0010 0.6945
C2_2 C 0.8470(4) 0.0199(4) 0.5562(5)
C5_2 C 0.8835(4) 0.0642(4) 0.4997(5)
C6_2 C 0.6617(4) 0.0784(4) 0.5274(5)
H2_2 H 0.6565 0.0601 0.5808
C7_2 C 0.6965(4) 0.1410(4) 0.4270(5)
C8_2 C 0.6473(4) 0.0986(4) 0.3968(5)
C9_2 C 0.6190(4) 0.0872(4) 0.3123(5)
C10_2 C 0.7378(4) 0.1934(4) 0.3915(5)
N2_2 N 0.8045(4) 0.0489(3) 0.6135(4)
N3_2 N 0.7060(4) 0.1259(3) 0.5110(4)
N4_2 N 0.6256(3) 0.0590(4) 0.4620(4)
O3_2 O 0.9141(3) 0.0417(3) 0.4374(4)
O4_2 O 0.8800(3) 0.1256(3) 0.5168(4)
O5_2 O 0.5811(3) 0.0373(3) 0.3074(4)
O8_2 O 0.7833(3) 0.2164(3) 0.4378(4)
O9_2 O 0.8685(4) 0.2596(3) 0.5812(4)
O10_2 O 0.7225(4) 0.2661(3) 0.5886(4)
Er6_2 Er 0.793202(17) 0.319450(17) 0.33056(2)
O12_2 O 0.8491(3) 0.1681(3) 0.7150(4)
O13_2 O 0.7083(3) 0.1641(3) 0.6874(4)
H3_2 H 0.898643 0.251538 0.53277
H4_2 H 0.844294 0.30199 0.572504
H7_2 H 0.701323 0.271864 0.644616
H8_2 H 0.748961 0.306236 0.574771
C1_2 C 0.7769(5) 0.9965(4) 0.6527(6)
C3_2 C 0.8442(4) 0.9514(4) 0.5652(5)
C4_2 C 0.8788(4) 0.8958(4) 0.5264(5)
N1_2 N 0.7991(3) 0.9373(3) 0.6269(4)
O1_2 O 0.8660(3) 0.8377(3) 0.5577(3)
O2_2 O 0.9181(3) 0.9009(3) 0.4650(4)
O11_2 O 0.8817(3) 0.7444(3) 0.6981(4)
Er3_2 Er 0.922738(18) 0.957423(18) 0.34158(2)
Er4_2 Er 0.569450(17) 0.956798(17) 0.41944(2)
N5_2 N 0.6910(4) 0.8756(3) 0.7120(4)
O14_2 O 0.7127(3) 0.8311(3) 0.5574(4)
O17_2 O 0.7296(3) 0.7175(3) 0.6822(3)
O18_2 O 0.7833(3) 0.7164(3) 0.5622(4)
H5_2 H 0.908885 0.761787 0.74539
H6_2 H 0.863195 0.700398 0.713706
O9_3 O 0.0096(3) 0.8815(4) 0.3312(4)
Er6_3 Er 0.069450(17) 0.956798(17) 0.08056(2)
H3_3 H 0.00153756 0.851357 0.28277
H4_3 H 0.0519904 0.905706 0.322504
H1_3 H 0.7510 0.0051 0.4445
C6_3 C 0.8284(4) 0.0883(4) 0.2774(5)
H2_3 H 0.8101 0.0935 0.3308
C7_3 C 0.8910(4) 0.0535(4) 0.1770(5)
C8_3 C 0.8486(4) 0.1027(4) 0.1468(5)
C9_3 C 0.8372(4) 0.1310(4) 0.0623(5)
C10_3 C 0.9434(4) 0.0122(4) 0.1415(5)
N3_3 N 0.8759(3) 0.0440(4) 0.2610(4)
O6_2 O 0.8760(3) 0.1184(3) 0.0030(4)
O7_2 O 0.9675(3) 0.0204(3) 0.0678(3)
O17_3 O 0.4675(3) 0.0204(3) 0.4322(3)
C1_3 C 0.7465(4) 0.9731(5) 0.4027(6)
C2_3 C 0.7699(4) 0.9030(4) 0.3062(5)
C3_3 C 0.7014(4) 0.9058(4) 0.3152(5)
C4_3 C 0.6458(4) 0.8712(4) 0.2764(5)
C5_3 C 0.8142(4) 0.8665(4) 0.2497(5)
N1_3 N 0.6873(3) 0.9509(3) 0.3769(4)
N2_3 N 0.7989(3) 0.9455(4) 0.3635(4)
O1_3 O 0.5877(3) 0.8840(3) 0.3077(3)
O4_3 O 0.8756(3) 0.8700(3) 0.2668(4)
O8_3 O 0.9664(3) 0.9667(3) 0.1878(4)
O11_3 O 0.4944(3) 0.8683(3) 0.4481(4)
O15_2 O 0.6240(3) 0.8816(3) 0.5030(4)
O16_2 O 0.5325(3) 0.9796(3) 0.5678(3)
O18_3 O 0.4664(3) 0.9667(3) 0.3122(4)
H5_3 H 0.511787 0.841115 0.49539
H6_3 H 0.450398 0.886805 0.463706
O11_4 O 0.0056(3) 0.1317(3) 0.9481(4)
O18_4 O 0.0336(3) 0.0333(3) 0.8122(4)
H6_4 H 0.0496021 0.113195 0.963706
O17_4 O 0.0325(3) 0.9796(3) 0.9322(3)
C1_4 C 0.7535(4) 0.0269(5) 0.9027(6)
C2_4 C 0.7301(4) 0.0970(4) 0.8062(5)
C3_4 C 0.7986(4) 0.0942(4) 0.8152(5)
C4_4 C 0.8542(4) 0.1288(4) 0.7764(5)
C5_4 C 0.6858(4) 0.1335(4) 0.7497(5)
N1_4 N 0.8127(3) 0.0491(3) 0.8769(4)
N2_4 N 0.7011(3) 0.0545(4) 0.8635(4)
O1_4 O 0.9123(3) 0.1160(3) 0.8077(3)
O4_4 O 0.6244(3) 0.1300(3) 0.7668(4)
O8_4 O 0.5336(3) 0.0333(3) 0.6878(4)
O9_4 O 0.4904(3) 0.1185(4) 0.8312(4)
Er6_4 Er 0.430550(17) 0.043202(17) 0.58056(2)
H3_4 H 0.498462 0.148643 0.78277
H4_4 H 0.44801 0.0942938 0.822504
H5_4 H 0.988213 0.158885 0.99539
H1_4 H 0.7490 0.9949 0.9445
C6_4 C 0.6716(4) 0.9117(4) 0.7774(5)
H2_4 H 0.6899 0.9065 0.8308
C7_4 C 0.6090(4) 0.9465(4) 0.6770(5)
C8_4 C 0.6514(4) 0.8973(4) 0.6468(5)
C9_4 C 0.6628(4) 0.8690(4) 0.5623(5)
C10_4 C 0.5566(4) 0.9878(4) 0.6415(5)
N3_4 N 0.6241(3) 0.9560(4) 0.7610(4)
O10_3 O 0.4839(3) 0.9725(4) 0.8386(4)
H7_3 H 0.478136 0.951323 0.894616
H8_3 H 0.443764 0.998961 0.824771
Er1_3 Er 0.207423(18) 0.327262(18) 0.59158(2)
Er2_2 Er 0.206798(17) 0.680550(17) 0.66944(2)
C1_5 C 0.2231(5) 0.5035(4) 0.6527(6)
H1_5 H 0.2551 0.4990 0.6945
C2_5 C 0.1530(4) 0.4801(4) 0.5562(5)
C3_5 C 0.1558(4) 0.5486(4) 0.5652(5)
C4_5 C 0.1212(4) 0.6042(4) 0.5264(5)
C5_5 C 0.1165(4) 0.4358(4) 0.4997(5)
C6_5 C 0.3383(4) 0.4216(4) 0.5274(5)
H2_5 H 0.3435 0.4399 0.5808
C7_5 C 0.3035(4) 0.3590(4) 0.4270(5)
C8_5 C 0.3527(4) 0.4014(4) 0.3968(5)
C9_5 C 0.3810(4) 0.4128(4) 0.3123(5)
C10_5 C 0.2622(4) 0.3066(4) 0.3915(5)
N1_5 N 0.2009(3) 0.5627(3) 0.6269(4)
N2_5 N 0.1955(4) 0.4511(3) 0.6135(4)
N3_5 N 0.2940(4) 0.3741(3) 0.5110(4)
N4_3 N 0.3744(3) 0.4410(4) 0.4620(4)
O1_5 O 0.1340(3) 0.6623(3) 0.5577(3)
O2_3 O 0.0819(3) 0.5991(3) 0.4650(4)
O3_3 O 0.0859(3) 0.4583(3) 0.4374(4)
O4_5 O 0.1200(3) 0.3744(3) 0.5168(4)
O5_3 O 0.4189(3) 0.4627(3) 0.3074(4)
O6_3 O 0.3684(3) 0.3740(3) 0.2530(4)
O7_3 O 0.2704(3) 0.2825(3) 0.3178(3)
O8_5 O 0.2167(3) 0.2836(3) 0.4378(4)
O9_5 O 0.1315(4) 0.2404(3) 0.5812(4)
O10_4 O 0.2775(4) 0.2339(3) 0.5886(4)
O11_5 O 0.1183(3) 0.7556(3) 0.6981(4)
Er3_3 Er 0.077262(18) 0.542577(18) 0.34158(2)
Er4_3 Er 0.430550(17) 0.543202(17) 0.41944(2)
Er5_2 Er 0.293202(17) 0.319450(17) 0.16944(2)
Er6_5 Er 0.206798(17) 0.180550(17) 0.33056(2)
N5_3 N 0.3090(4) 0.6244(3) 0.7120(4)
O12_3 O 0.1509(3) 0.3319(3) 0.7150(4)
O13_3 O 0.2917(3) 0.3359(3) 0.6874(4)
O14_3 O 0.2873(3) 0.6689(3) 0.5574(4)
O15_3 O 0.1316(3) 0.6260(3) 0.7530(4)
O16_3 O 0.2296(3) 0.7175(3) 0.8178(3)
O17_5 O 0.2704(3) 0.7825(3) 0.6822(3)
O18_5 O 0.2167(3) 0.7836(3) 0.5622(4)
H3_5 H 0.101357 0.248462 0.53277
H4_5 H 0.155706 0.19801 0.572504
H5_5 H 0.0911149 0.738213 0.74539
H6_5 H 0.136805 0.799602 0.713706
H7_4 H 0.298677 0.228136 0.644616
H8_4 H 0.251039 0.193764 0.574771
Er1_4 Er 0.292577(18) 0.672738(18) 0.09158(2)
C1_6 C 0.2769(5) 0.4965(4) 0.1527(6)
H1_6 H 0.2449 0.5010 0.1945
C2_6 C 0.3470(4) 0.5199(4) 0.0562(5)
C3_6 C 0.3442(4) 0.4514(4) 0.0652(5)
C4_6 C 0.3788(4) 0.3958(4) 0.0264(5)
C6_6 C 0.1617(4) 0.5784(4) 0.0274(5)
H2_6 H 0.1565 0.5601 0.0808
N1_6 N 0.2991(3) 0.4373(3) 0.1269(4)
N2_6 N 0.3045(4) 0.5489(3) 0.1135(4)
N3_6 N 0.2060(4) 0.6259(3) 0.0110(4)
O1_6 O 0.3660(3) 0.3377(3) 0.0577(3)
O4_6 O 0.3800(3) 0.6256(3) 0.0168(4)
O9_6 O 0.3685(4) 0.7596(3) 0.0812(4)
O10_5 O 0.2225(4) 0.7661(3) 0.0886(4)
O11_6 O 0.3817(3) 0.2444(3) 0.1981(4)
N5_4 N 0.1910(4) 0.3756(3) 0.2120(4)
O12_4 O 0.3491(3) 0.6681(3) 0.2150(4)
O13_4 O 0.2083(3) 0.6641(3) 0.1874(4)
O14_4 O 0.2127(3) 0.3311(3) 0.0574(4)
O17_6 O 0.2296(3) 0.2175(3) 0.1822(3)
O18_6 O 0.2833(3) 0.2164(3) 0.0622(4)
H3_6 H 0.398643 0.751538 0.0327699
H4_6 H 0.344294 0.80199 0.072504
H5_6 H 0.408885 0.261787 0.24539
H6_6 H 0.363195 0.200398 0.213706
H7_5 H 0.201323 0.771864 0.144616
H8_5 H 0.248961 0.806236 0.0747714
C5_6 C 0.3835(4) 0.5642(4) 0.9997(5)
C7_6 C 0.1965(4) 0.6410(4) 0.9270(5)
C8_6 C 0.1473(4) 0.5986(4) 0.8968(5)
C9_6 C 0.1190(4) 0.5872(4) 0.8123(5)
C10_6 C 0.2378(4) 0.6934(4) 0.8915(5)
N4_4 N 0.1256(3) 0.5590(4) 0.9620(4)
O2_4 O 0.4181(3) 0.4009(3) 0.9650(4)
O3_4 O 0.4141(3) 0.5417(3) 0.9374(4)
O5_4 O 0.0811(3) 0.5373(3) 0.8074(4)
O8_6 O 0.2833(3) 0.7164(3) 0.9378(4)
Er3_4 Er 0.422738(18) 0.457423(18) 0.84158(2)
Er4_4 Er 0.069450(17) 0.456798(17) 0.91944(2)
Er6_6 Er 0.293202(17) 0.819450(17) 0.83056(2)
O15_4 O 0.1240(3) 0.3816(3) 0.0030(4)
O16_4 O 0.0325(3) 0.4796(3) 0.0678(3)
C1_7 C 0.2465(4) 0.4731(5) 0.9027(6)
H1_7 H 0.2510 0.5051 0.9445
C2_7 C 0.2699(4) 0.4030(4) 0.8062(5)
C3_7 C 0.2014(4) 0.4058(4) 0.8152(5)
C4_7 C 0.1458(4) 0.3712(4) 0.7764(5)
C5_7 C 0.3142(4) 0.3665(4) 0.7497(5)
C6_7 C 0.3284(4) 0.5883(4) 0.7774(5)
H2_7 H 0.3101 0.5935 0.8308
C7_7 C 0.3910(4) 0.5535(4) 0.6770(5)
C8_7 C 0.3486(4) 0.6027(4) 0.6468(5)
C9_7 C 0.3372(4) 0.6310(4) 0.5623(5)
C10_7 C 0.4434(4) 0.5122(4) 0.6415(5)
N1_7 N 0.1873(3) 0.4509(3) 0.8769(4)
N2_7 N 0.2989(3) 0.4455(4) 0.8635(4)
N3_7 N 0.3759(3) 0.5440(4) 0.7610(4)
O1_7 O 0.0877(3) 0.3840(3) 0.8077(3)
O4_7 O 0.3756(3) 0.3700(3) 0.7668(4)
O6_4 O 0.3760(3) 0.6184(3) 0.5030(4)
O7_4 O 0.4675(3) 0.5204(3) 0.5678(3)
O8_7 O 0.4664(3) 0.4667(3) 0.6878(4)
O9_7 O 0.5096(3) 0.3815(4) 0.8312(4)
O10_6 O 0.5161(3) 0.5275(4) 0.8386(4)
Er6_7 Er 0.569450(17) 0.456798(17) 0.58056(2)
H3_7 H 0.501538 0.351357 0.78277
H4_7 H 0.55199 0.405706 0.822504
H5_7 H 0.0117875 0.341115 0.99539
H7_6 H 0.521864 0.548677 0.894616
H8_6 H 0.556236 0.501039 0.824771
O11_7 O 0.9944(3) 0.3683(3) 0.9481(4)
O17_7 O 0.9675(3) 0.5204(3) 0.9322(3)
O18_7 O 0.9664(3) 0.4667(3) 0.8122(4)
H6_7 H 0.950398 0.386805 0.963706
C1_8 C 0.2535(4) 0.5269(5) 0.4027(6)
H1_8 H 0.2490 0.4949 0.4445
C2_8 C 0.2301(4) 0.5970(4) 0.3062(5)
C3_8 C 0.2986(4) 0.5942(4) 0.3152(5)
C4_8 C 0.3542(4) 0.6288(4) 0.2764(5)
C5_8 C 0.1858(4) 0.6335(4) 0.2497(5)
C6_8 C 0.1716(4) 0.4117(4) 0.2774(5)
H2_8 H 0.1899 0.4065 0.3308
C7_8 C 0.1090(4) 0.4465(4) 0.1770(5)
C8_8 C 0.1514(4) 0.3973(4) 0.1468(5)
C9_8 C 0.1628(4) 0.3690(4) 0.0623(5)
C10_8 C 0.0566(4) 0.4878(4) 0.1415(5)
N1_8 N 0.3127(3) 0.5491(3) 0.3769(4)
N2_8 N 0.2011(3) 0.5545(4) 0.3635(4)
N3_8 N 0.1241(3) 0.4560(4) 0.2610(4)
O1_8 O 0.4123(3) 0.6160(3) 0.3077(3)
O4_8 O 0.1244(3) 0.6300(3) 0.2668(4)
O8_8 O 0.0336(3) 0.5333(3) 0.1878(4)
O11_8 O 0.5056(3) 0.6317(3) 0.4481(4)
O17_8 O 0.5325(3) 0.4796(3) 0.4322(3)
O18_8 O 0.5336(3) 0.5333(3) 0.3122(4)
H5_8 H 0.488213 0.658885 0.49539
H6_8 H 0.549602 0.613195 0.463706
O9_8 O 0.9904(3) 0.6185(4) 0.3312(4)
O10_7 O 0.9839(3) 0.4725(4) 0.3386(4)
Er6_8 Er 0.930550(17) 0.543202(17) 0.08056(2)
H3_8 H 0.998462 0.648643 0.28277
H4_8 H 0.94801 0.594294 0.322504
H7_7 H 0.978136 0.451323 0.394616
H8_7 H 0.943764 0.498961 0.324771
C5_9 C 0.3835(4) 0.0642(4) 0.0003(5)
C7_9 C 0.1965(4) 0.1410(4) 0.0730(5)
C8_9 C 0.1473(4) 0.0986(4) 0.1032(5)
C9_9 C 0.1190(4) 0.0872(4) 0.1877(5)
C10_9 C 0.2378(4) 0.1934(4) 0.1085(5)
N4_5 N 0.1256(3) 0.0590(4) 0.0380(4)
O3_5 O 0.4141(3) 0.0417(3) 0.0626(4)
O5_5 O 0.0811(3) 0.0373(3) 0.1926(4)
O6_5 O 0.1316(3) 0.1260(3) 0.2470(4)
Er1_5 Er 0.292577(18) 0.172738(18) 0.90842(2)
H1_9 H 0.2449 0.0010 0.8055
C2_9 C 0.3470(4) 0.0199(4) 0.9438(5)
C6_9 C 0.1617(4) 0.0784(4) 0.9726(5)
H2_9 H 0.1565 0.0601 0.9192
N2_9 N 0.3045(4) 0.0489(3) 0.8865(4)
N3_9 N 0.2060(4) 0.1259(3) 0.9890(4)
O4_9 O 0.3800(3) 0.1256(3) 0.9832(4)
O9_9 O 0.3685(4) 0.2596(3) 0.9188(4)
O10_8 O 0.2225(4) 0.2661(3) 0.9114(4)
O12_5 O 0.3491(3) 0.1681(3) 0.7850(4)
O13_5 O 0.2083(3) 0.1641(3) 0.8126(4)
H3_9 H 0.398643 0.251538 0.96723
H4_9 H 0.344294 0.30199 0.927496
H7_8 H 0.201323 0.271864 0.855384
H8_8 H 0.248961 0.306236 0.925229
O2_5 O 0.4181(3) 0.9009(3) 0.0350(4)
Er3_5 Er 0.422738(18) 0.957423(18) 0.15842(2)
C1_9 C 0.2769(5) 0.9965(4) 0.8473(6)
C3_9 C 0.3442(4) 0.9514(4) 0.9348(5)
C4_9 C 0.3788(4) 0.8958(4) 0.9736(5)
N1_9 N 0.2991(3) 0.9373(3) 0.8731(4)
O1_9 O 0.3660(3) 0.8377(3) 0.9423(3)
O11_9 O 0.3817(3) 0.7444(3) 0.8019(4)
N5_5 N 0.1910(4) 0.8756(3) 0.7880(4)
O14_5 O 0.2127(3) 0.8311(3) 0.9426(4)
O15_5 O 0.3684(3) 0.8740(3) 0.7470(4)
H5_9 H 0.408885 0.761787 0.75461
H6_9 H 0.363195 0.700398 0.786294
C1_10 C 0.2231(5) 0.0035(4) 0.3473(6)
C3_10 C 0.1558(4) 0.0486(4) 0.4348(5)
C4_10 C 0.1212(4) 0.1042(4) 0.4736(5)
N1_10 N 0.2009(3) 0.0627(3) 0.3731(4)
O1_10 O 0.1340(3) 0.1623(3) 0.4423(3)
O2_6 O 0.0819(3) 0.0991(3) 0.5350(4)
O11_10 O 0.1183(3) 0.2556(3) 0.3019(4)
Er3_6 Er 0.077262(18) 0.042577(18) 0.65842(2)
N5_6 N 0.3090(4) 0.1244(3) 0.2880(4)
O14_6 O 0.2873(3) 0.1689(3) 0.4426(4)
H5_10 H 0.0911149 0.238213 0.25461
H6_10 H 0.136805 0.299602 0.286294
Er1_6 Er 0.207423(18) 0.827262(18) 0.40842(2)
H1_10 H 0.2551 0.9990 0.3055
C2_10 C 0.1530(4) 0.9801(4) 0.4438(5)
C5_10 C 0.1165(4) 0.9358(4) 0.5003(5)
C6_10 C 0.3383(4) 0.9216(4) 0.4726(5)
H2_10 H 0.3435 0.9399 0.4192
C7_10 C 0.3035(4) 0.8590(4) 0.5730(5)
C8_10 C 0.3527(4) 0.9014(4) 0.6032(5)
C9_10 C 0.3810(4) 0.9128(4) 0.6877(5)
C10_10 C 0.2622(4) 0.8066(4) 0.6085(5)
N2_10 N 0.1955(4) 0.9511(3) 0.3865(4)
N3_10 N 0.2940(4) 0.8741(3) 0.4890(4)
N4_6 N 0.3744(3) 0.9410(4) 0.5380(4)
O3_6 O 0.0859(3) 0.9583(3) 0.5626(4)
O4_10 O 0.1200(3) 0.8744(3) 0.4832(4)
O5_6 O 0.4189(3) 0.9627(3) 0.6926(4)
O9_10 O 0.1315(4) 0.7404(3) 0.4188(4)
O10_9 O 0.2775(4) 0.7339(3) 0.4114(4)
O12_6 O 0.1509(3) 0.8319(3) 0.2850(4)
O13_6 O 0.2917(3) 0.8359(3) 0.3126(4)
H3_10 H 0.101357 0.748462 0.46723
H4_10 H 0.155706 0.69801 0.427496
H7_9 H 0.298677 0.728136 0.355384
H8_9 H 0.251039 0.693764 0.425229
C1_11 C 0.2535(4) 0.0269(5) 0.5973(6)
C2_11 C 0.2301(4) 0.0970(4) 0.6938(5)
C3_11 C 0.2986(4) 0.0942(4) 0.6848(5)
C4_11 C 0.3542(4) 0.1288(4) 0.7236(5)
C5_11 C 0.1858(4) 0.1335(4) 0.7503(5)
N1_11 N 0.3127(3) 0.0491(3) 0.6231(4)
N2_11 N 0.2011(3) 0.0545(4) 0.6365(4)
O1_11 O 0.4123(3) 0.1160(3) 0.6923(3)
O4_11 O 0.1244(3) 0.1300(3) 0.7332(4)
O11_11 O 0.5056(3) 0.1317(3) 0.5519(4)
O15_6 O 0.3760(3) 0.1184(3) 0.4970(4)
H5_11 H 0.488213 0.158885 0.50461
H6_11 H 0.549602 0.113195 0.536294
H1_11 H 0.2490 0.9949 0.5555
C6_11 C 0.1716(4) 0.9117(4) 0.7226(5)
H2_11 H 0.1899 0.9065 0.6692
C7_11 C 0.1090(4) 0.9465(4) 0.8230(5)
C8_11 C 0.1514(4) 0.8973(4) 0.8532(5)
C9_11 C 0.1628(4) 0.8690(4) 0.9377(5)
C10_11 C 0.0566(4) 0.9878(4) 0.8585(5)
N3_11 N 0.1241(3) 0.9560(4) 0.7390(4)
O6_6 O 0.1240(3) 0.8816(3) 0.9970(4)
O9_11 O 0.9904(3) 0.1185(4) 0.6688(4)
H3_11 H 0.998462 0.148643 0.71723
H4_11 H 0.94801 0.0942938 0.677496
H1_12 H 0.2510 0.0051 0.0555
C6_12 C 0.3284(4) 0.0883(4) 0.2226(5)
H2_12 H 0.3101 0.0935 0.1692
C7_12 C 0.3910(4) 0.0535(4) 0.3230(5)
C8_12 C 0.3486(4) 0.1027(4) 0.3532(5)
C9_12 C 0.3372(4) 0.1310(4) 0.4377(5)
C10_12 C 0.4434(4) 0.0122(4) 0.3585(5)
N3_12 N 0.3759(3) 0.0440(4) 0.2390(4)
O10_10 O 0.5161(3) 0.0275(4) 0.1614(4)
H7_10 H 0.521864 0.0486766 0.105384
H8_10 H 0.556236 0.00103904 0.175229
C1_12 C 0.2465(4) 0.9731(5) 0.0973(6)
C2_12 C 0.2699(4) 0.9030(4) 0.1938(5)
C3_12 C 0.2014(4) 0.9058(4) 0.1848(5)
C4_12 C 0.1458(4) 0.8712(4) 0.2236(5)
C5_12 C 0.3142(4) 0.8665(4) 0.2503(5)
N1_12 N 0.1873(3) 0.9509(3) 0.1231(4)
N2_12 N 0.2989(3) 0.9455(4) 0.1365(4)
O1_12 O 0.0877(3) 0.8840(3) 0.1923(3)
O4_12 O 0.3756(3) 0.8700(3) 0.2332(4)
O9_12 O 0.5096(3) 0.8815(4) 0.1688(4)
H3_12 H 0.501538 0.851357 0.21723
H4_12 H 0.55199 0.905706 0.177496
H5_12 H 0.0117875 0.841115 0.00460968
O11_12 O 0.9944(3) 0.8683(3) 0.0519(4)
H6_12 H 0.950398 0.886805 0.036294
Er1_7 Er 0.792577(18) 0.672738(18) 0.40842(2)
C1_13 C 0.7769(5) 0.4965(4) 0.3473(6)
H1_13 H 0.7449 0.5010 0.3055
C2_13 C 0.8470(4) 0.5199(4) 0.4438(5)
C3_13 C 0.8442(4) 0.4514(4) 0.4348(5)
C4_13 C 0.8788(4) 0.3958(4) 0.4736(5)
C5_13 C 0.8835(4) 0.5642(4) 0.5003(5)
C6_13 C 0.6617(4) 0.5784(4) 0.4726(5)
H2_13 H 0.6565 0.5601 0.4192
C7_13 C 0.6965(4) 0.6410(4) 0.5730(5)
C8_13 C 0.6473(4) 0.5986(4) 0.6032(5)
C9_13 C 0.6190(4) 0.5872(4) 0.6877(5)
C10_13 C 0.7378(4) 0.6934(4) 0.6085(5)
N1_13 N 0.7991(3) 0.4373(3) 0.3731(4)
N2_13 N 0.8045(4) 0.5489(3) 0.3865(4)
N3_13 N 0.7060(4) 0.6259(3) 0.4890(4)
N4_7 N 0.6256(3) 0.5590(4) 0.5380(4)
O1_13 O 0.8660(3) 0.3377(3) 0.4423(3)
O2_7 O 0.9181(3) 0.4009(3) 0.5350(4)
O3_7 O 0.9141(3) 0.5417(3) 0.5626(4)
O4_13 O 0.8800(3) 0.6256(3) 0.4832(4)
O5_7 O 0.5811(3) 0.5373(3) 0.6926(4)
O6_7 O 0.6316(3) 0.6260(3) 0.7470(4)
O9_13 O 0.8685(4) 0.7596(3) 0.4188(4)
O10_11 O 0.7225(4) 0.7661(3) 0.4114(4)
O11_13 O 0.8817(3) 0.2444(3) 0.3019(4)
Er3_7 Er 0.922738(18) 0.457423(18) 0.65842(2)
N5_7 N 0.6910(4) 0.3756(3) 0.2880(4)
O12_7 O 0.8491(3) 0.6681(3) 0.2850(4)
O13_7 O 0.7083(3) 0.6641(3) 0.3126(4)
O14_7 O 0.7127(3) 0.3311(3) 0.4426(4)
O15_7 O 0.8684(3) 0.3740(3) 0.2470(4)
H3_13 H 0.898643 0.751538 0.46723
H4_13 H 0.844294 0.80199 0.427496
H5_13 H 0.908885 0.261787 0.25461
H6_13 H 0.863195 0.200398 0.286294
H7_11 H 0.701323 0.771864 0.355384
H8_11 H 0.748961 0.806236 0.425229
C5_14 C 0.6165(4) 0.4358(4) 0.0003(5)
C7_14 C 0.8035(4) 0.3590(4) 0.0730(5)
C8_14 C 0.8527(4) 0.4014(4) 0.1032(5)
C9_14 C 0.8810(4) 0.4128(4) 0.1877(5)
C10_14 C 0.7622(4) 0.3066(4) 0.1085(5)
N4_8 N 0.8744(3) 0.4410(4) 0.0380(4)
O2_8 O 0.5819(3) 0.5991(3) 0.0350(4)
O3_8 O 0.5859(3) 0.4583(3) 0.0626(4)
O5_8 O 0.9189(3) 0.4627(3) 0.1926(4)
Er3_8 Er 0.577262(18) 0.542577(18) 0.15842(2)
Er1_8 Er 0.707423(18) 0.327262(18) 0.90842(2)
C1_14 C 0.7231(5) 0.5035(4) 0.8473(6)
H1_14 H 0.7551 0.4990 0.8055
C2_14 C 0.6530(4) 0.4801(4) 0.9438(5)
C3_14 C 0.6558(4) 0.5486(4) 0.9348(5)
C4_14 C 0.6212(4) 0.6042(4) 0.9736(5)
C6_14 C 0.8383(4) 0.4216(4) 0.9726(5)
H2_14 H 0.8435 0.4399 0.9192
N1_14 N 0.7009(3) 0.5627(3) 0.8731(4)
N2_14 N 0.6955(4) 0.4511(3) 0.8865(4)
N3_14 N 0.7940(4) 0.3741(3) 0.9890(4)
O1_14 O 0.6340(3) 0.6623(3) 0.9423(3)
O4_14 O 0.6200(3) 0.3744(3) 0.9832(4)
O9_14 O 0.6315(4) 0.2404(3) 0.9188(4)
O10_12 O 0.7775(4) 0.2339(3) 0.9114(4)
O11_14 O 0.6183(3) 0.7556(3) 0.8019(4)
N5_8 N 0.8090(4) 0.6244(3) 0.7880(4)
O12_8 O 0.6509(3) 0.3319(3) 0.7850(4)
O13_8 O 0.7917(3) 0.3359(3) 0.8126(4)
O14_8 O 0.7873(3) 0.6689(3) 0.9426(4)
H3_14 H 0.601357 0.248462 0.96723
H4_14 H 0.655706 0.19801 0.927496
H5_14 H 0.591115 0.738213 0.75461
H6_14 H 0.636805 0.799602 0.786294
H7_12 H 0.798677 0.228136 0.855384
H8_12 H 0.751039 0.193764 0.925229
O11_15 O 0.0056(3) 0.6317(3) 0.0519(4)
H6_15 H 0.0496021 0.613195 0.036294
C1_15 C 0.7535(4) 0.5269(5) 0.0973(6)
H1_15 H 0.7490 0.4949 0.0555
C2_15 C 0.7301(4) 0.5970(4) 0.1938(5)
C3_15 C 0.7986(4) 0.5942(4) 0.1848(5)
C4_15 C 0.8542(4) 0.6288(4) 0.2236(5)
C5_15 C 0.6858(4) 0.6335(4) 0.2503(5)
C6_15 C 0.6716(4) 0.4117(4) 0.2226(5)
H2_15 H 0.6899 0.4065 0.1692
C7_15 C 0.6090(4) 0.4465(4) 0.3230(5)
C8_15 C 0.6514(4) 0.3973(4) 0.3532(5)
C9_15 C 0.6628(4) 0.3690(4) 0.4377(5)
C10_15 C 0.5566(4) 0.4878(4) 0.3585(5)
N1_15 N 0.8127(3) 0.5491(3) 0.1231(4)
N2_15 N 0.7011(3) 0.5545(4) 0.1365(4)
N3_15 N 0.6241(3) 0.4560(4) 0.2390(4)
O1_15 O 0.9123(3) 0.6160(3) 0.1923(3)
O4_15 O 0.6244(3) 0.6300(3) 0.2332(4)
O6_8 O 0.6240(3) 0.3816(3) 0.4970(4)
O9_15 O 0.4904(3) 0.6185(4) 0.1688(4)
O10_13 O 0.4839(3) 0.4725(4) 0.1614(4)
H3_15 H 0.498462 0.648643 0.21723
H4_15 H 0.44801 0.594294 0.177496
H5_15 H 0.988213 0.658885 0.00460968
H7_13 H 0.478136 0.451323 0.105384
H8_13 H 0.443764 0.498961 0.175229
O15_8 O 0.8760(3) 0.6184(3) 0.9970(4)
O9_16 O 0.0096(3) 0.3815(4) 0.6688(4)
O10_14 O 0.0161(3) 0.5275(4) 0.6614(4)
H3_16 H 0.00153756 0.351357 0.71723
H4_16 H 0.0519904 0.405706 0.677496
H7_14 H 0.021864 0.548677 0.605384
H8_14 H 0.0562363 0.501039 0.675229
C1_16 C 0.7465(4) 0.4731(5) 0.5973(6)
H1_16 H 0.7510 0.5051 0.5555
C2_16 C 0.7699(4) 0.4030(4) 0.6938(5)
C3_16 C 0.7014(4) 0.4058(4) 0.6848(5)
C4_16 C 0.6458(4) 0.3712(4) 0.7236(5)
C5_16 C 0.8142(4) 0.3665(4) 0.7503(5)
C6_16 C 0.8284(4) 0.5883(4) 0.7226(5)
H2_16 H 0.8101 0.5935 0.6692
C7_16 C 0.8910(4) 0.5535(4) 0.8230(5)
C8_16 C 0.8486(4) 0.6027(4) 0.8532(5)
C9_16 C 0.8372(4) 0.6310(4) 0.9377(5)
C10_16 C 0.9434(4) 0.5122(4) 0.8585(5)
N1_16 N 0.6873(3) 0.4509(3) 0.6231(4)
N2_16 N 0.7989(3) 0.4455(4) 0.6365(4)
N3_16 N 0.8759(3) 0.5440(4) 0.7390(4)
O1_16 O 0.5877(3) 0.3840(3) 0.6923(3)
O4_16 O 0.8756(3) 0.3700(3) 0.7332(4)
O11_16 O 0.4944(3) 0.3683(3) 0.5519(4)
H5_16 H 0.511787 0.341115 0.50461
H6_16 H 0.450398 0.386805 0.536294
O10_15 O 0.0161(3) 0.0275(4) 0.3386(4)
H7_15 H 0.021864 0.0486766 0.394616
H8_15 H 0.0562363 0.00103904 0.324771
O10_16 O 0.9839(3) 0.9725(4) 0.6614(4)
H7_16 H 0.978136 0.951323 0.605384
H8_16 H 0.943764 0.998961 0.675229
loop_
_geom_bond_atom_site_label_1
_geom_bond_atom_site_label_2
_geom_bond_site_symmetry_1
_geom_bond_site_symmetry_2
Er2 N1 1_555 1_555
C3 C4 1_555 1_555
C4 O1 1_555 1_555
N1 C1 1_555 1_555
O1 Er2 1_555 1_555
O11 Er2 1_555 1_555
N5 Er2 1_555 1_555
O14 Er2 1_555 1_555
O15 Er2 1_555 1_555
O16 Er2 1_555 1_555
O17 Er2 1_555 1_555
O18 Er2 1_555 1_555
C3 N1 1_555 1_555
O11 H5 1_555 1_555
O11 H6 1_555 1_555
Er3 O2 1_555 1_555
Er1 N2 1_555 1_555
C6 H2 1_555 1_555
N3 Er1 1_555 1_555
O4 Er1 1_555 1_555
O9 Er1 1_555 1_555
O10 Er1 1_555 1_555
O12 Er1 1_555 1_555
O13 Er1 1_555 1_555
C2 N2 1_555 1_555
C6 N3 1_555 1_555
O9 H3 1_555 1_555
O9 H4 1_555 1_555
O10 H7 1_555 1_555
O10 H8 1_555 1_555
C7 C8 1_555 1_555
C8 C9 1_555 1_555
C9 O5 1_555 1_555
C10 C7 1_555 1_555
O3 C5 1_555 1_555
O6 C9 1_555 1_555
O7 C10 1_555 1_555
Er5 O6 1_555 1_555
Er6 O7 1_555 1_555
C8 N4 1_555 1_555
C10 O8 1_555 1_555
O7 Er5 1_555 1_555
O8 Er6 1_555 1_555
Er1_2 N2_2 1_555 1_555
C5_2 C2_2 1_555 1_555
C6_2 H2_2 1_555 1_555
C7_2 C8_2 1_555 1_555
C8_2 C9_2 1_555 1_555
C9_2 O5_2 1_555 1_555
C10_2 C7_2 1_555 1_555
N3_2 Er1_2 1_555 1_555
N4_2 C6_2 1_555 1_555
O3_2 C5_2 1_555 1_555
O4_2 Er1_2 1_555 1_555
O15 C9_2 1_555 1_555
O16 C10_2 1_555 1_555
O8_2 Er1_2 1_555 1_555
O9_2 Er1_2 1_555 1_555
O10_2 Er1_2 1_555 1_555
Er6_2 O16 1_555 1_555
O12_2 Er1_2 1_555 1_555
O13_2 Er1_2 1_555 1_555
C2_2 N2_2 1_555 1_555
C5_2 O4_2 1_555 1_555
C6_2 N3_2 1_555 1_555
C7_2 N3_2 1_555 1_555
C8_2 N4_2 1_555 1_555
C10_2 O8_2 1_555 1_555
O8_2 Er6_2 1_555 1_555
O9_2 H3_2 1_555 1_555
O9_2 H4_2 1_555 1_555
O10_2 H7_2 1_555 1_555
O10_2 H8_2 1_555 1_555
Er5 N1_2 1_555 1_555
C3_2 C4_2 1_555 1_555
C4_2 O1_2 1_555 1_555
N1_2 C1_2 1_555 1_555
O1_2 Er5 1_555 1_555
O2_2 C4_2 1_555 1_555
O11_2 Er5 1_555 1_555
Er3_2 O2_2 1_555 1_555
N5_2 Er5 1_555 1_555
O14_2 Er5 1_555 1_555
O17_2 Er5 1_555 1_555
O18_2 Er5 1_555 1_555
C3_2 N1_2 1_555 1_555
O11_2 H5_2 1_555 1_555
O11_2 H6_2 1_555 1_555
O9_3 H3_3 1_555 1_555
O9_3 H4_3 1_555 1_555
C6_3 H2_3 1_555 1_555
C7_3 C8_3 1_555 1_555
C8_3 C9_3 1_555 1_555
C9_3 O14 1_555 1_555
C10_3 C7_3 1_555 1_555
N5 C6_3 1_555 1_555
O6_2 C9_3 1_555 1_555
O7_2 C10_3 1_555 1_555
C6_3 N3_3 1_555 1_555
C7_3 N3_3 1_555 1_555
C8_3 N5 1_555 1_555
Er3_2 N2_3 1_555 1_555
Er4_2 N1_3 1_555 1_555
C2_3 C3_3 1_555 1_555
C3_3 C4_3 1_555 1_555
C4_3 O1_3 1_555 1_555
C5_3 C2_3 1_555 1_555
N1_3 C1_3 1_555 1_555
N2_3 C1_3 1_555 1_555
O1_3 Er4_2 1_555 1_555
O12 C4_3 1_555 1_555
O13 C5_3 1_555 1_555
O4_3 Er3_2 1_555 1_555
O8_3 Er3_2 1_555 1_555
O11_3 Er4_2 1_555 1_555
O15_2 Er4_2 1_555 1_555
O16_2 Er4_2 1_555 1_555
O18_3 Er4_2 1_555 1_555
C2_3 N2_3 1_555 1_555
C3_3 N1_3 1_555 1_555
C5_3 O4_3 1_555 1_555
O11_3 H5_3 1_555 1_555
O11_3 H6_3 1_555 1_555
O11_4 H6_4 1_555 1_555
Er3 N2_4 1_555 1_555
Er4 N1_4 1_555 1_555
C2_4 C3_4 1_555 1_555
C3_4 C4_4 1_555 1_555
C4_4 O1_4 1_555 1_555
C5_4 C2_4 1_555 1_555
N1_4 C1_4 1_555 1_555
N2_4 C1_4 1_555 1_555
O1_4 Er4 1_555 1_555
O12_2 C4_4 1_555 1_555
O13_2 C5_4 1_555 1_555
O4_4 Er3 1_555 1_555
O8_4 Er3 1_555 1_555
O9_4 Er3 1_555 1_555
C2_4 N2_4 1_555 1_555
C3_4 N1_4 1_555 1_555
C5_4 O4_4 1_555 1_555
O8_4 Er6_4 1_555 1_555
O9_4 H3_4 1_555 1_555
O9_4 H4_4 1_555 1_555
C6_4 H2_4 1_555 1_555
C7_4 C8_4 1_555 1_555
C8_4 C9_4 1_555 1_555
C9_4 O14_2 1_555 1_555
C10_4 C7_4 1_555 1_555
N5_2 C6_4 1_555 1_555
O15_2 C9_4 1_555 1_555
O16_2 C10_4 1_555 1_555
C6_4 N3_4 1_555 1_555
C7_4 N3_4 1_555 1_555
C8_4 N5_2 1_555 1_555
O10_3 H7_3 1_555 1_555
O10_3 H8_3 1_555 1_555
Er1_3 N2_5 1_555 1_555
Er2_2 N1_5 1_555 1_555
C1_5 H1_5 1_555 1_555
C2_5 C3_5 1_555 1_555
C3_5 C4_5 1_555 1_555
C4_5 O1_5 1_555 1_555
C5_5 C2_5 1_555 1_555
C6_5 H2_5 1_555 1_555
C7_5 C8_5 1_555 1_555
C8_5 C9_5 1_555 1_555
C9_5 O5_3 1_555 1_555
C10_5 C7_5 1_555 1_555
N1_5 C1_5 1_555 1_555
N2_5 C1_5 1_555 1_555
N3_5 Er1_3 1_555 1_555
N4_3 C6_5 1_555 1_555
O1_5 Er2_2 1_555 1_555
O2_3 C4_5 1_555 1_555
O3_3 C5_5 1_555 1_555
O4_5 Er1_3 1_555 1_555
O5_3 Er4_3 1_555 1_555
O6_3 C9_5 1_555 1_555
O7_3 C10_5 1_555 1_555
O8_5 Er1_3 1_555 1_555
O9_5 Er1_3 1_555 1_555
O10_4 Er1_3 1_555 1_555
O11_5 Er2_2 1_555 1_555
Er3_3 O2_3 1_555 1_555
Er4_3 N4_3 1_555 1_555
Er5_2 O6_3 1_555 1_555
Er6_5 O7_3 1_555 1_555
N5_3 Er2_2 1_555 1_555
O12_3 Er1_3 1_555 1_555
O13_3 Er1_3 1_555 1_555
O14_3 Er2_2 1_555 1_555
O15_3 Er2_2 1_555 1_555
O16_3 Er2_2 1_555 1_555
O17_5 Er2_2 1_555 1_555
O18_5 Er2_2 1_555 1_555
C2_5 N2_5 1_555 1_555
C3_5 N1_5 1_555 1_555
C5_5 O4_5 1_555 1_555
C6_5 N3_5 1_555 1_555
C7_5 N3_5 1_555 1_555
C8_5 N4_3 1_555 1_555
C10_5 O8_5 1_555 1_555
O3_3 Er3_3 1_555 1_555
O7_3 Er5_2 1_555 1_555
O8_5 Er6_5 1_555 1_555
O9_5 H3_5 1_555 1_555
O9_5 H4_5 1_555 1_555
O11_5 H5_5 1_555 1_555
O11_5 H6_5 1_555 1_555
O10_4 H7_4 1_555 1_555
O10_4 H8_4 1_555 1_555
Er1_4 N2_6 1_555 1_555
Er5_2 N1_6 1_555 1_555
C1_6 H1_6 1_555 1_555
C2_6 C3_6 1_555 1_555
C3_6 C4_6 1_555 1_555
C4_6 O1_6 1_555 1_555
C6_6 H2_6 1_555 1_555
N1_6 C1_6 1_555 1_555
N2_6 C1_6 1_555 1_555
N3_6 Er1_4 1_555 1_555
O1_6 Er5_2 1_555 1_555
O4_6 Er1_4 1_555 1_555
O9_6 Er1_4 1_555 1_555
O10_5 Er1_4 1_555 1_555
O11_6 Er5_2 1_555 1_555
N5_4 Er5_2 1_555 1_555
O12_4 Er1_4 1_555 1_555
O13_4 Er1_4 1_555 1_555
O14_4 Er5_2 1_555 1_555
O17_6 Er5_2 1_555 1_555
O18_6 Er5_2 1_555 1_555
C2_6 N2_6 1_555 1_555
C3_6 N1_6 1_555 1_555
C6_6 N3_6 1_555 1_555
O9_6 H3_6 1_555 1_555
O9_6 H4_6 1_555 1_555
O11_6 H5_6 1_555 1_555
O11_6 H6_6 1_555 1_555
O10_5 H7_5 1_555 1_555
O10_5 H8_5 1_555 1_555
C7_6 C8_6 1_555 1_555
C8_6 C9_6 1_555 1_555
C9_6 O5_4 1_555 1_555
C10_6 C7_6 1_555 1_555
O3_4 C5_6 1_555 1_555
O5_4 Er4_4 1_555 1_555
O15_3 C9_6 1_555 1_555
O16_3 C10_6 1_555 1_555
Er3_4 O2_4 1_555 1_555
Er4_4 N4_4 1_555 1_555
Er6_6 O16_3 1_555 1_555
C8_6 N4_4 1_555 1_555
C10_6 O8_6 1_555 1_555
O3_4 Er3_4 1_555 1_555
O8_6 Er6_6 1_555 1_555
Er3_4 N2_7 1_555 1_555
Er4_4 N1_7 1_555 1_555
C1_7 H1_7 1_555 1_555
C2_7 C3_7 1_555 1_555
C3_7 C4_7 1_555 1_555
C4_7 O1_7 1_555 1_555
C5_7 C2_7 1_555 1_555
C6_7 H2_7 1_555 1_555
C7_7 C8_7 1_555 1_555
C8_7 C9_7 1_555 1_555
C9_7 O14_3 1_555 1_555
C10_7 C7_7 1_555 1_555
N1_7 C1_7 1_555 1_555
N2_7 C1_7 1_555 1_555
N3_7 Er3_4 1_555 1_555
N5_3 C6_7 1_555 1_555
O1_7 Er4_4 1_555 1_555
O12_3 C4_7 1_555 1_555
O13_3 C5_7 1_555 1_555
O4_7 Er3_4 1_555 1_555
O6_4 C9_7 1_555 1_555
O7_4 C10_7 1_555 1_555
O8_7 Er3_4 1_555 1_555
O9_7 Er3_4 1_555 1_555
O10_6 Er3_4 1_555 1_555
Er4_3 O6_4 1_555 1_555
Er6_7 O7_4 1_555 1_555
C2_7 N2_7 1_555 1_555
C3_7 N1_7 1_555 1_555
C5_7 O4_7 1_555 1_555
C6_7 N3_7 1_555 1_555
C7_7 N3_7 1_555 1_555
C8_7 N5_3 1_555 1_555
C10_7 O8_7 1_555 1_555
O7_4 Er4_3 1_555 1_555
O8_7 Er6_7 1_555 1_555
O9_7 H3_7 1_555 1_555
O9_7 H4_7 1_555 1_555
O10_6 H7_6 1_555 1_555
O10_6 H8_6 1_555 1_555
O11_7 H6_7 1_555 1_555
Er3_3 N2_8 1_555 1_555
Er4_3 N1_8 1_555 1_555
C1_8 H1_8 1_555 1_555
C2_8 C3_8 1_555 1_555
C3_8 C4_8 1_555 1_555
C4_8 O1_8 1_555 1_555
C5_8 C2_8 1_555 1_555
C6_8 H2_8 1_555 1_555
C7_8 C8_8 1_555 1_555
C8_8 C9_8 1_555 1_555
C9_8 O14_4 1_555 1_555
C10_8 C7_8 1_555 1_555
N1_8 C1_8 1_555 1_555
N2_8 C1_8 1_555 1_555
N3_8 Er3_3 1_555 1_555
N5_4 C6_8 1_555 1_555
O1_8 Er4_3 1_555 1_555
O12_4 C4_8 1_555 1_555
O13_4 C5_8 1_555 1_555
O4_8 Er3_3 1_555 1_555
O15_4 C9_8 1_555 1_555
O16_4 C10_8 1_555 1_555
O8_8 Er3_3 1_555 1_555
O11_8 Er4_3 1_555 1_555
O17_8 Er4_3 1_555 1_555
O18_8 Er4_3 1_555 1_555
C2_8 N2_8 1_555 1_555
C3_8 N1_8 1_555 1_555
C5_8 O4_8 1_555 1_555
C6_8 N3_8 1_555 1_555
C7_8 N3_8 1_555 1_555
C8_8 N5_4 1_555 1_555
C10_8 O8_8 1_555 1_555
O11_8 H5_8 1_555 1_555
O11_8 H6_8 1_555 1_555
O9_8 H3_8 1_555 1_555
O9_8 H4_8 1_555 1_555
O10_7 H7_7 1_555 1_555
O10_7 H8_7 1_555 1_555
C7_9 C8_9 1_555 1_555
C8_9 C9_9 1_555 1_555
C9_9 O5_5 1_555 1_555
C10_9 C7_9 1_555 1_555
O3_5 C5_9 1_555 1_555
O6_5 C9_9 1_555 1_555
O17_6 C10_9 1_555 1_555
Er6_5 O6_5 1_555 1_555
C8_9 N4_5 1_555 1_555
C10_9 O18_6 1_555 1_555
O17_6 Er6_5 1_555 1_555
Er1_5 N2_9 1_555 1_555
C6_9 H2_9 1_555 1_555
N3_9 Er1_5 1_555 1_555
O4_9 Er1_5 1_555 1_555
O9_9 Er1_5 1_555 1_555
O10_8 Er1_5 1_555 1_555
O12_5 Er1_5 1_555 1_555
O13_5 Er1_5 1_555 1_555
C2_9 N2_9 1_555 1_555
C6_9 N3_9 1_555 1_555
O9_9 H3_9 1_555 1_555
O9_9 H4_9 1_555 1_555
O10_8 H7_8 1_555 1_555
O10_8 H8_8 1_555 1_555
Er3_5 O2_5 1_555 1_555
Er6_6 N1_9 1_555 1_555
C3_9 C4_9 1_555 1_555
C4_9 O1_9 1_555 1_555
N1_9 C1_9 1_555 1_555
O1_9 Er6_6 1_555 1_555
O11_9 Er6_6 1_555 1_555
N5_5 Er6_6 1_555 1_555
O14_5 Er6_6 1_555 1_555
O15_5 Er6_6 1_555 1_555
O17_5 Er6_6 1_555 1_555
C3_9 N1_9 1_555 1_555
O11_9 H5_9 1_555 1_555
O11_9 H6_9 1_555 1_555
Er6_5 N1_10 1_555 1_555
C3_10 C4_10 1_555 1_555
C4_10 O1_10 1_555 1_555
N1_10 C1_10 1_555 1_555
O1_10 Er6_5 1_555 1_555
O2_6 C4_10 1_555 1_555
O11_10 Er6_5 1_555 1_555
Er3_6 O2_6 1_555 1_555
N5_6 Er6_5 1_555 1_555
O14_6 Er6_5 1_555 1_555
C3_10 N1_10 1_555 1_555
O11_10 H5_10 1_555 1_555
O11_10 H6_10 1_555 1_555
Er1_6 N2_10 1_555 1_555
C5_10 C2_10 1_555 1_555
C6_10 H2_10 1_555 1_555
C7_10 C8_10 1_555 1_555
C8_10 C9_10 1_555 1_555
C9_10 O5_6 1_555 1_555
C10_10 C7_10 1_555 1_555
N3_10 Er1_6 1_555 1_555
N4_6 C6_10 1_555 1_555
O3_6 C5_10 1_555 1_555
O4_10 Er1_6 1_555 1_555
O15_5 C9_10 1_555 1_555
O17_5 C10_10 1_555 1_555
O18_5 Er1_6 1_555 1_555
O9_10 Er1_6 1_555 1_555
O10_9 Er1_6 1_555 1_555
O12_6 Er1_6 1_555 1_555
O13_6 Er1_6 1_555 1_555
C2_10 N2_10 1_555 1_555
C5_10 O4_10 1_555 1_555
C6_10 N3_10 1_555 1_555
C7_10 N3_10 1_555 1_555
C8_10 N4_6 1_555 1_555
C10_10 O18_5 1_555 1_555
O9_10 H3_10 1_555 1_555
O9_10 H4_10 1_555 1_555
O10_9 H7_9 1_555 1_555
O10_9 H8_9 1_555 1_555
Er3_6 N2_11 1_555 1_555
Er6_4 N1_11 1_555 1_555
C2_11 C3_11 1_555 1_555
C3_11 C4_11 1_555 1_555
C4_11 O1_11 1_555 1_555
C5_11 C2_11 1_555 1_555
N1_11 C1_11 1_555 1_555
N2_11 C1_11 1_555 1_555
O1_11 Er6_4 1_555 1_555
O12_5 C4_11 1_555 1_555
O13_5 C5_11 1_555 1_555
O4_11 Er3_6 1_555 1_555
O18_4 Er3_6 1_555 1_555
O11_11 Er6_4 1_555 1_555
O15_6 Er6_4 1_555 1_555
O17_3 Er6_4 1_555 1_555
C2_11 N2_11 1_555 1_555
C3_11 N1_11 1_555 1_555
C5_11 O4_11 1_555 1_555
O11_11 H5_11 1_555 1_555
O11_11 H6_11 1_555 1_555
C6_11 H2_11 1_555 1_555
C7_11 C8_11 1_555 1_555
C8_11 C9_11 1_555 1_555
C9_11 O14_5 1_555 1_555
C10_11 C7_11 1_555 1_555
N5_5 C6_11 1_555 1_555
O6_6 C9_11 1_555 1_555
O17_4 C10_11 1_555 1_555
C6_11 N3_11 1_555 1_555
C7_11 N3_11 1_555 1_555
C8_11 N5_5 1_555 1_555
O9_11 H3_11 1_555 1_555
O9_11 H4_11 1_555 1_555
C6_12 H2_12 1_555 1_555
C7_12 C8_12 1_555 1_555
C8_12 C9_12 1_555 1_555
C9_12 O14_6 1_555 1_555
C10_12 C7_12 1_555 1_555
N5_6 C6_12 1_555 1_555
O15_6 C9_12 1_555 1_555
O17_3 C10_12 1_555 1_555
C6_12 N3_12 1_555 1_555
C7_12 N3_12 1_555 1_555
C8_12 N5_6 1_555 1_555
O10_10 H7_10 1_555 1_555
O10_10 H8_10 1_555 1_555
Er3_5 N2_12 1_555 1_555
Er6_3 N1_12 1_555 1_555
C2_12 C3_12 1_555 1_555
C3_12 C4_12 1_555 1_555
C4_12 O1_12 1_555 1_555
C5_12 C2_12 1_555 1_555
N1_12 C1_12 1_555 1_555
N2_12 C1_12 1_555 1_555
O1_12 Er6_3 1_555 1_555
O12_6 C4_12 1_555 1_555
O13_6 C5_12 1_555 1_555
O4_12 Er3_5 1_555 1_555
O18_3 Er3_5 1_555 1_555
O9_12 Er3_5 1_555 1_555
C2_12 N2_12 1_555 1_555
C3_12 N1_12 1_555 1_555
C5_12 O4_12 1_555 1_555
O9_12 H3_12 1_555 1_555
O9_12 H4_12 1_555 1_555
O11_12 H6_12 1_555 1_555
Er1_7 N2_13 1_555 1_555
Er6_2 N1_13 1_555 1_555
C1_13 H1_13 1_555 1_555
C2_13 C3_13 1_555 1_555
C3_13 C4_13 1_555 1_555
C4_13 O1_13 1_555 1_555
C5_13 C2_13 1_555 1_555
C6_13 H2_13 1_555 1_555
C7_13 C8_13 1_555 1_555
C8_13 C9_13 1_555 1_555
C9_13 O5_7 1_555 1_555
C10_13 C7_13 1_555 1_555
N1_13 C1_13 1_555 1_555
N2_13 C1_13 1_555 1_555
N3_13 Er1_7 1_555 1_555
N4_7 C6_13 1_555 1_555
O1_13 Er6_2 1_555 1_555
O2_7 C4_13 1_555 1_555
O3_7 C5_13 1_555 1_555
O4_13 Er1_7 1_555 1_555
O5_7 Er6_7 1_555 1_555
O6_7 C9_13 1_555 1_555
O17_2 C10_13 1_555 1_555
O18_2 Er1_7 1_555 1_555
O9_13 Er1_7 1_555 1_555
O10_11 Er1_7 1_555 1_555
O11_13 Er6_2 1_555 1_555
Er3_7 O2_7 1_555 1_555
Er6_7 N4_7 1_555 1_555
Er6 O6_7 1_555 1_555
N5_7 Er6_2 1_555 1_555
O12_7 Er1_7 1_555 1_555
O13_7 Er1_7 1_555 1_555
O14_7 Er6_2 1_555 1_555
O15_7 Er6_2 1_555 1_555
O17 Er6_2 1_555 1_555
C2_13 N2_13 1_555 1_555
C3_13 N1_13 1_555 1_555
C5_13 O4_13 1_555 1_555
C6_13 N3_13 1_555 1_555
C7_13 N3_13 1_555 1_555
C8_13 N4_7 1_555 1_555
C10_13 O18_2 1_555 1_555
O3_7 Er3_7 1_555 1_555
O17_2 Er6 1_555 1_555
O9_13 H3_13 1_555 1_555
O9_13 H4_13 1_555 1_555
O11_13 H5_13 1_555 1_555
O11_13 H6_13 1_555 1_555
O10_11 H7_11 1_555 1_555
O10_11 H8_11 1_555 1_555
C7_14 C8_14 1_555 1_555
C8_14 C9_14 1_555 1_555
C9_14 O5_8 1_555 1_555
C10_14 C7_14 1_555 1_555
O3_8 C5_14 1_555 1_555
O5_8 Er6_8 1_555 1_555
O15_7 C9_14 1_555 1_555
O17 C10_14 1_555 1_555
Er3_8 O2_8 1_555 1_555
Er6_8 N4_8 1_555 1_555
C8_14 N4_8 1_555 1_555
C10_14 O18 1_555 1_555
O3_8 Er3_8 1_555 1_555
Er1_8 N2_14 1_555 1_555
Er6 N1_14 1_555 1_555
C1_14 H1_14 1_555 1_555
C2_14 C3_14 1_555 1_555
C3_14 C4_14 1_555 1_555
C4_14 O1_14 1_555 1_555
C6_14 H2_14 1_555 1_555
N1_14 C1_14 1_555 1_555
N2_14 C1_14 1_555 1_555
N3_14 Er1_8 1_555 1_555
O1_14 Er6 1_555 1_555
O4_14 Er1_8 1_555 1_555
O9_14 Er1_8 1_555 1_555
O10_12 Er1_8 1_555 1_555
O11_14 Er6 1_555 1_555
N5_8 Er6 1_555 1_555
O12_8 Er1_8 1_555 1_555
O13_8 Er1_8 1_555 1_555
O14_8 Er6 1_555 1_555
C2_14 N2_14 1_555 1_555
C3_14 N1_14 1_555 1_555
C6_14 N3_14 1_555 1_555
O9_14 H3_14 1_555 1_555
O9_14 H4_14 1_555 1_555
O11_14 H5_14 1_555 1_555
O11_14 H6_14 1_555 1_555
O10_12 H7_12 1_555 1_555
O10_12 H8_12 1_555 1_555
O11_15 H6_15 1_555 1_555
Er3_8 N2_15 1_555 1_555
Er6_8 N1_15 1_555 1_555
C1_15 H1_15 1_555 1_555
C2_15 C3_15 1_555 1_555
C3_15 C4_15 1_555 1_555
C4_15 O1_15 1_555 1_555
C5_15 C2_15 1_555 1_555
C6_15 H2_15 1_555 1_555
C7_15 C8_15 1_555 1_555
C8_15 C9_15 1_555 1_555
C9_15 O14_7 1_555 1_555
C10_15 C7_15 1_555 1_555
N1_15 C1_15 1_555 1_555
N2_15 C1_15 1_555 1_555
N3_15 Er3_8 1_555 1_555
N5_7 C6_15 1_555 1_555
O1_15 Er6_8 1_555 1_555
O12_7 C4_15 1_555 1_555
O13_7 C5_15 1_555 1_555
O4_15 Er3_8 1_555 1_555
O6_8 C9_15 1_555 1_555
O17_8 C10_15 1_555 1_555
O18_8 Er3_8 1_555 1_555
O9_15 Er3_8 1_555 1_555
O10_13 Er3_8 1_555 1_555
Er6_7 O6_8 1_555 1_555
C2_15 N2_15 1_555 1_555
C3_15 N1_15 1_555 1_555
C5_15 O4_15 1_555 1_555
C6_15 N3_15 1_555 1_555
C7_15 N3_15 1_555 1_555
C8_15 N5_7 1_555 1_555
C10_15 O18_8 1_555 1_555
O17_8 Er6_7 1_555 1_555
O9_15 H3_15 1_555 1_555
O9_15 H4_15 1_555 1_555
O10_13 H7_13 1_555 1_555
O10_13 H8_13 1_555 1_555
O9_16 H3_16 1_555 1_555
O9_16 H4_16 1_555 1_555
O10_14 H7_14 1_555 1_555
O10_14 H8_14 1_555 1_555
Er3_7 N2_16 1_555 1_555
Er6_7 N1_16 1_555 1_555
C1_16 H1_16 1_555 1_555
C2_16 C3_16 1_555 1_555
C3_16 C4_16 1_555 1_555
C4_16 O1_16 1_555 1_555
C5_16 C2_16 1_555 1_555
C6_16 H2_16 1_555 1_555
C7_16 C8_16 1_555 1_555
C8_16 C9_16 1_555 1_555
C9_16 O14_8 1_555 1_555
C10_16 C7_16 1_555 1_555
N1_16 C1_16 1_555 1_555
N2_16 C1_16 1_555 1_555
N3_16 Er3_7 1_555 1_555
N5_8 C6_16 1_555 1_555
O1_16 Er6_7 1_555 1_555
O12_8 C4_16 1_555 1_555
O13_8 C5_16 1_555 1_555
O4_16 Er3_7 1_555 1_555
O15_8 C9_16 1_555 1_555
O17_7 C10_16 1_555 1_555
O18_7 Er3_7 1_555 1_555
O11_16 Er6_7 1_555 1_555
C2_16 N2_16 1_555 1_555
C3_16 N1_16 1_555 1_555
C5_16 O4_16 1_555 1_555
C6_16 N3_16 1_555 1_555
C7_16 N3_16 1_555 1_555
C8_16 N5_8 1_555 1_555
C10_16 O18_7 1_555 1_555
O11_16 H5_16 1_555 1_555
O11_16 H6_16 1_555 1_555
O10_15 H7_15 1_555 1_555
O10_15 H8_15 1_555 1_555
O10_16 H7_16 1_555 1_555
O10_16 H8_16 1_555 1_555

#END
