
###############################################################################
#
# This file contains modified crystal structure data generated from the
# MOF subset of the Cambridge Structural Database (CSD) v543 
# hosted by the Cambridge Crystallographic Data Centre (CCDC).
#
# This work is licensed under the Creative Commons
# Attribution-NonCommercial-ShareAlike 4.0 International License.
# To view a copy of this license, visit
# http://creativecommons.org/licenses/by-nc-sa/4.0/
# or send a letter to
# Creative Commons, PO Box 1866, Mountain View, CA 94042, USA.
#
# CIF created using the CSD Python API on 29 September 2022
# The structure has been converted into the P1 space group
# The structure has a 3D framework
# The original CSD entry PEHBIO is in the cubic crystal system
# The framework has been calculated to contain at least 10.0% void space
# The void calculation uses a probe of radius 1.32A, grid spacing 0.4
#
###############################################################################

data_PEHBIO
_chemical_formula_moiety         '(C576 H800 B32 Fe35 N288 O384 Rh96)n'
_symmetry_cell_setting           triclinic
_symmetry_space_group_name_H-M   'P 1'
_symmetry_Int_Tables_number      1
_space_group_name_Hall           'P 1'
loop_
_symmetry_equiv_pos_site_id
_symmetry_equiv_pos_as_xyz
1 x,y,z
_cell_length_a                   34.8205(6)
_cell_length_b                   34.8205(6)
_cell_length_c                   34.8205(6)
_cell_angle_alpha                90
_cell_angle_beta                 90
_cell_angle_gamma                90
_cell_volume                     42218.7
loop_
_atom_site_label
_atom_site_type_symbol
_atom_site_fract_x
_atom_site_fract_y
_atom_site_fract_z
Rh1 Rh 0.107466(10) 0.587425(10) 0.620832(11)
Fe1 Fe -0.0000 0.5000 0.5000
O1 O 0.14417(11) 0.60351(12) 0.57836(10)
O2 O 0.14399(12) 0.54440(11) 0.63552(14)
O3 O 0.17615(12) 0.58384(12) 0.67619(11)
O4 O 0.17703(10) 0.64284(11) 0.61829(11)
N1 N 0.03617(9) 0.51731(10) 0.54140(9)
N2 N 0.05740(9) 0.49085(10) 0.56095(10)
N3 N 0.07453(12) 0.54669(12) 0.58274(12)
C1 C 0.04740(12) 0.55092(13) 0.55605(12)
H1 H 0.0372 0.5750 0.5483
C2 C 0.07961(14) 0.50918(14) 0.58520(14)
H2 H 0.0971 0.4971 0.6023
C3 C 0.1689(2) 0.5511(2) 0.66050(19)
C4 C 0.1951(3) 0.5185(3) 0.6735(2)
H3 H 0.2130 0.5120 0.6527
H4 H 0.1796 0.4959 0.6798
H5 H 0.2097 0.5266 0.6962
C5 C 0.17032(18) 0.62690(19) 0.5859(2)
C6 C 0.1971(3) 0.6385(3) 0.5539(3)
H6 H 0.2085 0.6154 0.5424
H7 H 0.2176 0.6548 0.5642
H8 H 0.1828 0.6526 0.5343
B1 B 0.05160(16) 0.44840(16) 0.55160(16)
H9 H 0.0682 0.4318 0.5682
Rh3 Rh 0.120832(11) 0.392534(10) 0.412575(10)
Rh6 Rh 0.087425(10) 0.620832(11) 0.392534(10)
Rh7 Rh 0.142534(10) 0.629168(11) 0.662575(10)
Rh9 Rh 0.162575(10) 0.357466(10) 0.370832(11)
O5 O 0.10583(11) 0.67164(10) 0.64649(12)
O8 O 0.07836(10) 0.35583(11) 0.39649(12)
O9 O 0.14649(12) 0.39417(11) 0.32836(10)
O10 O 0.10601(12) 0.61448(14) 0.70560(11)
O13 O 0.13552(14) 0.35601(12) 0.45560(11)
O14 O 0.20560(11) 0.39399(12) 0.38552(14)
O15 O 0.07385(12) 0.57381(11) 0.66616(12)
O18 O 0.17619(11) 0.32385(12) 0.41616(12)
O19 O 0.16616(12) 0.42615(12) 0.42619(11)
O20 O 0.07297(10) 0.63171(11) 0.60716(11)
O23 O 0.11829(11) 0.32297(10) 0.35716(11)
O24 O 0.10716(11) 0.42703(10) 0.36829(11)
N5 N 0.04140(9) 0.46383(9) 0.48269(10)
N8 N 0.01731(10) 0.54140(9) 0.46383(9)
N9 N 0.00915(10) 0.43905(10) 0.55740(9)
N10 N 0.06095(10) 0.44260(9) 0.50915(10)
N15 N 0.08274(12) 0.42547(12) 0.45331(12)
N18 N 0.04669(12) 0.58274(12) 0.42547(12)
N19 N 0.17547(12) 0.66726(12) 0.70331(12)
N21 N 0.20331(12) 0.32453(12) 0.33274(12)
C8 C 0.05605(12) 0.45260(12) 0.44908(13)
C11 C 0.05092(13) 0.55605(12) 0.45260(12)
H11 H 0.0483 0.4628 0.4250
H14 H 0.0750 0.5483 0.4628
C13 C 0.08520(14) 0.42039(14) 0.49082(14)
C16 C 0.00918(14) 0.58520(14) 0.42039(14)
H15 H 0.0029 0.3977 0.5971
H16 H 0.1023 0.4029 0.5029
C17 C 0.0811(2) 0.58950(19) 0.6989(2)
C20 C 0.16050(19) 0.3311(2) 0.4489(2)
C21 C 0.1989(2) 0.4189(2) 0.41050(19)
C22 C 0.0549(3) 0.5765(2) 0.7315(3)
C25 C 0.1735(2) 0.3049(3) 0.4815(3)
C26 C 0.2315(3) 0.4451(3) 0.4235(2)
H20 H 0.0370 0.5973 0.7380
H23 H 0.1527 0.2870 0.4880
H24 H 0.2380 0.4630 0.4027
H25 H 0.0704 0.5702 0.7541
H26 H 0.0041 0.3202 0.6796
H28 H 0.1798 0.3204 0.5041
H29 H 0.2541 0.4296 0.4298
H30 H 0.0403 0.5538 0.7234
H33 H 0.1962 0.2903 0.4734
H34 H 0.2234 0.4597 0.4462
C27 C 0.07968(18) 0.6641(2) 0.62310(19)
C30 C 0.0859(2) 0.32968(18) 0.37310(19)
C31 C 0.12310(19) 0.42032(18) 0.3359(2)
C32 C 0.0529(3) 0.6961(3) 0.6115(3)
C35 C 0.0539(3) 0.3029(3) 0.3615(3)
C36 C 0.1115(3) 0.4471(3) 0.3039(3)
H35 H 0.0415 0.7076 0.6346
H38 H 0.0424 0.2915 0.3846
H39 H 0.1346 0.4585 0.2924
H40 H 0.0324 0.6858 0.5952
H43 H 0.0642 0.2824 0.3452
H44 H 0.0952 0.4676 0.3142
H45 H 0.0672 0.7157 0.5974
H48 H 0.0343 0.3172 0.3474
H49 H 0.0974 0.4328 0.2843
Fe1_2 Fe 1.0000 0.5000 0.5000
Rh2 Rh 0.912575(10) 0.379168(11) 0.607466(10)
Rh4 Rh 0.879168(11) 0.607466(10) 0.587425(10)
Rh5 Rh 0.892534(10) 0.412575(10) 0.379168(11)
Rh8 Rh 0.870832(11) 0.337425(10) 0.642534(10)
O6 O 0.89649(12) 0.42164(10) 0.64417(11)
O7 O 0.82836(10) 0.35351(12) 0.60583(11)
O11 O 0.95560(11) 0.36448(14) 0.64399(12)
O12 O 0.88552(14) 0.29440(11) 0.60601(12)
O16 O 0.91616(12) 0.32381(11) 0.67615(12)
O17 O 0.92619(11) 0.33384(12) 0.57385(12)
O21 O 0.85716(11) 0.38171(11) 0.67703(10)
O22 O 0.86829(11) 0.39284(11) 0.57297(10)
N4 N 0.98269(10) 0.45860(9) 0.53617(9)
N6 N 0.95860(9) 0.53617(9) 0.51731(10)
N7 N 0.96383(9) 0.48269(10) 0.45860(9)
N11 N 0.93905(10) 0.55740(9) 0.49085(10)
N12 N 0.94260(9) 0.50915(10) 0.43905(10)
N13 N 0.99085(10) 0.56095(10) 0.44260(9)
N14 N 0.95331(12) 0.41726(12) 0.57453(12)
N16 N 0.91726(12) 0.57453(12) 0.54669(12)
N17 N 0.92547(12) 0.45331(12) 0.41726(12)
N20 N 0.83274(12) 0.29669(12) 0.67547(12)
C7 C 0.94908(13) 0.44395(12) 0.54740(12)
C9 C 0.94395(12) 0.54740(12) 0.55092(13)
C10 C 0.95260(12) 0.44908(13) 0.44395(12)
H10 H 0.9250 0.4517 0.5372
H12 H 0.9517 0.5372 0.5750
H13 H 0.9628 0.4250 0.4517
C12 C 0.99082(14) 0.41480(14) 0.57961(14)
C14 C 0.91480(14) 0.57961(14) 0.50918(14)
C15 C 0.92039(14) 0.49082(14) 0.41480(14)
H17 H 0.8977 0.5971 0.4971
H18 H 0.9029 0.5029 0.3977
H19 H 0.9971 0.6023 0.4029
C18 C 0.9489(2) 0.33950(19) 0.6689(2)
C19 C 0.91050(19) 0.3011(2) 0.5811(2)
C23 C 0.9815(3) 0.3265(2) 0.6951(3)
C24 C 0.9235(2) 0.2685(3) 0.5549(3)
H21 H 0.9880 0.3473 0.7130
H22 H 0.9027 0.2620 0.5370
H27 H 0.9298 0.2459 0.5704
H31 H 0.9734 0.3038 0.7097
H32 H 0.9462 0.2766 0.5403
C28 C 0.87310(19) 0.4141(2) 0.67032(18)
C29 C 0.8359(2) 0.37690(19) 0.57968(18)
C33 C 0.8615(3) 0.4461(3) 0.6971(3)
C34 C 0.8039(3) 0.3885(3) 0.5529(3)
H36 H 0.8846 0.4576 0.7085
H37 H 0.7924 0.3654 0.5415
H41 H 0.8452 0.4358 0.7176
H42 H 0.8142 0.4048 0.5324
H46 H 0.8474 0.4657 0.6828
H47 H 0.7843 0.4026 0.5672
B2 B 0.94840(16) 0.55160(16) 0.44840(16)
H50 H 0.9318 0.5682 0.4318
Rh1_2 Rh 0.620832(11) 0.107466(10) 0.587425(10)
Fe1_3 Fe 0.5000 -0.0000 0.5000
O1_2 O 0.57836(10) 0.14417(11) 0.60351(12)
O2_2 O 0.63552(14) 0.14399(12) 0.54440(11)
O3_2 O 0.67619(11) 0.17615(12) 0.58384(12)
O4_2 O 0.61829(11) 0.17703(10) 0.64284(11)
N1_2 N 0.54140(9) 0.03617(9) 0.51731(10)
N2_2 N 0.56095(10) 0.05740(9) 0.49085(10)
N3_2 N 0.58274(12) 0.07453(12) 0.54669(12)
C1_2 C 0.55605(12) 0.04740(12) 0.55092(13)
H1_2 H 0.5483 0.0372 0.5750
C2_2 C 0.58520(14) 0.07961(14) 0.50918(14)
H2_2 H 0.6023 0.0971 0.4971
C3_2 C 0.66050(19) 0.1689(2) 0.5511(2)
C4_2 C 0.6735(2) 0.1951(3) 0.5185(3)
H3_2 H 0.6527 0.2130 0.5120
H4_2 H 0.6798 0.1796 0.4959
H5_2 H 0.6962 0.2097 0.5266
C5_2 C 0.5859(2) 0.17032(18) 0.62690(19)
C6_2 C 0.5539(3) 0.1971(3) 0.6385(3)
H6_2 H 0.5424 0.2085 0.6154
H7_2 H 0.5642 0.2176 0.6548
H8_2 H 0.5343 0.1828 0.6526
B1_2 B 0.55160(16) 0.05160(16) 0.44840(16)
H9_2 H 0.5682 0.0682 0.4318
Rh3_2 Rh 0.412575(10) 0.120832(11) 0.392534(10)
Rh6_2 Rh 0.392534(10) 0.087425(10) 0.620832(11)
Rh7_2 Rh 0.662575(10) 0.142534(10) 0.629168(11)
Rh9_2 Rh 0.370832(11) 0.162575(10) 0.357466(10)
O5_2 O 0.64649(12) 0.10583(11) 0.67164(10)
O8_2 O 0.39649(12) 0.07836(10) 0.35583(11)
O9_2 O 0.32836(10) 0.14649(12) 0.39417(11)
O10_2 O 0.70560(11) 0.10601(12) 0.61448(14)
O13_2 O 0.45560(11) 0.13552(14) 0.35601(12)
O14_2 O 0.38552(14) 0.20560(11) 0.39399(12)
O15_2 O 0.66616(12) 0.07385(12) 0.57381(11)
O18_2 O 0.41616(12) 0.17619(11) 0.32385(12)
O19_2 O 0.42619(11) 0.16616(12) 0.42615(12)
O20_2 O 0.60716(11) 0.07297(10) 0.63171(11)
O23_2 O 0.35716(11) 0.11829(11) 0.32297(10)
O24_2 O 0.36829(11) 0.10716(11) 0.42703(10)
N5_2 N 0.48269(10) 0.04140(9) 0.46383(9)
N8_2 N 0.46383(9) 0.01731(10) 0.54140(9)
N9_2 N 0.55740(9) 0.00915(10) 0.43905(10)
N10_2 N 0.50915(10) 0.06095(10) 0.44260(9)
N15_2 N 0.45331(12) 0.08274(12) 0.42547(12)
N18_2 N 0.42547(12) 0.04669(12) 0.58274(12)
N19_2 N 0.70331(12) 0.17547(12) 0.66726(12)
N21_2 N 0.33274(12) 0.20331(12) 0.32453(12)
C8_2 C 0.44908(13) 0.05605(12) 0.45260(12)
C11_2 C 0.45260(12) 0.05092(13) 0.55605(12)
H11_2 H 0.4250 0.0483 0.4628
H14_2 H 0.4628 0.0750 0.5483
C13_2 C 0.49082(14) 0.08520(14) 0.42039(14)
C16_2 C 0.42039(14) 0.00918(14) 0.58520(14)
H15_2 H 0.5971 0.0029 0.3977
H16_2 H 0.5029 0.1023 0.4029
C17_2 C 0.6989(2) 0.0811(2) 0.58950(19)
C20_2 C 0.4489(2) 0.16050(19) 0.3311(2)
C21_2 C 0.41050(19) 0.1989(2) 0.4189(2)
C22_2 C 0.7315(3) 0.0549(3) 0.5765(2)
C25_2 C 0.4815(3) 0.1735(2) 0.3049(3)
C26_2 C 0.4235(2) 0.2315(3) 0.4451(3)
H20_2 H 0.7380 0.0370 0.5973
H23_2 H 0.4880 0.1527 0.2870
H24_2 H 0.4027 0.2380 0.4630
H25_2 H 0.7541 0.0704 0.5702
H26_2 H 0.6796 0.0041 0.3202
H28_2 H 0.5041 0.1798 0.3204
H29_2 H 0.4298 0.2541 0.4296
H30_2 H 0.7234 0.0403 0.5538
H33_2 H 0.4734 0.1962 0.2903
H34_2 H 0.4462 0.2234 0.4597
C27_2 C 0.62310(19) 0.07968(18) 0.6641(2)
C30_2 C 0.37310(19) 0.0859(2) 0.32968(18)
C31_2 C 0.3359(2) 0.12310(19) 0.42032(18)
C32_2 C 0.6115(3) 0.0529(3) 0.6961(3)
C35_2 C 0.3615(3) 0.0539(3) 0.3029(3)
C36_2 C 0.3039(3) 0.1115(3) 0.4471(3)
H35_2 H 0.6346 0.0415 0.7076
H38_2 H 0.3846 0.0424 0.2915
H39_2 H 0.2924 0.1346 0.4585
H40_2 H 0.5952 0.0324 0.6858
H43_2 H 0.3452 0.0642 0.2824
H44_2 H 0.3142 0.0952 0.4676
H45_2 H 0.5974 0.0672 0.7157
H48_2 H 0.3474 0.0343 0.3172
H49_2 H 0.2843 0.0974 0.4328
Fe1_4 Fe 0.5000 1.0000 0.5000
Rh2_2 Rh 0.607466(10) 0.912575(10) 0.379168(11)
Rh4_2 Rh 0.587425(10) 0.879168(11) 0.607466(10)
Rh5_2 Rh 0.379168(11) 0.892534(10) 0.412575(10)
Rh8_2 Rh 0.642534(10) 0.870832(11) 0.337425(10)
O6_2 O 0.64417(11) 0.89649(12) 0.42164(10)
O7_2 O 0.60583(11) 0.82836(10) 0.35351(12)
O11_2 O 0.64399(12) 0.95560(11) 0.36448(14)
O12_2 O 0.60601(12) 0.88552(14) 0.29440(11)
O16_2 O 0.67615(12) 0.91616(12) 0.32381(11)
O17_2 O 0.57385(12) 0.92619(11) 0.33384(12)
O21_2 O 0.67703(10) 0.85716(11) 0.38171(11)
O22_2 O 0.57297(10) 0.86829(11) 0.39284(11)
N4_2 N 0.53617(9) 0.98269(10) 0.45860(9)
N6_2 N 0.51731(10) 0.95860(9) 0.53617(9)
N7_2 N 0.45860(9) 0.96383(9) 0.48269(10)
N11_2 N 0.49085(10) 0.93905(10) 0.55740(9)
N12_2 N 0.43905(10) 0.94260(9) 0.50915(10)
N13_2 N 0.44260(9) 0.99085(10) 0.56095(10)
N14_2 N 0.57453(12) 0.95331(12) 0.41726(12)
N16_2 N 0.54669(12) 0.91726(12) 0.57453(12)
N17_2 N 0.41726(12) 0.92547(12) 0.45331(12)
N20_2 N 0.67547(12) 0.83274(12) 0.29669(12)
C7_2 C 0.54740(12) 0.94908(13) 0.44395(12)
C9_2 C 0.55092(13) 0.94395(12) 0.54740(12)
C10_2 C 0.44395(12) 0.95260(12) 0.44908(13)
H10_2 H 0.5372 0.9250 0.4517
H12_2 H 0.5750 0.9517 0.5372
H13_2 H 0.4517 0.9628 0.4250
C12_2 C 0.57961(14) 0.99082(14) 0.41480(14)
C14_2 C 0.50918(14) 0.91480(14) 0.57961(14)
C15_2 C 0.41480(14) 0.92039(14) 0.49082(14)
H17_2 H 0.4971 0.8977 0.5971
H18_2 H 0.3977 0.9029 0.5029
H19_2 H 0.4029 0.9971 0.6023
C18_2 C 0.6689(2) 0.9489(2) 0.33950(19)
C19_2 C 0.5811(2) 0.91050(19) 0.3011(2)
C23_2 C 0.6951(3) 0.9815(3) 0.3265(2)
C24_2 C 0.5549(3) 0.9235(2) 0.2685(3)
H21_2 H 0.7130 0.9880 0.3473
H22_2 H 0.5370 0.9027 0.2620
H27_2 H 0.5704 0.9298 0.2459
H31_2 H 0.7097 0.9734 0.3038
H32_2 H 0.5403 0.9462 0.2766
C28_2 C 0.67032(18) 0.87310(19) 0.4141(2)
C29_2 C 0.57968(18) 0.8359(2) 0.37690(19)
C33_2 C 0.6971(3) 0.8615(3) 0.4461(3)
C34_2 C 0.5529(3) 0.8039(3) 0.3885(3)
H36_2 H 0.7085 0.8846 0.4576
H37_2 H 0.5415 0.7924 0.3654
H41_2 H 0.7176 0.8452 0.4358
H42_2 H 0.5324 0.8142 0.4048
H46_2 H 0.6828 0.8474 0.4657
H47_2 H 0.5672 0.7843 0.4026
B2_2 B 0.44840(16) 0.94840(16) 0.55160(16)
H50_2 H 0.4318 0.9318 0.5682
Rh1_3 Rh 0.587425(10) 0.620832(11) 0.107466(10)
Fe1_5 Fe 0.5000 0.5000 -0.0000
O1_3 O 0.60351(12) 0.57836(10) 0.14417(11)
O2_3 O 0.54440(11) 0.63552(14) 0.14399(12)
O3_3 O 0.58384(12) 0.67619(11) 0.17615(12)
O4_3 O 0.64284(11) 0.61829(11) 0.17703(10)
N1_3 N 0.51731(10) 0.54140(9) 0.03617(9)
N2_3 N 0.49085(10) 0.56095(10) 0.05740(9)
N3_3 N 0.54669(12) 0.58274(12) 0.07453(12)
C1_3 C 0.55092(13) 0.55605(12) 0.04740(12)
H1_3 H 0.5750 0.5483 0.0372
C2_3 C 0.50918(14) 0.58520(14) 0.07961(14)
H2_3 H 0.4971 0.6023 0.0971
C3_3 C 0.5511(2) 0.66050(19) 0.1689(2)
C4_3 C 0.5185(3) 0.6735(2) 0.1951(3)
H3_3 H 0.5120 0.6527 0.2130
H4_3 H 0.4959 0.6798 0.1796
H5_3 H 0.5266 0.6962 0.2097
C5_3 C 0.62690(19) 0.5859(2) 0.17032(18)
C6_3 C 0.6385(3) 0.5539(3) 0.1971(3)
H6_3 H 0.6154 0.5424 0.2085
H7_3 H 0.6548 0.5642 0.2176
H8_3 H 0.6526 0.5343 0.1828
B1_3 B 0.44840(16) 0.55160(16) 0.05160(16)
H9_3 H 0.4318 0.5682 0.0682
Rh3_3 Rh 0.392534(10) 0.412575(10) 0.120832(11)
Rh6_3 Rh 0.620832(11) 0.392534(10) 0.087425(10)
Rh7_3 Rh 0.629168(11) 0.662575(10) 0.142534(10)
Rh9_3 Rh 0.357466(10) 0.370832(11) 0.162575(10)
O5_3 O 0.67164(10) 0.64649(12) 0.10583(11)
O8_3 O 0.35583(11) 0.39649(12) 0.07836(10)
O9_3 O 0.39417(11) 0.32836(10) 0.14649(12)
O10_3 O 0.61448(14) 0.70560(11) 0.10601(12)
O13_3 O 0.35601(12) 0.45560(11) 0.13552(14)
O14_3 O 0.39399(12) 0.38552(14) 0.20560(11)
O15_3 O 0.57381(11) 0.66616(12) 0.07385(12)
O18_3 O 0.32385(12) 0.41616(12) 0.17619(11)
O19_3 O 0.42615(12) 0.42619(11) 0.16616(12)
O20_3 O 0.63171(11) 0.60716(11) 0.07297(10)
O23_3 O 0.32297(10) 0.35716(11) 0.11829(11)
O24_3 O 0.42703(10) 0.36829(11) 0.10716(11)
N5_3 N 0.46383(9) 0.48269(10) 0.04140(9)
N8_3 N 0.54140(9) 0.46383(9) 0.01731(10)
N9_3 N 0.43905(10) 0.55740(9) 0.00915(10)
N10_3 N 0.44260(9) 0.50915(10) 0.06095(10)
N15_3 N 0.42547(12) 0.45331(12) 0.08274(12)
N18_3 N 0.58274(12) 0.42547(12) 0.04669(12)
N19_3 N 0.66726(12) 0.70331(12) 0.17547(12)
N21_3 N 0.32453(12) 0.33274(12) 0.20331(12)
C8_3 C 0.45260(12) 0.44908(13) 0.05605(12)
C11_3 C 0.55605(12) 0.45260(12) 0.05092(13)
H11_3 H 0.4628 0.4250 0.0483
H14_3 H 0.5483 0.4628 0.0750
C13_3 C 0.42039(14) 0.49082(14) 0.08520(14)
C16_3 C 0.58520(14) 0.42039(14) 0.00918(14)
H15_3 H 0.3977 0.5971 0.0029
H16_3 H 0.4029 0.5029 0.1023
C17_3 C 0.58950(19) 0.6989(2) 0.0811(2)
C20_3 C 0.3311(2) 0.4489(2) 0.16050(19)
C21_3 C 0.4189(2) 0.41050(19) 0.1989(2)
C22_3 C 0.5765(2) 0.7315(3) 0.0549(3)
C25_3 C 0.3049(3) 0.4815(3) 0.1735(2)
C26_3 C 0.4451(3) 0.4235(2) 0.2315(3)
H20_3 H 0.5973 0.7380 0.0370
H23_3 H 0.2870 0.4880 0.1527
H24_3 H 0.4630 0.4027 0.2380
H25_3 H 0.5702 0.7541 0.0704
H26_3 H 0.3202 0.6796 0.0041
H28_3 H 0.3204 0.5041 0.1798
H29_3 H 0.4296 0.4298 0.2541
H30_3 H 0.5538 0.7234 0.0403
H33_3 H 0.2903 0.4734 0.1962
H34_3 H 0.4597 0.4462 0.2234
C27_3 C 0.6641(2) 0.62310(19) 0.07968(18)
C30_3 C 0.32968(18) 0.37310(19) 0.0859(2)
C31_3 C 0.42032(18) 0.3359(2) 0.12310(19)
C32_3 C 0.6961(3) 0.6115(3) 0.0529(3)
C35_3 C 0.3029(3) 0.3615(3) 0.0539(3)
C36_3 C 0.4471(3) 0.3039(3) 0.1115(3)
H35_3 H 0.7076 0.6346 0.0415
H38_3 H 0.2915 0.3846 0.0424
H39_3 H 0.4585 0.2924 0.1346
H40_3 H 0.6858 0.5952 0.0324
H43_3 H 0.2824 0.3452 0.0642
H44_3 H 0.4676 0.3142 0.0952
H45_3 H 0.7157 0.5974 0.0672
H48_3 H 0.3172 0.3474 0.0343
H49_3 H 0.4328 0.2843 0.0974
Fe1_6 Fe 0.5000 0.5000 1.0000
Rh2_3 Rh 0.379168(11) 0.607466(10) 0.912575(10)
Rh4_3 Rh 0.607466(10) 0.587425(10) 0.879168(11)
Rh5_3 Rh 0.412575(10) 0.379168(11) 0.892534(10)
Rh8_3 Rh 0.337425(10) 0.642534(10) 0.870832(11)
O6_3 O 0.42164(10) 0.64417(11) 0.89649(12)
O7_3 O 0.35351(12) 0.60583(11) 0.82836(10)
O11_3 O 0.36448(14) 0.64399(12) 0.95560(11)
O12_3 O 0.29440(11) 0.60601(12) 0.88552(14)
O16_3 O 0.32381(11) 0.67615(12) 0.91616(12)
O17_3 O 0.33384(12) 0.57385(12) 0.92619(11)
O21_3 O 0.38171(11) 0.67703(10) 0.85716(11)
O22_3 O 0.39284(11) 0.57297(10) 0.86829(11)
N4_3 N 0.45860(9) 0.53617(9) 0.98269(10)
N6_3 N 0.53617(9) 0.51731(10) 0.95860(9)
N7_3 N 0.48269(10) 0.45860(9) 0.96383(9)
N11_3 N 0.55740(9) 0.49085(10) 0.93905(10)
N12_3 N 0.50915(10) 0.43905(10) 0.94260(9)
N13_3 N 0.56095(10) 0.44260(9) 0.99085(10)
N14_3 N 0.41726(12) 0.57453(12) 0.95331(12)
N16_3 N 0.57453(12) 0.54669(12) 0.91726(12)
N17_3 N 0.45331(12) 0.41726(12) 0.92547(12)
N20_3 N 0.29669(12) 0.67547(12) 0.83274(12)
C7_3 C 0.44395(12) 0.54740(12) 0.94908(13)
C9_3 C 0.54740(12) 0.55092(13) 0.94395(12)
C10_3 C 0.44908(13) 0.44395(12) 0.95260(12)
H10_3 H 0.4517 0.5372 0.9250
H12_3 H 0.5372 0.5750 0.9517
H13_3 H 0.4250 0.4517 0.9628
C12_3 C 0.41480(14) 0.57961(14) 0.99082(14)
C14_3 C 0.57961(14) 0.50918(14) 0.91480(14)
C15_3 C 0.49082(14) 0.41480(14) 0.92039(14)
H17_3 H 0.5971 0.4971 0.8977
H18_3 H 0.5029 0.3977 0.9029
H19_3 H 0.6023 0.4029 0.9971
C18_3 C 0.33950(19) 0.6689(2) 0.9489(2)
C19_3 C 0.3011(2) 0.5811(2) 0.91050(19)
C23_3 C 0.3265(2) 0.6951(3) 0.9815(3)
C24_3 C 0.2685(3) 0.5549(3) 0.9235(2)
H21_3 H 0.3473 0.7130 0.9880
H22_3 H 0.2620 0.5370 0.9027
H27_3 H 0.2459 0.5704 0.9298
H31_3 H 0.3038 0.7097 0.9734
H32_3 H 0.2766 0.5403 0.9462
C28_3 C 0.4141(2) 0.67032(18) 0.87310(19)
C29_3 C 0.37690(19) 0.57968(18) 0.8359(2)
C33_3 C 0.4461(3) 0.6971(3) 0.8615(3)
C34_3 C 0.3885(3) 0.5529(3) 0.8039(3)
H36_3 H 0.4576 0.7085 0.8846
H37_3 H 0.3654 0.5415 0.7924
H41_3 H 0.4358 0.7176 0.8452
H42_3 H 0.4048 0.5324 0.8142
H46_3 H 0.4657 0.6828 0.8474
H47_3 H 0.4026 0.5672 0.7843
B2_3 B 0.55160(16) 0.44840(16) 0.94840(16)
H50_3 H 0.5682 0.4318 0.9318
Rh1_4 Rh 0.337425(10) 0.357466(10) 0.629168(11)
Fe1_7 Fe 0.2500 0.2500 0.7500
O1_4 O 0.35351(12) 0.39417(11) 0.67164(10)
O2_4 O 0.29440(11) 0.39399(12) 0.61448(14)
O3_4 O 0.33384(12) 0.42615(12) 0.57381(11)
O4_4 O 0.39284(11) 0.42703(10) 0.63171(11)
N1_4 N 0.26731(10) 0.28617(9) 0.70860(9)
N2_4 N 0.24085(10) 0.30740(9) 0.68905(10)
N3_4 N 0.29669(12) 0.32453(12) 0.66726(12)
C1_4 C 0.30092(13) 0.29740(12) 0.69395(12)
H1_4 H 0.3250 0.2872 0.7017
C2_4 C 0.25918(14) 0.32961(14) 0.66480(14)
H2_4 H 0.2471 0.3471 0.6477
C3_4 C 0.3011(2) 0.4189(2) 0.58950(19)
C4_4 C 0.2685(3) 0.4451(3) 0.5765(2)
H3_4 H 0.2620 0.4630 0.5973
H4_4 H 0.2459 0.4296 0.5702
H5_4 H 0.2766 0.4597 0.5538
C5_4 C 0.37690(19) 0.42032(18) 0.6641(2)
C6_4 C 0.3885(3) 0.4471(3) 0.6961(3)
H6_4 H 0.3654 0.4585 0.7076
H7_4 H 0.4048 0.4676 0.6858
H8_4 H 0.4026 0.4328 0.7157
B1_4 B 0.19840(16) 0.30160(16) 0.69840(16)
H9_4 H 0.1818 0.3182 0.6818
Rh2_4 Rh 0.129168(11) 0.162575(10) 0.642534(10)
Rh3_4 Rh 0.142534(10) 0.370832(11) 0.837425(10)
Rh4_4 Rh 0.357466(10) 0.129168(11) 0.662575(10)
Rh5_4 Rh 0.162575(10) 0.142534(10) 0.870832(11)
Rh6_4 Rh 0.370832(11) 0.337425(10) 0.857466(10)
Rh7_4 Rh 0.379168(11) 0.392534(10) 0.587425(10)
Rh8_4 Rh 0.087425(10) 0.120832(11) 0.607466(10)
Rh9_4 Rh 0.107466(10) 0.412575(10) 0.879168(11)
O5_4 O 0.42164(10) 0.35583(11) 0.60351(12)
O6_4 O 0.17164(10) 0.14649(12) 0.60583(11)
O7_4 O 0.10351(12) 0.07836(10) 0.64417(11)
O8_4 O 0.10583(11) 0.32836(10) 0.85351(12)
O9_4 O 0.14417(11) 0.39649(12) 0.92164(10)
O10_4 O 0.36448(14) 0.35601(12) 0.54440(11)
O11_4 O 0.11448(14) 0.20560(11) 0.60601(12)
O12_4 O 0.04440(11) 0.13552(14) 0.64399(12)
O13_4 O 0.10601(12) 0.38552(14) 0.79440(11)
O14_4 O 0.14399(12) 0.45560(11) 0.86448(14)
O15_4 O 0.32381(11) 0.32385(12) 0.58384(12)
O16_4 O 0.07381(11) 0.16616(12) 0.57385(12)
O17_4 O 0.08384(12) 0.17619(11) 0.67615(12)
O18_4 O 0.07385(12) 0.42619(11) 0.83384(12)
O19_4 O 0.17615(12) 0.41616(12) 0.82381(11)
O20_4 O 0.38171(11) 0.32297(10) 0.64284(11)
O21_4 O 0.13171(11) 0.10716(11) 0.57297(10)
O22_4 O 0.14284(11) 0.11829(11) 0.67703(10)
O23_4 O 0.07297(10) 0.36829(11) 0.89284(11)
O24_4 O 0.17703(10) 0.35716(11) 0.88171(11)
N4_4 N 0.20860(9) 0.23269(10) 0.71383(9)
N5_4 N 0.21383(9) 0.29140(9) 0.76731(10)
N6_4 N 0.28617(9) 0.20860(9) 0.73269(10)
N7_4 N 0.23269(10) 0.21383(9) 0.79140(9)
N8_4 N 0.29140(9) 0.26731(10) 0.78617(9)
N9_4 N 0.18905(10) 0.25915(10) 0.69260(9)
N10_4 N 0.19260(9) 0.31095(10) 0.74085(10)
N11_4 N 0.30740(9) 0.18905(10) 0.75915(10)
N12_4 N 0.25915(10) 0.19260(9) 0.81095(10)
N13_4 N 0.31095(10) 0.24085(10) 0.80740(9)
N14_4 N 0.16726(12) 0.20331(12) 0.67547(12)
N15_4 N 0.17547(12) 0.33274(12) 0.79669(12)
N16_4 N 0.32453(12) 0.16726(12) 0.70331(12)
N17_4 N 0.20331(12) 0.17547(12) 0.83274(12)
N18_4 N 0.33274(12) 0.29669(12) 0.82453(12)
N19_4 N 0.41726(12) 0.42547(12) 0.54669(12)
N20_4 N 0.04669(12) 0.08274(12) 0.57453(12)
N21_4 N 0.07453(12) 0.45331(12) 0.91726(12)
C7_4 C 0.19395(12) 0.19908(13) 0.70260(12)
C8_4 C 0.20260(12) 0.30605(12) 0.80092(13)
C9_4 C 0.29740(12) 0.19395(12) 0.69908(13)
C10_4 C 0.19908(13) 0.20260(12) 0.80605(12)
C11_4 C 0.30605(12) 0.30092(13) 0.79740(12)
H10_4 H 0.2017 0.1750 0.7128
H11_4 H 0.2128 0.2983 0.8250
H12_4 H 0.2872 0.2017 0.6750
H13_4 H 0.1750 0.2128 0.7983
H14_4 H 0.2983 0.3250 0.7872
C12_4 C 0.16480(14) 0.24082(14) 0.67039(14)
C13_4 C 0.17039(14) 0.33520(14) 0.75918(14)
C14_4 C 0.32961(14) 0.16480(14) 0.74082(14)
C15_4 C 0.24082(14) 0.17039(14) 0.83520(14)
C16_4 C 0.33520(14) 0.25918(14) 0.82961(14)
H15_4 H 0.1477 0.2529 0.6529
H16_4 H 0.1529 0.3523 0.7471
H17_4 H 0.3471 0.1477 0.7529
H18_4 H 0.2529 0.1529 0.8523
H19_4 H 0.3523 0.2471 0.8471
C17_4 C 0.33950(19) 0.3311(2) 0.5511(2)
C18_4 C 0.08950(19) 0.1989(2) 0.5811(2)
C19_4 C 0.0511(2) 0.16050(19) 0.6689(2)
C20_4 C 0.0811(2) 0.41050(19) 0.8011(2)
C21_4 C 0.1689(2) 0.4489(2) 0.83950(19)
C22_4 C 0.3265(2) 0.3049(3) 0.5185(3)
C23_4 C 0.0765(2) 0.2315(3) 0.5549(3)
C24_4 C 0.0185(3) 0.1735(2) 0.6951(3)
C25_4 C 0.0549(3) 0.4235(2) 0.7685(3)
C26_4 C 0.1951(3) 0.4815(3) 0.8265(2)
H20_4 H 0.3473 0.2870 0.5120
H21_4 H 0.0973 0.2380 0.5370
H22_4 H 0.0120 0.1527 0.7130
H23_4 H 0.0370 0.4027 0.7620
H24_4 H 0.2130 0.4880 0.8473
H25_4 H 0.3202 0.3204 0.4959
H26_4 H 0.0702 0.2541 0.5704
H28_4 H 0.0704 0.4298 0.7459
H29_4 H 0.1796 0.5041 0.8202
H30_4 H 0.3038 0.2903 0.5266
H31_4 H 0.0538 0.2234 0.5403
H32_4 H 0.0266 0.1962 0.7097
H33_4 H 0.0403 0.4462 0.7766
H34_4 H 0.2097 0.4734 0.8038
C27_4 C 0.4141(2) 0.32968(18) 0.62690(19)
C28_4 C 0.1641(2) 0.12310(19) 0.57968(18)
C29_4 C 0.12690(19) 0.0859(2) 0.67032(18)
C30_4 C 0.07968(18) 0.3359(2) 0.87690(19)
C31_4 C 0.17032(18) 0.37310(19) 0.9141(2)
C32_4 C 0.4461(3) 0.3029(3) 0.6385(3)
C33_4 C 0.1961(3) 0.1115(3) 0.5529(3)
C34_4 C 0.1385(3) 0.0539(3) 0.6971(3)
C35_4 C 0.0529(3) 0.3039(3) 0.8885(3)
C36_4 C 0.1971(3) 0.3615(3) 0.9461(3)
H35_4 H 0.4576 0.2915 0.6154
H36_4 H 0.2076 0.1346 0.5415
H37_4 H 0.1154 0.0424 0.7085
H38_4 H 0.0415 0.2924 0.8654
H39_4 H 0.2085 0.3846 0.9576
H40_4 H 0.4358 0.2824 0.6548
H41_4 H 0.1858 0.0952 0.5324
H42_4 H 0.1548 0.0642 0.7176
H43_4 H 0.0324 0.3142 0.9048
H44_4 H 0.2176 0.3452 0.9358
H45_4 H 0.4657 0.3172 0.6526
H46_4 H 0.2157 0.0974 0.5672
H47_4 H 0.1526 0.0343 0.6828
H48_4 H 0.0672 0.2843 0.9026
H49_4 H 0.1828 0.3474 0.9657
B2_4 B 0.30160(16) 0.19840(16) 0.80160(16)
H50_4 H 0.3182 0.1818 0.8182
H27_4 H 0.9959 0.1798 0.6796
Rh1_5 Rh 0.837425(10) 0.142534(10) 0.370832(11)
Fe1_8 Fe 0.7500 0.2500 0.2500
O1_5 O 0.85351(12) 0.10583(11) 0.32836(10)
O2_5 O 0.79440(11) 0.10601(12) 0.38552(14)
O3_5 O 0.83384(12) 0.07385(12) 0.42619(11)
O4_5 O 0.89284(11) 0.07297(10) 0.36829(11)
N1_5 N 0.76731(10) 0.21383(9) 0.29140(9)
N2_5 N 0.74085(10) 0.19260(9) 0.31095(10)
N3_5 N 0.79669(12) 0.17547(12) 0.33274(12)
C1_5 C 0.80092(13) 0.20260(12) 0.30605(12)
H1_5 H 0.8250 0.2128 0.2983
C2_5 C 0.75918(14) 0.17039(14) 0.33520(14)
H2_5 H 0.7471 0.1529 0.3523
C3_5 C 0.8011(2) 0.0811(2) 0.41050(19)
C4_5 C 0.7685(3) 0.0549(3) 0.4235(2)
H3_5 H 0.7620 0.0370 0.4027
H4_5 H 0.7459 0.0704 0.4298
H5_5 H 0.7766 0.0403 0.4462
C5_5 C 0.87690(19) 0.07968(18) 0.3359(2)
C6_5 C 0.8885(3) 0.0529(3) 0.3039(3)
H6_5 H 0.8654 0.0415 0.2924
H7_5 H 0.9048 0.0324 0.3142
H8_5 H 0.9026 0.0672 0.2843
B1_5 B 0.69840(16) 0.19840(16) 0.30160(16)
H9_5 H 0.6818 0.1818 0.3182
Rh2_5 Rh 0.629168(11) 0.337425(10) 0.357466(10)
Rh3_5 Rh 0.642534(10) 0.129168(11) 0.162575(10)
Rh4_5 Rh 0.857466(10) 0.370832(11) 0.337425(10)
Rh5_5 Rh 0.662575(10) 0.357466(10) 0.129168(11)
Rh6_5 Rh 0.870832(11) 0.162575(10) 0.142534(10)
Rh7_5 Rh 0.879168(11) 0.107466(10) 0.412575(10)
Rh8_5 Rh 0.587425(10) 0.379168(11) 0.392534(10)
Rh9_5 Rh 0.607466(10) 0.087425(10) 0.120832(11)
O5_5 O 0.92164(10) 0.14417(11) 0.39649(12)
O6_5 O 0.67164(10) 0.35351(12) 0.39417(11)
O7_5 O 0.60351(12) 0.42164(10) 0.35583(11)
O8_5 O 0.60583(11) 0.17164(10) 0.14649(12)
O9_5 O 0.64417(11) 0.10351(12) 0.07836(10)
O10_5 O 0.86448(14) 0.14399(12) 0.45560(11)
O11_5 O 0.61448(14) 0.29440(11) 0.39399(12)
O12_5 O 0.54440(11) 0.36448(14) 0.35601(12)
O13_5 O 0.60601(12) 0.11448(14) 0.20560(11)
O14_5 O 0.64399(12) 0.04440(11) 0.13552(14)
O15_5 O 0.82381(11) 0.17615(12) 0.41616(12)
O16_5 O 0.57381(11) 0.33384(12) 0.42615(12)
O17_5 O 0.58384(12) 0.32381(11) 0.32385(12)
O18_5 O 0.57385(12) 0.07381(11) 0.16616(12)
O19_5 O 0.67615(12) 0.08384(12) 0.17619(11)
O20_5 O 0.88171(11) 0.17703(10) 0.35716(11)
O21_5 O 0.63171(11) 0.39284(11) 0.42703(10)
O22_5 O 0.64284(11) 0.38171(11) 0.32297(10)
O23_5 O 0.57297(10) 0.13171(11) 0.10716(11)
O24_5 O 0.67703(10) 0.14284(11) 0.11829(11)
N4_5 N 0.70860(9) 0.26731(10) 0.28617(9)
N5_5 N 0.71383(9) 0.20860(9) 0.23269(10)
N6_5 N 0.78617(9) 0.29140(9) 0.26731(10)
N7_5 N 0.73269(10) 0.28617(9) 0.20860(9)
N8_5 N 0.79140(9) 0.23269(10) 0.21383(9)
N9_5 N 0.68905(10) 0.24085(10) 0.30740(9)
N10_5 N 0.69260(9) 0.18905(10) 0.25915(10)
N11_5 N 0.80740(9) 0.31095(10) 0.24085(10)
N12_5 N 0.75915(10) 0.30740(9) 0.18905(10)
N13_5 N 0.81095(10) 0.25915(10) 0.19260(9)
N14_5 N 0.66726(12) 0.29669(12) 0.32453(12)
N15_5 N 0.67547(12) 0.16726(12) 0.20331(12)
N16_5 N 0.82453(12) 0.33274(12) 0.29669(12)
N17_5 N 0.70331(12) 0.32453(12) 0.16726(12)
N18_5 N 0.83274(12) 0.20331(12) 0.17547(12)
N19_5 N 0.91726(12) 0.07453(12) 0.45331(12)
N20_5 N 0.54669(12) 0.41726(12) 0.42547(12)
N21_5 N 0.57453(12) 0.04669(12) 0.08274(12)
C7_5 C 0.69395(12) 0.30092(13) 0.29740(12)
C8_5 C 0.70260(12) 0.19395(12) 0.19908(13)
C9_5 C 0.79740(12) 0.30605(12) 0.30092(13)
C10_5 C 0.69908(13) 0.29740(12) 0.19395(12)
C11_5 C 0.80605(12) 0.19908(13) 0.20260(12)
H10_5 H 0.7017 0.3250 0.2872
H11_5 H 0.7128 0.2017 0.1750
H12_5 H 0.7872 0.2983 0.3250
H13_5 H 0.6750 0.2872 0.2017
H14_5 H 0.7983 0.1750 0.2128
C12_5 C 0.66480(14) 0.25918(14) 0.32961(14)
C13_5 C 0.67039(14) 0.16480(14) 0.24082(14)
C14_5 C 0.82961(14) 0.33520(14) 0.25918(14)
C15_5 C 0.74082(14) 0.32961(14) 0.16480(14)
C16_5 C 0.83520(14) 0.24082(14) 0.17039(14)
H15_5 H 0.6477 0.2471 0.3471
H16_5 H 0.6529 0.1477 0.2529
H17_5 H 0.8471 0.3523 0.2471
H18_5 H 0.7529 0.3471 0.1477
H19_5 H 0.8523 0.2529 0.1529
C17_5 C 0.83950(19) 0.1689(2) 0.4489(2)
C18_5 C 0.58950(19) 0.3011(2) 0.4189(2)
C19_5 C 0.5511(2) 0.33950(19) 0.3311(2)
C20_5 C 0.5811(2) 0.08950(19) 0.1989(2)
C21_5 C 0.6689(2) 0.0511(2) 0.16050(19)
C22_5 C 0.8265(2) 0.1951(3) 0.4815(3)
C23_5 C 0.5765(2) 0.2685(3) 0.4451(3)
C24_5 C 0.5185(3) 0.3265(2) 0.3049(3)
C25_5 C 0.5549(3) 0.0765(2) 0.2315(3)
C26_5 C 0.6951(3) 0.0185(3) 0.1735(2)
H20_5 H 0.8473 0.2130 0.4880
H21_5 H 0.5973 0.2620 0.4630
H22_5 H 0.5120 0.3473 0.2870
H23_5 H 0.5370 0.0973 0.2380
H24_5 H 0.7130 0.0120 0.1527
H25_5 H 0.8202 0.1796 0.5041
H26_5 H 0.5702 0.2459 0.4296
H27_5 H 0.4959 0.3202 0.3204
H28_5 H 0.5704 0.0702 0.2541
H30_5 H 0.8038 0.2097 0.4734
H31_5 H 0.5538 0.2766 0.4597
H32_5 H 0.5266 0.3038 0.2903
H33_5 H 0.5403 0.0538 0.2234
H34_5 H 0.7097 0.0266 0.1962
C27_5 C 0.9141(2) 0.17032(18) 0.37310(19)
C28_5 C 0.6641(2) 0.37690(19) 0.42032(18)
C29_5 C 0.62690(19) 0.4141(2) 0.32968(18)
C30_5 C 0.57968(18) 0.1641(2) 0.12310(19)
C31_5 C 0.67032(18) 0.12690(19) 0.0859(2)
C32_5 C 0.9461(3) 0.1971(3) 0.3615(3)
C33_5 C 0.6961(3) 0.3885(3) 0.4471(3)
C34_5 C 0.6385(3) 0.4461(3) 0.3029(3)
C35_5 C 0.5529(3) 0.1961(3) 0.1115(3)
C36_5 C 0.6971(3) 0.1385(3) 0.0539(3)
H35_5 H 0.9576 0.2085 0.3846
H36_5 H 0.7076 0.3654 0.4585
H37_5 H 0.6154 0.4576 0.2915
H38_5 H 0.5415 0.2076 0.1346
H39_5 H 0.7085 0.1154 0.0424
H40_5 H 0.9358 0.2176 0.3452
H41_5 H 0.6858 0.4048 0.4676
H42_5 H 0.6548 0.4358 0.2824
H43_5 H 0.5324 0.1858 0.0952
H44_5 H 0.7176 0.1548 0.0642
H45_5 H 0.9657 0.1828 0.3474
H46_5 H 0.7157 0.4026 0.4328
H47_5 H 0.6526 0.4657 0.3172
H48_5 H 0.5672 0.2157 0.0974
H49_5 H 0.6828 0.1526 0.0343
B2_5 B 0.80160(16) 0.30160(16) 0.19840(16)
H50_5 H 0.8182 0.3182 0.1818
H29_5 H 0.6796 0.9959 0.1798
H27_6 H 0.0041 0.6798 0.8204
H29_6 H 0.8204 0.0041 0.6798
H25_6 H 0.6798 0.8204 0.0041
Rh1_6 Rh 0.662575(10) 0.857466(10) 0.870832(11)
Fe1_9 Fe 0.7500 0.7500 0.7500
O1_6 O 0.64649(12) 0.89417(11) 0.82836(10)
O2_6 O 0.70560(11) 0.89399(12) 0.88552(14)
O3_6 O 0.66616(12) 0.92615(12) 0.92619(11)
O4_6 O 0.60716(11) 0.92703(10) 0.86829(11)
N1_6 N 0.73269(10) 0.78617(9) 0.79140(9)
N2_6 N 0.75915(10) 0.80740(9) 0.81095(10)
N3_6 N 0.70331(12) 0.82453(12) 0.83274(12)
C1_6 C 0.69908(13) 0.79740(12) 0.80605(12)
H1_6 H 0.6750 0.7872 0.7983
C2_6 C 0.74082(14) 0.82961(14) 0.83520(14)
H2_6 H 0.7529 0.8471 0.8523
C3_6 C 0.6989(2) 0.9189(2) 0.91050(19)
C4_6 C 0.7315(3) 0.9451(3) 0.9235(2)
H3_6 H 0.7380 0.9630 0.9027
H4_6 H 0.7541 0.9296 0.9298
H5_6 H 0.7234 0.9597 0.9462
C5_6 C 0.62310(19) 0.92032(18) 0.8359(2)
C6_6 C 0.6115(3) 0.9471(3) 0.8039(3)
H6_6 H 0.6346 0.9585 0.7924
H7_6 H 0.5952 0.9676 0.8142
H8_6 H 0.5974 0.9328 0.7843
B1_6 B 0.80160(16) 0.80160(16) 0.80160(16)
H9_6 H 0.8182 0.8182 0.8182
Rh2_6 Rh 0.870832(11) 0.662575(10) 0.857466(10)
Rh3_6 Rh 0.857466(10) 0.870832(11) 0.662575(10)
Rh4_6 Rh 0.642534(10) 0.629168(11) 0.837425(10)
Rh5_6 Rh 0.837425(10) 0.642534(10) 0.629168(11)
Rh6_6 Rh 0.629168(11) 0.837425(10) 0.642534(10)
Rh7_6 Rh 0.620832(11) 0.892534(10) 0.912575(10)
Rh8_6 Rh 0.912575(10) 0.620832(11) 0.892534(10)
Rh9_6 Rh 0.892534(10) 0.912575(10) 0.620832(11)
O5_6 O 0.57836(10) 0.85583(11) 0.89649(12)
O6_6 O 0.82836(10) 0.64649(12) 0.89417(11)
O7_6 O 0.89649(12) 0.57836(10) 0.85583(11)
O8_6 O 0.89417(11) 0.82836(10) 0.64649(12)
O9_6 O 0.85583(11) 0.89649(12) 0.57836(10)
O10_6 O 0.63552(14) 0.85601(12) 0.95560(11)
O11_6 O 0.88552(14) 0.70560(11) 0.89399(12)
O12_6 O 0.95560(11) 0.63552(14) 0.85601(12)
O13_6 O 0.89399(12) 0.88552(14) 0.70560(11)
O14_6 O 0.85601(12) 0.95560(11) 0.63552(14)
O15_6 O 0.67619(11) 0.82385(12) 0.91616(12)
O16_6 O 0.92619(11) 0.66616(12) 0.92615(12)
O17_6 O 0.91616(12) 0.67619(11) 0.82385(12)
O18_6 O 0.92615(12) 0.92619(11) 0.66616(12)
O19_6 O 0.82385(12) 0.91616(12) 0.67619(11)
O20_6 O 0.61829(11) 0.82297(10) 0.85716(11)
O21_6 O 0.86829(11) 0.60716(11) 0.92703(10)
O22_6 O 0.85716(11) 0.61829(11) 0.82297(10)
O23_6 O 0.92703(10) 0.86829(11) 0.60716(11)
O24_6 O 0.82297(10) 0.85716(11) 0.61829(11)
N4_6 N 0.79140(9) 0.73269(10) 0.78617(9)
N5_6 N 0.78617(9) 0.79140(9) 0.73269(10)
N6_6 N 0.71383(9) 0.70860(9) 0.76731(10)
N7_6 N 0.76731(10) 0.71383(9) 0.70860(9)
N8_6 N 0.70860(9) 0.76731(10) 0.71383(9)
N9_6 N 0.81095(10) 0.75915(10) 0.80740(9)
N10_6 N 0.80740(9) 0.81095(10) 0.75915(10)
N11_6 N 0.69260(9) 0.68905(10) 0.74085(10)
N12_6 N 0.74085(10) 0.69260(9) 0.68905(10)
N13_6 N 0.68905(10) 0.74085(10) 0.69260(9)
N14_6 N 0.83274(12) 0.70331(12) 0.82453(12)
N15_6 N 0.82453(12) 0.83274(12) 0.70331(12)
N16_6 N 0.67547(12) 0.66726(12) 0.79669(12)
N17_6 N 0.79669(12) 0.67547(12) 0.66726(12)
N18_6 N 0.66726(12) 0.79669(12) 0.67547(12)
N19_6 N 0.58274(12) 0.92547(12) 0.95331(12)
N20_6 N 0.95331(12) 0.58274(12) 0.92547(12)
N21_6 N 0.92547(12) 0.95331(12) 0.58274(12)
C7_6 C 0.80605(12) 0.69908(13) 0.79740(12)
C8_6 C 0.79740(12) 0.80605(12) 0.69908(13)
C9_6 C 0.70260(12) 0.69395(12) 0.80092(13)
C10_6 C 0.80092(13) 0.70260(12) 0.69395(12)
C11_6 C 0.69395(12) 0.80092(13) 0.70260(12)
H10_6 H 0.7983 0.6750 0.7872
H11_6 H 0.7872 0.7983 0.6750
H12_6 H 0.7128 0.7017 0.8250
H13_6 H 0.8250 0.7128 0.7017
H14_6 H 0.7017 0.8250 0.7128
C12_6 C 0.83520(14) 0.74082(14) 0.82961(14)
C13_6 C 0.82961(14) 0.83520(14) 0.74082(14)
C14_6 C 0.67039(14) 0.66480(14) 0.75918(14)
C15_6 C 0.75918(14) 0.67039(14) 0.66480(14)
C16_6 C 0.66480(14) 0.75918(14) 0.67039(14)
H15_6 H 0.8523 0.7529 0.8471
H16_6 H 0.8471 0.8523 0.7529
H17_6 H 0.6529 0.6477 0.7471
H18_6 H 0.7471 0.6529 0.6477
H19_6 H 0.6477 0.7471 0.6529
C17_6 C 0.66050(19) 0.8311(2) 0.9489(2)
C18_6 C 0.91050(19) 0.6989(2) 0.9189(2)
C19_6 C 0.9489(2) 0.66050(19) 0.8311(2)
C20_6 C 0.9189(2) 0.91050(19) 0.6989(2)
C21_6 C 0.8311(2) 0.9489(2) 0.66050(19)
C22_6 C 0.6735(2) 0.8049(3) 0.9815(3)
C23_6 C 0.9235(2) 0.7315(3) 0.9451(3)
C24_6 C 0.9815(3) 0.6735(2) 0.8049(3)
C25_6 C 0.9451(3) 0.9235(2) 0.7315(3)
C26_6 C 0.8049(3) 0.9815(3) 0.6735(2)
H20_6 H 0.6527 0.7870 0.9880
H21_6 H 0.9027 0.7380 0.9630
H22_6 H 0.9880 0.6527 0.7870
H23_6 H 0.9630 0.9027 0.7380
H24_6 H 0.7870 0.9880 0.6527
H26_6 H 0.9298 0.7541 0.9296
H28_6 H 0.9296 0.9298 0.7541
H30_6 H 0.6962 0.7903 0.9734
H31_6 H 0.9462 0.7234 0.9597
H32_6 H 0.9734 0.6962 0.7903
H33_6 H 0.9597 0.9462 0.7234
H34_6 H 0.7903 0.9734 0.6962
C27_6 C 0.5859(2) 0.82968(18) 0.87310(19)
C28_6 C 0.8359(2) 0.62310(19) 0.92032(18)
C29_6 C 0.87310(19) 0.5859(2) 0.82968(18)
C30_6 C 0.92032(18) 0.8359(2) 0.62310(19)
C31_6 C 0.82968(18) 0.87310(19) 0.5859(2)
C32_6 C 0.5539(3) 0.8029(3) 0.8615(3)
C33_6 C 0.8039(3) 0.6115(3) 0.9471(3)
C34_6 C 0.8615(3) 0.5539(3) 0.8029(3)
C35_6 C 0.9471(3) 0.8039(3) 0.6115(3)
C36_6 C 0.8029(3) 0.8615(3) 0.5539(3)
H35_6 H 0.5424 0.7915 0.8846
H36_6 H 0.7924 0.6346 0.9585
H37_6 H 0.8846 0.5424 0.7915
H38_6 H 0.9585 0.7924 0.6346
H39_6 H 0.7915 0.8846 0.5424
H40_6 H 0.5642 0.7824 0.8452
H41_6 H 0.8142 0.5952 0.9676
H42_6 H 0.8452 0.5642 0.7824
H43_6 H 0.9676 0.8142 0.5952
H44_6 H 0.7824 0.8452 0.5642
H45_6 H 0.5343 0.8172 0.8474
H46_6 H 0.7843 0.5974 0.9328
H47_6 H 0.8474 0.5343 0.8172
H48_6 H 0.9328 0.7843 0.5974
H49_6 H 0.8172 0.8474 0.5343
B2_6 B 0.69840(16) 0.69840(16) 0.69840(16)
H50_6 H 0.6818 0.6818 0.6818
Rh1_7 Rh 0.357466(10) 0.629168(11) 0.337425(10)
Fe1_10 Fe 0.2500 0.7500 0.2500
O1_7 O 0.39417(11) 0.67164(10) 0.35351(12)
O2_7 O 0.39399(12) 0.61448(14) 0.29440(11)
O3_7 O 0.42615(12) 0.57381(11) 0.33384(12)
O4_7 O 0.42703(10) 0.63171(11) 0.39284(11)
N1_7 N 0.28617(9) 0.70860(9) 0.26731(10)
N2_7 N 0.30740(9) 0.68905(10) 0.24085(10)
N3_7 N 0.32453(12) 0.66726(12) 0.29669(12)
C1_7 C 0.29740(12) 0.69395(12) 0.30092(13)
H1_7 H 0.2872 0.7017 0.3250
C2_7 C 0.32961(14) 0.66480(14) 0.25918(14)
H2_7 H 0.3471 0.6477 0.2471
C3_7 C 0.4189(2) 0.58950(19) 0.3011(2)
C4_7 C 0.4451(3) 0.5765(2) 0.2685(3)
H3_7 H 0.4630 0.5973 0.2620
H4_7 H 0.4296 0.5702 0.2459
H5_7 H 0.4597 0.5538 0.2766
C5_7 C 0.42032(18) 0.6641(2) 0.37690(19)
C6_7 C 0.4471(3) 0.6961(3) 0.3885(3)
H6_7 H 0.4585 0.7076 0.3654
H7_7 H 0.4676 0.6858 0.4048
H8_7 H 0.4328 0.7157 0.4026
B1_7 B 0.30160(16) 0.69840(16) 0.19840(16)
H9_7 H 0.3182 0.6818 0.1818
Rh2_7 Rh 0.162575(10) 0.642534(10) 0.129168(11)
Rh3_7 Rh 0.370832(11) 0.837425(10) 0.142534(10)
Rh4_7 Rh 0.129168(11) 0.662575(10) 0.357466(10)
Rh5_7 Rh 0.142534(10) 0.870832(11) 0.162575(10)
Rh6_7 Rh 0.337425(10) 0.857466(10) 0.370832(11)
Rh7_7 Rh 0.392534(10) 0.587425(10) 0.379168(11)
Rh8_7 Rh 0.120832(11) 0.607466(10) 0.087425(10)
Rh9_7 Rh 0.412575(10) 0.879168(11) 0.107466(10)
O5_7 O 0.35583(11) 0.60351(12) 0.42164(10)
O6_7 O 0.14649(12) 0.60583(11) 0.17164(10)
O7_7 O 0.07836(10) 0.64417(11) 0.10351(12)
O8_7 O 0.32836(10) 0.85351(12) 0.10583(11)
O9_7 O 0.39649(12) 0.92164(10) 0.14417(11)
O10_7 O 0.35601(12) 0.54440(11) 0.36448(14)
O11_7 O 0.20560(11) 0.60601(12) 0.11448(14)
O12_7 O 0.13552(14) 0.64399(12) 0.04440(11)
O13_7 O 0.38552(14) 0.79440(11) 0.10601(12)
O14_7 O 0.45560(11) 0.86448(14) 0.14399(12)
O15_7 O 0.32385(12) 0.58384(12) 0.32381(11)
O16_7 O 0.16616(12) 0.57385(12) 0.07381(11)
O17_7 O 0.17619(11) 0.67615(12) 0.08384(12)
O18_7 O 0.42619(11) 0.83384(12) 0.07385(12)
O19_7 O 0.41616(12) 0.82381(11) 0.17615(12)
O20_7 O 0.32297(10) 0.64284(11) 0.38171(11)
O21_7 O 0.10716(11) 0.57297(10) 0.13171(11)
O22_7 O 0.11829(11) 0.67703(10) 0.14284(11)
O23_7 O 0.36829(11) 0.89284(11) 0.07297(10)
O24_7 O 0.35716(11) 0.88171(11) 0.17703(10)
N4_7 N 0.23269(10) 0.71383(9) 0.20860(9)
N5_7 N 0.29140(9) 0.76731(10) 0.21383(9)
N6_7 N 0.20860(9) 0.73269(10) 0.28617(9)
N7_7 N 0.21383(9) 0.79140(9) 0.23269(10)
N8_7 N 0.26731(10) 0.78617(9) 0.29140(9)
N9_7 N 0.25915(10) 0.69260(9) 0.18905(10)
N10_7 N 0.31095(10) 0.74085(10) 0.19260(9)
N11_7 N 0.18905(10) 0.75915(10) 0.30740(9)
N12_7 N 0.19260(9) 0.81095(10) 0.25915(10)
N13_7 N 0.24085(10) 0.80740(9) 0.31095(10)
N14_7 N 0.20331(12) 0.67547(12) 0.16726(12)
N15_7 N 0.33274(12) 0.79669(12) 0.17547(12)
N16_7 N 0.16726(12) 0.70331(12) 0.32453(12)
N17_7 N 0.17547(12) 0.83274(12) 0.20331(12)
N18_7 N 0.29669(12) 0.82453(12) 0.33274(12)
N19_7 N 0.42547(12) 0.54669(12) 0.41726(12)
N20_7 N 0.08274(12) 0.57453(12) 0.04669(12)
N21_7 N 0.45331(12) 0.91726(12) 0.07453(12)
C7_7 C 0.19908(13) 0.70260(12) 0.19395(12)
C8_7 C 0.30605(12) 0.80092(13) 0.20260(12)
C9_7 C 0.19395(12) 0.69908(13) 0.29740(12)
C10_7 C 0.20260(12) 0.80605(12) 0.19908(13)
C11_7 C 0.30092(13) 0.79740(12) 0.30605(12)
H10_7 H 0.1750 0.7128 0.2017
H11_7 H 0.2983 0.8250 0.2128
H12_7 H 0.2017 0.6750 0.2872
H13_7 H 0.2128 0.7983 0.1750
H14_7 H 0.3250 0.7872 0.2983
C12_7 C 0.24082(14) 0.67039(14) 0.16480(14)
C13_7 C 0.33520(14) 0.75918(14) 0.17039(14)
C14_7 C 0.16480(14) 0.74082(14) 0.32961(14)
C15_7 C 0.17039(14) 0.83520(14) 0.24082(14)
C16_7 C 0.25918(14) 0.82961(14) 0.33520(14)
H15_7 H 0.2529 0.6529 0.1477
H16_7 H 0.3523 0.7471 0.1529
H17_7 H 0.1477 0.7529 0.3471
H18_7 H 0.1529 0.8523 0.2529
H19_7 H 0.2471 0.8471 0.3523
C17_7 C 0.3311(2) 0.5511(2) 0.33950(19)
C18_7 C 0.1989(2) 0.5811(2) 0.08950(19)
C19_7 C 0.16050(19) 0.6689(2) 0.0511(2)
C20_7 C 0.41050(19) 0.8011(2) 0.0811(2)
C21_7 C 0.4489(2) 0.83950(19) 0.1689(2)
C22_7 C 0.3049(3) 0.5185(3) 0.3265(2)
C23_7 C 0.2315(3) 0.5549(3) 0.0765(2)
C24_7 C 0.1735(2) 0.6951(3) 0.0185(3)
C25_7 C 0.4235(2) 0.7685(3) 0.0549(3)
C26_7 C 0.4815(3) 0.8265(2) 0.1951(3)
H20_7 H 0.2870 0.5120 0.3473
H21_7 H 0.2380 0.5370 0.0973
H22_7 H 0.1527 0.7130 0.0120
H23_7 H 0.4027 0.7620 0.0370
H24_7 H 0.4880 0.8473 0.2130
H25_7 H 0.3204 0.4959 0.3202
H26_7 H 0.2541 0.5704 0.0702
H28_7 H 0.4298 0.7459 0.0704
H29_7 H 0.5041 0.8202 0.1796
H30_7 H 0.2903 0.5266 0.3038
H31_7 H 0.2234 0.5403 0.0538
H32_7 H 0.1962 0.7097 0.0266
H33_7 H 0.4462 0.7766 0.0403
H34_7 H 0.4734 0.8038 0.2097
C27_7 C 0.32968(18) 0.62690(19) 0.4141(2)
C28_7 C 0.12310(19) 0.57968(18) 0.1641(2)
C29_7 C 0.0859(2) 0.67032(18) 0.12690(19)
C30_7 C 0.3359(2) 0.87690(19) 0.07968(18)
C31_7 C 0.37310(19) 0.9141(2) 0.17032(18)
C32_7 C 0.3029(3) 0.6385(3) 0.4461(3)
C33_7 C 0.1115(3) 0.5529(3) 0.1961(3)
C34_7 C 0.0539(3) 0.6971(3) 0.1385(3)
C35_7 C 0.3039(3) 0.8885(3) 0.0529(3)
C36_7 C 0.3615(3) 0.9461(3) 0.1971(3)
H35_7 H 0.2915 0.6154 0.4576
H36_7 H 0.1346 0.5415 0.2076
H37_7 H 0.0424 0.7085 0.1154
H38_7 H 0.2924 0.8654 0.0415
H39_7 H 0.3846 0.9576 0.2085
H40_7 H 0.2824 0.6548 0.4358
H41_7 H 0.0952 0.5324 0.1858
H42_7 H 0.0642 0.7176 0.1548
H43_7 H 0.3142 0.9048 0.0324
H44_7 H 0.3452 0.9358 0.2176
H45_7 H 0.3172 0.6526 0.4657
H46_7 H 0.0974 0.5672 0.2157
H47_7 H 0.0343 0.6828 0.1526
H48_7 H 0.2843 0.9026 0.0672
H49_7 H 0.3474 0.9657 0.1828
B2_7 B 0.19840(16) 0.80160(16) 0.30160(16)
H50_7 H 0.1818 0.8182 0.3182
H27_7 H 0.1798 0.6796 0.9959
Fe1_11 Fe 0.5000 -0.0000 0.0000
N1_8 N 0.53617(9) 0.01731(10) 0.04140(9)
C1_8 C 0.54740(12) 0.05092(13) 0.05605(12)
H1_8 H 0.5372 0.0750 0.0483
C2_8 C 0.57961(14) 0.00918(14) 0.08520(14)
Rh4_8 Rh 0.379168(11) 0.107466(10) 0.087425(10)
N6_8 N 0.45860(9) 0.03617(9) 0.01731(10)
N16_8 N 0.41726(12) 0.07453(12) 0.04669(12)
C9_8 C 0.44395(12) 0.04740(12) 0.05092(13)
H12_8 H 0.4517 0.0372 0.0750
C14_8 C 0.41480(14) 0.07961(14) 0.00918(14)
Fe1_12 Fe 0.5000 -0.0000 1.0000
Rh6_8 Rh 0.587425(10) 0.120832(11) 0.892534(10)
N8_8 N 0.51731(10) 0.04140(9) 0.96383(9)
N11_8 N 0.43905(10) 0.05740(9) 0.99085(10)
N12_8 N 0.44260(9) 0.00915(10) 0.93905(10)
N13_8 N 0.49085(10) 0.06095(10) 0.94260(9)
N18_8 N 0.54669(12) 0.08274(12) 0.92547(12)
C11_8 C 0.55092(13) 0.05605(12) 0.95260(12)
H14_8 H 0.5750 0.0483 0.9628
C16_8 C 0.50918(14) 0.08520(14) 0.92039(14)
H17_8 H 0.3977 0.0971 0.9971
H18_8 H 0.4029 0.0029 0.8977
H19_8 H 0.4971 0.1023 0.9029
B2_8 B 0.44840(16) 0.05160(16) 0.94840(16)
H50_8 H 0.4318 0.0682 0.9318
Fe1_13 Fe 0.5000 1.0000 0.0000
N2_8 N 0.55740(9) 0.99085(10) 0.06095(10)
H2_8 H 0.5971 0.9971 0.1023
B1_8 B 0.55160(16) 0.94840(16) 0.05160(16)
H9_8 H 0.5682 0.9318 0.0682
N4_8 N 0.48269(10) 0.95860(9) 0.03617(9)
N9_8 N 0.50915(10) 0.93905(10) 0.05740(9)
N10_8 N 0.56095(10) 0.94260(9) 0.00915(10)
C7_8 C 0.44908(13) 0.94395(12) 0.04740(12)
H10_8 H 0.4250 0.9517 0.0372
C12_8 C 0.49082(14) 0.91480(14) 0.07961(14)
H15_8 H 0.5029 0.8977 0.0971
H16_8 H 0.6023 0.9029 0.0029
Fe1_14 Fe 0.5000 1.0000 1.0000
Rh5_8 Rh 0.392534(10) 0.912575(10) 0.879168(11)
N5_8 N 0.54140(9) 0.96383(9) 0.98269(10)
N7_8 N 0.46383(9) 0.98269(10) 0.95860(9)
N17_8 N 0.42547(12) 0.95331(12) 0.91726(12)
C8_8 C 0.55605(12) 0.95260(12) 0.94908(13)
C10_8 C 0.45260(12) 0.94908(13) 0.94395(12)
H11_8 H 0.5483 0.9628 0.9250
H13_8 H 0.4628 0.9250 0.9517
C13_8 C 0.58520(14) 0.92039(14) 0.99082(14)
C15_8 C 0.42039(14) 0.99082(14) 0.91480(14)
Fe1_15 Fe -0.0000 0.5000 -0.0000
N1_9 N 0.04140(9) 0.53617(9) 0.01731(10)
C1_9 C 0.05605(12) 0.54740(12) 0.05092(13)
H1_9 H 0.0483 0.5372 0.0750
C2_9 C 0.08520(14) 0.57961(14) 0.00918(14)
Rh4_9 Rh 0.087425(10) 0.379168(11) 0.107466(10)
N6_9 N 0.01731(10) 0.45860(9) 0.03617(9)
N16_9 N 0.04669(12) 0.41726(12) 0.07453(12)
C9_9 C 0.05092(13) 0.44395(12) 0.04740(12)
H12_9 H 0.0750 0.4517 0.0372
C14_9 C 0.00918(14) 0.41480(14) 0.07961(14)
Fe1_16 Fe -0.0000 0.5000 1.0000
N2_9 N 0.06095(10) 0.55740(9) 0.99085(10)
H2_9 H 0.1023 0.5971 0.9971
B1_9 B 0.05160(16) 0.55160(16) 0.94840(16)
H9_9 H 0.0682 0.5682 0.9318
N4_9 N 0.03617(9) 0.48269(10) 0.95860(9)
N9_9 N 0.05740(9) 0.50915(10) 0.93905(10)
N10_9 N 0.00915(10) 0.56095(10) 0.94260(9)
C7_9 C 0.04740(12) 0.44908(13) 0.94395(12)
H10_9 H 0.0372 0.4250 0.9517
C12_9 C 0.07961(14) 0.49082(14) 0.91480(14)
H15_9 H 0.0971 0.5029 0.8977
H16_9 H 0.0029 0.6023 0.9029
Fe1_17 Fe 1.0000 0.5000 -0.0000
Rh6_9 Rh 0.892534(10) 0.587425(10) 0.120832(11)
N8_9 N 0.96383(9) 0.51731(10) 0.04140(9)
N11_9 N 0.99085(10) 0.43905(10) 0.05740(9)
N12_9 N 0.93905(10) 0.44260(9) 0.00915(10)
N13_9 N 0.94260(9) 0.49085(10) 0.06095(10)
N18_9 N 0.92547(12) 0.54669(12) 0.08274(12)
C11_9 C 0.95260(12) 0.55092(13) 0.05605(12)
H14_9 H 0.9628 0.5750 0.0483
C16_9 C 0.92039(14) 0.50918(14) 0.08520(14)
H17_9 H 0.9971 0.3977 0.0971
H18_9 H 0.8977 0.4029 0.0029
H19_9 H 0.9029 0.4971 0.1023
B2_9 B 0.94840(16) 0.44840(16) 0.05160(16)
H50_9 H 0.9318 0.4318 0.0682
Fe1_18 Fe 1.0000 0.5000 1.0000
Rh5_9 Rh 0.879168(11) 0.392534(10) 0.912575(10)
N5_9 N 0.98269(10) 0.54140(9) 0.96383(9)
N7_9 N 0.95860(9) 0.46383(9) 0.98269(10)
N17_9 N 0.91726(12) 0.42547(12) 0.95331(12)
C8_9 C 0.94908(13) 0.55605(12) 0.95260(12)
C10_9 C 0.94395(12) 0.45260(12) 0.94908(13)
H11_9 H 0.9250 0.5483 0.9628
H13_9 H 0.9517 0.4628 0.9250
C13_9 C 0.99082(14) 0.58520(14) 0.92039(14)
C15_9 C 0.91480(14) 0.42039(14) 0.99082(14)
Fe1_19 Fe -0.0000 -0.0000 0.5000
N1_10 N 0.01731(10) 0.04140(9) 0.53617(9)
C1_10 C 0.05092(13) 0.05605(12) 0.54740(12)
H1_10 H 0.0750 0.0483 0.5372
C2_10 C 0.00918(14) 0.08520(14) 0.57961(14)
Rh4_10 Rh 0.107466(10) 0.087425(10) 0.379168(11)
N6_10 N 0.03617(9) 0.01731(10) 0.45860(9)
N16_10 N 0.07453(12) 0.04669(12) 0.41726(12)
C9_10 C 0.04740(12) 0.05092(13) 0.44395(12)
H12_10 H 0.0372 0.0750 0.4517
C14_10 C 0.07961(14) 0.00918(14) 0.41480(14)
Fe1_20 Fe -0.0000 1.0000 0.5000
Rh6_10 Rh 0.120832(11) 0.892534(10) 0.587425(10)
N8_10 N 0.04140(9) 0.96383(9) 0.51731(10)
N11_10 N 0.05740(9) 0.99085(10) 0.43905(10)
N12_10 N 0.00915(10) 0.93905(10) 0.44260(9)
N13_10 N 0.06095(10) 0.94260(9) 0.49085(10)
N18_10 N 0.08274(12) 0.92547(12) 0.54669(12)
C11_10 C 0.05605(12) 0.95260(12) 0.55092(13)
H14_10 H 0.0483 0.9628 0.5750
C16_10 C 0.08520(14) 0.92039(14) 0.50918(14)
H17_10 H 0.0971 0.9971 0.3977
H18_10 H 0.0029 0.8977 0.4029
H19_10 H 0.1023 0.9029 0.4971
B2_10 B 0.05160(16) 0.94840(16) 0.44840(16)
H50_10 H 0.0682 0.9318 0.4318
Fe1_21 Fe 1.0000 -0.0000 0.5000
N2_10 N 0.99085(10) 0.06095(10) 0.55740(9)
H2_10 H 0.9971 0.1023 0.5971
B1_10 B 0.94840(16) 0.05160(16) 0.55160(16)
H9_10 H 0.9318 0.0682 0.5682
N4_10 N 0.95860(9) 0.03617(9) 0.48269(10)
N9_10 N 0.93905(10) 0.05740(9) 0.50915(10)
N10_10 N 0.94260(9) 0.00915(10) 0.56095(10)
C7_10 C 0.94395(12) 0.04740(12) 0.44908(13)
H10_10 H 0.9517 0.0372 0.4250
C12_10 C 0.91480(14) 0.07961(14) 0.49082(14)
H15_10 H 0.8977 0.0971 0.5029
H16_10 H 0.9029 0.0029 0.6023
Fe1_22 Fe 1.0000 1.0000 0.5000
Rh5_10 Rh 0.912575(10) 0.879168(11) 0.392534(10)
N5_10 N 0.96383(9) 0.98269(10) 0.54140(9)
N7_10 N 0.98269(10) 0.95860(9) 0.46383(9)
N17_10 N 0.95331(12) 0.91726(12) 0.42547(12)
C8_10 C 0.95260(12) 0.94908(13) 0.55605(12)
C10_10 C 0.94908(13) 0.94395(12) 0.45260(12)
H11_10 H 0.9628 0.9250 0.5483
H13_10 H 0.9250 0.9517 0.4628
C13_10 C 0.92039(14) 0.99082(14) 0.58520(14)
C15_10 C 0.99082(14) 0.91480(14) 0.42039(14)
Rh1_8 Rh 0.837425(10) 0.857466(10) 0.129168(11)
Fe1_23 Fe 0.7500 0.7500 0.2500
O1_8 O 0.85351(12) 0.89417(11) 0.17164(10)
O2_8 O 0.79440(11) 0.89399(12) 0.11448(14)
O3_8 O 0.83384(12) 0.92615(12) 0.07381(11)
O4_8 O 0.89284(11) 0.92703(10) 0.13171(11)
N1_11 N 0.76731(10) 0.78617(9) 0.20860(9)
N2_11 N 0.74085(10) 0.80740(9) 0.18905(10)
N3_8 N 0.79669(12) 0.82453(12) 0.16726(12)
C1_11 C 0.80092(13) 0.79740(12) 0.19395(12)
H1_11 H 0.8250 0.7872 0.2017
C2_11 C 0.75918(14) 0.82961(14) 0.16480(14)
H2_11 H 0.7471 0.8471 0.1477
C3_8 C 0.8011(2) 0.9189(2) 0.08950(19)
C4_8 C 0.7685(3) 0.9451(3) 0.0765(2)
H3_8 H 0.7620 0.9630 0.0973
H4_8 H 0.7459 0.9296 0.0702
H5_8 H 0.7766 0.9597 0.0538
C5_8 C 0.87690(19) 0.92032(18) 0.1641(2)
C6_8 C 0.8885(3) 0.9471(3) 0.1961(3)
H6_8 H 0.8654 0.9585 0.2076
H7_8 H 0.9048 0.9676 0.1858
H8_8 H 0.9026 0.9328 0.2157
B1_11 B 0.69840(16) 0.80160(16) 0.19840(16)
H9_11 H 0.6818 0.8182 0.1818
Rh4_11 Rh 0.857466(10) 0.629168(11) 0.162575(10)
Rh5_11 Rh 0.662575(10) 0.642534(10) 0.370832(11)
Rh6_11 Rh 0.870832(11) 0.837425(10) 0.357466(10)
Rh7_8 Rh 0.879168(11) 0.892534(10) 0.087425(10)
O5_8 O 0.92164(10) 0.85583(11) 0.10351(12)
O10_8 O 0.86448(14) 0.85601(12) 0.04440(11)
O15_8 O 0.82381(11) 0.82385(12) 0.08384(12)
O20_8 O 0.88171(11) 0.82297(10) 0.14284(11)
N4_11 N 0.70860(9) 0.73269(10) 0.21383(9)
N5_11 N 0.71383(9) 0.79140(9) 0.26731(10)
N6_11 N 0.78617(9) 0.70860(9) 0.23269(10)
N7_11 N 0.73269(10) 0.71383(9) 0.29140(9)
N8_11 N 0.79140(9) 0.76731(10) 0.28617(9)
N9_11 N 0.68905(10) 0.75915(10) 0.19260(9)
N10_11 N 0.69260(9) 0.81095(10) 0.24085(10)
N11_11 N 0.80740(9) 0.68905(10) 0.25915(10)
N12_11 N 0.75915(10) 0.69260(9) 0.31095(10)
N13_11 N 0.81095(10) 0.74085(10) 0.30740(9)
N16_11 N 0.82453(12) 0.66726(12) 0.20331(12)
N17_11 N 0.70331(12) 0.67547(12) 0.33274(12)
N18_11 N 0.83274(12) 0.79669(12) 0.32453(12)
N19_8 N 0.91726(12) 0.92547(12) 0.04669(12)
C7_11 C 0.69395(12) 0.69908(13) 0.20260(12)
C8_11 C 0.70260(12) 0.80605(12) 0.30092(13)
C9_11 C 0.79740(12) 0.69395(12) 0.19908(13)
C10_11 C 0.69908(13) 0.70260(12) 0.30605(12)
C11_11 C 0.80605(12) 0.80092(13) 0.29740(12)
H10_11 H 0.7017 0.6750 0.2128
H11_11 H 0.7128 0.7983 0.3250
H12_11 H 0.7872 0.7017 0.1750
H13_11 H 0.6750 0.7128 0.2983
H14_11 H 0.7983 0.8250 0.2872
C12_11 C 0.66480(14) 0.74082(14) 0.17039(14)
C13_11 C 0.67039(14) 0.83520(14) 0.25918(14)
C14_11 C 0.82961(14) 0.66480(14) 0.24082(14)
C15_11 C 0.74082(14) 0.67039(14) 0.33520(14)
C16_11 C 0.83520(14) 0.75918(14) 0.32961(14)
H15_11 H 0.6477 0.7529 0.1529
H16_11 H 0.6529 0.8523 0.2471
H17_11 H 0.8471 0.6477 0.2529
H18_11 H 0.7529 0.6529 0.3523
H19_11 H 0.8523 0.7471 0.3471
C17_8 C 0.83950(19) 0.8311(2) 0.0511(2)
C22_8 C 0.8265(2) 0.8049(3) 0.0185(3)
H20_8 H 0.8473 0.7870 0.0120
H30_8 H 0.8038 0.7903 0.0266
C27_8 C 0.9141(2) 0.82968(18) 0.12690(19)
C32_8 C 0.9461(3) 0.8029(3) 0.1385(3)
H35_8 H 0.9576 0.7915 0.1154
H40_8 H 0.9358 0.7824 0.1548
H45_8 H 0.9657 0.8172 0.1526
B2_11 B 0.80160(16) 0.69840(16) 0.30160(16)
H50_11 H 0.8182 0.6818 0.3182
Fe1_24 Fe 0.7500 0.2500 0.7500
N1_12 N 0.73269(10) 0.21383(9) 0.70860(9)
N2_12 N 0.75915(10) 0.19260(9) 0.68905(10)
C1_12 C 0.69908(13) 0.20260(12) 0.69395(12)
H1_12 H 0.6750 0.2128 0.7017
C2_12 C 0.74082(14) 0.17039(14) 0.66480(14)
H2_12 H 0.7529 0.1529 0.6477
B1_12 B 0.80160(16) 0.19840(16) 0.69840(16)
H9_12 H 0.8182 0.1818 0.6818
Rh3_8 Rh 0.857466(10) 0.129168(11) 0.837425(10)
Rh4_12 Rh 0.642534(10) 0.370832(11) 0.662575(10)
Rh5_12 Rh 0.837425(10) 0.357466(10) 0.870832(11)
Rh6_12 Rh 0.629168(11) 0.162575(10) 0.857466(10)
Rh9_8 Rh 0.892534(10) 0.087425(10) 0.879168(11)
O8_8 O 0.89417(11) 0.17164(10) 0.85351(12)
O9_8 O 0.85583(11) 0.10351(12) 0.92164(10)
O13_8 O 0.89399(12) 0.11448(14) 0.79440(11)
O14_8 O 0.85601(12) 0.04440(11) 0.86448(14)
O18_8 O 0.92615(12) 0.07381(11) 0.83384(12)
O19_8 O 0.82385(12) 0.08384(12) 0.82381(11)
O23_8 O 0.92703(10) 0.13171(11) 0.89284(11)
O24_8 O 0.82297(10) 0.14284(11) 0.88171(11)
N4_12 N 0.79140(9) 0.26731(10) 0.71383(9)
N5_12 N 0.78617(9) 0.20860(9) 0.76731(10)
N6_12 N 0.71383(9) 0.29140(9) 0.73269(10)
N7_12 N 0.76731(10) 0.28617(9) 0.79140(9)
N8_12 N 0.70860(9) 0.23269(10) 0.78617(9)
N9_12 N 0.81095(10) 0.24085(10) 0.69260(9)
N10_12 N 0.80740(9) 0.18905(10) 0.74085(10)
N11_12 N 0.69260(9) 0.31095(10) 0.75915(10)
N12_12 N 0.74085(10) 0.30740(9) 0.81095(10)
N13_12 N 0.68905(10) 0.25915(10) 0.80740(9)
N15_8 N 0.82453(12) 0.16726(12) 0.79669(12)
N16_12 N 0.67547(12) 0.33274(12) 0.70331(12)
N17_12 N 0.79669(12) 0.32453(12) 0.83274(12)
N18_12 N 0.66726(12) 0.20331(12) 0.82453(12)
N21_8 N 0.92547(12) 0.04669(12) 0.91726(12)
C7_12 C 0.80605(12) 0.30092(13) 0.70260(12)
C8_12 C 0.79740(12) 0.19395(12) 0.80092(13)
C9_12 C 0.70260(12) 0.30605(12) 0.69908(13)
C10_12 C 0.80092(13) 0.29740(12) 0.80605(12)
C11_12 C 0.69395(12) 0.19908(13) 0.79740(12)
H10_12 H 0.7983 0.3250 0.7128
H11_12 H 0.7872 0.2017 0.8250
H12_12 H 0.7128 0.2983 0.6750
H13_12 H 0.8250 0.2872 0.7983
H14_12 H 0.7017 0.1750 0.7872
C12_12 C 0.83520(14) 0.25918(14) 0.67039(14)
C13_12 C 0.82961(14) 0.16480(14) 0.75918(14)
C14_12 C 0.67039(14) 0.33520(14) 0.74082(14)
C15_12 C 0.75918(14) 0.32961(14) 0.83520(14)
C16_12 C 0.66480(14) 0.24082(14) 0.82961(14)
H15_12 H 0.8523 0.2471 0.6529
H16_12 H 0.8471 0.1477 0.7471
H17_12 H 0.6529 0.3523 0.7529
H18_12 H 0.7471 0.3471 0.8523
H19_12 H 0.6477 0.2529 0.8471
C20_8 C 0.9189(2) 0.08950(19) 0.8011(2)
C21_8 C 0.8311(2) 0.0511(2) 0.83950(19)
C25_8 C 0.9451(3) 0.0765(2) 0.7685(3)
C26_8 C 0.8049(3) 0.0185(3) 0.8265(2)
H23_8 H 0.9630 0.0973 0.7620
H24_8 H 0.7870 0.0120 0.8473
H28_8 H 0.9296 0.0702 0.7459
H33_8 H 0.9597 0.0538 0.7766
H34_8 H 0.7903 0.0266 0.8038
C30_8 C 0.92032(18) 0.1641(2) 0.87690(19)
C31_8 C 0.82968(18) 0.12690(19) 0.9141(2)
C35_8 C 0.9471(3) 0.1961(3) 0.8885(3)
C36_8 C 0.8029(3) 0.1385(3) 0.9461(3)
H38_8 H 0.9585 0.2076 0.8654
H39_8 H 0.7915 0.1154 0.9576
H43_8 H 0.9676 0.1858 0.9048
H44_8 H 0.7824 0.1548 0.9358
H48_8 H 0.9328 0.2157 0.9026
H49_8 H 0.8172 0.1526 0.9657
B2_12 B 0.69840(16) 0.30160(16) 0.80160(16)
H50_12 H 0.6818 0.3182 0.8182
Fe1_25 Fe 0.2500 0.7500 0.7500
N1_13 N 0.26731(10) 0.71383(9) 0.79140(9)
N2_13 N 0.24085(10) 0.69260(9) 0.81095(10)
C1_13 C 0.30092(13) 0.70260(12) 0.80605(12)
H1_13 H 0.3250 0.7128 0.7983
C2_13 C 0.25918(14) 0.67039(14) 0.83520(14)
H2_13 H 0.2471 0.6529 0.8523
B1_13 B 0.19840(16) 0.69840(16) 0.80160(16)
H9_13 H 0.1818 0.6818 0.8182
Rh2_8 Rh 0.129168(11) 0.837425(10) 0.857466(10)
Rh4_13 Rh 0.357466(10) 0.870832(11) 0.837425(10)
Rh5_13 Rh 0.162575(10) 0.857466(10) 0.629168(11)
Rh6_13 Rh 0.370832(11) 0.662575(10) 0.642534(10)
Rh8_8 Rh 0.087425(10) 0.879168(11) 0.892534(10)
O6_8 O 0.17164(10) 0.85351(12) 0.89417(11)
O7_8 O 0.10351(12) 0.92164(10) 0.85583(11)
O11_8 O 0.11448(14) 0.79440(11) 0.89399(12)
O12_8 O 0.04440(11) 0.86448(14) 0.85601(12)
O16_8 O 0.07381(11) 0.83384(12) 0.92615(12)
O17_8 O 0.08384(12) 0.82381(11) 0.82385(12)
O21_8 O 0.13171(11) 0.89284(11) 0.92703(10)
O22_8 O 0.14284(11) 0.88171(11) 0.82297(10)
N4_13 N 0.20860(9) 0.76731(10) 0.78617(9)
N5_13 N 0.21383(9) 0.70860(9) 0.73269(10)
N6_13 N 0.28617(9) 0.79140(9) 0.76731(10)
N7_13 N 0.23269(10) 0.78617(9) 0.70860(9)
N8_13 N 0.29140(9) 0.73269(10) 0.71383(9)
N9_13 N 0.18905(10) 0.74085(10) 0.80740(9)
N10_13 N 0.19260(9) 0.68905(10) 0.75915(10)
N11_13 N 0.30740(9) 0.81095(10) 0.74085(10)
N12_13 N 0.25915(10) 0.80740(9) 0.68905(10)
N13_13 N 0.31095(10) 0.75915(10) 0.69260(9)
N14_8 N 0.16726(12) 0.79669(12) 0.82453(12)
N16_13 N 0.32453(12) 0.83274(12) 0.79669(12)
N17_13 N 0.20331(12) 0.82453(12) 0.66726(12)
N18_13 N 0.33274(12) 0.70331(12) 0.67547(12)
N20_8 N 0.04669(12) 0.91726(12) 0.92547(12)
C7_13 C 0.19395(12) 0.80092(13) 0.79740(12)
C8_13 C 0.20260(12) 0.69395(12) 0.69908(13)
C9_13 C 0.29740(12) 0.80605(12) 0.80092(13)
C10_13 C 0.19908(13) 0.79740(12) 0.69395(12)
C11_13 C 0.30605(12) 0.69908(13) 0.70260(12)
H10_13 H 0.2017 0.8250 0.7872
H11_13 H 0.2128 0.7017 0.6750
H12_13 H 0.2872 0.7983 0.8250
H13_13 H 0.1750 0.7872 0.7017
H14_13 H 0.2983 0.6750 0.7128
C12_13 C 0.16480(14) 0.75918(14) 0.82961(14)
C13_13 C 0.17039(14) 0.66480(14) 0.74082(14)
C14_13 C 0.32961(14) 0.83520(14) 0.75918(14)
C15_13 C 0.24082(14) 0.82961(14) 0.66480(14)
C16_13 C 0.33520(14) 0.74082(14) 0.67039(14)
H15_13 H 0.1477 0.7471 0.8471
H16_13 H 0.1529 0.6477 0.7529
H17_13 H 0.3471 0.8523 0.7471
H18_13 H 0.2529 0.8471 0.6477
H19_13 H 0.3523 0.7529 0.6529
C18_8 C 0.08950(19) 0.8011(2) 0.9189(2)
C19_8 C 0.0511(2) 0.83950(19) 0.8311(2)
C23_8 C 0.0765(2) 0.7685(3) 0.9451(3)
C24_8 C 0.0185(3) 0.8265(2) 0.8049(3)
H21_8 H 0.0973 0.7620 0.9630
H22_8 H 0.0120 0.8473 0.7870
H26_8 H 0.0702 0.7459 0.9296
H31_8 H 0.0538 0.7766 0.9597
H32_8 H 0.0266 0.8038 0.7903
C28_8 C 0.1641(2) 0.87690(19) 0.92032(18)
C29_8 C 0.12690(19) 0.9141(2) 0.82968(18)
C33_8 C 0.1961(3) 0.8885(3) 0.9471(3)
C34_8 C 0.1385(3) 0.9461(3) 0.8029(3)
H36_8 H 0.2076 0.8654 0.9585
H37_8 H 0.1154 0.9576 0.7915
H41_8 H 0.1858 0.9048 0.9676
H42_8 H 0.1548 0.9358 0.7824
H46_8 H 0.2157 0.9026 0.9328
H47_8 H 0.1526 0.9657 0.8172
B2_13 B 0.30160(16) 0.80160(16) 0.69840(16)
H50_13 H 0.3182 0.8182 0.6818
Fe1_26 Fe 0.2500 0.2500 0.2500
N1_14 N 0.23269(10) 0.28617(9) 0.29140(9)
N2_14 N 0.25915(10) 0.30740(9) 0.31095(10)
C1_14 C 0.19908(13) 0.29740(12) 0.30605(12)
H1_14 H 0.1750 0.2872 0.2983
C2_14 C 0.24082(14) 0.32961(14) 0.33520(14)
H2_14 H 0.2529 0.3471 0.3523
B1_14 B 0.30160(16) 0.30160(16) 0.30160(16)
H9_14 H 0.3182 0.3182 0.3182
Rh4_14 Rh 0.142534(10) 0.129168(11) 0.337425(10)
Rh5_14 Rh 0.337425(10) 0.142534(10) 0.129168(11)
Rh6_14 Rh 0.129168(11) 0.337425(10) 0.142534(10)
N4_14 N 0.29140(9) 0.23269(10) 0.28617(9)
N5_14 N 0.28617(9) 0.29140(9) 0.23269(10)
N6_14 N 0.21383(9) 0.20860(9) 0.26731(10)
N7_14 N 0.26731(10) 0.21383(9) 0.20860(9)
N8_14 N 0.20860(9) 0.26731(10) 0.21383(9)
N9_14 N 0.31095(10) 0.25915(10) 0.30740(9)
N10_14 N 0.30740(9) 0.31095(10) 0.25915(10)
N11_14 N 0.19260(9) 0.18905(10) 0.24085(10)
N12_14 N 0.24085(10) 0.19260(9) 0.18905(10)
N13_14 N 0.18905(10) 0.24085(10) 0.19260(9)
N16_14 N 0.17547(12) 0.16726(12) 0.29669(12)
N17_14 N 0.29669(12) 0.17547(12) 0.16726(12)
N18_14 N 0.16726(12) 0.29669(12) 0.17547(12)
C7_14 C 0.30605(12) 0.19908(13) 0.29740(12)
C8_14 C 0.29740(12) 0.30605(12) 0.19908(13)
C9_14 C 0.20260(12) 0.19395(12) 0.30092(13)
C10_14 C 0.30092(13) 0.20260(12) 0.19395(12)
C11_14 C 0.19395(12) 0.30092(13) 0.20260(12)
H10_14 H 0.2983 0.1750 0.2872
H11_14 H 0.2872 0.2983 0.1750
H12_14 H 0.2128 0.2017 0.3250
H13_14 H 0.3250 0.2128 0.2017
H14_14 H 0.2017 0.3250 0.2128
C12_14 C 0.33520(14) 0.24082(14) 0.32961(14)
C13_14 C 0.32961(14) 0.33520(14) 0.24082(14)
C14_14 C 0.17039(14) 0.16480(14) 0.25918(14)
C15_14 C 0.25918(14) 0.17039(14) 0.16480(14)
C16_14 C 0.16480(14) 0.25918(14) 0.17039(14)
H15_14 H 0.3523 0.2529 0.3471
H16_14 H 0.3471 0.3523 0.2529
H17_14 H 0.1529 0.1477 0.2471
H18_14 H 0.2471 0.1529 0.1477
H19_14 H 0.1477 0.2471 0.1529
B2_14 B 0.19840(16) 0.19840(16) 0.19840(16)
H50_14 H 0.1818 0.1818 0.1818
Fe1_27 Fe 0.0000 -0.0000 1.0000
Rh4_15 Rh 0.120832(11) 0.107466(10) 0.912575(10)
N6_15 N 0.04140(9) 0.03617(9) 0.98269(10)
N16_15 N 0.08274(12) 0.07453(12) 0.95331(12)
C9_15 C 0.05605(12) 0.04740(12) 0.94908(13)
H12_15 H 0.0483 0.0372 0.9250
C14_15 C 0.08520(14) 0.07961(14) 0.99082(14)
Fe1_28 Fe 0.0000 1.0000 0.0000
Rh5_15 Rh 0.107466(10) 0.912575(10) 0.120832(11)
N7_15 N 0.03617(9) 0.98269(10) 0.04140(9)
N17_15 N 0.07453(12) 0.95331(12) 0.08274(12)
C10_15 C 0.04740(12) 0.94908(13) 0.05605(12)
H13_15 H 0.0372 0.9250 0.0483
C15_15 C 0.07961(14) 0.99082(14) 0.08520(14)
Fe1_29 Fe 0.0000 1.0000 1.0000
N4_15 N 0.01731(10) 0.95860(9) 0.96383(9)
C7_15 C 0.05092(13) 0.94395(12) 0.95260(12)
H10_15 H 0.0750 0.9517 0.9628
C12_15 C 0.00918(14) 0.91480(14) 0.92039(14)
Fe1_30 Fe 1.0000 -0.0000 0.0000
Rh6_15 Rh 0.912575(10) 0.120832(11) 0.107466(10)
N8_15 N 0.98269(10) 0.04140(9) 0.03617(9)
N18_15 N 0.95331(12) 0.08274(12) 0.07453(12)
C11_15 C 0.94908(13) 0.05605(12) 0.04740(12)
H14_15 H 0.9250 0.0483 0.0372
C16_15 C 0.99082(14) 0.08520(14) 0.07961(14)
Fe1_31 Fe 1.0000 -0.0000 1.0000
N1_15 N 0.96383(9) 0.01731(10) 0.95860(9)
C1_15 C 0.95260(12) 0.05092(13) 0.94395(12)
H1_15 H 0.9628 0.0750 0.9517
C2_15 C 0.92039(14) 0.00918(14) 0.91480(14)
Fe1_32 Fe 1.0000 1.0000 0.0000
N5_15 N 0.95860(9) 0.96383(9) 0.01731(10)
C8_15 C 0.94395(12) 0.95260(12) 0.05092(13)
H11_15 H 0.9517 0.9628 0.0750
C13_15 C 0.91480(14) 0.92039(14) 0.00918(14)
Fe1_33 Fe 0.5000 0.5000 0.5000
N1_16 N 0.46383(9) 0.51731(10) 0.45860(9)
N2_15 N 0.44260(9) 0.49085(10) 0.43905(10)
C1_16 C 0.45260(12) 0.55092(13) 0.44395(12)
H1_16 H 0.4628 0.5750 0.4517
C2_16 C 0.42039(14) 0.50918(14) 0.41480(14)
H2_15 H 0.4029 0.4971 0.3977
B1_15 B 0.44840(16) 0.44840(16) 0.44840(16)
H9_15 H 0.4318 0.4318 0.4318
Rh4_16 Rh 0.620832(11) 0.607466(10) 0.412575(10)
Rh5_16 Rh 0.607466(10) 0.412575(10) 0.620832(11)
Rh6_16 Rh 0.412575(10) 0.620832(11) 0.607466(10)
N4_16 N 0.51731(10) 0.45860(9) 0.46383(9)
N5_16 N 0.45860(9) 0.46383(9) 0.51731(10)
N6_16 N 0.54140(9) 0.53617(9) 0.48269(10)
N7_16 N 0.53617(9) 0.48269(10) 0.54140(9)
N8_16 N 0.48269(10) 0.54140(9) 0.53617(9)
N9_15 N 0.49085(10) 0.43905(10) 0.44260(9)
N10_15 N 0.43905(10) 0.44260(9) 0.49085(10)
N11_15 N 0.56095(10) 0.55740(9) 0.50915(10)
N12_15 N 0.55740(9) 0.50915(10) 0.56095(10)
N13_15 N 0.50915(10) 0.56095(10) 0.55740(9)
N16_16 N 0.58274(12) 0.57453(12) 0.45331(12)
N17_16 N 0.57453(12) 0.45331(12) 0.58274(12)
N18_16 N 0.45331(12) 0.58274(12) 0.57453(12)
C7_16 C 0.55092(13) 0.44395(12) 0.45260(12)
C8_16 C 0.44395(12) 0.45260(12) 0.55092(13)
C9_16 C 0.55605(12) 0.54740(12) 0.44908(13)
C10_16 C 0.54740(12) 0.44908(13) 0.55605(12)
C11_16 C 0.44908(13) 0.55605(12) 0.54740(12)
H10_16 H 0.5750 0.4517 0.4628
H11_16 H 0.4517 0.4628 0.5750
H12_16 H 0.5483 0.5372 0.4250
H13_16 H 0.5372 0.4250 0.5483
H14_16 H 0.4250 0.5483 0.5372
C12_16 C 0.50918(14) 0.41480(14) 0.42039(14)
C13_16 C 0.41480(14) 0.42039(14) 0.50918(14)
C14_16 C 0.58520(14) 0.57961(14) 0.49082(14)
C15_16 C 0.57961(14) 0.49082(14) 0.58520(14)
C16_16 C 0.49082(14) 0.58520(14) 0.57961(14)
H15_15 H 0.4971 0.3977 0.4029
H16_15 H 0.3977 0.4029 0.4971
H17_15 H 0.6023 0.5971 0.5029
H18_15 H 0.5971 0.5029 0.6023
H19_15 H 0.5029 0.6023 0.5971
B2_15 B 0.55160(16) 0.55160(16) 0.55160(16)
H50_15 H 0.5682 0.5682 0.5682
O6_9 O 0.10351(12) 0.57836(10) 0.35583(11)
O7_9 O 0.17164(10) 0.64649(12) 0.39417(11)
O11_9 O 0.04440(11) 0.63552(14) 0.35601(12)
O12_9 O 0.11448(14) 0.70560(11) 0.39399(12)
O16_9 O 0.08384(12) 0.67619(11) 0.32385(12)
O17_9 O 0.07381(11) 0.66616(12) 0.42615(12)
O21_9 O 0.14284(11) 0.61829(11) 0.32297(10)
O22_9 O 0.13171(11) 0.60716(11) 0.42703(10)
C18_9 C 0.0511(2) 0.66050(19) 0.3311(2)
C19_9 C 0.08950(19) 0.6989(2) 0.4189(2)
C23_9 C 0.0185(3) 0.6735(2) 0.3049(3)
C24_9 C 0.0765(2) 0.7315(3) 0.4451(3)
H21_9 H 0.0120 0.6527 0.2870
H22_9 H 0.0973 0.7380 0.4630
H27_8 H 0.0702 0.7541 0.4296
H31_9 H 0.0266 0.6962 0.2903
H32_9 H 0.0538 0.7234 0.4597
C28_9 C 0.12690(19) 0.5859(2) 0.32968(18)
C29_9 C 0.1641(2) 0.62310(19) 0.42032(18)
C33_9 C 0.1385(3) 0.5539(3) 0.3029(3)
C34_9 C 0.1961(3) 0.6115(3) 0.4471(3)
H36_9 H 0.1154 0.5424 0.2915
H37_9 H 0.2076 0.6346 0.4585
H41_9 H 0.1548 0.5642 0.2824
H42_9 H 0.1858 0.5952 0.4676
H46_9 H 0.1526 0.5343 0.3172
H47_9 H 0.2157 0.5974 0.4328
O1_9 O 0.85583(11) 0.39649(12) 0.42164(10)
O2_9 O 0.85601(12) 0.45560(11) 0.36448(14)
O3_9 O 0.82385(12) 0.41616(12) 0.32381(11)
O4_9 O 0.82297(10) 0.35716(11) 0.38171(11)
C3_9 C 0.8311(2) 0.4489(2) 0.33950(19)
C4_9 C 0.8049(3) 0.4815(3) 0.3265(2)
H3_9 H 0.7870 0.4880 0.3473
H4_9 H 0.8204 0.5041 0.3202
H5_9 H 0.7903 0.4734 0.3038
C5_9 C 0.82968(18) 0.37310(19) 0.4141(2)
C6_9 C 0.8029(3) 0.3615(3) 0.4461(3)
H6_9 H 0.7915 0.3846 0.4576
H7_9 H 0.7824 0.3452 0.4358
H8_9 H 0.8172 0.3474 0.4657
O5_9 O 0.89417(11) 0.32836(10) 0.35351(12)
O8_9 O 0.92164(10) 0.64417(11) 0.60351(12)
O9_9 O 0.85351(12) 0.60583(11) 0.67164(10)
O10_9 O 0.89399(12) 0.38552(14) 0.29440(11)
O13_9 O 0.86448(14) 0.64399(12) 0.54440(11)
O14_9 O 0.79440(11) 0.60601(12) 0.61448(14)
O15_9 O 0.92615(12) 0.42619(11) 0.33384(12)
O18_9 O 0.82381(11) 0.67615(12) 0.58384(12)
O19_9 O 0.83384(12) 0.57385(12) 0.57381(11)
O20_9 O 0.92703(10) 0.36829(11) 0.39284(11)
O23_9 O 0.88171(11) 0.67703(10) 0.64284(11)
O24_9 O 0.89284(11) 0.57297(10) 0.63171(11)
C17_9 C 0.9189(2) 0.41050(19) 0.3011(2)
C20_9 C 0.83950(19) 0.6689(2) 0.5511(2)
C21_9 C 0.8011(2) 0.5811(2) 0.58950(19)
C22_9 C 0.9451(3) 0.4235(2) 0.2685(3)
C25_9 C 0.8265(2) 0.6951(3) 0.5185(3)
C26_9 C 0.7685(3) 0.5549(3) 0.5765(2)
H20_9 H 0.9630 0.4027 0.2620
H23_9 H 0.8473 0.7130 0.5120
H24_9 H 0.7620 0.5370 0.5973
H25_8 H 0.9296 0.4298 0.2459
H26_9 H 0.9959 0.6798 0.3204
H28_9 H 0.8202 0.6796 0.4959
H29_8 H 0.7459 0.5704 0.5702
H30_9 H 0.9597 0.4462 0.2766
H33_9 H 0.8038 0.7097 0.5266
H34_9 H 0.7766 0.5403 0.5538
C27_9 C 0.92032(18) 0.3359(2) 0.37690(19)
C30_9 C 0.9141(2) 0.67032(18) 0.62690(19)
C31_9 C 0.87690(19) 0.57968(18) 0.6641(2)
C32_9 C 0.9471(3) 0.3039(3) 0.3885(3)
C35_9 C 0.9461(3) 0.6971(3) 0.6385(3)
C36_9 C 0.8885(3) 0.5529(3) 0.6961(3)
H35_9 H 0.9585 0.2924 0.3654
H38_9 H 0.9576 0.7085 0.6154
H39_9 H 0.8654 0.5415 0.7076
H40_9 H 0.9676 0.3142 0.4048
H43_9 H 0.9358 0.7176 0.6548
H44_9 H 0.9048 0.5324 0.6858
H45_9 H 0.9328 0.2843 0.4026
H48_9 H 0.9657 0.6828 0.6526
H49_9 H 0.9026 0.5672 0.7157
O6_10 O 0.35583(11) 0.10351(12) 0.57836(10)
O7_10 O 0.39417(11) 0.17164(10) 0.64649(12)
O11_10 O 0.35601(12) 0.04440(11) 0.63552(14)
O12_10 O 0.39399(12) 0.11448(14) 0.70560(11)
O16_10 O 0.32385(12) 0.08384(12) 0.67619(11)
O17_10 O 0.42615(12) 0.07381(11) 0.66616(12)
O21_10 O 0.32297(10) 0.14284(11) 0.61829(11)
O22_10 O 0.42703(10) 0.13171(11) 0.60716(11)
C18_10 C 0.3311(2) 0.0511(2) 0.66050(19)
C19_10 C 0.4189(2) 0.08950(19) 0.6989(2)
C23_10 C 0.3049(3) 0.0185(3) 0.6735(2)
C24_10 C 0.4451(3) 0.0765(2) 0.7315(3)
H21_10 H 0.2870 0.0120 0.6527
H22_10 H 0.4630 0.0973 0.7380
H27_9 H 0.4296 0.0702 0.7541
H31_10 H 0.2903 0.0266 0.6962
H32_10 H 0.4597 0.0538 0.7234
C28_10 C 0.32968(18) 0.12690(19) 0.5859(2)
C29_10 C 0.42032(18) 0.1641(2) 0.62310(19)
C33_10 C 0.3029(3) 0.1385(3) 0.5539(3)
C34_10 C 0.4471(3) 0.1961(3) 0.6115(3)
H36_10 H 0.2915 0.1154 0.5424
H37_10 H 0.4585 0.2076 0.6346
H41_10 H 0.2824 0.1548 0.5642
H42_10 H 0.4676 0.1858 0.5952
H46_10 H 0.3172 0.1526 0.5343
H47_10 H 0.4328 0.2157 0.5974
O1_10 O 0.42164(10) 0.85583(11) 0.39649(12)
O2_10 O 0.36448(14) 0.85601(12) 0.45560(11)
O3_10 O 0.32381(11) 0.82385(12) 0.41616(12)
O4_10 O 0.38171(11) 0.82297(10) 0.35716(11)
C3_10 C 0.33950(19) 0.8311(2) 0.4489(2)
C4_10 C 0.3265(2) 0.8049(3) 0.4815(3)
H3_10 H 0.3473 0.7870 0.4880
H4_10 H 0.3202 0.8204 0.5041
H5_10 H 0.3038 0.7903 0.4734
C5_10 C 0.4141(2) 0.82968(18) 0.37310(19)
C6_10 C 0.4461(3) 0.8029(3) 0.3615(3)
H6_10 H 0.4576 0.7915 0.3846
H7_10 H 0.4358 0.7824 0.3452
H8_10 H 0.4657 0.8172 0.3474
O5_10 O 0.35351(12) 0.89417(11) 0.32836(10)
O8_10 O 0.60351(12) 0.92164(10) 0.64417(11)
O9_10 O 0.67164(10) 0.85351(12) 0.60583(11)
O10_10 O 0.29440(11) 0.89399(12) 0.38552(14)
O13_10 O 0.54440(11) 0.86448(14) 0.64399(12)
O14_10 O 0.61448(14) 0.79440(11) 0.60601(12)
O15_10 O 0.33384(12) 0.92615(12) 0.42619(11)
O18_10 O 0.58384(12) 0.82381(11) 0.67615(12)
O19_10 O 0.57381(11) 0.83384(12) 0.57385(12)
O20_10 O 0.39284(11) 0.92703(10) 0.36829(11)
O23_10 O 0.64284(11) 0.88171(11) 0.67703(10)
O24_10 O 0.63171(11) 0.89284(11) 0.57297(10)
C17_10 C 0.3011(2) 0.9189(2) 0.41050(19)
C20_10 C 0.5511(2) 0.83950(19) 0.6689(2)
C21_10 C 0.58950(19) 0.8011(2) 0.5811(2)
C22_10 C 0.2685(3) 0.9451(3) 0.4235(2)
C25_10 C 0.5185(3) 0.8265(2) 0.6951(3)
C26_10 C 0.5765(2) 0.7685(3) 0.5549(3)
H20_10 H 0.2620 0.9630 0.4027
H23_10 H 0.5120 0.8473 0.7130
H24_10 H 0.5973 0.7620 0.5370
H25_9 H 0.2459 0.9296 0.4298
H26_10 H 0.3204 0.9959 0.6798
H28_10 H 0.4959 0.8202 0.6796
H29_9 H 0.5702 0.7459 0.5704
H30_10 H 0.2766 0.9597 0.4462
H33_10 H 0.5266 0.8038 0.7097
H34_10 H 0.5538 0.7766 0.5403
C27_10 C 0.37690(19) 0.92032(18) 0.3359(2)
C30_10 C 0.62690(19) 0.9141(2) 0.67032(18)
C31_10 C 0.6641(2) 0.87690(19) 0.57968(18)
C32_10 C 0.3885(3) 0.9471(3) 0.3039(3)
C35_10 C 0.6385(3) 0.9461(3) 0.6971(3)
C36_10 C 0.6961(3) 0.8885(3) 0.5529(3)
H35_10 H 0.3654 0.9585 0.2924
H38_10 H 0.6154 0.9576 0.7085
H39_10 H 0.7076 0.8654 0.5415
H40_10 H 0.4048 0.9676 0.3142
H43_10 H 0.6548 0.9358 0.7176
H44_10 H 0.6858 0.9048 0.5324
H45_10 H 0.4026 0.9328 0.2843
H48_10 H 0.6526 0.9657 0.6828
H49_10 H 0.7157 0.9026 0.5672
O6_11 O 0.57836(10) 0.35583(11) 0.10351(12)
O7_11 O 0.64649(12) 0.39417(11) 0.17164(10)
O11_11 O 0.63552(14) 0.35601(12) 0.04440(11)
O12_11 O 0.70560(11) 0.39399(12) 0.11448(14)
O16_11 O 0.67619(11) 0.32385(12) 0.08384(12)
O17_11 O 0.66616(12) 0.42615(12) 0.07381(11)
O21_11 O 0.61829(11) 0.32297(10) 0.14284(11)
O22_11 O 0.60716(11) 0.42703(10) 0.13171(11)
C18_11 C 0.66050(19) 0.3311(2) 0.0511(2)
C19_11 C 0.6989(2) 0.4189(2) 0.08950(19)
C23_11 C 0.6735(2) 0.3049(3) 0.0185(3)
C24_11 C 0.7315(3) 0.4451(3) 0.0765(2)
H21_11 H 0.6527 0.2870 0.0120
H22_11 H 0.7380 0.4630 0.0973
H27_10 H 0.7541 0.4296 0.0702
H31_11 H 0.6962 0.2903 0.0266
H32_11 H 0.7234 0.4597 0.0538
C28_11 C 0.5859(2) 0.32968(18) 0.12690(19)
C29_11 C 0.62310(19) 0.42032(18) 0.1641(2)
C33_11 C 0.5539(3) 0.3029(3) 0.1385(3)
C34_11 C 0.6115(3) 0.4471(3) 0.1961(3)
H36_11 H 0.5424 0.2915 0.1154
H37_11 H 0.6346 0.4585 0.2076
H41_11 H 0.5642 0.2824 0.1548
H42_11 H 0.5952 0.4676 0.1858
H46_11 H 0.5343 0.3172 0.1526
H47_11 H 0.5974 0.4328 0.2157
O1_11 O 0.39649(12) 0.42164(10) 0.85583(11)
O2_11 O 0.45560(11) 0.36448(14) 0.85601(12)
O3_11 O 0.41616(12) 0.32381(11) 0.82385(12)
O4_11 O 0.35716(11) 0.38171(11) 0.82297(10)
C3_11 C 0.4489(2) 0.33950(19) 0.8311(2)
C4_11 C 0.4815(3) 0.3265(2) 0.8049(3)
H3_11 H 0.4880 0.3473 0.7870
H4_11 H 0.5041 0.3202 0.8204
H5_11 H 0.4734 0.3038 0.7903
C5_11 C 0.37310(19) 0.4141(2) 0.82968(18)
C6_11 C 0.3615(3) 0.4461(3) 0.8029(3)
H6_11 H 0.3846 0.4576 0.7915
H7_11 H 0.3452 0.4358 0.7824
H8_11 H 0.3474 0.4657 0.8172
O5_11 O 0.32836(10) 0.35351(12) 0.89417(11)
O8_11 O 0.64417(11) 0.60351(12) 0.92164(10)
O9_11 O 0.60583(11) 0.67164(10) 0.85351(12)
O10_11 O 0.38552(14) 0.29440(11) 0.89399(12)
O13_11 O 0.64399(12) 0.54440(11) 0.86448(14)
O14_11 O 0.60601(12) 0.61448(14) 0.79440(11)
O15_11 O 0.42619(11) 0.33384(12) 0.92615(12)
O18_11 O 0.67615(12) 0.58384(12) 0.82381(11)
O19_11 O 0.57385(12) 0.57381(11) 0.83384(12)
O20_11 O 0.36829(11) 0.39284(11) 0.92703(10)
O23_11 O 0.67703(10) 0.64284(11) 0.88171(11)
O24_11 O 0.57297(10) 0.63171(11) 0.89284(11)
C17_11 C 0.41050(19) 0.3011(2) 0.9189(2)
C20_11 C 0.6689(2) 0.5511(2) 0.83950(19)
C21_11 C 0.5811(2) 0.58950(19) 0.8011(2)
C22_11 C 0.4235(2) 0.2685(3) 0.9451(3)
C25_11 C 0.6951(3) 0.5185(3) 0.8265(2)
C26_11 C 0.5549(3) 0.5765(2) 0.7685(3)
H20_11 H 0.4027 0.2620 0.9630
H23_11 H 0.7130 0.5120 0.8473
H24_11 H 0.5370 0.5973 0.7620
H25_10 H 0.4298 0.2459 0.9296
H26_11 H 0.6798 0.3204 0.9959
H28_11 H 0.6796 0.4959 0.8202
H29_10 H 0.5704 0.5702 0.7459
H30_11 H 0.4462 0.2766 0.9597
H33_11 H 0.7097 0.5266 0.8038
H34_11 H 0.5403 0.5538 0.7766
C27_11 C 0.3359(2) 0.37690(19) 0.92032(18)
C30_11 C 0.67032(18) 0.62690(19) 0.9141(2)
C31_11 C 0.57968(18) 0.6641(2) 0.87690(19)
C32_11 C 0.3039(3) 0.3885(3) 0.9471(3)
C35_11 C 0.6971(3) 0.6385(3) 0.9461(3)
C36_11 C 0.5529(3) 0.6961(3) 0.8885(3)
H35_11 H 0.2924 0.3654 0.9585
H38_11 H 0.7085 0.6154 0.9576
H39_11 H 0.5415 0.7076 0.8654
H40_11 H 0.3142 0.4048 0.9676
H43_11 H 0.7176 0.6548 0.9358
H44_11 H 0.5324 0.6858 0.9048
H45_11 H 0.2843 0.4026 0.9328
H48_11 H 0.6828 0.6526 0.9657
H49_11 H 0.5672 0.7157 0.9026
H27_11 H 0.0041 0.8202 0.3204
O1_12 O 0.64649(12) 0.60583(11) 0.32836(10)
O2_12 O 0.70560(11) 0.60601(12) 0.38552(14)
O3_12 O 0.66616(12) 0.57385(12) 0.42619(11)
O4_12 O 0.60716(11) 0.57297(10) 0.36829(11)
C3_12 C 0.6989(2) 0.5811(2) 0.41050(19)
C4_12 C 0.7315(3) 0.5549(3) 0.4235(2)
H3_12 H 0.7380 0.5370 0.4027
H4_12 H 0.7541 0.5704 0.4298
H5_12 H 0.7234 0.5403 0.4462
C5_12 C 0.62310(19) 0.57968(18) 0.3359(2)
C6_12 C 0.6115(3) 0.5529(3) 0.3039(3)
H6_12 H 0.6346 0.5415 0.2924
H7_12 H 0.5952 0.5324 0.3142
H8_12 H 0.5974 0.5672 0.2843
O5_12 O 0.57836(10) 0.64417(11) 0.39649(12)
O6_12 O 0.82836(10) 0.85351(12) 0.39417(11)
O7_12 O 0.89649(12) 0.92164(10) 0.35583(11)
O8_12 O 0.89417(11) 0.67164(10) 0.14649(12)
O9_12 O 0.85583(11) 0.60351(12) 0.07836(10)
O10_12 O 0.63552(14) 0.64399(12) 0.45560(11)
O11_12 O 0.88552(14) 0.79440(11) 0.39399(12)
O12_12 O 0.95560(11) 0.86448(14) 0.35601(12)
O13_12 O 0.89399(12) 0.61448(14) 0.20560(11)
O14_12 O 0.85601(12) 0.54440(11) 0.13552(14)
O15_12 O 0.67619(11) 0.67615(12) 0.41616(12)
O16_12 O 0.92619(11) 0.83384(12) 0.42615(12)
O17_12 O 0.91616(12) 0.82381(11) 0.32385(12)
O18_12 O 0.92615(12) 0.57381(11) 0.16616(12)
O19_12 O 0.82385(12) 0.58384(12) 0.17619(11)
O20_12 O 0.61829(11) 0.67703(10) 0.35716(11)
O21_12 O 0.86829(11) 0.89284(11) 0.42703(10)
O22_12 O 0.85716(11) 0.88171(11) 0.32297(10)
O23_12 O 0.92703(10) 0.63171(11) 0.10716(11)
O24_12 O 0.82297(10) 0.64284(11) 0.11829(11)
C17_12 C 0.66050(19) 0.6689(2) 0.4489(2)
C18_12 C 0.91050(19) 0.8011(2) 0.4189(2)
C19_12 C 0.9489(2) 0.83950(19) 0.3311(2)
C20_12 C 0.9189(2) 0.58950(19) 0.1989(2)
C21_12 C 0.8311(2) 0.5511(2) 0.16050(19)
C22_12 C 0.6735(2) 0.6951(3) 0.4815(3)
C23_12 C 0.9235(2) 0.7685(3) 0.4451(3)
C24_12 C 0.9815(3) 0.8265(2) 0.3049(3)
C25_12 C 0.9451(3) 0.5765(2) 0.2315(3)
C26_12 C 0.8049(3) 0.5185(3) 0.1735(2)
H20_12 H 0.6527 0.7130 0.4880
H21_12 H 0.9027 0.7620 0.4630
H22_12 H 0.9880 0.8473 0.2870
H23_12 H 0.9630 0.5973 0.2380
H24_12 H 0.7870 0.5120 0.1527
H25_11 H 0.6798 0.6796 0.5041
H26_12 H 0.9298 0.7459 0.4296
H28_12 H 0.9296 0.5702 0.2541
H29_11 H 0.8204 0.4959 0.1798
H30_12 H 0.6962 0.7097 0.4734
H31_12 H 0.9462 0.7766 0.4597
H32_12 H 0.9734 0.8038 0.2903
H33_12 H 0.9597 0.5538 0.2234
H34_12 H 0.7903 0.5266 0.1962
C27_12 C 0.5859(2) 0.67032(18) 0.37310(19)
C28_12 C 0.8359(2) 0.87690(19) 0.42032(18)
C29_12 C 0.87310(19) 0.9141(2) 0.32968(18)
C30_12 C 0.92032(18) 0.6641(2) 0.12310(19)
C31_12 C 0.82968(18) 0.62690(19) 0.0859(2)
C32_12 C 0.5539(3) 0.6971(3) 0.3615(3)
C33_12 C 0.8039(3) 0.8885(3) 0.4471(3)
C34_12 C 0.8615(3) 0.9461(3) 0.3029(3)
C35_12 C 0.9471(3) 0.6961(3) 0.1115(3)
C36_12 C 0.8029(3) 0.6385(3) 0.0539(3)
H35_12 H 0.5424 0.7085 0.3846
H36_12 H 0.7924 0.8654 0.4585
H37_12 H 0.8846 0.9576 0.2915
H38_12 H 0.9585 0.7076 0.1346
H39_12 H 0.7915 0.6154 0.0424
H40_12 H 0.5642 0.7176 0.3452
H41_12 H 0.8142 0.9048 0.4676
H42_12 H 0.8452 0.9358 0.2824
H43_12 H 0.9676 0.6858 0.0952
H44_12 H 0.7824 0.6548 0.0642
H45_12 H 0.5343 0.6828 0.3474
H46_12 H 0.7843 0.9026 0.4328
H47_12 H 0.8474 0.9657 0.3172
H48_12 H 0.9328 0.7157 0.0974
H49_12 H 0.8172 0.6526 0.0343
H29_12 H 0.3204 0.0041 0.8202
O1_13 O 0.14649(12) 0.89417(11) 0.67164(10)
O2_13 O 0.20560(11) 0.89399(12) 0.61448(14)
O3_13 O 0.16616(12) 0.92615(12) 0.57381(11)
O4_13 O 0.10716(11) 0.92703(10) 0.63171(11)
C3_13 C 0.1989(2) 0.9189(2) 0.58950(19)
C4_13 C 0.2315(3) 0.9451(3) 0.5765(2)
H3_13 H 0.2380 0.9630 0.5973
H4_13 H 0.2541 0.9296 0.5702
H5_13 H 0.2234 0.9597 0.5538
C5_13 C 0.12310(19) 0.92032(18) 0.6641(2)
C6_13 C 0.1115(3) 0.9471(3) 0.6961(3)
H6_13 H 0.1346 0.9585 0.7076
H7_13 H 0.0952 0.9676 0.6858
H8_13 H 0.0974 0.9328 0.7157
O5_13 O 0.07836(10) 0.85583(11) 0.60351(12)
O6_13 O 0.32836(10) 0.64649(12) 0.60583(11)
O7_13 O 0.39649(12) 0.57836(10) 0.64417(11)
O8_13 O 0.39417(11) 0.82836(10) 0.85351(12)
O9_13 O 0.35583(11) 0.89649(12) 0.92164(10)
O10_13 O 0.13552(14) 0.85601(12) 0.54440(11)
O11_13 O 0.38552(14) 0.70560(11) 0.60601(12)
O12_13 O 0.45560(11) 0.63552(14) 0.64399(12)
O13_13 O 0.39399(12) 0.88552(14) 0.79440(11)
O14_13 O 0.35601(12) 0.95560(11) 0.86448(14)
O15_13 O 0.17619(11) 0.82385(12) 0.58384(12)
O16_13 O 0.42619(11) 0.66616(12) 0.57385(12)
O17_13 O 0.41616(12) 0.67619(11) 0.67615(12)
O18_13 O 0.42615(12) 0.92619(11) 0.83384(12)
O19_13 O 0.32385(12) 0.91616(12) 0.82381(11)
O20_13 O 0.11829(11) 0.82297(10) 0.64284(11)
O21_13 O 0.36829(11) 0.60716(11) 0.57297(10)
O22_13 O 0.35716(11) 0.61829(11) 0.67703(10)
O23_13 O 0.42703(10) 0.86829(11) 0.89284(11)
O24_13 O 0.32297(10) 0.85716(11) 0.88171(11)
C17_13 C 0.16050(19) 0.8311(2) 0.5511(2)
C18_13 C 0.41050(19) 0.6989(2) 0.5811(2)
C19_13 C 0.4489(2) 0.66050(19) 0.6689(2)
C20_13 C 0.4189(2) 0.91050(19) 0.8011(2)
C21_13 C 0.3311(2) 0.9489(2) 0.83950(19)
C22_13 C 0.1735(2) 0.8049(3) 0.5185(3)
C23_13 C 0.4235(2) 0.7315(3) 0.5549(3)
C24_13 C 0.4815(3) 0.6735(2) 0.6951(3)
C25_13 C 0.4451(3) 0.9235(2) 0.7685(3)
C26_13 C 0.3049(3) 0.9815(3) 0.8265(2)
H20_13 H 0.1527 0.7870 0.5120
H21_13 H 0.4027 0.7380 0.5370
H22_13 H 0.4880 0.6527 0.7130
H23_13 H 0.4630 0.9027 0.7620
H24_13 H 0.2870 0.9880 0.8473
H25_12 H 0.1798 0.8204 0.4959
H26_13 H 0.4298 0.7541 0.5704
H27_12 H 0.5041 0.6798 0.6796
H28_13 H 0.4296 0.9298 0.7459
H30_13 H 0.1962 0.7903 0.5266
H31_13 H 0.4462 0.7234 0.5403
H32_13 H 0.4734 0.6962 0.7097
H33_13 H 0.4597 0.9462 0.7766
H34_13 H 0.2903 0.9734 0.8038
C27_13 C 0.0859(2) 0.82968(18) 0.62690(19)
C28_13 C 0.3359(2) 0.62310(19) 0.57968(18)
C29_13 C 0.37310(19) 0.5859(2) 0.67032(18)
C30_13 C 0.42032(18) 0.8359(2) 0.87690(19)
C31_13 C 0.32968(18) 0.87310(19) 0.9141(2)
C32_13 C 0.0539(3) 0.8029(3) 0.6385(3)
C33_13 C 0.3039(3) 0.6115(3) 0.5529(3)
C34_13 C 0.3615(3) 0.5539(3) 0.6971(3)
C35_13 C 0.4471(3) 0.8039(3) 0.8885(3)
C36_13 C 0.3029(3) 0.8615(3) 0.9461(3)
H35_13 H 0.0424 0.7915 0.6154
H36_13 H 0.2924 0.6346 0.5415
H37_13 H 0.3846 0.5424 0.7085
H38_13 H 0.4585 0.7924 0.8654
H39_13 H 0.2915 0.8846 0.9576
H40_13 H 0.0642 0.7824 0.6548
H41_13 H 0.3142 0.5952 0.5324
H42_13 H 0.3452 0.5642 0.7176
H43_13 H 0.4676 0.8142 0.9048
H44_13 H 0.2824 0.8452 0.9358
H45_13 H 0.0343 0.8172 0.6526
H46_13 H 0.2843 0.5974 0.5672
H47_13 H 0.3474 0.5343 0.6828
H48_13 H 0.4328 0.7843 0.9026
H49_13 H 0.3172 0.8474 0.9657
O1_14 O 0.35351(12) 0.10583(11) 0.17164(10)
O2_14 O 0.29440(11) 0.10601(12) 0.11448(14)
O3_14 O 0.33384(12) 0.07385(12) 0.07381(11)
O4_14 O 0.39284(11) 0.07297(10) 0.13171(11)
C3_14 C 0.3011(2) 0.0811(2) 0.08950(19)
C4_14 C 0.2685(3) 0.0549(3) 0.0765(2)
H3_14 H 0.2620 0.0370 0.0973
H4_14 H 0.2459 0.0704 0.0702
H5_14 H 0.2766 0.0403 0.0538
C5_14 C 0.37690(19) 0.07968(18) 0.1641(2)
C6_14 C 0.3885(3) 0.0529(3) 0.1961(3)
H6_14 H 0.3654 0.0415 0.2076
H7_14 H 0.4048 0.0324 0.1858
H8_14 H 0.4026 0.0672 0.2157
O5_14 O 0.42164(10) 0.14417(11) 0.10351(12)
O6_14 O 0.17164(10) 0.35351(12) 0.10583(11)
O7_14 O 0.10351(12) 0.42164(10) 0.14417(11)
O8_14 O 0.10583(11) 0.17164(10) 0.35351(12)
O9_14 O 0.14417(11) 0.10351(12) 0.42164(10)
O10_14 O 0.36448(14) 0.14399(12) 0.04440(11)
O11_14 O 0.11448(14) 0.29440(11) 0.10601(12)
O12_14 O 0.04440(11) 0.36448(14) 0.14399(12)
O13_14 O 0.10601(12) 0.11448(14) 0.29440(11)
O14_14 O 0.14399(12) 0.04440(11) 0.36448(14)
O15_14 O 0.32381(11) 0.17615(12) 0.08384(12)
O16_14 O 0.07381(11) 0.33384(12) 0.07385(12)
O17_14 O 0.08384(12) 0.32381(11) 0.17615(12)
O18_14 O 0.07385(12) 0.07381(11) 0.33384(12)
O19_14 O 0.17615(12) 0.08384(12) 0.32381(11)
O20_14 O 0.38171(11) 0.17703(10) 0.14284(11)
O21_14 O 0.13171(11) 0.39284(11) 0.07297(10)
O22_14 O 0.14284(11) 0.38171(11) 0.17703(10)
O23_14 O 0.07297(10) 0.13171(11) 0.39284(11)
O24_14 O 0.17703(10) 0.14284(11) 0.38171(11)
C17_14 C 0.33950(19) 0.1689(2) 0.0511(2)
C18_14 C 0.08950(19) 0.3011(2) 0.0811(2)
C19_14 C 0.0511(2) 0.33950(19) 0.1689(2)
C20_14 C 0.0811(2) 0.08950(19) 0.3011(2)
C21_14 C 0.1689(2) 0.0511(2) 0.33950(19)
C22_14 C 0.3265(2) 0.1951(3) 0.0185(3)
C23_14 C 0.0765(2) 0.2685(3) 0.0549(3)
C24_14 C 0.0185(3) 0.3265(2) 0.1951(3)
C25_14 C 0.0549(3) 0.0765(2) 0.2685(3)
C26_14 C 0.1951(3) 0.0185(3) 0.3265(2)
H20_14 H 0.3473 0.2130 0.0120
H21_14 H 0.0973 0.2620 0.0370
H22_14 H 0.0120 0.3473 0.2130
H23_14 H 0.0370 0.0973 0.2620
H24_14 H 0.2130 0.0120 0.3473
H26_14 H 0.0702 0.2459 0.0704
H28_14 H 0.0704 0.0702 0.2459
H30_14 H 0.3038 0.2097 0.0266
H31_14 H 0.0538 0.2766 0.0403
H32_14 H 0.0266 0.3038 0.2097
H33_14 H 0.0403 0.0538 0.2766
H34_14 H 0.2097 0.0266 0.3038
C27_14 C 0.4141(2) 0.17032(18) 0.12690(19)
C28_14 C 0.1641(2) 0.37690(19) 0.07968(18)
C29_14 C 0.12690(19) 0.4141(2) 0.17032(18)
C30_14 C 0.07968(18) 0.1641(2) 0.37690(19)
C31_14 C 0.17032(18) 0.12690(19) 0.4141(2)
C32_14 C 0.4461(3) 0.1971(3) 0.1385(3)
C33_14 C 0.1961(3) 0.3885(3) 0.0529(3)
C34_14 C 0.1385(3) 0.4461(3) 0.1971(3)
C35_14 C 0.0529(3) 0.1961(3) 0.3885(3)
C36_14 C 0.1971(3) 0.1385(3) 0.4461(3)
H35_14 H 0.4576 0.2085 0.1154
H36_14 H 0.2076 0.3654 0.0415
H37_14 H 0.1154 0.4576 0.2085
H38_14 H 0.0415 0.2076 0.3654
H39_14 H 0.2085 0.1154 0.4576
H40_14 H 0.4358 0.2176 0.1548
H41_14 H 0.1858 0.4048 0.0324
H42_14 H 0.1548 0.4358 0.2176
H43_14 H 0.0324 0.1858 0.4048
H44_14 H 0.2176 0.1548 0.4358
H45_14 H 0.4657 0.1828 0.1526
H46_14 H 0.2157 0.4026 0.0672
H47_14 H 0.1526 0.4657 0.1828
H48_14 H 0.0672 0.2157 0.4026
H49_14 H 0.1828 0.1526 0.4657
H25_13 H 0.3202 0.1796 0.9959
H29_13 H 0.1796 0.9959 0.3202
H27_13 H 0.9959 0.3202 0.1796
H27_14 H 0.8202 0.3204 0.0041
O1_15 O 0.60583(11) 0.32836(10) 0.64649(12)
O2_15 O 0.60601(12) 0.38552(14) 0.70560(11)
O3_15 O 0.57385(12) 0.42619(11) 0.66616(12)
O4_15 O 0.57297(10) 0.36829(11) 0.60716(11)
C3_15 C 0.5811(2) 0.41050(19) 0.6989(2)
C4_15 C 0.5549(3) 0.4235(2) 0.7315(3)
H3_15 H 0.5370 0.4027 0.7380
H4_15 H 0.5704 0.4298 0.7541
H5_15 H 0.5403 0.4462 0.7234
C5_15 C 0.57968(18) 0.3359(2) 0.62310(19)
C6_15 C 0.5529(3) 0.3039(3) 0.6115(3)
H6_15 H 0.5415 0.2924 0.6346
H7_15 H 0.5324 0.3142 0.5952
H8_15 H 0.5672 0.2843 0.5974
O5_15 O 0.64417(11) 0.39649(12) 0.57836(10)
O6_15 O 0.85351(12) 0.39417(11) 0.82836(10)
O7_15 O 0.92164(10) 0.35583(11) 0.89649(12)
O8_15 O 0.67164(10) 0.14649(12) 0.89417(11)
O9_15 O 0.60351(12) 0.07836(10) 0.85583(11)
O10_15 O 0.64399(12) 0.45560(11) 0.63552(14)
O11_15 O 0.79440(11) 0.39399(12) 0.88552(14)
O12_15 O 0.86448(14) 0.35601(12) 0.95560(11)
O13_15 O 0.61448(14) 0.20560(11) 0.89399(12)
O14_15 O 0.54440(11) 0.13552(14) 0.85601(12)
O15_15 O 0.67615(12) 0.41616(12) 0.67619(11)
O16_15 O 0.83384(12) 0.42615(12) 0.92619(11)
O17_15 O 0.82381(11) 0.32385(12) 0.91616(12)
O18_15 O 0.57381(11) 0.16616(12) 0.92615(12)
O19_15 O 0.58384(12) 0.17619(11) 0.82385(12)
O20_15 O 0.67703(10) 0.35716(11) 0.61829(11)
O21_15 O 0.89284(11) 0.42703(10) 0.86829(11)
O22_15 O 0.88171(11) 0.32297(10) 0.85716(11)
O23_15 O 0.63171(11) 0.10716(11) 0.92703(10)
O24_15 O 0.64284(11) 0.11829(11) 0.82297(10)
C17_15 C 0.6689(2) 0.4489(2) 0.66050(19)
C18_15 C 0.8011(2) 0.4189(2) 0.91050(19)
C19_15 C 0.83950(19) 0.3311(2) 0.9489(2)
C20_15 C 0.58950(19) 0.1989(2) 0.9189(2)
C21_15 C 0.5511(2) 0.16050(19) 0.8311(2)
C22_15 C 0.6951(3) 0.4815(3) 0.6735(2)
C23_15 C 0.7685(3) 0.4451(3) 0.9235(2)
C24_15 C 0.8265(2) 0.3049(3) 0.9815(3)
C25_15 C 0.5765(2) 0.2315(3) 0.9451(3)
C26_15 C 0.5185(3) 0.1735(2) 0.8049(3)
H20_15 H 0.7130 0.4880 0.6527
H21_15 H 0.7620 0.4630 0.9027
H22_15 H 0.8473 0.2870 0.9880
H23_15 H 0.5973 0.2380 0.9630
H24_15 H 0.5120 0.1527 0.7870
H25_14 H 0.6796 0.5041 0.6798
H26_15 H 0.7459 0.4296 0.9298
H28_15 H 0.5702 0.2541 0.9296
H29_14 H 0.4959 0.1798 0.8204
H30_15 H 0.7097 0.4734 0.6962
H31_15 H 0.7766 0.4597 0.9462
H32_15 H 0.8038 0.2903 0.9734
H33_15 H 0.5538 0.2234 0.9597
H34_15 H 0.5266 0.1962 0.7903
C27_15 C 0.67032(18) 0.37310(19) 0.5859(2)
C28_15 C 0.87690(19) 0.42032(18) 0.8359(2)
C29_15 C 0.9141(2) 0.32968(18) 0.87310(19)
C30_15 C 0.6641(2) 0.12310(19) 0.92032(18)
C31_15 C 0.62690(19) 0.0859(2) 0.82968(18)
C32_15 C 0.6971(3) 0.3615(3) 0.5539(3)
C33_15 C 0.8885(3) 0.4471(3) 0.8039(3)
C34_15 C 0.9461(3) 0.3029(3) 0.8615(3)
C35_15 C 0.6961(3) 0.1115(3) 0.9471(3)
C36_15 C 0.6385(3) 0.0539(3) 0.8029(3)
H35_15 H 0.7085 0.3846 0.5424
H36_15 H 0.8654 0.4585 0.7924
H37_15 H 0.9576 0.2915 0.8846
H38_15 H 0.7076 0.1346 0.9585
H39_15 H 0.6154 0.0424 0.7915
H40_15 H 0.7176 0.3452 0.5642
H41_15 H 0.9048 0.4676 0.8142
H42_15 H 0.9358 0.2824 0.8452
H43_15 H 0.6858 0.0952 0.9676
H44_15 H 0.6548 0.0642 0.7824
H45_15 H 0.6828 0.3474 0.5343
H46_15 H 0.9026 0.4328 0.7843
H47_15 H 0.9657 0.3172 0.8474
H48_15 H 0.7157 0.0974 0.9328
H49_15 H 0.6526 0.0343 0.8172
O1_16 O 0.14649(12) 0.10583(11) 0.82836(10)
O2_16 O 0.20560(11) 0.10601(12) 0.88552(14)
O3_16 O 0.16616(12) 0.07385(12) 0.92619(11)
O4_16 O 0.10716(11) 0.07297(10) 0.86829(11)
C3_16 C 0.1989(2) 0.0811(2) 0.91050(19)
C4_16 C 0.2315(3) 0.0549(3) 0.9235(2)
H3_16 H 0.2380 0.0370 0.9027
H4_16 H 0.2541 0.0704 0.9298
H5_16 H 0.2234 0.0403 0.9462
C5_16 C 0.12310(19) 0.07968(18) 0.8359(2)
C6_16 C 0.1115(3) 0.0529(3) 0.8039(3)
H6_16 H 0.1346 0.0415 0.7924
H7_16 H 0.0952 0.0324 0.8142
H8_16 H 0.0974 0.0672 0.7843
O5_16 O 0.07836(10) 0.14417(11) 0.89649(12)
O10_16 O 0.13552(14) 0.14399(12) 0.95560(11)
O15_16 O 0.17619(11) 0.17615(12) 0.91616(12)
O20_16 O 0.11829(11) 0.17703(10) 0.85716(11)
C17_16 C 0.16050(19) 0.1689(2) 0.9489(2)
C22_16 C 0.1735(2) 0.1951(3) 0.9815(3)
H20_16 H 0.1527 0.2130 0.9880
H30_16 H 0.1962 0.2097 0.9734
C27_16 C 0.0859(2) 0.17032(18) 0.87310(19)
C32_16 C 0.0539(3) 0.1971(3) 0.8615(3)
H35_16 H 0.0424 0.2085 0.8846
H40_16 H 0.0642 0.2176 0.8452
H45_16 H 0.0343 0.1828 0.8474
O8_16 O 0.10583(11) 0.82836(10) 0.14649(12)
O9_16 O 0.14417(11) 0.89649(12) 0.07836(10)
O13_16 O 0.10601(12) 0.88552(14) 0.20560(11)
O14_16 O 0.14399(12) 0.95560(11) 0.13552(14)
O18_16 O 0.07385(12) 0.92619(11) 0.16616(12)
O19_16 O 0.17615(12) 0.91616(12) 0.17619(11)
O23_16 O 0.07297(10) 0.86829(11) 0.10716(11)
O24_16 O 0.17703(10) 0.85716(11) 0.11829(11)
C20_16 C 0.0811(2) 0.91050(19) 0.1989(2)
C21_16 C 0.1689(2) 0.9489(2) 0.16050(19)
C25_16 C 0.0549(3) 0.9235(2) 0.2315(3)
C26_16 C 0.1951(3) 0.9815(3) 0.1735(2)
H23_16 H 0.0370 0.9027 0.2380
H24_16 H 0.2130 0.9880 0.1527
H28_16 H 0.0704 0.9298 0.2541
H33_16 H 0.0403 0.9462 0.2234
H34_16 H 0.2097 0.9734 0.1962
C30_16 C 0.07968(18) 0.8359(2) 0.12310(19)
C31_16 C 0.17032(18) 0.87310(19) 0.0859(2)
C35_16 C 0.0529(3) 0.8039(3) 0.1115(3)
C36_16 C 0.1971(3) 0.8615(3) 0.0539(3)
H38_16 H 0.0415 0.7924 0.1346
H39_16 H 0.2085 0.8846 0.0424
H43_16 H 0.0324 0.8142 0.0952
H44_16 H 0.2176 0.8452 0.0642
H48_16 H 0.0672 0.7843 0.0974
H49_16 H 0.1828 0.8474 0.0343
O6_16 O 0.82836(10) 0.14649(12) 0.10583(11)
O7_16 O 0.89649(12) 0.07836(10) 0.14417(11)
O11_16 O 0.88552(14) 0.20560(11) 0.10601(12)
O12_16 O 0.95560(11) 0.13552(14) 0.14399(12)
O16_16 O 0.92619(11) 0.16616(12) 0.07385(12)
O17_16 O 0.91616(12) 0.17619(11) 0.17615(12)
O21_16 O 0.86829(11) 0.10716(11) 0.07297(10)
O22_16 O 0.85716(11) 0.11829(11) 0.17703(10)
C18_16 C 0.91050(19) 0.1989(2) 0.0811(2)
C19_16 C 0.9489(2) 0.16050(19) 0.1689(2)
C23_16 C 0.9235(2) 0.2315(3) 0.0549(3)
C24_16 C 0.9815(3) 0.1735(2) 0.1951(3)
H21_16 H 0.9027 0.2380 0.0370
H22_16 H 0.9880 0.1527 0.2130
H26_16 H 0.9298 0.2541 0.0704
H31_16 H 0.9462 0.2234 0.0403
H32_16 H 0.9734 0.1962 0.2097
C28_16 C 0.8359(2) 0.12310(19) 0.07968(18)
C29_16 C 0.87310(19) 0.0859(2) 0.17032(18)
C33_16 C 0.8039(3) 0.1115(3) 0.0529(3)
C34_16 C 0.8615(3) 0.0539(3) 0.1971(3)
H36_16 H 0.7924 0.1346 0.0415
H37_16 H 0.8846 0.0424 0.2085
H41_16 H 0.8142 0.0952 0.0324
H42_16 H 0.8452 0.0642 0.2176
H46_16 H 0.7843 0.0974 0.0672
H47_16 H 0.8474 0.0343 0.1828
H25_15 H 0.8202 0.8204 0.9959
H29_15 H 0.8204 0.9959 0.8202
H27_15 H 0.9959 0.8202 0.8204
Fe1_34 Fe 1.0000 1.0000 1.0000
N2_16 N 0.94260(9) 0.99085(10) 0.93905(10)
H2_16 H 0.9029 0.9971 0.8977
B1_16 B 0.94840(16) 0.94840(16) 0.94840(16)
H9_16 H 0.9318 0.9318 0.9318
N9_16 N 0.99085(10) 0.93905(10) 0.94260(9)
N10_16 N 0.93905(10) 0.94260(9) 0.99085(10)
H15_16 H 0.9971 0.8977 0.9029
H16_16 H 0.8977 0.9029 0.9971
Fe1_35 Fe 0.0000 -0.0000 0.0000
N11_16 N 0.06095(10) 0.05740(9) 0.00915(10)
N12_16 N 0.05740(9) 0.00915(10) 0.06095(10)
N13_16 N 0.00915(10) 0.06095(10) 0.05740(9)
H17_16 H 0.1023 0.0971 0.0029
H18_16 H 0.0971 0.0029 0.1023
H19_16 H 0.0029 0.1023 0.0971
B2_16 B 0.05160(16) 0.05160(16) 0.05160(16)
H50_16 H 0.0682 0.0682 0.0682
H25_16 H 0.1798 0.1796 0.0041
H29_16 H 0.1796 0.0041 0.1798
H27_16 H 0.0041 0.1798 0.1796
loop_
_geom_bond_atom_site_label_1
_geom_bond_atom_site_label_2
_geom_bond_site_symmetry_1
_geom_bond_site_symmetry_2
Rh1 O1 1_555 1_555
Fe1 N1 1_555 1_555
O1 C5 1_555 1_555
O2 Rh1 1_555 1_555
O3 C3 1_555 1_555
O4 C5 1_555 1_555
N1 N2 1_555 1_555
N2 C2 1_555 1_555
N3 Rh1 1_555 1_555
C1 N1 1_555 1_555
H1 C1 1_555 1_555
C2 N3 1_555 1_555
H2 C2 1_555 1_555
C3 O2 1_555 1_555
C4 C3 1_555 1_555
H3 C4 1_555 1_555
H4 C4 1_555 1_555
H5 C4 1_555 1_555
C5 C6 1_555 1_555
C6 H6 1_555 1_555
H7 C6 1_555 1_555
H8 C6 1_555 1_555
B1 N2 1_555 1_555
H9 B1 1_555 1_555
Rh3 Rh9 1_555 1_555
Rh6 N18 1_555 1_555
Rh7 Rh1 1_555 1_555
Rh9 O9 1_555 1_555
O5 Rh7 1_555 1_555
O8 Rh3 1_555 1_555
O9 C31 1_555 1_555
O10 Rh7 1_555 1_555
O13 Rh3 1_555 1_555
O14 Rh9 1_555 1_555
O15 Rh1 1_555 1_555
O18 Rh9 1_555 1_555
O19 Rh3 1_555 1_555
O20 Rh1 1_555 1_555
O23 Rh9 1_555 1_555
O24 Rh3 1_555 1_555
N5 Fe1 1_555 1_555
N8 Fe1 1_555 1_555
N9 B1 1_555 1_555
N10 B1 1_555 1_555
N15 Rh3 1_555 1_555
N18 C11 1_555 1_555
N19 Rh7 1_555 1_555
N21 Rh9 1_555 1_555
C8 N5 1_555 1_555
C11 N8 1_555 1_555
H11 C8 1_555 1_555
H14 C11 1_555 1_555
C13 N10 1_555 1_555
H16 C13 1_555 1_555
C17 O10 1_555 1_555
C20 O13 1_555 1_555
C21 O14 1_555 1_555
C22 C17 1_555 1_555
C25 C20 1_555 1_555
C26 C21 1_555 1_555
H20 C22 1_555 1_555
H23 C25 1_555 1_555
H24 C26 1_555 1_555
H25 C22 1_555 1_555
H28 C25 1_555 1_555
H29 C26 1_555 1_555
H30 C22 1_555 1_555
H33 C25 1_555 1_555
H34 C26 1_555 1_555
C27 O5 1_555 1_555
C30 O8 1_555 1_555
C31 O24 1_555 1_555
C32 C27 1_555 1_555
C35 C30 1_555 1_555
C36 C31 1_555 1_555
H35 C32 1_555 1_555
H38 C35 1_555 1_555
H39 C36 1_555 1_555
H40 C32 1_555 1_555
H43 C35 1_555 1_555
H44 C36 1_555 1_555
H45 C32 1_555 1_555
H48 C35 1_555 1_555
H49 C36 1_555 1_555
O3 Rh7 1_555 1_555
O4 Rh7 1_555 1_555
N3 C1 1_555 1_555
O15 C17 1_555 1_555
O18 C20 1_555 1_555
O19 C21 1_555 1_555
O20 C27 1_555 1_555
O23 C30 1_555 1_555
N5 N10 1_555 1_555
N15 C8 1_555 1_555
N15 C13 1_555 1_555
N18 C16 1_555 1_555
Rh2 Rh8 1_555 1_555
Rh4 N16 1_555 1_555
Rh5 N17 1_555 1_555
Rh8 O7 1_555 1_555
O6 Rh2 1_555 1_555
O7 C29 1_555 1_555
O11 Rh2 1_555 1_555
O12 Rh8 1_555 1_555
O16 Rh8 1_555 1_555
O17 Rh2 1_555 1_555
O21 Rh8 1_555 1_555
O22 Rh2 1_555 1_555
N4 Fe1_2 1_555 1_555
N6 Fe1_2 1_555 1_555
N7 Fe1_2 1_555 1_555
N11 N6 1_555 1_555
N12 N7 1_555 1_555
N14 Rh2 1_555 1_555
N16 C9 1_555 1_555
N17 C10 1_555 1_555
N20 Rh8 1_555 1_555
C7 N4 1_555 1_555
C9 N6 1_555 1_555
C10 N7 1_555 1_555
H10 C7 1_555 1_555
H12 C9 1_555 1_555
H13 C10 1_555 1_555
C14 N11 1_555 1_555
C15 N12 1_555 1_555
H17 C14 1_555 1_555
H18 C15 1_555 1_555
C18 O11 1_555 1_555
C19 O12 1_555 1_555
C23 C18 1_555 1_555
C24 C19 1_555 1_555
H21 C23 1_555 1_555
H22 C24 1_555 1_555
H27 C24 1_555 1_555
H31 C23 1_555 1_555
H32 C24 1_555 1_555
C28 O6 1_555 1_555
C29 O22 1_555 1_555
C33 C28 1_555 1_555
C34 C29 1_555 1_555
H36 C33 1_555 1_555
H37 C34 1_555 1_555
H41 C33 1_555 1_555
H42 C34 1_555 1_555
H46 C33 1_555 1_555
H47 C34 1_555 1_555
B2 N11 1_555 1_555
H50 B2 1_555 1_555
O16 C18 1_555 1_555
O17 C19 1_555 1_555
O21 C28 1_555 1_555
N12 B2 1_555 1_555
N13 B2 1_555 1_555
N14 C7 1_555 1_555
N14 C12 1_555 1_555
N16 C14 1_555 1_555
N17 C15 1_555 1_555
Rh1_2 O1_2 1_555 1_555
Fe1_3 N1_2 1_555 1_555
O1_2 C5_2 1_555 1_555
O2_2 Rh1_2 1_555 1_555
O3_2 C3_2 1_555 1_555
O4_2 C5_2 1_555 1_555
N1_2 N2_2 1_555 1_555
N2_2 C2_2 1_555 1_555
N3_2 Rh1_2 1_555 1_555
C1_2 N1_2 1_555 1_555
H1_2 C1_2 1_555 1_555
C2_2 N3_2 1_555 1_555
H2_2 C2_2 1_555 1_555
C3_2 O2_2 1_555 1_555
C4_2 C3_2 1_555 1_555
H3_2 C4_2 1_555 1_555
H4_2 C4_2 1_555 1_555
H5_2 C4_2 1_555 1_555
C5_2 C6_2 1_555 1_555
C6_2 H6_2 1_555 1_555
H7_2 C6_2 1_555 1_555
H8_2 C6_2 1_555 1_555
B1_2 N2_2 1_555 1_555
H9_2 B1_2 1_555 1_555
Rh3_2 Rh9_2 1_555 1_555
Rh6_2 N18_2 1_555 1_555
Rh7_2 Rh1_2 1_555 1_555
Rh9_2 O9_2 1_555 1_555
O5_2 Rh7_2 1_555 1_555
O8_2 Rh3_2 1_555 1_555
O9_2 C31_2 1_555 1_555
O10_2 Rh7_2 1_555 1_555
O13_2 Rh3_2 1_555 1_555
O14_2 Rh9_2 1_555 1_555
O15_2 Rh1_2 1_555 1_555
O18_2 Rh9_2 1_555 1_555
O19_2 Rh3_2 1_555 1_555
O20_2 Rh1_2 1_555 1_555
O23_2 Rh9_2 1_555 1_555
O24_2 Rh3_2 1_555 1_555
N5_2 Fe1_3 1_555 1_555
N8_2 Fe1_3 1_555 1_555
N9_2 B1_2 1_555 1_555
N10_2 B1_2 1_555 1_555
N15_2 Rh3_2 1_555 1_555
N18_2 C11_2 1_555 1_555
N19_2 Rh7_2 1_555 1_555
N21_2 Rh9_2 1_555 1_555
C8_2 N5_2 1_555 1_555
C11_2 N8_2 1_555 1_555
H11_2 C8_2 1_555 1_555
H14_2 C11_2 1_555 1_555
C13_2 N10_2 1_555 1_555
H16_2 C13_2 1_555 1_555
C17_2 O10_2 1_555 1_555
C20_2 O13_2 1_555 1_555
C21_2 O14_2 1_555 1_555
C22_2 C17_2 1_555 1_555
C25_2 C20_2 1_555 1_555
C26_2 C21_2 1_555 1_555
H20_2 C22_2 1_555 1_555
H23_2 C25_2 1_555 1_555
H24_2 C26_2 1_555 1_555
H25_2 C22_2 1_555 1_555
H28_2 C25_2 1_555 1_555
H29_2 C26_2 1_555 1_555
H30_2 C22_2 1_555 1_555
H33_2 C25_2 1_555 1_555
H34_2 C26_2 1_555 1_555
C27_2 O5_2 1_555 1_555
C30_2 O8_2 1_555 1_555
C31_2 O24_2 1_555 1_555
C32_2 C27_2 1_555 1_555
C35_2 C30_2 1_555 1_555
C36_2 C31_2 1_555 1_555
H35_2 C32_2 1_555 1_555
H38_2 C35_2 1_555 1_555
H39_2 C36_2 1_555 1_555
H40_2 C32_2 1_555 1_555
H43_2 C35_2 1_555 1_555
H44_2 C36_2 1_555 1_555
H45_2 C32_2 1_555 1_555
H48_2 C35_2 1_555 1_555
H49_2 C36_2 1_555 1_555
O3_2 Rh7_2 1_555 1_555
O4_2 Rh7_2 1_555 1_555
N3_2 C1_2 1_555 1_555
O15_2 C17_2 1_555 1_555
O18_2 C20_2 1_555 1_555
O19_2 C21_2 1_555 1_555
O20_2 C27_2 1_555 1_555
O23_2 C30_2 1_555 1_555
N5_2 N10_2 1_555 1_555
N15_2 C8_2 1_555 1_555
N15_2 C13_2 1_555 1_555
N18_2 C16_2 1_555 1_555
Rh2_2 Rh8_2 1_555 1_555
Rh4_2 N16_2 1_555 1_555
Rh5_2 N17_2 1_555 1_555
Rh8_2 O7_2 1_555 1_555
O6_2 Rh2_2 1_555 1_555
O7_2 C29_2 1_555 1_555
O11_2 Rh2_2 1_555 1_555
O12_2 Rh8_2 1_555 1_555
O16_2 Rh8_2 1_555 1_555
O17_2 Rh2_2 1_555 1_555
O21_2 Rh8_2 1_555 1_555
O22_2 Rh2_2 1_555 1_555
N4_2 Fe1_4 1_555 1_555
N6_2 Fe1_4 1_555 1_555
N7_2 Fe1_4 1_555 1_555
N11_2 N6_2 1_555 1_555
N12_2 N7_2 1_555 1_555
N14_2 Rh2_2 1_555 1_555
N16_2 C9_2 1_555 1_555
N17_2 C10_2 1_555 1_555
N20_2 Rh8_2 1_555 1_555
C7_2 N4_2 1_555 1_555
C9_2 N6_2 1_555 1_555
C10_2 N7_2 1_555 1_555
H10_2 C7_2 1_555 1_555
H12_2 C9_2 1_555 1_555
H13_2 C10_2 1_555 1_555
C14_2 N11_2 1_555 1_555
C15_2 N12_2 1_555 1_555
H17_2 C14_2 1_555 1_555
H18_2 C15_2 1_555 1_555
C18_2 O11_2 1_555 1_555
C19_2 O12_2 1_555 1_555
C23_2 C18_2 1_555 1_555
C24_2 C19_2 1_555 1_555
H21_2 C23_2 1_555 1_555
H22_2 C24_2 1_555 1_555
H27_2 C24_2 1_555 1_555
H31_2 C23_2 1_555 1_555
H32_2 C24_2 1_555 1_555
C28_2 O6_2 1_555 1_555
C29_2 O22_2 1_555 1_555
C33_2 C28_2 1_555 1_555
C34_2 C29_2 1_555 1_555
H36_2 C33_2 1_555 1_555
H37_2 C34_2 1_555 1_555
H41_2 C33_2 1_555 1_555
H42_2 C34_2 1_555 1_555
H46_2 C33_2 1_555 1_555
H47_2 C34_2 1_555 1_555
B2_2 N11_2 1_555 1_555
H50_2 B2_2 1_555 1_555
O16_2 C18_2 1_555 1_555
O17_2 C19_2 1_555 1_555
O21_2 C28_2 1_555 1_555
N12_2 B2_2 1_555 1_555
N13_2 B2_2 1_555 1_555
N14_2 C7_2 1_555 1_555
N14_2 C12_2 1_555 1_555
N16_2 C14_2 1_555 1_555
N17_2 C15_2 1_555 1_555
Rh1_3 O1_3 1_555 1_555
Fe1_5 N1_3 1_555 1_555
O1_3 C5_3 1_555 1_555
O2_3 Rh1_3 1_555 1_555
O3_3 C3_3 1_555 1_555
O4_3 C5_3 1_555 1_555
N1_3 N2_3 1_555 1_555
N2_3 C2_3 1_555 1_555
N3_3 Rh1_3 1_555 1_555
C1_3 N1_3 1_555 1_555
H1_3 C1_3 1_555 1_555
C2_3 N3_3 1_555 1_555
H2_3 C2_3 1_555 1_555
C3_3 O2_3 1_555 1_555
C4_3 C3_3 1_555 1_555
H3_3 C4_3 1_555 1_555
H4_3 C4_3 1_555 1_555
H5_3 C4_3 1_555 1_555
C5_3 C6_3 1_555 1_555
C6_3 H6_3 1_555 1_555
H7_3 C6_3 1_555 1_555
H8_3 C6_3 1_555 1_555
B1_3 N2_3 1_555 1_555
H9_3 B1_3 1_555 1_555
Rh3_3 Rh9_3 1_555 1_555
Rh6_3 N18_3 1_555 1_555
Rh7_3 Rh1_3 1_555 1_555
Rh9_3 O9_3 1_555 1_555
O5_3 Rh7_3 1_555 1_555
O8_3 Rh3_3 1_555 1_555
O9_3 C31_3 1_555 1_555
O10_3 Rh7_3 1_555 1_555
O13_3 Rh3_3 1_555 1_555
O14_3 Rh9_3 1_555 1_555
O15_3 Rh1_3 1_555 1_555
O18_3 Rh9_3 1_555 1_555
O19_3 Rh3_3 1_555 1_555
O20_3 Rh1_3 1_555 1_555
O23_3 Rh9_3 1_555 1_555
O24_3 Rh3_3 1_555 1_555
N5_3 Fe1_5 1_555 1_555
N8_3 Fe1_5 1_555 1_555
N9_3 B1_3 1_555 1_555
N10_3 B1_3 1_555 1_555
N15_3 Rh3_3 1_555 1_555
N18_3 C11_3 1_555 1_555
N19_3 Rh7_3 1_555 1_555
N21_3 Rh9_3 1_555 1_555
C8_3 N5_3 1_555 1_555
C11_3 N8_3 1_555 1_555
H11_3 C8_3 1_555 1_555
H14_3 C11_3 1_555 1_555
C13_3 N10_3 1_555 1_555
H16_3 C13_3 1_555 1_555
C17_3 O10_3 1_555 1_555
C20_3 O13_3 1_555 1_555
C21_3 O14_3 1_555 1_555
C22_3 C17_3 1_555 1_555
C25_3 C20_3 1_555 1_555
C26_3 C21_3 1_555 1_555
H20_3 C22_3 1_555 1_555
H23_3 C25_3 1_555 1_555
H24_3 C26_3 1_555 1_555
H25_3 C22_3 1_555 1_555
H28_3 C25_3 1_555 1_555
H29_3 C26_3 1_555 1_555
H30_3 C22_3 1_555 1_555
H33_3 C25_3 1_555 1_555
H34_3 C26_3 1_555 1_555
C27_3 O5_3 1_555 1_555
C30_3 O8_3 1_555 1_555
C31_3 O24_3 1_555 1_555
C32_3 C27_3 1_555 1_555
C35_3 C30_3 1_555 1_555
C36_3 C31_3 1_555 1_555
H35_3 C32_3 1_555 1_555
H38_3 C35_3 1_555 1_555
H39_3 C36_3 1_555 1_555
H40_3 C32_3 1_555 1_555
H43_3 C35_3 1_555 1_555
H44_3 C36_3 1_555 1_555
H45_3 C32_3 1_555 1_555
H48_3 C35_3 1_555 1_555
H49_3 C36_3 1_555 1_555
O3_3 Rh7_3 1_555 1_555
O4_3 Rh7_3 1_555 1_555
N3_3 C1_3 1_555 1_555
O15_3 C17_3 1_555 1_555
O18_3 C20_3 1_555 1_555
O19_3 C21_3 1_555 1_555
O20_3 C27_3 1_555 1_555
O23_3 C30_3 1_555 1_555
N5_3 N10_3 1_555 1_555
N15_3 C8_3 1_555 1_555
N15_3 C13_3 1_555 1_555
N18_3 C16_3 1_555 1_555
Rh2_3 Rh8_3 1_555 1_555
Rh4_3 N16_3 1_555 1_555
Rh5_3 N17_3 1_555 1_555
Rh8_3 O7_3 1_555 1_555
O6_3 Rh2_3 1_555 1_555
O7_3 C29_3 1_555 1_555
O11_3 Rh2_3 1_555 1_555
O12_3 Rh8_3 1_555 1_555
O16_3 Rh8_3 1_555 1_555
O17_3 Rh2_3 1_555 1_555
O21_3 Rh8_3 1_555 1_555
O22_3 Rh2_3 1_555 1_555
N4_3 Fe1_6 1_555 1_555
N6_3 Fe1_6 1_555 1_555
N7_3 Fe1_6 1_555 1_555
N11_3 N6_3 1_555 1_555
N12_3 N7_3 1_555 1_555
N14_3 Rh2_3 1_555 1_555
N16_3 C9_3 1_555 1_555
N17_3 C10_3 1_555 1_555
N20_3 Rh8_3 1_555 1_555
C7_3 N4_3 1_555 1_555
C9_3 N6_3 1_555 1_555
C10_3 N7_3 1_555 1_555
H10_3 C7_3 1_555 1_555
H12_3 C9_3 1_555 1_555
H13_3 C10_3 1_555 1_555
C14_3 N11_3 1_555 1_555
C15_3 N12_3 1_555 1_555
H17_3 C14_3 1_555 1_555
H18_3 C15_3 1_555 1_555
C18_3 O11_3 1_555 1_555
C19_3 O12_3 1_555 1_555
C23_3 C18_3 1_555 1_555
C24_3 C19_3 1_555 1_555
H21_3 C23_3 1_555 1_555
H22_3 C24_3 1_555 1_555
H27_3 C24_3 1_555 1_555
H31_3 C23_3 1_555 1_555
H32_3 C24_3 1_555 1_555
C28_3 O6_3 1_555 1_555
C29_3 O22_3 1_555 1_555
C33_3 C28_3 1_555 1_555
C34_3 C29_3 1_555 1_555
H36_3 C33_3 1_555 1_555
H37_3 C34_3 1_555 1_555
H41_3 C33_3 1_555 1_555
H42_3 C34_3 1_555 1_555
H46_3 C33_3 1_555 1_555
H47_3 C34_3 1_555 1_555
B2_3 N11_3 1_555 1_555
H50_3 B2_3 1_555 1_555
O16_3 C18_3 1_555 1_555
O17_3 C19_3 1_555 1_555
O21_3 C28_3 1_555 1_555
N12_3 B2_3 1_555 1_555
N13_3 B2_3 1_555 1_555
N14_3 C7_3 1_555 1_555
N14_3 C12_3 1_555 1_555
N16_3 C14_3 1_555 1_555
N17_3 C15_3 1_555 1_555
Rh1_4 O1_4 1_555 1_555
Fe1_7 N1_4 1_555 1_555
O1_4 C5_4 1_555 1_555
O2_4 Rh1_4 1_555 1_555
O3_4 C3_4 1_555 1_555
O4_4 C5_4 1_555 1_555
N1_4 N2_4 1_555 1_555
N2_4 C2_4 1_555 1_555
N3_4 Rh1_4 1_555 1_555
C1_4 N1_4 1_555 1_555
H1_4 C1_4 1_555 1_555
C2_4 N3_4 1_555 1_555
H2_4 C2_4 1_555 1_555
C3_4 O2_4 1_555 1_555
C4_4 C3_4 1_555 1_555
H3_4 C4_4 1_555 1_555
H4_4 C4_4 1_555 1_555
H5_4 C4_4 1_555 1_555
C5_4 C6_4 1_555 1_555
C6_4 H6_4 1_555 1_555
H7_4 C6_4 1_555 1_555
H8_4 C6_4 1_555 1_555
B1_4 N2_4 1_555 1_555
H9_4 B1_4 1_555 1_555
Rh2_4 Rh8_4 1_555 1_555
Rh3_4 Rh9_4 1_555 1_555
Rh4_4 N16_4 1_555 1_555
Rh5_4 N17_4 1_555 1_555
Rh6_4 N18_4 1_555 1_555
Rh7_4 Rh1_4 1_555 1_555
Rh8_4 O7_4 1_555 1_555
Rh9_4 O9_4 1_555 1_555
O5_4 Rh7_4 1_555 1_555
O6_4 Rh2_4 1_555 1_555
O7_4 C29_4 1_555 1_555
O8_4 Rh3_4 1_555 1_555
O9_4 C31_4 1_555 1_555
O10_4 Rh7_4 1_555 1_555
O11_4 Rh2_4 1_555 1_555
O12_4 Rh8_4 1_555 1_555
O13_4 Rh3_4 1_555 1_555
O14_4 Rh9_4 1_555 1_555
O15_4 Rh1_4 1_555 1_555
O16_4 Rh8_4 1_555 1_555
O17_4 Rh2_4 1_555 1_555
O18_4 Rh9_4 1_555 1_555
O19_4 Rh3_4 1_555 1_555
O20_4 Rh1_4 1_555 1_555
O21_4 Rh8_4 1_555 1_555
O22_4 Rh2_4 1_555 1_555
O23_4 Rh9_4 1_555 1_555
O24_4 Rh3_4 1_555 1_555
N4_4 Fe1_7 1_555 1_555
N5_4 Fe1_7 1_555 1_555
N6_4 Fe1_7 1_555 1_555
N7_4 Fe1_7 1_555 1_555
N8_4 Fe1_7 1_555 1_555
N9_4 B1_4 1_555 1_555
N10_4 B1_4 1_555 1_555
N11_4 N6_4 1_555 1_555
N12_4 N7_4 1_555 1_555
N13_4 N8_4 1_555 1_555
N14_4 Rh2_4 1_555 1_555
N15_4 Rh3_4 1_555 1_555
N16_4 C9_4 1_555 1_555
N17_4 C10_4 1_555 1_555
N18_4 C11_4 1_555 1_555
N19_4 Rh7_4 1_555 1_555
N20_4 Rh8_4 1_555 1_555
N21_4 Rh9_4 1_555 1_555
C7_4 N4_4 1_555 1_555
C8_4 N5_4 1_555 1_555
C9_4 N6_4 1_555 1_555
C10_4 N7_4 1_555 1_555
C11_4 N8_4 1_555 1_555
H10_4 C7_4 1_555 1_555
H11_4 C8_4 1_555 1_555
H12_4 C9_4 1_555 1_555
H13_4 C10_4 1_555 1_555
H14_4 C11_4 1_555 1_555
C12_4 N9_4 1_555 1_555
C13_4 N10_4 1_555 1_555
C14_4 N11_4 1_555 1_555
C15_4 N12_4 1_555 1_555
C16_4 N13_4 1_555 1_555
H15_4 C12_4 1_555 1_555
H16_4 C13_4 1_555 1_555
H17_4 C14_4 1_555 1_555
H18_4 C15_4 1_555 1_555
H19_4 C16_4 1_555 1_555
C17_4 O10_4 1_555 1_555
C18_4 O11_4 1_555 1_555
C19_4 O12_4 1_555 1_555
C20_4 O13_4 1_555 1_555
C21_4 O14_4 1_555 1_555
C22_4 C17_4 1_555 1_555
C23_4 C18_4 1_555 1_555
C24_4 C19_4 1_555 1_555
C25_4 C20_4 1_555 1_555
C26_4 C21_4 1_555 1_555
H20_4 C22_4 1_555 1_555
H21_4 C23_4 1_555 1_555
H22_4 C24_4 1_555 1_555
H23_4 C25_4 1_555 1_555
H24_4 C26_4 1_555 1_555
H25_4 C22_4 1_555 1_555
H26_4 C23_4 1_555 1_555
H28_4 C25_4 1_555 1_555
H29_4 C26_4 1_555 1_555
H30_4 C22_4 1_555 1_555
H31_4 C23_4 1_555 1_555
H32_4 C24_4 1_555 1_555
H33_4 C25_4 1_555 1_555
H34_4 C26_4 1_555 1_555
C27_4 O5_4 1_555 1_555
C28_4 O6_4 1_555 1_555
C29_4 O22_4 1_555 1_555
C30_4 O8_4 1_555 1_555
C31_4 O24_4 1_555 1_555
C32_4 C27_4 1_555 1_555
C33_4 C28_4 1_555 1_555
C34_4 C29_4 1_555 1_555
C35_4 C30_4 1_555 1_555
C36_4 C31_4 1_555 1_555
H35_4 C32_4 1_555 1_555
H36_4 C33_4 1_555 1_555
H37_4 C34_4 1_555 1_555
H38_4 C35_4 1_555 1_555
H39_4 C36_4 1_555 1_555
H40_4 C32_4 1_555 1_555
H41_4 C33_4 1_555 1_555
H42_4 C34_4 1_555 1_555
H43_4 C35_4 1_555 1_555
H44_4 C36_4 1_555 1_555
H45_4 C32_4 1_555 1_555
H46_4 C33_4 1_555 1_555
H47_4 C34_4 1_555 1_555
H48_4 C35_4 1_555 1_555
H49_4 C36_4 1_555 1_555
B2_4 N11_4 1_555 1_555
H50_4 B2_4 1_555 1_555
O3_4 Rh7_4 1_555 1_555
O4_4 Rh7_4 1_555 1_555
N3_4 C1_4 1_555 1_555
O15_4 C17_4 1_555 1_555
O16_4 C18_4 1_555 1_555
O17_4 C19_4 1_555 1_555
O18_4 C20_4 1_555 1_555
O19_4 C21_4 1_555 1_555
O20_4 C27_4 1_555 1_555
O21_4 C28_4 1_555 1_555
O23_4 C30_4 1_555 1_555
N4_4 N9_4 1_555 1_555
N5_4 N10_4 1_555 1_555
N12_4 B2_4 1_555 1_555
N13_4 B2_4 1_555 1_555
N14_4 C7_4 1_555 1_555
N14_4 C12_4 1_555 1_555
N15_4 C8_4 1_555 1_555
N15_4 C13_4 1_555 1_555
N16_4 C14_4 1_555 1_555
N17_4 C15_4 1_555 1_555
N18_4 C16_4 1_555 1_555
Rh1_5 O1_5 1_555 1_555
Fe1_8 N1_5 1_555 1_555
O1_5 C5_5 1_555 1_555
O2_5 Rh1_5 1_555 1_555
O3_5 C3_5 1_555 1_555
O4_5 C5_5 1_555 1_555
N1_5 N2_5 1_555 1_555
N2_5 C2_5 1_555 1_555
N3_5 Rh1_5 1_555 1_555
C1_5 N1_5 1_555 1_555
H1_5 C1_5 1_555 1_555
C2_5 N3_5 1_555 1_555
H2_5 C2_5 1_555 1_555
C3_5 O2_5 1_555 1_555
C4_5 C3_5 1_555 1_555
H3_5 C4_5 1_555 1_555
H4_5 C4_5 1_555 1_555
H5_5 C4_5 1_555 1_555
C5_5 C6_5 1_555 1_555
C6_5 H6_5 1_555 1_555
H7_5 C6_5 1_555 1_555
H8_5 C6_5 1_555 1_555
B1_5 N2_5 1_555 1_555
H9_5 B1_5 1_555 1_555
Rh2_5 Rh8_5 1_555 1_555
Rh3_5 Rh9_5 1_555 1_555
Rh4_5 N16_5 1_555 1_555
Rh5_5 N17_5 1_555 1_555
Rh6_5 N18_5 1_555 1_555
Rh7_5 Rh1_5 1_555 1_555
Rh8_5 O7_5 1_555 1_555
Rh9_5 O9_5 1_555 1_555
O5_5 Rh7_5 1_555 1_555
O6_5 Rh2_5 1_555 1_555
O7_5 C29_5 1_555 1_555
O8_5 Rh3_5 1_555 1_555
O9_5 C31_5 1_555 1_555
O10_5 Rh7_5 1_555 1_555
O11_5 Rh2_5 1_555 1_555
O12_5 Rh8_5 1_555 1_555
O13_5 Rh3_5 1_555 1_555
O14_5 Rh9_5 1_555 1_555
O15_5 Rh1_5 1_555 1_555
O16_5 Rh8_5 1_555 1_555
O17_5 Rh2_5 1_555 1_555
O18_5 Rh9_5 1_555 1_555
O19_5 Rh3_5 1_555 1_555
O20_5 Rh1_5 1_555 1_555
O21_5 Rh8_5 1_555 1_555
O22_5 Rh2_5 1_555 1_555
O23_5 Rh9_5 1_555 1_555
O24_5 Rh3_5 1_555 1_555
N4_5 Fe1_8 1_555 1_555
N5_5 Fe1_8 1_555 1_555
N6_5 Fe1_8 1_555 1_555
N7_5 Fe1_8 1_555 1_555
N8_5 Fe1_8 1_555 1_555
N9_5 B1_5 1_555 1_555
N10_5 B1_5 1_555 1_555
N11_5 N6_5 1_555 1_555
N12_5 N7_5 1_555 1_555
N13_5 N8_5 1_555 1_555
N14_5 Rh2_5 1_555 1_555
N15_5 Rh3_5 1_555 1_555
N16_5 C9_5 1_555 1_555
N17_5 C10_5 1_555 1_555
N18_5 C11_5 1_555 1_555
N19_5 Rh7_5 1_555 1_555
N20_5 Rh8_5 1_555 1_555
N21_5 Rh9_5 1_555 1_555
C7_5 N4_5 1_555 1_555
C8_5 N5_5 1_555 1_555
C9_5 N6_5 1_555 1_555
C10_5 N7_5 1_555 1_555
C11_5 N8_5 1_555 1_555
H10_5 C7_5 1_555 1_555
H11_5 C8_5 1_555 1_555
H12_5 C9_5 1_555 1_555
H13_5 C10_5 1_555 1_555
H14_5 C11_5 1_555 1_555
C12_5 N9_5 1_555 1_555
C13_5 N10_5 1_555 1_555
C14_5 N11_5 1_555 1_555
C15_5 N12_5 1_555 1_555
C16_5 N13_5 1_555 1_555
H15_5 C12_5 1_555 1_555
H16_5 C13_5 1_555 1_555
H17_5 C14_5 1_555 1_555
H18_5 C15_5 1_555 1_555
H19_5 C16_5 1_555 1_555
C17_5 O10_5 1_555 1_555
C18_5 O11_5 1_555 1_555
C19_5 O12_5 1_555 1_555
C20_5 O13_5 1_555 1_555
C21_5 O14_5 1_555 1_555
C22_5 C17_5 1_555 1_555
C23_5 C18_5 1_555 1_555
C24_5 C19_5 1_555 1_555
C25_5 C20_5 1_555 1_555
C26_5 C21_5 1_555 1_555
H20_5 C22_5 1_555 1_555
H21_5 C23_5 1_555 1_555
H22_5 C24_5 1_555 1_555
H23_5 C25_5 1_555 1_555
H24_5 C26_5 1_555 1_555
H25_5 C22_5 1_555 1_555
H26_5 C23_5 1_555 1_555
H27_5 C24_5 1_555 1_555
H28_5 C25_5 1_555 1_555
H30_5 C22_5 1_555 1_555
H31_5 C23_5 1_555 1_555
H32_5 C24_5 1_555 1_555
H33_5 C25_5 1_555 1_555
H34_5 C26_5 1_555 1_555
C27_5 O5_5 1_555 1_555
C28_5 O6_5 1_555 1_555
C29_5 O22_5 1_555 1_555
C30_5 O8_5 1_555 1_555
C31_5 O24_5 1_555 1_555
C32_5 C27_5 1_555 1_555
C33_5 C28_5 1_555 1_555
C34_5 C29_5 1_555 1_555
C35_5 C30_5 1_555 1_555
C36_5 C31_5 1_555 1_555
H35_5 C32_5 1_555 1_555
H36_5 C33_5 1_555 1_555
H37_5 C34_5 1_555 1_555
H38_5 C35_5 1_555 1_555
H39_5 C36_5 1_555 1_555
H40_5 C32_5 1_555 1_555
H41_5 C33_5 1_555 1_555
H42_5 C34_5 1_555 1_555
H43_5 C35_5 1_555 1_555
H44_5 C36_5 1_555 1_555
H45_5 C32_5 1_555 1_555
H46_5 C33_5 1_555 1_555
H47_5 C34_5 1_555 1_555
H48_5 C35_5 1_555 1_555
H49_5 C36_5 1_555 1_555
B2_5 N11_5 1_555 1_555
H50_5 B2_5 1_555 1_555
O3_5 Rh7_5 1_555 1_555
O4_5 Rh7_5 1_555 1_555
N3_5 C1_5 1_555 1_555
O15_5 C17_5 1_555 1_555
O16_5 C18_5 1_555 1_555
O17_5 C19_5 1_555 1_555
O18_5 C20_5 1_555 1_555
O19_5 C21_5 1_555 1_555
O20_5 C27_5 1_555 1_555
O21_5 C28_5 1_555 1_555
O23_5 C30_5 1_555 1_555
N4_5 N9_5 1_555 1_555
N5_5 N10_5 1_555 1_555
N12_5 B2_5 1_555 1_555
N13_5 B2_5 1_555 1_555
N14_5 C7_5 1_555 1_555
N14_5 C12_5 1_555 1_555
N15_5 C8_5 1_555 1_555
N15_5 C13_5 1_555 1_555
N16_5 C14_5 1_555 1_555
N17_5 C15_5 1_555 1_555
N18_5 C16_5 1_555 1_555
Rh1_6 O1_6 1_555 1_555
Fe1_9 N1_6 1_555 1_555
O1_6 C5_6 1_555 1_555
O2_6 Rh1_6 1_555 1_555
O3_6 C3_6 1_555 1_555
O4_6 C5_6 1_555 1_555
N1_6 N2_6 1_555 1_555
N2_6 C2_6 1_555 1_555
N3_6 Rh1_6 1_555 1_555
C1_6 N1_6 1_555 1_555
H1_6 C1_6 1_555 1_555
C2_6 N3_6 1_555 1_555
H2_6 C2_6 1_555 1_555
C3_6 O2_6 1_555 1_555
C4_6 C3_6 1_555 1_555
H3_6 C4_6 1_555 1_555
H4_6 C4_6 1_555 1_555
H5_6 C4_6 1_555 1_555
C5_6 C6_6 1_555 1_555
C6_6 H6_6 1_555 1_555
H7_6 C6_6 1_555 1_555
H8_6 C6_6 1_555 1_555
B1_6 N2_6 1_555 1_555
H9_6 B1_6 1_555 1_555
Rh2_6 Rh8_6 1_555 1_555
Rh3_6 Rh9_6 1_555 1_555
Rh4_6 N16_6 1_555 1_555
Rh5_6 N17_6 1_555 1_555
Rh6_6 N18_6 1_555 1_555
Rh7_6 Rh1_6 1_555 1_555
Rh8_6 O7_6 1_555 1_555
Rh9_6 O9_6 1_555 1_555
O5_6 Rh7_6 1_555 1_555
O6_6 Rh2_6 1_555 1_555
O7_6 C29_6 1_555 1_555
O8_6 Rh3_6 1_555 1_555
O9_6 C31_6 1_555 1_555
O10_6 Rh7_6 1_555 1_555
O11_6 Rh2_6 1_555 1_555
O12_6 Rh8_6 1_555 1_555
O13_6 Rh3_6 1_555 1_555
O14_6 Rh9_6 1_555 1_555
O15_6 Rh1_6 1_555 1_555
O16_6 Rh8_6 1_555 1_555
O17_6 Rh2_6 1_555 1_555
O18_6 Rh9_6 1_555 1_555
O19_6 Rh3_6 1_555 1_555
O20_6 Rh1_6 1_555 1_555
O21_6 Rh8_6 1_555 1_555
O22_6 Rh2_6 1_555 1_555
O23_6 Rh9_6 1_555 1_555
O24_6 Rh3_6 1_555 1_555
N4_6 Fe1_9 1_555 1_555
N5_6 Fe1_9 1_555 1_555
N6_6 Fe1_9 1_555 1_555
N7_6 Fe1_9 1_555 1_555
N8_6 Fe1_9 1_555 1_555
N9_6 B1_6 1_555 1_555
N10_6 B1_6 1_555 1_555
N11_6 N6_6 1_555 1_555
N12_6 N7_6 1_555 1_555
N13_6 N8_6 1_555 1_555
N14_6 Rh2_6 1_555 1_555
N15_6 Rh3_6 1_555 1_555
N16_6 C9_6 1_555 1_555
N17_6 C10_6 1_555 1_555
N18_6 C11_6 1_555 1_555
N19_6 Rh7_6 1_555 1_555
N20_6 Rh8_6 1_555 1_555
N21_6 Rh9_6 1_555 1_555
C7_6 N4_6 1_555 1_555
C8_6 N5_6 1_555 1_555
C9_6 N6_6 1_555 1_555
C10_6 N7_6 1_555 1_555
C11_6 N8_6 1_555 1_555
H10_6 C7_6 1_555 1_555
H11_6 C8_6 1_555 1_555
H12_6 C9_6 1_555 1_555
H13_6 C10_6 1_555 1_555
H14_6 C11_6 1_555 1_555
C12_6 N9_6 1_555 1_555
C13_6 N10_6 1_555 1_555
C14_6 N11_6 1_555 1_555
C15_6 N12_6 1_555 1_555
C16_6 N13_6 1_555 1_555
H15_6 C12_6 1_555 1_555
H16_6 C13_6 1_555 1_555
H17_6 C14_6 1_555 1_555
H18_6 C15_6 1_555 1_555
H19_6 C16_6 1_555 1_555
C17_6 O10_6 1_555 1_555
C18_6 O11_6 1_555 1_555
C19_6 O12_6 1_555 1_555
C20_6 O13_6 1_555 1_555
C21_6 O14_6 1_555 1_555
C22_6 C17_6 1_555 1_555
C23_6 C18_6 1_555 1_555
C24_6 C19_6 1_555 1_555
C25_6 C20_6 1_555 1_555
C26_6 C21_6 1_555 1_555
H20_6 C22_6 1_555 1_555
H21_6 C23_6 1_555 1_555
H22_6 C24_6 1_555 1_555
H23_6 C25_6 1_555 1_555
H24_6 C26_6 1_555 1_555
H26_6 C23_6 1_555 1_555
H28_6 C25_6 1_555 1_555
H30_6 C22_6 1_555 1_555
H31_6 C23_6 1_555 1_555
H32_6 C24_6 1_555 1_555
H33_6 C25_6 1_555 1_555
H34_6 C26_6 1_555 1_555
C27_6 O5_6 1_555 1_555
C28_6 O6_6 1_555 1_555
C29_6 O22_6 1_555 1_555
C30_6 O8_6 1_555 1_555
C31_6 O24_6 1_555 1_555
C32_6 C27_6 1_555 1_555
C33_6 C28_6 1_555 1_555
C34_6 C29_6 1_555 1_555
C35_6 C30_6 1_555 1_555
C36_6 C31_6 1_555 1_555
H35_6 C32_6 1_555 1_555
H36_6 C33_6 1_555 1_555
H37_6 C34_6 1_555 1_555
H38_6 C35_6 1_555 1_555
H39_6 C36_6 1_555 1_555
H40_6 C32_6 1_555 1_555
H41_6 C33_6 1_555 1_555
H42_6 C34_6 1_555 1_555
H43_6 C35_6 1_555 1_555
H44_6 C36_6 1_555 1_555
H45_6 C32_6 1_555 1_555
H46_6 C33_6 1_555 1_555
H47_6 C34_6 1_555 1_555
H48_6 C35_6 1_555 1_555
H49_6 C36_6 1_555 1_555
B2_6 N11_6 1_555 1_555
H50_6 B2_6 1_555 1_555
O3_6 Rh7_6 1_555 1_555
O4_6 Rh7_6 1_555 1_555
N3_6 C1_6 1_555 1_555
O15_6 C17_6 1_555 1_555
O16_6 C18_6 1_555 1_555
O17_6 C19_6 1_555 1_555
O18_6 C20_6 1_555 1_555
O19_6 C21_6 1_555 1_555
O20_6 C27_6 1_555 1_555
O21_6 C28_6 1_555 1_555
O23_6 C30_6 1_555 1_555
N4_6 N9_6 1_555 1_555
N5_6 N10_6 1_555 1_555
N12_6 B2_6 1_555 1_555
N13_6 B2_6 1_555 1_555
N14_6 C7_6 1_555 1_555
N14_6 C12_6 1_555 1_555
N15_6 C8_6 1_555 1_555
N15_6 C13_6 1_555 1_555
N16_6 C14_6 1_555 1_555
N17_6 C15_6 1_555 1_555
N18_6 C16_6 1_555 1_555
Rh1_7 O1_7 1_555 1_555
Fe1_10 N1_7 1_555 1_555
O1_7 C5_7 1_555 1_555
O2_7 Rh1_7 1_555 1_555
O3_7 C3_7 1_555 1_555
O4_7 C5_7 1_555 1_555
N1_7 N2_7 1_555 1_555
N2_7 C2_7 1_555 1_555
N3_7 Rh1_7 1_555 1_555
C1_7 N1_7 1_555 1_555
H1_7 C1_7 1_555 1_555
C2_7 N3_7 1_555 1_555
H2_7 C2_7 1_555 1_555
C3_7 O2_7 1_555 1_555
C4_7 C3_7 1_555 1_555
H3_7 C4_7 1_555 1_555
H4_7 C4_7 1_555 1_555
H5_7 C4_7 1_555 1_555
C5_7 C6_7 1_555 1_555
C6_7 H6_7 1_555 1_555
H7_7 C6_7 1_555 1_555
H8_7 C6_7 1_555 1_555
B1_7 N2_7 1_555 1_555
H9_7 B1_7 1_555 1_555
Rh2_7 Rh8_7 1_555 1_555
Rh3_7 Rh9_7 1_555 1_555
Rh4_7 N16_7 1_555 1_555
Rh5_7 N17_7 1_555 1_555
Rh6_7 N18_7 1_555 1_555
Rh7_7 Rh1_7 1_555 1_555
Rh8_7 O7_7 1_555 1_555
Rh9_7 O9_7 1_555 1_555
O5_7 Rh7_7 1_555 1_555
O6_7 Rh2_7 1_555 1_555
O7_7 C29_7 1_555 1_555
O8_7 Rh3_7 1_555 1_555
O9_7 C31_7 1_555 1_555
O10_7 Rh7_7 1_555 1_555
O11_7 Rh2_7 1_555 1_555
O12_7 Rh8_7 1_555 1_555
O13_7 Rh3_7 1_555 1_555
O14_7 Rh9_7 1_555 1_555
O15_7 Rh1_7 1_555 1_555
O16_7 Rh8_7 1_555 1_555
O17_7 Rh2_7 1_555 1_555
O18_7 Rh9_7 1_555 1_555
O19_7 Rh3_7 1_555 1_555
O20_7 Rh1_7 1_555 1_555
O21_7 Rh8_7 1_555 1_555
O22_7 Rh2_7 1_555 1_555
O23_7 Rh9_7 1_555 1_555
O24_7 Rh3_7 1_555 1_555
N4_7 Fe1_10 1_555 1_555
N5_7 Fe1_10 1_555 1_555
N6_7 Fe1_10 1_555 1_555
N7_7 Fe1_10 1_555 1_555
N8_7 Fe1_10 1_555 1_555
N9_7 B1_7 1_555 1_555
N10_7 B1_7 1_555 1_555
N11_7 N6_7 1_555 1_555
N12_7 N7_7 1_555 1_555
N13_7 N8_7 1_555 1_555
N14_7 Rh2_7 1_555 1_555
N15_7 Rh3_7 1_555 1_555
N16_7 C9_7 1_555 1_555
N17_7 C10_7 1_555 1_555
N18_7 C11_7 1_555 1_555
N19_7 Rh7_7 1_555 1_555
N20_7 Rh8_7 1_555 1_555
N21_7 Rh9_7 1_555 1_555
C7_7 N4_7 1_555 1_555
C8_7 N5_7 1_555 1_555
C9_7 N6_7 1_555 1_555
C10_7 N7_7 1_555 1_555
C11_7 N8_7 1_555 1_555
H10_7 C7_7 1_555 1_555
H11_7 C8_7 1_555 1_555
H12_7 C9_7 1_555 1_555
H13_7 C10_7 1_555 1_555
H14_7 C11_7 1_555 1_555
C12_7 N9_7 1_555 1_555
C13_7 N10_7 1_555 1_555
C14_7 N11_7 1_555 1_555
C15_7 N12_7 1_555 1_555
C16_7 N13_7 1_555 1_555
H15_7 C12_7 1_555 1_555
H16_7 C13_7 1_555 1_555
H17_7 C14_7 1_555 1_555
H18_7 C15_7 1_555 1_555
H19_7 C16_7 1_555 1_555
C17_7 O10_7 1_555 1_555
C18_7 O11_7 1_555 1_555
C19_7 O12_7 1_555 1_555
C20_7 O13_7 1_555 1_555
C21_7 O14_7 1_555 1_555
C22_7 C17_7 1_555 1_555
C23_7 C18_7 1_555 1_555
C24_7 C19_7 1_555 1_555
C25_7 C20_7 1_555 1_555
C26_7 C21_7 1_555 1_555
H20_7 C22_7 1_555 1_555
H21_7 C23_7 1_555 1_555
H22_7 C24_7 1_555 1_555
H23_7 C25_7 1_555 1_555
H24_7 C26_7 1_555 1_555
H25_7 C22_7 1_555 1_555
H26_7 C23_7 1_555 1_555
H28_7 C25_7 1_555 1_555
H29_7 C26_7 1_555 1_555
H30_7 C22_7 1_555 1_555
H31_7 C23_7 1_555 1_555
H32_7 C24_7 1_555 1_555
H33_7 C25_7 1_555 1_555
H34_7 C26_7 1_555 1_555
C27_7 O5_7 1_555 1_555
C28_7 O6_7 1_555 1_555
C29_7 O22_7 1_555 1_555
C30_7 O8_7 1_555 1_555
C31_7 O24_7 1_555 1_555
C32_7 C27_7 1_555 1_555
C33_7 C28_7 1_555 1_555
C34_7 C29_7 1_555 1_555
C35_7 C30_7 1_555 1_555
C36_7 C31_7 1_555 1_555
H35_7 C32_7 1_555 1_555
H36_7 C33_7 1_555 1_555
H37_7 C34_7 1_555 1_555
H38_7 C35_7 1_555 1_555
H39_7 C36_7 1_555 1_555
H40_7 C32_7 1_555 1_555
H41_7 C33_7 1_555 1_555
H42_7 C34_7 1_555 1_555
H43_7 C35_7 1_555 1_555
H44_7 C36_7 1_555 1_555
H45_7 C32_7 1_555 1_555
H46_7 C33_7 1_555 1_555
H47_7 C34_7 1_555 1_555
H48_7 C35_7 1_555 1_555
H49_7 C36_7 1_555 1_555
B2_7 N11_7 1_555 1_555
H50_7 B2_7 1_555 1_555
O3_7 Rh7_7 1_555 1_555
O4_7 Rh7_7 1_555 1_555
N3_7 C1_7 1_555 1_555
O15_7 C17_7 1_555 1_555
O16_7 C18_7 1_555 1_555
O17_7 C19_7 1_555 1_555
O18_7 C20_7 1_555 1_555
O19_7 C21_7 1_555 1_555
O20_7 C27_7 1_555 1_555
O21_7 C28_7 1_555 1_555
O23_7 C30_7 1_555 1_555
N4_7 N9_7 1_555 1_555
N5_7 N10_7 1_555 1_555
N12_7 B2_7 1_555 1_555
N13_7 B2_7 1_555 1_555
N14_7 C7_7 1_555 1_555
N14_7 C12_7 1_555 1_555
N15_7 C8_7 1_555 1_555
N15_7 C13_7 1_555 1_555
N16_7 C14_7 1_555 1_555
N17_7 C15_7 1_555 1_555
N18_7 C16_7 1_555 1_555
Fe1_11 N1_8 1_555 1_555
C1_8 N1_8 1_555 1_555
H1_8 C1_8 1_555 1_555
C2_8 N21_5 1_555 1_555
Rh4_8 N16_8 1_555 1_555
N6_8 Fe1_11 1_555 1_555
N16_8 C9_8 1_555 1_555
C9_8 N6_8 1_555 1_555
H12_8 C9_8 1_555 1_555
N21_5 C1_8 1_555 1_555
N16_8 C14_8 1_555 1_555
Rh6_8 N18_8 1_555 1_555
N8_8 Fe1_12 1_555 1_555
N13_8 N8_8 1_555 1_555
N18_8 C11_8 1_555 1_555
C11_8 N8_8 1_555 1_555
H14_8 C11_8 1_555 1_555
C16_8 N13_8 1_555 1_555
H19_8 C16_8 1_555 1_555
B2_8 N11_8 1_555 1_555
H50_8 B2_8 1_555 1_555
N12_8 B2_8 1_555 1_555
N13_8 B2_8 1_555 1_555
N18_8 C16_8 1_555 1_555
B1_8 N2_8 1_555 1_555
H9_8 B1_8 1_555 1_555
N4_8 Fe1_13 1_555 1_555
N9_8 B1_8 1_555 1_555
N10_8 B1_8 1_555 1_555
C7_8 N4_8 1_555 1_555
H10_8 C7_8 1_555 1_555
C12_8 N9_8 1_555 1_555
H15_8 C12_8 1_555 1_555
N4_8 N9_8 1_555 1_555
N21_7 C7_8 1_555 1_555
N21_7 C12_8 1_555 1_555
Rh5_8 N17_8 1_555 1_555
N5_8 Fe1_14 1_555 1_555
N7_8 Fe1_14 1_555 1_555
N17_8 C10_8 1_555 1_555
C8_8 N5_8 1_555 1_555
C10_8 N7_8 1_555 1_555
H11_8 C8_8 1_555 1_555
H13_8 C10_8 1_555 1_555
N19_6 C8_8 1_555 1_555
N19_6 C13_8 1_555 1_555
N17_8 C15_8 1_555 1_555
Fe1_15 N1_9 1_555 1_555
C1_9 N1_9 1_555 1_555
H1_9 C1_9 1_555 1_555
C2_9 N20_7 1_555 1_555
Rh4_9 N16_9 1_555 1_555
N6_9 Fe1_15 1_555 1_555
N16_9 C9_9 1_555 1_555
C9_9 N6_9 1_555 1_555
H12_9 C9_9 1_555 1_555
N20_7 C1_9 1_555 1_555
N16_9 C14_9 1_555 1_555
B1_9 N2_9 1_555 1_555
H9_9 B1_9 1_555 1_555
N4_9 Fe1_16 1_555 1_555
N9_9 B1_9 1_555 1_555
N10_9 B1_9 1_555 1_555
C7_9 N4_9 1_555 1_555
H10_9 C7_9 1_555 1_555
C12_9 N9_9 1_555 1_555
H15_9 C12_9 1_555 1_555
N4_9 N9_9 1_555 1_555
N21_4 C7_9 1_555 1_555
N21_4 C12_9 1_555 1_555
Rh6_9 N18_9 1_555 1_555
N8_9 Fe1_17 1_555 1_555
N13_9 N8_9 1_555 1_555
N18_9 C11_9 1_555 1_555
C11_9 N8_9 1_555 1_555
H14_9 C11_9 1_555 1_555
C16_9 N13_9 1_555 1_555
H19_9 C16_9 1_555 1_555
B2_9 N11_9 1_555 1_555
H50_9 B2_9 1_555 1_555
N12_9 B2_9 1_555 1_555
N13_9 B2_9 1_555 1_555
N18_9 C16_9 1_555 1_555
Rh5_9 N17_9 1_555 1_555
N5_9 Fe1_18 1_555 1_555
N7_9 Fe1_18 1_555 1_555
N17_9 C10_9 1_555 1_555
C8_9 N5_9 1_555 1_555
C10_9 N7_9 1_555 1_555
H11_9 C8_9 1_555 1_555
H13_9 C10_9 1_555 1_555
N20_6 C8_9 1_555 1_555
N20_6 C13_9 1_555 1_555
N17_9 C15_9 1_555 1_555
Fe1_19 N1_10 1_555 1_555
C1_10 N1_10 1_555 1_555
H1_10 C1_10 1_555 1_555
C2_10 N20_4 1_555 1_555
Rh4_10 N16_10 1_555 1_555
N6_10 Fe1_19 1_555 1_555
N16_10 C9_10 1_555 1_555
C9_10 N6_10 1_555 1_555
H12_10 C9_10 1_555 1_555
N20_4 C1_10 1_555 1_555
N16_10 C14_10 1_555 1_555
Rh6_10 N18_10 1_555 1_555
N8_10 Fe1_20 1_555 1_555
N13_10 N8_10 1_555 1_555
N18_10 C11_10 1_555 1_555
C11_10 N8_10 1_555 1_555
H14_10 C11_10 1_555 1_555
C16_10 N13_10 1_555 1_555
H19_10 C16_10 1_555 1_555
B2_10 N11_10 1_555 1_555
H50_10 B2_10 1_555 1_555
N12_10 B2_10 1_555 1_555
N13_10 B2_10 1_555 1_555
N18_10 C16_10 1_555 1_555
B1_10 N2_10 1_555 1_555
H9_10 B1_10 1_555 1_555
N4_10 Fe1_21 1_555 1_555
N9_10 B1_10 1_555 1_555
N10_10 B1_10 1_555 1_555
C7_10 N4_10 1_555 1_555
H10_10 C7_10 1_555 1_555
C12_10 N9_10 1_555 1_555
H15_10 C12_10 1_555 1_555
N4_10 N9_10 1_555 1_555
N19_5 C7_10 1_555 1_555
N19_5 C12_10 1_555 1_555
Rh5_10 N17_10 1_555 1_555
N5_10 Fe1_22 1_555 1_555
N7_10 Fe1_22 1_555 1_555
N17_10 C10_10 1_555 1_555
C8_10 N5_10 1_555 1_555
C10_10 N7_10 1_555 1_555
H11_10 C8_10 1_555 1_555
H13_10 C10_10 1_555 1_555
N21_6 C8_10 1_555 1_555
N21_6 C13_10 1_555 1_555
N17_10 C15_10 1_555 1_555
Rh1_8 O1_8 1_555 1_555
Fe1_23 N1_11 1_555 1_555
O1_8 C5_8 1_555 1_555
O2_8 Rh1_8 1_555 1_555
O3_8 C3_8 1_555 1_555
O4_8 C5_8 1_555 1_555
N1_11 N2_11 1_555 1_555
N2_11 C2_11 1_555 1_555
N3_8 Rh1_8 1_555 1_555
C1_11 N1_11 1_555 1_555
H1_11 C1_11 1_555 1_555
C2_11 N3_8 1_555 1_555
H2_11 C2_11 1_555 1_555
C3_8 O2_8 1_555 1_555
C4_8 C3_8 1_555 1_555
H3_8 C4_8 1_555 1_555
H4_8 C4_8 1_555 1_555
H5_8 C4_8 1_555 1_555
C5_8 C6_8 1_555 1_555
C6_8 H6_8 1_555 1_555
H7_8 C6_8 1_555 1_555
H8_8 C6_8 1_555 1_555
B1_11 N2_11 1_555 1_555
H9_11 B1_11 1_555 1_555
Rh4_11 N16_11 1_555 1_555
Rh5_11 N17_11 1_555 1_555
Rh6_11 N18_11 1_555 1_555
Rh7_8 Rh1_8 1_555 1_555
O5_8 Rh7_8 1_555 1_555
O10_8 Rh7_8 1_555 1_555
O15_8 Rh1_8 1_555 1_555
O20_8 Rh1_8 1_555 1_555
N4_11 Fe1_23 1_555 1_555
N5_11 Fe1_23 1_555 1_555
N6_11 Fe1_23 1_555 1_555
N7_11 Fe1_23 1_555 1_555
N8_11 Fe1_23 1_555 1_555
N9_11 B1_11 1_555 1_555
N10_11 B1_11 1_555 1_555
N11_11 N6_11 1_555 1_555
N12_11 N7_11 1_555 1_555
N13_11 N8_11 1_555 1_555
N16_11 C9_11 1_555 1_555
N17_11 C10_11 1_555 1_555
N18_11 C11_11 1_555 1_555
N19_8 Rh7_8 1_555 1_555
C7_11 N4_11 1_555 1_555
C8_11 N5_11 1_555 1_555
C9_11 N6_11 1_555 1_555
C10_11 N7_11 1_555 1_555
C11_11 N8_11 1_555 1_555
H10_11 C7_11 1_555 1_555
H11_11 C8_11 1_555 1_555
H12_11 C9_11 1_555 1_555
H13_11 C10_11 1_555 1_555
H14_11 C11_11 1_555 1_555
C12_11 N9_11 1_555 1_555
C13_11 N10_11 1_555 1_555
C14_11 N11_11 1_555 1_555
C15_11 N12_11 1_555 1_555
C16_11 N13_11 1_555 1_555
H15_11 C12_11 1_555 1_555
H16_11 C13_11 1_555 1_555
H17_11 C14_11 1_555 1_555
H18_11 C15_11 1_555 1_555
H19_11 C16_11 1_555 1_555
C17_8 O10_8 1_555 1_555
C22_8 C17_8 1_555 1_555
H20_8 C22_8 1_555 1_555
H30_8 C22_8 1_555 1_555
C27_8 O5_8 1_555 1_555
C32_8 C27_8 1_555 1_555
H35_8 C32_8 1_555 1_555
H40_8 C32_8 1_555 1_555
H45_8 C32_8 1_555 1_555
B2_11 N11_11 1_555 1_555
H50_11 B2_11 1_555 1_555
O3_8 Rh7_8 1_555 1_555
O4_8 Rh7_8 1_555 1_555
N3_8 C1_11 1_555 1_555
O15_8 C17_8 1_555 1_555
O20_8 C27_8 1_555 1_555
N4_11 N9_11 1_555 1_555
N5_11 N10_11 1_555 1_555
N12_11 B2_11 1_555 1_555
N13_11 B2_11 1_555 1_555
N19_3 C7_11 1_555 1_555
N19_3 C12_11 1_555 1_555
N20_2 C8_11 1_555 1_555
N20_2 C13_11 1_555 1_555
N16_11 C14_11 1_555 1_555
N17_11 C15_11 1_555 1_555
N18_11 C16_11 1_555 1_555
Fe1_24 N1_12 1_555 1_555
N1_12 N2_12 1_555 1_555
N2_12 C2_12 1_555 1_555
C1_12 N1_12 1_555 1_555
H1_12 C1_12 1_555 1_555
C2_12 N19_2 1_555 1_555
H2_12 C2_12 1_555 1_555
B1_12 N2_12 1_555 1_555
H9_12 B1_12 1_555 1_555
Rh3_8 Rh9_8 1_555 1_555
Rh4_12 N16_12 1_555 1_555
Rh5_12 N17_12 1_555 1_555
Rh6_12 N18_12 1_555 1_555
Rh9_8 O9_8 1_555 1_555
O8_8 Rh3_8 1_555 1_555
O9_8 C31_8 1_555 1_555
O13_8 Rh3_8 1_555 1_555
O14_8 Rh9_8 1_555 1_555
O18_8 Rh9_8 1_555 1_555
O19_8 Rh3_8 1_555 1_555
O23_8 Rh9_8 1_555 1_555
O24_8 Rh3_8 1_555 1_555
N4_12 Fe1_24 1_555 1_555
N5_12 Fe1_24 1_555 1_555
N6_12 Fe1_24 1_555 1_555
N7_12 Fe1_24 1_555 1_555
N8_12 Fe1_24 1_555 1_555
N9_12 B1_12 1_555 1_555
N10_12 B1_12 1_555 1_555
N11_12 N6_12 1_555 1_555
N12_12 N7_12 1_555 1_555
N13_12 N8_12 1_555 1_555
N15_8 Rh3_8 1_555 1_555
N16_12 C9_12 1_555 1_555
N17_12 C10_12 1_555 1_555
N18_12 C11_12 1_555 1_555
N21_8 Rh9_8 1_555 1_555
C7_12 N4_12 1_555 1_555
C8_12 N5_12 1_555 1_555
C9_12 N6_12 1_555 1_555
C10_12 N7_12 1_555 1_555
C11_12 N8_12 1_555 1_555
H10_12 C7_12 1_555 1_555
H11_12 C8_12 1_555 1_555
H12_12 C9_12 1_555 1_555
H13_12 C10_12 1_555 1_555
H14_12 C11_12 1_555 1_555
C12_12 N9_12 1_555 1_555
C13_12 N10_12 1_555 1_555
C14_12 N11_12 1_555 1_555
C15_12 N12_12 1_555 1_555
C16_12 N13_12 1_555 1_555
H15_12 C12_12 1_555 1_555
H16_12 C13_12 1_555 1_555
H17_12 C14_12 1_555 1_555
H18_12 C15_12 1_555 1_555
H19_12 C16_12 1_555 1_555
C20_8 O13_8 1_555 1_555
C21_8 O14_8 1_555 1_555
C25_8 C20_8 1_555 1_555
C26_8 C21_8 1_555 1_555
H23_8 C25_8 1_555 1_555
H24_8 C26_8 1_555 1_555
H28_8 C25_8 1_555 1_555
H33_8 C25_8 1_555 1_555
H34_8 C26_8 1_555 1_555
C30_8 O8_8 1_555 1_555
C31_8 O24_8 1_555 1_555
C35_8 C30_8 1_555 1_555
C36_8 C31_8 1_555 1_555
H38_8 C35_8 1_555 1_555
H39_8 C36_8 1_555 1_555
H43_8 C35_8 1_555 1_555
H44_8 C36_8 1_555 1_555
H48_8 C35_8 1_555 1_555
H49_8 C36_8 1_555 1_555
B2_12 N11_12 1_555 1_555
H50_12 B2_12 1_555 1_555
N19_2 C1_12 1_555 1_555
O18_8 C20_8 1_555 1_555
O19_8 C21_8 1_555 1_555
O23_8 C30_8 1_555 1_555
N4_12 N9_12 1_555 1_555
N5_12 N10_12 1_555 1_555
N12_12 B2_12 1_555 1_555
N13_12 B2_12 1_555 1_555
N20 C7_12 1_555 1_555
N20 C12_12 1_555 1_555
N15_8 C8_12 1_555 1_555
N15_8 C13_12 1_555 1_555
N16_12 C14_12 1_555 1_555
N17_12 C15_12 1_555 1_555
N18_12 C16_12 1_555 1_555
Fe1_25 N1_13 1_555 1_555
N1_13 N2_13 1_555 1_555
N2_13 C2_13 1_555 1_555
C1_13 N1_13 1_555 1_555
H1_13 C1_13 1_555 1_555
C2_13 N20_3 1_555 1_555
H2_13 C2_13 1_555 1_555
B1_13 N2_13 1_555 1_555
H9_13 B1_13 1_555 1_555
Rh2_8 Rh8_8 1_555 1_555
Rh4_13 N16_13 1_555 1_555
Rh5_13 N17_13 1_555 1_555
Rh6_13 N18_13 1_555 1_555
Rh8_8 O7_8 1_555 1_555
O6_8 Rh2_8 1_555 1_555
O7_8 C29_8 1_555 1_555
O11_8 Rh2_8 1_555 1_555
O12_8 Rh8_8 1_555 1_555
O16_8 Rh8_8 1_555 1_555
O17_8 Rh2_8 1_555 1_555
O21_8 Rh8_8 1_555 1_555
O22_8 Rh2_8 1_555 1_555
N4_13 Fe1_25 1_555 1_555
N5_13 Fe1_25 1_555 1_555
N6_13 Fe1_25 1_555 1_555
N7_13 Fe1_25 1_555 1_555
N8_13 Fe1_25 1_555 1_555
N9_13 B1_13 1_555 1_555
N10_13 B1_13 1_555 1_555
N11_13 N6_13 1_555 1_555
N12_13 N7_13 1_555 1_555
N13_13 N8_13 1_555 1_555
N14_8 Rh2_8 1_555 1_555
N16_13 C9_13 1_555 1_555
N17_13 C10_13 1_555 1_555
N18_13 C11_13 1_555 1_555
N20_8 Rh8_8 1_555 1_555
C7_13 N4_13 1_555 1_555
C8_13 N5_13 1_555 1_555
C9_13 N6_13 1_555 1_555
C10_13 N7_13 1_555 1_555
C11_13 N8_13 1_555 1_555
H10_13 C7_13 1_555 1_555
H11_13 C8_13 1_555 1_555
H12_13 C9_13 1_555 1_555
H13_13 C10_13 1_555 1_555
H14_13 C11_13 1_555 1_555
C12_13 N9_13 1_555 1_555
C13_13 N10_13 1_555 1_555
C14_13 N11_13 1_555 1_555
C15_13 N12_13 1_555 1_555
C16_13 N13_13 1_555 1_555
H15_13 C12_13 1_555 1_555
H16_13 C13_13 1_555 1_555
H17_13 C14_13 1_555 1_555
H18_13 C15_13 1_555 1_555
H19_13 C16_13 1_555 1_555
C18_8 O11_8 1_555 1_555
C19_8 O12_8 1_555 1_555
C23_8 C18_8 1_555 1_555
C24_8 C19_8 1_555 1_555
H21_8 C23_8 1_555 1_555
H22_8 C24_8 1_555 1_555
H26_8 C23_8 1_555 1_555
H31_8 C23_8 1_555 1_555
H32_8 C24_8 1_555 1_555
C28_8 O6_8 1_555 1_555
C29_8 O22_8 1_555 1_555
C33_8 C28_8 1_555 1_555
C34_8 C29_8 1_555 1_555
H36_8 C33_8 1_555 1_555
H37_8 C34_8 1_555 1_555
H41_8 C33_8 1_555 1_555
H42_8 C34_8 1_555 1_555
H46_8 C33_8 1_555 1_555
H47_8 C34_8 1_555 1_555
B2_13 N11_13 1_555 1_555
H50_13 B2_13 1_555 1_555
N20_3 C1_13 1_555 1_555
O16_8 C18_8 1_555 1_555
O17_8 C19_8 1_555 1_555
O21_8 C28_8 1_555 1_555
N4_13 N9_13 1_555 1_555
N5_13 N10_13 1_555 1_555
N12_13 B2_13 1_555 1_555
N13_13 B2_13 1_555 1_555
N14_8 C7_13 1_555 1_555
N14_8 C12_13 1_555 1_555
N19 C8_13 1_555 1_555
N19 C13_13 1_555 1_555
N16_13 C14_13 1_555 1_555
N17_13 C15_13 1_555 1_555
N18_13 C16_13 1_555 1_555
Fe1_26 N1_14 1_555 1_555
N1_14 N2_14 1_555 1_555
N2_14 C2_14 1_555 1_555
C1_14 N1_14 1_555 1_555
H1_14 C1_14 1_555 1_555
C2_14 N21 1_555 1_555
H2_14 C2_14 1_555 1_555
B1_14 N2_14 1_555 1_555
H9_14 B1_14 1_555 1_555
Rh4_14 N16_14 1_555 1_555
Rh5_14 N17_14 1_555 1_555
Rh6_14 N18_14 1_555 1_555
N4_14 Fe1_26 1_555 1_555
N5_14 Fe1_26 1_555 1_555
N6_14 Fe1_26 1_555 1_555
N7_14 Fe1_26 1_555 1_555
N8_14 Fe1_26 1_555 1_555
N9_14 B1_14 1_555 1_555
N10_14 B1_14 1_555 1_555
N11_14 N6_14 1_555 1_555
N12_14 N7_14 1_555 1_555
N13_14 N8_14 1_555 1_555
N16_14 C9_14 1_555 1_555
N17_14 C10_14 1_555 1_555
N18_14 C11_14 1_555 1_555
C7_14 N4_14 1_555 1_555
C8_14 N5_14 1_555 1_555
C9_14 N6_14 1_555 1_555
C10_14 N7_14 1_555 1_555
C11_14 N8_14 1_555 1_555
H10_14 C7_14 1_555 1_555
H11_14 C8_14 1_555 1_555
H12_14 C9_14 1_555 1_555
H13_14 C10_14 1_555 1_555
H14_14 C11_14 1_555 1_555
C12_14 N9_14 1_555 1_555
C13_14 N10_14 1_555 1_555
C14_14 N11_14 1_555 1_555
C15_14 N12_14 1_555 1_555
C16_14 N13_14 1_555 1_555
H15_14 C12_14 1_555 1_555
H16_14 C13_14 1_555 1_555
H17_14 C14_14 1_555 1_555
H18_14 C15_14 1_555 1_555
H19_14 C16_14 1_555 1_555
B2_14 N11_14 1_555 1_555
H50_14 B2_14 1_555 1_555
N21 C1_14 1_555 1_555
N4_14 N9_14 1_555 1_555
N5_14 N10_14 1_555 1_555
N12_14 B2_14 1_555 1_555
N13_14 B2_14 1_555 1_555
N21_2 C7_14 1_555 1_555
N21_2 C12_14 1_555 1_555
N21_3 C8_14 1_555 1_555
N21_3 C13_14 1_555 1_555
N16_14 C14_14 1_555 1_555
N17_14 C15_14 1_555 1_555
N18_14 C16_14 1_555 1_555
Rh4_15 N16_15 1_555 1_555
N6_15 Fe1_27 1_555 1_555
N16_15 C9_15 1_555 1_555
C9_15 N6_15 1_555 1_555
H12_15 C9_15 1_555 1_555
N16_15 C14_15 1_555 1_555
Rh5_15 N17_15 1_555 1_555
N7_15 Fe1_28 1_555 1_555
N17_15 C10_15 1_555 1_555
C10_15 N7_15 1_555 1_555
H13_15 C10_15 1_555 1_555
N17_15 C15_15 1_555 1_555
N4_15 Fe1_29 1_555 1_555
C7_15 N4_15 1_555 1_555
H10_15 C7_15 1_555 1_555
N20_8 C7_15 1_555 1_555
N20_8 C12_15 1_555 1_555
Rh6_15 N18_15 1_555 1_555
N8_15 Fe1_30 1_555 1_555
N18_15 C11_15 1_555 1_555
C11_15 N8_15 1_555 1_555
H14_15 C11_15 1_555 1_555
N18_15 C16_15 1_555 1_555
Fe1_31 N1_15 1_555 1_555
C1_15 N1_15 1_555 1_555
H1_15 C1_15 1_555 1_555
C2_15 N21_8 1_555 1_555
N21_8 C1_15 1_555 1_555
N5_15 Fe1_32 1_555 1_555
C8_15 N5_15 1_555 1_555
H11_15 C8_15 1_555 1_555
N19_8 C8_15 1_555 1_555
N19_8 C13_15 1_555 1_555
Fe1_33 N1_16 1_555 1_555
N1_16 N2_15 1_555 1_555
N2_15 C2_16 1_555 1_555
C1_16 N1_16 1_555 1_555
H1_16 C1_16 1_555 1_555
C2_16 N19_7 1_555 1_555
H2_15 C2_16 1_555 1_555
B1_15 N2_15 1_555 1_555
H9_15 B1_15 1_555 1_555
Rh4_16 N16_16 1_555 1_555
Rh5_16 N17_16 1_555 1_555
Rh6_16 N18_16 1_555 1_555
N4_16 Fe1_33 1_555 1_555
N5_16 Fe1_33 1_555 1_555
N6_16 Fe1_33 1_555 1_555
N7_16 Fe1_33 1_555 1_555
N8_16 Fe1_33 1_555 1_555
N9_15 B1_15 1_555 1_555
N10_15 B1_15 1_555 1_555
N11_15 N6_16 1_555 1_555
N12_15 N7_16 1_555 1_555
N13_15 N8_16 1_555 1_555
N16_16 C9_16 1_555 1_555
N17_16 C10_16 1_555 1_555
N18_16 C11_16 1_555 1_555
C7_16 N4_16 1_555 1_555
C8_16 N5_16 1_555 1_555
C9_16 N6_16 1_555 1_555
C10_16 N7_16 1_555 1_555
C11_16 N8_16 1_555 1_555
H10_16 C7_16 1_555 1_555
H11_16 C8_16 1_555 1_555
H12_16 C9_16 1_555 1_555
H13_16 C10_16 1_555 1_555
H14_16 C11_16 1_555 1_555
C12_16 N9_15 1_555 1_555
C13_16 N10_15 1_555 1_555
C14_16 N11_15 1_555 1_555
C15_16 N12_15 1_555 1_555
C16_16 N13_15 1_555 1_555
H15_15 C12_16 1_555 1_555
H16_15 C13_16 1_555 1_555
H17_15 C14_16 1_555 1_555
H18_15 C15_16 1_555 1_555
H19_15 C16_16 1_555 1_555
B2_15 N11_15 1_555 1_555
H50_15 B2_15 1_555 1_555
N19_7 C1_16 1_555 1_555
N4_16 N9_15 1_555 1_555
N5_16 N10_15 1_555 1_555
N12_15 B2_15 1_555 1_555
N13_15 B2_15 1_555 1_555
N20_5 C7_16 1_555 1_555
N20_5 C12_16 1_555 1_555
N19_4 C8_16 1_555 1_555
N19_4 C13_16 1_555 1_555
N16_16 C14_16 1_555 1_555
N17_16 C15_16 1_555 1_555
N18_16 C16_16 1_555 1_555
Rh6 Rh4_7 1_555 1_555
Rh4_7 O7_9 1_555 1_555
O6_9 Rh6 1_555 1_555
O7_9 C29_9 1_555 1_555
O11_9 Rh6 1_555 1_555
O12_9 Rh4_7 1_555 1_555
O16_9 Rh4_7 1_555 1_555
O17_9 Rh6 1_555 1_555
O21_9 Rh4_7 1_555 1_555
O22_9 Rh6 1_555 1_555
C18_9 O11_9 1_555 1_555
C19_9 O12_9 1_555 1_555
C23_9 C18_9 1_555 1_555
C24_9 C19_9 1_555 1_555
H21_9 C23_9 1_555 1_555
H22_9 C24_9 1_555 1_555
H27_8 C24_9 1_555 1_555
H31_9 C23_9 1_555 1_555
H32_9 C24_9 1_555 1_555
C28_9 O6_9 1_555 1_555
C29_9 O22_9 1_555 1_555
C33_9 C28_9 1_555 1_555
C34_9 C29_9 1_555 1_555
H36_9 C33_9 1_555 1_555
H37_9 C34_9 1_555 1_555
H41_9 C33_9 1_555 1_555
H42_9 C34_9 1_555 1_555
H46_9 C33_9 1_555 1_555
H47_9 C34_9 1_555 1_555
O16_9 C18_9 1_555 1_555
O17_9 C19_9 1_555 1_555
O21_9 C28_9 1_555 1_555
Rh5 O1_9 1_555 1_555
O1_9 C5_9 1_555 1_555
O2_9 Rh5 1_555 1_555
O3_9 C3_9 1_555 1_555
O4_9 C5_9 1_555 1_555
C3_9 O2_9 1_555 1_555
C4_9 C3_9 1_555 1_555
H3_9 C4_9 1_555 1_555
H4_9 C4_9 1_555 1_555
H5_9 C4_9 1_555 1_555
C5_9 C6_9 1_555 1_555
C6_9 H6_9 1_555 1_555
H7_9 C6_9 1_555 1_555
H8_9 C6_9 1_555 1_555
Rh4 Rh5_6 1_555 1_555
Rh4_5 Rh5 1_555 1_555
Rh5_6 O9_9 1_555 1_555
O5_9 Rh4_5 1_555 1_555
O8_9 Rh4 1_555 1_555
O9_9 C31_9 1_555 1_555
O10_9 Rh4_5 1_555 1_555
O13_9 Rh4 1_555 1_555
O14_9 Rh5_6 1_555 1_555
O15_9 Rh5 1_555 1_555
O18_9 Rh5_6 1_555 1_555
O19_9 Rh4 1_555 1_555
O20_9 Rh5 1_555 1_555
O23_9 Rh5_6 1_555 1_555
O24_9 Rh4 1_555 1_555
C17_9 O10_9 1_555 1_555
C20_9 O13_9 1_555 1_555
C21_9 O14_9 1_555 1_555
C22_9 C17_9 1_555 1_555
C25_9 C20_9 1_555 1_555
C26_9 C21_9 1_555 1_555
H20_9 C22_9 1_555 1_555
H23_9 C25_9 1_555 1_555
H24_9 C26_9 1_555 1_555
H25_8 C22_9 1_555 1_555
H28_9 C25_9 1_555 1_555
H29_8 C26_9 1_555 1_555
H30_9 C22_9 1_555 1_555
H33_9 C25_9 1_555 1_555
H34_9 C26_9 1_555 1_555
C27_9 O5_9 1_555 1_555
C30_9 O8_9 1_555 1_555
C31_9 O24_9 1_555 1_555
C32_9 C27_9 1_555 1_555
C35_9 C30_9 1_555 1_555
C36_9 C31_9 1_555 1_555
H35_9 C32_9 1_555 1_555
H38_9 C35_9 1_555 1_555
H39_9 C36_9 1_555 1_555
H40_9 C32_9 1_555 1_555
H43_9 C35_9 1_555 1_555
H44_9 C36_9 1_555 1_555
H45_9 C32_9 1_555 1_555
H48_9 C35_9 1_555 1_555
H49_9 C36_9 1_555 1_555
O3_9 Rh4_5 1_555 1_555
O4_9 Rh4_5 1_555 1_555
O15_9 C17_9 1_555 1_555
O18_9 C20_9 1_555 1_555
O19_9 C21_9 1_555 1_555
O20_9 C27_9 1_555 1_555
O23_9 C30_9 1_555 1_555
Rh6_2 Rh4_4 1_555 1_555
Rh4_4 O7_10 1_555 1_555
O6_10 Rh6_2 1_555 1_555
O7_10 C29_10 1_555 1_555
O11_10 Rh6_2 1_555 1_555
O12_10 Rh4_4 1_555 1_555
O16_10 Rh4_4 1_555 1_555
O17_10 Rh6_2 1_555 1_555
O21_10 Rh4_4 1_555 1_555
O22_10 Rh6_2 1_555 1_555
C18_10 O11_10 1_555 1_555
C19_10 O12_10 1_555 1_555
C23_10 C18_10 1_555 1_555
C24_10 C19_10 1_555 1_555
H21_10 C23_10 1_555 1_555
H22_10 C24_10 1_555 1_555
H27_9 C24_10 1_555 1_555
H31_10 C23_10 1_555 1_555
H32_10 C24_10 1_555 1_555
C28_10 O6_10 1_555 1_555
C29_10 O22_10 1_555 1_555
C33_10 C28_10 1_555 1_555
C34_10 C29_10 1_555 1_555
H36_10 C33_10 1_555 1_555
H37_10 C34_10 1_555 1_555
H41_10 C33_10 1_555 1_555
H42_10 C34_10 1_555 1_555
H46_10 C33_10 1_555 1_555
H47_10 C34_10 1_555 1_555
O16_10 C18_10 1_555 1_555
O17_10 C19_10 1_555 1_555
O21_10 C28_10 1_555 1_555
Rh5_2 O1_10 1_555 1_555
O1_10 C5_10 1_555 1_555
O2_10 Rh5_2 1_555 1_555
O3_10 C3_10 1_555 1_555
O4_10 C5_10 1_555 1_555
C3_10 O2_10 1_555 1_555
C4_10 C3_10 1_555 1_555
H3_10 C4_10 1_555 1_555
H4_10 C4_10 1_555 1_555
H5_10 C4_10 1_555 1_555
C5_10 C6_10 1_555 1_555
C6_10 H6_10 1_555 1_555
H7_10 C6_10 1_555 1_555
H8_10 C6_10 1_555 1_555
Rh4_2 Rh6_6 1_555 1_555
Rh6_7 Rh5_2 1_555 1_555
Rh6_6 O9_10 1_555 1_555
O5_10 Rh6_7 1_555 1_555
O8_10 Rh4_2 1_555 1_555
O9_10 C31_10 1_555 1_555
O10_10 Rh6_7 1_555 1_555
O13_10 Rh4_2 1_555 1_555
O14_10 Rh6_6 1_555 1_555
O15_10 Rh5_2 1_555 1_555
O18_10 Rh6_6 1_555 1_555
O19_10 Rh4_2 1_555 1_555
O20_10 Rh5_2 1_555 1_555
O23_10 Rh6_6 1_555 1_555
O24_10 Rh4_2 1_555 1_555
C17_10 O10_10 1_555 1_555
C20_10 O13_10 1_555 1_555
C21_10 O14_10 1_555 1_555
C22_10 C17_10 1_555 1_555
C25_10 C20_10 1_555 1_555
C26_10 C21_10 1_555 1_555
H20_10 C22_10 1_555 1_555
H23_10 C25_10 1_555 1_555
H24_10 C26_10 1_555 1_555
H25_9 C22_10 1_555 1_555
H28_10 C25_10 1_555 1_555
H29_9 C26_10 1_555 1_555
H30_10 C22_10 1_555 1_555
H33_10 C25_10 1_555 1_555
H34_10 C26_10 1_555 1_555
C27_10 O5_10 1_555 1_555
C30_10 O8_10 1_555 1_555
C31_10 O24_10 1_555 1_555
C32_10 C27_10 1_555 1_555
C35_10 C30_10 1_555 1_555
C36_10 C31_10 1_555 1_555
H35_10 C32_10 1_555 1_555
H38_10 C35_10 1_555 1_555
H39_10 C36_10 1_555 1_555
H40_10 C32_10 1_555 1_555
H43_10 C35_10 1_555 1_555
H44_10 C36_10 1_555 1_555
H45_10 C32_10 1_555 1_555
H48_10 C35_10 1_555 1_555
H49_10 C36_10 1_555 1_555
O3_10 Rh6_7 1_555 1_555
O4_10 Rh6_7 1_555 1_555
O15_10 C17_10 1_555 1_555
O18_10 C20_10 1_555 1_555
O19_10 C21_10 1_555 1_555
O20_10 C27_10 1_555 1_555
O23_10 C30_10 1_555 1_555
Rh6_3 Rh5_5 1_555 1_555
Rh5_5 O7_11 1_555 1_555
O6_11 Rh6_3 1_555 1_555
O7_11 C29_11 1_555 1_555
O11_11 Rh6_3 1_555 1_555
O12_11 Rh5_5 1_555 1_555
O16_11 Rh5_5 1_555 1_555
O17_11 Rh6_3 1_555 1_555
O21_11 Rh5_5 1_555 1_555
O22_11 Rh6_3 1_555 1_555
C18_11 O11_11 1_555 1_555
C19_11 O12_11 1_555 1_555
C23_11 C18_11 1_555 1_555
C24_11 C19_11 1_555 1_555
H21_11 C23_11 1_555 1_555
H22_11 C24_11 1_555 1_555
H27_10 C24_11 1_555 1_555
H31_11 C23_11 1_555 1_555
H32_11 C24_11 1_555 1_555
C28_11 O6_11 1_555 1_555
C29_11 O22_11 1_555 1_555
C33_11 C28_11 1_555 1_555
C34_11 C29_11 1_555 1_555
H36_11 C33_11 1_555 1_555
H37_11 C34_11 1_555 1_555
H41_11 C33_11 1_555 1_555
H42_11 C34_11 1_555 1_555
H46_11 C33_11 1_555 1_555
H47_11 C34_11 1_555 1_555
O16_11 C18_11 1_555 1_555
O17_11 C19_11 1_555 1_555
O21_11 C28_11 1_555 1_555
Rh5_3 O1_11 1_555 1_555
O1_11 C5_11 1_555 1_555
O2_11 Rh5_3 1_555 1_555
O3_11 C3_11 1_555 1_555
O4_11 C5_11 1_555 1_555
C3_11 O2_11 1_555 1_555
C4_11 C3_11 1_555 1_555
H3_11 C4_11 1_555 1_555
H4_11 C4_11 1_555 1_555
H5_11 C4_11 1_555 1_555
C5_11 C6_11 1_555 1_555
C6_11 H6_11 1_555 1_555
H7_11 C6_11 1_555 1_555
H8_11 C6_11 1_555 1_555
Rh4_3 Rh4_6 1_555 1_555
Rh6_4 Rh5_3 1_555 1_555
Rh4_6 O9_11 1_555 1_555
O5_11 Rh6_4 1_555 1_555
O8_11 Rh4_3 1_555 1_555
O9_11 C31_11 1_555 1_555
O10_11 Rh6_4 1_555 1_555
O13_11 Rh4_3 1_555 1_555
O14_11 Rh4_6 1_555 1_555
O15_11 Rh5_3 1_555 1_555
O18_11 Rh4_6 1_555 1_555
O19_11 Rh4_3 1_555 1_555
O20_11 Rh5_3 1_555 1_555
O23_11 Rh4_6 1_555 1_555
O24_11 Rh4_3 1_555 1_555
C17_11 O10_11 1_555 1_555
C20_11 O13_11 1_555 1_555
C21_11 O14_11 1_555 1_555
C22_11 C17_11 1_555 1_555
C25_11 C20_11 1_555 1_555
C26_11 C21_11 1_555 1_555
H20_11 C22_11 1_555 1_555
H23_11 C25_11 1_555 1_555
H24_11 C26_11 1_555 1_555
H25_10 C22_11 1_555 1_555
H28_11 C25_11 1_555 1_555
H29_10 C26_11 1_555 1_555
H30_11 C22_11 1_555 1_555
H33_11 C25_11 1_555 1_555
H34_11 C26_11 1_555 1_555
C27_11 O5_11 1_555 1_555
C30_11 O8_11 1_555 1_555
C31_11 O24_11 1_555 1_555
C32_11 C27_11 1_555 1_555
C35_11 C30_11 1_555 1_555
C36_11 C31_11 1_555 1_555
H35_11 C32_11 1_555 1_555
H38_11 C35_11 1_555 1_555
H39_11 C36_11 1_555 1_555
H40_11 C32_11 1_555 1_555
H43_11 C35_11 1_555 1_555
H44_11 C36_11 1_555 1_555
H45_11 C32_11 1_555 1_555
H48_11 C35_11 1_555 1_555
H49_11 C36_11 1_555 1_555
O3_11 Rh6_4 1_555 1_555
O4_11 Rh6_4 1_555 1_555
O15_11 C17_11 1_555 1_555
O18_11 C20_11 1_555 1_555
O19_11 C21_11 1_555 1_555
O20_11 C27_11 1_555 1_555
O23_11 C30_11 1_555 1_555
Rh5_11 O1_12 1_555 1_555
O1_12 C5_12 1_555 1_555
O2_12 Rh5_11 1_555 1_555
O3_12 C3_12 1_555 1_555
O4_12 C5_12 1_555 1_555
C3_12 O2_12 1_555 1_555
C4_12 C3_12 1_555 1_555
H3_12 C4_12 1_555 1_555
H4_12 C4_12 1_555 1_555
H5_12 C4_12 1_555 1_555
C5_12 C6_12 1_555 1_555
C6_12 H6_12 1_555 1_555
H7_12 C6_12 1_555 1_555
H8_12 C6_12 1_555 1_555
Rh6_11 Rh5_10 1_555 1_555
Rh4_11 Rh6_9 1_555 1_555
Rh4_16 Rh5_11 1_555 1_555
Rh5_10 O7_12 1_555 1_555
Rh6_9 O9_12 1_555 1_555
O5_12 Rh4_16 1_555 1_555
O6_12 Rh6_11 1_555 1_555
O7_12 C29_12 1_555 1_555
O8_12 Rh4_11 1_555 1_555
O9_12 C31_12 1_555 1_555
O10_12 Rh4_16 1_555 1_555
O11_12 Rh6_11 1_555 1_555
O12_12 Rh5_10 1_555 1_555
O13_12 Rh4_11 1_555 1_555
O14_12 Rh6_9 1_555 1_555
O15_12 Rh5_11 1_555 1_555
O16_12 Rh5_10 1_555 1_555
O17_12 Rh6_11 1_555 1_555
O18_12 Rh6_9 1_555 1_555
O19_12 Rh4_11 1_555 1_555
O20_12 Rh5_11 1_555 1_555
O21_12 Rh5_10 1_555 1_555
O22_12 Rh6_11 1_555 1_555
O23_12 Rh6_9 1_555 1_555
O24_12 Rh4_11 1_555 1_555
C17_12 O10_12 1_555 1_555
C18_12 O11_12 1_555 1_555
C19_12 O12_12 1_555 1_555
C20_12 O13_12 1_555 1_555
C21_12 O14_12 1_555 1_555
C22_12 C17_12 1_555 1_555
C23_12 C18_12 1_555 1_555
C24_12 C19_12 1_555 1_555
C25_12 C20_12 1_555 1_555
C26_12 C21_12 1_555 1_555
H20_12 C22_12 1_555 1_555
H21_12 C23_12 1_555 1_555
H22_12 C24_12 1_555 1_555
H23_12 C25_12 1_555 1_555
H24_12 C26_12 1_555 1_555
H25_11 C22_12 1_555 1_555
H26_12 C23_12 1_555 1_555
H28_12 C25_12 1_555 1_555
H29_11 C26_12 1_555 1_555
H30_12 C22_12 1_555 1_555
H31_12 C23_12 1_555 1_555
H32_12 C24_12 1_555 1_555
H33_12 C25_12 1_555 1_555
H34_12 C26_12 1_555 1_555
C27_12 O5_12 1_555 1_555
C28_12 O6_12 1_555 1_555
C29_12 O22_12 1_555 1_555
C30_12 O8_12 1_555 1_555
C31_12 O24_12 1_555 1_555
C32_12 C27_12 1_555 1_555
C33_12 C28_12 1_555 1_555
C34_12 C29_12 1_555 1_555
C35_12 C30_12 1_555 1_555
C36_12 C31_12 1_555 1_555
H35_12 C32_12 1_555 1_555
H36_12 C33_12 1_555 1_555
H37_12 C34_12 1_555 1_555
H38_12 C35_12 1_555 1_555
H39_12 C36_12 1_555 1_555
H40_12 C32_12 1_555 1_555
H41_12 C33_12 1_555 1_555
H42_12 C34_12 1_555 1_555
H43_12 C35_12 1_555 1_555
H44_12 C36_12 1_555 1_555
H45_12 C32_12 1_555 1_555
H46_12 C33_12 1_555 1_555
H47_12 C34_12 1_555 1_555
H48_12 C35_12 1_555 1_555
H49_12 C36_12 1_555 1_555
O3_12 Rh4_16 1_555 1_555
O4_12 Rh4_16 1_555 1_555
O15_12 C17_12 1_555 1_555
O16_12 C18_12 1_555 1_555
O17_12 C19_12 1_555 1_555
O18_12 C20_12 1_555 1_555
O19_12 C21_12 1_555 1_555
O20_12 C27_12 1_555 1_555
O21_12 C28_12 1_555 1_555
O23_12 C30_12 1_555 1_555
Rh5_13 O1_13 1_555 1_555
O1_13 C5_13 1_555 1_555
O2_13 Rh5_13 1_555 1_555
O3_13 C3_13 1_555 1_555
O4_13 C5_13 1_555 1_555
C3_13 O2_13 1_555 1_555
C4_13 C3_13 1_555 1_555
H3_13 C4_13 1_555 1_555
H4_13 C4_13 1_555 1_555
H5_13 C4_13 1_555 1_555
C5_13 C6_13 1_555 1_555
C6_13 H6_13 1_555 1_555
H7_13 C6_13 1_555 1_555
H8_13 C6_13 1_555 1_555
Rh6_13 Rh6_16 1_555 1_555
Rh4_13 Rh5_8 1_555 1_555
Rh6_10 Rh5_13 1_555 1_555
Rh6_16 O7_13 1_555 1_555
Rh5_8 O9_13 1_555 1_555
O5_13 Rh6_10 1_555 1_555
O6_13 Rh6_13 1_555 1_555
O7_13 C29_13 1_555 1_555
O8_13 Rh4_13 1_555 1_555
O9_13 C31_13 1_555 1_555
O10_13 Rh6_10 1_555 1_555
O11_13 Rh6_13 1_555 1_555
O12_13 Rh6_16 1_555 1_555
O13_13 Rh4_13 1_555 1_555
O14_13 Rh5_8 1_555 1_555
O15_13 Rh5_13 1_555 1_555
O16_13 Rh6_16 1_555 1_555
O17_13 Rh6_13 1_555 1_555
O18_13 Rh5_8 1_555 1_555
O19_13 Rh4_13 1_555 1_555
O20_13 Rh5_13 1_555 1_555
O21_13 Rh6_16 1_555 1_555
O22_13 Rh6_13 1_555 1_555
O23_13 Rh5_8 1_555 1_555
O24_13 Rh4_13 1_555 1_555
C17_13 O10_13 1_555 1_555
C18_13 O11_13 1_555 1_555
C19_13 O12_13 1_555 1_555
C20_13 O13_13 1_555 1_555
C21_13 O14_13 1_555 1_555
C22_13 C17_13 1_555 1_555
C23_13 C18_13 1_555 1_555
C24_13 C19_13 1_555 1_555
C25_13 C20_13 1_555 1_555
C26_13 C21_13 1_555 1_555
H20_13 C22_13 1_555 1_555
H21_13 C23_13 1_555 1_555
H22_13 C24_13 1_555 1_555
H23_13 C25_13 1_555 1_555
H24_13 C26_13 1_555 1_555
H25_12 C22_13 1_555 1_555
H26_13 C23_13 1_555 1_555
H27_12 C24_13 1_555 1_555
H28_13 C25_13 1_555 1_555
H30_13 C22_13 1_555 1_555
H31_13 C23_13 1_555 1_555
H32_13 C24_13 1_555 1_555
H33_13 C25_13 1_555 1_555
H34_13 C26_13 1_555 1_555
C27_13 O5_13 1_555 1_555
C28_13 O6_13 1_555 1_555
C29_13 O22_13 1_555 1_555
C30_13 O8_13 1_555 1_555
C31_13 O24_13 1_555 1_555
C32_13 C27_13 1_555 1_555
C33_13 C28_13 1_555 1_555
C34_13 C29_13 1_555 1_555
C35_13 C30_13 1_555 1_555
C36_13 C31_13 1_555 1_555
H35_13 C32_13 1_555 1_555
H36_13 C33_13 1_555 1_555
H37_13 C34_13 1_555 1_555
H38_13 C35_13 1_555 1_555
H39_13 C36_13 1_555 1_555
H40_13 C32_13 1_555 1_555
H41_13 C33_13 1_555 1_555
H42_13 C34_13 1_555 1_555
H43_13 C35_13 1_555 1_555
H44_13 C36_13 1_555 1_555
H45_13 C32_13 1_555 1_555
H46_13 C33_13 1_555 1_555
H47_13 C34_13 1_555 1_555
H48_13 C35_13 1_555 1_555
H49_13 C36_13 1_555 1_555
O3_13 Rh6_10 1_555 1_555
O4_13 Rh6_10 1_555 1_555
O15_13 C17_13 1_555 1_555
O16_13 C18_13 1_555 1_555
O17_13 C19_13 1_555 1_555
O18_13 C20_13 1_555 1_555
O19_13 C21_13 1_555 1_555
O20_13 C27_13 1_555 1_555
O21_13 C28_13 1_555 1_555
O23_13 C30_13 1_555 1_555
Rh5_14 O1_14 1_555 1_555
O1_14 C5_14 1_555 1_555
O2_14 Rh5_14 1_555 1_555
O3_14 C3_14 1_555 1_555
O4_14 C5_14 1_555 1_555
C3_14 O2_14 1_555 1_555
C4_14 C3_14 1_555 1_555
H3_14 C4_14 1_555 1_555
H4_14 C4_14 1_555 1_555
H5_14 C4_14 1_555 1_555
C5_14 C6_14 1_555 1_555
C6_14 H6_14 1_555 1_555
H7_14 C6_14 1_555 1_555
H8_14 C6_14 1_555 1_555
Rh6_14 Rh4_9 1_555 1_555
Rh4_14 Rh4_10 1_555 1_555
Rh4_8 Rh5_14 1_555 1_555
Rh4_9 O7_14 1_555 1_555
Rh4_10 O9_14 1_555 1_555
O5_14 Rh4_8 1_555 1_555
O6_14 Rh6_14 1_555 1_555
O7_14 C29_14 1_555 1_555
O8_14 Rh4_14 1_555 1_555
O9_14 C31_14 1_555 1_555
O10_14 Rh4_8 1_555 1_555
O11_14 Rh6_14 1_555 1_555
O12_14 Rh4_9 1_555 1_555
O13_14 Rh4_14 1_555 1_555
O14_14 Rh4_10 1_555 1_555
O15_14 Rh5_14 1_555 1_555
O16_14 Rh4_9 1_555 1_555
O17_14 Rh6_14 1_555 1_555
O18_14 Rh4_10 1_555 1_555
O19_14 Rh4_14 1_555 1_555
O20_14 Rh5_14 1_555 1_555
O21_14 Rh4_9 1_555 1_555
O22_14 Rh6_14 1_555 1_555
O23_14 Rh4_10 1_555 1_555
O24_14 Rh4_14 1_555 1_555
C17_14 O10_14 1_555 1_555
C18_14 O11_14 1_555 1_555
C19_14 O12_14 1_555 1_555
C20_14 O13_14 1_555 1_555
C21_14 O14_14 1_555 1_555
C22_14 C17_14 1_555 1_555
C23_14 C18_14 1_555 1_555
C24_14 C19_14 1_555 1_555
C25_14 C20_14 1_555 1_555
C26_14 C21_14 1_555 1_555
H20_14 C22_14 1_555 1_555
H21_14 C23_14 1_555 1_555
H22_14 C24_14 1_555 1_555
H23_14 C25_14 1_555 1_555
H24_14 C26_14 1_555 1_555
H26_14 C23_14 1_555 1_555
H28_14 C25_14 1_555 1_555
H30_14 C22_14 1_555 1_555
H31_14 C23_14 1_555 1_555
H32_14 C24_14 1_555 1_555
H33_14 C25_14 1_555 1_555
H34_14 C26_14 1_555 1_555
C27_14 O5_14 1_555 1_555
C28_14 O6_14 1_555 1_555
C29_14 O22_14 1_555 1_555
C30_14 O8_14 1_555 1_555
C31_14 O24_14 1_555 1_555
C32_14 C27_14 1_555 1_555
C33_14 C28_14 1_555 1_555
C34_14 C29_14 1_555 1_555
C35_14 C30_14 1_555 1_555
C36_14 C31_14 1_555 1_555
H35_14 C32_14 1_555 1_555
H36_14 C33_14 1_555 1_555
H37_14 C34_14 1_555 1_555
H38_14 C35_14 1_555 1_555
H39_14 C36_14 1_555 1_555
H40_14 C32_14 1_555 1_555
H41_14 C33_14 1_555 1_555
H42_14 C34_14 1_555 1_555
H43_14 C35_14 1_555 1_555
H44_14 C36_14 1_555 1_555
H45_14 C32_14 1_555 1_555
H46_14 C33_14 1_555 1_555
H47_14 C34_14 1_555 1_555
H48_14 C35_14 1_555 1_555
H49_14 C36_14 1_555 1_555
O3_14 Rh4_8 1_555 1_555
O4_14 Rh4_8 1_555 1_555
O15_14 C17_14 1_555 1_555
O16_14 C18_14 1_555 1_555
O17_14 C19_14 1_555 1_555
O18_14 C20_14 1_555 1_555
O19_14 C21_14 1_555 1_555
O20_14 C27_14 1_555 1_555
O21_14 C28_14 1_555 1_555
O23_14 C30_14 1_555 1_555
Rh4_12 O1_15 1_555 1_555
O1_15 C5_15 1_555 1_555
O2_15 Rh4_12 1_555 1_555
O3_15 C3_15 1_555 1_555
O4_15 C5_15 1_555 1_555
C3_15 O2_15 1_555 1_555
C4_15 C3_15 1_555 1_555
H3_15 C4_15 1_555 1_555
H4_15 C4_15 1_555 1_555
H5_15 C4_15 1_555 1_555
C5_15 C6_15 1_555 1_555
C6_15 H6_15 1_555 1_555
H7_15 C6_15 1_555 1_555
H8_15 C6_15 1_555 1_555
Rh5_12 Rh5_9 1_555 1_555
Rh6_12 Rh6_8 1_555 1_555
Rh5_16 Rh4_12 1_555 1_555
Rh5_9 O7_15 1_555 1_555
Rh6_8 O9_15 1_555 1_555
O5_15 Rh5_16 1_555 1_555
O6_15 Rh5_12 1_555 1_555
O7_15 C29_15 1_555 1_555
O8_15 Rh6_12 1_555 1_555
O9_15 C31_15 1_555 1_555
O10_15 Rh5_16 1_555 1_555
O11_15 Rh5_12 1_555 1_555
O12_15 Rh5_9 1_555 1_555
O13_15 Rh6_12 1_555 1_555
O14_15 Rh6_8 1_555 1_555
O15_15 Rh4_12 1_555 1_555
O16_15 Rh5_9 1_555 1_555
O17_15 Rh5_12 1_555 1_555
O18_15 Rh6_8 1_555 1_555
O19_15 Rh6_12 1_555 1_555
O20_15 Rh4_12 1_555 1_555
O21_15 Rh5_9 1_555 1_555
O22_15 Rh5_12 1_555 1_555
O23_15 Rh6_8 1_555 1_555
O24_15 Rh6_12 1_555 1_555
C17_15 O10_15 1_555 1_555
C18_15 O11_15 1_555 1_555
C19_15 O12_15 1_555 1_555
C20_15 O13_15 1_555 1_555
C21_15 O14_15 1_555 1_555
C22_15 C17_15 1_555 1_555
C23_15 C18_15 1_555 1_555
C24_15 C19_15 1_555 1_555
C25_15 C20_15 1_555 1_555
C26_15 C21_15 1_555 1_555
H20_15 C22_15 1_555 1_555
H21_15 C23_15 1_555 1_555
H22_15 C24_15 1_555 1_555
H23_15 C25_15 1_555 1_555
H24_15 C26_15 1_555 1_555
H25_14 C22_15 1_555 1_555
H26_15 C23_15 1_555 1_555
H28_15 C25_15 1_555 1_555
H29_14 C26_15 1_555 1_555
H30_15 C22_15 1_555 1_555
H31_15 C23_15 1_555 1_555
H32_15 C24_15 1_555 1_555
H33_15 C25_15 1_555 1_555
H34_15 C26_15 1_555 1_555
C27_15 O5_15 1_555 1_555
C28_15 O6_15 1_555 1_555
C29_15 O22_15 1_555 1_555
C30_15 O8_15 1_555 1_555
C31_15 O24_15 1_555 1_555
C32_15 C27_15 1_555 1_555
C33_15 C28_15 1_555 1_555
C34_15 C29_15 1_555 1_555
C35_15 C30_15 1_555 1_555
C36_15 C31_15 1_555 1_555
H35_15 C32_15 1_555 1_555
H36_15 C33_15 1_555 1_555
H37_15 C34_15 1_555 1_555
H38_15 C35_15 1_555 1_555
H39_15 C36_15 1_555 1_555
H40_15 C32_15 1_555 1_555
H41_15 C33_15 1_555 1_555
H42_15 C34_15 1_555 1_555
H43_15 C35_15 1_555 1_555
H44_15 C36_15 1_555 1_555
H45_15 C32_15 1_555 1_555
H46_15 C33_15 1_555 1_555
H47_15 C34_15 1_555 1_555
H48_15 C35_15 1_555 1_555
H49_15 C36_15 1_555 1_555
O3_15 Rh5_16 1_555 1_555
O4_15 Rh5_16 1_555 1_555
O15_15 C17_15 1_555 1_555
O16_15 C18_15 1_555 1_555
O17_15 C19_15 1_555 1_555
O18_15 C20_15 1_555 1_555
O19_15 C21_15 1_555 1_555
O20_15 C27_15 1_555 1_555
O21_15 C28_15 1_555 1_555
O23_15 C30_15 1_555 1_555
Rh5_4 O1_16 1_555 1_555
O1_16 C5_16 1_555 1_555
O2_16 Rh5_4 1_555 1_555
O3_16 C3_16 1_555 1_555
O4_16 C5_16 1_555 1_555
C3_16 O2_16 1_555 1_555
C4_16 C3_16 1_555 1_555
H3_16 C4_16 1_555 1_555
H4_16 C4_16 1_555 1_555
H5_16 C4_16 1_555 1_555
C5_16 C6_16 1_555 1_555
C6_16 H6_16 1_555 1_555
H7_16 C6_16 1_555 1_555
H8_16 C6_16 1_555 1_555
Rh4_15 Rh5_4 1_555 1_555
O5_16 Rh4_15 1_555 1_555
O10_16 Rh4_15 1_555 1_555
O15_16 Rh5_4 1_555 1_555
O20_16 Rh5_4 1_555 1_555
C17_16 O10_16 1_555 1_555
C22_16 C17_16 1_555 1_555
H20_16 C22_16 1_555 1_555
H30_16 C22_16 1_555 1_555
C27_16 O5_16 1_555 1_555
C32_16 C27_16 1_555 1_555
H35_16 C32_16 1_555 1_555
H40_16 C32_16 1_555 1_555
H45_16 C32_16 1_555 1_555
O3_16 Rh4_15 1_555 1_555
O4_16 Rh4_15 1_555 1_555
O15_16 C17_16 1_555 1_555
O20_16 C27_16 1_555 1_555
Rh5_7 Rh5_15 1_555 1_555
Rh5_15 O9_16 1_555 1_555
O8_16 Rh5_7 1_555 1_555
O9_16 C31_16 1_555 1_555
O13_16 Rh5_7 1_555 1_555
O14_16 Rh5_15 1_555 1_555
O18_16 Rh5_15 1_555 1_555
O19_16 Rh5_7 1_555 1_555
O23_16 Rh5_15 1_555 1_555
O24_16 Rh5_7 1_555 1_555
C20_16 O13_16 1_555 1_555
C21_16 O14_16 1_555 1_555
C25_16 C20_16 1_555 1_555
C26_16 C21_16 1_555 1_555
H23_16 C25_16 1_555 1_555
H24_16 C26_16 1_555 1_555
H28_16 C25_16 1_555 1_555
H33_16 C25_16 1_555 1_555
H34_16 C26_16 1_555 1_555
C30_16 O8_16 1_555 1_555
C31_16 O24_16 1_555 1_555
C35_16 C30_16 1_555 1_555
C36_16 C31_16 1_555 1_555
H38_16 C35_16 1_555 1_555
H39_16 C36_16 1_555 1_555
H43_16 C35_16 1_555 1_555
H44_16 C36_16 1_555 1_555
H48_16 C35_16 1_555 1_555
H49_16 C36_16 1_555 1_555
O18_16 C20_16 1_555 1_555
O19_16 C21_16 1_555 1_555
O23_16 C30_16 1_555 1_555
Rh6_5 Rh6_15 1_555 1_555
Rh6_15 O7_16 1_555 1_555
O6_16 Rh6_5 1_555 1_555
O7_16 C29_16 1_555 1_555
O11_16 Rh6_5 1_555 1_555
O12_16 Rh6_15 1_555 1_555
O16_16 Rh6_15 1_555 1_555
O17_16 Rh6_5 1_555 1_555
O21_16 Rh6_15 1_555 1_555
O22_16 Rh6_5 1_555 1_555
C18_16 O11_16 1_555 1_555
C19_16 O12_16 1_555 1_555
C23_16 C18_16 1_555 1_555
C24_16 C19_16 1_555 1_555
H21_16 C23_16 1_555 1_555
H22_16 C24_16 1_555 1_555
H26_16 C23_16 1_555 1_555
H31_16 C23_16 1_555 1_555
H32_16 C24_16 1_555 1_555
C28_16 O6_16 1_555 1_555
C29_16 O22_16 1_555 1_555
C33_16 C28_16 1_555 1_555
C34_16 C29_16 1_555 1_555
H36_16 C33_16 1_555 1_555
H37_16 C34_16 1_555 1_555
H41_16 C33_16 1_555 1_555
H42_16 C34_16 1_555 1_555
H46_16 C33_16 1_555 1_555
H47_16 C34_16 1_555 1_555
O16_16 C18_16 1_555 1_555
O17_16 C19_16 1_555 1_555
O21_16 C28_16 1_555 1_555
B1_16 N2_16 1_555 1_555
H9_16 B1_16 1_555 1_555
N9_16 B1_16 1_555 1_555
N10_16 B1_16 1_555 1_555
B2_16 N11_16 1_555 1_555
H50_16 B2_16 1_555 1_555
N12_16 B2_16 1_555 1_555
N13_16 B2_16 1_555 1_555

#END
