
###############################################################################
#
# This file contains modified crystal structure data generated from the
# MOF subset of the Cambridge Structural Database (CSD) v543 
# hosted by the Cambridge Crystallographic Data Centre (CCDC).
#
# This work is licensed under the Creative Commons
# Attribution-NonCommercial-ShareAlike 4.0 International License.
# To view a copy of this license, visit
# http://creativecommons.org/licenses/by-nc-sa/4.0/
# or send a letter to
# Creative Commons, PO Box 1866, Mountain View, CA 94042, USA.
#
# CIF created using the CSD Python API on 29 September 2022
# The structure has been converted into the P1 space group
# The structure has a 3D framework
# The original CSD entry PEHNIB is in the tetragonal crystal system
# The original CSD entry PEHNIB is in a Sohncke space group
# The framework has been calculated to contain at least 10.0% void space
# The void calculation uses a probe of radius 1.32A, grid spacing 0.4
#
###############################################################################

data_PEHNIB
_chemical_formula_moiety         '(C80 H64 Cl8 Co5 N16 Te16)n'
_symmetry_cell_setting           triclinic
_symmetry_space_group_name_H-M   'P 1'
_symmetry_Int_Tables_number      1
_space_group_name_Hall           'P 1'
loop_
_symmetry_equiv_pos_site_id
_symmetry_equiv_pos_as_xyz
1 x,y,z
_cell_length_a                   9.5086(4)
_cell_length_b                   9.5086(4)
_cell_length_c                   41.3578(16)
_cell_angle_alpha                90
_cell_angle_beta                 90
_cell_angle_gamma                90
_cell_volume                     3739.3
loop_
_atom_site_label
_atom_site_type_symbol
_atom_site_fract_x
_atom_site_fract_y
_atom_site_fract_z
H4 H 0.0871 0.0409 0.3091
N3 N 0.0935(7) 0.0271(5) 0.21820(10)
C11 C 0.1392(6) 0.1631(6) 0.22461(9)
H9 H 0.2086 0.1786 0.24
C12 C 0.0810(8) 0.2760(5) 0.20796(9)
H10 H 0.1116 0.367 0.2122
N4 N 0.1558(7) 0.2910(8) 0.03482(10)
C16 C 0.0177(7) 0.2817(7) 0.02398(9)
C19 C 0.0727(7) 0.3038(11) 0.08977(13)
H15 H 0.0933 0.3138 0.1116
C20 C 0.1811(7) 0.2989(12) 0.0672(2)
H16 H 0.2737 0.3011 0.0745
Co3 Co 0.33808(17) 0.33808(17) 0.00000
Co3_2 Co 0.33808(17) 0.33808(17) 1.00000
Cl1 Cl 0.3284(3) 0.9871(3) 0.28265(6)
Co1 Co 0.16192(17) 0.83808(17) 0.25000
N5 N 0.3442(7) 0.7910(8) 0.21518(10)
N6 N 0.2090(8) 0.6558(7) 0.28482(10)
Cl2 Cl 0.0129(3) 0.6716(3) 0.21735(6)
N1 N 0.9729(5) 0.9065(7) 0.28180(10)
C1 C 0.8369(6) 0.8608(6) 0.27539(9)
H1 H 0.8214 0.7914 0.26
C2 C 0.7240(5) 0.9190(8) 0.29204(9)
H2 H 0.633 0.8884 0.2878
N2 N 0.7090(8) 0.8442(7) 0.46518(10)
C6 C 0.7183(7) 0.9823(7) 0.47602(9)
C9 C 0.6962(11) 0.9273(7) 0.41023(13)
H7 H 0.6862 0.9067 0.3884
C10 C 0.7011(12) 0.8189(7) 0.4328(2)
H8 H 0.6989 0.7263 0.4255
H12 H 0.9591 0.9129 0.1909
Co2 Co 0.66192(17) 0.66192(17) 0.50000
N1_2 N 0.0271(5) 0.0935(7) 0.78180(10)
C1_2 C 0.1631(6) 0.1392(6) 0.77539(9)
H1_2 H 0.1786 0.2086 0.76
C2_2 C 0.2760(5) 0.0810(8) 0.79204(9)
H2_2 H 0.367 0.1116 0.7878
N2_2 N 0.2910(8) 0.1558(7) 0.96518(10)
C6_2 C 0.2817(7) 0.0177(7) 0.97602(9)
C9_2 C 0.3038(11) 0.0727(7) 0.91023(13)
H7_2 H 0.3138 0.0933 0.8884
C10_2 C 0.2989(12) 0.1811(7) 0.9328(2)
H8_2 H 0.3011 0.2737 0.9255
H12_2 H 0.0409 0.0871 0.6909
Cl1_2 Cl 0.6716(3) 0.0129(3) 0.78265(6)
Co1_2 Co 0.83808(17) 0.16192(17) 0.75000
N5_2 N 0.6558(7) 0.2090(8) 0.71518(10)
N6_2 N 0.7910(8) 0.3442(7) 0.78482(10)
Cl2_2 Cl 0.9871(3) 0.3284(3) 0.71735(6)
H4_2 H 0.9129 0.9591 0.8091
N3_2 N 0.9065(7) 0.9729(5) 0.71820(10)
C11_2 C 0.8608(6) 0.8369(6) 0.72461(9)
H9_2 H 0.7914 0.8214 0.74
C12_2 C 0.9190(8) 0.7240(5) 0.70796(9)
H10_2 H 0.8884 0.633 0.7122
N4_2 N 0.8442(7) 0.7090(8) 0.53482(10)
C16_2 C 0.9823(7) 0.7183(7) 0.52398(9)
C19_2 C 0.9273(7) 0.6962(11) 0.58977(13)
H15_2 H 0.9067 0.6862 0.6116
C20_2 C 0.8189(7) 0.7011(12) 0.5672(2)
H16_2 H 0.7263 0.6989 0.5745
N1_3 N 0.4729(5) 0.5935(7) 0.46820(10)
C1_3 C 0.3369(6) 0.6392(6) 0.47461(9)
H1_3 H 0.3214 0.7086 0.49
C2_3 C 0.2240(5) 0.5810(8) 0.45796(9)
H2_3 H 0.133 0.6116 0.4622
C3 C 0.2471(5) 0.4772(6) 0.43490(9)
C4 C 0.3831(6) 0.4315(5) 0.42849(10)
H3 H 0.3986 0.3621 0.4131
C5 C 0.4960(5) 0.4897(8) 0.44514(11)
H4_3 H 0.5871 0.4591 0.4409
C6_3 C 0.2183(7) 0.5177(7) 0.27398(9)
H5 H 0.2254 0.4991 0.252
C7 C 0.2169(8) 0.4075(6) 0.29604(10)
H6 H 0.2228 0.3153 0.2886
C8 C 0.2064(9) 0.4338(6) 0.32963(19)
C9_3 C 0.1962(11) 0.5727(7) 0.33977(13)
H7_3 H 0.1862 0.5933 0.3616
C10_3 C 0.2011(12) 0.6811(7) 0.3172(2)
H8_3 H 0.1989 0.7737 0.3245
Cl1_3 Cl 0.8284(3) 0.5129(3) 0.46735(6)
Te1 Te 0.06402(7) 0.38950(8) 0.411092(15)
Te2 Te 0.19941(7) 0.26082(7) 0.361965(16)
N3_3 N 0.5935(7) 0.4729(5) 0.53180(10)
C11_3 C 0.6392(6) 0.3369(6) 0.52539(9)
H9_3 H 0.7086 0.3214 0.51
C12_3 C 0.5810(8) 0.2240(5) 0.54204(9)
H10_3 H 0.6116 0.133 0.5378
C13 C 0.4772(6) 0.2471(5) 0.56510(9)
C14 C 0.4315(5) 0.3831(6) 0.57151(10)
H11 H 0.3621 0.3986 0.5869
C15 C 0.4897(8) 0.4960(5) 0.55486(11)
H12_3 H 0.4591 0.5871 0.5591
C16_3 C 0.5177(7) 0.2183(7) 0.72602(9)
H13 H 0.4991 0.2254 0.748
C17 C 0.4075(6) 0.2169(8) 0.70396(10)
H14 H 0.3153 0.2228 0.7114
C18 C 0.4338(6) 0.2064(9) 0.67037(19)
C19_3 C 0.5727(7) 0.1962(11) 0.66023(13)
H15_3 H 0.5933 0.1862 0.6384
C20_3 C 0.6811(7) 0.2011(12) 0.6828(2)
H16_3 H 0.7737 0.1989 0.6755
Cl2_3 Cl 0.5129(3) 0.8284(3) 0.53265(6)
Te3 Te 0.38950(8) 0.06402(7) 0.588908(15)
Te4 Te 0.26082(7) 0.19941(7) 0.638035(16)
N3_4 N 0.4065(7) 0.5271(5) 0.03180(10)
C11_4 C 0.3608(6) 0.6631(6) 0.02539(9)
H9_4 H 0.2914 0.6786 0.01
C12_4 C 0.4190(8) 0.7760(5) 0.04204(9)
H10_4 H 0.3884 0.867 0.0378
C13_2 C 0.5228(6) 0.7529(5) 0.06510(9)
C14_2 C 0.5685(5) 0.6169(6) 0.07151(10)
H11_2 H 0.6379 0.6014 0.0869
C15_2 C 0.5103(8) 0.5040(5) 0.05486(11)
H12_4 H 0.5409 0.4129 0.0591
C16_4 C 0.4823(7) 0.7817(7) 0.22602(9)
H13_2 H 0.5009 0.7746 0.248
C17_2 C 0.5925(6) 0.7831(8) 0.20396(10)
H14_2 H 0.6847 0.7772 0.2114
C18_2 C 0.5662(6) 0.7936(9) 0.17037(19)
C19_4 C 0.4273(7) 0.8038(11) 0.16023(13)
H15_4 H 0.4067 0.8138 0.1384
C20_4 C 0.3189(7) 0.7989(12) 0.1828(2)
H16_4 H 0.2263 0.8011 0.1755
Cl2_4 Cl 0.4871(3) 0.1716(3) 0.03265(6)
Te3_2 Te 0.61050(8) 0.93598(7) 0.088908(15)
Te4_2 Te 0.73918(7) 0.80059(7) 0.138035(16)
N1_4 N 0.5271(5) 0.4065(7) 0.96820(10)
C1_4 C 0.6631(6) 0.3608(6) 0.97461(9)
H1_4 H 0.6786 0.2914 0.99
C2_4 C 0.7760(5) 0.4190(8) 0.95796(9)
H2_4 H 0.867 0.3884 0.9622
C3_2 C 0.7529(5) 0.5228(6) 0.93490(9)
C4_2 C 0.6169(6) 0.5685(5) 0.92849(10)
H3_2 H 0.6014 0.6379 0.9131
C5_2 C 0.5040(5) 0.5103(8) 0.94514(11)
H4_4 H 0.4129 0.5409 0.9409
C6_4 C 0.7817(7) 0.4823(7) 0.77398(9)
H5_2 H 0.7746 0.5009 0.752
C7_2 C 0.7831(8) 0.5925(6) 0.79604(10)
H6_2 H 0.7772 0.6847 0.7886
C8_2 C 0.7936(9) 0.5662(6) 0.82963(19)
C9_4 C 0.8038(11) 0.4273(7) 0.83977(13)
H7_4 H 0.8138 0.4067 0.8616
C10_4 C 0.7989(12) 0.3189(7) 0.8172(2)
H8_4 H 0.8011 0.2263 0.8245
Cl1_4 Cl 0.1716(3) 0.4871(3) 0.96735(6)
Te1_2 Te 0.93598(7) 0.61050(8) 0.911092(15)
Te2_2 Te 0.80059(7) 0.73918(7) 0.861965(16)
C3_3 C 0.7471(5) 0.0228(6) 0.31510(9)
C4_3 C 0.8831(6) 0.0685(5) 0.32151(10)
H3_3 H 0.8986 0.1379 0.3369
C5_3 C 0.9960(5) 0.0103(8) 0.30486(11)
H5_3 H 0.7254 0.0009 0.498
C7_3 C 0.7169(8) 0.0925(6) 0.45396(10)
H6_3 H 0.7228 0.1847 0.4614
C8_3 C 0.7064(9) 0.0662(6) 0.42037(19)
Te1_3 Te 0.56402(7) 0.11050(8) 0.338908(15)
Te2_3 Te 0.69941(7) 0.23918(7) 0.388035(16)
C13_3 C 0.9772(6) 0.2529(5) 0.18490(9)
C14_3 C 0.9315(5) 0.1169(6) 0.17849(10)
H11_3 H 0.8621 0.1014 0.1631
C15_3 C 0.9897(8) 0.0040(5) 0.19514(11)
H13_3 H 0.9991 0.2746 0.002
C17_3 C 0.9075(6) 0.2831(8) 0.04604(10)
H14_3 H 0.8153 0.2772 0.0386
C18_3 C 0.9338(6) 0.2936(9) 0.07963(19)
Te3_3 Te 0.88950(8) 0.43598(7) 0.161092(15)
Te4_3 Te 0.76082(7) 0.30059(7) 0.111965(16)
C3_4 C 0.2529(5) 0.9772(6) 0.81510(9)
C4_4 C 0.1169(6) 0.9315(5) 0.82151(10)
H3_4 H 0.1014 0.8621 0.8369
C5_4 C 0.0040(5) 0.9897(8) 0.80486(11)
H5_4 H 0.2746 0.9991 0.998
C7_4 C 0.2831(8) 0.9075(6) 0.95396(10)
H6_4 H 0.2772 0.8153 0.9614
C8_4 C 0.2936(9) 0.9338(6) 0.92037(19)
Te1_4 Te 0.43598(7) 0.88950(8) 0.838908(15)
Te2_4 Te 0.30059(7) 0.76082(7) 0.888035(16)
C13_4 C 0.0228(6) 0.7471(5) 0.68490(9)
C14_4 C 0.0685(5) 0.8831(6) 0.67849(10)
H11_4 H 0.1379 0.8986 0.6631
C15_4 C 0.0103(8) 0.9960(5) 0.69514(11)
H13_4 H 0.0009 0.7254 0.502
C17_4 C 0.0925(6) 0.7169(8) 0.54604(10)
H14_4 H 0.1847 0.7228 0.5386
C18_4 C 0.0662(6) 0.7064(9) 0.57963(19)
Te3_4 Te 0.11050(8) 0.56402(7) 0.661092(15)
Te4_4 Te 0.23918(7) 0.69941(7) 0.611965(16)
loop_
_geom_bond_atom_site_label_1
_geom_bond_atom_site_label_2
_geom_bond_site_symmetry_1
_geom_bond_site_symmetry_2
C11 N3 1_555 1_555
H9 C11 1_555 1_555
C12 C11 1_555 1_555
H10 C12 1_555 1_555
N4 C16 1_555 1_555
H15 C19 1_555 1_555
C20 N4 1_555 1_555
H16 C20 1_555 1_555
Co3 N4 1_555 1_555
C19 C20 1_555 1_555
Cl1 Co1 1_555 1_555
N5 Co1 1_555 1_555
N6 Co1 1_555 1_555
Cl2 Co1 1_555 1_555
N1 C1 1_555 1_555
C1 H1 1_555 1_555
C2 C1 1_555 1_555
H2 C2 1_555 1_555
N2 C6 1_555 1_555
H7 C9 1_555 1_555
C10 N2 1_555 1_555
H8 C10 1_555 1_555
Co2 N2 1_555 1_555
C9 C10 1_555 1_555
N1_2 C1_2 1_555 1_555
C1_2 H1_2 1_555 1_555
C2_2 C1_2 1_555 1_555
H2_2 C2_2 1_555 1_555
N2_2 C6_2 1_555 1_555
H7_2 C9_2 1_555 1_555
C10_2 N2_2 1_555 1_555
H8_2 C10_2 1_555 1_555
Co3_2 N2_2 1_555 1_555
C9_2 C10_2 1_555 1_555
Cl1_2 Co1_2 1_555 1_555
N5_2 Co1_2 1_555 1_555
N6_2 Co1_2 1_555 1_555
Cl2_2 Co1_2 1_555 1_555
C11_2 N3_2 1_555 1_555
H9_2 C11_2 1_555 1_555
C12_2 C11_2 1_555 1_555
H10_2 C12_2 1_555 1_555
N4_2 C16_2 1_555 1_555
H15_2 C19_2 1_555 1_555
C20_2 N4_2 1_555 1_555
H16_2 C20_2 1_555 1_555
Co2 N4_2 1_555 1_555
C19_2 C20_2 1_555 1_555
N1_3 C1_3 1_555 1_555
C1_3 H1_3 1_555 1_555
C2_3 C1_3 1_555 1_555
H2_3 C2_3 1_555 1_555
C3 C2_3 1_555 1_555
C4 C3 1_555 1_555
H3 C4 1_555 1_555
C5 N1_3 1_555 1_555
H4_3 C5 1_555 1_555
N6 C6_3 1_555 1_555
C6_3 H5 1_555 1_555
C7 C6_3 1_555 1_555
H6 C7 1_555 1_555
C8 C7 1_555 1_555
C9_3 C8 1_555 1_555
H7_3 C9_3 1_555 1_555
C10_3 N6 1_555 1_555
H8_3 C10_3 1_555 1_555
Cl1_3 Co2 1_555 1_555
Co2 N1_3 1_555 1_555
Te1 C3 1_555 1_555
Te2 C8 1_555 1_555
N3_3 Co2 1_555 1_555
C11_3 N3_3 1_555 1_555
H9_3 C11_3 1_555 1_555
C12_3 C11_3 1_555 1_555
H10_3 C12_3 1_555 1_555
C13 C12_3 1_555 1_555
C14 C13 1_555 1_555
H11 C14 1_555 1_555
C15 N3_3 1_555 1_555
H12_3 C15 1_555 1_555
N5_2 C16_3 1_555 1_555
C16_3 H13 1_555 1_555
C17 C16_3 1_555 1_555
H14 C17 1_555 1_555
C18 C17 1_555 1_555
C19_3 C18 1_555 1_555
H15_3 C19_3 1_555 1_555
C20_3 N5_2 1_555 1_555
H16_3 C20_3 1_555 1_555
Cl2_3 Co2 1_555 1_555
Te3 C13 1_555 1_555
Te4 C18 1_555 1_555
C4 C5 1_555 1_555
C9_3 C10_3 1_555 1_555
Te1 Te2 1_555 1_555
C14 C15 1_555 1_555
C19_3 C20_3 1_555 1_555
Te3 Te4 1_555 1_555
N3_4 Co3 1_555 1_555
C11_4 N3_4 1_555 1_555
H9_4 C11_4 1_555 1_555
C12_4 C11_4 1_555 1_555
H10_4 C12_4 1_555 1_555
C13_2 C12_4 1_555 1_555
C14_2 C13_2 1_555 1_555
H11_2 C14_2 1_555 1_555
C15_2 N3_4 1_555 1_555
H12_4 C15_2 1_555 1_555
N5 C16_4 1_555 1_555
C16_4 H13_2 1_555 1_555
C17_2 C16_4 1_555 1_555
H14_2 C17_2 1_555 1_555
C18_2 C17_2 1_555 1_555
C19_4 C18_2 1_555 1_555
H15_4 C19_4 1_555 1_555
C20_4 N5 1_555 1_555
H16_4 C20_4 1_555 1_555
Cl2_4 Co3 1_555 1_555
Te3_2 C13_2 1_555 1_555
Te4_2 C18_2 1_555 1_555
C14_2 C15_2 1_555 1_555
C19_4 C20_4 1_555 1_555
Te3_2 Te4_2 1_555 1_555
N1_4 C1_4 1_555 1_555
C1_4 H1_4 1_555 1_555
C2_4 C1_4 1_555 1_555
H2_4 C2_4 1_555 1_555
C3_2 C2_4 1_555 1_555
C4_2 C3_2 1_555 1_555
H3_2 C4_2 1_555 1_555
C5_2 N1_4 1_555 1_555
H4_4 C5_2 1_555 1_555
N6_2 C6_4 1_555 1_555
C6_4 H5_2 1_555 1_555
C7_2 C6_4 1_555 1_555
H6_2 C7_2 1_555 1_555
C8_2 C7_2 1_555 1_555
C9_4 C8_2 1_555 1_555
H7_4 C9_4 1_555 1_555
C10_4 N6_2 1_555 1_555
H8_4 C10_4 1_555 1_555
Cl1_4 Co3_2 1_555 1_555
Co3_2 N1_4 1_555 1_555
Te1_2 C3_2 1_555 1_555
Te2_2 C8_2 1_555 1_555
C4_2 C5_2 1_555 1_555
C9_4 C10_4 1_555 1_555
Te1_2 Te2_2 1_555 1_555
C4_3 C3_3 1_555 1_555
H3_3 C4_3 1_555 1_555
H6_3 C7_3 1_555 1_555
C8_3 C7_3 1_555 1_555
Te1_3 C3_3 1_555 1_555
Te2_3 C8_3 1_555 1_555
C14_3 C13_3 1_555 1_555
H11_3 C14_3 1_555 1_555
H14_3 C17_3 1_555 1_555
C18_3 C17_3 1_555 1_555
Te3_3 C13_3 1_555 1_555
Te4_3 C18_3 1_555 1_555
C4_3 C5_3 1_555 1_555
Te1_3 Te2_3 1_555 1_555
C14_3 C15_3 1_555 1_555
Te3_3 Te4_3 1_555 1_555
C4_4 C3_4 1_555 1_555
H3_4 C4_4 1_555 1_555
H6_4 C7_4 1_555 1_555
C8_4 C7_4 1_555 1_555
Te1_4 C3_4 1_555 1_555
Te2_4 C8_4 1_555 1_555
C14_4 C13_4 1_555 1_555
H11_4 C14_4 1_555 1_555
H14_4 C17_4 1_555 1_555
C18_4 C17_4 1_555 1_555
Te3_4 C13_4 1_555 1_555
Te4_4 C18_4 1_555 1_555
C4_4 C5_4 1_555 1_555
Te1_4 Te2_4 1_555 1_555
C14_4 C15_4 1_555 1_555
Te3_4 Te4_4 1_555 1_555

#END
