
###############################################################################
#
# This file contains modified crystal structure data generated from the
# MOF subset of the Cambridge Structural Database (CSD) v543 
# hosted by the Cambridge Crystallographic Data Centre (CCDC).
#
# This work is licensed under the Creative Commons
# Attribution-NonCommercial-ShareAlike 4.0 International License.
# To view a copy of this license, visit
# http://creativecommons.org/licenses/by-nc-sa/4.0/
# or send a letter to
# Creative Commons, PO Box 1866, Mountain View, CA 94042, USA.
#
# CIF created using the CSD Python API on 29 September 2022
# The structure has been converted into the P1 space group
# The structure has a 3D framework
# The original CSD entry PEHQID is in the orthorhombic crystal system
# The original CSD entry PEHQID is in a Sohncke space group
# The framework has been calculated to contain at least 10.0% void space
# The void calculation uses a probe of radius 1.32A, grid spacing 0.4
# The framework is charged, counterions have been retained in the structure
# H atom positions have been added when not included in the experimental data
# Generated hydrogen atom positions removed from atoms on special positions
#
###############################################################################

data_PEHQID
_chemical_formula_moiety         '(C96 H152 Cd17 Cl9 N8 O56 9-)n'
_symmetry_cell_setting           triclinic
_symmetry_space_group_name_H-M   'P 1'
_symmetry_Int_Tables_number      1
_space_group_name_Hall           'P 1'
loop_
_symmetry_equiv_pos_site_id
_symmetry_equiv_pos_as_xyz
1 x,y,z
_cell_length_a                   9.5774(19)
_cell_length_b                   16.913(3)
_cell_length_c                   25.396(5)
_cell_angle_alpha                90
_cell_angle_beta                 90
_cell_angle_gamma                90
_cell_volume                     4113.71
loop_
_atom_site_label
_atom_site_type_symbol
_atom_site_fract_x
_atom_site_fract_y
_atom_site_fract_z
Cl1 Cl 0.1958(2) -0.0000 0.5000
Cl1_2 Cl 0.1958(2) 1.0000 0.5000
Cl1_3 Cl 0.8042(2) 0.0000 0.0000
Cl1_4 Cl 0.8042(2) 0.0000 1.0000
Cl1_5 Cl 0.8042(2) 1.0000 0.0000
Cl1_6 Cl 0.8042(2) 1.0000 1.0000
Cl1_7 Cl 0.6958(2) 0.5000 0.5000
Cl1_8 Cl 0.3042(2) 0.5000 0.0000
Cl1_9 Cl 0.3042(2) 0.5000 1.0000
C11 C 0.1270(8) 0.0532(4) 0.7184(2)
H12 H 0.1437 0.0037 0.7001
H13 H 0.2034 0.0888 0.7103
H15 H 0.0632 0.2017 0.7035
N2 N 0.0176(9) 0.0911(4) 0.8016(3)
C14 C 0.1219(14) 0.0378(7) 0.7792(4)
H17 H 0.2126 0.0479 0.7948
C15 C 0.0118(17) 0.1727(5) 0.7796(3)
H18 H 0.0987 0.1998 0.7873
O16 O 0.1812(19) 0.1078(9) 0.5620(5)
O17 O 0.136(2) 0.1966(9) 0.6091(5)
Cd7 Cd 0.02116(5) 0.08565(2) 0.892109(14)
H16 H 0.0966 0.9833 0.7862
O19 O 0.1812(19) 0.8922(9) 0.4380(5)
O20 O 0.136(2) 0.8034(9) 0.3909(5)
Cd1 Cd 0.97884(5) 0.08565(2) 0.607891(14)
Cd2 Cd 0.76780(15) -0.0000 0.5000
N1 N 0.9824(9) 0.0911(4) 0.6984(3)
C1 C 0.7483(14) 0.1665(7) 0.5778(5)
C2 C 0.6017(10) 0.2084(4) 0.5590(2)
H1 H 0.5999 0.2095 0.5204
C3 C 0.6049(9) 0.2969(5) 0.5797(3)
H2 H 0.6103 0.2969 0.6178
H3 H 0.6875 0.3233 0.5662
C4 C 0.4796(8) 0.3404(4) 0.5629(2)
H4 H 0.4795 0.3451 0.5244
C5 C 0.3465(6) 0.2907(3) 0.5811(2)
H5 H 0.3468 0.2889 0.6193
H6 H 0.2639 0.3198 0.5706
C6 C 0.3317(8) 0.2096(4) 0.5620(2)
H7 H 0.3295 0.2126 0.5234
C7 C 0.4759(8) 0.1656(3) 0.5775(2)
H8 H 0.4805 0.1602 0.6155
H9 H 0.4757 0.1129 0.5625
C8 C 0.4872(6) 0.4210(3) 0.5867(2)
C9 C 0.2139(7) 0.1698(4) 0.5769(3)
C10 C 0.8781(14) 0.0378(7) 0.7208(4)
H11 H 0.7874 0.0479 0.7052
C12 C 0.9882(17) 0.1727(5) 0.7204(3)
H14 H 0.9013 0.1998 0.7127
O1 O 0.7925(8) 0.1203(4) 0.5383(3)
O2 O 0.7729(11) 0.1607(6) 0.6230(4)
O3 O 0.4132(14) 0.4775(8) 0.5668(4)
O4 O 0.5679(12) 0.4268(6) 0.6192(3)
O7 O 0.573(2) 0.0466(10) 0.4572(8)
C13 C 0.8730(8) 0.0532(4) 0.7816(2)
H19 H 0.9368 0.2017 0.7965
H20 H 0.8563 0.0037 0.7999
H21 H 0.7966 0.0888 0.7897
O18 O 0.9132(14) 0.0225(8) 0.4332(4)
Cd4 Cd 0.47884(5) 0.58565(2) 0.607891(14)
Cd5 Cd 0.26780(15) 0.5000 0.5000
Cd2_2 Cd 0.76780(15) 1.0000 0.5000
H10 H 0.9034 0.9833 0.7138
C16 C 0.7483(14) 0.8335(7) 0.4222(5)
C17 C 0.6017(10) 0.7916(4) 0.4410(2)
H22 H 0.5999 0.7905 0.4796
C18 C 0.6049(9) 0.7031(5) 0.4203(3)
H23 H 0.6103 0.7031 0.3822
H24 H 0.6875 0.6767 0.4338
C19 C 0.4796(8) 0.6596(4) 0.4371(2)
H25 H 0.4795 0.6549 0.4756
C20 C 0.3465(6) 0.7093(3) 0.4189(2)
H26 H 0.3468 0.7111 0.3807
H27 H 0.2639 0.6802 0.4294
C21 C 0.3317(8) 0.7904(4) 0.4380(2)
H28 H 0.3295 0.7874 0.4766
C22 C 0.4759(8) 0.8344(3) 0.4225(2)
H29 H 0.4805 0.8398 0.3845
H30 H 0.4757 0.8871 0.4375
C23 C 0.4872(6) 0.5790(3) 0.4133(2)
C24 C 0.2139(7) 0.8302(4) 0.4231(3)
O8 O 0.7925(8) 0.8797(4) 0.4617(3)
O9 O 0.7729(11) 0.8393(6) 0.3770(4)
O10 O 0.4132(14) 0.5225(8) 0.4332(4)
O11 O 0.5679(12) 0.5732(6) 0.3808(3)
O14 O 0.573(2) 0.9534(10) 0.5428(8)
Cd3 Cd 0.97884(5) 0.91435(2) 0.392109(14)
O15 O 0.9132(14) 0.9775(8) 0.5668(4)
Cd8 Cd 0.47884(5) 0.41435(2) 0.392109(14)
N3 N 0.9824(9) 0.9089(4) 0.3016(3)
Cd6 Cd 0.02116(5) 0.91435(2) 0.107891(14)
Cd2_3 Cd 0.23220(15) 0.0000 0.0000
H10_2 H 0.0966 0.0167 0.2138
O14_2 O 0.427(2) 0.0466(10) 0.0428(8)
O15_2 O 0.0868(14) 0.0225(8) 0.0668(4)
Cd9 Cd 0.73220(15) 0.5000 0.0000
Cd2_4 Cd 0.23220(15) 0.0000 1.0000
C16_2 C 0.2517(14) 0.1665(7) 0.9222(5)
C17_2 C 0.3983(10) 0.2084(4) 0.9410(2)
H22_2 H 0.4001 0.2095 0.9796
C18_2 C 0.3951(9) 0.2969(5) 0.9203(3)
H23_2 H 0.3897 0.2969 0.8822
H24_2 H 0.3125 0.3233 0.9338
C19_2 C 0.5204(8) 0.3404(4) 0.9371(2)
H25_2 H 0.5205 0.3451 0.9756
C20_2 C 0.6535(6) 0.2907(3) 0.9189(2)
H26_2 H 0.6532 0.2889 0.8807
H27_2 H 0.7361 0.3198 0.9294
C21_2 C 0.6683(8) 0.2096(4) 0.9380(2)
H28_2 H 0.6705 0.2126 0.9766
C22_2 C 0.5241(8) 0.1656(3) 0.9225(2)
H29_2 H 0.5195 0.1602 0.8845
H30_2 H 0.5243 0.1129 0.9375
C23_2 C 0.5128(6) 0.4210(3) 0.9133(2)
C24_2 C 0.7861(7) 0.1698(4) 0.9231(3)
O8_2 O 0.2075(8) 0.1203(4) 0.9617(3)
O9_2 O 0.2271(11) 0.1607(6) 0.8770(4)
O10_2 O 0.5868(14) 0.4775(8) 0.9332(4)
O11_2 O 0.4321(12) 0.4268(6) 0.8808(3)
O12 O 0.8188(19) 0.1078(9) 0.9380(5)
O13 O 0.864(2) 0.1966(9) 0.8909(5)
Cd8_2 Cd 0.52116(5) 0.58565(2) 0.892109(14)
Cd9_2 Cd 0.73220(15) 0.5000 1.0000
Cd2_5 Cd 0.23220(15) 1.0000 0.0000
N1_2 N 0.0176(9) 0.9089(4) 0.1984(3)
C1_2 C 0.2517(14) 0.8335(7) 0.0778(5)
C2_2 C 0.3983(10) 0.7916(4) 0.0590(2)
H1_2 H 0.4001 0.7905 0.0204
C3_2 C 0.3951(9) 0.7031(5) 0.0797(3)
H2_2 H 0.3897 0.7031 0.1178
H3_2 H 0.3125 0.6767 0.0662
C4_2 C 0.5204(8) 0.6596(4) 0.0629(2)
H4_2 H 0.5205 0.6549 0.0244
C5_2 C 0.6535(6) 0.7093(3) 0.0811(2)
H5_2 H 0.6532 0.7111 0.1193
H6_2 H 0.7361 0.6802 0.0706
C6_2 C 0.6683(8) 0.7904(4) 0.0620(2)
H7_2 H 0.6705 0.7874 0.0234
C7_2 C 0.5241(8) 0.8344(3) 0.0775(2)
H8_2 H 0.5195 0.8398 0.1155
H9_2 H 0.5243 0.8871 0.0625
C8_2 C 0.5128(6) 0.5790(3) 0.0867(2)
C9_2 C 0.7861(7) 0.8302(4) 0.0769(3)
C10_2 C 0.1219(14) 0.9622(7) 0.2208(4)
H11_2 H 0.2126 0.9521 0.2052
C12_2 C 0.0118(17) 0.8273(5) 0.2204(3)
H14_2 H 0.0987 0.8002 0.2127
O1_2 O 0.2075(8) 0.8797(4) 0.0383(3)
O2_2 O 0.2271(11) 0.8393(6) 0.1230(4)
O3_2 O 0.5868(14) 0.5225(8) 0.0668(4)
O4_2 O 0.4321(12) 0.5732(6) 0.1192(3)
O5 O 0.8188(19) 0.8922(9) 0.0620(5)
O6 O 0.864(2) 0.8034(9) 0.1091(5)
C13_2 C 0.1270(8) 0.9468(4) 0.2816(2)
H19_2 H 0.0632 0.7983 0.2965
H20_2 H 0.1437 0.9963 0.2999
H21_2 H 0.2034 0.9112 0.2897
Cd4_2 Cd 0.52116(5) 0.41435(2) 0.107891(14)
Cd2_6 Cd 0.23220(15) 1.0000 1.0000
O7_2 O 0.427(2) 0.9534(10) 0.9572(8)
O18_2 O 0.0868(14) 0.9775(8) 0.9332(4)
H16_2 H 0.9034 0.0167 0.2862
C11_2 C 0.8730(8) 0.9468(4) 0.2184(2)
H12_2 H 0.8563 0.9963 0.2001
H13_2 H 0.7966 0.9112 0.2103
H15_2 H 0.9368 0.7983 0.2035
C14_2 C 0.8781(14) 0.9622(7) 0.2792(4)
H17_2 H 0.7874 0.9521 0.2948
C15_2 C 0.9882(17) 0.8273(5) 0.2796(3)
H18_2 H 0.9013 0.8002 0.2873
N1_3 N 0.4824(9) 0.5911(4) 0.6984(3)
C1_3 C 0.2483(14) 0.6665(7) 0.5778(5)
C2_3 C 0.1017(10) 0.7084(4) 0.5590(2)
H1_3 H 0.0999 0.7095 0.5204
C3_3 C 0.1049(9) 0.7969(5) 0.5797(3)
H2_3 H 0.1103 0.7969 0.6178
H3_3 H 0.1875 0.8233 0.5662
C10_3 C 0.3781(14) 0.5378(7) 0.7208(4)
H10_3 H 0.4034 0.4833 0.7138
H11_3 H 0.2874 0.5479 0.7052
C11_3 C 0.6270(8) 0.5532(4) 0.7184(2)
H12_3 H 0.6437 0.5037 0.7001
H13_3 H 0.7034 0.5888 0.7103
C12_3 C 0.4882(17) 0.6727(5) 0.7204(3)
H14_3 H 0.4013 0.6998 0.7127
H15_3 H 0.5632 0.7017 0.7035
O1_3 O 0.2925(8) 0.6203(4) 0.5383(3)
O2_3 O 0.2729(11) 0.6607(6) 0.6230(4)
O4_3 O 0.0679(12) 0.9268(6) 0.6192(3)
O7_3 O 0.073(2) 0.5466(10) 0.4572(8)
C13_3 C 0.3730(8) 0.5532(4) 0.7816(2)
N2_2 N 0.5176(9) 0.5911(4) 0.8016(3)
C14_3 C 0.6219(14) 0.5378(7) 0.7792(4)
H16_3 H 0.5966 0.4833 0.7862
H17_3 H 0.7126 0.5479 0.7948
C15_3 C 0.5118(17) 0.6727(5) 0.7796(3)
H18_3 H 0.5987 0.6998 0.7873
H19_3 H 0.4368 0.7017 0.7965
H20_3 H 0.3563 0.5037 0.7999
H21_3 H 0.2966 0.5888 0.7897
C16_3 C 0.2483(14) 0.3335(7) 0.4222(5)
C17_3 C 0.1017(10) 0.2916(4) 0.4410(2)
H22_3 H 0.0999 0.2905 0.4796
C18_3 C 0.1049(9) 0.2031(5) 0.4203(3)
H23_3 H 0.1103 0.2031 0.3822
H24_3 H 0.1875 0.1767 0.4338
O8_3 O 0.2925(8) 0.3797(4) 0.4617(3)
O9_3 O 0.2729(11) 0.3393(6) 0.3770(4)
O11_3 O 0.0679(12) 0.0732(6) 0.3808(3)
O14_3 O 0.073(2) 0.4534(10) 0.5428(8)
O16_2 O 0.6812(19) 0.6078(9) 0.5620(5)
O17_2 O 0.636(2) 0.6966(9) 0.6091(5)
N3_2 N 0.4824(9) 0.4089(4) 0.3016(3)
O19_2 O 0.6812(19) 0.3922(9) 0.4380(5)
O20_2 O 0.636(2) 0.3034(9) 0.3909(5)
C4_3 C 0.9796(8) 0.8404(4) 0.5629(2)
H4_3 H 0.9795 0.8451 0.5244
C5_3 C 0.8465(6) 0.7907(3) 0.5811(2)
H5_3 H 0.8468 0.7889 0.6193
H6_3 H 0.7639 0.8198 0.5706
C6_3 C 0.8317(8) 0.7096(4) 0.5620(2)
H7_3 H 0.8295 0.7126 0.5234
C7_3 C 0.9759(8) 0.6656(3) 0.5775(2)
H8_3 H 0.9805 0.6602 0.6155
H9_3 H 0.9757 0.6129 0.5625
C8_3 C 0.9872(6) 0.9210(3) 0.5867(2)
C9_3 C 0.7139(7) 0.6698(4) 0.5769(3)
C19_3 C 0.9796(8) 0.1596(4) 0.4371(2)
H25_3 H 0.9795 0.1549 0.4756
C20_3 C 0.8465(6) 0.2093(3) 0.4189(2)
H26_3 H 0.8468 0.2111 0.3807
H27_3 H 0.7639 0.1802 0.4294
C21_3 C 0.8317(8) 0.2904(4) 0.4380(2)
H28_3 H 0.8295 0.2874 0.4766
C22_3 C 0.9759(8) 0.3344(3) 0.4225(2)
H29_3 H 0.9805 0.3398 0.3845
H30_3 H 0.9757 0.3871 0.4375
C23_3 C 0.9872(6) 0.0790(3) 0.4133(2)
C24_3 C 0.7139(7) 0.3302(4) 0.4231(3)
H33 H 0.993221 0.489558 0.536181
C4_4 C 0.0204(8) 0.1596(4) 0.0629(2)
H4_4 H 0.0205 0.1549 0.0244
C5_4 C 0.1535(6) 0.2093(3) 0.0811(2)
H5_4 H 0.1532 0.2111 0.1193
H6_4 H 0.2361 0.1802 0.0706
C6_4 C 0.1683(8) 0.2904(4) 0.0620(2)
H7_4 H 0.1705 0.2874 0.0234
C7_4 C 0.0241(8) 0.3344(3) 0.0775(2)
H8_4 H 0.0195 0.3398 0.1155
H9_4 H 0.0243 0.3871 0.0625
C8_4 C 0.0128(6) 0.0790(3) 0.0867(2)
C9_4 C 0.2861(7) 0.3302(4) 0.0769(3)
O5_2 O 0.3188(19) 0.3922(9) 0.0620(5)
O6_2 O 0.364(2) 0.3034(9) 0.1091(5)
H33_2 H 0.0067793 0.510442 0.0361806
C19_4 C 0.0204(8) 0.8404(4) 0.9371(2)
H25_4 H 0.0205 0.8451 0.9756
C20_4 C 0.1535(6) 0.7907(3) 0.9189(2)
H26_4 H 0.1532 0.7889 0.8807
H27_4 H 0.2361 0.8198 0.9294
C21_4 C 0.1683(8) 0.7096(4) 0.9380(2)
H28_4 H 0.1705 0.7126 0.9766
C22_4 C 0.0241(8) 0.6656(3) 0.9225(2)
H29_4 H 0.0195 0.6602 0.8845
H30_4 H 0.0243 0.6129 0.9375
C23_4 C 0.0128(6) 0.9210(3) 0.9133(2)
C24_4 C 0.2861(7) 0.6698(4) 0.9231(3)
O12_2 O 0.3188(19) 0.6078(9) 0.9380(5)
O13_2 O 0.364(2) 0.6966(9) 0.8909(5)
N1_4 N 0.5176(9) 0.4089(4) 0.1984(3)
C1_4 C 0.7517(14) 0.3335(7) 0.0778(5)
C2_4 C 0.8983(10) 0.2916(4) 0.0590(2)
H1_4 H 0.9001 0.2905 0.0204
C3_4 C 0.8951(9) 0.2031(5) 0.0797(3)
H2_4 H 0.8897 0.2031 0.1178
H3_4 H 0.8125 0.1767 0.0662
C10_4 C 0.6219(14) 0.4622(7) 0.2208(4)
H10_4 H 0.5966 0.5167 0.2138
H11_4 H 0.7126 0.4521 0.2052
C11_4 C 0.3730(8) 0.4468(4) 0.2184(2)
H12_4 H 0.3563 0.4963 0.2001
H13_4 H 0.2966 0.4112 0.2103
C12_4 C 0.5118(17) 0.3273(5) 0.2204(3)
H14_4 H 0.5987 0.3002 0.2127
H15_4 H 0.4368 0.2983 0.2035
O1_4 O 0.7075(8) 0.3797(4) 0.0383(3)
O2_4 O 0.7271(11) 0.3393(6) 0.1230(4)
O4_4 O 0.9321(12) 0.0732(6) 0.1192(3)
C13_4 C 0.6270(8) 0.4468(4) 0.2816(2)
C14_4 C 0.3781(14) 0.4622(7) 0.2792(4)
H16_4 H 0.4034 0.5167 0.2862
H17_4 H 0.2874 0.4521 0.2948
C15_4 C 0.4882(17) 0.3273(5) 0.2796(3)
H18_4 H 0.4013 0.3002 0.2873
H19_4 H 0.5632 0.2983 0.2965
H20_4 H 0.6437 0.4963 0.2999
H21_4 H 0.7034 0.4112 0.2897
O14_4 O 0.927(2) 0.5466(10) 0.0428(8)
O7_4 O 0.927(2) 0.4534(10) 0.9572(8)
C16_4 C 0.7517(14) 0.6665(7) 0.9222(5)
C17_4 C 0.8983(10) 0.7084(4) 0.9410(2)
H22_4 H 0.9001 0.7095 0.9796
C18_4 C 0.8951(9) 0.7969(5) 0.9203(3)
H23_4 H 0.8897 0.7969 0.8822
H24_4 H 0.8125 0.8233 0.9338
O8_4 O 0.7075(8) 0.6203(4) 0.9617(3)
O9_4 O 0.7271(11) 0.6607(6) 0.8770(4)
O11_4 O 0.9321(12) 0.9268(6) 0.8808(3)
H33_3 H 0.0067793 0.489558 0.963819
H33_4 H 0.993221 0.510442 0.463819
loop_
_geom_bond_atom_site_label_1
_geom_bond_atom_site_label_2
_geom_bond_site_symmetry_1
_geom_bond_site_symmetry_2
H12 C11 1_555 1_555
H13 C11 1_555 1_555
C14 C11 1_555 1_555
H17 C14 1_555 1_555
H18 C15 1_555 1_555
Cd7 N2 1_555 1_555
N2 C14 1_555 1_555
N2 C15 1_555 1_555
Cd1 N1 1_555 1_555
Cd2 O1 1_555 1_555
N1 C10 1_555 1_555
C1 C2 1_555 1_555
C2 H1 1_555 1_555
C3 C2 1_555 1_555
H2 C3 1_555 1_555
H3 C3 1_555 1_555
C4 C3 1_555 1_555
H4 C4 1_555 1_555
C5 C4 1_555 1_555
H5 C5 1_555 1_555
H6 C5 1_555 1_555
C6 C5 1_555 1_555
H7 C6 1_555 1_555
C7 C2 1_555 1_555
H8 C7 1_555 1_555
H9 C7 1_555 1_555
C8 C4 1_555 1_555
C9 C6 1_555 1_555
H11 C10 1_555 1_555
C12 N1 1_555 1_555
H14 C12 1_555 1_555
O1 Cd1 1_555 1_555
O2 Cd1 1_555 1_555
O3 C8 1_555 1_555
O4 C8 1_555 1_555
O16 C9 1_555 1_555
O17 C9 1_555 1_555
O7 Cd2 1_555 1_555
C13 C10 1_555 1_555
H20 C13 1_555 1_555
H21 C13 1_555 1_555
O18 Cd2 1_555 1_555
Cd4 O3 1_555 1_555
Cd5 O3 1_555 1_555
C1 O1 1_555 1_555
C1 O2 1_555 1_555
C6 C7 1_555 1_555
C16 C17 1_555 1_555
C17 H22 1_555 1_555
C18 C17 1_555 1_555
H23 C18 1_555 1_555
H24 C18 1_555 1_555
C19 C18 1_555 1_555
H25 C19 1_555 1_555
C20 C19 1_555 1_555
H26 C20 1_555 1_555
H27 C20 1_555 1_555
C21 C20 1_555 1_555
H28 C21 1_555 1_555
C22 C17 1_555 1_555
H29 C22 1_555 1_555
H30 C22 1_555 1_555
C23 C19 1_555 1_555
C24 C21 1_555 1_555
O8 Cd2_2 1_555 1_555
O9 C16 1_555 1_555
O10 C23 1_555 1_555
O11 C23 1_555 1_555
O19 C24 1_555 1_555
O20 C24 1_555 1_555
O14 Cd2_2 1_555 1_555
Cd3 O8 1_555 1_555
Cd8 O10 1_555 1_555
Cd5 O10 1_555 1_555
N3 Cd3 1_555 1_555
Cd2_2 O15 1_555 1_555
C16 O8 1_555 1_555
C21 C22 1_555 1_555
O9 Cd3 1_555 1_555
O14_2 Cd2_3 1_555 1_555
Cd2_3 O15_2 1_555 1_555
C16_2 C17_2 1_555 1_555
C17_2 H22_2 1_555 1_555
C18_2 C17_2 1_555 1_555
H23_2 C18_2 1_555 1_555
H24_2 C18_2 1_555 1_555
C19_2 C18_2 1_555 1_555
H25_2 C19_2 1_555 1_555
C20_2 C19_2 1_555 1_555
H26_2 C20_2 1_555 1_555
H27_2 C20_2 1_555 1_555
C21_2 C20_2 1_555 1_555
H28_2 C21_2 1_555 1_555
C22_2 C17_2 1_555 1_555
H29_2 C22_2 1_555 1_555
H30_2 C22_2 1_555 1_555
C23_2 C19_2 1_555 1_555
C24_2 C21_2 1_555 1_555
O8_2 Cd2_4 1_555 1_555
O9_2 C16_2 1_555 1_555
O10_2 C23_2 1_555 1_555
O11_2 C23_2 1_555 1_555
O12 C24_2 1_555 1_555
O13 C24_2 1_555 1_555
Cd7 O8_2 1_555 1_555
Cd8_2 O10_2 1_555 1_555
Cd9_2 O10_2 1_555 1_555
C16_2 O8_2 1_555 1_555
C21_2 C22_2 1_555 1_555
O9_2 Cd7 1_555 1_555
Cd6 N1_2 1_555 1_555
Cd2_5 O1_2 1_555 1_555
N1_2 C10_2 1_555 1_555
C1_2 C2_2 1_555 1_555
C2_2 H1_2 1_555 1_555
C3_2 C2_2 1_555 1_555
H2_2 C3_2 1_555 1_555
H3_2 C3_2 1_555 1_555
C4_2 C3_2 1_555 1_555
H4_2 C4_2 1_555 1_555
C5_2 C4_2 1_555 1_555
H5_2 C5_2 1_555 1_555
H6_2 C5_2 1_555 1_555
C6_2 C5_2 1_555 1_555
H7_2 C6_2 1_555 1_555
C7_2 C2_2 1_555 1_555
H8_2 C7_2 1_555 1_555
H9_2 C7_2 1_555 1_555
C8_2 C4_2 1_555 1_555
C9_2 C6_2 1_555 1_555
H11_2 C10_2 1_555 1_555
C12_2 N1_2 1_555 1_555
H14_2 C12_2 1_555 1_555
O1_2 Cd6 1_555 1_555
O2_2 Cd6 1_555 1_555
O3_2 C8_2 1_555 1_555
O4_2 C8_2 1_555 1_555
O5 C9_2 1_555 1_555
O6 C9_2 1_555 1_555
C13_2 C10_2 1_555 1_555
H20_2 C13_2 1_555 1_555
H21_2 C13_2 1_555 1_555
Cd4_2 O3_2 1_555 1_555
Cd9 O3_2 1_555 1_555
C1_2 O1_2 1_555 1_555
C1_2 O2_2 1_555 1_555
C6_2 C7_2 1_555 1_555
O7_2 Cd2_6 1_555 1_555
O18_2 Cd2_6 1_555 1_555
H12_2 C11_2 1_555 1_555
H13_2 C11_2 1_555 1_555
C14_2 C11_2 1_555 1_555
H17_2 C14_2 1_555 1_555
H18_2 C15_2 1_555 1_555
N3 C14_2 1_555 1_555
N3 C15_2 1_555 1_555
Cd4 N1_3 1_555 1_555
Cd5 O1_3 1_555 1_555
N1_3 C10_3 1_555 1_555
C1_3 C2_3 1_555 1_555
C2_3 H1_3 1_555 1_555
C3_3 C2_3 1_555 1_555
H2_3 C3_3 1_555 1_555
H3_3 C3_3 1_555 1_555
C10_3 H10_3 1_555 1_555
H11_3 C10_3 1_555 1_555
C11_3 N1_3 1_555 1_555
H12_3 C11_3 1_555 1_555
H13_3 C11_3 1_555 1_555
C12_3 N1_3 1_555 1_555
H14_3 C12_3 1_555 1_555
H15_3 C12_3 1_555 1_555
O1_3 Cd4 1_555 1_555
O2_3 Cd4 1_555 1_555
O7_3 Cd5 1_555 1_555
C13_3 C10_3 1_555 1_555
N2_2 C13_3 1_555 1_555
C14_3 C11_3 1_555 1_555
H16_3 C14_3 1_555 1_555
H17_3 C14_3 1_555 1_555
C15_3 C12_3 1_555 1_555
H18_3 C15_3 1_555 1_555
H19_3 C15_3 1_555 1_555
H20_3 C13_3 1_555 1_555
H21_3 C13_3 1_555 1_555
C16_3 C17_3 1_555 1_555
C17_3 H22_3 1_555 1_555
C18_3 C17_3 1_555 1_555
H23_3 C18_3 1_555 1_555
H24_3 C18_3 1_555 1_555
O8_3 Cd5 1_555 1_555
O9_3 C16_3 1_555 1_555
O14_3 Cd5 1_555 1_555
Cd8 O8_3 1_555 1_555
O16_2 Cd4 1_555 1_555
O17_2 Cd4 1_555 1_555
Cd8_2 N2_2 1_555 1_555
N3_2 Cd8 1_555 1_555
O19_2 Cd8 1_555 1_555
O20_2 Cd8 1_555 1_555
C1_3 O1_3 1_555 1_555
C1_3 O2_3 1_555 1_555
N2_2 C14_3 1_555 1_555
N2_2 C15_3 1_555 1_555
C16_3 O8_3 1_555 1_555
O9_3 Cd8 1_555 1_555
H4_3 C4_3 1_555 1_555
C5_3 C4_3 1_555 1_555
H5_3 C5_3 1_555 1_555
H6_3 C5_3 1_555 1_555
C6_3 C5_3 1_555 1_555
H7_3 C6_3 1_555 1_555
H8_3 C7_3 1_555 1_555
H9_3 C7_3 1_555 1_555
C8_3 C4_3 1_555 1_555
C9_3 C6_3 1_555 1_555
O15 C8_3 1_555 1_555
O16_2 C9_3 1_555 1_555
O17_2 C9_3 1_555 1_555
H25_3 C19_3 1_555 1_555
C20_3 C19_3 1_555 1_555
H26_3 C20_3 1_555 1_555
H27_3 C20_3 1_555 1_555
C21_3 C20_3 1_555 1_555
H28_3 C21_3 1_555 1_555
H29_3 C22_3 1_555 1_555
H30_3 C22_3 1_555 1_555
C23_3 C19_3 1_555 1_555
C24_3 C21_3 1_555 1_555
O18 C23_3 1_555 1_555
O19_2 C24_3 1_555 1_555
O20_2 C24_3 1_555 1_555
C6_3 C7_3 1_555 1_555
C21_3 C22_3 1_555 1_555
H4_4 C4_4 1_555 1_555
C5_4 C4_4 1_555 1_555
H5_4 C5_4 1_555 1_555
H6_4 C5_4 1_555 1_555
C6_4 C5_4 1_555 1_555
H7_4 C6_4 1_555 1_555
H8_4 C7_4 1_555 1_555
H9_4 C7_4 1_555 1_555
C8_4 C4_4 1_555 1_555
C9_4 C6_4 1_555 1_555
O15_2 C8_4 1_555 1_555
O5_2 C9_4 1_555 1_555
O6_2 C9_4 1_555 1_555
Cd4_2 O5_2 1_555 1_555
C6_4 C7_4 1_555 1_555
O6_2 Cd4_2 1_555 1_555
H25_4 C19_4 1_555 1_555
C20_4 C19_4 1_555 1_555
H26_4 C20_4 1_555 1_555
H27_4 C20_4 1_555 1_555
C21_4 C20_4 1_555 1_555
H28_4 C21_4 1_555 1_555
H29_4 C22_4 1_555 1_555
H30_4 C22_4 1_555 1_555
C23_4 C19_4 1_555 1_555
C24_4 C21_4 1_555 1_555
O18_2 C23_4 1_555 1_555
O12_2 C24_4 1_555 1_555
O13_2 C24_4 1_555 1_555
Cd8_2 O12_2 1_555 1_555
C21_4 C22_4 1_555 1_555
O13_2 Cd8_2 1_555 1_555
Cd4_2 N1_4 1_555 1_555
Cd9 O1_4 1_555 1_555
N1_4 C10_4 1_555 1_555
C1_4 C2_4 1_555 1_555
C2_4 H1_4 1_555 1_555
C3_4 C2_4 1_555 1_555
H2_4 C3_4 1_555 1_555
H3_4 C3_4 1_555 1_555
C10_4 H10_4 1_555 1_555
H11_4 C10_4 1_555 1_555
C11_4 N1_4 1_555 1_555
H12_4 C11_4 1_555 1_555
H13_4 C11_4 1_555 1_555
C12_4 N1_4 1_555 1_555
H14_4 C12_4 1_555 1_555
H15_4 C12_4 1_555 1_555
O1_4 Cd4_2 1_555 1_555
O2_4 Cd4_2 1_555 1_555
C13_4 C10_4 1_555 1_555
N3_2 C13_4 1_555 1_555
C14_4 C11_4 1_555 1_555
H16_4 C14_4 1_555 1_555
H17_4 C14_4 1_555 1_555
C15_4 C12_4 1_555 1_555
H18_4 C15_4 1_555 1_555
H19_4 C15_4 1_555 1_555
H20_4 C13_4 1_555 1_555
H21_4 C13_4 1_555 1_555
O14_4 Cd9 1_555 1_555
C1_4 O1_4 1_555 1_555
C1_4 O2_4 1_555 1_555
N3_2 C14_4 1_555 1_555
N3_2 C15_4 1_555 1_555
O7_4 Cd9_2 1_555 1_555
C16_4 C17_4 1_555 1_555
C17_4 H22_4 1_555 1_555
C18_4 C17_4 1_555 1_555
H23_4 C18_4 1_555 1_555
H24_4 C18_4 1_555 1_555
O8_4 Cd9_2 1_555 1_555
O9_4 C16_4 1_555 1_555
Cd8_2 O8_4 1_555 1_555
C16_4 O8_4 1_555 1_555
O9_4 Cd8_2 1_555 1_555

#END
