
###############################################################################
#
# This file contains modified crystal structure data generated from the
# MOF subset of the Cambridge Structural Database (CSD) v543 
# hosted by the Cambridge Crystallographic Data Centre (CCDC).
#
# This work is licensed under the Creative Commons
# Attribution-NonCommercial-ShareAlike 4.0 International License.
# To view a copy of this license, visit
# http://creativecommons.org/licenses/by-nc-sa/4.0/
# or send a letter to
# Creative Commons, PO Box 1866, Mountain View, CA 94042, USA.
#
# CIF created using the CSD Python API on 29 September 2022
# The structure has been converted into the P1 space group
# The structure has a 3D framework
# The original CSD entry PEHSED01 is in the hexagonal crystal system
# The original CSD entry PEHSED01 is in a Sohncke space group
# The framework has been calculated to contain at least 10.0% void space
# The void calculation uses a probe of radius 1.32A, grid spacing 0.4
# The framework is charged, counterions have been retained in the structure
#
###############################################################################

data_PEHSED01
_chemical_formula_moiety         '(C168 H36 Cr24 Mn13 N12 O286 46-)n'
_symmetry_cell_setting           triclinic
_symmetry_space_group_name_H-M   'P 1'
_symmetry_Int_Tables_number      1
_space_group_name_Hall           'P 1'
loop_
_symmetry_equiv_pos_site_id
_symmetry_equiv_pos_as_xyz
1 x,y,z
_cell_length_a                   18.80530(10)
_cell_length_b                   18.80530(10)
_cell_length_c                   43.3432(4)
_cell_angle_alpha                90
_cell_angle_beta                 90
_cell_angle_gamma                120
_cell_volume                     13274.3
loop_
_atom_site_label
_atom_site_type_symbol
_atom_site_fract_x
_atom_site_fract_y
_atom_site_fract_z
O28 O 0.0203(5) 0.8410(5) 0.1172(2)
Mn4 Mn -0.0000 0.47104(5) 0.1667
Cr1 Cr 0.37660(6) 0.17090(6) 0.03795(2)
Cr2 Cr 0.18642(5) 0.34301(6) 0.11863(2)
Mn1 Mn 0.52896(5) 0.0000 0.0000
Mn2 Mn 0.51138(3) 0.48862(3) 0.0833
C1 C 0.2130(6) 0.1163(9) 0.0283(3)
C2 C 0.2183(7) 0.0457(6) 0.0438(3)
C3 C 0.4280(4) 0.3015(3) 0.07738(13)
C4 C 0.4710(3) 0.3377(3) 0.04561(12)
C5 C 0.3526(3) 0.4403(3) 0.11712(14)
C6 C 0.3275(3) 0.4111(3) 0.08400(14)
C7 C 0.0841(4) 0.1917(4) 0.09435(19)
C8 C 0.1507(4) 0.1843(4) 0.1127(2)
C11 C 0.4419(3) 0.1023(3) 0.00003(13)
C12 C 0.4830(4) 0.1127(4) 0.03151(14)
O1 O 0.2827(3) 0.1783(3) 0.02322(14)
O2 O 0.1474(5) 0.1079(7) 0.0215(2)
O3 O 0.2916(4) 0.0630(3) 0.05067(14)
O5 O 0.3815(3) 0.2251(2) 0.07758(9)
O6 O 0.4445(3) 0.3494(2) 0.09848(9)
O7 O 0.4559(3) 0.2844(3) 0.02492(9)
O8 O 0.5155(3) 0.4132(3) 0.04346(10)
O9 O 0.4274(2) 0.4820(2) 0.12252(10)
O10 O 0.2952(2) 0.4206(2) 0.13673(9)
O11 O 0.3785(2) 0.4316(3) 0.06393(9)
O12 O 0.2492(2) 0.3665(3) 0.07963(10)
O13 O 0.0872(2) 0.2596(3) 0.09754(12)
O14 O 0.0328(3) 0.1324(4) 0.07967(17)
O15 O 0.2022(3) 0.2499(3) 0.12687(11)
O16 O 0.1493(3) 0.1186(3) 0.11318(18)
O20 O 0.6733(2) 0.0738(3) 0.01569(10)
O23 O 0.5328(3) 0.0876(3) 0.03476(10)
O24 O 0.4643(3) 0.1496(3) 0.05191(9)
Cr3 Cr 0.82910(6) 0.62340(6) 0.12872(2)
Cr4 Cr 0.65699(6) 0.81358(5) 0.04804(2)
C13 C 0.8837(9) 0.7870(6) 0.1384(3)
C14 C 0.9543(6) 0.7817(7) 0.1229(3)
C15 C 0.6985(3) 0.5720(4) 0.08929(13)
C16 C 0.6623(3) 0.5290(3) 0.12106(12)
C17 C 0.5597(3) 0.6474(3) 0.04955(14)
C18 C 0.5889(3) 0.6725(3) 0.08267(14)
C19 C 0.8083(4) 0.9159(4) 0.07232(19)
C20 C 0.8157(4) 0.8493(4) 0.0540(2)
C21 C 0.8977(3) 0.5581(3) 0.16664(13)
C22 C 0.8873(4) 0.5170(4) 0.13516(14)
O25 O 0.8217(3) 0.7173(3) 0.14345(14)
O26 O 0.8921(7) 0.8526(5) 0.1452(2)
O27 O 0.9370(3) 0.7084(4) 0.11600(14)
O29 O 0.7749(2) 0.6185(3) 0.08909(9)
O30 O 0.6506(2) 0.5555(3) 0.06819(9)
O31 O 0.7156(3) 0.5441(3) 0.14175(9)
O32 O 0.5868(3) 0.4845(3) 0.12321(10)
O33 O 0.5180(2) 0.5726(2) 0.04415(10)
O34 O 0.5794(2) 0.7048(2) 0.02994(9)
O35 O 0.5684(3) 0.6215(2) 0.10274(9)
O36 O 0.6335(3) 0.7508(2) 0.08704(10)
O37 O 0.7404(3) 0.9128(2) 0.06913(12)
O38 O 0.8676(4) 0.9672(3) 0.08700(17)
O39 O 0.7501(3) 0.7978(3) 0.03980(11)
O40 O 0.8814(3) 0.8507(3) 0.05349(18)
O41 O 0.9326(3) 0.5419(3) 0.18721(10)
O42 O 0.8721(3) 0.6095(3) 0.16824(9)
O43 O 0.9124(3) 0.4672(3) 0.13191(10)
O44 O 0.8504(3) 0.5357(3) 0.11476(9)
C23 C 0.1131(3) 0.4346(5) 0.13004(13)
C24 C 0.1052(3) 0.3865(4) 0.15989(13)
O45 O 0.1566(2) 0.4279(4) 0.10953(10)
O46 O 0.0783(2) 0.4740(3) 0.12841(10)
O47 O 0.1320(2) 0.3374(3) 0.15835(10)
O48 O 0.0738(3) 0.4005(4) 0.18236(10)
Mn4_2 Mn 1.0000 0.47104(5) 0.1667
O49 O 0.5721(4) 0.8434(2) 0.05714(10)
O51 O 0.6626(3) 0.8680(2) 0.00832(10)
Mn1_2 Mn 0.52896(5) 0.0000 1.0000
C9 C 0.6785(4) 0.1131(3) 0.96337(13)
C10 C 0.7187(3) 0.1052(3) 0.99322(13)
O17 O 0.7287(3) 0.1566(2) 0.94286(10)
O18 O 0.6043(2) 0.0783(2) 0.96174(10)
O19 O 0.7946(2) 0.1320(2) 0.99168(10)
O21 O 0.4581(3) 0.0674(3) 0.97946(10)
O22 O 0.3905(3) 0.1279(3) 0.99843(9)
Cr5 Cr 0.84341(8) 0.18642(5) 0.95196(2)
Mn1_3 Mn 0.52896(5) 1.0000 0.0000
O4 O 0.1590(5) 0.9797(5) 0.0495(2)
O50 O 0.5260(3) 0.9217(2) 0.03826(10)
O53 O 0.3907(4) 0.9326(3) 0.02054(10)
Mn1_4 Mn 0.52896(5) 1.0000 1.0000
O52 O 0.5995(4) 0.9262(3) 0.98431(10)
O54 O 0.4452(4) 0.9124(3) 0.96524(10)
O28_2 O 0.1793(7) 0.0203(5) 0.9505(2)
O42_2 O 0.2626(4) 0.8721(3) 0.00157(9)
Cr1_2 Cr 0.20570(8) 0.37660(6) 0.87128(2)
Mn1_5 Mn 0.52896(5) 0.52896(5) 0.8333
Mn2_2 Mn 0.02276(4) 0.51138(3) 0.9166
C1_2 C 0.0967(11) 0.2130(6) 0.8616(3)
C2_2 C 0.1726(9) 0.2183(7) 0.8771(3)
C3_2 C 0.1265(5) 0.4280(4) 0.91071(13)
C4_2 C 0.1333(4) 0.4710(3) 0.87894(12)
C9_2 C 0.5654(5) 0.6785(4) 0.79670(13)
C10_2 C 0.6135(4) 0.7187(3) 0.82655(13)
C11_2 C 0.3396(4) 0.4419(3) 0.83336(13)
C12_2 C 0.3703(6) 0.4830(4) 0.86484(14)
O1_2 O 0.1044(4) 0.2827(3) 0.85655(14)
O2_2 O 0.0395(9) 0.1474(5) 0.8548(2)
O3_2 O 0.2286(5) 0.2916(4) 0.88400(14)
O4_2 O 0.1793(7) 0.1590(5) 0.8828(2)
O5_2 O 0.1564(4) 0.3815(3) 0.91091(9)
O6_2 O 0.0951(4) 0.4445(3) 0.93181(9)
O7_2 O 0.1715(4) 0.4559(3) 0.85825(9)
O8_2 O 0.1023(4) 0.5155(3) 0.87679(10)
O16_2 O 0.0307(4) 0.1493(3) 0.94651(18)
O17_2 O 0.5721(4) 0.7287(3) 0.77619(10)
O18_2 O 0.5260(3) 0.6043(2) 0.79507(10)
O19_2 O 0.6626(3) 0.7946(2) 0.82501(10)
O20_2 O 0.5995(4) 0.6733(2) 0.84902(10)
O21_2 O 0.3907(4) 0.4581(3) 0.81279(10)
O22_2 O 0.2626(4) 0.3905(3) 0.83176(9)
O23_2 O 0.4452(4) 0.5328(3) 0.86809(10)
O24_2 O 0.3147(4) 0.4643(3) 0.88524(9)
Cr3_2 Cr 0.20570(8) 0.82910(6) 0.96205(2)
C13_2 C 0.0967(11) 0.8837(9) 0.9717(3)
C14_2 C 0.1726(9) 0.9543(6) 0.9562(3)
C15_2 C 0.1265(5) 0.6985(3) 0.92262(13)
C16_2 C 0.1333(4) 0.6623(3) 0.95439(12)
C21_2 C 0.3396(4) 0.8977(3) 0.99997(13)
C22_2 C 0.3703(6) 0.8873(4) 0.96849(14)
O25_2 O 0.1044(4) 0.8217(3) 0.97678(14)
O26_2 O 0.0395(9) 0.8921(7) 0.9785(2)
O27_2 O 0.2286(5) 0.9370(3) 0.94933(14)
O29_2 O 0.1564(4) 0.7749(2) 0.92242(9)
O30_2 O 0.0951(4) 0.6506(2) 0.90152(9)
O31_2 O 0.1715(4) 0.7156(3) 0.97508(9)
O32_2 O 0.1023(4) 0.5868(3) 0.95654(10)
O40_2 O 0.0307(4) 0.8814(3) 0.88682(18)
O44_2 O 0.3147(4) 0.8504(3) 0.94809(9)
Cr5_2 Cr 0.65699(9) 0.84341(8) 0.78530(2)
O50_2 O 0.6043(4) 0.5260(3) 0.87159(10)
O52_2 O 0.6733(5) 0.5995(4) 0.81764(10)
O53_2 O 0.4581(5) 0.3907(4) 0.85387(10)
O54_2 O 0.5328(5) 0.4452(4) 0.79857(10)
C5_2 C 0.9123(4) 0.3526(3) 0.95045(14)
C6_2 C 0.9164(4) 0.3275(3) 0.91733(14)
C7_2 C 0.8924(6) 0.0841(4) 0.92768(19)
C8_2 C 0.9664(6) 0.1507(4) 0.9460(2)
O9_2 O 0.9454(3) 0.4274(2) 0.95585(10)
O10_2 O 0.8746(3) 0.2952(2) 0.97006(9)
O11_2 O 0.9469(4) 0.3785(2) 0.89726(9)
O12_2 O 0.8827(4) 0.2492(2) 0.91296(10)
O13_2 O 0.8276(4) 0.0872(2) 0.93087(12)
O14_2 O 0.9004(5) 0.0328(3) 0.91300(17)
O15_2 O 0.9523(4) 0.2022(3) 0.96020(11)
Cr4_2 Cr 0.84341(8) 0.65699(6) 0.88137(2)
C17_2 C 0.9123(4) 0.5597(3) 0.88288(14)
C18_2 C 0.9164(4) 0.5889(3) 0.91600(14)
C19_2 C 0.8924(6) 0.8083(4) 0.90565(19)
C20_2 C 0.9664(6) 0.8157(4) 0.8873(2)
O33_2 O 0.9454(3) 0.5180(2) 0.87748(10)
O34_2 O 0.8746(3) 0.5794(2) 0.86327(9)
O35_2 O 0.9469(4) 0.5684(3) 0.93607(9)
O36_2 O 0.8827(4) 0.6335(3) 0.92037(10)
O37_2 O 0.8276(4) 0.7404(3) 0.90246(12)
O38_2 O 0.9004(5) 0.8676(4) 0.92033(17)
O39_2 O 0.9523(4) 0.7501(3) 0.87313(11)
O49_2 O 0.7287(4) 0.5721(4) 0.89047(10)
O51_2 O 0.7946(4) 0.6626(3) 0.84165(10)
Mn1_6 Mn 0.0000 0.52896(5) 0.6667
O4_3 O 0.0203(5) 0.1793(7) 0.7162(2)
O50_3 O 0.0783(2) 0.6043(4) 0.70493(10)
O52_3 O 0.0738(3) 0.6733(5) 0.65098(10)
O53_3 O 0.0674(3) 0.4581(5) 0.68721(10)
O54_3 O 0.0876(3) 0.5328(5) 0.63191(10)
Cr1_3 Cr 0.82910(6) 0.20570(8) 0.70462(2)
Mn1_7 Mn 1.0000 0.52896(5) 0.6667
Mn2_3 Mn 0.51138(3) 0.02276(4) 0.7500
C1_3 C 0.8837(9) 0.0967(11) 0.6950(3)
C2_3 C 0.9543(6) 0.1726(9) 0.7105(3)
C3_3 C 0.6985(3) 0.1265(5) 0.74405(13)
C4_3 C 0.6623(3) 0.1333(4) 0.71228(12)
C9_3 C 0.8869(3) 0.5654(5) 0.63004(13)
C10_3 C 0.8948(3) 0.6135(4) 0.65989(13)
C11_3 C 0.8977(3) 0.3396(4) 0.66670(13)
C12_3 C 0.8873(4) 0.3703(6) 0.69818(14)
O1_3 O 0.8217(3) 0.1044(4) 0.68989(14)
O2_3 O 0.8921(7) 0.0395(9) 0.6882(2)
O3_3 O 0.9370(3) 0.2286(5) 0.71734(14)
O5_3 O 0.7749(2) 0.1564(4) 0.74425(9)
O6_3 O 0.6506(2) 0.0951(4) 0.76515(9)
O7_3 O 0.7156(3) 0.1715(4) 0.69159(9)
O8_3 O 0.5868(3) 0.1023(4) 0.71013(10)
O16_3 O 0.8814(3) 0.0307(4) 0.77985(18)
O17_3 O 0.8434(2) 0.5721(4) 0.60953(10)
O18_3 O 0.9217(2) 0.5260(3) 0.62841(10)
O19_3 O 0.8680(2) 0.6626(3) 0.65835(10)
O20_3 O 0.9262(3) 0.5995(4) 0.68236(10)
O21_3 O 0.9326(3) 0.3907(4) 0.64613(10)
O22_3 O 0.8721(3) 0.2626(4) 0.66510(9)
O23_3 O 0.9124(3) 0.4452(4) 0.70143(10)
O24_3 O 0.8504(3) 0.3147(4) 0.71858(9)
Cr3_3 Cr 0.37660(6) 0.20570(8) 0.79538(2)
C13_3 C 0.2130(6) 0.0967(11) 0.8050(3)
C14_3 C 0.2183(7) 0.1726(9) 0.7895(3)
C15_3 C 0.4280(4) 0.1265(5) 0.75595(13)
C16_3 C 0.4710(3) 0.1333(4) 0.78772(12)
C21_3 C 0.4419(3) 0.3396(4) 0.83330(13)
C22_3 C 0.4830(4) 0.3703(6) 0.80182(14)
O25_3 O 0.2827(3) 0.1044(4) 0.81011(14)
O26_3 O 0.1474(5) 0.0395(9) 0.8118(2)
O27_3 O 0.2916(4) 0.2286(5) 0.78266(14)
O28_3 O 0.1590(5) 0.1793(7) 0.7838(2)
O29_3 O 0.3815(3) 0.1564(4) 0.75575(9)
O30_3 O 0.4445(3) 0.0951(4) 0.73485(9)
O31_3 O 0.4559(3) 0.1715(4) 0.80841(9)
O32_3 O 0.5155(3) 0.1023(4) 0.78987(10)
O40_3 O 0.1493(3) 0.0307(4) 0.72015(18)
O42_3 O 0.3905(3) 0.2626(4) 0.83490(9)
O44_3 O 0.4643(3) 0.3147(4) 0.78142(9)
Cr5_3 Cr 0.81358(5) 0.65699(9) 0.61863(2)
C5_3 C 0.5597(3) 0.9123(4) 0.78379(14)
C6_3 C 0.5889(3) 0.9164(4) 0.75067(14)
C7_3 C 0.8083(4) 0.8924(6) 0.76102(19)
C8_3 C 0.8157(4) 0.9664(6) 0.7794(2)
O9_3 O 0.5180(2) 0.9454(3) 0.78919(10)
O10_3 O 0.5794(2) 0.8746(3) 0.80340(9)
O11_3 O 0.5684(3) 0.9469(4) 0.73060(9)
O12_3 O 0.6335(3) 0.8827(4) 0.74630(10)
O13_3 O 0.7404(3) 0.8276(4) 0.76421(12)
O14_3 O 0.8676(4) 0.9004(5) 0.74634(17)
O15_3 O 0.7501(3) 0.9523(4) 0.79354(11)
Cr4_3 Cr 0.18642(5) 0.84341(8) 0.71470(2)
C17_3 C 0.3526(3) 0.9123(4) 0.71621(14)
C18_3 C 0.3275(3) 0.9164(4) 0.74933(14)
C19_3 C 0.0841(4) 0.8924(6) 0.73898(19)
C20_3 C 0.1507(4) 0.9664(6) 0.7206(2)
O33_3 O 0.4274(2) 0.9454(3) 0.71081(10)
O34_3 O 0.2952(2) 0.8746(3) 0.69660(9)
O35_3 O 0.3785(2) 0.9469(4) 0.76940(9)
O36_3 O 0.2492(2) 0.8827(4) 0.75370(10)
O37_3 O 0.0872(2) 0.8276(4) 0.73579(12)
O38_3 O 0.0328(3) 0.9004(5) 0.75366(17)
O39_3 O 0.2022(3) 0.9523(4) 0.70646(11)
O49_3 O 0.1566(2) 0.7287(4) 0.72381(10)
O51_3 O 0.1320(2) 0.7946(4) 0.67499(10)
Mn1_8 Mn 0.47104(5) 0.0000 0.5000
O4_4 O 0.8410(5) 0.0203(5) 0.5495(2)
O50_4 O 0.4740(3) 0.0783(2) 0.53826(10)
O52_4 O 0.4005(4) 0.0738(3) 0.48431(10)
O53_4 O 0.6093(4) 0.0674(3) 0.52054(10)
O54_4 O 0.5548(4) 0.0876(3) 0.46524(10)
Cr1_4 Cr 0.62340(6) 0.82910(6) 0.53795(2)
Mn1_9 Mn 0.47104(5) 1.0000 0.5000
Mn2_4 Mn 0.48862(3) 0.51138(3) 0.5833
C1_4 C 0.7870(6) 0.8837(9) 0.5283(3)
C2_4 C 0.7817(7) 0.9543(6) 0.5438(3)
C3_4 C 0.5720(4) 0.6985(3) 0.57738(13)
C4_4 C 0.5290(3) 0.6623(3) 0.54561(12)
C5_4 C 0.6474(3) 0.5597(3) 0.61712(14)
C6_4 C 0.6725(3) 0.5889(3) 0.58400(14)
C7_4 C 0.9159(4) 0.8083(4) 0.59435(19)
C8_4 C 0.8493(4) 0.8157(4) 0.6127(2)
C9_4 C 0.3215(4) 0.8869(3) 0.46337(13)
C10_4 C 0.2813(3) 0.8948(3) 0.49322(13)
C11_4 C 0.5581(3) 0.8977(3) 0.50003(13)
C12_4 C 0.5170(4) 0.8873(4) 0.53151(14)
O1_4 O 0.7173(3) 0.8217(3) 0.52322(14)
O2_4 O 0.8526(5) 0.8921(7) 0.5215(2)
O3_4 O 0.7084(4) 0.9370(3) 0.55067(14)
O5_4 O 0.6185(3) 0.7749(2) 0.57758(9)
O6_4 O 0.5555(3) 0.6506(2) 0.59848(9)
O7_4 O 0.5441(3) 0.7156(3) 0.52492(9)
O8_4 O 0.4845(3) 0.5868(3) 0.54346(10)
O9_4 O 0.5726(2) 0.5180(2) 0.62252(10)
O10_4 O 0.7048(2) 0.5794(2) 0.63673(9)
O11_4 O 0.6215(2) 0.5684(3) 0.56393(9)
O12_4 O 0.7508(2) 0.6335(3) 0.57963(10)
O13_4 O 0.9128(2) 0.7404(3) 0.59754(12)
O14_4 O 0.9672(3) 0.8676(4) 0.57967(17)
O15_4 O 0.7978(3) 0.7501(3) 0.62687(11)
O16_4 O 0.8507(3) 0.8814(3) 0.61318(18)
O17_4 O 0.2713(3) 0.8434(2) 0.44286(10)
O18_4 O 0.3957(2) 0.9217(2) 0.46174(10)
O19_4 O 0.2054(2) 0.8680(2) 0.49168(10)
O20_4 O 0.3267(2) 0.9262(3) 0.51569(10)
O21_4 O 0.5419(3) 0.9326(3) 0.47946(10)
O22_4 O 0.6095(3) 0.8721(3) 0.49843(9)
O23_4 O 0.4672(3) 0.9124(3) 0.53476(10)
O24_4 O 0.5357(3) 0.8504(3) 0.55191(9)
Cr3_4 Cr 0.17090(6) 0.37660(6) 0.62872(2)
Cr4_4 Cr 0.34301(6) 0.18642(5) 0.54804(2)
C13_4 C 0.1163(9) 0.2130(6) 0.6384(3)
C14_4 C 0.0457(6) 0.2183(7) 0.6229(3)
C15_4 C 0.3015(3) 0.4280(4) 0.58929(13)
C16_4 C 0.3377(3) 0.4710(3) 0.62106(12)
C17_4 C 0.4403(3) 0.3526(3) 0.54955(14)
C18_4 C 0.4111(3) 0.3275(3) 0.58267(14)
C19_4 C 0.1917(4) 0.0841(4) 0.57232(19)
C20_4 C 0.1843(4) 0.1507(4) 0.5540(2)
C21_4 C 0.1023(3) 0.4419(3) 0.66664(13)
C22_4 C 0.1127(4) 0.4830(4) 0.63516(14)
O25_4 O 0.1783(3) 0.2827(3) 0.64345(14)
O26_4 O 0.1079(7) 0.1474(5) 0.6452(2)
O27_4 O 0.0630(3) 0.2916(4) 0.61600(14)
O29_4 O 0.2251(2) 0.3815(3) 0.58909(9)
O30_4 O 0.3494(2) 0.4445(3) 0.56819(9)
O31_4 O 0.2844(3) 0.4559(3) 0.64175(9)
O32_4 O 0.4132(3) 0.5155(3) 0.62321(10)
O33_4 O 0.4820(2) 0.4274(2) 0.54415(10)
O34_4 O 0.4206(2) 0.2952(2) 0.52994(9)
O35_4 O 0.4316(3) 0.3785(2) 0.60274(9)
O36_4 O 0.3665(3) 0.2492(2) 0.58704(10)
O37_4 O 0.2596(3) 0.0872(2) 0.56913(12)
O38_4 O 0.1324(4) 0.0328(3) 0.58700(17)
O39_4 O 0.2499(3) 0.2022(3) 0.53980(11)
O40_4 O 0.1186(3) 0.1493(3) 0.55349(18)
O42_4 O 0.1279(3) 0.3905(3) 0.66824(9)
O44_4 O 0.1496(3) 0.4643(3) 0.61476(9)
Cr5_4 Cr 0.15659(8) 0.81358(5) 0.45196(2)
O49_4 O 0.4279(4) 0.1566(2) 0.55714(10)
O51_4 O 0.3374(3) 0.1320(2) 0.50832(10)
O28_4 O 0.9797(5) 0.1590(5) 0.6172(2)
C5_5 C 0.0877(4) 0.6474(3) 0.45045(14)
C6_5 C 0.0836(4) 0.6725(3) 0.41733(14)
C7_5 C 0.1076(6) 0.9159(4) 0.42768(19)
C8_5 C 0.0336(6) 0.8493(4) 0.4460(2)
O9_5 O 0.0546(3) 0.5726(2) 0.45585(10)
O10_5 O 0.1254(3) 0.7048(2) 0.47006(9)
O11_5 O 0.0531(4) 0.6215(2) 0.39726(9)
O12_5 O 0.1173(4) 0.7508(2) 0.41296(10)
O13_5 O 0.1724(4) 0.9128(2) 0.43087(12)
O14_5 O 0.0996(5) 0.9672(3) 0.41300(17)
O15_5 O 0.0477(4) 0.7978(3) 0.46020(11)
Cr4_5 Cr 0.15659(8) 0.34301(6) 0.38137(2)
C17_5 C 0.0877(4) 0.4403(3) 0.38288(14)
C18_5 C 0.0836(4) 0.4111(3) 0.41600(14)
C19_5 C 0.1076(6) 0.1917(4) 0.40565(19)
C20_5 C 0.0336(6) 0.1843(4) 0.3873(2)
O33_5 O 0.0546(3) 0.4820(2) 0.37748(10)
O34_5 O 0.1254(3) 0.4206(2) 0.36327(9)
O35_5 O 0.0531(4) 0.4316(3) 0.43607(9)
O36_5 O 0.1173(4) 0.3665(3) 0.42037(10)
O37_5 O 0.1724(4) 0.2596(3) 0.40246(12)
O38_5 O 0.0996(5) 0.1324(4) 0.42033(17)
O39_5 O 0.0477(4) 0.2499(3) 0.37313(11)
O49_5 O 0.2713(4) 0.4279(4) 0.39047(10)
O51_5 O 0.2054(4) 0.3374(3) 0.34165(10)
Cr1_5 Cr 0.79430(8) 0.62340(6) 0.37128(2)
Mn1_10 Mn 0.47104(5) 0.47104(5) 0.3333
Mn2_5 Mn 0.97724(4) 0.48862(3) 0.4166
C1_5 C 0.9033(11) 0.7870(6) 0.3616(3)
C2_5 C 0.8274(9) 0.7817(7) 0.3771(3)
C3_5 C 0.8735(5) 0.5720(4) 0.41071(13)
C4_5 C 0.8667(4) 0.5290(3) 0.37894(12)
C9_5 C 0.4346(5) 0.3215(4) 0.29670(13)
C10_5 C 0.3865(4) 0.2813(3) 0.32655(13)
C11_5 C 0.6604(4) 0.5581(3) 0.33336(13)
C12_5 C 0.6297(6) 0.5170(4) 0.36484(14)
O1_5 O 0.8956(4) 0.7173(3) 0.35655(14)
O2_5 O 0.9605(9) 0.8526(5) 0.3548(2)
O3_5 O 0.7714(5) 0.7084(4) 0.38400(14)
O4_5 O 0.8207(7) 0.8410(5) 0.3828(2)
O5_5 O 0.8436(4) 0.6185(3) 0.41091(9)
O6_5 O 0.9049(4) 0.5555(3) 0.43181(9)
O7_5 O 0.8285(4) 0.5441(3) 0.35825(9)
O8_5 O 0.8977(4) 0.4845(3) 0.37679(10)
O16_5 O 0.9693(4) 0.8507(3) 0.44651(18)
O17_5 O 0.4279(4) 0.2713(3) 0.27619(10)
O18_5 O 0.4740(3) 0.3957(2) 0.29507(10)
O19_5 O 0.3374(3) 0.2054(2) 0.32501(10)
O20_5 O 0.4005(4) 0.3267(2) 0.34902(10)
O21_5 O 0.6093(4) 0.5419(3) 0.31279(10)
O22_5 O 0.7374(4) 0.6095(3) 0.33176(9)
O23_5 O 0.5548(4) 0.4672(3) 0.36809(10)
O24_5 O 0.6853(4) 0.5357(3) 0.38524(9)
Cr3_5 Cr 0.79430(8) 0.17090(6) 0.46205(2)
C13_5 C 0.9033(11) 0.1163(9) 0.4717(3)
C14_5 C 0.8274(9) 0.0457(6) 0.4562(3)
C15_5 C 0.8735(5) 0.3015(3) 0.42262(13)
C16_5 C 0.8667(4) 0.3377(3) 0.45439(12)
C21_5 C 0.6604(4) 0.1023(3) 0.49997(13)
C22_5 C 0.6297(6) 0.1127(4) 0.46849(14)
O25_5 O 0.8956(4) 0.1783(3) 0.47678(14)
O26_5 O 0.9605(9) 0.1079(7) 0.4785(2)
O27_5 O 0.7714(5) 0.0630(3) 0.44933(14)
O29_5 O 0.8436(4) 0.2251(2) 0.42242(9)
O30_5 O 0.9049(4) 0.3494(2) 0.40152(9)
O31_5 O 0.8285(4) 0.2844(3) 0.47508(9)
O32_5 O 0.8977(4) 0.4132(3) 0.45654(10)
O40_5 O 0.9693(4) 0.1186(3) 0.38682(18)
O42_5 O 0.7374(4) 0.1279(3) 0.50157(9)
O44_5 O 0.6853(4) 0.1496(3) 0.44809(9)
Cr5_5 Cr 0.34301(9) 0.15659(8) 0.28530(2)
O50_5 O 0.3957(4) 0.4740(3) 0.37159(10)
O52_5 O 0.3267(5) 0.4005(4) 0.31764(10)
O53_5 O 0.5419(5) 0.6093(4) 0.35387(10)
O54_5 O 0.4672(5) 0.5548(4) 0.29857(10)
O28_5 O 0.8207(7) 0.9797(5) 0.4505(2)
C5_6 C 0.4403(3) 0.0877(4) 0.28379(14)
C6_6 C 0.4111(3) 0.0836(4) 0.25067(14)
C7_6 C 0.1917(4) 0.1076(6) 0.26102(19)
C8_6 C 0.1843(4) 0.0336(6) 0.2794(2)
O9_6 O 0.4820(2) 0.0546(3) 0.28919(10)
O10_6 O 0.4206(2) 0.1254(3) 0.30340(9)
O11_6 O 0.4316(3) 0.0531(4) 0.23060(9)
O12_6 O 0.3665(3) 0.1173(4) 0.24630(10)
O13_6 O 0.2596(3) 0.1724(4) 0.26421(12)
O14_6 O 0.1324(4) 0.0996(5) 0.24634(17)
O15_6 O 0.2499(3) 0.0477(4) 0.29354(11)
Cr4_6 Cr 0.81358(5) 0.15659(8) 0.21470(2)
C17_6 C 0.6474(3) 0.0877(4) 0.21621(14)
C18_6 C 0.6725(3) 0.0836(4) 0.24933(14)
C19_6 C 0.9159(4) 0.1076(6) 0.23898(19)
C20_6 C 0.8493(4) 0.0336(6) 0.2206(2)
O33_6 O 0.5726(2) 0.0546(3) 0.21081(10)
O34_6 O 0.7048(2) 0.1254(3) 0.19660(9)
O35_6 O 0.6215(2) 0.0531(4) 0.26940(9)
O36_6 O 0.7508(2) 0.1173(4) 0.25370(10)
O37_6 O 0.9128(2) 0.1724(4) 0.23579(12)
O38_6 O 0.9672(3) 0.0996(5) 0.25366(17)
O39_6 O 0.7978(3) 0.0477(4) 0.20646(11)
O49_6 O 0.8434(2) 0.2713(4) 0.22381(10)
O51_6 O 0.8680(2) 0.2054(4) 0.17499(10)
Cr1_6 Cr 0.17090(6) 0.79430(8) 0.20462(2)
Mn2_6 Mn 0.48862(3) 0.97724(4) 0.2500
C1_6 C 0.1163(9) 0.9033(11) 0.1950(3)
C2_6 C 0.0457(6) 0.8274(9) 0.2105(3)
C3_6 C 0.3015(3) 0.8735(5) 0.24405(13)
C4_6 C 0.3377(3) 0.8667(4) 0.21228(12)
C11_6 C 0.1023(3) 0.6604(4) 0.16670(13)
C12_6 C 0.1127(4) 0.6297(6) 0.19818(14)
O1_6 O 0.1783(3) 0.8956(4) 0.18989(14)
O2_6 O 0.1079(7) 0.9605(9) 0.1882(2)
O3_6 O 0.0630(3) 0.7714(5) 0.21734(14)
O5_6 O 0.2251(2) 0.8436(4) 0.24425(9)
O6_6 O 0.3494(2) 0.9049(4) 0.26515(9)
O7_6 O 0.2844(3) 0.8285(4) 0.19159(9)
O8_6 O 0.4132(3) 0.8977(4) 0.21013(10)
O16_6 O 0.1186(3) 0.9693(4) 0.27985(18)
O21_6 O 0.0674(3) 0.6093(4) 0.14613(10)
O22_6 O 0.1279(3) 0.7374(4) 0.16510(9)
O23_6 O 0.0876(3) 0.5548(4) 0.20143(10)
O24_6 O 0.1496(3) 0.6853(4) 0.21858(9)
Cr3_6 Cr 0.62340(6) 0.79430(8) 0.29538(2)
C13_6 C 0.7870(6) 0.9033(11) 0.3050(3)
C14_6 C 0.7817(7) 0.8274(9) 0.2895(3)
C15_6 C 0.5720(4) 0.8735(5) 0.25595(13)
C16_6 C 0.5290(3) 0.8667(4) 0.28772(12)
C21_6 C 0.5581(3) 0.6604(4) 0.33330(13)
C22_6 C 0.5170(4) 0.6297(6) 0.30182(14)
O25_6 O 0.7173(3) 0.8956(4) 0.31011(14)
O26_6 O 0.8526(5) 0.9605(9) 0.3118(2)
O27_6 O 0.7084(4) 0.7714(5) 0.28266(14)
O28_6 O 0.8410(5) 0.8207(7) 0.2838(2)
O29_6 O 0.6185(3) 0.8436(4) 0.25575(9)
O30_6 O 0.5555(3) 0.9049(4) 0.23485(9)
O31_6 O 0.5441(3) 0.8285(4) 0.30841(9)
O32_6 O 0.4845(3) 0.8977(4) 0.28987(10)
O40_6 O 0.8507(3) 0.9693(4) 0.22015(18)
O42_6 O 0.6095(3) 0.7374(4) 0.33490(9)
O44_6 O 0.5357(3) 0.6853(4) 0.28142(9)
O4_6 O 0.9797(5) 0.8207(7) 0.2162(2)
O50_6 O 0.9217(2) 0.3957(4) 0.20493(10)
O52_6 O 0.9262(3) 0.3267(5) 0.15098(10)
C9_6 C 0.8869(3) 0.3215(4) 0.20330(13)
C10_6 C 0.8948(3) 0.2813(3) 0.17345(13)
C23_2 C 0.5654(5) 0.8869(3) 0.03663(13)
C24_2 C 0.6135(4) 0.8948(3) 0.00678(13)
C23_3 C 0.6785(6) 0.5654(5) 0.86996(13)
C24_3 C 0.7187(5) 0.6135(4) 0.84011(13)
C23_4 C 0.1131(3) 0.6785(6) 0.70330(13)
C24_4 C 0.1052(3) 0.7187(5) 0.67345(13)
C23_5 C 0.4346(5) 0.1131(3) 0.53663(13)
C24_5 C 0.3865(4) 0.1052(3) 0.50678(13)
C23_6 C 0.3215(6) 0.4346(5) 0.36996(13)
C24_6 C 0.2813(5) 0.3865(4) 0.34011(13)
C25 C 0.0000 0.0237(5) 0.1667
N1 N 0.0498(5) 0.0868(7) 0.1841(2)
H2 H 0.0866 0.0899 0.1974
C26 C 0.0313(6) 0.1453(5) 0.1768(2)
H3 H 0.0579 0.1997 0.1848
H1 H -0.0000 0.9732 0.1667
C25_2 C 1.0000 0.0237(5) 0.1667
N2 N 0.9502(5) 0.0370(9) 0.1492(2)
H4 H 0.9134 0.0033 0.1359
C27 C 0.9687(6) 0.1140(8) 0.1565(2)
H5 H 0.9421 0.1418 0.1485
H1_2 H 1.0000 0.9732 0.1667
H1_3 H 0.0268 -0.0000 0.0000
H1_4 H 0.0268 1.0000 0.0000
C25_3 C 0.9763(5) 0.0000 0.0000
N1_2 N 0.9630(9) 0.0498(5) 0.0174(2)
H2_2 H 0.9967 0.0866 0.0307
C26_2 C 0.8860(8) 0.0313(6) 0.0101(2)
H3_2 H 0.8582 0.0579 0.0181
C25_4 C 0.9763(5) 1.0000 0.0000
N2_2 N 0.9132(10) 0.9502(5) 0.9826(2)
H4_2 H 0.9101 0.9134 0.9693
C27_2 C 0.8547(10) 0.9687(6) 0.9899(2)
H5_2 H 0.8003 0.9421 0.9819
C25_5 C 0.9763(5) 1.0000 1.0000
H1_5 H 0.0268 0.0268 0.8334
C25_6 C 0.9763(5) 0.9763(5) 0.8334
N1_3 N 0.9132(7) 0.9630(9) 0.8508(2)
H2_3 H 0.9101 0.9967 0.8641
C26_3 C 0.8547(5) 0.8860(8) 0.8435(2)
H3_3 H 0.8003 0.8582 0.8515
N2_3 N 0.9630(9) 0.9132(10) 0.8159(2)
H4_3 H 0.9967 0.9101 0.8026
C27_3 C 0.8860(8) 0.8547(10) 0.8232(2)
H5_3 H 0.8582 0.8003 0.8152
H1_6 H 0.0000 0.0268 0.6667
C25_7 C 0.0000 0.9763(5) 0.6667
N2_4 N 0.0498(5) 0.9630(9) 0.6492(2)
H4_4 H 0.0866 0.9967 0.6359
C27_4 C 0.0313(6) 0.8860(8) 0.6565(2)
H5_4 H 0.0579 0.8582 0.6485
H1_7 H 1.0000 0.0268 0.6667
C25_8 C 1.0000 0.9763(5) 0.6667
N1_4 N 0.9502(5) 0.9132(7) 0.6841(2)
H2_4 H 0.9134 0.9101 0.6974
C26_4 C 0.9687(6) 0.8547(5) 0.6768(2)
H3_4 H 0.9421 0.8003 0.6848
C25_9 C 0.0237(5) -0.0000 0.5000
N2_5 N 0.0868(10) 0.0498(5) 0.4826(2)
H4_5 H 0.0899 0.0866 0.4693
C27_5 C 0.1453(10) 0.0313(6) 0.4899(2)
H5_5 H 0.1997 0.0579 0.4819
C25_10 C 0.0237(5) 1.0000 0.5000
N1_5 N 0.0370(9) 0.9502(5) 0.5174(2)
H2_5 H 0.0033 0.9134 0.5307
C26_5 C 0.1140(8) 0.9687(6) 0.5101(2)
H3_5 H 0.1418 0.9421 0.5181
H1_8 H 0.9732 0.0000 0.5000
H1_9 H 0.9732 1.0000 0.5000
C25_11 C 0.0237(5) 0.0237(5) 0.3334
N1_6 N 0.0868(7) 0.0370(9) 0.3508(2)
H2_6 H 0.0899 0.0033 0.3641
C26_6 C 0.1453(5) 0.1140(8) 0.3435(2)
H3_6 H 0.1997 0.1418 0.3515
N2_6 N 0.0370(9) 0.0868(10) 0.3159(2)
H4_6 H 0.0033 0.0899 0.3026
C27_6 C 0.1140(8) 0.1453(10) 0.3232(2)
H5_6 H 0.1418 0.1997 0.3152
H1_10 H 0.9732 0.9732 0.3334
H1_11 H 0.0268 0.0000 1.0000
H1_12 H 0.0268 1.0000 1.0000
C25_12 C 0.9763(5) -0.0000 1.0000
loop_
_geom_bond_atom_site_label_1
_geom_bond_atom_site_label_2
_geom_bond_site_symmetry_1
_geom_bond_site_symmetry_2
Cr1 O1 1_555 1_555
Cr2 O10 1_555 1_555
Mn2 O6 1_555 1_555
C1 C2 1_555 1_555
C2 O3 1_555 1_555
C3 C4 1_555 1_555
C4 O7 1_555 1_555
C5 C6 1_555 1_555
C6 O11 1_555 1_555
C7 C8 1_555 1_555
C8 O15 1_555 1_555
C11 C12 1_555 1_555
C12 O23 1_555 1_555
O1 C1 1_555 1_555
O2 C1 1_555 1_555
O3 Cr1 1_555 1_555
O5 Cr1 1_555 1_555
O6 C3 1_555 1_555
O7 Cr1 1_555 1_555
O8 Mn2 1_555 1_555
O9 Mn2 1_555 1_555
O10 C5 1_555 1_555
O11 Mn2 1_555 1_555
O12 Cr2 1_555 1_555
O13 Cr2 1_555 1_555
O14 C7 1_555 1_555
O15 Cr2 1_555 1_555
O16 C8 1_555 1_555
O20 Mn1 1_555 1_555
O23 Mn1 1_555 1_555
O24 Cr1 1_555 1_555
Cr3 O25 1_555 1_555
Cr4 O34 1_555 1_555
C13 C14 1_555 1_555
C14 O27 1_555 1_555
C15 C16 1_555 1_555
C16 O31 1_555 1_555
C17 C18 1_555 1_555
C18 O35 1_555 1_555
C19 C20 1_555 1_555
C20 O39 1_555 1_555
C21 C22 1_555 1_555
C22 O43 1_555 1_555
O25 C13 1_555 1_555
O26 C13 1_555 1_555
O27 Cr3 1_555 1_555
O29 Cr3 1_555 1_555
O30 Mn2 1_555 1_555
O31 Cr3 1_555 1_555
O32 Mn2 1_555 1_555
O33 Mn2 1_555 1_555
O34 C17 1_555 1_555
O35 Mn2 1_555 1_555
O36 Cr4 1_555 1_555
O37 Cr4 1_555 1_555
O38 C19 1_555 1_555
O39 Cr4 1_555 1_555
O40 C20 1_555 1_555
O41 C21 1_555 1_555
O42 Cr3 1_555 1_555
O43 Mn4_2 1_555 1_555
O44 Cr3 1_555 1_555
C23 C24 1_555 1_555
C24 O47 1_555 1_555
O45 Cr2 1_555 1_555
O46 C23 1_555 1_555
O47 Cr2 1_555 1_555
O48 C24 1_555 1_555
Mn4 O46 1_555 1_555
Mn4_2 O41 1_555 1_555
O49 Cr4 1_555 1_555
O51 Cr4 1_555 1_555
C3 O5 1_555 1_555
C4 O8 1_555 1_555
C5 O9 1_555 1_555
C6 O12 1_555 1_555
C7 O13 1_555 1_555
C12 O24 1_555 1_555
C15 O29 1_555 1_555
C15 O30 1_555 1_555
C16 O32 1_555 1_555
C17 O33 1_555 1_555
C18 O36 1_555 1_555
C19 O37 1_555 1_555
C21 O42 1_555 1_555
C22 O44 1_555 1_555
C23 O45 1_555 1_555
O48 Mn4 1_555 1_555
Mn1_2 O18 1_555 1_555
C9 C10 1_555 1_555
C10 O19 1_555 1_555
O17 C9 1_555 1_555
O18 C9 1_555 1_555
O19 Cr5 1_555 1_555
O21 Mn1_2 1_555 1_555
Cr5 O17 1_555 1_555
O50 Mn1_3 1_555 1_555
O53 Mn1_3 1_555 1_555
O52 Mn1_4 1_555 1_555
O54 Mn1_4 1_555 1_555
Cr1_2 O1_2 1_555 1_555
Mn1_5 O18_2 1_555 1_555
Mn2_2 O6_2 1_555 1_555
C1_2 C2_2 1_555 1_555
C2_2 O3_2 1_555 1_555
C3_2 C4_2 1_555 1_555
C4_2 O7_2 1_555 1_555
C9_2 C10_2 1_555 1_555
C10_2 O19_2 1_555 1_555
C11_2 C12_2 1_555 1_555
C12_2 O23_2 1_555 1_555
O1_2 C1_2 1_555 1_555
O2_2 C1_2 1_555 1_555
O3_2 Cr1_2 1_555 1_555
O4_2 C2_2 1_555 1_555
O5_2 Cr1_2 1_555 1_555
O6_2 C3_2 1_555 1_555
O7_2 Cr1_2 1_555 1_555
O8_2 Mn2_2 1_555 1_555
O17_2 C9_2 1_555 1_555
O18_2 C9_2 1_555 1_555
O19_2 Cr5_2 1_555 1_555
O20_2 Mn1_5 1_555 1_555
O21_2 Mn1_5 1_555 1_555
O22_2 Cr1_2 1_555 1_555
O23_2 Mn1_5 1_555 1_555
O24_2 Cr1_2 1_555 1_555
Cr3_2 O25_2 1_555 1_555
C13_2 C14_2 1_555 1_555
C14_2 O27_2 1_555 1_555
C15_2 C16_2 1_555 1_555
C16_2 O31_2 1_555 1_555
C21_2 C22_2 1_555 1_555
C22_2 O54 1_555 1_555
O25_2 C13_2 1_555 1_555
O26_2 C13_2 1_555 1_555
O27_2 Cr3_2 1_555 1_555
O29_2 Cr3_2 1_555 1_555
O30_2 Mn2_2 1_555 1_555
O31_2 Cr3_2 1_555 1_555
O32_2 Mn2_2 1_555 1_555
O44_2 Cr3_2 1_555 1_555
Cr5_2 O17_2 1_555 1_555
O50_2 Mn1_5 1_555 1_555
O52_2 Mn1_5 1_555 1_555
O53_2 Mn1_5 1_555 1_555
O54_2 Mn1_5 1_555 1_555
C3_2 O5_2 1_555 1_555
C4_2 O8_2 1_555 1_555
C10_2 O20_2 1_555 1_555
C11_2 O21_2 1_555 1_555
C11_2 O22_2 1_555 1_555
C12_2 O24_2 1_555 1_555
C15_2 O29_2 1_555 1_555
C15_2 O30_2 1_555 1_555
C16_2 O32_2 1_555 1_555
C22_2 O44_2 1_555 1_555
Cr5 O10_2 1_555 1_555
C5_2 C6_2 1_555 1_555
C6_2 O11_2 1_555 1_555
C7_2 C8_2 1_555 1_555
C8_2 O15_2 1_555 1_555
O10_2 C5_2 1_555 1_555
O12_2 Cr5 1_555 1_555
O13_2 Cr5 1_555 1_555
O14_2 C7_2 1_555 1_555
O15_2 Cr5 1_555 1_555
Cr4_2 O34_2 1_555 1_555
C17_2 C18_2 1_555 1_555
C18_2 O35_2 1_555 1_555
C19_2 C20_2 1_555 1_555
C20_2 O39_2 1_555 1_555
O34_2 C17_2 1_555 1_555
O36_2 Cr4_2 1_555 1_555
O37_2 Cr4_2 1_555 1_555
O38_2 C19_2 1_555 1_555
O39_2 Cr4_2 1_555 1_555
O49_2 Cr4_2 1_555 1_555
O51_2 Cr4_2 1_555 1_555
C5_2 O9_2 1_555 1_555
C6_2 O12_2 1_555 1_555
C7_2 O13_2 1_555 1_555
C17_2 O33_2 1_555 1_555
C18_2 O36_2 1_555 1_555
C19_2 O37_2 1_555 1_555
O50_3 Mn1_6 1_555 1_555
O52_3 Mn1_6 1_555 1_555
O53_3 Mn1_6 1_555 1_555
O54_3 Mn1_6 1_555 1_555
Cr1_3 O1_3 1_555 1_555
Mn1_7 O18_3 1_555 1_555
Mn2_3 O6_3 1_555 1_555
C1_3 C2_3 1_555 1_555
C2_3 O3_3 1_555 1_555
C3_3 C4_3 1_555 1_555
C4_3 O7_3 1_555 1_555
C9_3 C10_3 1_555 1_555
C10_3 O19_3 1_555 1_555
C11_3 C12_3 1_555 1_555
C12_3 O23_3 1_555 1_555
O1_3 C1_3 1_555 1_555
O2_3 C1_3 1_555 1_555
O3_3 Cr1_3 1_555 1_555
O5_3 Cr1_3 1_555 1_555
O6_3 C3_3 1_555 1_555
O7_3 Cr1_3 1_555 1_555
O8_3 Mn2_3 1_555 1_555
O17_3 C9_3 1_555 1_555
O18_3 C9_3 1_555 1_555
O19_3 Cr5_3 1_555 1_555
O20_3 Mn1_7 1_555 1_555
O21_3 Mn1_7 1_555 1_555
O22_3 Cr1_3 1_555 1_555
O23_3 Mn1_7 1_555 1_555
O24_3 Cr1_3 1_555 1_555
Cr3_3 O25_3 1_555 1_555
C13_3 C14_3 1_555 1_555
C14_3 O27_3 1_555 1_555
C15_3 C16_3 1_555 1_555
C16_3 O31_3 1_555 1_555
C21_3 C22_3 1_555 1_555
C22_3 O54_2 1_555 1_555
O25_3 C13_3 1_555 1_555
O26_3 C13_3 1_555 1_555
O27_3 Cr3_3 1_555 1_555
O28_3 C14_3 1_555 1_555
O29_3 Cr3_3 1_555 1_555
O30_3 Mn2_3 1_555 1_555
O31_3 Cr3_3 1_555 1_555
O32_3 Mn2_3 1_555 1_555
O53_2 C21_3 1_555 1_555
O42_3 Cr3_3 1_555 1_555
O44_3 Cr3_3 1_555 1_555
Cr5_3 O17_3 1_555 1_555
C3_3 O5_3 1_555 1_555
C4_3 O8_3 1_555 1_555
C10_3 O20_3 1_555 1_555
C11_3 O21_3 1_555 1_555
C11_3 O22_3 1_555 1_555
C12_3 O24_3 1_555 1_555
C15_3 O29_3 1_555 1_555
C15_3 O30_3 1_555 1_555
C16_3 O32_3 1_555 1_555
C21_3 O42_3 1_555 1_555
C22_3 O44_3 1_555 1_555
Cr5_2 O10_3 1_555 1_555
C5_3 C6_3 1_555 1_555
C6_3 O11_3 1_555 1_555
C7_3 C8_3 1_555 1_555
C8_3 O15_3 1_555 1_555
O10_3 C5_3 1_555 1_555
O12_3 Cr5_2 1_555 1_555
O13_3 Cr5_2 1_555 1_555
O14_3 C7_3 1_555 1_555
O15_3 Cr5_2 1_555 1_555
Cr4_3 O34_3 1_555 1_555
C17_3 C18_3 1_555 1_555
C18_3 O35_3 1_555 1_555
C19_3 C20_3 1_555 1_555
C20_3 O39_3 1_555 1_555
O34_3 C17_3 1_555 1_555
O36_3 Cr4_3 1_555 1_555
O37_3 Cr4_3 1_555 1_555
O38_3 C19_3 1_555 1_555
O39_3 Cr4_3 1_555 1_555
O49_3 Cr4_3 1_555 1_555
O51_3 Cr4_3 1_555 1_555
C5_3 O9_3 1_555 1_555
C6_3 O12_3 1_555 1_555
C7_3 O13_3 1_555 1_555
C17_3 O33_3 1_555 1_555
C18_3 O36_3 1_555 1_555
C19_3 O37_3 1_555 1_555
O50_4 Mn1_8 1_555 1_555
O52_4 Mn1_8 1_555 1_555
O53_4 Mn1_8 1_555 1_555
O54_4 Mn1_8 1_555 1_555
Cr1_4 O1_4 1_555 1_555
Cr5_3 O10_4 1_555 1_555
Mn1_9 O18_4 1_555 1_555
Mn2_4 O6_4 1_555 1_555
C1_4 C2_4 1_555 1_555
C2_4 O3_4 1_555 1_555
C3_4 C4_4 1_555 1_555
C4_4 O7_4 1_555 1_555
C5_4 C6_4 1_555 1_555
C6_4 O11_4 1_555 1_555
C7_4 C8_4 1_555 1_555
C8_4 O15_4 1_555 1_555
C9_4 C10_4 1_555 1_555
C10_4 O19_4 1_555 1_555
C11_4 C12_4 1_555 1_555
C12_4 O23_4 1_555 1_555
O1_4 C1_4 1_555 1_555
O2_4 C1_4 1_555 1_555
O3_4 Cr1_4 1_555 1_555
O5_4 Cr1_4 1_555 1_555
O6_4 C3_4 1_555 1_555
O7_4 Cr1_4 1_555 1_555
O8_4 Mn2_4 1_555 1_555
O9_4 Mn2_4 1_555 1_555
O10_4 C5_4 1_555 1_555
O11_4 Mn2_4 1_555 1_555
O12_4 Cr5_3 1_555 1_555
O13_4 Cr5_3 1_555 1_555
O14_4 C7_4 1_555 1_555
O15_4 Cr5_3 1_555 1_555
O16_4 C8_4 1_555 1_555
O17_4 C9_4 1_555 1_555
O18_4 C9_4 1_555 1_555
O19_4 Cr5_4 1_555 1_555
O20_4 Mn1_9 1_555 1_555
O21_4 Mn1_9 1_555 1_555
O22_4 Cr1_4 1_555 1_555
O23_4 Mn1_9 1_555 1_555
O24_4 Cr1_4 1_555 1_555
Cr3_4 O25_4 1_555 1_555
Cr4_4 O34_4 1_555 1_555
C13_4 C14_4 1_555 1_555
C14_4 O27_4 1_555 1_555
C15_4 C16_4 1_555 1_555
C16_4 O31_4 1_555 1_555
C17_4 C18_4 1_555 1_555
C18_4 O35_4 1_555 1_555
C19_4 C20_4 1_555 1_555
C20_4 O39_4 1_555 1_555
C21_4 C22_4 1_555 1_555
C22_4 O54_3 1_555 1_555
O25_4 C13_4 1_555 1_555
O26_4 C13_4 1_555 1_555
O27_4 Cr3_4 1_555 1_555
O29_4 Cr3_4 1_555 1_555
O30_4 Mn2_4 1_555 1_555
O31_4 Cr3_4 1_555 1_555
O32_4 Mn2_4 1_555 1_555
O33_4 Mn2_4 1_555 1_555
O34_4 C17_4 1_555 1_555
O35_4 Mn2_4 1_555 1_555
O36_4 Cr4_4 1_555 1_555
O37_4 Cr4_4 1_555 1_555
O38_4 C19_4 1_555 1_555
O39_4 Cr4_4 1_555 1_555
O40_4 C20_4 1_555 1_555
O53_3 C21_4 1_555 1_555
O42_4 Cr3_4 1_555 1_555
O44_4 Cr3_4 1_555 1_555
Cr5_4 O17_4 1_555 1_555
O49_4 Cr4_4 1_555 1_555
O51_4 Cr4_4 1_555 1_555
C3_4 O5_4 1_555 1_555
C4_4 O8_4 1_555 1_555
C5_4 O9_4 1_555 1_555
C6_4 O12_4 1_555 1_555
C7_4 O13_4 1_555 1_555
C10_4 O20_4 1_555 1_555
C11_4 O21_4 1_555 1_555
C11_4 O22_4 1_555 1_555
C12_4 O24_4 1_555 1_555
C15_4 O29_4 1_555 1_555
C15_4 O30_4 1_555 1_555
C16_4 O32_4 1_555 1_555
C17_4 O33_4 1_555 1_555
C18_4 O36_4 1_555 1_555
C19_4 O37_4 1_555 1_555
C21_4 O42_4 1_555 1_555
C22_4 O44_4 1_555 1_555
Cr5_4 O10_5 1_555 1_555
C5_5 C6_5 1_555 1_555
C6_5 O11_5 1_555 1_555
C7_5 C8_5 1_555 1_555
C8_5 O15_5 1_555 1_555
O10_5 C5_5 1_555 1_555
O12_5 Cr5_4 1_555 1_555
O13_5 Cr5_4 1_555 1_555
O14_5 C7_5 1_555 1_555
O15_5 Cr5_4 1_555 1_555
Cr4_5 O34_5 1_555 1_555
C17_5 C18_5 1_555 1_555
C18_5 O35_5 1_555 1_555
C19_5 C20_5 1_555 1_555
C20_5 O39_5 1_555 1_555
O34_5 C17_5 1_555 1_555
O36_5 Cr4_5 1_555 1_555
O37_5 Cr4_5 1_555 1_555
O38_5 C19_5 1_555 1_555
O39_5 Cr4_5 1_555 1_555
O49_5 Cr4_5 1_555 1_555
O51_5 Cr4_5 1_555 1_555
C5_5 O9_5 1_555 1_555
C6_5 O12_5 1_555 1_555
C7_5 O13_5 1_555 1_555
C17_5 O33_5 1_555 1_555
C18_5 O36_5 1_555 1_555
C19_5 O37_5 1_555 1_555
Cr1_5 O1_5 1_555 1_555
Mn1_10 O18_5 1_555 1_555
Mn2_5 O6_5 1_555 1_555
C1_5 C2_5 1_555 1_555
C2_5 O3_5 1_555 1_555
C3_5 C4_5 1_555 1_555
C4_5 O7_5 1_555 1_555
C9_5 C10_5 1_555 1_555
C10_5 O19_5 1_555 1_555
C11_5 C12_5 1_555 1_555
C12_5 O23_5 1_555 1_555
O1_5 C1_5 1_555 1_555
O2_5 C1_5 1_555 1_555
O3_5 Cr1_5 1_555 1_555
O4_5 C2_5 1_555 1_555
O5_5 Cr1_5 1_555 1_555
O6_5 C3_5 1_555 1_555
O7_5 Cr1_5 1_555 1_555
O8_5 Mn2_5 1_555 1_555
O17_5 C9_5 1_555 1_555
O18_5 C9_5 1_555 1_555
O19_5 Cr5_5 1_555 1_555
O20_5 Mn1_10 1_555 1_555
O21_5 Mn1_10 1_555 1_555
O22_5 Cr1_5 1_555 1_555
O23_5 Mn1_10 1_555 1_555
O24_5 Cr1_5 1_555 1_555
Cr3_5 O25_5 1_555 1_555
C13_5 C14_5 1_555 1_555
C14_5 O27_5 1_555 1_555
C15_5 C16_5 1_555 1_555
C16_5 O31_5 1_555 1_555
C21_5 C22_5 1_555 1_555
C22_5 O54_4 1_555 1_555
O25_5 C13_5 1_555 1_555
O26_5 C13_5 1_555 1_555
O27_5 Cr3_5 1_555 1_555
O29_5 Cr3_5 1_555 1_555
O30_5 Mn2_5 1_555 1_555
O31_5 Cr3_5 1_555 1_555
O32_5 Mn2_5 1_555 1_555
O53_4 C21_5 1_555 1_555
O42_5 Cr3_5 1_555 1_555
O44_5 Cr3_5 1_555 1_555
Cr5_5 O17_5 1_555 1_555
O50_5 Mn1_10 1_555 1_555
O52_5 Mn1_10 1_555 1_555
O53_5 Mn1_10 1_555 1_555
O54_5 Mn1_10 1_555 1_555
C3_5 O5_5 1_555 1_555
C4_5 O8_5 1_555 1_555
C10_5 O20_5 1_555 1_555
C11_5 O21_5 1_555 1_555
C11_5 O22_5 1_555 1_555
C12_5 O24_5 1_555 1_555
C15_5 O29_5 1_555 1_555
C15_5 O30_5 1_555 1_555
C16_5 O32_5 1_555 1_555
C21_5 O42_5 1_555 1_555
C22_5 O44_5 1_555 1_555
Cr5_5 O10_6 1_555 1_555
C5_6 C6_6 1_555 1_555
C6_6 O11_6 1_555 1_555
C7_6 C8_6 1_555 1_555
C8_6 O15_6 1_555 1_555
O10_6 C5_6 1_555 1_555
O12_6 Cr5_5 1_555 1_555
O13_6 Cr5_5 1_555 1_555
O14_6 C7_6 1_555 1_555
O15_6 Cr5_5 1_555 1_555
Cr4_6 O34_6 1_555 1_555
C17_6 C18_6 1_555 1_555
C18_6 O35_6 1_555 1_555
C19_6 C20_6 1_555 1_555
C20_6 O39_6 1_555 1_555
O34_6 C17_6 1_555 1_555
O36_6 Cr4_6 1_555 1_555
O37_6 Cr4_6 1_555 1_555
O38_6 C19_6 1_555 1_555
O39_6 Cr4_6 1_555 1_555
O49_6 Cr4_6 1_555 1_555
O51_6 Cr4_6 1_555 1_555
C5_6 O9_6 1_555 1_555
C6_6 O12_6 1_555 1_555
C7_6 O13_6 1_555 1_555
C17_6 O33_6 1_555 1_555
C18_6 O36_6 1_555 1_555
C19_6 O37_6 1_555 1_555
Cr1_6 O1_6 1_555 1_555
Mn2_6 O6_6 1_555 1_555
C1_6 C2_6 1_555 1_555
C2_6 O3_6 1_555 1_555
C3_6 C4_6 1_555 1_555
C4_6 O7_6 1_555 1_555
C11_6 C12_6 1_555 1_555
C12_6 O23_6 1_555 1_555
O1_6 C1_6 1_555 1_555
O2_6 C1_6 1_555 1_555
O3_6 Cr1_6 1_555 1_555
O5_6 Cr1_6 1_555 1_555
O6_6 C3_6 1_555 1_555
O7_6 Cr1_6 1_555 1_555
O8_6 Mn2_6 1_555 1_555
O21_6 Mn4 1_555 1_555
O22_6 Cr1_6 1_555 1_555
O23_6 Mn4 1_555 1_555
O24_6 Cr1_6 1_555 1_555
Cr3_6 O25_6 1_555 1_555
C13_6 C14_6 1_555 1_555
C14_6 O27_6 1_555 1_555
C15_6 C16_6 1_555 1_555
C16_6 O31_6 1_555 1_555
C21_6 C22_6 1_555 1_555
C22_6 O54_5 1_555 1_555
O25_6 C13_6 1_555 1_555
O26_6 C13_6 1_555 1_555
O27_6 Cr3_6 1_555 1_555
O28_6 C14_6 1_555 1_555
O29_6 Cr3_6 1_555 1_555
O30_6 Mn2_6 1_555 1_555
O31_6 Cr3_6 1_555 1_555
O32_6 Mn2_6 1_555 1_555
O53_5 C21_6 1_555 1_555
O42_6 Cr3_6 1_555 1_555
O44_6 Cr3_6 1_555 1_555
C3_6 O5_6 1_555 1_555
C4_6 O8_6 1_555 1_555
C11_6 O21_6 1_555 1_555
C11_6 O22_6 1_555 1_555
C12_6 O24_6 1_555 1_555
C15_6 O29_6 1_555 1_555
C15_6 O30_6 1_555 1_555
C16_6 O32_6 1_555 1_555
C21_6 O42_6 1_555 1_555
C22_6 O44_6 1_555 1_555
O50_6 Mn4_2 1_555 1_555
O52_6 Mn4_2 1_555 1_555
C9_6 C10_6 1_555 1_555
C10_6 O51_6 1_555 1_555
O49_6 C9_6 1_555 1_555
O50_6 C9_6 1_555 1_555
C23_2 C24_2 1_555 1_555
C24_2 O51 1_555 1_555
O50 C23_2 1_555 1_555
C10_6 O52_6 1_555 1_555
C23_2 O49 1_555 1_555
C23_3 C24_3 1_555 1_555
C24_3 O51_2 1_555 1_555
O50_2 C23_3 1_555 1_555
O52_2 C24_3 1_555 1_555
C23_3 O49_2 1_555 1_555
C23_4 C24_4 1_555 1_555
C24_4 O51_3 1_555 1_555
O50_3 C23_4 1_555 1_555
O52_3 C24_4 1_555 1_555
C23_4 O49_3 1_555 1_555
C23_5 C24_5 1_555 1_555
C24_5 O51_4 1_555 1_555
O50_4 C23_5 1_555 1_555
O52_4 C24_5 1_555 1_555
C23_5 O49_4 1_555 1_555
C23_6 C24_6 1_555 1_555
C24_6 O51_5 1_555 1_555
O50_5 C23_6 1_555 1_555
O52_5 C24_6 1_555 1_555
C23_6 O49_5 1_555 1_555
N1 C25 1_555 1_555
H2 N1 1_555 1_555
C26 N1 1_555 1_555
H3 C26 1_555 1_555
N2 C25_2 1_555 1_555
H4 N2 1_555 1_555
H5 C27 1_555 1_555
N2 C27 1_555 1_555
N1_2 C25_3 1_555 1_555
H2_2 N1_2 1_555 1_555
C26_2 N1_2 1_555 1_555
H3_2 C26_2 1_555 1_555
H4_2 N2_2 1_555 1_555
H5_2 C27_2 1_555 1_555
N2_2 C27_2 1_555 1_555
N2_2 C25_5 1_555 1_555
N1_3 C25_6 1_555 1_555
H2_3 N1_3 1_555 1_555
C26_3 N1_3 1_555 1_555
H3_3 C26_3 1_555 1_555
N2_3 C25_6 1_555 1_555
H4_3 N2_3 1_555 1_555
C27_3 C26_3 1_555 1_555
H5_3 C27_3 1_555 1_555
N2_3 C27_3 1_555 1_555
N2_4 C25_7 1_555 1_555
H4_4 N2_4 1_555 1_555
H5_4 C27_4 1_555 1_555
N2_4 C27_4 1_555 1_555
N1_4 C25_8 1_555 1_555
H2_4 N1_4 1_555 1_555
C26_4 N1_4 1_555 1_555
H3_4 C26_4 1_555 1_555
N2_5 C25_9 1_555 1_555
H4_5 N2_5 1_555 1_555
H5_5 C27_5 1_555 1_555
N2_5 C27_5 1_555 1_555
N1_5 C25_10 1_555 1_555
H2_5 N1_5 1_555 1_555
C26_5 N1_5 1_555 1_555
H3_5 C26_5 1_555 1_555
N1_6 C25_11 1_555 1_555
H2_6 N1_6 1_555 1_555
C26_6 N1_6 1_555 1_555
H3_6 C26_6 1_555 1_555
N2_6 C25_11 1_555 1_555
H4_6 N2_6 1_555 1_555
C27_6 C26_6 1_555 1_555
H5_6 C27_6 1_555 1_555
N2_6 C27_6 1_555 1_555

#END
