
###############################################################################
#
# This file contains modified crystal structure data generated from the
# MOF subset of the Cambridge Structural Database (CSD) v543 
# hosted by the Cambridge Crystallographic Data Centre (CCDC).
#
# This work is licensed under the Creative Commons
# Attribution-NonCommercial-ShareAlike 4.0 International License.
# To view a copy of this license, visit
# http://creativecommons.org/licenses/by-nc-sa/4.0/
# or send a letter to
# Creative Commons, PO Box 1866, Mountain View, CA 94042, USA.
#
# CIF created using the CSD Python API on 29 September 2022
# The structure has been converted into the P1 space group
# The structure has a 3D framework
# The original CSD entry PEJFUG is in the monoclinic crystal system
# The framework has been calculated to contain at least 10.0% void space
# The void calculation uses a probe of radius 1.32A, grid spacing 0.4
# The framework is charged, counterions have been retained in the structure
# H atom positions have been added when not included in the experimental data
#
###############################################################################

data_PEJFUG
_chemical_formula_moiety         '(C8 H16 Ga16 O91 P22 9-)n'
_symmetry_cell_setting           triclinic
_symmetry_space_group_name_H-M   'P 1'
_symmetry_Int_Tables_number      1
_space_group_name_Hall           'P 1'
loop_
_symmetry_equiv_pos_site_id
_symmetry_equiv_pos_as_xyz
1 x,y,z
_cell_length_a                   20.131(5)
_cell_length_b                   15.670(4)
_cell_length_c                   9.097(2)
_cell_angle_alpha                90
_cell_angle_beta                 105.988(4)
_cell_angle_gamma                90
_cell_volume                     2758.67
loop_
_atom_site_label
_atom_site_type_symbol
_atom_site_fract_x
_atom_site_fract_y
_atom_site_fract_z
O25 O 0.2625(3) 0.0308(3) 0.0745(5)
O30 O 0.3260(3) 0.1810(3) 0.0275(5)
Ga1 Ga 0.16196(3) 0.13569(4) 0.33238(7)
P2 P 0.14413(9) 0.23309(11) 0.00449(18)
P3 P -0.0000 0.18896(17) 0.2500
C1 C 0.2198(3) 0.2757(4) 0.5113(7)
O1 O 0.1608(2) 0.2459(3) 0.4585(5)
O2 O 0.2339(2) 0.3458(3) 0.5826(5)
O3 O 0.0630(2) 0.1334(3) 0.2696(5)
O4 O 0.1697(3) 0.2136(3) 0.1726(5)
O5 O 0.1707(3) 0.0351(3) 0.2178(5)
O12 O 0.0073(4) 0.2489(6) 0.3867(12)
Ga3 Ga 0.33804(3) 0.36431(4) 0.66762(7)
Ga7 Ga 0.25196(5) 0.11628(5) 0.93563(8)
Ga9 Ga 0.24804(5) 0.38372(5) 0.06437(8)
P4 P 0.21073(8) 0.02035(10) 0.63595(16)
C2 C 0.2802(3) 0.2243(4) 0.4887(7)
O13 O 0.3392(2) 0.2541(3) 0.5415(5)
O14 O 0.2661(2) 0.1542(3) 0.4174(5)
O16 O 0.4370(2) 0.3666(3) 0.7304(5)
O18 O 0.3303(3) 0.2864(3) 0.8274(5)
O20 O 0.3293(3) 0.4649(3) 0.7822(5)
O21 O 0.2566(3) 0.0840(3) 0.7477(5)
O22 O 0.1596(2) 0.0672(3) 0.5082(5)
O23 O 0.3404(2) 0.4328(3) 0.4918(5)
O27 O 0.1678(3) 0.1646(4) 0.9095(6)
H1 H 0.0480859 0.286443 0.397242
O10 O 0.1740(3) 0.3190(3) 0.9725(5)
O11 O 0.0663(3) 0.2381(4) 0.9438(6)
Ga2 Ga 0.25196(5) 0.88372(5) 0.43563(8)
P1 P 0.21073(8) 0.97965(10) 0.13595(16)
O6 O 0.2566(3) 0.9160(3) 0.2477(5)
O7 O 0.1596(2) 0.9328(3) 0.0082(5)
Ga6 Ga 0.16196(3) 0.86431(4) 0.83238(7)
Ga10 Ga 0.24804(5) 0.61628(5) 0.56437(8)
P5 P 0.14413(9) 0.76691(11) 0.50449(18)
O17 O 0.1697(3) 0.7864(3) 0.6726(5)
O19 O 0.1707(3) 0.9649(3) 0.7178(5)
O24 O 0.2625(3) 0.9692(3) 0.5745(5)
O26 O 0.1678(3) 0.8354(4) 0.4095(6)
O28 O 0.1740(3) 0.6810(3) 0.4725(5)
O29 O 0.3260(3) 0.8190(3) 0.5275(5)
O31 O 0.0663(3) 0.7619(4) 0.4438(6)
P3_2 P 1.0000 0.18896(17) 0.2500
Ga5 Ga 0.83804(3) 0.13569(4) 0.16762(7)
O15 O 0.9370(2) 0.1334(3) 0.2304(5)
O32 O 0.9927(4) 0.2489(6) 0.1133(12)
H2 H 0.987832 0.214629 0.0191022
O25_2 O 0.7625(3) 0.5308(3) 0.0745(5)
O30_2 O 0.8260(3) 0.6810(3) 0.0275(5)
Ga1_2 Ga 0.66196(3) 0.63569(4) 0.33238(7)
Ga2_2 Ga 0.75196(5) 0.38372(5) 0.43563(8)
P1_2 P 0.71073(8) 0.47965(10) 0.13595(16)
P2_2 P 0.64413(9) 0.73309(11) 0.00449(18)
P3_3 P 0.5000 0.68896(17) 0.2500
C1_2 C 0.7198(3) 0.7757(4) 0.5113(7)
O1_2 O 0.6608(2) 0.7459(3) 0.4585(5)
O2_2 O 0.7339(2) 0.8458(3) 0.5826(5)
O3_2 O 0.5630(2) 0.6334(3) 0.2696(5)
O4_2 O 0.6697(3) 0.7136(3) 0.1726(5)
O5_2 O 0.6707(3) 0.5351(3) 0.2178(5)
O6_2 O 0.7566(3) 0.4160(3) 0.2477(5)
O7_2 O 0.6596(2) 0.4328(3) 0.0082(5)
O12_2 O 0.5073(4) 0.7489(6) 0.3867(12)
Ga3_2 Ga 0.83804(3) 0.86431(4) 0.66762(7)
Ga5_2 Ga 0.33804(3) 0.63569(4) 0.16762(7)
Ga6_2 Ga 0.66196(3) 0.36431(4) 0.83238(7)
Ga7_2 Ga 0.75196(5) 0.61628(5) 0.93563(8)
Ga9_2 Ga 0.74804(5) 0.88372(5) 0.06437(8)
Ga10_2 Ga 0.74804(5) 0.11628(5) 0.56437(8)
P4_2 P 0.71073(8) 0.52035(10) 0.63595(16)
P5_2 P 0.64413(9) 0.26691(11) 0.50449(18)
C2_2 C 0.7802(3) 0.7243(4) 0.4887(7)
O13_2 O 0.8392(2) 0.7541(3) 0.5415(5)
O14_2 O 0.7661(2) 0.6542(3) 0.4174(5)
O15_2 O 0.4370(2) 0.6334(3) 0.2304(5)
O16_2 O 0.9370(2) 0.8666(3) 0.7304(5)
O17_2 O 0.6697(3) 0.2864(3) 0.6726(5)
O18_2 O 0.8303(3) 0.7864(3) 0.8274(5)
O19_2 O 0.6707(3) 0.4649(3) 0.7178(5)
O20_2 O 0.8293(3) 0.9649(3) 0.7822(5)
O21_2 O 0.7566(3) 0.5840(3) 0.7477(5)
O22_2 O 0.6596(2) 0.5672(3) 0.5082(5)
O23_2 O 0.8404(2) 0.9328(3) 0.4918(5)
O24_2 O 0.7625(3) 0.4692(3) 0.5745(5)
O26_2 O 0.6678(3) 0.3354(4) 0.4095(6)
O27_2 O 0.6678(3) 0.6646(4) 0.9095(6)
O28_2 O 0.6740(3) 0.1810(3) 0.4725(5)
O29_2 O 0.8260(3) 0.3190(3) 0.5275(5)
O31_2 O 0.5663(3) 0.2619(4) 0.4438(6)
O32_2 O 0.4927(4) 0.7489(6) 0.1133(12)
H1_2 H 0.548086 0.786443 0.397242
H2_2 H 0.487832 0.714629 0.0191022
O10_2 O 0.6740(3) 0.8190(3) 0.9725(5)
O11_2 O 0.5663(3) 0.7381(4) 0.9438(6)
H2_3 H 0.0121682 0.214629 0.480898
P2_3 P 0.85587(9) 0.23309(11) 0.49551(18)
O1_3 O 0.8392(2) 0.2459(3) 0.0415(5)
O4_3 O 0.8303(3) 0.2136(3) 0.3274(5)
O5_3 O 0.8293(3) 0.0351(3) 0.2822(5)
O8 O 0.7375(3) 0.0308(3) 0.4255(5)
O9 O 0.8322(3) 0.1646(4) 0.5905(6)
O11_3 O 0.9337(3) 0.2381(4) 0.5562(6)
C2_3 C 0.7198(3) 0.2243(4) 0.0113(7)
O14_3 O 0.7339(2) 0.1542(3) 0.0826(5)
H1_3 H 0.951914 0.286443 0.102758
C1_3 C 0.7802(3) 0.2757(4) 0.9887(7)
O2_3 O 0.7661(2) 0.3458(3) 0.9174(5)
P4_3 P 0.78927(8) 0.02035(10) 0.86405(16)
O13_3 O 0.6608(2) 0.2541(3) 0.9585(5)
O16_3 O 0.5630(2) 0.3666(3) 0.7696(5)
O21_3 O 0.7434(3) 0.0840(3) 0.7523(5)
O22_3 O 0.8404(2) 0.0672(3) 0.9918(5)
P1_3 P 0.78927(8) 0.97965(10) 0.36405(16)
O6_3 O 0.7434(3) 0.9160(3) 0.2523(5)
O26_3 O 0.8322(3) 0.8354(4) 0.0905(6)
O31_3 O 0.9337(3) 0.7619(4) 0.0562(6)
P5_3 P 0.85587(9) 0.76691(11) 0.99551(18)
O24_3 O 0.7375(3) 0.9692(3) 0.9255(5)
P1_4 P 0.28927(8) 0.47965(10) 0.36405(16)
P2_4 P 0.35587(9) 0.73309(11) 0.49551(18)
O1_4 O 0.3392(2) 0.7459(3) 0.0415(5)
O4_4 O 0.3303(3) 0.7136(3) 0.3274(5)
O5_4 O 0.3293(3) 0.5351(3) 0.2822(5)
O6_4 O 0.2434(3) 0.4160(3) 0.2523(5)
O8_2 O 0.2375(3) 0.5308(3) 0.4255(5)
O9_2 O 0.3322(3) 0.6646(4) 0.5905(6)
O11_4 O 0.4337(3) 0.7381(4) 0.5562(6)
C2_4 C 0.2198(3) 0.7243(4) 0.0113(7)
O14_4 O 0.2339(2) 0.6542(3) 0.0826(5)
O26_4 O 0.3322(3) 0.3354(4) 0.0905(6)
O31_4 O 0.4337(3) 0.2619(4) 0.0562(6)
H1_4 H 0.451914 0.786443 0.102758
H2_4 H 0.512168 0.714629 0.480898
C1_4 C 0.2802(3) 0.7757(4) 0.9887(7)
O2_4 O 0.2661(2) 0.8458(3) 0.9174(5)
P4_4 P 0.28927(8) 0.52035(10) 0.86405(16)
P5_4 P 0.35587(9) 0.26691(11) 0.99551(18)
O13_4 O 0.1608(2) 0.7541(3) 0.9585(5)
O16_4 O 0.0630(2) 0.8666(3) 0.7696(5)
O21_4 O 0.2434(3) 0.5840(3) 0.7523(5)
O22_4 O 0.3404(2) 0.5672(3) 0.9918(5)
O24_4 O 0.2375(3) 0.4692(3) 0.9255(5)
P3_4 P -0.0000 0.81104(17) 0.7500
O32_3 O 0.0073(4) 0.7511(6) 0.8867(12)
H2_5 H 0.0121682 0.785371 0.980898
P3_5 P 1.0000 0.81104(17) 0.7500
O12_3 O 0.9927(4) 0.7511(6) 0.6133(12)
H1_5 H 0.951914 0.713557 0.602758
P3_6 P 0.5000 0.31104(17) 0.7500
O12_4 O 0.4927(4) 0.2511(6) 0.6133(12)
O32_4 O 0.5073(4) 0.2511(6) 0.8867(12)
H1_6 H 0.451914 0.213557 0.602758
H2_6 H 0.512168 0.285371 0.980898
H1_7 H 0.0480859 0.713557 0.897242
H2_7 H 0.987832 0.785371 0.519102
H1_8 H 0.548086 0.213557 0.897242
H2_8 H 0.487832 0.285371 0.519102
loop_
_geom_bond_atom_site_label_1
_geom_bond_atom_site_label_2
_geom_bond_site_symmetry_1
_geom_bond_site_symmetry_2
Ga1 O1 1_555 1_555
P2 O4 1_555 1_555
P3 O3 1_555 1_555
C1 O1 1_555 1_555
O2 C1 1_555 1_555
O3 Ga1 1_555 1_555
O4 Ga1 1_555 1_555
O5 Ga1 1_555 1_555
O12 P3 1_555 1_555
Ga3 O2 1_555 1_555
Ga7 O21 1_555 1_555
C2 C1 1_555 1_555
O13 Ga3 1_555 1_555
O14 Ga1 1_555 1_555
O16 Ga3 1_555 1_555
O18 Ga3 1_555 1_555
O20 Ga3 1_555 1_555
O21 P4 1_555 1_555
O22 Ga1 1_555 1_555
O23 Ga3 1_555 1_555
O27 Ga7 1_555 1_555
P4 O22 1_555 1_555
C2 O13 1_555 1_555
C2 O14 1_555 1_555
O12 H1 1_555 1_555
Ga2 O6 1_555 1_555
O6 P1 1_555 1_555
O7 P1 1_555 1_555
Ga6 O17 1_555 1_555
Ga10 O28 1_555 1_555
P5 O17 1_555 1_555
O19 Ga6 1_555 1_555
O24 Ga2 1_555 1_555
O26 Ga2 1_555 1_555
O28 P5 1_555 1_555
O29 Ga2 1_555 1_555
O31 P5 1_555 1_555
P5 O26 1_555 1_555
Ga5 O15 1_555 1_555
O15 P3_2 1_555 1_555
O32 P3_2 1_555 1_555
O32 H2 1_555 1_555
Ga1_2 O1_2 1_555 1_555
Ga2_2 O6_2 1_555 1_555
P1_2 O5_2 1_555 1_555
P2_2 O4_2 1_555 1_555
P3_3 O3_2 1_555 1_555
C1_2 O1_2 1_555 1_555
O2_2 C1_2 1_555 1_555
O3_2 Ga1_2 1_555 1_555
O4_2 Ga1_2 1_555 1_555
O5_2 Ga1_2 1_555 1_555
O6_2 P1_2 1_555 1_555
O7_2 P1_2 1_555 1_555
O25_2 P1_2 1_555 1_555
O12_2 P3_3 1_555 1_555
Ga3_2 O2_2 1_555 1_555
Ga5_2 O15_2 1_555 1_555
Ga6_2 O17_2 1_555 1_555
Ga7_2 O21_2 1_555 1_555
Ga10_2 O28_2 1_555 1_555
P4_2 O19_2 1_555 1_555
P5_2 O17_2 1_555 1_555
C2_2 C1_2 1_555 1_555
O13_2 Ga3_2 1_555 1_555
O14_2 Ga1_2 1_555 1_555
O15_2 P3_3 1_555 1_555
O16_2 Ga3_2 1_555 1_555
O18_2 Ga3_2 1_555 1_555
O19_2 Ga6_2 1_555 1_555
O20_2 Ga3_2 1_555 1_555
O21_2 P4_2 1_555 1_555
O22_2 Ga1_2 1_555 1_555
O23_2 Ga3_2 1_555 1_555
O24_2 Ga2_2 1_555 1_555
O26_2 Ga2_2 1_555 1_555
O27_2 Ga7_2 1_555 1_555
O28_2 P5_2 1_555 1_555
O29_2 Ga2_2 1_555 1_555
O31_2 P5_2 1_555 1_555
O32_2 P3_3 1_555 1_555
P4_2 O22_2 1_555 1_555
P4_2 O24_2 1_555 1_555
P5_2 O26_2 1_555 1_555
C2_2 O13_2 1_555 1_555
C2_2 O14_2 1_555 1_555
O12_2 H1_2 1_555 1_555
O32_2 H2_2 1_555 1_555
O12 H2_3 1_555 1_555
Ga5 O1_3 1_555 1_555
P2_3 O4_3 1_555 1_555
O4_3 Ga5 1_555 1_555
O5_3 Ga5 1_555 1_555
O9 P2_3 1_555 1_555
O29_2 P2_3 1_555 1_555
O11_3 P2_3 1_555 1_555
Ga10_2 O8 1_555 1_555
O14_3 Ga5 1_555 1_555
O9 Ga10_2 1_555 1_555
C2_3 O14_3 1_555 1_555
O32 H1_3 1_555 1_555
O2_3 C1_3 1_555 1_555
Ga6_2 O2_3 1_555 1_555
Ga10_2 O21_3 1_555 1_555
O13_3 Ga6_2 1_555 1_555
O16_3 Ga6_2 1_555 1_555
O21_3 P4_3 1_555 1_555
P4_3 O22_3 1_555 1_555
Ga9_2 O6_3 1_555 1_555
O6_3 P1_3 1_555 1_555
O23_2 P1_3 1_555 1_555
O26_3 Ga9_2 1_555 1_555
P5_3 O18_2 1_555 1_555
Ga5_2 O1_4 1_555 1_555
Ga9 O6_4 1_555 1_555
P1_4 O5_4 1_555 1_555
P2_4 O4_4 1_555 1_555
O4_4 Ga5_2 1_555 1_555
O5_4 Ga5_2 1_555 1_555
O6_4 P1_4 1_555 1_555
O23 P1_4 1_555 1_555
O8_2 P1_4 1_555 1_555
O9_2 P2_4 1_555 1_555
O29 P2_4 1_555 1_555
O11_4 P2_4 1_555 1_555
Ga10 O8_2 1_555 1_555
O14_4 Ga5_2 1_555 1_555
O26_4 Ga9 1_555 1_555
O9_2 Ga10 1_555 1_555
C2_4 O14_4 1_555 1_555
O32_2 H1_4 1_555 1_555
O12_2 H2_4 1_555 1_555
O2_4 C1_4 1_555 1_555
Ga6 O2_4 1_555 1_555
Ga10 O21_4 1_555 1_555
P4_4 O20 1_555 1_555
P5_4 O18 1_555 1_555
O13_4 Ga6 1_555 1_555
O16_4 Ga6 1_555 1_555
O21_4 P4_4 1_555 1_555
P4_4 O22_4 1_555 1_555
P4_4 O24_4 1_555 1_555
O16_4 P3_4 1_555 1_555
O32_3 P3_4 1_555 1_555
O32_3 H2_5 1_555 1_555
P3_5 O16_2 1_555 1_555
O12_3 P3_5 1_555 1_555
O12_3 H1_5 1_555 1_555
P3_6 O16 1_555 1_555
O12_4 P3_6 1_555 1_555
O16_3 P3_6 1_555 1_555
O32_4 P3_6 1_555 1_555
O12_4 H1_6 1_555 1_555
O32_4 H2_6 1_555 1_555
O32_3 H1_7 1_555 1_555
O12_3 H2_7 1_555 1_555
O32_4 H1_8 1_555 1_555
O12_4 H2_8 1_555 1_555

#END
