
###############################################################################
#
# This file contains modified crystal structure data generated from the
# MOF subset of the Cambridge Structural Database (CSD) v543 
# hosted by the Cambridge Crystallographic Data Centre (CCDC).
#
# This work is licensed under the Creative Commons
# Attribution-NonCommercial-ShareAlike 4.0 International License.
# To view a copy of this license, visit
# http://creativecommons.org/licenses/by-nc-sa/4.0/
# or send a letter to
# Creative Commons, PO Box 1866, Mountain View, CA 94042, USA.
#
# CIF created using the CSD Python API on 29 September 2022
# The structure has been converted into the P1 space group
# The structure has a 3D framework
# The original CSD entry PEJLOH is in the monoclinic crystal system
# The framework has been calculated to contain at least 10.0% void space
# The void calculation uses a probe of radius 1.32A, grid spacing 0.4
#
###############################################################################

data_PEJLOH
_chemical_formula_moiety         '(C176 H136 Co8 N16 O32)n'
_symmetry_cell_setting           triclinic
_symmetry_space_group_name_H-M   'P 1'
_symmetry_Int_Tables_number      1
_space_group_name_Hall           'P 1'
loop_
_symmetry_equiv_pos_site_id
_symmetry_equiv_pos_as_xyz
1 x,y,z
_cell_length_a                   21.679(4)
_cell_length_b                   10.889(2)
_cell_length_c                   20.104(4)
_cell_angle_alpha                90
_cell_angle_beta                 120.43(3)
_cell_angle_gamma                90
_cell_volume                     4092.06
loop_
_atom_site_label
_atom_site_type_symbol
_atom_site_fract_x
_atom_site_fract_y
_atom_site_fract_z
C22 C 0.0000 0.0025(4) 0.2500
C23 C 0.0000 0.1397(5) 0.2500
O4 O 0.03695(15) 0.1933(2) 0.22663(18)
Co4 Co 0.03755(2) 0.37519(4) 0.20528(2)
C2 C 0.0225(2) 0.2570(4) 0.0357(2)
H4 H 0.0413 0.1925 0.0176
H5 H 0.0067 0.2195 0.0683
C3 C 0.0804(2) 0.3466(4) 0.0821(2)
C4 C 0.15364(19) 0.4710(4) 0.1726(2)
C5 C 0.1893(2) 0.5449(5) 0.2369(3)
H6 H 0.1753 0.5494 0.2737
C6 C 0.2471(3) 0.6126(5) 0.2444(3)
H7 H 0.2727 0.6623 0.2875
C7 C 0.2674(3) 0.6076(6) 0.1884(3)
H8 H 0.3059 0.6546 0.1950
C8 C 0.2321(2) 0.5355(5) 0.1245(3)
H9 H 0.2459 0.5317 0.0876
C9 C 0.1740(2) 0.4672(4) 0.1168(2)
C13 C 0.2344(3) 0.2314(6) 0.0562(3)
H13 H 0.2239 0.2176 0.0951
C14 C 0.11979(18) 0.3495(3) 0.3741(2)
C15 C 0.18733(17) 0.2993(3) 0.43966(18)
C16 C 0.18471(18) 0.2173(4) 0.4909(2)
H14 H 0.1407 0.1951 0.4848
C17 C 0.25303(18) 0.3316(4) 0.4490(2)
H15 H 0.2553 0.3864 0.4148
C18 C 0.0000 0.6104(4) 0.2500
C19 C 0.0000 0.7473(4) 0.2500
C20 C 0.0385(2) 0.8122(4) 0.2236(2)
H16 H 0.0638 0.7699 0.2047
C21 C 0.0397(2) 0.9381(4) 0.2250(3)
H17 H 0.0672 0.9805 0.2091
N1 N 0.09436(16) 0.3935(3) 0.14857(18)
N2 N 0.12672(19) 0.3881(3) 0.06030(19)
O1 O 0.12186(13) 0.3867(2) 0.31639(14)
O2 O 0.06527(13) 0.3495(2) 0.38163(15)
O3 O 0.02029(13) 0.5572(2) 0.20869(14)
C24 C 0.5389(4) 0.1855(8) 0.0308(4)
H18 H 0.5621 0.1304 0.0131
H19 H 0.5720 0.2478 0.0627
H20 H 0.5227 0.1405 0.0602
C33 C 0.3761(3) 0.1335(5) 0.0129(3)
H27 H 0.3835 0.0556 0.0393
H28 H 0.4170 0.1852 0.0450
C34 C 0.3098(2) 0.1934(4) 0.0047(2)
C35 C 0.2936(3) 0.1761(5) 0.0609(3)
H29 H 0.3226 0.1264 0.1029
C37 C 0.38021(18) 0.1505(3) 0.6259(2)
C38 C 0.31267(17) 0.2007(3) 0.56034(18)
C39 C 0.31529(18) 0.2827(4) 0.5091(2)
H31 H 0.3593 0.3049 0.5152
C40 C 0.24697(18) 0.1684(4) 0.5510(2)
H32 H 0.2447 0.1136 0.5852
Co5 Co 0.46245(2) 0.12481(4) 0.79472(2)
Co6 Co 0.53755(2) 0.12481(4) 0.70528(2)
O5 O 0.37814(13) 0.1133(2) 0.68361(14)
O7 O 0.43473(13) 0.1505(2) 0.61837(15)
C10 C 0.1239(3) 0.3665(5) 0.9871(3)
H10 H 0.1165 0.4444 0.9607
H11 H 0.0830 0.3148 0.9550
C11 C 0.1902(2) 0.3066(4) 0.9953(2)
C12 C 0.2064(3) 0.3239(5) 0.9391(3)
H12 H 0.1774 0.3736 0.8971
C25 C 0.4775(2) 0.2430(4) 0.9643(2)
H21 H 0.4587 0.3075 0.9824
H22 H 0.4933 0.2805 0.9317
C26 C 0.4196(2) 0.1534(4) 0.9179(2)
C27 C 0.34636(19) 0.0290(4) 0.8274(2)
C32 C 0.3260(2) 0.0328(4) 0.8832(2)
C36 C 0.2656(3) 0.2686(6) 0.9438(3)
H30 H 0.2761 0.2824 0.9049
N3 N 0.40564(16) 0.1065(3) 0.85143(18)
N4 N 0.37328(19) 0.1119(3) 0.93970(19)
O9 O 0.56527(13) 0.1505(2) 0.88163(15)
O14 O 0.46305(15) 0.3067(2) 0.77337(18)
C28 C 0.3107(2) 0.9551(5) 0.7631(3)
H23 H 0.3247 0.9506 0.7263
C29 C 0.2529(3) 0.8874(5) 0.7556(3)
H24 H 0.2273 0.8377 0.7125
C30 C 0.2326(3) 0.8924(6) 0.8116(3)
H25 H 0.1941 0.8454 0.8050
C31 C 0.2679(2) 0.9645(5) 0.8755(3)
H26 H 0.2541 0.9683 0.9124
O11 O 0.47971(13) 0.9428(2) 0.79131(14)
C22_2 C 1.0000 0.0025(4) 0.2500
C23_2 C 1.0000 0.1397(5) 0.2500
Co7 Co 0.96245(2) 0.37519(4) 0.29472(2)
O12 O 0.96305(15) 0.1933(2) 0.27337(18)
C18_2 C 1.0000 0.6104(4) 0.2500
C19_2 C 1.0000 0.7473(4) 0.2500
C41 C 0.9615(2) 0.8122(4) 0.2764(2)
H33 H 0.9362 0.7699 0.2953
C42 C 0.9603(2) 0.9381(4) 0.2750(3)
H34 H 0.9328 0.9805 0.2909
O8 O 0.93473(13) 0.3495(2) 0.11837(15)
O10 O 0.97971(13) 0.5572(2) 0.29131(14)
C1 C 0.9611(4) 0.3145(8) 0.9692(4)
H1 H 0.9379 0.3696 0.9869
H2 H 0.9280 0.2522 0.9373
H3 H 0.9773 0.3595 0.9398
C1_2 C 0.0389(4) 0.3145(8) 0.5308(4)
H1_2 H 0.0621 0.3696 0.5131
H2_2 H 0.0720 0.2522 0.5627
H3_2 H 0.0227 0.3595 0.5602
C2_2 C 0.9775(2) 0.2570(4) 0.4643(2)
H4_2 H 0.9587 0.1925 0.4824
H5_2 H 0.9933 0.2195 0.4317
C3_2 C 0.9196(2) 0.3466(4) 0.4179(2)
C4_2 C 0.84636(19) 0.4710(4) 0.3274(2)
C5_2 C 0.8107(2) 0.5449(5) 0.2631(3)
H6_2 H 0.8247 0.5494 0.2263
C6_2 C 0.7529(3) 0.6126(5) 0.2556(3)
H7_2 H 0.7273 0.6623 0.2125
C7_2 C 0.7326(3) 0.6076(6) 0.3116(3)
H8_2 H 0.6941 0.6546 0.3050
C8_2 C 0.7679(2) 0.5355(5) 0.3755(3)
H9_2 H 0.7541 0.5317 0.4124
C9_2 C 0.8260(2) 0.4672(4) 0.3832(2)
C10_2 C 0.8761(3) 0.3665(5) 0.5129(3)
H10_2 H 0.8835 0.4444 0.5393
H11_2 H 0.9170 0.3148 0.5450
C11_2 C 0.8098(2) 0.3066(4) 0.5047(2)
C12_2 C 0.7936(3) 0.3239(5) 0.5609(3)
H12_2 H 0.8226 0.3736 0.6029
C13_2 C 0.7656(3) 0.2314(6) 0.4438(3)
H13_2 H 0.7761 0.2176 0.4049
C14_2 C 0.88021(18) 0.3495(3) 0.1259(2)
C15_2 C 0.81267(17) 0.2993(3) 0.06034(18)
C16_2 C 0.81529(18) 0.2173(4) 0.0091(2)
H14_2 H 0.8593 0.1951 0.0152
C17_2 C 0.74697(18) 0.3316(4) 0.0510(2)
H15_2 H 0.7447 0.3864 0.0852
N1_2 N 0.90564(16) 0.3935(3) 0.35143(18)
N2_2 N 0.87328(19) 0.3881(3) 0.43970(19)
O1_2 O 0.87814(13) 0.3867(2) 0.18361(14)
C24_2 C 0.4611(4) 0.1855(8) 0.4692(4)
H18_2 H 0.4379 0.1304 0.4869
H19_2 H 0.4280 0.2478 0.4373
H20_2 H 0.4773 0.1405 0.4398
C25_2 C 0.5225(2) 0.2430(4) 0.5357(2)
H21_2 H 0.5413 0.3075 0.5176
H22_2 H 0.5067 0.2805 0.5683
C26_2 C 0.5804(2) 0.1534(4) 0.5821(2)
C27_2 C 0.65364(19) 0.0290(4) 0.6726(2)
C32_2 C 0.6740(2) 0.0328(4) 0.6168(2)
C33_2 C 0.6239(3) 0.1335(5) 0.4871(3)
H27_2 H 0.6165 0.0556 0.4607
H28_2 H 0.5830 0.1852 0.4550
C34_2 C 0.6902(2) 0.1934(4) 0.4953(2)
C35_2 C 0.7064(3) 0.1761(5) 0.4391(3)
H29_2 H 0.6774 0.1264 0.3971
C36_2 C 0.7344(3) 0.2686(6) 0.5562(3)
H30_2 H 0.7239 0.2824 0.5951
N3_2 N 0.59436(16) 0.1065(3) 0.64857(18)
N4_2 N 0.62672(19) 0.1119(3) 0.56030(19)
O6 O 0.62186(13) 0.1133(2) 0.81639(14)
O14_2 O 0.53695(15) 0.3067(2) 0.72663(18)
C37_2 C 0.61979(18) 0.1505(3) 0.8741(2)
C38_2 C 0.68733(17) 0.2007(3) 0.93966(18)
C39_2 C 0.68471(18) 0.2827(4) 0.9909(2)
H31_2 H 0.6407 0.3049 0.9848
C40_2 C 0.75303(18) 0.1684(4) 0.9490(2)
H32_2 H 0.7553 0.1136 0.9148
C28_2 C 0.6893(2) 0.9551(5) 0.7369(3)
H23_2 H 0.6753 0.9506 0.7737
C29_2 C 0.7471(3) 0.8874(5) 0.7444(3)
H24_2 H 0.7727 0.8377 0.7875
C30_2 C 0.7674(3) 0.8924(6) 0.6884(3)
H25_2 H 0.8059 0.8454 0.6950
C31_2 C 0.7321(2) 0.9645(5) 0.6245(3)
H26_2 H 0.7459 0.9683 0.5876
O11_2 O 0.52029(13) 0.9428(2) 0.70869(14)
C18_3 C 0.5000 0.8896(4) 0.7500
C19_3 C 0.5000 0.7527(4) 0.7500
C20_2 C 0.4615(2) 0.6878(4) 0.7764(2)
H16_2 H 0.4362 0.7301 0.7953
C21_2 C 0.4603(2) 0.5619(4) 0.7750(3)
H17_2 H 0.4328 0.5195 0.7909
C22_3 C 0.5000 0.4975(4) 0.7500
C23_3 C 0.5000 0.3603(5) 0.7500
C41_2 C 0.5385(2) 0.6878(4) 0.7236(2)
H33_2 H 0.5638 0.7301 0.7047
C42_2 C 0.5397(2) 0.5619(4) 0.7250(3)
H34_2 H 0.5672 0.5195 0.7091
C24_3 C 0.0389(4) 0.6855(8) 0.0308(4)
H18_3 H 0.0621 0.6304 0.0131
H19_3 H 0.0720 0.7478 0.0627
H20_3 H 0.0227 0.6405 0.0602
Co6_2 Co 0.03755(2) 0.62481(4) 0.70528(2)
O9_2 O 0.06527(13) 0.6505(2) 0.88163(15)
C5_3 C 0.6893(2) 0.0449(5) 0.2369(3)
H6_3 H 0.6753 0.0494 0.2737
C6_3 C 0.7471(3) 0.1126(5) 0.2444(3)
H7_3 H 0.7727 0.1623 0.2875
C7_3 C 0.7674(3) 0.1076(6) 0.1884(3)
H8_3 H 0.8059 0.1546 0.1950
C8_3 C 0.7321(2) 0.0355(5) 0.1245(3)
H9_3 H 0.7459 0.0317 0.0876
C18_4 C 0.5000 0.1104(4) 0.2500
C19_4 C 0.5000 0.2473(4) 0.2500
C20_3 C 0.5385(2) 0.3122(4) 0.2236(2)
H16_3 H 0.5638 0.2699 0.2047
C21_3 C 0.5397(2) 0.4381(4) 0.2250(3)
H17_3 H 0.5672 0.4805 0.2091
C22_4 C 0.5000 0.5025(4) 0.2500
C23_4 C 0.5000 0.6397(5) 0.2500
O3_2 O 0.52029(13) 0.0572(2) 0.20869(14)
O4_2 O 0.53695(15) 0.6933(2) 0.22663(18)
C41_3 C 0.4615(2) 0.3122(4) 0.2764(2)
H33_3 H 0.4362 0.2699 0.2953
C42_3 C 0.4603(2) 0.4381(4) 0.2750(3)
H34_3 H 0.4328 0.4805 0.2909
Co4_2 Co 0.53755(2) 0.87519(4) 0.20528(2)
Co7_2 Co 0.46245(2) 0.87519(4) 0.29472(2)
O10_2 O 0.47971(13) 0.0572(2) 0.29131(14)
O12_2 O 0.46305(15) 0.6933(2) 0.27337(18)
C2_3 C 0.5225(2) 0.7570(4) 0.0357(2)
H4_3 H 0.5413 0.6925 0.0176
H5_3 H 0.5067 0.7195 0.0683
C3_3 C 0.5804(2) 0.8466(4) 0.0821(2)
C4_3 C 0.65364(19) 0.9710(4) 0.1726(2)
C9_3 C 0.6740(2) 0.9672(4) 0.1168(2)
C13_3 C 0.7344(3) 0.7314(6) 0.0562(3)
H13_3 H 0.7239 0.7176 0.0951
C14_3 C 0.61979(18) 0.8495(3) 0.3741(2)
C15_3 C 0.68733(17) 0.7993(3) 0.43966(18)
C16_3 C 0.68471(18) 0.7173(4) 0.4909(2)
H14_3 H 0.6407 0.6951 0.4848
C17_3 C 0.75303(18) 0.8316(4) 0.4490(2)
H15_3 H 0.7553 0.8864 0.4148
N1_3 N 0.59436(16) 0.8935(3) 0.14857(18)
N2_3 N 0.62672(19) 0.8881(3) 0.06030(19)
O1_3 O 0.62186(13) 0.8867(2) 0.31639(14)
O2_2 O 0.56527(13) 0.8495(2) 0.38163(15)
C33_3 C 0.8761(3) 0.6335(5) 0.0129(3)
H27_3 H 0.8835 0.5556 0.0393
H28_3 H 0.9170 0.6852 0.0450
C34_3 C 0.8098(2) 0.6934(4) 0.0047(2)
C35_3 C 0.7936(3) 0.6761(5) 0.0609(3)
H29_3 H 0.8226 0.6264 0.1029
C37_3 C 0.88021(18) 0.6505(3) 0.6259(2)
C38_3 C 0.81267(17) 0.7007(3) 0.56034(18)
C39_3 C 0.81529(18) 0.7827(4) 0.5091(2)
H31_3 H 0.8593 0.8049 0.5152
C40_3 C 0.74697(18) 0.6684(4) 0.5510(2)
H32_3 H 0.7447 0.6136 0.5852
Co5_2 Co 0.96245(2) 0.62481(4) 0.79472(2)
O5_2 O 0.87814(13) 0.6133(2) 0.68361(14)
O7_2 O 0.93473(13) 0.6505(2) 0.61837(15)
O8_2 O 0.43473(13) 0.8495(2) 0.11837(15)
C1_3 C 0.4611(4) 0.8145(8) 0.9692(4)
H1_3 H 0.4379 0.8696 0.9869
H2_3 H 0.4280 0.7522 0.9373
H3_3 H 0.4773 0.8595 0.9398
C10_3 C 0.6239(3) 0.8665(5) 0.9871(3)
H10_3 H 0.6165 0.9444 0.9607
H11_3 H 0.5830 0.8148 0.9550
C11_3 C 0.6902(2) 0.8066(4) 0.9953(2)
C12_3 C 0.7064(3) 0.8239(5) 0.9391(3)
H12_3 H 0.6774 0.8736 0.8971
C25_3 C 0.9775(2) 0.7430(4) 0.9643(2)
H21_3 H 0.9587 0.8075 0.9824
H22_3 H 0.9933 0.7805 0.9317
C26_3 C 0.9196(2) 0.6534(4) 0.9179(2)
C27_3 C 0.84636(19) 0.5290(4) 0.8274(2)
C28_3 C 0.8107(2) 0.4551(5) 0.7631(3)
H23_3 H 0.8247 0.4506 0.7263
C29_3 C 0.7529(3) 0.3874(5) 0.7556(3)
H24_3 H 0.7273 0.3377 0.7125
C30_3 C 0.7326(3) 0.3924(6) 0.8116(3)
H25_3 H 0.6941 0.3454 0.8050
C31_3 C 0.7679(2) 0.4645(5) 0.8755(3)
H26_3 H 0.7541 0.4683 0.9124
C32_3 C 0.8260(2) 0.5328(4) 0.8832(2)
C36_3 C 0.7656(3) 0.7686(6) 0.9438(3)
H30_3 H 0.7761 0.7824 0.9049
N3_3 N 0.90564(16) 0.6065(3) 0.85143(18)
N4_3 N 0.87328(19) 0.6119(3) 0.93970(19)
O11_3 O 0.97971(13) 0.4428(2) 0.79131(14)
O14_3 O 0.96305(15) 0.8067(2) 0.77337(18)
C5_4 C 0.3107(2) 0.0449(5) 0.2631(3)
H6_4 H 0.3247 0.0494 0.2263
C6_4 C 0.2529(3) 0.1126(5) 0.2556(3)
H7_4 H 0.2273 0.1623 0.2125
C7_4 C 0.2326(3) 0.1076(6) 0.3116(3)
H8_4 H 0.1941 0.1546 0.3050
C8_4 C 0.2679(2) 0.0355(5) 0.3755(3)
H9_4 H 0.2541 0.0317 0.4124
C1_4 C 0.5389(4) 0.8145(8) 0.5308(4)
H1_4 H 0.5621 0.8696 0.5131
H2_4 H 0.5720 0.7522 0.5627
H3_4 H 0.5227 0.8595 0.5602
C2_4 C 0.4775(2) 0.7570(4) 0.4643(2)
H4_4 H 0.4587 0.6925 0.4824
H5_4 H 0.4933 0.7195 0.4317
C3_4 C 0.4196(2) 0.8466(4) 0.4179(2)
C4_4 C 0.34636(19) 0.9710(4) 0.3274(2)
C9_4 C 0.3260(2) 0.9672(4) 0.3832(2)
C10_4 C 0.3761(3) 0.8665(5) 0.5129(3)
H10_4 H 0.3835 0.9444 0.5393
H11_4 H 0.4170 0.8148 0.5450
C11_4 C 0.3098(2) 0.8066(4) 0.5047(2)
C12_4 C 0.2936(3) 0.8239(5) 0.5609(3)
H12_4 H 0.3226 0.8736 0.6029
C13_4 C 0.2656(3) 0.7314(6) 0.4438(3)
H13_4 H 0.2761 0.7176 0.4049
C14_4 C 0.38021(18) 0.8495(3) 0.1259(2)
C15_4 C 0.31267(17) 0.7993(3) 0.06034(18)
C16_4 C 0.31529(18) 0.7173(4) 0.0091(2)
H14_4 H 0.3593 0.6951 0.0152
C17_4 C 0.24697(18) 0.8316(4) 0.0510(2)
H15_4 H 0.2447 0.8864 0.0852
N1_4 N 0.40564(16) 0.8935(3) 0.35143(18)
N2_4 N 0.37328(19) 0.8881(3) 0.43970(19)
O1_4 O 0.37814(13) 0.8867(2) 0.18361(14)
C25_4 C 0.0225(2) 0.7430(4) 0.5357(2)
H21_4 H 0.0413 0.8075 0.5176
H22_4 H 0.0067 0.7805 0.5683
C26_4 C 0.0804(2) 0.6534(4) 0.5821(2)
C27_4 C 0.15364(19) 0.5290(4) 0.6726(2)
C28_4 C 0.1893(2) 0.4551(5) 0.7369(3)
H23_4 H 0.1753 0.4506 0.7737
C29_4 C 0.2471(3) 0.3874(5) 0.7444(3)
H24_4 H 0.2727 0.3377 0.7875
C30_4 C 0.2674(3) 0.3924(6) 0.6884(3)
H25_4 H 0.3059 0.3454 0.6950
C31_4 C 0.2321(2) 0.4645(5) 0.6245(3)
H26_4 H 0.2459 0.4683 0.5876
C32_4 C 0.1740(2) 0.5328(4) 0.6168(2)
C33_4 C 0.1239(3) 0.6335(5) 0.4871(3)
H27_4 H 0.1165 0.5556 0.4607
H28_4 H 0.0830 0.6852 0.4550
C34_4 C 0.1902(2) 0.6934(4) 0.4953(2)
C35_4 C 0.2064(3) 0.6761(5) 0.4391(3)
H29_4 H 0.1774 0.6264 0.3971
C36_4 C 0.2344(3) 0.7686(6) 0.5562(3)
H30_4 H 0.2239 0.7824 0.5951
N3_4 N 0.09436(16) 0.6065(3) 0.64857(18)
N4_4 N 0.12672(19) 0.6119(3) 0.56030(19)
O6_2 O 0.12186(13) 0.6133(2) 0.81639(14)
O11_4 O 0.02029(13) 0.4428(2) 0.70869(14)
O14_4 O 0.03695(15) 0.8067(2) 0.72663(18)
C37_4 C 0.11979(18) 0.6505(3) 0.8741(2)
C38_4 C 0.18733(17) 0.7007(3) 0.93966(18)
C39_4 C 0.18471(18) 0.7827(4) 0.9909(2)
H31_4 H 0.1407 0.8049 0.9848
C40_4 C 0.25303(18) 0.6684(4) 0.9490(2)
H32_4 H 0.2553 0.6136 0.9148
C24_4 C 0.9611(4) 0.6855(8) 0.4692(4)
H18_4 H 0.9379 0.6304 0.4869
H19_4 H 0.9280 0.7478 0.4373
H20_4 H 0.9773 0.6405 0.4398
C18_5 C 0.0000 0.3896(4) 0.7500
C19_5 C 0.0000 0.2527(4) 0.7500
C41_4 C 0.0385(2) 0.1878(4) 0.7236(2)
H33_4 H 0.0638 0.2301 0.7047
C42_4 C 0.0397(2) 0.0619(4) 0.7250(3)
H34_4 H 0.0672 0.0195 0.7091
C22_5 C 0.0000 0.9975(4) 0.7500
C23_5 C 0.0000 0.8603(5) 0.7500
C18_6 C 1.0000 0.3896(4) 0.7500
C19_6 C 1.0000 0.2527(4) 0.7500
C20_4 C 0.9615(2) 0.1878(4) 0.7764(2)
H16_4 H 0.9362 0.2301 0.7953
C21_4 C 0.9603(2) 0.0619(4) 0.7750(3)
H17_4 H 0.9328 0.0195 0.7909
C22_6 C 1.0000 0.9975(4) 0.7500
C23_6 C 1.0000 0.8603(5) 0.7500
loop_
_geom_bond_atom_site_label_1
_geom_bond_atom_site_label_2
_geom_bond_site_symmetry_1
_geom_bond_site_symmetry_2
C23 C22 1_555 1_555
O4 C23 1_555 1_555
Co4 O4 1_555 1_555
H4 C2 1_555 1_555
H5 C2 1_555 1_555
C3 C2 1_555 1_555
C4 C5 1_555 1_555
C5 H6 1_555 1_555
C6 C5 1_555 1_555
H7 C6 1_555 1_555
C7 C6 1_555 1_555
H8 C7 1_555 1_555
C8 C7 1_555 1_555
H9 C8 1_555 1_555
C9 C4 1_555 1_555
H13 C13 1_555 1_555
C14 C15 1_555 1_555
C15 C16 1_555 1_555
C16 H14 1_555 1_555
C17 C15 1_555 1_555
H15 C17 1_555 1_555
C18 C19 1_555 1_555
C19 C20 1_555 1_555
C20 H16 1_555 1_555
C21 C20 1_555 1_555
H17 C21 1_555 1_555
Co4 N1 1_555 1_555
N1 C3 1_555 1_555
N2 C3 1_555 1_555
O1 C14 1_555 1_555
O2 C14 1_555 1_555
O3 C18 1_555 1_555
C24 H18 1_555 1_555
H19 C24 1_555 1_555
H20 C24 1_555 1_555
C33 H27 1_555 1_555
H28 C33 1_555 1_555
C34 C33 1_555 1_555
C35 C13 1_555 1_555
H29 C35 1_555 1_555
C37 C38 1_555 1_555
C38 C39 1_555 1_555
C39 C17 1_555 1_555
H31 C39 1_555 1_555
C40 C16 1_555 1_555
H32 C40 1_555 1_555
Co5 O5 1_555 1_555
Co6 O7 1_555 1_555
O5 C37 1_555 1_555
O7 C37 1_555 1_555
C4 N1 1_555 1_555
C8 C9 1_555 1_555
C9 N2 1_555 1_555
Co4 O1 1_555 1_555
Co4 O3 1_555 1_555
C34 C35 1_555 1_555
C38 C40 1_555 1_555
C10 H10 1_555 1_555
H11 C10 1_555 1_555
C11 C10 1_555 1_555
C12 C11 1_555 1_555
H12 C12 1_555 1_555
H21 C25 1_555 1_555
H22 C25 1_555 1_555
C26 C25 1_555 1_555
C32 C27 1_555 1_555
C36 C12 1_555 1_555
H30 C36 1_555 1_555
Co5 N3 1_555 1_555
N3 C26 1_555 1_555
N4 C26 1_555 1_555
O9 Co5 1_555 1_555
O14 Co5 1_555 1_555
C27 N3 1_555 1_555
C32 N4 1_555 1_555
C28 H23 1_555 1_555
C29 C28 1_555 1_555
H24 C29 1_555 1_555
C30 C29 1_555 1_555
H25 C30 1_555 1_555
C31 C30 1_555 1_555
H26 C31 1_555 1_555
C23_2 C22_2 1_555 1_555
Co7 O12 1_555 1_555
O12 C23_2 1_555 1_555
C18_2 C19_2 1_555 1_555
C41 C19_2 1_555 1_555
H33 C41 1_555 1_555
H34 C42 1_555 1_555
O10 C18_2 1_555 1_555
C41 C42 1_555 1_555
Co7 O10 1_555 1_555
C1 H1 1_555 1_555
H2 C1 1_555 1_555
H3 C1 1_555 1_555
C1_2 H1_2 1_555 1_555
H2_2 C1_2 1_555 1_555
H3_2 C1_2 1_555 1_555
H4_2 C2_2 1_555 1_555
H5_2 C2_2 1_555 1_555
C3_2 C2_2 1_555 1_555
C4_2 C5_2 1_555 1_555
C5_2 H6_2 1_555 1_555
C6_2 C5_2 1_555 1_555
H7_2 C6_2 1_555 1_555
C7_2 C6_2 1_555 1_555
H8_2 C7_2 1_555 1_555
C8_2 C7_2 1_555 1_555
H9_2 C8_2 1_555 1_555
C9_2 C4_2 1_555 1_555
C10_2 H10_2 1_555 1_555
H11_2 C10_2 1_555 1_555
C11_2 C10_2 1_555 1_555
C12_2 C11_2 1_555 1_555
H12_2 C12_2 1_555 1_555
C13_2 C11_2 1_555 1_555
H13_2 C13_2 1_555 1_555
C14_2 C15_2 1_555 1_555
C15_2 C16_2 1_555 1_555
C16_2 H14_2 1_555 1_555
C17_2 C15_2 1_555 1_555
H15_2 C17_2 1_555 1_555
Co7 N1_2 1_555 1_555
N1_2 C3_2 1_555 1_555
N2_2 C3_2 1_555 1_555
O1_2 C14_2 1_555 1_555
O8 C14_2 1_555 1_555
C24_2 H18_2 1_555 1_555
H19_2 C24_2 1_555 1_555
H20_2 C24_2 1_555 1_555
C25_2 C24_2 1_555 1_555
H21_2 C25_2 1_555 1_555
H22_2 C25_2 1_555 1_555
C26_2 C25_2 1_555 1_555
C32_2 C27_2 1_555 1_555
C33_2 H27_2 1_555 1_555
H28_2 C33_2 1_555 1_555
C34_2 C33_2 1_555 1_555
C35_2 C13_2 1_555 1_555
H29_2 C35_2 1_555 1_555
C36_2 C12_2 1_555 1_555
H30_2 C36_2 1_555 1_555
Co6 N3_2 1_555 1_555
N3_2 C26_2 1_555 1_555
N4_2 C26_2 1_555 1_555
O6 Co6 1_555 1_555
O14_2 Co6 1_555 1_555
C4_2 N1_2 1_555 1_555
C8_2 C9_2 1_555 1_555
C9_2 N2_2 1_555 1_555
C10_2 N2_2 1_555 1_555
Co7 O1_2 1_555 1_555
C27_2 N3_2 1_555 1_555
C32_2 N4_2 1_555 1_555
C33_2 N4_2 1_555 1_555
C34_2 C35_2 1_555 1_555
C34_2 C36_2 1_555 1_555
C37_2 C38_2 1_555 1_555
C38_2 C39_2 1_555 1_555
H31_2 C39_2 1_555 1_555
H32_2 C40_2 1_555 1_555
O6 C37_2 1_555 1_555
O9 C37_2 1_555 1_555
C38_2 C40_2 1_555 1_555
C28_2 H23_2 1_555 1_555
C29_2 C28_2 1_555 1_555
H24_2 C29_2 1_555 1_555
C30_2 C29_2 1_555 1_555
H25_2 C30_2 1_555 1_555
C31_2 C30_2 1_555 1_555
H26_2 C31_2 1_555 1_555
C18_3 C19_3 1_555 1_555
C19_3 C20_2 1_555 1_555
C20_2 H16_2 1_555 1_555
C21_2 C20_2 1_555 1_555
H17_2 C21_2 1_555 1_555
C22_3 C21_2 1_555 1_555
C23_3 C22_3 1_555 1_555
O11 C18_3 1_555 1_555
O14 C23_3 1_555 1_555
C41_2 C19_3 1_555 1_555
H33_2 C41_2 1_555 1_555
C42_2 C22_3 1_555 1_555
H34_2 C42_2 1_555 1_555
O11_2 C18_3 1_555 1_555
O14_2 C23_3 1_555 1_555
C41_2 C42_2 1_555 1_555
C24_3 H18_3 1_555 1_555
H19_3 C24_3 1_555 1_555
H20_3 C24_3 1_555 1_555
C5_3 H6_3 1_555 1_555
C6_3 C5_3 1_555 1_555
H7_3 C6_3 1_555 1_555
C7_3 C6_3 1_555 1_555
H8_3 C7_3 1_555 1_555
C8_3 C7_3 1_555 1_555
H9_3 C8_3 1_555 1_555
C18_4 C19_4 1_555 1_555
C19_4 C20_3 1_555 1_555
C20_3 H16_3 1_555 1_555
C21_3 C20_3 1_555 1_555
H17_3 C21_3 1_555 1_555
C22_4 C21_3 1_555 1_555
C23_4 C22_4 1_555 1_555
O3_2 C18_4 1_555 1_555
O4_2 C23_4 1_555 1_555
C41_3 C19_4 1_555 1_555
H33_3 C41_3 1_555 1_555
C42_3 C22_4 1_555 1_555
H34_3 C42_3 1_555 1_555
Co4_2 O4_2 1_555 1_555
Co7_2 O12_2 1_555 1_555
O10_2 C18_4 1_555 1_555
O12_2 C23_4 1_555 1_555
C41_3 C42_3 1_555 1_555
H4_3 C2_3 1_555 1_555
H5_3 C2_3 1_555 1_555
C3_3 C2_3 1_555 1_555
C9_3 C4_3 1_555 1_555
H13_3 C13_3 1_555 1_555
C14_3 C15_3 1_555 1_555
C15_3 C16_3 1_555 1_555
C16_3 H14_3 1_555 1_555
C17_3 C15_3 1_555 1_555
H15_3 C17_3 1_555 1_555
Co4_2 N1_3 1_555 1_555
N1_3 C3_3 1_555 1_555
N2_3 C3_3 1_555 1_555
O1_3 C14_3 1_555 1_555
O2_2 C14_3 1_555 1_555
C33_3 H27_3 1_555 1_555
H28_3 C33_3 1_555 1_555
C34_3 C33_3 1_555 1_555
C35_3 C13_3 1_555 1_555
H29_3 C35_3 1_555 1_555
C37_3 C38_3 1_555 1_555
C38_3 C39_3 1_555 1_555
C39_3 C17_3 1_555 1_555
H31_3 C39_3 1_555 1_555
C40_3 C16_3 1_555 1_555
H32_3 C40_3 1_555 1_555
Co7_2 O2_2 1_555 1_555
Co5_2 O5_2 1_555 1_555
O5_2 C37_3 1_555 1_555
O7_2 C37_3 1_555 1_555
O8_2 Co4_2 1_555 1_555
C4_3 N1_3 1_555 1_555
C9_3 N2_3 1_555 1_555
Co4_2 O1_3 1_555 1_555
C34_3 C35_3 1_555 1_555
C38_3 C40_3 1_555 1_555
C1_3 H1_3 1_555 1_555
H2_3 C1_3 1_555 1_555
H3_3 C1_3 1_555 1_555
C10_3 H10_3 1_555 1_555
H11_3 C10_3 1_555 1_555
C11_3 C10_3 1_555 1_555
C12_3 C11_3 1_555 1_555
H12_3 C12_3 1_555 1_555
H21_3 C25_3 1_555 1_555
H22_3 C25_3 1_555 1_555
C26_3 C25_3 1_555 1_555
C27_3 C28_3 1_555 1_555
C28_3 H23_3 1_555 1_555
C29_3 C28_3 1_555 1_555
H24_3 C29_3 1_555 1_555
C30_3 C29_3 1_555 1_555
H25_3 C30_3 1_555 1_555
C31_3 C30_3 1_555 1_555
H26_3 C31_3 1_555 1_555
C32_3 C27_3 1_555 1_555
C36_3 C12_3 1_555 1_555
H30_3 C36_3 1_555 1_555
Co5_2 N3_3 1_555 1_555
N3_3 C26_3 1_555 1_555
N4_3 C26_3 1_555 1_555
O11_3 Co5_2 1_555 1_555
O14_3 Co5_2 1_555 1_555
C27_3 N3_3 1_555 1_555
C31_3 C32_3 1_555 1_555
C32_3 N4_3 1_555 1_555
C5_4 H6_4 1_555 1_555
C6_4 C5_4 1_555 1_555
H7_4 C6_4 1_555 1_555
C7_4 C6_4 1_555 1_555
H8_4 C7_4 1_555 1_555
C8_4 C7_4 1_555 1_555
H9_4 C8_4 1_555 1_555
C1_4 H1_4 1_555 1_555
H2_4 C1_4 1_555 1_555
H3_4 C1_4 1_555 1_555
C2_4 C1_4 1_555 1_555
H4_4 C2_4 1_555 1_555
H5_4 C2_4 1_555 1_555
C3_4 C2_4 1_555 1_555
C9_4 C4_4 1_555 1_555
C10_4 H10_4 1_555 1_555
H11_4 C10_4 1_555 1_555
C11_4 C10_4 1_555 1_555
C12_4 C11_4 1_555 1_555
H12_4 C12_4 1_555 1_555
C13_4 C11_4 1_555 1_555
H13_4 C13_4 1_555 1_555
C14_4 C15_4 1_555 1_555
C15_4 C16_4 1_555 1_555
C16_4 H14_4 1_555 1_555
C17_4 C15_4 1_555 1_555
H15_4 C17_4 1_555 1_555
Co7_2 N1_4 1_555 1_555
N1_4 C3_4 1_555 1_555
N2_4 C3_4 1_555 1_555
O1_4 C14_4 1_555 1_555
O8_2 C14_4 1_555 1_555
H21_4 C25_4 1_555 1_555
H22_4 C25_4 1_555 1_555
C26_4 C25_4 1_555 1_555
C27_4 C28_4 1_555 1_555
C28_4 H23_4 1_555 1_555
C29_4 C28_4 1_555 1_555
H24_4 C29_4 1_555 1_555
C30_4 C29_4 1_555 1_555
H25_4 C30_4 1_555 1_555
C31_4 C30_4 1_555 1_555
H26_4 C31_4 1_555 1_555
C32_4 C27_4 1_555 1_555
C33_4 H27_4 1_555 1_555
H28_4 C33_4 1_555 1_555
C34_4 C33_4 1_555 1_555
C35_4 C13_4 1_555 1_555
H29_4 C35_4 1_555 1_555
C36_4 C12_4 1_555 1_555
H30_4 C36_4 1_555 1_555
Co6_2 N3_4 1_555 1_555
N3_4 C26_4 1_555 1_555
N4_4 C26_4 1_555 1_555
O6_2 Co6_2 1_555 1_555
O11_4 Co6_2 1_555 1_555
O14_4 Co6_2 1_555 1_555
C4_4 N1_4 1_555 1_555
C9_4 N2_4 1_555 1_555
C10_4 N2_4 1_555 1_555
Co7_2 O1_4 1_555 1_555
C27_4 N3_4 1_555 1_555
C31_4 C32_4 1_555 1_555
C32_4 N4_4 1_555 1_555
C33_4 N4_4 1_555 1_555
C34_4 C35_4 1_555 1_555
C34_4 C36_4 1_555 1_555
C37_4 C38_4 1_555 1_555
C38_4 C39_4 1_555 1_555
H31_4 C39_4 1_555 1_555
H32_4 C40_4 1_555 1_555
O6_2 C37_4 1_555 1_555
O9_2 C37_4 1_555 1_555
C38_4 C40_4 1_555 1_555
C24_4 H18_4 1_555 1_555
H19_4 C24_4 1_555 1_555
H20_4 C24_4 1_555 1_555
C18_5 C19_5 1_555 1_555
C41_4 C19_5 1_555 1_555
H33_4 C41_4 1_555 1_555
H34_4 C42_4 1_555 1_555
O11_4 C18_5 1_555 1_555
C41_4 C42_4 1_555 1_555
C23_5 C22_5 1_555 1_555
O14_4 C23_5 1_555 1_555
C18_6 C19_6 1_555 1_555
C19_6 C20_4 1_555 1_555
C20_4 H16_4 1_555 1_555
C21_4 C20_4 1_555 1_555
H17_4 C21_4 1_555 1_555
O11_3 C18_6 1_555 1_555
C23_6 C22_6 1_555 1_555
O14_3 C23_6 1_555 1_555

#END
