
###############################################################################
#
# This file contains modified crystal structure data generated from the
# MOF subset of the Cambridge Structural Database (CSD) v543 
# hosted by the Cambridge Crystallographic Data Centre (CCDC).
#
# This work is licensed under the Creative Commons
# Attribution-NonCommercial-ShareAlike 4.0 International License.
# To view a copy of this license, visit
# http://creativecommons.org/licenses/by-nc-sa/4.0/
# or send a letter to
# Creative Commons, PO Box 1866, Mountain View, CA 94042, USA.
#
# CIF created using the CSD Python API on 29 September 2022
# The structure has been converted into the P1 space group
# The structure has a 3D framework
# The original CSD entry PEJMUN is in the cubic crystal system
# The framework has been calculated to contain at least 10.0% void space
# The void calculation uses a probe of radius 1.32A, grid spacing 0.4
# The framework is charged, counterions have been retained in the structure
#
###############################################################################

data_PEJMUN
_chemical_formula_moiety         '(C384 H288 Cd6 Cl48 N96 O48 36-)n'
_symmetry_cell_setting           triclinic
_symmetry_space_group_name_H-M   'P 1'
_symmetry_Int_Tables_number      1
_space_group_name_Hall           'P 1'
loop_
_symmetry_equiv_pos_site_id
_symmetry_equiv_pos_as_xyz
1 x,y,z
_cell_length_a                   24.7843(4)
_cell_length_b                   24.7843(4)
_cell_length_c                   24.7843(4)
_cell_angle_alpha                90
_cell_angle_beta                 90
_cell_angle_gamma                90
_cell_volume                     15224
loop_
_atom_site_label
_atom_site_type_symbol
_atom_site_fract_x
_atom_site_fract_y
_atom_site_fract_z
Cd2 Cd 0.2500 0.2500 0.2500
N3 N 0.27392(18) 0.22024(18) 0.16185(17)
N12 N 0.3289(2) 0.1596(2) 0.0142(2)
H7 H 0.3266 0.1250 0.0116
C24 C 0.2886(3) 0.2535(2) 0.1224(3)
H17 H 0.2867 0.2905 0.1288
C29 C 0.3065(3) 0.2363(2) 0.0723(2)
H22 H 0.3153 0.2612 0.0456
C34 C 0.3112(2) 0.1819(2) 0.0624(2)
C39 C 0.2957(3) 0.1467(2) 0.1031(2)
H27 H 0.2981 0.1096 0.0980
C44 C 0.2769(2) 0.1673(2) 0.1511(2)
H32 H 0.2656 0.1432 0.1775
O1 O 0.2656(2) 0.0313(2) 0.8552(3)
C1 C 0.3949(2) 0.0903(2) 0.8354(2)
H2 H 0.4047 0.0703 0.8052
C2 C 0.3500(2) 0.0754(2) 0.8656(2)
C3 C 0.3144(3) 0.0288(3) 0.8494(3)
Cd3 Cd 0.7500 0.2500 0.7500
O2 O 0.3552(3) 0.2344(2) 0.9687(2)
O3 O 0.4687(2) 0.1448(3) 0.7656(2)
N4 N 0.66185(17) 0.22608(18) 0.77976(18)
N13 N 0.5142(2) 0.1711(2) 0.8404(2)
H8 H 0.5116 0.1734 0.8750
C9 C 0.4097(2) 0.1646(2) 0.8949(2)
C10 C 0.3354(2) 0.1051(2) 0.9097(2)
H12 H 0.4297 0.1948 0.9047
H13 H 0.3052 0.0953 0.9297
C14 C 0.4246(2) 0.1344(2) 0.8500(2)
C15 C 0.3656(2) 0.1500(2) 0.9246(2)
C19 C 0.3494(3) 0.1856(3) 0.9712(3)
C20 C 0.4712(3) 0.1506(3) 0.8144(3)
C25 C 0.6224(3) 0.2114(3) 0.7465(2)
H18 H 0.6288 0.2133 0.7095
C30 C 0.5723(2) 0.1935(3) 0.7637(2)
H23 H 0.5456 0.1847 0.7388
C35 C 0.5624(2) 0.1888(2) 0.8181(2)
C40 C 0.6031(2) 0.2043(3) 0.8533(2)
H28 H 0.5980 0.2019 0.8904
C45 C 0.6511(2) 0.2231(2) 0.8327(2)
H33 H 0.6775 0.2344 0.8568
Cd4 Cd 0.7500 0.7500 0.2500
O4 O 0.3552(3) 0.7344(2) 0.0313(2)
O5 O 0.4687(2) 0.6448(3) 0.2344(2)
O6 O 0.2656(2) 0.5313(2) 0.1448(3)
N6 N 0.66185(17) 0.72608(18) 0.22024(18)
N7 N 0.27976(18) 0.33815(17) 0.22608(18)
N15 N 0.5142(2) 0.6711(2) 0.1596(2)
N16 N 0.3404(2) 0.4858(2) 0.1711(2)
H10 H 0.5116 0.6734 0.1250
H11 H 0.3750 0.4884 0.1734
C11 C 0.3354(2) 0.6051(2) 0.0903(2)
C12 C 0.3949(2) 0.5903(2) 0.1646(2)
C13 C 0.4097(2) 0.6646(2) 0.1051(2)
H14 H 0.3052 0.5953 0.0703
H15 H 0.4047 0.5703 0.1948
H16 H 0.4297 0.6948 0.0953
C16 C 0.3656(2) 0.6500(2) 0.0754(2)
C17 C 0.3500(2) 0.5754(2) 0.1344(2)
C18 C 0.4246(2) 0.6344(2) 0.1500(2)
C21 C 0.3494(3) 0.6856(3) 0.0288(3)
C22 C 0.4712(3) 0.6506(3) 0.1856(3)
C23 C 0.3144(3) 0.5288(3) 0.1506(3)
C27 C 0.6224(3) 0.7114(3) 0.2535(2)
C28 C 0.2465(2) 0.3776(3) 0.2114(3)
H20 H 0.6288 0.7133 0.2905
H21 H 0.2095 0.3712 0.2133
C32 C 0.5723(2) 0.6935(3) 0.2363(2)
C33 C 0.2637(2) 0.4277(2) 0.1935(3)
H25 H 0.5456 0.6847 0.2612
H26 H 0.2388 0.4544 0.1847
C37 C 0.5624(2) 0.6888(2) 0.1819(2)
C38 C 0.3181(2) 0.4376(2) 0.1888(2)
C42 C 0.6031(2) 0.7043(3) 0.1467(2)
C43 C 0.3533(2) 0.3969(2) 0.2043(3)
H30 H 0.5980 0.7019 0.1096
H31 H 0.3904 0.4020 0.2019
C47 C 0.6511(2) 0.7231(2) 0.1673(2)
C48 C 0.3327(2) 0.3489(2) 0.2231(2)
H35 H 0.6775 0.7344 0.1432
H36 H 0.3568 0.3225 0.2344
Cd1 Cd 0.2500 0.7500 0.7500
N1 N 0.27976(18) 0.83815(17) 0.77392(18)
N2 N 0.3404(2) 0.9858(2) 0.8289(2)
H1 H 0.3750 0.9884 0.8266
C4 C 0.2465(2) 0.8776(3) 0.7886(3)
H3 H 0.2095 0.8712 0.7867
C5 C 0.2637(2) 0.9277(2) 0.8065(3)
H4 H 0.2388 0.9544 0.8153
C6 C 0.3181(2) 0.9376(2) 0.8112(2)
C7 C 0.3533(2) 0.8969(2) 0.7957(3)
H5 H 0.3904 0.9020 0.7981
C8 C 0.3327(2) 0.8489(2) 0.7769(2)
H6 H 0.3568 0.8225 0.7656
N5 N 0.27392(18) 0.72024(18) 0.83815(17)
N8 N 0.16185(17) 0.77392(18) 0.77976(18)
N9 N 0.22024(18) 0.66185(17) 0.72608(18)
N10 N 0.22608(18) 0.77976(18) 0.66185(17)
N11 N 0.33815(17) 0.72608(18) 0.72024(18)
N14 N 0.3289(2) 0.6596(2) 0.9858(2)
H9 H 0.3266 0.6250 0.9884
C26 C 0.2886(3) 0.7535(2) 0.8776(3)
H19 H 0.2867 0.7905 0.8712
C31 C 0.3065(3) 0.7363(2) 0.9277(2)
H24 H 0.3153 0.7612 0.9544
C36 C 0.3112(2) 0.6819(2) 0.9376(2)
C41 C 0.2957(3) 0.6467(2) 0.8969(2)
H29 H 0.2981 0.6096 0.9020
C46 C 0.2769(2) 0.6673(2) 0.8489(2)
H34 H 0.2656 0.6432 0.8225
N3_2 N 0.16185(17) 0.27392(18) 0.22024(18)
N12_2 N 0.0142(2) 0.3289(2) 0.1596(2)
H7_2 H 0.0116 0.3266 0.1250
C24_2 C 0.1224(3) 0.2886(3) 0.2535(2)
H17_2 H 0.1288 0.2867 0.2905
C29_2 C 0.0723(2) 0.3065(3) 0.2363(2)
H22_2 H 0.0456 0.3153 0.2612
C34_2 C 0.0624(2) 0.3112(2) 0.1819(2)
C39_2 C 0.1031(2) 0.2957(3) 0.1467(2)
H27_2 H 0.0980 0.2981 0.1096
C44_2 C 0.1511(2) 0.2769(2) 0.1673(2)
H32_2 H 0.1775 0.2656 0.1432
O4_2 O 0.0313(2) 0.3552(3) 0.7344(2)
O5_2 O 0.2344(2) 0.4687(2) 0.6448(3)
O6_2 O 0.1448(3) 0.2656(2) 0.5313(2)
N7_2 N 0.22608(18) 0.27976(18) 0.33815(17)
N15_2 N 0.1596(2) 0.5142(2) 0.6711(2)
N16_2 N 0.1711(2) 0.3404(2) 0.4858(2)
H10_2 H 0.1250 0.5116 0.6734
H11_2 H 0.1734 0.3750 0.4884
C11_2 C 0.0903(2) 0.3354(2) 0.6051(2)
C12_2 C 0.1646(2) 0.3949(2) 0.5903(2)
C13_2 C 0.1051(2) 0.4097(2) 0.6646(2)
H14_2 H 0.0703 0.3052 0.5953
H15_2 H 0.1948 0.4047 0.5703
H16_2 H 0.0953 0.4297 0.6948
C16_2 C 0.0754(2) 0.3656(2) 0.6500(2)
C17_2 C 0.1344(2) 0.3500(2) 0.5754(2)
C18_2 C 0.1500(2) 0.4246(2) 0.6344(2)
C21_2 C 0.0288(3) 0.3494(3) 0.6856(3)
C22_2 C 0.1856(3) 0.4712(3) 0.6506(3)
C23_2 C 0.1506(3) 0.3144(3) 0.5288(3)
C27_2 C 0.2535(2) 0.6224(3) 0.7114(3)
C28_2 C 0.2114(3) 0.2465(2) 0.3776(3)
H20_2 H 0.2905 0.6288 0.7133
H21_2 H 0.2133 0.2095 0.3712
C32_2 C 0.2363(2) 0.5723(2) 0.6935(3)
C33_2 C 0.1935(3) 0.2637(2) 0.4277(2)
H25_2 H 0.2612 0.5456 0.6847
H26_2 H 0.1847 0.2388 0.4544
C37_2 C 0.1819(2) 0.5624(2) 0.6888(2)
C38_2 C 0.1888(2) 0.3181(2) 0.4376(2)
C42_2 C 0.1467(2) 0.6031(2) 0.7043(3)
C43_2 C 0.2043(3) 0.3533(2) 0.3969(2)
H30_2 H 0.1096 0.5980 0.7019
H31_2 H 0.2019 0.3904 0.4020
C47_2 C 0.1673(2) 0.6511(2) 0.7231(2)
C48_2 C 0.2231(2) 0.3327(2) 0.3489(2)
H35_2 H 0.1432 0.6775 0.7344
H36_2 H 0.2344 0.3568 0.3225
O1_2 O 0.8552(3) 0.2656(2) 0.0313(2)
C1_2 C 0.8354(2) 0.3949(2) 0.0903(2)
H2_2 H 0.8052 0.4047 0.0703
C2_2 C 0.8656(2) 0.3500(2) 0.0754(2)
C3_2 C 0.8494(3) 0.3144(3) 0.0288(3)
O2_2 O 0.9687(2) 0.3552(3) 0.2344(2)
O3_2 O 0.7656(2) 0.4687(2) 0.1448(3)
N4_2 N 0.77976(18) 0.66185(17) 0.22608(18)
N13_2 N 0.8404(2) 0.5142(2) 0.1711(2)
H8_2 H 0.8750 0.5116 0.1734
C9_2 C 0.8949(2) 0.4097(2) 0.1646(2)
C10_2 C 0.9097(2) 0.3354(2) 0.1051(2)
H12_2 H 0.9047 0.4297 0.1948
H13_2 H 0.9297 0.3052 0.0953
C14_2 C 0.8500(2) 0.4246(2) 0.1344(2)
C15_2 C 0.9246(2) 0.3656(2) 0.1500(2)
C19_2 C 0.9712(3) 0.3494(3) 0.1856(3)
C20_2 C 0.8144(3) 0.4712(3) 0.1506(3)
C25_2 C 0.7465(2) 0.6224(3) 0.2114(3)
H18_2 H 0.7095 0.6288 0.2133
C30_2 C 0.7637(2) 0.5723(2) 0.1935(3)
H23_2 H 0.7388 0.5456 0.1847
C35_2 C 0.8181(2) 0.5624(2) 0.1888(2)
C40_2 C 0.8533(2) 0.6031(2) 0.2043(3)
H28_2 H 0.8904 0.5980 0.2019
C45_2 C 0.8327(2) 0.6511(2) 0.2231(2)
H33_2 H 0.8568 0.6775 0.2344
N1_2 N 0.77392(18) 0.27976(18) 0.83815(17)
N2_2 N 0.8289(2) 0.3404(2) 0.9858(2)
H1_2 H 0.8266 0.3750 0.9884
C4_2 C 0.7886(3) 0.2465(2) 0.8776(3)
H3_2 H 0.7867 0.2095 0.8712
C5_2 C 0.8065(3) 0.2637(2) 0.9277(2)
H4_2 H 0.8153 0.2388 0.9544
C6_2 C 0.8112(2) 0.3181(2) 0.9376(2)
C7_2 C 0.7957(3) 0.3533(2) 0.8969(2)
H5_2 H 0.7981 0.3904 0.9020
C8_2 C 0.7769(2) 0.3327(2) 0.8489(2)
H6_2 H 0.7656 0.3568 0.8225
N5_2 N 0.83815(17) 0.27392(18) 0.72024(18)
N8_2 N 0.77976(18) 0.16185(17) 0.77392(18)
N9_2 N 0.72608(18) 0.22024(18) 0.66185(17)
N11_2 N 0.72024(18) 0.33815(17) 0.72608(18)
N14_2 N 0.9858(2) 0.3289(2) 0.6596(2)
H9_2 H 0.9884 0.3266 0.6250
C26_2 C 0.8776(3) 0.2886(3) 0.7535(2)
H19_2 H 0.8712 0.2867 0.7905
C31_2 C 0.9277(2) 0.3065(3) 0.7363(2)
H24_2 H 0.9544 0.3153 0.7612
C36_2 C 0.9376(2) 0.3112(2) 0.6819(2)
C41_2 C 0.8969(2) 0.2957(3) 0.6467(2)
H29_2 H 0.9020 0.2981 0.6096
C46_2 C 0.8489(2) 0.2769(2) 0.6673(2)
H34_2 H 0.8225 0.2656 0.6432
N3_3 N 0.22024(18) 0.16185(17) 0.27392(18)
N12_3 N 0.1596(2) 0.0142(2) 0.3289(2)
H7_3 H 0.1250 0.0116 0.3266
C24_3 C 0.2535(2) 0.1224(3) 0.2886(3)
H17_3 H 0.2905 0.1288 0.2867
C29_3 C 0.2363(2) 0.0723(2) 0.3065(3)
H22_3 H 0.2612 0.0456 0.3153
C34_3 C 0.1819(2) 0.0624(2) 0.3112(2)
C39_3 C 0.1467(2) 0.1031(2) 0.2957(3)
H27_3 H 0.1096 0.0980 0.2981
C44_3 C 0.1673(2) 0.1511(2) 0.2769(2)
H32_3 H 0.1432 0.1775 0.2656
O1_3 O 0.0313(2) 0.8552(3) 0.2656(2)
C1_3 C 0.0903(2) 0.8354(2) 0.3949(2)
H2_3 H 0.0703 0.8052 0.4047
C2_3 C 0.0754(2) 0.8656(2) 0.3500(2)
C3_3 C 0.0288(3) 0.8494(3) 0.3144(3)
O2_3 O 0.2344(2) 0.9687(2) 0.3552(3)
O3_3 O 0.1448(3) 0.7656(2) 0.4687(2)
N13_3 N 0.1711(2) 0.8404(2) 0.5142(2)
H8_3 H 0.1734 0.8750 0.5116
C9_3 C 0.1646(2) 0.8949(2) 0.4097(2)
C10_3 C 0.1051(2) 0.9097(2) 0.3354(2)
H12_3 H 0.1948 0.9047 0.4297
H13_3 H 0.0953 0.9297 0.3052
C14_3 C 0.1344(2) 0.8500(2) 0.4246(2)
C15_3 C 0.1500(2) 0.9246(2) 0.3656(2)
C19_3 C 0.1856(3) 0.9712(3) 0.3494(3)
C20_3 C 0.1506(3) 0.8144(3) 0.4712(3)
C25_3 C 0.2114(3) 0.7465(2) 0.6224(3)
H18_3 H 0.2133 0.7095 0.6288
C30_3 C 0.1935(3) 0.7637(2) 0.5723(2)
H23_3 H 0.1847 0.7388 0.5456
C35_3 C 0.1888(2) 0.8181(2) 0.5624(2)
C40_3 C 0.2043(3) 0.8533(2) 0.6031(2)
H28_3 H 0.2019 0.8904 0.5980
C45_3 C 0.2231(2) 0.8327(2) 0.6511(2)
H33_3 H 0.2344 0.8568 0.6775
O4_3 O 0.7344(2) 0.0313(2) 0.3552(3)
O5_3 O 0.6448(3) 0.2344(2) 0.4687(2)
O6_3 O 0.5313(2) 0.1448(3) 0.2656(2)
N7_3 N 0.33815(17) 0.22608(18) 0.27976(18)
N15_3 N 0.6711(2) 0.1596(2) 0.5142(2)
N16_3 N 0.4858(2) 0.1711(2) 0.3404(2)
H10_3 H 0.6734 0.1250 0.5116
H11_3 H 0.4884 0.1734 0.3750
C11_3 C 0.6051(2) 0.0903(2) 0.3354(2)
C12_3 C 0.5903(2) 0.1646(2) 0.3949(2)
C13_3 C 0.6646(2) 0.1051(2) 0.4097(2)
H14_3 H 0.5953 0.0703 0.3052
H15_3 H 0.5703 0.1948 0.4047
H16_3 H 0.6948 0.0953 0.4297
C16_3 C 0.6500(2) 0.0754(2) 0.3656(2)
C17_3 C 0.5754(2) 0.1344(2) 0.3500(2)
C18_3 C 0.6344(2) 0.1500(2) 0.4246(2)
C21_3 C 0.6856(3) 0.0288(3) 0.3494(3)
C22_3 C 0.6506(3) 0.1856(3) 0.4712(3)
C23_3 C 0.5288(3) 0.1506(3) 0.3144(3)
C27_3 C 0.7114(3) 0.2535(2) 0.6224(3)
C28_3 C 0.3776(3) 0.2114(3) 0.2465(2)
H20_3 H 0.7133 0.2905 0.6288
H21_3 H 0.3712 0.2133 0.2095
C32_3 C 0.6935(3) 0.2363(2) 0.5723(2)
C33_3 C 0.4277(2) 0.1935(3) 0.2637(2)
H25_3 H 0.6847 0.2612 0.5456
H26_3 H 0.4544 0.1847 0.2388
C37_3 C 0.6888(2) 0.1819(2) 0.5624(2)
C38_3 C 0.4376(2) 0.1888(2) 0.3181(2)
C42_3 C 0.7043(3) 0.1467(2) 0.6031(2)
C43_3 C 0.3969(2) 0.2043(3) 0.3533(2)
H30_3 H 0.7019 0.1096 0.5980
H31_3 H 0.4020 0.2019 0.3904
C47_3 C 0.7231(2) 0.1673(2) 0.6511(2)
C48_3 C 0.3489(2) 0.2231(2) 0.3327(2)
H35_3 H 0.7344 0.1432 0.6775
H36_3 H 0.3225 0.2344 0.3568
N1_3 N 0.83815(17) 0.77392(18) 0.27976(18)
N2_3 N 0.9858(2) 0.8289(2) 0.3404(2)
H1_3 H 0.9884 0.8266 0.3750
C4_3 C 0.8776(3) 0.7886(3) 0.2465(2)
H3_3 H 0.8712 0.7867 0.2095
C5_3 C 0.9277(2) 0.8065(3) 0.2637(2)
H4_3 H 0.9544 0.8153 0.2388
C6_3 C 0.9376(2) 0.8112(2) 0.3181(2)
C7_3 C 0.8969(2) 0.7957(3) 0.3533(2)
H5_3 H 0.9020 0.7981 0.3904
C8_3 C 0.8489(2) 0.7769(2) 0.3327(2)
H6_3 H 0.8225 0.7656 0.3568
N5_3 N 0.72024(18) 0.83815(17) 0.27392(18)
N8_3 N 0.77392(18) 0.77976(18) 0.16185(17)
N11_3 N 0.72608(18) 0.72024(18) 0.33815(17)
N14_3 N 0.6596(2) 0.9858(2) 0.3289(2)
H9_3 H 0.6250 0.9884 0.3266
C26_3 C 0.7535(2) 0.8776(3) 0.2886(3)
H19_3 H 0.7905 0.8712 0.2867
C31_3 C 0.7363(2) 0.9277(2) 0.3065(3)
H24_3 H 0.7612 0.9544 0.3153
C36_3 C 0.6819(2) 0.9376(2) 0.3112(2)
C41_3 C 0.6467(2) 0.8969(2) 0.2957(3)
H29_3 H 0.6096 0.9020 0.2981
C46_3 C 0.6673(2) 0.8489(2) 0.2769(2)
H34_3 H 0.6432 0.8225 0.2656
O1_4 O 0.7344(2) 0.5313(2) 0.6448(3)
N2_4 N 0.6596(2) 0.4858(2) 0.6711(2)
H1_4 H 0.6250 0.4884 0.6734
C1_4 C 0.6051(2) 0.5903(2) 0.6646(2)
H2_4 H 0.5953 0.5703 0.6948
C2_4 C 0.6500(2) 0.5754(2) 0.6344(2)
C3_4 C 0.6856(3) 0.5288(3) 0.6506(3)
C4_4 C 0.7535(2) 0.3776(3) 0.7114(3)
H3_4 H 0.7905 0.3712 0.7133
C5_4 C 0.7363(2) 0.4277(2) 0.6935(3)
H4_4 H 0.7612 0.4544 0.6847
C6_4 C 0.6819(2) 0.4376(2) 0.6888(2)
C7_4 C 0.6467(2) 0.3969(2) 0.7043(3)
H5_4 H 0.6096 0.4020 0.7019
C8_4 C 0.6673(2) 0.3489(2) 0.7231(2)
H6_4 H 0.6432 0.3225 0.7344
O2_4 O 0.6448(3) 0.7344(2) 0.5313(2)
O3_4 O 0.5313(2) 0.6448(3) 0.7344(2)
N12_4 N 0.6711(2) 0.6596(2) 0.4858(2)
N13_4 N 0.4858(2) 0.6711(2) 0.6596(2)
H7_4 H 0.6734 0.6250 0.4884
H8_4 H 0.4884 0.6734 0.6250
C9_4 C 0.5903(2) 0.6646(2) 0.6051(2)
C10_4 C 0.6646(2) 0.6051(2) 0.5903(2)
H12_4 H 0.5703 0.6948 0.5953
H13_4 H 0.6948 0.5953 0.5703
C14_4 C 0.5754(2) 0.6344(2) 0.6500(2)
C15_4 C 0.6344(2) 0.6500(2) 0.5754(2)
C19_4 C 0.6506(3) 0.6856(3) 0.5288(3)
C20_4 C 0.5288(3) 0.6506(3) 0.6856(3)
C24_4 C 0.7114(3) 0.7535(2) 0.3776(3)
C25_4 C 0.3776(3) 0.7114(3) 0.7535(2)
H17_4 H 0.7133 0.7905 0.3712
H18_4 H 0.3712 0.7133 0.7905
C29_4 C 0.6935(3) 0.7363(2) 0.4277(2)
C30_4 C 0.4277(2) 0.6935(3) 0.7363(2)
H22_4 H 0.6847 0.7612 0.4544
H23_4 H 0.4544 0.6847 0.7612
C34_4 C 0.6888(2) 0.6819(2) 0.4376(2)
C35_4 C 0.4376(2) 0.6888(2) 0.6819(2)
C39_4 C 0.7043(3) 0.6467(2) 0.3969(2)
C40_4 C 0.3969(2) 0.7043(3) 0.6467(2)
H27_4 H 0.7019 0.6096 0.4020
H28_4 H 0.4020 0.7019 0.6096
C44_4 C 0.7231(2) 0.6673(2) 0.3489(2)
C45_4 C 0.3489(2) 0.7231(2) 0.6673(2)
H32_4 H 0.7344 0.6432 0.3225
H33_4 H 0.3225 0.7344 0.6432
N15_4 N 0.0142(2) 0.8289(2) 0.8404(2)
H10_4 H 0.0116 0.8266 0.8750
C27_4 C 0.1224(3) 0.7886(3) 0.7465(2)
H20_4 H 0.1288 0.7867 0.7095
C32_4 C 0.0723(2) 0.8065(3) 0.7637(2)
H25_4 H 0.0456 0.8153 0.7388
C37_4 C 0.0624(2) 0.8112(2) 0.8181(2)
C42_4 C 0.1031(2) 0.7957(3) 0.8533(2)
H30_4 H 0.0980 0.7981 0.8904
C47_4 C 0.1511(2) 0.7769(2) 0.8327(2)
H35_4 H 0.1775 0.7656 0.8568
N16_4 N 0.8404(2) 0.0142(2) 0.8289(2)
H11_4 H 0.8750 0.0116 0.8266
C28_4 C 0.7465(2) 0.1224(3) 0.7886(3)
H21_4 H 0.7095 0.1288 0.7867
C33_4 C 0.7637(2) 0.0723(2) 0.8065(3)
H26_4 H 0.7388 0.0456 0.8153
C38_4 C 0.8181(2) 0.0624(2) 0.8112(2)
C43_4 C 0.8533(2) 0.1031(2) 0.7957(3)
H31_4 H 0.8904 0.0980 0.7981
C48_4 C 0.8327(2) 0.1511(2) 0.7769(2)
H36_4 H 0.8568 0.1775 0.7656
N14_4 N 0.8289(2) 0.8404(2) 0.0142(2)
H9_4 H 0.8266 0.8750 0.0116
C26_4 C 0.7886(3) 0.7465(2) 0.1224(3)
H19_4 H 0.7867 0.7095 0.1288
C31_4 C 0.8065(3) 0.7637(2) 0.0723(2)
H24_4 H 0.8153 0.7388 0.0456
C36_4 C 0.8112(2) 0.8181(2) 0.0624(2)
C41_4 C 0.7957(3) 0.8533(2) 0.1031(2)
H29_4 H 0.7981 0.8904 0.0980
C46_4 C 0.7769(2) 0.8327(2) 0.1511(2)
H34_4 H 0.7656 0.8568 0.1775
O4_4 O 0.8552(3) 0.7656(2) 0.9687(2)
O5_4 O 0.9687(2) 0.8552(3) 0.7656(2)
O6_4 O 0.7656(2) 0.9687(2) 0.8552(3)
C11_4 C 0.8354(2) 0.8949(2) 0.9097(2)
C12_4 C 0.8949(2) 0.9097(2) 0.8354(2)
C13_4 C 0.9097(2) 0.8354(2) 0.8949(2)
H14_4 H 0.8052 0.9047 0.9297
H15_4 H 0.9047 0.9297 0.8052
H16_4 H 0.9297 0.8052 0.9047
C16_4 C 0.8656(2) 0.8500(2) 0.9246(2)
C17_4 C 0.8500(2) 0.9246(2) 0.8656(2)
C18_4 C 0.9246(2) 0.8656(2) 0.8500(2)
C21_4 C 0.8494(3) 0.8144(3) 0.9712(3)
C22_4 C 0.9712(3) 0.8494(3) 0.8144(3)
C23_4 C 0.8144(3) 0.9712(3) 0.8494(3)
Cd3_2 Cd 0.2500 0.7500 0.2500
Cd4_2 Cd 0.2500 0.2500 0.7500
N4_3 N 0.16185(17) 0.72608(18) 0.27976(18)
N6_2 N 0.16185(17) 0.22608(18) 0.72024(18)
N13_5 N 0.0142(2) 0.6711(2) 0.3404(2)
N15_5 N 0.0142(2) 0.1711(2) 0.6596(2)
H8_5 H 0.0116 0.6734 0.3750
H10_5 H 0.0116 0.1734 0.6250
C25_5 C 0.1224(3) 0.7114(3) 0.2465(2)
C27_5 C 0.1224(3) 0.2114(3) 0.7535(2)
H18_5 H 0.1288 0.7133 0.2095
H20_5 H 0.1288 0.2133 0.7905
C30_5 C 0.0723(2) 0.6935(3) 0.2637(2)
C32_5 C 0.0723(2) 0.1935(3) 0.7363(2)
H23_5 H 0.0456 0.6847 0.2388
H25_5 H 0.0456 0.1847 0.7612
C35_5 C 0.0624(2) 0.6888(2) 0.3181(2)
C37_5 C 0.0624(2) 0.1888(2) 0.6819(2)
C40_5 C 0.1031(2) 0.7043(3) 0.3533(2)
C42_5 C 0.1031(2) 0.2043(3) 0.6467(2)
H28_5 H 0.0980 0.7019 0.3904
H30_5 H 0.0980 0.2019 0.6096
C45_5 C 0.1511(2) 0.7231(2) 0.3327(2)
C47_5 C 0.1511(2) 0.2231(2) 0.6673(2)
H33_5 H 0.1775 0.7344 0.3568
H35_5 H 0.1775 0.2344 0.6432
Cd1_2 Cd 0.7500 0.2500 0.2500
O1_5 O 0.7656(2) 0.5313(2) 0.3552(3)
N1_4 N 0.77976(18) 0.33815(17) 0.27392(18)
N2_5 N 0.8404(2) 0.4858(2) 0.3289(2)
H1_5 H 0.8750 0.4884 0.3266
C1_5 C 0.8949(2) 0.5903(2) 0.3354(2)
H2_5 H 0.9047 0.5703 0.3052
C2_5 C 0.8500(2) 0.5754(2) 0.3656(2)
C3_5 C 0.8144(3) 0.5288(3) 0.3494(3)
C4_5 C 0.7465(2) 0.3776(3) 0.2886(3)
H3_5 H 0.7095 0.3712 0.2867
C5_5 C 0.7637(2) 0.4277(2) 0.3065(3)
H4_5 H 0.7388 0.4544 0.3153
C6_5 C 0.8181(2) 0.4376(2) 0.3112(2)
C7_5 C 0.8533(2) 0.3969(2) 0.2957(3)
H5_5 H 0.8904 0.4020 0.2981
C8_5 C 0.8327(2) 0.3489(2) 0.2769(2)
H6_5 H 0.8568 0.3225 0.2656
Cd2_2 Cd 0.7500 0.7500 0.7500
O2_5 O 0.8552(3) 0.7344(2) 0.4687(2)
O3_5 O 0.9687(2) 0.6448(3) 0.2656(2)
O4_5 O 0.8552(3) 0.2344(2) 0.5313(2)
O5_5 O 0.9687(2) 0.1448(3) 0.7344(2)
O6_5 O 0.7656(2) 0.0313(2) 0.6448(3)
N3_4 N 0.77392(18) 0.72024(18) 0.66185(17)
N5_4 N 0.77392(18) 0.22024(18) 0.33815(17)
N8_4 N 0.66185(17) 0.27392(18) 0.27976(18)
N9_3 N 0.72024(18) 0.16185(17) 0.22608(18)
N10_2 N 0.72608(18) 0.27976(18) 0.16185(17)
N11_4 N 0.83815(17) 0.22608(18) 0.22024(18)
N12_5 N 0.8289(2) 0.6596(2) 0.5142(2)
N14_5 N 0.8289(2) 0.1596(2) 0.4858(2)
H7_5 H 0.8266 0.6250 0.5116
H9_5 H 0.8266 0.1250 0.4884
C9_5 C 0.9097(2) 0.6646(2) 0.3949(2)
C10_5 C 0.8354(2) 0.6051(2) 0.4097(2)
C11_5 C 0.8354(2) 0.1051(2) 0.5903(2)
C12_5 C 0.8949(2) 0.0903(2) 0.6646(2)
C13_5 C 0.9097(2) 0.1646(2) 0.6051(2)
H12_5 H 0.9297 0.6948 0.4047
H13_5 H 0.8052 0.5953 0.4297
H14_5 H 0.8052 0.0953 0.5703
H15_5 H 0.9047 0.0703 0.6948
H16_5 H 0.9297 0.1948 0.5953
C14_5 C 0.9246(2) 0.6344(2) 0.3500(2)
C15_5 C 0.8656(2) 0.6500(2) 0.4246(2)
C16_5 C 0.8656(2) 0.1500(2) 0.5754(2)
C17_5 C 0.8500(2) 0.0754(2) 0.6344(2)
C18_5 C 0.9246(2) 0.1344(2) 0.6500(2)
C19_5 C 0.8494(3) 0.6856(3) 0.4712(3)
C20_5 C 0.9712(3) 0.6506(3) 0.3144(3)
C21_5 C 0.8494(3) 0.1856(3) 0.5288(3)
C22_5 C 0.9712(3) 0.1506(3) 0.6856(3)
C23_5 C 0.8144(3) 0.0288(3) 0.6506(3)
C24_5 C 0.7886(3) 0.7535(2) 0.6224(3)
C26_5 C 0.7886(3) 0.2535(2) 0.3776(3)
H17_5 H 0.7867 0.7905 0.6288
H19_5 H 0.7867 0.2905 0.3712
C29_5 C 0.8065(3) 0.7363(2) 0.5723(2)
C31_5 C 0.8065(3) 0.2363(2) 0.4277(2)
H22_5 H 0.8153 0.7612 0.5456
H24_5 H 0.8153 0.2612 0.4544
C34_5 C 0.8112(2) 0.6819(2) 0.5624(2)
C36_5 C 0.8112(2) 0.1819(2) 0.4376(2)
C39_5 C 0.7957(3) 0.6467(2) 0.6031(2)
C41_5 C 0.7957(3) 0.1467(2) 0.3969(2)
H27_5 H 0.7981 0.6096 0.5980
H29_5 H 0.7981 0.1096 0.4020
C44_5 C 0.7769(2) 0.6673(2) 0.6511(2)
C46_5 C 0.7769(2) 0.1673(2) 0.3489(2)
H32_5 H 0.7656 0.6432 0.6775
H34_5 H 0.7656 0.1432 0.3225
N7_4 N 0.77976(18) 0.83815(17) 0.72608(18)
N16_5 N 0.8404(2) 0.9858(2) 0.6711(2)
H11_5 H 0.8750 0.9884 0.6734
C28_5 C 0.7465(2) 0.8776(3) 0.7114(3)
H21_5 H 0.7095 0.8712 0.7133
C33_5 C 0.7637(2) 0.9277(2) 0.6935(3)
H26_5 H 0.7388 0.9544 0.6847
C38_5 C 0.8181(2) 0.9376(2) 0.6888(2)
C43_5 C 0.8533(2) 0.8969(2) 0.7043(3)
H31_5 H 0.8904 0.9020 0.7019
C48_5 C 0.8327(2) 0.8489(2) 0.7231(2)
H36_5 H 0.8568 0.8225 0.7344
N4_4 N 0.27976(18) 0.16185(17) 0.72608(18)
N13_6 N 0.3404(2) 0.0142(2) 0.6711(2)
N15_6 N 0.6596(2) 0.0142(2) 0.1711(2)
H8_6 H 0.3750 0.0116 0.6734
H10_6 H 0.6250 0.0116 0.1734
C25_6 C 0.2465(2) 0.1224(3) 0.7114(3)
C27_6 C 0.7535(2) 0.1224(3) 0.2114(3)
H18_6 H 0.2095 0.1288 0.7133
H20_6 H 0.7905 0.1288 0.2133
C30_6 C 0.2637(2) 0.0723(2) 0.6935(3)
C32_6 C 0.7363(2) 0.0723(2) 0.1935(3)
H23_6 H 0.2388 0.0456 0.6847
H25_6 H 0.7612 0.0456 0.1847
C35_6 C 0.3181(2) 0.0624(2) 0.6888(2)
C37_6 C 0.6819(2) 0.0624(2) 0.1888(2)
C40_6 C 0.3533(2) 0.1031(2) 0.7043(3)
C42_6 C 0.6467(2) 0.1031(2) 0.2043(3)
H28_6 H 0.3904 0.0980 0.7019
H30_6 H 0.6096 0.0980 0.2019
C45_6 C 0.3327(2) 0.1511(2) 0.7231(2)
C47_6 C 0.6673(2) 0.1511(2) 0.2231(2)
H33_6 H 0.3568 0.1775 0.7344
H35_6 H 0.6432 0.1775 0.2344
O1_6 O 0.3552(3) 0.7656(2) 0.5313(2)
N1_5 N 0.27392(18) 0.77976(18) 0.33815(17)
N2_6 N 0.3289(2) 0.8404(2) 0.4858(2)
H1_6 H 0.3266 0.8750 0.4884
C1_6 C 0.3354(2) 0.8949(2) 0.5903(2)
H2_6 H 0.3052 0.9047 0.5703
C2_6 C 0.3656(2) 0.8500(2) 0.5754(2)
C3_6 C 0.3494(3) 0.8144(3) 0.5288(3)
C4_6 C 0.2886(3) 0.7465(2) 0.3776(3)
H3_6 H 0.2867 0.7095 0.3712
C5_6 C 0.3065(3) 0.7637(2) 0.4277(2)
H4_6 H 0.3153 0.7388 0.4544
C6_6 C 0.3112(2) 0.8181(2) 0.4376(2)
C7_6 C 0.2957(3) 0.8533(2) 0.3969(2)
H5_6 H 0.2981 0.8904 0.4020
C8_6 C 0.2769(2) 0.8327(2) 0.3489(2)
H6_6 H 0.2656 0.8568 0.3225
O2_6 O 0.4687(2) 0.8552(3) 0.7344(2)
O3_6 O 0.2656(2) 0.9687(2) 0.6448(3)
O4_6 O 0.5313(2) 0.8552(3) 0.2344(2)
O5_6 O 0.7344(2) 0.9687(2) 0.1448(3)
O6_6 O 0.6448(3) 0.7656(2) 0.0313(2)
N3_5 N 0.66185(17) 0.77392(18) 0.72024(18)
N5_5 N 0.33815(17) 0.77392(18) 0.22024(18)
N8_5 N 0.27976(18) 0.66185(17) 0.27392(18)
N9_4 N 0.22608(18) 0.72024(18) 0.16185(17)
N11_5 N 0.22024(18) 0.83815(17) 0.22608(18)
N12_6 N 0.5142(2) 0.8289(2) 0.6596(2)
N14_6 N 0.4858(2) 0.8289(2) 0.1596(2)
H7_6 H 0.5116 0.8266 0.6250
H9_6 H 0.4884 0.8266 0.1250
C9_6 C 0.3949(2) 0.9097(2) 0.6646(2)
C10_6 C 0.4097(2) 0.8354(2) 0.6051(2)
C11_6 C 0.5903(2) 0.8354(2) 0.1051(2)
C12_6 C 0.6646(2) 0.8949(2) 0.0903(2)
C13_6 C 0.6051(2) 0.9097(2) 0.1646(2)
H12_6 H 0.4047 0.9297 0.6948
H13_6 H 0.4297 0.8052 0.5953
H14_6 H 0.5703 0.8052 0.0953
H15_6 H 0.6948 0.9047 0.0703
H16_6 H 0.5953 0.9297 0.1948
C14_6 C 0.3500(2) 0.9246(2) 0.6344(2)
C15_6 C 0.4246(2) 0.8656(2) 0.6500(2)
C16_6 C 0.5754(2) 0.8656(2) 0.1500(2)
C17_6 C 0.6344(2) 0.8500(2) 0.0754(2)
C18_6 C 0.6500(2) 0.9246(2) 0.1344(2)
C19_6 C 0.4712(3) 0.8494(3) 0.6856(3)
C20_6 C 0.3144(3) 0.9712(3) 0.6506(3)
C21_6 C 0.5288(3) 0.8494(3) 0.1856(3)
C22_6 C 0.6856(3) 0.9712(3) 0.1506(3)
C23_6 C 0.6506(3) 0.8144(3) 0.0288(3)
C24_6 C 0.6224(3) 0.7886(3) 0.7535(2)
C26_6 C 0.3776(3) 0.7886(3) 0.2535(2)
H17_6 H 0.6288 0.7867 0.7905
H19_6 H 0.3712 0.7867 0.2905
C29_6 C 0.5723(2) 0.8065(3) 0.7363(2)
C31_6 C 0.4277(2) 0.8065(3) 0.2363(2)
H22_6 H 0.5456 0.8153 0.7612
H24_6 H 0.4544 0.8153 0.2612
C34_6 C 0.5624(2) 0.8112(2) 0.6819(2)
C36_6 C 0.4376(2) 0.8112(2) 0.1819(2)
C39_6 C 0.6031(2) 0.7957(3) 0.6467(2)
C41_6 C 0.3969(2) 0.7957(3) 0.1467(2)
H27_6 H 0.5980 0.7981 0.6096
H29_6 H 0.4020 0.7981 0.1096
C44_6 C 0.6511(2) 0.7769(2) 0.6673(2)
C46_6 C 0.3489(2) 0.7769(2) 0.1673(2)
H32_6 H 0.6775 0.7656 0.6432
H34_6 H 0.3225 0.7656 0.1432
N7_5 N 0.72608(18) 0.77976(18) 0.83815(17)
N16_6 N 0.6711(2) 0.8404(2) 0.9858(2)
H11_6 H 0.6734 0.8750 0.9884
C28_6 C 0.7114(3) 0.7465(2) 0.8776(3)
H21_6 H 0.7133 0.7095 0.8712
C33_6 C 0.6935(3) 0.7637(2) 0.9277(2)
H26_6 H 0.6847 0.7388 0.9544
C38_6 C 0.6888(2) 0.8181(2) 0.9376(2)
C43_6 C 0.7043(3) 0.8533(2) 0.8969(2)
H31_6 H 0.7019 0.8904 0.9020
C48_6 C 0.7231(2) 0.8327(2) 0.8489(2)
H36_6 H 0.7344 0.8568 0.8225
N13_7 N 0.6711(2) 0.3404(2) 0.0142(2)
N15_7 N 0.1711(2) 0.6596(2) 0.0142(2)
H8_7 H 0.6734 0.3750 0.0116
H10_7 H 0.1734 0.6250 0.0116
C25_7 C 0.7114(3) 0.2465(2) 0.1224(3)
C27_7 C 0.2114(3) 0.7535(2) 0.1224(3)
H18_7 H 0.7133 0.2095 0.1288
H20_7 H 0.2133 0.7905 0.1288
C30_7 C 0.6935(3) 0.2637(2) 0.0723(2)
C32_7 C 0.1935(3) 0.7363(2) 0.0723(2)
H23_7 H 0.6847 0.2388 0.0456
H25_7 H 0.1847 0.7612 0.0456
C35_7 C 0.6888(2) 0.3181(2) 0.0624(2)
C37_7 C 0.1888(2) 0.6819(2) 0.0624(2)
C40_7 C 0.7043(3) 0.3533(2) 0.1031(2)
C42_7 C 0.2043(3) 0.6467(2) 0.1031(2)
H28_7 H 0.7019 0.3904 0.0980
H30_7 H 0.2019 0.6096 0.0980
C45_7 C 0.7231(2) 0.3327(2) 0.1511(2)
C47_7 C 0.2231(2) 0.6673(2) 0.1511(2)
H33_7 H 0.7344 0.3568 0.1775
H35_7 H 0.2344 0.6432 0.1775
O1_7 O 0.5313(2) 0.3552(3) 0.7656(2)
N1_6 N 0.33815(17) 0.27392(18) 0.77976(18)
N2_7 N 0.4858(2) 0.3289(2) 0.8404(2)
H1_7 H 0.4884 0.3266 0.8750
C1_7 C 0.5903(2) 0.3354(2) 0.8949(2)
H2_7 H 0.5703 0.3052 0.9047
C2_7 C 0.5754(2) 0.3656(2) 0.8500(2)
C3_7 C 0.5288(3) 0.3494(3) 0.8144(3)
C4_7 C 0.3776(3) 0.2886(3) 0.7465(2)
H3_7 H 0.3712 0.2867 0.7095
C5_7 C 0.4277(2) 0.3065(3) 0.7637(2)
H4_7 H 0.4544 0.3153 0.7388
C6_7 C 0.4376(2) 0.3112(2) 0.8181(2)
C7_7 C 0.3969(2) 0.2957(3) 0.8533(2)
H5_7 H 0.4020 0.2981 0.8904
C8_7 C 0.3489(2) 0.2769(2) 0.8327(2)
H6_7 H 0.3225 0.2656 0.8568
O2_7 O 0.7344(2) 0.4687(2) 0.8552(3)
O3_7 O 0.6448(3) 0.2656(2) 0.9687(2)
O4_7 O 0.2344(2) 0.5313(2) 0.8552(3)
O5_7 O 0.1448(3) 0.7344(2) 0.9687(2)
O6_7 O 0.0313(2) 0.6448(3) 0.7656(2)
N3_6 N 0.72024(18) 0.66185(17) 0.77392(18)
N5_6 N 0.22024(18) 0.33815(17) 0.77392(18)
N8_6 N 0.27392(18) 0.27976(18) 0.66185(17)
N11_6 N 0.22608(18) 0.22024(18) 0.83815(17)
N12_7 N 0.6596(2) 0.5142(2) 0.8289(2)
N14_7 N 0.1596(2) 0.4858(2) 0.8289(2)
H7_7 H 0.6250 0.5116 0.8266
H9_7 H 0.1250 0.4884 0.8266
C9_7 C 0.6646(2) 0.3949(2) 0.9097(2)
C10_7 C 0.6051(2) 0.4097(2) 0.8354(2)
C11_7 C 0.1051(2) 0.5903(2) 0.8354(2)
C12_7 C 0.0903(2) 0.6646(2) 0.8949(2)
C13_7 C 0.1646(2) 0.6051(2) 0.9097(2)
H12_7 H 0.6948 0.4047 0.9297
H13_7 H 0.5953 0.4297 0.8052
H14_7 H 0.0953 0.5703 0.8052
H15_7 H 0.0703 0.6948 0.9047
H16_7 H 0.1948 0.5953 0.9297
C14_7 C 0.6344(2) 0.3500(2) 0.9246(2)
C15_7 C 0.6500(2) 0.4246(2) 0.8656(2)
C16_7 C 0.1500(2) 0.5754(2) 0.8656(2)
C17_7 C 0.0754(2) 0.6344(2) 0.8500(2)
C18_7 C 0.1344(2) 0.6500(2) 0.9246(2)
C19_7 C 0.6856(3) 0.4712(3) 0.8494(3)
C20_7 C 0.6506(3) 0.3144(3) 0.9712(3)
C21_7 C 0.1856(3) 0.5288(3) 0.8494(3)
C22_7 C 0.1506(3) 0.6856(3) 0.9712(3)
C23_7 C 0.0288(3) 0.6506(3) 0.8144(3)
C24_7 C 0.7535(2) 0.6224(3) 0.7886(3)
C26_7 C 0.2535(2) 0.3776(3) 0.7886(3)
H17_7 H 0.7905 0.6288 0.7867
H19_7 H 0.2905 0.3712 0.7867
C29_7 C 0.7363(2) 0.5723(2) 0.8065(3)
C31_7 C 0.2363(2) 0.4277(2) 0.8065(3)
H22_7 H 0.7612 0.5456 0.8153
H24_7 H 0.2612 0.4544 0.8153
C34_7 C 0.6819(2) 0.5624(2) 0.8112(2)
C36_7 C 0.1819(2) 0.4376(2) 0.8112(2)
C39_7 C 0.6467(2) 0.6031(2) 0.7957(3)
C41_7 C 0.1467(2) 0.3969(2) 0.7957(3)
H27_7 H 0.6096 0.5980 0.7981
H29_7 H 0.1096 0.4020 0.7981
C44_7 C 0.6673(2) 0.6511(2) 0.7769(2)
C46_7 C 0.1673(2) 0.3489(2) 0.7769(2)
H32_7 H 0.6432 0.6775 0.7656
H34_7 H 0.1432 0.3225 0.7656
N7_6 N 0.83815(17) 0.72608(18) 0.77976(18)
N16_7 N 0.9858(2) 0.6711(2) 0.8404(2)
H11_7 H 0.9884 0.6734 0.8750
C28_7 C 0.8776(3) 0.7114(3) 0.7465(2)
H21_7 H 0.8712 0.7133 0.7095
C33_7 C 0.9277(2) 0.6935(3) 0.7637(2)
H26_7 H 0.9544 0.6847 0.7388
C38_7 C 0.9376(2) 0.6888(2) 0.8181(2)
C43_7 C 0.8969(2) 0.7043(3) 0.8533(2)
H31_7 H 0.9020 0.7019 0.8904
C48_7 C 0.8489(2) 0.7231(2) 0.8327(2)
H36_7 H 0.8225 0.7344 0.8568
O1_8 O 0.2344(2) 0.0313(2) 0.1448(3)
C1_8 C 0.1051(2) 0.0903(2) 0.1646(2)
H2_8 H 0.0953 0.0703 0.1948
C2_8 C 0.1500(2) 0.0754(2) 0.1344(2)
C3_8 C 0.1856(3) 0.0288(3) 0.1506(3)
O2_8 O 0.1448(3) 0.2344(2) 0.0313(2)
O3_8 O 0.0313(2) 0.1448(3) 0.2344(2)
C9_8 C 0.0903(2) 0.1646(2) 0.1051(2)
C10_8 C 0.1646(2) 0.1051(2) 0.0903(2)
H12_8 H 0.0703 0.1948 0.0953
H13_8 H 0.1948 0.0953 0.0703
C14_8 C 0.0754(2) 0.1344(2) 0.1500(2)
C15_8 C 0.1344(2) 0.1500(2) 0.0754(2)
C19_8 C 0.1506(3) 0.1856(3) 0.0288(3)
C20_8 C 0.0288(3) 0.1506(3) 0.1856(3)
N12_8 N 0.1711(2) 0.1596(2) 0.9858(2)
H7_8 H 0.1734 0.1250 0.9884
C24_8 C 0.2114(3) 0.2535(2) 0.8776(3)
H17_8 H 0.2133 0.2905 0.8712
C29_8 C 0.1935(3) 0.2363(2) 0.9277(2)
H22_8 H 0.1847 0.2612 0.9544
C34_8 C 0.1888(2) 0.1819(2) 0.9376(2)
C39_8 C 0.2043(3) 0.1467(2) 0.8969(2)
H27_8 H 0.2019 0.1096 0.9020
C44_8 C 0.2231(2) 0.1673(2) 0.8489(2)
H32_8 H 0.2344 0.1432 0.8225
N2_8 N 0.1596(2) 0.9858(2) 0.1711(2)
H1_8 H 0.1250 0.9884 0.1734
C4_8 C 0.2535(2) 0.8776(3) 0.2114(3)
H3_8 H 0.2905 0.8712 0.2133
C5_8 C 0.2363(2) 0.9277(2) 0.1935(3)
H4_8 H 0.2612 0.9544 0.1847
C6_8 C 0.1819(2) 0.9376(2) 0.1888(2)
C7_8 C 0.1467(2) 0.8969(2) 0.2043(3)
H5_8 H 0.1096 0.9020 0.2019
C8_8 C 0.1673(2) 0.8489(2) 0.2231(2)
H6_8 H 0.1432 0.8225 0.2344
N13_8 N 0.9858(2) 0.1711(2) 0.1596(2)
H8_8 H 0.9884 0.1734 0.1250
C25_8 C 0.8776(3) 0.2114(3) 0.2535(2)
H18_8 H 0.8712 0.2133 0.2905
C30_8 C 0.9277(2) 0.1935(3) 0.2363(2)
H23_8 H 0.9544 0.1847 0.2612
C35_8 C 0.9376(2) 0.1888(2) 0.1819(2)
C40_8 C 0.8969(2) 0.2043(3) 0.1467(2)
H28_8 H 0.9020 0.2019 0.1096
C45_8 C 0.8489(2) 0.2231(2) 0.1673(2)
H33_8 H 0.8225 0.2344 0.1432
O4_8 O 0.3552(3) 0.2656(2) 0.4687(2)
O5_8 O 0.4687(2) 0.3552(3) 0.2656(2)
O6_8 O 0.2656(2) 0.4687(2) 0.3552(3)
N14_8 N 0.3289(2) 0.3404(2) 0.5142(2)
N15_8 N 0.5142(2) 0.3289(2) 0.3404(2)
N16_8 N 0.3404(2) 0.5142(2) 0.3289(2)
H9_8 H 0.3266 0.3750 0.5116
H10_8 H 0.5116 0.3266 0.3750
H11_8 H 0.3750 0.5116 0.3266
C11_8 C 0.3354(2) 0.3949(2) 0.4097(2)
C12_8 C 0.3949(2) 0.4097(2) 0.3354(2)
C13_8 C 0.4097(2) 0.3354(2) 0.3949(2)
H14_8 H 0.3052 0.4047 0.4297
H15_8 H 0.4047 0.4297 0.3052
H16_8 H 0.4297 0.3052 0.4047
C16_8 C 0.3656(2) 0.3500(2) 0.4246(2)
C17_8 C 0.3500(2) 0.4246(2) 0.3656(2)
C18_8 C 0.4246(2) 0.3656(2) 0.3500(2)
C21_8 C 0.3494(3) 0.3144(3) 0.4712(3)
C22_8 C 0.4712(3) 0.3494(3) 0.3144(3)
C23_8 C 0.3144(3) 0.4712(3) 0.3494(3)
C26_8 C 0.2886(3) 0.2465(2) 0.6224(3)
C27_8 C 0.6224(3) 0.2886(3) 0.2465(2)
C28_8 C 0.2465(2) 0.6224(3) 0.2886(3)
H19_8 H 0.2867 0.2095 0.6288
H20_8 H 0.6288 0.2867 0.2095
H21_8 H 0.2095 0.6288 0.2867
C31_8 C 0.3065(3) 0.2637(2) 0.5723(2)
C32_8 C 0.5723(2) 0.3065(3) 0.2637(2)
C33_8 C 0.2637(2) 0.5723(2) 0.3065(3)
H24_8 H 0.3153 0.2388 0.5456
H25_8 H 0.5456 0.3153 0.2388
H26_8 H 0.2388 0.5456 0.3153
C36_8 C 0.3112(2) 0.3181(2) 0.5624(2)
C37_8 C 0.5624(2) 0.3112(2) 0.3181(2)
C38_8 C 0.3181(2) 0.5624(2) 0.3112(2)
C41_8 C 0.2957(3) 0.3533(2) 0.6031(2)
C42_8 C 0.6031(2) 0.2957(3) 0.3533(2)
C43_8 C 0.3533(2) 0.6031(2) 0.2957(3)
H29_8 H 0.2981 0.3904 0.5980
H30_8 H 0.5980 0.2981 0.3904
H31_8 H 0.3904 0.5980 0.2981
C46_8 C 0.2769(2) 0.3327(2) 0.6511(2)
C47_8 C 0.6511(2) 0.2769(2) 0.3327(2)
C48_8 C 0.3327(2) 0.6511(2) 0.2769(2)
H34_8 H 0.2656 0.3568 0.6775
H35_8 H 0.6775 0.2656 0.3568
H36_8 H 0.3568 0.6775 0.2656
Cl1 Cl 0.4575(5) 0.9736(5) 0.8384(5)
Cl1_2 Cl 0.8384(5) 0.4575(5) 0.9736(5)
Cl1_3 Cl 0.9736(5) 0.8384(5) 0.4575(5)
Cl1_4 Cl 0.9575(5) 0.4736(5) 0.3384(5)
Cl1_5 Cl 0.3384(5) 0.9575(5) 0.4736(5)
Cl1_6 Cl 0.4736(5) 0.3384(5) 0.9575(5)
Cl1_7 Cl 0.0425(5) 0.0264(5) 0.3384(5)
Cl1_8 Cl 0.5425(5) 0.4736(5) 0.6616(5)
Cl1_9 Cl 0.9575(5) 0.5264(5) 0.1616(5)
Cl1_10 Cl 0.3384(5) 0.0425(5) 0.0264(5)
Cl1_11 Cl 0.6616(5) 0.5425(5) 0.4736(5)
Cl1_12 Cl 0.1616(5) 0.9575(5) 0.5264(5)
Cl1_13 Cl 0.0264(5) 0.3384(5) 0.0425(5)
Cl1_14 Cl 0.4736(5) 0.6616(5) 0.5425(5)
Cl1_15 Cl 0.5264(5) 0.1616(5) 0.9575(5)
Cl1_16 Cl 0.5425(5) 0.5264(5) 0.8384(5)
Cl1_17 Cl 0.0425(5) 0.9736(5) 0.1616(5)
Cl1_18 Cl 0.4575(5) 0.0264(5) 0.6616(5)
Cl1_19 Cl 0.8384(5) 0.5425(5) 0.5264(5)
Cl1_20 Cl 0.1616(5) 0.0425(5) 0.9736(5)
Cl1_21 Cl 0.6616(5) 0.4575(5) 0.0264(5)
Cl1_22 Cl 0.5264(5) 0.8384(5) 0.5425(5)
Cl1_23 Cl 0.9736(5) 0.1616(5) 0.0425(5)
Cl1_24 Cl 0.0264(5) 0.6616(5) 0.4575(5)
Cl1_25 Cl 0.5425(5) 0.0264(5) 0.1616(5)
Cl1_26 Cl 0.1616(5) 0.5425(5) 0.0264(5)
Cl1_27 Cl 0.0264(5) 0.1616(5) 0.5425(5)
Cl1_28 Cl 0.0425(5) 0.5264(5) 0.6616(5)
Cl1_29 Cl 0.6616(5) 0.0425(5) 0.5264(5)
Cl1_30 Cl 0.5264(5) 0.6616(5) 0.0425(5)
Cl1_31 Cl 0.9575(5) 0.9736(5) 0.6616(5)
Cl1_32 Cl 0.4575(5) 0.5264(5) 0.3384(5)
Cl1_33 Cl 0.0425(5) 0.4736(5) 0.8384(5)
Cl1_34 Cl 0.6616(5) 0.9575(5) 0.9736(5)
Cl1_35 Cl 0.3384(5) 0.4575(5) 0.5264(5)
Cl1_36 Cl 0.8384(5) 0.0425(5) 0.4736(5)
Cl1_37 Cl 0.9736(5) 0.6616(5) 0.9575(5)
Cl1_38 Cl 0.5264(5) 0.3384(5) 0.4575(5)
Cl1_39 Cl 0.4736(5) 0.8384(5) 0.0425(5)
Cl1_40 Cl 0.4575(5) 0.4736(5) 0.1616(5)
Cl1_41 Cl 0.9575(5) 0.0264(5) 0.8384(5)
Cl1_42 Cl 0.5425(5) 0.9736(5) 0.3384(5)
Cl1_43 Cl 0.1616(5) 0.4575(5) 0.4736(5)
Cl1_44 Cl 0.8384(5) 0.9575(5) 0.0264(5)
Cl1_45 Cl 0.3384(5) 0.5425(5) 0.9736(5)
Cl1_46 Cl 0.4736(5) 0.1616(5) 0.4575(5)
Cl1_47 Cl 0.0264(5) 0.8384(5) 0.9575(5)
Cl1_48 Cl 0.9736(5) 0.3384(5) 0.5425(5)
loop_
_geom_bond_atom_site_label_1
_geom_bond_atom_site_label_2
_geom_bond_site_symmetry_1
_geom_bond_site_symmetry_2
Cd2 N3 1_555 1_555
N3 C24 1_555 1_555
N12 H7 1_555 1_555
C24 H17 1_555 1_555
C29 C24 1_555 1_555
H22 C29 1_555 1_555
C34 N12 1_555 1_555
C39 C34 1_555 1_555
H27 C39 1_555 1_555
C44 N3 1_555 1_555
H32 C44 1_555 1_555
C29 C34 1_555 1_555
C39 C44 1_555 1_555
O1 C3 1_555 1_555
C1 H2 1_555 1_555
C2 C1 1_555 1_555
Cd3 N4 1_555 1_555
O2 C19 1_555 1_555
O3 C20 1_555 1_555
N4 C25 1_555 1_555
N13 H8 1_555 1_555
C9 H12 1_555 1_555
C10 C2 1_555 1_555
H13 C10 1_555 1_555
C14 C1 1_555 1_555
C15 C9 1_555 1_555
C20 N13 1_555 1_555
C25 H18 1_555 1_555
C30 C25 1_555 1_555
H23 C30 1_555 1_555
C35 N13 1_555 1_555
C40 C35 1_555 1_555
H28 C40 1_555 1_555
C45 N4 1_555 1_555
H33 C45 1_555 1_555
C2 C3 1_555 1_555
C9 C14 1_555 1_555
C10 C15 1_555 1_555
C14 C20 1_555 1_555
C15 C19 1_555 1_555
C30 C35 1_555 1_555
C40 C45 1_555 1_555
Cd4 N6 1_555 1_555
Cd2 N7 1_555 1_555
O4 C21 1_555 1_555
O5 C22 1_555 1_555
O6 C23 1_555 1_555
N6 C27 1_555 1_555
N7 C28 1_555 1_555
N15 H10 1_555 1_555
N16 H11 1_555 1_555
C11 H14 1_555 1_555
C12 H15 1_555 1_555
C13 H16 1_555 1_555
C16 C11 1_555 1_555
C17 C11 1_555 1_555
C18 C12 1_555 1_555
C22 N15 1_555 1_555
C23 N16 1_555 1_555
C27 H20 1_555 1_555
C28 H21 1_555 1_555
C32 C27 1_555 1_555
C33 C28 1_555 1_555
H25 C32 1_555 1_555
H26 C33 1_555 1_555
C37 N15 1_555 1_555
C38 N16 1_555 1_555
C42 C37 1_555 1_555
C43 C38 1_555 1_555
H30 C42 1_555 1_555
H31 C43 1_555 1_555
C47 N6 1_555 1_555
C48 N7 1_555 1_555
H35 C47 1_555 1_555
H36 C48 1_555 1_555
C12 C17 1_555 1_555
C13 C16 1_555 1_555
C13 C18 1_555 1_555
C16 C21 1_555 1_555
C17 C23 1_555 1_555
C18 C22 1_555 1_555
C32 C37 1_555 1_555
C33 C38 1_555 1_555
C42 C47 1_555 1_555
C43 C48 1_555 1_555
Cd1 N1 1_555 1_555
N1 C4 1_555 1_555
N2 H1 1_555 1_555
C4 H3 1_555 1_555
C5 C4 1_555 1_555
H4 C5 1_555 1_555
C6 N2 1_555 1_555
C7 C6 1_555 1_555
H5 C7 1_555 1_555
C8 N1 1_555 1_555
H6 C8 1_555 1_555
N5 Cd1 1_555 1_555
N8 Cd1 1_555 1_555
N9 Cd1 1_555 1_555
N10 Cd1 1_555 1_555
N11 Cd1 1_555 1_555
N14 H9 1_555 1_555
C26 N5 1_555 1_555
H19 C26 1_555 1_555
C31 C26 1_555 1_555
H24 C31 1_555 1_555
C36 N14 1_555 1_555
C41 C36 1_555 1_555
H29 C41 1_555 1_555
C46 N5 1_555 1_555
H34 C46 1_555 1_555
C5 C6 1_555 1_555
C7 C8 1_555 1_555
C31 C36 1_555 1_555
C41 C46 1_555 1_555
Cd2 N3_2 1_555 1_555
N3_2 C24_2 1_555 1_555
N12_2 H7_2 1_555 1_555
C24_2 H17_2 1_555 1_555
C29_2 C24_2 1_555 1_555
H22_2 C29_2 1_555 1_555
C34_2 N12_2 1_555 1_555
C39_2 C34_2 1_555 1_555
H27_2 C39_2 1_555 1_555
C44_2 N3_2 1_555 1_555
H32_2 C44_2 1_555 1_555
C29_2 C34_2 1_555 1_555
C39_2 C44_2 1_555 1_555
Cd2 N7_2 1_555 1_555
O4_2 C21_2 1_555 1_555
O5_2 C22_2 1_555 1_555
O6_2 C23_2 1_555 1_555
N9 C27_2 1_555 1_555
N7_2 C28_2 1_555 1_555
N15_2 H10_2 1_555 1_555
N16_2 H11_2 1_555 1_555
C11_2 H14_2 1_555 1_555
C12_2 H15_2 1_555 1_555
C13_2 H16_2 1_555 1_555
C16_2 C11_2 1_555 1_555
C17_2 C11_2 1_555 1_555
C18_2 C12_2 1_555 1_555
C22_2 N15_2 1_555 1_555
C23_2 N16_2 1_555 1_555
C27_2 H20_2 1_555 1_555
C28_2 H21_2 1_555 1_555
C32_2 C27_2 1_555 1_555
C33_2 C28_2 1_555 1_555
H25_2 C32_2 1_555 1_555
H26_2 C33_2 1_555 1_555
C37_2 N15_2 1_555 1_555
C38_2 N16_2 1_555 1_555
C42_2 C37_2 1_555 1_555
C43_2 C38_2 1_555 1_555
H30_2 C42_2 1_555 1_555
H31_2 C43_2 1_555 1_555
C47_2 N9 1_555 1_555
C48_2 N7_2 1_555 1_555
H35_2 C47_2 1_555 1_555
H36_2 C48_2 1_555 1_555
C12_2 C17_2 1_555 1_555
C13_2 C16_2 1_555 1_555
C13_2 C18_2 1_555 1_555
C16_2 C21_2 1_555 1_555
C17_2 C23_2 1_555 1_555
C18_2 C22_2 1_555 1_555
C32_2 C37_2 1_555 1_555
C33_2 C38_2 1_555 1_555
C42_2 C47_2 1_555 1_555
C43_2 C48_2 1_555 1_555
O1_2 C3_2 1_555 1_555
C1_2 H2_2 1_555 1_555
C2_2 C1_2 1_555 1_555
Cd4 N4_2 1_555 1_555
O2_2 C19_2 1_555 1_555
O3_2 C20_2 1_555 1_555
N4_2 C25_2 1_555 1_555
N13_2 H8_2 1_555 1_555
C9_2 H12_2 1_555 1_555
C10_2 C2_2 1_555 1_555
H13_2 C10_2 1_555 1_555
C14_2 C1_2 1_555 1_555
C15_2 C9_2 1_555 1_555
C20_2 N13_2 1_555 1_555
C25_2 H18_2 1_555 1_555
C30_2 C25_2 1_555 1_555
H23_2 C30_2 1_555 1_555
C35_2 N13_2 1_555 1_555
C40_2 C35_2 1_555 1_555
H28_2 C40_2 1_555 1_555
C45_2 N4_2 1_555 1_555
H33_2 C45_2 1_555 1_555
C2_2 C3_2 1_555 1_555
C9_2 C14_2 1_555 1_555
C10_2 C15_2 1_555 1_555
C14_2 C20_2 1_555 1_555
C15_2 C19_2 1_555 1_555
C30_2 C35_2 1_555 1_555
C40_2 C45_2 1_555 1_555
Cd3 N1_2 1_555 1_555
N1_2 C4_2 1_555 1_555
N2_2 H1_2 1_555 1_555
C4_2 H3_2 1_555 1_555
C5_2 C4_2 1_555 1_555
H4_2 C5_2 1_555 1_555
C6_2 N2_2 1_555 1_555
C7_2 C6_2 1_555 1_555
H5_2 C7_2 1_555 1_555
C8_2 N1_2 1_555 1_555
H6_2 C8_2 1_555 1_555
N5_2 Cd3 1_555 1_555
N8_2 Cd3 1_555 1_555
N9_2 Cd3 1_555 1_555
N11_2 Cd3 1_555 1_555
N14_2 H9_2 1_555 1_555
C26_2 N5_2 1_555 1_555
H19_2 C26_2 1_555 1_555
C31_2 C26_2 1_555 1_555
H24_2 C31_2 1_555 1_555
C36_2 N14_2 1_555 1_555
C41_2 C36_2 1_555 1_555
H29_2 C41_2 1_555 1_555
C46_2 N5_2 1_555 1_555
H34_2 C46_2 1_555 1_555
C5_2 C6_2 1_555 1_555
C7_2 C8_2 1_555 1_555
C31_2 C36_2 1_555 1_555
C41_2 C46_2 1_555 1_555
Cd2 N3_3 1_555 1_555
N3_3 C24_3 1_555 1_555
N12_3 H7_3 1_555 1_555
C24_3 H17_3 1_555 1_555
C29_3 C24_3 1_555 1_555
H22_3 C29_3 1_555 1_555
C34_3 N12_3 1_555 1_555
C39_3 C34_3 1_555 1_555
H27_3 C39_3 1_555 1_555
C44_3 N3_3 1_555 1_555
H32_3 C44_3 1_555 1_555
C29_3 C34_3 1_555 1_555
C39_3 C44_3 1_555 1_555
O1_3 C3_3 1_555 1_555
C1_3 H2_3 1_555 1_555
C2_3 C1_3 1_555 1_555
O2_3 C19_3 1_555 1_555
O3_3 C20_3 1_555 1_555
N10 C25_3 1_555 1_555
N13_3 H8_3 1_555 1_555
C9_3 H12_3 1_555 1_555
C10_3 C2_3 1_555 1_555
H13_3 C10_3 1_555 1_555
C14_3 C1_3 1_555 1_555
C15_3 C9_3 1_555 1_555
C20_3 N13_3 1_555 1_555
C25_3 H18_3 1_555 1_555
C30_3 C25_3 1_555 1_555
H23_3 C30_3 1_555 1_555
C35_3 N13_3 1_555 1_555
C40_3 C35_3 1_555 1_555
H28_3 C40_3 1_555 1_555
C45_3 N10 1_555 1_555
H33_3 C45_3 1_555 1_555
C2_3 C3_3 1_555 1_555
C9_3 C14_3 1_555 1_555
C10_3 C15_3 1_555 1_555
C14_3 C20_3 1_555 1_555
C15_3 C19_3 1_555 1_555
C30_3 C35_3 1_555 1_555
C40_3 C45_3 1_555 1_555
Cd2 N7_3 1_555 1_555
O4_3 C21_3 1_555 1_555
O5_3 C22_3 1_555 1_555
O6_3 C23_3 1_555 1_555
N9_2 C27_3 1_555 1_555
N7_3 C28_3 1_555 1_555
N15_3 H10_3 1_555 1_555
N16_3 H11_3 1_555 1_555
C11_3 H14_3 1_555 1_555
C12_3 H15_3 1_555 1_555
C13_3 H16_3 1_555 1_555
C16_3 C11_3 1_555 1_555
C17_3 C11_3 1_555 1_555
C18_3 C12_3 1_555 1_555
C22_3 N15_3 1_555 1_555
C23_3 N16_3 1_555 1_555
C27_3 H20_3 1_555 1_555
C28_3 H21_3 1_555 1_555
C32_3 C27_3 1_555 1_555
C33_3 C28_3 1_555 1_555
H25_3 C32_3 1_555 1_555
H26_3 C33_3 1_555 1_555
C37_3 N15_3 1_555 1_555
C38_3 N16_3 1_555 1_555
C42_3 C37_3 1_555 1_555
C43_3 C38_3 1_555 1_555
H30_3 C42_3 1_555 1_555
H31_3 C43_3 1_555 1_555
C47_3 N9_2 1_555 1_555
C48_3 N7_3 1_555 1_555
H35_3 C47_3 1_555 1_555
H36_3 C48_3 1_555 1_555
C12_3 C17_3 1_555 1_555
C13_3 C16_3 1_555 1_555
C13_3 C18_3 1_555 1_555
C16_3 C21_3 1_555 1_555
C17_3 C23_3 1_555 1_555
C18_3 C22_3 1_555 1_555
C32_3 C37_3 1_555 1_555
C33_3 C38_3 1_555 1_555
C42_3 C47_3 1_555 1_555
C43_3 C48_3 1_555 1_555
Cd4 N1_3 1_555 1_555
N1_3 C4_3 1_555 1_555
N2_3 H1_3 1_555 1_555
C4_3 H3_3 1_555 1_555
C5_3 C4_3 1_555 1_555
H4_3 C5_3 1_555 1_555
C6_3 N2_3 1_555 1_555
C7_3 C6_3 1_555 1_555
H5_3 C7_3 1_555 1_555
C8_3 N1_3 1_555 1_555
H6_3 C8_3 1_555 1_555
N5_3 Cd4 1_555 1_555
N8_3 Cd4 1_555 1_555
N11_3 Cd4 1_555 1_555
N14_3 H9_3 1_555 1_555
C26_3 N5_3 1_555 1_555
H19_3 C26_3 1_555 1_555
C31_3 C26_3 1_555 1_555
H24_3 C31_3 1_555 1_555
C36_3 N14_3 1_555 1_555
C41_3 C36_3 1_555 1_555
H29_3 C41_3 1_555 1_555
C46_3 N5_3 1_555 1_555
H34_3 C46_3 1_555 1_555
C5_3 C6_3 1_555 1_555
C7_3 C8_3 1_555 1_555
C31_3 C36_3 1_555 1_555
C41_3 C46_3 1_555 1_555
O1_4 C3_4 1_555 1_555
N11_2 C4_4 1_555 1_555
N2_4 H1_4 1_555 1_555
C1_4 H2_4 1_555 1_555
C2_4 C1_4 1_555 1_555
C3_4 N2_4 1_555 1_555
C4_4 H3_4 1_555 1_555
C5_4 C4_4 1_555 1_555
H4_4 C5_4 1_555 1_555
C6_4 N2_4 1_555 1_555
C7_4 C6_4 1_555 1_555
H5_4 C7_4 1_555 1_555
C8_4 N11_2 1_555 1_555
H6_4 C8_4 1_555 1_555
O2_4 C19_4 1_555 1_555
O3_4 C20_4 1_555 1_555
N11_3 C24_4 1_555 1_555
N11 C25_4 1_555 1_555
N12_4 H7_4 1_555 1_555
N13_4 H8_4 1_555 1_555
C9_4 H12_4 1_555 1_555
C10_4 C2_4 1_555 1_555
H13_4 C10_4 1_555 1_555
C14_4 C1_4 1_555 1_555
C15_4 C9_4 1_555 1_555
C19_4 N12_4 1_555 1_555
C20_4 N13_4 1_555 1_555
C24_4 H17_4 1_555 1_555
C25_4 H18_4 1_555 1_555
C29_4 C24_4 1_555 1_555
C30_4 C25_4 1_555 1_555
H22_4 C29_4 1_555 1_555
H23_4 C30_4 1_555 1_555
C34_4 N12_4 1_555 1_555
C35_4 N13_4 1_555 1_555
C39_4 C34_4 1_555 1_555
C40_4 C35_4 1_555 1_555
H27_4 C39_4 1_555 1_555
H28_4 C40_4 1_555 1_555
C44_4 N11_3 1_555 1_555
C45_4 N11 1_555 1_555
H32_4 C44_4 1_555 1_555
H33_4 C45_4 1_555 1_555
C2_4 C3_4 1_555 1_555
C5_4 C6_4 1_555 1_555
C7_4 C8_4 1_555 1_555
C9_4 C14_4 1_555 1_555
C10_4 C15_4 1_555 1_555
C14_4 C20_4 1_555 1_555
C15_4 C19_4 1_555 1_555
C29_4 C34_4 1_555 1_555
C30_4 C35_4 1_555 1_555
C39_4 C44_4 1_555 1_555
C40_4 C45_4 1_555 1_555
N8 C27_4 1_555 1_555
N15_4 H10_4 1_555 1_555
C27_4 H20_4 1_555 1_555
C32_4 C27_4 1_555 1_555
H25_4 C32_4 1_555 1_555
C37_4 N15_4 1_555 1_555
C42_4 C37_4 1_555 1_555
H30_4 C42_4 1_555 1_555
C47_4 N8 1_555 1_555
H35_4 C47_4 1_555 1_555
C32_4 C37_4 1_555 1_555
C42_4 C47_4 1_555 1_555
N8_2 C28_4 1_555 1_555
N16_4 H11_4 1_555 1_555
C28_4 H21_4 1_555 1_555
C33_4 C28_4 1_555 1_555
H26_4 C33_4 1_555 1_555
C38_4 N16_4 1_555 1_555
C43_4 C38_4 1_555 1_555
H31_4 C43_4 1_555 1_555
C48_4 N8_2 1_555 1_555
H36_4 C48_4 1_555 1_555
C33_4 C38_4 1_555 1_555
C43_4 C48_4 1_555 1_555
N14_4 H9_4 1_555 1_555
C26_4 N8_3 1_555 1_555
H19_4 C26_4 1_555 1_555
C31_4 C26_4 1_555 1_555
H24_4 C31_4 1_555 1_555
C36_4 N14_4 1_555 1_555
C41_4 C36_4 1_555 1_555
H29_4 C41_4 1_555 1_555
C46_4 N8_3 1_555 1_555
H34_4 C46_4 1_555 1_555
C31_4 C36_4 1_555 1_555
C41_4 C46_4 1_555 1_555
O4_4 C21_4 1_555 1_555
O5_4 C22_4 1_555 1_555
O6_4 C23_4 1_555 1_555
C11_4 H14_4 1_555 1_555
C12_4 H15_4 1_555 1_555
C13_4 H16_4 1_555 1_555
C16_4 C11_4 1_555 1_555
C17_4 C11_4 1_555 1_555
C18_4 C12_4 1_555 1_555
C12_4 C17_4 1_555 1_555
C13_4 C16_4 1_555 1_555
C13_4 C18_4 1_555 1_555
C16_4 C21_4 1_555 1_555
C17_4 C23_4 1_555 1_555
C18_4 C22_4 1_555 1_555
Cd3_2 N4_3 1_555 1_555
Cd4_2 N6_2 1_555 1_555
N4_3 C25_5 1_555 1_555
N6_2 C27_5 1_555 1_555
N13_5 H8_5 1_555 1_555
N15_5 H10_5 1_555 1_555
C25_5 H18_5 1_555 1_555
C27_5 H20_5 1_555 1_555
C30_5 C25_5 1_555 1_555
C32_5 C27_5 1_555 1_555
H23_5 C30_5 1_555 1_555
H25_5 C32_5 1_555 1_555
C35_5 N13_5 1_555 1_555
C37_5 N15_5 1_555 1_555
C40_5 C35_5 1_555 1_555
C42_5 C37_5 1_555 1_555
H28_5 C40_5 1_555 1_555
H30_5 C42_5 1_555 1_555
C45_5 N4_3 1_555 1_555
C47_5 N6_2 1_555 1_555
H33_5 C45_5 1_555 1_555
H35_5 C47_5 1_555 1_555
C30_5 C35_5 1_555 1_555
C32_5 C37_5 1_555 1_555
C40_5 C45_5 1_555 1_555
C42_5 C47_5 1_555 1_555
Cd1_2 N1_4 1_555 1_555
O1_5 C3_5 1_555 1_555
N1_4 C4_5 1_555 1_555
N2_5 H1_5 1_555 1_555
C1_5 H2_5 1_555 1_555
C2_5 C1_5 1_555 1_555
C3_5 N2_5 1_555 1_555
C4_5 H3_5 1_555 1_555
C5_5 C4_5 1_555 1_555
H4_5 C5_5 1_555 1_555
C6_5 N2_5 1_555 1_555
C7_5 C6_5 1_555 1_555
H5_5 C7_5 1_555 1_555
C8_5 N1_4 1_555 1_555
H6_5 C8_5 1_555 1_555
Cd2_2 N3_4 1_555 1_555
O2_5 C19_5 1_555 1_555
O3_5 C20_5 1_555 1_555
O4_5 C21_5 1_555 1_555
O5_5 C22_5 1_555 1_555
O6_5 C23_5 1_555 1_555
N3_4 C24_5 1_555 1_555
N5_4 Cd1_2 1_555 1_555
N8_4 Cd1_2 1_555 1_555
N9_3 Cd1_2 1_555 1_555
N10_2 Cd1_2 1_555 1_555
N11_4 Cd1_2 1_555 1_555
N12_5 H7_5 1_555 1_555
N14_5 H9_5 1_555 1_555
C9_5 H12_5 1_555 1_555
C10_5 C2_5 1_555 1_555
C11_5 H14_5 1_555 1_555
C12_5 H15_5 1_555 1_555
C13_5 H16_5 1_555 1_555
H13_5 C10_5 1_555 1_555
C14_5 C1_5 1_555 1_555
C15_5 C9_5 1_555 1_555
C16_5 C11_5 1_555 1_555
C17_5 C11_5 1_555 1_555
C18_5 C12_5 1_555 1_555
C19_5 N12_5 1_555 1_555
C21_5 N14_5 1_555 1_555
C24_5 H17_5 1_555 1_555
C26_5 N5_4 1_555 1_555
H19_5 C26_5 1_555 1_555
C29_5 C24_5 1_555 1_555
C31_5 C26_5 1_555 1_555
H22_5 C29_5 1_555 1_555
H24_5 C31_5 1_555 1_555
C34_5 N12_5 1_555 1_555
C36_5 N14_5 1_555 1_555
C39_5 C34_5 1_555 1_555
C41_5 C36_5 1_555 1_555
H27_5 C39_5 1_555 1_555
H29_5 C41_5 1_555 1_555
C44_5 N3_4 1_555 1_555
C46_5 N5_4 1_555 1_555
H32_5 C44_5 1_555 1_555
H34_5 C46_5 1_555 1_555
C2_5 C3_5 1_555 1_555
C5_5 C6_5 1_555 1_555
C7_5 C8_5 1_555 1_555
C9_5 C14_5 1_555 1_555
C10_5 C15_5 1_555 1_555
C12_5 C17_5 1_555 1_555
C13_5 C16_5 1_555 1_555
C13_5 C18_5 1_555 1_555
C14_5 C20_5 1_555 1_555
C15_5 C19_5 1_555 1_555
C16_5 C21_5 1_555 1_555
C17_5 C23_5 1_555 1_555
C18_5 C22_5 1_555 1_555
C29_5 C34_5 1_555 1_555
C31_5 C36_5 1_555 1_555
C39_5 C44_5 1_555 1_555
C41_5 C46_5 1_555 1_555
Cd2_2 N7_4 1_555 1_555
N7_4 C28_5 1_555 1_555
N16_5 H11_5 1_555 1_555
C28_5 H21_5 1_555 1_555
C33_5 C28_5 1_555 1_555
H26_5 C33_5 1_555 1_555
C38_5 N16_5 1_555 1_555
C43_5 C38_5 1_555 1_555
H31_5 C43_5 1_555 1_555
C48_5 N7_4 1_555 1_555
H36_5 C48_5 1_555 1_555
C33_5 C38_5 1_555 1_555
C43_5 C48_5 1_555 1_555
Cd4_2 N4_4 1_555 1_555
N4_4 C25_6 1_555 1_555
N9_3 C27_6 1_555 1_555
N13_6 H8_6 1_555 1_555
N15_6 H10_6 1_555 1_555
C25_6 H18_6 1_555 1_555
C27_6 H20_6 1_555 1_555
C30_6 C25_6 1_555 1_555
C32_6 C27_6 1_555 1_555
H23_6 C30_6 1_555 1_555
H25_6 C32_6 1_555 1_555
C35_6 N13_6 1_555 1_555
C37_6 N15_6 1_555 1_555
C40_6 C35_6 1_555 1_555
C42_6 C37_6 1_555 1_555
H28_6 C40_6 1_555 1_555
H30_6 C42_6 1_555 1_555
C45_6 N4_4 1_555 1_555
C47_6 N9_3 1_555 1_555
H33_6 C45_6 1_555 1_555
H35_6 C47_6 1_555 1_555
C30_6 C35_6 1_555 1_555
C32_6 C37_6 1_555 1_555
C40_6 C45_6 1_555 1_555
C42_6 C47_6 1_555 1_555
Cd3_2 N1_5 1_555 1_555
O1_6 C3_6 1_555 1_555
N1_5 C4_6 1_555 1_555
N2_6 H1_6 1_555 1_555
C1_6 H2_6 1_555 1_555
C2_6 C1_6 1_555 1_555
C3_6 N2_6 1_555 1_555
C4_6 H3_6 1_555 1_555
C5_6 C4_6 1_555 1_555
H4_6 C5_6 1_555 1_555
C6_6 N2_6 1_555 1_555
C7_6 C6_6 1_555 1_555
H5_6 C7_6 1_555 1_555
C8_6 N1_5 1_555 1_555
H6_6 C8_6 1_555 1_555
Cd2_2 N3_5 1_555 1_555
O2_6 C19_6 1_555 1_555
O3_6 C20_6 1_555 1_555
O4_6 C21_6 1_555 1_555
O5_6 C22_6 1_555 1_555
O6_6 C23_6 1_555 1_555
N3_5 C24_6 1_555 1_555
N5_5 Cd3_2 1_555 1_555
N8_5 Cd3_2 1_555 1_555
N9_4 Cd3_2 1_555 1_555
N11_5 Cd3_2 1_555 1_555
N12_6 H7_6 1_555 1_555
N14_6 H9_6 1_555 1_555
C9_6 H12_6 1_555 1_555
C10_6 C2_6 1_555 1_555
C11_6 H14_6 1_555 1_555
C12_6 H15_6 1_555 1_555
C13_6 H16_6 1_555 1_555
H13_6 C10_6 1_555 1_555
C14_6 C1_6 1_555 1_555
C15_6 C9_6 1_555 1_555
C16_6 C11_6 1_555 1_555
C17_6 C11_6 1_555 1_555
C18_6 C12_6 1_555 1_555
C19_6 N12_6 1_555 1_555
C21_6 N14_6 1_555 1_555
C24_6 H17_6 1_555 1_555
C26_6 N5_5 1_555 1_555
H19_6 C26_6 1_555 1_555
C29_6 C24_6 1_555 1_555
C31_6 C26_6 1_555 1_555
H22_6 C29_6 1_555 1_555
H24_6 C31_6 1_555 1_555
C34_6 N12_6 1_555 1_555
C36_6 N14_6 1_555 1_555
C39_6 C34_6 1_555 1_555
C41_6 C36_6 1_555 1_555
H27_6 C39_6 1_555 1_555
H29_6 C41_6 1_555 1_555
C44_6 N3_5 1_555 1_555
C46_6 N5_5 1_555 1_555
H32_6 C44_6 1_555 1_555
H34_6 C46_6 1_555 1_555
C2_6 C3_6 1_555 1_555
C5_6 C6_6 1_555 1_555
C7_6 C8_6 1_555 1_555
C9_6 C14_6 1_555 1_555
C10_6 C15_6 1_555 1_555
C12_6 C17_6 1_555 1_555
C13_6 C16_6 1_555 1_555
C13_6 C18_6 1_555 1_555
C14_6 C20_6 1_555 1_555
C15_6 C19_6 1_555 1_555
C16_6 C21_6 1_555 1_555
C17_6 C23_6 1_555 1_555
C18_6 C22_6 1_555 1_555
C29_6 C34_6 1_555 1_555
C31_6 C36_6 1_555 1_555
C39_6 C44_6 1_555 1_555
C41_6 C46_6 1_555 1_555
Cd2_2 N7_5 1_555 1_555
N7_5 C28_6 1_555 1_555
N16_6 H11_6 1_555 1_555
C28_6 H21_6 1_555 1_555
C33_6 C28_6 1_555 1_555
H26_6 C33_6 1_555 1_555
C38_6 N16_6 1_555 1_555
C43_6 C38_6 1_555 1_555
H31_6 C43_6 1_555 1_555
C48_6 N7_5 1_555 1_555
H36_6 C48_6 1_555 1_555
C33_6 C38_6 1_555 1_555
C43_6 C48_6 1_555 1_555
N10_2 C25_7 1_555 1_555
N9_4 C27_7 1_555 1_555
N13_7 H8_7 1_555 1_555
N15_7 H10_7 1_555 1_555
C25_7 H18_7 1_555 1_555
C27_7 H20_7 1_555 1_555
C30_7 C25_7 1_555 1_555
C32_7 C27_7 1_555 1_555
H23_7 C30_7 1_555 1_555
H25_7 C32_7 1_555 1_555
C35_7 N13_7 1_555 1_555
C37_7 N15_7 1_555 1_555
C40_7 C35_7 1_555 1_555
C42_7 C37_7 1_555 1_555
H28_7 C40_7 1_555 1_555
H30_7 C42_7 1_555 1_555
C45_7 N10_2 1_555 1_555
C47_7 N9_4 1_555 1_555
H33_7 C45_7 1_555 1_555
H35_7 C47_7 1_555 1_555
C30_7 C35_7 1_555 1_555
C32_7 C37_7 1_555 1_555
C40_7 C45_7 1_555 1_555
C42_7 C47_7 1_555 1_555
Cd4_2 N1_6 1_555 1_555
O1_7 C3_7 1_555 1_555
N1_6 C4_7 1_555 1_555
N2_7 H1_7 1_555 1_555
C1_7 H2_7 1_555 1_555
C2_7 C1_7 1_555 1_555
C3_7 N2_7 1_555 1_555
C4_7 H3_7 1_555 1_555
C5_7 C4_7 1_555 1_555
H4_7 C5_7 1_555 1_555
C6_7 N2_7 1_555 1_555
C7_7 C6_7 1_555 1_555
H5_7 C7_7 1_555 1_555
C8_7 N1_6 1_555 1_555
H6_7 C8_7 1_555 1_555
Cd2_2 N3_6 1_555 1_555
O2_7 C19_7 1_555 1_555
O3_7 C20_7 1_555 1_555
O4_7 C21_7 1_555 1_555
O5_7 C22_7 1_555 1_555
O6_7 C23_7 1_555 1_555
N3_6 C24_7 1_555 1_555
N5_6 Cd4_2 1_555 1_555
N8_6 Cd4_2 1_555 1_555
N11_6 Cd4_2 1_555 1_555
N12_7 H7_7 1_555 1_555
N14_7 H9_7 1_555 1_555
C9_7 H12_7 1_555 1_555
C10_7 C2_7 1_555 1_555
C11_7 H14_7 1_555 1_555
C12_7 H15_7 1_555 1_555
C13_7 H16_7 1_555 1_555
H13_7 C10_7 1_555 1_555
C14_7 C1_7 1_555 1_555
C15_7 C9_7 1_555 1_555
C16_7 C11_7 1_555 1_555
C17_7 C11_7 1_555 1_555
C18_7 C12_7 1_555 1_555
C19_7 N12_7 1_555 1_555
C21_7 N14_7 1_555 1_555
C24_7 H17_7 1_555 1_555
C26_7 N5_6 1_555 1_555
H19_7 C26_7 1_555 1_555
C29_7 C24_7 1_555 1_555
C31_7 C26_7 1_555 1_555
H22_7 C29_7 1_555 1_555
H24_7 C31_7 1_555 1_555
C34_7 N12_7 1_555 1_555
C36_7 N14_7 1_555 1_555
C39_7 C34_7 1_555 1_555
C41_7 C36_7 1_555 1_555
H27_7 C39_7 1_555 1_555
H29_7 C41_7 1_555 1_555
C44_7 N3_6 1_555 1_555
C46_7 N5_6 1_555 1_555
H32_7 C44_7 1_555 1_555
H34_7 C46_7 1_555 1_555
C2_7 C3_7 1_555 1_555
C5_7 C6_7 1_555 1_555
C7_7 C8_7 1_555 1_555
C9_7 C14_7 1_555 1_555
C10_7 C15_7 1_555 1_555
C12_7 C17_7 1_555 1_555
C13_7 C16_7 1_555 1_555
C13_7 C18_7 1_555 1_555
C14_7 C20_7 1_555 1_555
C15_7 C19_7 1_555 1_555
C16_7 C21_7 1_555 1_555
C17_7 C23_7 1_555 1_555
C18_7 C22_7 1_555 1_555
C29_7 C34_7 1_555 1_555
C31_7 C36_7 1_555 1_555
C39_7 C44_7 1_555 1_555
C41_7 C46_7 1_555 1_555
Cd2_2 N7_6 1_555 1_555
N7_6 C28_7 1_555 1_555
N16_7 H11_7 1_555 1_555
C28_7 H21_7 1_555 1_555
C33_7 C28_7 1_555 1_555
H26_7 C33_7 1_555 1_555
C38_7 N16_7 1_555 1_555
C43_7 C38_7 1_555 1_555
H31_7 C43_7 1_555 1_555
C48_7 N7_6 1_555 1_555
H36_7 C48_7 1_555 1_555
C33_7 C38_7 1_555 1_555
C43_7 C48_7 1_555 1_555
O1_8 C3_8 1_555 1_555
C1_8 H2_8 1_555 1_555
C2_8 C1_8 1_555 1_555
O2_8 C19_8 1_555 1_555
O3_8 C20_8 1_555 1_555
C9_8 H12_8 1_555 1_555
C10_8 C2_8 1_555 1_555
H13_8 C10_8 1_555 1_555
C14_8 C1_8 1_555 1_555
C15_8 C9_8 1_555 1_555
C2_8 C3_8 1_555 1_555
C9_8 C14_8 1_555 1_555
C10_8 C15_8 1_555 1_555
C14_8 C20_8 1_555 1_555
C15_8 C19_8 1_555 1_555
N11_6 C24_8 1_555 1_555
N12_8 H7_8 1_555 1_555
C24_8 H17_8 1_555 1_555
C29_8 C24_8 1_555 1_555
H22_8 C29_8 1_555 1_555
C34_8 N12_8 1_555 1_555
C39_8 C34_8 1_555 1_555
H27_8 C39_8 1_555 1_555
C44_8 N11_6 1_555 1_555
H32_8 C44_8 1_555 1_555
C29_8 C34_8 1_555 1_555
C39_8 C44_8 1_555 1_555
N11_5 C4_8 1_555 1_555
N2_8 H1_8 1_555 1_555
C4_8 H3_8 1_555 1_555
C5_8 C4_8 1_555 1_555
H4_8 C5_8 1_555 1_555
C6_8 N2_8 1_555 1_555
C7_8 C6_8 1_555 1_555
H5_8 C7_8 1_555 1_555
C8_8 N11_5 1_555 1_555
H6_8 C8_8 1_555 1_555
C5_8 C6_8 1_555 1_555
C7_8 C8_8 1_555 1_555
N11_4 C25_8 1_555 1_555
N13_8 H8_8 1_555 1_555
C25_8 H18_8 1_555 1_555
C30_8 C25_8 1_555 1_555
H23_8 C30_8 1_555 1_555
C35_8 N13_8 1_555 1_555
C40_8 C35_8 1_555 1_555
H28_8 C40_8 1_555 1_555
C45_8 N11_4 1_555 1_555
H33_8 C45_8 1_555 1_555
C30_8 C35_8 1_555 1_555
C40_8 C45_8 1_555 1_555
O4_8 C21_8 1_555 1_555
O5_8 C22_8 1_555 1_555
O6_8 C23_8 1_555 1_555
N8_4 C27_8 1_555 1_555
N8_5 C28_8 1_555 1_555
N14_8 H9_8 1_555 1_555
N15_8 H10_8 1_555 1_555
N16_8 H11_8 1_555 1_555
C11_8 H14_8 1_555 1_555
C12_8 H15_8 1_555 1_555
C13_8 H16_8 1_555 1_555
C16_8 C11_8 1_555 1_555
C17_8 C11_8 1_555 1_555
C18_8 C12_8 1_555 1_555
C21_8 N14_8 1_555 1_555
C22_8 N15_8 1_555 1_555
C23_8 N16_8 1_555 1_555
C26_8 N8_6 1_555 1_555
C27_8 H20_8 1_555 1_555
C28_8 H21_8 1_555 1_555
H19_8 C26_8 1_555 1_555
C31_8 C26_8 1_555 1_555
C32_8 C27_8 1_555 1_555
C33_8 C28_8 1_555 1_555
H24_8 C31_8 1_555 1_555
H25_8 C32_8 1_555 1_555
H26_8 C33_8 1_555 1_555
C36_8 N14_8 1_555 1_555
C37_8 N15_8 1_555 1_555
C38_8 N16_8 1_555 1_555
C41_8 C36_8 1_555 1_555
C42_8 C37_8 1_555 1_555
C43_8 C38_8 1_555 1_555
H29_8 C41_8 1_555 1_555
H30_8 C42_8 1_555 1_555
H31_8 C43_8 1_555 1_555
C46_8 N8_6 1_555 1_555
C47_8 N8_4 1_555 1_555
C48_8 N8_5 1_555 1_555
H34_8 C46_8 1_555 1_555
H35_8 C47_8 1_555 1_555
H36_8 C48_8 1_555 1_555
C12_8 C17_8 1_555 1_555
C13_8 C16_8 1_555 1_555
C13_8 C18_8 1_555 1_555
C16_8 C21_8 1_555 1_555
C17_8 C23_8 1_555 1_555
C18_8 C22_8 1_555 1_555
C31_8 C36_8 1_555 1_555
C32_8 C37_8 1_555 1_555
C33_8 C38_8 1_555 1_555
C41_8 C46_8 1_555 1_555
C42_8 C47_8 1_555 1_555
C43_8 C48_8 1_555 1_555

#END
