
###############################################################################
#
# This file contains modified crystal structure data generated from the
# MOF subset of the Cambridge Structural Database (CSD) v543 
# hosted by the Cambridge Crystallographic Data Centre (CCDC).
#
# This work is licensed under the Creative Commons
# Attribution-NonCommercial-ShareAlike 4.0 International License.
# To view a copy of this license, visit
# http://creativecommons.org/licenses/by-nc-sa/4.0/
# or send a letter to
# Creative Commons, PO Box 1866, Mountain View, CA 94042, USA.
#
# CIF created using the CSD Python API on 29 September 2022
# The structure has been converted into the P1 space group
# The structure has a 3D framework
# The original CSD entry PEJNOJ is in the cubic crystal system
# The framework has been calculated to contain at least 10.0% void space
# The void calculation uses a probe of radius 1.32A, grid spacing 0.4
# The framework is charged, counterions have been retained in the structure
#
###############################################################################

data_PEJNOJ
_chemical_formula_moiety         '(C144 H48 O86 Zn8 34-)n'
_symmetry_cell_setting           triclinic
_symmetry_space_group_name_H-M   'P 1'
_symmetry_Int_Tables_number      1
_space_group_name_Hall           'P 1'
loop_
_symmetry_equiv_pos_site_id
_symmetry_equiv_pos_as_xyz
1 x,y,z
_cell_length_a                   20.413(5)
_cell_length_b                   20.413(5)
_cell_length_c                   20.413(5)
_cell_angle_alpha                90
_cell_angle_beta                 90
_cell_angle_gamma                90
_cell_volume                     8505.9
loop_
_atom_site_label
_atom_site_type_symbol
_atom_site_fract_x
_atom_site_fract_y
_atom_site_fract_z
C1 C 0.5716(2) 0.0607(2) 0.5155(2)
H1 H 0.5935 0.0757 0.5525
C2 C 0.5943(2) 0.0065(2) 0.4839(2)
Zn2 Zn 0.5000 0.2500 0.6250
Zn3 Zn 0.3750 0.0000 0.2500
O6 O 0.52665(17) 0.17168(17) 0.57899(15)
O7 O 0.42101(15) 0.02665(17) 0.32832(17)
O8 O 0.44329(19) 0.18232(19) 0.5102(2)
C5 C 0.4845(2) 0.0716(2) 0.4393(2)
H3 H 0.4475 0.0935 0.4243
C6 C 0.5161(2) 0.0943(2) 0.4935(2)
C7 C 0.5065(2) 0.0161(2) 0.4057(2)
C8 C 0.4920(3) 0.1540(2) 0.5288(2)
Zn1 Zn 0.7500 0.8750 0.5000
O1 O 0.67168(17) 0.92101(15) 0.47335(17)
O2 O 0.68232(19) 0.9898(2) 0.55671(19)
C3 C 0.6540(2) 0.9712(2) 0.5080(3)
Zn3_2 Zn 0.3750 1.0000 0.2500
O3 O 0.82832(17) 0.92101(15) 0.52665(17)
O4 O 0.72335(17) 0.82899(15) 0.57832(17)
O5 O 0.77665(17) 0.82899(15) 0.42168(17)
O9 O 0.4898(2) 0.94329(19) 0.31768(19)
C4 C 0.5607(2) 0.9845(2) 0.4284(2)
H2 H 0.5757 0.9475 0.4065
C9 C 0.4712(2) 0.9920(3) 0.3460(2)
Zn1_2 Zn 0.2500 0.6250 0.5000
O1_2 O 0.32832(17) 0.57899(15) 0.47335(17)
O2_2 O 0.31768(19) 0.5102(2) 0.55671(19)
C1_2 C 0.4284(2) 0.4393(2) 0.5155(2)
H1_2 H 0.4065 0.4243 0.5525
C2_2 C 0.4057(2) 0.4935(2) 0.4839(2)
C3_2 C 0.3460(2) 0.5288(2) 0.5080(3)
Zn3_3 Zn 0.6250 0.5000 0.2500
O3_2 O 0.17168(17) 0.57899(15) 0.52665(17)
O4_2 O 0.27665(17) 0.67101(15) 0.57832(17)
O5_2 O 0.22335(17) 0.67101(15) 0.42168(17)
O6_2 O 0.47335(17) 0.32832(17) 0.57899(15)
O7_2 O 0.57899(15) 0.47335(17) 0.32832(17)
O8_2 O 0.55671(19) 0.31768(19) 0.5102(2)
O9_2 O 0.5102(2) 0.55671(19) 0.31768(19)
C4_2 C 0.4393(2) 0.5155(2) 0.4284(2)
C5_2 C 0.5155(2) 0.4284(2) 0.4393(2)
H2_2 H 0.4243 0.5525 0.4065
H3_2 H 0.5525 0.4065 0.4243
C6_2 C 0.4839(2) 0.4057(2) 0.4935(2)
C7_2 C 0.4935(2) 0.4839(2) 0.4057(2)
C8_2 C 0.5080(3) 0.3460(2) 0.5288(2)
C9_2 C 0.5288(2) 0.5080(3) 0.3460(2)
Zn1_3 Zn 0.7500 0.1250 -0.0000
O1_3 O 0.67168(17) 0.07899(15) 0.02665(17)
O5_3 O 0.77665(17) 0.17101(15) 0.07832(17)
O9_3 O 0.4898(2) 0.05671(19) 0.18232(19)
C4_3 C 0.5607(2) 0.0155(2) 0.0716(2)
H2_3 H 0.5757 0.0525 0.0935
C9_3 C 0.4712(2) 0.0080(3) 0.1540(2)
Zn1_4 Zn 0.7500 0.1250 1.0000
O2_3 O 0.68232(19) 0.0102(2) 0.94329(19)
C3_3 C 0.6540(2) 0.0288(2) 0.9920(3)
O3_3 O 0.82832(17) 0.07899(15) 0.97335(17)
O4_3 O 0.72335(17) 0.17101(15) 0.92168(17)
C2_3 C 0.5943(2) 0.9935(2) 0.0161(2)
O7_3 O 0.42101(15) 0.97335(17) 0.17168(17)
C5_3 C 0.4845(2) 0.9284(2) 0.0607(2)
H3_3 H 0.4475 0.9065 0.0757
C6_3 C 0.5161(2) 0.9057(2) 0.0065(2)
C7_3 C 0.5065(2) 0.9839(2) 0.0943(2)
C1_3 C 0.5716(2) 0.9393(2) 0.9845(2)
H1_3 H 0.5935 0.9243 0.9475
Zn2_2 Zn 0.5000 0.7500 0.8750
O6_3 O 0.52665(17) 0.82832(17) 0.92101(15)
O8_3 O 0.44329(19) 0.81768(19) 0.9898(2)
C8_3 C 0.4920(3) 0.8460(2) 0.9712(2)
Zn2_3 Zn 0.0000 0.2500 0.3750
Zn3_4 Zn 0.1250 0.0000 0.7500
O7_4 O 0.07899(15) 0.02665(17) 0.67168(17)
O8_4 O 0.05671(19) 0.18232(19) 0.4898(2)
C5_4 C 0.0155(2) 0.0716(2) 0.5607(2)
H3_4 H 0.0525 0.0935 0.5757
C8_4 C 0.0080(3) 0.1540(2) 0.4712(2)
Zn3_5 Zn 0.1250 1.0000 0.7500
O9_4 O 0.0102(2) 0.94329(19) 0.68232(19)
C9_4 C 0.0288(2) 0.9920(3) 0.6540(2)
C1_4 C 0.9284(2) 0.0607(2) 0.4845(2)
H1_4 H 0.9065 0.0757 0.4475
C2_4 C 0.9057(2) 0.0065(2) 0.5161(2)
Zn2_4 Zn 1.0000 0.2500 0.3750
O6_4 O 0.97335(17) 0.17168(17) 0.42101(15)
C6_4 C 0.9839(2) 0.0943(2) 0.5065(2)
C7_4 C 0.9935(2) 0.0161(2) 0.5943(2)
O2_4 O 0.81768(19) 0.9898(2) 0.44329(19)
C3_4 C 0.8460(2) 0.9712(2) 0.4920(3)
C4_4 C 0.9393(2) 0.9845(2) 0.5716(2)
H2_4 H 0.9243 0.9475 0.5935
C1_5 C 0.5155(2) 0.5716(2) 0.0607(2)
H1_5 H 0.5525 0.5935 0.0757
C2_5 C 0.4839(2) 0.5943(2) 0.0065(2)
Zn3_6 Zn 0.2500 0.3750 0.0000
O6_5 O 0.57899(15) 0.52665(17) 0.17168(17)
O7_5 O 0.32832(17) 0.42101(15) 0.02665(17)
O8_5 O 0.5102(2) 0.44329(19) 0.18232(19)
C5_5 C 0.4393(2) 0.4845(2) 0.0716(2)
H3_5 H 0.4243 0.4475 0.0935
C6_5 C 0.4935(2) 0.5161(2) 0.0943(2)
C7_5 C 0.4057(2) 0.5065(2) 0.0161(2)
C8_5 C 0.5288(2) 0.4920(3) 0.1540(2)
O1_4 O 0.47335(17) 0.67168(17) 0.92101(15)
O2_5 O 0.55671(19) 0.68232(19) 0.9898(2)
C3_5 C 0.5080(3) 0.6540(2) 0.9712(2)
Zn3_7 Zn 0.2500 0.3750 1.0000
O4_4 O 0.57832(17) 0.72335(17) 0.82899(15)
O5_4 O 0.42168(17) 0.77665(17) 0.82899(15)
O9_5 O 0.31768(19) 0.4898(2) 0.94329(19)
C4_5 C 0.4284(2) 0.5607(2) 0.9845(2)
H2_5 H 0.4065 0.5757 0.9475
C9_5 C 0.3460(2) 0.4712(2) 0.9920(3)
C1_6 C 0.0607(2) 0.5155(2) 0.5716(2)
H1_6 H 0.0757 0.5525 0.5935
C2_6 C 0.0065(2) 0.4839(2) 0.5943(2)
O7_6 O 0.02665(17) 0.32832(17) 0.42101(15)
O8_6 O 0.18232(19) 0.5102(2) 0.44329(19)
C5_6 C 0.0716(2) 0.4393(2) 0.4845(2)
H3_6 H 0.0935 0.4243 0.4475
C6_6 C 0.0943(2) 0.4935(2) 0.5161(2)
C7_6 C 0.0161(2) 0.4057(2) 0.5065(2)
C8_6 C 0.1540(2) 0.5288(2) 0.4920(3)
Zn1_5 Zn 0.8750 0.5000 0.7500
O1_5 O 0.92101(15) 0.47335(17) 0.67168(17)
O2_6 O 0.9898(2) 0.55671(19) 0.68232(19)
C3_6 C 0.9712(2) 0.5080(3) 0.6540(2)
O3_4 O 0.92101(15) 0.52665(17) 0.82832(17)
O4_5 O 0.82899(15) 0.57832(17) 0.72335(17)
O5_5 O 0.82899(15) 0.42168(17) 0.77665(17)
O9_6 O 0.94329(19) 0.31768(19) 0.4898(2)
C4_6 C 0.9845(2) 0.4284(2) 0.5607(2)
H2_6 H 0.9475 0.4065 0.5757
C9_6 C 0.9920(3) 0.3460(2) 0.4712(2)
O4_6 O 0.67101(15) 0.57832(17) 0.27665(17)
O5_6 O 0.67101(15) 0.42168(17) 0.22335(17)
O4_7 O 0.57832(17) 0.27665(17) 0.67101(15)
O5_7 O 0.42168(17) 0.22335(17) 0.67101(15)
O5_8 O 0.17101(15) 0.07832(17) 0.77665(17)
O3_5 O 0.07899(15) 0.97335(17) 0.82832(17)
O4_8 O 0.17101(15) 0.92168(17) 0.72335(17)
Zn1_6 Zn -0.0000 0.7500 0.1250
O1_6 O 0.02665(17) 0.67168(17) 0.07899(15)
O5_9 O 0.07832(17) 0.77665(17) 0.17101(15)
O9_7 O 0.18232(19) 0.4898(2) 0.05671(19)
C4_7 C 0.0716(2) 0.5607(2) 0.0155(2)
H2_7 H 0.0935 0.5757 0.0525
C9_7 C 0.1540(2) 0.4712(2) 0.0080(3)
C2_7 C 0.0161(2) 0.5943(2) 0.9935(2)
O7_7 O 0.17168(17) 0.42101(15) 0.97335(17)
C5_7 C 0.0607(2) 0.4845(2) 0.9284(2)
H3_7 H 0.0757 0.4475 0.9065
C6_7 C 0.0065(2) 0.5161(2) 0.9057(2)
C7_7 C 0.0943(2) 0.5065(2) 0.9839(2)
Zn1_7 Zn 1.0000 0.7500 0.1250
O2_7 O 0.94329(19) 0.68232(19) 0.0102(2)
C3_7 C 0.9920(3) 0.6540(2) 0.0288(2)
O3_6 O 0.97335(17) 0.82832(17) 0.07899(15)
O4_9 O 0.92168(17) 0.72335(17) 0.17101(15)
C1_7 C 0.9845(2) 0.5716(2) 0.9393(2)
H1_7 H 0.9475 0.5935 0.9243
O8_7 O 0.9898(2) 0.44329(19) 0.81768(19)
C8_7 C 0.9712(2) 0.4920(3) 0.8460(2)
O2_8 O 0.2398(2) 0.93232(19) 0.80671(19)
C1_8 C 0.3107(2) 0.8216(2) 0.7655(2)
H1_8 H 0.3257 0.8435 0.8025
C2_8 C 0.2565(2) 0.8443(2) 0.7339(2)
C3_8 C 0.2212(2) 0.9040(2) 0.7580(3)
O8_8 O 0.43232(19) 0.69329(19) 0.7602(2)
O9_8 O 0.19329(19) 0.7398(2) 0.56768(19)
C4_8 C 0.2345(2) 0.8107(2) 0.6784(2)
C5_8 C 0.3216(2) 0.7345(2) 0.6893(2)
H2_8 H 0.1975 0.8257 0.6565
H3_8 H 0.3435 0.6975 0.6743
C6_8 C 0.3443(2) 0.7661(2) 0.7435(2)
C7_8 C 0.2661(2) 0.7565(2) 0.6557(2)
C8_8 C 0.4040(2) 0.7420(3) 0.7788(2)
C9_8 C 0.2420(3) 0.7212(2) 0.5960(2)
O2_9 O 0.7602(2) 0.56768(19) 0.80671(19)
C1_9 C 0.6893(2) 0.6784(2) 0.7655(2)
H1_9 H 0.6743 0.6565 0.8025
C2_9 C 0.7435(2) 0.6557(2) 0.7339(2)
C3_9 C 0.7788(2) 0.5960(2) 0.7580(3)
O8_9 O 0.56768(19) 0.80671(19) 0.7602(2)
O9_9 O 0.80671(19) 0.7602(2) 0.56768(19)
C4_9 C 0.7655(2) 0.6893(2) 0.6784(2)
C5_9 C 0.6784(2) 0.7655(2) 0.6893(2)
H2_9 H 0.8025 0.6743 0.6565
H3_9 H 0.6565 0.8025 0.6743
C6_9 C 0.6557(2) 0.7339(2) 0.7435(2)
C7_9 C 0.7339(2) 0.7435(2) 0.6557(2)
C8_9 C 0.5960(2) 0.7580(3) 0.7788(2)
C9_9 C 0.7580(3) 0.7788(2) 0.5960(2)
O3_7 O 0.32899(15) 0.07832(17) 0.22335(17)
O1_7 O 0.32899(15) 0.92168(17) 0.27665(17)
O2_10 O 0.2602(2) 0.93232(19) 0.19329(19)
C1_10 C 0.1893(2) 0.8216(2) 0.2345(2)
H1_10 H 0.1743 0.8435 0.1975
C2_10 C 0.2435(2) 0.8443(2) 0.2661(2)
C3_10 C 0.2788(2) 0.9040(2) 0.2420(3)
O8_10 O 0.06768(19) 0.69329(19) 0.2398(2)
O9_10 O 0.30671(19) 0.7398(2) 0.43232(19)
C4_10 C 0.2655(2) 0.8107(2) 0.3216(2)
C5_10 C 0.1784(2) 0.7345(2) 0.3107(2)
H2_10 H 0.3025 0.8257 0.3435
H3_10 H 0.1565 0.6975 0.3257
C6_10 C 0.1557(2) 0.7661(2) 0.2565(2)
C7_10 C 0.2339(2) 0.7565(2) 0.3443(2)
C8_10 C 0.0960(2) 0.7420(3) 0.2212(2)
C9_10 C 0.2580(3) 0.7212(2) 0.4040(2)
O2_11 O 0.2398(2) 0.06768(19) 0.69329(19)
C1_11 C 0.3107(2) 0.1784(2) 0.7345(2)
H1_11 H 0.3257 0.1565 0.6975
C2_11 C 0.2565(2) 0.1557(2) 0.7661(2)
C3_11 C 0.2212(2) 0.0960(2) 0.7420(3)
O7_8 O 0.27665(17) 0.32899(15) 0.92168(17)
O8_11 O 0.43232(19) 0.30671(19) 0.7398(2)
O9_11 O 0.19329(19) 0.2602(2) 0.93232(19)
C4_11 C 0.2345(2) 0.1893(2) 0.8216(2)
C5_11 C 0.3216(2) 0.2655(2) 0.8107(2)
H2_11 H 0.1975 0.1743 0.8435
H3_11 H 0.3435 0.3025 0.8257
C6_11 C 0.3443(2) 0.2339(2) 0.7565(2)
C7_11 C 0.2661(2) 0.2435(2) 0.8443(2)
C8_11 C 0.4040(2) 0.2580(3) 0.7212(2)
C9_11 C 0.2420(3) 0.2788(2) 0.9040(2)
O2_12 O 0.93232(19) 0.80671(19) 0.2398(2)
C1_12 C 0.8216(2) 0.7655(2) 0.3107(2)
H1_12 H 0.8435 0.8025 0.3257
C2_12 C 0.8443(2) 0.7339(2) 0.2565(2)
C3_12 C 0.9040(2) 0.7580(3) 0.2212(2)
O8_12 O 0.69329(19) 0.7602(2) 0.43232(19)
O9_12 O 0.7398(2) 0.56768(19) 0.19329(19)
C4_12 C 0.8107(2) 0.6784(2) 0.2345(2)
C5_12 C 0.7345(2) 0.6893(2) 0.3216(2)
H2_12 H 0.8257 0.6565 0.1975
H3_12 H 0.6975 0.6743 0.3435
C6_12 C 0.7661(2) 0.7435(2) 0.3443(2)
C7_12 C 0.7565(2) 0.6557(2) 0.2661(2)
C8_12 C 0.7420(3) 0.7788(2) 0.4040(2)
C9_12 C 0.7212(2) 0.5960(2) 0.2420(3)
O2_13 O 0.80671(19) 0.2398(2) 0.93232(19)
C1_13 C 0.7655(2) 0.3107(2) 0.8216(2)
H1_13 H 0.8025 0.3257 0.8435
C2_13 C 0.7339(2) 0.2565(2) 0.8443(2)
C3_13 C 0.7580(3) 0.2212(2) 0.9040(2)
O8_13 O 0.7602(2) 0.43232(19) 0.69329(19)
O9_13 O 0.56768(19) 0.19329(19) 0.7398(2)
C4_13 C 0.6784(2) 0.2345(2) 0.8107(2)
C5_13 C 0.6893(2) 0.3216(2) 0.7345(2)
H2_13 H 0.6565 0.1975 0.8257
H3_13 H 0.6743 0.3435 0.6975
C6_13 C 0.7435(2) 0.3443(2) 0.7661(2)
C7_13 C 0.6557(2) 0.2661(2) 0.7565(2)
C8_13 C 0.7788(2) 0.4040(2) 0.7420(3)
C9_13 C 0.5960(2) 0.2420(3) 0.7212(2)
O3_8 O 0.22335(17) 0.32899(15) 0.07832(17)
O3_9 O 0.07832(17) 0.22335(17) 0.32899(15)
O1_8 O 0.92168(17) 0.27665(17) 0.32899(15)
O2_14 O 0.93232(19) 0.19329(19) 0.2602(2)
C1_14 C 0.8216(2) 0.2345(2) 0.1893(2)
H1_14 H 0.8435 0.1975 0.1743
C2_14 C 0.8443(2) 0.2661(2) 0.2435(2)
C3_14 C 0.9040(2) 0.2420(3) 0.2788(2)
O8_14 O 0.69329(19) 0.2398(2) 0.06768(19)
O9_14 O 0.7398(2) 0.43232(19) 0.30671(19)
C4_14 C 0.8107(2) 0.3216(2) 0.2655(2)
C5_14 C 0.7345(2) 0.3107(2) 0.1784(2)
H2_14 H 0.8257 0.3435 0.3025
H3_14 H 0.6975 0.3257 0.1565
C6_14 C 0.7661(2) 0.2565(2) 0.1557(2)
C7_14 C 0.7565(2) 0.3443(2) 0.2339(2)
C8_14 C 0.7420(3) 0.2212(2) 0.0960(2)
C9_14 C 0.7212(2) 0.4040(2) 0.2580(3)
O9_15 O 0.0102(2) 0.05671(19) 0.81768(19)
C9_15 C 0.0288(2) 0.0080(3) 0.8460(2)
O8_15 O 0.05671(19) 0.81768(19) 0.0102(2)
C8_15 C 0.0080(3) 0.8460(2) 0.0288(2)
C5_15 C 0.0155(2) 0.9284(2) 0.9393(2)
H3_15 H 0.0525 0.9065 0.9243
O2_15 O 0.81768(19) 0.0102(2) 0.05671(19)
C3_15 C 0.8460(2) 0.0288(2) 0.0080(3)
C4_15 C 0.9393(2) 0.0155(2) 0.9284(2)
H2_15 H 0.9243 0.0525 0.9065
C1_15 C 0.9284(2) 0.9393(2) 0.0155(2)
H1_15 H 0.9065 0.9243 0.0525
O2_16 O 0.2602(2) 0.06768(19) 0.30671(19)
C1_16 C 0.1893(2) 0.1784(2) 0.2655(2)
H1_16 H 0.1743 0.1565 0.3025
C2_15 C 0.2435(2) 0.1557(2) 0.2339(2)
C3_16 C 0.2788(2) 0.0960(2) 0.2580(3)
O8_16 O 0.06768(19) 0.30671(19) 0.2602(2)
O9_16 O 0.30671(19) 0.2602(2) 0.06768(19)
C4_16 C 0.2655(2) 0.1893(2) 0.1784(2)
C5_16 C 0.1784(2) 0.2655(2) 0.1893(2)
H2_16 H 0.3025 0.1743 0.1565
H3_16 H 0.1565 0.3025 0.1743
C6_15 C 0.1557(2) 0.2339(2) 0.2435(2)
C7_15 C 0.2339(2) 0.2435(2) 0.1557(2)
C8_16 C 0.0960(2) 0.2580(3) 0.2788(2)
C9_16 C 0.2580(3) 0.2788(2) 0.0960(2)
C2_16 C 0.9057(2) 0.9935(2) 0.9839(2)
C6_16 C 0.9839(2) 0.9057(2) 0.9935(2)
C7_16 C 0.9935(2) 0.9839(2) 0.9057(2)
loop_
_geom_bond_atom_site_label_1
_geom_bond_atom_site_label_2
_geom_bond_site_symmetry_1
_geom_bond_site_symmetry_2
C1 H1 1_555 1_555
C2 C1 1_555 1_555
Zn2 O6 1_555 1_555
Zn3 O7 1_555 1_555
O6 C8 1_555 1_555
O8 C8 1_555 1_555
C5 H3 1_555 1_555
C6 C1 1_555 1_555
C8 C6 1_555 1_555
C5 C6 1_555 1_555
C5 C7 1_555 1_555
Zn1 O1 1_555 1_555
O1 C3 1_555 1_555
O2 C3 1_555 1_555
O3 Zn1 1_555 1_555
O4 Zn1 1_555 1_555
O5 Zn1 1_555 1_555
O9 C9 1_555 1_555
H2 C4 1_555 1_555
Zn1_2 O1_2 1_555 1_555
O1_2 C3_2 1_555 1_555
O2_2 C3_2 1_555 1_555
C1_2 H1_2 1_555 1_555
C2_2 C1_2 1_555 1_555
C3_2 C2_2 1_555 1_555
Zn2 O6_2 1_555 1_555
Zn3_3 O7_2 1_555 1_555
O3_2 Zn1_2 1_555 1_555
O4_2 Zn1_2 1_555 1_555
O5_2 Zn1_2 1_555 1_555
O6_2 C8_2 1_555 1_555
O7_2 C9_2 1_555 1_555
O8_2 C8_2 1_555 1_555
O9_2 C9_2 1_555 1_555
C4_2 C2_2 1_555 1_555
C5_2 H3_2 1_555 1_555
H2_2 C4_2 1_555 1_555
C6_2 C1_2 1_555 1_555
C7_2 C4_2 1_555 1_555
C8_2 C6_2 1_555 1_555
C9_2 C7_2 1_555 1_555
C5_2 C6_2 1_555 1_555
C5_2 C7_2 1_555 1_555
Zn1_3 O1_3 1_555 1_555
O5_3 Zn1_3 1_555 1_555
O9_3 C9_3 1_555 1_555
H2_3 C4_3 1_555 1_555
O2_3 C3_3 1_555 1_555
O3_3 Zn1_4 1_555 1_555
O4_3 Zn1_4 1_555 1_555
Zn3_2 O7_3 1_555 1_555
C5_3 H3_3 1_555 1_555
C5_3 C6_3 1_555 1_555
C5_3 C7_3 1_555 1_555
C1_3 H1_3 1_555 1_555
Zn2_2 O6_3 1_555 1_555
O6_3 C8_3 1_555 1_555
O8_3 C8_3 1_555 1_555
Zn3_4 O7_4 1_555 1_555
O8_4 C8_4 1_555 1_555
C5_4 H3_4 1_555 1_555
O9_4 C9_4 1_555 1_555
C1_4 H1_4 1_555 1_555
C2_4 C1_4 1_555 1_555
Zn2_4 O6_4 1_555 1_555
C6_4 C1_4 1_555 1_555
O3 C3_4 1_555 1_555
O2_4 C3_4 1_555 1_555
H2_4 C4_4 1_555 1_555
C1_5 H1_5 1_555 1_555
C2_5 C1_5 1_555 1_555
Zn3_3 O6_5 1_555 1_555
Zn3_6 O7_5 1_555 1_555
O6_5 C8_5 1_555 1_555
O8_5 C8_5 1_555 1_555
C5_5 H3_5 1_555 1_555
C6_5 C1_5 1_555 1_555
C8_5 C6_5 1_555 1_555
C5_5 C6_5 1_555 1_555
C5_5 C7_5 1_555 1_555
Zn2_2 O1_4 1_555 1_555
O1_4 C3_5 1_555 1_555
O2_5 C3_5 1_555 1_555
O4_4 Zn2_2 1_555 1_555
O5_4 Zn2_2 1_555 1_555
O9_5 C9_5 1_555 1_555
H2_5 C4_5 1_555 1_555
C1_6 H1_6 1_555 1_555
C2_6 C1_6 1_555 1_555
Zn2_3 O7_6 1_555 1_555
O3_2 C8_6 1_555 1_555
O8_6 C8_6 1_555 1_555
C5_6 H3_6 1_555 1_555
C6_6 C1_6 1_555 1_555
C8_6 C6_6 1_555 1_555
C5_6 C6_6 1_555 1_555
C5_6 C7_6 1_555 1_555
Zn1_5 O1_5 1_555 1_555
O1_5 C3_6 1_555 1_555
O2_6 C3_6 1_555 1_555
O3_4 Zn1_5 1_555 1_555
O4_5 Zn1_5 1_555 1_555
O5_5 Zn1_5 1_555 1_555
O9_6 C9_6 1_555 1_555
H2_6 C4_6 1_555 1_555
O4_6 Zn3_3 1_555 1_555
O5_6 Zn3_3 1_555 1_555
O4_7 Zn2 1_555 1_555
O5_7 Zn2 1_555 1_555
O5_8 Zn3_4 1_555 1_555
O3_5 Zn3_5 1_555 1_555
O4_8 Zn3_5 1_555 1_555
Zn1_6 O1_6 1_555 1_555
O5_9 Zn1_6 1_555 1_555
O9_7 C9_7 1_555 1_555
H2_7 C4_7 1_555 1_555
Zn3_7 O7_7 1_555 1_555
C5_7 H3_7 1_555 1_555
C5_7 C6_7 1_555 1_555
C5_7 C7_7 1_555 1_555
O2_7 C3_7 1_555 1_555
O3_6 Zn1_7 1_555 1_555
O4_9 Zn1_7 1_555 1_555
C1_7 H1_7 1_555 1_555
O3_4 C8_7 1_555 1_555
O8_7 C8_7 1_555 1_555
O4_8 C3_8 1_555 1_555
O2_8 C3_8 1_555 1_555
C1_8 H1_8 1_555 1_555
C2_8 C1_8 1_555 1_555
C3_8 C2_8 1_555 1_555
O5_4 C8_8 1_555 1_555
O4_2 C9_8 1_555 1_555
O8_8 C8_8 1_555 1_555
O9_8 C9_8 1_555 1_555
C4_8 C2_8 1_555 1_555
C5_8 H3_8 1_555 1_555
H2_8 C4_8 1_555 1_555
C6_8 C1_8 1_555 1_555
C7_8 C4_8 1_555 1_555
C8_8 C6_8 1_555 1_555
C9_8 C7_8 1_555 1_555
C5_8 C6_8 1_555 1_555
C5_8 C7_8 1_555 1_555
O4_5 C3_9 1_555 1_555
O2_9 C3_9 1_555 1_555
C1_9 H1_9 1_555 1_555
C2_9 C1_9 1_555 1_555
C3_9 C2_9 1_555 1_555
O4_4 C8_9 1_555 1_555
O4 C9_9 1_555 1_555
O8_9 C8_9 1_555 1_555
O9_9 C9_9 1_555 1_555
C4_9 C2_9 1_555 1_555
C5_9 H3_9 1_555 1_555
H2_9 C4_9 1_555 1_555
C6_9 C1_9 1_555 1_555
C7_9 C4_9 1_555 1_555
C8_9 C6_9 1_555 1_555
C9_9 C7_9 1_555 1_555
C5_9 C6_9 1_555 1_555
C5_9 C7_9 1_555 1_555
O3_7 Zn3 1_555 1_555
Zn3_2 O1_7 1_555 1_555
O1_7 C3_10 1_555 1_555
O2_10 C3_10 1_555 1_555
C1_10 H1_10 1_555 1_555
C2_10 C1_10 1_555 1_555
C3_10 C2_10 1_555 1_555
O5_9 C8_10 1_555 1_555
O5_2 C9_10 1_555 1_555
O8_10 C8_10 1_555 1_555
O9_10 C9_10 1_555 1_555
C4_10 C2_10 1_555 1_555
C5_10 H3_10 1_555 1_555
H2_10 C4_10 1_555 1_555
C6_10 C1_10 1_555 1_555
C7_10 C4_10 1_555 1_555
C8_10 C6_10 1_555 1_555
C9_10 C7_10 1_555 1_555
C5_10 C6_10 1_555 1_555
C5_10 C7_10 1_555 1_555
O5_8 C3_11 1_555 1_555
O2_11 C3_11 1_555 1_555
C1_11 H1_11 1_555 1_555
C2_11 C1_11 1_555 1_555
C3_11 C2_11 1_555 1_555
Zn3_7 O7_8 1_555 1_555
O5_7 C8_11 1_555 1_555
O7_8 C9_11 1_555 1_555
O8_11 C8_11 1_555 1_555
O9_11 C9_11 1_555 1_555
C4_11 C2_11 1_555 1_555
C5_11 H3_11 1_555 1_555
H2_11 C4_11 1_555 1_555
C6_11 C1_11 1_555 1_555
C7_11 C4_11 1_555 1_555
C8_11 C6_11 1_555 1_555
C9_11 C7_11 1_555 1_555
C5_11 C6_11 1_555 1_555
C5_11 C7_11 1_555 1_555
O4_9 C3_12 1_555 1_555
O2_12 C3_12 1_555 1_555
C1_12 H1_12 1_555 1_555
C2_12 C1_12 1_555 1_555
C3_12 C2_12 1_555 1_555
O5 C8_12 1_555 1_555
O4_6 C9_12 1_555 1_555
O8_12 C8_12 1_555 1_555
O9_12 C9_12 1_555 1_555
C4_12 C2_12 1_555 1_555
C5_12 H3_12 1_555 1_555
H2_12 C4_12 1_555 1_555
C6_12 C1_12 1_555 1_555
C7_12 C4_12 1_555 1_555
C8_12 C6_12 1_555 1_555
C9_12 C7_12 1_555 1_555
C5_12 C6_12 1_555 1_555
C5_12 C7_12 1_555 1_555
O4_3 C3_13 1_555 1_555
O2_13 C3_13 1_555 1_555
C1_13 H1_13 1_555 1_555
C2_13 C1_13 1_555 1_555
C3_13 C2_13 1_555 1_555
O5_5 C8_13 1_555 1_555
O4_7 C9_13 1_555 1_555
O8_13 C8_13 1_555 1_555
O9_13 C9_13 1_555 1_555
C4_13 C2_13 1_555 1_555
C5_13 H3_13 1_555 1_555
H2_13 C4_13 1_555 1_555
C6_13 C1_13 1_555 1_555
C7_13 C4_13 1_555 1_555
C8_13 C6_13 1_555 1_555
C9_13 C7_13 1_555 1_555
C5_13 C6_13 1_555 1_555
C5_13 C7_13 1_555 1_555
O3_8 Zn3_6 1_555 1_555
O3_9 Zn2_3 1_555 1_555
Zn2_4 O1_8 1_555 1_555
O1_8 C3_14 1_555 1_555
O2_14 C3_14 1_555 1_555
C1_14 H1_14 1_555 1_555
C2_14 C1_14 1_555 1_555
C3_14 C2_14 1_555 1_555
O5_3 C8_14 1_555 1_555
O5_6 C9_14 1_555 1_555
O8_14 C8_14 1_555 1_555
O9_14 C9_14 1_555 1_555
C4_14 C2_14 1_555 1_555
C5_14 H3_14 1_555 1_555
H2_14 C4_14 1_555 1_555
C6_14 C1_14 1_555 1_555
C7_14 C4_14 1_555 1_555
C8_14 C6_14 1_555 1_555
C9_14 C7_14 1_555 1_555
C5_14 C6_14 1_555 1_555
C5_14 C7_14 1_555 1_555
O9_15 C9_15 1_555 1_555
O8_15 C8_15 1_555 1_555
C5_15 H3_15 1_555 1_555
O2_15 C3_15 1_555 1_555
H2_15 C4_15 1_555 1_555
C1_15 H1_15 1_555 1_555
O3_7 C3_16 1_555 1_555
O2_16 C3_16 1_555 1_555
C1_16 H1_16 1_555 1_555
C2_15 C1_16 1_555 1_555
C3_16 C2_15 1_555 1_555
O3_9 C8_16 1_555 1_555
O3_8 C9_16 1_555 1_555
O8_16 C8_16 1_555 1_555
O9_16 C9_16 1_555 1_555
C4_16 C2_15 1_555 1_555
C5_16 H3_16 1_555 1_555
H2_16 C4_16 1_555 1_555
C6_15 C1_16 1_555 1_555
C7_15 C4_16 1_555 1_555
C8_16 C6_15 1_555 1_555
C9_16 C7_15 1_555 1_555
C5_16 C6_15 1_555 1_555
C5_16 C7_15 1_555 1_555

#END
