
###############################################################################
#
# This file contains modified crystal structure data generated from the
# MOF subset of the Cambridge Structural Database (CSD) v543 
# hosted by the Cambridge Crystallographic Data Centre (CCDC).
#
# This work is licensed under the Creative Commons
# Attribution-NonCommercial-ShareAlike 4.0 International License.
# To view a copy of this license, visit
# http://creativecommons.org/licenses/by-nc-sa/4.0/
# or send a letter to
# Creative Commons, PO Box 1866, Mountain View, CA 94042, USA.
#
# CIF created using the CSD Python API on 29 September 2022
# The structure has been converted into the P1 space group
# The structure has a 3D framework
# The original CSD entry PEJNUP is in the monoclinic crystal system
# The framework has been calculated to contain at least 10.0% void space
# The void calculation uses a probe of radius 1.32A, grid spacing 0.4
# The framework is charged, counterions have been retained in the structure
# H atom positions have been added when not included in the experimental data
#
###############################################################################

data_PEJNUP
_chemical_formula_moiety         '(C74 H66 N4 O34 Zn5 3-)n'
_symmetry_cell_setting           triclinic
_symmetry_space_group_name_H-M   'P 1'
_symmetry_Int_Tables_number      1
_space_group_name_Hall           'P 1'
loop_
_symmetry_equiv_pos_site_id
_symmetry_equiv_pos_as_xyz
1 x,y,z
_cell_length_a                   16.965(4)
_cell_length_b                   15.5171(13)
_cell_length_c                   14.0726(14)
_cell_angle_alpha                90
_cell_angle_beta                 108.119(18)
_cell_angle_gamma                90
_cell_volume                     3520.88
loop_
_atom_site_label
_atom_site_type_symbol
_atom_site_fract_x
_atom_site_fract_y
_atom_site_fract_z
C1 C 0.8744(8) 0.8688(9) 0.4427(10)
H1 H 0.8888 0.9162 0.4051
C2 C 0.7851(8) 0.8947(10) 0.4093(14)
H2 H 0.7764 0.9419 0.4501
H3 H 0.7687 0.9136 0.3402
C3 C 0.7346(10) 0.8180(9) 0.4198(12)
H4 H 0.7518 0.7974 0.4882
H5 H 0.6761 0.8324 0.4003
C4 C 0.7511(8) 0.7515(11) 0.3509(12)
H6 H 0.7186 0.7004 0.3527
H7 H 0.7326 0.7737 0.2831
C5 C 0.8412(7) 0.7260(7) 0.3764(11)
H8 H 0.8495 0.6842 0.3293
H9 H 0.8619 0.7026 0.4436
N1 N 0.8800(7) 0.8070(6) 0.3686(7)
H19 H 0.907941 0.859128 0.52159
H20 H 0.940809 0.79615 0.377084
H21 H 0.851965 0.832109 0.299747
C1_2 C 0.1256(8) 0.8688(9) 0.0573(10)
H1_2 H 0.1112 0.9162 0.0949
C2_2 C 0.2149(8) 0.8947(10) 0.0907(14)
H2_2 H 0.2236 0.9419 0.0499
H3_2 H 0.2313 0.9136 0.1598
C3_2 C 0.2654(10) 0.8180(9) 0.0802(12)
H4_2 H 0.2482 0.7974 0.0118
H5_2 H 0.3239 0.8324 0.0997
C4_2 C 0.2489(8) 0.7515(11) 0.1491(12)
H6_2 H 0.2814 0.7004 0.1473
H7_2 H 0.2674 0.7737 0.2169
C5_2 C 0.1588(7) 0.7260(7) 0.1236(11)
H8_2 H 0.1505 0.6842 0.1707
H9_2 H 0.1381 0.7026 0.0564
N1_2 N 0.1200(7) 0.8070(6) 0.1314(7)
H20_2 H 0.0591914 0.79615 0.122916
H21_2 H 0.148035 0.832109 0.200253
H19_2 H 0.0920587 0.859128 0.97841
C1_3 C 0.1256(8) 0.1312(9) 0.5573(10)
H1_3 H 0.1112 0.0838 0.5949
C2_3 C 0.2149(8) 0.1053(10) 0.5907(14)
H2_3 H 0.2236 0.0581 0.5499
H3_3 H 0.2313 0.0864 0.6598
C3_3 C 0.2654(10) 0.1820(9) 0.5802(12)
H4_3 H 0.2482 0.2026 0.5118
H5_3 H 0.3239 0.1676 0.5997
C4_3 C 0.2489(8) 0.2485(11) 0.6491(12)
H6_3 H 0.2814 0.2996 0.6473
H7_3 H 0.2674 0.2263 0.7169
C5_3 C 0.1588(7) 0.2740(7) 0.6236(11)
H8_3 H 0.1505 0.3158 0.6707
H9_3 H 0.1381 0.2974 0.5564
N1_3 N 0.1200(7) 0.1930(6) 0.6314(7)
H19_3 H 0.0920587 0.140872 0.47841
H20_3 H 0.0591914 0.20385 0.622916
H21_3 H 0.148035 0.167891 0.700253
H19_4 H 0.907941 0.140872 0.0215905
C1_4 C 0.8744(8) 0.1312(9) 0.9427(10)
H1_4 H 0.8888 0.0838 0.9051
C2_4 C 0.7851(8) 0.1053(10) 0.9093(14)
H2_4 H 0.7764 0.0581 0.9501
H3_4 H 0.7687 0.0864 0.8402
C3_4 C 0.7346(10) 0.1820(9) 0.9198(12)
H4_4 H 0.7518 0.2026 0.9882
H5_4 H 0.6761 0.1676 0.9003
C4_4 C 0.7511(8) 0.2485(11) 0.8509(12)
H6_4 H 0.7186 0.2996 0.8527
H7_4 H 0.7326 0.2263 0.7831
C5_4 C 0.8412(7) 0.2740(7) 0.8764(11)
H8_4 H 0.8495 0.3158 0.8293
H9_4 H 0.8619 0.2974 0.9436
N1_4 N 0.8800(7) 0.1930(6) 0.8686(7)
H20_4 H 0.940809 0.20385 0.877084
H21_4 H 0.851965 0.167891 0.799747
Zn3 Zn 0.51225(4) 0.29563(3) 0.13636(4)
Zn7 Zn 0.48775(4) 0.29563(3) 0.36364(4)
Zn8 Zn 0.0000 0.04350(7) 0.7500
O12 O 0.5194(3) 0.3193(2) 0.0067(2)
O15 O 0.5101(3) 0.4152(2) 0.1762(2)
O16 O 0.4054(3) 0.2460(3) 0.1249(3)
O17 O 0.3954(3) 0.2337(3) 0.2779(2)
O19 O 0.6046(3) 0.2337(3) 0.2221(2)
O23 O 0.0658(3) 0.0215(4) 0.1875(3)
O25 O 0.1538(3) 0.0773(4) 0.3251(3)
C24 C 0.1339(4) 0.1082(5) 0.0631(4)
H16 H 0.0833 0.0804 0.0360
C26 C 0.2456(4) 0.1836(4) 0.0396(4)
C27 C 0.2868(4) 0.1864(4) 0.1430(4)
C28 C 0.2438(4) 0.1498(4) 0.2055(4)
H18 H 0.2670 0.1531 0.2746
C29 C 0.1684(4) 0.1094(5) 0.1652(4)
C30 C 0.3679(4) 0.2254(4) 0.1850(4)
C32 C 0.1296(5) 0.0657(5) 0.2335(5)
O20 O 0.0556(3) 0.1164(3) 0.8628(3)
O22 O 0.1709(3) 0.1593(4) 0.8316(3)
C25 C 0.1700(4) 0.1454(5) 0.9999(4)
H17 H 0.2709 0.2086 0.9965
C31 C 0.1313(5) 0.1402(5) 0.8911(4)
Zn1 Zn 0.51225(4) 0.70437(3) 0.63636(4)
Zn2 Zn 0.0000 0.95650(7) 0.2500
O1 O 0.4806(3) 0.3193(2) 0.4933(2)
O2 O 0.4988(4) 0.1947(2) 0.5677(3)
O3 O 0.5101(3) 0.5848(2) 0.6762(2)
O4 O 0.4054(3) 0.7540(3) 0.6249(3)
O5 O 0.3954(3) 0.7663(3) 0.7779(2)
O6 O 0.0556(3) 0.8836(3) 0.3628(3)
O7 O 0.1709(3) 0.8407(4) 0.3316(3)
O8 O 0.0658(3) 0.9785(4) 0.6875(3)
O9 O 0.1538(3) 0.9227(4) 0.8251(3)
C6 C 0.4973(3) 0.4069(3) 0.6641(3)
H10 H 0.4963 0.4370 0.6065
C7 C 0.4959(4) 0.3183(3) 0.6620(3)
C8 C 0.5000 0.2740(5) 0.7500
H11 H 0.5000 0.2140 0.7500
C9 C 0.5000 0.4526(4) 0.7500
C10 C 0.4912(4) 0.2723(3) 0.5685(3)
C11 C 0.5000 0.5484(4) 0.7500
C12 C 0.1339(4) 0.8918(5) 0.5631(4)
H12 H 0.0833 0.9196 0.5360
C13 C 0.1700(4) 0.8546(5) 0.4999(4)
C14 C 0.2456(4) 0.8164(4) 0.5396(4)
H13 H 0.2709 0.7914 0.4965
C15 C 0.2868(4) 0.8136(4) 0.6430(4)
C16 C 0.2438(4) 0.8502(4) 0.7055(4)
H14 H 0.2670 0.8469 0.7746
C17 C 0.1684(4) 0.8906(5) 0.6652(4)
C18 C 0.3679(4) 0.7746(4) 0.6850(4)
C19 C 0.1313(5) 0.8598(5) 0.3911(4)
C20 C 0.1296(5) 0.9343(5) 0.7335(5)
Zn5 Zn 0.48775(4) 0.70437(3) 0.86364(4)
O11 O 0.5194(3) 0.6807(2) 0.5067(2)
O13 O 0.5012(4) 0.1947(2) 0.9323(3)
O14 O 0.4899(3) 0.5848(2) 0.8238(2)
O18 O 0.6046(3) 0.7663(3) 0.7221(2)
C21 C 0.5027(3) 0.4069(3) 0.8359(3)
H15 H 0.5037 0.4370 0.8935
C22 C 0.5041(4) 0.3183(3) 0.8380(3)
C23 C 0.5088(4) 0.2723(3) 0.9315(3)
Zn8_2 Zn 1.0000 0.04350(7) 0.7500
O24 O 0.9342(3) 0.0215(4) 0.3125(3)
Zn2_2 Zn 1.0000 0.95650(7) 0.2500
O21 O 0.9444(3) 0.8836(3) 0.1372(3)
O15_2 O 0.4899(3) 0.4152(2) 0.3238(2)
O16_2 O 0.5946(3) 0.2460(3) 0.3751(3)
O20_2 O 0.9444(3) 0.1164(3) 0.6372(3)
O22_2 O 0.8291(3) 0.1593(4) 0.6684(3)
O25_2 O 0.8462(3) 0.0773(4) 0.1749(3)
C24_2 C 0.8661(4) 0.1082(5) 0.4369(4)
H16_2 H 0.9167 0.0804 0.4640
C25_2 C 0.8300(4) 0.1454(5) 0.5001(4)
C26_2 C 0.7544(4) 0.1836(4) 0.4604(4)
H17_2 H 0.7291 0.2086 0.5035
C27_2 C 0.7132(4) 0.1864(4) 0.3570(4)
C28_2 C 0.7562(4) 0.1498(4) 0.2945(4)
H18_2 H 0.7330 0.1531 0.2254
C29_2 C 0.8316(4) 0.1094(5) 0.3348(4)
C30_2 C 0.6321(4) 0.2254(4) 0.3150(4)
C31_2 C 0.8687(5) 0.1402(5) 0.6089(4)
C32_2 C 0.8704(5) 0.0657(5) 0.2665(5)
O7_2 O 0.8291(3) 0.8407(4) 0.1684(3)
C13_2 C 0.8300(4) 0.8546(5) 0.0001(4)
H13_2 H 0.7291 0.7914 0.0035
C19_2 C 0.8687(5) 0.8598(5) 0.1089(4)
O4_2 O 0.5946(3) 0.7540(3) 0.8751(3)
O8_2 O 0.9342(3) 0.9785(4) 0.8125(3)
O9_2 O 0.8462(3) 0.9227(4) 0.6749(3)
C12_2 C 0.8661(4) 0.8918(5) 0.9369(4)
H12_2 H 0.9167 0.9196 0.9640
C14_2 C 0.7544(4) 0.8164(4) 0.9604(4)
C15_2 C 0.7132(4) 0.8136(4) 0.8570(4)
C16_2 C 0.7562(4) 0.8502(4) 0.7945(4)
H14_2 H 0.7330 0.8469 0.7254
C17_2 C 0.8316(4) 0.8906(5) 0.8348(4)
C18_2 C 0.6321(4) 0.7746(4) 0.8150(4)
C20_2 C 0.8704(5) 0.9343(5) 0.7665(5)
O11_2 O 0.4806(3) 0.6807(2) 0.9933(2)
O2_2 O 0.5012(4) 0.8053(2) 0.4323(3)
C6_2 C 0.5027(3) 0.5931(3) 0.3359(3)
H10_2 H 0.5037 0.5630 0.3935
C7_2 C 0.5041(4) 0.6817(3) 0.3380(3)
C8_2 C 0.5000 0.7260(5) 0.2500
H11_2 H 0.5000 0.7860 0.2500
C9_2 C 0.5000 0.5474(4) 0.2500
C10_2 C 0.5088(4) 0.7277(3) 0.4315(3)
C11_2 C 0.5000 0.4516(4) 0.2500
O13_2 O 0.4988(4) 0.8053(2) 0.0677(3)
C21_2 C 0.4973(3) 0.5931(3) 0.1641(3)
H15_2 H 0.4963 0.5630 0.1065
C22_2 C 0.4959(4) 0.6817(3) 0.1620(3)
C23_2 C 0.4912(4) 0.7277(3) 0.0685(3)
loop_
_geom_bond_atom_site_label_1
_geom_bond_atom_site_label_2
_geom_bond_site_symmetry_1
_geom_bond_site_symmetry_2
C1 H1 1_555 1_555
C2 C1 1_555 1_555
H2 C2 1_555 1_555
H3 C2 1_555 1_555
C3 C2 1_555 1_555
H4 C3 1_555 1_555
H5 C3 1_555 1_555
C4 C3 1_555 1_555
H6 C4 1_555 1_555
H7 C4 1_555 1_555
C5 C4 1_555 1_555
H8 C5 1_555 1_555
H9 C5 1_555 1_555
N1 C1 1_555 1_555
C5 N1 1_555 1_555
C1 H19 1_555 1_555
N1 H20 1_555 1_555
N1 H21 1_555 1_555
C1_2 H1_2 1_555 1_555
C2_2 C1_2 1_555 1_555
H2_2 C2_2 1_555 1_555
H3_2 C2_2 1_555 1_555
C3_2 C2_2 1_555 1_555
H4_2 C3_2 1_555 1_555
H5_2 C3_2 1_555 1_555
C4_2 C3_2 1_555 1_555
H6_2 C4_2 1_555 1_555
H7_2 C4_2 1_555 1_555
C5_2 C4_2 1_555 1_555
H8_2 C5_2 1_555 1_555
H9_2 C5_2 1_555 1_555
N1_2 C1_2 1_555 1_555
C5_2 N1_2 1_555 1_555
N1_2 H20_2 1_555 1_555
N1_2 H21_2 1_555 1_555
C1_3 H1_3 1_555 1_555
C2_3 C1_3 1_555 1_555
H2_3 C2_3 1_555 1_555
H3_3 C2_3 1_555 1_555
C3_3 C2_3 1_555 1_555
H4_3 C3_3 1_555 1_555
H5_3 C3_3 1_555 1_555
C4_3 C3_3 1_555 1_555
H6_3 C4_3 1_555 1_555
H7_3 C4_3 1_555 1_555
C5_3 C4_3 1_555 1_555
H8_3 C5_3 1_555 1_555
H9_3 C5_3 1_555 1_555
N1_3 C1_3 1_555 1_555
C5_3 N1_3 1_555 1_555
C1_3 H19_3 1_555 1_555
N1_3 H20_3 1_555 1_555
N1_3 H21_3 1_555 1_555
C1_4 H1_4 1_555 1_555
C2_4 C1_4 1_555 1_555
H2_4 C2_4 1_555 1_555
H3_4 C2_4 1_555 1_555
C3_4 C2_4 1_555 1_555
H4_4 C3_4 1_555 1_555
H5_4 C3_4 1_555 1_555
C4_4 C3_4 1_555 1_555
H6_4 C4_4 1_555 1_555
H7_4 C4_4 1_555 1_555
C5_4 C4_4 1_555 1_555
H8_4 C5_4 1_555 1_555
H9_4 C5_4 1_555 1_555
N1_4 C1_4 1_555 1_555
C5_4 N1_4 1_555 1_555
N1_4 H20_4 1_555 1_555
N1_4 H21_4 1_555 1_555
Zn3 O12 1_555 1_555
Zn7 O17 1_555 1_555
O15 Zn3 1_555 1_555
O16 Zn3 1_555 1_555
O17 C30 1_555 1_555
O19 Zn3 1_555 1_555
O25 C32 1_555 1_555
C24 H16 1_555 1_555
C27 C26 1_555 1_555
C28 C27 1_555 1_555
H18 C28 1_555 1_555
C29 C24 1_555 1_555
C30 O16 1_555 1_555
C32 O23 1_555 1_555
C27 C30 1_555 1_555
C28 C29 1_555 1_555
C29 C32 1_555 1_555
Zn8 O20 1_555 1_555
O20 C31 1_555 1_555
O22 C31 1_555 1_555
C31 C25 1_555 1_555
Zn1 O3 1_555 1_555
Zn2 O6 1_555 1_555
O1 C10 1_555 1_555
O2 C10 1_555 1_555
O3 C11 1_555 1_555
O4 Zn1 1_555 1_555
O5 C18 1_555 1_555
O6 C19 1_555 1_555
O7 C19 1_555 1_555
O8 C20 1_555 1_555
O9 C20 1_555 1_555
C6 H10 1_555 1_555
C7 C6 1_555 1_555
C8 C7 1_555 1_555
H11 C8 1_555 1_555
C9 C6 1_555 1_555
C10 C7 1_555 1_555
C11 C9 1_555 1_555
C12 H12 1_555 1_555
C13 C12 1_555 1_555
C14 C13 1_555 1_555
H13 C14 1_555 1_555
C15 C14 1_555 1_555
C16 C15 1_555 1_555
H14 C16 1_555 1_555
C17 C12 1_555 1_555
C18 O4 1_555 1_555
C19 C13 1_555 1_555
C20 C17 1_555 1_555
Zn7 O1 1_555 1_555
Zn5 O5 1_555 1_555
O11 Zn1 1_555 1_555
O13 C23 1_555 1_555
O14 C11 1_555 1_555
O18 Zn1 1_555 1_555
C21 C9 1_555 1_555
H15 C21 1_555 1_555
C22 C8 1_555 1_555
C23 C22 1_555 1_555
C15 C18 1_555 1_555
C16 C17 1_555 1_555
Zn5 O14 1_555 1_555
C21 C22 1_555 1_555
O21 Zn2_2 1_555 1_555
Zn8_2 O20_2 1_555 1_555
O15_2 Zn7 1_555 1_555
O16_2 Zn7 1_555 1_555
O19 C30_2 1_555 1_555
O20_2 C31_2 1_555 1_555
O22_2 C31_2 1_555 1_555
O25_2 C32_2 1_555 1_555
C24_2 H16_2 1_555 1_555
C25_2 C24_2 1_555 1_555
C26_2 C25_2 1_555 1_555
H17_2 C26_2 1_555 1_555
C27_2 C26_2 1_555 1_555
C28_2 C27_2 1_555 1_555
H18_2 C28_2 1_555 1_555
C29_2 C24_2 1_555 1_555
C30_2 O16_2 1_555 1_555
C31_2 C25_2 1_555 1_555
C32_2 O24 1_555 1_555
C27_2 C30_2 1_555 1_555
C28_2 C29_2 1_555 1_555
C29_2 C32_2 1_555 1_555
O21 C19_2 1_555 1_555
O7_2 C19_2 1_555 1_555
C19_2 C13_2 1_555 1_555
O4_2 Zn5 1_555 1_555
O18 C18_2 1_555 1_555
O8_2 C20_2 1_555 1_555
O9_2 C20_2 1_555 1_555
C12_2 H12_2 1_555 1_555
C15_2 C14_2 1_555 1_555
C16_2 C15_2 1_555 1_555
H14_2 C16_2 1_555 1_555
C17_2 C12_2 1_555 1_555
C18_2 O4_2 1_555 1_555
C20_2 C17_2 1_555 1_555
O11_2 Zn5 1_555 1_555
C15_2 C18_2 1_555 1_555
C16_2 C17_2 1_555 1_555
O11 C10_2 1_555 1_555
O2_2 C10_2 1_555 1_555
O15_2 C11_2 1_555 1_555
C6_2 H10_2 1_555 1_555
C7_2 C6_2 1_555 1_555
C8_2 C7_2 1_555 1_555
H11_2 C8_2 1_555 1_555
C9_2 C6_2 1_555 1_555
C10_2 C7_2 1_555 1_555
C11_2 C9_2 1_555 1_555
O13_2 C23_2 1_555 1_555
O15 C11_2 1_555 1_555
C21_2 C9_2 1_555 1_555
H15_2 C21_2 1_555 1_555
C22_2 C8_2 1_555 1_555
C23_2 C22_2 1_555 1_555
C21_2 C22_2 1_555 1_555

#END
