
###############################################################################
#
# This file contains modified crystal structure data generated from the
# MOF subset of the Cambridge Structural Database (CSD) v543 
# hosted by the Cambridge Crystallographic Data Centre (CCDC).
#
# This work is licensed under the Creative Commons
# Attribution-NonCommercial-ShareAlike 4.0 International License.
# To view a copy of this license, visit
# http://creativecommons.org/licenses/by-nc-sa/4.0/
# or send a letter to
# Creative Commons, PO Box 1866, Mountain View, CA 94042, USA.
#
# CIF created using the CSD Python API on 29 September 2022
# The structure has been converted into the P1 space group
# The structure has a 3D framework
# The original CSD entry PEJPOL is in the monoclinic crystal system
# The framework has been calculated to contain at least 10.0% void space
# The void calculation uses a probe of radius 1.32A, grid spacing 0.4
# The framework is charged, counterions have been retained in the structure
#
###############################################################################

data_PEJPOL
_chemical_formula_moiety         '(C162 H134 N8 O88 Zn16 4-)n'
_symmetry_cell_setting           triclinic
_symmetry_space_group_name_H-M   'P 1'
_symmetry_Int_Tables_number      1
_space_group_name_Hall           'P 1'
loop_
_symmetry_equiv_pos_site_id
_symmetry_equiv_pos_as_xyz
1 x,y,z
_cell_length_a                   18.5152(4)
_cell_length_b                   15.2446(3)
_cell_length_c                   21.4278(5)
_cell_angle_alpha                90
_cell_angle_beta                 100.999(2)
_cell_angle_gamma                90
_cell_volume                     5937.04
loop_
_atom_site_label
_atom_site_type_symbol
_atom_site_fract_x
_atom_site_fract_y
_atom_site_fract_z
O8 O 0.0828(3) 0.0224(4) 0.0604(3)
C10 C 0.2500 0.2685(8) 0.0000
C11 C 0.2500 0.1724(7) 0.0000
C13 C 0.1962(5) 0.0356(5) 0.0235(4)
C14 C 0.1970(5) 0.1243(5) 0.0247(4)
H5 H 0.1619 0.1541 0.0422
Zn3 Zn 0.19016(4) 0.42764(5) 0.05154(4)
Zn5 Zn 0.69016(4) 0.57236(5) 0.05154(4)
O12 O 0.1510(3) 0.3872(4) 0.1733(3)
O13 O 0.0972(3) 0.4343(3) 0.0781(2)
O15 O 0.3401(3) 0.4931(4) 0.0276(2)
O18 O 0.2767(3) 0.4773(4) 0.1051(2)
O22 O 0.2069(3) 0.3062(4) 0.0305(3)
O27 O 0.0149(4) 0.3479(4) 0.4910(3)
C22 C 0.0970(4) 0.4122(5) 0.1357(4)
C23 C 0.0230(4) 0.4215(4) 0.1555(3)
C28 C 0.0144(4) 0.3995(5) 0.2168(4)
H20 H 0.0546 0.3790 0.2459
C34 C 0.0162(6) 0.2633(7) 0.5214(6)
H22 H 0.0274 0.2704 0.5673
H23 H 0.0540 0.2268 0.5091
H33 H 0.0290 0.1963 0.4211
Zn1 Zn 0.30984(4) 0.42764(5) 0.94846(4)
Zn2 Zn 0.56730(5) 0.35163(6) 0.58813(4)
O1 O 0.3490(3) 0.3872(4) 0.8267(3)
O2 O 0.4028(3) 0.4343(3) 0.9219(2)
O3 O 0.6599(3) 0.5069(4) 0.9724(2)
O4 O 0.7233(3) 0.5227(4) 0.8949(2)
O5 O 0.5072(3) 0.3714(4) 0.6569(2)
O6 O 0.6264(3) 0.3799(4) 0.6880(2)
O7 O 0.2931(3) 0.3062(4) 0.9695(3)
O10 O 0.4851(4) 0.3479(4) 0.5090(3)
O11 O 0.6135(6) 0.1146(8) 0.6795(6)
N1 N 0.5758(4) 0.2182(5) 0.5683(4)
C1 C 0.4030(4) 0.4122(5) 0.8643(4)
C2 C 0.4770(4) 0.4215(4) 0.8445(3)
C3 C 0.5379(4) 0.4536(5) 0.8870(3)
H1 H 0.5331 0.4682 0.9282
C4 C 0.6047(4) 0.4639(5) 0.8692(3)
C5 C 0.6131(4) 0.4395(5) 0.8080(3)
H2 H 0.6587 0.4446 0.7961
C6 C 0.5525(4) 0.4075(5) 0.7650(3)
C7 C 0.4856(4) 0.3995(5) 0.7832(4)
H3 H 0.4454 0.3790 0.7541
C8 C 0.6682(4) 0.5004(5) 0.9155(4)
C9 C 0.5625(5) 0.3843(5) 0.6995(4)
C10_2 C 0.2500 0.2685(8) 1.0000
C11_2 C 0.2500 0.1724(7) 1.0000
C16 C 0.4838(6) 0.2633(7) 0.4786(6)
H6 H 0.4726 0.2704 0.4327
H7 H 0.4460 0.2268 0.4909
C17 C 0.5605(7) 0.2186(9) 0.4990(5)
H8 H 0.5594 0.1592 0.4826
H9 H 0.5980 0.2514 0.4829
C18 C 0.6478(7) 0.1789(10) 0.5882(6)
H10 H 0.6832 0.2138 0.5711
H11 H 0.6469 0.1210 0.5693
C19 C 0.6741(7) 0.1700(8) 0.6574(6)
H12 H 0.6789 0.2270 0.6779
H13 H 0.7212 0.1402 0.6665
C20 C 0.5415(8) 0.1538(10) 0.6639(7)
H14 H 0.5420 0.2104 0.6846
H15 H 0.5060 0.1167 0.6792
C21 C 0.5179(8) 0.1660(9) 0.5892(6)
H16 H 0.5130 0.1094 0.5682
H17 H 0.4710 0.1963 0.5789
Zn7 Zn 0.80984(4) 0.57236(5) 0.94846(4)
O16 O 0.1599(3) 0.4931(4) 0.9724(2)
O19 O 0.2233(3) 0.4773(4) 0.8949(2)
O23 O 0.4172(3) 0.0224(4) 0.9396(3)
O25 O 0.6471(3) 0.4021(4) 0.5515(3)
C31 C 0.3038(5) 0.0356(5) 0.9765(4)
C32 C 0.3030(5) 0.1243(5) 0.9753(4)
H21 H 0.3381 0.1541 0.9578
C12 C 0.2500 0.9924(8) 1.0000
H4 H 0.2500 0.9314 1.0000
Zn10 Zn 0.43270(5) 0.85163(6) 0.91187(4)
O24 O 0.3529(3) 0.9021(4) 0.9485(3)
C33 C 0.3640(5) 0.9837(6) 0.9525(4)
Zn8 Zn 0.93270(5) 0.35163(6) 0.41187(4)
O14 O 0.8401(3) 0.5069(4) 0.0276(2)
O17 O 0.7767(3) 0.5227(4) 0.1051(2)
O20 O 0.9928(3) 0.3714(4) 0.3431(2)
O21 O 0.8736(3) 0.3799(4) 0.3120(2)
O26 O 0.8529(3) 0.4021(4) 0.4485(3)
O28 O 0.8865(6) 0.1146(8) 0.3205(6)
N2 N 0.9242(4) 0.2182(5) 0.4317(4)
C24 C 0.9621(4) 0.4536(5) 0.1130(3)
H18 H 0.9669 0.4682 0.0718
C25 C 0.8953(4) 0.4639(5) 0.1308(3)
C26 C 0.8869(4) 0.4395(5) 0.1920(3)
H19 H 0.8413 0.4446 0.2039
C27 C 0.9475(4) 0.4075(5) 0.2350(3)
C29 C 0.8318(4) 0.5004(5) 0.0845(4)
C30 C 0.9375(5) 0.3843(5) 0.3005(4)
C35 C 0.9395(7) 0.2186(9) 0.5010(5)
H24 H 0.9406 0.1592 0.5174
H25 H 0.9020 0.2514 0.5171
C36 C 0.8522(7) 0.1789(10) 0.4118(6)
H26 H 0.8168 0.2138 0.4289
H27 H 0.8531 0.1210 0.4307
C37 C 0.8259(7) 0.1700(8) 0.3426(6)
H28 H 0.8211 0.2270 0.3221
H29 H 0.7788 0.1402 0.3335
C38 C 0.9585(8) 0.1538(10) 0.3361(7)
H30 H 0.9580 0.2104 0.3154
H31 H 0.9940 0.1167 0.3208
C39 C 0.9821(8) 0.1660(9) 0.4108(6)
H32 H 0.9870 0.1094 0.4318
O3_2 O 0.1599(3) 0.0069(4) 0.4724(2)
O4_2 O 0.2233(3) 0.0227(4) 0.3949(2)
C8_2 C 0.1682(4) 0.0004(5) 0.4155(4)
Zn5_2 Zn 0.19016(4) 0.07236(5) 0.55154(4)
Zn7_2 Zn 0.30984(4) 0.07236(5) 0.44846(4)
O14_2 O 0.3401(3) 0.0069(4) 0.5276(2)
O17_2 O 0.2767(3) 0.0227(4) 0.6051(2)
C29_2 C 0.3318(4) 0.0004(5) 0.5845(4)
Zn1_2 Zn 0.80984(4) 0.92764(5) 0.44846(4)
O1_2 O 0.8490(3) 0.8872(4) 0.3267(3)
O2_2 O 0.9028(3) 0.9343(3) 0.4219(2)
O7_2 O 0.7931(3) 0.8062(4) 0.4695(3)
O8_2 O 0.5828(3) 0.5224(4) 0.5604(3)
O10_2 O 0.9851(4) 0.8479(4) 0.0090(3)
C1_2 C 0.9030(4) 0.9122(5) 0.3643(4)
C2_2 C 0.9770(4) 0.9215(4) 0.3445(3)
C7_2 C 0.9856(4) 0.8995(5) 0.2832(4)
H3_2 H 0.9454 0.8790 0.2541
C10_3 C 0.7500 0.7685(8) 0.5000
C11_3 C 0.7500 0.6724(7) 0.5000
C12_2 C 0.7500 0.4924(8) 0.5000
H4_2 H 0.7500 0.4314 0.5000
C13_2 C 0.6962(5) 0.5356(5) 0.5235(4)
C14_2 C 0.6970(5) 0.6243(5) 0.5247(4)
H5_2 H 0.6619 0.6541 0.5422
C15 C 0.6360(5) 0.4837(6) 0.5475(4)
H17_2 H 0.9710 0.6963 0.0789
Zn3_2 Zn 0.69016(4) 0.92764(5) 0.55154(4)
O12_2 O 0.6510(3) 0.8872(4) 0.6733(3)
O13_2 O 0.5972(3) 0.9343(3) 0.5781(2)
O15_2 O 0.8401(3) 0.9931(4) 0.5276(2)
O16_2 O 0.6599(3) 0.9931(4) 0.4724(2)
O18_2 O 0.7767(3) 0.9773(4) 0.6051(2)
O19_2 O 0.7233(3) 0.9773(4) 0.3949(2)
O20_2 O 0.4928(3) 0.8714(4) 0.8431(2)
O21_2 O 0.3736(3) 0.8799(4) 0.8120(2)
O22_2 O 0.7069(3) 0.8062(4) 0.5305(3)
O23_2 O 0.9172(3) 0.5224(4) 0.4396(3)
O27_2 O 0.5149(4) 0.8479(4) 0.9910(3)
O28_2 O 0.3865(6) 0.6146(8) 0.8205(6)
N2_2 N 0.4242(4) 0.7182(5) 0.9317(4)
C22_2 C 0.5970(4) 0.9122(5) 0.6357(4)
C23_2 C 0.5230(4) 0.9215(4) 0.6555(3)
C24_2 C 0.4621(4) 0.9536(5) 0.6130(3)
H18_2 H 0.4669 0.9682 0.5718
C25_2 C 0.3953(4) 0.9639(5) 0.6308(3)
C26_2 C 0.3869(4) 0.9395(5) 0.6920(3)
H19_2 H 0.3413 0.9446 0.7039
C27_2 C 0.4475(4) 0.9075(5) 0.7350(3)
C28_2 C 0.5144(4) 0.8995(5) 0.7168(4)
H20_2 H 0.5546 0.8790 0.7459
C30_2 C 0.4375(5) 0.8843(5) 0.8005(4)
C31_2 C 0.8038(5) 0.5356(5) 0.4765(4)
C32_2 C 0.8030(5) 0.6243(5) 0.4753(4)
H21_2 H 0.8381 0.6541 0.4578
C33_2 C 0.8640(5) 0.4837(6) 0.4525(4)
C36_2 C 0.3522(7) 0.6789(10) 0.9118(6)
H26_2 H 0.3168 0.7138 0.9289
H27_2 H 0.3531 0.6210 0.9307
C37_2 C 0.3259(7) 0.6700(8) 0.8426(6)
H28_2 H 0.3211 0.7270 0.8221
H29_2 H 0.2788 0.6402 0.8335
C38_2 C 0.4585(8) 0.6538(10) 0.8361(7)
H30_2 H 0.4580 0.7104 0.8154
H31_2 H 0.4940 0.6167 0.8208
C39_2 C 0.4821(8) 0.6660(9) 0.9108(6)
H32_2 H 0.4870 0.6094 0.9318
H33_2 H 0.5290 0.6963 0.9211
Zn8_2 Zn 0.06730(5) 0.64837(6) 0.58813(4)
O20_3 O 0.0072(3) 0.6286(4) 0.6569(2)
O21_3 O 0.1264(3) 0.6201(4) 0.6880(2)
O26_2 O 0.1471(3) 0.5979(4) 0.5515(3)
O28_3 O 0.1135(6) 0.8854(8) 0.6795(6)
N2_3 N 0.0758(4) 0.7818(5) 0.5683(4)
C24_3 C 0.0379(4) 0.5464(5) 0.8870(3)
H18_3 H 0.0331 0.5318 0.9282
C25_3 C 0.1047(4) 0.5361(5) 0.8692(3)
C26_3 C 0.1131(4) 0.5605(5) 0.8080(3)
H19_3 H 0.1587 0.5554 0.7961
C27_3 C 0.0525(4) 0.5925(5) 0.7650(3)
C29_3 C 0.1682(4) 0.4996(5) 0.9155(4)
C30_3 C 0.0625(5) 0.6157(5) 0.6995(4)
C35_2 C 0.0605(7) 0.7814(9) 0.4990(5)
H24_2 H 0.0594 0.8408 0.4826
H25_2 H 0.0980 0.7486 0.4829
C36_3 C 0.1478(7) 0.8211(10) 0.5882(6)
H26_3 H 0.1832 0.7862 0.5711
H27_3 H 0.1469 0.8790 0.5693
C37_3 C 0.1741(7) 0.8300(8) 0.6574(6)
H28_3 H 0.1789 0.7730 0.6779
H29_3 H 0.2212 0.8598 0.6665
C38_3 C 0.0415(8) 0.8462(10) 0.6639(7)
H30_3 H 0.0420 0.7896 0.6846
H31_3 H 0.0060 0.8833 0.6792
C39_3 C 0.0179(8) 0.8340(9) 0.5892(6)
H32_3 H 0.0130 0.8906 0.5682
C12_3 C 0.7500 0.0076(8) 0.0000
H4_3 H 0.7500 0.0686 0.0000
Zn10_2 Zn 0.56730(5) 0.14837(6) 0.08813(4)
O24_2 O 0.6471(3) 0.0979(4) 0.0515(3)
C33_3 C 0.6360(5) 0.0163(6) 0.0475(4)
Zn2_2 Zn 0.43270(5) 0.64837(6) 0.41187(4)
O1_3 O 0.6510(3) 0.6128(4) 0.1733(3)
O2_3 O 0.5972(3) 0.5657(3) 0.0781(2)
O5_2 O 0.4928(3) 0.6286(4) 0.3431(2)
O6_2 O 0.3736(3) 0.6201(4) 0.3120(2)
O7_3 O 0.7069(3) 0.6938(4) 0.0305(3)
O10_3 O 0.5149(4) 0.6521(4) 0.4910(3)
O11_2 O 0.3865(6) 0.8854(8) 0.3205(6)
N1_2 N 0.4242(4) 0.7818(5) 0.4317(4)
C1_3 C 0.5970(4) 0.5878(5) 0.1357(4)
C2_3 C 0.5230(4) 0.5785(4) 0.1555(3)
C3_2 C 0.4621(4) 0.5464(5) 0.1130(3)
H1_2 H 0.4669 0.5318 0.0718
C4_2 C 0.3953(4) 0.5361(5) 0.1308(3)
C5_2 C 0.3869(4) 0.5605(5) 0.1920(3)
H2_2 H 0.3413 0.5554 0.2039
C6_2 C 0.4475(4) 0.5925(5) 0.2350(3)
C7_3 C 0.5144(4) 0.6005(5) 0.2168(4)
H3_3 H 0.5546 0.6210 0.2459
C8_3 C 0.3318(4) 0.4996(5) 0.0845(4)
C9_2 C 0.4375(5) 0.6157(5) 0.3005(4)
C10_4 C 0.7500 0.7315(8) 0.0000
C11_4 C 0.7500 0.8276(7) 0.0000
C16_2 C 0.5162(6) 0.7367(7) 0.5214(6)
H6_2 H 0.5274 0.7296 0.5673
H7_2 H 0.5540 0.7732 0.5091
C17_2 C 0.4395(7) 0.7814(9) 0.5010(5)
H8_2 H 0.4406 0.8408 0.5174
H9_2 H 0.4020 0.7486 0.5171
C18_2 C 0.3522(7) 0.8211(10) 0.4118(6)
H10_2 H 0.3168 0.7862 0.4289
H11_2 H 0.3531 0.8790 0.4307
C19_2 C 0.3259(7) 0.8300(8) 0.3426(6)
H12_2 H 0.3211 0.7730 0.3221
H13_2 H 0.2788 0.8598 0.3335
C20_2 C 0.4585(8) 0.8462(10) 0.3361(7)
H14_2 H 0.4580 0.7896 0.3154
H15_2 H 0.4940 0.8833 0.3208
C21_2 C 0.4821(8) 0.8340(9) 0.4108(6)
H16_2 H 0.4870 0.8906 0.4318
H17_3 H 0.5290 0.8037 0.4211
O23_3 O 0.5828(3) 0.9776(4) 0.0604(3)
O25_2 O 0.3529(3) 0.5979(4) 0.4485(3)
C31_3 C 0.6962(5) 0.9644(5) 0.0235(4)
C32_3 C 0.6970(5) 0.8757(5) 0.0247(4)
H21_3 H 0.6619 0.8459 0.0422
O8_3 O 0.9172(3) 0.9776(4) 0.9396(3)
C10_5 C 0.7500 0.7315(8) 1.0000
C11_5 C 0.7500 0.8276(7) 1.0000
C13_3 C 0.8038(5) 0.9644(5) 0.9765(4)
C14_3 C 0.8030(5) 0.8757(5) 0.9753(4)
H5_3 H 0.8381 0.8459 0.9578
O12_3 O 0.8490(3) 0.6128(4) 0.8267(3)
O13_3 O 0.9028(3) 0.5657(3) 0.9219(2)
O22_3 O 0.7931(3) 0.6938(4) 0.9695(3)
O27_3 O 0.9851(4) 0.6521(4) 0.5090(3)
C22_3 C 0.9030(4) 0.5878(5) 0.8643(4)
C23_3 C 0.9770(4) 0.5785(4) 0.8445(3)
C28_3 C 0.9856(4) 0.6005(5) 0.7832(4)
H20_3 H 0.9454 0.6210 0.7541
C34_2 C 0.9838(6) 0.7367(7) 0.4786(6)
H22_2 H 0.9726 0.7296 0.4327
H23_2 H 0.9460 0.7732 0.4909
H33_3 H 0.9710 0.8037 0.5789
O1_4 O 0.1510(3) 0.1128(4) 0.6733(3)
O2_4 O 0.0972(3) 0.0657(3) 0.5781(2)
O7_4 O 0.2069(3) 0.1938(4) 0.5305(3)
O8_4 O 0.4172(3) 0.4776(4) 0.4396(3)
O10_4 O 0.0149(4) 0.1521(4) 0.9910(3)
C1_4 C 0.0970(4) 0.0878(5) 0.6357(4)
C2_4 C 0.0230(4) 0.0785(4) 0.6555(3)
C7_4 C 0.0144(4) 0.1005(5) 0.7168(4)
H3_4 H 0.0546 0.1210 0.7459
C10_6 C 0.2500 0.2315(8) 0.5000
C11_6 C 0.2500 0.3276(7) 0.5000
C12_4 C 0.2500 0.5076(8) 0.5000
H4_4 H 0.2500 0.5686 0.5000
C13_4 C 0.3038(5) 0.4644(5) 0.4765(4)
C14_4 C 0.3030(5) 0.3757(5) 0.4753(4)
H5_4 H 0.3381 0.3459 0.4578
C15_2 C 0.3640(5) 0.5163(6) 0.4525(4)
H17_4 H 0.0290 0.3037 0.9211
O12_4 O 0.3490(3) 0.1128(4) 0.3267(3)
O13_4 O 0.4028(3) 0.0657(3) 0.4219(2)
O20_4 O 0.5072(3) 0.1286(4) 0.1569(2)
O21_4 O 0.6264(3) 0.1201(4) 0.1880(2)
O22_4 O 0.2931(3) 0.1938(4) 0.4695(3)
O23_4 O 0.0828(3) 0.4776(4) 0.5604(3)
O27_4 O 0.4851(4) 0.1521(4) 0.0090(3)
O28_4 O 0.6135(6) 0.3854(8) 0.1795(6)
N2_4 N 0.5758(4) 0.2818(5) 0.0683(4)
C22_4 C 0.4030(4) 0.0878(5) 0.3643(4)
C23_4 C 0.4770(4) 0.0785(4) 0.3445(3)
C24_4 C 0.5379(4) 0.0464(5) 0.3870(3)
H18_4 H 0.5331 0.0318 0.4282
C25_4 C 0.6047(4) 0.0361(5) 0.3692(3)
C26_4 C 0.6131(4) 0.0605(5) 0.3080(3)
H19_4 H 0.6587 0.0554 0.2961
C27_4 C 0.5525(4) 0.0925(5) 0.2650(3)
C28_4 C 0.4856(4) 0.1005(5) 0.2832(4)
H20_4 H 0.4454 0.1210 0.2541
C30_4 C 0.5625(5) 0.1157(5) 0.1995(4)
C31_4 C 0.1962(5) 0.4644(5) 0.5235(4)
C32_4 C 0.1970(5) 0.3757(5) 0.5247(4)
H21_4 H 0.1619 0.3459 0.5422
C33_4 C 0.1360(5) 0.5163(6) 0.5475(4)
C36_4 C 0.6478(7) 0.3211(10) 0.0882(6)
H26_4 H 0.6832 0.2862 0.0711
H27_4 H 0.6469 0.3790 0.0693
C37_4 C 0.6741(7) 0.3300(8) 0.1574(6)
H28_4 H 0.6789 0.2730 0.1779
H29_4 H 0.7212 0.3598 0.1665
C38_4 C 0.5415(8) 0.3462(10) 0.1639(7)
H30_4 H 0.5420 0.2896 0.1846
H31_4 H 0.5060 0.3833 0.1792
C39_4 C 0.5179(8) 0.3340(9) 0.0892(6)
H32_4 H 0.5130 0.3906 0.0682
H33_4 H 0.4710 0.3037 0.0789
C29_4 C 0.6682(4) 0.9996(5) 0.4155(4)
C8_4 C 0.8318(4) 0.9996(5) 0.5845(4)
O9 O 0.1471(3) 0.9021(4) 0.0515(3)
C12_5 C 0.2500 0.9924(8) 0.0000
H4_5 H 0.2500 0.9314 0.0000
C15_3 C 0.1360(5) 0.9837(6) 0.0475(4)
Zn9 Zn 0.06730(5) 0.85163(6) 0.08813(4)
O5_3 O 0.0072(3) 0.8714(4) 0.1569(2)
O6_3 O 0.1264(3) 0.8799(4) 0.1880(2)
O11_3 O 0.1135(6) 0.6146(8) 0.1795(6)
N1_3 N 0.0758(4) 0.7182(5) 0.0683(4)
C3_3 C 0.0379(4) 0.9536(5) 0.3870(3)
H1_3 H 0.0331 0.9682 0.4282
C4_3 C 0.1047(4) 0.9639(5) 0.3692(3)
C5_3 C 0.1131(4) 0.9395(5) 0.3080(3)
H2_3 H 0.1587 0.9446 0.2961
C6_3 C 0.0525(4) 0.9075(5) 0.2650(3)
C9_3 C 0.0625(5) 0.8843(5) 0.1995(4)
C18_3 C 0.1478(7) 0.6789(10) 0.0882(6)
H10_3 H 0.1832 0.7138 0.0711
H11_3 H 0.1469 0.6210 0.0693
C19_3 C 0.1741(7) 0.6700(8) 0.1574(6)
H12_3 H 0.1789 0.7270 0.1779
H13_3 H 0.2212 0.6402 0.1665
C20_3 C 0.0415(8) 0.6538(10) 0.1639(7)
H14_3 H 0.0420 0.7104 0.1846
H15_3 H 0.0060 0.6167 0.1792
C21_3 C 0.0179(8) 0.6660(9) 0.0892(6)
H16_3 H 0.0130 0.6094 0.0682
C17_3 C 0.0605(7) 0.7186(9) 0.9990(5)
H8_3 H 0.0594 0.6592 0.9826
H9_3 H 0.0980 0.7514 0.9829
C34_3 C 0.5162(6) 0.7633(7) 0.0214(6)
H22_3 H 0.5274 0.7704 0.0673
H23_3 H 0.5540 0.7268 0.0091
C35_3 C 0.4395(7) 0.7186(9) 0.0010(5)
H24_3 H 0.4406 0.6592 0.0174
H25_3 H 0.4020 0.7514 0.0171
C16_3 C 0.9838(6) 0.7633(7) 0.9786(6)
H6_3 H 0.9726 0.7704 0.9327
H7_3 H 0.9460 0.7268 0.9909
O9_2 O 0.8529(3) 0.0979(4) 0.9485(3)
C12_6 C 0.7500 0.0076(8) 1.0000
H4_6 H 0.7500 0.0686 1.0000
C15_4 C 0.8640(5) 0.0163(6) 0.9525(4)
Zn9_2 Zn 0.93270(5) 0.14837(6) 0.91187(4)
O5_4 O 0.9928(3) 0.1286(4) 0.8431(2)
O6_4 O 0.8736(3) 0.1201(4) 0.8120(2)
O11_4 O 0.8865(6) 0.3854(8) 0.8205(6)
N1_4 N 0.9242(4) 0.2818(5) 0.9317(4)
C3_4 C 0.9621(4) 0.0464(5) 0.6130(3)
H1_4 H 0.9669 0.0318 0.5718
C4_4 C 0.8953(4) 0.0361(5) 0.6308(3)
C5_4 C 0.8869(4) 0.0605(5) 0.6920(3)
H2_4 H 0.8413 0.0554 0.7039
C6_4 C 0.9475(4) 0.0925(5) 0.7350(3)
C9_4 C 0.9375(5) 0.1157(5) 0.8005(4)
C18_4 C 0.8522(7) 0.3211(10) 0.9118(6)
H10_4 H 0.8168 0.2862 0.9289
H11_4 H 0.8531 0.3790 0.9307
C19_4 C 0.8259(7) 0.3300(8) 0.8426(6)
H12_4 H 0.8211 0.2730 0.8221
H13_4 H 0.7788 0.3598 0.8335
C20_4 C 0.9585(8) 0.3462(10) 0.8361(7)
H14_4 H 0.9580 0.2896 0.8154
H15_4 H 0.9940 0.3833 0.8208
C21_4 C 0.9821(8) 0.3340(9) 0.9108(6)
H16_4 H 0.9870 0.3906 0.9318
C16_4 C 0.0162(6) 0.2367(7) 0.0214(6)
H6_4 H 0.0274 0.2296 0.0673
H7_4 H 0.0540 0.2732 0.0091
C34_4 C 0.4838(6) 0.2367(7) 0.9786(6)
H22_4 H 0.4726 0.2296 0.9327
H23_4 H 0.4460 0.2732 0.9909
C35_4 C 0.5605(7) 0.2814(9) 0.9990(5)
H24_4 H 0.5594 0.3408 0.9826
H25_4 H 0.5980 0.2486 0.9829
C17_4 C 0.9395(7) 0.2814(9) 0.0010(5)
H8_4 H 0.9406 0.3408 0.0174
H9_4 H 0.9020 0.2486 0.0171
loop_
_geom_bond_atom_site_label_1
_geom_bond_atom_site_label_2
_geom_bond_site_symmetry_1
_geom_bond_site_symmetry_2
C11 C10 1_555 1_555
C14 C11 1_555 1_555
H5 C14 1_555 1_555
Zn3 O13 1_555 1_555
O12 C22 1_555 1_555
O13 C22 1_555 1_555
O18 Zn3 1_555 1_555
O22 C10 1_555 1_555
C22 C23 1_555 1_555
C28 C23 1_555 1_555
H20 C28 1_555 1_555
C34 O27 1_555 1_555
H22 C34 1_555 1_555
H23 C34 1_555 1_555
C13 C14 1_555 1_555
Zn3 O22 1_555 1_555
Zn1 O2 1_555 1_555
Zn2 O5 1_555 1_555
O1 C1 1_555 1_555
O2 C1 1_555 1_555
O3 C8 1_555 1_555
O4 C8 1_555 1_555
O5 C9 1_555 1_555
O6 Zn2 1_555 1_555
O7 Zn1 1_555 1_555
O10 Zn2 1_555 1_555
O11 C19 1_555 1_555
N1 Zn2 1_555 1_555
C1 C2 1_555 1_555
C2 C3 1_555 1_555
C3 H1 1_555 1_555
C4 C3 1_555 1_555
C5 C4 1_555 1_555
H2 C5 1_555 1_555
C6 C5 1_555 1_555
C7 C2 1_555 1_555
H3 C7 1_555 1_555
C8 C4 1_555 1_555
C9 O6 1_555 1_555
C10_2 O7 1_555 1_555
C11_2 C10_2 1_555 1_555
C16 O10 1_555 1_555
H6 C16 1_555 1_555
H7 C16 1_555 1_555
C17 N1 1_555 1_555
H8 C17 1_555 1_555
H9 C17 1_555 1_555
C18 N1 1_555 1_555
H10 C18 1_555 1_555
H11 C18 1_555 1_555
C19 C18 1_555 1_555
H12 C19 1_555 1_555
H13 C19 1_555 1_555
C20 O11 1_555 1_555
H14 C20 1_555 1_555
H15 C20 1_555 1_555
C21 N1 1_555 1_555
H16 C21 1_555 1_555
H17 C21 1_555 1_555
Zn7 O4 1_555 1_555
O19 Zn1 1_555 1_555
O25 Zn2 1_555 1_555
C32 C11_2 1_555 1_555
H21 C32 1_555 1_555
C6 C7 1_555 1_555
C6 C9 1_555 1_555
C16 C17 1_555 1_555
C20 C21 1_555 1_555
C31 C32 1_555 1_555
C12 H4 1_555 1_555
Zn10 O24 1_555 1_555
O24 C33 1_555 1_555
Zn5 O17 1_555 1_555
Zn8 O20 1_555 1_555
O14 C29 1_555 1_555
O17 C29 1_555 1_555
O20 C30 1_555 1_555
O21 Zn8 1_555 1_555
O26 Zn8 1_555 1_555
O28 C37 1_555 1_555
N2 Zn8 1_555 1_555
C24 H18 1_555 1_555
C25 C24 1_555 1_555
C26 C25 1_555 1_555
H19 C26 1_555 1_555
C27 C26 1_555 1_555
C29 C25 1_555 1_555
C30 O21 1_555 1_555
C35 N2 1_555 1_555
H24 C35 1_555 1_555
H25 C35 1_555 1_555
C36 N2 1_555 1_555
H26 C36 1_555 1_555
H27 C36 1_555 1_555
C37 C36 1_555 1_555
H28 C37 1_555 1_555
H29 C37 1_555 1_555
C38 O28 1_555 1_555
H30 C38 1_555 1_555
H31 C38 1_555 1_555
C39 N2 1_555 1_555
H32 C39 1_555 1_555
C27 C30 1_555 1_555
C38 C39 1_555 1_555
O3_2 C8_2 1_555 1_555
O4_2 C8_2 1_555 1_555
Zn5_2 O3_2 1_555 1_555
Zn7_2 O4_2 1_555 1_555
Zn5_2 O17_2 1_555 1_555
Zn7_2 O14_2 1_555 1_555
O14_2 C29_2 1_555 1_555
O17_2 C29_2 1_555 1_555
Zn1_2 O2_2 1_555 1_555
O1_2 C1_2 1_555 1_555
O2_2 C1_2 1_555 1_555
O7_2 Zn1_2 1_555 1_555
O8_2 C15 1_555 1_555
O25 C15 1_555 1_555
C1_2 C2_2 1_555 1_555
C7_2 C2_2 1_555 1_555
H3_2 C7_2 1_555 1_555
C10_3 O7_2 1_555 1_555
C11_3 C10_3 1_555 1_555
C12_2 H4_2 1_555 1_555
C13_2 C12_2 1_555 1_555
C14_2 C11_3 1_555 1_555
H5_2 C14_2 1_555 1_555
C15 C13_2 1_555 1_555
Zn3_2 O13_2 1_555 1_555
Zn10 O20_2 1_555 1_555
O12_2 C22_2 1_555 1_555
O13_2 C22_2 1_555 1_555
O15_2 Zn1_2 1_555 1_555
O16_2 Zn3_2 1_555 1_555
O18_2 Zn3_2 1_555 1_555
O19_2 Zn1_2 1_555 1_555
O20_2 C30_2 1_555 1_555
O21_2 Zn10 1_555 1_555
O22_2 C10_3 1_555 1_555
O23_2 C33_2 1_555 1_555
O26 C33_2 1_555 1_555
O27_2 Zn10 1_555 1_555
O28_2 C37_2 1_555 1_555
N2_2 Zn10 1_555 1_555
C22_2 C23_2 1_555 1_555
C23_2 C24_2 1_555 1_555
C24_2 H18_2 1_555 1_555
C25_2 C24_2 1_555 1_555
C26_2 C25_2 1_555 1_555
H19_2 C26_2 1_555 1_555
C27_2 C26_2 1_555 1_555
C28_2 C23_2 1_555 1_555
H20_2 C28_2 1_555 1_555
C30_2 O21_2 1_555 1_555
C31_2 C12_2 1_555 1_555
C32_2 C11_3 1_555 1_555
H21_2 C32_2 1_555 1_555
C33_2 C31_2 1_555 1_555
C36_2 N2_2 1_555 1_555
H26_2 C36_2 1_555 1_555
H27_2 C36_2 1_555 1_555
C37_2 C36_2 1_555 1_555
H28_2 C37_2 1_555 1_555
H29_2 C37_2 1_555 1_555
C38_2 O28_2 1_555 1_555
H30_2 C38_2 1_555 1_555
H31_2 C38_2 1_555 1_555
C39_2 N2_2 1_555 1_555
H32_2 C39_2 1_555 1_555
H33_2 C39_2 1_555 1_555
C13_2 C14_2 1_555 1_555
Zn3_2 O22_2 1_555 1_555
C27_2 C28_2 1_555 1_555
C27_2 C30_2 1_555 1_555
C31_2 C32_2 1_555 1_555
C38_2 C39_2 1_555 1_555
Zn8_2 O20_3 1_555 1_555
O16 C29_3 1_555 1_555
O19 C29_3 1_555 1_555
O20_3 C30_3 1_555 1_555
O21_3 Zn8_2 1_555 1_555
O26_2 Zn8_2 1_555 1_555
O28_3 C37_3 1_555 1_555
N2_3 Zn8_2 1_555 1_555
C24_3 H18_3 1_555 1_555
C25_3 C24_3 1_555 1_555
C26_3 C25_3 1_555 1_555
H19_3 C26_3 1_555 1_555
C27_3 C26_3 1_555 1_555
C29_3 C25_3 1_555 1_555
C30_3 O21_3 1_555 1_555
C35_2 N2_3 1_555 1_555
H24_2 C35_2 1_555 1_555
H25_2 C35_2 1_555 1_555
C36_3 N2_3 1_555 1_555
H26_3 C36_3 1_555 1_555
H27_3 C36_3 1_555 1_555
C37_3 C36_3 1_555 1_555
H28_3 C37_3 1_555 1_555
H29_3 C37_3 1_555 1_555
C38_3 O28_3 1_555 1_555
H30_3 C38_3 1_555 1_555
H31_3 C38_3 1_555 1_555
C39_3 N2_3 1_555 1_555
H32_3 C39_3 1_555 1_555
C27_3 C30_3 1_555 1_555
C38_3 C39_3 1_555 1_555
C12_3 H4_3 1_555 1_555
Zn10_2 O24_2 1_555 1_555
O24_2 C33_3 1_555 1_555
Zn5 O2_3 1_555 1_555
Zn2_2 O5_2 1_555 1_555
O1_3 C1_3 1_555 1_555
O2_3 C1_3 1_555 1_555
O15 C8_3 1_555 1_555
O18 C8_3 1_555 1_555
O5_2 C9_2 1_555 1_555
O6_2 Zn2_2 1_555 1_555
O7_3 Zn5 1_555 1_555
O10_3 Zn2_2 1_555 1_555
O11_2 C19_2 1_555 1_555
N1_2 Zn2_2 1_555 1_555
C1_3 C2_3 1_555 1_555
C2_3 C3_2 1_555 1_555
C3_2 H1_2 1_555 1_555
C4_2 C3_2 1_555 1_555
C5_2 C4_2 1_555 1_555
H2_2 C5_2 1_555 1_555
C6_2 C5_2 1_555 1_555
C7_3 C2_3 1_555 1_555
H3_3 C7_3 1_555 1_555
C8_3 C4_2 1_555 1_555
C9_2 O6_2 1_555 1_555
C10_4 O7_3 1_555 1_555
C11_4 C10_4 1_555 1_555
C16_2 O10_3 1_555 1_555
H6_2 C16_2 1_555 1_555
H7_2 C16_2 1_555 1_555
C17_2 N1_2 1_555 1_555
H8_2 C17_2 1_555 1_555
H9_2 C17_2 1_555 1_555
C18_2 N1_2 1_555 1_555
H10_2 C18_2 1_555 1_555
H11_2 C18_2 1_555 1_555
C19_2 C18_2 1_555 1_555
H12_2 C19_2 1_555 1_555
H13_2 C19_2 1_555 1_555
C20_2 O11_2 1_555 1_555
H14_2 C20_2 1_555 1_555
H15_2 C20_2 1_555 1_555
C21_2 N1_2 1_555 1_555
H16_2 C21_2 1_555 1_555
H17_3 C21_2 1_555 1_555
O25_2 Zn2_2 1_555 1_555
C32_3 C11_4 1_555 1_555
H21_3 C32_3 1_555 1_555
C6_2 C7_3 1_555 1_555
C6_2 C9_2 1_555 1_555
C16_2 C17_2 1_555 1_555
C20_2 C21_2 1_555 1_555
C31_3 C32_3 1_555 1_555
C11_5 C10_5 1_555 1_555
C14_3 C11_5 1_555 1_555
H5_3 C14_3 1_555 1_555
Zn7 O13_3 1_555 1_555
O12_3 C22_3 1_555 1_555
O13_3 C22_3 1_555 1_555
O22_3 C10_5 1_555 1_555
C22_3 C23_3 1_555 1_555
C28_3 C23_3 1_555 1_555
H20_3 C28_3 1_555 1_555
C34_2 O27_3 1_555 1_555
H22_2 C34_2 1_555 1_555
H23_2 C34_2 1_555 1_555
C13_3 C14_3 1_555 1_555
Zn7 O22_3 1_555 1_555
Zn5_2 O2_4 1_555 1_555
O1_4 C1_4 1_555 1_555
O2_4 C1_4 1_555 1_555
O7_4 Zn5_2 1_555 1_555
O8_4 C15_2 1_555 1_555
O25_2 C15_2 1_555 1_555
C1_4 C2_4 1_555 1_555
C7_4 C2_4 1_555 1_555
H3_4 C7_4 1_555 1_555
C10_6 O7_4 1_555 1_555
C11_6 C10_6 1_555 1_555
C12_4 H4_4 1_555 1_555
C13_4 C12_4 1_555 1_555
C14_4 C11_6 1_555 1_555
H5_4 C14_4 1_555 1_555
C15_2 C13_4 1_555 1_555
Zn7_2 O13_4 1_555 1_555
Zn10_2 O20_4 1_555 1_555
O12_4 C22_4 1_555 1_555
O13_4 C22_4 1_555 1_555
O20_4 C30_4 1_555 1_555
O21_4 Zn10_2 1_555 1_555
O22_4 C10_6 1_555 1_555
O23_4 C33_4 1_555 1_555
O26_2 C33_4 1_555 1_555
O27_4 Zn10_2 1_555 1_555
O28_4 C37_4 1_555 1_555
N2_4 Zn10_2 1_555 1_555
C22_4 C23_4 1_555 1_555
C23_4 C24_4 1_555 1_555
C24_4 H18_4 1_555 1_555
C25_4 C24_4 1_555 1_555
C26_4 C25_4 1_555 1_555
H19_4 C26_4 1_555 1_555
C27_4 C26_4 1_555 1_555
C28_4 C23_4 1_555 1_555
H20_4 C28_4 1_555 1_555
C30_4 O21_4 1_555 1_555
C31_4 C12_4 1_555 1_555
C32_4 C11_6 1_555 1_555
H21_4 C32_4 1_555 1_555
C33_4 C31_4 1_555 1_555
C36_4 N2_4 1_555 1_555
H26_4 C36_4 1_555 1_555
H27_4 C36_4 1_555 1_555
C37_4 C36_4 1_555 1_555
H28_4 C37_4 1_555 1_555
H29_4 C37_4 1_555 1_555
C38_4 O28_4 1_555 1_555
H30_4 C38_4 1_555 1_555
H31_4 C38_4 1_555 1_555
C39_4 N2_4 1_555 1_555
H32_4 C39_4 1_555 1_555
H33_4 C39_4 1_555 1_555
C13_4 C14_4 1_555 1_555
Zn7_2 O22_4 1_555 1_555
C27_4 C28_4 1_555 1_555
C27_4 C30_4 1_555 1_555
C31_4 C32_4 1_555 1_555
C38_4 C39_4 1_555 1_555
O16_2 C29_4 1_555 1_555
O19_2 C29_4 1_555 1_555
O15_2 C8_4 1_555 1_555
O18_2 C8_4 1_555 1_555
O9 C15_3 1_555 1_555
C12_5 H4_5 1_555 1_555
Zn9 O9 1_555 1_555
Zn9 O5_3 1_555 1_555
O5_3 C9_3 1_555 1_555
O6_3 Zn9 1_555 1_555
O11_3 C19_3 1_555 1_555
N1_3 Zn9 1_555 1_555
C3_3 H1_3 1_555 1_555
C4_3 C3_3 1_555 1_555
C5_3 C4_3 1_555 1_555
H2_3 C5_3 1_555 1_555
C6_3 C5_3 1_555 1_555
C9_3 O6_3 1_555 1_555
C18_3 N1_3 1_555 1_555
H10_3 C18_3 1_555 1_555
H11_3 C18_3 1_555 1_555
C19_3 C18_3 1_555 1_555
H12_3 C19_3 1_555 1_555
H13_3 C19_3 1_555 1_555
C20_3 O11_3 1_555 1_555
H14_3 C20_3 1_555 1_555
H15_3 C20_3 1_555 1_555
C21_3 N1_3 1_555 1_555
H16_3 C21_3 1_555 1_555
C6_3 C9_3 1_555 1_555
C20_3 C21_3 1_555 1_555
H8_3 C17_3 1_555 1_555
H9_3 C17_3 1_555 1_555
H22_3 C34_3 1_555 1_555
H23_3 C34_3 1_555 1_555
H24_3 C35_3 1_555 1_555
H25_3 C35_3 1_555 1_555
C34_3 C35_3 1_555 1_555
H6_3 C16_3 1_555 1_555
H7_3 C16_3 1_555 1_555
O9_2 C15_4 1_555 1_555
C12_6 H4_6 1_555 1_555
Zn9_2 O9_2 1_555 1_555
Zn9_2 O5_4 1_555 1_555
O5_4 C9_4 1_555 1_555
O6_4 Zn9_2 1_555 1_555
O11_4 C19_4 1_555 1_555
N1_4 Zn9_2 1_555 1_555
C3_4 H1_4 1_555 1_555
C4_4 C3_4 1_555 1_555
C5_4 C4_4 1_555 1_555
H2_4 C5_4 1_555 1_555
C6_4 C5_4 1_555 1_555
C9_4 O6_4 1_555 1_555
C18_4 N1_4 1_555 1_555
H10_4 C18_4 1_555 1_555
H11_4 C18_4 1_555 1_555
C19_4 C18_4 1_555 1_555
H12_4 C19_4 1_555 1_555
H13_4 C19_4 1_555 1_555
C20_4 O11_4 1_555 1_555
H14_4 C20_4 1_555 1_555
H15_4 C20_4 1_555 1_555
C21_4 N1_4 1_555 1_555
H16_4 C21_4 1_555 1_555
C6_4 C9_4 1_555 1_555
C20_4 C21_4 1_555 1_555
H6_4 C16_4 1_555 1_555
H7_4 C16_4 1_555 1_555
H22_4 C34_4 1_555 1_555
H23_4 C34_4 1_555 1_555
H24_4 C35_4 1_555 1_555
H25_4 C35_4 1_555 1_555
C34_4 C35_4 1_555 1_555
H8_4 C17_4 1_555 1_555
H9_4 C17_4 1_555 1_555

#END
