
###############################################################################
#
# This file contains modified crystal structure data generated from the
# MOF subset of the Cambridge Structural Database (CSD) v543 
# hosted by the Cambridge Crystallographic Data Centre (CCDC).
#
# This work is licensed under the Creative Commons
# Attribution-NonCommercial-ShareAlike 4.0 International License.
# To view a copy of this license, visit
# http://creativecommons.org/licenses/by-nc-sa/4.0/
# or send a letter to
# Creative Commons, PO Box 1866, Mountain View, CA 94042, USA.
#
# CIF created using the CSD Python API on 29 September 2022
# The structure has been converted into the P1 space group
# The structure has a 3D framework
# The original CSD entry PEJPEB is in the rhombohedral crystal system
# The framework has been calculated to contain at least 10.0% void space
# The void calculation uses a probe of radius 1.32A, grid spacing 0.4
# H atom positions have been added when not included in the experimental data
#
###############################################################################

data_PEJPEB
_chemical_formula_moiety         '(C666 H666 N54 O360 Zn50)n'
_symmetry_cell_setting           triclinic
_symmetry_space_group_name_H-M   'P 1'
_symmetry_Int_Tables_number      1
_space_group_name_Hall           'P 1'
loop_
_symmetry_equiv_pos_site_id
_symmetry_equiv_pos_as_xyz
1 x,y,z
_cell_length_a                   43.8139(8)
_cell_length_b                   43.8139(8)
_cell_length_c                   17.2006(3)
_cell_angle_alpha                90
_cell_angle_beta                 90
_cell_angle_gamma                120
_cell_volume                     28595.5
loop_
_atom_site_label
_atom_site_type_symbol
_atom_site_fract_x
_atom_site_fract_y
_atom_site_fract_z
Zn1 Zn 0.49428(2) 0.17553(2) 0.17631(4)
Zn3 Zn 0.66948(2) 0.077890(19) 0.06903(4)
O1 O 0.53575(14) 0.17065(15) 0.1835(3)
O2 O 0.54411(16) 0.15570(17) 0.0646(3)
O3 O 0.62284(15) 0.10610(15) 0.0262(3)
O4 O 0.64124(13) 0.09131(13) 0.1334(2)
O5 O 0.63767(14) 0.14264(13) 0.3856(3)
O6 O 0.62674(16) 0.18549(15) 0.3891(3)
O7 O 0.46486(14) 0.11453(14) 0.0283(3)
O8 O 0.45410(14) 0.13033(16) 0.1421(3)
O9 O 0.29470(12) 0.01201(13) 0.1860(3)
O10 O 0.33217(12) 0.06266(14) 0.2441(3)
O14 O 0.49089(16) 0.20818(15) 0.1058(3)
O17 O 0.41832(12) 0.29658(13) 0.0190(2)
O18 O 0.42469(17) 0.27168(16) 0.1255(3)
C1 C 0.55016(19) 0.15970(19) 0.1371(4)
C2 C 0.57723(17) 0.15133(18) 0.1661(3)
C3 C 0.58944(18) 0.13461(17) 0.1196(4)
H1 H 0.5821 0.1298 0.0681
C4 C 0.61278(17) 0.12470(17) 0.1489(3)
C5 C 0.62425(18) 0.13282(18) 0.2256(4)
H2 H 0.6391 0.1254 0.2460
C6 C 0.61351(18) 0.15213(18) 0.2727(4)
C7 C 0.58940(18) 0.16065(18) 0.2424(3)
H3 H 0.5813 0.1726 0.2730
C8 C 0.62670(19) 0.10647(19) 0.0972(4)
C9 C 0.6267(2) 0.16077(19) 0.3529(4)
C10 C 0.44650(17) 0.10951(19) 0.0861(4)
C11 C 0.41253(17) 0.07502(18) 0.0929(4)
C12 C 0.38655(18) 0.07190(19) 0.1429(4)
H4 H 0.3908 0.0908 0.1747
C13 C 0.35446(17) 0.04128(18) 0.1465(4)
C14 C 0.34925(17) 0.01192(17) 0.1028(4)
C15 C 0.37581(18) 0.01437(18) 0.0545(4)
C16 C 0.40733(18) 0.04685(18) 0.0487(4)
H6 H 0.4248 0.0492 0.0145
C17 C 0.32571(18) 0.03906(19) 0.1977(4)
C19 C 0.49260(19) 0.21048(19) 0.0333(4)
C21 C 0.46201(17) 0.24585(18) 0.0400(4)
H7 H 0.4574 0.2398 0.0922
C22 C 0.44982(19) 0.26557(18) 0.0070(4)
C27 C 0.42903(18) 0.27891(19) 0.0555(4)
Zn4 Zn 0.65208(3) 0.16095(2) 0.49036(4)
Zn6 Zn 0.258257(28) 0.00281(2) 0.26430(4)
Zn8 Zn 0.408410(28) 0.33052(2) 0.06903(4)
O19 O 0.47597(13) 0.17164(19) 0.2811(3)
O20 O 0.67868(13) 0.05064(18) 0.1473(3)
O23 O 0.70342(13) 0.12174(18) 0.0190(2)
Zn2 Zn 0.50945(2) 0.15504(2) 0.99537(4)
O13 O 0.50435(14) 0.19664(14) 0.9889(3)
O15 O 0.5114(3) 0.2766(3) 0.7724(4)
O16 O 0.47476(14) 0.29590(13) 0.7766(2)
C20 C 0.48121(19) 0.23452(19) 0.9977(4)
C23 C 0.4773(2) 0.2658(2) 0.8871(4)
C24 C 0.45790(19) 0.2764(2) 0.9305(4)
H8 H 0.4502 0.2907 0.9084
C25 C 0.4897(2) 0.2454(2) 0.9202(4)
H9 H 0.5035 0.2388 0.8914
C26 C 0.4886(2) 0.2802(2) 0.8052(4)
Zn5 Zn 0.48837(2) 0.31226(3) 0.67130(4)
O21 O 0.65758(12) 0.04524(12) 0.9808(3)
O22 O 0.51219(19) 0.14143(14) 0.8901(2)
O12 O 0.34242(12) 0.95476(12) 0.0192(3)
H5 H 0.3280 0.9908 0.1062
C18 C 0.37099(18) 0.98276(18) 0.0092(4)
O11 O 0.39423(14) 0.98560(13) 0.9645(3)
Zn7 Zn 0.33052(2) 0.922110(19) 0.93097(4)
O12_2 O 0.04524(12) 0.38766(17) 0.0192(3)
H5_2 H 0.0092 0.3372 0.1062
C18_2 C 0.01724(18) 0.38823(25) 0.0092(4)
O11_2 O 0.01440(13) 0.40863(19) 0.9645(3)
Zn7_2 Zn 0.077890(19) 0.408410(28) 0.93097(4)
Zn1_2 Zn 0.82447(2) 0.31875(3) 0.17631(4)
Zn3_2 Zn 0.922110(19) 0.591590(28) 0.06903(4)
O1_2 O 0.82935(15) 0.36510(21) 0.1835(3)
O2_2 O 0.84430(17) 0.38841(23) 0.0646(3)
O3_2 O 0.89390(15) 0.51674(21) 0.0262(3)
O4_2 O 0.90869(13) 0.54993(18) 0.1334(2)
O5_2 O 0.85736(13) 0.49503(19) 0.3856(3)
O6_2 O 0.81451(15) 0.44125(22) 0.3891(3)
O7_2 O 0.88547(14) 0.35033(20) 0.0283(3)
O8_2 O 0.86967(16) 0.32377(21) 0.1421(3)
O9_2 O 0.98799(13) 0.28269(18) 0.1860(3)
O10_2 O 0.93734(14) 0.26951(18) 0.2441(3)
O14_2 O 0.79182(15) 0.28271(22) 0.1058(3)
O18_2 O 0.72832(16) 0.15301(23) 0.1255(3)
C1_2 C 0.84030(19) 0.39046(27) 0.1371(4)
C2_2 C 0.84867(18) 0.42590(25) 0.1661(3)
C3_2 C 0.86539(17) 0.45483(25) 0.1196(4)
H1_2 H 0.8702 0.4523 0.0681
C4_2 C 0.87530(17) 0.48808(24) 0.1489(3)
C5_2 C 0.86718(18) 0.49143(25) 0.2256(4)
H2_2 H 0.8746 0.5137 0.2460
C6_2 C 0.84787(18) 0.46138(25) 0.2727(4)
C7_2 C 0.83935(18) 0.42875(25) 0.2424(3)
H3_2 H 0.8274 0.4087 0.2730
C8_2 C 0.89353(19) 0.52023(27) 0.0972(4)
C9_2 C 0.83923(19) 0.46593(28) 0.3529(4)
C10_2 C 0.89049(19) 0.33699(25) 0.0861(4)
C11_2 C 0.92498(18) 0.33751(25) 0.0929(4)
C12_2 C 0.92810(19) 0.31465(26) 0.1429(4)
H4_2 H 0.9092 0.3000 0.1747
C13_2 C 0.95872(18) 0.31318(25) 0.1465(4)
C14_2 C 0.98808(17) 0.33733(24) 0.1028(4)
C15_2 C 0.98563(18) 0.36144(25) 0.0545(4)
C16_2 C 0.95315(18) 0.36048(25) 0.0487(4)
H6_2 H 0.9508 0.3756 0.0145
C17_2 C 0.96094(19) 0.28665(26) 0.1977(4)
C19_2 C 0.78952(19) 0.28212(27) 0.0333(4)
C21_2 C 0.75415(18) 0.21616(25) 0.0400(4)
H7_2 H 0.7602 0.2176 0.0922
C22_2 C 0.73443(18) 0.18425(26) 0.0070(4)
C27_2 C 0.72109(19) 0.15012(26) 0.0555(4)
Zn4_2 Zn 0.83905(2) 0.49114(4) 0.49036(4)
Zn6_2 Zn 0.99719(2) 0.255443(34) 0.26430(4)
O19_2 O 0.82836(19) 0.30434(23) 0.2811(3)
O20_2 O 0.94936(18) 0.62803(22) 0.1473(3)
O23_2 O 0.87826(18) 0.58168(22) 0.0190(2)
Zn2_2 Zn 0.84496(2) 0.35441(3) 0.99537(4)
O13_2 O 0.80336(14) 0.30771(20) 0.9889(3)
O15_2 O 0.7234(3) 0.2348(4) 0.7724(4)
O16_2 O 0.70410(13) 0.17886(19) 0.7766(2)
C20_2 C 0.76548(19) 0.24669(27) 0.9977(4)
C23_2 C 0.7342(2) 0.2115(3) 0.8871(4)
C24_2 C 0.7236(2) 0.18150(28) 0.9305(4)
H8_2 H 0.7093 0.1595 0.9084
C25_2 C 0.7546(2) 0.2443(3) 0.9202(4)
H9_2 H 0.7612 0.2647 0.8914
C26_2 C 0.7198(2) 0.2084(3) 0.8052(4)
Zn5_2 Zn 0.68774(3) 0.17612(4) 0.67130(4)
O21_2 O 0.95476(12) 0.61234(17) 0.9808(3)
O22_2 O 0.85857(14) 0.37077(24) 0.8901(2)
Zn1_3 Zn 0.68125(3) 0.50572(2) 0.17631(4)
O1_3 O 0.63490(21) 0.46425(14) 0.1835(3)
O2_3 O 0.61159(23) 0.45589(16) 0.0646(3)
O3_3 O 0.48326(21) 0.37716(15) 0.0262(3)
O4_3 O 0.45007(18) 0.35876(13) 0.1334(2)
O5_3 O 0.50497(19) 0.36233(14) 0.3856(3)
O6_3 O 0.55875(22) 0.37326(16) 0.3891(3)
O7_3 O 0.64967(20) 0.53514(14) 0.0283(3)
O8_3 O 0.67623(21) 0.54590(14) 0.1421(3)
O9_3 O 0.71731(18) 0.70530(12) 0.1860(3)
O10_3 O 0.73049(18) 0.66783(12) 0.2441(3)
O12_3 O 0.61234(17) 0.65758(12) 0.0192(3)
O14_3 O 0.71729(22) 0.50911(16) 0.1058(3)
O18_3 O 0.84699(23) 0.57531(17) 0.1255(3)
C1_3 C 0.60954(27) 0.44984(19) 0.1371(4)
C2_3 C 0.57410(25) 0.42277(17) 0.1661(3)
C3_3 C 0.54517(25) 0.41056(18) 0.1196(4)
H1_3 H 0.5477 0.4179 0.0681
C4_3 C 0.51192(24) 0.38722(17) 0.1489(3)
C5_3 C 0.50857(25) 0.37575(18) 0.2256(4)
H2_3 H 0.4863 0.3609 0.2460
C6_3 C 0.53862(25) 0.38649(18) 0.2727(4)
C7_3 C 0.57125(25) 0.41060(18) 0.2424(3)
H3_3 H 0.5913 0.4187 0.2730
C8_3 C 0.47977(27) 0.37330(19) 0.0972(4)
C9_3 C 0.53407(28) 0.3733(2) 0.3529(4)
C10_3 C 0.66301(25) 0.55350(17) 0.0861(4)
C11_3 C 0.66249(25) 0.58747(17) 0.0929(4)
C12_3 C 0.68535(26) 0.61345(18) 0.1429(4)
H4_3 H 0.7000 0.6092 0.1747
C13_3 C 0.68682(25) 0.64554(17) 0.1465(4)
C14_3 C 0.66267(24) 0.65075(17) 0.1028(4)
H5_3 H 0.6628 0.6720 0.1062
C15_3 C 0.63856(25) 0.62419(18) 0.0545(4)
C16_3 C 0.63952(25) 0.59267(18) 0.0487(4)
H6_3 H 0.6244 0.5752 0.0145
C17_3 C 0.71335(26) 0.67429(18) 0.1977(4)
C18_3 C 0.61177(25) 0.62901(18) 0.0092(4)
C19_3 C 0.71788(27) 0.50740(19) 0.0333(4)
C21_3 C 0.78384(25) 0.53799(17) 0.0400(4)
H7_3 H 0.7824 0.5426 0.0922
C22_3 C 0.81575(26) 0.55018(19) 0.0070(4)
C27_3 C 0.84988(26) 0.57097(18) 0.0555(4)
Zn4_3 Zn 0.50886(4) 0.34792(3) 0.49036(4)
Zn6_3 Zn 0.744557(34) 0.741743(28) 0.26430(4)
O19_3 O 0.69566(23) 0.52403(13) 0.2811(3)
O20_3 O 0.37197(22) 0.32132(13) 0.1473(3)
Zn2_3 Zn 0.64559(3) 0.49055(2) 0.99537(4)
O11_3 O 0.59137(19) 0.60577(14) 0.9645(3)
O13_3 O 0.69229(20) 0.49565(14) 0.9889(3)
O15_3 O 0.7652(4) 0.4886(3) 0.7724(4)
O16_3 O 0.82114(19) 0.52524(14) 0.7766(2)
C20_3 C 0.75331(27) 0.51879(19) 0.9977(4)
C23_3 C 0.7885(3) 0.5227(2) 0.8871(4)
C24_3 C 0.81850(28) 0.54210(19) 0.9305(4)
H8_3 H 0.8405 0.5498 0.9084
C25_3 C 0.7557(3) 0.5103(2) 0.9202(4)
H9_3 H 0.7353 0.4965 0.8914
C26_3 C 0.7916(3) 0.5114(2) 0.8052(4)
Zn5_3 Zn 0.82388(4) 0.51163(2) 0.67130(4)
Zn7_3 Zn 0.591590(28) 0.66948(2) 0.93097(4)
O21_3 O 0.38766(17) 0.34242(12) 0.9808(3)
O22_3 O 0.62923(24) 0.48781(19) 0.8901(2)
Zn1_4 Zn 0.16095(2) 0.50886(2) 0.50964(4)
Zn2_4 Zn 0.17612(2) 0.48837(2) 0.32870(4)
Zn3_3 Zn 0.33615(2) 0.411223(19) 0.40236(4)
O1_4 O 0.20242(14) 0.50398(15) 0.5168(3)
O2_4 O 0.21078(16) 0.48903(17) 0.3979(3)
O3_4 O 0.28951(15) 0.43943(15) 0.3595(3)
O4_4 O 0.30791(13) 0.42464(13) 0.4667(2)
O5_4 O 0.30434(14) 0.47597(13) 0.7189(3)
O6_4 O 0.29341(16) 0.51882(15) 0.7224(3)
O7_4 O 0.13153(14) 0.44786(14) 0.3616(3)
O8_4 O 0.12077(14) 0.46366(16) 0.4754(3)
O11_4 O 0.06090(14) 0.31893(13) 0.2978(3)
O12_4 O 0.00909(12) 0.28809(12) 0.3525(3)
O13_4 O 0.17102(14) 0.52997(14) 0.3222(3)
O14_4 O 0.15756(16) 0.54151(15) 0.4391(3)
O15_4 O 0.1781(3) 0.6099(3) 0.1057(4)
O16_4 O 0.14143(14) 0.62923(13) 0.1099(2)
O17_2 O 0.08499(12) 0.62991(13) 0.3523(2)
O18_4 O 0.09136(17) 0.60501(16) 0.4588(3)
C1_4 C 0.21683(19) 0.49303(19) 0.4704(4)
C2_4 C 0.24390(17) 0.48466(18) 0.4994(3)
C3_4 C 0.25611(18) 0.46794(17) 0.4529(4)
H1_4 H 0.2488 0.4631 0.4014
C4_4 C 0.27945(17) 0.45803(17) 0.4822(3)
C5_4 C 0.29092(18) 0.46615(18) 0.5589(4)
H2_4 H 0.3058 0.4587 0.5793
C6_4 C 0.28018(18) 0.48546(18) 0.6060(4)
C7_4 C 0.25607(18) 0.49398(18) 0.5757(3)
H3_4 H 0.2480 0.5059 0.6063
C8_4 C 0.29337(19) 0.43980(19) 0.4305(4)
C9_4 C 0.2934(2) 0.49410(19) 0.6862(4)
C10_4 C 0.11317(17) 0.44284(19) 0.4194(4)
C11_4 C 0.07920(17) 0.40835(18) 0.4262(4)
C12_4 C 0.05322(18) 0.40523(19) 0.4762(4)
H4_4 H 0.0575 0.4241 0.5080
C13_4 C 0.02113(17) 0.37461(18) 0.4798(4)
C14_4 C 0.01592(17) 0.34525(17) 0.4361(4)
C15_4 C 0.04248(18) 0.34770(18) 0.3878(4)
C16_4 C 0.07400(18) 0.38018(18) 0.3820(4)
H6_4 H 0.0915 0.3825 0.3478
C18_4 C 0.03766(18) 0.31609(18) 0.3425(4)
C19_4 C 0.15927(19) 0.54381(19) 0.3666(4)
C20_4 C 0.14788(19) 0.56785(19) 0.3310(4)
C21_4 C 0.12868(17) 0.57918(18) 0.3733(4)
H7_4 H 0.1241 0.5731 0.4255
C22_4 C 0.11649(19) 0.59890(18) 0.3403(4)
C23_4 C 0.1440(2) 0.5991(2) 0.2204(4)
C24_4 C 0.12457(19) 0.6097(2) 0.2638(4)
H8_4 H 0.1169 0.6240 0.2417
C25_4 C 0.1564(2) 0.5787(2) 0.2535(4)
H9_4 H 0.1702 0.5721 0.2247
C26_4 C 0.1553(2) 0.6135(2) 0.1385(4)
C27_4 C 0.09570(18) 0.61224(19) 0.3888(4)
Zn4_4 Zn 0.31875(3) 0.49428(2) 0.82369(4)
Zn5_4 Zn 0.15504(2) 0.64559(3) 0.00463(4)
Zn8_2 Zn 0.075077(28) 0.66385(2) 0.40236(4)
O19_4 O 0.14264(13) 0.50497(19) 0.6144(3)
O20_4 O 0.34534(13) 0.38398(18) 0.4807(3)
O21_4 O 0.32425(12) 0.37857(12) 0.3141(3)
O22_4 O 0.17886(19) 0.47476(14) 0.2234(2)
O23_3 O 0.37009(13) 0.45507(18) 0.3523(2)
O9_4 O 0.96137(12) 0.34534(13) 0.5193(3)
O10_4 O 0.99884(12) 0.39599(14) 0.5774(3)
H5_4 H 0.9947 0.3241 0.4395
C17_4 C 0.99238(18) 0.37239(19) 0.5310(4)
Zn6_4 Zn 0.924923(28) 0.33615(2) 0.59764(4)
Zn1_5 Zn 0.49114(2) 0.65208(3) 0.50964(4)
Zn2_5 Zn 0.51163(2) 0.68774(3) 0.32870(4)
Zn3_4 Zn 0.588777(19) 0.924923(28) 0.40236(4)
O1_5 O 0.49602(15) 0.69843(21) 0.5168(3)
O2_5 O 0.51097(17) 0.72174(23) 0.3979(3)
O3_5 O 0.56057(15) 0.85007(21) 0.3595(3)
O4_5 O 0.57536(13) 0.88326(18) 0.4667(2)
O5_5 O 0.52403(13) 0.82836(19) 0.7189(3)
O6_5 O 0.48118(15) 0.77458(22) 0.7224(3)
O7_5 O 0.55214(14) 0.68366(20) 0.3616(3)
O8_5 O 0.53634(16) 0.65710(21) 0.4754(3)
O9_5 O 0.65466(13) 0.61602(18) 0.5193(3)
O10_5 O 0.60401(14) 0.60284(18) 0.5774(3)
O11_5 O 0.68107(13) 0.74196(19) 0.2978(3)
O12_5 O 0.71191(12) 0.72099(17) 0.3525(3)
O13_5 O 0.47003(14) 0.64104(20) 0.3222(3)
O14_5 O 0.45849(15) 0.61604(22) 0.4391(3)
O15_5 O 0.3901(3) 0.5681(4) 0.1057(4)
O16_5 O 0.37077(13) 0.51219(19) 0.1099(2)
O18_5 O 0.39499(16) 0.48634(23) 0.4588(3)
C1_5 C 0.50697(19) 0.72379(27) 0.4704(4)
C2_5 C 0.51534(18) 0.75923(25) 0.4994(3)
C3_5 C 0.53206(17) 0.78816(25) 0.4529(4)
H1_5 H 0.5369 0.7856 0.4014
C4_5 C 0.54197(17) 0.82141(24) 0.4822(3)
C5_5 C 0.53385(18) 0.82476(25) 0.5589(4)
H2_5 H 0.5413 0.8470 0.5793
C6_5 C 0.51454(18) 0.79471(25) 0.6060(4)
C7_5 C 0.50602(18) 0.76208(25) 0.5757(3)
H3_5 H 0.4941 0.7420 0.6063
C8_5 C 0.56020(19) 0.85356(27) 0.4305(4)
C9_5 C 0.50590(19) 0.79926(28) 0.6862(4)
C10_5 C 0.55716(19) 0.67032(25) 0.4194(4)
C11_5 C 0.59165(18) 0.67084(25) 0.4262(4)
C12_5 C 0.59477(19) 0.64798(26) 0.4762(4)
H4_5 H 0.5759 0.6333 0.5080
C13_5 C 0.62539(18) 0.64651(25) 0.4798(4)
C14_5 C 0.65475(17) 0.67066(24) 0.4361(4)
H5_5 H 0.6759 0.6705 0.4395
C15_5 C 0.65230(18) 0.69477(25) 0.3878(4)
C16_5 C 0.61982(18) 0.69381(25) 0.3820(4)
H6_5 H 0.6175 0.7089 0.3478
C17_5 C 0.62761(19) 0.61998(26) 0.5310(4)
C18_5 C 0.68391(18) 0.72156(25) 0.3425(4)
C19_5 C 0.45619(19) 0.61545(27) 0.3666(4)
C20_5 C 0.43215(19) 0.58002(27) 0.3310(4)
C21_5 C 0.42082(18) 0.54949(25) 0.3733(4)
H7_5 H 0.4269 0.5509 0.4255
C22_5 C 0.40110(18) 0.51758(26) 0.3403(4)
C23_5 C 0.4009(2) 0.5448(3) 0.2204(4)
C24_5 C 0.3903(2) 0.51483(28) 0.2638(4)
H8_5 H 0.3760 0.4928 0.2417
C25_5 C 0.4213(2) 0.5776(3) 0.2535(4)
H9_5 H 0.4279 0.5980 0.2247
C26_5 C 0.3865(2) 0.5417(3) 0.1385(4)
C27_5 C 0.38776(19) 0.48345(26) 0.3888(4)
Zn4_5 Zn 0.50572(2) 0.82447(4) 0.82369(4)
Zn5_5 Zn 0.35441(3) 0.50945(4) 0.00463(4)
Zn6_5 Zn 0.66385(2) 0.588777(34) 0.59764(4)
O19_5 O 0.49503(19) 0.63767(23) 0.6144(3)
O20_5 O 0.61602(18) 0.96137(22) 0.4807(3)
O21_5 O 0.62143(12) 0.94567(17) 0.3141(3)
O22_5 O 0.52524(14) 0.70410(24) 0.2234(2)
O23_4 O 0.54493(18) 0.91501(22) 0.3523(2)
O9_6 O 0.38398(18) 0.03863(12) 0.5193(3)
O10_6 O 0.39716(18) 0.00116(12) 0.5774(3)
H5_6 H 0.3295 0.0053 0.4395
C17_6 C 0.38002(26) 0.00762(18) 0.5310(4)
Zn6_6 Zn 0.411223(34) 0.075077(28) 0.59764(4)
Zn1_6 Zn 0.34792(3) 0.83905(2) 0.50964(4)
Zn2_6 Zn 0.31226(3) 0.82388(2) 0.32870(4)
O1_6 O 0.30157(21) 0.79758(14) 0.5168(3)
O2_6 O 0.27826(23) 0.78922(16) 0.3979(3)
O3_6 O 0.14993(21) 0.71049(15) 0.3595(3)
O4_6 O 0.11674(18) 0.69209(13) 0.4667(2)
O5_6 O 0.17164(19) 0.69566(14) 0.7189(3)
O6_6 O 0.22542(22) 0.70659(16) 0.7224(3)
O7_6 O 0.31634(20) 0.86847(14) 0.3616(3)
O8_6 O 0.34290(21) 0.87923(14) 0.4754(3)
O11_6 O 0.25804(19) 0.93910(14) 0.2978(3)
O12_6 O 0.27901(17) 0.99091(12) 0.3525(3)
O13_6 O 0.35896(20) 0.82898(14) 0.3222(3)
O14_6 O 0.38396(22) 0.84244(16) 0.4391(3)
O15_6 O 0.4319(4) 0.8219(3) 0.1057(4)
O16_6 O 0.48781(19) 0.85857(14) 0.1099(2)
O18_6 O 0.51366(23) 0.90864(17) 0.4588(3)
C1_6 C 0.27621(27) 0.78317(19) 0.4704(4)
C2_6 C 0.24077(25) 0.75610(17) 0.4994(3)
C3_6 C 0.21184(25) 0.74389(18) 0.4529(4)
H1_6 H 0.2144 0.7512 0.4014
C4_6 C 0.17859(24) 0.72055(17) 0.4822(3)
C5_6 C 0.17524(25) 0.70908(18) 0.5589(4)
H2_6 H 0.1530 0.6942 0.5793
C6_6 C 0.20529(25) 0.71982(18) 0.6060(4)
C7_6 C 0.23792(25) 0.74393(18) 0.5757(3)
H3_6 H 0.2580 0.7520 0.6063
C8_6 C 0.14644(27) 0.70663(19) 0.4305(4)
C9_6 C 0.20074(28) 0.7066(2) 0.6862(4)
C10_6 C 0.32968(25) 0.88683(17) 0.4194(4)
C11_6 C 0.32916(25) 0.92080(17) 0.4262(4)
C12_6 C 0.35202(26) 0.94678(18) 0.4762(4)
H4_6 H 0.3667 0.9425 0.5080
C13_6 C 0.35349(25) 0.97887(17) 0.4798(4)
C14_6 C 0.32934(24) 0.98408(17) 0.4361(4)
C15_6 C 0.30523(25) 0.95752(18) 0.3878(4)
C16_6 C 0.30619(25) 0.92600(18) 0.3820(4)
H6_6 H 0.2911 0.9085 0.3478
C18_6 C 0.27844(25) 0.96234(18) 0.3425(4)
C19_6 C 0.38455(27) 0.84073(19) 0.3666(4)
C20_6 C 0.41998(27) 0.85212(19) 0.3310(4)
C21_6 C 0.45051(25) 0.87132(17) 0.3733(4)
H7_6 H 0.4491 0.8759 0.4255
C22_6 C 0.48242(26) 0.88351(19) 0.3403(4)
C23_6 C 0.4552(3) 0.8560(2) 0.2204(4)
C24_6 C 0.48517(28) 0.87543(19) 0.2638(4)
H8_6 H 0.5072 0.8831 0.2417
C25_6 C 0.4224(3) 0.8436(2) 0.2535(4)
H9_6 H 0.4020 0.8298 0.2247
C26_6 C 0.4583(3) 0.8447(2) 0.1385(4)
C27_6 C 0.51655(26) 0.90430(18) 0.3888(4)
Zn4_6 Zn 0.17553(4) 0.68125(3) 0.82369(4)
Zn5_6 Zn 0.49055(4) 0.84496(2) 0.00463(4)
O19_6 O 0.36233(23) 0.85736(13) 0.6144(3)
O20_6 O 0.03863(22) 0.65466(13) 0.4807(3)
O21_6 O 0.05433(17) 0.67575(12) 0.3141(3)
O22_6 O 0.29590(24) 0.82114(19) 0.2234(2)
Zn3_5 Zn 0.00281(2) 0.744557(19) 0.73570(4)
O20_7 O 0.01201(13) 0.71731(18) 0.8140(3)
O23_5 O 0.03675(13) 0.78841(18) 0.6857(2)
O5_7 O 0.97100(14) 0.80931(13) 0.0523(3)
O6_7 O 0.96007(16) 0.85216(15) 0.0558(3)
C9_7 C 0.9600(2) 0.82744(19) 0.0196(4)
Zn4_7 Zn 0.98542(3) 0.82761(2) 0.15702(4)
Zn1_7 Zn 0.82761(2) 0.84220(2) 0.84298(4)
Zn2_7 Zn 0.84278(2) 0.82171(2) 0.66204(4)
O1_7 O 0.86908(14) 0.83732(15) 0.8502(3)
O2_7 O 0.87744(16) 0.82237(17) 0.7313(3)
O3_7 O 0.95617(15) 0.77277(15) 0.6929(3)
O4_7 O 0.97457(13) 0.75798(13) 0.8001(2)
O7_7 O 0.79819(14) 0.78120(14) 0.6950(3)
O8_7 O 0.78743(14) 0.79700(16) 0.8088(3)
O9_7 O 0.62803(12) 0.67868(13) 0.8527(3)
O10_7 O 0.66550(12) 0.72933(14) 0.9108(3)
O11_7 O 0.72756(14) 0.65227(13) 0.6312(3)
O12_7 O 0.67575(12) 0.62143(12) 0.6859(3)
O13_7 O 0.83768(14) 0.86331(14) 0.6556(3)
O14_7 O 0.82422(16) 0.87485(15) 0.7725(3)
O15_7 O 0.8447(3) 0.9433(3) 0.4391(4)
O16_7 O 0.80809(14) 0.96257(13) 0.4433(2)
O17_3 O 0.75165(12) 0.96325(13) 0.6857(2)
O18_7 O 0.75802(17) 0.93835(16) 0.7922(3)
C1_7 C 0.88349(19) 0.82637(19) 0.8038(4)
C2_7 C 0.91056(17) 0.81800(18) 0.8328(3)
C3_7 C 0.92277(18) 0.80128(17) 0.7863(4)
H1_7 H 0.9154 0.7965 0.7348
C4_7 C 0.94611(17) 0.79137(17) 0.8156(3)
C5_7 C 0.95758(18) 0.79949(18) 0.8923(4)
H2_7 H 0.9724 0.7921 0.9127
C6_7 C 0.94684(18) 0.81880(18) 0.9394(4)
C7_7 C 0.92273(18) 0.82732(18) 0.9091(3)
H3_7 H 0.9146 0.8393 0.9397
C8_7 C 0.96003(19) 0.77314(19) 0.7639(4)
C10_7 C 0.77983(17) 0.77618(19) 0.7528(4)
C11_7 C 0.74586(17) 0.74169(18) 0.7596(4)
C12_7 C 0.71988(18) 0.73857(19) 0.8096(4)
H4_7 H 0.7241 0.7575 0.8414
C13_7 C 0.68779(17) 0.70795(18) 0.8132(4)
C14_7 C 0.68258(17) 0.67859(17) 0.7695(4)
H5_7 H 0.6613 0.6575 0.7729
C15_7 C 0.70914(18) 0.68104(18) 0.7212(4)
C16_7 C 0.74066(18) 0.71352(18) 0.7154(4)
H6_7 H 0.7581 0.7159 0.6812
C17_7 C 0.65904(18) 0.70573(19) 0.8644(4)
C18_7 C 0.70432(18) 0.64943(18) 0.6759(4)
C19_7 C 0.82593(19) 0.87715(19) 0.7000(4)
C20_7 C 0.81454(19) 0.90119(19) 0.6644(4)
C21_7 C 0.79534(17) 0.91252(18) 0.7067(4)
H7_7 H 0.7907 0.9065 0.7589
C22_7 C 0.78315(19) 0.93224(18) 0.6737(4)
C23_7 C 0.8106(2) 0.9325(2) 0.5538(4)
C24_7 C 0.79123(19) 0.9431(2) 0.5972(4)
H8_7 H 0.7835 0.9574 0.5751
C25_7 C 0.8230(2) 0.9121(2) 0.5869(4)
H9_7 H 0.8368 0.9055 0.5581
C26_7 C 0.8219(2) 0.9469(2) 0.4719(4)
C27_7 C 0.76236(18) 0.94558(19) 0.7222(4)
Zn5_7 Zn 0.82171(2) 0.97892(3) 0.33796(4)
Zn8_3 Zn 0.741743(28) 0.99719(2) 0.73570(4)
O19_7 O 0.80931(13) 0.83830(19) 0.9477(3)
O21_7 O 0.99091(12) 0.71191(12) 0.6475(3)
O22_7 O 0.84553(19) 0.80809(14) 0.5567(2)
O5_8 O 0.19069(13) 0.16170(19) 0.0523(3)
O6_8 O 0.14784(15) 0.10792(22) 0.0558(3)
C9_8 C 0.17256(19) 0.13260(28) 0.0196(4)
Zn4_8 Zn 0.17239(2) 0.15780(4) 0.15702(4)
Zn2_8 Zn 0.17829(2) 0.02108(3) 0.66204(4)
Zn3_6 Zn 0.255443(19) 0.258257(28) 0.73570(4)
O1_8 O 0.16268(15) 0.03177(21) 0.8502(3)
O2_8 O 0.17763(17) 0.05508(23) 0.7313(3)
O3_8 O 0.22723(15) 0.18341(21) 0.6929(3)
O4_8 O 0.24202(13) 0.21660(18) 0.8001(2)
O7_8 O 0.21880(14) 0.01700(20) 0.6950(3)
O11_8 O 0.34773(13) 0.07530(19) 0.6312(3)
O12_8 O 0.37857(12) 0.05433(17) 0.6859(3)
C1_8 C 0.17363(19) 0.05713(27) 0.8038(4)
C2_8 C 0.18200(18) 0.09257(25) 0.8328(3)
C3_8 C 0.19872(17) 0.12150(25) 0.7863(4)
H1_8 H 0.2035 0.1190 0.7348
C4_8 C 0.20863(17) 0.15475(24) 0.8156(3)
C5_8 C 0.20051(18) 0.15810(25) 0.8923(4)
H2_8 H 0.2079 0.1804 0.9127
C6_8 C 0.18120(18) 0.12805(25) 0.9394(4)
C7_8 C 0.17268(18) 0.09542(25) 0.9091(3)
H3_8 H 0.1607 0.0754 0.9397
C8_8 C 0.22686(19) 0.18690(27) 0.7639(4)
C10_8 C 0.22382(19) 0.00366(25) 0.7528(4)
C11_8 C 0.25831(18) 0.00418(25) 0.7596(4)
C14_8 C 0.32141(17) 0.00400(24) 0.7695(4)
H5_8 H 0.3425 0.0039 0.7729
C15_8 C 0.31896(18) 0.02811(25) 0.7212(4)
C16_8 C 0.28648(18) 0.02715(25) 0.7154(4)
H6_8 H 0.2841 0.0423 0.6812
C18_8 C 0.35057(18) 0.05490(25) 0.6759(4)
O20_8 O 0.28269(18) 0.29470(22) 0.8140(3)
O21_8 O 0.28809(12) 0.27901(17) 0.6475(3)
O22_8 O 0.19191(14) 0.03743(24) 0.5567(2)
O23_6 O 0.21159(18) 0.24835(22) 0.6857(2)
Zn1_8 Zn 0.15780(2) 0.98542(3) 0.84298(4)
O8_8 O 0.20300(16) 0.99044(21) 0.8088(3)
O9_8 O 0.32132(13) 0.94936(18) 0.8527(3)
O10_8 O 0.27067(14) 0.93618(18) 0.9108(3)
O13_8 O 0.13669(14) 0.97438(20) 0.6556(3)
O14_8 O 0.12515(15) 0.94938(22) 0.7725(3)
O15_8 O 0.0567(3) 0.9015(4) 0.4391(4)
O16_8 O 0.03743(13) 0.84553(19) 0.4433(2)
O18_8 O 0.06165(16) 0.81968(23) 0.7922(3)
C12_8 C 0.26143(19) 0.98132(26) 0.8096(4)
H4_8 H 0.2425 0.9667 0.8414
C13_8 C 0.29205(18) 0.97985(25) 0.8132(4)
C17_8 C 0.29427(19) 0.95332(26) 0.8644(4)
C19_8 C 0.12285(19) 0.94879(27) 0.7000(4)
C20_8 C 0.09881(19) 0.91336(27) 0.6644(4)
C21_8 C 0.08748(18) 0.88283(25) 0.7067(4)
H7_8 H 0.0935 0.8843 0.7589
C22_8 C 0.06776(18) 0.85092(26) 0.6737(4)
C23_8 C 0.0675(2) 0.8782(3) 0.5538(4)
C24_8 C 0.0569(2) 0.84817(28) 0.5972(4)
H8_8 H 0.0426 0.8262 0.5751
C25_8 C 0.0879(2) 0.9110(3) 0.5869(4)
H9_8 H 0.0945 0.9314 0.5581
C26_8 C 0.0531(2) 0.8751(3) 0.4719(4)
C27_8 C 0.05442(19) 0.81679(26) 0.7222(4)
Zn5_8 Zn 0.02108(3) 0.84278(4) 0.33796(4)
O19_8 O 0.16170(19) 0.97100(23) 0.9477(3)
Zn1_9 Zn 0.01458(3) 0.17239(2) 0.84298(4)
O8_9 O 0.00956(21) 0.21257(14) 0.8088(3)
O9_9 O 0.05064(18) 0.37197(12) 0.8527(3)
O10_9 O 0.06382(18) 0.33450(12) 0.9108(3)
O13_9 O 0.02562(20) 0.16232(14) 0.6556(3)
O14_9 O 0.05062(22) 0.17578(16) 0.7725(3)
O15_9 O 0.0985(4) 0.1553(3) 0.4391(4)
O16_9 O 0.15447(19) 0.19191(14) 0.4433(2)
O18_9 O 0.18032(23) 0.24198(17) 0.7922(3)
C12_9 C 0.01868(26) 0.28012(18) 0.8096(4)
H4_9 H 0.0333 0.2759 0.8414
C13_9 C 0.02015(25) 0.31221(17) 0.8132(4)
C17_9 C 0.04668(26) 0.34096(18) 0.8644(4)
C19_9 C 0.05121(27) 0.17407(19) 0.7000(4)
C20_9 C 0.08664(27) 0.18546(19) 0.6644(4)
C21_9 C 0.11717(25) 0.20466(17) 0.7067(4)
H7_9 H 0.1157 0.2093 0.7589
C22_9 C 0.14908(26) 0.21685(19) 0.6737(4)
C23_9 C 0.1218(3) 0.1894(2) 0.5538(4)
C24_9 C 0.15183(28) 0.20877(19) 0.5972(4)
H8_9 H 0.1738 0.2165 0.5751
C25_9 C 0.0890(3) 0.1770(2) 0.5869(4)
H9_9 H 0.0686 0.1632 0.5581
C26_9 C 0.1249(3) 0.1781(2) 0.4719(4)
C27_9 C 0.18321(26) 0.23764(18) 0.7222(4)
Zn5_9 Zn 0.15722(4) 0.17829(2) 0.33796(4)
O19_9 O 0.02900(23) 0.19069(13) 0.9477(3)
O5_9 O 0.83830(19) 0.02900(14) 0.0523(3)
O6_9 O 0.89208(22) 0.03993(16) 0.0558(3)
C9_9 C 0.86740(28) 0.0400(2) 0.0196(4)
Zn4_9 Zn 0.84220(4) 0.01458(3) 0.15702(4)
Zn2_9 Zn 0.97892(3) 0.15722(2) 0.66204(4)
O1_9 O 0.96823(21) 0.13092(14) 0.8502(3)
O2_9 O 0.94492(23) 0.12256(16) 0.7313(3)
O3_9 O 0.81659(21) 0.04383(15) 0.6929(3)
O4_9 O 0.78340(18) 0.02543(13) 0.8001(2)
O7_9 O 0.98300(20) 0.20181(14) 0.6950(3)
O11_9 O 0.92470(19) 0.27244(14) 0.6312(3)
O12_9 O 0.94567(17) 0.32425(12) 0.6859(3)
C1_9 C 0.94287(27) 0.11651(19) 0.8038(4)
C2_9 C 0.90743(25) 0.08944(17) 0.8328(3)
C3_9 C 0.87850(25) 0.07723(18) 0.7863(4)
H1_9 H 0.8810 0.0846 0.7348
C4_9 C 0.84525(24) 0.05389(17) 0.8156(3)
C5_9 C 0.84190(25) 0.04242(18) 0.8923(4)
H2_9 H 0.8196 0.0276 0.9127
C6_9 C 0.87195(25) 0.05316(18) 0.9394(4)
C7_9 C 0.90458(25) 0.07727(18) 0.9091(3)
H3_9 H 0.9246 0.0854 0.9397
C8_9 C 0.81310(27) 0.03997(19) 0.7639(4)
C10_9 C 0.99634(25) 0.22017(17) 0.7528(4)
C11_9 C 0.99582(25) 0.25414(17) 0.7596(4)
C14_9 C 0.99600(24) 0.31742(17) 0.7695(4)
H5_9 H 0.9961 0.3387 0.7729
C15_9 C 0.97189(25) 0.29086(18) 0.7212(4)
C16_9 C 0.97285(25) 0.25934(18) 0.7154(4)
H6_9 H 0.9577 0.2419 0.6812
C18_9 C 0.94510(25) 0.29568(18) 0.6759(4)
O21_9 O 0.72099(17) 0.00909(12) 0.6475(3)
O22_9 O 0.96257(24) 0.15447(19) 0.5567(2)
O20_9 O 0.70530(22) 0.98799(13) 0.8140(3)
O11_10 O 0.60577(14) 0.01440(13) 0.0355(3)
H5_10 H 0.6720 0.0092 0.8938
C18_10 C 0.62901(18) 0.01724(18) 0.9908(4)
O13_10 O 0.49565(14) 0.80336(14) 0.0111(3)
O15_10 O 0.4886(3) 0.7234(3) 0.2276(4)
C20_10 C 0.51879(19) 0.76548(19) 0.0023(4)
C23_10 C 0.5227(2) 0.7342(2) 0.1129(4)
C24_10 C 0.54210(19) 0.7236(2) 0.0695(4)
H8_10 H 0.5498 0.7093 0.0916
C25_10 C 0.5103(2) 0.7546(2) 0.0798(4)
H9_10 H 0.4965 0.7612 0.1086
C26_10 C 0.5114(2) 0.7198(2) 0.1948(4)
O1_10 O 0.46425(14) 0.82935(15) 0.8165(3)
O2_10 O 0.45589(16) 0.84430(17) 0.9354(3)
O3_10 O 0.37716(15) 0.89390(15) 0.9738(3)
O4_10 O 0.35876(13) 0.90869(13) 0.8666(2)
O6_10 O 0.37326(16) 0.81451(15) 0.6109(3)
O7_10 O 0.53514(14) 0.88547(14) 0.9717(3)
O8_10 O 0.54590(14) 0.86967(16) 0.8579(3)
O10_10 O 0.66783(12) 0.93734(14) 0.7559(3)
O14_10 O 0.50911(16) 0.79182(15) 0.8942(3)
O17_4 O 0.58168(12) 0.70342(13) 0.9810(2)
O18_10 O 0.57531(17) 0.72832(16) 0.8745(3)
C1_10 C 0.44984(19) 0.84030(19) 0.8629(4)
C2_10 C 0.42277(17) 0.84867(18) 0.8339(3)
C3_10 C 0.41056(18) 0.86539(17) 0.8804(4)
H1_10 H 0.4179 0.8702 0.9319
C4_10 C 0.38722(17) 0.87530(17) 0.8511(3)
C5_10 C 0.37575(18) 0.86718(18) 0.7744(4)
H2_10 H 0.3609 0.8746 0.7540
C6_10 C 0.38649(18) 0.84787(18) 0.7273(4)
C7_10 C 0.41060(18) 0.83935(18) 0.7576(3)
H3_10 H 0.4187 0.8274 0.7270
C8_10 C 0.37330(19) 0.89353(19) 0.9028(4)
C9_10 C 0.3733(2) 0.83923(19) 0.6471(4)
C10_10 C 0.55350(17) 0.89049(19) 0.9139(4)
C11_10 C 0.58747(17) 0.92498(18) 0.9071(4)
C12_10 C 0.61345(18) 0.92810(19) 0.8571(4)
H4_10 H 0.6092 0.9092 0.8253
C13_10 C 0.64554(17) 0.95872(18) 0.8535(4)
C14_10 C 0.65075(17) 0.98808(17) 0.8972(4)
C15_10 C 0.62419(18) 0.98563(18) 0.9455(4)
C16_10 C 0.59267(18) 0.95315(18) 0.9513(4)
H6_10 H 0.5752 0.9508 0.9855
C17_10 C 0.67429(18) 0.96094(19) 0.8023(4)
C19_10 C 0.50740(19) 0.78952(19) 0.9667(4)
C21_10 C 0.53799(17) 0.75415(18) 0.9600(4)
H7_10 H 0.5426 0.7602 0.9078
C22_10 C 0.55018(19) 0.73443(18) 0.9930(4)
C27_10 C 0.57097(18) 0.72109(19) 0.9445(4)
O23_7 O 0.29658(13) 0.87826(18) 0.9810(2)
O13_11 O 0.19664(14) 0.69229(20) 0.0111(3)
O15_11 O 0.2766(3) 0.7652(4) 0.2276(4)
C20_11 C 0.23452(19) 0.75331(27) 0.0023(4)
C23_11 C 0.2658(2) 0.7885(3) 0.1129(4)
C24_11 C 0.2764(2) 0.81850(28) 0.0695(4)
H8_11 H 0.2907 0.8405 0.0916
C25_11 C 0.2454(2) 0.7557(3) 0.0798(4)
H9_11 H 0.2388 0.7353 0.1086
C26_11 C 0.2802(2) 0.7916(3) 0.1948(4)
O1_11 O 0.17065(15) 0.63490(21) 0.8165(3)
O2_11 O 0.15570(17) 0.61159(23) 0.9354(3)
O3_11 O 0.10610(15) 0.48326(21) 0.9738(3)
O4_11 O 0.09131(13) 0.45007(18) 0.8666(2)
O6_11 O 0.18549(15) 0.55875(22) 0.6109(3)
O7_11 O 0.11453(14) 0.64967(20) 0.9717(3)
O8_11 O 0.13033(16) 0.67623(21) 0.8579(3)
O10_11 O 0.06266(14) 0.73049(18) 0.7559(3)
O14_11 O 0.20818(15) 0.71729(22) 0.8942(3)
O18_11 O 0.27168(16) 0.84699(23) 0.8745(3)
C1_11 C 0.15970(19) 0.60954(27) 0.8629(4)
C2_11 C 0.15133(18) 0.57410(25) 0.8339(3)
C3_11 C 0.13461(17) 0.54517(25) 0.8804(4)
H1_11 H 0.1298 0.5477 0.9319
C4_11 C 0.12470(17) 0.51192(24) 0.8511(3)
C5_11 C 0.13282(18) 0.50857(25) 0.7744(4)
H2_11 H 0.1254 0.4863 0.7540
C6_11 C 0.15213(18) 0.53862(25) 0.7273(4)
C7_11 C 0.16065(18) 0.57125(25) 0.7576(3)
H3_11 H 0.1726 0.5913 0.7270
C8_11 C 0.10647(19) 0.47977(27) 0.9028(4)
C9_11 C 0.16077(19) 0.53407(28) 0.6471(4)
C10_11 C 0.10951(19) 0.66301(25) 0.9139(4)
C11_11 C 0.07502(18) 0.66249(25) 0.9071(4)
C12_11 C 0.07190(19) 0.68535(26) 0.8571(4)
H4_11 H 0.0908 0.7000 0.8253
C13_11 C 0.04128(18) 0.68682(25) 0.8535(4)
C14_11 C 0.01192(17) 0.66267(24) 0.8972(4)
C15_11 C 0.01437(18) 0.63856(25) 0.9455(4)
C16_11 C 0.04685(18) 0.63952(25) 0.9513(4)
H6_11 H 0.0492 0.6244 0.9855
C17_11 C 0.03906(19) 0.71335(26) 0.8023(4)
C19_11 C 0.21048(19) 0.71788(27) 0.9667(4)
C21_11 C 0.24585(18) 0.78384(25) 0.9600(4)
H7_11 H 0.2398 0.7824 0.9078
C22_11 C 0.26557(18) 0.81575(26) 0.9930(4)
C27_11 C 0.27891(19) 0.84988(26) 0.9445(4)
O23_8 O 0.12174(18) 0.41832(22) 0.9810(2)
O11_11 O 0.98560(13) 0.59137(19) 0.0355(3)
H5_11 H 0.9908 0.6628 0.8938
C18_11 C 0.98276(18) 0.61177(25) 0.9908(4)
O11_12 O 0.40863(19) 0.39423(14) 0.0355(3)
O13_12 O 0.30771(20) 0.50435(14) 0.0111(3)
O15_12 O 0.2348(4) 0.5114(3) 0.2276(4)
C20_12 C 0.24669(27) 0.48121(19) 0.0023(4)
C23_12 C 0.2115(3) 0.4773(2) 0.1129(4)
C24_12 C 0.18150(28) 0.45790(19) 0.0695(4)
H8_12 H 0.1595 0.4502 0.0916
C25_12 C 0.2443(3) 0.4897(2) 0.0798(4)
H9_12 H 0.2647 0.5035 0.1086
C26_12 C 0.2084(3) 0.4886(2) 0.1948(4)
O1_12 O 0.36510(21) 0.53575(14) 0.8165(3)
O2_12 O 0.38841(23) 0.54411(16) 0.9354(3)
O3_12 O 0.51674(21) 0.62284(15) 0.9738(3)
O4_12 O 0.54993(18) 0.64124(13) 0.8666(2)
O6_12 O 0.44125(22) 0.62674(16) 0.6109(3)
O7_12 O 0.35033(20) 0.46486(14) 0.9717(3)
O8_12 O 0.32377(21) 0.45410(14) 0.8579(3)
O10_12 O 0.26951(18) 0.33217(12) 0.7559(3)
O14_12 O 0.28271(22) 0.49089(16) 0.8942(3)
O18_12 O 0.15301(23) 0.42469(17) 0.8745(3)
C1_12 C 0.39046(27) 0.55016(19) 0.8629(4)
C2_12 C 0.42590(25) 0.57723(17) 0.8339(3)
C3_12 C 0.45483(25) 0.58944(18) 0.8804(4)
H1_12 H 0.4523 0.5821 0.9319
C4_12 C 0.48808(24) 0.61278(17) 0.8511(3)
C5_12 C 0.49143(25) 0.62425(18) 0.7744(4)
H2_12 H 0.5137 0.6391 0.7540
C6_12 C 0.46138(25) 0.61351(18) 0.7273(4)
C7_12 C 0.42875(25) 0.58940(18) 0.7576(3)
H3_12 H 0.4087 0.5813 0.7270
C8_12 C 0.52023(27) 0.62670(19) 0.9028(4)
C9_12 C 0.46593(28) 0.6267(2) 0.6471(4)
C10_12 C 0.33699(25) 0.44650(17) 0.9139(4)
C11_12 C 0.33751(25) 0.41253(17) 0.9071(4)
C12_12 C 0.31465(26) 0.38655(18) 0.8571(4)
H4_12 H 0.3000 0.3908 0.8253
C13_12 C 0.31318(25) 0.35446(17) 0.8535(4)
C14_12 C 0.33733(24) 0.34925(17) 0.8972(4)
H5_12 H 0.3372 0.3280 0.8938
C15_12 C 0.36144(25) 0.37581(18) 0.9455(4)
C16_12 C 0.36048(25) 0.40733(18) 0.9513(4)
H6_12 H 0.3756 0.4248 0.9855
C17_12 C 0.28665(26) 0.32571(18) 0.8023(4)
C18_12 C 0.38823(25) 0.37099(18) 0.9908(4)
C19_12 C 0.28212(27) 0.49260(19) 0.9667(4)
C21_12 C 0.21616(25) 0.46201(17) 0.9600(4)
H7_12 H 0.2176 0.4574 0.9078
C22_12 C 0.18425(26) 0.44982(19) 0.9930(4)
C27_12 C 0.15012(26) 0.42903(18) 0.9445(4)
O10_13 O 0.00116(12) 0.60401(14) 0.4226(3)
H5_13 H 0.0053 0.6759 0.5605
C17_13 C 0.00762(18) 0.62761(19) 0.4690(4)
O1_13 O 0.79758(14) 0.49602(15) 0.4832(3)
O2_13 O 0.78922(16) 0.51097(17) 0.6021(3)
O3_13 O 0.71049(15) 0.56057(15) 0.6405(3)
O4_13 O 0.69209(13) 0.57536(13) 0.5333(2)
O6_13 O 0.70659(16) 0.48118(15) 0.2776(3)
O7_13 O 0.86847(14) 0.55214(14) 0.6384(3)
O8_13 O 0.87923(14) 0.53634(16) 0.5246(3)
O11_13 O 0.93910(14) 0.68107(13) 0.7022(3)
O13_13 O 0.82898(14) 0.47003(14) 0.6778(3)
O14_13 O 0.84244(16) 0.45849(15) 0.5609(3)
O15_13 O 0.8219(3) 0.3901(3) 0.8943(4)
O17_5 O 0.91501(12) 0.37009(13) 0.6477(2)
O18_13 O 0.90864(17) 0.39499(16) 0.5412(3)
C1_13 C 0.78317(19) 0.50697(19) 0.5296(4)
C2_13 C 0.75610(17) 0.51534(18) 0.5006(3)
C3_13 C 0.74389(18) 0.53206(17) 0.5471(4)
H1_13 H 0.7512 0.5369 0.5986
C4_13 C 0.72055(17) 0.54197(17) 0.5178(3)
C5_13 C 0.70908(18) 0.53385(18) 0.4411(4)
H2_13 H 0.6942 0.5413 0.4207
C6_13 C 0.71982(18) 0.51454(18) 0.3940(4)
C7_13 C 0.74393(18) 0.50602(18) 0.4243(3)
H3_13 H 0.7520 0.4941 0.3937
C8_13 C 0.70663(19) 0.56020(19) 0.5695(4)
C9_13 C 0.7066(2) 0.50590(19) 0.3138(4)
C10_13 C 0.88683(17) 0.55716(19) 0.5806(4)
C11_13 C 0.92080(17) 0.59165(18) 0.5738(4)
C12_13 C 0.94678(18) 0.59477(19) 0.5238(4)
H4_13 H 0.9425 0.5759 0.4920
C13_13 C 0.97887(17) 0.62539(18) 0.5202(4)
C14_13 C 0.98408(17) 0.65475(17) 0.5639(4)
C15_13 C 0.95752(18) 0.65230(18) 0.6122(4)
C16_13 C 0.92600(18) 0.61982(18) 0.6180(4)
H6_13 H 0.9085 0.6175 0.6522
C18_13 C 0.96234(18) 0.68391(18) 0.6575(4)
C19_13 C 0.84073(19) 0.45619(19) 0.6334(4)
C20_13 C 0.85212(19) 0.43215(19) 0.6690(4)
C21_13 C 0.87132(17) 0.42082(18) 0.6267(4)
H7_13 H 0.8759 0.4269 0.5745
C22_13 C 0.88351(19) 0.40110(18) 0.6597(4)
C23_13 C 0.8560(2) 0.4009(2) 0.7796(4)
C24_13 C 0.87543(19) 0.3903(2) 0.7362(4)
H8_13 H 0.8831 0.3760 0.7583
C25_13 C 0.8436(2) 0.4213(2) 0.7465(4)
H9_13 H 0.8298 0.4279 0.7753
C26_13 C 0.8447(2) 0.3865(2) 0.8615(4)
C27_13 C 0.90430(18) 0.38776(19) 0.6112(4)
O23_9 O 0.62991(13) 0.54493(18) 0.6477(2)
O1_14 O 0.50398(15) 0.30157(21) 0.4832(3)
O2_14 O 0.48903(17) 0.27826(23) 0.6021(3)
O3_14 O 0.43943(15) 0.14993(21) 0.6405(3)
O4_14 O 0.42464(13) 0.11674(18) 0.5333(2)
O6_14 O 0.51882(15) 0.22542(22) 0.2776(3)
O7_14 O 0.44786(14) 0.31634(20) 0.6384(3)
O8_14 O 0.46366(16) 0.34290(21) 0.5246(3)
O10_14 O 0.39599(14) 0.39716(18) 0.4226(3)
O11_14 O 0.31893(13) 0.25804(19) 0.7022(3)
O13_14 O 0.52997(14) 0.35896(20) 0.6778(3)
O14_14 O 0.54151(15) 0.38396(22) 0.5609(3)
O15_14 O 0.6099(3) 0.4319(4) 0.8943(4)
O18_14 O 0.60501(16) 0.51366(23) 0.5412(3)
C1_14 C 0.49303(19) 0.27621(27) 0.5296(4)
C2_14 C 0.48466(18) 0.24077(25) 0.5006(3)
C3_14 C 0.46794(17) 0.21184(25) 0.5471(4)
H1_14 H 0.4631 0.2144 0.5986
C4_14 C 0.45803(17) 0.17859(24) 0.5178(3)
C5_14 C 0.46615(18) 0.17524(25) 0.4411(4)
H2_14 H 0.4587 0.1530 0.4207
C6_14 C 0.48546(18) 0.20529(25) 0.3940(4)
C7_14 C 0.49398(18) 0.23792(25) 0.4243(3)
H3_14 H 0.5059 0.2580 0.3937
C8_14 C 0.43980(19) 0.14644(27) 0.5695(4)
C9_14 C 0.49410(19) 0.20074(28) 0.3138(4)
C10_14 C 0.44284(19) 0.32968(25) 0.5806(4)
C11_14 C 0.40835(18) 0.32916(25) 0.5738(4)
C12_14 C 0.40523(19) 0.35202(26) 0.5238(4)
H4_14 H 0.4241 0.3667 0.4920
C13_14 C 0.37461(18) 0.35349(25) 0.5202(4)
C14_14 C 0.34525(17) 0.32934(24) 0.5639(4)
H5_14 H 0.3241 0.3295 0.5605
C15_14 C 0.34770(18) 0.30523(25) 0.6122(4)
C16_14 C 0.38018(18) 0.30619(25) 0.6180(4)
H6_14 H 0.3825 0.2911 0.6522
C17_14 C 0.37239(19) 0.38002(26) 0.4690(4)
C18_14 C 0.31609(18) 0.27844(25) 0.6575(4)
C19_14 C 0.54381(19) 0.38455(27) 0.6334(4)
C20_14 C 0.56785(19) 0.41998(27) 0.6690(4)
C21_14 C 0.57918(18) 0.45051(25) 0.6267(4)
H7_14 H 0.5731 0.4491 0.5745
C22_14 C 0.59890(18) 0.48242(26) 0.6597(4)
C23_14 C 0.5991(2) 0.4552(3) 0.7796(4)
C24_14 C 0.6097(2) 0.48517(28) 0.7362(4)
H8_14 H 0.6240 0.5072 0.7583
C25_14 C 0.5787(2) 0.4224(3) 0.7465(4)
H9_14 H 0.5721 0.4020 0.7753
C26_14 C 0.6135(2) 0.4583(3) 0.8615(4)
C27_14 C 0.61224(19) 0.51655(26) 0.6112(4)
O23_10 O 0.45507(18) 0.08499(22) 0.6477(2)
O1_15 O 0.69843(21) 0.20242(14) 0.4832(3)
O2_15 O 0.72174(23) 0.21078(16) 0.6021(3)
O3_15 O 0.85007(21) 0.28951(15) 0.6405(3)
O4_15 O 0.88326(18) 0.30791(13) 0.5333(2)
O6_15 O 0.77458(22) 0.29341(16) 0.2776(3)
O7_15 O 0.68366(20) 0.13153(14) 0.6384(3)
O8_15 O 0.65710(21) 0.12077(14) 0.5246(3)
O11_15 O 0.74196(19) 0.06090(14) 0.7022(3)
O13_15 O 0.64104(20) 0.17102(14) 0.6778(3)
O14_15 O 0.61604(22) 0.15756(16) 0.5609(3)
O15_15 O 0.5681(4) 0.1781(3) 0.8943(4)
O18_15 O 0.48634(23) 0.09136(17) 0.5412(3)
C1_15 C 0.72379(27) 0.21683(19) 0.5296(4)
C2_15 C 0.75923(25) 0.24390(17) 0.5006(3)
C3_15 C 0.78816(25) 0.25611(18) 0.5471(4)
H1_15 H 0.7856 0.2488 0.5986
C4_15 C 0.82141(24) 0.27945(17) 0.5178(3)
C5_15 C 0.82476(25) 0.29092(18) 0.4411(4)
H2_15 H 0.8470 0.3058 0.4207
C6_15 C 0.79471(25) 0.28018(18) 0.3940(4)
C7_15 C 0.76208(25) 0.25607(18) 0.4243(3)
H3_15 H 0.7420 0.2480 0.3937
C8_15 C 0.85356(27) 0.29337(19) 0.5695(4)
C9_15 C 0.79926(28) 0.2934(2) 0.3138(4)
C10_15 C 0.67032(25) 0.11317(17) 0.5806(4)
C11_15 C 0.67084(25) 0.07920(17) 0.5738(4)
C12_15 C 0.64798(26) 0.05322(18) 0.5238(4)
H4_15 H 0.6333 0.0575 0.4920
C13_15 C 0.64651(25) 0.02113(17) 0.5202(4)
C14_15 C 0.67066(24) 0.01592(17) 0.5639(4)
C15_15 C 0.69477(25) 0.04248(18) 0.6122(4)
C16_15 C 0.69381(25) 0.07400(18) 0.6180(4)
H6_15 H 0.7089 0.0915 0.6522
C18_15 C 0.72156(25) 0.03766(18) 0.6575(4)
C19_15 C 0.61545(27) 0.15927(19) 0.6334(4)
C20_15 C 0.58002(27) 0.14788(19) 0.6690(4)
C21_15 C 0.54949(25) 0.12868(17) 0.6267(4)
H7_15 H 0.5509 0.1241 0.5745
C22_15 C 0.51758(26) 0.11649(19) 0.6597(4)
C23_15 C 0.5448(3) 0.1440(2) 0.7796(4)
C24_15 C 0.51483(28) 0.12457(19) 0.7362(4)
H8_15 H 0.4928 0.1169 0.7583
C25_15 C 0.5776(3) 0.1564(2) 0.7465(4)
H9_15 H 0.5980 0.1702 0.7753
C26_15 C 0.5417(3) 0.1553(2) 0.8615(4)
C27_15 C 0.48345(26) 0.09570(18) 0.6112(4)
O10_15 O 0.60284(18) 0.99884(12) 0.4226(3)
H5_15 H 0.6705 0.9947 0.5605
C17_15 C 0.61998(26) 0.99238(18) 0.4690(4)
O1_16 O 0.13092(14) 0.16268(15) 0.1498(3)
O2_16 O 0.12256(16) 0.17763(17) 0.2687(3)
O3_16 O 0.04383(15) 0.22723(15) 0.3071(3)
O4_16 O 0.02543(13) 0.24202(13) 0.1999(2)
O7_16 O 0.20181(14) 0.21880(14) 0.3050(3)
O8_16 O 0.21257(14) 0.20300(16) 0.1912(3)
O10_16 O 0.33450(12) 0.27067(14) 0.0892(3)
O11_16 O 0.27244(14) 0.34773(13) 0.3688(3)
O13_16 O 0.16232(14) 0.13669(14) 0.3444(3)
O14_16 O 0.17578(16) 0.12515(15) 0.2275(3)
O15_16 O 0.1553(3) 0.0567(3) 0.5609(4)
O17_6 O 0.24835(12) 0.03675(13) 0.3143(2)
O18_16 O 0.24198(17) 0.06165(16) 0.2078(3)
C1_16 C 0.11651(19) 0.17363(19) 0.1962(4)
C2_16 C 0.08944(17) 0.18200(18) 0.1672(3)
C3_16 C 0.07723(18) 0.19872(17) 0.2137(4)
H1_16 H 0.0846 0.2035 0.2652
C4_16 C 0.05389(17) 0.20863(17) 0.1844(3)
C5_16 C 0.04242(18) 0.20051(18) 0.1077(4)
H2_16 H 0.0276 0.2079 0.0873
C6_16 C 0.05316(18) 0.18120(18) 0.0606(4)
C7_16 C 0.07727(18) 0.17268(18) 0.0909(3)
H3_16 H 0.0854 0.1607 0.0603
C8_16 C 0.03997(19) 0.22686(19) 0.2361(4)
C10_16 C 0.22017(17) 0.22382(19) 0.2472(4)
C11_16 C 0.25414(17) 0.25831(18) 0.2404(4)
C12_16 C 0.28012(18) 0.26143(19) 0.1904(4)
H4_16 H 0.2759 0.2425 0.1586
C13_16 C 0.31221(17) 0.29205(18) 0.1868(4)
C14_16 C 0.31742(17) 0.32141(17) 0.2305(4)
H5_16 H 0.3387 0.3425 0.2271
C15_16 C 0.29086(18) 0.31896(18) 0.2788(4)
C16_16 C 0.25934(18) 0.28648(18) 0.2846(4)
H6_16 H 0.2419 0.2841 0.3188
C17_16 C 0.34096(18) 0.29427(19) 0.1356(4)
C18_16 C 0.29568(18) 0.35057(18) 0.3241(4)
C19_16 C 0.17407(19) 0.12285(19) 0.3000(4)
C20_16 C 0.18546(19) 0.09881(19) 0.3356(4)
C21_16 C 0.20466(17) 0.08748(18) 0.2933(4)
H7_16 H 0.2093 0.0935 0.2411
C22_16 C 0.21685(19) 0.06776(18) 0.3263(4)
C23_16 C 0.1894(2) 0.0675(2) 0.4462(4)
C24_16 C 0.20877(19) 0.0569(2) 0.4028(4)
H8_16 H 0.2165 0.0426 0.4249
C25_16 C 0.1770(2) 0.0879(2) 0.4131(4)
H9_16 H 0.1632 0.0945 0.4419
C26_16 C 0.1781(2) 0.0531(2) 0.5281(4)
C27_16 C 0.23764(18) 0.05442(19) 0.2778(4)
O6_16 O 0.03993(16) 0.14784(15) 0.9442(3)
C9_16 C 0.0400(2) 0.17256(19) 0.9804(4)
O23_11 O 0.96325(13) 0.21159(18) 0.3143(2)
O8_17 O 0.79700(16) 0.00956(21) 0.1912(3)
O10_17 O 0.72933(14) 0.06382(18) 0.0892(3)
O13_17 O 0.86331(14) 0.02562(20) 0.3444(3)
O14_17 O 0.87485(15) 0.05062(22) 0.2275(3)
O15_17 O 0.9433(3) 0.0985(4) 0.5609(4)
O18_17 O 0.93835(16) 0.18032(23) 0.2078(3)
C12_17 C 0.73857(19) 0.01868(26) 0.1904(4)
H4_17 H 0.7575 0.0333 0.1586
C13_17 C 0.70795(18) 0.02015(25) 0.1868(4)
C17_17 C 0.70573(19) 0.04668(26) 0.1356(4)
C19_17 C 0.87715(19) 0.05121(27) 0.3000(4)
C20_17 C 0.90119(19) 0.08664(27) 0.3356(4)
C21_17 C 0.91252(18) 0.11717(25) 0.2933(4)
H7_17 H 0.9065 0.1157 0.2411
C22_17 C 0.93224(18) 0.14908(26) 0.3263(4)
C23_17 C 0.9325(2) 0.1218(3) 0.4462(4)
C24_17 C 0.9431(2) 0.15183(28) 0.4028(4)
H8_17 H 0.9574 0.1738 0.4249
C25_17 C 0.9121(2) 0.0890(3) 0.4131(4)
H9_17 H 0.9055 0.0686 0.4419
C26_17 C 0.9469(2) 0.1249(3) 0.5281(4)
C27_17 C 0.94558(19) 0.18321(26) 0.2778(4)
O1_17 O 0.83732(15) 0.96823(21) 0.1498(3)
O2_17 O 0.82237(17) 0.94492(23) 0.2687(3)
O3_17 O 0.77277(15) 0.81659(21) 0.3071(3)
O4_17 O 0.75798(13) 0.78340(18) 0.1999(2)
O7_17 O 0.78120(14) 0.98300(20) 0.3050(3)
O11_17 O 0.65227(13) 0.92470(19) 0.3688(3)
C1_17 C 0.82637(19) 0.94287(27) 0.1962(4)
C2_17 C 0.81800(18) 0.90743(25) 0.1672(3)
C3_17 C 0.80128(17) 0.87850(25) 0.2137(4)
H1_17 H 0.7965 0.8810 0.2652
C4_17 C 0.79137(17) 0.84525(24) 0.1844(3)
C5_17 C 0.79949(18) 0.84190(25) 0.1077(4)
H2_17 H 0.7921 0.8196 0.0873
C6_17 C 0.81880(18) 0.87195(25) 0.0606(4)
C7_17 C 0.82732(18) 0.90458(25) 0.0909(3)
H3_17 H 0.8393 0.9246 0.0603
C8_17 C 0.77314(19) 0.81310(27) 0.2361(4)
C10_17 C 0.77618(19) 0.99634(25) 0.2472(4)
C11_17 C 0.74169(18) 0.99582(25) 0.2404(4)
C14_17 C 0.67859(17) 0.99600(24) 0.2305(4)
H5_17 H 0.6575 0.9961 0.2271
C15_17 C 0.68104(18) 0.97189(25) 0.2788(4)
C16_17 C 0.71352(18) 0.97285(25) 0.2846(4)
H6_17 H 0.7159 0.9577 0.3188
C18_17 C 0.64943(18) 0.94510(25) 0.3241(4)
O23_12 O 0.78841(18) 0.75165(22) 0.3143(2)
O6_17 O 0.85216(15) 0.89208(22) 0.9442(3)
C9_17 C 0.82744(19) 0.86740(28) 0.9804(4)
O1_18 O 0.03177(21) 0.86908(14) 0.1498(3)
O2_18 O 0.05508(23) 0.87744(16) 0.2687(3)
O3_18 O 0.18341(21) 0.95617(15) 0.3071(3)
O4_18 O 0.21660(18) 0.97457(13) 0.1999(2)
O7_18 O 0.01700(20) 0.79819(14) 0.3050(3)
O11_18 O 0.07530(19) 0.72756(14) 0.3688(3)
C1_18 C 0.05713(27) 0.88349(19) 0.1962(4)
C2_18 C 0.09257(25) 0.91056(17) 0.1672(3)
C3_18 C 0.12150(25) 0.92277(18) 0.2137(4)
H1_18 H 0.1190 0.9154 0.2652
C4_18 C 0.15475(24) 0.94611(17) 0.1844(3)
C5_18 C 0.15810(25) 0.95758(18) 0.1077(4)
H2_18 H 0.1804 0.9724 0.0873
C6_18 C 0.12805(25) 0.94684(18) 0.0606(4)
C7_18 C 0.09542(25) 0.92273(18) 0.0909(3)
H3_18 H 0.0754 0.9146 0.0603
C8_18 C 0.18690(27) 0.96003(19) 0.2361(4)
C10_18 C 0.00366(25) 0.77983(17) 0.2472(4)
C11_18 C 0.00418(25) 0.74586(17) 0.2404(4)
C14_18 C 0.00400(24) 0.68258(17) 0.2305(4)
H5_18 H 0.0039 0.6613 0.2271
C15_18 C 0.02811(25) 0.70914(18) 0.2788(4)
C16_18 C 0.02715(25) 0.74066(18) 0.2846(4)
H6_18 H 0.0423 0.7581 0.3188
C18_18 C 0.05490(25) 0.70432(18) 0.3241(4)
O6_18 O 0.10792(22) 0.96007(16) 0.9442(3)
C9_18 C 0.13260(28) 0.9600(2) 0.9804(4)
O8_18 O 0.99044(21) 0.78743(14) 0.1912(3)
O10_18 O 0.93618(18) 0.66550(12) 0.0892(3)
O13_18 O 0.97438(20) 0.83768(14) 0.3444(3)
O14_18 O 0.94938(22) 0.82422(16) 0.2275(3)
O15_18 O 0.9015(4) 0.8447(3) 0.5609(4)
O18_18 O 0.81968(23) 0.75802(17) 0.2078(3)
C12_18 C 0.98132(26) 0.71988(18) 0.1904(4)
H4_18 H 0.9667 0.7241 0.1586
C13_18 C 0.97985(25) 0.68779(17) 0.1868(4)
C17_18 C 0.95332(26) 0.65904(18) 0.1356(4)
C19_18 C 0.94879(27) 0.82593(19) 0.3000(4)
C20_18 C 0.91336(27) 0.81454(19) 0.3356(4)
C21_18 C 0.88283(25) 0.79534(17) 0.2933(4)
H7_18 H 0.8843 0.7907 0.2411
C22_18 C 0.85092(26) 0.78315(19) 0.3263(4)
C23_18 C 0.8782(3) 0.8106(2) 0.4462(4)
C24_18 C 0.84817(28) 0.79123(19) 0.4028(4)
H8_18 H 0.8262 0.7835 0.4249
C25_18 C 0.9110(3) 0.8230(2) 0.4131(4)
H9_18 H 0.9314 0.8368 0.4419
C26_18 C 0.8751(3) 0.8219(2) 0.5281(4)
C27_18 C 0.81679(26) 0.76236(18) 0.2778(4)
O24 O 0.29708(16) 0.07844(17) 0.5466(3)
H10 H 0.3123 0.0815 0.5783
O25 O 0.3825(3) 0.2034(3) 0.1698(7)
H11 H 0.3969 0.2205 0.1449
N1 N 0.34274(18) 0.1079(2) 0.4231(4)
N2 N 0.3678(3) 0.1640(3) 0.3028(5)
C28 C 0.2973(2) 0.0563(2) 0.4822(5)
H12 H 0.2919 0.0335 0.5028
H13 H 0.2788 0.0524 0.4457
C29 C 0.3303(2) 0.0714(2) 0.4410(5)
H14 H 0.3477 0.0696 0.4727
H15 H 0.3273 0.0584 0.3933
C30 C 0.3190(2) 0.1136(2) 0.3684(5)
H16 H 0.3128 0.0975 0.3248
H17 H 0.2975 0.1082 0.3953
C31 C 0.3345(3) 0.1469(4) 0.3416(7)
H18 H 0.3367 0.1616 0.3857
H19 H 0.3178 0.1479 0.3063
C32 C 0.3935(3) 0.1586(3) 0.3539(8)
H20 H 0.4151 0.1661 0.3251
H21 H 0.3992 0.1735 0.3996
C33 C 0.3792(3) 0.1216(3) 0.3789(6)
H22 H 0.3959 0.1200 0.4132
H23 H 0.3757 0.1069 0.3339
C34 C 0.3635(3) 0.1493(3) 0.2202(7)
H24 H 0.3648 0.1278 0.2205
H25 H 0.3410 0.1441 0.1986
C35 C 0.3934(3) 0.1775(3) 0.1731(6)
H26 H 0.4159 0.1864 0.1992
H27 H 0.3947 0.1691 0.1217
H34 H 0.346531 0.121824 0.472833
H35 H 0.376342 0.190186 0.299494
O24_2 O 0.92156(17) 0.21864(23) 0.5466(3)
H10_2 H 0.9185 0.2308 0.5783
O25_2 O 0.7966(3) 0.1791(4) 0.1698(7)
H11_2 H 0.7795 0.1764 0.1449
N1_2 N 0.8921(2) 0.23484(27) 0.4231(4)
N2_2 N 0.8360(3) 0.2038(4) 0.3028(5)
C28_2 C 0.9437(2) 0.2410(3) 0.4822(5)
H12_2 H 0.9665 0.2584 0.5028
H13_2 H 0.9476 0.2264 0.4457
C29_2 C 0.9286(2) 0.2589(3) 0.4410(5)
H14_2 H 0.9304 0.2781 0.4727
H15_2 H 0.9416 0.2689 0.3933
C30_2 C 0.8864(2) 0.2054(3) 0.3684(5)
H16_2 H 0.9025 0.2153 0.3248
H17_2 H 0.8918 0.1893 0.3953
C31_2 C 0.8531(4) 0.1876(5) 0.3416(7)
H18_2 H 0.8384 0.1751 0.3857
H19_2 H 0.8521 0.1699 0.3063
C32_2 C 0.8414(3) 0.2349(4) 0.3539(8)
H20_2 H 0.8339 0.2490 0.3251
H21_2 H 0.8265 0.2257 0.3996
C33_2 C 0.8784(3) 0.2576(4) 0.3789(6)
H22_2 H 0.8800 0.2759 0.4132
H23_2 H 0.8931 0.2688 0.3339
C34_2 C 0.8507(3) 0.2142(4) 0.2202(7)
H24_2 H 0.8722 0.2370 0.2205
H25_2 H 0.8559 0.1969 0.1986
C35_2 C 0.8225(3) 0.2159(4) 0.1731(6)
H26_2 H 0.8136 0.2295 0.1992
H27_2 H 0.8309 0.2256 0.1217
H34_2 H 0.878176 0.224707 0.472833
H35_2 H 0.809814 0.186156 0.299494
O24_3 O 0.78136(23) 0.70292(16) 0.5466(3)
H10_3 H 0.7692 0.6877 0.5783
O25_3 O 0.8209(4) 0.6175(3) 0.1698(7)
H11_3 H 0.8236 0.6031 0.1449
N1_3 N 0.76516(27) 0.65726(18) 0.4231(4)
N2_3 N 0.7962(4) 0.6322(3) 0.3028(5)
C28_3 C 0.7590(3) 0.7027(2) 0.4822(5)
H12_3 H 0.7416 0.7081 0.5028
H13_3 H 0.7736 0.7212 0.4457
C29_3 C 0.7411(3) 0.6697(2) 0.4410(5)
H14_3 H 0.7219 0.6523 0.4727
H15_3 H 0.7311 0.6727 0.3933
C30_3 C 0.7946(3) 0.6810(2) 0.3684(5)
H16_3 H 0.7847 0.6872 0.3248
H17_3 H 0.8107 0.7025 0.3953
C31_3 C 0.8124(5) 0.6655(3) 0.3416(7)
H18_3 H 0.8249 0.6633 0.3857
H19_3 H 0.8301 0.6822 0.3063
C32_3 C 0.7651(4) 0.6065(3) 0.3539(8)
H20_3 H 0.7510 0.5849 0.3251
H21_3 H 0.7743 0.6008 0.3996
C33_3 C 0.7424(4) 0.6208(3) 0.3789(6)
H22_3 H 0.7241 0.6041 0.4132
H23_3 H 0.7312 0.6243 0.3339
C34_3 C 0.7858(4) 0.6365(3) 0.2202(7)
H24_3 H 0.7630 0.6352 0.2205
H25_3 H 0.8031 0.6590 0.1986
C35_3 C 0.7841(4) 0.6066(3) 0.1731(6)
H26_3 H 0.7705 0.5841 0.1992
H27_3 H 0.7744 0.6053 0.1217
H34_3 H 0.775293 0.653469 0.472833
H35_3 H 0.813844 0.623658 0.299494
O25_4 O 0.0492(3) 0.5367(3) 0.5031(7)
H11_4 H 0.0636 0.5538 0.4782
N1_4 N 0.00941(18) 0.4412(2) 0.7564(4)
N2_4 N 0.0345(3) 0.4973(3) 0.6361(5)
H14_4 H 0.0144 0.4029 0.8060
C31_4 C 0.0012(3) 0.4802(4) 0.6749(7)
H18_4 H 0.0034 0.4949 0.7190
C32_4 C 0.0602(3) 0.4919(3) 0.6872(8)
H20_4 H 0.0818 0.4994 0.6584
H21_4 H 0.0659 0.5068 0.7329
C33_4 C 0.0459(3) 0.4549(3) 0.7122(6)
H22_4 H 0.0626 0.4533 0.7465
H23_4 H 0.0424 0.4402 0.6672
C34_4 C 0.0302(3) 0.4826(3) 0.5535(7)
H24_4 H 0.0315 0.4611 0.5538
H25_4 H 0.0077 0.4774 0.5319
C35_4 C 0.0601(3) 0.5108(3) 0.5064(6)
H26_4 H 0.0826 0.5197 0.5325
H27_4 H 0.0614 0.5024 0.4550
H34_4 H 0.0131975 0.455157 0.806167
H35_4 H 0.0430086 0.523519 0.632827
O24_4 O 0.96375(16) 0.41177(17) 0.8799(3)
H10_4 H 0.9790 0.4148 0.9116
C28_4 C 0.9640(2) 0.3896(2) 0.8155(5)
H12_4 H 0.9586 0.3668 0.8361
H13_4 H 0.9455 0.3857 0.7790
C29_4 C 0.9970(2) 0.4047(2) 0.7743(5)
H15_4 H 0.9940 0.3917 0.7266
C30_4 C 0.9857(2) 0.4469(2) 0.7017(5)
H16_4 H 0.9795 0.4308 0.6581
H17_4 H 0.9642 0.4415 0.7286
H19_4 H 0.9845 0.4812 0.6396
O24_5 O 0.58823(17) 0.55197(23) 0.8799(3)
H10_5 H 0.5852 0.5641 0.9116
O25_5 O 0.4633(3) 0.5124(4) 0.5031(7)
H11_5 H 0.4462 0.5097 0.4782
N1_5 N 0.5588(2) 0.56817(27) 0.7564(4)
N2_5 N 0.5027(3) 0.5371(4) 0.6361(5)
C28_5 C 0.6104(2) 0.5743(3) 0.8155(5)
H12_5 H 0.6332 0.5917 0.8361
H13_5 H 0.6143 0.5597 0.7790
C29_5 C 0.5953(2) 0.5922(3) 0.7743(5)
H14_5 H 0.5971 0.6114 0.8060
H15_5 H 0.6083 0.6022 0.7266
C30_5 C 0.5531(2) 0.5387(3) 0.7017(5)
H16_5 H 0.5692 0.5486 0.6581
H17_5 H 0.5585 0.5226 0.7286
C31_5 C 0.5198(4) 0.5209(5) 0.6749(7)
H18_5 H 0.5051 0.5084 0.7190
H19_5 H 0.5188 0.5032 0.6396
C32_5 C 0.5081(3) 0.5682(4) 0.6872(8)
H20_5 H 0.5006 0.5823 0.6584
H21_5 H 0.4932 0.5590 0.7329
C33_5 C 0.5451(3) 0.5909(4) 0.7122(6)
H22_5 H 0.5467 0.6092 0.7465
H23_5 H 0.5598 0.6021 0.6672
C34_5 C 0.5174(3) 0.5475(4) 0.5535(7)
H24_5 H 0.5389 0.5703 0.5538
H25_5 H 0.5226 0.5302 0.5319
C35_5 C 0.4892(3) 0.5492(4) 0.5064(6)
H26_5 H 0.4803 0.5628 0.5325
H27_5 H 0.4976 0.5589 0.4550
H34_5 H 0.544843 0.55804 0.806167
H35_5 H 0.476481 0.519489 0.632827
O24_6 O 0.44803(23) 0.03625(16) 0.8799(3)
H10_6 H 0.4359 0.0210 0.9116
C28_6 C 0.4257(3) 0.0360(2) 0.8155(5)
H12_6 H 0.4083 0.0414 0.8361
H13_6 H 0.4403 0.0545 0.7790
C29_6 C 0.4078(3) 0.0030(2) 0.7743(5)
H15_6 H 0.3978 0.0060 0.7266
C30_6 C 0.4613(3) 0.0143(2) 0.7017(5)
H16_6 H 0.4514 0.0205 0.6581
H17_6 H 0.4774 0.0358 0.7286
H19_6 H 0.4968 0.0155 0.6396
O25_6 O 0.4876(4) 0.9508(3) 0.5031(7)
H11_6 H 0.4903 0.9364 0.4782
N1_6 N 0.43183(27) 0.99059(18) 0.7564(4)
N2_6 N 0.4629(4) 0.9655(3) 0.6361(5)
H14_6 H 0.3886 0.9856 0.8060
C31_6 C 0.4791(5) 0.9988(3) 0.6749(7)
H18_6 H 0.4916 0.9966 0.7190
C32_6 C 0.4318(4) 0.9398(3) 0.6872(8)
H20_6 H 0.4177 0.9182 0.6584
H21_6 H 0.4410 0.9341 0.7329
C33_6 C 0.4091(4) 0.9541(3) 0.7122(6)
H22_6 H 0.3908 0.9374 0.7465
H23_6 H 0.3979 0.9576 0.6672
C34_6 C 0.4525(4) 0.9698(3) 0.5535(7)
H24_6 H 0.4297 0.9685 0.5538
H25_6 H 0.4698 0.9923 0.5319
C35_6 C 0.4508(4) 0.9399(3) 0.5064(6)
H26_6 H 0.4372 0.9174 0.5325
H27_6 H 0.4411 0.9386 0.4550
H34_6 H 0.44196 0.986802 0.806167
H35_6 H 0.480511 0.956991 0.632827
O24_7 O 0.63041(16) 0.74511(17) 0.2133(3)
H10_7 H 0.6456 0.7482 0.2450
N1_7 N 0.67607(18) 0.7746(2) 0.0898(4)
C28_7 C 0.6306(2) 0.7230(2) 0.1489(5)
H12_7 H 0.6252 0.7002 0.1695
H13_7 H 0.6121 0.7191 0.1124
C29_7 C 0.6636(2) 0.7381(2) 0.1077(5)
H14_7 H 0.6810 0.7363 0.1394
H15_7 H 0.6606 0.7251 0.0600
C30_7 C 0.6523(2) 0.7803(2) 0.0351(5)
H17_7 H 0.6308 0.7749 0.0620
C31_7 C 0.6678(3) 0.8136(4) 0.0083(7)
H18_7 H 0.6700 0.8283 0.0524
C32_7 C 0.7268(3) 0.8253(3) 0.0206(8)
H21_7 H 0.7325 0.8402 0.0663
C33_7 C 0.7125(3) 0.7883(3) 0.0456(6)
H22_7 H 0.7292 0.7867 0.0799
H23_7 H 0.7090 0.7736 0.0006
H34_7 H 0.679864 0.788491 0.1395
O25_7 O 0.7158(3) 0.8701(3) 0.8365(7)
H11_7 H 0.7302 0.8872 0.8116
N2_7 N 0.7011(3) 0.8307(3) 0.9695(5)
H16_7 H 0.6461 0.7642 0.9915
H19_7 H 0.6511 0.8146 0.9730
H20_7 H 0.7484 0.8328 0.9918
C34_7 C 0.6968(3) 0.8160(3) 0.8869(7)
H24_7 H 0.6981 0.7945 0.8872
H25_7 H 0.6743 0.8108 0.8653
C35_7 C 0.7267(3) 0.8442(3) 0.8398(6)
H26_7 H 0.7492 0.8531 0.8659
H27_7 H 0.7280 0.8358 0.7884
H35_7 H 0.709675 0.856853 0.966161
O24_8 O 0.25489(17) 0.88531(23) 0.2133(3)
H10_8 H 0.2518 0.8975 0.2450
N1_8 N 0.2254(2) 0.90151(27) 0.0898(4)
C28_8 C 0.2770(2) 0.9077(3) 0.1489(5)
H12_8 H 0.2998 0.9251 0.1695
H13_8 H 0.2809 0.8931 0.1124
C29_8 C 0.2619(2) 0.9256(3) 0.1077(5)
H14_8 H 0.2637 0.9448 0.1394
H15_8 H 0.2749 0.9356 0.0600
C30_8 C 0.2197(2) 0.8721(3) 0.0351(5)
H17_8 H 0.2251 0.8560 0.0620
C31_8 C 0.1864(4) 0.8543(5) 0.0083(7)
H18_8 H 0.1717 0.8418 0.0524
C32_8 C 0.1747(3) 0.9016(4) 0.0206(8)
H21_8 H 0.1598 0.8924 0.0663
C33_8 C 0.2117(3) 0.9243(4) 0.0456(6)
H22_8 H 0.2133 0.9426 0.0799
H23_8 H 0.2264 0.9355 0.0006
H34_8 H 0.211509 0.891373 0.1395
O25_8 O 0.1299(3) 0.8458(4) 0.8365(7)
H11_8 H 0.1128 0.8431 0.8116
N2_8 N 0.1693(3) 0.8705(4) 0.9695(5)
H16_8 H 0.2358 0.8820 0.9915
H19_8 H 0.1854 0.8366 0.9730
H20_8 H 0.1672 0.9157 0.9918
C34_8 C 0.1840(3) 0.8809(4) 0.8869(7)
H24_8 H 0.2055 0.9037 0.8872
H25_8 H 0.1892 0.8636 0.8653
C35_8 C 0.1558(3) 0.8826(4) 0.8398(6)
H26_8 H 0.1469 0.8962 0.8659
H27_8 H 0.1642 0.8923 0.7884
H35_8 H 0.143147 0.852823 0.966161
O24_9 O 0.11469(23) 0.36959(16) 0.2133(3)
H10_9 H 0.1025 0.3544 0.2450
N1_9 N 0.09849(27) 0.32393(18) 0.0898(4)
C28_9 C 0.0923(3) 0.3694(2) 0.1489(5)
H12_9 H 0.0749 0.3748 0.1695
H13_9 H 0.1069 0.3879 0.1124
C29_9 C 0.0744(3) 0.3364(2) 0.1077(5)
H14_9 H 0.0552 0.3190 0.1394
H15_9 H 0.0644 0.3394 0.0600
C30_9 C 0.1279(3) 0.3477(2) 0.0351(5)
H17_9 H 0.1440 0.3692 0.0620
C31_9 C 0.1457(5) 0.3322(3) 0.0083(7)
H18_9 H 0.1582 0.3300 0.0524
C32_9 C 0.0984(4) 0.2732(3) 0.0206(8)
H21_9 H 0.1076 0.2675 0.0663
C33_9 C 0.0757(4) 0.2875(3) 0.0456(6)
H22_9 H 0.0574 0.2708 0.0799
H23_9 H 0.0645 0.2910 0.0006
H34_9 H 0.108627 0.320136 0.1395
O25_9 O 0.1542(4) 0.2842(3) 0.8365(7)
H11_9 H 0.1569 0.2698 0.8116
N2_9 N 0.1295(4) 0.2989(3) 0.9695(5)
H16_9 H 0.1180 0.3539 0.9915
H19_9 H 0.1634 0.3489 0.9730
H20_9 H 0.0843 0.2516 0.9918
C34_9 C 0.1191(4) 0.3032(3) 0.8869(7)
H24_9 H 0.0963 0.3019 0.8872
H25_9 H 0.1364 0.3257 0.8653
C35_9 C 0.1174(4) 0.2733(3) 0.8398(6)
H26_9 H 0.1038 0.2508 0.8659
H27_9 H 0.1077 0.2720 0.7884
H35_9 H 0.147177 0.290325 0.966161
O24_10 O 0.70292(16) 0.92156(17) 0.4534(3)
H10_10 H 0.6877 0.9185 0.4217
O25_10 O 0.6175(3) 0.7966(3) 0.8302(7)
H11_10 H 0.6031 0.7795 0.8551
N1_10 N 0.65726(18) 0.8921(2) 0.5769(4)
N2_10 N 0.6322(3) 0.8360(3) 0.6972(5)
C28_10 C 0.7027(2) 0.9437(2) 0.5178(5)
H12_10 H 0.7081 0.9665 0.4972
H13_10 H 0.7212 0.9476 0.5543
C29_10 C 0.6697(2) 0.9286(2) 0.5590(5)
H14_10 H 0.6523 0.9304 0.5273
H15_10 H 0.6727 0.9416 0.6067
C30_10 C 0.6810(2) 0.8864(2) 0.6316(5)
H16_10 H 0.6872 0.9025 0.6752
H17_10 H 0.7025 0.8918 0.6047
C31_10 C 0.6655(3) 0.8531(4) 0.6584(7)
H18_10 H 0.6633 0.8384 0.6143
H19_10 H 0.6822 0.8521 0.6937
C32_10 C 0.6065(3) 0.8414(3) 0.6461(8)
H20_10 H 0.5849 0.8339 0.6749
H21_10 H 0.6008 0.8265 0.6004
C33_10 C 0.6208(3) 0.8784(3) 0.6211(6)
H22_10 H 0.6041 0.8800 0.5868
H23_10 H 0.6243 0.8931 0.6661
C34_10 C 0.6365(3) 0.8507(3) 0.7798(7)
H24_10 H 0.6352 0.8722 0.7795
H25_10 H 0.6590 0.8559 0.8014
C35_10 C 0.6066(3) 0.8225(3) 0.8269(6)
H26_10 H 0.5841 0.8136 0.8008
H27_10 H 0.6053 0.8309 0.8783
H34_10 H 0.653469 0.878176 0.527167
H35_10 H 0.623658 0.809814 0.700506
O24_11 O 0.07844(17) 0.78136(23) 0.4534(3)
H10_11 H 0.0815 0.7692 0.4217
O25_11 O 0.2034(3) 0.8209(4) 0.8302(7)
H11_11 H 0.2205 0.8236 0.8551
N1_11 N 0.1079(2) 0.76516(27) 0.5769(4)
N2_11 N 0.1640(3) 0.7962(4) 0.6972(5)
C28_11 C 0.0563(2) 0.7590(3) 0.5178(5)
H12_11 H 0.0335 0.7416 0.4972
H13_11 H 0.0524 0.7736 0.5543
C29_11 C 0.0714(2) 0.7411(3) 0.5590(5)
H14_11 H 0.0696 0.7219 0.5273
H15_11 H 0.0584 0.7311 0.6067
C30_11 C 0.1136(2) 0.7946(3) 0.6316(5)
H16_11 H 0.0975 0.7847 0.6752
H17_11 H 0.1082 0.8107 0.6047
C31_11 C 0.1469(4) 0.8124(5) 0.6584(7)
H18_11 H 0.1616 0.8249 0.6143
H19_11 H 0.1479 0.8301 0.6937
C32_11 C 0.1586(3) 0.7651(4) 0.6461(8)
H20_11 H 0.1661 0.7510 0.6749
H21_11 H 0.1735 0.7743 0.6004
C33_11 C 0.1216(3) 0.7424(4) 0.6211(6)
H22_11 H 0.1200 0.7241 0.5868
H23_11 H 0.1069 0.7312 0.6661
C34_11 C 0.1493(3) 0.7858(4) 0.7798(7)
H24_11 H 0.1278 0.7630 0.7795
H25_11 H 0.1441 0.8031 0.8014
C35_11 C 0.1775(3) 0.7841(4) 0.8269(6)
H26_11 H 0.1864 0.7705 0.8008
H27_11 H 0.1691 0.7744 0.8783
H34_11 H 0.121824 0.775293 0.527167
H35_11 H 0.190186 0.813844 0.700506
O24_12 O 0.21864(23) 0.29708(16) 0.4534(3)
H10_12 H 0.2308 0.3123 0.4217
O25_12 O 0.1791(4) 0.3825(3) 0.8302(7)
H11_12 H 0.1764 0.3969 0.8551
N1_12 N 0.23484(27) 0.34274(18) 0.5769(4)
N2_12 N 0.2038(4) 0.3678(3) 0.6972(5)
C28_12 C 0.2410(3) 0.2973(2) 0.5178(5)
H12_12 H 0.2584 0.2919 0.4972
H13_12 H 0.2264 0.2788 0.5543
C29_12 C 0.2589(3) 0.3303(2) 0.5590(5)
H14_12 H 0.2781 0.3477 0.5273
H15_12 H 0.2689 0.3273 0.6067
C30_12 C 0.2054(3) 0.3190(2) 0.6316(5)
H16_12 H 0.2153 0.3128 0.6752
H17_12 H 0.1893 0.2975 0.6047
C31_12 C 0.1876(5) 0.3345(3) 0.6584(7)
H18_12 H 0.1751 0.3367 0.6143
H19_12 H 0.1699 0.3178 0.6937
C32_12 C 0.2349(4) 0.3935(3) 0.6461(8)
H20_12 H 0.2490 0.4151 0.6749
H21_12 H 0.2257 0.3992 0.6004
C33_12 C 0.2576(4) 0.3792(3) 0.6211(6)
H22_12 H 0.2759 0.3959 0.5868
H23_12 H 0.2688 0.3757 0.6661
C34_12 C 0.2142(4) 0.3635(3) 0.7798(7)
H24_12 H 0.2370 0.3648 0.7795
H25_12 H 0.1969 0.3410 0.8014
C35_12 C 0.2159(4) 0.3934(3) 0.8269(6)
H26_12 H 0.2295 0.4159 0.8008
H27_12 H 0.2256 0.3947 0.8783
H34_12 H 0.224707 0.346531 0.527167
H35_12 H 0.186156 0.376342 0.700506
O24_13 O 0.03625(16) 0.58823(17) 0.1201(3)
H10_13 H 0.0210 0.5852 0.0884
C28_13 C 0.0360(2) 0.6104(2) 0.1845(5)
H12_13 H 0.0414 0.6332 0.1639
H13_13 H 0.0545 0.6143 0.2210
C29_13 C 0.0030(2) 0.5953(2) 0.2257(5)
H15_13 H 0.0060 0.6083 0.2734
C30_13 C 0.0143(2) 0.5531(2) 0.2983(5)
H16_13 H 0.0205 0.5692 0.3419
H17_13 H 0.0358 0.5585 0.2714
H19_13 H 0.0155 0.5188 0.3604
O25_13 O 0.9508(3) 0.4633(3) 0.4969(7)
H11_13 H 0.9364 0.4462 0.5218
N1_13 N 0.99059(18) 0.5588(2) 0.2436(4)
N2_13 N 0.9655(3) 0.5027(3) 0.3639(5)
H14_13 H 0.9856 0.5971 0.1940
C31_13 C 0.9988(3) 0.5198(4) 0.3251(7)
H18_13 H 0.9966 0.5051 0.2810
C32_13 C 0.9398(3) 0.5081(3) 0.3128(8)
H20_13 H 0.9182 0.5006 0.3416
H21_13 H 0.9341 0.4932 0.2671
C33_13 C 0.9541(3) 0.5451(3) 0.2878(6)
H22_13 H 0.9374 0.5467 0.2535
H23_13 H 0.9576 0.5598 0.3328
C34_13 C 0.9698(3) 0.5174(3) 0.4465(7)
H24_13 H 0.9685 0.5389 0.4462
H25_13 H 0.9923 0.5226 0.4681
C35_13 C 0.9399(3) 0.4892(3) 0.4936(6)
H26_13 H 0.9174 0.4803 0.4675
H27_13 H 0.9386 0.4976 0.5450
H34_13 H 0.986802 0.544843 0.193833
H35_13 H 0.956991 0.476481 0.367173
O24_14 O 0.41177(17) 0.44803(23) 0.1201(3)
H10_14 H 0.4148 0.4359 0.0884
O25_14 O 0.5367(3) 0.4876(4) 0.4969(7)
H11_14 H 0.5538 0.4903 0.5218
N1_14 N 0.4412(2) 0.43183(27) 0.2436(4)
N2_14 N 0.4973(3) 0.4629(4) 0.3639(5)
C28_14 C 0.3896(2) 0.4257(3) 0.1845(5)
H12_14 H 0.3668 0.4083 0.1639
H13_14 H 0.3857 0.4403 0.2210
C29_14 C 0.4047(2) 0.4078(3) 0.2257(5)
H14_14 H 0.4029 0.3886 0.1940
H15_14 H 0.3917 0.3978 0.2734
C30_14 C 0.4469(2) 0.4613(3) 0.2983(5)
H16_14 H 0.4308 0.4514 0.3419
H17_14 H 0.4415 0.4774 0.2714
C31_14 C 0.4802(4) 0.4791(5) 0.3251(7)
H18_14 H 0.4949 0.4916 0.2810
H19_14 H 0.4812 0.4968 0.3604
C32_14 C 0.4919(3) 0.4318(4) 0.3128(8)
H20_14 H 0.4994 0.4177 0.3416
H21_14 H 0.5068 0.4410 0.2671
C33_14 C 0.4549(3) 0.4091(4) 0.2878(6)
H22_14 H 0.4533 0.3908 0.2535
H23_14 H 0.4402 0.3979 0.3328
C34_14 C 0.4826(3) 0.4525(4) 0.4465(7)
H24_14 H 0.4611 0.4297 0.4462
H25_14 H 0.4774 0.4698 0.4681
C35_14 C 0.5108(3) 0.4508(4) 0.4936(6)
H26_14 H 0.5197 0.4372 0.4675
H27_14 H 0.5024 0.4411 0.5450
H34_14 H 0.455157 0.44196 0.193833
H35_14 H 0.523519 0.480511 0.367173
O25_15 O 0.5124(4) 0.0492(3) 0.4969(7)
H11_15 H 0.5097 0.0636 0.5218
N1_15 N 0.56817(27) 0.00941(18) 0.2436(4)
N2_15 N 0.5371(4) 0.0345(3) 0.3639(5)
H14_15 H 0.6114 0.0144 0.1940
C31_15 C 0.5209(5) 0.0012(3) 0.3251(7)
H18_15 H 0.5084 0.0034 0.2810
C32_15 C 0.5682(4) 0.0602(3) 0.3128(8)
H20_15 H 0.5823 0.0818 0.3416
H21_15 H 0.5590 0.0659 0.2671
C33_15 C 0.5909(4) 0.0459(3) 0.2878(6)
H22_15 H 0.6092 0.0626 0.2535
H23_15 H 0.6021 0.0424 0.3328
C34_15 C 0.5475(4) 0.0302(3) 0.4465(7)
H24_15 H 0.5703 0.0315 0.4462
H25_15 H 0.5302 0.0077 0.4681
C35_15 C 0.5492(4) 0.0601(3) 0.4936(6)
H26_15 H 0.5628 0.0826 0.4675
H27_15 H 0.5589 0.0614 0.5450
H34_15 H 0.55804 0.0131975 0.193833
H35_15 H 0.519489 0.0430086 0.367173
O24_15 O 0.55197(23) 0.96375(16) 0.1201(3)
H10_15 H 0.5641 0.9790 0.0884
C28_15 C 0.5743(3) 0.9640(2) 0.1845(5)
H12_15 H 0.5917 0.9586 0.1639
H13_15 H 0.5597 0.9455 0.2210
C29_15 C 0.5922(3) 0.9970(2) 0.2257(5)
H15_15 H 0.6022 0.9940 0.2734
C30_15 C 0.5387(3) 0.9857(2) 0.2983(5)
H16_15 H 0.5486 0.9795 0.3419
H17_15 H 0.5226 0.9642 0.2714
H19_15 H 0.5032 0.9845 0.3604
O25_16 O 0.2842(3) 0.1299(3) 0.1635(7)
H11_16 H 0.2698 0.1128 0.1884
N2_16 N 0.2989(3) 0.1693(3) 0.0305(5)
H16_16 H 0.3539 0.2358 0.0085
H19_16 H 0.3489 0.1854 0.0270
H20_16 H 0.2516 0.1672 0.0082
C34_16 C 0.3032(3) 0.1840(3) 0.1131(7)
H24_16 H 0.3019 0.2055 0.1128
H25_16 H 0.3257 0.1892 0.1347
C35_16 C 0.2733(3) 0.1558(3) 0.1602(6)
H26_16 H 0.2508 0.1469 0.1341
H27_16 H 0.2720 0.1642 0.2116
H35_16 H 0.290325 0.143147 0.0338394
O24_16 O 0.36959(16) 0.25489(17) 0.7867(3)
H10_16 H 0.3544 0.2518 0.7550
N1_16 N 0.32393(18) 0.2254(2) 0.9102(4)
C28_16 C 0.3694(2) 0.2770(2) 0.8511(5)
H12_16 H 0.3748 0.2998 0.8305
H13_16 H 0.3879 0.2809 0.8876
C29_16 C 0.3364(2) 0.2619(2) 0.8923(5)
H14_16 H 0.3190 0.2637 0.8606
H15_16 H 0.3394 0.2749 0.9400
C30_16 C 0.3477(2) 0.2197(2) 0.9649(5)
H17_16 H 0.3692 0.2251 0.9380
C31_16 C 0.3322(3) 0.1864(4) 0.9917(7)
H18_16 H 0.3300 0.1717 0.9476
C32_16 C 0.2732(3) 0.1747(3) 0.9794(8)
H21_16 H 0.2675 0.1598 0.9337
C33_16 C 0.2875(3) 0.2117(3) 0.9544(6)
H22_16 H 0.2708 0.2133 0.9201
H23_16 H 0.2910 0.2264 0.9994
H34_16 H 0.320136 0.211509 0.8605
O25_17 O 0.8701(3) 0.1542(4) 0.1635(7)
H11_17 H 0.8872 0.1569 0.1884
N2_17 N 0.8307(3) 0.1295(4) 0.0305(5)
H16_17 H 0.7642 0.1180 0.0085
H19_17 H 0.8146 0.1634 0.0270
H20_17 H 0.8328 0.0843 0.0082
C34_17 C 0.8160(3) 0.1191(4) 0.1131(7)
H24_17 H 0.7945 0.0963 0.1128
H25_17 H 0.8108 0.1364 0.1347
C35_17 C 0.8442(3) 0.1174(4) 0.1602(6)
H26_17 H 0.8531 0.1038 0.1341
H27_17 H 0.8358 0.1077 0.2116
H35_17 H 0.856853 0.147177 0.0338394
O24_17 O 0.74511(17) 0.11469(23) 0.7867(3)
H10_17 H 0.7482 0.1025 0.7550
N1_17 N 0.7746(2) 0.09849(27) 0.9102(4)
C28_17 C 0.7230(2) 0.0923(3) 0.8511(5)
H12_17 H 0.7002 0.0749 0.8305
H13_17 H 0.7191 0.1069 0.8876
C29_17 C 0.7381(2) 0.0744(3) 0.8923(5)
H14_17 H 0.7363 0.0552 0.8606
H15_17 H 0.7251 0.0644 0.9400
C30_17 C 0.7803(2) 0.1279(3) 0.9649(5)
H17_17 H 0.7749 0.1440 0.9380
C31_17 C 0.8136(4) 0.1457(5) 0.9917(7)
H18_17 H 0.8283 0.1582 0.9476
C32_17 C 0.8253(3) 0.0984(4) 0.9794(8)
H21_17 H 0.8402 0.1076 0.9337
C33_17 C 0.7883(3) 0.0757(4) 0.9544(6)
H22_17 H 0.7867 0.0574 0.9201
H23_17 H 0.7736 0.0645 0.9994
H34_17 H 0.788491 0.108627 0.8605
O25_18 O 0.8458(4) 0.7158(3) 0.1635(7)
H11_18 H 0.8431 0.7302 0.1884
N2_18 N 0.8705(4) 0.7011(3) 0.0305(5)
H16_18 H 0.8820 0.6461 0.0085
H19_18 H 0.8366 0.6511 0.0270
H20_18 H 0.9157 0.7484 0.0082
C34_18 C 0.8809(4) 0.6968(3) 0.1131(7)
H24_18 H 0.9037 0.6981 0.1128
H25_18 H 0.8636 0.6743 0.1347
C35_18 C 0.8826(4) 0.7267(3) 0.1602(6)
H26_18 H 0.8962 0.7492 0.1341
H27_18 H 0.8923 0.7280 0.2116
H35_18 H 0.852823 0.709675 0.0338394
O24_18 O 0.88531(23) 0.63041(16) 0.7867(3)
H10_18 H 0.8975 0.6456 0.7550
N1_18 N 0.90151(27) 0.67607(18) 0.9102(4)
C28_18 C 0.9077(3) 0.6306(2) 0.8511(5)
H12_18 H 0.9251 0.6252 0.8305
H13_18 H 0.8931 0.6121 0.8876
C29_18 C 0.9256(3) 0.6636(2) 0.8923(5)
H14_18 H 0.9448 0.6810 0.8606
H15_18 H 0.9356 0.6606 0.9400
C30_18 C 0.8721(3) 0.6523(2) 0.9649(5)
H17_18 H 0.8560 0.6308 0.9380
C31_18 C 0.8543(5) 0.6678(3) 0.9917(7)
H18_18 H 0.8418 0.6700 0.9476
C32_18 C 0.9016(4) 0.7268(3) 0.9794(8)
H21_18 H 0.8924 0.7325 0.9337
C33_18 C 0.9243(4) 0.7125(3) 0.9544(6)
H22_18 H 0.9426 0.7292 0.9201
H23_18 H 0.9355 0.7090 0.9994
H34_18 H 0.891373 0.679864 0.8605
H36 H 0.657854 0.210232 0.000193963
N3 N 0.6424(6) 0.2041(5) 0.9522(13)
C36 C 0.6369(4) 0.1702(5) 0.9261(9)
H28 H 0.6275 0.1536 0.9680
H29 H 0.6590 0.1727 0.9096
H30 H 0.6207 0.1620 0.8833
C37 C 0.6581(7) 0.2360(7) 0.9046(15)
H31 H 0.6590 0.2551 0.9340
H32 H 0.6440 0.2320 0.8589
H33 H 0.6815 0.2418 0.8897
H37 H 0.618225 0.199875 0.967592
H36_2 H 0.789768 0.447622 0.000193963
N3_2 N 0.7959(5) 0.4383(8) 0.9522(13)
C36_2 C 0.8298(5) 0.4667(6) 0.9261(9)
H28_2 H 0.8464 0.4739 0.9680
H29_2 H 0.8273 0.4863 0.9096
H30_2 H 0.8380 0.4587 0.8833
C37_2 C 0.7640(7) 0.4221(10) 0.9046(15)
H31_2 H 0.7449 0.4039 0.9340
H32_2 H 0.7680 0.4120 0.8589
H33_2 H 0.7582 0.4397 0.8897
H37_2 H 0.800125 0.41835 0.967592
H36_3 H 0.552378 0.342146 0.000193963
N3_3 N 0.5617(8) 0.3576(6) 0.9522(13)
C36_3 C 0.5333(6) 0.3631(4) 0.9261(9)
H28_3 H 0.5261 0.3725 0.9680
H29_3 H 0.5137 0.3410 0.9096
H30_3 H 0.5413 0.3793 0.8833
C37_3 C 0.5779(10) 0.3419(7) 0.9046(15)
H31_3 H 0.5961 0.3410 0.9340
H32_3 H 0.5880 0.3560 0.8589
H33_3 H 0.5603 0.3185 0.8897
H37_3 H 0.58165 0.381775 0.967592
N3_4 N 0.3091(6) 0.5374(5) 0.2855(13)
C36_4 C 0.3036(4) 0.5035(5) 0.2594(9)
H28_4 H 0.2942 0.4869 0.3013
H29_4 H 0.3257 0.5060 0.2429
H30_4 H 0.2874 0.4953 0.2166
C37_4 C 0.3248(7) 0.5693(7) 0.2379(15)
H31_4 H 0.3257 0.5884 0.2673
H32_4 H 0.3107 0.5653 0.1922
H33_4 H 0.3482 0.5751 0.2230
H36_4 H 0.324521 0.543565 0.333527
H37_4 H 0.284891 0.533209 0.300926
N3_5 N 0.4626(5) 0.7716(8) 0.2855(13)
C36_5 C 0.4965(5) 0.8000(6) 0.2594(9)
H28_5 H 0.5131 0.8072 0.3013
H29_5 H 0.4940 0.8196 0.2429
H30_5 H 0.5047 0.7920 0.2166
C37_5 C 0.4307(7) 0.7554(10) 0.2379(15)
H31_5 H 0.4116 0.7372 0.2673
H32_5 H 0.4347 0.7453 0.1922
H33_5 H 0.4249 0.7730 0.2230
H36_5 H 0.456435 0.780955 0.333527
H37_5 H 0.466791 0.751683 0.300926
N3_6 N 0.2284(8) 0.6909(6) 0.2855(13)
C36_6 C 0.2000(6) 0.6964(4) 0.2594(9)
H28_6 H 0.1928 0.7058 0.3013
H29_6 H 0.1804 0.6743 0.2429
H30_6 H 0.2080 0.7126 0.2166
C37_6 C 0.2446(10) 0.6752(7) 0.2379(15)
H31_6 H 0.2628 0.6743 0.2673
H32_6 H 0.2547 0.6893 0.1922
H33_6 H 0.2270 0.6518 0.2230
H36_6 H 0.219045 0.675479 0.333527
H37_6 H 0.248317 0.715109 0.300926
H33_7 H 0.0148 0.9085 0.5564
N3_7 N 0.9757(6) 0.8708(5) 0.6189(13)
C36_7 C 0.9702(4) 0.8369(5) 0.5928(9)
H28_7 H 0.9608 0.8203 0.6347
H29_7 H 0.9923 0.8394 0.5763
H30_7 H 0.9540 0.8287 0.5500
C37_7 C 0.9914(7) 0.9027(7) 0.5713(15)
H31_7 H 0.9923 0.9218 0.6007
H32_7 H 0.9773 0.8987 0.5256
H36_7 H 0.991187 0.876899 0.666861
H37_7 H 0.951558 0.866542 0.634259
N3_8 N 0.1292(5) 0.1050(8) 0.6189(13)
C36_8 C 0.1631(5) 0.1334(6) 0.5928(9)
H28_8 H 0.1797 0.1406 0.6347
H29_8 H 0.1606 0.1530 0.5763
H30_8 H 0.1713 0.1254 0.5500
C37_8 C 0.0973(7) 0.0888(10) 0.5713(15)
H31_8 H 0.0782 0.0706 0.6007
H32_8 H 0.1013 0.0787 0.5256
H33_8 H 0.0915 0.1064 0.5564
H36_8 H 0.123101 0.114289 0.666861
H37_8 H 0.133458 0.0850162 0.634259
N3_9 N 0.8950(8) 0.0243(6) 0.6189(13)
C36_9 C 0.8666(6) 0.0298(4) 0.5928(9)
H28_9 H 0.8594 0.0392 0.6347
H29_9 H 0.8470 0.0077 0.5763
H30_9 H 0.8746 0.0460 0.5500
C37_9 C 0.9112(10) 0.0086(7) 0.5713(15)
H31_9 H 0.9294 0.0077 0.6007
H32_9 H 0.9213 0.0227 0.5256
H36_9 H 0.885711 0.00881264 0.666861
H37_9 H 0.914984 0.0484419 0.634259
H33_9 H 0.8936 0.9852 0.5564
N3_10 N 0.3576(6) 0.7959(5) 0.0478(13)
C36_10 C 0.3631(4) 0.8298(5) 0.0739(9)
H28_10 H 0.3725 0.8464 0.0320
H29_10 H 0.3410 0.8273 0.0904
H30_10 H 0.3793 0.8380 0.1167
C37_10 C 0.3419(7) 0.7640(7) 0.0954(15)
H31_10 H 0.3410 0.7449 0.0660
H32_10 H 0.3560 0.7680 0.1411
H33_10 H 0.3185 0.7582 0.1103
H37_10 H 0.381775 0.800125 0.0324078
H36_10 H 0.342146 0.789768 0.999806
N3_11 N 0.2041(5) 0.5617(8) 0.0478(13)
C36_11 C 0.1702(5) 0.5333(6) 0.0739(9)
H28_11 H 0.1536 0.5261 0.0320
H29_11 H 0.1727 0.5137 0.0904
H30_11 H 0.1620 0.5413 0.1167
C37_11 C 0.2360(7) 0.5779(10) 0.0954(15)
H31_11 H 0.2551 0.5961 0.0660
H32_11 H 0.2320 0.5880 0.1411
H33_11 H 0.2418 0.5603 0.1103
H37_11 H 0.199875 0.58165 0.0324078
H36_11 H 0.210232 0.552378 0.999806
N3_12 N 0.4383(8) 0.6424(6) 0.0478(13)
C36_12 C 0.4667(6) 0.6369(4) 0.0739(9)
H28_12 H 0.4739 0.6275 0.0320
H29_12 H 0.4863 0.6590 0.0904
H30_12 H 0.4587 0.6207 0.1167
C37_12 C 0.4221(10) 0.6581(7) 0.0954(15)
H31_12 H 0.4039 0.6590 0.0660
H32_12 H 0.4120 0.6440 0.1411
H33_12 H 0.4397 0.6815 0.1103
H37_12 H 0.41835 0.618225 0.0324078
H36_12 H 0.447622 0.657854 0.999806
N3_13 N 0.6909(6) 0.4626(5) 0.7145(13)
C36_13 C 0.6964(4) 0.4965(5) 0.7406(9)
H28_13 H 0.7058 0.5131 0.6987
H29_13 H 0.6743 0.4940 0.7571
H30_13 H 0.7126 0.5047 0.7834
C37_13 C 0.6752(7) 0.4307(7) 0.7621(15)
H31_13 H 0.6743 0.4116 0.7327
H32_13 H 0.6893 0.4347 0.8078
H33_13 H 0.6518 0.4249 0.7770
H36_13 H 0.675479 0.456435 0.666473
H37_13 H 0.715109 0.466791 0.699074
N3_14 N 0.5374(5) 0.2284(8) 0.7145(13)
C36_14 C 0.5035(5) 0.2000(6) 0.7406(9)
H28_14 H 0.4869 0.1928 0.6987
H29_14 H 0.5060 0.1804 0.7571
H30_14 H 0.4953 0.2080 0.7834
C37_14 C 0.5693(7) 0.2446(10) 0.7621(15)
H31_14 H 0.5884 0.2628 0.7327
H32_14 H 0.5653 0.2547 0.8078
H33_14 H 0.5751 0.2270 0.7770
H36_14 H 0.543565 0.219045 0.666473
H37_14 H 0.533209 0.248317 0.699074
N3_15 N 0.7716(8) 0.3091(6) 0.7145(13)
C36_15 C 0.8000(6) 0.3036(4) 0.7406(9)
H28_15 H 0.8072 0.2942 0.6987
H29_15 H 0.8196 0.3257 0.7571
H30_15 H 0.7920 0.2874 0.7834
C37_15 C 0.7554(10) 0.3248(7) 0.7621(15)
H31_15 H 0.7372 0.3257 0.7327
H32_15 H 0.7453 0.3107 0.8078
H33_15 H 0.7730 0.3482 0.7770
H36_15 H 0.780955 0.324521 0.666473
H37_15 H 0.751683 0.284891 0.699074
N3_16 N 0.0243(6) 0.1292(5) 0.3811(13)
C36_16 C 0.0298(4) 0.1631(5) 0.4072(9)
H28_16 H 0.0392 0.1797 0.3653
H29_16 H 0.0077 0.1606 0.4237
H30_16 H 0.0460 0.1713 0.4500
C37_16 C 0.0086(7) 0.0973(7) 0.4287(15)
H31_16 H 0.0077 0.0782 0.3993
H32_16 H 0.0227 0.1013 0.4744
H36_16 H 0.00881264 0.123101 0.333139
H37_16 H 0.0484419 0.133458 0.365741
H33_16 H 0.9852 0.0915 0.4436
N3_17 N 0.8708(5) 0.8950(8) 0.3811(13)
C36_17 C 0.8369(5) 0.8666(6) 0.4072(9)
H28_17 H 0.8203 0.8594 0.3653
H29_17 H 0.8394 0.8470 0.4237
H30_17 H 0.8287 0.8746 0.4500
C37_17 C 0.9027(7) 0.9112(10) 0.4287(15)
H31_17 H 0.9218 0.9294 0.3993
H32_17 H 0.8987 0.9213 0.4744
H33_17 H 0.9085 0.8936 0.4436
H36_17 H 0.876899 0.885711 0.333139
H37_17 H 0.866542 0.914984 0.365741
H33_18 H 0.1064 0.0148 0.4436
N3_18 N 0.1050(8) 0.9757(6) 0.3811(13)
C36_18 C 0.1334(6) 0.9702(4) 0.4072(9)
H28_18 H 0.1406 0.9608 0.3653
H29_18 H 0.1530 0.9923 0.4237
H30_18 H 0.1254 0.9540 0.4500
C37_18 C 0.0888(10) 0.9914(7) 0.4287(15)
H31_18 H 0.0706 0.9923 0.3993
H32_18 H 0.0787 0.9773 0.4744
H36_18 H 0.114289 0.991187 0.333139
H37_18 H 0.0850162 0.951558 0.365741
loop_
_geom_bond_atom_site_label_1
_geom_bond_atom_site_label_2
_geom_bond_site_symmetry_1
_geom_bond_site_symmetry_2
Zn1 O1 1_555 1_555
Zn3 O4 1_555 1_555
O1 C1 1_555 1_555
O2 C1 1_555 1_555
O3 C8 1_555 1_555
O4 C8 1_555 1_555
O5 C9 1_555 1_555
O6 C9 1_555 1_555
O8 Zn1 1_555 1_555
O9 C17 1_555 1_555
O10 C17 1_555 1_555
O14 Zn1 1_555 1_555
O17 C27 1_555 1_555
O18 C27 1_555 1_555
C1 C2 1_555 1_555
C2 C3 1_555 1_555
C3 H1 1_555 1_555
C4 C3 1_555 1_555
C5 C4 1_555 1_555
H2 C5 1_555 1_555
C6 C5 1_555 1_555
C7 C2 1_555 1_555
H3 C7 1_555 1_555
C8 C4 1_555 1_555
C9 C6 1_555 1_555
C10 O7 1_555 1_555
C11 C10 1_555 1_555
C12 C11 1_555 1_555
H4 C12 1_555 1_555
C13 C12 1_555 1_555
C14 C13 1_555 1_555
C15 C14 1_555 1_555
C16 C11 1_555 1_555
H6 C16 1_555 1_555
C17 C13 1_555 1_555
H7 C21 1_555 1_555
C22 C21 1_555 1_555
C27 C22 1_555 1_555
Zn4 O5 1_555 1_555
Zn6 O9 1_555 1_555
Zn8 O17 1_555 1_555
O19 Zn1 1_555 1_555
O20 Zn3 1_555 1_555
O23 Zn3 1_555 1_555
O8 C10 1_555 1_555
O14 C19 1_555 1_555
C6 C7 1_555 1_555
C15 C16 1_555 1_555
O13 Zn2 1_555 1_555
O15 C26 1_555 1_555
O16 C26 1_555 1_555
C23 C24 1_555 1_555
H8 C24 1_555 1_555
C25 C20 1_555 1_555
H9 C25 1_555 1_555
C26 C23 1_555 1_555
Zn5 O16 1_555 1_555
O22 Zn2 1_555 1_555
C23 C25 1_555 1_555
O12 C18 1_555 1_555
O12_2 C18_2 1_555 1_555
Zn1_2 O1_2 1_555 1_555
Zn3_2 O4_2 1_555 1_555
O1_2 C1_2 1_555 1_555
O2_2 C1_2 1_555 1_555
O3_2 C8_2 1_555 1_555
O4_2 C8_2 1_555 1_555
O5_2 C9_2 1_555 1_555
O6_2 C9_2 1_555 1_555
O8_2 Zn1_2 1_555 1_555
O9_2 C17_2 1_555 1_555
O10_2 C17_2 1_555 1_555
O14_2 Zn1_2 1_555 1_555
O23 C27_2 1_555 1_555
O18_2 C27_2 1_555 1_555
C1_2 C2_2 1_555 1_555
C2_2 C3_2 1_555 1_555
C3_2 H1_2 1_555 1_555
C4_2 C3_2 1_555 1_555
C5_2 C4_2 1_555 1_555
H2_2 C5_2 1_555 1_555
C6_2 C5_2 1_555 1_555
C7_2 C2_2 1_555 1_555
H3_2 C7_2 1_555 1_555
C8_2 C4_2 1_555 1_555
C9_2 C6_2 1_555 1_555
C10_2 O7_2 1_555 1_555
C11_2 C10_2 1_555 1_555
C12_2 C11_2 1_555 1_555
H4_2 C12_2 1_555 1_555
C13_2 C12_2 1_555 1_555
C14_2 C13_2 1_555 1_555
C15_2 C14_2 1_555 1_555
C16_2 C11_2 1_555 1_555
H6_2 C16_2 1_555 1_555
C17_2 C13_2 1_555 1_555
H7_2 C21_2 1_555 1_555
C22_2 C21_2 1_555 1_555
C27_2 C22_2 1_555 1_555
Zn4_2 O5_2 1_555 1_555
Zn6_2 O9_2 1_555 1_555
O19_2 Zn1_2 1_555 1_555
O20_2 Zn3_2 1_555 1_555
O23_2 Zn3_2 1_555 1_555
O8_2 C10_2 1_555 1_555
O14_2 C19_2 1_555 1_555
C6_2 C7_2 1_555 1_555
C15_2 C16_2 1_555 1_555
O13_2 Zn2_2 1_555 1_555
O15_2 C26_2 1_555 1_555
O16_2 C26_2 1_555 1_555
C23_2 C24_2 1_555 1_555
H8_2 C24_2 1_555 1_555
C25_2 C20_2 1_555 1_555
H9_2 C25_2 1_555 1_555
C26_2 C23_2 1_555 1_555
Zn5_2 O16_2 1_555 1_555
O22_2 Zn2_2 1_555 1_555
C23_2 C25_2 1_555 1_555
Zn1_3 O1_3 1_555 1_555
Zn8 O4_3 1_555 1_555
O1_3 C1_3 1_555 1_555
O2_3 C1_3 1_555 1_555
O3_3 C8_3 1_555 1_555
O4_3 C8_3 1_555 1_555
O5_3 C9_3 1_555 1_555
O6_3 C9_3 1_555 1_555
O8_3 Zn1_3 1_555 1_555
O9_3 C17_3 1_555 1_555
O10_3 C17_3 1_555 1_555
O12_3 C18_3 1_555 1_555
O14_3 Zn1_3 1_555 1_555
O23_2 C27_3 1_555 1_555
O18_3 C27_3 1_555 1_555
C1_3 C2_3 1_555 1_555
C2_3 C3_3 1_555 1_555
C3_3 H1_3 1_555 1_555
C4_3 C3_3 1_555 1_555
C5_3 C4_3 1_555 1_555
H2_3 C5_3 1_555 1_555
C6_3 C5_3 1_555 1_555
C7_3 C2_3 1_555 1_555
H3_3 C7_3 1_555 1_555
C8_3 C4_3 1_555 1_555
C9_3 C6_3 1_555 1_555
C10_3 O7_3 1_555 1_555
C11_3 C10_3 1_555 1_555
C12_3 C11_3 1_555 1_555
H4_3 C12_3 1_555 1_555
C13_3 C12_3 1_555 1_555
C14_3 C13_3 1_555 1_555
H5_3 C14_3 1_555 1_555
C15_3 C14_3 1_555 1_555
C16_3 C11_3 1_555 1_555
H6_3 C16_3 1_555 1_555
C17_3 C13_3 1_555 1_555
C18_3 C15_3 1_555 1_555
H7_3 C21_3 1_555 1_555
C22_3 C21_3 1_555 1_555
C27_3 C22_3 1_555 1_555
Zn4_3 O5_3 1_555 1_555
Zn6_3 O9_3 1_555 1_555
O19_3 Zn1_3 1_555 1_555
O20_3 Zn8 1_555 1_555
O8_3 C10_3 1_555 1_555
O14_3 C19_3 1_555 1_555
C6_3 C7_3 1_555 1_555
C15_3 C16_3 1_555 1_555
O13_3 Zn2_3 1_555 1_555
O15_3 C26_3 1_555 1_555
O16_3 C26_3 1_555 1_555
C23_3 C24_3 1_555 1_555
H8_3 C24_3 1_555 1_555
C25_3 C20_3 1_555 1_555
H9_3 C25_3 1_555 1_555
C26_3 C23_3 1_555 1_555
Zn5_3 O16_3 1_555 1_555
O22_3 Zn2_3 1_555 1_555
C23_3 C25_3 1_555 1_555
Zn1_4 O1_4 1_555 1_555
Zn2_4 O2_4 1_555 1_555
Zn3_3 O4_4 1_555 1_555
O1_4 C1_4 1_555 1_555
O2_4 C1_4 1_555 1_555
O3_4 C8_4 1_555 1_555
O4_4 C8_4 1_555 1_555
O5_4 C9_4 1_555 1_555
O6_4 C9_4 1_555 1_555
O7_4 Zn2_4 1_555 1_555
O8_4 Zn1_4 1_555 1_555
O11_4 C18_4 1_555 1_555
O12_4 C18_4 1_555 1_555
O13_4 Zn2_4 1_555 1_555
O14_4 Zn1_4 1_555 1_555
O15_4 C26_4 1_555 1_555
O16_4 C26_4 1_555 1_555
O17_2 C27_4 1_555 1_555
O18_4 C27_4 1_555 1_555
C1_4 C2_4 1_555 1_555
C2_4 C3_4 1_555 1_555
C3_4 H1_4 1_555 1_555
C4_4 C3_4 1_555 1_555
C5_4 C4_4 1_555 1_555
H2_4 C5_4 1_555 1_555
C6_4 C5_4 1_555 1_555
C7_4 C2_4 1_555 1_555
H3_4 C7_4 1_555 1_555
C8_4 C4_4 1_555 1_555
C9_4 C6_4 1_555 1_555
C10_4 O7_4 1_555 1_555
C11_4 C10_4 1_555 1_555
C12_4 C11_4 1_555 1_555
H4_4 C12_4 1_555 1_555
C13_4 C12_4 1_555 1_555
C14_4 C13_4 1_555 1_555
C15_4 C14_4 1_555 1_555
C16_4 C11_4 1_555 1_555
H6_4 C16_4 1_555 1_555
C18_4 C15_4 1_555 1_555
C19_4 O13_4 1_555 1_555
C20_4 C19_4 1_555 1_555
C21_4 C20_4 1_555 1_555
H7_4 C21_4 1_555 1_555
C22_4 C21_4 1_555 1_555
C23_4 C24_4 1_555 1_555
C24_4 C22_4 1_555 1_555
H8_4 C24_4 1_555 1_555
C25_4 C20_4 1_555 1_555
H9_4 C25_4 1_555 1_555
C26_4 C23_4 1_555 1_555
C27_4 C22_4 1_555 1_555
Zn4_4 O5_4 1_555 1_555
Zn5_4 O16_4 1_555 1_555
Zn8_2 O17_2 1_555 1_555
O19_4 Zn1_4 1_555 1_555
O20_4 Zn3_3 1_555 1_555
O21_4 Zn3_3 1_555 1_555
O22_4 Zn2_4 1_555 1_555
O23_3 Zn3_3 1_555 1_555
O8_4 C10_4 1_555 1_555
O14_4 C19_4 1_555 1_555
C6_4 C7_4 1_555 1_555
C15_4 C16_4 1_555 1_555
C23_4 C25_4 1_555 1_555
O9_4 C17_4 1_555 1_555
O10_4 C17_4 1_555 1_555
Zn6_4 O9_4 1_555 1_555
Zn1_5 O1_5 1_555 1_555
Zn2_5 O2_5 1_555 1_555
Zn3_4 O4_5 1_555 1_555
O1_5 C1_5 1_555 1_555
O2_5 C1_5 1_555 1_555
O3_5 C8_5 1_555 1_555
O4_5 C8_5 1_555 1_555
O5_5 C9_5 1_555 1_555
O6_5 C9_5 1_555 1_555
O7_5 Zn2_5 1_555 1_555
O8_5 Zn1_5 1_555 1_555
O9_5 C17_5 1_555 1_555
O10_5 C17_5 1_555 1_555
O11_5 C18_5 1_555 1_555
O12_5 C18_5 1_555 1_555
O13_5 Zn2_5 1_555 1_555
O14_5 Zn1_5 1_555 1_555
O15_5 C26_5 1_555 1_555
O16_5 C26_5 1_555 1_555
O23_3 C27_5 1_555 1_555
O18_5 C27_5 1_555 1_555
C1_5 C2_5 1_555 1_555
C2_5 C3_5 1_555 1_555
C3_5 H1_5 1_555 1_555
C4_5 C3_5 1_555 1_555
C5_5 C4_5 1_555 1_555
H2_5 C5_5 1_555 1_555
C6_5 C5_5 1_555 1_555
C7_5 C2_5 1_555 1_555
H3_5 C7_5 1_555 1_555
C8_5 C4_5 1_555 1_555
C9_5 C6_5 1_555 1_555
C10_5 O7_5 1_555 1_555
C11_5 C10_5 1_555 1_555
C12_5 C11_5 1_555 1_555
H4_5 C12_5 1_555 1_555
C13_5 C12_5 1_555 1_555
C14_5 C13_5 1_555 1_555
H5_5 C14_5 1_555 1_555
C15_5 C14_5 1_555 1_555
C16_5 C11_5 1_555 1_555
H6_5 C16_5 1_555 1_555
C17_5 C13_5 1_555 1_555
C18_5 C15_5 1_555 1_555
C19_5 O13_5 1_555 1_555
C20_5 C19_5 1_555 1_555
C21_5 C20_5 1_555 1_555
H7_5 C21_5 1_555 1_555
C22_5 C21_5 1_555 1_555
C23_5 C24_5 1_555 1_555
C24_5 C22_5 1_555 1_555
H8_5 C24_5 1_555 1_555
C25_5 C20_5 1_555 1_555
H9_5 C25_5 1_555 1_555
C26_5 C23_5 1_555 1_555
C27_5 C22_5 1_555 1_555
Zn4_5 O5_5 1_555 1_555
Zn5_5 O16_5 1_555 1_555
Zn6_5 O9_5 1_555 1_555
Zn6_3 O12_5 1_555 1_555
O19_5 Zn1_5 1_555 1_555
O20_5 Zn3_4 1_555 1_555
O21_5 Zn3_4 1_555 1_555
O22_5 Zn2_5 1_555 1_555
O23_4 Zn3_4 1_555 1_555
O8_5 C10_5 1_555 1_555
O14_5 C19_5 1_555 1_555
C6_5 C7_5 1_555 1_555
C15_5 C16_5 1_555 1_555
C23_5 C25_5 1_555 1_555
O9_6 C17_6 1_555 1_555
O10_6 C17_6 1_555 1_555
Zn6_6 O9_6 1_555 1_555
Zn1_6 O1_6 1_555 1_555
Zn2_6 O2_6 1_555 1_555
Zn8_2 O4_6 1_555 1_555
O1_6 C1_6 1_555 1_555
O2_6 C1_6 1_555 1_555
O3_6 C8_6 1_555 1_555
O4_6 C8_6 1_555 1_555
O5_6 C9_6 1_555 1_555
O6_6 C9_6 1_555 1_555
O7_6 Zn2_6 1_555 1_555
O8_6 Zn1_6 1_555 1_555
O11_6 C18_6 1_555 1_555
O12_6 C18_6 1_555 1_555
O13_6 Zn2_6 1_555 1_555
O14_6 Zn1_6 1_555 1_555
O15_6 C26_6 1_555 1_555
O16_6 C26_6 1_555 1_555
O23_4 C27_6 1_555 1_555
O18_6 C27_6 1_555 1_555
C1_6 C2_6 1_555 1_555
C2_6 C3_6 1_555 1_555
C3_6 H1_6 1_555 1_555
C4_6 C3_6 1_555 1_555
C5_6 C4_6 1_555 1_555
H2_6 C5_6 1_555 1_555
C6_6 C5_6 1_555 1_555
C7_6 C2_6 1_555 1_555
H3_6 C7_6 1_555 1_555
C8_6 C4_6 1_555 1_555
C9_6 C6_6 1_555 1_555
C10_6 O7_6 1_555 1_555
C11_6 C10_6 1_555 1_555
C12_6 C11_6 1_555 1_555
H4_6 C12_6 1_555 1_555
C13_6 C12_6 1_555 1_555
C14_6 C13_6 1_555 1_555
C15_6 C14_6 1_555 1_555
C16_6 C11_6 1_555 1_555
H6_6 C16_6 1_555 1_555
C18_6 C15_6 1_555 1_555
C19_6 O13_6 1_555 1_555
C20_6 C19_6 1_555 1_555
C21_6 C20_6 1_555 1_555
H7_6 C21_6 1_555 1_555
C22_6 C21_6 1_555 1_555
C23_6 C24_6 1_555 1_555
C24_6 C22_6 1_555 1_555
H8_6 C24_6 1_555 1_555
C25_6 C20_6 1_555 1_555
H9_6 C25_6 1_555 1_555
C26_6 C23_6 1_555 1_555
C27_6 C22_6 1_555 1_555
Zn4_6 O5_6 1_555 1_555
Zn5_6 O16_6 1_555 1_555
O19_6 Zn1_6 1_555 1_555
O20_6 Zn8_2 1_555 1_555
O21_6 Zn8_2 1_555 1_555
O22_6 Zn2_6 1_555 1_555
O8_6 C10_6 1_555 1_555
O14_6 C19_6 1_555 1_555
C6_6 C7_6 1_555 1_555
C15_6 C16_6 1_555 1_555
C23_6 C25_6 1_555 1_555
O20_7 Zn3_5 1_555 1_555
O23_5 Zn3_5 1_555 1_555
O5_7 C9_7 1_555 1_555
O6_7 C9_7 1_555 1_555
Zn4_7 O5_7 1_555 1_555
Zn1_7 O1_7 1_555 1_555
Zn2_7 O2_7 1_555 1_555
O1_7 C1_7 1_555 1_555
O2_7 C1_7 1_555 1_555
O3_7 C8_7 1_555 1_555
O4_7 C8_7 1_555 1_555
O7_7 Zn2_7 1_555 1_555
O8_7 Zn1_7 1_555 1_555
O9_7 C17_7 1_555 1_555
O10_7 C17_7 1_555 1_555
O11_7 C18_7 1_555 1_555
O12_7 C18_7 1_555 1_555
O13_7 Zn2_7 1_555 1_555
O14_7 Zn1_7 1_555 1_555
O15_7 C26_7 1_555 1_555
O16_7 C26_7 1_555 1_555
O17_3 C27_7 1_555 1_555
O18_7 C27_7 1_555 1_555
C1_7 C2_7 1_555 1_555
C2_7 C3_7 1_555 1_555
C3_7 H1_7 1_555 1_555
C4_7 C3_7 1_555 1_555
C5_7 C4_7 1_555 1_555
H2_7 C5_7 1_555 1_555
C6_7 C5_7 1_555 1_555
C7_7 C2_7 1_555 1_555
H3_7 C7_7 1_555 1_555
C8_7 C4_7 1_555 1_555
C10_7 O7_7 1_555 1_555
C11_7 C10_7 1_555 1_555
C12_7 C11_7 1_555 1_555
H4_7 C12_7 1_555 1_555
C13_7 C12_7 1_555 1_555
C14_7 C13_7 1_555 1_555
H5_7 C14_7 1_555 1_555
C15_7 C14_7 1_555 1_555
C16_7 C11_7 1_555 1_555
H6_7 C16_7 1_555 1_555
C17_7 C13_7 1_555 1_555
C18_7 C15_7 1_555 1_555
C19_7 O13_7 1_555 1_555
C20_7 C19_7 1_555 1_555
C21_7 C20_7 1_555 1_555
H7_7 C21_7 1_555 1_555
C22_7 C21_7 1_555 1_555
C23_7 C24_7 1_555 1_555
C24_7 C22_7 1_555 1_555
H8_7 C24_7 1_555 1_555
C25_7 C20_7 1_555 1_555
H9_7 C25_7 1_555 1_555
C26_7 C23_7 1_555 1_555
C27_7 C22_7 1_555 1_555
Zn5_7 O16_7 1_555 1_555
Zn7_3 O9_7 1_555 1_555
Zn6_5 O12_7 1_555 1_555
Zn8_3 O17_3 1_555 1_555
O19_7 Zn1_7 1_555 1_555
O22_7 Zn2_7 1_555 1_555
O8_7 C10_7 1_555 1_555
O14_7 C19_7 1_555 1_555
C6_7 C7_7 1_555 1_555
C15_7 C16_7 1_555 1_555
C23_7 C25_7 1_555 1_555
O5_8 C9_8 1_555 1_555
O6_8 C9_8 1_555 1_555
Zn4_8 O5_8 1_555 1_555
Zn2_8 O2_8 1_555 1_555
Zn3_6 O4_8 1_555 1_555
O1_8 C1_8 1_555 1_555
O2_8 C1_8 1_555 1_555
O3_8 C8_8 1_555 1_555
O4_8 C8_8 1_555 1_555
O7_8 Zn2_8 1_555 1_555
O11_8 C18_8 1_555 1_555
O12_8 C18_8 1_555 1_555
C1_8 C2_8 1_555 1_555
C2_8 C3_8 1_555 1_555
C3_8 H1_8 1_555 1_555
C4_8 C3_8 1_555 1_555
C5_8 C4_8 1_555 1_555
H2_8 C5_8 1_555 1_555
C6_8 C5_8 1_555 1_555
C7_8 C2_8 1_555 1_555
H3_8 C7_8 1_555 1_555
C8_8 C4_8 1_555 1_555
C10_8 O7_8 1_555 1_555
C11_8 C10_8 1_555 1_555
H5_8 C14_8 1_555 1_555
C15_8 C14_8 1_555 1_555
C16_8 C11_8 1_555 1_555
H6_8 C16_8 1_555 1_555
C18_8 C15_8 1_555 1_555
Zn6_6 O12_8 1_555 1_555
O20_8 Zn3_6 1_555 1_555
O21_8 Zn3_6 1_555 1_555
O22_8 Zn2_8 1_555 1_555
O23_6 Zn3_6 1_555 1_555
C6_8 C7_8 1_555 1_555
C15_8 C16_8 1_555 1_555
O8_8 Zn1_8 1_555 1_555
O9_8 C17_8 1_555 1_555
O10_8 C17_8 1_555 1_555
O14_8 Zn1_8 1_555 1_555
O15_8 C26_8 1_555 1_555
O16_8 C26_8 1_555 1_555
O23_5 C27_8 1_555 1_555
O18_8 C27_8 1_555 1_555
H4_8 C12_8 1_555 1_555
C13_8 C12_8 1_555 1_555
C17_8 C13_8 1_555 1_555
C19_8 O13_8 1_555 1_555
C20_8 C19_8 1_555 1_555
C21_8 C20_8 1_555 1_555
H7_8 C21_8 1_555 1_555
C22_8 C21_8 1_555 1_555
C23_8 C24_8 1_555 1_555
C24_8 C22_8 1_555 1_555
H8_8 C24_8 1_555 1_555
C25_8 C20_8 1_555 1_555
H9_8 C25_8 1_555 1_555
C26_8 C23_8 1_555 1_555
C27_8 C22_8 1_555 1_555
Zn5_8 O16_8 1_555 1_555
Zn7 O9_8 1_555 1_555
O19_8 Zn1_8 1_555 1_555
O14_8 C19_8 1_555 1_555
C23_8 C25_8 1_555 1_555
O8_9 Zn1_9 1_555 1_555
O9_9 C17_9 1_555 1_555
O10_9 C17_9 1_555 1_555
O14_9 Zn1_9 1_555 1_555
O15_9 C26_9 1_555 1_555
O16_9 C26_9 1_555 1_555
O23_6 C27_9 1_555 1_555
O18_9 C27_9 1_555 1_555
H4_9 C12_9 1_555 1_555
C13_9 C12_9 1_555 1_555
C17_9 C13_9 1_555 1_555
C19_9 O13_9 1_555 1_555
C20_9 C19_9 1_555 1_555
C21_9 C20_9 1_555 1_555
H7_9 C21_9 1_555 1_555
C22_9 C21_9 1_555 1_555
C23_9 C24_9 1_555 1_555
C24_9 C22_9 1_555 1_555
H8_9 C24_9 1_555 1_555
C25_9 C20_9 1_555 1_555
H9_9 C25_9 1_555 1_555
C26_9 C23_9 1_555 1_555
C27_9 C22_9 1_555 1_555
Zn5_9 O16_9 1_555 1_555
Zn7_2 O9_9 1_555 1_555
O19_9 Zn1_9 1_555 1_555
O14_9 C19_9 1_555 1_555
C23_9 C25_9 1_555 1_555
O5_9 C9_9 1_555 1_555
O6_9 C9_9 1_555 1_555
Zn4_9 O5_9 1_555 1_555
Zn2_9 O2_9 1_555 1_555
O1_9 C1_9 1_555 1_555
O2_9 C1_9 1_555 1_555
O3_9 C8_9 1_555 1_555
O4_9 C8_9 1_555 1_555
O7_9 Zn2_9 1_555 1_555
O11_9 C18_9 1_555 1_555
O12_9 C18_9 1_555 1_555
C1_9 C2_9 1_555 1_555
C2_9 C3_9 1_555 1_555
C3_9 H1_9 1_555 1_555
C4_9 C3_9 1_555 1_555
C5_9 C4_9 1_555 1_555
H2_9 C5_9 1_555 1_555
C6_9 C5_9 1_555 1_555
C7_9 C2_9 1_555 1_555
H3_9 C7_9 1_555 1_555
C8_9 C4_9 1_555 1_555
C10_9 O7_9 1_555 1_555
C11_9 C10_9 1_555 1_555
H5_9 C14_9 1_555 1_555
C15_9 C14_9 1_555 1_555
C16_9 C11_9 1_555 1_555
H6_9 C16_9 1_555 1_555
C18_9 C15_9 1_555 1_555
Zn6_4 O12_9 1_555 1_555
O22_9 Zn2_9 1_555 1_555
C6_9 C7_9 1_555 1_555
C15_9 C16_9 1_555 1_555
O20_9 Zn8_3 1_555 1_555
O21 C18_10 1_555 1_555
O13_10 Zn5_6 1_555 1_555
O15_10 C26_10 1_555 1_555
O22_5 C26_10 1_555 1_555
C23_10 C24_10 1_555 1_555
H8_10 C24_10 1_555 1_555
C25_10 C20_10 1_555 1_555
H9_10 C25_10 1_555 1_555
C26_10 C23_10 1_555 1_555
C23_10 C25_10 1_555 1_555
Zn4_5 O1_10 1_555 1_555
Zn7 O4_10 1_555 1_555
O1_10 C1_10 1_555 1_555
O2_10 C1_10 1_555 1_555
O3_10 C8_10 1_555 1_555
O4_10 C8_10 1_555 1_555
O19_6 C9_10 1_555 1_555
O6_10 C9_10 1_555 1_555
O8_10 Zn4_5 1_555 1_555
O20_9 C17_10 1_555 1_555
O10_10 C17_10 1_555 1_555
O14_10 Zn4_5 1_555 1_555
O17_4 C27_10 1_555 1_555
O18_10 C27_10 1_555 1_555
C1_10 C2_10 1_555 1_555
C2_10 C3_10 1_555 1_555
C3_10 H1_10 1_555 1_555
C4_10 C3_10 1_555 1_555
C5_10 C4_10 1_555 1_555
H2_10 C5_10 1_555 1_555
C6_10 C5_10 1_555 1_555
C7_10 C2_10 1_555 1_555
H3_10 C7_10 1_555 1_555
C8_10 C4_10 1_555 1_555
C9_10 C6_10 1_555 1_555
C10_10 O7_10 1_555 1_555
C11_10 C10_10 1_555 1_555
C12_10 C11_10 1_555 1_555
H4_10 C12_10 1_555 1_555
C13_10 C12_10 1_555 1_555
C14_10 C13_10 1_555 1_555
C15_10 C14_10 1_555 1_555
C16_10 C11_10 1_555 1_555
H6_10 C16_10 1_555 1_555
C17_10 C13_10 1_555 1_555
H7_10 C21_10 1_555 1_555
C22_10 C21_10 1_555 1_555
C27_10 C22_10 1_555 1_555
Zn7_3 O17_4 1_555 1_555
O23_7 Zn7 1_555 1_555
O8_10 C10_10 1_555 1_555
O14_10 C19_10 1_555 1_555
C6_10 C7_10 1_555 1_555
C15_10 C16_10 1_555 1_555
O13_11 Zn5_4 1_555 1_555
O15_11 C26_11 1_555 1_555
O22_6 C26_11 1_555 1_555
C23_11 C24_11 1_555 1_555
H8_11 C24_11 1_555 1_555
C25_11 C20_11 1_555 1_555
H9_11 C25_11 1_555 1_555
C26_11 C23_11 1_555 1_555
C23_11 C25_11 1_555 1_555
Zn4_6 O1_11 1_555 1_555
Zn7_2 O4_11 1_555 1_555
O1_11 C1_11 1_555 1_555
O2_11 C1_11 1_555 1_555
O3_11 C8_11 1_555 1_555
O4_11 C8_11 1_555 1_555
O19_4 C9_11 1_555 1_555
O6_11 C9_11 1_555 1_555
O8_11 Zn4_6 1_555 1_555
O20_7 C17_11 1_555 1_555
O10_11 C17_11 1_555 1_555
O14_11 Zn4_6 1_555 1_555
O23_7 C27_11 1_555 1_555
O18_11 C27_11 1_555 1_555
C1_11 C2_11 1_555 1_555
C2_11 C3_11 1_555 1_555
C3_11 H1_11 1_555 1_555
C4_11 C3_11 1_555 1_555
C5_11 C4_11 1_555 1_555
H2_11 C5_11 1_555 1_555
C6_11 C5_11 1_555 1_555
C7_11 C2_11 1_555 1_555
H3_11 C7_11 1_555 1_555
C8_11 C4_11 1_555 1_555
C9_11 C6_11 1_555 1_555
C10_11 O7_11 1_555 1_555
C11_11 C10_11 1_555 1_555
C12_11 C11_11 1_555 1_555
H4_11 C12_11 1_555 1_555
C13_11 C12_11 1_555 1_555
C14_11 C13_11 1_555 1_555
C15_11 C14_11 1_555 1_555
C16_11 C11_11 1_555 1_555
H6_11 C16_11 1_555 1_555
C17_11 C13_11 1_555 1_555
H7_11 C21_11 1_555 1_555
C22_11 C21_11 1_555 1_555
C27_11 C22_11 1_555 1_555
O23_8 Zn7_2 1_555 1_555
O8_11 C10_11 1_555 1_555
O14_11 C19_11 1_555 1_555
C6_11 C7_11 1_555 1_555
C15_11 C16_11 1_555 1_555
O21_2 C18_11 1_555 1_555
O13_12 Zn5_5 1_555 1_555
O15_12 C26_12 1_555 1_555
O22_4 C26_12 1_555 1_555
C23_12 C24_12 1_555 1_555
H8_12 C24_12 1_555 1_555
C25_12 C20_12 1_555 1_555
H9_12 C25_12 1_555 1_555
C26_12 C23_12 1_555 1_555
C23_12 C25_12 1_555 1_555
Zn4_4 O1_12 1_555 1_555
Zn7_3 O4_12 1_555 1_555
O1_12 C1_12 1_555 1_555
O2_12 C1_12 1_555 1_555
O3_12 C8_12 1_555 1_555
O4_12 C8_12 1_555 1_555
O19_5 C9_12 1_555 1_555
O6_12 C9_12 1_555 1_555
O8_12 Zn4_4 1_555 1_555
O20_8 C17_12 1_555 1_555
O10_12 C17_12 1_555 1_555
O21_3 C18_12 1_555 1_555
O14_12 Zn4_4 1_555 1_555
O23_8 C27_12 1_555 1_555
O18_12 C27_12 1_555 1_555
C1_12 C2_12 1_555 1_555
C2_12 C3_12 1_555 1_555
C3_12 H1_12 1_555 1_555
C4_12 C3_12 1_555 1_555
C5_12 C4_12 1_555 1_555
H2_12 C5_12 1_555 1_555
C6_12 C5_12 1_555 1_555
C7_12 C2_12 1_555 1_555
H3_12 C7_12 1_555 1_555
C8_12 C4_12 1_555 1_555
C9_12 C6_12 1_555 1_555
C10_12 O7_12 1_555 1_555
C11_12 C10_12 1_555 1_555
C12_12 C11_12 1_555 1_555
H4_12 C12_12 1_555 1_555
C13_12 C12_12 1_555 1_555
C14_12 C13_12 1_555 1_555
H5_12 C14_12 1_555 1_555
C15_12 C14_12 1_555 1_555
C16_12 C11_12 1_555 1_555
H6_12 C16_12 1_555 1_555
C17_12 C13_12 1_555 1_555
C18_12 C15_12 1_555 1_555
H7_12 C21_12 1_555 1_555
C22_12 C21_12 1_555 1_555
C27_12 C22_12 1_555 1_555
O8_12 C10_12 1_555 1_555
O14_12 C19_12 1_555 1_555
C6_12 C7_12 1_555 1_555
C15_12 C16_12 1_555 1_555
O20_6 C17_13 1_555 1_555
O10_13 C17_13 1_555 1_555
Zn4_2 O1_13 1_555 1_555
Zn5_3 O2_13 1_555 1_555
Zn6_5 O4_13 1_555 1_555
O1_13 C1_13 1_555 1_555
O2_13 C1_13 1_555 1_555
O3_13 C8_13 1_555 1_555
O4_13 C8_13 1_555 1_555
O19_3 C9_13 1_555 1_555
O6_13 C9_13 1_555 1_555
O7_13 Zn5_3 1_555 1_555
O8_13 Zn4_2 1_555 1_555
O11_13 C18_13 1_555 1_555
O21_7 C18_13 1_555 1_555
O13_13 Zn5_3 1_555 1_555
O14_13 Zn4_2 1_555 1_555
O15_13 C26_13 1_555 1_555
O22_2 C26_13 1_555 1_555
O17_5 C27_13 1_555 1_555
O18_13 C27_13 1_555 1_555
C1_13 C2_13 1_555 1_555
C2_13 C3_13 1_555 1_555
C3_13 H1_13 1_555 1_555
C4_13 C3_13 1_555 1_555
C5_13 C4_13 1_555 1_555
H2_13 C5_13 1_555 1_555
C6_13 C5_13 1_555 1_555
C7_13 C2_13 1_555 1_555
H3_13 C7_13 1_555 1_555
C8_13 C4_13 1_555 1_555
C9_13 C6_13 1_555 1_555
C10_13 O7_13 1_555 1_555
C11_13 C10_13 1_555 1_555
C12_13 C11_13 1_555 1_555
H4_13 C12_13 1_555 1_555
C13_13 C12_13 1_555 1_555
C14_13 C13_13 1_555 1_555
C15_13 C14_13 1_555 1_555
C16_13 C11_13 1_555 1_555
H6_13 C16_13 1_555 1_555
C18_13 C15_13 1_555 1_555
C19_13 O13_13 1_555 1_555
C20_13 C19_13 1_555 1_555
C21_13 C20_13 1_555 1_555
H7_13 C21_13 1_555 1_555
C22_13 C21_13 1_555 1_555
C23_13 C24_13 1_555 1_555
C24_13 C22_13 1_555 1_555
H8_13 C24_13 1_555 1_555
C25_13 C20_13 1_555 1_555
H9_13 C25_13 1_555 1_555
C26_13 C23_13 1_555 1_555
C27_13 C22_13 1_555 1_555
Zn6_4 O17_5 1_555 1_555
O23_9 Zn6_5 1_555 1_555
O8_13 C10_13 1_555 1_555
O14_13 C19_13 1_555 1_555
C6_13 C7_13 1_555 1_555
C15_13 C16_13 1_555 1_555
C23_13 C25_13 1_555 1_555
Zn4_3 O1_14 1_555 1_555
Zn5 O2_14 1_555 1_555
Zn6_6 O4_14 1_555 1_555
O1_14 C1_14 1_555 1_555
O2_14 C1_14 1_555 1_555
O3_14 C8_14 1_555 1_555
O4_14 C8_14 1_555 1_555
O19 C9_14 1_555 1_555
O6_14 C9_14 1_555 1_555
O7_14 Zn5 1_555 1_555
O8_14 Zn4_3 1_555 1_555
O20_4 C17_14 1_555 1_555
O10_14 C17_14 1_555 1_555
O11_14 C18_14 1_555 1_555
O21_8 C18_14 1_555 1_555
O13_14 Zn5 1_555 1_555
O14_14 Zn4_3 1_555 1_555
O15_14 C26_14 1_555 1_555
O22_3 C26_14 1_555 1_555
O23_9 C27_14 1_555 1_555
O18_14 C27_14 1_555 1_555
C1_14 C2_14 1_555 1_555
C2_14 C3_14 1_555 1_555
C3_14 H1_14 1_555 1_555
C4_14 C3_14 1_555 1_555
C5_14 C4_14 1_555 1_555
H2_14 C5_14 1_555 1_555
C6_14 C5_14 1_555 1_555
C7_14 C2_14 1_555 1_555
H3_14 C7_14 1_555 1_555
C8_14 C4_14 1_555 1_555
C9_14 C6_14 1_555 1_555
C10_14 O7_14 1_555 1_555
C11_14 C10_14 1_555 1_555
C12_14 C11_14 1_555 1_555
H4_14 C12_14 1_555 1_555
C13_14 C12_14 1_555 1_555
C14_14 C13_14 1_555 1_555
H5_14 C14_14 1_555 1_555
C15_14 C14_14 1_555 1_555
C16_14 C11_14 1_555 1_555
H6_14 C16_14 1_555 1_555
C17_14 C13_14 1_555 1_555
C18_14 C15_14 1_555 1_555
C19_14 O13_14 1_555 1_555
C20_14 C19_14 1_555 1_555
C21_14 C20_14 1_555 1_555
H7_14 C21_14 1_555 1_555
C22_14 C21_14 1_555 1_555
C23_14 C24_14 1_555 1_555
C24_14 C22_14 1_555 1_555
H8_14 C24_14 1_555 1_555
C25_14 C20_14 1_555 1_555
H9_14 C25_14 1_555 1_555
C26_14 C23_14 1_555 1_555
C27_14 C22_14 1_555 1_555
O23_10 Zn6_6 1_555 1_555
O8_14 C10_14 1_555 1_555
O14_14 C19_14 1_555 1_555
C6_14 C7_14 1_555 1_555
C15_14 C16_14 1_555 1_555
C23_14 C25_14 1_555 1_555
Zn4 O1_15 1_555 1_555
Zn5_2 O2_15 1_555 1_555
Zn6_4 O4_15 1_555 1_555
O1_15 C1_15 1_555 1_555
O2_15 C1_15 1_555 1_555
O3_15 C8_15 1_555 1_555
O4_15 C8_15 1_555 1_555
O19_2 C9_15 1_555 1_555
O6_15 C9_15 1_555 1_555
O7_15 Zn5_2 1_555 1_555
O8_15 Zn4 1_555 1_555
O11_15 C18_15 1_555 1_555
O21_9 C18_15 1_555 1_555
O13_15 Zn5_2 1_555 1_555
O14_15 Zn4 1_555 1_555
O15_15 C26_15 1_555 1_555
O22 C26_15 1_555 1_555
O23_10 C27_15 1_555 1_555
O18_15 C27_15 1_555 1_555
C1_15 C2_15 1_555 1_555
C2_15 C3_15 1_555 1_555
C3_15 H1_15 1_555 1_555
C4_15 C3_15 1_555 1_555
C5_15 C4_15 1_555 1_555
H2_15 C5_15 1_555 1_555
C6_15 C5_15 1_555 1_555
C7_15 C2_15 1_555 1_555
H3_15 C7_15 1_555 1_555
C8_15 C4_15 1_555 1_555
C9_15 C6_15 1_555 1_555
C10_15 O7_15 1_555 1_555
C11_15 C10_15 1_555 1_555
C12_15 C11_15 1_555 1_555
H4_15 C12_15 1_555 1_555
C13_15 C12_15 1_555 1_555
C14_15 C13_15 1_555 1_555
C15_15 C14_15 1_555 1_555
C16_15 C11_15 1_555 1_555
H6_15 C16_15 1_555 1_555
C18_15 C15_15 1_555 1_555
C19_15 O13_15 1_555 1_555
C20_15 C19_15 1_555 1_555
C21_15 C20_15 1_555 1_555
H7_15 C21_15 1_555 1_555
C22_15 C21_15 1_555 1_555
C23_15 C24_15 1_555 1_555
C24_15 C22_15 1_555 1_555
H8_15 C24_15 1_555 1_555
C25_15 C20_15 1_555 1_555
H9_15 C25_15 1_555 1_555
C26_15 C23_15 1_555 1_555
C27_15 C22_15 1_555 1_555
O8_15 C10_15 1_555 1_555
O14_15 C19_15 1_555 1_555
C6_15 C7_15 1_555 1_555
C15_15 C16_15 1_555 1_555
C23_15 C25_15 1_555 1_555
O20_5 C17_15 1_555 1_555
O10_15 C17_15 1_555 1_555
Zn4_8 O1_16 1_555 1_555
Zn5_9 O2_16 1_555 1_555
O1_16 C1_16 1_555 1_555
O2_16 C1_16 1_555 1_555
O3_16 C8_16 1_555 1_555
O4_16 C8_16 1_555 1_555
O7_16 Zn5_9 1_555 1_555
O8_16 Zn4_8 1_555 1_555
O20_3 C17_16 1_555 1_555
O10_16 C17_16 1_555 1_555
O11_16 C18_16 1_555 1_555
O21_4 C18_16 1_555 1_555
O13_16 Zn5_9 1_555 1_555
O14_16 Zn4_8 1_555 1_555
O15_16 C26_16 1_555 1_555
O22_8 C26_16 1_555 1_555
O17_6 C27_16 1_555 1_555
O18_16 C27_16 1_555 1_555
C1_16 C2_16 1_555 1_555
C2_16 C3_16 1_555 1_555
C3_16 H1_16 1_555 1_555
C4_16 C3_16 1_555 1_555
C5_16 C4_16 1_555 1_555
H2_16 C5_16 1_555 1_555
C6_16 C5_16 1_555 1_555
C7_16 C2_16 1_555 1_555
H3_16 C7_16 1_555 1_555
C8_16 C4_16 1_555 1_555
C10_16 O7_16 1_555 1_555
C11_16 C10_16 1_555 1_555
C12_16 C11_16 1_555 1_555
H4_16 C12_16 1_555 1_555
C13_16 C12_16 1_555 1_555
C14_16 C13_16 1_555 1_555
H5_16 C14_16 1_555 1_555
C15_16 C14_16 1_555 1_555
C16_16 C11_16 1_555 1_555
H6_16 C16_16 1_555 1_555
C17_16 C13_16 1_555 1_555
C18_16 C15_16 1_555 1_555
C19_16 O13_16 1_555 1_555
C20_16 C19_16 1_555 1_555
C21_16 C20_16 1_555 1_555
H7_16 C21_16 1_555 1_555
C22_16 C21_16 1_555 1_555
C23_16 C24_16 1_555 1_555
C24_16 C22_16 1_555 1_555
H8_16 C24_16 1_555 1_555
C25_16 C20_16 1_555 1_555
H9_16 C25_16 1_555 1_555
C26_16 C23_16 1_555 1_555
C27_16 C22_16 1_555 1_555
Zn6 O17_6 1_555 1_555
O8_16 C10_16 1_555 1_555
O14_16 C19_16 1_555 1_555
C6_16 C7_16 1_555 1_555
C15_16 C16_16 1_555 1_555
C23_16 C25_16 1_555 1_555
O19_9 C9_16 1_555 1_555
O6_16 C9_16 1_555 1_555
O23_11 Zn6_2 1_555 1_555
O8_17 Zn4_9 1_555 1_555
O20 C17_17 1_555 1_555
O10_17 C17_17 1_555 1_555
O14_17 Zn4_9 1_555 1_555
O15_17 C26_17 1_555 1_555
O22_9 C26_17 1_555 1_555
O23_11 C27_17 1_555 1_555
O18_17 C27_17 1_555 1_555
H4_17 C12_17 1_555 1_555
C13_17 C12_17 1_555 1_555
C17_17 C13_17 1_555 1_555
C19_17 O13_17 1_555 1_555
C20_17 C19_17 1_555 1_555
C21_17 C20_17 1_555 1_555
H7_17 C21_17 1_555 1_555
C22_17 C21_17 1_555 1_555
C23_17 C24_17 1_555 1_555
C24_17 C22_17 1_555 1_555
H8_17 C24_17 1_555 1_555
C25_17 C20_17 1_555 1_555
H9_17 C25_17 1_555 1_555
C26_17 C23_17 1_555 1_555
C27_17 C22_17 1_555 1_555
O14_17 C19_17 1_555 1_555
C23_17 C25_17 1_555 1_555
Zn5_7 O2_17 1_555 1_555
Zn6_3 O4_17 1_555 1_555
O1_17 C1_17 1_555 1_555
O2_17 C1_17 1_555 1_555
O3_17 C8_17 1_555 1_555
O4_17 C8_17 1_555 1_555
O7_17 Zn5_7 1_555 1_555
O11_17 C18_17 1_555 1_555
O21_5 C18_17 1_555 1_555
C1_17 C2_17 1_555 1_555
C2_17 C3_17 1_555 1_555
C3_17 H1_17 1_555 1_555
C4_17 C3_17 1_555 1_555
C5_17 C4_17 1_555 1_555
H2_17 C5_17 1_555 1_555
C6_17 C5_17 1_555 1_555
C7_17 C2_17 1_555 1_555
H3_17 C7_17 1_555 1_555
C8_17 C4_17 1_555 1_555
C10_17 O7_17 1_555 1_555
C11_17 C10_17 1_555 1_555
H5_17 C14_17 1_555 1_555
C15_17 C14_17 1_555 1_555
C16_17 C11_17 1_555 1_555
H6_17 C16_17 1_555 1_555
C18_17 C15_17 1_555 1_555
O23_12 Zn6_3 1_555 1_555
C6_17 C7_17 1_555 1_555
C15_17 C16_17 1_555 1_555
O19_7 C9_17 1_555 1_555
O6_17 C9_17 1_555 1_555
Zn5_8 O2_18 1_555 1_555
O1_18 C1_18 1_555 1_555
O2_18 C1_18 1_555 1_555
O3_18 C8_18 1_555 1_555
O4_18 C8_18 1_555 1_555
O7_18 Zn5_8 1_555 1_555
O11_18 C18_18 1_555 1_555
O21_6 C18_18 1_555 1_555
C1_18 C2_18 1_555 1_555
C2_18 C3_18 1_555 1_555
C3_18 H1_18 1_555 1_555
C4_18 C3_18 1_555 1_555
C5_18 C4_18 1_555 1_555
H2_18 C5_18 1_555 1_555
C6_18 C5_18 1_555 1_555
C7_18 C2_18 1_555 1_555
H3_18 C7_18 1_555 1_555
C8_18 C4_18 1_555 1_555
C10_18 O7_18 1_555 1_555
C11_18 C10_18 1_555 1_555
H5_18 C14_18 1_555 1_555
C15_18 C14_18 1_555 1_555
C16_18 C11_18 1_555 1_555
H6_18 C16_18 1_555 1_555
C18_18 C15_18 1_555 1_555
C6_18 C7_18 1_555 1_555
C15_18 C16_18 1_555 1_555
O19_8 C9_18 1_555 1_555
O6_18 C9_18 1_555 1_555
O8_18 Zn4_7 1_555 1_555
O20_2 C17_18 1_555 1_555
O10_18 C17_18 1_555 1_555
O14_18 Zn4_7 1_555 1_555
O15_18 C26_18 1_555 1_555
O22_7 C26_18 1_555 1_555
O23_12 C27_18 1_555 1_555
O18_18 C27_18 1_555 1_555
H4_18 C12_18 1_555 1_555
C13_18 C12_18 1_555 1_555
C17_18 C13_18 1_555 1_555
C19_18 O13_18 1_555 1_555
C20_18 C19_18 1_555 1_555
C21_18 C20_18 1_555 1_555
H7_18 C21_18 1_555 1_555
C22_18 C21_18 1_555 1_555
C23_18 C24_18 1_555 1_555
C24_18 C22_18 1_555 1_555
H8_18 C24_18 1_555 1_555
C25_18 C20_18 1_555 1_555
H9_18 C25_18 1_555 1_555
C26_18 C23_18 1_555 1_555
C27_18 C22_18 1_555 1_555
O14_18 C19_18 1_555 1_555
C23_18 C25_18 1_555 1_555
O24 H10 1_555 1_555
O25 H11 1_555 1_555
N1 C29 1_555 1_555
N2 C31 1_555 1_555
C28 O24 1_555 1_555
H12 C28 1_555 1_555
H13 C28 1_555 1_555
C29 C28 1_555 1_555
H14 C29 1_555 1_555
H15 C29 1_555 1_555
C30 N1 1_555 1_555
H16 C30 1_555 1_555
H17 C30 1_555 1_555
C31 C30 1_555 1_555
H18 C31 1_555 1_555
H19 C31 1_555 1_555
C32 N2 1_555 1_555
H20 C32 1_555 1_555
H21 C32 1_555 1_555
C33 N1 1_555 1_555
H22 C33 1_555 1_555
H23 C33 1_555 1_555
C34 N2 1_555 1_555
H24 C34 1_555 1_555
H25 C34 1_555 1_555
C35 O25 1_555 1_555
H26 C35 1_555 1_555
H27 C35 1_555 1_555
C32 C33 1_555 1_555
C34 C35 1_555 1_555
N1 H34 1_555 1_555
N2 H35 1_555 1_555
O24_2 H10_2 1_555 1_555
O25_2 H11_2 1_555 1_555
N1_2 C29_2 1_555 1_555
N2_2 C31_2 1_555 1_555
C28_2 O24_2 1_555 1_555
H12_2 C28_2 1_555 1_555
H13_2 C28_2 1_555 1_555
C29_2 C28_2 1_555 1_555
H14_2 C29_2 1_555 1_555
H15_2 C29_2 1_555 1_555
C30_2 N1_2 1_555 1_555
H16_2 C30_2 1_555 1_555
H17_2 C30_2 1_555 1_555
C31_2 C30_2 1_555 1_555
H18_2 C31_2 1_555 1_555
H19_2 C31_2 1_555 1_555
C32_2 N2_2 1_555 1_555
H20_2 C32_2 1_555 1_555
H21_2 C32_2 1_555 1_555
C33_2 N1_2 1_555 1_555
H22_2 C33_2 1_555 1_555
H23_2 C33_2 1_555 1_555
C34_2 N2_2 1_555 1_555
H24_2 C34_2 1_555 1_555
H25_2 C34_2 1_555 1_555
C35_2 O25_2 1_555 1_555
H26_2 C35_2 1_555 1_555
H27_2 C35_2 1_555 1_555
C32_2 C33_2 1_555 1_555
C34_2 C35_2 1_555 1_555
N1_2 H34_2 1_555 1_555
N2_2 H35_2 1_555 1_555
O24_3 H10_3 1_555 1_555
O25_3 H11_3 1_555 1_555
N1_3 C29_3 1_555 1_555
N2_3 C31_3 1_555 1_555
C28_3 O24_3 1_555 1_555
H12_3 C28_3 1_555 1_555
H13_3 C28_3 1_555 1_555
C29_3 C28_3 1_555 1_555
H14_3 C29_3 1_555 1_555
H15_3 C29_3 1_555 1_555
C30_3 N1_3 1_555 1_555
H16_3 C30_3 1_555 1_555
H17_3 C30_3 1_555 1_555
C31_3 C30_3 1_555 1_555
H18_3 C31_3 1_555 1_555
H19_3 C31_3 1_555 1_555
C32_3 N2_3 1_555 1_555
H20_3 C32_3 1_555 1_555
H21_3 C32_3 1_555 1_555
C33_3 N1_3 1_555 1_555
H22_3 C33_3 1_555 1_555
H23_3 C33_3 1_555 1_555
C34_3 N2_3 1_555 1_555
H24_3 C34_3 1_555 1_555
H25_3 C34_3 1_555 1_555
C35_3 O25_3 1_555 1_555
H26_3 C35_3 1_555 1_555
H27_3 C35_3 1_555 1_555
C32_3 C33_3 1_555 1_555
C34_3 C35_3 1_555 1_555
N1_3 H34_3 1_555 1_555
N2_3 H35_3 1_555 1_555
O25_4 H11_4 1_555 1_555
N2_4 C31_4 1_555 1_555
H18_4 C31_4 1_555 1_555
C32_4 N2_4 1_555 1_555
H20_4 C32_4 1_555 1_555
H21_4 C32_4 1_555 1_555
C33_4 N1_4 1_555 1_555
H22_4 C33_4 1_555 1_555
H23_4 C33_4 1_555 1_555
C34_4 N2_4 1_555 1_555
H24_4 C34_4 1_555 1_555
H25_4 C34_4 1_555 1_555
C35_4 O25_4 1_555 1_555
H26_4 C35_4 1_555 1_555
H27_4 C35_4 1_555 1_555
C32_4 C33_4 1_555 1_555
C34_4 C35_4 1_555 1_555
N1_4 H34_4 1_555 1_555
N2_4 H35_4 1_555 1_555
O24_4 H10_4 1_555 1_555
C28_4 O24_4 1_555 1_555
H12_4 C28_4 1_555 1_555
H13_4 C28_4 1_555 1_555
C29_4 C28_4 1_555 1_555
H15_4 C29_4 1_555 1_555
H16_4 C30_4 1_555 1_555
H17_4 C30_4 1_555 1_555
O24_5 H10_5 1_555 1_555
O25_5 H11_5 1_555 1_555
N1_5 C29_5 1_555 1_555
N2_5 C31_5 1_555 1_555
C28_5 O24_5 1_555 1_555
H12_5 C28_5 1_555 1_555
H13_5 C28_5 1_555 1_555
C29_5 C28_5 1_555 1_555
H14_5 C29_5 1_555 1_555
H15_5 C29_5 1_555 1_555
C30_5 N1_5 1_555 1_555
H16_5 C30_5 1_555 1_555
H17_5 C30_5 1_555 1_555
C31_5 C30_5 1_555 1_555
H18_5 C31_5 1_555 1_555
H19_5 C31_5 1_555 1_555
C32_5 N2_5 1_555 1_555
H20_5 C32_5 1_555 1_555
H21_5 C32_5 1_555 1_555
C33_5 N1_5 1_555 1_555
H22_5 C33_5 1_555 1_555
H23_5 C33_5 1_555 1_555
C34_5 N2_5 1_555 1_555
H24_5 C34_5 1_555 1_555
H25_5 C34_5 1_555 1_555
C35_5 O25_5 1_555 1_555
H26_5 C35_5 1_555 1_555
H27_5 C35_5 1_555 1_555
C32_5 C33_5 1_555 1_555
C34_5 C35_5 1_555 1_555
N1_5 H34_5 1_555 1_555
N2_5 H35_5 1_555 1_555
O24_6 H10_6 1_555 1_555
C28_6 O24_6 1_555 1_555
H12_6 C28_6 1_555 1_555
H13_6 C28_6 1_555 1_555
C29_6 C28_6 1_555 1_555
H15_6 C29_6 1_555 1_555
H16_6 C30_6 1_555 1_555
H17_6 C30_6 1_555 1_555
O25_6 H11_6 1_555 1_555
N2_6 C31_6 1_555 1_555
H18_6 C31_6 1_555 1_555
C32_6 N2_6 1_555 1_555
H20_6 C32_6 1_555 1_555
H21_6 C32_6 1_555 1_555
C33_6 N1_6 1_555 1_555
H22_6 C33_6 1_555 1_555
H23_6 C33_6 1_555 1_555
C34_6 N2_6 1_555 1_555
H24_6 C34_6 1_555 1_555
H25_6 C34_6 1_555 1_555
C35_6 O25_6 1_555 1_555
H26_6 C35_6 1_555 1_555
H27_6 C35_6 1_555 1_555
C32_6 C33_6 1_555 1_555
C34_6 C35_6 1_555 1_555
N1_6 H34_6 1_555 1_555
N2_6 H35_6 1_555 1_555
O24_7 H10_7 1_555 1_555
N1_7 C29_7 1_555 1_555
C28_7 O24_7 1_555 1_555
H12_7 C28_7 1_555 1_555
H13_7 C28_7 1_555 1_555
C29_7 C28_7 1_555 1_555
H14_7 C29_7 1_555 1_555
H15_7 C29_7 1_555 1_555
C30_7 N1_7 1_555 1_555
H17_7 C30_7 1_555 1_555
C31_7 C30_7 1_555 1_555
H18_7 C31_7 1_555 1_555
H21_7 C32_7 1_555 1_555
C33_7 N1_7 1_555 1_555
H22_7 C33_7 1_555 1_555
H23_7 C33_7 1_555 1_555
C32_7 C33_7 1_555 1_555
N1_7 H34_7 1_555 1_555
O25_7 H11_7 1_555 1_555
C34_7 N2_7 1_555 1_555
H24_7 C34_7 1_555 1_555
H25_7 C34_7 1_555 1_555
C35_7 O25_7 1_555 1_555
H26_7 C35_7 1_555 1_555
H27_7 C35_7 1_555 1_555
C34_7 C35_7 1_555 1_555
N2_7 H35_7 1_555 1_555
O24_8 H10_8 1_555 1_555
N1_8 C29_8 1_555 1_555
C28_8 O24_8 1_555 1_555
H12_8 C28_8 1_555 1_555
H13_8 C28_8 1_555 1_555
C29_8 C28_8 1_555 1_555
H14_8 C29_8 1_555 1_555
H15_8 C29_8 1_555 1_555
C30_8 N1_8 1_555 1_555
H17_8 C30_8 1_555 1_555
C31_8 C30_8 1_555 1_555
H18_8 C31_8 1_555 1_555
H21_8 C32_8 1_555 1_555
C33_8 N1_8 1_555 1_555
H22_8 C33_8 1_555 1_555
H23_8 C33_8 1_555 1_555
C32_8 C33_8 1_555 1_555
N1_8 H34_8 1_555 1_555
O25_8 H11_8 1_555 1_555
C34_8 N2_8 1_555 1_555
H24_8 C34_8 1_555 1_555
H25_8 C34_8 1_555 1_555
C35_8 O25_8 1_555 1_555
H26_8 C35_8 1_555 1_555
H27_8 C35_8 1_555 1_555
C34_8 C35_8 1_555 1_555
N2_8 H35_8 1_555 1_555
O24_9 H10_9 1_555 1_555
N1_9 C29_9 1_555 1_555
C28_9 O24_9 1_555 1_555
H12_9 C28_9 1_555 1_555
H13_9 C28_9 1_555 1_555
C29_9 C28_9 1_555 1_555
H14_9 C29_9 1_555 1_555
H15_9 C29_9 1_555 1_555
C30_9 N1_9 1_555 1_555
H17_9 C30_9 1_555 1_555
C31_9 C30_9 1_555 1_555
H18_9 C31_9 1_555 1_555
H21_9 C32_9 1_555 1_555
C33_9 N1_9 1_555 1_555
H22_9 C33_9 1_555 1_555
H23_9 C33_9 1_555 1_555
C32_9 C33_9 1_555 1_555
N1_9 H34_9 1_555 1_555
O25_9 H11_9 1_555 1_555
C34_9 N2_9 1_555 1_555
H24_9 C34_9 1_555 1_555
H25_9 C34_9 1_555 1_555
C35_9 O25_9 1_555 1_555
H26_9 C35_9 1_555 1_555
H27_9 C35_9 1_555 1_555
C34_9 C35_9 1_555 1_555
N2_9 H35_9 1_555 1_555
O24_10 H10_10 1_555 1_555
O25_10 H11_10 1_555 1_555
N1_10 C29_10 1_555 1_555
N2_10 C31_10 1_555 1_555
C28_10 O24_10 1_555 1_555
H12_10 C28_10 1_555 1_555
H13_10 C28_10 1_555 1_555
C29_10 C28_10 1_555 1_555
H14_10 C29_10 1_555 1_555
H15_10 C29_10 1_555 1_555
C30_10 N1_10 1_555 1_555
H16_10 C30_10 1_555 1_555
H17_10 C30_10 1_555 1_555
C31_10 C30_10 1_555 1_555
H18_10 C31_10 1_555 1_555
H19_10 C31_10 1_555 1_555
C32_10 N2_10 1_555 1_555
H20_10 C32_10 1_555 1_555
H21_10 C32_10 1_555 1_555
C33_10 N1_10 1_555 1_555
H22_10 C33_10 1_555 1_555
H23_10 C33_10 1_555 1_555
C34_10 N2_10 1_555 1_555
H24_10 C34_10 1_555 1_555
H25_10 C34_10 1_555 1_555
C35_10 O25_10 1_555 1_555
H26_10 C35_10 1_555 1_555
H27_10 C35_10 1_555 1_555
C32_10 C33_10 1_555 1_555
C34_10 C35_10 1_555 1_555
N1_10 H34_10 1_555 1_555
N2_10 H35_10 1_555 1_555
O24_11 H10_11 1_555 1_555
O25_11 H11_11 1_555 1_555
N1_11 C29_11 1_555 1_555
N2_11 C31_11 1_555 1_555
C28_11 O24_11 1_555 1_555
H12_11 C28_11 1_555 1_555
H13_11 C28_11 1_555 1_555
C29_11 C28_11 1_555 1_555
H14_11 C29_11 1_555 1_555
H15_11 C29_11 1_555 1_555
C30_11 N1_11 1_555 1_555
H16_11 C30_11 1_555 1_555
H17_11 C30_11 1_555 1_555
C31_11 C30_11 1_555 1_555
H18_11 C31_11 1_555 1_555
H19_11 C31_11 1_555 1_555
C32_11 N2_11 1_555 1_555
H20_11 C32_11 1_555 1_555
H21_11 C32_11 1_555 1_555
C33_11 N1_11 1_555 1_555
H22_11 C33_11 1_555 1_555
H23_11 C33_11 1_555 1_555
C34_11 N2_11 1_555 1_555
H24_11 C34_11 1_555 1_555
H25_11 C34_11 1_555 1_555
C35_11 O25_11 1_555 1_555
H26_11 C35_11 1_555 1_555
H27_11 C35_11 1_555 1_555
C32_11 C33_11 1_555 1_555
C34_11 C35_11 1_555 1_555
N1_11 H34_11 1_555 1_555
N2_11 H35_11 1_555 1_555
O24_12 H10_12 1_555 1_555
O25_12 H11_12 1_555 1_555
N1_12 C29_12 1_555 1_555
N2_12 C31_12 1_555 1_555
C28_12 O24_12 1_555 1_555
H12_12 C28_12 1_555 1_555
H13_12 C28_12 1_555 1_555
C29_12 C28_12 1_555 1_555
H14_12 C29_12 1_555 1_555
H15_12 C29_12 1_555 1_555
C30_12 N1_12 1_555 1_555
H16_12 C30_12 1_555 1_555
H17_12 C30_12 1_555 1_555
C31_12 C30_12 1_555 1_555
H18_12 C31_12 1_555 1_555
H19_12 C31_12 1_555 1_555
C32_12 N2_12 1_555 1_555
H20_12 C32_12 1_555 1_555
H21_12 C32_12 1_555 1_555
C33_12 N1_12 1_555 1_555
H22_12 C33_12 1_555 1_555
H23_12 C33_12 1_555 1_555
C34_12 N2_12 1_555 1_555
H24_12 C34_12 1_555 1_555
H25_12 C34_12 1_555 1_555
C35_12 O25_12 1_555 1_555
H26_12 C35_12 1_555 1_555
H27_12 C35_12 1_555 1_555
C32_12 C33_12 1_555 1_555
C34_12 C35_12 1_555 1_555
N1_12 H34_12 1_555 1_555
N2_12 H35_12 1_555 1_555
O24_13 H10_13 1_555 1_555
C28_13 O24_13 1_555 1_555
H12_13 C28_13 1_555 1_555
H13_13 C28_13 1_555 1_555
C29_13 C28_13 1_555 1_555
H15_13 C29_13 1_555 1_555
H16_13 C30_13 1_555 1_555
H17_13 C30_13 1_555 1_555
O25_13 H11_13 1_555 1_555
N2_13 C31_13 1_555 1_555
H18_13 C31_13 1_555 1_555
C32_13 N2_13 1_555 1_555
H20_13 C32_13 1_555 1_555
H21_13 C32_13 1_555 1_555
C33_13 N1_13 1_555 1_555
H22_13 C33_13 1_555 1_555
H23_13 C33_13 1_555 1_555
C34_13 N2_13 1_555 1_555
H24_13 C34_13 1_555 1_555
H25_13 C34_13 1_555 1_555
C35_13 O25_13 1_555 1_555
H26_13 C35_13 1_555 1_555
H27_13 C35_13 1_555 1_555
C32_13 C33_13 1_555 1_555
C34_13 C35_13 1_555 1_555
N1_13 H34_13 1_555 1_555
N2_13 H35_13 1_555 1_555
O24_14 H10_14 1_555 1_555
O25_14 H11_14 1_555 1_555
N1_14 C29_14 1_555 1_555
N2_14 C31_14 1_555 1_555
C28_14 O24_14 1_555 1_555
H12_14 C28_14 1_555 1_555
H13_14 C28_14 1_555 1_555
C29_14 C28_14 1_555 1_555
H14_14 C29_14 1_555 1_555
H15_14 C29_14 1_555 1_555
C30_14 N1_14 1_555 1_555
H16_14 C30_14 1_555 1_555
H17_14 C30_14 1_555 1_555
C31_14 C30_14 1_555 1_555
H18_14 C31_14 1_555 1_555
H19_14 C31_14 1_555 1_555
C32_14 N2_14 1_555 1_555
H20_14 C32_14 1_555 1_555
H21_14 C32_14 1_555 1_555
C33_14 N1_14 1_555 1_555
H22_14 C33_14 1_555 1_555
H23_14 C33_14 1_555 1_555
C34_14 N2_14 1_555 1_555
H24_14 C34_14 1_555 1_555
H25_14 C34_14 1_555 1_555
C35_14 O25_14 1_555 1_555
H26_14 C35_14 1_555 1_555
H27_14 C35_14 1_555 1_555
C32_14 C33_14 1_555 1_555
C34_14 C35_14 1_555 1_555
N1_14 H34_14 1_555 1_555
N2_14 H35_14 1_555 1_555
O25_15 H11_15 1_555 1_555
N2_15 C31_15 1_555 1_555
H18_15 C31_15 1_555 1_555
C32_15 N2_15 1_555 1_555
H20_15 C32_15 1_555 1_555
H21_15 C32_15 1_555 1_555
C33_15 N1_15 1_555 1_555
H22_15 C33_15 1_555 1_555
H23_15 C33_15 1_555 1_555
C34_15 N2_15 1_555 1_555
H24_15 C34_15 1_555 1_555
H25_15 C34_15 1_555 1_555
C35_15 O25_15 1_555 1_555
H26_15 C35_15 1_555 1_555
H27_15 C35_15 1_555 1_555
C32_15 C33_15 1_555 1_555
C34_15 C35_15 1_555 1_555
N1_15 H34_15 1_555 1_555
N2_15 H35_15 1_555 1_555
O24_15 H10_15 1_555 1_555
C28_15 O24_15 1_555 1_555
H12_15 C28_15 1_555 1_555
H13_15 C28_15 1_555 1_555
C29_15 C28_15 1_555 1_555
H15_15 C29_15 1_555 1_555
H16_15 C30_15 1_555 1_555
H17_15 C30_15 1_555 1_555
O25_16 H11_16 1_555 1_555
C34_16 N2_16 1_555 1_555
H24_16 C34_16 1_555 1_555
H25_16 C34_16 1_555 1_555
C35_16 O25_16 1_555 1_555
H26_16 C35_16 1_555 1_555
H27_16 C35_16 1_555 1_555
C34_16 C35_16 1_555 1_555
N2_16 H35_16 1_555 1_555
O24_16 H10_16 1_555 1_555
N1_16 C29_16 1_555 1_555
C28_16 O24_16 1_555 1_555
H12_16 C28_16 1_555 1_555
H13_16 C28_16 1_555 1_555
C29_16 C28_16 1_555 1_555
H14_16 C29_16 1_555 1_555
H15_16 C29_16 1_555 1_555
C30_16 N1_16 1_555 1_555
H17_16 C30_16 1_555 1_555
C31_16 C30_16 1_555 1_555
H18_16 C31_16 1_555 1_555
H21_16 C32_16 1_555 1_555
C33_16 N1_16 1_555 1_555
H22_16 C33_16 1_555 1_555
H23_16 C33_16 1_555 1_555
C32_16 C33_16 1_555 1_555
N1_16 H34_16 1_555 1_555
O25_17 H11_17 1_555 1_555
C34_17 N2_17 1_555 1_555
H24_17 C34_17 1_555 1_555
H25_17 C34_17 1_555 1_555
C35_17 O25_17 1_555 1_555
H26_17 C35_17 1_555 1_555
H27_17 C35_17 1_555 1_555
C34_17 C35_17 1_555 1_555
N2_17 H35_17 1_555 1_555
O24_17 H10_17 1_555 1_555
N1_17 C29_17 1_555 1_555
C28_17 O24_17 1_555 1_555
H12_17 C28_17 1_555 1_555
H13_17 C28_17 1_555 1_555
C29_17 C28_17 1_555 1_555
H14_17 C29_17 1_555 1_555
H15_17 C29_17 1_555 1_555
C30_17 N1_17 1_555 1_555
H17_17 C30_17 1_555 1_555
C31_17 C30_17 1_555 1_555
H18_17 C31_17 1_555 1_555
H21_17 C32_17 1_555 1_555
C33_17 N1_17 1_555 1_555
H22_17 C33_17 1_555 1_555
H23_17 C33_17 1_555 1_555
C32_17 C33_17 1_555 1_555
N1_17 H34_17 1_555 1_555
O25_18 H11_18 1_555 1_555
C34_18 N2_18 1_555 1_555
H24_18 C34_18 1_555 1_555
H25_18 C34_18 1_555 1_555
C35_18 O25_18 1_555 1_555
H26_18 C35_18 1_555 1_555
H27_18 C35_18 1_555 1_555
C34_18 C35_18 1_555 1_555
N2_18 H35_18 1_555 1_555
O24_18 H10_18 1_555 1_555
N1_18 C29_18 1_555 1_555
C28_18 O24_18 1_555 1_555
H12_18 C28_18 1_555 1_555
H13_18 C28_18 1_555 1_555
C29_18 C28_18 1_555 1_555
H14_18 C29_18 1_555 1_555
H15_18 C29_18 1_555 1_555
C30_18 N1_18 1_555 1_555
H17_18 C30_18 1_555 1_555
C31_18 C30_18 1_555 1_555
H18_18 C31_18 1_555 1_555
H21_18 C32_18 1_555 1_555
C33_18 N1_18 1_555 1_555
H22_18 C33_18 1_555 1_555
H23_18 C33_18 1_555 1_555
C32_18 C33_18 1_555 1_555
N1_18 H34_18 1_555 1_555
N3 C36 1_555 1_555
C36 H28 1_555 1_555
H29 C36 1_555 1_555
H30 C36 1_555 1_555
C37 N3 1_555 1_555
H31 C37 1_555 1_555
H32 C37 1_555 1_555
H33 C37 1_555 1_555
N3 H37 1_555 1_555
N3_2 C36_2 1_555 1_555
C36_2 H28_2 1_555 1_555
H29_2 C36_2 1_555 1_555
H30_2 C36_2 1_555 1_555
C37_2 N3_2 1_555 1_555
H31_2 C37_2 1_555 1_555
H32_2 C37_2 1_555 1_555
H33_2 C37_2 1_555 1_555
N3_2 H37_2 1_555 1_555
N3_3 C36_3 1_555 1_555
C36_3 H28_3 1_555 1_555
H29_3 C36_3 1_555 1_555
H30_3 C36_3 1_555 1_555
C37_3 N3_3 1_555 1_555
H31_3 C37_3 1_555 1_555
H32_3 C37_3 1_555 1_555
H33_3 C37_3 1_555 1_555
N3_3 H37_3 1_555 1_555
N3_4 C36_4 1_555 1_555
C36_4 H28_4 1_555 1_555
H29_4 C36_4 1_555 1_555
H30_4 C36_4 1_555 1_555
C37_4 N3_4 1_555 1_555
H31_4 C37_4 1_555 1_555
H32_4 C37_4 1_555 1_555
H33_4 C37_4 1_555 1_555
N3_4 H36_4 1_555 1_555
N3_4 H37_4 1_555 1_555
N3_5 C36_5 1_555 1_555
C36_5 H28_5 1_555 1_555
H29_5 C36_5 1_555 1_555
H30_5 C36_5 1_555 1_555
C37_5 N3_5 1_555 1_555
H31_5 C37_5 1_555 1_555
H32_5 C37_5 1_555 1_555
H33_5 C37_5 1_555 1_555
N3_5 H36_5 1_555 1_555
N3_5 H37_5 1_555 1_555
N3_6 C36_6 1_555 1_555
C36_6 H28_6 1_555 1_555
H29_6 C36_6 1_555 1_555
H30_6 C36_6 1_555 1_555
C37_6 N3_6 1_555 1_555
H31_6 C37_6 1_555 1_555
H32_6 C37_6 1_555 1_555
H33_6 C37_6 1_555 1_555
N3_6 H36_6 1_555 1_555
N3_6 H37_6 1_555 1_555
N3_7 C36_7 1_555 1_555
C36_7 H28_7 1_555 1_555
H29_7 C36_7 1_555 1_555
H30_7 C36_7 1_555 1_555
C37_7 N3_7 1_555 1_555
H31_7 C37_7 1_555 1_555
H32_7 C37_7 1_555 1_555
N3_7 H36_7 1_555 1_555
N3_7 H37_7 1_555 1_555
N3_8 C36_8 1_555 1_555
C36_8 H28_8 1_555 1_555
H29_8 C36_8 1_555 1_555
H30_8 C36_8 1_555 1_555
C37_8 N3_8 1_555 1_555
H31_8 C37_8 1_555 1_555
H32_8 C37_8 1_555 1_555
H33_8 C37_8 1_555 1_555
N3_8 H36_8 1_555 1_555
N3_8 H37_8 1_555 1_555
N3_9 C36_9 1_555 1_555
C36_9 H28_9 1_555 1_555
H29_9 C36_9 1_555 1_555
H30_9 C36_9 1_555 1_555
C37_9 N3_9 1_555 1_555
H31_9 C37_9 1_555 1_555
H32_9 C37_9 1_555 1_555
N3_9 H36_9 1_555 1_555
N3_9 H37_9 1_555 1_555
N3_10 C36_10 1_555 1_555
C36_10 H28_10 1_555 1_555
H29_10 C36_10 1_555 1_555
H30_10 C36_10 1_555 1_555
C37_10 N3_10 1_555 1_555
H31_10 C37_10 1_555 1_555
H32_10 C37_10 1_555 1_555
H33_10 C37_10 1_555 1_555
N3_10 H37_10 1_555 1_555
N3_11 C36_11 1_555 1_555
C36_11 H28_11 1_555 1_555
H29_11 C36_11 1_555 1_555
H30_11 C36_11 1_555 1_555
C37_11 N3_11 1_555 1_555
H31_11 C37_11 1_555 1_555
H32_11 C37_11 1_555 1_555
H33_11 C37_11 1_555 1_555
N3_11 H37_11 1_555 1_555
N3_12 C36_12 1_555 1_555
C36_12 H28_12 1_555 1_555
H29_12 C36_12 1_555 1_555
H30_12 C36_12 1_555 1_555
C37_12 N3_12 1_555 1_555
H31_12 C37_12 1_555 1_555
H32_12 C37_12 1_555 1_555
H33_12 C37_12 1_555 1_555
N3_12 H37_12 1_555 1_555
N3_13 C36_13 1_555 1_555
C36_13 H28_13 1_555 1_555
H29_13 C36_13 1_555 1_555
H30_13 C36_13 1_555 1_555
C37_13 N3_13 1_555 1_555
H31_13 C37_13 1_555 1_555
H32_13 C37_13 1_555 1_555
H33_13 C37_13 1_555 1_555
N3_13 H36_13 1_555 1_555
N3_13 H37_13 1_555 1_555
N3_14 C36_14 1_555 1_555
C36_14 H28_14 1_555 1_555
H29_14 C36_14 1_555 1_555
H30_14 C36_14 1_555 1_555
C37_14 N3_14 1_555 1_555
H31_14 C37_14 1_555 1_555
H32_14 C37_14 1_555 1_555
H33_14 C37_14 1_555 1_555
N3_14 H36_14 1_555 1_555
N3_14 H37_14 1_555 1_555
N3_15 C36_15 1_555 1_555
C36_15 H28_15 1_555 1_555
H29_15 C36_15 1_555 1_555
H30_15 C36_15 1_555 1_555
C37_15 N3_15 1_555 1_555
H31_15 C37_15 1_555 1_555
H32_15 C37_15 1_555 1_555
H33_15 C37_15 1_555 1_555
N3_15 H36_15 1_555 1_555
N3_15 H37_15 1_555 1_555
N3_16 C36_16 1_555 1_555
C36_16 H28_16 1_555 1_555
H29_16 C36_16 1_555 1_555
H30_16 C36_16 1_555 1_555
C37_16 N3_16 1_555 1_555
H31_16 C37_16 1_555 1_555
H32_16 C37_16 1_555 1_555
N3_16 H36_16 1_555 1_555
N3_16 H37_16 1_555 1_555
N3_17 C36_17 1_555 1_555
C36_17 H28_17 1_555 1_555
H29_17 C36_17 1_555 1_555
H30_17 C36_17 1_555 1_555
C37_17 N3_17 1_555 1_555
H31_17 C37_17 1_555 1_555
H32_17 C37_17 1_555 1_555
H33_17 C37_17 1_555 1_555
N3_17 H36_17 1_555 1_555
N3_17 H37_17 1_555 1_555
N3_18 C36_18 1_555 1_555
C36_18 H28_18 1_555 1_555
H29_18 C36_18 1_555 1_555
H30_18 C36_18 1_555 1_555
C37_18 N3_18 1_555 1_555
H31_18 C37_18 1_555 1_555
H32_18 C37_18 1_555 1_555
N3_18 H36_18 1_555 1_555
N3_18 H37_18 1_555 1_555

#END
