
###############################################################################
#
# This file contains modified crystal structure data generated from the
# MOF subset of the Cambridge Structural Database (CSD) v543 
# hosted by the Cambridge Crystallographic Data Centre (CCDC).
#
# This work is licensed under the Creative Commons
# Attribution-NonCommercial-ShareAlike 4.0 International License.
# To view a copy of this license, visit
# http://creativecommons.org/licenses/by-nc-sa/4.0/
# or send a letter to
# Creative Commons, PO Box 1866, Mountain View, CA 94042, USA.
#
# CIF created using the CSD Python API on 29 September 2022
# The structure has been converted into the P1 space group
# The structure has a 3D framework
# The original CSD entry PEJRAZ is in the orthorhombic crystal system
# The framework has been calculated to contain at least 10.0% void space
# The void calculation uses a probe of radius 1.32A, grid spacing 0.4
#
###############################################################################

data_PEJRAZ
_chemical_formula_moiety         '(C360 H276 Co16 N32 O94)n'
_symmetry_cell_setting           triclinic
_symmetry_space_group_name_H-M   'P 1'
_symmetry_Int_Tables_number      1
_space_group_name_Hall           'P 1'
loop_
_symmetry_equiv_pos_site_id
_symmetry_equiv_pos_as_xyz
1 x,y,z
_cell_length_a                   20.131(2)
_cell_length_b                   24.767(3)
_cell_length_c                   26.928(3)
_cell_angle_alpha                90
_cell_angle_beta                 90
_cell_angle_gamma                90
_cell_volume                     13425.9
loop_
_atom_site_label
_atom_site_type_symbol
_atom_site_fract_x
_atom_site_fract_y
_atom_site_fract_z
O1 O 0.33124(18) 0.00884(15) 0.18656(13)
O4 O 0.2820(2) 0.0990(2) 0.31247(16)
O5 O 0.4080(3) 0.2729(2) 0.4527(2)
O6 O 0.4969(2) 0.21962(17) 0.43856(13)
O10 O 0.17357(19) 0.06641(14) 0.19004(14)
O12 O 0.0753(2) 0.26121(16) 0.05433(16)
H4 H 0.6788 0.0062 0.0227
H5 H 0.7106 0.1019 0.0143
H8 H 0.8749 0.1427 0.0014
C13 C 0.2532(2) 0.0376(2) 0.24904(19)
H13 H 0.4321 0.0201 0.1335
C22 C 0.3076(3) 0.0564(2) 0.28207(18)
H17 H 0.3230 0.0268 0.3027
H18 H 0.3446 0.0694 0.2624
C23 C 0.3220(3) 0.1266(3) 0.3414(2)
C24 C 0.2913(4) 0.1687(3) 0.3688(3)
H19 H 0.2457 0.1735 0.3661
C25 C 0.3277(4) 0.2034(3) 0.3997(3)
H20 H 0.3066 0.2306 0.4174
C26 C 0.3946(3) 0.1963(2) 0.4032(2)
C27 C 0.4301(3) 0.1565(3) 0.3741(2)
H21 H 0.4762 0.1546 0.3735
C28 C 0.3900(3) 0.1208(2) 0.3466(2)
H22 H 0.4104 0.0917 0.3311
C29 C 0.4368(3) 0.2346(3) 0.4368(2)
C30 C 0.1952(3) 0.0144(2) 0.2821(2)
H23 H 0.1768 0.0425 0.3030
H24 H 0.1601 0.0000 0.2613
C38 C 0.2293(3) 0.0855(2) 0.2176(2)
H29 H 0.2165 0.1155 0.2388
H30 H 0.2642 0.0975 0.1954
C39 C 0.1430(3) 0.1045(2) 0.16035(19)
C40 C 0.1682(3) 0.1572(2) 0.1545(2)
H31 H 0.2062 0.1676 0.1716
C41 C 0.1372(3) 0.1934(2) 0.1239(2)
H32 H 0.1544 0.2280 0.1202
C42 C 0.0769(3) 0.1777(2) 0.09679(19)
C43 C 0.0536(3) 0.1259(2) 0.1053(2)
H33 H 0.0148 0.1155 0.0892
C44 C 0.0841(3) 0.0882(2) 0.1363(2)
H34 H 0.0664 0.0539 0.1409
C45 C 0.0475(3) 0.2153(3) 0.0642(2)
Co3 Co 0.44694(4) 0.32074(3) 0.50643(3)
Co5 Co 0.05306(4) 0.32074(3) 0.00643(3)
Co6 Co 0.55369(3) 0.25391(3) 0.49528(3)
N3 N 0.8645(3) 0.2106(2) 0.9756(2)
N4 N 0.8032(4) 0.1422(3) 0.9609(3)
C5 C 0.7068(6) 0.0181(4) 0.9975(4)
C6 C 0.7289(7) 0.0745(4) 0.9951(4)
C7 C 0.7768(5) 0.0822(4) 0.9634(5)
C8 C 0.7961(4) 0.0512(5) 0.9273(4)
H6 H 0.8249 0.0631 0.9027
C9 C 0.7717(3) 0.0004(3) 0.9278(2)
C10 C 0.8488(3) 0.1637(2) 0.9804(2)
C11 C 0.8555(6) 0.2081(3) 0.9186(5)
H9 H 0.8724 0.2330 0.8960
C12 C 0.8200(5) 0.1652(5) 0.9070(4)
H10 H 0.8080 0.1520 0.8760
Co9 Co 0.94631(3) 0.25391(3) 0.99528(3)
Co2 Co 0.44631(3) 0.75391(3) 0.00472(3)
O2 O 0.5153(2) 0.87576(18) 0.04425(17)
O3 O 0.42831(19) 0.81765(14) 0.05281(14)
O7 O 0.2227(2) 0.97353(19) 0.31110(17)
O8 O 0.09505(19) 0.80001(16) 0.45213(12)
O9 O 0.00582(19) 0.85505(16) 0.44540(16)
C14 C 0.2771(3) 0.9914(2) 0.21732(18)
H11 H 0.2916 0.9619 0.2384
H12 H 0.2410 0.9785 0.1966
C15 C 0.3595(3) 0.9703(2) 0.1575(2)
C16 C 0.4156(3) 0.9852(3) 0.1306(2)
C17 C 0.4455(3) 0.9508(2) 0.1013(2)
H14 H 0.4835 0.9620 0.0845
C18 C 0.4243(3) 0.9010(2) 0.0944(2)
C19 C 0.3697(3) 0.8841(2) 0.1217(2)
H15 H 0.3553 0.8485 0.1189
C20 C 0.3361(3) 0.9189(2) 0.1530(2)
H16 H 0.2987 0.9076 0.1704
C21 C 0.4578(3) 0.8602(2) 0.06104(19)
H24_2 H 0.1601 1.0000 0.2613
C31 C 0.1796(3) 0.9423(2) 0.3381(2)
C32 C 0.2053(4) 0.8958(3) 0.3587(3)
H25 H 0.2495 0.8869 0.3525
C33 C 0.1695(3) 0.8635(3) 0.3869(2)
H26 H 0.1884 0.8319 0.3992
C34 C 0.1063(3) 0.8754(2) 0.39815(19)
C35 C 0.0795(3) 0.9221(2) 0.3785(2)
H27 H 0.0360 0.9317 0.3862
C36 C 0.1170(3) 0.9548(3) 0.3474(2)
H28 H 0.0981 0.9853 0.3332
C37 C 0.0685(3) 0.8418(2) 0.4311(2)
Co7 Co 0.05369(3) 0.75391(3) 0.50472(3)
O13 O 0.5920(3) 0.7729(2) 0.0473(2)
O14 O 0.5031(2) 0.71962(17) 0.06144(13)
N5 N 0.3645(3) 0.7106(2) 0.0244(2)
Co1 Co 0.55306(4) 0.82074(3) 0.99357(3)
N1 N 0.6363(3) 0.8637(2) 0.9742(2)
N2 N 0.7046(3) 0.9308(2) 0.9653(2)
C1 C 0.6427(3) 0.9152(3) 0.9741(3)
H1 H 0.6078 0.9391 0.9798
C2 C 0.6961(3) 0.8430(3) 0.9632(3)
H2 H 0.7058 0.8064 0.9605
C3 C 0.7408(3) 0.8842(3) 0.9568(3)
H3 H 0.7856 0.8814 0.9485
C4 C 0.7286(3) 0.9839(2) 0.9614(2)
H7 H 0.7859 0.9762 0.9036
O15 O 0.40495(19) 0.80001(16) 0.95213(12)
O16 O 0.49418(19) 0.85505(16) 0.94540(16)
O17 O 0.49086(18) 0.70365(14) 0.95874(13)
O18 O 0.5753(2) 0.76121(16) 0.94567(16)
O11 O 0.99086(18) 0.20365(14) 0.04126(13)
Co4 Co 0.94694(4) 0.82074(3) 0.49357(3)
O11_2 O 0.00914(18) 0.70365(14) 0.45874(13)
O1_2 O 0.66876(18) 0.50884(15) 0.31344(13)
O2_2 O 0.4847(2) 0.37576(18) 0.45575(17)
O3_2 O 0.57169(19) 0.31765(14) 0.44719(14)
O4_2 O 0.7180(2) 0.5990(2) 0.18753(16)
O7_2 O 0.7773(2) 0.47353(19) 0.18890(17)
O8_2 O 0.90495(19) 0.30001(16) 0.04787(12)
O9_2 O 0.99418(19) 0.35505(16) 0.05460(16)
O10_2 O 0.82643(19) 0.56641(14) 0.30996(14)
O12_2 O 0.9247(2) 0.76121(16) 0.44567(16)
N1_2 N 0.3637(3) 0.3637(2) 0.5258(2)
N2_2 N 0.2954(3) 0.4308(2) 0.5347(2)
N3_2 N 0.1355(3) 0.7106(2) 0.5244(2)
N4_2 N 0.1968(4) 0.6422(3) 0.5391(3)
C1_2 C 0.3573(3) 0.4152(3) 0.5259(3)
H1_2 H 0.3922 0.4391 0.5202
C2_2 C 0.3039(3) 0.3430(3) 0.5368(3)
H2_2 H 0.2942 0.3064 0.5395
C3_2 C 0.2592(3) 0.3842(3) 0.5432(3)
H3_2 H 0.2144 0.3814 0.5515
C4_2 C 0.2714(3) 0.4839(2) 0.5386(2)
C5_2 C 0.2932(6) 0.5181(4) 0.5025(4)
H4_2 H 0.3212 0.5062 0.4773
C6_2 C 0.2711(7) 0.5745(4) 0.5049(4)
H5_2 H 0.2894 0.6019 0.4857
C7_2 C 0.2232(5) 0.5822(4) 0.5366(5)
C8_2 C 0.2039(4) 0.5512(5) 0.5727(4)
H6_2 H 0.1751 0.5631 0.5973
C9_2 C 0.2283(3) 0.5004(3) 0.5722(2)
H7_2 H 0.2141 0.4762 0.5964
C10_2 C 0.1512(3) 0.6637(2) 0.5196(2)
H8_2 H 0.1251 0.6427 0.4986
C11_2 C 0.1445(6) 0.7081(3) 0.5814(5)
H9_2 H 0.1276 0.7330 0.6040
C12_2 C 0.1800(5) 0.6652(5) 0.5930(4)
H10_2 H 0.1920 0.6520 0.6240
C13_2 C 0.7468(2) 0.5376(2) 0.25096(19)
C14_2 C 0.7229(3) 0.4914(2) 0.28268(18)
H11_2 H 0.7084 0.4619 0.2616
H12_2 H 0.7590 0.4785 0.3034
C15_2 C 0.6405(3) 0.4703(2) 0.3425(2)
C16_2 C 0.5844(3) 0.4852(3) 0.3694(2)
H13_2 H 0.5679 0.5201 0.3665
C17_2 C 0.5545(3) 0.4508(2) 0.3987(2)
H14_2 H 0.5165 0.4620 0.4155
C18_2 C 0.5757(3) 0.4010(2) 0.4056(2)
C19_2 C 0.6303(3) 0.3841(2) 0.3783(2)
H15_2 H 0.6447 0.3485 0.3811
C20_2 C 0.6639(3) 0.4189(2) 0.3470(2)
H16_2 H 0.7013 0.4076 0.3296
C21_2 C 0.5422(3) 0.3602(2) 0.43896(19)
C22_2 C 0.6924(3) 0.5564(2) 0.21793(18)
H17_2 H 0.6770 0.5268 0.1973
H18_2 H 0.6554 0.5694 0.2376
C23_2 C 0.6780(3) 0.6266(3) 0.1586(2)
C24_2 C 0.7087(4) 0.6687(3) 0.1312(3)
H19_2 H 0.7543 0.6735 0.1339
C25_2 C 0.6723(4) 0.7034(3) 0.1003(3)
H20_2 H 0.6934 0.7306 0.0826
C26_2 C 0.6054(3) 0.6963(2) 0.0968(2)
C27_2 C 0.5699(3) 0.6565(3) 0.1259(2)
H21_2 H 0.5238 0.6546 0.1265
C28_2 C 0.6100(3) 0.6208(2) 0.1534(2)
H22_2 H 0.5896 0.5917 0.1689
C29_2 C 0.5632(3) 0.7346(3) 0.0632(2)
C30_2 C 0.8048(3) 0.5144(2) 0.2179(2)
H23_2 H 0.8232 0.5425 0.1970
H24_3 H 0.8399 0.5000 0.2387
C31_2 C 0.8204(3) 0.4423(2) 0.1619(2)
C32_2 C 0.7947(4) 0.3958(3) 0.1413(3)
H25_2 H 0.7505 0.3869 0.1475
C33_2 C 0.8305(3) 0.3635(3) 0.1131(2)
H26_2 H 0.8116 0.3319 0.1008
C34_2 C 0.8937(3) 0.3754(2) 0.10185(19)
C35_2 C 0.9205(3) 0.4221(2) 0.1215(2)
H27_2 H 0.9640 0.4317 0.1138
C36_2 C 0.8830(3) 0.4548(3) 0.1526(2)
H28_2 H 0.9019 0.4853 0.1668
C37_2 C 0.9315(3) 0.3418(2) 0.0689(2)
C38_2 C 0.7707(3) 0.5855(2) 0.2824(2)
H29_2 H 0.7835 0.6155 0.2612
H30_2 H 0.7358 0.5975 0.3046
C39_2 C 0.8570(3) 0.6045(2) 0.33965(19)
C40_2 C 0.8318(3) 0.6572(2) 0.3455(2)
H31_2 H 0.7938 0.6676 0.3284
C41_2 C 0.8628(3) 0.6934(2) 0.3761(2)
H32_2 H 0.8456 0.7280 0.3798
C42_2 C 0.9231(3) 0.6777(2) 0.40321(19)
C43_2 C 0.9464(3) 0.6259(2) 0.3947(2)
H33_2 H 0.9852 0.6155 0.4108
C44_2 C 0.9159(3) 0.5882(2) 0.3637(2)
H34_2 H 0.9336 0.5539 0.3591
C45_2 C 0.9525(3) 0.7153(3) 0.4358(2)
O15_2 O 0.59505(19) 0.30001(16) 0.54787(12)
O16_2 O 0.50582(19) 0.35505(16) 0.55460(16)
O17_2 O 0.50914(18) 0.20365(14) 0.54126(13)
O18_2 O 0.4247(2) 0.26121(16) 0.55433(16)
N5_2 N 0.6355(3) 0.2106(2) 0.4756(2)
N1_3 N 0.1363(3) 0.3637(2) 0.0258(2)
N2_3 N 0.2046(3) 0.4308(2) 0.0347(2)
N4_3 N 0.3032(4) 0.6422(3) 0.0391(3)
C1_3 C 0.1427(3) 0.4152(3) 0.0259(3)
H1_3 H 0.1078 0.4391 0.0202
C2_3 C 0.1961(3) 0.3430(3) 0.0368(3)
H2_3 H 0.2058 0.3064 0.0395
C3_3 C 0.2408(3) 0.3842(3) 0.0432(3)
H3_3 H 0.2856 0.3814 0.0515
C4_3 C 0.2286(3) 0.4839(2) 0.0386(2)
C5_3 C 0.2068(6) 0.5181(4) 0.0025(4)
C6_3 C 0.2289(7) 0.5745(4) 0.0049(4)
C7_3 C 0.2768(5) 0.5822(4) 0.0366(5)
C8_3 C 0.2961(4) 0.5512(5) 0.0727(4)
H6_3 H 0.3249 0.5631 0.0973
C9_3 C 0.2717(3) 0.5004(3) 0.0722(2)
H7_3 H 0.2859 0.4762 0.0964
C10_3 C 0.3488(3) 0.6637(2) 0.0196(2)
C11_3 C 0.3555(6) 0.7081(3) 0.0814(5)
H9_3 H 0.3724 0.7330 0.1040
C12_3 C 0.3200(5) 0.6652(5) 0.0930(4)
H10_3 H 0.3080 0.6520 0.1240
O2_3 O 0.0153(2) 0.37576(18) 0.95575(17)
H4_3 H 0.1788 0.5062 0.9773
H5_3 H 0.2106 0.6019 0.9857
H8_3 H 0.3749 0.6427 0.9986
O13_2 O 0.0920(3) 0.2729(2) 0.9527(2)
O14_2 O 0.0031(2) 0.21962(17) 0.93856(13)
O1_3 O 0.83124(18) 0.50884(15) 0.81344(13)
O3_3 O 0.92831(19) 0.31765(14) 0.94719(14)
O4_3 O 0.7820(2) 0.5990(2) 0.68753(16)
O5_2 O 0.9080(3) 0.7729(2) 0.5473(2)
O6_2 O 0.9969(2) 0.71962(17) 0.56144(13)
O7_3 O 0.7227(2) 0.47353(19) 0.68890(17)
O10_3 O 0.67357(19) 0.56641(14) 0.80996(14)
C13_3 C 0.7532(2) 0.5376(2) 0.75096(19)
C14_3 C 0.7771(3) 0.4914(2) 0.78268(18)
H11_3 H 0.7916 0.4619 0.7616
H12_3 H 0.7410 0.4785 0.8034
C15_3 C 0.8595(3) 0.4703(2) 0.8425(2)
C16_3 C 0.9156(3) 0.4852(3) 0.8694(2)
H13_3 H 0.9321 0.5201 0.8665
C17_3 C 0.9455(3) 0.4508(2) 0.8987(2)
H14_3 H 0.9835 0.4620 0.9155
C18_3 C 0.9243(3) 0.4010(2) 0.9056(2)
C19_3 C 0.8697(3) 0.3841(2) 0.8783(2)
H15_3 H 0.8553 0.3485 0.8811
C20_3 C 0.8361(3) 0.4189(2) 0.8470(2)
H16_3 H 0.7987 0.4076 0.8296
C21_3 C 0.9578(3) 0.3602(2) 0.93896(19)
C22_3 C 0.8076(3) 0.5564(2) 0.71793(18)
H17_3 H 0.8230 0.5268 0.6973
H18_3 H 0.8446 0.5694 0.7376
C23_3 C 0.8220(3) 0.6266(3) 0.6586(2)
C24_3 C 0.7913(4) 0.6687(3) 0.6312(3)
H19_3 H 0.7457 0.6735 0.6339
C25_3 C 0.8277(4) 0.7034(3) 0.6003(3)
H20_3 H 0.8066 0.7306 0.5826
C26_3 C 0.8946(3) 0.6963(2) 0.5968(2)
C27_3 C 0.9301(3) 0.6565(3) 0.6259(2)
H21_3 H 0.9762 0.6546 0.6265
C28_3 C 0.8900(3) 0.6208(2) 0.6534(2)
H22_3 H 0.9104 0.5917 0.6689
C29_3 C 0.9368(3) 0.7346(3) 0.5632(2)
C30_3 C 0.6952(3) 0.5144(2) 0.7179(2)
H23_3 H 0.6768 0.5425 0.6970
H24_4 H 0.6601 0.5000 0.7387
C31_3 C 0.6796(3) 0.4423(2) 0.6619(2)
C32_3 C 0.7053(4) 0.3958(3) 0.6413(3)
H25_3 H 0.7495 0.3869 0.6475
C33_3 C 0.6695(3) 0.3635(3) 0.6131(2)
H26_3 H 0.6884 0.3319 0.6008
C34_3 C 0.6063(3) 0.3754(2) 0.60185(19)
C35_3 C 0.5795(3) 0.4221(2) 0.6215(2)
H27_3 H 0.5360 0.4317 0.6138
C36_3 C 0.6170(3) 0.4548(3) 0.6526(2)
H28_3 H 0.5981 0.4853 0.6668
C37_3 C 0.5685(3) 0.3418(2) 0.5689(2)
C38_3 C 0.7293(3) 0.5855(2) 0.7824(2)
H29_3 H 0.7165 0.6155 0.7612
H30_3 H 0.7642 0.5975 0.8046
C39_3 C 0.6430(3) 0.6045(2) 0.83965(19)
C40_3 C 0.6682(3) 0.6572(2) 0.8455(2)
H31_3 H 0.7062 0.6676 0.8284
C41_3 C 0.6372(3) 0.6934(2) 0.8761(2)
H32_3 H 0.6544 0.7280 0.8798
C42_3 C 0.5769(3) 0.6777(2) 0.90321(19)
C43_3 C 0.5536(3) 0.6259(2) 0.8947(2)
H33_3 H 0.5148 0.6155 0.9108
C44_3 C 0.5841(3) 0.5882(2) 0.8637(2)
H34_3 H 0.5664 0.5539 0.8591
C45_3 C 0.5475(3) 0.7153(3) 0.9358(2)
O1_4 O 0.16876(18) 0.00884(15) 0.68656(13)
O4_4 O 0.2180(2) 0.0990(2) 0.81247(16)
O10_4 O 0.32643(19) 0.06641(14) 0.69004(14)
C13_4 C 0.2468(2) 0.0376(2) 0.74904(19)
H13_4 H 0.0679 0.0201 0.6335
C22_4 C 0.1924(3) 0.0564(2) 0.78207(18)
H17_4 H 0.1770 0.0268 0.8027
H18_4 H 0.1554 0.0694 0.7624
C23_4 C 0.1780(3) 0.1266(3) 0.8414(2)
C24_4 C 0.2087(4) 0.1687(3) 0.8688(3)
H19_4 H 0.2543 0.1735 0.8661
C25_4 C 0.1723(4) 0.2034(3) 0.8997(3)
H20_4 H 0.1934 0.2306 0.9174
C26_4 C 0.1054(3) 0.1963(2) 0.9032(2)
C27_4 C 0.0699(3) 0.1565(3) 0.8741(2)
H21_4 H 0.0238 0.1546 0.8735
C28_4 C 0.1100(3) 0.1208(2) 0.8466(2)
H22_4 H 0.0896 0.0917 0.8311
C29_4 C 0.0632(3) 0.2346(3) 0.9368(2)
C30_4 C 0.3048(3) 0.0144(2) 0.7821(2)
H23_4 H 0.3232 0.0425 0.8030
H24_5 H 0.3399 0.0000 0.7613
C38_4 C 0.2707(3) 0.0855(2) 0.7176(2)
H29_4 H 0.2835 0.1155 0.7388
H30_4 H 0.2358 0.0975 0.6954
C39_4 C 0.3570(3) 0.1045(2) 0.66035(19)
C40_4 C 0.3318(3) 0.1572(2) 0.6545(2)
H31_4 H 0.2938 0.1676 0.6716
C41_4 C 0.3628(3) 0.1934(2) 0.6239(2)
H32_4 H 0.3456 0.2280 0.6202
C42_4 C 0.4231(3) 0.1777(2) 0.59679(19)
C43_4 C 0.4464(3) 0.1259(2) 0.6053(2)
H33_4 H 0.4852 0.1155 0.5892
C44_4 C 0.4159(3) 0.0882(2) 0.6363(2)
H34_4 H 0.4336 0.0539 0.6409
C45_4 C 0.4525(3) 0.2153(3) 0.5642(2)
O3_4 O 0.07169(19) 0.81765(14) 0.55281(14)
O7_4 O 0.2773(2) 0.97353(19) 0.81110(17)
C14_4 C 0.2229(3) 0.9914(2) 0.71732(18)
H11_4 H 0.2084 0.9619 0.7384
H12_4 H 0.2590 0.9785 0.6966
C15_4 C 0.1405(3) 0.9703(2) 0.6575(2)
C16_4 C 0.0844(3) 0.9852(3) 0.6306(2)
C17_4 C 0.0545(3) 0.9508(2) 0.6013(2)
H14_4 H 0.0165 0.9620 0.5845
C18_4 C 0.0757(3) 0.9010(2) 0.5944(2)
C19_4 C 0.1303(3) 0.8841(2) 0.6217(2)
H15_4 H 0.1447 0.8485 0.6189
C20_4 C 0.1639(3) 0.9189(2) 0.6530(2)
H16_4 H 0.2013 0.9076 0.6704
C21_4 C 0.0422(3) 0.8602(2) 0.56104(19)
H24_6 H 0.3399 1.0000 0.7613
C31_4 C 0.3204(3) 0.9423(2) 0.8381(2)
C32_4 C 0.2947(4) 0.8958(3) 0.8587(3)
H25_4 H 0.2505 0.8869 0.8525
C33_4 C 0.3305(3) 0.8635(3) 0.8869(2)
H26_4 H 0.3116 0.8319 0.8992
C34_4 C 0.3937(3) 0.8754(2) 0.89815(19)
C35_4 C 0.4205(3) 0.9221(2) 0.8785(2)
H27_4 H 0.4640 0.9317 0.8862
C36_4 C 0.3830(3) 0.9548(3) 0.8474(2)
H28_4 H 0.4019 0.9853 0.8332
C37_4 C 0.4315(3) 0.8418(2) 0.9311(2)
N4_4 N 0.6968(4) 0.1422(3) 0.4609(3)
C5_4 C 0.7932(6) 0.0181(4) 0.4975(4)
H4_4 H 0.8212 0.0062 0.5227
C6_4 C 0.7711(7) 0.0745(4) 0.4951(4)
H5_4 H 0.7894 0.1019 0.5143
C7_4 C 0.7232(5) 0.0822(4) 0.4634(5)
C8_4 C 0.7039(4) 0.0512(5) 0.4273(4)
H6_4 H 0.6751 0.0631 0.4027
C9_4 C 0.7283(3) 0.0004(3) 0.4278(2)
C10_4 C 0.6512(3) 0.1637(2) 0.4804(2)
H8_4 H 0.6251 0.1427 0.5014
C11_4 C 0.6445(6) 0.2081(3) 0.4186(5)
H9_4 H 0.6276 0.2330 0.3960
C12_4 C 0.6800(5) 0.1652(5) 0.4070(4)
H10_4 H 0.6920 0.1520 0.3760
O2_4 O 0.9847(2) 0.87576(18) 0.54425(17)
N1_4 N 0.8637(3) 0.8637(2) 0.4742(2)
N2_4 N 0.7954(3) 0.9308(2) 0.4653(2)
C1_4 C 0.8573(3) 0.9152(3) 0.4741(3)
H1_4 H 0.8922 0.9391 0.4798
C2_4 C 0.8039(3) 0.8430(3) 0.4632(3)
H2_4 H 0.7942 0.8064 0.4605
C3_4 C 0.7592(3) 0.8842(3) 0.4568(3)
H3_4 H 0.7144 0.8814 0.4485
C4_4 C 0.7714(3) 0.9839(2) 0.4614(2)
H7_4 H 0.7141 0.9762 0.4036
Co2_2 Co 0.05369(3) 0.74609(3) 0.00472(3)
O1_5 O 0.16876(18) 0.49116(15) 0.18656(13)
O3_5 O 0.07169(19) 0.68235(14) 0.05281(14)
O4_5 O 0.2180(2) 0.4010(2) 0.31247(16)
O5_3 O 0.0920(3) 0.2271(2) 0.4527(2)
O6_3 O 0.0031(2) 0.28038(17) 0.43856(13)
O7_5 O 0.2773(2) 0.52647(19) 0.31110(17)
O8_3 O 0.40495(19) 0.69999(16) 0.45213(12)
O9_3 O 0.49418(19) 0.64495(16) 0.44540(16)
O10_5 O 0.32643(19) 0.43359(14) 0.19004(14)
O11_3 O 0.50914(18) 0.29635(14) 0.04126(13)
O12_3 O 0.4247(2) 0.23879(16) 0.05433(16)
C13_5 C 0.2468(2) 0.4624(2) 0.24904(19)
C14_5 C 0.2229(3) 0.5086(2) 0.21732(18)
H11_5 H 0.2084 0.5381 0.2384
H12_5 H 0.2590 0.5215 0.1966
C15_5 C 0.1405(3) 0.5297(2) 0.1575(2)
C16_5 C 0.0844(3) 0.5148(3) 0.1306(2)
H13_5 H 0.0679 0.4799 0.1335
C17_5 C 0.0545(3) 0.5492(2) 0.1013(2)
H14_5 H 0.0165 0.5380 0.0845
C18_5 C 0.0757(3) 0.5990(2) 0.0944(2)
C19_5 C 0.1303(3) 0.6159(2) 0.1217(2)
H15_5 H 0.1447 0.6515 0.1189
C20_5 C 0.1639(3) 0.5811(2) 0.1530(2)
H16_5 H 0.2013 0.5924 0.1704
C21_5 C 0.0422(3) 0.6398(2) 0.06104(19)
C22_5 C 0.1924(3) 0.4436(2) 0.28207(18)
H17_5 H 0.1770 0.4732 0.3027
H18_5 H 0.1554 0.4306 0.2624
C23_5 C 0.1780(3) 0.3734(3) 0.3414(2)
C24_5 C 0.2087(4) 0.3313(3) 0.3688(3)
H19_5 H 0.2543 0.3265 0.3661
C25_5 C 0.1723(4) 0.2966(3) 0.3997(3)
H20_5 H 0.1934 0.2694 0.4174
C26_5 C 0.1054(3) 0.3037(2) 0.4032(2)
C27_5 C 0.0699(3) 0.3435(3) 0.3741(2)
H21_5 H 0.0238 0.3454 0.3735
C28_5 C 0.1100(3) 0.3792(2) 0.3466(2)
H22_5 H 0.0896 0.4083 0.3311
C29_5 C 0.0632(3) 0.2654(3) 0.4368(2)
C30_5 C 0.3048(3) 0.4856(2) 0.2821(2)
H23_5 H 0.3232 0.4575 0.3030
H24_7 H 0.3399 0.5000 0.2613
C31_5 C 0.3204(3) 0.5577(2) 0.3381(2)
C32_5 C 0.2947(4) 0.6042(3) 0.3587(3)
H25_5 H 0.2505 0.6131 0.3525
C33_5 C 0.3305(3) 0.6365(3) 0.3869(2)
H26_5 H 0.3116 0.6681 0.3992
C34_5 C 0.3937(3) 0.6246(2) 0.39815(19)
C35_5 C 0.4205(3) 0.5779(2) 0.3785(2)
H27_5 H 0.4640 0.5683 0.3862
C36_5 C 0.3830(3) 0.5452(3) 0.3474(2)
H28_5 H 0.4019 0.5147 0.3332
C37_5 C 0.4315(3) 0.6582(2) 0.4311(2)
C38_5 C 0.2707(3) 0.4145(2) 0.2176(2)
H29_5 H 0.2835 0.3845 0.2388
H30_5 H 0.2358 0.4025 0.1954
C39_5 C 0.3570(3) 0.3955(2) 0.16035(19)
C40_5 C 0.3318(3) 0.3428(2) 0.1545(2)
H31_5 H 0.2938 0.3324 0.1716
C41_5 C 0.3628(3) 0.3066(2) 0.1239(2)
H32_5 H 0.3456 0.2720 0.1202
C42_5 C 0.4231(3) 0.3223(2) 0.09679(19)
C43_5 C 0.4464(3) 0.3741(2) 0.1053(2)
H33_5 H 0.4852 0.3845 0.0892
C44_5 C 0.4159(3) 0.4118(2) 0.1363(2)
H34_5 H 0.4336 0.4461 0.1409
C45_5 C 0.4525(3) 0.2847(3) 0.0642(2)
Co3_2 Co 0.05306(4) 0.17926(3) 0.50643(3)
Co4_2 Co 0.55306(4) 0.67926(3) 0.49357(3)
Co5_2 Co 0.44694(4) 0.17926(3) 0.00643(3)
Co7_2 Co 0.44631(3) 0.74609(3) 0.50472(3)
N5_3 N 0.1355(3) 0.7894(2) 0.0244(2)
Co8 Co 0.55369(3) 0.24609(3) 0.99528(3)
O15_3 O 0.09505(19) 0.69999(16) 0.95213(12)
O16_3 O 0.00582(19) 0.64495(16) 0.94540(16)
O17_3 O 0.00914(18) 0.79635(14) 0.95874(13)
O2_5 O 0.9847(2) 0.62424(18) 0.04425(17)
H4_5 H 0.8212 0.4938 0.0227
H5_5 H 0.7894 0.3981 0.0143
H8_5 H 0.6251 0.3573 0.0014
Co6_2 Co 0.94631(3) 0.24609(3) 0.49528(3)
O13_3 O 0.9080(3) 0.7271(2) 0.0473(2)
O14_3 O 0.9969(2) 0.78038(17) 0.06144(13)
Co1_2 Co 0.94694(4) 0.67926(3) 0.99357(3)
N1_5 N 0.8637(3) 0.6363(2) 0.9742(2)
N2_5 N 0.7954(3) 0.5692(2) 0.9653(2)
N3_3 N 0.6355(3) 0.2894(2) 0.9756(2)
N4_5 N 0.6968(4) 0.3578(3) 0.9609(3)
C1_5 C 0.8573(3) 0.5848(3) 0.9741(3)
H1_5 H 0.8922 0.5609 0.9798
C2_5 C 0.8039(3) 0.6570(3) 0.9632(3)
H2_5 H 0.7942 0.6936 0.9605
C3_5 C 0.7592(3) 0.6158(3) 0.9568(3)
H3_5 H 0.7144 0.6186 0.9485
C4_5 C 0.7714(3) 0.5161(2) 0.9614(2)
C5_5 C 0.7932(6) 0.4819(4) 0.9975(4)
C6_5 C 0.7711(7) 0.4255(4) 0.9951(4)
C7_5 C 0.7232(5) 0.4178(4) 0.9634(5)
C8_5 C 0.7039(4) 0.4488(5) 0.9273(4)
H6_5 H 0.6751 0.4369 0.9027
C9_5 C 0.7283(3) 0.4996(3) 0.9278(2)
H7_5 H 0.7141 0.5238 0.9036
C10_5 C 0.6512(3) 0.3363(2) 0.9804(2)
C11_5 C 0.6445(6) 0.2919(3) 0.9186(5)
H9_5 H 0.6276 0.2670 0.8960
C12_5 C 0.6800(5) 0.3348(5) 0.9070(4)
H10_5 H 0.6920 0.3480 0.8760
O18_3 O 0.9247(2) 0.73879(16) 0.94567(16)
O2_6 O 0.0153(2) 0.12424(18) 0.45575(17)
N1_6 N 0.1363(3) 0.1363(2) 0.5258(2)
N2_6 N 0.2046(3) 0.0692(2) 0.5347(2)
C1_6 C 0.1427(3) 0.0848(3) 0.5259(3)
H1_6 H 0.1078 0.0609 0.5202
C2_6 C 0.1961(3) 0.1570(3) 0.5368(3)
H2_6 H 0.2058 0.1936 0.5395
C3_6 C 0.2408(3) 0.1158(3) 0.5432(3)
H3_6 H 0.2856 0.1186 0.5515
C4_6 C 0.2286(3) 0.0161(2) 0.5386(2)
H7_6 H 0.2859 0.0238 0.5964
O18_4 O 0.0753(2) 0.23879(16) 0.55433(16)
N3_4 N 0.3645(3) 0.7894(2) 0.5244(2)
N4_6 N 0.3032(4) 0.8578(3) 0.5391(3)
C5_6 C 0.2068(6) 0.9819(4) 0.5025(4)
H4_6 H 0.1788 0.9938 0.4773
C6_6 C 0.2289(7) 0.9255(4) 0.5049(4)
H5_6 H 0.2106 0.8981 0.4857
C7_6 C 0.2768(5) 0.9178(4) 0.5366(5)
C8_6 C 0.2961(4) 0.9488(5) 0.5727(4)
H6_6 H 0.3249 0.9369 0.5973
C9_6 C 0.2717(3) 0.9996(3) 0.5722(2)
C10_6 C 0.3488(3) 0.8363(2) 0.5196(2)
H8_6 H 0.3749 0.8573 0.4986
C11_6 C 0.3555(6) 0.7919(3) 0.5814(5)
H9_6 H 0.3724 0.7670 0.6040
C12_6 C 0.3200(5) 0.8348(5) 0.5930(4)
H10_6 H 0.3080 0.8480 0.6240
O3_6 O 0.92831(19) 0.18235(14) 0.44719(14)
O7_6 O 0.7227(2) 0.02647(19) 0.18890(17)
O8_4 O 0.59505(19) 0.19999(16) 0.04787(12)
O9_4 O 0.50582(19) 0.14495(16) 0.05460(16)
C14_6 C 0.7771(3) 0.0086(2) 0.28268(18)
H11_6 H 0.7916 0.0381 0.2616
H12_6 H 0.7410 0.0215 0.3034
C15_6 C 0.8595(3) 0.0297(2) 0.3425(2)
C16_6 C 0.9156(3) 0.0148(3) 0.3694(2)
C17_6 C 0.9455(3) 0.0492(2) 0.3987(2)
H14_6 H 0.9835 0.0380 0.4155
C18_6 C 0.9243(3) 0.0990(2) 0.4056(2)
C19_6 C 0.8697(3) 0.1159(2) 0.3783(2)
H15_6 H 0.8553 0.1515 0.3811
C20_6 C 0.8361(3) 0.0811(2) 0.3470(2)
H16_6 H 0.7987 0.0924 0.3296
C21_6 C 0.9578(3) 0.1398(2) 0.43896(19)
H24_8 H 0.6601 0.0000 0.2387
C31_6 C 0.6796(3) 0.0577(2) 0.1619(2)
C32_6 C 0.7053(4) 0.1042(3) 0.1413(3)
H25_6 H 0.7495 0.1131 0.1475
C33_6 C 0.6695(3) 0.1365(3) 0.1131(2)
H26_6 H 0.6884 0.1681 0.1008
C34_6 C 0.6063(3) 0.1246(2) 0.10185(19)
C35_6 C 0.5795(3) 0.0779(2) 0.1215(2)
H27_6 H 0.5360 0.0683 0.1138
C36_6 C 0.6170(3) 0.0452(3) 0.1526(2)
H28_6 H 0.5981 0.0147 0.1668
C37_6 C 0.5685(3) 0.1582(2) 0.0689(2)
O15_4 O 0.90495(19) 0.19999(16) 0.54787(12)
O16_4 O 0.99418(19) 0.14495(16) 0.55460(16)
O17_4 O 0.99086(18) 0.29635(14) 0.54126(13)
N5_4 N 0.8645(3) 0.2894(2) 0.4756(2)
O1_6 O 0.83124(18) 0.99116(15) 0.31344(13)
O4_6 O 0.7820(2) 0.9010(2) 0.18753(16)
O10_6 O 0.67357(19) 0.93359(14) 0.30996(14)
O11_4 O 0.49086(18) 0.79635(14) 0.45874(13)
O12_4 O 0.5753(2) 0.73879(16) 0.44567(16)
C13_6 C 0.7532(2) 0.9624(2) 0.25096(19)
H13_6 H 0.9321 0.9799 0.3665
C22_6 C 0.8076(3) 0.9436(2) 0.21793(18)
H17_6 H 0.8230 0.9732 0.1973
H18_6 H 0.8446 0.9306 0.2376
C23_6 C 0.8220(3) 0.8734(3) 0.1586(2)
C24_6 C 0.7913(4) 0.8313(3) 0.1312(3)
H19_6 H 0.7457 0.8265 0.1339
C25_6 C 0.8277(4) 0.7966(3) 0.1003(3)
H20_6 H 0.8066 0.7694 0.0826
C26_6 C 0.8946(3) 0.8037(2) 0.0968(2)
C27_6 C 0.9301(3) 0.8435(3) 0.1259(2)
H21_6 H 0.9762 0.8454 0.1265
C28_6 C 0.8900(3) 0.8792(2) 0.1534(2)
H22_6 H 0.9104 0.9083 0.1689
C29_6 C 0.9368(3) 0.7654(3) 0.0632(2)
C30_6 C 0.6952(3) 0.9856(2) 0.2179(2)
H23_6 H 0.6768 0.9575 0.1970
H24_9 H 0.6601 1.0000 0.2387
C38_6 C 0.7293(3) 0.9145(2) 0.2824(2)
H29_6 H 0.7165 0.8845 0.2612
H30_6 H 0.7642 0.9025 0.3046
C39_6 C 0.6430(3) 0.8955(2) 0.33965(19)
C40_6 C 0.6682(3) 0.8428(2) 0.3455(2)
H31_6 H 0.7062 0.8324 0.3284
C41_6 C 0.6372(3) 0.8066(2) 0.3761(2)
H32_6 H 0.6544 0.7720 0.3798
C42_6 C 0.5769(3) 0.8223(2) 0.40321(19)
C43_6 C 0.5536(3) 0.8741(2) 0.3947(2)
H33_6 H 0.5148 0.8845 0.4108
C44_6 C 0.5841(3) 0.9118(2) 0.3637(2)
H34_6 H 0.5664 0.9461 0.3591
C45_6 C 0.5475(3) 0.7847(3) 0.4358(2)
N1_7 N 0.3637(3) 0.1363(2) 0.0258(2)
N2_7 N 0.2954(3) 0.0692(2) 0.0347(2)
C1_7 C 0.3573(3) 0.0848(3) 0.0259(3)
H1_7 H 0.3922 0.0609 0.0202
C2_7 C 0.3039(3) 0.1570(3) 0.0368(3)
H2_7 H 0.2942 0.1936 0.0395
C3_7 C 0.2592(3) 0.1158(3) 0.0432(3)
H3_7 H 0.2144 0.1186 0.0515
C4_7 C 0.2714(3) 0.0161(2) 0.0386(2)
H7_7 H 0.2141 0.0238 0.0964
O2_7 O 0.4847(2) 0.12424(18) 0.95575(17)
O3_7 O 0.57169(19) 0.18235(14) 0.94719(14)
O7_7 O 0.7773(2) 0.02647(19) 0.68890(17)
C14_7 C 0.7229(3) 0.0086(2) 0.78268(18)
H11_7 H 0.7084 0.0381 0.7616
H12_7 H 0.7590 0.0215 0.8034
C15_7 C 0.6405(3) 0.0297(2) 0.8425(2)
C16_7 C 0.5844(3) 0.0148(3) 0.8694(2)
C17_7 C 0.5545(3) 0.0492(2) 0.8987(2)
H14_7 H 0.5165 0.0380 0.9155
C18_7 C 0.5757(3) 0.0990(2) 0.9056(2)
C19_7 C 0.6303(3) 0.1159(2) 0.8783(2)
H15_7 H 0.6447 0.1515 0.8811
C20_7 C 0.6639(3) 0.0811(2) 0.8470(2)
H16_7 H 0.7013 0.0924 0.8296
C21_7 C 0.5422(3) 0.1398(2) 0.93896(19)
H24_10 H 0.8399 0.0000 0.7387
C31_7 C 0.8204(3) 0.0577(2) 0.6619(2)
C32_7 C 0.7947(4) 0.1042(3) 0.6413(3)
H25_7 H 0.7505 0.1131 0.6475
C33_7 C 0.8305(3) 0.1365(3) 0.6131(2)
H26_7 H 0.8116 0.1681 0.6008
C34_7 C 0.8937(3) 0.1246(2) 0.60185(19)
C35_7 C 0.9205(3) 0.0779(2) 0.6215(2)
H27_7 H 0.9640 0.0683 0.6138
C36_7 C 0.8830(3) 0.0452(3) 0.6526(2)
H28_7 H 0.9019 0.0147 0.6668
C37_7 C 0.9315(3) 0.1582(2) 0.5689(2)
O13_4 O 0.4080(3) 0.2271(2) 0.9527(2)
O14_4 O 0.4969(2) 0.28038(17) 0.93856(13)
N4_7 N 0.1968(4) 0.8578(3) 0.0391(3)
C5_7 C 0.2932(6) 0.9819(4) 0.0025(4)
C6_7 C 0.2711(7) 0.9255(4) 0.0049(4)
C7_7 C 0.2232(5) 0.9178(4) 0.0366(5)
C8_7 C 0.2039(4) 0.9488(5) 0.0727(4)
H6_7 H 0.1751 0.9369 0.0973
C9_7 C 0.2283(3) 0.9996(3) 0.0722(2)
C10_7 C 0.1512(3) 0.8363(2) 0.0196(2)
C11_7 C 0.1445(6) 0.7919(3) 0.0814(5)
H9_7 H 0.1276 0.7670 0.1040
C12_7 C 0.1800(5) 0.8348(5) 0.0930(4)
H10_7 H 0.1920 0.8480 0.1240
O1_7 O 0.66876(18) 0.99116(15) 0.81344(13)
O4_7 O 0.7180(2) 0.9010(2) 0.68753(16)
O5_4 O 0.5920(3) 0.7271(2) 0.5473(2)
O6_4 O 0.5031(2) 0.78038(17) 0.56144(13)
O10_7 O 0.82643(19) 0.93359(14) 0.80996(14)
H4_7 H 0.3212 0.9938 0.9773
H5_7 H 0.2894 0.8981 0.9857
H8_7 H 0.1251 0.8573 0.9986
C13_7 C 0.7468(2) 0.9624(2) 0.75096(19)
H13_7 H 0.5679 0.9799 0.8665
C22_7 C 0.6924(3) 0.9436(2) 0.71793(18)
H17_7 H 0.6770 0.9732 0.6973
H18_7 H 0.6554 0.9306 0.7376
C23_7 C 0.6780(3) 0.8734(3) 0.6586(2)
C24_7 C 0.7087(4) 0.8313(3) 0.6312(3)
H19_7 H 0.7543 0.8265 0.6339
C25_7 C 0.6723(4) 0.7966(3) 0.6003(3)
H20_7 H 0.6934 0.7694 0.5826
C26_7 C 0.6054(3) 0.8037(2) 0.5968(2)
C27_7 C 0.5699(3) 0.8435(3) 0.6259(2)
H21_7 H 0.5238 0.8454 0.6265
C28_7 C 0.6100(3) 0.8792(2) 0.6534(2)
H22_7 H 0.5896 0.9083 0.6689
C29_7 C 0.5632(3) 0.7654(3) 0.5632(2)
C30_7 C 0.8048(3) 0.9856(2) 0.7179(2)
H23_7 H 0.8232 0.9575 0.6970
H24_11 H 0.8399 1.0000 0.7387
C38_7 C 0.7707(3) 0.9145(2) 0.7824(2)
H29_7 H 0.7835 0.8845 0.7612
H30_7 H 0.7358 0.9025 0.8046
C39_7 C 0.8570(3) 0.8955(2) 0.83965(19)
C40_7 C 0.8318(3) 0.8428(2) 0.8455(2)
H31_7 H 0.7938 0.8324 0.8284
C41_7 C 0.8628(3) 0.8066(2) 0.8761(2)
H32_7 H 0.8456 0.7720 0.8798
C42_7 C 0.9231(3) 0.8223(2) 0.90321(19)
C43_7 C 0.9464(3) 0.8741(2) 0.8947(2)
H33_7 H 0.9852 0.8845 0.9108
C44_7 C 0.9159(3) 0.9118(2) 0.8637(2)
H34_7 H 0.9336 0.9461 0.8591
C45_7 C 0.9525(3) 0.7847(3) 0.9358(2)
O1_8 O 0.33124(18) 0.49116(15) 0.68656(13)
O2_8 O 0.5153(2) 0.62424(18) 0.54425(17)
O3_8 O 0.42831(19) 0.68235(14) 0.55281(14)
O4_8 O 0.2820(2) 0.4010(2) 0.81247(16)
O7_8 O 0.2227(2) 0.52647(19) 0.81110(17)
O10_8 O 0.17357(19) 0.43359(14) 0.69004(14)
N1_8 N 0.6363(3) 0.6363(2) 0.4742(2)
N2_8 N 0.7046(3) 0.5692(2) 0.4653(2)
N4_8 N 0.8032(4) 0.3578(3) 0.4609(3)
C1_8 C 0.6427(3) 0.5848(3) 0.4741(3)
H1_8 H 0.6078 0.5609 0.4798
C2_8 C 0.6961(3) 0.6570(3) 0.4632(3)
H2_8 H 0.7058 0.6936 0.4605
C3_8 C 0.7408(3) 0.6158(3) 0.4568(3)
H3_8 H 0.7856 0.6186 0.4485
C4_8 C 0.7286(3) 0.5161(2) 0.4614(2)
C5_8 C 0.7068(6) 0.4819(4) 0.4975(4)
H4_8 H 0.6788 0.4938 0.5227
C6_8 C 0.7289(7) 0.4255(4) 0.4951(4)
H5_8 H 0.7106 0.3981 0.5143
C7_8 C 0.7768(5) 0.4178(4) 0.4634(5)
C8_8 C 0.7961(4) 0.4488(5) 0.4273(4)
H6_8 H 0.8249 0.4369 0.4027
C9_8 C 0.7717(3) 0.4996(3) 0.4278(2)
H7_8 H 0.7859 0.5238 0.4036
C10_8 C 0.8488(3) 0.3363(2) 0.4804(2)
H8_8 H 0.8749 0.3573 0.5014
C11_8 C 0.8555(6) 0.2919(3) 0.4186(5)
H9_8 H 0.8724 0.2670 0.3960
C12_8 C 0.8200(5) 0.3348(5) 0.4070(4)
H10_8 H 0.8080 0.3480 0.3760
C13_8 C 0.2532(2) 0.4624(2) 0.74904(19)
C14_8 C 0.2771(3) 0.5086(2) 0.71732(18)
H11_8 H 0.2916 0.5381 0.7384
H12_8 H 0.2410 0.5215 0.6966
C15_8 C 0.3595(3) 0.5297(2) 0.6575(2)
C16_8 C 0.4156(3) 0.5148(3) 0.6306(2)
H13_8 H 0.4321 0.4799 0.6335
C17_8 C 0.4455(3) 0.5492(2) 0.6013(2)
H14_8 H 0.4835 0.5380 0.5845
C18_8 C 0.4243(3) 0.5990(2) 0.5944(2)
C19_8 C 0.3697(3) 0.6159(2) 0.6217(2)
H15_8 H 0.3553 0.6515 0.6189
C20_8 C 0.3361(3) 0.5811(2) 0.6530(2)
H16_8 H 0.2987 0.5924 0.6704
C21_8 C 0.4578(3) 0.6398(2) 0.56104(19)
C22_8 C 0.3076(3) 0.4436(2) 0.78207(18)
H17_8 H 0.3230 0.4732 0.8027
H18_8 H 0.3446 0.4306 0.7624
C23_8 C 0.3220(3) 0.3734(3) 0.8414(2)
C24_8 C 0.2913(4) 0.3313(3) 0.8688(3)
H19_8 H 0.2457 0.3265 0.8661
C25_8 C 0.3277(4) 0.2966(3) 0.8997(3)
H20_8 H 0.3066 0.2694 0.9174
C26_8 C 0.3946(3) 0.3037(2) 0.9032(2)
C27_8 C 0.4301(3) 0.3435(3) 0.8741(2)
H21_8 H 0.4762 0.3454 0.8735
C28_8 C 0.3900(3) 0.3792(2) 0.8466(2)
H22_8 H 0.4104 0.4083 0.8311
C29_8 C 0.4368(3) 0.2654(3) 0.9368(2)
C30_8 C 0.1952(3) 0.4856(2) 0.7821(2)
H23_8 H 0.1768 0.4575 0.8030
H24_12 H 0.1601 0.5000 0.7613
C31_8 C 0.1796(3) 0.5577(2) 0.8381(2)
C32_8 C 0.2053(4) 0.6042(3) 0.8587(3)
H25_8 H 0.2495 0.6131 0.8525
C33_8 C 0.1695(3) 0.6365(3) 0.8869(2)
H26_8 H 0.1884 0.6681 0.8992
C34_8 C 0.1063(3) 0.6246(2) 0.89815(19)
C35_8 C 0.0795(3) 0.5779(2) 0.8785(2)
H27_8 H 0.0360 0.5683 0.8862
C36_8 C 0.1170(3) 0.5452(3) 0.8474(2)
H28_8 H 0.0981 0.5147 0.8332
C37_8 C 0.0685(3) 0.6582(2) 0.9311(2)
C38_8 C 0.2293(3) 0.4145(2) 0.7176(2)
H29_8 H 0.2165 0.3845 0.7388
H30_8 H 0.2642 0.4025 0.6954
C39_8 C 0.1430(3) 0.3955(2) 0.66035(19)
C40_8 C 0.1682(3) 0.3428(2) 0.6545(2)
H31_8 H 0.2062 0.3324 0.6716
C41_8 C 0.1372(3) 0.3066(2) 0.6239(2)
H32_8 H 0.1544 0.2720 0.6202
C42_8 C 0.0769(3) 0.3223(2) 0.59679(19)
C43_8 C 0.0536(3) 0.3741(2) 0.6053(2)
H33_8 H 0.0148 0.3845 0.5892
C44_8 C 0.0841(3) 0.4118(2) 0.6363(2)
H34_8 H 0.0664 0.4461 0.6409
C45_8 C 0.0475(3) 0.2847(3) 0.5642(2)
loop_
_geom_bond_atom_site_label_1
_geom_bond_atom_site_label_2
_geom_bond_site_symmetry_1
_geom_bond_site_symmetry_2
O4 C22 1_555 1_555
O5 C29 1_555 1_555
O6 C29 1_555 1_555
O10 C38 1_555 1_555
O12 C45 1_555 1_555
C22 C13 1_555 1_555
H17 C22 1_555 1_555
H18 C22 1_555 1_555
C23 O4 1_555 1_555
C24 C23 1_555 1_555
H19 C24 1_555 1_555
C25 C24 1_555 1_555
H20 C25 1_555 1_555
C26 C25 1_555 1_555
C27 C26 1_555 1_555
H21 C27 1_555 1_555
C28 C23 1_555 1_555
H22 C28 1_555 1_555
C29 C26 1_555 1_555
C30 C13 1_555 1_555
H23 C30 1_555 1_555
H24 C30 1_555 1_555
C38 C13 1_555 1_555
H29 C38 1_555 1_555
H30 C38 1_555 1_555
C39 O10 1_555 1_555
C40 C39 1_555 1_555
H31 C40 1_555 1_555
C41 C40 1_555 1_555
H32 C41 1_555 1_555
C42 C41 1_555 1_555
C43 C42 1_555 1_555
H33 C43 1_555 1_555
C44 C39 1_555 1_555
H34 C44 1_555 1_555
C45 C42 1_555 1_555
Co3 O5 1_555 1_555
Co5 O12 1_555 1_555
Co6 O6 1_555 1_555
C27 C28 1_555 1_555
C43 C44 1_555 1_555
N3 C10 1_555 1_555
N4 C7 1_555 1_555
C6 C5 1_555 1_555
C7 C6 1_555 1_555
C8 C7 1_555 1_555
H6 C8 1_555 1_555
C10 N4 1_555 1_555
C11 N3 1_555 1_555
H9 C11 1_555 1_555
C12 N4 1_555 1_555
H10 C12 1_555 1_555
Co9 N3 1_555 1_555
C8 C9 1_555 1_555
C11 C12 1_555 1_555
Co2 O3 1_555 1_555
O2 C21 1_555 1_555
O3 C21 1_555 1_555
O8 C37 1_555 1_555
O9 C37 1_555 1_555
C14 H11 1_555 1_555
H12 C14 1_555 1_555
C16 C15 1_555 1_555
C17 C16 1_555 1_555
H14 C17 1_555 1_555
C18 C17 1_555 1_555
C19 C18 1_555 1_555
H15 C19 1_555 1_555
C20 C15 1_555 1_555
H16 C20 1_555 1_555
C21 C18 1_555 1_555
C31 O7 1_555 1_555
C32 C31 1_555 1_555
H25 C32 1_555 1_555
C33 C32 1_555 1_555
H26 C33 1_555 1_555
C34 C33 1_555 1_555
C35 C34 1_555 1_555
H27 C35 1_555 1_555
C36 C31 1_555 1_555
H28 C36 1_555 1_555
C37 C34 1_555 1_555
Co7 O8 1_555 1_555
O14 Co2 1_555 1_555
N5 Co2 1_555 1_555
C19 C20 1_555 1_555
C35 C36 1_555 1_555
N1 Co1 1_555 1_555
N2 C1 1_555 1_555
C1 N1 1_555 1_555
H1 C1 1_555 1_555
C2 N1 1_555 1_555
H2 C2 1_555 1_555
C3 N2 1_555 1_555
H3 C3 1_555 1_555
C4 N2 1_555 1_555
O16 Co1 1_555 1_555
O18 Co1 1_555 1_555
C2 C3 1_555 1_555
Co7 O11_2 1_555 1_555
Co3 O2_2 1_555 1_555
Co6 O3_2 1_555 1_555
O1_2 C14_2 1_555 1_555
O2_2 C21_2 1_555 1_555
O3_2 C21_2 1_555 1_555
O4_2 C22_2 1_555 1_555
O13 C29_2 1_555 1_555
O14 C29_2 1_555 1_555
O7_2 C30_2 1_555 1_555
O8_2 C37_2 1_555 1_555
O9_2 C37_2 1_555 1_555
O10_2 C38_2 1_555 1_555
O12_2 C45_2 1_555 1_555
N1_2 Co3 1_555 1_555
N2_2 C1_2 1_555 1_555
N3_2 C10_2 1_555 1_555
N4_2 C7_2 1_555 1_555
C1_2 N1_2 1_555 1_555
H1_2 C1_2 1_555 1_555
C2_2 N1_2 1_555 1_555
H2_2 C2_2 1_555 1_555
C3_2 N2_2 1_555 1_555
H3_2 C3_2 1_555 1_555
C4_2 N2_2 1_555 1_555
C5_2 C4_2 1_555 1_555
H4_2 C5_2 1_555 1_555
C6_2 C5_2 1_555 1_555
H5_2 C6_2 1_555 1_555
C7_2 C6_2 1_555 1_555
C8_2 C7_2 1_555 1_555
H6_2 C8_2 1_555 1_555
C9_2 C4_2 1_555 1_555
H7_2 C9_2 1_555 1_555
C10_2 N4_2 1_555 1_555
H8_2 C10_2 1_555 1_555
C11_2 N3_2 1_555 1_555
H9_2 C11_2 1_555 1_555
C12_2 N4_2 1_555 1_555
H10_2 C12_2 1_555 1_555
C13_2 C14_2 1_555 1_555
C14_2 H11_2 1_555 1_555
H12_2 C14_2 1_555 1_555
C15_2 O1_2 1_555 1_555
C16_2 C15_2 1_555 1_555
H13_2 C16_2 1_555 1_555
C17_2 C16_2 1_555 1_555
H14_2 C17_2 1_555 1_555
C18_2 C17_2 1_555 1_555
C19_2 C18_2 1_555 1_555
H15_2 C19_2 1_555 1_555
C20_2 C15_2 1_555 1_555
H16_2 C20_2 1_555 1_555
C21_2 C18_2 1_555 1_555
C22_2 C13_2 1_555 1_555
H17_2 C22_2 1_555 1_555
H18_2 C22_2 1_555 1_555
C23_2 O4_2 1_555 1_555
C24_2 C23_2 1_555 1_555
H19_2 C24_2 1_555 1_555
C25_2 C24_2 1_555 1_555
H20_2 C25_2 1_555 1_555
C26_2 C25_2 1_555 1_555
C27_2 C26_2 1_555 1_555
H21_2 C27_2 1_555 1_555
C28_2 C23_2 1_555 1_555
H22_2 C28_2 1_555 1_555
C29_2 C26_2 1_555 1_555
C30_2 C13_2 1_555 1_555
H23_2 C30_2 1_555 1_555
H24_3 C30_2 1_555 1_555
C31_2 O7_2 1_555 1_555
C32_2 C31_2 1_555 1_555
H25_2 C32_2 1_555 1_555
C33_2 C32_2 1_555 1_555
H26_2 C33_2 1_555 1_555
C34_2 C33_2 1_555 1_555
C35_2 C34_2 1_555 1_555
H27_2 C35_2 1_555 1_555
C36_2 C31_2 1_555 1_555
H28_2 C36_2 1_555 1_555
C37_2 C34_2 1_555 1_555
C38_2 C13_2 1_555 1_555
H29_2 C38_2 1_555 1_555
H30_2 C38_2 1_555 1_555
C39_2 O10_2 1_555 1_555
C40_2 C39_2 1_555 1_555
H31_2 C40_2 1_555 1_555
C41_2 C40_2 1_555 1_555
H32_2 C41_2 1_555 1_555
C42_2 C41_2 1_555 1_555
C43_2 C42_2 1_555 1_555
H33_2 C43_2 1_555 1_555
C44_2 C39_2 1_555 1_555
H34_2 C44_2 1_555 1_555
C45_2 C42_2 1_555 1_555
Co4 O12_2 1_555 1_555
Co7 N3_2 1_555 1_555
O15_2 Co6 1_555 1_555
O16_2 Co3 1_555 1_555
O17_2 Co6 1_555 1_555
O18_2 Co3 1_555 1_555
N5_2 Co6 1_555 1_555
C2_2 C3_2 1_555 1_555
C8_2 C9_2 1_555 1_555
C11_2 C12_2 1_555 1_555
C19_2 C20_2 1_555 1_555
C27_2 C28_2 1_555 1_555
C35_2 C36_2 1_555 1_555
C43_2 C44_2 1_555 1_555
N1_3 Co5 1_555 1_555
N2_3 C1_3 1_555 1_555
N5 C10_3 1_555 1_555
N4_3 C7_3 1_555 1_555
C1_3 N1_3 1_555 1_555
H1_3 C1_3 1_555 1_555
C2_3 N1_3 1_555 1_555
H2_3 C2_3 1_555 1_555
C3_3 N2_3 1_555 1_555
H3_3 C3_3 1_555 1_555
C4_3 N2_3 1_555 1_555
C5_3 C4_3 1_555 1_555
C6_3 C5_3 1_555 1_555
C7_3 C6_3 1_555 1_555
C8_3 C7_3 1_555 1_555
H6_3 C8_3 1_555 1_555
C9_3 C4_3 1_555 1_555
H7_3 C9_3 1_555 1_555
C10_3 N4_3 1_555 1_555
C11_3 N5 1_555 1_555
H9_3 C11_3 1_555 1_555
C12_3 N4_3 1_555 1_555
H10_3 C12_3 1_555 1_555
C2_3 C3_3 1_555 1_555
C8_3 C9_3 1_555 1_555
C11_3 C12_3 1_555 1_555
Co9 O3_3 1_555 1_555
O1_3 C14_3 1_555 1_555
O3_3 C21_3 1_555 1_555
O4_3 C22_3 1_555 1_555
O5_2 C29_3 1_555 1_555
O6_2 C29_3 1_555 1_555
O7_3 C30_3 1_555 1_555
O15_2 C37_3 1_555 1_555
O16_2 C37_3 1_555 1_555
O10_3 C38_3 1_555 1_555
O17 C45_3 1_555 1_555
O18 C45_3 1_555 1_555
C13_3 C14_3 1_555 1_555
C14_3 H11_3 1_555 1_555
H12_3 C14_3 1_555 1_555
C15_3 O1_3 1_555 1_555
C16_3 C15_3 1_555 1_555
H13_3 C16_3 1_555 1_555
C17_3 C16_3 1_555 1_555
H14_3 C17_3 1_555 1_555
C18_3 C17_3 1_555 1_555
C19_3 C18_3 1_555 1_555
H15_3 C19_3 1_555 1_555
C20_3 C15_3 1_555 1_555
H16_3 C20_3 1_555 1_555
C21_3 C18_3 1_555 1_555
C22_3 C13_3 1_555 1_555
H17_3 C22_3 1_555 1_555
H18_3 C22_3 1_555 1_555
C23_3 O4_3 1_555 1_555
C24_3 C23_3 1_555 1_555
H19_3 C24_3 1_555 1_555
C25_3 C24_3 1_555 1_555
H20_3 C25_3 1_555 1_555
C26_3 C25_3 1_555 1_555
C27_3 C26_3 1_555 1_555
H21_3 C27_3 1_555 1_555
C28_3 C23_3 1_555 1_555
H22_3 C28_3 1_555 1_555
C29_3 C26_3 1_555 1_555
C30_3 C13_3 1_555 1_555
H23_3 C30_3 1_555 1_555
H24_4 C30_3 1_555 1_555
C31_3 O7_3 1_555 1_555
C32_3 C31_3 1_555 1_555
H25_3 C32_3 1_555 1_555
C33_3 C32_3 1_555 1_555
H26_3 C33_3 1_555 1_555
C34_3 C33_3 1_555 1_555
C35_3 C34_3 1_555 1_555
H27_3 C35_3 1_555 1_555
C36_3 C31_3 1_555 1_555
H28_3 C36_3 1_555 1_555
C37_3 C34_3 1_555 1_555
C38_3 C13_3 1_555 1_555
H29_3 C38_3 1_555 1_555
H30_3 C38_3 1_555 1_555
C39_3 O10_3 1_555 1_555
C40_3 C39_3 1_555 1_555
H31_3 C40_3 1_555 1_555
C41_3 C40_3 1_555 1_555
H32_3 C41_3 1_555 1_555
C42_3 C41_3 1_555 1_555
C43_3 C42_3 1_555 1_555
H33_3 C43_3 1_555 1_555
C44_3 C39_3 1_555 1_555
H34_3 C44_3 1_555 1_555
C45_3 C42_3 1_555 1_555
Co4 O5_2 1_555 1_555
C19_3 C20_3 1_555 1_555
C27_3 C28_3 1_555 1_555
C35_3 C36_3 1_555 1_555
C43_3 C44_3 1_555 1_555
O4_4 C22_4 1_555 1_555
O13_2 C29_4 1_555 1_555
O14_2 C29_4 1_555 1_555
O10_4 C38_4 1_555 1_555
O17_2 C45_4 1_555 1_555
O18_2 C45_4 1_555 1_555
C22_4 C13_4 1_555 1_555
H17_4 C22_4 1_555 1_555
H18_4 C22_4 1_555 1_555
C23_4 O4_4 1_555 1_555
C24_4 C23_4 1_555 1_555
H19_4 C24_4 1_555 1_555
C25_4 C24_4 1_555 1_555
H20_4 C25_4 1_555 1_555
C26_4 C25_4 1_555 1_555
C27_4 C26_4 1_555 1_555
H21_4 C27_4 1_555 1_555
C28_4 C23_4 1_555 1_555
H22_4 C28_4 1_555 1_555
C29_4 C26_4 1_555 1_555
C30_4 C13_4 1_555 1_555
H23_4 C30_4 1_555 1_555
H24_5 C30_4 1_555 1_555
C38_4 C13_4 1_555 1_555
H29_4 C38_4 1_555 1_555
H30_4 C38_4 1_555 1_555
C39_4 O10_4 1_555 1_555
C40_4 C39_4 1_555 1_555
H31_4 C40_4 1_555 1_555
C41_4 C40_4 1_555 1_555
H32_4 C41_4 1_555 1_555
C42_4 C41_4 1_555 1_555
C43_4 C42_4 1_555 1_555
H33_4 C43_4 1_555 1_555
C44_4 C39_4 1_555 1_555
H34_4 C44_4 1_555 1_555
C45_4 C42_4 1_555 1_555
C27_4 C28_4 1_555 1_555
C43_4 C44_4 1_555 1_555
Co7 O3_4 1_555 1_555
O3_4 C21_4 1_555 1_555
O15 C37_4 1_555 1_555
O16 C37_4 1_555 1_555
C14_4 H11_4 1_555 1_555
H12_4 C14_4 1_555 1_555
C16_4 C15_4 1_555 1_555
C17_4 C16_4 1_555 1_555
H14_4 C17_4 1_555 1_555
C18_4 C17_4 1_555 1_555
C19_4 C18_4 1_555 1_555
H15_4 C19_4 1_555 1_555
C20_4 C15_4 1_555 1_555
H16_4 C20_4 1_555 1_555
C21_4 C18_4 1_555 1_555
C31_4 O7_4 1_555 1_555
C32_4 C31_4 1_555 1_555
H25_4 C32_4 1_555 1_555
C33_4 C32_4 1_555 1_555
H26_4 C33_4 1_555 1_555
C34_4 C33_4 1_555 1_555
C35_4 C34_4 1_555 1_555
H27_4 C35_4 1_555 1_555
C36_4 C31_4 1_555 1_555
H28_4 C36_4 1_555 1_555
C37_4 C34_4 1_555 1_555
C19_4 C20_4 1_555 1_555
C35_4 C36_4 1_555 1_555
N5_2 C10_4 1_555 1_555
N4_4 C7_4 1_555 1_555
H4_4 C5_4 1_555 1_555
C6_4 C5_4 1_555 1_555
H5_4 C6_4 1_555 1_555
C7_4 C6_4 1_555 1_555
C8_4 C7_4 1_555 1_555
H6_4 C8_4 1_555 1_555
C10_4 N4_4 1_555 1_555
H8_4 C10_4 1_555 1_555
C11_4 N5_2 1_555 1_555
H9_4 C11_4 1_555 1_555
C12_4 N4_4 1_555 1_555
H10_4 C12_4 1_555 1_555
C8_4 C9_4 1_555 1_555
C11_4 C12_4 1_555 1_555
Co4 O2_4 1_555 1_555
N1_4 Co4 1_555 1_555
N2_4 C1_4 1_555 1_555
C1_4 N1_4 1_555 1_555
H1_4 C1_4 1_555 1_555
C2_4 N1_4 1_555 1_555
H2_4 C2_4 1_555 1_555
C3_4 N2_4 1_555 1_555
H3_4 C3_4 1_555 1_555
C4_4 N2_4 1_555 1_555
C2_4 C3_4 1_555 1_555
Co2_2 O3_5 1_555 1_555
O1_5 C14_5 1_555 1_555
O3_5 C21_5 1_555 1_555
O4_5 C22_5 1_555 1_555
O5_3 C29_5 1_555 1_555
O6_3 C29_5 1_555 1_555
O7_5 C30_5 1_555 1_555
O8_3 C37_5 1_555 1_555
O9_3 C37_5 1_555 1_555
O10_5 C38_5 1_555 1_555
O11_3 C45_5 1_555 1_555
O12_3 C45_5 1_555 1_555
C13_5 C14_5 1_555 1_555
C14_5 H11_5 1_555 1_555
H12_5 C14_5 1_555 1_555
C15_5 O1_5 1_555 1_555
C16_5 C15_5 1_555 1_555
H13_5 C16_5 1_555 1_555
C17_5 C16_5 1_555 1_555
H14_5 C17_5 1_555 1_555
C18_5 C17_5 1_555 1_555
C19_5 C18_5 1_555 1_555
H15_5 C19_5 1_555 1_555
C20_5 C15_5 1_555 1_555
H16_5 C20_5 1_555 1_555
C21_5 C18_5 1_555 1_555
C22_5 C13_5 1_555 1_555
H17_5 C22_5 1_555 1_555
H18_5 C22_5 1_555 1_555
C23_5 O4_5 1_555 1_555
C24_5 C23_5 1_555 1_555
H19_5 C24_5 1_555 1_555
C25_5 C24_5 1_555 1_555
H20_5 C25_5 1_555 1_555
C26_5 C25_5 1_555 1_555
C27_5 C26_5 1_555 1_555
H21_5 C27_5 1_555 1_555
C28_5 C23_5 1_555 1_555
H22_5 C28_5 1_555 1_555
C29_5 C26_5 1_555 1_555
C30_5 C13_5 1_555 1_555
H23_5 C30_5 1_555 1_555
H24_7 C30_5 1_555 1_555
C31_5 O7_5 1_555 1_555
C32_5 C31_5 1_555 1_555
H25_5 C32_5 1_555 1_555
C33_5 C32_5 1_555 1_555
H26_5 C33_5 1_555 1_555
C34_5 C33_5 1_555 1_555
C35_5 C34_5 1_555 1_555
H27_5 C35_5 1_555 1_555
C36_5 C31_5 1_555 1_555
H28_5 C36_5 1_555 1_555
C37_5 C34_5 1_555 1_555
C38_5 C13_5 1_555 1_555
H29_5 C38_5 1_555 1_555
H30_5 C38_5 1_555 1_555
C39_5 O10_5 1_555 1_555
C40_5 C39_5 1_555 1_555
H31_5 C40_5 1_555 1_555
C41_5 C40_5 1_555 1_555
H32_5 C41_5 1_555 1_555
C42_5 C41_5 1_555 1_555
C43_5 C42_5 1_555 1_555
H33_5 C43_5 1_555 1_555
C44_5 C39_5 1_555 1_555
H34_5 C44_5 1_555 1_555
C45_5 C42_5 1_555 1_555
Co3_2 O5_3 1_555 1_555
Co4_2 O9_3 1_555 1_555
Co5_2 O12_3 1_555 1_555
Co7_2 O8_3 1_555 1_555
N5_3 Co2_2 1_555 1_555
C19_5 C20_5 1_555 1_555
C27_5 C28_5 1_555 1_555
C35_5 C36_5 1_555 1_555
C43_5 C44_5 1_555 1_555
N1_5 Co1_2 1_555 1_555
N2_5 C1_5 1_555 1_555
N3_3 C10_5 1_555 1_555
N4_5 C7_5 1_555 1_555
C1_5 N1_5 1_555 1_555
H1_5 C1_5 1_555 1_555
C2_5 N1_5 1_555 1_555
H2_5 C2_5 1_555 1_555
C3_5 N2_5 1_555 1_555
H3_5 C3_5 1_555 1_555
C4_5 N2_5 1_555 1_555
C5_5 C4_5 1_555 1_555
C6_5 C5_5 1_555 1_555
C7_5 C6_5 1_555 1_555
C8_5 C7_5 1_555 1_555
H6_5 C8_5 1_555 1_555
C9_5 C4_5 1_555 1_555
H7_5 C9_5 1_555 1_555
C10_5 N4_5 1_555 1_555
C11_5 N3_3 1_555 1_555
H9_5 C11_5 1_555 1_555
C12_5 N4_5 1_555 1_555
H10_5 C12_5 1_555 1_555
Co8 N3_3 1_555 1_555
O18_3 Co1_2 1_555 1_555
C2_5 C3_5 1_555 1_555
C8_5 C9_5 1_555 1_555
C11_5 C12_5 1_555 1_555
Co3_2 O2_6 1_555 1_555
N1_6 Co3_2 1_555 1_555
N2_6 C1_6 1_555 1_555
C1_6 N1_6 1_555 1_555
H1_6 C1_6 1_555 1_555
C2_6 N1_6 1_555 1_555
H2_6 C2_6 1_555 1_555
C3_6 N2_6 1_555 1_555
H3_6 C3_6 1_555 1_555
C4_6 N2_6 1_555 1_555
O18_4 Co3_2 1_555 1_555
C2_6 C3_6 1_555 1_555
N3_4 C10_6 1_555 1_555
N4_6 C7_6 1_555 1_555
H4_6 C5_6 1_555 1_555
C6_6 C5_6 1_555 1_555
H5_6 C6_6 1_555 1_555
C7_6 C6_6 1_555 1_555
C8_6 C7_6 1_555 1_555
H6_6 C8_6 1_555 1_555
C10_6 N4_6 1_555 1_555
H8_6 C10_6 1_555 1_555
C11_6 N3_4 1_555 1_555
H9_6 C11_6 1_555 1_555
C12_6 N4_6 1_555 1_555
H10_6 C12_6 1_555 1_555
Co7_2 N3_4 1_555 1_555
C8_6 C9_6 1_555 1_555
C11_6 C12_6 1_555 1_555
Co6_2 O3_6 1_555 1_555
O3_6 C21_6 1_555 1_555
O8_4 C37_6 1_555 1_555
O9_4 C37_6 1_555 1_555
C14_6 H11_6 1_555 1_555
H12_6 C14_6 1_555 1_555
C16_6 C15_6 1_555 1_555
C17_6 C16_6 1_555 1_555
H14_6 C17_6 1_555 1_555
C18_6 C17_6 1_555 1_555
C19_6 C18_6 1_555 1_555
H15_6 C19_6 1_555 1_555
C20_6 C15_6 1_555 1_555
H16_6 C20_6 1_555 1_555
C21_6 C18_6 1_555 1_555
C31_6 O7_6 1_555 1_555
C32_6 C31_6 1_555 1_555
H25_6 C32_6 1_555 1_555
C33_6 C32_6 1_555 1_555
H26_6 C33_6 1_555 1_555
C34_6 C33_6 1_555 1_555
C35_6 C34_6 1_555 1_555
H27_6 C35_6 1_555 1_555
C36_6 C31_6 1_555 1_555
H28_6 C36_6 1_555 1_555
C37_6 C34_6 1_555 1_555
Co5_2 O9_4 1_555 1_555
O15_4 Co6_2 1_555 1_555
O17_4 Co6_2 1_555 1_555
N5_4 Co6_2 1_555 1_555
C19_6 C20_6 1_555 1_555
C35_6 C36_6 1_555 1_555
O4_6 C22_6 1_555 1_555
O13_3 C29_6 1_555 1_555
O14_3 C29_6 1_555 1_555
O10_6 C38_6 1_555 1_555
O11_4 C45_6 1_555 1_555
O12_4 C45_6 1_555 1_555
C22_6 C13_6 1_555 1_555
H17_6 C22_6 1_555 1_555
H18_6 C22_6 1_555 1_555
C23_6 O4_6 1_555 1_555
C24_6 C23_6 1_555 1_555
H19_6 C24_6 1_555 1_555
C25_6 C24_6 1_555 1_555
H20_6 C25_6 1_555 1_555
C26_6 C25_6 1_555 1_555
C27_6 C26_6 1_555 1_555
H21_6 C27_6 1_555 1_555
C28_6 C23_6 1_555 1_555
H22_6 C28_6 1_555 1_555
C29_6 C26_6 1_555 1_555
C30_6 C13_6 1_555 1_555
H23_6 C30_6 1_555 1_555
H24_9 C30_6 1_555 1_555
C38_6 C13_6 1_555 1_555
H29_6 C38_6 1_555 1_555
H30_6 C38_6 1_555 1_555
C39_6 O10_6 1_555 1_555
C40_6 C39_6 1_555 1_555
H31_6 C40_6 1_555 1_555
C41_6 C40_6 1_555 1_555
H32_6 C41_6 1_555 1_555
C42_6 C41_6 1_555 1_555
C43_6 C42_6 1_555 1_555
H33_6 C43_6 1_555 1_555
C44_6 C39_6 1_555 1_555
H34_6 C44_6 1_555 1_555
C45_6 C42_6 1_555 1_555
Co4_2 O12_4 1_555 1_555
Co7_2 O11_4 1_555 1_555
C27_6 C28_6 1_555 1_555
C43_6 C44_6 1_555 1_555
N1_7 Co5_2 1_555 1_555
N2_7 C1_7 1_555 1_555
C1_7 N1_7 1_555 1_555
H1_7 C1_7 1_555 1_555
C2_7 N1_7 1_555 1_555
H2_7 C2_7 1_555 1_555
C3_7 N2_7 1_555 1_555
H3_7 C3_7 1_555 1_555
C4_7 N2_7 1_555 1_555
C2_7 C3_7 1_555 1_555
Co8 O3_7 1_555 1_555
O2_7 C21_7 1_555 1_555
O3_7 C21_7 1_555 1_555
O15_4 C37_7 1_555 1_555
O16_4 C37_7 1_555 1_555
C14_7 H11_7 1_555 1_555
H12_7 C14_7 1_555 1_555
C16_7 C15_7 1_555 1_555
C17_7 C16_7 1_555 1_555
H14_7 C17_7 1_555 1_555
C18_7 C17_7 1_555 1_555
C19_7 C18_7 1_555 1_555
H15_7 C19_7 1_555 1_555
C20_7 C15_7 1_555 1_555
H16_7 C20_7 1_555 1_555
C21_7 C18_7 1_555 1_555
C31_7 O7_7 1_555 1_555
C32_7 C31_7 1_555 1_555
H25_7 C32_7 1_555 1_555
C33_7 C32_7 1_555 1_555
H26_7 C33_7 1_555 1_555
C34_7 C33_7 1_555 1_555
C35_7 C34_7 1_555 1_555
H27_7 C35_7 1_555 1_555
C36_7 C31_7 1_555 1_555
H28_7 C36_7 1_555 1_555
C37_7 C34_7 1_555 1_555
O14_4 Co8 1_555 1_555
C19_7 C20_7 1_555 1_555
C35_7 C36_7 1_555 1_555
N5_3 C10_7 1_555 1_555
N4_7 C7_7 1_555 1_555
C6_7 C5_7 1_555 1_555
C7_7 C6_7 1_555 1_555
C8_7 C7_7 1_555 1_555
H6_7 C8_7 1_555 1_555
C10_7 N4_7 1_555 1_555
C11_7 N5_3 1_555 1_555
H9_7 C11_7 1_555 1_555
C12_7 N4_7 1_555 1_555
H10_7 C12_7 1_555 1_555
C8_7 C9_7 1_555 1_555
C11_7 C12_7 1_555 1_555
O4_7 C22_7 1_555 1_555
O5_4 C29_7 1_555 1_555
O6_4 C29_7 1_555 1_555
O10_7 C38_7 1_555 1_555
O18_3 C45_7 1_555 1_555
C22_7 C13_7 1_555 1_555
H17_7 C22_7 1_555 1_555
H18_7 C22_7 1_555 1_555
C23_7 O4_7 1_555 1_555
C24_7 C23_7 1_555 1_555
H19_7 C24_7 1_555 1_555
C25_7 C24_7 1_555 1_555
H20_7 C25_7 1_555 1_555
C26_7 C25_7 1_555 1_555
C27_7 C26_7 1_555 1_555
H21_7 C27_7 1_555 1_555
C28_7 C23_7 1_555 1_555
H22_7 C28_7 1_555 1_555
C29_7 C26_7 1_555 1_555
C30_7 C13_7 1_555 1_555
H23_7 C30_7 1_555 1_555
H24_11 C30_7 1_555 1_555
C38_7 C13_7 1_555 1_555
H29_7 C38_7 1_555 1_555
H30_7 C38_7 1_555 1_555
C39_7 O10_7 1_555 1_555
C40_7 C39_7 1_555 1_555
H31_7 C40_7 1_555 1_555
C41_7 C40_7 1_555 1_555
H32_7 C41_7 1_555 1_555
C42_7 C41_7 1_555 1_555
C43_7 C42_7 1_555 1_555
H33_7 C43_7 1_555 1_555
C44_7 C39_7 1_555 1_555
H34_7 C44_7 1_555 1_555
C45_7 C42_7 1_555 1_555
Co4_2 O5_4 1_555 1_555
Co7_2 O6_4 1_555 1_555
C27_7 C28_7 1_555 1_555
C43_7 C44_7 1_555 1_555
Co4_2 O2_8 1_555 1_555
Co7_2 O3_8 1_555 1_555
O1_8 C14_8 1_555 1_555
O2_8 C21_8 1_555 1_555
O3_8 C21_8 1_555 1_555
O4_8 C22_8 1_555 1_555
O13_4 C29_8 1_555 1_555
O14_4 C29_8 1_555 1_555
O7_8 C30_8 1_555 1_555
O15_3 C37_8 1_555 1_555
O16_3 C37_8 1_555 1_555
O10_8 C38_8 1_555 1_555
O18_4 C45_8 1_555 1_555
N1_8 Co4_2 1_555 1_555
N2_8 C1_8 1_555 1_555
N5_4 C10_8 1_555 1_555
N4_8 C7_8 1_555 1_555
C1_8 N1_8 1_555 1_555
H1_8 C1_8 1_555 1_555
C2_8 N1_8 1_555 1_555
H2_8 C2_8 1_555 1_555
C3_8 N2_8 1_555 1_555
H3_8 C3_8 1_555 1_555
C4_8 N2_8 1_555 1_555
C5_8 C4_8 1_555 1_555
H4_8 C5_8 1_555 1_555
C6_8 C5_8 1_555 1_555
H5_8 C6_8 1_555 1_555
C7_8 C6_8 1_555 1_555
C8_8 C7_8 1_555 1_555
H6_8 C8_8 1_555 1_555
C9_8 C4_8 1_555 1_555
H7_8 C9_8 1_555 1_555
C10_8 N4_8 1_555 1_555
H8_8 C10_8 1_555 1_555
C11_8 N5_4 1_555 1_555
H9_8 C11_8 1_555 1_555
C12_8 N4_8 1_555 1_555
H10_8 C12_8 1_555 1_555
C13_8 C14_8 1_555 1_555
C14_8 H11_8 1_555 1_555
H12_8 C14_8 1_555 1_555
C15_8 O1_8 1_555 1_555
C16_8 C15_8 1_555 1_555
H13_8 C16_8 1_555 1_555
C17_8 C16_8 1_555 1_555
H14_8 C17_8 1_555 1_555
C18_8 C17_8 1_555 1_555
C19_8 C18_8 1_555 1_555
H15_8 C19_8 1_555 1_555
C20_8 C15_8 1_555 1_555
H16_8 C20_8 1_555 1_555
C21_8 C18_8 1_555 1_555
C22_8 C13_8 1_555 1_555
H17_8 C22_8 1_555 1_555
H18_8 C22_8 1_555 1_555
C23_8 O4_8 1_555 1_555
C24_8 C23_8 1_555 1_555
H19_8 C24_8 1_555 1_555
C25_8 C24_8 1_555 1_555
H20_8 C25_8 1_555 1_555
C26_8 C25_8 1_555 1_555
C27_8 C26_8 1_555 1_555
H21_8 C27_8 1_555 1_555
C28_8 C23_8 1_555 1_555
H22_8 C28_8 1_555 1_555
C29_8 C26_8 1_555 1_555
C30_8 C13_8 1_555 1_555
H23_8 C30_8 1_555 1_555
H24_12 C30_8 1_555 1_555
C31_8 O7_8 1_555 1_555
C32_8 C31_8 1_555 1_555
H25_8 C32_8 1_555 1_555
C33_8 C32_8 1_555 1_555
H26_8 C33_8 1_555 1_555
C34_8 C33_8 1_555 1_555
C35_8 C34_8 1_555 1_555
H27_8 C35_8 1_555 1_555
C36_8 C31_8 1_555 1_555
H28_8 C36_8 1_555 1_555
C37_8 C34_8 1_555 1_555
C38_8 C13_8 1_555 1_555
H29_8 C38_8 1_555 1_555
H30_8 C38_8 1_555 1_555
C39_8 O10_8 1_555 1_555
C40_8 C39_8 1_555 1_555
H31_8 C40_8 1_555 1_555
C41_8 C40_8 1_555 1_555
H32_8 C41_8 1_555 1_555
C42_8 C41_8 1_555 1_555
C43_8 C42_8 1_555 1_555
H33_8 C43_8 1_555 1_555
C44_8 C39_8 1_555 1_555
H34_8 C44_8 1_555 1_555
C45_8 C42_8 1_555 1_555
C2_8 C3_8 1_555 1_555
C8_8 C9_8 1_555 1_555
C11_8 C12_8 1_555 1_555
C19_8 C20_8 1_555 1_555
C27_8 C28_8 1_555 1_555
C35_8 C36_8 1_555 1_555
C43_8 C44_8 1_555 1_555

#END
