
###############################################################################
#
# This file contains modified crystal structure data generated from the
# MOF subset of the Cambridge Structural Database (CSD) v543 
# hosted by the Cambridge Crystallographic Data Centre (CCDC).
#
# This work is licensed under the Creative Commons
# Attribution-NonCommercial-ShareAlike 4.0 International License.
# To view a copy of this license, visit
# http://creativecommons.org/licenses/by-nc-sa/4.0/
# or send a letter to
# Creative Commons, PO Box 1866, Mountain View, CA 94042, USA.
#
# CIF created using the CSD Python API on 29 September 2022
# The structure has been converted into the P1 space group
# The structure has a 3D framework
# The original CSD entry PEJRIH is in the monoclinic crystal system
# The framework has been calculated to contain at least 10.0% void space
# The void calculation uses a probe of radius 1.32A, grid spacing 0.4
#
###############################################################################

data_PEJRIH
_chemical_formula_moiety         '(C824 H608 Co28 N64 O192)n'
_symmetry_cell_setting           triclinic
_symmetry_space_group_name_H-M   'P 1'
_symmetry_Int_Tables_number      1
_space_group_name_Hall           'P 1'
loop_
_symmetry_equiv_pos_site_id
_symmetry_equiv_pos_as_xyz
1 x,y,z
_cell_length_a                   20.930(2)
_cell_length_b                   52.180(5)
_cell_length_c                   30.679(3)
_cell_angle_alpha                90
_cell_angle_beta                 104.625(2)
_cell_angle_gamma                90
_cell_volume                     32419.8
loop_
_atom_site_label
_atom_site_type_symbol
_atom_site_fract_x
_atom_site_fract_y
_atom_site_fract_z
Co12 Co 0.06176(4) 0.363581(17) 0.48471(2)
Co1 Co 0.43824(4) 0.136419(17) 0.51529(2)
Co2 Co 0.31379(4) 0.113816(17) 0.48965(2)
O1 O 0.3904(2) 0.16191(8) 0.46806(14)
O2 O 0.4610(2) 0.11626(8) 0.46521(13)
N1 N 0.5205(2) 0.15866(9) 0.54065(15)
O3 O 0.1074(2) 0.34775(9) 0.43867(14)
O5 O 0.2904(2) 0.14371(8) 0.44694(13)
O6 O 0.3597(2) 0.09812(8) 0.44414(13)
N2 N 0.2327(2) 0.09134(9) 0.46455(15)
O7 O 0.2080(2) 0.36544(8) 0.45983(13)
C1 C 0.3348(4) 0.16069(12) 0.4438(2)
C2 C 0.4181(4) 0.10184(12) 0.4394(2)
C3 C 0.5333(3) 0.16912(13) 0.58295(19)
C4 C 0.5568(3) 0.17176(13) 0.5184(2)
C5 C 0.1635(4) 0.35077(14) 0.4348(2)
C6 C 0.1949(3) 0.07895(12) 0.4857(2)
C7 C 0.2170(3) 0.08110(14) 0.4216(2)
C8 C 0.3126(4) 0.18002(12) 0.4064(2)
C9 C 0.4363(4) 0.08836(11) 0.4015(2)
H1 H 0.5134 0.1642 0.6055
C10 C 0.5798(3) 0.18783(13) 0.58688(19)
N3 N 0.5966(2) 0.18831(10) 0.54599(16)
H2 H 0.5549 0.1697 0.4880
C11 C 0.1841(3) 0.33711(13) 0.3977(2)
N4 N 0.1566(3) 0.06162(10) 0.45839(16)
H3 H 0.1945 0.0817 0.5156
H4 H 0.2358 0.0865 0.3988
C12 C 0.1722(4) 0.06285(14) 0.4167(2)
C13 C 0.3575(4) 0.19846(13) 0.3996(2)
C14 C 0.2490(4) 0.18026(14) 0.3787(2)
C15 C 0.3887(4) 0.07367(13) 0.3712(2)
C16 C 0.4985(4) 0.09060(16) 0.3964(3)
H5 H 0.5968 0.1981 0.6118
C17 C 0.6412(4) 0.20584(15) 0.5330(2)
C18 C 0.2479(4) 0.33933(17) 0.3937(3)
C19 C 0.1419(4) 0.32356(14) 0.3661(2)
C20 C 0.1084(4) 0.04446(14) 0.4696(2)
H6 H 0.1548 0.0530 0.3912
C21 C 0.3391(4) 0.21564(13) 0.3651(2)
H7 H 0.3999 0.1990 0.4185
H8 H 0.2181 0.1686 0.3840
C22 C 0.2308(4) 0.19715(13) 0.3439(2)
H9 H 0.3464 0.0724 0.3755
C23 C 0.4036(4) 0.06110(13) 0.3352(2)
H10 H 0.5297 0.1003 0.4167
C24 C 0.5156(4) 0.07830(16) 0.3609(3)
C25 C 0.6707(4) 0.20006(14) 0.5000(3)
C26 C 0.6533(4) 0.22906(13) 0.5543(2)
C27 C 0.2673(5) 0.32544(19) 0.3601(3)
H11 H 0.2778 0.3499 0.4131
C28 C 0.1603(4) 0.31083(16) 0.3322(3)
H12 H 0.0980 0.3227 0.3672
C29 C 0.0831(5) 0.05037(16) 0.5046(3)
C30 C 0.0991(4) 0.02083(15) 0.4475(2)
C31 C 0.2778(4) 0.21540(13) 0.3364(2)
H13 H 0.3695 0.2279 0.3611
H14 H 0.1882 0.1968 0.3251
C32 C 0.4677(5) 0.06293(14) 0.3313(2)
H15 H 0.3717 0.0518 0.3146
H16 H 0.5577 0.0801 0.3565
H17 H 0.6621 0.1842 0.4859
C33 C 0.7130(4) 0.21654(14) 0.4863(2)
C34 C 0.6967(4) 0.24539(16) 0.5409(3)
H18 H 0.6331 0.2337 0.5768
C35 C 0.2240(4) 0.31115(14) 0.3294(2)
H19 H 0.3113 0.3261 0.3588
H20 H 0.1288 0.3019 0.3108
H21 H 0.0950 0.0653 0.5212
C36 C 0.0369(4) 0.03253(13) 0.5151(3)
C37 C 0.0535(4) 0.00397(12) 0.4597(2)
H22 H 0.1215 0.0164 0.4260
O9 O 0.2527(2) 0.23120(9) 0.30065(14)
O10 O 0.4925(3) 0.05205(9) 0.29844(16)
H23 H 0.7319 0.2116 0.4633
C38 C 0.7276(4) 0.23993(16) 0.5059(3)
H24 H 0.7063 0.2610 0.5559
O11 O 0.2509(3) 0.29907(9) 0.29970(15)
H25 H 0.0159 0.0368 0.5374
C39 C 0.0224(3) 0.00923(11) 0.4932(2)
C40 C 0.2993(4) 0.24802(13) 0.2877(2)
C41 C 0.4523(4) 0.03338(12) 0.2685(2)
C42 C 0.2116(4) 0.28204(12) 0.2685(2)
C43 C 0.2592(3) 0.26515(14) 0.24991(19)
H27 H 0.3317 0.2382 0.2770
H28 H 0.3223 0.2584 0.3131
C44 C 0.5000 0.01753(18) 0.2500
H29 H 0.4285 0.0226 0.2849
H30 H 0.4206 0.0419 0.2443
H31 H 0.1824 0.2915 0.2443
H32 H 0.1850 0.2715 0.2832
C45 C 0.2182(3) 0.24966(12) 0.21112(19)
C46 C 0.3077(4) 0.28209(13) 0.2339(2)
C47 C 0.5421(4) 0.00061(13) 0.2868(2)
O12 O 0.2631(3) 0.23360(8) 0.19566(15)
H33 H 0.1860 0.2394 0.2211
H34 H 0.1950 0.2609 0.1872
O13 O 0.2683(3) 0.30000(9) 0.20364(16)
H35 H 0.3368 0.2909 0.2591
H36 H 0.3344 0.2720 0.2186
H37 H 0.5663 0.0110 0.3118
C48 C 0.2343(4) 0.21794(12) 0.1592(2)
C49 C 0.2981(5) 0.31135(14) 0.1736(2)
C51 C 0.1692(3) 0.21710(12) 0.1349(2)
C52 C 0.2811(4) 0.20118(14) 0.1475(2)
C53 C 0.3634(4) 0.31081(16) 0.1732(2)
C54 C 0.2546(4) 0.32428(15) 0.1416(3)
C57 C 0.1504(4) 0.19993(12) 0.1009(2)
H39 H 0.1384 0.2282 0.1418
H40 H 0.3252 0.2018 0.1634
C58 C 0.2603(4) 0.18400(12) 0.1122(2)
H41 H 0.3939 0.3024 0.1960
C59 C 0.3840(4) 0.32269(14) 0.1391(2)
C60 C 0.2731(4) 0.33739(16) 0.1066(2)
H42 H 0.2106 0.3246 0.1426
C63 C 0.1927(4) 0.18241(13) 0.0897(2)
H45 H 0.1066 0.2000 0.0842
H46 H 0.2909 0.1736 0.1035
H47 H 0.4284 0.3221 0.1392
C64 C 0.3406(4) 0.33530(12) 0.1053(2)
H48 H 0.2429 0.3470 0.0854
C66 C 0.1686(4) 0.16265(11) 0.0538(2)
C67 C 0.3625(5) 0.34859(14) 0.0674(2)
O15 O 0.1105(2) 0.16360(8) 0.03215(13)
O16 O 0.2114(2) 0.14550(8) 0.05056(13)
O17 O 0.4198(3) 0.34394(9) 0.06448(15)
O18 O 0.3200(3) 0.36324(9) 0.04201(13)
Co4 Co 0.18690(5) 0.112920(17) 0.01368(3)
N6 N 0.2801(2) 0.10128(9) 0.01183(14)
C72 C 0.3028(3) 0.07777(12) 0.0108(2)
C73 C 0.3287(3) 0.11690(12) 0.0080(2)
N8 N 0.3645(2) 0.07755(9) 0.00620(16)
H53 H 0.2787 0.0631 0.0131
H54 H 0.3269 0.1347 0.0081
C76 C 0.3822(3) 0.10257(12) 0.0040(3)
C80 C 0.4041(4) 0.05511(14) 0.0040(3)
H56 H 0.4223 0.1087 0.0005
C85 C 0.4011(4) 0.03504(14) 0.0322(3)
H63 H 0.3747 0.0360 0.0524
C90 C 0.4393(4) 0.01285(14) 0.0300(3)
C93 C 0.4803(4) 0.01121(12) 0.0031(3)
O25 O 0.5390(2) 0.11626(8) 0.03479(13)
O26 O 0.6403(2) 0.09812(8) 0.05586(13)
C104 C 0.5819(4) 0.10184(12) 0.0606(2)
C105 C 0.5637(4) 0.08836(11) 0.0985(2)
C106 C 0.6113(4) 0.07367(13) 0.1288(2)
C107 C 0.5015(4) 0.09060(16) 0.1036(3)
H77 H 0.6536 0.0724 0.1245
C108 C 0.5964(4) 0.06110(13) 0.1648(2)
H78 H 0.4703 0.1003 0.0833
C109 C 0.4844(4) 0.07830(16) 0.1391(3)
C110 C 0.5323(5) 0.06293(14) 0.1687(2)
H79 H 0.6283 0.0518 0.1854
H80 H 0.4423 0.0801 0.1435
O27 O 0.5075(3) 0.05205(9) 0.20156(16)
C111 C 0.5477(4) 0.03338(12) 0.2315(2)
H81 H 0.5715 0.0226 0.2151
H82 H 0.5794 0.0419 0.2557
C112 C 0.4579(4) 0.00061(13) 0.2132(2)
H83 H 0.4337 0.0110 0.1882
N9 N 0.9795(2) 0.34134(9) 0.45935(15)
C120 C 0.9667(3) 0.33088(13) 0.41705(19)
C121 C 0.9432(3) 0.32824(13) 0.4816(2)
H89 H 0.9866 0.3358 0.3945
C122 C 0.9202(3) 0.31217(13) 0.41312(19)
N10 N 0.9034(2) 0.31169(10) 0.45401(16)
H90 H 0.9451 0.3303 0.5120
H91 H 0.9032 0.3019 0.3882
C123 C 0.8588(4) 0.29416(15) 0.4670(2)
C124 C 0.8293(4) 0.29994(14) 0.5000(3)
C125 C 0.8467(4) 0.27094(13) 0.4457(2)
H92 H 0.8379 0.3158 0.5141
C126 C 0.7870(4) 0.28346(14) 0.5137(2)
C127 C 0.8033(4) 0.25461(16) 0.4591(3)
H93 H 0.8669 0.2663 0.4232
H94 H 0.7681 0.2884 0.5367
C128 C 0.7724(4) 0.26007(16) 0.4941(3)
H95 H 0.7937 0.2390 0.4441
Co15 Co 0.68621(4) 0.113816(17) 0.01035(2)
Co18 Co 0.18621(4) 0.386184(17) 0.51035(2)
O50 O 0.3926(2) 0.15225(9) 0.56133(14)
O52 O 0.4618(2) 0.10618(8) 0.55707(14)
O55 O 0.2920(2) 0.13456(8) 0.54017(13)
O57 O 0.3623(3) 0.08805(8) 0.53781(15)
Co23 Co 0.43745(5) 0.363396(17) 0.01119(2)
O64 O 0.0715(3) 0.11269(9) 0.04470(14)
O66 O 0.1700(2) 0.09403(9) 0.06674(14)
Co3 Co 0.06255(5) 0.136604(17) 0.98881(2)
O19 O 0.0360(2) 0.10430(8) 0.95070(14)
O21 O 0.1353(3) 0.08635(8) 0.96964(14)
C69 C 0.0751(4) 0.08748(15) 0.9464(2)
C74 C 0.0539(4) 0.06716(12) 0.9104(2)
C77 C 0.0989(4) 0.05113(13) 0.9000(2)
C81 C 0.0830(4) 0.03421(13) 0.8633(2)
H57 H 0.1420 0.0514 0.9179
C86 C 0.4481(4) 0.05569(14) 0.9797(3)
C87 C 0.0160(4) 0.03388(14) 0.8401(2)
H59 H 0.1144 0.0240 0.8550
H64 H 0.4544 0.0704 0.9643
C91 C 0.4851(5) 0.03344(15) 0.9778(4)
H68 H 0.5139 0.0333 0.9592
C94 C 0.0395(4) 0.00193(13) 0.7877(2)
H70 H 0.0702 0.0126 0.7769
C141 C 0.0114(4) 0.06651(13) 0.6142(2)
H104 H 0.0419 0.0776 0.6069
C143 C 0.0317(4) 0.04940(13) 0.6494(2)
H106 H 0.0757 0.0484 0.6655
O33 O 0.0080(3) 0.01787(9) 0.69711(14)
H127 H 0.5645 0.0011 0.9521
Co9 Co 0.56176(4) 0.136419(17) 0.98471(2)
O59 O 0.0802(3) 0.15606(9) 0.93552(15)
O61 O 0.1800(3) 0.13676(9) 0.95799(13)
Co28 Co 0.31310(5) 0.387080(17) 0.98632(3)
N19 N 0.0309(2) 0.14825(9) 0.51046(15)
O4 O 0.5382(2) 0.89382(8) 0.44293(14)
O8 O 0.6377(3) 0.91195(8) 0.46219(15)
H26 H 0.0441 0.9885 0.4443
O14 O 0.4967(3) 0.98394(9) 0.30096(15)
H38 H 0.5735 0.9908 0.2752
C50 C 0.5197(4) 0.96625(14) 0.3355(2)
C55 C 0.4742(4) 0.94865(14) 0.3406(2)
C56 C 0.5855(4) 0.96666(13) 0.3614(2)
C61 C 0.4968(4) 0.93065(13) 0.3759(2)
H43 H 0.4314 0.9484 0.3222
H44 H 0.6161 0.9782 0.3554
C62 C 0.6027(4) 0.94898(14) 0.3967(2)
C65 C 0.5602(4) 0.93066(13) 0.4034(2)
H49 H 0.4674 0.9182 0.3807
H50 H 0.6447 0.9498 0.4162
C68 C 0.5785(4) 0.91038(14) 0.4385(2)
H67 H 0.4355 0.9989 0.0479
O28 O 0.5033(3) 0.98394(9) 0.19904(15)
H84 H 0.4265 0.9908 0.2248
C113 C 0.4803(4) 0.96625(14) 0.1645(2)
C114 C 0.5258(4) 0.94865(14) 0.1594(2)
C115 C 0.4145(4) 0.96666(13) 0.1386(2)
C116 C 0.5032(4) 0.93065(13) 0.1241(2)
H85 H 0.5686 0.9484 0.1778
H86 H 0.3839 0.9782 0.1446
C117 C 0.3973(4) 0.94898(14) 0.1033(2)
C118 C 0.4398(4) 0.93066(13) 0.0966(2)
H87 H 0.5326 0.9182 0.1193
H88 H 0.3553 0.9498 0.0838
C119 C 0.4215(4) 0.91038(14) 0.0615(2)
O29 O 0.4618(2) 0.89382(8) 0.05707(14)
O30 O 0.3623(3) 0.91195(8) 0.03781(15)
C168 C 0.5519(4) 0.94431(14) 0.0203(3)
H126 H 0.5456 0.9296 0.0357
C170 C 0.5149(5) 0.96656(15) 0.0222(4)
H128 H 0.4861 0.9667 0.0408
Co10 Co 0.56176(4) 0.863581(17) 0.48471(2)
Co13 Co 0.43824(4) 0.863581(17) 0.01529(2)
Co17 Co 0.68621(4) 0.886184(17) 0.51035(2)
O20 O 0.0715(3) 0.88731(9) 0.54470(14)
O22 O 0.1700(2) 0.90597(9) 0.56674(14)
C95 C 0.0000 0.98512(18) 0.7500
H69 H 0.0643 0.9914 0.8123
C96 C 0.0509(4) 0.96906(12) 0.7343(2)
O24 O 0.0128(3) 0.95138(10) 0.70088(18)
H71 H 0.0786 0.9799 0.7210
H72 H 0.0787 0.9597 0.7593
C97 C 0.0417(4) 0.93973(14) 0.6714(2)
C98 C 0.1076(4) 0.94042(12) 0.6740(2)
H73 H 0.1361 0.9493 0.6973
C100 C 0.1318(4) 0.92790(12) 0.6418(2)
C101 C 0.0237(4) 0.91388(14) 0.6047(2)
H75 H 0.1769 0.9282 0.6439
C102 C 0.0900(4) 0.91485(14) 0.6064(2)
C103 C 0.1133(4) 0.90191(13) 0.5703(2)
C149 C 0.0013(4) 0.92539(15) 0.8625(3)
H112 H 0.0456 0.9237 0.8629
H114 H 0.0048 0.9053 0.9189
N15 N 0.7199(2) 0.89872(9) 0.98817(14)
C163 C 0.6972(3) 0.92223(12) 0.9892(2)
C164 C 0.6713(3) 0.88310(12) 0.9920(2)
N16 N 0.6355(2) 0.92245(9) 0.99380(16)
H122 H 0.7213 0.9369 0.9869
H123 H 0.6731 0.8653 0.9919
C165 C 0.6178(3) 0.89743(12) 0.9960(3)
C166 C 0.5959(4) 0.94489(14) 0.9960(3)
H124 H 0.5777 0.8913 0.9995
C167 C 0.5989(4) 0.96496(14) 0.9678(3)
H125 H 0.6253 0.9640 0.9476
C169 C 0.5607(4) 0.98715(14) 0.9700(3)
C171 C 0.5197(4) 0.98879(12) 0.9969(3)
Co19 Co 0.31379(4) 0.886184(17) 0.98965(2)
Co24 Co 0.06255(5) 0.863396(17) 0.48881(2)
Co27 Co 0.81310(5) 0.887080(17) 0.98632(3)
Co29 Co 0.18690(5) 0.887080(17) 0.51368(3)
H55 H 0.8259 0.1426 0.0016
C83 C 0.8052(5) 0.19437(19) 0.0214(4)
H61 H 0.8004 0.1795 0.0370
C88 C 0.7689(6) 0.2159(2) 0.0250(5)
H65 H 0.7433 0.2161 0.0457
H102 H 0.9559 0.0115 0.5557
N13 N 0.5309(2) 0.35175(9) 0.01046(15)
C154 C 0.5525(4) 0.32793(14) 0.0097(2)
C155 C 0.5824(3) 0.36682(13) 0.0067(3)
N14 N 0.6140(3) 0.32770(10) 0.00578(19)
H115 H 0.5278 0.3134 0.0118
H116 H 0.5824 0.3846 0.0068
C156 C 0.6337(4) 0.35191(15) 0.0026(3)
C157 C 0.6539(4) 0.30484(15) 0.0042(3)
C159 C 0.6505(4) 0.28489(13) 0.0313(3)
C161 C 0.6886(4) 0.26389(12) 0.0292(2)
H119 H 0.6231 0.2854 0.0508
C162 C 0.7303(5) 0.26344(18) 0.0005(4)
H121 H 0.6865 0.2497 0.0472
N5 N 0.9691(2) 0.14825(9) 0.98954(15)
C70 C 0.9475(4) 0.17207(14) 0.9903(2)
C71 C 0.9176(3) 0.13318(13) 0.9933(3)
N7 N 0.8860(3) 0.17230(10) 0.99422(19)
H51 H 0.9722 0.1866 0.9882
H52 H 0.9176 0.1154 0.9932
C75 C 0.8663(4) 0.14809(15) 0.9974(3)
C78 C 0.9886(4) 0.06651(13) 0.8858(2)
C79 C 0.8461(4) 0.19516(15) 0.9958(3)
H58 H 0.9581 0.0776 0.8931
C82 C 0.9683(4) 0.04940(13) 0.8506(2)
C84 C 0.8495(4) 0.21511(13) 0.9687(3)
H60 H 0.9243 0.0484 0.8345
C89 C 0.8114(4) 0.23611(12) 0.9708(2)
H62 H 0.8769 0.2146 0.9492
O23 O 0.9920(3) 0.01787(9) 0.80289(14)
C92 C 0.7697(5) 0.23656(18) 0.9995(4)
H66 H 0.8135 0.2503 0.9528
O31 O 0.9640(2) 0.10430(8) 0.54930(14)
O32 O 0.8647(3) 0.08635(8) 0.53036(14)
C138 C 0.9249(4) 0.08748(15) 0.5536(2)
C139 C 0.9461(4) 0.06716(12) 0.5896(2)
C140 C 0.9011(4) 0.05113(13) 0.6000(2)
C142 C 0.9170(4) 0.03421(13) 0.6367(2)
H103 H 0.8580 0.0514 0.5821
C144 C 0.9840(4) 0.03388(14) 0.6599(2)
H105 H 0.8856 0.0240 0.6450
C145 C 0.9605(4) 0.00193(13) 0.7123(2)
H108 H 0.9298 0.0126 0.7231
H117 H 0.6741 0.3574 0.9984
C158 C 0.6948(5) 0.30563(19) 0.9786(4)
H118 H 0.6996 0.3205 0.9630
C160 C 0.7311(6) 0.2841(2) 0.9750(5)
H120 H 0.7567 0.2839 0.9543
O37 O 0.6096(2) 0.16191(8) 0.03194(14)
O38 O 0.8926(2) 0.34775(9) 0.06133(14)
O39 O 0.7096(2) 0.14371(8) 0.05306(13)
O40 O 0.7920(2) 0.36544(8) 0.04017(13)
C172 C 0.6652(4) 0.16069(12) 0.0562(2)
C173 C 0.8365(4) 0.35077(14) 0.0652(2)
C174 C 0.6874(4) 0.18002(12) 0.0936(2)
C175 C 0.8159(3) 0.33711(13) 0.1023(2)
C176 C 0.6425(4) 0.19846(13) 0.1004(2)
C177 C 0.7510(4) 0.18026(14) 0.1213(2)
C178 C 0.7521(4) 0.33933(17) 0.1063(3)
C179 C 0.8581(4) 0.32356(14) 0.1339(2)
C180 C 0.6609(4) 0.21564(13) 0.1349(2)
H129 H 0.6001 0.1990 0.0815
H130 H 0.7819 0.1686 0.1160
C181 C 0.7692(4) 0.19715(13) 0.1561(2)
C182 C 0.7327(5) 0.32544(19) 0.1399(3)
H131 H 0.7222 0.3499 0.0869
C183 C 0.8397(4) 0.31083(16) 0.1678(3)
H132 H 0.9020 0.3227 0.1328
C184 C 0.7222(4) 0.21540(13) 0.1636(2)
H133 H 0.6305 0.2279 0.1389
H134 H 0.8118 0.1968 0.1749
C185 C 0.7760(4) 0.31115(14) 0.1706(2)
H135 H 0.6887 0.3261 0.1412
H136 H 0.8712 0.3019 0.1892
O41 O 0.7473(2) 0.23120(9) 0.19935(14)
O42 O 0.7491(3) 0.29907(9) 0.20030(15)
C186 C 0.7007(4) 0.24802(13) 0.2123(2)
C187 C 0.7884(4) 0.28204(12) 0.2315(2)
C188 C 0.7408(3) 0.26515(14) 0.25009(19)
H137 H 0.6683 0.2382 0.2230
H138 H 0.6777 0.2584 0.1869
H139 H 0.8176 0.2915 0.2557
H140 H 0.8150 0.2715 0.2168
C189 C 0.7818(3) 0.24966(12) 0.28888(19)
C190 C 0.6923(4) 0.28209(13) 0.2661(2)
O43 O 0.7369(3) 0.23360(8) 0.30434(15)
H141 H 0.8140 0.2394 0.2789
H142 H 0.8050 0.2609 0.3128
O44 O 0.7317(3) 0.30000(9) 0.29636(16)
H143 H 0.6632 0.2909 0.2409
H144 H 0.6656 0.2720 0.2814
C191 C 0.7657(4) 0.21794(12) 0.3408(2)
C192 C 0.7019(5) 0.31135(14) 0.3264(2)
C193 C 0.8308(3) 0.21710(12) 0.3651(2)
C194 C 0.7189(4) 0.20118(14) 0.3525(2)
C195 C 0.6366(4) 0.31081(16) 0.3268(2)
C196 C 0.7454(4) 0.32428(15) 0.3584(3)
C197 C 0.8496(4) 0.19993(12) 0.3991(2)
H145 H 0.8616 0.2282 0.3582
H146 H 0.6748 0.2018 0.3366
C198 C 0.7397(4) 0.18400(12) 0.3878(2)
H147 H 0.6061 0.3024 0.3040
C199 C 0.6160(4) 0.32269(14) 0.3609(2)
C200 C 0.7269(4) 0.33739(16) 0.3934(2)
H148 H 0.7894 0.3246 0.3574
C201 C 0.8073(4) 0.18241(13) 0.4103(2)
H149 H 0.8934 0.2000 0.4158
H150 H 0.7091 0.1736 0.3965
H151 H 0.5716 0.3221 0.3608
C202 C 0.6594(4) 0.33530(12) 0.3947(2)
H152 H 0.7571 0.3470 0.4146
C203 C 0.8314(4) 0.16265(11) 0.4462(2)
C204 C 0.6375(5) 0.34859(14) 0.4326(2)
O45 O 0.8895(2) 0.16360(8) 0.46785(13)
O46 O 0.7886(2) 0.14550(8) 0.44944(13)
O47 O 0.5802(3) 0.34394(9) 0.43552(15)
O48 O 0.6800(3) 0.36324(9) 0.45799(13)
Co7 Co 0.93745(5) 0.136604(17) 0.51119(2)
Co8 Co 0.81310(5) 0.112920(17) 0.48632(3)
Co14 Co 0.93824(4) 0.363581(17) 0.01529(2)
N18 N 0.7673(2) 0.09134(9) 0.03545(15)
O60 O 0.9198(3) 0.15606(9) 0.56448(15)
O62 O 0.8200(3) 0.13676(9) 0.54201(13)
Co25 Co 0.56255(5) 0.363396(17) 0.48881(2)
Co30 Co 0.68690(5) 0.387080(17) 0.51368(3)
O63 O 0.9285(3) 0.11269(9) 0.45530(14)
N20 N 0.7199(2) 0.10128(9) 0.48817(14)
O65 O 0.8300(2) 0.09403(9) 0.43326(14)
Co20 Co 0.81379(4) 0.386184(17) 0.98965(2)
N17 N 0.4795(2) 0.15866(9) 0.95935(15)
O51 O 0.6074(2) 0.15225(9) 0.93867(14)
O53 O 0.5382(2) 0.10618(8) 0.94293(14)
O56 O 0.7080(2) 0.13456(8) 0.95983(13)
O58 O 0.6377(3) 0.08805(8) 0.96219(15)
N11 N 0.7673(2) 0.90866(9) 0.53545(15)
C129 C 0.8051(3) 0.92105(12) 0.5143(2)
C130 C 0.7830(3) 0.91890(14) 0.5784(2)
N12 N 0.8434(3) 0.93838(10) 0.54161(16)
H96 H 0.8055 0.9183 0.4844
H97 H 0.7642 0.9135 0.6012
C131 C 0.8278(4) 0.93715(14) 0.5833(2)
C132 C 0.8916(4) 0.95554(14) 0.5304(2)
H98 H 0.8452 0.9470 0.6088
C133 C 0.9169(5) 0.94963(16) 0.4954(3)
C134 C 0.9009(4) 0.97917(15) 0.5525(2)
H99 H 0.9050 0.9347 0.4788
C135 C 0.9631(4) 0.96747(13) 0.4849(3)
C136 C 0.9465(4) 0.99603(12) 0.5403(2)
H100 H 0.8785 0.9836 0.5740
H101 H 0.9841 0.9632 0.4626
C137 C 0.9776(3) 0.99077(11) 0.5068(2)
Co21 Co 0.93745(5) 0.863396(17) 0.01119(2)
C95_2 C 1.0000 0.98512(18) 0.7500
C99 C 0.9987(4) 0.92539(15) 0.6375(3)
H74 H 0.9544 0.9237 0.6371
H76 H 0.9952 0.9053 0.5811
H107 H 0.9357 0.9914 0.6877
C146 C 0.9491(4) 0.96906(12) 0.7657(2)
O34 O 0.9872(3) 0.95138(10) 0.79912(18)
H109 H 0.9214 0.9799 0.7790
H110 H 0.9213 0.9597 0.7407
C147 C 0.9583(4) 0.93973(14) 0.8286(2)
C148 C 0.8924(4) 0.94042(12) 0.8260(2)
H111 H 0.8639 0.9493 0.8027
C150 C 0.8682(4) 0.92790(12) 0.8582(2)
C151 C 0.9763(4) 0.91388(14) 0.8953(2)
H113 H 0.8231 0.9282 0.8561
C152 C 0.9100(4) 0.91485(14) 0.8936(2)
C153 C 0.8867(4) 0.90191(13) 0.9297(2)
O35 O 0.9285(3) 0.88731(9) 0.95530(14)
O36 O 0.8300(2) 0.90597(9) 0.93326(14)
N1_2 N 0.0205(2) 0.65866(9) 0.54065(15)
O4_2 O 0.0382(2) 0.39382(8) 0.44293(14)
O8_2 O 0.1377(3) 0.41195(8) 0.46219(15)
C3_2 C 0.0333(3) 0.66912(13) 0.58295(19)
C4_2 C 0.0568(3) 0.67176(13) 0.5184(2)
H1_2 H 0.0134 0.6642 0.6055
C10_2 C 0.0798(3) 0.68783(13) 0.58688(19)
N3_2 N 0.0966(2) 0.68831(10) 0.54599(16)
H2_2 H 0.0549 0.6697 0.4880
H5_2 H 0.0968 0.6981 0.6118
C17_2 C 0.1412(4) 0.70584(15) 0.5330(2)
H10_2 H 0.0297 0.6003 0.4167
C24_2 C 0.0156(4) 0.57830(16) 0.3609(3)
C25_2 C 0.1707(4) 0.70006(14) 0.5000(3)
C26_2 C 0.1533(4) 0.72906(13) 0.5543(2)
H16_2 H 0.0577 0.5801 0.3565
H17_2 H 0.1621 0.6842 0.4859
C33_2 C 0.2130(4) 0.71654(14) 0.4863(2)
C34_2 C 0.1967(4) 0.74539(16) 0.5409(3)
H18_2 H 0.1331 0.7337 0.5768
H23_2 H 0.2319 0.7116 0.4633
C38_2 C 0.2276(4) 0.73993(16) 0.5059(3)
H24_2 H 0.2063 0.7610 0.5559
C44_2 C 0.0000 0.51753(18) 0.2500
C47_2 C 0.0421(4) 0.50061(13) 0.2868(2)
H37_2 H 0.0663 0.5110 0.3118
H38_2 H 0.0735 0.4908 0.2752
C50_2 C 0.0197(4) 0.46625(14) 0.3355(2)
C56_2 C 0.0855(4) 0.46666(13) 0.3614(2)
H44_2 H 0.1161 0.4782 0.3554
C62_2 C 0.1027(4) 0.44898(14) 0.3967(2)
C65_2 C 0.0602(4) 0.43066(13) 0.4034(2)
H50_2 H 0.1447 0.4498 0.4162
C68_2 C 0.0785(4) 0.41038(14) 0.4385(2)
O25_2 O 0.0390(2) 0.61626(8) 0.03479(13)
O26_2 O 0.1403(2) 0.59812(8) 0.05586(13)
C104_2 C 0.0819(4) 0.60184(12) 0.0606(2)
C105_2 C 0.0637(4) 0.58836(11) 0.0985(2)
C106_2 C 0.1113(4) 0.57367(13) 0.1288(2)
C107_2 C 0.0015(4) 0.59060(16) 0.1036(3)
H77_2 H 0.1536 0.5724 0.1245
C108_2 C 0.0964(4) 0.56110(13) 0.1648(2)
C110_2 C 0.0323(5) 0.56293(14) 0.1687(2)
H79_2 H 0.1283 0.5518 0.1854
O27_2 O 0.0075(3) 0.55205(9) 0.20156(16)
C111_2 C 0.0477(4) 0.53338(12) 0.2315(2)
H81_2 H 0.0715 0.5226 0.2151
H82_2 H 0.0794 0.5419 0.2557
O28_2 O 0.0033(3) 0.48394(9) 0.19904(15)
C114_2 C 0.0258(4) 0.44865(14) 0.1594(2)
C116_2 C 0.0032(4) 0.43065(13) 0.1241(2)
H85_2 H 0.0686 0.4484 0.1778
H87_2 H 0.0326 0.4182 0.1193
N9_2 N 0.4795(2) 0.84134(9) 0.45935(15)
C120_2 C 0.4667(3) 0.83088(13) 0.41705(19)
C121_2 C 0.4432(3) 0.82824(13) 0.4816(2)
H89_2 H 0.4866 0.8358 0.3945
C122_2 C 0.4202(3) 0.81217(13) 0.41312(19)
N10_2 N 0.4034(2) 0.81169(10) 0.45401(16)
H90_2 H 0.4451 0.8303 0.5120
H91_2 H 0.4032 0.8019 0.3882
C123_2 C 0.3588(4) 0.79416(15) 0.4670(2)
C124_2 C 0.3293(4) 0.79994(14) 0.5000(3)
C125_2 C 0.3467(4) 0.77094(13) 0.4457(2)
H92_2 H 0.3379 0.8158 0.5141
C126_2 C 0.2870(4) 0.78346(14) 0.5137(2)
C127_2 C 0.3033(4) 0.75461(16) 0.4591(3)
H93_2 H 0.3669 0.7663 0.4232
H94_2 H 0.2681 0.7884 0.5367
C128_2 C 0.2724(4) 0.76007(16) 0.4941(3)
H95_2 H 0.2937 0.7390 0.4441
C168_2 C 0.0519(4) 0.44431(14) 0.0203(3)
H126_2 H 0.0456 0.4296 0.0357
C170_2 C 0.0149(5) 0.46656(15) 0.0222(4)
Co15_2 Co 0.18621(4) 0.613816(17) 0.01035(2)
H68_2 H 0.0139 0.5333 0.9592
N15_2 N 0.2199(2) 0.39872(9) 0.98817(14)
C163_2 C 0.1972(3) 0.42223(12) 0.9892(2)
C164_2 C 0.1713(3) 0.38310(12) 0.9920(2)
N16_2 N 0.1355(2) 0.42245(9) 0.99380(16)
H122_2 H 0.2213 0.4369 0.9869
H123_2 H 0.1731 0.3653 0.9919
C165_2 C 0.1178(3) 0.39743(12) 0.9960(3)
C166_2 C 0.0959(4) 0.44489(14) 0.9960(3)
H124_2 H 0.0777 0.3913 0.9995
C167_2 C 0.0989(4) 0.46496(14) 0.9678(3)
H125_2 H 0.1253 0.4640 0.9476
C169_2 C 0.0607(4) 0.48715(14) 0.9700(3)
H127_2 H 0.0645 0.5011 0.9521
C171_2 C 0.0197(4) 0.48879(12) 0.9969(3)
Co9_2 Co 0.06176(4) 0.636419(17) 0.98471(2)
Co1_2 Co 0.93824(4) 0.636419(17) 0.51529(2)
Co2_2 Co 0.81379(4) 0.613816(17) 0.48965(2)
O1_2 O 0.8904(2) 0.66191(8) 0.46806(14)
O2_2 O 0.9610(2) 0.61626(8) 0.46521(13)
O3_2 O 0.6074(2) 0.84775(9) 0.43867(14)
O5_2 O 0.7904(2) 0.64371(8) 0.44694(13)
O6_2 O 0.8597(2) 0.59812(8) 0.44414(13)
N2_2 N 0.7327(2) 0.59134(9) 0.46455(15)
O7_2 O 0.7080(2) 0.86544(8) 0.45983(13)
C1_2 C 0.8348(4) 0.66069(12) 0.4438(2)
C2_2 C 0.9181(4) 0.60184(12) 0.4394(2)
C5_2 C 0.6635(4) 0.85077(14) 0.4348(2)
C6_2 C 0.6949(3) 0.57895(12) 0.4857(2)
C7_2 C 0.7170(3) 0.58110(14) 0.4216(2)
C8_2 C 0.8126(4) 0.68002(12) 0.4064(2)
C9_2 C 0.9363(4) 0.58836(11) 0.4015(2)
C11_2 C 0.6841(3) 0.83711(13) 0.3977(2)
N4_2 N 0.6566(3) 0.56162(10) 0.45839(16)
H3_2 H 0.6945 0.5817 0.5156
H4_2 H 0.7358 0.5865 0.3988
C12_2 C 0.6722(4) 0.56285(14) 0.4167(2)
C13_2 C 0.8575(4) 0.69846(13) 0.3996(2)
C14_2 C 0.7490(4) 0.68026(14) 0.3787(2)
C15_2 C 0.8887(4) 0.57367(13) 0.3712(2)
C16_2 C 0.9985(4) 0.59060(16) 0.3964(3)
C18_2 C 0.7479(4) 0.83933(17) 0.3937(3)
C19_2 C 0.6419(4) 0.82356(14) 0.3661(2)
C20_2 C 0.6084(4) 0.54446(14) 0.4696(2)
H6_2 H 0.6548 0.5530 0.3912
C21_2 C 0.8391(4) 0.71564(13) 0.3651(2)
H7_2 H 0.8999 0.6990 0.4185
H8_2 H 0.7181 0.6686 0.3840
C22_2 C 0.7308(4) 0.69715(13) 0.3439(2)
H9_2 H 0.8464 0.5724 0.3755
C23_2 C 0.9036(4) 0.56110(13) 0.3352(2)
C27_2 C 0.7673(5) 0.82544(19) 0.3601(3)
H11_2 H 0.7778 0.8499 0.4131
C28_2 C 0.6603(4) 0.81083(16) 0.3322(3)
H12_2 H 0.5980 0.8227 0.3672
C29_2 C 0.5831(5) 0.55037(16) 0.5046(3)
C30_2 C 0.5991(4) 0.52083(15) 0.4475(2)
C31_2 C 0.7778(4) 0.71540(13) 0.3364(2)
H13_2 H 0.8695 0.7279 0.3611
H14_2 H 0.6882 0.6968 0.3251
C32_2 C 0.9677(5) 0.56293(14) 0.3313(2)
H15_2 H 0.8717 0.5518 0.3146
C35_2 C 0.7240(4) 0.81115(14) 0.3294(2)
H19_2 H 0.8113 0.8261 0.3588
H20_2 H 0.6288 0.8019 0.3108
H21_2 H 0.5950 0.5653 0.5212
C36_2 C 0.5369(4) 0.53253(13) 0.5151(3)
C37_2 C 0.5535(4) 0.50397(12) 0.4597(2)
H22_2 H 0.6215 0.5164 0.4260
O9_2 O 0.7527(2) 0.73120(9) 0.30065(14)
O10_2 O 0.9925(3) 0.55205(9) 0.29844(16)
O11_2 O 0.7509(3) 0.79907(9) 0.29970(15)
H25_2 H 0.5159 0.5368 0.5374
C39_2 C 0.5224(3) 0.50923(11) 0.4932(2)
H26_2 H 0.5441 0.4885 0.4443
C40_2 C 0.7993(4) 0.74802(13) 0.2877(2)
C41_2 C 0.9523(4) 0.53338(12) 0.2685(2)
C42_2 C 0.7116(4) 0.78204(12) 0.2685(2)
C43_2 C 0.7592(3) 0.76515(14) 0.24991(19)
H27_2 H 0.8317 0.7382 0.2770
H28_2 H 0.8223 0.7584 0.3131
C44_3 C 1.0000 0.51753(18) 0.2500
H29_2 H 0.9285 0.5226 0.2849
H30_2 H 0.9206 0.5419 0.2443
H31_2 H 0.6824 0.7915 0.2443
H32_2 H 0.6850 0.7715 0.2832
C45_2 C 0.7182(3) 0.74966(12) 0.21112(19)
C46_2 C 0.8077(4) 0.78209(13) 0.2339(2)
O12_2 O 0.7631(3) 0.73360(8) 0.19566(15)
H33_2 H 0.6860 0.7394 0.2211
H34_2 H 0.6950 0.7609 0.1872
O13_2 O 0.7683(3) 0.80000(9) 0.20364(16)
H35_2 H 0.8368 0.7909 0.2591
H36_2 H 0.8344 0.7720 0.2186
O14_2 O 0.9967(3) 0.48394(9) 0.30096(15)
C48_2 C 0.7343(4) 0.71794(12) 0.1592(2)
C49_2 C 0.7981(5) 0.81135(14) 0.1736(2)
C51_2 C 0.6692(3) 0.71710(12) 0.1349(2)
C52_2 C 0.7811(4) 0.70118(14) 0.1475(2)
C53_2 C 0.8634(4) 0.81081(16) 0.1732(2)
C54_2 C 0.7546(4) 0.82428(15) 0.1416(3)
C55_2 C 0.9742(4) 0.44865(14) 0.3406(2)
C57_2 C 0.6504(4) 0.69993(12) 0.1009(2)
H39_2 H 0.6384 0.7282 0.1418
H40_2 H 0.8252 0.7018 0.1634
C58_2 C 0.7603(4) 0.68400(12) 0.1122(2)
H41_2 H 0.8939 0.8024 0.1960
C59_2 C 0.8840(4) 0.82269(14) 0.1391(2)
C60_2 C 0.7731(4) 0.83739(16) 0.1066(2)
H42_2 H 0.7106 0.8246 0.1426
C61_2 C 0.9968(4) 0.43065(13) 0.3759(2)
H43_2 H 0.9314 0.4484 0.3222
C63_2 C 0.6927(4) 0.68241(13) 0.0897(2)
H45_2 H 0.6066 0.7000 0.0842
H46_2 H 0.7909 0.6736 0.1035
H47_2 H 0.9284 0.8221 0.1392
C64_2 C 0.8406(4) 0.83530(12) 0.1053(2)
H48_2 H 0.7429 0.8470 0.0854
H49_2 H 0.9674 0.4182 0.3807
C66_2 C 0.6686(4) 0.66265(11) 0.0538(2)
C67_2 C 0.8625(5) 0.84859(14) 0.0674(2)
O15_2 O 0.6105(2) 0.66360(8) 0.03215(13)
O16_2 O 0.7114(2) 0.64550(8) 0.05056(13)
O17_2 O 0.9198(3) 0.84394(9) 0.06448(15)
O18_2 O 0.8200(3) 0.86324(9) 0.04201(13)
Co4_2 Co 0.68690(5) 0.612920(17) 0.01368(3)
N6_2 N 0.7801(2) 0.60128(9) 0.01183(14)
C72_2 C 0.8028(3) 0.57777(12) 0.0108(2)
C73_2 C 0.8287(3) 0.61690(12) 0.0080(2)
N8_2 N 0.8645(2) 0.57755(9) 0.00620(16)
H53_2 H 0.7787 0.5631 0.0131
H54_2 H 0.8269 0.6347 0.0081
C76_2 C 0.8822(3) 0.60257(12) 0.0040(3)
H55_2 H 0.3259 0.6426 0.0016
C80_2 C 0.9041(4) 0.55511(14) 0.0040(3)
H56_2 H 0.9223 0.6087 0.0005
C83_2 C 0.3052(5) 0.69437(19) 0.0214(4)
C85_2 C 0.9011(4) 0.53504(14) 0.0322(3)
H61_2 H 0.3004 0.6795 0.0370
C88_2 C 0.2689(6) 0.7159(2) 0.0250(5)
H63_2 H 0.8747 0.5360 0.0524
C90_2 C 0.9393(4) 0.51285(14) 0.0300(3)
H65_2 H 0.2433 0.7161 0.0457
H67_2 H 0.9355 0.4989 0.0479
C93_2 C 0.9803(4) 0.51121(12) 0.0031(3)
H78_2 H 0.9703 0.6003 0.0833
C109_2 C 0.9844(4) 0.57830(16) 0.1391(3)
H80_2 H 0.9423 0.5801 0.1435
C112_2 C 0.9579(4) 0.50061(13) 0.2132(2)
H83_2 H 0.9337 0.5110 0.1882
H84_2 H 0.9265 0.4908 0.2248
C113_2 C 0.9803(4) 0.46625(14) 0.1645(2)
C115_2 C 0.9145(4) 0.46666(13) 0.1386(2)
H86_2 H 0.8839 0.4782 0.1446
C117_2 C 0.8973(4) 0.44898(14) 0.1033(2)
C118_2 C 0.9398(4) 0.43066(13) 0.0966(2)
H88_2 H 0.8553 0.4498 0.0838
C119_2 C 0.9215(4) 0.41038(14) 0.0615(2)
O29_2 O 0.9618(2) 0.39382(8) 0.05707(14)
O30_2 O 0.8623(3) 0.41195(8) 0.03781(15)
N11_2 N 0.2673(2) 0.40866(9) 0.53545(15)
C129_2 C 0.3051(3) 0.42105(12) 0.5143(2)
C130_2 C 0.2830(3) 0.41890(14) 0.5784(2)
N12_2 N 0.3434(3) 0.43838(10) 0.54161(16)
H96_2 H 0.3055 0.4183 0.4844
H97_2 H 0.2642 0.4135 0.6012
C131_2 C 0.3278(4) 0.43715(14) 0.5833(2)
C132_2 C 0.3916(4) 0.45554(14) 0.5304(2)
H98_2 H 0.3452 0.4470 0.6088
C133_2 C 0.4169(5) 0.44963(16) 0.4954(3)
C134_2 C 0.4009(4) 0.47917(15) 0.5525(2)
H99_2 H 0.4050 0.4347 0.4788
C135_2 C 0.4631(4) 0.46747(13) 0.4849(3)
C136_2 C 0.4465(4) 0.49603(12) 0.5403(2)
H100_2 H 0.3785 0.4836 0.5740
H101_2 H 0.4841 0.4632 0.4626
C137_2 C 0.4776(3) 0.49077(11) 0.5068(2)
H102_2 H 0.4559 0.5115 0.5557
N13_2 N 0.0309(2) 0.85175(9) 0.01046(15)
C154_2 C 0.0525(4) 0.82793(14) 0.0097(2)
C155_2 C 0.0824(3) 0.86682(13) 0.0067(3)
N14_2 N 0.1140(3) 0.82770(10) 0.00578(19)
H115_2 H 0.0278 0.8134 0.0118
H116_2 H 0.0824 0.8846 0.0068
C156_2 C 0.1337(4) 0.85191(15) 0.0026(3)
C157_2 C 0.1539(4) 0.80484(15) 0.0042(3)
C159_2 C 0.1505(4) 0.78489(13) 0.0313(3)
C161_2 C 0.1886(4) 0.76389(12) 0.0292(2)
H119_2 H 0.1231 0.7854 0.0508
C162_2 C 0.2303(5) 0.76344(18) 0.0005(4)
H121_2 H 0.1865 0.7497 0.0472
H128_2 H 0.9861 0.4667 0.0408
O50_2 O 0.8926(2) 0.65225(9) 0.56133(14)
O52_2 O 0.9618(2) 0.60618(8) 0.55707(14)
O55_2 O 0.7920(2) 0.63456(8) 0.54017(13)
O57_2 O 0.8623(3) 0.58805(8) 0.53781(15)
O64_2 O 0.5715(3) 0.61269(9) 0.04470(14)
O66_2 O 0.6700(2) 0.59403(9) 0.06674(14)
Co3_2 Co 0.56255(5) 0.636604(17) 0.98881(2)
O19_2 O 0.5360(2) 0.60430(8) 0.95070(14)
N5_2 N 0.4691(2) 0.64825(9) 0.98954(15)
O20_2 O 0.5715(3) 0.38731(9) 0.54470(14)
O21_2 O 0.6353(3) 0.58635(8) 0.96964(14)
O22_2 O 0.6700(2) 0.40597(9) 0.56674(14)
C69_2 C 0.5751(4) 0.58748(15) 0.9464(2)
C70_2 C 0.4475(4) 0.67207(14) 0.9903(2)
C71_2 C 0.4176(3) 0.63318(13) 0.9933(3)
C74_2 C 0.5539(4) 0.56716(12) 0.9104(2)
N7_2 N 0.3860(3) 0.67230(10) 0.99422(19)
H51_2 H 0.4722 0.6866 0.9882
H52_2 H 0.4176 0.6154 0.9932
C75_2 C 0.3663(4) 0.64809(15) 0.9974(3)
C77_2 C 0.5989(4) 0.55113(13) 0.9000(2)
C78_2 C 0.4886(4) 0.56651(13) 0.8858(2)
C79_2 C 0.3461(4) 0.69516(15) 0.9958(3)
C81_2 C 0.5830(4) 0.53421(13) 0.8633(2)
H57_2 H 0.6420 0.5514 0.9179
H58_2 H 0.4581 0.5776 0.8931
C82_2 C 0.4683(4) 0.54940(13) 0.8506(2)
C84_2 C 0.3495(4) 0.71511(13) 0.9687(3)
C86_2 C 0.9481(4) 0.55569(14) 0.9797(3)
C87_2 C 0.5160(4) 0.53388(14) 0.8401(2)
H59_2 H 0.6144 0.5240 0.8550
H60_2 H 0.4243 0.5484 0.8345
C89_2 C 0.3114(4) 0.73611(12) 0.9708(2)
H62_2 H 0.3769 0.7146 0.9492
H64_2 H 0.9544 0.5704 0.9643
C91_2 C 0.9851(5) 0.53344(15) 0.9778(4)
O23_2 O 0.4920(3) 0.51787(9) 0.80289(14)
C92_2 C 0.2697(5) 0.73656(18) 0.9995(4)
H66_2 H 0.3135 0.7503 0.9528
C94_2 C 0.5395(4) 0.50193(13) 0.7877(2)
C95_3 C 0.5000 0.48512(18) 0.7500
H69_2 H 0.5643 0.4914 0.8123
H70_2 H 0.5702 0.5126 0.7769
C96_2 C 0.5509(4) 0.46906(12) 0.7343(2)
O24_2 O 0.5128(3) 0.45138(10) 0.70088(18)
H71_2 H 0.5786 0.4799 0.7210
H72_2 H 0.5787 0.4597 0.7593
C97_2 C 0.5417(4) 0.43973(14) 0.6714(2)
C98_2 C 0.6076(4) 0.44042(12) 0.6740(2)
C99_2 C 0.4987(4) 0.42539(15) 0.6375(3)
H73_2 H 0.6361 0.4493 0.6973
C100_2 C 0.6318(4) 0.42790(12) 0.6418(2)
C101_2 C 0.5237(4) 0.41388(14) 0.6047(2)
H74_2 H 0.4544 0.4237 0.6371
H75_2 H 0.6769 0.4282 0.6439
C102_2 C 0.5900(4) 0.41485(14) 0.6064(2)
H76_2 H 0.4952 0.4053 0.5811
C103_2 C 0.6133(4) 0.40191(13) 0.5703(2)
O31_2 O 0.4640(2) 0.60430(8) 0.54930(14)
O32_2 O 0.3647(3) 0.58635(8) 0.53036(14)
C138_2 C 0.4249(4) 0.58748(15) 0.5536(2)
C139_2 C 0.4461(4) 0.56716(12) 0.5896(2)
C140_2 C 0.4011(4) 0.55113(13) 0.6000(2)
C141_2 C 0.5114(4) 0.56651(13) 0.6142(2)
C142_2 C 0.4170(4) 0.53421(13) 0.6367(2)
H103_2 H 0.3580 0.5514 0.5821
H104_2 H 0.5419 0.5776 0.6069
C143_2 C 0.5317(4) 0.54940(13) 0.6494(2)
C144_2 C 0.4840(4) 0.53388(14) 0.6599(2)
H105_2 H 0.3856 0.5240 0.6450
H106_2 H 0.5757 0.5484 0.6655
O33_2 O 0.5080(3) 0.51787(9) 0.69711(14)
C145_2 C 0.4605(4) 0.50193(13) 0.7123(2)
H107_2 H 0.4357 0.4914 0.6877
H108_2 H 0.4298 0.5126 0.7231
C146_2 C 0.4491(4) 0.46906(12) 0.7657(2)
O34_2 O 0.4872(3) 0.45138(10) 0.79912(18)
H109_2 H 0.4214 0.4799 0.7790
H110_2 H 0.4213 0.4597 0.7407
C147_2 C 0.4583(4) 0.43973(14) 0.8286(2)
C148_2 C 0.3924(4) 0.44042(12) 0.8260(2)
C149_2 C 0.5013(4) 0.42539(15) 0.8625(3)
H111_2 H 0.3639 0.4493 0.8027
C150_2 C 0.3682(4) 0.42790(12) 0.8582(2)
C151_2 C 0.4763(4) 0.41388(14) 0.8953(2)
H112_2 H 0.5456 0.4237 0.8629
H113_2 H 0.3231 0.4282 0.8561
C152_2 C 0.4100(4) 0.41485(14) 0.8936(2)
H114_2 H 0.5048 0.4053 0.9189
C153_2 C 0.3867(4) 0.40191(13) 0.9297(2)
O35_2 O 0.4285(3) 0.38731(9) 0.95530(14)
O36_2 O 0.3300(2) 0.40597(9) 0.93326(14)
H117_2 H 0.1741 0.8574 0.9984
C158_2 C 0.1948(5) 0.80563(19) 0.9786(4)
H118_2 H 0.1996 0.8205 0.9630
C160_2 C 0.2311(6) 0.7841(2) 0.9750(5)
H120_2 H 0.2567 0.7839 0.9543
O37_2 O 0.1096(2) 0.66191(8) 0.03194(14)
O38_2 O 0.3926(2) 0.84775(9) 0.06133(14)
O39_2 O 0.2096(2) 0.64371(8) 0.05306(13)
O40_2 O 0.2920(2) 0.86544(8) 0.04017(13)
C172_2 C 0.1652(4) 0.66069(12) 0.0562(2)
C173_2 C 0.3365(4) 0.85077(14) 0.0652(2)
C174_2 C 0.1874(4) 0.68002(12) 0.0936(2)
C175_2 C 0.3159(3) 0.83711(13) 0.1023(2)
C176_2 C 0.1425(4) 0.69846(13) 0.1004(2)
C177_2 C 0.2510(4) 0.68026(14) 0.1213(2)
C178_2 C 0.2521(4) 0.83933(17) 0.1063(3)
C179_2 C 0.3581(4) 0.82356(14) 0.1339(2)
C180_2 C 0.1609(4) 0.71564(13) 0.1349(2)
H129_2 H 0.1001 0.6990 0.0815
H130_2 H 0.2819 0.6686 0.1160
C181_2 C 0.2692(4) 0.69715(13) 0.1561(2)
C182_2 C 0.2327(5) 0.82544(19) 0.1399(3)
H131_2 H 0.2222 0.8499 0.0869
C183_2 C 0.3397(4) 0.81083(16) 0.1678(3)
H132_2 H 0.4020 0.8227 0.1328
C184_2 C 0.2222(4) 0.71540(13) 0.1636(2)
H133_2 H 0.1305 0.7279 0.1389
H134_2 H 0.3118 0.6968 0.1749
C185_2 C 0.2760(4) 0.81115(14) 0.1706(2)
H135_2 H 0.1887 0.8261 0.1412
H136_2 H 0.3712 0.8019 0.1892
O41_2 O 0.2473(2) 0.73120(9) 0.19935(14)
O42_2 O 0.2491(3) 0.79907(9) 0.20030(15)
C186_2 C 0.2007(4) 0.74802(13) 0.2123(2)
C187_2 C 0.2884(4) 0.78204(12) 0.2315(2)
C188_2 C 0.2408(3) 0.76515(14) 0.25009(19)
H137_2 H 0.1683 0.7382 0.2230
H138_2 H 0.1777 0.7584 0.1869
H139_2 H 0.3176 0.7915 0.2557
H140_2 H 0.3150 0.7715 0.2168
C189_2 C 0.2818(3) 0.74966(12) 0.28888(19)
C190_2 C 0.1923(4) 0.78209(13) 0.2661(2)
O43_2 O 0.2369(3) 0.73360(8) 0.30434(15)
H141_2 H 0.3140 0.7394 0.2789
H142_2 H 0.3050 0.7609 0.3128
O44_2 O 0.2317(3) 0.80000(9) 0.29636(16)
H143_2 H 0.1632 0.7909 0.2409
H144_2 H 0.1656 0.7720 0.2814
C191_2 C 0.2657(4) 0.71794(12) 0.3408(2)
C192_2 C 0.2019(5) 0.81135(14) 0.3264(2)
C193_2 C 0.3308(3) 0.71710(12) 0.3651(2)
C194_2 C 0.2189(4) 0.70118(14) 0.3525(2)
C195_2 C 0.1366(4) 0.81081(16) 0.3268(2)
C196_2 C 0.2454(4) 0.82428(15) 0.3584(3)
C197_2 C 0.3496(4) 0.69993(12) 0.3991(2)
H145_2 H 0.3616 0.7282 0.3582
H146_2 H 0.1748 0.7018 0.3366
C198_2 C 0.2397(4) 0.68400(12) 0.3878(2)
H147_2 H 0.1061 0.8024 0.3040
C199_2 C 0.1160(4) 0.82269(14) 0.3609(2)
C200_2 C 0.2269(4) 0.83739(16) 0.3934(2)
H148_2 H 0.2894 0.8246 0.3574
C201_2 C 0.3073(4) 0.68241(13) 0.4103(2)
H149_2 H 0.3934 0.7000 0.4158
H150_2 H 0.2091 0.6736 0.3965
H151_2 H 0.0716 0.8221 0.3608
C202_2 C 0.1594(4) 0.83530(12) 0.3947(2)
H152_2 H 0.2571 0.8470 0.4146
C203_2 C 0.3314(4) 0.66265(11) 0.4462(2)
C204_2 C 0.1375(5) 0.84859(14) 0.4326(2)
O45_2 O 0.3895(2) 0.66360(8) 0.46785(13)
O46_2 O 0.2886(2) 0.64550(8) 0.44944(13)
O47_2 O 0.0802(3) 0.84394(9) 0.43552(15)
O48_2 O 0.1800(3) 0.86324(9) 0.45799(13)
Co7_2 Co 0.43745(5) 0.636604(17) 0.51119(2)
Co8_2 Co 0.31310(5) 0.612920(17) 0.48632(3)
N18_2 N 0.2673(2) 0.59134(9) 0.03545(15)
O59_2 O 0.5802(3) 0.65606(9) 0.93552(15)
O60_2 O 0.4198(3) 0.65606(9) 0.56448(15)
O61_2 O 0.6800(3) 0.63676(9) 0.95799(13)
O62_2 O 0.3200(3) 0.63676(9) 0.54201(13)
N19_2 N 0.5309(2) 0.64825(9) 0.51046(15)
O63_2 O 0.4285(3) 0.61269(9) 0.45530(14)
N20_2 N 0.2199(2) 0.60128(9) 0.48817(14)
O65_2 O 0.3300(2) 0.59403(9) 0.43326(14)
O51_2 O 0.1074(2) 0.65225(9) 0.93867(14)
O53_2 O 0.0382(2) 0.60618(8) 0.94293(14)
O56_2 O 0.2080(2) 0.63456(8) 0.95983(13)
O58_2 O 0.1377(3) 0.58805(8) 0.96219(15)
N17_2 N 0.9795(2) 0.65866(9) 0.95935(15)
C70_3 C 0.0525(4) 0.17207(14) 0.5097(2)
C71_3 C 0.0824(3) 0.13318(13) 0.5067(3)
N7_3 N 0.1140(3) 0.17230(10) 0.50578(19)
H51_3 H 0.0278 0.1866 0.5118
H52_3 H 0.0824 0.1154 0.5068
C75_3 C 0.1337(4) 0.14809(15) 0.5026(3)
C79_3 C 0.1539(4) 0.19516(15) 0.5042(3)
H55_3 H 0.1741 0.1426 0.4984
C83_3 C 0.1948(5) 0.19437(19) 0.4786(4)
C84_3 C 0.1505(4) 0.21511(13) 0.5313(3)
H61_3 H 0.1996 0.1795 0.4630
C88_3 C 0.2311(6) 0.2159(2) 0.4750(5)
C89_3 C 0.1886(4) 0.23611(12) 0.5292(2)
H62_3 H 0.1231 0.2146 0.5508
H65_3 H 0.2567 0.2161 0.4543
C92_3 C 0.2303(5) 0.23656(18) 0.5005(4)
H66_3 H 0.1865 0.2503 0.5472
N13_3 N 0.4691(2) 0.35175(9) 0.48954(15)
C154_3 C 0.4475(4) 0.32793(14) 0.4903(2)
C155_3 C 0.4176(3) 0.36682(13) 0.4933(3)
N14_3 N 0.3860(3) 0.32770(10) 0.49422(19)
H115_3 H 0.4722 0.3134 0.4882
H116_3 H 0.4176 0.3846 0.4932
C156_3 C 0.3663(4) 0.35191(15) 0.4974(3)
C157_3 C 0.3461(4) 0.30484(15) 0.4958(3)
H117_3 H 0.3259 0.3574 0.5016
C158_3 C 0.3052(5) 0.30563(19) 0.5214(4)
C159_3 C 0.3495(4) 0.28489(13) 0.4687(3)
H118_3 H 0.3004 0.3205 0.5370
C160_3 C 0.2689(6) 0.2841(2) 0.5250(5)
C161_3 C 0.3114(4) 0.26389(12) 0.4708(2)
H119_3 H 0.3769 0.2854 0.4492
H120_3 H 0.2433 0.2839 0.5457
C162_3 C 0.2697(5) 0.26344(18) 0.4995(4)
H121_3 H 0.3135 0.2497 0.4528
H102_3 H 0.0441 0.0115 0.9443
H96_3 H 0.1945 0.9183 0.0156
C133_3 C 0.0831(5) 0.94963(16) 0.0046(3)
H99_3 H 0.0950 0.9347 0.0212
C135_3 C 0.0369(4) 0.96747(13) 0.0151(3)
H101_3 H 0.0159 0.9632 0.0374
N11_3 N 0.2327(2) 0.90866(9) 0.96455(15)
C129_3 C 0.1949(3) 0.92105(12) 0.9857(2)
C130_3 C 0.2170(3) 0.91890(14) 0.9216(2)
N12_3 N 0.1566(3) 0.93838(10) 0.95839(16)
H97_3 H 0.2358 0.9135 0.8988
C131_3 C 0.1722(4) 0.93715(14) 0.9167(2)
C132_3 C 0.1084(4) 0.95554(14) 0.9696(2)
H98_3 H 0.1548 0.9470 0.8912
C134_3 C 0.0991(4) 0.97917(15) 0.9475(2)
C136_3 C 0.0535(4) 0.99603(12) 0.9597(2)
H100_3 H 0.1215 0.9836 0.9260
C137_3 C 0.0224(3) 0.99077(11) 0.9932(2)
C6_3 C 0.8051(3) 0.07895(12) 0.0143(2)
C7_3 C 0.7830(3) 0.08110(14) 0.0784(2)
H2_3 H 0.4451 0.1697 0.0120
N4_3 N 0.8434(3) 0.06162(10) 0.04161(16)
H4_3 H 0.7642 0.0865 0.1012
C12_3 C 0.8278(4) 0.06285(14) 0.0833(2)
C20_3 C 0.8916(4) 0.04446(14) 0.0304(2)
H6_3 H 0.8452 0.0530 0.1088
C25_3 C 0.3293(4) 0.20006(14) -0.0000(3)
C30_3 C 0.9009(4) 0.02083(15) 0.0525(2)
H17_3 H 0.3379 0.1842 0.0141
C33_3 C 0.2870(4) 0.21654(14) 0.0137(2)
C37_3 C 0.9465(4) 0.00397(12) 0.0403(2)
H22_3 H 0.8785 0.0164 0.0740
H23_3 H 0.2681 0.2116 0.0367
C39_3 C 0.9776(3) 0.00923(11) 0.0068(2)
C72_3 C 0.6972(3) 0.07777(12) 0.4892(2)
C73_3 C 0.6713(3) 0.11690(12) 0.4920(2)
N8_3 N 0.6355(2) 0.07755(9) 0.49380(16)
H53_3 H 0.7213 0.0631 0.4869
H54_3 H 0.6731 0.1347 0.4919
C76_3 C 0.6178(3) 0.10257(12) 0.4960(3)
C80_3 C 0.5959(4) 0.05511(14) 0.4960(3)
H56_3 H 0.5777 0.1087 0.4995
C85_3 C 0.5989(4) 0.03504(14) 0.4678(3)
C86_3 C 0.5519(4) 0.05569(14) 0.5203(3)
H63_3 H 0.6253 0.0360 0.4476
C90_3 C 0.5607(4) 0.01285(14) 0.4700(3)
H64_3 H 0.5456 0.0704 0.5357
C91_3 C 0.5149(5) 0.03344(15) 0.5222(4)
C93_3 C 0.5197(4) 0.01121(12) 0.4969(3)
H68_3 H 0.4861 0.0333 0.5408
N9_3 N 0.0205(2) 0.34134(9) 0.04065(15)
C120_3 C 0.0333(3) 0.33088(13) 0.08295(19)
C121_3 C 0.0568(3) 0.32824(13) 0.0184(2)
H89_3 H 0.0134 0.3358 0.1055
C122_3 C 0.0798(3) 0.31217(13) 0.08688(19)
N10_3 N 0.0966(2) 0.31169(10) 0.04599(16)
H91_3 H 0.0968 0.3019 0.1118
C123_3 C 0.1412(4) 0.29416(15) 0.0330(2)
C124_3 C 0.1707(4) 0.29994(14) -0.0000(3)
C125_3 C 0.1533(4) 0.27094(13) 0.0543(2)
C127_3 C 0.1967(4) 0.25461(16) 0.0409(3)
H93_3 H 0.1331 0.2663 0.0768
C128_3 C 0.2276(4) 0.26007(16) 0.0059(3)
H95_3 H 0.2063 0.2390 0.0559
H127_3 H 0.4355 0.0011 0.5479
C3_3 C 0.4667(3) 0.16912(13) 0.91705(19)
C4_3 C 0.4432(3) 0.17176(13) 0.9816(2)
H1_3 H 0.4866 0.1642 0.8945
C10_3 C 0.4202(3) 0.18783(13) 0.91312(19)
N3_3 N 0.4034(2) 0.18831(10) 0.95401(16)
H3_3 H 0.8055 0.0817 0.9844
H5_3 H 0.4032 0.1981 0.8882
C17_3 C 0.3588(4) 0.20584(15) 0.9670(2)
C25_4 C 0.3293(4) 0.20006(14) 1.0000(3)
C26_3 C 0.3467(4) 0.22906(13) 0.9457(2)
C29_3 C 0.9169(5) 0.05037(16) 0.9954(3)
C34_3 C 0.3033(4) 0.24539(16) 0.9591(3)
H18_3 H 0.3669 0.2337 0.9232
H21_3 H 0.9050 0.0653 0.9788
C36_3 C 0.9631(4) 0.03253(13) 0.9849(3)
C38_3 C 0.2724(4) 0.23993(16) 0.9941(3)
H24_3 H 0.2937 0.2610 0.9441
H25_3 H 0.9841 0.0368 0.9626
H90_3 H 0.0549 0.3303 0.9880
C124_4 C 0.1707(4) 0.29994(14) 1.0000(3)
H92_3 H 0.1621 0.3158 0.9859
C126_3 C 0.2130(4) 0.28346(14) 0.9863(2)
H94_3 H 0.2319 0.2884 0.9633
H26_3 H 0.9559 0.9885 0.0557
H67_3 H 0.5645 0.9989 0.4521
N15_3 N 0.2801(2) 0.89872(9) 0.51183(14)
C163_3 C 0.3028(3) 0.92223(12) 0.5108(2)
C164_3 C 0.3287(3) 0.88310(12) 0.5080(2)
N16_3 N 0.3645(2) 0.92245(9) 0.50620(16)
H122_3 H 0.2787 0.9369 0.5131
H123_3 H 0.3269 0.8653 0.5081
C165_3 C 0.3822(3) 0.89743(12) 0.5040(3)
C166_3 C 0.4041(4) 0.94489(14) 0.5040(3)
H124_3 H 0.4223 0.8913 0.5005
C167_3 C 0.4011(4) 0.96496(14) 0.5322(3)
C168_3 C 0.4481(4) 0.94431(14) 0.4797(3)
H125_3 H 0.3747 0.9640 0.5524
C169_3 C 0.4393(4) 0.98715(14) 0.5300(3)
H126_3 H 0.4544 0.9296 0.4643
C170_3 C 0.4851(5) 0.96656(15) 0.4778(4)
C171_3 C 0.4803(4) 0.98879(12) 0.5031(3)
H128_3 H 0.5139 0.9667 0.4592
C6_4 C 0.3051(3) 0.57895(12) 0.0143(2)
C7_4 C 0.2830(3) 0.58110(14) 0.0784(2)
N4_4 N 0.3434(3) 0.56162(10) 0.04161(16)
H4_4 H 0.2642 0.5865 0.1012
C12_4 C 0.3278(4) 0.56285(14) 0.0833(2)
C20_4 C 0.3916(4) 0.54446(14) 0.0304(2)
H6_4 H 0.3452 0.5530 0.1088
C30_4 C 0.4009(4) 0.52083(15) 0.0525(2)
C37_4 C 0.4465(4) 0.50397(12) 0.0403(2)
H22_4 H 0.3785 0.5164 0.0740
C39_4 C 0.4776(3) 0.50923(11) 0.0068(2)
H26_4 H 0.4559 0.4885 0.0557
C70_4 C 0.5525(4) 0.67207(14) 0.5097(2)
C71_4 C 0.5824(3) 0.63318(13) 0.5067(3)
C72_4 C 0.1972(3) 0.57777(12) 0.4892(2)
C73_4 C 0.1713(3) 0.61690(12) 0.4920(2)
N7_4 N 0.6140(3) 0.67230(10) 0.50578(19)
H51_4 H 0.5278 0.6866 0.5118
H52_4 H 0.5824 0.6154 0.5068
C75_4 C 0.6337(4) 0.64809(15) 0.5026(3)
N8_4 N 0.1355(2) 0.57755(9) 0.49380(16)
H53_4 H 0.2213 0.5631 0.4869
H54_4 H 0.1731 0.6347 0.4919
C76_4 C 0.1178(3) 0.60257(12) 0.4960(3)
C79_4 C 0.6539(4) 0.69516(15) 0.5042(3)
H55_4 H 0.6741 0.6426 0.4984
C80_4 C 0.0959(4) 0.55511(14) 0.4960(3)
H56_4 H 0.0777 0.6087 0.4995
C83_4 C 0.6948(5) 0.69437(19) 0.4786(4)
C84_4 C 0.6505(4) 0.71511(13) 0.5313(3)
C85_4 C 0.0989(4) 0.53504(14) 0.4678(3)
C86_4 C 0.0519(4) 0.55569(14) 0.5203(3)
H61_4 H 0.6996 0.6795 0.4630
C88_4 C 0.7311(6) 0.7159(2) 0.4750(5)
C89_4 C 0.6886(4) 0.73611(12) 0.5292(2)
H62_4 H 0.6231 0.7146 0.5508
H63_4 H 0.1253 0.5360 0.4476
C90_4 C 0.0607(4) 0.51285(14) 0.4700(3)
H64_4 H 0.0456 0.5704 0.5357
C91_4 C 0.0149(5) 0.53344(15) 0.5222(4)
H65_4 H 0.7567 0.7161 0.4543
C92_4 C 0.7303(5) 0.73656(18) 0.5005(4)
H66_4 H 0.6865 0.7503 0.5472
H67_4 H 0.0645 0.4989 0.4521
C93_4 C 0.0197(4) 0.51121(12) 0.4969(3)
H96_4 H 0.6945 0.4183 0.0156
C133_4 C 0.5831(5) 0.44963(16) 0.0046(3)
H99_4 H 0.5950 0.4347 0.0212
C135_4 C 0.5369(4) 0.46747(13) 0.0151(3)
H101_4 H 0.5159 0.4632 0.0374
N13_4 N 0.9691(2) 0.85175(9) 0.48954(15)
C154_4 C 0.9475(4) 0.82793(14) 0.4903(2)
C155_4 C 0.9176(3) 0.86682(13) 0.4933(3)
N14_4 N 0.8860(3) 0.82770(10) 0.49422(19)
H115_4 H 0.9722 0.8134 0.4882
H116_4 H 0.9176 0.8846 0.4932
C156_4 C 0.8663(4) 0.85191(15) 0.4974(3)
C157_4 C 0.8461(4) 0.80484(15) 0.4958(3)
H117_4 H 0.8259 0.8574 0.5016
C158_4 C 0.8052(5) 0.80563(19) 0.5214(4)
C159_4 C 0.8495(4) 0.78489(13) 0.4687(3)
H118_4 H 0.8004 0.8205 0.5370
C160_4 C 0.7689(6) 0.7841(2) 0.5250(5)
C161_4 C 0.8114(4) 0.76389(12) 0.4708(2)
H119_4 H 0.8769 0.7854 0.4492
H120_4 H 0.7433 0.7839 0.5457
C162_4 C 0.7697(5) 0.76344(18) 0.4995(4)
H121_4 H 0.8135 0.7497 0.4528
H128_4 H 0.0139 0.4667 0.4592
H3_4 H 0.3055 0.5817 0.9844
C29_4 C 0.4169(5) 0.55037(16) 0.9954(3)
H21_4 H 0.4050 0.5653 0.9788
C36_4 C 0.4631(4) 0.53253(13) 0.9849(3)
H25_4 H 0.4841 0.5368 0.9626
N11_4 N 0.7327(2) 0.40866(9) 0.96455(15)
C129_4 C 0.6949(3) 0.42105(12) 0.9857(2)
C130_4 C 0.7170(3) 0.41890(14) 0.9216(2)
N12_4 N 0.6566(3) 0.43838(10) 0.95839(16)
H97_4 H 0.7358 0.4135 0.8988
C131_4 C 0.6722(4) 0.43715(14) 0.9167(2)
C132_4 C 0.6084(4) 0.45554(14) 0.9696(2)
H98_4 H 0.6548 0.4470 0.8912
C134_4 C 0.5991(4) 0.47917(15) 0.9475(2)
C136_4 C 0.5535(4) 0.49603(12) 0.9597(2)
H100_4 H 0.6215 0.4836 0.9260
C137_4 C 0.5224(3) 0.49077(11) 0.9932(2)
H102_4 H 0.5441 0.5115 0.9443
H2_4 H 0.9451 0.6697 0.0120
C25_5 C 0.8293(4) 0.70006(14) -0.0000(3)
H17_4 H 0.8379 0.6842 0.0141
C33_4 C 0.7870(4) 0.71654(14) 0.0137(2)
H23_4 H 0.7681 0.7116 0.0367
H68_4 H 0.9861 0.5333 0.5408
N9_4 N 0.5205(2) 0.84134(9) 0.04065(15)
C120_4 C 0.5333(3) 0.83088(13) 0.08295(19)
C121_4 C 0.5568(3) 0.82824(13) 0.0184(2)
H89_4 H 0.5134 0.8358 0.1055
C122_4 C 0.5798(3) 0.81217(13) 0.08688(19)
N10_4 N 0.5966(2) 0.81169(10) 0.04599(16)
H91_4 H 0.5968 0.8019 0.1118
C123_4 C 0.6412(4) 0.79416(15) 0.0330(2)
C124_5 C 0.6707(4) 0.79994(14) -0.0000(3)
C125_4 C 0.6533(4) 0.77094(13) 0.0543(2)
C127_4 C 0.6967(4) 0.75461(16) 0.0409(3)
H93_4 H 0.6331 0.7663 0.0768
C128_4 C 0.7276(4) 0.76007(16) 0.0059(3)
H95_4 H 0.7063 0.7390 0.0559
N15_4 N 0.7801(2) 0.39872(9) 0.51183(14)
C163_4 C 0.8028(3) 0.42223(12) 0.5108(2)
C164_4 C 0.8287(3) 0.38310(12) 0.5080(2)
N16_4 N 0.8645(2) 0.42245(9) 0.50620(16)
H122_4 H 0.7787 0.4369 0.5131
H123_4 H 0.8269 0.3653 0.5081
C165_4 C 0.8822(3) 0.39743(12) 0.5040(3)
C166_4 C 0.9041(4) 0.44489(14) 0.5040(3)
H124_4 H 0.9223 0.3913 0.5005
C167_4 C 0.9011(4) 0.46496(14) 0.5322(3)
C168_4 C 0.9481(4) 0.44431(14) 0.4797(3)
H125_4 H 0.8747 0.4640 0.5524
C169_4 C 0.9393(4) 0.48715(14) 0.5300(3)
H126_4 H 0.9544 0.4296 0.4643
C170_4 C 0.9851(5) 0.46656(15) 0.4778(4)
H127_4 H 0.9355 0.5011 0.5479
C171_4 C 0.9803(4) 0.48879(12) 0.5031(3)
C3_4 C 0.9667(3) 0.66912(13) 0.91705(19)
C4_4 C 0.9432(3) 0.67176(13) 0.9816(2)
H1_4 H 0.9866 0.6642 0.8945
C10_4 C 0.9202(3) 0.68783(13) 0.91312(19)
N3_4 N 0.9034(2) 0.68831(10) 0.95401(16)
H5_4 H 0.9032 0.6981 0.8882
C17_4 C 0.8588(4) 0.70584(15) 0.9670(2)
C25_6 C 0.8293(4) 0.70006(14) 1.0000(3)
C26_4 C 0.8467(4) 0.72906(13) 0.9457(2)
C34_4 C 0.8033(4) 0.74539(16) 0.9591(3)
H18_4 H 0.8669 0.7337 0.9232
C38_4 C 0.7724(4) 0.73993(16) 0.9941(3)
H24_4 H 0.7937 0.7610 0.9441
H90_4 H 0.5549 0.8303 0.9880
C124_6 C 0.6707(4) 0.79994(14) 1.0000(3)
H92_4 H 0.6621 0.8158 0.9859
C126_4 C 0.7130(4) 0.78346(14) 0.9863(2)
H94_4 H 0.7319 0.7884 0.9633
C95_4 C 0.0000 0.01488(18) 0.2500
C99_3 C 0.0013(4) 0.07461(15) 0.3625(3)
H74_3 H 0.0456 0.0763 0.3629
H76_3 H 0.0048 0.0947 0.4189
H107_3 H 0.0643 0.0086 0.3123
C146_3 C 0.0509(4) 0.03094(12) 0.2343(2)
O34_3 O 0.0128(3) 0.04862(10) 0.20088(18)
H109_3 H 0.0786 0.0201 0.2210
H110_3 H 0.0787 0.0403 0.2593
C147_3 C 0.0417(4) 0.06027(14) 0.1714(2)
C148_3 C 0.1076(4) 0.05958(12) 0.1740(2)
H111_3 H 0.1361 0.0507 0.1973
C150_3 C 0.1318(4) 0.07210(12) 0.1418(2)
C151_3 C 0.0237(4) 0.08612(14) 0.1047(2)
H113_3 H 0.1769 0.0718 0.1439
C152_3 C 0.0900(4) 0.08515(14) 0.1064(2)
C153_3 C 0.1133(4) 0.09809(13) 0.0703(2)
C78_3 C 0.0114(4) 0.93349(13) 0.1142(2)
H58_3 H 0.0419 0.9224 0.1069
C82_3 C 0.0317(4) 0.95060(13) 0.1494(2)
H60_3 H 0.0757 0.9516 0.1655
O23_3 O 0.0080(3) 0.98213(9) 0.19711(14)
O31_3 O 0.0360(2) 0.89570(8) 0.45070(14)
O32_3 O 0.1353(3) 0.91365(8) 0.46964(14)
C138_3 C 0.0751(4) 0.91252(15) 0.4464(2)
C139_3 C 0.0539(4) 0.93284(12) 0.4104(2)
C140_3 C 0.0989(4) 0.94887(13) 0.4000(2)
C142_3 C 0.0830(4) 0.96579(13) 0.3633(2)
H103_3 H 0.1420 0.9486 0.4179
C144_3 C 0.0160(4) 0.96612(14) 0.3401(2)
H105_3 H 0.1144 0.9760 0.3550
C145_3 C 0.0395(4) 0.99807(13) 0.2877(2)
H108_3 H 0.0702 0.9874 0.2769
O37_3 O 0.3904(2) 0.83809(8) 0.96806(14)
O39_3 O 0.2904(2) 0.85629(8) 0.94694(13)
C172_3 C 0.3348(4) 0.83931(12) 0.9438(2)
C173_3 C 0.1635(4) 0.64923(14) 0.9348(2)
C174_3 C 0.3126(4) 0.81998(12) 0.9064(2)
C175_3 C 0.1841(3) 0.66289(13) 0.8977(2)
C176_3 C 0.3575(4) 0.80154(13) 0.8996(2)
C177_3 C 0.2490(4) 0.81974(14) 0.8787(2)
C178_3 C 0.2479(4) 0.66067(17) 0.8937(3)
C179_3 C 0.1419(4) 0.67644(14) 0.8661(2)
C180_3 C 0.3391(4) 0.78436(13) 0.8651(2)
H129_3 H 0.3999 0.8010 0.9185
H130_3 H 0.2181 0.8314 0.8840
C181_3 C 0.2308(4) 0.80285(13) 0.8439(2)
C182_3 C 0.2673(5) 0.67456(19) 0.8601(3)
H131_3 H 0.2778 0.6501 0.9131
C183_3 C 0.1603(4) 0.68917(16) 0.8322(3)
H132_3 H 0.0980 0.6773 0.8672
C184_3 C 0.2778(4) 0.78460(13) 0.8364(2)
H133_3 H 0.3695 0.7721 0.8611
H134_3 H 0.1882 0.8032 0.8251
C185_3 C 0.2240(4) 0.68885(14) 0.8294(2)
H135_3 H 0.3113 0.6739 0.8588
H136_3 H 0.1288 0.6981 0.8108
O41_3 O 0.2527(2) 0.76880(9) 0.80065(14)
O42_3 O 0.2509(3) 0.70093(9) 0.79970(15)
C186_3 C 0.2993(4) 0.75198(13) 0.7877(2)
C187_3 C 0.2116(4) 0.71796(12) 0.7685(2)
C188_3 C 0.2592(3) 0.73485(14) 0.74991(19)
H137_3 H 0.3317 0.7618 0.7770
H138_3 H 0.3223 0.7416 0.8131
H139_3 H 0.1824 0.7085 0.7443
H140_3 H 0.1850 0.7285 0.7832
C189_3 C 0.2182(3) 0.75034(12) 0.71112(19)
C190_3 C 0.3077(4) 0.71791(13) 0.7339(2)
O43_3 O 0.2631(3) 0.76640(8) 0.69566(15)
H141_3 H 0.1860 0.7606 0.7211
H142_3 H 0.1950 0.7391 0.6872
O44_3 O 0.2683(3) 0.70000(9) 0.70364(16)
H143_3 H 0.3368 0.7091 0.7591
H144_3 H 0.3344 0.7280 0.7186
C191_3 C 0.2343(4) 0.78206(12) 0.6592(2)
C192_3 C 0.2981(5) 0.68865(14) 0.6736(2)
C193_3 C 0.1692(3) 0.78290(12) 0.6349(2)
C194_3 C 0.2811(4) 0.79882(14) 0.6475(2)
C195_3 C 0.3634(4) 0.68919(16) 0.6732(2)
C196_3 C 0.2546(4) 0.67572(15) 0.6416(3)
C197_3 C 0.1504(4) 0.80007(12) 0.6009(2)
H145_3 H 0.1384 0.7718 0.6418
H146_3 H 0.3252 0.7982 0.6634
C198_3 C 0.2603(4) 0.81600(12) 0.6122(2)
H147_3 H 0.3939 0.6976 0.6960
C199_3 C 0.3840(4) 0.67731(14) 0.6391(2)
C200_3 C 0.2731(4) 0.66261(16) 0.6066(2)
H148_3 H 0.2106 0.6754 0.6426
C201_3 C 0.1927(4) 0.81759(13) 0.5897(2)
H149_3 H 0.1066 0.8000 0.5842
H150_3 H 0.2909 0.8264 0.6035
H151_3 H 0.4284 0.6779 0.6392
C202_3 C 0.3406(4) 0.66470(12) 0.6053(2)
H152_3 H 0.2429 0.6530 0.5854
C203_3 C 0.1686(4) 0.83735(11) 0.5538(2)
C204_3 C 0.3625(5) 0.65141(14) 0.5674(2)
O45_3 O 0.1105(2) 0.83640(8) 0.53215(13)
O46_3 O 0.2114(2) 0.85450(8) 0.55056(13)
O49 O 0.4610(2) 0.88374(8) 0.96521(13)
O54 O 0.3597(2) 0.90188(8) 0.94414(13)
C95_5 C 1.0000 0.01488(18) 0.2500
H69_3 H 0.9357 0.0086 0.1877
C96_3 C 0.9491(4) 0.03094(12) 0.2657(2)
O24_3 O 0.9872(3) 0.04862(10) 0.29912(18)
H71_3 H 0.9214 0.0201 0.2790
H72_3 H 0.9213 0.0403 0.2407
C97_3 C 0.9583(4) 0.06027(14) 0.3286(2)
C98_3 C 0.8924(4) 0.05958(12) 0.3260(2)
H73_3 H 0.8639 0.0507 0.3027
C100_3 C 0.8682(4) 0.07210(12) 0.3582(2)
C101_3 C 0.9763(4) 0.08612(14) 0.3953(2)
H75_3 H 0.8231 0.0718 0.3561
C102_3 C 0.9100(4) 0.08515(14) 0.3936(2)
C103_3 C 0.8867(4) 0.09809(13) 0.4297(2)
C149_3 C 0.9987(4) 0.07461(15) 0.1375(3)
H112_3 H 0.9544 0.0763 0.1371
H114_3 H 0.9952 0.0947 0.0811
O14_3 O 0.5033(3) 0.01606(9) 0.69904(15)
H38_3 H 0.4265 0.0092 0.7248
C50_3 C 0.4803(4) 0.03375(14) 0.6645(2)
C55_3 C 0.5258(4) 0.05135(14) 0.6594(2)
C56_3 C 0.4145(4) 0.03334(13) 0.6386(2)
C61_3 C 0.5032(4) 0.06935(13) 0.6241(2)
H43_3 H 0.5686 0.0516 0.6778
H44_3 H 0.3839 0.0218 0.6446
C62_3 C 0.3973(4) 0.05102(14) 0.6033(2)
C65_3 C 0.4398(4) 0.06934(13) 0.5966(2)
H49_3 H 0.5326 0.0818 0.6193
H50_3 H 0.3553 0.0502 0.5838
C68_3 C 0.4215(4) 0.08962(14) 0.5615(2)
O28_3 O 0.4967(3) 0.01606(9) 0.80096(15)
H84_3 H 0.5735 0.0092 0.7752
C113_3 C 0.5197(4) 0.03375(14) 0.8355(2)
C114_3 C 0.4742(4) 0.05135(14) 0.8406(2)
C115_3 C 0.5855(4) 0.03334(13) 0.8614(2)
C116_3 C 0.4968(4) 0.06935(13) 0.8759(2)
H85_3 H 0.4314 0.0516 0.8222
H86_3 H 0.6161 0.0218 0.8554
C117_3 C 0.6027(4) 0.05102(14) 0.8967(2)
C118_3 C 0.5602(4) 0.06934(13) 0.9034(2)
H87_3 H 0.4674 0.0818 0.8807
H88_3 H 0.6447 0.0502 0.9162
C119_3 C 0.5785(4) 0.08962(14) 0.9385(2)
O19_3 O 0.9640(2) 0.89570(8) 0.04930(14)
O21_3 O 0.8647(3) 0.91365(8) 0.03036(14)
C69_3 C 0.9249(4) 0.91252(15) 0.0536(2)
C74_3 C 0.9461(4) 0.93284(12) 0.0896(2)
C77_3 C 0.9011(4) 0.94887(13) 0.1000(2)
C81_3 C 0.9170(4) 0.96579(13) 0.1367(2)
H57_3 H 0.8580 0.9486 0.0821
C87_3 C 0.9840(4) 0.96612(14) 0.1599(2)
H59_3 H 0.8856 0.9760 0.1450
C94_3 C 0.9605(4) 0.99807(13) 0.2123(2)
H70_3 H 0.9298 0.9874 0.2231
C141_3 C 0.9886(4) 0.93349(13) 0.3858(2)
H104_3 H 0.9581 0.9224 0.3931
C143_3 C 0.9683(4) 0.95060(13) 0.3506(2)
H106_3 H 0.9243 0.9516 0.3345
O33_3 O 0.9920(3) 0.98213(9) 0.30289(14)
O1_3 O 0.6096(2) 0.83809(8) 0.53194(14)
O2_3 O 0.5390(2) 0.88374(8) 0.53479(13)
O5_3 O 0.7096(2) 0.85629(8) 0.55306(13)
O6_3 O 0.6403(2) 0.90188(8) 0.55586(13)
C1_3 C 0.6652(4) 0.83931(12) 0.5562(2)
C2_3 C 0.5819(4) 0.89816(12) 0.5606(2)
C5_3 C 0.8365(4) 0.64923(14) 0.5652(2)
C8_3 C 0.6874(4) 0.81998(12) 0.5936(2)
C9_3 C 0.5637(4) 0.91164(11) 0.5985(2)
C11_3 C 0.8159(3) 0.66289(13) 0.6023(2)
C13_3 C 0.6425(4) 0.80154(13) 0.6004(2)
C14_3 C 0.7510(4) 0.81974(14) 0.6213(2)
C15_3 C 0.6113(4) 0.92633(13) 0.6288(2)
C16_3 C 0.5015(4) 0.90940(16) 0.6036(3)
C18_3 C 0.7521(4) 0.66067(17) 0.6063(3)
C19_3 C 0.8581(4) 0.67644(14) 0.6339(2)
C21_3 C 0.6609(4) 0.78436(13) 0.6349(2)
H7_3 H 0.6001 0.8010 0.5815
H8_3 H 0.7819 0.8314 0.6160
C22_3 C 0.7692(4) 0.80285(13) 0.6561(2)
H9_3 H 0.6536 0.9276 0.6245
C23_3 C 0.5964(4) 0.93890(13) 0.6648(2)
H10_3 H 0.4703 0.8997 0.5833
C24_3 C 0.4844(4) 0.92170(16) 0.6391(3)
C27_3 C 0.7327(5) 0.67456(19) 0.6399(3)
H11_3 H 0.7222 0.6501 0.5869
C28_3 C 0.8397(4) 0.68917(16) 0.6678(3)
H12_3 H 0.9020 0.6773 0.6328
C31_3 C 0.7222(4) 0.78460(13) 0.6636(2)
H13_3 H 0.6305 0.7721 0.6389
H14_3 H 0.8118 0.8032 0.6749
C32_3 C 0.5323(5) 0.93707(14) 0.6687(2)
H15_3 H 0.6283 0.9482 0.6854
H16_3 H 0.4423 0.9199 0.6435
C35_3 C 0.7760(4) 0.68885(14) 0.6706(2)
H19_3 H 0.6887 0.6739 0.6412
H20_3 H 0.8712 0.6981 0.6892
O9_3 O 0.7473(2) 0.76880(9) 0.69935(14)
O10_3 O 0.5075(3) 0.94795(9) 0.70156(16)
O11_3 O 0.7491(3) 0.70093(9) 0.70030(15)
C40_3 C 0.7007(4) 0.75198(13) 0.7123(2)
C41_3 C 0.5477(4) 0.96662(12) 0.7315(2)
C42_3 C 0.7884(4) 0.71796(12) 0.7315(2)
C43_3 C 0.7408(3) 0.73485(14) 0.75009(19)
H27_3 H 0.6683 0.7618 0.7230
H28_3 H 0.6777 0.7416 0.6869
C44_4 C 0.5000 0.98247(18) 0.7500
H29_3 H 0.5715 0.9774 0.7151
H30_3 H 0.5794 0.9581 0.7557
H31_3 H 0.8176 0.7085 0.7557
H32_3 H 0.8150 0.7285 0.7168
C45_3 C 0.7818(3) 0.75034(12) 0.78888(19)
C46_3 C 0.6923(4) 0.71791(13) 0.7661(2)
C47_3 C 0.4579(4) 0.99939(13) 0.7132(2)
O12_3 O 0.7369(3) 0.76640(8) 0.80434(15)
H33_3 H 0.8140 0.7606 0.7789
H34_3 H 0.8050 0.7391 0.8128
O13_3 O 0.7317(3) 0.70000(9) 0.79636(16)
H35_3 H 0.6632 0.7091 0.7409
H36_3 H 0.6656 0.7280 0.7814
H37_3 H 0.4337 0.9890 0.6882
C48_3 C 0.7657(4) 0.78206(12) 0.8408(2)
C49_3 C 0.7019(5) 0.68865(14) 0.8264(2)
C51_3 C 0.8308(3) 0.78290(12) 0.8651(2)
C52_3 C 0.7189(4) 0.79882(14) 0.8525(2)
C53_3 C 0.6366(4) 0.68919(16) 0.8268(2)
C54_3 C 0.7454(4) 0.67572(15) 0.8584(3)
C57_3 C 0.8496(4) 0.80007(12) 0.8991(2)
H39_3 H 0.8616 0.7718 0.8582
H40_3 H 0.6748 0.7982 0.8366
C58_3 C 0.7397(4) 0.81600(12) 0.8878(2)
H41_3 H 0.6061 0.6976 0.8040
C59_3 C 0.6160(4) 0.67731(14) 0.8609(2)
C60_3 C 0.7269(4) 0.66261(16) 0.8934(2)
H42_3 H 0.7894 0.6754 0.8574
C63_3 C 0.8073(4) 0.81759(13) 0.9103(2)
H45_3 H 0.8934 0.8000 0.9158
H46_3 H 0.7091 0.8264 0.8965
H47_3 H 0.5716 0.6779 0.8608
C64_3 C 0.6594(4) 0.66470(12) 0.8947(2)
H48_3 H 0.7571 0.6530 0.9146
C66_3 C 0.8314(4) 0.83735(11) 0.9462(2)
C67_3 C 0.6375(5) 0.65141(14) 0.9326(2)
O15_3 O 0.8895(2) 0.83640(8) 0.96785(13)
O16_3 O 0.7886(2) 0.85450(8) 0.94944(13)
C104_3 C 0.4181(4) 0.89816(12) 0.9394(2)
C105_3 C 0.4363(4) 0.91164(11) 0.9015(2)
C106_3 C 0.3887(4) 0.92633(13) 0.8712(2)
C107_3 C 0.4985(4) 0.90940(16) 0.8964(3)
H77_3 H 0.3464 0.9276 0.8755
C108_3 C 0.4036(4) 0.93890(13) 0.8352(2)
H78_3 H 0.5297 0.8997 0.9167
C109_3 C 0.5156(4) 0.92170(16) 0.8609(3)
C110_3 C 0.4677(5) 0.93707(14) 0.8313(2)
H79_3 H 0.3717 0.9482 0.8146
H80_3 H 0.5577 0.9199 0.8565
O27_3 O 0.4925(3) 0.94795(9) 0.79844(16)
C111_3 C 0.4523(4) 0.96662(12) 0.7685(2)
H81_3 H 0.4285 0.9774 0.7849
H82_3 H 0.4206 0.9581 0.7443
C112_3 C 0.5421(4) 0.99939(13) 0.7868(2)
H83_3 H 0.5663 0.9890 0.8118
O19_4 O 0.4640(2) 0.39570(8) 0.04930(14)
O21_4 O 0.3647(3) 0.41365(8) 0.03036(14)
C69_4 C 0.4249(4) 0.41252(15) 0.0536(2)
C74_4 C 0.4461(4) 0.43284(12) 0.0896(2)
C77_4 C 0.4011(4) 0.44887(13) 0.1000(2)
C78_4 C 0.5114(4) 0.43349(13) 0.1142(2)
C81_4 C 0.4170(4) 0.46579(13) 0.1367(2)
H57_4 H 0.3580 0.4486 0.0821
H58_4 H 0.5419 0.4224 0.1069
C82_4 C 0.5317(4) 0.45060(13) 0.1494(2)
C87_4 C 0.4840(4) 0.46612(14) 0.1599(2)
H59_4 H 0.3856 0.4760 0.1450
H60_4 H 0.5757 0.4516 0.1655
O23_4 O 0.5080(3) 0.48213(9) 0.19711(14)
C94_4 C 0.4605(4) 0.49807(13) 0.2123(2)
C95_6 C 0.5000 0.51488(18) 0.2500
H69_4 H 0.4357 0.5086 0.1877
H70_4 H 0.4298 0.4874 0.2231
C96_4 C 0.4491(4) 0.53094(12) 0.2657(2)
O24_4 O 0.4872(3) 0.54862(10) 0.29912(18)
H71_4 H 0.4214 0.5201 0.2790
H72_4 H 0.4213 0.5403 0.2407
C97_4 C 0.4583(4) 0.56027(14) 0.3286(2)
C98_4 C 0.3924(4) 0.55958(12) 0.3260(2)
C99_4 C 0.5013(4) 0.57461(15) 0.3625(3)
H73_4 H 0.3639 0.5507 0.3027
C100_4 C 0.3682(4) 0.57210(12) 0.3582(2)
C101_4 C 0.4763(4) 0.58612(14) 0.3953(2)
H74_4 H 0.5456 0.5763 0.3629
H75_4 H 0.3231 0.5718 0.3561
C102_4 C 0.4100(4) 0.58515(14) 0.3936(2)
H76_4 H 0.5048 0.5947 0.4189
C103_4 C 0.3867(4) 0.59809(13) 0.4297(2)
O31_4 O 0.5360(2) 0.39570(8) 0.45070(14)
O32_4 O 0.6353(3) 0.41365(8) 0.46964(14)
C138_4 C 0.5751(4) 0.41252(15) 0.4464(2)
C139_4 C 0.5539(4) 0.43284(12) 0.4104(2)
C140_4 C 0.5989(4) 0.44887(13) 0.4000(2)
C141_4 C 0.4886(4) 0.43349(13) 0.3858(2)
C142_4 C 0.5830(4) 0.46579(13) 0.3633(2)
H103_4 H 0.6420 0.4486 0.4179
H104_4 H 0.4581 0.4224 0.3931
C143_4 C 0.4683(4) 0.45060(13) 0.3506(2)
C144_4 C 0.5160(4) 0.46612(14) 0.3401(2)
H105_4 H 0.6144 0.4760 0.3550
H106_4 H 0.4243 0.4516 0.3345
O33_4 O 0.4920(3) 0.48213(9) 0.30289(14)
C145_4 C 0.5395(4) 0.49807(13) 0.2877(2)
H107_4 H 0.5643 0.5086 0.3123
H108_4 H 0.5702 0.4874 0.2769
C146_4 C 0.5509(4) 0.53094(12) 0.2343(2)
O34_4 O 0.5128(3) 0.54862(10) 0.20088(18)
H109_4 H 0.5786 0.5201 0.2210
H110_4 H 0.5787 0.5403 0.2593
C147_4 C 0.5417(4) 0.56027(14) 0.1714(2)
C148_4 C 0.6076(4) 0.55958(12) 0.1740(2)
C149_4 C 0.4987(4) 0.57461(15) 0.1375(3)
H111_4 H 0.6361 0.5507 0.1973
C150_4 C 0.6318(4) 0.57210(12) 0.1418(2)
C151_4 C 0.5237(4) 0.58612(14) 0.1047(2)
H112_4 H 0.4544 0.5763 0.1371
H113_4 H 0.6769 0.5718 0.1439
C152_4 C 0.5900(4) 0.58515(14) 0.1064(2)
H114_4 H 0.4952 0.5947 0.0811
C153_4 C 0.6133(4) 0.59809(13) 0.0703(2)
O37_4 O 0.8904(2) 0.33809(8) 0.96806(14)
O39_4 O 0.7904(2) 0.35629(8) 0.94694(13)
C172_4 C 0.8348(4) 0.33931(12) 0.9438(2)
C173_4 C 0.6635(4) 0.14923(14) 0.9348(2)
C174_4 C 0.8126(4) 0.31998(12) 0.9064(2)
C175_4 C 0.6841(3) 0.16289(13) 0.8977(2)
C176_4 C 0.8575(4) 0.30154(13) 0.8996(2)
C177_4 C 0.7490(4) 0.31974(14) 0.8787(2)
C178_4 C 0.7479(4) 0.16067(17) 0.8937(3)
C179_4 C 0.6419(4) 0.17644(14) 0.8661(2)
C180_4 C 0.8391(4) 0.28436(13) 0.8651(2)
H129_4 H 0.8999 0.3010 0.9185
H130_4 H 0.7181 0.3314 0.8840
C181_4 C 0.7308(4) 0.30285(13) 0.8439(2)
C182_4 C 0.7673(5) 0.17456(19) 0.8601(3)
H131_4 H 0.7778 0.1501 0.9131
C183_4 C 0.6603(4) 0.18917(16) 0.8322(3)
H132_4 H 0.5980 0.1773 0.8672
C184_4 C 0.7778(4) 0.28460(13) 0.8364(2)
H133_4 H 0.8695 0.2721 0.8611
H134_4 H 0.6882 0.3032 0.8251
C185_4 C 0.7240(4) 0.18885(14) 0.8294(2)
H135_4 H 0.8113 0.1739 0.8588
H136_4 H 0.6288 0.1981 0.8108
O41_4 O 0.7527(2) 0.26880(9) 0.80065(14)
O42_4 O 0.7509(3) 0.20093(9) 0.79970(15)
C186_4 C 0.7993(4) 0.25198(13) 0.7877(2)
C187_4 C 0.7116(4) 0.21796(12) 0.7685(2)
C188_4 C 0.7592(3) 0.23485(14) 0.74991(19)
H137_4 H 0.8317 0.2618 0.7770
H138_4 H 0.8223 0.2416 0.8131
H139_4 H 0.6824 0.2085 0.7443
H140_4 H 0.6850 0.2285 0.7832
C189_4 C 0.7182(3) 0.25034(12) 0.71112(19)
C190_4 C 0.8077(4) 0.21791(13) 0.7339(2)
O43_4 O 0.7631(3) 0.26640(8) 0.69566(15)
H141_4 H 0.6860 0.2606 0.7211
H142_4 H 0.6950 0.2391 0.6872
O44_4 O 0.7683(3) 0.20000(9) 0.70364(16)
H143_4 H 0.8368 0.2091 0.7591
H144_4 H 0.8344 0.2280 0.7186
C191_4 C 0.7343(4) 0.28206(12) 0.6592(2)
C192_4 C 0.7981(5) 0.18865(14) 0.6736(2)
C193_4 C 0.6692(3) 0.28290(12) 0.6349(2)
C194_4 C 0.7811(4) 0.29882(14) 0.6475(2)
C195_4 C 0.8634(4) 0.18919(16) 0.6732(2)
C196_4 C 0.7546(4) 0.17572(15) 0.6416(3)
C197_4 C 0.6504(4) 0.30007(12) 0.6009(2)
H145_4 H 0.6384 0.2718 0.6418
H146_4 H 0.8252 0.2982 0.6634
C198_4 C 0.7603(4) 0.31600(12) 0.6122(2)
H147_4 H 0.8939 0.1976 0.6960
C199_4 C 0.8840(4) 0.17731(14) 0.6391(2)
C200_4 C 0.7731(4) 0.16261(16) 0.6066(2)
H148_4 H 0.7106 0.1754 0.6426
C201_4 C 0.6927(4) 0.31759(13) 0.5897(2)
H149_4 H 0.6066 0.3000 0.5842
H150_4 H 0.7909 0.3264 0.6035
H151_4 H 0.9284 0.1779 0.6392
C202_4 C 0.8406(4) 0.16470(12) 0.6053(2)
H152_4 H 0.7429 0.1530 0.5854
C203_4 C 0.6686(4) 0.33735(11) 0.5538(2)
C204_4 C 0.8625(5) 0.15141(14) 0.5674(2)
O45_4 O 0.6105(2) 0.33640(8) 0.53215(13)
O46_4 O 0.7114(2) 0.35450(8) 0.55056(13)
O49_2 O 0.9610(2) 0.38374(8) 0.96521(13)
O54_2 O 0.8597(2) 0.40188(8) 0.94414(13)
O1_4 O 0.1096(2) 0.33809(8) 0.53194(14)
O2_4 O 0.0390(2) 0.38374(8) 0.53479(13)
O5_4 O 0.2096(2) 0.35629(8) 0.55306(13)
O6_4 O 0.1403(2) 0.40188(8) 0.55586(13)
C1_4 C 0.1652(4) 0.33931(12) 0.5562(2)
C2_4 C 0.0819(4) 0.39816(12) 0.5606(2)
C5_4 C 0.3365(4) 0.14923(14) 0.5652(2)
C8_4 C 0.1874(4) 0.31998(12) 0.5936(2)
C9_4 C 0.0637(4) 0.41164(11) 0.5985(2)
C11_4 C 0.3159(3) 0.16289(13) 0.6023(2)
C13_4 C 0.1425(4) 0.30154(13) 0.6004(2)
C14_4 C 0.2510(4) 0.31974(14) 0.6213(2)
C15_4 C 0.1113(4) 0.42633(13) 0.6288(2)
C16_4 C 0.0015(4) 0.40940(16) 0.6036(3)
C18_4 C 0.2521(4) 0.16067(17) 0.6063(3)
C19_4 C 0.3581(4) 0.17644(14) 0.6339(2)
C21_4 C 0.1609(4) 0.28436(13) 0.6349(2)
H7_4 H 0.1001 0.3010 0.5815
H8_4 H 0.2819 0.3314 0.6160
C22_4 C 0.2692(4) 0.30285(13) 0.6561(2)
H9_4 H 0.1536 0.4276 0.6245
C23_4 C 0.0964(4) 0.43890(13) 0.6648(2)
C27_4 C 0.2327(5) 0.17456(19) 0.6399(3)
H11_4 H 0.2222 0.1501 0.5869
C28_4 C 0.3397(4) 0.18917(16) 0.6678(3)
H12_4 H 0.4020 0.1773 0.6328
C31_4 C 0.2222(4) 0.28460(13) 0.6636(2)
H13_4 H 0.1305 0.2721 0.6389
H14_4 H 0.3118 0.3032 0.6749
C32_4 C 0.0323(5) 0.43707(14) 0.6687(2)
H15_4 H 0.1283 0.4482 0.6854
C35_4 C 0.2760(4) 0.18885(14) 0.6706(2)
H19_4 H 0.1887 0.1739 0.6412
H20_4 H 0.3712 0.1981 0.6892
O9_4 O 0.2473(2) 0.26880(9) 0.69935(14)
O10_4 O 0.0075(3) 0.44795(9) 0.70156(16)
O11_4 O 0.2491(3) 0.20093(9) 0.70030(15)
C40_4 C 0.2007(4) 0.25198(13) 0.7123(2)
C41_4 C 0.0477(4) 0.46662(12) 0.7315(2)
C42_4 C 0.2884(4) 0.21796(12) 0.7315(2)
C43_4 C 0.2408(3) 0.23485(14) 0.75009(19)
H27_4 H 0.1683 0.2618 0.7230
H28_4 H 0.1777 0.2416 0.6869
C44_5 C 0.0000 0.48247(18) 0.7500
H29_4 H 0.0715 0.4774 0.7151
H30_4 H 0.0794 0.4581 0.7557
H31_4 H 0.3176 0.2085 0.7557
H32_4 H 0.3150 0.2285 0.7168
C45_4 C 0.2818(3) 0.25034(12) 0.78888(19)
C46_4 C 0.1923(4) 0.21791(13) 0.7661(2)
O12_4 O 0.2369(3) 0.26640(8) 0.80434(15)
H33_4 H 0.3140 0.2606 0.7789
H34_4 H 0.3050 0.2391 0.8128
O13_4 O 0.2317(3) 0.20000(9) 0.79636(16)
H35_4 H 0.1632 0.2091 0.7409
H36_4 H 0.1656 0.2280 0.7814
O14_4 O 0.0033(3) 0.51606(9) 0.69904(15)
C48_4 C 0.2657(4) 0.28206(12) 0.8408(2)
C49_4 C 0.2019(5) 0.18865(14) 0.8264(2)
C51_4 C 0.3308(3) 0.28290(12) 0.8651(2)
C52_4 C 0.2189(4) 0.29882(14) 0.8525(2)
C53_4 C 0.1366(4) 0.18919(16) 0.8268(2)
C54_4 C 0.2454(4) 0.17572(15) 0.8584(3)
C55_4 C 0.0258(4) 0.55135(14) 0.6594(2)
C57_4 C 0.3496(4) 0.30007(12) 0.8991(2)
H39_4 H 0.3616 0.2718 0.8582
H40_4 H 0.1748 0.2982 0.8366
C58_4 C 0.2397(4) 0.31600(12) 0.8878(2)
H41_4 H 0.1061 0.1976 0.8040
C59_4 C 0.1160(4) 0.17731(14) 0.8609(2)
C60_4 C 0.2269(4) 0.16261(16) 0.8934(2)
H42_4 H 0.2894 0.1754 0.8574
C61_4 C 0.0032(4) 0.56935(13) 0.6241(2)
H43_4 H 0.0686 0.5516 0.6778
C63_4 C 0.3073(4) 0.31759(13) 0.9103(2)
H45_4 H 0.3934 0.3000 0.9158
H46_4 H 0.2091 0.3264 0.8965
H47_4 H 0.0716 0.1779 0.8608
C64_4 C 0.1594(4) 0.16470(12) 0.8947(2)
H48_4 H 0.2571 0.1530 0.9146
H49_4 H 0.0326 0.5818 0.6193
C66_4 C 0.3314(4) 0.33735(11) 0.9462(2)
C67_4 C 0.1375(5) 0.15141(14) 0.9326(2)
O15_4 O 0.3895(2) 0.33640(8) 0.96785(13)
O16_4 O 0.2886(2) 0.35450(8) 0.94944(13)
H78_4 H 0.0297 0.3997 0.9167
C109_4 C 0.0156(4) 0.42170(16) 0.8609(3)
H80_4 H 0.0577 0.4199 0.8565
C112_4 C 0.0421(4) 0.49939(13) 0.7868(2)
H83_4 H 0.0663 0.4890 0.8118
H84_4 H 0.0735 0.5092 0.7752
C113_4 C 0.0197(4) 0.53375(14) 0.8355(2)
C115_4 C 0.0855(4) 0.53334(13) 0.8614(2)
H86_4 H 0.1161 0.5218 0.8554
C117_4 C 0.1027(4) 0.55102(14) 0.8967(2)
C118_4 C 0.0602(4) 0.56934(13) 0.9034(2)
H88_4 H 0.1447 0.5502 0.9162
C119_4 C 0.0785(4) 0.58962(14) 0.9385(2)
H10_4 H 0.9703 0.3997 0.5833
C24_4 C 0.9844(4) 0.42170(16) 0.6391(3)
H16_4 H 0.9423 0.4199 0.6435
C44_6 C 1.0000 0.48247(18) 0.7500
C47_4 C 0.9579(4) 0.49939(13) 0.7132(2)
H37_4 H 0.9337 0.4890 0.6882
H38_4 H 0.9265 0.5092 0.7248
C50_4 C 0.9803(4) 0.53375(14) 0.6645(2)
C56_4 C 0.9145(4) 0.53334(13) 0.6386(2)
H44_4 H 0.8839 0.5218 0.6446
C62_4 C 0.8973(4) 0.55102(14) 0.6033(2)
C65_4 C 0.9398(4) 0.56934(13) 0.5966(2)
H50_4 H 0.8553 0.5502 0.5838
C68_4 C 0.9215(4) 0.58962(14) 0.5615(2)
C104_4 C 0.9181(4) 0.39816(12) 0.9394(2)
C105_4 C 0.9363(4) 0.41164(11) 0.9015(2)
C106_4 C 0.8887(4) 0.42633(13) 0.8712(2)
C107_4 C 0.9985(4) 0.40940(16) 0.8964(3)
H77_4 H 0.8464 0.4276 0.8755
C108_4 C 0.9036(4) 0.43890(13) 0.8352(2)
C110_4 C 0.9677(5) 0.43707(14) 0.8313(2)
H79_4 H 0.8717 0.4482 0.8146
O27_4 O 0.9925(3) 0.44795(9) 0.79844(16)
C111_4 C 0.9523(4) 0.46662(12) 0.7685(2)
H81_4 H 0.9285 0.4774 0.7849
H82_4 H 0.9206 0.4581 0.7443
O28_4 O 0.9967(3) 0.51606(9) 0.80096(15)
C114_4 C 0.9742(4) 0.55135(14) 0.8406(2)
C116_4 C 0.9968(4) 0.56935(13) 0.8759(2)
H85_4 H 0.9314 0.5516 0.8222
H87_4 H 0.9674 0.5818 0.8807
loop_
_geom_bond_atom_site_label_1
_geom_bond_atom_site_label_2
_geom_bond_site_symmetry_1
_geom_bond_site_symmetry_2
Co1 O1 1_555 1_555
Co2 O5 1_555 1_555
O1 C1 1_555 1_555
O2 Co1 1_555 1_555
N1 Co1 1_555 1_555
O3 C5 1_555 1_555
O5 C1 1_555 1_555
O6 Co2 1_555 1_555
N2 Co2 1_555 1_555
O7 C5 1_555 1_555
C1 C8 1_555 1_555
C2 O2 1_555 1_555
C3 N1 1_555 1_555
C4 N1 1_555 1_555
C5 C11 1_555 1_555
C6 N2 1_555 1_555
C7 N2 1_555 1_555
C8 C13 1_555 1_555
C9 C2 1_555 1_555
H1 C3 1_555 1_555
C10 C3 1_555 1_555
N3 C4 1_555 1_555
H2 C4 1_555 1_555
C11 C18 1_555 1_555
N4 C6 1_555 1_555
H3 C6 1_555 1_555
H4 C7 1_555 1_555
C12 C7 1_555 1_555
C13 C21 1_555 1_555
C14 C8 1_555 1_555
C15 C9 1_555 1_555
C16 C9 1_555 1_555
H5 C10 1_555 1_555
C17 N3 1_555 1_555
C18 C27 1_555 1_555
C19 C11 1_555 1_555
C20 N4 1_555 1_555
H6 C12 1_555 1_555
C21 C31 1_555 1_555
H7 C13 1_555 1_555
H8 C14 1_555 1_555
C22 C14 1_555 1_555
H9 C15 1_555 1_555
C23 C15 1_555 1_555
H10 C16 1_555 1_555
C24 C16 1_555 1_555
C25 C17 1_555 1_555
C26 C17 1_555 1_555
C27 C35 1_555 1_555
H11 C18 1_555 1_555
C28 C19 1_555 1_555
H12 C19 1_555 1_555
C29 C20 1_555 1_555
C30 C20 1_555 1_555
C31 C22 1_555 1_555
H13 C21 1_555 1_555
H14 C22 1_555 1_555
C32 C23 1_555 1_555
H15 C23 1_555 1_555
H16 C24 1_555 1_555
H17 C25 1_555 1_555
C33 C25 1_555 1_555
C34 C26 1_555 1_555
H18 C26 1_555 1_555
C35 C28 1_555 1_555
H19 C27 1_555 1_555
H20 C28 1_555 1_555
H21 C29 1_555 1_555
C36 C29 1_555 1_555
C37 C30 1_555 1_555
H22 C30 1_555 1_555
O9 C31 1_555 1_555
O10 C32 1_555 1_555
H23 C33 1_555 1_555
C38 C33 1_555 1_555
H24 C34 1_555 1_555
O11 C35 1_555 1_555
H25 C36 1_555 1_555
C39 C36 1_555 1_555
C40 O9 1_555 1_555
C41 O10 1_555 1_555
C42 O11 1_555 1_555
C43 C40 1_555 1_555
H27 C40 1_555 1_555
H28 C40 1_555 1_555
C44 C41 1_555 1_555
H29 C41 1_555 1_555
H30 C41 1_555 1_555
H31 C42 1_555 1_555
H32 C42 1_555 1_555
C45 C43 1_555 1_555
C46 C43 1_555 1_555
C47 C44 1_555 1_555
O12 C45 1_555 1_555
H33 C45 1_555 1_555
H34 C45 1_555 1_555
O13 C46 1_555 1_555
H35 C46 1_555 1_555
H36 C46 1_555 1_555
H37 C47 1_555 1_555
C48 O12 1_555 1_555
C49 O13 1_555 1_555
C51 C48 1_555 1_555
C52 C48 1_555 1_555
C53 C49 1_555 1_555
C54 C49 1_555 1_555
C57 C51 1_555 1_555
H39 C51 1_555 1_555
H40 C52 1_555 1_555
C58 C52 1_555 1_555
H41 C53 1_555 1_555
C59 C53 1_555 1_555
C60 C54 1_555 1_555
H42 C54 1_555 1_555
C63 C57 1_555 1_555
H45 C57 1_555 1_555
H46 C58 1_555 1_555
H47 C59 1_555 1_555
C64 C59 1_555 1_555
H48 C60 1_555 1_555
C66 C63 1_555 1_555
C67 C64 1_555 1_555
O15 C66 1_555 1_555
O16 C66 1_555 1_555
O17 C67 1_555 1_555
O18 C67 1_555 1_555
Co4 O16 1_555 1_555
N6 Co4 1_555 1_555
C72 N6 1_555 1_555
C73 N6 1_555 1_555
N8 C72 1_555 1_555
H53 C72 1_555 1_555
H54 C73 1_555 1_555
C76 C73 1_555 1_555
C80 N8 1_555 1_555
H56 C76 1_555 1_555
C85 C80 1_555 1_555
H63 C85 1_555 1_555
C90 C85 1_555 1_555
C93 C90 1_555 1_555
O25 C104 1_555 1_555
O26 C104 1_555 1_555
C104 C105 1_555 1_555
C105 C106 1_555 1_555
C106 H77 1_555 1_555
C107 C105 1_555 1_555
C108 C106 1_555 1_555
H78 C107 1_555 1_555
C109 C107 1_555 1_555
C110 C108 1_555 1_555
H79 C108 1_555 1_555
H80 C109 1_555 1_555
O27 C110 1_555 1_555
C111 C44 1_555 1_555
H81 C111 1_555 1_555
H82 C111 1_555 1_555
C112 C44 1_555 1_555
H83 C112 1_555 1_555
N9 C120 1_555 1_555
C120 H89 1_555 1_555
C121 N9 1_555 1_555
C122 C120 1_555 1_555
N10 C121 1_555 1_555
H90 C121 1_555 1_555
H91 C122 1_555 1_555
C123 N10 1_555 1_555
C124 C123 1_555 1_555
C125 C123 1_555 1_555
H92 C124 1_555 1_555
C126 C124 1_555 1_555
C127 C125 1_555 1_555
H93 C125 1_555 1_555
H94 C126 1_555 1_555
C128 C38 1_555 1_555
H95 C127 1_555 1_555
Co12 O3 1_555 1_555
Co15 O26 1_555 1_555
Co18 O7 1_555 1_555
O50 Co1 1_555 1_555
O52 Co1 1_555 1_555
O55 Co2 1_555 1_555
O57 Co2 1_555 1_555
Co23 O17 1_555 1_555
O66 Co4 1_555 1_555
O6 C2 1_555 1_555
C10 N3 1_555 1_555
N4 C12 1_555 1_555
C24 C32 1_555 1_555
C34 C38 1_555 1_555
C37 C39 1_555 1_555
C42 C43 1_555 1_555
C58 C63 1_555 1_555
C60 C64 1_555 1_555
N8 C76 1_555 1_555
C109 C110 1_555 1_555
O27 C111 1_555 1_555
C122 N10 1_555 1_555
C126 C128 1_555 1_555
C127 C128 1_555 1_555
O19 Co3 1_555 1_555
C69 O19 1_555 1_555
C74 C69 1_555 1_555
C77 C74 1_555 1_555
C81 C77 1_555 1_555
H57 C77 1_555 1_555
C87 C81 1_555 1_555
H59 C81 1_555 1_555
H64 C86 1_555 1_555
C91 C86 1_555 1_555
H68 C91 1_555 1_555
H70 C94 1_555 1_555
H104 C141 1_555 1_555
C143 C141 1_555 1_555
H106 C143 1_555 1_555
O59 Co3 1_555 1_555
O21 C69 1_555 1_555
O4 C68 1_555 1_555
O8 C68 1_555 1_555
C50 O14 1_555 1_555
C55 C50 1_555 1_555
C56 C50 1_555 1_555
C61 C55 1_555 1_555
H43 C55 1_555 1_555
H44 C56 1_555 1_555
C62 C56 1_555 1_555
C65 C61 1_555 1_555
H49 C61 1_555 1_555
H50 C62 1_555 1_555
C68 C65 1_555 1_555
C113 O28 1_555 1_555
C114 C113 1_555 1_555
C115 C113 1_555 1_555
C116 C114 1_555 1_555
H85 C114 1_555 1_555
H86 C115 1_555 1_555
C117 C115 1_555 1_555
C118 C116 1_555 1_555
H87 C116 1_555 1_555
H88 C117 1_555 1_555
C119 C118 1_555 1_555
O29 C119 1_555 1_555
O30 C119 1_555 1_555
H126 C168 1_555 1_555
C170 C168 1_555 1_555
H128 C170 1_555 1_555
Co10 O4 1_555 1_555
Co13 O29 1_555 1_555
Co17 O8 1_555 1_555
C62 C65 1_555 1_555
C117 C118 1_555 1_555
O20 C103 1_555 1_555
O22 C103 1_555 1_555
C96 C95 1_555 1_555
O24 C96 1_555 1_555
H71 C96 1_555 1_555
H72 C96 1_555 1_555
C97 O24 1_555 1_555
C98 C97 1_555 1_555
H73 C98 1_555 1_555
C100 C98 1_555 1_555
H75 C100 1_555 1_555
C102 C100 1_555 1_555
C103 C102 1_555 1_555
H112 C149 1_555 1_555
N15 C163 1_555 1_555
C163 N16 1_555 1_555
C164 N15 1_555 1_555
N16 C165 1_555 1_555
H122 C163 1_555 1_555
H123 C164 1_555 1_555
C165 C164 1_555 1_555
C166 N16 1_555 1_555
H124 C165 1_555 1_555
C167 C166 1_555 1_555
H125 C167 1_555 1_555
C169 C167 1_555 1_555
Co24 O20 1_555 1_555
Co27 N15 1_555 1_555
Co29 O22 1_555 1_555
C101 C102 1_555 1_555
C169 C171 1_555 1_555
H61 C83 1_555 1_555
C88 C83 1_555 1_555
H65 C88 1_555 1_555
N13 C154 1_555 1_555
C154 N14 1_555 1_555
C155 N13 1_555 1_555
N14 C156 1_555 1_555
H115 C154 1_555 1_555
H116 C155 1_555 1_555
C156 C155 1_555 1_555
C157 N14 1_555 1_555
C159 C157 1_555 1_555
C161 C159 1_555 1_555
H119 C159 1_555 1_555
H121 C161 1_555 1_555
Co23 N13 1_555 1_555
C161 C162 1_555 1_555
C70 N5 1_555 1_555
C71 N5 1_555 1_555
N7 C70 1_555 1_555
H51 C70 1_555 1_555
H52 C71 1_555 1_555
C75 C71 1_555 1_555
C79 N7 1_555 1_555
H58 C78 1_555 1_555
C82 C78 1_555 1_555
C84 C79 1_555 1_555
H60 C82 1_555 1_555
C89 C84 1_555 1_555
H62 C84 1_555 1_555
H66 C89 1_555 1_555
O31 C138 1_555 1_555
O32 C138 1_555 1_555
C138 C139 1_555 1_555
C139 C140 1_555 1_555
C140 C142 1_555 1_555
C142 C144 1_555 1_555
H103 C140 1_555 1_555
H105 C142 1_555 1_555
H108 C145 1_555 1_555
H118 C158 1_555 1_555
C160 C158 1_555 1_555
H120 C160 1_555 1_555
Co15 O39 1_555 1_555
O37 C172 1_555 1_555
O38 C173 1_555 1_555
O39 C172 1_555 1_555
O40 C173 1_555 1_555
C172 C174 1_555 1_555
C173 C175 1_555 1_555
C174 C176 1_555 1_555
C175 C178 1_555 1_555
C176 C180 1_555 1_555
C177 C174 1_555 1_555
C178 C182 1_555 1_555
C179 C175 1_555 1_555
C180 C184 1_555 1_555
H129 C176 1_555 1_555
H130 C177 1_555 1_555
C181 C177 1_555 1_555
C182 C185 1_555 1_555
H131 C178 1_555 1_555
C183 C179 1_555 1_555
H132 C179 1_555 1_555
C184 C181 1_555 1_555
H133 C180 1_555 1_555
H134 C181 1_555 1_555
C185 C183 1_555 1_555
H135 C182 1_555 1_555
H136 C183 1_555 1_555
O41 C184 1_555 1_555
O42 C185 1_555 1_555
C186 O41 1_555 1_555
C187 O42 1_555 1_555
C188 C186 1_555 1_555
H137 C186 1_555 1_555
H138 C186 1_555 1_555
H139 C187 1_555 1_555
H140 C187 1_555 1_555
C189 C188 1_555 1_555
C190 C188 1_555 1_555
O43 C189 1_555 1_555
H141 C189 1_555 1_555
H142 C189 1_555 1_555
O44 C190 1_555 1_555
H143 C190 1_555 1_555
H144 C190 1_555 1_555
C191 O43 1_555 1_555
C192 O44 1_555 1_555
C193 C191 1_555 1_555
C194 C191 1_555 1_555
C195 C192 1_555 1_555
C196 C192 1_555 1_555
C197 C193 1_555 1_555
H145 C193 1_555 1_555
H146 C194 1_555 1_555
C198 C194 1_555 1_555
H147 C195 1_555 1_555
C199 C195 1_555 1_555
C200 C196 1_555 1_555
H148 C196 1_555 1_555
C201 C197 1_555 1_555
H149 C197 1_555 1_555
H150 C198 1_555 1_555
H151 C199 1_555 1_555
C202 C199 1_555 1_555
H152 C200 1_555 1_555
C203 C201 1_555 1_555
C204 C202 1_555 1_555
O45 C203 1_555 1_555
O46 C203 1_555 1_555
O47 C204 1_555 1_555
O48 C204 1_555 1_555
Co7 O31 1_555 1_555
Co8 O32 1_555 1_555
Co14 O38 1_555 1_555
N18 Co15 1_555 1_555
O60 Co7 1_555 1_555
O62 Co8 1_555 1_555
Co25 O47 1_555 1_555
Co30 O48 1_555 1_555
O63 Co7 1_555 1_555
N20 Co8 1_555 1_555
O65 Co8 1_555 1_555
N7 C75 1_555 1_555
C89 C92 1_555 1_555
C187 C188 1_555 1_555
C198 C201 1_555 1_555
C200 C202 1_555 1_555
O45 Co7 1_555 1_555
O46 Co8 1_555 1_555
N17 Co9 1_555 1_555
O51 Co9 1_555 1_555
O53 Co9 1_555 1_555
N11 C129 1_555 1_555
C129 N12 1_555 1_555
C130 N11 1_555 1_555
N12 C131 1_555 1_555
H96 C129 1_555 1_555
H97 C130 1_555 1_555
C131 C130 1_555 1_555
C132 N12 1_555 1_555
H98 C131 1_555 1_555
C133 C132 1_555 1_555
C134 C132 1_555 1_555
H99 C133 1_555 1_555
C135 C133 1_555 1_555
C136 C134 1_555 1_555
H100 C134 1_555 1_555
H101 C135 1_555 1_555
Co17 N11 1_555 1_555
C135 C137 1_555 1_555
C136 C137 1_555 1_555
H74 C99 1_555 1_555
C146 C95_2 1_555 1_555
O34 C146 1_555 1_555
H109 C146 1_555 1_555
H110 C146 1_555 1_555
C147 O34 1_555 1_555
C148 C147 1_555 1_555
H111 C148 1_555 1_555
C150 C148 1_555 1_555
H113 C150 1_555 1_555
C152 C150 1_555 1_555
C153 C152 1_555 1_555
O35 C153 1_555 1_555
O36 C153 1_555 1_555
Co27 O36 1_555 1_555
C151 C152 1_555 1_555
O4_2 C68_2 1_555 1_555
O8_2 C68_2 1_555 1_555
C3_2 N1_2 1_555 1_555
C4_2 N1_2 1_555 1_555
H1_2 C3_2 1_555 1_555
C10_2 C3_2 1_555 1_555
N3_2 C4_2 1_555 1_555
H2_2 C4_2 1_555 1_555
H5_2 C10_2 1_555 1_555
C17_2 N3_2 1_555 1_555
C25_2 C17_2 1_555 1_555
C26_2 C17_2 1_555 1_555
H16_2 C24_2 1_555 1_555
H17_2 C25_2 1_555 1_555
C33_2 C25_2 1_555 1_555
C34_2 C26_2 1_555 1_555
H18_2 C26_2 1_555 1_555
H23_2 C33_2 1_555 1_555
C38_2 C33_2 1_555 1_555
H24_2 C34_2 1_555 1_555
C47_2 C44_2 1_555 1_555
H37_2 C47_2 1_555 1_555
H38_2 C47_2 1_555 1_555
C56_2 C50_2 1_555 1_555
H44_2 C56_2 1_555 1_555
C62_2 C56_2 1_555 1_555
H50_2 C62_2 1_555 1_555
C68_2 C65_2 1_555 1_555
O25_2 C104_2 1_555 1_555
O26_2 C104_2 1_555 1_555
C104_2 C105_2 1_555 1_555
C105_2 C106_2 1_555 1_555
C106_2 H77_2 1_555 1_555
C107_2 C105_2 1_555 1_555
C108_2 C106_2 1_555 1_555
C110_2 C108_2 1_555 1_555
H79_2 C108_2 1_555 1_555
O27_2 C110_2 1_555 1_555
C111_2 C44_2 1_555 1_555
H81_2 C111_2 1_555 1_555
H82_2 C111_2 1_555 1_555
C116_2 C114_2 1_555 1_555
H85_2 C114_2 1_555 1_555
H87_2 C116_2 1_555 1_555
N9_2 C120_2 1_555 1_555
C120_2 H89_2 1_555 1_555
C121_2 N9_2 1_555 1_555
C122_2 C120_2 1_555 1_555
N10_2 C121_2 1_555 1_555
H90_2 C121_2 1_555 1_555
H91_2 C122_2 1_555 1_555
C123_2 N10_2 1_555 1_555
C124_2 C123_2 1_555 1_555
C125_2 C123_2 1_555 1_555
H92_2 C124_2 1_555 1_555
C126_2 C124_2 1_555 1_555
C127_2 C125_2 1_555 1_555
H93_2 C125_2 1_555 1_555
H94_2 C126_2 1_555 1_555
C128_2 C38_2 1_555 1_555
H95_2 C127_2 1_555 1_555
H126_2 C168_2 1_555 1_555
C170_2 C168_2 1_555 1_555
Co12 O4_2 1_555 1_555
Co10 N9_2 1_555 1_555
Co15_2 O26_2 1_555 1_555
Co18 O8_2 1_555 1_555
C10_2 N3_2 1_555 1_555
C34_2 C38_2 1_555 1_555
C62_2 C65_2 1_555 1_555
O27_2 C111_2 1_555 1_555
C122_2 N10_2 1_555 1_555
C126_2 C128_2 1_555 1_555
C127_2 C128_2 1_555 1_555
N15_2 C163_2 1_555 1_555
C163_2 N16_2 1_555 1_555
C164_2 N15_2 1_555 1_555
N16_2 C165_2 1_555 1_555
H122_2 C163_2 1_555 1_555
H123_2 C164_2 1_555 1_555
C165_2 C164_2 1_555 1_555
C166_2 N16_2 1_555 1_555
H124_2 C165_2 1_555 1_555
C167_2 C166_2 1_555 1_555
H125_2 C167_2 1_555 1_555
C169_2 C167_2 1_555 1_555
H127_2 C169_2 1_555 1_555
Co28 N15_2 1_555 1_555
C169_2 C171_2 1_555 1_555
Co1_2 O1_2 1_555 1_555
Co2_2 O5_2 1_555 1_555
O1_2 C1_2 1_555 1_555
O2_2 Co1_2 1_555 1_555
O3_2 C5_2 1_555 1_555
O5_2 C1_2 1_555 1_555
O6_2 Co2_2 1_555 1_555
N2_2 Co2_2 1_555 1_555
O7_2 C5_2 1_555 1_555
C1_2 C8_2 1_555 1_555
C2_2 O2_2 1_555 1_555
C5_2 C11_2 1_555 1_555
C6_2 N2_2 1_555 1_555
C7_2 N2_2 1_555 1_555
C8_2 C13_2 1_555 1_555
C9_2 C2_2 1_555 1_555
C11_2 C18_2 1_555 1_555
N4_2 C6_2 1_555 1_555
H3_2 C6_2 1_555 1_555
H4_2 C7_2 1_555 1_555
C12_2 C7_2 1_555 1_555
C13_2 C21_2 1_555 1_555
C14_2 C8_2 1_555 1_555
C15_2 C9_2 1_555 1_555
C16_2 C9_2 1_555 1_555
C18_2 C27_2 1_555 1_555
C19_2 C11_2 1_555 1_555
C20_2 N4_2 1_555 1_555
H6_2 C12_2 1_555 1_555
C21_2 C31_2 1_555 1_555
H7_2 C13_2 1_555 1_555
H8_2 C14_2 1_555 1_555
C22_2 C14_2 1_555 1_555
H9_2 C15_2 1_555 1_555
C23_2 C15_2 1_555 1_555
C27_2 C35_2 1_555 1_555
H11_2 C18_2 1_555 1_555
C28_2 C19_2 1_555 1_555
H12_2 C19_2 1_555 1_555
C29_2 C20_2 1_555 1_555
C30_2 C20_2 1_555 1_555
C31_2 C22_2 1_555 1_555
H13_2 C21_2 1_555 1_555
H14_2 C22_2 1_555 1_555
C32_2 C23_2 1_555 1_555
H15_2 C23_2 1_555 1_555
C35_2 C28_2 1_555 1_555
H19_2 C27_2 1_555 1_555
H20_2 C28_2 1_555 1_555
H21_2 C29_2 1_555 1_555
C36_2 C29_2 1_555 1_555
C37_2 C30_2 1_555 1_555
H22_2 C30_2 1_555 1_555
O9_2 C31_2 1_555 1_555
O10_2 C32_2 1_555 1_555
O11_2 C35_2 1_555 1_555
H25_2 C36_2 1_555 1_555
C39_2 C36_2 1_555 1_555
H26_2 C37_2 1_555 1_555
C40_2 O9_2 1_555 1_555
C41_2 O10_2 1_555 1_555
C42_2 O11_2 1_555 1_555
C43_2 C40_2 1_555 1_555
H27_2 C40_2 1_555 1_555
H28_2 C40_2 1_555 1_555
C44_3 C41_2 1_555 1_555
H29_2 C41_2 1_555 1_555
H30_2 C41_2 1_555 1_555
H31_2 C42_2 1_555 1_555
H32_2 C42_2 1_555 1_555
C45_2 C43_2 1_555 1_555
C46_2 C43_2 1_555 1_555
O12_2 C45_2 1_555 1_555
H33_2 C45_2 1_555 1_555
H34_2 C45_2 1_555 1_555
O13_2 C46_2 1_555 1_555
H35_2 C46_2 1_555 1_555
H36_2 C46_2 1_555 1_555
C48_2 O12_2 1_555 1_555
C49_2 O13_2 1_555 1_555
C51_2 C48_2 1_555 1_555
C52_2 C48_2 1_555 1_555
C53_2 C49_2 1_555 1_555
C54_2 C49_2 1_555 1_555
C57_2 C51_2 1_555 1_555
H39_2 C51_2 1_555 1_555
H40_2 C52_2 1_555 1_555
C58_2 C52_2 1_555 1_555
H41_2 C53_2 1_555 1_555
C59_2 C53_2 1_555 1_555
C60_2 C54_2 1_555 1_555
H42_2 C54_2 1_555 1_555
C61_2 C55_2 1_555 1_555
H43_2 C55_2 1_555 1_555
C63_2 C57_2 1_555 1_555
H45_2 C57_2 1_555 1_555
H46_2 C58_2 1_555 1_555
H47_2 C59_2 1_555 1_555
C64_2 C59_2 1_555 1_555
H48_2 C60_2 1_555 1_555
H49_2 C61_2 1_555 1_555
C66_2 C63_2 1_555 1_555
C67_2 C64_2 1_555 1_555
O15_2 C66_2 1_555 1_555
O16_2 C66_2 1_555 1_555
O17_2 C67_2 1_555 1_555
O18_2 C67_2 1_555 1_555
Co4_2 O16_2 1_555 1_555
N6_2 Co4_2 1_555 1_555
C72_2 N6_2 1_555 1_555
C73_2 N6_2 1_555 1_555
N8_2 C72_2 1_555 1_555
H53_2 C72_2 1_555 1_555
H54_2 C73_2 1_555 1_555
C76_2 C73_2 1_555 1_555
C80_2 N8_2 1_555 1_555
H56_2 C76_2 1_555 1_555
C85_2 C80_2 1_555 1_555
H61_2 C83_2 1_555 1_555
C88_2 C83_2 1_555 1_555
H63_2 C85_2 1_555 1_555
C90_2 C85_2 1_555 1_555
H65_2 C88_2 1_555 1_555
H67_2 C90_2 1_555 1_555
C93_2 C90_2 1_555 1_555
H80_2 C109_2 1_555 1_555
C112_2 C44_3 1_555 1_555
H83_2 C112_2 1_555 1_555
H84_2 C112_2 1_555 1_555
C115_2 C113_2 1_555 1_555
H86_2 C115_2 1_555 1_555
C117_2 C115_2 1_555 1_555
H88_2 C117_2 1_555 1_555
C119_2 C118_2 1_555 1_555
O29_2 C119_2 1_555 1_555
O30_2 C119_2 1_555 1_555
N11_2 C129_2 1_555 1_555
C129_2 N12_2 1_555 1_555
C130_2 N11_2 1_555 1_555
N12_2 C131_2 1_555 1_555
H96_2 C129_2 1_555 1_555
H97_2 C130_2 1_555 1_555
C131_2 C130_2 1_555 1_555
C132_2 N12_2 1_555 1_555
H98_2 C131_2 1_555 1_555
C133_2 C132_2 1_555 1_555
C134_2 C132_2 1_555 1_555
H99_2 C133_2 1_555 1_555
C135_2 C133_2 1_555 1_555
C136_2 C134_2 1_555 1_555
H100_2 C134_2 1_555 1_555
H101_2 C135_2 1_555 1_555
C137_2 C39_2 1_555 1_555
H102_2 C136_2 1_555 1_555
N13_2 C154_2 1_555 1_555
C154_2 N14_2 1_555 1_555
C155_2 N13_2 1_555 1_555
N14_2 C156_2 1_555 1_555
H115_2 C154_2 1_555 1_555
H116_2 C155_2 1_555 1_555
C156_2 C155_2 1_555 1_555
C157_2 N14_2 1_555 1_555
C159_2 C157_2 1_555 1_555
C161_2 C159_2 1_555 1_555
H119_2 C159_2 1_555 1_555
H121_2 C161_2 1_555 1_555
Co10 O3_2 1_555 1_555
Co14 O29_2 1_555 1_555
Co18 N11_2 1_555 1_555
Co17 O7_2 1_555 1_555
O50_2 Co1_2 1_555 1_555
O52_2 Co1_2 1_555 1_555
O55_2 Co2_2 1_555 1_555
O57_2 Co2_2 1_555 1_555
Co21 O17_2 1_555 1_555
O66_2 Co4_2 1_555 1_555
O6_2 C2_2 1_555 1_555
N4_2 C12_2 1_555 1_555
C37_2 C39_2 1_555 1_555
C42_2 C43_2 1_555 1_555
C58_2 C63_2 1_555 1_555
C60_2 C64_2 1_555 1_555
N8_2 C76_2 1_555 1_555
C117_2 C118_2 1_555 1_555
C135_2 C137_2 1_555 1_555
C136_2 C137_2 1_555 1_555
C161_2 C162_2 1_555 1_555
O19_2 Co3_2 1_555 1_555
N5_2 Co3_2 1_555 1_555
O20_2 C103_2 1_555 1_555
O22_2 C103_2 1_555 1_555
C69_2 O19_2 1_555 1_555
C70_2 N5_2 1_555 1_555
C71_2 N5_2 1_555 1_555
C74_2 C69_2 1_555 1_555
N7_2 C70_2 1_555 1_555
H51_2 C70_2 1_555 1_555
H52_2 C71_2 1_555 1_555
C75_2 C71_2 1_555 1_555
C77_2 C74_2 1_555 1_555
C78_2 C74_2 1_555 1_555
C79_2 N7_2 1_555 1_555
C81_2 C77_2 1_555 1_555
H57_2 C77_2 1_555 1_555
H58_2 C78_2 1_555 1_555
C82_2 C78_2 1_555 1_555
C84_2 C79_2 1_555 1_555
C87_2 C81_2 1_555 1_555
H59_2 C81_2 1_555 1_555
H60_2 C82_2 1_555 1_555
C89_2 C84_2 1_555 1_555
H62_2 C84_2 1_555 1_555
H64_2 C86_2 1_555 1_555
C91_2 C86_2 1_555 1_555
O23_2 C87_2 1_555 1_555
H66_2 C89_2 1_555 1_555
C94_2 O23_2 1_555 1_555
C95_3 C94_2 1_555 1_555
H69_2 C94_2 1_555 1_555
H70_2 C94_2 1_555 1_555
C96_2 C95_3 1_555 1_555
O24_2 C96_2 1_555 1_555
H71_2 C96_2 1_555 1_555
H72_2 C96_2 1_555 1_555
C97_2 O24_2 1_555 1_555
C98_2 C97_2 1_555 1_555
C99_2 C97_2 1_555 1_555
H73_2 C98_2 1_555 1_555
C100_2 C98_2 1_555 1_555
C101_2 C99_2 1_555 1_555
H74_2 C99_2 1_555 1_555
H75_2 C100_2 1_555 1_555
C102_2 C100_2 1_555 1_555
H76_2 C101_2 1_555 1_555
C103_2 C102_2 1_555 1_555
O31_2 C138_2 1_555 1_555
O32_2 C138_2 1_555 1_555
C138_2 C139_2 1_555 1_555
C139_2 C140_2 1_555 1_555
C140_2 C142_2 1_555 1_555
C141_2 C139_2 1_555 1_555
C142_2 C144_2 1_555 1_555
H103_2 C140_2 1_555 1_555
H104_2 C141_2 1_555 1_555
C143_2 C141_2 1_555 1_555
C144_2 C143_2 1_555 1_555
H105_2 C142_2 1_555 1_555
H106_2 C143_2 1_555 1_555
O33_2 C144_2 1_555 1_555
C145_2 C95_3 1_555 1_555
H107_2 C145_2 1_555 1_555
H108_2 C145_2 1_555 1_555
C146_2 C95_3 1_555 1_555
O34_2 C146_2 1_555 1_555
H109_2 C146_2 1_555 1_555
H110_2 C146_2 1_555 1_555
C147_2 O34_2 1_555 1_555
C148_2 C147_2 1_555 1_555
C149_2 C147_2 1_555 1_555
H111_2 C148_2 1_555 1_555
C150_2 C148_2 1_555 1_555
C151_2 C149_2 1_555 1_555
H112_2 C149_2 1_555 1_555
H113_2 C150_2 1_555 1_555
C152_2 C150_2 1_555 1_555
H114_2 C151_2 1_555 1_555
C153_2 C152_2 1_555 1_555
O35_2 C153_2 1_555 1_555
O36_2 C153_2 1_555 1_555
H118_2 C158_2 1_555 1_555
C160_2 C158_2 1_555 1_555
H120_2 C160_2 1_555 1_555
Co15_2 O39_2 1_555 1_555
O37_2 C172_2 1_555 1_555
O38_2 C173_2 1_555 1_555
O39_2 C172_2 1_555 1_555
O40_2 C173_2 1_555 1_555
C172_2 C174_2 1_555 1_555
C173_2 C175_2 1_555 1_555
C174_2 C176_2 1_555 1_555
C175_2 C178_2 1_555 1_555
C176_2 C180_2 1_555 1_555
C177_2 C174_2 1_555 1_555
C178_2 C182_2 1_555 1_555
C179_2 C175_2 1_555 1_555
C180_2 C184_2 1_555 1_555
H129_2 C176_2 1_555 1_555
H130_2 C177_2 1_555 1_555
C181_2 C177_2 1_555 1_555
C182_2 C185_2 1_555 1_555
H131_2 C178_2 1_555 1_555
C183_2 C179_2 1_555 1_555
H132_2 C179_2 1_555 1_555
C184_2 C181_2 1_555 1_555
H133_2 C180_2 1_555 1_555
H134_2 C181_2 1_555 1_555
C185_2 C183_2 1_555 1_555
H135_2 C182_2 1_555 1_555
H136_2 C183_2 1_555 1_555
O41_2 C184_2 1_555 1_555
O42_2 C185_2 1_555 1_555
C186_2 O41_2 1_555 1_555
C187_2 O42_2 1_555 1_555
C188_2 C186_2 1_555 1_555
H137_2 C186_2 1_555 1_555
H138_2 C186_2 1_555 1_555
H139_2 C187_2 1_555 1_555
H140_2 C187_2 1_555 1_555
C189_2 C188_2 1_555 1_555
C190_2 C188_2 1_555 1_555
O43_2 C189_2 1_555 1_555
H141_2 C189_2 1_555 1_555
H142_2 C189_2 1_555 1_555
O44_2 C190_2 1_555 1_555
H143_2 C190_2 1_555 1_555
H144_2 C190_2 1_555 1_555
C191_2 O43_2 1_555 1_555
C192_2 O44_2 1_555 1_555
C193_2 C191_2 1_555 1_555
C194_2 C191_2 1_555 1_555
C195_2 C192_2 1_555 1_555
C196_2 C192_2 1_555 1_555
C197_2 C193_2 1_555 1_555
H145_2 C193_2 1_555 1_555
H146_2 C194_2 1_555 1_555
C198_2 C194_2 1_555 1_555
H147_2 C195_2 1_555 1_555
C199_2 C195_2 1_555 1_555
C200_2 C196_2 1_555 1_555
H148_2 C196_2 1_555 1_555
C201_2 C197_2 1_555 1_555
H149_2 C197_2 1_555 1_555
H150_2 C198_2 1_555 1_555
H151_2 C199_2 1_555 1_555
C202_2 C199_2 1_555 1_555
H152_2 C200_2 1_555 1_555
C203_2 C201_2 1_555 1_555
C204_2 C202_2 1_555 1_555
O45_2 C203_2 1_555 1_555
O46_2 C203_2 1_555 1_555
O47_2 C204_2 1_555 1_555
O48_2 C204_2 1_555 1_555
Co7_2 O31_2 1_555 1_555
Co8_2 O32_2 1_555 1_555
Co13 O38_2 1_555 1_555
N18_2 Co15_2 1_555 1_555
O59_2 Co3_2 1_555 1_555
O60_2 Co7_2 1_555 1_555
O62_2 Co8_2 1_555 1_555
Co25 O20_2 1_555 1_555
Co24 O47_2 1_555 1_555
Co28 O36_2 1_555 1_555
Co30 O22_2 1_555 1_555
Co29 O48_2 1_555 1_555
N19_2 Co7_2 1_555 1_555
O63_2 Co7_2 1_555 1_555
N20_2 Co8_2 1_555 1_555
O65_2 Co8_2 1_555 1_555
O21_2 C69_2 1_555 1_555
N7_2 C75_2 1_555 1_555
C82_2 C87_2 1_555 1_555
C89_2 C92_2 1_555 1_555
C101_2 C102_2 1_555 1_555
O33_2 C145_2 1_555 1_555
C151_2 C152_2 1_555 1_555
C187_2 C188_2 1_555 1_555
C198_2 C201_2 1_555 1_555
C200_2 C202_2 1_555 1_555
O45_2 Co7_2 1_555 1_555
O46_2 Co8_2 1_555 1_555
O51_2 Co9_2 1_555 1_555
O53_2 Co9_2 1_555 1_555
C70_3 N19 1_555 1_555
C71_3 N19 1_555 1_555
N7_3 C70_3 1_555 1_555
H51_3 C70_3 1_555 1_555
H52_3 C71_3 1_555 1_555
C75_3 C71_3 1_555 1_555
C79_3 N7_3 1_555 1_555
H55_3 C75_3 1_555 1_555
C83_3 C79_3 1_555 1_555
C84_3 C79_3 1_555 1_555
H61_3 C83_3 1_555 1_555
C88_3 C83_3 1_555 1_555
C89_3 C84_3 1_555 1_555
H62_3 C84_3 1_555 1_555
H65_3 C88_3 1_555 1_555
C92_3 C88_3 1_555 1_555
H66_3 C89_3 1_555 1_555
N13_3 C154_3 1_555 1_555
C154_3 N14_3 1_555 1_555
C155_3 N13_3 1_555 1_555
N14_3 C156_3 1_555 1_555
H115_3 C154_3 1_555 1_555
H116_3 C155_3 1_555 1_555
C156_3 C155_3 1_555 1_555
C157_3 N14_3 1_555 1_555
H117_3 C156_3 1_555 1_555
C158_3 C157_3 1_555 1_555
C159_3 C157_3 1_555 1_555
H118_3 C158_3 1_555 1_555
C160_3 C158_3 1_555 1_555
C161_3 C159_3 1_555 1_555
H119_3 C159_3 1_555 1_555
H120_3 C160_3 1_555 1_555
C162_3 C92_3 1_555 1_555
H121_3 C161_3 1_555 1_555
Co25 N13_3 1_555 1_555
N7_3 C75_3 1_555 1_555
C89_3 C92_3 1_555 1_555
C160_3 C162_3 1_555 1_555
C161_3 C162_3 1_555 1_555
H99_3 C133_3 1_555 1_555
C135_3 C133_3 1_555 1_555
H101_3 C135_3 1_555 1_555
N11_3 C129_3 1_555 1_555
C129_3 N12_3 1_555 1_555
C130_3 N11_3 1_555 1_555
N12_3 C131_3 1_555 1_555
H97_3 C130_3 1_555 1_555
C131_3 C130_3 1_555 1_555
C132_3 N12_3 1_555 1_555
H98_3 C131_3 1_555 1_555
C134_3 C132_3 1_555 1_555
C136_3 C134_3 1_555 1_555
H100_3 C134_3 1_555 1_555
Co19 N11_3 1_555 1_555
C136_3 C137_3 1_555 1_555
C6_3 N18 1_555 1_555
C7_3 N18 1_555 1_555
N4_3 C6_3 1_555 1_555
H4_3 C7_3 1_555 1_555
C12_3 C7_3 1_555 1_555
C20_3 N4_3 1_555 1_555
H6_3 C12_3 1_555 1_555
C30_3 C20_3 1_555 1_555
H17_3 C25_3 1_555 1_555
C33_3 C25_3 1_555 1_555
C37_3 C30_3 1_555 1_555
H22_3 C30_3 1_555 1_555
H23_3 C33_3 1_555 1_555
C72_3 N20 1_555 1_555
C73_3 N20 1_555 1_555
N8_3 C72_3 1_555 1_555
H53_3 C72_3 1_555 1_555
H54_3 C73_3 1_555 1_555
C76_3 C73_3 1_555 1_555
C80_3 N8_3 1_555 1_555
H56_3 C76_3 1_555 1_555
C85_3 C80_3 1_555 1_555
C86_3 C80_3 1_555 1_555
H63_3 C85_3 1_555 1_555
C90_3 C85_3 1_555 1_555
H64_3 C86_3 1_555 1_555
C91_3 C86_3 1_555 1_555
C93_3 C90_3 1_555 1_555
H68_3 C91_3 1_555 1_555
N9_3 C120_3 1_555 1_555
C120_3 H89_3 1_555 1_555
C121_3 N9_3 1_555 1_555
C122_3 C120_3 1_555 1_555
N10_3 C121_3 1_555 1_555
H91_3 C122_3 1_555 1_555
C123_3 N10_3 1_555 1_555
C124_3 C123_3 1_555 1_555
C125_3 C123_3 1_555 1_555
C127_3 C125_3 1_555 1_555
H93_3 C125_3 1_555 1_555
H95_3 C127_3 1_555 1_555
N4_3 C12_3 1_555 1_555
C37_3 C39_3 1_555 1_555
N8_3 C76_3 1_555 1_555
C91_3 C93_3 1_555 1_555
C122_3 N10_3 1_555 1_555
C127_3 C128_3 1_555 1_555
C3_3 N17 1_555 1_555
C4_3 N17 1_555 1_555
H1_3 C3_3 1_555 1_555
C10_3 C3_3 1_555 1_555
N3_3 C4_3 1_555 1_555
H5_3 C10_3 1_555 1_555
C17_3 N3_3 1_555 1_555
C25_4 C17_3 1_555 1_555
C26_3 C17_3 1_555 1_555
C34_3 C26_3 1_555 1_555
H18_3 C26_3 1_555 1_555
H21_3 C29_3 1_555 1_555
C36_3 C29_3 1_555 1_555
H24_3 C34_3 1_555 1_555
H25_3 C36_3 1_555 1_555
H92_3 C124_4 1_555 1_555
C126_3 C124_4 1_555 1_555
H94_3 C126_3 1_555 1_555
C10_3 N3_3 1_555 1_555
C34_3 C38_3 1_555 1_555
N15_3 C163_3 1_555 1_555
C163_3 N16_3 1_555 1_555
C164_3 N15_3 1_555 1_555
N16_3 C165_3 1_555 1_555
H122_3 C163_3 1_555 1_555
H123_3 C164_3 1_555 1_555
C165_3 C164_3 1_555 1_555
C166_3 N16_3 1_555 1_555
H124_3 C165_3 1_555 1_555
C167_3 C166_3 1_555 1_555
C168_3 C166_3 1_555 1_555
H125_3 C167_3 1_555 1_555
C169_3 C167_3 1_555 1_555
H126_3 C168_3 1_555 1_555
C170_3 C168_3 1_555 1_555
H128_3 C170_3 1_555 1_555
Co29 N15_3 1_555 1_555
C169_3 C171_3 1_555 1_555
C170_3 C171_3 1_555 1_555
C6_4 N18_2 1_555 1_555
C7_4 N18_2 1_555 1_555
N4_4 C6_4 1_555 1_555
H4_4 C7_4 1_555 1_555
C12_4 C7_4 1_555 1_555
C20_4 N4_4 1_555 1_555
H6_4 C12_4 1_555 1_555
C30_4 C20_4 1_555 1_555
C37_4 C30_4 1_555 1_555
H22_4 C30_4 1_555 1_555
H26_4 C37_4 1_555 1_555
C70_4 N19_2 1_555 1_555
C71_4 N19_2 1_555 1_555
C72_4 N20_2 1_555 1_555
C73_4 N20_2 1_555 1_555
N7_4 C70_4 1_555 1_555
H51_4 C70_4 1_555 1_555
H52_4 C71_4 1_555 1_555
C75_4 C71_4 1_555 1_555
N8_4 C72_4 1_555 1_555
H53_4 C72_4 1_555 1_555
H54_4 C73_4 1_555 1_555
C76_4 C73_4 1_555 1_555
C79_4 N7_4 1_555 1_555
H55_4 C75_4 1_555 1_555
C80_4 N8_4 1_555 1_555
H56_4 C76_4 1_555 1_555
C83_4 C79_4 1_555 1_555
C84_4 C79_4 1_555 1_555
C85_4 C80_4 1_555 1_555
C86_4 C80_4 1_555 1_555
H61_4 C83_4 1_555 1_555
C88_4 C83_4 1_555 1_555
C89_4 C84_4 1_555 1_555
H62_4 C84_4 1_555 1_555
H63_4 C85_4 1_555 1_555
C90_4 C85_4 1_555 1_555
H64_4 C86_4 1_555 1_555
C91_4 C86_4 1_555 1_555
H65_4 C88_4 1_555 1_555
C92_4 C88_4 1_555 1_555
H66_4 C89_4 1_555 1_555
H67_4 C90_4 1_555 1_555
C93_4 C90_4 1_555 1_555
H99_4 C133_4 1_555 1_555
C135_4 C133_4 1_555 1_555
H101_4 C135_4 1_555 1_555
N13_4 C154_4 1_555 1_555
C154_4 N14_4 1_555 1_555
C155_4 N13_4 1_555 1_555
N14_4 C156_4 1_555 1_555
H115_4 C154_4 1_555 1_555
H116_4 C155_4 1_555 1_555
C156_4 C155_4 1_555 1_555
C157_4 N14_4 1_555 1_555
H117_4 C156_4 1_555 1_555
C158_4 C157_4 1_555 1_555
C159_4 C157_4 1_555 1_555
H118_4 C158_4 1_555 1_555
C160_4 C158_4 1_555 1_555
C161_4 C159_4 1_555 1_555
H119_4 C159_4 1_555 1_555
H120_4 C160_4 1_555 1_555
C162_4 C92_4 1_555 1_555
H121_4 C161_4 1_555 1_555
N4_4 C12_4 1_555 1_555
C37_4 C39_4 1_555 1_555
N7_4 C75_4 1_555 1_555
N8_4 C76_4 1_555 1_555
C89_4 C92_4 1_555 1_555
C91_4 C93_4 1_555 1_555
C160_4 C162_4 1_555 1_555
C161_4 C162_4 1_555 1_555
H21_4 C29_4 1_555 1_555
C36_4 C29_4 1_555 1_555
H25_4 C36_4 1_555 1_555
N11_4 C129_4 1_555 1_555
C129_4 N12_4 1_555 1_555
C130_4 N11_4 1_555 1_555
N12_4 C131_4 1_555 1_555
H97_4 C130_4 1_555 1_555
C131_4 C130_4 1_555 1_555
C132_4 N12_4 1_555 1_555
H98_4 C131_4 1_555 1_555
C134_4 C132_4 1_555 1_555
C136_4 C134_4 1_555 1_555
H100_4 C134_4 1_555 1_555
H102_4 C136_4 1_555 1_555
Co20 N11_4 1_555 1_555
C136_4 C137_4 1_555 1_555
H17_4 C25_5 1_555 1_555
C33_4 C25_5 1_555 1_555
H23_4 C33_4 1_555 1_555
N9_4 C120_4 1_555 1_555
C120_4 H89_4 1_555 1_555
C121_4 N9_4 1_555 1_555
C122_4 C120_4 1_555 1_555
N10_4 C121_4 1_555 1_555
H91_4 C122_4 1_555 1_555
C123_4 N10_4 1_555 1_555
C124_5 C123_4 1_555 1_555
C125_4 C123_4 1_555 1_555
C127_4 C125_4 1_555 1_555
H93_4 C125_4 1_555 1_555
H95_4 C127_4 1_555 1_555
N15_4 C163_4 1_555 1_555
C163_4 N16_4 1_555 1_555
C164_4 N15_4 1_555 1_555
N16_4 C165_4 1_555 1_555
H122_4 C163_4 1_555 1_555
H123_4 C164_4 1_555 1_555
C165_4 C164_4 1_555 1_555
C166_4 N16_4 1_555 1_555
H124_4 C165_4 1_555 1_555
C167_4 C166_4 1_555 1_555
C168_4 C166_4 1_555 1_555
H125_4 C167_4 1_555 1_555
C169_4 C167_4 1_555 1_555
H126_4 C168_4 1_555 1_555
C170_4 C168_4 1_555 1_555
H127_4 C169_4 1_555 1_555
Co13 N9_4 1_555 1_555
Co30 N15_4 1_555 1_555
C122_4 N10_4 1_555 1_555
C127_4 C128_4 1_555 1_555
C169_4 C171_4 1_555 1_555
C170_4 C171_4 1_555 1_555
C3_4 N17_2 1_555 1_555
C4_4 N17_2 1_555 1_555
H1_4 C3_4 1_555 1_555
C10_4 C3_4 1_555 1_555
N3_4 C4_4 1_555 1_555
H5_4 C10_4 1_555 1_555
C17_4 N3_4 1_555 1_555
C25_6 C17_4 1_555 1_555
C26_4 C17_4 1_555 1_555
C34_4 C26_4 1_555 1_555
H18_4 C26_4 1_555 1_555
H24_4 C34_4 1_555 1_555
H92_4 C124_6 1_555 1_555
C126_4 C124_6 1_555 1_555
H94_4 C126_4 1_555 1_555
C10_4 N3_4 1_555 1_555
C34_4 C38_4 1_555 1_555
H74_3 C99_3 1_555 1_555
C146_3 C95_4 1_555 1_555
O34_3 C146_3 1_555 1_555
H109_3 C146_3 1_555 1_555
H110_3 C146_3 1_555 1_555
C147_3 O34_3 1_555 1_555
C148_3 C147_3 1_555 1_555
H111_3 C148_3 1_555 1_555
C150_3 C148_3 1_555 1_555
H113_3 C150_3 1_555 1_555
C152_3 C150_3 1_555 1_555
C153_3 C152_3 1_555 1_555
O64 C153_3 1_555 1_555
O66 C153_3 1_555 1_555
C151_3 C152_3 1_555 1_555
H58_3 C78_3 1_555 1_555
C82_3 C78_3 1_555 1_555
H60_3 C82_3 1_555 1_555
O31_3 C138_3 1_555 1_555
O32_3 C138_3 1_555 1_555
C138_3 C139_3 1_555 1_555
C139_3 C140_3 1_555 1_555
C140_3 C142_3 1_555 1_555
C142_3 C144_3 1_555 1_555
H103_3 C140_3 1_555 1_555
H105_3 C142_3 1_555 1_555
H108_3 C145_3 1_555 1_555
Co19 O39_3 1_555 1_555
O37_3 C172_3 1_555 1_555
O51_2 C173_3 1_555 1_555
O39_3 C172_3 1_555 1_555
O56_2 C173_3 1_555 1_555
C172_3 C174_3 1_555 1_555
C173_3 C175_3 1_555 1_555
C174_3 C176_3 1_555 1_555
C175_3 C178_3 1_555 1_555
C176_3 C180_3 1_555 1_555
C177_3 C174_3 1_555 1_555
C178_3 C182_3 1_555 1_555
C179_3 C175_3 1_555 1_555
C180_3 C184_3 1_555 1_555
H129_3 C176_3 1_555 1_555
H130_3 C177_3 1_555 1_555
C181_3 C177_3 1_555 1_555
C182_3 C185_3 1_555 1_555
H131_3 C178_3 1_555 1_555
C183_3 C179_3 1_555 1_555
H132_3 C179_3 1_555 1_555
C184_3 C181_3 1_555 1_555
H133_3 C180_3 1_555 1_555
H134_3 C181_3 1_555 1_555
C185_3 C183_3 1_555 1_555
H135_3 C182_3 1_555 1_555
H136_3 C183_3 1_555 1_555
O41_3 C184_3 1_555 1_555
O42_3 C185_3 1_555 1_555
C186_3 O41_3 1_555 1_555
C187_3 O42_3 1_555 1_555
C188_3 C186_3 1_555 1_555
H137_3 C186_3 1_555 1_555
H138_3 C186_3 1_555 1_555
H139_3 C187_3 1_555 1_555
H140_3 C187_3 1_555 1_555
C189_3 C188_3 1_555 1_555
C190_3 C188_3 1_555 1_555
O43_3 C189_3 1_555 1_555
H141_3 C189_3 1_555 1_555
H142_3 C189_3 1_555 1_555
O44_3 C190_3 1_555 1_555
H143_3 C190_3 1_555 1_555
H144_3 C190_3 1_555 1_555
C191_3 O43_3 1_555 1_555
C192_3 O44_3 1_555 1_555
C193_3 C191_3 1_555 1_555
C194_3 C191_3 1_555 1_555
C195_3 C192_3 1_555 1_555
C196_3 C192_3 1_555 1_555
C197_3 C193_3 1_555 1_555
H145_3 C193_3 1_555 1_555
H146_3 C194_3 1_555 1_555
C198_3 C194_3 1_555 1_555
H147_3 C195_3 1_555 1_555
C199_3 C195_3 1_555 1_555
C200_3 C196_3 1_555 1_555
H148_3 C196_3 1_555 1_555
C201_3 C197_3 1_555 1_555
H149_3 C197_3 1_555 1_555
H150_3 C198_3 1_555 1_555
H151_3 C199_3 1_555 1_555
C202_3 C199_3 1_555 1_555
H152_3 C200_3 1_555 1_555
C203_3 C201_3 1_555 1_555
C204_3 C202_3 1_555 1_555
O45_3 C203_3 1_555 1_555
O46_3 C203_3 1_555 1_555
O60_2 C204_3 1_555 1_555
O62_2 C204_3 1_555 1_555
Co24 O31_3 1_555 1_555
Co29 O32_3 1_555 1_555
O54 Co19 1_555 1_555
C187_3 C188_3 1_555 1_555
C198_3 C201_3 1_555 1_555
C200_3 C202_3 1_555 1_555
O45_3 Co24 1_555 1_555
O46_3 Co29 1_555 1_555
O63 C103_3 1_555 1_555
O65 C103_3 1_555 1_555
C96_3 C95_5 1_555 1_555
O24_3 C96_3 1_555 1_555
H71_3 C96_3 1_555 1_555
H72_3 C96_3 1_555 1_555
C97_3 O24_3 1_555 1_555
C98_3 C97_3 1_555 1_555
H73_3 C98_3 1_555 1_555
C100_3 C98_3 1_555 1_555
H75_3 C100_3 1_555 1_555
C102_3 C100_3 1_555 1_555
C103_3 C102_3 1_555 1_555
H112_3 C149_3 1_555 1_555
C101_3 C102_3 1_555 1_555
O52 C68_3 1_555 1_555
O57 C68_3 1_555 1_555
C50_3 O14_3 1_555 1_555
C55_3 C50_3 1_555 1_555
C56_3 C50_3 1_555 1_555
C61_3 C55_3 1_555 1_555
H43_3 C55_3 1_555 1_555
H44_3 C56_3 1_555 1_555
C62_3 C56_3 1_555 1_555
C65_3 C61_3 1_555 1_555
H49_3 C61_3 1_555 1_555
H50_3 C62_3 1_555 1_555
C68_3 C65_3 1_555 1_555
C113_3 O28_3 1_555 1_555
C114_3 C113_3 1_555 1_555
C115_3 C113_3 1_555 1_555
C116_3 C114_3 1_555 1_555
H85_3 C114_3 1_555 1_555
H86_3 C115_3 1_555 1_555
C117_3 C115_3 1_555 1_555
C118_3 C116_3 1_555 1_555
H87_3 C116_3 1_555 1_555
H88_3 C117_3 1_555 1_555
C119_3 C118_3 1_555 1_555
O53 C119_3 1_555 1_555
O58 C119_3 1_555 1_555
C62_3 C65_3 1_555 1_555
C117_3 C118_3 1_555 1_555
O19_3 Co21 1_555 1_555
C69_3 O19_3 1_555 1_555
C74_3 C69_3 1_555 1_555
C77_3 C74_3 1_555 1_555
C81_3 C77_3 1_555 1_555
H57_3 C77_3 1_555 1_555
C87_3 C81_3 1_555 1_555
H59_3 C81_3 1_555 1_555
H70_3 C94_3 1_555 1_555
H104_3 C141_3 1_555 1_555
C143_3 C141_3 1_555 1_555
H106_3 C143_3 1_555 1_555
O21_3 C69_3 1_555 1_555
Co10 O1_3 1_555 1_555
Co17 O5_3 1_555 1_555
O1_3 C1_3 1_555 1_555
O2_3 Co10 1_555 1_555
O50_2 C5_3 1_555 1_555
O5_3 C1_3 1_555 1_555
O6_3 Co17 1_555 1_555
O55_2 C5_3 1_555 1_555
C1_3 C8_3 1_555 1_555
C2_3 O2_3 1_555 1_555
C5_3 C11_3 1_555 1_555
C8_3 C13_3 1_555 1_555
C9_3 C2_3 1_555 1_555
C11_3 C18_3 1_555 1_555
C13_3 C21_3 1_555 1_555
C14_3 C8_3 1_555 1_555
C15_3 C9_3 1_555 1_555
C16_3 C9_3 1_555 1_555
C18_3 C27_3 1_555 1_555
C19_3 C11_3 1_555 1_555
C21_3 C31_3 1_555 1_555
H7_3 C13_3 1_555 1_555
H8_3 C14_3 1_555 1_555
C22_3 C14_3 1_555 1_555
H9_3 C15_3 1_555 1_555
C23_3 C15_3 1_555 1_555
H10_3 C16_3 1_555 1_555
C24_3 C16_3 1_555 1_555
C27_3 C35_3 1_555 1_555
H11_3 C18_3 1_555 1_555
C28_3 C19_3 1_555 1_555
H12_3 C19_3 1_555 1_555
C31_3 C22_3 1_555 1_555
H13_3 C21_3 1_555 1_555
H14_3 C22_3 1_555 1_555
C32_3 C23_3 1_555 1_555
H15_3 C23_3 1_555 1_555
H16_3 C24_3 1_555 1_555
C35_3 C28_3 1_555 1_555
H19_3 C27_3 1_555 1_555
H20_3 C28_3 1_555 1_555
O9_3 C31_3 1_555 1_555
O10_3 C32_3 1_555 1_555
O11_3 C35_3 1_555 1_555
C40_3 O9_3 1_555 1_555
C41_3 O10_3 1_555 1_555
C42_3 O11_3 1_555 1_555
C43_3 C40_3 1_555 1_555
H27_3 C40_3 1_555 1_555
H28_3 C40_3 1_555 1_555
C44_4 C41_3 1_555 1_555
H29_3 C41_3 1_555 1_555
H30_3 C41_3 1_555 1_555
H31_3 C42_3 1_555 1_555
H32_3 C42_3 1_555 1_555
C45_3 C43_3 1_555 1_555
C46_3 C43_3 1_555 1_555
C47_3 C44_4 1_555 1_555
O12_3 C45_3 1_555 1_555
H33_3 C45_3 1_555 1_555
H34_3 C45_3 1_555 1_555
O13_3 C46_3 1_555 1_555
H35_3 C46_3 1_555 1_555
H36_3 C46_3 1_555 1_555
H37_3 C47_3 1_555 1_555
C48_3 O12_3 1_555 1_555
C49_3 O13_3 1_555 1_555
C51_3 C48_3 1_555 1_555
C52_3 C48_3 1_555 1_555
C53_3 C49_3 1_555 1_555
C54_3 C49_3 1_555 1_555
C57_3 C51_3 1_555 1_555
H39_3 C51_3 1_555 1_555
H40_3 C52_3 1_555 1_555
C58_3 C52_3 1_555 1_555
H41_3 C53_3 1_555 1_555
C59_3 C53_3 1_555 1_555
C60_3 C54_3 1_555 1_555
H42_3 C54_3 1_555 1_555
C63_3 C57_3 1_555 1_555
H45_3 C57_3 1_555 1_555
H46_3 C58_3 1_555 1_555
H47_3 C59_3 1_555 1_555
C64_3 C59_3 1_555 1_555
H48_3 C60_3 1_555 1_555
C66_3 C63_3 1_555 1_555
C67_3 C64_3 1_555 1_555
O15_3 C66_3 1_555 1_555
O16_3 C66_3 1_555 1_555
O59_2 C67_3 1_555 1_555
O61_2 C67_3 1_555 1_555
Co27 O16_3 1_555 1_555
O49 C104_3 1_555 1_555
O54 C104_3 1_555 1_555
C104_3 C105_3 1_555 1_555
C105_3 C106_3 1_555 1_555
C106_3 H77_3 1_555 1_555
C107_3 C105_3 1_555 1_555
C108_3 C106_3 1_555 1_555
H78_3 C107_3 1_555 1_555
C109_3 C107_3 1_555 1_555
C110_3 C108_3 1_555 1_555
H79_3 C108_3 1_555 1_555
H80_3 C109_3 1_555 1_555
O27_3 C110_3 1_555 1_555
C111_3 C44_4 1_555 1_555
H81_3 C111_3 1_555 1_555
H82_3 C111_3 1_555 1_555
C112_3 C44_4 1_555 1_555
H83_3 C112_3 1_555 1_555
O6_3 C2_3 1_555 1_555
C24_3 C32_3 1_555 1_555
C42_3 C43_3 1_555 1_555
C58_3 C63_3 1_555 1_555
C60_3 C64_3 1_555 1_555
C109_3 C110_3 1_555 1_555
O27_3 C111_3 1_555 1_555
O19_4 Co23 1_555 1_555
O63_2 C103_4 1_555 1_555
O65_2 C103_4 1_555 1_555
C69_4 O19_4 1_555 1_555
C74_4 C69_4 1_555 1_555
C77_4 C74_4 1_555 1_555
C78_4 C74_4 1_555 1_555
C81_4 C77_4 1_555 1_555
H57_4 C77_4 1_555 1_555
H58_4 C78_4 1_555 1_555
C82_4 C78_4 1_555 1_555
C87_4 C81_4 1_555 1_555
H59_4 C81_4 1_555 1_555
H60_4 C82_4 1_555 1_555
O23_4 C87_4 1_555 1_555
C94_4 O23_4 1_555 1_555
C95_6 C94_4 1_555 1_555
H69_4 C94_4 1_555 1_555
H70_4 C94_4 1_555 1_555
C96_4 C95_6 1_555 1_555
O24_4 C96_4 1_555 1_555
H71_4 C96_4 1_555 1_555
H72_4 C96_4 1_555 1_555
C97_4 O24_4 1_555 1_555
C98_4 C97_4 1_555 1_555
C99_4 C97_4 1_555 1_555
H73_4 C98_4 1_555 1_555
C100_4 C98_4 1_555 1_555
C101_4 C99_4 1_555 1_555
H74_4 C99_4 1_555 1_555
H75_4 C100_4 1_555 1_555
C102_4 C100_4 1_555 1_555
H76_4 C101_4 1_555 1_555
C103_4 C102_4 1_555 1_555
O31_4 C138_4 1_555 1_555
O32_4 C138_4 1_555 1_555
C138_4 C139_4 1_555 1_555
C139_4 C140_4 1_555 1_555
C140_4 C142_4 1_555 1_555
C141_4 C139_4 1_555 1_555
C142_4 C144_4 1_555 1_555
H103_4 C140_4 1_555 1_555
H104_4 C141_4 1_555 1_555
C143_4 C141_4 1_555 1_555
C144_4 C143_4 1_555 1_555
H105_4 C142_4 1_555 1_555
H106_4 C143_4 1_555 1_555
O33_4 C144_4 1_555 1_555
C145_4 C95_6 1_555 1_555
H107_4 C145_4 1_555 1_555
H108_4 C145_4 1_555 1_555
C146_4 C95_6 1_555 1_555
O34_4 C146_4 1_555 1_555
H109_4 C146_4 1_555 1_555
H110_4 C146_4 1_555 1_555
C147_4 O34_4 1_555 1_555
C148_4 C147_4 1_555 1_555
C149_4 C147_4 1_555 1_555
H111_4 C148_4 1_555 1_555
C150_4 C148_4 1_555 1_555
C151_4 C149_4 1_555 1_555
H112_4 C149_4 1_555 1_555
H113_4 C150_4 1_555 1_555
C152_4 C150_4 1_555 1_555
H114_4 C151_4 1_555 1_555
C153_4 C152_4 1_555 1_555
O64_2 C153_4 1_555 1_555
O66_2 C153_4 1_555 1_555
Co20 O39_4 1_555 1_555
O37_4 C172_4 1_555 1_555
O51 C173_4 1_555 1_555
O39_4 C172_4 1_555 1_555
O56 C173_4 1_555 1_555
C172_4 C174_4 1_555 1_555
C173_4 C175_4 1_555 1_555
C174_4 C176_4 1_555 1_555
C175_4 C178_4 1_555 1_555
C176_4 C180_4 1_555 1_555
C177_4 C174_4 1_555 1_555
C178_4 C182_4 1_555 1_555
C179_4 C175_4 1_555 1_555
C180_4 C184_4 1_555 1_555
H129_4 C176_4 1_555 1_555
H130_4 C177_4 1_555 1_555
C181_4 C177_4 1_555 1_555
C182_4 C185_4 1_555 1_555
H131_4 C178_4 1_555 1_555
C183_4 C179_4 1_555 1_555
H132_4 C179_4 1_555 1_555
C184_4 C181_4 1_555 1_555
H133_4 C180_4 1_555 1_555
H134_4 C181_4 1_555 1_555
C185_4 C183_4 1_555 1_555
H135_4 C182_4 1_555 1_555
H136_4 C183_4 1_555 1_555
O41_4 C184_4 1_555 1_555
O42_4 C185_4 1_555 1_555
C186_4 O41_4 1_555 1_555
C187_4 O42_4 1_555 1_555
C188_4 C186_4 1_555 1_555
H137_4 C186_4 1_555 1_555
H138_4 C186_4 1_555 1_555
H139_4 C187_4 1_555 1_555
H140_4 C187_4 1_555 1_555
C189_4 C188_4 1_555 1_555
C190_4 C188_4 1_555 1_555
O43_4 C189_4 1_555 1_555
H141_4 C189_4 1_555 1_555
H142_4 C189_4 1_555 1_555
O44_4 C190_4 1_555 1_555
H143_4 C190_4 1_555 1_555
H144_4 C190_4 1_555 1_555
C191_4 O43_4 1_555 1_555
C192_4 O44_4 1_555 1_555
C193_4 C191_4 1_555 1_555
C194_4 C191_4 1_555 1_555
C195_4 C192_4 1_555 1_555
C196_4 C192_4 1_555 1_555
C197_4 C193_4 1_555 1_555
H145_4 C193_4 1_555 1_555
H146_4 C194_4 1_555 1_555
C198_4 C194_4 1_555 1_555
H147_4 C195_4 1_555 1_555
C199_4 C195_4 1_555 1_555
C200_4 C196_4 1_555 1_555
H148_4 C196_4 1_555 1_555
C201_4 C197_4 1_555 1_555
H149_4 C197_4 1_555 1_555
H150_4 C198_4 1_555 1_555
H151_4 C199_4 1_555 1_555
C202_4 C199_4 1_555 1_555
H152_4 C200_4 1_555 1_555
C203_4 C201_4 1_555 1_555
C204_4 C202_4 1_555 1_555
O45_4 C203_4 1_555 1_555
O46_4 C203_4 1_555 1_555
O60 C204_4 1_555 1_555
O62 C204_4 1_555 1_555
Co25 O31_4 1_555 1_555
Co30 O32_4 1_555 1_555
O54_2 Co20 1_555 1_555
O21_4 C69_4 1_555 1_555
C82_4 C87_4 1_555 1_555
C101_4 C102_4 1_555 1_555
O33_4 C145_4 1_555 1_555
C151_4 C152_4 1_555 1_555
C187_4 C188_4 1_555 1_555
C198_4 C201_4 1_555 1_555
C200_4 C202_4 1_555 1_555
O45_4 Co25 1_555 1_555
O46_4 Co30 1_555 1_555
Co12 O1_4 1_555 1_555
Co18 O5_4 1_555 1_555
O1_4 C1_4 1_555 1_555
O2_4 Co12 1_555 1_555
O50 C5_4 1_555 1_555
O5_4 C1_4 1_555 1_555
O6_4 Co18 1_555 1_555
O55 C5_4 1_555 1_555
C1_4 C8_4 1_555 1_555
C2_4 O2_4 1_555 1_555
C5_4 C11_4 1_555 1_555
C8_4 C13_4 1_555 1_555
C9_4 C2_4 1_555 1_555
C11_4 C18_4 1_555 1_555
C13_4 C21_4 1_555 1_555
C14_4 C8_4 1_555 1_555
C15_4 C9_4 1_555 1_555
C16_4 C9_4 1_555 1_555
C18_4 C27_4 1_555 1_555
C19_4 C11_4 1_555 1_555
C21_4 C31_4 1_555 1_555
H7_4 C13_4 1_555 1_555
H8_4 C14_4 1_555 1_555
C22_4 C14_4 1_555 1_555
H9_4 C15_4 1_555 1_555
C23_4 C15_4 1_555 1_555
C27_4 C35_4 1_555 1_555
H11_4 C18_4 1_555 1_555
C28_4 C19_4 1_555 1_555
H12_4 C19_4 1_555 1_555
C31_4 C22_4 1_555 1_555
H13_4 C21_4 1_555 1_555
H14_4 C22_4 1_555 1_555
C32_4 C23_4 1_555 1_555
H15_4 C23_4 1_555 1_555
C35_4 C28_4 1_555 1_555
H19_4 C27_4 1_555 1_555
H20_4 C28_4 1_555 1_555
O9_4 C31_4 1_555 1_555
O10_4 C32_4 1_555 1_555
O11_4 C35_4 1_555 1_555
C40_4 O9_4 1_555 1_555
C41_4 O10_4 1_555 1_555
C42_4 O11_4 1_555 1_555
C43_4 C40_4 1_555 1_555
H27_4 C40_4 1_555 1_555
H28_4 C40_4 1_555 1_555
C44_5 C41_4 1_555 1_555
H29_4 C41_4 1_555 1_555
H30_4 C41_4 1_555 1_555
H31_4 C42_4 1_555 1_555
H32_4 C42_4 1_555 1_555
C45_4 C43_4 1_555 1_555
C46_4 C43_4 1_555 1_555
O12_4 C45_4 1_555 1_555
H33_4 C45_4 1_555 1_555
H34_4 C45_4 1_555 1_555
O13_4 C46_4 1_555 1_555
H35_4 C46_4 1_555 1_555
H36_4 C46_4 1_555 1_555
C48_4 O12_4 1_555 1_555
C49_4 O13_4 1_555 1_555
C51_4 C48_4 1_555 1_555
C52_4 C48_4 1_555 1_555
C53_4 C49_4 1_555 1_555
C54_4 C49_4 1_555 1_555
C57_4 C51_4 1_555 1_555
H39_4 C51_4 1_555 1_555
H40_4 C52_4 1_555 1_555
C58_4 C52_4 1_555 1_555
H41_4 C53_4 1_555 1_555
C59_4 C53_4 1_555 1_555
C60_4 C54_4 1_555 1_555
H42_4 C54_4 1_555 1_555
C61_4 C55_4 1_555 1_555
H43_4 C55_4 1_555 1_555
C63_4 C57_4 1_555 1_555
H45_4 C57_4 1_555 1_555
H46_4 C58_4 1_555 1_555
H47_4 C59_4 1_555 1_555
C64_4 C59_4 1_555 1_555
H48_4 C60_4 1_555 1_555
H49_4 C61_4 1_555 1_555
C66_4 C63_4 1_555 1_555
C67_4 C64_4 1_555 1_555
O15_4 C66_4 1_555 1_555
O16_4 C66_4 1_555 1_555
O59 C67_4 1_555 1_555
O61 C67_4 1_555 1_555
Co28 O16_4 1_555 1_555
H80_4 C109_4 1_555 1_555
C112_4 C44_5 1_555 1_555
H83_4 C112_4 1_555 1_555
H84_4 C112_4 1_555 1_555
C115_4 C113_4 1_555 1_555
H86_4 C115_4 1_555 1_555
C117_4 C115_4 1_555 1_555
H88_4 C117_4 1_555 1_555
C119_4 C118_4 1_555 1_555
O53_2 C119_4 1_555 1_555
O58_2 C119_4 1_555 1_555
O6_4 C2_4 1_555 1_555
C42_4 C43_4 1_555 1_555
C58_4 C63_4 1_555 1_555
C60_4 C64_4 1_555 1_555
C117_4 C118_4 1_555 1_555
O52_2 C68_4 1_555 1_555
O57_2 C68_4 1_555 1_555
H16_4 C24_4 1_555 1_555
C47_4 C44_6 1_555 1_555
H37_4 C47_4 1_555 1_555
H38_4 C47_4 1_555 1_555
C56_4 C50_4 1_555 1_555
H44_4 C56_4 1_555 1_555
C62_4 C56_4 1_555 1_555
H50_4 C62_4 1_555 1_555
C68_4 C65_4 1_555 1_555
O49_2 C104_4 1_555 1_555
O54_2 C104_4 1_555 1_555
C104_4 C105_4 1_555 1_555
C105_4 C106_4 1_555 1_555
C106_4 H77_4 1_555 1_555
C107_4 C105_4 1_555 1_555
C108_4 C106_4 1_555 1_555
C110_4 C108_4 1_555 1_555
H79_4 C108_4 1_555 1_555
O27_4 C110_4 1_555 1_555
C111_4 C44_6 1_555 1_555
H81_4 C111_4 1_555 1_555
H82_4 C111_4 1_555 1_555
C116_4 C114_4 1_555 1_555
H85_4 C114_4 1_555 1_555
H87_4 C116_4 1_555 1_555
C62_4 C65_4 1_555 1_555
O27_4 C111_4 1_555 1_555

#END
