
###############################################################################
#
# This file contains modified crystal structure data generated from the
# MOF subset of the Cambridge Structural Database (CSD) v543 
# hosted by the Cambridge Crystallographic Data Centre (CCDC).
#
# This work is licensed under the Creative Commons
# Attribution-NonCommercial-ShareAlike 4.0 International License.
# To view a copy of this license, visit
# http://creativecommons.org/licenses/by-nc-sa/4.0/
# or send a letter to
# Creative Commons, PO Box 1866, Mountain View, CA 94042, USA.
#
# CIF created using the CSD Python API on 29 September 2022
# The structure has been converted into the P1 space group
# The structure has a 3D framework
# The original CSD entry PEKDAM is in the monoclinic crystal system
# The framework has been calculated to contain at least 10.0% void space
# The void calculation uses a probe of radius 1.32A, grid spacing 0.4
# H atom positions have been added when not included in the experimental data
#
###############################################################################

data_PEKDAM
_chemical_formula_moiety         '(C232 H232 Mn12 N8 O86)n'
_symmetry_cell_setting           triclinic
_symmetry_space_group_name_H-M   'P 1'
_symmetry_Int_Tables_number      1
_space_group_name_Hall           'P 1'
loop_
_symmetry_equiv_pos_site_id
_symmetry_equiv_pos_as_xyz
1 x,y,z
_cell_length_a                   26.4180(14)
_cell_length_b                   10.3733(6)
_cell_length_c                   34.2804(18)
_cell_angle_alpha                90
_cell_angle_beta                 103.1380(10)
_cell_angle_gamma                90
_cell_volume                     9148.37
loop_
_atom_site_label
_atom_site_type_symbol
_atom_site_fract_x
_atom_site_fract_y
_atom_site_fract_z
Mn1 Mn 0.16762(3) 0.23200(7) 0.16207(3)
Mn3 Mn 0.23421(3) 0.54061(7) 0.18162(2)
N1 N 0.3256(2) 0.6268(6) 0.09587(18)
C14 C 0.0909(3) 0.4105(6) 0.00109(18)
C15 C 0.1203(2) 0.3900(5) 0.04029(17)
H14 H 0.1298 0.3066 0.0488
C16 C 0.1352(2) 0.4918(5) 0.06616(16)
C17 C 0.1215(2) 0.6173(5) 0.05309(15)
H15 H 0.1310 0.6866 0.0704
C18 C 0.0939(2) 0.6380(5) 0.01458(16)
H16 H 0.0855 0.7217 0.0057
C19 C 0.1666(2) 0.4721(5) 0.10794(17)
C35 C 0.0126(2) 0.2477(5) 0.07895(16)
C36 C 0.0098(2) 0.3824(5) 0.07922(17)
H31 H 0.0338 0.4292 0.0980
C38 C 0.0546(2) 0.1785(5) 0.10873(16)
C53 C 0.2880(3) 0.5984(8) 0.1135(2)
H41 H 0.2545 0.6178 0.0995
C54 C 0.3193(4) 0.6826(15) 0.0569(3)
H42 H 0.2830 0.6903 0.0446
H43 H 0.3357 0.6284 0.0406
H44 H 0.3351 0.7664 0.0592
C55 C 0.3784(3) 0.6065(11) 0.1176(3)
H45 H 0.3786 0.5697 0.1433
H46 H 0.3965 0.6875 0.1211
H47 H 0.3954 0.5488 0.1027
O3 O 0.25177(14) 0.7453(3) 0.19086(12)
O9 O 0.18705(14) 0.3648(3) 0.11849(11)
O10 O 0.17191(13) 0.5693(3) 0.13130(11)
O16 O 0.08853(14) 0.2476(4) 0.13050(11)
O17 O 0.05173(15) 0.0577(4) 0.10964(12)
O22 O 0.29230(17) 0.5502(4) 0.14579(13)
O24 O 0.15415(14) 0.3789(3) 0.20319(12)
O25 O 0.19333(15) 0.5591(4) 0.22803(12)
O26 O 0.28283(15) 0.4027(4) 0.21661(13)
O27 O 0.24646(13) 0.2136(3) 0.19516(11)
O28 O 0.18329(14) 0.0841(4) 0.12256(12)
O30 O 0.14583(14) 0.0922(4) 0.20317(12)
H55 H 0.22085 0.790945 0.195926
H56 H 0.281458 0.756425 0.214263
C2 C 0.0304(2) 0.6214(6) 0.86681(17)
H1 H 0.0407 0.6984 0.8827
H2 H 0.0113 0.6472 0.8404
C3 C 0.0278(2) 0.4697(6) 0.92425(17)
H3 H 0.0544 0.4155 0.9174
H4 H 0.0055 0.4163 0.9364
C6 C 0.0939(2) 0.5548(5) 0.83039(16)
C7 C 0.0851(2) 0.6527(5) 0.80248(17)
H9 H 0.0637 0.7217 0.8053
C8 C 0.1087(2) 0.6471(5) 0.76991(16)
H10 H 0.1032 0.7134 0.7512
C9 C 0.1398(2) 0.5450(5) 0.76523(16)
C10 C 0.1489(3) 0.4491(6) 0.79375(19)
H11 H 0.1705 0.3805 0.7909
C11 C 0.1265(2) 0.4528(6) 0.82659(18)
H12 H 0.1332 0.3880 0.8458
C12 C 0.1645(2) 0.5356(5) 0.72946(17)
C13 C 0.0784(2) 0.5343(6) 0.98872(17)
H13 H 0.0801 0.3414 0.9839
O4 O 0.07449(15) 0.5491(5) 0.86399(12)
O5 O 0.05121(17) 0.5694(4) 0.95149(12)
O7 O 0.15415(14) 0.6211(3) 0.70319(12)
O8 O 0.19333(15) 0.4409(4) 0.72803(12)
Mn4 Mn 0.16762(3) 0.76800(7) 0.66207(3)
Mn9 Mn 0.23421(3) 0.45939(7) 0.68162(2)
Mn2 Mn 0.10180(2) 0.92343(7) 0.14474(2)
N2 N 0.0140(2) 0.8264(5) 0.23306(16)
C56 C 0.0504(2) 0.8441(6) 0.21338(19)
H48 H 0.0822 0.8035 0.2229
C57 C 0.0230(3) 0.7417(10) 0.2675(2)
H49 H 0.0581 0.7104 0.2728
H51 H 0.0176 0.7884 0.2904
O1 O 0.08607(15) 0.7177(3) 0.13609(12)
O23 O 0.04537(15) 0.9112(4) 0.18286(13)
O29 O 0.14248(16) 0.9037(4) 0.09832(12)
O31 O 0.16493(14) 0.8886(3) 0.19545(11)
H57 H 0.0863921 0.693705 0.108105
H58 H 0.113208 0.667923 0.154894
C32 C 0.9370(2) 0.3787(6) 0.02300(18)
C33 C 0.9392(2) 0.2452(6) 0.02177(19)
H29 H 0.9161 0.1990 0.0023
C34 C 0.9770(2) 0.1820(6) 0.05051(18)
H30 H 0.9780 0.0924 0.0504
C37 C 0.9721(2) 0.4457(6) 0.05201(18)
H32 H 0.9701 0.5351 0.0530
C40 C 0.7527(2) 0.6048(6) 0.02368(17)
H33 H 0.7720 0.6759 0.0190
C41 C 0.7283(2) 0.6051(5) 0.05597(17)
H34 H 0.7322 0.6753 0.0733
C42 C 0.6981(2) 0.4999(5) 0.06215(16)
C43 C 0.6936(3) 0.3978(6) 0.03614(19)
H35 H 0.6729 0.3280 0.0396
C44 C 0.7189(3) 0.3956(6) 0.00486(19)
C45 C 0.6731(2) 0.4964(5) 0.09681(16)
O18 O 0.68329(14) 0.5841(4) 0.12256(12)
O19 O 0.64248(16) 0.4037(4) 0.09832(12)
Mn5 Mn 0.66762(3) 0.73200(7) 0.16207(3)
Mn7 Mn 0.60180(2) 0.42343(7) 0.14474(2)
C1 C 0.9962(2) 0.5348(6) 0.88701(17)
C4 C 0.9540(2) 0.6188(5) 0.89734(17)
H5 H 0.9337 0.6567 0.8732
H6 H 0.9697 0.6858 0.9154
C5 C 0.9713(2) 0.4278(6) 0.85805(18)
H7 H 0.9508 0.3711 0.8708
H8 H 0.9979 0.3771 0.8498
C20 C 0.9022(2) 0.4164(5) 0.79945(16)
C21 C 0.8649(2) 0.4870(5) 0.77274(16)
H17 H 0.8660 0.5767 0.7729
C22 C 0.82585(19) 0.4224(5) 0.74575(16)
H18 H 0.8010 0.4690 0.7276
C23 C 0.82381(19) 0.2891(5) 0.74570(16)
C24 C 0.8615(2) 0.2200(5) 0.77255(17)
H19 H 0.8607 0.1304 0.7722
C25 C 0.9004(2) 0.2837(5) 0.79992(17)
H20 H 0.9250 0.2373 0.8183
C26 C 0.78075(19) 0.2192(5) 0.71667(16)
C27 C 0.8429(2) 0.5074(6) 0.93697(16)
C28 C 0.8712(2) 0.3971(6) 0.96196(17)
H21 H 0.8464 0.3364 0.9686
H22 H 0.8931 0.3518 0.9473
C29 C 0.8095(2) 0.5794(7) 0.96053(18)
H23 H 0.8305 0.6091 0.9859
H24 H 0.7930 0.6534 0.9455
C30 C 0.8107(2) 0.4534(6) 0.89872(18)
H25 H 0.8329 0.4116 0.8836
H26 H 0.7864 0.3901 0.9045
C31 C 0.8823(2) 0.6047(6) 0.92735(19)
H27 H 0.8647 0.6680 0.9082
H28 H 0.8998 0.6494 0.9515
C39 C 0.7482(2) 0.5006(7) 0.99926(16)
H36 H 0.7161 0.3245 0.9880
C46 C 0.7565(2) 0.5357(6) 0.83749(17)
C47 C 0.7440(2) 0.4145(5) 0.82001(17)
H37 H 0.7552 0.3400 0.8345
C48 C 0.7150(2) 0.4062(5) 0.78143(18)
H38 H 0.7054 0.3256 0.7704
C49 C 0.69974(19) 0.5160(5) 0.75856(16)
C50 C 0.7138(2) 0.6379(5) 0.77641(16)
H39 H 0.7044 0.7125 0.7615
C51 C 0.7414(2) 0.6473(5) 0.81578(17)
H40 H 0.7497 0.7276 0.8275
C52 C 0.66937(19) 0.5096(5) 0.71689(16)
O2 O 0.91874(18) 0.5356(4) 0.91120(15)
O6 O 0.93916(16) 0.4896(4) 0.82438(12)
O11 O 0.78283(15) 0.0973(4) 0.71661(13)
O12 O 0.74646(13) 0.2864(3) 0.69516(11)
O13 O 0.90201(16) 0.4538(4) 0.99767(13)
O14 O 0.77068(16) 0.4881(5) 0.96695(12)
O15 O 0.78338(17) 0.5573(4) 0.87630(13)
O20 O 0.64583(14) 0.4078(4) 0.70317(12)
O21 O 0.66493(14) 0.6114(3) 0.69545(11)
Mn6 Mn 0.66762(3) 0.26800(7) 0.66207(3)
Mn8 Mn 0.60180(2) 0.57657(7) 0.64474(2)
Mn10 Mn 0.73421(3) 0.95939(7) 0.68162(2)
Mn2_2 Mn 0.10180(2) 0.07657(7) 0.64474(2)
N2_2 N 0.0140(2) 0.1736(5) 0.73306(16)
C56_2 C 0.0504(2) 0.1559(6) 0.71338(19)
H48_2 H 0.0822 0.1965 0.7229
C57_2 C 0.0230(3) 0.2583(10) 0.7675(2)
H49_2 H 0.0581 0.2896 0.7728
H51_2 H 0.0176 0.2116 0.7904
O1_2 O 0.08607(15) 0.2823(3) 0.63609(12)
O23_2 O 0.04537(15) 0.0888(4) 0.68286(13)
O29_2 O 0.14248(16) 0.0963(4) 0.59832(12)
O31_2 O 0.16493(14) 0.1114(3) 0.69545(11)
H57_2 H 0.0863921 0.306295 0.608105
H58_2 H 0.113208 0.332077 0.654894
N1_2 N 0.3256(2) 0.3732(6) 0.59587(18)
C2_2 C 0.0304(2) 0.3786(6) 0.36681(17)
H1_2 H 0.0407 0.3016 0.3827
H2_2 H 0.0113 0.3528 0.3404
C3_2 C 0.0278(2) 0.5303(6) 0.42425(17)
H3_2 H 0.0544 0.5845 0.4174
H4_2 H 0.0055 0.5837 0.4364
C6_2 C 0.0939(2) 0.4452(5) 0.33039(16)
C7_2 C 0.0851(2) 0.3473(5) 0.30248(17)
H9_2 H 0.0637 0.2783 0.3053
C8_2 C 0.1087(2) 0.3529(5) 0.26991(16)
H10_2 H 0.1032 0.2866 0.2512
C9_2 C 0.1398(2) 0.4550(5) 0.26523(16)
C10_2 C 0.1489(3) 0.5509(6) 0.29375(19)
H11_2 H 0.1705 0.6195 0.2909
C11_2 C 0.1265(2) 0.5472(6) 0.32659(18)
H12_2 H 0.1332 0.6120 0.3458
C12_2 C 0.1645(2) 0.4644(5) 0.22946(17)
C13_2 C 0.0784(2) 0.4657(6) 0.48872(17)
C14_2 C 0.0909(3) 0.5895(6) 0.50109(18)
H13_2 H 0.0801 0.6586 0.4839
C15_2 C 0.1203(2) 0.6100(5) 0.54029(17)
H14_2 H 0.1298 0.6934 0.5488
C16_2 C 0.1352(2) 0.5082(5) 0.56616(16)
C17_2 C 0.1215(2) 0.3827(5) 0.55309(15)
H15_2 H 0.1310 0.3134 0.5704
C18_2 C 0.0939(2) 0.3620(5) 0.51458(16)
H16_2 H 0.0855 0.2783 0.5057
C19_2 C 0.1666(2) 0.5279(5) 0.60794(17)
C35_2 C 0.0126(2) 0.7523(5) 0.57895(16)
C36_2 C 0.0098(2) 0.6176(5) 0.57922(17)
H31_2 H 0.0338 0.5708 0.5980
C38_2 C 0.0546(2) 0.8215(5) 0.60873(16)
C53_2 C 0.2880(3) 0.4016(8) 0.6135(2)
H41_2 H 0.2545 0.3822 0.5995
C54_2 C 0.3193(4) 0.3174(15) 0.5569(3)
H42_2 H 0.2830 0.3097 0.5446
H43_2 H 0.3357 0.3716 0.5406
H44_2 H 0.3351 0.2336 0.5592
C55_2 C 0.3784(3) 0.3935(11) 0.6176(3)
H45_2 H 0.3786 0.4303 0.6433
H46_2 H 0.3965 0.3125 0.6211
H47_2 H 0.3954 0.4512 0.6027
O3_2 O 0.25177(14) 0.2547(3) 0.69086(12)
O4_2 O 0.07449(15) 0.4509(5) 0.36399(12)
O5_2 O 0.05121(17) 0.4306(4) 0.45149(12)
O9_2 O 0.18705(14) 0.6352(3) 0.61849(11)
O10_2 O 0.17191(13) 0.4307(3) 0.63130(11)
O16_2 O 0.08853(14) 0.7524(4) 0.63050(11)
O17_2 O 0.05173(15) 0.9423(4) 0.60964(12)
O22_2 O 0.29230(17) 0.4498(4) 0.64579(13)
O26_2 O 0.28283(15) 0.5973(4) 0.71661(13)
O27_2 O 0.24646(13) 0.7864(3) 0.69516(11)
O28_2 O 0.18329(14) 0.9159(4) 0.62256(12)
O30_2 O 0.14583(14) 0.9078(4) 0.70317(12)
H55_2 H 0.22085 0.209055 0.695926
H56_2 H 0.281458 0.243575 0.714263
H50 H 0.9994 0.3297 0.7622
C58 C 0.9643(3) 0.1182(10) 0.7199(3)
H52 H 0.9640 0.0642 0.6971
H53 H 0.9563 0.0674 0.7411
H54 H 0.9389 0.1853 0.7126
Mn10_2 Mn 0.73421(3) 0.04061(7) 0.18162(2)
C1_2 C 0.9962(2) 0.4652(6) 0.38701(17)
C4_2 C 0.9540(2) 0.3812(5) 0.39734(17)
H5_2 H 0.9337 0.3433 0.3732
H6_2 H 0.9697 0.3142 0.4154
C5_2 C 0.9713(2) 0.5722(6) 0.35805(18)
H7_2 H 0.9508 0.6289 0.3708
H8_2 H 0.9979 0.6229 0.3498
C20_2 C 0.9022(2) 0.5836(5) 0.29945(16)
C21_2 C 0.8649(2) 0.5130(5) 0.27274(16)
H17_2 H 0.8660 0.4233 0.2729
C22_2 C 0.82585(19) 0.5776(5) 0.24575(16)
H18_2 H 0.8010 0.5310 0.2276
C23_2 C 0.82381(19) 0.7109(5) 0.24570(16)
C24_2 C 0.8615(2) 0.7800(5) 0.27255(17)
H19_2 H 0.8607 0.8696 0.2722
C25_2 C 0.9004(2) 0.7163(5) 0.29992(17)
H20_2 H 0.9250 0.7627 0.3183
C26_2 C 0.78075(19) 0.7808(5) 0.21667(16)
C27_2 C 0.8429(2) 0.4926(6) 0.43697(16)
C28_2 C 0.8712(2) 0.6029(6) 0.46196(17)
H21_2 H 0.8464 0.6636 0.4686
H22_2 H 0.8931 0.6482 0.4473
C29_2 C 0.8095(2) 0.4206(7) 0.46053(18)
H23_2 H 0.8305 0.3909 0.4859
H24_2 H 0.7930 0.3466 0.4455
C30_2 C 0.8107(2) 0.5466(6) 0.39872(18)
H25_2 H 0.8329 0.5884 0.3836
H26_2 H 0.7864 0.6099 0.4045
C31_2 C 0.8823(2) 0.3953(6) 0.42735(19)
H27_2 H 0.8647 0.3320 0.4082
H28_2 H 0.8998 0.3506 0.4515
C32_2 C 0.9370(2) 0.6213(6) 0.52300(18)
C33_2 C 0.9392(2) 0.7548(6) 0.52177(19)
H29_2 H 0.9161 0.8010 0.5023
C34_2 C 0.9770(2) 0.8180(6) 0.55051(18)
H30_2 H 0.9780 0.9076 0.5504
C37_2 C 0.9721(2) 0.5543(6) 0.55201(18)
H32_2 H 0.9701 0.4649 0.5530
C39_2 C 0.7482(2) 0.4994(7) 0.49926(16)
C40_2 C 0.7527(2) 0.3952(6) 0.52368(17)
H33_2 H 0.7720 0.3241 0.5190
C41_2 C 0.7283(2) 0.3949(5) 0.55597(17)
H34_2 H 0.7322 0.3247 0.5733
C42_2 C 0.6981(2) 0.5001(5) 0.56215(16)
C43_2 C 0.6936(3) 0.6022(6) 0.53614(19)
H35_2 H 0.6729 0.6720 0.5396
C44_2 C 0.7189(3) 0.6044(6) 0.50486(19)
H36_2 H 0.7161 0.6755 0.4880
C45_2 C 0.6731(2) 0.5036(5) 0.59681(16)
C46_2 C 0.7565(2) 0.4643(6) 0.33749(17)
C47_2 C 0.7440(2) 0.5855(5) 0.32001(17)
H37_2 H 0.7552 0.6600 0.3345
C48_2 C 0.7150(2) 0.5938(5) 0.28143(18)
H38_2 H 0.7054 0.6744 0.2704
C49_2 C 0.69974(19) 0.4840(5) 0.25856(16)
C50_2 C 0.7138(2) 0.3621(5) 0.27641(16)
H39_2 H 0.7044 0.2875 0.2615
C51_2 C 0.7414(2) 0.3527(5) 0.31578(17)
H40_2 H 0.7497 0.2724 0.3275
C52_2 C 0.66937(19) 0.4904(5) 0.21689(16)
O2_2 O 0.91874(18) 0.4644(4) 0.41120(15)
O6_2 O 0.93916(16) 0.5104(4) 0.32438(12)
O11_2 O 0.78283(15) 0.9027(4) 0.21661(13)
O12_2 O 0.74646(13) 0.7136(3) 0.19516(11)
O13_2 O 0.90201(16) 0.5462(4) 0.49767(13)
O14_2 O 0.77068(16) 0.5119(5) 0.46695(12)
O15_2 O 0.78338(17) 0.4427(4) 0.37630(13)
O18_2 O 0.68329(14) 0.4159(4) 0.62256(12)
O19_2 O 0.64248(16) 0.5963(4) 0.59832(12)
O20_2 O 0.64583(14) 0.5922(4) 0.20317(12)
O21_2 O 0.66493(14) 0.3886(3) 0.19545(11)
N1_3 N 0.8256(2) 0.1268(6) 0.09587(18)
C17_3 C 0.6215(2) 0.1173(5) 0.05309(15)
H15_3 H 0.6310 0.1866 0.0704
C18_3 C 0.5939(2) 0.1380(5) 0.01458(16)
H16_3 H 0.5855 0.2217 0.0057
H32_3 H 0.4701 0.0351 0.0530
C40_3 C 0.2527(2) 0.1048(6) 0.02368(17)
H33_3 H 0.2720 0.1759 0.0190
C41_3 C 0.2283(2) 0.1051(5) 0.05597(17)
H34_3 H 0.2322 0.1753 0.0733
C53_3 C 0.7880(3) 0.0984(8) 0.1135(2)
H41_3 H 0.7545 0.1178 0.0995
C54_3 C 0.8193(4) 0.1826(15) 0.0569(3)
H42_3 H 0.7830 0.1903 0.0446
H43_3 H 0.8357 0.1284 0.0406
H44_3 H 0.8351 0.2664 0.0592
C55_3 C 0.8784(3) 0.1065(11) 0.1176(3)
H45_3 H 0.8786 0.0697 0.1433
H46_3 H 0.8965 0.1875 0.1211
H47_3 H 0.8954 0.0488 0.1027
O3_3 O 0.75177(14) 0.2453(3) 0.19086(12)
O10_3 O 0.67191(13) 0.0693(3) 0.13130(11)
O22_3 O 0.79230(17) 0.0502(4) 0.14579(13)
O25_2 O 0.69333(15) 0.0591(4) 0.22803(12)
H55_3 H 0.72085 0.290945 0.195926
H56_3 H 0.781458 0.256425 0.214263
C1_3 C 0.4962(2) 0.0348(6) 0.88701(17)
C2_3 C 0.5304(2) 0.1214(6) 0.86681(17)
H1_3 H 0.5407 0.1984 0.8827
H2_3 H 0.5113 0.1472 0.8404
C4_3 C 0.4540(2) 0.1188(5) 0.89734(17)
H5_3 H 0.4337 0.1567 0.8732
H6_3 H 0.4697 0.1858 0.9154
C6_3 C 0.5939(2) 0.0548(5) 0.83039(16)
C7_3 C 0.5851(2) 0.1527(5) 0.80248(17)
H9_3 H 0.5637 0.2217 0.8053
C8_3 C 0.6087(2) 0.1471(5) 0.76991(16)
H10_3 H 0.6032 0.2134 0.7512
C9_3 C 0.6398(2) 0.0450(5) 0.76523(16)
C12_3 C 0.6645(2) 0.0356(5) 0.72946(17)
C13_3 C 0.5784(2) 0.0343(6) 0.98872(17)
H17_3 H 0.3660 0.0767 0.7729
C27_3 C 0.3429(2) 0.0074(6) 0.93697(16)
C29_3 C 0.3095(2) 0.0794(7) 0.96053(18)
H23_3 H 0.3305 0.1091 0.9859
H24_3 H 0.2930 0.1534 0.9455
C31_3 C 0.3823(2) 0.1047(6) 0.92735(19)
H27_3 H 0.3647 0.1680 0.9082
H28_3 H 0.3998 0.1494 0.9515
C39_3 C 0.2482(2) 0.0006(7) 0.99926(16)
C46_3 C 0.2565(2) 0.0357(6) 0.83749(17)
C49_3 C 0.19974(19) 0.0160(5) 0.75856(16)
C50_3 C 0.2138(2) 0.1379(5) 0.77641(16)
H39_3 H 0.2044 0.2125 0.7615
C51_3 C 0.2414(2) 0.1473(5) 0.81578(17)
H40_3 H 0.2497 0.2276 0.8275
C52_3 C 0.16937(19) 0.0096(5) 0.71689(16)
O2_3 O 0.41874(18) 0.0356(4) 0.91120(15)
O4_3 O 0.57449(15) 0.0491(5) 0.86399(12)
O5_3 O 0.55121(17) 0.0694(4) 0.95149(12)
O7_2 O 0.65415(14) 0.1211(3) 0.70319(12)
O15_3 O 0.28338(17) 0.0573(4) 0.87630(13)
N2_3 N 0.5140(2) 0.3264(5) 0.23306(16)
C14_3 C 0.5909(3) 0.9105(6) 0.00109(18)
C15_3 C 0.6203(2) 0.8900(5) 0.04029(17)
H14_3 H 0.6298 0.8066 0.0488
C16_3 C 0.6352(2) 0.9918(5) 0.06616(16)
C19_3 C 0.6666(2) 0.9721(5) 0.10794(17)
C32_3 C 0.4370(2) 0.8787(6) 0.02300(18)
C33_3 C 0.4392(2) 0.7452(6) 0.02177(19)
H29_3 H 0.4161 0.6990 0.0023
C34_3 C 0.4770(2) 0.6820(6) 0.05051(18)
H30_3 H 0.4780 0.5924 0.0504
C35_3 C 0.5126(2) 0.7477(5) 0.07895(16)
C36_3 C 0.5098(2) 0.8824(5) 0.07922(17)
H31_3 H 0.5338 0.9292 0.0980
C37_3 C 0.4721(2) 0.9457(6) 0.05201(18)
C38_3 C 0.5546(2) 0.6785(5) 0.10873(16)
C42_3 C 0.1981(2) 0.9999(5) 0.06215(16)
C43_3 C 0.1936(3) 0.8978(6) 0.03614(19)
H35_3 H 0.1729 0.8280 0.0396
C44_3 C 0.2189(3) 0.8956(6) 0.00486(19)
C45_3 C 0.1731(2) 0.9964(5) 0.09681(16)
C56_3 C 0.5504(2) 0.3441(6) 0.21338(19)
H48_3 H 0.5822 0.3035 0.2229
C57_3 C 0.5230(3) 0.2417(10) 0.2675(2)
H49_3 H 0.5581 0.2104 0.2728
H50_2 H 0.4994 0.1703 0.2622
H51_3 H 0.5176 0.2884 0.2904
C58_2 C 0.4643(3) 0.3818(10) 0.2199(3)
H52_2 H 0.4640 0.4358 0.1971
H53_2 H 0.4563 0.4326 0.2411
H54_2 H 0.4389 0.3147 0.2126
O1_3 O 0.58607(15) 0.2177(3) 0.13609(12)
O9_3 O 0.68705(14) 0.8648(3) 0.11849(11)
O16_3 O 0.58853(14) 0.7476(4) 0.13050(11)
O17_3 O 0.55173(15) 0.5577(4) 0.10964(12)
O23_3 O 0.54537(15) 0.4112(4) 0.18286(13)
O24_2 O 0.65415(14) 0.8789(3) 0.20319(12)
H57_3 H 0.586392 0.193705 0.108105
H58_3 H 0.613208 0.167923 0.154894
C3_3 C 0.5278(2) 0.9697(6) 0.92425(17)
H3_3 H 0.5544 0.9155 0.9174
H4_3 H 0.5055 0.9163 0.9364
C5_3 C 0.4713(2) 0.9278(6) 0.85805(18)
H7_3 H 0.4508 0.8711 0.8708
H8_3 H 0.4979 0.8771 0.8498
C10_3 C 0.6489(3) 0.9491(6) 0.79375(19)
H11_3 H 0.6705 0.8805 0.7909
C11_3 C 0.6265(2) 0.9528(6) 0.82659(18)
H12_3 H 0.6332 0.8880 0.8458
H13_3 H 0.5801 0.8414 0.9839
C20_3 C 0.4022(2) 0.9164(5) 0.79945(16)
C21_3 C 0.3649(2) 0.9870(5) 0.77274(16)
C22_3 C 0.32585(19) 0.9224(5) 0.74575(16)
H18_3 H 0.3010 0.9690 0.7276
C23_3 C 0.32381(19) 0.7891(5) 0.74570(16)
C24_3 C 0.3615(2) 0.7200(5) 0.77255(17)
H19_3 H 0.3607 0.6304 0.7722
C25_3 C 0.4004(2) 0.7837(5) 0.79992(17)
H20_3 H 0.4250 0.7373 0.8183
C26_3 C 0.28075(19) 0.7192(5) 0.71667(16)
C28_3 C 0.3712(2) 0.8971(6) 0.96196(17)
H21_3 H 0.3464 0.8364 0.9686
H22_3 H 0.3931 0.8518 0.9473
C30_3 C 0.3107(2) 0.9534(6) 0.89872(18)
H25_3 H 0.3329 0.9116 0.8836
H26_3 H 0.2864 0.8901 0.9045
H36_3 H 0.2161 0.8245 0.9880
C47_3 C 0.2440(2) 0.9145(5) 0.82001(17)
H37_3 H 0.2552 0.8400 0.8345
C48_3 C 0.2150(2) 0.9062(5) 0.78143(18)
H38_3 H 0.2054 0.8256 0.7704
O6_3 O 0.43916(16) 0.9896(4) 0.82438(12)
O8_2 O 0.69333(15) 0.9409(4) 0.72803(12)
O13_3 O 0.40201(16) 0.9538(4) 0.99767(13)
O14_3 O 0.27068(16) 0.9881(5) 0.96695(12)
N2_4 N 0.5140(2) 0.6736(5) 0.73306(16)
C3_4 C 0.5278(2) 0.0303(6) 0.42425(17)
H3_4 H 0.5544 0.0845 0.4174
H4_4 H 0.5055 0.0837 0.4364
C5_4 C 0.4713(2) 0.0722(6) 0.35805(18)
H7_4 H 0.4508 0.1289 0.3708
H8_4 H 0.4979 0.1229 0.3498
C10_4 C 0.6489(3) 0.0509(6) 0.29375(19)
H11_4 H 0.6705 0.1195 0.2909
C11_4 C 0.6265(2) 0.0472(6) 0.32659(18)
H12_4 H 0.6332 0.1120 0.3458
C14_4 C 0.5909(3) 0.0895(6) 0.50109(18)
H13_4 H 0.5801 0.1586 0.4839
C15_4 C 0.6203(2) 0.1100(5) 0.54029(17)
H14_4 H 0.6298 0.1934 0.5488
C16_4 C 0.6352(2) 0.0082(5) 0.56616(16)
C19_4 C 0.6666(2) 0.0279(5) 0.60794(17)
C20_4 C 0.4022(2) 0.0836(5) 0.29945(16)
C21_4 C 0.3649(2) 0.0130(5) 0.27274(16)
C22_4 C 0.32585(19) 0.0776(5) 0.24575(16)
H18_4 H 0.3010 0.0310 0.2276
C23_4 C 0.32381(19) 0.2109(5) 0.24570(16)
C24_4 C 0.3615(2) 0.2800(5) 0.27255(17)
H19_4 H 0.3607 0.3696 0.2722
C25_4 C 0.4004(2) 0.2163(5) 0.29992(17)
H20_4 H 0.4250 0.2627 0.3183
C26_4 C 0.28075(19) 0.2808(5) 0.21667(16)
C28_4 C 0.3712(2) 0.1029(6) 0.46196(17)
H21_4 H 0.3464 0.1636 0.4686
H22_4 H 0.3931 0.1482 0.4473
C30_4 C 0.3107(2) 0.0466(6) 0.39872(18)
H25_4 H 0.3329 0.0884 0.3836
H26_4 H 0.2864 0.1099 0.4045
C32_4 C 0.4370(2) 0.1213(6) 0.52300(18)
C33_4 C 0.4392(2) 0.2548(6) 0.52177(19)
H29_4 H 0.4161 0.3010 0.5023
C34_4 C 0.4770(2) 0.3180(6) 0.55051(18)
H30_4 H 0.4780 0.4076 0.5504
C35_4 C 0.5126(2) 0.2523(5) 0.57895(16)
C36_4 C 0.5098(2) 0.1176(5) 0.57922(17)
H31_4 H 0.5338 0.0708 0.5980
C37_4 C 0.4721(2) 0.0543(6) 0.55201(18)
C38_4 C 0.5546(2) 0.3215(5) 0.60873(16)
C42_4 C 0.1981(2) 0.0001(5) 0.56215(16)
C43_4 C 0.1936(3) 0.1022(6) 0.53614(19)
H35_4 H 0.1729 0.1720 0.5396
C44_4 C 0.2189(3) 0.1044(6) 0.50486(19)
H36_4 H 0.2161 0.1755 0.4880
C45_4 C 0.1731(2) 0.0036(5) 0.59681(16)
C47_4 C 0.2440(2) 0.0855(5) 0.32001(17)
H37_4 H 0.2552 0.1600 0.3345
C48_4 C 0.2150(2) 0.0938(5) 0.28143(18)
H38_4 H 0.2054 0.1744 0.2704
C56_4 C 0.5504(2) 0.6559(6) 0.71338(19)
H48_4 H 0.5822 0.6965 0.7229
C57_4 C 0.5230(3) 0.7583(10) 0.7675(2)
H49_4 H 0.5581 0.7896 0.7728
H50_3 H 0.4994 0.8297 0.7622
H51_4 H 0.5176 0.7116 0.7904
C58_3 C 0.4643(3) 0.6182(10) 0.7199(3)
H52_3 H 0.4640 0.5642 0.6971
H53_3 H 0.4563 0.5674 0.7411
H54_3 H 0.4389 0.6853 0.7126
O1_4 O 0.58607(15) 0.7823(3) 0.63609(12)
O6_4 O 0.43916(16) 0.0104(4) 0.32438(12)
O9_4 O 0.68705(14) 0.1352(3) 0.61849(11)
O13_4 O 0.40201(16) 0.0462(4) 0.49767(13)
O14_4 O 0.27068(16) 0.0119(5) 0.46695(12)
O16_4 O 0.58853(14) 0.2524(4) 0.63050(11)
O17_4 O 0.55173(15) 0.4423(4) 0.60964(12)
O23_4 O 0.54537(15) 0.5888(4) 0.68286(13)
H57_4 H 0.586392 0.806295 0.608105
H58_4 H 0.613208 0.832077 0.654894
N1_4 N 0.8256(2) 0.8732(6) 0.59587(18)
C1_4 C 0.4962(2) 0.9652(6) 0.38701(17)
C2_4 C 0.5304(2) 0.8786(6) 0.36681(17)
H1_4 H 0.5407 0.8016 0.3827
H2_4 H 0.5113 0.8528 0.3404
C4_4 C 0.4540(2) 0.8812(5) 0.39734(17)
H5_4 H 0.4337 0.8433 0.3732
H6_4 H 0.4697 0.8142 0.4154
C6_4 C 0.5939(2) 0.9452(5) 0.33039(16)
C7_4 C 0.5851(2) 0.8473(5) 0.30248(17)
H9_4 H 0.5637 0.7783 0.3053
C8_4 C 0.6087(2) 0.8529(5) 0.26991(16)
H10_4 H 0.6032 0.7866 0.2512
C9_4 C 0.6398(2) 0.9550(5) 0.26523(16)
C12_4 C 0.6645(2) 0.9644(5) 0.22946(17)
C13_4 C 0.5784(2) 0.9657(6) 0.48872(17)
C17_4 C 0.6215(2) 0.8827(5) 0.55309(15)
H15_4 H 0.6310 0.8134 0.5704
C18_4 C 0.5939(2) 0.8620(5) 0.51458(16)
H16_4 H 0.5855 0.7783 0.5057
H17_4 H 0.3660 0.9233 0.2729
C27_4 C 0.3429(2) 0.9926(6) 0.43697(16)
C29_4 C 0.3095(2) 0.9206(7) 0.46053(18)
H23_4 H 0.3305 0.8909 0.4859
H24_4 H 0.2930 0.8466 0.4455
C31_4 C 0.3823(2) 0.8953(6) 0.42735(19)
H27_4 H 0.3647 0.8320 0.4082
H28_4 H 0.3998 0.8506 0.4515
H32_4 H 0.4701 0.9649 0.5530
C39_4 C 0.2482(2) 0.9994(7) 0.49926(16)
C40_4 C 0.2527(2) 0.8952(6) 0.52368(17)
H33_4 H 0.2720 0.8241 0.5190
C41_4 C 0.2283(2) 0.8949(5) 0.55597(17)
H34_4 H 0.2322 0.8247 0.5733
C46_4 C 0.2565(2) 0.9643(6) 0.33749(17)
C49_4 C 0.19974(19) 0.9840(5) 0.25856(16)
C50_4 C 0.2138(2) 0.8621(5) 0.27641(16)
H39_4 H 0.2044 0.7875 0.2615
C51_4 C 0.2414(2) 0.8527(5) 0.31578(17)
H40_4 H 0.2497 0.7724 0.3275
C52_4 C 0.16937(19) 0.9904(5) 0.21689(16)
C53_4 C 0.7880(3) 0.9016(8) 0.6135(2)
H41_4 H 0.7545 0.8822 0.5995
C54_4 C 0.8193(4) 0.8174(15) 0.5569(3)
H42_4 H 0.7830 0.8097 0.5446
H43_4 H 0.8357 0.8716 0.5406
H44_4 H 0.8351 0.7336 0.5592
C55_4 C 0.8784(3) 0.8935(11) 0.6176(3)
H45_4 H 0.8786 0.9303 0.6433
H46_4 H 0.8965 0.8125 0.6211
H47_4 H 0.8954 0.9512 0.6027
O2_4 O 0.41874(18) 0.9644(4) 0.41120(15)
O3_4 O 0.75177(14) 0.7547(3) 0.69086(12)
O4_4 O 0.57449(15) 0.9509(5) 0.36399(12)
O5_4 O 0.55121(17) 0.9306(4) 0.45149(12)
O10_4 O 0.67191(13) 0.9307(3) 0.63130(11)
O15_4 O 0.28338(17) 0.9427(4) 0.37630(13)
O22_4 O 0.79230(17) 0.9498(4) 0.64579(13)
H55_4 H 0.72085 0.709055 0.695926
H56_4 H 0.781458 0.743575 0.714263
H50_4 H 0.9994 0.6703 0.2622
C58_4 C 0.9643(3) 0.8818(10) 0.2199(3)
H52_4 H 0.9640 0.9358 0.1971
H53_4 H 0.9563 0.9326 0.2411
H54_4 H 0.9389 0.8147 0.2126
loop_
_geom_bond_atom_site_label_1
_geom_bond_atom_site_label_2
_geom_bond_site_symmetry_1
_geom_bond_site_symmetry_2
Mn1 O9 1_555 1_555
Mn3 O3 1_555 1_555
N1 C53 1_555 1_555
C15 C14 1_555 1_555
H14 C15 1_555 1_555
C16 C15 1_555 1_555
C17 C16 1_555 1_555
H15 C17 1_555 1_555
H16 C18 1_555 1_555
C19 C16 1_555 1_555
C36 C35 1_555 1_555
H31 C36 1_555 1_555
C38 C35 1_555 1_555
C53 H41 1_555 1_555
C54 N1 1_555 1_555
H42 C54 1_555 1_555
H43 C54 1_555 1_555
H44 C54 1_555 1_555
C55 N1 1_555 1_555
H45 C55 1_555 1_555
H46 C55 1_555 1_555
H47 C55 1_555 1_555
O9 C19 1_555 1_555
O10 Mn3 1_555 1_555
O16 Mn1 1_555 1_555
O22 Mn3 1_555 1_555
O24 Mn1 1_555 1_555
O25 Mn3 1_555 1_555
O26 Mn3 1_555 1_555
O27 Mn1 1_555 1_555
O28 Mn1 1_555 1_555
O30 Mn1 1_555 1_555
C17 C18 1_555 1_555
C19 O10 1_555 1_555
C38 O16 1_555 1_555
C38 O17 1_555 1_555
C53 O22 1_555 1_555
O3 H55 1_555 1_555
O3 H56 1_555 1_555
C2 H1 1_555 1_555
H2 C2 1_555 1_555
H3 C3 1_555 1_555
H4 C3 1_555 1_555
C6 C7 1_555 1_555
C7 H9 1_555 1_555
C8 C7 1_555 1_555
H10 C8 1_555 1_555
C9 C8 1_555 1_555
C10 C9 1_555 1_555
H11 C10 1_555 1_555
C11 C6 1_555 1_555
H12 C11 1_555 1_555
C12 C9 1_555 1_555
O4 C2 1_555 1_555
O5 C3 1_555 1_555
O7 C12 1_555 1_555
O8 C12 1_555 1_555
Mn4 O7 1_555 1_555
Mn9 O8 1_555 1_555
C6 O4 1_555 1_555
C10 C11 1_555 1_555
C13 O5 1_555 1_555
Mn2 O1 1_555 1_555
N2 C56 1_555 1_555
C56 H48 1_555 1_555
C57 N2 1_555 1_555
H49 C57 1_555 1_555
H51 C57 1_555 1_555
O23 Mn2 1_555 1_555
O29 Mn2 1_555 1_555
O31 Mn2 1_555 1_555
C56 O23 1_555 1_555
O1 H57 1_555 1_555
O1 H58 1_555 1_555
C32 C33 1_555 1_555
C33 H29 1_555 1_555
C34 C33 1_555 1_555
H30 C34 1_555 1_555
C37 C32 1_555 1_555
H32 C37 1_555 1_555
C40 H33 1_555 1_555
C41 C40 1_555 1_555
H34 C41 1_555 1_555
C42 C41 1_555 1_555
C43 C42 1_555 1_555
H35 C43 1_555 1_555
C45 C42 1_555 1_555
O18 C45 1_555 1_555
O19 C45 1_555 1_555
Mn5 O18 1_555 1_555
Mn7 O19 1_555 1_555
C43 C44 1_555 1_555
C4 C1 1_555 1_555
H5 C4 1_555 1_555
H6 C4 1_555 1_555
C5 C1 1_555 1_555
H7 C5 1_555 1_555
H8 C5 1_555 1_555
C20 C21 1_555 1_555
C21 H17 1_555 1_555
C22 C21 1_555 1_555
H18 C22 1_555 1_555
C23 C22 1_555 1_555
C24 C23 1_555 1_555
H19 C24 1_555 1_555
C25 C20 1_555 1_555
H20 C25 1_555 1_555
C26 C23 1_555 1_555
C27 C28 1_555 1_555
C28 H21 1_555 1_555
H22 C28 1_555 1_555
C29 C27 1_555 1_555
H23 C29 1_555 1_555
H24 C29 1_555 1_555
C30 C27 1_555 1_555
H25 C30 1_555 1_555
H26 C30 1_555 1_555
C31 C27 1_555 1_555
H27 C31 1_555 1_555
H28 C31 1_555 1_555
C46 C47 1_555 1_555
C47 H37 1_555 1_555
C48 C47 1_555 1_555
H38 C48 1_555 1_555
C49 C48 1_555 1_555
C50 C49 1_555 1_555
H39 C50 1_555 1_555
C51 C46 1_555 1_555
H40 C51 1_555 1_555
C52 C49 1_555 1_555
O2 C4 1_555 1_555
O6 C5 1_555 1_555
O11 C26 1_555 1_555
O12 C26 1_555 1_555
O13 C28 1_555 1_555
O14 C29 1_555 1_555
O15 C30 1_555 1_555
O20 C52 1_555 1_555
O21 C52 1_555 1_555
Mn6 O12 1_555 1_555
Mn8 O21 1_555 1_555
C20 O6 1_555 1_555
C24 C25 1_555 1_555
C31 O2 1_555 1_555
C39 O14 1_555 1_555
C46 O15 1_555 1_555
C50 C51 1_555 1_555
O20 Mn6 1_555 1_555
Mn2_2 O1_2 1_555 1_555
N2_2 C56_2 1_555 1_555
C56_2 H48_2 1_555 1_555
C57_2 N2_2 1_555 1_555
H49_2 C57_2 1_555 1_555
H51_2 C57_2 1_555 1_555
O23_2 Mn2_2 1_555 1_555
O29_2 Mn2_2 1_555 1_555
O31_2 Mn2_2 1_555 1_555
C56_2 O23_2 1_555 1_555
O1_2 H57_2 1_555 1_555
O1_2 H58_2 1_555 1_555
Mn4 O9_2 1_555 1_555
Mn9 O3_2 1_555 1_555
N1_2 C53_2 1_555 1_555
C2_2 H1_2 1_555 1_555
H2_2 C2_2 1_555 1_555
H3_2 C3_2 1_555 1_555
H4_2 C3_2 1_555 1_555
C6_2 C7_2 1_555 1_555
C7_2 H9_2 1_555 1_555
C8_2 C7_2 1_555 1_555
H10_2 C8_2 1_555 1_555
C9_2 C8_2 1_555 1_555
C10_2 C9_2 1_555 1_555
H11_2 C10_2 1_555 1_555
C11_2 C6_2 1_555 1_555
H12_2 C11_2 1_555 1_555
C12_2 C9_2 1_555 1_555
C13_2 C14_2 1_555 1_555
C14_2 H13_2 1_555 1_555
C15_2 C14_2 1_555 1_555
H14_2 C15_2 1_555 1_555
C16_2 C15_2 1_555 1_555
C17_2 C16_2 1_555 1_555
H15_2 C17_2 1_555 1_555
C18_2 C13_2 1_555 1_555
H16_2 C18_2 1_555 1_555
C19_2 C16_2 1_555 1_555
C36_2 C35_2 1_555 1_555
H31_2 C36_2 1_555 1_555
C38_2 C35_2 1_555 1_555
C53_2 H41_2 1_555 1_555
C54_2 N1_2 1_555 1_555
H42_2 C54_2 1_555 1_555
H43_2 C54_2 1_555 1_555
H44_2 C54_2 1_555 1_555
C55_2 N1_2 1_555 1_555
H45_2 C55_2 1_555 1_555
H46_2 C55_2 1_555 1_555
H47_2 C55_2 1_555 1_555
O4_2 C2_2 1_555 1_555
O5_2 C3_2 1_555 1_555
O24 C12_2 1_555 1_555
O25 C12_2 1_555 1_555
O9_2 C19_2 1_555 1_555
O10_2 Mn9 1_555 1_555
O16_2 Mn4 1_555 1_555
O22_2 Mn9 1_555 1_555
O26_2 Mn9 1_555 1_555
O27_2 Mn4 1_555 1_555
O28_2 Mn4 1_555 1_555
O30_2 Mn4 1_555 1_555
C6_2 O4_2 1_555 1_555
C10_2 C11_2 1_555 1_555
C13_2 O5_2 1_555 1_555
C17_2 C18_2 1_555 1_555
C19_2 O10_2 1_555 1_555
C38_2 O16_2 1_555 1_555
C38_2 O17_2 1_555 1_555
C53_2 O22_2 1_555 1_555
O3_2 H55_2 1_555 1_555
O3_2 H56_2 1_555 1_555
H52 C58 1_555 1_555
H53 C58 1_555 1_555
H54 C58 1_555 1_555
C4_2 C1_2 1_555 1_555
H5_2 C4_2 1_555 1_555
H6_2 C4_2 1_555 1_555
C5_2 C1_2 1_555 1_555
H7_2 C5_2 1_555 1_555
H8_2 C5_2 1_555 1_555
C20_2 C21_2 1_555 1_555
C21_2 H17_2 1_555 1_555
C22_2 C21_2 1_555 1_555
H18_2 C22_2 1_555 1_555
C23_2 C22_2 1_555 1_555
C24_2 C23_2 1_555 1_555
H19_2 C24_2 1_555 1_555
C25_2 C20_2 1_555 1_555
H20_2 C25_2 1_555 1_555
C26_2 C23_2 1_555 1_555
C27_2 C28_2 1_555 1_555
C28_2 H21_2 1_555 1_555
H22_2 C28_2 1_555 1_555
C29_2 C27_2 1_555 1_555
H23_2 C29_2 1_555 1_555
H24_2 C29_2 1_555 1_555
C30_2 C27_2 1_555 1_555
H25_2 C30_2 1_555 1_555
H26_2 C30_2 1_555 1_555
C31_2 C27_2 1_555 1_555
H27_2 C31_2 1_555 1_555
H28_2 C31_2 1_555 1_555
C32_2 C33_2 1_555 1_555
C33_2 H29_2 1_555 1_555
C34_2 C33_2 1_555 1_555
H30_2 C34_2 1_555 1_555
C37_2 C32_2 1_555 1_555
H32_2 C37_2 1_555 1_555
C39_2 C40_2 1_555 1_555
C40_2 H33_2 1_555 1_555
C41_2 C40_2 1_555 1_555
H34_2 C41_2 1_555 1_555
C42_2 C41_2 1_555 1_555
C43_2 C42_2 1_555 1_555
H35_2 C43_2 1_555 1_555
C44_2 C39_2 1_555 1_555
H36_2 C44_2 1_555 1_555
C45_2 C42_2 1_555 1_555
C46_2 C47_2 1_555 1_555
C47_2 H37_2 1_555 1_555
C48_2 C47_2 1_555 1_555
H38_2 C48_2 1_555 1_555
C49_2 C48_2 1_555 1_555
C50_2 C49_2 1_555 1_555
H39_2 C50_2 1_555 1_555
C51_2 C46_2 1_555 1_555
H40_2 C51_2 1_555 1_555
C52_2 C49_2 1_555 1_555
O2_2 C4_2 1_555 1_555
O6_2 C5_2 1_555 1_555
O11_2 C26_2 1_555 1_555
O12_2 C26_2 1_555 1_555
O13_2 C28_2 1_555 1_555
O14_2 C29_2 1_555 1_555
O15_2 C30_2 1_555 1_555
O18_2 C45_2 1_555 1_555
O19_2 C45_2 1_555 1_555
O20_2 C52_2 1_555 1_555
O21_2 C52_2 1_555 1_555
Mn6 O18_2 1_555 1_555
Mn5 O12_2 1_555 1_555
Mn8 O19_2 1_555 1_555
Mn7 O21_2 1_555 1_555
C20_2 O6_2 1_555 1_555
C24_2 C25_2 1_555 1_555
C31_2 O2_2 1_555 1_555
C32_2 O13_2 1_555 1_555
C39_2 O14_2 1_555 1_555
C43_2 C44_2 1_555 1_555
C46_2 O15_2 1_555 1_555
C50_2 C51_2 1_555 1_555
O20_2 Mn5 1_555 1_555
Mn10_2 O3_3 1_555 1_555
N1_3 C53_3 1_555 1_555
H15_3 C17_3 1_555 1_555
H16_3 C18_3 1_555 1_555
C40_3 H33_3 1_555 1_555
C41_3 C40_3 1_555 1_555
H34_3 C41_3 1_555 1_555
C53_3 H41_3 1_555 1_555
C54_3 N1_3 1_555 1_555
H42_3 C54_3 1_555 1_555
H43_3 C54_3 1_555 1_555
H44_3 C54_3 1_555 1_555
C55_3 N1_3 1_555 1_555
H45_3 C55_3 1_555 1_555
H46_3 C55_3 1_555 1_555
H47_3 C55_3 1_555 1_555
O10_3 Mn10_2 1_555 1_555
O22_3 Mn10_2 1_555 1_555
O25_2 Mn10_2 1_555 1_555
C17_3 C18_3 1_555 1_555
C53_3 O22_3 1_555 1_555
O3_3 H55_3 1_555 1_555
O3_3 H56_3 1_555 1_555
C1_3 C2_3 1_555 1_555
C2_3 H1_3 1_555 1_555
H2_3 C2_3 1_555 1_555
C4_3 C1_3 1_555 1_555
H5_3 C4_3 1_555 1_555
H6_3 C4_3 1_555 1_555
C6_3 C7_3 1_555 1_555
C7_3 H9_3 1_555 1_555
C8_3 C7_3 1_555 1_555
H10_3 C8_3 1_555 1_555
C9_3 C8_3 1_555 1_555
C12_3 C9_3 1_555 1_555
C29_3 C27_3 1_555 1_555
H23_3 C29_3 1_555 1_555
H24_3 C29_3 1_555 1_555
C31_3 C27_3 1_555 1_555
H27_3 C31_3 1_555 1_555
H28_3 C31_3 1_555 1_555
C50_3 C49_3 1_555 1_555
H39_3 C50_3 1_555 1_555
C51_3 C46_3 1_555 1_555
H40_3 C51_3 1_555 1_555
C52_3 C49_3 1_555 1_555
O2_3 C4_3 1_555 1_555
O4_3 C2_3 1_555 1_555
O7_2 C12_3 1_555 1_555
O31_2 C52_3 1_555 1_555
Mn6 O7_2 1_555 1_555
C6_3 O4_3 1_555 1_555
C13_3 O5_3 1_555 1_555
C31_3 O2_3 1_555 1_555
C46_3 O15_3 1_555 1_555
C50_3 C51_3 1_555 1_555
Mn5 O9_3 1_555 1_555
Mn7 O1_3 1_555 1_555
N2_3 C56_3 1_555 1_555
C15_3 C14_3 1_555 1_555
H14_3 C15_3 1_555 1_555
C16_3 C15_3 1_555 1_555
C19_3 C16_3 1_555 1_555
C32_3 C33_3 1_555 1_555
C33_3 H29_3 1_555 1_555
C34_3 C33_3 1_555 1_555
H30_3 C34_3 1_555 1_555
C35_3 C34_3 1_555 1_555
C36_3 C35_3 1_555 1_555
H31_3 C36_3 1_555 1_555
C37_3 C32_3 1_555 1_555
C38_3 C35_3 1_555 1_555
C43_3 C42_3 1_555 1_555
H35_3 C43_3 1_555 1_555
C45_3 C42_3 1_555 1_555
C56_3 H48_3 1_555 1_555
C57_3 N2_3 1_555 1_555
H49_3 C57_3 1_555 1_555
H50_2 C57_3 1_555 1_555
H51_3 C57_3 1_555 1_555
C58_2 N2_3 1_555 1_555
H52_2 C58_2 1_555 1_555
H53_2 C58_2 1_555 1_555
H54_2 C58_2 1_555 1_555
O9_3 C19_3 1_555 1_555
O16_3 Mn5 1_555 1_555
O17_3 Mn7 1_555 1_555
O29 C45_3 1_555 1_555
O23_3 Mn7 1_555 1_555
O24_2 Mn5 1_555 1_555
C36_3 C37_3 1_555 1_555
C38_3 O16_3 1_555 1_555
C38_3 O17_3 1_555 1_555
C43_3 C44_3 1_555 1_555
C56_3 O23_3 1_555 1_555
O1_3 H57_3 1_555 1_555
O1_3 H58_3 1_555 1_555
H3_3 C3_3 1_555 1_555
H4_3 C3_3 1_555 1_555
H7_3 C5_3 1_555 1_555
H8_3 C5_3 1_555 1_555
H11_3 C10_3 1_555 1_555
H12_3 C11_3 1_555 1_555
C20_3 C21_3 1_555 1_555
C22_3 C21_3 1_555 1_555
H18_3 C22_3 1_555 1_555
C23_3 C22_3 1_555 1_555
C24_3 C23_3 1_555 1_555
H19_3 C24_3 1_555 1_555
C25_3 C20_3 1_555 1_555
H20_3 C25_3 1_555 1_555
C26_3 C23_3 1_555 1_555
C28_3 H21_3 1_555 1_555
H22_3 C28_3 1_555 1_555
H25_3 C30_3 1_555 1_555
H26_3 C30_3 1_555 1_555
C47_3 H37_3 1_555 1_555
C48_3 C47_3 1_555 1_555
H38_3 C48_3 1_555 1_555
O6_3 C5_3 1_555 1_555
O26_2 C26_3 1_555 1_555
O27_2 C26_3 1_555 1_555
O13_3 C28_3 1_555 1_555
Mn10 O8_2 1_555 1_555
C10_3 C11_3 1_555 1_555
C20_3 O6_3 1_555 1_555
C24_3 C25_3 1_555 1_555
Mn6 O9_4 1_555 1_555
Mn8 O1_4 1_555 1_555
N2_4 C56_4 1_555 1_555
H3_4 C3_4 1_555 1_555
H4_4 C3_4 1_555 1_555
H7_4 C5_4 1_555 1_555
H8_4 C5_4 1_555 1_555
H11_4 C10_4 1_555 1_555
H12_4 C11_4 1_555 1_555
C14_4 H13_4 1_555 1_555
C15_4 C14_4 1_555 1_555
H14_4 C15_4 1_555 1_555
C16_4 C15_4 1_555 1_555
C19_4 C16_4 1_555 1_555
C20_4 C21_4 1_555 1_555
C22_4 C21_4 1_555 1_555
H18_4 C22_4 1_555 1_555
C23_4 C22_4 1_555 1_555
C24_4 C23_4 1_555 1_555
H19_4 C24_4 1_555 1_555
C25_4 C20_4 1_555 1_555
H20_4 C25_4 1_555 1_555
C26_4 C23_4 1_555 1_555
C28_4 H21_4 1_555 1_555
H22_4 C28_4 1_555 1_555
H25_4 C30_4 1_555 1_555
H26_4 C30_4 1_555 1_555
C32_4 C33_4 1_555 1_555
C33_4 H29_4 1_555 1_555
C34_4 C33_4 1_555 1_555
H30_4 C34_4 1_555 1_555
C35_4 C34_4 1_555 1_555
C36_4 C35_4 1_555 1_555
H31_4 C36_4 1_555 1_555
C37_4 C32_4 1_555 1_555
C38_4 C35_4 1_555 1_555
C43_4 C42_4 1_555 1_555
H35_4 C43_4 1_555 1_555
H36_4 C44_4 1_555 1_555
C45_4 C42_4 1_555 1_555
C47_4 H37_4 1_555 1_555
C48_4 C47_4 1_555 1_555
H38_4 C48_4 1_555 1_555
C56_4 H48_4 1_555 1_555
C57_4 N2_4 1_555 1_555
H49_4 C57_4 1_555 1_555
H50_3 C57_4 1_555 1_555
H51_4 C57_4 1_555 1_555
C58_3 N2_4 1_555 1_555
H52_3 C58_3 1_555 1_555
H53_3 C58_3 1_555 1_555
H54_3 C58_3 1_555 1_555
O6_4 C5_4 1_555 1_555
O9_4 C19_4 1_555 1_555
O26 C26_4 1_555 1_555
O27 C26_4 1_555 1_555
O13_4 C28_4 1_555 1_555
O16_4 Mn6 1_555 1_555
O17_4 Mn8 1_555 1_555
O29_2 C45_4 1_555 1_555
O23_4 Mn8 1_555 1_555
C10_4 C11_4 1_555 1_555
C20_4 O6_4 1_555 1_555
C24_4 C25_4 1_555 1_555
C32_4 O13_4 1_555 1_555
C36_4 C37_4 1_555 1_555
C38_4 O16_4 1_555 1_555
C38_4 O17_4 1_555 1_555
C43_4 C44_4 1_555 1_555
C56_4 O23_4 1_555 1_555
O1_4 H57_4 1_555 1_555
O1_4 H58_4 1_555 1_555
Mn10 O3_4 1_555 1_555
N1_4 C53_4 1_555 1_555
C1_4 C2_4 1_555 1_555
C2_4 H1_4 1_555 1_555
H2_4 C2_4 1_555 1_555
C4_4 C1_4 1_555 1_555
H5_4 C4_4 1_555 1_555
H6_4 C4_4 1_555 1_555
C6_4 C7_4 1_555 1_555
C7_4 H9_4 1_555 1_555
C8_4 C7_4 1_555 1_555
H10_4 C8_4 1_555 1_555
C9_4 C8_4 1_555 1_555
C12_4 C9_4 1_555 1_555
H15_4 C17_4 1_555 1_555
C18_4 C13_4 1_555 1_555
H16_4 C18_4 1_555 1_555
C29_4 C27_4 1_555 1_555
H23_4 C29_4 1_555 1_555
H24_4 C29_4 1_555 1_555
C31_4 C27_4 1_555 1_555
H27_4 C31_4 1_555 1_555
H28_4 C31_4 1_555 1_555
C39_4 C40_4 1_555 1_555
C40_4 H33_4 1_555 1_555
C41_4 C40_4 1_555 1_555
H34_4 C41_4 1_555 1_555
C50_4 C49_4 1_555 1_555
H39_4 C50_4 1_555 1_555
C51_4 C46_4 1_555 1_555
H40_4 C51_4 1_555 1_555
C52_4 C49_4 1_555 1_555
C53_4 H41_4 1_555 1_555
C54_4 N1_4 1_555 1_555
H42_4 C54_4 1_555 1_555
H43_4 C54_4 1_555 1_555
H44_4 C54_4 1_555 1_555
C55_4 N1_4 1_555 1_555
H45_4 C55_4 1_555 1_555
H46_4 C55_4 1_555 1_555
H47_4 C55_4 1_555 1_555
O2_4 C4_4 1_555 1_555
O4_4 C2_4 1_555 1_555
O24_2 C12_4 1_555 1_555
O10_4 Mn10 1_555 1_555
O31 C52_4 1_555 1_555
O22_4 Mn10 1_555 1_555
C6_4 O4_4 1_555 1_555
C13_4 O5_4 1_555 1_555
C17_4 C18_4 1_555 1_555
C31_4 O2_4 1_555 1_555
C46_4 O15_4 1_555 1_555
C50_4 C51_4 1_555 1_555
C53_4 O22_4 1_555 1_555
O3_4 H55_4 1_555 1_555
O3_4 H56_4 1_555 1_555
H52_4 C58_4 1_555 1_555
H53_4 C58_4 1_555 1_555
H54_4 C58_4 1_555 1_555

#END
