
###############################################################################
#
# This file contains modified crystal structure data generated from the
# MOF subset of the Cambridge Structural Database (CSD) v543 
# hosted by the Cambridge Crystallographic Data Centre (CCDC).
#
# This work is licensed under the Creative Commons
# Attribution-NonCommercial-ShareAlike 4.0 International License.
# To view a copy of this license, visit
# http://creativecommons.org/licenses/by-nc-sa/4.0/
# or send a letter to
# Creative Commons, PO Box 1866, Mountain View, CA 94042, USA.
#
# CIF created using the CSD Python API on 29 September 2022
# The structure has been converted into the P1 space group
# The structure has a 3D framework
# The original CSD entry PEKGOD is in the monoclinic crystal system
# The framework has been calculated to contain at least 10.0% void space
# The void calculation uses a probe of radius 1.32A, grid spacing 0.4
#
###############################################################################

data_PEKGOD
_chemical_formula_moiety         '(C88 H48 Co4 Eu4 N20 O30)n'
_symmetry_cell_setting           triclinic
_symmetry_space_group_name_H-M   'P 1'
_symmetry_Int_Tables_number      1
_space_group_name_Hall           'P 1'
loop_
_symmetry_equiv_pos_site_id
_symmetry_equiv_pos_as_xyz
1 x,y,z
_cell_length_a                   10.6989(19)
_cell_length_b                   12.978(2)
_cell_length_c                   20.804(3)
_cell_angle_alpha                90
_cell_angle_beta                 120.242(6)
_cell_angle_gamma                90
_cell_volume                     2495.51
loop_
_atom_site_label
_atom_site_type_symbol
_atom_site_fract_x
_atom_site_fract_y
_atom_site_fract_z
N4 N 0.2323(6) 0.1435(4) 0.1591(3)
C14 C 0.0292(7) 0.0352(6) 0.0870(4)
C15 C 0.1426(8) 0.2132(6) 0.1604(4)
H7 H 0.1808 0.2748 0.1856
C16 C 0.1734(7) 0.0571(6) 0.1214(4)
H8 H 0.2344 0.0087 0.1184
Co3 Co 0.46769(9) 0.15253(6) 0.22807(4)
N5 N 0.2967(6) 0.6716(4) 0.2137(3)
C18 C 0.0126(8) 0.7409(6) 0.1336(4)
C19 C 0.0873(8) 0.7411(6) 0.2100(4)
H9 H 0.0440 0.7653 0.2362
C20 C 0.0802(9) 0.7045(7) 0.0974(4)
H10 H 0.0321 0.7021 0.0457
C21 C 0.2269(8) 0.7052(6) 0.2472(4)
H11 H 0.2753 0.7043 0.2989
C22 C 0.2226(8) 0.6711(7) 0.1397(4)
H12 H 0.2686 0.6470 0.1148
Co4 Co 0.53231(9) 0.65253(6) 0.27193(4)
O6 O 0.6914(5) 0.1487(4) 0.0530(3)
C11 C 0.7753(7) 0.0820(5) 0.0525(4)
C12 C 0.9355(7) 0.1065(5) 0.0890(4)
C13 C 0.9943(7) 0.1979(6) 0.1258(4)
H5 H 0.9349 0.2489 0.1274
O2 O 0.4537(5) 0.0115(3) 0.9204(2)
O3 O 0.4749(6) 0.2330(4) 0.9124(3)
O4 O 0.4560(5) 0.3338(3) 0.8230(2)
N1 N 0.5068(5) 0.0099(4) 0.7628(3)
N2 N 0.4713(6) 0.1802(4) 0.7429(3)
N3 N 0.5030(7) 0.1794(4) 0.5523(3)
C2 C 0.4803(6) 0.0512(5) 0.8160(3)
C3 C 0.4635(7) 0.1572(5) 0.8050(3)
C4 C 0.4611(7) 0.2462(5) 0.8493(4)
C5 C 0.5007(7) 0.0902(5) 0.7211(3)
C6 C 0.5368(7) 0.0894(5) 0.6612(3)
C7 C 0.6473(8) 0.0317(5) 0.6637(4)
C8 C 0.4680(8) 0.1596(5) 0.6041(4)
H2 H 0.3909 0.1962 0.6015
C9 C 0.6816(10) 0.0460(6) 0.6076(5)
H3 H 0.7526 0.0065 0.6061
C10 C 0.6068(10) 0.1205(6) 0.5546(5)
H4 H 0.6307 0.1302 0.5178
Eu2 Eu 0.42682(3) 0.14218(2) 0.991691(16)
Eu3 Eu 0.42682(3) 0.35782(2) 0.491691(16)
Co2 Co 0.46769(9) 0.34747(6) 0.72807(4)
Eu1 Eu 0.57318(3) 0.85782(2) 0.008309(16)
O5 O 0.7393(5) 0.9933(4) 0.0237(3)
O7 O 0.8061(6) 0.8247(5) 0.1254(3)
O8 O 0.7897(5) 0.7710(4) 0.0215(3)
H6 H 0.9943 0.9728 0.0624
C17 C 0.8600(8) 0.7807(6) 0.0907(4)
O9 O 0.5463(5) 0.9885(3) 0.0796(2)
O10 O 0.5251(6) 0.7670(4) 0.0876(3)
Co1 Co 0.53231(9) 0.84747(6) 0.77193(4)
O1 O 0.5213(4) 0.8882(3) 0.8721(2)
C1 C 0.4842(6) 0.9815(5) 0.8719(3)
H1 H 0.6979 0.9843 0.7017
O11 O 0.5440(5) 0.8338(3) 0.6770(2)
O12 O 0.3086(5) 0.8513(4) 0.9470(3)
N6 N 0.5287(6) 0.6802(4) 0.7571(3)
N7 N 0.4970(7) 0.6794(4) 0.9477(3)
N8 N 0.7677(6) 0.8565(4) 0.8409(3)
N9 N 0.2967(6) 0.8284(4) 0.7137(3)
O1_2 O 0.4787(4) 0.3882(3) 0.6279(2)
O2_2 O 0.5463(5) 0.5115(3) 0.5796(2)
O3_2 O 0.5251(6) 0.7330(4) 0.5876(3)
O5_2 O 0.2607(5) 0.4933(4) 0.4763(3)
O6_2 O 0.3086(5) 0.6487(4) 0.4470(3)
O7_2 O 0.1939(6) 0.3247(5) 0.3746(3)
O8_2 O 0.2103(5) 0.2710(4) 0.4785(3)
N1_2 N 0.4932(5) 0.5099(4) 0.7372(3)
C1_2 C 0.5158(6) 0.4815(5) 0.6281(3)
C2_2 C 0.5197(6) 0.5512(5) 0.6840(3)
C3_2 C 0.5365(7) 0.6572(5) 0.6950(3)
C4_2 C 0.5389(7) 0.7462(5) 0.6507(4)
C5_2 C 0.4993(7) 0.5902(5) 0.7789(3)
C6_2 C 0.4632(7) 0.5894(5) 0.8388(3)
C7_2 C 0.3527(8) 0.5317(5) 0.8363(4)
H1_2 H 0.3021 0.4843 0.7983
C8_2 C 0.5320(8) 0.6596(5) 0.8959(4)
H2_2 H 0.6091 0.6962 0.8985
C9_2 C 0.3184(10) 0.5460(6) 0.8924(5)
H3_2 H 0.2474 0.5065 0.8939
C10_2 C 0.3932(10) 0.6205(6) 0.9454(5)
H4_2 H 0.3693 0.6302 0.9822
C11_2 C 0.2247(7) 0.5820(5) 0.4475(4)
C12_2 C 0.0645(7) 0.6065(5) 0.4110(4)
C13_2 C 0.0057(7) 0.6979(6) 0.3742(4)
H5_2 H 0.0651 0.7489 0.3726
H6_2 H 0.0057 0.4728 0.4376
C17_2 C 0.1400(8) 0.2807(6) 0.4093(4)
Eu2_2 Eu 0.57318(3) 0.64218(2) 0.508309(16)
O9_2 O 0.4537(5) 0.4885(3) 0.4204(2)
O10_2 O 0.4749(6) 0.2670(4) 0.4124(3)
O12_2 O 0.6914(5) 0.3513(4) 0.5530(3)
N8_2 N 0.2323(6) 0.3565(4) 0.6591(3)
N9_2 N 0.7033(6) 0.3284(4) 0.7863(3)
N4_2 N 0.7677(6) 0.6435(4) 0.3409(3)
N5_2 N 0.7033(6) 0.1716(4) 0.2863(3)
C14_2 C 0.9708(7) 0.5352(6) 0.4130(4)
C15_2 C 0.8574(8) 0.7132(6) 0.3396(4)
H7_2 H 0.8192 0.7748 0.3144
C16_2 C 0.8266(7) 0.5571(6) 0.3786(4)
H8_2 H 0.7656 0.5087 0.3816
C18_2 C 0.9874(8) 0.2409(6) 0.3664(4)
C19_2 C 0.9127(8) 0.2411(6) 0.2900(4)
H9_2 H 0.9560 0.2653 0.2638
C20_2 C 0.9198(9) 0.2045(7) 0.4026(4)
H10_2 H 0.9679 0.2021 0.4543
C21_2 C 0.7731(8) 0.2052(6) 0.2528(4)
H11_2 H 0.7247 0.2043 0.2011
C22_2 C 0.7774(8) 0.1711(7) 0.3603(4)
H12_2 H 0.7314 0.1470 0.3852
O1_3 O 0.4787(4) 0.1118(3) 0.1279(2)
C1_3 C 0.5158(6) 0.0185(5) 0.1281(3)
H1_3 H 0.3021 0.0157 0.2983
O11_2 O 0.4560(5) 0.1662(3) 0.3230(2)
N6_2 N 0.4713(6) 0.3198(4) 0.2429(3)
N7_2 N 0.5030(7) 0.3206(4) 0.0523(3)
O5_3 O 0.2607(5) 0.0067(4) 0.9763(3)
O7_3 O 0.1939(6) 0.1753(5) 0.8746(3)
O8_3 O 0.2103(5) 0.2290(4) 0.9785(3)
H6_3 H 0.0057 0.0272 0.9376
C17_3 C 0.1400(8) 0.2193(6) 0.9093(4)
O4_2 O 0.5440(5) 0.6662(3) 0.1770(2)
N1_3 N 0.4932(5) 0.9901(4) 0.2372(3)
N2_2 N 0.5287(6) 0.8198(4) 0.2571(3)
N3_2 N 0.4970(7) 0.8206(4) 0.4477(3)
C2_3 C 0.5197(6) 0.9488(5) 0.1840(3)
C3_3 C 0.5365(7) 0.8428(5) 0.1950(3)
C4_3 C 0.5389(7) 0.7538(5) 0.1507(4)
C5_3 C 0.4993(7) 0.9098(5) 0.2789(3)
C6_3 C 0.4632(7) 0.9106(5) 0.3388(3)
C7_3 C 0.3527(8) 0.9683(5) 0.3363(4)
C8_3 C 0.5320(8) 0.8404(5) 0.3959(4)
H2_3 H 0.6091 0.8038 0.3985
C9_3 C 0.3184(10) 0.9540(6) 0.3924(5)
H3_3 H 0.2474 0.9935 0.3939
C10_3 C 0.3932(10) 0.8795(6) 0.4454(5)
H4_3 H 0.3693 0.8698 0.4822
C11_3 C 0.2247(7) 0.9180(5) 0.9475(4)
C12_3 C 0.0645(7) 0.8935(5) 0.9110(4)
C13_3 C 0.0057(7) 0.8021(6) 0.8742(4)
H5_3 H 0.0651 0.7511 0.8726
C18_3 C 0.9874(8) 0.2591(6) 0.8664(4)
C19_3 C 0.9127(8) 0.2589(6) 0.7900(4)
H9_3 H 0.9560 0.2347 0.7638
C20_3 C 0.9198(9) 0.2955(7) 0.9026(4)
H10_3 H 0.9679 0.2979 0.9543
C21_3 C 0.7731(8) 0.2948(6) 0.7528(4)
H11_3 H 0.7247 0.2957 0.7011
C22_3 C 0.7774(8) 0.3289(7) 0.8603(4)
H12_3 H 0.7314 0.3530 0.8852
C14_3 C 0.9708(7) 0.9648(6) 0.9130(4)
C15_3 C 0.8574(8) 0.7868(6) 0.8396(4)
H7_3 H 0.8192 0.7252 0.8144
C16_3 C 0.8266(7) 0.9429(6) 0.8786(4)
H8_3 H 0.7656 0.9913 0.8816
C14_4 C 0.0292(7) 0.4648(6) 0.5870(4)
C15_4 C 0.1426(8) 0.2868(6) 0.6604(4)
H7_4 H 0.1808 0.2252 0.6856
C16_4 C 0.1734(7) 0.4429(6) 0.6214(4)
H8_4 H 0.2344 0.4913 0.6184
C18_4 C 0.0126(8) 0.7591(6) 0.6336(4)
C19_4 C 0.0873(8) 0.7589(6) 0.7100(4)
H9_4 H 0.0440 0.7347 0.7362
C20_4 C 0.0802(9) 0.7955(7) 0.5974(4)
H10_4 H 0.0321 0.7979 0.5457
C21_4 C 0.2269(8) 0.7948(6) 0.7472(4)
H11_4 H 0.2753 0.7957 0.7989
C22_4 C 0.2226(8) 0.8289(7) 0.6397(4)
H12_4 H 0.2686 0.8530 0.6148
O1_4 O 0.5213(4) 0.6118(3) 0.3721(2)
O5_4 O 0.7393(5) 0.5067(4) 0.5237(3)
O7_4 O 0.8061(6) 0.6753(5) 0.6254(3)
O8_4 O 0.7897(5) 0.7290(4) 0.5215(3)
N1_4 N 0.5068(5) 0.4901(4) 0.2628(3)
C1_4 C 0.4842(6) 0.5185(5) 0.3719(3)
C2_4 C 0.4803(6) 0.4488(5) 0.3160(3)
C3_4 C 0.4635(7) 0.3428(5) 0.3050(3)
C4_4 C 0.4611(7) 0.2538(5) 0.3493(4)
C5_4 C 0.5007(7) 0.4098(5) 0.2211(3)
C6_4 C 0.5368(7) 0.4106(5) 0.1612(3)
C7_4 C 0.6473(8) 0.4683(5) 0.1637(4)
H1_4 H 0.6979 0.5157 0.2017
C8_4 C 0.4680(8) 0.3404(5) 0.1041(4)
H2_4 H 0.3909 0.3038 0.1015
C9_4 C 0.6816(10) 0.4540(6) 0.1076(5)
H3_4 H 0.7526 0.4935 0.1061
C10_4 C 0.6068(10) 0.3795(6) 0.0546(5)
H4_4 H 0.6307 0.3698 0.0178
C11_4 C 0.7753(7) 0.4180(5) 0.5525(4)
C12_4 C 0.9355(7) 0.3935(5) 0.5890(4)
C13_4 C 0.9943(7) 0.3021(6) 0.6258(4)
H5_4 H 0.9349 0.2511 0.6274
H6_4 H 0.9943 0.5272 0.5624
C17_4 C 0.8600(8) 0.7193(6) 0.5907(4)
loop_
_geom_bond_atom_site_label_1
_geom_bond_atom_site_label_2
_geom_bond_site_symmetry_1
_geom_bond_site_symmetry_2
N4 C15 1_555 1_555
H7 C15 1_555 1_555
C16 N4 1_555 1_555
H8 C16 1_555 1_555
Co3 N4 1_555 1_555
C14 C16 1_555 1_555
N5 C21 1_555 1_555
C19 C18 1_555 1_555
H9 C19 1_555 1_555
C20 C18 1_555 1_555
H10 C20 1_555 1_555
C21 C19 1_555 1_555
H11 C21 1_555 1_555
C22 N5 1_555 1_555
H12 C22 1_555 1_555
Co4 N5 1_555 1_555
C20 C22 1_555 1_555
O6 C11 1_555 1_555
C12 C11 1_555 1_555
C13 C12 1_555 1_555
H5 C13 1_555 1_555
O3 C4 1_555 1_555
O4 C4 1_555 1_555
N2 C3 1_555 1_555
N3 C8 1_555 1_555
C2 N1 1_555 1_555
C3 C2 1_555 1_555
C4 C3 1_555 1_555
C5 N1 1_555 1_555
C6 C5 1_555 1_555
C7 C6 1_555 1_555
C8 C6 1_555 1_555
H2 C8 1_555 1_555
C9 C7 1_555 1_555
H3 C9 1_555 1_555
C10 N3 1_555 1_555
H4 C10 1_555 1_555
Eu2 O2 1_555 1_555
Eu3 N3 1_555 1_555
Co2 O4 1_555 1_555
O3 Eu2 1_555 1_555
N2 C5 1_555 1_555
N2 Co2 1_555 1_555
C9 C10 1_555 1_555
O5 Eu1 1_555 1_555
O7 Eu1 1_555 1_555
O8 Eu1 1_555 1_555
C17 O7 1_555 1_555
O9 Eu1 1_555 1_555
O10 Eu1 1_555 1_555
O8 C17 1_555 1_555
Co1 O1 1_555 1_555
O1 C1 1_555 1_555
O11 Co1 1_555 1_555
N6 Co1 1_555 1_555
N8 Co1 1_555 1_555
N9 Co1 1_555 1_555
Eu3 O1_2 1_555 1_555
Co2 O1_2 1_555 1_555
O1_2 C1_2 1_555 1_555
O2_2 Eu3 1_555 1_555
O3_2 C4_2 1_555 1_555
O11 C4_2 1_555 1_555
O5_2 Eu3 1_555 1_555
O6_2 C11_2 1_555 1_555
O7_2 Eu3 1_555 1_555
O8_2 Eu3 1_555 1_555
N1_2 Co2 1_555 1_555
N6 C3_2 1_555 1_555
N7 C8_2 1_555 1_555
C1_2 O2_2 1_555 1_555
C2_2 N1_2 1_555 1_555
C3_2 C2_2 1_555 1_555
C4_2 C3_2 1_555 1_555
C5_2 N1_2 1_555 1_555
C6_2 C5_2 1_555 1_555
C7_2 C6_2 1_555 1_555
H1_2 C7_2 1_555 1_555
C8_2 C6_2 1_555 1_555
H2_2 C8_2 1_555 1_555
C9_2 C7_2 1_555 1_555
H3_2 C9_2 1_555 1_555
C10_2 N7 1_555 1_555
H4_2 C10_2 1_555 1_555
C11_2 O5_2 1_555 1_555
C12_2 C11_2 1_555 1_555
C13_2 C12_2 1_555 1_555
H5_2 C13_2 1_555 1_555
C17_2 O7_2 1_555 1_555
Eu2_2 O2_2 1_555 1_555
O9_2 Eu3 1_555 1_555
O10_2 Eu3 1_555 1_555
O12_2 Eu3 1_555 1_555
N8_2 Co2 1_555 1_555
N9_2 Co2 1_555 1_555
O3_2 Eu2_2 1_555 1_555
O6_2 Eu2_2 1_555 1_555
O8_2 C17_2 1_555 1_555
N6 C5_2 1_555 1_555
C1_2 C2_2 1_555 1_555
C9_2 C10_2 1_555 1_555
Eu2_2 O9_2 1_555 1_555
N4_2 C15_2 1_555 1_555
N5_2 C21_2 1_555 1_555
H7_2 C15_2 1_555 1_555
C16_2 N4_2 1_555 1_555
H8_2 C16_2 1_555 1_555
C19_2 C18_2 1_555 1_555
H9_2 C19_2 1_555 1_555
C20_2 C18_2 1_555 1_555
H10_2 C20_2 1_555 1_555
C21_2 C19_2 1_555 1_555
H11_2 C21_2 1_555 1_555
C22_2 N5_2 1_555 1_555
H12_2 C22_2 1_555 1_555
Co4 N4_2 1_555 1_555
Co3 N5_2 1_555 1_555
C14_2 C16_2 1_555 1_555
C20_2 C22_2 1_555 1_555
Co3 O1_3 1_555 1_555
O1_3 C1_3 1_555 1_555
O11_2 Co3 1_555 1_555
N6_2 Co3 1_555 1_555
O5_3 Eu2 1_555 1_555
O7_3 Eu2 1_555 1_555
O8_3 Eu2 1_555 1_555
C17_3 O7_3 1_555 1_555
O8_3 C17_3 1_555 1_555
O10 C4_3 1_555 1_555
O4_2 C4_3 1_555 1_555
N2_2 C3_3 1_555 1_555
N3_2 C8_3 1_555 1_555
C2_3 N1_3 1_555 1_555
C3_3 C2_3 1_555 1_555
C4_3 C3_3 1_555 1_555
C5_3 N1_3 1_555 1_555
C6_3 C5_3 1_555 1_555
C7_3 C6_3 1_555 1_555
C8_3 C6_3 1_555 1_555
H2_3 C8_3 1_555 1_555
C9_3 C7_3 1_555 1_555
H3_3 C9_3 1_555 1_555
C10_3 N3_2 1_555 1_555
H4_3 C10_3 1_555 1_555
Eu2_2 N3_2 1_555 1_555
Co4 O4_2 1_555 1_555
N2_2 C5_3 1_555 1_555
N2_2 Co4 1_555 1_555
C9_3 C10_3 1_555 1_555
O12 C11_3 1_555 1_555
C12_3 C11_3 1_555 1_555
C13_3 C12_3 1_555 1_555
H5_3 C13_3 1_555 1_555
N9_2 C21_3 1_555 1_555
C19_3 C18_3 1_555 1_555
H9_3 C19_3 1_555 1_555
C20_3 C18_3 1_555 1_555
H10_3 C20_3 1_555 1_555
C21_3 C19_3 1_555 1_555
H11_3 C21_3 1_555 1_555
C22_3 N9_2 1_555 1_555
H12_3 C22_3 1_555 1_555
C20_3 C22_3 1_555 1_555
N8 C15_3 1_555 1_555
H7_3 C15_3 1_555 1_555
C16_3 N8 1_555 1_555
H8_3 C16_3 1_555 1_555
C14_3 C16_3 1_555 1_555
N8_2 C15_4 1_555 1_555
N9 C21_4 1_555 1_555
H7_4 C15_4 1_555 1_555
C16_4 N8_2 1_555 1_555
H8_4 C16_4 1_555 1_555
C19_4 C18_4 1_555 1_555
H9_4 C19_4 1_555 1_555
C20_4 C18_4 1_555 1_555
H10_4 C20_4 1_555 1_555
C21_4 C19_4 1_555 1_555
H11_4 C21_4 1_555 1_555
C22_4 N9 1_555 1_555
H12_4 C22_4 1_555 1_555
C14_4 C16_4 1_555 1_555
C20_4 C22_4 1_555 1_555
Eu2_2 O1_4 1_555 1_555
Co4 O1_4 1_555 1_555
O1_4 C1_4 1_555 1_555
O10_2 C4_4 1_555 1_555
O11_2 C4_4 1_555 1_555
O5_4 Eu2_2 1_555 1_555
O12_2 C11_4 1_555 1_555
O7_4 Eu2_2 1_555 1_555
O8_4 Eu2_2 1_555 1_555
N1_4 Co4 1_555 1_555
N6_2 C3_4 1_555 1_555
N7_2 C8_4 1_555 1_555
C1_4 O9_2 1_555 1_555
C2_4 N1_4 1_555 1_555
C3_4 C2_4 1_555 1_555
C4_4 C3_4 1_555 1_555
C5_4 N1_4 1_555 1_555
C6_4 C5_4 1_555 1_555
C7_4 C6_4 1_555 1_555
H1_4 C7_4 1_555 1_555
C8_4 C6_4 1_555 1_555
H2_4 C8_4 1_555 1_555
C9_4 C7_4 1_555 1_555
H3_4 C9_4 1_555 1_555
C10_4 N7_2 1_555 1_555
H4_4 C10_4 1_555 1_555
C11_4 O5_4 1_555 1_555
C12_4 C11_4 1_555 1_555
C13_4 C12_4 1_555 1_555
H5_4 C13_4 1_555 1_555
C17_4 O7_4 1_555 1_555
O8_4 C17_4 1_555 1_555
N6_2 C5_4 1_555 1_555
C1_4 C2_4 1_555 1_555
C9_4 C10_4 1_555 1_555

#END
