
###############################################################################
#
# This file contains modified crystal structure data generated from the
# MOF subset of the Cambridge Structural Database (CSD) v543 
# hosted by the Cambridge Crystallographic Data Centre (CCDC).
#
# This work is licensed under the Creative Commons
# Attribution-NonCommercial-ShareAlike 4.0 International License.
# To view a copy of this license, visit
# http://creativecommons.org/licenses/by-nc-sa/4.0/
# or send a letter to
# Creative Commons, PO Box 1866, Mountain View, CA 94042, USA.
#
# CIF created using the CSD Python API on 29 September 2022
# The structure has been converted into the P1 space group
# The structure has a 3D framework
# The original CSD entry PEKHEU is in the monoclinic crystal system
# The framework has been calculated to contain at least 10.0% void space
# The void calculation uses a probe of radius 1.32A, grid spacing 0.4
#
###############################################################################

data_PEKHEU
_chemical_formula_moiety         '(C88 H48 Co4 Gd4 N20 O28)n'
_symmetry_cell_setting           triclinic
_symmetry_space_group_name_H-M   'P 1'
_symmetry_Int_Tables_number      1
_space_group_name_Hall           'P 1'
loop_
_symmetry_equiv_pos_site_id
_symmetry_equiv_pos_as_xyz
1 x,y,z
_cell_length_a                   10.6962(15)
_cell_length_b                   12.9763(18)
_cell_length_c                   20.7848(19)
_cell_angle_alpha                90
_cell_angle_beta                 120.299(5)
_cell_angle_gamma                90
_cell_volume                     2490.81
loop_
_atom_site_label
_atom_site_type_symbol
_atom_site_fract_x
_atom_site_fract_y
_atom_site_fract_z
Co3 Co 0.03149(6) 0.84791(5) 0.27162(3)
Gd1 Gd 0.07210(2) 0.641968(16) 0.007980(11)
O5 O 0.2875(4) 0.7301(3) 0.02113(19)
O6 O 0.3050(4) 0.6758(4) 0.1256(2)
N4 N 0.7965(4) 0.8275(3) 0.2138(2)
C11 C 0.3580(6) 0.7196(4) 0.0902(3)
C12 C 0.5106(6) 0.7591(4) 0.1332(3)
C13 C 0.5852(6) 0.7601(5) 0.2097(3)
H5 H 0.5406 0.7373 0.2356
C14 C 0.5794(6) 0.7946(5) 0.0972(3)
H6 H 0.5317 0.7964 0.0454
C15 C 0.7255(5) 0.7945(4) 0.2479(3)
H7 H 0.7737 0.7951 0.2997
C16 C 0.7227(6) 0.8282(5) 0.1397(3)
H8 H 0.7688 0.8523 0.1148
O9 O 0.0463(3) 0.5118(2) 0.07921(15)
O10 O 0.0252(4) 0.7338(3) 0.08710(18)
O12 O 0.2393(3) 0.5078(3) 0.02333(19)
Co1 Co 0.03149(6) 0.65209(5) 0.77162(3)
O1 O 0.0208(3) 0.6113(2) 0.87254(15)
N1 N 0.0049(4) 0.4900(3) 0.76313(19)
N3 N 0.0053(5) 0.3191(3) 0.5536(2)
C5 C 0.0002(5) 0.4092(3) 0.7211(2)
C6 C 0.0357(5) 0.4099(4) 0.6613(2)
C7 C 0.1471(6) 0.4675(4) 0.6634(3)
H1 H 0.1977 0.5151 0.7013
C8 C 0.1816(7) 0.4530(4) 0.6081(3)
H2 H 0.2516 0.4938 0.6066
C9 C 0.1111(7) 0.3776(4) 0.5557(3)
H3 H 0.1376 0.3665 0.5200
O11 O 0.0431(4) 0.6653(2) 0.67657(18)
N6 N 0.0291(4) 0.8186(3) 0.7567(2)
N9 N 0.2672(4) 0.6427(3) 0.8407(2)
O2 O 0.9537(3) 0.4882(2) 0.92079(15)
O3 O 0.9748(4) 0.2662(3) 0.91290(18)
O4 O 0.9569(4) 0.1653(2) 0.82343(18)
O7 O 0.8087(3) 0.6476(3) 0.9473(2)
O8 O 0.7607(3) 0.4922(3) 0.97667(19)
N2 N 0.9709(4) 0.3186(3) 0.7433(2)
C1 C 0.9831(4) 0.5178(3) 0.8721(2)
C2 C 0.9801(5) 0.4486(3) 0.8161(2)
C3 C 0.9623(5) 0.3425(3) 0.8051(2)
C4 C 0.9603(5) 0.2534(4) 0.8501(3)
C10 C 0.9681(5) 0.3387(4) 0.6045(2)
H4 H 0.8909 0.3019 0.6017
C17 C 0.7254(5) 0.5805(4) 0.9485(2)
C18 C 0.5656(5) 0.6059(4) 0.9118(3)
C19 C 0.4722(5) 0.5347(4) 0.9130(3)
H9 H 0.5070 0.4717 0.9368
C20 C 0.5065(6) 0.6975(4) 0.8752(3)
H10 H 0.5659 0.7491 0.8742
C21 C 0.3259(5) 0.5568(4) 0.8786(3)
H11 H 0.2653 0.5088 0.8824
C22 C 0.3583(5) 0.7121(4) 0.8400(3)
H12 H 0.3203 0.7736 0.8146
Gd2 Gd 0.92790(2) 0.358032(16) 0.992020(11)
Gd3 Gd 0.92790(2) 0.141968(16) 0.492020(11)
Co2 Co 0.96851(6) 0.15209(5) 0.72838(3)
N7 N 0.9947(5) 0.8191(3) 0.9464(2)
N8 N 0.7965(4) 0.6725(3) 0.7138(2)
O7_2 O 0.1913(3) 0.1476(3) 0.5527(2)
N5 N 0.7328(4) 0.1427(3) 0.6593(2)
C1_2 C 0.0169(4) 0.0178(3) 0.6279(2)
C17_2 C 0.2746(5) 0.0805(4) 0.5515(2)
C18_2 C 0.4344(5) 0.1059(4) 0.5882(3)
C19_2 C 0.5278(5) 0.0347(4) 0.5870(3)
C20_2 C 0.4935(6) 0.1975(4) 0.6248(3)
H10_2 H 0.4341 0.2491 0.6258
C21_2 C 0.6741(5) 0.0568(4) 0.6214(3)
H11_2 H 0.7347 0.0088 0.6176
C22_2 C 0.6417(5) 0.2121(4) 0.6600(3)
H12_2 H 0.6797 0.2736 0.6854
N8_2 N 0.2035(4) 0.1725(3) 0.7862(2)
O2_2 O 0.0463(3) 0.9882(2) 0.57921(15)
O3_2 O 0.0252(4) 0.7662(3) 0.58710(18)
O8_2 O 0.2393(3) 0.9922(3) 0.52333(19)
C2_2 C 0.0199(5) 0.9486(3) 0.6839(2)
C3_2 C 0.0377(5) 0.8425(3) 0.6949(2)
C4_2 C 0.0397(5) 0.7534(4) 0.6499(3)
C10_2 C 0.0319(5) 0.8387(4) 0.8955(2)
H4_2 H 0.1091 0.8019 0.8983
H9_2 H 0.4930 0.9717 0.5632
Gd2_2 Gd 0.07210(2) 0.858032(16) 0.507980(11)
O1_2 O 0.9792(3) 0.1113(2) 0.62746(15)
O5_2 O 0.7125(4) 0.2301(3) 0.47887(19)
O6_2 O 0.6950(4) 0.1758(4) 0.3744(2)
N4_2 N 0.2035(4) 0.3275(3) 0.2862(2)
H1_2 H 0.8023 0.0151 0.7987
C11_2 C 0.6420(6) 0.2196(4) 0.4098(3)
C12_2 C 0.4894(6) 0.2591(4) 0.3668(3)
C13_2 C 0.4148(6) 0.2601(5) 0.2903(3)
H5_2 H 0.4594 0.2373 0.2644
C14_2 C 0.4206(6) 0.2946(5) 0.4028(3)
H6_2 H 0.4683 0.2964 0.4546
C15_2 C 0.2745(5) 0.2945(4) 0.2521(3)
H7_2 H 0.2263 0.2951 0.2003
C16_2 C 0.2773(6) 0.3282(5) 0.3603(3)
H8_2 H 0.2312 0.3523 0.3852
O9_2 O 0.9537(3) 0.0118(2) 0.42079(15)
O10_2 O 0.9748(4) 0.2338(3) 0.41290(18)
O12_2 O 0.7607(3) 0.0078(3) 0.47667(19)
N1_2 N 0.9951(4) 0.9900(3) 0.73687(19)
C5_2 C 0.9998(5) 0.9092(3) 0.7789(2)
C6_2 C 0.9643(5) 0.9099(4) 0.8387(2)
C7_2 C 0.8529(6) 0.9675(4) 0.8366(3)
C8_2 C 0.8184(7) 0.9530(4) 0.8919(3)
H2_2 H 0.7484 0.9938 0.8934
C9_2 C 0.8889(7) 0.8776(4) 0.9443(3)
H3_2 H 0.8624 0.8665 0.9800
Co3_2 Co 0.96851(6) 0.34791(5) 0.22838(3)
O4_2 O 0.0431(4) 0.8347(2) 0.17657(18)
O7_3 O 0.1913(3) 0.3524(3) 0.0527(2)
N2_2 N 0.0291(4) 0.6814(3) 0.2567(2)
N5_2 N 0.7328(4) 0.3573(3) 0.1593(2)
C1_3 C 0.0169(4) 0.4822(3) 0.1279(2)
C2_3 C 0.0199(5) 0.5514(3) 0.1839(2)
C3_3 C 0.0377(5) 0.6575(3) 0.1949(2)
C4_3 C 0.0397(5) 0.7466(4) 0.1499(3)
C10_3 C 0.0319(5) 0.6613(4) 0.3955(2)
H4_3 H 0.1091 0.6981 0.3983
C17_3 C 0.2746(5) 0.4195(4) 0.0515(2)
C18_3 C 0.4344(5) 0.3941(4) 0.0882(3)
C19_3 C 0.5278(5) 0.4653(4) 0.0870(3)
H9_3 H 0.4930 0.5283 0.0632
C20_3 C 0.4935(6) 0.3025(4) 0.1248(3)
H10_3 H 0.4341 0.2509 0.1258
C21_3 C 0.6741(5) 0.4432(4) 0.1214(3)
H11_3 H 0.7347 0.4912 0.1176
C22_3 C 0.6417(5) 0.2879(4) 0.1600(3)
H12_3 H 0.6797 0.2264 0.1854
N7_2 N 0.0053(5) 0.1809(3) 0.0536(2)
O1_3 O 0.9792(3) 0.3887(2) 0.12746(15)
N1_3 N 0.9951(4) 0.5100(3) 0.23687(19)
N3_2 N 0.9947(5) 0.6809(3) 0.4464(2)
C5_3 C 0.9998(5) 0.5908(3) 0.2789(2)
C6_3 C 0.9643(5) 0.5901(4) 0.3387(2)
C7_3 C 0.8529(6) 0.5325(4) 0.3366(3)
H1_3 H 0.8023 0.4849 0.2987
C8_3 C 0.8184(7) 0.5470(4) 0.3919(3)
H2_3 H 0.7484 0.5062 0.3934
C9_3 C 0.8889(7) 0.6224(4) 0.4443(3)
H3_3 H 0.8624 0.6335 0.4800
O11_2 O 0.9569(4) 0.3347(2) 0.32343(18)
N6_2 N 0.9709(4) 0.1814(3) 0.2433(2)
O5_3 O 0.7125(4) 0.2699(3) 0.97887(19)
O6_3 O 0.6950(4) 0.3242(4) 0.8744(2)
C11_3 C 0.6420(6) 0.2804(4) 0.9098(3)
C12_3 C 0.4894(6) 0.2409(4) 0.8668(3)
C13_3 C 0.4148(6) 0.2399(5) 0.7903(3)
H5_3 H 0.4594 0.2627 0.7644
C14_3 C 0.4206(6) 0.2054(5) 0.9028(3)
H6_3 H 0.4683 0.2036 0.9546
C15_3 C 0.2745(5) 0.2055(4) 0.7521(3)
H7_3 H 0.2263 0.2049 0.7003
C16_3 C 0.2773(6) 0.1718(5) 0.8603(3)
H8_3 H 0.2312 0.1477 0.8852
N1_4 N 0.0049(4) 0.0100(3) 0.26313(19)
C5_4 C 0.0002(5) 0.0908(3) 0.2211(2)
C6_4 C 0.0357(5) 0.0901(4) 0.1613(2)
C7_4 C 0.1471(6) 0.0325(4) 0.1634(3)
C8_4 C 0.1816(7) 0.0470(4) 0.1081(3)
H2_4 H 0.2516 0.0062 0.1066
C9_4 C 0.1111(7) 0.1224(4) 0.0557(3)
H3_4 H 0.1376 0.1335 0.0200
O1_4 O 0.0208(3) 0.8887(2) 0.37254(15)
O5_4 O 0.2875(4) 0.7699(3) 0.52113(19)
O6_4 O 0.3050(4) 0.8242(4) 0.6256(2)
H1_4 H 0.1977 0.9849 0.2013
C11_4 C 0.3580(6) 0.7804(4) 0.5902(3)
C12_4 C 0.5106(6) 0.7409(4) 0.6332(3)
C13_4 C 0.5852(6) 0.7399(5) 0.7097(3)
H5_4 H 0.5406 0.7627 0.7356
C14_4 C 0.5794(6) 0.7054(5) 0.5972(3)
H6_4 H 0.5317 0.7036 0.5454
C15_4 C 0.7255(5) 0.7055(4) 0.7479(3)
H7_4 H 0.7737 0.7049 0.7997
C16_4 C 0.7227(6) 0.6718(5) 0.6397(3)
H8_4 H 0.7688 0.6477 0.6148
N9_2 N 0.2672(4) 0.8573(3) 0.3407(2)
C2_4 C 0.9801(5) 0.0514(3) 0.3161(2)
C3_4 C 0.9623(5) 0.1575(3) 0.3051(2)
C4_4 C 0.9603(5) 0.2466(4) 0.3501(3)
C10_4 C 0.9681(5) 0.1613(4) 0.1045(2)
H4_4 H 0.8909 0.1981 0.1017
H9_4 H 0.5070 0.0283 0.4368
O7_4 O 0.8087(3) 0.8524(3) 0.4473(2)
C1_4 C 0.9831(4) 0.9822(3) 0.3721(2)
C17_4 C 0.7254(5) 0.9195(4) 0.4485(2)
C18_4 C 0.5656(5) 0.8941(4) 0.4118(3)
C19_4 C 0.4722(5) 0.9653(4) 0.4130(3)
C20_4 C 0.5065(6) 0.8025(4) 0.3752(3)
H10_4 H 0.5659 0.7509 0.3742
C21_4 C 0.3259(5) 0.9432(4) 0.3786(3)
H11_4 H 0.2653 0.9912 0.3824
C22_4 C 0.3583(5) 0.7879(4) 0.3400(3)
H12_4 H 0.3203 0.7264 0.3146
loop_
_geom_bond_atom_site_label_1
_geom_bond_atom_site_label_2
_geom_bond_site_symmetry_1
_geom_bond_site_symmetry_2
O5 Gd1 1_555 1_555
O6 Gd1 1_555 1_555
N4 C15 1_555 1_555
C11 O5 1_555 1_555
C12 C11 1_555 1_555
C13 C12 1_555 1_555
H5 C13 1_555 1_555
C14 C12 1_555 1_555
H6 C14 1_555 1_555
C15 C13 1_555 1_555
H7 C15 1_555 1_555
C16 N4 1_555 1_555
H8 C16 1_555 1_555
O9 Gd1 1_555 1_555
O10 Gd1 1_555 1_555
O12 Gd1 1_555 1_555
O6 C11 1_555 1_555
C14 C16 1_555 1_555
Co1 O1 1_555 1_555
N1 Co1 1_555 1_555
N3 C9 1_555 1_555
C5 N1 1_555 1_555
C6 C5 1_555 1_555
C7 C6 1_555 1_555
H1 C7 1_555 1_555
C8 C7 1_555 1_555
H2 C8 1_555 1_555
C9 C8 1_555 1_555
H3 C9 1_555 1_555
O11 Co1 1_555 1_555
N6 Co1 1_555 1_555
N9 Co1 1_555 1_555
O3 C4 1_555 1_555
O4 C4 1_555 1_555
O8 C17 1_555 1_555
N2 C3 1_555 1_555
N9 C21 1_555 1_555
C1 O2 1_555 1_555
C3 C2 1_555 1_555
C4 C3 1_555 1_555
H4 C10 1_555 1_555
C17 O7 1_555 1_555
C18 C17 1_555 1_555
C19 C18 1_555 1_555
H9 C19 1_555 1_555
C20 C18 1_555 1_555
H10 C20 1_555 1_555
C21 C19 1_555 1_555
H11 C21 1_555 1_555
C22 N9 1_555 1_555
H12 C22 1_555 1_555
Gd2 O2 1_555 1_555
Co2 O4 1_555 1_555
O3 Gd2 1_555 1_555
O8 Gd2 1_555 1_555
N2 Co2 1_555 1_555
C1 C2 1_555 1_555
C20 C22 1_555 1_555
N5 C21_2 1_555 1_555
C17_2 O7_2 1_555 1_555
C18_2 C17_2 1_555 1_555
C19_2 C18_2 1_555 1_555
C20_2 C18_2 1_555 1_555
H10_2 C20_2 1_555 1_555
C21_2 C19_2 1_555 1_555
H11_2 C21_2 1_555 1_555
C22_2 N5 1_555 1_555
H12_2 C22_2 1_555 1_555
Co2 N5 1_555 1_555
C20_2 C22_2 1_555 1_555
O3_2 C4_2 1_555 1_555
O11 C4_2 1_555 1_555
N6 C3_2 1_555 1_555
C3_2 C2_2 1_555 1_555
C4_2 C3_2 1_555 1_555
H4_2 C10_2 1_555 1_555
Gd2_2 O2_2 1_555 1_555
O3_2 Gd2_2 1_555 1_555
O8_2 Gd2_2 1_555 1_555
Gd3 O1_2 1_555 1_555
Co2 O1_2 1_555 1_555
O5_2 Gd3 1_555 1_555
O6_2 Gd3 1_555 1_555
N4_2 C15_2 1_555 1_555
C11_2 O5_2 1_555 1_555
C12_2 C11_2 1_555 1_555
C13_2 C12_2 1_555 1_555
H5_2 C13_2 1_555 1_555
C14_2 C12_2 1_555 1_555
H6_2 C14_2 1_555 1_555
C15_2 C13_2 1_555 1_555
H7_2 C15_2 1_555 1_555
C16_2 N4_2 1_555 1_555
H8_2 C16_2 1_555 1_555
O9_2 Gd3 1_555 1_555
O10_2 Gd3 1_555 1_555
O12_2 Gd3 1_555 1_555
O6_2 C11_2 1_555 1_555
C14_2 C16_2 1_555 1_555
N7 C9_2 1_555 1_555
C5_2 N1_2 1_555 1_555
C6_2 C5_2 1_555 1_555
C7_2 C6_2 1_555 1_555
C8_2 C7_2 1_555 1_555
H2_2 C8_2 1_555 1_555
C9_2 C8_2 1_555 1_555
H3_2 C9_2 1_555 1_555
O10 C4_3 1_555 1_555
O4_2 C4_3 1_555 1_555
O12 C17_3 1_555 1_555
N2_2 C3_3 1_555 1_555
N5_2 C21_3 1_555 1_555
C1_3 O9 1_555 1_555
C3_3 C2_3 1_555 1_555
C4_3 C3_3 1_555 1_555
H4_3 C10_3 1_555 1_555
C17_3 O7_3 1_555 1_555
C18_3 C17_3 1_555 1_555
C19_3 C18_3 1_555 1_555
H9_3 C19_3 1_555 1_555
C20_3 C18_3 1_555 1_555
H10_3 C20_3 1_555 1_555
C21_3 C19_3 1_555 1_555
H11_3 C21_3 1_555 1_555
C22_3 N5_2 1_555 1_555
H12_3 C22_3 1_555 1_555
Co3 O4_2 1_555 1_555
Co3_2 N5_2 1_555 1_555
N2_2 Co3 1_555 1_555
C1_3 C2_3 1_555 1_555
C20_3 C22_3 1_555 1_555
Co3_2 O1_3 1_555 1_555
N1_3 Co3_2 1_555 1_555
N3_2 C9_3 1_555 1_555
C5_3 N1_3 1_555 1_555
C6_3 C5_3 1_555 1_555
C7_3 C6_3 1_555 1_555
H1_3 C7_3 1_555 1_555
C8_3 C7_3 1_555 1_555
H2_3 C8_3 1_555 1_555
C9_3 C8_3 1_555 1_555
H3_3 C9_3 1_555 1_555
O11_2 Co3_2 1_555 1_555
N6_2 Co3_2 1_555 1_555
O5_3 Gd2 1_555 1_555
O6_3 Gd2 1_555 1_555
N8_2 C15_3 1_555 1_555
C11_3 O5_3 1_555 1_555
C12_3 C11_3 1_555 1_555
C13_3 C12_3 1_555 1_555
H5_3 C13_3 1_555 1_555
C14_3 C12_3 1_555 1_555
H6_3 C14_3 1_555 1_555
C15_3 C13_3 1_555 1_555
H7_3 C15_3 1_555 1_555
C16_3 N8_2 1_555 1_555
H8_3 C16_3 1_555 1_555
O6_3 C11_3 1_555 1_555
C14_3 C16_3 1_555 1_555
N7_2 C9_4 1_555 1_555
C5_4 N1_4 1_555 1_555
C6_4 C5_4 1_555 1_555
C7_4 C6_4 1_555 1_555
C8_4 C7_4 1_555 1_555
H2_4 C8_4 1_555 1_555
C9_4 C8_4 1_555 1_555
H3_4 C9_4 1_555 1_555
Gd2_2 O1_4 1_555 1_555
Co3 O1_4 1_555 1_555
O5_4 Gd2_2 1_555 1_555
O6_4 Gd2_2 1_555 1_555
N8 C15_4 1_555 1_555
C11_4 O5_4 1_555 1_555
C12_4 C11_4 1_555 1_555
C13_4 C12_4 1_555 1_555
H5_4 C13_4 1_555 1_555
C14_4 C12_4 1_555 1_555
H6_4 C14_4 1_555 1_555
C15_4 C13_4 1_555 1_555
H7_4 C15_4 1_555 1_555
C16_4 N8 1_555 1_555
H8_4 C16_4 1_555 1_555
N9_2 Co3 1_555 1_555
O6_4 C11_4 1_555 1_555
C14_4 C16_4 1_555 1_555
O10_2 C4_4 1_555 1_555
O11_2 C4_4 1_555 1_555
N6_2 C3_4 1_555 1_555
C3_4 C2_4 1_555 1_555
C4_4 C3_4 1_555 1_555
H4_4 C10_4 1_555 1_555
N9_2 C21_4 1_555 1_555
C17_4 O7_4 1_555 1_555
C18_4 C17_4 1_555 1_555
C19_4 C18_4 1_555 1_555
C20_4 C18_4 1_555 1_555
H10_4 C20_4 1_555 1_555
C21_4 C19_4 1_555 1_555
H11_4 C21_4 1_555 1_555
C22_4 N9_2 1_555 1_555
H12_4 C22_4 1_555 1_555
C20_4 C22_4 1_555 1_555

#END
