
###############################################################################
#
# This file contains modified crystal structure data generated from the
# MOF subset of the Cambridge Structural Database (CSD) v543 
# hosted by the Cambridge Crystallographic Data Centre (CCDC).
#
# This work is licensed under the Creative Commons
# Attribution-NonCommercial-ShareAlike 4.0 International License.
# To view a copy of this license, visit
# http://creativecommons.org/licenses/by-nc-sa/4.0/
# or send a letter to
# Creative Commons, PO Box 1866, Mountain View, CA 94042, USA.
#
# CIF created using the CSD Python API on 29 September 2022
# The structure has been converted into the P1 space group
# The structure has a 3D framework
# The original CSD entry PEKHOE is in the monoclinic crystal system
# The framework has been calculated to contain at least 10.0% void space
# The void calculation uses a probe of radius 1.32A, grid spacing 0.4
#
###############################################################################

data_PEKHOE
_chemical_formula_moiety         '(C92 H48 Co4 N20 O30 Tb4)n'
_symmetry_cell_setting           triclinic
_symmetry_space_group_name_H-M   'P 1'
_symmetry_Int_Tables_number      1
_space_group_name_Hall           'P 1'
loop_
_symmetry_equiv_pos_site_id
_symmetry_equiv_pos_as_xyz
1 x,y,z
_cell_length_a                   10.6675(15)
_cell_length_b                   12.9658(18)
_cell_length_c                   20.7130(19)
_cell_angle_alpha                90
_cell_angle_beta                 120.068(5)
_cell_angle_gamma                90
_cell_volume                     2479.35
loop_
_atom_site_label
_atom_site_type_symbol
_atom_site_fract_x
_atom_site_fract_y
_atom_site_fract_z
Co4 Co 0.03088(5) 0.84886(3) 0.27103(2)
Tb1 Tb 0.071313(16) 0.641224(11) 0.007604(8)
O5 O 0.2393(3) 0.51008(19) 0.02119(15)
O6 O 0.1904(3) 0.35431(18) 0.05057(16)
O7 O 0.3068(3) 0.6705(3) 0.12596(16)
O8 O 0.2852(3) 0.7322(2) 0.02218(15)
N3 N 0.7336(3) 0.3601(2) 0.15958(17)
N4 N 0.7955(3) 0.8269(2) 0.21308(17)
C11 C 0.2734(4) 0.4214(3) 0.04947(19)
C12 C 0.4348(4) 0.3968(3) 0.0872(2)
C13 C 0.4924(4) 0.3047(3) 0.1232(2)
H5 H 0.4325 0.2530 0.1238
C14 C 0.6409(4) 0.2904(3) 0.1586(2)
H6 H 0.6783 0.2282 0.1832
C15 C 0.6756(4) 0.4479(3) 0.1225(2)
H7 H 0.7370 0.4970 0.1205
C16 C 0.5291(4) 0.4691(3) 0.0870(2)
H8 H 0.4943 0.5321 0.0631
C17 C 0.3572(4) 0.7183(3) 0.0913(2)
C18 C 0.5110(4) 0.7576(3) 0.1340(2)
C19 C 0.5813(5) 0.7922(4) 0.0974(2)
H9 H 0.5342 0.7924 0.0456
C20 C 0.7229(5) 0.8265(4) 0.1391(2)
H10 H 0.7692 0.8504 0.1141
C21 C 0.7260(4) 0.7947(3) 0.2483(2)
H11 H 0.7749 0.7965 0.3001
C22 C 0.5844(4) 0.7589(4) 0.2109(2)
H12 H 0.5399 0.7362 0.2371
Co3 Co 0.96912(5) 0.34886(3) 0.22897(2)
O9 O 0.0474(3) 0.51226(17) 0.07889(12)
O10 O 0.0291(3) 0.73362(19) 0.08724(13)
Co1 Co 0.03088(5) 0.65114(3) 0.77103(2)
O1 O 0.0190(2) 0.61065(16) 0.87188(12)
N1 N 0.0046(3) 0.4885(2) 0.76270(14)
N5 N 0.0093(4) 0.3154(2) 0.55467(16)
C5 C 0.0000(4) 0.4075(2) 0.72139(17)
C6 C 0.0378(4) 0.4079(3) 0.66162(18)
C7 C 0.1476(4) 0.4668(3) 0.6628(2)
H1 H 0.1969 0.5155 0.7001
C8 C 0.1826(5) 0.4515(3) 0.6076(2)
H2 H 0.2520 0.4926 0.6055
C9 C 0.1135(5) 0.3749(3) 0.5557(2)
H3 H 0.1399 0.3638 0.5198
O11 O 0.0447(3) 0.66523(17) 0.67606(14)
N6 N 0.0286(3) 0.8172(2) 0.75609(15)
N7 N 0.2664(3) 0.6399(2) 0.84042(17)
O2 O 0.9526(3) 0.48774(17) 0.92111(12)
O3 O 0.9709(3) 0.26638(19) 0.91276(13)
O4 O 0.9553(3) 0.16523(17) 0.82394(14)
N2 N 0.9714(3) 0.3172(2) 0.74391(15)
C1 C 0.9823(3) 0.5171(2) 0.87224(16)
C2 C 0.9788(3) 0.4475(2) 0.81596(17)
C3 C 0.9610(4) 0.3417(2) 0.80501(18)
C4 C 0.9593(4) 0.2532(3) 0.85059(18)
C5_2 C 1.0000(4) 0.4075(2) 0.72139(17)
C10 C 0.9704(4) 0.3355(3) 0.60520(19)
H4 H 0.8932 0.2986 0.6025
Tb2 Tb 0.928687(16) 0.358776(11) 0.992396(8)
Tb3 Tb 0.928687(16) 0.141224(11) 0.492396(8)
Co2 Co 0.96912(5) 0.15114(3) 0.72897(2)
O12 O 0.8096(3) 0.64569(18) 0.94943(16)
N8 N 0.7955(3) 0.6731(2) 0.71308(17)
N9 N 0.9907(4) 0.8154(2) 0.94533(16)
C1_2 C 0.0177(3) 0.0171(2) 0.62776(16)
O12_2 O 0.1904(3) 0.14569(18) 0.55057(16)
N8_2 N 0.2045(3) 0.1731(2) 0.78692(17)
O2_2 O 0.0474(3) 0.98774(17) 0.57889(12)
O3_2 O 0.0291(3) 0.76638(19) 0.58724(13)
C2_2 C 0.0212(3) 0.9475(2) 0.68404(17)
C3_2 C 0.0390(4) 0.8417(2) 0.69499(18)
C4_2 C 0.0407(4) 0.7532(3) 0.64941(18)
C5_3 C 0.0000(4) 0.9075(2) 0.77861(17)
C10_2 C 0.0296(4) 0.8355(3) 0.89480(19)
H4_2 H 0.1068 0.7986 0.8975
Tb2_2 Tb 0.071313(16) 0.858776(11) 0.507604(8)
O1_2 O 0.9810(2) 0.11065(16) 0.62812(12)
O5_2 O 0.7607(3) 0.01008(19) 0.47881(15)
O7_2 O 0.6932(3) 0.1705(3) 0.37404(16)
O8_2 O 0.7148(3) 0.2322(2) 0.47782(15)
N4_2 N 0.2045(3) 0.3269(2) 0.28692(17)
H1_2 H 0.8031 0.0155 0.7999
H8_2 H 0.5057 0.0321 0.4369
C17_2 C 0.6428(4) 0.2183(3) 0.4087(2)
C18_2 C 0.4890(4) 0.2576(3) 0.3660(2)
C19_2 C 0.4187(5) 0.2922(4) 0.4026(2)
H9_2 H 0.4658 0.2924 0.4544
C20_2 C 0.2771(5) 0.3265(4) 0.3609(2)
H10_2 H 0.2308 0.3504 0.3859
C21_2 C 0.2740(4) 0.2947(3) 0.2517(2)
H11_2 H 0.2251 0.2965 0.1999
C22_2 C 0.4156(4) 0.2589(4) 0.2891(2)
H12_2 H 0.4601 0.2362 0.2629
O9_2 O 0.9526(3) 0.01226(17) 0.42111(12)
O10_2 O 0.9709(3) 0.23362(19) 0.41276(13)
N7_2 N 0.7336(3) 0.1399(2) 0.65958(17)
O6_2 O 0.8096(3) 0.85431(18) 0.44943(16)
N1_2 N 0.9954(3) 0.9885(2) 0.73730(14)
N3_2 N 0.2664(3) 0.8601(2) 0.34042(17)
C5_4 C 1.0000(4) 0.9075(2) 0.77861(17)
C6_2 C 0.9622(4) 0.9079(3) 0.83838(18)
C7_2 C 0.8524(4) 0.9668(3) 0.8372(2)
C8_2 C 0.8174(5) 0.9515(3) 0.8924(2)
H2_2 H 0.7480 0.9926 0.8945
C9_2 C 0.8865(5) 0.8749(3) 0.9443(2)
H3_2 H 0.8601 0.8638 0.9802
C11_2 C 0.7266(4) 0.9214(3) 0.45053(19)
C12_2 C 0.5652(4) 0.8968(3) 0.4128(2)
C13_2 C 0.5076(4) 0.8047(3) 0.3768(2)
H5_2 H 0.5675 0.7530 0.3762
C14_2 C 0.3591(4) 0.7904(3) 0.3414(2)
H6_2 H 0.3217 0.7282 0.3168
C15_2 C 0.3244(4) 0.9479(3) 0.3775(2)
H7_2 H 0.2630 0.9970 0.3795
C16_2 C 0.4709(4) 0.9691(3) 0.4130(2)
O4_2 O 0.0447(3) 0.83477(17) 0.17606(14)
N2_2 N 0.0286(3) 0.6828(2) 0.25609(15)
C1_3 C 0.0177(3) 0.4829(2) 0.12776(16)
C2_3 C 0.0212(3) 0.5525(2) 0.18404(17)
C3_3 C 0.0390(4) 0.6583(2) 0.19499(18)
C4_3 C 0.0407(4) 0.7468(3) 0.14941(18)
C5_5 C -0.0000(4) 0.5925(2) 0.27861(17)
C10_3 C 0.0296(4) 0.6645(3) 0.39480(19)
H4_3 H 0.1068 0.7014 0.3975
N9_2 N 0.0093(4) 0.1846(2) 0.05467(16)
O1_3 O 0.9810(2) 0.38935(16) 0.12812(12)
N1_3 N 0.9954(3) 0.5115(2) 0.23730(14)
N5_2 N 0.9907(4) 0.6846(2) 0.44533(16)
C5_6 C 1.0000(4) 0.5925(2) 0.27861(17)
C6_3 C 0.9622(4) 0.5921(3) 0.33838(18)
C7_3 C 0.8524(4) 0.5332(3) 0.3372(2)
H1_3 H 0.8031 0.4845 0.2999
C8_3 C 0.8174(5) 0.5485(3) 0.3924(2)
H2_3 H 0.7480 0.5074 0.3945
C9_3 C 0.8865(5) 0.6251(3) 0.4443(2)
H3_3 H 0.8601 0.6362 0.4802
O11_2 O 0.9553(3) 0.33477(17) 0.32394(14)
N6_2 N 0.9714(3) 0.1828(2) 0.24391(15)
O5_3 O 0.7607(3) 0.48992(19) 0.97881(15)
O7_3 O 0.6932(3) 0.3295(3) 0.87404(16)
O8_3 O 0.7148(3) 0.2678(2) 0.97782(15)
C11_3 C 0.7266(4) 0.5786(3) 0.95053(19)
C12_3 C 0.5652(4) 0.6032(3) 0.9128(2)
C13_3 C 0.5076(4) 0.6953(3) 0.8768(2)
H5_3 H 0.5675 0.7470 0.8762
C14_3 C 0.3591(4) 0.7096(3) 0.8414(2)
H6_3 H 0.3217 0.7718 0.8168
C15_3 C 0.3244(4) 0.5521(3) 0.8775(2)
H7_3 H 0.2630 0.5030 0.8795
C16_3 C 0.4709(4) 0.5309(3) 0.9130(2)
H8_3 H 0.5057 0.4679 0.9369
C17_3 C 0.6428(4) 0.2817(3) 0.9087(2)
C18_3 C 0.4890(4) 0.2424(3) 0.8660(2)
C19_3 C 0.4187(5) 0.2078(4) 0.9026(2)
H9_3 H 0.4658 0.2076 0.9544
C20_3 C 0.2771(5) 0.1735(4) 0.8609(2)
H10_3 H 0.2308 0.1496 0.8859
C21_3 C 0.2740(4) 0.2053(3) 0.7517(2)
H11_3 H 0.2251 0.2035 0.6999
C22_3 C 0.4156(4) 0.2411(4) 0.7891(2)
H12_3 H 0.4601 0.2638 0.7629
N1_4 N 0.0046(3) 0.0115(2) 0.26270(14)
C5_7 C 0.0000(4) 0.0925(2) 0.22139(17)
C6_4 C 0.0378(4) 0.0921(3) 0.16162(18)
C7_4 C 0.1476(4) 0.0332(3) 0.1628(2)
C8_4 C 0.1826(5) 0.0485(3) 0.1076(2)
H2_4 H 0.2520 0.0074 0.1055
C9_4 C 0.1135(5) 0.1251(3) 0.0557(2)
H3_4 H 0.1399 0.1362 0.0198
C11_4 C 0.2734(4) 0.0786(3) 0.54947(19)
C12_4 C 0.4348(4) 0.1032(3) 0.5872(2)
C13_4 C 0.4924(4) 0.1953(3) 0.6232(2)
H5_4 H 0.4325 0.2470 0.6238
C14_4 C 0.6409(4) 0.2096(3) 0.6586(2)
H6_4 H 0.6783 0.2718 0.6832
C15_4 C 0.6756(4) 0.0521(3) 0.6225(2)
H7_4 H 0.7370 0.0030 0.6205
C16_4 C 0.5291(4) 0.0309(3) 0.5870(2)
O1_4 O 0.0190(2) 0.88935(16) 0.37188(12)
O5_4 O 0.2393(3) 0.98992(19) 0.52119(15)
O7_4 O 0.3068(3) 0.8295(3) 0.62596(16)
O8_4 O 0.2852(3) 0.7678(2) 0.52218(15)
H1_4 H 0.1969 0.9845 0.2001
H8_4 H 0.4943 0.9679 0.5631
C17_4 C 0.3572(4) 0.7817(3) 0.5913(2)
C18_4 C 0.5110(4) 0.7424(3) 0.6340(2)
C19_4 C 0.5813(5) 0.7078(4) 0.5974(2)
H9_4 H 0.5342 0.7076 0.5456
C20_4 C 0.7229(5) 0.6735(4) 0.6391(2)
H10_4 H 0.7692 0.6496 0.6141
C21_4 C 0.7260(4) 0.7053(3) 0.7483(2)
H11_4 H 0.7749 0.7035 0.8001
C22_4 C 0.5844(4) 0.7411(4) 0.7109(2)
H12_4 H 0.5399 0.7638 0.7371
C2_4 C 0.9788(3) 0.0525(2) 0.31596(17)
C3_4 C 0.9610(4) 0.1583(2) 0.30501(18)
C4_4 C 0.9593(4) 0.2468(3) 0.35059(18)
C5_8 C 1.0000(4) 0.0925(2) 0.22139(17)
C10_4 C 0.9704(4) 0.1645(3) 0.10520(19)
H4_4 H 0.8932 0.2014 0.1025
C1_4 C 0.9823(3) 0.9829(2) 0.37224(16)
loop_
_geom_bond_atom_site_label_1
_geom_bond_atom_site_label_2
_geom_bond_site_symmetry_1
_geom_bond_site_symmetry_2
O5 Tb1 1_555 1_555
O6 C11 1_555 1_555
O7 Tb1 1_555 1_555
O8 Tb1 1_555 1_555
N3 C14 1_555 1_555
N4 C20 1_555 1_555
C11 O5 1_555 1_555
C12 C11 1_555 1_555
C13 C12 1_555 1_555
H5 C13 1_555 1_555
C14 C13 1_555 1_555
H6 C14 1_555 1_555
C15 N3 1_555 1_555
H7 C15 1_555 1_555
C16 C12 1_555 1_555
H8 C16 1_555 1_555
C17 O7 1_555 1_555
C18 C17 1_555 1_555
C19 C18 1_555 1_555
H9 C19 1_555 1_555
C20 C19 1_555 1_555
H10 C20 1_555 1_555
C21 N4 1_555 1_555
H11 C21 1_555 1_555
C22 C18 1_555 1_555
H12 C22 1_555 1_555
Co3 N3 1_555 1_555
O9 Tb1 1_555 1_555
O10 Tb1 1_555 1_555
O8 C17 1_555 1_555
C15 C16 1_555 1_555
C21 C22 1_555 1_555
Co1 O1 1_555 1_555
N1 Co1 1_555 1_555
N5 C9 1_555 1_555
C5 N1 1_555 1_555
C6 C5 1_555 1_555
C7 C6 1_555 1_555
H1 C7 1_555 1_555
C8 C7 1_555 1_555
H2 C8 1_555 1_555
C9 C8 1_555 1_555
H3 C9 1_555 1_555
O11 Co1 1_555 1_555
N6 Co1 1_555 1_555
N7 Co1 1_555 1_555
O3 C4 1_555 1_555
O4 C4 1_555 1_555
N2 C3 1_555 1_555
C1 O2 1_555 1_555
C3 C2 1_555 1_555
C4 C3 1_555 1_555
H4 C10 1_555 1_555
Tb2 O2 1_555 1_555
Co2 O4 1_555 1_555
O3 Tb2 1_555 1_555
N2 C5_2 1_555 1_555
N2 Co2 1_555 1_555
C1 C2 1_555 1_555
O3_2 C4_2 1_555 1_555
O11 C4_2 1_555 1_555
N6 C3_2 1_555 1_555
C3_2 C2_2 1_555 1_555
C4_2 C3_2 1_555 1_555
H4_2 C10_2 1_555 1_555
Tb2_2 O2_2 1_555 1_555
O3_2 Tb2_2 1_555 1_555
N6 C5_3 1_555 1_555
Tb3 O1_2 1_555 1_555
Co2 O1_2 1_555 1_555
O5_2 Tb3 1_555 1_555
O7_2 Tb3 1_555 1_555
O8_2 Tb3 1_555 1_555
N4_2 C20_2 1_555 1_555
C17_2 O7_2 1_555 1_555
C18_2 C17_2 1_555 1_555
C19_2 C18_2 1_555 1_555
H9_2 C19_2 1_555 1_555
C20_2 C19_2 1_555 1_555
H10_2 C20_2 1_555 1_555
C21_2 N4_2 1_555 1_555
H11_2 C21_2 1_555 1_555
C22_2 C18_2 1_555 1_555
H12_2 C22_2 1_555 1_555
O9_2 Tb3 1_555 1_555
O10_2 Tb3 1_555 1_555
N7_2 Co2 1_555 1_555
O8_2 C17_2 1_555 1_555
C21_2 C22_2 1_555 1_555
O6_2 C11_2 1_555 1_555
N3_2 C14_2 1_555 1_555
N9 C9_2 1_555 1_555
C5_4 N1_2 1_555 1_555
C6_2 C5_4 1_555 1_555
C7_2 C6_2 1_555 1_555
C8_2 C7_2 1_555 1_555
H2_2 C8_2 1_555 1_555
C9_2 C8_2 1_555 1_555
H3_2 C9_2 1_555 1_555
C12_2 C11_2 1_555 1_555
C13_2 C12_2 1_555 1_555
H5_2 C13_2 1_555 1_555
C14_2 C13_2 1_555 1_555
H6_2 C14_2 1_555 1_555
C15_2 N3_2 1_555 1_555
H7_2 C15_2 1_555 1_555
C16_2 C12_2 1_555 1_555
Co4 N3_2 1_555 1_555
C15_2 C16_2 1_555 1_555
O10 C4_3 1_555 1_555
O4_2 C4_3 1_555 1_555
N2_2 C3_3 1_555 1_555
C1_3 O9 1_555 1_555
C3_3 C2_3 1_555 1_555
C4_3 C3_3 1_555 1_555
H4_3 C10_3 1_555 1_555
Co4 O4_2 1_555 1_555
N2_2 C5_5 1_555 1_555
N2_2 Co4 1_555 1_555
C1_3 C2_3 1_555 1_555
Co3 O1_3 1_555 1_555
N1_3 Co3 1_555 1_555
N5_2 C9_3 1_555 1_555
C5_6 N1_3 1_555 1_555
C6_3 C5_6 1_555 1_555
C7_3 C6_3 1_555 1_555
H1_3 C7_3 1_555 1_555
C8_3 C7_3 1_555 1_555
H2_3 C8_3 1_555 1_555
C9_3 C8_3 1_555 1_555
H3_3 C9_3 1_555 1_555
O11_2 Co3 1_555 1_555
N6_2 Co3 1_555 1_555
O5_3 Tb2 1_555 1_555
O12 C11_3 1_555 1_555
O7_3 Tb2 1_555 1_555
O8_3 Tb2 1_555 1_555
N7 C14_3 1_555 1_555
N8_2 C20_3 1_555 1_555
C11_3 O5_3 1_555 1_555
C12_3 C11_3 1_555 1_555
C13_3 C12_3 1_555 1_555
H5_3 C13_3 1_555 1_555
C14_3 C13_3 1_555 1_555
H6_3 C14_3 1_555 1_555
C15_3 N7 1_555 1_555
H7_3 C15_3 1_555 1_555
C16_3 C12_3 1_555 1_555
H8_3 C16_3 1_555 1_555
C17_3 O7_3 1_555 1_555
C18_3 C17_3 1_555 1_555
C19_3 C18_3 1_555 1_555
H9_3 C19_3 1_555 1_555
C20_3 C19_3 1_555 1_555
H10_3 C20_3 1_555 1_555
C21_3 N8_2 1_555 1_555
H11_3 C21_3 1_555 1_555
C22_3 C18_3 1_555 1_555
H12_3 C22_3 1_555 1_555
O8_3 C17_3 1_555 1_555
C15_3 C16_3 1_555 1_555
C21_3 C22_3 1_555 1_555
O12_2 C11_4 1_555 1_555
N7_2 C14_4 1_555 1_555
N9_2 C9_4 1_555 1_555
C5_7 N1_4 1_555 1_555
C6_4 C5_7 1_555 1_555
C7_4 C6_4 1_555 1_555
C8_4 C7_4 1_555 1_555
H2_4 C8_4 1_555 1_555
C9_4 C8_4 1_555 1_555
H3_4 C9_4 1_555 1_555
C12_4 C11_4 1_555 1_555
C13_4 C12_4 1_555 1_555
H5_4 C13_4 1_555 1_555
C14_4 C13_4 1_555 1_555
H6_4 C14_4 1_555 1_555
C15_4 N7_2 1_555 1_555
H7_4 C15_4 1_555 1_555
C16_4 C12_4 1_555 1_555
C15_4 C16_4 1_555 1_555
Tb2_2 O1_4 1_555 1_555
Co4 O1_4 1_555 1_555
O5_4 Tb2_2 1_555 1_555
O7_4 Tb2_2 1_555 1_555
O8_4 Tb2_2 1_555 1_555
N8 C20_4 1_555 1_555
C17_4 O7_4 1_555 1_555
C18_4 C17_4 1_555 1_555
C19_4 C18_4 1_555 1_555
H9_4 C19_4 1_555 1_555
C20_4 C19_4 1_555 1_555
H10_4 C20_4 1_555 1_555
C21_4 N8 1_555 1_555
H11_4 C21_4 1_555 1_555
C22_4 C18_4 1_555 1_555
H12_4 C22_4 1_555 1_555
O8_4 C17_4 1_555 1_555
C21_4 C22_4 1_555 1_555
O10_2 C4_4 1_555 1_555
O11_2 C4_4 1_555 1_555
N6_2 C3_4 1_555 1_555
C3_4 C2_4 1_555 1_555
C4_4 C3_4 1_555 1_555
H4_4 C10_4 1_555 1_555
N6_2 C5_8 1_555 1_555

#END
