
###############################################################################
#
# This file contains modified crystal structure data generated from the
# MOF subset of the Cambridge Structural Database (CSD) v543 
# hosted by the Cambridge Crystallographic Data Centre (CCDC).
#
# This work is licensed under the Creative Commons
# Attribution-NonCommercial-ShareAlike 4.0 International License.
# To view a copy of this license, visit
# http://creativecommons.org/licenses/by-nc-sa/4.0/
# or send a letter to
# Creative Commons, PO Box 1866, Mountain View, CA 94042, USA.
#
# CIF created using the CSD Python API on 29 September 2022
# The structure has been converted into the P1 space group
# The structure has a 3D framework
# The original CSD entry PEKVAE is in the monoclinic crystal system
# The framework has been calculated to contain at least 10.0% void space
# The void calculation uses a probe of radius 1.32A, grid spacing 0.4
#
###############################################################################

data_PEKVAE
_chemical_formula_moiety         '(C224 H144 Co8 N16 O40 S8)n'
_symmetry_cell_setting           triclinic
_symmetry_space_group_name_H-M   'P 1'
_symmetry_Int_Tables_number      1
_space_group_name_Hall           'P 1'
loop_
_symmetry_equiv_pos_site_id
_symmetry_equiv_pos_as_xyz
1 x,y,z
_cell_length_a                   19.796(3)
_cell_length_b                   22.262(3)
_cell_length_c                   13.044(2)
_cell_angle_alpha                90
_cell_angle_beta                 99.852(2)
_cell_angle_gamma                90
_cell_volume                     5663.7
loop_
_atom_site_label
_atom_site_type_symbol
_atom_site_fract_x
_atom_site_fract_y
_atom_site_fract_z
Co7 Co 0.067903(14) 0.049248(12) 0.96200(2)
C7 C 0.10453(13) 0.44272(11) 0.04548(19)
H5 H 0.0784 0.4094 0.0205
C8 C 0.15014(13) 0.44304(11) 0.14040(19)
H6 H 0.1575 0.4100 0.1844
C9 C 0.18290(11) 0.49706(11) 0.16175(18)
C10 C 0.23534(11) 0.51215(11) 0.25168(18)
C11 C 0.24574(13) 0.47645(12) 0.3394(2)
H7 H 0.2179 0.4432 0.3432
C12 C 0.29720(13) 0.48992(11) 0.4214(2)
H8 H 0.3035 0.4647 0.4791
C13 C 0.32722(13) 0.57342(12) 0.3392(2)
H9 H 0.3545 0.6074 0.3389
C14 C 0.27704(13) 0.56277(12) 0.2538(2)
H10 H 0.2711 0.5893 0.1979
C15 C 0.52083(16) 0.52833(12) 0.7545(2)
H11 H 0.4933 0.4947 0.7567
C16 C 0.57475(16) 0.53696(12) 0.8344(2)
H12 H 0.5825 0.5097 0.8893
C17 C 0.61748(12) 0.58567(10) 0.83398(18)
C18 C 0.60239(14) 0.62386(11) 0.7492(2)
H13 H 0.6298 0.6573 0.7441
C19 C 0.54726(13) 0.61258(11) 0.67295(19)
H14 H 0.5382 0.6392 0.6174
C20 C 0.67520(12) 0.59890(10) 0.91732(18)
C21 C 0.71632(13) 0.64864(11) 0.92847(19)
H15 H 0.7119 0.6798 0.8804
C29 C 0.86912(12) 0.84113(11) 0.1132(2)
C30 C 0.80147(12) 0.81100(9) 0.11651(19)
C31 C 0.74624(12) 0.82078(10) 0.03775(19)
C32 C 0.68350(12) 0.79431(10) 0.04009(19)
C33 C 0.67553(11) 0.75892(9) 0.12511(19)
C34 C 0.72932(12) 0.74864(10) 0.20511(19)
H23 H 0.7234 0.7252 0.2619
C35 C 0.79282(12) 0.77403(10) 0.19920(19)
H24 H 0.8300 0.7661 0.2514
C36 C 0.59396(12) 0.70020(10) 0.20046(19)
C37 C 0.54040(12) 0.71789(10) 0.2493(2)
H25 H 0.5195 0.7551 0.2348
C38 C 0.51837(12) 0.67905(10) 0.32027(19)
H26 H 0.4818 0.6901 0.3525
C39 C 0.55011(11) 0.62411(9) 0.34366(17)
C40 C 0.60432(12) 0.60763(10) 0.29450(19)
H27 H 0.6264 0.5711 0.3106
C41 C 0.62560(12) 0.64526(10) 0.2218(2)
H28 H 0.6610 0.6336 0.1875
C42 C 0.52507(10) 0.58264(9) 0.41997(17)
C43 C 0.07769(11) 0.91976(10) 0.98374(17)
C44 C 0.11442(12) 0.86108(10) 0.98166(18)
C47 C 0.17832(17) 0.75189(12) 0.9702(2)
C48 C 0.21083(16) 0.80314(13) 0.9489(3)
H31 H 0.2541 0.8013 0.9302
C49 C 0.17868(14) 0.85834(12) 0.9553(2)
H32 H 0.2008 0.8936 0.9418
C50 C 0.24039(17) 0.67538(13) 0.8915(2)
C51 C 0.27862(13) 0.62415(10) 0.9147(2)
H33 H 0.2825 0.6066 0.9801
C52 C 0.31137(12) 0.59891(10) 0.83926(19)
H34 H 0.3354 0.5631 0.8533
C53 C 0.30888(13) 0.62624(11) 0.7433(2)
C54 C 0.2702(2) 0.67728(16) 0.7222(3)
H35 H 0.2683 0.6962 0.6582
C55 C 0.2340(2) 0.70125(16) 0.7948(3)
H36 H 0.2057 0.7344 0.7782
C56 C 0.34666(12) 0.59887(10) 0.66468(19)
Co1 Co 0.420790(14) 0.551450(12) 0.54967(2)
N2 N 0.33852(9) 0.53736(8) 0.42220(15)
N3 N 0.50577(10) 0.56552(8) 0.67396(15)
O1 O 0.60943(8) 0.73833(8) 0.12304(14)
O2 O 0.20763(16) 0.69482(10) 0.97171(19)
O3 O 0.92362(10) 0.81626(10) 0.1514(2)
O4 O 0.86441(8) 0.89067(7) 0.06519(14)
O5 O 0.47002(8) 0.59718(7) 0.44948(12)
O6 O 0.56086(8) 0.53759(7) 0.45079(13)
O8 O 0.10865(8) 0.96681(7) 0.96674(13)
O9 O 0.35731(9) 0.54284(7) 0.66835(13)
O10 O 0.36825(10) 0.63131(8) 0.59790(14)
S1 S 0.15642(3) 0.54781(3) 0.06286(5)
Co3 Co 0.579210(14) 0.448550(12) 0.45033(2)
Co5 Co 0.932097(14) 0.950752(12) 0.03800(2)
O12 O 0.43914(8) 0.46241(7) 0.54921(13)
N1 N 0.01743(10) 0.03541(9) 0.80491(15)
O11 O 0.13559(8) 0.10933(7) 0.93481(14)
C1 C 0.02727(12) 0.98574(11) 0.75131(18)
H1 H 0.0610 0.9589 0.7811
C7_2 C 0.89547(13) 0.55728(11) 0.95452(19)
H5_2 H 0.9216 0.5906 0.9795
C8_2 C 0.84986(13) 0.55696(11) 0.85960(19)
H6_2 H 0.8425 0.5900 0.8156
C9_2 C 0.81710(11) 0.50294(11) 0.83825(18)
C10_2 C 0.76466(11) 0.48785(11) 0.74832(18)
C11_2 C 0.75426(13) 0.52355(12) 0.6606(2)
H7_2 H 0.7821 0.5568 0.6568
C12_2 C 0.70280(13) 0.51008(11) 0.5786(2)
H8_2 H 0.6965 0.5353 0.5209
C13_2 C 0.67278(13) 0.42658(12) 0.6608(2)
H9_2 H 0.6455 0.3926 0.6611
C14_2 C 0.72296(13) 0.43723(12) 0.7462(2)
H10_2 H 0.7289 0.4107 0.8021
C15_2 C 0.47917(16) 0.47167(12) 0.2455(2)
H11_2 H 0.5067 0.5053 0.2433
C16_2 C 0.42525(16) 0.46304(12) 0.1656(2)
H12_2 H 0.4175 0.4903 0.1107
C17_2 C 0.38252(12) 0.41433(10) 0.16602(18)
C18_2 C 0.39761(14) 0.37614(11) 0.2508(2)
H13_2 H 0.3702 0.3427 0.2559
C19_2 C 0.45274(13) 0.38742(11) 0.32705(19)
H14_2 H 0.4618 0.3608 0.3826
C20_2 C 0.32480(12) 0.40110(10) 0.08268(18)
C21_2 C 0.28368(13) 0.35136(11) 0.07153(19)
H15_2 H 0.2881 0.3202 0.1196
C29_2 C 0.13088(12) 0.15887(11) 0.8868(2)
C30_2 C 0.19853(12) 0.18900(9) 0.88349(19)
C31_2 C 0.25376(12) 0.17922(10) 0.96225(19)
C32_2 C 0.31650(12) 0.20569(10) 0.95991(19)
C33_2 C 0.32447(11) 0.24108(9) 0.87489(19)
C34_2 C 0.27068(12) 0.25136(10) 0.79489(19)
H23_2 H 0.2766 0.2748 0.7381
C35_2 C 0.20718(12) 0.22597(10) 0.80080(19)
H24_2 H 0.1700 0.2339 0.7486
C36_2 C 0.40604(12) 0.29980(10) 0.79954(19)
C37_2 C 0.45960(12) 0.28211(10) 0.7507(2)
H25_2 H 0.4805 0.2449 0.7652
C38_2 C 0.48163(12) 0.32095(10) 0.67973(19)
H26_2 H 0.5182 0.3099 0.6475
C39_2 C 0.44989(11) 0.37589(9) 0.65634(17)
C40_2 C 0.39568(12) 0.39237(10) 0.70550(19)
H27_2 H 0.3736 0.4289 0.6894
C41_2 C 0.37440(12) 0.35474(10) 0.7782(2)
H28_2 H 0.3390 0.3664 0.8125
C42_2 C 0.47493(10) 0.41736(9) 0.58003(17)
C43_2 C 0.92231(11) 0.08024(10) 0.01626(17)
C44_2 C 0.88558(12) 0.13892(10) 0.01834(18)
C47_2 C 0.82168(17) 0.24811(12) 0.0298(2)
C48_2 C 0.78917(16) 0.19686(13) 0.0511(3)
H31_2 H 0.7459 0.1987 0.0698
C49_2 C 0.82132(14) 0.14166(12) 0.0447(2)
H32_2 H 0.7992 0.1064 0.0582
C50_2 C 0.75961(17) 0.32462(13) 0.1085(2)
C51_2 C 0.72138(13) 0.37585(10) 0.0853(2)
H33_2 H 0.7175 0.3934 0.0199
C52_2 C 0.68863(12) 0.40109(10) 0.16074(19)
H34_2 H 0.6646 0.4369 0.1467
C53_2 C 0.69112(13) 0.37376(11) 0.2567(2)
C54_2 C 0.7298(2) 0.32272(16) 0.2778(3)
H35_2 H 0.7317 0.3038 0.3418
C55_2 C 0.7660(2) 0.29875(16) 0.2052(3)
H36_2 H 0.7943 0.2656 0.2218
C56_2 C 0.65334(12) 0.40113(10) 0.33532(19)
N2_2 N 0.66148(9) 0.46264(8) 0.57780(15)
N3_2 N 0.49423(10) 0.43448(8) 0.32604(15)
O1_2 O 0.39057(8) 0.26167(8) 0.87696(14)
O2_2 O 0.79237(16) 0.30518(10) 0.02829(19)
O3_2 O 0.07638(10) 0.18374(10) 0.8486(2)
O5_2 O 0.52998(8) 0.40282(7) 0.55052(12)
O8_2 O 0.89135(8) 0.03319(7) 0.03326(13)
O9_2 O 0.64269(9) 0.45716(7) 0.33165(13)
O10_2 O 0.63175(10) 0.36869(8) 0.40210(14)
S1_2 S 0.84358(3) 0.45219(3) 0.93714(5)
C1_2 C 0.97273(12) 0.01426(11) 0.24869(18)
H1_2 H 0.9390 0.0411 0.2189
N1_2 N 0.98257(10) 0.96459(9) 0.19509(15)
C22 C 0.76573(12) 0.64812(11) 0.01946(19)
H16 H 0.7975 0.6788 0.0372
C23 C 0.76276(11) 0.59830(10) 0.07954(18)
C24 C 0.80324(11) 0.58427(10) 0.18117(18)
C25 C 0.86145(12) 0.61710(11) 0.2204(2)
H17 H 0.8757 0.6481 0.1814
C26 C 0.89802(12) 0.60375(11) 0.31693(19)
H18 H 0.9367 0.6266 0.3415
C27 C 0.82422(14) 0.52873(13) 0.3403(2)
H19 H 0.8110 0.4980 0.3811
C28 C 0.78405(14) 0.53970(12) 0.2454(2)
H20 H 0.7443 0.5175 0.2242
C45 C 0.08434(14) 0.80814(12) 0.0088(3)
H29 H 0.0422 0.8096 0.0312
C46 C 0.11644(16) 0.75368(13) 0.0027(3)
H30 H 0.0961 0.7184 0.0206
N4 N 0.88116(10) 0.55957(8) 0.37778(15)
O7 O 0.01714(8) 0.91780(8) 0.00045(14)
S2 S 0.69822(3) 0.55061(2) 0.02103(5)
Co4 Co 0.932097(14) 0.549248(12) 0.53800(2)
C1_3 C 0.97273(12) 0.48574(11) 0.74869(18)
H1_3 H 0.9390 0.4589 0.7189
N1_3 N 0.98257(10) 0.53541(9) 0.69509(15)
O11_2 O 0.86441(8) 0.60933(7) 0.56519(14)
O14 O 0.89135(8) 0.46681(7) 0.53326(13)
N5 N 0.11884(10) 0.05957(8) 0.12222(15)
C15_3 C 0.47917(16) 0.02833(12) 0.7455(2)
C16_3 C 0.42525(16) 0.03696(12) 0.6656(2)
H12_3 H 0.4175 0.0097 0.6107
C17_3 C 0.38252(12) 0.08567(10) 0.66602(18)
C18_3 C 0.39761(14) 0.12386(11) 0.7508(2)
H13_3 H 0.3702 0.1573 0.7559
C19_3 C 0.45274(13) 0.11258(11) 0.82705(19)
H14_3 H 0.4618 0.1392 0.8826
C20_3 C 0.32480(12) 0.09890(10) 0.58268(18)
C21_3 C 0.28368(13) 0.14864(11) 0.57153(19)
H15_3 H 0.2881 0.1798 0.6196
C22_2 C 0.23427(12) 0.14812(11) 0.48054(19)
H16_2 H 0.2025 0.1788 0.4628
C23_2 C 0.23724(11) 0.09830(10) 0.42046(18)
C24_2 C 0.19676(11) 0.08427(10) 0.31883(18)
C25_2 C 0.13855(12) 0.11710(11) 0.2796(2)
H17_2 H 0.1243 0.1481 0.3186
C26_2 C 0.10198(12) 0.10375(11) 0.18307(19)
H18_2 H 0.0633 0.1266 0.1585
C27_2 C 0.17578(14) 0.02873(13) 0.1597(2)
C28_2 C 0.21595(14) 0.03970(12) 0.2546(2)
H20_2 H 0.2557 0.0175 0.2758
C43_3 C 0.92231(11) 0.41976(10) 0.51626(17)
C44_3 C 0.88558(12) 0.36108(10) 0.51834(18)
C45_2 C 0.91566(14) 0.30814(12) 0.4912(3)
H29_2 H 0.9578 0.3096 0.4688
C46_2 C 0.88356(16) 0.25368(13) 0.4973(3)
H30_2 H 0.9039 0.2184 0.4794
C47_3 C 0.82168(17) 0.25189(12) 0.5298(2)
C48_3 C 0.78917(16) 0.30314(13) 0.5511(3)
H31_3 H 0.7459 0.3013 0.5698
C49_3 C 0.82132(14) 0.35834(12) 0.5447(2)
H32_3 H 0.7992 0.3936 0.5582
C50_3 C 0.75961(17) 0.17538(13) 0.6085(2)
C51_3 C 0.72138(13) 0.12415(10) 0.5853(2)
H33_3 H 0.7175 0.1066 0.5199
C52_3 C 0.68863(12) 0.09891(10) 0.66074(19)
H34_3 H 0.6646 0.0631 0.6467
C53_3 C 0.69112(13) 0.12624(11) 0.7567(2)
C54_3 C 0.7298(2) 0.17728(16) 0.7778(3)
H35_3 H 0.7317 0.1962 0.8418
C55_3 C 0.7660(2) 0.20125(16) 0.7052(3)
H36_3 H 0.7943 0.2344 0.7218
C56_3 C 0.65334(12) 0.09887(10) 0.83532(19)
Co1_2 Co 0.579210(14) 0.051450(12) 0.95033(2)
N3_3 N 0.49423(10) 0.06552(8) 0.82604(15)
O2_3 O 0.79237(16) 0.19482(10) 0.52829(19)
O7_2 O 0.98286(8) 0.41780(8) 0.49955(14)
O9_3 O 0.64269(9) 0.04284(7) 0.83165(13)
O10_3 O 0.63175(10) 0.13131(8) 0.90210(14)
S2_2 S 0.30178(3) 0.05061(2) 0.47897(5)
H11_3 H 0.5067 0.9947 0.7433
H19_2 H 0.1890 0.9980 0.1189
O12_2 O 0.56086(8) 0.96241(7) 0.95079(13)
C2 C 0.99046(12) 0.52795(11) 0.15493(18)
H2 H 0.9997 0.5631 0.1213
C3 C 0.93924(11) 0.48894(11) 0.10776(18)
C4 C 0.93063(14) 0.43617(13) 0.1623(2)
H3 H 0.8980 0.4080 0.1338
C5 C 0.97026(14) 0.42583(12) 0.2577(2)
H4 H 0.9641 0.3900 0.2915
C6 C 0.89793(11) 0.50372(11) 0.00707(18)
H21 H 0.2485 0.1544 0.0177
H22 H 0.3529 0.2000 0.0144
C2_2 C 0.00954(12) 0.02795(11) 0.34507(18)
H2_2 H 0.0003 0.0631 0.3787
C6_2 C 0.10207(11) 0.00372(11) 0.49293(18)
C7_3 C 0.10453(13) 0.05728(11) 0.54548(19)
H5_3 H 0.0784 0.0906 0.5205
C8_3 C 0.15014(13) 0.05696(11) 0.64040(19)
H6_3 H 0.1575 0.0900 0.6844
C9_3 C 0.18290(11) 0.00294(11) 0.66175(18)
C11_3 C 0.24574(13) 0.02355(12) 0.8394(2)
H7_3 H 0.2179 0.0568 0.8432
C12_3 C 0.29720(13) 0.01008(11) 0.9214(2)
H8_3 H 0.3035 0.0353 0.9791
C3_2 C 0.06076(11) 0.98894(11) 0.39224(18)
C4_2 C 0.06937(14) 0.93617(13) 0.3377(2)
H3_2 H 0.1020 0.9080 0.3662
C5_2 C 0.02974(14) 0.92583(12) 0.2423(2)
H4_2 H 0.0359 0.8900 0.2085
C10_3 C 0.23534(11) 0.98785(11) 0.75168(18)
C13_3 C 0.32722(13) 0.92658(12) 0.8392(2)
H9_3 H 0.3545 0.8926 0.8389
C14_3 C 0.27704(13) 0.93723(12) 0.7538(2)
H10_3 H 0.2711 0.9107 0.6979
C29_3 C 0.86912(12) 0.65887(11) 0.6132(2)
C30_3 C 0.80147(12) 0.68900(9) 0.61651(19)
C31_3 C 0.74624(12) 0.67922(10) 0.53775(19)
H21_2 H 0.7515 0.6544 0.4823
C32_3 C 0.68350(12) 0.70569(10) 0.54009(19)
H22_2 H 0.6471 0.7000 0.4856
C33_3 C 0.67553(11) 0.74108(9) 0.62511(19)
C34_3 C 0.72932(12) 0.75136(10) 0.70511(19)
H23_3 H 0.7234 0.7748 0.7619
C35_3 C 0.79282(12) 0.72597(10) 0.69920(19)
H24_3 H 0.8300 0.7339 0.7514
C36_3 C 0.59396(12) 0.79980(10) 0.70046(19)
C37_3 C 0.54040(12) 0.78211(10) 0.7493(2)
H25_3 H 0.5195 0.7449 0.7348
C38_3 C 0.51837(12) 0.82095(10) 0.82027(19)
H26_3 H 0.4818 0.8099 0.8525
C39_3 C 0.55011(11) 0.87589(9) 0.84366(17)
C40_3 C 0.60432(12) 0.89237(10) 0.79450(19)
H27_3 H 0.6264 0.9289 0.8106
C41_3 C 0.62560(12) 0.85474(10) 0.7218(2)
H28_3 H 0.6610 0.8664 0.6875
C42_3 C 0.52507(10) 0.91736(9) 0.91997(17)
N2_3 N 0.33852(9) 0.96264(8) 0.92220(15)
O1_3 O 0.60943(8) 0.76167(8) 0.62304(14)
O3_3 O 0.92362(10) 0.68374(10) 0.6514(2)
O5_3 O 0.47002(8) 0.90282(7) 0.94948(12)
S1_3 S 0.15642(3) 0.95219(3) 0.56286(5)
C2_3 C 0.00954(12) 0.47205(11) 0.84507(18)
H2_3 H 0.0003 0.4369 0.8787
C3_3 C 0.06076(11) 0.51106(11) 0.89224(18)
C4_3 C 0.06937(14) 0.56383(13) 0.8377(2)
H3_3 H 0.1020 0.5920 0.8662
C5_3 C 0.02974(14) 0.57417(12) 0.7423(2)
H4_3 H 0.0359 0.6100 0.7085
C6_3 C 0.10207(11) 0.49628(11) 0.99293(18)
H21_3 H 0.7515 0.8456 0.9823
H22_3 H 0.6471 0.8000 0.9856
O13 O 0.01714(8) 0.58220(8) 0.50045(14)
Co6 Co 0.067903(14) 0.450752(12) 0.46200(2)
C3_4 C 0.93924(11) 0.01106(11) 0.60776(18)
C4_4 C 0.93063(14) 0.06383(13) 0.6623(2)
H3_4 H 0.8980 0.0920 0.6338
C5_4 C 0.97026(14) 0.07417(12) 0.7577(2)
H4_4 H 0.9641 0.1100 0.7915
C10_4 C 0.76466(11) 0.01215(11) 0.24832(18)
C13_4 C 0.67278(13) 0.07342(12) 0.1608(2)
H9_4 H 0.6455 0.1074 0.1611
C14_4 C 0.72296(13) 0.06277(12) 0.2462(2)
H10_4 H 0.7289 0.0893 0.3021
C29_4 C 0.13088(12) 0.34113(11) 0.3868(2)
C30_4 C 0.19853(12) 0.31100(9) 0.38349(19)
C31_4 C 0.25376(12) 0.32078(10) 0.46225(19)
H21_4 H 0.2485 0.3456 0.5177
C32_4 C 0.31650(12) 0.29431(10) 0.45991(19)
H22_4 H 0.3529 0.3000 0.5144
C33_4 C 0.32447(11) 0.25892(9) 0.37489(19)
C34_4 C 0.27068(12) 0.24864(10) 0.29489(19)
H23_4 H 0.2766 0.2252 0.2381
C35_4 C 0.20718(12) 0.27403(10) 0.30080(19)
H24_4 H 0.1700 0.2661 0.2486
C36_4 C 0.40604(12) 0.20020(10) 0.29954(19)
C37_4 C 0.45960(12) 0.21789(10) 0.2507(2)
H25_4 H 0.4805 0.2551 0.2652
C38_4 C 0.48163(12) 0.17905(10) 0.17973(19)
H26_4 H 0.5182 0.1901 0.1475
C39_4 C 0.44989(11) 0.12411(9) 0.15634(17)
C40_4 C 0.39568(12) 0.10763(10) 0.20550(19)
H27_4 H 0.3736 0.0711 0.1894
C41_4 C 0.37440(12) 0.14526(10) 0.2782(2)
H28_4 H 0.3390 0.1336 0.3125
C42_4 C 0.47493(10) 0.08264(9) 0.08003(17)
N2_4 N 0.66148(9) 0.03736(8) 0.07780(15)
O1_4 O 0.39057(8) 0.23833(8) 0.37696(14)
O3_4 O 0.07638(10) 0.31626(10) 0.3486(2)
O4_2 O 0.13559(8) 0.39067(7) 0.43481(14)
O5_4 O 0.52998(8) 0.09718(7) 0.05052(12)
O6_2 O 0.43914(8) 0.03759(7) 0.04921(13)
S1_4 S 0.84358(3) 0.04781(3) 0.43714(5)
O13_2 O 0.98286(8) 0.08220(8) 0.99955(14)
C2_4 C 0.99046(12) 0.97205(11) 0.65493(18)
H2_4 H 0.9997 0.9369 0.6213
C6_4 C 0.89793(11) 0.99628(11) 0.50707(18)
C7_4 C 0.89547(13) 0.94272(11) 0.45452(19)
H5_4 H 0.9216 0.9094 0.4795
C8_4 C 0.84986(13) 0.94304(11) 0.35960(19)
H6_4 H 0.8425 0.9100 0.3156
C9_4 C 0.81710(11) 0.99706(11) 0.33825(18)
C11_4 C 0.75426(13) 0.97645(12) 0.1606(2)
H7_4 H 0.7821 0.9432 0.1568
C12_4 C 0.70280(13) 0.98992(11) 0.0786(2)
H8_4 H 0.6965 0.9647 0.0209
Co3_2 Co 0.420790(14) 0.948550(12) 0.04967(2)
C1_4 C 0.02727(12) 0.51426(11) 0.25131(18)
H1_4 H 0.0610 0.5411 0.2811
N1_4 N 0.01743(10) 0.46459(9) 0.30491(15)
N5_2 N 0.11884(10) 0.44043(8) 0.62222(15)
O14_2 O 0.10865(8) 0.53319(7) 0.46674(13)
C22_3 C 0.23427(12) 0.35188(11) 0.98054(19)
H16_3 H 0.2025 0.3212 0.9628
C23_3 C 0.23724(11) 0.40170(10) 0.92046(18)
C24_3 C 0.19676(11) 0.41573(10) 0.81883(18)
C25_3 C 0.13855(12) 0.38290(11) 0.7796(2)
H17_3 H 0.1243 0.3519 0.8186
C26_3 C 0.10198(12) 0.39625(11) 0.68307(19)
H18_3 H 0.0633 0.3734 0.6585
C27_3 C 0.17578(14) 0.47127(13) 0.6597(2)
H19_3 H 0.1890 0.5020 0.6189
C28_3 C 0.21595(14) 0.46030(12) 0.7546(2)
H20_3 H 0.2557 0.4825 0.7758
C45_3 C 0.91566(14) 0.19186(12) 0.9912(3)
H29_3 H 0.9578 0.1904 0.9688
C46_3 C 0.88356(16) 0.24632(13) 0.9973(3)
H30_3 H 0.9039 0.2816 0.9794
S2_3 S 0.30178(3) 0.44939(2) 0.97897(5)
H11_4 H 0.4933 0.0053 0.2567
H19_4 H 0.8110 0.0020 0.8811
C15_4 C 0.52083(16) 0.97167(12) 0.2545(2)
C16_4 C 0.57475(16) 0.96304(12) 0.3344(2)
H12_4 H 0.5825 0.9903 0.3893
C17_4 C 0.61748(12) 0.91433(10) 0.33398(18)
C18_4 C 0.60239(14) 0.87614(11) 0.2492(2)
H13_4 H 0.6298 0.8427 0.2441
C19_4 C 0.54726(13) 0.88742(11) 0.17295(19)
H14_4 H 0.5382 0.8608 0.1174
C20_4 C 0.67520(12) 0.90110(10) 0.41732(18)
C21_4 C 0.71632(13) 0.85136(11) 0.42847(19)
H15_4 H 0.7119 0.8202 0.3804
C22_4 C 0.76573(12) 0.85188(11) 0.51946(19)
H16_4 H 0.7975 0.8212 0.5372
C23_4 C 0.76276(11) 0.90170(10) 0.57954(18)
C24_4 C 0.80324(11) 0.91573(10) 0.68117(18)
C25_4 C 0.86145(12) 0.88290(11) 0.7204(2)
H17_4 H 0.8757 0.8519 0.6814
C26_4 C 0.89802(12) 0.89625(11) 0.81693(19)
H18_4 H 0.9367 0.8734 0.8415
C27_4 C 0.82422(14) 0.97127(13) 0.8403(2)
C28_4 C 0.78405(14) 0.96030(12) 0.7454(2)
H20_4 H 0.7443 0.9825 0.7242
C43_4 C 0.07769(11) 0.58024(10) 0.48374(17)
C44_4 C 0.11442(12) 0.63892(10) 0.48166(18)
C45_4 C 0.08434(14) 0.69186(12) 0.5088(3)
H29_4 H 0.0422 0.6904 0.5312
C46_4 C 0.11644(16) 0.74632(13) 0.5027(3)
H30_4 H 0.0961 0.7816 0.5206
C47_4 C 0.17832(17) 0.74811(12) 0.4702(2)
C48_4 C 0.21083(16) 0.69686(13) 0.4489(3)
H31_4 H 0.2541 0.6987 0.4302
C49_4 C 0.17868(14) 0.64166(12) 0.4553(2)
H32_4 H 0.2008 0.6064 0.4418
C50_4 C 0.24039(17) 0.82462(13) 0.3915(2)
C51_4 C 0.27862(13) 0.87585(10) 0.4147(2)
H33_4 H 0.2825 0.8934 0.4801
C52_4 C 0.31137(12) 0.90109(10) 0.33926(19)
H34_4 H 0.3354 0.9369 0.3533
C53_4 C 0.30888(13) 0.87376(11) 0.2433(2)
C54_4 C 0.2702(2) 0.82272(16) 0.2222(3)
H35_4 H 0.2683 0.8038 0.1582
C55_4 C 0.2340(2) 0.79875(16) 0.2948(3)
H36_4 H 0.2057 0.7656 0.2782
C56_4 C 0.34666(12) 0.90113(10) 0.16468(19)
N3_4 N 0.50577(10) 0.93448(8) 0.17396(15)
N4_2 N 0.88116(10) 0.94043(8) 0.87778(15)
O2_4 O 0.20763(16) 0.80518(10) 0.47171(19)
O9_4 O 0.35731(9) 0.95716(7) 0.16835(13)
O10_4 O 0.36825(10) 0.86869(8) 0.09790(14)
S2_4 S 0.69822(3) 0.94939(2) 0.52103(5)
loop_
_geom_bond_atom_site_label_1
_geom_bond_atom_site_label_2
_geom_bond_site_symmetry_1
_geom_bond_site_symmetry_2
H5 C7 1_555 1_555
C8 C7 1_555 1_555
H6 C8 1_555 1_555
C9 C8 1_555 1_555
C10 C9 1_555 1_555
C11 C10 1_555 1_555
H7 C11 1_555 1_555
C12 C11 1_555 1_555
H8 C12 1_555 1_555
C13 H9 1_555 1_555
C14 C10 1_555 1_555
H10 C14 1_555 1_555
C15 H11 1_555 1_555
C16 C15 1_555 1_555
H12 C16 1_555 1_555
C17 C16 1_555 1_555
C18 C17 1_555 1_555
H13 C18 1_555 1_555
C19 C18 1_555 1_555
H14 C19 1_555 1_555
C20 C17 1_555 1_555
C21 C20 1_555 1_555
H15 C21 1_555 1_555
C29 C30 1_555 1_555
C30 C31 1_555 1_555
C32 C31 1_555 1_555
C33 C32 1_555 1_555
C34 C33 1_555 1_555
H23 C34 1_555 1_555
C35 C30 1_555 1_555
H24 C35 1_555 1_555
C36 C37 1_555 1_555
C37 H25 1_555 1_555
C38 C37 1_555 1_555
H26 C38 1_555 1_555
C39 C38 1_555 1_555
C40 C39 1_555 1_555
H27 C40 1_555 1_555
C41 C36 1_555 1_555
H28 C41 1_555 1_555
C42 C39 1_555 1_555
C43 C44 1_555 1_555
C48 C47 1_555 1_555
H31 C48 1_555 1_555
C49 C44 1_555 1_555
H32 C49 1_555 1_555
C50 C51 1_555 1_555
C51 H33 1_555 1_555
C52 C51 1_555 1_555
H34 C52 1_555 1_555
C53 C52 1_555 1_555
C54 C53 1_555 1_555
H35 C54 1_555 1_555
C55 C50 1_555 1_555
H36 C55 1_555 1_555
C56 C53 1_555 1_555
Co1 N2 1_555 1_555
N2 C12 1_555 1_555
N3 C15 1_555 1_555
O1 C33 1_555 1_555
O2 C47 1_555 1_555
O3 C29 1_555 1_555
O4 C29 1_555 1_555
O5 C42 1_555 1_555
O6 C42 1_555 1_555
O8 C43 1_555 1_555
O9 C56 1_555 1_555
O10 C56 1_555 1_555
Co3 O6 1_555 1_555
Co5 O4 1_555 1_555
O12 Co1 1_555 1_555
C9 S1 1_555 1_555
C13 C14 1_555 1_555
C13 N2 1_555 1_555
C19 N3 1_555 1_555
C34 C35 1_555 1_555
C36 O1 1_555 1_555
C40 C41 1_555 1_555
C48 C49 1_555 1_555
C50 O2 1_555 1_555
C54 C55 1_555 1_555
Co1 N3 1_555 1_555
Co1 O5 1_555 1_555
Co1 O9 1_555 1_555
Co1 O10 1_555 1_555
Co7 N1 1_555 1_555
O11 Co7 1_555 1_555
C1 H1 1_555 1_555
H5_2 C7_2 1_555 1_555
C8_2 C7_2 1_555 1_555
H6_2 C8_2 1_555 1_555
C9_2 C8_2 1_555 1_555
C10_2 C9_2 1_555 1_555
C11_2 C10_2 1_555 1_555
H7_2 C11_2 1_555 1_555
C12_2 C11_2 1_555 1_555
H8_2 C12_2 1_555 1_555
C13_2 H9_2 1_555 1_555
C14_2 C10_2 1_555 1_555
H10_2 C14_2 1_555 1_555
C15_2 H11_2 1_555 1_555
C16_2 C15_2 1_555 1_555
H12_2 C16_2 1_555 1_555
C17_2 C16_2 1_555 1_555
C18_2 C17_2 1_555 1_555
H13_2 C18_2 1_555 1_555
C19_2 C18_2 1_555 1_555
H14_2 C19_2 1_555 1_555
C20_2 C17_2 1_555 1_555
C21_2 C20_2 1_555 1_555
H15_2 C21_2 1_555 1_555
C29_2 C30_2 1_555 1_555
C30_2 C31_2 1_555 1_555
C32_2 C31_2 1_555 1_555
C33_2 C32_2 1_555 1_555
C34_2 C33_2 1_555 1_555
H23_2 C34_2 1_555 1_555
C35_2 C30_2 1_555 1_555
H24_2 C35_2 1_555 1_555
C36_2 C37_2 1_555 1_555
C37_2 H25_2 1_555 1_555
C38_2 C37_2 1_555 1_555
H26_2 C38_2 1_555 1_555
C39_2 C38_2 1_555 1_555
C40_2 C39_2 1_555 1_555
H27_2 C40_2 1_555 1_555
C41_2 C36_2 1_555 1_555
H28_2 C41_2 1_555 1_555
C42_2 C39_2 1_555 1_555
C43_2 C44_2 1_555 1_555
C48_2 C47_2 1_555 1_555
H31_2 C48_2 1_555 1_555
C49_2 C44_2 1_555 1_555
H32_2 C49_2 1_555 1_555
C50_2 C51_2 1_555 1_555
C51_2 H33_2 1_555 1_555
C52_2 C51_2 1_555 1_555
H34_2 C52_2 1_555 1_555
C53_2 C52_2 1_555 1_555
C54_2 C53_2 1_555 1_555
H35_2 C54_2 1_555 1_555
C55_2 C50_2 1_555 1_555
H36_2 C55_2 1_555 1_555
C56_2 C53_2 1_555 1_555
Co3 N2_2 1_555 1_555
N2_2 C12_2 1_555 1_555
N3_2 C15_2 1_555 1_555
O1_2 C33_2 1_555 1_555
O2_2 C47_2 1_555 1_555
O3_2 C29_2 1_555 1_555
O11 C29_2 1_555 1_555
O5_2 C42_2 1_555 1_555
O12 C42_2 1_555 1_555
O8_2 C43_2 1_555 1_555
O9_2 C56_2 1_555 1_555
O10_2 C56_2 1_555 1_555
C9_2 S1_2 1_555 1_555
C13_2 C14_2 1_555 1_555
C13_2 N2_2 1_555 1_555
C19_2 N3_2 1_555 1_555
C34_2 C35_2 1_555 1_555
C36_2 O1_2 1_555 1_555
C40_2 C41_2 1_555 1_555
C48_2 C49_2 1_555 1_555
C50_2 O2_2 1_555 1_555
C54_2 C55_2 1_555 1_555
Co3 N3_2 1_555 1_555
Co3 O5_2 1_555 1_555
Co3 O9_2 1_555 1_555
Co3 O10_2 1_555 1_555
C1_2 H1_2 1_555 1_555
Co5 N1_2 1_555 1_555
H16 C22 1_555 1_555
C23 C22 1_555 1_555
C24 C23 1_555 1_555
C25 C24 1_555 1_555
H17 C25 1_555 1_555
C26 C25 1_555 1_555
H18 C26 1_555 1_555
C27 H19 1_555 1_555
C28 C24 1_555 1_555
H20 C28 1_555 1_555
C45 H29 1_555 1_555
C46 C45 1_555 1_555
H30 C46 1_555 1_555
N4 C26 1_555 1_555
Co4 N4 1_555 1_555
C23 S2 1_555 1_555
C27 C28 1_555 1_555
C27 N4 1_555 1_555
C1_3 H1_3 1_555 1_555
Co4 N1_3 1_555 1_555
N1_3 C1_3 1_555 1_555
O11_2 Co4 1_555 1_555
O14 Co4 1_555 1_555
C16_3 C15_3 1_555 1_555
H12_3 C16_3 1_555 1_555
C17_3 C16_3 1_555 1_555
C18_3 C17_3 1_555 1_555
H13_3 C18_3 1_555 1_555
C19_3 C18_3 1_555 1_555
H14_3 C19_3 1_555 1_555
C20_3 C17_3 1_555 1_555
C21_3 C20_3 1_555 1_555
H15_3 C21_3 1_555 1_555
C22_2 C21_3 1_555 1_555
H16_2 C22_2 1_555 1_555
C23_2 C22_2 1_555 1_555
C24_2 C23_2 1_555 1_555
C25_2 C24_2 1_555 1_555
H17_2 C25_2 1_555 1_555
C26_2 C25_2 1_555 1_555
H18_2 C26_2 1_555 1_555
C28_2 C24_2 1_555 1_555
H20_2 C28_2 1_555 1_555
C43_3 C44_3 1_555 1_555
C44_3 C45_2 1_555 1_555
C45_2 H29_2 1_555 1_555
C46_2 C45_2 1_555 1_555
H30_2 C46_2 1_555 1_555
C47_3 C46_2 1_555 1_555
C48_3 C47_3 1_555 1_555
H31_3 C48_3 1_555 1_555
C49_3 C44_3 1_555 1_555
H32_3 C49_3 1_555 1_555
C50_3 C51_3 1_555 1_555
C51_3 H33_3 1_555 1_555
C52_3 C51_3 1_555 1_555
H34_3 C52_3 1_555 1_555
C53_3 C52_3 1_555 1_555
C54_3 C53_3 1_555 1_555
H35_3 C54_3 1_555 1_555
C55_3 C50_3 1_555 1_555
H36_3 C55_3 1_555 1_555
C56_3 C53_3 1_555 1_555
N3_3 C15_3 1_555 1_555
N5 C26_2 1_555 1_555
O2_3 C47_3 1_555 1_555
O7_2 C43_3 1_555 1_555
O14 C43_3 1_555 1_555
O9_3 C56_3 1_555 1_555
O10_3 C56_3 1_555 1_555
S2_2 C20_3 1_555 1_555
C19_3 N3_3 1_555 1_555
C23_2 S2_2 1_555 1_555
C27_2 C28_2 1_555 1_555
C27_2 N5 1_555 1_555
C48_3 C49_3 1_555 1_555
C50_3 O2_3 1_555 1_555
C54_3 C55_3 1_555 1_555
Co1_2 N3_3 1_555 1_555
Co1_2 O9_3 1_555 1_555
Co1_2 O10_3 1_555 1_555
H2 C2 1_555 1_555
C3 C2 1_555 1_555
C4 C3 1_555 1_555
H3 C4 1_555 1_555
C5 C4 1_555 1_555
H4 C5 1_555 1_555
C6 C3 1_555 1_555
H2_2 C2_2 1_555 1_555
C7_3 C6_2 1_555 1_555
H5_3 C7_3 1_555 1_555
C8_3 C7_3 1_555 1_555
H6_3 C8_3 1_555 1_555
C9_3 C8_3 1_555 1_555
H7_3 C11_3 1_555 1_555
C12_3 C11_3 1_555 1_555
H8_3 C12_3 1_555 1_555
C4_2 C3_2 1_555 1_555
H3_2 C4_2 1_555 1_555
C5_2 C4_2 1_555 1_555
H4_2 C5_2 1_555 1_555
C13_3 H9_3 1_555 1_555
C14_3 C10_3 1_555 1_555
H10_3 C14_3 1_555 1_555
C29_3 C30_3 1_555 1_555
C30_3 C31_3 1_555 1_555
C31_3 H21_2 1_555 1_555
C32_3 C31_3 1_555 1_555
H22_2 C32_3 1_555 1_555
C33_3 C32_3 1_555 1_555
C34_3 C33_3 1_555 1_555
H23_3 C34_3 1_555 1_555
C35_3 C30_3 1_555 1_555
H24_3 C35_3 1_555 1_555
C36_3 C37_3 1_555 1_555
C37_3 H25_3 1_555 1_555
C38_3 C37_3 1_555 1_555
H26_3 C38_3 1_555 1_555
C39_3 C38_3 1_555 1_555
C40_3 C39_3 1_555 1_555
H27_3 C40_3 1_555 1_555
C41_3 C36_3 1_555 1_555
H28_3 C41_3 1_555 1_555
C42_3 C39_3 1_555 1_555
O1_3 C33_3 1_555 1_555
O3_3 C29_3 1_555 1_555
O11_2 C29_3 1_555 1_555
O5_3 C42_3 1_555 1_555
O12_2 C42_3 1_555 1_555
C13_3 C14_3 1_555 1_555
C13_3 N2_3 1_555 1_555
C34_3 C35_3 1_555 1_555
C36_3 O1_3 1_555 1_555
C40_3 C41_3 1_555 1_555
H2_3 C2_3 1_555 1_555
C3_3 C2_3 1_555 1_555
C4_3 C3_3 1_555 1_555
H3_3 C4_3 1_555 1_555
C5_3 C4_3 1_555 1_555
H4_3 C5_3 1_555 1_555
C6_3 C3_3 1_555 1_555
C4_4 C3_4 1_555 1_555
H3_4 C4_4 1_555 1_555
C5_4 C4_4 1_555 1_555
H4_4 C5_4 1_555 1_555
C13_4 H9_4 1_555 1_555
C14_4 C10_4 1_555 1_555
H10_4 C14_4 1_555 1_555
C29_4 C30_4 1_555 1_555
C30_4 C31_4 1_555 1_555
C31_4 H21_4 1_555 1_555
C32_4 C31_4 1_555 1_555
H22_4 C32_4 1_555 1_555
C33_4 C32_4 1_555 1_555
C34_4 C33_4 1_555 1_555
H23_4 C34_4 1_555 1_555
C35_4 C30_4 1_555 1_555
H24_4 C35_4 1_555 1_555
C36_4 C37_4 1_555 1_555
C37_4 H25_4 1_555 1_555
C38_4 C37_4 1_555 1_555
H26_4 C38_4 1_555 1_555
C39_4 C38_4 1_555 1_555
C40_4 C39_4 1_555 1_555
H27_4 C40_4 1_555 1_555
C41_4 C36_4 1_555 1_555
H28_4 C41_4 1_555 1_555
C42_4 C39_4 1_555 1_555
O1_4 C33_4 1_555 1_555
O3_4 C29_4 1_555 1_555
O4_2 C29_4 1_555 1_555
O5_4 C42_4 1_555 1_555
O6_2 C42_4 1_555 1_555
Co6 O4_2 1_555 1_555
C13_4 C14_4 1_555 1_555
C13_4 N2_4 1_555 1_555
C34_4 C35_4 1_555 1_555
C36_4 O1_4 1_555 1_555
C40_4 C41_4 1_555 1_555
H2_4 C2_4 1_555 1_555
C7_4 C6_4 1_555 1_555
H5_4 C7_4 1_555 1_555
C8_4 C7_4 1_555 1_555
H6_4 C8_4 1_555 1_555
C9_4 C8_4 1_555 1_555
H7_4 C11_4 1_555 1_555
C12_4 C11_4 1_555 1_555
H8_4 C12_4 1_555 1_555
C1_4 H1_4 1_555 1_555
Co6 N1_4 1_555 1_555
N1_4 C1_4 1_555 1_555
N5_2 Co6 1_555 1_555
O14_2 Co6 1_555 1_555
H16_3 C22_3 1_555 1_555
C23_3 C22_3 1_555 1_555
C24_3 C23_3 1_555 1_555
C25_3 C24_3 1_555 1_555
H17_3 C25_3 1_555 1_555
C26_3 C25_3 1_555 1_555
H18_3 C26_3 1_555 1_555
C27_3 H19_3 1_555 1_555
C28_3 C24_3 1_555 1_555
H20_3 C28_3 1_555 1_555
C45_3 H29_3 1_555 1_555
C46_3 C45_3 1_555 1_555
H30_3 C46_3 1_555 1_555
N5_2 C26_3 1_555 1_555
C23_3 S2_3 1_555 1_555
C27_3 C28_3 1_555 1_555
C27_3 N5_2 1_555 1_555
C16_4 C15_4 1_555 1_555
H12_4 C16_4 1_555 1_555
C17_4 C16_4 1_555 1_555
C18_4 C17_4 1_555 1_555
H13_4 C18_4 1_555 1_555
C19_4 C18_4 1_555 1_555
H14_4 C19_4 1_555 1_555
C20_4 C17_4 1_555 1_555
C21_4 C20_4 1_555 1_555
H15_4 C21_4 1_555 1_555
C22_4 C21_4 1_555 1_555
H16_4 C22_4 1_555 1_555
C23_4 C22_4 1_555 1_555
C24_4 C23_4 1_555 1_555
C25_4 C24_4 1_555 1_555
H17_4 C25_4 1_555 1_555
C26_4 C25_4 1_555 1_555
H18_4 C26_4 1_555 1_555
C28_4 C24_4 1_555 1_555
H20_4 C28_4 1_555 1_555
C43_4 C44_4 1_555 1_555
C44_4 C45_4 1_555 1_555
C45_4 H29_4 1_555 1_555
C46_4 C45_4 1_555 1_555
H30_4 C46_4 1_555 1_555
C47_4 C46_4 1_555 1_555
C48_4 C47_4 1_555 1_555
H31_4 C48_4 1_555 1_555
C49_4 C44_4 1_555 1_555
H32_4 C49_4 1_555 1_555
C50_4 C51_4 1_555 1_555
C51_4 H33_4 1_555 1_555
C52_4 C51_4 1_555 1_555
H34_4 C52_4 1_555 1_555
C53_4 C52_4 1_555 1_555
C54_4 C53_4 1_555 1_555
H35_4 C54_4 1_555 1_555
C55_4 C50_4 1_555 1_555
H36_4 C55_4 1_555 1_555
C56_4 C53_4 1_555 1_555
N3_4 C15_4 1_555 1_555
N4_2 C26_4 1_555 1_555
O2_4 C47_4 1_555 1_555
O13 C43_4 1_555 1_555
O14_2 C43_4 1_555 1_555
O9_4 C56_4 1_555 1_555
O10_4 C56_4 1_555 1_555
S2_4 C20_4 1_555 1_555
C19_4 N3_4 1_555 1_555
C23_4 S2_4 1_555 1_555
C27_4 C28_4 1_555 1_555
C27_4 N4_2 1_555 1_555
C48_4 C49_4 1_555 1_555
C50_4 O2_4 1_555 1_555
C54_4 C55_4 1_555 1_555
Co3_2 N3_4 1_555 1_555
Co3_2 O9_4 1_555 1_555
Co3_2 O10_4 1_555 1_555

#END
