
###############################################################################
#
# This file contains modified crystal structure data generated from the
# MOF subset of the Cambridge Structural Database (CSD) v543 
# hosted by the Cambridge Crystallographic Data Centre (CCDC).
#
# This work is licensed under the Creative Commons
# Attribution-NonCommercial-ShareAlike 4.0 International License.
# To view a copy of this license, visit
# http://creativecommons.org/licenses/by-nc-sa/4.0/
# or send a letter to
# Creative Commons, PO Box 1866, Mountain View, CA 94042, USA.
#
# CIF created using the CSD Python API on 29 September 2022
# The structure has been converted into the P1 space group
# The structure has a 3D framework
# The original CSD entry PELGIY is in the orthorhombic crystal system
# The framework has been calculated to contain at least 10.0% void space
# The void calculation uses a probe of radius 1.32A, grid spacing 0.4
#
###############################################################################

data_PELGIY
_chemical_formula_moiety         '(C544 H384 N64 O160 S32 Zn43)n'
_symmetry_cell_setting           triclinic
_symmetry_space_group_name_H-M   'P 1'
_symmetry_Int_Tables_number      1
_space_group_name_Hall           'P 1'
loop_
_symmetry_equiv_pos_site_id
_symmetry_equiv_pos_as_xyz
1 x,y,z
_cell_length_a                   19.2774(8)
_cell_length_b                   20.9886(7)
_cell_length_c                   43.2840(16)
_cell_angle_alpha                90
_cell_angle_beta                 90
_cell_angle_gamma                90
_cell_volume                     17513
loop_
_atom_site_label
_atom_site_type_symbol
_atom_site_fract_x
_atom_site_fract_y
_atom_site_fract_z
Zn1 Zn 0.5000 0.5000 0.0000
O1 O 0.46558(10) 0.42364(8) 0.02863(4)
N1 N 0.47898(11) 0.56229(10) 0.03657(4)
C1 C 0.48739(14) 0.37102(12) 0.03661(6)
Zn2 Zn 0.3750 0.3750 0.075006(9)
O2 O 0.45719(11) 0.33668(9) 0.05679(4)
N2 N 0.40259(14) 0.80392(11) 0.14503(5)
C2 C 0.55003(14) 0.34066(12) 0.02172(6)
S1 S 0.63347(3) 0.44303(3) 0.038432(15)
O3 O 0.59804(13) 0.44389(12) 0.06787(5)
C3 C 0.61631(14) 0.36783(12) 0.02094(6)
O4 O 0.60523(10) 0.49015(9) 0.01659(5)
C4 C 0.67048(16) 0.33643(15) 0.00615(7)
H1 H 0.7147 0.3541 0.0062
O5 O 0.70798(11) 0.44794(10) 0.04083(5)
C7 C 0.53978(17) 0.28178(15) 0.00738(8)
H4 H 0.4965 0.2623 0.0082
C8 C 0.41692(14) 0.56662(13) 0.04981(6)
H5 H 0.3829 0.5374 0.0442
C9 C 0.40070(15) 0.61268(14) 0.07149(6)
H6 H 0.3566 0.6141 0.0802
C10 C 0.45052(14) 0.65680(12) 0.08025(5)
C11 C 0.51581(15) 0.65117(13) 0.06702(6)
H7 H 0.5512 0.6789 0.0726
C12 C 0.52758(15) 0.60407(13) 0.04554(6)
H8 H 0.5715 0.6011 0.0368
C13 C 0.43432(15) 0.70850(13) 0.10270(6)
C14 C 0.36759(19) 0.73063(19) 0.10604(8)
H9 H 0.3320 0.7137 0.0941
C15 C 0.3537(2) 0.77811(19) 0.12728(8)
H10 H 0.3083 0.7926 0.1293
C16 C 0.46709(17) 0.78259(16) 0.14197(7)
H11 H 0.5016 0.7999 0.1544
C17 C 0.48474(18) 0.73576(16) 0.12102(7)
H12 H 0.5306 0.7226 0.1193
Zn3 Zn 0.5000 0.7500 0.2500
N3 N 0.47898(11) 0.68771(10) 0.21343(4)
Zn4 Zn 0.3750 0.8750 0.174994(9)
O8 O 0.29281(11) 0.41332(9) 0.05679(4)
N5 N 0.40259(14) 0.44608(11) 0.10497(5)
N6 N 0.34741(14) 0.30392(11) 0.10497(5)
C22 C 0.34125(19) 0.72090(17) 0.00853(9)
H14 H 0.3051 0.7413 0.0187
C23 C 0.4056(2) 0.74772(16) 0.00813(9)
H15 H 0.4132 0.7861 0.0183
C25 C 0.41692(14) 0.68338(13) 0.20019(6)
H17 H 0.3829 0.7126 0.2058
C26 C 0.40070(15) 0.63732(14) 0.17851(6)
H18 H 0.3566 0.6359 0.1698
C27 C 0.45052(14) 0.59320(12) 0.16975(5)
C28 C 0.51581(15) 0.59883(13) 0.18298(6)
H19 H 0.5512 0.5711 0.1774
C29 C 0.52758(15) 0.64593(13) 0.20446(6)
H20 H 0.5715 0.6489 0.2132
C30 C 0.43432(15) 0.54150(13) 0.14730(6)
C31 C 0.36759(19) 0.51937(19) 0.14396(8)
H21 H 0.3320 0.5363 0.1559
C32 C 0.3537(2) 0.47189(19) 0.12272(8)
H22 H 0.3083 0.4574 0.1207
C33 C 0.46709(17) 0.46741(16) 0.10803(7)
H23 H 0.5016 0.4501 0.0956
C34 C 0.48474(18) 0.51424(16) 0.12898(7)
H24 H 0.5306 0.5274 0.1307
Zn1_2 Zn 0.5000 0.5000 1.0000
C5 C 0.65875(19) 0.27910(17) 0.99147(9)
H2 H 0.6949 0.2587 0.9813
C6 C 0.5944(2) 0.25228(16) 0.99187(9)
H3 H 0.5868 0.2139 0.9817
O6 O 0.53442(10) 0.57636(8) 0.97137(4)
N4 N 0.52102(11) 0.43771(10) 0.96343(4)
C18 C 0.51261(14) 0.62898(12) 0.96339(6)
Zn5 Zn 0.6250 0.6250 0.924994(9)
O7 O 0.54281(11) 0.66332(9) 0.94321(4)
C19 C 0.44997(14) 0.65934(12) 0.97828(6)
S2 S 0.36653(3) 0.55697(3) 0.961568(15)
O9 O 0.40196(13) 0.55611(12) 0.93213(5)
C20 C 0.38369(14) 0.63217(12) 0.97906(6)
O10 O 0.39477(10) 0.50985(9) 0.98341(5)
C21 C 0.32952(16) 0.66357(15) 0.99385(7)
H13 H 0.2853 0.6459 0.9938
O11 O 0.29202(11) 0.55206(10) 0.95917(5)
C24 C 0.46022(17) 0.71822(15) 0.99262(8)
H16 H 0.5035 0.7377 0.9918
H3_2 H 0.6632 0.0361 0.9817
Zn1_3 Zn 0.7500 0.7500 0.0000
O1_2 O 0.78442(10) 0.82636(8) 0.02863(4)
N1_2 N 0.77102(11) 0.68771(10) 0.03657(4)
C1_2 C 0.76261(14) 0.87898(12) 0.03661(6)
Zn2_2 Zn 0.8750 0.8750 0.075006(9)
O2_2 O 0.79281(11) 0.91332(9) 0.05679(4)
N2_2 N 0.84741(14) 0.44608(11) 0.14503(5)
C2_2 C 0.69997(14) 0.90934(12) 0.02172(6)
S1_2 S 0.61653(3) 0.80697(3) 0.038432(15)
O3_2 O 0.65196(13) 0.80611(12) 0.06787(5)
C3_2 C 0.63369(14) 0.88217(12) 0.02094(6)
O4_2 O 0.64477(10) 0.75985(9) 0.01659(5)
C4_2 C 0.57952(16) 0.91357(15) 0.00615(7)
H1_2 H 0.5353 0.8959 0.0062
O5_2 O 0.54202(11) 0.80206(10) 0.04083(5)
C7_2 C 0.71022(17) 0.96822(15) 0.00738(8)
H4_2 H 0.7535 0.9877 0.0082
C8_2 C 0.83308(14) 0.68338(13) 0.04981(6)
H5_2 H 0.8671 0.7126 0.0442
C9_2 C 0.84930(15) 0.63732(14) 0.07149(6)
H6_2 H 0.8934 0.6359 0.0802
C10_2 C 0.79948(14) 0.59320(12) 0.08025(5)
C11_2 C 0.73419(15) 0.59883(13) 0.06702(6)
H7_2 H 0.6988 0.5711 0.0726
C12_2 C 0.72242(15) 0.64593(13) 0.04554(6)
H8_2 H 0.6785 0.6489 0.0368
C13_2 C 0.81568(15) 0.54150(13) 0.10270(6)
C14_2 C 0.88241(19) 0.51937(19) 0.10604(8)
H9_2 H 0.9180 0.5363 0.0941
C15_2 C 0.8963(2) 0.47189(19) 0.12728(8)
H10_2 H 0.9417 0.4574 0.1293
C16_2 C 0.78291(17) 0.46741(16) 0.14197(7)
H11_2 H 0.7484 0.4501 0.1544
C17_2 C 0.76526(18) 0.51424(16) 0.12102(7)
H12_2 H 0.7194 0.5274 0.1193
Zn3_2 Zn 0.7500 0.5000 0.2500
N3_2 N 0.77102(11) 0.56229(10) 0.21343(4)
Zn4_2 Zn 0.8750 0.3750 0.174994(9)
O8_2 O 0.95719(11) 0.83668(9) 0.05679(4)
N5_2 N 0.84741(14) 0.80392(11) 0.10497(5)
N6_2 N 0.90259(14) 0.94608(11) 0.10497(5)
C22_2 C 0.90875(19) 0.52910(17) 0.00853(9)
H14_2 H 0.9449 0.5087 0.0187
C23_2 C 0.8444(2) 0.50228(16) 0.00813(9)
H15_2 H 0.8368 0.4639 0.0183
C25_2 C 0.83308(14) 0.56662(13) 0.20019(6)
H17_2 H 0.8671 0.5374 0.2058
C26_2 C 0.84930(15) 0.61268(14) 0.17851(6)
H18_2 H 0.8934 0.6141 0.1698
C27_2 C 0.79948(14) 0.65680(12) 0.16975(5)
C28_2 C 0.73419(15) 0.65117(13) 0.18298(6)
H19_2 H 0.6988 0.6789 0.1774
C29_2 C 0.72242(15) 0.60407(13) 0.20446(6)
H20_2 H 0.6785 0.6011 0.2132
C30_2 C 0.81568(15) 0.70850(13) 0.14730(6)
C31_2 C 0.88241(19) 0.73063(19) 0.14396(8)
H21_2 H 0.9180 0.7137 0.1559
C32_2 C 0.8963(2) 0.77811(19) 0.12272(8)
H22_2 H 0.9417 0.7926 0.1207
C33_2 C 0.78291(17) 0.78259(16) 0.10803(7)
H23_2 H 0.7484 0.7999 0.0956
C34_2 C 0.76526(18) 0.73576(16) 0.12898(7)
H24_2 H 0.7194 0.7226 0.1307
Zn1_4 Zn 0.7500 0.7500 1.0000
C5_2 C 0.59125(19) 0.97090(17) 0.99147(9)
H2_2 H 0.5551 0.9913 0.9813
C6_2 C 0.6556(2) 0.99772(16) 0.99187(9)
O6_2 O 0.71558(10) 0.67364(8) 0.97137(4)
N4_2 N 0.72898(11) 0.81229(10) 0.96343(4)
C18_2 C 0.73739(14) 0.62102(12) 0.96339(6)
O7_2 O 0.70719(11) 0.58668(9) 0.94321(4)
C19_2 C 0.80003(14) 0.59066(12) 0.97828(6)
S2_2 S 0.88347(3) 0.69303(3) 0.961568(15)
O9_2 O 0.84804(13) 0.69389(12) 0.93213(5)
C20_2 C 0.86631(14) 0.61783(12) 0.97906(6)
O10_2 O 0.85523(10) 0.74015(9) 0.98341(5)
C21_2 C 0.92048(16) 0.58643(15) 0.99385(7)
H13_2 H 0.9647 0.6041 0.9938
O11_2 O 0.95798(11) 0.69794(10) 0.95917(5)
C24_2 C 0.78978(17) 0.53178(15) 0.99262(8)
H16_2 H 0.7465 0.5123 0.9918
H3_3 H 0.5868 0.0361 0.2683
O1_3 O 0.46558(10) 0.82636(8) 0.22137(4)
C1_3 C 0.48739(14) 0.87898(12) 0.21339(6)
O2_3 O 0.45719(11) 0.91332(9) 0.19321(4)
C2_3 C 0.55003(14) 0.90934(12) 0.22828(6)
S1_3 S 0.63347(3) 0.80697(3) 0.211568(15)
O3_3 O 0.59804(13) 0.80611(12) 0.18213(5)
C3_3 C 0.61631(14) 0.88217(12) 0.22906(6)
O4_3 O 0.60523(10) 0.75985(9) 0.23341(5)
C4_3 C 0.67048(16) 0.91357(15) 0.24385(7)
H1_3 H 0.7147 0.8959 0.2438
O5_3 O 0.70798(11) 0.80206(10) 0.20917(5)
C5_3 C 0.65875(19) 0.97090(17) 0.25853(9)
H2_3 H 0.6949 0.9913 0.2687
C6_3 C 0.5944(2) 0.99772(16) 0.25813(9)
C7_3 C 0.53978(17) 0.96822(15) 0.24262(8)
H4_3 H 0.4965 0.9877 0.2418
O6_3 O 0.53442(10) 0.67364(8) 0.27863(4)
N4_3 N 0.52102(11) 0.81229(10) 0.28657(4)
C18_3 C 0.51261(14) 0.62102(12) 0.28661(6)
Zn5_2 Zn 0.6250 0.6250 0.325006(9)
O7_3 O 0.54281(11) 0.58668(9) 0.30679(4)
O8_3 O 0.29281(11) 0.83668(9) 0.19321(4)
N6_3 N 0.34741(14) 0.94608(11) 0.14503(5)
C19_3 C 0.44997(14) 0.59066(12) 0.27172(6)
S2_3 S 0.36653(3) 0.69303(3) 0.288432(15)
O9_3 O 0.40196(13) 0.69389(12) 0.31787(5)
C20_3 C 0.38369(14) 0.61783(12) 0.27094(6)
O10_3 O 0.39477(10) 0.74015(9) 0.26659(5)
C21_3 C 0.32952(16) 0.58643(15) 0.25615(7)
H13_3 H 0.2853 0.6041 0.2562
O11_3 O 0.29202(11) 0.69794(10) 0.29083(5)
C22_3 C 0.34125(19) 0.52910(17) 0.24147(9)
H14_3 H 0.3051 0.5087 0.2313
C23_3 C 0.4056(2) 0.50228(16) 0.24187(9)
H15_3 H 0.4132 0.4639 0.2317
C24_3 C 0.46022(17) 0.53178(15) 0.25738(8)
H16_3 H 0.5035 0.5123 0.2582
O1_4 O 0.78442(10) 0.42364(8) 0.22137(4)
C1_4 C 0.76261(14) 0.37102(12) 0.21339(6)
O2_4 O 0.79281(11) 0.33668(9) 0.19321(4)
C2_4 C 0.69997(14) 0.34066(12) 0.22828(6)
S1_4 S 0.61653(3) 0.44303(3) 0.211568(15)
O3_4 O 0.65196(13) 0.44389(12) 0.18213(5)
C3_4 C 0.63369(14) 0.36783(12) 0.22906(6)
O4_4 O 0.64477(10) 0.49015(9) 0.23341(5)
C4_4 C 0.57952(16) 0.33643(15) 0.24385(7)
H1_4 H 0.5353 0.3541 0.2438
O5_4 O 0.54202(11) 0.44794(10) 0.20917(5)
C5_4 C 0.59125(19) 0.27910(17) 0.25853(9)
H2_4 H 0.5551 0.2587 0.2687
C6_4 C 0.6556(2) 0.25228(16) 0.25813(9)
H3_4 H 0.6632 0.2139 0.2683
C7_4 C 0.71022(17) 0.28178(15) 0.24262(8)
H4_4 H 0.7535 0.2623 0.2418
O6_4 O 0.71558(10) 0.57636(8) 0.27863(4)
N4_4 N 0.72898(11) 0.43771(10) 0.28657(4)
C18_4 C 0.73739(14) 0.62898(12) 0.28661(6)
O7_4 O 0.70719(11) 0.66332(9) 0.30679(4)
O8_4 O 0.95719(11) 0.41332(9) 0.19321(4)
N6_4 N 0.90259(14) 0.30392(11) 0.14503(5)
C19_4 C 0.80003(14) 0.65934(12) 0.27172(6)
S2_4 S 0.88347(3) 0.55697(3) 0.288432(15)
O9_4 O 0.84804(13) 0.55611(12) 0.31787(5)
C20_4 C 0.86631(14) 0.63217(12) 0.27094(6)
O10_4 O 0.85523(10) 0.50985(9) 0.26659(5)
C21_4 C 0.92048(16) 0.66357(15) 0.25615(7)
H13_4 H 0.9647 0.6459 0.2562
O11_4 O 0.95798(11) 0.55206(10) 0.29083(5)
C22_4 C 0.90875(19) 0.72090(17) 0.24147(9)
H14_4 H 0.9449 0.7413 0.2313
C23_4 C 0.8444(2) 0.74772(16) 0.24187(9)
H15_4 H 0.8368 0.7861 0.2317
C24_4 C 0.78978(17) 0.71822(15) 0.25738(8)
H16_4 H 0.7465 0.7377 0.2582
Zn1_5 Zn 0.5000 -0.0000 0.5000
N1_3 N 0.47898(11) 0.06229(10) 0.53657(4)
N2_3 N 0.40259(14) 0.30392(11) 0.64503(5)
C8_3 C 0.41692(14) 0.06662(13) 0.54981(6)
H5_3 H 0.3829 0.0374 0.5442
C9_3 C 0.40070(15) 0.11268(14) 0.57149(6)
H6_3 H 0.3566 0.1141 0.5802
C10_3 C 0.45052(14) 0.15680(12) 0.58025(5)
C11_3 C 0.51581(15) 0.15117(13) 0.56702(6)
H7_3 H 0.5512 0.1789 0.5726
C12_3 C 0.52758(15) 0.10407(13) 0.54554(6)
H8_3 H 0.5715 0.1011 0.5368
C13_3 C 0.43432(15) 0.20850(13) 0.60270(6)
C14_3 C 0.36759(19) 0.23063(19) 0.60604(8)
H9_3 H 0.3320 0.2137 0.5941
C15_3 C 0.3537(2) 0.27811(19) 0.62728(8)
H10_3 H 0.3083 0.2926 0.6293
C16_3 C 0.46709(17) 0.28259(16) 0.64197(7)
H11_3 H 0.5016 0.2999 0.6544
C17_3 C 0.48474(18) 0.23576(16) 0.62102(7)
H12_3 H 0.5306 0.2226 0.6193
Zn3_3 Zn 0.5000 0.2500 0.7500
O6_5 O 0.53442(10) 0.07636(8) 0.47137(4)
N3_3 N 0.47898(11) 0.18771(10) 0.71343(4)
C18_5 C 0.51261(14) 0.12898(12) 0.46339(6)
Zn4_3 Zn 0.3750 0.3750 0.674994(9)
Zn5_3 Zn 0.6250 0.1250 0.424994(9)
O7_5 O 0.54281(11) 0.16332(9) 0.44321(4)
C19_5 C 0.44997(14) 0.15934(12) 0.47828(6)
S2_5 S 0.36653(3) 0.05697(3) 0.461568(15)
O9_5 O 0.40196(13) 0.05611(12) 0.43213(5)
C20_5 C 0.38369(14) 0.13217(12) 0.47906(6)
O10_5 O 0.39477(10) 0.00985(9) 0.48341(5)
C21_5 C 0.32952(16) 0.16357(15) 0.49385(7)
H13_5 H 0.2853 0.1459 0.4938
O11_5 O 0.29202(11) 0.05206(10) 0.45917(5)
C22_5 C 0.34125(19) 0.22090(17) 0.50853(9)
H14_5 H 0.3051 0.2413 0.5187
C23_5 C 0.4056(2) 0.24772(16) 0.50813(9)
H15_5 H 0.4132 0.2861 0.5183
C24_5 C 0.46022(17) 0.21822(15) 0.49262(8)
H16_5 H 0.5035 0.2377 0.4918
C25_3 C 0.41692(14) 0.18338(13) 0.70019(6)
H17_3 H 0.3829 0.2126 0.7058
C26_3 C 0.40070(15) 0.13732(14) 0.67851(6)
H18_3 H 0.3566 0.1359 0.6698
C27_3 C 0.45052(14) 0.09320(12) 0.66975(5)
C28_3 C 0.51581(15) 0.09883(13) 0.68298(6)
H19_3 H 0.5512 0.0711 0.6774
C29_3 C 0.52758(15) 0.14593(13) 0.70446(6)
H20_3 H 0.5715 0.1489 0.7132
C30_3 C 0.43432(15) 0.04150(13) 0.64730(6)
C31_3 C 0.36759(19) 0.01937(19) 0.64396(8)
H21_3 H 0.3320 0.0363 0.6559
C34_3 C 0.48474(18) 0.01424(16) 0.62898(7)
H24_3 H 0.5306 0.0274 0.6307
Zn1_6 Zn 0.5000 1.0000 0.5000
O1_5 O 0.46558(10) 0.92364(8) 0.52863(4)
C1_5 C 0.48739(14) 0.87102(12) 0.53661(6)
Zn2_3 Zn 0.3750 0.8750 0.575006(9)
O2_5 O 0.45719(11) 0.83668(9) 0.55679(4)
C2_5 C 0.55003(14) 0.84066(12) 0.52172(6)
S1_5 S 0.63347(3) 0.94303(3) 0.538432(15)
O3_5 O 0.59804(13) 0.94389(12) 0.56787(5)
C3_5 C 0.61631(14) 0.86783(12) 0.52094(6)
O4_5 O 0.60523(10) 0.99015(9) 0.51659(5)
C4_5 C 0.67048(16) 0.83643(15) 0.50615(7)
H1_5 H 0.7147 0.8541 0.5062
O5_5 O 0.70798(11) 0.94794(10) 0.54083(5)
C5_5 C 0.65875(19) 0.77910(17) 0.49147(9)
H2_5 H 0.6949 0.7587 0.4813
C6_5 C 0.5944(2) 0.75228(16) 0.49187(9)
H3_5 H 0.5868 0.7139 0.4817
C7_5 C 0.53978(17) 0.78178(15) 0.50738(8)
H4_5 H 0.4965 0.7623 0.5082
N4_5 N 0.52102(11) 0.93771(10) 0.46343(4)
O8_5 O 0.29281(11) 0.91332(9) 0.55679(4)
N5_3 N 0.40259(14) 0.94608(11) 0.60497(5)
N6_5 N 0.34741(14) 0.80392(11) 0.60497(5)
C32_3 C 0.3537(2) 0.97189(19) 0.62272(8)
H22_3 H 0.3083 0.9574 0.6207
C33_3 C 0.46709(17) 0.96741(16) 0.60803(7)
H23_3 H 0.5016 0.9501 0.5956
Zn1_7 Zn 0.7500 0.2500 0.5000
O1_6 O 0.78442(10) 0.32636(8) 0.52863(4)
N1_4 N 0.77102(11) 0.18771(10) 0.53657(4)
C1_6 C 0.76261(14) 0.37898(12) 0.53661(6)
Zn2_4 Zn 0.8750 0.3750 0.575006(9)
O2_6 O 0.79281(11) 0.41332(9) 0.55679(4)
C2_6 C 0.69997(14) 0.40934(12) 0.52172(6)
S1_6 S 0.61653(3) 0.30697(3) 0.538432(15)
O3_6 O 0.65196(13) 0.30611(12) 0.56787(5)
C3_6 C 0.63369(14) 0.38217(12) 0.52094(6)
O4_6 O 0.64477(10) 0.25985(9) 0.51659(5)
C4_6 C 0.57952(16) 0.41357(15) 0.50615(7)
H1_6 H 0.5353 0.3959 0.5062
O5_6 O 0.54202(11) 0.30206(10) 0.54083(5)
C5_6 C 0.59125(19) 0.47090(17) 0.49147(9)
H2_6 H 0.5551 0.4913 0.4813
C6_6 C 0.6556(2) 0.49772(16) 0.49187(9)
H3_6 H 0.6632 0.5361 0.4817
C7_6 C 0.71022(17) 0.46822(15) 0.50738(8)
H4_6 H 0.7535 0.4877 0.5082
C8_4 C 0.83308(14) 0.18338(13) 0.54981(6)
H5_4 H 0.8671 0.2126 0.5442
C9_4 C 0.84930(15) 0.13732(14) 0.57149(6)
H6_4 H 0.8934 0.1359 0.5802
C10_4 C 0.79948(14) 0.09320(12) 0.58025(5)
C11_4 C 0.73419(15) 0.09883(13) 0.56702(6)
H7_4 H 0.6988 0.0711 0.5726
C12_4 C 0.72242(15) 0.14593(13) 0.54554(6)
H8_4 H 0.6785 0.1489 0.5368
C13_4 C 0.81568(15) 0.04150(13) 0.60270(6)
C14_4 C 0.88241(19) 0.01937(19) 0.60604(8)
H9_4 H 0.9180 0.0363 0.5941
C17_4 C 0.76526(18) 0.01424(16) 0.62102(7)
H12_4 H 0.7194 0.0274 0.6193
Zn3_4 Zn 0.7500 0.0000 0.7500
O6_6 O 0.71558(10) 0.17364(8) 0.47137(4)
N3_4 N 0.77102(11) 0.06229(10) 0.71343(4)
N4_6 N 0.72898(11) 0.31229(10) 0.46343(4)
C18_6 C 0.73739(14) 0.12102(12) 0.46339(6)
O7_6 O 0.70719(11) 0.08668(9) 0.44321(4)
O8_6 O 0.95719(11) 0.33668(9) 0.55679(4)
N5_4 N 0.84741(14) 0.30392(11) 0.60497(5)
N6_6 N 0.90259(14) 0.44608(11) 0.60497(5)
C19_6 C 0.80003(14) 0.09066(12) 0.47828(6)
S2_6 S 0.88347(3) 0.19303(3) 0.461568(15)
O9_6 O 0.84804(13) 0.19389(12) 0.43213(5)
C20_6 C 0.86631(14) 0.11783(12) 0.47906(6)
O10_6 O 0.85523(10) 0.24015(9) 0.48341(5)
C21_6 C 0.92048(16) 0.08643(15) 0.49385(7)
H13_6 H 0.9647 0.1041 0.4938
O11_6 O 0.95798(11) 0.19794(10) 0.45917(5)
C22_6 C 0.90875(19) 0.02910(17) 0.50853(9)
H14_6 H 0.9449 0.0087 0.5187
C23_6 C 0.8444(2) 0.00228(16) 0.50813(9)
C24_6 C 0.78978(17) 0.03178(15) 0.49262(8)
H16_6 H 0.7465 0.0123 0.4918
C25_4 C 0.83308(14) 0.06662(13) 0.70019(6)
H17_4 H 0.8671 0.0374 0.7058
C26_4 C 0.84930(15) 0.11268(14) 0.67851(6)
H18_4 H 0.8934 0.1141 0.6698
C27_4 C 0.79948(14) 0.15680(12) 0.66975(5)
C28_4 C 0.73419(15) 0.15117(13) 0.68298(6)
H19_4 H 0.6988 0.1789 0.6774
C29_4 C 0.72242(15) 0.10407(13) 0.70446(6)
H20_4 H 0.6785 0.1011 0.7132
C30_4 C 0.81568(15) 0.20850(13) 0.64730(6)
C31_4 C 0.88241(19) 0.23063(19) 0.64396(8)
H21_4 H 0.9180 0.2137 0.6559
C32_4 C 0.8963(2) 0.27811(19) 0.62272(8)
H22_4 H 0.9417 0.2926 0.6207
C33_4 C 0.78291(17) 0.28259(16) 0.60803(7)
H23_4 H 0.7484 0.2999 0.5956
C34_4 C 0.76526(18) 0.23576(16) 0.62898(7)
H24_4 H 0.7194 0.2226 0.6307
N2_4 N 0.84741(14) 0.94608(11) 0.64503(5)
C15_4 C 0.8963(2) 0.97189(19) 0.62728(8)
H10_4 H 0.9417 0.9574 0.6293
C16_4 C 0.78291(17) 0.96741(16) 0.64197(7)
H11_4 H 0.7484 0.9501 0.6544
Zn3_5 Zn 0.7500 1.0000 0.7500
Zn4_4 Zn 0.8750 0.8750 0.674994(9)
H15_6 H 0.8368 0.9639 0.5183
O1_7 O 0.46558(10) 0.32636(8) 0.72137(4)
C1_7 C 0.48739(14) 0.37898(12) 0.71339(6)
O2_7 O 0.45719(11) 0.41332(9) 0.69321(4)
C2_7 C 0.55003(14) 0.40934(12) 0.72828(6)
S1_7 S 0.63347(3) 0.30697(3) 0.711568(15)
O3_7 O 0.59804(13) 0.30611(12) 0.68213(5)
C3_7 C 0.61631(14) 0.38217(12) 0.72906(6)
O4_7 O 0.60523(10) 0.25985(9) 0.73341(5)
C4_7 C 0.67048(16) 0.41357(15) 0.74385(7)
H1_7 H 0.7147 0.3959 0.7438
O5_7 O 0.70798(11) 0.30206(10) 0.70917(5)
C5_7 C 0.65875(19) 0.47090(17) 0.75853(9)
H2_7 H 0.6949 0.4913 0.7687
C6_7 C 0.5944(2) 0.49772(16) 0.75813(9)
H3_7 H 0.5868 0.5361 0.7683
C7_7 C 0.53978(17) 0.46822(15) 0.74262(8)
H4_7 H 0.4965 0.4877 0.7418
O6_7 O 0.53442(10) 0.17364(8) 0.77863(4)
N4_7 N 0.52102(11) 0.31229(10) 0.78657(4)
C18_7 C 0.51261(14) 0.12102(12) 0.78661(6)
Zn5_4 Zn 0.6250 0.1250 0.825006(9)
O7_7 O 0.54281(11) 0.08668(9) 0.80679(4)
O8_7 O 0.29281(11) 0.33668(9) 0.69321(4)
N6_7 N 0.34741(14) 0.44608(11) 0.64503(5)
C19_7 C 0.44997(14) 0.09066(12) 0.77172(6)
S2_7 S 0.36653(3) 0.19303(3) 0.788432(15)
O9_7 O 0.40196(13) 0.19389(12) 0.81787(5)
C20_7 C 0.38369(14) 0.11783(12) 0.77094(6)
O10_7 O 0.39477(10) 0.24015(9) 0.76659(5)
C21_7 C 0.32952(16) 0.08643(15) 0.75615(7)
H13_7 H 0.2853 0.1041 0.7562
O11_7 O 0.29202(11) 0.19794(10) 0.79083(5)
C22_7 C 0.34125(19) 0.02910(17) 0.74147(9)
H14_7 H 0.3051 0.0087 0.7313
C23_7 C 0.4056(2) 0.00228(16) 0.74187(9)
C24_7 C 0.46022(17) 0.03178(15) 0.75738(8)
H16_7 H 0.5035 0.0123 0.7582
H15_7 H 0.4132 0.9639 0.7317
O6_8 O 0.71558(10) 0.07636(8) 0.77863(4)
C18_8 C 0.73739(14) 0.12898(12) 0.78661(6)
O7_8 O 0.70719(11) 0.16332(9) 0.80679(4)
C19_8 C 0.80003(14) 0.15934(12) 0.77172(6)
S2_8 S 0.88347(3) 0.05697(3) 0.788432(15)
O9_8 O 0.84804(13) 0.05611(12) 0.81787(5)
C20_8 C 0.86631(14) 0.13217(12) 0.77094(6)
O10_8 O 0.85523(10) 0.00985(9) 0.76659(5)
C21_8 C 0.92048(16) 0.16357(15) 0.75615(7)
H13_8 H 0.9647 0.1459 0.7562
O11_8 O 0.95798(11) 0.05206(10) 0.79083(5)
C22_8 C 0.90875(19) 0.22090(17) 0.74147(9)
H14_8 H 0.9449 0.2413 0.7313
C23_8 C 0.8444(2) 0.24772(16) 0.74187(9)
H15_8 H 0.8368 0.2861 0.7317
C24_8 C 0.78978(17) 0.21822(15) 0.75738(8)
H16_8 H 0.7465 0.2377 0.7582
O1_8 O 0.78442(10) 0.92364(8) 0.72137(4)
C1_8 C 0.76261(14) 0.87102(12) 0.71339(6)
O2_8 O 0.79281(11) 0.83668(9) 0.69321(4)
C2_8 C 0.69997(14) 0.84066(12) 0.72828(6)
S1_8 S 0.61653(3) 0.94303(3) 0.711568(15)
O3_8 O 0.65196(13) 0.94389(12) 0.68213(5)
C3_8 C 0.63369(14) 0.86783(12) 0.72906(6)
O4_8 O 0.64477(10) 0.99015(9) 0.73341(5)
C4_8 C 0.57952(16) 0.83643(15) 0.74385(7)
H1_8 H 0.5353 0.8541 0.7438
O5_8 O 0.54202(11) 0.94794(10) 0.70917(5)
C5_8 C 0.59125(19) 0.77910(17) 0.75853(9)
H2_8 H 0.5551 0.7587 0.7687
C6_8 C 0.6556(2) 0.75228(16) 0.75813(9)
H3_8 H 0.6632 0.7139 0.7683
C7_8 C 0.71022(17) 0.78178(15) 0.74262(8)
H4_8 H 0.7535 0.7623 0.7418
N4_8 N 0.72898(11) 0.93771(10) 0.78657(4)
O8_8 O 0.95719(11) 0.91332(9) 0.69321(4)
N6_8 N 0.90259(14) 0.80392(11) 0.64503(5)
Zn1_8 Zn -0.0000 0.5000 0.5000
C2_9 C 0.05003(14) 0.34066(12) 0.52172(6)
S1_9 S 0.13347(3) 0.44303(3) 0.538432(15)
O3_9 O 0.09804(13) 0.44389(12) 0.56787(5)
C3_9 C 0.11631(14) 0.36783(12) 0.52094(6)
O4_9 O 0.10523(10) 0.49015(9) 0.51659(5)
C4_9 C 0.17048(16) 0.33643(15) 0.50615(7)
H1_9 H 0.2147 0.3541 0.5062
O5_9 O 0.20798(11) 0.44794(10) 0.54083(5)
C5_9 C 0.15875(19) 0.27910(17) 0.49147(9)
H2_9 H 0.1949 0.2587 0.4813
C6_9 C 0.0944(2) 0.25228(16) 0.49187(9)
H3_9 H 0.0868 0.2139 0.4817
C7_9 C 0.03978(17) 0.28178(15) 0.50738(8)
C11_5 C 0.01581(15) 0.65117(13) 0.56702(6)
H7_5 H 0.0512 0.6789 0.5726
C12_5 C 0.02758(15) 0.60407(13) 0.54554(6)
H8_5 H 0.0715 0.6011 0.5368
H11_5 H 0.0016 0.7999 0.6544
H12_5 H 0.0306 0.7226 0.6193
Zn3_6 Zn 0.0000 0.7500 0.7500
O6_9 O 0.03442(10) 0.57636(8) 0.47137(4)
N4_9 N 0.02102(11) 0.43771(10) 0.46343(4)
C18_9 C 0.01261(14) 0.62898(12) 0.46339(6)
Zn5_5 Zn 0.1250 0.6250 0.424994(9)
O7_9 O 0.04281(11) 0.66332(9) 0.44321(4)
H16_9 H 0.0035 0.7377 0.4918
C28_5 C 0.01581(15) 0.59883(13) 0.68298(6)
H19_5 H 0.0512 0.5711 0.6774
C29_5 C 0.02758(15) 0.64593(13) 0.70446(6)
H20_5 H 0.0715 0.6489 0.7132
H23_5 H 0.0016 0.4501 0.5956
H24_5 H 0.0306 0.5274 0.6307
Zn1_9 Zn 1.0000 0.5000 0.5000
O1_9 O 0.96558(10) 0.42364(8) 0.52863(4)
N1_5 N 0.97898(11) 0.56229(10) 0.53657(4)
C1_9 C 0.98739(14) 0.37102(12) 0.53661(6)
H4_9 H 0.9965 0.2623 0.5082
C8_5 C 0.91692(14) 0.56662(13) 0.54981(6)
H5_5 H 0.8829 0.5374 0.5442
C9_5 C 0.90070(15) 0.61268(14) 0.57149(6)
H6_5 H 0.8566 0.6141 0.5802
C10_5 C 0.95052(14) 0.65680(12) 0.58025(5)
C13_5 C 0.93432(15) 0.70850(13) 0.60270(6)
C14_5 C 0.86759(19) 0.73063(19) 0.60604(8)
H9_5 H 0.8320 0.7137 0.5941
C15_5 C 0.8537(2) 0.77811(19) 0.62728(8)
H10_5 H 0.8083 0.7926 0.6293
C16_5 C 0.96709(17) 0.78259(16) 0.64197(7)
C17_5 C 0.98474(18) 0.73576(16) 0.62102(7)
Zn3_7 Zn 1.0000 0.7500 0.7500
N3_5 N 0.97898(11) 0.68771(10) 0.71343(4)
C19_9 C 0.94997(14) 0.65934(12) 0.47828(6)
S2_9 S 0.86653(3) 0.55697(3) 0.461568(15)
O9_9 O 0.90196(13) 0.55611(12) 0.43213(5)
C20_9 C 0.88369(14) 0.63217(12) 0.47906(6)
O10_9 O 0.89477(10) 0.50985(9) 0.48341(5)
C21_9 C 0.82952(16) 0.66357(15) 0.49385(7)
H13_9 H 0.7853 0.6459 0.4938
O11_9 O 0.79202(11) 0.55206(10) 0.45917(5)
C22_9 C 0.84125(19) 0.72090(17) 0.50853(9)
H14_9 H 0.8051 0.7413 0.5187
C23_9 C 0.9056(2) 0.74772(16) 0.50813(9)
H15_9 H 0.9132 0.7861 0.5183
C24_9 C 0.96022(17) 0.71822(15) 0.49262(8)
C25_5 C 0.91692(14) 0.68338(13) 0.70019(6)
H17_5 H 0.8829 0.7126 0.7058
C26_5 C 0.90070(15) 0.63732(14) 0.67851(6)
H18_5 H 0.8566 0.6359 0.6698
C27_5 C 0.95052(14) 0.59320(12) 0.66975(5)
C30_5 C 0.93432(15) 0.54150(13) 0.64730(6)
C31_5 C 0.86759(19) 0.51937(19) 0.64396(8)
H21_5 H 0.8320 0.5363 0.6559
C32_5 C 0.8537(2) 0.47189(19) 0.62272(8)
H22_5 H 0.8083 0.4574 0.6207
C33_5 C 0.96709(17) 0.46741(16) 0.60803(7)
C34_5 C 0.98474(18) 0.51424(16) 0.62898(7)
H3_10 H 0.1632 0.0361 0.4817
Zn1_10 Zn 0.2500 0.7500 0.5000
O1_10 O 0.28442(10) 0.82636(8) 0.52863(4)
N1_6 N 0.27102(11) 0.68771(10) 0.53657(4)
C1_10 C 0.26261(14) 0.87898(12) 0.53661(6)
C2_10 C 0.19997(14) 0.90934(12) 0.52172(6)
S1_10 S 0.11653(3) 0.80697(3) 0.538432(15)
O3_10 O 0.15196(13) 0.80611(12) 0.56787(5)
C3_10 C 0.13369(14) 0.88217(12) 0.52094(6)
O4_10 O 0.14477(10) 0.75985(9) 0.51659(5)
C4_10 C 0.07952(16) 0.91357(15) 0.50615(7)
H1_10 H 0.0353 0.8959 0.5062
O5_10 O 0.04202(11) 0.80206(10) 0.54083(5)
C5_10 C 0.09125(19) 0.97090(17) 0.49147(9)
H2_10 H 0.0551 0.9913 0.4813
C6_10 C 0.1556(2) 0.99772(16) 0.49187(9)
C7_10 C 0.21022(17) 0.96822(15) 0.50738(8)
H4_10 H 0.2535 0.9877 0.5082
C8_6 C 0.33308(14) 0.68338(13) 0.54981(6)
H5_6 H 0.3671 0.7126 0.5442
C9_6 C 0.34930(15) 0.63732(14) 0.57149(6)
H6_6 H 0.3934 0.6359 0.5802
C10_6 C 0.29948(14) 0.59320(12) 0.58025(5)
C11_6 C 0.23419(15) 0.59883(13) 0.56702(6)
H7_6 H 0.1988 0.5711 0.5726
C12_6 C 0.22242(15) 0.64593(13) 0.54554(6)
H8_6 H 0.1785 0.6489 0.5368
C13_6 C 0.31568(15) 0.54150(13) 0.60270(6)
C14_6 C 0.38241(19) 0.51937(19) 0.60604(8)
H9_6 H 0.4180 0.5363 0.5941
C15_6 C 0.3963(2) 0.47189(19) 0.62728(8)
H10_6 H 0.4417 0.4574 0.6293
C16_6 C 0.28291(17) 0.46741(16) 0.64197(7)
H11_6 H 0.2484 0.4501 0.6544
C17_6 C 0.26526(18) 0.51424(16) 0.62102(7)
H12_6 H 0.2194 0.5274 0.6193
Zn3_8 Zn 0.2500 0.5000 0.7500
O6_10 O 0.21558(10) 0.67364(8) 0.47137(4)
N3_6 N 0.27102(11) 0.56229(10) 0.71343(4)
N4_10 N 0.22898(11) 0.81229(10) 0.46343(4)
C18_10 C 0.23739(14) 0.62102(12) 0.46339(6)
O7_10 O 0.20719(11) 0.58668(9) 0.44321(4)
C19_10 C 0.30003(14) 0.59066(12) 0.47828(6)
S2_10 S 0.38347(3) 0.69303(3) 0.461568(15)
O9_10 O 0.34804(13) 0.69389(12) 0.43213(5)
C20_10 C 0.36631(14) 0.61783(12) 0.47906(6)
O10_10 O 0.35523(10) 0.74015(9) 0.48341(5)
C21_10 C 0.42048(16) 0.58643(15) 0.49385(7)
H13_10 H 0.4647 0.6041 0.4938
O11_10 O 0.45798(11) 0.69794(10) 0.45917(5)
C22_10 C 0.40875(19) 0.52910(17) 0.50853(9)
H14_10 H 0.4449 0.5087 0.5187
C23_10 C 0.3444(2) 0.50228(16) 0.50813(9)
H15_10 H 0.3368 0.4639 0.5183
C24_10 C 0.28978(17) 0.53178(15) 0.49262(8)
H16_10 H 0.2465 0.5123 0.4918
C25_6 C 0.33308(14) 0.56662(13) 0.70019(6)
H17_6 H 0.3671 0.5374 0.7058
C26_6 C 0.34930(15) 0.61268(14) 0.67851(6)
H18_6 H 0.3934 0.6141 0.6698
C27_6 C 0.29948(14) 0.65680(12) 0.66975(5)
C28_6 C 0.23419(15) 0.65117(13) 0.68298(6)
H19_6 H 0.1988 0.6789 0.6774
C29_6 C 0.22242(15) 0.60407(13) 0.70446(6)
H20_6 H 0.1785 0.6011 0.7132
C30_6 C 0.31568(15) 0.70850(13) 0.64730(6)
C31_6 C 0.38241(19) 0.73063(19) 0.64396(8)
H21_6 H 0.4180 0.7137 0.6559
C32_6 C 0.3963(2) 0.77811(19) 0.62272(8)
H22_6 H 0.4417 0.7926 0.6207
C33_6 C 0.28291(17) 0.78259(16) 0.60803(7)
H23_6 H 0.2484 0.7999 0.5956
C34_6 C 0.26526(18) 0.73576(16) 0.62898(7)
H24_6 H 0.2194 0.7226 0.6307
H3_11 H 0.0868 0.0361 0.7683
C2_11 C 0.05003(14) 0.90934(12) 0.72828(6)
S1_11 S 0.13347(3) 0.80697(3) 0.711568(15)
O3_11 O 0.09804(13) 0.80611(12) 0.68213(5)
C3_11 C 0.11631(14) 0.88217(12) 0.72906(6)
O4_11 O 0.10523(10) 0.75985(9) 0.73341(5)
C4_11 C 0.17048(16) 0.91357(15) 0.74385(7)
H1_11 H 0.2147 0.8959 0.7438
O5_11 O 0.20798(11) 0.80206(10) 0.70917(5)
C5_11 C 0.15875(19) 0.97090(17) 0.75853(9)
H2_11 H 0.1949 0.9913 0.7687
C6_11 C 0.0944(2) 0.99772(16) 0.75813(9)
C7_11 C 0.03978(17) 0.96822(15) 0.74262(8)
O6_11 O 0.03442(10) 0.67364(8) 0.77863(4)
N4_11 N 0.02102(11) 0.81229(10) 0.78657(4)
C18_11 C 0.01261(14) 0.62102(12) 0.78661(6)
Zn5_6 Zn 0.1250 0.6250 0.825006(9)
O7_11 O 0.04281(11) 0.58668(9) 0.80679(4)
H16_11 H 0.0035 0.5123 0.7582
O1_11 O 0.96558(10) 0.82636(8) 0.72137(4)
C1_11 C 0.98739(14) 0.87898(12) 0.71339(6)
H4_11 H 0.9965 0.9877 0.7418
C19_11 C 0.94997(14) 0.59066(12) 0.77172(6)
S2_11 S 0.86653(3) 0.69303(3) 0.788432(15)
O9_11 O 0.90196(13) 0.69389(12) 0.81787(5)
C20_11 C 0.88369(14) 0.61783(12) 0.77094(6)
O10_11 O 0.89477(10) 0.74015(9) 0.76659(5)
C21_11 C 0.82952(16) 0.58643(15) 0.75615(7)
H13_11 H 0.7853 0.6041 0.7562
O11_11 O 0.79202(11) 0.69794(10) 0.79083(5)
C22_11 C 0.84125(19) 0.52910(17) 0.74147(9)
H14_11 H 0.8051 0.5087 0.7313
C23_11 C 0.9056(2) 0.50228(16) 0.74187(9)
H15_11 H 0.9132 0.4639 0.7317
C24_11 C 0.96022(17) 0.53178(15) 0.75738(8)
O1_12 O 0.28442(10) 0.42364(8) 0.72137(4)
C1_12 C 0.26261(14) 0.37102(12) 0.71339(6)
C2_12 C 0.19997(14) 0.34066(12) 0.72828(6)
S1_12 S 0.11653(3) 0.44303(3) 0.711568(15)
O3_12 O 0.15196(13) 0.44389(12) 0.68213(5)
C3_12 C 0.13369(14) 0.36783(12) 0.72906(6)
O4_12 O 0.14477(10) 0.49015(9) 0.73341(5)
C4_12 C 0.07952(16) 0.33643(15) 0.74385(7)
H1_12 H 0.0353 0.3541 0.7438
O5_12 O 0.04202(11) 0.44794(10) 0.70917(5)
C5_12 C 0.09125(19) 0.27910(17) 0.75853(9)
H2_12 H 0.0551 0.2587 0.7687
C6_12 C 0.1556(2) 0.25228(16) 0.75813(9)
H3_12 H 0.1632 0.2139 0.7683
C7_12 C 0.21022(17) 0.28178(15) 0.74262(8)
H4_12 H 0.2535 0.2623 0.7418
O6_12 O 0.21558(10) 0.57636(8) 0.77863(4)
N4_12 N 0.22898(11) 0.43771(10) 0.78657(4)
C18_12 C 0.23739(14) 0.62898(12) 0.78661(6)
O7_12 O 0.20719(11) 0.66332(9) 0.80679(4)
C19_12 C 0.30003(14) 0.65934(12) 0.77172(6)
S2_12 S 0.38347(3) 0.55697(3) 0.788432(15)
O9_12 O 0.34804(13) 0.55611(12) 0.81787(5)
C20_12 C 0.36631(14) 0.63217(12) 0.77094(6)
O10_12 O 0.35523(10) 0.50985(9) 0.76659(5)
C21_12 C 0.42048(16) 0.66357(15) 0.75615(7)
H13_12 H 0.4647 0.6459 0.7562
O11_12 O 0.45798(11) 0.55206(10) 0.79083(5)
C22_12 C 0.40875(19) 0.72090(17) 0.74147(9)
H14_12 H 0.4449 0.7413 0.7313
C23_12 C 0.3444(2) 0.74772(16) 0.74187(9)
H15_12 H 0.3368 0.7861 0.7317
C24_12 C 0.28978(17) 0.71822(15) 0.75738(8)
H16_12 H 0.2465 0.7377 0.7582
Zn1_11 Zn -0.0000 -0.0000 0.0000
C11_7 C 0.01581(15) 0.15117(13) 0.06702(6)
H7_7 H 0.0512 0.1789 0.0726
C12_7 C 0.02758(15) 0.10407(13) 0.04554(6)
H8_7 H 0.0715 0.1011 0.0368
H11_7 H 0.0016 0.2999 0.1544
H12_7 H 0.0306 0.2226 0.1193
Zn3_9 Zn 0.0000 0.2500 0.2500
C28_7 C 0.01581(15) 0.09883(13) 0.18298(6)
H19_7 H 0.0512 0.0711 0.1774
C29_7 C 0.02758(15) 0.14593(13) 0.20446(6)
H20_7 H 0.0715 0.1489 0.2132
H24_7 H 0.0306 0.0274 0.1307
Zn1_12 Zn -0.0000 -0.0000 1.0000
O6_13 O 0.03442(10) 0.07636(8) 0.97137(4)
C18_13 C 0.01261(14) 0.12898(12) 0.96339(6)
Zn5_7 Zn 0.1250 0.1250 0.924994(9)
O7_13 O 0.04281(11) 0.16332(9) 0.94321(4)
H16_13 H 0.0035 0.2377 0.9918
Zn1_13 Zn -0.0000 1.0000 1.0000
C5_13 C 0.15875(19) 0.77910(17) 0.99147(9)
H2_13 H 0.1949 0.7587 0.9813
C6_13 C 0.0944(2) 0.75228(16) 0.99187(9)
H3_13 H 0.0868 0.7139 0.9817
N4_13 N 0.02102(11) 0.93771(10) 0.96343(4)
Zn1_14 Zn 1.0000 -0.0000 0.0000
N1_7 N 0.97898(11) 0.06229(10) 0.03657(4)
C8_7 C 0.91692(14) 0.06662(13) 0.04981(6)
H5_7 H 0.8829 0.0374 0.0442
C9_7 C 0.90070(15) 0.11268(14) 0.07149(6)
H6_7 H 0.8566 0.1141 0.0802
C10_7 C 0.95052(14) 0.15680(12) 0.08025(5)
C13_7 C 0.93432(15) 0.20850(13) 0.10270(6)
C14_7 C 0.86759(19) 0.23063(19) 0.10604(8)
H9_7 H 0.8320 0.2137 0.0941
C15_7 C 0.8537(2) 0.27811(19) 0.12728(8)
H10_7 H 0.8083 0.2926 0.1293
C16_7 C 0.96709(17) 0.28259(16) 0.14197(7)
C17_7 C 0.98474(18) 0.23576(16) 0.12102(7)
Zn3_10 Zn 1.0000 0.2500 0.2500
N3_7 N 0.97898(11) 0.18771(10) 0.21343(4)
C22_13 C 0.84125(19) 0.22090(17) 0.00853(9)
H14_13 H 0.8051 0.2413 0.0187
C23_13 C 0.9056(2) 0.24772(16) 0.00813(9)
H15_13 H 0.9132 0.2861 0.0183
C25_7 C 0.91692(14) 0.18338(13) 0.20019(6)
H17_7 H 0.8829 0.2126 0.2058
C26_7 C 0.90070(15) 0.13732(14) 0.17851(6)
H18_7 H 0.8566 0.1359 0.1698
C27_7 C 0.95052(14) 0.09320(12) 0.16975(5)
C30_7 C 0.93432(15) 0.04150(13) 0.14730(6)
C31_7 C 0.86759(19) 0.01937(19) 0.14396(8)
H21_7 H 0.8320 0.0363 0.1559
C34_7 C 0.98474(18) 0.01424(16) 0.12898(7)
Zn1_15 Zn 1.0000 1.0000 0.0000
O1_13 O 0.96558(10) 0.92364(8) 0.02863(4)
C1_13 C 0.98739(14) 0.87102(12) 0.03661(6)
H4_13 H 0.9965 0.7623 0.0082
C32_7 C 0.8537(2) 0.97189(19) 0.12272(8)
H22_7 H 0.8083 0.9574 0.1207
C33_7 C 0.96709(17) 0.96741(16) 0.10803(7)
Zn1_16 Zn 1.0000 1.0000 1.0000
Zn1_17 Zn 0.2500 0.2500 0.0000
O1_14 O 0.28442(10) 0.32636(8) 0.02863(4)
N1_8 N 0.27102(11) 0.18771(10) 0.03657(4)
C1_14 C 0.26261(14) 0.37898(12) 0.03661(6)
C2_13 C 0.19997(14) 0.40934(12) 0.02172(6)
S1_13 S 0.11653(3) 0.30697(3) 0.038432(15)
O3_13 O 0.15196(13) 0.30611(12) 0.06787(5)
C3_13 C 0.13369(14) 0.38217(12) 0.02094(6)
O4_13 O 0.14477(10) 0.25985(9) 0.01659(5)
C4_13 C 0.07952(16) 0.41357(15) 0.00615(7)
H1_13 H 0.0353 0.3959 0.0062
O5_13 O 0.04202(11) 0.30206(10) 0.04083(5)
C7_13 C 0.21022(17) 0.46822(15) 0.00738(8)
H4_14 H 0.2535 0.4877 0.0082
C8_8 C 0.33308(14) 0.18338(13) 0.04981(6)
H5_8 H 0.3671 0.2126 0.0442
C9_8 C 0.34930(15) 0.13732(14) 0.07149(6)
H6_8 H 0.3934 0.1359 0.0802
C10_8 C 0.29948(14) 0.09320(12) 0.08025(5)
C11_8 C 0.23419(15) 0.09883(13) 0.06702(6)
H7_8 H 0.1988 0.0711 0.0726
C12_8 C 0.22242(15) 0.14593(13) 0.04554(6)
H8_8 H 0.1785 0.1489 0.0368
C13_8 C 0.31568(15) 0.04150(13) 0.10270(6)
C14_8 C 0.38241(19) 0.01937(19) 0.10604(8)
H9_8 H 0.4180 0.0363 0.0941
C17_8 C 0.26526(18) 0.01424(16) 0.12102(7)
H12_8 H 0.2194 0.0274 0.1193
Zn3_11 Zn 0.2500 0.0000 0.2500
N3_8 N 0.27102(11) 0.06229(10) 0.21343(4)
C22_14 C 0.40875(19) 0.02910(17) 0.00853(9)
H14_14 H 0.4449 0.0087 0.0187
C23_14 C 0.3444(2) 0.00228(16) 0.00813(9)
C25_8 C 0.33308(14) 0.06662(13) 0.20019(6)
H17_8 H 0.3671 0.0374 0.2058
C26_8 C 0.34930(15) 0.11268(14) 0.17851(6)
H18_8 H 0.3934 0.1141 0.1698
C27_8 C 0.29948(14) 0.15680(12) 0.16975(5)
C28_8 C 0.23419(15) 0.15117(13) 0.18298(6)
H19_8 H 0.1988 0.1789 0.1774
C29_8 C 0.22242(15) 0.10407(13) 0.20446(6)
H20_8 H 0.1785 0.1011 0.2132
C30_8 C 0.31568(15) 0.20850(13) 0.14730(6)
C31_8 C 0.38241(19) 0.23063(19) 0.14396(8)
H21_8 H 0.4180 0.2137 0.1559
C32_8 C 0.3963(2) 0.27811(19) 0.12272(8)
H22_8 H 0.4417 0.2926 0.1207
C33_8 C 0.28291(17) 0.28259(16) 0.10803(7)
H23_7 H 0.2484 0.2999 0.0956
C34_8 C 0.26526(18) 0.23576(16) 0.12898(7)
H24_8 H 0.2194 0.2226 0.1307
Zn1_18 Zn 0.2500 0.2500 1.0000
C5_14 C 0.09125(19) 0.47090(17) 0.99147(9)
H2_14 H 0.0551 0.4913 0.9813
C6_14 C 0.1556(2) 0.49772(16) 0.99187(9)
H3_14 H 0.1632 0.5361 0.9817
O6_14 O 0.21558(10) 0.17364(8) 0.97137(4)
N4_14 N 0.22898(11) 0.31229(10) 0.96343(4)
C18_14 C 0.23739(14) 0.12102(12) 0.96339(6)
O7_14 O 0.20719(11) 0.08668(9) 0.94321(4)
C19_13 C 0.30003(14) 0.09066(12) 0.97828(6)
S2_13 S 0.38347(3) 0.19303(3) 0.961568(15)
O9_13 O 0.34804(13) 0.19389(12) 0.93213(5)
C20_13 C 0.36631(14) 0.11783(12) 0.97906(6)
O10_13 O 0.35523(10) 0.24015(9) 0.98341(5)
C21_13 C 0.42048(16) 0.08643(15) 0.99385(7)
H13_13 H 0.4647 0.1041 0.9938
O11_13 O 0.45798(11) 0.19794(10) 0.95917(5)
C24_13 C 0.28978(17) 0.03178(15) 0.99262(8)
H16_14 H 0.2465 0.0123 0.9918
C15_8 C 0.3963(2) 0.97189(19) 0.12728(8)
H10_8 H 0.4417 0.9574 0.1293
C16_8 C 0.28291(17) 0.96741(16) 0.14197(7)
H11_8 H 0.2484 0.9501 0.1544
Zn3_12 Zn 0.2500 1.0000 0.2500
H15_14 H 0.3368 0.9639 0.0183
C2_14 C 0.05003(14) 0.40934(12) 0.22828(6)
S1_14 S 0.13347(3) 0.30697(3) 0.211568(15)
O3_14 O 0.09804(13) 0.30611(12) 0.18213(5)
C3_14 C 0.11631(14) 0.38217(12) 0.22906(6)
O4_14 O 0.10523(10) 0.25985(9) 0.23341(5)
C4_14 C 0.17048(16) 0.41357(15) 0.24385(7)
H1_14 H 0.2147 0.3959 0.2438
O5_14 O 0.20798(11) 0.30206(10) 0.20917(5)
C5_15 C 0.15875(19) 0.47090(17) 0.25853(9)
H2_15 H 0.1949 0.4913 0.2687
C6_15 C 0.0944(2) 0.49772(16) 0.25813(9)
H3_15 H 0.0868 0.5361 0.2683
C7_14 C 0.03978(17) 0.46822(15) 0.24262(8)
O6_15 O 0.03442(10) 0.17364(8) 0.27863(4)
N4_15 N 0.02102(11) 0.31229(10) 0.28657(4)
C18_15 C 0.01261(14) 0.12102(12) 0.28661(6)
Zn5_8 Zn 0.1250 0.1250 0.325006(9)
O7_15 O 0.04281(11) 0.08668(9) 0.30679(4)
H16_15 H 0.0035 0.0123 0.2582
O1_15 O 0.96558(10) 0.32636(8) 0.22137(4)
C1_15 C 0.98739(14) 0.37898(12) 0.21339(6)
H4_15 H 0.9965 0.4877 0.2418
C19_14 C 0.94997(14) 0.09066(12) 0.27172(6)
S2_14 S 0.86653(3) 0.19303(3) 0.288432(15)
O9_14 O 0.90196(13) 0.19389(12) 0.31787(5)
C20_14 C 0.88369(14) 0.11783(12) 0.27094(6)
O10_14 O 0.89477(10) 0.24015(9) 0.26659(5)
C21_14 C 0.82952(16) 0.08643(15) 0.25615(7)
H13_14 H 0.7853 0.1041 0.2562
O11_14 O 0.79202(11) 0.19794(10) 0.29083(5)
C22_15 C 0.84125(19) 0.02910(17) 0.24147(9)
H14_15 H 0.8051 0.0087 0.2313
C23_15 C 0.9056(2) 0.00228(16) 0.24187(9)
C24_14 C 0.96022(17) 0.03178(15) 0.25738(8)
H15_15 H 0.9132 0.9639 0.2317
O6_16 O 0.21558(10) 0.07636(8) 0.27863(4)
C18_16 C 0.23739(14) 0.12898(12) 0.28661(6)
O7_16 O 0.20719(11) 0.16332(9) 0.30679(4)
C19_15 C 0.30003(14) 0.15934(12) 0.27172(6)
S2_15 S 0.38347(3) 0.05697(3) 0.288432(15)
O9_15 O 0.34804(13) 0.05611(12) 0.31787(5)
C20_15 C 0.36631(14) 0.13217(12) 0.27094(6)
O10_15 O 0.35523(10) 0.00985(9) 0.26659(5)
C21_15 C 0.42048(16) 0.16357(15) 0.25615(7)
H13_15 H 0.4647 0.1459 0.2562
O11_15 O 0.45798(11) 0.05206(10) 0.29083(5)
C22_16 C 0.40875(19) 0.22090(17) 0.24147(9)
H14_16 H 0.4449 0.2413 0.2313
C23_16 C 0.3444(2) 0.24772(16) 0.24187(9)
H15_16 H 0.3368 0.2861 0.2317
C24_15 C 0.28978(17) 0.21822(15) 0.25738(8)
H16_16 H 0.2465 0.2377 0.2582
O1_16 O 0.28442(10) 0.92364(8) 0.22137(4)
C1_16 C 0.26261(14) 0.87102(12) 0.21339(6)
C2_15 C 0.19997(14) 0.84066(12) 0.22828(6)
S1_15 S 0.11653(3) 0.94303(3) 0.211568(15)
O3_15 O 0.15196(13) 0.94389(12) 0.18213(5)
C3_15 C 0.13369(14) 0.86783(12) 0.22906(6)
O4_15 O 0.14477(10) 0.99015(9) 0.23341(5)
C4_15 C 0.07952(16) 0.83643(15) 0.24385(7)
H1_15 H 0.0353 0.8541 0.2438
O5_15 O 0.04202(11) 0.94794(10) 0.20917(5)
C5_16 C 0.09125(19) 0.77910(17) 0.25853(9)
H2_16 H 0.0551 0.7587 0.2687
C6_16 C 0.1556(2) 0.75228(16) 0.25813(9)
H3_16 H 0.1632 0.7139 0.2683
C7_15 C 0.21022(17) 0.78178(15) 0.24262(8)
H4_16 H 0.2535 0.7623 0.2418
N4_16 N 0.22898(11) 0.93771(10) 0.28657(4)
N2_5 N 0.59741(14) 0.19608(11) 0.85497(5)
C8_9 C 0.58308(14) 0.43338(13) 0.95019(6)
H5_9 H 0.6171 0.4626 0.9558
C9_9 C 0.59930(15) 0.38732(14) 0.92851(6)
H6_9 H 0.6434 0.3859 0.9198
C10_9 C 0.54948(14) 0.34320(12) 0.91975(5)
C11_9 C 0.48419(15) 0.34883(13) 0.93298(6)
H7_9 H 0.4488 0.3211 0.9274
C12_9 C 0.47242(15) 0.39593(13) 0.95446(6)
H8_9 H 0.4285 0.3989 0.9632
C13_9 C 0.56568(15) 0.29150(13) 0.89730(6)
C14_9 C 0.63241(19) 0.26937(19) 0.89396(8)
H9_9 H 0.6680 0.2863 0.9059
C15_9 C 0.6463(2) 0.22189(19) 0.87272(8)
H10_9 H 0.6917 0.2074 0.8707
C16_9 C 0.53291(17) 0.21741(16) 0.85803(7)
H11_9 H 0.4984 0.2001 0.8456
C17_9 C 0.51526(18) 0.26424(16) 0.87898(7)
H12_9 H 0.4694 0.2774 0.8807
N5_5 N 0.59741(14) 0.55392(11) 0.89503(5)
N6_9 N 0.65259(14) 0.69608(11) 0.89503(5)
C25_9 C 0.58308(14) 0.31662(13) 0.79981(6)
H17_9 H 0.6171 0.2874 0.7942
C26_9 C 0.59930(15) 0.36268(14) 0.82149(6)
H18_9 H 0.6434 0.3641 0.8302
C27_9 C 0.54948(14) 0.40680(12) 0.83025(5)
C28_9 C 0.48419(15) 0.40117(13) 0.81702(6)
H19_9 H 0.4488 0.4289 0.8226
C29_9 C 0.47242(15) 0.35407(13) 0.79554(6)
H20_9 H 0.4285 0.3511 0.7868
C30_9 C 0.56568(15) 0.45850(13) 0.85270(6)
C31_9 C 0.63241(19) 0.48063(19) 0.85604(8)
H21_9 H 0.6680 0.4637 0.8441
C32_9 C 0.6463(2) 0.52811(19) 0.87728(8)
H22_9 H 0.6917 0.5426 0.8793
C33_9 C 0.53291(17) 0.53259(16) 0.89197(7)
H23_8 H 0.4984 0.5499 0.9044
C34_9 C 0.51526(18) 0.48576(16) 0.87102(7)
H24_9 H 0.4694 0.4726 0.8693
N2_6 N 0.15259(14) 0.55392(11) 0.85497(5)
C8_10 C 0.16692(14) 0.31662(13) 0.95019(6)
H5_10 H 0.1329 0.2874 0.9558
C9_10 C 0.15070(15) 0.36268(14) 0.92851(6)
H6_10 H 0.1066 0.3641 0.9198
C10_10 C 0.20052(14) 0.40680(12) 0.91975(5)
C11_10 C 0.26581(15) 0.40117(13) 0.93298(6)
H7_10 H 0.3012 0.4289 0.9274
C12_10 C 0.27758(15) 0.35407(13) 0.95446(6)
H8_10 H 0.3215 0.3511 0.9632
C13_10 C 0.18432(15) 0.45850(13) 0.89730(6)
C14_10 C 0.11759(19) 0.48063(19) 0.89396(8)
H9_10 H 0.0820 0.4637 0.9059
C15_10 C 0.1037(2) 0.52811(19) 0.87272(8)
H10_10 H 0.0583 0.5426 0.8707
C16_10 C 0.21709(17) 0.53259(16) 0.85803(7)
H11_10 H 0.2516 0.5499 0.8456
C17_10 C 0.23474(18) 0.48576(16) 0.87898(7)
H12_10 H 0.2806 0.4726 0.8807
N5_6 N 0.15259(14) 0.19608(11) 0.89503(5)
N6_10 N 0.09741(14) 0.05392(11) 0.89503(5)
C25_10 C 0.16692(14) 0.43338(13) 0.79981(6)
H17_10 H 0.1329 0.4626 0.7942
C26_10 C 0.15070(15) 0.38732(14) 0.82149(6)
H18_10 H 0.1066 0.3859 0.8302
C27_10 C 0.20052(14) 0.34320(12) 0.83025(5)
C28_10 C 0.26581(15) 0.34883(13) 0.81702(6)
H19_10 H 0.3012 0.3211 0.8226
C29_10 C 0.27758(15) 0.39593(13) 0.79554(6)
H20_10 H 0.3215 0.3989 0.7868
C30_10 C 0.18432(15) 0.29150(13) 0.85270(6)
C31_10 C 0.11759(19) 0.26937(19) 0.85604(8)
H21_10 H 0.0820 0.2863 0.8441
C32_10 C 0.1037(2) 0.22189(19) 0.87728(8)
H22_10 H 0.0583 0.2074 0.8793
C33_10 C 0.21709(17) 0.21741(16) 0.89197(7)
H23_9 H 0.2516 0.2001 0.9044
C34_10 C 0.23474(18) 0.26424(16) 0.87102(7)
H24_10 H 0.2806 0.2774 0.8693
N6_11 N 0.65259(14) 0.05392(11) 0.85497(5)
N6_12 N 0.09741(14) 0.69608(11) 0.85497(5)
N5_7 N 0.59741(14) 0.05392(11) 0.39503(5)
N6_13 N 0.65259(14) 0.19608(11) 0.39503(5)
C32_11 C 0.6463(2) 0.02811(19) 0.37728(8)
H22_11 H 0.6917 0.0426 0.3793
C33_11 C 0.53291(17) 0.03259(16) 0.39197(7)
H23_10 H 0.4984 0.0499 0.4044
N2_7 N 0.59741(14) 0.69608(11) 0.35497(5)
C8_11 C 0.58308(14) 0.93338(13) 0.45019(6)
H5_11 H 0.6171 0.9626 0.4558
C9_11 C 0.59930(15) 0.88732(14) 0.42851(6)
H6_11 H 0.6434 0.8859 0.4198
C10_11 C 0.54948(14) 0.84320(12) 0.41975(5)
C11_11 C 0.48419(15) 0.84883(13) 0.43298(6)
H7_11 H 0.4488 0.8211 0.4274
C12_11 C 0.47242(15) 0.89593(13) 0.45446(6)
H8_11 H 0.4285 0.8989 0.4632
C13_11 C 0.56568(15) 0.79150(13) 0.39730(6)
C14_11 C 0.63241(19) 0.76937(19) 0.39396(8)
H9_11 H 0.6680 0.7863 0.4059
C15_11 C 0.6463(2) 0.72189(19) 0.37272(8)
H10_11 H 0.6917 0.7074 0.3707
C16_11 C 0.53291(17) 0.71741(16) 0.35803(7)
H11_11 H 0.4984 0.7001 0.3456
C17_11 C 0.51526(18) 0.76424(16) 0.37898(7)
H12_11 H 0.4694 0.7774 0.3807
C25_11 C 0.58308(14) 0.81662(13) 0.29981(6)
H17_11 H 0.6171 0.7874 0.2942
C26_11 C 0.59930(15) 0.86268(14) 0.32149(6)
H18_11 H 0.6434 0.8641 0.3302
C27_11 C 0.54948(14) 0.90680(12) 0.33025(5)
C28_11 C 0.48419(15) 0.90117(13) 0.31702(6)
H19_11 H 0.4488 0.9289 0.3226
C29_11 C 0.47242(15) 0.85407(13) 0.29554(6)
H20_11 H 0.4285 0.8511 0.2868
C30_11 C 0.56568(15) 0.95850(13) 0.35270(6)
C31_11 C 0.63241(19) 0.98063(19) 0.35604(8)
H21_11 H 0.6680 0.9637 0.3441
C34_11 C 0.51526(18) 0.98576(16) 0.37102(7)
H24_11 H 0.4694 0.9726 0.3693
N2_8 N 0.15259(14) 0.05392(11) 0.35497(5)
C15_12 C 0.1037(2) 0.02811(19) 0.37272(8)
H10_12 H 0.0583 0.0426 0.3707
C16_12 C 0.21709(17) 0.03259(16) 0.35803(7)
H11_12 H 0.2516 0.0499 0.3456
C8_12 C 0.16692(14) 0.81662(13) 0.45019(6)
H5_12 H 0.1329 0.7874 0.4558
C9_12 C 0.15070(15) 0.86268(14) 0.42851(6)
H6_12 H 0.1066 0.8641 0.4198
C10_12 C 0.20052(14) 0.90680(12) 0.41975(5)
C11_12 C 0.26581(15) 0.90117(13) 0.43298(6)
H7_12 H 0.3012 0.9289 0.4274
C12_12 C 0.27758(15) 0.85407(13) 0.45446(6)
H8_12 H 0.3215 0.8511 0.4632
C13_12 C 0.18432(15) 0.95850(13) 0.39730(6)
C14_12 C 0.11759(19) 0.98063(19) 0.39396(8)
H9_12 H 0.0820 0.9637 0.4059
C17_12 C 0.23474(18) 0.98576(16) 0.37898(7)
H12_12 H 0.2806 0.9726 0.3807
N5_8 N 0.15259(14) 0.69608(11) 0.39503(5)
N6_14 N 0.09741(14) 0.55392(11) 0.39503(5)
C25_12 C 0.16692(14) 0.93338(13) 0.29981(6)
H17_12 H 0.1329 0.9626 0.2942
C26_12 C 0.15070(15) 0.88732(14) 0.32149(6)
H18_12 H 0.1066 0.8859 0.3302
C27_12 C 0.20052(14) 0.84320(12) 0.33025(5)
C28_12 C 0.26581(15) 0.84883(13) 0.31702(6)
H19_12 H 0.3012 0.8211 0.3226
C29_12 C 0.27758(15) 0.89593(13) 0.29554(6)
H20_12 H 0.3215 0.8989 0.2868
C30_12 C 0.18432(15) 0.79150(13) 0.35270(6)
C31_12 C 0.11759(19) 0.76937(19) 0.35604(8)
H21_12 H 0.0820 0.7863 0.3441
C32_12 C 0.1037(2) 0.72189(19) 0.37728(8)
H22_12 H 0.0583 0.7074 0.3793
C33_12 C 0.21709(17) 0.71741(16) 0.39197(7)
H23_11 H 0.2516 0.7001 0.4044
C34_12 C 0.23474(18) 0.76424(16) 0.37102(7)
H24_12 H 0.2806 0.7774 0.3693
N6_15 N 0.65259(14) 0.55392(11) 0.35497(5)
N6_16 N 0.09741(14) 0.19608(11) 0.35497(5)
C8_13 C 0.08308(14) 0.43338(13) 0.45019(6)
H5_13 H 0.1171 0.4626 0.4558
C9_13 C 0.09930(15) 0.38732(14) 0.42851(6)
H6_13 H 0.1434 0.3859 0.4198
C10_13 C 0.04948(14) 0.34320(12) 0.41975(5)
C13_13 C 0.06568(15) 0.29150(13) 0.39730(6)
C14_13 C 0.13241(19) 0.26937(19) 0.39396(8)
H9_13 H 0.1680 0.2863 0.4059
C15_13 C 0.1463(2) 0.22189(19) 0.37272(8)
H10_13 H 0.1917 0.2074 0.3707
C16_13 C 0.03291(17) 0.21741(16) 0.35803(7)
C17_13 C 0.01526(18) 0.26424(16) 0.37898(7)
C25_13 C 0.08308(14) 0.31662(13) 0.29981(6)
H17_13 H 0.1171 0.2874 0.2942
C26_13 C 0.09930(15) 0.36268(14) 0.32149(6)
H18_13 H 0.1434 0.3641 0.3302
C27_13 C 0.04948(14) 0.40680(12) 0.33025(5)
C30_13 C 0.06568(15) 0.45850(13) 0.35270(6)
C31_13 C 0.13241(19) 0.48063(19) 0.35604(8)
H21_13 H 0.1680 0.4637 0.3441
C32_13 C 0.1463(2) 0.52811(19) 0.37728(8)
H22_13 H 0.1917 0.5426 0.3793
C33_13 C 0.03291(17) 0.53259(16) 0.39197(7)
C34_13 C 0.01526(18) 0.48576(16) 0.37102(7)
C11_13 C 0.98419(15) 0.34883(13) 0.43298(6)
H7_13 H 0.9488 0.3211 0.4274
C12_13 C 0.97242(15) 0.39593(13) 0.45446(6)
H8_13 H 0.9285 0.3989 0.4632
H11_13 H 0.9984 0.2001 0.3456
H12_13 H 0.9694 0.2774 0.3807
C28_13 C 0.98419(15) 0.40117(13) 0.31702(6)
H19_13 H 0.9488 0.4289 0.3226
C29_13 C 0.97242(15) 0.35407(13) 0.29554(6)
H20_13 H 0.9285 0.3511 0.2868
H23_12 H 0.9984 0.5499 0.4044
H24_13 H 0.9694 0.4726 0.3693
C8_14 C 0.66692(14) 0.31662(13) 0.45019(6)
H5_14 H 0.6329 0.2874 0.4558
C9_14 C 0.65070(15) 0.36268(14) 0.42851(6)
H6_14 H 0.6066 0.3641 0.4198
C10_14 C 0.70052(14) 0.40680(12) 0.41975(5)
C11_14 C 0.76581(15) 0.40117(13) 0.43298(6)
H7_14 H 0.8012 0.4289 0.4274
C12_14 C 0.77758(15) 0.35407(13) 0.45446(6)
H8_14 H 0.8215 0.3511 0.4632
C13_14 C 0.68432(15) 0.45850(13) 0.39730(6)
C14_14 C 0.61759(19) 0.48063(19) 0.39396(8)
H9_14 H 0.5820 0.4637 0.4059
C15_14 C 0.6037(2) 0.52811(19) 0.37272(8)
H10_14 H 0.5583 0.5426 0.3707
C16_14 C 0.71709(17) 0.53259(16) 0.35803(7)
H11_14 H 0.7516 0.5499 0.3456
C17_14 C 0.73474(18) 0.48576(16) 0.37898(7)
H12_14 H 0.7806 0.4726 0.3807
C25_14 C 0.66692(14) 0.43338(13) 0.29981(6)
H17_14 H 0.6329 0.4626 0.2942
C26_14 C 0.65070(15) 0.38732(14) 0.32149(6)
H18_14 H 0.6066 0.3859 0.3302
C27_14 C 0.70052(14) 0.34320(12) 0.33025(5)
C28_14 C 0.76581(15) 0.34883(13) 0.31702(6)
H19_14 H 0.8012 0.3211 0.3226
C29_14 C 0.77758(15) 0.39593(13) 0.29554(6)
H20_14 H 0.8215 0.3989 0.2868
C30_14 C 0.68432(15) 0.29150(13) 0.35270(6)
C31_14 C 0.61759(19) 0.26937(19) 0.35604(8)
H21_14 H 0.5820 0.2863 0.3441
C32_14 C 0.6037(2) 0.22189(19) 0.37728(8)
H22_14 H 0.5583 0.2074 0.3793
C33_14 C 0.71709(17) 0.21741(16) 0.39197(7)
H23_13 H 0.7516 0.2001 0.4044
C34_14 C 0.73474(18) 0.26424(16) 0.37102(7)
H24_14 H 0.7806 0.2774 0.3693
C32_15 C 0.1463(2) 0.02811(19) 0.87728(8)
H22_15 H 0.1917 0.0426 0.8793
C33_15 C 0.03291(17) 0.03259(16) 0.89197(7)
C8_15 C 0.08308(14) 0.93338(13) 0.95019(6)
H5_15 H 0.1171 0.9626 0.9558
C9_15 C 0.09930(15) 0.88732(14) 0.92851(6)
H6_15 H 0.1434 0.8859 0.9198
C10_15 C 0.04948(14) 0.84320(12) 0.91975(5)
C13_15 C 0.06568(15) 0.79150(13) 0.89730(6)
C14_15 C 0.13241(19) 0.76937(19) 0.89396(8)
H9_15 H 0.1680 0.7863 0.9059
C15_15 C 0.1463(2) 0.72189(19) 0.87272(8)
H10_15 H 0.1917 0.7074 0.8707
C16_15 C 0.03291(17) 0.71741(16) 0.85803(7)
C17_15 C 0.01526(18) 0.76424(16) 0.87898(7)
C25_15 C 0.08308(14) 0.81662(13) 0.79981(6)
H17_15 H 0.1171 0.7874 0.7942
C26_15 C 0.09930(15) 0.86268(14) 0.82149(6)
H18_15 H 0.1434 0.8641 0.8302
C27_15 C 0.04948(14) 0.90680(12) 0.83025(5)
C30_15 C 0.06568(15) 0.95850(13) 0.85270(6)
C31_15 C 0.13241(19) 0.98063(19) 0.85604(8)
H21_15 H 0.1680 0.9637 0.8441
C34_15 C 0.01526(18) 0.98576(16) 0.87102(7)
C11_15 C 0.98419(15) 0.84883(13) 0.93298(6)
H7_15 H 0.9488 0.8211 0.9274
C12_15 C 0.97242(15) 0.89593(13) 0.95446(6)
H8_15 H 0.9285 0.8989 0.9632
H11_15 H 0.9984 0.7001 0.8456
H12_15 H 0.9694 0.7774 0.8807
C28_15 C 0.98419(15) 0.90117(13) 0.81702(6)
H19_15 H 0.9488 0.9289 0.8226
C29_15 C 0.97242(15) 0.85407(13) 0.79554(6)
H20_15 H 0.9285 0.8511 0.7868
H24_15 H 0.9694 0.9726 0.8693
C15_16 C 0.6037(2) 0.02811(19) 0.87272(8)
H10_16 H 0.5583 0.0426 0.8707
C16_16 C 0.71709(17) 0.03259(16) 0.85803(7)
H11_16 H 0.7516 0.0499 0.8456
C8_16 C 0.66692(14) 0.81662(13) 0.95019(6)
H5_16 H 0.6329 0.7874 0.9558
C9_16 C 0.65070(15) 0.86268(14) 0.92851(6)
H6_16 H 0.6066 0.8641 0.9198
C10_16 C 0.70052(14) 0.90680(12) 0.91975(5)
C11_16 C 0.76581(15) 0.90117(13) 0.93298(6)
H7_16 H 0.8012 0.9289 0.9274
C12_16 C 0.77758(15) 0.85407(13) 0.95446(6)
H8_16 H 0.8215 0.8511 0.9632
C13_16 C 0.68432(15) 0.95850(13) 0.89730(6)
C14_16 C 0.61759(19) 0.98063(19) 0.89396(8)
H9_16 H 0.5820 0.9637 0.9059
C17_16 C 0.73474(18) 0.98576(16) 0.87898(7)
H12_16 H 0.7806 0.9726 0.8807
C25_16 C 0.66692(14) 0.93338(13) 0.79981(6)
H17_16 H 0.6329 0.9626 0.7942
C26_16 C 0.65070(15) 0.88732(14) 0.82149(6)
H18_16 H 0.6066 0.8859 0.8302
C27_16 C 0.70052(14) 0.84320(12) 0.83025(5)
C28_16 C 0.76581(15) 0.84883(13) 0.81702(6)
H19_16 H 0.8012 0.8211 0.8226
C29_16 C 0.77758(15) 0.89593(13) 0.79554(6)
H20_16 H 0.8215 0.8989 0.7868
C30_16 C 0.68432(15) 0.79150(13) 0.85270(6)
C31_16 C 0.61759(19) 0.76937(19) 0.85604(8)
H21_16 H 0.5820 0.7863 0.8441
C32_16 C 0.6037(2) 0.72189(19) 0.87728(8)
H22_16 H 0.5583 0.7074 0.8793
C33_16 C 0.71709(17) 0.71741(16) 0.89197(7)
H23_14 H 0.7516 0.7001 0.9044
C34_16 C 0.73474(18) 0.76424(16) 0.87102(7)
H24_16 H 0.7806 0.7774 0.8693
Zn1_19 Zn -0.0000 1.0000 0.0000
C2_16 C 0.05003(14) 0.84066(12) 0.02172(6)
S1_16 S 0.13347(3) 0.94303(3) 0.038432(15)
O3_16 O 0.09804(13) 0.94389(12) 0.06787(5)
C3_16 C 0.11631(14) 0.86783(12) 0.02094(6)
O4_16 O 0.10523(10) 0.99015(9) 0.01659(5)
C4_16 C 0.17048(16) 0.83643(15) 0.00615(7)
H1_16 H 0.2147 0.8541 0.0062
O5_16 O 0.20798(11) 0.94794(10) 0.04083(5)
C7_16 C 0.03978(17) 0.78178(15) 0.00738(8)
H23_15 H 0.0016 0.9501 0.0956
Zn1_20 Zn 1.0000 -0.0000 1.0000
C19_16 C 0.94997(14) 0.15934(12) 0.97828(6)
S2_16 S 0.86653(3) 0.05697(3) 0.961568(15)
O9_16 O 0.90196(13) 0.05611(12) 0.93213(5)
C20_16 C 0.88369(14) 0.13217(12) 0.97906(6)
O10_16 O 0.89477(10) 0.00985(9) 0.98341(5)
C21_16 C 0.82952(16) 0.16357(15) 0.99385(7)
H13_16 H 0.7853 0.1459 0.9938
O11_16 O 0.79202(11) 0.05206(10) 0.95917(5)
C24_16 C 0.96022(17) 0.21822(15) 0.99262(8)
H23_16 H 0.9984 0.0499 0.9044
loop_
_geom_bond_atom_site_label_1
_geom_bond_atom_site_label_2
_geom_bond_site_symmetry_1
_geom_bond_site_symmetry_2
Zn1 O1 1_555 1_555
O1 C1 1_555 1_555
N1 Zn1 1_555 1_555
C1 O2 1_555 1_555
Zn2 O2 1_555 1_555
N2 C15 1_555 1_555
C2 C1 1_555 1_555
S1 O3 1_555 1_555
C3 C2 1_555 1_555
O4 Zn1 1_555 1_555
C4 C3 1_555 1_555
H1 C4 1_555 1_555
O5 S1 1_555 1_555
C7 C2 1_555 1_555
H4 C7 1_555 1_555
C8 N1 1_555 1_555
H5 C8 1_555 1_555
C9 C8 1_555 1_555
H6 C9 1_555 1_555
C10 C9 1_555 1_555
C11 C10 1_555 1_555
H7 C11 1_555 1_555
C12 N1 1_555 1_555
H8 C12 1_555 1_555
C13 C10 1_555 1_555
C14 C13 1_555 1_555
H9 C14 1_555 1_555
C15 C14 1_555 1_555
H10 C15 1_555 1_555
C16 N2 1_555 1_555
H11 C16 1_555 1_555
C17 C13 1_555 1_555
H12 C17 1_555 1_555
Zn3 N3 1_555 1_555
N3 C25 1_555 1_555
Zn4 N2 1_555 1_555
O8 Zn2 1_555 1_555
N5 Zn2 1_555 1_555
N6 Zn2 1_555 1_555
H14 C22 1_555 1_555
C23 C22 1_555 1_555
H15 C23 1_555 1_555
C25 H17 1_555 1_555
C26 C25 1_555 1_555
H18 C26 1_555 1_555
C27 C26 1_555 1_555
C28 C27 1_555 1_555
H19 C28 1_555 1_555
C29 N3 1_555 1_555
H20 C29 1_555 1_555
C30 C27 1_555 1_555
C31 C30 1_555 1_555
H21 C31 1_555 1_555
C32 N5 1_555 1_555
H22 C32 1_555 1_555
C33 N5 1_555 1_555
H23 C33 1_555 1_555
C34 C30 1_555 1_555
H24 C34 1_555 1_555
S1 C3 1_555 1_555
S1 O4 1_555 1_555
C11 C12 1_555 1_555
C16 C17 1_555 1_555
C28 C29 1_555 1_555
C31 C32 1_555 1_555
C33 C34 1_555 1_555
H2 C5 1_555 1_555
C6 C5 1_555 1_555
H3 C6 1_555 1_555
O6 Zn1_2 1_555 1_555
N4 Zn1_2 1_555 1_555
C18 O6 1_555 1_555
Zn5 O7 1_555 1_555
O7 C18 1_555 1_555
C19 C18 1_555 1_555
S2 O9 1_555 1_555
C20 C19 1_555 1_555
O10 Zn1_2 1_555 1_555
C21 C20 1_555 1_555
H13 C21 1_555 1_555
O11 S2 1_555 1_555
C24 C19 1_555 1_555
H16 C24 1_555 1_555
S2 C20 1_555 1_555
S2 O10 1_555 1_555
Zn1_3 O1_2 1_555 1_555
O1_2 C1_2 1_555 1_555
N1_2 Zn1_3 1_555 1_555
C1_2 O2_2 1_555 1_555
Zn2_2 O2_2 1_555 1_555
N2_2 C15_2 1_555 1_555
C2_2 C1_2 1_555 1_555
S1_2 O3_2 1_555 1_555
C3_2 C2_2 1_555 1_555
O4_2 Zn1_3 1_555 1_555
C4_2 C3_2 1_555 1_555
H1_2 C4_2 1_555 1_555
O5_2 S1_2 1_555 1_555
C7_2 C2_2 1_555 1_555
H4_2 C7_2 1_555 1_555
C8_2 N1_2 1_555 1_555
H5_2 C8_2 1_555 1_555
C9_2 C8_2 1_555 1_555
H6_2 C9_2 1_555 1_555
C10_2 C9_2 1_555 1_555
C11_2 C10_2 1_555 1_555
H7_2 C11_2 1_555 1_555
C12_2 N1_2 1_555 1_555
H8_2 C12_2 1_555 1_555
C13_2 C10_2 1_555 1_555
C14_2 C13_2 1_555 1_555
H9_2 C14_2 1_555 1_555
C15_2 C14_2 1_555 1_555
H10_2 C15_2 1_555 1_555
C16_2 N2_2 1_555 1_555
H11_2 C16_2 1_555 1_555
C17_2 C13_2 1_555 1_555
H12_2 C17_2 1_555 1_555
Zn3_2 N3_2 1_555 1_555
N3_2 C25_2 1_555 1_555
Zn4_2 N2_2 1_555 1_555
O8_2 Zn2_2 1_555 1_555
N5_2 Zn2_2 1_555 1_555
N6_2 Zn2_2 1_555 1_555
H14_2 C22_2 1_555 1_555
C23_2 C22_2 1_555 1_555
H15_2 C23_2 1_555 1_555
C25_2 H17_2 1_555 1_555
C26_2 C25_2 1_555 1_555
H18_2 C26_2 1_555 1_555
C27_2 C26_2 1_555 1_555
C28_2 C27_2 1_555 1_555
H19_2 C28_2 1_555 1_555
C29_2 N3_2 1_555 1_555
H20_2 C29_2 1_555 1_555
C30_2 C27_2 1_555 1_555
C31_2 C30_2 1_555 1_555
H21_2 C31_2 1_555 1_555
C32_2 N5_2 1_555 1_555
H22_2 C32_2 1_555 1_555
C33_2 N5_2 1_555 1_555
H23_2 C33_2 1_555 1_555
C34_2 C30_2 1_555 1_555
H24_2 C34_2 1_555 1_555
S1_2 C3_2 1_555 1_555
S1_2 O4_2 1_555 1_555
C11_2 C12_2 1_555 1_555
C16_2 C17_2 1_555 1_555
C28_2 C29_2 1_555 1_555
C31_2 C32_2 1_555 1_555
C33_2 C34_2 1_555 1_555
H2_2 C5_2 1_555 1_555
C6_2 C5_2 1_555 1_555
O6_2 Zn1_4 1_555 1_555
N4_2 Zn1_4 1_555 1_555
C18_2 O6_2 1_555 1_555
Zn5 O7_2 1_555 1_555
O7_2 C18_2 1_555 1_555
C19_2 C18_2 1_555 1_555
S2_2 O9_2 1_555 1_555
C20_2 C19_2 1_555 1_555
O10_2 Zn1_4 1_555 1_555
C21_2 C20_2 1_555 1_555
H13_2 C21_2 1_555 1_555
O11_2 S2_2 1_555 1_555
C24_2 C19_2 1_555 1_555
H16_2 C24_2 1_555 1_555
S2_2 C20_2 1_555 1_555
S2_2 O10_2 1_555 1_555
Zn3 O1_3 1_555 1_555
O1_3 C1_3 1_555 1_555
C1_3 O2_3 1_555 1_555
Zn4 O2_3 1_555 1_555
C2_3 C1_3 1_555 1_555
S1_3 O3_3 1_555 1_555
C3_3 C2_3 1_555 1_555
O4_3 Zn3 1_555 1_555
C4_3 C3_3 1_555 1_555
H1_3 C4_3 1_555 1_555
O5_3 S1_3 1_555 1_555
C5_3 C4_3 1_555 1_555
H2_3 C5_3 1_555 1_555
C6_3 C5_3 1_555 1_555
C7_3 C2_3 1_555 1_555
H4_3 C7_3 1_555 1_555
O6_3 Zn3 1_555 1_555
N4_3 Zn3 1_555 1_555
C18_3 O6_3 1_555 1_555
Zn5_2 O7_3 1_555 1_555
O7_3 C18_3 1_555 1_555
O8_3 Zn4 1_555 1_555
N6_3 Zn4 1_555 1_555
C19_3 C18_3 1_555 1_555
S2_3 O9_3 1_555 1_555
C20_3 C19_3 1_555 1_555
O10_3 Zn3 1_555 1_555
C21_3 C20_3 1_555 1_555
H13_3 C21_3 1_555 1_555
O11_3 S2_3 1_555 1_555
C22_3 C21_3 1_555 1_555
H14_3 C22_3 1_555 1_555
C23_3 C22_3 1_555 1_555
H15_3 C23_3 1_555 1_555
C24_3 C19_3 1_555 1_555
H16_3 C24_3 1_555 1_555
S1_3 C3_3 1_555 1_555
S1_3 O4_3 1_555 1_555
C6_3 C7_3 1_555 1_555
S2_3 C20_3 1_555 1_555
S2_3 O10_3 1_555 1_555
C23_3 C24_3 1_555 1_555
Zn3_2 O1_4 1_555 1_555
O1_4 C1_4 1_555 1_555
C1_4 O2_4 1_555 1_555
Zn4_2 O2_4 1_555 1_555
C2_4 C1_4 1_555 1_555
S1_4 O3_4 1_555 1_555
C3_4 C2_4 1_555 1_555
O4_4 Zn3_2 1_555 1_555
C4_4 C3_4 1_555 1_555
H1_4 C4_4 1_555 1_555
O5_4 S1_4 1_555 1_555
C5_4 C4_4 1_555 1_555
H2_4 C5_4 1_555 1_555
C6_4 C5_4 1_555 1_555
H3_4 C6_4 1_555 1_555
C7_4 C2_4 1_555 1_555
H4_4 C7_4 1_555 1_555
O6_4 Zn3_2 1_555 1_555
N4_4 Zn3_2 1_555 1_555
C18_4 O6_4 1_555 1_555
Zn5_2 O7_4 1_555 1_555
O7_4 C18_4 1_555 1_555
O8_4 Zn4_2 1_555 1_555
N6_4 Zn4_2 1_555 1_555
C19_4 C18_4 1_555 1_555
S2_4 O9_4 1_555 1_555
C20_4 C19_4 1_555 1_555
O10_4 Zn3_2 1_555 1_555
C21_4 C20_4 1_555 1_555
H13_4 C21_4 1_555 1_555
O11_4 S2_4 1_555 1_555
C22_4 C21_4 1_555 1_555
H14_4 C22_4 1_555 1_555
C23_4 C22_4 1_555 1_555
H15_4 C23_4 1_555 1_555
C24_4 C19_4 1_555 1_555
H16_4 C24_4 1_555 1_555
S1_4 C3_4 1_555 1_555
S1_4 O4_4 1_555 1_555
C6_4 C7_4 1_555 1_555
S2_4 C20_4 1_555 1_555
S2_4 O10_4 1_555 1_555
C23_4 C24_4 1_555 1_555
N1_3 Zn1_5 1_555 1_555
N2_3 C15_3 1_555 1_555
C8_3 N1_3 1_555 1_555
H5_3 C8_3 1_555 1_555
C9_3 C8_3 1_555 1_555
H6_3 C9_3 1_555 1_555
C10_3 C9_3 1_555 1_555
C11_3 C10_3 1_555 1_555
H7_3 C11_3 1_555 1_555
C12_3 N1_3 1_555 1_555
H8_3 C12_3 1_555 1_555
C13_3 C10_3 1_555 1_555
C14_3 C13_3 1_555 1_555
H9_3 C14_3 1_555 1_555
C15_3 C14_3 1_555 1_555
H10_3 C15_3 1_555 1_555
C16_3 N2_3 1_555 1_555
H11_3 C16_3 1_555 1_555
C17_3 C13_3 1_555 1_555
H12_3 C17_3 1_555 1_555
Zn3_3 N3_3 1_555 1_555
O6_5 Zn1_5 1_555 1_555
N3_3 C25_3 1_555 1_555
C18_5 O6_5 1_555 1_555
Zn4_3 N2_3 1_555 1_555
Zn5_3 O7_5 1_555 1_555
O7_5 C18_5 1_555 1_555
C19_5 C18_5 1_555 1_555
S2_5 O9_5 1_555 1_555
C20_5 C19_5 1_555 1_555
O10_5 Zn1_5 1_555 1_555
C21_5 C20_5 1_555 1_555
H13_5 C21_5 1_555 1_555
O11_5 S2_5 1_555 1_555
C22_5 C21_5 1_555 1_555
H14_5 C22_5 1_555 1_555
C23_5 C22_5 1_555 1_555
H15_5 C23_5 1_555 1_555
C24_5 C19_5 1_555 1_555
H16_5 C24_5 1_555 1_555
C25_3 H17_3 1_555 1_555
C26_3 C25_3 1_555 1_555
H18_3 C26_3 1_555 1_555
C27_3 C26_3 1_555 1_555
C28_3 C27_3 1_555 1_555
H19_3 C28_3 1_555 1_555
C29_3 N3_3 1_555 1_555
H20_3 C29_3 1_555 1_555
C30_3 C27_3 1_555 1_555
C31_3 C30_3 1_555 1_555
H21_3 C31_3 1_555 1_555
C34_3 C30_3 1_555 1_555
H24_3 C34_3 1_555 1_555
C11_3 C12_3 1_555 1_555
C16_3 C17_3 1_555 1_555
S2_5 C20_5 1_555 1_555
S2_5 O10_5 1_555 1_555
C23_5 C24_5 1_555 1_555
C28_3 C29_3 1_555 1_555
Zn1_6 O1_5 1_555 1_555
O1_5 C1_5 1_555 1_555
C1_5 O2_5 1_555 1_555
Zn2_3 O2_5 1_555 1_555
C2_5 C1_5 1_555 1_555
S1_5 O3_5 1_555 1_555
C3_5 C2_5 1_555 1_555
O4_5 Zn1_6 1_555 1_555
C4_5 C3_5 1_555 1_555
H1_5 C4_5 1_555 1_555
O5_5 S1_5 1_555 1_555
C5_5 C4_5 1_555 1_555
H2_5 C5_5 1_555 1_555
C6_5 C5_5 1_555 1_555
H3_5 C6_5 1_555 1_555
C7_5 C2_5 1_555 1_555
H4_5 C7_5 1_555 1_555
N4_5 Zn1_6 1_555 1_555
O8_5 Zn2_3 1_555 1_555
N5_3 Zn2_3 1_555 1_555
N6_5 Zn2_3 1_555 1_555
C32_3 N5_3 1_555 1_555
H22_3 C32_3 1_555 1_555
C33_3 N5_3 1_555 1_555
H23_3 C33_3 1_555 1_555
S1_5 C3_5 1_555 1_555
S1_5 O4_5 1_555 1_555
C6_5 C7_5 1_555 1_555
Zn1_7 O1_6 1_555 1_555
O1_6 C1_6 1_555 1_555
N1_4 Zn1_7 1_555 1_555
C1_6 O2_6 1_555 1_555
Zn2_4 O2_6 1_555 1_555
C2_6 C1_6 1_555 1_555
S1_6 O3_6 1_555 1_555
C3_6 C2_6 1_555 1_555
O4_6 Zn1_7 1_555 1_555
C4_6 C3_6 1_555 1_555
H1_6 C4_6 1_555 1_555
O5_6 S1_6 1_555 1_555
C5_6 C4_6 1_555 1_555
H2_6 C5_6 1_555 1_555
C6_6 C5_6 1_555 1_555
H3_6 C6_6 1_555 1_555
C7_6 C2_6 1_555 1_555
H4_6 C7_6 1_555 1_555
C8_4 N1_4 1_555 1_555
H5_4 C8_4 1_555 1_555
C9_4 C8_4 1_555 1_555
H6_4 C9_4 1_555 1_555
C10_4 C9_4 1_555 1_555
C11_4 C10_4 1_555 1_555
H7_4 C11_4 1_555 1_555
C12_4 N1_4 1_555 1_555
H8_4 C12_4 1_555 1_555
C13_4 C10_4 1_555 1_555
C14_4 C13_4 1_555 1_555
H9_4 C14_4 1_555 1_555
C17_4 C13_4 1_555 1_555
H12_4 C17_4 1_555 1_555
Zn3_4 N3_4 1_555 1_555
O6_6 Zn1_7 1_555 1_555
N3_4 C25_4 1_555 1_555
N4_6 Zn1_7 1_555 1_555
C18_6 O6_6 1_555 1_555
Zn5_3 O7_6 1_555 1_555
O7_6 C18_6 1_555 1_555
O8_6 Zn2_4 1_555 1_555
N5_4 Zn2_4 1_555 1_555
N6_6 Zn2_4 1_555 1_555
C19_6 C18_6 1_555 1_555
S2_6 O9_6 1_555 1_555
C20_6 C19_6 1_555 1_555
O10_6 Zn1_7 1_555 1_555
C21_6 C20_6 1_555 1_555
H13_6 C21_6 1_555 1_555
O11_6 S2_6 1_555 1_555
C22_6 C21_6 1_555 1_555
H14_6 C22_6 1_555 1_555
C23_6 C22_6 1_555 1_555
C24_6 C19_6 1_555 1_555
H16_6 C24_6 1_555 1_555
C25_4 H17_4 1_555 1_555
C26_4 C25_4 1_555 1_555
H18_4 C26_4 1_555 1_555
C27_4 C26_4 1_555 1_555
C28_4 C27_4 1_555 1_555
H19_4 C28_4 1_555 1_555
C29_4 N3_4 1_555 1_555
H20_4 C29_4 1_555 1_555
C30_4 C27_4 1_555 1_555
C31_4 C30_4 1_555 1_555
H21_4 C31_4 1_555 1_555
C32_4 N5_4 1_555 1_555
H22_4 C32_4 1_555 1_555
C33_4 N5_4 1_555 1_555
H23_4 C33_4 1_555 1_555
C34_4 C30_4 1_555 1_555
H24_4 C34_4 1_555 1_555
S1_6 C3_6 1_555 1_555
S1_6 O4_6 1_555 1_555
C6_6 C7_6 1_555 1_555
C11_4 C12_4 1_555 1_555
S2_6 C20_6 1_555 1_555
S2_6 O10_6 1_555 1_555
C23_6 C24_6 1_555 1_555
C28_4 C29_4 1_555 1_555
C31_4 C32_4 1_555 1_555
C33_4 C34_4 1_555 1_555
N2_4 C15_4 1_555 1_555
H10_4 C15_4 1_555 1_555
C16_4 N2_4 1_555 1_555
H11_4 C16_4 1_555 1_555
Zn4_4 N2_4 1_555 1_555
Zn3_3 O1_7 1_555 1_555
O1_7 C1_7 1_555 1_555
C1_7 O2_7 1_555 1_555
Zn4_3 O2_7 1_555 1_555
C2_7 C1_7 1_555 1_555
S1_7 O3_7 1_555 1_555
C3_7 C2_7 1_555 1_555
O4_7 Zn3_3 1_555 1_555
C4_7 C3_7 1_555 1_555
H1_7 C4_7 1_555 1_555
O5_7 S1_7 1_555 1_555
C5_7 C4_7 1_555 1_555
H2_7 C5_7 1_555 1_555
C6_7 C5_7 1_555 1_555
H3_7 C6_7 1_555 1_555
C7_7 C2_7 1_555 1_555
H4_7 C7_7 1_555 1_555
O6_7 Zn3_3 1_555 1_555
N4_7 Zn3_3 1_555 1_555
C18_7 O6_7 1_555 1_555
Zn5_4 O7_7 1_555 1_555
O7_7 C18_7 1_555 1_555
O8_7 Zn4_3 1_555 1_555
N6_7 Zn4_3 1_555 1_555
C19_7 C18_7 1_555 1_555
S2_7 O9_7 1_555 1_555
C20_7 C19_7 1_555 1_555
O10_7 Zn3_3 1_555 1_555
C21_7 C20_7 1_555 1_555
H13_7 C21_7 1_555 1_555
O11_7 S2_7 1_555 1_555
C22_7 C21_7 1_555 1_555
H14_7 C22_7 1_555 1_555
C23_7 C22_7 1_555 1_555
C24_7 C19_7 1_555 1_555
H16_7 C24_7 1_555 1_555
S1_7 C3_7 1_555 1_555
S1_7 O4_7 1_555 1_555
C6_7 C7_7 1_555 1_555
S2_7 C20_7 1_555 1_555
S2_7 O10_7 1_555 1_555
C23_7 C24_7 1_555 1_555
O6_8 Zn3_4 1_555 1_555
C18_8 O6_8 1_555 1_555
Zn5_4 O7_8 1_555 1_555
O7_8 C18_8 1_555 1_555
C19_8 C18_8 1_555 1_555
S2_8 O9_8 1_555 1_555
C20_8 C19_8 1_555 1_555
O10_8 Zn3_4 1_555 1_555
C21_8 C20_8 1_555 1_555
H13_8 C21_8 1_555 1_555
O11_8 S2_8 1_555 1_555
C22_8 C21_8 1_555 1_555
H14_8 C22_8 1_555 1_555
C23_8 C22_8 1_555 1_555
H15_8 C23_8 1_555 1_555
C24_8 C19_8 1_555 1_555
H16_8 C24_8 1_555 1_555
S2_8 C20_8 1_555 1_555
S2_8 O10_8 1_555 1_555
C23_8 C24_8 1_555 1_555
Zn3_5 O1_8 1_555 1_555
O1_8 C1_8 1_555 1_555
C1_8 O2_8 1_555 1_555
Zn4_4 O2_8 1_555 1_555
C2_8 C1_8 1_555 1_555
S1_8 O3_8 1_555 1_555
C3_8 C2_8 1_555 1_555
O4_8 Zn3_5 1_555 1_555
C4_8 C3_8 1_555 1_555
H1_8 C4_8 1_555 1_555
O5_8 S1_8 1_555 1_555
C5_8 C4_8 1_555 1_555
H2_8 C5_8 1_555 1_555
C6_8 C5_8 1_555 1_555
H3_8 C6_8 1_555 1_555
C7_8 C2_8 1_555 1_555
H4_8 C7_8 1_555 1_555
N4_8 Zn3_5 1_555 1_555
O8_8 Zn4_4 1_555 1_555
N6_8 Zn4_4 1_555 1_555
S1_8 C3_8 1_555 1_555
S1_8 O4_8 1_555 1_555
C6_8 C7_8 1_555 1_555
S1_9 O3_9 1_555 1_555
C3_9 C2_9 1_555 1_555
O4_9 Zn1_8 1_555 1_555
C4_9 C3_9 1_555 1_555
H1_9 C4_9 1_555 1_555
O5_9 S1_9 1_555 1_555
C5_9 C4_9 1_555 1_555
H2_9 C5_9 1_555 1_555
C6_9 C5_9 1_555 1_555
H3_9 C6_9 1_555 1_555
C7_9 C2_9 1_555 1_555
H7_5 C11_5 1_555 1_555
H8_5 C12_5 1_555 1_555
O6_9 Zn1_8 1_555 1_555
N4_9 Zn1_8 1_555 1_555
C18_9 O6_9 1_555 1_555
Zn5_5 O7_9 1_555 1_555
O7_9 C18_9 1_555 1_555
H19_5 C28_5 1_555 1_555
H20_5 C29_5 1_555 1_555
S1_9 C3_9 1_555 1_555
S1_9 O4_9 1_555 1_555
C6_9 C7_9 1_555 1_555
C11_5 C12_5 1_555 1_555
C28_5 C29_5 1_555 1_555
Zn1_9 O1_9 1_555 1_555
O1_9 C1_9 1_555 1_555
N1_5 Zn1_9 1_555 1_555
C1_9 O8_6 1_555 1_555
N6_8 C15_5 1_555 1_555
C8_5 N1_5 1_555 1_555
H5_5 C8_5 1_555 1_555
C9_5 C8_5 1_555 1_555
H6_5 C9_5 1_555 1_555
C10_5 C9_5 1_555 1_555
C13_5 C10_5 1_555 1_555
C14_5 C13_5 1_555 1_555
H9_5 C14_5 1_555 1_555
C15_5 C14_5 1_555 1_555
H10_5 C15_5 1_555 1_555
C16_5 N6_8 1_555 1_555
C17_5 C13_5 1_555 1_555
Zn3_7 N3_5 1_555 1_555
N3_5 C25_5 1_555 1_555
S2_9 O9_9 1_555 1_555
C20_9 C19_9 1_555 1_555
O10_9 Zn1_9 1_555 1_555
C21_9 C20_9 1_555 1_555
H13_9 C21_9 1_555 1_555
O11_9 S2_9 1_555 1_555
C22_9 C21_9 1_555 1_555
H14_9 C22_9 1_555 1_555
C23_9 C22_9 1_555 1_555
H15_9 C23_9 1_555 1_555
C24_9 C19_9 1_555 1_555
C25_5 H17_5 1_555 1_555
C26_5 C25_5 1_555 1_555
H18_5 C26_5 1_555 1_555
C27_5 C26_5 1_555 1_555
C30_5 C27_5 1_555 1_555
C31_5 C30_5 1_555 1_555
H21_5 C31_5 1_555 1_555
C32_5 N6_6 1_555 1_555
H22_5 C32_5 1_555 1_555
C33_5 N6_6 1_555 1_555
C34_5 C30_5 1_555 1_555
C16_5 C17_5 1_555 1_555
S2_9 C20_9 1_555 1_555
S2_9 O10_9 1_555 1_555
C23_9 C24_9 1_555 1_555
C31_5 C32_5 1_555 1_555
C33_5 C34_5 1_555 1_555
Zn1_10 O1_10 1_555 1_555
O1_10 C1_10 1_555 1_555
N1_6 Zn1_10 1_555 1_555
C1_10 O8_5 1_555 1_555
N6_7 C15_6 1_555 1_555
C2_10 C1_10 1_555 1_555
S1_10 O3_10 1_555 1_555
C3_10 C2_10 1_555 1_555
O4_10 Zn1_10 1_555 1_555
C4_10 C3_10 1_555 1_555
H1_10 C4_10 1_555 1_555
O5_10 S1_10 1_555 1_555
C5_10 C4_10 1_555 1_555
H2_10 C5_10 1_555 1_555
C6_10 C5_10 1_555 1_555
C7_10 C2_10 1_555 1_555
H4_10 C7_10 1_555 1_555
C8_6 N1_6 1_555 1_555
H5_6 C8_6 1_555 1_555
C9_6 C8_6 1_555 1_555
H6_6 C9_6 1_555 1_555
C10_6 C9_6 1_555 1_555
C11_6 C10_6 1_555 1_555
H7_6 C11_6 1_555 1_555
C12_6 N1_6 1_555 1_555
H8_6 C12_6 1_555 1_555
C13_6 C10_6 1_555 1_555
C14_6 C13_6 1_555 1_555
H9_6 C14_6 1_555 1_555
C15_6 C14_6 1_555 1_555
H10_6 C15_6 1_555 1_555
C16_6 N6_7 1_555 1_555
H11_6 C16_6 1_555 1_555
C17_6 C13_6 1_555 1_555
H12_6 C17_6 1_555 1_555
Zn3_8 N3_6 1_555 1_555
O6_10 Zn1_10 1_555 1_555
N3_6 C25_6 1_555 1_555
N4_10 Zn1_10 1_555 1_555
C18_10 O6_10 1_555 1_555
Zn5_5 O7_10 1_555 1_555
O7_10 C18_10 1_555 1_555
C19_10 C18_10 1_555 1_555
S2_10 O9_10 1_555 1_555
C20_10 C19_10 1_555 1_555
O10_10 Zn1_10 1_555 1_555
C21_10 C20_10 1_555 1_555
H13_10 C21_10 1_555 1_555
O11_10 S2_10 1_555 1_555
C22_10 C21_10 1_555 1_555
H14_10 C22_10 1_555 1_555
C23_10 C22_10 1_555 1_555
H15_10 C23_10 1_555 1_555
C24_10 C19_10 1_555 1_555
H16_10 C24_10 1_555 1_555
C25_6 H17_6 1_555 1_555
C26_6 C25_6 1_555 1_555
H18_6 C26_6 1_555 1_555
C27_6 C26_6 1_555 1_555
C28_6 C27_6 1_555 1_555
H19_6 C28_6 1_555 1_555
C29_6 N3_6 1_555 1_555
H20_6 C29_6 1_555 1_555
C30_6 C27_6 1_555 1_555
C31_6 C30_6 1_555 1_555
H21_6 C31_6 1_555 1_555
C32_6 N6_5 1_555 1_555
H22_6 C32_6 1_555 1_555
C33_6 N6_5 1_555 1_555
H23_6 C33_6 1_555 1_555
C34_6 C30_6 1_555 1_555
H24_6 C34_6 1_555 1_555
S1_10 C3_10 1_555 1_555
S1_10 O4_10 1_555 1_555
C6_10 C7_10 1_555 1_555
C11_6 C12_6 1_555 1_555
C16_6 C17_6 1_555 1_555
S2_10 C20_10 1_555 1_555
S2_10 O10_10 1_555 1_555
C23_10 C24_10 1_555 1_555
C28_6 C29_6 1_555 1_555
C31_6 C32_6 1_555 1_555
C33_6 C34_6 1_555 1_555
S1_11 O3_11 1_555 1_555
C3_11 C2_11 1_555 1_555
O4_11 Zn3_6 1_555 1_555
C4_11 C3_11 1_555 1_555
H1_11 C4_11 1_555 1_555
O5_11 S1_11 1_555 1_555
C5_11 C4_11 1_555 1_555
H2_11 C5_11 1_555 1_555
C6_11 C5_11 1_555 1_555
C7_11 C2_11 1_555 1_555
O6_11 Zn3_6 1_555 1_555
N4_11 Zn3_6 1_555 1_555
C18_11 O6_11 1_555 1_555
Zn5_6 O7_11 1_555 1_555
O7_11 C18_11 1_555 1_555
S1_11 C3_11 1_555 1_555
S1_11 O4_11 1_555 1_555
C6_11 C7_11 1_555 1_555
Zn3_7 O1_11 1_555 1_555
O1_11 C1_11 1_555 1_555
C1_11 O8_8 1_555 1_555
S2_11 O9_11 1_555 1_555
C20_11 C19_11 1_555 1_555
O10_11 Zn3_7 1_555 1_555
C21_11 C20_11 1_555 1_555
H13_11 C21_11 1_555 1_555
O11_11 S2_11 1_555 1_555
C22_11 C21_11 1_555 1_555
H14_11 C22_11 1_555 1_555
C23_11 C22_11 1_555 1_555
H15_11 C23_11 1_555 1_555
C24_11 C19_11 1_555 1_555
S2_11 C20_11 1_555 1_555
S2_11 O10_11 1_555 1_555
C23_11 C24_11 1_555 1_555
Zn3_8 O1_12 1_555 1_555
O1_12 C1_12 1_555 1_555
C1_12 O8_7 1_555 1_555
C2_12 C1_12 1_555 1_555
S1_12 O3_12 1_555 1_555
C3_12 C2_12 1_555 1_555
O4_12 Zn3_8 1_555 1_555
C4_12 C3_12 1_555 1_555
H1_12 C4_12 1_555 1_555
O5_12 S1_12 1_555 1_555
C5_12 C4_12 1_555 1_555
H2_12 C5_12 1_555 1_555
C6_12 C5_12 1_555 1_555
H3_12 C6_12 1_555 1_555
C7_12 C2_12 1_555 1_555
H4_12 C7_12 1_555 1_555
O6_12 Zn3_8 1_555 1_555
N4_12 Zn3_8 1_555 1_555
C18_12 O6_12 1_555 1_555
Zn5_6 O7_12 1_555 1_555
O7_12 C18_12 1_555 1_555
C19_12 C18_12 1_555 1_555
S2_12 O9_12 1_555 1_555
C20_12 C19_12 1_555 1_555
O10_12 Zn3_8 1_555 1_555
C21_12 C20_12 1_555 1_555
H13_12 C21_12 1_555 1_555
O11_12 S2_12 1_555 1_555
C22_12 C21_12 1_555 1_555
H14_12 C22_12 1_555 1_555
C23_12 C22_12 1_555 1_555
H15_12 C23_12 1_555 1_555
C24_12 C19_12 1_555 1_555
H16_12 C24_12 1_555 1_555
S1_12 C3_12 1_555 1_555
S1_12 O4_12 1_555 1_555
C6_12 C7_12 1_555 1_555
S2_12 C20_12 1_555 1_555
S2_12 O10_12 1_555 1_555
C23_12 C24_12 1_555 1_555
H7_7 C11_7 1_555 1_555
H8_7 C12_7 1_555 1_555
H19_7 C28_7 1_555 1_555
H20_7 C29_7 1_555 1_555
C11_7 C12_7 1_555 1_555
C28_7 C29_7 1_555 1_555
O6_13 Zn1_12 1_555 1_555
C18_13 O6_13 1_555 1_555
Zn5_7 O7_13 1_555 1_555
O7_13 C18_13 1_555 1_555
H2_13 C5_13 1_555 1_555
C6_13 C5_13 1_555 1_555
H3_13 C6_13 1_555 1_555
N4_13 Zn1_13 1_555 1_555
N1_7 Zn1_14 1_555 1_555
N6_4 C15_7 1_555 1_555
C8_7 N1_7 1_555 1_555
H5_7 C8_7 1_555 1_555
C9_7 C8_7 1_555 1_555
H6_7 C9_7 1_555 1_555
C10_7 C9_7 1_555 1_555
C13_7 C10_7 1_555 1_555
C14_7 C13_7 1_555 1_555
H9_7 C14_7 1_555 1_555
C15_7 C14_7 1_555 1_555
H10_7 C15_7 1_555 1_555
C16_7 N6_4 1_555 1_555
C17_7 C13_7 1_555 1_555
Zn3_10 N3_7 1_555 1_555
N3_7 C25_7 1_555 1_555
H14_13 C22_13 1_555 1_555
C23_13 C22_13 1_555 1_555
H15_13 C23_13 1_555 1_555
C25_7 H17_7 1_555 1_555
C26_7 C25_7 1_555 1_555
H18_7 C26_7 1_555 1_555
C27_7 C26_7 1_555 1_555
C30_7 C27_7 1_555 1_555
C31_7 C30_7 1_555 1_555
H21_7 C31_7 1_555 1_555
C34_7 C30_7 1_555 1_555
C16_7 C17_7 1_555 1_555
Zn1_15 O1_13 1_555 1_555
O1_13 C1_13 1_555 1_555
C1_13 O8_2 1_555 1_555
C32_7 N6_2 1_555 1_555
H22_7 C32_7 1_555 1_555
C33_7 N6_2 1_555 1_555
Zn1_17 O1_14 1_555 1_555
O1_14 C1_14 1_555 1_555
N1_8 Zn1_17 1_555 1_555
C1_14 O8 1_555 1_555
C2_13 C1_14 1_555 1_555
S1_13 O3_13 1_555 1_555
C3_13 C2_13 1_555 1_555
O4_13 Zn1_17 1_555 1_555
C4_13 C3_13 1_555 1_555
H1_13 C4_13 1_555 1_555
O5_13 S1_13 1_555 1_555
C7_13 C2_13 1_555 1_555
H4_14 C7_13 1_555 1_555
C8_8 N1_8 1_555 1_555
H5_8 C8_8 1_555 1_555
C9_8 C8_8 1_555 1_555
H6_8 C9_8 1_555 1_555
C10_8 C9_8 1_555 1_555
C11_8 C10_8 1_555 1_555
H7_8 C11_8 1_555 1_555
C12_8 N1_8 1_555 1_555
H8_8 C12_8 1_555 1_555
C13_8 C10_8 1_555 1_555
C14_8 C13_8 1_555 1_555
H9_8 C14_8 1_555 1_555
C17_8 C13_8 1_555 1_555
H12_8 C17_8 1_555 1_555
Zn3_11 N3_8 1_555 1_555
N3_8 C25_8 1_555 1_555
H14_14 C22_14 1_555 1_555
C23_14 C22_14 1_555 1_555
C25_8 H17_8 1_555 1_555
C26_8 C25_8 1_555 1_555
H18_8 C26_8 1_555 1_555
C27_8 C26_8 1_555 1_555
C28_8 C27_8 1_555 1_555
H19_8 C28_8 1_555 1_555
C29_8 N3_8 1_555 1_555
H20_8 C29_8 1_555 1_555
C30_8 C27_8 1_555 1_555
C31_8 C30_8 1_555 1_555
H21_8 C31_8 1_555 1_555
C32_8 N6 1_555 1_555
H22_8 C32_8 1_555 1_555
C33_8 N6 1_555 1_555
H23_7 C33_8 1_555 1_555
C34_8 C30_8 1_555 1_555
H24_8 C34_8 1_555 1_555
S1_13 C3_13 1_555 1_555
S1_13 O4_13 1_555 1_555
C11_8 C12_8 1_555 1_555
C28_8 C29_8 1_555 1_555
C31_8 C32_8 1_555 1_555
C33_8 C34_8 1_555 1_555
H2_14 C5_14 1_555 1_555
C6_14 C5_14 1_555 1_555
H3_14 C6_14 1_555 1_555
O6_14 Zn1_18 1_555 1_555
N4_14 Zn1_18 1_555 1_555
C18_14 O6_14 1_555 1_555
Zn5_7 O7_14 1_555 1_555
O7_14 C18_14 1_555 1_555
C19_13 C18_14 1_555 1_555
S2_13 O9_13 1_555 1_555
C20_13 C19_13 1_555 1_555
O10_13 Zn1_18 1_555 1_555
C21_13 C20_13 1_555 1_555
H13_13 C21_13 1_555 1_555
O11_13 S2_13 1_555 1_555
C24_13 C19_13 1_555 1_555
H16_14 C24_13 1_555 1_555
S2_13 C20_13 1_555 1_555
S2_13 O10_13 1_555 1_555
N6_3 C15_8 1_555 1_555
H10_8 C15_8 1_555 1_555
C16_8 N6_3 1_555 1_555
H11_8 C16_8 1_555 1_555
S1_14 O3_14 1_555 1_555
C3_14 C2_14 1_555 1_555
O4_14 Zn3_9 1_555 1_555
C4_14 C3_14 1_555 1_555
H1_14 C4_14 1_555 1_555
O5_14 S1_14 1_555 1_555
C5_15 C4_14 1_555 1_555
H2_15 C5_15 1_555 1_555
C6_15 C5_15 1_555 1_555
H3_15 C6_15 1_555 1_555
C7_14 C2_14 1_555 1_555
O6_15 Zn3_9 1_555 1_555
N4_15 Zn3_9 1_555 1_555
C18_15 O6_15 1_555 1_555
Zn5_8 O7_15 1_555 1_555
O7_15 C18_15 1_555 1_555
S1_14 C3_14 1_555 1_555
S1_14 O4_14 1_555 1_555
C6_15 C7_14 1_555 1_555
Zn3_10 O1_15 1_555 1_555
O1_15 C1_15 1_555 1_555
C1_15 O8_4 1_555 1_555
S2_14 O9_14 1_555 1_555
C20_14 C19_14 1_555 1_555
O10_14 Zn3_10 1_555 1_555
C21_14 C20_14 1_555 1_555
H13_14 C21_14 1_555 1_555
O11_14 S2_14 1_555 1_555
C22_15 C21_14 1_555 1_555
H14_15 C22_15 1_555 1_555
C23_15 C22_15 1_555 1_555
C24_14 C19_14 1_555 1_555
S2_14 C20_14 1_555 1_555
S2_14 O10_14 1_555 1_555
C23_15 C24_14 1_555 1_555
O6_16 Zn3_11 1_555 1_555
C18_16 O6_16 1_555 1_555
Zn5_8 O7_16 1_555 1_555
O7_16 C18_16 1_555 1_555
C19_15 C18_16 1_555 1_555
S2_15 O9_15 1_555 1_555
C20_15 C19_15 1_555 1_555
O10_15 Zn3_11 1_555 1_555
C21_15 C20_15 1_555 1_555
H13_15 C21_15 1_555 1_555
O11_15 S2_15 1_555 1_555
C22_16 C21_15 1_555 1_555
H14_16 C22_16 1_555 1_555
C23_16 C22_16 1_555 1_555
H15_16 C23_16 1_555 1_555
C24_15 C19_15 1_555 1_555
H16_16 C24_15 1_555 1_555
S2_15 C20_15 1_555 1_555
S2_15 O10_15 1_555 1_555
C23_16 C24_15 1_555 1_555
Zn3_12 O1_16 1_555 1_555
O1_16 C1_16 1_555 1_555
C1_16 O8_3 1_555 1_555
C2_15 C1_16 1_555 1_555
S1_15 O3_15 1_555 1_555
C3_15 C2_15 1_555 1_555
O4_15 Zn3_12 1_555 1_555
C4_15 C3_15 1_555 1_555
H1_15 C4_15 1_555 1_555
O5_15 S1_15 1_555 1_555
C5_16 C4_15 1_555 1_555
H2_16 C5_16 1_555 1_555
C6_16 C5_16 1_555 1_555
H3_16 C6_16 1_555 1_555
C7_15 C2_15 1_555 1_555
H4_16 C7_15 1_555 1_555
N4_16 Zn3_12 1_555 1_555
S1_15 C3_15 1_555 1_555
S1_15 O4_15 1_555 1_555
C6_16 C7_15 1_555 1_555
N2_5 C15_9 1_555 1_555
C8_9 N4 1_555 1_555
H5_9 C8_9 1_555 1_555
C9_9 C8_9 1_555 1_555
H6_9 C9_9 1_555 1_555
C10_9 C9_9 1_555 1_555
C11_9 C10_9 1_555 1_555
H7_9 C11_9 1_555 1_555
C12_9 N4 1_555 1_555
H8_9 C12_9 1_555 1_555
C13_9 C10_9 1_555 1_555
C14_9 C13_9 1_555 1_555
H9_9 C14_9 1_555 1_555
C15_9 C14_9 1_555 1_555
H10_9 C15_9 1_555 1_555
C16_9 N2_5 1_555 1_555
H11_9 C16_9 1_555 1_555
C17_9 C13_9 1_555 1_555
H12_9 C17_9 1_555 1_555
N4_7 C25_9 1_555 1_555
Zn5_4 N2_5 1_555 1_555
N5_5 Zn5 1_555 1_555
N6_9 Zn5 1_555 1_555
C25_9 H17_9 1_555 1_555
C26_9 C25_9 1_555 1_555
H18_9 C26_9 1_555 1_555
C27_9 C26_9 1_555 1_555
C28_9 C27_9 1_555 1_555
H19_9 C28_9 1_555 1_555
C29_9 N4_7 1_555 1_555
H20_9 C29_9 1_555 1_555
C30_9 C27_9 1_555 1_555
C31_9 C30_9 1_555 1_555
H21_9 C31_9 1_555 1_555
C32_9 N5_5 1_555 1_555
H22_9 C32_9 1_555 1_555
C33_9 N5_5 1_555 1_555
H23_8 C33_9 1_555 1_555
C34_9 C30_9 1_555 1_555
H24_9 C34_9 1_555 1_555
C11_9 C12_9 1_555 1_555
C16_9 C17_9 1_555 1_555
C28_9 C29_9 1_555 1_555
C31_9 C32_9 1_555 1_555
C33_9 C34_9 1_555 1_555
N2_6 C15_10 1_555 1_555
C8_10 N4_14 1_555 1_555
H5_10 C8_10 1_555 1_555
C9_10 C8_10 1_555 1_555
H6_10 C9_10 1_555 1_555
C10_10 C9_10 1_555 1_555
C11_10 C10_10 1_555 1_555
H7_10 C11_10 1_555 1_555
C12_10 N4_14 1_555 1_555
H8_10 C12_10 1_555 1_555
C13_10 C10_10 1_555 1_555
C14_10 C13_10 1_555 1_555
H9_10 C14_10 1_555 1_555
C15_10 C14_10 1_555 1_555
H10_10 C15_10 1_555 1_555
C16_10 N2_6 1_555 1_555
H11_10 C16_10 1_555 1_555
C17_10 C13_10 1_555 1_555
H12_10 C17_10 1_555 1_555
N4_12 C25_10 1_555 1_555
Zn5_6 N2_6 1_555 1_555
N5_6 Zn5_7 1_555 1_555
N6_10 Zn5_7 1_555 1_555
C25_10 H17_10 1_555 1_555
C26_10 C25_10 1_555 1_555
H18_10 C26_10 1_555 1_555
C27_10 C26_10 1_555 1_555
C28_10 C27_10 1_555 1_555
H19_10 C28_10 1_555 1_555
C29_10 N4_12 1_555 1_555
H20_10 C29_10 1_555 1_555
C30_10 C27_10 1_555 1_555
C31_10 C30_10 1_555 1_555
H21_10 C31_10 1_555 1_555
C32_10 N5_6 1_555 1_555
H22_10 C32_10 1_555 1_555
C33_10 N5_6 1_555 1_555
H23_9 C33_10 1_555 1_555
C34_10 C30_10 1_555 1_555
H24_10 C34_10 1_555 1_555
C11_10 C12_10 1_555 1_555
C16_10 C17_10 1_555 1_555
C28_10 C29_10 1_555 1_555
C31_10 C32_10 1_555 1_555
C33_10 C34_10 1_555 1_555
N6_11 Zn5_4 1_555 1_555
N6_12 Zn5_6 1_555 1_555
N5_7 Zn5_3 1_555 1_555
N6_13 Zn5_3 1_555 1_555
C32_11 N5_7 1_555 1_555
H22_11 C32_11 1_555 1_555
C33_11 N5_7 1_555 1_555
H23_10 C33_11 1_555 1_555
N2_7 C15_11 1_555 1_555
C8_11 N4_5 1_555 1_555
H5_11 C8_11 1_555 1_555
C9_11 C8_11 1_555 1_555
H6_11 C9_11 1_555 1_555
C10_11 C9_11 1_555 1_555
C11_11 C10_11 1_555 1_555
H7_11 C11_11 1_555 1_555
C12_11 N4_5 1_555 1_555
H8_11 C12_11 1_555 1_555
C13_11 C10_11 1_555 1_555
C14_11 C13_11 1_555 1_555
H9_11 C14_11 1_555 1_555
C15_11 C14_11 1_555 1_555
H10_11 C15_11 1_555 1_555
C16_11 N2_7 1_555 1_555
H11_11 C16_11 1_555 1_555
C17_11 C13_11 1_555 1_555
H12_11 C17_11 1_555 1_555
N4_3 C25_11 1_555 1_555
Zn5_2 N2_7 1_555 1_555
C25_11 H17_11 1_555 1_555
C26_11 C25_11 1_555 1_555
H18_11 C26_11 1_555 1_555
C27_11 C26_11 1_555 1_555
C28_11 C27_11 1_555 1_555
H19_11 C28_11 1_555 1_555
C29_11 N4_3 1_555 1_555
H20_11 C29_11 1_555 1_555
C30_11 C27_11 1_555 1_555
C31_11 C30_11 1_555 1_555
H21_11 C31_11 1_555 1_555
C34_11 C30_11 1_555 1_555
H24_11 C34_11 1_555 1_555
C11_11 C12_11 1_555 1_555
C16_11 C17_11 1_555 1_555
C28_11 C29_11 1_555 1_555
N2_8 C15_12 1_555 1_555
H10_12 C15_12 1_555 1_555
C16_12 N2_8 1_555 1_555
H11_12 C16_12 1_555 1_555
Zn5_8 N2_8 1_555 1_555
C8_12 N4_10 1_555 1_555
H5_12 C8_12 1_555 1_555
C9_12 C8_12 1_555 1_555
H6_12 C9_12 1_555 1_555
C10_12 C9_12 1_555 1_555
C11_12 C10_12 1_555 1_555
H7_12 C11_12 1_555 1_555
C12_12 N4_10 1_555 1_555
H8_12 C12_12 1_555 1_555
C13_12 C10_12 1_555 1_555
C14_12 C13_12 1_555 1_555
H9_12 C14_12 1_555 1_555
C17_12 C13_12 1_555 1_555
H12_12 C17_12 1_555 1_555
N4_16 C25_12 1_555 1_555
N5_8 Zn5_5 1_555 1_555
N6_14 Zn5_5 1_555 1_555
C25_12 H17_12 1_555 1_555
C26_12 C25_12 1_555 1_555
H18_12 C26_12 1_555 1_555
C27_12 C26_12 1_555 1_555
C28_12 C27_12 1_555 1_555
H19_12 C28_12 1_555 1_555
C29_12 N4_16 1_555 1_555
H20_12 C29_12 1_555 1_555
C30_12 C27_12 1_555 1_555
C31_12 C30_12 1_555 1_555
H21_12 C31_12 1_555 1_555
C32_12 N5_8 1_555 1_555
H22_12 C32_12 1_555 1_555
C33_12 N5_8 1_555 1_555
H23_11 C33_12 1_555 1_555
C34_12 C30_12 1_555 1_555
H24_12 C34_12 1_555 1_555
C11_12 C12_12 1_555 1_555
C28_12 C29_12 1_555 1_555
C31_12 C32_12 1_555 1_555
C33_12 C34_12 1_555 1_555
N6_15 Zn5_2 1_555 1_555
N6_16 Zn5_8 1_555 1_555
N6_16 C15_13 1_555 1_555
C8_13 N4_9 1_555 1_555
H5_13 C8_13 1_555 1_555
C9_13 C8_13 1_555 1_555
H6_13 C9_13 1_555 1_555
C10_13 C9_13 1_555 1_555
C13_13 C10_13 1_555 1_555
C14_13 C13_13 1_555 1_555
H9_13 C14_13 1_555 1_555
C15_13 C14_13 1_555 1_555
H10_13 C15_13 1_555 1_555
C16_13 N6_16 1_555 1_555
C17_13 C13_13 1_555 1_555
N4_15 C25_13 1_555 1_555
C25_13 H17_13 1_555 1_555
C26_13 C25_13 1_555 1_555
H18_13 C26_13 1_555 1_555
C27_13 C26_13 1_555 1_555
C30_13 C27_13 1_555 1_555
C31_13 C30_13 1_555 1_555
H21_13 C31_13 1_555 1_555
C32_13 N6_14 1_555 1_555
H22_13 C32_13 1_555 1_555
C33_13 N6_14 1_555 1_555
C34_13 C30_13 1_555 1_555
C16_13 C17_13 1_555 1_555
C31_13 C32_13 1_555 1_555
C33_13 C34_13 1_555 1_555
H7_13 C11_13 1_555 1_555
H8_13 C12_13 1_555 1_555
H19_13 C28_13 1_555 1_555
H20_13 C29_13 1_555 1_555
C11_13 C12_13 1_555 1_555
C28_13 C29_13 1_555 1_555
N6_15 C15_14 1_555 1_555
C8_14 N4_6 1_555 1_555
H5_14 C8_14 1_555 1_555
C9_14 C8_14 1_555 1_555
H6_14 C9_14 1_555 1_555
C10_14 C9_14 1_555 1_555
C11_14 C10_14 1_555 1_555
H7_14 C11_14 1_555 1_555
C12_14 N4_6 1_555 1_555
H8_14 C12_14 1_555 1_555
C13_14 C10_14 1_555 1_555
C14_14 C13_14 1_555 1_555
H9_14 C14_14 1_555 1_555
C15_14 C14_14 1_555 1_555
H10_14 C15_14 1_555 1_555
C16_14 N6_15 1_555 1_555
H11_14 C16_14 1_555 1_555
C17_14 C13_14 1_555 1_555
H12_14 C17_14 1_555 1_555
N4_4 C25_14 1_555 1_555
C25_14 H17_14 1_555 1_555
C26_14 C25_14 1_555 1_555
H18_14 C26_14 1_555 1_555
C27_14 C26_14 1_555 1_555
C28_14 C27_14 1_555 1_555
H19_14 C28_14 1_555 1_555
C29_14 N4_4 1_555 1_555
H20_14 C29_14 1_555 1_555
C30_14 C27_14 1_555 1_555
C31_14 C30_14 1_555 1_555
H21_14 C31_14 1_555 1_555
C32_14 N6_13 1_555 1_555
H22_14 C32_14 1_555 1_555
C33_14 N6_13 1_555 1_555
H23_13 C33_14 1_555 1_555
C34_14 C30_14 1_555 1_555
H24_14 C34_14 1_555 1_555
C11_14 C12_14 1_555 1_555
C16_14 C17_14 1_555 1_555
C28_14 C29_14 1_555 1_555
C31_14 C32_14 1_555 1_555
C33_14 C34_14 1_555 1_555
C32_15 N6_10 1_555 1_555
H22_15 C32_15 1_555 1_555
C33_15 N6_10 1_555 1_555
N6_12 C15_15 1_555 1_555
C8_15 N4_13 1_555 1_555
H5_15 C8_15 1_555 1_555
C9_15 C8_15 1_555 1_555
H6_15 C9_15 1_555 1_555
C10_15 C9_15 1_555 1_555
C13_15 C10_15 1_555 1_555
C14_15 C13_15 1_555 1_555
H9_15 C14_15 1_555 1_555
C15_15 C14_15 1_555 1_555
H10_15 C15_15 1_555 1_555
C16_15 N6_12 1_555 1_555
C17_15 C13_15 1_555 1_555
N4_11 C25_15 1_555 1_555
C25_15 H17_15 1_555 1_555
C26_15 C25_15 1_555 1_555
H18_15 C26_15 1_555 1_555
C27_15 C26_15 1_555 1_555
C30_15 C27_15 1_555 1_555
C31_15 C30_15 1_555 1_555
H21_15 C31_15 1_555 1_555
C34_15 C30_15 1_555 1_555
C16_15 C17_15 1_555 1_555
H7_15 C11_15 1_555 1_555
H8_15 C12_15 1_555 1_555
H19_15 C28_15 1_555 1_555
H20_15 C29_15 1_555 1_555
C11_15 C12_15 1_555 1_555
C28_15 C29_15 1_555 1_555
N6_11 C15_16 1_555 1_555
H10_16 C15_16 1_555 1_555
C16_16 N6_11 1_555 1_555
H11_16 C16_16 1_555 1_555
C8_16 N4_2 1_555 1_555
H5_16 C8_16 1_555 1_555
C9_16 C8_16 1_555 1_555
H6_16 C9_16 1_555 1_555
C10_16 C9_16 1_555 1_555
C11_16 C10_16 1_555 1_555
H7_16 C11_16 1_555 1_555
C12_16 N4_2 1_555 1_555
H8_16 C12_16 1_555 1_555
C13_16 C10_16 1_555 1_555
C14_16 C13_16 1_555 1_555
H9_16 C14_16 1_555 1_555
C17_16 C13_16 1_555 1_555
H12_16 C17_16 1_555 1_555
N4_8 C25_16 1_555 1_555
C25_16 H17_16 1_555 1_555
C26_16 C25_16 1_555 1_555
H18_16 C26_16 1_555 1_555
C27_16 C26_16 1_555 1_555
C28_16 C27_16 1_555 1_555
H19_16 C28_16 1_555 1_555
C29_16 N4_8 1_555 1_555
H20_16 C29_16 1_555 1_555
C30_16 C27_16 1_555 1_555
C31_16 C30_16 1_555 1_555
H21_16 C31_16 1_555 1_555
C32_16 N6_9 1_555 1_555
H22_16 C32_16 1_555 1_555
C33_16 N6_9 1_555 1_555
H23_14 C33_16 1_555 1_555
C34_16 C30_16 1_555 1_555
H24_16 C34_16 1_555 1_555
C11_16 C12_16 1_555 1_555
C28_16 C29_16 1_555 1_555
C31_16 C32_16 1_555 1_555
C33_16 C34_16 1_555 1_555
S1_16 O3_16 1_555 1_555
C3_16 C2_16 1_555 1_555
O4_16 Zn1_19 1_555 1_555
C4_16 C3_16 1_555 1_555
H1_16 C4_16 1_555 1_555
O5_16 S1_16 1_555 1_555
C7_16 C2_16 1_555 1_555
S1_16 C3_16 1_555 1_555
S1_16 O4_16 1_555 1_555
S2_16 O9_16 1_555 1_555
C20_16 C19_16 1_555 1_555
O10_16 Zn1_20 1_555 1_555
C21_16 C20_16 1_555 1_555
H13_16 C21_16 1_555 1_555
O11_16 S2_16 1_555 1_555
C24_16 C19_16 1_555 1_555
S2_16 C20_16 1_555 1_555
S2_16 O10_16 1_555 1_555

#END
