
###############################################################################
#
# This file contains modified crystal structure data generated from the
# MOF subset of the Cambridge Structural Database (CSD) v543 
# hosted by the Cambridge Crystallographic Data Centre (CCDC).
#
# This work is licensed under the Creative Commons
# Attribution-NonCommercial-ShareAlike 4.0 International License.
# To view a copy of this license, visit
# http://creativecommons.org/licenses/by-nc-sa/4.0/
# or send a letter to
# Creative Commons, PO Box 1866, Mountain View, CA 94042, USA.
#
# CIF created using the CSD Python API on 29 September 2022
# The structure has been converted into the P1 space group
# The structure has a 3D framework
# The original CSD entry PELGOE is in the trigonal crystal system
# The original CSD entry PELGOE is in a Sohncke space group
# The framework has been calculated to contain at least 10.0% void space
# The void calculation uses a probe of radius 1.32A, grid spacing 0.4
#
###############################################################################

data_PELGOE
_chemical_formula_moiety         '(C112 H84 Co8 N22 O36 S6)n'
_symmetry_cell_setting           triclinic
_symmetry_space_group_name_H-M   'P 1'
_symmetry_Int_Tables_number      1
_space_group_name_Hall           'P 1'
loop_
_symmetry_equiv_pos_site_id
_symmetry_equiv_pos_as_xyz
1 x,y,z
_cell_length_a                   11.4284(7)
_cell_length_b                   11.4284(7)
_cell_length_c                   30.743(4)
_cell_angle_alpha                90
_cell_angle_beta                 90
_cell_angle_gamma                120
_cell_volume                     3477.34
loop_
_atom_site_label
_atom_site_type_symbol
_atom_site_fract_x
_atom_site_fract_y
_atom_site_fract_z
Co2 Co 0.08570(4) 0.08570(4) 0.0000
N6 N 0.2741(3) 0.2741(3) 0.0000
O8 O 0.0364(2) 0.1044(2) 0.06328(7)
Co2_2 Co 0.08570(4) 0.08570(4) 1.0000
C3 C 0.5269(4) 0.1556(4) 0.97264(14)
H1 H 0.5585 0.1307 0.9976
O1 O 0.1044(2) 0.0364(2) 0.93672(7)
C4 C 0.1957(3) 0.0506(3) 0.91034(10)
C5 C 0.3428(3) 0.1179(3) 0.92503(11)
O4 O 0.1744(2) 0.0182(2) 0.87134(7)
C8 C 0.3887(3) 0.0846(3) 0.96240(11)
C9 C 0.4363(4) 0.2218(4) 0.89825(13)
H4 H 0.4065 0.2426 0.8720
C10 C 0.5711(4) 0.2943(4) 0.90943(16)
H5 H 0.6326 0.3670 0.8915
O6 O 0.1341(3) 0.0059(3) 0.77910(9)
H6 H 0.2069 0.0073 0.7858
C18 C 0.6178(4) 0.2618(5) 0.94675(16)
H14 H 0.7107 0.3117 0.9544
N5 N -0.0000 0.1262(3) 0.8333
N6_2 N 0.2741(3) 0.2741(3) 1.0000
O2 O 0.1942(3) 0.9894(2) 0.02097(8)
O3 O 0.3677(3) 0.9290(3) 0.02686(10)
Co1 Co -0.0000 0.93788(4) 0.8333
S1 S 0.27906(10) 0.94652(9) 0.99704(3)
C1 C 0.0000 0.5026(4) 0.8333
O5 O 0.1998(3) 0.8328(3) 0.96852(10)
C11 C 0.0000 0.3719(4) 0.8333
H7 H 0.0968 0.9523 0.7579
C14 C 0.0194(5) 0.5762(4) 0.87122(12)
H10 H 0.0313 0.5429 0.8982
N4 N -0.0000 0.7478(3) 0.8333
C17 C 0.0215(5) 0.6988(4) 0.86958(12)
H13 H 0.0390 0.7496 0.8956
C28 C 0.0139(5) 0.3168(6) 0.79510(11)
H22 H 0.0237 0.3616 0.7682
C29 C 0.0135(4) 0.1944(6) 0.79634(11)
H23 H 0.0233 0.1578 0.7698
Co5 Co 0.91430(4) 0.00000(6) 0.6667
N5_2 N 1.0000 0.1262(3) 0.8333
O10 O 0.9894(2) 0.1942(3) 0.97903(8)
N1 N 0.8944(3) 0.8944(3) 0.0000
C2 C 0.5187(5) 0.5187(5) 0.0000
C6 C 0.6524(4) 0.7726(4) 0.00069(18)
H2 H 0.5707 0.7753 0.0007
C7 C 0.7774(4) 0.8930(4) 0.00138(16)
H3 H 0.7784 0.9766 0.0029
C15 C 0.4917(4) 0.4210(4) 0.03112(14)
H11 H 0.5566 0.4351 0.0528
C16 C 0.3683(4) 0.3024(4) 0.03005(13)
H12 H 0.3498 0.2372 0.0521
C19 C 0.6492(4) 0.6492(4) 0.0000
Co1_2 Co 1.0000 0.93788(4) 0.8333
N1_2 N 0.8944(3) 0.8944(3) 1.0000
C1_2 C 1.0000 0.5026(4) 0.8333
C2_2 C 0.5187(5) 0.5187(5) 1.0000
C11_2 C 1.0000 0.3719(4) 0.8333
C12 C 0.9861(5) 0.3029(4) 0.87157(11)
H8 H 0.9763 0.3379 0.8985
C13 C 0.9865(4) 0.1809(4) 0.87033(11)
H9 H 0.9767 0.1345 0.8969
N4_2 N 1.0000 0.7478(3) 0.8333
C19_2 C 0.6492(4) 0.6492(4) 1.0000
Co5_2 Co 0.91430(4) 1.00000(6) 0.6667
S2 S 0.72094(10) 0.66746(13) 0.66963(3)
C20 C 0.4731(4) 0.6287(6) 0.69403(14)
H15 H 0.4415 0.5722 0.6691
O7 O 0.8956(2) 0.9320(3) 0.72995(7)
O9 O 0.8058(3) 0.7952(4) 0.64570(8)
O11 O 0.6323(3) 0.5613(4) 0.63981(10)
C21 C 0.8043(3) 0.8549(4) 0.75633(10)
C22 C 0.6572(3) 0.7751(4) 0.74164(11)
C23 C 0.7726(4) 0.6524(4) 0.99931(18)
H16 H 0.7753 0.5707 0.9993
C24 C 0.8930(4) 0.7774(4) 0.99862(16)
H17 H 0.9766 0.7784 0.9971
O12 O 0.8256(2) 0.8438(3) 0.79533(7)
O13 O 0.8002(3) 0.6330(4) 0.69815(10)
C25 C 0.6113(3) 0.6959(4) 0.70427(11)
C26 C 0.5637(4) 0.7855(6) 0.76842(13)
H18 H 0.5935 0.8361 0.7947
C27 C 0.4289(4) 0.7232(6) 0.75724(16)
H19 H 0.3674 0.7344 0.7752
O14 O 0.8659(3) 0.8718(4) 0.88757(9)
H20 H 0.7931 0.8004 0.8809
H21 H 0.9032 0.8555 0.9088
C30 C 0.9806(5) 0.5568(6) 0.79545(12)
H24 H 0.9687 0.5116 0.7685
C31 C 0.4210(4) 0.4917(4) 0.96888(14)
H25 H 0.4351 0.5566 0.9472
C32 C 0.3024(4) 0.3683(4) 0.96995(13)
H26 H 0.2372 0.3498 0.9479
C33 C 0.9785(5) 0.6773(6) 0.79709(12)
H27 H 0.9610 0.7106 0.7711
C34 C 0.3822(4) 0.6440(6) 0.71992(16)
H28 H 0.2893 0.6010 0.7123
Co3 Co 0.06212(4) 0.06212(4) 0.5000
N1_3 N 0.1056(3) -0.0000(4) 0.6667
N2 N 0.8738(3) 0.8738(3) 0.5000
N3 N 0.7259(3) -0.0000(4) 0.6667
S1_2 S 0.05348(9) 0.33254(13) 0.66371(3)
C1_3 C 0.4974(4) 0.4974(4) 0.5000
C2_3 C 0.4813(5) -0.0000(7) 0.6667
O2_2 O 0.0106(2) 0.2048(4) 0.68764(8)
O3_2 O 0.0710(3) 0.4387(4) 0.69353(10)
O5_2 O 0.1672(3) 0.3670(4) 0.63519(10)
C11_3 C 0.6281(4) 0.6281(4) 0.5000
H7_2 H 0.0477 0.1445 0.4246
C12_2 C 0.6971(4) 0.6832(6) 0.53824(11)
H8_2 H 0.6621 0.6384 0.5652
C13_2 C 0.8191(4) 0.8056(6) 0.53700(11)
H9_2 H 0.8655 0.8422 0.5636
C14_2 C 0.4238(4) 0.4432(6) 0.53789(12)
H10_2 H 0.4571 0.4884 0.5649
N4_3 N 0.2522(3) 0.2522(3) 0.5000
C15_2 C 0.5790(4) 0.0707(6) 0.69779(14)
H11_2 H 0.5649 0.1215 0.7195
C16_2 C 0.6976(4) 0.0659(6) 0.69672(13)
H12_2 H 0.7628 0.1126 0.7188
C17_2 C 0.3012(4) 0.3227(6) 0.53625(12)
H13_2 H 0.2504 0.2894 0.5623
C19_3 C 0.3508(4) -0.0000(6) 0.6667
S2_2 S 0.33254(13) 0.05348(16) 0.33629(3)
O9_2 O 0.2048(4) 0.0106(5) 0.31236(8)
O11_2 O 0.4387(4) 0.0710(5) 0.30647(10)
C23_2 C 0.3476(4) 0.1202(6) 0.66598(18)
H16_2 H 0.4293 0.2046 0.6660
C24_2 C 0.2226(4) 0.1156(6) 0.66529(16)
H17_2 H 0.2216 0.1982 0.6638
O13_2 O 0.3670(4) 0.1672(5) 0.36481(10)
H21_2 H 0.1445 0.0477 0.5754
C28_2 C 0.6832(6) 0.6971(8) 0.46176(11)
H22_2 H 0.6384 0.6621 0.4348
C29_2 C 0.8056(6) 0.8191(7) 0.46300(11)
H23_2 H 0.8422 0.8655 0.4364
C30_2 C 0.4432(6) 0.4238(8) 0.46211(12)
H24_2 H 0.4884 0.4571 0.4351
C33_2 C 0.3227(6) 0.3012(8) 0.46375(12)
H27_2 H 0.2894 0.2504 0.4377
N1_4 N 0.1056(3) 1.0000(4) 0.6667
N3_2 N 0.7259(3) 1.0000(4) 0.6667
C2_4 C 0.4813(5) 1.0000(7) 0.6667
C6_2 C 0.2274(4) 0.8798(6) 0.66736(18)
H2_2 H 0.2247 0.7954 0.6674
C7_2 C 0.1070(4) 0.8844(6) 0.66805(16)
H3_2 H 0.0234 0.8018 0.6696
C19_4 C 0.3508(4) 1.0000(6) 0.6667
Co5_3 Co 0.00000(6) 0.91430(7) 0.3333
C20_2 C 0.3713(6) 0.8444(7) 0.36069(14)
H15_2 H 0.4278 0.8693 0.3357
O7_2 O 0.0680(3) 0.9636(4) 0.39661(7)
C21_2 C 0.1451(4) 0.9494(5) 0.42299(10)
C22_2 C 0.2249(4) 0.8821(5) 0.40830(11)
O12_2 O 0.1562(3) 0.9818(4) 0.46199(7)
C25_2 C 0.3041(4) 0.9154(5) 0.37093(11)
C26_2 C 0.2145(6) 0.7782(7) 0.43508(13)
H18_2 H 0.1639 0.7574 0.4613
C27_2 C 0.2768(6) 0.7057(7) 0.42390(16)
H19_2 H 0.2656 0.6330 0.4418
O14_2 O 0.1282(4) 0.9941(5) 0.55423(9)
H20_2 H 0.1996 0.9927 0.5475
C31_2 C 0.5083(4) 0.9293(6) 0.63555(14)
H25_2 H 0.4434 0.8785 0.6139
C32_2 C 0.6317(4) 0.9341(6) 0.63662(13)
H26_2 H 0.6502 0.8874 0.6146
C34_2 C 0.3560(6) 0.7382(7) 0.38658(16)
H28_2 H 0.3990 0.6883 0.3789
C3_2 C 0.8444(4) 0.3713(6) 0.63931(14)
H1_2 H 0.8693 0.4278 0.6643
O1_2 O 0.9636(2) 0.0680(3) 0.60339(7)
C4_2 C 0.9494(3) 0.1451(4) 0.57701(10)
C5_2 C 0.8821(3) 0.2249(4) 0.59170(11)
O4_2 O 0.9818(2) 0.1562(3) 0.53801(7)
C8_2 C 0.9154(3) 0.3041(4) 0.62907(11)
C9_2 C 0.7782(4) 0.2145(6) 0.56492(13)
H4_2 H 0.7574 0.1639 0.5387
C10_2 C 0.7057(4) 0.2768(6) 0.57610(16)
H5_2 H 0.6330 0.2656 0.5582
O6_2 O 0.9941(3) 0.1282(4) 0.44577(9)
H6_2 H 0.9927 0.1996 0.4525
C18_2 C 0.7382(5) 0.3560(6) 0.61342(16)
H14_2 H 0.6883 0.3990 0.6211
Co5_4 Co 1.00000(6) 0.91430(7) 0.3333
N1_5 N 0.0000(4) 0.1056(3) 0.3333
N3_3 N -0.0000(4) 0.7259(3) 0.3333
C2_5 C -0.0000(7) 0.4813(5) 0.3333
C6_3 C 0.1202(6) 0.3476(4) 0.33402(18)
H2_3 H 0.2046 0.4293 0.3340
C7_3 C 0.1156(6) 0.2226(4) 0.33471(16)
H3_3 H 0.1982 0.2216 0.3362
C19_5 C 0.0000(6) 0.3508(4) 0.3333
N5_3 N 0.1262(3) 0.0000 0.1666
C20_3 C 0.1556(7) 0.5269(4) 0.02736(14)
H15_3 H 0.1307 0.5585 0.0024
C21_3 C 0.0506(5) 0.1957(3) 0.08966(10)
C22_3 C 0.1179(5) 0.3428(3) 0.07497(11)
O12_3 O 0.0182(4) 0.1744(2) 0.12866(7)
C25_3 C 0.0846(5) 0.3887(3) 0.03760(11)
C26_3 C 0.2218(7) 0.4363(4) 0.10175(13)
H18_3 H 0.2426 0.4065 0.1280
C27_3 C 0.2943(7) 0.5711(4) 0.09057(16)
H19_3 H 0.3670 0.6326 0.1085
O14_3 O 0.0059(5) 0.1341(3) 0.22090(9)
H20_3 H 0.0073 0.2069 0.2142
C31_3 C 0.0707(6) 0.5790(4) 0.30221(14)
H25_3 H 0.1215 0.5649 0.2805
C32_3 C 0.0659(6) 0.6976(4) 0.30328(13)
H26_3 H 0.1126 0.7628 0.2812
C34_3 C 0.2618(7) 0.6178(4) 0.05325(16)
H28_3 H 0.3117 0.7107 0.0456
N5_4 N 0.1262(3) 1.0000 0.1666
Co1_3 Co 0.93788(4) 0.0000 0.1666
N1_6 N 1.0000(4) 0.1056(3) 0.3333
N3_4 N 1.0000(4) 0.7259(3) 0.3333
C1_4 C 0.5026(4) -0.0000 0.1666
C2_6 C 1.0000(7) 0.4813(5) 0.3333
C11_4 C 0.3719(4) -0.0000 0.1666
C12_3 C 0.3168(6) 0.0139(5) 0.20490(11)
H8_3 H 0.3616 0.0237 0.2318
C13_3 C 0.1944(6) 0.0135(4) 0.20366(11)
H9_3 H 0.1578 0.0233 0.2302
N4_4 N 0.7478(3) 0.0000 0.1666
C15_3 C 0.9293(6) 0.5083(4) 0.36445(14)
H11_3 H 0.8785 0.4434 0.3861
C16_3 C 0.9341(6) 0.6317(4) 0.36338(13)
H12_3 H 0.8874 0.6502 0.3854
C19_6 C 1.0000(6) 0.3508(4) 0.3333
S2_3 S 0.94652(16) 0.27906(10) 0.00296(3)
C23_3 C 0.8798(6) 0.2274(4) 0.33264(18)
H16_3 H 0.7954 0.2247 0.3326
C24_3 C 0.8844(6) 0.1070(4) 0.33195(16)
H17_3 H 0.8018 0.0234 0.3304
O13_3 O 0.8328(5) 0.1998(3) 0.03148(10)
H21_3 H 0.9523 0.0968 0.2421
C30_3 C 0.5762(8) 0.0194(5) 0.12878(12)
H24_3 H 0.5429 0.0313 0.1018
C33_3 C 0.6988(8) 0.0215(5) 0.13042(12)
H27_3 H 0.7496 0.0390 0.1044
O11_3 O 0.9290(5) 0.3677(3) 0.97314(10)
Co1_4 Co 0.93788(4) 1.0000 0.1666
S1_3 S 0.66746(13) 0.72094(10) 0.33037(3)
C1_5 C 0.5026(4) 1.0000 0.1666
C3_3 C 0.6287(6) 0.4731(4) 0.30597(14)
H1_3 H 0.5722 0.4415 0.3309
O1_3 O 0.9320(3) 0.8956(2) 0.27005(7)
O2_3 O 0.7952(4) 0.8058(3) 0.35430(8)
O3_3 O 0.5613(4) 0.6323(3) 0.36019(10)
C4_3 C 0.8549(4) 0.8043(3) 0.24367(10)
C5_3 C 0.7751(4) 0.6572(3) 0.25836(11)
O4_3 O 0.8438(3) 0.8256(2) 0.20467(7)
O5_3 O 0.6330(4) 0.8002(3) 0.30185(10)
C8_3 C 0.6959(4) 0.6113(3) 0.29573(11)
C9_3 C 0.7855(6) 0.5637(4) 0.23158(13)
H4_3 H 0.8361 0.5935 0.2053
C10_3 C 0.7232(6) 0.4289(4) 0.24276(16)
H5_3 H 0.7344 0.3674 0.2248
C11_5 C 0.3719(4) 1.0000 0.1666
O6_3 O 0.8718(4) 0.8659(3) 0.11243(9)
H6_3 H 0.8004 0.7931 0.1191
H7_3 H 0.8555 0.9032 0.0912
C14_3 C 0.5568(6) 0.9806(5) 0.20455(12)
H10_3 H 0.5116 0.9687 0.2315
N4_5 N 0.7478(3) 1.0000 0.1666
C17_3 C 0.6773(6) 0.9785(5) 0.20291(12)
H13_3 H 0.7106 0.9610 0.2289
C18_3 C 0.6440(6) 0.3822(4) 0.28008(16)
H14_3 H 0.6010 0.2893 0.2877
C28_3 C 0.3029(8) 0.9861(5) 0.12843(11)
H22_3 H 0.3379 0.9763 0.1015
C29_3 C 0.1809(7) 0.9865(4) 0.12967(11)
H23_3 H 0.1345 0.9767 0.1031
loop_
_geom_bond_atom_site_label_1
_geom_bond_atom_site_label_2
_geom_bond_site_symmetry_1
_geom_bond_site_symmetry_2
N6 Co2 1_555 1_555
O8 Co2 1_555 1_555
C3 H1 1_555 1_555
O1 Co2_2 1_555 1_555
C4 O1 1_555 1_555
C5 C4 1_555 1_555
O4 C4 1_555 1_555
C9 C5 1_555 1_555
H4 C9 1_555 1_555
C10 C9 1_555 1_555
H5 C10 1_555 1_555
H6 O6 1_555 1_555
C18 C3 1_555 1_555
H14 C18 1_555 1_555
N6_2 Co2_2 1_555 1_555
C3 C8 1_555 1_555
C5 C8 1_555 1_555
C10 C18 1_555 1_555
C1 C11 1_555 1_555
O5 S1 1_555 1_555
C14 C1 1_555 1_555
H10 C14 1_555 1_555
N4 Co1 1_555 1_555
C17 C14 1_555 1_555
H13 C17 1_555 1_555
C28 C11 1_555 1_555
H22 C28 1_555 1_555
C29 N5 1_555 1_555
H23 C29 1_555 1_555
N4 C17 1_555 1_555
C28 C29 1_555 1_555
N1 C7 1_555 1_555
N6 C16 1_555 1_555
C2 C15 1_555 1_555
C6 H2 1_555 1_555
C7 C6 1_555 1_555
H3 C7 1_555 1_555
C15 H11 1_555 1_555
C16 C15 1_555 1_555
H12 C16 1_555 1_555
C19 C2 1_555 1_555
C6 C19 1_555 1_555
N5_2 C13 1_555 1_555
C1_2 C11_2 1_555 1_555
C11_2 C12 1_555 1_555
C12 H8 1_555 1_555
C13 C12 1_555 1_555
H9 C13 1_555 1_555
N4_2 Co1_2 1_555 1_555
C19_2 C2_2 1_555 1_555
Co5_2 O7 1_555 1_555
S2 O9 1_555 1_555
C20 H15 1_555 1_555
O7 C21 1_555 1_555
O9 Co5_2 1_555 1_555
O11 S2 1_555 1_555
C21 C22 1_555 1_555
C22 C25 1_555 1_555
C23 C19_2 1_555 1_555
H16 C23 1_555 1_555
C24 N1_2 1_555 1_555
H17 C24 1_555 1_555
O12 Co1_2 1_555 1_555
O13 S2 1_555 1_555
C25 S2 1_555 1_555
C26 C22 1_555 1_555
H18 C26 1_555 1_555
C27 C26 1_555 1_555
H19 C27 1_555 1_555
O14 Co1_2 1_555 1_555
H20 O14 1_555 1_555
H21 O14 1_555 1_555
C30 C1_2 1_555 1_555
H24 C30 1_555 1_555
C31 C2_2 1_555 1_555
H25 C31 1_555 1_555
C32 N6_2 1_555 1_555
H26 C32 1_555 1_555
C33 N4_2 1_555 1_555
H27 C33 1_555 1_555
C34 C20 1_555 1_555
H28 C34 1_555 1_555
C20 C25 1_555 1_555
C21 O12 1_555 1_555
C23 C24 1_555 1_555
C27 C34 1_555 1_555
C30 C33 1_555 1_555
C31 C32 1_555 1_555
N2 C13_2 1_555 1_555
N3 C16_2 1_555 1_555
S1_2 O2_2 1_555 1_555
C1_3 C11_3 1_555 1_555
C2_3 C15_2 1_555 1_555
O3_2 S1_2 1_555 1_555
O5_2 S1_2 1_555 1_555
C11_3 C12_2 1_555 1_555
C12_2 H8_2 1_555 1_555
C13_2 C12_2 1_555 1_555
H9_2 C13_2 1_555 1_555
C14_2 C1_3 1_555 1_555
H10_2 C14_2 1_555 1_555
N4_3 Co3 1_555 1_555
C15_2 H11_2 1_555 1_555
C16_2 C15_2 1_555 1_555
H12_2 C16_2 1_555 1_555
C17_2 C14_2 1_555 1_555
H13_2 C17_2 1_555 1_555
C19_3 C2_3 1_555 1_555
Co5 N3 1_555 1_555
S2_2 O9_2 1_555 1_555
O11_2 S2_2 1_555 1_555
C23_2 C19_3 1_555 1_555
H16_2 C23_2 1_555 1_555
C24_2 N1_3 1_555 1_555
H17_2 C24_2 1_555 1_555
O13_2 S2_2 1_555 1_555
C28_2 C11_3 1_555 1_555
H22_2 C28_2 1_555 1_555
C29_2 N2 1_555 1_555
H23_2 C29_2 1_555 1_555
C30_2 C1_3 1_555 1_555
H24_2 C30_2 1_555 1_555
C33_2 N4_3 1_555 1_555
H27_2 C33_2 1_555 1_555
N4_3 C17_2 1_555 1_555
C23_2 C24_2 1_555 1_555
C28_2 C29_2 1_555 1_555
C30_2 C33_2 1_555 1_555
N1_4 C7_2 1_555 1_555
C6_2 H2_2 1_555 1_555
C7_2 C6_2 1_555 1_555
H3_2 C7_2 1_555 1_555
C19_4 C2_4 1_555 1_555
Co5_2 N3_2 1_555 1_555
Co5_3 O7_2 1_555 1_555
C20_2 H15_2 1_555 1_555
O7_2 C21_2 1_555 1_555
C21_2 C22_2 1_555 1_555
C22_2 C25_2 1_555 1_555
C26_2 C22_2 1_555 1_555
H18_2 C26_2 1_555 1_555
C27_2 C26_2 1_555 1_555
H19_2 C27_2 1_555 1_555
H20_2 O14_2 1_555 1_555
C31_2 C2_4 1_555 1_555
H25_2 C31_2 1_555 1_555
C32_2 N3_2 1_555 1_555
H26_2 C32_2 1_555 1_555
C34_2 C20_2 1_555 1_555
H28_2 C34_2 1_555 1_555
C6_2 C19_4 1_555 1_555
C20_2 C25_2 1_555 1_555
C21_2 O12_2 1_555 1_555
C27_2 C34_2 1_555 1_555
C31_2 C32_2 1_555 1_555
C3_2 H1_2 1_555 1_555
O1_2 Co5 1_555 1_555
C4_2 O1_2 1_555 1_555
C5_2 C4_2 1_555 1_555
O4_2 C4_2 1_555 1_555
C9_2 C5_2 1_555 1_555
H4_2 C9_2 1_555 1_555
C10_2 C9_2 1_555 1_555
H5_2 C10_2 1_555 1_555
H6_2 O6_2 1_555 1_555
C18_2 C3_2 1_555 1_555
H14_2 C18_2 1_555 1_555
C3_2 C8_2 1_555 1_555
C5_2 C8_2 1_555 1_555
C10_2 C18_2 1_555 1_555
N1_5 C7_3 1_555 1_555
C6_3 H2_3 1_555 1_555
C7_3 C6_3 1_555 1_555
H3_3 C7_3 1_555 1_555
C19_5 C2_5 1_555 1_555
Co5_3 N3_3 1_555 1_555
C20_3 H15_3 1_555 1_555
O8 C21_3 1_555 1_555
C21_3 C22_3 1_555 1_555
C22_3 C25_3 1_555 1_555
C26_3 C22_3 1_555 1_555
H18_3 C26_3 1_555 1_555
C27_3 C26_3 1_555 1_555
H19_3 C27_3 1_555 1_555
H20_3 O14_3 1_555 1_555
C31_3 C2_5 1_555 1_555
H25_3 C31_3 1_555 1_555
C32_3 N3_3 1_555 1_555
H26_3 C32_3 1_555 1_555
C34_3 C20_3 1_555 1_555
H28_3 C34_3 1_555 1_555
C6_3 C19_5 1_555 1_555
C20_3 C25_3 1_555 1_555
C21_3 O12_3 1_555 1_555
C27_3 C34_3 1_555 1_555
C31_3 C32_3 1_555 1_555
N5_3 C13_3 1_555 1_555
N3_4 C16_3 1_555 1_555
C1_4 C11_4 1_555 1_555
C2_6 C15_3 1_555 1_555
C11_4 C12_3 1_555 1_555
C12_3 H8_3 1_555 1_555
C13_3 C12_3 1_555 1_555
H9_3 C13_3 1_555 1_555
N4_4 Co1_3 1_555 1_555
C15_3 H11_3 1_555 1_555
C16_3 C15_3 1_555 1_555
H12_3 C16_3 1_555 1_555
C19_6 C2_6 1_555 1_555
Co5_4 N3_4 1_555 1_555
C23_3 C19_6 1_555 1_555
H16_3 C23_3 1_555 1_555
C24_3 N1_6 1_555 1_555
H17_3 C24_3 1_555 1_555
O13_3 S2_3 1_555 1_555
C30_3 C1_4 1_555 1_555
H24_3 C30_3 1_555 1_555
C33_3 N4_4 1_555 1_555
H27_3 C33_3 1_555 1_555
C23_3 C24_3 1_555 1_555
C30_3 C33_3 1_555 1_555
Co1_4 O4_3 1_555 1_555
S1_3 O2_3 1_555 1_555
C1_5 C11_5 1_555 1_555
C3_3 H1_3 1_555 1_555
O1_3 Co5_4 1_555 1_555
O2_3 Co5_4 1_555 1_555
O3_3 S1_3 1_555 1_555
C4_3 O1_3 1_555 1_555
C5_3 C4_3 1_555 1_555
O4_3 C4_3 1_555 1_555
O5_3 S1_3 1_555 1_555
C8_3 S1_3 1_555 1_555
C9_3 C5_3 1_555 1_555
H4_3 C9_3 1_555 1_555
C10_3 C9_3 1_555 1_555
H5_3 C10_3 1_555 1_555
O6_3 Co1_4 1_555 1_555
H6_3 O6_3 1_555 1_555
H7_3 O6_3 1_555 1_555
C14_3 C1_5 1_555 1_555
H10_3 C14_3 1_555 1_555
N4_5 Co1_4 1_555 1_555
C17_3 C14_3 1_555 1_555
H13_3 C17_3 1_555 1_555
C18_3 C3_3 1_555 1_555
H14_3 C18_3 1_555 1_555
C28_3 C11_5 1_555 1_555
H22_3 C28_3 1_555 1_555
C29_3 N5_4 1_555 1_555
H23_3 C29_3 1_555 1_555
C3_3 C8_3 1_555 1_555
C5_3 C8_3 1_555 1_555
C10_3 C18_3 1_555 1_555
N4_5 C17_3 1_555 1_555
C28_3 C29_3 1_555 1_555

#END
