
###############################################################################
#
# This file contains modified crystal structure data generated from the
# MOF subset of the Cambridge Structural Database (CSD) v543 
# hosted by the Cambridge Crystallographic Data Centre (CCDC).
#
# This work is licensed under the Creative Commons
# Attribution-NonCommercial-ShareAlike 4.0 International License.
# To view a copy of this license, visit
# http://creativecommons.org/licenses/by-nc-sa/4.0/
# or send a letter to
# Creative Commons, PO Box 1866, Mountain View, CA 94042, USA.
#
# CIF created using the CSD Python API on 29 September 2022
# The structure has been converted into the P1 space group
# The structure has a 3D framework
# The original CSD entry PELKIE is in the tetragonal crystal system
# The framework has been calculated to contain at least 10.0% void space
# The void calculation uses a probe of radius 1.32A, grid spacing 0.4
#
###############################################################################

data_PELKIE
_chemical_formula_moiety         '(C344 H464 Fe16 N32 Na16 O96 S16)n'
_symmetry_cell_setting           triclinic
_symmetry_space_group_name_H-M   'P 1'
_symmetry_Int_Tables_number      1
_space_group_name_Hall           'P 1'
loop_
_symmetry_equiv_pos_site_id
_symmetry_equiv_pos_as_xyz
1 x,y,z
_cell_length_a                   25.3064(3)
_cell_length_b                   25.3064(3)
_cell_length_c                   19.4098(3)
_cell_angle_alpha                90
_cell_angle_beta                 90
_cell_angle_gamma                90
_cell_volume                     12430.3
loop_
_atom_site_label
_atom_site_type_symbol
_atom_site_fract_x
_atom_site_fract_y
_atom_site_fract_z
Fe1 Fe 0.40538(2) 0.64232(2) 0.47944(2)
S1 S 0.31407(3) 0.40791(4) 0.64775(4)
O1 O 0.37396(15) 0.67729(12) 0.61739(14)
O2 O 0.29657(12) 0.61354(13) 0.44869(16)
O3 O 0.51410(10) 0.65847(10) 0.38378(12)
O4 O 0.35405(10) 0.36781(11) 0.65635(14)
O5 O 0.26449(11) 0.38726(12) 0.62197(16)
O6 O 0.30676(12) 0.44087(11) 0.70761(13)
N1 N 0.40964(12) 0.70842(12) 0.42952(14)
N2 N 0.39828(11) 0.52465(11) 0.56262(13)
C1 C 0.38629(17) 0.66565(15) 0.56193(19)
C2 C 0.33918(18) 0.62632(16) 0.45969(18)
C3 C 0.41602(14) 0.74426(15) 0.39506(16)
C4 C 0.42437(17) 0.78858(15) 0.34878(18)
H1 H 0.393456 0.792738 0.318858
H2 H 0.455763 0.781997 0.320482
H3 H 0.429530 0.820898 0.375761
C5 C 0.48698(14) 0.63040(14) 0.42345(16)
C6 C 0.48794(15) 0.63199(14) 0.49999(17)
C7 C 0.45637(15) 0.58840(13) 0.52175(15)
C8 C 0.44562(15) 0.55436(14) 0.58393(15)
H4 H 0.475616 0.530363 0.593562
H5 H 0.438477 0.576156 0.625254
C9 C 0.40153(15) 0.51715(15) 0.48732(15)
H6 H 0.365934 0.514933 0.466369
H7 H 0.421744 0.484891 0.475554
C10 C 0.42986(14) 0.56569(13) 0.46460(15)
C11 C 0.44389(14) 0.59427(13) 0.40383(16)
C12 C 0.52657(16) 0.66461(16) 0.54232(18)
C13 C 0.58342(18) 0.64645(18) 0.5249(2)
H8 H 0.587950 0.609451 0.538618
H9 H 0.608843 0.668510 0.549885
H10 H 0.589460 0.649886 0.475255
C14 C 0.5181(2) 0.65655(19) 0.61980(19)
H11 H 0.481268 0.664620 0.631516
H12 H 0.541633 0.680107 0.645522
H13 H 0.525846 0.619767 0.631907
C15 C 0.52196(19) 0.72298(15) 0.5247(2)
H14 H 0.524887 0.727637 0.474743
H15 H 0.550363 0.742578 0.547649
H16 H 0.487676 0.736351 0.540432
C16 C 0.42891(17) 0.58135(15) 0.32953(16)
C17 C 0.47709(19) 0.55598(18) 0.29559(18)
H17 H 0.507181 0.580267 0.298326
H18 H 0.469195 0.548394 0.247158
H19 H 0.485807 0.523009 0.319501
C18 C 0.3824(2) 0.54279(19) 0.32650(19)
H20 H 0.392739 0.509151 0.347591
H21 H 0.372437 0.536822 0.278340
H22 H 0.352318 0.557687 0.351620
C19 C 0.41499(17) 0.63151(16) 0.28951(18)
H23 H 0.384007 0.648294 0.310451
H24 H 0.407095 0.622359 0.241542
H25 H 0.444952 0.656024 0.290891
C20 C 0.39066(14) 0.47597(14) 0.60142(17)
H26 H 0.391633 0.483708 0.651398
H27 H 0.419602 0.450934 0.590833
C21 C 0.33797(14) 0.45114(15) 0.58290(17)
H28 H 0.341854 0.431206 0.539302
H29 H 0.311688 0.479496 0.575126
Na1 Na 0.58237(5) 0.69004(6) 0.32148(6)
O7 O 0.64595(10) 0.63219(11) 0.34365(14)
O8 O 0.61274(12) 0.76449(11) 0.37803(16)
O9 O 0.55913(11) 0.69324(12) 0.20761(13)
Na2 Na 0.41763(5) 0.30996(6) 0.67852(6)
Na3 Na 0.19004(6) 0.41763(5) 0.67852(6)
Na4 Na 0.30996(6) 0.41763(5) 0.82148(6)
S1_2 S 0.18593(3) 0.09209(4) 0.64775(4)
O4_2 O 0.14595(10) 0.13219(11) 0.65635(14)
O5_2 O 0.23551(11) 0.11274(12) 0.62197(16)
O6_2 O 0.19324(12) 0.05913(11) 0.70761(13)
H7_2 H 0.078256 0.015109 0.475554
C20_2 C 0.10934(14) 0.02403(14) 0.60142(17)
H26_2 H 0.108367 0.016292 0.651398
H27_2 H 0.080398 0.049066 0.590833
C21_2 C 0.16203(14) 0.04886(15) 0.58290(17)
H28_2 H 0.158146 0.068794 0.539302
H29_2 H 0.188312 0.020504 0.575126
Na2_2 Na 0.08237(5) 0.19004(6) 0.67852(6)
Na3_2 Na 0.30996(6) 0.08237(5) 0.67852(6)
Na4_2 Na 0.19004(6) 0.08237(5) 0.82148(6)
O3_2 O 0.98590(10) 0.84153(10) 0.38378(12)
C12_2 C 0.97343(16) 0.83539(16) 0.54232(18)
C13_2 C 0.91658(18) 0.85355(18) 0.5249(2)
H8_2 H 0.912050 0.890549 0.538618
H9_2 H 0.891157 0.831490 0.549885
H10_2 H 0.910540 0.850114 0.475255
C14_2 C 0.9819(2) 0.84345(19) 0.61980(19)
H12_2 H 0.958367 0.819893 0.645522
H13_2 H 0.974154 0.880233 0.631907
C15_2 C 0.97804(19) 0.77702(15) 0.5247(2)
H14_2 H 0.975113 0.772363 0.474743
H15_2 H 0.949637 0.757422 0.547649
H17_2 H 0.992819 0.919733 0.298326
Na1_2 Na 0.91763(5) 0.80996(6) 0.32148(6)
O7_2 O 0.85405(10) 0.86781(11) 0.34365(14)
O8_2 O 0.88726(12) 0.73551(11) 0.37803(16)
O9_2 O 0.94087(11) 0.80676(12) 0.20761(13)
S1_3 S 0.09209(4) 0.31407(3) 0.64775(4)
O4_3 O 0.13219(11) 0.35405(10) 0.65635(14)
O5_3 O 0.11274(12) 0.26449(11) 0.62197(16)
O6_3 O 0.05913(11) 0.30676(12) 0.70761(13)
H7_3 H 0.015109 0.421744 0.475554
C20_3 C 0.02403(14) 0.39066(14) 0.60142(17)
H26_3 H 0.016292 0.391633 0.651398
H27_3 H 0.049066 0.419602 0.590833
C21_3 C 0.04886(15) 0.33797(14) 0.58290(17)
H28_3 H 0.068794 0.341854 0.539302
H29_3 H 0.020504 0.311688 0.575126
Na4_3 Na 0.08237(5) 0.30996(6) 0.82148(6)
Fe1_2 Fe 0.85768(2) 0.40538(2) 0.47944(2)
O1_2 O 0.82271(12) 0.37396(15) 0.61739(14)
O2_2 O 0.88646(13) 0.29657(12) 0.44869(16)
O3_3 O 0.84153(10) 0.51410(10) 0.38378(12)
N1_2 N 0.79158(12) 0.40964(12) 0.42952(14)
N2_2 N 0.97535(11) 0.39828(11) 0.56262(13)
C1_2 C 0.83435(15) 0.38629(17) 0.56193(19)
C2_2 C 0.87368(16) 0.33918(18) 0.45969(18)
C3_2 C 0.75574(15) 0.41602(14) 0.39506(16)
C4_2 C 0.71142(15) 0.42437(17) 0.34878(18)
H1_2 H 0.707262 0.393456 0.318858
H2_2 H 0.718003 0.455763 0.320482
H3_2 H 0.679102 0.429530 0.375761
C5_2 C 0.86960(14) 0.48698(14) 0.42345(16)
C6_2 C 0.86801(14) 0.48794(15) 0.49999(17)
C7_2 C 0.91160(13) 0.45637(15) 0.52175(15)
C8_2 C 0.94564(14) 0.44562(15) 0.58393(15)
H4_2 H 0.969637 0.475616 0.593562
H5_2 H 0.923844 0.438477 0.625254
C9_2 C 0.98285(15) 0.40153(15) 0.48732(15)
H6_2 H 0.985067 0.365934 0.466369
C10_2 C 0.93431(13) 0.42986(14) 0.46460(15)
C11_2 C 0.90573(13) 0.44389(14) 0.40383(16)
C12_3 C 0.83539(16) 0.52657(16) 0.54232(18)
C13_3 C 0.85355(18) 0.58342(18) 0.5249(2)
H8_3 H 0.890549 0.587950 0.538618
H9_3 H 0.831490 0.608843 0.549885
H10_3 H 0.850114 0.589460 0.475255
C14_3 C 0.84345(19) 0.5181(2) 0.61980(19)
H11_2 H 0.835380 0.481268 0.631516
H12_3 H 0.819893 0.541633 0.645522
H13_3 H 0.880233 0.525846 0.631907
C15_3 C 0.77702(15) 0.52196(19) 0.5247(2)
H14_3 H 0.772363 0.524887 0.474743
H15_3 H 0.757422 0.550363 0.547649
H16_2 H 0.763649 0.487676 0.540432
C16_2 C 0.91865(15) 0.42891(17) 0.32953(16)
C17_2 C 0.94402(18) 0.47709(19) 0.29559(18)
H17_3 H 0.919733 0.507181 0.298326
H18_2 H 0.951606 0.469195 0.247158
H19_2 H 0.976991 0.485807 0.319501
C18_2 C 0.95721(19) 0.3824(2) 0.32650(19)
H20_2 H 0.990849 0.392739 0.347591
H21_2 H 0.963178 0.372437 0.278340
H22_2 H 0.942313 0.352318 0.351620
C19_2 C 0.86849(16) 0.41499(17) 0.28951(18)
H23_2 H 0.851706 0.384007 0.310451
H24_2 H 0.877641 0.407095 0.241542
H25_2 H 0.843976 0.444952 0.290891
Na1_3 Na 0.80996(6) 0.58237(5) 0.32148(6)
O7_3 O 0.86781(11) 0.64595(10) 0.34365(14)
O8_3 O 0.73551(11) 0.61274(12) 0.37803(16)
O9_3 O 0.80676(12) 0.55913(11) 0.20761(13)
Fe1_3 Fe 0.64232(2) 0.09462(2) 0.47944(2)
S1_4 S 0.40791(4) 0.18593(3) 0.64775(4)
O1_3 O 0.67729(12) 0.12604(15) 0.61739(14)
O2_3 O 0.61354(13) 0.20343(12) 0.44869(16)
O4_4 O 0.36781(11) 0.14595(10) 0.65635(14)
O5_4 O 0.38726(12) 0.23551(11) 0.62197(16)
O6_4 O 0.44087(11) 0.19324(12) 0.70761(13)
N1_3 N 0.70842(12) 0.09036(12) 0.42952(14)
N2_3 N 0.52465(11) 0.10172(11) 0.56262(13)
C1_3 C 0.66565(15) 0.11371(17) 0.56193(19)
C2_3 C 0.62632(16) 0.16082(18) 0.45969(18)
C3_3 C 0.74426(15) 0.08398(14) 0.39506(16)
C4_3 C 0.78858(15) 0.07563(17) 0.34878(18)
H1_3 H 0.792738 0.106544 0.318858
H2_3 H 0.781997 0.044237 0.320482
H3_3 H 0.820898 0.070470 0.375761
C5_3 C 0.63040(14) 0.01302(14) 0.42345(16)
C6_3 C 0.63199(14) 0.01206(15) 0.49999(17)
C7_3 C 0.58840(13) 0.04363(15) 0.52175(15)
C8_3 C 0.55436(14) 0.05438(15) 0.58393(15)
H4_3 H 0.530363 0.024384 0.593562
H5_3 H 0.576156 0.061523 0.625254
C9_3 C 0.51715(15) 0.09847(15) 0.48732(15)
H6_3 H 0.514933 0.134066 0.466369
H7_4 H 0.484891 0.078256 0.475554
C10_3 C 0.56569(13) 0.07014(14) 0.46460(15)
C11_3 C 0.59427(13) 0.05611(14) 0.40383(16)
H11_3 H 0.664620 0.018732 0.631516
H16_3 H 0.736351 0.012324 0.540432
C16_3 C 0.58135(15) 0.07109(17) 0.32953(16)
C17_3 C 0.55598(18) 0.02291(19) 0.29559(18)
H18_3 H 0.548394 0.030805 0.247158
H19_3 H 0.523009 0.014193 0.319501
C18_3 C 0.54279(19) 0.1176(2) 0.32650(19)
H20_3 H 0.509151 0.107261 0.347591
H21_3 H 0.536822 0.127563 0.278340
H22_3 H 0.557687 0.147682 0.351620
C19_3 C 0.63151(16) 0.08501(17) 0.28951(18)
H23_3 H 0.648294 0.115993 0.310451
H24_3 H 0.622359 0.092905 0.241542
H25_3 H 0.656024 0.055048 0.290891
C20_4 C 0.47597(14) 0.10934(14) 0.60142(17)
H26_4 H 0.483708 0.108367 0.651398
H27_4 H 0.450934 0.080398 0.590833
C21_4 C 0.45114(15) 0.16203(14) 0.58290(17)
H28_4 H 0.431206 0.158146 0.539302
H29_4 H 0.479496 0.188312 0.575126
Na4_4 Na 0.41763(5) 0.19004(6) 0.82148(6)
O3_4 O 0.65847(10) 0.98590(10) 0.38378(12)
C12_4 C 0.66461(16) 0.97343(16) 0.54232(18)
C13_4 C 0.64645(18) 0.91658(18) 0.5249(2)
H8_4 H 0.609451 0.912050 0.538618
H9_4 H 0.668510 0.891157 0.549885
H10_4 H 0.649886 0.910540 0.475255
C14_4 C 0.65655(19) 0.9819(2) 0.61980(19)
H12_4 H 0.680107 0.958367 0.645522
H13_4 H 0.619767 0.974154 0.631907
C15_4 C 0.72298(15) 0.97804(19) 0.5247(2)
H14_4 H 0.727637 0.975113 0.474743
H15_4 H 0.742578 0.949637 0.547649
H17_4 H 0.580267 0.992819 0.298326
Na1_4 Na 0.69004(6) 0.91763(5) 0.32148(6)
O7_4 O 0.63219(11) 0.85405(10) 0.34365(14)
O8_4 O 0.76449(11) 0.88726(12) 0.37803(16)
O9_4 O 0.69324(12) 0.94087(11) 0.20761(13)
S1_5 S 0.18593(3) 0.40791(4) 0.85225(4)
O1_4 O 0.12604(15) 0.67729(12) 0.88261(14)
O4_5 O 0.14595(10) 0.36781(11) 0.84365(14)
O5_5 O 0.23551(11) 0.38726(12) 0.87803(16)
O6_5 O 0.19324(12) 0.44087(11) 0.79239(13)
N2_4 N 0.10172(11) 0.52465(11) 0.93738(13)
C1_4 C 0.11371(17) 0.66565(15) 0.93807(19)
C6_4 C 0.01206(15) 0.63199(14) 1.00001(17)
C7_4 C 0.04363(15) 0.58840(13) 0.97825(15)
C8_4 C 0.05438(15) 0.55436(14) 0.91607(15)
H4_4 H 0.024384 0.530363 0.906438
H5_4 H 0.061523 0.576156 0.874746
H11_4 H 0.018732 0.664620 0.868484
H16_4 H 0.012324 0.736351 0.959568
C20_5 C 0.10934(14) 0.47597(14) 0.89858(17)
H26_5 H 0.108367 0.483708 0.848602
H27_5 H 0.080398 0.450934 0.909167
C21_5 C 0.16203(14) 0.45114(15) 0.91710(17)
H28_5 H 0.158146 0.431206 0.960698
H29_5 H 0.188312 0.479496 0.924874
O3_5 O 0.98590(10) 0.65847(10) 0.11622(12)
H10_5 H 0.910540 0.649886 0.024745
H14_5 H 0.975113 0.727637 0.025257
H17_5 H 0.992819 0.580267 0.201674
Na1_5 Na 0.91763(5) 0.69004(6) 0.17852(6)
O7_5 O 0.85405(10) 0.63219(11) 0.15635(14)
O8_5 O 0.88726(12) 0.76449(11) 0.12197(16)
O9_5 O 0.94087(11) 0.69324(12) 0.29239(13)
S1_6 S 0.31407(3) 0.09209(4) 0.85225(4)
O4_6 O 0.35405(10) 0.13219(11) 0.84365(14)
O5_6 O 0.26449(11) 0.11274(12) 0.87803(16)
O6_6 O 0.30676(12) 0.05913(11) 0.79239(13)
C20_6 C 0.39066(14) 0.02403(14) 0.89858(17)
H26_6 H 0.391633 0.016292 0.848602
H27_6 H 0.419602 0.049066 0.909167
C21_6 C 0.33797(14) 0.04886(15) 0.91710(17)
H28_6 H 0.341854 0.068794 0.960698
H29_6 H 0.311688 0.020504 0.924874
Fe1_4 Fe 0.40538(2) 0.85768(2) 0.02056(2)
O2_4 O 0.29657(12) 0.88646(13) 0.05131(16)
O3_6 O 0.51410(10) 0.84153(10) 0.11622(12)
N1_4 N 0.40964(12) 0.79158(12) 0.07048(14)
C2_4 C 0.33918(18) 0.87368(16) 0.04031(18)
C3_4 C 0.41602(14) 0.75574(15) 0.10494(16)
C4_4 C 0.42437(17) 0.71142(15) 0.15122(18)
H1_4 H 0.393456 0.707262 0.181142
H2_4 H 0.455763 0.718003 0.179518
H3_4 H 0.429530 0.679102 0.124239
C5_4 C 0.48698(14) 0.86960(14) 0.07655(16)
C6_5 C 0.48794(15) 0.86801(14) 0.00001(17)
C9_4 C 0.40153(15) 0.98285(15) 0.01268(15)
H6_4 H 0.365934 0.985067 0.033631
C10_4 C 0.42986(14) 0.93431(13) 0.03540(15)
C11_4 C 0.44389(14) 0.90573(13) 0.09617(16)
H10_6 H 0.589460 0.850114 0.024745
H14_6 H 0.524887 0.772363 0.025257
C16_4 C 0.42891(17) 0.91865(15) 0.17047(16)
C17_4 C 0.47709(19) 0.94402(18) 0.20441(18)
H17_6 H 0.507181 0.919733 0.201674
H18_4 H 0.469195 0.951606 0.252842
H19_4 H 0.485807 0.976991 0.180499
C18_4 C 0.3824(2) 0.95721(19) 0.17350(19)
H20_4 H 0.392739 0.990849 0.152409
H21_4 H 0.372437 0.963178 0.221660
H22_4 H 0.352318 0.942313 0.148380
C19_4 C 0.41499(17) 0.86849(16) 0.21049(18)
H23_4 H 0.384007 0.851706 0.189549
H24_4 H 0.407095 0.877641 0.258458
H25_4 H 0.444952 0.843976 0.209109
Na1_6 Na 0.58237(5) 0.80996(6) 0.17852(6)
O7_6 O 0.64595(10) 0.86781(11) 0.15635(14)
O8_6 O 0.61274(12) 0.73551(11) 0.12197(16)
O9_6 O 0.55913(11) 0.80676(12) 0.29239(13)
Fe1_5 Fe 0.64232(2) 0.40538(2) 0.02056(2)
O2_5 O 0.61354(13) 0.29657(12) 0.05131(16)
O3_7 O 0.65847(10) 0.51410(10) 0.11622(12)
N1_5 N 0.70842(12) 0.40964(12) 0.07048(14)
C2_5 C 0.62632(16) 0.33918(18) 0.04031(18)
C3_5 C 0.74426(15) 0.41602(14) 0.10494(16)
C4_5 C 0.78858(15) 0.42437(17) 0.15122(18)
H1_5 H 0.792738 0.393456 0.181142
H2_5 H 0.781997 0.455763 0.179518
H3_5 H 0.820898 0.429530 0.124239
C5_5 C 0.63040(14) 0.48698(14) 0.07655(16)
C6_6 C 0.63199(14) 0.48794(15) 0.00001(17)
C9_5 C 0.51715(15) 0.40153(15) 0.01268(15)
H6_5 H 0.514933 0.365934 0.033631
H7_5 H 0.484891 0.421744 0.024446
C10_5 C 0.56569(13) 0.42986(14) 0.03540(15)
C11_5 C 0.59427(13) 0.44389(14) 0.09617(16)
H10_7 H 0.649886 0.589460 0.024745
H14_7 H 0.727637 0.524887 0.025257
C16_5 C 0.58135(15) 0.42891(17) 0.17047(16)
C17_5 C 0.55598(18) 0.47709(19) 0.20441(18)
H17_7 H 0.580267 0.507181 0.201674
H18_5 H 0.548394 0.469195 0.252842
H19_5 H 0.523009 0.485807 0.180499
C18_5 C 0.54279(19) 0.3824(2) 0.17350(19)
H20_5 H 0.509151 0.392739 0.152409
H21_5 H 0.536822 0.372437 0.221660
H22_5 H 0.557687 0.352318 0.148380
C19_5 C 0.63151(16) 0.41499(17) 0.21049(18)
H23_5 H 0.648294 0.384007 0.189549
H24_5 H 0.622359 0.407095 0.258458
H25_5 H 0.656024 0.444952 0.209109
Na1_7 Na 0.69004(6) 0.58237(5) 0.17852(6)
O7_7 O 0.63219(11) 0.64595(10) 0.15635(14)
O8_7 O 0.76449(11) 0.61274(12) 0.12197(16)
O9_7 O 0.69324(12) 0.55913(11) 0.29239(13)
S1_7 S 0.40791(4) 0.31407(3) 0.85225(4)
O1_5 O 0.67729(12) 0.37396(15) 0.88261(14)
O4_7 O 0.36781(11) 0.35405(10) 0.84365(14)
O5_7 O 0.38726(12) 0.26449(11) 0.87803(16)
O6_7 O 0.44087(11) 0.30676(12) 0.79239(13)
N2_5 N 0.52465(11) 0.39828(11) 0.93738(13)
C1_5 C 0.66565(15) 0.38629(17) 0.93807(19)
C6_7 C 0.63199(14) 0.48794(15) 1.00001(17)
C7_5 C 0.58840(13) 0.45637(15) 0.97825(15)
C8_5 C 0.55436(14) 0.44562(15) 0.91607(15)
H4_5 H 0.530363 0.475616 0.906438
H5_5 H 0.576156 0.438477 0.874746
C12_5 C 0.66461(16) 0.52657(16) 0.95768(18)
C13_5 C 0.64645(18) 0.58342(18) 0.9751(2)
H8_5 H 0.609451 0.587950 0.961382
H9_5 H 0.668510 0.608843 0.950115
C14_5 C 0.65655(19) 0.5181(2) 0.88020(19)
H11_5 H 0.664620 0.481268 0.868484
H12_5 H 0.680107 0.541633 0.854478
H13_5 H 0.619767 0.525846 0.868093
C15_5 C 0.72298(15) 0.52196(19) 0.9753(2)
H15_5 H 0.742578 0.550363 0.952351
H16_5 H 0.736351 0.487676 0.959568
C20_7 C 0.47597(14) 0.39066(14) 0.89858(17)
H26_7 H 0.483708 0.391633 0.848602
H27_7 H 0.450934 0.419602 0.909167
C21_7 C 0.45114(15) 0.33797(14) 0.91710(17)
H28_7 H 0.431206 0.341854 0.960698
H29_7 H 0.479496 0.311688 0.924874
S1_8 S 0.09209(4) 0.18593(3) 0.85225(4)
O4_8 O 0.13219(11) 0.14595(10) 0.84365(14)
O5_8 O 0.11274(12) 0.23551(11) 0.87803(16)
O6_8 O 0.05913(11) 0.19324(12) 0.79239(13)
C20_8 C 0.02403(14) 0.10934(14) 0.89858(17)
H26_8 H 0.016292 0.108367 0.848602
H27_8 H 0.049066 0.080398 0.909167
C21_8 C 0.04886(15) 0.16203(14) 0.91710(17)
H28_8 H 0.068794 0.158146 0.960698
H29_8 H 0.020504 0.188312 0.924874
O3_8 O 0.84153(10) 0.98590(10) 0.11622(12)
H10_8 H 0.850114 0.910540 0.024745
H14_8 H 0.772363 0.975113 0.025257
H17_8 H 0.919733 0.992819 0.201674
Na1_8 Na 0.80996(6) 0.91763(5) 0.17852(6)
O7_8 O 0.86781(11) 0.85405(10) 0.15635(14)
O8_8 O 0.73551(11) 0.88726(12) 0.12197(16)
O9_8 O 0.80676(12) 0.94087(11) 0.29239(13)
Fe1_6 Fe 0.59462(2) 0.35768(2) 0.52056(2)
S1_9 S 0.68593(3) 0.59209(4) 0.35225(4)
O1_6 O 0.62604(15) 0.32271(12) 0.38261(14)
O2_6 O 0.70343(12) 0.38646(13) 0.55131(16)
O3_9 O 0.48590(10) 0.34153(10) 0.61622(12)
N1_6 N 0.59036(12) 0.29158(12) 0.57048(14)
N2_6 N 0.60172(11) 0.47535(11) 0.43738(13)
C1_6 C 0.61371(17) 0.33435(15) 0.43807(19)
C2_6 C 0.66082(18) 0.37368(16) 0.54031(18)
C3_6 C 0.58398(14) 0.25574(15) 0.60494(16)
C4_6 C 0.57563(17) 0.21142(15) 0.65122(18)
H1_6 H 0.606544 0.207262 0.681142
H2_6 H 0.544237 0.218003 0.679518
H3_6 H 0.570470 0.179102 0.624239
C5_6 C 0.51302(14) 0.36960(14) 0.57655(16)
C6_8 C 0.51206(15) 0.36801(14) 0.50001(17)
C7_6 C 0.54363(15) 0.41160(13) 0.47825(15)
C8_6 C 0.55438(15) 0.44564(14) 0.41607(15)
H4_6 H 0.524384 0.469637 0.406438
H5_6 H 0.561523 0.423844 0.374746
C9_6 C 0.59847(15) 0.48285(15) 0.51268(15)
H6_6 H 0.634066 0.485067 0.533631
H7_6 H 0.578256 0.515109 0.524446
C10_6 C 0.57014(14) 0.43431(13) 0.53540(15)
C11_6 C 0.55611(14) 0.40573(13) 0.59617(16)
C12_6 C 0.47343(16) 0.33539(16) 0.45768(18)
C13_6 C 0.41658(18) 0.35355(18) 0.4751(2)
H8_6 H 0.412050 0.390549 0.461382
H9_6 H 0.391157 0.331490 0.450115
H10_9 H 0.410540 0.350114 0.524745
C14_6 C 0.4819(2) 0.34345(19) 0.38020(19)
H11_6 H 0.518732 0.335380 0.368484
H12_6 H 0.458367 0.319893 0.354478
H13_6 H 0.474154 0.380233 0.368093
C15_6 C 0.47804(19) 0.27702(15) 0.4753(2)
H14_9 H 0.475113 0.272363 0.525257
H15_6 H 0.449637 0.257422 0.452351
H16_6 H 0.512324 0.263649 0.459568
C16_6 C 0.57109(17) 0.41865(15) 0.67047(16)
C17_6 C 0.52291(19) 0.44402(18) 0.70441(18)
H17_9 H 0.492819 0.419733 0.701674
H18_6 H 0.530805 0.451606 0.752842
H19_6 H 0.514193 0.476991 0.680499
C18_6 C 0.6176(2) 0.45721(19) 0.67350(19)
H20_6 H 0.607261 0.490849 0.652409
H21_6 H 0.627563 0.463178 0.721660
H22_6 H 0.647682 0.442313 0.648380
C19_6 C 0.58501(17) 0.36849(16) 0.71049(18)
H23_6 H 0.615993 0.351706 0.689549
H24_6 H 0.592905 0.377641 0.758458
H25_6 H 0.555048 0.343976 0.709109
C20_9 C 0.60934(14) 0.52403(14) 0.39858(17)
H26_9 H 0.608367 0.516292 0.348602
H27_9 H 0.580398 0.549066 0.409167
C21_9 C 0.66203(14) 0.54886(15) 0.41710(17)
H28_9 H 0.658146 0.568794 0.460698
H29_9 H 0.688312 0.520504 0.424874
O3_10 O 0.01410(10) 0.15847(10) 0.61622(12)
C12_7 C 0.02657(16) 0.16461(16) 0.45768(18)
C13_7 C 0.08342(18) 0.14645(18) 0.4751(2)
H8_7 H 0.087950 0.109451 0.461382
H9_7 H 0.108843 0.168510 0.450115
H10_10 H 0.089460 0.149886 0.524745
C14_7 C 0.0181(2) 0.15655(19) 0.38020(19)
H12_7 H 0.041633 0.180107 0.354478
H13_7 H 0.025846 0.119767 0.368093
C15_7 C 0.02196(19) 0.22298(15) 0.4753(2)
H14_10 H 0.024887 0.227637 0.525257
H15_7 H 0.050363 0.242578 0.452351
H17_10 H 0.007181 0.080267 0.701674
S1_10 S 0.81407(3) 0.90791(4) 0.35225(4)
H7_7 H 0.921744 0.984891 0.524446
C20_10 C 0.89066(14) 0.97597(14) 0.39858(17)
H26_10 H 0.891633 0.983708 0.348602
H27_10 H 0.919602 0.950934 0.409167
C21_10 C 0.83797(14) 0.95114(15) 0.41710(17)
H28_10 H 0.841854 0.931206 0.460698
H29_10 H 0.811688 0.979496 0.424874
Fe1_7 Fe 0.14232(2) 0.59462(2) 0.52056(2)
O1_7 O 0.17729(12) 0.62604(15) 0.38261(14)
O2_7 O 0.11354(13) 0.70343(12) 0.55131(16)
O3_11 O 0.15847(10) 0.48590(10) 0.61622(12)
N1_7 N 0.20842(12) 0.59036(12) 0.57048(14)
N2_7 N 0.02465(11) 0.60172(11) 0.43738(13)
C1_7 C 0.16565(15) 0.61371(17) 0.43807(19)
C2_7 C 0.12632(16) 0.66082(18) 0.54031(18)
C3_7 C 0.24426(15) 0.58398(14) 0.60494(16)
C4_7 C 0.28858(15) 0.57563(17) 0.65122(18)
H1_7 H 0.292738 0.606544 0.681142
H2_7 H 0.281997 0.544237 0.679518
H3_7 H 0.320898 0.570470 0.624239
C5_7 C 0.13040(14) 0.51302(14) 0.57655(16)
C6_9 C 0.13199(14) 0.51206(15) 0.50001(17)
C7_7 C 0.08840(13) 0.54363(15) 0.47825(15)
C8_7 C 0.05436(14) 0.55438(15) 0.41607(15)
H4_7 H 0.030363 0.524384 0.406438
H5_7 H 0.076156 0.561523 0.374746
C9_7 C 0.01715(15) 0.59847(15) 0.51268(15)
H6_7 H 0.014933 0.634066 0.533631
C10_7 C 0.06569(13) 0.57014(14) 0.53540(15)
C11_7 C 0.09427(13) 0.55611(14) 0.59617(16)
C12_8 C 0.16461(16) 0.47343(16) 0.45768(18)
C13_8 C 0.14645(18) 0.41658(18) 0.4751(2)
H8_8 H 0.109451 0.412050 0.461382
H9_8 H 0.168510 0.391157 0.450115
H10_11 H 0.149886 0.410540 0.524745
C14_8 C 0.15655(19) 0.4819(2) 0.38020(19)
H11_7 H 0.164620 0.518732 0.368484
H12_8 H 0.180107 0.458367 0.354478
H13_8 H 0.119767 0.474154 0.368093
C15_8 C 0.22298(15) 0.47804(19) 0.4753(2)
H14_11 H 0.227637 0.475113 0.525257
H15_8 H 0.242578 0.449637 0.452351
H16_7 H 0.236351 0.512324 0.459568
C16_7 C 0.08135(15) 0.57109(17) 0.67047(16)
C17_7 C 0.05598(18) 0.52291(19) 0.70441(18)
H17_11 H 0.080267 0.492819 0.701674
H18_7 H 0.048394 0.530805 0.752842
H19_7 H 0.023009 0.514193 0.680499
C18_7 C 0.04279(19) 0.6176(2) 0.67350(19)
H20_7 H 0.009151 0.607261 0.652409
H21_7 H 0.036822 0.627563 0.721660
H22_7 H 0.057687 0.647682 0.648380
C19_7 C 0.13151(16) 0.58501(17) 0.71049(18)
H23_7 H 0.148294 0.615993 0.689549
H24_7 H 0.122359 0.592905 0.758458
H25_7 H 0.156024 0.555048 0.709109
S1_11 S 0.90791(4) 0.68593(3) 0.35225(4)
H7_8 H 0.984891 0.578256 0.524446
C20_11 C 0.97597(14) 0.60934(14) 0.39858(17)
H26_11 H 0.983708 0.608367 0.348602
H27_11 H 0.950934 0.580398 0.409167
C21_11 C 0.95114(15) 0.66203(14) 0.41710(17)
H28_11 H 0.931206 0.658146 0.460698
H29_11 H 0.979496 0.688312 0.424874
O3_12 O 0.34153(10) 0.01410(10) 0.61622(12)
C12_9 C 0.33539(16) 0.02657(16) 0.45768(18)
C13_9 C 0.35355(18) 0.08342(18) 0.4751(2)
H8_9 H 0.390549 0.087950 0.461382
H9_9 H 0.331490 0.108843 0.450115
H10_12 H 0.350114 0.089460 0.524745
C14_9 C 0.34345(19) 0.0181(2) 0.38020(19)
H12_9 H 0.319893 0.041633 0.354478
H13_9 H 0.380233 0.025846 0.368093
C15_9 C 0.27702(15) 0.02196(19) 0.4753(2)
H14_12 H 0.272363 0.024887 0.525257
H15_9 H 0.257422 0.050363 0.452351
H17_12 H 0.419733 0.007181 0.701674
Fe1_8 Fe 0.35768(2) 0.90538(2) 0.52056(2)
S1_12 S 0.59209(4) 0.81407(3) 0.35225(4)
O1_8 O 0.32271(12) 0.87396(15) 0.38261(14)
O2_8 O 0.38646(13) 0.79657(12) 0.55131(16)
N1_8 N 0.29158(12) 0.90964(12) 0.57048(14)
N2_8 N 0.47535(11) 0.89828(11) 0.43738(13)
C1_8 C 0.33435(15) 0.88629(17) 0.43807(19)
C2_8 C 0.37368(16) 0.83918(18) 0.54031(18)
C3_8 C 0.25574(15) 0.91602(14) 0.60494(16)
C4_8 C 0.21142(15) 0.92437(17) 0.65122(18)
H1_8 H 0.207262 0.893456 0.681142
H2_8 H 0.218003 0.955763 0.679518
H3_8 H 0.179102 0.929530 0.624239
C5_8 C 0.36960(14) 0.98698(14) 0.57655(16)
C6_10 C 0.36801(14) 0.98794(15) 0.50001(17)
C7_8 C 0.41160(13) 0.95637(15) 0.47825(15)
C8_8 C 0.44564(14) 0.94562(15) 0.41607(15)
H4_8 H 0.469637 0.975616 0.406438
H5_8 H 0.423844 0.938477 0.374746
C9_8 C 0.48285(15) 0.90153(15) 0.51268(15)
H6_8 H 0.485067 0.865934 0.533631
H7_9 H 0.515109 0.921744 0.524446
C10_8 C 0.43431(13) 0.92986(14) 0.53540(15)
C11_8 C 0.40573(13) 0.94389(14) 0.59617(16)
H11_8 H 0.335380 0.981268 0.368484
H16_8 H 0.263649 0.987676 0.459568
C16_8 C 0.41865(15) 0.92891(17) 0.67047(16)
C17_8 C 0.44402(18) 0.97709(19) 0.70441(18)
H18_8 H 0.451606 0.969195 0.752842
H19_8 H 0.476991 0.985807 0.680499
C18_8 C 0.45721(19) 0.8824(2) 0.67350(19)
H20_8 H 0.490849 0.892739 0.652409
H21_8 H 0.463178 0.872437 0.721660
H22_8 H 0.442313 0.852318 0.648380
C19_8 C 0.36849(16) 0.91499(17) 0.71049(18)
H23_8 H 0.351706 0.884007 0.689549
H24_8 H 0.377641 0.907095 0.758458
H25_8 H 0.343976 0.944952 0.709109
C20_12 C 0.52403(14) 0.89066(14) 0.39858(17)
H26_12 H 0.516292 0.891633 0.348602
H27_12 H 0.549066 0.919602 0.409167
C21_12 C 0.54886(15) 0.83797(14) 0.41710(17)
H28_12 H 0.568794 0.841854 0.460698
H29_12 H 0.520504 0.811688 0.424874
O3_13 O 0.01410(10) 0.34153(10) 0.88378(12)
H10_13 H 0.089460 0.350114 0.975255
H14_13 H 0.024887 0.272363 0.974743
H17_13 H 0.007181 0.419733 0.798326
S1_13 S 0.81407(3) 0.59209(4) 0.14775(4)
O1_9 O 0.87396(15) 0.32271(12) 0.11739(14)
N2_9 N 0.89828(11) 0.47535(11) 0.06262(13)
C1_9 C 0.88629(17) 0.33435(15) 0.06193(19)
C6_11 C 0.98794(15) 0.36801(14) -0.00001(17)
C7_9 C 0.95637(15) 0.41160(13) 0.02175(15)
C8_9 C 0.94562(15) 0.44564(14) 0.08393(15)
H4_9 H 0.975616 0.469637 0.093562
H5_9 H 0.938477 0.423844 0.125254
H11_9 H 0.981268 0.335380 0.131516
H16_9 H 0.987676 0.263649 0.040432
C20_13 C 0.89066(14) 0.52403(14) 0.10142(17)
H26_13 H 0.891633 0.516292 0.151398
H27_13 H 0.919602 0.549066 0.090833
C21_13 C 0.83797(14) 0.54886(15) 0.08290(17)
H28_13 H 0.841854 0.568794 0.039302
H29_13 H 0.811688 0.520504 0.075126
Fe1_9 Fe 0.59462(2) 0.14232(2) 0.97944(2)
O2_9 O 0.70343(12) 0.11354(13) 0.94869(16)
O3_14 O 0.48590(10) 0.15847(10) 0.88378(12)
N1_9 N 0.59036(12) 0.20842(12) 0.92952(14)
C2_9 C 0.66082(18) 0.12632(16) 0.95969(18)
C3_9 C 0.58398(14) 0.24426(15) 0.89506(16)
C4_9 C 0.57563(17) 0.28858(15) 0.84878(18)
H1_9 H 0.606544 0.292738 0.818858
H2_9 H 0.544237 0.281997 0.820482
H3_9 H 0.570470 0.320898 0.875761
C5_9 C 0.51302(14) 0.13040(14) 0.92345(16)
C6_12 C 0.51206(15) 0.13199(14) 0.99999(17)
C9_9 C 0.59847(15) 0.01715(15) 0.98732(15)
H6_9 H 0.634066 0.014933 0.966369
C10_9 C 0.57014(14) 0.06569(13) 0.96460(15)
C11_9 C 0.55611(14) 0.09427(13) 0.90383(16)
H10_14 H 0.410540 0.149886 0.975255
H14_14 H 0.475113 0.227637 0.974743
C16_9 C 0.57109(17) 0.08135(15) 0.82953(16)
C17_9 C 0.52291(19) 0.05598(18) 0.79559(18)
H17_14 H 0.492819 0.080267 0.798326
H18_9 H 0.530805 0.048394 0.747158
H19_9 H 0.514193 0.023009 0.819501
C18_9 C 0.6176(2) 0.04279(19) 0.82650(19)
H20_9 H 0.607261 0.009151 0.847591
H21_9 H 0.627563 0.036822 0.778340
H22_9 H 0.647682 0.057687 0.851620
C19_9 C 0.58501(17) 0.13151(16) 0.78951(18)
H23_9 H 0.615993 0.148294 0.810451
H24_9 H 0.592905 0.122359 0.741542
H25_9 H 0.555048 0.156024 0.790891
S1_14 S 0.68593(3) 0.90791(4) 0.14775(4)
C20_14 C 0.60934(14) 0.97597(14) 0.10142(17)
H26_14 H 0.608367 0.983708 0.151398
H27_14 H 0.580398 0.950934 0.090833
C21_14 C 0.66203(14) 0.95114(15) 0.08290(17)
H28_14 H 0.658146 0.931206 0.039302
H29_14 H 0.688312 0.979496 0.075126
S1_15 S 0.59209(4) 0.68593(3) 0.14775(4)
O1_10 O 0.32271(12) 0.62604(15) 0.11739(14)
N2_10 N 0.47535(11) 0.60172(11) 0.06262(13)
C1_10 C 0.33435(15) 0.61371(17) 0.06193(19)
C6_13 C 0.36801(14) 0.51206(15) -0.00001(17)
C7_10 C 0.41160(13) 0.54363(15) 0.02175(15)
C8_10 C 0.44564(14) 0.55438(15) 0.08393(15)
H4_10 H 0.469637 0.524384 0.093562
H5_10 H 0.423844 0.561523 0.125254
C12_10 C 0.33539(16) 0.47343(16) 0.04232(18)
C13_10 C 0.35355(18) 0.41658(18) 0.0249(2)
H8_10 H 0.390549 0.412050 0.038618
H9_10 H 0.331490 0.391157 0.049885
C14_10 C 0.34345(19) 0.4819(2) 0.11980(19)
H11_10 H 0.335380 0.518732 0.131516
H12_10 H 0.319893 0.458367 0.145522
H13_10 H 0.380233 0.474154 0.131907
C15_10 C 0.27702(15) 0.47804(19) 0.0247(2)
H15_10 H 0.257422 0.449637 0.047649
H16_10 H 0.263649 0.512324 0.040432
C20_15 C 0.52403(14) 0.60934(14) 0.10142(17)
H26_15 H 0.516292 0.608367 0.151398
H27_15 H 0.549066 0.580398 0.090833
C21_15 C 0.54886(15) 0.66203(14) 0.08290(17)
H28_15 H 0.568794 0.658146 0.039302
H29_15 H 0.520504 0.688312 0.075126
Fe1_10 Fe 0.35768(2) 0.59462(2) 0.97944(2)
O2_10 O 0.38646(13) 0.70343(12) 0.94869(16)
O3_15 O 0.34153(10) 0.48590(10) 0.88378(12)
N1_10 N 0.29158(12) 0.59036(12) 0.92952(14)
C2_10 C 0.37368(16) 0.66082(18) 0.95969(18)
C3_10 C 0.25574(15) 0.58398(14) 0.89506(16)
C4_10 C 0.21142(15) 0.57563(17) 0.84878(18)
H1_10 H 0.207262 0.606544 0.818858
H2_10 H 0.218003 0.544237 0.820482
H3_10 H 0.179102 0.570470 0.875761
C5_10 C 0.36960(14) 0.51302(14) 0.92345(16)
C6_14 C 0.36801(14) 0.51206(15) 0.99999(17)
C9_10 C 0.48285(15) 0.59847(15) 0.98732(15)
H6_10 H 0.485067 0.634066 0.966369
H7_10 H 0.515109 0.578256 0.975554
C10_10 C 0.43431(13) 0.57014(14) 0.96460(15)
C11_10 C 0.40573(13) 0.55611(14) 0.90383(16)
H10_15 H 0.350114 0.410540 0.975255
H14_15 H 0.272363 0.475113 0.974743
C16_10 C 0.41865(15) 0.57109(17) 0.82953(16)
C17_10 C 0.44402(18) 0.52291(19) 0.79559(18)
H17_15 H 0.419733 0.492819 0.798326
H18_10 H 0.451606 0.530805 0.747158
H19_10 H 0.476991 0.514193 0.819501
C18_10 C 0.45721(19) 0.6176(2) 0.82650(19)
H20_10 H 0.490849 0.607261 0.847591
H21_10 H 0.463178 0.627563 0.778340
H22_10 H 0.442313 0.647682 0.851620
C19_10 C 0.36849(16) 0.58501(17) 0.78951(18)
H23_10 H 0.351706 0.615993 0.810451
H24_10 H 0.377641 0.592905 0.741542
H25_10 H 0.343976 0.555048 0.790891
O3_16 O 0.15847(10) 0.01410(10) 0.88378(12)
H10_16 H 0.149886 0.089460 0.975255
H14_16 H 0.227637 0.024887 0.974743
H17_16 H 0.080267 0.007181 0.798326
S1_16 S 0.90791(4) 0.81407(3) 0.14775(4)
C20_16 C 0.97597(14) 0.89066(14) 0.10142(17)
H26_16 H 0.983708 0.891633 0.151398
H27_16 H 0.950934 0.919602 0.090833
C21_16 C 0.95114(15) 0.83797(14) 0.08290(17)
H28_16 H 0.931206 0.841854 0.039302
H29_16 H 0.979496 0.811688 0.075126
Fe1_11 Fe 0.09462(2) 0.85768(2) 0.47944(2)
O1_11 O 0.12604(15) 0.82271(12) 0.61739(14)
O2_11 O 0.20343(12) 0.88646(13) 0.44869(16)
N1_11 N 0.09036(12) 0.79158(12) 0.42952(14)
N2_11 N 0.10172(11) 0.97535(11) 0.56262(13)
C1_11 C 0.11371(17) 0.83435(15) 0.56193(19)
C2_11 C 0.16082(18) 0.87368(16) 0.45969(18)
C3_11 C 0.08398(14) 0.75574(15) 0.39506(16)
C4_11 C 0.07563(17) 0.71142(15) 0.34878(18)
H1_11 H 0.106544 0.707262 0.318858
H2_11 H 0.044237 0.718003 0.320482
H3_11 H 0.070470 0.679102 0.375761
C5_11 C 0.01302(14) 0.86960(14) 0.42345(16)
C6_15 C 0.01206(15) 0.86801(14) 0.49999(17)
C7_11 C 0.04363(15) 0.91160(13) 0.52175(15)
C8_11 C 0.05438(15) 0.94564(14) 0.58393(15)
H4_11 H 0.024384 0.969637 0.593562
H5_11 H 0.061523 0.923844 0.625254
C9_11 C 0.09847(15) 0.98285(15) 0.48732(15)
H6_11 H 0.134066 0.985067 0.466369
C10_11 C 0.07014(14) 0.93431(13) 0.46460(15)
C11_11 C 0.05611(14) 0.90573(13) 0.40383(16)
H11_11 H 0.018732 0.835380 0.631516
H16_11 H 0.012324 0.763649 0.540432
C16_11 C 0.07109(17) 0.91865(15) 0.32953(16)
C17_11 C 0.02291(19) 0.94402(18) 0.29559(18)
H18_11 H 0.030805 0.951606 0.247158
H19_11 H 0.014193 0.976991 0.319501
C18_11 C 0.1176(2) 0.95721(19) 0.32650(19)
H20_11 H 0.107261 0.990849 0.347591
H21_11 H 0.127563 0.963178 0.278340
H22_11 H 0.147682 0.942313 0.351620
C19_11 C 0.08501(17) 0.86849(16) 0.28951(18)
H23_11 H 0.115993 0.851706 0.310451
H24_11 H 0.092905 0.877641 0.241542
H25_11 H 0.055048 0.843976 0.290891
Fe1_12 Fe 0.09462(2) 0.64232(2) 0.02056(2)
O2_12 O 0.20343(12) 0.61354(13) 0.05131(16)
N1_12 N 0.09036(12) 0.70842(12) 0.07048(14)
C2_12 C 0.16082(18) 0.62632(16) 0.04031(18)
C3_12 C 0.08398(14) 0.74426(15) 0.10494(16)
C4_12 C 0.07563(17) 0.78858(15) 0.15122(18)
H1_12 H 0.106544 0.792738 0.181142
H2_12 H 0.044237 0.781997 0.179518
H3_12 H 0.070470 0.820898 0.124239
C5_12 C 0.01302(14) 0.63040(14) 0.07655(16)
C6_16 C 0.01206(15) 0.63199(14) 0.00001(17)
C9_12 C 0.09847(15) 0.51715(15) 0.01268(15)
H6_12 H 0.134066 0.514933 0.033631
H7_11 H 0.078256 0.484891 0.024446
C10_12 C 0.07014(14) 0.56569(13) 0.03540(15)
C11_12 C 0.05611(14) 0.59427(13) 0.09617(16)
C16_12 C 0.07109(17) 0.58135(15) 0.17047(16)
C17_12 C 0.02291(19) 0.55598(18) 0.20441(18)
H18_12 H 0.030805 0.548394 0.252842
H19_12 H 0.014193 0.523009 0.180499
C18_12 C 0.1176(2) 0.54279(19) 0.17350(19)
H20_12 H 0.107261 0.509151 0.152409
H21_12 H 0.127563 0.536822 0.221660
H22_12 H 0.147682 0.557687 0.148380
C19_12 C 0.08501(17) 0.63151(16) 0.21049(18)
H23_12 H 0.115993 0.648294 0.189549
H24_12 H 0.092905 0.622359 0.258458
H25_12 H 0.055048 0.656024 0.209109
C12_11 C 0.97343(16) 0.66461(16) 0.95768(18)
C13_11 C 0.91658(18) 0.64645(18) 0.9751(2)
H8_11 H 0.912050 0.609451 0.961382
H9_11 H 0.891157 0.668510 0.950115
C14_11 C 0.9819(2) 0.65655(19) 0.88020(19)
H12_11 H 0.958367 0.680107 0.854478
H13_11 H 0.974154 0.619767 0.868093
C15_11 C 0.97804(19) 0.72298(15) 0.9753(2)
H15_11 H 0.949637 0.742578 0.952351
H7_12 H 0.421744 0.015109 0.024446
O1_12 O 0.37396(15) 0.82271(12) 0.88261(14)
N2_12 N 0.39828(11) 0.97535(11) 0.93738(13)
C1_12 C 0.38629(17) 0.83435(15) 0.93807(19)
C6_17 C 0.48794(15) 0.86801(14) 1.00001(17)
C7_12 C 0.45637(15) 0.91160(13) 0.97825(15)
C8_12 C 0.44562(15) 0.94564(14) 0.91607(15)
H4_12 H 0.475616 0.969637 0.906438
H5_12 H 0.438477 0.923844 0.874746
C12_12 C 0.52657(16) 0.83539(16) 0.95768(18)
C13_12 C 0.58342(18) 0.85355(18) 0.9751(2)
H8_12 H 0.587950 0.890549 0.961382
H9_12 H 0.608843 0.831490 0.950115
C14_12 C 0.5181(2) 0.84345(19) 0.88020(19)
H11_12 H 0.481268 0.835380 0.868484
H12_12 H 0.541633 0.819893 0.854478
H13_12 H 0.525846 0.880233 0.868093
C15_12 C 0.52196(19) 0.77702(15) 0.9753(2)
H15_12 H 0.550363 0.757422 0.952351
H16_12 H 0.487676 0.763649 0.959568
H7_13 H 0.015109 0.078256 0.024446
Fe1_13 Fe 0.85768(2) 0.09462(2) 0.02056(2)
O2_13 O 0.88646(13) 0.20343(12) 0.05131(16)
N1_13 N 0.79158(12) 0.09036(12) 0.07048(14)
C2_13 C 0.87368(16) 0.16082(18) 0.04031(18)
C3_13 C 0.75574(15) 0.08398(14) 0.10494(16)
C4_13 C 0.71142(15) 0.07563(17) 0.15122(18)
H1_13 H 0.707262 0.106544 0.181142
H2_13 H 0.718003 0.044237 0.179518
H3_13 H 0.679102 0.070470 0.124239
C5_13 C 0.86960(14) 0.01302(14) 0.07655(16)
C6_18 C 0.86801(14) 0.01206(15) 0.00001(17)
C9_13 C 0.98285(15) 0.09847(15) 0.01268(15)
H6_13 H 0.985067 0.134066 0.033631
C10_13 C 0.93431(13) 0.07014(14) 0.03540(15)
C11_13 C 0.90573(13) 0.05611(14) 0.09617(16)
C16_13 C 0.91865(15) 0.07109(17) 0.17047(16)
C17_13 C 0.94402(18) 0.02291(19) 0.20441(18)
H18_13 H 0.951606 0.030805 0.252842
H19_13 H 0.976991 0.014193 0.180499
C18_13 C 0.95721(19) 0.1176(2) 0.17350(19)
H20_13 H 0.990849 0.107261 0.152409
H21_13 H 0.963178 0.127563 0.221660
H22_13 H 0.942313 0.147682 0.148380
C19_13 C 0.86849(16) 0.08501(17) 0.21049(18)
H23_13 H 0.851706 0.115993 0.189549
H24_13 H 0.877641 0.092905 0.258458
H25_13 H 0.843976 0.055048 0.209109
O1_13 O 0.82271(12) 0.12604(15) 0.88261(14)
N2_13 N 0.97535(11) 0.10172(11) 0.93738(13)
C1_13 C 0.83435(15) 0.11371(17) 0.93807(19)
C6_19 C 0.86801(14) 0.01206(15) 1.00001(17)
C7_13 C 0.91160(13) 0.04363(15) 0.97825(15)
C8_13 C 0.94564(14) 0.05438(15) 0.91607(15)
H4_13 H 0.969637 0.024384 0.906438
H5_13 H 0.923844 0.061523 0.874746
H11_13 H 0.835380 0.018732 0.868484
H16_13 H 0.763649 0.012324 0.959568
C12_13 C 0.83539(16) 0.97343(16) 0.95768(18)
C13_13 C 0.85355(18) 0.91658(18) 0.9751(2)
H8_13 H 0.890549 0.912050 0.961382
H9_13 H 0.831490 0.891157 0.950115
C14_13 C 0.84345(19) 0.9819(2) 0.88020(19)
H12_13 H 0.819893 0.958367 0.854478
H13_13 H 0.880233 0.974154 0.868093
C15_13 C 0.77702(15) 0.97804(19) 0.9753(2)
H15_13 H 0.757422 0.949637 0.952351
Fe1_14 Fe 0.90538(2) 0.14232(2) 0.52056(2)
O1_14 O 0.87396(15) 0.17729(12) 0.38261(14)
O2_14 O 0.79657(12) 0.11354(13) 0.55131(16)
N1_14 N 0.90964(12) 0.20842(12) 0.57048(14)
N2_14 N 0.89828(11) 0.02465(11) 0.43738(13)
C1_14 C 0.88629(17) 0.16565(15) 0.43807(19)
C2_14 C 0.83918(18) 0.12632(16) 0.54031(18)
C3_14 C 0.91602(14) 0.24426(15) 0.60494(16)
C4_14 C 0.92437(17) 0.28858(15) 0.65122(18)
H1_14 H 0.893456 0.292738 0.681142
H2_14 H 0.955763 0.281997 0.679518
H3_14 H 0.929530 0.320898 0.624239
C5_14 C 0.98698(14) 0.13040(14) 0.57655(16)
C6_20 C 0.98794(15) 0.13199(14) 0.50001(17)
C7_14 C 0.95637(15) 0.08840(13) 0.47825(15)
C8_14 C 0.94562(15) 0.05436(14) 0.41607(15)
H4_14 H 0.975616 0.030363 0.406438
H5_14 H 0.938477 0.076156 0.374746
C9_14 C 0.90153(15) 0.01715(15) 0.51268(15)
H6_14 H 0.865934 0.014933 0.533631
C10_14 C 0.92986(14) 0.06569(13) 0.53540(15)
C11_14 C 0.94389(14) 0.09427(13) 0.59617(16)
H11_14 H 0.981268 0.164620 0.368484
H16_14 H 0.987676 0.236351 0.459568
C16_14 C 0.92891(17) 0.08135(15) 0.67047(16)
C17_14 C 0.97709(19) 0.05598(18) 0.70441(18)
H18_14 H 0.969195 0.048394 0.752842
H19_14 H 0.985807 0.023009 0.680499
C18_14 C 0.8824(2) 0.04279(19) 0.67350(19)
H20_14 H 0.892739 0.009151 0.652409
H21_14 H 0.872437 0.036822 0.721660
H22_14 H 0.852318 0.057687 0.648380
C19_14 C 0.91499(17) 0.13151(16) 0.71049(18)
H23_14 H 0.884007 0.148294 0.689549
H24_14 H 0.907095 0.122359 0.758458
H25_14 H 0.944952 0.156024 0.709109
C12_14 C 0.02657(16) 0.33539(16) 0.04232(18)
C13_14 C 0.08342(18) 0.35355(18) 0.0249(2)
H8_14 H 0.087950 0.390549 0.038618
H9_14 H 0.108843 0.331490 0.049885
C14_14 C 0.0181(2) 0.34345(19) 0.11980(19)
H12_14 H 0.041633 0.319893 0.145522
H13_14 H 0.025846 0.380233 0.131907
C15_14 C 0.02196(19) 0.27702(15) 0.0247(2)
H15_14 H 0.050363 0.257422 0.047649
Fe1_15 Fe 0.90538(2) 0.35768(2) 0.97944(2)
O2_15 O 0.79657(12) 0.38646(13) 0.94869(16)
N1_15 N 0.90964(12) 0.29158(12) 0.92952(14)
C2_15 C 0.83918(18) 0.37368(16) 0.95969(18)
C3_15 C 0.91602(14) 0.25574(15) 0.89506(16)
C4_15 C 0.92437(17) 0.21142(15) 0.84878(18)
H1_15 H 0.893456 0.207262 0.818858
H2_15 H 0.955763 0.218003 0.820482
H3_15 H 0.929530 0.179102 0.875761
C5_15 C 0.98698(14) 0.36960(14) 0.92345(16)
C6_21 C 0.98794(15) 0.36801(14) 0.99999(17)
C9_15 C 0.90153(15) 0.48285(15) 0.98732(15)
H6_15 H 0.865934 0.485067 0.966369
H7_14 H 0.921744 0.515109 0.975554
C10_15 C 0.92986(14) 0.43431(13) 0.96460(15)
C11_15 C 0.94389(14) 0.40573(13) 0.90383(16)
C16_15 C 0.92891(17) 0.41865(15) 0.82953(16)
C17_15 C 0.97709(19) 0.44402(18) 0.79559(18)
H18_15 H 0.969195 0.451606 0.747158
H19_15 H 0.985807 0.476991 0.819501
C18_15 C 0.8824(2) 0.45721(19) 0.82650(19)
H20_15 H 0.892739 0.490849 0.847591
H21_15 H 0.872437 0.463178 0.778340
H22_15 H 0.852318 0.442313 0.851620
C19_15 C 0.91499(17) 0.36849(16) 0.78951(18)
H23_15 H 0.884007 0.351706 0.810451
H24_15 H 0.907095 0.377641 0.741542
H25_15 H 0.944952 0.343976 0.790891
O1_15 O 0.62604(15) 0.17729(12) 0.11739(14)
N2_15 N 0.60172(11) 0.02465(11) 0.06262(13)
C1_15 C 0.61371(17) 0.16565(15) 0.06193(19)
C6_22 C 0.51206(15) 0.13199(14) -0.00001(17)
C7_15 C 0.54363(15) 0.08840(13) 0.02175(15)
C8_15 C 0.55438(15) 0.05436(14) 0.08393(15)
H4_15 H 0.524384 0.030363 0.093562
H5_15 H 0.561523 0.076156 0.125254
C12_15 C 0.47343(16) 0.16461(16) 0.04232(18)
C13_15 C 0.41658(18) 0.14645(18) 0.0249(2)
H8_15 H 0.412050 0.109451 0.038618
H9_15 H 0.391157 0.168510 0.049885
C14_15 C 0.4819(2) 0.15655(19) 0.11980(19)
H11_15 H 0.518732 0.164620 0.131516
H12_15 H 0.458367 0.180107 0.145522
H13_15 H 0.474154 0.119767 0.131907
C15_15 C 0.47804(19) 0.22298(15) 0.0247(2)
H15_15 H 0.449637 0.242578 0.047649
H16_15 H 0.512324 0.236351 0.040432
H7_15 H 0.578256 0.984891 0.975554
C12_16 C 0.16461(16) 0.02657(16) 0.04232(18)
C13_16 C 0.14645(18) 0.08342(18) 0.0249(2)
H8_16 H 0.109451 0.087950 0.038618
H9_16 H 0.168510 0.108843 0.049885
C14_16 C 0.15655(19) 0.0181(2) 0.11980(19)
H12_16 H 0.180107 0.041633 0.145522
H13_16 H 0.119767 0.025846 0.131907
C15_16 C 0.22298(15) 0.02196(19) 0.0247(2)
H15_16 H 0.242578 0.050363 0.047649
O1_16 O 0.17729(12) 0.87396(15) 0.11739(14)
N2_16 N 0.02465(11) 0.89828(11) 0.06262(13)
C1_16 C 0.16565(15) 0.88629(17) 0.06193(19)
C6_23 C 0.13199(14) 0.98794(15) -0.00001(17)
C7_16 C 0.08840(13) 0.95637(15) 0.02175(15)
C8_16 C 0.05436(14) 0.94562(15) 0.08393(15)
H4_16 H 0.030363 0.975616 0.093562
H5_16 H 0.076156 0.938477 0.125254
H11_16 H 0.164620 0.981268 0.131516
H16_16 H 0.236351 0.987676 0.040432
Fe1_16 Fe 0.14232(2) 0.90538(2) 0.97944(2)
O2_16 O 0.11354(13) 0.79657(12) 0.94869(16)
N1_16 N 0.20842(12) 0.90964(12) 0.92952(14)
C2_16 C 0.12632(16) 0.83918(18) 0.95969(18)
C3_16 C 0.24426(15) 0.91602(14) 0.89506(16)
C4_16 C 0.28858(15) 0.92437(17) 0.84878(18)
H1_16 H 0.292738 0.893456 0.818858
H2_16 H 0.281997 0.955763 0.820482
H3_16 H 0.320898 0.929530 0.875761
C5_16 C 0.13040(14) 0.98698(14) 0.92345(16)
C6_24 C 0.13199(14) 0.98794(15) 0.99999(17)
C9_16 C 0.01715(15) 0.90153(15) 0.98732(15)
H6_16 H 0.014933 0.865934 0.966369
C10_16 C 0.06569(13) 0.92986(14) 0.96460(15)
C11_16 C 0.09427(13) 0.94389(14) 0.90383(16)
C16_16 C 0.08135(15) 0.92891(17) 0.82953(16)
C17_16 C 0.05598(18) 0.97709(19) 0.79559(18)
H18_16 H 0.048394 0.969195 0.747158
H19_16 H 0.023009 0.985807 0.819501
C18_16 C 0.04279(19) 0.8824(2) 0.82650(19)
H20_16 H 0.009151 0.892739 0.847591
H21_16 H 0.036822 0.872437 0.778340
H22_16 H 0.057687 0.852318 0.851620
C19_16 C 0.13151(16) 0.91499(17) 0.78951(18)
H23_16 H 0.148294 0.884007 0.810451
H24_16 H 0.122359 0.907095 0.741542
H25_16 H 0.156024 0.944952 0.790891
H7_16 H 0.984891 0.921744 0.975554
loop_
_geom_bond_atom_site_label_1
_geom_bond_atom_site_label_2
_geom_bond_site_symmetry_1
_geom_bond_site_symmetry_2
Fe1 N1 1_555 1_555
S1 O4 1_555 1_555
O1 C1 1_555 1_555
O2 C2 1_555 1_555
O3 C5 1_555 1_555
O4 Na2 1_555 1_555
O5 S1 1_555 1_555
O6 S1 1_555 1_555
N1 C3 1_555 1_555
N2 C8 1_555 1_555
C1 Fe1 1_555 1_555
C2 Fe1 1_555 1_555
C3 C4 1_555 1_555
C4 H1 1_555 1_555
H2 C4 1_555 1_555
H3 C4 1_555 1_555
C5 Fe1 1_555 1_555
C6 Fe1 1_555 1_555
C7 Fe1 1_555 1_555
C8 C7 1_555 1_555
H4 C8 1_555 1_555
H5 C8 1_555 1_555
C9 N2 1_555 1_555
H6 C9 1_555 1_555
H7 C9 1_555 1_555
C10 Fe1 1_555 1_555
C11 Fe1 1_555 1_555
C12 C6 1_555 1_555
C13 C12 1_555 1_555
H8 C13 1_555 1_555
H9 C13 1_555 1_555
H10 C13 1_555 1_555
C14 C12 1_555 1_555
H11 C14 1_555 1_555
H12 C14 1_555 1_555
H13 C14 1_555 1_555
C15 C12 1_555 1_555
H14 C15 1_555 1_555
H15 C15 1_555 1_555
H16 C15 1_555 1_555
C16 C11 1_555 1_555
C17 C16 1_555 1_555
H17 C17 1_555 1_555
H18 C17 1_555 1_555
H19 C17 1_555 1_555
C18 C16 1_555 1_555
H20 C18 1_555 1_555
H21 C18 1_555 1_555
H22 C18 1_555 1_555
C19 C16 1_555 1_555
H23 C19 1_555 1_555
H24 C19 1_555 1_555
H25 C19 1_555 1_555
C20 N2 1_555 1_555
H26 C20 1_555 1_555
H27 C20 1_555 1_555
C21 S1 1_555 1_555
H28 C21 1_555 1_555
H29 C21 1_555 1_555
Na1 O3 1_555 1_555
O7 Na1 1_555 1_555
O8 Na1 1_555 1_555
O9 Na1 1_555 1_555
Na3 O5 1_555 1_555
Na4 O6 1_555 1_555
C5 C6 1_555 1_555
C5 C11 1_555 1_555
C6 C7 1_555 1_555
C7 C10 1_555 1_555
C9 C10 1_555 1_555
C10 C11 1_555 1_555
C20 C21 1_555 1_555
S1_2 O4_2 1_555 1_555
O4_2 Na2_2 1_555 1_555
O5_2 S1_2 1_555 1_555
O6_2 S1_2 1_555 1_555
H26_2 C20_2 1_555 1_555
H27_2 C20_2 1_555 1_555
C21_2 S1_2 1_555 1_555
H28_2 C21_2 1_555 1_555
H29_2 C21_2 1_555 1_555
Na3_2 O5_2 1_555 1_555
Na4_2 O6_2 1_555 1_555
C20_2 C21_2 1_555 1_555
C13_2 C12_2 1_555 1_555
H8_2 C13_2 1_555 1_555
H9_2 C13_2 1_555 1_555
H10_2 C13_2 1_555 1_555
C14_2 C12_2 1_555 1_555
H12_2 C14_2 1_555 1_555
H13_2 C14_2 1_555 1_555
C15_2 C12_2 1_555 1_555
H14_2 C15_2 1_555 1_555
H15_2 C15_2 1_555 1_555
Na1_2 O3_2 1_555 1_555
O7_2 Na1_2 1_555 1_555
O8_2 Na1_2 1_555 1_555
O9_2 Na1_2 1_555 1_555
S1_3 O4_3 1_555 1_555
O4_3 Na3 1_555 1_555
O5_3 S1_3 1_555 1_555
O6_3 S1_3 1_555 1_555
H26_3 C20_3 1_555 1_555
H27_3 C20_3 1_555 1_555
C21_3 S1_3 1_555 1_555
H28_3 C21_3 1_555 1_555
H29_3 C21_3 1_555 1_555
Na2_2 O5_3 1_555 1_555
Na4_3 O6_3 1_555 1_555
C20_3 C21_3 1_555 1_555
Fe1_2 N1_2 1_555 1_555
O1_2 C1_2 1_555 1_555
O2_2 C2_2 1_555 1_555
O3_3 C5_2 1_555 1_555
N1_2 C3_2 1_555 1_555
N2_2 C8_2 1_555 1_555
C1_2 Fe1_2 1_555 1_555
C2_2 Fe1_2 1_555 1_555
C3_2 C4_2 1_555 1_555
C4_2 H1_2 1_555 1_555
H2_2 C4_2 1_555 1_555
H3_2 C4_2 1_555 1_555
C5_2 Fe1_2 1_555 1_555
C6_2 Fe1_2 1_555 1_555
C7_2 Fe1_2 1_555 1_555
C8_2 C7_2 1_555 1_555
H4_2 C8_2 1_555 1_555
H5_2 C8_2 1_555 1_555
C9_2 N2_2 1_555 1_555
H6_2 C9_2 1_555 1_555
C10_2 Fe1_2 1_555 1_555
C11_2 Fe1_2 1_555 1_555
C12_3 C6_2 1_555 1_555
C13_3 C12_3 1_555 1_555
H8_3 C13_3 1_555 1_555
H9_3 C13_3 1_555 1_555
H10_3 C13_3 1_555 1_555
C14_3 C12_3 1_555 1_555
H11_2 C14_3 1_555 1_555
H12_3 C14_3 1_555 1_555
H13_3 C14_3 1_555 1_555
C15_3 C12_3 1_555 1_555
H14_3 C15_3 1_555 1_555
H15_3 C15_3 1_555 1_555
H16_2 C15_3 1_555 1_555
C16_2 C11_2 1_555 1_555
C17_2 C16_2 1_555 1_555
H17_3 C17_2 1_555 1_555
H18_2 C17_2 1_555 1_555
H19_2 C17_2 1_555 1_555
C18_2 C16_2 1_555 1_555
H20_2 C18_2 1_555 1_555
H21_2 C18_2 1_555 1_555
H22_2 C18_2 1_555 1_555
C19_2 C16_2 1_555 1_555
H23_2 C19_2 1_555 1_555
H24_2 C19_2 1_555 1_555
H25_2 C19_2 1_555 1_555
Na1_3 O3_3 1_555 1_555
O7_3 Na1_3 1_555 1_555
O8_3 Na1_3 1_555 1_555
O9_3 Na1_3 1_555 1_555
C5_2 C6_2 1_555 1_555
C5_2 C11_2 1_555 1_555
C6_2 C7_2 1_555 1_555
C7_2 C10_2 1_555 1_555
C9_2 C10_2 1_555 1_555
C10_2 C11_2 1_555 1_555
Fe1_3 N1_3 1_555 1_555
S1_4 O4_4 1_555 1_555
O1_3 C1_3 1_555 1_555
O2_3 C2_3 1_555 1_555
O4_4 Na3_2 1_555 1_555
O5_4 S1_4 1_555 1_555
O6_4 S1_4 1_555 1_555
N1_3 C3_3 1_555 1_555
N2_3 C8_3 1_555 1_555
C1_3 Fe1_3 1_555 1_555
C2_3 Fe1_3 1_555 1_555
C3_3 C4_3 1_555 1_555
C4_3 H1_3 1_555 1_555
H2_3 C4_3 1_555 1_555
H3_3 C4_3 1_555 1_555
C5_3 Fe1_3 1_555 1_555
C6_3 Fe1_3 1_555 1_555
C7_3 Fe1_3 1_555 1_555
C8_3 C7_3 1_555 1_555
H4_3 C8_3 1_555 1_555
H5_3 C8_3 1_555 1_555
C9_3 N2_3 1_555 1_555
H6_3 C9_3 1_555 1_555
H7_4 C9_3 1_555 1_555
C10_3 Fe1_3 1_555 1_555
C11_3 Fe1_3 1_555 1_555
C16_3 C11_3 1_555 1_555
C17_3 C16_3 1_555 1_555
H18_3 C17_3 1_555 1_555
H19_3 C17_3 1_555 1_555
C18_3 C16_3 1_555 1_555
H20_3 C18_3 1_555 1_555
H21_3 C18_3 1_555 1_555
H22_3 C18_3 1_555 1_555
C19_3 C16_3 1_555 1_555
H23_3 C19_3 1_555 1_555
H24_3 C19_3 1_555 1_555
H25_3 C19_3 1_555 1_555
C20_4 N2_3 1_555 1_555
H26_4 C20_4 1_555 1_555
H27_4 C20_4 1_555 1_555
C21_4 S1_4 1_555 1_555
H28_4 C21_4 1_555 1_555
H29_4 C21_4 1_555 1_555
Na2 O5_4 1_555 1_555
Na4_4 O6_4 1_555 1_555
C5_3 C6_3 1_555 1_555
C5_3 C11_3 1_555 1_555
C6_3 C7_3 1_555 1_555
C7_3 C10_3 1_555 1_555
C9_3 C10_3 1_555 1_555
C10_3 C11_3 1_555 1_555
C20_4 C21_4 1_555 1_555
C13_4 C12_4 1_555 1_555
H8_4 C13_4 1_555 1_555
H9_4 C13_4 1_555 1_555
H10_4 C13_4 1_555 1_555
C14_4 C12_4 1_555 1_555
H12_4 C14_4 1_555 1_555
H13_4 C14_4 1_555 1_555
C15_4 C12_4 1_555 1_555
H14_4 C15_4 1_555 1_555
H15_4 C15_4 1_555 1_555
Na1_4 O3_4 1_555 1_555
O7_4 Na1_4 1_555 1_555
O8_4 Na1_4 1_555 1_555
O9_4 Na1_4 1_555 1_555
S1_5 O4_5 1_555 1_555
O1_4 C1_4 1_555 1_555
O4_5 Na4_3 1_555 1_555
O5_5 S1_5 1_555 1_555
O6_5 S1_5 1_555 1_555
N2_4 C8_4 1_555 1_555
C8_4 C7_4 1_555 1_555
H4_4 C8_4 1_555 1_555
H5_4 C8_4 1_555 1_555
C20_5 N2_4 1_555 1_555
H26_5 C20_5 1_555 1_555
H27_5 C20_5 1_555 1_555
C21_5 S1_5 1_555 1_555
H28_5 C21_5 1_555 1_555
H29_5 C21_5 1_555 1_555
Na4 O5_5 1_555 1_555
Na3 O6_5 1_555 1_555
C6_4 C7_4 1_555 1_555
C20_5 C21_5 1_555 1_555
Na1_5 O3_5 1_555 1_555
O7_5 Na1_5 1_555 1_555
O8_5 Na1_5 1_555 1_555
O9_5 Na1_5 1_555 1_555
S1_6 O4_6 1_555 1_555
O4_6 Na4_4 1_555 1_555
O5_6 S1_6 1_555 1_555
O6_6 S1_6 1_555 1_555
H26_6 C20_6 1_555 1_555
H27_6 C20_6 1_555 1_555
C21_6 S1_6 1_555 1_555
H28_6 C21_6 1_555 1_555
H29_6 C21_6 1_555 1_555
Na4_2 O5_6 1_555 1_555
Na3_2 O6_6 1_555 1_555
C20_6 C21_6 1_555 1_555
Fe1_4 N1_4 1_555 1_555
O2_4 C2_4 1_555 1_555
O3_6 C5_4 1_555 1_555
N1_4 C3_4 1_555 1_555
C2_4 Fe1_4 1_555 1_555
C3_4 C4_4 1_555 1_555
C4_4 H1_4 1_555 1_555
H2_4 C4_4 1_555 1_555
H3_4 C4_4 1_555 1_555
C5_4 Fe1_4 1_555 1_555
C6_5 Fe1_4 1_555 1_555
H6_4 C9_4 1_555 1_555
C10_4 Fe1_4 1_555 1_555
C11_4 Fe1_4 1_555 1_555
C16_4 C11_4 1_555 1_555
C17_4 C16_4 1_555 1_555
H17_6 C17_4 1_555 1_555
H18_4 C17_4 1_555 1_555
H19_4 C17_4 1_555 1_555
C18_4 C16_4 1_555 1_555
H20_4 C18_4 1_555 1_555
H21_4 C18_4 1_555 1_555
H22_4 C18_4 1_555 1_555
C19_4 C16_4 1_555 1_555
H23_4 C19_4 1_555 1_555
H24_4 C19_4 1_555 1_555
H25_4 C19_4 1_555 1_555
Na1_6 O3_6 1_555 1_555
O7_6 Na1_6 1_555 1_555
O8_6 Na1_6 1_555 1_555
O9_6 Na1_6 1_555 1_555
C5_4 C6_5 1_555 1_555
C5_4 C11_4 1_555 1_555
C9_4 C10_4 1_555 1_555
C10_4 C11_4 1_555 1_555
Fe1_5 N1_5 1_555 1_555
O2_5 C2_5 1_555 1_555
O3_7 C5_5 1_555 1_555
N1_5 C3_5 1_555 1_555
C2_5 Fe1_5 1_555 1_555
C3_5 C4_5 1_555 1_555
C4_5 H1_5 1_555 1_555
H2_5 C4_5 1_555 1_555
H3_5 C4_5 1_555 1_555
C5_5 Fe1_5 1_555 1_555
C6_6 Fe1_5 1_555 1_555
H6_5 C9_5 1_555 1_555
H7_5 C9_5 1_555 1_555
C10_5 Fe1_5 1_555 1_555
C11_5 Fe1_5 1_555 1_555
C16_5 C11_5 1_555 1_555
C17_5 C16_5 1_555 1_555
H17_7 C17_5 1_555 1_555
H18_5 C17_5 1_555 1_555
H19_5 C17_5 1_555 1_555
C18_5 C16_5 1_555 1_555
H20_5 C18_5 1_555 1_555
H21_5 C18_5 1_555 1_555
H22_5 C18_5 1_555 1_555
C19_5 C16_5 1_555 1_555
H23_5 C19_5 1_555 1_555
H24_5 C19_5 1_555 1_555
H25_5 C19_5 1_555 1_555
Na1_7 O3_7 1_555 1_555
O7_7 Na1_7 1_555 1_555
O8_7 Na1_7 1_555 1_555
O9_7 Na1_7 1_555 1_555
C5_5 C6_6 1_555 1_555
C5_5 C11_5 1_555 1_555
C9_5 C10_5 1_555 1_555
C10_5 C11_5 1_555 1_555
S1_7 O4_7 1_555 1_555
O1_5 C1_5 1_555 1_555
O4_7 Na4 1_555 1_555
O5_7 S1_7 1_555 1_555
O6_7 S1_7 1_555 1_555
N2_5 C8_5 1_555 1_555
C8_5 C7_5 1_555 1_555
H4_5 C8_5 1_555 1_555
H5_5 C8_5 1_555 1_555
C12_5 C6_7 1_555 1_555
C13_5 C12_5 1_555 1_555
H8_5 C13_5 1_555 1_555
H9_5 C13_5 1_555 1_555
C14_5 C12_5 1_555 1_555
H11_5 C14_5 1_555 1_555
H12_5 C14_5 1_555 1_555
H13_5 C14_5 1_555 1_555
C15_5 C12_5 1_555 1_555
H15_5 C15_5 1_555 1_555
H16_5 C15_5 1_555 1_555
C20_7 N2_5 1_555 1_555
H26_7 C20_7 1_555 1_555
H27_7 C20_7 1_555 1_555
C21_7 S1_7 1_555 1_555
H28_7 C21_7 1_555 1_555
H29_7 C21_7 1_555 1_555
Na4_4 O5_7 1_555 1_555
Na2 O6_7 1_555 1_555
C6_7 C7_5 1_555 1_555
C20_7 C21_7 1_555 1_555
S1_8 O4_8 1_555 1_555
O4_8 Na4_2 1_555 1_555
O5_8 S1_8 1_555 1_555
O6_8 S1_8 1_555 1_555
H26_8 C20_8 1_555 1_555
H27_8 C20_8 1_555 1_555
C21_8 S1_8 1_555 1_555
H28_8 C21_8 1_555 1_555
H29_8 C21_8 1_555 1_555
Na4_3 O5_8 1_555 1_555
Na2_2 O6_8 1_555 1_555
C20_8 C21_8 1_555 1_555
Na1_8 O3_8 1_555 1_555
O7_8 Na1_8 1_555 1_555
O8_8 Na1_8 1_555 1_555
O9_8 Na1_8 1_555 1_555
Fe1_6 N1_6 1_555 1_555
S1_9 O7 1_555 1_555
O1_6 C1_6 1_555 1_555
O2_6 C2_6 1_555 1_555
O3_9 C5_6 1_555 1_555
O8_3 S1_9 1_555 1_555
O9_7 S1_9 1_555 1_555
N1_6 C3_6 1_555 1_555
N2_6 C8_6 1_555 1_555
C1_6 Fe1_6 1_555 1_555
C2_6 Fe1_6 1_555 1_555
C3_6 C4_6 1_555 1_555
C4_6 H1_6 1_555 1_555
H2_6 C4_6 1_555 1_555
H3_6 C4_6 1_555 1_555
C5_6 Fe1_6 1_555 1_555
C6_8 Fe1_6 1_555 1_555
C7_6 Fe1_6 1_555 1_555
C8_6 C7_6 1_555 1_555
H4_6 C8_6 1_555 1_555
H5_6 C8_6 1_555 1_555
C9_6 N2_6 1_555 1_555
H6_6 C9_6 1_555 1_555
H7_6 C9_6 1_555 1_555
C10_6 Fe1_6 1_555 1_555
C11_6 Fe1_6 1_555 1_555
C12_6 C6_8 1_555 1_555
C13_6 C12_6 1_555 1_555
H8_6 C13_6 1_555 1_555
H9_6 C13_6 1_555 1_555
H10_9 C13_6 1_555 1_555
C14_6 C12_6 1_555 1_555
H11_6 C14_6 1_555 1_555
H12_6 C14_6 1_555 1_555
H13_6 C14_6 1_555 1_555
C15_6 C12_6 1_555 1_555
H14_9 C15_6 1_555 1_555
H15_6 C15_6 1_555 1_555
H16_6 C15_6 1_555 1_555
C16_6 C11_6 1_555 1_555
C17_6 C16_6 1_555 1_555
H17_9 C17_6 1_555 1_555
H18_6 C17_6 1_555 1_555
H19_6 C17_6 1_555 1_555
C18_6 C16_6 1_555 1_555
H20_6 C18_6 1_555 1_555
H21_6 C18_6 1_555 1_555
H22_6 C18_6 1_555 1_555
C19_6 C16_6 1_555 1_555
H23_6 C19_6 1_555 1_555
H24_6 C19_6 1_555 1_555
H25_6 C19_6 1_555 1_555
C20_9 N2_6 1_555 1_555
H26_9 C20_9 1_555 1_555
H27_9 C20_9 1_555 1_555
C21_9 S1_9 1_555 1_555
H28_9 C21_9 1_555 1_555
H29_9 C21_9 1_555 1_555
Na2 O3_9 1_555 1_555
C5_6 C6_8 1_555 1_555
C5_6 C11_6 1_555 1_555
C6_8 C7_6 1_555 1_555
C7_6 C10_6 1_555 1_555
C9_6 C10_6 1_555 1_555
C10_6 C11_6 1_555 1_555
C20_9 C21_9 1_555 1_555
C13_7 C12_7 1_555 1_555
H8_7 C13_7 1_555 1_555
H9_7 C13_7 1_555 1_555
H10_10 C13_7 1_555 1_555
C14_7 C12_7 1_555 1_555
H12_7 C14_7 1_555 1_555
H13_7 C14_7 1_555 1_555
C15_7 C12_7 1_555 1_555
H14_10 C15_7 1_555 1_555
H15_7 C15_7 1_555 1_555
Na2_2 O3_10 1_555 1_555
S1_10 O7_2 1_555 1_555
O8_4 S1_10 1_555 1_555
O9_8 S1_10 1_555 1_555
H26_10 C20_10 1_555 1_555
H27_10 C20_10 1_555 1_555
C21_10 S1_10 1_555 1_555
H28_10 C21_10 1_555 1_555
H29_10 C21_10 1_555 1_555
C20_10 C21_10 1_555 1_555
Fe1_7 N1_7 1_555 1_555
O1_7 C1_7 1_555 1_555
O2_7 C2_7 1_555 1_555
O3_11 C5_7 1_555 1_555
N1_7 C3_7 1_555 1_555
N2_7 C8_7 1_555 1_555
C1_7 Fe1_7 1_555 1_555
C2_7 Fe1_7 1_555 1_555
C3_7 C4_7 1_555 1_555
C4_7 H1_7 1_555 1_555
H2_7 C4_7 1_555 1_555
H3_7 C4_7 1_555 1_555
C5_7 Fe1_7 1_555 1_555
C6_9 Fe1_7 1_555 1_555
C7_7 Fe1_7 1_555 1_555
C8_7 C7_7 1_555 1_555
H4_7 C8_7 1_555 1_555
H5_7 C8_7 1_555 1_555
C9_7 N2_7 1_555 1_555
H6_7 C9_7 1_555 1_555
C10_7 Fe1_7 1_555 1_555
C11_7 Fe1_7 1_555 1_555
C12_8 C6_9 1_555 1_555
C13_8 C12_8 1_555 1_555
H8_8 C13_8 1_555 1_555
H9_8 C13_8 1_555 1_555
H10_11 C13_8 1_555 1_555
C14_8 C12_8 1_555 1_555
H11_7 C14_8 1_555 1_555
H12_8 C14_8 1_555 1_555
H13_8 C14_8 1_555 1_555
C15_8 C12_8 1_555 1_555
H14_11 C15_8 1_555 1_555
H15_8 C15_8 1_555 1_555
H16_7 C15_8 1_555 1_555
C16_7 C11_7 1_555 1_555
C17_7 C16_7 1_555 1_555
H17_11 C17_7 1_555 1_555
H18_7 C17_7 1_555 1_555
H19_7 C17_7 1_555 1_555
C18_7 C16_7 1_555 1_555
H20_7 C18_7 1_555 1_555
H21_7 C18_7 1_555 1_555
H22_7 C18_7 1_555 1_555
C19_7 C16_7 1_555 1_555
H23_7 C19_7 1_555 1_555
H24_7 C19_7 1_555 1_555
H25_7 C19_7 1_555 1_555
Na3 O3_11 1_555 1_555
C5_7 C6_9 1_555 1_555
C5_7 C11_7 1_555 1_555
C6_9 C7_7 1_555 1_555
C7_7 C10_7 1_555 1_555
C9_7 C10_7 1_555 1_555
C10_7 C11_7 1_555 1_555
S1_11 O7_3 1_555 1_555
O8_2 S1_11 1_555 1_555
O9_5 S1_11 1_555 1_555
H26_11 C20_11 1_555 1_555
H27_11 C20_11 1_555 1_555
C21_11 S1_11 1_555 1_555
H28_11 C21_11 1_555 1_555
H29_11 C21_11 1_555 1_555
C20_11 C21_11 1_555 1_555
C13_9 C12_9 1_555 1_555
H8_9 C13_9 1_555 1_555
H9_9 C13_9 1_555 1_555
H10_12 C13_9 1_555 1_555
C14_9 C12_9 1_555 1_555
H12_9 C14_9 1_555 1_555
H13_9 C14_9 1_555 1_555
C15_9 C12_9 1_555 1_555
H14_12 C15_9 1_555 1_555
H15_9 C15_9 1_555 1_555
Na3_2 O3_12 1_555 1_555
Fe1_8 N1_8 1_555 1_555
S1_12 O7_4 1_555 1_555
O1_8 C1_8 1_555 1_555
O2_8 C2_8 1_555 1_555
O8 S1_12 1_555 1_555
O9_6 S1_12 1_555 1_555
N1_8 C3_8 1_555 1_555
N2_8 C8_8 1_555 1_555
C1_8 Fe1_8 1_555 1_555
C2_8 Fe1_8 1_555 1_555
C3_8 C4_8 1_555 1_555
C4_8 H1_8 1_555 1_555
H2_8 C4_8 1_555 1_555
H3_8 C4_8 1_555 1_555
C5_8 Fe1_8 1_555 1_555
C6_10 Fe1_8 1_555 1_555
C7_8 Fe1_8 1_555 1_555
C8_8 C7_8 1_555 1_555
H4_8 C8_8 1_555 1_555
H5_8 C8_8 1_555 1_555
C9_8 N2_8 1_555 1_555
H6_8 C9_8 1_555 1_555
H7_9 C9_8 1_555 1_555
C10_8 Fe1_8 1_555 1_555
C11_8 Fe1_8 1_555 1_555
C16_8 C11_8 1_555 1_555
C17_8 C16_8 1_555 1_555
H18_8 C17_8 1_555 1_555
H19_8 C17_8 1_555 1_555
C18_8 C16_8 1_555 1_555
H20_8 C18_8 1_555 1_555
H21_8 C18_8 1_555 1_555
H22_8 C18_8 1_555 1_555
C19_8 C16_8 1_555 1_555
H23_8 C19_8 1_555 1_555
H24_8 C19_8 1_555 1_555
H25_8 C19_8 1_555 1_555
C20_12 N2_8 1_555 1_555
H26_12 C20_12 1_555 1_555
H27_12 C20_12 1_555 1_555
C21_12 S1_12 1_555 1_555
H28_12 C21_12 1_555 1_555
H29_12 C21_12 1_555 1_555
C5_8 C6_10 1_555 1_555
C5_8 C11_8 1_555 1_555
C6_10 C7_8 1_555 1_555
C7_8 C10_8 1_555 1_555
C9_8 C10_8 1_555 1_555
C10_8 C11_8 1_555 1_555
C20_12 C21_12 1_555 1_555
Na4_3 O3_13 1_555 1_555
S1_13 O7_5 1_555 1_555
O1_9 C1_9 1_555 1_555
O8_7 S1_13 1_555 1_555
O9_3 S1_13 1_555 1_555
N2_9 C8_9 1_555 1_555
C8_9 C7_9 1_555 1_555
H4_9 C8_9 1_555 1_555
H5_9 C8_9 1_555 1_555
C20_13 N2_9 1_555 1_555
H26_13 C20_13 1_555 1_555
H27_13 C20_13 1_555 1_555
C21_13 S1_13 1_555 1_555
H28_13 C21_13 1_555 1_555
H29_13 C21_13 1_555 1_555
C6_11 C7_9 1_555 1_555
C20_13 C21_13 1_555 1_555
Fe1_9 N1_9 1_555 1_555
O2_9 C2_9 1_555 1_555
O3_14 C5_9 1_555 1_555
N1_9 C3_9 1_555 1_555
C2_9 Fe1_9 1_555 1_555
C3_9 C4_9 1_555 1_555
C4_9 H1_9 1_555 1_555
H2_9 C4_9 1_555 1_555
H3_9 C4_9 1_555 1_555
C5_9 Fe1_9 1_555 1_555
C6_12 Fe1_9 1_555 1_555
H6_9 C9_9 1_555 1_555
C10_9 Fe1_9 1_555 1_555
C11_9 Fe1_9 1_555 1_555
C16_9 C11_9 1_555 1_555
C17_9 C16_9 1_555 1_555
H17_14 C17_9 1_555 1_555
H18_9 C17_9 1_555 1_555
H19_9 C17_9 1_555 1_555
C18_9 C16_9 1_555 1_555
H20_9 C18_9 1_555 1_555
H21_9 C18_9 1_555 1_555
H22_9 C18_9 1_555 1_555
C19_9 C16_9 1_555 1_555
H23_9 C19_9 1_555 1_555
H24_9 C19_9 1_555 1_555
H25_9 C19_9 1_555 1_555
Na4_4 O3_14 1_555 1_555
C5_9 C6_12 1_555 1_555
C5_9 C11_9 1_555 1_555
C9_9 C10_9 1_555 1_555
C10_9 C11_9 1_555 1_555
S1_14 O7_6 1_555 1_555
O8_8 S1_14 1_555 1_555
O9_4 S1_14 1_555 1_555
H26_14 C20_14 1_555 1_555
H27_14 C20_14 1_555 1_555
C21_14 S1_14 1_555 1_555
H28_14 C21_14 1_555 1_555
H29_14 C21_14 1_555 1_555
C20_14 C21_14 1_555 1_555
S1_15 O7_7 1_555 1_555
O1_10 C1_10 1_555 1_555
O8_6 S1_15 1_555 1_555
O9 S1_15 1_555 1_555
N2_10 C8_10 1_555 1_555
C8_10 C7_10 1_555 1_555
H4_10 C8_10 1_555 1_555
H5_10 C8_10 1_555 1_555
C12_10 C6_13 1_555 1_555
C13_10 C12_10 1_555 1_555
H8_10 C13_10 1_555 1_555
H9_10 C13_10 1_555 1_555
C14_10 C12_10 1_555 1_555
H11_10 C14_10 1_555 1_555
H12_10 C14_10 1_555 1_555
H13_10 C14_10 1_555 1_555
C15_10 C12_10 1_555 1_555
H15_10 C15_10 1_555 1_555
H16_10 C15_10 1_555 1_555
C20_15 N2_10 1_555 1_555
H26_15 C20_15 1_555 1_555
H27_15 C20_15 1_555 1_555
C21_15 S1_15 1_555 1_555
H28_15 C21_15 1_555 1_555
H29_15 C21_15 1_555 1_555
C6_13 C7_10 1_555 1_555
C20_15 C21_15 1_555 1_555
Fe1_10 N1_10 1_555 1_555
O2_10 C2_10 1_555 1_555
O3_15 C5_10 1_555 1_555
N1_10 C3_10 1_555 1_555
C2_10 Fe1_10 1_555 1_555
C3_10 C4_10 1_555 1_555
C4_10 H1_10 1_555 1_555
H2_10 C4_10 1_555 1_555
H3_10 C4_10 1_555 1_555
C5_10 Fe1_10 1_555 1_555
C6_14 Fe1_10 1_555 1_555
H6_10 C9_10 1_555 1_555
H7_10 C9_10 1_555 1_555
C10_10 Fe1_10 1_555 1_555
C11_10 Fe1_10 1_555 1_555
C16_10 C11_10 1_555 1_555
C17_10 C16_10 1_555 1_555
H17_15 C17_10 1_555 1_555
H18_10 C17_10 1_555 1_555
H19_10 C17_10 1_555 1_555
C18_10 C16_10 1_555 1_555
H20_10 C18_10 1_555 1_555
H21_10 C18_10 1_555 1_555
H22_10 C18_10 1_555 1_555
C19_10 C16_10 1_555 1_555
H23_10 C19_10 1_555 1_555
H24_10 C19_10 1_555 1_555
H25_10 C19_10 1_555 1_555
Na4 O3_15 1_555 1_555
C5_10 C6_14 1_555 1_555
C5_10 C11_10 1_555 1_555
C9_10 C10_10 1_555 1_555
C10_10 C11_10 1_555 1_555
Na4_2 O3_16 1_555 1_555
S1_16 O7_8 1_555 1_555
O8_5 S1_16 1_555 1_555
O9_2 S1_16 1_555 1_555
H26_16 C20_16 1_555 1_555
H27_16 C20_16 1_555 1_555
C21_16 S1_16 1_555 1_555
H28_16 C21_16 1_555 1_555
H29_16 C21_16 1_555 1_555
C20_16 C21_16 1_555 1_555
Fe1_11 N1_11 1_555 1_555
O1_11 C1_11 1_555 1_555
O2_11 C2_11 1_555 1_555
N1_11 C3_11 1_555 1_555
N2_11 C8_11 1_555 1_555
C1_11 Fe1_11 1_555 1_555
C2_11 Fe1_11 1_555 1_555
C3_11 C4_11 1_555 1_555
C4_11 H1_11 1_555 1_555
H2_11 C4_11 1_555 1_555
H3_11 C4_11 1_555 1_555
C5_11 Fe1_11 1_555 1_555
C6_15 Fe1_11 1_555 1_555
C7_11 Fe1_11 1_555 1_555
C8_11 C7_11 1_555 1_555
H4_11 C8_11 1_555 1_555
H5_11 C8_11 1_555 1_555
C9_11 N2_11 1_555 1_555
H6_11 C9_11 1_555 1_555
C10_11 Fe1_11 1_555 1_555
C11_11 Fe1_11 1_555 1_555
C16_11 C11_11 1_555 1_555
C17_11 C16_11 1_555 1_555
H18_11 C17_11 1_555 1_555
H19_11 C17_11 1_555 1_555
C18_11 C16_11 1_555 1_555
H20_11 C18_11 1_555 1_555
H21_11 C18_11 1_555 1_555
H22_11 C18_11 1_555 1_555
C19_11 C16_11 1_555 1_555
H23_11 C19_11 1_555 1_555
H24_11 C19_11 1_555 1_555
H25_11 C19_11 1_555 1_555
C5_11 C6_15 1_555 1_555
C5_11 C11_11 1_555 1_555
C6_15 C7_11 1_555 1_555
C7_11 C10_11 1_555 1_555
C9_11 C10_11 1_555 1_555
C10_11 C11_11 1_555 1_555
Fe1_12 N1_12 1_555 1_555
O2_12 C2_12 1_555 1_555
N1_12 C3_12 1_555 1_555
C2_12 Fe1_12 1_555 1_555
C3_12 C4_12 1_555 1_555
C4_12 H1_12 1_555 1_555
H2_12 C4_12 1_555 1_555
H3_12 C4_12 1_555 1_555
C5_12 Fe1_12 1_555 1_555
C6_16 Fe1_12 1_555 1_555
H6_12 C9_12 1_555 1_555
H7_11 C9_12 1_555 1_555
C10_12 Fe1_12 1_555 1_555
C11_12 Fe1_12 1_555 1_555
C16_12 C11_12 1_555 1_555
C17_12 C16_12 1_555 1_555
H18_12 C17_12 1_555 1_555
H19_12 C17_12 1_555 1_555
C18_12 C16_12 1_555 1_555
H20_12 C18_12 1_555 1_555
H21_12 C18_12 1_555 1_555
H22_12 C18_12 1_555 1_555
C19_12 C16_12 1_555 1_555
H23_12 C19_12 1_555 1_555
H24_12 C19_12 1_555 1_555
H25_12 C19_12 1_555 1_555
C5_12 C6_16 1_555 1_555
C5_12 C11_12 1_555 1_555
C9_12 C10_12 1_555 1_555
C10_12 C11_12 1_555 1_555
C13_11 C12_11 1_555 1_555
H8_11 C13_11 1_555 1_555
H9_11 C13_11 1_555 1_555
C14_11 C12_11 1_555 1_555
H12_11 C14_11 1_555 1_555
H13_11 C14_11 1_555 1_555
C15_11 C12_11 1_555 1_555
H15_11 C15_11 1_555 1_555
O1_12 C1_12 1_555 1_555
N2_12 C8_12 1_555 1_555
C8_12 C7_12 1_555 1_555
H4_12 C8_12 1_555 1_555
H5_12 C8_12 1_555 1_555
C12_12 C6_17 1_555 1_555
C13_12 C12_12 1_555 1_555
H8_12 C13_12 1_555 1_555
H9_12 C13_12 1_555 1_555
C14_12 C12_12 1_555 1_555
H11_12 C14_12 1_555 1_555
H12_12 C14_12 1_555 1_555
H13_12 C14_12 1_555 1_555
C15_12 C12_12 1_555 1_555
H15_12 C15_12 1_555 1_555
H16_12 C15_12 1_555 1_555
C6_17 C7_12 1_555 1_555
Fe1_13 N1_13 1_555 1_555
O2_13 C2_13 1_555 1_555
N1_13 C3_13 1_555 1_555
C2_13 Fe1_13 1_555 1_555
C3_13 C4_13 1_555 1_555
C4_13 H1_13 1_555 1_555
H2_13 C4_13 1_555 1_555
H3_13 C4_13 1_555 1_555
C5_13 Fe1_13 1_555 1_555
C6_18 Fe1_13 1_555 1_555
H6_13 C9_13 1_555 1_555
C10_13 Fe1_13 1_555 1_555
C11_13 Fe1_13 1_555 1_555
C16_13 C11_13 1_555 1_555
C17_13 C16_13 1_555 1_555
H18_13 C17_13 1_555 1_555
H19_13 C17_13 1_555 1_555
C18_13 C16_13 1_555 1_555
H20_13 C18_13 1_555 1_555
H21_13 C18_13 1_555 1_555
H22_13 C18_13 1_555 1_555
C19_13 C16_13 1_555 1_555
H23_13 C19_13 1_555 1_555
H24_13 C19_13 1_555 1_555
H25_13 C19_13 1_555 1_555
C5_13 C6_18 1_555 1_555
C5_13 C11_13 1_555 1_555
C9_13 C10_13 1_555 1_555
C10_13 C11_13 1_555 1_555
O1_13 C1_13 1_555 1_555
N2_13 C8_13 1_555 1_555
C8_13 C7_13 1_555 1_555
H4_13 C8_13 1_555 1_555
H5_13 C8_13 1_555 1_555
C6_19 C7_13 1_555 1_555
C13_13 C12_13 1_555 1_555
H8_13 C13_13 1_555 1_555
H9_13 C13_13 1_555 1_555
C14_13 C12_13 1_555 1_555
H12_13 C14_13 1_555 1_555
H13_13 C14_13 1_555 1_555
C15_13 C12_13 1_555 1_555
H15_13 C15_13 1_555 1_555
Fe1_14 N1_14 1_555 1_555
O1_14 C1_14 1_555 1_555
O2_14 C2_14 1_555 1_555
N1_14 C3_14 1_555 1_555
N2_14 C8_14 1_555 1_555
C1_14 Fe1_14 1_555 1_555
C2_14 Fe1_14 1_555 1_555
C3_14 C4_14 1_555 1_555
C4_14 H1_14 1_555 1_555
H2_14 C4_14 1_555 1_555
H3_14 C4_14 1_555 1_555
C5_14 Fe1_14 1_555 1_555
C6_20 Fe1_14 1_555 1_555
C7_14 Fe1_14 1_555 1_555
C8_14 C7_14 1_555 1_555
H4_14 C8_14 1_555 1_555
H5_14 C8_14 1_555 1_555
C9_14 N2_14 1_555 1_555
H6_14 C9_14 1_555 1_555
C10_14 Fe1_14 1_555 1_555
C11_14 Fe1_14 1_555 1_555
C16_14 C11_14 1_555 1_555
C17_14 C16_14 1_555 1_555
H18_14 C17_14 1_555 1_555
H19_14 C17_14 1_555 1_555
C18_14 C16_14 1_555 1_555
H20_14 C18_14 1_555 1_555
H21_14 C18_14 1_555 1_555
H22_14 C18_14 1_555 1_555
C19_14 C16_14 1_555 1_555
H23_14 C19_14 1_555 1_555
H24_14 C19_14 1_555 1_555
H25_14 C19_14 1_555 1_555
C5_14 C6_20 1_555 1_555
C5_14 C11_14 1_555 1_555
C6_20 C7_14 1_555 1_555
C7_14 C10_14 1_555 1_555
C9_14 C10_14 1_555 1_555
C10_14 C11_14 1_555 1_555
C13_14 C12_14 1_555 1_555
H8_14 C13_14 1_555 1_555
H9_14 C13_14 1_555 1_555
C14_14 C12_14 1_555 1_555
H12_14 C14_14 1_555 1_555
H13_14 C14_14 1_555 1_555
C15_14 C12_14 1_555 1_555
H15_14 C15_14 1_555 1_555
Fe1_15 N1_15 1_555 1_555
O2_15 C2_15 1_555 1_555
N1_15 C3_15 1_555 1_555
C2_15 Fe1_15 1_555 1_555
C3_15 C4_15 1_555 1_555
C4_15 H1_15 1_555 1_555
H2_15 C4_15 1_555 1_555
H3_15 C4_15 1_555 1_555
C5_15 Fe1_15 1_555 1_555
C6_21 Fe1_15 1_555 1_555
H6_15 C9_15 1_555 1_555
H7_14 C9_15 1_555 1_555
C10_15 Fe1_15 1_555 1_555
C11_15 Fe1_15 1_555 1_555
C16_15 C11_15 1_555 1_555
C17_15 C16_15 1_555 1_555
H18_15 C17_15 1_555 1_555
H19_15 C17_15 1_555 1_555
C18_15 C16_15 1_555 1_555
H20_15 C18_15 1_555 1_555
H21_15 C18_15 1_555 1_555
H22_15 C18_15 1_555 1_555
C19_15 C16_15 1_555 1_555
H23_15 C19_15 1_555 1_555
H24_15 C19_15 1_555 1_555
H25_15 C19_15 1_555 1_555
C5_15 C6_21 1_555 1_555
C5_15 C11_15 1_555 1_555
C9_15 C10_15 1_555 1_555
C10_15 C11_15 1_555 1_555
O1_15 C1_15 1_555 1_555
N2_15 C8_15 1_555 1_555
C8_15 C7_15 1_555 1_555
H4_15 C8_15 1_555 1_555
H5_15 C8_15 1_555 1_555
C12_15 C6_22 1_555 1_555
C13_15 C12_15 1_555 1_555
H8_15 C13_15 1_555 1_555
H9_15 C13_15 1_555 1_555
C14_15 C12_15 1_555 1_555
H11_15 C14_15 1_555 1_555
H12_15 C14_15 1_555 1_555
H13_15 C14_15 1_555 1_555
C15_15 C12_15 1_555 1_555
H15_15 C15_15 1_555 1_555
H16_15 C15_15 1_555 1_555
C6_22 C7_15 1_555 1_555
C13_16 C12_16 1_555 1_555
H8_16 C13_16 1_555 1_555
H9_16 C13_16 1_555 1_555
C14_16 C12_16 1_555 1_555
H12_16 C14_16 1_555 1_555
H13_16 C14_16 1_555 1_555
C15_16 C12_16 1_555 1_555
H15_16 C15_16 1_555 1_555
O1_16 C1_16 1_555 1_555
N2_16 C8_16 1_555 1_555
C8_16 C7_16 1_555 1_555
H4_16 C8_16 1_555 1_555
H5_16 C8_16 1_555 1_555
C6_23 C7_16 1_555 1_555
Fe1_16 N1_16 1_555 1_555
O2_16 C2_16 1_555 1_555
N1_16 C3_16 1_555 1_555
C2_16 Fe1_16 1_555 1_555
C3_16 C4_16 1_555 1_555
C4_16 H1_16 1_555 1_555
H2_16 C4_16 1_555 1_555
H3_16 C4_16 1_555 1_555
C5_16 Fe1_16 1_555 1_555
C6_24 Fe1_16 1_555 1_555
H6_16 C9_16 1_555 1_555
C10_16 Fe1_16 1_555 1_555
C11_16 Fe1_16 1_555 1_555
C16_16 C11_16 1_555 1_555
C17_16 C16_16 1_555 1_555
H18_16 C17_16 1_555 1_555
H19_16 C17_16 1_555 1_555
C18_16 C16_16 1_555 1_555
H20_16 C18_16 1_555 1_555
H21_16 C18_16 1_555 1_555
H22_16 C18_16 1_555 1_555
C19_16 C16_16 1_555 1_555
H23_16 C19_16 1_555 1_555
H24_16 C19_16 1_555 1_555
H25_16 C19_16 1_555 1_555
C5_16 C6_24 1_555 1_555
C5_16 C11_16 1_555 1_555
C9_16 C10_16 1_555 1_555
C10_16 C11_16 1_555 1_555

#END
