
###############################################################################
#
# This file contains modified crystal structure data generated from the
# MOF subset of the Cambridge Structural Database (CSD) v543 
# hosted by the Cambridge Crystallographic Data Centre (CCDC).
#
# This work is licensed under the Creative Commons
# Attribution-NonCommercial-ShareAlike 4.0 International License.
# To view a copy of this license, visit
# http://creativecommons.org/licenses/by-nc-sa/4.0/
# or send a letter to
# Creative Commons, PO Box 1866, Mountain View, CA 94042, USA.
#
# CIF created using the CSD Python API on 29 September 2022
# The structure has been converted into the P1 space group
# The structure has a 3D framework
# The original CSD entry PELRIJ is in the cubic crystal system
# The framework has been calculated to contain at least 10.0% void space
# The void calculation uses a probe of radius 1.32A, grid spacing 0.4
# H atom positions have been added when not included in the experimental data
# Generated hydrogen atom positions removed from atoms on special positions
#
###############################################################################

data_PELRIJ
_chemical_formula_moiety         '(C480 H384 Cu24 N48 O144)n'
_symmetry_cell_setting           triclinic
_symmetry_space_group_name_H-M   'P 1'
_symmetry_Int_Tables_number      1
_space_group_name_Hall           'P 1'
loop_
_symmetry_equiv_pos_site_id
_symmetry_equiv_pos_as_xyz
1 x,y,z
_cell_length_a                   32.365(4)
_cell_length_b                   32.365(4)
_cell_length_c                   32.365(4)
_cell_angle_alpha                90
_cell_angle_beta                 90
_cell_angle_gamma                90
_cell_volume                     33902.1
loop_
_atom_site_label
_atom_site_type_symbol
_atom_site_fract_x
_atom_site_fract_y
_atom_site_fract_z
Cu10 Cu 0.7500 0.2500 0.04042(6)
O16 O 0.7154(3) 0.2005(3) 0.0339(2)
H11 H 0.6140 0.0289 0.0141
C40 C 0.64700(14) 0.09819(16) 0.0298(2)
H26 H 0.6390 0.0857 0.0552
C45 C 0.67213(14) 0.13302(16) 0.0301(2)
H31 H 0.6813 0.1443 0.0556
Cu8 Cu 0.2500 0.04042(6) 0.7500
Cu9 Cu 0.7500 0.2500 0.95958(6)
O9 O 0.71573(19) 0.20328(19) 0.96364(19)
O15 O 0.2995(3) 0.0339(2) 0.7846(3)
O27 O 0.5744(4) 0.0554(5) 0.9331(7)
N6 N 0.6104(4) 0.0465(3) 0.9937(3)
H10 H 0.4711 0.0141 0.8860
C15 C 0.71000(14) 0.19007(16) 0.9979(2)
C20 C 0.68385(14) 0.15130(16) 0.9930(2)
C25 C 0.67044(14) 0.13476(16) 0.9557(2)
H16 H 0.6784 0.1473 0.9304
C30 C 0.64531(14) 0.09993(16) 0.9555(2)
H21 H 0.6361 0.0886 0.9300
C35 C 0.63359(14) 0.08165(16) 0.9925(2)
C39 C 0.40181(16) 0.0298(2) 0.85300(14)
H25 H 0.4143 0.0552 0.8610
C44 C 0.36698(16) 0.0301(2) 0.82787(14)
H30 H 0.3557 0.0556 0.8187
C50 C 0.5831(5) 0.0385(5) 0.9655(5)
C55 C 0.5566(4) 0.0028(4) 0.9674(5)
H36 H 0.5211 0.0190 0.9185
Cu1 Cu 0.54042(6) 0.7500 0.2500
O1 O 0.53636(19) 0.71573(19) 0.29672(19)
O2 O 0.4661(2) 0.7154(3) 0.2995(3)
O3 O 0.5669(7) 0.5744(4) 0.4446(5)
O4 O 0.6027(5) 0.7500 0.2500
N1 N 0.5063(3) 0.6104(4) 0.4535(3)
H1 H 0.4859 0.6140 0.4711
C1 C 0.5021(2) 0.71000(14) 0.30993(16)
C2 C 0.5070(2) 0.68385(14) 0.34870(16)
C3 C 0.5443(2) 0.67044(14) 0.36524(16)
H2 H 0.5696 0.6784 0.3527
C4 C 0.5445(2) 0.64531(14) 0.40007(16)
H3 H 0.5700 0.6361 0.4114
C5 C 0.5075(2) 0.63359(14) 0.41835(16)
C6 C 0.4702(2) 0.64700(14) 0.40181(16)
H4 H 0.4448 0.6390 0.4143
C7 C 0.4699(2) 0.67213(14) 0.36698(16)
H5 H 0.4444 0.6813 0.3557
C8 C 0.5345(5) 0.5831(5) 0.4615(5)
C9 C 0.5326(5) 0.5566(4) 0.4972(4)
C10 C 0.5008(4) 0.5601(3) 0.5244(4)
H6 H 0.4810 0.5815 0.5211
Cu2 Cu 0.2500 0.54042(6) 0.7500
Cu3 Cu 0.7500 0.2500 0.54042(6)
Cu4 Cu 0.45958(6) 0.7500 0.2500
Cu5 Cu 0.2500 0.45958(6) 0.7500
Cu6 Cu 0.7500 0.2500 0.45958(6)
O5 O 0.29672(19) 0.53636(19) 0.71573(19)
O6 O 0.71573(19) 0.29672(19) 0.53636(19)
O7 O 0.53636(19) 0.78427(19) 0.20328(19)
O10 O 0.20328(19) 0.53636(19) 0.78427(19)
O11 O 0.78427(19) 0.20328(19) 0.53636(19)
O12 O 0.2995(3) 0.4661(2) 0.7154(3)
O13 O 0.7154(3) 0.2995(3) 0.4661(2)
O14 O 0.4661(2) 0.7846(3) 0.2005(3)
O17 O 0.5339(2) 0.7005(3) 0.2154(3)
O18 O 0.5339(2) 0.7995(3) 0.2846(3)
O19 O 0.2154(3) 0.5339(2) 0.7005(3)
O20 O 0.2846(3) 0.5339(2) 0.7995(3)
O21 O 0.7005(3) 0.2154(3) 0.5339(2)
O22 O 0.7995(3) 0.2846(3) 0.5339(2)
O23 O 0.4446(5) 0.5669(7) 0.5744(4)
O24 O 0.5744(4) 0.4446(5) 0.5669(7)
O25 O 0.5669(7) 0.9256(4) 0.0554(5)
O28 O 0.2500 0.6027(5) 0.7500
O29 O 0.7500 0.2500 0.6027(5)
N2 N 0.4535(3) 0.5063(3) 0.6104(4)
N3 N 0.6104(4) 0.4535(3) 0.5063(3)
N4 N 0.5063(3) 0.8896(4) 0.0465(3)
H7 H 0.4711 0.4859 0.6140
H8 H 0.6140 0.4711 0.4859
H9 H 0.4859 0.8860 0.0289
C11 C 0.30993(16) 0.5021(2) 0.71000(14)
C12 C 0.71000(14) 0.30993(16) 0.5021(2)
C13 C 0.5021(2) 0.79000(14) 0.19007(16)
C16 C 0.34870(16) 0.5070(2) 0.68385(14)
C17 C 0.68385(14) 0.34870(16) 0.5070(2)
C18 C 0.5070(2) 0.81615(14) 0.15130(16)
C21 C 0.36524(16) 0.5443(2) 0.67044(14)
C22 C 0.67044(14) 0.36524(16) 0.5443(2)
C23 C 0.5443(2) 0.82956(14) 0.13476(16)
H12 H 0.3527 0.5696 0.6784
H13 H 0.6784 0.3527 0.5696
H14 H 0.5696 0.8216 0.1473
C26 C 0.40007(16) 0.5445(2) 0.64531(14)
C27 C 0.64531(14) 0.40007(16) 0.5445(2)
C28 C 0.5445(2) 0.85469(14) 0.09993(16)
H17 H 0.4114 0.5700 0.6361
H18 H 0.6361 0.4114 0.5700
H19 H 0.5700 0.8639 0.0886
C31 C 0.41835(16) 0.5075(2) 0.63359(14)
C32 C 0.63359(14) 0.41835(16) 0.5075(2)
C33 C 0.5075(2) 0.86641(14) 0.08165(16)
C36 C 0.40181(16) 0.4702(2) 0.64700(14)
C37 C 0.64700(14) 0.40181(16) 0.4702(2)
C38 C 0.4702(2) 0.85300(14) 0.09819(16)
H22 H 0.4143 0.4448 0.6390
H23 H 0.6390 0.4143 0.4448
H24 H 0.4448 0.8610 0.0857
C41 C 0.36698(16) 0.4699(2) 0.67213(14)
C42 C 0.67213(14) 0.36698(16) 0.4699(2)
C43 C 0.4699(2) 0.82787(14) 0.13302(16)
H27 H 0.3557 0.4444 0.6813
H28 H 0.6813 0.3557 0.4444
H29 H 0.4444 0.8187 0.1443
C46 C 0.4615(5) 0.5345(5) 0.5831(5)
C47 C 0.5831(5) 0.4615(5) 0.5345(5)
C48 C 0.5345(5) 0.9169(5) 0.0385(5)
C51 C 0.4972(4) 0.5326(5) 0.5566(4)
C52 C 0.5566(4) 0.4972(4) 0.5326(5)
C53 C 0.5326(5) 0.9434(4) 0.0028(4)
C56 C 0.5244(4) 0.5008(4) 0.5601(3)
C57 C 0.5601(3) 0.5244(4) 0.5008(4)
H32 H 0.5815 0.5211 0.4810
H33 H 0.5211 0.4810 0.5815
H35 H 0.5815 0.9789 0.0190
Cu7 Cu 0.2500 0.95958(6) 0.7500
O8 O 0.29672(19) 0.96364(19) 0.78427(19)
O26 O 0.4446(5) 0.9331(7) 0.9256(4)
N5 N 0.4535(3) 0.9937(3) 0.8896(4)
C14 C 0.30993(16) 0.9979(2) 0.79000(14)
C19 C 0.34870(16) 0.9930(2) 0.81615(14)
C24 C 0.36524(16) 0.9557(2) 0.82956(14)
H15 H 0.3527 0.9304 0.8216
C29 C 0.40007(16) 0.9555(2) 0.85469(14)
H20 H 0.4114 0.9300 0.8639
C34 C 0.41835(16) 0.9925(2) 0.86641(14)
C49 C 0.4615(5) 0.9655(5) 0.9169(5)
C54 C 0.4972(4) 0.9674(5) 0.9434(4)
C58 C 0.5008(4) 0.9399(3) 0.9756(4)
C59 C 0.5244(4) 0.9992(4) 0.9399(3)
C60 C 0.5601(3) 0.9756(4) 0.9992(4)
H34 H 0.4810 0.9185 0.9789
O12_2 O 0.2005(3) 0.0339(2) 0.7154(3)
H7_2 H 0.0289 0.0141 0.6140
C36_2 C 0.09819(16) 0.0298(2) 0.64700(14)
H22_2 H 0.0857 0.0552 0.6390
C41_2 C 0.13302(16) 0.0301(2) 0.67213(14)
H27_2 H 0.1443 0.0556 0.6813
O2_2 O 0.0339(2) 0.7846(3) 0.2995(3)
H1_2 H 0.0141 0.8860 0.4711
C6_2 C 0.0298(2) 0.85300(14) 0.40181(16)
H4_2 H 0.0552 0.8610 0.4143
C7_2 C 0.0301(2) 0.82787(14) 0.36698(16)
H5_2 H 0.0556 0.8187 0.3557
H6_2 H 0.0190 0.9185 0.5211
Cu4_2 Cu 0.04042(6) 0.7500 0.2500
O5_2 O 0.20328(19) 0.96364(19) 0.71573(19)
O14_2 O 0.0339(2) 0.7154(3) 0.2005(3)
O19_2 O 0.2846(3) 0.9661(2) 0.7005(3)
O20_2 O 0.2154(3) 0.9661(2) 0.7995(3)
O23_2 O 0.0554(5) 0.9331(7) 0.5744(4)
O28_2 O 0.2500 0.8973(5) 0.7500
N2_2 N 0.0465(3) 0.9937(3) 0.6104(4)
H9_2 H 0.0141 0.6140 0.0289
C11_2 C 0.19007(16) 0.9979(2) 0.71000(14)
C16_2 C 0.15130(16) 0.9930(2) 0.68385(14)
C21_2 C 0.13476(16) 0.9557(2) 0.67044(14)
H12_2 H 0.1473 0.9304 0.6784
C26_2 C 0.09993(16) 0.9555(2) 0.64531(14)
H17_2 H 0.0886 0.9300 0.6361
C31_2 C 0.08165(16) 0.9925(2) 0.63359(14)
C38_2 C 0.0298(2) 0.64700(14) 0.09819(16)
H24_2 H 0.0552 0.6390 0.0857
C43_2 C 0.0301(2) 0.67213(14) 0.13302(16)
H29_2 H 0.0556 0.6813 0.1443
C46_2 C 0.0385(5) 0.9655(5) 0.5831(5)
C51_2 C 0.0028(4) 0.9674(5) 0.5566(4)
O15_2 O 0.2005(3) 0.4661(2) 0.7846(3)
O26_2 O 0.0554(5) 0.5669(7) 0.9256(4)
N5_2 N 0.0465(3) 0.5063(3) 0.8896(4)
H10_2 H 0.0289 0.4859 0.8860
C14_2 C 0.19007(16) 0.5021(2) 0.79000(14)
C19_2 C 0.15130(16) 0.5070(2) 0.81615(14)
C24_2 C 0.13476(16) 0.5443(2) 0.82956(14)
H15_2 H 0.1473 0.5696 0.8216
C29_2 C 0.09993(16) 0.5445(2) 0.85469(14)
H20_2 H 0.0886 0.5700 0.8639
C34_2 C 0.08165(16) 0.5075(2) 0.86641(14)
C39_2 C 0.09819(16) 0.4702(2) 0.85300(14)
H25_2 H 0.0857 0.4448 0.8610
C44_2 C 0.13302(16) 0.4699(2) 0.82787(14)
H30_2 H 0.1443 0.4444 0.8187
C49_2 C 0.0385(5) 0.5345(5) 0.9169(5)
C54_2 C 0.0028(4) 0.5326(5) 0.9434(4)
H34_2 H 0.0190 0.5815 0.9789
O13_2 O 0.7846(3) 0.2005(3) 0.4661(2)
O24_2 O 0.9256(4) 0.0554(5) 0.5669(7)
N3_2 N 0.8896(4) 0.0465(3) 0.5063(3)
H8_2 H 0.8860 0.0289 0.4859
C12_2 C 0.79000(14) 0.19007(16) 0.5021(2)
C17_2 C 0.81615(14) 0.15130(16) 0.5070(2)
C22_2 C 0.82956(14) 0.13476(16) 0.5443(2)
H13_2 H 0.8216 0.1473 0.5696
C27_2 C 0.85469(14) 0.09993(16) 0.5445(2)
H18_2 H 0.8639 0.0886 0.5700
C32_2 C 0.86641(14) 0.08165(16) 0.5075(2)
C37_2 C 0.85300(14) 0.09819(16) 0.4702(2)
H23_2 H 0.8610 0.0857 0.4448
C42_2 C 0.82787(14) 0.13302(16) 0.4699(2)
H28_2 H 0.8187 0.1443 0.4444
C47_2 C 0.9169(5) 0.0385(5) 0.5345(5)
C52_2 C 0.9434(4) 0.0028(4) 0.5326(5)
H33_2 H 0.9789 0.0190 0.5815
Cu1_2 Cu 0.95958(6) 0.7500 0.2500
O1_2 O 0.96364(19) 0.78427(19) 0.29672(19)
O3_2 O 0.9331(7) 0.9256(4) 0.4446(5)
O4_2 O 0.8973(5) 0.7500 0.2500
N1_2 N 0.9937(3) 0.8896(4) 0.4535(3)
C1_2 C 0.9979(2) 0.79000(14) 0.30993(16)
C2_2 C 0.9930(2) 0.81615(14) 0.34870(16)
C3_2 C 0.9557(2) 0.82956(14) 0.36524(16)
H2_2 H 0.9304 0.8216 0.3527
C4_2 C 0.9555(2) 0.85469(14) 0.40007(16)
H3_2 H 0.9300 0.8639 0.4114
C5_2 C 0.9925(2) 0.86641(14) 0.41835(16)
C8_2 C 0.9655(5) 0.9169(5) 0.4615(5)
C9_2 C 0.9674(5) 0.9434(4) 0.4972(4)
C10_2 C 0.9992(4) 0.9399(3) 0.5244(4)
O7_2 O 0.96364(19) 0.71573(19) 0.20328(19)
O16_2 O 0.7846(3) 0.2995(3) 0.0339(2)
O17_2 O 0.9661(2) 0.7995(3) 0.2154(3)
O18_2 O 0.9661(2) 0.7005(3) 0.2846(3)
O25_2 O 0.9331(7) 0.5744(4) 0.0554(5)
N4_2 N 0.9937(3) 0.6104(4) 0.0465(3)
H11_2 H 0.8860 0.4711 0.0141
C13_2 C 0.9979(2) 0.71000(14) 0.19007(16)
C18_2 C 0.9930(2) 0.68385(14) 0.15130(16)
C23_2 C 0.9557(2) 0.67044(14) 0.13476(16)
H14_2 H 0.9304 0.6784 0.1473
C28_2 C 0.9555(2) 0.64531(14) 0.09993(16)
H19_2 H 0.9300 0.6361 0.0886
C33_2 C 0.9925(2) 0.63359(14) 0.08165(16)
C40_2 C 0.85300(14) 0.40181(16) 0.0298(2)
H26_2 H 0.8610 0.4143 0.0552
C45_2 C 0.82787(14) 0.36698(16) 0.0301(2)
H31_2 H 0.8187 0.3557 0.0556
C48_2 C 0.9655(5) 0.5831(5) 0.0385(5)
C53_2 C 0.9674(5) 0.5566(4) 0.0028(4)
C56_2 C 0.9756(4) 0.9992(4) 0.5601(3)
C57_2 C 0.9399(3) 0.9756(4) 0.5008(4)
H32_2 H 0.9185 0.9789 0.4810
H35_2 H 0.9185 0.5211 0.0190
O9_2 O 0.78427(19) 0.29672(19) 0.96364(19)
O27_2 O 0.9256(4) 0.4446(5) 0.9331(7)
N6_2 N 0.8896(4) 0.4535(3) 0.9937(3)
C15_2 C 0.79000(14) 0.30993(16) 0.9979(2)
C20_2 C 0.81615(14) 0.34870(16) 0.9930(2)
C25_2 C 0.82956(14) 0.36524(16) 0.9557(2)
H16_2 H 0.8216 0.3527 0.9304
C30_2 C 0.85469(14) 0.40007(16) 0.9555(2)
H21_2 H 0.8639 0.4114 0.9300
C35_2 C 0.86641(14) 0.41835(16) 0.9925(2)
C50_2 C 0.9169(5) 0.4615(5) 0.9655(5)
C55_2 C 0.9434(4) 0.4972(4) 0.9674(5)
C58_2 C 0.9992(4) 0.5601(3) 0.9756(4)
C59_2 C 0.9756(4) 0.5008(4) 0.9399(3)
C60_2 C 0.9399(3) 0.5244(4) 0.9992(4)
H36_2 H 0.9789 0.4810 0.9185
O21_2 O 0.7995(3) 0.2154(3) 0.9661(2)
O22_2 O 0.7005(3) 0.2846(3) 0.9661(2)
O29_2 O 0.7500 0.2500 0.8973(5)
C10_3 C 0.4399(3) 0.4992(4) 0.0244(4)
H6_3 H 0.4185 0.5190 0.0211
O5_3 O 0.46364(19) 0.70328(19) 0.21573(19)
O6_2 O 0.70328(19) 0.28427(19) 0.03636(19)
O10_2 O 0.46364(19) 0.79672(19) 0.28427(19)
O11_2 O 0.79672(19) 0.21573(19) 0.03636(19)
O23_3 O 0.4331(7) 0.5554(5) 0.0744(4)
O24_3 O 0.5554(5) 0.4256(4) 0.0669(7)
O28_3 O 0.3973(5) 0.7500 0.2500
O29_3 O 0.7500 0.2500 0.1027(5)
N2_3 N 0.4937(3) 0.5465(3) 0.1104(4)
N3_3 N 0.5465(3) 0.3896(4) 0.0063(3)
H7_3 H 0.5141 0.5289 0.1140
C11_3 C 0.4979(2) 0.69007(16) 0.21000(14)
C12_3 C 0.69007(16) 0.29000(14) 0.0021(2)
C16_3 C 0.4930(2) 0.65130(16) 0.18385(14)
C17_3 C 0.65130(16) 0.31615(14) 0.0070(2)
C21_3 C 0.4557(2) 0.63476(16) 0.17044(14)
C22_3 C 0.63476(16) 0.32956(14) 0.0443(2)
H12_3 H 0.4304 0.6473 0.1784
H13_3 H 0.6473 0.3216 0.0696
C26_3 C 0.4555(2) 0.59993(16) 0.14531(14)
C27_3 C 0.59993(16) 0.35469(14) 0.0445(2)
H17_3 H 0.4300 0.5886 0.1361
H18_3 H 0.5886 0.3639 0.0700
C31_3 C 0.4925(2) 0.58165(16) 0.13359(14)
C32_3 C 0.58165(16) 0.36641(14) 0.0075(2)
C36_3 C 0.5298(2) 0.59819(16) 0.14700(14)
H22_3 H 0.5552 0.5857 0.1390
C41_3 C 0.5301(2) 0.63302(16) 0.17213(14)
H27_3 H 0.5556 0.6443 0.1813
C46_3 C 0.4655(5) 0.5385(5) 0.0831(5)
C47_3 C 0.5385(5) 0.4169(5) 0.0345(5)
C51_3 C 0.4674(5) 0.5028(4) 0.0566(4)
C52_3 C 0.5028(4) 0.4434(4) 0.0326(5)
C56_3 C 0.4992(4) 0.4756(4) 0.0601(3)
C57_3 C 0.4756(4) 0.4399(3) 0.0008(4)
H33_3 H 0.5190 0.4789 0.0815
O1_3 O 0.28427(19) 0.46364(19) 0.79672(19)
O3_3 O 0.4256(4) 0.4331(7) 0.9446(5)
O4_3 O 0.2500 0.3973(5) 0.7500
N1_3 N 0.3896(4) 0.4937(3) 0.9535(3)
H1_3 H 0.3860 0.5141 0.9711
C1_3 C 0.29000(14) 0.4979(2) 0.80993(16)
C2_3 C 0.31615(14) 0.4930(2) 0.84870(16)
C3_3 C 0.32956(14) 0.4557(2) 0.86524(16)
H2_3 H 0.3216 0.4304 0.8527
C4_3 C 0.35469(14) 0.4555(2) 0.90007(16)
H3_3 H 0.3639 0.4300 0.9114
C5_3 C 0.36641(14) 0.4925(2) 0.91835(16)
C6_3 C 0.35300(14) 0.5298(2) 0.90181(16)
H4_3 H 0.3610 0.5552 0.9143
C7_3 C 0.32787(14) 0.5301(2) 0.86698(16)
H5_3 H 0.3187 0.5556 0.8557
C8_3 C 0.4169(5) 0.4655(5) 0.9615(5)
C9_3 C 0.4434(4) 0.4674(5) 0.9972(4)
O7_3 O 0.21573(19) 0.46364(19) 0.70328(19)
O8_2 O 0.03636(19) 0.70328(19) 0.28427(19)
O25_3 O 0.0744(4) 0.4331(7) 0.5554(5)
O26_3 O 0.0669(7) 0.5554(5) 0.4256(4)
N4_3 N 0.1104(4) 0.4937(3) 0.5465(3)
N5_3 N 0.0063(3) 0.5465(3) 0.3896(4)
H8_3 H 0.5289 0.3860 0.9859
H9_3 H 0.1140 0.5141 0.5289
C13_3 C 0.21000(14) 0.4979(2) 0.69007(16)
C14_3 C 0.0021(2) 0.69007(16) 0.29000(14)
C18_3 C 0.18385(14) 0.4930(2) 0.65130(16)
C19_3 C 0.0070(2) 0.65130(16) 0.31615(14)
C23_3 C 0.17044(14) 0.4557(2) 0.63476(16)
C24_3 C 0.0443(2) 0.63476(16) 0.32956(14)
H14_3 H 0.1784 0.4304 0.6473
H15_3 H 0.0696 0.6473 0.3216
C28_3 C 0.14531(14) 0.4555(2) 0.59993(16)
C29_3 C 0.0445(2) 0.59993(16) 0.35469(14)
H19_3 H 0.1361 0.4300 0.5886
H20_3 H 0.0700 0.5886 0.3639
C33_3 C 0.13359(14) 0.4925(2) 0.58165(16)
C34_3 C 0.0075(2) 0.58165(16) 0.36641(14)
C37_3 C 0.59819(16) 0.35300(14) 0.9702(2)
C38_3 C 0.14700(14) 0.5298(2) 0.59819(16)
H23_3 H 0.5857 0.3610 0.9448
H24_3 H 0.1390 0.5552 0.5857
C42_3 C 0.63302(16) 0.32787(14) 0.9699(2)
C43_3 C 0.17213(14) 0.5301(2) 0.63302(16)
H28_3 H 0.6443 0.3187 0.9444
H29_3 H 0.1813 0.5556 0.6443
C48_3 C 0.0831(5) 0.4655(5) 0.5385(5)
C49_3 C 0.0345(5) 0.5385(5) 0.4169(5)
C53_3 C 0.0566(4) 0.4674(5) 0.5028(4)
C54_3 C 0.0326(5) 0.5028(4) 0.4434(4)
C58_3 C 0.0601(3) 0.4992(4) 0.4756(4)
C59_3 C 0.0008(4) 0.4756(4) 0.4399(3)
C60_3 C 0.0244(4) 0.4399(3) 0.4992(4)
H32_3 H 0.4789 0.4185 0.9810
H34_3 H 0.0815 0.5190 0.4789
H35_3 H 0.0211 0.4185 0.5190
O9_3 O 0.79672(19) 0.28427(19) 0.46364(19)
O27_3 O 0.9446(5) 0.4256(4) 0.4331(7)
N6_3 N 0.9535(3) 0.3896(4) 0.4937(3)
H10_3 H 0.9859 0.5289 0.3860
H11_3 H 0.9711 0.3860 0.5141
C15_3 C 0.80993(16) 0.29000(14) 0.4979(2)
C20_3 C 0.84870(16) 0.31615(14) 0.4930(2)
C25_3 C 0.86524(16) 0.32956(14) 0.4557(2)
H16_3 H 0.8527 0.3216 0.4304
C30_3 C 0.90007(16) 0.35469(14) 0.4555(2)
H21_3 H 0.9114 0.3639 0.4300
C35_3 C 0.91835(16) 0.36641(14) 0.4925(2)
C39_3 C 0.9702(2) 0.59819(16) 0.35300(14)
C40_3 C 0.90181(16) 0.35300(14) 0.5298(2)
H25_3 H 0.9448 0.5857 0.3610
H26_3 H 0.9143 0.3610 0.5552
C44_3 C 0.9699(2) 0.63302(16) 0.32787(14)
C45_3 C 0.86698(16) 0.32787(14) 0.5301(2)
H30_3 H 0.9444 0.6443 0.3187
H31_3 H 0.8557 0.3187 0.5556
C50_3 C 0.9615(5) 0.4169(5) 0.4655(5)
C55_3 C 0.9972(4) 0.4434(4) 0.4674(5)
H36_3 H 0.9810 0.4789 0.4185
O1_4 O 0.21573(19) 0.03636(19) 0.79672(19)
O3_4 O 0.0744(4) 0.0669(7) 0.9446(5)
O4_4 O 0.2500 0.1027(5) 0.7500
N1_4 N 0.1104(4) 0.0063(3) 0.9535(3)
C1_4 C 0.21000(14) 0.0021(2) 0.80993(16)
C2_4 C 0.18385(14) 0.0070(2) 0.84870(16)
C3_4 C 0.17044(14) 0.0443(2) 0.86524(16)
H2_4 H 0.1784 0.0696 0.8527
C4_4 C 0.14531(14) 0.0445(2) 0.90007(16)
H3_4 H 0.1361 0.0700 0.9114
C5_4 C 0.13359(14) 0.0075(2) 0.91835(16)
C8_4 C 0.0831(5) 0.0345(5) 0.9615(5)
C9_4 C 0.0566(4) 0.0326(5) 0.9972(4)
O7_4 O 0.28427(19) 0.03636(19) 0.70328(19)
O9_4 O 0.70328(19) 0.21573(19) 0.46364(19)
O25_4 O 0.4256(4) 0.0669(7) 0.5554(5)
O27_4 O 0.5554(5) 0.0744(4) 0.4331(7)
N4_4 N 0.3896(4) 0.0063(3) 0.5465(3)
N6_4 N 0.5465(3) 0.1104(4) 0.4937(3)
H11_4 H 0.5289 0.1140 0.5141
C13_4 C 0.29000(14) 0.0021(2) 0.69007(16)
C15_4 C 0.69007(16) 0.21000(14) 0.4979(2)
C18_4 C 0.31615(14) 0.0070(2) 0.65130(16)
C20_4 C 0.65130(16) 0.18385(14) 0.4930(2)
C23_4 C 0.32956(14) 0.0443(2) 0.63476(16)
C25_4 C 0.63476(16) 0.17044(14) 0.4557(2)
H14_4 H 0.3216 0.0696 0.6473
H16_4 H 0.6473 0.1784 0.4304
C28_4 C 0.35469(14) 0.0445(2) 0.59993(16)
C30_4 C 0.59993(16) 0.14531(14) 0.4555(2)
H19_4 H 0.3639 0.0700 0.5886
H21_4 H 0.5886 0.1361 0.4300
C33_4 C 0.36641(14) 0.0075(2) 0.58165(16)
C35_4 C 0.58165(16) 0.13359(14) 0.4925(2)
C40_4 C 0.59819(16) 0.14700(14) 0.5298(2)
H26_4 H 0.5857 0.1390 0.5552
C45_4 C 0.63302(16) 0.17213(14) 0.5301(2)
H31_4 H 0.6443 0.1813 0.5556
C48_4 C 0.4169(5) 0.0345(5) 0.5385(5)
C50_4 C 0.5385(5) 0.0831(5) 0.4655(5)
C53_4 C 0.4434(4) 0.0326(5) 0.5028(4)
C55_4 C 0.5028(4) 0.0566(4) 0.4674(5)
C58_4 C 0.4399(3) 0.0008(4) 0.4756(4)
C59_4 C 0.4992(4) 0.0244(4) 0.4399(3)
C60_4 C 0.4756(4) 0.0601(3) 0.4992(4)
H32_4 H 0.0211 0.0815 0.9810
H35_4 H 0.4789 0.0815 0.5190
H36_4 H 0.5190 0.0211 0.4185
H6_4 H 0.0815 0.9810 0.0211
O5_4 O 0.03636(19) 0.79672(19) 0.21573(19)
O23_4 O 0.0669(7) 0.9446(5) 0.0744(4)
O28_4 O 0.1027(5) 0.7500 0.2500
N2_4 N 0.0063(3) 0.9535(3) 0.1104(4)
C11_4 C 0.0021(2) 0.80993(16) 0.21000(14)
C16_4 C 0.0070(2) 0.84870(16) 0.18385(14)
C21_4 C 0.0443(2) 0.86524(16) 0.17044(14)
H12_4 H 0.0696 0.8527 0.1784
C26_4 C 0.0445(2) 0.90007(16) 0.14531(14)
H17_4 H 0.0700 0.9114 0.1361
C31_4 C 0.0075(2) 0.91835(16) 0.13359(14)
C46_4 C 0.0345(5) 0.9615(5) 0.0831(5)
C51_4 C 0.0326(5) 0.9972(4) 0.0566(4)
H1_4 H 0.1140 0.9859 0.9711
C6_4 C 0.14700(14) 0.9702(2) 0.90181(16)
H4_4 H 0.1390 0.9448 0.9143
C7_4 C 0.17213(14) 0.9699(2) 0.86698(16)
H5_4 H 0.1813 0.9444 0.8557
O26_4 O 0.4331(7) 0.9446(5) 0.4256(4)
N5_4 N 0.4937(3) 0.9535(3) 0.3896(4)
H9_4 H 0.3860 0.9859 0.5289
H10_4 H 0.5141 0.9711 0.3860
C14_4 C 0.4979(2) 0.80993(16) 0.29000(14)
C19_4 C 0.4930(2) 0.84870(16) 0.31615(14)
C24_4 C 0.4557(2) 0.86524(16) 0.32956(14)
H15_4 H 0.4304 0.8527 0.3216
C29_4 C 0.4555(2) 0.90007(16) 0.35469(14)
H20_4 H 0.4300 0.9114 0.3639
C34_4 C 0.4925(2) 0.91835(16) 0.36641(14)
C38_4 C 0.35300(14) 0.9702(2) 0.59819(16)
C39_4 C 0.5298(2) 0.90181(16) 0.35300(14)
H24_4 H 0.3610 0.9448 0.5857
H25_4 H 0.5552 0.9143 0.3610
C43_4 C 0.32787(14) 0.9699(2) 0.63302(16)
C44_4 C 0.5301(2) 0.86698(16) 0.32787(14)
H29_4 H 0.3187 0.9444 0.6443
H30_4 H 0.5556 0.8557 0.3187
C49_4 C 0.4655(5) 0.9615(5) 0.4169(5)
C54_4 C 0.4674(5) 0.9972(4) 0.4434(4)
H34_4 H 0.4185 0.9810 0.4789
O24_4 O 0.9446(5) 0.0744(4) 0.0669(7)
N3_4 N 0.9535(3) 0.1104(4) 0.0063(3)
C12_4 C 0.80993(16) 0.21000(14) 0.0021(2)
C17_4 C 0.84870(16) 0.18385(14) 0.0070(2)
C22_4 C 0.86524(16) 0.17044(14) 0.0443(2)
H13_4 H 0.8527 0.1784 0.0696
C27_4 C 0.90007(16) 0.14531(14) 0.0445(2)
H18_4 H 0.9114 0.1361 0.0700
C32_4 C 0.91835(16) 0.13359(14) 0.0075(2)
C47_4 C 0.9615(5) 0.0831(5) 0.0345(5)
C52_4 C 0.9972(4) 0.0566(4) 0.0326(5)
H33_4 H 0.9810 0.0211 0.0815
H8_4 H 0.9711 0.1140 0.9859
C37_4 C 0.90181(16) 0.14700(14) 0.9702(2)
H23_4 H 0.9143 0.1390 0.9448
C42_4 C 0.86698(16) 0.17213(14) 0.9699(2)
H28_4 H 0.8557 0.1813 0.9444
H7_4 H 0.9859 0.9711 0.1140
C36_4 C 0.9702(2) 0.90181(16) 0.14700(14)
H22_4 H 0.9448 0.9143 0.1390
C41_4 C 0.9699(2) 0.86698(16) 0.17213(14)
H27_4 H 0.9444 0.8557 0.1813
O29_4 O 0.7500 0.2500 0.3973(5)
Cu8_2 Cu 0.04042(6) 0.2500 0.7500
Cu9_2 Cu 0.2500 0.7500 0.54042(6)
Cu10_2 Cu 0.2500 0.7500 0.45958(6)
O9_5 O 0.20328(19) 0.71573(19) 0.53636(19)
O15_3 O 0.0339(2) 0.2995(3) 0.7154(3)
O16_3 O 0.2005(3) 0.7154(3) 0.4661(2)
O27_5 O 0.0554(5) 0.5744(4) 0.5669(7)
N6_5 N 0.0465(3) 0.6104(4) 0.5063(3)
H10_5 H 0.0141 0.4711 0.6140
H11_5 H 0.0289 0.6140 0.4859
C15_5 C 0.19007(16) 0.71000(14) 0.5021(2)
C20_5 C 0.15130(16) 0.68385(14) 0.5070(2)
C25_5 C 0.13476(16) 0.67044(14) 0.5443(2)
H16_5 H 0.1473 0.6784 0.5696
C30_5 C 0.09993(16) 0.64531(14) 0.5445(2)
H21_5 H 0.0886 0.6361 0.5700
C35_5 C 0.08165(16) 0.63359(14) 0.5075(2)
C39_5 C 0.0298(2) 0.40181(16) 0.64700(14)
C40_5 C 0.09819(16) 0.64700(14) 0.4702(2)
H25_5 H 0.0552 0.4143 0.6390
H26_5 H 0.0857 0.6390 0.4448
C44_5 C 0.0301(2) 0.36698(16) 0.67213(14)
C45_5 C 0.13302(16) 0.67213(14) 0.4699(2)
H30_5 H 0.0556 0.3557 0.6813
H31_5 H 0.1443 0.6813 0.4444
C50_5 C 0.0385(5) 0.5831(5) 0.5345(5)
C55_5 C 0.0028(4) 0.5566(4) 0.5326(5)
H36_5 H 0.0190 0.5211 0.5815
Cu1_3 Cu 0.7500 0.54042(6) 0.2500
O1_5 O 0.71573(19) 0.53636(19) 0.20328(19)
O2_3 O 0.7154(3) 0.4661(2) 0.2005(3)
O3_5 O 0.5744(4) 0.5669(7) 0.0554(5)
O4_5 O 0.7500 0.6027(5) 0.2500
N1_5 N 0.6104(4) 0.5063(3) 0.0465(3)
H1_5 H 0.6140 0.4859 0.0289
C1_5 C 0.71000(14) 0.5021(2) 0.19007(16)
C2_5 C 0.68385(14) 0.5070(2) 0.15130(16)
C3_5 C 0.67044(14) 0.5443(2) 0.13476(16)
H2_5 H 0.6784 0.5696 0.1473
C4_5 C 0.64531(14) 0.5445(2) 0.09993(16)
H3_5 H 0.6361 0.5700 0.0886
C5_5 C 0.63359(14) 0.5075(2) 0.08165(16)
C6_5 C 0.64700(14) 0.4702(2) 0.09819(16)
H4_5 H 0.6390 0.4448 0.0857
C7_5 C 0.67213(14) 0.4699(2) 0.13302(16)
H5_5 H 0.6813 0.4444 0.1443
C8_5 C 0.5831(5) 0.5345(5) 0.0385(5)
C9_5 C 0.5566(4) 0.5326(5) 0.0028(4)
Cu4_3 Cu 0.7500 0.45958(6) 0.2500
Cu6_2 Cu 0.2500 0.7500 0.04042(6)
Cu7_2 Cu 0.95958(6) 0.2500 0.7500
O7_5 O 0.78427(19) 0.53636(19) 0.29672(19)
O8_3 O 0.96364(19) 0.29672(19) 0.71573(19)
O13_3 O 0.2995(3) 0.7154(3) 0.0339(2)
O14_3 O 0.7846(3) 0.4661(2) 0.2995(3)
O17_3 O 0.7005(3) 0.5339(2) 0.2846(3)
O18_3 O 0.7995(3) 0.5339(2) 0.2154(3)
O25_5 O 0.9256(4) 0.5669(7) 0.4446(5)
O26_5 O 0.9331(7) 0.4446(5) 0.5744(4)
N4_5 N 0.8896(4) 0.5063(3) 0.4535(3)
N5_5 N 0.9937(3) 0.4535(3) 0.6104(4)
H8_5 H 0.4711 0.6140 0.0141
H9_5 H 0.8860 0.4859 0.4711
C13_5 C 0.79000(14) 0.5021(2) 0.30993(16)
C14_5 C 0.9979(2) 0.30993(16) 0.71000(14)
C18_5 C 0.81615(14) 0.5070(2) 0.34870(16)
C19_5 C 0.9930(2) 0.34870(16) 0.68385(14)
C23_5 C 0.82956(14) 0.5443(2) 0.36524(16)
C24_5 C 0.9557(2) 0.36524(16) 0.67044(14)
H14_5 H 0.8216 0.5696 0.3527
H15_5 H 0.9304 0.3527 0.6784
C28_5 C 0.85469(14) 0.5445(2) 0.40007(16)
C29_5 C 0.9555(2) 0.40007(16) 0.64531(14)
H19_5 H 0.8639 0.5700 0.4114
H20_5 H 0.9300 0.4114 0.6361
C33_5 C 0.86641(14) 0.5075(2) 0.41835(16)
C34_5 C 0.9925(2) 0.41835(16) 0.63359(14)
C37_5 C 0.40181(16) 0.64700(14) 0.0298(2)
C38_5 C 0.85300(14) 0.4702(2) 0.40181(16)
H23_5 H 0.4143 0.6390 0.0552
H24_5 H 0.8610 0.4448 0.4143
C42_5 C 0.36698(16) 0.67213(14) 0.0301(2)
C43_5 C 0.82787(14) 0.4699(2) 0.36698(16)
H28_5 H 0.3557 0.6813 0.0556
H29_5 H 0.8187 0.4444 0.3557
C48_5 C 0.9169(5) 0.5345(5) 0.4615(5)
C49_5 C 0.9655(5) 0.4615(5) 0.5831(5)
C53_5 C 0.9434(4) 0.5326(5) 0.4972(4)
C54_5 C 0.9674(5) 0.4972(4) 0.5566(4)
C58_5 C 0.9399(3) 0.5008(4) 0.5244(4)
C59_5 C 0.9992(4) 0.5244(4) 0.5601(3)
C60_5 C 0.9756(4) 0.5601(3) 0.5008(4)
H32_5 H 0.5211 0.5815 0.0190
H34_5 H 0.9185 0.4810 0.5211
H35_5 H 0.9789 0.5815 0.4810
C10_4 C 0.5601(3) 0.5008(4) 0.9756(4)
H6_5 H 0.5815 0.4810 0.9789
Cu2_2 Cu 0.54042(6) 0.2500 0.7500
Cu3_2 Cu 0.2500 0.7500 0.95958(6)
Cu5_2 Cu 0.45958(6) 0.2500 0.7500
O5_5 O 0.53636(19) 0.29672(19) 0.78427(19)
O6_3 O 0.29672(19) 0.71573(19) 0.96364(19)
O10_3 O 0.53636(19) 0.20328(19) 0.71573(19)
O11_3 O 0.20328(19) 0.78427(19) 0.96364(19)
O12_3 O 0.4661(2) 0.2995(3) 0.7846(3)
O19_3 O 0.5339(2) 0.2154(3) 0.7995(3)
O20_3 O 0.5339(2) 0.2846(3) 0.7005(3)
O21_3 O 0.2154(3) 0.7005(3) 0.9661(2)
O22_3 O 0.2846(3) 0.7995(3) 0.9661(2)
O23_5 O 0.5669(7) 0.4446(5) 0.9256(4)
O24_5 O 0.4446(5) 0.5744(4) 0.9331(7)
O28_5 O 0.6027(5) 0.2500 0.7500
O29_5 O 0.2500 0.7500 0.8973(5)
N2_5 N 0.5063(3) 0.4535(3) 0.8896(4)
N3_5 N 0.4535(3) 0.6104(4) 0.9937(3)
H7_5 H 0.4859 0.4711 0.8860
C11_5 C 0.5021(2) 0.30993(16) 0.79000(14)
C12_5 C 0.30993(16) 0.71000(14) 0.9979(2)
C16_5 C 0.5070(2) 0.34870(16) 0.81615(14)
C17_5 C 0.34870(16) 0.68385(14) 0.9930(2)
C21_5 C 0.5443(2) 0.36524(16) 0.82956(14)
C22_5 C 0.36524(16) 0.67044(14) 0.9557(2)
H12_5 H 0.5696 0.3527 0.8216
H13_5 H 0.3527 0.6784 0.9304
C26_5 C 0.5445(2) 0.40007(16) 0.85469(14)
C27_5 C 0.40007(16) 0.64531(14) 0.9555(2)
H17_5 H 0.5700 0.4114 0.8639
H18_5 H 0.4114 0.6361 0.9300
C31_5 C 0.5075(2) 0.41835(16) 0.86641(14)
C32_5 C 0.41835(16) 0.63359(14) 0.9925(2)
C36_5 C 0.4702(2) 0.40181(16) 0.85300(14)
H22_5 H 0.4448 0.4143 0.8610
C41_5 C 0.4699(2) 0.36698(16) 0.82787(14)
H27_5 H 0.4444 0.3557 0.8187
C46_5 C 0.5345(5) 0.4615(5) 0.9169(5)
C47_5 C 0.4615(5) 0.5831(5) 0.9655(5)
C51_5 C 0.5326(5) 0.4972(4) 0.9434(4)
C52_5 C 0.4972(4) 0.5566(4) 0.9674(5)
C56_4 C 0.5008(4) 0.5244(4) 0.9399(3)
C57_4 C 0.5244(4) 0.5601(3) 0.9992(4)
H33_5 H 0.4810 0.5211 0.9185
O12_4 O 0.0339(2) 0.2005(3) 0.7846(3)
H7_6 H 0.0141 0.0289 0.8860
C36_6 C 0.0298(2) 0.09819(16) 0.85300(14)
H22_6 H 0.0552 0.0857 0.8610
C41_6 C 0.0301(2) 0.13302(16) 0.82787(14)
H27_6 H 0.0556 0.1443 0.8187
O13_4 O 0.2005(3) 0.7846(3) 0.0339(2)
H8_6 H 0.0289 0.8860 0.0141
C37_6 C 0.09819(16) 0.85300(14) 0.0298(2)
H23_6 H 0.0857 0.8610 0.0552
C42_6 C 0.13302(16) 0.82787(14) 0.0301(2)
H28_6 H 0.1443 0.8187 0.0556
O24_6 O 0.0554(5) 0.9256(4) 0.9331(7)
N3_6 N 0.0465(3) 0.8896(4) 0.9937(3)
C12_6 C 0.19007(16) 0.79000(14) 0.9979(2)
C17_6 C 0.15130(16) 0.81615(14) 0.9930(2)
C22_6 C 0.13476(16) 0.82956(14) 0.9557(2)
H13_6 H 0.1473 0.8216 0.9304
C27_6 C 0.09993(16) 0.85469(14) 0.9555(2)
H18_6 H 0.0886 0.8639 0.9300
C32_6 C 0.08165(16) 0.86641(14) 0.9925(2)
C47_6 C 0.0385(5) 0.9169(5) 0.9655(5)
C52_6 C 0.0028(4) 0.9434(4) 0.9674(5)
H33_6 H 0.0190 0.9789 0.9185
O2_4 O 0.7846(3) 0.0339(2) 0.2005(3)
H1_6 H 0.8860 0.0141 0.0289
C6_6 C 0.85300(14) 0.0298(2) 0.09819(16)
H4_6 H 0.8610 0.0552 0.0857
C7_6 C 0.82787(14) 0.0301(2) 0.13302(16)
H5_6 H 0.8187 0.0556 0.1443
Cu4_4 Cu 0.7500 0.04042(6) 0.2500
O14_4 O 0.7154(3) 0.0339(2) 0.2995(3)
O15_4 O 0.4661(2) 0.2005(3) 0.7154(3)
O26_6 O 0.5669(7) 0.0554(5) 0.5744(4)
N5_6 N 0.5063(3) 0.0465(3) 0.6104(4)
H9_6 H 0.6140 0.0141 0.4711
H10_6 H 0.4859 0.0289 0.6140
C14_6 C 0.5021(2) 0.19007(16) 0.71000(14)
C19_6 C 0.5070(2) 0.15130(16) 0.68385(14)
C24_6 C 0.5443(2) 0.13476(16) 0.67044(14)
H15_6 H 0.5696 0.1473 0.6784
C29_6 C 0.5445(2) 0.09993(16) 0.64531(14)
H20_6 H 0.5700 0.0886 0.6361
C34_6 C 0.5075(2) 0.08165(16) 0.63359(14)
C38_6 C 0.64700(14) 0.0298(2) 0.40181(16)
C39_6 C 0.4702(2) 0.09819(16) 0.64700(14)
H24_6 H 0.6390 0.0552 0.4143
H25_6 H 0.4448 0.0857 0.6390
C43_6 C 0.67213(14) 0.0301(2) 0.36698(16)
C44_6 C 0.4699(2) 0.13302(16) 0.67213(14)
H29_6 H 0.6813 0.0556 0.3557
H30_6 H 0.4444 0.1443 0.6813
C49_6 C 0.5345(5) 0.0385(5) 0.5831(5)
C54_6 C 0.5326(5) 0.0028(4) 0.5566(4)
H34_6 H 0.5815 0.0190 0.5211
H6_6 H 0.9185 0.0190 0.9789
O5_6 O 0.96364(19) 0.20328(19) 0.78427(19)
O19_4 O 0.9661(2) 0.2846(3) 0.7995(3)
O20_4 O 0.9661(2) 0.2154(3) 0.7005(3)
O23_6 O 0.9331(7) 0.0554(5) 0.9256(4)
O28_6 O 0.8973(5) 0.2500 0.7500
N2_6 N 0.9937(3) 0.0465(3) 0.8896(4)
C11_6 C 0.9979(2) 0.19007(16) 0.79000(14)
C16_6 C 0.9930(2) 0.15130(16) 0.81615(14)
C21_6 C 0.9557(2) 0.13476(16) 0.82956(14)
H12_6 H 0.9304 0.1473 0.8216
C26_6 C 0.9555(2) 0.09993(16) 0.85469(14)
H17_6 H 0.9300 0.0886 0.8639
C31_6 C 0.9925(2) 0.08165(16) 0.86641(14)
C46_6 C 0.9655(5) 0.0385(5) 0.9169(5)
C51_6 C 0.9674(5) 0.0028(4) 0.9434(4)
Cu1_4 Cu 0.7500 0.95958(6) 0.2500
O1_6 O 0.78427(19) 0.96364(19) 0.20328(19)
O3_6 O 0.9256(4) 0.9331(7) 0.0554(5)
O4_6 O 0.7500 0.8973(5) 0.2500
N1_6 N 0.8896(4) 0.9937(3) 0.0465(3)
C1_6 C 0.79000(14) 0.9979(2) 0.19007(16)
C2_6 C 0.81615(14) 0.9930(2) 0.15130(16)
C3_6 C 0.82956(14) 0.9557(2) 0.13476(16)
H2_6 H 0.8216 0.9304 0.1473
C4_6 C 0.85469(14) 0.9555(2) 0.09993(16)
H3_6 H 0.8639 0.9300 0.0886
C5_6 C 0.86641(14) 0.9925(2) 0.08165(16)
C8_6 C 0.9169(5) 0.9655(5) 0.0385(5)
C9_6 C 0.9434(4) 0.9674(5) 0.0028(4)
O7_6 O 0.71573(19) 0.96364(19) 0.29672(19)
O9_6 O 0.29672(19) 0.78427(19) 0.53636(19)
O16_4 O 0.2995(3) 0.7846(3) 0.4661(2)
O17_4 O 0.7995(3) 0.9661(2) 0.2846(3)
O18_4 O 0.7005(3) 0.9661(2) 0.2154(3)
O25_6 O 0.5744(4) 0.9331(7) 0.4446(5)
O27_6 O 0.4446(5) 0.9256(4) 0.5669(7)
N4_6 N 0.6104(4) 0.9937(3) 0.4535(3)
N6_6 N 0.4535(3) 0.8896(4) 0.5063(3)
H11_6 H 0.4711 0.8860 0.4859
C13_6 C 0.71000(14) 0.9979(2) 0.30993(16)
C15_6 C 0.30993(16) 0.79000(14) 0.5021(2)
C18_6 C 0.68385(14) 0.9930(2) 0.34870(16)
C20_6 C 0.34870(16) 0.81615(14) 0.5070(2)
C23_6 C 0.67044(14) 0.9557(2) 0.36524(16)
C25_6 C 0.36524(16) 0.82956(14) 0.5443(2)
H14_6 H 0.6784 0.9304 0.3527
H16_6 H 0.3527 0.8216 0.5696
C28_6 C 0.64531(14) 0.9555(2) 0.40007(16)
C30_6 C 0.40007(16) 0.85469(14) 0.5445(2)
H19_6 H 0.6361 0.9300 0.4114
H21_6 H 0.4114 0.8639 0.5700
C33_6 C 0.63359(14) 0.9925(2) 0.41835(16)
C35_6 C 0.41835(16) 0.86641(14) 0.5075(2)
C40_6 C 0.40181(16) 0.85300(14) 0.4702(2)
H26_6 H 0.4143 0.8610 0.4448
C45_6 C 0.36698(16) 0.82787(14) 0.4699(2)
H31_6 H 0.3557 0.8187 0.4444
C48_6 C 0.5831(5) 0.9655(5) 0.4615(5)
C50_6 C 0.4615(5) 0.9169(5) 0.5345(5)
C53_6 C 0.5566(4) 0.9674(5) 0.4972(4)
C55_6 C 0.4972(4) 0.9434(4) 0.5326(5)
C58_6 C 0.5601(3) 0.9992(4) 0.5244(4)
C59_6 C 0.5008(4) 0.9756(4) 0.5601(3)
C60_6 C 0.5244(4) 0.9399(3) 0.5008(4)
H32_6 H 0.9789 0.9185 0.0190
H35_6 H 0.5211 0.9185 0.4810
H36_6 H 0.4810 0.9789 0.5815
O21_4 O 0.2154(3) 0.7995(3) 0.5339(2)
O22_4 O 0.2846(3) 0.7005(3) 0.5339(2)
O29_6 O 0.2500 0.7500 0.6027(5)
O8_4 O 0.70328(19) 0.03636(19) 0.21573(19)
O26_7 O 0.5554(5) 0.0669(7) 0.0744(4)
N5_7 N 0.5465(3) 0.0063(3) 0.1104(4)
C14_7 C 0.69007(16) 0.0021(2) 0.21000(14)
C19_7 C 0.65130(16) 0.0070(2) 0.18385(14)
C24_7 C 0.63476(16) 0.0443(2) 0.17044(14)
H15_7 H 0.6473 0.0696 0.1784
C29_7 C 0.59993(16) 0.0445(2) 0.14531(14)
H20_7 H 0.5886 0.0700 0.1361
C34_7 C 0.58165(16) 0.0075(2) 0.13359(14)
C49_7 C 0.5385(5) 0.0345(5) 0.0831(5)
C54_7 C 0.5028(4) 0.0326(5) 0.0566(4)
C58_7 C 0.4992(4) 0.0601(3) 0.0244(4)
C59_7 C 0.4756(4) 0.0008(4) 0.0601(3)
C60_7 C 0.4399(3) 0.0244(4) 0.0008(4)
H34_7 H 0.5190 0.0815 0.0211
O1_7 O 0.46364(19) 0.28427(19) 0.70328(19)
O3_7 O 0.4331(7) 0.4256(4) 0.5554(5)
O4_7 O 0.3973(5) 0.2500 0.7500
N1_7 N 0.4937(3) 0.3896(4) 0.5465(3)
H1_7 H 0.5141 0.3860 0.5289
C1_7 C 0.4979(2) 0.29000(14) 0.69007(16)
C2_7 C 0.4930(2) 0.31615(14) 0.65130(16)
C3_7 C 0.4557(2) 0.32956(14) 0.63476(16)
H2_7 H 0.4304 0.3216 0.6473
C4_7 C 0.4555(2) 0.35469(14) 0.59993(16)
H3_7 H 0.4300 0.3639 0.5886
C5_7 C 0.4925(2) 0.36641(14) 0.58165(16)
C6_7 C 0.5298(2) 0.35300(14) 0.59819(16)
H4_7 H 0.5552 0.3610 0.5857
C7_7 C 0.5301(2) 0.32787(14) 0.63302(16)
H5_7 H 0.5556 0.3187 0.6443
C8_7 C 0.4655(5) 0.4169(5) 0.5385(5)
C9_7 C 0.4674(5) 0.4434(4) 0.5028(4)
C10_5 C 0.4992(4) 0.4399(3) 0.4756(4)
H6_7 H 0.5190 0.4185 0.4789
O5_7 O 0.70328(19) 0.46364(19) 0.28427(19)
O6_4 O 0.28427(19) 0.70328(19) 0.46364(19)
O7_7 O 0.46364(19) 0.21573(19) 0.79672(19)
O10_4 O 0.79672(19) 0.46364(19) 0.21573(19)
O11_4 O 0.21573(19) 0.79672(19) 0.46364(19)
O23_7 O 0.5554(5) 0.4331(7) 0.4256(4)
O24_7 O 0.4256(4) 0.5554(5) 0.4331(7)
O25_7 O 0.4331(7) 0.0744(4) 0.9446(5)
O28_7 O 0.7500 0.3973(5) 0.2500
O29_7 O 0.2500 0.7500 0.3973(5)
N2_7 N 0.5465(3) 0.4937(3) 0.3896(4)
N3_7 N 0.3896(4) 0.5465(3) 0.4937(3)
N4_7 N 0.4937(3) 0.1104(4) 0.9535(3)
H7_7 H 0.5289 0.5141 0.3860
H8_7 H 0.3860 0.5289 0.5141
H9_7 H 0.5141 0.1140 0.9711
C11_7 C 0.69007(16) 0.4979(2) 0.29000(14)
C12_7 C 0.29000(14) 0.69007(16) 0.4979(2)
C13_7 C 0.4979(2) 0.21000(14) 0.80993(16)
C16_7 C 0.65130(16) 0.4930(2) 0.31615(14)
C17_7 C 0.31615(14) 0.65130(16) 0.4930(2)
C18_7 C 0.4930(2) 0.18385(14) 0.84870(16)
C21_7 C 0.63476(16) 0.4557(2) 0.32956(14)
C22_7 C 0.32956(14) 0.63476(16) 0.4557(2)
C23_7 C 0.4557(2) 0.17044(14) 0.86524(16)
H12_7 H 0.6473 0.4304 0.3216
H13_7 H 0.3216 0.6473 0.4304
H14_7 H 0.4304 0.1784 0.8527
C26_7 C 0.59993(16) 0.4555(2) 0.35469(14)
C27_7 C 0.35469(14) 0.59993(16) 0.4555(2)
C28_7 C 0.4555(2) 0.14531(14) 0.90007(16)
H17_7 H 0.5886 0.4300 0.3639
H18_7 H 0.3639 0.5886 0.4300
H19_7 H 0.4300 0.1361 0.9114
C31_7 C 0.58165(16) 0.4925(2) 0.36641(14)
C32_7 C 0.36641(14) 0.58165(16) 0.4925(2)
C33_7 C 0.4925(2) 0.13359(14) 0.91835(16)
C36_7 C 0.59819(16) 0.5298(2) 0.35300(14)
C37_7 C 0.35300(14) 0.59819(16) 0.5298(2)
C38_7 C 0.5298(2) 0.14700(14) 0.90181(16)
H22_7 H 0.5857 0.5552 0.3610
H23_7 H 0.3610 0.5857 0.5552
H24_7 H 0.5552 0.1390 0.9143
C41_7 C 0.63302(16) 0.5301(2) 0.32787(14)
C42_7 C 0.32787(14) 0.63302(16) 0.5301(2)
C43_7 C 0.5301(2) 0.17213(14) 0.86698(16)
H27_7 H 0.6443 0.5556 0.3187
H28_7 H 0.3187 0.6443 0.5556
H29_7 H 0.5556 0.1813 0.8557
C46_7 C 0.5385(5) 0.4655(5) 0.4169(5)
C47_7 C 0.4169(5) 0.5385(5) 0.4655(5)
C48_7 C 0.4655(5) 0.0831(5) 0.9615(5)
C51_7 C 0.5028(4) 0.4674(5) 0.4434(4)
C52_7 C 0.4434(4) 0.5028(4) 0.4674(5)
C53_7 C 0.4674(5) 0.0566(4) 0.9972(4)
C56_5 C 0.4756(4) 0.4992(4) 0.4399(3)
C57_5 C 0.4399(3) 0.4756(4) 0.4992(4)
H32_7 H 0.4185 0.4789 0.5190
H33_7 H 0.4789 0.5190 0.4185
H35_7 H 0.4185 0.0211 0.9810
O9_7 O 0.28427(19) 0.79672(19) 0.03636(19)
O27_7 O 0.4256(4) 0.9446(5) 0.0669(7)
N6_7 N 0.3896(4) 0.9535(3) 0.0063(3)
H10_7 H 0.5289 0.9859 0.1140
C15_7 C 0.29000(14) 0.80993(16) 0.0021(2)
C20_7 C 0.31615(14) 0.84870(16) 0.0070(2)
C25_7 C 0.32956(14) 0.86524(16) 0.0443(2)
H16_7 H 0.3216 0.8527 0.0696
C30_7 C 0.35469(14) 0.90007(16) 0.0445(2)
H21_7 H 0.3639 0.9114 0.0700
C35_7 C 0.36641(14) 0.91835(16) 0.0075(2)
C39_7 C 0.59819(16) 0.9702(2) 0.14700(14)
H25_7 H 0.5857 0.9448 0.1390
C44_7 C 0.63302(16) 0.9699(2) 0.17213(14)
H30_7 H 0.6443 0.9444 0.1813
C50_7 C 0.4169(5) 0.9615(5) 0.0345(5)
C55_7 C 0.4434(4) 0.9972(4) 0.0326(5)
H36_7 H 0.4789 0.9810 0.0815
H11_7 H 0.3860 0.9711 0.9859
C40_7 C 0.35300(14) 0.90181(16) 0.9702(2)
H26_7 H 0.3610 0.9143 0.9448
C45_7 C 0.32787(14) 0.86698(16) 0.9699(2)
H31_7 H 0.3187 0.8557 0.9444
O9_8 O 0.21573(19) 0.70328(19) 0.03636(19)
O27_8 O 0.0744(4) 0.5554(5) 0.0669(7)
N6_8 N 0.1104(4) 0.5465(3) 0.0063(3)
C15_8 C 0.21000(14) 0.69007(16) 0.0021(2)
C20_8 C 0.18385(14) 0.65130(16) 0.0070(2)
C25_8 C 0.17044(14) 0.63476(16) 0.0443(2)
H16_8 H 0.1784 0.6473 0.0696
C30_8 C 0.14531(14) 0.59993(16) 0.0445(2)
H21_8 H 0.1361 0.5886 0.0700
C35_8 C 0.13359(14) 0.58165(16) 0.0075(2)
C50_8 C 0.0831(5) 0.5385(5) 0.0345(5)
C55_8 C 0.0566(4) 0.5028(4) 0.0326(5)
C58_8 C 0.0008(4) 0.4399(3) 0.0244(4)
C59_8 C 0.0244(4) 0.4992(4) 0.0601(3)
C60_8 C 0.0601(3) 0.4756(4) 0.0008(4)
H36_8 H 0.0211 0.5190 0.0815
O1_8 O 0.03636(19) 0.21573(19) 0.70328(19)
O3_8 O 0.0669(7) 0.0744(4) 0.5554(5)
O4_8 O 0.1027(5) 0.2500 0.7500
N1_8 N 0.0063(3) 0.1104(4) 0.5465(3)
C1_8 C 0.0021(2) 0.21000(14) 0.69007(16)
C2_8 C 0.0070(2) 0.18385(14) 0.65130(16)
C3_8 C 0.0443(2) 0.17044(14) 0.63476(16)
H2_8 H 0.0696 0.1784 0.6473
C4_8 C 0.0445(2) 0.14531(14) 0.59993(16)
H3_8 H 0.0700 0.1361 0.5886
C5_8 C 0.0075(2) 0.13359(14) 0.58165(16)
C8_8 C 0.0345(5) 0.0831(5) 0.5385(5)
C9_8 C 0.0326(5) 0.0566(4) 0.5028(4)
C10_6 C 0.0008(4) 0.0601(3) 0.4756(4)
O7_8 O 0.03636(19) 0.28427(19) 0.79672(19)
O25_8 O 0.0669(7) 0.4256(4) 0.9446(5)
N4_8 N 0.0063(3) 0.3896(4) 0.9535(3)
H11_8 H 0.1140 0.5289 0.9859
C13_8 C 0.0021(2) 0.29000(14) 0.80993(16)
C18_8 C 0.0070(2) 0.31615(14) 0.84870(16)
C23_8 C 0.0443(2) 0.32956(14) 0.86524(16)
H14_8 H 0.0696 0.3216 0.8527
C28_8 C 0.0445(2) 0.35469(14) 0.90007(16)
H19_8 H 0.0700 0.3639 0.9114
C33_8 C 0.0075(2) 0.36641(14) 0.91835(16)
C40_8 C 0.14700(14) 0.59819(16) 0.9702(2)
H26_8 H 0.1390 0.5857 0.9448
C45_8 C 0.17213(14) 0.63302(16) 0.9699(2)
H31_8 H 0.1813 0.6443 0.9444
C48_8 C 0.0345(5) 0.4169(5) 0.9615(5)
C53_8 C 0.0326(5) 0.4434(4) 0.9972(4)
C56_6 C 0.0244(4) 0.0008(4) 0.4399(3)
C57_6 C 0.0601(3) 0.0244(4) 0.4992(4)
H32_8 H 0.0815 0.0211 0.5190
H35_8 H 0.0815 0.4789 0.9810
O24_8 O 0.0744(4) 0.9446(5) 0.4331(7)
N3_8 N 0.1104(4) 0.9535(3) 0.4937(3)
H8_8 H 0.1140 0.9711 0.5141
C12_8 C 0.21000(14) 0.80993(16) 0.4979(2)
C17_8 C 0.18385(14) 0.84870(16) 0.4930(2)
C22_8 C 0.17044(14) 0.86524(16) 0.4557(2)
H13_8 H 0.1784 0.8527 0.4304
C27_8 C 0.14531(14) 0.90007(16) 0.4555(2)
H18_8 H 0.1361 0.9114 0.4300
C32_8 C 0.13359(14) 0.91835(16) 0.4925(2)
C37_8 C 0.14700(14) 0.90181(16) 0.5298(2)
H23_8 H 0.1390 0.9143 0.5552
C42_8 C 0.17213(14) 0.86698(16) 0.5301(2)
H28_8 H 0.1813 0.8557 0.5556
C47_8 C 0.0831(5) 0.9615(5) 0.4655(5)
C52_8 C 0.0566(4) 0.9972(4) 0.4674(5)
H33_8 H 0.0211 0.9810 0.4185
O26_8 O 0.9446(5) 0.4331(7) 0.0744(4)
N5_8 N 0.9535(3) 0.4937(3) 0.1104(4)
H10_8 H 0.9711 0.5141 0.1140
C14_8 C 0.80993(16) 0.4979(2) 0.21000(14)
C19_8 C 0.84870(16) 0.4930(2) 0.18385(14)
C24_8 C 0.86524(16) 0.4557(2) 0.17044(14)
H15_8 H 0.8527 0.4304 0.1784
C29_8 C 0.90007(16) 0.4555(2) 0.14531(14)
H20_8 H 0.9114 0.4300 0.1361
C34_8 C 0.91835(16) 0.4925(2) 0.13359(14)
C39_8 C 0.90181(16) 0.5298(2) 0.14700(14)
H25_8 H 0.9143 0.5552 0.1390
C44_8 C 0.86698(16) 0.5301(2) 0.17213(14)
H30_8 H 0.8557 0.5556 0.1813
C49_8 C 0.9615(5) 0.4655(5) 0.0831(5)
C54_8 C 0.9972(4) 0.4674(5) 0.0566(4)
H34_8 H 0.9810 0.4185 0.0211
H1_8 H 0.9859 0.1140 0.5289
C6_8 C 0.9702(2) 0.14700(14) 0.59819(16)
H4_8 H 0.9448 0.1390 0.5857
C7_8 C 0.9699(2) 0.17213(14) 0.63302(16)
H5_8 H 0.9444 0.1813 0.6443
H6_8 H 0.9810 0.0815 0.4789
O5_8 O 0.79672(19) 0.03636(19) 0.28427(19)
O23_8 O 0.9446(5) 0.0669(7) 0.4256(4)
O28_8 O 0.7500 0.1027(5) 0.2500
N2_8 N 0.9535(3) 0.0063(3) 0.3896(4)
H9_8 H 0.9859 0.3860 0.9711
C11_8 C 0.80993(16) 0.0021(2) 0.29000(14)
C16_8 C 0.84870(16) 0.0070(2) 0.31615(14)
C21_8 C 0.86524(16) 0.0443(2) 0.32956(14)
H12_8 H 0.8527 0.0696 0.3216
C26_8 C 0.90007(16) 0.0445(2) 0.35469(14)
H17_8 H 0.9114 0.0700 0.3639
C31_8 C 0.91835(16) 0.0075(2) 0.36641(14)
C38_8 C 0.9702(2) 0.35300(14) 0.90181(16)
H24_8 H 0.9448 0.3610 0.9143
C43_8 C 0.9699(2) 0.32787(14) 0.86698(16)
H29_8 H 0.9444 0.3187 0.8557
C46_8 C 0.9615(5) 0.0345(5) 0.4169(5)
C51_8 C 0.9972(4) 0.0326(5) 0.4434(4)
H7_8 H 0.9711 0.9859 0.3860
C36_8 C 0.90181(16) 0.9702(2) 0.35300(14)
H22_8 H 0.9143 0.9448 0.3610
C41_8 C 0.86698(16) 0.9699(2) 0.32787(14)
H27_8 H 0.8557 0.9444 0.3187
O29_8 O 0.2500 0.7500 0.1027(5)
C10_7 C 0.9399(3) 0.9992(4) 0.9756(4)
C56_7 C 0.9992(4) 0.9756(4) 0.9399(3)
C57_7 C 0.9756(4) 0.9399(3) 0.9992(4)
C10_8 C 0.0601(3) 0.0008(4) 0.0244(4)
C56_8 C 0.0008(4) 0.0244(4) 0.0601(3)
C57_8 C 0.0244(4) 0.0601(3) 0.0008(4)
loop_
_geom_bond_atom_site_label_1
_geom_bond_atom_site_label_2
_geom_bond_site_symmetry_1
_geom_bond_site_symmetry_2
Cu10 O16 1_555 1_555
H26 C40 1_555 1_555
H31 C45 1_555 1_555
C40 C45 1_555 1_555
Cu8 O15 1_555 1_555
Cu9 O9 1_555 1_555
O9 C15 1_555 1_555
O27 C50 1_555 1_555
C15 C20 1_555 1_555
C20 C25 1_555 1_555
C25 H16 1_555 1_555
C30 C25 1_555 1_555
H21 C30 1_555 1_555
C35 N6 1_555 1_555
H25 C39 1_555 1_555
H30 C44 1_555 1_555
C50 N6 1_555 1_555
C55 C50 1_555 1_555
C30 C35 1_555 1_555
C39 C44 1_555 1_555
Cu1 O1 1_555 1_555
O1 C1 1_555 1_555
O2 C1 1_555 1_555
O3 C8 1_555 1_555
O4 Cu1 1_555 1_555
N1 H1 1_555 1_555
C1 C2 1_555 1_555
C2 C3 1_555 1_555
C3 H2 1_555 1_555
C4 C3 1_555 1_555
H3 C4 1_555 1_555
C5 N1 1_555 1_555
C6 C5 1_555 1_555
H4 C6 1_555 1_555
C7 C2 1_555 1_555
H5 C7 1_555 1_555
C8 N1 1_555 1_555
C9 C8 1_555 1_555
C10 C9 1_555 1_555
H6 C10 1_555 1_555
Cu2 O5 1_555 1_555
Cu3 O6 1_555 1_555
Cu4 O2 1_555 1_555
Cu5 O12 1_555 1_555
Cu6 O13 1_555 1_555
O5 C11 1_555 1_555
O6 C12 1_555 1_555
O7 Cu1 1_555 1_555
O10 Cu2 1_555 1_555
O11 Cu3 1_555 1_555
O12 C11 1_555 1_555
O13 C12 1_555 1_555
O14 Cu4 1_555 1_555
O17 Cu1 1_555 1_555
O18 Cu1 1_555 1_555
O19 Cu2 1_555 1_555
O20 Cu2 1_555 1_555
O21 Cu3 1_555 1_555
O22 Cu3 1_555 1_555
O23 C46 1_555 1_555
O24 C47 1_555 1_555
O25 C48 1_555 1_555
O28 Cu2 1_555 1_555
O29 Cu3 1_555 1_555
N2 H7 1_555 1_555
N3 H8 1_555 1_555
N4 H9 1_555 1_555
C11 C16 1_555 1_555
C12 C17 1_555 1_555
C13 O7 1_555 1_555
C16 C21 1_555 1_555
C17 C22 1_555 1_555
C18 C13 1_555 1_555
C21 H12 1_555 1_555
C22 H13 1_555 1_555
C23 C18 1_555 1_555
H14 C23 1_555 1_555
C26 C21 1_555 1_555
C27 C22 1_555 1_555
C28 C23 1_555 1_555
H17 C26 1_555 1_555
H18 C27 1_555 1_555
H19 C28 1_555 1_555
C31 N2 1_555 1_555
C32 N3 1_555 1_555
C33 N4 1_555 1_555
C36 C31 1_555 1_555
C37 C32 1_555 1_555
C38 C33 1_555 1_555
H22 C36 1_555 1_555
H23 C37 1_555 1_555
H24 C38 1_555 1_555
C41 C16 1_555 1_555
C42 C17 1_555 1_555
C43 C18 1_555 1_555
H27 C41 1_555 1_555
H28 C42 1_555 1_555
H29 C43 1_555 1_555
C46 N2 1_555 1_555
C47 N3 1_555 1_555
C48 N4 1_555 1_555
C51 C10 1_555 1_555
C52 C47 1_555 1_555
C53 C48 1_555 1_555
C56 C51 1_555 1_555
C57 C9 1_555 1_555
H32 C57 1_555 1_555
H33 C56 1_555 1_555
C4 C5 1_555 1_555
C6 C7 1_555 1_555
O14 C13 1_555 1_555
C26 C31 1_555 1_555
C27 C32 1_555 1_555
C28 C33 1_555 1_555
C36 C41 1_555 1_555
C37 C42 1_555 1_555
C38 C43 1_555 1_555
C46 C51 1_555 1_555
C52 C56 1_555 1_555
C52 C57 1_555 1_555
Cu7 O8 1_555 1_555
O8 C14 1_555 1_555
O26 C49 1_555 1_555
C14 C19 1_555 1_555
C19 C24 1_555 1_555
C24 H15 1_555 1_555
C29 C24 1_555 1_555
H20 C29 1_555 1_555
C34 N5 1_555 1_555
C49 N5 1_555 1_555
C54 C49 1_555 1_555
C59 C54 1_555 1_555
H34 C58 1_555 1_555
C29 C34 1_555 1_555
C54 C58 1_555 1_555
Cu8 O12_2 1_555 1_555
H22_2 C36_2 1_555 1_555
H27_2 C41_2 1_555 1_555
C36_2 C41_2 1_555 1_555
H4_2 C6_2 1_555 1_555
H5_2 C7_2 1_555 1_555
Cu7 O5_2 1_555 1_555
Cu4_2 O2_2 1_555 1_555
O5_2 C11_2 1_555 1_555
O14_2 Cu4_2 1_555 1_555
O19_2 Cu7 1_555 1_555
O20_2 Cu7 1_555 1_555
O23_2 C46_2 1_555 1_555
O28_2 Cu7 1_555 1_555
C11_2 C16_2 1_555 1_555
C16_2 C21_2 1_555 1_555
C21_2 H12_2 1_555 1_555
C26_2 C21_2 1_555 1_555
H17_2 C26_2 1_555 1_555
C31_2 N2_2 1_555 1_555
H24_2 C38_2 1_555 1_555
H29_2 C43_2 1_555 1_555
C46_2 N2_2 1_555 1_555
C6_2 C7_2 1_555 1_555
C26_2 C31_2 1_555 1_555
C38_2 C43_2 1_555 1_555
C46_2 C51_2 1_555 1_555
Cu5 O15_2 1_555 1_555
O10 C14_2 1_555 1_555
O15_2 C14_2 1_555 1_555
O26_2 C49_2 1_555 1_555
N5_2 H10_2 1_555 1_555
C14_2 C19_2 1_555 1_555
C19_2 C24_2 1_555 1_555
C24_2 H15_2 1_555 1_555
C29_2 C24_2 1_555 1_555
H20_2 C29_2 1_555 1_555
C34_2 N5_2 1_555 1_555
C39_2 C34_2 1_555 1_555
H25_2 C39_2 1_555 1_555
C44_2 C19_2 1_555 1_555
H30_2 C44_2 1_555 1_555
C49_2 N5_2 1_555 1_555
C54_2 C49_2 1_555 1_555
C29_2 C34_2 1_555 1_555
C39_2 C44_2 1_555 1_555
Cu6 O13_2 1_555 1_555
O11 C12_2 1_555 1_555
O13_2 C12_2 1_555 1_555
O24_2 C47_2 1_555 1_555
N3_2 H8_2 1_555 1_555
C12_2 C17_2 1_555 1_555
C17_2 C22_2 1_555 1_555
C22_2 H13_2 1_555 1_555
C27_2 C22_2 1_555 1_555
H18_2 C27_2 1_555 1_555
C32_2 N3_2 1_555 1_555
C37_2 C32_2 1_555 1_555
H23_2 C37_2 1_555 1_555
C42_2 C17_2 1_555 1_555
H28_2 C42_2 1_555 1_555
C47_2 N3_2 1_555 1_555
C52_2 C47_2 1_555 1_555
C27_2 C32_2 1_555 1_555
C37_2 C42_2 1_555 1_555
Cu1_2 O1_2 1_555 1_555
O1_2 C1_2 1_555 1_555
O3_2 C8_2 1_555 1_555
O4_2 Cu1_2 1_555 1_555
C1_2 C2_2 1_555 1_555
C2_2 C3_2 1_555 1_555
C3_2 H2_2 1_555 1_555
C4_2 C3_2 1_555 1_555
H3_2 C4_2 1_555 1_555
C5_2 N1_2 1_555 1_555
C8_2 N1_2 1_555 1_555
C9_2 C8_2 1_555 1_555
C10_2 C9_2 1_555 1_555
Cu10 O16_2 1_555 1_555
O7_2 Cu1_2 1_555 1_555
O17_2 Cu1_2 1_555 1_555
O18_2 Cu1_2 1_555 1_555
O25_2 C48_2 1_555 1_555
C13_2 O7_2 1_555 1_555
C18_2 C13_2 1_555 1_555
C23_2 C18_2 1_555 1_555
H14_2 C23_2 1_555 1_555
C28_2 C23_2 1_555 1_555
H19_2 C28_2 1_555 1_555
C33_2 N4_2 1_555 1_555
H26_2 C40_2 1_555 1_555
H31_2 C45_2 1_555 1_555
C48_2 N4_2 1_555 1_555
C53_2 C48_2 1_555 1_555
C57_2 C9_2 1_555 1_555
H32_2 C57_2 1_555 1_555
C4_2 C5_2 1_555 1_555
C28_2 C33_2 1_555 1_555
C40_2 C45_2 1_555 1_555
Cu9 O9_2 1_555 1_555
O9_2 C15_2 1_555 1_555
O27_2 C50_2 1_555 1_555
C15_2 C20_2 1_555 1_555
C20_2 C25_2 1_555 1_555
C25_2 H16_2 1_555 1_555
C30_2 C25_2 1_555 1_555
H21_2 C30_2 1_555 1_555
C35_2 N6_2 1_555 1_555
C50_2 N6_2 1_555 1_555
C55_2 C50_2 1_555 1_555
H36_2 C59_2 1_555 1_555
C30_2 C35_2 1_555 1_555
C55_2 C59_2 1_555 1_555
C55_2 C60_2 1_555 1_555
O21_2 Cu9 1_555 1_555
O22_2 Cu9 1_555 1_555
O29_2 Cu9 1_555 1_555
H6_3 C10_3 1_555 1_555
Cu4 O5_3 1_555 1_555
Cu10 O6_2 1_555 1_555
O5_3 C11_3 1_555 1_555
O6_2 C12_3 1_555 1_555
O10_2 Cu4 1_555 1_555
O11_2 Cu10 1_555 1_555
O17 C11_3 1_555 1_555
O23_3 C46_3 1_555 1_555
O24_3 C47_3 1_555 1_555
O28_3 Cu4 1_555 1_555
O29_3 Cu10 1_555 1_555
N2_3 H7_3 1_555 1_555
C11_3 C16_3 1_555 1_555
C12_3 C17_3 1_555 1_555
C16_3 C21_3 1_555 1_555
C17_3 C22_3 1_555 1_555
C21_3 H12_3 1_555 1_555
C22_3 H13_3 1_555 1_555
C26_3 C21_3 1_555 1_555
C27_3 C22_3 1_555 1_555
H17_3 C26_3 1_555 1_555
H18_3 C27_3 1_555 1_555
C31_3 N2_3 1_555 1_555
C32_3 N3_3 1_555 1_555
C36_3 C31_3 1_555 1_555
H22_3 C36_3 1_555 1_555
C41_3 C16_3 1_555 1_555
H27_3 C41_3 1_555 1_555
C46_3 N2_3 1_555 1_555
C47_3 N3_3 1_555 1_555
C51_3 C10_3 1_555 1_555
C52_3 C47_3 1_555 1_555
C56_3 C51_3 1_555 1_555
H33_3 C56_3 1_555 1_555
C26_3 C31_3 1_555 1_555
C27_3 C32_3 1_555 1_555
C36_3 C41_3 1_555 1_555
C46_3 C51_3 1_555 1_555
C52_3 C56_3 1_555 1_555
C52_3 C57_3 1_555 1_555
Cu5 O1_3 1_555 1_555
O1_3 C1_3 1_555 1_555
O20 C1_3 1_555 1_555
O3_3 C8_3 1_555 1_555
O4_3 Cu5 1_555 1_555
N1_3 H1_3 1_555 1_555
C1_3 C2_3 1_555 1_555
C2_3 C3_3 1_555 1_555
C3_3 H2_3 1_555 1_555
C4_3 C3_3 1_555 1_555
H3_3 C4_3 1_555 1_555
C5_3 N1_3 1_555 1_555
C6_3 C5_3 1_555 1_555
H4_3 C6_3 1_555 1_555
C7_3 C2_3 1_555 1_555
H5_3 C7_3 1_555 1_555
C8_3 N1_3 1_555 1_555
C9_3 C8_3 1_555 1_555
Cu4_2 O8_2 1_555 1_555
O7_3 Cu5 1_555 1_555
O8_2 C14_3 1_555 1_555
O25_3 C48_3 1_555 1_555
O26_3 C49_3 1_555 1_555
N4_3 H9_3 1_555 1_555
C13_3 O7_3 1_555 1_555
C14_3 C19_3 1_555 1_555
C18_3 C13_3 1_555 1_555
C19_3 C24_3 1_555 1_555
C23_3 C18_3 1_555 1_555
C24_3 H15_3 1_555 1_555
H14_3 C23_3 1_555 1_555
C28_3 C23_3 1_555 1_555
C29_3 C24_3 1_555 1_555
H19_3 C28_3 1_555 1_555
H20_3 C29_3 1_555 1_555
C33_3 N4_3 1_555 1_555
C34_3 N5_3 1_555 1_555
C38_3 C33_3 1_555 1_555
H23_3 C37_3 1_555 1_555
H24_3 C38_3 1_555 1_555
C43_3 C18_3 1_555 1_555
H28_3 C42_3 1_555 1_555
H29_3 C43_3 1_555 1_555
C48_3 N4_3 1_555 1_555
C49_3 N5_3 1_555 1_555
C53_3 C48_3 1_555 1_555
C54_3 C49_3 1_555 1_555
C58_3 C53_3 1_555 1_555
C59_3 C54_3 1_555 1_555
C60_3 C53_3 1_555 1_555
H34_3 C58_3 1_555 1_555
H35_3 C60_3 1_555 1_555
C4_3 C5_3 1_555 1_555
C6_3 C7_3 1_555 1_555
O19 C13_3 1_555 1_555
C28_3 C33_3 1_555 1_555
C29_3 C34_3 1_555 1_555
C37_3 C42_3 1_555 1_555
C38_3 C43_3 1_555 1_555
C54_3 C58_3 1_555 1_555
Cu6 O9_3 1_555 1_555
O9_3 C15_3 1_555 1_555
O22 C15_3 1_555 1_555
O27_3 C50_3 1_555 1_555
N6_3 H11_3 1_555 1_555
C15_3 C20_3 1_555 1_555
C20_3 C25_3 1_555 1_555
C25_3 H16_3 1_555 1_555
C30_3 C25_3 1_555 1_555
H21_3 C30_3 1_555 1_555
C35_3 N6_3 1_555 1_555
C40_3 C35_3 1_555 1_555
H25_3 C39_3 1_555 1_555
H26_3 C40_3 1_555 1_555
C45_3 C20_3 1_555 1_555
H30_3 C44_3 1_555 1_555
H31_3 C45_3 1_555 1_555
C50_3 N6_3 1_555 1_555
C55_3 C50_3 1_555 1_555
C30_3 C35_3 1_555 1_555
C39_3 C44_3 1_555 1_555
C40_3 C45_3 1_555 1_555
Cu8 O1_4 1_555 1_555
O1_4 C1_4 1_555 1_555
O3_4 C8_4 1_555 1_555
O4_4 Cu8 1_555 1_555
C1_4 C2_4 1_555 1_555
C2_4 C3_4 1_555 1_555
C3_4 H2_4 1_555 1_555
C4_4 C3_4 1_555 1_555
H3_4 C4_4 1_555 1_555
C5_4 N1_4 1_555 1_555
C8_4 N1_4 1_555 1_555
C9_4 C8_4 1_555 1_555
Cu6 O9_4 1_555 1_555
O7_4 Cu8 1_555 1_555
O9_4 C15_4 1_555 1_555
O21 C15_4 1_555 1_555
O25_4 C48_4 1_555 1_555
O27_4 C50_4 1_555 1_555
N6_4 H11_4 1_555 1_555
C13_4 O7_4 1_555 1_555
C15_4 C20_4 1_555 1_555
C18_4 C13_4 1_555 1_555
C20_4 C25_4 1_555 1_555
C23_4 C18_4 1_555 1_555
C25_4 H16_4 1_555 1_555
H14_4 C23_4 1_555 1_555
C28_4 C23_4 1_555 1_555
C30_4 C25_4 1_555 1_555
H19_4 C28_4 1_555 1_555
H21_4 C30_4 1_555 1_555
C33_4 N4_4 1_555 1_555
C35_4 N6_4 1_555 1_555
C40_4 C35_4 1_555 1_555
H26_4 C40_4 1_555 1_555
C45_4 C20_4 1_555 1_555
H31_4 C45_4 1_555 1_555
C48_4 N4_4 1_555 1_555
C50_4 N6_4 1_555 1_555
C53_4 C48_4 1_555 1_555
C55_4 C50_4 1_555 1_555
C58_4 C53_4 1_555 1_555
C60_4 C53_4 1_555 1_555
H35_4 C60_4 1_555 1_555
H36_4 C59_4 1_555 1_555
C4_4 C5_4 1_555 1_555
C28_4 C33_4 1_555 1_555
C30_4 C35_4 1_555 1_555
C40_4 C45_4 1_555 1_555
C55_4 C59_4 1_555 1_555
C55_4 C60_4 1_555 1_555
Cu4_2 O5_4 1_555 1_555
O5_4 C11_4 1_555 1_555
O23_4 C46_4 1_555 1_555
O28_4 Cu4_2 1_555 1_555
C11_4 C16_4 1_555 1_555
C16_4 C21_4 1_555 1_555
C21_4 H12_4 1_555 1_555
C26_4 C21_4 1_555 1_555
H17_4 C26_4 1_555 1_555
C31_4 N2_4 1_555 1_555
C46_4 N2_4 1_555 1_555
C26_4 C31_4 1_555 1_555
C46_4 C51_4 1_555 1_555
H4_4 C6_4 1_555 1_555
H5_4 C7_4 1_555 1_555
O10_2 C14_4 1_555 1_555
O18 C14_4 1_555 1_555
O26_4 C49_4 1_555 1_555
N5_4 H10_4 1_555 1_555
C14_4 C19_4 1_555 1_555
C19_4 C24_4 1_555 1_555
C24_4 H15_4 1_555 1_555
C29_4 C24_4 1_555 1_555
H20_4 C29_4 1_555 1_555
C34_4 N5_4 1_555 1_555
C39_4 C34_4 1_555 1_555
H24_4 C38_4 1_555 1_555
H25_4 C39_4 1_555 1_555
C44_4 C19_4 1_555 1_555
H29_4 C43_4 1_555 1_555
H30_4 C44_4 1_555 1_555
C49_4 N5_4 1_555 1_555
C54_4 C49_4 1_555 1_555
C6_4 C7_4 1_555 1_555
C29_4 C34_4 1_555 1_555
C38_4 C43_4 1_555 1_555
C39_4 C44_4 1_555 1_555
O11_2 C12_4 1_555 1_555
O24_4 C47_4 1_555 1_555
C12_4 C17_4 1_555 1_555
C17_4 C22_4 1_555 1_555
C22_4 H13_4 1_555 1_555
C27_4 C22_4 1_555 1_555
H18_4 C27_4 1_555 1_555
C32_4 N3_4 1_555 1_555
C47_4 N3_4 1_555 1_555
C52_4 C47_4 1_555 1_555
C27_4 C32_4 1_555 1_555
H23_4 C37_4 1_555 1_555
H28_4 C42_4 1_555 1_555
C37_4 C42_4 1_555 1_555
H22_4 C36_4 1_555 1_555
H27_4 C41_4 1_555 1_555
C36_4 C41_4 1_555 1_555
O29_4 Cu6 1_555 1_555
Cu8_2 O15_3 1_555 1_555
Cu9_2 O9_5 1_555 1_555
Cu10_2 O16_3 1_555 1_555
O9_5 C15_5 1_555 1_555
O16_3 C15_5 1_555 1_555
O27_5 C50_5 1_555 1_555
N6_5 H11_5 1_555 1_555
C15_5 C20_5 1_555 1_555
C20_5 C25_5 1_555 1_555
C25_5 H16_5 1_555 1_555
C30_5 C25_5 1_555 1_555
H21_5 C30_5 1_555 1_555
C35_5 N6_5 1_555 1_555
C40_5 C35_5 1_555 1_555
H25_5 C39_5 1_555 1_555
H26_5 C40_5 1_555 1_555
C45_5 C20_5 1_555 1_555
H30_5 C44_5 1_555 1_555
H31_5 C45_5 1_555 1_555
C50_5 N6_5 1_555 1_555
C55_5 C50_5 1_555 1_555
C30_5 C35_5 1_555 1_555
C39_5 C44_5 1_555 1_555
C40_5 C45_5 1_555 1_555
Cu1_3 O1_5 1_555 1_555
O1_5 C1_5 1_555 1_555
O2_3 C1_5 1_555 1_555
O3_5 C8_5 1_555 1_555
O4_5 Cu1_3 1_555 1_555
N1_5 H1_5 1_555 1_555
C1_5 C2_5 1_555 1_555
C2_5 C3_5 1_555 1_555
C3_5 H2_5 1_555 1_555
C4_5 C3_5 1_555 1_555
H3_5 C4_5 1_555 1_555
C5_5 N1_5 1_555 1_555
C6_5 C5_5 1_555 1_555
H4_5 C6_5 1_555 1_555
C7_5 C2_5 1_555 1_555
H5_5 C7_5 1_555 1_555
C8_5 N1_5 1_555 1_555
C9_5 C8_5 1_555 1_555
Cu4_3 O2_3 1_555 1_555
Cu6_2 O13_3 1_555 1_555
Cu7_2 O8_3 1_555 1_555
O7_5 Cu1_3 1_555 1_555
O8_3 C14_5 1_555 1_555
O14_3 Cu4_3 1_555 1_555
O17_3 Cu1_3 1_555 1_555
O18_3 Cu1_3 1_555 1_555
O25_5 C48_5 1_555 1_555
O26_5 C49_5 1_555 1_555
N4_5 H9_5 1_555 1_555
C13_5 O7_5 1_555 1_555
C14_5 C19_5 1_555 1_555
C18_5 C13_5 1_555 1_555
C19_5 C24_5 1_555 1_555
C23_5 C18_5 1_555 1_555
C24_5 H15_5 1_555 1_555
H14_5 C23_5 1_555 1_555
C28_5 C23_5 1_555 1_555
C29_5 C24_5 1_555 1_555
H19_5 C28_5 1_555 1_555
H20_5 C29_5 1_555 1_555
C33_5 N4_5 1_555 1_555
C34_5 N5_5 1_555 1_555
C38_5 C33_5 1_555 1_555
H23_5 C37_5 1_555 1_555
H24_5 C38_5 1_555 1_555
C43_5 C18_5 1_555 1_555
H28_5 C42_5 1_555 1_555
H29_5 C43_5 1_555 1_555
C48_5 N4_5 1_555 1_555
C49_5 N5_5 1_555 1_555
C53_5 C48_5 1_555 1_555
C54_5 C49_5 1_555 1_555
C58_5 C53_5 1_555 1_555
C59_5 C54_5 1_555 1_555
C60_5 C53_5 1_555 1_555
H34_5 C58_5 1_555 1_555
H35_5 C60_5 1_555 1_555
C4_5 C5_5 1_555 1_555
C6_5 C7_5 1_555 1_555
O14_3 C13_5 1_555 1_555
C28_5 C33_5 1_555 1_555
C29_5 C34_5 1_555 1_555
C37_5 C42_5 1_555 1_555
C38_5 C43_5 1_555 1_555
C54_5 C58_5 1_555 1_555
H6_5 C10_4 1_555 1_555
Cu2_2 O5_5 1_555 1_555
Cu3_2 O6_3 1_555 1_555
Cu5_2 O12_3 1_555 1_555
O5_5 C11_5 1_555 1_555
O6_3 C12_5 1_555 1_555
O10_3 Cu2_2 1_555 1_555
O11_3 Cu3_2 1_555 1_555
O12_3 C11_5 1_555 1_555
O19_3 Cu2_2 1_555 1_555
O20_3 Cu2_2 1_555 1_555
O21_3 Cu3_2 1_555 1_555
O22_3 Cu3_2 1_555 1_555
O23_5 C46_5 1_555 1_555
O24_5 C47_5 1_555 1_555
O28_5 Cu2_2 1_555 1_555
O29_5 Cu3_2 1_555 1_555
N2_5 H7_5 1_555 1_555
C11_5 C16_5 1_555 1_555
C12_5 C17_5 1_555 1_555
C16_5 C21_5 1_555 1_555
C17_5 C22_5 1_555 1_555
C21_5 H12_5 1_555 1_555
C22_5 H13_5 1_555 1_555
C26_5 C21_5 1_555 1_555
C27_5 C22_5 1_555 1_555
H17_5 C26_5 1_555 1_555
H18_5 C27_5 1_555 1_555
C31_5 N2_5 1_555 1_555
C32_5 N3_5 1_555 1_555
C36_5 C31_5 1_555 1_555
H22_5 C36_5 1_555 1_555
C41_5 C16_5 1_555 1_555
H27_5 C41_5 1_555 1_555
C46_5 N2_5 1_555 1_555
C47_5 N3_5 1_555 1_555
C51_5 C10_4 1_555 1_555
C52_5 C47_5 1_555 1_555
C56_4 C51_5 1_555 1_555
H33_5 C56_4 1_555 1_555
C26_5 C31_5 1_555 1_555
C27_5 C32_5 1_555 1_555
C36_5 C41_5 1_555 1_555
C46_5 C51_5 1_555 1_555
C52_5 C56_4 1_555 1_555
C52_5 C57_4 1_555 1_555
Cu8_2 O12_4 1_555 1_555
H22_6 C36_6 1_555 1_555
H27_6 C41_6 1_555 1_555
C36_6 C41_6 1_555 1_555
Cu6_2 O13_4 1_555 1_555
H23_6 C37_6 1_555 1_555
H28_6 C42_6 1_555 1_555
C37_6 C42_6 1_555 1_555
O11_3 C12_6 1_555 1_555
O24_6 C47_6 1_555 1_555
C12_6 C17_6 1_555 1_555
C17_6 C22_6 1_555 1_555
C22_6 H13_6 1_555 1_555
C27_6 C22_6 1_555 1_555
H18_6 C27_6 1_555 1_555
C32_6 N3_6 1_555 1_555
C47_6 N3_6 1_555 1_555
C52_6 C47_6 1_555 1_555
C27_6 C32_6 1_555 1_555
H4_6 C6_6 1_555 1_555
H5_6 C7_6 1_555 1_555
Cu4_4 O2_4 1_555 1_555
Cu5_2 O15_4 1_555 1_555
O10_3 C14_6 1_555 1_555
O14_4 Cu4_4 1_555 1_555
O15_4 C14_6 1_555 1_555
O26_6 C49_6 1_555 1_555
N5_6 H10_6 1_555 1_555
C14_6 C19_6 1_555 1_555
C19_6 C24_6 1_555 1_555
C24_6 H15_6 1_555 1_555
C29_6 C24_6 1_555 1_555
H20_6 C29_6 1_555 1_555
C34_6 N5_6 1_555 1_555
C39_6 C34_6 1_555 1_555
H24_6 C38_6 1_555 1_555
H25_6 C39_6 1_555 1_555
C44_6 C19_6 1_555 1_555
H29_6 C43_6 1_555 1_555
H30_6 C44_6 1_555 1_555
C49_6 N5_6 1_555 1_555
C54_6 C49_6 1_555 1_555
C6_6 C7_6 1_555 1_555
C29_6 C34_6 1_555 1_555
C38_6 C43_6 1_555 1_555
C39_6 C44_6 1_555 1_555
Cu7_2 O5_6 1_555 1_555
O5_6 C11_6 1_555 1_555
O19_4 Cu7_2 1_555 1_555
O20_4 Cu7_2 1_555 1_555
O23_6 C46_6 1_555 1_555
O28_6 Cu7_2 1_555 1_555
C11_6 C16_6 1_555 1_555
C16_6 C21_6 1_555 1_555
C21_6 H12_6 1_555 1_555
C26_6 C21_6 1_555 1_555
H17_6 C26_6 1_555 1_555
C31_6 N2_6 1_555 1_555
C46_6 N2_6 1_555 1_555
C26_6 C31_6 1_555 1_555
C46_6 C51_6 1_555 1_555
Cu1_4 O1_6 1_555 1_555
O1_6 C1_6 1_555 1_555
O3_6 C8_6 1_555 1_555
O4_6 Cu1_4 1_555 1_555
C1_6 C2_6 1_555 1_555
C2_6 C3_6 1_555 1_555
C3_6 H2_6 1_555 1_555
C4_6 C3_6 1_555 1_555
H3_6 C4_6 1_555 1_555
C5_6 N1_6 1_555 1_555
C8_6 N1_6 1_555 1_555
C9_6 C8_6 1_555 1_555
Cu9_2 O9_6 1_555 1_555
Cu10_2 O16_4 1_555 1_555
O7_6 Cu1_4 1_555 1_555
O9_6 C15_6 1_555 1_555
O16_4 C15_6 1_555 1_555
O17_4 Cu1_4 1_555 1_555
O18_4 Cu1_4 1_555 1_555
O25_6 C48_6 1_555 1_555
O27_6 C50_6 1_555 1_555
N6_6 H11_6 1_555 1_555
C13_6 O7_6 1_555 1_555
C15_6 C20_6 1_555 1_555
C18_6 C13_6 1_555 1_555
C20_6 C25_6 1_555 1_555
C23_6 C18_6 1_555 1_555
C25_6 H16_6 1_555 1_555
H14_6 C23_6 1_555 1_555
C28_6 C23_6 1_555 1_555
C30_6 C25_6 1_555 1_555
H19_6 C28_6 1_555 1_555
H21_6 C30_6 1_555 1_555
C33_6 N4_6 1_555 1_555
C35_6 N6_6 1_555 1_555
C40_6 C35_6 1_555 1_555
H26_6 C40_6 1_555 1_555
C45_6 C20_6 1_555 1_555
H31_6 C45_6 1_555 1_555
C48_6 N4_6 1_555 1_555
C50_6 N6_6 1_555 1_555
C53_6 C48_6 1_555 1_555
C55_6 C50_6 1_555 1_555
C58_6 C53_6 1_555 1_555
C60_6 C53_6 1_555 1_555
H35_6 C60_6 1_555 1_555
H36_6 C59_6 1_555 1_555
C4_6 C5_6 1_555 1_555
C28_6 C33_6 1_555 1_555
C30_6 C35_6 1_555 1_555
C40_6 C45_6 1_555 1_555
C55_6 C59_6 1_555 1_555
C55_6 C60_6 1_555 1_555
O21_4 Cu9_2 1_555 1_555
O22_4 Cu9_2 1_555 1_555
O29_6 Cu9_2 1_555 1_555
Cu4_4 O8_4 1_555 1_555
O8_4 C14_7 1_555 1_555
O26_7 C49_7 1_555 1_555
C14_7 C19_7 1_555 1_555
C19_7 C24_7 1_555 1_555
C24_7 H15_7 1_555 1_555
C29_7 C24_7 1_555 1_555
H20_7 C29_7 1_555 1_555
C34_7 N5_7 1_555 1_555
C49_7 N5_7 1_555 1_555
C54_7 C49_7 1_555 1_555
C59_7 C54_7 1_555 1_555
H34_7 C58_7 1_555 1_555
C29_7 C34_7 1_555 1_555
C54_7 C58_7 1_555 1_555
Cu5_2 O1_7 1_555 1_555
O1_7 C1_7 1_555 1_555
O20_3 C1_7 1_555 1_555
O3_7 C8_7 1_555 1_555
O4_7 Cu5_2 1_555 1_555
N1_7 H1_7 1_555 1_555
C1_7 C2_7 1_555 1_555
C2_7 C3_7 1_555 1_555
C3_7 H2_7 1_555 1_555
C4_7 C3_7 1_555 1_555
H3_7 C4_7 1_555 1_555
C5_7 N1_7 1_555 1_555
C6_7 C5_7 1_555 1_555
H4_7 C6_7 1_555 1_555
C7_7 C2_7 1_555 1_555
H5_7 C7_7 1_555 1_555
C8_7 N1_7 1_555 1_555
C9_7 C8_7 1_555 1_555
C10_5 C9_7 1_555 1_555
H6_7 C10_5 1_555 1_555
Cu4_3 O5_7 1_555 1_555
Cu10_2 O6_4 1_555 1_555
O5_7 C11_7 1_555 1_555
O6_4 C12_7 1_555 1_555
O7_7 Cu5_2 1_555 1_555
O10_4 Cu4_3 1_555 1_555
O11_4 Cu10_2 1_555 1_555
O17_3 C11_7 1_555 1_555
O22_4 C12_7 1_555 1_555
O23_7 C46_7 1_555 1_555
O24_7 C47_7 1_555 1_555
O25_7 C48_7 1_555 1_555
O28_7 Cu4_3 1_555 1_555
O29_7 Cu10_2 1_555 1_555
N2_7 H7_7 1_555 1_555
N3_7 H8_7 1_555 1_555
N4_7 H9_7 1_555 1_555
C11_7 C16_7 1_555 1_555
C12_7 C17_7 1_555 1_555
C13_7 O7_7 1_555 1_555
C16_7 C21_7 1_555 1_555
C17_7 C22_7 1_555 1_555
C18_7 C13_7 1_555 1_555
C21_7 H12_7 1_555 1_555
C22_7 H13_7 1_555 1_555
C23_7 C18_7 1_555 1_555
H14_7 C23_7 1_555 1_555
C26_7 C21_7 1_555 1_555
C27_7 C22_7 1_555 1_555
C28_7 C23_7 1_555 1_555
H17_7 C26_7 1_555 1_555
H18_7 C27_7 1_555 1_555
H19_7 C28_7 1_555 1_555
C31_7 N2_7 1_555 1_555
C32_7 N3_7 1_555 1_555
C33_7 N4_7 1_555 1_555
C36_7 C31_7 1_555 1_555
C37_7 C32_7 1_555 1_555
C38_7 C33_7 1_555 1_555
H22_7 C36_7 1_555 1_555
H23_7 C37_7 1_555 1_555
H24_7 C38_7 1_555 1_555
C41_7 C16_7 1_555 1_555
C42_7 C17_7 1_555 1_555
C43_7 C18_7 1_555 1_555
H27_7 C41_7 1_555 1_555
H28_7 C42_7 1_555 1_555
H29_7 C43_7 1_555 1_555
C46_7 N2_7 1_555 1_555
C47_7 N3_7 1_555 1_555
C48_7 N4_7 1_555 1_555
C51_7 C10_5 1_555 1_555
C52_7 C47_7 1_555 1_555
C53_7 C48_7 1_555 1_555
C56_5 C51_7 1_555 1_555
C57_5 C9_7 1_555 1_555
H32_7 C57_5 1_555 1_555
H33_7 C56_5 1_555 1_555
C4_7 C5_7 1_555 1_555
C6_7 C7_7 1_555 1_555
O19_3 C13_7 1_555 1_555
C26_7 C31_7 1_555 1_555
C27_7 C32_7 1_555 1_555
C28_7 C33_7 1_555 1_555
C36_7 C41_7 1_555 1_555
C37_7 C42_7 1_555 1_555
C38_7 C43_7 1_555 1_555
C46_7 C51_7 1_555 1_555
C52_7 C56_5 1_555 1_555
C52_7 C57_5 1_555 1_555
Cu6_2 O9_7 1_555 1_555
O9_7 C15_7 1_555 1_555
O27_7 C50_7 1_555 1_555
C15_7 C20_7 1_555 1_555
C20_7 C25_7 1_555 1_555
C25_7 H16_7 1_555 1_555
C30_7 C25_7 1_555 1_555
H21_7 C30_7 1_555 1_555
C35_7 N6_7 1_555 1_555
H25_7 C39_7 1_555 1_555
H30_7 C44_7 1_555 1_555
C50_7 N6_7 1_555 1_555
C55_7 C50_7 1_555 1_555
C30_7 C35_7 1_555 1_555
C39_7 C44_7 1_555 1_555
H26_7 C40_7 1_555 1_555
H31_7 C45_7 1_555 1_555
C40_7 C45_7 1_555 1_555
Cu6_2 O9_8 1_555 1_555
O9_8 C15_8 1_555 1_555
O27_8 C50_8 1_555 1_555
C15_8 C20_8 1_555 1_555
C20_8 C25_8 1_555 1_555
C25_8 H16_8 1_555 1_555
C30_8 C25_8 1_555 1_555
H21_8 C30_8 1_555 1_555
C35_8 N6_8 1_555 1_555
C50_8 N6_8 1_555 1_555
C55_8 C50_8 1_555 1_555
H36_8 C59_8 1_555 1_555
C30_8 C35_8 1_555 1_555
C55_8 C59_8 1_555 1_555
C55_8 C60_8 1_555 1_555
Cu8_2 O1_8 1_555 1_555
O1_8 C1_8 1_555 1_555
O3_8 C8_8 1_555 1_555
O4_8 Cu8_2 1_555 1_555
C1_8 C2_8 1_555 1_555
C2_8 C3_8 1_555 1_555
C3_8 H2_8 1_555 1_555
C4_8 C3_8 1_555 1_555
H3_8 C4_8 1_555 1_555
C5_8 N1_8 1_555 1_555
C8_8 N1_8 1_555 1_555
C9_8 C8_8 1_555 1_555
C10_6 C9_8 1_555 1_555
O7_8 Cu8_2 1_555 1_555
O25_8 C48_8 1_555 1_555
C13_8 O7_8 1_555 1_555
C18_8 C13_8 1_555 1_555
C23_8 C18_8 1_555 1_555
H14_8 C23_8 1_555 1_555
C28_8 C23_8 1_555 1_555
H19_8 C28_8 1_555 1_555
C33_8 N4_8 1_555 1_555
H26_8 C40_8 1_555 1_555
H31_8 C45_8 1_555 1_555
C48_8 N4_8 1_555 1_555
C53_8 C48_8 1_555 1_555
C57_6 C9_8 1_555 1_555
H32_8 C57_6 1_555 1_555
C4_8 C5_8 1_555 1_555
C28_8 C33_8 1_555 1_555
C40_8 C45_8 1_555 1_555
O11_4 C12_8 1_555 1_555
O21_4 C12_8 1_555 1_555
O24_8 C47_8 1_555 1_555
N3_8 H8_8 1_555 1_555
C12_8 C17_8 1_555 1_555
C17_8 C22_8 1_555 1_555
C22_8 H13_8 1_555 1_555
C27_8 C22_8 1_555 1_555
H18_8 C27_8 1_555 1_555
C32_8 N3_8 1_555 1_555
C37_8 C32_8 1_555 1_555
H23_8 C37_8 1_555 1_555
C42_8 C17_8 1_555 1_555
H28_8 C42_8 1_555 1_555
C47_8 N3_8 1_555 1_555
C52_8 C47_8 1_555 1_555
C27_8 C32_8 1_555 1_555
C37_8 C42_8 1_555 1_555
O10_4 C14_8 1_555 1_555
O18_3 C14_8 1_555 1_555
O26_8 C49_8 1_555 1_555
N5_8 H10_8 1_555 1_555
C14_8 C19_8 1_555 1_555
C19_8 C24_8 1_555 1_555
C24_8 H15_8 1_555 1_555
C29_8 C24_8 1_555 1_555
H20_8 C29_8 1_555 1_555
C34_8 N5_8 1_555 1_555
C39_8 C34_8 1_555 1_555
H25_8 C39_8 1_555 1_555
C44_8 C19_8 1_555 1_555
H30_8 C44_8 1_555 1_555
C49_8 N5_8 1_555 1_555
C54_8 C49_8 1_555 1_555
C29_8 C34_8 1_555 1_555
C39_8 C44_8 1_555 1_555
H4_8 C6_8 1_555 1_555
H5_8 C7_8 1_555 1_555
Cu4_4 O5_8 1_555 1_555
O5_8 C11_8 1_555 1_555
O23_8 C46_8 1_555 1_555
O28_8 Cu4_4 1_555 1_555
C11_8 C16_8 1_555 1_555
C16_8 C21_8 1_555 1_555
C21_8 H12_8 1_555 1_555
C26_8 C21_8 1_555 1_555
H17_8 C26_8 1_555 1_555
C31_8 N2_8 1_555 1_555
H24_8 C38_8 1_555 1_555
H29_8 C43_8 1_555 1_555
C46_8 N2_8 1_555 1_555
C6_8 C7_8 1_555 1_555
C26_8 C31_8 1_555 1_555
C38_8 C43_8 1_555 1_555
C46_8 C51_8 1_555 1_555
H22_8 C36_8 1_555 1_555
H27_8 C41_8 1_555 1_555
C36_8 C41_8 1_555 1_555
O29_8 Cu6_2 1_555 1_555

#END
