
###############################################################################
#
# This file contains modified crystal structure data generated from the
# MOF subset of the Cambridge Structural Database (CSD) v543 
# hosted by the Cambridge Crystallographic Data Centre (CCDC).
#
# This work is licensed under the Creative Commons
# Attribution-NonCommercial-ShareAlike 4.0 International License.
# To view a copy of this license, visit
# http://creativecommons.org/licenses/by-nc-sa/4.0/
# or send a letter to
# Creative Commons, PO Box 1866, Mountain View, CA 94042, USA.
#
# CIF created using the CSD Python API on 29 September 2022
# The structure has been converted into the P1 space group
# The structure has a 3D framework
# The original CSD entry PELWEK is in the monoclinic crystal system
# The framework has been calculated to contain at least 10.0% void space
# The void calculation uses a probe of radius 1.32A, grid spacing 0.4
#
###############################################################################

data_PELWEK
_chemical_formula_moiety         '(C144 H112 Cd4 Cl6 N32 O16 4-)n'
_symmetry_cell_setting           triclinic
_symmetry_space_group_name_H-M   'P 1'
_symmetry_Int_Tables_number      1
_space_group_name_Hall           'P 1'
loop_
_symmetry_equiv_pos_site_id
_symmetry_equiv_pos_as_xyz
1 x,y,z
_cell_length_a                   10.558(2)
_cell_length_b                   25.831(5)
_cell_length_c                   16.593(3)
_cell_angle_alpha                90
_cell_angle_beta                 96.93(3)
_cell_angle_gamma                90
_cell_volume                     4492.24
loop_
_atom_site_label
_atom_site_type_symbol
_atom_site_fract_x
_atom_site_fract_y
_atom_site_fract_z
Cd7 Cd 0.00046(4) 0.751511(16) 0.25253(2)
C65 C 0.0434(5) 0.8734(2) 0.1966(4)
H51 H 0.1296 0.8731 0.2166
H52 H 0.0168 0.9457 0.1459
H17 H 0.1352 0.3343 0.0403
H21 H 0.0526 0.3171 0.1509
C33 C 0.3302(7) 0.0191(3) 0.0081(5)
H26 H 0.3177 0.0012 0.0551
N2 N 0.0266(5) 0.1904(2) 0.4969(3)
N5 N 0.0223(5) 0.27785(19) 0.8813(3)
N7 N 0.0389(5) 0.16747(18) 0.7974(3)
N8 N 0.1405(4) 0.10203(19) 0.8596(3)
Cl1 Cl 0.2500 0.26739(8) 0.7500
C1 C 0.0548(6) 0.2214(3) 0.5627(4)
H1 H 0.1207 0.2455 0.5675
C4 C 0.0930(6) 0.1889(3) 0.4264(4)
C5 C 0.0990(8) 0.1447(3) 0.3846(5)
H4 H 0.0616 0.1147 0.4015
C6 C 0.1626(9) 0.1444(3) 0.3149(5)
H5 H 0.1685 0.1134 0.2870
C7 C 0.2153(6) 0.1873(3) 0.2868(4)
C8 C 0.2096(11) 0.2305(4) 0.3310(6)
H6 H 0.2514 0.2601 0.3160
C9 C 0.1424(9) 0.2328(3) 0.3996(5)
H7 H 0.1326 0.2641 0.4258
C11 C 0.0316(10) 0.3746(3) 0.7150(8)
H9 H 0.1153 0.3752 0.7399
C20 C 0.1141(6) 0.3102(3) 0.9216(4)
H16 H 0.1818 0.3254 0.8993
C21 C 0.0877(7) 0.3158(4) 0.9992(4)
C28 C 0.1493(6) 0.1508(2) 0.8319(4)
H22 H 0.2243 0.1701 0.8366
C30 C 0.0177(6) 0.0861(2) 0.8420(4)
C31 C 0.2442(5) 0.0725(2) 0.8998(3)
C32 C 0.2324(8) 0.0479(4) 0.9703(5)
H25 H 0.1566 0.0507 0.9933
C34 C 0.4456(5) 0.0154(2) 0.9795(3)
C35 C 0.4555(7) 0.0404(4) 0.9078(5)
H27 H 0.5313 0.0378 0.8848
C36 C 0.3564(6) 0.0693(3) 0.8684(4)
H28 H 0.3669 0.0866 0.8205
Cd5 Cd 0.50046(4) 0.248489(16) 0.75253(2)
N11 N 0.4734(5) 0.1904(2) 0.0031(3)
H31 H 0.6228 0.1380 0.0228
C40 C 0.4070(6) 0.1889(3) 0.0736(4)
C41 C 0.4010(8) 0.1447(3) 0.1154(5)
H32 H 0.4384 0.1147 0.0985
C42 C 0.3374(9) 0.1444(3) 0.1851(5)
H33 H 0.3315 0.1134 0.2130
C43 C 0.2847(6) 0.1873(3) 0.2132(4)
C44 C 0.2904(11) 0.2305(4) 0.1690(6)
H34 H 0.2486 0.2601 0.1840
C45 C 0.3576(9) 0.2328(3) 0.1004(5)
H35 H 0.3674 0.2641 0.0742
N9 N 0.5201(5) 0.2139(2) 0.8817(3)
C37 C 0.4452(6) 0.2214(3) 0.9373(4)
H29 H 0.3793 0.2455 0.9325
C38 C 0.6046(7) 0.1766(3) 0.9136(4)
H30 H 0.6705 0.1631 0.8875
C39 C 0.5786(7) 0.1621(3) 0.9884(4)
N18 N 0.9611(5) 0.83253(18) 0.2026(3)
N20 N 0.8595(4) 0.89797(19) 0.1404(3)
C64 C 0.8507(6) 0.8492(2) 0.1681(4)
H50 H 0.7757 0.8299 0.1634
C66 C 0.9823(6) 0.9139(2) 0.1580(4)
C67 C 0.7558(5) 0.9275(2) 0.1002(3)
C68 C 0.7676(8) 0.9521(4) 0.0297(5)
H53 H 0.8434 0.9493 0.0067
C70 C 0.5544(5) 0.9846(2) 0.0205(3)
C71 C 0.5445(7) 0.9596(4) 0.0922(5)
H55 H 0.4687 0.9622 0.1152
C72 C 0.6436(6) 0.9307(3) 0.1316(4)
H56 H 0.6331 0.9134 0.1795
C69 C 0.6698(7) 0.9809(3) 0.9919(5)
H54 H 0.6823 0.9988 0.9449
N6 N 0.9783(5) 0.2890(2) 0.0053(3)
C22 C 0.9134(8) 0.2864(3) 0.0758(4)
C23 C 0.7868(10) 0.2717(5) 0.0697(5)
H18 H 0.7436 0.2634 0.0192
C24 C 0.7231(10) 0.2693(5) 0.1385(5)
H19 H 0.6388 0.2581 0.1333
C25 C 0.7826(9) 0.2830(4) 0.2141(5)
C26 C 0.9055(10) 0.3018(5) 0.2163(5)
H20 H 0.9470 0.3136 0.2655
C27 C 0.9703(9) 0.3037(5) 0.1471(5)
N15 N 0.4777(5) 0.27785(19) 0.6187(3)
N17 N 0.5217(5) 0.2890(2) 0.4947(3)
C55 C 0.5573(6) 0.2664(3) 0.5664(4)
H43 H 0.6288 0.2454 0.5777
C56 C 0.3859(6) 0.3102(3) 0.5784(4)
H44 H 0.3182 0.3254 0.6007
C57 C 0.4123(7) 0.3158(4) 0.5008(4)
H45 H 0.3648 0.3343 0.4597
C58 C 0.5866(8) 0.2864(3) 0.4242(4)
C59 C 0.7132(10) 0.2717(5) 0.4303(5)
H46 H 0.7564 0.2634 0.4808
C60 C 0.7769(10) 0.2693(5) 0.3615(5)
H47 H 0.8612 0.2581 0.3667
C61 C 0.7174(9) 0.2830(4) 0.2859(5)
C62 C 0.5945(10) 0.3018(5) 0.2837(5)
H48 H 0.5530 0.3136 0.2345
C63 C 0.5297(9) 0.3037(5) 0.3529(5)
H49 H 0.4474 0.3171 0.3491
Cd1 Cd 0.99954(4) 0.248489(16) 0.74747(2)
N1 N 0.9799(5) 0.2139(2) 0.6183(3)
N3 N 0.9576(5) 0.3321(2) 0.7040(4)
N4 N 0.8464(6) 0.3982(2) 0.6515(4)
Cl2 Cl 0.7500 0.23198(8) 0.7500
C2 C 0.8954(7) 0.1766(3) 0.5864(4)
H2 H 0.8295 0.1631 0.6125
C3 C 0.9214(7) 0.1621(3) 0.5116(4)
H3 H 0.8772 0.1380 0.4772
C10 C 0.8501(6) 0.3477(2) 0.6647(4)
H8 H 0.7828 0.3255 0.6475
C12 C 0.9653(10) 0.4160(3) 0.6841(8)
H10 H 0.9939 0.4501 0.6846
C13 C 0.7436(8) 0.4281(3) 0.6080(5)
C14 C 0.6823(9) 0.4089(3) 0.5406(6)
H11 H 0.7049 0.3768 0.5214
C15 C 0.5833(9) 0.4372(3) 0.4985(6)
H12 H 0.5380 0.4230 0.4522
C16 C 0.5520(8) 0.4842(3) 0.5229(6)
C17 C 0.6256(11) 0.5032(4) 0.5864(7)
H13 H 0.6109 0.5369 0.6028
C18 C 0.7248(10) 0.4748(4) 0.6301(6)
H14 H 0.7755 0.4895 0.6739
C19 C 0.9427(6) 0.2664(3) 0.9336(4)
H15 H 0.8712 0.2454 0.9223
C29 C 0.9566(5) 0.1266(2) 0.8034(4)
H23 H 0.8704 0.1269 0.7834
H24 H 0.9832 0.0543 0.8541
N12 N 0.0424(5) 0.6679(2) 0.2960(4)
N13 N 0.5424(5) 0.3321(2) 0.7960(4)
N14 N 0.1536(6) 0.6018(2) 0.3485(4)
N19 N 0.4611(5) 0.16747(18) 0.7026(3)
C46 C 0.1499(6) 0.6523(2) 0.3353(4)
H36 H 0.2172 0.6745 0.3525
C48 C 0.0347(10) 0.5840(3) 0.3159(8)
H38 H 0.0061 0.5499 0.3154
C49 C 0.2564(8) 0.5719(3) 0.3920(5)
C50 C 0.3177(9) 0.5911(3) 0.4594(6)
H39 H 0.2951 0.6232 0.4786
C51 C 0.4167(9) 0.5628(3) 0.5015(6)
H40 H 0.4620 0.5770 0.5478
C52 C 0.4480(8) 0.5158(3) 0.4771(6)
C53 C 0.3744(11) 0.4968(4) 0.4136(7)
H41 H 0.3891 0.4631 0.3972
C54 C 0.2752(10) 0.5252(4) 0.3699(6)
H42 H 0.2245 0.5105 0.3261
C47 C 0.9684(10) 0.6254(3) 0.2850(8)
H37 H 0.8847 0.6248 0.2601
Cd6 Cd 0.49954(4) 0.751511(16) 0.24747(2)
N12_2 N 0.4576(5) 0.6679(2) 0.2040(4)
N14_2 N 0.3464(6) 0.6018(2) 0.1515(4)
C46_2 C 0.3501(6) 0.6523(2) 0.1647(4)
H36_2 H 0.2828 0.6745 0.1475
C47_2 C 0.5316(10) 0.6254(3) 0.2150(8)
H37_2 H 0.6153 0.6248 0.2399
C48_2 C 0.4653(10) 0.5840(3) 0.1841(8)
H38_2 H 0.4939 0.5499 0.1846
C49_2 C 0.2436(8) 0.5719(3) 0.1080(5)
C50_2 C 0.1823(9) 0.5911(3) 0.0406(6)
H39_2 H 0.2049 0.6232 0.0214
C52_2 C 0.0520(8) 0.5158(3) 0.0229(6)
C53_2 C 0.1256(11) 0.4968(4) 0.0864(7)
H41_2 H 0.1109 0.4631 0.1028
C54_2 C 0.2248(10) 0.5252(4) 0.1301(6)
H42_2 H 0.2755 0.5105 0.1739
C51_2 C 0.0833(9) 0.5628(3) 0.9985(6)
H40_2 H 0.0380 0.5770 0.9522
C15_2 C 0.9167(9) 0.4372(3) 0.0015(6)
H12_2 H 0.9620 0.4230 0.0478
N4_2 N 0.6536(6) 0.3982(2) 0.8485(4)
N8_2 N 0.3595(4) 0.10203(19) 0.6404(3)
C10_2 C 0.6499(6) 0.3477(2) 0.8353(4)
H8_2 H 0.7172 0.3255 0.8525
C11_2 C 0.4684(10) 0.3746(3) 0.7850(8)
H9_2 H 0.3847 0.3752 0.7601
C12_2 C 0.5347(10) 0.4160(3) 0.8159(8)
H10_2 H 0.5061 0.4501 0.8154
C13_2 C 0.7564(8) 0.4281(3) 0.8920(5)
C14_2 C 0.8177(9) 0.4089(3) 0.9594(6)
H11_2 H 0.7951 0.3768 0.9786
C16_2 C 0.9480(8) 0.4842(3) 0.9771(6)
C17_2 C 0.8744(11) 0.5032(4) 0.9136(7)
H13_2 H 0.8891 0.5369 0.8972
C18_2 C 0.7752(10) 0.4748(4) 0.8699(6)
H14_2 H 0.7245 0.4895 0.8261
C28_2 C 0.3507(6) 0.1508(2) 0.6681(4)
H22_2 H 0.2757 0.1701 0.6634
C29_2 C 0.5434(5) 0.1266(2) 0.6966(4)
H23_2 H 0.6296 0.1269 0.7166
C30_2 C 0.4823(6) 0.0861(2) 0.6580(4)
H24_2 H 0.5168 0.0543 0.6459
C31_2 C 0.2558(5) 0.0725(2) 0.6002(3)
C32_2 C 0.2676(8) 0.0479(4) 0.5297(5)
H25_2 H 0.3434 0.0507 0.5067
C33_2 C 0.1698(7) 0.0191(3) 0.4919(5)
H26_2 H 0.1823 0.0012 0.4449
C34_2 C 0.0544(5) 0.0154(2) 0.5205(3)
C35_2 C 0.0445(7) 0.0404(4) 0.5922(5)
C36_2 C 0.1436(6) 0.0693(3) 0.6316(4)
H28_2 H 0.1331 0.0866 0.6795
H55_2 H 0.0313 0.9622 0.3848
H27_2 H 0.9687 0.0378 0.6152
N18_2 N 0.5389(5) 0.83253(18) 0.2974(3)
N20_2 N 0.6405(4) 0.89797(19) 0.3596(3)
C64_2 C 0.6493(6) 0.8492(2) 0.3319(4)
H50_2 H 0.7243 0.8299 0.3366
C65_2 C 0.4566(5) 0.8734(2) 0.3034(4)
H51_2 H 0.3704 0.8731 0.2834
C66_2 C 0.5177(6) 0.9139(2) 0.3420(4)
H52_2 H 0.4832 0.9457 0.3541
C67_2 C 0.7442(5) 0.9275(2) 0.3998(3)
C68_2 C 0.7324(8) 0.9521(4) 0.4703(5)
H53_2 H 0.6566 0.9493 0.4933
C69_2 C 0.8302(7) 0.9809(3) 0.5081(5)
H54_2 H 0.8177 0.9988 0.5551
C70_2 C 0.9456(5) 0.9846(2) 0.4795(3)
C71_2 C 0.9555(7) 0.9596(4) 0.4078(5)
C72_2 C 0.8564(6) 0.9307(3) 0.3684(4)
H56_2 H 0.8669 0.9134 0.3205
N1_2 N 0.0201(5) 0.7861(2) 0.3817(3)
Cl2_2 Cl 0.2500 0.76802(8) 0.2500
C2_2 C 0.1046(7) 0.8234(3) 0.4136(4)
H2_2 H 0.1705 0.8369 0.3875
C3_2 C 0.0786(7) 0.8379(3) 0.4884(4)
H3_2 H 0.1228 0.8620 0.5228
C19_2 C 0.0573(6) 0.7336(3) 0.0664(4)
H15_2 H 0.1288 0.7546 0.0777
N10 N 0.4799(5) 0.7861(2) 0.1183(3)
N16 N 0.5223(5) 0.72215(19) 0.3813(3)
Cl3 Cl 0.7500 0.73261(8) 0.2500
N6_2 N 0.0217(5) 0.7110(2) 0.9947(3)
C22_2 C 0.0866(8) 0.7136(3) 0.9242(4)
C23_2 C 0.2132(10) 0.7283(5) 0.9303(5)
H18_2 H 0.2564 0.7366 0.9808
C24_2 C 0.2769(10) 0.7307(5) 0.8615(5)
H19_2 H 0.3612 0.7419 0.8667
C25_2 C 0.2174(9) 0.7170(4) 0.7859(5)
C26_2 C 0.0945(10) 0.6982(5) 0.7837(5)
H20_2 H 0.0530 0.6864 0.7345
C27_2 C 0.0297(9) 0.6963(5) 0.8529(5)
N17_2 N 0.4783(5) 0.7110(2) 0.5053(3)
C55_2 C 0.4427(6) 0.7336(3) 0.4336(4)
H43_2 H 0.3712 0.7546 0.4223
C56_2 C 0.6141(6) 0.6898(3) 0.4216(4)
H44_2 H 0.6818 0.6746 0.3993
C57_2 C 0.5877(7) 0.6842(4) 0.4992(4)
H45_2 H 0.6352 0.6657 0.5403
C58_2 C 0.4134(8) 0.7136(3) 0.5758(4)
C59_2 C 0.2868(10) 0.7283(5) 0.5697(5)
H46_2 H 0.2436 0.7366 0.5192
C60_2 C 0.2231(10) 0.7307(5) 0.6385(5)
H47_2 H 0.1388 0.7419 0.6333
C61_2 C 0.2826(9) 0.7170(4) 0.7141(5)
C62_2 C 0.4055(10) 0.6982(5) 0.7163(5)
H48_2 H 0.4470 0.6864 0.7655
C63_2 C 0.4703(9) 0.6963(5) 0.6471(5)
H49_2 H 0.5526 0.6829 0.6509
C37_2 C 0.5548(6) 0.7786(3) 0.0627(4)
H29_2 H 0.6207 0.7545 0.0675
C38_2 C 0.3954(7) 0.8234(3) 0.0864(4)
H30_2 H 0.3295 0.8369 0.1125
C39_2 C 0.4214(7) 0.8379(3) 0.0116(4)
N2_2 N 0.9734(5) 0.8096(2) 0.5031(3)
N5_2 N 0.9777(5) 0.72215(19) 0.1187(3)
C1_2 C 0.9452(6) 0.7786(3) 0.4373(4)
H1_2 H 0.8793 0.7545 0.4325
C4_2 C 0.9070(6) 0.8111(3) 0.5736(4)
C5_2 C 0.9010(8) 0.8553(3) 0.6154(5)
H4_2 H 0.9384 0.8853 0.5985
C6_2 C 0.8374(9) 0.8556(3) 0.6851(5)
H5_2 H 0.8315 0.8866 0.7130
C7_2 C 0.7847(6) 0.8127(3) 0.7132(4)
C8_2 C 0.7904(11) 0.7695(4) 0.6690(6)
H6_2 H 0.7486 0.7399 0.6840
C9_2 C 0.8576(9) 0.7672(3) 0.6004(5)
H7_2 H 0.8674 0.7359 0.5742
C20_2 C 0.8859(6) 0.6898(3) 0.0784(4)
H16_2 H 0.8182 0.6746 0.1007
C21_2 C 0.9123(7) 0.6842(4) 0.0008(4)
N11_2 N 0.5266(5) 0.8096(2) 0.9969(3)
H31_2 H 0.3772 0.8620 0.9772
C40_2 C 0.5930(6) 0.8111(3) 0.9264(4)
C41_2 C 0.5990(8) 0.8553(3) 0.8846(5)
H32_2 H 0.5616 0.8853 0.9015
C42_2 C 0.6626(9) 0.8556(3) 0.8149(5)
H33_2 H 0.6685 0.8866 0.7870
C43_2 C 0.7153(6) 0.8127(3) 0.7868(4)
C44_2 C 0.7096(11) 0.7695(4) 0.8310(6)
H34_2 H 0.7514 0.7399 0.8160
C45_2 C 0.6424(9) 0.7672(3) 0.8996(5)
H35_2 H 0.6326 0.7359 0.9258
H17_2 H 0.8648 0.6657 0.9597
H21_2 H 0.9474 0.6829 0.8491
Cl4 Cl 0.7500 0.00668(10) 0.7500
O2 O 0.7689(5) 0.0398(2) 0.6827(3)
O4 O 0.7311(5) 0.0398(2) 0.8173(3)
O1 O 0.8582(6) 0.9755(2) 0.7705(6)
O3 O 0.6418(6) 0.9755(2) 0.7295(6)
O1_2 O 0.1418(6) 0.0245(2) 0.2295(6)
O3_2 O 0.3582(6) 0.0245(2) 0.2705(6)
Cl4_2 Cl 0.2500 0.99332(10) 0.2500
O2_2 O 0.2311(5) 0.9602(2) 0.3173(3)
O4_2 O 0.2689(5) 0.9602(2) 0.1827(3)
Cl5 Cl 0.2500 0.39103(13) 0.2500
O5 O 0.2485(8) 0.3595(3) 0.3202(6)
O6 O 0.1366(9) 0.4221(3) 0.2450(5)
O7 O 0.2515(8) 0.3595(3) 0.1798(6)
O8 O 0.3634(9) 0.4221(3) 0.2550(5)
Cl5_2 Cl 0.7500 0.60897(13) 0.7500
O5_2 O 0.7515(8) 0.6405(3) 0.6798(6)
O6_2 O 0.8634(9) 0.5779(3) 0.7550(5)
O7_2 O 0.7485(8) 0.6405(3) 0.8202(6)
O8_2 O 0.6366(9) 0.5779(3) 0.7450(5)
loop_
_geom_bond_atom_site_label_1
_geom_bond_atom_site_label_2
_geom_bond_site_symmetry_1
_geom_bond_site_symmetry_2
H51 C65 1_555 1_555
H26 C33 1_555 1_555
N2 C1 1_555 1_555
N8 C28 1_555 1_555
C1 H1 1_555 1_555
C4 N2 1_555 1_555
C5 C4 1_555 1_555
H4 C5 1_555 1_555
C6 C5 1_555 1_555
H5 C6 1_555 1_555
C7 C6 1_555 1_555
C8 C7 1_555 1_555
H6 C8 1_555 1_555
C9 C4 1_555 1_555
H7 C9 1_555 1_555
H9 C11 1_555 1_555
C20 N5 1_555 1_555
H16 C20 1_555 1_555
C28 N7 1_555 1_555
H22 C28 1_555 1_555
C30 N8 1_555 1_555
C31 N8 1_555 1_555
C32 C31 1_555 1_555
H25 C32 1_555 1_555
C35 C34 1_555 1_555
H27 C35 1_555 1_555
C36 C31 1_555 1_555
H28 C36 1_555 1_555
Cd5 Cl1 1_555 1_555
C40 N11 1_555 1_555
C41 C40 1_555 1_555
H32 C41 1_555 1_555
C42 C41 1_555 1_555
H33 C42 1_555 1_555
C43 C7 1_555 1_555
C44 C43 1_555 1_555
H34 C44 1_555 1_555
C45 C40 1_555 1_555
H35 C45 1_555 1_555
C8 C9 1_555 1_555
C20 C21 1_555 1_555
C35 C36 1_555 1_555
C42 C43 1_555 1_555
C44 C45 1_555 1_555
Cd5 N9 1_555 1_555
N9 C37 1_555 1_555
C37 H29 1_555 1_555
C38 N9 1_555 1_555
H30 C38 1_555 1_555
C38 C39 1_555 1_555
N18 C64 1_555 1_555
N20 C64 1_555 1_555
C64 H50 1_555 1_555
C66 N20 1_555 1_555
C67 N20 1_555 1_555
C68 C67 1_555 1_555
H53 C68 1_555 1_555
C71 C70 1_555 1_555
H55 C71 1_555 1_555
C72 C67 1_555 1_555
H56 C72 1_555 1_555
C71 C72 1_555 1_555
H54 C69 1_555 1_555
C22 N6 1_555 1_555
C23 C22 1_555 1_555
H18 C23 1_555 1_555
C24 C23 1_555 1_555
H19 C24 1_555 1_555
C25 C24 1_555 1_555
C26 C25 1_555 1_555
H20 C26 1_555 1_555
C27 C22 1_555 1_555
Cd5 N15 1_555 1_555
N15 C55 1_555 1_555
N17 C55 1_555 1_555
C55 H43 1_555 1_555
C56 N15 1_555 1_555
H44 C56 1_555 1_555
C57 N17 1_555 1_555
H45 C57 1_555 1_555
C58 N17 1_555 1_555
C59 C58 1_555 1_555
H46 C59 1_555 1_555
C60 C59 1_555 1_555
H47 C60 1_555 1_555
C61 C25 1_555 1_555
C62 C61 1_555 1_555
H48 C62 1_555 1_555
C63 C58 1_555 1_555
H49 C63 1_555 1_555
C26 C27 1_555 1_555
C56 C57 1_555 1_555
C60 C61 1_555 1_555
C62 C63 1_555 1_555
Cd1 N1 1_555 1_555
N3 Cd1 1_555 1_555
N4 C10 1_555 1_555
Cl2 Cd1 1_555 1_555
C2 N1 1_555 1_555
H2 C2 1_555 1_555
H3 C3 1_555 1_555
C10 N3 1_555 1_555
H8 C10 1_555 1_555
C12 N4 1_555 1_555
H10 C12 1_555 1_555
C13 N4 1_555 1_555
C14 C13 1_555 1_555
H11 C14 1_555 1_555
C15 C14 1_555 1_555
H12 C15 1_555 1_555
C16 C15 1_555 1_555
C17 C16 1_555 1_555
H13 C17 1_555 1_555
C18 C13 1_555 1_555
H14 C18 1_555 1_555
H15 C19 1_555 1_555
H23 C29 1_555 1_555
Cd5 Cl2 1_555 1_555
Cd7 N12 1_555 1_555
N12 C46 1_555 1_555
N13 Cd5 1_555 1_555
N14 C46 1_555 1_555
N19 Cd5 1_555 1_555
C46 H36 1_555 1_555
C48 N14 1_555 1_555
H38 C48 1_555 1_555
C49 N14 1_555 1_555
C50 C49 1_555 1_555
H39 C50 1_555 1_555
C51 C50 1_555 1_555
H40 C51 1_555 1_555
C52 C16 1_555 1_555
C53 C52 1_555 1_555
H41 C53 1_555 1_555
C54 C49 1_555 1_555
H42 C54 1_555 1_555
C2 C3 1_555 1_555
C17 C18 1_555 1_555
C51 C52 1_555 1_555
C53 C54 1_555 1_555
H37 C47 1_555 1_555
Cd6 N12_2 1_555 1_555
N12_2 C46_2 1_555 1_555
N14_2 C46_2 1_555 1_555
C46_2 H36_2 1_555 1_555
C47_2 N12_2 1_555 1_555
H37_2 C47_2 1_555 1_555
C48_2 N14_2 1_555 1_555
H38_2 C48_2 1_555 1_555
C49_2 N14_2 1_555 1_555
C50_2 C49_2 1_555 1_555
H39_2 C50_2 1_555 1_555
C53_2 C52_2 1_555 1_555
H41_2 C53_2 1_555 1_555
C54_2 C49_2 1_555 1_555
H42_2 C54_2 1_555 1_555
C47_2 C48_2 1_555 1_555
C53_2 C54_2 1_555 1_555
H40_2 C51_2 1_555 1_555
H12_2 C15_2 1_555 1_555
N4_2 C10_2 1_555 1_555
N8_2 C28_2 1_555 1_555
C10_2 N13 1_555 1_555
H8_2 C10_2 1_555 1_555
C11_2 N13 1_555 1_555
H9_2 C11_2 1_555 1_555
C12_2 N4_2 1_555 1_555
H10_2 C12_2 1_555 1_555
C13_2 N4_2 1_555 1_555
C14_2 C13_2 1_555 1_555
H11_2 C14_2 1_555 1_555
C17_2 C16_2 1_555 1_555
H13_2 C17_2 1_555 1_555
C18_2 C13_2 1_555 1_555
H14_2 C18_2 1_555 1_555
C28_2 N19 1_555 1_555
H22_2 C28_2 1_555 1_555
C29_2 N19 1_555 1_555
H23_2 C29_2 1_555 1_555
C30_2 N8_2 1_555 1_555
H24_2 C30_2 1_555 1_555
C31_2 N8_2 1_555 1_555
C32_2 C31_2 1_555 1_555
H25_2 C32_2 1_555 1_555
C33_2 C32_2 1_555 1_555
H26_2 C33_2 1_555 1_555
C34_2 C33_2 1_555 1_555
C35_2 C34_2 1_555 1_555
C36_2 C31_2 1_555 1_555
H28_2 C36_2 1_555 1_555
C11_2 C12_2 1_555 1_555
C17_2 C18_2 1_555 1_555
C29_2 C30_2 1_555 1_555
C35_2 C36_2 1_555 1_555
Cd6 N18_2 1_555 1_555
N18_2 C64_2 1_555 1_555
N20_2 C64_2 1_555 1_555
C64_2 H50_2 1_555 1_555
C65_2 N18_2 1_555 1_555
H51_2 C65_2 1_555 1_555
C66_2 N20_2 1_555 1_555
H52_2 C66_2 1_555 1_555
C67_2 N20_2 1_555 1_555
C68_2 C67_2 1_555 1_555
H53_2 C68_2 1_555 1_555
C69_2 C68_2 1_555 1_555
H54_2 C69_2 1_555 1_555
C71_2 C70_2 1_555 1_555
C72_2 C67_2 1_555 1_555
H56_2 C72_2 1_555 1_555
C65_2 C66_2 1_555 1_555
C69_2 C70_2 1_555 1_555
C71_2 C72_2 1_555 1_555
Cd7 N1_2 1_555 1_555
Cl2_2 Cd7 1_555 1_555
C2_2 N1_2 1_555 1_555
H2_2 C2_2 1_555 1_555
H3_2 C3_2 1_555 1_555
H15_2 C19_2 1_555 1_555
Cd6 Cl2_2 1_555 1_555
N10 Cd6 1_555 1_555
N16 Cd6 1_555 1_555
Cl3 Cd6 1_555 1_555
C2_2 C3_2 1_555 1_555
C22_2 N6_2 1_555 1_555
C23_2 C22_2 1_555 1_555
H18_2 C23_2 1_555 1_555
C24_2 C23_2 1_555 1_555
H19_2 C24_2 1_555 1_555
C25_2 C24_2 1_555 1_555
C26_2 C25_2 1_555 1_555
H20_2 C26_2 1_555 1_555
C27_2 C22_2 1_555 1_555
N16 C55_2 1_555 1_555
N17_2 C55_2 1_555 1_555
C55_2 H43_2 1_555 1_555
C56_2 N16 1_555 1_555
H44_2 C56_2 1_555 1_555
C57_2 N17_2 1_555 1_555
H45_2 C57_2 1_555 1_555
C58_2 N17_2 1_555 1_555
C59_2 C58_2 1_555 1_555
H46_2 C59_2 1_555 1_555
C60_2 C59_2 1_555 1_555
H47_2 C60_2 1_555 1_555
C61_2 C25_2 1_555 1_555
C62_2 C61_2 1_555 1_555
H48_2 C62_2 1_555 1_555
C63_2 C58_2 1_555 1_555
H49_2 C63_2 1_555 1_555
C26_2 C27_2 1_555 1_555
C56_2 C57_2 1_555 1_555
C60_2 C61_2 1_555 1_555
C62_2 C63_2 1_555 1_555
N10 C37_2 1_555 1_555
C37_2 H29_2 1_555 1_555
C38_2 N10 1_555 1_555
H30_2 C38_2 1_555 1_555
C38_2 C39_2 1_555 1_555
N2_2 C1_2 1_555 1_555
C1_2 H1_2 1_555 1_555
C4_2 N2_2 1_555 1_555
C5_2 C4_2 1_555 1_555
H4_2 C5_2 1_555 1_555
C6_2 C5_2 1_555 1_555
H5_2 C6_2 1_555 1_555
C7_2 C6_2 1_555 1_555
C8_2 C7_2 1_555 1_555
H6_2 C8_2 1_555 1_555
C9_2 C4_2 1_555 1_555
H7_2 C9_2 1_555 1_555
C20_2 N5_2 1_555 1_555
H16_2 C20_2 1_555 1_555
C40_2 N11_2 1_555 1_555
C41_2 C40_2 1_555 1_555
H32_2 C41_2 1_555 1_555
C42_2 C41_2 1_555 1_555
H33_2 C42_2 1_555 1_555
C43_2 C7_2 1_555 1_555
C44_2 C43_2 1_555 1_555
H34_2 C44_2 1_555 1_555
C45_2 C40_2 1_555 1_555
H35_2 C45_2 1_555 1_555
C8_2 C9_2 1_555 1_555
C20_2 C21_2 1_555 1_555
C42_2 C43_2 1_555 1_555
C44_2 C45_2 1_555 1_555
O2 Cl4 1_555 1_555
O4 Cl4 1_555 1_555
O2_2 Cl4_2 1_555 1_555
O4_2 Cl4_2 1_555 1_555
Cl5 O5 1_555 1_555
O6 Cl5 1_555 1_555
O7 Cl5 1_555 1_555
O8 Cl5 1_555 1_555
Cl5_2 O5_2 1_555 1_555
O6_2 Cl5_2 1_555 1_555
O7_2 Cl5_2 1_555 1_555
O8_2 Cl5_2 1_555 1_555

#END
