
###############################################################################
#
# This file contains modified crystal structure data generated from the
# MOF subset of the Cambridge Structural Database (CSD) v543 
# hosted by the Cambridge Crystallographic Data Centre (CCDC).
#
# This work is licensed under the Creative Commons
# Attribution-NonCommercial-ShareAlike 4.0 International License.
# To view a copy of this license, visit
# http://creativecommons.org/licenses/by-nc-sa/4.0/
# or send a letter to
# Creative Commons, PO Box 1866, Mountain View, CA 94042, USA.
#
# CIF created using the CSD Python API on 29 September 2022
# The structure has been converted into the P1 space group
# The structure has a 3D framework
# The original CSD entry PELXIP is in the monoclinic crystal system
# The framework has been calculated to contain at least 10.0% void space
# The void calculation uses a probe of radius 1.32A, grid spacing 0.4
#
###############################################################################

data_PELXIP
_chemical_formula_moiety         '(C128 H80 Cd16 N64 O40)n'
_symmetry_cell_setting           triclinic
_symmetry_space_group_name_H-M   'P 1'
_symmetry_Int_Tables_number      1
_space_group_name_Hall           'P 1'
loop_
_symmetry_equiv_pos_site_id
_symmetry_equiv_pos_as_xyz
1 x,y,z
_cell_length_a                   12.380(3)
_cell_length_b                   16.488(3)
_cell_length_c                   21.246(4)
_cell_angle_alpha                90
_cell_angle_beta                 90.00
_cell_angle_gamma                90
_cell_volume                     4336.76
loop_
_atom_site_label
_atom_site_type_symbol
_atom_site_fract_x
_atom_site_fract_y
_atom_site_fract_z
N10 N 0.0197(7) 0.1757(5) 0.2907(5)
N11 N 0.1108(7) 0.1357(5) 0.2868(5)
N12 N 0.0940(7) 0.0552(5) 0.2940(4)
Cd8 Cd 0.27085(6) 0.20078(5) 0.26840(4)
C1 C 0.1687(8) 0.5170(6) 0.2884(5)
C2 C 0.2681(8) 0.4900(6) 0.3226(5)
C3 C 0.3054(9) 0.5365(7) 0.3724(6)
H1 H 0.2707 0.5847 0.3830
C4 C 0.3922(11) 0.5116(9) 0.4053(7)
H2 H 0.4141 0.5407 0.4406
C5 C 0.4499(10) 0.4429(7) 0.3875(6)
H3 H 0.5118 0.4280 0.4095
C6 C 0.4150(9) 0.3967(6) 0.3370(5)
C7 C 0.4766(9) 0.3232(6) 0.3196(5)
C8 C 0.3224(8) 0.4201(6) 0.3047(5)
H4 H 0.2970 0.3891 0.2713
C9 C 0.6653(8) 0.0983(6) 0.1747(5)
C10 C 0.7420(8) 0.1240(6) 0.1252(5)
C11 C 0.7074(9) 0.1382(7) 0.0647(5)
H5 H 0.6361 0.1267 0.0542
C12 C 0.7745(9) 0.1687(7) 0.0194(5)
C14 C 0.8820(10) 0.1835(8) 0.0345(5)
H6 H 0.9290 0.2038 0.0042
C15 C 0.9191(11) 0.1680(9) 0.0948(6)
H7 H 0.9910 0.1777 0.1051
C16 C 0.8484(10) 0.1379(7) 0.1399(5)
H8 H 0.8734 0.1272 0.1804
C21 C 0.9876(8) 0.0474(6) 0.3014(5)
Cd1 Cd 0.51919(6) 0.06031(5) 0.27130(4)
Cd2 Cd 0.77356(6) 0.17928(5) 0.31275(4)
H17 H 0.804(8) 0.282(8) 0.410(5)
H19 H 0.898(7) 0.243(8) 0.416(4)
N1 N 0.4374(7) 0.2577(5) 0.2912(4)
N2 N 0.5211(7) 0.2049(6) 0.2885(4)
N3 N 0.6053(7) 0.2389(6) 0.3144(5)
N4 N 0.5802(7) 0.3140(5) 0.3344(5)
N9 N 0.9391(7) 0.1217(5) 0.3006(4)
N13 N 0.6084(7) 0.0325(5) 0.3628(4)
N14 N 0.7020(7) 0.0733(5) 0.3722(4)
N15 N 0.7502(8) 0.0460(6) 0.4218(4)
O1 O 0.1044(6) 0.4666(4) 0.2662(4)
O2 O 0.1506(6) 0.5927(4) 0.2821(4)
O3 O 0.5714(7) 0.0742(5) 0.1609(4)
O4 O 0.6927(6) 0.1043(4) 0.2326(3)
O9 O 0.8479(15) 0.2529(8) 0.3926(7)
Cd9 Cd 0.22915(6) 0.70078(5) 0.23160(4)
N17 N 0.2236(7) 0.2620(6) 0.3647(4)
O12 O 0.3494(6) 0.0927(4) 0.2179(4)
O14 O 0.8446(6) 0.2874(5) 0.2538(4)
O16 O 0.1424(7) 0.3000(5) 0.2267(4)
O18 O 0.2594(7) 0.2474(6) 0.1627(4)
C13 C 0.7356(9) 0.1869(7) 0.9563(5)
Cd4 Cd 0.51182(6) 0.17003(5) 0.79977(4)
H18 H 0.433(11) 0.036(3) 0.893(5)
H20 H 0.457(12) 0.109(5) 0.918(3)
N5 N 0.6455(8) 0.1566(6) 0.9306(4)
N6 N 0.6401(8) 0.1896(6) 0.8730(4)
N7 N 0.7236(7) 0.2380(6) 0.8647(4)
N8 N 0.7856(8) 0.2376(6) 0.9165(4)
O10 O 0.4516(11) 0.0830(8) 0.8852(5)
Cd7 Cd 0.77085(6) 0.29922(5) 0.76840(4)
O13 O 0.3840(6) 0.0837(5) 0.7537(4)
O15 O 0.3446(6) 0.2126(5) 0.7538(4)
O17 O 0.6424(7) 0.2000(5) 0.7267(4)
C17 C 0.6807(9) 0.8608(6) 0.2600(5)
C18 C 0.7861(9) 0.8779(6) 0.2910(5)
C19 C 0.8350(8) 0.9541(6) 0.2839(5)
H9 H 0.7997 0.9944 0.2611
C20 C 0.9344(8) 0.9700(6) 0.3101(5)
C22 C 0.9864(10) 0.9091(7) 0.3434(6)
C23 C 0.9360(12) 0.8350(8) 0.3527(8)
H11 H 0.9690 0.7958 0.3776
C24 C 0.8379(11) 0.8192(7) 0.3254(7)
H12 H 0.8062 0.7685 0.3302
C25 C 0.3226(9) 0.7900(7) 0.3285(5)
C26 C 0.3804(9) 0.8284(6) 0.3836(5)
C27 C 0.3602(11) 0.8041(8) 0.4446(6)
H13 H 0.3073 0.7652 0.4520
C28 C 0.4152(11) 0.8352(8) 0.4935(5)
H14 H 0.3979 0.8200 0.5344
C29 C 0.4997(11) 0.8913(7) 0.4823(5)
H15 H 0.5402 0.9109 0.5159
C30 C 0.5227(9) 0.9176(6) 0.4210(5)
C31 C 0.6063(9) 0.9775(6) 0.4095(5)
C32 C 0.4612(9) 0.8850(7) 0.3716(5)
H16 H 0.4746 0.9013 0.3304
N16 N 0.6921(9) 0.9853(7) 0.4461(5)
O5 O 0.6160(6) 0.9163(5) 0.2463(4)
O6 O 0.6554(6) 0.7874(5) 0.2462(4)
O7 O 0.3576(7) 0.8000(5) 0.2733(4)
O8 O 0.2406(7) 0.7474(6) 0.3373(4)
Cd6 Cd 0.72644(6) 0.67928(5) 0.18725(4)
Cd11 Cd 0.48818(6) 0.82997(5) 0.20023(4)
O11 O 0.3956(6) 0.9666(4) 0.2338(4)
Cd5 Cd 0.98081(6) 0.56031(5) 0.22870(4)
C1_2 C 0.3313(8) 0.0170(6) 0.2116(5)
C3_2 C 0.1946(9) 0.0365(7) 0.1276(6)
H1_2 H 0.2293 0.0847 0.1170
C4_2 C 0.1078(11) 0.0116(9) 0.0947(7)
H2_2 H 0.0859 0.0407 0.0594
C2_2 C 0.2319(8) 0.9900(6) 0.1774(5)
C5_2 C 0.0501(10) 0.9429(7) 0.1125(6)
C6_2 C 0.0850(9) 0.8967(6) 0.1630(5)
C7_2 C 0.0234(9) 0.8232(6) 0.1804(5)
C8_2 C 0.1776(8) 0.9201(6) 0.1953(5)
H4_2 H 0.2030 0.8891 0.2287
C25_2 C 0.1774(9) 0.2900(7) 0.1715(5)
C26_2 C 0.1196(9) 0.3284(6) 0.1164(5)
C27_2 C 0.1398(11) 0.3041(8) 0.0554(6)
H13_2 H 0.1927 0.2652 0.0480
C28_2 C 0.0848(11) 0.3352(8) 0.0065(5)
C29_2 C 0.0003(11) 0.3913(7) 0.0177(5)
C32_2 C 0.0388(9) 0.3850(7) 0.1284(5)
H16_2 H 0.0254 0.4013 0.1696
H18_2 H 0.067(11) 0.536(3) 0.607(5)
H20_2 H 0.043(12) 0.609(5) 0.582(3)
N1_2 N 0.0626(7) 0.7577(5) 0.2088(4)
O10_2 O 0.0484(11) 0.5830(8) 0.6148(5)
Cd11_2 Cd 0.01182(6) 0.32997(5) 0.29977(4)
N17_2 N 0.2764(7) 0.7620(6) 0.1353(4)
N18 N 0.3892(7) 0.6357(5) 0.2132(5)
O13_2 O 0.1160(6) 0.5837(5) 0.7463(4)
O15_2 O 0.1554(6) 0.7126(5) 0.7462(4)
H3_2 H 0.9882 0.9280 0.0905
C9_2 C 0.8347(8) 0.5983(6) 0.3253(5)
C10_2 C 0.7580(8) 0.6240(6) 0.3748(5)
C11_2 C 0.7926(9) 0.6382(7) 0.4353(5)
H5_2 H 0.8639 0.6267 0.4458
C12_2 C 0.7255(9) 0.6687(7) 0.4806(5)
C13_2 C 0.7644(9) 0.6869(7) 0.5437(5)
C14_2 C 0.6180(10) 0.6835(8) 0.4655(5)
H6_2 H 0.5710 0.7038 0.4958
C15_2 C 0.5809(11) 0.6680(9) 0.4052(6)
H7_2 H 0.5090 0.6777 0.3949
C16_2 C 0.6516(10) 0.6379(7) 0.3601(5)
H8_2 H 0.6266 0.6272 0.3196
C17_2 C 0.8193(9) 0.3608(6) 0.2400(5)
C18_2 C 0.7139(9) 0.3779(6) 0.2090(5)
C19_2 C 0.6650(8) 0.4541(6) 0.2161(5)
H9_2 H 0.7003 0.4944 0.2389
C20_2 C 0.5656(8) 0.4700(6) 0.1899(5)
C21_2 C 0.5124(8) 0.5474(6) 0.1986(5)
C22_2 C 0.5136(10) 0.4091(7) 0.1566(6)
H10 H 0.4447 0.4180 0.1405
C23_2 C 0.5640(12) 0.3350(8) 0.1473(8)
H11_2 H 0.5310 0.2958 0.1224
C24_2 C 0.6621(11) 0.3192(7) 0.1746(7)
H12_2 H 0.6938 0.2685 0.1698
C30_2 C 0.9773(9) 0.4176(6) 0.0790(5)
C31_2 C 0.8937(9) 0.4775(6) 0.0905(5)
Cd4_2 Cd 0.98818(6) 0.67003(5) 0.70023(4)
H17_2 H 0.696(8) 0.782(8) 0.090(5)
H19_2 H 0.602(7) 0.743(8) 0.084(4)
N2_2 N 0.9789(7) 0.7049(6) 0.2115(4)
N3_2 N 0.8947(7) 0.7389(6) 0.1856(5)
N4_2 N 0.9198(7) 0.8140(5) 0.1656(5)
N5_2 N 0.8545(8) 0.6566(6) 0.5694(4)
N6_2 N 0.8599(8) 0.6896(6) 0.6270(4)
N7_2 N 0.7764(7) 0.7380(6) 0.6353(4)
N8_2 N 0.7144(8) 0.7376(6) 0.5835(4)
N9_2 N 0.5609(7) 0.6217(5) 0.1994(4)
N10_2 N 0.4803(7) 0.6757(5) 0.2093(5)
N12_2 N 0.4060(7) 0.5552(5) 0.2060(4)
N13_2 N 0.8916(7) 0.5325(5) 0.1372(4)
N14_2 N 0.7980(7) 0.5733(5) 0.1278(4)
N15_2 N 0.7498(8) 0.5460(6) 0.0782(4)
N16_2 N 0.8079(9) 0.4853(7) 0.0539(5)
O3_2 O 0.9286(7) 0.5742(5) 0.3391(4)
O4_2 O 0.8073(6) 0.6043(4) 0.2674(3)
O5_2 O 0.8840(6) 0.4163(5) 0.2537(4)
O9_2 O 0.6521(15) 0.7529(8) 0.1074(7)
Cd7_2 Cd 0.72915(6) 0.79922(5) 0.73160(4)
O17_2 O 0.8576(7) 0.7000(5) 0.7733(4)
Cd5_2 Cd 0.01919(6) 0.43969(5) 0.77130(4)
C17_3 C 0.3193(9) 0.1392(6) 0.7400(5)
C18_3 C 0.2139(9) 0.1221(6) 0.7090(5)
C19_3 C 0.1650(8) 0.0459(6) 0.7161(5)
H9_3 H 0.2003 0.0056 0.7389
C20_3 C 0.0656(8) 0.0300(6) 0.6899(5)
C22_3 C 0.0136(10) 0.0909(7) 0.6566(6)
C23_3 C 0.0640(12) 0.1650(8) 0.6473(8)
H11_3 H 0.0310 0.2042 0.6224
C24_3 C 0.1621(11) 0.1808(7) 0.6746(7)
H12_3 H 0.1938 0.2315 0.6698
C25_3 C 0.6774(9) 0.2100(7) 0.6715(5)
C26_3 C 0.6196(9) 0.1716(6) 0.6164(5)
C27_3 C 0.6398(11) 0.1959(8) 0.5554(6)
H13_3 H 0.6927 0.2348 0.5480
C28_3 C 0.5848(11) 0.1648(8) 0.5065(5)
H14_2 H 0.6021 0.1800 0.4656
C29_3 C 0.5003(11) 0.1087(7) 0.5177(5)
H15_2 H 0.4598 0.0891 0.4841
C30_3 C 0.4773(9) 0.0824(6) 0.5790(5)
C31_3 C 0.3937(9) 0.0225(6) 0.5905(5)
C32_3 C 0.5388(9) 0.1150(7) 0.6284(5)
H16_3 H 0.5254 0.0987 0.6696
N16_3 N 0.3079(9) 0.0147(7) 0.5539(5)
O8_2 O 0.7594(7) 0.2526(6) 0.6627(4)
Cd6_2 Cd 0.27356(6) 0.32072(5) 0.81275(4)
O11_2 O 0.6044(6) 0.0334(4) 0.7662(4)
C13_3 C 0.2644(9) 0.8131(7) 0.0437(5)
H18_3 H 0.567(11) 0.964(3) 0.107(5)
H20_3 H 0.543(12) 0.891(5) 0.082(3)
N5_3 N 0.3545(8) 0.8434(6) 0.0694(4)
N6_3 N 0.3599(8) 0.8104(6) 0.1270(4)
N8_3 N 0.2144(8) 0.7624(6) 0.0835(4)
O10_3 O 0.5484(11) 0.9170(8) 0.1148(5)
C1_3 C 0.8313(8) 0.4830(6) 0.7116(5)
C2_3 C 0.7319(8) 0.5100(6) 0.6774(5)
C3_3 C 0.6946(9) 0.4635(7) 0.6276(6)
H1_3 H 0.7293 0.4153 0.6170
C4_3 C 0.6078(11) 0.4884(9) 0.5947(7)
H2_3 H 0.5859 0.4593 0.5594
C5_3 C 0.5501(10) 0.5571(7) 0.6125(6)
H3_3 H 0.4882 0.5720 0.5905
C6_3 C 0.5850(9) 0.6033(6) 0.6630(5)
C7_3 C 0.5234(9) 0.6768(6) 0.6804(5)
C8_3 C 0.6776(8) 0.5799(6) 0.6953(5)
H4_3 H 0.7030 0.6109 0.7287
C9_3 C 0.3347(8) 0.9017(6) 0.8253(5)
C10_3 C 0.2580(8) 0.8760(6) 0.8748(5)
C11_3 C 0.2926(9) 0.8618(7) 0.9353(5)
H5_3 H 0.3639 0.8733 0.9458
C12_3 C 0.2255(9) 0.8313(7) 0.9806(5)
C14_3 C 0.1180(10) 0.8165(8) 0.9655(5)
H6_3 H 0.0710 0.7962 0.9958
C15_3 C 0.0809(11) 0.8320(9) 0.9052(6)
H7_3 H 0.0090 0.8223 0.8949
C16_3 C 0.1516(10) 0.8621(7) 0.8601(5)
H8_3 H 0.1266 0.8728 0.8196
C21_3 C 0.0124(8) 0.9526(6) 0.6986(5)
Cd1_2 Cd 0.48081(6) 0.93969(5) 0.72870(4)
Cd2_2 Cd 0.22644(6) 0.82072(5) 0.68725(4)
H17_3 H 0.196(8) 0.718(8) 0.590(5)
H19_3 H 0.102(7) 0.757(8) 0.584(4)
N1_3 N 0.5626(7) 0.7423(5) 0.7088(4)
N2_3 N 0.4789(7) 0.7951(6) 0.7115(4)
N3_3 N 0.3947(7) 0.7611(6) 0.6856(5)
N4_3 N 0.4198(7) 0.6860(5) 0.6656(5)
N9_3 N 0.0609(7) 0.8783(5) 0.6994(4)
N13_3 N 0.3916(7) 0.9675(5) 0.6372(4)
N14_3 N 0.2980(7) 0.9267(5) 0.6278(4)
N15_3 N 0.2498(8) 0.9540(6) 0.5782(4)
O1_2 O 0.8956(6) 0.5334(4) 0.7338(4)
O2_2 O 0.8494(6) 0.4073(4) 0.7179(4)
O3_3 O 0.4286(7) 0.9258(5) 0.8391(4)
O4_3 O 0.3073(6) 0.8957(4) 0.7674(3)
O9_3 O 0.1521(15) 0.7471(8) 0.6074(7)
N18_2 N 0.8892(7) 0.8643(5) 0.7132(5)
O12_2 O 0.6506(6) 0.9073(4) 0.7821(4)
O18_2 O 0.7406(7) 0.7526(6) 0.8373(4)
N10_3 N 0.9803(7) 0.8243(5) 0.7093(5)
N12_3 N 0.9060(7) 0.9448(5) 0.7060(4)
H3_4 H 0.0118 0.0720 0.9095
C9_4 C 0.1653(8) 0.4017(6) 0.6747(5)
C10_4 C 0.2420(8) 0.3760(6) 0.6252(5)
C11_4 C 0.2074(9) 0.3618(7) 0.5647(5)
H5_4 H 0.1361 0.3733 0.5542
C12_4 C 0.2745(9) 0.3313(7) 0.5194(5)
C13_4 C 0.2356(9) 0.3131(7) 0.4563(5)
C14_4 C 0.3820(10) 0.3165(8) 0.5345(5)
H6_4 H 0.4290 0.2962 0.5042
C15_4 C 0.4191(11) 0.3320(9) 0.5948(6)
H7_4 H 0.4910 0.3223 0.6051
C16_4 C 0.3484(10) 0.3621(7) 0.6399(5)
H8_4 H 0.3734 0.3728 0.6804
C17_4 C 0.1807(9) 0.6392(6) 0.7600(5)
C18_4 C 0.2861(9) 0.6221(6) 0.7910(5)
C19_4 C 0.3350(8) 0.5459(6) 0.7839(5)
H9_4 H 0.2997 0.5056 0.7611
C20_4 C 0.4344(8) 0.5300(6) 0.8101(5)
C21_4 C 0.4876(8) 0.4526(6) 0.8014(5)
C22_4 C 0.4864(10) 0.5909(7) 0.8434(6)
H10_2 H 0.5553 0.5820 0.8595
C23_4 C 0.4360(12) 0.6650(8) 0.8527(8)
H11_4 H 0.4690 0.7042 0.8776
C24_4 C 0.3379(11) 0.6808(7) 0.8254(7)
H12_4 H 0.3062 0.7315 0.8302
C30_4 C 0.0227(9) 0.5824(6) 0.9210(5)
C31_4 C 0.1063(9) 0.5225(6) 0.9095(5)
H17_4 H 0.304(8) 0.218(8) 0.910(5)
H19_4 H 0.398(7) 0.257(8) 0.916(4)
N2_4 N 0.0211(7) 0.2951(6) 0.7885(4)
N3_4 N 0.1053(7) 0.2611(6) 0.8144(5)
N4_4 N 0.0802(7) 0.1860(5) 0.8344(5)
N5_4 N 0.1455(8) 0.3434(6) 0.4306(4)
N6_4 N 0.1401(8) 0.3104(6) 0.3730(4)
N8_4 N 0.2856(8) 0.2624(6) 0.4165(4)
N9_4 N 0.4391(7) 0.3783(5) 0.8006(4)
N10_4 N 0.5197(7) 0.3243(5) 0.7907(5)
N11_2 N 0.6108(7) 0.3643(5) 0.7868(5)
N12_4 N 0.5940(7) 0.4448(5) 0.7940(4)
N13_4 N 0.1084(7) 0.4675(5) 0.8628(4)
N14_4 N 0.2020(7) 0.4267(5) 0.8722(4)
N15_4 N 0.2502(8) 0.4540(6) 0.9218(4)
N16_4 N 0.1921(9) 0.5147(7) 0.9461(5)
O3_4 O 0.0714(7) 0.4258(5) 0.6609(4)
O4_4 O 0.1927(6) 0.3957(4) 0.7326(3)
O9_4 O 0.3479(15) 0.2471(8) 0.8926(7)
C2_4 C 0.7681(8) 0.0100(6) 0.8226(5)
C5_4 C 0.9499(10) 0.0571(7) 0.8875(6)
C6_4 C 0.9150(9) 0.1033(6) 0.8370(5)
C7_4 C 0.9766(9) 0.1768(6) 0.8196(5)
C8_4 C 0.8224(8) 0.0799(6) 0.8047(5)
H4_4 H 0.7970 0.1109 0.7713
C25_4 C 0.8226(9) 0.7100(7) 0.8285(5)
C26_4 C 0.8804(9) 0.6716(6) 0.8836(5)
C27_4 C 0.8602(11) 0.6959(8) 0.9446(6)
H13_4 H 0.8073 0.7348 0.9520
C28_4 C 0.9152(11) 0.6648(8) 0.9935(5)
C29_4 C 0.9997(11) 0.6087(7) 0.9823(5)
C32_4 C 0.9612(9) 0.6150(7) 0.8716(5)
H16_4 H 0.9746 0.5987 0.8304
H18_4 H 0.933(11) 0.464(3) 0.393(5)
H20_4 H 0.957(12) 0.391(5) 0.418(3)
N1_4 N 0.9374(7) 0.2423(5) 0.7912(4)
O10_4 O 0.9516(11) 0.4170(8) 0.3852(5)
C1_4 C 0.6687(8) 0.9830(6) 0.7884(5)
C3_4 C 0.8054(9) 0.9635(7) 0.8724(6)
H1_4 H 0.7707 0.9153 0.8830
C4_4 C 0.8922(11) 0.9884(9) 0.9053(7)
H2_4 H 0.9141 0.9593 0.9406
H10_3 H 0.0553 0.9180 0.3595
H14_3 H 0.1021 0.3200 0.9656
H15_3 H 0.9598 0.4109 0.9841
H10_4 H 0.9447 0.0820 0.6405
H15_4 H 0.0402 0.5891 0.0159
H14_4 H 0.8979 0.6800 0.0344
loop_
_geom_bond_atom_site_label_1
_geom_bond_atom_site_label_2
_geom_bond_site_symmetry_1
_geom_bond_site_symmetry_2
N11 N10 1_555 1_555
Cd8 N11 1_555 1_555
N11 N12 1_555 1_555
C1 C2 1_555 1_555
C2 C3 1_555 1_555
C3 H1 1_555 1_555
C4 C3 1_555 1_555
H2 C4 1_555 1_555
C5 C4 1_555 1_555
H3 C5 1_555 1_555
C6 C5 1_555 1_555
C7 C6 1_555 1_555
C8 C2 1_555 1_555
H4 C8 1_555 1_555
C9 C10 1_555 1_555
C10 C11 1_555 1_555
C11 H5 1_555 1_555
C12 C11 1_555 1_555
C14 C12 1_555 1_555
H6 C14 1_555 1_555
C15 C14 1_555 1_555
H7 C15 1_555 1_555
C16 C10 1_555 1_555
H8 C16 1_555 1_555
Cd1 N2 1_555 1_555
Cd2 N3 1_555 1_555
Cd8 N1 1_555 1_555
H17 O9 1_555 1_555
H19 O9 1_555 1_555
N1 C7 1_555 1_555
N2 N1 1_555 1_555
N3 N2 1_555 1_555
N4 C7 1_555 1_555
N9 C21 1_555 1_555
N14 Cd2 1_555 1_555
N15 N14 1_555 1_555
O1 C1 1_555 1_555
O2 C1 1_555 1_555
O3 C9 1_555 1_555
O4 C9 1_555 1_555
O9 Cd2 1_555 1_555
Cd9 O2 1_555 1_555
N17 Cd8 1_555 1_555
O12 Cd1 1_555 1_555
O14 Cd2 1_555 1_555
O16 Cd8 1_555 1_555
O18 Cd8 1_555 1_555
C6 C8 1_555 1_555
C15 C16 1_555 1_555
Cd1 N13 1_555 1_555
Cd1 O3 1_555 1_555
Cd1 O4 1_555 1_555
Cd2 N9 1_555 1_555
Cd2 O4 1_555 1_555
Cd8 O12 1_555 1_555
N3 N4 1_555 1_555
N13 N14 1_555 1_555
Cd4 N6 1_555 1_555
H18 O10 1_555 1_555
H20 O10 1_555 1_555
N5 C13 1_555 1_555
N6 N5 1_555 1_555
N7 N6 1_555 1_555
N8 C13 1_555 1_555
O10 Cd4 1_555 1_555
Cd7 N7 1_555 1_555
O13 Cd4 1_555 1_555
O15 Cd4 1_555 1_555
O17 Cd4 1_555 1_555
N7 N8 1_555 1_555
Cd7 O17 1_555 1_555
C17 C18 1_555 1_555
C18 C19 1_555 1_555
C19 H9 1_555 1_555
C20 C19 1_555 1_555
C22 C20 1_555 1_555
C23 C22 1_555 1_555
H11 C23 1_555 1_555
C24 C18 1_555 1_555
H12 C24 1_555 1_555
C25 C26 1_555 1_555
C26 C27 1_555 1_555
C27 H13 1_555 1_555
C28 C27 1_555 1_555
H14 C28 1_555 1_555
C29 C28 1_555 1_555
H15 C29 1_555 1_555
C30 C29 1_555 1_555
C31 C30 1_555 1_555
C32 C26 1_555 1_555
H16 C32 1_555 1_555
N16 C31 1_555 1_555
O5 C17 1_555 1_555
O6 C17 1_555 1_555
O7 C25 1_555 1_555
O8 C25 1_555 1_555
Cd6 O6 1_555 1_555
Cd9 O7 1_555 1_555
Cd11 O5 1_555 1_555
C23 C24 1_555 1_555
C30 C32 1_555 1_555
O6 Cd11 1_555 1_555
O7 Cd11 1_555 1_555
O8 Cd9 1_555 1_555
C3_2 H1_2 1_555 1_555
C4_2 C3_2 1_555 1_555
H2_2 C4_2 1_555 1_555
O12 C1_2 1_555 1_555
C6_2 C5_2 1_555 1_555
C7_2 C6_2 1_555 1_555
C8_2 C2_2 1_555 1_555
H4_2 C8_2 1_555 1_555
C25_2 C26_2 1_555 1_555
C26_2 C27_2 1_555 1_555
C27_2 H13_2 1_555 1_555
C28_2 C27_2 1_555 1_555
C29_2 C28_2 1_555 1_555
C32_2 C26_2 1_555 1_555
H16_2 C32_2 1_555 1_555
Cd9 N1_2 1_555 1_555
H18_2 O10_2 1_555 1_555
H20_2 O10_2 1_555 1_555
N1_2 C7_2 1_555 1_555
O16 C25_2 1_555 1_555
O18 C25_2 1_555 1_555
N17_2 Cd9 1_555 1_555
N18 Cd9 1_555 1_555
C6_2 C8_2 1_555 1_555
O16 Cd11_2 1_555 1_555
C9_2 C10_2 1_555 1_555
C10_2 C11_2 1_555 1_555
C11_2 H5_2 1_555 1_555
C12_2 C11_2 1_555 1_555
C13_2 C12_2 1_555 1_555
C14_2 C12_2 1_555 1_555
H6_2 C14_2 1_555 1_555
C15_2 C14_2 1_555 1_555
H7_2 C15_2 1_555 1_555
C16_2 C10_2 1_555 1_555
H8_2 C16_2 1_555 1_555
C17_2 C18_2 1_555 1_555
C18_2 C19_2 1_555 1_555
C19_2 H9_2 1_555 1_555
C20_2 C19_2 1_555 1_555
C21_2 C20_2 1_555 1_555
C22_2 C20_2 1_555 1_555
H10 C22_2 1_555 1_555
C23_2 C22_2 1_555 1_555
H11_2 C23_2 1_555 1_555
C24_2 C18_2 1_555 1_555
H12_2 C24_2 1_555 1_555
C31_2 C30_2 1_555 1_555
Cd5 N2_2 1_555 1_555
Cd6 N3_2 1_555 1_555
Cd4_2 N6_2 1_555 1_555
H17_2 O9_2 1_555 1_555
H19_2 O9_2 1_555 1_555
N3_2 N2_2 1_555 1_555
N5_2 C13_2 1_555 1_555
N6_2 N5_2 1_555 1_555
N7_2 N6_2 1_555 1_555
N8_2 C13_2 1_555 1_555
N9_2 C21_2 1_555 1_555
N10_2 N9_2 1_555 1_555
N18 N10_2 1_555 1_555
N12_2 C21_2 1_555 1_555
N13_2 C31_2 1_555 1_555
N14_2 Cd6 1_555 1_555
N15_2 N14_2 1_555 1_555
N16_2 C31_2 1_555 1_555
O3_2 C9_2 1_555 1_555
O4_2 C9_2 1_555 1_555
O5_2 C17_2 1_555 1_555
O14 C17_2 1_555 1_555
O9_2 Cd6 1_555 1_555
Cd7_2 N7_2 1_555 1_555
O17_2 Cd4_2 1_555 1_555
C15_2 C16_2 1_555 1_555
C23_2 C24_2 1_555 1_555
Cd5 N13_2 1_555 1_555
Cd5 O3_2 1_555 1_555
Cd5 O4_2 1_555 1_555
Cd6 N9_2 1_555 1_555
Cd6 O4_2 1_555 1_555
N3_2 N4_2 1_555 1_555
N7_2 N8_2 1_555 1_555
N18 N12_2 1_555 1_555
N13_2 N14_2 1_555 1_555
N15_2 N16_2 1_555 1_555
Cd7_2 O17_2 1_555 1_555
C17_3 C18_3 1_555 1_555
C18_3 C19_3 1_555 1_555
C19_3 H9_3 1_555 1_555
C20_3 C19_3 1_555 1_555
C22_3 C20_3 1_555 1_555
C23_3 C22_3 1_555 1_555
H11_3 C23_3 1_555 1_555
C24_3 C18_3 1_555 1_555
H12_3 C24_3 1_555 1_555
C25_3 C26_3 1_555 1_555
C26_3 C27_3 1_555 1_555
C27_3 H13_3 1_555 1_555
C28_3 C27_3 1_555 1_555
H14_2 C28_3 1_555 1_555
C29_3 C28_3 1_555 1_555
H15_2 C29_3 1_555 1_555
C30_3 C29_3 1_555 1_555
C31_3 C30_3 1_555 1_555
C32_3 C26_3 1_555 1_555
H16_3 C32_3 1_555 1_555
N16_3 C31_3 1_555 1_555
O13 C17_3 1_555 1_555
O15 C17_3 1_555 1_555
O17 C25_3 1_555 1_555
O8_2 C25_3 1_555 1_555
Cd6_2 O15 1_555 1_555
C23_3 C24_3 1_555 1_555
C30_3 C32_3 1_555 1_555
O8_2 Cd7 1_555 1_555
Cd11 N6_3 1_555 1_555
H18_3 O10_3 1_555 1_555
H20_3 O10_3 1_555 1_555
N5_3 C13_3 1_555 1_555
N6_3 N5_3 1_555 1_555
N17_2 N6_3 1_555 1_555
N8_3 C13_3 1_555 1_555
O10_3 Cd11 1_555 1_555
N17_2 N8_3 1_555 1_555
C1_3 C2_3 1_555 1_555
C2_3 C3_3 1_555 1_555
C3_3 H1_3 1_555 1_555
C4_3 C3_3 1_555 1_555
H2_3 C4_3 1_555 1_555
C5_3 C4_3 1_555 1_555
H3_3 C5_3 1_555 1_555
C6_3 C5_3 1_555 1_555
C7_3 C6_3 1_555 1_555
C8_3 C2_3 1_555 1_555
H4_3 C8_3 1_555 1_555
C9_3 C10_3 1_555 1_555
C10_3 C11_3 1_555 1_555
C11_3 H5_3 1_555 1_555
C12_3 C11_3 1_555 1_555
C14_3 C12_3 1_555 1_555
H6_3 C14_3 1_555 1_555
C15_3 C14_3 1_555 1_555
H7_3 C15_3 1_555 1_555
C16_3 C10_3 1_555 1_555
H8_3 C16_3 1_555 1_555
Cd1_2 N2_3 1_555 1_555
Cd2_2 N3_3 1_555 1_555
Cd7_2 N1_3 1_555 1_555
H17_3 O9_3 1_555 1_555
H19_3 O9_3 1_555 1_555
N1_3 C7_3 1_555 1_555
N2_3 N1_3 1_555 1_555
N3_3 N2_3 1_555 1_555
N4_3 C7_3 1_555 1_555
N9_3 C21_3 1_555 1_555
N14_3 Cd2_2 1_555 1_555
N15_3 N14_3 1_555 1_555
O1_2 C1_3 1_555 1_555
O2_2 C1_3 1_555 1_555
O3_3 C9_3 1_555 1_555
O4_3 C9_3 1_555 1_555
O9_3 Cd2_2 1_555 1_555
Cd7 O2_2 1_555 1_555
N18_2 Cd7_2 1_555 1_555
O12_2 Cd1_2 1_555 1_555
O15_2 Cd2_2 1_555 1_555
O18_2 Cd7_2 1_555 1_555
C6_3 C8_3 1_555 1_555
C15_3 C16_3 1_555 1_555
Cd1_2 N13_3 1_555 1_555
Cd1_2 O3_3 1_555 1_555
Cd1_2 O4_3 1_555 1_555
Cd2_2 N9_3 1_555 1_555
Cd2_2 O4_3 1_555 1_555
Cd7_2 O12_2 1_555 1_555
N3_3 N4_3 1_555 1_555
N13_3 N14_3 1_555 1_555
N18_2 N10_3 1_555 1_555
N18_2 N12_3 1_555 1_555
C9_4 C10_4 1_555 1_555
C10_4 C11_4 1_555 1_555
C11_4 H5_4 1_555 1_555
C12_4 C11_4 1_555 1_555
C13_4 C12_4 1_555 1_555
C14_4 C12_4 1_555 1_555
H6_4 C14_4 1_555 1_555
C15_4 C14_4 1_555 1_555
H7_4 C15_4 1_555 1_555
C16_4 C10_4 1_555 1_555
H8_4 C16_4 1_555 1_555
C17_4 C18_4 1_555 1_555
C18_4 C19_4 1_555 1_555
C19_4 H9_4 1_555 1_555
C20_4 C19_4 1_555 1_555
C21_4 C20_4 1_555 1_555
C22_4 C20_4 1_555 1_555
H10_2 C22_4 1_555 1_555
C23_4 C22_4 1_555 1_555
H11_4 C23_4 1_555 1_555
C24_4 C18_4 1_555 1_555
H12_4 C24_4 1_555 1_555
C31_4 C30_4 1_555 1_555
Cd5_2 N2_4 1_555 1_555
Cd6_2 N3_4 1_555 1_555
Cd11_2 N6_4 1_555 1_555
H17_4 O9_4 1_555 1_555
H19_4 O9_4 1_555 1_555
N3_4 N2_4 1_555 1_555
N5_4 C13_4 1_555 1_555
N6_4 N5_4 1_555 1_555
N17 N6_4 1_555 1_555
N8_4 C13_4 1_555 1_555
N9_4 C21_4 1_555 1_555
N10_4 N9_4 1_555 1_555
N11_2 N10_4 1_555 1_555
N12_4 C21_4 1_555 1_555
N13_4 C31_4 1_555 1_555
N14_4 Cd6_2 1_555 1_555
N15_4 N14_4 1_555 1_555
N16_4 C31_4 1_555 1_555
O3_4 C9_4 1_555 1_555
O4_4 C9_4 1_555 1_555
O13_2 C17_4 1_555 1_555
O15_2 C17_4 1_555 1_555
O9_4 Cd6_2 1_555 1_555
Cd7 N11_2 1_555 1_555
C15_4 C16_4 1_555 1_555
C23_4 C24_4 1_555 1_555
Cd5_2 N13_4 1_555 1_555
Cd5_2 O3_4 1_555 1_555
Cd5_2 O4_4 1_555 1_555
Cd6_2 N9_4 1_555 1_555
Cd6_2 O4_4 1_555 1_555
N3_4 N4_4 1_555 1_555
N17 N8_4 1_555 1_555
N11_2 N12_4 1_555 1_555
N13_4 N14_4 1_555 1_555
N15_4 N16_4 1_555 1_555
C6_4 C5_4 1_555 1_555
C7_4 C6_4 1_555 1_555
C8_4 C2_4 1_555 1_555
H4_4 C8_4 1_555 1_555
C25_4 C26_4 1_555 1_555
C26_4 C27_4 1_555 1_555
C27_4 H13_4 1_555 1_555
C28_4 C27_4 1_555 1_555
C29_4 C28_4 1_555 1_555
C32_4 C26_4 1_555 1_555
H16_4 C32_4 1_555 1_555
Cd7 N1_4 1_555 1_555
H18_4 O10_4 1_555 1_555
H20_4 O10_4 1_555 1_555
N1_4 C7_4 1_555 1_555
O17_2 C25_4 1_555 1_555
O18_2 C25_4 1_555 1_555
C6_4 C8_4 1_555 1_555
C3_4 H1_4 1_555 1_555
C4_4 C3_4 1_555 1_555
H2_4 C4_4 1_555 1_555
O12_2 C1_4 1_555 1_555

#END
