
###############################################################################
#
# This file contains modified crystal structure data generated from the
# MOF subset of the Cambridge Structural Database (CSD) v543 
# hosted by the Cambridge Crystallographic Data Centre (CCDC).
#
# This work is licensed under the Creative Commons
# Attribution-NonCommercial-ShareAlike 4.0 International License.
# To view a copy of this license, visit
# http://creativecommons.org/licenses/by-nc-sa/4.0/
# or send a letter to
# Creative Commons, PO Box 1866, Mountain View, CA 94042, USA.
#
# CIF created using the CSD Python API on 29 September 2022
# The structure has been converted into the P1 space group
# The structure has a 3D framework
# The original CSD entry PEMGIZ is in the tetragonal crystal system
# The framework has been calculated to contain at least 10.0% void space
# The void calculation uses a probe of radius 1.32A, grid spacing 0.4
# The framework is charged, counterions have been retained in the structure
#
###############################################################################

data_PEMGIZ
_chemical_formula_moiety         '(C256 H272 Ag4 F48 N12 O16 S16 Sb8 4-)n'
_symmetry_cell_setting           triclinic
_symmetry_space_group_name_H-M   'P 1'
_symmetry_Int_Tables_number      1
_space_group_name_Hall           'P 1'
loop_
_symmetry_equiv_pos_site_id
_symmetry_equiv_pos_as_xyz
1 x,y,z
_cell_length_a                   24.1812(17)
_cell_length_b                   24.1812(17)
_cell_length_c                   13.9842(10)
_cell_angle_alpha                90
_cell_angle_beta                 90
_cell_angle_gamma                90
_cell_volume                     8176.99
loop_
_atom_site_label
_atom_site_type_symbol
_atom_site_fract_x
_atom_site_fract_y
_atom_site_fract_z
C15 C 0.1094(5) 0.0052(6) 0.3762(13)
H12 H 0.1385 0.0266 0.3443
H13 H 0.0741 0.0247 0.3703
H14 H 0.1187 0.0008 0.4440
S4 S 0.14505(15) 0.07199(14) 0.0166(3)
C19 C 0.1236(3) 0.0077(2) 0.0651(6)
C32 C 0.1196(4) 0.0053(3) 0.1642(5)
H21 H 0.1293 0.0367 0.2017
O3 O 0.0333(3) 0.1171(3) 0.0872(6)
C36 C 0.0537(11) 0.1671(6) 0.1112(13)
H25 H 0.0342 0.1959 0.0740
H28 H 0.0933 0.1686 0.0937
C39 C 0.0475(5) 0.1798(5) 0.2192(7)
C45 C 0.0225(7) 0.2084(6) 0.4069(7)
H34 H 0.0140 0.2181 0.4710
C48 C 0.0717(7) 0.1811(7) 0.3862(9)
H37 H 0.0968 0.1722 0.4362
C51 C 0.0842(5) 0.1668(7) 0.2924(10)
H40 H 0.1178 0.1482 0.2783
Ag2 Ag 0.2500 0.05044(12) 0.8750
C21 C 0.0382(3) 0.1095(4) 0.9896(4)
C25 C 0.0864(4) 0.0914(3) 0.9453(5)
C26 C 0.0887(5) 0.0874(3) 0.8462(5)
H18 H 0.1216 0.0751 0.8160
C29 C 0.0428(5) 0.1015(4) 0.7915(4)
N2 N 0.2071(4) 0.0016(4) 0.7601(8)
N6 N 0.2929(4) 0.0016(4) 0.9899(8)
C41 C 0.2214(5) 0.0141(5) 0.6663(9)
H30 H 0.2400 0.0477 0.6521
C53 C 0.0516(7) 0.1047(5) 0.6705(13)
C56 C 0.0908(5) 0.1516(5) 0.6451(12)
H42 H 0.0888 0.1589 0.5763
H45 H 0.1287 0.1411 0.6622
H48 H 0.0803 0.1849 0.6805
C62 C 0.0791(5) 0.0481(6) 0.6521(12)
H60 H 0.1162 0.0538 0.6253
H63 H 0.0566 0.0269 0.6068
H66 H 0.0821 0.0277 0.7124
Ag1 Ag 0.05044(12) 0.7500 0.1250
C3 C 0.0914(3) 0.9136(4) 0.0547(5)
C4 C 0.0874(3) 0.9113(5) 0.1538(5)
H1 H 0.0751 0.8784 0.1840
C5 C 0.1015(4) 0.9572(5) 0.2085(4)
N1 N 0.0016(4) 0.7929(4) 0.2399(8)
C9 C 0.0141(5) 0.7786(5) 0.3337(9)
H5 H 0.0477 0.7600 0.3479
C13 C 0.1047(5) 0.9484(7) 0.3295(13)
C14 C 0.1516(5) 0.9092(5) 0.3549(12)
H9 H 0.1589 0.9112 0.4237
H10 H 0.1411 0.8713 0.3378
H11 H 0.1849 0.9197 0.3195
C16 C 0.0481(6) 0.9209(5) 0.3479(12)
H15 H 0.0538 0.8838 0.3747
H16 H 0.0269 0.9434 0.3932
H17 H 0.0277 0.9179 0.2876
C22 C 0.1095(4) 0.9618(3) 0.0104(4)
N5 N 0.0016(4) 0.7071(4) 0.0101(8)
Ag3 Ag 0.94956(12) 0.2500 0.1250
C20 C 0.8905(4) 0.0382(3) 0.0104(4)
C24 C 0.9086(3) 0.0864(4) 0.0547(5)
C27 C 0.9126(3) 0.0887(5) 0.1538(5)
H19 H 0.9249 0.1216 0.1840
C30 C 0.8985(4) 0.0428(5) 0.2085(4)
N3 N 0.9984(4) 0.2071(4) 0.2399(8)
C42 C 0.9859(5) 0.2214(5) 0.3337(9)
H31 H 0.9523 0.2400 0.3479
C54 C 0.8953(5) 0.0516(7) 0.3295(13)
C57 C 0.8484(5) 0.0908(5) 0.3549(12)
H43 H 0.8411 0.0888 0.4237
H46 H 0.8589 0.1287 0.3378
H49 H 0.8151 0.0803 0.3195
C63 C 0.9519(6) 0.0791(5) 0.3479(12)
H61 H 0.9462 0.1162 0.3747
H64 H 0.9731 0.0566 0.3932
H67 H 0.9723 0.0821 0.2876
C2 C 0.9618(3) 0.8905(4) 0.9896(4)
Ag4 Ag 0.7500 0.94956(12) 0.8750
C23 C 0.9136(4) 0.9086(3) 0.9453(5)
C28 C 0.9113(5) 0.9126(3) 0.8462(5)
H20 H 0.8784 0.9249 0.8160
C31 C 0.9572(5) 0.8985(4) 0.7915(4)
N4 N 0.7929(4) 0.9984(4) 0.7601(8)
C43 C 0.7786(5) 0.9859(5) 0.6663(9)
H32 H 0.7600 0.9523 0.6521
C55 C 0.9484(7) 0.8953(5) 0.6705(13)
C58 C 0.9092(5) 0.8484(5) 0.6451(12)
H44 H 0.9112 0.8411 0.5763
H47 H 0.8713 0.8589 0.6622
H50 H 0.9197 0.8151 0.6805
C64 C 0.9209(5) 0.9519(6) 0.6521(12)
H62 H 0.8838 0.9462 0.6253
H65 H 0.9434 0.9731 0.6068
H68 H 0.9179 0.9723 0.7124
N5_2 N 0.9984(4) 0.2929(4) 0.0101(8)
N6_2 N 0.7071(4) 0.9984(4) 0.9899(8)
C15_2 C 0.3906(5) 0.0052(6) 0.3738(13)
H12_2 H 0.3615 0.0266 0.4057
H13_2 H 0.4259 0.0247 0.3797
H14_2 H 0.3813 0.0008 0.3060
Ag3_2 Ag 0.55044(12) 0.2500 0.6250
S3 S 0.57199(14) 0.14505(15) 0.7666(3)
S4_2 S 0.35495(15) 0.07199(14) 0.7334(3)
C18 C 0.5077(2) 0.1236(3) 0.8151(6)
C19_2 C 0.3764(3) 0.0077(2) 0.6849(6)
C20_2 C 0.6095(4) 0.0382(3) 0.7396(4)
C21_2 C 0.4618(3) 0.1095(4) 0.7604(4)
C24_2 C 0.5914(3) 0.0864(4) 0.6953(5)
C25_2 C 0.4136(4) 0.0914(3) 0.8047(5)
C26_2 C 0.4113(5) 0.0874(3) 0.9038(5)
C27_2 C 0.5874(3) 0.0887(5) 0.5962(5)
H18_2 H 0.3784 0.0751 0.9340
H19_2 H 0.5751 0.1216 0.5660
C29_2 C 0.4572(5) 0.1015(4) 0.9585(4)
C30_2 C 0.6015(4) 0.0428(5) 0.5415(4)
C32_2 C 0.3804(4) 0.0053(3) 0.5858(5)
C33 C 0.5053(3) 0.1196(4) 0.9142(5)
H21_2 H 0.3707 0.0367 0.5483
H22 H 0.5367 0.1293 0.9517
O3_2 O 0.4667(3) 0.1171(3) 0.6628(6)
O4 O 0.6171(3) 0.0333(3) 0.8372(6)
C36_2 C 0.4463(11) 0.1671(6) 0.6388(13)
C37 C 0.6671(6) 0.0537(11) 0.8612(13)
H25_2 H 0.4658 0.1959 0.6760
H26 H 0.6959 0.0342 0.8240
H28_2 H 0.4067 0.1686 0.6563
H29 H 0.6686 0.0933 0.8437
C39_2 C 0.4525(5) 0.1798(5) 0.5308(7)
C40 C 0.6798(5) 0.0475(5) 0.9692(7)
N3_2 N 0.5016(4) 0.2071(4) 0.5101(8)
C42_2 C 0.5141(5) 0.2214(5) 0.4163(9)
H31_2 H 0.5477 0.2400 0.4021
C45_2 C 0.4775(7) 0.2084(6) 0.3431(7)
H34_2 H 0.4860 0.2181 0.2790
C48_2 C 0.4283(7) 0.1811(7) 0.3638(9)
H37_2 H 0.4032 0.1722 0.3138
C51_2 C 0.4158(5) 0.1668(7) 0.4576(10)
H40_2 H 0.3822 0.1482 0.4717
C54_2 C 0.6047(5) 0.0516(7) 0.4205(13)
C57_2 C 0.6516(5) 0.0908(5) 0.3951(12)
H43_2 H 0.6589 0.0888 0.3263
H46_2 H 0.6411 0.1287 0.4122
H49_2 H 0.6849 0.0803 0.4305
C63_2 C 0.5481(6) 0.0791(5) 0.4021(12)
H61_2 H 0.5538 0.1162 0.3753
H64_2 H 0.5269 0.0566 0.3568
H67_2 H 0.5277 0.0821 0.4624
Ag1_2 Ag 0.44956(12) 0.7500 0.6250
S1 S 0.42801(14) 0.85495(15) 0.7666(3)
C1 C 0.4923(2) 0.8764(3) 0.8151(6)
C2_2 C 0.5382(3) 0.8905(4) 0.7604(4)
C3_2 C 0.4086(3) 0.9136(4) 0.6953(5)
C4_2 C 0.4126(3) 0.9113(5) 0.5962(5)
H1_2 H 0.4249 0.8784 0.5660
C5_2 C 0.3985(4) 0.9572(5) 0.5415(4)
C6 C 0.4947(3) 0.8804(4) 0.9142(5)
H2 H 0.4633 0.8707 0.9517
O1 O 0.5333(3) 0.8829(3) 0.6628(6)
C7 C 0.5537(11) 0.8329(6) 0.6388(13)
H3 H 0.5342 0.8041 0.6760
H4 H 0.5933 0.8314 0.6563
C8 C 0.5475(5) 0.8202(5) 0.5308(7)
N1_2 N 0.4984(4) 0.7929(4) 0.5101(8)
C9_2 C 0.4859(5) 0.7786(5) 0.4163(9)
H5_2 H 0.4523 0.7600 0.4021
C10 C 0.5225(7) 0.7916(6) 0.3431(7)
H6 H 0.5140 0.7819 0.2790
C11 C 0.5717(7) 0.8189(7) 0.3638(9)
H7 H 0.5968 0.8278 0.3138
C12 C 0.5842(5) 0.8332(7) 0.4576(10)
H8 H 0.6178 0.8518 0.4717
C13_2 C 0.3953(5) 0.9484(7) 0.4205(13)
C14_2 C 0.3484(5) 0.9092(5) 0.3951(12)
H9_2 H 0.3411 0.9112 0.3263
H10_2 H 0.3589 0.8713 0.4122
H11_2 H 0.3151 0.9197 0.4305
C16_2 C 0.4519(6) 0.9209(5) 0.4021(12)
H15_2 H 0.4462 0.8838 0.3753
H16_2 H 0.4731 0.9434 0.3568
H17_2 H 0.4723 0.9179 0.4624
S2 S 0.64505(15) 0.92801(14) 0.7334(3)
C17 C 0.6236(3) 0.9923(2) 0.6849(6)
C22_2 C 0.3905(4) 0.9618(3) 0.7396(4)
C23_2 C 0.5864(4) 0.9086(3) 0.8047(5)
C28_2 C 0.5887(5) 0.9126(3) 0.9038(5)
H20_2 H 0.6216 0.9249 0.9340
C31_2 C 0.5428(5) 0.8985(4) 0.9585(4)
C34 C 0.6196(4) 0.9947(3) 0.5858(5)
H23 H 0.6293 0.9633 0.5483
O2 O 0.3829(3) 0.9667(3) 0.8372(6)
C35 C 0.3329(6) 0.9463(11) 0.8612(13)
H24 H 0.3041 0.9658 0.8240
H27 H 0.3314 0.9067 0.8437
C38 C 0.3202(5) 0.9525(5) 0.9692(7)
N5_3 N 0.4984(4) 0.7071(4) 0.7399(8)
C60 C 0.6094(5) 0.9948(6) 0.3738(13)
H52 H 0.6385 0.9734 0.4057
H55 H 0.5741 0.9753 0.3797
H58 H 0.6187 0.9992 0.3060
N5_4 N 0.5016(4) 0.2929(4) 0.7399(8)
S1_2 S 0.57199(14) 0.35495(15) 0.4834(3)
C1_2 C 0.5077(2) 0.3764(3) 0.4349(6)
C2_3 C 0.4618(3) 0.3905(4) 0.4896(4)
C3_3 C 0.5914(3) 0.4136(4) 0.5547(5)
C4_3 C 0.5874(3) 0.4113(5) 0.6538(5)
H1_3 H 0.5751 0.3784 0.6840
C5_3 C 0.6015(4) 0.4572(5) 0.7085(4)
C6_2 C 0.5053(3) 0.3804(4) 0.3358(5)
H2_2 H 0.5367 0.3707 0.2983
O1_2 O 0.4667(3) 0.3829(3) 0.5872(6)
C7_2 C 0.4463(11) 0.3329(6) 0.6112(13)
H3_2 H 0.4658 0.3041 0.5740
H4_2 H 0.4067 0.3314 0.5937
C8_2 C 0.4525(5) 0.3202(5) 0.7192(7)
C9_3 C 0.5141(5) 0.2786(5) 0.8337(9)
H5_3 H 0.5477 0.2600 0.8479
C10_2 C 0.4775(7) 0.2916(6) 0.9069(7)
H6_2 H 0.4860 0.2819 0.9710
C11_2 C 0.4283(7) 0.3189(7) 0.8862(9)
H7_2 H 0.4032 0.3278 0.9362
C12_2 C 0.4158(5) 0.3332(7) 0.7924(10)
H8_2 H 0.3822 0.3518 0.7783
C13_3 C 0.6047(5) 0.4484(7) 0.8295(13)
C14_3 C 0.6516(5) 0.4092(5) 0.8549(12)
H9_3 H 0.6589 0.4112 0.9237
H10_3 H 0.6411 0.3713 0.8378
H11_3 H 0.6849 0.4197 0.8195
C15_3 C 0.6094(5) 0.5052(6) 0.8762(13)
H12_3 H 0.6385 0.5266 0.8443
H13_3 H 0.5741 0.5247 0.8703
H14_3 H 0.6187 0.5008 0.9440
C16_3 C 0.5481(6) 0.4209(5) 0.8479(12)
H15_3 H 0.5538 0.3838 0.8747
H16_3 H 0.5269 0.4434 0.8932
H17_3 H 0.5277 0.4179 0.7876
Ag2_2 Ag 0.7500 0.55044(12) 0.3750
Ag4_2 Ag 0.2500 0.44956(12) 0.3750
S2_2 S 0.35495(15) 0.42801(14) 0.5166(3)
S3_2 S 0.42801(14) 0.64505(15) 0.4834(3)
S4_3 S 0.64505(15) 0.57199(14) 0.5166(3)
C17_2 C 0.3764(3) 0.4923(2) 0.5651(6)
C18_2 C 0.4923(2) 0.6236(3) 0.4349(6)
C19_3 C 0.6236(3) 0.5077(2) 0.5651(6)
C20_3 C 0.3905(4) 0.5382(3) 0.5104(4)
C21_3 C 0.5382(3) 0.6095(4) 0.4896(4)
C22_3 C 0.6095(4) 0.4618(3) 0.5104(4)
C23_3 C 0.4136(4) 0.4086(3) 0.4453(5)
C24_3 C 0.4086(3) 0.5864(4) 0.5547(5)
C25_3 C 0.5864(4) 0.5914(3) 0.4453(5)
C26_3 C 0.5887(5) 0.5874(3) 0.3462(5)
C27_3 C 0.4126(3) 0.5887(5) 0.6538(5)
C28_3 C 0.4113(5) 0.4126(3) 0.3462(5)
H18_3 H 0.6216 0.5751 0.3160
H19_3 H 0.4249 0.6216 0.6840
H20_3 H 0.3784 0.4249 0.3160
C29_3 C 0.5428(5) 0.6015(4) 0.2915(4)
C30_3 C 0.3985(4) 0.5428(5) 0.7085(4)
C31_3 C 0.4572(5) 0.3985(4) 0.2915(4)
C32_3 C 0.6196(4) 0.5053(3) 0.6642(5)
C33_2 C 0.4947(3) 0.6196(4) 0.3358(5)
C34_2 C 0.3804(4) 0.4947(3) 0.6642(5)
H21_3 H 0.6293 0.5367 0.7017
H22_2 H 0.4633 0.6293 0.2983
H23_2 H 0.3707 0.4633 0.7017
O2_2 O 0.6171(3) 0.4667(3) 0.4128(6)
O3_3 O 0.5333(3) 0.6171(3) 0.5872(6)
O4_2 O 0.3829(3) 0.5333(3) 0.4128(6)
C35_2 C 0.6671(6) 0.4463(11) 0.3888(13)
C36_3 C 0.5537(11) 0.6671(6) 0.6112(13)
C37_2 C 0.3329(6) 0.5537(11) 0.3888(13)
H24_2 H 0.6959 0.4658 0.4260
H25_3 H 0.5342 0.6959 0.5740
H26_2 H 0.3041 0.5342 0.4260
H27_2 H 0.6686 0.4067 0.4063
H28_3 H 0.5933 0.6686 0.5937
H29_2 H 0.3314 0.5933 0.4063
C38_2 C 0.6798(5) 0.4525(5) 0.2808(7)
C39_3 C 0.5475(5) 0.6798(5) 0.7192(7)
C40_2 C 0.3202(5) 0.5475(5) 0.2808(7)
N2_2 N 0.7071(4) 0.5016(4) 0.2601(8)
N4_2 N 0.2929(4) 0.4984(4) 0.2601(8)
N6_3 N 0.7929(4) 0.5016(4) 0.4899(8)
C41_2 C 0.7214(5) 0.5141(5) 0.1663(9)
C42_3 C 0.4859(5) 0.7214(5) 0.8337(9)
C43_2 C 0.2786(5) 0.4859(5) 0.1663(9)
H30_2 H 0.7400 0.5477 0.1521
H31_3 H 0.4523 0.7400 0.8479
H32_2 H 0.2600 0.4523 0.1521
C44 C 0.7084(6) 0.4775(7) 0.0931(7)
C45_3 C 0.5225(7) 0.7084(6) 0.9069(7)
C46 C 0.2916(6) 0.5225(7) 0.0931(7)
H33 H 0.7181 0.4860 0.0290
H34_3 H 0.5140 0.7181 0.9710
H35 H 0.2819 0.5140 0.0290
C47 C 0.6811(7) 0.4283(7) 0.1138(9)
C48_3 C 0.5717(7) 0.6811(7) 0.8862(9)
C49 C 0.3189(7) 0.5717(7) 0.1138(9)
H36 H 0.6722 0.4032 0.0638
H37_3 H 0.5968 0.6722 0.9362
H38 H 0.3278 0.5968 0.0638
C50 C 0.6668(7) 0.4158(5) 0.2076(10)
C51_3 C 0.5842(5) 0.6668(7) 0.7924(10)
C52 C 0.3332(7) 0.5842(5) 0.2076(10)
H39 H 0.6482 0.3822 0.2217
H40_3 H 0.6178 0.6482 0.7783
H41 H 0.3518 0.6178 0.2217
C53_2 C 0.5516(7) 0.6047(5) 0.1705(13)
C54_3 C 0.3953(5) 0.5516(7) 0.8295(13)
C55_2 C 0.4484(7) 0.3953(5) 0.1705(13)
C56_2 C 0.5908(5) 0.6516(5) 0.1451(12)
C57_3 C 0.3484(5) 0.5908(5) 0.8549(12)
C58_2 C 0.4092(5) 0.3484(5) 0.1451(12)
H42_2 H 0.5888 0.6589 0.0763
H43_3 H 0.3411 0.5888 0.9237
H44_2 H 0.4112 0.3411 0.0763
H45_2 H 0.6287 0.6411 0.1622
H46_3 H 0.3589 0.6287 0.8378
H47_2 H 0.3713 0.3589 0.1622
H48_2 H 0.5803 0.6849 0.1805
H49_3 H 0.3151 0.5803 0.8195
H50_2 H 0.4197 0.3151 0.1805
C59 C 0.4948(6) 0.6094(5) 0.1238(13)
C60_2 C 0.3906(5) 0.4948(6) 0.8762(13)
C61 C 0.5052(6) 0.3906(5) 0.1238(13)
H51 H 0.4734 0.6385 0.1557
H52_2 H 0.3615 0.4734 0.8443
H53 H 0.5266 0.3615 0.1557
H54 H 0.4753 0.5741 0.1297
H55_2 H 0.4259 0.4753 0.8703
H56 H 0.5247 0.4259 0.1297
H57 H 0.4992 0.6187 0.0560
H58_2 H 0.3813 0.4992 0.9440
H59 H 0.5008 0.3813 0.0560
C62_2 C 0.5791(5) 0.5481(6) 0.1521(12)
C63_3 C 0.4519(6) 0.5791(5) 0.8479(12)
C64_2 C 0.4209(5) 0.4519(6) 0.1521(12)
H60_2 H 0.6162 0.5538 0.1253
H61_3 H 0.4462 0.6162 0.8747
H62_2 H 0.3838 0.4462 0.1253
H63_2 H 0.5566 0.5269 0.1068
H64_3 H 0.4731 0.5566 0.8932
H65_2 H 0.4434 0.4731 0.1068
H66_2 H 0.5821 0.5277 0.2124
H67_3 H 0.4723 0.5821 0.7876
H68_2 H 0.4179 0.4723 0.2124
N6_4 N 0.2071(4) 0.4984(4) 0.4899(8)
C2_4 C 0.0382(3) 0.3905(4) 0.2604(4)
O1_3 O 0.0333(3) 0.3829(3) 0.1628(6)
C7_3 C 0.0537(11) 0.3329(6) 0.1388(13)
H3_3 H 0.0342 0.3041 0.1760
H4_3 H 0.0933 0.3314 0.1563
C8_3 C 0.0475(5) 0.3202(5) 0.0308(7)
S2_3 S 0.14505(15) 0.42801(14) 0.2334(3)
S3_3 S 0.07199(14) 0.64505(15) 0.2666(3)
C17_3 C 0.1236(3) 0.4923(2) 0.1849(6)
C18_3 C 0.0077(2) 0.6236(3) 0.3151(6)
C20_4 C 0.1095(4) 0.5382(3) 0.2396(4)
C23_4 C 0.0864(4) 0.4086(3) 0.3047(5)
C24_4 C 0.0914(3) 0.5864(4) 0.1953(5)
C27_4 C 0.0874(3) 0.5887(5) 0.0962(5)
C28_4 C 0.0887(5) 0.4126(3) 0.4038(5)
H19_4 H 0.0751 0.6216 0.0660
H20_4 H 0.1216 0.4249 0.4340
C30_4 C 0.1015(4) 0.5428(5) 0.0415(4)
C31_4 C 0.0428(5) 0.3985(4) 0.4585(4)
C33_3 C 0.0053(3) 0.6196(4) 0.4142(5)
C34_3 C 0.1196(4) 0.4947(3) 0.0858(5)
H22_3 H 0.0367 0.6293 0.4517
H23_3 H 0.1293 0.4633 0.0483
O4_3 O 0.1171(3) 0.5333(3) 0.3372(6)
C37_3 C 0.1671(6) 0.5537(11) 0.3612(13)
H26_3 H 0.1959 0.5342 0.3240
H29_3 H 0.1686 0.5933 0.3437
C40_3 C 0.1798(5) 0.5475(5) 0.4692(7)
C43_3 C 0.2214(5) 0.4859(5) 0.5837(9)
H32_3 H 0.2400 0.4523 0.5979
C46_2 C 0.2084(6) 0.5225(7) 0.6569(7)
H35_2 H 0.2181 0.5140 0.7210
C49_2 C 0.1811(7) 0.5717(7) 0.6362(9)
H38_2 H 0.1722 0.5968 0.6862
C52_2 C 0.1668(7) 0.5842(5) 0.5424(10)
H41_2 H 0.1482 0.6178 0.5283
C55_3 C 0.0516(7) 0.3953(5) 0.5795(13)
C58_3 C 0.0908(5) 0.3484(5) 0.6049(12)
H44_3 H 0.0888 0.3411 0.6737
H47_3 H 0.1287 0.3589 0.5878
H50_3 H 0.0803 0.3151 0.5695
C59_2 C 0.0052(6) 0.6094(5) 0.6262(13)
H51_2 H 0.0266 0.6385 0.5943
H54_2 H 0.0247 0.5741 0.6203
H57_2 H 0.0008 0.6187 0.6940
C64_3 C 0.0791(5) 0.4519(6) 0.5979(12)
H62_3 H 0.1162 0.4462 0.6247
H65_3 H 0.0566 0.4731 0.6432
H68_3 H 0.0821 0.4723 0.5376
S1_3 S 0.92801(14) 0.35495(15) 0.2666(3)
C1_3 C 0.9923(2) 0.3764(3) 0.3151(6)
C3_4 C 0.9086(3) 0.4136(4) 0.1953(5)
C4_4 C 0.9126(3) 0.4113(5) 0.0962(5)
H1_4 H 0.9249 0.3784 0.0660
C5_4 C 0.8985(4) 0.4572(5) 0.0415(4)
C6_3 C 0.9947(3) 0.3804(4) 0.4142(5)
H2_3 H 0.9633 0.3707 0.4517
S4_4 S 0.85495(15) 0.57199(14) 0.2334(3)
C19_4 C 0.8764(3) 0.5077(2) 0.1849(6)
C21_4 C 0.9618(3) 0.6095(4) 0.2604(4)
C22_4 C 0.8905(4) 0.4618(3) 0.2396(4)
C25_4 C 0.9136(4) 0.5914(3) 0.3047(5)
C26_4 C 0.9113(5) 0.5874(3) 0.4038(5)
H18_4 H 0.8784 0.5751 0.4340
C29_4 C 0.9572(5) 0.6015(4) 0.4585(4)
C32_4 C 0.8804(4) 0.5053(3) 0.0858(5)
H21_4 H 0.8707 0.5367 0.0483
O2_3 O 0.8829(3) 0.4667(3) 0.3372(6)
O3_4 O 0.9667(3) 0.6171(3) 0.1628(6)
C35_3 C 0.8329(6) 0.4463(11) 0.3612(13)
C36_4 C 0.9463(11) 0.6671(6) 0.1388(13)
H24_3 H 0.8041 0.4658 0.3240
H25_4 H 0.9658 0.6959 0.1760
H27_3 H 0.8314 0.4067 0.3437
H28_4 H 0.9067 0.6686 0.1563
C38_3 C 0.8202(5) 0.4525(5) 0.4692(7)
C39_4 C 0.9525(5) 0.6798(5) 0.0308(7)
C41_3 C 0.7786(5) 0.5141(5) 0.5837(9)
H30_3 H 0.7600 0.5477 0.5979
C44_2 C 0.7916(6) 0.4775(7) 0.6569(7)
H33_2 H 0.7819 0.4860 0.7210
C47_2 C 0.8189(7) 0.4283(7) 0.6362(9)
H36_2 H 0.8278 0.4032 0.6862
C50_2 C 0.8332(7) 0.4158(5) 0.5424(10)
H39_2 H 0.8518 0.3822 0.5283
C53_3 C 0.9484(7) 0.6047(5) 0.5795(13)
C56_3 C 0.9092(5) 0.6516(5) 0.6049(12)
H42_3 H 0.9112 0.6589 0.6737
H45_3 H 0.8713 0.6411 0.5878
H48_3 H 0.9197 0.6849 0.5695
C61_2 C 0.9948(6) 0.3906(5) 0.6262(13)
H53_2 H 0.9734 0.3615 0.5943
H56_2 H 0.9753 0.4259 0.6203
H59_2 H 0.9992 0.3813 0.6940
C62_3 C 0.9209(5) 0.5481(6) 0.5979(12)
H60_3 H 0.8838 0.5538 0.6247
H63_3 H 0.9434 0.5269 0.6432
H66_3 H 0.9179 0.5277 0.5376
S1_4 S 0.07199(14) 0.85495(15) 0.9834(3)
C1_4 C 0.0077(2) 0.8764(3) 0.9349(6)
C6_4 C 0.0053(3) 0.8804(4) 0.8358(5)
H2_4 H 0.0367 0.8707 0.7983
O2_4 O 0.1171(3) 0.9667(3) 0.9128(6)
C35_4 C 0.1671(6) 0.9463(11) 0.8888(13)
H24_4 H 0.1959 0.9658 0.9260
H27_4 H 0.1686 0.9067 0.9063
C38_4 C 0.1798(5) 0.9525(5) 0.7808(7)
C44_3 C 0.2084(6) 0.9775(7) 0.5931(7)
H33_3 H 0.2181 0.9860 0.5290
C47_3 C 0.1811(7) 0.9283(7) 0.6138(9)
H36_3 H 0.1722 0.9032 0.5638
C50_3 C 0.1668(7) 0.9158(5) 0.7076(10)
H39_3 H 0.1482 0.8822 0.7217
C61_3 C 0.0052(6) 0.8906(5) 0.6238(13)
H53_3 H 0.0266 0.8615 0.6557
H56_3 H 0.0247 0.9259 0.6297
H59_3 H 0.0008 0.8813 0.5560
S3_4 S 0.92801(14) 0.14505(15) 0.9834(3)
C18_4 C 0.9923(2) 0.1236(3) 0.9349(6)
C33_4 C 0.9947(3) 0.1196(4) 0.8358(5)
H22_4 H 0.9633 0.1293 0.7983
O4_4 O 0.8829(3) 0.0333(3) 0.9128(6)
C37_4 C 0.8329(6) 0.0537(11) 0.8888(13)
H26_4 H 0.8041 0.0342 0.9260
H29_4 H 0.8314 0.0933 0.9063
C40_4 C 0.8202(5) 0.0475(5) 0.7808(7)
C46_3 C 0.7916(6) 0.0225(7) 0.5931(7)
H35_3 H 0.7819 0.0140 0.5290
C49_3 C 0.8189(7) 0.0717(7) 0.6138(9)
H38_3 H 0.8278 0.0968 0.5638
C52_3 C 0.8332(7) 0.0842(5) 0.7076(10)
H41_3 H 0.8518 0.1178 0.7217
C59_3 C 0.9948(6) 0.1094(5) 0.6238(13)
H51_3 H 0.9734 0.1385 0.6557
H54_3 H 0.9753 0.0741 0.6297
H57_3 H 0.9992 0.1187 0.5560
O1_4 O 0.9667(3) 0.8829(3) 0.0872(6)
C7_4 C 0.9463(11) 0.8329(6) 0.1112(13)
H3_4 H 0.9658 0.8041 0.0740
H4_4 H 0.9067 0.8314 0.0937
C8_4 C 0.9525(5) 0.8202(5) 0.2192(7)
C10_3 C 0.9775(7) 0.7916(6) 0.4069(7)
H6_3 H 0.9860 0.7819 0.4710
C11_3 C 0.9283(7) 0.8189(7) 0.3862(9)
H7_3 H 0.9032 0.8278 0.4362
C12_3 C 0.9158(5) 0.8332(7) 0.2924(10)
H8_3 H 0.8822 0.8518 0.2783
S2_4 S 0.85495(15) 0.92801(14) 0.0166(3)
C17_4 C 0.8764(3) 0.9923(2) 0.0651(6)
C34_4 C 0.8804(4) 0.9947(3) 0.1642(5)
H23_4 H 0.8707 0.9633 0.2017
C60_3 C 0.8906(5) 0.9948(6) 0.3762(13)
H52_3 H 0.8615 0.9734 0.3443
H55_3 H 0.9259 0.9753 0.3703
H58_3 H 0.8813 0.9992 0.4440
C41_4 C 0.2786(5) 0.0141(5) 0.0837(9)
H30_4 H 0.2600 0.0477 0.0979
C46_4 C 0.7084(6) 0.0225(7) 0.1569(7)
H35_4 H 0.7181 0.0140 0.2210
C49_4 C 0.6811(7) 0.0717(7) 0.1362(9)
H38_4 H 0.6722 0.0968 0.1862
C52_4 C 0.6668(7) 0.0842(5) 0.0424(10)
H41_4 H 0.6482 0.1178 0.0283
C53_4 C 0.4484(7) 0.1047(5) 0.0795(13)
C56_4 C 0.4092(5) 0.1516(5) 0.1049(12)
H42_4 H 0.4112 0.1589 0.1737
H45_4 H 0.3713 0.1411 0.0878
H48_4 H 0.4197 0.1849 0.0695
C59_4 C 0.5052(6) 0.1094(5) 0.1262(13)
H51_4 H 0.5266 0.1385 0.0943
H54_4 H 0.5247 0.0741 0.1203
H57_4 H 0.5008 0.1187 0.1940
C62_4 C 0.4209(5) 0.0481(6) 0.0979(12)
H60_4 H 0.3838 0.0538 0.1247
H63_4 H 0.4434 0.0269 0.1432
H66_4 H 0.4179 0.0277 0.0376
C43_4 C 0.7214(5) 0.9859(5) 0.0837(9)
H32_4 H 0.7400 0.9523 0.0979
C44_4 C 0.2916(6) 0.9775(7) 0.1569(7)
H33_4 H 0.2819 0.9860 0.2210
C47_4 C 0.3189(7) 0.9283(7) 0.1362(9)
H36_4 H 0.3278 0.9032 0.1862
C50_4 C 0.3332(7) 0.9158(5) 0.0424(10)
H39_4 H 0.3518 0.8822 0.0283
C55_4 C 0.5516(7) 0.8953(5) 0.0795(13)
C58_4 C 0.5908(5) 0.8484(5) 0.1049(12)
H44_4 H 0.5888 0.8411 0.1737
H47_4 H 0.6287 0.8589 0.0878
H50_4 H 0.5803 0.8151 0.0695
C61_4 C 0.4948(6) 0.8906(5) 0.1262(13)
H53_4 H 0.4734 0.8615 0.0943
H56_4 H 0.4753 0.9259 0.1203
H59_4 H 0.4992 0.8813 0.1940
C64_4 C 0.5791(5) 0.9519(6) 0.0979(12)
H62_4 H 0.6162 0.9462 0.1247
H65_4 H 0.5566 0.9731 0.1432
H68_4 H 0.5821 0.9723 0.0376
C10_4 C 0.0225(7) 0.2916(6) 0.8431(7)
H6_4 H 0.0140 0.2819 0.7790
C11_4 C 0.0717(7) 0.3189(7) 0.8638(9)
H7_4 H 0.0968 0.3278 0.8138
C12_4 C 0.0842(5) 0.3332(7) 0.9576(10)
H8_4 H 0.1178 0.3518 0.9717
C42_4 C 0.0141(5) 0.7214(5) 0.9163(9)
H31_4 H 0.0477 0.7400 0.9021
C54_4 C 0.1047(5) 0.5516(7) 0.9205(13)
C57_4 C 0.1516(5) 0.5908(5) 0.8951(12)
H43_4 H 0.1589 0.5888 0.8263
H46_4 H 0.1411 0.6287 0.9122
H49_4 H 0.1849 0.5803 0.9305
C60_4 C 0.1094(5) 0.4948(6) 0.8738(13)
H52_4 H 0.1385 0.4734 0.9057
H55_4 H 0.0741 0.4753 0.8797
H58_4 H 0.1187 0.4992 0.8060
C63_4 C 0.0481(6) 0.5791(5) 0.9021(12)
H61_4 H 0.0538 0.6162 0.8753
H64_4 H 0.0269 0.5566 0.8568
H67_4 H 0.0277 0.5821 0.9624
C9_4 C 0.9859(5) 0.2786(5) 0.9163(9)
H5_4 H 0.9523 0.2600 0.9021
C13_4 C 0.8953(5) 0.4484(7) 0.9205(13)
C14_4 C 0.8484(5) 0.4092(5) 0.8951(12)
H9_4 H 0.8411 0.4112 0.8263
H10_4 H 0.8589 0.3713 0.9122
H11_4 H 0.8151 0.4197 0.9305
C15_4 C 0.8906(5) 0.5052(6) 0.8738(13)
H12_4 H 0.8615 0.5266 0.9057
H13_4 H 0.9259 0.5247 0.8797
H14_4 H 0.8813 0.5008 0.8060
C16_4 C 0.9519(6) 0.4209(5) 0.9021(12)
H15_4 H 0.9462 0.3838 0.8753
H16_4 H 0.9731 0.4434 0.8568
H17_4 H 0.9723 0.4179 0.9624
C45_4 C 0.9775(7) 0.7084(6) 0.8431(7)
H34_4 H 0.9860 0.7181 0.7790
C48_4 C 0.9283(7) 0.6811(7) 0.8638(9)
H37_4 H 0.9032 0.6722 0.8138
C51_4 C 0.9158(5) 0.6668(7) 0.9576(10)
H40_4 H 0.8822 0.6482 0.9717
Sb1 Sb 0.2500 0.38500(9) 0.8750
F1 F 0.2500 0.3056(8) 0.8750
F2 F 0.2068(6) 0.3925(7) 0.9854(10)
F3 F 0.2500 0.4656(8) 0.8750
F4 F 0.3159(7) 0.3819(10) 0.9483(15)
F5 F 0.2932(6) 0.3925(7) 0.7646(10)
F6 F 0.1841(7) 0.3819(10) 0.8017(15)
Sb1_2 Sb 0.7500 0.61500(9) 0.8750
F1_2 F 0.7500 0.6944(8) 0.8750
F2_2 F 0.7932(6) 0.6075(7) 0.9854(10)
F3_2 F 0.7500 0.5344(8) 0.8750
F4_2 F 0.6841(7) 0.6181(10) 0.9483(15)
F5_2 F 0.7068(6) 0.6075(7) 0.7646(10)
F6_2 F 0.8159(7) 0.6181(10) 0.8017(15)
Sb1_3 Sb 0.38500(9) 0.7500 0.1250
F1_3 F 0.3056(8) 0.7500 0.1250
F2_3 F 0.3925(7) 0.7932(6) 0.0146(10)
F3_3 F 0.4656(8) 0.7500 0.1250
F4_3 F 0.3819(10) 0.6841(7) 0.0517(15)
F5_3 F 0.3925(7) 0.7068(6) 0.2354(10)
F6_3 F 0.3819(10) 0.8159(7) 0.1983(15)
Sb1_4 Sb 0.61500(9) 0.2500 0.1250
F1_4 F 0.6944(8) 0.2500 0.1250
F2_4 F 0.6075(7) 0.2068(6) 0.0146(10)
F3_4 F 0.5344(8) 0.2500 0.1250
F4_4 F 0.6181(10) 0.3159(7) 0.0517(15)
F5_4 F 0.6075(7) 0.2932(6) 0.2354(10)
F6_4 F 0.6181(10) 0.1841(7) 0.1983(15)
Sb1_5 Sb 0.11500(9) 0.7500 0.6250
F1_5 F 0.1944(8) 0.7500 0.6250
F2_5 F 0.1075(7) 0.7932(6) 0.7354(10)
F3_5 F 0.0344(8) 0.7500 0.6250
F4_5 F 0.1181(10) 0.6841(7) 0.6983(15)
F5_5 F 0.1075(7) 0.7068(6) 0.5146(10)
F6_5 F 0.1181(10) 0.8159(7) 0.5517(15)
Sb1_6 Sb 0.88500(9) 0.2500 0.6250
F1_6 F 0.8056(8) 0.2500 0.6250
F2_6 F 0.8925(7) 0.2068(6) 0.7354(10)
F3_6 F 0.9656(8) 0.2500 0.6250
F4_6 F 0.8819(10) 0.3159(7) 0.6983(15)
F5_6 F 0.8925(7) 0.2932(6) 0.5146(10)
F6_6 F 0.8819(10) 0.1841(7) 0.5517(15)
Sb1_7 Sb 0.7500 0.88500(9) 0.3750
F1_7 F 0.7500 0.8056(8) 0.3750
F2_7 F 0.7068(6) 0.8925(7) 0.4854(10)
F3_7 F 0.7500 0.9656(8) 0.3750
F4_7 F 0.8159(7) 0.8819(10) 0.4483(15)
F5_7 F 0.7932(6) 0.8925(7) 0.2646(10)
F6_7 F 0.6841(7) 0.8819(10) 0.3017(15)
Sb1_8 Sb 0.2500 0.11500(9) 0.3750
F1_8 F 0.2500 0.1944(8) 0.3750
F2_8 F 0.2932(6) 0.1075(7) 0.4854(10)
F3_8 F 0.2500 0.0344(8) 0.3750
F4_8 F 0.1841(7) 0.1181(10) 0.4483(15)
F5_8 F 0.2068(6) 0.1075(7) 0.2646(10)
F6_8 F 0.3159(7) 0.1181(10) 0.3017(15)
loop_
_geom_bond_atom_site_label_1
_geom_bond_atom_site_label_2
_geom_bond_site_symmetry_1
_geom_bond_site_symmetry_2
H12 C15 1_555 1_555
H13 C15 1_555 1_555
H14 C15 1_555 1_555
S4 C19 1_555 1_555
H21 C32 1_555 1_555
C36 O3 1_555 1_555
H25 C36 1_555 1_555
H28 C36 1_555 1_555
C39 C36 1_555 1_555
H34 C45 1_555 1_555
C48 C45 1_555 1_555
H37 C48 1_555 1_555
C51 C39 1_555 1_555
H40 C51 1_555 1_555
C19 C32 1_555 1_555
C48 C51 1_555 1_555
Ag2 N2 1_555 1_555
C21 C25 1_555 1_555
C26 C25 1_555 1_555
H18 C26 1_555 1_555
C29 C26 1_555 1_555
N6 Ag2 1_555 1_555
C41 N2 1_555 1_555
H30 C41 1_555 1_555
C53 C29 1_555 1_555
C56 C53 1_555 1_555
H42 C56 1_555 1_555
H45 C56 1_555 1_555
H48 C56 1_555 1_555
C62 C53 1_555 1_555
H60 C62 1_555 1_555
H63 C62 1_555 1_555
H66 C62 1_555 1_555
Ag1 N1 1_555 1_555
C4 C3 1_555 1_555
H1 C4 1_555 1_555
C5 C4 1_555 1_555
C9 N1 1_555 1_555
H5 C9 1_555 1_555
C13 C5 1_555 1_555
C14 C13 1_555 1_555
H9 C14 1_555 1_555
H10 C14 1_555 1_555
H11 C14 1_555 1_555
C16 C13 1_555 1_555
H15 C16 1_555 1_555
H16 C16 1_555 1_555
H17 C16 1_555 1_555
C22 C3 1_555 1_555
N5 Ag1 1_555 1_555
Ag3 N3 1_555 1_555
C20 C24 1_555 1_555
C27 C24 1_555 1_555
H19 C27 1_555 1_555
C30 C27 1_555 1_555
C42 N3 1_555 1_555
H31 C42 1_555 1_555
C54 C30 1_555 1_555
C57 C54 1_555 1_555
H43 C57 1_555 1_555
H46 C57 1_555 1_555
H49 C57 1_555 1_555
C63 C54 1_555 1_555
H61 C63 1_555 1_555
H64 C63 1_555 1_555
H67 C63 1_555 1_555
Ag4 N4 1_555 1_555
C23 C2 1_555 1_555
C28 C23 1_555 1_555
H20 C28 1_555 1_555
C43 N4 1_555 1_555
H32 C43 1_555 1_555
C55 C31 1_555 1_555
C58 C55 1_555 1_555
H44 C58 1_555 1_555
H47 C58 1_555 1_555
H50 C58 1_555 1_555
C64 C55 1_555 1_555
H62 C64 1_555 1_555
H65 C64 1_555 1_555
H68 C64 1_555 1_555
C28 C31 1_555 1_555
N5_2 Ag3 1_555 1_555
N6_2 Ag4 1_555 1_555
H12_2 C15_2 1_555 1_555
H13_2 C15_2 1_555 1_555
H14_2 C15_2 1_555 1_555
Ag3_2 N3_2 1_555 1_555
S3 C18 1_555 1_555
S4_2 C19_2 1_555 1_555
C18 C21_2 1_555 1_555
C20_2 C24_2 1_555 1_555
C21_2 C25_2 1_555 1_555
C24_2 S3 1_555 1_555
C25_2 S4_2 1_555 1_555
C26_2 C25_2 1_555 1_555
C27_2 C24_2 1_555 1_555
H18_2 C26_2 1_555 1_555
H19_2 C27_2 1_555 1_555
C29_2 C26_2 1_555 1_555
C30_2 C27_2 1_555 1_555
C33 C18 1_555 1_555
H21_2 C32_2 1_555 1_555
H22 C33 1_555 1_555
O3_2 C21_2 1_555 1_555
O4 C20_2 1_555 1_555
C36_2 O3_2 1_555 1_555
C37 O4 1_555 1_555
H25_2 C36_2 1_555 1_555
H26 C37 1_555 1_555
H28_2 C36_2 1_555 1_555
H29 C37 1_555 1_555
C39_2 C36_2 1_555 1_555
C40 C37 1_555 1_555
N3_2 C39_2 1_555 1_555
C42_2 N3_2 1_555 1_555
H31_2 C42_2 1_555 1_555
C45_2 C42_2 1_555 1_555
H34_2 C45_2 1_555 1_555
C48_2 C45_2 1_555 1_555
H37_2 C48_2 1_555 1_555
C51_2 C39_2 1_555 1_555
H40_2 C51_2 1_555 1_555
C54_2 C30_2 1_555 1_555
C57_2 C54_2 1_555 1_555
H43_2 C57_2 1_555 1_555
H46_2 C57_2 1_555 1_555
H49_2 C57_2 1_555 1_555
C63_2 C54_2 1_555 1_555
H61_2 C63_2 1_555 1_555
H64_2 C63_2 1_555 1_555
H67_2 C63_2 1_555 1_555
C19_2 C32_2 1_555 1_555
C29_2 C33 1_555 1_555
C48_2 C51_2 1_555 1_555
Ag1_2 N1_2 1_555 1_555
S1 C1 1_555 1_555
C1 C2_2 1_555 1_555
C2_2 O1 1_555 1_555
C3_2 S1 1_555 1_555
C4_2 C3_2 1_555 1_555
H1_2 C4_2 1_555 1_555
C5_2 C4_2 1_555 1_555
C6 C1 1_555 1_555
H2 C6 1_555 1_555
O1 C7 1_555 1_555
C7 H3 1_555 1_555
H4 C7 1_555 1_555
C8 C7 1_555 1_555
N1_2 C8 1_555 1_555
C9_2 N1_2 1_555 1_555
H5_2 C9_2 1_555 1_555
C10 C9_2 1_555 1_555
H6 C10 1_555 1_555
C11 C10 1_555 1_555
H7 C11 1_555 1_555
C12 C8 1_555 1_555
H8 C12 1_555 1_555
C13_2 C5_2 1_555 1_555
C14_2 C13_2 1_555 1_555
H9_2 C14_2 1_555 1_555
H10_2 C14_2 1_555 1_555
H11_2 C14_2 1_555 1_555
C16_2 C13_2 1_555 1_555
H15_2 C16_2 1_555 1_555
H16_2 C16_2 1_555 1_555
H17_2 C16_2 1_555 1_555
S2 C17 1_555 1_555
C22_2 C3_2 1_555 1_555
C23_2 C2_2 1_555 1_555
C28_2 C23_2 1_555 1_555
H20_2 C28_2 1_555 1_555
C31_2 C6 1_555 1_555
C34 C17 1_555 1_555
H23 C34 1_555 1_555
O2 C22_2 1_555 1_555
C35 O2 1_555 1_555
H24 C35 1_555 1_555
H27 C35 1_555 1_555
C38 C35 1_555 1_555
N5_3 Ag1_2 1_555 1_555
H52 C60 1_555 1_555
H55 C60 1_555 1_555
H58 C60 1_555 1_555
C11 C12 1_555 1_555
S2 C23_2 1_555 1_555
C28_2 C31_2 1_555 1_555
N5_4 Ag3_2 1_555 1_555
S1_2 C1_2 1_555 1_555
C1_2 C2_3 1_555 1_555
C2_3 O1_2 1_555 1_555
C3_3 S1_2 1_555 1_555
C4_3 C3_3 1_555 1_555
H1_3 C4_3 1_555 1_555
C5_3 C4_3 1_555 1_555
C6_2 C1_2 1_555 1_555
H2_2 C6_2 1_555 1_555
O1_2 C7_2 1_555 1_555
C7_2 H3_2 1_555 1_555
H4_2 C7_2 1_555 1_555
C8_2 C7_2 1_555 1_555
N5_4 C8_2 1_555 1_555
C9_3 N5_4 1_555 1_555
H5_3 C9_3 1_555 1_555
C10_2 C9_3 1_555 1_555
H6_2 C10_2 1_555 1_555
C11_2 C10_2 1_555 1_555
H7_2 C11_2 1_555 1_555
C12_2 C8_2 1_555 1_555
H8_2 C12_2 1_555 1_555
C13_3 C5_3 1_555 1_555
C14_3 C13_3 1_555 1_555
H9_3 C14_3 1_555 1_555
H10_3 C14_3 1_555 1_555
H11_3 C14_3 1_555 1_555
C15_3 C13_3 1_555 1_555
H12_3 C15_3 1_555 1_555
H13_3 C15_3 1_555 1_555
H14_3 C15_3 1_555 1_555
C16_3 C13_3 1_555 1_555
H15_3 C16_3 1_555 1_555
H16_3 C16_3 1_555 1_555
H17_3 C16_3 1_555 1_555
Ag2_2 N2_2 1_555 1_555
Ag4_2 N4_2 1_555 1_555
S2_2 C17_2 1_555 1_555
S3_2 C18_2 1_555 1_555
S4_3 C19_3 1_555 1_555
C17_2 C20_3 1_555 1_555
C18_2 C21_3 1_555 1_555
C19_3 C22_3 1_555 1_555
C20_3 C24_3 1_555 1_555
C21_3 C25_3 1_555 1_555
C22_3 C3_3 1_555 1_555
C23_3 C2_3 1_555 1_555
C24_3 S3_2 1_555 1_555
C25_3 S4_3 1_555 1_555
C26_3 C25_3 1_555 1_555
C27_3 C24_3 1_555 1_555
C28_3 C23_3 1_555 1_555
H18_3 C26_3 1_555 1_555
H19_3 C27_3 1_555 1_555
H20_3 C28_3 1_555 1_555
C29_3 C26_3 1_555 1_555
C30_3 C27_3 1_555 1_555
C31_3 C6_2 1_555 1_555
C32_3 C5_3 1_555 1_555
C33_2 C18_2 1_555 1_555
C34_2 C17_2 1_555 1_555
H21_3 C32_3 1_555 1_555
H22_2 C33_2 1_555 1_555
H23_2 C34_2 1_555 1_555
O2_2 C22_3 1_555 1_555
O3_3 C21_3 1_555 1_555
O4_2 C20_3 1_555 1_555
C35_2 O2_2 1_555 1_555
C36_3 O3_3 1_555 1_555
C37_2 O4_2 1_555 1_555
H24_2 C35_2 1_555 1_555
H25_3 C36_3 1_555 1_555
H26_2 C37_2 1_555 1_555
H27_2 C35_2 1_555 1_555
H28_3 C36_3 1_555 1_555
H29_2 C37_2 1_555 1_555
C38_2 C35_2 1_555 1_555
C39_3 C36_3 1_555 1_555
C40_2 C37_2 1_555 1_555
N2_2 C38_2 1_555 1_555
N5_3 C39_3 1_555 1_555
N4_2 C40_2 1_555 1_555
N6_3 Ag2_2 1_555 1_555
C41_2 N2_2 1_555 1_555
C42_3 N5_3 1_555 1_555
C43_2 N4_2 1_555 1_555
H30_2 C41_2 1_555 1_555
H31_3 C42_3 1_555 1_555
H32_2 C43_2 1_555 1_555
C44 C41_2 1_555 1_555
C45_3 C42_3 1_555 1_555
C46 C43_2 1_555 1_555
H33 C44 1_555 1_555
H34_3 C45_3 1_555 1_555
H35 C46 1_555 1_555
C47 C44 1_555 1_555
C48_3 C45_3 1_555 1_555
C49 C46 1_555 1_555
H36 C47 1_555 1_555
H37_3 C48_3 1_555 1_555
H38 C49 1_555 1_555
C50 C38_2 1_555 1_555
C51_3 C39_3 1_555 1_555
C52 C40_2 1_555 1_555
H39 C50 1_555 1_555
H40_3 C51_3 1_555 1_555
H41 C52 1_555 1_555
C53_2 C29_3 1_555 1_555
C54_3 C30_3 1_555 1_555
C55_2 C31_3 1_555 1_555
C56_2 C53_2 1_555 1_555
C57_3 C54_3 1_555 1_555
C58_2 C55_2 1_555 1_555
H42_2 C56_2 1_555 1_555
H43_3 C57_3 1_555 1_555
H44_2 C58_2 1_555 1_555
H45_2 C56_2 1_555 1_555
H46_3 C57_3 1_555 1_555
H47_2 C58_2 1_555 1_555
H48_2 C56_2 1_555 1_555
H49_3 C57_3 1_555 1_555
H50_2 C58_2 1_555 1_555
C59 C53_2 1_555 1_555
C60_2 C54_3 1_555 1_555
C61 C55_2 1_555 1_555
H51 C59 1_555 1_555
H52_2 C60_2 1_555 1_555
H53 C61 1_555 1_555
H54 C59 1_555 1_555
H55_2 C60_2 1_555 1_555
H56 C61 1_555 1_555
H57 C59 1_555 1_555
H58_2 C60_2 1_555 1_555
H59 C61 1_555 1_555
C62_2 C53_2 1_555 1_555
C63_3 C54_3 1_555 1_555
C64_2 C55_2 1_555 1_555
H60_2 C62_2 1_555 1_555
H61_3 C63_3 1_555 1_555
H62_2 C64_2 1_555 1_555
H63_2 C62_2 1_555 1_555
H64_3 C63_3 1_555 1_555
H65_2 C64_2 1_555 1_555
H66_2 C62_2 1_555 1_555
H67_3 C63_3 1_555 1_555
H68_2 C64_2 1_555 1_555
C11_2 C12_2 1_555 1_555
S2_2 C23_3 1_555 1_555
C19_3 C32_3 1_555 1_555
C28_3 C31_3 1_555 1_555
C29_3 C33_2 1_555 1_555
C30_3 C34_2 1_555 1_555
C47 C50 1_555 1_555
C48_3 C51_3 1_555 1_555
C49 C52 1_555 1_555
N6_4 Ag4_2 1_555 1_555
C2_4 O1_3 1_555 1_555
O1_3 C7_3 1_555 1_555
C7_3 H3_3 1_555 1_555
H4_3 C7_3 1_555 1_555
C8_3 C7_3 1_555 1_555
S2_3 C17_3 1_555 1_555
S3_3 C18_3 1_555 1_555
C17_3 C20_4 1_555 1_555
C20_4 C24_4 1_555 1_555
C23_4 C2_4 1_555 1_555
C24_4 S3_3 1_555 1_555
C27_4 C24_4 1_555 1_555
C28_4 C23_4 1_555 1_555
H19_4 C27_4 1_555 1_555
H20_4 C28_4 1_555 1_555
C30_4 C27_4 1_555 1_555
C33_3 C18_3 1_555 1_555
C34_3 C17_3 1_555 1_555
H22_3 C33_3 1_555 1_555
H23_3 C34_3 1_555 1_555
O4_3 C20_4 1_555 1_555
C37_3 O4_3 1_555 1_555
H26_3 C37_3 1_555 1_555
H29_3 C37_3 1_555 1_555
C40_3 C37_3 1_555 1_555
N6_4 C40_3 1_555 1_555
C43_3 N6_4 1_555 1_555
H32_3 C43_3 1_555 1_555
C46_2 C43_3 1_555 1_555
H35_2 C46_2 1_555 1_555
C49_2 C46_2 1_555 1_555
H38_2 C49_2 1_555 1_555
C52_2 C40_3 1_555 1_555
H41_2 C52_2 1_555 1_555
C55_3 C31_4 1_555 1_555
C58_3 C55_3 1_555 1_555
H44_3 C58_3 1_555 1_555
H47_3 C58_3 1_555 1_555
H50_3 C58_3 1_555 1_555
H51_2 C59_2 1_555 1_555
H54_2 C59_2 1_555 1_555
H57_2 C59_2 1_555 1_555
C64_3 C55_3 1_555 1_555
H62_3 C64_3 1_555 1_555
H65_3 C64_3 1_555 1_555
H68_3 C64_3 1_555 1_555
S2_3 C23_4 1_555 1_555
C28_4 C31_4 1_555 1_555
C30_4 C34_3 1_555 1_555
C49_2 C52_2 1_555 1_555
S1_3 C1_3 1_555 1_555
C3_4 S1_3 1_555 1_555
C4_4 C3_4 1_555 1_555
H1_4 C4_4 1_555 1_555
C5_4 C4_4 1_555 1_555
C6_3 C1_3 1_555 1_555
H2_3 C6_3 1_555 1_555
S4_4 C19_4 1_555 1_555
C19_4 C22_4 1_555 1_555
C21_4 C25_4 1_555 1_555
C22_4 C3_4 1_555 1_555
C25_4 S4_4 1_555 1_555
C26_4 C25_4 1_555 1_555
H18_4 C26_4 1_555 1_555
C29_4 C26_4 1_555 1_555
C32_4 C5_4 1_555 1_555
H21_4 C32_4 1_555 1_555
O2_3 C22_4 1_555 1_555
O3_4 C21_4 1_555 1_555
C35_3 O2_3 1_555 1_555
C36_4 O3_4 1_555 1_555
H24_3 C35_3 1_555 1_555
H25_4 C36_4 1_555 1_555
H27_3 C35_3 1_555 1_555
H28_4 C36_4 1_555 1_555
C38_3 C35_3 1_555 1_555
C39_4 C36_4 1_555 1_555
N6_3 C38_3 1_555 1_555
C41_3 N6_3 1_555 1_555
H30_3 C41_3 1_555 1_555
C44_2 C41_3 1_555 1_555
H33_2 C44_2 1_555 1_555
C47_2 C44_2 1_555 1_555
H36_2 C47_2 1_555 1_555
C50_2 C38_3 1_555 1_555
H39_2 C50_2 1_555 1_555
C53_3 C29_4 1_555 1_555
C56_3 C53_3 1_555 1_555
H42_3 C56_3 1_555 1_555
H45_3 C56_3 1_555 1_555
H48_3 C56_3 1_555 1_555
H53_2 C61_2 1_555 1_555
H56_2 C61_2 1_555 1_555
H59_2 C61_2 1_555 1_555
C62_3 C53_3 1_555 1_555
H60_3 C62_3 1_555 1_555
H63_3 C62_3 1_555 1_555
H66_3 C62_3 1_555 1_555
C19_4 C32_4 1_555 1_555
C47_2 C50_2 1_555 1_555
S1_4 C1_4 1_555 1_555
C6_4 C1_4 1_555 1_555
H2_4 C6_4 1_555 1_555
C35_4 O2_4 1_555 1_555
H24_4 C35_4 1_555 1_555
H27_4 C35_4 1_555 1_555
C38_4 C35_4 1_555 1_555
H33_3 C44_3 1_555 1_555
C47_3 C44_3 1_555 1_555
H36_3 C47_3 1_555 1_555
C50_3 C38_4 1_555 1_555
H39_3 C50_3 1_555 1_555
H53_3 C61_3 1_555 1_555
H56_3 C61_3 1_555 1_555
H59_3 C61_3 1_555 1_555
C47_3 C50_3 1_555 1_555
S3_4 C18_4 1_555 1_555
C33_4 C18_4 1_555 1_555
H22_4 C33_4 1_555 1_555
C37_4 O4_4 1_555 1_555
H26_4 C37_4 1_555 1_555
H29_4 C37_4 1_555 1_555
C40_4 C37_4 1_555 1_555
H35_3 C46_3 1_555 1_555
C49_3 C46_3 1_555 1_555
H38_3 C49_3 1_555 1_555
C52_3 C40_4 1_555 1_555
H41_3 C52_3 1_555 1_555
H51_3 C59_3 1_555 1_555
H54_3 C59_3 1_555 1_555
H57_3 C59_3 1_555 1_555
C49_3 C52_3 1_555 1_555
O1_4 C7_4 1_555 1_555
C7_4 H3_4 1_555 1_555
H4_4 C7_4 1_555 1_555
C8_4 C7_4 1_555 1_555
H6_3 C10_3 1_555 1_555
C11_3 C10_3 1_555 1_555
H7_3 C11_3 1_555 1_555
C12_3 C8_4 1_555 1_555
H8_3 C12_3 1_555 1_555
S2_4 C17_4 1_555 1_555
C34_4 C17_4 1_555 1_555
H23_4 C34_4 1_555 1_555
H52_3 C60_3 1_555 1_555
H55_3 C60_3 1_555 1_555
H58_3 C60_3 1_555 1_555
C11_3 C12_3 1_555 1_555
H30_4 C41_4 1_555 1_555
H35_4 C46_4 1_555 1_555
C49_4 C46_4 1_555 1_555
H38_4 C49_4 1_555 1_555
H41_4 C52_4 1_555 1_555
C56_4 C53_4 1_555 1_555
H42_4 C56_4 1_555 1_555
H45_4 C56_4 1_555 1_555
H48_4 C56_4 1_555 1_555
C59_4 C53_4 1_555 1_555
H51_4 C59_4 1_555 1_555
H54_4 C59_4 1_555 1_555
H57_4 C59_4 1_555 1_555
C62_4 C53_4 1_555 1_555
H60_4 C62_4 1_555 1_555
H63_4 C62_4 1_555 1_555
H66_4 C62_4 1_555 1_555
C49_4 C52_4 1_555 1_555
H32_4 C43_4 1_555 1_555
H33_4 C44_4 1_555 1_555
C47_4 C44_4 1_555 1_555
H36_4 C47_4 1_555 1_555
H39_4 C50_4 1_555 1_555
C58_4 C55_4 1_555 1_555
H44_4 C58_4 1_555 1_555
H47_4 C58_4 1_555 1_555
H50_4 C58_4 1_555 1_555
C61_4 C55_4 1_555 1_555
H53_4 C61_4 1_555 1_555
H56_4 C61_4 1_555 1_555
H59_4 C61_4 1_555 1_555
C64_4 C55_4 1_555 1_555
H62_4 C64_4 1_555 1_555
H65_4 C64_4 1_555 1_555
H68_4 C64_4 1_555 1_555
C47_4 C50_4 1_555 1_555
H6_4 C10_4 1_555 1_555
C11_4 C10_4 1_555 1_555
H7_4 C11_4 1_555 1_555
H8_4 C12_4 1_555 1_555
H31_4 C42_4 1_555 1_555
C57_4 C54_4 1_555 1_555
H43_4 C57_4 1_555 1_555
H46_4 C57_4 1_555 1_555
H49_4 C57_4 1_555 1_555
C60_4 C54_4 1_555 1_555
H52_4 C60_4 1_555 1_555
H55_4 C60_4 1_555 1_555
H58_4 C60_4 1_555 1_555
C63_4 C54_4 1_555 1_555
H61_4 C63_4 1_555 1_555
H64_4 C63_4 1_555 1_555
H67_4 C63_4 1_555 1_555
C11_4 C12_4 1_555 1_555
H5_4 C9_4 1_555 1_555
C14_4 C13_4 1_555 1_555
H9_4 C14_4 1_555 1_555
H10_4 C14_4 1_555 1_555
H11_4 C14_4 1_555 1_555
C15_4 C13_4 1_555 1_555
H12_4 C15_4 1_555 1_555
H13_4 C15_4 1_555 1_555
H14_4 C15_4 1_555 1_555
C16_4 C13_4 1_555 1_555
H15_4 C16_4 1_555 1_555
H16_4 C16_4 1_555 1_555
H17_4 C16_4 1_555 1_555
H34_4 C45_4 1_555 1_555
C48_4 C45_4 1_555 1_555
H37_4 C48_4 1_555 1_555
H40_4 C51_4 1_555 1_555
C48_4 C51_4 1_555 1_555
Sb1 F1 1_555 1_555
F2 Sb1 1_555 1_555
F3 Sb1 1_555 1_555
F4 Sb1 1_555 1_555
F5 Sb1 1_555 1_555
F6 Sb1 1_555 1_555
Sb1_2 F1_2 1_555 1_555
F2_2 Sb1_2 1_555 1_555
F3_2 Sb1_2 1_555 1_555
F4_2 Sb1_2 1_555 1_555
F5_2 Sb1_2 1_555 1_555
F6_2 Sb1_2 1_555 1_555
Sb1_3 F1_3 1_555 1_555
F2_3 Sb1_3 1_555 1_555
F3_3 Sb1_3 1_555 1_555
F4_3 Sb1_3 1_555 1_555
F5_3 Sb1_3 1_555 1_555
F6_3 Sb1_3 1_555 1_555
Sb1_4 F1_4 1_555 1_555
F2_4 Sb1_4 1_555 1_555
F3_4 Sb1_4 1_555 1_555
F4_4 Sb1_4 1_555 1_555
F5_4 Sb1_4 1_555 1_555
F6_4 Sb1_4 1_555 1_555
Sb1_5 F1_5 1_555 1_555
F2_5 Sb1_5 1_555 1_555
F3_5 Sb1_5 1_555 1_555
F4_5 Sb1_5 1_555 1_555
F5_5 Sb1_5 1_555 1_555
F6_5 Sb1_5 1_555 1_555
Sb1_6 F1_6 1_555 1_555
F2_6 Sb1_6 1_555 1_555
F3_6 Sb1_6 1_555 1_555
F4_6 Sb1_6 1_555 1_555
F5_6 Sb1_6 1_555 1_555
F6_6 Sb1_6 1_555 1_555
Sb1_7 F1_7 1_555 1_555
F2_7 Sb1_7 1_555 1_555
F3_7 Sb1_7 1_555 1_555
F4_7 Sb1_7 1_555 1_555
F5_7 Sb1_7 1_555 1_555
F6_7 Sb1_7 1_555 1_555
Sb1_8 F1_8 1_555 1_555
F2_8 Sb1_8 1_555 1_555
F3_8 Sb1_8 1_555 1_555
F4_8 Sb1_8 1_555 1_555
F5_8 Sb1_8 1_555 1_555
F6_8 Sb1_8 1_555 1_555

#END
