
###############################################################################
#
# This file contains modified crystal structure data generated from the
# MOF subset of the Cambridge Structural Database (CSD) v543 
# hosted by the Cambridge Crystallographic Data Centre (CCDC).
#
# This work is licensed under the Creative Commons
# Attribution-NonCommercial-ShareAlike 4.0 International License.
# To view a copy of this license, visit
# http://creativecommons.org/licenses/by-nc-sa/4.0/
# or send a letter to
# Creative Commons, PO Box 1866, Mountain View, CA 94042, USA.
#
# CIF created using the CSD Python API on 29 September 2022
# The structure has been converted into the P1 space group
# The structure has a 3D framework
# The original CSD entry PEMGAR is in the tetragonal crystal system
# The framework has been calculated to contain at least 10.0% void space
# The void calculation uses a probe of radius 1.32A, grid spacing 0.4
# The framework is charged, counterions have been retained in the structure
#
###############################################################################

data_PEMGAR
_chemical_formula_moiety         '(C256 H272 Ag6 N16 O16 S16 6+)n'
_symmetry_cell_setting           triclinic
_symmetry_space_group_name_H-M   'P 1'
_symmetry_Int_Tables_number      1
_space_group_name_Hall           'P 1'
loop_
_symmetry_equiv_pos_site_id
_symmetry_equiv_pos_as_xyz
1 x,y,z
_cell_length_a                   23.2001(5)
_cell_length_b                   23.2001(5)
_cell_length_c                   14.3622(3)
_cell_angle_alpha                90
_cell_angle_beta                 90
_cell_angle_gamma                90
_cell_volume                     7730.38
loop_
_atom_site_label
_atom_site_type_symbol
_atom_site_fract_x
_atom_site_fract_y
_atom_site_fract_z
O1 O 0.0474(2) 0.1154(2) 0.0868(4)
C7 C 0.0784(4) 0.1643(3) 0.1191(6)
H3 H 0.0679 0.1984 0.0813
H4 H 0.1203 0.1575 0.1117
C8 C 0.0039(4) 0.2159(3) 0.3270(6)
N1 N 0.0158(3) 0.2051(3) 0.2377(5)
C9 C 0.0652(3) 0.1760(3) 0.2196(6)
C10 C 0.1028(5) 0.1575(5) 0.2900(8)
H6 H 0.1368 0.1363 0.2767
C11 C 0.0871(6) 0.1723(5) 0.3815(9)
H7 H 0.1121 0.1620 0.4312
C12 C 0.0403(6) 0.1992(4) 0.4001(7)
H8 H 0.0303 0.2078 0.4628
S2 S 0.15694(7) 0.06221(7) 0.00165(13)
H23 H 0.1418 0.0318 0.1889
N5 N 0.0158(3) 0.2949(3) 0.0123(5)
C63 C 0.1161(5) 0.0072(12) 0.3565(8)
H61 H 0.0904 0.0339 0.3238
H64 H 0.1044 0.0043 0.4219
H67 H 0.1558 0.0215 0.3530
C1 C 0.0003(3) 0.1296(3) 0.9400(5)
C2 C 0.0475(3) 0.1105(3) 0.9927(5)
C6 C 0.0011(3) 0.1288(3) 0.8443(5)
Ag4 Ag 0.2500 0.03802(4) 0.8750
C23 C 0.0948(3) 0.0877(3) 0.9416(5)
C28 C 0.0942(3) 0.0870(3) 0.8459(5)
H20 H 0.1258 0.0706 0.8132
C31 C 0.0480(3) 0.1100(3) 0.7957(5)
H32 H 0.2359 0.0307 0.6584
C55 C 0.0518(4) 0.1127(4) 0.6886(6)
C58 C 0.0772(6) 0.1730(11) 0.6613(11)
H44 H 0.0749 0.1990 0.7149
H47 H 0.0549 0.1892 0.6095
H50 H 0.1175 0.1685 0.6424
C61 C 0.0950(7) 0.0739(9) 0.6478(9)
H53 H 0.1333 0.0841 0.6712
H56 H 0.0944 0.0777 0.5798
H59 H 0.0860 0.0340 0.6650
Ag3 Ag 0.03802(4) 0.7500 0.1250
C17 C 0.1296(3) 0.9997(3) 0.0600(5)
C20 C 0.1105(3) 0.9525(3) 0.0073(5)
C24 C 0.0877(3) 0.9052(3) 0.0584(5)
C27 C 0.0870(3) 0.9058(3) 0.1541(5)
H19 H 0.0706 0.8742 0.1868
C30 C 0.1100(3) 0.9520(3) 0.2043(5)
C34 C 0.1288(3) 0.9989(3) 0.1557(5)
H31 H 0.0307 0.7641 0.3416
C54 C 0.1127(4) 0.9482(4) 0.3114(6)
C57 C 0.1730(11) 0.9228(6) 0.3387(11)
H43 H 0.1990 0.9251 0.2851
H46 H 0.1892 0.9451 0.3905
H49 H 0.1685 0.8825 0.3576
C60 C 0.0739(9) 0.9050(7) 0.3522(9)
H52 H 0.0841 0.8667 0.3288
H55 H 0.0777 0.9056 0.4202
H58 H 0.0340 0.9140 0.3350
S3 S 0.06221(7) 0.84306(7) 0.99835(13)
H22 H 0.0318 0.8582 0.8111
O4 O 0.1154(2) 0.9526(2) 0.9132(4)
C37 C 0.1643(3) 0.9216(4) 0.8809(6)
H26 H 0.1984 0.9321 0.9187
H29 H 0.1575 0.8797 0.8883
C40 C 0.2159(3) 0.9961(4) 0.6730(6)
N4 N 0.2051(3) 0.9842(3) 0.7623(5)
C43 C 0.1760(3) 0.9348(3) 0.7804(6)
C46 C 0.1575(5) 0.8972(5) 0.7100(8)
H35 H 0.1363 0.8632 0.7233
C49 C 0.1723(5) 0.9129(6) 0.6185(9)
H38 H 0.1620 0.8879 0.5688
C52 C 0.1992(4) 0.9597(6) 0.5999(7)
H41 H 0.2078 0.9697 0.5372
C62 C 0.0072(12) 0.8839(5) 0.6435(8)
H60 H 0.0339 0.9096 0.6762
H63 H 0.0043 0.8956 0.5781
H66 H 0.0215 0.8442 0.6470
Ag1 Ag 0.96198(4) 0.2500 0.1250
C3 C 0.9123(3) 0.0948(3) 0.0584(5)
C4 C 0.9130(3) 0.0942(3) 0.1541(5)
H1 H 0.9294 0.1258 0.1868
C5 C 0.8900(3) 0.0480(3) 0.2043(5)
H5 H 0.9693 0.2359 0.3416
C13 C 0.8873(4) 0.0518(4) 0.3114(6)
C14 C 0.8270(11) 0.0772(6) 0.3387(11)
H9 H 0.8010 0.0749 0.2851
H10 H 0.8108 0.0549 0.3905
H11 H 0.8315 0.1175 0.3576
C15 C 0.9261(9) 0.0950(7) 0.3522(9)
H12 H 0.9159 0.1333 0.3288
H13 H 0.9223 0.0944 0.4202
H14 H 0.9660 0.0860 0.3350
C19 C 0.8704(3) 0.0003(3) 0.0600(5)
C22 C 0.8895(3) 0.0475(3) 0.0073(5)
C32 C 0.8712(3) 0.0011(3) 0.1557(5)
S1 S 0.93779(7) 0.15694(7) 0.99835(13)
H2 H 0.9682 0.1418 0.8111
O2 O 0.8846(2) 0.0474(2) 0.9132(4)
C35 C 0.8357(3) 0.0784(4) 0.8809(6)
H24 H 0.8016 0.0679 0.9187
H27 H 0.8425 0.1203 0.8883
C38 C 0.7841(3) 0.0039(4) 0.6730(6)
N2 N 0.7949(3) 0.0158(3) 0.7623(5)
N6 N 0.7051(3) 0.0158(3) 0.9877(5)
C41 C 0.8240(3) 0.0652(3) 0.7804(6)
C44 C 0.8425(5) 0.1028(5) 0.7100(8)
H33 H 0.8637 0.1368 0.7233
C47 C 0.8277(5) 0.0871(6) 0.6185(9)
H36 H 0.8380 0.1121 0.5688
C50 C 0.8008(4) 0.0403(6) 0.5999(7)
H39 H 0.7922 0.0303 0.5372
C64 C 0.9928(12) 0.1161(5) 0.6435(8)
H62 H 0.9661 0.0904 0.6762
H65 H 0.9957 0.1044 0.5781
H68 H 0.9785 0.1558 0.6470
C16 C 0.8839(5) 0.9928(12) 0.3565(8)
H15 H 0.9096 0.9661 0.3238
H16 H 0.8956 0.9957 0.4219
H17 H 0.8442 0.9785 0.3530
S4 S 0.84306(7) 0.93779(7) 0.00165(13)
H21 H 0.8582 0.9682 0.1889
O3 O 0.9526(2) 0.8846(2) 0.0868(4)
C36 C 0.9216(4) 0.8357(3) 0.1191(6)
H25 H 0.9321 0.8016 0.0813
H28 H 0.8797 0.8425 0.1117
C39 C 0.9961(4) 0.7841(3) 0.3270(6)
N3 N 0.9842(3) 0.7949(3) 0.2377(5)
C42 C 0.9348(3) 0.8240(3) 0.2196(6)
C45 C 0.8972(5) 0.8425(5) 0.2900(8)
H34 H 0.8632 0.8637 0.2767
C48 C 0.9129(6) 0.8277(5) 0.3815(9)
H37 H 0.8879 0.8380 0.4312
C51 C 0.9597(6) 0.8008(4) 0.4001(7)
H40 H 0.9697 0.7922 0.4628
Ag2 Ag 0.7500 0.96198(4) 0.8750
C18 C 0.9997(3) 0.8704(3) 0.9400(5)
C21 C 0.9525(3) 0.8895(3) 0.9927(5)
C25 C 0.9052(3) 0.9123(3) 0.9416(5)
C26 C 0.9058(3) 0.9130(3) 0.8459(5)
H18 H 0.8742 0.9294 0.8132
C29 C 0.9520(3) 0.8900(3) 0.7957(5)
C33 C 0.9989(3) 0.8712(3) 0.8443(5)
H30 H 0.7641 0.9693 0.6584
C53 C 0.9482(4) 0.8873(4) 0.6886(6)
C56 C 0.9228(6) 0.8270(11) 0.6613(11)
H42 H 0.9251 0.8010 0.7149
H45 H 0.9451 0.8108 0.6095
H48 H 0.8825 0.8315 0.6424
C59 C 0.9050(7) 0.9261(9) 0.6478(9)
H51 H 0.8667 0.9159 0.6712
H54 H 0.9056 0.9223 0.5798
H57 H 0.9140 0.9660 0.6650
N6_2 N 0.2949(3) 0.9842(3) 0.9877(5)
N5_2 N 0.9842(3) 0.7051(3) 0.0123(5)
Ag1_2 Ag 0.53802(4) 0.2500 0.6250
S1_2 S 0.56221(7) 0.15694(7) 0.75165(13)
C1_2 C 0.4997(3) 0.1296(3) 0.8100(5)
C2_2 C 0.4525(3) 0.1105(3) 0.7573(5)
C3_2 C 0.5877(3) 0.0948(3) 0.6916(5)
C4_2 C 0.5870(3) 0.0942(3) 0.5959(5)
H1_2 H 0.5706 0.1258 0.5632
C5_2 C 0.6100(3) 0.0480(3) 0.5457(5)
C6_2 C 0.4989(3) 0.1288(3) 0.9057(5)
H2_2 H 0.5318 0.1418 0.9389
O1_2 O 0.4526(2) 0.1154(2) 0.6632(4)
C7_2 C 0.4216(4) 0.1643(3) 0.6309(6)
H3_2 H 0.4321 0.1984 0.6687
H4_2 H 0.3797 0.1575 0.6383
C8_2 C 0.4961(4) 0.2159(3) 0.4230(6)
H5_2 H 0.5307 0.2359 0.4084
N1_2 N 0.4842(3) 0.2051(3) 0.5123(5)
C9_2 C 0.4348(3) 0.1760(3) 0.5304(6)
C10_2 C 0.3972(5) 0.1575(5) 0.4600(8)
H6_2 H 0.3632 0.1363 0.4733
C11_2 C 0.4129(6) 0.1723(5) 0.3685(9)
H7_2 H 0.3879 0.1620 0.3188
C12_2 C 0.4597(6) 0.1992(4) 0.3499(7)
H8_2 H 0.4697 0.2078 0.2872
C13_2 C 0.6127(4) 0.0518(4) 0.4386(6)
C14_2 C 0.6730(11) 0.0772(6) 0.4113(11)
H9_2 H 0.6990 0.0749 0.4649
H10_2 H 0.6892 0.0549 0.3595
H11_2 H 0.6685 0.1175 0.3924
C15_2 C 0.5739(9) 0.0950(7) 0.3978(9)
H12_2 H 0.5841 0.1333 0.4212
H13_2 H 0.5777 0.0944 0.3298
H14_2 H 0.5340 0.0860 0.4150
S2_2 S 0.34306(7) 0.06221(7) 0.74835(13)
C19_2 C 0.6296(3) 0.0003(3) 0.6900(5)
C22_2 C 0.6105(3) 0.0475(3) 0.7427(5)
C23_2 C 0.4052(3) 0.0877(3) 0.8084(5)
C28_2 C 0.4058(3) 0.0870(3) 0.9041(5)
H20_2 H 0.3742 0.0706 0.9368
C31_2 C 0.4520(3) 0.1100(3) 0.9543(5)
C32_2 C 0.6288(3) 0.0011(3) 0.5943(5)
H23_2 H 0.3582 0.0318 0.5611
O2_2 O 0.6154(2) 0.0474(2) 0.8368(4)
C35_2 C 0.6643(3) 0.0784(4) 0.8691(6)
H24_2 H 0.6984 0.0679 0.8313
H27_2 H 0.6575 0.1203 0.8617
N5_3 N 0.4842(3) 0.2949(3) 0.7377(5)
C41_2 C 0.6760(3) 0.0652(3) 0.9696(6)
C63_2 C 0.3839(5) 0.0072(12) 0.3935(8)
H61_2 H 0.4096 0.0339 0.4262
H64_2 H 0.3956 0.0043 0.3281
H67_2 H 0.3442 0.0215 0.3970
C16_2 C 0.6161(5) 0.9928(12) 0.3935(8)
H15_2 H 0.5904 0.9661 0.4262
H16_2 H 0.6044 0.9957 0.3281
H17_2 H 0.6558 0.9785 0.3970
Ag3_2 Ag 0.46198(4) 0.7500 0.6250
S3_2 S 0.43779(7) 0.84306(7) 0.75165(13)
S4_2 S 0.65694(7) 0.93779(7) 0.74835(13)
C17_2 C 0.3704(3) 0.9997(3) 0.6900(5)
C18_2 C 0.5003(3) 0.8704(3) 0.8100(5)
C20_2 C 0.3895(3) 0.9525(3) 0.7427(5)
C21_2 C 0.5475(3) 0.8895(3) 0.7573(5)
C24_2 C 0.4123(3) 0.9052(3) 0.6916(5)
C25_2 C 0.5948(3) 0.9123(3) 0.8084(5)
C26_2 C 0.5942(3) 0.9130(3) 0.9041(5)
C27_2 C 0.4130(3) 0.9058(3) 0.5959(5)
H18_2 H 0.6258 0.9294 0.9368
H19_2 H 0.4294 0.8742 0.5632
C29_2 C 0.5480(3) 0.8900(3) 0.9543(5)
C30_2 C 0.3900(3) 0.9520(3) 0.5457(5)
C33_2 C 0.5011(3) 0.8712(3) 0.9057(5)
C34_2 C 0.3712(3) 0.9989(3) 0.5943(5)
H21_2 H 0.6418 0.9682 0.5611
H22_2 H 0.4682 0.8582 0.9389
O3_2 O 0.5474(2) 0.8846(2) 0.6632(4)
O4_2 O 0.3846(2) 0.9526(2) 0.8368(4)
C36_2 C 0.5784(4) 0.8357(3) 0.6309(6)
C37_2 C 0.3357(3) 0.9216(4) 0.8691(6)
H25_2 H 0.5679 0.8016 0.6687
H26_2 H 0.3016 0.9321 0.8313
H28_2 H 0.6203 0.8425 0.6383
H29_2 H 0.3425 0.8797 0.8617
C39_2 C 0.5039(4) 0.7841(3) 0.4230(6)
H31_2 H 0.4693 0.7641 0.4084
N3_2 N 0.5158(3) 0.7949(3) 0.5123(5)
C42_2 C 0.5652(3) 0.8240(3) 0.5304(6)
C43_2 C 0.3240(3) 0.9348(3) 0.9696(6)
C45_2 C 0.6028(5) 0.8425(5) 0.4600(8)
H34_2 H 0.6368 0.8637 0.4733
C48_2 C 0.5871(6) 0.8277(5) 0.3685(9)
H37_2 H 0.6121 0.8380 0.3188
C51_2 C 0.5403(6) 0.8008(4) 0.3499(7)
H40_2 H 0.5303 0.7922 0.2872
C54_2 C 0.3873(4) 0.9482(4) 0.4386(6)
C57_2 C 0.3270(11) 0.9228(6) 0.4113(11)
H43_2 H 0.3010 0.9251 0.4649
H46_2 H 0.3108 0.9451 0.3595
H49_2 H 0.3315 0.8825 0.3924
C60_2 C 0.4261(9) 0.9050(7) 0.3978(9)
H52_2 H 0.4159 0.8667 0.4212
H55_2 H 0.4223 0.9056 0.3298
H58_2 H 0.4660 0.9140 0.4150
N5_4 N 0.5158(3) 0.7051(3) 0.7377(5)
S1_3 S 0.43779(7) 0.65694(7) 0.49835(13)
C1_3 C 0.5003(3) 0.6296(3) 0.4400(5)
C2_3 C 0.5475(3) 0.6105(3) 0.4927(5)
C3_3 C 0.4123(3) 0.5948(3) 0.5584(5)
C4_3 C 0.4130(3) 0.5942(3) 0.6541(5)
H1_3 H 0.4294 0.6258 0.6868
C5_3 C 0.3900(3) 0.5480(3) 0.7043(5)
C6_3 C 0.5011(3) 0.6288(3) 0.3443(5)
H2_3 H 0.4682 0.6418 0.3111
O1_3 O 0.5474(2) 0.6154(2) 0.5868(4)
C7_3 C 0.5784(4) 0.6643(3) 0.6191(6)
H3_3 H 0.5679 0.6984 0.5813
H4_3 H 0.6203 0.6575 0.6117
C8_3 C 0.5039(4) 0.7159(3) 0.8270(6)
H5_3 H 0.4693 0.7359 0.8416
C9_3 C 0.5652(3) 0.6760(3) 0.7196(6)
C10_3 C 0.6028(5) 0.6575(5) 0.7900(8)
H6_3 H 0.6368 0.6363 0.7767
C11_3 C 0.5871(6) 0.6723(5) 0.8815(9)
H7_3 H 0.6121 0.6620 0.9312
C12_3 C 0.5403(6) 0.6992(4) 0.9001(7)
H8_3 H 0.5303 0.7078 0.9628
C13_3 C 0.3873(4) 0.5518(4) 0.8114(6)
C14_3 C 0.3270(11) 0.5772(6) 0.8387(11)
H9_3 H 0.3010 0.5749 0.7851
H10_3 H 0.3108 0.5549 0.8905
H11_3 H 0.3315 0.6175 0.8576
C15_3 C 0.4261(9) 0.5950(7) 0.8522(9)
H12_3 H 0.4159 0.6333 0.8288
H13_3 H 0.4223 0.5944 0.9202
H14_3 H 0.4660 0.5860 0.8350
C16_3 C 0.3839(5) 0.4928(12) 0.8565(8)
H15_3 H 0.4096 0.4661 0.8238
H16_3 H 0.3956 0.4957 0.9219
H17_3 H 0.3442 0.4785 0.8530
Ag2_2 Ag 0.2500 0.46198(4) 0.3750
Ag4_2 Ag 0.7500 0.53802(4) 0.3750
S2_3 S 0.65694(7) 0.56221(7) 0.50165(13)
S3_3 S 0.56221(7) 0.34306(7) 0.49835(13)
S4_3 S 0.34306(7) 0.43779(7) 0.50165(13)
C17_3 C 0.6296(3) 0.4997(3) 0.5600(5)
C18_3 C 0.4997(3) 0.3704(3) 0.4400(5)
C19_3 C 0.3704(3) 0.5003(3) 0.5600(5)
C20_3 C 0.6105(3) 0.4525(3) 0.5073(5)
C21_3 C 0.4525(3) 0.3895(3) 0.4927(5)
C22_3 C 0.3895(3) 0.5475(3) 0.5073(5)
C23_3 C 0.5948(3) 0.5877(3) 0.4416(5)
C24_3 C 0.5877(3) 0.4052(3) 0.5584(5)
C25_3 C 0.4052(3) 0.4123(3) 0.4416(5)
C26_3 C 0.4058(3) 0.4130(3) 0.3459(5)
C27_3 C 0.5870(3) 0.4058(3) 0.6541(5)
C28_3 C 0.5942(3) 0.5870(3) 0.3459(5)
H18_3 H 0.3742 0.4294 0.3132
H19_3 H 0.5706 0.3742 0.6868
H20_3 H 0.6258 0.5706 0.3132
C29_3 C 0.4520(3) 0.3900(3) 0.2957(5)
C30_3 C 0.6100(3) 0.4520(3) 0.7043(5)
C31_3 C 0.5480(3) 0.6100(3) 0.2957(5)
C32_3 C 0.3712(3) 0.5011(3) 0.6557(5)
C33_3 C 0.4989(3) 0.3712(3) 0.3443(5)
C34_3 C 0.6288(3) 0.4989(3) 0.6557(5)
H21_3 H 0.3582 0.4682 0.6889
H22_3 H 0.5318 0.3582 0.3111
H23_3 H 0.6418 0.5318 0.6889
O2_3 O 0.3846(2) 0.5474(2) 0.4132(4)
O3_3 O 0.4526(2) 0.3846(2) 0.5868(4)
O4_3 O 0.6154(2) 0.4526(2) 0.4132(4)
C35_3 C 0.3357(3) 0.5784(4) 0.3809(6)
C36_3 C 0.4216(4) 0.3357(3) 0.6191(6)
C37_3 C 0.6643(3) 0.4216(4) 0.3809(6)
H24_3 H 0.3016 0.5679 0.4187
H25_3 H 0.4321 0.3016 0.5813
H26_3 H 0.6984 0.4321 0.4187
H27_3 H 0.3425 0.6203 0.3883
H28_3 H 0.3797 0.3425 0.6117
H29_3 H 0.6575 0.3797 0.3883
C38_2 C 0.2841(3) 0.5039(4) 0.1730(6)
C39_3 C 0.4961(4) 0.2841(3) 0.8270(6)
C40_2 C 0.7159(3) 0.4961(4) 0.1730(6)
H30_2 H 0.2641 0.4693 0.1584
H31_3 H 0.5307 0.2641 0.8416
H32_2 H 0.7359 0.5307 0.1584
N2_2 N 0.2949(3) 0.5158(3) 0.2623(5)
N4_2 N 0.7051(3) 0.4842(3) 0.2623(5)
N6_3 N 0.2051(3) 0.5158(3) 0.4877(5)
C41_3 C 0.3240(3) 0.5652(3) 0.2804(6)
C42_3 C 0.4348(3) 0.3240(3) 0.7196(6)
C43_3 C 0.6760(3) 0.4348(3) 0.2804(6)
C44_2 C 0.3425(5) 0.6028(5) 0.2100(8)
C45_3 C 0.3972(5) 0.3425(5) 0.7900(8)
C46_2 C 0.6575(5) 0.3972(5) 0.2100(8)
H33_2 H 0.3637 0.6368 0.2233
H34_3 H 0.3632 0.3637 0.7767
H35_2 H 0.6363 0.3632 0.2233
C47_2 C 0.3277(5) 0.5871(6) 0.1185(9)
C48_3 C 0.4129(6) 0.3277(5) 0.8815(9)
C49_2 C 0.6723(5) 0.4129(6) 0.1185(9)
H36_2 H 0.3380 0.6121 0.0688
H37_3 H 0.3879 0.3380 0.9312
H38_2 H 0.6620 0.3879 0.0688
C50_2 C 0.3008(4) 0.5403(6) 0.0999(7)
C51_3 C 0.4597(6) 0.3008(4) 0.9001(7)
C52_2 C 0.6992(4) 0.4597(6) 0.0999(7)
H39_2 H 0.2922 0.5303 0.0372
H40_3 H 0.4697 0.2922 0.9628
H41_2 H 0.7078 0.4697 0.0372
C53_2 C 0.4482(4) 0.3873(4) 0.1886(6)
C54_3 C 0.6127(4) 0.4482(4) 0.8114(6)
C55_2 C 0.5518(4) 0.6127(4) 0.1886(6)
C56_2 C 0.4228(6) 0.3270(11) 0.1613(11)
C57_3 C 0.6730(11) 0.4228(6) 0.8387(11)
C58_2 C 0.5772(6) 0.6730(11) 0.1613(11)
H42_2 H 0.4251 0.3010 0.2149
H43_3 H 0.6990 0.4251 0.7851
H44_2 H 0.5749 0.6990 0.2149
H45_2 H 0.4451 0.3108 0.1095
H46_3 H 0.6892 0.4451 0.8905
H47_2 H 0.5549 0.6892 0.1095
H48_2 H 0.3825 0.3315 0.1424
H49_3 H 0.6685 0.3825 0.8576
H50_2 H 0.6175 0.6685 0.1424
C59_2 C 0.4050(7) 0.4261(9) 0.1478(9)
C60_3 C 0.5739(9) 0.4050(7) 0.8522(9)
C61_2 C 0.5950(7) 0.5739(9) 0.1478(9)
H51_2 H 0.3667 0.4159 0.1712
H52_3 H 0.5841 0.3667 0.8288
H53_2 H 0.6333 0.5841 0.1712
H54_2 H 0.4056 0.4223 0.0798
H55_3 H 0.5777 0.4056 0.9202
H56_2 H 0.5944 0.5777 0.0798
H57_2 H 0.4140 0.4660 0.1650
H58_3 H 0.5340 0.4140 0.8350
H59_2 H 0.5860 0.5340 0.1650
C62_2 C 0.5072(12) 0.3839(5) 0.1435(8)
C63_3 C 0.6161(5) 0.5072(12) 0.8565(8)
C64_2 C 0.4928(12) 0.6161(5) 0.1435(8)
H60_2 H 0.5339 0.4096 0.1762
H61_3 H 0.5904 0.5339 0.8238
H62_2 H 0.4661 0.5904 0.1762
H63_2 H 0.5043 0.3956 0.0781
H64_3 H 0.6044 0.5043 0.9219
H65_2 H 0.4957 0.6044 0.0781
H66_2 H 0.5215 0.3442 0.1470
H67_3 H 0.6558 0.5215 0.8530
H68_2 H 0.4785 0.6558 0.1470
N6_4 N 0.7949(3) 0.4842(3) 0.4877(5)
S1_4 S 0.06221(7) 0.65694(7) 0.25165(13)
C3_4 C 0.0877(3) 0.5948(3) 0.1916(5)
C4_4 C 0.0870(3) 0.5942(3) 0.0959(5)
H1_4 H 0.0706 0.6258 0.0632
C5_4 C 0.1100(3) 0.5480(3) 0.0457(5)
H2_4 H 0.0318 0.6418 0.4389
S4_4 S 0.15694(7) 0.43779(7) 0.24835(13)
C18_4 C 0.0003(3) 0.3704(3) 0.3100(5)
C19_4 C 0.1296(3) 0.5003(3) 0.1900(5)
C21_4 C 0.0475(3) 0.3895(3) 0.2573(5)
C22_4 C 0.1105(3) 0.5475(3) 0.2427(5)
C25_4 C 0.0948(3) 0.4123(3) 0.3084(5)
C26_4 C 0.0942(3) 0.4130(3) 0.4041(5)
H18_4 H 0.1258 0.4294 0.4368
C29_4 C 0.0480(3) 0.3900(3) 0.4543(5)
C32_4 C 0.1288(3) 0.5011(3) 0.0943(5)
C33_4 C 0.0011(3) 0.3712(3) 0.4057(5)
H21_4 H 0.1418 0.4682 0.0611
O2_4 O 0.1154(2) 0.5474(2) 0.3368(4)
O3_4 O 0.0474(2) 0.3846(2) 0.1632(4)
C35_4 C 0.1643(3) 0.5784(4) 0.3691(6)
C36_4 C 0.0784(4) 0.3357(3) 0.1309(6)
H24_4 H 0.1984 0.5679 0.3313
H25_4 H 0.0679 0.3016 0.1687
H27_4 H 0.1575 0.6203 0.3617
H28_4 H 0.1203 0.3425 0.1383
C38_3 C 0.2159(3) 0.5039(4) 0.5770(6)
H30_3 H 0.2359 0.4693 0.5916
C41_4 C 0.1760(3) 0.5652(3) 0.4696(6)
C42_4 C 0.0652(3) 0.3240(3) 0.0304(6)
C44_3 C 0.1575(5) 0.6028(5) 0.5400(8)
H33_3 H 0.1363 0.6368 0.5267
C47_3 C 0.1723(5) 0.5871(6) 0.6315(9)
H36_3 H 0.1620 0.6121 0.6812
C50_3 C 0.1992(4) 0.5403(6) 0.6501(7)
H39_3 H 0.2078 0.5303 0.7128
C53_3 C 0.0518(4) 0.3873(4) 0.5614(6)
C56_3 C 0.0772(6) 0.3270(11) 0.5887(11)
H42_3 H 0.0749 0.3010 0.5351
H45_3 H 0.0549 0.3108 0.6405
H48_3 H 0.1175 0.3315 0.6076
C59_3 C 0.0950(7) 0.4261(9) 0.6022(9)
H51_3 H 0.1333 0.4159 0.5788
H54_3 H 0.0944 0.4223 0.6702
H57_3 H 0.0860 0.4660 0.5850
C64_3 C 0.0072(12) 0.6161(5) 0.6065(8)
H62_3 H 0.0339 0.5904 0.5738
H65_3 H 0.0043 0.6044 0.6719
H68_3 H 0.0215 0.6558 0.6030
C1_4 C 0.9997(3) 0.6296(3) 0.3100(5)
C2_4 C 0.9525(3) 0.6105(3) 0.2573(5)
C6_4 C 0.9989(3) 0.6288(3) 0.4057(5)
O1_4 O 0.9526(2) 0.6154(2) 0.1632(4)
C7_4 C 0.9216(4) 0.6643(3) 0.1309(6)
H3_4 H 0.9321 0.6984 0.1687
H4_4 H 0.8797 0.6575 0.1383
C9_4 C 0.9348(3) 0.6760(3) 0.0304(6)
S2_4 S 0.84306(7) 0.56221(7) 0.24835(13)
S3_4 S 0.93779(7) 0.34306(7) 0.25165(13)
C17_4 C 0.8704(3) 0.4997(3) 0.1900(5)
C20_4 C 0.8895(3) 0.4525(3) 0.2427(5)
C23_4 C 0.9052(3) 0.5877(3) 0.3084(5)
C24_4 C 0.9123(3) 0.4052(3) 0.1916(5)
C27_4 C 0.9130(3) 0.4058(3) 0.0959(5)
C28_4 C 0.9058(3) 0.5870(3) 0.4041(5)
H19_4 H 0.9294 0.3742 0.0632
H20_4 H 0.8742 0.5706 0.4368
C30_4 C 0.8900(3) 0.4520(3) 0.0457(5)
C31_4 C 0.9520(3) 0.6100(3) 0.4543(5)
C34_4 C 0.8712(3) 0.4989(3) 0.0943(5)
H22_4 H 0.9682 0.3582 0.4389
H23_4 H 0.8582 0.5318 0.0611
O4_4 O 0.8846(2) 0.4526(2) 0.3368(4)
C37_4 C 0.8357(3) 0.4216(4) 0.3691(6)
H26_4 H 0.8016 0.4321 0.3313
H29_4 H 0.8425 0.3797 0.3617
C40_3 C 0.7841(3) 0.4961(4) 0.5770(6)
H32_3 H 0.7641 0.5307 0.5916
C43_4 C 0.8240(3) 0.4348(3) 0.4696(6)
C46_3 C 0.8425(5) 0.3972(5) 0.5400(8)
H35_3 H 0.8637 0.3632 0.5267
C49_3 C 0.8277(5) 0.4129(6) 0.6315(9)
H38_3 H 0.8380 0.3879 0.6812
C52_3 C 0.8008(4) 0.4597(6) 0.6501(7)
H41_3 H 0.7922 0.4697 0.7128
C55_3 C 0.9482(4) 0.6127(4) 0.5614(6)
C58_3 C 0.9228(6) 0.6730(11) 0.5887(11)
H44_3 H 0.9251 0.6990 0.5351
H47_3 H 0.9451 0.6892 0.6405
H50_3 H 0.8825 0.6685 0.6076
C61_3 C 0.9050(7) 0.5739(9) 0.6022(9)
H53_3 H 0.8667 0.5841 0.5788
H56_3 H 0.9056 0.5777 0.6702
H59_3 H 0.9140 0.5340 0.5850
C62_3 C 0.9928(12) 0.3839(5) 0.6065(8)
H60_3 H 0.9661 0.4096 0.5738
H63_3 H 0.9957 0.3956 0.6719
H66_3 H 0.9785 0.3442 0.6030
C38_4 C 0.7159(3) 0.0039(4) 0.0770(6)
H32_4 H 0.2641 0.0307 0.0916
C44_4 C 0.6575(5) 0.1028(5) 0.0400(8)
H33_4 H 0.6363 0.1368 0.0267
C47_4 C 0.6723(5) 0.0871(6) 0.1315(9)
H36_4 H 0.6620 0.1121 0.1812
C50_4 C 0.6992(4) 0.0403(6) 0.1501(7)
H39_4 H 0.7078 0.0303 0.2128
C55_4 C 0.4482(4) 0.1127(4) 0.0614(6)
C58_4 C 0.4228(6) 0.1730(11) 0.0887(11)
H44_4 H 0.4251 0.1990 0.0351
H47_4 H 0.4451 0.1892 0.1405
H50_4 H 0.3825 0.1685 0.1076
C61_4 C 0.4050(7) 0.0739(9) 0.1022(9)
H53_4 H 0.3667 0.0841 0.0788
H56_4 H 0.4056 0.0777 0.1702
H59_4 H 0.4140 0.0340 0.0850
C64_4 C 0.5072(12) 0.1161(5) 0.1065(8)
H62_4 H 0.5339 0.0904 0.0738
H65_4 H 0.5043 0.1044 0.1719
H68_4 H 0.5215 0.1558 0.1030
C40_4 C 0.2841(3) 0.9961(4) 0.0770(6)
H30_4 H 0.7359 0.9693 0.0916
C46_4 C 0.3425(5) 0.8972(5) 0.0400(8)
H35_4 H 0.3637 0.8632 0.0267
C49_4 C 0.3277(5) 0.9129(6) 0.1315(9)
H38_4 H 0.3380 0.8879 0.1812
C52_4 C 0.3008(4) 0.9597(6) 0.1501(7)
H41_4 H 0.2922 0.9697 0.2128
C53_4 C 0.5518(4) 0.8873(4) 0.0614(6)
C56_4 C 0.5772(6) 0.8270(11) 0.0887(11)
H42_4 H 0.5749 0.8010 0.0351
H45_4 H 0.5549 0.8108 0.1405
H48_4 H 0.6175 0.8315 0.1076
C59_4 C 0.5950(7) 0.9261(9) 0.1022(9)
H51_4 H 0.6333 0.9159 0.0788
H54_4 H 0.5944 0.9223 0.1702
H57_4 H 0.5860 0.9660 0.0850
C62_4 C 0.4928(12) 0.8839(5) 0.1065(8)
H60_4 H 0.4661 0.9096 0.0738
H63_4 H 0.4957 0.8956 0.1719
H66_4 H 0.4785 0.8442 0.1030
H5_4 H 0.0307 0.7359 0.9084
C13_4 C 0.1127(4) 0.5518(4) 0.9386(6)
C14_4 C 0.1730(11) 0.5772(6) 0.9113(11)
H9_4 H 0.1990 0.5749 0.9649
H10_4 H 0.1892 0.5549 0.8595
H11_4 H 0.1685 0.6175 0.8924
C15_4 C 0.0739(9) 0.5950(7) 0.8978(9)
H12_4 H 0.0841 0.6333 0.9212
H13_4 H 0.0777 0.5944 0.8298
H14_4 H 0.0340 0.5860 0.9150
C16_4 C 0.1161(5) 0.4928(12) 0.8935(8)
H15_4 H 0.0904 0.4661 0.9262
H16_4 H 0.1044 0.4957 0.8281
H17_4 H 0.1558 0.4785 0.8970
C39_4 C 0.0039(4) 0.2841(3) 0.9230(6)
C45_4 C 0.1028(5) 0.3425(5) 0.9600(8)
H34_4 H 0.1368 0.3637 0.9733
C48_4 C 0.0871(6) 0.3277(5) 0.8685(9)
H37_4 H 0.1121 0.3380 0.8188
C51_4 C 0.0403(6) 0.3008(4) 0.8499(7)
H40_4 H 0.0303 0.2922 0.7872
C8_4 C 0.9961(4) 0.7159(3) 0.9230(6)
C10_4 C 0.8972(5) 0.6575(5) 0.9600(8)
H6_4 H 0.8632 0.6363 0.9733
C11_4 C 0.9129(6) 0.6723(5) 0.8685(9)
H7_4 H 0.8879 0.6620 0.8188
C12_4 C 0.9597(6) 0.6992(4) 0.8499(7)
H8_4 H 0.9697 0.7078 0.7872
H31_4 H 0.9693 0.2641 0.9084
C54_4 C 0.8873(4) 0.4482(4) 0.9386(6)
C57_4 C 0.8270(11) 0.4228(6) 0.9113(11)
H43_4 H 0.8010 0.4251 0.9649
H46_4 H 0.8108 0.4451 0.8595
H49_4 H 0.8315 0.3825 0.8924
C60_4 C 0.9261(9) 0.4050(7) 0.8978(9)
H52_4 H 0.9159 0.3667 0.9212
H55_4 H 0.9223 0.4056 0.8298
H58_4 H 0.9660 0.4140 0.9150
C63_4 C 0.8839(5) 0.5072(12) 0.8935(8)
H61_4 H 0.9096 0.5339 0.9262
H64_4 H 0.8956 0.5043 0.8281
H67_4 H 0.8442 0.5215 0.8970
loop_
_geom_bond_atom_site_label_1
_geom_bond_atom_site_label_2
_geom_bond_site_symmetry_1
_geom_bond_site_symmetry_2
O1 C7 1_555 1_555
C7 H3 1_555 1_555
H4 C7 1_555 1_555
N1 C8 1_555 1_555
C9 C7 1_555 1_555
C10 C9 1_555 1_555
H6 C10 1_555 1_555
C11 C10 1_555 1_555
H7 C11 1_555 1_555
C12 C8 1_555 1_555
H8 C12 1_555 1_555
H61 C63 1_555 1_555
H64 C63 1_555 1_555
H67 C63 1_555 1_555
N1 C9 1_555 1_555
C11 C12 1_555 1_555
C1 C2 1_555 1_555
C6 C1 1_555 1_555
C23 C2 1_555 1_555
C28 C23 1_555 1_555
H20 C28 1_555 1_555
C31 C6 1_555 1_555
C55 C31 1_555 1_555
C58 C55 1_555 1_555
H44 C58 1_555 1_555
H47 C58 1_555 1_555
H50 C58 1_555 1_555
C61 C55 1_555 1_555
H53 C61 1_555 1_555
H56 C61 1_555 1_555
H59 C61 1_555 1_555
C28 C31 1_555 1_555
C17 C20 1_555 1_555
C20 C24 1_555 1_555
C27 C24 1_555 1_555
H19 C27 1_555 1_555
C30 C27 1_555 1_555
C34 C17 1_555 1_555
C54 C30 1_555 1_555
C57 C54 1_555 1_555
H43 C57 1_555 1_555
H46 C57 1_555 1_555
H49 C57 1_555 1_555
C60 C54 1_555 1_555
H52 C60 1_555 1_555
H55 C60 1_555 1_555
H58 C60 1_555 1_555
C30 C34 1_555 1_555
C37 O4 1_555 1_555
H26 C37 1_555 1_555
H29 C37 1_555 1_555
N4 C40 1_555 1_555
C43 C37 1_555 1_555
C46 C43 1_555 1_555
H35 C46 1_555 1_555
C49 C46 1_555 1_555
H38 C49 1_555 1_555
C52 C40 1_555 1_555
H41 C52 1_555 1_555
H60 C62 1_555 1_555
H63 C62 1_555 1_555
H66 C62 1_555 1_555
N4 C43 1_555 1_555
C49 C52 1_555 1_555
C4 C3 1_555 1_555
H1 C4 1_555 1_555
C5 C4 1_555 1_555
C13 C5 1_555 1_555
C14 C13 1_555 1_555
H9 C14 1_555 1_555
H10 C14 1_555 1_555
H11 C14 1_555 1_555
C15 C13 1_555 1_555
H12 C15 1_555 1_555
H13 C15 1_555 1_555
H14 C15 1_555 1_555
C19 C22 1_555 1_555
C22 C3 1_555 1_555
C32 C5 1_555 1_555
C19 C32 1_555 1_555
C35 O2 1_555 1_555
H24 C35 1_555 1_555
H27 C35 1_555 1_555
N2 C38 1_555 1_555
C41 C35 1_555 1_555
C44 C41 1_555 1_555
H33 C44 1_555 1_555
C47 C44 1_555 1_555
H36 C47 1_555 1_555
C50 C38 1_555 1_555
H39 C50 1_555 1_555
H62 C64 1_555 1_555
H65 C64 1_555 1_555
H68 C64 1_555 1_555
N2 C41 1_555 1_555
C47 C50 1_555 1_555
H15 C16 1_555 1_555
H16 C16 1_555 1_555
H17 C16 1_555 1_555
C36 O3 1_555 1_555
H25 C36 1_555 1_555
H28 C36 1_555 1_555
N3 C39 1_555 1_555
C42 C36 1_555 1_555
C45 C42 1_555 1_555
H34 C45 1_555 1_555
C48 C45 1_555 1_555
H37 C48 1_555 1_555
C51 C39 1_555 1_555
H40 C51 1_555 1_555
N3 C42 1_555 1_555
C48 C51 1_555 1_555
C18 C21 1_555 1_555
C21 C25 1_555 1_555
C26 C25 1_555 1_555
H18 C26 1_555 1_555
C29 C26 1_555 1_555
C33 C18 1_555 1_555
C53 C29 1_555 1_555
C56 C53 1_555 1_555
H42 C56 1_555 1_555
H45 C56 1_555 1_555
H48 C56 1_555 1_555
C59 C53 1_555 1_555
H51 C59 1_555 1_555
H54 C59 1_555 1_555
H57 C59 1_555 1_555
C29 C33 1_555 1_555
Ag1_2 N1_2 1_555 1_555
S1_2 C1_2 1_555 1_555
C1_2 C2_2 1_555 1_555
C2_2 O1_2 1_555 1_555
C3_2 S1_2 1_555 1_555
C4_2 C3_2 1_555 1_555
H1_2 C4_2 1_555 1_555
C5_2 C4_2 1_555 1_555
C6_2 C1_2 1_555 1_555
H2_2 C6_2 1_555 1_555
O1_2 C7_2 1_555 1_555
C7_2 H3_2 1_555 1_555
H4_2 C7_2 1_555 1_555
C8_2 H5_2 1_555 1_555
N1_2 C8_2 1_555 1_555
C9_2 C7_2 1_555 1_555
C10_2 C9_2 1_555 1_555
H6_2 C10_2 1_555 1_555
C11_2 C10_2 1_555 1_555
H7_2 C11_2 1_555 1_555
C12_2 C8_2 1_555 1_555
H8_2 C12_2 1_555 1_555
C13_2 C5_2 1_555 1_555
C14_2 C13_2 1_555 1_555
H9_2 C14_2 1_555 1_555
H10_2 C14_2 1_555 1_555
H11_2 C14_2 1_555 1_555
C15_2 C13_2 1_555 1_555
H12_2 C15_2 1_555 1_555
H13_2 C15_2 1_555 1_555
H14_2 C15_2 1_555 1_555
C19_2 C22_2 1_555 1_555
C22_2 C3_2 1_555 1_555
C23_2 C2_2 1_555 1_555
C28_2 C23_2 1_555 1_555
H20_2 C28_2 1_555 1_555
C31_2 C6_2 1_555 1_555
C32_2 C5_2 1_555 1_555
O2_2 C22_2 1_555 1_555
C35_2 O2_2 1_555 1_555
H24_2 C35_2 1_555 1_555
H27_2 C35_2 1_555 1_555
N5_3 Ag1_2 1_555 1_555
C41_2 C35_2 1_555 1_555
H61_2 C63_2 1_555 1_555
H64_2 C63_2 1_555 1_555
H67_2 C63_2 1_555 1_555
N1_2 C9_2 1_555 1_555
C11_2 C12_2 1_555 1_555
S2_2 C23_2 1_555 1_555
C19_2 C32_2 1_555 1_555
C28_2 C31_2 1_555 1_555
N6 C41_2 1_555 1_555
H15_2 C16_2 1_555 1_555
H16_2 C16_2 1_555 1_555
H17_2 C16_2 1_555 1_555
Ag3_2 N3_2 1_555 1_555
S3_2 C18_2 1_555 1_555
C17_2 C20_2 1_555 1_555
C18_2 C21_2 1_555 1_555
C20_2 C24_2 1_555 1_555
C21_2 C25_2 1_555 1_555
C24_2 S3_2 1_555 1_555
C25_2 S4_2 1_555 1_555
C26_2 C25_2 1_555 1_555
C27_2 C24_2 1_555 1_555
H18_2 C26_2 1_555 1_555
H19_2 C27_2 1_555 1_555
C29_2 C26_2 1_555 1_555
C30_2 C27_2 1_555 1_555
C33_2 C18_2 1_555 1_555
C34_2 C17_2 1_555 1_555
H22_2 C33_2 1_555 1_555
O3_2 C21_2 1_555 1_555
O4_2 C20_2 1_555 1_555
C36_2 O3_2 1_555 1_555
C37_2 O4_2 1_555 1_555
H25_2 C36_2 1_555 1_555
H26_2 C37_2 1_555 1_555
H28_2 C36_2 1_555 1_555
H29_2 C37_2 1_555 1_555
C39_2 H31_2 1_555 1_555
N3_2 C39_2 1_555 1_555
C42_2 C36_2 1_555 1_555
C43_2 C37_2 1_555 1_555
C45_2 C42_2 1_555 1_555
H34_2 C45_2 1_555 1_555
C48_2 C45_2 1_555 1_555
H37_2 C48_2 1_555 1_555
C51_2 C39_2 1_555 1_555
H40_2 C51_2 1_555 1_555
C54_2 C30_2 1_555 1_555
C57_2 C54_2 1_555 1_555
H43_2 C57_2 1_555 1_555
H46_2 C57_2 1_555 1_555
H49_2 C57_2 1_555 1_555
C60_2 C54_2 1_555 1_555
H52_2 C60_2 1_555 1_555
H55_2 C60_2 1_555 1_555
H58_2 C60_2 1_555 1_555
C29_2 C33_2 1_555 1_555
C30_2 C34_2 1_555 1_555
N3_2 C42_2 1_555 1_555
N6_2 C43_2 1_555 1_555
C48_2 C51_2 1_555 1_555
N5_4 Ag3_2 1_555 1_555
S1_3 C1_3 1_555 1_555
C1_3 C2_3 1_555 1_555
C2_3 O1_3 1_555 1_555
C3_3 S1_3 1_555 1_555
C4_3 C3_3 1_555 1_555
H1_3 C4_3 1_555 1_555
C5_3 C4_3 1_555 1_555
C6_3 C1_3 1_555 1_555
H2_3 C6_3 1_555 1_555
O1_3 C7_3 1_555 1_555
C7_3 H3_3 1_555 1_555
H4_3 C7_3 1_555 1_555
C8_3 H5_3 1_555 1_555
N5_4 C8_3 1_555 1_555
C9_3 C7_3 1_555 1_555
C10_3 C9_3 1_555 1_555
H6_3 C10_3 1_555 1_555
C11_3 C10_3 1_555 1_555
H7_3 C11_3 1_555 1_555
C12_3 C8_3 1_555 1_555
H8_3 C12_3 1_555 1_555
C13_3 C5_3 1_555 1_555
C14_3 C13_3 1_555 1_555
H9_3 C14_3 1_555 1_555
H10_3 C14_3 1_555 1_555
H11_3 C14_3 1_555 1_555
C15_3 C13_3 1_555 1_555
H12_3 C15_3 1_555 1_555
H13_3 C15_3 1_555 1_555
H14_3 C15_3 1_555 1_555
C16_3 C13_3 1_555 1_555
H15_3 C16_3 1_555 1_555
H16_3 C16_3 1_555 1_555
H17_3 C16_3 1_555 1_555
Ag2_2 N2_2 1_555 1_555
Ag4_2 N4_2 1_555 1_555
S2_3 C17_3 1_555 1_555
S3_3 C18_3 1_555 1_555
S4_3 C19_3 1_555 1_555
C17_3 C20_3 1_555 1_555
C18_3 C21_3 1_555 1_555
C19_3 C22_3 1_555 1_555
C20_3 C24_3 1_555 1_555
C21_3 C25_3 1_555 1_555
C22_3 C3_3 1_555 1_555
C23_3 C2_3 1_555 1_555
C24_3 S3_3 1_555 1_555
C25_3 S4_3 1_555 1_555
C26_3 C25_3 1_555 1_555
C27_3 C24_3 1_555 1_555
C28_3 C23_3 1_555 1_555
H18_3 C26_3 1_555 1_555
H19_3 C27_3 1_555 1_555
H20_3 C28_3 1_555 1_555
C29_3 C26_3 1_555 1_555
C30_3 C27_3 1_555 1_555
C31_3 C6_3 1_555 1_555
C32_3 C5_3 1_555 1_555
C33_3 C18_3 1_555 1_555
C34_3 C17_3 1_555 1_555
H21_3 C32_3 1_555 1_555
H22_3 C33_3 1_555 1_555
H23_3 C34_3 1_555 1_555
O2_3 C22_3 1_555 1_555
O3_3 C21_3 1_555 1_555
O4_3 C20_3 1_555 1_555
C35_3 O2_3 1_555 1_555
C36_3 O3_3 1_555 1_555
C37_3 O4_3 1_555 1_555
H24_3 C35_3 1_555 1_555
H25_3 C36_3 1_555 1_555
H26_3 C37_3 1_555 1_555
H27_3 C35_3 1_555 1_555
H28_3 C36_3 1_555 1_555
H29_3 C37_3 1_555 1_555
C38_2 H30_2 1_555 1_555
C39_3 H31_3 1_555 1_555
C40_2 H32_2 1_555 1_555
N2_2 C38_2 1_555 1_555
N5_3 C39_3 1_555 1_555
N4_2 C40_2 1_555 1_555
N6_3 Ag2_2 1_555 1_555
C41_3 C35_3 1_555 1_555
C42_3 C36_3 1_555 1_555
C43_3 C37_3 1_555 1_555
C44_2 C41_3 1_555 1_555
C45_3 C42_3 1_555 1_555
C46_2 C43_3 1_555 1_555
H33_2 C44_2 1_555 1_555
H34_3 C45_3 1_555 1_555
H35_2 C46_2 1_555 1_555
C47_2 C44_2 1_555 1_555
C48_3 C45_3 1_555 1_555
C49_2 C46_2 1_555 1_555
H36_2 C47_2 1_555 1_555
H37_3 C48_3 1_555 1_555
H38_2 C49_2 1_555 1_555
C50_2 C38_2 1_555 1_555
C51_3 C39_3 1_555 1_555
C52_2 C40_2 1_555 1_555
H39_2 C50_2 1_555 1_555
H40_3 C51_3 1_555 1_555
H41_2 C52_2 1_555 1_555
C53_2 C29_3 1_555 1_555
C54_3 C30_3 1_555 1_555
C55_2 C31_3 1_555 1_555
C56_2 C53_2 1_555 1_555
C57_3 C54_3 1_555 1_555
C58_2 C55_2 1_555 1_555
H42_2 C56_2 1_555 1_555
H43_3 C57_3 1_555 1_555
H44_2 C58_2 1_555 1_555
H45_2 C56_2 1_555 1_555
H46_3 C57_3 1_555 1_555
H47_2 C58_2 1_555 1_555
H48_2 C56_2 1_555 1_555
H49_3 C57_3 1_555 1_555
H50_2 C58_2 1_555 1_555
C59_2 C53_2 1_555 1_555
C60_3 C54_3 1_555 1_555
C61_2 C55_2 1_555 1_555
H51_2 C59_2 1_555 1_555
H52_3 C60_3 1_555 1_555
H53_2 C61_2 1_555 1_555
H54_2 C59_2 1_555 1_555
H55_3 C60_3 1_555 1_555
H56_2 C61_2 1_555 1_555
H57_2 C59_2 1_555 1_555
H58_3 C60_3 1_555 1_555
H59_2 C61_2 1_555 1_555
C62_2 C53_2 1_555 1_555
C63_3 C54_3 1_555 1_555
C64_2 C55_2 1_555 1_555
H60_2 C62_2 1_555 1_555
H61_3 C63_3 1_555 1_555
H62_2 C64_2 1_555 1_555
H63_2 C62_2 1_555 1_555
H64_3 C63_3 1_555 1_555
H65_2 C64_2 1_555 1_555
H66_2 C62_2 1_555 1_555
H67_3 C63_3 1_555 1_555
H68_2 C64_2 1_555 1_555
N5_4 C9_3 1_555 1_555
C11_3 C12_3 1_555 1_555
S2_3 C23_3 1_555 1_555
C19_3 C32_3 1_555 1_555
C28_3 C31_3 1_555 1_555
C29_3 C33_3 1_555 1_555
C30_3 C34_3 1_555 1_555
N2_2 C41_3 1_555 1_555
N5_3 C42_3 1_555 1_555
N4_2 C43_3 1_555 1_555
C47_2 C50_2 1_555 1_555
C48_3 C51_3 1_555 1_555
C49_2 C52_2 1_555 1_555
N6_4 Ag4_2 1_555 1_555
C3_4 S1_4 1_555 1_555
C4_4 C3_4 1_555 1_555
H1_4 C4_4 1_555 1_555
C5_4 C4_4 1_555 1_555
S4_4 C19_4 1_555 1_555
C18_4 C21_4 1_555 1_555
C19_4 C22_4 1_555 1_555
C21_4 C25_4 1_555 1_555
C22_4 C3_4 1_555 1_555
C25_4 S4_4 1_555 1_555
C26_4 C25_4 1_555 1_555
H18_4 C26_4 1_555 1_555
C29_4 C26_4 1_555 1_555
C32_4 C5_4 1_555 1_555
C33_4 C18_4 1_555 1_555
H21_4 C32_4 1_555 1_555
O2_4 C22_4 1_555 1_555
O3_4 C21_4 1_555 1_555
C35_4 O2_4 1_555 1_555
C36_4 O3_4 1_555 1_555
H24_4 C35_4 1_555 1_555
H25_4 C36_4 1_555 1_555
H27_4 C35_4 1_555 1_555
H28_4 C36_4 1_555 1_555
C38_3 H30_3 1_555 1_555
N6_3 C38_3 1_555 1_555
C41_4 C35_4 1_555 1_555
C42_4 C36_4 1_555 1_555
C44_3 C41_4 1_555 1_555
H33_3 C44_3 1_555 1_555
C47_3 C44_3 1_555 1_555
H36_3 C47_3 1_555 1_555
C50_3 C38_3 1_555 1_555
H39_3 C50_3 1_555 1_555
C53_3 C29_4 1_555 1_555
C56_3 C53_3 1_555 1_555
H42_3 C56_3 1_555 1_555
H45_3 C56_3 1_555 1_555
H48_3 C56_3 1_555 1_555
C59_3 C53_3 1_555 1_555
H51_3 C59_3 1_555 1_555
H54_3 C59_3 1_555 1_555
H57_3 C59_3 1_555 1_555
H62_3 C64_3 1_555 1_555
H65_3 C64_3 1_555 1_555
H68_3 C64_3 1_555 1_555
C19_4 C32_4 1_555 1_555
C29_4 C33_4 1_555 1_555
N6_3 C41_4 1_555 1_555
N5 C42_4 1_555 1_555
C47_3 C50_3 1_555 1_555
C1_4 C2_4 1_555 1_555
C2_4 O1_4 1_555 1_555
C6_4 C1_4 1_555 1_555
O1_4 C7_4 1_555 1_555
C7_4 H3_4 1_555 1_555
H4_4 C7_4 1_555 1_555
C9_4 C7_4 1_555 1_555
S2_4 C17_4 1_555 1_555
C17_4 C20_4 1_555 1_555
C20_4 C24_4 1_555 1_555
C23_4 C2_4 1_555 1_555
C24_4 S3_4 1_555 1_555
C27_4 C24_4 1_555 1_555
C28_4 C23_4 1_555 1_555
H19_4 C27_4 1_555 1_555
H20_4 C28_4 1_555 1_555
C30_4 C27_4 1_555 1_555
C31_4 C6_4 1_555 1_555
C34_4 C17_4 1_555 1_555
H23_4 C34_4 1_555 1_555
O4_4 C20_4 1_555 1_555
C37_4 O4_4 1_555 1_555
H26_4 C37_4 1_555 1_555
H29_4 C37_4 1_555 1_555
C40_3 H32_3 1_555 1_555
N6_4 C40_3 1_555 1_555
C43_4 C37_4 1_555 1_555
C46_3 C43_4 1_555 1_555
H35_3 C46_3 1_555 1_555
C49_3 C46_3 1_555 1_555
H38_3 C49_3 1_555 1_555
C52_3 C40_3 1_555 1_555
H41_3 C52_3 1_555 1_555
C55_3 C31_4 1_555 1_555
C58_3 C55_3 1_555 1_555
H44_3 C58_3 1_555 1_555
H47_3 C58_3 1_555 1_555
H50_3 C58_3 1_555 1_555
C61_3 C55_3 1_555 1_555
H53_3 C61_3 1_555 1_555
H56_3 C61_3 1_555 1_555
H59_3 C61_3 1_555 1_555
H60_3 C62_3 1_555 1_555
H63_3 C62_3 1_555 1_555
H66_3 C62_3 1_555 1_555
N5_2 C9_4 1_555 1_555
S2_4 C23_4 1_555 1_555
C28_4 C31_4 1_555 1_555
C30_4 C34_4 1_555 1_555
N6_4 C43_4 1_555 1_555
C49_3 C52_3 1_555 1_555
H33_4 C44_4 1_555 1_555
C47_4 C44_4 1_555 1_555
H36_4 C47_4 1_555 1_555
C50_4 C38_4 1_555 1_555
H39_4 C50_4 1_555 1_555
C58_4 C55_4 1_555 1_555
H44_4 C58_4 1_555 1_555
H47_4 C58_4 1_555 1_555
H50_4 C58_4 1_555 1_555
C61_4 C55_4 1_555 1_555
H53_4 C61_4 1_555 1_555
H56_4 C61_4 1_555 1_555
H59_4 C61_4 1_555 1_555
C64_4 C55_4 1_555 1_555
H62_4 C64_4 1_555 1_555
H65_4 C64_4 1_555 1_555
H68_4 C64_4 1_555 1_555
C47_4 C50_4 1_555 1_555
H35_4 C46_4 1_555 1_555
C49_4 C46_4 1_555 1_555
H38_4 C49_4 1_555 1_555
C52_4 C40_4 1_555 1_555
H41_4 C52_4 1_555 1_555
C56_4 C53_4 1_555 1_555
H42_4 C56_4 1_555 1_555
H45_4 C56_4 1_555 1_555
H48_4 C56_4 1_555 1_555
C59_4 C53_4 1_555 1_555
H51_4 C59_4 1_555 1_555
H54_4 C59_4 1_555 1_555
H57_4 C59_4 1_555 1_555
C62_4 C53_4 1_555 1_555
H60_4 C62_4 1_555 1_555
H63_4 C62_4 1_555 1_555
H66_4 C62_4 1_555 1_555
C49_4 C52_4 1_555 1_555
C14_4 C13_4 1_555 1_555
H9_4 C14_4 1_555 1_555
H10_4 C14_4 1_555 1_555
H11_4 C14_4 1_555 1_555
C15_4 C13_4 1_555 1_555
H12_4 C15_4 1_555 1_555
H13_4 C15_4 1_555 1_555
H14_4 C15_4 1_555 1_555
C16_4 C13_4 1_555 1_555
H15_4 C16_4 1_555 1_555
H16_4 C16_4 1_555 1_555
H17_4 C16_4 1_555 1_555
H34_4 C45_4 1_555 1_555
C48_4 C45_4 1_555 1_555
H37_4 C48_4 1_555 1_555
C51_4 C39_4 1_555 1_555
H40_4 C51_4 1_555 1_555
C48_4 C51_4 1_555 1_555
H6_4 C10_4 1_555 1_555
C11_4 C10_4 1_555 1_555
H7_4 C11_4 1_555 1_555
C12_4 C8_4 1_555 1_555
H8_4 C12_4 1_555 1_555
C57_4 C54_4 1_555 1_555
H43_4 C57_4 1_555 1_555
H46_4 C57_4 1_555 1_555
H49_4 C57_4 1_555 1_555
C60_4 C54_4 1_555 1_555
H52_4 C60_4 1_555 1_555
H55_4 C60_4 1_555 1_555
H58_4 C60_4 1_555 1_555
C63_4 C54_4 1_555 1_555
H61_4 C63_4 1_555 1_555
H64_4 C63_4 1_555 1_555
H67_4 C63_4 1_555 1_555
C11_4 C12_4 1_555 1_555

#END
