
###############################################################################
#
# This file contains modified crystal structure data generated from the
# MOF subset of the Cambridge Structural Database (CSD) v543 
# hosted by the Cambridge Crystallographic Data Centre (CCDC).
#
# This work is licensed under the Creative Commons
# Attribution-NonCommercial-ShareAlike 4.0 International License.
# To view a copy of this license, visit
# http://creativecommons.org/licenses/by-nc-sa/4.0/
# or send a letter to
# Creative Commons, PO Box 1866, Mountain View, CA 94042, USA.
#
# CIF created using the CSD Python API on 29 September 2022
# The structure has been converted into the P1 space group
# The structure has a 3D framework
# The original CSD entry PEMLUS is in the monoclinic crystal system
# The framework has been calculated to contain at least 10.0% void space
# The void calculation uses a probe of radius 1.32A, grid spacing 0.4
#
###############################################################################

data_PEMLUS
_chemical_formula_moiety         '(C210 H192 Co18 N31 O64)n'
_symmetry_cell_setting           triclinic
_symmetry_space_group_name_H-M   'P 1'
_symmetry_Int_Tables_number      1
_space_group_name_Hall           'P 1'
loop_
_symmetry_equiv_pos_site_id
_symmetry_equiv_pos_as_xyz
1 x,y,z
_cell_length_a                   8.93571(10)
_cell_length_b                   30.2964(3)
_cell_length_c                   22.0752(2)
_cell_angle_alpha                90
_cell_angle_beta                 95.9165(6)
_cell_angle_gamma                90
_cell_volume                     5944.36
loop_
_atom_site_label
_atom_site_type_symbol
_atom_site_fract_x
_atom_site_fract_y
_atom_site_fract_z
Co9 Co -0.000000 0.500000 0.000000
O24 O 0.0779(3) 0.58539(8) 0.72157(11)
O31 O 0.2160(2) 0.74419(7) 0.49621(10)
H73 H 0.225962 0.749433 0.459016
H74 H 0.277224 0.759573 0.519476
N15 N 0.1210(3) 0.63204(9) 0.82699(11)
H76 H 0.186170 0.613728 0.815644
C79 C 0.0490(4) 0.65046(10) 0.49416(14)
H77 H 0.095838 0.662278 0.462112
C80 C 0.0433(4) 0.60562(11) 0.50002(15)
H78 H 0.086505 0.587360 0.472766
C87 C 0.1516(4) 0.65478(11) 0.88497(14)
H83 H 0.258776 0.653695 0.897498
H84 H 0.123183 0.685543 0.879625
C88 C 0.0684(3) 0.63513(10) 0.93472(13)
H85 H 0.002126 0.692158 0.970675
C92 C 0.0619(3) 0.59004(9) 0.94279(13)
H88 H 0.109485 0.572084 0.916472
Co9_2 Co 0.000000 0.500000 1.000000
O34 O 0.0754(2) 0.76215(7) 0.60973(8)
Co2 Co 0.000000 -0.000000 0.000000
Co3 Co 0.500000 -0.000000 0.500000
O5 O 0.4204(2) 0.01206(7) 0.40636(8)
O6 O 0.1716(2) 0.01174(9) 0.40833(9)
O7 O 0.0747(2) 0.01459(7) 0.09113(8)
O8 O 0.3218(2) 0.02417(8) 0.08891(9)
O16 O 0.2806(2) 0.00127(7) 0.52235(9)
C29 C 0.2882(3) 0.01529(9) 0.38133(11)
C30 C 0.2652(3) 0.02163(9) 0.31296(11)
C31 C 0.3410(3) 0.05486(9) 0.28221(11)
C32 C 0.4313(4) 0.08765(10) 0.31390(14)
H37 H 0.447277 0.086575 0.356176
C33 C 0.4949(4) 0.12067(12) 0.28352(17)
H38 H 0.553316 0.141933 0.305191
C34 C 0.4731(4) 0.12285(12) 0.22003(17)
H39 H 0.517557 0.145448 0.199720
C35 C 0.3874(4) 0.09225(10) 0.18778(14)
H40 H 0.373192 0.094404 0.145552
C36 C 0.3193(3) 0.05710(9) 0.21706(11)
C37 C 0.2228(3) 0.02539(9) 0.18459(11)
C38 C 0.2047(3) 0.02179(9) 0.11616(11)
H50 H 0.283428 0.007152 0.004452
H95 H 0.731817 0.014206 0.446440
H96 H 0.783277 0.005856 0.507258
N17 N 0.5090(3) 0.07055(8) 0.51353(10)
Co2_2 Co 0.000000 -0.000000 1.000000
O4 O 0.1003(2) 0.08766(8) 0.69058(10)
N5 N 0.0099(3) 0.06838(8) 0.97641(10)
N6 N 0.1427(3) 0.12136(9) 0.80466(11)
H11 H 0.198395 0.101096 0.791434
N8 N 0.0071(3) 0.18216(8) 0.50228(10)
C17 C 0.0184(4) 0.15713(11) 0.94623(15)
H27 H 0.020110 0.186900 0.936030
C18 C 0.0920(3) 0.12644(10) 0.91373(12)
C19 C 0.0832(3) 0.08263(9) 0.93025(12)
H28 H 0.131008 0.061810 0.908010
C20 C 0.1857(4) 0.14070(11) 0.86433(13)
H29 H 0.179615 0.172573 0.860617
H30 H 0.289833 0.133197 0.876748
C21 C 0.0201(3) 0.13417(10) 0.77016(13)
C22 C 0.0054(3) 0.11311(10) 0.70627(13)
C25 C 0.0071(4) 0.09255(11) 0.52816(16)
H33 H 0.008230 0.062511 0.536851
C26 C 0.0808(4) 0.10876(11) 0.48054(16)
H34 H 0.130975 0.089639 0.456596
C27 C 0.0790(3) 0.15326(10) 0.46908(13)
H35 H 0.129169 0.163859 0.437196
Co5 Co 0.00488(4) 0.25154(2) 0.48293(2)
C90 C 0.9255(4) 0.64216(11) 0.02030(15)
H86 H 0.878886 0.659489 0.047618
C91 C 0.9231(3) 0.59695(10) 0.02432(13)
H87 H 0.872273 0.584023 0.054487
Co9_3 Co 1.000000 0.500000 0.000000
Co1 Co 0.49512(4) 0.75154(2) 0.01707(2)
Co2_3 Co -0.000000 1.000000 0.000000
Co3_2 Co 0.500000 1.000000 0.500000
O1 O 0.5779(3) 0.91461(8) 0.22157(11)
O2 O 0.3952(3) 0.83537(8) 0.30293(11)
O13 O 0.2741(2) 0.74811(7) 0.03755(10)
H1 H 0.214001 0.764136 0.014685
H2 H 0.264401 0.752916 0.074875
H4 H 0.777224 0.740427 0.019476
H7 H 0.268183 0.985794 0.553560
H8 H 0.216723 0.994144 0.492742
N1 N 0.4896(3) 0.82166(8) 0.03293(10)
N2 N 0.3577(3) 0.87971(9) 0.19538(11)
H9 H 0.295002 0.860272 0.205720
N3 N 0.6210(3) 0.86796(9) 0.32699(11)
H10 H 0.686170 0.886272 0.315644
N4 N 0.4910(3) 0.92945(8) 0.48647(10)
C2 C 0.5433(4) 0.89438(11) 0.00002(15)
C3 C 0.4720(4) 0.91221(10) 0.04726(15)
H15 H 0.466474 0.942653 0.051922
C4 C 0.4093(3) 0.88436(10) 0.08743(13)
C5 C 0.4210(3) 0.83949(9) 0.07806(12)
H16 H 0.378686 0.820548 0.104735
C6 C 0.3262(4) 0.90278(11) 0.13781(14)
H17 H 0.353060 0.933619 0.143737
H18 H 0.218983 0.901374 0.125408
C7 C 0.4811(3) 0.88797(10) 0.23234(13)
C8 C 0.4945(3) 0.86097(10) 0.29127(14)
C9 C 0.6516(4) 0.84522(11) 0.38497(14)
H19 H 0.758776 0.846305 0.397498
H20 H 0.623183 0.814457 0.379625
C10 C 0.5684(3) 0.86487(10) 0.43472(13)
C11 C 0.4994(4) 0.83840(11) 0.47445(14)
H21 H 0.502126 0.807842 0.470675
C12 C 0.4255(4) 0.85784(11) 0.52030(15)
H22 H 0.378886 0.840511 0.547618
C13 C 0.4231(3) 0.90305(10) 0.52432(13)
H23 H 0.372273 0.915977 0.554487
C14 C 0.5619(3) 0.90996(9) 0.44279(13)
H24 H 0.609485 0.927916 0.416472
C39 C 0.1447(3) 0.99586(9) 0.21637(12)
H41 H 0.076854 0.976652 0.195261
C40 C 0.1654(3) 0.99413(9) 0.28039(12)
H42 H 0.110435 0.973984 0.300911
O17 O 0.0736(2) 0.83994(7) 0.21425(10)
N11 N 0.1187(3) 0.87491(8) 0.32824(11)
H52 H 0.176566 0.855154 0.315147
C54 C 0.0578(4) 0.85699(11) 0.00588(16)
C61 C 0.1584(4) 0.89478(11) 0.38806(13)
H59 H 0.264021 0.889117 0.400342
H60 H 0.145594 0.926497 0.384440
C62 C 0.0679(3) 0.87838(10) 0.43753(13)
C66 C 0.0645(3) 0.83401(10) 0.45201(12)
H64 H 0.114650 0.814319 0.428848
Co4 Co 0.99512(4) 0.74846(2) 0.51707(2)
O25 O 0.8952(3) 0.66463(8) 0.80293(11)
O26 O 0.9208(2) 0.73666(7) 0.42464(8)
O27 O 0.6733(2) 0.72798(8) 0.42603(9)
O28 O 0.8238(3) 0.73502(10) 0.10675(10)
O29 O 0.5754(2) 0.73785(7) 0.10973(8)
O30 O 0.7741(2) 0.75189(7) 0.53755(10)
H71 H 0.714001 0.735864 0.514685
H72 H 0.764401 0.747084 0.574875
N13 N 0.9896(3) 0.67834(8) 0.53293(10)
N14 N 0.8577(3) 0.62029(9) 0.69538(11)
H75 H 0.795002 0.639728 0.705720
N16 N 0.9910(3) 0.57055(8) 0.98647(10)
C81 C 0.9720(4) 0.58779(10) 0.54726(15)
H79 H 0.966474 0.557347 0.551922
C82 C 0.9093(3) 0.61564(10) 0.58743(13)
C83 C 0.9210(3) 0.66051(9) 0.57806(12)
H80 H 0.878686 0.679452 0.604735
C84 C 0.8262(4) 0.59722(11) 0.63781(14)
H81 H 0.853060 0.566381 0.643737
H82 H 0.718983 0.598626 0.625408
C85 C 0.9811(3) 0.61203(10) 0.73234(13)
C86 C 0.9945(3) 0.63903(10) 0.79127(14)
C89 C 0.9994(4) 0.66160(11) 0.97445(14)
C93 C 0.7906(3) 0.72971(9) 0.39923(11)
C94 C 0.7749(3) 0.72529(9) 0.33073(11)
C95 C 0.8509(3) 0.75467(9) 0.29844(13)
H89 H 0.917557 0.774417 0.319127
C96 C 0.8303(3) 0.75561(9) 0.23428(13)
H90 H 0.884656 0.775654 0.213313
C97 C 0.7319(3) 0.72756(9) 0.20249(11)
C98 C 0.7075(3) 0.73331(9) 0.13408(12)
C99 C 0.6571(3) 0.69432(9) 0.23407(11)
C100 C 0.5675(4) 0.66093(11) 0.20333(14)
H91 H 0.549825 0.661741 0.161085
C101 C 0.5075(4) 0.62800(12) 0.23416(17)
H92 H 0.449032 0.606505 0.213027
C102 C 0.5327(5) 0.62600(12) 0.29757(17)
H93 H 0.492067 0.602904 0.318301
C103 C 0.6157(4) 0.65741(10) 0.32917(14)
H94 H 0.630687 0.655662 0.371423
C104 C 0.6803(3) 0.69287(9) 0.29904(11)
O32 O 0.7194(2) 0.99873(7) 0.47765(9)
Co9_4 Co 1.000000 0.500000 1.000000
O33 O 0.5796(2) 0.98794(7) 0.59364(8)
N19 N 0.9929(3) 0.81784(8) 0.49772(10)
Co2_4 Co 0.000000 1.000000 1.000000
O9 O 0.4208(2) 0.76334(7) 0.92464(8)
O10 O 0.1733(2) 0.77202(8) 0.92603(9)
O11 O 0.3238(3) 0.76498(10) 0.60675(10)
O14 O 0.7160(2) 0.75581(7) 0.99621(10)
H3 H 0.725962 0.750567 0.959016
C1 C 0.5490(4) 0.84954(10) 0.99416(14)
H13 H 0.595838 0.837722 0.962112
C2_2 C 0.5433(4) 0.89438(11) 1.00002(15)
H14 H 0.586505 0.912640 0.972766
C41 C 0.2906(3) 0.77029(9) 0.89923(11)
C42 C 0.2749(3) 0.77471(9) 0.83073(11)
C43 C 0.3509(3) 0.74533(9) 0.79844(13)
H43 H 0.417557 0.725583 0.819127
C44 C 0.3303(3) 0.74439(9) 0.73428(13)
H44 H 0.384656 0.724346 0.713313
C45 C 0.2319(3) 0.77244(9) 0.70249(11)
C46 C 0.2075(3) 0.76669(9) 0.63408(12)
C47 C 0.1571(3) 0.80568(9) 0.73407(11)
C48 C 0.0675(4) 0.83907(11) 0.70333(14)
H45 H 0.049825 0.838259 0.661085
C49 C 0.0075(4) 0.87200(12) 0.73416(17)
C50 C 0.0327(5) 0.87400(12) 0.79757(17)
C51 C 0.1157(4) 0.84259(10) 0.82917(14)
H48 H 0.130687 0.844338 0.871423
C52 C 0.1803(3) 0.80713(9) 0.79904(11)
O23 O 0.2226(2) 0.99168(7) 0.98110(9)
H49 H 0.233699 0.997482 0.944152
C53 C 0.0586(4) 0.90110(10) 0.99197(14)
H53 H 0.108727 0.910277 0.959285
H54 H 0.107881 0.836831 0.983406
N18 N 0.4929(3) 0.68216(8) 0.99772(10)
Co2_5 Co 1.000000 -0.000000 0.000000
O15 O 0.7774(2) 0.00832(7) 0.01890(9)
H5 H 0.766301 0.002518 0.055848
C15 C 0.9414(4) 0.09890(10) 0.00803(14)
H25 H 0.891273 0.089723 0.040715
H26 H 0.892119 0.163169 0.016594
Co2_6 Co 1.000000 -0.000000 1.000000
O3 O 0.9264(2) 0.16006(7) 0.78575(10)
N7 N 0.8813(3) 0.12509(8) 0.67176(11)
H12 H 0.823434 0.144846 0.684853
C16 C 0.9422(4) 0.14301(11) 0.99412(16)
C23 C 0.8416(4) 0.10522(11) 0.61194(13)
H31 H 0.735979 0.110883 0.599658
H32 H 0.854406 0.073503 0.615560
C24 C 0.9321(3) 0.12162(10) 0.56247(13)
C28 C 0.9355(3) 0.16599(10) 0.54799(12)
H36 H 0.885350 0.185681 0.571152
C77 C 0.8553(3) 0.00414(9) 0.78363(12)
H69 H 0.923146 0.023348 0.804739
C78 C 0.8346(3) 0.00587(9) 0.71961(12)
H70 H 0.889565 0.026016 0.699089
Co2_7 Co 1.000000 1.000000 0.000000
O18 O 0.8997(2) 0.91234(8) 0.30942(10)
N9 N 0.9901(3) 0.93162(8) 0.02359(10)
N10 N 0.8573(3) 0.87864(9) 0.19534(11)
H51 H 0.801605 0.898904 0.208566
C55 C 0.9816(4) 0.84287(11) 0.05377(15)
H55 H 0.979890 0.813100 0.063970
C56 C 0.9080(3) 0.87356(10) 0.08627(12)
C57 C 0.9168(3) 0.91737(9) 0.06975(12)
H56 H 0.868992 0.938190 0.091990
C58 C 0.8143(4) 0.85930(11) 0.13567(13)
H57 H 0.820385 0.827427 0.139383
H58 H 0.710167 0.866803 0.123252
C59 C 0.9799(3) 0.86583(10) 0.22984(13)
C60 C 0.9946(3) 0.88689(10) 0.29373(13)
C63 C 0.9929(4) 0.90745(11) 0.47184(16)
H61 H 0.991770 0.937489 0.463149
C64 C 0.9192(4) 0.89124(11) 0.51946(16)
H62 H 0.869025 0.910361 0.543404
C65 C 0.9210(3) 0.84674(10) 0.53092(13)
H63 H 0.870831 0.836141 0.562804
Co2_8 Co 1.000000 1.000000 1.000000
H6 H 0.716572 0.992848 0.995548
H46 H 0.949032 0.893495 0.713027
H47 H 0.992067 0.897096 0.818301
O20 O 0.8284(2) 0.98826(9) 0.59167(9)
O21 O 0.9253(2) 0.98541(7) 0.90887(8)
O22 O 0.6782(2) 0.97583(8) 0.91109(9)
C67 C 0.7118(3) 0.98471(9) 0.61867(11)
C68 C 0.7348(3) 0.97837(9) 0.68704(11)
C69 C 0.6590(3) 0.94514(9) 0.71779(11)
C70 C 0.5687(4) 0.91235(10) 0.68610(14)
H65 H 0.552723 0.913425 0.643824
C71 C 0.5051(4) 0.87933(12) 0.71648(17)
H66 H 0.446684 0.858067 0.694809
C72 C 0.5269(4) 0.87715(12) 0.77997(17)
H67 H 0.482443 0.854552 0.800280
C73 C 0.6126(4) 0.90775(10) 0.81222(14)
H68 H 0.626808 0.905596 0.854448
C74 C 0.6807(3) 0.94290(9) 0.78294(11)
C75 C 0.7772(3) 0.97461(9) 0.81541(11)
C76 C 0.7953(3) 0.97821(9) 0.88384(11)
H66_2 H 0.053316 0.358067 0.805191
H67_2 H 0.017557 0.354552 0.699720
C26_2 C 0.4192(4) 0.60876(11) 0.01946(16)
H34_2 H 0.369025 0.589639 0.043404
C27_2 C 0.4210(3) 0.65326(10) 0.03092(13)
H35_2 H 0.370831 0.663859 0.062804
Co2_9 Co 0.500000 0.500000 0.500000
O2_2 O 0.1048(3) 0.33537(8) 0.19707(11)
O3_2 O 0.5736(2) 0.66006(7) 0.71425(10)
O4_2 O 0.3997(2) 0.58766(8) 0.80942(10)
O5_2 O 0.0796(2) 0.51206(7) 0.09364(8)
O6_2 O 0.3284(2) 0.51174(9) 0.09167(9)
O7_2 O 0.4253(2) 0.51459(7) 0.40887(8)
O8_2 O 0.1782(2) 0.52417(8) 0.41109(9)
O9_2 O 0.0792(2) 0.26334(7) 0.57536(8)
O10_2 O 0.3267(2) 0.27202(8) 0.57397(9)
O11_2 O 0.1762(3) 0.26498(10) 0.89325(10)
O12 O 0.4246(2) 0.26215(7) 0.89027(8)
O13_2 O 0.2259(2) 0.24811(7) 0.46245(10)
H1_2 H 0.285999 0.264136 0.485315
H2_2 H 0.235599 0.252916 0.425125
O15_2 O 0.7226(2) 0.50832(7) 0.48110(9)
H5_2 H 0.733699 0.502518 0.444152
H6_2 H 0.783428 0.492848 0.504452
H8_2 H 0.283277 0.494144 0.007258
N1_2 N 0.0104(3) 0.32166(8) 0.46707(10)
N2_2 N 0.1423(3) 0.37971(9) 0.30462(11)
H9_2 H 0.204998 0.360272 0.294280
N4_2 N 0.0090(3) 0.42945(8) 0.01353(10)
N5_2 N 0.4901(3) 0.56838(8) 0.52359(10)
N6_2 N 0.3573(3) 0.62136(9) 0.69534(11)
H11_2 H 0.301605 0.601096 0.708566
N7_2 N 0.6187(3) 0.62509(8) 0.82824(11)
H12_2 H 0.676566 0.644846 0.815147
C3_2 C 0.0280(4) 0.41221(10) 0.45274(15)
H15_2 H 0.033526 0.442653 0.448078
C4_2 C 0.0907(3) 0.38436(10) 0.41257(13)
C5_2 C 0.0790(3) 0.33949(9) 0.42194(12)
H16_2 H 0.121314 0.320548 0.395265
C6_2 C 0.1738(4) 0.40278(11) 0.36219(14)
H17_2 H 0.146940 0.433619 0.356263
H18_2 H 0.281017 0.401374 0.374592
C7_2 C 0.0189(3) 0.38797(10) 0.26766(13)
C8_2 C 0.0055(3) 0.36097(10) 0.20873(14)
C11_2 C 0.0006(4) 0.33840(11) 0.02555(14)
C15_2 C 0.5586(4) 0.59890(10) 0.49197(14)
H25_2 H 0.608727 0.589723 0.459285
C16_2 C 0.5578(4) 0.64301(11) 0.50588(16)
H26_2 H 0.607881 0.663169 0.483406
C17_2 C 0.4816(4) 0.65713(11) 0.55377(15)
H27_2 H 0.479890 0.686900 0.563970
C18_2 C 0.4080(3) 0.62644(10) 0.58627(12)
C19_2 C 0.4168(3) 0.58263(9) 0.56975(12)
H28_2 H 0.368992 0.561810 0.591990
C20_2 C 0.3143(4) 0.64070(11) 0.63567(13)
H29_2 H 0.320385 0.672573 0.639383
H30_2 H 0.210167 0.633197 0.623252
C21_2 C 0.4799(3) 0.63417(10) 0.72984(13)
C22_2 C 0.4946(3) 0.61311(10) 0.79373(13)
C23_2 C 0.6584(4) 0.60522(11) 0.88806(13)
H31_2 H 0.764021 0.610883 0.900342
H32_2 H 0.645594 0.573503 0.884440
C24_2 C 0.5679(3) 0.62162(10) 0.93753(13)
C25_2 C 0.4929(4) 0.59255(11) 0.97184(16)
H33_2 H 0.491770 0.562511 0.963149
C28_2 C 0.5645(3) 0.66599(10) 0.95201(12)
H36_2 H 0.614650 0.685681 0.928848
C29_2 C 0.2118(3) 0.51529(9) 0.11867(11)
C30_2 C 0.2348(3) 0.52163(9) 0.18704(11)
C31_2 C 0.1590(3) 0.55486(9) 0.21779(11)
C32_2 C 0.0687(4) 0.58765(10) 0.18610(14)
H37_2 H 0.052723 0.586575 0.143824
C33_2 C 0.0051(4) 0.62067(12) 0.21648(17)
C34_2 C 0.0269(4) 0.62285(12) 0.27997(17)
C35_2 C 0.1126(4) 0.59225(10) 0.31222(14)
H40_2 H 0.126808 0.594404 0.354448
C36_2 C 0.1807(3) 0.55710(9) 0.28294(11)
C37_2 C 0.2772(3) 0.52539(9) 0.31541(11)
C38_2 C 0.2953(3) 0.52179(9) 0.38384(11)
C39_2 C 0.3553(3) 0.49586(9) 0.28363(12)
H41_2 H 0.423146 0.476652 0.304739
C40_2 C 0.3346(3) 0.49413(9) 0.21961(12)
H42_2 H 0.389565 0.473984 0.199089
C41_2 C 0.2094(3) 0.27029(9) 0.60077(11)
C42_2 C 0.2251(3) 0.27471(9) 0.66927(11)
C43_2 C 0.1491(3) 0.24533(9) 0.70156(13)
H43_2 H 0.082443 0.225583 0.680873
C44_2 C 0.1697(3) 0.24439(9) 0.76572(13)
H44_2 H 0.115344 0.224346 0.786687
C45_2 C 0.2681(3) 0.27244(9) 0.79751(11)
C46_2 C 0.2925(3) 0.26669(9) 0.86592(12)
C47_2 C 0.3429(3) 0.30568(9) 0.76593(11)
C48_2 C 0.4325(4) 0.33907(11) 0.79667(14)
H45_2 H 0.450175 0.338259 0.838915
C49_2 C 0.4925(4) 0.37200(12) 0.76584(17)
H46_2 H 0.550968 0.393495 0.786973
C50_2 C 0.4673(5) 0.37400(12) 0.70243(17)
H47_2 H 0.507933 0.397096 0.681699
C51_2 C 0.3843(4) 0.34259(10) 0.67083(14)
H48_2 H 0.369313 0.344338 0.628577
C52_2 C 0.3197(3) 0.30713(9) 0.70096(11)
O17_2 O 0.4264(2) 0.33994(7) 0.28575(10)
O18_2 O 0.6003(2) 0.41234(8) 0.19058(10)
O19 O 0.9204(2) 0.48794(7) 0.90636(8)
O20_2 O 0.6716(2) 0.48826(9) 0.90833(9)
O21_2 O 0.5747(2) 0.48541(7) 0.59113(8)
O22_2 O 0.8218(2) 0.47583(8) 0.58891(9)
O23_2 O 0.2774(2) 0.49168(7) 0.51890(9)
H49_2 H 0.266301 0.497482 0.555848
H50_2 H 0.216572 0.507152 0.495548
N9_2 N 0.5099(3) 0.43162(8) 0.47641(10)
N10_2 N 0.6427(3) 0.37864(9) 0.30466(11)
H51_2 H 0.698395 0.398904 0.291434
N11_2 N 0.3813(3) 0.37491(8) 0.17176(11)
H52_2 H 0.323434 0.355154 0.184853
N12 N 0.5071(3) 0.31784(8) 0.00228(10)
C53_2 C 0.4414(4) 0.40110(10) 0.50803(14)
H53_2 H 0.391273 0.410277 0.540715
C54_2 C 0.4422(4) 0.35699(11) 0.49412(16)
H54_2 H 0.392119 0.336831 0.516594
C55_2 C 0.5184(4) 0.34287(11) 0.44623(15)
H55_2 H 0.520110 0.313100 0.436030
C56_2 C 0.5920(3) 0.37356(10) 0.41373(12)
C57_2 C 0.5832(3) 0.41737(9) 0.43025(12)
H56_2 H 0.631008 0.438190 0.408010
C58_2 C 0.6857(4) 0.35930(11) 0.36433(13)
H57_2 H 0.679615 0.327427 0.360617
H58_2 H 0.789833 0.366803 0.376748
C59_2 C 0.5201(3) 0.36583(10) 0.27016(13)
C60_2 C 0.5054(3) 0.38689(10) 0.20627(13)
C61_2 C 0.3416(4) 0.39478(11) 0.11194(13)
H59_2 H 0.235979 0.389117 0.099658
H60_2 H 0.354406 0.426497 0.115560
C62_2 C 0.4321(3) 0.37838(10) 0.06247(13)
C63_2 C 0.5071(4) 0.40745(11) 0.02816(16)
H61_2 H 0.508230 0.437489 0.036851
C66_2 C 0.4355(3) 0.33401(10) 0.04799(12)
H64_2 H 0.385350 0.314319 0.071152
C67_2 C 0.7882(3) 0.48471(9) 0.88133(11)
C68_2 C 0.7652(3) 0.47837(9) 0.81296(11)
C69_2 C 0.8410(3) 0.44514(9) 0.78221(11)
C70_2 C 0.9313(4) 0.41235(10) 0.81390(14)
H65_2 H 0.947277 0.413425 0.856176
C71_2 C 0.9949(4) 0.37933(12) 0.78352(17)
C72_2 C 0.9731(4) 0.37715(12) 0.72003(17)
C73_2 C 0.8874(4) 0.40775(10) 0.68778(14)
H68_2 H 0.873192 0.405596 0.645552
C74_2 C 0.8193(3) 0.44290(9) 0.71706(11)
C75_2 C 0.7228(3) 0.47461(9) 0.68459(11)
C76_2 C 0.7047(3) 0.47821(9) 0.61616(11)
C77_2 C 0.6447(3) 0.50414(9) 0.71637(12)
H69_2 H 0.576854 0.523348 0.695261
C78_2 C 0.6654(3) 0.50587(9) 0.78039(12)
H70_2 H 0.610435 0.526016 0.800911
H92_2 H 0.050968 0.106505 0.286973
H93_2 H 0.007933 0.102904 0.181699
Co6 Co 0.50488(4) 0.24846(2) 0.98293(2)
O16_2 O 0.2194(2) 0.50127(7) 0.97765(9)
H7_2 H 0.231817 0.485794 0.946440
C12_2 C 0.0745(4) 0.35784(11) 0.97970(15)
H22_2 H 0.121114 0.340511 0.952382
C13_2 C 0.0769(3) 0.40305(10) 0.97568(13)
H23_2 H 0.127727 0.415977 0.945513
C64_2 C 0.5808(4) 0.39124(11) 0.98054(16)
H62_2 H 0.630975 0.410361 0.956596
C65_2 C 0.5790(3) 0.34674(10) 0.96908(13)
H63_2 H 0.629169 0.336141 0.937196
O1_2 O 0.9221(3) 0.41461(8) 0.27843(11)
O14_2 O 0.7840(2) 0.25581(7) 0.50379(10)
H3_2 H 0.774038 0.250567 0.540984
H4_2 H 0.722776 0.240427 0.480524
N3_2 N 0.8790(3) 0.36796(9) 0.17301(11)
H10_2 H 0.813830 0.386272 0.184356
C1_2 C 0.9510(4) 0.34954(10) 0.50584(14)
H13_2 H 0.904162 0.337722 0.537888
C2_3 C 0.9567(4) 0.39438(11) 0.49998(15)
H14_2 H 0.913495 0.412640 0.527234
C9_2 C 0.8484(4) 0.34522(11) 0.11503(14)
H19_2 H 0.741224 0.346305 0.102502
H20_2 H 0.876817 0.314457 0.120375
C10_2 C 0.9316(3) 0.36487(10) 0.06528(13)
H21_2 H 0.997874 0.307842 0.029325
C14_2 C 0.9381(3) 0.40996(9) 0.05721(13)
H24_2 H 0.890515 0.427916 0.083528
H38_2 H 0.946684 0.641933 0.194809
H39_2 H 0.982443 0.645448 0.300280
O26_2 O 0.5792(2) 0.23666(7) 0.07536(8)
O27_2 O 0.8267(2) 0.22798(8) 0.07397(9)
O28_2 O 0.6762(3) 0.23502(10) 0.39325(10)
O29_2 O 0.9246(2) 0.23785(7) 0.39027(8)
O31_2 O 0.2840(2) 0.24419(7) 0.00379(10)
H73_2 H 0.274038 0.249433 0.040984
C79_2 C 0.4510(4) 0.15046(10) 0.00584(14)
H77_2 H 0.404162 0.162278 0.037888
C80_2 C 0.4567(4) 0.10562(11) -0.00002(15)
H78_2 H 0.413495 0.087360 0.027234
C93_2 C 0.7094(3) 0.22971(9) 0.10077(11)
C94_2 C 0.7251(3) 0.22529(9) 0.16927(11)
C95_2 C 0.6491(3) 0.25467(9) 0.20156(13)
H89_2 H 0.582443 0.274417 0.180873
C96_2 C 0.6697(3) 0.25561(9) 0.26572(13)
H90_2 H 0.615344 0.275654 0.286687
C97_2 C 0.7681(3) 0.22756(9) 0.29751(11)
C98_2 C 0.7925(3) 0.23331(9) 0.36592(12)
C99_2 C 0.8429(3) 0.19432(9) 0.26593(11)
C100_2 C 0.9325(4) 0.16093(11) 0.29667(14)
H91_2 H 0.950175 0.161741 0.338915
C101_2 C 0.9925(4) 0.12800(12) 0.26584(17)
C102_2 C 0.9673(5) 0.12600(12) 0.20243(17)
C103_2 C 0.8843(4) 0.15741(10) 0.17083(14)
H94_2 H 0.869313 0.155662 0.128577
C104_2 C 0.8197(3) 0.19287(9) 0.20096(11)
O32_2 O 0.7806(2) 0.49873(7) 0.02235(9)
H95_2 H 0.768183 0.514206 0.053560
O24_2 O 0.4221(3) 0.08539(8) 0.77843(11)
O25_2 O 0.6048(3) 0.16463(8) 0.69707(11)
O30_2 O 0.7259(2) 0.25189(7) 0.96245(10)
H71_2 H 0.785999 0.235864 0.985315
H72_2 H 0.735599 0.247084 0.925125
H74_2 H 0.222776 0.259573 0.980524
N13_2 N 0.5104(3) 0.17834(8) 0.96707(10)
N14_2 N 0.6423(3) 0.12029(9) 0.80462(11)
H75_2 H 0.704998 0.139728 0.794280
N15_2 N 0.3790(3) 0.13204(9) 0.67301(11)
H76_2 H 0.313830 0.113728 0.684356
C80_3 C 0.4567(4) 0.10562(11) 0.99998(15)
C81_2 C 0.5280(4) 0.08779(10) 0.95274(15)
H79_2 H 0.533526 0.057347 0.948078
C82_2 C 0.5907(3) 0.11564(10) 0.91257(13)
C83_2 C 0.5790(3) 0.16051(9) 0.92194(12)
H80_2 H 0.621314 0.179452 0.895265
C84_2 C 0.6738(4) 0.09722(11) 0.86219(14)
H81_2 H 0.646940 0.066381 0.856263
H82_2 H 0.781017 0.098626 0.874592
C85_2 C 0.5189(3) 0.11203(10) 0.76766(13)
C86_2 C 0.5055(3) 0.13903(10) 0.70873(14)
C87_2 C 0.3484(4) 0.15478(11) 0.61503(14)
H83_2 H 0.241224 0.153695 0.602502
H84_2 H 0.376817 0.185543 0.620375
C88_2 C 0.4316(3) 0.13513(10) 0.56528(13)
C89_2 C 0.5006(4) 0.16160(11) 0.52555(14)
H85_2 H 0.497874 0.192158 0.529325
C90_2 C 0.5745(4) 0.14216(11) 0.47970(15)
H86_2 H 0.621114 0.159489 0.452382
C91_2 C 0.5769(3) 0.09695(10) 0.47568(13)
H87_2 H 0.627727 0.084023 0.445513
C92_2 C 0.4381(3) 0.09004(9) 0.55721(13)
H88_2 H 0.390515 0.072084 0.583528
H96_2 H 0.716723 0.505856 0.992742
loop_
_geom_bond_atom_site_label_1
_geom_bond_atom_site_label_2
_geom_bond_site_symmetry_1
_geom_bond_site_symmetry_2
H73 O31 1_555 1_555
H74 O31 1_555 1_555
N15 H76 1_555 1_555
H77 C79 1_555 1_555
C80 C79 1_555 1_555
H78 C80 1_555 1_555
C87 N15 1_555 1_555
H83 C87 1_555 1_555
H84 C87 1_555 1_555
C88 C87 1_555 1_555
H88 C92 1_555 1_555
C88 C92 1_555 1_555
Co2 O7 1_555 1_555
Co3 O5 1_555 1_555
O5 C29 1_555 1_555
O6 C29 1_555 1_555
O7 C38 1_555 1_555
O8 C38 1_555 1_555
O16 Co3 1_555 1_555
C29 C30 1_555 1_555
C30 C31 1_555 1_555
C31 C32 1_555 1_555
C32 H37 1_555 1_555
C33 C32 1_555 1_555
H38 C33 1_555 1_555
C34 C33 1_555 1_555
H39 C34 1_555 1_555
C35 C34 1_555 1_555
H40 C35 1_555 1_555
C36 C31 1_555 1_555
C37 C36 1_555 1_555
C38 C37 1_555 1_555
N17 Co3 1_555 1_555
C35 C36 1_555 1_555
O4 C22 1_555 1_555
N5 Co2_2 1_555 1_555
N6 H11 1_555 1_555
N8 C27 1_555 1_555
H27 C17 1_555 1_555
C18 C17 1_555 1_555
C19 N5 1_555 1_555
H28 C19 1_555 1_555
C20 N6 1_555 1_555
H29 C20 1_555 1_555
H30 C20 1_555 1_555
C21 N6 1_555 1_555
H33 C25 1_555 1_555
C26 C25 1_555 1_555
H34 C26 1_555 1_555
C27 C26 1_555 1_555
H35 C27 1_555 1_555
Co5 N8 1_555 1_555
C18 C19 1_555 1_555
C18 C20 1_555 1_555
C21 C22 1_555 1_555
H86 C90 1_555 1_555
C91 C90 1_555 1_555
H87 C91 1_555 1_555
O1 C7 1_555 1_555
O2 C8 1_555 1_555
O13 Co1 1_555 1_555
H1 O13 1_555 1_555
H2 O13 1_555 1_555
N1 Co1 1_555 1_555
N2 H9 1_555 1_555
N3 H10 1_555 1_555
N4 Co3_2 1_555 1_555
C3 C2 1_555 1_555
H15 C3 1_555 1_555
C4 C3 1_555 1_555
C5 N1 1_555 1_555
H16 C5 1_555 1_555
C6 N2 1_555 1_555
H17 C6 1_555 1_555
H18 C6 1_555 1_555
C7 N2 1_555 1_555
C8 N3 1_555 1_555
C9 N3 1_555 1_555
H19 C9 1_555 1_555
H20 C9 1_555 1_555
C10 C9 1_555 1_555
C11 C10 1_555 1_555
H21 C11 1_555 1_555
C12 C11 1_555 1_555
H22 C12 1_555 1_555
C13 N4 1_555 1_555
H23 C13 1_555 1_555
C14 N4 1_555 1_555
H24 C14 1_555 1_555
H41 C39 1_555 1_555
H42 C40 1_555 1_555
N11 H52 1_555 1_555
C61 N11 1_555 1_555
H59 C61 1_555 1_555
H60 C61 1_555 1_555
C62 C61 1_555 1_555
H64 C66 1_555 1_555
Co4 O26 1_555 1_555
O25 C86 1_555 1_555
O26 C93 1_555 1_555
O27 C93 1_555 1_555
O28 C98 1_555 1_555
O29 Co1 1_555 1_555
O30 Co4 1_555 1_555
H71 O30 1_555 1_555
H72 O30 1_555 1_555
N13 Co4 1_555 1_555
N14 H75 1_555 1_555
H79 C81 1_555 1_555
C82 C81 1_555 1_555
C83 N13 1_555 1_555
H80 C83 1_555 1_555
C84 N14 1_555 1_555
H81 C84 1_555 1_555
H82 C84 1_555 1_555
C85 N14 1_555 1_555
C93 C94 1_555 1_555
C94 C95 1_555 1_555
C95 H89 1_555 1_555
C96 C95 1_555 1_555
H90 C96 1_555 1_555
C97 C96 1_555 1_555
C98 O29 1_555 1_555
C99 C97 1_555 1_555
C100 C99 1_555 1_555
H91 C100 1_555 1_555
C101 C100 1_555 1_555
H92 C101 1_555 1_555
C102 C101 1_555 1_555
H93 C102 1_555 1_555
C103 C102 1_555 1_555
H94 C103 1_555 1_555
C104 C94 1_555 1_555
O32 Co3_2 1_555 1_555
Co9_4 N16 1_555 1_555
O33 Co3_2 1_555 1_555
N19 Co4 1_555 1_555
C4 C5 1_555 1_555
C4 C6 1_555 1_555
C7 C8 1_555 1_555
C10 C14 1_555 1_555
C12 C13 1_555 1_555
C39 C40 1_555 1_555
C62 C66 1_555 1_555
C82 C83 1_555 1_555
C82 C84 1_555 1_555
C85 C86 1_555 1_555
C97 C98 1_555 1_555
C99 C104 1_555 1_555
C103 C104 1_555 1_555
O9 C41 1_555 1_555
O10 C41 1_555 1_555
O11 C46 1_555 1_555
O34 C46 1_555 1_555
H3 O14 1_555 1_555
H13 C1 1_555 1_555
C2_2 C1 1_555 1_555
H14 C2_2 1_555 1_555
C41 C42 1_555 1_555
C42 C43 1_555 1_555
C43 H43 1_555 1_555
C44 C43 1_555 1_555
H44 C44 1_555 1_555
C45 C44 1_555 1_555
C46 C45 1_555 1_555
C47 C45 1_555 1_555
C48 C47 1_555 1_555
H45 C48 1_555 1_555
C49 C48 1_555 1_555
C50 C49 1_555 1_555
C51 C50 1_555 1_555
H48 C51 1_555 1_555
C52 C42 1_555 1_555
O23 Co2_4 1_555 1_555
H49 O23 1_555 1_555
H53 C53 1_555 1_555
C47 C52 1_555 1_555
C51 C52 1_555 1_555
O15 Co2_5 1_555 1_555
H5 O15 1_555 1_555
H25 C15 1_555 1_555
N7 H12 1_555 1_555
C23 N7 1_555 1_555
H31 C23 1_555 1_555
H32 C23 1_555 1_555
C24 C23 1_555 1_555
H36 C28 1_555 1_555
H69 C77 1_555 1_555
H70 C78 1_555 1_555
C24 C28 1_555 1_555
C77 C78 1_555 1_555
O18 C60 1_555 1_555
N9 Co2_7 1_555 1_555
N10 H51 1_555 1_555
N19 C65 1_555 1_555
H55 C55 1_555 1_555
C56 C55 1_555 1_555
C57 N9 1_555 1_555
H56 C57 1_555 1_555
C58 N10 1_555 1_555
H57 C58 1_555 1_555
H58 C58 1_555 1_555
C59 N10 1_555 1_555
H61 C63 1_555 1_555
C64 C63 1_555 1_555
H62 C64 1_555 1_555
C65 C64 1_555 1_555
H63 C65 1_555 1_555
C56 C57 1_555 1_555
C56 C58 1_555 1_555
C59 C60 1_555 1_555
O33 C67 1_555 1_555
O20 C67 1_555 1_555
O21 Co2_8 1_555 1_555
O22 C76 1_555 1_555
C67 C68 1_555 1_555
C68 C69 1_555 1_555
C69 C70 1_555 1_555
C70 H65 1_555 1_555
C71 C70 1_555 1_555
H66 C71 1_555 1_555
C72 C71 1_555 1_555
H67 C72 1_555 1_555
C73 C72 1_555 1_555
H68 C73 1_555 1_555
C74 C69 1_555 1_555
C75 C74 1_555 1_555
C76 O21 1_555 1_555
C73 C74 1_555 1_555
C75 C76 1_555 1_555
H34_2 C26_2 1_555 1_555
C27_2 C26_2 1_555 1_555
H35_2 C27_2 1_555 1_555
Co5 O9_2 1_555 1_555
Co2_9 O7_2 1_555 1_555
Co9 O5_2 1_555 1_555
O2_2 C8_2 1_555 1_555
O3_2 C21_2 1_555 1_555
O4_2 C22_2 1_555 1_555
O5_2 C29_2 1_555 1_555
O6_2 C29_2 1_555 1_555
O7_2 C38_2 1_555 1_555
O8_2 C38_2 1_555 1_555
O9_2 C41_2 1_555 1_555
O10_2 C41_2 1_555 1_555
O11_2 C46_2 1_555 1_555
O12 C46_2 1_555 1_555
O13_2 Co5 1_555 1_555
H1_2 O13_2 1_555 1_555
H2_2 O13_2 1_555 1_555
O15_2 Co2_9 1_555 1_555
H5_2 O15_2 1_555 1_555
H6_2 O15_2 1_555 1_555
N1_2 Co5 1_555 1_555
N2_2 H9_2 1_555 1_555
N4_2 Co9 1_555 1_555
N5_2 Co2_9 1_555 1_555
N6_2 H11_2 1_555 1_555
N7_2 H12_2 1_555 1_555
H15_2 C3_2 1_555 1_555
C4_2 C3_2 1_555 1_555
C5_2 N1_2 1_555 1_555
H16_2 C5_2 1_555 1_555
C6_2 N2_2 1_555 1_555
H17_2 C6_2 1_555 1_555
H18_2 C6_2 1_555 1_555
C7_2 N2_2 1_555 1_555
C15_2 N5_2 1_555 1_555
H25_2 C15_2 1_555 1_555
C16_2 C15_2 1_555 1_555
H26_2 C16_2 1_555 1_555
C17_2 C16_2 1_555 1_555
H27_2 C17_2 1_555 1_555
C18_2 C17_2 1_555 1_555
C19_2 N5_2 1_555 1_555
H28_2 C19_2 1_555 1_555
C20_2 N6_2 1_555 1_555
H29_2 C20_2 1_555 1_555
H30_2 C20_2 1_555 1_555
C21_2 N6_2 1_555 1_555
C22_2 N7_2 1_555 1_555
C23_2 N7_2 1_555 1_555
H31_2 C23_2 1_555 1_555
H32_2 C23_2 1_555 1_555
C24_2 C23_2 1_555 1_555
C25_2 C24_2 1_555 1_555
H33_2 C25_2 1_555 1_555
C28_2 N18 1_555 1_555
H36_2 C28_2 1_555 1_555
C29_2 C30_2 1_555 1_555
C30_2 C31_2 1_555 1_555
C31_2 C32_2 1_555 1_555
C32_2 H37_2 1_555 1_555
C33_2 C32_2 1_555 1_555
C34_2 C33_2 1_555 1_555
C35_2 C34_2 1_555 1_555
H40_2 C35_2 1_555 1_555
C36_2 C31_2 1_555 1_555
C37_2 C36_2 1_555 1_555
C38_2 C37_2 1_555 1_555
C39_2 C37_2 1_555 1_555
H41_2 C39_2 1_555 1_555
C40_2 C30_2 1_555 1_555
H42_2 C40_2 1_555 1_555
C41_2 C42_2 1_555 1_555
C42_2 C43_2 1_555 1_555
C43_2 H43_2 1_555 1_555
C44_2 C43_2 1_555 1_555
H44_2 C44_2 1_555 1_555
C45_2 C44_2 1_555 1_555
C46_2 C45_2 1_555 1_555
C47_2 C45_2 1_555 1_555
C48_2 C47_2 1_555 1_555
H45_2 C48_2 1_555 1_555
C49_2 C48_2 1_555 1_555
H46_2 C49_2 1_555 1_555
C50_2 C49_2 1_555 1_555
H47_2 C50_2 1_555 1_555
C51_2 C50_2 1_555 1_555
H48_2 C51_2 1_555 1_555
C52_2 C42_2 1_555 1_555
O17_2 C59_2 1_555 1_555
O18_2 C60_2 1_555 1_555
O19 C67_2 1_555 1_555
O20_2 C67_2 1_555 1_555
O21_2 Co2_9 1_555 1_555
O22_2 C76_2 1_555 1_555
O23_2 Co2_9 1_555 1_555
H49_2 O23_2 1_555 1_555
H50_2 O23_2 1_555 1_555
N9_2 Co2_9 1_555 1_555
N10_2 H51_2 1_555 1_555
N11_2 H52_2 1_555 1_555
C53_2 N9_2 1_555 1_555
H53_2 C53_2 1_555 1_555
C54_2 C53_2 1_555 1_555
H54_2 C54_2 1_555 1_555
C55_2 C54_2 1_555 1_555
H55_2 C55_2 1_555 1_555
C56_2 C55_2 1_555 1_555
C57_2 N9_2 1_555 1_555
H56_2 C57_2 1_555 1_555
C58_2 N10_2 1_555 1_555
H57_2 C58_2 1_555 1_555
H58_2 C58_2 1_555 1_555
C59_2 N10_2 1_555 1_555
C60_2 N11_2 1_555 1_555
C61_2 N11_2 1_555 1_555
H59_2 C61_2 1_555 1_555
H60_2 C61_2 1_555 1_555
C62_2 C61_2 1_555 1_555
C63_2 C62_2 1_555 1_555
H61_2 C63_2 1_555 1_555
C66_2 N12 1_555 1_555
H64_2 C66_2 1_555 1_555
C67_2 C68_2 1_555 1_555
C68_2 C69_2 1_555 1_555
C69_2 C70_2 1_555 1_555
C70_2 H65_2 1_555 1_555
C71_2 C70_2 1_555 1_555
C72_2 C71_2 1_555 1_555
C73_2 C72_2 1_555 1_555
H68_2 C73_2 1_555 1_555
C74_2 C69_2 1_555 1_555
C75_2 C74_2 1_555 1_555
C76_2 O21_2 1_555 1_555
C77_2 C75_2 1_555 1_555
H69_2 C77_2 1_555 1_555
C78_2 C68_2 1_555 1_555
H70_2 C78_2 1_555 1_555
Co6 O12 1_555 1_555
Co9_4 O19 1_555 1_555
C4_2 C5_2 1_555 1_555
C4_2 C6_2 1_555 1_555
C7_2 C8_2 1_555 1_555
C18_2 C19_2 1_555 1_555
C18_2 C20_2 1_555 1_555
C21_2 C22_2 1_555 1_555
C24_2 C28_2 1_555 1_555
C35_2 C36_2 1_555 1_555
C39_2 C40_2 1_555 1_555
C47_2 C52_2 1_555 1_555
C51_2 C52_2 1_555 1_555
C56_2 C57_2 1_555 1_555
C56_2 C58_2 1_555 1_555
C59_2 C60_2 1_555 1_555
C62_2 C66_2 1_555 1_555
C73_2 C74_2 1_555 1_555
C75_2 C76_2 1_555 1_555
C77_2 C78_2 1_555 1_555
O16_2 Co9_2 1_555 1_555
H7_2 O16_2 1_555 1_555
H22_2 C12_2 1_555 1_555
H23_2 C13_2 1_555 1_555
H62_2 C64_2 1_555 1_555
C65_2 C64_2 1_555 1_555
H63_2 C65_2 1_555 1_555
C12_2 C13_2 1_555 1_555
H3_2 O14_2 1_555 1_555
H4_2 O14_2 1_555 1_555
N3_2 H10_2 1_555 1_555
H13_2 C1_2 1_555 1_555
C2_3 C1_2 1_555 1_555
H14_2 C2_3 1_555 1_555
C9_2 N3_2 1_555 1_555
H19_2 C9_2 1_555 1_555
H20_2 C9_2 1_555 1_555
C10_2 C9_2 1_555 1_555
H24_2 C14_2 1_555 1_555
O26_2 C93_2 1_555 1_555
O27_2 C93_2 1_555 1_555
O28_2 C98_2 1_555 1_555
H73_2 O31_2 1_555 1_555
H77_2 C79_2 1_555 1_555
C80_2 C79_2 1_555 1_555
H78_2 C80_2 1_555 1_555
C93_2 C94_2 1_555 1_555
C94_2 C95_2 1_555 1_555
C95_2 H89_2 1_555 1_555
C96_2 C95_2 1_555 1_555
H90_2 C96_2 1_555 1_555
C97_2 C96_2 1_555 1_555
C98_2 O29_2 1_555 1_555
C99_2 C97_2 1_555 1_555
C100_2 C99_2 1_555 1_555
H91_2 C100_2 1_555 1_555
C101_2 C100_2 1_555 1_555
C102_2 C101_2 1_555 1_555
C103_2 C102_2 1_555 1_555
H94_2 C103_2 1_555 1_555
C104_2 C94_2 1_555 1_555
O32_2 Co9_3 1_555 1_555
H95_2 O32_2 1_555 1_555
C10_2 C14_2 1_555 1_555
C97_2 C98_2 1_555 1_555
C99_2 C104_2 1_555 1_555
C103_2 C104_2 1_555 1_555
O24_2 C85_2 1_555 1_555
O25_2 C86_2 1_555 1_555
O30_2 Co6 1_555 1_555
H71_2 O30_2 1_555 1_555
H72_2 O30_2 1_555 1_555
N13_2 Co6 1_555 1_555
N14_2 H75_2 1_555 1_555
N15_2 H76_2 1_555 1_555
N17 C91_2 1_555 1_555
C81_2 C80_3 1_555 1_555
H79_2 C81_2 1_555 1_555
C82_2 C81_2 1_555 1_555
C83_2 N13_2 1_555 1_555
H80_2 C83_2 1_555 1_555
C84_2 N14_2 1_555 1_555
H81_2 C84_2 1_555 1_555
H82_2 C84_2 1_555 1_555
C85_2 N14_2 1_555 1_555
C86_2 N15_2 1_555 1_555
C87_2 N15_2 1_555 1_555
H83_2 C87_2 1_555 1_555
H84_2 C87_2 1_555 1_555
C88_2 C87_2 1_555 1_555
C89_2 C88_2 1_555 1_555
H85_2 C89_2 1_555 1_555
C90_2 C89_2 1_555 1_555
H86_2 C90_2 1_555 1_555
C91_2 C90_2 1_555 1_555
H87_2 C91_2 1_555 1_555
C92_2 N17 1_555 1_555
H88_2 C92_2 1_555 1_555
C82_2 C83_2 1_555 1_555
C82_2 C84_2 1_555 1_555
C85_2 C86_2 1_555 1_555
C88_2 C92_2 1_555 1_555

#END
