
###############################################################################
#
# This file contains modified crystal structure data generated from the
# MOF subset of the Cambridge Structural Database (CSD) v543 
# hosted by the Cambridge Crystallographic Data Centre (CCDC).
#
# This work is licensed under the Creative Commons
# Attribution-NonCommercial-ShareAlike 4.0 International License.
# To view a copy of this license, visit
# http://creativecommons.org/licenses/by-nc-sa/4.0/
# or send a letter to
# Creative Commons, PO Box 1866, Mountain View, CA 94042, USA.
#
# CIF created using the CSD Python API on 29 September 2022
# The structure has been converted into the P1 space group
# The structure has a 3D framework
# The original CSD entry PEMRIK is in the monoclinic crystal system
# The framework has been calculated to contain at least 10.0% void space
# The void calculation uses a probe of radius 1.32A, grid spacing 0.4
#
###############################################################################

data_PEMRIK
_chemical_formula_moiety         '(C224 H136 N40 O64 Zn16)n'
_symmetry_cell_setting           triclinic
_symmetry_space_group_name_H-M   'P 1'
_symmetry_Int_Tables_number      1
_space_group_name_Hall           'P 1'
loop_
_symmetry_equiv_pos_site_id
_symmetry_equiv_pos_as_xyz
1 x,y,z
_cell_length_a                   34.6925(7)
_cell_length_b                   16.6027(4)
_cell_length_c                   13.7633(3)
_cell_angle_alpha                90
_cell_angle_beta                 105.3030(10)
_cell_angle_gamma                90
_cell_volume                     7646.43
loop_
_atom_site_label
_atom_site_type_symbol
_atom_site_fract_x
_atom_site_fract_y
_atom_site_fract_z
Zn1 Zn 0.174439(9) 0.254488(17) 0.24412(2)
Zn2 Zn 0.086229(9) 0.244780(17) 0.18370(2)
O3 O 0.10388(6) 0.18245(13) 0.07413(16)
O4 O 0.17021(6) 0.18601(12) 0.12033(15)
O5 O 0.08784(6) 0.65265(12) 0.60350(16)
O6 O 0.15427(6) 0.64802(11) 0.65478(15)
O7 O 0.09062(6) 0.31724(12) 0.30392(15)
O8 O 0.15731(6) 0.31624(12) 0.35601(15)
N1 N 0.02780(6) 0.21086(13) 0.13028(17)
C2 C 0.13750(8) 0.15918(15) 0.06870(19)
H4 H 0.1985 0.0824 0.0257
C9 C 0.12108(8) 0.62177(15) 0.6062(2)
C10 C 0.12115(8) 0.54670(16) 0.54554(19)
C11 C 0.08554(8) 0.51260(17) 0.4887(2)
H5 H 0.0610 0.5355 0.4906
C12 C 0.15722(8) 0.51074(17) 0.5444(2)
H6 H 0.1814 0.5325 0.5836
C13 C 0.12341(8) 0.34194(15) 0.35767(19)
C14 C 0.12235(8) 0.41039(15) 0.4277(2)
C15 C 0.15777(8) 0.44321(16) 0.4861(2)
H7 H 0.1823 0.4193 0.4860
C16 C 0.08615(8) 0.44576(16) 0.4302(2)
H8 H 0.0620 0.4237 0.3915
C17 C 0.02022(9) 0.13531(18) 0.1010(3)
H9 H 0.0408 0.0971 0.1206
H12 H 0.0024 0.3156 0.1314
Zn4 Zn 0.174439(9) 0.745512(17) 0.74412(2)
Zn7 Zn 0.086229(9) 0.755220(17) 0.68370(2)
O9 O 0.17212(6) 0.15284(11) 0.32397(16)
O10 O 0.10560(6) 0.14783(11) 0.27419(17)
O11 O 0.08784(6) 0.34735(12) 0.10350(16)
O12 O 0.15427(6) 0.35198(11) 0.15478(15)
N6 N 0.23381(6) 0.28124(13) 0.28574(16)
O1 O 0.17212(6) 0.84716(11) 0.82397(16)
O2 O 0.10560(6) 0.85217(11) 0.77419(17)
C1 C 0.13886(9) 0.87848(15) 0.8214(2)
C5 C 0.10320(8) 0.99054(18) 0.8826(2)
H2 H 0.0790 0.9686 0.8441
C6 C 0.13922(8) 0.95466(15) 0.88065(19)
C7 C 0.17457(8) 0.98975(17) 0.9338(2)
H3 H 0.1991 0.9669 0.9312
N2 N 0.73381(6) 0.21876(13) 0.78574(16)
N3 N 0.91547(7) 0.14262(14) 0.9524(2)
N4 N 0.88221(6) 0.18569(14) 0.94531(18)
C22 C 0.85457(7) 0.14615(17) 0.8766(2)
C23 C 0.87152(10) 0.0798(2) 0.8434(3)
H13 H 0.8581 0.0429 0.7944
N5 N 0.91045(8) 0.07688(19) 0.8930(3)
C24 C 0.81317(7) 0.17221(17) 0.8455(2)
C25 C 0.79719(8) 0.22015(18) 0.9072(2)
H14 H 0.8130 0.2372 0.9704
C26 C 0.75757(8) 0.24241(17) 0.8740(2)
H15 H 0.7468 0.2758 0.9155
C27 C 0.74958(8) 0.1744(2) 0.7250(2)
H16 H 0.7333 0.1591 0.6616
C28 C 0.78913(8) 0.1501(2) 0.7523(2)
H17 H 0.7995 0.1190 0.7080
Zn5 Zn 0.674439(9) 0.245512(17) 0.74412(2)
O5_2 O 0.58784(6) 0.15265(12) 0.60350(16)
O6_2 O 0.65427(6) 0.14802(11) 0.65478(15)
C9_2 C 0.62108(8) 0.12177(15) 0.6062(2)
C10_2 C 0.62115(8) 0.04670(16) 0.54554(19)
C11_2 C 0.58554(8) 0.01260(17) 0.4887(2)
H5_2 H 0.5610 0.0355 0.4906
C12_2 C 0.65722(8) 0.01074(17) 0.5444(2)
H6_2 H 0.6814 0.0325 0.5836
Zn7_2 Zn 0.586229(9) 0.255220(17) 0.68370(2)
Zn1_2 Zn 0.674439(9) 0.754488(17) 0.24412(2)
Zn2_2 Zn 0.586229(9) 0.744780(17) 0.18370(2)
O3_2 O 0.60388(6) 0.68245(13) 0.07413(16)
O4_2 O 0.67021(6) 0.68601(12) 0.12033(15)
O7_2 O 0.59062(6) 0.81724(12) 0.30392(15)
O8_2 O 0.65731(6) 0.81624(12) 0.35601(15)
N1_2 N 0.52780(6) 0.71086(13) 0.13028(17)
C2_2 C 0.63750(8) 0.65918(15) 0.06870(19)
H4_2 H 0.6985 0.5824 0.0257
C13_2 C 0.62341(8) 0.84194(15) 0.35767(19)
C14_2 C 0.62235(8) 0.91039(15) 0.4277(2)
C15_2 C 0.65777(8) 0.94321(16) 0.4861(2)
H7_2 H 0.6823 0.9193 0.4860
C16_2 C 0.58615(8) 0.94576(16) 0.4302(2)
H8_2 H 0.5620 0.9237 0.3915
C17_2 C 0.52022(9) 0.63531(18) 0.1010(3)
H9_2 H 0.5408 0.5971 0.1206
C18 C 0.48354(9) 0.61003(19) 0.0432(3)
H10 H 0.4794 0.5560 0.0227
C19 C 0.45301(7) 0.66545(17) 0.0160(2)
C20 C 0.46012(9) 0.74283(19) 0.0507(3)
H11 H 0.4397 0.7816 0.0359
C21 C 0.49771(8) 0.76253(18) 0.1074(3)
H12_2 H 0.5024 0.8156 0.1314
O9_2 O 0.67212(6) 0.65284(11) 0.32397(16)
O10_2 O 0.60560(6) 0.64783(11) 0.27419(17)
O11_2 O 0.58784(6) 0.84735(12) 0.10350(16)
O12_2 O 0.65427(6) 0.85198(11) 0.15478(15)
N6_2 N 0.73381(6) 0.78124(13) 0.28574(16)
O1_2 O 0.67212(6) 0.34716(11) 0.82397(16)
O2_2 O 0.60560(6) 0.35217(11) 0.77419(17)
N2_2 N 0.23381(6) 0.71876(13) 0.78574(16)
C1_2 C 0.63886(9) 0.37848(15) 0.8214(2)
C3 C 0.63840(8) 0.59167(15) 0.9969(2)
C4 C 0.60284(9) 0.55785(18) 0.9405(2)
H1 H 0.5783 0.5813 0.9420
C5_2 C 0.60320(8) 0.49054(18) 0.8826(2)
H2_2 H 0.5790 0.4686 0.8441
C6_2 C 0.63922(8) 0.45466(15) 0.88065(19)
C7_2 C 0.67457(8) 0.48975(17) 0.9338(2)
H3_2 H 0.6991 0.4669 0.9312
C8 C 0.67421(8) 0.55835(16) 0.9908(2)
N3_2 N 0.41547(7) 0.64262(14) 0.9524(2)
N4_2 N 0.38221(6) 0.68569(14) 0.94531(18)
C22_2 C 0.35457(7) 0.64615(17) 0.8766(2)
C23_2 C 0.37152(10) 0.5798(2) 0.8434(3)
H13_2 H 0.3581 0.5429 0.7944
N5_2 N 0.41045(8) 0.57688(19) 0.8930(3)
C24_2 C 0.31317(7) 0.67221(17) 0.8455(2)
C25_2 C 0.29719(8) 0.72015(18) 0.9072(2)
H14_2 H 0.3130 0.7372 0.9704
C26_2 C 0.25757(8) 0.74241(17) 0.8740(2)
H15_2 H 0.2468 0.7758 0.9155
C27_2 C 0.24958(8) 0.6744(2) 0.7250(2)
H16_2 H 0.2333 0.6591 0.6616
C28_2 C 0.28913(8) 0.6501(2) 0.7523(2)
H17_2 H 0.2995 0.6190 0.7080
C1_3 C 0.13886(9) 0.12152(15) 0.3214(2)
C5_3 C 0.10320(8) 0.00946(18) 0.3826(2)
H2_3 H 0.0790 0.0314 0.3441
C6_3 C 0.13922(8) 0.04534(15) 0.38065(19)
C7_3 C 0.17457(8) 0.01025(17) 0.4338(2)
H3_3 H 0.1991 0.0331 0.4312
C9_3 C 0.12108(8) 0.37823(15) 0.1062(2)
C10_3 C 0.12115(8) 0.45330(16) 0.04554(19)
C12_3 C 0.15722(8) 0.48926(17) 0.0444(2)
H6_3 H 0.1814 0.4675 0.0836
O3_3 O 0.10388(6) 0.81755(13) 0.57413(16)
O4_3 O 0.17021(6) 0.81399(12) 0.62033(15)
O7_3 O 0.09062(6) 0.68276(12) 0.80392(15)
O8_3 O 0.15731(6) 0.68376(12) 0.85601(15)
N1_3 N 0.02780(6) 0.78914(13) 0.63028(17)
C2_3 C 0.13750(8) 0.84082(15) 0.56870(19)
C3_2 C 0.13840(8) 0.90833(15) 0.4969(2)
C4_2 C 0.10284(9) 0.94215(18) 0.4405(2)
H1_2 H 0.0783 0.9187 0.4420
C8_2 C 0.17421(8) 0.94165(16) 0.4908(2)
H4_3 H 0.1985 0.9176 0.5257
C11_3 C 0.08554(8) 0.48740(17) 0.9887(2)
H5_3 H 0.0610 0.4645 0.9906
C13_3 C 0.12341(8) 0.65806(15) 0.85767(19)
C14_3 C 0.12235(8) 0.58961(15) 0.9277(2)
C15_3 C 0.15777(8) 0.55679(16) 0.9861(2)
H7_3 H 0.1823 0.5807 0.9860
C16_3 C 0.08615(8) 0.55424(16) 0.9302(2)
H8_3 H 0.0620 0.5763 0.8915
C17_3 C 0.02022(9) 0.86469(18) 0.6010(3)
H9_3 H 0.0408 0.9029 0.6206
H12_3 H 0.0024 0.6844 0.6314
C18_2 C 0.98354(9) 0.88997(19) 0.5432(3)
H10_2 H 0.9794 0.9440 0.5227
C19_2 C 0.95301(7) 0.83455(17) 0.5160(2)
C20_2 C 0.96012(9) 0.75717(19) 0.5507(3)
H11_2 H 0.9397 0.7184 0.5359
C21_2 C 0.99771(8) 0.73747(18) 0.6074(3)
N3_3 N 0.91547(7) 0.85738(14) 0.4524(2)
N4_3 N 0.88221(6) 0.81431(14) 0.44531(18)
C22_3 C 0.85457(7) 0.85385(17) 0.3766(2)
C23_3 C 0.87152(10) 0.9202(2) 0.3434(3)
H13_3 H 0.8581 0.9571 0.2944
N5_3 N 0.91045(8) 0.92312(19) 0.3930(3)
C24_3 C 0.81317(7) 0.82779(17) 0.3455(2)
C25_3 C 0.79719(8) 0.77985(18) 0.4072(2)
H14_3 H 0.8130 0.7628 0.4704
C26_3 C 0.75757(8) 0.75759(17) 0.3740(2)
H15_3 H 0.7468 0.7242 0.4155
C27_3 C 0.74958(8) 0.8256(2) 0.2250(2)
H16_3 H 0.7333 0.8409 0.1616
C28_3 C 0.78913(8) 0.8499(2) 0.2523(2)
H17_3 H 0.7995 0.8810 0.2080
O3_4 O 0.60388(6) 0.31755(13) 0.57413(16)
O4_4 O 0.67021(6) 0.31399(12) 0.62033(15)
O7_4 O 0.59062(6) 0.18276(12) 0.80392(15)
O8_4 O 0.65731(6) 0.18376(12) 0.85601(15)
N1_4 N 0.52780(6) 0.28914(13) 0.63028(17)
C1_4 C 0.63886(9) 0.62152(15) 0.3214(2)
C2_4 C 0.63750(8) 0.34082(15) 0.56870(19)
C3_3 C 0.63840(8) 0.40833(15) 0.4969(2)
C4_3 C 0.60284(9) 0.44215(18) 0.4405(2)
H1_3 H 0.5783 0.4187 0.4420
C5_4 C 0.60320(8) 0.50946(18) 0.3826(2)
H2_4 H 0.5790 0.5314 0.3441
C6_4 C 0.63922(8) 0.54534(15) 0.38065(19)
C7_4 C 0.67457(8) 0.51025(17) 0.4338(2)
H3_4 H 0.6991 0.5331 0.4312
C8_3 C 0.67421(8) 0.44165(16) 0.4908(2)
H4_4 H 0.6985 0.4176 0.5257
C13_4 C 0.62341(8) 0.15806(15) 0.85767(19)
C14_4 C 0.62235(8) 0.08961(15) 0.9277(2)
C15_4 C 0.65777(8) 0.05679(16) 0.9861(2)
H7_4 H 0.6823 0.0807 0.9860
C16_4 C 0.58615(8) 0.05424(16) 0.9302(2)
H8_4 H 0.5620 0.0763 0.8915
C17_4 C 0.52022(9) 0.36469(18) 0.6010(3)
H9_4 H 0.5408 0.4029 0.6206
C18_3 C 0.48354(9) 0.38997(19) 0.5432(3)
H10_3 H 0.4794 0.4440 0.5227
C19_3 C 0.45301(7) 0.33455(17) 0.5160(2)
C20_3 C 0.46012(9) 0.25717(19) 0.5507(3)
H11_3 H 0.4397 0.2184 0.5359
C21_3 C 0.49771(8) 0.23747(18) 0.6074(3)
H12_4 H 0.5024 0.1844 0.6314
N3_4 N 0.41547(7) 0.35738(14) 0.4524(2)
N4_4 N 0.38221(6) 0.31431(14) 0.44531(18)
C22_4 C 0.35457(7) 0.35385(17) 0.3766(2)
C23_4 C 0.37152(10) 0.4202(2) 0.3434(3)
H13_4 H 0.3581 0.4571 0.2944
N5_4 N 0.41045(8) 0.42312(19) 0.3930(3)
C24_4 C 0.31317(7) 0.32779(17) 0.3455(2)
C25_4 C 0.29719(8) 0.27985(18) 0.4072(2)
H14_4 H 0.3130 0.2628 0.4704
C26_4 C 0.25757(8) 0.25759(17) 0.3740(2)
H15_4 H 0.2468 0.2242 0.4155
C27_4 C 0.24958(8) 0.3256(2) 0.2250(2)
H16_4 H 0.2333 0.3409 0.1616
C28_4 C 0.28913(8) 0.3499(2) 0.2523(2)
H17_4 H 0.2995 0.3810 0.2080
C9_4 C 0.62108(8) 0.87823(15) 0.1062(2)
C10_4 C 0.62115(8) 0.95330(16) 0.04554(19)
C12_4 C 0.65722(8) 0.98926(17) 0.0444(2)
H6_4 H 0.6814 0.9675 0.0836
C3_4 C 0.13840(8) 0.09167(15) 0.9969(2)
C4_4 C 0.10284(9) 0.05785(18) 0.9405(2)
H1_4 H 0.0783 0.0813 0.9420
C8_4 C 0.17421(8) 0.05835(16) 0.9908(2)
C18_4 C 0.98354(9) 0.11003(19) 0.0432(3)
H10_4 H 0.9794 0.0560 0.0227
C19_4 C 0.95301(7) 0.16545(17) 0.0160(2)
C20_4 C 0.96012(9) 0.24283(19) 0.0507(3)
H11_4 H 0.9397 0.2816 0.0359
C21_4 C 0.99771(8) 0.26253(18) 0.1074(3)
N2_3 N 0.26619(6) 0.21876(13) 0.71426(16)
C18_5 C 0.01646(9) 0.11003(19) 0.4568(3)
H10_5 H 0.0206 0.0560 0.4773
C19_5 C 0.04699(7) 0.16545(17) 0.4840(2)
C20_5 C 0.03988(9) 0.24283(19) 0.4493(3)
H11_5 H 0.0603 0.2816 0.4641
C21_5 C 0.00229(8) 0.26253(18) 0.3926(3)
N3_5 N 0.08453(7) 0.14262(14) 0.5476(2)
N4_5 N 0.11779(6) 0.18569(14) 0.55469(18)
C22_5 C 0.14543(7) 0.14615(17) 0.6234(2)
C23_5 C 0.12848(10) 0.0798(2) 0.6566(3)
H13_5 H 0.1419 0.0429 0.7056
N5_5 N 0.08955(8) 0.07688(19) 0.6070(3)
C24_5 C 0.18683(7) 0.17221(17) 0.6545(2)
C25_5 C 0.20281(8) 0.22015(18) 0.5928(2)
H14_5 H 0.1870 0.2372 0.5296
C26_5 C 0.24243(8) 0.24241(17) 0.6260(2)
H15_5 H 0.2532 0.2758 0.5845
C27_5 C 0.25042(8) 0.1744(2) 0.7750(2)
H16_5 H 0.2667 0.1591 0.8384
C28_5 C 0.21087(8) 0.1501(2) 0.7477(2)
H17_5 H 0.2005 0.1190 0.7920
Zn5_2 Zn 0.325561(9) 0.245512(17) 0.75588(2)
Zn1_3 Zn 0.825561(9) 0.254488(17) 0.25588(2)
Zn2_3 Zn 0.913771(9) 0.244780(17) 0.31630(2)
O3_5 O 0.89612(6) 0.18245(13) 0.42587(16)
O4_5 O 0.82979(6) 0.18601(12) 0.37967(15)
O7_5 O 0.90938(6) 0.31724(12) 0.19608(15)
O8_5 O 0.84269(6) 0.31624(12) 0.14399(15)
N1_5 N 0.97220(6) 0.21086(13) 0.36972(17)
C2_5 C 0.86250(8) 0.15918(15) 0.43130(19)
C3_5 C 0.86160(8) 0.09167(15) 0.5031(2)
C4_5 C 0.89716(9) 0.05785(18) 0.5595(2)
H1_5 H 0.9217 0.0813 0.5580
C8_5 C 0.82579(8) 0.05835(16) 0.5092(2)
H4_5 H 0.8015 0.0824 0.4743
C11_4 C 0.91446(8) 0.51260(17) 0.0113(2)
H5_4 H 0.9390 0.5355 0.0094
C13_5 C 0.87659(8) 0.34194(15) 0.14233(19)
C14_5 C 0.87765(8) 0.41039(15) 0.0723(2)
C15_5 C 0.84223(8) 0.44321(16) 0.0139(2)
H7_5 H 0.8177 0.4193 0.0140
C16_5 C 0.91385(8) 0.44576(16) 0.0698(2)
H8_5 H 0.9380 0.4237 0.1085
C17_5 C 0.97978(9) 0.13531(18) 0.3990(3)
H9_5 H 0.9592 0.0971 0.3794
H12_5 H 0.9976 0.3156 0.3686
O9_3 O 0.82788(6) 0.15284(11) 0.17603(16)
O10_3 O 0.89440(6) 0.14783(11) 0.22581(17)
O11_3 O 0.91216(6) 0.34735(12) 0.39650(16)
O12_3 O 0.84573(6) 0.35198(11) 0.34522(15)
N6_3 N 0.76619(6) 0.28124(13) 0.21426(16)
O5_3 O 0.91216(6) 0.65265(12) 0.89650(16)
O6_3 O 0.84573(6) 0.64802(11) 0.84522(15)
C9_5 C 0.87892(8) 0.62177(15) 0.8938(2)
C10_5 C 0.87885(8) 0.54670(16) 0.95446(19)
C12_5 C 0.84278(8) 0.51074(17) 0.9556(2)
H6_5 H 0.8186 0.5325 0.9164
Zn4_2 Zn 0.825561(9) 0.745512(17) 0.75588(2)
Zn7_3 Zn 0.913771(9) 0.755220(17) 0.81630(2)
O1_3 O 0.82788(6) 0.84716(11) 0.67603(16)
O2_3 O 0.89440(6) 0.85217(11) 0.72581(17)
C1_5 C 0.86114(9) 0.87848(15) 0.6786(2)
C5_5 C 0.89680(8) 0.99054(18) 0.6174(2)
H2_5 H 0.9210 0.9686 0.6559
C6_5 C 0.86078(8) 0.95466(15) 0.61935(19)
C7_5 C 0.82543(8) 0.98975(17) 0.5662(2)
H3_5 H 0.8009 0.9669 0.5688
O5_4 O 0.41216(6) 0.15265(12) 0.89650(16)
O6_4 O 0.34573(6) 0.14802(11) 0.84522(15)
C9_6 C 0.37892(8) 0.12177(15) 0.8938(2)
C10_6 C 0.37885(8) 0.04670(16) 0.95446(19)
C12_6 C 0.34278(8) 0.01074(17) 0.9556(2)
H6_6 H 0.3186 0.0325 0.9164
Zn7_4 Zn 0.413771(9) 0.255220(17) 0.81630(2)
Zn1_4 Zn 0.325561(9) 0.754488(17) 0.25588(2)
Zn2_4 Zn 0.413771(9) 0.744780(17) 0.31630(2)
O1_4 O 0.32788(6) 0.34716(11) 0.67603(16)
O2_4 O 0.39440(6) 0.35217(11) 0.72581(17)
O3_6 O 0.39612(6) 0.68245(13) 0.42587(16)
O4_6 O 0.32979(6) 0.68601(12) 0.37967(15)
O7_6 O 0.40938(6) 0.81724(12) 0.19608(15)
O8_6 O 0.34269(6) 0.81624(12) 0.14399(15)
N1_6 N 0.47220(6) 0.71086(13) 0.36972(17)
N2_4 N 0.76619(6) 0.71876(13) 0.71426(16)
C1_6 C 0.36114(9) 0.37848(15) 0.6786(2)
C2_6 C 0.36250(8) 0.65918(15) 0.43130(19)
C3_6 C 0.36160(8) 0.59167(15) 0.5031(2)
C4_6 C 0.39716(9) 0.55785(18) 0.5595(2)
H1_6 H 0.4217 0.5813 0.5580
C5_6 C 0.39680(8) 0.49054(18) 0.6174(2)
H2_6 H 0.4210 0.4686 0.6559
C6_6 C 0.36078(8) 0.45466(15) 0.61935(19)
C7_6 C 0.32543(8) 0.48975(17) 0.5662(2)
H3_6 H 0.3009 0.4669 0.5688
C8_6 C 0.32579(8) 0.55835(16) 0.5092(2)
H4_6 H 0.3015 0.5824 0.4743
C13_6 C 0.37659(8) 0.84194(15) 0.14233(19)
C14_6 C 0.37765(8) 0.91039(15) 0.0723(2)
C15_6 C 0.34223(8) 0.94321(16) 0.0139(2)
H7_6 H 0.3177 0.9193 0.0140
C16_6 C 0.41385(8) 0.94576(16) 0.0698(2)
H8_6 H 0.4380 0.9237 0.1085
C17_6 C 0.47978(9) 0.63531(18) 0.3990(3)
H9_6 H 0.4592 0.5971 0.3794
C18_6 C 0.51646(9) 0.61003(19) 0.4568(3)
H10_6 H 0.5206 0.5560 0.4773
C19_6 C 0.54699(7) 0.66545(17) 0.4840(2)
C20_6 C 0.53988(9) 0.74283(19) 0.4493(3)
H11_6 H 0.5603 0.7816 0.4641
C21_6 C 0.50229(8) 0.76253(18) 0.3926(3)
H12_6 H 0.4976 0.8156 0.3686
N3_6 N 0.58453(7) 0.64262(14) 0.5476(2)
N4_6 N 0.61779(6) 0.68569(14) 0.55469(18)
C22_6 C 0.64543(7) 0.64615(17) 0.6234(2)
C23_6 C 0.62848(10) 0.5798(2) 0.6566(3)
H13_6 H 0.6419 0.5429 0.7056
N5_6 N 0.58955(8) 0.57688(19) 0.6070(3)
C24_6 C 0.68683(7) 0.67221(17) 0.6545(2)
C25_6 C 0.70281(8) 0.72015(18) 0.5928(2)
H14_6 H 0.6870 0.7372 0.5296
C26_6 C 0.74243(8) 0.74241(17) 0.6260(2)
H15_6 H 0.7532 0.7758 0.5845
C27_6 C 0.75042(8) 0.6744(2) 0.7750(2)
H16_6 H 0.7667 0.6591 0.8384
C28_6 C 0.71087(8) 0.6501(2) 0.7477(2)
H17_6 H 0.7005 0.6190 0.7920
O9_4 O 0.32788(6) 0.65284(11) 0.17603(16)
O10_4 O 0.39440(6) 0.64783(11) 0.22581(17)
O11_4 O 0.41216(6) 0.84735(12) 0.39650(16)
O12_4 O 0.34573(6) 0.85198(11) 0.34522(15)
N6_4 N 0.26619(6) 0.78124(13) 0.21426(16)
N3_7 N 0.08453(7) 0.85738(14) 0.0476(2)
N4_7 N 0.11779(6) 0.81431(14) 0.05469(18)
C22_7 C 0.14543(7) 0.85385(17) 0.1234(2)
C23_7 C 0.12848(10) 0.9202(2) 0.1566(3)
H13_7 H 0.1419 0.9571 0.2056
N5_7 N 0.08955(8) 0.92312(19) 0.1070(3)
C24_7 C 0.18683(7) 0.82779(17) 0.1545(2)
C25_7 C 0.20281(8) 0.77985(18) 0.0928(2)
H14_7 H 0.1870 0.7628 0.0296
C26_7 C 0.24243(8) 0.75759(17) 0.1260(2)
H15_7 H 0.2532 0.7242 0.0845
C27_7 C 0.25042(8) 0.8256(2) 0.2750(2)
H16_7 H 0.2667 0.8409 0.3384
C28_7 C 0.21087(8) 0.8499(2) 0.2477(2)
H17_7 H 0.2005 0.8810 0.2920
C1_7 C 0.86114(9) 0.12152(15) 0.1786(2)
C5_7 C 0.89680(8) 0.00946(18) 0.1174(2)
H2_7 H 0.9210 0.0314 0.1559
C6_7 C 0.86078(8) 0.04534(15) 0.11935(19)
C7_7 C 0.82543(8) 0.01025(17) 0.0662(2)
H3_7 H 0.8009 0.0331 0.0688
O3_7 O 0.89612(6) 0.81755(13) 0.92587(16)
O4_7 O 0.82979(6) 0.81399(12) 0.87967(15)
O7_7 O 0.90938(6) 0.68276(12) 0.69608(15)
O8_7 O 0.84269(6) 0.68376(12) 0.64399(15)
N1_7 N 0.97220(6) 0.78914(13) 0.86972(17)
C2_7 C 0.86250(8) 0.84082(15) 0.93130(19)
H4_7 H 0.8015 0.9176 0.9743
C9_7 C 0.87892(8) 0.37823(15) 0.3938(2)
C10_7 C 0.87885(8) 0.45330(16) 0.45446(19)
C11_5 C 0.91446(8) 0.48740(17) 0.5113(2)
H5_5 H 0.9390 0.4645 0.5094
C12_7 C 0.84278(8) 0.48926(17) 0.4556(2)
H6_7 H 0.8186 0.4675 0.4164
C13_7 C 0.87659(8) 0.65806(15) 0.64233(19)
C14_7 C 0.87765(8) 0.58961(15) 0.5723(2)
C15_7 C 0.84223(8) 0.55679(16) 0.5139(2)
H7_7 H 0.8177 0.5807 0.5140
C16_7 C 0.91385(8) 0.55424(16) 0.5698(2)
H8_7 H 0.9380 0.5763 0.6085
C17_7 C 0.97978(9) 0.86469(18) 0.8990(3)
H9_7 H 0.9592 0.9029 0.8794
H12_7 H 0.9976 0.6844 0.8686
C1_8 C 0.36114(9) 0.62152(15) 0.1786(2)
C3_7 C 0.36160(8) 0.40833(15) 0.0031(2)
C4_7 C 0.39716(9) 0.44215(18) 0.0595(2)
H1_7 H 0.4217 0.4187 0.0580
C5_8 C 0.39680(8) 0.50946(18) 0.1174(2)
H2_8 H 0.4210 0.5314 0.1559
C6_8 C 0.36078(8) 0.54534(15) 0.11935(19)
C7_8 C 0.32543(8) 0.51025(17) 0.0662(2)
H3_8 H 0.3009 0.5331 0.0688
C8_7 C 0.32579(8) 0.44165(16) 0.0092(2)
N3_8 N 0.58453(7) 0.35738(14) 0.0476(2)
N4_8 N 0.61779(6) 0.31431(14) 0.05469(18)
C22_8 C 0.64543(7) 0.35385(17) 0.1234(2)
C23_8 C 0.62848(10) 0.4202(2) 0.1566(3)
H13_8 H 0.6419 0.4571 0.2056
N5_8 N 0.58955(8) 0.42312(19) 0.1070(3)
C24_8 C 0.68683(7) 0.32779(17) 0.1545(2)
C25_8 C 0.70281(8) 0.27985(18) 0.0928(2)
H14_8 H 0.6870 0.2628 0.0296
C26_8 C 0.74243(8) 0.25759(17) 0.1260(2)
H15_8 H 0.7532 0.2242 0.0845
C27_8 C 0.75042(8) 0.3256(2) 0.2750(2)
H16_8 H 0.7667 0.3409 0.3384
C28_8 C 0.71087(8) 0.3499(2) 0.2477(2)
H17_8 H 0.7005 0.3810 0.2920
O3_8 O 0.39612(6) 0.31755(13) 0.92587(16)
O4_8 O 0.32979(6) 0.31399(12) 0.87967(15)
O7_8 O 0.40938(6) 0.18276(12) 0.69608(15)
O8_8 O 0.34269(6) 0.18376(12) 0.64399(15)
N1_8 N 0.47220(6) 0.28914(13) 0.86972(17)
C2_8 C 0.36250(8) 0.34082(15) 0.93130(19)
H4_8 H 0.3015 0.4176 0.9743
C13_8 C 0.37659(8) 0.15806(15) 0.64233(19)
C14_8 C 0.37765(8) 0.08961(15) 0.5723(2)
C15_8 C 0.34223(8) 0.05679(16) 0.5139(2)
H7_8 H 0.3177 0.0807 0.5140
C16_8 C 0.41385(8) 0.05424(16) 0.5698(2)
H8_8 H 0.4380 0.0763 0.6085
C17_8 C 0.47978(9) 0.36469(18) 0.8990(3)
H9_8 H 0.4592 0.4029 0.8794
C18_7 C 0.51646(9) 0.38997(19) 0.9568(3)
H10_7 H 0.5206 0.4440 0.9773
C19_7 C 0.54699(7) 0.33455(17) 0.9840(2)
C20_7 C 0.53988(9) 0.25717(19) 0.9493(3)
H11_7 H 0.5603 0.2184 0.9641
C21_7 C 0.50229(8) 0.23747(18) 0.8926(3)
H12_8 H 0.4976 0.1844 0.8686
C9_8 C 0.37892(8) 0.87823(15) 0.3938(2)
C10_8 C 0.37885(8) 0.95330(16) 0.45446(19)
C11_6 C 0.41446(8) 0.98740(17) 0.5113(2)
H5_6 H 0.4390 0.9645 0.5094
C12_8 C 0.34278(8) 0.98926(17) 0.4556(2)
H6_8 H 0.3186 0.9675 0.4164
C11_7 C 0.41446(8) 0.01260(17) 0.0113(2)
H5_7 H 0.4390 0.0355 0.0094
C18_8 C 0.01646(9) 0.88997(19) 0.9568(3)
H10_8 H 0.0206 0.9440 0.9773
C19_8 C 0.04699(7) 0.83455(17) 0.9840(2)
C20_8 C 0.03988(9) 0.75717(19) 0.9493(3)
H11_8 H 0.0603 0.7184 0.9641
C21_8 C 0.00229(8) 0.73747(18) 0.8926(3)
C3_8 C 0.86160(8) 0.90833(15) 0.0031(2)
C4_8 C 0.89716(9) 0.94215(18) 0.0595(2)
H1_8 H 0.9217 0.9187 0.0580
C8_8 C 0.82579(8) 0.94165(16) 0.0092(2)
C11_8 C 0.58554(8) 0.98740(17) 0.9887(2)
H5_8 H 0.5610 0.9645 0.9906
loop_
_geom_bond_atom_site_label_1
_geom_bond_atom_site_label_2
_geom_bond_site_symmetry_1
_geom_bond_site_symmetry_2
Zn1 O4 1_555 1_555
Zn2 O3 1_555 1_555
O3 C2 1_555 1_555
O4 C2 1_555 1_555
O5 C9 1_555 1_555
O6 C9 1_555 1_555
O7 Zn2 1_555 1_555
O8 Zn1 1_555 1_555
N1 Zn2 1_555 1_555
C9 C10 1_555 1_555
C10 C11 1_555 1_555
C11 H5 1_555 1_555
C12 C10 1_555 1_555
H6 C12 1_555 1_555
C13 O7 1_555 1_555
C14 C13 1_555 1_555
C15 C12 1_555 1_555
H7 C15 1_555 1_555
C16 C11 1_555 1_555
H8 C16 1_555 1_555
C17 N1 1_555 1_555
H9 C17 1_555 1_555
Zn4 O6 1_555 1_555
Zn7 O5 1_555 1_555
O9 Zn1 1_555 1_555
O10 Zn2 1_555 1_555
O11 Zn2 1_555 1_555
O12 Zn1 1_555 1_555
N6 Zn1 1_555 1_555
O8 C13 1_555 1_555
C14 C15 1_555 1_555
C14 C16 1_555 1_555
O1 C1 1_555 1_555
O2 C1 1_555 1_555
C1 C6 1_555 1_555
H2 C5 1_555 1_555
C6 C5 1_555 1_555
C7 C6 1_555 1_555
H3 C7 1_555 1_555
Zn4 O1 1_555 1_555
Zn7 O2 1_555 1_555
N2 C26 1_555 1_555
N4 N3 1_555 1_555
C22 N4 1_555 1_555
C23 C22 1_555 1_555
H13 C23 1_555 1_555
N5 N3 1_555 1_555
C24 C22 1_555 1_555
C25 C24 1_555 1_555
H14 C25 1_555 1_555
C26 C25 1_555 1_555
H15 C26 1_555 1_555
C27 N2 1_555 1_555
H16 C27 1_555 1_555
C28 C24 1_555 1_555
H17 C28 1_555 1_555
Zn5 N2 1_555 1_555
C23 N5 1_555 1_555
C27 C28 1_555 1_555
O5_2 C9_2 1_555 1_555
O6_2 C9_2 1_555 1_555
C9_2 C10_2 1_555 1_555
C10_2 C11_2 1_555 1_555
C11_2 H5_2 1_555 1_555
C12_2 C10_2 1_555 1_555
H6_2 C12_2 1_555 1_555
Zn5 O6_2 1_555 1_555
Zn7_2 O5_2 1_555 1_555
Zn1_2 O4_2 1_555 1_555
Zn2_2 O3_2 1_555 1_555
O3_2 C2_2 1_555 1_555
O4_2 C2_2 1_555 1_555
O7_2 Zn2_2 1_555 1_555
O8_2 Zn1_2 1_555 1_555
N1_2 Zn2_2 1_555 1_555
C13_2 O7_2 1_555 1_555
C14_2 C13_2 1_555 1_555
H7_2 C15_2 1_555 1_555
H8_2 C16_2 1_555 1_555
C17_2 N1_2 1_555 1_555
H9_2 C17_2 1_555 1_555
C18 C17_2 1_555 1_555
H10 C18 1_555 1_555
C19 C18 1_555 1_555
C20 C19 1_555 1_555
H11 C20 1_555 1_555
C21 N1_2 1_555 1_555
H12_2 C21 1_555 1_555
O9_2 Zn1_2 1_555 1_555
O10_2 Zn2_2 1_555 1_555
O11_2 Zn2_2 1_555 1_555
O12_2 Zn1_2 1_555 1_555
N6_2 Zn1_2 1_555 1_555
O8_2 C13_2 1_555 1_555
C14_2 C15_2 1_555 1_555
C14_2 C16_2 1_555 1_555
C20 C21 1_555 1_555
O1_2 C1_2 1_555 1_555
O2_2 C1_2 1_555 1_555
N2_2 C26_2 1_555 1_555
C1_2 C6_2 1_555 1_555
C3 C4 1_555 1_555
C4 H1 1_555 1_555
C5_2 C4 1_555 1_555
H2_2 C5_2 1_555 1_555
C6_2 C5_2 1_555 1_555
C7_2 C6_2 1_555 1_555
H3_2 C7_2 1_555 1_555
C8 C3 1_555 1_555
N4_2 N3_2 1_555 1_555
C22_2 N4_2 1_555 1_555
C23_2 C22_2 1_555 1_555
H13_2 C23_2 1_555 1_555
N5_2 N3_2 1_555 1_555
C24_2 C22_2 1_555 1_555
C25_2 C24_2 1_555 1_555
H14_2 C25_2 1_555 1_555
C26_2 C25_2 1_555 1_555
H15_2 C26_2 1_555 1_555
C27_2 N2_2 1_555 1_555
H16_2 C27_2 1_555 1_555
C28_2 C24_2 1_555 1_555
H17_2 C28_2 1_555 1_555
Zn5 O1_2 1_555 1_555
Zn4 N2_2 1_555 1_555
Zn7_2 O2_2 1_555 1_555
C7_2 C8 1_555 1_555
C23_2 N5_2 1_555 1_555
C27_2 C28_2 1_555 1_555
O9 C1_3 1_555 1_555
O10 C1_3 1_555 1_555
C1_3 C6_3 1_555 1_555
H2_3 C5_3 1_555 1_555
C6_3 C5_3 1_555 1_555
C7_3 C6_3 1_555 1_555
H3_3 C7_3 1_555 1_555
O11 C9_3 1_555 1_555
O12 C9_3 1_555 1_555
C9_3 C10_3 1_555 1_555
C12_3 C10_3 1_555 1_555
H6_3 C12_3 1_555 1_555
Zn4 O4_3 1_555 1_555
Zn7 O3_3 1_555 1_555
O3_3 C2_3 1_555 1_555
O4_3 C2_3 1_555 1_555
O7_3 Zn7 1_555 1_555
O8_3 Zn4 1_555 1_555
N1_3 Zn7 1_555 1_555
C2_3 C3_2 1_555 1_555
C3_2 C4_2 1_555 1_555
C4_2 H1_2 1_555 1_555
C8_2 C3_2 1_555 1_555
H4_3 C8_2 1_555 1_555
C11_3 H5_3 1_555 1_555
C13_3 O7_3 1_555 1_555
C14_3 C13_3 1_555 1_555
H7_3 C15_3 1_555 1_555
C16_3 C11_3 1_555 1_555
H8_3 C16_3 1_555 1_555
C17_3 N1_3 1_555 1_555
H9_3 C17_3 1_555 1_555
O8_3 C13_3 1_555 1_555
C14_3 C15_3 1_555 1_555
C14_3 C16_3 1_555 1_555
N6_2 C26_3 1_555 1_555
H10_2 C18_2 1_555 1_555
C19_2 C18_2 1_555 1_555
C20_2 C19_2 1_555 1_555
H11_2 C20_2 1_555 1_555
N3_3 C19_2 1_555 1_555
N4_3 N3_3 1_555 1_555
C22_3 N4_3 1_555 1_555
C23_3 C22_3 1_555 1_555
H13_3 C23_3 1_555 1_555
N5_3 N3_3 1_555 1_555
C24_3 C22_3 1_555 1_555
C25_3 C24_3 1_555 1_555
H14_3 C25_3 1_555 1_555
C26_3 C25_3 1_555 1_555
H15_3 C26_3 1_555 1_555
C27_3 N6_2 1_555 1_555
H16_3 C27_3 1_555 1_555
C28_3 C24_3 1_555 1_555
H17_3 C28_3 1_555 1_555
C20_2 C21_2 1_555 1_555
C23_3 N5_3 1_555 1_555
C27_3 C28_3 1_555 1_555
Zn5 O4_4 1_555 1_555
Zn7_2 O3_4 1_555 1_555
O9_2 C1_4 1_555 1_555
O10_2 C1_4 1_555 1_555
O3_4 C2_4 1_555 1_555
O4_4 C2_4 1_555 1_555
O7_4 Zn7_2 1_555 1_555
O8_4 Zn5 1_555 1_555
N1_4 Zn7_2 1_555 1_555
N6 C26_4 1_555 1_555
C1_4 C6_4 1_555 1_555
C2_4 C3_3 1_555 1_555
C3_3 C4_3 1_555 1_555
C4_3 H1_3 1_555 1_555
C5_4 C4_3 1_555 1_555
H2_4 C5_4 1_555 1_555
C6_4 C5_4 1_555 1_555
C7_4 C6_4 1_555 1_555
H3_4 C7_4 1_555 1_555
C8_3 C3_3 1_555 1_555
H4_4 C8_3 1_555 1_555
C13_4 O7_4 1_555 1_555
C14_4 C13_4 1_555 1_555
H7_4 C15_4 1_555 1_555
H8_4 C16_4 1_555 1_555
C17_4 N1_4 1_555 1_555
H9_4 C17_4 1_555 1_555
C18_3 C17_4 1_555 1_555
H10_3 C18_3 1_555 1_555
C19_3 C18_3 1_555 1_555
C20_3 C19_3 1_555 1_555
H11_3 C20_3 1_555 1_555
C21_3 N1_4 1_555 1_555
H12_4 C21_3 1_555 1_555
N3_4 C19_3 1_555 1_555
N4_4 N3_4 1_555 1_555
C22_4 N4_4 1_555 1_555
C23_4 C22_4 1_555 1_555
H13_4 C23_4 1_555 1_555
N5_4 N3_4 1_555 1_555
C24_4 C22_4 1_555 1_555
C25_4 C24_4 1_555 1_555
H14_4 C25_4 1_555 1_555
C26_4 C25_4 1_555 1_555
H15_4 C26_4 1_555 1_555
C27_4 N6 1_555 1_555
H16_4 C27_4 1_555 1_555
C28_4 C24_4 1_555 1_555
H17_4 C28_4 1_555 1_555
O8_4 C13_4 1_555 1_555
C7_4 C8_3 1_555 1_555
C14_4 C15_4 1_555 1_555
C14_4 C16_4 1_555 1_555
C20_3 C21_3 1_555 1_555
C23_4 N5_4 1_555 1_555
C27_4 C28_4 1_555 1_555
O11_2 C9_4 1_555 1_555
O12_2 C9_4 1_555 1_555
C9_4 C10_4 1_555 1_555
C12_4 C10_4 1_555 1_555
H6_4 C12_4 1_555 1_555
C3_4 C4_4 1_555 1_555
C4_4 H1_4 1_555 1_555
C8_4 C3_4 1_555 1_555
H10_4 C18_4 1_555 1_555
C19_4 C18_4 1_555 1_555
C20_4 C19_4 1_555 1_555
H11_4 C20_4 1_555 1_555
C20_4 C21_4 1_555 1_555
N2_3 C26_5 1_555 1_555
H10_5 C18_5 1_555 1_555
C19_5 C18_5 1_555 1_555
C20_5 C19_5 1_555 1_555
H11_5 C20_5 1_555 1_555
N3_5 C19_5 1_555 1_555
N4_5 N3_5 1_555 1_555
C22_5 N4_5 1_555 1_555
C23_5 C22_5 1_555 1_555
H13_5 C23_5 1_555 1_555
N5_5 N3_5 1_555 1_555
C24_5 C22_5 1_555 1_555
C25_5 C24_5 1_555 1_555
H14_5 C25_5 1_555 1_555
C26_5 C25_5 1_555 1_555
H15_5 C26_5 1_555 1_555
C27_5 N2_3 1_555 1_555
H16_5 C27_5 1_555 1_555
C28_5 C24_5 1_555 1_555
H17_5 C28_5 1_555 1_555
Zn5_2 N2_3 1_555 1_555
C20_5 C21_5 1_555 1_555
C23_5 N5_5 1_555 1_555
C27_5 C28_5 1_555 1_555
Zn1_3 O4_5 1_555 1_555
Zn2_3 O3_5 1_555 1_555
O3_5 C2_5 1_555 1_555
O4_5 C2_5 1_555 1_555
O7_5 Zn2_3 1_555 1_555
O8_5 Zn1_3 1_555 1_555
N1_5 Zn2_3 1_555 1_555
C2_5 C3_5 1_555 1_555
C3_5 C4_5 1_555 1_555
C4_5 H1_5 1_555 1_555
C8_5 C3_5 1_555 1_555
H4_5 C8_5 1_555 1_555
C11_4 H5_4 1_555 1_555
C13_5 O7_5 1_555 1_555
C14_5 C13_5 1_555 1_555
H7_5 C15_5 1_555 1_555
C16_5 C11_4 1_555 1_555
H8_5 C16_5 1_555 1_555
C17_5 N1_5 1_555 1_555
H9_5 C17_5 1_555 1_555
O9_3 Zn1_3 1_555 1_555
O10_3 Zn2_3 1_555 1_555
O11_3 Zn2_3 1_555 1_555
O12_3 Zn1_3 1_555 1_555
N6_3 Zn1_3 1_555 1_555
O8_5 C13_5 1_555 1_555
C14_5 C15_5 1_555 1_555
C14_5 C16_5 1_555 1_555
O5_3 C9_5 1_555 1_555
O6_3 C9_5 1_555 1_555
C9_5 C10_5 1_555 1_555
C12_5 C10_5 1_555 1_555
H6_5 C12_5 1_555 1_555
Zn4_2 O6_3 1_555 1_555
Zn7_3 O5_3 1_555 1_555
O1_3 C1_5 1_555 1_555
O2_3 C1_5 1_555 1_555
C1_5 C6_5 1_555 1_555
H2_5 C5_5 1_555 1_555
C6_5 C5_5 1_555 1_555
C7_5 C6_5 1_555 1_555
H3_5 C7_5 1_555 1_555
Zn4_2 O1_3 1_555 1_555
Zn7_3 O2_3 1_555 1_555
O5_4 C9_6 1_555 1_555
O6_4 C9_6 1_555 1_555
C9_6 C10_6 1_555 1_555
C12_6 C10_6 1_555 1_555
H6_6 C12_6 1_555 1_555
Zn5_2 O6_4 1_555 1_555
Zn7_4 O5_4 1_555 1_555
Zn1_4 O4_6 1_555 1_555
Zn2_4 O3_6 1_555 1_555
O1_4 C1_6 1_555 1_555
O2_4 C1_6 1_555 1_555
O3_6 C2_6 1_555 1_555
O4_6 C2_6 1_555 1_555
O7_6 Zn2_4 1_555 1_555
O8_6 Zn1_4 1_555 1_555
N1_6 Zn2_4 1_555 1_555
N2_4 C26_6 1_555 1_555
C1_6 C6_6 1_555 1_555
C2_6 C3_6 1_555 1_555
C3_6 C4_6 1_555 1_555
C4_6 H1_6 1_555 1_555
C5_6 C4_6 1_555 1_555
H2_6 C5_6 1_555 1_555
C6_6 C5_6 1_555 1_555
C7_6 C6_6 1_555 1_555
H3_6 C7_6 1_555 1_555
C8_6 C3_6 1_555 1_555
H4_6 C8_6 1_555 1_555
C13_6 O7_6 1_555 1_555
C14_6 C13_6 1_555 1_555
H7_6 C15_6 1_555 1_555
H8_6 C16_6 1_555 1_555
C17_6 N1_6 1_555 1_555
H9_6 C17_6 1_555 1_555
C18_6 C17_6 1_555 1_555
H10_6 C18_6 1_555 1_555
C19_6 C18_6 1_555 1_555
C20_6 C19_6 1_555 1_555
H11_6 C20_6 1_555 1_555
C21_6 N1_6 1_555 1_555
H12_6 C21_6 1_555 1_555
N3_6 C19_6 1_555 1_555
N4_6 N3_6 1_555 1_555
C22_6 N4_6 1_555 1_555
C23_6 C22_6 1_555 1_555
H13_6 C23_6 1_555 1_555
N5_6 N3_6 1_555 1_555
C24_6 C22_6 1_555 1_555
C25_6 C24_6 1_555 1_555
H14_6 C25_6 1_555 1_555
C26_6 C25_6 1_555 1_555
H15_6 C26_6 1_555 1_555
C27_6 N2_4 1_555 1_555
H16_6 C27_6 1_555 1_555
C28_6 C24_6 1_555 1_555
H17_6 C28_6 1_555 1_555
Zn5_2 O1_4 1_555 1_555
Zn4_2 N2_4 1_555 1_555
Zn7_4 O2_4 1_555 1_555
O9_4 Zn1_4 1_555 1_555
O10_4 Zn2_4 1_555 1_555
O11_4 Zn2_4 1_555 1_555
O12_4 Zn1_4 1_555 1_555
N6_4 Zn1_4 1_555 1_555
O8_6 C13_6 1_555 1_555
C7_6 C8_6 1_555 1_555
C14_6 C15_6 1_555 1_555
C14_6 C16_6 1_555 1_555
C20_6 C21_6 1_555 1_555
C23_6 N5_6 1_555 1_555
C27_6 C28_6 1_555 1_555
N6_4 C26_7 1_555 1_555
N4_7 N3_7 1_555 1_555
C22_7 N4_7 1_555 1_555
C23_7 C22_7 1_555 1_555
H13_7 C23_7 1_555 1_555
N5_7 N3_7 1_555 1_555
C24_7 C22_7 1_555 1_555
C25_7 C24_7 1_555 1_555
H14_7 C25_7 1_555 1_555
C26_7 C25_7 1_555 1_555
H15_7 C26_7 1_555 1_555
C27_7 N6_4 1_555 1_555
H16_7 C27_7 1_555 1_555
C28_7 C24_7 1_555 1_555
H17_7 C28_7 1_555 1_555
C23_7 N5_7 1_555 1_555
C27_7 C28_7 1_555 1_555
O9_3 C1_7 1_555 1_555
O10_3 C1_7 1_555 1_555
C1_7 C6_7 1_555 1_555
H2_7 C5_7 1_555 1_555
C6_7 C5_7 1_555 1_555
C7_7 C6_7 1_555 1_555
H3_7 C7_7 1_555 1_555
Zn4_2 O4_7 1_555 1_555
Zn7_3 O3_7 1_555 1_555
O3_7 C2_7 1_555 1_555
O4_7 C2_7 1_555 1_555
O11_3 C9_7 1_555 1_555
O12_3 C9_7 1_555 1_555
O7_7 Zn7_3 1_555 1_555
O8_7 Zn4_2 1_555 1_555
N1_7 Zn7_3 1_555 1_555
C9_7 C10_7 1_555 1_555
C10_7 C11_5 1_555 1_555
C11_5 H5_5 1_555 1_555
C12_7 C10_7 1_555 1_555
H6_7 C12_7 1_555 1_555
C13_7 O7_7 1_555 1_555
C14_7 C13_7 1_555 1_555
C15_7 C12_7 1_555 1_555
H7_7 C15_7 1_555 1_555
C16_7 C11_5 1_555 1_555
H8_7 C16_7 1_555 1_555
C17_7 N1_7 1_555 1_555
H9_7 C17_7 1_555 1_555
O8_7 C13_7 1_555 1_555
C14_7 C15_7 1_555 1_555
C14_7 C16_7 1_555 1_555
O9_4 C1_8 1_555 1_555
O10_4 C1_8 1_555 1_555
N6_3 C26_8 1_555 1_555
C1_8 C6_8 1_555 1_555
C3_7 C4_7 1_555 1_555
C4_7 H1_7 1_555 1_555
C5_8 C4_7 1_555 1_555
H2_8 C5_8 1_555 1_555
C6_8 C5_8 1_555 1_555
C7_8 C6_8 1_555 1_555
H3_8 C7_8 1_555 1_555
C8_7 C3_7 1_555 1_555
N4_8 N3_8 1_555 1_555
C22_8 N4_8 1_555 1_555
C23_8 C22_8 1_555 1_555
H13_8 C23_8 1_555 1_555
N5_8 N3_8 1_555 1_555
C24_8 C22_8 1_555 1_555
C25_8 C24_8 1_555 1_555
H14_8 C25_8 1_555 1_555
C26_8 C25_8 1_555 1_555
H15_8 C26_8 1_555 1_555
C27_8 N6_3 1_555 1_555
H16_8 C27_8 1_555 1_555
C28_8 C24_8 1_555 1_555
H17_8 C28_8 1_555 1_555
C7_8 C8_7 1_555 1_555
C23_8 N5_8 1_555 1_555
C27_8 C28_8 1_555 1_555
Zn5_2 O4_8 1_555 1_555
Zn7_4 O3_8 1_555 1_555
O3_8 C2_8 1_555 1_555
O4_8 C2_8 1_555 1_555
O7_8 Zn7_4 1_555 1_555
O8_8 Zn5_2 1_555 1_555
N1_8 Zn7_4 1_555 1_555
C13_8 O7_8 1_555 1_555
C14_8 C13_8 1_555 1_555
H7_8 C15_8 1_555 1_555
H8_8 C16_8 1_555 1_555
C17_8 N1_8 1_555 1_555
H9_8 C17_8 1_555 1_555
C18_7 C17_8 1_555 1_555
H10_7 C18_7 1_555 1_555
C19_7 C18_7 1_555 1_555
C20_7 C19_7 1_555 1_555
H11_7 C20_7 1_555 1_555
C21_7 N1_8 1_555 1_555
H12_8 C21_7 1_555 1_555
O8_8 C13_8 1_555 1_555
C14_8 C15_8 1_555 1_555
C14_8 C16_8 1_555 1_555
C20_7 C21_7 1_555 1_555
O11_4 C9_8 1_555 1_555
O12_4 C9_8 1_555 1_555
C9_8 C10_8 1_555 1_555
C10_8 C11_6 1_555 1_555
C11_6 H5_6 1_555 1_555
C12_8 C10_8 1_555 1_555
H6_8 C12_8 1_555 1_555
C11_7 H5_7 1_555 1_555
H10_8 C18_8 1_555 1_555
C19_8 C18_8 1_555 1_555
C20_8 C19_8 1_555 1_555
H11_8 C20_8 1_555 1_555
C20_8 C21_8 1_555 1_555
C3_8 C4_8 1_555 1_555
C4_8 H1_8 1_555 1_555
C8_8 C3_8 1_555 1_555
C11_8 H5_8 1_555 1_555

#END
