
###############################################################################
#
# This file contains modified crystal structure data generated from the
# MOF subset of the Cambridge Structural Database (CSD) v543 
# hosted by the Cambridge Crystallographic Data Centre (CCDC).
#
# This work is licensed under the Creative Commons
# Attribution-NonCommercial-ShareAlike 4.0 International License.
# To view a copy of this license, visit
# http://creativecommons.org/licenses/by-nc-sa/4.0/
# or send a letter to
# Creative Commons, PO Box 1866, Mountain View, CA 94042, USA.
#
# CIF created using the CSD Python API on 29 September 2022
# The structure has been converted into the P1 space group
# The structure has a 3D framework
# The original CSD entry PEMREG is in the monoclinic crystal system
# The framework has been calculated to contain at least 10.0% void space
# The void calculation uses a probe of radius 1.32A, grid spacing 0.4
# H atom positions have been added when not included in the experimental data
#
###############################################################################

data_PEMREG
_chemical_formula_moiety         '(C160 H168 Cd8 N16 O34)n'
_symmetry_cell_setting           triclinic
_symmetry_space_group_name_H-M   'P 1'
_symmetry_Int_Tables_number      1
_space_group_name_Hall           'P 1'
loop_
_symmetry_equiv_pos_site_id
_symmetry_equiv_pos_as_xyz
1 x,y,z
_cell_length_a                   17.8372(19)
_cell_length_b                   21.164(2)
_cell_length_c                   21.721(2)
_cell_angle_alpha                90
_cell_angle_beta                 90.300(2)
_cell_angle_gamma                90
_cell_volume                     8199.71
loop_
_atom_site_label
_atom_site_type_symbol
_atom_site_fract_x
_atom_site_fract_y
_atom_site_fract_z
C25 C 0.1071(3) 0.0179(2) 0.4811(2)
C26 C 0.0549(3) 0.0713(2) 0.4913(2)
C27 C 0.0262(3) 0.0818(2) 0.5483(2)
H29 H 0.0421 0.0559 0.5816
C31 C 0.0356(3) 0.1114(3) 0.4434(2)
H32 H 0.0579 0.1059 0.4041
O5 O 0.1356(2) 0.00673(17) 0.42998(15)
O6 O 0.1247(2) 0.98512(17) 0.52874(15)
Cd5 Cd 0.20036(2) 0.915853(17) 0.482891(16)
C25_2 C 0.8929(3) 0.5179(2) 0.0189(2)
C26_2 C 0.9451(3) 0.5713(2) 0.0087(2)
C31_2 C 0.9644(3) 0.6114(3) 0.0566(2)
H32_2 H 0.9421 0.6059 0.0959
O5_2 O 0.8644(2) 0.50673(17) 0.07002(15)
Cd5_2 Cd 0.79964(2) 0.415853(17) 0.017109(16)
C27_2 C 0.9738(3) 0.5818(2) 0.9517(2)
H29_2 H 0.9579 0.5559 0.9184
O6_2 O 0.8753(2) 0.48512(17) 0.97126(15)
Cd1 Cd 0.60199(2) 0.340682(18) 0.514481(17)
C9 C 0.5265(3) 0.2312(3) 0.4963(3)
C10 C 0.4743(3) 0.1755(2) 0.4921(3)
C11 C 0.4343(3) 0.1631(3) 0.4388(2)
H17 H 0.4434 0.1865 0.4023
C12 C 0.3809(3) 0.1160(3) 0.4398(2)
H18 H 0.3537 0.1076 0.4030
C13 C 0.3648(3) 0.0804(2) 0.4912(2)
C14 C 0.4074(3) 0.0929(3) 0.5433(2)
H19 H 0.4004 0.0678 0.5791
C15 C 0.4595(3) 0.1404(3) 0.5445(3)
H20 H 0.4857 0.1495 0.5817
C16 C 0.3014(3) 0.0363(2) 0.4905(2)
H21 H 0.2760 0.0394 0.5308
H22 H 0.2654 0.0511 0.4589
O1 O 0.5179(3) 0.2769(2) 0.4584(2)
O2 O 0.5736(2) 0.2331(2) 0.5336(2)
O9 O 0.4894(6) 0.3830(5) 0.5535(4)
O10 O 0.6716(3) 0.3363(3) 0.59938(19)
O13 O 0.6899(2) 0.3252(2) 0.43700(18)
O14 O 0.6192(2) 0.40776(18) 0.42877(17)
H41 H 0.459212 0.400846 0.51912
H42 H 0.501183 0.416889 0.583651
C1 C 0.3669(3) 0.9367(3) 0.5241(2)
H1 H 0.3815 0.8945 0.5086
H2 H 0.4130 0.9621 0.5293
C2 C 0.3283(3) 0.9295(3) 0.5866(3)
H3 H 0.3184 0.9721 0.6036
H4 H 0.3629 0.9075 0.6152
C3 C 0.2678(3) 0.8273(3) 0.5818(2)
H5 H 0.3128 0.8186 0.5567
H6 H 0.2784 0.8125 0.6241
C4 C 0.2031(3) 0.7895(3) 0.5561(2)
H7 H 0.2156 0.7440 0.5583
H8 H 0.1582 0.7967 0.5818
C5 C 0.2392(3) 0.7801(3) 0.4476(3)
H9 H 0.2899 0.7845 0.4657
H10 H 0.2289 0.7344 0.4425
C6 C 0.2378(4) 0.8108(3) 0.3864(3)
H11 H 0.2773 0.7915 0.3605
H12 H 0.1889 0.8019 0.3664
C7 C 0.3294(3) 0.8933(3) 0.3902(2)
H13 H 0.3539 0.8613 0.4168
H14 H 0.3501 0.8886 0.3483
C8 C 0.3493(4) 0.9580(3) 0.4141(3)
H15 H 0.4045 0.9626 0.4157
H16 H 0.3291 0.9905 0.3858
C17 C 0.3285(4) 0.8891(5) 0.8799(3)
C18 C 0.2930(3) 0.8968(3) 0.8160(2)
C19 C 0.2529(3) 0.8482(3) 0.7878(2)
H23 H 0.2454 0.8099 0.8096
C20 C 0.2242(3) 0.8541(3) 0.7305(2)
H24 H 0.1967 0.8200 0.7132
C21 C 0.2340(3) 0.9089(2) 0.6959(2)
C22 C 0.2711(3) 0.9612(3) 0.7237(2)
H25 H 0.2778 0.9995 0.7014
C23 C 0.2974(3) 0.9557(3) 0.7834(2)
H26 H 0.3188 0.9915 0.8032
C24 C 0.2037(3) 0.9150(2) 0.6325(2)
H27 H 0.1569 0.8899 0.6293
H28 H 0.1905 0.9598 0.6250
C28 C 0.0255(3) 0.8708(2) 0.4408(2)
H30 H 0.0458 0.8654 0.4008
C29 C 0.0476(3) 0.8312(2) 0.4884(2)
C30 C 0.0161(3) 0.8402(3) 0.5477(2)
H31 H 0.0303 0.8135 0.5810
C32 C 0.1062(3) 0.7816(2) 0.4782(3)
H33 H 0.0969 0.7455 0.5062
H34 H 0.1024 0.7659 0.4354
C33 C 0.3321(3) 0.8721(3) 0.0917(2)
C34 C 0.2989(3) 0.8849(2) 0.1541(2)
C35 C 0.2490(3) 0.8422(3) 0.1801(2)
H35 H 0.2342 0.8058 0.1574
C36 C 0.2204(3) 0.8516(3) 0.2386(2)
H36 H 0.1858 0.8221 0.2552
C37 C 0.2420(3) 0.9042(2) 0.2734(2)
C38 C 0.2894(3) 0.9468(3) 0.2469(2)
H37 H 0.3016 0.9843 0.2687
C39 C 0.3205(3) 0.9369(3) 0.1887(2)
H38 H 0.3564 0.9658 0.1729
C40 C 0.2107(3) 0.9155(2) 0.3359(2)
H39 H 0.2133 0.9613 0.3447
H40 H 0.1571 0.9033 0.3355
N1 N 0.2561(2) 0.8937(2) 0.58337(19)
N2 N 0.3169(2) 0.9678(2) 0.47842(18)
N3 N 0.1847(2) 0.80681(19) 0.4896(2)
N4 N 0.2495(2) 0.8804(2) 0.38791(17)
O3 O 0.3502(3) 0.9383(4) 0.9061(2)
O4 O 0.3284(3) 0.8363(3) 0.90062(19)
O7 O 0.3101(2) 0.8252(2) 0.06300(18)
O8 O 0.3808(2) 0.90776(18) 0.07123(17)
Cd3 Cd 0.39801(2) 0.840682(18) 0.985519(17)
C5_2 C 0.7608(3) 0.2801(3) 0.0524(3)
H9_2 H 0.7101 0.2845 0.0343
H10_2 H 0.7711 0.2344 0.0575
C6_2 C 0.7622(4) 0.3108(3) 0.1136(3)
H11_2 H 0.7227 0.2915 0.1395
H12_2 H 0.8111 0.3019 0.1336
C7_2 C 0.6706(3) 0.3933(3) 0.1098(2)
H13_2 H 0.6461 0.3613 0.0832
H14_2 H 0.6499 0.3886 0.1517
C8_2 C 0.6507(4) 0.4580(3) 0.0859(3)
H15_2 H 0.5955 0.4626 0.0843
H16_2 H 0.6709 0.4905 0.1142
C9_2 C 0.4735(3) 0.7312(3) 0.0037(3)
C10_2 C 0.5257(3) 0.6755(2) 0.0079(3)
C11_2 C 0.5657(3) 0.6631(3) 0.0612(2)
H17_2 H 0.5566 0.6865 0.0977
C12_2 C 0.6191(3) 0.6160(3) 0.0602(2)
H18_2 H 0.6463 0.6076 0.0970
C13_2 C 0.6352(3) 0.5804(2) 0.0088(2)
C16_2 C 0.6986(3) 0.5363(2) 0.0095(2)
H22_2 H 0.7346 0.5511 0.0411
C28_2 C 0.9745(3) 0.3708(2) 0.0592(2)
H30_2 H 0.9542 0.3654 0.0992
C29_2 C 0.9524(3) 0.3312(2) 0.0116(2)
C32_2 C 0.8938(3) 0.2816(2) 0.0218(3)
H34_2 H 0.8976 0.2659 0.0646
C33_2 C 0.6679(3) 0.3721(3) 0.4083(2)
C34_2 C 0.7011(3) 0.3849(2) 0.3459(2)
C35_2 C 0.7510(3) 0.3422(3) 0.3199(2)
H35_2 H 0.7658 0.3058 0.3426
C36_2 C 0.7796(3) 0.3516(3) 0.2614(2)
H36_2 H 0.8142 0.3221 0.2448
C37_2 C 0.7580(3) 0.4042(2) 0.2266(2)
C38_2 C 0.7106(3) 0.4468(3) 0.2531(2)
H37_2 H 0.6984 0.4843 0.2313
C39_2 C 0.6795(3) 0.4369(3) 0.3113(2)
H38_2 H 0.6436 0.4658 0.3271
C40_2 C 0.7893(3) 0.4155(2) 0.1641(2)
H39_2 H 0.7867 0.4613 0.1553
H40_2 H 0.8429 0.4033 0.1645
N2_2 N 0.6831(2) 0.4678(2) 0.02158(18)
N3_2 N 0.8153(2) 0.30681(19) 0.0104(2)
N4_2 N 0.7505(2) 0.3804(2) 0.11209(17)
O1_2 O 0.4821(3) 0.7769(2) 0.0416(2)
C1_2 C 0.6331(3) 0.4367(3) 0.9759(2)
H1_2 H 0.6185 0.3945 0.9914
H2_2 H 0.5870 0.4621 0.9707
C2_2 C 0.6717(3) 0.4295(3) 0.9134(3)
H3_2 H 0.6816 0.4721 0.8964
H4_2 H 0.6371 0.4075 0.8848
C3_2 C 0.7322(3) 0.3273(3) 0.9182(2)
H5_2 H 0.6872 0.3186 0.9433
H6_2 H 0.7216 0.3125 0.8759
C4_2 C 0.7969(3) 0.2895(3) 0.9439(2)
H7_2 H 0.7844 0.2440 0.9417
H8_2 H 0.8418 0.2967 0.9182
C14_2 C 0.5926(3) 0.5929(3) 0.9567(2)
H19_2 H 0.5996 0.5678 0.9209
C15_2 C 0.5405(3) 0.6404(3) 0.9555(3)
H20_2 H 0.5143 0.6495 0.9183
H21_2 H 0.7240 0.5394 0.9692
C17_2 C 0.6715(4) 0.3891(5) 0.6201(3)
C18_2 C 0.7070(3) 0.3968(3) 0.6840(2)
C19_2 C 0.7471(3) 0.3482(3) 0.7122(2)
H23_2 H 0.7546 0.3099 0.6904
C20_2 C 0.7758(3) 0.3541(3) 0.7695(2)
H24_2 H 0.8033 0.3200 0.7868
C21_2 C 0.7660(3) 0.4089(2) 0.8041(2)
C22_2 C 0.7289(3) 0.4612(3) 0.7763(2)
H25_2 H 0.7222 0.4995 0.7986
C23_2 C 0.7026(3) 0.4557(3) 0.7166(2)
H26_2 H 0.6812 0.4915 0.6968
C24_2 C 0.7963(3) 0.4150(2) 0.8675(2)
H27_2 H 0.8431 0.3899 0.8707
H28_2 H 0.8095 0.4598 0.8750
C30_2 C 0.9839(3) 0.3402(3) 0.9523(2)
H31_2 H 0.9697 0.3135 0.9190
H33_2 H 0.9031 0.2455 0.9938
N1_2 N 0.7439(2) 0.3937(2) 0.91663(19)
O2_2 O 0.4264(2) 0.7331(2) 0.9664(2)
O3_2 O 0.6498(3) 0.4383(4) 0.5939(2)
O9_2 O 0.5106(6) 0.8830(5) 0.9465(4)
H41_2 H 0.540788 0.900846 0.98088
H42_2 H 0.498817 0.916889 0.916349
Cd4 Cd 0.60199(2) 0.159318(18) 0.014481(17)
Cd2 Cd 0.79964(2) 0.084147(17) 0.517109(16)
C1_3 C 0.6331(3) 0.0633(3) 0.4759(2)
H1_3 H 0.6185 0.1055 0.4914
H2_3 H 0.5870 0.0379 0.4707
C2_3 C 0.6717(3) 0.0705(3) 0.4134(3)
H3_3 H 0.6816 0.0279 0.3964
H4_3 H 0.6371 0.0925 0.3848
C3_3 C 0.7322(3) 0.1727(3) 0.4182(2)
H5_3 H 0.6872 0.1814 0.4433
H6_3 H 0.7216 0.1875 0.3759
C4_3 C 0.7969(3) 0.2105(3) 0.4439(2)
H7_3 H 0.7844 0.2560 0.4417
H8_3 H 0.8418 0.2033 0.4182
C5_3 C 0.7608(3) 0.2199(3) 0.5524(3)
H9_3 H 0.7101 0.2155 0.5343
H10_3 H 0.7711 0.2656 0.5575
C6_3 C 0.7622(4) 0.1892(3) 0.6136(3)
H11_3 H 0.7227 0.2085 0.6395
H12_3 H 0.8111 0.1981 0.6336
C7_3 C 0.6706(3) 0.1067(3) 0.6098(2)
H13_3 H 0.6461 0.1387 0.5832
H14_3 H 0.6499 0.1114 0.6517
C8_3 C 0.6507(4) 0.0420(3) 0.5859(3)
H15_3 H 0.5955 0.0374 0.5843
H16_3 H 0.6709 0.0095 0.6142
C17_3 C 0.6715(4) 0.1109(5) 0.1201(3)
C18_3 C 0.7070(3) 0.1032(3) 0.1840(2)
C19_3 C 0.7471(3) 0.1518(3) 0.2122(2)
H23_3 H 0.7546 0.1901 0.1904
C20_3 C 0.7758(3) 0.1459(3) 0.2695(2)
H24_3 H 0.8033 0.1800 0.2868
C21_3 C 0.7660(3) 0.0911(2) 0.3041(2)
C22_3 C 0.7289(3) 0.0388(3) 0.2763(2)
H25_3 H 0.7222 0.0005 0.2986
C23_3 C 0.7026(3) 0.0443(3) 0.2166(2)
H26_3 H 0.6812 0.0085 0.1968
C24_3 C 0.7963(3) 0.0850(2) 0.3675(2)
H27_3 H 0.8431 0.1101 0.3707
H28_3 H 0.8095 0.0402 0.3750
C28_3 C 0.9745(3) 0.1292(2) 0.5592(2)
H30_3 H 0.9542 0.1346 0.5992
C29_3 C 0.9524(3) 0.1688(2) 0.5116(2)
C30_3 C 0.9839(3) 0.1598(3) 0.4523(2)
H31_3 H 0.9697 0.1865 0.4190
C32_3 C 0.8938(3) 0.2184(2) 0.5218(3)
H33_3 H 0.9031 0.2545 0.4938
H34_3 H 0.8976 0.2341 0.5646
C33_3 C 0.6679(3) 0.1279(3) 0.9083(2)
C34_3 C 0.7011(3) 0.1151(2) 0.8459(2)
C35_3 C 0.7510(3) 0.1578(3) 0.8199(2)
H35_3 H 0.7658 0.1942 0.8426
C36_3 C 0.7796(3) 0.1484(3) 0.7614(2)
H36_3 H 0.8142 0.1779 0.7448
C37_3 C 0.7580(3) 0.0958(2) 0.7266(2)
C38_3 C 0.7106(3) 0.0532(3) 0.7531(2)
H37_3 H 0.6984 0.0157 0.7313
C39_3 C 0.6795(3) 0.0631(3) 0.8113(2)
H38_3 H 0.6436 0.0342 0.8271
C40_3 C 0.7893(3) 0.0845(2) 0.6641(2)
H39_3 H 0.7867 0.0387 0.6553
H40_3 H 0.8429 0.0967 0.6645
N1_3 N 0.7439(2) 0.1063(2) 0.41663(19)
N2_3 N 0.6831(2) 0.0322(2) 0.52158(18)
N3_3 N 0.8153(2) 0.19319(19) 0.5104(2)
N4_3 N 0.7505(2) 0.1196(2) 0.61209(17)
O3_3 O 0.6498(3) 0.0617(4) 0.0939(2)
O4_2 O 0.6716(3) 0.1637(3) 0.09938(19)
O7_2 O 0.6899(2) 0.1748(2) 0.93700(18)
O8_2 O 0.6192(2) 0.09224(18) 0.92877(17)
O12 O 0.8753(2) 0.01488(17) 0.47126(15)
Cd1_2 Cd 0.39801(2) 0.659318(18) 0.485519(17)
C9_3 C 0.4735(3) 0.7688(3) 0.5037(3)
C10_3 C 0.5257(3) 0.8245(2) 0.5079(3)
C11_3 C 0.5657(3) 0.8369(3) 0.5612(2)
H17_3 H 0.5566 0.8135 0.5977
C12_3 C 0.6191(3) 0.8840(3) 0.5602(2)
H18_3 H 0.6463 0.8924 0.5970
C13_3 C 0.6352(3) 0.9196(2) 0.5088(2)
C14_3 C 0.5926(3) 0.9071(3) 0.4567(2)
H19_3 H 0.5996 0.9322 0.4209
C15_3 C 0.5405(3) 0.8596(3) 0.4555(3)
H20_3 H 0.5143 0.8505 0.4183
C16_3 C 0.6986(3) 0.9637(2) 0.5095(2)
H21_3 H 0.7240 0.9606 0.4692
H22_3 H 0.7346 0.9489 0.5411
O1_3 O 0.4821(3) 0.7231(2) 0.5416(2)
O2_3 O 0.4264(2) 0.7669(2) 0.4664(2)
O9_3 O 0.5106(6) 0.6170(5) 0.4465(4)
O10_2 O 0.3284(3) 0.6637(3) 0.40062(19)
O11 O 0.8644(2) 0.99327(17) 0.57002(15)
O13_2 O 0.3101(2) 0.6748(2) 0.56300(18)
O14_2 O 0.3808(2) 0.59224(18) 0.57123(17)
H41_3 H 0.540788 0.599154 0.48088
H42_3 H 0.498817 0.583111 0.416349
C1_4 C 0.3669(3) 0.5633(3) 0.0241(2)
H1_4 H 0.3815 0.6055 0.0086
H2_4 H 0.4130 0.5379 0.0293
C2_4 C 0.3283(3) 0.5705(3) 0.0866(3)
H3_4 H 0.3184 0.5279 0.1036
H4_4 H 0.3629 0.5925 0.1152
C3_4 C 0.2678(3) 0.6727(3) 0.0818(2)
H5_4 H 0.3128 0.6814 0.0567
H6_4 H 0.2784 0.6875 0.1241
C4_4 C 0.2031(3) 0.7105(3) 0.0561(2)
H7_4 H 0.2156 0.7560 0.0583
H8_4 H 0.1582 0.7033 0.0818
C14_4 C 0.4074(3) 0.4071(3) 0.0433(2)
H19_4 H 0.4004 0.4322 0.0791
C15_4 C 0.4595(3) 0.3596(3) 0.0445(3)
H20_4 H 0.4857 0.3505 0.0817
H21_4 H 0.2760 0.4606 0.0308
C17_4 C 0.3285(4) 0.6109(5) 0.3799(3)
C18_4 C 0.2930(3) 0.6032(3) 0.3160(2)
C19_4 C 0.2529(3) 0.6518(3) 0.2878(2)
H23_4 H 0.2454 0.6901 0.3096
C20_4 C 0.2242(3) 0.6459(3) 0.2305(2)
H24_4 H 0.1967 0.6800 0.2132
C21_4 C 0.2340(3) 0.5911(2) 0.1959(2)
C22_4 C 0.2711(3) 0.5388(3) 0.2237(2)
H25_4 H 0.2778 0.5005 0.2014
C23_4 C 0.2974(3) 0.5443(3) 0.2834(2)
H26_4 H 0.3188 0.5085 0.3032
C24_4 C 0.2037(3) 0.5850(2) 0.1325(2)
H27_4 H 0.1569 0.6101 0.1293
H28_4 H 0.1905 0.5402 0.1250
C30_4 C 0.0161(3) 0.6598(3) 0.0477(2)
H31_4 H 0.0303 0.6865 0.0810
H33_4 H 0.0969 0.7545 0.0062
N1_4 N 0.2561(2) 0.6063(2) 0.08337(19)
O2_4 O 0.5736(2) 0.2669(2) 0.0336(2)
O3_4 O 0.3502(3) 0.5617(4) 0.4061(2)
O9_4 O 0.4894(6) 0.1170(5) 0.0535(4)
O12_2 O 0.1247(2) 0.51488(17) 0.02874(15)
H41_4 H 0.459212 0.0991545 0.0191199
H42_4 H 0.501183 0.083111 0.083651
Cd2_2 Cd 0.20036(2) 0.584147(17) 0.982891(16)
C5_4 C 0.2392(3) 0.7199(3) 0.9476(3)
H9_4 H 0.2899 0.7155 0.9657
H10_4 H 0.2289 0.7656 0.9425
C6_4 C 0.2378(4) 0.6892(3) 0.8864(3)
H11_4 H 0.2773 0.7085 0.8605
H12_4 H 0.1889 0.6981 0.8664
C7_4 C 0.3294(3) 0.6067(3) 0.8902(2)
H13_4 H 0.3539 0.6387 0.9168
H14_4 H 0.3501 0.6114 0.8483
C8_4 C 0.3493(4) 0.5420(3) 0.9141(3)
H15_4 H 0.4045 0.5374 0.9157
H16_4 H 0.3291 0.5095 0.8858
C9_4 C 0.5265(3) 0.2688(3) 0.9963(3)
C10_4 C 0.4743(3) 0.3245(2) 0.9921(3)
C11_4 C 0.4343(3) 0.3369(3) 0.9388(2)
H17_4 H 0.4434 0.3135 0.9023
C12_4 C 0.3809(3) 0.3840(3) 0.9398(2)
H18_4 H 0.3537 0.3924 0.9030
C13_4 C 0.3648(3) 0.4196(2) 0.9912(2)
C16_4 C 0.3014(3) 0.4637(2) 0.9905(2)
H22_4 H 0.2654 0.4489 0.9589
C28_4 C 0.0255(3) 0.6292(2) 0.9408(2)
H30_4 H 0.0458 0.6346 0.9008
C29_4 C 0.0476(3) 0.6688(2) 0.9884(2)
C32_4 C 0.1062(3) 0.7184(2) 0.9782(3)
H34_4 H 0.1024 0.7341 0.9354
C33_4 C 0.3321(3) 0.6279(3) 0.5917(2)
C34_4 C 0.2989(3) 0.6151(2) 0.6541(2)
C35_4 C 0.2490(3) 0.6578(3) 0.6801(2)
H35_4 H 0.2342 0.6942 0.6574
C36_4 C 0.2204(3) 0.6484(3) 0.7386(2)
H36_4 H 0.1858 0.6779 0.7552
C37_4 C 0.2420(3) 0.5958(2) 0.7734(2)
C38_4 C 0.2894(3) 0.5532(3) 0.7469(2)
H37_4 H 0.3016 0.5157 0.7687
C39_4 C 0.3205(3) 0.5631(3) 0.6887(2)
H38_4 H 0.3564 0.5342 0.6729
C40_4 C 0.2107(3) 0.5845(2) 0.8359(2)
H39_4 H 0.2133 0.5387 0.8447
H40_4 H 0.1571 0.5967 0.8355
N2_4 N 0.3169(2) 0.5322(2) 0.97842(18)
N3_4 N 0.1847(2) 0.69319(19) 0.9896(2)
N4_4 N 0.2495(2) 0.6196(2) 0.88791(17)
O1_4 O 0.5179(3) 0.2231(2) 0.9584(2)
O11_2 O 0.1356(2) 0.49327(17) 0.92998(15)
C25_3 C 0.8929(3) 0.9821(2) 0.5189(2)
C26_3 C 0.9451(3) 0.9287(2) 0.5087(2)
C27_3 C 0.9738(3) 0.9182(2) 0.4517(2)
H29_3 H 0.9579 0.9441 0.4184
C31_3 C 0.9644(3) 0.8886(3) 0.5566(2)
H32_3 H 0.9421 0.8941 0.5959
C27_4 C 0.0262(3) 0.4182(2) 0.0483(2)
H29_4 H 0.0421 0.4441 0.0816
C25_4 C 0.1071(3) 0.4821(2) 0.9811(2)
C26_4 C 0.0549(3) 0.4287(2) 0.9913(2)
C31_4 C 0.0356(3) 0.3886(3) 0.9434(2)
H32_4 H 0.0579 0.3941 0.9041
loop_
_geom_bond_atom_site_label_1
_geom_bond_atom_site_label_2
_geom_bond_site_symmetry_1
_geom_bond_site_symmetry_2
C25 C26 1_555 1_555
C26 C27 1_555 1_555
C27 H29 1_555 1_555
C31 C26 1_555 1_555
H32 C31 1_555 1_555
O5 C25 1_555 1_555
O6 Cd5 1_555 1_555
C25_2 C26_2 1_555 1_555
C31_2 C26_2 1_555 1_555
H32_2 C31_2 1_555 1_555
O5_2 C25_2 1_555 1_555
Cd5_2 O5_2 1_555 1_555
C27_2 H29_2 1_555 1_555
Cd1 O1 1_555 1_555
C9 C10 1_555 1_555
C10 C11 1_555 1_555
C11 H17 1_555 1_555
C12 C11 1_555 1_555
H18 C12 1_555 1_555
C13 C12 1_555 1_555
C14 C13 1_555 1_555
H19 C14 1_555 1_555
C15 C10 1_555 1_555
H20 C15 1_555 1_555
C16 C13 1_555 1_555
H21 C16 1_555 1_555
H22 C16 1_555 1_555
O1 C9 1_555 1_555
O2 Cd1 1_555 1_555
O9 Cd1 1_555 1_555
O10 Cd1 1_555 1_555
O13 Cd1 1_555 1_555
O14 Cd1 1_555 1_555
C9 O2 1_555 1_555
C14 C15 1_555 1_555
O9 H41 1_555 1_555
O9 H42 1_555 1_555
Cd5 N1 1_555 1_555
C1 H1 1_555 1_555
H2 C1 1_555 1_555
C2 C1 1_555 1_555
H3 C2 1_555 1_555
H4 C2 1_555 1_555
C3 H5 1_555 1_555
H6 C3 1_555 1_555
C4 C3 1_555 1_555
H7 C4 1_555 1_555
H8 C4 1_555 1_555
C5 H9 1_555 1_555
H10 C5 1_555 1_555
C6 C5 1_555 1_555
H11 C6 1_555 1_555
H12 C6 1_555 1_555
C7 H13 1_555 1_555
H14 C7 1_555 1_555
C8 C7 1_555 1_555
H15 C8 1_555 1_555
H16 C8 1_555 1_555
C17 C18 1_555 1_555
C18 C19 1_555 1_555
C19 H23 1_555 1_555
C20 C19 1_555 1_555
H24 C20 1_555 1_555
C21 C20 1_555 1_555
C22 C21 1_555 1_555
H25 C22 1_555 1_555
C23 C18 1_555 1_555
H26 C23 1_555 1_555
C24 C21 1_555 1_555
H27 C24 1_555 1_555
H28 C24 1_555 1_555
H30 C28 1_555 1_555
C29 C28 1_555 1_555
C30 C29 1_555 1_555
H31 C30 1_555 1_555
C32 C29 1_555 1_555
H33 C32 1_555 1_555
H34 C32 1_555 1_555
C33 C34 1_555 1_555
C34 C35 1_555 1_555
C35 H35 1_555 1_555
C36 C35 1_555 1_555
H36 C36 1_555 1_555
C37 C36 1_555 1_555
C38 C37 1_555 1_555
H37 C38 1_555 1_555
C39 C34 1_555 1_555
H38 C39 1_555 1_555
C40 C37 1_555 1_555
H39 C40 1_555 1_555
H40 C40 1_555 1_555
N1 C2 1_555 1_555
N2 Cd5 1_555 1_555
N3 Cd5 1_555 1_555
N4 Cd5 1_555 1_555
O3 C17 1_555 1_555
O4 C17 1_555 1_555
O7 C33 1_555 1_555
O8 C33 1_555 1_555
Cd3 O4 1_555 1_555
C1 N2 1_555 1_555
C3 N1 1_555 1_555
C4 N3 1_555 1_555
C5 N3 1_555 1_555
C6 N4 1_555 1_555
C7 N4 1_555 1_555
C8 N2 1_555 1_555
C22 C23 1_555 1_555
C24 N1 1_555 1_555
C32 N3 1_555 1_555
C38 C39 1_555 1_555
C40 N4 1_555 1_555
C5_2 H9_2 1_555 1_555
H10_2 C5_2 1_555 1_555
C6_2 C5_2 1_555 1_555
H11_2 C6_2 1_555 1_555
H12_2 C6_2 1_555 1_555
C7_2 H13_2 1_555 1_555
H14_2 C7_2 1_555 1_555
C8_2 C7_2 1_555 1_555
H15_2 C8_2 1_555 1_555
H16_2 C8_2 1_555 1_555
C9_2 C10_2 1_555 1_555
C10_2 C11_2 1_555 1_555
C11_2 H17_2 1_555 1_555
C12_2 C11_2 1_555 1_555
H18_2 C12_2 1_555 1_555
C13_2 C12_2 1_555 1_555
C16_2 C13_2 1_555 1_555
H22_2 C16_2 1_555 1_555
H30_2 C28_2 1_555 1_555
C29_2 C28_2 1_555 1_555
C32_2 C29_2 1_555 1_555
H34_2 C32_2 1_555 1_555
C33_2 C34_2 1_555 1_555
C34_2 C35_2 1_555 1_555
C35_2 H35_2 1_555 1_555
C36_2 C35_2 1_555 1_555
H36_2 C36_2 1_555 1_555
C37_2 C36_2 1_555 1_555
C38_2 C37_2 1_555 1_555
H37_2 C38_2 1_555 1_555
C39_2 C34_2 1_555 1_555
H38_2 C39_2 1_555 1_555
C40_2 C37_2 1_555 1_555
H39_2 C40_2 1_555 1_555
H40_2 C40_2 1_555 1_555
N2_2 Cd5_2 1_555 1_555
N3_2 Cd5_2 1_555 1_555
N4_2 Cd5_2 1_555 1_555
O1_2 C9_2 1_555 1_555
O13 C33_2 1_555 1_555
O14 C33_2 1_555 1_555
C5_2 N3_2 1_555 1_555
C6_2 N4_2 1_555 1_555
C7_2 N4_2 1_555 1_555
C8_2 N2_2 1_555 1_555
C16_2 N2_2 1_555 1_555
C32_2 N3_2 1_555 1_555
C38_2 C39_2 1_555 1_555
C40_2 N4_2 1_555 1_555
C1_2 H1_2 1_555 1_555
H2_2 C1_2 1_555 1_555
C2_2 C1_2 1_555 1_555
H3_2 C2_2 1_555 1_555
H4_2 C2_2 1_555 1_555
C3_2 H5_2 1_555 1_555
H6_2 C3_2 1_555 1_555
C4_2 C3_2 1_555 1_555
H7_2 C4_2 1_555 1_555
H8_2 C4_2 1_555 1_555
H19_2 C14_2 1_555 1_555
H20_2 C15_2 1_555 1_555
C17_2 C18_2 1_555 1_555
C18_2 C19_2 1_555 1_555
C19_2 H23_2 1_555 1_555
C20_2 C19_2 1_555 1_555
H24_2 C20_2 1_555 1_555
C21_2 C20_2 1_555 1_555
C22_2 C21_2 1_555 1_555
H25_2 C22_2 1_555 1_555
C23_2 C18_2 1_555 1_555
H26_2 C23_2 1_555 1_555
C24_2 C21_2 1_555 1_555
H27_2 C24_2 1_555 1_555
H28_2 C24_2 1_555 1_555
H31_2 C30_2 1_555 1_555
N1_2 C2_2 1_555 1_555
O2_2 Cd3 1_555 1_555
O3_2 C17_2 1_555 1_555
O10 C17_2 1_555 1_555
O9_2 Cd3 1_555 1_555
C3_2 N1_2 1_555 1_555
C14_2 C15_2 1_555 1_555
C22_2 C23_2 1_555 1_555
C24_2 N1_2 1_555 1_555
O9_2 H41_2 1_555 1_555
O9_2 H42_2 1_555 1_555
Cd2 N1_3 1_555 1_555
C1_3 H1_3 1_555 1_555
H2_3 C1_3 1_555 1_555
C2_3 C1_3 1_555 1_555
H3_3 C2_3 1_555 1_555
H4_3 C2_3 1_555 1_555
C3_3 H5_3 1_555 1_555
H6_3 C3_3 1_555 1_555
C4_3 C3_3 1_555 1_555
H7_3 C4_3 1_555 1_555
H8_3 C4_3 1_555 1_555
C5_3 H9_3 1_555 1_555
H10_3 C5_3 1_555 1_555
C6_3 C5_3 1_555 1_555
H11_3 C6_3 1_555 1_555
H12_3 C6_3 1_555 1_555
C7_3 H13_3 1_555 1_555
H14_3 C7_3 1_555 1_555
C8_3 C7_3 1_555 1_555
H15_3 C8_3 1_555 1_555
H16_3 C8_3 1_555 1_555
C17_3 C18_3 1_555 1_555
C18_3 C19_3 1_555 1_555
C19_3 H23_3 1_555 1_555
C20_3 C19_3 1_555 1_555
H24_3 C20_3 1_555 1_555
C21_3 C20_3 1_555 1_555
C22_3 C21_3 1_555 1_555
H25_3 C22_3 1_555 1_555
C23_3 C18_3 1_555 1_555
H26_3 C23_3 1_555 1_555
C24_3 C21_3 1_555 1_555
H27_3 C24_3 1_555 1_555
H28_3 C24_3 1_555 1_555
H30_3 C28_3 1_555 1_555
C29_3 C28_3 1_555 1_555
C30_3 C29_3 1_555 1_555
H31_3 C30_3 1_555 1_555
C32_3 C29_3 1_555 1_555
H33_3 C32_3 1_555 1_555
H34_3 C32_3 1_555 1_555
C33_3 C34_3 1_555 1_555
C34_3 C35_3 1_555 1_555
C35_3 H35_3 1_555 1_555
C36_3 C35_3 1_555 1_555
H36_3 C36_3 1_555 1_555
C37_3 C36_3 1_555 1_555
C38_3 C37_3 1_555 1_555
H37_3 C38_3 1_555 1_555
C39_3 C34_3 1_555 1_555
H38_3 C39_3 1_555 1_555
C40_3 C37_3 1_555 1_555
H39_3 C40_3 1_555 1_555
H40_3 C40_3 1_555 1_555
N1_3 C2_3 1_555 1_555
N2_3 Cd2 1_555 1_555
N3_3 Cd2 1_555 1_555
N4_3 Cd2 1_555 1_555
O3_3 C17_3 1_555 1_555
O4_2 C17_3 1_555 1_555
O7_2 C33_3 1_555 1_555
O8_2 C33_3 1_555 1_555
Cd4 O4_2 1_555 1_555
O12 Cd2 1_555 1_555
C1_3 N2_3 1_555 1_555
C3_3 N1_3 1_555 1_555
C4_3 N3_3 1_555 1_555
C5_3 N3_3 1_555 1_555
C6_3 N4_3 1_555 1_555
C7_3 N4_3 1_555 1_555
C8_3 N2_3 1_555 1_555
C22_3 C23_3 1_555 1_555
C24_3 N1_3 1_555 1_555
C32_3 N3_3 1_555 1_555
C38_3 C39_3 1_555 1_555
C40_3 N4_3 1_555 1_555
Cd1_2 O1_3 1_555 1_555
C9_3 C10_3 1_555 1_555
C10_3 C11_3 1_555 1_555
C11_3 H17_3 1_555 1_555
C12_3 C11_3 1_555 1_555
H18_3 C12_3 1_555 1_555
C13_3 C12_3 1_555 1_555
C14_3 C13_3 1_555 1_555
H19_3 C14_3 1_555 1_555
C15_3 C10_3 1_555 1_555
H20_3 C15_3 1_555 1_555
C16_3 C13_3 1_555 1_555
H21_3 C16_3 1_555 1_555
H22_3 C16_3 1_555 1_555
O1_3 C9_3 1_555 1_555
O2_3 Cd1_2 1_555 1_555
O9_3 Cd1_2 1_555 1_555
O10_2 Cd1_2 1_555 1_555
O13_2 Cd1_2 1_555 1_555
O14_2 Cd1_2 1_555 1_555
C9_3 O2_3 1_555 1_555
C14_3 C15_3 1_555 1_555
O9_3 H41_3 1_555 1_555
O9_3 H42_3 1_555 1_555
C1_4 H1_4 1_555 1_555
H2_4 C1_4 1_555 1_555
C2_4 C1_4 1_555 1_555
H3_4 C2_4 1_555 1_555
H4_4 C2_4 1_555 1_555
C3_4 H5_4 1_555 1_555
H6_4 C3_4 1_555 1_555
C4_4 C3_4 1_555 1_555
H7_4 C4_4 1_555 1_555
H8_4 C4_4 1_555 1_555
H19_4 C14_4 1_555 1_555
H20_4 C15_4 1_555 1_555
C17_4 C18_4 1_555 1_555
C18_4 C19_4 1_555 1_555
C19_4 H23_4 1_555 1_555
C20_4 C19_4 1_555 1_555
H24_4 C20_4 1_555 1_555
C21_4 C20_4 1_555 1_555
C22_4 C21_4 1_555 1_555
H25_4 C22_4 1_555 1_555
C23_4 C18_4 1_555 1_555
H26_4 C23_4 1_555 1_555
C24_4 C21_4 1_555 1_555
H27_4 C24_4 1_555 1_555
H28_4 C24_4 1_555 1_555
H31_4 C30_4 1_555 1_555
N1_4 C2_4 1_555 1_555
O2_4 Cd4 1_555 1_555
O3_4 C17_4 1_555 1_555
O10_2 C17_4 1_555 1_555
O9_4 Cd4 1_555 1_555
C3_4 N1_4 1_555 1_555
C14_4 C15_4 1_555 1_555
C22_4 C23_4 1_555 1_555
C24_4 N1_4 1_555 1_555
O9_4 H41_4 1_555 1_555
O9_4 H42_4 1_555 1_555
C5_4 H9_4 1_555 1_555
H10_4 C5_4 1_555 1_555
C6_4 C5_4 1_555 1_555
H11_4 C6_4 1_555 1_555
H12_4 C6_4 1_555 1_555
C7_4 H13_4 1_555 1_555
H14_4 C7_4 1_555 1_555
C8_4 C7_4 1_555 1_555
H15_4 C8_4 1_555 1_555
H16_4 C8_4 1_555 1_555
C9_4 C10_4 1_555 1_555
C10_4 C11_4 1_555 1_555
C11_4 H17_4 1_555 1_555
C12_4 C11_4 1_555 1_555
H18_4 C12_4 1_555 1_555
C13_4 C12_4 1_555 1_555
C16_4 C13_4 1_555 1_555
H22_4 C16_4 1_555 1_555
H30_4 C28_4 1_555 1_555
C29_4 C28_4 1_555 1_555
C32_4 C29_4 1_555 1_555
H34_4 C32_4 1_555 1_555
C33_4 C34_4 1_555 1_555
C34_4 C35_4 1_555 1_555
C35_4 H35_4 1_555 1_555
C36_4 C35_4 1_555 1_555
H36_4 C36_4 1_555 1_555
C37_4 C36_4 1_555 1_555
C38_4 C37_4 1_555 1_555
H37_4 C38_4 1_555 1_555
C39_4 C34_4 1_555 1_555
H38_4 C39_4 1_555 1_555
C40_4 C37_4 1_555 1_555
H39_4 C40_4 1_555 1_555
H40_4 C40_4 1_555 1_555
N2_4 Cd2_2 1_555 1_555
N3_4 Cd2_2 1_555 1_555
N4_4 Cd2_2 1_555 1_555
O1_4 C9_4 1_555 1_555
O13_2 C33_4 1_555 1_555
O14_2 C33_4 1_555 1_555
O11_2 Cd2_2 1_555 1_555
C5_4 N3_4 1_555 1_555
C6_4 N4_4 1_555 1_555
C7_4 N4_4 1_555 1_555
C8_4 N2_4 1_555 1_555
C16_4 N2_4 1_555 1_555
C32_4 N3_4 1_555 1_555
C38_4 C39_4 1_555 1_555
C40_4 N4_4 1_555 1_555
C25_3 C26_3 1_555 1_555
C26_3 C27_3 1_555 1_555
C27_3 H29_3 1_555 1_555
C31_3 C26_3 1_555 1_555
H32_3 C31_3 1_555 1_555
O11 C25_3 1_555 1_555
C27_4 H29_4 1_555 1_555
C25_4 C26_4 1_555 1_555
C31_4 C26_4 1_555 1_555
H32_4 C31_4 1_555 1_555
O11_2 C25_4 1_555 1_555

#END
