
###############################################################################
#
# This file contains modified crystal structure data generated from the
# MOF subset of the Cambridge Structural Database (CSD) v543 
# hosted by the Cambridge Crystallographic Data Centre (CCDC).
#
# This work is licensed under the Creative Commons
# Attribution-NonCommercial-ShareAlike 4.0 International License.
# To view a copy of this license, visit
# http://creativecommons.org/licenses/by-nc-sa/4.0/
# or send a letter to
# Creative Commons, PO Box 1866, Mountain View, CA 94042, USA.
#
# CIF created using the CSD Python API on 29 September 2022
# The structure has been converted into the P1 space group
# The structure has a 3D framework
# The original CSD entry PENBAO is in the monoclinic crystal system
# The framework has been calculated to contain at least 10.0% void space
# The void calculation uses a probe of radius 1.32A, grid spacing 0.4
# The framework is charged, counterions have been retained in the structure
#
###############################################################################

data_PENBAO
_chemical_formula_moiety         '(C128 H56 Co18 O70 8-)n'
_symmetry_cell_setting           triclinic
_symmetry_space_group_name_H-M   'P 1'
_symmetry_Int_Tables_number      1
_space_group_name_Hall           'P 1'
loop_
_symmetry_equiv_pos_site_id
_symmetry_equiv_pos_as_xyz
1 x,y,z
_cell_length_a                   14.620(3)
_cell_length_b                   18.975(4)
_cell_length_c                   13.793(3)
_cell_angle_alpha                90
_cell_angle_beta                 97.37(3)
_cell_angle_gamma                90
_cell_volume                     3794.77
loop_
_atom_site_label
_atom_site_type_symbol
_atom_site_fract_x
_atom_site_fract_y
_atom_site_fract_z
Co1 Co 0.0000 -0.0000 0.0000
Co5 Co -0.0000 -0.0000 0.5000
O21 O 0.19503(12) 0.03276(8) 0.42847(13)
O23 O 0.13333(11) 0.04447(8) 0.22762(12)
O24 O 0.00087(11) 0.05520(8) 0.37163(12)
Co1_2 Co -0.0000 -0.0000 1.0000
Co13 Co 0.10592(2) 0.02734(2) 0.83057(2)
O27 O 0.08724(11) 0.08431(8) 0.95828(12)
Co1_3 Co 0.0000 1.0000 0.0000
Co2 Co 0.10592(2) 0.97266(2) 0.33057(2)
Co3 Co -0.0000 0.81667(2) 0.2500
O1 O 0.12777(12) 0.81577(8) 0.19954(13)
O2 O 0.20320(11) 0.91180(9) 0.26614(12)
O3 O 0.11418(11) 0.94219(8) 0.05276(12)
O5 O 0.36667(11) 0.54447(8) 0.27238(12)
O6 O 0.50087(11) 0.55520(8) 0.37163(12)
O7 O 0.41276(11) 0.58431(8) 0.54172(12)
O8 O 0.43927(12) 0.69227(8) 0.60657(13)
O9 O -0.0000 0.92526(15) 0.2500
O10 O -0.0000 0.70480(14) 0.2500
C1 C 0.33385(16) 0.79963(12) 0.16346(17)
C2 C 0.26264(15) 0.84875(11) 0.13612(16)
C3 C 0.25482(16) 0.87993(12) 0.04245(17)
C5 C 0.3831(2) 0.80892(18) 0.0012(2)
C6 C 0.39423(19) 0.78142(15) 0.0952(2)
H4 H 0.4435 0.7497 0.1141
C7 C 0.34869(15) 0.76267(11) 0.25978(17)
C8 C 0.37150(15) 0.69076(11) 0.26054(16)
H5 H 0.3707 0.6667 0.2000
C9 C 0.39544(14) 0.65323(10) 0.34770(16)
C10 C 0.39439(14) 0.68718(10) 0.43787(16)
C11 C 0.36768(15) 0.75834(11) 0.43741(16)
H6 H 0.3645 0.7815 0.4979
C12 C 0.34566(16) 0.79586(12) 0.35052(18)
H7 H 0.3285 0.8441 0.3527
C13 C 0.19127(14) 0.86095(11) 0.20568(15)
C14 C 0.18205(15) 0.93373(11) 0.00576(16)
C15 C 0.42240(14) 0.57783(11) 0.33133(15)
C16 C 0.41828(14) 0.65200(10) 0.53664(16)
H8 H 0.0428 0.6792 0.2391
Co5_2 Co -0.0000 1.0000 0.5000
Co7 Co 0.5000 0.5000 0.5000
Co9 Co 0.60592(2) 0.47266(2) 0.33057(2)
Co11 Co 0.39408(2) 0.47266(2) 0.16943(2)
Co14 Co 0.39408(2) 0.52734(2) 0.66943(2)
Co17 Co 0.5000 0.68333(2) 0.7500
O28 O 0.08724(11) 0.91569(8) 0.45828(12)
O30 O 0.06073(12) 0.80773(8) 0.39343(13)
Co1_4 Co -0.0000 1.0000 1.0000
O4 O 0.19503(12) 0.96724(8) 0.92847(13)
C4 C 0.3139(2) 0.85817(16) 0.9754(2)
H2 H 0.3065 0.8775 0.9114
H3 H 0.4222 0.7943 0.9551
O26 O 0.00087(11) 0.94480(8) 0.87163(12)
Co1_5 Co 1.0000 -0.0000 0.0000
Co5_3 Co 1.0000 -0.0000 0.5000
Co12 Co 0.89408(2) 0.02734(2) 0.66943(2)
O20 O 0.80497(12) 0.03276(8) 0.07153(13)
O22 O 0.86667(11) 0.04447(8) 0.27238(12)
O25 O 0.99913(11) 0.05520(8) 0.12837(12)
Co1_6 Co 1.0000 -0.0000 1.0000
O19 O 0.88582(11) 0.05781(8) 0.94724(12)
Co1_7 Co 1.0000 1.0000 0.0000
Co3_2 Co 1.0000 0.81667(2) 0.2500
O9_2 O 1.0000 0.92526(15) 0.2500
O10_2 O 1.0000 0.70480(14) 0.2500
H1 H 0.9572 0.6792 0.2609
Co4 Co 0.89408(2) 0.97266(2) 0.16943(2)
O11 O 0.87223(12) 0.81577(8) 0.30046(13)
O12 O 0.79680(11) 0.91180(9) 0.23386(12)
O13 O 0.88582(11) 0.94219(8) 0.44724(12)
O14 O 0.80497(12) 0.96724(8) 0.57153(13)
O15 O 0.63333(11) 0.54447(8) 0.22762(12)
O16 O 0.49913(11) 0.55520(8) 0.12837(12)
C17 C 0.66615(16) 0.79963(12) 0.33654(17)
C18 C 0.73736(15) 0.84875(11) 0.36388(16)
C19 C 0.74518(16) 0.87993(12) 0.45755(17)
C20 C 0.6861(2) 0.85817(16) 0.5246(2)
H9 H 0.6935 0.8775 0.5886
C21 C 0.6169(2) 0.80892(18) 0.4988(2)
H10 H 0.5778 0.7943 0.5449
C22 C 0.60577(19) 0.78142(15) 0.4048(2)
H11 H 0.5565 0.7497 0.3859
C23 C 0.65131(15) 0.76267(11) 0.24022(17)
C24 C 0.62850(15) 0.69076(11) 0.23946(16)
H12 H 0.6293 0.6667 0.3000
C25 C 0.60456(14) 0.65323(10) 0.15230(16)
C26 C 0.60561(14) 0.68718(10) 0.06213(16)
C27 C 0.63232(15) 0.75834(11) 0.06259(16)
H13 H 0.6355 0.7815 0.0021
C28 C 0.65434(16) 0.79586(12) 0.14948(18)
H14 H 0.6715 0.8441 0.1473
C29 C 0.80873(14) 0.86095(11) 0.29432(15)
C30 C 0.81795(15) 0.93373(11) 0.49424(16)
C31 C 0.57760(14) 0.57783(11) 0.16867(15)
Co5_4 Co 1.0000 1.0000 0.5000
Co6 Co 0.5000 0.5000 0.0000
O29 O 0.91276(11) 0.91569(8) 0.04172(12)
O31 O 0.93927(12) 0.80773(8) 0.10657(13)
Co1_8 Co 1.0000 1.0000 1.0000
O17 O 0.58724(11) 0.58431(8) 0.95828(12)
O18 O 0.56073(12) 0.69227(8) 0.89343(13)
C32 C 0.58172(14) 0.65200(10) 0.96336(16)
Co6_2 Co 0.5000 0.5000 1.0000
Co15 Co 0.60592(2) 0.52734(2) 0.83057(2)
O19_2 O 0.11418(11) 0.05781(8) 0.55276(12)
O27_2 O 0.91276(11) 0.08431(8) 0.54172(12)
O26_2 O 0.99913(11) 0.94480(8) 0.62837(12)
Co17_2 Co 0.0000 0.18333(2) 0.7500
Co3_3 Co 0.5000 0.31667(2) 0.2500
O1_2 O 0.62777(12) 0.31577(8) 0.19954(13)
O2_2 O 0.70320(11) 0.41180(9) 0.26614(12)
O3_2 O 0.61418(11) 0.44219(8) 0.05276(12)
O8_2 O 0.93927(12) 0.19227(8) 0.60657(13)
O9_3 O 0.5000 0.42526(15) 0.2500
O10_3 O 0.5000 0.20480(14) 0.2500
H1_2 H 0.4572 0.1792 0.2609
C1_2 C 0.83385(16) 0.29963(12) 0.16346(17)
C2_2 C 0.76264(15) 0.34875(11) 0.13612(16)
C3_2 C 0.75482(16) 0.37993(12) 0.04245(17)
C5_2 C 0.8831(2) 0.30892(18) 0.0012(2)
C6_2 C 0.89423(19) 0.28142(15) 0.0952(2)
H4_2 H 0.9435 0.2497 0.1141
C7_2 C 0.84869(15) 0.26267(11) 0.25978(17)
C8_2 C 0.87150(15) 0.19076(11) 0.26054(16)
H5_2 H 0.8707 0.1667 0.2000
C9_2 C 0.89544(14) 0.15323(10) 0.34770(16)
C10_2 C 0.89439(14) 0.18718(10) 0.43787(16)
C11_2 C 0.86768(15) 0.25834(11) 0.43741(16)
H6_2 H 0.8645 0.2815 0.4979
C12_2 C 0.84566(16) 0.29586(12) 0.35052(18)
H7_2 H 0.8285 0.3441 0.3527
C13_2 C 0.69127(14) 0.36095(11) 0.20568(15)
C14_2 C 0.68205(15) 0.43373(11) 0.00576(16)
C15_2 C 0.92240(14) 0.07783(11) 0.33133(15)
C16_2 C 0.91828(14) 0.15200(10) 0.53664(16)
H8_2 H 0.5428 0.1792 0.2391
O11_2 O 0.37223(12) 0.31577(8) 0.30046(13)
O12_2 O 0.29680(11) 0.41180(9) 0.23386(12)
O13_2 O 0.38582(11) 0.44219(8) 0.44724(12)
O14_2 O 0.30497(12) 0.46724(8) 0.57153(13)
C17_2 C 0.16615(16) 0.29963(12) 0.33654(17)
C18_2 C 0.23736(15) 0.34875(11) 0.36388(16)
C19_2 C 0.24518(16) 0.37993(12) 0.45755(17)
C20_2 C 0.1861(2) 0.35817(16) 0.5246(2)
H9_2 H 0.1935 0.3775 0.5886
C21_2 C 0.1169(2) 0.30892(18) 0.4988(2)
H10_2 H 0.0778 0.2943 0.5449
C22_2 C 0.10577(19) 0.28142(15) 0.4048(2)
H11_2 H 0.0565 0.2497 0.3859
C23_2 C 0.15131(15) 0.26267(11) 0.24022(17)
C24_2 C 0.12850(15) 0.19076(11) 0.23946(16)
H12_2 H 0.1293 0.1667 0.3000
C25_2 C 0.10456(14) 0.15323(10) 0.15230(16)
C26_2 C 0.10561(14) 0.18718(10) 0.06213(16)
C27_2 C 0.13232(15) 0.25834(11) 0.06259(16)
H13_2 H 0.1355 0.2815 0.0021
C28_2 C 0.15434(16) 0.29586(12) 0.14948(18)
H14_2 H 0.1715 0.3441 0.1473
C29_2 C 0.30873(14) 0.36095(11) 0.29432(15)
C30_2 C 0.31795(15) 0.43373(11) 0.49424(16)
C31_2 C 0.07760(14) 0.07783(11) 0.16867(15)
Co17_3 Co 1.0000 0.18333(2) 0.7500
O20_2 O 0.30497(12) 0.53276(8) 0.07153(13)
O21_2 O 0.69503(12) 0.53276(8) 0.42847(13)
O28_2 O 0.58724(11) 0.41569(8) 0.45828(12)
O29_2 O 0.41276(11) 0.41569(8) 0.04172(12)
O30_2 O 0.56073(12) 0.30773(8) 0.39343(13)
O31_2 O 0.43927(12) 0.30773(8) 0.10657(13)
O4_2 O 0.69503(12) 0.46724(8) 0.92847(13)
C4_2 C 0.8139(2) 0.35817(16) 0.9754(2)
H2_2 H 0.8065 0.3775 0.9114
H3_2 H 0.9222 0.2943 0.9551
O18_2 O 0.06073(12) 0.19227(8) 0.89343(13)
C32_2 C 0.08172(14) 0.15200(10) 0.96336(16)
O19_3 O 0.38582(11) 0.55781(8) 0.94724(12)
O26_3 O 0.50087(11) 0.44480(8) 0.87163(12)
O19_4 O 0.61418(11) 0.55781(8) 0.55276(12)
O26_4 O 0.49913(11) 0.44480(8) 0.62837(12)
C32_3 C 0.41828(14) 0.34800(10) 0.03664(16)
O9_4 O 0.0000 0.07474(15) 0.7500
O10_4 O 0.0000 0.29520(14) 0.7500
H1_3 H 0.0428 0.3208 0.7391
O11_3 O 0.12777(12) 0.18423(8) 0.69954(13)
O12_3 O 0.20320(11) 0.08820(9) 0.76614(12)
O15_2 O 0.36667(11) 0.45553(8) 0.77238(12)
C17_3 C 0.33385(16) 0.20037(12) 0.66346(17)
C18_3 C 0.26264(15) 0.15125(11) 0.63612(16)
C19_3 C 0.25482(16) 0.12007(12) 0.54245(17)
C20_3 C 0.3139(2) 0.14183(16) 0.4754(2)
H9_3 H 0.3065 0.1225 0.4114
C21_3 C 0.3831(2) 0.19108(18) 0.5012(2)
H10_3 H 0.4222 0.2057 0.4551
C22_3 C 0.39423(19) 0.21858(15) 0.5952(2)
H11_3 H 0.4435 0.2503 0.6141
C23_3 C 0.34869(15) 0.23733(11) 0.75978(17)
C24_3 C 0.37150(15) 0.30924(11) 0.76054(16)
H12_3 H 0.3707 0.3333 0.7000
C25_3 C 0.39544(14) 0.34677(10) 0.84770(16)
C26_3 C 0.39439(14) 0.31282(10) 0.93787(16)
C27_3 C 0.36768(15) 0.24166(11) 0.93741(16)
H13_3 H 0.3645 0.2185 0.9979
C28_3 C 0.34566(16) 0.20414(12) 0.85052(18)
H14_3 H 0.3285 0.1559 0.8527
C29_3 C 0.19127(14) 0.13905(11) 0.70568(15)
C30_3 C 0.18205(15) 0.06627(11) 0.50576(16)
C31_3 C 0.42240(14) 0.42217(11) 0.83133(15)
O22_2 O 0.13333(11) 0.95553(8) 0.72762(12)
C4_3 C 0.6861(2) 0.14183(16) 0.0246(2)
H2_3 H 0.6935 0.1225 0.0886
H3_3 H 0.5778 0.2057 0.0449
O1_3 O 0.87223(12) 0.18423(8) 0.80046(13)
O2_3 O 0.79680(11) 0.08820(9) 0.73386(12)
O5_2 O 0.63333(11) 0.45553(8) 0.72762(12)
O9_5 O 1.0000 0.07474(15) 0.7500
O10_5 O 1.0000 0.29520(14) 0.7500
C1_3 C 0.66615(16) 0.20037(12) 0.83654(17)
C2_3 C 0.73736(15) 0.15125(11) 0.86388(16)
C3_3 C 0.74518(16) 0.12007(12) 0.95755(17)
C5_3 C 0.6169(2) 0.19108(18) 0.9988(2)
C6_3 C 0.60577(19) 0.21858(15) 0.9048(2)
H4_3 H 0.5565 0.2503 0.8859
C7_3 C 0.65131(15) 0.23733(11) 0.74022(17)
C8_3 C 0.62850(15) 0.30924(11) 0.73946(16)
H5_3 H 0.6293 0.3333 0.8000
C9_3 C 0.60456(14) 0.34677(10) 0.65230(16)
C10_3 C 0.60561(14) 0.31282(10) 0.56213(16)
C11_3 C 0.63232(15) 0.24166(11) 0.56259(16)
H6_3 H 0.6355 0.2185 0.5021
C12_3 C 0.65434(16) 0.20414(12) 0.64948(18)
H7_3 H 0.6715 0.1559 0.6473
C13_3 C 0.80873(14) 0.13905(11) 0.79432(15)
C14_3 C 0.81795(15) 0.06627(11) 0.99424(16)
C15_3 C 0.57760(14) 0.42217(11) 0.66867(15)
C16_3 C 0.58172(14) 0.34800(10) 0.46336(16)
H8_3 H 0.9572 0.3208 0.7609
O23_2 O 0.86667(11) 0.95553(8) 0.77238(12)
C4_4 C 0.1861(2) 0.64183(16) 0.0246(2)
H2_4 H 0.1935 0.6225 0.0886
H3_4 H 0.0778 0.7057 0.0449
C32_4 C 0.91828(14) 0.84800(10) 0.03664(16)
O1_4 O 0.37223(12) 0.68423(8) 0.80046(13)
O2_4 O 0.29680(11) 0.58820(9) 0.73386(12)
O9_6 O 0.5000 0.57474(15) 0.7500
O10_6 O 0.5000 0.79520(14) 0.7500
H1_4 H 0.5428 0.8208 0.7391
C1_4 C 0.16615(16) 0.70037(12) 0.83654(17)
C2_4 C 0.23736(15) 0.65125(11) 0.86388(16)
C3_4 C 0.24518(16) 0.62007(12) 0.95755(17)
C5_4 C 0.1169(2) 0.69108(18) 0.9988(2)
C6_4 C 0.10577(19) 0.71858(15) 0.9048(2)
H4_4 H 0.0565 0.7503 0.8859
C7_4 C 0.15131(15) 0.73733(11) 0.74022(17)
C8_4 C 0.12850(15) 0.80924(11) 0.73946(16)
H5_4 H 0.1293 0.8333 0.8000
C9_4 C 0.10456(14) 0.84677(10) 0.65230(16)
C10_4 C 0.10561(14) 0.81282(10) 0.56213(16)
C11_4 C 0.13232(15) 0.74166(11) 0.56259(16)
H6_4 H 0.1355 0.7185 0.5021
C12_4 C 0.15434(16) 0.70414(12) 0.64948(18)
H7_4 H 0.1715 0.6559 0.6473
C13_4 C 0.30873(14) 0.63905(11) 0.79432(15)
C14_4 C 0.31795(15) 0.56627(11) 0.99424(16)
C15_4 C 0.07760(14) 0.92217(11) 0.66867(15)
C16_4 C 0.08172(14) 0.84800(10) 0.46336(16)
H8_4 H 0.4572 0.8208 0.7609
O11_4 O 0.62777(12) 0.68423(8) 0.69954(13)
O12_4 O 0.70320(11) 0.58820(9) 0.76614(12)
C17_4 C 0.83385(16) 0.70037(12) 0.66346(17)
C18_4 C 0.76264(15) 0.65125(11) 0.63612(16)
C19_4 C 0.75482(16) 0.62007(12) 0.54245(17)
C20_4 C 0.8139(2) 0.64183(16) 0.4754(2)
H9_4 H 0.8065 0.6225 0.4114
C21_4 C 0.8831(2) 0.69108(18) 0.5012(2)
H10_4 H 0.9222 0.7057 0.4551
C22_4 C 0.89423(19) 0.71858(15) 0.5952(2)
H11_4 H 0.9435 0.7503 0.6141
C23_4 C 0.84869(15) 0.73733(11) 0.75978(17)
C24_4 C 0.87150(15) 0.80924(11) 0.76054(16)
H12_4 H 0.8707 0.8333 0.7000
C25_4 C 0.89544(14) 0.84677(10) 0.84770(16)
C26_4 C 0.89439(14) 0.81282(10) 0.93787(16)
C27_4 C 0.86768(15) 0.74166(11) 0.93741(16)
H13_4 H 0.8645 0.7185 0.9979
C28_4 C 0.84566(16) 0.70414(12) 0.85052(18)
H14_4 H 0.8285 0.6559 0.8527
C29_4 C 0.69127(14) 0.63905(11) 0.70568(15)
C30_4 C 0.68205(15) 0.56627(11) 0.50576(16)
C31_4 C 0.92240(14) 0.92217(11) 0.83133(15)
loop_
_geom_bond_atom_site_label_1
_geom_bond_atom_site_label_2
_geom_bond_site_symmetry_1
_geom_bond_site_symmetry_2
Co5 O24 1_555 1_555
O27 Co1_2 1_555 1_555
Co13 O27 1_555 1_555
Co1_3 O3 1_555 1_555
Co2 O2 1_555 1_555
Co3 O1 1_555 1_555
O1 C13 1_555 1_555
O2 C13 1_555 1_555
O3 C14 1_555 1_555
O5 C15 1_555 1_555
O6 C15 1_555 1_555
O7 C16 1_555 1_555
O8 C16 1_555 1_555
O9 Co2 1_555 1_555
O10 Co3 1_555 1_555
C1 C2 1_555 1_555
C2 C3 1_555 1_555
C6 C1 1_555 1_555
H4 C6 1_555 1_555
C7 C1 1_555 1_555
C8 C7 1_555 1_555
H5 C8 1_555 1_555
C9 C8 1_555 1_555
C10 C9 1_555 1_555
C11 C10 1_555 1_555
H6 C11 1_555 1_555
C12 C7 1_555 1_555
H7 C12 1_555 1_555
C13 C2 1_555 1_555
C14 C3 1_555 1_555
C15 C9 1_555 1_555
C16 C10 1_555 1_555
H8 O10 1_555 1_555
Co7 O6 1_555 1_555
Co9 O6 1_555 1_555
Co11 O5 1_555 1_555
Co14 O7 1_555 1_555
Co17 O8 1_555 1_555
O28 Co2 1_555 1_555
O30 Co3 1_555 1_555
Co3 O9 1_555 1_555
O7 Co7 1_555 1_555
C5 C6 1_555 1_555
C11 C12 1_555 1_555
Co5_2 O28 1_555 1_555
C4 H2 1_555 1_555
O26 Co1_4 1_555 1_555
O25 Co1_5 1_555 1_555
O19 Co1_6 1_555 1_555
O10_2 Co3_2 1_555 1_555
H1 O10_2 1_555 1_555
Co4 O9_2 1_555 1_555
O11 Co3_2 1_555 1_555
O12 Co4 1_555 1_555
O13 C30 1_555 1_555
O14 C30 1_555 1_555
O15 C31 1_555 1_555
O16 C31 1_555 1_555
C17 C18 1_555 1_555
C18 C19 1_555 1_555
C19 C20 1_555 1_555
C20 H9 1_555 1_555
C21 C20 1_555 1_555
H10 C21 1_555 1_555
C22 C17 1_555 1_555
H11 C22 1_555 1_555
C23 C17 1_555 1_555
C24 C23 1_555 1_555
H12 C24 1_555 1_555
C25 C24 1_555 1_555
C26 C25 1_555 1_555
C27 C26 1_555 1_555
H13 C27 1_555 1_555
C28 C23 1_555 1_555
H14 C28 1_555 1_555
C29 O11 1_555 1_555
C30 C19 1_555 1_555
C31 C25 1_555 1_555
Co5_4 O13 1_555 1_555
Co6 O16 1_555 1_555
Co9 O15 1_555 1_555
Co11 O16 1_555 1_555
O29 Co1_7 1_555 1_555
O31 Co3_2 1_555 1_555
Co3_2 O9_2 1_555 1_555
Co4 O29 1_555 1_555
O12 C29 1_555 1_555
C18 C29 1_555 1_555
C21 C22 1_555 1_555
C27 C28 1_555 1_555
O17 C32 1_555 1_555
O18 C32 1_555 1_555
Co15 O17 1_555 1_555
Co17 O18 1_555 1_555
O17 Co6_2 1_555 1_555
O19_2 Co5 1_555 1_555
O27_2 Co5_3 1_555 1_555
Co12 O27_2 1_555 1_555
O26_2 Co5_4 1_555 1_555
Co6 O3_2 1_555 1_555
Co9 O2_2 1_555 1_555
Co3_3 O1_2 1_555 1_555
O1_2 C13_2 1_555 1_555
O2_2 C13_2 1_555 1_555
O3_2 C14_2 1_555 1_555
O22 C15_2 1_555 1_555
O27_2 C16_2 1_555 1_555
O8_2 C16_2 1_555 1_555
O9_3 Co9 1_555 1_555
O10_3 Co3_3 1_555 1_555
H1_2 O10_3 1_555 1_555
C1_2 C2_2 1_555 1_555
C2_2 C3_2 1_555 1_555
C6_2 C1_2 1_555 1_555
H4_2 C6_2 1_555 1_555
C7_2 C1_2 1_555 1_555
C8_2 C7_2 1_555 1_555
H5_2 C8_2 1_555 1_555
C9_2 C8_2 1_555 1_555
C10_2 C9_2 1_555 1_555
C11_2 C10_2 1_555 1_555
H6_2 C11_2 1_555 1_555
C12_2 C7_2 1_555 1_555
H7_2 C12_2 1_555 1_555
C13_2 C2_2 1_555 1_555
C14_2 C3_2 1_555 1_555
C15_2 C9_2 1_555 1_555
C16_2 C10_2 1_555 1_555
H8_2 O10_3 1_555 1_555
Co11 O9_3 1_555 1_555
O11_2 Co3_3 1_555 1_555
O12_2 Co11 1_555 1_555
O13_2 C30_2 1_555 1_555
O14_2 C30_2 1_555 1_555
O23 C31_2 1_555 1_555
C17_2 C18_2 1_555 1_555
C18_2 C19_2 1_555 1_555
C19_2 C20_2 1_555 1_555
C20_2 H9_2 1_555 1_555
C21_2 C20_2 1_555 1_555
H10_2 C21_2 1_555 1_555
C22_2 C17_2 1_555 1_555
H11_2 C22_2 1_555 1_555
C23_2 C17_2 1_555 1_555
C24_2 C23_2 1_555 1_555
H12_2 C24_2 1_555 1_555
C25_2 C24_2 1_555 1_555
C26_2 C25_2 1_555 1_555
C27_2 C26_2 1_555 1_555
H13_2 C27_2 1_555 1_555
C28_2 C23_2 1_555 1_555
H14_2 C28_2 1_555 1_555
C29_2 O11_2 1_555 1_555
C30_2 C19_2 1_555 1_555
C31_2 C25_2 1_555 1_555
Co7 O13_2 1_555 1_555
Co14 O14_2 1_555 1_555
Co17_3 O8_2 1_555 1_555
O20_2 Co11 1_555 1_555
O21_2 Co9 1_555 1_555
O28_2 Co9 1_555 1_555
O29_2 Co6 1_555 1_555
O30_2 Co3_3 1_555 1_555
O31_2 Co3_3 1_555 1_555
Co3_3 O9_3 1_555 1_555
C5_2 C6_2 1_555 1_555
C11_2 C12_2 1_555 1_555
Co11 O29_2 1_555 1_555
O12_2 C29_2 1_555 1_555
C18_2 C29_2 1_555 1_555
C21_2 C22_2 1_555 1_555
C27_2 C28_2 1_555 1_555
Co7 O28_2 1_555 1_555
C4_2 H2_2 1_555 1_555
O27 C32_2 1_555 1_555
O18_2 C32_2 1_555 1_555
Co15 O4_2 1_555 1_555
Co17_2 O18_2 1_555 1_555
O19_3 Co6_2 1_555 1_555
O26_3 Co6_2 1_555 1_555
Co15 O26_3 1_555 1_555
O19_4 Co7 1_555 1_555
O26_4 Co7 1_555 1_555
Co14 O26_4 1_555 1_555
O29_2 C32_3 1_555 1_555
O31_2 C32_3 1_555 1_555
O10_4 Co17_2 1_555 1_555
H1_3 O10_4 1_555 1_555
Co13 O9_4 1_555 1_555
O11_3 Co17_2 1_555 1_555
O12_3 Co13 1_555 1_555
O19_2 C30_3 1_555 1_555
O21 C30_3 1_555 1_555
O15_2 C31_3 1_555 1_555
O26_3 C31_3 1_555 1_555
C17_3 C18_3 1_555 1_555
C18_3 C19_3 1_555 1_555
C19_3 C20_3 1_555 1_555
C20_3 H9_3 1_555 1_555
C21_3 C20_3 1_555 1_555
H10_3 C21_3 1_555 1_555
C22_3 C17_3 1_555 1_555
H11_3 C22_3 1_555 1_555
C23_3 C17_3 1_555 1_555
C24_3 C23_3 1_555 1_555
H12_3 C24_3 1_555 1_555
C25_3 C24_3 1_555 1_555
C26_3 C25_3 1_555 1_555
C27_3 C26_3 1_555 1_555
H13_3 C27_3 1_555 1_555
C28_3 C23_3 1_555 1_555
H14_3 C28_3 1_555 1_555
C29_3 O11_3 1_555 1_555
C30_3 C19_3 1_555 1_555
C31_3 C25_3 1_555 1_555
Co14 O15_2 1_555 1_555
Co17_2 O9_4 1_555 1_555
O12_3 C29_3 1_555 1_555
C18_3 C29_3 1_555 1_555
C21_3 C22_3 1_555 1_555
C27_3 C28_3 1_555 1_555
C4_3 H2_3 1_555 1_555
Co12 O2_3 1_555 1_555
Co17_3 O1_3 1_555 1_555
O1_3 C13_3 1_555 1_555
O2_3 C13_3 1_555 1_555
O19 C14_3 1_555 1_555
O5_2 C15_3 1_555 1_555
O26_4 C15_3 1_555 1_555
O28_2 C16_3 1_555 1_555
O30_2 C16_3 1_555 1_555
O9_5 Co12 1_555 1_555
O10_5 Co17_3 1_555 1_555
C1_3 C2_3 1_555 1_555
C2_3 C3_3 1_555 1_555
C6_3 C1_3 1_555 1_555
H4_3 C6_3 1_555 1_555
C7_3 C1_3 1_555 1_555
C8_3 C7_3 1_555 1_555
H5_3 C8_3 1_555 1_555
C9_3 C8_3 1_555 1_555
C10_3 C9_3 1_555 1_555
C11_3 C10_3 1_555 1_555
H6_3 C11_3 1_555 1_555
C12_3 C7_3 1_555 1_555
H7_3 C12_3 1_555 1_555
C13_3 C2_3 1_555 1_555
C14_3 C3_3 1_555 1_555
C15_3 C9_3 1_555 1_555
C16_3 C10_3 1_555 1_555
H8_3 O10_5 1_555 1_555
Co15 O5_2 1_555 1_555
Co17_3 O9_5 1_555 1_555
C5_3 C6_3 1_555 1_555
C11_3 C12_3 1_555 1_555
C4_4 H2_4 1_555 1_555
O29 C32_4 1_555 1_555
O31 C32_4 1_555 1_555
Co14 O2_4 1_555 1_555
Co17 O1_4 1_555 1_555
O1_4 C13_4 1_555 1_555
O2_4 C13_4 1_555 1_555
O19_3 C14_4 1_555 1_555
O22_2 C15_4 1_555 1_555
O28 C16_4 1_555 1_555
O30 C16_4 1_555 1_555
O9_6 Co14 1_555 1_555
O10_6 Co17 1_555 1_555
H1_4 O10_6 1_555 1_555
C1_4 C2_4 1_555 1_555
C2_4 C3_4 1_555 1_555
C6_4 C1_4 1_555 1_555
H4_4 C6_4 1_555 1_555
C7_4 C1_4 1_555 1_555
C8_4 C7_4 1_555 1_555
H5_4 C8_4 1_555 1_555
C9_4 C8_4 1_555 1_555
C10_4 C9_4 1_555 1_555
C11_4 C10_4 1_555 1_555
H6_4 C11_4 1_555 1_555
C12_4 C7_4 1_555 1_555
H7_4 C12_4 1_555 1_555
C13_4 C2_4 1_555 1_555
C14_4 C3_4 1_555 1_555
C15_4 C9_4 1_555 1_555
C16_4 C10_4 1_555 1_555
H8_4 O10_6 1_555 1_555
Co15 O9_6 1_555 1_555
O11_4 Co17 1_555 1_555
O12_4 Co15 1_555 1_555
O19_4 C30_4 1_555 1_555
O21_2 C30_4 1_555 1_555
O23_2 C31_4 1_555 1_555
C17_4 C18_4 1_555 1_555
C18_4 C19_4 1_555 1_555
C19_4 C20_4 1_555 1_555
C20_4 H9_4 1_555 1_555
C21_4 C20_4 1_555 1_555
H10_4 C21_4 1_555 1_555
C22_4 C17_4 1_555 1_555
H11_4 C22_4 1_555 1_555
C23_4 C17_4 1_555 1_555
C24_4 C23_4 1_555 1_555
H12_4 C24_4 1_555 1_555
C25_4 C24_4 1_555 1_555
C26_4 C25_4 1_555 1_555
C27_4 C26_4 1_555 1_555
H13_4 C27_4 1_555 1_555
C28_4 C23_4 1_555 1_555
H14_4 C28_4 1_555 1_555
C29_4 O11_4 1_555 1_555
C30_4 C19_4 1_555 1_555
C31_4 C25_4 1_555 1_555
Co17 O9_6 1_555 1_555
C5_4 C6_4 1_555 1_555
C11_4 C12_4 1_555 1_555
O12_4 C29_4 1_555 1_555
C18_4 C29_4 1_555 1_555
C21_4 C22_4 1_555 1_555
C27_4 C28_4 1_555 1_555

#END
