
###############################################################################
#
# This file contains modified crystal structure data generated from the
# MOF subset of the Cambridge Structural Database (CSD) v543 
# hosted by the Cambridge Crystallographic Data Centre (CCDC).
#
# This work is licensed under the Creative Commons
# Attribution-NonCommercial-ShareAlike 4.0 International License.
# To view a copy of this license, visit
# http://creativecommons.org/licenses/by-nc-sa/4.0/
# or send a letter to
# Creative Commons, PO Box 1866, Mountain View, CA 94042, USA.
#
# CIF created using the CSD Python API on 29 September 2022
# The structure has been converted into the P1 space group
# The structure has a 3D framework
# The original CSD entry PENNUT is in the triclinic crystal system
# The framework has been calculated to contain at least 10.0% void space
# The void calculation uses a probe of radius 1.32A, grid spacing 0.4
#
###############################################################################

data_PENNUT
_chemical_formula_moiety         '(C62 H40 N4 O34 Zn6)n'
_symmetry_cell_setting           triclinic
_symmetry_space_group_name_H-M   'P 1'
_symmetry_Int_Tables_number      1
_space_group_name_Hall           'P 1'
loop_
_symmetry_equiv_pos_site_id
_symmetry_equiv_pos_as_xyz
1 x,y,z
_cell_length_a                   11.727(2)
_cell_length_b                   13.451(3)
_cell_length_c                   15.565(3)
_cell_angle_alpha                113.39(3)
_cell_angle_beta                 98.71(3)
_cell_angle_gamma                102.97(3)
_cell_volume                     2115.07
loop_
_atom_site_label
_atom_site_type_symbol
_atom_site_fract_x
_atom_site_fract_y
_atom_site_fract_z
Zn10 Zn 0.07657(7) 0.42030(6) 0.68807(6)
Zn2 Zn 0.51958(7) 0.19165(6) 0.69060(6)
O5 O 0.3467(4) 0.1817(4) 0.6821(4)
O6 O 0.3422(4) 0.0180(4) 0.5649(4)
N2 N 0.5893(5) 0.0801(5) 0.7156(4)
C4 C 0.0837(6) 0.0767(6) 0.6543(6)
H2 H 0.0998 0.1511 0.7013
C5 C 0.1625(6) 0.0311(5) 0.6119(5)
C6 C 0.2918(6) 0.0780(5) 0.6172(5)
C28 C 0.6614(11) 0.0033(9) 0.8201(8)
H17 H 0.6741 0.0062 0.8816
C30 C 0.6146(7) 0.0011(6) 0.6446(6)
C31 C 0.6134(10) 0.0807(8) 0.8031(6)
H20 H 0.5969 0.1357 0.8545
Zn4 Zn 0.34864(6) 0.34572(6) 0.65291(5)
O18 O 0.5930(4) 0.3324(4) 0.8166(4)
O22 O 0.5904(5) 0.2197(4) 0.5956(4)
Zn1 Zn 0.65136(6) 0.65428(6) 0.34709(5)
Zn3 Zn 0.92343(7) 0.57970(6) 0.31193(6)
O1 O 0.7931(4) 0.7661(4) 0.4646(3)
O3 O 0.9543(4) 0.7041(4) 0.4466(4)
O7 O 0.4070(4) 0.6676(4) 0.1834(4)
O8 O 0.5134(4) 0.5632(4) 0.2210(3)
O9 O 0.3172(4) 0.5100(4) 0.0000(3)
O12 O 0.8016(4) 0.4527(4) 0.3194(4)
O13 O 0.6490(4) 0.5159(4) 0.3698(4)
O14 O 0.6142(4) 0.3693(3) 0.4534(3)
O15 O 0.4692(4) 0.3177(4) 0.5665(3)
C1 C 0.9063(6) 0.7792(5) 0.4816(5)
C2 C 0.9865(5) 0.8962(5) 0.5501(5)
C3 C 0.9696(7) 0.9882(6) 0.6131(6)
H1 H 0.8968 0.9943 0.6279
C7 C 0.4404(6) 0.5801(6) 0.1645(5)
C8 C 0.3889(6) 0.4873(5) 0.0644(5)
C9 C 0.4052(6) 0.3850(6) 0.0185(5)
H3 H 0.4488 0.3507 0.0467
C13 C 0.7158(6) 0.4530(5) 0.3601(5)
C14 C 0.6956(5) 0.3680(5) 0.3978(5)
C15 C 0.7533(6) 0.2910(6) 0.3960(6)
H5 H 0.8109 0.2734 0.3625
C16 C 0.7093(6) 0.2423(6) 0.4546(6)
H6 H 0.7326 0.1868 0.4673
C17 C 0.6259(5) 0.2925(5) 0.4889(5)
C18 C 0.5540(6) 0.2771(5) 0.5548(5)
Zn7 Zn 0.48042(7) 0.80835(6) 0.30940(6)
O17 O 0.6533(4) 0.8183(4) 0.3179(4)
O19 O 0.7798(4) 0.6418(4) 0.2561(3)
O20 O 0.8505(5) 0.5174(5) 0.1583(4)
O21 O 0.5308(4) 0.6823(4) 0.4335(3)
O9_2 O 0.3172(4) 0.5100(4) 1.0000(3)
O10 O 0.2202(4) 0.3582(4) 0.7439(3)
O11 O 0.1495(5) 0.4826(5) 0.8417(4)
C10 C 0.3430(6) 0.3399(6) 0.9188(5)
H4 H 0.3374 0.2701 0.8690
C11 C 0.2932(6) 0.4188(6) 0.9103(5)
C12 C 0.2178(6) 0.4214(6) 0.8282(5)
O9_3 O 0.6828(4) 0.4900(4) 0.0000(3)
C10_2 C 0.6570(6) 0.6601(6) 0.0812(5)
H4_2 H 0.6626 0.7299 0.1310
C11_2 C 0.7068(6) 0.5812(6) 0.0897(5)
C12_2 C 0.7822(6) 0.5786(6) 0.1718(5)
O1_2 O 0.2069(4) 0.2339(4) 0.5354(3)
O3_2 O 0.0457(4) 0.2959(4) 0.5534(4)
O8_2 O 0.4866(4) 0.4368(4) 0.7790(3)
O9_4 O 0.6828(4) 0.4900(4) 1.0000(3)
O12_2 O 0.1984(4) 0.5473(4) 0.6806(4)
O13_2 O 0.3510(4) 0.4841(4) 0.6302(4)
O14_2 O 0.3858(4) 0.6307(3) 0.5466(3)
O16 O 0.4096(5) 0.7803(4) 0.4044(4)
C1_2 C 0.0937(6) 0.2208(5) 0.5184(5)
C2_2 C 0.0135(5) 0.1038(5) 0.4499(5)
C3_2 C 0.0304(7) 0.0118(6) 0.3869(6)
H1_2 H 0.1032 0.0057 0.3721
C7_2 C 0.5596(6) 0.4199(6) 0.8355(5)
C8_2 C 0.6111(6) 0.5127(5) 0.9356(5)
C9_2 C 0.5948(6) 0.6150(6) 0.9815(5)
H3_2 H 0.5512 0.6493 0.9533
C13_2 C 0.2842(6) 0.5470(5) 0.6399(5)
C14_2 C 0.3044(5) 0.6320(5) 0.6022(5)
C15_2 C 0.2467(6) 0.7090(6) 0.6040(6)
H5_2 H 0.1891 0.7266 0.6375
C16_2 C 0.2907(6) 0.7577(6) 0.5454(6)
H6_2 H 0.2674 0.8132 0.5327
C17_2 C 0.3741(5) 0.7075(5) 0.5111(5)
C18_2 C 0.4460(6) 0.7229(5) 0.4452(5)
O6_2 O 0.6578(4) 0.9820(4) 0.4351(4)
N2_2 N 0.4107(5) 0.9199(5) 0.2844(4)
C4_2 C 0.9163(6) 0.9233(6) 0.3457(6)
H2_2 H 0.9002 0.8489 0.2987
C5_2 C 0.8375(6) 0.9689(5) 0.3881(5)
C6_2 C 0.7082(6) 0.9220(5) 0.3828(5)
C28_2 C 0.3386(11) 0.9967(9) 0.1799(8)
H17_2 H 0.3259 0.9938 0.1184
C30_2 C 0.3854(7) 0.9989(6) 0.3554(6)
C31_2 C 0.3866(10) 0.9193(8) 0.1969(6)
H20_2 H 0.4031 0.8643 0.1455
O2 O 0.0635(6) 0.7241(5) 0.3038(5)
O4 O 0.1066(4) 0.9181(4) 0.5476(3)
N1 N 0.9460(5) 0.4963(5) 0.6836(4)
C19 C 0.9330(6) 0.5464(6) 0.6236(5)
H7 H 0.9894 0.5498 0.5880
C20 C 0.8415(7) 0.5921(6) 0.6127(6)
H8 H 0.8377 0.6255 0.5708
C21 C 0.7542(6) 0.5888(6) 0.6640(6)
C22 C 0.8648(7) 0.4976(8) 0.7362(7)
H9 H 0.8729 0.4678 0.7806
C23 C 0.7694(7) 0.5414(8) 0.7275(7)
H10 H 0.7150 0.5388 0.7649
C24 C 0.6483(7) 0.6308(8) 0.6471(8)
H11 H 0.6534 0.6557 0.5969
H12 H 0.5735 0.5680 0.6237
C25 C 0.6433(8) 0.7261(8) 0.7354(8)
H13 H 0.6504 0.7047 0.7881
H14 H 0.5643 0.7365 0.7234
C26 C 0.7395(9) 0.8381(8) 0.7677(10)
H15 H 0.8013 0.8251 0.7335
H16 H 0.7778 0.8691 0.8366
C27 C 0.6901(8) 0.9239(7) 0.7496(7)
C29 C 0.6640(7) 0.9221(7) 0.6593(7)
H18 H 0.6797 0.8673 0.6074
H19 H 0.5990 0.9981 0.5831
N3 N 0.0540(5) 0.5037(5) 0.3164(4)
O2_2 O 0.9365(6) 0.2759(5) 0.6962(5)
O4_2 O 0.8934(4) 0.0819(4) 0.4524(3)
C19_2 C 0.0670(6) 0.4536(6) 0.3764(5)
H7_2 H 0.0106 0.4502 0.4120
C20_2 C 0.1585(7) 0.4079(6) 0.3873(6)
H8_2 H 0.1623 0.3745 0.4292
C21_2 C 0.2458(6) 0.4112(6) 0.3360(6)
C22_2 C 0.1352(7) 0.5024(8) 0.2638(7)
H9_2 H 0.1271 0.5322 0.2194
C23_2 C 0.2306(7) 0.4586(8) 0.2725(7)
H10_2 H 0.2850 0.4612 0.2351
C24_2 C 0.3517(7) 0.3692(8) 0.3529(8)
H11_2 H 0.3466 0.3443 0.4031
H12_2 H 0.4265 0.4320 0.3763
C25_2 C 0.3567(8) 0.2739(8) 0.2646(8)
H13_2 H 0.3496 0.2953 0.2119
H14_2 H 0.4357 0.2635 0.2766
C26_2 C 0.2605(9) 0.1619(8) 0.2323(10)
H15_2 H 0.1987 0.1749 0.2665
H16_2 H 0.2222 0.1309 0.1634
C27_2 C 0.3099(8) 0.0761(7) 0.2504(7)
C29_2 C 0.3360(7) 0.0779(7) 0.3407(7)
H18_2 H 0.3203 0.1327 0.3926
H19_2 H 0.4010 0.0019 0.4169
loop_
_geom_bond_atom_site_label_1
_geom_bond_atom_site_label_2
_geom_bond_site_symmetry_1
_geom_bond_site_symmetry_2
Zn2 O5 1_555 1_555
O5 C6 1_555 1_555
O6 Zn2 1_555 1_555
N2 Zn2 1_555 1_555
H2 C4 1_555 1_555
C6 O6 1_555 1_555
H17 C28 1_555 1_555
C30 N2 1_555 1_555
C31 N2 1_555 1_555
H20 C31 1_555 1_555
Zn4 O5 1_555 1_555
O18 Zn2 1_555 1_555
O22 Zn2 1_555 1_555
C4 C5 1_555 1_555
C5 C6 1_555 1_555
C28 C31 1_555 1_555
Zn1 O1 1_555 1_555
O1 C1 1_555 1_555
O3 Zn3 1_555 1_555
O7 C7 1_555 1_555
O8 Zn1 1_555 1_555
O9 C8 1_555 1_555
O12 Zn3 1_555 1_555
O13 Zn1 1_555 1_555
O14 C14 1_555 1_555
O15 C18 1_555 1_555
O22 C18 1_555 1_555
C1 O3 1_555 1_555
C2 C1 1_555 1_555
C3 C2 1_555 1_555
H1 C3 1_555 1_555
C7 O8 1_555 1_555
C8 C7 1_555 1_555
C9 C8 1_555 1_555
H3 C9 1_555 1_555
C13 O12 1_555 1_555
C14 C13 1_555 1_555
C15 C14 1_555 1_555
H5 C15 1_555 1_555
C16 C15 1_555 1_555
H6 C16 1_555 1_555
C17 O14 1_555 1_555
C18 C17 1_555 1_555
Zn4 O15 1_555 1_555
Zn7 O7 1_555 1_555
O17 Zn1 1_555 1_555
O19 Zn1 1_555 1_555
O20 Zn3 1_555 1_555
O21 Zn1 1_555 1_555
Zn3 O19 1_555 1_555
O13 C13 1_555 1_555
C16 C17 1_555 1_555
Zn7 O17 1_555 1_555
O10 C12 1_555 1_555
O11 C12 1_555 1_555
H4 C10 1_555 1_555
C11 O9_2 1_555 1_555
C12 C11 1_555 1_555
Zn4 O10 1_555 1_555
Zn10 O10 1_555 1_555
O11 Zn10 1_555 1_555
C10 C11 1_555 1_555
O19 C12_2 1_555 1_555
O20 C12_2 1_555 1_555
H4_2 C10_2 1_555 1_555
C11_2 O9_3 1_555 1_555
C12_2 C11_2 1_555 1_555
C10_2 C11_2 1_555 1_555
Zn4 O1_2 1_555 1_555
O1_2 C1_2 1_555 1_555
O3_2 Zn10 1_555 1_555
O18 C7_2 1_555 1_555
O8_2 Zn4 1_555 1_555
O9_4 C8_2 1_555 1_555
O12_2 Zn10 1_555 1_555
O13_2 Zn4 1_555 1_555
O14_2 C14_2 1_555 1_555
O21 C18_2 1_555 1_555
O16 C18_2 1_555 1_555
C1_2 O3_2 1_555 1_555
C2_2 C1_2 1_555 1_555
C3_2 C2_2 1_555 1_555
H1_2 C3_2 1_555 1_555
C7_2 O8_2 1_555 1_555
C8_2 C7_2 1_555 1_555
C9_2 C8_2 1_555 1_555
H3_2 C9_2 1_555 1_555
C13_2 O12_2 1_555 1_555
C14_2 C13_2 1_555 1_555
C15_2 C14_2 1_555 1_555
H5_2 C15_2 1_555 1_555
C16_2 C15_2 1_555 1_555
H6_2 C16_2 1_555 1_555
C17_2 O14_2 1_555 1_555
C18_2 C17_2 1_555 1_555
Zn7 O16 1_555 1_555
O13_2 C13_2 1_555 1_555
C16_2 C17_2 1_555 1_555
O17 C6_2 1_555 1_555
O6_2 Zn7 1_555 1_555
N2_2 Zn7 1_555 1_555
H2_2 C4_2 1_555 1_555
C6_2 O6_2 1_555 1_555
H17_2 C28_2 1_555 1_555
C30_2 N2_2 1_555 1_555
C31_2 N2_2 1_555 1_555
H20_2 C31_2 1_555 1_555
C4_2 C5_2 1_555 1_555
C5_2 C6_2 1_555 1_555
C28_2 C31_2 1_555 1_555
N1 C19 1_555 1_555
C19 H7 1_555 1_555
C20 C19 1_555 1_555
H8 C20 1_555 1_555
C21 C20 1_555 1_555
C22 N1 1_555 1_555
H9 C22 1_555 1_555
C23 C21 1_555 1_555
H10 C23 1_555 1_555
C24 C21 1_555 1_555
H11 C24 1_555 1_555
H12 C24 1_555 1_555
C25 C24 1_555 1_555
H13 C25 1_555 1_555
H14 C25 1_555 1_555
C26 C25 1_555 1_555
H15 C26 1_555 1_555
H16 C26 1_555 1_555
C27 C26 1_555 1_555
C29 C27 1_555 1_555
H18 C29 1_555 1_555
C22 C23 1_555 1_555
N3 C19_2 1_555 1_555
C19_2 H7_2 1_555 1_555
C20_2 C19_2 1_555 1_555
H8_2 C20_2 1_555 1_555
C21_2 C20_2 1_555 1_555
C22_2 N3 1_555 1_555
H9_2 C22_2 1_555 1_555
C23_2 C21_2 1_555 1_555
H10_2 C23_2 1_555 1_555
C24_2 C21_2 1_555 1_555
H11_2 C24_2 1_555 1_555
H12_2 C24_2 1_555 1_555
C25_2 C24_2 1_555 1_555
H13_2 C25_2 1_555 1_555
H14_2 C25_2 1_555 1_555
C26_2 C25_2 1_555 1_555
H15_2 C26_2 1_555 1_555
H16_2 C26_2 1_555 1_555
C27_2 C26_2 1_555 1_555
C29_2 C27_2 1_555 1_555
H18_2 C29_2 1_555 1_555
C22_2 C23_2 1_555 1_555

#END
