
###############################################################################
#
# This file contains modified crystal structure data generated from the
# MOF subset of the Cambridge Structural Database (CSD) v543 
# hosted by the Cambridge Crystallographic Data Centre (CCDC).
#
# This work is licensed under the Creative Commons
# Attribution-NonCommercial-ShareAlike 4.0 International License.
# To view a copy of this license, visit
# http://creativecommons.org/licenses/by-nc-sa/4.0/
# or send a letter to
# Creative Commons, PO Box 1866, Mountain View, CA 94042, USA.
#
# CIF created using the CSD Python API on 29 September 2022
# The structure has been converted into the P1 space group
# The structure has a 3D framework
# The original CSD entry PENZUE is in the orthorhombic crystal system
# The framework has been calculated to contain at least 10.0% void space
# The void calculation uses a probe of radius 1.32A, grid spacing 0.4
#
###############################################################################

data_PENZUE
_chemical_formula_moiety         '(C52 H64 N8 O20 P8 Zn6)n'
_symmetry_cell_setting           triclinic
_symmetry_space_group_name_H-M   'P 1'
_symmetry_Int_Tables_number      1
_space_group_name_Hall           'P 1'
loop_
_symmetry_equiv_pos_site_id
_symmetry_equiv_pos_as_xyz
1 x,y,z
_cell_length_a                   9.6220(14)
_cell_length_b                   24.389(4)
_cell_length_c                   8.4590(11)
_cell_angle_alpha                90
_cell_angle_beta                 90
_cell_angle_gamma                90
_cell_volume                     1985.08
loop_
_atom_site_label
_atom_site_type_symbol
_atom_site_fract_x
_atom_site_fract_y
_atom_site_fract_z
Zn5 Zn 0.09552(3) 0.035069(12) 0.22659(3)
C10 C 0.0543(3) 0.13053(11) 0.4199(3)
H13 H 0.1439 0.1378 0.3776
H14 H 0.0450 0.2007 0.5470
Zn1 Zn 0.40448(3) 0.464931(12) 0.22659(3)
P1 P 0.60205(7) 0.56237(3) 0.13446(7)
H1 H 0.6133 0.6063 0.2207
O1 O 0.46326(19) 0.53723(7) 0.1761(2)
O2 O 0.72255(19) 0.52595(7) 0.1799(2)
N1 N 0.5108(2) 0.41609(8) 0.3787(2)
C1 C 0.7013(3) 0.38942(11) 0.5419(3)
H2 H 0.7912 0.3975 0.5821
C2 C 0.6374(3) 0.42555(11) 0.4401(3)
H3 H 0.6845 0.4584 0.4121
C3 C 0.4457(3) 0.36947(11) 0.4199(3)
H4 H 0.3561 0.3622 0.3776
C4 C 0.5042(3) 0.33189(11) 0.5212(3)
H5 H 0.4550 0.2993 0.5470
C5 C 0.6351(3) 0.34122(11) 0.5863(3)
C6 C 0.6995(3) 0.29886(11) 0.6922(3)
H6 H 0.6302 0.2863 0.7708
H7 H 0.7787 0.3152 0.7500
C7 C 0.7500 0.2500 0.5952(4)
H8 H 0.8268 0.2624 0.5260
H9 H 0.6732 0.2376 0.5260
Zn3 Zn 0.90448(3) 0.535069(12) 0.27341(3)
Zn6 Zn 0.09552(3) 0.464931(12) 0.72659(3)
P2 P 0.10205(7) 0.43763(3) 0.36554(7)
H10 H 0.1133 0.3937 0.2793
O5 O 0.22255(19) 0.47405(7) 0.3201(2)
O7 O 0.10863(18) 0.41836(7) 0.53790(19)
O8 O 0.39137(18) 0.41836(7) 0.03790(19)
N2 N 0.9892(2) 0.08391(8) 0.3787(2)
N3 N 0.0108(2) 0.58391(8) 0.1213(2)
C8 C 0.7987(3) 0.11058(11) 0.5419(3)
H11 H 0.7088 0.1025 0.5821
C9 C 0.8626(3) 0.07445(11) 0.4401(3)
H12 H 0.8155 0.0416 0.4121
C11 C 0.9958(3) 0.16811(11) 0.5212(3)
C12 C 0.8649(3) 0.15878(11) 0.5863(3)
C13 C 0.8005(3) 0.20114(11) 0.6922(3)
H15 H 0.8698 0.2137 0.7708
H16 H 0.7213 0.1848 0.7500
O3 O 0.60863(18) 0.58164(7) 0.96210(19)
Zn4 Zn 0.59552(3) 0.535069(12) 0.77341(3)
O4 O 0.96326(19) 0.46277(7) 0.3239(2)
O9 O 0.89137(18) 0.58164(7) 0.46210(19)
Zn6_2 Zn 0.40448(3) 0.035069(12) 0.72659(3)
P2_2 P 0.39795(7) 0.06237(3) 0.36554(7)
H10_2 H 0.3867 0.1063 0.2793
O4_2 O 0.53674(19) 0.03723(7) 0.3239(2)
O5_2 O 0.27745(19) 0.02595(7) 0.3201(2)
O7_2 O 0.39137(18) 0.08164(7) 0.53790(19)
O8_2 O 0.10863(18) 0.08164(7) 0.03790(19)
O1_2 O 0.03674(19) 0.96277(7) 0.1761(2)
Zn2 Zn 0.59552(3) 0.964931(12) 0.27341(3)
O6 O 0.77745(19) 0.97405(7) 0.1799(2)
O9_2 O 0.60863(18) 0.91836(7) 0.46210(19)
N3_2 N 0.4892(2) 0.91609(8) 0.1213(2)
P1_2 P 0.89795(7) 0.93763(3) 0.13446(7)
H1_2 H 0.8867 0.8937 0.2207
O3_2 O 0.89137(18) 0.91836(7) 0.96210(19)
Zn4_2 Zn 0.90448(3) 0.964931(12) 0.77341(3)
C2_2 C 0.3626(3) 0.92555(11) 0.0599(3)
H3_2 H 0.3155 0.9584 0.0879
C3_2 C 0.5543(3) 0.86947(11) 0.0801(3)
H4_2 H 0.6439 0.8622 0.1224
C9_2 C 0.1374(3) 0.57445(11) 0.0599(3)
H12_2 H 0.1845 0.5416 0.0879
C1_2 C 0.2987(3) 0.88942(11) 0.9581(3)
H2_2 H 0.2088 0.8975 0.9179
C4_2 C 0.4958(3) 0.83189(11) 0.9788(3)
H5_2 H 0.5450 0.7993 0.9530
C5_2 C 0.3649(3) 0.84122(11) 0.9137(3)
C6_2 C 0.3005(3) 0.79886(11) 0.8078(3)
H6_2 H 0.3698 0.7863 0.7292
H7_2 H 0.2213 0.8152 0.7500
C7_2 C 0.2500 0.7500 0.9048(4)
H8_2 H 0.1732 0.7624 0.9740
H9_2 H 0.3268 0.7376 0.9740
C8_2 C 0.2013(3) 0.61058(11) 0.9581(3)
H11_2 H 0.2912 0.6025 0.9179
C11_2 C 0.0042(3) 0.66811(11) 0.9788(3)
C12_2 C 0.1351(3) 0.65878(11) 0.9137(3)
C13_2 C 0.1995(3) 0.70114(11) 0.8078(3)
H15_2 H 0.1302 0.7137 0.7292
H16_2 H 0.2787 0.6848 0.7500
C10_2 C 0.9457(3) 0.63053(11) 0.0801(3)
H13_2 H 0.8561 0.6378 0.1224
H14_2 H 0.9550 0.7007 0.9530
O4_3 O 0.03674(19) 0.53723(7) 0.6761(2)
O6_2 O 0.27745(19) 0.47405(7) 0.8201(2)
P1_3 P 0.39795(7) 0.43763(3) 0.86554(7)
H1_3 H 0.3867 0.3937 0.7793
O1_3 O 0.53674(19) 0.46277(7) 0.8239(2)
N1_2 N 0.4892(2) 0.58391(8) 0.6213(2)
C1_3 C 0.2987(3) 0.61058(11) 0.4581(3)
H2_3 H 0.2088 0.6025 0.4179
C2_3 C 0.3626(3) 0.57445(11) 0.5599(3)
H3_3 H 0.3155 0.5416 0.5879
C3_3 C 0.5543(3) 0.63053(11) 0.5801(3)
H4_3 H 0.6439 0.6378 0.6224
C4_3 C 0.4958(3) 0.66811(11) 0.4788(3)
H5_3 H 0.5450 0.7007 0.4530
C5_3 C 0.3649(3) 0.65878(11) 0.4137(3)
C6_3 C 0.3005(3) 0.70114(11) 0.3078(3)
H6_3 H 0.3698 0.7137 0.2292
H7_3 H 0.2213 0.6848 0.2500
C7_3 C 0.2500 0.7500 0.4048(4)
H8_3 H 0.1732 0.7376 0.4740
H9_3 H 0.3268 0.7624 0.4740
P2_3 P 0.89795(7) 0.56237(3) 0.63446(7)
H10_3 H 0.8867 0.6063 0.7207
O5_3 O 0.77745(19) 0.52595(7) 0.6799(2)
N2_2 N 0.0108(2) 0.91609(8) 0.6213(2)
N3_3 N 0.9892(2) 0.41609(8) 0.8787(2)
C8_3 C 0.2013(3) 0.88942(11) 0.4581(3)
H11_3 H 0.2912 0.8975 0.4179
C9_3 C 0.1374(3) 0.92555(11) 0.5599(3)
H12_3 H 0.1845 0.9584 0.5879
C11_3 C 0.0042(3) 0.83189(11) 0.4788(3)
C12_3 C 0.1351(3) 0.84122(11) 0.4137(3)
C13_3 C 0.1995(3) 0.79886(11) 0.3078(3)
H15_3 H 0.1302 0.7863 0.2292
H16_3 H 0.2787 0.8152 0.2500
C10_3 C 0.9457(3) 0.86947(11) 0.5801(3)
H13_3 H 0.8561 0.8622 0.6224
H14_3 H 0.9550 0.7993 0.4530
P1_4 P 0.10205(7) 0.06237(3) 0.86554(7)
H1_4 H 0.1133 0.1063 0.7793
O2_2 O 0.22255(19) 0.02595(7) 0.8201(2)
O1_4 O 0.96326(19) 0.03723(7) 0.8239(2)
N3_4 N 0.5108(2) 0.08391(8) 0.8787(2)
P2_4 P 0.60205(7) 0.93763(3) 0.63446(7)
H10_4 H 0.6133 0.8937 0.7207
O4_4 O 0.46326(19) 0.96277(7) 0.6761(2)
O5_4 O 0.72255(19) 0.97405(7) 0.6799(2)
H14_4 H 0.0450 0.2993 0.0470
C10_4 C 0.0543(3) 0.36947(11) 0.9199(3)
H13_4 H 0.1439 0.3622 0.8776
C1_4 C 0.7013(3) 0.11058(11) 0.0419(3)
H2_4 H 0.7912 0.1025 0.0821
C4_4 C 0.5042(3) 0.16811(11) 0.0212(3)
H5_4 H 0.4550 0.2007 0.0470
C5_4 C 0.6351(3) 0.15878(11) 0.0863(3)
C6_4 C 0.6995(3) 0.20114(11) 0.1922(3)
H6_4 H 0.6302 0.2137 0.2708
H7_4 H 0.7787 0.1848 0.2500
C7_4 C 0.7500 0.2500 0.0952(4)
H8_4 H 0.8268 0.2376 0.0260
H9_4 H 0.6732 0.2624 0.0260
C8_4 C 0.7987(3) 0.38942(11) 0.0419(3)
H11_4 H 0.7088 0.3975 0.0821
C11_4 C 0.9958(3) 0.33189(11) 0.0212(3)
C12_4 C 0.8649(3) 0.34122(11) 0.0863(3)
C13_4 C 0.8005(3) 0.29886(11) 0.1922(3)
H15_4 H 0.8698 0.2863 0.2708
H16_4 H 0.7213 0.3152 0.2500
C2_4 C 0.6374(3) 0.07445(11) 0.9401(3)
H3_4 H 0.6845 0.0416 0.9121
C3_4 C 0.4457(3) 0.13053(11) 0.9199(3)
H4_4 H 0.3561 0.1378 0.8776
C9_4 C 0.8626(3) 0.42555(11) 0.9401(3)
H12_4 H 0.8155 0.4584 0.9121
loop_
_geom_bond_atom_site_label_1
_geom_bond_atom_site_label_2
_geom_bond_site_symmetry_1
_geom_bond_site_symmetry_2
H13 C10 1_555 1_555
Zn1 O1 1_555 1_555
P1 H1 1_555 1_555
O1 P1 1_555 1_555
O2 P1 1_555 1_555
N1 Zn1 1_555 1_555
C1 H2 1_555 1_555
C2 N1 1_555 1_555
H3 C2 1_555 1_555
C3 N1 1_555 1_555
H4 C3 1_555 1_555
C4 C3 1_555 1_555
H5 C4 1_555 1_555
C5 C1 1_555 1_555
C6 C5 1_555 1_555
H6 C6 1_555 1_555
H7 C6 1_555 1_555
C7 C6 1_555 1_555
H8 C7 1_555 1_555
H9 C7 1_555 1_555
Zn3 O2 1_555 1_555
Zn6 O7 1_555 1_555
P2 H10 1_555 1_555
O5 Zn1 1_555 1_555
O7 P2 1_555 1_555
O8 Zn1 1_555 1_555
N2 C9 1_555 1_555
C8 H11 1_555 1_555
C9 C8 1_555 1_555
H12 C9 1_555 1_555
C12 C8 1_555 1_555
C13 C7 1_555 1_555
H15 C13 1_555 1_555
H16 C13 1_555 1_555
C1 C2 1_555 1_555
C4 C5 1_555 1_555
P2 O5 1_555 1_555
C11 C12 1_555 1_555
C12 C13 1_555 1_555
Zn4 O3 1_555 1_555
Zn3 O4 1_555 1_555
O9 Zn3 1_555 1_555
Zn6_2 O7_2 1_555 1_555
P2_2 H10_2 1_555 1_555
O4_2 P2_2 1_555 1_555
O5_2 Zn5 1_555 1_555
O7_2 P2_2 1_555 1_555
O8_2 Zn5 1_555 1_555
P2_2 O5_2 1_555 1_555
O6 Zn2 1_555 1_555
O9_2 Zn2 1_555 1_555
N3_2 Zn2 1_555 1_555
P1_2 H1_2 1_555 1_555
O6 P1_2 1_555 1_555
Zn4_2 O3_2 1_555 1_555
C2_2 N3_2 1_555 1_555
H3_2 C2_2 1_555 1_555
C3_2 N3_2 1_555 1_555
H4_2 C3_2 1_555 1_555
N3 C9_2 1_555 1_555
H12_2 C9_2 1_555 1_555
C1_2 H2_2 1_555 1_555
H5_2 C4_2 1_555 1_555
C5_2 C1_2 1_555 1_555
C6_2 C5_2 1_555 1_555
H6_2 C6_2 1_555 1_555
H7_2 C6_2 1_555 1_555
C7_2 C6_2 1_555 1_555
H8_2 C7_2 1_555 1_555
H9_2 C7_2 1_555 1_555
C8_2 H11_2 1_555 1_555
C12_2 C8_2 1_555 1_555
C13_2 C7_2 1_555 1_555
H15_2 C13_2 1_555 1_555
H16_2 C13_2 1_555 1_555
C4_2 C5_2 1_555 1_555
C11_2 C12_2 1_555 1_555
C12_2 C13_2 1_555 1_555
H13_2 C10_2 1_555 1_555
Zn6 O4_3 1_555 1_555
O6_2 Zn6 1_555 1_555
Zn4 O1_3 1_555 1_555
P1_3 H1_3 1_555 1_555
O1_3 P1_3 1_555 1_555
O6_2 P1_3 1_555 1_555
N1_2 Zn4 1_555 1_555
C1_3 H2_3 1_555 1_555
C2_3 N1_2 1_555 1_555
H3_3 C2_3 1_555 1_555
C3_3 N1_2 1_555 1_555
H4_3 C3_3 1_555 1_555
C4_3 C3_3 1_555 1_555
H5_3 C4_3 1_555 1_555
C5_3 C1_3 1_555 1_555
C6_3 C5_3 1_555 1_555
H6_3 C6_3 1_555 1_555
H7_3 C6_3 1_555 1_555
C7_3 C6_3 1_555 1_555
H8_3 C7_3 1_555 1_555
H9_3 C7_3 1_555 1_555
P2_3 H10_3 1_555 1_555
O5_3 Zn4 1_555 1_555
O9 P2_3 1_555 1_555
N2_2 C9_3 1_555 1_555
C8_3 H11_3 1_555 1_555
C9_3 C8_3 1_555 1_555
H12_3 C9_3 1_555 1_555
C12_3 C8_3 1_555 1_555
C13_3 C7_3 1_555 1_555
H15_3 C13_3 1_555 1_555
H16_3 C13_3 1_555 1_555
C1_3 C2_3 1_555 1_555
C4_3 C5_3 1_555 1_555
P2_3 O5_3 1_555 1_555
C11_3 C12_3 1_555 1_555
C12_3 C13_3 1_555 1_555
H13_3 C10_3 1_555 1_555
P1_4 H1_4 1_555 1_555
O2_2 P1_4 1_555 1_555
Zn6_2 O2_2 1_555 1_555
N3_4 Zn6_2 1_555 1_555
P2_4 H10_4 1_555 1_555
O4_4 P2_4 1_555 1_555
O5_4 Zn4_2 1_555 1_555
O9_2 P2_4 1_555 1_555
P2_4 O5_4 1_555 1_555
H13_4 C10_4 1_555 1_555
C1_4 H2_4 1_555 1_555
H5_4 C4_4 1_555 1_555
C5_4 C1_4 1_555 1_555
C6_4 C5_4 1_555 1_555
H6_4 C6_4 1_555 1_555
H7_4 C6_4 1_555 1_555
C7_4 C6_4 1_555 1_555
H8_4 C7_4 1_555 1_555
H9_4 C7_4 1_555 1_555
C8_4 H11_4 1_555 1_555
C12_4 C8_4 1_555 1_555
C13_4 C7_4 1_555 1_555
H15_4 C13_4 1_555 1_555
H16_4 C13_4 1_555 1_555
C4_4 C5_4 1_555 1_555
C11_4 C12_4 1_555 1_555
C12_4 C13_4 1_555 1_555
C2_4 N3_4 1_555 1_555
H3_4 C2_4 1_555 1_555
C3_4 N3_4 1_555 1_555
H4_4 C3_4 1_555 1_555
N3_3 C9_4 1_555 1_555
H12_4 C9_4 1_555 1_555

#END
