
###############################################################################
#
# This file contains modified crystal structure data generated from the
# MOF subset of the Cambridge Structural Database (CSD) v543 
# hosted by the Cambridge Crystallographic Data Centre (CCDC).
#
# This work is licensed under the Creative Commons
# Attribution-NonCommercial-ShareAlike 4.0 International License.
# To view a copy of this license, visit
# http://creativecommons.org/licenses/by-nc-sa/4.0/
# or send a letter to
# Creative Commons, PO Box 1866, Mountain View, CA 94042, USA.
#
# CIF created using the CSD Python API on 29 September 2022
# The structure has been converted into the P1 space group
# The structure has a 3D framework
# The original CSD entry PEPFAT is in the orthorhombic crystal system
# The framework has been calculated to contain at least 10.0% void space
# The void calculation uses a probe of radius 1.32A, grid spacing 0.4
# H atom positions have been added when not included in the experimental data
# Generated hydrogen atom positions removed from atoms on special positions
#
###############################################################################

data_PEPFAT
_chemical_formula_moiety         '(C496 H384 N16 O344 Zn82)n'
_symmetry_cell_setting           triclinic
_symmetry_space_group_name_H-M   'P 1'
_symmetry_Int_Tables_number      1
_space_group_name_Hall           'P 1'
loop_
_symmetry_equiv_pos_site_id
_symmetry_equiv_pos_as_xyz
1 x,y,z
_cell_length_a                   44.6250(2)
_cell_length_b                   19.72700(15)
_cell_length_c                   29.0190(3)
_cell_angle_alpha                90
_cell_angle_beta                 90
_cell_angle_gamma                90
_cell_volume                     25545.9
loop_
_atom_site_label
_atom_site_type_symbol
_atom_site_fract_x
_atom_site_fract_y
_atom_site_fract_z
C1 C 0.02273(14) 0.2202(3) 0.4022(2)
C6 C 0.02374(14) 0.1719(3) 0.3672(2)
H3 H 0.0421 0.1591 0.3548
C7 C 0.05112(15) 0.2487(3) 0.4221(2)
C10 C 0.16920(12) 0.5004(3) 0.3517(2)
C11 C 0.16069(13) 0.5633(3) 0.3701(2)
H4 H 0.1691 0.6028 0.3584
C12 C 0.13982(13) 0.5674(3) 0.4056(2)
C13 C 0.12728(14) 0.5091(3) 0.4223(2)
H5 H 0.1130 0.5113 0.4455
C14 C 0.13592(13) 0.4458(3) 0.4043(2)
C15 C 0.15716(13) 0.4422(3) 0.3693(2)
H6 H 0.1631 0.4003 0.3578
C16 C 0.19186(13) 0.4971(3) 0.3137(2)
C17 C 0.13091(15) 0.6342(3) 0.4260(2)
C18 C 0.12196(14) 0.3823(3) 0.4251(2)
C19 C 0.33360(13) 0.5401(3) 0.0991(2)
C20 C 0.31068(13) 0.5487(3) 0.1307(2)
H7 H 0.3040 0.5922 0.1376
C21 C 0.29765(14) 0.4936(3) 0.1520(2)
C22 C 0.30893(15) 0.4292(3) 0.1424(2)
H8 H 0.3008 0.3920 0.1575
C23 C 0.33143(15) 0.4194(3) 0.1116(3)
C24 C 0.34357(14) 0.4744(3) 0.0888(2)
H9 H 0.3584 0.4679 0.0666
C25 C 0.34885(13) 0.5989(3) 0.0762(2)
C26 C 0.27368(13) 0.5022(3) 0.1871(2)
C27 C 0.3447(2) 0.3495(4) 0.1033(4)
C28 C 0.21441(15) 0.7181(3) 0.2440(3)
C29 C 0.2112(2) 0.7270(5) 0.1910(3)
H10 H 0.2225 0.6925 0.1755
H11 H 0.2185 0.7708 0.1822
H12 H 0.1904 0.7231 0.1826
C30 C 0.1835(2) 0.8212(4) 0.2560(4)
H13 H 0.1827 0.8221 0.2229
H14 H 0.1932 0.8615 0.2670
H15 H 0.1634 0.8191 0.2680
C31 C 0.2048(3) 0.7507(6) 0.3229(4)
H16 H 0.2162 0.7102 0.3286
H17 H 0.1856 0.7470 0.3374
H18 H 0.2153 0.7890 0.3353
N1 N 0.20080(15) 0.7599(3) 0.2716(3)
O1 O 0.07594(11) 0.2233(2) 0.40709(18)
O2 O 0.04886(10) 0.2941(2) 0.45054(16)
O4 O 0.04728(14) 0.4247(3) 0.5000
O5 O 0.02385(11) 0.0750(2) 0.29780(16)
O6 O 0.4301(2) 0.5843(6) 0.0000
O8 O 0.20067(9) 0.4399(2) 0.30067(15)
O9 O 0.20131(9) 0.5526(2) 0.29738(15)
O10 O 0.14564(14) 0.6845(2) 0.4145(2)
O11 O 0.11018(11) 0.6346(2) 0.45265(16)
O12 O 0.10121(10) 0.3897(2) 0.45106(17)
O13 O 0.13294(10) 0.3261(2) 0.41252(17)
O14 O 0.36916(10) 0.5870(2) 0.05005(16)
O15 O 0.34161(15) 0.6567(2) 0.0878(2)
O16 O 0.26402(9) 0.5611(2) 0.19546(15)
O17 O 0.26453(9) 0.4483(2) 0.20659(16)
O18 O 0.36281(11) 0.3413(2) 0.07254(18)
O19 O 0.23120(10) 0.6727(2) 0.25790(16)
O20 O 0.1045(2) 0.2520(4) 0.5000
O21 O 0.37822(11) 0.7232(2) 0.0000
Zn1 Zn 0.232459(13) 0.57504(3) 0.24689(2)
Zn2 Zn 0.07562(2) 0.33917(4) 0.5000
Zn3 Zn 0.39565(2) 0.63657(5) 0.0000
O22 O 0.07786(19) -0.0000 0.2500
Zn4 Zn 0.115360(18) 0.24185(3) 0.43474(3)
Zn5 Zn 0.406803(19) 0.79874(4) 0.0000
Zn6 Zn 0.03293(2) -0.0000 0.2500
O23 O 0.3439(3) 0.3074(5) 0.1374(4)
Zn10 Zn 0.12704(3) 0.77413(6) 0.42938(5)
O44 O 0.04886(10) 0.2941(2) 0.54946(16)
O46 O 0.43930(9) 0.7737(2) 0.04684(15)
O48 O 0.02563(12) 0.0694(2) 0.20060(16)
O49 O 0.20067(9) 0.5601(2) 0.19933(15)
O53 O 0.38982(11) 0.8654(2) 0.04735(16)
O54 O 0.10121(10) 0.3897(2) 0.54894(17)
O57 O 0.15839(15) 0.8433(2) 0.4122(2)
O58 O 0.26453(9) 0.5517(2) 0.29341(16)
O60 O 0.13719(11) 0.1587(2) 0.42746(18)
O63 O 0.12178(11) 0.7768(2) 0.5000
Zn11 Zn 0.232459(13) 0.42496(3) 0.25311(2)
Zn17 Zn 0.115360(18) 0.24185(3) 0.56526(3)
Zn18 Zn 0.384640(18) 0.25815(3) 0.06526(3)
Zn23 Zn 0.093197(19) 0.70126(4) 0.5000
O64 O 0.0768(2) 0.8295(5) 0.4346(3)
O66 O 0.4232(2) 0.6705(5) 0.0654(3)
Zn29 Zn 0.37296(3) 0.72587(6) 0.07062(5)
O6_2 O 0.4301(2) 0.5843(6) 1.0000
O21_2 O 0.37822(11) 0.7232(2) 1.0000
Zn3_2 Zn 0.39565(2) 0.63657(5) 1.0000
Zn5_2 Zn 0.406803(19) 0.79874(4) 1.0000
Zn7 Zn 0.37296(3) 0.72587(6) 0.92938(5)
O45 O 0.43930(9) 0.7737(2) 0.95316(15)
O51 O 0.35436(14) 0.8155(2) 0.9145(2)
O52 O 0.38982(11) 0.8654(2) 0.95265(16)
O55 O 0.36916(10) 0.5870(2) 0.94995(16)
O56 O 0.34161(15) 0.6567(2) 0.9122(2)
O65 O 0.4232(2) 0.6705(5) 0.9346(3)
H39 H 0.424991 0.536947 0.991456
H40 H 0.444575 0.602996 0.97733
O22_2 O 0.07786(19) 1.0000 0.2500
Zn6_2 Zn 0.03293(2) 1.0000 0.2500
C33 C 0.00459(14) 0.7611(3) 0.4210(2)
H19 H 0.0053 0.7287 0.4442
C34 C 0.03098(15) 0.7905(4) 0.4053(2)
C35 C 0.02907(16) 0.8368(4) 0.3691(2)
H20 H 0.0466 0.8546 0.3569
C36 C 0.00197(15) 0.8569(3) 0.3510(2)
C39 C 0.05906(17) 0.7737(5) 0.4278(3)
C40 C 0.00141(16) 0.9073(3) 0.3129(2)
O27 O 0.06070(9) 0.7263(2) 0.45316(15)
O29 O 0.02563(12) 0.9306(2) 0.29940(16)
O47 O 0.02385(11) 0.9250(2) 0.20220(16)
Zn16 Zn 0.10435(2) 0.86343(5) 0.5000
H41 H 0.0852774 0.9892 0.281416
H42 H 0.0852774 0.965378 0.227934
C2 C 0.99541(14) 0.2389(3) 0.4210(2)
H1 H 0.9947 0.2713 0.4442
C3 C 0.96902(15) 0.2095(4) 0.4053(2)
C4 C 0.97093(16) 0.1632(4) 0.3691(2)
H2 H 0.9534 0.1454 0.3569
C5 C 0.99803(15) 0.1431(3) 0.3510(2)
C8 C 0.94094(17) 0.2263(5) 0.4278(3)
C9 C 0.99859(16) 0.0927(3) 0.3129(2)
O3 O 0.93930(9) 0.2737(2) 0.45316(15)
O7 O 0.97437(12) 0.0694(2) 0.29940(16)
O24 O 0.9232(2) 0.1705(5) 0.4346(3)
Zn15 Zn 0.89565(2) 0.13657(5) 0.5000
Zn21 Zn 0.906803(19) 0.29874(4) 0.5000
Zn24 Zn 0.96707(2) -0.0000 0.2500
Zn26 Zn 0.87296(3) 0.22587(6) 0.42938(5)
C32 C 0.97727(14) 0.7798(3) 0.4022(2)
C37 C 0.97626(14) 0.8281(3) 0.3672(2)
H21 H 0.9579 0.8409 0.3548
C38 C 0.94888(15) 0.7513(3) 0.4221(2)
C41 C 0.83080(12) 0.4996(3) 0.3517(2)
C42 C 0.83931(13) 0.4367(3) 0.3701(2)
H22 H 0.8309 0.3972 0.3584
C43 C 0.86018(13) 0.4326(3) 0.4056(2)
C44 C 0.87272(14) 0.4909(3) 0.4223(2)
H23 H 0.8870 0.4887 0.4455
C45 C 0.86408(13) 0.5542(3) 0.4043(2)
C46 C 0.84284(13) 0.5578(3) 0.3693(2)
H24 H 0.8369 0.5997 0.3578
C47 C 0.80814(13) 0.5029(3) 0.3137(2)
C48 C 0.86909(15) 0.3658(3) 0.4260(2)
C49 C 0.87804(14) 0.6177(3) 0.4251(2)
C50 C 0.66640(13) 0.4599(3) 0.0991(2)
C51 C 0.68932(13) 0.4513(3) 0.1307(2)
H25 H 0.6960 0.4078 0.1376
C52 C 0.70235(14) 0.5064(3) 0.1520(2)
C53 C 0.69107(15) 0.5708(3) 0.1424(2)
H26 H 0.6992 0.6080 0.1575
C54 C 0.66857(15) 0.5806(3) 0.1116(3)
C55 C 0.65643(14) 0.5256(3) 0.0888(2)
H27 H 0.6416 0.5321 0.0666
C56 C 0.65115(13) 0.4011(3) 0.0762(2)
C57 C 0.72632(13) 0.4978(3) 0.1871(2)
C58 C 0.6553(2) 0.6505(4) 0.1033(4)
C59 C 0.78559(15) 0.2819(3) 0.2440(3)
C60 C 0.7888(2) 0.2730(5) 0.1910(3)
H28 H 0.7775 0.3075 0.1755
H29 H 0.7815 0.2292 0.1822
H30 H 0.8096 0.2769 0.1826
C61 C 0.8165(2) 0.1788(4) 0.2560(4)
H31 H 0.8173 0.1779 0.2229
H32 H 0.8068 0.1385 0.2670
H33 H 0.8366 0.1809 0.2680
C62 C 0.7952(3) 0.2493(6) 0.3229(4)
H34 H 0.7838 0.2898 0.3286
H35 H 0.8144 0.2530 0.3374
H36 H 0.7847 0.2110 0.3353
N2 N 0.79920(15) 0.2401(3) 0.2716(3)
O25 O 0.92406(11) 0.7767(2) 0.40709(18)
O26 O 0.95114(10) 0.7059(2) 0.45054(16)
O28 O 0.97615(11) 0.9250(2) 0.29780(16)
O30 O 0.79933(9) 0.5601(2) 0.30067(15)
O31 O 0.79869(9) 0.4474(2) 0.29738(15)
O32 O 0.85436(14) 0.3155(2) 0.4145(2)
O33 O 0.88982(11) 0.3654(2) 0.45265(16)
O34 O 0.89879(10) 0.6103(2) 0.45106(17)
O35 O 0.86706(10) 0.6739(2) 0.41252(17)
O36 O 0.63084(10) 0.4130(2) 0.05005(16)
O37 O 0.65839(15) 0.3433(2) 0.0878(2)
O38 O 0.73598(9) 0.4389(2) 0.19546(15)
O39 O 0.73547(9) 0.5517(2) 0.20659(16)
O40 O 0.63719(11) 0.6587(2) 0.07254(18)
O41 O 0.76880(10) 0.3273(2) 0.25790(16)
Zn8 Zn 0.767541(13) 0.42496(3) 0.24689(2)
Zn9 Zn 0.884640(18) 0.75815(3) 0.43474(3)
O42 O 0.6561(3) 0.6926(5) 0.1374(4)
O50 O 0.79933(9) 0.4399(2) 0.19933(15)
O59 O 0.73547(9) 0.4483(2) 0.29341(16)
O61 O 0.86281(11) 0.8413(2) 0.42746(18)
O62 O 0.8955(2) 0.7480(4) 0.5000
Zn12 Zn 0.767541(13) 0.57504(3) 0.25311(2)
Zn13 Zn 0.92438(2) 0.66083(4) 0.5000
Zn14 Zn 0.60435(2) 0.36343(5) 0.0000
Zn19 Zn 0.615360(18) 0.74185(3) 0.06526(3)
Zn24_2 Zn 0.96707(2) 1.0000 0.2500
Zn28 Zn 0.62704(3) 0.27413(6) 0.07062(5)
Zn14_2 Zn 0.60435(2) 0.36343(5) 1.0000
O22_3 O 0.92214(19) -0.0000 0.2500
O47_2 O 0.97615(11) 0.0750(2) 0.20220(16)
H41_2 H 0.914723 0.0107996 0.281416
H42_2 H 0.914723 0.034622 0.227934
O4_2 O 0.95272(14) 0.5753(3) 0.5000
O6_3 O 0.5699(2) 0.4157(6) 0.0000
O21_3 O 0.62178(11) 0.2768(2) 0.0000
O22_4 O 0.92214(19) 1.0000 0.2500
Zn5_3 Zn 0.593197(19) 0.20126(4) 0.0000
O44_2 O 0.95114(10) 0.7059(2) 0.54946(16)
O46_2 O 0.56070(9) 0.2263(2) 0.04684(15)
O48_2 O 0.97437(12) 0.9306(2) 0.20060(16)
O53_2 O 0.61018(11) 0.1346(2) 0.04735(16)
O54_2 O 0.89879(10) 0.6103(2) 0.54894(17)
O57_2 O 0.84161(15) 0.1567(2) 0.4122(2)
O63_2 O 0.87822(11) 0.2232(2) 0.5000
Zn17_2 Zn 0.884640(18) 0.75815(3) 0.56526(3)
O66_2 O 0.5768(2) 0.3295(5) 0.0654(3)
O6_4 O 0.5699(2) 0.4157(6) 1.0000
O21_4 O 0.62178(11) 0.2768(2) 1.0000
Zn5_4 Zn 0.593197(19) 0.20126(4) 1.0000
Zn7_2 Zn 0.62704(3) 0.27413(6) 0.92938(5)
O45_2 O 0.56070(9) 0.2263(2) 0.95316(15)
O51_2 O 0.64564(14) 0.1845(2) 0.9145(2)
O52_2 O 0.61018(11) 0.1346(2) 0.95265(16)
O55_2 O 0.63084(10) 0.4130(2) 0.94995(16)
O56_2 O 0.65839(15) 0.3433(2) 0.9122(2)
O65_2 O 0.5768(2) 0.3295(5) 0.9346(3)
H39_2 H 0.575009 0.463053 0.991456
H40_2 H 0.555425 0.397004 0.97733
C33_2 C 0.00459(14) 0.2389(3) 0.0790(2)
H19_2 H 0.0053 0.2713 0.0558
C34_2 C 0.03098(15) 0.2095(4) 0.0947(2)
C35_2 C 0.02907(16) 0.1632(4) 0.1309(2)
H20_2 H 0.0466 0.1454 0.1431
C36_2 C 0.00197(15) 0.1431(3) 0.1490(2)
C39_2 C 0.05906(17) 0.2263(5) 0.0722(3)
C40_2 C 0.00141(16) 0.0927(3) 0.1871(2)
O27_2 O 0.06070(9) 0.2737(2) 0.04684(15)
O43 O 0.0768(2) 0.1705(5) 0.0654(3)
Zn16_2 Zn 0.10435(2) 0.13657(5) 0.0000
Zn22 Zn 0.093197(19) 0.29874(4) 0.0000
Zn27 Zn 0.12704(3) 0.22587(6) 0.07062(5)
H41_3 H 0.0852774 0.0107996 0.218584
H42_3 H 0.0852774 0.034622 0.272066
Zn16_3 Zn 0.10435(2) 0.13657(5) 1.0000
Zn22_2 Zn 0.093197(19) 0.29874(4) 1.0000
C1_2 C 0.02273(14) 0.7798(3) 0.0978(2)
C6_2 C 0.02374(14) 0.8281(3) 0.1328(2)
H3_2 H 0.0421 0.8409 0.1452
C7_2 C 0.05112(15) 0.7513(3) 0.0779(2)
C10_2 C 0.16920(12) 0.4996(3) 0.1483(2)
C11_2 C 0.16069(13) 0.4367(3) 0.1299(2)
H4_2 H 0.1691 0.3972 0.1416
C12_2 C 0.13982(13) 0.4326(3) 0.0944(2)
C13_2 C 0.12728(14) 0.4909(3) 0.0777(2)
H5_2 H 0.1130 0.4887 0.0545
C14_2 C 0.13592(13) 0.5542(3) 0.0957(2)
C15_2 C 0.15716(13) 0.5578(3) 0.1307(2)
H6_2 H 0.1631 0.5997 0.1422
C16_2 C 0.19186(13) 0.5029(3) 0.1863(2)
C17_2 C 0.13091(15) 0.3658(3) 0.0740(2)
C18_2 C 0.12196(14) 0.6177(3) 0.0749(2)
C19_2 C 0.33360(13) 0.4599(3) 0.4009(2)
C20_2 C 0.31068(13) 0.4513(3) 0.3693(2)
H7_2 H 0.3040 0.4078 0.3624
C21_2 C 0.29765(14) 0.5064(3) 0.3480(2)
C22_2 C 0.30893(15) 0.5708(3) 0.3576(2)
H8_2 H 0.3008 0.6080 0.3425
C23_2 C 0.33143(15) 0.5806(3) 0.3884(3)
C24_2 C 0.34357(14) 0.5256(3) 0.4112(2)
H9_2 H 0.3584 0.5321 0.4334
C25_2 C 0.34885(13) 0.4011(3) 0.4238(2)
C26_2 C 0.27368(13) 0.4978(3) 0.3129(2)
C27_2 C 0.3447(2) 0.6505(4) 0.3967(4)
C28_2 C 0.21441(15) 0.2819(3) 0.2560(3)
C29_2 C 0.2112(2) 0.2730(5) 0.3090(3)
H10_2 H 0.2225 0.3075 0.3245
H11_2 H 0.2185 0.2292 0.3178
H12_2 H 0.1904 0.2769 0.3174
C30_2 C 0.1835(2) 0.1788(4) 0.2440(4)
H13_2 H 0.1827 0.1779 0.2771
H14_2 H 0.1932 0.1385 0.2330
H15_2 H 0.1634 0.1809 0.2320
C31_2 C 0.2048(3) 0.2493(6) 0.1771(4)
H16_2 H 0.2162 0.2898 0.1714
H17_2 H 0.1856 0.2530 0.1626
H18_2 H 0.2153 0.2110 0.1647
N1_2 N 0.20080(15) 0.2401(3) 0.2284(3)
O1_2 O 0.07594(11) 0.7767(2) 0.09291(18)
O2_2 O 0.04886(10) 0.7059(2) 0.04946(16)
O4_3 O 0.04728(14) 0.5753(3) 0.0000
O6_5 O 0.4301(2) 0.4157(6) 0.5000
O9_2 O 0.20131(9) 0.4474(2) 0.20262(15)
O10_2 O 0.14564(14) 0.3155(2) 0.0855(2)
O11_2 O 0.11018(11) 0.3654(2) 0.04735(16)
O12_2 O 0.10121(10) 0.6103(2) 0.04894(17)
O13_2 O 0.13294(10) 0.6739(2) 0.08748(17)
O14_2 O 0.36916(10) 0.4130(2) 0.44995(16)
O15_2 O 0.34161(15) 0.3433(2) 0.4122(2)
O16_2 O 0.26402(9) 0.4389(2) 0.30454(15)
O18_2 O 0.36281(11) 0.6587(2) 0.42746(18)
O19_2 O 0.23120(10) 0.3273(2) 0.24210(16)
O20_2 O 0.1045(2) 0.7480(4) 0.0000
O21_5 O 0.37822(11) 0.2768(2) 0.5000
Zn2_2 Zn 0.07562(2) 0.66083(4) 0.0000
Zn3_3 Zn 0.39565(2) 0.36343(5) 0.5000
Zn4_2 Zn 0.115360(18) 0.75815(3) 0.06526(3)
Zn5_5 Zn 0.406803(19) 0.20126(4) 0.5000
O23_2 O 0.3439(3) 0.6926(5) 0.3626(4)
Zn7_3 Zn 0.37296(3) 0.27413(6) 0.57062(5)
O45_3 O 0.43930(9) 0.2263(2) 0.54684(15)
O46_3 O 0.43930(9) 0.2263(2) 0.45316(15)
O51_3 O 0.35436(14) 0.1845(2) 0.5855(2)
O52_3 O 0.38982(11) 0.1346(2) 0.54735(16)
O53_3 O 0.38982(11) 0.1346(2) 0.45265(16)
O55_3 O 0.36916(10) 0.4130(2) 0.55005(16)
O56_3 O 0.34161(15) 0.3433(2) 0.5878(2)
O57_3 O 0.15839(15) 0.1567(2) 0.0878(2)
O60_2 O 0.13719(11) 0.8413(2) 0.07254(18)
O63_3 O 0.12178(11) 0.2232(2) 0.0000
Zn18_2 Zn 0.384640(18) 0.74185(3) 0.43474(3)
O65_3 O 0.4232(2) 0.3295(5) 0.5654(3)
O66_3 O 0.4232(2) 0.3295(5) 0.4346(3)
Zn29_2 Zn 0.37296(3) 0.27413(6) 0.42938(5)
O4_4 O 0.04728(14) 0.5753(3) 1.0000
O20_3 O 0.1045(2) 0.7480(4) 1.0000
Zn2_3 Zn 0.07562(2) 0.66083(4) 1.0000
O44_3 O 0.04886(10) 0.7059(2) 0.95054(16)
O54_3 O 0.10121(10) 0.6103(2) 0.95106(17)
O63_4 O 0.12178(11) 0.2232(2) 1.0000
Zn17_3 Zn 0.115360(18) 0.75815(3) 0.93474(3)
H37 H 0.0266983 0.589229 0.991081
H38 H 0.0549169 0.541382 0.977609
C32_2 C 0.97727(14) 0.2202(3) 0.0978(2)
C37_2 C 0.97626(14) 0.1719(3) 0.1328(2)
H21_2 H 0.9579 0.1591 0.1452
C38_2 C 0.94888(15) 0.2487(3) 0.0779(2)
C41_2 C 0.83080(12) 0.5004(3) 0.1483(2)
C42_2 C 0.83931(13) 0.5633(3) 0.1299(2)
H22_2 H 0.8309 0.6028 0.1416
C43_2 C 0.86018(13) 0.5674(3) 0.0944(2)
C44_2 C 0.87272(14) 0.5091(3) 0.0777(2)
H23_2 H 0.8870 0.5113 0.0545
C45_2 C 0.86408(13) 0.4458(3) 0.0957(2)
C46_2 C 0.84284(13) 0.4422(3) 0.1307(2)
H24_2 H 0.8369 0.4003 0.1422
C47_2 C 0.80814(13) 0.4971(3) 0.1863(2)
C48_2 C 0.86909(15) 0.6342(3) 0.0740(2)
C49_2 C 0.87804(14) 0.3823(3) 0.0749(2)
C50_2 C 0.66640(13) 0.5401(3) 0.4009(2)
C51_2 C 0.68932(13) 0.5487(3) 0.3693(2)
H25_2 H 0.6960 0.5922 0.3624
C52_2 C 0.70235(14) 0.4936(3) 0.3480(2)
C53_2 C 0.69107(15) 0.4292(3) 0.3576(2)
H26_2 H 0.6992 0.3920 0.3425
C54_2 C 0.66857(15) 0.4194(3) 0.3884(3)
C55_2 C 0.65643(14) 0.4744(3) 0.4112(2)
H27_2 H 0.6416 0.4679 0.4334
C56_2 C 0.65115(13) 0.5989(3) 0.4238(2)
C57_2 C 0.72632(13) 0.5022(3) 0.3129(2)
C58_2 C 0.6553(2) 0.3495(4) 0.3967(4)
C59_2 C 0.78559(15) 0.7181(3) 0.2560(3)
C60_2 C 0.7888(2) 0.7270(5) 0.3090(3)
H28_2 H 0.7775 0.6925 0.3245
H29_2 H 0.7815 0.7708 0.3178
H30_2 H 0.8096 0.7231 0.3174
C61_2 C 0.8165(2) 0.8212(4) 0.2440(4)
H31_2 H 0.8173 0.8221 0.2771
H32_2 H 0.8068 0.8615 0.2330
H33_2 H 0.8366 0.8191 0.2320
C62_2 C 0.7952(3) 0.7507(6) 0.1771(4)
H34_2 H 0.7838 0.7102 0.1714
H35_2 H 0.8144 0.7470 0.1626
H36_2 H 0.7847 0.7890 0.1647
N2_2 N 0.79920(15) 0.7599(3) 0.2284(3)
O25_2 O 0.92406(11) 0.2233(2) 0.09291(18)
O26_2 O 0.95114(10) 0.2941(2) 0.04946(16)
O31_2 O 0.79869(9) 0.5526(2) 0.20262(15)
O32_2 O 0.85436(14) 0.6845(2) 0.0855(2)
O33_2 O 0.88982(11) 0.6346(2) 0.04735(16)
O34_2 O 0.89879(10) 0.3897(2) 0.04894(17)
O35_2 O 0.86706(10) 0.3261(2) 0.08748(17)
O36_2 O 0.63084(10) 0.5870(2) 0.44995(16)
O37_2 O 0.65839(15) 0.6567(2) 0.4122(2)
O38_2 O 0.73598(9) 0.5611(2) 0.30454(15)
O40_2 O 0.63719(11) 0.3413(2) 0.42746(18)
O41_2 O 0.76880(10) 0.6727(2) 0.24210(16)
Zn9_2 Zn 0.884640(18) 0.24185(3) 0.06526(3)
O42_2 O 0.6561(3) 0.3074(5) 0.3626(4)
O61_2 O 0.86281(11) 0.1587(2) 0.07254(18)
O62_2 O 0.8955(2) 0.2520(4) 0.0000
Zn13_2 Zn 0.92438(2) 0.33917(4) 0.0000
Zn14_3 Zn 0.60435(2) 0.63657(5) 0.5000
Zn19_2 Zn 0.615360(18) 0.25815(3) 0.43474(3)
Zn20 Zn 0.906803(19) 0.70126(4) 0.0000
Zn25 Zn 0.87296(3) 0.77413(6) 0.07062(5)
Zn28_2 Zn 0.62704(3) 0.72587(6) 0.42938(5)
O62_3 O 0.8955(2) 0.2520(4) 1.0000
Zn13_3 Zn 0.92438(2) 0.33917(4) 1.0000
Zn20_2 Zn 0.906803(19) 0.70126(4) 1.0000
C2_2 C 0.99541(14) 0.7611(3) 0.0790(2)
H1_2 H 0.9947 0.7287 0.0558
C3_2 C 0.96902(15) 0.7905(4) 0.0947(2)
C4_2 C 0.97093(16) 0.8368(4) 0.1309(2)
H2_2 H 0.9534 0.8546 0.1431
C5_2 C 0.99803(15) 0.8569(3) 0.1490(2)
C8_2 C 0.94094(17) 0.7737(5) 0.0722(3)
C9_2 C 0.99859(16) 0.9073(3) 0.1871(2)
O3_2 O 0.93930(9) 0.7263(2) 0.04684(15)
O24_2 O 0.9232(2) 0.8295(5) 0.0654(3)
Zn15_2 Zn 0.89565(2) 0.86343(5) 0.0000
Zn15_3 Zn 0.89565(2) 0.86343(5) 1.0000
O4_5 O 0.95272(14) 0.4247(3) 0.0000
O6_6 O 0.5699(2) 0.5843(6) 0.5000
O21_6 O 0.62178(11) 0.7232(2) 0.5000
Zn5_6 Zn 0.593197(19) 0.79874(4) 0.5000
Zn7_4 Zn 0.62704(3) 0.72587(6) 0.57062(5)
O45_4 O 0.56070(9) 0.7737(2) 0.54684(15)
O46_4 O 0.56070(9) 0.7737(2) 0.45316(15)
O51_4 O 0.64564(14) 0.8155(2) 0.5855(2)
O52_4 O 0.61018(11) 0.8654(2) 0.54735(16)
O53_4 O 0.61018(11) 0.8654(2) 0.45265(16)
O55_4 O 0.63084(10) 0.5870(2) 0.55005(16)
O56_4 O 0.65839(15) 0.6567(2) 0.5878(2)
O57_4 O 0.84161(15) 0.8433(2) 0.0878(2)
O63_5 O 0.87822(11) 0.7768(2) 0.0000
O65_4 O 0.5768(2) 0.6705(5) 0.5654(3)
O66_4 O 0.5768(2) 0.6705(5) 0.4346(3)
O4_6 O 0.95272(14) 0.4247(3) 1.0000
O44_4 O 0.95114(10) 0.2941(2) 0.95054(16)
O54_4 O 0.89879(10) 0.3897(2) 0.95106(17)
O63_6 O 0.87822(11) 0.7768(2) 1.0000
Zn17_4 Zn 0.884640(18) 0.24185(3) 0.93474(3)
H37_2 H 0.973302 0.410771 0.991081
H38_2 H 0.945083 0.458618 0.977609
H41_4 H 0.914723 0.9892 0.218584
H42_4 H 0.914723 0.965378 0.272066
C10_3 C 0.66920(12) 0.0004(3) 0.8517(2)
C11_3 C 0.66069(13) 0.0633(3) 0.8701(2)
H4_3 H 0.6691 0.1028 0.8584
C12_3 C 0.63982(13) 0.0674(3) 0.9056(2)
C13_3 C 0.62728(14) 0.0091(3) 0.9223(2)
H5_3 H 0.6130 0.0113 0.9455
C17_3 C 0.63091(15) 0.1342(3) 0.9260(2)
C19_3 C 0.83360(13) 0.0401(3) 0.5991(2)
C20_3 C 0.81068(13) 0.0487(3) 0.6307(2)
H7_3 H 0.8040 0.0922 0.6376
C25_3 C 0.84885(13) 0.0989(3) 0.5762(2)
C26_3 C 0.77368(13) 0.0022(3) 0.6871(2)
C28_3 C 0.71441(15) 0.2181(3) 0.7440(3)
C29_3 C 0.7112(2) 0.2270(5) 0.6910(3)
H10_3 H 0.7225 0.1925 0.6755
H11_3 H 0.7185 0.2708 0.6822
H12_3 H 0.6904 0.2231 0.6826
C30_3 C 0.6835(2) 0.3212(4) 0.7560(4)
H13_3 H 0.6827 0.3221 0.7229
H14_3 H 0.6932 0.3615 0.7670
H15_3 H 0.6634 0.3191 0.7680
C31_3 C 0.7048(3) 0.2507(6) 0.8229(4)
H16_3 H 0.7162 0.2102 0.8286
H17_3 H 0.6856 0.2470 0.8374
H18_3 H 0.7153 0.2890 0.8353
N1_3 N 0.70080(15) 0.2599(3) 0.7716(3)
O6_7 O 0.9301(2) 0.0843(6) 0.5000
O9_3 O 0.70131(9) 0.0526(2) 0.79738(15)
O14_3 O 0.86916(10) 0.0870(2) 0.55005(16)
O15_3 O 0.84161(15) 0.1567(2) 0.5878(2)
O16_3 O 0.76402(9) 0.0611(2) 0.69546(15)
O19_3 O 0.73120(10) 0.1727(2) 0.75790(16)
Zn1_2 Zn 0.732459(13) 0.07504(3) 0.74689(2)
O46_5 O 0.93930(9) 0.2737(2) 0.54684(15)
O49_2 O 0.70067(9) 0.0601(2) 0.69933(15)
O53_5 O 0.88982(11) 0.3654(2) 0.54735(16)
O55_5 O 0.86916(10) 0.0870(2) 0.44995(16)
O58_2 O 0.76453(9) 0.0517(2) 0.79341(16)
O66_5 O 0.9232(2) 0.1705(5) 0.5654(3)
Zn29_3 Zn 0.87296(3) 0.22587(6) 0.57062(5)
O4_7 O 0.54728(14) 0.9247(3) -0.0000
O20_4 O 0.6045(2) 0.7520(4) -0.0000
Zn2_4 Zn 0.57562(2) 0.83917(4) -0.0000
O44_5 O 0.54886(10) 0.7941(2) 0.04946(16)
O54_5 O 0.60121(10) 0.8897(2) 0.04894(17)
O62_4 O 0.3955(2) 0.2480(4) -0.0000
Zn13_4 Zn 0.42438(2) 0.16083(4) -0.0000
H37_3 H 0.526698 0.910771 0.0089188
H38_3 H 0.554917 0.958618 0.0223914
C1_3 C 0.52273(14) 0.7202(3) 0.9022(2)
C2_3 C 0.49541(14) 0.7389(3) 0.9210(2)
H1_3 H 0.4947 0.7713 0.9442
C3_3 C 0.46902(15) 0.7095(4) 0.9053(2)
C4_3 C 0.47093(16) 0.6632(4) 0.8691(2)
H2_3 H 0.4534 0.6454 0.8569
C5_3 C 0.49803(15) 0.6431(3) 0.8510(2)
C6_3 C 0.52374(14) 0.6719(3) 0.8672(2)
H3_3 H 0.5421 0.6591 0.8548
C7_3 C 0.55112(15) 0.7487(3) 0.9221(2)
C8_3 C 0.44094(17) 0.7263(5) 0.9278(3)
C9_3 C 0.49859(16) 0.5927(3) 0.8129(2)
C14_3 C 0.63592(13) 0.9458(3) 0.9043(2)
C15_3 C 0.65716(13) 0.9422(3) 0.8693(2)
H6_3 H 0.6631 0.9003 0.8578
C16_3 C 0.69186(13) 0.9971(3) 0.8137(2)
C18_3 C 0.62196(14) 0.8823(3) 0.9251(2)
C21_3 C 0.79765(14) 0.9936(3) 0.6520(2)
C22_3 C 0.80893(15) 0.9292(3) 0.6424(2)
H8_3 H 0.8008 0.8920 0.6575
C23_3 C 0.83143(15) 0.9194(3) 0.6116(3)
C24_3 C 0.84357(14) 0.9744(3) 0.5888(2)
H9_3 H 0.8584 0.9679 0.5666
C27_3 C 0.8447(2) 0.8495(4) 0.6033(4)
O1_3 O 0.57594(11) 0.7233(2) 0.90709(18)
O2_3 O 0.54886(10) 0.7941(2) 0.95054(16)
O4_8 O 0.54728(14) 0.9247(3) 1.0000
O5_2 O 0.52385(11) 0.5750(2) 0.79780(16)
O7_2 O 0.47437(12) 0.5694(2) 0.79940(16)
O8_2 O 0.70067(9) 0.9399(2) 0.80067(15)
O12_3 O 0.60121(10) 0.8897(2) 0.95106(17)
O13_3 O 0.63294(10) 0.8261(2) 0.91252(17)
O17_2 O 0.76453(9) 0.9483(2) 0.70659(16)
O18_3 O 0.86281(11) 0.8413(2) 0.57254(18)
O20_5 O 0.6045(2) 0.7520(4) 1.0000
Zn2_5 Zn 0.57562(2) 0.83917(4) 1.0000
O22_5 O 0.57786(19) 0.5000 0.7500
Zn4_3 Zn 0.615360(18) 0.74185(3) 0.93474(3)
Zn6_3 Zn 0.53293(2) 0.5000 0.7500
O23_3 O 0.8439(3) 0.8074(5) 0.6374(4)
C32_3 C 0.47727(14) 0.2798(3) 0.9022(2)
C33_3 C 0.50459(14) 0.2611(3) 0.9210(2)
H19_3 H 0.5053 0.2287 0.9442
C34_3 C 0.53098(15) 0.2905(4) 0.9053(2)
C35_3 C 0.52907(16) 0.3368(4) 0.8691(2)
H20_3 H 0.5466 0.3546 0.8569
C36_3 C 0.50197(15) 0.3569(3) 0.8510(2)
C37_3 C 0.47626(14) 0.3281(3) 0.8672(2)
H21_3 H 0.4579 0.3409 0.8548
C38_3 C 0.44888(15) 0.2513(3) 0.9221(2)
C39_3 C 0.55906(17) 0.2737(5) 0.9278(3)
C40_3 C 0.50141(16) 0.4073(3) 0.8129(2)
C45_3 C 0.36408(13) 0.0542(3) 0.9043(2)
C46_3 C 0.34284(13) 0.0578(3) 0.8693(2)
H24_3 H 0.3369 0.0997 0.8578
C47_3 C 0.30814(13) 0.0029(3) 0.8137(2)
C49_3 C 0.37804(14) 0.1177(3) 0.9251(2)
C52_3 C 0.20235(14) 0.0064(3) 0.6520(2)
C53_3 C 0.19107(15) 0.0708(3) 0.6424(2)
H26_3 H 0.1992 0.1080 0.6575
C54_3 C 0.16857(15) 0.0806(3) 0.6116(3)
C55_3 C 0.15643(14) 0.0256(3) 0.5888(2)
H27_3 H 0.1416 0.0321 0.5666
C58_3 C 0.1553(2) 0.1505(4) 0.6033(4)
O25_3 O 0.42406(11) 0.2767(2) 0.90709(18)
O26_3 O 0.45114(10) 0.2059(2) 0.95054(16)
O28_2 O 0.47615(11) 0.4250(2) 0.79780(16)
O29_2 O 0.52563(12) 0.4306(2) 0.79940(16)
O30_2 O 0.29933(9) 0.0601(2) 0.80067(15)
O34_3 O 0.39879(10) 0.1103(2) 0.95106(17)
O35_3 O 0.36706(10) 0.1739(2) 0.91252(17)
O39_2 O 0.23547(9) 0.0517(2) 0.70659(16)
O40_3 O 0.13719(11) 0.1587(2) 0.57254(18)
Zn9_3 Zn 0.384640(18) 0.25815(3) 0.93474(3)
O42_3 O 0.1561(3) 0.1926(5) 0.6374(4)
O47_3 O 0.52385(11) 0.4250(2) 0.70220(16)
O48_3 O 0.52563(12) 0.5694(2) 0.70060(16)
O60_3 O 0.63719(11) 0.6587(2) 0.92746(18)
O61_3 O 0.36281(11) 0.3413(2) 0.92746(18)
O62_5 O 0.3955(2) 0.2480(4) 1.0000
Zn11_2 Zn 0.732459(13) 0.92496(3) 0.75311(2)
Zn12_2 Zn 0.267541(13) 0.07504(3) 0.75311(2)
Zn13_5 Zn 0.42438(2) 0.16083(4) 1.0000
Zn24_3 Zn 0.46707(2) 0.5000 0.7500
C41_3 C 0.33080(12) 0.9996(3) 0.8517(2)
C42_3 C 0.33931(13) 0.9367(3) 0.8701(2)
H22_3 H 0.3309 0.8972 0.8584
C43_3 C 0.36018(13) 0.9326(3) 0.9056(2)
C44_3 C 0.37272(14) 0.9909(3) 0.9223(2)
H23_3 H 0.3870 0.9887 0.9455
C48_3 C 0.36909(15) 0.8658(3) 0.9260(2)
C50_3 C 0.16640(13) 0.9599(3) 0.5991(2)
C51_3 C 0.18932(13) 0.9513(3) 0.6307(2)
H25_3 H 0.1960 0.9078 0.6376
C56_3 C 0.15115(13) 0.9011(3) 0.5762(2)
C57_3 C 0.22632(13) 0.9978(3) 0.6871(2)
C59_3 C 0.28559(15) 0.7819(3) 0.7440(3)
C60_3 C 0.2888(2) 0.7730(5) 0.6910(3)
H28_3 H 0.2775 0.8075 0.6755
H29_3 H 0.2815 0.7292 0.6822
H30_3 H 0.3096 0.7769 0.6826
C61_3 C 0.3165(2) 0.6788(4) 0.7560(4)
H31_3 H 0.3173 0.6779 0.7229
H32_3 H 0.3068 0.6385 0.7670
H33_3 H 0.3366 0.6809 0.7680
C62_3 C 0.2952(3) 0.7493(6) 0.8229(4)
H34_3 H 0.2838 0.7898 0.8286
H35_3 H 0.3144 0.7530 0.8374
H36_3 H 0.2847 0.7110 0.8353
N2_3 N 0.29920(15) 0.7401(3) 0.7716(3)
O31_3 O 0.29869(9) 0.9474(2) 0.79738(15)
O36_3 O 0.13084(10) 0.9130(2) 0.55005(16)
O37_3 O 0.15839(15) 0.8433(2) 0.5878(2)
O38_3 O 0.23598(9) 0.9389(2) 0.69546(15)
O41_3 O 0.26880(10) 0.8273(2) 0.75790(16)
Zn8_2 Zn 0.267541(13) 0.92496(3) 0.74689(2)
O50_2 O 0.29933(9) 0.9399(2) 0.69933(15)
O59_2 O 0.23547(9) 0.9483(2) 0.79341(16)
Zn28_3 Zn 0.12704(3) 0.77413(6) 0.57062(5)
O4_9 O 0.45272(14) 0.0753(3) -0.0000
O44_6 O 0.45114(10) 0.2059(2) 0.04946(16)
O54_6 O 0.39879(10) 0.1103(2) 0.04894(17)
H37_4 H 0.473302 0.0892285 0.0089188
H38_4 H 0.445083 0.0413819 0.0223914
O4_10 O 0.45272(14) 0.0753(3) 1.0000
O22_6 O 0.42214(19) 0.5000 0.7500
O47_4 O 0.47615(11) 0.5750(2) 0.70220(16)
O48_4 O 0.47437(12) 0.4306(2) 0.70060(16)
O6_8 O 0.0699(2) 0.9157(6) 0.5000
O46_6 O 0.06070(9) 0.7263(2) 0.54684(15)
O53_6 O 0.11018(11) 0.6346(2) 0.54735(16)
O55_6 O 0.13084(10) 0.9130(2) 0.44995(16)
O66_6 O 0.0768(2) 0.8295(5) 0.5654(3)
C41_4 C 0.33080(12) 0.0004(3) 0.6483(2)
C42_4 C 0.33931(13) 0.0633(3) 0.6299(2)
H22_4 H 0.3309 0.1028 0.6416
C43_4 C 0.36018(13) 0.0674(3) 0.5944(2)
C44_4 C 0.37272(14) 0.0091(3) 0.5777(2)
H23_4 H 0.3870 0.0113 0.5545
C48_4 C 0.36909(15) 0.1342(3) 0.5740(2)
C50_4 C 0.16640(13) 0.0401(3) 0.9009(2)
C51_4 C 0.18932(13) 0.0487(3) 0.8693(2)
H25_4 H 0.1960 0.0922 0.8624
C56_4 C 0.15115(13) 0.0989(3) 0.9238(2)
C57_4 C 0.22632(13) 0.0022(3) 0.8129(2)
C59_4 C 0.28559(15) 0.2181(3) 0.7560(3)
C60_4 C 0.2888(2) 0.2270(5) 0.8090(3)
H28_4 H 0.2775 0.1925 0.8245
H29_4 H 0.2815 0.2708 0.8178
H30_4 H 0.3096 0.2231 0.8174
C61_4 C 0.3165(2) 0.3212(4) 0.7440(4)
H31_4 H 0.3173 0.3221 0.7771
H32_4 H 0.3068 0.3615 0.7330
H33_4 H 0.3366 0.3191 0.7320
C62_4 C 0.2952(3) 0.2507(6) 0.6771(4)
H34_4 H 0.2838 0.2102 0.6714
H35_4 H 0.3144 0.2470 0.6626
H36_4 H 0.2847 0.2890 0.6647
N2_4 N 0.29920(15) 0.2599(3) 0.7284(3)
O31_4 O 0.29869(9) 0.0526(2) 0.70262(15)
O36_4 O 0.13084(10) 0.0870(2) 0.94995(16)
O37_4 O 0.15839(15) 0.1567(2) 0.9122(2)
O38_4 O 0.23598(9) 0.0611(2) 0.80454(15)
O41_4 O 0.26880(10) 0.1727(2) 0.74210(16)
Zn28_4 Zn 0.12704(3) 0.22587(6) 0.92938(5)
C1_4 C 0.52273(14) 0.2798(3) 0.5978(2)
C2_4 C 0.49541(14) 0.2611(3) 0.5790(2)
H1_4 H 0.4947 0.2287 0.5558
C3_4 C 0.46902(15) 0.2905(4) 0.5947(2)
C4_4 C 0.47093(16) 0.3368(4) 0.6309(2)
H2_4 H 0.4534 0.3546 0.6431
C5_4 C 0.49803(15) 0.3569(3) 0.6490(2)
C6_4 C 0.52374(14) 0.3281(3) 0.6328(2)
H3_4 H 0.5421 0.3409 0.6452
C7_4 C 0.55112(15) 0.2513(3) 0.5779(2)
C8_4 C 0.44094(17) 0.2737(5) 0.5722(3)
C9_4 C 0.49859(16) 0.4073(3) 0.6871(2)
C14_4 C 0.63592(13) 0.0542(3) 0.5957(2)
C15_4 C 0.65716(13) 0.0578(3) 0.6307(2)
H6_4 H 0.6631 0.0997 0.6422
C16_4 C 0.69186(13) 0.0029(3) 0.6863(2)
C18_4 C 0.62196(14) 0.1177(3) 0.5749(2)
C21_4 C 0.79765(14) 0.0064(3) 0.8480(2)
C22_4 C 0.80893(15) 0.0708(3) 0.8576(2)
H8_4 H 0.8008 0.1080 0.8425
C23_4 C 0.83143(15) 0.0806(3) 0.8884(3)
C24_4 C 0.84357(14) 0.0256(3) 0.9112(2)
H9_4 H 0.8584 0.0321 0.9334
C27_4 C 0.8447(2) 0.1505(4) 0.8967(4)
O1_4 O 0.57594(11) 0.2767(2) 0.59291(18)
O2_4 O 0.54886(10) 0.2059(2) 0.54946(16)
O4_11 O 0.54728(14) 0.0753(3) 0.5000
O12_4 O 0.60121(10) 0.1103(2) 0.54894(17)
O13_4 O 0.63294(10) 0.1739(2) 0.58748(17)
O18_4 O 0.86281(11) 0.1587(2) 0.92746(18)
O20_6 O 0.6045(2) 0.2480(4) 0.5000
Zn2_6 Zn 0.57562(2) 0.16083(4) 0.5000
Zn4_4 Zn 0.615360(18) 0.25815(3) 0.56526(3)
O23_4 O 0.8439(3) 0.1926(5) 0.8626(4)
C32_4 C 0.47727(14) 0.7202(3) 0.5978(2)
C33_4 C 0.50459(14) 0.7389(3) 0.5790(2)
H19_4 H 0.5053 0.7713 0.5558
C34_4 C 0.53098(15) 0.7095(4) 0.5947(2)
C35_4 C 0.52907(16) 0.6632(4) 0.6309(2)
H20_4 H 0.5466 0.6454 0.6431
C36_4 C 0.50197(15) 0.6431(3) 0.6490(2)
C37_4 C 0.47626(14) 0.6719(3) 0.6328(2)
H21_4 H 0.4579 0.6591 0.6452
C38_4 C 0.44888(15) 0.7487(3) 0.5779(2)
C39_4 C 0.55906(17) 0.7263(5) 0.5722(3)
C40_4 C 0.50141(16) 0.5927(3) 0.6871(2)
C45_4 C 0.36408(13) 0.9458(3) 0.5957(2)
C46_4 C 0.34284(13) 0.9422(3) 0.6307(2)
H24_4 H 0.3369 0.9003 0.6422
C47_4 C 0.30814(13) 0.9971(3) 0.6863(2)
C49_4 C 0.37804(14) 0.8823(3) 0.5749(2)
C52_4 C 0.20235(14) 0.9936(3) 0.8480(2)
C53_4 C 0.19107(15) 0.9292(3) 0.8576(2)
H26_4 H 0.1992 0.8920 0.8425
C54_4 C 0.16857(15) 0.9194(3) 0.8884(3)
C55_4 C 0.15643(14) 0.9744(3) 0.9112(2)
H27_4 H 0.1416 0.9679 0.9334
C58_4 C 0.1553(2) 0.8495(4) 0.8967(4)
O25_4 O 0.42406(11) 0.7233(2) 0.59291(18)
O26_4 O 0.45114(10) 0.7941(2) 0.54946(16)
O34_4 O 0.39879(10) 0.8897(2) 0.54894(17)
O35_4 O 0.36706(10) 0.8261(2) 0.58748(17)
O40_4 O 0.13719(11) 0.8413(2) 0.92746(18)
Zn9_4 Zn 0.384640(18) 0.74185(3) 0.56526(3)
O42_4 O 0.1561(3) 0.8074(5) 0.8626(4)
O44_7 O 0.54886(10) 0.2059(2) 0.45054(16)
O54_7 O 0.60121(10) 0.1103(2) 0.45106(17)
O60_4 O 0.63719(11) 0.3413(2) 0.57254(18)
O61_4 O 0.36281(11) 0.6587(2) 0.57254(18)
O62_6 O 0.3955(2) 0.7520(4) 0.5000
Zn13_6 Zn 0.42438(2) 0.83917(4) 0.5000
O6_9 O 0.9301(2) 0.9157(6) 0.0000
O55_7 O 0.86916(10) 0.9130(2) 0.05005(16)
H39_3 H 0.924991 0.963053 0.00854373
H40_3 H 0.944575 0.897004 0.0226703
C10_4 C 0.66920(12) 0.9996(3) 0.6483(2)
C11_4 C 0.66069(13) 0.9367(3) 0.6299(2)
H4_4 H 0.6691 0.8972 0.6416
C12_4 C 0.63982(13) 0.9326(3) 0.5944(2)
C13_4 C 0.62728(14) 0.9909(3) 0.5777(2)
H5_4 H 0.6130 0.9887 0.5545
C17_4 C 0.63091(15) 0.8658(3) 0.5740(2)
C19_4 C 0.83360(13) 0.9599(3) 0.9009(2)
C20_4 C 0.81068(13) 0.9513(3) 0.8693(2)
H7_4 H 0.8040 0.9078 0.8624
C25_4 C 0.84885(13) 0.9011(3) 0.9238(2)
C26_4 C 0.77368(13) 0.9978(3) 0.8129(2)
C28_4 C 0.71441(15) 0.7819(3) 0.7560(3)
C29_4 C 0.7112(2) 0.7730(5) 0.8090(3)
H10_4 H 0.7225 0.8075 0.8245
H11_4 H 0.7185 0.7292 0.8178
H12_4 H 0.6904 0.7769 0.8174
C30_4 C 0.6835(2) 0.6788(4) 0.7440(4)
H13_4 H 0.6827 0.6779 0.7771
H14_4 H 0.6932 0.6385 0.7330
H15_4 H 0.6634 0.6809 0.7320
C31_4 C 0.7048(3) 0.7493(6) 0.6771(4)
H16_4 H 0.7162 0.7898 0.6714
H17_4 H 0.6856 0.7530 0.6626
H18_4 H 0.7153 0.7110 0.6647
N1_4 N 0.70080(15) 0.7401(3) 0.7284(3)
O6_10 O 0.9301(2) 0.9157(6) 1.0000
O9_4 O 0.70131(9) 0.9474(2) 0.70262(15)
O14_4 O 0.86916(10) 0.9130(2) 0.94995(16)
O15_4 O 0.84161(15) 0.8433(2) 0.9122(2)
O16_4 O 0.76402(9) 0.9389(2) 0.80454(15)
O19_4 O 0.73120(10) 0.8273(2) 0.74210(16)
O46_7 O 0.93930(9) 0.7263(2) 0.95316(15)
O53_7 O 0.88982(11) 0.6346(2) 0.95265(16)
O66_7 O 0.9232(2) 0.8295(5) 0.9346(3)
Zn29_4 Zn 0.87296(3) 0.77413(6) 0.92938(5)
O6_11 O 0.0699(2) 0.0843(6) 0.0000
O55_8 O 0.13084(10) 0.0870(2) 0.05005(16)
H39_4 H 0.075009 0.0369471 0.00854373
H40_4 H 0.0554253 0.102996 0.0226703
O6_12 O 0.0699(2) 0.0843(6) 1.0000
O46_8 O 0.06070(9) 0.2737(2) 0.95316(15)
O53_8 O 0.11018(11) 0.3654(2) 0.95265(16)
O66_8 O 0.0768(2) 0.1705(5) 0.9346(3)
O4_12 O 0.45272(14) 0.9247(3) 0.5000
O44_8 O 0.45114(10) 0.7941(2) 0.45054(16)
O54_8 O 0.39879(10) 0.8897(2) 0.45106(17)
C32_5 C 0.02273(14) 0.2202(3) 0.5978(2)
C37_5 C 0.02374(14) 0.1719(3) 0.6328(2)
H21_5 H 0.0421 0.1591 0.6452
C38_5 C 0.05112(15) 0.2487(3) 0.5779(2)
C41_5 C 0.16920(12) 0.5004(3) 0.6483(2)
C42_5 C 0.16069(13) 0.5633(3) 0.6299(2)
H22_5 H 0.1691 0.6028 0.6416
C43_5 C 0.13982(13) 0.5674(3) 0.5944(2)
C44_5 C 0.12728(14) 0.5091(3) 0.5777(2)
H23_5 H 0.1130 0.5113 0.5545
C45_5 C 0.13592(13) 0.4458(3) 0.5957(2)
C46_5 C 0.15716(13) 0.4422(3) 0.6307(2)
H24_5 H 0.1631 0.4003 0.6422
C47_5 C 0.19186(13) 0.4971(3) 0.6863(2)
C48_5 C 0.13091(15) 0.6342(3) 0.5740(2)
C49_5 C 0.12196(14) 0.3823(3) 0.5749(2)
C50_5 C 0.33360(13) 0.5401(3) 0.9009(2)
C51_5 C 0.31068(13) 0.5487(3) 0.8693(2)
H25_5 H 0.3040 0.5922 0.8624
C52_5 C 0.29765(14) 0.4936(3) 0.8480(2)
C53_5 C 0.30893(15) 0.4292(3) 0.8576(2)
H26_5 H 0.3008 0.3920 0.8425
C54_5 C 0.33143(15) 0.4194(3) 0.8884(3)
C55_5 C 0.34357(14) 0.4744(3) 0.9112(2)
H27_5 H 0.3584 0.4679 0.9334
C56_5 C 0.34885(13) 0.5989(3) 0.9238(2)
C57_5 C 0.27368(13) 0.5022(3) 0.8129(2)
C58_5 C 0.3447(2) 0.3495(4) 0.8967(4)
C59_5 C 0.21441(15) 0.7181(3) 0.7560(3)
C60_5 C 0.2112(2) 0.7270(5) 0.8090(3)
H28_5 H 0.2225 0.6925 0.8245
H29_5 H 0.2185 0.7708 0.8178
H30_5 H 0.1904 0.7231 0.8174
C61_5 C 0.1835(2) 0.8212(4) 0.7440(4)
H31_5 H 0.1827 0.8221 0.7771
H32_5 H 0.1932 0.8615 0.7330
H33_5 H 0.1634 0.8191 0.7320
C62_5 C 0.2048(3) 0.7507(6) 0.6771(4)
H34_5 H 0.2162 0.7102 0.6714
H35_5 H 0.1856 0.7470 0.6626
H36_5 H 0.2153 0.7890 0.6647
N2_5 N 0.20080(15) 0.7599(3) 0.7284(3)
O25_5 O 0.07594(11) 0.2233(2) 0.59291(18)
O28_3 O 0.02385(11) 0.0750(2) 0.70220(16)
O30_3 O 0.20067(9) 0.4399(2) 0.69933(15)
O31_5 O 0.20131(9) 0.5526(2) 0.70262(15)
O32_3 O 0.14564(14) 0.6845(2) 0.5855(2)
O35_5 O 0.13294(10) 0.3261(2) 0.58748(17)
O38_5 O 0.26402(9) 0.5611(2) 0.80454(15)
O39_3 O 0.26453(9) 0.4483(2) 0.79341(16)
O41_5 O 0.23120(10) 0.6727(2) 0.74210(16)
Zn8_3 Zn 0.232459(13) 0.57504(3) 0.75311(2)
O42_5 O 0.3439(3) 0.3074(5) 0.8626(4)
O50_3 O 0.20067(9) 0.5601(2) 0.80067(15)
O59_3 O 0.26453(9) 0.5517(2) 0.70659(16)
Zn12_3 Zn 0.232459(13) 0.42496(3) 0.74689(2)
Zn24_4 Zn 0.03293(2) 0.0000 0.7500
C2_5 C 0.00459(14) 0.7611(3) 0.5790(2)
H1_5 H 0.0053 0.7287 0.5558
C3_5 C 0.03098(15) 0.7905(4) 0.5947(2)
C4_5 C 0.02907(16) 0.8368(4) 0.6309(2)
H2_5 H 0.0466 0.8546 0.6431
C5_5 C 0.00197(15) 0.8569(3) 0.6490(2)
C8_5 C 0.05906(17) 0.7737(5) 0.5722(3)
C9_5 C 0.00141(16) 0.9073(3) 0.6871(2)
O7_3 O 0.02563(12) 0.9306(2) 0.70060(16)
Zn24_5 Zn 0.03293(2) 1.0000 0.7500
O22_7 O 0.92214(19) 0.0000 0.7500
Zn6_4 Zn 0.96707(2) 0.0000 0.7500
C33_5 C 0.99541(14) 0.2389(3) 0.5790(2)
H19_5 H 0.9947 0.2713 0.5558
C34_5 C 0.96902(15) 0.2095(4) 0.5947(2)
C35_5 C 0.97093(16) 0.1632(4) 0.6309(2)
H20_5 H 0.9534 0.1454 0.6431
C36_5 C 0.99803(15) 0.1431(3) 0.6490(2)
C39_5 C 0.94094(17) 0.2263(5) 0.5722(3)
C40_5 C 0.99859(16) 0.0927(3) 0.6871(2)
O29_3 O 0.97437(12) 0.0694(2) 0.70060(16)
O47_5 O 0.97615(11) 0.0750(2) 0.79780(16)
H41_5 H 0.914723 0.0107996 0.718584
H42_5 H 0.914723 0.034622 0.772066
O51_5 O 0.64564(14) 0.1845(2) 0.0855(2)
H39_5 H 0.575009 0.463053 0.00854373
H40_5 H 0.555425 0.397004 0.0226703
C1_5 C 0.97727(14) 0.7798(3) 0.5978(2)
C6_5 C 0.97626(14) 0.8281(3) 0.6328(2)
H3_5 H 0.9579 0.8409 0.6452
C7_5 C 0.94888(15) 0.7513(3) 0.5779(2)
C10_5 C 0.83080(12) 0.4996(3) 0.6483(2)
C11_5 C 0.83931(13) 0.4367(3) 0.6299(2)
H4_5 H 0.8309 0.3972 0.6416
C12_5 C 0.86018(13) 0.4326(3) 0.5944(2)
C13_5 C 0.87272(14) 0.4909(3) 0.5777(2)
H5_5 H 0.8870 0.4887 0.5545
C14_5 C 0.86408(13) 0.5542(3) 0.5957(2)
C15_5 C 0.84284(13) 0.5578(3) 0.6307(2)
H6_5 H 0.8369 0.5997 0.6422
C16_5 C 0.80814(13) 0.5029(3) 0.6863(2)
C17_5 C 0.86909(15) 0.3658(3) 0.5740(2)
C18_5 C 0.87804(14) 0.6177(3) 0.5749(2)
C19_5 C 0.66640(13) 0.4599(3) 0.9009(2)
C20_5 C 0.68932(13) 0.4513(3) 0.8693(2)
H7_5 H 0.6960 0.4078 0.8624
C21_5 C 0.70235(14) 0.5064(3) 0.8480(2)
C22_5 C 0.69107(15) 0.5708(3) 0.8576(2)
H8_5 H 0.6992 0.6080 0.8425
C23_5 C 0.66857(15) 0.5806(3) 0.8884(3)
C24_5 C 0.65643(14) 0.5256(3) 0.9112(2)
H9_5 H 0.6416 0.5321 0.9334
C25_5 C 0.65115(13) 0.4011(3) 0.9238(2)
C26_5 C 0.72632(13) 0.4978(3) 0.8129(2)
C27_5 C 0.6553(2) 0.6505(4) 0.8967(4)
C28_5 C 0.78559(15) 0.2819(3) 0.7560(3)
C29_5 C 0.7888(2) 0.2730(5) 0.8090(3)
H10_5 H 0.7775 0.3075 0.8245
H11_5 H 0.7815 0.2292 0.8178
H12_5 H 0.8096 0.2769 0.8174
C30_5 C 0.8165(2) 0.1788(4) 0.7440(4)
H13_5 H 0.8173 0.1779 0.7771
H14_5 H 0.8068 0.1385 0.7330
H15_5 H 0.8366 0.1809 0.7320
C31_5 C 0.7952(3) 0.2493(6) 0.6771(4)
H16_5 H 0.7838 0.2898 0.6714
H17_5 H 0.8144 0.2530 0.6626
H18_5 H 0.7847 0.2110 0.6647
N1_5 N 0.79920(15) 0.2401(3) 0.7284(3)
O1_5 O 0.92406(11) 0.7767(2) 0.59291(18)
O5_3 O 0.97615(11) 0.9250(2) 0.70220(16)
O8_3 O 0.79933(9) 0.5601(2) 0.69933(15)
O9_5 O 0.79869(9) 0.4474(2) 0.70262(15)
O10_3 O 0.85436(14) 0.3155(2) 0.5855(2)
O13_5 O 0.86706(10) 0.6739(2) 0.58748(17)
O16_5 O 0.73598(9) 0.4389(2) 0.80454(15)
O17_3 O 0.73547(9) 0.5517(2) 0.79341(16)
O19_5 O 0.76880(10) 0.3273(2) 0.74210(16)
Zn1_3 Zn 0.767541(13) 0.42496(3) 0.75311(2)
O22_8 O 0.92214(19) 1.0000 0.7500
Zn6_5 Zn 0.96707(2) 1.0000 0.7500
O23_5 O 0.6561(3) 0.6926(5) 0.8626(4)
O48_5 O 0.97437(12) 0.9306(2) 0.79940(16)
O49_3 O 0.79933(9) 0.4399(2) 0.80067(15)
O58_3 O 0.73547(9) 0.4483(2) 0.70659(16)
Zn11_3 Zn 0.767541(13) 0.57504(3) 0.74689(2)
O51_6 O 0.35436(14) 0.8155(2) 0.0855(2)
H39_6 H 0.424991 0.536947 0.00854373
H40_6 H 0.444575 0.602996 0.0226703
O22_9 O 0.07786(19) 0.0000 0.7500
O48_6 O 0.02563(12) 0.0694(2) 0.79940(16)
O22_10 O 0.07786(19) 1.0000 0.7500
O47_6 O 0.02385(11) 0.9250(2) 0.79780(16)
H41_6 H 0.0852774 0.9892 0.718584
H42_6 H 0.0852774 0.965378 0.772066
C2_6 C 0.00459(14) 0.2389(3) 0.9210(2)
H1_6 H 0.0053 0.2713 0.9442
C3_6 C 0.03098(15) 0.2095(4) 0.9053(2)
C4_6 C 0.02907(16) 0.1632(4) 0.8691(2)
H2_6 H 0.0466 0.1454 0.8569
C5_6 C 0.00197(15) 0.1431(3) 0.8510(2)
C8_6 C 0.05906(17) 0.2263(5) 0.9278(3)
C9_6 C 0.00141(16) 0.0927(3) 0.8129(2)
C32_6 C 0.02273(14) 0.7798(3) 0.9022(2)
C37_6 C 0.02374(14) 0.8281(3) 0.8672(2)
H21_6 H 0.0421 0.8409 0.8548
C38_6 C 0.05112(15) 0.7513(3) 0.9221(2)
C41_6 C 0.16920(12) 0.4996(3) 0.8517(2)
C42_6 C 0.16069(13) 0.4367(3) 0.8701(2)
H22_6 H 0.1691 0.3972 0.8584
C43_6 C 0.13982(13) 0.4326(3) 0.9056(2)
C44_6 C 0.12728(14) 0.4909(3) 0.9223(2)
H23_6 H 0.1130 0.4887 0.9455
C45_6 C 0.13592(13) 0.5542(3) 0.9043(2)
C46_6 C 0.15716(13) 0.5578(3) 0.8693(2)
H24_6 H 0.1631 0.5997 0.8578
C47_6 C 0.19186(13) 0.5029(3) 0.8137(2)
C48_6 C 0.13091(15) 0.3658(3) 0.9260(2)
C49_6 C 0.12196(14) 0.6177(3) 0.9251(2)
C50_6 C 0.33360(13) 0.4599(3) 0.5991(2)
C51_6 C 0.31068(13) 0.4513(3) 0.6307(2)
H25_6 H 0.3040 0.4078 0.6376
C52_6 C 0.29765(14) 0.5064(3) 0.6520(2)
C53_6 C 0.30893(15) 0.5708(3) 0.6424(2)
H26_6 H 0.3008 0.6080 0.6575
C54_6 C 0.33143(15) 0.5806(3) 0.6116(3)
C55_6 C 0.34357(14) 0.5256(3) 0.5888(2)
H27_6 H 0.3584 0.5321 0.5666
C56_6 C 0.34885(13) 0.4011(3) 0.5762(2)
C57_6 C 0.27368(13) 0.4978(3) 0.6871(2)
C58_6 C 0.3447(2) 0.6505(4) 0.6033(4)
C59_6 C 0.21441(15) 0.2819(3) 0.7440(3)
C60_6 C 0.2112(2) 0.2730(5) 0.6910(3)
H28_6 H 0.2225 0.3075 0.6755
H29_6 H 0.2185 0.2292 0.6822
H30_6 H 0.1904 0.2769 0.6826
C61_6 C 0.1835(2) 0.1788(4) 0.7560(4)
H31_6 H 0.1827 0.1779 0.7229
H32_6 H 0.1932 0.1385 0.7670
H33_6 H 0.1634 0.1809 0.7680
C62_6 C 0.2048(3) 0.2493(6) 0.8229(4)
H34_6 H 0.2162 0.2898 0.8286
H35_6 H 0.1856 0.2530 0.8374
H36_6 H 0.2153 0.2110 0.8353
N2_6 N 0.20080(15) 0.2401(3) 0.7716(3)
O25_6 O 0.07594(11) 0.7767(2) 0.90709(18)
O31_6 O 0.20131(9) 0.4474(2) 0.79738(15)
O32_4 O 0.14564(14) 0.3155(2) 0.9145(2)
O35_6 O 0.13294(10) 0.6739(2) 0.91252(17)
O38_6 O 0.26402(9) 0.4389(2) 0.69546(15)
O41_6 O 0.23120(10) 0.3273(2) 0.75790(16)
O42_6 O 0.3439(3) 0.6926(5) 0.6374(4)
H37_5 H 0.973302 0.410771 0.0089188
H38_5 H 0.945083 0.458618 0.0223914
C1_6 C 0.97727(14) 0.2202(3) 0.9022(2)
C6_6 C 0.97626(14) 0.1719(3) 0.8672(2)
H3_6 H 0.9579 0.1591 0.8548
C7_6 C 0.94888(15) 0.2487(3) 0.9221(2)
C10_6 C 0.83080(12) 0.5004(3) 0.8517(2)
C11_6 C 0.83931(13) 0.5633(3) 0.8701(2)
H4_6 H 0.8309 0.6028 0.8584
C12_6 C 0.86018(13) 0.5674(3) 0.9056(2)
C13_6 C 0.87272(14) 0.5091(3) 0.9223(2)
H5_6 H 0.8870 0.5113 0.9455
C14_6 C 0.86408(13) 0.4458(3) 0.9043(2)
C15_6 C 0.84284(13) 0.4422(3) 0.8693(2)
H6_6 H 0.8369 0.4003 0.8578
C16_6 C 0.80814(13) 0.4971(3) 0.8137(2)
C17_6 C 0.86909(15) 0.6342(3) 0.9260(2)
C18_6 C 0.87804(14) 0.3823(3) 0.9251(2)
C19_6 C 0.66640(13) 0.5401(3) 0.5991(2)
C20_6 C 0.68932(13) 0.5487(3) 0.6307(2)
H7_6 H 0.6960 0.5922 0.6376
C21_6 C 0.70235(14) 0.4936(3) 0.6520(2)
C22_6 C 0.69107(15) 0.4292(3) 0.6424(2)
H8_6 H 0.6992 0.3920 0.6575
C23_6 C 0.66857(15) 0.4194(3) 0.6116(3)
C24_6 C 0.65643(14) 0.4744(3) 0.5888(2)
H9_6 H 0.6416 0.4679 0.5666
C25_6 C 0.65115(13) 0.5989(3) 0.5762(2)
C26_6 C 0.72632(13) 0.5022(3) 0.6871(2)
C27_6 C 0.6553(2) 0.3495(4) 0.6033(4)
C28_6 C 0.78559(15) 0.7181(3) 0.7440(3)
C29_6 C 0.7888(2) 0.7270(5) 0.6910(3)
H10_6 H 0.7775 0.6925 0.6755
H11_6 H 0.7815 0.7708 0.6822
H12_6 H 0.8096 0.7231 0.6826
C30_6 C 0.8165(2) 0.8212(4) 0.7560(4)
H13_6 H 0.8173 0.8221 0.7229
H14_6 H 0.8068 0.8615 0.7670
H15_6 H 0.8366 0.8191 0.7680
C31_6 C 0.7952(3) 0.7507(6) 0.8229(4)
H16_6 H 0.7838 0.7102 0.8286
H17_6 H 0.8144 0.7470 0.8374
H18_6 H 0.7847 0.7890 0.8353
N1_6 N 0.79920(15) 0.7599(3) 0.7716(3)
O1_6 O 0.92406(11) 0.2233(2) 0.90709(18)
O9_6 O 0.79869(9) 0.5526(2) 0.79738(15)
O10_4 O 0.85436(14) 0.6845(2) 0.9145(2)
O13_6 O 0.86706(10) 0.3261(2) 0.91252(17)
O16_6 O 0.73598(9) 0.5611(2) 0.69546(15)
O19_6 O 0.76880(10) 0.6727(2) 0.75790(16)
O23_6 O 0.6561(3) 0.3074(5) 0.6374(4)
O51_7 O 0.64564(14) 0.8155(2) 0.4145(2)
C33_6 C 0.99541(14) 0.7611(3) 0.9210(2)
H19_6 H 0.9947 0.7287 0.9442
C34_6 C 0.96902(15) 0.7905(4) 0.9053(2)
C35_6 C 0.97093(16) 0.8368(4) 0.8691(2)
H20_6 H 0.9534 0.8546 0.8569
C36_6 C 0.99803(15) 0.8569(3) 0.8510(2)
C39_6 C 0.94094(17) 0.7737(5) 0.9278(3)
C40_6 C 0.99859(16) 0.9073(3) 0.8129(2)
H41_7 H 0.914723 0.9892 0.781416
H42_7 H 0.914723 0.965378 0.727934
H41_8 H 0.0852774 0.0107996 0.781416
H42_8 H 0.0852774 0.034622 0.727934
H37_6 H 0.0266983 0.589229 0.0089188
H38_6 H 0.0549169 0.541382 0.0223914
O51_8 O 0.35436(14) 0.1845(2) 0.4145(2)
C41_7 C 0.66920(12) 0.0004(3) 0.1483(2)
C42_7 C 0.66069(13) 0.0633(3) 0.1299(2)
H22_7 H 0.6691 0.1028 0.1416
C43_7 C 0.63982(13) 0.0674(3) 0.0944(2)
C44_7 C 0.62728(14) 0.0091(3) 0.0777(2)
H23_7 H 0.6130 0.0113 0.0545
C48_7 C 0.63091(15) 0.1342(3) 0.0740(2)
C50_7 C 0.83360(13) 0.0401(3) 0.4009(2)
C51_7 C 0.81068(13) 0.0487(3) 0.3693(2)
H25_7 H 0.8040 0.0922 0.3624
C56_7 C 0.84885(13) 0.0989(3) 0.4238(2)
C57_7 C 0.77368(13) 0.0022(3) 0.3129(2)
C59_7 C 0.71441(15) 0.2181(3) 0.2560(3)
C60_7 C 0.7112(2) 0.2270(5) 0.3090(3)
H28_7 H 0.7225 0.1925 0.3245
H29_7 H 0.7185 0.2708 0.3178
H30_7 H 0.6904 0.2231 0.3174
C61_7 C 0.6835(2) 0.3212(4) 0.2440(4)
H31_7 H 0.6827 0.3221 0.2771
H32_7 H 0.6932 0.3615 0.2330
H33_7 H 0.6634 0.3191 0.2320
C62_7 C 0.7048(3) 0.2507(6) 0.1771(4)
H34_7 H 0.7162 0.2102 0.1714
H35_7 H 0.6856 0.2470 0.1626
H36_7 H 0.7153 0.2890 0.1647
N2_7 N 0.70080(15) 0.2599(3) 0.2284(3)
O31_7 O 0.70131(9) 0.0526(2) 0.20262(15)
O38_7 O 0.76402(9) 0.0611(2) 0.30454(15)
O41_7 O 0.73120(10) 0.1727(2) 0.24210(16)
Zn8_4 Zn 0.732459(13) 0.07504(3) 0.25311(2)
O50_4 O 0.70067(9) 0.0601(2) 0.30067(15)
O59_4 O 0.76453(9) 0.0517(2) 0.20659(16)
C1_7 C 0.47727(14) 0.2798(3) 0.0978(2)
C2_7 C 0.50459(14) 0.2611(3) 0.0790(2)
H1_7 H 0.5053 0.2287 0.0558
C3_7 C 0.53098(15) 0.2905(4) 0.0947(2)
C4_7 C 0.52907(16) 0.3368(4) 0.1309(2)
H2_7 H 0.5466 0.3546 0.1431
C5_7 C 0.50197(15) 0.3569(3) 0.1490(2)
C6_7 C 0.47626(14) 0.3281(3) 0.1328(2)
H3_7 H 0.4579 0.3409 0.1452
C7_7 C 0.44888(15) 0.2513(3) 0.0779(2)
C8_7 C 0.55906(17) 0.2737(5) 0.0722(3)
C9_7 C 0.50141(16) 0.4073(3) 0.1871(2)
C14_7 C 0.36408(13) 0.0542(3) 0.0957(2)
C15_7 C 0.34284(13) 0.0578(3) 0.1307(2)
H6_7 H 0.3369 0.0997 0.1422
C16_7 C 0.30814(13) 0.0029(3) 0.1863(2)
C18_7 C 0.37804(14) 0.1177(3) 0.0749(2)
C21_7 C 0.20235(14) 0.0064(3) 0.3480(2)
C22_7 C 0.19107(15) 0.0708(3) 0.3576(2)
H8_7 H 0.1992 0.1080 0.3425
C23_7 C 0.16857(15) 0.0806(3) 0.3884(3)
C24_7 C 0.15643(14) 0.0256(3) 0.4112(2)
H9_7 H 0.1416 0.0321 0.4334
C27_7 C 0.1553(2) 0.1505(4) 0.3967(4)
O1_7 O 0.42406(11) 0.2767(2) 0.09291(18)
O5_4 O 0.47615(11) 0.4250(2) 0.20220(16)
O7_4 O 0.52563(12) 0.4306(2) 0.20060(16)
O8_4 O 0.29933(9) 0.0601(2) 0.19933(15)
O13_7 O 0.36706(10) 0.1739(2) 0.08748(17)
O17_4 O 0.23547(9) 0.0517(2) 0.29341(16)
O22_11 O 0.42214(19) 0.5000 0.2500
Zn6_6 Zn 0.46707(2) 0.5000 0.2500
O23_7 O 0.1561(3) 0.1926(5) 0.3626(4)
C32_7 C 0.52273(14) 0.7202(3) 0.0978(2)
C33_7 C 0.49541(14) 0.7389(3) 0.0790(2)
H19_7 H 0.4947 0.7713 0.0558
C34_7 C 0.46902(15) 0.7095(4) 0.0947(2)
C35_7 C 0.47093(16) 0.6632(4) 0.1309(2)
H20_7 H 0.4534 0.6454 0.1431
C36_7 C 0.49803(15) 0.6431(3) 0.1490(2)
C37_7 C 0.52374(14) 0.6719(3) 0.1328(2)
H21_7 H 0.5421 0.6591 0.1452
C38_7 C 0.55112(15) 0.7487(3) 0.0779(2)
C39_7 C 0.44094(17) 0.7263(5) 0.0722(3)
C40_7 C 0.49859(16) 0.5927(3) 0.1871(2)
C45_7 C 0.63592(13) 0.9458(3) 0.0957(2)
C46_7 C 0.65716(13) 0.9422(3) 0.1307(2)
H24_7 H 0.6631 0.9003 0.1422
C47_7 C 0.69186(13) 0.9971(3) 0.1863(2)
C49_7 C 0.62196(14) 0.8823(3) 0.0749(2)
C52_7 C 0.79765(14) 0.9936(3) 0.3480(2)
C53_7 C 0.80893(15) 0.9292(3) 0.3576(2)
H26_7 H 0.8008 0.8920 0.3425
C54_7 C 0.83143(15) 0.9194(3) 0.3884(3)
C55_7 C 0.84357(14) 0.9744(3) 0.4112(2)
H27_7 H 0.8584 0.9679 0.4334
C58_7 C 0.8447(2) 0.8495(4) 0.3967(4)
O25_7 O 0.57594(11) 0.7233(2) 0.09291(18)
O28_4 O 0.52385(11) 0.5750(2) 0.20220(16)
O29_4 O 0.47437(12) 0.5694(2) 0.20060(16)
O30_4 O 0.70067(9) 0.9399(2) 0.19933(15)
O35_7 O 0.63294(10) 0.8261(2) 0.08748(17)
O39_4 O 0.76453(9) 0.9483(2) 0.29341(16)
O42_7 O 0.8439(3) 0.8074(5) 0.3626(4)
O47_7 O 0.47615(11) 0.5750(2) 0.29780(16)
O48_7 O 0.47437(12) 0.4306(2) 0.29940(16)
Zn11_4 Zn 0.267541(13) 0.07504(3) 0.24689(2)
Zn12_4 Zn 0.732459(13) 0.92496(3) 0.24689(2)
Zn24_6 Zn 0.53293(2) 0.5000 0.2500
H37_7 H 0.473302 0.0892285 0.991081
H38_7 H 0.445083 0.0413819 0.977609
C10_7 C 0.33080(12) 0.9996(3) 0.1483(2)
C11_7 C 0.33931(13) 0.9367(3) 0.1299(2)
H4_7 H 0.3309 0.8972 0.1416
C12_7 C 0.36018(13) 0.9326(3) 0.0944(2)
C13_7 C 0.37272(14) 0.9909(3) 0.0777(2)
H5_7 H 0.3870 0.9887 0.0545
C17_7 C 0.36909(15) 0.8658(3) 0.0740(2)
C19_7 C 0.16640(13) 0.9599(3) 0.4009(2)
C20_7 C 0.18932(13) 0.9513(3) 0.3693(2)
H7_7 H 0.1960 0.9078 0.3624
C25_7 C 0.15115(13) 0.9011(3) 0.4238(2)
C26_7 C 0.22632(13) 0.9978(3) 0.3129(2)
C28_7 C 0.28559(15) 0.7819(3) 0.2560(3)
C29_7 C 0.2888(2) 0.7730(5) 0.3090(3)
H10_7 H 0.2775 0.8075 0.3245
H11_7 H 0.2815 0.7292 0.3178
H12_7 H 0.3096 0.7769 0.3174
C30_7 C 0.3165(2) 0.6788(4) 0.2440(4)
H13_7 H 0.3173 0.6779 0.2771
H14_7 H 0.3068 0.6385 0.2330
H15_7 H 0.3366 0.6809 0.2320
C31_7 C 0.2952(3) 0.7493(6) 0.1771(4)
H16_7 H 0.2838 0.7898 0.1714
H17_7 H 0.3144 0.7530 0.1626
H18_7 H 0.2847 0.7110 0.1647
N1_7 N 0.29920(15) 0.7401(3) 0.2284(3)
O9_7 O 0.29869(9) 0.9474(2) 0.20262(15)
O16_7 O 0.23598(9) 0.9389(2) 0.30454(15)
O19_7 O 0.26880(10) 0.8273(2) 0.24210(16)
Zn1_4 Zn 0.267541(13) 0.92496(3) 0.25311(2)
O49_4 O 0.29933(9) 0.9399(2) 0.30067(15)
O58_4 O 0.23547(9) 0.9483(2) 0.20659(16)
O22_12 O 0.57786(19) 0.5000 0.2500
O47_8 O 0.52385(11) 0.4250(2) 0.29780(16)
O48_8 O 0.52563(12) 0.5694(2) 0.29940(16)
H37_8 H 0.526698 0.910771 0.991081
H38_8 H 0.554917 0.958618 0.977609
C10_8 C 0.33080(12) 0.0004(3) 0.3517(2)
C11_8 C 0.33931(13) 0.0633(3) 0.3701(2)
H4_8 H 0.3309 0.1028 0.3584
C12_8 C 0.36018(13) 0.0674(3) 0.4056(2)
C13_8 C 0.37272(14) 0.0091(3) 0.4223(2)
H5_8 H 0.3870 0.0113 0.4455
C17_8 C 0.36909(15) 0.1342(3) 0.4260(2)
C19_8 C 0.16640(13) 0.0401(3) 0.0991(2)
C20_8 C 0.18932(13) 0.0487(3) 0.1307(2)
H7_8 H 0.1960 0.0922 0.1376
C25_8 C 0.15115(13) 0.0989(3) 0.0762(2)
C26_8 C 0.22632(13) 0.0022(3) 0.1871(2)
C28_8 C 0.28559(15) 0.2181(3) 0.2440(3)
C29_8 C 0.2888(2) 0.2270(5) 0.1910(3)
H10_8 H 0.2775 0.1925 0.1755
H11_8 H 0.2815 0.2708 0.1822
H12_8 H 0.3096 0.2231 0.1826
C30_8 C 0.3165(2) 0.3212(4) 0.2560(4)
H13_8 H 0.3173 0.3221 0.2229
H14_8 H 0.3068 0.3615 0.2670
H15_8 H 0.3366 0.3191 0.2680
C31_8 C 0.2952(3) 0.2507(6) 0.3229(4)
H16_8 H 0.2838 0.2102 0.3286
H17_8 H 0.3144 0.2470 0.3374
H18_8 H 0.2847 0.2890 0.3353
N1_8 N 0.29920(15) 0.2599(3) 0.2716(3)
O9_8 O 0.29869(9) 0.0526(2) 0.29738(15)
O16_8 O 0.23598(9) 0.0611(2) 0.19546(15)
O19_8 O 0.26880(10) 0.1727(2) 0.25790(16)
H39_7 H 0.075009 0.0369471 0.991456
H40_7 H 0.0554253 0.102996 0.97733
C1_8 C 0.47727(14) 0.7202(3) 0.4022(2)
C2_8 C 0.50459(14) 0.7389(3) 0.4210(2)
H1_8 H 0.5053 0.7713 0.4442
C3_8 C 0.53098(15) 0.7095(4) 0.4053(2)
C4_8 C 0.52907(16) 0.6632(4) 0.3691(2)
H2_8 H 0.5466 0.6454 0.3569
C5_8 C 0.50197(15) 0.6431(3) 0.3510(2)
C6_8 C 0.47626(14) 0.6719(3) 0.3672(2)
H3_8 H 0.4579 0.6591 0.3548
C7_8 C 0.44888(15) 0.7487(3) 0.4221(2)
C8_8 C 0.55906(17) 0.7263(5) 0.4278(3)
C9_8 C 0.50141(16) 0.5927(3) 0.3129(2)
C14_8 C 0.36408(13) 0.9458(3) 0.4043(2)
C15_8 C 0.34284(13) 0.9422(3) 0.3693(2)
H6_8 H 0.3369 0.9003 0.3578
C16_8 C 0.30814(13) 0.9971(3) 0.3137(2)
C18_8 C 0.37804(14) 0.8823(3) 0.4251(2)
C21_8 C 0.20235(14) 0.9936(3) 0.1520(2)
C22_8 C 0.19107(15) 0.9292(3) 0.1424(2)
H8_8 H 0.1992 0.8920 0.1575
C23_8 C 0.16857(15) 0.9194(3) 0.1116(3)
C24_8 C 0.15643(14) 0.9744(3) 0.0888(2)
H9_8 H 0.1416 0.9679 0.0666
C27_8 C 0.1553(2) 0.8495(4) 0.1033(4)
O1_8 O 0.42406(11) 0.7233(2) 0.40709(18)
O13_8 O 0.36706(10) 0.8261(2) 0.41252(17)
O23_8 O 0.1561(3) 0.8074(5) 0.1374(4)
C32_8 C 0.52273(14) 0.2798(3) 0.4022(2)
C33_8 C 0.49541(14) 0.2611(3) 0.4210(2)
H19_8 H 0.4947 0.2287 0.4442
C34_8 C 0.46902(15) 0.2905(4) 0.4053(2)
C35_8 C 0.47093(16) 0.3368(4) 0.3691(2)
H20_8 H 0.4534 0.3546 0.3569
C36_8 C 0.49803(15) 0.3569(3) 0.3510(2)
C37_8 C 0.52374(14) 0.3281(3) 0.3672(2)
H21_8 H 0.5421 0.3409 0.3548
C38_8 C 0.55112(15) 0.2513(3) 0.4221(2)
C39_8 C 0.44094(17) 0.2737(5) 0.4278(3)
C40_8 C 0.49859(16) 0.4073(3) 0.3129(2)
C45_8 C 0.63592(13) 0.0542(3) 0.4043(2)
C46_8 C 0.65716(13) 0.0578(3) 0.3693(2)
H24_8 H 0.6631 0.0997 0.3578
C47_8 C 0.69186(13) 0.0029(3) 0.3137(2)
C49_8 C 0.62196(14) 0.1177(3) 0.4251(2)
C52_8 C 0.79765(14) 0.0064(3) 0.1520(2)
C53_8 C 0.80893(15) 0.0708(3) 0.1424(2)
H26_8 H 0.8008 0.1080 0.1575
C54_8 C 0.83143(15) 0.0806(3) 0.1116(3)
C55_8 C 0.84357(14) 0.0256(3) 0.0888(2)
H27_8 H 0.8584 0.0321 0.0666
C58_8 C 0.8447(2) 0.1505(4) 0.1033(4)
O25_8 O 0.57594(11) 0.2767(2) 0.40709(18)
O35_8 O 0.63294(10) 0.1739(2) 0.41252(17)
O42_8 O 0.8439(3) 0.1926(5) 0.1374(4)
C41_8 C 0.66920(12) 0.9996(3) 0.3517(2)
C42_8 C 0.66069(13) 0.9367(3) 0.3701(2)
H22_8 H 0.6691 0.8972 0.3584
C43_8 C 0.63982(13) 0.9326(3) 0.4056(2)
C44_8 C 0.62728(14) 0.9909(3) 0.4223(2)
H23_8 H 0.6130 0.9887 0.4455
C48_8 C 0.63091(15) 0.8658(3) 0.4260(2)
C50_8 C 0.83360(13) 0.9599(3) 0.0991(2)
C51_8 C 0.81068(13) 0.9513(3) 0.1307(2)
H25_8 H 0.8040 0.9078 0.1376
C56_8 C 0.84885(13) 0.9011(3) 0.0762(2)
C57_8 C 0.77368(13) 0.9978(3) 0.1871(2)
C59_8 C 0.71441(15) 0.7819(3) 0.2440(3)
C60_8 C 0.7112(2) 0.7730(5) 0.1910(3)
H28_8 H 0.7225 0.8075 0.1755
H29_8 H 0.7185 0.7292 0.1822
H30_8 H 0.6904 0.7769 0.1826
C61_8 C 0.6835(2) 0.6788(4) 0.2560(4)
H31_8 H 0.6827 0.6779 0.2229
H32_8 H 0.6932 0.6385 0.2670
H33_8 H 0.6634 0.6809 0.2680
C62_8 C 0.7048(3) 0.7493(6) 0.3229(4)
H34_8 H 0.7162 0.7898 0.3286
H35_8 H 0.6856 0.7530 0.3374
H36_8 H 0.7153 0.7110 0.3353
N2_8 N 0.70080(15) 0.7401(3) 0.2716(3)
O31_8 O 0.70131(9) 0.9474(2) 0.29738(15)
O38_8 O 0.76402(9) 0.9389(2) 0.19546(15)
O41_8 O 0.73120(10) 0.8273(2) 0.25790(16)
H39_8 H 0.924991 0.963053 0.991456
H40_8 H 0.944575 0.897004 0.97733
loop_
_geom_bond_atom_site_label_1
_geom_bond_atom_site_label_2
_geom_bond_site_symmetry_1
_geom_bond_site_symmetry_2
C6 C1 1_555 1_555
H3 C6 1_555 1_555
C7 C1 1_555 1_555
C10 C11 1_555 1_555
C11 H4 1_555 1_555
C12 C11 1_555 1_555
C13 C12 1_555 1_555
H5 C13 1_555 1_555
C14 C13 1_555 1_555
C15 C10 1_555 1_555
H6 C15 1_555 1_555
C16 C10 1_555 1_555
C17 C12 1_555 1_555
C18 C14 1_555 1_555
C19 C20 1_555 1_555
C20 H7 1_555 1_555
C21 C20 1_555 1_555
C22 C21 1_555 1_555
H8 C22 1_555 1_555
C23 C22 1_555 1_555
C24 C19 1_555 1_555
H9 C24 1_555 1_555
C25 C19 1_555 1_555
C26 C21 1_555 1_555
C27 C23 1_555 1_555
C28 C29 1_555 1_555
C29 H10 1_555 1_555
H11 C29 1_555 1_555
H12 C29 1_555 1_555
C30 H13 1_555 1_555
H14 C30 1_555 1_555
H15 C30 1_555 1_555
C31 H16 1_555 1_555
H17 C31 1_555 1_555
H18 C31 1_555 1_555
N1 C28 1_555 1_555
O1 C7 1_555 1_555
O2 C7 1_555 1_555
O4 Zn2 1_555 1_555
O6 Zn3 1_555 1_555
O8 C16 1_555 1_555
O9 C16 1_555 1_555
O10 C17 1_555 1_555
O11 C17 1_555 1_555
O12 C18 1_555 1_555
O13 C18 1_555 1_555
O14 C25 1_555 1_555
O15 C25 1_555 1_555
O16 C26 1_555 1_555
O17 C26 1_555 1_555
O18 C27 1_555 1_555
O19 C28 1_555 1_555
O20 Zn2 1_555 1_555
O21 Zn3 1_555 1_555
Zn1 O9 1_555 1_555
Zn2 O2 1_555 1_555
Zn3 O14 1_555 1_555
O22 Zn6 1_555 1_555
Zn4 O1 1_555 1_555
Zn5 O21 1_555 1_555
Zn6 O5 1_555 1_555
O23 C27 1_555 1_555
Zn10 O10 1_555 1_555
O44 Zn2 1_555 1_555
O46 Zn5 1_555 1_555
O48 Zn6 1_555 1_555
O49 Zn1 1_555 1_555
O53 Zn5 1_555 1_555
O54 Zn2 1_555 1_555
O57 Zn10 1_555 1_555
O58 Zn1 1_555 1_555
O60 Zn4 1_555 1_555
O63 Zn10 1_555 1_555
Zn11 O8 1_555 1_555
Zn17 O20 1_555 1_555
Zn18 O18 1_555 1_555
Zn23 O11 1_555 1_555
O64 Zn10 1_555 1_555
O66 Zn3 1_555 1_555
Zn29 O15 1_555 1_555
C14 C15 1_555 1_555
C23 C24 1_555 1_555
C30 N1 1_555 1_555
C31 N1 1_555 1_555
O12 Zn2 1_555 1_555
O13 Zn4 1_555 1_555
O16 Zn1 1_555 1_555
O17 Zn11 1_555 1_555
O19 Zn1 1_555 1_555
O20 Zn4 1_555 1_555
O21 Zn29 1_555 1_555
O63 Zn23 1_555 1_555
O66 Zn29 1_555 1_555
O6_2 Zn3_2 1_555 1_555
O21_2 Zn3_2 1_555 1_555
Zn5_2 O21_2 1_555 1_555
Zn7 O21_2 1_555 1_555
O45 Zn5_2 1_555 1_555
O51 Zn7 1_555 1_555
O52 Zn5_2 1_555 1_555
O55 Zn3_2 1_555 1_555
O56 Zn7 1_555 1_555
O65 Zn3_2 1_555 1_555
Zn7 O65 1_555 1_555
O6_2 H39 1_555 1_555
O6_2 H40 1_555 1_555
O22_2 Zn6_2 1_555 1_555
C33 H19 1_555 1_555
C34 C33 1_555 1_555
C35 C34 1_555 1_555
H20 C35 1_555 1_555
C36 C35 1_555 1_555
C39 C34 1_555 1_555
C40 C36 1_555 1_555
O27 C39 1_555 1_555
O29 Zn6_2 1_555 1_555
O64 C39 1_555 1_555
O47 Zn6_2 1_555 1_555
Zn16 O64 1_555 1_555
Zn23 O27 1_555 1_555
C40 O29 1_555 1_555
O22_2 H41 1_555 1_555
O22_2 H42 1_555 1_555
C2 H1 1_555 1_555
C3 C2 1_555 1_555
C4 C3 1_555 1_555
H2 C4 1_555 1_555
C5 C4 1_555 1_555
C8 C3 1_555 1_555
C9 C5 1_555 1_555
O3 C8 1_555 1_555
O7 C9 1_555 1_555
O24 C8 1_555 1_555
Zn15 O24 1_555 1_555
Zn21 O3 1_555 1_555
Zn24 O7 1_555 1_555
Zn26 O24 1_555 1_555
C37 C32 1_555 1_555
H21 C37 1_555 1_555
C38 C32 1_555 1_555
C41 C42 1_555 1_555
C42 H22 1_555 1_555
C43 C42 1_555 1_555
C44 C43 1_555 1_555
H23 C44 1_555 1_555
C45 C44 1_555 1_555
C46 C41 1_555 1_555
H24 C46 1_555 1_555
C47 C41 1_555 1_555
C48 C43 1_555 1_555
C49 C45 1_555 1_555
C50 C51 1_555 1_555
C51 H25 1_555 1_555
C52 C51 1_555 1_555
C53 C52 1_555 1_555
H26 C53 1_555 1_555
C54 C53 1_555 1_555
C55 C50 1_555 1_555
H27 C55 1_555 1_555
C56 C50 1_555 1_555
C57 C52 1_555 1_555
C58 C54 1_555 1_555
C59 C60 1_555 1_555
C60 H28 1_555 1_555
H29 C60 1_555 1_555
H30 C60 1_555 1_555
C61 H31 1_555 1_555
H32 C61 1_555 1_555
H33 C61 1_555 1_555
C62 H34 1_555 1_555
H35 C62 1_555 1_555
H36 C62 1_555 1_555
N2 C59 1_555 1_555
O25 C38 1_555 1_555
O26 C38 1_555 1_555
O30 C47 1_555 1_555
O31 C47 1_555 1_555
O32 C48 1_555 1_555
O33 C48 1_555 1_555
O34 C49 1_555 1_555
O35 C49 1_555 1_555
O36 C56 1_555 1_555
O37 C56 1_555 1_555
O38 C57 1_555 1_555
O39 C57 1_555 1_555
O40 C58 1_555 1_555
O41 C59 1_555 1_555
Zn8 O31 1_555 1_555
Zn9 O25 1_555 1_555
O42 C58 1_555 1_555
O50 Zn8 1_555 1_555
O59 Zn8 1_555 1_555
O61 Zn9 1_555 1_555
O62 Zn9 1_555 1_555
Zn12 O30 1_555 1_555
Zn13 O26 1_555 1_555
Zn14 O36 1_555 1_555
Zn19 O40 1_555 1_555
Zn21 O33 1_555 1_555
Zn26 O32 1_555 1_555
Zn28 O37 1_555 1_555
C45 C46 1_555 1_555
C54 C55 1_555 1_555
C61 N2 1_555 1_555
C62 N2 1_555 1_555
O28 Zn24_2 1_555 1_555
O34 Zn13 1_555 1_555
O35 Zn9 1_555 1_555
O38 Zn8 1_555 1_555
O39 Zn12 1_555 1_555
O41 Zn8 1_555 1_555
O62 Zn13 1_555 1_555
O22_3 Zn24 1_555 1_555
O47_2 Zn24 1_555 1_555
O22_3 H41_2 1_555 1_555
O22_3 H42_2 1_555 1_555
O4_2 Zn13 1_555 1_555
O6_3 Zn14 1_555 1_555
O21_3 Zn14 1_555 1_555
O22_4 Zn24_2 1_555 1_555
Zn5_3 O21_3 1_555 1_555
O44_2 Zn13 1_555 1_555
O46_2 Zn5_3 1_555 1_555
O48_2 Zn24_2 1_555 1_555
O53_2 Zn5_3 1_555 1_555
O54_2 Zn13 1_555 1_555
O57_2 Zn26 1_555 1_555
O63_2 Zn26 1_555 1_555
Zn17_2 O62 1_555 1_555
O66_2 Zn14 1_555 1_555
O21_3 Zn28 1_555 1_555
O63_2 Zn21 1_555 1_555
O66_2 Zn28 1_555 1_555
O6_4 Zn14_2 1_555 1_555
O21_4 Zn14_2 1_555 1_555
Zn5_4 O21_4 1_555 1_555
Zn7_2 O21_4 1_555 1_555
O45_2 Zn5_4 1_555 1_555
O51_2 Zn7_2 1_555 1_555
O52_2 Zn5_4 1_555 1_555
O55_2 Zn14_2 1_555 1_555
O56_2 Zn7_2 1_555 1_555
O65_2 Zn14_2 1_555 1_555
Zn7_2 O65_2 1_555 1_555
O6_4 H39_2 1_555 1_555
O6_4 H40_2 1_555 1_555
C33_2 H19_2 1_555 1_555
C34_2 C33_2 1_555 1_555
C35_2 C34_2 1_555 1_555
H20_2 C35_2 1_555 1_555
C36_2 C35_2 1_555 1_555
C39_2 C34_2 1_555 1_555
C40_2 C36_2 1_555 1_555
O27_2 C39_2 1_555 1_555
O43 C39_2 1_555 1_555
Zn16_2 O43 1_555 1_555
Zn22 O27_2 1_555 1_555
Zn27 O43 1_555 1_555
C40_2 O48 1_555 1_555
O22 H41_3 1_555 1_555
O22 H42_3 1_555 1_555
C6_2 C1_2 1_555 1_555
H3_2 C6_2 1_555 1_555
C7_2 C1_2 1_555 1_555
C10_2 C11_2 1_555 1_555
C11_2 H4_2 1_555 1_555
C12_2 C11_2 1_555 1_555
C13_2 C12_2 1_555 1_555
H5_2 C13_2 1_555 1_555
C14_2 C13_2 1_555 1_555
C15_2 C10_2 1_555 1_555
H6_2 C15_2 1_555 1_555
C16_2 C10_2 1_555 1_555
C17_2 C12_2 1_555 1_555
C18_2 C14_2 1_555 1_555
C19_2 C20_2 1_555 1_555
C20_2 H7_2 1_555 1_555
C21_2 C20_2 1_555 1_555
C22_2 C21_2 1_555 1_555
H8_2 C22_2 1_555 1_555
C23_2 C22_2 1_555 1_555
C24_2 C19_2 1_555 1_555
H9_2 C24_2 1_555 1_555
C25_2 C19_2 1_555 1_555
C26_2 C21_2 1_555 1_555
C27_2 C23_2 1_555 1_555
C28_2 C29_2 1_555 1_555
C29_2 H10_2 1_555 1_555
H11_2 C29_2 1_555 1_555
H12_2 C29_2 1_555 1_555
C30_2 H13_2 1_555 1_555
H14_2 C30_2 1_555 1_555
H15_2 C30_2 1_555 1_555
C31_2 H16_2 1_555 1_555
H17_2 C31_2 1_555 1_555
H18_2 C31_2 1_555 1_555
N1_2 C28_2 1_555 1_555
O1_2 C7_2 1_555 1_555
O2_2 C7_2 1_555 1_555
O4_3 Zn2_2 1_555 1_555
O6_5 Zn3_3 1_555 1_555
O49 C16_2 1_555 1_555
O9_2 C16_2 1_555 1_555
O10_2 C17_2 1_555 1_555
O11_2 C17_2 1_555 1_555
O12_2 C18_2 1_555 1_555
O13_2 C18_2 1_555 1_555
O14_2 C25_2 1_555 1_555
O15_2 C25_2 1_555 1_555
O16_2 C26_2 1_555 1_555
O58 C26_2 1_555 1_555
O18_2 C27_2 1_555 1_555
O19_2 C28_2 1_555 1_555
O20_2 Zn2_2 1_555 1_555
O21_5 Zn3_3 1_555 1_555
Zn11 O9_2 1_555 1_555
Zn2_2 O2_2 1_555 1_555
Zn3_3 O14_2 1_555 1_555
Zn4_2 O1_2 1_555 1_555
Zn5_5 O21_5 1_555 1_555
O23_2 C27_2 1_555 1_555
Zn7_3 O21_5 1_555 1_555
Zn27 O10_2 1_555 1_555
O45_3 Zn5_5 1_555 1_555
O46_3 Zn5_5 1_555 1_555
O51_3 Zn7_3 1_555 1_555
O52_3 Zn5_5 1_555 1_555
O53_3 Zn5_5 1_555 1_555
O55_3 Zn3_3 1_555 1_555
O56_3 Zn7_3 1_555 1_555
O57_3 Zn27 1_555 1_555
O60_2 Zn4_2 1_555 1_555
O63_3 Zn27 1_555 1_555
Zn18_2 O18_2 1_555 1_555
Zn22 O11_2 1_555 1_555
O65_3 Zn3_3 1_555 1_555
O66_3 Zn3_3 1_555 1_555
Zn29_2 O15_2 1_555 1_555
C14_2 C15_2 1_555 1_555
C23_2 C24_2 1_555 1_555
C30_2 N1_2 1_555 1_555
C31_2 N1_2 1_555 1_555
O12_2 Zn2_2 1_555 1_555
O13_2 Zn4_2 1_555 1_555
O16_2 Zn11 1_555 1_555
O19_2 Zn11 1_555 1_555
O20_2 Zn4_2 1_555 1_555
O21_5 Zn29_2 1_555 1_555
Zn7_3 O65_3 1_555 1_555
O63_3 Zn22 1_555 1_555
O66_3 Zn29_2 1_555 1_555
O4_4 Zn2_3 1_555 1_555
O20_3 Zn2_3 1_555 1_555
O44_3 Zn2_3 1_555 1_555
O54_3 Zn2_3 1_555 1_555
Zn17_3 O20_3 1_555 1_555
O63_4 Zn22_2 1_555 1_555
O4_4 H37 1_555 1_555
O4_4 H38 1_555 1_555
C37_2 C32_2 1_555 1_555
H21_2 C37_2 1_555 1_555
C38_2 C32_2 1_555 1_555
C41_2 C42_2 1_555 1_555
C42_2 H22_2 1_555 1_555
C43_2 C42_2 1_555 1_555
C44_2 C43_2 1_555 1_555
H23_2 C44_2 1_555 1_555
C45_2 C44_2 1_555 1_555
C46_2 C41_2 1_555 1_555
H24_2 C46_2 1_555 1_555
C47_2 C41_2 1_555 1_555
C48_2 C43_2 1_555 1_555
C49_2 C45_2 1_555 1_555
C50_2 C51_2 1_555 1_555
C51_2 H25_2 1_555 1_555
C52_2 C51_2 1_555 1_555
C53_2 C52_2 1_555 1_555
H26_2 C53_2 1_555 1_555
C54_2 C53_2 1_555 1_555
C55_2 C50_2 1_555 1_555
H27_2 C55_2 1_555 1_555
C56_2 C50_2 1_555 1_555
C57_2 C52_2 1_555 1_555
C58_2 C54_2 1_555 1_555
C59_2 C60_2 1_555 1_555
C60_2 H28_2 1_555 1_555
H29_2 C60_2 1_555 1_555
H30_2 C60_2 1_555 1_555
C61_2 H31_2 1_555 1_555
H32_2 C61_2 1_555 1_555
H33_2 C61_2 1_555 1_555
C62_2 H34_2 1_555 1_555
H35_2 C62_2 1_555 1_555
H36_2 C62_2 1_555 1_555
N2_2 C59_2 1_555 1_555
O25_2 C38_2 1_555 1_555
O26_2 C38_2 1_555 1_555
O50 C47_2 1_555 1_555
O31_2 C47_2 1_555 1_555
O32_2 C48_2 1_555 1_555
O33_2 C48_2 1_555 1_555
O34_2 C49_2 1_555 1_555
O35_2 C49_2 1_555 1_555
O36_2 C56_2 1_555 1_555
O37_2 C56_2 1_555 1_555
O38_2 C57_2 1_555 1_555
O59 C57_2 1_555 1_555
O40_2 C58_2 1_555 1_555
O41_2 C59_2 1_555 1_555
Zn12 O31_2 1_555 1_555
Zn9_2 O25_2 1_555 1_555
O42_2 C58_2 1_555 1_555
O61_2 Zn9_2 1_555 1_555
O62_2 Zn9_2 1_555 1_555
Zn13_2 O26_2 1_555 1_555
Zn14_3 O36_2 1_555 1_555
Zn19_2 O40_2 1_555 1_555
Zn20 O33_2 1_555 1_555
Zn25 O32_2 1_555 1_555
Zn28_2 O37_2 1_555 1_555
C45_2 C46_2 1_555 1_555
C54_2 C55_2 1_555 1_555
C61_2 N2_2 1_555 1_555
C62_2 N2_2 1_555 1_555
O34_2 Zn13_2 1_555 1_555
O35_2 Zn9_2 1_555 1_555
O38_2 Zn12 1_555 1_555
O41_2 Zn12 1_555 1_555
O62_2 Zn13_2 1_555 1_555
O62_3 Zn13_3 1_555 1_555
C2_2 H1_2 1_555 1_555
C3_2 C2_2 1_555 1_555
C4_2 C3_2 1_555 1_555
H2_2 C4_2 1_555 1_555
C5_2 C4_2 1_555 1_555
C8_2 C3_2 1_555 1_555
C9_2 C5_2 1_555 1_555
O3_2 C8_2 1_555 1_555
O48_2 C9_2 1_555 1_555
O24_2 C8_2 1_555 1_555
Zn15_2 O24_2 1_555 1_555
Zn20 O3_2 1_555 1_555
Zn25 O24_2 1_555 1_555
O4_5 Zn13_2 1_555 1_555
O6_6 Zn14_3 1_555 1_555
O21_6 Zn14_3 1_555 1_555
Zn5_6 O21_6 1_555 1_555
Zn7_4 O21_6 1_555 1_555
O45_4 Zn5_6 1_555 1_555
O46_4 Zn5_6 1_555 1_555
O51_4 Zn7_4 1_555 1_555
O52_4 Zn5_6 1_555 1_555
O53_4 Zn5_6 1_555 1_555
O55_4 Zn14_3 1_555 1_555
O56_4 Zn7_4 1_555 1_555
O57_4 Zn25 1_555 1_555
O63_5 Zn25 1_555 1_555
O65_4 Zn14_3 1_555 1_555
O66_4 Zn14_3 1_555 1_555
O21_6 Zn28_2 1_555 1_555
Zn7_4 O65_4 1_555 1_555
O63_5 Zn20 1_555 1_555
O66_4 Zn28_2 1_555 1_555
O4_6 Zn13_3 1_555 1_555
O44_4 Zn13_3 1_555 1_555
O54_4 Zn13_3 1_555 1_555
Zn17_4 O62_3 1_555 1_555
O63_6 Zn20_2 1_555 1_555
O4_6 H37_2 1_555 1_555
O4_6 H38_2 1_555 1_555
O22_4 H41_4 1_555 1_555
O22_4 H42_4 1_555 1_555
C10_3 C11_3 1_555 1_555
C11_3 H4_3 1_555 1_555
C12_3 C11_3 1_555 1_555
C13_3 C12_3 1_555 1_555
H5_3 C13_3 1_555 1_555
C17_3 C12_3 1_555 1_555
C19_3 C20_3 1_555 1_555
C20_3 H7_3 1_555 1_555
C25_3 C19_3 1_555 1_555
C28_3 C29_3 1_555 1_555
C29_3 H10_3 1_555 1_555
H11_3 C29_3 1_555 1_555
H12_3 C29_3 1_555 1_555
C30_3 H13_3 1_555 1_555
H14_3 C30_3 1_555 1_555
H15_3 C30_3 1_555 1_555
C31_3 H16_3 1_555 1_555
H17_3 C31_3 1_555 1_555
H18_3 C31_3 1_555 1_555
N1_3 C28_3 1_555 1_555
O6_7 Zn15 1_555 1_555
O51_2 C17_3 1_555 1_555
O52_2 C17_3 1_555 1_555
O14_3 C25_3 1_555 1_555
O15_3 C25_3 1_555 1_555
O16_3 C26_3 1_555 1_555
O19_3 C28_3 1_555 1_555
O63_2 Zn15 1_555 1_555
Zn1_2 O9_3 1_555 1_555
Zn15 O14_3 1_555 1_555
O46_5 Zn21 1_555 1_555
O49_2 Zn1_2 1_555 1_555
O53_5 Zn21 1_555 1_555
O55_5 Zn15 1_555 1_555
O58_2 Zn1_2 1_555 1_555
O66_5 Zn15 1_555 1_555
Zn29_3 O15_3 1_555 1_555
C30_3 N1_3 1_555 1_555
C31_3 N1_3 1_555 1_555
O16_3 Zn1_2 1_555 1_555
O19_3 Zn1_2 1_555 1_555
O63_2 Zn29_3 1_555 1_555
O66_5 Zn29_3 1_555 1_555
O4_7 Zn2_4 1_555 1_555
O20_4 Zn2_4 1_555 1_555
O44_5 Zn2_4 1_555 1_555
O54_5 Zn2_4 1_555 1_555
Zn19 O20_4 1_555 1_555
O62_4 Zn13_4 1_555 1_555
O4_7 H37_3 1_555 1_555
O4_7 H38_3 1_555 1_555
C1_3 C2_3 1_555 1_555
C2_3 H1_3 1_555 1_555
C3_3 C2_3 1_555 1_555
C4_3 C3_3 1_555 1_555
H2_3 C4_3 1_555 1_555
C5_3 C4_3 1_555 1_555
C6_3 C1_3 1_555 1_555
H3_3 C6_3 1_555 1_555
C7_3 C1_3 1_555 1_555
C8_3 C3_3 1_555 1_555
C9_3 C5_3 1_555 1_555
H6_3 C15_3 1_555 1_555
C18_3 C14_3 1_555 1_555
C22_3 C21_3 1_555 1_555
H8_3 C22_3 1_555 1_555
C23_3 C22_3 1_555 1_555
H9_3 C24_3 1_555 1_555
C27_3 C23_3 1_555 1_555
O1_3 C7_3 1_555 1_555
O2_3 C7_3 1_555 1_555
O45 C8_3 1_555 1_555
O4_8 Zn2_5 1_555 1_555
O5_2 C9_3 1_555 1_555
O7_2 C9_3 1_555 1_555
O8_2 C16_3 1_555 1_555
O12_3 C18_3 1_555 1_555
O13_3 C18_3 1_555 1_555
O18_3 C27_3 1_555 1_555
O20_5 Zn2_5 1_555 1_555
Zn2_5 O2_3 1_555 1_555
O22_5 Zn6_3 1_555 1_555
Zn4_3 O1_3 1_555 1_555
Zn6_3 O5_2 1_555 1_555
O23_3 C27_3 1_555 1_555
O65 C8_3 1_555 1_555
C32_3 C33_3 1_555 1_555
C33_3 H19_3 1_555 1_555
C34_3 C33_3 1_555 1_555
C35_3 C34_3 1_555 1_555
H20_3 C35_3 1_555 1_555
C36_3 C35_3 1_555 1_555
C37_3 C32_3 1_555 1_555
H21_3 C37_3 1_555 1_555
C38_3 C32_3 1_555 1_555
C39_3 C34_3 1_555 1_555
C40_3 C36_3 1_555 1_555
H24_3 C46_3 1_555 1_555
C49_3 C45_3 1_555 1_555
C53_3 C52_3 1_555 1_555
H26_3 C53_3 1_555 1_555
C54_3 C53_3 1_555 1_555
H27_3 C55_3 1_555 1_555
C58_3 C54_3 1_555 1_555
O25_3 C38_3 1_555 1_555
O26_3 C38_3 1_555 1_555
O45_2 C39_3 1_555 1_555
O28_2 C40_3 1_555 1_555
O29_2 Zn6_3 1_555 1_555
O30_2 C47_3 1_555 1_555
O34_3 C49_3 1_555 1_555
O35_3 C49_3 1_555 1_555
O40_3 C58_3 1_555 1_555
Zn9_3 O25_3 1_555 1_555
O42_3 C58_3 1_555 1_555
O65_2 C39_3 1_555 1_555
O47_3 Zn6_3 1_555 1_555
O48_3 Zn6_3 1_555 1_555
O60_3 Zn4_3 1_555 1_555
O61_3 Zn9_3 1_555 1_555
O62_5 Zn9_3 1_555 1_555
Zn11_2 O8_2 1_555 1_555
Zn12_2 O30_2 1_555 1_555
Zn13_5 O26_3 1_555 1_555
Zn17_2 O18_3 1_555 1_555
Zn17 O40_3 1_555 1_555
Zn24_3 O7_2 1_555 1_555
C5_3 C6_3 1_555 1_555
C14_3 C15_3 1_555 1_555
C23_3 C24_3 1_555 1_555
O12_3 Zn2_5 1_555 1_555
O13_3 Zn4_3 1_555 1_555
O17_2 Zn11_2 1_555 1_555
O20_5 Zn4_3 1_555 1_555
C36_3 C37_3 1_555 1_555
C40_3 O29_2 1_555 1_555
C45_3 C46_3 1_555 1_555
C54_3 C55_3 1_555 1_555
O28_2 Zn24_3 1_555 1_555
O34_3 Zn13_5 1_555 1_555
O35_3 Zn9_3 1_555 1_555
O39_2 Zn12_2 1_555 1_555
O62_5 Zn13_5 1_555 1_555
C41_3 C42_3 1_555 1_555
C42_3 H22_3 1_555 1_555
C43_3 C42_3 1_555 1_555
C44_3 C43_3 1_555 1_555
H23_3 C44_3 1_555 1_555
C48_3 C43_3 1_555 1_555
C50_3 C51_3 1_555 1_555
C51_3 H25_3 1_555 1_555
C56_3 C50_3 1_555 1_555
C59_3 C60_3 1_555 1_555
C60_3 H28_3 1_555 1_555
H29_3 C60_3 1_555 1_555
H30_3 C60_3 1_555 1_555
C61_3 H31_3 1_555 1_555
H32_3 C61_3 1_555 1_555
H33_3 C61_3 1_555 1_555
C62_3 H34_3 1_555 1_555
H35_3 C62_3 1_555 1_555
H36_3 C62_3 1_555 1_555
N2_3 C59_3 1_555 1_555
O51 C48_3 1_555 1_555
O52 C48_3 1_555 1_555
O36_3 C56_3 1_555 1_555
O37_3 C56_3 1_555 1_555
O38_3 C57_3 1_555 1_555
O41_3 C59_3 1_555 1_555
Zn8_2 O31_3 1_555 1_555
O50_2 Zn8_2 1_555 1_555
O59_2 Zn8_2 1_555 1_555
Zn16 O36_3 1_555 1_555
Zn28_3 O37_3 1_555 1_555
C61_3 N2_3 1_555 1_555
C62_3 N2_3 1_555 1_555
O38_3 Zn8_2 1_555 1_555
O41_3 Zn8_2 1_555 1_555
O4_9 Zn13_4 1_555 1_555
O44_6 Zn13_4 1_555 1_555
O54_6 Zn13_4 1_555 1_555
Zn18 O62_4 1_555 1_555
O4_9 H37_4 1_555 1_555
O4_9 H38_4 1_555 1_555
O4_10 Zn13_5 1_555 1_555
O22_6 Zn24_3 1_555 1_555
O47_4 Zn24_3 1_555 1_555
O48_4 Zn24_3 1_555 1_555
O6_8 Zn16 1_555 1_555
O63 Zn16 1_555 1_555
O46_6 Zn23 1_555 1_555
O53_6 Zn23 1_555 1_555
O55_6 Zn16 1_555 1_555
O66_6 Zn16 1_555 1_555
O63 Zn28_3 1_555 1_555
O66_6 Zn28_3 1_555 1_555
C41_4 C42_4 1_555 1_555
C42_4 H22_4 1_555 1_555
C43_4 C42_4 1_555 1_555
C44_4 C43_4 1_555 1_555
H23_4 C44_4 1_555 1_555
C48_4 C43_4 1_555 1_555
C50_4 C51_4 1_555 1_555
C51_4 H25_4 1_555 1_555
C56_4 C50_4 1_555 1_555
C59_4 C60_4 1_555 1_555
C60_4 H28_4 1_555 1_555
H29_4 C60_4 1_555 1_555
H30_4 C60_4 1_555 1_555
C61_4 H31_4 1_555 1_555
H32_4 C61_4 1_555 1_555
H33_4 C61_4 1_555 1_555
C62_4 H34_4 1_555 1_555
H35_4 C62_4 1_555 1_555
H36_4 C62_4 1_555 1_555
N2_4 C59_4 1_555 1_555
O51_3 C48_4 1_555 1_555
O52_3 C48_4 1_555 1_555
O36_4 C56_4 1_555 1_555
O37_4 C56_4 1_555 1_555
O38_4 C57_4 1_555 1_555
O41_4 C59_4 1_555 1_555
Zn12_2 O31_4 1_555 1_555
Zn16_3 O36_4 1_555 1_555
Zn28_4 O37_4 1_555 1_555
C61_4 N2_4 1_555 1_555
C62_4 N2_4 1_555 1_555
O38_4 Zn12_2 1_555 1_555
O41_4 Zn12_2 1_555 1_555
C1_4 C2_4 1_555 1_555
C2_4 H1_4 1_555 1_555
C3_4 C2_4 1_555 1_555
C4_4 C3_4 1_555 1_555
H2_4 C4_4 1_555 1_555
C5_4 C4_4 1_555 1_555
C6_4 C1_4 1_555 1_555
H3_4 C6_4 1_555 1_555
C7_4 C1_4 1_555 1_555
C8_4 C3_4 1_555 1_555
C9_4 C5_4 1_555 1_555
H6_4 C15_4 1_555 1_555
C18_4 C14_4 1_555 1_555
C22_4 C21_4 1_555 1_555
H8_4 C22_4 1_555 1_555
C23_4 C22_4 1_555 1_555
H9_4 C24_4 1_555 1_555
C27_4 C23_4 1_555 1_555
O1_4 C7_4 1_555 1_555
O2_4 C7_4 1_555 1_555
O45_3 C8_4 1_555 1_555
O4_11 Zn2_6 1_555 1_555
O47_3 C9_4 1_555 1_555
O48_4 C9_4 1_555 1_555
O49_2 C16_4 1_555 1_555
O12_4 C18_4 1_555 1_555
O13_4 C18_4 1_555 1_555
O18_4 C27_4 1_555 1_555
O20_6 Zn2_6 1_555 1_555
Zn2_6 O2_4 1_555 1_555
Zn4_4 O1_4 1_555 1_555
O23_4 C27_4 1_555 1_555
O65_3 C8_4 1_555 1_555
C32_4 C33_4 1_555 1_555
C33_4 H19_4 1_555 1_555
C34_4 C33_4 1_555 1_555
C35_4 C34_4 1_555 1_555
H20_4 C35_4 1_555 1_555
C36_4 C35_4 1_555 1_555
C37_4 C32_4 1_555 1_555
H21_4 C37_4 1_555 1_555
C38_4 C32_4 1_555 1_555
C39_4 C34_4 1_555 1_555
C40_4 C36_4 1_555 1_555
H24_4 C46_4 1_555 1_555
C49_4 C45_4 1_555 1_555
C53_4 C52_4 1_555 1_555
H26_4 C53_4 1_555 1_555
C54_4 C53_4 1_555 1_555
H27_4 C55_4 1_555 1_555
C58_4 C54_4 1_555 1_555
O25_4 C38_4 1_555 1_555
O26_4 C38_4 1_555 1_555
O45_4 C39_4 1_555 1_555
O47_4 C40_4 1_555 1_555
O50_2 C47_4 1_555 1_555
O34_4 C49_4 1_555 1_555
O35_4 C49_4 1_555 1_555
O40_4 C58_4 1_555 1_555
Zn9_4 O25_4 1_555 1_555
O42_4 C58_4 1_555 1_555
O65_4 C39_4 1_555 1_555
O44_7 Zn2_6 1_555 1_555
O54_7 Zn2_6 1_555 1_555
O60_4 Zn4_4 1_555 1_555
O61_4 Zn9_4 1_555 1_555
O62_6 Zn9_4 1_555 1_555
Zn13_6 O26_4 1_555 1_555
Zn19_2 O20_6 1_555 1_555
Zn17_4 O18_4 1_555 1_555
Zn17_3 O40_4 1_555 1_555
C5_4 C6_4 1_555 1_555
C14_4 C15_4 1_555 1_555
C23_4 C24_4 1_555 1_555
O12_4 Zn2_6 1_555 1_555
O13_4 Zn4_4 1_555 1_555
O20_6 Zn4_4 1_555 1_555
C36_4 C37_4 1_555 1_555
C40_4 O48_3 1_555 1_555
C45_4 C46_4 1_555 1_555
C54_4 C55_4 1_555 1_555
O34_4 Zn13_6 1_555 1_555
O35_4 Zn9_4 1_555 1_555
O62_6 Zn13_6 1_555 1_555
O6_9 Zn15_2 1_555 1_555
O63_5 Zn15_2 1_555 1_555
O55_7 Zn15_2 1_555 1_555
O6_9 H39_3 1_555 1_555
O6_9 H40_3 1_555 1_555
C10_4 C11_4 1_555 1_555
C11_4 H4_4 1_555 1_555
C12_4 C11_4 1_555 1_555
C13_4 C12_4 1_555 1_555
H5_4 C13_4 1_555 1_555
C17_4 C12_4 1_555 1_555
C19_4 C20_4 1_555 1_555
C20_4 H7_4 1_555 1_555
C25_4 C19_4 1_555 1_555
C28_4 C29_4 1_555 1_555
C29_4 H10_4 1_555 1_555
H11_4 C29_4 1_555 1_555
H12_4 C29_4 1_555 1_555
C30_4 H13_4 1_555 1_555
H14_4 C30_4 1_555 1_555
H15_4 C30_4 1_555 1_555
C31_4 H16_4 1_555 1_555
H17_4 C31_4 1_555 1_555
H18_4 C31_4 1_555 1_555
N1_4 C28_4 1_555 1_555
O6_10 Zn15_3 1_555 1_555
O51_4 C17_4 1_555 1_555
O52_4 C17_4 1_555 1_555
O14_4 C25_4 1_555 1_555
O15_4 C25_4 1_555 1_555
O16_4 C26_4 1_555 1_555
O19_4 C28_4 1_555 1_555
O63_6 Zn15_3 1_555 1_555
Zn11_2 O9_4 1_555 1_555
Zn15_3 O14_4 1_555 1_555
O46_7 Zn20_2 1_555 1_555
O53_7 Zn20_2 1_555 1_555
O66_7 Zn15_3 1_555 1_555
Zn29_4 O15_4 1_555 1_555
C30_4 N1_4 1_555 1_555
C31_4 N1_4 1_555 1_555
O16_4 Zn11_2 1_555 1_555
O19_4 Zn11_2 1_555 1_555
O63_6 Zn29_4 1_555 1_555
O66_7 Zn29_4 1_555 1_555
O6_11 Zn16_2 1_555 1_555
O63_3 Zn16_2 1_555 1_555
O55_8 Zn16_2 1_555 1_555
O6_11 H39_4 1_555 1_555
O6_11 H40_4 1_555 1_555
O6_12 Zn16_3 1_555 1_555
O63_4 Zn16_3 1_555 1_555
O46_8 Zn22_2 1_555 1_555
O53_8 Zn22_2 1_555 1_555
O66_8 Zn16_3 1_555 1_555
O63_4 Zn28_4 1_555 1_555
O66_8 Zn28_4 1_555 1_555
O4_12 Zn13_6 1_555 1_555
O44_8 Zn13_6 1_555 1_555
O54_8 Zn13_6 1_555 1_555
Zn18_2 O62_6 1_555 1_555
C37_5 C32_5 1_555 1_555
H21_5 C37_5 1_555 1_555
C38_5 C32_5 1_555 1_555
C41_5 C42_5 1_555 1_555
C42_5 H22_5 1_555 1_555
C43_5 C42_5 1_555 1_555
C44_5 C43_5 1_555 1_555
H23_5 C44_5 1_555 1_555
C45_5 C44_5 1_555 1_555
C46_5 C41_5 1_555 1_555
H24_5 C46_5 1_555 1_555
C47_5 C41_5 1_555 1_555
C48_5 C43_5 1_555 1_555
C49_5 C45_5 1_555 1_555
C50_5 C51_5 1_555 1_555
C51_5 H25_5 1_555 1_555
C52_5 C51_5 1_555 1_555
C53_5 C52_5 1_555 1_555
H26_5 C53_5 1_555 1_555
C54_5 C53_5 1_555 1_555
C55_5 C50_5 1_555 1_555
H27_5 C55_5 1_555 1_555
C56_5 C50_5 1_555 1_555
C57_5 C52_5 1_555 1_555
C58_5 C54_5 1_555 1_555
C59_5 C60_5 1_555 1_555
C60_5 H28_5 1_555 1_555
H29_5 C60_5 1_555 1_555
H30_5 C60_5 1_555 1_555
C61_5 H31_5 1_555 1_555
H32_5 C61_5 1_555 1_555
H33_5 C61_5 1_555 1_555
C62_5 H34_5 1_555 1_555
H35_5 C62_5 1_555 1_555
H36_5 C62_5 1_555 1_555
N2_5 C59_5 1_555 1_555
O25_5 C38_5 1_555 1_555
O44 C38_5 1_555 1_555
O30_3 C47_5 1_555 1_555
O31_5 C47_5 1_555 1_555
O32_3 C48_5 1_555 1_555
O53_6 C48_5 1_555 1_555
O54 C49_5 1_555 1_555
O35_5 C49_5 1_555 1_555
O55 C56_5 1_555 1_555
O56 C56_5 1_555 1_555
O38_5 C57_5 1_555 1_555
O39_3 C57_5 1_555 1_555
O61_3 C58_5 1_555 1_555
O41_5 C59_5 1_555 1_555
Zn8_3 O31_5 1_555 1_555
Zn17 O25_5 1_555 1_555
O42_5 C58_5 1_555 1_555
O50_3 Zn8_3 1_555 1_555
O59_3 Zn8_3 1_555 1_555
Zn12_3 O30_3 1_555 1_555
Zn28_3 O32_3 1_555 1_555
C45_5 C46_5 1_555 1_555
C54_5 C55_5 1_555 1_555
C61_5 N2_5 1_555 1_555
C62_5 N2_5 1_555 1_555
O28_3 Zn24_4 1_555 1_555
O35_5 Zn17 1_555 1_555
O38_5 Zn8_3 1_555 1_555
O39_3 Zn12_3 1_555 1_555
O41_5 Zn8_3 1_555 1_555
C2_5 H1_5 1_555 1_555
C3_5 C2_5 1_555 1_555
C4_5 C3_5 1_555 1_555
H2_5 C4_5 1_555 1_555
C5_5 C4_5 1_555 1_555
C8_5 C3_5 1_555 1_555
C9_5 C5_5 1_555 1_555
O46_6 C8_5 1_555 1_555
O7_3 C9_5 1_555 1_555
O66_6 C8_5 1_555 1_555
Zn24_5 O7_3 1_555 1_555
O22_7 Zn6_4 1_555 1_555
C33_5 H19_5 1_555 1_555
C34_5 C33_5 1_555 1_555
C35_5 C34_5 1_555 1_555
H20_5 C35_5 1_555 1_555
C36_5 C35_5 1_555 1_555
C39_5 C34_5 1_555 1_555
C40_5 C36_5 1_555 1_555
O46_5 C39_5 1_555 1_555
O29_3 Zn6_4 1_555 1_555
O66_5 C39_5 1_555 1_555
O47_5 Zn6_4 1_555 1_555
C40_5 O29_3 1_555 1_555
O22_7 H41_5 1_555 1_555
O22_7 H42_5 1_555 1_555
O51_5 Zn28 1_555 1_555
O6_3 H39_5 1_555 1_555
O6_3 H40_5 1_555 1_555
C6_5 C1_5 1_555 1_555
H3_5 C6_5 1_555 1_555
C7_5 C1_5 1_555 1_555
C10_5 C11_5 1_555 1_555
C11_5 H4_5 1_555 1_555
C12_5 C11_5 1_555 1_555
C13_5 C12_5 1_555 1_555
H5_5 C13_5 1_555 1_555
C14_5 C13_5 1_555 1_555
C15_5 C10_5 1_555 1_555
H6_5 C15_5 1_555 1_555
C16_5 C10_5 1_555 1_555
C17_5 C12_5 1_555 1_555
C18_5 C14_5 1_555 1_555
C19_5 C20_5 1_555 1_555
C20_5 H7_5 1_555 1_555
C21_5 C20_5 1_555 1_555
C22_5 C21_5 1_555 1_555
H8_5 C22_5 1_555 1_555
C23_5 C22_5 1_555 1_555
C24_5 C19_5 1_555 1_555
H9_5 C24_5 1_555 1_555
C25_5 C19_5 1_555 1_555
C26_5 C21_5 1_555 1_555
C27_5 C23_5 1_555 1_555
C28_5 C29_5 1_555 1_555
C29_5 H10_5 1_555 1_555
H11_5 C29_5 1_555 1_555
H12_5 C29_5 1_555 1_555
C30_5 H13_5 1_555 1_555
H14_5 C30_5 1_555 1_555
H15_5 C30_5 1_555 1_555
C31_5 H16_5 1_555 1_555
H17_5 C31_5 1_555 1_555
H18_5 C31_5 1_555 1_555
N1_5 C28_5 1_555 1_555
O1_5 C7_5 1_555 1_555
O44_2 C7_5 1_555 1_555
O8_3 C16_5 1_555 1_555
O9_5 C16_5 1_555 1_555
O10_3 C17_5 1_555 1_555
O53_5 C17_5 1_555 1_555
O54_2 C18_5 1_555 1_555
O13_5 C18_5 1_555 1_555
O55_2 C25_5 1_555 1_555
O56_2 C25_5 1_555 1_555
O16_5 C26_5 1_555 1_555
O17_3 C26_5 1_555 1_555
O60_3 C27_5 1_555 1_555
O19_5 C28_5 1_555 1_555
Zn1_3 O9_5 1_555 1_555
O22_8 Zn6_5 1_555 1_555
Zn17_2 O1_5 1_555 1_555
Zn6_5 O5_3 1_555 1_555
O23_5 C27_5 1_555 1_555
Zn29_3 O10_3 1_555 1_555
O48_5 Zn6_5 1_555 1_555
O49_3 Zn1_3 1_555 1_555
O58_3 Zn1_3 1_555 1_555
Zn11_3 O8_3 1_555 1_555
C14_5 C15_5 1_555 1_555
C23_5 C24_5 1_555 1_555
C30_5 N1_5 1_555 1_555
C31_5 N1_5 1_555 1_555
O13_5 Zn17_2 1_555 1_555
O16_5 Zn1_3 1_555 1_555
O17_3 Zn11_3 1_555 1_555
O19_5 Zn1_3 1_555 1_555
O51_6 Zn29 1_555 1_555
O6 H39_6 1_555 1_555
O6 H40_6 1_555 1_555
O22_9 Zn24_4 1_555 1_555
O48_6 Zn24_4 1_555 1_555
O22_10 Zn24_5 1_555 1_555
O47_6 Zn24_5 1_555 1_555
O22_10 H41_6 1_555 1_555
O22_10 H42_6 1_555 1_555
C2_6 H1_6 1_555 1_555
C3_6 C2_6 1_555 1_555
C4_6 C3_6 1_555 1_555
H2_6 C4_6 1_555 1_555
C5_6 C4_6 1_555 1_555
C8_6 C3_6 1_555 1_555
C9_6 C5_6 1_555 1_555
O46_8 C8_6 1_555 1_555
O48_6 C9_6 1_555 1_555
O66_8 C8_6 1_555 1_555
C37_6 C32_6 1_555 1_555
H21_6 C37_6 1_555 1_555
C38_6 C32_6 1_555 1_555
C41_6 C42_6 1_555 1_555
C42_6 H22_6 1_555 1_555
C43_6 C42_6 1_555 1_555
C44_6 C43_6 1_555 1_555
H23_6 C44_6 1_555 1_555
C45_6 C44_6 1_555 1_555
C46_6 C41_6 1_555 1_555
H24_6 C46_6 1_555 1_555
C47_6 C41_6 1_555 1_555
C48_6 C43_6 1_555 1_555
C49_6 C45_6 1_555 1_555
C50_6 C51_6 1_555 1_555
C51_6 H25_6 1_555 1_555
C52_6 C51_6 1_555 1_555
C53_6 C52_6 1_555 1_555
H26_6 C53_6 1_555 1_555
C54_6 C53_6 1_555 1_555
C55_6 C50_6 1_555 1_555
H27_6 C55_6 1_555 1_555
C56_6 C50_6 1_555 1_555
C57_6 C52_6 1_555 1_555
C58_6 C54_6 1_555 1_555
C59_6 C60_6 1_555 1_555
C60_6 H28_6 1_555 1_555
H29_6 C60_6 1_555 1_555
H30_6 C60_6 1_555 1_555
C61_6 H31_6 1_555 1_555
H32_6 C61_6 1_555 1_555
H33_6 C61_6 1_555 1_555
C62_6 H34_6 1_555 1_555
H35_6 C62_6 1_555 1_555
H36_6 C62_6 1_555 1_555
N2_6 C59_6 1_555 1_555
O25_6 C38_6 1_555 1_555
O44_3 C38_6 1_555 1_555
O50_3 C47_6 1_555 1_555
O31_6 C47_6 1_555 1_555
O32_4 C48_6 1_555 1_555
O53_8 C48_6 1_555 1_555
O54_3 C49_6 1_555 1_555
O35_6 C49_6 1_555 1_555
O55_3 C56_6 1_555 1_555
O56_3 C56_6 1_555 1_555
O38_6 C57_6 1_555 1_555
O59_3 C57_6 1_555 1_555
O61_4 C58_6 1_555 1_555
O41_6 C59_6 1_555 1_555
Zn12_3 O31_6 1_555 1_555
Zn17_3 O25_6 1_555 1_555
O42_6 C58_6 1_555 1_555
Zn28_4 O32_4 1_555 1_555
C45_6 C46_6 1_555 1_555
C54_6 C55_6 1_555 1_555
C61_6 N2_6 1_555 1_555
C62_6 N2_6 1_555 1_555
O35_6 Zn17_3 1_555 1_555
O38_6 Zn12_3 1_555 1_555
O41_6 Zn12_3 1_555 1_555
O4_5 H37_5 1_555 1_555
O4_5 H38_5 1_555 1_555
C6_6 C1_6 1_555 1_555
H3_6 C6_6 1_555 1_555
C7_6 C1_6 1_555 1_555
C10_6 C11_6 1_555 1_555
C11_6 H4_6 1_555 1_555
C12_6 C11_6 1_555 1_555
C13_6 C12_6 1_555 1_555
H5_6 C13_6 1_555 1_555
C14_6 C13_6 1_555 1_555
C15_6 C10_6 1_555 1_555
H6_6 C15_6 1_555 1_555
C16_6 C10_6 1_555 1_555
C17_6 C12_6 1_555 1_555
C18_6 C14_6 1_555 1_555
C19_6 C20_6 1_555 1_555
C20_6 H7_6 1_555 1_555
C21_6 C20_6 1_555 1_555
C22_6 C21_6 1_555 1_555
H8_6 C22_6 1_555 1_555
C23_6 C22_6 1_555 1_555
C24_6 C19_6 1_555 1_555
H9_6 C24_6 1_555 1_555
C25_6 C19_6 1_555 1_555
C26_6 C21_6 1_555 1_555
C27_6 C23_6 1_555 1_555
C28_6 C29_6 1_555 1_555
C29_6 H10_6 1_555 1_555
H11_6 C29_6 1_555 1_555
H12_6 C29_6 1_555 1_555
C30_6 H13_6 1_555 1_555
H14_6 C30_6 1_555 1_555
H15_6 C30_6 1_555 1_555
C31_6 H16_6 1_555 1_555
H17_6 C31_6 1_555 1_555
H18_6 C31_6 1_555 1_555
N1_6 C28_6 1_555 1_555
O1_6 C7_6 1_555 1_555
O44_4 C7_6 1_555 1_555
O49_3 C16_6 1_555 1_555
O9_6 C16_6 1_555 1_555
O10_4 C17_6 1_555 1_555
O53_7 C17_6 1_555 1_555
O54_4 C18_6 1_555 1_555
O13_6 C18_6 1_555 1_555
O55_4 C25_6 1_555 1_555
O56_4 C25_6 1_555 1_555
O16_6 C26_6 1_555 1_555
O58_3 C26_6 1_555 1_555
O60_4 C27_6 1_555 1_555
O19_6 C28_6 1_555 1_555
Zn11_3 O9_6 1_555 1_555
Zn17_4 O1_6 1_555 1_555
O23_6 C27_6 1_555 1_555
Zn29_4 O10_4 1_555 1_555
O51_7 Zn28_2 1_555 1_555
C14_6 C15_6 1_555 1_555
C23_6 C24_6 1_555 1_555
C30_6 N1_6 1_555 1_555
C31_6 N1_6 1_555 1_555
O13_6 Zn17_4 1_555 1_555
O16_6 Zn11_3 1_555 1_555
O19_6 Zn11_3 1_555 1_555
C33_6 H19_6 1_555 1_555
C34_6 C33_6 1_555 1_555
C35_6 C34_6 1_555 1_555
H20_6 C35_6 1_555 1_555
C36_6 C35_6 1_555 1_555
C39_6 C34_6 1_555 1_555
C40_6 C36_6 1_555 1_555
O46_7 C39_6 1_555 1_555
O66_7 C39_6 1_555 1_555
C40_6 O48_5 1_555 1_555
O22_8 H41_7 1_555 1_555
O22_8 H42_7 1_555 1_555
O22_9 H41_8 1_555 1_555
O22_9 H42_8 1_555 1_555
O4_3 H37_6 1_555 1_555
O4_3 H38_6 1_555 1_555
O51_8 Zn29_2 1_555 1_555
C41_7 C42_7 1_555 1_555
C42_7 H22_7 1_555 1_555
C43_7 C42_7 1_555 1_555
C44_7 C43_7 1_555 1_555
H23_7 C44_7 1_555 1_555
C48_7 C43_7 1_555 1_555
C50_7 C51_7 1_555 1_555
C51_7 H25_7 1_555 1_555
C56_7 C50_7 1_555 1_555
C59_7 C60_7 1_555 1_555
C60_7 H28_7 1_555 1_555
H29_7 C60_7 1_555 1_555
H30_7 C60_7 1_555 1_555
C61_7 H31_7 1_555 1_555
H32_7 C61_7 1_555 1_555
H33_7 C61_7 1_555 1_555
C62_7 H34_7 1_555 1_555
H35_7 C62_7 1_555 1_555
H36_7 C62_7 1_555 1_555
N2_7 C59_7 1_555 1_555
O51_5 C48_7 1_555 1_555
O53_2 C48_7 1_555 1_555
O55_5 C56_7 1_555 1_555
O57_2 C56_7 1_555 1_555
O38_7 C57_7 1_555 1_555
O41_7 C59_7 1_555 1_555
Zn8_4 O31_7 1_555 1_555
O50_4 Zn8_4 1_555 1_555
O59_4 Zn8_4 1_555 1_555
C61_7 N2_7 1_555 1_555
C62_7 N2_7 1_555 1_555
O38_7 Zn8_4 1_555 1_555
O41_7 Zn8_4 1_555 1_555
C1_7 C2_7 1_555 1_555
C2_7 H1_7 1_555 1_555
C3_7 C2_7 1_555 1_555
C4_7 C3_7 1_555 1_555
H2_7 C4_7 1_555 1_555
C5_7 C4_7 1_555 1_555
C6_7 C1_7 1_555 1_555
H3_7 C6_7 1_555 1_555
C7_7 C1_7 1_555 1_555
C8_7 C3_7 1_555 1_555
C9_7 C5_7 1_555 1_555
H6_7 C15_7 1_555 1_555
C18_7 C14_7 1_555 1_555
C22_7 C21_7 1_555 1_555
H8_7 C22_7 1_555 1_555
C23_7 C22_7 1_555 1_555
H9_7 C24_7 1_555 1_555
C27_7 C23_7 1_555 1_555
O1_7 C7_7 1_555 1_555
O44_6 C7_7 1_555 1_555
O46_2 C8_7 1_555 1_555
O5_4 C9_7 1_555 1_555
O7_4 C9_7 1_555 1_555
O8_4 C16_7 1_555 1_555
O54_6 C18_7 1_555 1_555
O13_7 C18_7 1_555 1_555
O60 C27_7 1_555 1_555
O22_11 Zn6_6 1_555 1_555
Zn18 O1_7 1_555 1_555
Zn6_6 O5_4 1_555 1_555
O23_7 C27_7 1_555 1_555
O66_2 C8_7 1_555 1_555
C32_7 C33_7 1_555 1_555
C33_7 H19_7 1_555 1_555
C34_7 C33_7 1_555 1_555
C35_7 C34_7 1_555 1_555
H20_7 C35_7 1_555 1_555
C36_7 C35_7 1_555 1_555
C37_7 C32_7 1_555 1_555
H21_7 C37_7 1_555 1_555
C38_7 C32_7 1_555 1_555
C39_7 C34_7 1_555 1_555
C40_7 C36_7 1_555 1_555
H24_7 C46_7 1_555 1_555
C49_7 C45_7 1_555 1_555
C53_7 C52_7 1_555 1_555
H26_7 C53_7 1_555 1_555
C54_7 C53_7 1_555 1_555
H27_7 C55_7 1_555 1_555
C58_7 C54_7 1_555 1_555
O25_7 C38_7 1_555 1_555
O44_5 C38_7 1_555 1_555
O46 C39_7 1_555 1_555
O28_4 C40_7 1_555 1_555
O29_4 Zn6_6 1_555 1_555
O30_4 C47_7 1_555 1_555
O54_5 C49_7 1_555 1_555
O35_7 C49_7 1_555 1_555
O61 C58_7 1_555 1_555
Zn19 O25_7 1_555 1_555
O42_7 C58_7 1_555 1_555
O66 C39_7 1_555 1_555
O47_7 Zn6_6 1_555 1_555
O48_7 Zn6_6 1_555 1_555
Zn11_4 O8_4 1_555 1_555
Zn12_4 O30_4 1_555 1_555
Zn24_6 O7_4 1_555 1_555
C5_7 C6_7 1_555 1_555
C14_7 C15_7 1_555 1_555
C23_7 C24_7 1_555 1_555
O13_7 Zn18 1_555 1_555
O17_4 Zn11_4 1_555 1_555
C36_7 C37_7 1_555 1_555
C40_7 O29_4 1_555 1_555
C45_7 C46_7 1_555 1_555
C54_7 C55_7 1_555 1_555
O28_4 Zn24_6 1_555 1_555
O35_7 Zn19 1_555 1_555
O39_4 Zn12_4 1_555 1_555
O4_10 H37_7 1_555 1_555
O4_10 H38_7 1_555 1_555
C10_7 C11_7 1_555 1_555
C11_7 H4_7 1_555 1_555
C12_7 C11_7 1_555 1_555
C13_7 C12_7 1_555 1_555
H5_7 C13_7 1_555 1_555
C17_7 C12_7 1_555 1_555
C19_7 C20_7 1_555 1_555
C20_7 H7_7 1_555 1_555
C25_7 C19_7 1_555 1_555
C28_7 C29_7 1_555 1_555
C29_7 H10_7 1_555 1_555
H11_7 C29_7 1_555 1_555
H12_7 C29_7 1_555 1_555
C30_7 H13_7 1_555 1_555
H14_7 C30_7 1_555 1_555
H15_7 C30_7 1_555 1_555
C31_7 H16_7 1_555 1_555
H17_7 C31_7 1_555 1_555
H18_7 C31_7 1_555 1_555
N1_7 C28_7 1_555 1_555
O51_6 C17_7 1_555 1_555
O53 C17_7 1_555 1_555
O55_6 C25_7 1_555 1_555
O57 C25_7 1_555 1_555
O16_7 C26_7 1_555 1_555
O19_7 C28_7 1_555 1_555
Zn1_4 O9_7 1_555 1_555
O49_4 Zn1_4 1_555 1_555
O58_4 Zn1_4 1_555 1_555
C30_7 N1_7 1_555 1_555
C31_7 N1_7 1_555 1_555
O16_7 Zn1_4 1_555 1_555
O19_7 Zn1_4 1_555 1_555
O22_12 Zn24_6 1_555 1_555
O47_8 Zn24_6 1_555 1_555
O48_8 Zn24_6 1_555 1_555
O4_8 H37_8 1_555 1_555
O4_8 H38_8 1_555 1_555
C10_8 C11_8 1_555 1_555
C11_8 H4_8 1_555 1_555
C12_8 C11_8 1_555 1_555
C13_8 C12_8 1_555 1_555
H5_8 C13_8 1_555 1_555
C17_8 C12_8 1_555 1_555
C19_8 C20_8 1_555 1_555
C20_8 H7_8 1_555 1_555
C25_8 C19_8 1_555 1_555
C28_8 C29_8 1_555 1_555
C29_8 H10_8 1_555 1_555
H11_8 C29_8 1_555 1_555
H12_8 C29_8 1_555 1_555
C30_8 H13_8 1_555 1_555
H14_8 C30_8 1_555 1_555
H15_8 C30_8 1_555 1_555
C31_8 H16_8 1_555 1_555
H17_8 C31_8 1_555 1_555
H18_8 C31_8 1_555 1_555
N1_8 C28_8 1_555 1_555
O51_8 C17_8 1_555 1_555
O53_3 C17_8 1_555 1_555
O55_8 C25_8 1_555 1_555
O57_3 C25_8 1_555 1_555
O16_8 C26_8 1_555 1_555
O19_8 C28_8 1_555 1_555
Zn11_4 O9_8 1_555 1_555
C30_8 N1_8 1_555 1_555
C31_8 N1_8 1_555 1_555
O16_8 Zn11_4 1_555 1_555
O19_8 Zn11_4 1_555 1_555
O6_12 H39_7 1_555 1_555
O6_12 H40_7 1_555 1_555
C1_8 C2_8 1_555 1_555
C2_8 H1_8 1_555 1_555
C3_8 C2_8 1_555 1_555
C4_8 C3_8 1_555 1_555
H2_8 C4_8 1_555 1_555
C5_8 C4_8 1_555 1_555
C6_8 C1_8 1_555 1_555
H3_8 C6_8 1_555 1_555
C7_8 C1_8 1_555 1_555
C8_8 C3_8 1_555 1_555
C9_8 C5_8 1_555 1_555
H6_8 C15_8 1_555 1_555
C18_8 C14_8 1_555 1_555
C22_8 C21_8 1_555 1_555
H8_8 C22_8 1_555 1_555
C23_8 C22_8 1_555 1_555
H9_8 C24_8 1_555 1_555
C27_8 C23_8 1_555 1_555
O1_8 C7_8 1_555 1_555
O44_8 C7_8 1_555 1_555
O46_4 C8_8 1_555 1_555
O47_7 C9_8 1_555 1_555
O48_8 C9_8 1_555 1_555
O49_4 C16_8 1_555 1_555
O54_8 C18_8 1_555 1_555
O13_8 C18_8 1_555 1_555
O60_2 C27_8 1_555 1_555
Zn18_2 O1_8 1_555 1_555
O23_8 C27_8 1_555 1_555
O66_4 C8_8 1_555 1_555
C32_8 C33_8 1_555 1_555
C33_8 H19_8 1_555 1_555
C34_8 C33_8 1_555 1_555
C35_8 C34_8 1_555 1_555
H20_8 C35_8 1_555 1_555
C36_8 C35_8 1_555 1_555
C37_8 C32_8 1_555 1_555
H21_8 C37_8 1_555 1_555
C38_8 C32_8 1_555 1_555
C39_8 C34_8 1_555 1_555
C40_8 C36_8 1_555 1_555
H24_8 C46_8 1_555 1_555
C49_8 C45_8 1_555 1_555
C53_8 C52_8 1_555 1_555
H26_8 C53_8 1_555 1_555
C54_8 C53_8 1_555 1_555
H27_8 C55_8 1_555 1_555
C58_8 C54_8 1_555 1_555
O25_8 C38_8 1_555 1_555
O44_7 C38_8 1_555 1_555
O46_3 C39_8 1_555 1_555
O47_8 C40_8 1_555 1_555
O50_4 C47_8 1_555 1_555
O54_7 C49_8 1_555 1_555
O35_8 C49_8 1_555 1_555
O61_2 C58_8 1_555 1_555
Zn19_2 O25_8 1_555 1_555
O42_8 C58_8 1_555 1_555
O66_3 C39_8 1_555 1_555
C5_8 C6_8 1_555 1_555
C14_8 C15_8 1_555 1_555
C23_8 C24_8 1_555 1_555
O13_8 Zn18_2 1_555 1_555
C36_8 C37_8 1_555 1_555
C40_8 O48_7 1_555 1_555
C45_8 C46_8 1_555 1_555
C54_8 C55_8 1_555 1_555
O35_8 Zn19_2 1_555 1_555
C41_8 C42_8 1_555 1_555
C42_8 H22_8 1_555 1_555
C43_8 C42_8 1_555 1_555
C44_8 C43_8 1_555 1_555
H23_8 C44_8 1_555 1_555
C48_8 C43_8 1_555 1_555
C50_8 C51_8 1_555 1_555
C51_8 H25_8 1_555 1_555
C56_8 C50_8 1_555 1_555
C59_8 C60_8 1_555 1_555
C60_8 H28_8 1_555 1_555
H29_8 C60_8 1_555 1_555
H30_8 C60_8 1_555 1_555
C61_8 H31_8 1_555 1_555
H32_8 C61_8 1_555 1_555
H33_8 C61_8 1_555 1_555
C62_8 H34_8 1_555 1_555
H35_8 C62_8 1_555 1_555
H36_8 C62_8 1_555 1_555
N2_8 C59_8 1_555 1_555
O51_7 C48_8 1_555 1_555
O53_4 C48_8 1_555 1_555
O55_7 C56_8 1_555 1_555
O57_4 C56_8 1_555 1_555
O38_8 C57_8 1_555 1_555
O41_8 C59_8 1_555 1_555
Zn12_4 O31_8 1_555 1_555
C61_8 N2_8 1_555 1_555
C62_8 N2_8 1_555 1_555
O38_8 Zn12_4 1_555 1_555
O41_8 Zn12_4 1_555 1_555
O6_10 H39_8 1_555 1_555
O6_10 H40_8 1_555 1_555

#END
