
###############################################################################
#
# This file contains modified crystal structure data generated from the
# MOF subset of the Cambridge Structural Database (CSD) v543 
# hosted by the Cambridge Crystallographic Data Centre (CCDC).
#
# This work is licensed under the Creative Commons
# Attribution-NonCommercial-ShareAlike 4.0 International License.
# To view a copy of this license, visit
# http://creativecommons.org/licenses/by-nc-sa/4.0/
# or send a letter to
# Creative Commons, PO Box 1866, Mountain View, CA 94042, USA.
#
# CIF created using the CSD Python API on 29 September 2022
# The structure has been converted into the P1 space group
# The structure has a 3D framework
# The original CSD entry PEPHOJ is in the triclinic crystal system
# The framework has been calculated to contain at least 10.0% void space
# The void calculation uses a probe of radius 1.32A, grid spacing 0.4
#
###############################################################################

data_PEPHOJ
_chemical_formula_moiety         '(C60 H32 Cd4 N16 O20)n'
_symmetry_cell_setting           triclinic
_symmetry_space_group_name_H-M   'P 1'
_symmetry_Int_Tables_number      1
_space_group_name_Hall           'P 1'
loop_
_symmetry_equiv_pos_site_id
_symmetry_equiv_pos_as_xyz
1 x,y,z
_cell_length_a                   11.888(2)
_cell_length_b                   12.916(3)
_cell_length_c                   13.009(3)
_cell_angle_alpha                93.94(3)
_cell_angle_beta                 112.07(3)
_cell_angle_gamma                110.34(3)
_cell_volume                     1689.41
loop_
_atom_site_label
_atom_site_type_symbol
_atom_site_fract_x
_atom_site_fract_y
_atom_site_fract_z
C20 C 0.1463(3) 0.0224(3) 0.8135(3)
H9 H 0.1971 0.0764 0.8821
O9 O 0.01864(18) 0.12798(16) 0.7555(2)
C27 C 0.0395(2) 0.0315(2) 0.7315(2)
N11 N 0.07266(17) 0.65258(16) 0.61564(15)
N1 N 0.27509(19) 0.78189(17) 0.70642(17)
N2 N 0.27786(18) 0.68206(17) 0.67434(16)
N3 N 0.15769(17) 0.60460(16) 0.61983(15)
C2 C 0.1474(2) 0.7614(2) 0.67054(19)
C19 C 0.1782(3) 0.9319(3) 0.7934(3)
H8 H 0.2498 0.9244 0.8493
C23 C 0.1036(2) 0.8520(2) 0.6897(2)
Cd6 Cd 0.474567(14) 0.677892(13) 0.675565(12)
Cd9 Cd 0.146643(14) 0.454029(13) 0.471521(12)
Cd1 Cd 0.525433(14) 0.322108(13) 0.324435(12)
Cd2 Cd 0.853357(14) 0.545971(13) 0.528479(12)
O2 O 0.81569(16) 0.64381(16) 0.38054(13)
O3 O 0.64432(15) 0.51206(14) 0.38664(12)
O6 O 0.81871(19) 0.38921(15) 0.58936(14)
O7 O 0.60080(19) 0.28121(19) 0.49692(15)
C3 C 0.6033(2) 0.6105(2) 0.23758(17)
C4 C 0.4789(2) 0.5995(2) 0.22500(18)
H2 H 0.4510 0.5788 0.2812
C5 C 0.6452(2) 0.6408(2) 0.15360(18)
H3 H 0.7306 0.6519 0.1638
C6 C 0.6944(2) 0.58828(19) 0.34095(17)
C8 C 0.5578(2) 0.6545(2) 0.05403(17)
C9 C 0.4332(2) 0.6452(2) 0.04070(18)
C10 C 0.7162(2) 0.3002(2) 0.56437(18)
C11 C 0.8665(2) 0.2070(2) 0.6611(2)
H5 H 0.9348 0.2641 0.6536
C12 C 0.8904(2) 0.1214(2) 0.7119(2)
C13 C 0.7912(2) 0.0377(2) 0.7260(2)
C14 C 0.6666(2) 0.0402(2) 0.68839(19)
C15 C 0.6403(2) 0.1241(2) 0.63468(19)
H7 H 0.5559 0.1242 0.6081
C16 C 0.7414(2) 0.2077(2) 0.62143(18)
C18 C 0.3957(2) 0.6198(2) 0.12782(18)
O8 O 0.27791(18) 0.6133(2) 0.12804(15)
C25 C 0.1801(2) 0.6250(3) 0.03397(19)
C30 C 0.1436(3) 0.7121(3) 0.0536(2)
H16 H 0.1902 0.7644 0.1234
O11 O 0.41598(18) 0.12762(15) 0.25224(16)
O12 O 0.48545(17) 0.33039(17) 0.13583(13)
N9 N 0.72214(18) 0.31794(17) 0.32566(16)
N10 N 0.84231(17) 0.39540(16) 0.38017(15)
N12 N 0.80585(18) 0.62354(18) 0.66286(15)
N13 N 0.32864(18) 0.32533(18) 0.29883(15)
H1 H 0.739(4) 0.694(4) 0.927(4)
O4 O 0.71866(19) 0.6923(2) 0.98279(15)
O5 O 0.51455(17) 0.66961(17) 0.86417(13)
C7 C 0.5955(2) 0.6736(2) 0.95760(18)
H4 H 0.3759 0.6559 0.9746
C26 C 0.0079(2) 0.5574(2) 0.84514(19)
C28 C 0.0370(3) 0.7207(3) 0.9683(2)
H14 H 0.0114 0.7789 0.9811
C29 C 0.1144(3) 0.5482(3) 0.9311(2)
H15 H 0.1408 0.4904 0.9191
O1 O 0.58402(18) 0.87238(15) 0.74776(16)
C1 C 0.5641(2) 0.9512(2) 0.7097(2)
H6 H 0.8075 0.9803 0.7603
C21 C 0.9632(3) 0.9523(2) 0.6283(2)
H10 H 0.8909 0.9596 0.5730
C22 C 0.9961(3) 0.8621(2) 0.6086(2)
H11 H 0.9450 0.8081 0.5400
O10 O 0.45576(19) 0.96664(18) 0.6875(2)
H13 H 0.4038 0.9147 0.7011
N6 N 0.6946(2) 0.64057(19) 0.61786(16)
N7 N 0.67136(18) 0.67467(18) 0.70117(15)
N8 N 0.76586(19) 0.68168(19) 0.80210(15)
C17 C 0.8496(2) 0.6501(2) 0.77713(17)
C24 C 0.9677(2) 0.6432(2) 0.86333(18)
H12 H 0.9633 0.5059 0.7750
N5 N 0.19415(18) 0.37646(18) 0.33714(15)
N6_2 N 0.3054(2) 0.35943(19) 0.38214(16)
N8_2 N 0.23414(19) 0.31832(19) 0.19790(15)
C17_2 C 0.1504(2) 0.3499(2) 0.22287(17)
C24_2 C 0.0323(2) 0.3568(2) 0.13667(18)
H12_2 H 0.0367 0.4941 0.2250
C1_2 C 0.4359(2) 0.0488(2) 0.2903(2)
H6_2 H 0.1925 0.0197 0.2397
C21_2 C 0.0368(3) 0.0477(2) 0.3717(2)
H10_2 H 0.1091 0.0404 0.4270
C22_2 C 0.0039(3) 0.1379(2) 0.3914(2)
H11_2 H 0.0550 0.1919 0.4600
O10_2 O 0.54424(19) 0.03336(18) 0.3125(2)
H13_2 H 0.5962 0.0853 0.2989
H1_2 H 0.261(4) 0.306(4) 0.073(4)
O4_2 O 0.28134(19) 0.3077(2) 0.01721(15)
C7_2 C 0.4045(2) 0.3264(2) 0.04240(18)
H4_2 H 0.6241 0.3441 0.0254
C26_2 C 0.9921(2) 0.4426(2) 0.15486(19)
C28_2 C 0.9630(3) 0.2793(3) 0.0317(2)
H14_2 H 0.9886 0.2211 0.0189
C29_2 C 0.8856(3) 0.4518(3) 0.0689(2)
H15_2 H 0.8592 0.5096 0.0809
O2_2 O 0.18431(16) 0.35619(16) 0.61946(13)
O3_2 O 0.35568(15) 0.48794(14) 0.61336(12)
O6_2 O 0.18129(19) 0.61079(15) 0.41064(14)
O7_2 O 0.39920(19) 0.71879(19) 0.50308(15)
C3_2 C 0.3967(2) 0.3895(2) 0.76242(17)
C4_2 C 0.5211(2) 0.4005(2) 0.77500(18)
H2_2 H 0.5490 0.4212 0.7188
C5_2 C 0.3548(2) 0.3592(2) 0.84640(18)
H3_2 H 0.2694 0.3481 0.8362
C6_2 C 0.3056(2) 0.41172(19) 0.65905(17)
C8_2 C 0.4422(2) 0.3455(2) 0.94597(17)
C9_2 C 0.5668(2) 0.3548(2) 0.95930(18)
C10_2 C 0.2838(2) 0.6998(2) 0.43563(18)
C11_2 C 0.1335(2) 0.7930(2) 0.3389(2)
H5_2 H 0.0652 0.7359 0.3464
C12_2 C 0.1096(2) 0.8786(2) 0.2881(2)
C13_2 C 0.2088(2) 0.9623(2) 0.2740(2)
C14_2 C 0.3334(2) 0.9598(2) 0.31161(19)
C15_2 C 0.3597(2) 0.8759(2) 0.36532(19)
H7_2 H 0.4441 0.8758 0.3919
C16_2 C 0.2586(2) 0.7923(2) 0.37857(18)
C18_2 C 0.6043(2) 0.3802(2) 0.87218(18)
O8_2 O 0.72209(18) 0.3867(2) 0.87196(15)
C25_2 C 0.8199(2) 0.3750(3) 0.96603(19)
C30_2 C 0.8564(3) 0.2879(3) 0.9464(2)
H16_2 H 0.8098 0.2356 0.8766
N1_2 N 0.72491(19) 0.21811(17) 0.29358(17)
N4 N 0.92734(17) 0.34742(16) 0.38436(15)
C2_2 C 0.8526(2) 0.2386(2) 0.32946(19)
C19_2 C 0.8218(3) 0.0681(3) 0.2066(3)
H8_2 H 0.7502 0.0756 0.1507
C23_2 C 0.8964(2) 0.1480(2) 0.3103(2)
C20_2 C 0.8537(3) 0.9776(3) 0.1865(3)
H9_2 H 0.8029 0.9236 0.1179
O9_2 O 0.98136(18) 0.87202(16) 0.2445(2)
C27_2 C 0.9605(2) 0.9685(2) 0.2685(2)
loop_
_geom_bond_atom_site_label_1
_geom_bond_atom_site_label_2
_geom_bond_site_symmetry_1
_geom_bond_site_symmetry_2
H9 C20 1_555 1_555
C27 C20 1_555 1_555
O9 C27 1_555 1_555
N1 N2 1_555 1_555
N2 N3 1_555 1_555
N3 N11 1_555 1_555
N11 C2 1_555 1_555
C2 N1 1_555 1_555
C19 H8 1_555 1_555
C23 C2 1_555 1_555
Cd6 N2 1_555 1_555
Cd9 N3 1_555 1_555
C19 C23 1_555 1_555
Cd1 O3 1_555 1_555
Cd2 O2 1_555 1_555
O2 C6 1_555 1_555
O3 Cd2 1_555 1_555
O6 Cd2 1_555 1_555
O7 Cd1 1_555 1_555
C3 C4 1_555 1_555
C4 H2 1_555 1_555
C5 C3 1_555 1_555
H3 C5 1_555 1_555
C6 O3 1_555 1_555
C8 C5 1_555 1_555
C9 C8 1_555 1_555
C10 O6 1_555 1_555
C11 H5 1_555 1_555
C12 C11 1_555 1_555
C13 C12 1_555 1_555
C14 C13 1_555 1_555
C15 C14 1_555 1_555
H7 C15 1_555 1_555
C16 C10 1_555 1_555
C18 C4 1_555 1_555
O8 C18 1_555 1_555
C25 O8 1_555 1_555
C30 C25 1_555 1_555
H16 C30 1_555 1_555
O11 Cd1 1_555 1_555
O12 Cd1 1_555 1_555
N9 Cd1 1_555 1_555
N10 Cd2 1_555 1_555
N12 Cd2 1_555 1_555
N13 Cd1 1_555 1_555
O7 C10 1_555 1_555
C3 C6 1_555 1_555
C9 C18 1_555 1_555
C11 C16 1_555 1_555
C15 C16 1_555 1_555
N9 N10 1_555 1_555
H1 O4 1_555 1_555
O4 C7 1_555 1_555
O5 C7 1_555 1_555
H14 C28 1_555 1_555
H15 C29 1_555 1_555
Cd6 O5 1_555 1_555
C26 C29 1_555 1_555
O1 C1 1_555 1_555
C21 H10 1_555 1_555
C22 C21 1_555 1_555
H11 C22 1_555 1_555
O10 C1 1_555 1_555
H13 O10 1_555 1_555
Cd6 O1 1_555 1_555
N12 N6 1_555 1_555
N6 N7 1_555 1_555
N7 N8 1_555 1_555
N8 C17 1_555 1_555
C17 N12 1_555 1_555
C24 C17 1_555 1_555
Cd6 N7 1_555 1_555
N5 N6_2 1_555 1_555
N6_2 N13 1_555 1_555
N13 N8_2 1_555 1_555
N8_2 C17_2 1_555 1_555
C17_2 N5 1_555 1_555
C24_2 C17_2 1_555 1_555
Cd9 N5 1_555 1_555
O11 C1_2 1_555 1_555
C21_2 H10_2 1_555 1_555
C22_2 C21_2 1_555 1_555
H11_2 C22_2 1_555 1_555
O10_2 C1_2 1_555 1_555
H13_2 O10_2 1_555 1_555
H1_2 O4_2 1_555 1_555
O4_2 C7_2 1_555 1_555
O12 C7_2 1_555 1_555
H14_2 C28_2 1_555 1_555
H15_2 C29_2 1_555 1_555
C26_2 C29_2 1_555 1_555
Cd6 O3_2 1_555 1_555
Cd9 O2_2 1_555 1_555
O2_2 C6_2 1_555 1_555
O3_2 Cd9 1_555 1_555
O6_2 Cd9 1_555 1_555
O7_2 Cd6 1_555 1_555
C3_2 C4_2 1_555 1_555
C4_2 H2_2 1_555 1_555
C5_2 C3_2 1_555 1_555
H3_2 C5_2 1_555 1_555
C6_2 O3_2 1_555 1_555
C8_2 C5_2 1_555 1_555
C9_2 C8_2 1_555 1_555
C10_2 O6_2 1_555 1_555
C11_2 H5_2 1_555 1_555
C12_2 C11_2 1_555 1_555
C13_2 C12_2 1_555 1_555
C14_2 C13_2 1_555 1_555
C15_2 C14_2 1_555 1_555
H7_2 C15_2 1_555 1_555
C16_2 C10_2 1_555 1_555
C18_2 C4_2 1_555 1_555
O8_2 C18_2 1_555 1_555
C25_2 O8_2 1_555 1_555
C30_2 C25_2 1_555 1_555
H16_2 C30_2 1_555 1_555
O7_2 C10_2 1_555 1_555
C3_2 C6_2 1_555 1_555
C9_2 C18_2 1_555 1_555
C11_2 C16_2 1_555 1_555
C15_2 C16_2 1_555 1_555
N1_2 N9 1_555 1_555
N10 N4 1_555 1_555
N4 C2_2 1_555 1_555
C2_2 N1_2 1_555 1_555
C19_2 H8_2 1_555 1_555
C23_2 C2_2 1_555 1_555
C19_2 C23_2 1_555 1_555
H9_2 C20_2 1_555 1_555
C27_2 C20_2 1_555 1_555
O9_2 C27_2 1_555 1_555

#END
