
###############################################################################
#
# This file contains modified crystal structure data generated from the
# MOF subset of the Cambridge Structural Database (CSD) v543 
# hosted by the Cambridge Crystallographic Data Centre (CCDC).
#
# This work is licensed under the Creative Commons
# Attribution-NonCommercial-ShareAlike 4.0 International License.
# To view a copy of this license, visit
# http://creativecommons.org/licenses/by-nc-sa/4.0/
# or send a letter to
# Creative Commons, PO Box 1866, Mountain View, CA 94042, USA.
#
# CIF created using the CSD Python API on 29 September 2022
# The structure has been converted into the P1 space group
# The structure has a 3D framework
# The original CSD entry PEQHOK is in the tetragonal crystal system
# The framework has been calculated to contain at least 10.0% void space
# The void calculation uses a probe of radius 1.32A, grid spacing 0.4
#
###############################################################################

data_PEQHOK
_chemical_formula_moiety         '(C96 H80 Co12 N64 O32)n'
_symmetry_cell_setting           triclinic
_symmetry_space_group_name_H-M   'P 1'
_symmetry_Int_Tables_number      1
_space_group_name_Hall           'P 1'
loop_
_symmetry_equiv_pos_site_id
_symmetry_equiv_pos_as_xyz
1 x,y,z
_cell_length_a                   12.5845(5)
_cell_length_b                   12.5845(5)
_cell_length_c                   25.4464(14)
_cell_angle_alpha                90
_cell_angle_beta                 90
_cell_angle_gamma                90
_cell_volume                     4029.94
loop_
_atom_site_label
_atom_site_type_symbol
_atom_site_fract_x
_atom_site_fract_y
_atom_site_fract_z
N2 N 0.0020(3) 0.1001(3) 0.55096(14)
N3 N 0.0318(4) 0.1945(3) 0.62992(16)
H1 H 0.0498 0.1375 0.6463
H2 H 0.0317 0.2545 0.6461
C6 C 0.0040(3) 0.1899(3) 0.57915(17)
Co2 Co 0.54198(5) 0.06672(5) 0.56430(2)
N6 N 0.3999(3) 0.0020(3) 0.55096(14)
N7 N 0.3055(3) 0.0318(4) 0.62992(16)
H8 H 0.3625 0.0498 0.6463
H9 H 0.2455 0.0317 0.6461
C12 C 0.3101(3) 0.0040(3) 0.57915(17)
O5 O 0.6586(3) 0.0487(3) 0.61459(14)
N10 N 0.6302(3) 0.0291(3) 0.49965(14)
N11 N 0.5254(3) 0.2251(3) 0.55003(14)
Co1 Co 0.06672(5) 0.95802(5) 0.56430(2)
O1 O 0.0487(3) 0.8414(3) 0.61459(14)
O2 O 0.0879(3) 0.9794(3) 0.66079(15)
C1 C 0.0711(5) 0.8833(5) 0.6578(2)
C2 C 0.0745(4) 0.8148(4) 0.70572(18)
C3 C 0.0730(6) 0.7059(5) 0.7005(2)
H3 H 0.0709 0.6754 0.6672
C4 C 0.0746(5) 0.6414(4) 0.7449(2)
H4 H 0.0758 0.5679 0.7411
O3 O 0.0487(3) 0.6586(3) 0.88541(14)
O4 O 0.0879(3) 0.5206(3) 0.83921(15)
C7 C 0.0711(5) 0.6167(5) 0.8422(2)
C8 C 0.0745(4) 0.6852(4) 0.79428(18)
C9 C 0.0730(6) 0.7941(5) 0.7995(2)
H6 H 0.0709 0.8246 0.8328
C10 C 0.0746(5) 0.8586(4) 0.7551(2)
H7 H 0.0758 0.9321 0.7589
N5 N 0.3698(3) 0.9709(3) 0.50035(14)
N8 N 0.2251(3) 0.9746(3) 0.55003(14)
C11 C 0.2680(3) 0.9564(4) 0.50203(16)
H10 H 0.2282 0.9353 0.4731
Co4 Co 0.06672(5) 0.54198(5) 0.93570(2)
Co6 Co 0.45802(5) 0.93328(5) 0.43570(2)
N9 N 0.0291(3) 0.8698(3) 0.49965(14)
N1 N 0.9709(3) 0.1302(3) 0.50035(14)
N4 N 0.9746(3) 0.2749(3) 0.55003(14)
C5 C 0.9564(4) 0.2320(3) 0.50203(16)
H5 H 0.9353 0.2718 0.4731
Co3 Co 0.95802(5) 0.43328(5) 0.56430(2)
Co5 Co 0.93328(5) 0.04198(5) 0.43570(2)
Co1_2 Co 0.43328(5) 0.54198(5) 0.56430(2)
O1_2 O 0.4513(3) 0.6586(3) 0.61459(14)
O2_2 O 0.4121(3) 0.5206(3) 0.66079(15)
N1_2 N 0.5291(3) 0.3698(3) 0.50035(14)
N2_2 N 0.4980(3) 0.3999(3) 0.55096(14)
N3_2 N 0.4682(4) 0.3055(3) 0.62992(16)
H1_2 H 0.4502 0.3625 0.6463
H2_2 H 0.4683 0.2455 0.6461
C1_2 C 0.4289(5) 0.6167(5) 0.6578(2)
C2_2 C 0.4255(4) 0.6852(4) 0.70572(18)
C3_2 C 0.4270(6) 0.7941(5) 0.7005(2)
H3_2 H 0.4291 0.8246 0.6672
C4_2 C 0.4254(5) 0.8586(4) 0.7449(2)
H4_2 H 0.4242 0.9321 0.7411
C5_2 C 0.5436(4) 0.2680(3) 0.50203(16)
H5_2 H 0.5647 0.2282 0.4731
C6_2 C 0.4960(3) 0.3101(3) 0.57915(17)
O3_2 O 0.4513(3) 0.8414(3) 0.88541(14)
O4_2 O 0.4121(3) 0.9794(3) 0.83921(15)
C7_2 C 0.4289(5) 0.8833(5) 0.8422(2)
C8_2 C 0.4255(4) 0.8148(4) 0.79428(18)
C9_2 C 0.4270(6) 0.7059(5) 0.7995(2)
H6_2 H 0.4291 0.6754 0.8328
C10_2 C 0.4254(5) 0.6414(4) 0.7551(2)
H7_2 H 0.4242 0.5679 0.7589
N5_2 N 0.1302(3) 0.5291(3) 0.50035(14)
N6_2 N 0.1001(3) 0.4980(3) 0.55096(14)
N7_2 N 0.1945(3) 0.4682(4) 0.62992(16)
H8_2 H 0.1375 0.4502 0.6463
H9_2 H 0.2545 0.4683 0.6461
N8_2 N 0.2749(3) 0.5254(3) 0.55003(14)
C11_2 C 0.2320(3) 0.5436(4) 0.50203(16)
H10_2 H 0.2718 0.5647 0.4731
C12_2 C 0.1899(3) 0.4960(3) 0.57915(17)
Co4_2 Co 0.43328(5) 0.95802(5) 0.93570(2)
Co5_2 Co 0.56672(5) 0.45802(5) 0.43570(2)
Co6_2 Co 0.04198(5) 0.56672(5) 0.43570(2)
N9_2 N 0.4709(3) 0.6302(3) 0.49965(14)
O5_2 O 0.8414(3) 0.4513(3) 0.61459(14)
N10_2 N 0.8698(3) 0.4709(3) 0.49965(14)
O2_3 O 0.5206(3) 0.0879(3) 0.66079(15)
C1_3 C 0.6167(5) 0.0711(5) 0.6578(2)
C2_3 C 0.6852(4) 0.0745(4) 0.70572(18)
C3_3 C 0.7941(5) 0.0730(6) 0.7005(2)
H3_3 H 0.8246 0.0709 0.6672
C4_3 C 0.8586(4) 0.0746(5) 0.7449(2)
H4_3 H 0.9321 0.0758 0.7411
O3_3 O 0.8414(3) 0.0487(3) 0.88541(14)
O4_3 O 0.9794(3) 0.0879(3) 0.83921(15)
C7_3 C 0.8833(5) 0.0711(5) 0.8422(2)
C8_3 C 0.8148(4) 0.0745(4) 0.79428(18)
C9_3 C 0.7059(5) 0.0730(6) 0.7995(2)
H6_3 H 0.6754 0.0709 0.8328
C10_3 C 0.6414(4) 0.0746(5) 0.7551(2)
H7_3 H 0.5679 0.0758 0.7589
Co4_3 Co 0.95802(5) 0.06672(5) 0.93570(2)
O2_4 O 0.9794(3) 0.4121(3) 0.66079(15)
C1_4 C 0.8833(5) 0.4289(5) 0.6578(2)
C2_4 C 0.8148(4) 0.4255(4) 0.70572(18)
C3_4 C 0.7059(5) 0.4270(6) 0.7005(2)
H3_4 H 0.6754 0.4291 0.6672
C4_4 C 0.6414(4) 0.4254(5) 0.7449(2)
H4_4 H 0.5679 0.4242 0.7411
O3_4 O 0.6586(3) 0.4513(3) 0.88541(14)
O4_4 O 0.5206(3) 0.4121(3) 0.83921(15)
C7_4 C 0.6167(5) 0.4289(5) 0.8422(2)
C8_4 C 0.6852(4) 0.4255(4) 0.79428(18)
C9_4 C 0.7941(5) 0.4270(6) 0.7995(2)
H6_4 H 0.8246 0.4291 0.8328
C10_4 C 0.8586(4) 0.4254(5) 0.7551(2)
H7_4 H 0.9321 0.4242 0.7589
Co4_4 Co 0.54198(5) 0.43328(5) 0.93570(2)
H5_3 H 0.5647 0.2718 0.0269
Co5_3 Co 0.56672(5) 0.04198(5) 0.06430(2)
N1_3 N 0.5291(3) 0.1302(3) 0.99965(14)
N2_3 N 0.4980(3) 0.1001(3) 0.94904(14)
N3_3 N 0.4682(4) 0.1945(3) 0.87008(16)
H1_3 H 0.4502 0.1375 0.8537
H2_3 H 0.4683 0.2545 0.8539
N4_2 N 0.5254(3) 0.2749(3) 0.94997(14)
C5_3 C 0.5436(4) 0.2320(3) 0.99797(16)
C6_3 C 0.4960(3) 0.1899(3) 0.92085(17)
N6_3 N 0.1001(3) 0.0020(3) 0.94904(14)
N7_3 N 0.1945(3) 0.0318(4) 0.87008(16)
H8_3 H 0.1375 0.0498 0.8537
H9_3 H 0.2545 0.0317 0.8539
C12_3 C 0.1899(3) 0.0040(3) 0.92085(17)
H10_3 H 0.2718 0.9353 0.0269
Co6_3 Co 0.04198(5) 0.93328(5) 0.06430(2)
N9_3 N 0.4709(3) 0.8698(3) 0.00035(14)
N5_3 N 0.1302(3) 0.9709(3) 0.99965(14)
N8_3 N 0.2749(3) 0.9746(3) 0.94997(14)
C11_3 C 0.2320(3) 0.9564(4) 0.99797(16)
N10_3 N 0.8698(3) 0.0291(3) 0.00035(14)
N11_2 N 0.9746(3) 0.2251(3) 0.94997(14)
H10_4 H 0.2282 0.5647 0.0269
Co6_4 Co 0.45802(5) 0.56672(5) 0.06430(2)
N9_4 N 0.0291(3) 0.6302(3) 0.00035(14)
N10_4 N 0.6302(3) 0.4709(3) 0.00035(14)
N2_4 N 0.0020(3) 0.3999(3) 0.94904(14)
N3_4 N 0.0318(4) 0.3055(3) 0.87008(16)
H1_4 H 0.0498 0.3625 0.8537
H2_4 H 0.0317 0.2455 0.8539
C6_4 C 0.0040(3) 0.3101(3) 0.92085(17)
N5_4 N 0.3698(3) 0.5291(3) 0.99965(14)
N6_4 N 0.3999(3) 0.4980(3) 0.94904(14)
N7_4 N 0.3055(3) 0.4682(4) 0.87008(16)
H8_4 H 0.3625 0.4502 0.8537
H9_4 H 0.2455 0.4683 0.8539
N8_4 N 0.2251(3) 0.5254(3) 0.94997(14)
C11_4 C 0.2680(3) 0.5436(4) 0.99797(16)
C12_4 C 0.3101(3) 0.4960(3) 0.92085(17)
H5_4 H 0.9353 0.2282 0.0269
Co5_4 Co 0.93328(5) 0.45802(5) 0.06430(2)
N1_4 N 0.9709(3) 0.3698(3) 0.99965(14)
C5_4 C 0.9564(4) 0.2680(3) 0.99797(16)
N4_3 N 0.0254(3) 0.7251(3) 0.44997(14)
C5_5 C 0.0436(4) 0.7680(3) 0.49797(16)
H5_5 H 0.0647 0.7282 0.5269
O1_3 O 0.9513(3) 0.1586(3) 0.38541(14)
O2_5 O 0.9121(3) 0.0206(3) 0.33921(15)
C1_5 C 0.9289(5) 0.1167(5) 0.3422(2)
C2_5 C 0.9255(4) 0.1852(4) 0.29428(18)
C3_5 C 0.9270(6) 0.2941(5) 0.2995(2)
H3_5 H 0.9291 0.3246 0.3328
C4_5 C 0.9254(5) 0.3586(4) 0.2551(2)
H4_5 H 0.9242 0.4321 0.2589
O3_5 O 0.9513(3) 0.3414(3) 0.11459(14)
O4_5 O 0.9121(3) 0.4794(3) 0.16079(15)
C7_5 C 0.9289(5) 0.3833(5) 0.1578(2)
C8_5 C 0.9255(4) 0.3148(4) 0.20572(18)
C9_5 C 0.9270(6) 0.2059(5) 0.2005(2)
H6_5 H 0.9291 0.1754 0.1672
C10_5 C 0.9254(5) 0.1414(4) 0.2449(2)
H7_5 H 0.9242 0.0679 0.2411
N8_5 N 0.7749(3) 0.0254(3) 0.44997(14)
C11_5 C 0.7320(3) 0.0436(4) 0.49797(16)
H10_5 H 0.7718 0.0647 0.5269
N2_5 N 0.9980(3) 0.8999(3) 0.44904(14)
N3_5 N 0.9682(4) 0.8055(3) 0.37008(16)
H1_5 H 0.9502 0.8625 0.3537
H2_5 H 0.9683 0.7455 0.3539
C6_5 C 0.9960(3) 0.8101(3) 0.42085(17)
N6_5 N 0.6001(3) 0.9980(3) 0.44904(14)
N7_5 N 0.6945(3) 0.9682(4) 0.37008(16)
H8_5 H 0.6375 0.9502 0.3537
H9_5 H 0.7545 0.9683 0.3539
C12_5 C 0.6899(3) 0.9960(3) 0.42085(17)
O5_3 O 0.3414(3) 0.9513(3) 0.38541(14)
N11_3 N 0.4746(3) 0.7749(3) 0.44997(14)
O5_4 O 0.1586(3) 0.5487(3) 0.38541(14)
O1_4 O 0.5487(3) 0.3414(3) 0.38541(14)
O2_6 O 0.5879(3) 0.4794(3) 0.33921(15)
N2_6 N 0.5020(3) 0.6001(3) 0.44904(14)
N3_6 N 0.5318(4) 0.6945(3) 0.37008(16)
H1_6 H 0.5498 0.6375 0.3537
H2_6 H 0.5317 0.7545 0.3539
C1_6 C 0.5711(5) 0.3833(5) 0.3422(2)
C2_6 C 0.5745(4) 0.3148(4) 0.29428(18)
C3_6 C 0.5730(6) 0.2059(5) 0.2995(2)
H3_6 H 0.5709 0.1754 0.3328
C4_6 C 0.5746(5) 0.1414(4) 0.2551(2)
H4_6 H 0.5758 0.0679 0.2589
C5_6 C 0.4564(4) 0.7320(3) 0.49797(16)
H5_6 H 0.4353 0.7718 0.5269
C6_6 C 0.5040(3) 0.6899(3) 0.42085(17)
O3_6 O 0.5487(3) 0.1586(3) 0.11459(14)
O4_6 O 0.5879(3) 0.0206(3) 0.16079(15)
C7_6 C 0.5711(5) 0.1167(5) 0.1578(2)
C8_6 C 0.5745(4) 0.1852(4) 0.20572(18)
C9_6 C 0.5730(6) 0.2941(5) 0.2005(2)
H6_6 H 0.5709 0.3246 0.1672
C10_6 C 0.5746(5) 0.3586(4) 0.2449(2)
H7_6 H 0.5758 0.4321 0.2411
N6_6 N 0.8999(3) 0.5020(3) 0.44904(14)
N7_6 N 0.8055(3) 0.5318(4) 0.37008(16)
H8_6 H 0.8625 0.5498 0.3537
H9_6 H 0.7455 0.5317 0.3539
N8_6 N 0.7251(3) 0.4746(3) 0.44997(14)
C11_6 C 0.7680(3) 0.4564(4) 0.49797(16)
H10_6 H 0.7282 0.4353 0.5269
C12_6 C 0.8101(3) 0.5040(3) 0.42085(17)
O2_7 O 0.4794(3) 0.9121(3) 0.33921(15)
C1_7 C 0.3833(5) 0.9289(5) 0.3422(2)
C2_7 C 0.3148(4) 0.9255(4) 0.29428(18)
C3_7 C 0.2059(5) 0.9270(6) 0.2995(2)
H3_7 H 0.1754 0.9291 0.3328
C4_7 C 0.1414(4) 0.9254(5) 0.2551(2)
H4_7 H 0.0679 0.9242 0.2589
O3_7 O 0.1586(3) 0.9513(3) 0.11459(14)
O4_7 O 0.0206(3) 0.9121(3) 0.16079(15)
C7_7 C 0.1167(5) 0.9289(5) 0.1578(2)
C8_7 C 0.1852(4) 0.9255(4) 0.20572(18)
C9_7 C 0.2941(5) 0.9270(6) 0.2005(2)
H6_7 H 0.3246 0.9291 0.1672
C10_7 C 0.3586(4) 0.9254(5) 0.2449(2)
H7_7 H 0.4321 0.9242 0.2411
O2_8 O 0.0206(3) 0.5879(3) 0.33921(15)
C1_8 C 0.1167(5) 0.5711(5) 0.3422(2)
C2_8 C 0.1852(4) 0.5745(4) 0.29428(18)
C3_8 C 0.2941(5) 0.5730(6) 0.2995(2)
H3_8 H 0.3246 0.5709 0.3328
C4_8 C 0.3586(4) 0.5746(5) 0.2551(2)
H4_8 H 0.4321 0.5758 0.2589
O3_8 O 0.3414(3) 0.5487(3) 0.11459(14)
O4_8 O 0.4794(3) 0.5879(3) 0.16079(15)
C7_8 C 0.3833(5) 0.5711(5) 0.1578(2)
C8_8 C 0.3148(4) 0.5745(4) 0.20572(18)
C9_8 C 0.2059(5) 0.5730(6) 0.2005(2)
H6_8 H 0.1754 0.5709 0.1672
C10_8 C 0.1414(4) 0.5746(5) 0.2449(2)
H7_8 H 0.0679 0.5758 0.2411
N11_4 N 0.0254(3) 0.7749(3) 0.05003(14)
N8_7 N 0.7251(3) 0.0254(3) 0.05003(14)
C11_7 C 0.7680(3) 0.0436(4) 0.00203(16)
H10_7 H 0.7282 0.0647 0.9731
N2_7 N 0.5020(3) 0.8999(3) 0.05096(14)
N3_7 N 0.5318(4) 0.8055(3) 0.12992(16)
H1_7 H 0.5498 0.8625 0.1463
H2_7 H 0.5317 0.7455 0.1461
N4_4 N 0.4746(3) 0.7251(3) 0.05003(14)
C5_7 C 0.4564(4) 0.7680(3) 0.00203(16)
C6_7 C 0.5040(3) 0.8101(3) 0.07915(17)
N6_7 N 0.8999(3) 0.9980(3) 0.05096(14)
N7_7 N 0.8055(3) 0.9682(4) 0.12992(16)
H8_7 H 0.8625 0.9502 0.1463
H9_7 H 0.7455 0.9683 0.1461
C12_7 C 0.8101(3) 0.9960(3) 0.07915(17)
H5_7 H 0.4353 0.7282 0.9731
C5_8 C 0.0436(4) 0.7320(3) 0.00203(16)
H5_8 H 0.0647 0.7718 0.9731
N2_8 N 0.9980(3) 0.6001(3) 0.05096(14)
N3_8 N 0.9682(4) 0.6945(3) 0.12992(16)
H1_8 H 0.9502 0.6375 0.1463
H2_8 H 0.9683 0.7545 0.1461
C6_8 C 0.9960(3) 0.6899(3) 0.07915(17)
N6_8 N 0.6001(3) 0.5020(3) 0.05096(14)
N7_8 N 0.6945(3) 0.5318(4) 0.12992(16)
H8_8 H 0.6375 0.5498 0.1463
H9_8 H 0.7545 0.5317 0.1461
N8_8 N 0.7749(3) 0.4746(3) 0.05003(14)
C11_8 C 0.7320(3) 0.4564(4) 0.00203(16)
C12_8 C 0.6899(3) 0.5040(3) 0.07915(17)
H10_8 H 0.7718 0.4353 0.9731
loop_
_geom_bond_atom_site_label_1
_geom_bond_atom_site_label_2
_geom_bond_site_symmetry_1
_geom_bond_site_symmetry_2
N3 H1 1_555 1_555
H2 N3 1_555 1_555
C6 N2 1_555 1_555
Co2 N6 1_555 1_555
N6 C12 1_555 1_555
N7 H8 1_555 1_555
H9 N7 1_555 1_555
C12 N7 1_555 1_555
O5 Co2 1_555 1_555
N10 Co2 1_555 1_555
N11 Co2 1_555 1_555
N3 C6 1_555 1_555
Co1 O1 1_555 1_555
O1 C1 1_555 1_555
O2 C1 1_555 1_555
C1 C2 1_555 1_555
C2 C3 1_555 1_555
C3 H3 1_555 1_555
C4 C3 1_555 1_555
H4 C4 1_555 1_555
O3 C7 1_555 1_555
O4 C7 1_555 1_555
C7 C8 1_555 1_555
C8 C4 1_555 1_555
C9 C8 1_555 1_555
H6 C9 1_555 1_555
C10 C2 1_555 1_555
H7 C10 1_555 1_555
N8 Co1 1_555 1_555
C11 N5 1_555 1_555
H10 C11 1_555 1_555
Co4 O3 1_555 1_555
Co6 N5 1_555 1_555
N9 Co1 1_555 1_555
C9 C10 1_555 1_555
N8 C11 1_555 1_555
N4 C5 1_555 1_555
C5 N1 1_555 1_555
H5 C5 1_555 1_555
Co3 N4 1_555 1_555
Co5 N1 1_555 1_555
Co1_2 O1_2 1_555 1_555
O1_2 C1_2 1_555 1_555
O2_2 C1_2 1_555 1_555
N1_2 N2_2 1_555 1_555
N2_2 Co1_2 1_555 1_555
N3_2 H1_2 1_555 1_555
H2_2 N3_2 1_555 1_555
N11 C5_2 1_555 1_555
C1_2 C2_2 1_555 1_555
C2_2 C3_2 1_555 1_555
C3_2 H3_2 1_555 1_555
C4_2 C3_2 1_555 1_555
H4_2 C4_2 1_555 1_555
C5_2 N1_2 1_555 1_555
H5_2 C5_2 1_555 1_555
C6_2 N2_2 1_555 1_555
O3_2 C7_2 1_555 1_555
O4_2 C7_2 1_555 1_555
C7_2 C8_2 1_555 1_555
C8_2 C4_2 1_555 1_555
C9_2 C8_2 1_555 1_555
H6_2 C9_2 1_555 1_555
C10_2 C2_2 1_555 1_555
H7_2 C10_2 1_555 1_555
N5_2 N6_2 1_555 1_555
N6_2 C12_2 1_555 1_555
N7_2 H8_2 1_555 1_555
H9_2 N7_2 1_555 1_555
N8_2 Co1_2 1_555 1_555
C11_2 N5_2 1_555 1_555
H10_2 C11_2 1_555 1_555
C12_2 N7_2 1_555 1_555
Co4_2 O3_2 1_555 1_555
Co5_2 N1_2 1_555 1_555
Co6_2 N5_2 1_555 1_555
N9_2 Co1_2 1_555 1_555
N3_2 C6_2 1_555 1_555
N11 C6_2 1_555 1_555
C9_2 C10_2 1_555 1_555
N8_2 C11_2 1_555 1_555
N8_2 C12_2 1_555 1_555
O5_2 Co3 1_555 1_555
N10_2 Co3 1_555 1_555
O5 C1_3 1_555 1_555
O2_3 C1_3 1_555 1_555
C1_3 C2_3 1_555 1_555
C2_3 C3_3 1_555 1_555
C3_3 H3_3 1_555 1_555
C4_3 C3_3 1_555 1_555
H4_3 C4_3 1_555 1_555
O3_3 C7_3 1_555 1_555
O4_3 C7_3 1_555 1_555
C7_3 C8_3 1_555 1_555
C8_3 C4_3 1_555 1_555
C9_3 C8_3 1_555 1_555
H6_3 C9_3 1_555 1_555
C10_3 C2_3 1_555 1_555
H7_3 C10_3 1_555 1_555
Co4_3 O3_3 1_555 1_555
C9_3 C10_3 1_555 1_555
O5_2 C1_4 1_555 1_555
O2_4 C1_4 1_555 1_555
C1_4 C2_4 1_555 1_555
C2_4 C3_4 1_555 1_555
C3_4 H3_4 1_555 1_555
C4_4 C3_4 1_555 1_555
H4_4 C4_4 1_555 1_555
O3_4 C7_4 1_555 1_555
O4_4 C7_4 1_555 1_555
C7_4 C8_4 1_555 1_555
C8_4 C4_4 1_555 1_555
C9_4 C8_4 1_555 1_555
H6_4 C9_4 1_555 1_555
C10_4 C2_4 1_555 1_555
H7_4 C10_4 1_555 1_555
Co4_4 O3_4 1_555 1_555
C9_4 C10_4 1_555 1_555
N1_3 N2_3 1_555 1_555
N3_3 H1_3 1_555 1_555
H2_3 N3_3 1_555 1_555
N4_2 C5_3 1_555 1_555
C5_3 N1_3 1_555 1_555
C6_3 N2_3 1_555 1_555
N6_3 C12_3 1_555 1_555
N7_3 H8_3 1_555 1_555
H9_3 N7_3 1_555 1_555
C12_3 N7_3 1_555 1_555
Co4_4 N4_2 1_555 1_555
N3_3 C6_3 1_555 1_555
N4_2 C6_3 1_555 1_555
N8_3 Co4_2 1_555 1_555
C11_3 N5_3 1_555 1_555
N8_3 C11_3 1_555 1_555
N11_2 Co4_3 1_555 1_555
N2_4 Co4 1_555 1_555
N3_4 H1_4 1_555 1_555
H2_4 N3_4 1_555 1_555
C6_4 N2_4 1_555 1_555
Co4_4 N6_4 1_555 1_555
N5_4 N6_4 1_555 1_555
N6_4 C12_4 1_555 1_555
N7_4 H8_4 1_555 1_555
H9_4 N7_4 1_555 1_555
N8_4 Co4 1_555 1_555
C11_4 N5_4 1_555 1_555
C12_4 N7_4 1_555 1_555
N3_4 C6_4 1_555 1_555
N8_4 C11_4 1_555 1_555
N8_4 C12_4 1_555 1_555
N11_2 C5_4 1_555 1_555
C5_4 N1_4 1_555 1_555
N4_3 C5_5 1_555 1_555
C5_5 N9 1_555 1_555
H5_5 C5_5 1_555 1_555
Co6_2 N4_3 1_555 1_555
Co5 O1_3 1_555 1_555
O1_3 C1_5 1_555 1_555
O2_5 C1_5 1_555 1_555
C1_5 C2_5 1_555 1_555
C2_5 C3_5 1_555 1_555
C3_5 H3_5 1_555 1_555
C4_5 C3_5 1_555 1_555
H4_5 C4_5 1_555 1_555
O3_5 C7_5 1_555 1_555
O4_5 C7_5 1_555 1_555
C7_5 C8_5 1_555 1_555
C8_5 C4_5 1_555 1_555
C9_5 C8_5 1_555 1_555
H6_5 C9_5 1_555 1_555
C10_5 C2_5 1_555 1_555
H7_5 C10_5 1_555 1_555
N8_5 Co5 1_555 1_555
C11_5 N10 1_555 1_555
H10_5 C11_5 1_555 1_555
Co5_4 O3_5 1_555 1_555
C9_5 C10_5 1_555 1_555
N8_5 C11_5 1_555 1_555
N3_5 H1_5 1_555 1_555
H2_5 N3_5 1_555 1_555
C6_5 N2_5 1_555 1_555
Co6 N6_5 1_555 1_555
N6_5 C12_5 1_555 1_555
N7_5 H8_5 1_555 1_555
H9_5 N7_5 1_555 1_555
C12_5 N7_5 1_555 1_555
O5_3 Co6 1_555 1_555
N11_3 Co6 1_555 1_555
N3_5 C6_5 1_555 1_555
O5_4 Co6_2 1_555 1_555
Co5_2 O1_4 1_555 1_555
O1_4 C1_6 1_555 1_555
O2_6 C1_6 1_555 1_555
N9_2 N2_6 1_555 1_555
N2_6 Co5_2 1_555 1_555
N3_6 H1_6 1_555 1_555
H2_6 N3_6 1_555 1_555
N11_3 C5_6 1_555 1_555
C1_6 C2_6 1_555 1_555
C2_6 C3_6 1_555 1_555
C3_6 H3_6 1_555 1_555
C4_6 C3_6 1_555 1_555
H4_6 C4_6 1_555 1_555
C5_6 N9_2 1_555 1_555
H5_6 C5_6 1_555 1_555
C6_6 N2_6 1_555 1_555
O3_6 C7_6 1_555 1_555
O4_6 C7_6 1_555 1_555
C7_6 C8_6 1_555 1_555
C8_6 C4_6 1_555 1_555
C9_6 C8_6 1_555 1_555
H6_6 C9_6 1_555 1_555
C10_6 C2_6 1_555 1_555
H7_6 C10_6 1_555 1_555
N10_2 N6_6 1_555 1_555
N6_6 C12_6 1_555 1_555
N7_6 H8_6 1_555 1_555
H9_6 N7_6 1_555 1_555
N8_6 Co5_2 1_555 1_555
C11_6 N10_2 1_555 1_555
H10_6 C11_6 1_555 1_555
C12_6 N7_6 1_555 1_555
Co5_3 O3_6 1_555 1_555
N3_6 C6_6 1_555 1_555
N11_3 C6_6 1_555 1_555
C9_6 C10_6 1_555 1_555
N8_6 C11_6 1_555 1_555
N8_6 C12_6 1_555 1_555
O5_3 C1_7 1_555 1_555
O2_7 C1_7 1_555 1_555
C1_7 C2_7 1_555 1_555
C2_7 C3_7 1_555 1_555
C3_7 H3_7 1_555 1_555
C4_7 C3_7 1_555 1_555
H4_7 C4_7 1_555 1_555
O3_7 C7_7 1_555 1_555
O4_7 C7_7 1_555 1_555
C7_7 C8_7 1_555 1_555
C8_7 C4_7 1_555 1_555
C9_7 C8_7 1_555 1_555
H6_7 C9_7 1_555 1_555
C10_7 C2_7 1_555 1_555
H7_7 C10_7 1_555 1_555
Co6_3 O3_7 1_555 1_555
C9_7 C10_7 1_555 1_555
O5_4 C1_8 1_555 1_555
O2_8 C1_8 1_555 1_555
C1_8 C2_8 1_555 1_555
C2_8 C3_8 1_555 1_555
C3_8 H3_8 1_555 1_555
C4_8 C3_8 1_555 1_555
H4_8 C4_8 1_555 1_555
O3_8 C7_8 1_555 1_555
O4_8 C7_8 1_555 1_555
C7_8 C8_8 1_555 1_555
C8_8 C4_8 1_555 1_555
C9_8 C8_8 1_555 1_555
H6_8 C9_8 1_555 1_555
C10_8 C2_8 1_555 1_555
H7_8 C10_8 1_555 1_555
Co6_4 O3_8 1_555 1_555
C9_8 C10_8 1_555 1_555
N11_4 Co6_3 1_555 1_555
N8_7 Co5_3 1_555 1_555
C11_7 N10_3 1_555 1_555
N8_7 C11_7 1_555 1_555
N9_3 N2_7 1_555 1_555
N3_7 H1_7 1_555 1_555
H2_7 N3_7 1_555 1_555
N4_4 C5_7 1_555 1_555
C5_7 N9_3 1_555 1_555
C6_7 N2_7 1_555 1_555
N6_7 C12_7 1_555 1_555
N7_7 H8_7 1_555 1_555
H9_7 N7_7 1_555 1_555
C12_7 N7_7 1_555 1_555
Co6_4 N4_4 1_555 1_555
N3_7 C6_7 1_555 1_555
N4_4 C6_7 1_555 1_555
N11_4 C5_8 1_555 1_555
C5_8 N9_4 1_555 1_555
N2_8 Co5_4 1_555 1_555
N3_8 H1_8 1_555 1_555
H2_8 N3_8 1_555 1_555
C6_8 N2_8 1_555 1_555
Co6_4 N6_8 1_555 1_555
N10_4 N6_8 1_555 1_555
N6_8 C12_8 1_555 1_555
N7_8 H8_8 1_555 1_555
H9_8 N7_8 1_555 1_555
N8_8 Co5_4 1_555 1_555
C11_8 N10_4 1_555 1_555
C12_8 N7_8 1_555 1_555
N3_8 C6_8 1_555 1_555
N8_8 C11_8 1_555 1_555
N8_8 C12_8 1_555 1_555

#END
