
###############################################################################
#
# This file contains modified crystal structure data generated from the
# MOF subset of the Cambridge Structural Database (CSD) v543 
# hosted by the Cambridge Crystallographic Data Centre (CCDC).
#
# This work is licensed under the Creative Commons
# Attribution-NonCommercial-ShareAlike 4.0 International License.
# To view a copy of this license, visit
# http://creativecommons.org/licenses/by-nc-sa/4.0/
# or send a letter to
# Creative Commons, PO Box 1866, Mountain View, CA 94042, USA.
#
# CIF created using the CSD Python API on 29 September 2022
# The structure has been converted into the P1 space group
# The structure has a 3D framework
# The original CSD entry PEQKIJ is in the rhombohedral crystal system
# The framework has been calculated to contain at least 10.0% void space
# The void calculation uses a probe of radius 1.32A, grid spacing 0.4
# The framework is charged, counterions have been retained in the structure
#
###############################################################################

data_PEQKIJ
_chemical_formula_moiety         '(C900 H1224 Ag150 F108 N36 S72 Sb18)n'
_symmetry_cell_setting           triclinic
_symmetry_space_group_name_H-M   'P 1'
_symmetry_Int_Tables_number      1
_space_group_name_Hall           'P 1'
loop_
_symmetry_equiv_pos_site_id
_symmetry_equiv_pos_as_xyz
1 x,y,z
_cell_length_a                   27.410(3)
_cell_length_b                   27.410(3)
_cell_length_c                   43.785(4)
_cell_angle_alpha                90
_cell_angle_beta                 90
_cell_angle_gamma                120
_cell_volume                     28488.8
loop_
_atom_site_label
_atom_site_type_symbol
_atom_site_fract_x
_atom_site_fract_y
_atom_site_fract_z
H8 H 0.010266 0.649020 0.443635
H15 H 0.032280 0.578709 0.449979
H17 H 0.021440 0.556257 0.510704
C22 C 0.0098(11) 0.6453(12) 0.4895(6)
H20 H 0.000816 0.674774 0.493278
H21 H 0.050337 0.661641 0.490515
H24 H 0.013406 0.379183 0.465973
C28 C 0.0017(7) 0.3323(10) 0.5227(5)
H32 H 0.008773 0.335542 0.544545
H33 H 0.033905 0.333962 0.512544
H36 H 0.027890 0.417085 0.515961
Ag1 Ag 0.666667 0.333333 0.49846(6)
Ag2 Ag 0.76441(6) 0.43377(6) 0.48413(4)
Ag3 Ag 0.72671(6) 0.39215(7) 0.54986(4)
Ag4 Ag 0.66321(7) 0.39523(7) 0.44859(4)
Ag5 Ag 0.77190(6) 0.34258(6) 0.50888(4)
Ag6 Ag 0.77340(6) 0.51395(6) 0.53237(4)
Ag7 Ag 0.77422(7) 0.50423(8) 0.43041(4)
Ag8 Ag 0.84304(8) 0.40659(8) 0.56411(4)
Ag9 Ag 0.666667 0.333333 0.38445(9)
S1 S 0.81882(19) 0.5399(2) 0.48048(12)
S2 S 0.8112(3) 0.4753(3) 0.57232(14)
S3 S 0.6966(2) 0.4353(2) 0.39781(12)
S4 S 0.8292(2) 0.3173(2) 0.54314(12)
C1 C 0.7924(6) 0.4803(6) 0.6114(2)
C2 C 0.8894(7) 0.3228(9) 0.5221(4)
C3 C 0.6480(8) 0.4586(9) 0.3836(5)
C4 C 0.8943(10) 0.5586(11) 0.4801(6)
C5 C 0.8404(10) 0.6418(10) 0.3416(6)
N1 N 0.8246(9) 0.5727(10) 0.3912(4)
C6 C 0.8471(11) 0.6757(10) 0.3139(6)
C7 C 0.8223(11) 0.5537(11) 0.3626(6)
H1 H 0.813329 0.516476 0.359836
C8 C 0.8716(10) 0.6718(10) 0.2872(5)
H2 H 0.884222 0.646163 0.285221
C9 C 0.8259(10) 0.7134(11) 0.3145(6)
H3 H 0.807053 0.715814 0.331607
C10 C 0.8357(11) 0.6212(12) 0.3929(6)
H4 H 0.839375 0.634430 0.412818
C11 C 0.8327(10) 0.5869(11) 0.3378(6)
H5 H 0.834621 0.573867 0.318467
N2 N 0.8575(8) 0.7430(9) 0.2630(5)
C12 C 0.8768(11) 0.7072(10) 0.2635(6)
H6 H 0.895646 0.705798 0.246114
C13 C 0.8438(11) 0.6609(11) 0.3708(6)
H7 H 0.850822 0.697011 0.375410
C14 C 0.9891(11) 0.6203(12) 0.4592(7)
C15 C 0.9184(11) 0.5867(12) 0.5146(6)
H9 H 0.916832 0.621023 0.517464
H10 H 0.897351 0.560340 0.530787
C16 C 0.9010(11) 0.5097(11) 0.4772(7)
H11 H 0.882298 0.489537 0.458727
H12 H 0.882843 0.484784 0.494386
C17 C 0.9817(12) 0.5993(12) 0.5132(7)
H13 H 0.999545 0.614264 0.532989
C18 C 0.9930(12) 0.5684(11) 0.4519(6)
H14 H 0.974544 0.552675 0.432581
C19 C 0.9834(12) 0.5488(12) 0.5071(6)
H16 H 0.958933 0.520166 0.521605
C20 C 0.9664(11) 0.5258(12) 0.4760(6)
H18 H 0.970667 0.492769 0.472501
C21 C 0.8339(11) 0.7470(11) 0.2886(6)
H19 H 0.822098 0.773419 0.289515
C23 C 0.9290(11) 0.6031(12) 0.4564(6)
H22 H 0.915647 0.588226 0.436125
H23 H 0.924362 0.635699 0.459269
C24 C 0.9815(9) 0.3763(8) 0.4771(4)
H25 H 0.975695 0.406891 0.470508
C25 C 0.8972(8) 0.2732(8) 0.5331(4)
H26 H 0.863129 0.237644 0.529256
H27 H 0.904492 0.276394 0.554926
C26 C 0.8771(7) 0.3168(10) 0.4874(5)
H28 H 0.871457 0.347127 0.480366
H29 H 0.843061 0.281334 0.483267
C27 C 0.9456(10) 0.3795(8) 0.5281(5)
H30 H 0.941111 0.410795 0.521482
H31 H 0.953392 0.383576 0.549834
C29 C 0.9357(10) 0.2697(8) 0.4809(5)
H34 H 0.966815 0.270333 0.470020
H35 H 0.901931 0.234132 0.476709
C30 C 0.9936(7) 0.3812(7) 0.5117(5)
C31 C 0.9278(9) 0.3187(9) 0.4700(3)
H37 H 0.920368 0.315300 0.447938
C32 C 0.6157(9) 0.4859(9) 0.3350(4)
H38 H 0.619617 0.489503 0.312749
C33 C 0.6342(10) 0.5441(7) 0.3498(5)
H39 H 0.673375 0.570067 0.344865
H40 H 0.611678 0.559281 0.341634
C34 C 0.5649(9) 0.4962(10) 0.3930(5)
H41 H 0.540811 0.509796 0.385110
H42 H 0.560561 0.492828 0.414984
C35 C 0.6655(8) 0.5163(9) 0.3984(5)
H43 H 0.704746 0.542895 0.394085
H44 H 0.660702 0.512299 0.420416
C36 C 0.5857(9) 0.4159(7) 0.3923(5)
H45 H 0.581680 0.412549 0.414295
H46 H 0.574719 0.379015 0.383902
C37 C 0.6270(9) 0.5381(7) 0.3847(5)
H47 H 0.637795 0.574998 0.393613
C38 C 0.5539(8) 0.4429(9) 0.3439(5)
H48 H 0.528865 0.454941 0.335556
H49 H 0.543405 0.406299 0.335239
C39 C 0.5478(6) 0.4381(8) 0.3789(5)
H50 H 0.508407 0.411584 0.384033
C40 C 0.9479(9) 0.2751(7) 0.5156(5)
H51 H 0.953261 0.244060 0.522415
C41 C 0.7395(6) 0.5221(6) 0.6551(3)
H52 H 0.729210 0.527298 0.675533
H53 H 0.725743 0.539386 0.640744
C42 C 0.7128(4) 0.4588(6) 0.6481(3)
H54 H 0.671758 0.440805 0.650268
C43 C 0.7997(6) 0.4592(6) 0.6670(3)
H55 H 0.813923 0.441583 0.681174
C44 C 0.8042(6) 0.5505(4) 0.6526(3)
H56 H 0.821278 0.590560 0.657573
C45 C 0.7349(6) 0.4301(5) 0.6698(3)
H57 H 0.718200 0.390570 0.664595
H58 H 0.724632 0.432784 0.690685
C46 C 0.8274(6) 0.5228(6) 0.6743(3)
H59 H 0.819397 0.527869 0.695282
H60 H 0.867886 0.540570 0.671937
C47 C 0.7275(5) 0.4517(6) 0.6144(3)
H61 H 0.710149 0.411988 0.609401
H62 H 0.713197 0.469018 0.600426
C48 C 0.8153(6) 0.4524(6) 0.6335(3)
H63 H 0.855851 0.470205 0.631396
H64 H 0.798891 0.412789 0.628545
C49 C 0.8197(6) 0.5440(5) 0.6188(3)
H65 H 0.805823 0.561667 0.604844
H66 H 0.860312 0.562208 0.616617
C50 C 0.6548(9) 0.4642(10) 0.3485(5)
H67 H 0.644681 0.427934 0.339621
H68 H 0.693749 0.490482 0.343357
Ag10 Ag 0.56623(6) 0.33064(8) 0.48413(4)
Ag11 Ag 0.60785(7) 0.33456(9) 0.54986(4)
Ag12 Ag 0.60477(7) 0.26798(10) 0.44859(4)
Ag13 Ag 0.65742(6) 0.42932(8) 0.50888(4)
Ag14 Ag 0.48605(6) 0.25945(8) 0.53237(4)
Ag15 Ag 0.49577(8) 0.26999(11) 0.43041(4)
Ag16 Ag 0.59341(8) 0.43645(11) 0.56411(4)
S5 S 0.4601(2) 0.27892(28) 0.48048(12)
S6 S 0.5247(3) 0.3359(4) 0.57232(14)
S7 S 0.5647(2) 0.2613(3) 0.39781(12)
S8 S 0.6827(2) 0.5119(3) 0.54314(12)
C51 C 0.5197(6) 0.3121(8) 0.6114(2)
C52 C 0.6772(9) 0.5666(11) 0.5221(4)
C53 C 0.5414(9) 0.1894(12) 0.3836(5)
C54 C 0.4414(11) 0.3357(15) 0.4801(6)
C55 C 0.3582(10) 0.1986(14) 0.3416(6)
N3 N 0.4273(10) 0.2519(13) 0.3912(4)
C56 C 0.3243(10) 0.1714(15) 0.3139(6)
C57 C 0.4463(11) 0.2686(16) 0.3626(6)
H69 H 0.483524 0.296853 0.359836
C58 C 0.3282(10) 0.1998(14) 0.2872(5)
H70 H 0.353837 0.238059 0.285221
C59 C 0.2866(11) 0.1125(15) 0.3145(6)
H71 H 0.284186 0.091239 0.331607
C60 C 0.3788(12) 0.2145(16) 0.3929(6)
H72 H 0.365570 0.204945 0.412818
C61 C 0.4131(11) 0.2458(15) 0.3378(6)
H73 H 0.426133 0.260754 0.318467
N4 N 0.2570(9) 0.1145(12) 0.2630(5)
C62 C 0.2928(10) 0.1696(15) 0.2635(6)
H74 H 0.294202 0.189848 0.246114
C63 C 0.3391(11) 0.1829(16) 0.3708(6)
H75 H 0.302989 0.153811 0.375410
C64 C 0.3797(12) 0.3688(16) 0.4592(7)
H76 H 0.350980 0.361246 0.443635
C65 C 0.4133(12) 0.3317(16) 0.5146(6)
H77 H 0.378977 0.295809 0.517464
H78 H 0.439660 0.337011 0.530787
C66 C 0.4903(11) 0.3913(16) 0.4772(7)
H79 H 0.510463 0.392761 0.458727
H80 H 0.515216 0.398059 0.494386
C67 C 0.4007(12) 0.3824(17) 0.5132(7)
H81 H 0.385736 0.385281 0.532989
C68 C 0.4316(11) 0.4246(16) 0.4519(6)
H82 H 0.447325 0.421869 0.432581
H83 H 0.421291 0.453571 0.449979
C69 C 0.4512(12) 0.4346(17) 0.5071(6)
H84 H 0.479834 0.438767 0.521605
H85 H 0.443743 0.465183 0.510704
C70 C 0.4742(12) 0.4406(16) 0.4760(6)
H86 H 0.507231 0.477898 0.472501
C71 C 0.2530(11) 0.0869(16) 0.2886(6)
H87 H 0.226581 0.048679 0.289515
C72 C 0.3547(12) 0.3645(16) 0.4895(6)
H88 H 0.325226 0.326042 0.493278
H89 H 0.338359 0.388696 0.490515
C73 C 0.3969(12) 0.3259(16) 0.4564(6)
H90 H 0.411774 0.327421 0.436125
H91 H 0.364301 0.288663 0.459269
C74 C 0.6237(8) 0.6052(12) 0.4771(4)
H92 H 0.620817 0.634223 0.465973
H93 H 0.593109 0.568804 0.470508
C75 C 0.7268(8) 0.6240(11) 0.5331(4)
H94 H 0.762356 0.625485 0.529256
H95 H 0.723606 0.628098 0.554926
C76 C 0.6832(10) 0.5603(12) 0.4874(5)
H96 H 0.652873 0.524330 0.480366
H97 H 0.718666 0.561727 0.483267
C77 C 0.6205(8) 0.5661(13) 0.5281(5)
H98 H 0.589205 0.530316 0.521482
H99 H 0.616424 0.569816 0.549834
C78 C 0.6677(10) 0.6694(12) 0.5227(5)
H100 H 0.664458 0.673231 0.544545
H101 H 0.666038 0.699943 0.512544
C79 C 0.7303(8) 0.6660(13) 0.4809(5)
H102 H 0.729667 0.696482 0.470020
H103 H 0.765868 0.667799 0.476709
C80 C 0.6188(7) 0.6124(10) 0.5117(5)
H104 H 0.582915 0.610805 0.515961
C81 C 0.6813(9) 0.6091(13) 0.4700(3)
H105 H 0.684700 0.605068 0.447938
C82 C 0.5141(9) 0.1298(13) 0.3350(4)
H106 H 0.510497 0.130114 0.312749
C83 C 0.4559(7) 0.0901(12) 0.3498(5)
H107 H 0.429933 0.103308 0.344865
H108 H 0.440719 0.052397 0.341634
C84 C 0.5038(10) 0.0687(13) 0.3930(5)
H109 H 0.490204 0.031015 0.385110
H110 H 0.507172 0.067733 0.414984
C85 C 0.4837(9) 0.1492(12) 0.3984(5)
H111 H 0.457105 0.161851 0.394085
H112 H 0.487701 0.148403 0.420416
C86 C 0.5841(7) 0.1698(11) 0.3923(5)
H113 H 0.587451 0.169131 0.414295
H114 H 0.620985 0.195704 0.383902
C87 C 0.4619(7) 0.0889(11) 0.3847(5)
H115 H 0.425002 0.062797 0.393613
C88 C 0.5571(9) 0.1110(12) 0.3439(5)
H116 H 0.545059 0.073924 0.335556
H117 H 0.593701 0.137106 0.335239
C89 C 0.5619(8) 0.1097(10) 0.3789(5)
H118 H 0.588416 0.096823 0.384033
C90 C 0.7249(7) 0.6728(11) 0.5156(5)
H119 H 0.755940 0.709201 0.522415
C91 C 0.4779(6) 0.2174(8) 0.6551(3)
H120 H 0.472702 0.201912 0.675533
H121 H 0.460614 0.186357 0.640744
C92 C 0.5412(6) 0.2540(7) 0.6481(3)
H122 H 0.559195 0.230953 0.650268
C93 C 0.5408(6) 0.3405(8) 0.6670(3)
H123 H 0.558417 0.372340 0.681174
C94 C 0.4495(4) 0.2537(7) 0.6526(3)
H124 H 0.409440 0.230718 0.657573
C95 C 0.5699(5) 0.3048(8) 0.6698(3)
H125 H 0.609430 0.327630 0.664595
H126 H 0.567216 0.291848 0.690685
C96 C 0.4772(6) 0.3046(8) 0.6743(3)
H127 H 0.472131 0.291528 0.695282
H128 H 0.459430 0.327316 0.671937
C97 C 0.5483(6) 0.2758(8) 0.6144(3)
H129 H 0.588012 0.298161 0.609401
H130 H 0.530982 0.244179 0.600426
C98 C 0.5476(6) 0.3629(8) 0.6335(3)
H131 H 0.529795 0.385646 0.631396
H132 H 0.587211 0.386102 0.628545
C99 C 0.4560(5) 0.2757(8) 0.6188(3)
H133 H 0.438333 0.244156 0.604844
H134 H 0.437792 0.298104 0.616617
C100 C 0.5358(10) 0.1906(13) 0.3485(5)
H135 H 0.572066 0.216747 0.339621
H136 H 0.509518 0.203267 0.343357
Ag17 Ag 0.66936(8) 0.23559(6) 0.48413(4)
Ag18 Ag 0.66544(9) 0.27329(6) 0.54986(4)
Ag19 Ag 0.73202(10) 0.33679(7) 0.44859(4)
Ag20 Ag 0.57068(8) 0.22810(6) 0.50888(4)
Ag21 Ag 0.74055(8) 0.22660(6) 0.53237(4)
Ag22 Ag 0.73001(11) 0.22578(7) 0.43041(4)
Ag23 Ag 0.56355(11) 0.15696(8) 0.56411(4)
S9 S 0.72108(28) 0.18118(19) 0.48048(12)
S10 S 0.6641(4) 0.1888(3) 0.57232(14)
S11 S 0.7387(3) 0.3034(2) 0.39781(12)
S12 S 0.4881(3) 0.1708(2) 0.54314(12)
C101 C 0.6879(8) 0.2076(6) 0.6114(2)
C102 C 0.4334(11) 0.1106(7) 0.5221(4)
C103 C 0.8106(12) 0.3520(8) 0.3836(5)
C104 C 0.6643(15) 0.1057(10) 0.4801(6)
C105 C 0.8014(14) 0.1596(10) 0.3416(6)
N5 N 0.7481(13) 0.1754(9) 0.3912(4)
C106 C 0.8286(15) 0.1529(11) 0.3139(6)
C107 C 0.7314(16) 0.1777(11) 0.3626(6)
H137 H 0.703147 0.186671 0.359836
C108 C 0.8002(14) 0.1284(10) 0.2872(5)
H138 H 0.761941 0.115778 0.285221
C109 C 0.8875(15) 0.1741(10) 0.3145(6)
H139 H 0.908761 0.192947 0.331607
C110 C 0.7855(16) 0.1643(11) 0.3929(6)
H140 H 0.795055 0.160625 0.412818
C111 C 0.7542(15) 0.1673(10) 0.3378(6)
H141 H 0.739246 0.165379 0.318467
N6 N 0.8855(12) 0.1425(8) 0.2630(5)
C112 C 0.8304(15) 0.1232(11) 0.2635(6)
H142 H 0.810152 0.104354 0.246114
C113 C 0.8171(16) 0.1562(11) 0.3708(6)
H143 H 0.846189 0.149178 0.375410
C114 C 0.6312(16) 0.0109(11) 0.4592(7)
C115 C 0.6683(16) 0.0816(11) 0.5146(6)
H145 H 0.704191 0.083168 0.517464
H146 H 0.662989 0.102649 0.530787
C116 C 0.6087(16) 0.0990(11) 0.4772(7)
H147 H 0.607239 0.117702 0.458727
H148 H 0.601941 0.117157 0.494386
C117 C 0.6176(17) 0.0183(12) 0.5132(7)
H149 H 0.614719 0.000455 0.532989
C118 C 0.5754(16) 0.0070(12) 0.4519(6)
H150 H 0.578131 0.025456 0.432581
C119 C 0.5654(17) 0.0166(12) 0.5071(6)
H152 H 0.561233 0.041067 0.521605
C120 C 0.5594(16) 0.0336(11) 0.4760(6)
H154 H 0.522102 0.029333 0.472501
C121 C 0.9131(16) 0.1661(11) 0.2886(6)
H155 H 0.951321 0.177902 0.289515
C123 C 0.6741(16) 0.0710(11) 0.4564(6)
H158 H 0.672579 0.084353 0.436125
H159 H 0.711337 0.075638 0.459269
C124 C 0.3948(12) 0.0185(9) 0.4771(4)
H161 H 0.431196 0.024305 0.470508
C125 C 0.3760(11) 0.1028(8) 0.5331(4)
H162 H 0.374515 0.136871 0.529256
H163 H 0.371902 0.095508 0.554926
C126 C 0.4397(12) 0.1229(7) 0.4874(5)
H164 H 0.475670 0.128543 0.480366
H165 H 0.438273 0.156939 0.483267
C127 C 0.4339(13) 0.0544(10) 0.5281(5)
H166 H 0.469684 0.058889 0.521482
H167 H 0.430184 0.046608 0.549834
C129 C 0.3340(13) 0.0643(10) 0.4809(5)
H170 H 0.303518 0.033185 0.470020
H171 H 0.332201 0.098069 0.476709
C130 C 0.3876(10) 0.0064(7) 0.5117(5)
C131 C 0.3909(13) 0.0722(9) 0.4700(3)
H173 H 0.394932 0.079632 0.447938
C132 C 0.8702(13) 0.3843(9) 0.3350(4)
H174 H 0.869886 0.380383 0.312749
C133 C 0.9099(12) 0.3658(10) 0.3498(5)
H175 H 0.896692 0.326625 0.344865
H176 H 0.947603 0.388322 0.341634
C134 C 0.9313(13) 0.4351(9) 0.3930(5)
H177 H 0.968985 0.459189 0.385110
H178 H 0.932267 0.439439 0.414984
C135 C 0.8508(12) 0.3345(8) 0.3984(5)
H179 H 0.838149 0.295254 0.394085
H180 H 0.851597 0.339298 0.420416
C136 C 0.8302(11) 0.4143(9) 0.3923(5)
H181 H 0.830869 0.418320 0.414295
H182 H 0.804296 0.425281 0.383902
C137 C 0.9111(11) 0.3730(9) 0.3847(5)
H183 H 0.937203 0.362205 0.393613
C138 C 0.8890(12) 0.4461(8) 0.3439(5)
H184 H 0.926076 0.471135 0.335556
H185 H 0.862894 0.456595 0.335239
C139 C 0.8903(10) 0.4522(6) 0.3789(5)
H186 H 0.903177 0.491593 0.384033
C140 C 0.3272(11) 0.0521(9) 0.5156(5)
H187 H 0.290799 0.046739 0.522415
C141 C 0.7826(8) 0.2605(6) 0.6551(3)
H188 H 0.798088 0.270790 0.675533
H189 H 0.813643 0.274257 0.640744
C142 C 0.7460(7) 0.2872(4) 0.6481(3)
H190 H 0.769047 0.328242 0.650268
C143 C 0.6595(8) 0.2003(6) 0.6670(3)
H191 H 0.627660 0.186077 0.681174
C144 C 0.7463(7) 0.1958(6) 0.6526(3)
H192 H 0.769282 0.178722 0.657573
C145 C 0.6952(8) 0.2651(6) 0.6698(3)
H193 H 0.672370 0.281800 0.664595
H194 H 0.708152 0.275368 0.690685
C146 C 0.6954(8) 0.1726(6) 0.6743(3)
H195 H 0.708472 0.180603 0.695282
H196 H 0.672684 0.132114 0.671937
C147 C 0.7242(8) 0.2725(5) 0.6144(3)
H197 H 0.701839 0.289851 0.609401
H198 H 0.755821 0.286803 0.600426
C148 C 0.6371(8) 0.1847(6) 0.6335(3)
H199 H 0.614354 0.144149 0.631396
H200 H 0.613898 0.201109 0.628545
C149 C 0.7243(8) 0.1803(6) 0.6188(3)
H201 H 0.755844 0.194177 0.604844
H202 H 0.701896 0.139688 0.616617
C150 C 0.8094(13) 0.3452(9) 0.3485(5)
H203 H 0.783253 0.355319 0.339621
H204 H 0.796733 0.306251 0.343357
Ag24 Ag 0.17637(8) 0.07326(8) 0.23078(4)
Ag25 Ag 0.92674(8) 0.10312(11) 0.23078(4)
Ag26 Ag 0.89688(11) 0.82363(8) 0.23078(4)
N7 N 0.5242(8) 0.0763(9) 0.5963(5)
N8 N 0.9237(9) 0.4478(12) 0.5963(5)
N9 N 0.5522(12) 0.4758(8) 0.5963(5)
C6_2 C 0.5138(11) 0.0090(10) 0.6472(6)
C8_2 C 0.5383(10) 0.0051(10) 0.6205(5)
C9_2 C 0.4926(10) 0.0467(11) 0.6478(6)
H3_2 H 0.473720 0.049147 0.664940
C12_2 C 0.5435(11) 0.0405(10) 0.5968(6)
H6_2 H 0.562313 0.039131 0.579447
H7_2 H 0.517489 0.030344 0.708743
C21_2 C 0.5006(11) 0.0803(11) 0.6219(6)
H19_2 H 0.488765 0.106752 0.622848
H20_2 H 0.667483 0.008107 0.826611
C78_2 C 0.3344(10) 0.0027(12) 0.8560(5)
H100_2 H 0.331125 0.006564 0.877878
H101_2 H 0.332705 0.033276 0.845877
H102_2 H 0.396334 0.029815 0.803353
H103_2 H 0.432535 0.001132 0.810042
C90_2 C 0.3916(7) 0.0061(11) 0.8489(5)
H119_2 H 0.422607 0.042534 0.855748
Ag1_2 Ag 0.333334 0.666666 0.83179(6)
Ag2_2 Ag 0.43108(6) 0.76710(6) 0.81746(4)
Ag3_2 Ag 0.39338(6) 0.72548(7) 0.88319(4)
Ag4_2 Ag 0.32988(7) 0.72856(7) 0.78192(4)
Ag5_2 Ag 0.43857(6) 0.67591(6) 0.84221(4)
Ag6_2 Ag 0.44007(6) 0.84728(6) 0.86570(4)
Ag7_2 Ag 0.44089(7) 0.83756(8) 0.76374(4)
Ag8_2 Ag 0.50971(8) 0.73992(8) 0.89744(4)
Ag9_2 Ag 0.333334 0.666666 0.71778(9)
S1_2 S 0.48549(19) 0.8732(2) 0.81381(12)
S2_2 S 0.4779(3) 0.8086(3) 0.90565(14)
S3_2 S 0.3633(2) 0.7686(2) 0.73114(12)
S4_2 S 0.4959(2) 0.6506(2) 0.87647(12)
C1_2 C 0.4591(6) 0.8136(6) 0.9447(2)
C2_2 C 0.5561(7) 0.6561(9) 0.8554(4)
C3_2 C 0.3147(8) 0.7919(9) 0.7169(5)
C4_2 C 0.5610(10) 0.8919(11) 0.8134(6)
C5_2 C 0.5071(10) 0.9751(10) 0.6749(6)
N1_2 N 0.4913(9) 0.9060(10) 0.7245(4)
C7_2 C 0.4890(11) 0.8870(11) 0.6959(6)
H1_2 H 0.479996 0.849809 0.693169
H2_2 H 0.550889 0.979496 0.618554
C10_2 C 0.5024(11) 0.9545(12) 0.7262(6)
H4_2 H 0.506042 0.967763 0.746151
C11_2 C 0.4994(10) 0.9202(11) 0.6711(6)
H5_2 H 0.501288 0.907200 0.651800
C13_2 C 0.5105(11) 0.9942(11) 0.7041(6)
C14_2 C 0.6558(11) 0.9536(12) 0.7925(7)
H8_2 H 0.676933 0.982353 0.776968
C15_2 C 0.5851(11) 0.9200(12) 0.8479(6)
H9_2 H 0.583499 0.954356 0.850797
H10_2 H 0.564018 0.893673 0.864120
C16_2 C 0.5677(11) 0.8430(11) 0.8105(7)
H11_2 H 0.548965 0.822870 0.792060
H12_2 H 0.549510 0.818117 0.827719
C17_2 C 0.6484(12) 0.9326(12) 0.8465(7)
H13_2 H 0.666212 0.947597 0.866322
C18_2 C 0.6597(12) 0.9017(11) 0.7852(6)
H14_2 H 0.641211 0.886008 0.765914
H15_2 H 0.698947 0.912042 0.783312
C19_2 C 0.6501(12) 0.8821(12) 0.8404(6)
H16_2 H 0.625600 0.853499 0.854938
H17_2 H 0.688107 0.889590 0.844037
C20_2 C 0.6331(11) 0.8591(12) 0.8093(6)
H18_2 H 0.637334 0.826102 0.805834
C22_2 C 0.6765(11) 0.9786(12) 0.8228(6)
H21_2 H 0.717004 0.994974 0.823848
C23_2 C 0.5957(11) 0.9364(12) 0.7897(6)
H22_2 H 0.582314 0.921559 0.769458
H23_2 H 0.591029 0.969032 0.792602
C24_2 C 0.6482(9) 0.7096(8) 0.8104(4)
H24_2 H 0.680073 0.712516 0.799306
H25_2 H 0.642362 0.740224 0.803841
C25_2 C 0.5639(8) 0.6065(8) 0.8664(4)
H26_2 H 0.529796 0.570977 0.862589
H27_2 H 0.571159 0.609727 0.888259
C26_2 C 0.5438(7) 0.6501(10) 0.8207(5)
H28_2 H 0.538124 0.680460 0.813699
H29_2 H 0.509728 0.614667 0.816600
C27_2 C 0.6123(10) 0.7128(8) 0.8614(5)
H30_2 H 0.607778 0.744128 0.854815
H31_2 H 0.620059 0.716909 0.883167
C28_2 C 0.6684(7) 0.6656(10) 0.8560(5)
H32_2 H 0.675440 0.668875 0.877878
H33_2 H 0.700572 0.667295 0.845877
C29_2 C 0.6024(10) 0.6030(8) 0.8142(5)
H34_2 H 0.633482 0.603666 0.803353
H35_2 H 0.568598 0.567465 0.810042
C30_2 C 0.6603(7) 0.7145(7) 0.8450(5)
H36_2 H 0.694557 0.750418 0.849294
C31_2 C 0.5945(9) 0.6520(9) 0.8033(3)
H37_2 H 0.587035 0.648633 0.781271
C32_2 C 0.2824(9) 0.8192(9) 0.6683(4)
H38_2 H 0.286284 0.822836 0.646082
C33_2 C 0.3009(10) 0.8774(7) 0.6831(5)
H39_2 H 0.340042 0.903400 0.678198
H40_2 H 0.278345 0.892614 0.674967
C34_2 C 0.2316(9) 0.8295(10) 0.7263(5)
H41_2 H 0.207478 0.843129 0.718443
H42_2 H 0.227228 0.826161 0.748317
C35_2 C 0.3322(8) 0.8496(9) 0.7317(5)
H43_2 H 0.371413 0.876228 0.727418
H44_2 H 0.327369 0.845632 0.753749
C36_2 C 0.2524(9) 0.7492(7) 0.7256(5)
H45_2 H 0.248347 0.745882 0.747628
H46_2 H 0.241386 0.712348 0.717235
C37_2 C 0.2937(9) 0.8714(7) 0.7180(5)
H47_2 H 0.304462 0.908331 0.726946
C38_2 C 0.2206(8) 0.7762(9) 0.6772(5)
H48_2 H 0.195532 0.788274 0.668889
H49_2 H 0.210072 0.739632 0.668572
C39_2 C 0.2145(6) 0.7714(8) 0.7122(5)
H50_2 H 0.175074 0.744917 0.717366
C40_2 C 0.6146(9) 0.6084(7) 0.8489(5)
H51_2 H 0.619928 0.577393 0.855748
C41_2 C 0.4062(6) 0.8554(6) 0.9884(3)
H53_2 H 0.392410 0.872719 0.974077
C42_2 C 0.3795(4) 0.7921(6) 0.9814(3)
H54_2 H 0.338425 0.774138 0.983601
C44_2 C 0.4709(6) 0.8838(4) 0.9859(3)
H56_2 H 0.487945 0.923893 0.990906
H57_2 H 0.384867 0.723903 0.997928
C47_2 C 0.3942(5) 0.7850(6) 0.9477(3)
H61_2 H 0.376816 0.745321 0.942734
H62_2 H 0.379864 0.802351 0.933759
C48_2 C 0.4820(6) 0.7857(6) 0.9668(3)
H63_2 H 0.522518 0.803538 0.964729
H64_2 H 0.465558 0.746122 0.961878
C49_2 C 0.4864(6) 0.8773(5) 0.9521(3)
H65_2 H 0.472490 0.895000 0.938177
H66_2 H 0.526979 0.895541 0.949950
C50_2 C 0.3215(9) 0.7975(10) 0.6818(5)
H67_2 H 0.311348 0.761267 0.672954
H68_2 H 0.360416 0.823815 0.676690
Ag10_2 Ag 0.23290(6) 0.66397(8) 0.81746(4)
Ag11_2 Ag 0.27452(7) 0.66789(9) 0.88319(4)
Ag12_2 Ag 0.27144(7) 0.60131(10) 0.78192(4)
Ag13_2 Ag 0.32409(6) 0.76265(8) 0.84221(4)
Ag14_2 Ag 0.15272(6) 0.59278(8) 0.86570(4)
Ag15_2 Ag 0.16244(8) 0.60332(11) 0.76374(4)
Ag16_2 Ag 0.26008(8) 0.76978(11) 0.89744(4)
S5_2 S 0.1268(2) 0.61225(28) 0.81381(12)
S6_2 S 0.1914(3) 0.6692(4) 0.90565(14)
S7_2 S 0.2314(2) 0.5946(3) 0.73114(12)
S8_2 S 0.3494(2) 0.8452(3) 0.87647(12)
C51_2 C 0.1864(6) 0.6454(8) 0.9447(2)
C52_2 C 0.3439(9) 0.8999(11) 0.8554(4)
C53_2 C 0.2081(9) 0.5227(12) 0.7169(5)
C54_2 C 0.1081(11) 0.6690(15) 0.8134(6)
C55_2 C 0.0249(10) 0.5319(14) 0.6749(6)
N3_2 N 0.0940(10) 0.5852(13) 0.7245(4)
C57_2 C 0.1130(11) 0.6019(16) 0.6959(6)
H69_2 H 0.150191 0.630186 0.693169
H70_2 H 0.020504 0.571392 0.618554
C60_2 C 0.0455(12) 0.5478(16) 0.7262(6)
H72_2 H 0.032237 0.538278 0.746151
C61_2 C 0.0798(11) 0.5791(15) 0.6711(6)
H73_2 H 0.092800 0.594087 0.651800
C63_2 C 0.0058(11) 0.5162(16) 0.7041(6)
C64_2 C 0.0464(12) 0.7021(16) 0.7925(7)
H76_2 H 0.017647 0.694579 0.776968
C65_2 C 0.0800(12) 0.6650(16) 0.8479(6)
H77_2 H 0.045644 0.629142 0.850797
H78_2 H 0.106327 0.670344 0.864120
C66_2 C 0.1570(11) 0.7246(16) 0.8105(7)
H79_2 H 0.177130 0.726094 0.792060
H80_2 H 0.181883 0.731392 0.827719
C67_2 C 0.0674(12) 0.7157(17) 0.8465(7)
H81_2 H 0.052403 0.718614 0.866322
C68_2 C 0.0983(11) 0.7579(16) 0.7852(6)
H82_2 H 0.113992 0.755202 0.765914
H83_2 H 0.087958 0.786904 0.783312
C69_2 C 0.1179(12) 0.7679(17) 0.8404(6)
H84_2 H 0.146501 0.772100 0.854938
H85_2 H 0.110410 0.798516 0.844037
C70_2 C 0.1409(12) 0.7739(16) 0.8093(6)
H86_2 H 0.173898 0.811231 0.805834
C72_2 C 0.0214(12) 0.6978(16) 0.8228(6)
H89_2 H 0.005026 0.722029 0.823848
C73_2 C 0.0636(12) 0.6592(16) 0.7897(6)
H90_2 H 0.078441 0.660754 0.769458
H91_2 H 0.030968 0.621996 0.792602
C74_2 C 0.2904(8) 0.9385(12) 0.8104(4)
H92_2 H 0.287484 0.967556 0.799306
H93_2 H 0.259776 0.902137 0.803841
C75_2 C 0.3935(8) 0.9573(11) 0.8664(4)
H94_2 H 0.429023 0.958818 0.862589
H95_2 H 0.390273 0.961431 0.888259
C76_2 C 0.3499(10) 0.8936(12) 0.8207(5)
H96_2 H 0.319540 0.857663 0.813699
H97_2 H 0.385333 0.895060 0.816600
C77_2 C 0.2872(8) 0.8994(13) 0.8614(5)
H98_2 H 0.255872 0.863649 0.854815
H99_2 H 0.283091 0.903149 0.883167
C79_2 C 0.3970(8) 0.9993(13) 0.8142(5)
C80_2 C 0.2855(7) 0.9457(10) 0.8450(5)
H104_2 H 0.249582 0.944138 0.849294
C81_2 C 0.3480(9) 0.9424(13) 0.8033(3)
H105_2 H 0.351367 0.938401 0.781271
C82_2 C 0.1808(9) 0.4631(13) 0.6683(4)
H106_2 H 0.177164 0.463447 0.646082
C83_2 C 0.1226(7) 0.4234(12) 0.6831(5)
H107_2 H 0.096600 0.436641 0.678198
H108_2 H 0.107386 0.385730 0.674967
C84_2 C 0.1705(10) 0.4020(13) 0.7263(5)
H109_2 H 0.156871 0.364348 0.718443
H110_2 H 0.173839 0.401066 0.748317
C85_2 C 0.1504(9) 0.4825(12) 0.7317(5)
H111_2 H 0.123772 0.495184 0.727418
H112_2 H 0.154368 0.481736 0.753749
C86_2 C 0.2508(7) 0.5031(11) 0.7256(5)
H113_2 H 0.254118 0.502464 0.747628
H114_2 H 0.287652 0.529037 0.717235
C87_2 C 0.1286(7) 0.4222(11) 0.7180(5)
H115_2 H 0.091669 0.396130 0.726946
C88_2 C 0.2238(9) 0.4443(12) 0.6772(5)
H116_2 H 0.211726 0.407257 0.668889
H117_2 H 0.260368 0.470439 0.668572
C89_2 C 0.2286(8) 0.4430(10) 0.7122(5)
H118_2 H 0.255083 0.430156 0.717366
C91_2 C 0.1446(6) 0.5507(8) 0.9884(3)
H121_2 H 0.127281 0.519690 0.974077
C92_2 C 0.2079(6) 0.5873(7) 0.9814(3)
H122_2 H 0.225862 0.564286 0.983601
C94_2 C 0.1162(4) 0.5870(7) 0.9859(3)
H124_2 H 0.076107 0.564051 0.990906
H125_2 H 0.276097 0.660963 0.997928
C97_2 C 0.2150(6) 0.6091(8) 0.9477(3)
H129_2 H 0.254679 0.631494 0.942734
H130_2 H 0.197649 0.577512 0.933759
C98_2 C 0.2143(6) 0.6962(8) 0.9668(3)
H131_2 H 0.196462 0.718979 0.964729
H132_2 H 0.253878 0.719435 0.961878
C99_2 C 0.1227(5) 0.6090(8) 0.9521(3)
H133_2 H 0.105000 0.577489 0.938177
H134_2 H 0.104459 0.631437 0.949950
C100_2 C 0.2025(10) 0.5239(13) 0.6818(5)
H135_2 H 0.238733 0.550080 0.672954
H136_2 H 0.176185 0.536600 0.676690
Ag17_2 Ag 0.33603(8) 0.56892(6) 0.81746(4)
Ag18_2 Ag 0.33211(9) 0.60662(6) 0.88319(4)
Ag19_2 Ag 0.39869(10) 0.67012(7) 0.78192(4)
Ag20_2 Ag 0.23735(8) 0.56143(6) 0.84221(4)
Ag21_2 Ag 0.40722(8) 0.55993(6) 0.86570(4)
Ag22_2 Ag 0.39668(11) 0.55911(7) 0.76374(4)
Ag23_2 Ag 0.23022(11) 0.49029(8) 0.89744(4)
S9_2 S 0.38775(28) 0.51451(19) 0.81381(12)
S10_2 S 0.3308(4) 0.5221(3) 0.90565(14)
S11_2 S 0.4054(3) 0.6367(2) 0.73114(12)
S12_2 S 0.1548(3) 0.5041(2) 0.87647(12)
C101_2 C 0.3546(8) 0.5409(6) 0.9447(2)
C102_2 C 0.1001(11) 0.4439(7) 0.8554(4)
C103_2 C 0.4773(12) 0.6853(8) 0.7169(5)
C104_2 C 0.3310(15) 0.4390(10) 0.8134(6)
C105_2 C 0.4681(14) 0.4929(10) 0.6749(6)
N5_2 N 0.4148(13) 0.5087(9) 0.7245(4)
C106_2 C 0.4953(15) 0.4862(11) 0.6472(6)
C107_2 C 0.3981(16) 0.5110(11) 0.6959(6)
H137_2 H 0.369814 0.520004 0.693169
C108_2 C 0.4669(14) 0.4617(10) 0.6205(5)
H138_2 H 0.428608 0.449111 0.618554
C109_2 C 0.5542(15) 0.5074(10) 0.6478(6)
H139_2 H 0.575428 0.526280 0.664940
C110_2 C 0.4522(16) 0.4976(11) 0.7262(6)
H140_2 H 0.461722 0.493958 0.746151
C111_2 C 0.4209(15) 0.5006(10) 0.6711(6)
H141_2 H 0.405913 0.498712 0.651800
C112_2 C 0.4971(15) 0.4565(11) 0.5968(6)
H142_2 H 0.476819 0.437687 0.579447
C113_2 C 0.4838(16) 0.4895(11) 0.7041(6)
H143_2 H 0.512856 0.482511 0.708743
C114_2 C 0.2979(16) 0.3442(11) 0.7925(7)
H144 H 0.305421 0.323067 0.776968
C115_2 C 0.3350(16) 0.4149(11) 0.8479(6)
H145_2 H 0.370858 0.416501 0.850797
H146_2 H 0.329656 0.435982 0.864120
C116_2 C 0.2754(16) 0.4323(11) 0.8105(7)
H147_2 H 0.273906 0.451035 0.792060
H148_2 H 0.268608 0.450490 0.827719
C117_2 C 0.2843(17) 0.3516(12) 0.8465(7)
H149_2 H 0.281386 0.333788 0.866322
C118_2 C 0.2421(16) 0.3403(12) 0.7852(6)
H150_2 H 0.244798 0.358789 0.765914
H151 H 0.213096 0.301053 0.783312
C119_2 C 0.2321(17) 0.3499(12) 0.8404(6)
H152_2 H 0.227900 0.374400 0.854938
H153 H 0.201484 0.311893 0.844037
C120_2 C 0.2261(16) 0.3669(11) 0.8093(6)
H154_2 H 0.188769 0.362666 0.805834
C121_2 C 0.5798(16) 0.4994(11) 0.6219(6)
H155_2 H 0.617988 0.511235 0.622848
C122 C 0.3022(16) 0.3235(11) 0.8228(6)
H156 H 0.340625 0.332517 0.826611
H157 H 0.277971 0.282996 0.823848
C123_2 C 0.3408(16) 0.4043(11) 0.7897(6)
H158_2 H 0.339246 0.417686 0.769458
H159_2 H 0.378004 0.408971 0.792602
C124_2 C 0.0615(12) 0.3518(9) 0.8104(4)
H160 H 0.032444 0.319927 0.799306
H161_2 H 0.097863 0.357638 0.803841
C125_2 C 0.0427(11) 0.4361(8) 0.8664(4)
H162_2 H 0.041182 0.470204 0.862589
H163_2 H 0.038569 0.428841 0.888259
C126_2 C 0.1064(12) 0.4562(7) 0.8207(5)
H164_2 H 0.142337 0.461876 0.813699
H165_2 H 0.104940 0.490272 0.816600
C127_2 C 0.1006(13) 0.3877(10) 0.8614(5)
H166_2 H 0.136351 0.392222 0.854815
H167_2 H 0.096851 0.379941 0.883167
C129_2 C 0.0007(13) 0.3976(10) 0.8142(5)
C130_2 C 0.0543(10) 0.3397(7) 0.8450(5)
H172 H 0.055862 0.305443 0.849294
C131_2 C 0.0576(13) 0.4055(9) 0.8033(3)
H173_2 H 0.061599 0.412965 0.781271
C132_2 C 0.5369(13) 0.7176(9) 0.6683(4)
H174_2 H 0.536553 0.713716 0.646082
C133_2 C 0.5766(12) 0.6991(10) 0.6831(5)
H175_2 H 0.563359 0.659958 0.678198
H176_2 H 0.614270 0.721655 0.674967
C134_2 C 0.5980(13) 0.7684(9) 0.7263(5)
H177_2 H 0.635652 0.792522 0.718443
H178_2 H 0.598934 0.772772 0.748317
C135_2 C 0.5175(12) 0.6678(8) 0.7317(5)
H179_2 H 0.504816 0.628587 0.727418
H180_2 H 0.518264 0.672631 0.753749
C136_2 C 0.4969(11) 0.7476(9) 0.7256(5)
H181_2 H 0.497536 0.751653 0.747628
H182_2 H 0.470963 0.758614 0.717235
C137_2 C 0.5778(11) 0.7063(9) 0.7180(5)
H183_2 H 0.603870 0.695538 0.726946
C138_2 C 0.5557(12) 0.7794(8) 0.6772(5)
H184_2 H 0.592743 0.804468 0.668889
H185_2 H 0.529561 0.789928 0.668572
C139_2 C 0.5570(10) 0.7855(6) 0.7122(5)
H186_2 H 0.569844 0.824926 0.717366
C141_2 C 0.4493(8) 0.5938(6) 0.9884(3)
H189_2 H 0.480310 0.607590 0.974077
C142_2 C 0.4127(7) 0.6205(4) 0.9814(3)
H190_2 H 0.435714 0.661575 0.983601
C144_2 C 0.4130(7) 0.5291(6) 0.9859(3)
H192_2 H 0.435949 0.512055 0.990906
H193_2 H 0.339037 0.615133 0.997928
C147_2 C 0.3909(8) 0.6058(5) 0.9477(3)
H197_2 H 0.368506 0.623184 0.942734
H198_2 H 0.422488 0.620136 0.933759
C148_2 C 0.3038(8) 0.5180(6) 0.9668(3)
H199_2 H 0.281021 0.477482 0.964729
H200_2 H 0.280565 0.534442 0.961878
C149_2 C 0.3910(8) 0.5136(6) 0.9521(3)
H201_2 H 0.422511 0.527510 0.938177
H202_2 H 0.368563 0.473021 0.949950
C150_2 C 0.4761(13) 0.6785(9) 0.6818(5)
H203_2 H 0.449920 0.688652 0.672954
H204_2 H 0.463400 0.639584 0.676690
N7_2 N 0.1908(8) 0.4097(9) 0.9297(5)
N8_2 N 0.5903(9) 0.7812(12) 0.9297(5)
N9_2 N 0.2188(12) 0.8092(8) 0.9297(5)
C56_2 C 0.9910(10) 0.5047(15) 0.6472(6)
C58_2 C 0.9949(10) 0.5331(14) 0.6205(5)
C59_2 C 0.9533(11) 0.4458(15) 0.6478(6)
H71_2 H 0.950853 0.424572 0.664940
C62_2 C 0.9595(10) 0.5029(15) 0.5968(6)
H74_2 H 0.960869 0.523181 0.579447
H75_2 H 0.969656 0.487144 0.708743
C71_2 C 0.9197(11) 0.4202(16) 0.6219(6)
H87_2 H 0.893248 0.382012 0.622848
H88_2 H 0.991893 0.659375 0.826611
C128 C 0.9973(12) 0.3316(7) 0.8560(5)
H168 H 0.993436 0.324560 0.877878
H169 H 0.966724 0.299428 0.845877
H170_2 H 0.970185 0.366518 0.803353
H171_2 H 0.998868 0.431402 0.810042
C140_2 C 0.9939(11) 0.3854(9) 0.8489(5)
H187_2 H 0.957466 0.380072 0.855748
Ag1_3 Ag 0.000000 -0.000000 0.16513(6)
Ag2_3 Ag 0.09774(6) 0.10044(6) 0.15080(4)
Ag3_3 Ag 0.06004(6) 0.05882(7) 0.21653(4)
Ag5_3 Ag 0.10523(6) 0.00925(6) 0.17555(4)
Ag6_3 Ag 0.10673(6) 0.18062(6) 0.19904(4)
Ag7_3 Ag 0.10755(7) 0.17090(8) 0.09708(4)
Ag9_3 Ag 0.000000 -0.000000 0.05112(9)
S1_3 S 0.15215(19) 0.2066(2) 0.14715(12)
S2_3 S 0.1445(3) 0.1420(3) 0.23899(14)
S3_3 S 0.0299(2) 0.1020(2) 0.06448(12)
C1_3 C 0.1257(6) 0.1470(6) 0.2781(2)
C4_3 C 0.2276(10) 0.2253(11) 0.1468(6)
C5_3 C 0.1737(10) 0.3085(10) 0.0083(6)
N1_3 N 0.1579(9) 0.2394(10) 0.0579(4)
C7_3 C 0.1556(11) 0.2204(11) 0.0293(6)
H1_3 H 0.146662 0.183143 0.026503
C10_3 C 0.1690(11) 0.2879(12) 0.0596(6)
H4_3 H 0.172708 0.301097 0.079485
C11_3 C 0.1660(10) 0.2536(11) 0.0045(6)
C13_3 C 0.1771(11) 0.3276(11) 0.0375(6)
H7_3 H 0.184155 0.363678 0.042077
C14_3 C 0.3224(11) 0.2870(12) 0.1259(7)
H8_3 H 0.343599 0.315687 0.110302
C15_3 C 0.2517(11) 0.2534(12) 0.1813(6)
H9_3 H 0.250165 0.287690 0.184131
H10_3 H 0.230684 0.227007 0.197454
C16_3 C 0.2343(11) 0.1764(11) 0.1439(7)
H11_3 H 0.215631 0.156204 0.125394
H12_3 H 0.216176 0.151451 0.161053
C17_3 C 0.3150(12) 0.2660(12) 0.1799(7)
H13_3 H 0.332878 0.280931 0.199656
C18_3 C 0.3263(12) 0.2351(11) 0.1186(6)
H14_3 H 0.307877 0.219342 0.099248
H15_3 H 0.365613 0.245376 0.116646
C19_3 C 0.3167(12) 0.2155(12) 0.1738(6)
H16_3 H 0.292266 0.186833 0.188272
H17_3 H 0.354773 0.222924 0.177371
C20_3 C 0.2997(11) 0.1925(12) 0.1427(6)
H18_3 H 0.304000 0.159436 0.139168
C22_3 C 0.3431(11) 0.3120(12) 0.1562(6)
H20_3 H 0.334149 0.341441 0.159945
H21_3 H 0.383670 0.328308 0.157182
C23_3 C 0.2623(11) 0.2698(12) 0.1231(6)
H22_3 H 0.248980 0.254893 0.102792
H23_3 H 0.257695 0.302366 0.125936
C24_3 C 0.3148(9) 0.0430(8) 0.1438(4)
H24_3 H 0.346739 0.045850 0.132640
H25_3 H 0.309028 0.073558 0.137175
H28_3 H 0.204790 0.013794 0.147033
C27_3 C 0.2789(10) 0.0462(8) 0.1948(5)
H30_3 H 0.274444 0.077462 0.188149
H31_3 H 0.286725 0.050243 0.216501
H32_3 H 0.342106 0.002209 0.211212
H33_3 H 0.367238 0.000629 0.179211
C30_3 C 0.3269(7) 0.0479(7) 0.1784(5)
H36_3 H 0.361223 0.083752 0.182628
H39_3 H 0.006708 0.236734 0.011532
H43_3 H 0.038079 0.209562 0.060752
C41_3 C 0.0728(6) 0.1888(6) 0.3218(3)
H52_2 H 0.062543 0.193965 0.342200
H53_3 H 0.059076 0.206053 0.307411
C42_3 C 0.0461(4) 0.1255(6) 0.3148(3)
H54_3 H 0.005091 0.107472 0.316935
C43_2 C 0.1330(6) 0.1259(6) 0.3337(3)
H55_2 H 0.147256 0.108250 0.347841
C44_3 C 0.1375(6) 0.2172(4) 0.3193(3)
H56_3 H 0.154611 0.257227 0.324240
C45_2 C 0.0682(6) 0.0968(5) 0.3365(3)
H57_3 H 0.051533 0.057237 0.331262
H58_2 H 0.057965 0.099451 0.357352
C46_2 C 0.1607(6) 0.1895(6) 0.3410(3)
H59_2 H 0.152730 0.194536 0.361949
H60_2 H 0.201219 0.207237 0.338604
C47_3 C 0.0608(5) 0.1184(6) 0.2811(3)
H61_3 H 0.043482 0.078655 0.276068
H62_3 H 0.046530 0.135685 0.267093
C48_3 C 0.1486(6) 0.1191(6) 0.3002(3)
H63_3 H 0.189184 0.136872 0.298063
H64_3 H 0.132224 0.079456 0.295212
C49_3 C 0.1530(6) 0.2107(5) 0.2855(3)
H65_3 H 0.139156 0.228334 0.271511
H66_3 H 0.193645 0.228875 0.283284
H68_3 H 0.027082 0.157149 0.010024
S8_3 S 0.0160(2) 0.1786(3) 0.20981(12)
C52_3 C 0.0105(9) 0.2333(11) 0.1888(4)
C75_3 C 0.0601(8) 0.2907(11) 0.1998(4)
H94_3 H 0.095689 0.292152 0.195923
H95_3 H 0.056939 0.294765 0.221593
C76_3 C 0.0165(10) 0.2270(12) 0.1541(5)
H97_3 H 0.051999 0.228394 0.149934
C78_3 C 0.0010(10) 0.3361(12) 0.1894(5)
C79_3 C 0.0636(8) 0.3327(13) 0.1476(5)
H102_3 H 0.063000 0.363149 0.136687
H103_3 H 0.099201 0.334466 0.143376
C81_3 C 0.0146(9) 0.2758(13) 0.1367(3)
H105_3 H 0.018033 0.271735 0.114605
C90_3 C 0.0582(7) 0.3395(11) 0.1823(5)
H119_3 H 0.089273 0.375868 0.189082
Ag19_3 Ag 0.06535(10) 0.00346(7) 0.11526(4)
C103_3 C 0.1439(12) 0.0187(8) 0.0503(5)
C132_3 C 0.2035(13) 0.0510(9) 0.0017(4)
C133_3 C 0.2432(12) 0.0325(10) 0.0165(5)
H176_3 H 0.280936 0.054989 0.008301
C134_3 C 0.2646(13) 0.1018(9) 0.0597(5)
H177_3 H 0.302318 0.125856 0.051777
H178_3 H 0.265600 0.106106 0.081651
C135_3 C 0.1841(12) 0.0012(8) 0.0651(5)
H180_3 H 0.184930 0.005965 0.087083
C136_3 C 0.1635(11) 0.0810(9) 0.0590(5)
H181_3 H 0.164202 0.084987 0.080962
H182_3 H 0.137629 0.091948 0.050569
C137_3 C 0.2444(11) 0.0397(9) 0.0514(5)
H183_3 H 0.270536 0.028872 0.060280
C138_3 C 0.2223(12) 0.1128(8) 0.0106(5)
H184_3 H 0.259409 0.137802 0.002223
H185_3 H 0.196227 0.123262 0.001906
C139_3 C 0.2236(10) 0.1189(6) 0.0456(5)
H186_3 H 0.236510 0.158260 0.050700
C150_3 C 0.1427(13) 0.0119(9) 0.0152(5)
H203_3 H 0.116586 0.021986 0.006288
C6_3 C 0.1804(11) 0.3424(10) 0.9806(6)
C8_3 C 0.2049(10) 0.3385(10) 0.9539(5)
H2_3 H 0.217555 0.312830 0.951888
C9_3 C 0.1592(10) 0.3801(11) 0.9812(6)
H3_3 H 0.140386 0.382481 0.998274
H5_3 H 0.167954 0.240534 0.985134
C12_3 C 0.2101(11) 0.3739(10) 0.9302(6)
H6_3 H 0.228979 0.372465 0.912781
C21_3 C 0.1672(11) 0.4137(11) 0.9553(6)
H19_3 H 0.155431 0.440086 0.956182
H174_3 H 0.203219 0.047050 0.979416
C106_3 C 0.1619(15) 0.8196(11) 0.9806(6)
C108_3 C 0.1335(14) 0.7951(10) 0.9539(5)
H138_3 H 0.095274 0.782445 0.951888
C109_3 C 0.2208(15) 0.8408(10) 0.9812(6)
H139_3 H 0.242094 0.859614 0.998274
H141_3 H 0.072579 0.832046 0.985134
C112_3 C 0.1637(15) 0.7899(11) 0.9302(6)
H142_3 H 0.143485 0.771021 0.912781
C121_3 C 0.2464(16) 0.8328(11) 0.9553(6)
H155_3 H 0.284654 0.844569 0.956182
Ag1_4 Ag 1.000000 -0.000000 0.16513(6)
Ag4_3 Ag 0.99654(7) 0.06190(7) 0.11526(4)
Ag9_4 Ag 1.000000 -0.000000 0.05112(9)
C3_3 C 0.9813(8) 0.1253(9) 0.0503(5)
C32_3 C 0.9490(9) 0.1526(9) 0.0017(4)
C33_3 C 0.9675(10) 0.2108(7) 0.0165(5)
H40_3 H 0.945011 0.225948 0.008301
C34_3 C 0.8982(9) 0.1629(10) 0.0597(5)
H41_3 H 0.874144 0.176463 0.051777
H42_3 H 0.893894 0.159495 0.081651
C35_3 C 0.9988(8) 0.1830(9) 0.0651(5)
H44_3 H 0.994035 0.178966 0.087083
C36_3 C 0.9190(9) 0.0826(7) 0.0590(5)
H45_3 H 0.915013 0.079216 0.080962
H46_3 H 0.908052 0.045682 0.050569
C37_3 C 0.9603(9) 0.2048(7) 0.0514(5)
H47_3 H 0.971128 0.241665 0.060280
C38_3 C 0.8872(8) 0.1096(9) 0.0106(5)
H48_3 H 0.862198 0.121608 0.002223
H49_3 H 0.876738 0.072966 0.001906
C39_3 C 0.8811(6) 0.1048(8) 0.0456(5)
H50_3 H 0.841740 0.078251 0.050700
C50_3 C 0.9881(9) 0.1309(10) 0.0152(5)
H67_3 H 0.978014 0.094601 0.006288
Ag11_3 Ag 0.94118(7) 0.00123(9) 0.21653(4)
Ag13_3 Ag 0.99075(6) 0.09599(8) 0.17555(4)
S6_3 S 0.8580(3) 0.0026(4) 0.23899(14)
C54_3 C 0.7747(11) 0.0024(15) 0.1468(6)
C64_3 C 0.7130(12) 0.0355(16) 0.1259(7)
H76_3 H 0.684313 0.027913 0.110302
H78_3 H 0.772993 0.003678 0.197454
C66_3 C 0.8236(11) 0.0580(16) 0.1439(7)
H79_3 H 0.843796 0.059428 0.125394
H80_3 H 0.848549 0.064726 0.161053
C67_3 C 0.7340(12) 0.0491(17) 0.1799(7)
H81_3 H 0.719069 0.051948 0.199656
C68_3 C 0.7649(11) 0.0913(16) 0.1186(6)
H82_3 H 0.780658 0.088536 0.099248
H83_3 H 0.754624 0.120238 0.116646
C69_3 C 0.7845(12) 0.1013(17) 0.1738(6)
H84_3 H 0.813167 0.105434 0.188272
H85_3 H 0.777076 0.131850 0.177371
C70_3 C 0.8075(12) 0.1073(16) 0.1427(6)
H86_3 H 0.840564 0.144565 0.139168
C72_3 C 0.6880(12) 0.0312(16) 0.1562(6)
H89_3 H 0.671692 0.055363 0.157182
C74_3 C 0.9570(8) 0.2719(12) 0.1438(4)
H92_3 H 0.954150 0.300890 0.132640
H93_3 H 0.926442 0.235471 0.137175
H96_3 H 0.986206 0.190997 0.147033
C77_3 C 0.9538(8) 0.2328(13) 0.1948(5)
H98_3 H 0.922538 0.196983 0.188149
H99_3 H 0.949757 0.236483 0.216501
H100_3 H 0.997791 0.339898 0.211212
H101_3 H 0.999371 0.366610 0.179211
C80_3 C 0.9521(7) 0.2791(10) 0.1784(5)
H104_3 H 0.916248 0.277472 0.182628
C93_2 C 0.8741(6) 0.0072(8) 0.3337(3)
H123_2 H 0.891750 0.039007 0.347841
C98_3 C 0.8809(6) 0.0296(8) 0.3002(3)
H131_3 H 0.863128 0.052313 0.298063
H132_3 H 0.920544 0.052769 0.295212
Ag1_5 Ag 1.000000 1.000000 0.16513(6)
Ag9_5 Ag 1.000000 1.000000 0.05112(9)
Ag10_3 Ag 0.89956(6) 0.99731(8) 0.15080(4)
Ag12_3 Ag 0.93810(7) 0.93465(10) 0.11526(4)
Ag14_3 Ag 0.81938(6) 0.92612(8) 0.19904(4)
Ag15_3 Ag 0.82910(8) 0.93666(11) 0.09708(4)
S5_3 S 0.7934(2) 0.94559(28) 0.14715(12)
S7_3 S 0.8980(2) 0.9280(3) 0.06448(12)
C51_3 C 0.8530(6) 0.9788(8) 0.2781(2)
C53_3 C 0.8747(9) 0.8561(12) 0.0503(5)
C55_3 C 0.6915(10) 0.8653(14) 0.0083(6)
N3_3 N 0.7606(10) 0.9186(13) 0.0579(4)
C57_3 C 0.7796(11) 0.9353(16) 0.0293(6)
H69_3 H 0.816857 0.963520 0.026503
C60_3 C 0.7121(12) 0.8812(16) 0.0596(6)
H72_3 H 0.698903 0.871612 0.079485
C61_3 C 0.7464(11) 0.9125(15) 0.0045(6)
C63_3 C 0.6724(11) 0.8496(16) 0.0375(6)
H75_3 H 0.636322 0.820478 0.042077
C65_3 C 0.7466(12) 0.9984(16) 0.1813(6)
H77_3 H 0.712310 0.962476 0.184131
H88_3 H 0.658559 0.992709 0.159945
C73_3 C 0.7302(12) 0.9926(16) 0.1231(6)
H90_3 H 0.745107 0.994088 0.102792
H91_3 H 0.697634 0.955330 0.125936
C82_3 C 0.8474(9) 0.7965(13) 0.0017(4)
C83_3 C 0.7892(7) 0.7568(12) 0.0165(5)
H107_3 H 0.763266 0.769975 0.011532
H108_3 H 0.774052 0.719064 0.008301
C84_3 C 0.8371(10) 0.7354(13) 0.0597(5)
H109_3 H 0.823537 0.697682 0.051777
H110_3 H 0.840505 0.734400 0.081651
C85_3 C 0.8170(9) 0.8159(12) 0.0651(5)
H111_3 H 0.790438 0.828518 0.060752
H112_3 H 0.821034 0.815070 0.087083
C86_3 C 0.9174(7) 0.8365(11) 0.0590(5)
H113_3 H 0.920784 0.835798 0.080962
H114_3 H 0.954318 0.862371 0.050569
C87_3 C 0.7952(7) 0.7556(11) 0.0514(5)
H115_3 H 0.758335 0.729464 0.060280
C88_3 C 0.8904(9) 0.7777(12) 0.0106(5)
H116_3 H 0.878392 0.740591 0.002223
H117_3 H 0.927034 0.803773 0.001906
C89_3 C 0.8952(8) 0.7764(10) 0.0456(5)
H118_3 H 0.921749 0.763490 0.050700
C91_3 C 0.8112(6) 0.8841(8) 0.3218(3)
H120_2 H 0.806035 0.868579 0.342200
H121_3 H 0.793947 0.853024 0.307411
C92_3 C 0.8745(6) 0.9207(7) 0.3148(3)
H122_3 H 0.892528 0.897620 0.316935
C94_3 C 0.7828(4) 0.9204(7) 0.3193(3)
H124_3 H 0.742773 0.897385 0.324240
C95_2 C 0.9032(5) 0.9715(8) 0.3365(3)
H125_3 H 0.942763 0.994297 0.331262
H126_2 H 0.900549 0.958515 0.357352
C96_2 C 0.8105(6) 0.9713(8) 0.3410(3)
H127_2 H 0.805464 0.958195 0.361949
H128_2 H 0.792763 0.993983 0.338604
C97_3 C 0.8816(6) 0.9425(8) 0.2811(3)
H129_3 H 0.921345 0.964828 0.276068
H130_3 H 0.864315 0.910846 0.267093
C99_3 C 0.7893(5) 0.9424(8) 0.2855(3)
H133_3 H 0.771666 0.910823 0.271511
H134_3 H 0.771125 0.964771 0.283284
C100_3 C 0.8691(10) 0.8573(13) 0.0152(5)
H135_3 H 0.905399 0.883414 0.006288
H136_3 H 0.842851 0.869934 0.010024
Ag18_3 Ag 0.99877(9) 0.93996(6) 0.21653(4)
Ag20_3 Ag 0.90401(8) 0.89477(6) 0.17555(4)
S10_3 S 0.9974(4) 0.8555(3) 0.23899(14)
S12_3 S 0.8214(3) 0.8375(2) 0.20981(12)
C102_3 C 0.7667(11) 0.7773(7) 0.1888(4)
C104_3 C 0.9976(15) 0.7724(10) 0.1468(6)
C114_3 C 0.9645(16) 0.6776(11) 0.1259(7)
H144_2 H 0.972087 0.656401 0.110302
H146_3 H 0.996322 0.769316 0.197454
C116_3 C 0.9420(16) 0.7657(11) 0.1439(7)
H147_3 H 0.940572 0.784369 0.125394
H148_3 H 0.935274 0.783824 0.161053
C117_3 C 0.9509(17) 0.6850(12) 0.1799(7)
H149_3 H 0.948052 0.667122 0.199656
C118_3 C 0.9087(16) 0.6737(12) 0.1186(6)
H150_3 H 0.911464 0.692123 0.099248
H151_2 H 0.879762 0.634387 0.116646
C119_3 C 0.8987(17) 0.6833(12) 0.1738(6)
H152_3 H 0.894566 0.707734 0.188272
H153_2 H 0.868150 0.645227 0.177371
C120_3 C 0.8927(16) 0.7003(11) 0.1427(6)
H154_3 H 0.855435 0.696000 0.139168
C122_2 C 0.9688(16) 0.6569(11) 0.1562(6)
H157_2 H 0.944637 0.616330 0.157182
C124_3 C 0.7281(12) 0.6852(9) 0.1438(4)
H160_2 H 0.699110 0.653261 0.132640
H161_3 H 0.764529 0.690972 0.137175
C125_3 C 0.7093(11) 0.7695(8) 0.1998(4)
H162_3 H 0.707848 0.803538 0.195923
H163_3 H 0.705235 0.762175 0.221593
C126_3 C 0.7730(12) 0.7896(7) 0.1541(5)
H164_3 H 0.809003 0.795210 0.147033
H165_3 H 0.771606 0.823606 0.149934
C127_3 C 0.7672(13) 0.7211(10) 0.1948(5)
H166_3 H 0.803017 0.725556 0.188149
H167_3 H 0.763517 0.713275 0.216501
C128_2 C 0.6639(12) 0.6650(7) 0.1894(5)
H168_2 H 0.660102 0.657894 0.211212
H169_2 H 0.633390 0.632762 0.179211
C129_3 C 0.6673(13) 0.7310(10) 0.1476(5)
H170_3 H 0.636851 0.699852 0.136687
H171_3 H 0.665534 0.764736 0.143376
C130_3 C 0.7209(10) 0.6731(7) 0.1784(5)
H172_2 H 0.722528 0.638777 0.182628
C131_3 C 0.7242(13) 0.7389(9) 0.1367(3)
H173_3 H 0.728265 0.746299 0.114605
C140_3 C 0.6605(11) 0.7188(9) 0.1823(5)
H187_3 H 0.624132 0.713406 0.189082
C143_2 C 0.9928(8) 0.8670(6) 0.3337(3)
H191_2 H 0.960993 0.852744 0.347841
C148_3 C 0.9704(8) 0.8514(6) 0.3002(3)
H199_3 H 0.947687 0.810816 0.298063
H200_3 H 0.947231 0.867776 0.295212
C56_3 C 0.6576(10) 0.8381(15) 0.9806(6)
C58_3 C 0.6615(10) 0.8665(14) 0.9539(5)
H70_3 H 0.687170 0.904726 0.951888
C59_3 C 0.6199(11) 0.7792(15) 0.9812(6)
H71_3 H 0.617519 0.757906 0.998274
H73_3 H 0.759466 0.927421 0.985134
C62_3 C 0.6261(10) 0.8363(15) 0.9302(6)
H74_3 H 0.627535 0.856515 0.912781
C71_3 C 0.5863(11) 0.7536(16) 0.9553(6)
H87_3 H 0.559914 0.715346 0.956182
H106_3 H 0.843830 0.796781 0.979416
H144_3 H 0.638754 0.989734 0.443635
H151_3 H 0.546429 0.967720 0.449979
H153_3 H 0.534817 0.978560 0.510704
C122_3 C 0.6355(16) 0.9902(11) 0.4895(6)
H156_2 H 0.673958 0.999184 0.493278
H157_3 H 0.611304 0.949663 0.490515
H160_3 H 0.365777 0.986594 0.465973
C128_3 C 0.3306(12) 0.9983(7) 0.5227(5)
H168_3 H 0.326769 0.991227 0.544545
H169_3 H 0.300057 0.966095 0.512544
H172_3 H 0.389195 0.972110 0.515961
H153_4 H 0.021440 0.465183 0.010704
C128_4 C 0.0017(7) 0.6694(12) 0.0227(5)
H168_4 H 0.008773 0.673231 0.044545
H169_4 H 0.033905 0.699943 0.012544
H172_4 H 0.027890 0.610805 0.015961
H144_4 H 0.010266 0.361246 0.943635
H151_4 H 0.032280 0.453571 0.949979
C122_4 C 0.0098(11) 0.3645(16) 0.9895(6)
H156_3 H 0.000816 0.326042 0.993278
H157_4 H 0.050337 0.388696 0.990515
H160_4 H 0.013406 0.634223 0.965973
Ag3_4 Ag 0.60785(7) 0.27329(6) 0.04986(4)
Ag5_4 Ag 0.65742(6) 0.22810(6) 0.00888(4)
Ag6_4 Ag 0.48605(6) 0.22660(6) 0.03237(4)
Ag8_3 Ag 0.59341(8) 0.15696(8) 0.06411(4)
S2_4 S 0.5247(3) 0.1888(3) 0.07232(14)
S4_3 S 0.6827(2) 0.1708(2) 0.04314(12)
C1_4 C 0.5197(6) 0.2076(6) 0.1114(2)
C2_3 C 0.6772(9) 0.1106(7) 0.0221(4)
C15_4 C 0.4133(12) 0.0816(11) 0.0146(6)
H9_4 H 0.378977 0.083168 0.017464
H10_4 H 0.439660 0.102649 0.030787
C17_4 C 0.4007(12) 0.0183(12) 0.0132(7)
H13_4 H 0.385736 0.000455 0.032989
C19_4 C 0.4512(12) 0.0166(12) 0.0071(6)
H16_4 H 0.479834 0.041067 0.021605
C25_3 C 0.7268(8) 0.1028(8) 0.0331(4)
H26_3 H 0.762356 0.136871 0.029256
H27_3 H 0.723606 0.095508 0.054926
C27_4 C 0.6205(8) 0.0544(10) 0.0281(5)
H30_4 H 0.589205 0.058889 0.021482
H31_4 H 0.616424 0.046608 0.049834
C30_4 C 0.6188(7) 0.0064(7) 0.0117(5)
C40_3 C 0.7249(7) 0.0521(9) 0.0156(5)
H51_3 H 0.755940 0.046739 0.022415
C41_4 C 0.4779(6) 0.2605(6) 0.1551(3)
H52_3 H 0.472702 0.270790 0.175533
H53_4 H 0.460614 0.274257 0.140744
C42_4 C 0.5412(6) 0.2872(4) 0.1481(3)
H54_4 H 0.559195 0.328242 0.150268
C43_3 C 0.5408(6) 0.2003(6) 0.1670(3)
H55_3 H 0.558417 0.186077 0.181174
C44_4 C 0.4495(4) 0.1958(6) 0.1526(3)
H56_4 H 0.409440 0.178722 0.157573
C45_3 C 0.5699(5) 0.2651(6) 0.1698(3)
H57_4 H 0.609430 0.281800 0.164595
H58_3 H 0.567216 0.275368 0.190685
C46_3 C 0.4772(6) 0.1726(6) 0.1743(3)
H59_3 H 0.472131 0.180603 0.195282
H60_3 H 0.459430 0.132114 0.171937
C47_4 C 0.5483(6) 0.2725(5) 0.1144(3)
H61_4 H 0.588012 0.289851 0.109401
H62_4 H 0.530982 0.286803 0.100426
C48_4 C 0.5476(6) 0.1847(6) 0.1335(3)
H63_4 H 0.529795 0.144149 0.131396
H64_4 H 0.587211 0.201109 0.128545
C49_4 C 0.4560(5) 0.1803(6) 0.1188(3)
H65_4 H 0.438333 0.194177 0.104844
H66_4 H 0.437792 0.139688 0.116617
Ag11_4 Ag 0.66544(9) 0.39215(7) 0.04986(4)
Ag13_4 Ag 0.57068(8) 0.34258(6) 0.00888(4)
Ag14_4 Ag 0.74055(8) 0.51395(6) 0.03237(4)
Ag16_3 Ag 0.56355(11) 0.40659(8) 0.06411(4)
S6_4 S 0.6641(4) 0.4753(3) 0.07232(14)
S8_4 S 0.4881(3) 0.3173(2) 0.04314(12)
C51_4 C 0.6879(8) 0.4803(6) 0.1114(2)
C52_4 C 0.4334(11) 0.3228(9) 0.0221(4)
C65_4 C 0.6683(16) 0.5867(12) 0.0146(6)
H77_4 H 0.704191 0.621023 0.017464
H78_4 H 0.662989 0.560340 0.030787
C67_4 C 0.6176(17) 0.5993(12) 0.0132(7)
H81_4 H 0.614719 0.614264 0.032989
C69_4 C 0.5654(17) 0.5488(12) 0.0071(6)
H84_4 H 0.561233 0.520166 0.021605
H85_4 H 0.534817 0.556257 0.010704
C75_4 C 0.3760(11) 0.2732(8) 0.0331(4)
H94_4 H 0.374515 0.237644 0.029256
H95_4 H 0.371902 0.276394 0.054926
C77_4 C 0.4339(13) 0.3795(8) 0.0281(5)
H98_4 H 0.469684 0.410795 0.021482
H99_4 H 0.430184 0.383576 0.049834
C78_4 C 0.3306(12) 0.3323(10) 0.0227(5)
H100_4 H 0.326769 0.335542 0.044545
H101_4 H 0.300057 0.333962 0.012544
C80_4 C 0.3876(10) 0.3812(7) 0.0117(5)
H104_4 H 0.389195 0.417085 0.015961
C90_4 C 0.3272(11) 0.2751(7) 0.0156(5)
H119_4 H 0.290799 0.244060 0.022415
C91_4 C 0.7826(8) 0.5221(6) 0.1551(3)
H120_3 H 0.798088 0.527298 0.175533
H121_4 H 0.813643 0.539386 0.140744
C92_4 C 0.7460(7) 0.4588(6) 0.1481(3)
H122_4 H 0.769047 0.440805 0.150268
C93_3 C 0.6595(8) 0.4592(6) 0.1670(3)
H123_3 H 0.627660 0.441583 0.181174
C94_4 C 0.7463(7) 0.5505(4) 0.1526(3)
H124_4 H 0.769282 0.590560 0.157573
C95_3 C 0.6952(8) 0.4301(5) 0.1698(3)
H125_4 H 0.672370 0.390570 0.164595
H126_3 H 0.708152 0.432784 0.190685
C96_3 C 0.6954(8) 0.5228(6) 0.1743(3)
H127_3 H 0.708472 0.527869 0.195282
H128_3 H 0.672684 0.540570 0.171937
C97_4 C 0.7242(8) 0.4517(6) 0.1144(3)
H129_4 H 0.701839 0.411988 0.109401
H130_4 H 0.755821 0.469018 0.100426
C98_4 C 0.6371(8) 0.4524(6) 0.1335(3)
H131_4 H 0.614354 0.470205 0.131396
H132_4 H 0.613898 0.412789 0.128545
C99_4 C 0.7243(8) 0.5440(5) 0.1188(3)
H133_4 H 0.755844 0.561667 0.104844
H134_4 H 0.701896 0.562208 0.116617
Ag18_4 Ag 0.72671(6) 0.33456(9) 0.04986(4)
Ag20_4 Ag 0.77190(6) 0.42932(8) 0.00888(4)
Ag21_3 Ag 0.77340(6) 0.25945(8) 0.03237(4)
Ag23_3 Ag 0.84304(8) 0.43645(11) 0.06411(4)
S10_4 S 0.8112(3) 0.3359(4) 0.07232(14)
S12_4 S 0.8292(2) 0.5119(3) 0.04314(12)
C101_3 C 0.7924(6) 0.3121(8) 0.1114(2)
C102_4 C 0.8894(7) 0.5666(11) 0.0221(4)
C115_3 C 0.9184(11) 0.3317(16) 0.0146(6)
H145_3 H 0.916832 0.295809 0.017464
H146_4 H 0.897351 0.337011 0.030787
C117_4 C 0.9817(12) 0.3824(17) 0.0132(7)
H149_4 H 0.999545 0.385281 0.032989
C119_4 C 0.9834(12) 0.4346(17) 0.0071(6)
H152_4 H 0.958933 0.438767 0.021605
C125_4 C 0.8972(8) 0.6240(11) 0.0331(4)
H162_4 H 0.863129 0.625485 0.029256
H163_4 H 0.904492 0.628098 0.054926
C127_4 C 0.9456(10) 0.5661(13) 0.0281(5)
H166_4 H 0.941111 0.530316 0.021482
H167_4 H 0.953392 0.569816 0.049834
C130_4 C 0.9936(7) 0.6124(10) 0.0117(5)
C140_4 C 0.9479(9) 0.6728(11) 0.0156(5)
H187_4 H 0.953261 0.709201 0.022415
C141_3 C 0.7395(6) 0.2174(8) 0.1551(3)
H188_2 H 0.729210 0.201912 0.175533
H189_3 H 0.725743 0.186357 0.140744
C142_3 C 0.7128(4) 0.2540(7) 0.1481(3)
H190_3 H 0.671758 0.230953 0.150268
C143_3 C 0.7997(6) 0.3405(8) 0.1670(3)
H191_3 H 0.813923 0.372340 0.181174
C144_3 C 0.8042(6) 0.2537(7) 0.1526(3)
H192_3 H 0.821278 0.230718 0.157573
C145_2 C 0.7349(6) 0.3048(8) 0.1698(3)
H193_3 H 0.718200 0.327630 0.164595
H194_2 H 0.724632 0.291848 0.190685
C146_2 C 0.8274(6) 0.3046(8) 0.1743(3)
H195_2 H 0.819397 0.291528 0.195282
H196_2 H 0.867886 0.327316 0.171937
C147_3 C 0.7275(5) 0.2758(8) 0.1144(3)
H197_3 H 0.710149 0.298161 0.109401
H198_3 H 0.713197 0.244179 0.100426
C148_4 C 0.8153(6) 0.3629(8) 0.1335(3)
H199_4 H 0.855851 0.385646 0.131396
H200_4 H 0.798891 0.386102 0.128545
C149_3 C 0.8197(6) 0.2757(8) 0.1188(3)
H201_3 H 0.805823 0.244156 0.104844
H202_3 H 0.860312 0.298104 0.116617
N7_3 N 0.9237(9) 0.4758(8) 0.0963(5)
N8_3 N 0.5522(12) 0.0763(9) 0.0963(5)
N9_3 N 0.5242(8) 0.4478(12) 0.0963(5)
Ag1_6 Ag 0.666667 0.333333 0.99846(6)
Ag2_4 Ag 0.56623(6) 0.23559(6) 0.98413(4)
Ag4_4 Ag 0.60477(7) 0.33679(7) 0.94859(4)
Ag7_4 Ag 0.49577(8) 0.22578(7) 0.93041(4)
Ag9_6 Ag 0.666667 0.333333 0.88445(9)
S1_4 S 0.4601(2) 0.18118(19) 0.98048(12)
S3_4 S 0.5647(2) 0.3034(2) 0.89781(12)
C3_4 C 0.5414(9) 0.3520(8) 0.8836(5)
C4_4 C 0.4414(11) 0.1057(10) 0.9801(6)
C5_4 C 0.3582(10) 0.1596(10) 0.8416(6)
N1_4 N 0.4273(10) 0.1754(9) 0.8912(4)
C6_4 C 0.3243(10) 0.1529(11) 0.8139(6)
C7_4 C 0.4463(11) 0.1777(11) 0.8626(6)
H1_4 H 0.483524 0.186671 0.859836
C8_4 C 0.3282(10) 0.1284(10) 0.7872(5)
H2_4 H 0.353837 0.115778 0.785221
C9_4 C 0.2866(11) 0.1741(10) 0.8145(6)
H3_4 H 0.284186 0.192947 0.831607
C10_4 C 0.3788(12) 0.1643(11) 0.8929(6)
H4_4 H 0.365570 0.160625 0.912818
C11_4 C 0.4131(11) 0.1673(10) 0.8378(6)
H5_4 H 0.426133 0.165379 0.818467
N2_2 N 0.2570(9) 0.1425(8) 0.7630(5)
C12_4 C 0.2928(10) 0.1232(11) 0.7635(6)
H6_4 H 0.294202 0.104354 0.746114
C13_4 C 0.3391(11) 0.1562(11) 0.8708(6)
H7_4 H 0.302989 0.149178 0.875410
C14_4 C 0.3797(12) 0.0109(11) 0.9592(7)
C16_4 C 0.4903(11) 0.0990(11) 0.9772(7)
H11_4 H 0.510463 0.117702 0.958727
H12_4 H 0.515216 0.117157 0.994386
C18_4 C 0.4316(11) 0.0070(12) 0.9519(6)
H14_4 H 0.447325 0.025456 0.932581
C20_4 C 0.4742(12) 0.0336(11) 0.9760(6)
H18_4 H 0.507231 0.029333 0.972501
C21_4 C 0.2530(11) 0.1661(11) 0.7886(6)
H19_4 H 0.226581 0.177902 0.789515
C23_4 C 0.3969(12) 0.0710(11) 0.9564(6)
H22_4 H 0.411774 0.084353 0.936125
H23_4 H 0.364301 0.075638 0.959269
C24_4 C 0.6237(8) 0.0185(9) 0.9771(4)
H25_4 H 0.593109 0.024305 0.970508
C26_3 C 0.6832(10) 0.1229(7) 0.9874(5)
H28_4 H 0.652873 0.128543 0.980366
H29_3 H 0.718666 0.156939 0.983267
C29_3 C 0.7303(8) 0.0643(10) 0.9809(5)
H34_3 H 0.729667 0.033185 0.970020
H35_3 H 0.765868 0.098069 0.976709
C31_3 C 0.6813(9) 0.0722(9) 0.9700(3)
H37_3 H 0.684700 0.079632 0.947938
C32_4 C 0.5141(9) 0.3843(9) 0.8350(4)
H38_3 H 0.510497 0.380383 0.812749
C33_4 C 0.4559(7) 0.3658(10) 0.8498(5)
H39_4 H 0.429933 0.326625 0.844865
H40_4 H 0.440719 0.388322 0.841634
C34_4 C 0.5038(10) 0.4351(9) 0.8930(5)
H41_4 H 0.490204 0.459189 0.885110
H42_4 H 0.507172 0.439439 0.914984
C35_4 C 0.4837(9) 0.3345(8) 0.8984(5)
H43_4 H 0.457105 0.295254 0.894085
H44_4 H 0.487701 0.339298 0.920416
C36_4 C 0.5841(7) 0.4143(9) 0.8923(5)
H45_4 H 0.587451 0.418320 0.914295
H46_4 H 0.620985 0.425281 0.883902
C37_4 C 0.4619(7) 0.3730(9) 0.8847(5)
H47_4 H 0.425002 0.362205 0.893613
C38_4 C 0.5571(9) 0.4461(8) 0.8439(5)
H48_4 H 0.545059 0.471135 0.835556
H49_4 H 0.593701 0.456595 0.835239
C39_4 C 0.5619(8) 0.4522(6) 0.8789(5)
H50_4 H 0.588416 0.491593 0.884033
C50_4 C 0.5358(10) 0.3452(9) 0.8485(5)
H67_4 H 0.572066 0.355319 0.839621
H68_4 H 0.509518 0.306251 0.843357
Ag10_4 Ag 0.66936(8) 0.43377(6) 0.98413(4)
Ag12_4 Ag 0.73202(10) 0.39523(7) 0.94859(4)
Ag15_4 Ag 0.73001(11) 0.50423(8) 0.93041(4)
S5_4 S 0.72108(28) 0.5399(2) 0.98048(12)
S7_4 S 0.7387(3) 0.4353(2) 0.89781(12)
C53_4 C 0.8106(12) 0.4586(9) 0.8836(5)
C54_4 C 0.6643(15) 0.5586(11) 0.9801(6)
C55_4 C 0.8014(14) 0.6418(10) 0.8416(6)
N3_4 N 0.7481(13) 0.5727(10) 0.8912(4)
C56_4 C 0.8286(15) 0.6757(10) 0.8139(6)
C57_4 C 0.7314(16) 0.5537(11) 0.8626(6)
H69_4 H 0.703147 0.516476 0.859836
C58_4 C 0.8002(14) 0.6718(10) 0.7872(5)
H70_4 H 0.761941 0.646163 0.785221
C59_4 C 0.8875(15) 0.7134(11) 0.8145(6)
H71_4 H 0.908761 0.715814 0.831607
C60_4 C 0.7855(16) 0.6212(12) 0.8929(6)
H72_4 H 0.795055 0.634430 0.912818
C61_4 C 0.7542(15) 0.5869(11) 0.8378(6)
H73_4 H 0.739246 0.573867 0.818467
N4_2 N 0.8855(12) 0.7430(9) 0.7630(5)
C62_4 C 0.8304(15) 0.7072(10) 0.7635(6)
H74_4 H 0.810152 0.705798 0.746114
C63_4 C 0.8171(16) 0.6609(11) 0.8708(6)
H75_4 H 0.846189 0.697011 0.875410
C64_4 C 0.6312(16) 0.6203(12) 0.9592(7)
H76_4 H 0.638754 0.649020 0.943635
C66_4 C 0.6087(16) 0.5097(11) 0.9772(7)
H79_4 H 0.607239 0.489537 0.958727
H80_4 H 0.601941 0.484784 0.994386
C68_4 C 0.5754(16) 0.5684(11) 0.9519(6)
H82_4 H 0.578131 0.552675 0.932581
H83_4 H 0.546429 0.578709 0.949979
C70_4 C 0.5594(16) 0.5258(12) 0.9760(6)
H86_4 H 0.522102 0.492769 0.972501
C71_4 C 0.9131(16) 0.7470(11) 0.7886(6)
H87_4 H 0.951321 0.773419 0.789515
C72_4 C 0.6355(16) 0.6453(12) 0.9895(6)
H88_4 H 0.673958 0.674774 0.993278
H89_4 H 0.611304 0.661641 0.990515
C73_4 C 0.6741(16) 0.6031(12) 0.9564(6)
H90_4 H 0.672579 0.588226 0.936125
H91_4 H 0.711337 0.635699 0.959269
C74_4 C 0.3948(12) 0.3763(8) 0.9771(4)
H92_4 H 0.365777 0.379183 0.965973
H93_4 H 0.431196 0.406891 0.970508
C76_4 C 0.4397(12) 0.3168(10) 0.9874(5)
H96_4 H 0.475670 0.347127 0.980366
H97_4 H 0.438273 0.281334 0.983267
C79_4 C 0.3340(13) 0.2697(8) 0.9809(5)
H102_4 H 0.303518 0.270333 0.970020
H103_4 H 0.332201 0.234132 0.976709
C81_4 C 0.3909(13) 0.3187(9) 0.9700(3)
H105_4 H 0.394932 0.315300 0.947938
C82_4 C 0.8702(13) 0.4859(9) 0.8350(4)
H106_4 H 0.869886 0.489503 0.812749
C83_4 C 0.9099(12) 0.5441(7) 0.8498(5)
H107_4 H 0.896692 0.570067 0.844865
H108_4 H 0.947603 0.559281 0.841634
C84_4 C 0.9313(13) 0.4962(10) 0.8930(5)
H109_4 H 0.968985 0.509796 0.885110
H110_4 H 0.932267 0.492828 0.914984
C85_4 C 0.8508(12) 0.5163(9) 0.8984(5)
H111_4 H 0.838149 0.542895 0.894085
H112_4 H 0.851597 0.512299 0.920416
C86_4 C 0.8302(11) 0.4159(7) 0.8923(5)
H113_4 H 0.830869 0.412549 0.914295
H114_4 H 0.804296 0.379015 0.883902
C87_4 C 0.9111(11) 0.5381(7) 0.8847(5)
H115_4 H 0.937203 0.574998 0.893613
C88_4 C 0.8890(12) 0.4429(9) 0.8439(5)
H116_4 H 0.926076 0.454941 0.835556
H117_4 H 0.862894 0.406299 0.835239
C89_4 C 0.8903(10) 0.4381(8) 0.8789(5)
H118_4 H 0.903177 0.411584 0.884033
C100_4 C 0.8094(13) 0.4642(10) 0.8485(5)
H135_4 H 0.783253 0.427934 0.839621
H136_4 H 0.796733 0.490482 0.843357
Ag17_3 Ag 0.76441(6) 0.33064(8) 0.98413(4)
Ag19_4 Ag 0.66321(7) 0.26798(10) 0.94859(4)
Ag22_3 Ag 0.77422(7) 0.26999(11) 0.93041(4)
S9_3 S 0.81882(19) 0.27892(28) 0.98048(12)
S11_3 S 0.6966(2) 0.2613(3) 0.89781(12)
C103_4 C 0.6480(8) 0.1894(12) 0.8836(5)
C104_4 C 0.8943(10) 0.3357(15) 0.9801(6)
C105_3 C 0.8404(10) 0.1986(14) 0.8416(6)
N5_3 N 0.8246(9) 0.2519(13) 0.8912(4)
C106_4 C 0.8471(11) 0.1714(15) 0.8139(6)
C107_3 C 0.8223(11) 0.2686(16) 0.8626(6)
H137_3 H 0.813329 0.296853 0.859836
C108_4 C 0.8716(10) 0.1998(14) 0.7872(5)
H138_4 H 0.884222 0.238059 0.785221
C109_4 C 0.8259(10) 0.1125(15) 0.8145(6)
H139_4 H 0.807053 0.091239 0.831607
C110_3 C 0.8357(11) 0.2145(16) 0.8929(6)
H140_3 H 0.839375 0.204945 0.912818
C111_3 C 0.8327(10) 0.2458(15) 0.8378(6)
H141_4 H 0.834621 0.260754 0.818467
N6_2 N 0.8575(8) 0.1145(12) 0.7630(5)
C112_4 C 0.8768(11) 0.1696(15) 0.7635(6)
H142_4 H 0.895646 0.189848 0.746114
C113_3 C 0.8438(11) 0.1829(16) 0.8708(6)
H143_3 H 0.850822 0.153811 0.875410
C114_4 C 0.9891(11) 0.3688(16) 0.9592(7)
C116_4 C 0.9010(11) 0.3913(16) 0.9772(7)
H147_4 H 0.882298 0.392761 0.958727
H148_4 H 0.882843 0.398059 0.994386
C118_4 C 0.9930(12) 0.4246(16) 0.9519(6)
H150_4 H 0.974544 0.421869 0.932581
C120_4 C 0.9664(11) 0.4406(16) 0.9760(6)
H154_4 H 0.970667 0.477898 0.972501
C121_4 C 0.8339(11) 0.0869(16) 0.7886(6)
H155_4 H 0.822098 0.048679 0.789515
C123_3 C 0.9290(11) 0.3259(16) 0.9564(6)
H158_3 H 0.915647 0.327421 0.936125
H159_3 H 0.924362 0.288663 0.959269
C124_4 C 0.9815(9) 0.6052(12) 0.9771(4)
H161_4 H 0.975695 0.568804 0.970508
C126_4 C 0.8771(7) 0.5603(12) 0.9874(5)
H164_4 H 0.871457 0.524330 0.980366
H165_4 H 0.843061 0.561727 0.983267
C129_4 C 0.9357(10) 0.6660(13) 0.9809(5)
H170_4 H 0.966815 0.696482 0.970020
H171_4 H 0.901931 0.667799 0.976709
C131_4 C 0.9278(9) 0.6091(13) 0.9700(3)
H173_4 H 0.920368 0.605068 0.947938
C132_4 C 0.6157(9) 0.1298(13) 0.8350(4)
H174_4 H 0.619617 0.130114 0.812749
C133_4 C 0.6342(10) 0.0901(12) 0.8498(5)
H175_3 H 0.673375 0.103308 0.844865
H176_4 H 0.611678 0.052397 0.841634
C134_4 C 0.5649(9) 0.0687(13) 0.8930(5)
H177_4 H 0.540811 0.031015 0.885110
H178_4 H 0.560561 0.067733 0.914984
C135_4 C 0.6655(8) 0.1492(12) 0.8984(5)
H179_3 H 0.704746 0.161851 0.894085
H180_4 H 0.660702 0.148403 0.920416
C136_4 C 0.5857(9) 0.1698(11) 0.8923(5)
H181_4 H 0.581680 0.169131 0.914295
H182_4 H 0.574719 0.195704 0.883902
C137_4 C 0.6270(9) 0.0889(11) 0.8847(5)
H183_4 H 0.637795 0.062797 0.893613
C138_4 C 0.5539(8) 0.1110(12) 0.8439(5)
H184_4 H 0.528865 0.073924 0.835556
H185_4 H 0.543405 0.137106 0.835239
C139_4 C 0.5478(6) 0.1097(10) 0.8789(5)
H186_4 H 0.508407 0.096823 0.884033
C150_4 C 0.6548(9) 0.1906(13) 0.8485(5)
H203_4 H 0.644681 0.216747 0.839621
H204_3 H 0.693749 0.203267 0.843357
Ag24_2 Ag 0.92674(8) 0.82363(8) 0.73078(4)
Ag25_2 Ag 0.89688(11) 0.07326(8) 0.73078(4)
Ag26_2 Ag 0.17637(8) 0.10312(11) 0.73078(4)
C56_5 C 0.4953(15) 0.0090(10) 0.1472(6)
C58_5 C 0.4669(14) 0.0051(10) 0.1205(5)
C59_5 C 0.5542(15) 0.0467(11) 0.1478(6)
H71_5 H 0.575428 0.049147 0.164940
C62_5 C 0.4971(15) 0.0405(10) 0.0968(6)
H74_5 H 0.476819 0.039131 0.079447
H75_5 H 0.512856 0.030344 0.208743
C71_5 C 0.5798(16) 0.0803(11) 0.1219(6)
H87_5 H 0.617988 0.106752 0.122848
H88_5 H 0.340625 0.008107 0.326611
C128_5 C 0.6684(7) 0.0027(12) 0.3560(5)
H168_5 H 0.675440 0.006564 0.377878
H169_5 H 0.700572 0.033276 0.345877
H170_5 H 0.633482 0.029815 0.303353
H171_5 H 0.568598 0.001132 0.310042
C140_5 C 0.6146(9) 0.0061(11) 0.3489(5)
H187_5 H 0.619928 0.042534 0.355748
Ag1_7 Ag 0.333334 0.666666 0.33179(6)
Ag2_5 Ag 0.23290(6) 0.56892(6) 0.31746(4)
Ag3_5 Ag 0.27452(7) 0.60662(6) 0.38319(4)
Ag4_5 Ag 0.27144(7) 0.67012(7) 0.28192(4)
Ag5_5 Ag 0.32409(6) 0.56143(6) 0.34221(4)
Ag6_5 Ag 0.15272(6) 0.55993(6) 0.36570(4)
Ag7_5 Ag 0.16244(8) 0.55911(7) 0.26374(4)
Ag8_4 Ag 0.26008(8) 0.49029(8) 0.39744(4)
Ag9_7 Ag 0.333334 0.666666 0.21778(9)
S1_5 S 0.1268(2) 0.51451(19) 0.31381(12)
S2_5 S 0.1914(3) 0.5221(3) 0.40565(14)
S3_5 S 0.2314(2) 0.6367(2) 0.23114(12)
S4_4 S 0.3494(2) 0.5041(2) 0.37647(12)
C1_5 C 0.1864(6) 0.5409(6) 0.4447(2)
C2_4 C 0.3439(9) 0.4439(7) 0.3554(4)
C3_5 C 0.2081(9) 0.6853(8) 0.2169(5)
C4_5 C 0.1081(11) 0.4390(10) 0.3134(6)
C5_5 C 0.0249(10) 0.4929(10) 0.1749(6)
N1_5 N 0.0940(10) 0.5087(9) 0.2245(4)
C7_5 C 0.1130(11) 0.5110(11) 0.1959(6)
H1_5 H 0.150191 0.520004 0.193169
H2_5 H 0.020504 0.449111 0.118554
C10_5 C 0.0455(12) 0.4976(11) 0.2262(6)
H4_5 H 0.032237 0.493958 0.246151
C11_5 C 0.0798(11) 0.5006(10) 0.1711(6)
H5_5 H 0.092800 0.498712 0.151800
C13_5 C 0.0058(11) 0.4895(11) 0.2041(6)
C14_5 C 0.0464(12) 0.3442(11) 0.2925(7)
H8_4 H 0.017647 0.323067 0.276968
C15_5 C 0.0800(12) 0.4149(11) 0.3479(6)
H9_5 H 0.045644 0.416501 0.350797
H10_5 H 0.106327 0.435982 0.364120
C16_5 C 0.1570(11) 0.4323(11) 0.3105(7)
H11_5 H 0.177130 0.451035 0.292060
H12_5 H 0.181883 0.450490 0.327719
C17_5 C 0.0674(12) 0.3516(12) 0.3465(7)
H13_5 H 0.052403 0.333788 0.366322
C18_5 C 0.0983(11) 0.3403(12) 0.2852(6)
H14_5 H 0.113992 0.358789 0.265914
H15_4 H 0.087958 0.301053 0.283312
C19_5 C 0.1179(12) 0.3499(12) 0.3404(6)
H16_5 H 0.146501 0.374400 0.354938
H17_4 H 0.110410 0.311893 0.344037
C20_5 C 0.1409(12) 0.3669(11) 0.3093(6)
H18_5 H 0.173898 0.362666 0.305834
C22_4 C 0.0214(12) 0.3235(11) 0.3228(6)
H21_4 H 0.005026 0.282996 0.323848
C23_5 C 0.0636(12) 0.4043(11) 0.2897(6)
H22_5 H 0.078441 0.417686 0.269458
H23_5 H 0.030968 0.408971 0.292602
C24_5 C 0.2904(8) 0.3518(9) 0.3104(4)
H24_4 H 0.287484 0.319927 0.299306
H25_5 H 0.259776 0.357638 0.303841
C25_4 C 0.3935(8) 0.4361(8) 0.3664(4)
H26_4 H 0.429023 0.470204 0.362589
H27_4 H 0.390273 0.428841 0.388259
C26_4 C 0.3499(10) 0.4562(7) 0.3207(5)
H28_5 H 0.319540 0.461876 0.313699
H29_4 H 0.385333 0.490272 0.316600
C27_5 C 0.2872(8) 0.3877(10) 0.3614(5)
H30_5 H 0.255872 0.392222 0.354815
H31_5 H 0.283091 0.379941 0.383167
C28_3 C 0.3344(10) 0.3316(7) 0.3560(5)
H32_4 H 0.331125 0.324560 0.377878
H33_4 H 0.332705 0.299428 0.345877
C29_4 C 0.3970(8) 0.3976(10) 0.3142(5)
H34_4 H 0.396334 0.366518 0.303353
H35_4 H 0.432535 0.431402 0.310042
C30_5 C 0.2855(7) 0.3397(7) 0.3450(5)
H36_4 H 0.249582 0.305443 0.349294
C31_4 C 0.3480(9) 0.4055(9) 0.3033(3)
H37_4 H 0.351367 0.412965 0.281271
C32_5 C 0.1808(9) 0.7176(9) 0.1683(4)
H38_4 H 0.177164 0.713716 0.146082
C33_5 C 0.1226(7) 0.6991(10) 0.1831(5)
H39_5 H 0.096600 0.659958 0.178198
H40_5 H 0.107386 0.721655 0.174967
C34_5 C 0.1705(10) 0.7684(9) 0.2263(5)
H41_5 H 0.156871 0.792522 0.218443
H42_5 H 0.173839 0.772772 0.248317
C35_5 C 0.1504(9) 0.6678(8) 0.2317(5)
H43_5 H 0.123772 0.628587 0.227418
H44_5 H 0.154368 0.672631 0.253749
C36_5 C 0.2508(7) 0.7476(9) 0.2256(5)
H45_5 H 0.254118 0.751653 0.247628
H46_5 H 0.287652 0.758614 0.217235
C37_5 C 0.1286(7) 0.7063(9) 0.2180(5)
H47_5 H 0.091669 0.695538 0.226946
C38_5 C 0.2238(9) 0.7794(8) 0.1772(5)
H48_5 H 0.211726 0.804468 0.168889
H49_5 H 0.260368 0.789928 0.168572
C39_5 C 0.2286(8) 0.7855(6) 0.2122(5)
H50_5 H 0.255083 0.824926 0.217366
C40_4 C 0.3916(7) 0.3854(9) 0.3489(5)
H51_4 H 0.422607 0.380072 0.355748
C41_5 C 0.1446(6) 0.5938(6) 0.4884(3)
H52_4 H 0.139369 0.604123 0.508866
H53_5 H 0.127281 0.607590 0.474077
C42_5 C 0.2079(6) 0.6205(4) 0.4814(3)
H54_5 H 0.225862 0.661575 0.483601
C43_4 C 0.2075(6) 0.5336(6) 0.5003(3)
H55_4 H 0.225084 0.519410 0.514507
C44_5 C 0.1162(4) 0.5291(6) 0.4859(3)
H56_5 H 0.076107 0.512055 0.490906
C45_4 C 0.2366(5) 0.5984(6) 0.5031(3)
H57_5 H 0.276097 0.615133 0.497928
H58_4 H 0.233883 0.608701 0.524018
C46_4 C 0.1439(6) 0.5059(6) 0.5076(3)
H59_4 H 0.138798 0.513936 0.528615
H60_4 H 0.126097 0.465447 0.505270
C47_5 C 0.2150(6) 0.6058(5) 0.4477(3)
H61_5 H 0.254679 0.623184 0.442734
H62_5 H 0.197649 0.620136 0.433759
C48_5 C 0.2143(6) 0.5180(6) 0.4668(3)
H63_5 H 0.196462 0.477482 0.464729
H64_5 H 0.253878 0.534442 0.461878
C49_5 C 0.1227(5) 0.5136(6) 0.4521(3)
H65_5 H 0.105000 0.527510 0.438177
H66_5 H 0.104459 0.473021 0.449950
C50_5 C 0.2025(10) 0.6785(9) 0.1818(5)
H67_5 H 0.238733 0.688652 0.172954
H68_5 H 0.176185 0.639584 0.176690
Ag10_5 Ag 0.33603(8) 0.76710(6) 0.31746(4)
Ag11_5 Ag 0.33211(9) 0.72548(7) 0.38319(4)
Ag12_5 Ag 0.39869(10) 0.72856(7) 0.28192(4)
Ag13_5 Ag 0.23735(8) 0.67591(6) 0.34221(4)
Ag14_5 Ag 0.40722(8) 0.84728(6) 0.36570(4)
Ag15_5 Ag 0.39668(11) 0.83756(8) 0.26374(4)
Ag16_4 Ag 0.23022(11) 0.73992(8) 0.39744(4)
S5_5 S 0.38775(28) 0.8732(2) 0.31381(12)
S6_5 S 0.3308(4) 0.8086(3) 0.40565(14)
S7_5 S 0.4054(3) 0.7686(2) 0.23114(12)
S8_5 S 0.1548(3) 0.6506(2) 0.37647(12)
C51_5 C 0.3546(8) 0.8136(6) 0.4447(2)
C52_5 C 0.1001(11) 0.6561(9) 0.3554(4)
C53_5 C 0.4773(12) 0.7919(9) 0.2169(5)
C54_5 C 0.3310(15) 0.8919(11) 0.3134(6)
C55_5 C 0.4681(14) 0.9751(10) 0.1749(6)
N3_5 N 0.4148(13) 0.9060(10) 0.2245(4)
C57_5 C 0.3981(16) 0.8870(11) 0.1959(6)
H69_5 H 0.369814 0.849809 0.193169
H70_5 H 0.428608 0.979496 0.118554
C60_5 C 0.4522(16) 0.9545(12) 0.2262(6)
H72_5 H 0.461722 0.967763 0.246151
C61_5 C 0.4209(15) 0.9202(11) 0.1711(6)
H73_5 H 0.405913 0.907200 0.151800
C63_5 C 0.4838(16) 0.9942(11) 0.2041(6)
C64_5 C 0.2979(16) 0.9536(12) 0.2925(7)
H76_5 H 0.305421 0.982353 0.276968
C65_5 C 0.3350(16) 0.9200(12) 0.3479(6)
H77_5 H 0.370858 0.954356 0.350797
H78_5 H 0.329656 0.893673 0.364120
C66_5 C 0.2754(16) 0.8430(11) 0.3105(7)
H79_5 H 0.273906 0.822870 0.292060
H80_5 H 0.268608 0.818117 0.327719
C67_5 C 0.2843(17) 0.9326(12) 0.3465(7)
H81_5 H 0.281386 0.947597 0.366322
C68_5 C 0.2421(16) 0.9017(11) 0.2852(6)
H82_5 H 0.244798 0.886008 0.265914
H83_5 H 0.213096 0.912042 0.283312
C69_5 C 0.2321(17) 0.8821(12) 0.3404(6)
H84_5 H 0.227900 0.853499 0.354938
H85_5 H 0.201484 0.889590 0.344037
C70_5 C 0.2261(16) 0.8591(12) 0.3093(6)
H86_5 H 0.188769 0.826102 0.305834
C72_5 C 0.3022(16) 0.9786(12) 0.3228(6)
H89_5 H 0.277971 0.994974 0.323848
C73_5 C 0.3408(16) 0.9364(12) 0.2897(6)
H90_5 H 0.339246 0.921559 0.269458
H91_5 H 0.378004 0.969032 0.292602
C74_5 C 0.0615(12) 0.7096(8) 0.3104(4)
H92_5 H 0.032444 0.712516 0.299306
H93_5 H 0.097863 0.740224 0.303841
C75_5 C 0.0427(11) 0.6065(8) 0.3664(4)
H94_5 H 0.041182 0.570977 0.362589
H95_5 H 0.038569 0.609727 0.388259
C76_5 C 0.1064(12) 0.6501(10) 0.3207(5)
H96_5 H 0.142337 0.680460 0.313699
H97_5 H 0.104940 0.614667 0.316600
C77_5 C 0.1006(13) 0.7128(8) 0.3614(5)
H98_5 H 0.136351 0.744128 0.354815
H99_5 H 0.096851 0.716909 0.383167
C79_5 C 0.0007(13) 0.6030(8) 0.3142(5)
C80_5 C 0.0543(10) 0.7145(7) 0.3450(5)
H104_5 H 0.055862 0.750418 0.349294
C81_5 C 0.0576(13) 0.6520(9) 0.3033(3)
H105_5 H 0.061599 0.648633 0.281271
C82_5 C 0.5369(13) 0.8192(9) 0.1683(4)
H106_5 H 0.536553 0.822836 0.146082
C83_5 C 0.5766(12) 0.8774(7) 0.1831(5)
H107_5 H 0.563359 0.903400 0.178198
H108_5 H 0.614270 0.892614 0.174967
C84_5 C 0.5980(13) 0.8295(10) 0.2263(5)
H109_5 H 0.635652 0.843129 0.218443
H110_5 H 0.598934 0.826161 0.248317
C85_5 C 0.5175(12) 0.8496(9) 0.2317(5)
H111_5 H 0.504816 0.876228 0.227418
H112_5 H 0.518264 0.845632 0.253749
C86_5 C 0.4969(11) 0.7492(7) 0.2256(5)
H113_5 H 0.497536 0.745882 0.247628
H114_5 H 0.470963 0.712348 0.217235
C87_5 C 0.5778(11) 0.8714(7) 0.2180(5)
H115_5 H 0.603870 0.908331 0.226946
C88_5 C 0.5557(12) 0.7762(9) 0.1772(5)
H116_5 H 0.592743 0.788274 0.168889
H117_5 H 0.529561 0.739632 0.168572
C89_5 C 0.5570(10) 0.7714(8) 0.2122(5)
H118_5 H 0.569844 0.744917 0.217366
C91_5 C 0.4493(8) 0.8554(6) 0.4884(3)
H120_4 H 0.464755 0.860631 0.508866
H121_5 H 0.480310 0.872719 0.474077
C92_5 C 0.4127(7) 0.7921(6) 0.4814(3)
H122_5 H 0.435714 0.774138 0.483601
C93_4 C 0.3262(8) 0.7925(6) 0.5003(3)
H123_4 H 0.294327 0.774916 0.514507
C94_5 C 0.4130(7) 0.8838(4) 0.4859(3)
H124_5 H 0.435949 0.923893 0.490906
C95_4 C 0.3619(8) 0.7634(5) 0.5031(3)
H125_5 H 0.339037 0.723903 0.497928
H126_4 H 0.374819 0.766117 0.524018
C96_4 C 0.3621(8) 0.8561(6) 0.5076(3)
H127_4 H 0.375139 0.861202 0.528615
H128_4 H 0.339351 0.873903 0.505270
C97_5 C 0.3909(8) 0.7850(6) 0.4477(3)
H129_5 H 0.368506 0.745321 0.442734
H130_5 H 0.422488 0.802351 0.433759
C98_5 C 0.3038(8) 0.7857(6) 0.4668(3)
H131_5 H 0.281021 0.803538 0.464729
H132_5 H 0.280565 0.746122 0.461878
C99_5 C 0.3910(8) 0.8773(5) 0.4521(3)
H133_5 H 0.422511 0.895000 0.438177
H134_5 H 0.368563 0.895541 0.449950
C100_5 C 0.4761(13) 0.7975(10) 0.1818(5)
H135_5 H 0.449920 0.761267 0.172954
H136_5 H 0.463400 0.823815 0.176690
Ag17_4 Ag 0.43108(6) 0.66397(8) 0.31746(4)
Ag18_5 Ag 0.39338(6) 0.66789(9) 0.38319(4)
Ag19_5 Ag 0.32988(7) 0.60131(10) 0.28192(4)
Ag20_5 Ag 0.43857(6) 0.76265(8) 0.34221(4)
Ag21_4 Ag 0.44007(6) 0.59278(8) 0.36570(4)
Ag22_4 Ag 0.44089(7) 0.60332(11) 0.26374(4)
Ag23_4 Ag 0.50971(8) 0.76978(11) 0.39744(4)
S9_4 S 0.48549(19) 0.61225(28) 0.31381(12)
S10_5 S 0.4779(3) 0.6692(4) 0.40565(14)
S11_4 S 0.3633(2) 0.5946(3) 0.23114(12)
S12_5 S 0.4959(2) 0.8452(3) 0.37647(12)
C101_4 C 0.4591(6) 0.6454(8) 0.4447(2)
C102_5 C 0.5561(7) 0.8999(11) 0.3554(4)
C103_5 C 0.3147(8) 0.5227(12) 0.2169(5)
C104_5 C 0.5610(10) 0.6690(15) 0.3134(6)
C105_4 C 0.5071(10) 0.5319(14) 0.1749(6)
N5_4 N 0.4913(9) 0.5852(13) 0.2245(4)
C106_5 C 0.5138(11) 0.5047(15) 0.1472(6)
C107_4 C 0.4890(11) 0.6019(16) 0.1959(6)
H137_4 H 0.479996 0.630186 0.193169
C108_5 C 0.5383(10) 0.5331(14) 0.1205(5)
H138_5 H 0.550889 0.571392 0.118554
C109_5 C 0.4926(10) 0.4458(15) 0.1478(6)
H139_5 H 0.473720 0.424572 0.164940
C110_4 C 0.5024(11) 0.5478(16) 0.2262(6)
H140_4 H 0.506042 0.538278 0.246151
C111_4 C 0.4994(10) 0.5791(15) 0.1711(6)
H141_5 H 0.501288 0.594087 0.151800
C112_5 C 0.5435(11) 0.5029(15) 0.0968(6)
H142_5 H 0.562313 0.523181 0.079447
C113_4 C 0.5105(11) 0.5162(16) 0.2041(6)
H143_4 H 0.517489 0.487144 0.208743
C114_5 C 0.6558(11) 0.7021(16) 0.2925(7)
H144_5 H 0.676933 0.694579 0.276968
C115_4 C 0.5851(11) 0.6650(16) 0.3479(6)
H145_4 H 0.583499 0.629142 0.350797
H146_5 H 0.564018 0.670344 0.364120
C116_5 C 0.5677(11) 0.7246(16) 0.3105(7)
H147_5 H 0.548965 0.726094 0.292060
H148_5 H 0.549510 0.731392 0.327719
C117_5 C 0.6484(12) 0.7157(17) 0.3465(7)
H149_5 H 0.666212 0.718614 0.366322
C118_5 C 0.6597(12) 0.7579(16) 0.2852(6)
H150_5 H 0.641211 0.755202 0.265914
H151_5 H 0.698947 0.786904 0.283312
C119_5 C 0.6501(12) 0.7679(17) 0.3404(6)
H152_5 H 0.625600 0.772100 0.354938
H153_5 H 0.688107 0.798516 0.344037
C120_5 C 0.6331(11) 0.7739(16) 0.3093(6)
H154_5 H 0.637334 0.811231 0.305834
C121_5 C 0.5006(11) 0.4202(16) 0.1219(6)
H155_5 H 0.488765 0.382012 0.122848
C122_5 C 0.6765(11) 0.6978(16) 0.3228(6)
H156_4 H 0.667483 0.659375 0.326611
H157_5 H 0.717004 0.722029 0.323848
C123_4 C 0.5957(11) 0.6592(16) 0.2897(6)
H158_4 H 0.582314 0.660754 0.269458
H159_4 H 0.591029 0.621996 0.292602
C124_5 C 0.6482(9) 0.9385(12) 0.3104(4)
H160_5 H 0.680073 0.967556 0.299306
H161_5 H 0.642362 0.902137 0.303841
C125_5 C 0.5639(8) 0.9573(11) 0.3664(4)
H162_5 H 0.529796 0.958818 0.362589
H163_5 H 0.571159 0.961431 0.388259
C126_5 C 0.5438(7) 0.8936(12) 0.3207(5)
H164_5 H 0.538124 0.857663 0.313699
H165_5 H 0.509728 0.895060 0.316600
C127_5 C 0.6123(10) 0.8994(13) 0.3614(5)
H166_5 H 0.607778 0.863649 0.354815
H167_5 H 0.620059 0.903149 0.383167
C129_5 C 0.6024(10) 0.9993(13) 0.3142(5)
C130_5 C 0.6603(7) 0.9457(10) 0.3450(5)
H172_5 H 0.694557 0.944138 0.349294
C131_5 C 0.5945(9) 0.9424(13) 0.3033(3)
H173_5 H 0.587035 0.938401 0.281271
C132_5 C 0.2824(9) 0.4631(13) 0.1683(4)
H174_5 H 0.286284 0.463447 0.146082
C133_5 C 0.3009(10) 0.4234(12) 0.1831(5)
H175_4 H 0.340042 0.436641 0.178198
H176_5 H 0.278345 0.385730 0.174967
C134_5 C 0.2316(9) 0.4020(13) 0.2263(5)
H177_5 H 0.207478 0.364348 0.218443
H178_5 H 0.227228 0.401066 0.248317
C135_5 C 0.3322(8) 0.4825(12) 0.2317(5)
H179_4 H 0.371413 0.495184 0.227418
H180_5 H 0.327369 0.481736 0.253749
C136_5 C 0.2524(9) 0.5031(11) 0.2256(5)
H181_5 H 0.248347 0.502464 0.247628
H182_5 H 0.241386 0.529037 0.217235
C137_5 C 0.2937(9) 0.4222(11) 0.2180(5)
H183_5 H 0.304462 0.396130 0.226946
C138_5 C 0.2206(8) 0.4443(12) 0.1772(5)
H184_5 H 0.195532 0.407257 0.168889
H185_5 H 0.210072 0.470439 0.168572
C139_5 C 0.2145(6) 0.4430(10) 0.2122(5)
H186_5 H 0.175074 0.430156 0.217366
C141_4 C 0.4062(6) 0.5507(8) 0.4884(3)
H188_3 H 0.395877 0.535245 0.508866
H189_4 H 0.392410 0.519690 0.474077
C142_4 C 0.3795(4) 0.5873(7) 0.4814(3)
H190_4 H 0.338425 0.564286 0.483601
C143_4 C 0.4664(6) 0.6738(8) 0.5003(3)
H191_4 H 0.480590 0.705673 0.514507
C144_4 C 0.4709(6) 0.5870(7) 0.4859(3)
H192_4 H 0.487945 0.564051 0.490906
C145_3 C 0.4016(6) 0.6381(8) 0.5031(3)
H193_4 H 0.384867 0.660963 0.497928
H194_3 H 0.391299 0.625181 0.524018
C146_3 C 0.4941(6) 0.6379(8) 0.5076(3)
H195_3 H 0.486064 0.624861 0.528615
H196_3 H 0.534553 0.660649 0.505270
C147_4 C 0.3942(5) 0.6091(8) 0.4477(3)
H197_4 H 0.376816 0.631494 0.442734
H198_4 H 0.379864 0.577512 0.433759
C148_5 C 0.4820(6) 0.6962(8) 0.4668(3)
H199_5 H 0.522518 0.718979 0.464729
H200_5 H 0.465558 0.719435 0.461878
C149_4 C 0.4864(6) 0.6090(8) 0.4521(3)
H201_4 H 0.472490 0.577489 0.438177
H202_4 H 0.526979 0.631437 0.449950
C150_5 C 0.3215(9) 0.5239(13) 0.1818(5)
H203_5 H 0.311348 0.550080 0.172954
H204_4 H 0.360416 0.536600 0.176690
N7_4 N 0.5903(9) 0.8092(8) 0.4297(5)
N8_4 N 0.2188(12) 0.4097(9) 0.4297(5)
N9_4 N 0.1908(8) 0.7812(12) 0.4297(5)
C6_5 C 0.9910(10) 0.4862(11) 0.1472(6)
C8_5 C 0.9949(10) 0.4617(10) 0.1205(5)
C9_5 C 0.9533(11) 0.5074(10) 0.1478(6)
H3_5 H 0.950853 0.526280 0.164940
C12_5 C 0.9595(10) 0.4565(11) 0.0968(6)
H6_5 H 0.960869 0.437687 0.079447
H7_5 H 0.969656 0.482511 0.208743
C21_5 C 0.9197(11) 0.4994(11) 0.1219(6)
H19_5 H 0.893248 0.511235 0.122848
H20_4 H 0.991893 0.332517 0.326611
C78_5 C 0.9973(12) 0.6656(10) 0.3560(5)
H100_5 H 0.993436 0.668875 0.377878
H101_5 H 0.966724 0.667295 0.345877
H102_5 H 0.970185 0.603666 0.303353
H103_5 H 0.998868 0.567465 0.310042
C90_5 C 0.9939(11) 0.6084(7) 0.3489(5)
H119_5 H 0.957466 0.577393 0.355748
Ag1_8 Ag 0.000000 -0.000000 0.66513(6)
Ag9_8 Ag 0.000000 -0.000000 0.55112(9)
Ag10_6 Ag 0.00269(8) 0.10044(6) 0.65080(4)
Ag12_6 Ag 0.06535(10) 0.06190(7) 0.61526(4)
Ag14_6 Ag 0.07388(8) 0.18062(6) 0.69904(4)
Ag15_6 Ag 0.06334(11) 0.17090(8) 0.59708(4)
S5_6 S 0.05441(28) 0.2066(2) 0.64715(12)
S7_6 S 0.0720(3) 0.1020(2) 0.56448(12)
C51_6 C 0.0212(8) 0.1470(6) 0.7781(2)
C53_6 C 0.1439(12) 0.1253(9) 0.5503(5)
C55_6 C 0.1347(14) 0.3085(10) 0.5083(6)
N3_6 N 0.0814(13) 0.2394(10) 0.5579(4)
C56_6 C 0.1619(15) 0.3424(10) 0.4806(6)
C57_6 C 0.0647(16) 0.2204(11) 0.5293(6)
H69_6 H 0.036480 0.183143 0.526503
C58_6 C 0.1335(14) 0.3385(10) 0.4539(5)
H70_6 H 0.095274 0.312830 0.451888
C59_6 C 0.2208(15) 0.3801(11) 0.4812(6)
H71_6 H 0.242094 0.382481 0.498274
C60_6 C 0.1188(16) 0.2879(12) 0.5596(6)
H72_6 H 0.128388 0.301097 0.579485
C61_6 C 0.0875(15) 0.2536(11) 0.5045(6)
H73_6 H 0.072579 0.240534 0.485134
C62_6 C 0.1637(15) 0.3739(10) 0.4302(6)
H74_6 H 0.143485 0.372465 0.412781
C63_6 C 0.1504(16) 0.3276(11) 0.5375(6)
H75_6 H 0.179522 0.363678 0.542077
C65_6 C 0.0016(16) 0.2534(12) 0.6813(6)
H77_6 H 0.037524 0.287690 0.684131
C71_6 C 0.2464(16) 0.4137(11) 0.4553(6)
H87_6 H 0.284654 0.440086 0.456182
H88_6 H 0.007291 0.341441 0.659945
C73_6 C 0.0074(16) 0.2698(12) 0.6231(6)
H90_6 H 0.005912 0.254893 0.602792
H91_6 H 0.044670 0.302366 0.625936
C82_6 C 0.2035(13) 0.1526(9) 0.5017(4)
H106_6 H 0.203219 0.156170 0.479416
C83_6 C 0.2432(12) 0.2108(7) 0.5165(5)
H107_6 H 0.230025 0.236734 0.511532
H108_6 H 0.280936 0.225948 0.508301
C84_6 C 0.2646(13) 0.1629(10) 0.5597(5)
H109_6 H 0.302318 0.176463 0.551777
H110_6 H 0.265600 0.159495 0.581651
C85_6 C 0.1841(12) 0.1830(9) 0.5651(5)
H111_6 H 0.171482 0.209562 0.560752
H112_6 H 0.184930 0.178966 0.587083
C86_6 C 0.1635(11) 0.0826(7) 0.5590(5)
H113_6 H 0.164202 0.079216 0.580962
H114_6 H 0.137629 0.045682 0.550569
C87_6 C 0.2444(11) 0.2048(7) 0.5514(5)
H115_6 H 0.270536 0.241665 0.560280
C88_6 C 0.2223(12) 0.1096(9) 0.5106(5)
H116_6 H 0.259409 0.121608 0.502223
H117_6 H 0.196227 0.072966 0.501906
C89_6 C 0.2236(10) 0.1048(8) 0.5456(5)
H118_6 H 0.236510 0.078251 0.550700
C91_6 C 0.1159(8) 0.1888(6) 0.8218(3)
H120_5 H 0.131421 0.193965 0.842200
H121_6 H 0.146976 0.206053 0.807411
C92_6 C 0.0793(7) 0.1255(6) 0.8148(3)
H122_6 H 0.102380 0.107472 0.816935
C94_6 C 0.0796(7) 0.2172(4) 0.8193(3)
H124_6 H 0.102615 0.257227 0.824240
C95_5 C 0.0285(8) 0.0968(5) 0.8365(3)
H125_6 H 0.005703 0.057237 0.831262
H126_5 H 0.041485 0.099451 0.857352
C96_5 C 0.0287(8) 0.1895(6) 0.8410(3)
H127_5 H 0.041805 0.194536 0.861949
H128_5 H 0.006017 0.207237 0.838604
C97_6 C 0.0575(8) 0.1184(6) 0.7811(3)
H129_6 H 0.035172 0.078655 0.776068
H130_6 H 0.089154 0.135685 0.767093
C99_6 C 0.0576(8) 0.2107(5) 0.7855(3)
H133_6 H 0.089177 0.228334 0.771511
H134_6 H 0.035229 0.228875 0.783284
C100_6 C 0.1427(13) 0.1309(10) 0.5152(5)
H135_6 H 0.116586 0.094601 0.506288
H136_6 H 0.130066 0.157149 0.510024
Ag18_6 Ag 0.06004(6) 0.00123(9) 0.71653(4)
Ag20_6 Ag 0.10523(6) 0.09599(8) 0.67555(4)
S10_6 S 0.1445(3) 0.0026(4) 0.73899(14)
S12_6 S 0.1625(2) 0.1786(3) 0.70981(12)
C102_6 C 0.2227(7) 0.2333(11) 0.6888(4)
C104_6 C 0.2276(10) 0.0024(15) 0.6468(6)
C114_6 C 0.3224(11) 0.0355(16) 0.6259(7)
H144_6 H 0.343599 0.027913 0.610302
H146_6 H 0.230684 0.003678 0.697454
C116_6 C 0.2343(11) 0.0580(16) 0.6439(7)
H147_6 H 0.215631 0.059428 0.625394
H148_6 H 0.216176 0.064726 0.661053
C117_6 C 0.3150(12) 0.0491(17) 0.6799(7)
H149_6 H 0.332878 0.051948 0.699656
C118_6 C 0.3263(12) 0.0913(16) 0.6186(6)
H150_6 H 0.307877 0.088536 0.599248
H151_6 H 0.365613 0.120238 0.616646
C119_6 C 0.3167(12) 0.1013(17) 0.6738(6)
H152_6 H 0.292266 0.105434 0.688272
H153_6 H 0.354773 0.131850 0.677371
C120_6 C 0.2997(11) 0.1073(16) 0.6427(6)
H154_6 H 0.304000 0.144565 0.639168
C122_6 C 0.3431(11) 0.0312(16) 0.6562(6)
H157_6 H 0.383670 0.055363 0.657182
C124_6 C 0.3148(9) 0.2719(12) 0.6438(4)
H160_6 H 0.346739 0.300890 0.632640
H161_6 H 0.309028 0.235471 0.637175
C125_6 C 0.2305(8) 0.2907(11) 0.6998(4)
H162_6 H 0.196462 0.292152 0.695923
H163_6 H 0.237825 0.294765 0.721593
C126_6 C 0.2104(7) 0.2270(12) 0.6541(5)
H164_6 H 0.204790 0.190997 0.647033
H165_6 H 0.176394 0.228394 0.649934
C127_6 C 0.2789(10) 0.2328(13) 0.6948(5)
H166_6 H 0.274444 0.196983 0.688149
H167_6 H 0.286725 0.236483 0.716501
C128_6 C 0.3350(7) 0.3361(12) 0.6894(5)
H168_6 H 0.342106 0.339898 0.711212
H169_6 H 0.367238 0.366610 0.679211
C129_6 C 0.2690(10) 0.3327(13) 0.6476(5)
H170_6 H 0.300148 0.363149 0.636687
H171_6 H 0.235264 0.334466 0.643376
C130_6 C 0.3269(7) 0.2791(10) 0.6784(5)
H172_6 H 0.361223 0.277472 0.682628
C131_6 C 0.2611(9) 0.2758(13) 0.6367(3)
H173_6 H 0.253701 0.271735 0.614605
C140_6 C 0.2812(9) 0.3395(11) 0.6823(5)
H187_6 H 0.286594 0.375868 0.689082
C143_5 C 0.1330(6) 0.0072(8) 0.8337(3)
H191_5 H 0.147256 0.039007 0.847841
C148_6 C 0.1486(6) 0.0296(8) 0.8002(3)
H199_6 H 0.189184 0.052313 0.798063
H200_6 H 0.132224 0.052769 0.795212
Ag1_9 Ag 0.000000 1.000000 0.66513(6)
Ag9_9 Ag 0.000000 1.000000 0.55112(9)
S4_5 S 0.0160(2) 0.8375(2) 0.70981(12)
C2_5 C 0.0105(9) 0.7773(7) 0.6888(4)
C25_5 C 0.0601(8) 0.7695(8) 0.6998(4)
H26_5 H 0.095689 0.803538 0.695923
H27_5 H 0.056939 0.762175 0.721593
C26_5 C 0.0165(10) 0.7896(7) 0.6541(5)
H29_5 H 0.051999 0.823606 0.649934
C28_4 C 0.0010(10) 0.6650(7) 0.6894(5)
C29_5 C 0.0636(8) 0.7310(10) 0.6476(5)
H34_5 H 0.063000 0.699852 0.636687
H35_5 H 0.099201 0.764736 0.643376
C31_5 C 0.0146(9) 0.7389(9) 0.6367(3)
H37_5 H 0.018033 0.746299 0.614605
C40_5 C 0.0582(7) 0.7188(9) 0.6823(5)
H51_5 H 0.089273 0.713406 0.689082
Ag17_5 Ag 0.09774(6) 0.99731(8) 0.65080(4)
Ag21_5 Ag 0.10673(6) 0.92612(8) 0.69904(4)
Ag22_5 Ag 0.10755(7) 0.93666(11) 0.59708(4)
S9_5 S 0.15215(19) 0.94559(28) 0.64715(12)
S11_5 S 0.0299(2) 0.9280(3) 0.56448(12)
C101_5 C 0.1257(6) 0.9788(8) 0.7781(2)
C105_5 C 0.1737(10) 0.8653(14) 0.5083(6)
N5_5 N 0.1579(9) 0.9186(13) 0.5579(4)
C106_6 C 0.1804(11) 0.8381(15) 0.4806(6)
C107_5 C 0.1556(11) 0.9353(16) 0.5293(6)
H137_5 H 0.146662 0.963520 0.526503
C108_6 C 0.2049(10) 0.8665(14) 0.4539(5)
H138_6 H 0.217555 0.904726 0.451888
C109_6 C 0.1592(10) 0.7792(15) 0.4812(6)
H139_6 H 0.140386 0.757906 0.498274
C110_5 C 0.1690(11) 0.8812(16) 0.5596(6)
H140_5 H 0.172708 0.871612 0.579485
C111_5 C 0.1660(10) 0.9125(15) 0.5045(6)
H141_6 H 0.167954 0.927421 0.485134
C112_6 C 0.2101(11) 0.8363(15) 0.4302(6)
H142_6 H 0.228979 0.856515 0.412781
C113_5 C 0.1771(11) 0.8496(16) 0.5375(6)
H143_5 H 0.184155 0.820478 0.542077
C115_5 C 0.2517(11) 0.9984(16) 0.6813(6)
H145_5 H 0.250165 0.962476 0.684131
C121_6 C 0.1672(11) 0.7536(16) 0.4553(6)
H155_6 H 0.155431 0.715346 0.456182
H156_5 H 0.334149 0.992709 0.659945
C123_5 C 0.2623(11) 0.9926(16) 0.6231(6)
H158_5 H 0.248980 0.994088 0.602792
H159_5 H 0.257695 0.955330 0.625936
H175_5 H 0.006708 0.769975 0.511532
H179_5 H 0.038079 0.828518 0.560752
C141_5 C 0.0728(6) 0.8841(8) 0.8218(3)
H188_4 H 0.062543 0.868579 0.842200
H189_5 H 0.059076 0.853024 0.807411
C142_5 C 0.0461(4) 0.9207(7) 0.8148(3)
H190_5 H 0.005091 0.897620 0.816935
C144_5 C 0.1375(6) 0.9204(7) 0.8193(3)
H192_5 H 0.154611 0.897385 0.824240
C145_4 C 0.0682(6) 0.9715(8) 0.8365(3)
H193_5 H 0.051533 0.994297 0.831262
H194_4 H 0.057965 0.958515 0.857352
C146_4 C 0.1607(6) 0.9713(8) 0.8410(3)
H195_4 H 0.152730 0.958195 0.861949
H196_4 H 0.201219 0.993983 0.838604
C147_5 C 0.0608(5) 0.9425(8) 0.7811(3)
H197_5 H 0.043482 0.964828 0.776068
H198_5 H 0.046530 0.910846 0.767093
C149_5 C 0.1530(6) 0.9424(8) 0.7855(3)
H201_5 H 0.139156 0.910823 0.771511
H202_5 H 0.193645 0.964771 0.783284
H204_5 H 0.027082 0.869934 0.510024
Ag1_10 Ag 1.000000 -0.000000 0.66513(6)
Ag4_6 Ag 0.93810(7) 0.00346(7) 0.61526(4)
Ag9_10 Ag 1.000000 -0.000000 0.55112(9)
C3_6 C 0.8747(9) 0.0187(8) 0.5503(5)
C32_6 C 0.8474(9) 0.0510(9) 0.5017(4)
H38_5 H 0.843830 0.047050 0.479416
C33_6 C 0.7892(7) 0.0325(10) 0.5165(5)
H40_6 H 0.774052 0.054989 0.508301
C34_6 C 0.8371(10) 0.1018(9) 0.5597(5)
H41_6 H 0.823537 0.125856 0.551777
H42_6 H 0.840505 0.106106 0.581651
C35_6 C 0.8170(9) 0.0012(8) 0.5651(5)
H44_6 H 0.821034 0.005965 0.587083
C36_6 C 0.9174(7) 0.0810(9) 0.5590(5)
H45_6 H 0.920784 0.084987 0.580962
H46_6 H 0.954318 0.091948 0.550569
C37_6 C 0.7952(7) 0.0397(9) 0.5514(5)
H47_6 H 0.758335 0.028872 0.560280
C38_6 C 0.8904(9) 0.1128(8) 0.5106(5)
H48_6 H 0.878392 0.137802 0.502223
H49_6 H 0.927034 0.123262 0.501906
C39_6 C 0.8952(8) 0.1189(6) 0.5456(5)
H50_6 H 0.921749 0.158260 0.550700
C50_6 C 0.8691(10) 0.0119(9) 0.5152(5)
H67_6 H 0.905399 0.021986 0.506288
Ag11_6 Ag 0.99877(9) 0.05882(7) 0.71653(4)
Ag13_6 Ag 0.90401(8) 0.00925(6) 0.67555(4)
S6_6 S 0.9974(4) 0.1420(3) 0.73899(14)
C54_6 C 0.9976(15) 0.2253(11) 0.6468(6)
C64_6 C 0.9645(16) 0.2870(12) 0.6259(7)
H76_6 H 0.972087 0.315687 0.610302
H78_6 H 0.996322 0.227007 0.697454
C66_6 C 0.9420(16) 0.1764(11) 0.6439(7)
H79_6 H 0.940572 0.156204 0.625394
H80_6 H 0.935274 0.151451 0.661053
C67_6 C 0.9509(17) 0.2660(12) 0.6799(7)
H81_6 H 0.948052 0.280931 0.699656
C68_6 C 0.9087(16) 0.2351(11) 0.6186(6)
H82_6 H 0.911464 0.219342 0.599248
H83_6 H 0.879762 0.245376 0.616646
C69_6 C 0.8987(17) 0.2155(12) 0.6738(6)
H84_6 H 0.894566 0.186833 0.688272
H85_6 H 0.868150 0.222924 0.677371
C70_6 C 0.8927(16) 0.1925(12) 0.6427(6)
H86_6 H 0.855435 0.159436 0.639168
C72_6 C 0.9688(16) 0.3120(12) 0.6562(6)
H89_6 H 0.944637 0.328308 0.657182
C74_6 C 0.7281(12) 0.0430(8) 0.6438(4)
H92_6 H 0.699110 0.045850 0.632640
H93_6 H 0.764529 0.073558 0.637175
H96_6 H 0.809003 0.013794 0.647033
C77_6 C 0.7672(13) 0.0462(8) 0.6948(5)
H98_6 H 0.803017 0.077462 0.688149
H99_6 H 0.763517 0.050243 0.716501
H100_6 H 0.660102 0.002209 0.711212
H101_6 H 0.633390 0.000629 0.679211
C80_6 C 0.7209(10) 0.0479(7) 0.6784(5)
H104_6 H 0.722528 0.083752 0.682628
C93_5 C 0.9928(8) 0.1259(6) 0.8337(3)
H123_5 H 0.960993 0.108250 0.847841
C98_6 C 0.9704(8) 0.1191(6) 0.8002(3)
H131_6 H 0.947687 0.136872 0.798063
H132_6 H 0.947231 0.079456 0.795212
Ag1_11 Ag 1.000000 1.000000 0.66513(6)
Ag2_6 Ag 0.89956(6) 0.90226(6) 0.65080(4)
Ag3_6 Ag 0.94118(7) 0.93996(6) 0.71653(4)
Ag5_6 Ag 0.99075(6) 0.89477(6) 0.67555(4)
Ag6_6 Ag 0.81938(6) 0.89327(6) 0.69904(4)
Ag7_6 Ag 0.82910(8) 0.89245(7) 0.59708(4)
Ag9_11 Ag 1.000000 1.000000 0.55112(9)
S1_6 S 0.7934(2) 0.84785(19) 0.64715(12)
S2_6 S 0.8580(3) 0.8555(3) 0.73899(14)
S3_6 S 0.8980(2) 0.9701(2) 0.56448(12)
C1_6 C 0.8530(6) 0.8743(6) 0.7781(2)
C4_6 C 0.7747(11) 0.7724(10) 0.6468(6)
C5_6 C 0.6915(10) 0.8263(10) 0.5083(6)
N1_6 N 0.7606(10) 0.8421(9) 0.5579(4)
C6_6 C 0.6576(10) 0.8196(11) 0.4806(6)
C7_6 C 0.7796(11) 0.8444(11) 0.5293(6)
H1_6 H 0.816857 0.853338 0.526503
C8_6 C 0.6615(10) 0.7951(10) 0.4539(5)
H2_6 H 0.687170 0.782445 0.451888
C9_6 C 0.6199(11) 0.8408(10) 0.4812(6)
H3_6 H 0.617519 0.859614 0.498274
C10_6 C 0.7121(12) 0.8310(11) 0.5596(6)
H4_6 H 0.698903 0.827292 0.579485
C11_6 C 0.7464(11) 0.8340(10) 0.5045(6)
H5_6 H 0.759466 0.832046 0.485134
C12_6 C 0.6261(10) 0.7899(11) 0.4302(6)
H6_6 H 0.627535 0.771021 0.412781
C13_6 C 0.6724(11) 0.8229(11) 0.5375(6)
H7_6 H 0.636322 0.815845 0.542077
C14_6 C 0.7130(12) 0.6776(11) 0.6259(7)
H8_5 H 0.684313 0.656401 0.610302
C15_6 C 0.7466(12) 0.7483(11) 0.6813(6)
H9_6 H 0.712310 0.749835 0.684131
H10_6 H 0.772993 0.769316 0.697454
C16_6 C 0.8236(11) 0.7657(11) 0.6439(7)
H11_6 H 0.843796 0.784369 0.625394
H12_6 H 0.848549 0.783824 0.661053
C17_6 C 0.7340(12) 0.6850(12) 0.6799(7)
H13_6 H 0.719069 0.667122 0.699656
C18_6 C 0.7649(11) 0.6737(12) 0.6186(6)
H14_6 H 0.780658 0.692123 0.599248
H15_5 H 0.754624 0.634387 0.616646
C19_6 C 0.7845(12) 0.6833(12) 0.6738(6)
H16_6 H 0.813167 0.707734 0.688272
H17_5 H 0.777076 0.645227 0.677371
C20_6 C 0.8075(12) 0.7003(11) 0.6427(6)
H18_6 H 0.840564 0.696000 0.639168
C21_6 C 0.5863(11) 0.8328(11) 0.4553(6)
H19_6 H 0.559914 0.844569 0.456182
C22_5 C 0.6880(12) 0.6569(11) 0.6562(6)
H20_5 H 0.658559 0.665851 0.659945
H21_5 H 0.671692 0.616330 0.657182
C23_6 C 0.7302(12) 0.7377(11) 0.6231(6)
H22_6 H 0.745107 0.751020 0.602792
H23_6 H 0.697634 0.742305 0.625936
C24_6 C 0.9570(8) 0.6852(9) 0.6438(4)
H24_5 H 0.954150 0.653261 0.632640
H25_6 H 0.926442 0.690972 0.637175
H28_6 H 0.986206 0.795210 0.647033
C27_6 C 0.9538(8) 0.7211(10) 0.6948(5)
H30_6 H 0.922538 0.725556 0.688149
H31_6 H 0.949757 0.713275 0.716501
H32_5 H 0.997791 0.657894 0.711212
H33_5 H 0.999371 0.632762 0.679211
C30_6 C 0.9521(7) 0.6731(7) 0.6784(5)
H36_5 H 0.916248 0.638777 0.682628
H39_6 H 0.763266 0.993292 0.511532
H43_6 H 0.790438 0.961921 0.560752
C41_6 C 0.8112(6) 0.9272(6) 0.8218(3)
H52_5 H 0.806035 0.937457 0.842200
H53_6 H 0.793947 0.940924 0.807411
C42_6 C 0.8745(6) 0.9539(4) 0.8148(3)
H54_6 H 0.892528 0.994909 0.816935
C43_5 C 0.8741(6) 0.8670(6) 0.8337(3)
H55_5 H 0.891750 0.852744 0.847841
C44_6 C 0.7828(4) 0.8625(6) 0.8193(3)
H56_6 H 0.742773 0.845389 0.824240
C45_5 C 0.9032(5) 0.9318(6) 0.8365(3)
H57_6 H 0.942763 0.948467 0.831262
H58_5 H 0.900549 0.942035 0.857352
C46_5 C 0.8105(6) 0.8393(6) 0.8410(3)
H59_5 H 0.805464 0.847270 0.861949
H60_5 H 0.792763 0.798781 0.838604
C47_6 C 0.8816(6) 0.9392(5) 0.7811(3)
H61_6 H 0.921345 0.956518 0.776068
H62_6 H 0.864315 0.953470 0.767093
C48_6 C 0.8809(6) 0.8514(6) 0.8002(3)
H63_6 H 0.863128 0.810816 0.798063
H64_6 H 0.920544 0.867776 0.795212
C49_6 C 0.7893(5) 0.8470(6) 0.7855(3)
H65_6 H 0.771666 0.860844 0.771511
H66_6 H 0.771125 0.806355 0.783284
H68_6 H 0.842851 0.972918 0.510024
S8_6 S 0.8214(3) 0.9840(2) 0.70981(12)
C52_6 C 0.7667(11) 0.9895(9) 0.6888(4)
C75_6 C 0.7093(11) 0.9399(8) 0.6998(4)
H94_6 H 0.707848 0.904311 0.695923
H95_6 H 0.705235 0.943061 0.721593
C76_6 C 0.7730(12) 0.9835(10) 0.6541(5)
H97_6 H 0.771606 0.948001 0.649934
C78_6 C 0.6639(12) 0.9990(10) 0.6894(5)
C79_6 C 0.6673(13) 0.9364(8) 0.6476(5)
H102_6 H 0.636851 0.937000 0.636687
H103_6 H 0.665534 0.900799 0.643376
C81_6 C 0.7242(13) 0.9854(9) 0.6367(3)
H105_6 H 0.728265 0.981967 0.614605
C90_6 C 0.6605(11) 0.9418(7) 0.6823(5)
H119_6 H 0.624132 0.910727 0.689082
Ag19_6 Ag 0.99654(7) 0.93465(10) 0.61526(4)
C103_6 C 0.9813(8) 0.8561(12) 0.5503(5)
C132_6 C 0.9490(9) 0.7965(13) 0.5017(4)
H174_6 H 0.952950 0.796781 0.479416
C133_6 C 0.9675(10) 0.7568(12) 0.5165(5)
H176_6 H 0.945011 0.719064 0.508301
C134_6 C 0.8982(9) 0.7354(13) 0.5597(5)
H177_6 H 0.874144 0.697682 0.551777
H178_6 H 0.893894 0.734400 0.581651
C135_6 C 0.9988(8) 0.8159(12) 0.5651(5)
H180_6 H 0.994035 0.815070 0.587083
C136_6 C 0.9190(9) 0.8365(11) 0.5590(5)
H181_6 H 0.915013 0.835798 0.580962
H182_6 H 0.908052 0.862371 0.550569
C137_6 C 0.9603(9) 0.7556(11) 0.5514(5)
H183_6 H 0.971128 0.729464 0.560280
C138_6 C 0.8872(8) 0.7777(12) 0.5106(5)
H184_6 H 0.862198 0.740591 0.502223
H185_6 H 0.876738 0.803773 0.501906
C139_6 C 0.8811(6) 0.7764(10) 0.5456(5)
H186_6 H 0.841740 0.763490 0.550700
C150_6 C 0.9881(9) 0.8573(13) 0.5152(5)
H203_6 H 0.978014 0.883414 0.506288
H17_6 H 0.443743 0.978560 0.010704
C28_5 C 0.6677(10) 0.9983(7) 0.0227(5)
H32_6 H 0.664458 0.991227 0.044545
H33_6 H 0.666038 0.966095 0.012544
H36_6 H 0.582915 0.972110 0.015961
H8_6 H 0.350980 0.989734 0.943635
H15_6 H 0.421291 0.967720 0.949979
C22_6 C 0.3547(12) 0.9902(11) 0.9895(6)
H20_6 H 0.325226 0.999184 0.993278
H21_6 H 0.338359 0.949663 0.990515
H24_6 H 0.620817 0.986594 0.965973
H52_6 H 0.395877 0.860631 0.008866
C43_6 C 0.4664(6) 0.7925(6) 0.0003(3)
H55_6 H 0.480590 0.774916 0.014507
C45_6 C 0.4016(6) 0.7634(5) 0.0031(3)
H58_6 H 0.391299 0.766117 0.024018
C46_6 C 0.4941(6) 0.8561(6) 0.0076(3)
H59_6 H 0.486064 0.861202 0.028615
H60_6 H 0.534553 0.873903 0.005270
H120_6 H 0.139369 0.535245 0.008866
C93_6 C 0.2075(6) 0.6738(8) 0.0003(3)
H123_6 H 0.225084 0.705673 0.014507
C95_6 C 0.2366(5) 0.6381(8) 0.0031(3)
H126_6 H 0.233883 0.625181 0.024018
C96_6 C 0.1439(6) 0.6379(8) 0.0076(3)
H127_6 H 0.138798 0.624861 0.028615
H128_6 H 0.126097 0.660649 0.005270
H188_5 H 0.464755 0.604123 0.008866
C143_6 C 0.3262(8) 0.5336(6) 0.0003(3)
H191_6 H 0.294327 0.519410 0.014507
C145_5 C 0.3619(8) 0.5984(6) 0.0031(3)
H194_5 H 0.374819 0.608701 0.024018
C146_5 C 0.3621(8) 0.5059(6) 0.0076(3)
H195_5 H 0.375139 0.513936 0.028615
H196_5 H 0.339351 0.465447 0.005270
Ag1_12 Ag 0.000000 1.000000 0.16513(6)
Ag9_12 Ag 0.000000 1.000000 0.05112(9)
S4_6 S 0.1625(2) 0.9840(2) 0.20981(12)
C2_6 C 0.2227(7) 0.9895(9) 0.1888(4)
C25_6 C 0.2305(8) 0.9399(8) 0.1998(4)
H26_6 H 0.196462 0.904311 0.195923
H27_6 H 0.237825 0.943061 0.221593
C26_6 C 0.2104(7) 0.9835(10) 0.1541(5)
H29_6 H 0.176394 0.948001 0.149934
C28_6 C 0.3350(7) 0.9990(10) 0.1894(5)
C29_6 C 0.2690(10) 0.9364(8) 0.1476(5)
H34_6 H 0.300148 0.937000 0.136687
H35_6 H 0.235264 0.900799 0.143376
C31_6 C 0.2611(9) 0.9854(9) 0.1367(3)
H37_6 H 0.253701 0.981967 0.114605
C40_6 C 0.2812(9) 0.9418(7) 0.1823(5)
H51_6 H 0.286594 0.910727 0.189082
Ag17_6 Ag 0.00269(8) 0.90226(6) 0.15080(4)
Ag21_6 Ag 0.07388(8) 0.89327(6) 0.19904(4)
Ag22_6 Ag 0.06334(11) 0.89245(7) 0.09708(4)
S9_6 S 0.05441(28) 0.84785(19) 0.14715(12)
S11_6 S 0.0720(3) 0.9701(2) 0.06448(12)
C101_6 C 0.0212(8) 0.8743(6) 0.2781(2)
C105_6 C 0.1347(14) 0.8263(10) 0.0083(6)
N5_6 N 0.0814(13) 0.8421(9) 0.0579(4)
C107_6 C 0.0647(16) 0.8444(11) 0.0293(6)
H137_6 H 0.036480 0.853338 0.026503
C110_6 C 0.1188(16) 0.8310(11) 0.0596(6)
H140_6 H 0.128388 0.827292 0.079485
C111_6 C 0.0875(15) 0.8340(10) 0.0045(6)
C113_6 C 0.1504(16) 0.8229(11) 0.0375(6)
H143_6 H 0.179522 0.815845 0.042077
C115_6 C 0.0016(16) 0.7483(11) 0.1813(6)
H145_6 H 0.037524 0.749835 0.184131
H156_6 H 0.007291 0.665851 0.159945
C123_6 C 0.0074(16) 0.7377(11) 0.1231(6)
H158_6 H 0.005912 0.751020 0.102792
H159_6 H 0.044670 0.742305 0.125936
H175_6 H 0.230025 0.993292 0.011532
H179_6 H 0.171482 0.961921 0.060752
C141_6 C 0.1159(8) 0.9272(6) 0.3218(3)
H188_6 H 0.131421 0.937457 0.342200
H189_6 H 0.146976 0.940924 0.307411
C142_6 C 0.0793(7) 0.9539(4) 0.3148(3)
H190_6 H 0.102380 0.994909 0.316935
C144_6 C 0.0796(7) 0.8625(6) 0.3193(3)
H192_6 H 0.102615 0.845389 0.324240
C145_6 C 0.0285(8) 0.9318(6) 0.3365(3)
H193_6 H 0.005703 0.948467 0.331262
H194_6 H 0.041485 0.942035 0.357352
C146_6 C 0.0287(8) 0.8393(6) 0.3410(3)
H195_6 H 0.041805 0.847270 0.361949
H196_6 H 0.006017 0.798781 0.338604
C147_6 C 0.0575(8) 0.9392(5) 0.2811(3)
H197_6 H 0.035172 0.956518 0.276068
H198_6 H 0.089154 0.953470 0.267093
C149_6 C 0.0576(8) 0.8470(6) 0.2855(3)
H201_6 H 0.089177 0.860844 0.271511
H202_6 H 0.035229 0.806355 0.283284
H204_6 H 0.130066 0.972918 0.010024
H38_6 H 0.952950 0.156170 0.979416
Sb1 Sb 0.81879(19) 0.79686(18) 0.41145(7)
F1 F 0.8116(13) 0.8109(11) 0.4506(3)
F2 F 0.7530(9) 0.7318(9) 0.4134(7)
F3 F 0.8248(14) 0.7819(11) 0.3718(3)
F4 F 0.7870(19) 0.8374(17) 0.3995(6)
F5 F 0.838(2) 0.7453(16) 0.4228(6)
F6 F 0.8801(13) 0.8648(9) 0.4074(7)
Sb1_2 Sb 0.20314(18) 0.02193(26) 0.41145(7)
F1_2 F 0.1891(11) 0.0007(17) 0.4506(3)
F2_2 F 0.2682(9) 0.0212(13) 0.4134(7)
F3_2 F 0.2181(11) 0.0429(18) 0.3718(3)
F5_2 F 0.2547(16) 0.0927(26) 0.4228(6)
F6_2 F 0.1352(9) 0.0153(16) 0.4074(7)
F4_2 F 0.1626(17) 0.9496(25) 0.3995(6)
F4_3 F 0.0504(25) 0.2130(19) 0.3995(6)
Sb1_3 Sb 0.97807(26) 0.18121(19) 0.41145(7)
F1_3 F 0.9993(17) 0.1884(13) 0.4506(3)
F2_3 F 0.9788(13) 0.2470(9) 0.4134(7)
F3_3 F 0.9571(18) 0.1752(14) 0.3718(3)
F5_3 F 0.9073(26) 0.162(2) 0.4228(6)
F6_3 F 0.9847(16) 0.1199(13) 0.4074(7)
Sb1_4 Sb 0.20314(18) 0.18121(19) 0.91145(7)
F1_4 F 0.1891(11) 0.1884(13) 0.9506(3)
F2_4 F 0.2682(9) 0.2470(9) 0.9134(7)
F3_4 F 0.2181(11) 0.1752(14) 0.8718(3)
F4_4 F 0.1626(17) 0.2130(19) 0.8995(6)
F5_4 F 0.2547(16) 0.162(2) 0.9228(6)
F6_4 F 0.1352(9) 0.1199(13) 0.9074(7)
F4_5 F 0.0504(25) 0.8374(17) 0.8995(6)
Sb1_5 Sb 0.97807(26) 0.79686(18) 0.91145(7)
F1_5 F 0.9993(17) 0.8109(11) 0.9506(3)
F2_5 F 0.9788(13) 0.7318(9) 0.9134(7)
F3_5 F 0.9571(18) 0.7819(11) 0.8718(3)
F5_5 F 0.9073(26) 0.7453(16) 0.9228(6)
F6_5 F 0.9847(16) 0.8648(9) 0.9074(7)
Sb1_6 Sb 0.81879(19) 0.02193(26) 0.91145(7)
F1_6 F 0.8116(13) 0.0007(17) 0.9506(3)
F2_6 F 0.7530(9) 0.0212(13) 0.9134(7)
F3_6 F 0.8248(14) 0.0429(18) 0.8718(3)
F5_6 F 0.838(2) 0.0927(26) 0.9228(6)
F6_6 F 0.8801(13) 0.0153(16) 0.9074(7)
F4_6 F 0.7870(19) 0.9496(25) 0.8995(6)
Sb1_7 Sb 0.48546(19) 0.13019(18) 0.74478(7)
F1_7 F 0.4783(13) 0.1442(11) 0.7839(3)
F2_7 F 0.4197(9) 0.0651(9) 0.7467(7)
F3_7 F 0.4915(14) 0.1152(11) 0.7051(3)
F4_7 F 0.4537(19) 0.1707(17) 0.7328(6)
F5_7 F 0.505(2) 0.0786(16) 0.7561(6)
F6_7 F 0.5468(13) 0.1981(9) 0.7407(7)
Sb1_8 Sb 0.86981(18) 0.35526(26) 0.74478(7)
F1_8 F 0.8558(11) 0.3340(17) 0.7839(3)
F2_8 F 0.9349(9) 0.3545(13) 0.7467(7)
F3_8 F 0.8848(11) 0.3762(18) 0.7051(3)
F4_8 F 0.8293(17) 0.2829(25) 0.7328(6)
F5_8 F 0.9214(16) 0.4260(26) 0.7561(6)
F6_8 F 0.8019(9) 0.3486(16) 0.7407(7)
Sb1_9 Sb 0.64474(26) 0.51454(19) 0.74478(7)
F1_9 F 0.6660(17) 0.5217(13) 0.7839(3)
F2_9 F 0.6455(13) 0.5803(9) 0.7467(7)
F3_9 F 0.6238(18) 0.5085(14) 0.7051(3)
F4_9 F 0.7171(25) 0.5463(19) 0.7328(6)
F5_9 F 0.5740(26) 0.495(2) 0.7561(6)
F6_9 F 0.6514(16) 0.4532(13) 0.7407(7)
Sb1_10 Sb 0.86981(18) 0.51454(19) 0.24478(7)
F1_10 F 0.8558(11) 0.5217(13) 0.2839(3)
F2_10 F 0.9349(9) 0.5803(9) 0.2467(7)
F3_10 F 0.8848(11) 0.5085(14) 0.2051(3)
F4_10 F 0.8293(17) 0.5463(19) 0.2328(6)
F5_10 F 0.9214(16) 0.495(2) 0.2561(6)
F6_10 F 0.8019(9) 0.4532(13) 0.2407(7)
Sb1_11 Sb 0.64474(26) 0.13019(18) 0.24478(7)
F1_11 F 0.6660(17) 0.1442(11) 0.2839(3)
F2_11 F 0.6455(13) 0.0651(9) 0.2467(7)
F3_11 F 0.6238(18) 0.1152(11) 0.2051(3)
F4_11 F 0.7171(25) 0.1707(17) 0.2328(6)
F5_11 F 0.5740(26) 0.0786(16) 0.2561(6)
F6_11 F 0.6514(16) 0.1981(9) 0.2407(7)
Sb1_12 Sb 0.48546(19) 0.35526(26) 0.24478(7)
F1_12 F 0.4783(13) 0.3340(17) 0.2839(3)
F2_12 F 0.4197(9) 0.3545(13) 0.2467(7)
F3_12 F 0.4915(14) 0.3762(18) 0.2051(3)
F4_12 F 0.4537(19) 0.2829(25) 0.2328(6)
F5_12 F 0.505(2) 0.4260(26) 0.2561(6)
F6_12 F 0.5468(13) 0.3486(16) 0.2407(7)
Sb1_13 Sb 0.15212(19) 0.46353(18) 0.07812(7)
F1_13 F 0.1449(13) 0.4776(11) 0.1173(3)
F2_13 F 0.0863(9) 0.3985(9) 0.0801(7)
F3_13 F 0.1581(14) 0.4486(11) 0.0385(3)
F4_13 F 0.1203(19) 0.5041(17) 0.0662(6)
F5_13 F 0.171(2) 0.4120(16) 0.0895(6)
F6_13 F 0.2134(13) 0.5315(9) 0.0741(7)
Sb1_14 Sb 0.53647(18) 0.68860(26) 0.07812(7)
F1_14 F 0.5224(11) 0.6674(17) 0.1173(3)
F2_14 F 0.6015(9) 0.6879(13) 0.0801(7)
F3_14 F 0.5514(11) 0.7096(18) 0.0385(3)
F4_14 F 0.4959(17) 0.6163(25) 0.0662(6)
F5_14 F 0.5880(16) 0.7594(26) 0.0895(6)
F6_14 F 0.4685(9) 0.6820(16) 0.0741(7)
Sb1_15 Sb 0.31140(26) 0.84788(19) 0.07812(7)
F1_15 F 0.3326(17) 0.8551(13) 0.1173(3)
F2_15 F 0.3121(13) 0.9137(9) 0.0801(7)
F3_15 F 0.2904(18) 0.8419(14) 0.0385(3)
F4_15 F 0.3837(25) 0.8797(19) 0.0662(6)
F5_15 F 0.2406(26) 0.829(2) 0.0895(6)
F6_15 F 0.3180(16) 0.7866(13) 0.0741(7)
Sb1_16 Sb 0.53647(18) 0.84788(19) 0.57812(7)
F1_16 F 0.5224(11) 0.8551(13) 0.6173(3)
F2_16 F 0.6015(9) 0.9137(9) 0.5801(7)
F3_16 F 0.5514(11) 0.8419(14) 0.5385(3)
F4_16 F 0.4959(17) 0.8797(19) 0.5662(6)
F5_16 F 0.5880(16) 0.829(2) 0.5895(6)
F6_16 F 0.4685(9) 0.7866(13) 0.5741(7)
Sb1_17 Sb 0.31140(26) 0.46353(18) 0.57812(7)
F1_17 F 0.3326(17) 0.4776(11) 0.6173(3)
F2_17 F 0.3121(13) 0.3985(9) 0.5801(7)
F3_17 F 0.2904(18) 0.4486(11) 0.5385(3)
F4_17 F 0.3837(25) 0.5041(17) 0.5662(6)
F5_17 F 0.2406(26) 0.4120(16) 0.5895(6)
F6_17 F 0.3180(16) 0.5315(9) 0.5741(7)
Sb1_18 Sb 0.15212(19) 0.68860(26) 0.57812(7)
F1_18 F 0.1449(13) 0.6674(17) 0.6173(3)
F2_18 F 0.0863(9) 0.6879(13) 0.5801(7)
F3_18 F 0.1581(14) 0.7096(18) 0.5385(3)
F4_18 F 0.1203(19) 0.6163(25) 0.5662(6)
F5_18 F 0.171(2) 0.7594(26) 0.5895(6)
F6_18 F 0.2134(13) 0.6820(16) 0.5741(7)
loop_
_geom_bond_atom_site_label_1
_geom_bond_atom_site_label_2
_geom_bond_site_symmetry_1
_geom_bond_site_symmetry_2
H20 C22 1_555 1_555
H21 C22 1_555 1_555
C28 H32 1_555 1_555
H33 C28 1_555 1_555
Ag1 Ag2 1_555 1_555
Ag2 Ag4 1_555 1_555
Ag3 Ag1 1_555 1_555
Ag4 Ag1 1_555 1_555
Ag5 Ag1 1_555 1_555
Ag6 Ag2 1_555 1_555
Ag7 Ag2 1_555 1_555
Ag8 S2 1_555 1_555
Ag9 S3 1_555 1_555
S1 Ag2 1_555 1_555
S2 Ag3 1_555 1_555
S3 Ag4 1_555 1_555
S4 Ag5 1_555 1_555
C1 S2 1_555 1_555
C2 S4 1_555 1_555
C3 S3 1_555 1_555
C4 S1 1_555 1_555
C5 C6 1_555 1_555
N1 Ag7 1_555 1_555
C6 C8 1_555 1_555
C7 N1 1_555 1_555
H1 C7 1_555 1_555
C8 H2 1_555 1_555
C9 C6 1_555 1_555
H3 C9 1_555 1_555
C10 N1 1_555 1_555
H4 C10 1_555 1_555
C11 C5 1_555 1_555
H5 C11 1_555 1_555
N2 C12 1_555 1_555
C12 C8 1_555 1_555
H6 C12 1_555 1_555
C13 C5 1_555 1_555
H7 C13 1_555 1_555
C15 C4 1_555 1_555
H9 C15 1_555 1_555
H10 C15 1_555 1_555
C16 C4 1_555 1_555
H11 C16 1_555 1_555
H12 C16 1_555 1_555
C17 C15 1_555 1_555
H13 C17 1_555 1_555
C18 C14 1_555 1_555
H14 C18 1_555 1_555
C19 C17 1_555 1_555
H16 C19 1_555 1_555
C20 C16 1_555 1_555
H18 C20 1_555 1_555
C21 C9 1_555 1_555
H19 C21 1_555 1_555
C23 C4 1_555 1_555
H22 C23 1_555 1_555
H23 C23 1_555 1_555
H25 C24 1_555 1_555
C25 C2 1_555 1_555
H26 C25 1_555 1_555
H27 C25 1_555 1_555
C26 C2 1_555 1_555
H28 C26 1_555 1_555
H29 C26 1_555 1_555
C27 C2 1_555 1_555
H30 C27 1_555 1_555
H31 C27 1_555 1_555
C29 H34 1_555 1_555
H35 C29 1_555 1_555
C30 C24 1_555 1_555
C31 C24 1_555 1_555
H37 C31 1_555 1_555
C32 H38 1_555 1_555
C33 C32 1_555 1_555
H39 C33 1_555 1_555
H40 C33 1_555 1_555
C34 H41 1_555 1_555
H42 C34 1_555 1_555
C35 C3 1_555 1_555
H43 C35 1_555 1_555
H44 C35 1_555 1_555
C36 C3 1_555 1_555
H45 C36 1_555 1_555
H46 C36 1_555 1_555
C37 C33 1_555 1_555
H47 C37 1_555 1_555
C38 C32 1_555 1_555
H48 C38 1_555 1_555
H49 C38 1_555 1_555
C39 C34 1_555 1_555
H50 C39 1_555 1_555
C40 C25 1_555 1_555
H51 C40 1_555 1_555
C41 H52 1_555 1_555
H53 C41 1_555 1_555
C42 C41 1_555 1_555
H54 C42 1_555 1_555
C43 H55 1_555 1_555
C44 C41 1_555 1_555
H56 C44 1_555 1_555
C45 C42 1_555 1_555
H57 C45 1_555 1_555
H58 C45 1_555 1_555
C46 C43 1_555 1_555
H59 C46 1_555 1_555
H60 C46 1_555 1_555
C47 C1 1_555 1_555
H61 C47 1_555 1_555
H62 C47 1_555 1_555
C48 C1 1_555 1_555
H63 C48 1_555 1_555
H64 C48 1_555 1_555
C49 C1 1_555 1_555
H65 C49 1_555 1_555
H66 C49 1_555 1_555
C50 C3 1_555 1_555
H67 C50 1_555 1_555
H68 C50 1_555 1_555
Ag10 Ag1 1_555 1_555
Ag11 Ag1 1_555 1_555
Ag12 Ag1 1_555 1_555
Ag13 Ag1 1_555 1_555
Ag14 Ag10 1_555 1_555
Ag15 Ag10 1_555 1_555
Ag16 S6 1_555 1_555
S5 Ag10 1_555 1_555
S6 Ag11 1_555 1_555
S7 Ag9 1_555 1_555
S8 Ag6 1_555 1_555
C51 S6 1_555 1_555
C52 S8 1_555 1_555
C53 S7 1_555 1_555
C54 S5 1_555 1_555
C55 C56 1_555 1_555
N3 Ag15 1_555 1_555
C56 C58 1_555 1_555
C57 N3 1_555 1_555
H69 C57 1_555 1_555
C58 H70 1_555 1_555
C59 C56 1_555 1_555
H71 C59 1_555 1_555
C60 N3 1_555 1_555
H72 C60 1_555 1_555
C61 C55 1_555 1_555
H73 C61 1_555 1_555
N4 C62 1_555 1_555
C62 C58 1_555 1_555
H74 C62 1_555 1_555
C63 C55 1_555 1_555
H75 C63 1_555 1_555
C64 H76 1_555 1_555
C65 C54 1_555 1_555
H77 C65 1_555 1_555
H78 C65 1_555 1_555
C66 C54 1_555 1_555
H79 C66 1_555 1_555
H80 C66 1_555 1_555
C67 C65 1_555 1_555
H81 C67 1_555 1_555
C68 C64 1_555 1_555
H82 C68 1_555 1_555
H83 C68 1_555 1_555
C69 C67 1_555 1_555
H84 C69 1_555 1_555
H85 C69 1_555 1_555
C70 C66 1_555 1_555
H86 C70 1_555 1_555
C71 C59 1_555 1_555
H87 C71 1_555 1_555
C72 C64 1_555 1_555
H88 C72 1_555 1_555
H89 C72 1_555 1_555
C73 C54 1_555 1_555
H90 C73 1_555 1_555
H91 C73 1_555 1_555
C74 H92 1_555 1_555
H93 C74 1_555 1_555
C75 C52 1_555 1_555
H94 C75 1_555 1_555
H95 C75 1_555 1_555
C76 C52 1_555 1_555
H96 C76 1_555 1_555
H97 C76 1_555 1_555
C77 C52 1_555 1_555
H98 C77 1_555 1_555
H99 C77 1_555 1_555
C78 H100 1_555 1_555
H101 C78 1_555 1_555
C79 H102 1_555 1_555
H103 C79 1_555 1_555
C80 C74 1_555 1_555
H104 C80 1_555 1_555
C81 C74 1_555 1_555
H105 C81 1_555 1_555
C82 H106 1_555 1_555
C83 C82 1_555 1_555
H107 C83 1_555 1_555
H108 C83 1_555 1_555
C84 H109 1_555 1_555
H110 C84 1_555 1_555
C85 C53 1_555 1_555
H111 C85 1_555 1_555
H112 C85 1_555 1_555
C86 C53 1_555 1_555
H113 C86 1_555 1_555
H114 C86 1_555 1_555
C87 C83 1_555 1_555
H115 C87 1_555 1_555
C88 C82 1_555 1_555
H116 C88 1_555 1_555
H117 C88 1_555 1_555
C89 C84 1_555 1_555
H118 C89 1_555 1_555
C90 C75 1_555 1_555
H119 C90 1_555 1_555
C91 H120 1_555 1_555
H121 C91 1_555 1_555
C92 C91 1_555 1_555
H122 C92 1_555 1_555
C93 H123 1_555 1_555
C94 C91 1_555 1_555
H124 C94 1_555 1_555
C95 C92 1_555 1_555
H125 C95 1_555 1_555
H126 C95 1_555 1_555
C96 C93 1_555 1_555
H127 C96 1_555 1_555
H128 C96 1_555 1_555
C97 C51 1_555 1_555
H129 C97 1_555 1_555
H130 C97 1_555 1_555
C98 C51 1_555 1_555
H131 C98 1_555 1_555
H132 C98 1_555 1_555
C99 C51 1_555 1_555
H133 C99 1_555 1_555
H134 C99 1_555 1_555
C100 C53 1_555 1_555
H135 C100 1_555 1_555
H136 C100 1_555 1_555
Ag17 Ag1 1_555 1_555
Ag18 Ag1 1_555 1_555
Ag19 Ag1 1_555 1_555
Ag20 Ag1 1_555 1_555
Ag21 S4 1_555 1_555
Ag22 Ag17 1_555 1_555
Ag23 S10 1_555 1_555
S9 Ag17 1_555 1_555
S10 Ag18 1_555 1_555
S11 Ag9 1_555 1_555
S12 Ag14 1_555 1_555
C101 S10 1_555 1_555
C102 S12 1_555 1_555
C103 S11 1_555 1_555
C104 S9 1_555 1_555
C105 C106 1_555 1_555
N5 Ag22 1_555 1_555
C106 C108 1_555 1_555
C107 N5 1_555 1_555
H137 C107 1_555 1_555
C108 H138 1_555 1_555
C109 C106 1_555 1_555
H139 C109 1_555 1_555
C110 N5 1_555 1_555
H140 C110 1_555 1_555
C111 C105 1_555 1_555
H141 C111 1_555 1_555
N6 C112 1_555 1_555
C112 C108 1_555 1_555
H142 C112 1_555 1_555
C113 C105 1_555 1_555
H143 C113 1_555 1_555
C115 C104 1_555 1_555
H145 C115 1_555 1_555
H146 C115 1_555 1_555
C116 C104 1_555 1_555
H147 C116 1_555 1_555
H148 C116 1_555 1_555
C117 C115 1_555 1_555
H149 C117 1_555 1_555
C118 C114 1_555 1_555
H150 C118 1_555 1_555
C119 C117 1_555 1_555
H152 C119 1_555 1_555
C120 C116 1_555 1_555
H154 C120 1_555 1_555
C121 C109 1_555 1_555
H155 C121 1_555 1_555
C123 C104 1_555 1_555
H158 C123 1_555 1_555
H159 C123 1_555 1_555
H161 C124 1_555 1_555
C125 C102 1_555 1_555
H162 C125 1_555 1_555
H163 C125 1_555 1_555
C126 C102 1_555 1_555
H164 C126 1_555 1_555
H165 C126 1_555 1_555
C127 C102 1_555 1_555
H166 C127 1_555 1_555
H167 C127 1_555 1_555
C129 H170 1_555 1_555
H171 C129 1_555 1_555
C130 C124 1_555 1_555
C131 C124 1_555 1_555
H173 C131 1_555 1_555
C132 H174 1_555 1_555
C133 C132 1_555 1_555
H175 C133 1_555 1_555
H176 C133 1_555 1_555
C134 H177 1_555 1_555
H178 C134 1_555 1_555
C135 C103 1_555 1_555
H179 C135 1_555 1_555
H180 C135 1_555 1_555
C136 C103 1_555 1_555
H181 C136 1_555 1_555
H182 C136 1_555 1_555
C137 C133 1_555 1_555
H183 C137 1_555 1_555
C138 C132 1_555 1_555
H184 C138 1_555 1_555
H185 C138 1_555 1_555
C139 C134 1_555 1_555
H186 C139 1_555 1_555
C140 C125 1_555 1_555
H187 C140 1_555 1_555
C141 H188 1_555 1_555
H189 C141 1_555 1_555
C142 C141 1_555 1_555
H190 C142 1_555 1_555
C143 H191 1_555 1_555
C144 C141 1_555 1_555
H192 C144 1_555 1_555
C145 C142 1_555 1_555
H193 C145 1_555 1_555
H194 C145 1_555 1_555
C146 C143 1_555 1_555
H195 C146 1_555 1_555
H196 C146 1_555 1_555
C147 C101 1_555 1_555
H197 C147 1_555 1_555
H198 C147 1_555 1_555
C148 C101 1_555 1_555
H199 C148 1_555 1_555
H200 C148 1_555 1_555
C149 C101 1_555 1_555
H201 C149 1_555 1_555
H202 C149 1_555 1_555
C150 C103 1_555 1_555
H203 C150 1_555 1_555
H204 C150 1_555 1_555
Ag24 N4 1_555 1_555
Ag25 N6 1_555 1_555
Ag26 N2 1_555 1_555
N7 Ag23 1_555 1_555
N8 Ag8 1_555 1_555
N9 Ag16 1_555 1_555
Ag2 Ag5 1_555 1_555
Ag2 Ag19 1_555 1_555
Ag3 Ag5 1_555 1_555
Ag3 Ag11 1_555 1_555
Ag3 Ag18 1_555 1_555
Ag4 Ag10 1_555 1_555
Ag4 Ag13 1_555 1_555
Ag5 Ag19 1_555 1_555
Ag6 S1 1_555 1_555
Ag6 S2 1_555 1_555
Ag7 S1 1_555 1_555
Ag7 S3 1_555 1_555
Ag8 S4 1_555 1_555
C7 C11 1_555 1_555
C10 C13 1_555 1_555
N2 C21 1_555 1_555
C14 C23 1_555 1_555
C18 C20 1_555 1_555
C19 C20 1_555 1_555
C26 C31 1_555 1_555
C27 C30 1_555 1_555
C29 C31 1_555 1_555
C29 C40 1_555 1_555
C32 C50 1_555 1_555
C34 C37 1_555 1_555
C35 C37 1_555 1_555
C36 C39 1_555 1_555
C38 C39 1_555 1_555
C42 C47 1_555 1_555
C43 C45 1_555 1_555
C43 C48 1_555 1_555
C44 C46 1_555 1_555
C44 C49 1_555 1_555
Ag10 Ag12 1_555 1_555
Ag10 Ag13 1_555 1_555
Ag11 Ag13 1_555 1_555
Ag11 Ag18 1_555 1_555
Ag12 S7 1_555 1_555
Ag12 Ag17 1_555 1_555
Ag12 Ag20 1_555 1_555
Ag13 S8 1_555 1_555
Ag14 S5 1_555 1_555
Ag14 S6 1_555 1_555
Ag15 S5 1_555 1_555
Ag15 S7 1_555 1_555
Ag16 S8 1_555 1_555
C57 C61 1_555 1_555
C60 C63 1_555 1_555
N4 C71 1_555 1_555
C64 C73 1_555 1_555
C67 C72 1_555 1_555
C68 C70 1_555 1_555
C69 C70 1_555 1_555
C76 C81 1_555 1_555
C77 C80 1_555 1_555
C78 C80 1_555 1_555
C78 C90 1_555 1_555
C79 C81 1_555 1_555
C79 C90 1_555 1_555
C82 C100 1_555 1_555
C84 C87 1_555 1_555
C85 C87 1_555 1_555
C86 C89 1_555 1_555
C88 C89 1_555 1_555
C92 C97 1_555 1_555
C93 C95 1_555 1_555
C93 C98 1_555 1_555
C94 C96 1_555 1_555
C94 C99 1_555 1_555
Ag17 Ag19 1_555 1_555
Ag17 Ag20 1_555 1_555
Ag17 Ag21 1_555 1_555
Ag18 Ag20 1_555 1_555
Ag19 S11 1_555 1_555
Ag20 S12 1_555 1_555
Ag21 S9 1_555 1_555
Ag21 S10 1_555 1_555
Ag22 S9 1_555 1_555
Ag22 S11 1_555 1_555
Ag23 S12 1_555 1_555
C107 C111 1_555 1_555
C110 C113 1_555 1_555
N6 C121 1_555 1_555
C114 C123 1_555 1_555
C118 C120 1_555 1_555
C119 C120 1_555 1_555
C126 C131 1_555 1_555
C127 C130 1_555 1_555
C129 C131 1_555 1_555
C129 C140 1_555 1_555
C132 C150 1_555 1_555
C134 C137 1_555 1_555
C135 C137 1_555 1_555
C136 C139 1_555 1_555
C138 C139 1_555 1_555
C142 C147 1_555 1_555
C143 C145 1_555 1_555
C143 C148 1_555 1_555
C144 C146 1_555 1_555
C144 C149 1_555 1_555
C6_2 C8_2 1_555 1_555
C9_2 C6_2 1_555 1_555
H3_2 C9_2 1_555 1_555
N7 C12_2 1_555 1_555
C12_2 C8_2 1_555 1_555
H6_2 C12_2 1_555 1_555
C21_2 C9_2 1_555 1_555
H19_2 C21_2 1_555 1_555
C78_2 H100_2 1_555 1_555
H101_2 C78_2 1_555 1_555
H119_2 C90_2 1_555 1_555
N7 C21_2 1_555 1_555
C78_2 C90_2 1_555 1_555
Ag1_2 Ag2_2 1_555 1_555
Ag2_2 Ag4_2 1_555 1_555
Ag3_2 Ag1_2 1_555 1_555
Ag4_2 Ag1_2 1_555 1_555
Ag5_2 Ag1_2 1_555 1_555
Ag6_2 Ag2_2 1_555 1_555
Ag7_2 Ag2_2 1_555 1_555
Ag8_2 S2_2 1_555 1_555
Ag9_2 S3_2 1_555 1_555
S1_2 Ag2_2 1_555 1_555
S2_2 Ag3_2 1_555 1_555
S3_2 Ag4_2 1_555 1_555
S4_2 Ag5_2 1_555 1_555
C1_2 S2_2 1_555 1_555
C2_2 S4_2 1_555 1_555
C3_2 S3_2 1_555 1_555
C4_2 S1_2 1_555 1_555
N1_2 Ag7_2 1_555 1_555
C7_2 N1_2 1_555 1_555
H1_2 C7_2 1_555 1_555
C10_2 N1_2 1_555 1_555
H4_2 C10_2 1_555 1_555
C11_2 C5_2 1_555 1_555
H5_2 C11_2 1_555 1_555
C13_2 C5_2 1_555 1_555
C14_2 H8_2 1_555 1_555
C15_2 C4_2 1_555 1_555
H9_2 C15_2 1_555 1_555
H10_2 C15_2 1_555 1_555
C16_2 C4_2 1_555 1_555
H11_2 C16_2 1_555 1_555
H12_2 C16_2 1_555 1_555
C17_2 C15_2 1_555 1_555
H13_2 C17_2 1_555 1_555
C18_2 C14_2 1_555 1_555
H14_2 C18_2 1_555 1_555
H15_2 C18_2 1_555 1_555
C19_2 C17_2 1_555 1_555
H16_2 C19_2 1_555 1_555
H17_2 C19_2 1_555 1_555
C20_2 C16_2 1_555 1_555
H18_2 C20_2 1_555 1_555
C22_2 C14_2 1_555 1_555
H21_2 C22_2 1_555 1_555
C23_2 C4_2 1_555 1_555
H22_2 C23_2 1_555 1_555
H23_2 C23_2 1_555 1_555
C24_2 H24_2 1_555 1_555
H25_2 C24_2 1_555 1_555
C25_2 C2_2 1_555 1_555
H26_2 C25_2 1_555 1_555
H27_2 C25_2 1_555 1_555
C26_2 C2_2 1_555 1_555
H28_2 C26_2 1_555 1_555
H29_2 C26_2 1_555 1_555
C27_2 C2_2 1_555 1_555
H30_2 C27_2 1_555 1_555
H31_2 C27_2 1_555 1_555
C28_2 H32_2 1_555 1_555
H33_2 C28_2 1_555 1_555
C29_2 H34_2 1_555 1_555
H35_2 C29_2 1_555 1_555
C30_2 C24_2 1_555 1_555
H36_2 C30_2 1_555 1_555
C31_2 C24_2 1_555 1_555
H37_2 C31_2 1_555 1_555
C32_2 H38_2 1_555 1_555
C33_2 C32_2 1_555 1_555
H39_2 C33_2 1_555 1_555
H40_2 C33_2 1_555 1_555
C34_2 H41_2 1_555 1_555
H42_2 C34_2 1_555 1_555
C35_2 C3_2 1_555 1_555
H43_2 C35_2 1_555 1_555
H44_2 C35_2 1_555 1_555
C36_2 C3_2 1_555 1_555
H45_2 C36_2 1_555 1_555
H46_2 C36_2 1_555 1_555
C37_2 C33_2 1_555 1_555
H47_2 C37_2 1_555 1_555
C38_2 C32_2 1_555 1_555
H48_2 C38_2 1_555 1_555
H49_2 C38_2 1_555 1_555
C39_2 C34_2 1_555 1_555
H50_2 C39_2 1_555 1_555
C40_2 C25_2 1_555 1_555
H51_2 C40_2 1_555 1_555
H53_2 C41_2 1_555 1_555
C42_2 C41_2 1_555 1_555
H54_2 C42_2 1_555 1_555
C44_2 C41_2 1_555 1_555
H56_2 C44_2 1_555 1_555
C47_2 C1_2 1_555 1_555
H61_2 C47_2 1_555 1_555
H62_2 C47_2 1_555 1_555
C48_2 C1_2 1_555 1_555
H63_2 C48_2 1_555 1_555
H64_2 C48_2 1_555 1_555
C49_2 C1_2 1_555 1_555
H65_2 C49_2 1_555 1_555
H66_2 C49_2 1_555 1_555
C50_2 C3_2 1_555 1_555
H67_2 C50_2 1_555 1_555
H68_2 C50_2 1_555 1_555
Ag10_2 Ag1_2 1_555 1_555
Ag11_2 Ag1_2 1_555 1_555
Ag12_2 Ag1_2 1_555 1_555
Ag13_2 Ag1_2 1_555 1_555
Ag14_2 Ag10_2 1_555 1_555
Ag15_2 Ag10_2 1_555 1_555
Ag16_2 S6_2 1_555 1_555
S5_2 Ag10_2 1_555 1_555
S6_2 Ag11_2 1_555 1_555
S7_2 Ag9_2 1_555 1_555
S8_2 Ag6_2 1_555 1_555
C51_2 S6_2 1_555 1_555
C52_2 S8_2 1_555 1_555
C53_2 S7_2 1_555 1_555
C54_2 S5_2 1_555 1_555
N3_2 Ag15_2 1_555 1_555
C57_2 N3_2 1_555 1_555
H69_2 C57_2 1_555 1_555
C60_2 N3_2 1_555 1_555
H72_2 C60_2 1_555 1_555
C61_2 C55_2 1_555 1_555
H73_2 C61_2 1_555 1_555
C63_2 C55_2 1_555 1_555
C64_2 H76_2 1_555 1_555
C65_2 C54_2 1_555 1_555
H77_2 C65_2 1_555 1_555
H78_2 C65_2 1_555 1_555
C66_2 C54_2 1_555 1_555
H79_2 C66_2 1_555 1_555
H80_2 C66_2 1_555 1_555
C67_2 C65_2 1_555 1_555
H81_2 C67_2 1_555 1_555
C68_2 C64_2 1_555 1_555
H82_2 C68_2 1_555 1_555
H83_2 C68_2 1_555 1_555
C69_2 C67_2 1_555 1_555
H84_2 C69_2 1_555 1_555
H85_2 C69_2 1_555 1_555
C70_2 C66_2 1_555 1_555
H86_2 C70_2 1_555 1_555
C72_2 C64_2 1_555 1_555
H89_2 C72_2 1_555 1_555
C73_2 C54_2 1_555 1_555
H90_2 C73_2 1_555 1_555
H91_2 C73_2 1_555 1_555
C74_2 H92_2 1_555 1_555
H93_2 C74_2 1_555 1_555
C75_2 C52_2 1_555 1_555
H94_2 C75_2 1_555 1_555
H95_2 C75_2 1_555 1_555
C76_2 C52_2 1_555 1_555
H96_2 C76_2 1_555 1_555
H97_2 C76_2 1_555 1_555
C77_2 C52_2 1_555 1_555
H98_2 C77_2 1_555 1_555
H99_2 C77_2 1_555 1_555
C80_2 C74_2 1_555 1_555
H104_2 C80_2 1_555 1_555
C81_2 C74_2 1_555 1_555
H105_2 C81_2 1_555 1_555
C82_2 H106_2 1_555 1_555
C83_2 C82_2 1_555 1_555
H107_2 C83_2 1_555 1_555
H108_2 C83_2 1_555 1_555
C84_2 H109_2 1_555 1_555
H110_2 C84_2 1_555 1_555
C85_2 C53_2 1_555 1_555
H111_2 C85_2 1_555 1_555
H112_2 C85_2 1_555 1_555
C86_2 C53_2 1_555 1_555
H113_2 C86_2 1_555 1_555
H114_2 C86_2 1_555 1_555
C87_2 C83_2 1_555 1_555
H115_2 C87_2 1_555 1_555
C88_2 C82_2 1_555 1_555
H116_2 C88_2 1_555 1_555
H117_2 C88_2 1_555 1_555
C89_2 C84_2 1_555 1_555
H118_2 C89_2 1_555 1_555
H121_2 C91_2 1_555 1_555
C92_2 C91_2 1_555 1_555
H122_2 C92_2 1_555 1_555
C94_2 C91_2 1_555 1_555
H124_2 C94_2 1_555 1_555
C97_2 C51_2 1_555 1_555
H129_2 C97_2 1_555 1_555
H130_2 C97_2 1_555 1_555
C98_2 C51_2 1_555 1_555
H131_2 C98_2 1_555 1_555
H132_2 C98_2 1_555 1_555
C99_2 C51_2 1_555 1_555
H133_2 C99_2 1_555 1_555
H134_2 C99_2 1_555 1_555
C100_2 C53_2 1_555 1_555
H135_2 C100_2 1_555 1_555
H136_2 C100_2 1_555 1_555
Ag17_2 Ag1_2 1_555 1_555
Ag18_2 Ag1_2 1_555 1_555
Ag19_2 Ag1_2 1_555 1_555
Ag20_2 Ag1_2 1_555 1_555
Ag21_2 S4_2 1_555 1_555
Ag22_2 Ag17_2 1_555 1_555
Ag23_2 S10_2 1_555 1_555
S9_2 Ag17_2 1_555 1_555
S10_2 Ag18_2 1_555 1_555
S11_2 Ag9_2 1_555 1_555
S12_2 Ag14_2 1_555 1_555
C101_2 S10_2 1_555 1_555
C102_2 S12_2 1_555 1_555
C103_2 S11_2 1_555 1_555
C104_2 S9_2 1_555 1_555
C105_2 C106_2 1_555 1_555
N5_2 Ag22_2 1_555 1_555
C106_2 C108_2 1_555 1_555
C107_2 N5_2 1_555 1_555
H137_2 C107_2 1_555 1_555
C108_2 H138_2 1_555 1_555
C109_2 C106_2 1_555 1_555
H139_2 C109_2 1_555 1_555
C110_2 N5_2 1_555 1_555
H140_2 C110_2 1_555 1_555
C111_2 C105_2 1_555 1_555
H141_2 C111_2 1_555 1_555
N9 C112_2 1_555 1_555
C112_2 C108_2 1_555 1_555
H142_2 C112_2 1_555 1_555
C113_2 C105_2 1_555 1_555
H143_2 C113_2 1_555 1_555
C114_2 H144 1_555 1_555
C115_2 C104_2 1_555 1_555
H145_2 C115_2 1_555 1_555
H146_2 C115_2 1_555 1_555
C116_2 C104_2 1_555 1_555
H147_2 C116_2 1_555 1_555
H148_2 C116_2 1_555 1_555
C117_2 C115_2 1_555 1_555
H149_2 C117_2 1_555 1_555
C118_2 C114_2 1_555 1_555
H150_2 C118_2 1_555 1_555
H151 C118_2 1_555 1_555
C119_2 C117_2 1_555 1_555
H152_2 C119_2 1_555 1_555
H153 C119_2 1_555 1_555
C120_2 C116_2 1_555 1_555
H154_2 C120_2 1_555 1_555
C121_2 C109_2 1_555 1_555
H155_2 C121_2 1_555 1_555
C122 C114_2 1_555 1_555
H156 C122 1_555 1_555
H157 C122 1_555 1_555
C123_2 C104_2 1_555 1_555
H158_2 C123_2 1_555 1_555
H159_2 C123_2 1_555 1_555
C124_2 H160 1_555 1_555
H161_2 C124_2 1_555 1_555
C125_2 C102_2 1_555 1_555
H162_2 C125_2 1_555 1_555
H163_2 C125_2 1_555 1_555
C126_2 C102_2 1_555 1_555
H164_2 C126_2 1_555 1_555
H165_2 C126_2 1_555 1_555
C127_2 C102_2 1_555 1_555
H166_2 C127_2 1_555 1_555
H167_2 C127_2 1_555 1_555
C130_2 C124_2 1_555 1_555
H172 C130_2 1_555 1_555
C131_2 C124_2 1_555 1_555
H173_2 C131_2 1_555 1_555
C132_2 H174_2 1_555 1_555
C133_2 C132_2 1_555 1_555
H175_2 C133_2 1_555 1_555
H176_2 C133_2 1_555 1_555
C134_2 H177_2 1_555 1_555
H178_2 C134_2 1_555 1_555
C135_2 C103_2 1_555 1_555
H179_2 C135_2 1_555 1_555
H180_2 C135_2 1_555 1_555
C136_2 C103_2 1_555 1_555
H181_2 C136_2 1_555 1_555
H182_2 C136_2 1_555 1_555
C137_2 C133_2 1_555 1_555
H183_2 C137_2 1_555 1_555
C138_2 C132_2 1_555 1_555
H184_2 C138_2 1_555 1_555
H185_2 C138_2 1_555 1_555
C139_2 C134_2 1_555 1_555
H186_2 C139_2 1_555 1_555
H189_2 C141_2 1_555 1_555
C142_2 C141_2 1_555 1_555
H190_2 C142_2 1_555 1_555
C144_2 C141_2 1_555 1_555
H192_2 C144_2 1_555 1_555
C147_2 C101_2 1_555 1_555
H197_2 C147_2 1_555 1_555
H198_2 C147_2 1_555 1_555
C148_2 C101_2 1_555 1_555
H199_2 C148_2 1_555 1_555
H200_2 C148_2 1_555 1_555
C149_2 C101_2 1_555 1_555
H201_2 C149_2 1_555 1_555
H202_2 C149_2 1_555 1_555
C150_2 C103_2 1_555 1_555
H203_2 C150_2 1_555 1_555
H204_2 C150_2 1_555 1_555
N7_2 Ag23_2 1_555 1_555
N8_2 Ag8_2 1_555 1_555
N9_2 Ag16_2 1_555 1_555
Ag2_2 Ag5_2 1_555 1_555
Ag2_2 Ag19_2 1_555 1_555
Ag3_2 Ag5_2 1_555 1_555
Ag3_2 Ag11_2 1_555 1_555
Ag3_2 Ag18_2 1_555 1_555
Ag4_2 Ag10_2 1_555 1_555
Ag4_2 Ag13_2 1_555 1_555
Ag5_2 Ag19_2 1_555 1_555
Ag6_2 S1_2 1_555 1_555
Ag6_2 S2_2 1_555 1_555
Ag7_2 S1_2 1_555 1_555
Ag7_2 S3_2 1_555 1_555
Ag8_2 S4_2 1_555 1_555
C7_2 C11_2 1_555 1_555
C10_2 C13_2 1_555 1_555
C14_2 C23_2 1_555 1_555
C17_2 C22_2 1_555 1_555
C18_2 C20_2 1_555 1_555
C19_2 C20_2 1_555 1_555
C26_2 C31_2 1_555 1_555
C27_2 C30_2 1_555 1_555
C28_2 C30_2 1_555 1_555
C28_2 C40_2 1_555 1_555
C29_2 C31_2 1_555 1_555
C29_2 C40_2 1_555 1_555
C32_2 C50_2 1_555 1_555
C34_2 C37_2 1_555 1_555
C35_2 C37_2 1_555 1_555
C36_2 C39_2 1_555 1_555
C38_2 C39_2 1_555 1_555
C42_2 C47_2 1_555 1_555
C44_2 C49_2 1_555 1_555
Ag10_2 Ag12_2 1_555 1_555
Ag10_2 Ag13_2 1_555 1_555
Ag11_2 Ag13_2 1_555 1_555
Ag11_2 Ag18_2 1_555 1_555
Ag12_2 S7_2 1_555 1_555
Ag12_2 Ag17_2 1_555 1_555
Ag12_2 Ag20_2 1_555 1_555
Ag13_2 S8_2 1_555 1_555
Ag14_2 S5_2 1_555 1_555
Ag14_2 S6_2 1_555 1_555
Ag15_2 S5_2 1_555 1_555
Ag15_2 S7_2 1_555 1_555
Ag16_2 S8_2 1_555 1_555
C57_2 C61_2 1_555 1_555
C60_2 C63_2 1_555 1_555
C64_2 C73_2 1_555 1_555
C67_2 C72_2 1_555 1_555
C68_2 C70_2 1_555 1_555
C69_2 C70_2 1_555 1_555
C76_2 C81_2 1_555 1_555
C77_2 C80_2 1_555 1_555
C79_2 C81_2 1_555 1_555
C82_2 C100_2 1_555 1_555
C84_2 C87_2 1_555 1_555
C85_2 C87_2 1_555 1_555
C86_2 C89_2 1_555 1_555
C88_2 C89_2 1_555 1_555
C92_2 C97_2 1_555 1_555
C94_2 C99_2 1_555 1_555
Ag17_2 Ag19_2 1_555 1_555
Ag17_2 Ag20_2 1_555 1_555
Ag17_2 Ag21_2 1_555 1_555
Ag18_2 Ag20_2 1_555 1_555
Ag19_2 S11_2 1_555 1_555
Ag20_2 S12_2 1_555 1_555
Ag21_2 S9_2 1_555 1_555
Ag21_2 S10_2 1_555 1_555
Ag22_2 S9_2 1_555 1_555
Ag22_2 S11_2 1_555 1_555
Ag23_2 S12_2 1_555 1_555
C107_2 C111_2 1_555 1_555
C110_2 C113_2 1_555 1_555
N9 C121_2 1_555 1_555
C114_2 C123_2 1_555 1_555
C117_2 C122 1_555 1_555
C118_2 C120_2 1_555 1_555
C119_2 C120_2 1_555 1_555
C126_2 C131_2 1_555 1_555
C127_2 C130_2 1_555 1_555
C129_2 C131_2 1_555 1_555
C132_2 C150_2 1_555 1_555
C134_2 C137_2 1_555 1_555
C135_2 C137_2 1_555 1_555
C136_2 C139_2 1_555 1_555
C138_2 C139_2 1_555 1_555
C142_2 C147_2 1_555 1_555
C144_2 C149_2 1_555 1_555
C56_2 C58_2 1_555 1_555
C59_2 C56_2 1_555 1_555
H71_2 C59_2 1_555 1_555
N8 C62_2 1_555 1_555
C62_2 C58_2 1_555 1_555
H74_2 C62_2 1_555 1_555
C71_2 C59_2 1_555 1_555
H87_2 C71_2 1_555 1_555
C128 H168 1_555 1_555
H169 C128 1_555 1_555
H187_2 C140_2 1_555 1_555
N8 C71_2 1_555 1_555
C128 C140_2 1_555 1_555
Ag1_3 Ag2_3 1_555 1_555
Ag3_3 Ag1_3 1_555 1_555
Ag5_3 Ag1_3 1_555 1_555
Ag6_3 Ag2_3 1_555 1_555
Ag7_3 Ag2_3 1_555 1_555
Ag24 S2_3 1_555 1_555
Ag9_3 S3_3 1_555 1_555
S1_3 Ag2_3 1_555 1_555
S2_3 Ag3_3 1_555 1_555
C1_3 S2_3 1_555 1_555
C4_3 S1_3 1_555 1_555
N1_3 Ag7_3 1_555 1_555
C7_3 N1_3 1_555 1_555
H1_3 C7_3 1_555 1_555
C10_3 N1_3 1_555 1_555
H4_3 C10_3 1_555 1_555
C11_3 C5_3 1_555 1_555
C13_3 C5_3 1_555 1_555
H7_3 C13_3 1_555 1_555
C14_3 H8_3 1_555 1_555
C15_3 C4_3 1_555 1_555
H9_3 C15_3 1_555 1_555
H10_3 C15_3 1_555 1_555
C16_3 C4_3 1_555 1_555
H11_3 C16_3 1_555 1_555
H12_3 C16_3 1_555 1_555
C17_3 C15_3 1_555 1_555
H13_3 C17_3 1_555 1_555
C18_3 C14_3 1_555 1_555
H14_3 C18_3 1_555 1_555
H15_3 C18_3 1_555 1_555
C19_3 C17_3 1_555 1_555
H16_3 C19_3 1_555 1_555
H17_3 C19_3 1_555 1_555
C20_3 C16_3 1_555 1_555
H18_3 C20_3 1_555 1_555
C22_3 C14_3 1_555 1_555
H20_3 C22_3 1_555 1_555
H21_3 C22_3 1_555 1_555
C23_3 C4_3 1_555 1_555
H22_3 C23_3 1_555 1_555
H23_3 C23_3 1_555 1_555
C24_3 H24_3 1_555 1_555
H25_3 C24_3 1_555 1_555
H30_3 C27_3 1_555 1_555
H31_3 C27_3 1_555 1_555
C30_3 C24_3 1_555 1_555
H36_3 C30_3 1_555 1_555
C41_3 H52_2 1_555 1_555
H53_3 C41_3 1_555 1_555
C42_3 C41_3 1_555 1_555
H54_3 C42_3 1_555 1_555
C43_2 H55_2 1_555 1_555
C44_3 C41_3 1_555 1_555
H56_3 C44_3 1_555 1_555
C45_2 C42_3 1_555 1_555
H57_3 C45_2 1_555 1_555
H58_2 C45_2 1_555 1_555
C46_2 C43_2 1_555 1_555
H59_2 C46_2 1_555 1_555
H60_2 C46_2 1_555 1_555
C47_3 C1_3 1_555 1_555
H61_3 C47_3 1_555 1_555
H62_3 C47_3 1_555 1_555
C48_3 C1_3 1_555 1_555
H63_3 C48_3 1_555 1_555
H64_3 C48_3 1_555 1_555
C49_3 C1_3 1_555 1_555
H65_3 C49_3 1_555 1_555
H66_3 C49_3 1_555 1_555
S8_3 Ag6_3 1_555 1_555
C52_3 S8_3 1_555 1_555
C75_3 C52_3 1_555 1_555
H94_3 C75_3 1_555 1_555
H95_3 C75_3 1_555 1_555
C76_3 C52_3 1_555 1_555
H97_3 C76_3 1_555 1_555
C79_3 H102_3 1_555 1_555
H103_3 C79_3 1_555 1_555
H105_3 C81_3 1_555 1_555
C90_3 C75_3 1_555 1_555
H119_3 C90_3 1_555 1_555
Ag19_3 Ag1_3 1_555 1_555
C133_3 C132_3 1_555 1_555
H176_3 C133_3 1_555 1_555
C134_3 H177_3 1_555 1_555
H178_3 C134_3 1_555 1_555
C135_3 C103_3 1_555 1_555
H180_3 C135_3 1_555 1_555
C136_3 C103_3 1_555 1_555
H181_3 C136_3 1_555 1_555
H182_3 C136_3 1_555 1_555
C137_3 C133_3 1_555 1_555
H183_3 C137_3 1_555 1_555
C138_3 C132_3 1_555 1_555
H184_3 C138_3 1_555 1_555
H185_3 C138_3 1_555 1_555
C139_3 C134_3 1_555 1_555
H186_3 C139_3 1_555 1_555
C150_3 C103_3 1_555 1_555
H203_3 C150_3 1_555 1_555
Ag2_3 Ag5_3 1_555 1_555
Ag2_3 Ag19_3 1_555 1_555
Ag3_3 Ag5_3 1_555 1_555
Ag5_3 Ag19_3 1_555 1_555
Ag6_3 S1_3 1_555 1_555
Ag6_3 S2_3 1_555 1_555
Ag7_3 S1_3 1_555 1_555
Ag7_3 S3_3 1_555 1_555
C7_3 C11_3 1_555 1_555
C10_3 C13_3 1_555 1_555
C14_3 C23_3 1_555 1_555
C17_3 C22_3 1_555 1_555
C18_3 C20_3 1_555 1_555
C19_3 C20_3 1_555 1_555
C27_3 C30_3 1_555 1_555
C42_3 C47_3 1_555 1_555
C43_2 C45_2 1_555 1_555
C43_2 C48_3 1_555 1_555
C44_3 C46_2 1_555 1_555
C44_3 C49_3 1_555 1_555
C76_3 C81_3 1_555 1_555
C78_3 C90_3 1_555 1_555
C79_3 C81_3 1_555 1_555
C79_3 C90_3 1_555 1_555
C132_3 C150_3 1_555 1_555
C134_3 C137_3 1_555 1_555
C135_3 C137_3 1_555 1_555
C136_3 C139_3 1_555 1_555
C138_3 C139_3 1_555 1_555
C6_3 C8_3 1_555 1_555
C8_3 H2_3 1_555 1_555
C9_3 C6_3 1_555 1_555
H3_3 C9_3 1_555 1_555
N7_2 C12_3 1_555 1_555
C12_3 C8_3 1_555 1_555
H6_3 C12_3 1_555 1_555
C21_3 C9_3 1_555 1_555
H19_3 C21_3 1_555 1_555
N7_2 C21_3 1_555 1_555
C106_3 C108_3 1_555 1_555
C108_3 H138_3 1_555 1_555
C109_3 C106_3 1_555 1_555
H139_3 C109_3 1_555 1_555
N9_2 C112_3 1_555 1_555
C112_3 C108_3 1_555 1_555
H142_3 C112_3 1_555 1_555
C121_3 C109_3 1_555 1_555
H155_3 C121_3 1_555 1_555
N9_2 C121_3 1_555 1_555
Ag4_3 Ag1_4 1_555 1_555
C33_3 C32_3 1_555 1_555
H40_3 C33_3 1_555 1_555
C34_3 H41_3 1_555 1_555
H42_3 C34_3 1_555 1_555
C35_3 C3_3 1_555 1_555
H44_3 C35_3 1_555 1_555
C36_3 C3_3 1_555 1_555
H45_3 C36_3 1_555 1_555
H46_3 C36_3 1_555 1_555
C37_3 C33_3 1_555 1_555
H47_3 C37_3 1_555 1_555
C38_3 C32_3 1_555 1_555
H48_3 C38_3 1_555 1_555
H49_3 C38_3 1_555 1_555
C39_3 C34_3 1_555 1_555
H50_3 C39_3 1_555 1_555
C50_3 C3_3 1_555 1_555
H67_3 C50_3 1_555 1_555
Ag11_3 Ag1_4 1_555 1_555
Ag13_3 Ag1_4 1_555 1_555
Ag25 S6_3 1_555 1_555
S6_3 Ag11_3 1_555 1_555
C64_3 H76_3 1_555 1_555
C66_3 C54_3 1_555 1_555
H79_3 C66_3 1_555 1_555
H80_3 C66_3 1_555 1_555
H81_3 C67_3 1_555 1_555
C68_3 C64_3 1_555 1_555
H82_3 C68_3 1_555 1_555
H83_3 C68_3 1_555 1_555
C69_3 C67_3 1_555 1_555
H84_3 C69_3 1_555 1_555
H85_3 C69_3 1_555 1_555
C70_3 C66_3 1_555 1_555
H86_3 C70_3 1_555 1_555
C72_3 C64_3 1_555 1_555
H89_3 C72_3 1_555 1_555
C74_3 H92_3 1_555 1_555
H93_3 C74_3 1_555 1_555
H98_3 C77_3 1_555 1_555
H99_3 C77_3 1_555 1_555
C80_3 C74_3 1_555 1_555
H104_3 C80_3 1_555 1_555
C93_2 H123_2 1_555 1_555
H131_3 C98_3 1_555 1_555
H132_3 C98_3 1_555 1_555
Ag4_3 Ag13_3 1_555 1_555
C32_3 C50_3 1_555 1_555
C34_3 C37_3 1_555 1_555
C35_3 C37_3 1_555 1_555
C36_3 C39_3 1_555 1_555
C38_3 C39_3 1_555 1_555
Ag11_3 Ag13_3 1_555 1_555
C67_3 C72_3 1_555 1_555
C68_3 C70_3 1_555 1_555
C69_3 C70_3 1_555 1_555
C77_3 C80_3 1_555 1_555
C93_2 C98_3 1_555 1_555
Ag10_3 Ag1_5 1_555 1_555
Ag12_3 Ag1_5 1_555 1_555
Ag14_3 Ag10_3 1_555 1_555
Ag15_3 Ag10_3 1_555 1_555
S5_3 Ag10_3 1_555 1_555
S7_3 Ag9_5 1_555 1_555
C53_3 S7_3 1_555 1_555
N3_3 Ag15_3 1_555 1_555
C57_3 N3_3 1_555 1_555
H69_3 C57_3 1_555 1_555
C60_3 N3_3 1_555 1_555
H72_3 C60_3 1_555 1_555
C61_3 C55_3 1_555 1_555
C63_3 C55_3 1_555 1_555
H75_3 C63_3 1_555 1_555
H77_3 C65_3 1_555 1_555
H90_3 C73_3 1_555 1_555
H91_3 C73_3 1_555 1_555
C83_3 C82_3 1_555 1_555
H107_3 C83_3 1_555 1_555
H108_3 C83_3 1_555 1_555
C84_3 H109_3 1_555 1_555
H110_3 C84_3 1_555 1_555
C85_3 C53_3 1_555 1_555
H111_3 C85_3 1_555 1_555
H112_3 C85_3 1_555 1_555
C86_3 C53_3 1_555 1_555
H113_3 C86_3 1_555 1_555
H114_3 C86_3 1_555 1_555
C87_3 C83_3 1_555 1_555
H115_3 C87_3 1_555 1_555
C88_3 C82_3 1_555 1_555
H116_3 C88_3 1_555 1_555
H117_3 C88_3 1_555 1_555
C89_3 C84_3 1_555 1_555
H118_3 C89_3 1_555 1_555
C91_3 H120_2 1_555 1_555
H121_3 C91_3 1_555 1_555
C92_3 C91_3 1_555 1_555
H122_3 C92_3 1_555 1_555
C94_3 C91_3 1_555 1_555
H124_3 C94_3 1_555 1_555
C95_2 C92_3 1_555 1_555
H125_3 C95_2 1_555 1_555
H126_2 C95_2 1_555 1_555
H127_2 C96_2 1_555 1_555
H128_2 C96_2 1_555 1_555
C97_3 C51_3 1_555 1_555
H129_3 C97_3 1_555 1_555
H130_3 C97_3 1_555 1_555
C99_3 C51_3 1_555 1_555
H133_3 C99_3 1_555 1_555
H134_3 C99_3 1_555 1_555
C100_3 C53_3 1_555 1_555
H135_3 C100_3 1_555 1_555
H136_3 C100_3 1_555 1_555
Ag18_3 Ag1_5 1_555 1_555
Ag20_3 Ag1_5 1_555 1_555
Ag26 S10_3 1_555 1_555
S10_3 Ag18_3 1_555 1_555
S12_3 Ag14_3 1_555 1_555
C102_3 S12_3 1_555 1_555
C114_3 H144_2 1_555 1_555
C116_3 C104_3 1_555 1_555
H147_3 C116_3 1_555 1_555
H148_3 C116_3 1_555 1_555
H149_3 C117_3 1_555 1_555
C118_3 C114_3 1_555 1_555
H150_3 C118_3 1_555 1_555
H151_2 C118_3 1_555 1_555
C119_3 C117_3 1_555 1_555
H152_3 C119_3 1_555 1_555
H153_2 C119_3 1_555 1_555
C120_3 C116_3 1_555 1_555
H154_3 C120_3 1_555 1_555
C122_2 C114_3 1_555 1_555
H157_2 C122_2 1_555 1_555
C124_3 H160_2 1_555 1_555
H161_3 C124_3 1_555 1_555
C125_3 C102_3 1_555 1_555
H162_3 C125_3 1_555 1_555
H163_3 C125_3 1_555 1_555
C126_3 C102_3 1_555 1_555
H164_3 C126_3 1_555 1_555
H165_3 C126_3 1_555 1_555
C127_3 C102_3 1_555 1_555
H166_3 C127_3 1_555 1_555
H167_3 C127_3 1_555 1_555
C128_2 H168_2 1_555 1_555
H169_2 C128_2 1_555 1_555
C129_3 H170_3 1_555 1_555
H171_3 C129_3 1_555 1_555
C130_3 C124_3 1_555 1_555
H172_2 C130_3 1_555 1_555
C131_3 C124_3 1_555 1_555
H173_3 C131_3 1_555 1_555
C140_3 C125_3 1_555 1_555
H187_3 C140_3 1_555 1_555
C143_2 H191_2 1_555 1_555
H199_3 C148_3 1_555 1_555
H200_3 C148_3 1_555 1_555
Ag10_3 Ag12_3 1_555 1_555
Ag12_3 S7_3 1_555 1_555
Ag12_3 Ag20_3 1_555 1_555
Ag14_3 S5_3 1_555 1_555
Ag15_3 S5_3 1_555 1_555
Ag15_3 S7_3 1_555 1_555
C57_3 C61_3 1_555 1_555
C60_3 C63_3 1_555 1_555
C82_3 C100_3 1_555 1_555
C84_3 C87_3 1_555 1_555
C85_3 C87_3 1_555 1_555
C86_3 C89_3 1_555 1_555
C88_3 C89_3 1_555 1_555
C92_3 C97_3 1_555 1_555
C94_3 C96_2 1_555 1_555
C94_3 C99_3 1_555 1_555
Ag18_3 Ag20_3 1_555 1_555
Ag20_3 S12_3 1_555 1_555
Ag26 S12_3 1_555 1_555
C117_3 C122_2 1_555 1_555
C118_3 C120_3 1_555 1_555
C119_3 C120_3 1_555 1_555
C126_3 C131_3 1_555 1_555
C127_3 C130_3 1_555 1_555
C128_2 C130_3 1_555 1_555
C128_2 C140_3 1_555 1_555
C129_3 C131_3 1_555 1_555
C129_3 C140_3 1_555 1_555
C143_2 C148_3 1_555 1_555
C56_3 C58_3 1_555 1_555
C58_3 H70_3 1_555 1_555
C59_3 C56_3 1_555 1_555
H71_3 C59_3 1_555 1_555
N8_2 C62_3 1_555 1_555
C62_3 C58_3 1_555 1_555
H74_3 C62_3 1_555 1_555
C71_3 C59_3 1_555 1_555
H87_3 C71_3 1_555 1_555
N8_2 C71_3 1_555 1_555
H156_2 C122_3 1_555 1_555
H157_3 C122_3 1_555 1_555
C128_3 H168_3 1_555 1_555
H169_3 C128_3 1_555 1_555
C128_4 H168_4 1_555 1_555
H169_4 C128_4 1_555 1_555
H156_3 C122_4 1_555 1_555
H157_4 C122_4 1_555 1_555
Ag8_3 S2_4 1_555 1_555
S2_4 Ag3_4 1_555 1_555
S4_3 Ag5_4 1_555 1_555
C1_4 S2_4 1_555 1_555
C2_3 S4_3 1_555 1_555
H9_4 C15_4 1_555 1_555
H10_4 C15_4 1_555 1_555
C17_4 C15_4 1_555 1_555
H13_4 C17_4 1_555 1_555
C19_4 C17_4 1_555 1_555
H16_4 C19_4 1_555 1_555
C25_3 C2_3 1_555 1_555
H26_3 C25_3 1_555 1_555
H27_3 C25_3 1_555 1_555
C27_4 C2_3 1_555 1_555
H30_4 C27_4 1_555 1_555
H31_4 C27_4 1_555 1_555
C40_3 C25_3 1_555 1_555
H51_3 C40_3 1_555 1_555
C41_4 H52_3 1_555 1_555
H53_4 C41_4 1_555 1_555
C42_4 C41_4 1_555 1_555
H54_4 C42_4 1_555 1_555
C43_3 H55_3 1_555 1_555
C44_4 C41_4 1_555 1_555
H56_4 C44_4 1_555 1_555
C45_3 C42_4 1_555 1_555
H57_4 C45_3 1_555 1_555
H58_3 C45_3 1_555 1_555
C46_3 C43_3 1_555 1_555
H59_3 C46_3 1_555 1_555
H60_3 C46_3 1_555 1_555
C47_4 C1_4 1_555 1_555
H61_4 C47_4 1_555 1_555
H62_4 C47_4 1_555 1_555
C48_4 C1_4 1_555 1_555
H63_4 C48_4 1_555 1_555
H64_4 C48_4 1_555 1_555
C49_4 C1_4 1_555 1_555
H65_4 C49_4 1_555 1_555
H66_4 C49_4 1_555 1_555
Ag16_3 S6_4 1_555 1_555
S6_4 Ag11_4 1_555 1_555
S8_4 Ag6_4 1_555 1_555
C51_4 S6_4 1_555 1_555
C52_4 S8_4 1_555 1_555
H77_4 C65_4 1_555 1_555
H78_4 C65_4 1_555 1_555
C67_4 C65_4 1_555 1_555
H81_4 C67_4 1_555 1_555
C69_4 C67_4 1_555 1_555
H84_4 C69_4 1_555 1_555
H85_4 C69_4 1_555 1_555
C75_4 C52_4 1_555 1_555
H94_4 C75_4 1_555 1_555
H95_4 C75_4 1_555 1_555
C77_4 C52_4 1_555 1_555
H98_4 C77_4 1_555 1_555
H99_4 C77_4 1_555 1_555
C78_4 H100_4 1_555 1_555
H101_4 C78_4 1_555 1_555
H104_4 C80_4 1_555 1_555
C90_4 C75_4 1_555 1_555
H119_4 C90_4 1_555 1_555
C91_4 H120_3 1_555 1_555
H121_4 C91_4 1_555 1_555
C92_4 C91_4 1_555 1_555
H122_4 C92_4 1_555 1_555
C93_3 H123_3 1_555 1_555
C94_4 C91_4 1_555 1_555
H124_4 C94_4 1_555 1_555
C95_3 C92_4 1_555 1_555
H125_4 C95_3 1_555 1_555
H126_3 C95_3 1_555 1_555
C96_3 C93_3 1_555 1_555
H127_3 C96_3 1_555 1_555
H128_3 C96_3 1_555 1_555
C97_4 C51_4 1_555 1_555
H129_4 C97_4 1_555 1_555
H130_4 C97_4 1_555 1_555
C98_4 C51_4 1_555 1_555
H131_4 C98_4 1_555 1_555
H132_4 C98_4 1_555 1_555
C99_4 C51_4 1_555 1_555
H133_4 C99_4 1_555 1_555
H134_4 C99_4 1_555 1_555
Ag21_3 S4_3 1_555 1_555
Ag23_3 S10_4 1_555 1_555
S10_4 Ag18_4 1_555 1_555
S12_4 Ag14_4 1_555 1_555
C101_3 S10_4 1_555 1_555
C102_4 S12_4 1_555 1_555
H145_3 C115_3 1_555 1_555
H146_4 C115_3 1_555 1_555
C117_4 C115_3 1_555 1_555
H149_4 C117_4 1_555 1_555
C119_4 C117_4 1_555 1_555
H152_4 C119_4 1_555 1_555
C125_4 C102_4 1_555 1_555
H162_4 C125_4 1_555 1_555
H163_4 C125_4 1_555 1_555
C127_4 C102_4 1_555 1_555
H166_4 C127_4 1_555 1_555
H167_4 C127_4 1_555 1_555
C140_4 C125_4 1_555 1_555
H187_4 C140_4 1_555 1_555
C141_3 H188_2 1_555 1_555
H189_3 C141_3 1_555 1_555
C142_3 C141_3 1_555 1_555
H190_3 C142_3 1_555 1_555
C143_3 H191_3 1_555 1_555
C144_3 C141_3 1_555 1_555
H192_3 C144_3 1_555 1_555
C145_2 C142_3 1_555 1_555
H193_3 C145_2 1_555 1_555
H194_2 C145_2 1_555 1_555
C146_2 C143_3 1_555 1_555
H195_2 C146_2 1_555 1_555
H196_2 C146_2 1_555 1_555
C147_3 C101_3 1_555 1_555
H197_3 C147_3 1_555 1_555
H198_3 C147_3 1_555 1_555
C148_4 C101_3 1_555 1_555
H199_4 C148_4 1_555 1_555
H200_4 C148_4 1_555 1_555
C149_3 C101_3 1_555 1_555
H201_3 C149_3 1_555 1_555
H202_3 C149_3 1_555 1_555
N7_3 Ag23_3 1_555 1_555
N8_3 Ag8_3 1_555 1_555
N9_3 Ag16_3 1_555 1_555
Ag3_4 Ag5_4 1_555 1_555
Ag3_4 Ag11_4 1_555 1_555
Ag3_4 Ag18_4 1_555 1_555
Ag6_4 S2_4 1_555 1_555
Ag8_3 S4_3 1_555 1_555
C27_4 C30_4 1_555 1_555
C42_4 C47_4 1_555 1_555
C43_3 C45_3 1_555 1_555
C43_3 C48_4 1_555 1_555
C44_4 C46_3 1_555 1_555
C44_4 C49_4 1_555 1_555
Ag11_4 Ag13_4 1_555 1_555
Ag11_4 Ag18_4 1_555 1_555
Ag13_4 S8_4 1_555 1_555
Ag14_4 S6_4 1_555 1_555
Ag16_3 S8_4 1_555 1_555
C77_4 C80_4 1_555 1_555
C78_4 C80_4 1_555 1_555
C78_4 C90_4 1_555 1_555
C92_4 C97_4 1_555 1_555
C93_3 C95_3 1_555 1_555
C93_3 C98_4 1_555 1_555
C94_4 C96_3 1_555 1_555
C94_4 C99_4 1_555 1_555
Ag18_4 Ag20_4 1_555 1_555
Ag20_4 S12_4 1_555 1_555
Ag21_3 S10_4 1_555 1_555
Ag23_3 S12_4 1_555 1_555
C127_4 C130_4 1_555 1_555
C142_3 C147_3 1_555 1_555
C143_3 C145_2 1_555 1_555
C143_3 C148_4 1_555 1_555
C144_3 C146_2 1_555 1_555
C144_3 C149_3 1_555 1_555
Ag1_6 Ag2_4 1_555 1_555
Ag2_4 Ag4_4 1_555 1_555
Ag4_4 Ag1_6 1_555 1_555
Ag7_4 Ag2_4 1_555 1_555
Ag9_6 S3_4 1_555 1_555
S1_4 Ag2_4 1_555 1_555
S3_4 Ag4_4 1_555 1_555
C3_4 S3_4 1_555 1_555
C4_4 S1_4 1_555 1_555
C5_4 C6_4 1_555 1_555
N1_4 Ag7_4 1_555 1_555
C6_4 C8_4 1_555 1_555
C7_4 N1_4 1_555 1_555
H1_4 C7_4 1_555 1_555
C8_4 H2_4 1_555 1_555
C9_4 C6_4 1_555 1_555
H3_4 C9_4 1_555 1_555
C10_4 N1_4 1_555 1_555
H4_4 C10_4 1_555 1_555
C11_4 C5_4 1_555 1_555
H5_4 C11_4 1_555 1_555
N2_2 C12_4 1_555 1_555
C12_4 C8_4 1_555 1_555
H6_4 C12_4 1_555 1_555
C13_4 C5_4 1_555 1_555
H7_4 C13_4 1_555 1_555
C16_4 C4_4 1_555 1_555
H11_4 C16_4 1_555 1_555
H12_4 C16_4 1_555 1_555
C18_4 C14_4 1_555 1_555
H14_4 C18_4 1_555 1_555
C20_4 C16_4 1_555 1_555
H18_4 C20_4 1_555 1_555
C21_4 C9_4 1_555 1_555
H19_4 C21_4 1_555 1_555
C23_4 C4_4 1_555 1_555
H22_4 C23_4 1_555 1_555
H23_4 C23_4 1_555 1_555
H25_4 C24_4 1_555 1_555
H28_4 C26_3 1_555 1_555
H29_3 C26_3 1_555 1_555
C29_3 H34_3 1_555 1_555
H35_3 C29_3 1_555 1_555
C31_3 C24_4 1_555 1_555
H37_3 C31_3 1_555 1_555
C32_4 H38_3 1_555 1_555
C33_4 C32_4 1_555 1_555
H39_4 C33_4 1_555 1_555
H40_4 C33_4 1_555 1_555
C34_4 H41_4 1_555 1_555
H42_4 C34_4 1_555 1_555
C35_4 C3_4 1_555 1_555
H43_4 C35_4 1_555 1_555
H44_4 C35_4 1_555 1_555
C36_4 C3_4 1_555 1_555
H45_4 C36_4 1_555 1_555
H46_4 C36_4 1_555 1_555
C37_4 C33_4 1_555 1_555
H47_4 C37_4 1_555 1_555
C38_4 C32_4 1_555 1_555
H48_4 C38_4 1_555 1_555
H49_4 C38_4 1_555 1_555
C39_4 C34_4 1_555 1_555
H50_4 C39_4 1_555 1_555
C50_4 C3_4 1_555 1_555
H67_4 C50_4 1_555 1_555
H68_4 C50_4 1_555 1_555
Ag10_4 Ag1_6 1_555 1_555
Ag12_4 Ag1_6 1_555 1_555
Ag15_4 Ag10_4 1_555 1_555
S5_4 Ag10_4 1_555 1_555
S7_4 Ag9_6 1_555 1_555
C53_4 S7_4 1_555 1_555
C54_4 S5_4 1_555 1_555
C55_4 C56_4 1_555 1_555
N3_4 Ag15_4 1_555 1_555
C56_4 C58_4 1_555 1_555
C57_4 N3_4 1_555 1_555
H69_4 C57_4 1_555 1_555
C58_4 H70_4 1_555 1_555
C59_4 C56_4 1_555 1_555
H71_4 C59_4 1_555 1_555
C60_4 N3_4 1_555 1_555
H72_4 C60_4 1_555 1_555
C61_4 C55_4 1_555 1_555
H73_4 C61_4 1_555 1_555
N4_2 C62_4 1_555 1_555
C62_4 C58_4 1_555 1_555
H74_4 C62_4 1_555 1_555
C63_4 C55_4 1_555 1_555
H75_4 C63_4 1_555 1_555
C64_4 H76_4 1_555 1_555
C66_4 C54_4 1_555 1_555
H79_4 C66_4 1_555 1_555
H80_4 C66_4 1_555 1_555
C68_4 C64_4 1_555 1_555
H82_4 C68_4 1_555 1_555
H83_4 C68_4 1_555 1_555
C70_4 C66_4 1_555 1_555
H86_4 C70_4 1_555 1_555
C71_4 C59_4 1_555 1_555
H87_4 C71_4 1_555 1_555
C72_4 C64_4 1_555 1_555
H88_4 C72_4 1_555 1_555
H89_4 C72_4 1_555 1_555
C73_4 C54_4 1_555 1_555
H90_4 C73_4 1_555 1_555
H91_4 C73_4 1_555 1_555
C74_4 H92_4 1_555 1_555
H93_4 C74_4 1_555 1_555
H96_4 C76_4 1_555 1_555
H97_4 C76_4 1_555 1_555
C79_4 H102_4 1_555 1_555
H103_4 C79_4 1_555 1_555
C81_4 C74_4 1_555 1_555
H105_4 C81_4 1_555 1_555
C82_4 H106_4 1_555 1_555
C83_4 C82_4 1_555 1_555
H107_4 C83_4 1_555 1_555
H108_4 C83_4 1_555 1_555
C84_4 H109_4 1_555 1_555
H110_4 C84_4 1_555 1_555
C85_4 C53_4 1_555 1_555
H111_4 C85_4 1_555 1_555
H112_4 C85_4 1_555 1_555
C86_4 C53_4 1_555 1_555
H113_4 C86_4 1_555 1_555
H114_4 C86_4 1_555 1_555
C87_4 C83_4 1_555 1_555
H115_4 C87_4 1_555 1_555
C88_4 C82_4 1_555 1_555
H116_4 C88_4 1_555 1_555
H117_4 C88_4 1_555 1_555
C89_4 C84_4 1_555 1_555
H118_4 C89_4 1_555 1_555
C100_4 C53_4 1_555 1_555
H135_4 C100_4 1_555 1_555
H136_4 C100_4 1_555 1_555
Ag17_3 Ag1_6 1_555 1_555
Ag19_4 Ag1_6 1_555 1_555
Ag22_3 Ag17_3 1_555 1_555
S9_3 Ag17_3 1_555 1_555
S11_3 Ag9_6 1_555 1_555
C103_4 S11_3 1_555 1_555
C104_4 S9_3 1_555 1_555
C105_3 C106_4 1_555 1_555
N5_3 Ag22_3 1_555 1_555
C106_4 C108_4 1_555 1_555
C107_3 N5_3 1_555 1_555
H137_3 C107_3 1_555 1_555
C108_4 H138_4 1_555 1_555
C109_4 C106_4 1_555 1_555
H139_4 C109_4 1_555 1_555
C110_3 N5_3 1_555 1_555
H140_3 C110_3 1_555 1_555
C111_3 C105_3 1_555 1_555
H141_4 C111_3 1_555 1_555
N6_2 C112_4 1_555 1_555
C112_4 C108_4 1_555 1_555
H142_4 C112_4 1_555 1_555
C113_3 C105_3 1_555 1_555
H143_3 C113_3 1_555 1_555
C116_4 C104_4 1_555 1_555
H147_4 C116_4 1_555 1_555
H148_4 C116_4 1_555 1_555
C118_4 C114_4 1_555 1_555
H150_4 C118_4 1_555 1_555
C120_4 C116_4 1_555 1_555
H154_4 C120_4 1_555 1_555
C121_4 C109_4 1_555 1_555
H155_4 C121_4 1_555 1_555
C123_3 C104_4 1_555 1_555
H158_3 C123_3 1_555 1_555
H159_3 C123_3 1_555 1_555
H161_4 C124_4 1_555 1_555
H164_4 C126_4 1_555 1_555
H165_4 C126_4 1_555 1_555
C129_4 H170_4 1_555 1_555
H171_4 C129_4 1_555 1_555
C131_4 C124_4 1_555 1_555
H173_4 C131_4 1_555 1_555
C132_4 H174_4 1_555 1_555
C133_4 C132_4 1_555 1_555
H175_3 C133_4 1_555 1_555
H176_4 C133_4 1_555 1_555
C134_4 H177_4 1_555 1_555
H178_4 C134_4 1_555 1_555
C135_4 C103_4 1_555 1_555
H179_3 C135_4 1_555 1_555
H180_4 C135_4 1_555 1_555
C136_4 C103_4 1_555 1_555
H181_4 C136_4 1_555 1_555
H182_4 C136_4 1_555 1_555
C137_4 C133_4 1_555 1_555
H183_4 C137_4 1_555 1_555
C138_4 C132_4 1_555 1_555
H184_4 C138_4 1_555 1_555
H185_4 C138_4 1_555 1_555
C139_4 C134_4 1_555 1_555
H186_4 C139_4 1_555 1_555
C150_4 C103_4 1_555 1_555
H203_4 C150_4 1_555 1_555
H204_3 C150_4 1_555 1_555
Ag24_2 N4_2 1_555 1_555
Ag25_2 N6_2 1_555 1_555
Ag26_2 N2_2 1_555 1_555
Ag2_4 Ag19_4 1_555 1_555
Ag4_4 Ag10_4 1_555 1_555
Ag7_4 S1_4 1_555 1_555
Ag7_4 S3_4 1_555 1_555
C7_4 C11_4 1_555 1_555
C10_4 C13_4 1_555 1_555
N2_2 C21_4 1_555 1_555
C14_4 C23_4 1_555 1_555
C18_4 C20_4 1_555 1_555
C26_3 C31_3 1_555 1_555
C29_3 C31_3 1_555 1_555
C32_4 C50_4 1_555 1_555
C34_4 C37_4 1_555 1_555
C35_4 C37_4 1_555 1_555
C36_4 C39_4 1_555 1_555
C38_4 C39_4 1_555 1_555
Ag10_4 Ag12_4 1_555 1_555
Ag12_4 S7_4 1_555 1_555
Ag12_4 Ag17_3 1_555 1_555
Ag15_4 S5_4 1_555 1_555
Ag15_4 S7_4 1_555 1_555
C57_4 C61_4 1_555 1_555
C60_4 C63_4 1_555 1_555
N4_2 C71_4 1_555 1_555
C64_4 C73_4 1_555 1_555
C68_4 C70_4 1_555 1_555
C76_4 C81_4 1_555 1_555
C79_4 C81_4 1_555 1_555
C82_4 C100_4 1_555 1_555
C84_4 C87_4 1_555 1_555
C85_4 C87_4 1_555 1_555
C86_4 C89_4 1_555 1_555
C88_4 C89_4 1_555 1_555
Ag17_3 Ag19_4 1_555 1_555
Ag19_4 S11_3 1_555 1_555
Ag22_3 S9_3 1_555 1_555
Ag22_3 S11_3 1_555 1_555
C107_3 C111_3 1_555 1_555
C110_3 C113_3 1_555 1_555
N6_2 C121_4 1_555 1_555
C114_4 C123_3 1_555 1_555
C118_4 C120_4 1_555 1_555
C126_4 C131_4 1_555 1_555
C129_4 C131_4 1_555 1_555
C132_4 C150_4 1_555 1_555
C134_4 C137_4 1_555 1_555
C135_4 C137_4 1_555 1_555
C136_4 C139_4 1_555 1_555
C138_4 C139_4 1_555 1_555
C56_5 C58_5 1_555 1_555
C59_5 C56_5 1_555 1_555
H71_5 C59_5 1_555 1_555
N8_3 C62_5 1_555 1_555
C62_5 C58_5 1_555 1_555
H74_5 C62_5 1_555 1_555
C71_5 C59_5 1_555 1_555
H87_5 C71_5 1_555 1_555
C128_5 H168_5 1_555 1_555
H169_5 C128_5 1_555 1_555
H187_5 C140_5 1_555 1_555
N8_3 C71_5 1_555 1_555
C128_5 C140_5 1_555 1_555
Ag1_7 Ag2_5 1_555 1_555
Ag2_5 Ag4_5 1_555 1_555
Ag3_5 Ag1_7 1_555 1_555
Ag4_5 Ag1_7 1_555 1_555
Ag5_5 Ag1_7 1_555 1_555
Ag6_5 Ag2_5 1_555 1_555
Ag7_5 Ag2_5 1_555 1_555
Ag8_4 S2_5 1_555 1_555
Ag9_7 S3_5 1_555 1_555
S1_5 Ag2_5 1_555 1_555
S2_5 Ag3_5 1_555 1_555
S3_5 Ag4_5 1_555 1_555
S4_4 Ag5_5 1_555 1_555
C1_5 S2_5 1_555 1_555
C2_4 S4_4 1_555 1_555
C3_5 S3_5 1_555 1_555
C4_5 S1_5 1_555 1_555
N1_5 Ag7_5 1_555 1_555
C7_5 N1_5 1_555 1_555
H1_5 C7_5 1_555 1_555
C10_5 N1_5 1_555 1_555
H4_5 C10_5 1_555 1_555
C11_5 C5_5 1_555 1_555
H5_5 C11_5 1_555 1_555
C13_5 C5_5 1_555 1_555
C14_5 H8_4 1_555 1_555
C15_5 C4_5 1_555 1_555
H9_5 C15_5 1_555 1_555
H10_5 C15_5 1_555 1_555
C16_5 C4_5 1_555 1_555
H11_5 C16_5 1_555 1_555
H12_5 C16_5 1_555 1_555
C17_5 C15_5 1_555 1_555
H13_5 C17_5 1_555 1_555
C18_5 C14_5 1_555 1_555
H14_5 C18_5 1_555 1_555
H15_4 C18_5 1_555 1_555
C19_5 C17_5 1_555 1_555
H16_5 C19_5 1_555 1_555
H17_4 C19_5 1_555 1_555
C20_5 C16_5 1_555 1_555
H18_5 C20_5 1_555 1_555
C22_4 C14_5 1_555 1_555
H21_4 C22_4 1_555 1_555
C23_5 C4_5 1_555 1_555
H22_5 C23_5 1_555 1_555
H23_5 C23_5 1_555 1_555
C24_5 H24_4 1_555 1_555
H25_5 C24_5 1_555 1_555
C25_4 C2_4 1_555 1_555
H26_4 C25_4 1_555 1_555
H27_4 C25_4 1_555 1_555
C26_4 C2_4 1_555 1_555
H28_5 C26_4 1_555 1_555
H29_4 C26_4 1_555 1_555
C27_5 C2_4 1_555 1_555
H30_5 C27_5 1_555 1_555
H31_5 C27_5 1_555 1_555
C28_3 H32_4 1_555 1_555
H33_4 C28_3 1_555 1_555
C29_4 H34_4 1_555 1_555
H35_4 C29_4 1_555 1_555
C30_5 C24_5 1_555 1_555
H36_4 C30_5 1_555 1_555
C31_4 C24_5 1_555 1_555
H37_4 C31_4 1_555 1_555
C32_5 H38_4 1_555 1_555
C33_5 C32_5 1_555 1_555
H39_5 C33_5 1_555 1_555
H40_5 C33_5 1_555 1_555
C34_5 H41_5 1_555 1_555
H42_5 C34_5 1_555 1_555
C35_5 C3_5 1_555 1_555
H43_5 C35_5 1_555 1_555
H44_5 C35_5 1_555 1_555
C36_5 C3_5 1_555 1_555
H45_5 C36_5 1_555 1_555
H46_5 C36_5 1_555 1_555
C37_5 C33_5 1_555 1_555
H47_5 C37_5 1_555 1_555
C38_5 C32_5 1_555 1_555
H48_5 C38_5 1_555 1_555
H49_5 C38_5 1_555 1_555
C39_5 C34_5 1_555 1_555
H50_5 C39_5 1_555 1_555
C40_4 C25_4 1_555 1_555
H51_4 C40_4 1_555 1_555
C41_5 H52_4 1_555 1_555
H53_5 C41_5 1_555 1_555
C42_5 C41_5 1_555 1_555
H54_5 C42_5 1_555 1_555
C43_4 H55_4 1_555 1_555
C44_5 C41_5 1_555 1_555
H56_5 C44_5 1_555 1_555
C45_4 C42_5 1_555 1_555
H57_5 C45_4 1_555 1_555
H58_4 C45_4 1_555 1_555
C46_4 C43_4 1_555 1_555
H59_4 C46_4 1_555 1_555
H60_4 C46_4 1_555 1_555
C47_5 C1_5 1_555 1_555
H61_5 C47_5 1_555 1_555
H62_5 C47_5 1_555 1_555
C48_5 C1_5 1_555 1_555
H63_5 C48_5 1_555 1_555
H64_5 C48_5 1_555 1_555
C49_5 C1_5 1_555 1_555
H65_5 C49_5 1_555 1_555
H66_5 C49_5 1_555 1_555
C50_5 C3_5 1_555 1_555
H67_5 C50_5 1_555 1_555
H68_5 C50_5 1_555 1_555
Ag10_5 Ag1_7 1_555 1_555
Ag11_5 Ag1_7 1_555 1_555
Ag12_5 Ag1_7 1_555 1_555
Ag13_5 Ag1_7 1_555 1_555
Ag14_5 Ag10_5 1_555 1_555
Ag15_5 Ag10_5 1_555 1_555
Ag16_4 S6_5 1_555 1_555
S5_5 Ag10_5 1_555 1_555
S6_5 Ag11_5 1_555 1_555
S7_5 Ag9_7 1_555 1_555
S8_5 Ag6_5 1_555 1_555
C51_5 S6_5 1_555 1_555
C52_5 S8_5 1_555 1_555
C53_5 S7_5 1_555 1_555
C54_5 S5_5 1_555 1_555
N3_5 Ag15_5 1_555 1_555
C57_5 N3_5 1_555 1_555
H69_5 C57_5 1_555 1_555
C60_5 N3_5 1_555 1_555
H72_5 C60_5 1_555 1_555
C61_5 C55_5 1_555 1_555
H73_5 C61_5 1_555 1_555
C63_5 C55_5 1_555 1_555
C64_5 H76_5 1_555 1_555
C65_5 C54_5 1_555 1_555
H77_5 C65_5 1_555 1_555
H78_5 C65_5 1_555 1_555
C66_5 C54_5 1_555 1_555
H79_5 C66_5 1_555 1_555
H80_5 C66_5 1_555 1_555
C67_5 C65_5 1_555 1_555
H81_5 C67_5 1_555 1_555
C68_5 C64_5 1_555 1_555
H82_5 C68_5 1_555 1_555
H83_5 C68_5 1_555 1_555
C69_5 C67_5 1_555 1_555
H84_5 C69_5 1_555 1_555
H85_5 C69_5 1_555 1_555
C70_5 C66_5 1_555 1_555
H86_5 C70_5 1_555 1_555
C72_5 C64_5 1_555 1_555
H89_5 C72_5 1_555 1_555
C73_5 C54_5 1_555 1_555
H90_5 C73_5 1_555 1_555
H91_5 C73_5 1_555 1_555
C74_5 H92_5 1_555 1_555
H93_5 C74_5 1_555 1_555
C75_5 C52_5 1_555 1_555
H94_5 C75_5 1_555 1_555
H95_5 C75_5 1_555 1_555
C76_5 C52_5 1_555 1_555
H96_5 C76_5 1_555 1_555
H97_5 C76_5 1_555 1_555
C77_5 C52_5 1_555 1_555
H98_5 C77_5 1_555 1_555
H99_5 C77_5 1_555 1_555
C80_5 C74_5 1_555 1_555
H104_5 C80_5 1_555 1_555
C81_5 C74_5 1_555 1_555
H105_5 C81_5 1_555 1_555
C82_5 H106_5 1_555 1_555
C83_5 C82_5 1_555 1_555
H107_5 C83_5 1_555 1_555
H108_5 C83_5 1_555 1_555
C84_5 H109_5 1_555 1_555
H110_5 C84_5 1_555 1_555
C85_5 C53_5 1_555 1_555
H111_5 C85_5 1_555 1_555
H112_5 C85_5 1_555 1_555
C86_5 C53_5 1_555 1_555
H113_5 C86_5 1_555 1_555
H114_5 C86_5 1_555 1_555
C87_5 C83_5 1_555 1_555
H115_5 C87_5 1_555 1_555
C88_5 C82_5 1_555 1_555
H116_5 C88_5 1_555 1_555
H117_5 C88_5 1_555 1_555
C89_5 C84_5 1_555 1_555
H118_5 C89_5 1_555 1_555
C91_5 H120_4 1_555 1_555
H121_5 C91_5 1_555 1_555
C92_5 C91_5 1_555 1_555
H122_5 C92_5 1_555 1_555
C93_4 H123_4 1_555 1_555
C94_5 C91_5 1_555 1_555
H124_5 C94_5 1_555 1_555
C95_4 C92_5 1_555 1_555
H125_5 C95_4 1_555 1_555
H126_4 C95_4 1_555 1_555
C96_4 C93_4 1_555 1_555
H127_4 C96_4 1_555 1_555
H128_4 C96_4 1_555 1_555
C97_5 C51_5 1_555 1_555
H129_5 C97_5 1_555 1_555
H130_5 C97_5 1_555 1_555
C98_5 C51_5 1_555 1_555
H131_5 C98_5 1_555 1_555
H132_5 C98_5 1_555 1_555
C99_5 C51_5 1_555 1_555
H133_5 C99_5 1_555 1_555
H134_5 C99_5 1_555 1_555
C100_5 C53_5 1_555 1_555
H135_5 C100_5 1_555 1_555
H136_5 C100_5 1_555 1_555
Ag17_4 Ag1_7 1_555 1_555
Ag18_5 Ag1_7 1_555 1_555
Ag19_5 Ag1_7 1_555 1_555
Ag20_5 Ag1_7 1_555 1_555
Ag21_4 S4_4 1_555 1_555
Ag22_4 Ag17_4 1_555 1_555
Ag23_4 S10_5 1_555 1_555
S9_4 Ag17_4 1_555 1_555
S10_5 Ag18_5 1_555 1_555
S11_4 Ag9_7 1_555 1_555
S12_5 Ag14_5 1_555 1_555
C101_4 S10_5 1_555 1_555
C102_5 S12_5 1_555 1_555
C103_5 S11_4 1_555 1_555
C104_5 S9_4 1_555 1_555
C105_4 C106_5 1_555 1_555
N5_4 Ag22_4 1_555 1_555
C106_5 C108_5 1_555 1_555
C107_4 N5_4 1_555 1_555
H137_4 C107_4 1_555 1_555
C108_5 H138_5 1_555 1_555
C109_5 C106_5 1_555 1_555
H139_5 C109_5 1_555 1_555
C110_4 N5_4 1_555 1_555
H140_4 C110_4 1_555 1_555
C111_4 C105_4 1_555 1_555
H141_5 C111_4 1_555 1_555
N9_3 C112_5 1_555 1_555
C112_5 C108_5 1_555 1_555
H142_5 C112_5 1_555 1_555
C113_4 C105_4 1_555 1_555
H143_4 C113_4 1_555 1_555
C114_5 H144_5 1_555 1_555
C115_4 C104_5 1_555 1_555
H145_4 C115_4 1_555 1_555
H146_5 C115_4 1_555 1_555
C116_5 C104_5 1_555 1_555
H147_5 C116_5 1_555 1_555
H148_5 C116_5 1_555 1_555
C117_5 C115_4 1_555 1_555
H149_5 C117_5 1_555 1_555
C118_5 C114_5 1_555 1_555
H150_5 C118_5 1_555 1_555
H151_5 C118_5 1_555 1_555
C119_5 C117_5 1_555 1_555
H152_5 C119_5 1_555 1_555
H153_5 C119_5 1_555 1_555
C120_5 C116_5 1_555 1_555
H154_5 C120_5 1_555 1_555
C121_5 C109_5 1_555 1_555
H155_5 C121_5 1_555 1_555
C122_5 C114_5 1_555 1_555
H156_4 C122_5 1_555 1_555
H157_5 C122_5 1_555 1_555
C123_4 C104_5 1_555 1_555
H158_4 C123_4 1_555 1_555
H159_4 C123_4 1_555 1_555
C124_5 H160_5 1_555 1_555
H161_5 C124_5 1_555 1_555
C125_5 C102_5 1_555 1_555
H162_5 C125_5 1_555 1_555
H163_5 C125_5 1_555 1_555
C126_5 C102_5 1_555 1_555
H164_5 C126_5 1_555 1_555
H165_5 C126_5 1_555 1_555
C127_5 C102_5 1_555 1_555
H166_5 C127_5 1_555 1_555
H167_5 C127_5 1_555 1_555
C130_5 C124_5 1_555 1_555
H172_5 C130_5 1_555 1_555
C131_5 C124_5 1_555 1_555
H173_5 C131_5 1_555 1_555
C132_5 H174_5 1_555 1_555
C133_5 C132_5 1_555 1_555
H175_4 C133_5 1_555 1_555
H176_5 C133_5 1_555 1_555
C134_5 H177_5 1_555 1_555
H178_5 C134_5 1_555 1_555
C135_5 C103_5 1_555 1_555
H179_4 C135_5 1_555 1_555
H180_5 C135_5 1_555 1_555
C136_5 C103_5 1_555 1_555
H181_5 C136_5 1_555 1_555
H182_5 C136_5 1_555 1_555
C137_5 C133_5 1_555 1_555
H183_5 C137_5 1_555 1_555
C138_5 C132_5 1_555 1_555
H184_5 C138_5 1_555 1_555
H185_5 C138_5 1_555 1_555
C139_5 C134_5 1_555 1_555
H186_5 C139_5 1_555 1_555
C141_4 H188_3 1_555 1_555
H189_4 C141_4 1_555 1_555
C142_4 C141_4 1_555 1_555
H190_4 C142_4 1_555 1_555
C143_4 H191_4 1_555 1_555
C144_4 C141_4 1_555 1_555
H192_4 C144_4 1_555 1_555
C145_3 C142_4 1_555 1_555
H193_4 C145_3 1_555 1_555
H194_3 C145_3 1_555 1_555
C146_3 C143_4 1_555 1_555
H195_3 C146_3 1_555 1_555
H196_3 C146_3 1_555 1_555
C147_4 C101_4 1_555 1_555
H197_4 C147_4 1_555 1_555
H198_4 C147_4 1_555 1_555
C148_5 C101_4 1_555 1_555
H199_5 C148_5 1_555 1_555
H200_5 C148_5 1_555 1_555
C149_4 C101_4 1_555 1_555
H201_4 C149_4 1_555 1_555
H202_4 C149_4 1_555 1_555
C150_5 C103_5 1_555 1_555
H203_5 C150_5 1_555 1_555
H204_4 C150_5 1_555 1_555
N7_4 Ag23_4 1_555 1_555
N8_4 Ag8_4 1_555 1_555
N9_4 Ag16_4 1_555 1_555
Ag2_5 Ag5_5 1_555 1_555
Ag2_5 Ag19_5 1_555 1_555
Ag3_5 Ag5_5 1_555 1_555
Ag3_5 Ag11_5 1_555 1_555
Ag3_5 Ag18_5 1_555 1_555
Ag4_5 Ag10_5 1_555 1_555
Ag4_5 Ag13_5 1_555 1_555
Ag5_5 Ag19_5 1_555 1_555
Ag6_5 S1_5 1_555 1_555
Ag6_5 S2_5 1_555 1_555
Ag7_5 S1_5 1_555 1_555
Ag7_5 S3_5 1_555 1_555
Ag8_4 S4_4 1_555 1_555
C7_5 C11_5 1_555 1_555
C10_5 C13_5 1_555 1_555
C14_5 C23_5 1_555 1_555
C17_5 C22_4 1_555 1_555
C18_5 C20_5 1_555 1_555
C19_5 C20_5 1_555 1_555
C26_4 C31_4 1_555 1_555
C27_5 C30_5 1_555 1_555
C28_3 C30_5 1_555 1_555
C28_3 C40_4 1_555 1_555
C29_4 C31_4 1_555 1_555
C29_4 C40_4 1_555 1_555
C32_5 C50_5 1_555 1_555
C34_5 C37_5 1_555 1_555
C35_5 C37_5 1_555 1_555
C36_5 C39_5 1_555 1_555
C38_5 C39_5 1_555 1_555
C42_5 C47_5 1_555 1_555
C43_4 C45_4 1_555 1_555
C43_4 C48_5 1_555 1_555
C44_5 C46_4 1_555 1_555
C44_5 C49_5 1_555 1_555
Ag10_5 Ag12_5 1_555 1_555
Ag10_5 Ag13_5 1_555 1_555
Ag11_5 Ag13_5 1_555 1_555
Ag11_5 Ag18_5 1_555 1_555
Ag12_5 S7_5 1_555 1_555
Ag12_5 Ag17_4 1_555 1_555
Ag12_5 Ag20_5 1_555 1_555
Ag13_5 S8_5 1_555 1_555
Ag14_5 S5_5 1_555 1_555
Ag14_5 S6_5 1_555 1_555
Ag15_5 S5_5 1_555 1_555
Ag15_5 S7_5 1_555 1_555
Ag16_4 S8_5 1_555 1_555
C57_5 C61_5 1_555 1_555
C60_5 C63_5 1_555 1_555
C64_5 C73_5 1_555 1_555
C67_5 C72_5 1_555 1_555
C68_5 C70_5 1_555 1_555
C69_5 C70_5 1_555 1_555
C76_5 C81_5 1_555 1_555
C77_5 C80_5 1_555 1_555
C79_5 C81_5 1_555 1_555
C82_5 C100_5 1_555 1_555
C84_5 C87_5 1_555 1_555
C85_5 C87_5 1_555 1_555
C86_5 C89_5 1_555 1_555
C88_5 C89_5 1_555 1_555
C92_5 C97_5 1_555 1_555
C93_4 C95_4 1_555 1_555
C93_4 C98_5 1_555 1_555
C94_5 C96_4 1_555 1_555
C94_5 C99_5 1_555 1_555
Ag17_4 Ag19_5 1_555 1_555
Ag17_4 Ag20_5 1_555 1_555
Ag17_4 Ag21_4 1_555 1_555
Ag18_5 Ag20_5 1_555 1_555
Ag19_5 S11_4 1_555 1_555
Ag20_5 S12_5 1_555 1_555
Ag21_4 S9_4 1_555 1_555
Ag21_4 S10_5 1_555 1_555
Ag22_4 S9_4 1_555 1_555
Ag22_4 S11_4 1_555 1_555
Ag23_4 S12_5 1_555 1_555
C107_4 C111_4 1_555 1_555
C110_4 C113_4 1_555 1_555
N9_3 C121_5 1_555 1_555
C114_5 C123_4 1_555 1_555
C117_5 C122_5 1_555 1_555
C118_5 C120_5 1_555 1_555
C119_5 C120_5 1_555 1_555
C126_5 C131_5 1_555 1_555
C127_5 C130_5 1_555 1_555
C129_5 C131_5 1_555 1_555
C132_5 C150_5 1_555 1_555
C134_5 C137_5 1_555 1_555
C135_5 C137_5 1_555 1_555
C136_5 C139_5 1_555 1_555
C138_5 C139_5 1_555 1_555
C142_4 C147_4 1_555 1_555
C143_4 C145_3 1_555 1_555
C143_4 C148_5 1_555 1_555
C144_4 C146_3 1_555 1_555
C144_4 C149_4 1_555 1_555
C6_5 C8_5 1_555 1_555
C9_5 C6_5 1_555 1_555
H3_5 C9_5 1_555 1_555
N7_3 C12_5 1_555 1_555
C12_5 C8_5 1_555 1_555
H6_5 C12_5 1_555 1_555
C21_5 C9_5 1_555 1_555
H19_5 C21_5 1_555 1_555
C78_5 H100_5 1_555 1_555
H101_5 C78_5 1_555 1_555
H119_5 C90_5 1_555 1_555
N7_3 C21_5 1_555 1_555
C78_5 C90_5 1_555 1_555
Ag10_6 Ag1_8 1_555 1_555
Ag12_6 Ag1_8 1_555 1_555
Ag14_6 Ag10_6 1_555 1_555
Ag15_6 Ag10_6 1_555 1_555
S5_6 Ag10_6 1_555 1_555
S7_6 Ag9_8 1_555 1_555
C53_6 S7_6 1_555 1_555
C55_6 C56_6 1_555 1_555
N3_6 Ag15_6 1_555 1_555
C56_6 C58_6 1_555 1_555
C57_6 N3_6 1_555 1_555
H69_6 C57_6 1_555 1_555
C58_6 H70_6 1_555 1_555
C59_6 C56_6 1_555 1_555
H71_6 C59_6 1_555 1_555
C60_6 N3_6 1_555 1_555
H72_6 C60_6 1_555 1_555
C61_6 C55_6 1_555 1_555
H73_6 C61_6 1_555 1_555
N8_4 C62_6 1_555 1_555
C62_6 C58_6 1_555 1_555
H74_6 C62_6 1_555 1_555
C63_6 C55_6 1_555 1_555
H75_6 C63_6 1_555 1_555
H77_6 C65_6 1_555 1_555
C71_6 C59_6 1_555 1_555
H87_6 C71_6 1_555 1_555
H90_6 C73_6 1_555 1_555
H91_6 C73_6 1_555 1_555
C82_6 H106_6 1_555 1_555
C83_6 C82_6 1_555 1_555
H107_6 C83_6 1_555 1_555
H108_6 C83_6 1_555 1_555
C84_6 H109_6 1_555 1_555
H110_6 C84_6 1_555 1_555
C85_6 C53_6 1_555 1_555
H111_6 C85_6 1_555 1_555
H112_6 C85_6 1_555 1_555
C86_6 C53_6 1_555 1_555
H113_6 C86_6 1_555 1_555
H114_6 C86_6 1_555 1_555
C87_6 C83_6 1_555 1_555
H115_6 C87_6 1_555 1_555
C88_6 C82_6 1_555 1_555
H116_6 C88_6 1_555 1_555
H117_6 C88_6 1_555 1_555
C89_6 C84_6 1_555 1_555
H118_6 C89_6 1_555 1_555
C91_6 H120_5 1_555 1_555
H121_6 C91_6 1_555 1_555
C92_6 C91_6 1_555 1_555
H122_6 C92_6 1_555 1_555
C94_6 C91_6 1_555 1_555
H124_6 C94_6 1_555 1_555
C95_5 C92_6 1_555 1_555
H125_6 C95_5 1_555 1_555
H126_5 C95_5 1_555 1_555
H127_5 C96_5 1_555 1_555
H128_5 C96_5 1_555 1_555
C97_6 C51_6 1_555 1_555
H129_6 C97_6 1_555 1_555
H130_6 C97_6 1_555 1_555
C99_6 C51_6 1_555 1_555
H133_6 C99_6 1_555 1_555
H134_6 C99_6 1_555 1_555
C100_6 C53_6 1_555 1_555
H135_6 C100_6 1_555 1_555
H136_6 C100_6 1_555 1_555
Ag18_6 Ag1_8 1_555 1_555
Ag20_6 Ag1_8 1_555 1_555
Ag26_2 S10_6 1_555 1_555
S10_6 Ag18_6 1_555 1_555
S12_6 Ag14_6 1_555 1_555
C102_6 S12_6 1_555 1_555
C114_6 H144_6 1_555 1_555
C116_6 C104_6 1_555 1_555
H147_6 C116_6 1_555 1_555
H148_6 C116_6 1_555 1_555
H149_6 C117_6 1_555 1_555
C118_6 C114_6 1_555 1_555
H150_6 C118_6 1_555 1_555
H151_6 C118_6 1_555 1_555
C119_6 C117_6 1_555 1_555
H152_6 C119_6 1_555 1_555
H153_6 C119_6 1_555 1_555
C120_6 C116_6 1_555 1_555
H154_6 C120_6 1_555 1_555
C122_6 C114_6 1_555 1_555
H157_6 C122_6 1_555 1_555
C124_6 H160_6 1_555 1_555
H161_6 C124_6 1_555 1_555
C125_6 C102_6 1_555 1_555
H162_6 C125_6 1_555 1_555
H163_6 C125_6 1_555 1_555
C126_6 C102_6 1_555 1_555
H164_6 C126_6 1_555 1_555
H165_6 C126_6 1_555 1_555
C127_6 C102_6 1_555 1_555
H166_6 C127_6 1_555 1_555
H167_6 C127_6 1_555 1_555
C128_6 H168_6 1_555 1_555
H169_6 C128_6 1_555 1_555
C129_6 H170_6 1_555 1_555
H171_6 C129_6 1_555 1_555
C130_6 C124_6 1_555 1_555
H172_6 C130_6 1_555 1_555
C131_6 C124_6 1_555 1_555
H173_6 C131_6 1_555 1_555
C140_6 C125_6 1_555 1_555
H187_6 C140_6 1_555 1_555
C143_5 H191_5 1_555 1_555
H199_6 C148_6 1_555 1_555
H200_6 C148_6 1_555 1_555
Ag10_6 Ag12_6 1_555 1_555
Ag12_6 S7_6 1_555 1_555
Ag12_6 Ag20_6 1_555 1_555
Ag14_6 S5_6 1_555 1_555
Ag15_6 S5_6 1_555 1_555
Ag15_6 S7_6 1_555 1_555
C57_6 C61_6 1_555 1_555
C60_6 C63_6 1_555 1_555
N8_4 C71_6 1_555 1_555
C82_6 C100_6 1_555 1_555
C84_6 C87_6 1_555 1_555
C85_6 C87_6 1_555 1_555
C86_6 C89_6 1_555 1_555
C88_6 C89_6 1_555 1_555
C92_6 C97_6 1_555 1_555
C94_6 C96_5 1_555 1_555
C94_6 C99_6 1_555 1_555
Ag18_6 Ag20_6 1_555 1_555
Ag20_6 S12_6 1_555 1_555
Ag26_2 S12_6 1_555 1_555
C117_6 C122_6 1_555 1_555
C118_6 C120_6 1_555 1_555
C119_6 C120_6 1_555 1_555
C126_6 C131_6 1_555 1_555
C127_6 C130_6 1_555 1_555
C128_6 C130_6 1_555 1_555
C128_6 C140_6 1_555 1_555
C129_6 C131_6 1_555 1_555
C129_6 C140_6 1_555 1_555
C143_5 C148_6 1_555 1_555
C2_5 S4_5 1_555 1_555
C25_5 C2_5 1_555 1_555
H26_5 C25_5 1_555 1_555
H27_5 C25_5 1_555 1_555
C26_5 C2_5 1_555 1_555
H29_5 C26_5 1_555 1_555
C29_5 H34_5 1_555 1_555
H35_5 C29_5 1_555 1_555
H37_5 C31_5 1_555 1_555
C40_5 C25_5 1_555 1_555
H51_5 C40_5 1_555 1_555
Ag17_5 Ag1_9 1_555 1_555
Ag21_5 S4_5 1_555 1_555
Ag22_5 Ag17_5 1_555 1_555
S9_5 Ag17_5 1_555 1_555
S11_5 Ag9_9 1_555 1_555
C105_5 C106_6 1_555 1_555
N5_5 Ag22_5 1_555 1_555
C106_6 C108_6 1_555 1_555
C107_5 N5_5 1_555 1_555
H137_5 C107_5 1_555 1_555
C108_6 H138_6 1_555 1_555
C109_6 C106_6 1_555 1_555
H139_6 C109_6 1_555 1_555
C110_5 N5_5 1_555 1_555
H140_5 C110_5 1_555 1_555
C111_5 C105_5 1_555 1_555
H141_6 C111_5 1_555 1_555
N9_4 C112_6 1_555 1_555
C112_6 C108_6 1_555 1_555
H142_6 C112_6 1_555 1_555
C113_5 C105_5 1_555 1_555
H143_5 C113_5 1_555 1_555
H145_5 C115_5 1_555 1_555
C121_6 C109_6 1_555 1_555
H155_6 C121_6 1_555 1_555
H158_5 C123_5 1_555 1_555
H159_5 C123_5 1_555 1_555
C141_5 H188_4 1_555 1_555
H189_5 C141_5 1_555 1_555
C142_5 C141_5 1_555 1_555
H190_5 C142_5 1_555 1_555
C144_5 C141_5 1_555 1_555
H192_5 C144_5 1_555 1_555
C145_4 C142_5 1_555 1_555
H193_5 C145_4 1_555 1_555
H194_4 C145_4 1_555 1_555
H195_4 C146_4 1_555 1_555
H196_4 C146_4 1_555 1_555
C147_5 C101_5 1_555 1_555
H197_5 C147_5 1_555 1_555
H198_5 C147_5 1_555 1_555
C149_5 C101_5 1_555 1_555
H201_5 C149_5 1_555 1_555
H202_5 C149_5 1_555 1_555
C26_5 C31_5 1_555 1_555
C28_4 C40_5 1_555 1_555
C29_5 C31_5 1_555 1_555
C29_5 C40_5 1_555 1_555
Ag17_5 Ag21_5 1_555 1_555
Ag21_5 S9_5 1_555 1_555
Ag22_5 S9_5 1_555 1_555
Ag22_5 S11_5 1_555 1_555
C107_5 C111_5 1_555 1_555
C110_5 C113_5 1_555 1_555
N9_4 C121_6 1_555 1_555
C142_5 C147_5 1_555 1_555
C144_5 C146_4 1_555 1_555
C144_5 C149_5 1_555 1_555
Ag4_6 Ag1_10 1_555 1_555
C32_6 H38_5 1_555 1_555
C33_6 C32_6 1_555 1_555
H40_6 C33_6 1_555 1_555
C34_6 H41_6 1_555 1_555
H42_6 C34_6 1_555 1_555
C35_6 C3_6 1_555 1_555
H44_6 C35_6 1_555 1_555
C36_6 C3_6 1_555 1_555
H45_6 C36_6 1_555 1_555
H46_6 C36_6 1_555 1_555
C37_6 C33_6 1_555 1_555
H47_6 C37_6 1_555 1_555
C38_6 C32_6 1_555 1_555
H48_6 C38_6 1_555 1_555
H49_6 C38_6 1_555 1_555
C39_6 C34_6 1_555 1_555
H50_6 C39_6 1_555 1_555
C50_6 C3_6 1_555 1_555
H67_6 C50_6 1_555 1_555
Ag11_6 Ag1_10 1_555 1_555
Ag13_6 Ag1_10 1_555 1_555
Ag25_2 S6_6 1_555 1_555
S6_6 Ag11_6 1_555 1_555
C64_6 H76_6 1_555 1_555
C66_6 C54_6 1_555 1_555
H79_6 C66_6 1_555 1_555
H80_6 C66_6 1_555 1_555
H81_6 C67_6 1_555 1_555
C68_6 C64_6 1_555 1_555
H82_6 C68_6 1_555 1_555
H83_6 C68_6 1_555 1_555
C69_6 C67_6 1_555 1_555
H84_6 C69_6 1_555 1_555
H85_6 C69_6 1_555 1_555
C70_6 C66_6 1_555 1_555
H86_6 C70_6 1_555 1_555
C72_6 C64_6 1_555 1_555
H89_6 C72_6 1_555 1_555
C74_6 H92_6 1_555 1_555
H93_6 C74_6 1_555 1_555
H98_6 C77_6 1_555 1_555
H99_6 C77_6 1_555 1_555
C80_6 C74_6 1_555 1_555
H104_6 C80_6 1_555 1_555
C93_5 H123_5 1_555 1_555
H131_6 C98_6 1_555 1_555
H132_6 C98_6 1_555 1_555
Ag4_6 Ag13_6 1_555 1_555
C32_6 C50_6 1_555 1_555
C34_6 C37_6 1_555 1_555
C35_6 C37_6 1_555 1_555
C36_6 C39_6 1_555 1_555
C38_6 C39_6 1_555 1_555
Ag11_6 Ag13_6 1_555 1_555
C67_6 C72_6 1_555 1_555
C68_6 C70_6 1_555 1_555
C69_6 C70_6 1_555 1_555
C77_6 C80_6 1_555 1_555
C93_5 C98_6 1_555 1_555
Ag1_11 Ag2_6 1_555 1_555
Ag3_6 Ag1_11 1_555 1_555
Ag5_6 Ag1_11 1_555 1_555
Ag6_6 Ag2_6 1_555 1_555
Ag7_6 Ag2_6 1_555 1_555
Ag24_2 S2_6 1_555 1_555
Ag9_11 S3_6 1_555 1_555
S1_6 Ag2_6 1_555 1_555
S2_6 Ag3_6 1_555 1_555
C1_6 S2_6 1_555 1_555
C4_6 S1_6 1_555 1_555
C5_6 C6_6 1_555 1_555
N1_6 Ag7_6 1_555 1_555
C6_6 C8_6 1_555 1_555
C7_6 N1_6 1_555 1_555
H1_6 C7_6 1_555 1_555
C8_6 H2_6 1_555 1_555
C9_6 C6_6 1_555 1_555
H3_6 C9_6 1_555 1_555
C10_6 N1_6 1_555 1_555
H4_6 C10_6 1_555 1_555
C11_6 C5_6 1_555 1_555
H5_6 C11_6 1_555 1_555
N7_4 C12_6 1_555 1_555
C12_6 C8_6 1_555 1_555
H6_6 C12_6 1_555 1_555
C13_6 C5_6 1_555 1_555
H7_6 C13_6 1_555 1_555
C14_6 H8_5 1_555 1_555
C15_6 C4_6 1_555 1_555
H9_6 C15_6 1_555 1_555
H10_6 C15_6 1_555 1_555
C16_6 C4_6 1_555 1_555
H11_6 C16_6 1_555 1_555
H12_6 C16_6 1_555 1_555
C17_6 C15_6 1_555 1_555
H13_6 C17_6 1_555 1_555
C18_6 C14_6 1_555 1_555
H14_6 C18_6 1_555 1_555
H15_5 C18_6 1_555 1_555
C19_6 C17_6 1_555 1_555
H16_6 C19_6 1_555 1_555
H17_5 C19_6 1_555 1_555
C20_6 C16_6 1_555 1_555
H18_6 C20_6 1_555 1_555
C21_6 C9_6 1_555 1_555
H19_6 C21_6 1_555 1_555
C22_5 C14_6 1_555 1_555
H20_5 C22_5 1_555 1_555
H21_5 C22_5 1_555 1_555
C23_6 C4_6 1_555 1_555
H22_6 C23_6 1_555 1_555
H23_6 C23_6 1_555 1_555
C24_6 H24_5 1_555 1_555
H25_6 C24_6 1_555 1_555
H30_6 C27_6 1_555 1_555
H31_6 C27_6 1_555 1_555
C30_6 C24_6 1_555 1_555
H36_5 C30_6 1_555 1_555
C41_6 H52_5 1_555 1_555
H53_6 C41_6 1_555 1_555
C42_6 C41_6 1_555 1_555
H54_6 C42_6 1_555 1_555
C43_5 H55_5 1_555 1_555
C44_6 C41_6 1_555 1_555
H56_6 C44_6 1_555 1_555
C45_5 C42_6 1_555 1_555
H57_6 C45_5 1_555 1_555
H58_5 C45_5 1_555 1_555
C46_5 C43_5 1_555 1_555
H59_5 C46_5 1_555 1_555
H60_5 C46_5 1_555 1_555
C47_6 C1_6 1_555 1_555
H61_6 C47_6 1_555 1_555
H62_6 C47_6 1_555 1_555
C48_6 C1_6 1_555 1_555
H63_6 C48_6 1_555 1_555
H64_6 C48_6 1_555 1_555
C49_6 C1_6 1_555 1_555
H65_6 C49_6 1_555 1_555
H66_6 C49_6 1_555 1_555
S8_6 Ag6_6 1_555 1_555
C52_6 S8_6 1_555 1_555
C75_6 C52_6 1_555 1_555
H94_6 C75_6 1_555 1_555
H95_6 C75_6 1_555 1_555
C76_6 C52_6 1_555 1_555
H97_6 C76_6 1_555 1_555
C79_6 H102_6 1_555 1_555
H103_6 C79_6 1_555 1_555
H105_6 C81_6 1_555 1_555
C90_6 C75_6 1_555 1_555
H119_6 C90_6 1_555 1_555
Ag19_6 Ag1_11 1_555 1_555
C132_6 H174_6 1_555 1_555
C133_6 C132_6 1_555 1_555
H176_6 C133_6 1_555 1_555
C134_6 H177_6 1_555 1_555
H178_6 C134_6 1_555 1_555
C135_6 C103_6 1_555 1_555
H180_6 C135_6 1_555 1_555
C136_6 C103_6 1_555 1_555
H181_6 C136_6 1_555 1_555
H182_6 C136_6 1_555 1_555
C137_6 C133_6 1_555 1_555
H183_6 C137_6 1_555 1_555
C138_6 C132_6 1_555 1_555
H184_6 C138_6 1_555 1_555
H185_6 C138_6 1_555 1_555
C139_6 C134_6 1_555 1_555
H186_6 C139_6 1_555 1_555
C150_6 C103_6 1_555 1_555
H203_6 C150_6 1_555 1_555
Ag2_6 Ag5_6 1_555 1_555
Ag2_6 Ag19_6 1_555 1_555
Ag3_6 Ag5_6 1_555 1_555
Ag5_6 Ag19_6 1_555 1_555
Ag6_6 S1_6 1_555 1_555
Ag6_6 S2_6 1_555 1_555
Ag7_6 S1_6 1_555 1_555
Ag7_6 S3_6 1_555 1_555
C7_6 C11_6 1_555 1_555
C10_6 C13_6 1_555 1_555
N7_4 C21_6 1_555 1_555
C14_6 C23_6 1_555 1_555
C17_6 C22_5 1_555 1_555
C18_6 C20_6 1_555 1_555
C19_6 C20_6 1_555 1_555
C27_6 C30_6 1_555 1_555
C42_6 C47_6 1_555 1_555
C43_5 C45_5 1_555 1_555
C43_5 C48_6 1_555 1_555
C44_6 C46_5 1_555 1_555
C44_6 C49_6 1_555 1_555
C76_6 C81_6 1_555 1_555
C78_6 C90_6 1_555 1_555
C79_6 C81_6 1_555 1_555
C79_6 C90_6 1_555 1_555
C132_6 C150_6 1_555 1_555
C134_6 C137_6 1_555 1_555
C135_6 C137_6 1_555 1_555
C136_6 C139_6 1_555 1_555
C138_6 C139_6 1_555 1_555
C28_5 H32_6 1_555 1_555
H33_6 C28_5 1_555 1_555
H20_6 C22_6 1_555 1_555
H21_6 C22_6 1_555 1_555
C43_6 H55_6 1_555 1_555
H58_6 C45_6 1_555 1_555
C46_6 C43_6 1_555 1_555
H59_6 C46_6 1_555 1_555
H60_6 C46_6 1_555 1_555
C93_6 H123_6 1_555 1_555
H126_6 C95_6 1_555 1_555
C96_6 C93_6 1_555 1_555
H127_6 C96_6 1_555 1_555
H128_6 C96_6 1_555 1_555
C143_6 H191_6 1_555 1_555
H194_5 C145_5 1_555 1_555
C146_5 C143_6 1_555 1_555
H195_5 C146_5 1_555 1_555
H196_5 C146_5 1_555 1_555
C43_6 C45_6 1_555 1_555
C93_6 C95_6 1_555 1_555
C143_6 C145_5 1_555 1_555
C2_6 S4_6 1_555 1_555
C25_6 C2_6 1_555 1_555
H26_6 C25_6 1_555 1_555
H27_6 C25_6 1_555 1_555
C26_6 C2_6 1_555 1_555
H29_6 C26_6 1_555 1_555
C29_6 H34_6 1_555 1_555
H35_6 C29_6 1_555 1_555
H37_6 C31_6 1_555 1_555
C40_6 C25_6 1_555 1_555
H51_6 C40_6 1_555 1_555
Ag17_6 Ag1_12 1_555 1_555
Ag21_6 S4_6 1_555 1_555
Ag22_6 Ag17_6 1_555 1_555
S9_6 Ag17_6 1_555 1_555
S11_6 Ag9_12 1_555 1_555
N5_6 Ag22_6 1_555 1_555
C107_6 N5_6 1_555 1_555
H137_6 C107_6 1_555 1_555
C110_6 N5_6 1_555 1_555
H140_6 C110_6 1_555 1_555
C111_6 C105_6 1_555 1_555
C113_6 C105_6 1_555 1_555
H143_6 C113_6 1_555 1_555
H145_6 C115_6 1_555 1_555
H158_6 C123_6 1_555 1_555
H159_6 C123_6 1_555 1_555
C141_6 H188_6 1_555 1_555
H189_6 C141_6 1_555 1_555
C142_6 C141_6 1_555 1_555
H190_6 C142_6 1_555 1_555
C144_6 C141_6 1_555 1_555
H192_6 C144_6 1_555 1_555
C145_6 C142_6 1_555 1_555
H193_6 C145_6 1_555 1_555
H194_6 C145_6 1_555 1_555
H195_6 C146_6 1_555 1_555
H196_6 C146_6 1_555 1_555
C147_6 C101_6 1_555 1_555
H197_6 C147_6 1_555 1_555
H198_6 C147_6 1_555 1_555
C149_6 C101_6 1_555 1_555
H201_6 C149_6 1_555 1_555
H202_6 C149_6 1_555 1_555
C26_6 C31_6 1_555 1_555
C28_6 C40_6 1_555 1_555
C29_6 C31_6 1_555 1_555
C29_6 C40_6 1_555 1_555
Ag17_6 Ag21_6 1_555 1_555
Ag21_6 S9_6 1_555 1_555
Ag22_6 S9_6 1_555 1_555
Ag22_6 S11_6 1_555 1_555
C107_6 C111_6 1_555 1_555
C110_6 C113_6 1_555 1_555
C142_6 C147_6 1_555 1_555
C144_6 C146_6 1_555 1_555
C144_6 C149_6 1_555 1_555
Sb1 F1 1_555 1_555
F2 Sb1 1_555 1_555
F3 Sb1 1_555 1_555
F4 Sb1 1_555 1_555
F5 Sb1 1_555 1_555
F6 Sb1 1_555 1_555
Sb1_2 F1_2 1_555 1_555
F2_2 Sb1_2 1_555 1_555
F3_2 Sb1_2 1_555 1_555
F5_2 Sb1_2 1_555 1_555
F6_2 Sb1_2 1_555 1_555
Sb1_3 F1_3 1_555 1_555
F2_3 Sb1_3 1_555 1_555
F3_3 Sb1_3 1_555 1_555
F5_3 Sb1_3 1_555 1_555
F6_3 Sb1_3 1_555 1_555
Sb1_4 F1_4 1_555 1_555
F2_4 Sb1_4 1_555 1_555
F3_4 Sb1_4 1_555 1_555
F4_4 Sb1_4 1_555 1_555
F5_4 Sb1_4 1_555 1_555
F6_4 Sb1_4 1_555 1_555
Sb1_5 F1_5 1_555 1_555
F2_5 Sb1_5 1_555 1_555
F3_5 Sb1_5 1_555 1_555
F5_5 Sb1_5 1_555 1_555
F6_5 Sb1_5 1_555 1_555
Sb1_6 F1_6 1_555 1_555
F2_6 Sb1_6 1_555 1_555
F3_6 Sb1_6 1_555 1_555
F5_6 Sb1_6 1_555 1_555
F6_6 Sb1_6 1_555 1_555
Sb1_7 F1_7 1_555 1_555
F2_7 Sb1_7 1_555 1_555
F3_7 Sb1_7 1_555 1_555
F4_7 Sb1_7 1_555 1_555
F5_7 Sb1_7 1_555 1_555
F6_7 Sb1_7 1_555 1_555
Sb1_8 F1_8 1_555 1_555
F2_8 Sb1_8 1_555 1_555
F3_8 Sb1_8 1_555 1_555
F4_8 Sb1_8 1_555 1_555
F5_8 Sb1_8 1_555 1_555
F6_8 Sb1_8 1_555 1_555
Sb1_9 F1_9 1_555 1_555
F2_9 Sb1_9 1_555 1_555
F3_9 Sb1_9 1_555 1_555
F4_9 Sb1_9 1_555 1_555
F5_9 Sb1_9 1_555 1_555
F6_9 Sb1_9 1_555 1_555
Sb1_10 F1_10 1_555 1_555
F2_10 Sb1_10 1_555 1_555
F3_10 Sb1_10 1_555 1_555
F4_10 Sb1_10 1_555 1_555
F5_10 Sb1_10 1_555 1_555
F6_10 Sb1_10 1_555 1_555
Sb1_11 F1_11 1_555 1_555
F2_11 Sb1_11 1_555 1_555
F3_11 Sb1_11 1_555 1_555
F4_11 Sb1_11 1_555 1_555
F5_11 Sb1_11 1_555 1_555
F6_11 Sb1_11 1_555 1_555
Sb1_12 F1_12 1_555 1_555
F2_12 Sb1_12 1_555 1_555
F3_12 Sb1_12 1_555 1_555
F4_12 Sb1_12 1_555 1_555
F5_12 Sb1_12 1_555 1_555
F6_12 Sb1_12 1_555 1_555
Sb1_13 F1_13 1_555 1_555
F2_13 Sb1_13 1_555 1_555
F3_13 Sb1_13 1_555 1_555
F4_13 Sb1_13 1_555 1_555
F5_13 Sb1_13 1_555 1_555
F6_13 Sb1_13 1_555 1_555
Sb1_14 F1_14 1_555 1_555
F2_14 Sb1_14 1_555 1_555
F3_14 Sb1_14 1_555 1_555
F4_14 Sb1_14 1_555 1_555
F5_14 Sb1_14 1_555 1_555
F6_14 Sb1_14 1_555 1_555
Sb1_15 F1_15 1_555 1_555
F2_15 Sb1_15 1_555 1_555
F3_15 Sb1_15 1_555 1_555
F4_15 Sb1_15 1_555 1_555
F5_15 Sb1_15 1_555 1_555
F6_15 Sb1_15 1_555 1_555
Sb1_16 F1_16 1_555 1_555
F2_16 Sb1_16 1_555 1_555
F3_16 Sb1_16 1_555 1_555
F4_16 Sb1_16 1_555 1_555
F5_16 Sb1_16 1_555 1_555
F6_16 Sb1_16 1_555 1_555
Sb1_17 F1_17 1_555 1_555
F2_17 Sb1_17 1_555 1_555
F3_17 Sb1_17 1_555 1_555
F4_17 Sb1_17 1_555 1_555
F5_17 Sb1_17 1_555 1_555
F6_17 Sb1_17 1_555 1_555
Sb1_18 F1_18 1_555 1_555
F2_18 Sb1_18 1_555 1_555
F3_18 Sb1_18 1_555 1_555
F4_18 Sb1_18 1_555 1_555
F5_18 Sb1_18 1_555 1_555
F6_18 Sb1_18 1_555 1_555

#END
