
###############################################################################
#
# This file contains modified crystal structure data generated from the
# MOF subset of the Cambridge Structural Database (CSD) v543 
# hosted by the Cambridge Crystallographic Data Centre (CCDC).
#
# This work is licensed under the Creative Commons
# Attribution-NonCommercial-ShareAlike 4.0 International License.
# To view a copy of this license, visit
# http://creativecommons.org/licenses/by-nc-sa/4.0/
# or send a letter to
# Creative Commons, PO Box 1866, Mountain View, CA 94042, USA.
#
# CIF created using the CSD Python API on 29 September 2022
# The structure has been converted into the P1 space group
# The structure has a 3D framework
# The original CSD entry PEQKOP is in the trigonal crystal system
# The framework has been calculated to contain at least 10.0% void space
# The void calculation uses a probe of radius 1.32A, grid spacing 0.4
# The framework is charged, counterions have been retained in the structure
#
###############################################################################

data_PEQKOP
_chemical_formula_moiety         '(C340 H432 Ag58 F24 N12 S24 Sb4)n'
_symmetry_cell_setting           triclinic
_symmetry_space_group_name_H-M   'P 1'
_symmetry_Int_Tables_number      1
_space_group_name_Hall           'P 1'
loop_
_symmetry_equiv_pos_site_id
_symmetry_equiv_pos_as_xyz
1 x,y,z
_cell_length_a                   18.5461(2)
_cell_length_b                   18.5461(2)
_cell_length_c                   35.1338(6)
_cell_angle_alpha                90
_cell_angle_beta                 90
_cell_angle_gamma                120
_cell_volume                     10465.5
loop_
_atom_site_label
_atom_site_type_symbol
_atom_site_fract_x
_atom_site_fract_y
_atom_site_fract_z
Sb1 Sb 0.333333 0.666667 0.0937(3)
F1 F 0.411(3) 0.757(3) 0.0691(14)
F2 F 0.345(3) 0.735(3) 0.1327(11)
F3 F 0.243(3) 0.654(4) 0.0691(14)
F4 F 0.265(3) 0.610(4) 0.1327(11)
F5 F 0.346(4) 0.589(3) 0.0691(14)
F6 F 0.390(4) 0.655(3) 0.1327(11)
Sb1_2 Sb 0.666667 0.333333 0.5937(3)
F1_2 F 0.757(3) 0.411(3) 0.5691(14)
F2_2 F 0.735(3) 0.345(3) 0.6327(11)
F3_2 F 0.654(4) 0.243(3) 0.5691(14)
F4_2 F 0.610(4) 0.265(3) 0.6327(11)
F5_2 F 0.589(3) 0.346(4) 0.5691(14)
F6_2 F 0.655(3) 0.390(4) 0.6327(11)
Sb2 Sb 0.333333 0.666667 0.3463(2)
F7 F 0.313(2) 0.5707(18) 0.3252(10)
F8 F 0.413(2) 0.655(3) 0.3730(11)
F9 F 0.4293(18) 0.7423(27) 0.3252(10)
F10 F 0.345(3) 0.758(4) 0.3730(11)
F11 F 0.2577(27) 0.687(2) 0.3252(10)
F12 F 0.242(4) 0.587(2) 0.3730(11)
Sb2_2 Sb 0.666667 0.333333 0.8463(2)
F7_2 F 0.5707(18) 0.313(2) 0.8252(10)
F8_2 F 0.655(3) 0.413(2) 0.8730(11)
F9_2 F 0.7423(27) 0.4293(18) 0.8252(10)
F10_2 F 0.758(4) 0.345(3) 0.8730(11)
F11_2 F 0.687(2) 0.2577(27) 0.8252(10)
F12_2 F 0.587(2) 0.242(4) 0.8730(11)
Ag4 Ag 0.000000 0.000000 0.34648(13)
Ag6 Ag -0.000000 -0.000000 0.47768(13)
C34 C 0.0773(18) 0.2956(16) 0.6829(8)
H49 H 0.112813 0.346792 0.669171
H50 H 0.093667 0.303905 0.709440
C35 C 0.0860(12) 0.2243(19) 0.6663(7)
H51 H 0.144706 0.239458 0.668070
C36 C 0.0603(12) 0.2076(18) 0.6246(6)
H52 H 0.065152 0.160783 0.615477
H53 H 0.096639 0.255972 0.609374
C39 C 0.0313(19) 0.1402(19) 0.6916(7)
H57 H 0.046922 0.149872 0.718246
H58 H 0.037747 0.094432 0.682359
Ag13 Ag 0.15951(14) 0.03581(20) 0.46027(9)
Ag14 Ag 0.0966(2) 0.0252(3) 0.54179(10)
C67 C 0.3609(8) 0.0982(13) 0.4491(5)
C68 C 0.3591(11) 0.1608(17) 0.4783(6)
H88 H 0.314175 0.171288 0.472210
H89 H 0.350060 0.137802 0.503824
C69 C 0.4427(13) 0.2420(20) 0.4763(7)
H90 H 0.441410 0.281628 0.494380
C70 C 0.5187(13) 0.2324(22) 0.4857(7)
H91 H 0.513794 0.209982 0.511161
H92 H 0.569682 0.285840 0.484315
C71 C 0.5192(8) 0.1718(14) 0.4557(8)
H93 H 0.565132 0.161732 0.461419
C72 C 0.4359(9) 0.0888(13) 0.4599(7)
H94 H 0.437090 0.047125 0.443639
H95 H 0.429876 0.069663 0.485968
C73 C 0.5287(12) 0.2034(20) 0.4147(7)
H96 H 0.527718 0.162419 0.397172
H97 H 0.581278 0.254727 0.411669
C74 C 0.4551(13) 0.2186(21) 0.4060(6)
H98 H 0.461722 0.242569 0.380477
C75 C 0.4552(14) 0.2791(20) 0.4359(8)
H99 H 0.410874 0.290821 0.430250
H100 H 0.507664 0.331114 0.434750
C76 C 0.3721(12) 0.1352(21) 0.4083(5)
H101 H 0.372136 0.096292 0.389861
H102 H 0.326104 0.144171 0.402413
C97 C 0.311(2) 0.0129(25) 0.3238(9)
H133 H 0.291730 0.050434 0.324064
C98 C 0.356(2) 0.0071(28) 0.2936(8)
H134 H 0.366953 0.041352 0.272584
C104 C 0.4793(19) 0.0263(24) 0.2368(8)
H138 H 0.475902 0.073554 0.242240
C105 C 0.5301(17) 0.0277(24) 0.2074(8)
H139 H 0.560807 0.076038 0.193161
C111 C 0.636(4) 0.015(5) 0.1506(12)
H143 H 0.654196 0.065322 0.163420
C112 C 0.676(4) 0.014(5) 0.1175(11)
H144 H 0.720818 0.063732 0.108164
Ag17 Ag 0.13226(25) 0.16113(17) 0.48973(10)
Ag18 Ag 0.08271(20) 0.10386(14) 0.41499(9)
Ag19 Ag 0.04800(24) 0.24055(17) 0.39651(10)
Ag22 Ag 0.2421(3) 0.1969(2) 0.55542(12)
Ag23 Ag 0.0461(3) 0.2543(2) 0.52303(11)
S9 S 0.1944(11) 0.2855(7) 0.5301(3)
S10 S 0.0075(7) 0.2744(5) 0.4568(3)
S11 S 0.0742(8) 0.1559(6) 0.3504(2)
S12 S 0.2322(10) 0.0614(7) 0.5698(3)
N5 N 0.0416(26) 0.3376(17) 0.3530(8)
N6 N 0.060(4) 0.711(2) 0.0987(10)
C113 C 0.266(3) 0.376(2) 0.5004(9)
C114 C 0.232(4) 0.361(2) 0.4591(11)
H145 H 0.227520 0.309895 0.449362
H146 H 0.177169 0.355134 0.458848
C115 C 0.292(4) 0.435(3) 0.4335(8)
H147 H 0.270863 0.425449 0.407317
C116 C 0.381(4) 0.449(3) 0.4344(9)
H148 H 0.417522 0.497404 0.419483
H149 H 0.380902 0.400869 0.423018
C117 C 0.413(3) 0.460(2) 0.4757(11)
H150 H 0.468944 0.466199 0.475898
C118 C 0.3543(28) 0.386(2) 0.5011(10)
H151 H 0.375069 0.395178 0.526973
H152 H 0.351169 0.335172 0.491768
C119 C 0.271(4) 0.457(3) 0.5157(10)
H153 H 0.215419 0.450588 0.515343
H154 H 0.290300 0.466444 0.541799
C120 C 0.331(3) 0.532(2) 0.4906(11)
H155 H 0.333498 0.582609 0.500311
C121 C 0.300(4) 0.517(3) 0.4488(11)
H156 H 0.246082 0.514079 0.447345
H157 H 0.338800 0.563298 0.433209
C122 C 0.418(4) 0.541(2) 0.4900(12)
H158 H 0.454484 0.587128 0.473445
H159 H 0.441872 0.553977 0.515465
C133 C 0.178(3) 0.226(2) 0.3320(10)
C134 C 0.1999(25) 0.310(2) 0.3120(11)
H175 H 0.160723 0.297868 0.291228
H176 H 0.192694 0.345368 0.330010
C135 C 0.2876(27) 0.3546(18) 0.2966(10)
H177 H 0.300331 0.407453 0.284823
C136 C 0.294(4) 0.298(3) 0.2672(12)
H178 H 0.349211 0.324774 0.256591
H179 H 0.254926 0.288591 0.246685
C137 C 0.274(3) 0.213(2) 0.2836(9)
H180 H 0.275697 0.176742 0.263794
C138 C 0.188(4) 0.174(2) 0.3016(12)
H181 H 0.147425 0.163332 0.281733
H182 H 0.174805 0.121011 0.312609
C139 C 0.242(3) 0.242(2) 0.3633(7)
H183 H 0.229842 0.189157 0.374631
H184 H 0.238163 0.276096 0.383143
C140 C 0.332(3) 0.286(2) 0.3472(9)
H185 H 0.372686 0.296024 0.367390
C141 C 0.3359(25) 0.228(2) 0.3154(12)
H186 H 0.391990 0.254332 0.304871
H187 H 0.323997 0.175577 0.326607
C142 C 0.3516(26) 0.3696(17) 0.3279(12)
H188 H 0.350962 0.406986 0.346923
H189 H 0.407332 0.395783 0.316912
C143 C 0.2187(17) 0.0306(12) 0.6208(5)
C144 C 0.3009(25) 0.0405(19) 0.6365(7)
H190 H 0.345261 0.097853 0.634050
H191 H 0.316470 0.005429 0.622305
C145 C 0.2863(26) 0.014(2) 0.6790(7)
H192 H 0.338553 0.020232 0.689116
C149 C 0.1944(19) 0.0873(14) 0.6431(6)
H198 H 0.237029 0.145189 0.639886
H199 H 0.142251 0.080236 0.633472
C150 C 0.1856(22) 0.0635(15) 0.6851(6)
H200 H 0.172603 0.101369 0.699062
C152 C 0.2640(28) 0.0700(19) 0.7026(6)
H203 H 0.253556 0.051292 0.728870
H204 H 0.309107 0.127206 0.702078
C155 C 0.0492(27) 0.4342(18) 0.2941(8)
C156 C 0.1025(26) 0.4685(16) 0.3251(9)
H207 H 0.141890 0.524907 0.324918
C157 C 0.0978(27) 0.4208(18) 0.3563(8)
H208 H 0.130727 0.443703 0.377838
C158 C 0.1166(23) 0.5551(16) 0.2498(7)
H209 H 0.164855 0.572691 0.264010
C159 C 0.0458(23) 0.4793(15) 0.2580(7)
C162 C 0.0429(24) 0.5781(16) 0.1992(7)
C163 C 0.1151(24) 0.6045(14) 0.2204(8)
H212 H 0.162372 0.655114 0.214930
C164 C 0.135(4) 0.720(2) 0.1088(10)
H213 H 0.185352 0.752365 0.096162
C165 C 0.124(4) 0.672(2) 0.1413(10)
H214 H 0.171967 0.671807 0.148563
C166 C 0.057(5) 0.626(3) 0.1651(12)
Ag24 Ag 0.0452(2) 0.8031(2) 0.05542(12)
N7 N 0.349(3) 0.289(2) 0.5987(10)
S4 S 0.1708(7) 0.9386(7) 0.0698(3)
C31 C 0.1881(12) 0.9694(12) 0.1208(5)
C32 C 0.2604(16) 0.9595(19) 0.1365(7)
H46 H 0.247408 0.902147 0.134050
H47 H 0.311041 0.994571 0.122305
C33 C 0.2723(17) 0.986(2) 0.1790(7)
H48 H 0.318321 0.979768 0.189116
C37 C 0.1071(13) 0.9127(14) 0.1431(6)
H54 H 0.091840 0.854811 0.139886
H55 H 0.062015 0.919764 0.133472
C38 C 0.1221(16) 0.9365(15) 0.1851(6)
H56 H 0.071234 0.898631 0.199062
C40 C 0.194(2) 0.9300(19) 0.2026(6)
H59 H 0.202264 0.948708 0.228870
H60 H 0.181901 0.872794 0.202078
Ag21 Ag 0.0714(2) 0.9748(3) 0.04179(10)
H161 H 0.212258 0.862198 0.003824
H163 H 0.303812 0.790018 0.011161
Ag1 Ag 0.97113(18) 0.83887(17) 0.98973(10)
Ag2 Ag 0.97885(14) 0.89614(14) 0.91499(9)
Ag3 Ag 0.80745(17) 0.75945(17) 0.89651(10)
Ag4_2 Ag 1.000000 1.000000 0.84648(13)
Ag5 Ag 0.84049(14) 0.87630(14) 0.96027(9)
Ag6_2 Ag 1.000000 1.000000 0.97768(13)
S2 S 0.7331(5) 0.7256(5) 0.9568(3)
S3 S 0.9183(6) 0.8441(6) 0.8504(2)
N1 N 0.704(2) 0.6624(17) 0.8530(8)
C2 C 0.871(3) 0.639(2) 0.9591(11)
H1 H 0.917625 0.690105 0.949362
H2 H 0.822035 0.644866 0.958848
C3 C 0.857(3) 0.565(3) 0.9335(8)
H3 H 0.845414 0.574551 0.907317
C4 C 0.932(3) 0.551(3) 0.9344(9)
H4 H 0.920118 0.502596 0.919483
H5 H 0.980033 0.599131 0.923018
C5 C 0.953(2) 0.540(2) 0.9757(11)
C8 C 0.799(2) 0.468(2) 0.9906(11)
C9 C 0.783(2) 0.483(3) 0.9488(11)
H12 H 0.732003 0.485921 0.947345
H13 H 0.775502 0.436702 0.933209
C10 C 0.877(3) 0.459(2) 0.9900(12)
H14 H 0.867356 0.412872 0.973445
C11 C 0.6391(8) 0.7373(10) 0.9491(5)
C12 C 0.6409(11) 0.8017(13) 0.9783(6)
H16 H 0.685825 0.857113 0.972210
C13 C 0.5573(13) 0.7993(15) 0.9763(7)
H18 H 0.558590 0.840218 0.994380
C14 C 0.4813(13) 0.7137(18) 0.9857(7)
H20 H 0.430318 0.716158 0.984315
C15 C 0.4808(8) 0.6526(11) 0.9557(8)
H21 H 0.434868 0.596600 0.961419
C16 C 0.5641(9) 0.6529(10) 0.9599(7)
H22 H 0.562910 0.610035 0.943639
H23 H 0.570124 0.639787 0.985968
C17 C 0.4713(12) 0.6747(16) 0.9147(7)
H24 H 0.472282 0.634701 0.897172
H25 H 0.418722 0.673449 0.911669
C18 C 0.5449(13) 0.7635(17) 0.9060(6)
H26 H 0.538278 0.780847 0.880477
C19 C 0.5448(14) 0.8239(14) 0.9359(8)
H27 H 0.589126 0.879947 0.930250
H28 H 0.492336 0.823450 0.934750
C20 C 0.6279(12) 0.7631(17) 0.9083(5)
H29 H 0.627864 0.724156 0.889861
H30 H 0.673896 0.818067 0.902413
C21 C 0.952(2) 0.774(2) 0.8320(10)
C22 C 0.8899(15) 0.690(2) 0.8120(11)
H31 H 0.862855 0.702132 0.791228
H32 H 0.847326 0.654632 0.830010
C23 C 0.933(2) 0.6454(18) 0.7966(10)
H33 H 0.892878 0.592547 0.784823
C24 C 0.996(3) 0.702(3) 0.7672(12)
H35 H 0.966335 0.711409 0.746685
H37 H 0.984093 0.836668 0.781733
C27 C 1.000(2) 0.758(2) 0.8633(7)
H40 H 0.962067 0.723904 0.883143
C30 C 0.982(2) 0.6304(17) 0.8279(12)
H44 H 0.943976 0.593014 0.846923
C41 C 0.689(2) 0.7019(15) 0.8238(9)
H61 H 0.708270 0.758704 0.824064
C42 C 0.644(2) 0.6511(19) 0.7936(8)
H62 H 0.633047 0.674399 0.772584
C43 C 0.615(2) 0.5658(18) 0.7941(8)
C44 C 0.634(2) 0.5315(16) 0.8251(9)
H63 H 0.616983 0.475093 0.824918
C45 C 0.677(2) 0.5792(18) 0.8563(8)
H64 H 0.687024 0.556297 0.877838
C46 C 0.5615(16) 0.4449(16) 0.7498(7)
H65 H 0.592164 0.427309 0.764010
C47 C 0.5665(17) 0.5207(15) 0.7580(7)
C48 C 0.5207(19) 0.5470(14) 0.7368(8)
H66 H 0.524098 0.597652 0.742240
C49 C 0.4699(17) 0.4976(17) 0.7074(8)
H67 H 0.439193 0.515231 0.693161
C50 C 0.4648(18) 0.4219(16) 0.6992(7)
C51 C 0.5106(19) 0.3955(14) 0.7204(8)
H68 H 0.507258 0.344886 0.714930
C52 C 0.415(3) 0.280(2) 0.6088(10)
H69 H 0.432987 0.247635 0.596162
C53 C 0.452(4) 0.328(2) 0.6413(10)
H70 H 0.500160 0.328193 0.648563
C54 C 0.431(4) 0.374(3) 0.6651(12)
C55 C 0.364(4) 0.379(3) 0.6506(12)
H71 H 0.345804 0.411126 0.663420
C56 C 0.324(4) 0.338(3) 0.6175(11)
H72 H 0.279182 0.342914 0.608164
H78 H 0.531056 0.997255 0.975898
H80 H 0.648831 0.984003 0.991768
H106 H 0.650789 0.975563 0.756591
C81 C 0.726(3) 0.939(2) 0.7836(9)
H108 H 0.724303 0.901045 0.763794
C82 C 0.812(4) 0.986(3) 0.8016(12)
H110 H 0.825195 0.946206 0.812609
C83 C 0.758(3) 1.000(2) 0.8633(7)
H111 H 0.770158 0.959315 0.874631
C84 C 0.668(3) 0.954(2) 0.8472(9)
H113 H 0.627314 0.923338 0.867390
C85 C 0.6641(25) 0.8921(15) 0.8154(12)
H114 H 0.608010 0.862342 0.804871
H115 H 0.676003 0.851580 0.826607
H117 H 0.592668 0.988451 0.816912
Ag4_3 Ag -0.000000 1.000000 0.34648(13)
Ag6_3 Ag 0.000000 1.000000 0.47768(13)
Ag10 Ag 0.02887(18) 0.86774(25) 0.48973(10)
Ag11 Ag 0.02115(14) 0.91729(20) 0.41499(9)
Ag12 Ag 0.19255(17) 0.95200(24) 0.39651(10)
Ag16 Ag 0.2082(2) 0.9539(3) 0.52303(11)
S5 S 0.0911(8) 0.8056(11) 0.5301(3)
S6 S 0.2669(5) 0.9925(7) 0.4568(3)
S7 S 0.0817(6) 0.9258(8) 0.3504(2)
N3 N 0.296(2) 0.9584(26) 0.3530(8)
N4 N 0.651(3) 0.940(4) 0.0987(10)
C57 C 0.110(2) 0.734(3) 0.5004(9)
C58 C 0.129(3) 0.768(4) 0.4591(11)
H73 H 0.082375 0.772480 0.449362
H74 H 0.177965 0.822831 0.458848
C59 C 0.143(3) 0.708(4) 0.4335(8)
H75 H 0.154586 0.729137 0.407317
C60 C 0.068(3) 0.619(4) 0.4344(9)
H76 H 0.079882 0.582478 0.419483
H77 H 0.019967 0.619098 0.423018
C61 C 0.047(2) 0.587(3) 0.4757(11)
C62 C 0.0317(19) 0.6457(28) 0.5011(10)
H79 H 0.020109 0.624931 0.526973
C63 C 0.186(2) 0.729(4) 0.5157(10)
H81 H 0.235169 0.784581 0.515343
H82 H 0.176144 0.709700 0.541799
C64 C 0.201(2) 0.669(3) 0.4906(11)
H83 H 0.249111 0.666502 0.500311
C65 C 0.217(2) 0.700(4) 0.4488(11)
H84 H 0.267997 0.753918 0.447345
H85 H 0.224498 0.661200 0.433209
C66 C 0.123(3) 0.582(4) 0.4900(12)
H86 H 0.132644 0.545516 0.473445
H87 H 0.112105 0.558128 0.515465
C77 C 0.048(2) 0.822(3) 0.3320(10)
C78 C 0.1101(15) 0.8001(25) 0.3120(11)
H103 H 0.137145 0.839277 0.291228
H104 H 0.152674 0.807306 0.330010
C79 C 0.067(2) 0.7124(27) 0.2966(10)
H105 H 0.107122 0.699669 0.284823
C80 C 0.004(3) 0.706(4) 0.2672(12)
H107 H 0.033665 0.745074 0.246685
H109 H 0.015907 0.852575 0.281733
C83_2 C 0.000(2) 0.758(3) 0.3633(7)
H112 H 0.037933 0.761837 0.383143
C86 C 0.018(2) 0.6484(26) 0.3279(12)
H116 H 0.056024 0.649038 0.346923
C99 C 0.385(2) 0.9508(27) 0.2941(8)
C100 C 0.366(2) 0.8975(26) 0.3251(9)
H135 H 0.383017 0.858110 0.324918
C101 C 0.323(2) 0.9022(27) 0.3563(8)
H136 H 0.312976 0.869273 0.377838
C102 C 0.4385(16) 0.8834(23) 0.2498(7)
H137 H 0.407836 0.835145 0.264010
C103 C 0.4335(17) 0.9542(23) 0.2580(7)
C106 C 0.5352(18) 0.9571(24) 0.1992(7)
C107 C 0.4894(19) 0.8849(24) 0.2204(8)
H140 H 0.492742 0.837628 0.214930
C108 C 0.585(3) 0.865(4) 0.1088(10)
H141 H 0.567013 0.814648 0.096162
C109 C 0.548(4) 0.876(4) 0.1413(10)
H142 H 0.499840 0.828033 0.148563
C110 C 0.569(4) 0.943(5) 0.1651(12)
C146 C 0.2183(24) 0.9227(18) 0.6829(8)
H193 H 0.233979 0.887187 0.669171
H194 H 0.210238 0.906333 0.709440
C147 C 0.1383(22) 0.9140(12) 0.6663(7)
H195 H 0.094752 0.855294 0.668070
C148 C 0.1473(22) 0.9397(12) 0.6246(6)
H196 H 0.095631 0.934848 0.615477
H197 H 0.159333 0.903361 0.609374
C151 C 0.1089(27) 0.9687(19) 0.6916(7)
H201 H 0.102950 0.953078 0.718246
H202 H 0.056685 0.962253 0.682359
Ag26 Ag 0.7579(3) 0.9548(2) 0.05542(12)
Ag7 Ag 0.9034(2) 0.9286(2) 0.04179(10)
Ag9 Ag 0.7918(2) 0.7457(2) 0.02303(11)
S1 S 0.9089(8) 0.7145(7) 0.0301(3)
C1 C 0.890(2) 0.624(2) 0.0004(9)
C6 C 0.9683(19) 0.614(2) 0.0011(10)
H7 H 0.979891 0.604822 0.026973
C7 C 0.814(2) 0.543(3) 0.0157(10)
H9 H 0.764831 0.549412 0.015343
H10 H 0.823856 0.533556 0.041799
H11 H 0.750889 0.417391 0.000311
H15 H 0.887895 0.446023 0.015465
H17 H 0.649940 0.787742 0.003824
H19 H 0.486206 0.696188 0.011161
S8 S 0.7678(10) 0.8292(7) 0.0698(3)
C87 C 0.7813(17) 0.8119(12) 0.1208(5)
C88 C 0.6991(25) 0.7396(16) 0.1365(7)
H118 H 0.654739 0.752592 0.134050
H119 H 0.683530 0.688959 0.122305
C89 C 0.7137(26) 0.7277(17) 0.1790(7)
H120 H 0.661447 0.681679 0.189116
C90 C 0.7817(24) 0.7044(16) 0.1829(8)
H121 H 0.766021 0.653208 0.169171
H122 H 0.789762 0.696095 0.209440
C91 C 0.8617(22) 0.7757(19) 0.1663(7)
H123 H 0.905248 0.760542 0.168070
C92 C 0.8527(22) 0.7924(18) 0.1246(6)
H124 H 0.904369 0.839217 0.115477
H125 H 0.840667 0.744028 0.109374
C93 C 0.8056(19) 0.8929(13) 0.1431(6)
H126 H 0.762971 0.908160 0.139886
H127 H 0.857749 0.937985 0.133472
C94 C 0.8144(22) 0.8779(16) 0.1851(6)
H128 H 0.827397 0.928766 0.199062
C95 C 0.8911(27) 0.8598(19) 0.1916(7)
H129 H 0.897050 0.850128 0.218246
H130 H 0.943315 0.905568 0.182359
C96 C 0.7360(28) 0.806(2) 0.2026(6)
H131 H 0.746444 0.797736 0.228870
H132 H 0.690893 0.818099 0.202078
Ag4_4 Ag 1.000000 0.000000 0.34648(13)
Ag6_4 Ag 1.000000 -0.000000 0.47768(13)
Ag8 Ag 0.8031(2) 0.0452(2) 0.55542(12)
S4_2 S 0.9386(7) 0.1708(7) 0.5698(3)
H6 H 0.533801 0.002745 0.475898
H8 H 0.664828 0.015997 0.491768
H34 H 0.675226 0.024437 0.256591
C25 C 0.787(2) 0.061(2) 0.2836(9)
H36 H 0.823258 0.098955 0.263794
C26 C 0.826(2) 0.014(3) 0.3016(12)
H38 H 0.878989 0.053794 0.312609
C27_2 C 0.758(2) -0.000(2) 0.3633(7)
H39 H 0.810843 0.040685 0.374631
C28 C 0.714(2) 0.046(2) 0.3472(9)
H41 H 0.703976 0.076662 0.367390
C29 C 0.772(2) 0.1079(15) 0.3154(12)
H42 H 0.745668 0.137658 0.304871
H43 H 0.824423 0.148420 0.326607
H45 H 0.604217 0.011549 0.316912
C31_2 C 0.9694(12) 0.1881(12) 0.6208(5)
C32_2 C 0.9595(19) 0.2604(16) 0.6365(7)
H46_2 H 0.902147 0.247408 0.634050
H47_2 H 0.994571 0.311041 0.622305
C33_2 C 0.986(2) 0.2723(17) 0.6790(7)
H48_2 H 0.979768 0.318321 0.689116
C37_2 C 0.9127(14) 0.1071(13) 0.6431(6)
H54_2 H 0.854811 0.091840 0.639886
H55_2 H 0.919764 0.062015 0.633472
C38_2 C 0.9365(15) 0.1221(16) 0.6851(6)
H56_2 H 0.898631 0.071234 0.699062
C40_2 C 0.9300(19) 0.194(2) 0.7026(6)
H59_2 H 0.948708 0.202264 0.728870
H60_2 H 0.872794 0.181901 0.702078
Ag20 Ag 0.96419(20) 0.12370(14) 0.46027(9)
Ag21_2 Ag 0.9748(3) 0.0714(2) 0.54179(10)
C123 C 0.9018(13) 0.2627(10) 0.4491(5)
C124 C 0.8392(17) 0.1983(13) 0.4783(6)
H160 H 0.828712 0.142887 0.472210
H161_2 H 0.862198 0.212258 0.503824
C125 C 0.7580(20) 0.2007(15) 0.4763(7)
H162 H 0.718372 0.159782 0.494380
C126 C 0.7676(22) 0.2863(18) 0.4857(7)
H163_2 H 0.790018 0.303812 0.511161
H164 H 0.714160 0.283842 0.484315
C127 C 0.8282(14) 0.3474(11) 0.4557(8)
H165 H 0.838268 0.403400 0.461419
C128 C 0.9112(13) 0.3471(10) 0.4599(7)
H166 H 0.952875 0.389965 0.443639
H167 H 0.930337 0.360213 0.485968
C129 C 0.7966(20) 0.3253(16) 0.4147(7)
H168 H 0.837581 0.365299 0.397172
H169 H 0.745273 0.326551 0.411669
C130 C 0.7814(21) 0.2365(17) 0.4060(6)
H170 H 0.757431 0.219153 0.380477
C131 C 0.7209(20) 0.1761(14) 0.4359(8)
H171 H 0.709179 0.120053 0.430250
H172 H 0.668886 0.176550 0.434750
C132 C 0.8648(21) 0.2369(17) 0.4083(5)
H173 H 0.903708 0.275844 0.389861
H174 H 0.855829 0.181933 0.402413
C153 C 0.9871(25) 0.2981(15) 0.3238(9)
H205 H 0.949566 0.241296 0.324064
C154 C 0.9929(28) 0.3489(19) 0.2936(8)
H206 H 0.958648 0.325601 0.272584
C160 C 0.9737(24) 0.4530(14) 0.2368(8)
H210 H 0.926446 0.402348 0.242240
C161 C 0.9723(24) 0.5024(17) 0.2074(8)
H211 H 0.923962 0.484769 0.193161
C167 C 0.985(5) 0.621(3) 0.1506(12)
H215 H 0.934678 0.588874 0.163420
C168 C 0.986(5) 0.662(3) 0.1175(11)
H216 H 0.936268 0.657086 0.108164
N8 N 0.711(2) 0.060(4) 0.5987(10)
Ag4_5 Ag -0.000000 0.000000 0.84648(13)
Ag6_5 Ag 0.000000 0.000000 0.97768(13)
Ag13_2 Ag 0.03581(20) 0.15951(14) 0.96027(9)
C67_2 C 0.0982(13) 0.3609(8) 0.9491(5)
C68_2 C 0.1608(17) 0.3591(11) 0.9783(6)
H88_2 H 0.171288 0.314175 0.972210
C69_2 C 0.2420(20) 0.4427(13) 0.9763(7)
H90_2 H 0.281628 0.441410 0.994380
C70_2 C 0.2324(22) 0.5187(13) 0.9857(7)
H92_2 H 0.285840 0.569682 0.984315
C71_2 C 0.1718(14) 0.5192(8) 0.9557(8)
H93_2 H 0.161732 0.565132 0.961419
C72_2 C 0.0888(13) 0.4359(9) 0.9599(7)
H94_2 H 0.047125 0.437090 0.943639
H95_2 H 0.069663 0.429876 0.985968
C73_2 C 0.2034(20) 0.5287(12) 0.9147(7)
H96_2 H 0.162419 0.527718 0.897172
H97_2 H 0.254727 0.581278 0.911669
C74_2 C 0.2186(21) 0.4551(13) 0.9060(6)
H98_2 H 0.242569 0.461722 0.880477
C75_2 C 0.2791(20) 0.4552(14) 0.9359(8)
H99_2 H 0.290821 0.410874 0.930250
H100_2 H 0.331114 0.507664 0.934750
C76_2 C 0.1352(21) 0.3721(12) 0.9083(5)
H101_2 H 0.096292 0.372136 0.889861
H102_2 H 0.144171 0.326104 0.902413
C97_2 C 0.0129(25) 0.311(2) 0.8238(9)
H133_2 H 0.050434 0.291730 0.824064
C98_2 C 0.0071(28) 0.356(2) 0.7936(8)
H134_2 H 0.041352 0.366953 0.772584
C104_2 C 0.0263(24) 0.4793(19) 0.7368(8)
H138_2 H 0.073554 0.475902 0.742240
C105_2 C 0.0277(24) 0.5301(17) 0.7074(8)
H139_2 H 0.076038 0.560807 0.693161
C111_2 C 0.015(5) 0.636(4) 0.6506(12)
H143_2 H 0.065322 0.654196 0.663420
C112_2 C 0.014(5) 0.676(4) 0.6175(11)
H144_2 H 0.063732 0.720818 0.608164
Ag17_2 Ag 0.16113(17) 0.13226(25) 0.98973(10)
Ag18_2 Ag 0.10386(14) 0.08271(20) 0.91499(9)
Ag19_2 Ag 0.24055(17) 0.04800(24) 0.89651(10)
S10_2 S 0.2744(5) 0.0075(7) 0.9568(3)
S11_2 S 0.1559(6) 0.0742(8) 0.8504(2)
N5_2 N 0.3376(17) 0.0416(26) 0.8530(8)
C114_2 C 0.361(2) 0.232(4) 0.9591(11)
H145_2 H 0.309895 0.227520 0.949362
H146_2 H 0.355134 0.177169 0.958848
C115_2 C 0.435(3) 0.292(4) 0.9335(8)
H147_2 H 0.425449 0.270863 0.907317
C116_2 C 0.449(3) 0.381(4) 0.9344(9)
H148_2 H 0.497404 0.417522 0.919483
H149_2 H 0.400869 0.380902 0.923018
C117_2 C 0.460(2) 0.413(3) 0.9757(11)
H150_2 H 0.466199 0.468944 0.975898
H152_2 H 0.335172 0.351169 0.991768
C120_2 C 0.532(2) 0.331(3) 0.9906(11)
C121_2 C 0.517(3) 0.300(4) 0.9488(11)
H156_2 H 0.514079 0.246082 0.947345
H157_2 H 0.563298 0.338800 0.933209
C122_2 C 0.541(2) 0.418(4) 0.9900(12)
H158_2 H 0.587128 0.454484 0.973445
C133_2 C 0.226(2) 0.178(3) 0.8320(10)
C134_2 C 0.310(2) 0.1999(25) 0.8120(11)
H175_2 H 0.297868 0.160723 0.791228
H176_2 H 0.345368 0.192694 0.830010
C135_2 C 0.3546(18) 0.2876(27) 0.7966(10)
H177_2 H 0.407453 0.300331 0.784823
C136_2 C 0.298(3) 0.294(4) 0.7672(12)
H178_2 H 0.324774 0.349211 0.756591
H179_2 H 0.288591 0.254926 0.746685
C137_2 C 0.213(2) 0.274(3) 0.7836(9)
H180_2 H 0.176742 0.275697 0.763794
C138_2 C 0.174(2) 0.188(4) 0.8016(12)
H181_2 H 0.163332 0.147425 0.781733
H182_2 H 0.121011 0.174805 0.812609
C139_2 C 0.242(2) 0.242(3) 0.8633(7)
H183_2 H 0.189157 0.229842 0.874631
H184_2 H 0.276096 0.238163 0.883143
C140_2 C 0.286(2) 0.332(3) 0.8472(9)
H185_2 H 0.296024 0.372686 0.867390
C141_2 C 0.228(2) 0.3359(25) 0.8154(12)
H186_2 H 0.254332 0.391990 0.804871
H187_2 H 0.175577 0.323997 0.826607
C142_2 C 0.3696(17) 0.3516(26) 0.8279(12)
H188_2 H 0.406986 0.350962 0.846923
H189_2 H 0.395783 0.407332 0.816912
C155_2 C 0.4342(18) 0.0492(27) 0.7941(8)
C156_2 C 0.4685(16) 0.1025(26) 0.8251(9)
H207_2 H 0.524907 0.141890 0.824918
C157_2 C 0.4208(18) 0.0978(27) 0.8563(8)
H208_2 H 0.443703 0.130727 0.877838
C158_2 C 0.5551(16) 0.1166(23) 0.7498(7)
H209_2 H 0.572691 0.164855 0.764010
C159_2 C 0.4793(15) 0.0458(23) 0.7580(7)
C162_2 C 0.5781(16) 0.0429(24) 0.6992(7)
C163_2 C 0.6045(14) 0.1151(24) 0.7204(8)
H212_2 H 0.655114 0.162372 0.714930
C164_2 C 0.720(2) 0.135(4) 0.6088(10)
H213_2 H 0.752365 0.185352 0.596162
C165_2 C 0.672(2) 0.124(4) 0.6413(10)
H214_2 H 0.671807 0.171967 0.648563
C166_2 C 0.626(3) 0.057(5) 0.6651(12)
Ag1_2 Ag 0.83887(17) 0.97113(18) 0.48973(10)
Ag2_2 Ag 0.89614(14) 0.97885(14) 0.41499(9)
Ag3_2 Ag 0.75945(17) 0.80745(17) 0.39651(10)
Ag4_6 Ag 1.000000 1.000000 0.34648(13)
Ag5_2 Ag 0.87630(14) 0.84049(14) 0.46027(9)
Ag6_6 Ag 1.000000 1.000000 0.47768(13)
Ag7_2 Ag 0.9286(2) 0.9034(2) 0.54179(10)
Ag9_2 Ag 0.7457(2) 0.7918(2) 0.52303(11)
S1_2 S 0.7145(7) 0.9089(8) 0.5301(3)
S2_2 S 0.7256(5) 0.7331(5) 0.4568(3)
S3_2 S 0.8441(6) 0.9183(6) 0.3504(2)
N1_2 N 0.6624(17) 0.704(2) 0.3530(8)
N2 N 0.289(2) 0.349(3) 0.0987(10)
C1_2 C 0.624(2) 0.890(2) 0.5004(9)
C2_2 C 0.639(2) 0.871(3) 0.4591(11)
H1_2 H 0.690105 0.917625 0.449362
H2_2 H 0.644866 0.822035 0.458848
C3_2 C 0.565(3) 0.857(3) 0.4335(8)
H3_2 H 0.574551 0.845414 0.407317
C4_2 C 0.551(3) 0.932(3) 0.4344(9)
H4_2 H 0.502596 0.920118 0.419483
H5_2 H 0.599131 0.980033 0.423018
C5_2 C 0.540(2) 0.953(2) 0.4757(11)
C6_2 C 0.614(2) 0.9683(19) 0.5011(10)
H7_2 H 0.604822 0.979891 0.526973
C7_2 C 0.543(3) 0.814(2) 0.5157(10)
H9_2 H 0.549412 0.764831 0.515343
H10_2 H 0.533556 0.823856 0.541799
C8_2 C 0.468(2) 0.799(2) 0.4906(11)
H11_2 H 0.417391 0.750889 0.500311
C9_2 C 0.483(3) 0.783(2) 0.4488(11)
H12_2 H 0.485921 0.732003 0.447345
H13_2 H 0.436702 0.775502 0.433209
C10_2 C 0.459(2) 0.877(3) 0.4900(12)
H14_2 H 0.412872 0.867356 0.473445
H15_2 H 0.446023 0.887895 0.515465
C11_2 C 0.7373(10) 0.6391(8) 0.4491(5)
C12_2 C 0.8017(13) 0.6409(11) 0.4783(6)
H16_2 H 0.857113 0.685825 0.472210
H17_2 H 0.787742 0.649940 0.503824
C13_2 C 0.7993(15) 0.5573(13) 0.4763(7)
H18_2 H 0.840218 0.558590 0.494380
C14_2 C 0.7137(18) 0.4813(13) 0.4857(7)
H19_2 H 0.696188 0.486206 0.511161
H20_2 H 0.716158 0.430318 0.484315
C15_2 C 0.6526(11) 0.4808(8) 0.4557(8)
H21_2 H 0.596600 0.434868 0.461419
C16_2 C 0.6529(10) 0.5641(9) 0.4599(7)
H22_2 H 0.610035 0.562910 0.443639
H23_2 H 0.639787 0.570124 0.485968
C17_2 C 0.6747(16) 0.4713(12) 0.4147(7)
H24_2 H 0.634701 0.472282 0.397172
H25_2 H 0.673449 0.418722 0.411669
C18_2 C 0.7635(17) 0.5449(13) 0.4060(6)
H26_2 H 0.780847 0.538278 0.380477
C19_2 C 0.8239(14) 0.5448(14) 0.4359(8)
H27_2 H 0.879947 0.589126 0.430250
H28_2 H 0.823450 0.492336 0.434750
C20_2 C 0.7631(17) 0.6279(12) 0.4083(5)
H29_2 H 0.724156 0.627864 0.389861
H30_2 H 0.818067 0.673896 0.402413
C21_2 C 0.774(2) 0.952(2) 0.3320(10)
C22_2 C 0.690(2) 0.8899(15) 0.3120(11)
H31_2 H 0.702132 0.862855 0.291228
H32_2 H 0.654632 0.847326 0.330010
C23_2 C 0.6454(18) 0.933(2) 0.2966(10)
H33_2 H 0.592547 0.892878 0.284823
C24_2 C 0.702(3) 0.996(3) 0.2672(12)
H35_2 H 0.711409 0.966335 0.246685
H37_2 H 0.836668 0.984093 0.281733
C27_3 C 0.758(2) 1.000(2) 0.3633(7)
H40_2 H 0.723904 0.962067 0.383143
C30_2 C 0.6304(17) 0.982(2) 0.3279(12)
H44_2 H 0.593014 0.943976 0.346923
C41_2 C 0.7019(15) 0.689(2) 0.3238(9)
H61_2 H 0.758704 0.708270 0.324064
C42_2 C 0.6511(19) 0.644(2) 0.2936(8)
H62_2 H 0.674399 0.633047 0.272584
C43_2 C 0.5658(18) 0.615(2) 0.2941(8)
C44_2 C 0.5315(16) 0.634(2) 0.3251(9)
H63_2 H 0.475093 0.616983 0.324918
C45_2 C 0.5792(18) 0.677(2) 0.3563(8)
H64_2 H 0.556297 0.687024 0.377838
C46_2 C 0.4449(16) 0.5615(16) 0.2498(7)
H65_2 H 0.427309 0.592164 0.264010
C47_2 C 0.5207(15) 0.5665(17) 0.2580(7)
C48_2 C 0.5470(14) 0.5207(19) 0.2368(8)
H66_2 H 0.597652 0.524098 0.242240
C49_2 C 0.4976(17) 0.4699(17) 0.2074(8)
H67_2 H 0.515231 0.439193 0.193161
C50_2 C 0.4219(16) 0.4648(18) 0.1992(7)
C51_2 C 0.3955(14) 0.5106(19) 0.2204(8)
H68_2 H 0.344886 0.507258 0.214930
C52_2 C 0.280(2) 0.415(3) 0.1088(10)
H69_2 H 0.247635 0.432987 0.096162
C53_2 C 0.328(2) 0.452(4) 0.1413(10)
H70_2 H 0.328193 0.500160 0.148563
C54_2 C 0.374(3) 0.431(4) 0.1651(12)
C55_2 C 0.379(3) 0.364(4) 0.1506(12)
H71_2 H 0.411126 0.345804 0.163420
C56_2 C 0.338(3) 0.324(4) 0.1175(11)
H72_2 H 0.342914 0.279182 0.108164
Ag15 Ag 0.9548(2) 0.7579(3) 0.55542(12)
S8_2 S 0.8292(7) 0.7678(10) 0.5698(3)
H78_2 H 0.997255 0.531056 0.475898
H80_2 H 0.984003 0.648831 0.491768
H106_2 H 0.975563 0.650789 0.256591
C81_2 C 0.939(2) 0.726(3) 0.2836(9)
H108_2 H 0.901045 0.724303 0.263794
C82_2 C 0.986(3) 0.812(4) 0.3016(12)
H110_2 H 0.946206 0.825195 0.312609
C83_3 C 1.000(2) 0.758(3) 0.3633(7)
H111_2 H 0.959315 0.770158 0.374631
C84_2 C 0.954(2) 0.668(3) 0.3472(9)
H113_2 H 0.923338 0.627314 0.367390
C85_2 C 0.8921(15) 0.6641(25) 0.3154(12)
H114_2 H 0.862342 0.608010 0.304871
H115_2 H 0.851580 0.676003 0.326607
H117_2 H 0.988451 0.592668 0.316912
C87_2 C 0.8119(12) 0.7813(17) 0.6208(5)
C88_2 C 0.7396(16) 0.6991(25) 0.6365(7)
H118_2 H 0.752592 0.654739 0.634050
H119_2 H 0.688959 0.683530 0.622305
C89_2 C 0.7277(17) 0.7137(26) 0.6790(7)
H120_2 H 0.681679 0.661447 0.689116
C90_2 C 0.7044(16) 0.7817(24) 0.6829(8)
H121_2 H 0.653208 0.766021 0.669171
H122_2 H 0.696095 0.789762 0.709440
C91_2 C 0.7757(19) 0.8617(22) 0.6663(7)
H123_2 H 0.760542 0.905248 0.668070
C92_2 C 0.7924(18) 0.8527(22) 0.6246(6)
H124_2 H 0.839217 0.904369 0.615477
H125_2 H 0.744028 0.840667 0.609374
C93_2 C 0.8929(13) 0.8056(19) 0.6431(6)
H126_2 H 0.908160 0.762971 0.639886
H127_2 H 0.937985 0.857749 0.633472
C94_2 C 0.8779(16) 0.8144(22) 0.6851(6)
H128_2 H 0.928766 0.827397 0.699062
C95_2 C 0.8598(19) 0.8911(27) 0.6916(7)
H129_2 H 0.850128 0.897050 0.718246
H130_2 H 0.905568 0.943315 0.682359
C96_2 C 0.806(2) 0.7360(28) 0.7026(6)
H131_2 H 0.797736 0.746444 0.728870
H132_2 H 0.818099 0.690893 0.702078
Ag25 Ag 0.1969(2) 0.2421(3) 0.05542(12)
N9 N 0.940(4) 0.651(3) 0.5987(10)
C34_2 C 0.2956(16) 0.0773(18) 0.1829(8)
H49_2 H 0.346792 0.112813 0.169171
H50_2 H 0.303905 0.093667 0.209440
C35_2 C 0.2243(19) 0.0860(12) 0.1663(7)
H51_2 H 0.239458 0.144706 0.168070
C36_2 C 0.2076(18) 0.0603(12) 0.1246(6)
H52_2 H 0.160783 0.065152 0.115477
H53_2 H 0.255972 0.096639 0.109374
C39_2 C 0.1402(19) 0.0313(19) 0.1916(7)
H57_2 H 0.149872 0.046922 0.218246
H58_2 H 0.094432 0.037747 0.182359
Ag14_2 Ag 0.0252(3) 0.0966(2) 0.04179(10)
H89_2 H 0.137802 0.350060 0.003824
H91_2 H 0.209982 0.513794 0.011161
Ag23_2 Ag 0.2543(2) 0.0461(3) 0.02303(11)
S9_2 S 0.2855(7) 0.1944(11) 0.0301(3)
S12_2 S 0.0614(7) 0.2322(10) 0.0698(3)
C113_2 C 0.376(2) 0.266(3) 0.0004(9)
C118_2 C 0.386(2) 0.3543(28) 0.0011(10)
H151_2 H 0.395178 0.375069 0.026973
C119_2 C 0.457(3) 0.271(4) 0.0157(10)
H153_2 H 0.450588 0.215419 0.015343
H154_2 H 0.466444 0.290300 0.041799
H155_2 H 0.582609 0.333498 0.000311
H159_2 H 0.553977 0.441872 0.015465
C143_2 C 0.0306(12) 0.2187(17) 0.1208(5)
C144_2 C 0.0405(19) 0.3009(25) 0.1365(7)
H190_2 H 0.097853 0.345261 0.134050
H191_2 H 0.005429 0.316470 0.122305
C145_2 C 0.014(2) 0.2863(26) 0.1790(7)
H192_2 H 0.020232 0.338553 0.189116
C149_2 C 0.0873(14) 0.1944(19) 0.1431(6)
H198_2 H 0.145189 0.237029 0.139886
H199_2 H 0.080236 0.142251 0.133472
C150_2 C 0.0635(15) 0.1856(22) 0.1851(6)
H200_2 H 0.101369 0.172603 0.199062
C152_2 C 0.0700(19) 0.2640(28) 0.2026(6)
H203_2 H 0.051292 0.253556 0.228870
H204_2 H 0.127206 0.309107 0.202078
Ag4_7 Ag 1.000000 0.000000 0.84648(13)
Ag6_7 Ag 1.000000 0.000000 0.97768(13)
Ag10_2 Ag 0.86774(25) 0.02887(18) 0.98973(10)
Ag11_2 Ag 0.91729(20) 0.02115(14) 0.91499(9)
Ag12_2 Ag 0.95200(24) 0.19255(17) 0.89651(10)
S6_2 S 0.9925(7) 0.2669(5) 0.9568(3)
S7_2 S 0.9258(8) 0.0817(6) 0.8504(2)
N3_2 N 0.9584(26) 0.296(2) 0.8530(8)
C58_2 C 0.768(4) 0.129(3) 0.9591(11)
H73_2 H 0.772480 0.082375 0.949362
H74_2 H 0.822831 0.177965 0.958848
C59_2 C 0.708(4) 0.143(3) 0.9335(8)
H75_2 H 0.729137 0.154586 0.907317
C60_2 C 0.619(4) 0.068(3) 0.9344(9)
H76_2 H 0.582478 0.079882 0.919483
H77_2 H 0.619098 0.019967 0.923018
C61_2 C 0.587(3) 0.047(2) 0.9757(11)
C64_2 C 0.669(3) 0.201(2) 0.9906(11)
C65_2 C 0.700(4) 0.217(2) 0.9488(11)
H84_2 H 0.753918 0.267997 0.947345
H85_2 H 0.661200 0.224498 0.933209
C66_2 C 0.582(4) 0.123(3) 0.9900(12)
H86_2 H 0.545516 0.132644 0.973445
C77_2 C 0.822(3) 0.048(2) 0.8320(10)
C78_2 C 0.8001(25) 0.1101(15) 0.8120(11)
H103_2 H 0.839277 0.137145 0.791228
H104_2 H 0.807306 0.152674 0.830010
C79_2 C 0.7124(27) 0.067(2) 0.7966(10)
H105_2 H 0.699669 0.107122 0.784823
C80_2 C 0.706(4) 0.004(3) 0.7672(12)
H107_2 H 0.745074 0.033665 0.746685
H109_2 H 0.852575 0.015907 0.781733
C83_4 C 0.758(3) -0.000(2) 0.8633(7)
H112_2 H 0.761837 0.037933 0.883143
C86_2 C 0.6484(26) 0.018(2) 0.8279(12)
H116_2 H 0.649038 0.056024 0.846923
C99_2 C 0.9508(27) 0.385(2) 0.7941(8)
C100_2 C 0.8975(26) 0.366(2) 0.8251(9)
H135_2 H 0.858110 0.383017 0.824918
C101_2 C 0.9022(27) 0.323(2) 0.8563(8)
H136_2 H 0.869273 0.312976 0.877838
C102_2 C 0.8834(23) 0.4385(16) 0.7498(7)
H137_2 H 0.835145 0.407836 0.764010
C103_2 C 0.9542(23) 0.4335(17) 0.7580(7)
C106_2 C 0.9571(24) 0.5352(18) 0.6992(7)
C107_2 C 0.8849(24) 0.4894(19) 0.7204(8)
H140_2 H 0.837628 0.492742 0.714930
C108_2 C 0.865(4) 0.585(3) 0.6088(10)
H141_2 H 0.814648 0.567013 0.596162
C109_2 C 0.876(4) 0.548(4) 0.6413(10)
H142_2 H 0.828033 0.499840 0.648563
C110_2 C 0.943(5) 0.569(4) 0.6651(12)
Ag4_8 Ag 0.000000 1.000000 0.84648(13)
Ag6_8 Ag -0.000000 1.000000 0.97768(13)
H6_2 H 0.002745 0.533801 0.975898
H8_2 H 0.015997 0.664828 0.991768
H34_2 H 0.024437 0.675226 0.756591
C25_2 C 0.061(2) 0.787(2) 0.7836(9)
H36_2 H 0.098955 0.823258 0.763794
C26_2 C 0.014(3) 0.826(2) 0.8016(12)
H38_2 H 0.053794 0.878989 0.812609
C27_4 C 0.000(2) 0.758(2) 0.8633(7)
H39_2 H 0.040685 0.810843 0.874631
C28_2 C 0.046(2) 0.714(2) 0.8472(9)
H41_2 H 0.076662 0.703976 0.867390
C29_2 C 0.1079(15) 0.772(2) 0.8154(12)
H42_2 H 0.137658 0.745668 0.804871
H43_2 H 0.148420 0.824423 0.826607
H45_2 H 0.011549 0.604217 0.816912
Ag20_2 Ag 0.12370(14) 0.96419(20) 0.96027(9)
C123_2 C 0.2627(10) 0.9018(13) 0.9491(5)
C124_2 C 0.1983(13) 0.8392(17) 0.9783(6)
H160_2 H 0.142887 0.828712 0.972210
C125_2 C 0.2007(15) 0.7580(20) 0.9763(7)
H162_2 H 0.159782 0.718372 0.994380
C126_2 C 0.2863(18) 0.7676(22) 0.9857(7)
H164_2 H 0.283842 0.714160 0.984315
C127_2 C 0.3474(11) 0.8282(14) 0.9557(8)
H165_2 H 0.403400 0.838268 0.961419
C128_2 C 0.3471(10) 0.9112(13) 0.9599(7)
H166_2 H 0.389965 0.952875 0.943639
H167_2 H 0.360213 0.930337 0.985968
C129_2 C 0.3253(16) 0.7966(20) 0.9147(7)
H168_2 H 0.365299 0.837581 0.897172
H169_2 H 0.326551 0.745273 0.911669
C130_2 C 0.2365(17) 0.7814(21) 0.9060(6)
H170_2 H 0.219153 0.757431 0.880477
C131_2 C 0.1761(14) 0.7209(20) 0.9359(8)
H171_2 H 0.120053 0.709179 0.930250
H172_2 H 0.176550 0.668886 0.934750
C132_2 C 0.2369(17) 0.8648(21) 0.9083(5)
H173_2 H 0.275844 0.903708 0.889861
H174_2 H 0.181933 0.855829 0.902413
C153_2 C 0.2981(15) 0.9871(25) 0.8238(9)
H205_2 H 0.241296 0.949566 0.824064
C154_2 C 0.3489(19) 0.9929(28) 0.7936(8)
H206_2 H 0.325601 0.958648 0.772584
C160_2 C 0.4530(14) 0.9737(24) 0.7368(8)
H210_2 H 0.402348 0.926446 0.742240
C161_2 C 0.5024(17) 0.9723(24) 0.7074(8)
H211_2 H 0.484769 0.923962 0.693161
C167_2 C 0.621(3) 0.985(5) 0.6506(12)
H215_2 H 0.588874 0.934678 0.663420
C168_2 C 0.662(3) 0.986(5) 0.6175(11)
H216_2 H 0.657086 0.936268 0.608164
Ag16_2 Ag 0.9539(3) 0.2082(2) 0.02303(11)
S5_2 S 0.8056(11) 0.0911(8) 0.0301(3)
C57_2 C 0.734(3) 0.110(2) 0.0004(9)
C62_2 C 0.6457(28) 0.0317(19) 0.0011(10)
H79_2 H 0.624931 0.020109 0.026973
C63_2 C 0.729(4) 0.186(2) 0.0157(10)
H81_2 H 0.784581 0.235169 0.015343
H82_2 H 0.709700 0.176144 0.041799
H83_2 H 0.666502 0.249111 0.000311
H87_2 H 0.558128 0.112105 0.015465
C146_2 C 0.9227(18) 0.2183(24) 0.1829(8)
H193_2 H 0.887187 0.233979 0.169171
H194_2 H 0.906333 0.210238 0.209440
C147_2 C 0.9140(12) 0.1383(22) 0.1663(7)
H195_2 H 0.855294 0.094752 0.168070
C148_2 C 0.9397(12) 0.1473(22) 0.1246(6)
H196_2 H 0.934848 0.095631 0.115477
H197_2 H 0.903361 0.159333 0.109374
C151_2 C 0.9687(19) 0.1089(27) 0.1916(7)
H201_2 H 0.953078 0.102950 0.218246
H202_2 H 0.962253 0.056685 0.182359
loop_
_geom_bond_atom_site_label_1
_geom_bond_atom_site_label_2
_geom_bond_site_symmetry_1
_geom_bond_site_symmetry_2
Sb1 F1 1_555 1_555
F2 Sb1 1_555 1_555
F3 Sb1 1_555 1_555
F4 Sb1 1_555 1_555
F5 Sb1 1_555 1_555
F6 Sb1 1_555 1_555
Sb1_2 F1_2 1_555 1_555
F2_2 Sb1_2 1_555 1_555
F3_2 Sb1_2 1_555 1_555
F4_2 Sb1_2 1_555 1_555
F5_2 Sb1_2 1_555 1_555
F6_2 Sb1_2 1_555 1_555
Sb2 F7 1_555 1_555
F8 Sb2 1_555 1_555
F9 Sb2 1_555 1_555
F10 Sb2 1_555 1_555
F11 Sb2 1_555 1_555
F12 Sb2 1_555 1_555
Sb2_2 F7_2 1_555 1_555
F8_2 Sb2_2 1_555 1_555
F9_2 Sb2_2 1_555 1_555
F10_2 Sb2_2 1_555 1_555
F11_2 Sb2_2 1_555 1_555
F12_2 Sb2_2 1_555 1_555
H49 C34 1_555 1_555
H50 C34 1_555 1_555
C35 C34 1_555 1_555
H51 C35 1_555 1_555
H52 C36 1_555 1_555
H53 C36 1_555 1_555
C39 C35 1_555 1_555
H57 C39 1_555 1_555
H58 C39 1_555 1_555
Ag13 Ag6 1_555 1_555
Ag14 Ag6 1_555 1_555
C68 C67 1_555 1_555
H88 C68 1_555 1_555
H89 C68 1_555 1_555
C69 C68 1_555 1_555
H90 C69 1_555 1_555
C70 C69 1_555 1_555
H91 C70 1_555 1_555
H92 C70 1_555 1_555
C71 C70 1_555 1_555
H93 C71 1_555 1_555
C72 C67 1_555 1_555
H94 C72 1_555 1_555
H95 C72 1_555 1_555
C73 C71 1_555 1_555
H96 C73 1_555 1_555
H97 C73 1_555 1_555
C74 C73 1_555 1_555
H98 C74 1_555 1_555
C75 C69 1_555 1_555
H99 C75 1_555 1_555
H100 C75 1_555 1_555
C76 C67 1_555 1_555
H101 C76 1_555 1_555
H102 C76 1_555 1_555
H133 C97 1_555 1_555
C98 C97 1_555 1_555
H134 C98 1_555 1_555
H138 C104 1_555 1_555
C105 C104 1_555 1_555
H139 C105 1_555 1_555
H143 C111 1_555 1_555
H144 C112 1_555 1_555
Ag17 Ag6 1_555 1_555
Ag18 Ag4 1_555 1_555
Ag19 Ag18 1_555 1_555
Ag22 Ag17 1_555 1_555
S9 Ag17 1_555 1_555
S10 Ag19 1_555 1_555
S11 Ag4 1_555 1_555
S12 Ag14 1_555 1_555
N5 Ag19 1_555 1_555
N6 C164 1_555 1_555
C113 S9 1_555 1_555
C114 C113 1_555 1_555
H145 C114 1_555 1_555
H146 C114 1_555 1_555
C115 C114 1_555 1_555
H147 C115 1_555 1_555
C116 C115 1_555 1_555
H148 C116 1_555 1_555
H149 C116 1_555 1_555
C117 C116 1_555 1_555
H150 C117 1_555 1_555
C118 C113 1_555 1_555
H151 C118 1_555 1_555
H152 C118 1_555 1_555
C119 C113 1_555 1_555
H153 C119 1_555 1_555
H154 C119 1_555 1_555
C120 C119 1_555 1_555
H155 C120 1_555 1_555
C121 C115 1_555 1_555
H156 C121 1_555 1_555
H157 C121 1_555 1_555
C122 C117 1_555 1_555
H158 C122 1_555 1_555
H159 C122 1_555 1_555
C133 S11 1_555 1_555
C134 C133 1_555 1_555
H175 C134 1_555 1_555
H176 C134 1_555 1_555
C135 C134 1_555 1_555
H177 C135 1_555 1_555
C136 C135 1_555 1_555
H178 C136 1_555 1_555
H179 C136 1_555 1_555
C137 C136 1_555 1_555
H180 C137 1_555 1_555
C138 C133 1_555 1_555
H181 C138 1_555 1_555
H182 C138 1_555 1_555
C139 C133 1_555 1_555
H183 C139 1_555 1_555
H184 C139 1_555 1_555
C140 C139 1_555 1_555
H185 C140 1_555 1_555
C141 C137 1_555 1_555
H186 C141 1_555 1_555
H187 C141 1_555 1_555
C142 C135 1_555 1_555
H188 C142 1_555 1_555
H189 C142 1_555 1_555
C143 S12 1_555 1_555
C144 C143 1_555 1_555
H190 C144 1_555 1_555
H191 C144 1_555 1_555
C145 C144 1_555 1_555
H192 C145 1_555 1_555
C149 C143 1_555 1_555
H198 C149 1_555 1_555
H199 C149 1_555 1_555
C150 C149 1_555 1_555
H200 C150 1_555 1_555
C152 C145 1_555 1_555
H203 C152 1_555 1_555
H204 C152 1_555 1_555
C156 C155 1_555 1_555
H207 C156 1_555 1_555
C157 N5 1_555 1_555
H208 C157 1_555 1_555
C158 H209 1_555 1_555
C159 C155 1_555 1_555
C163 C158 1_555 1_555
H212 C163 1_555 1_555
C164 H213 1_555 1_555
C165 C164 1_555 1_555
H214 C165 1_555 1_555
C166 C162 1_555 1_555
Ag24 N6 1_555 1_555
N7 Ag22 1_555 1_555
Ag6 Ag18 1_555 1_555
C35 C36 1_555 1_555
Ag13 Ag17 1_555 1_555
Ag13 Ag18 1_555 1_555
Ag14 Ag17 1_555 1_555
C71 C72 1_555 1_555
C74 C75 1_555 1_555
C74 C76 1_555 1_555
C111 C112 1_555 1_555
Ag17 Ag18 1_555 1_555
Ag18 S11 1_555 1_555
Ag19 S11 1_555 1_555
Ag22 S9 1_555 1_555
Ag22 S12 1_555 1_555
Ag23 S9 1_555 1_555
Ag23 S10 1_555 1_555
C117 C118 1_555 1_555
C120 C121 1_555 1_555
C120 C122 1_555 1_555
C137 C138 1_555 1_555
C140 C141 1_555 1_555
C140 C142 1_555 1_555
C150 C152 1_555 1_555
C156 C157 1_555 1_555
C158 C159 1_555 1_555
C162 C163 1_555 1_555
C165 C166 1_555 1_555
S4 Ag24 1_555 1_555
C31 S4 1_555 1_555
C32 C31 1_555 1_555
H46 C32 1_555 1_555
H47 C32 1_555 1_555
C33 C32 1_555 1_555
H48 C33 1_555 1_555
C37 C31 1_555 1_555
H54 C37 1_555 1_555
H55 C37 1_555 1_555
C38 C37 1_555 1_555
H56 C38 1_555 1_555
C40 C33 1_555 1_555
H59 C40 1_555 1_555
H60 C40 1_555 1_555
S4 Ag21 1_555 1_555
C38 C40 1_555 1_555
Ag1 Ag2 1_555 1_555
Ag2 Ag3 1_555 1_555
Ag3 Ag5 1_555 1_555
Ag4_2 Ag2 1_555 1_555
Ag5 Ag2 1_555 1_555
Ag6_2 Ag1 1_555 1_555
S2 Ag3 1_555 1_555
S3 Ag2 1_555 1_555
N1 Ag3 1_555 1_555
N7 C52 1_555 1_555
H1 C2 1_555 1_555
H2 C2 1_555 1_555
C3 C2 1_555 1_555
H3 C3 1_555 1_555
C4 C3 1_555 1_555
H4 C4 1_555 1_555
H5 C4 1_555 1_555
C5 C4 1_555 1_555
C9 C3 1_555 1_555
H12 C9 1_555 1_555
H13 C9 1_555 1_555
C10 C5 1_555 1_555
H14 C10 1_555 1_555
C11 S2 1_555 1_555
C12 C11 1_555 1_555
H16 C12 1_555 1_555
C13 C12 1_555 1_555
H18 C13 1_555 1_555
C14 C13 1_555 1_555
H20 C14 1_555 1_555
C15 C14 1_555 1_555
H21 C15 1_555 1_555
C16 C11 1_555 1_555
H22 C16 1_555 1_555
H23 C16 1_555 1_555
C17 C15 1_555 1_555
H24 C17 1_555 1_555
H25 C17 1_555 1_555
C18 C17 1_555 1_555
H26 C18 1_555 1_555
C19 C13 1_555 1_555
H27 C19 1_555 1_555
H28 C19 1_555 1_555
C20 C11 1_555 1_555
H29 C20 1_555 1_555
H30 C20 1_555 1_555
C21 S3 1_555 1_555
C22 C21 1_555 1_555
H31 C22 1_555 1_555
H32 C22 1_555 1_555
C23 C22 1_555 1_555
H33 C23 1_555 1_555
C24 C23 1_555 1_555
H35 C24 1_555 1_555
C27 C21 1_555 1_555
H40 C27 1_555 1_555
C30 C23 1_555 1_555
H44 C30 1_555 1_555
C41 N1 1_555 1_555
H61 C41 1_555 1_555
C42 C41 1_555 1_555
H62 C42 1_555 1_555
C43 C42 1_555 1_555
C44 C43 1_555 1_555
H63 C44 1_555 1_555
C45 N1 1_555 1_555
H64 C45 1_555 1_555
C46 H65 1_555 1_555
C47 C43 1_555 1_555
C48 C47 1_555 1_555
H66 C48 1_555 1_555
C49 C48 1_555 1_555
H67 C49 1_555 1_555
C50 C49 1_555 1_555
C51 C46 1_555 1_555
H68 C51 1_555 1_555
C52 H69 1_555 1_555
C53 C52 1_555 1_555
H70 C53 1_555 1_555
C54 C50 1_555 1_555
C55 C54 1_555 1_555
H71 C55 1_555 1_555
C56 N7 1_555 1_555
H72 C56 1_555 1_555
H108 C81 1_555 1_555
H110 C82 1_555 1_555
H111 C83 1_555 1_555
C84 C83 1_555 1_555
H113 C84 1_555 1_555
C85 C81 1_555 1_555
H114 C85 1_555 1_555
H115 C85 1_555 1_555
Ag2 Ag6_2 1_555 1_555
Ag3 S3 1_555 1_555
Ag4_2 S3 1_555 1_555
Ag5 Ag6_2 1_555 1_555
Ag5 S2 1_555 1_555
C8 C9 1_555 1_555
C8 C10 1_555 1_555
C15 C16 1_555 1_555
C18 C19 1_555 1_555
C18 C20 1_555 1_555
C44 C45 1_555 1_555
C46 C47 1_555 1_555
C50 C51 1_555 1_555
C53 C54 1_555 1_555
C55 C56 1_555 1_555
C81 C82 1_555 1_555
C84 C85 1_555 1_555
Ag11 Ag4_3 1_555 1_555
Ag12 Ag11 1_555 1_555
Ag16 S5 1_555 1_555
S5 Ag10 1_555 1_555
S6 Ag12 1_555 1_555
S7 Ag4_3 1_555 1_555
N3 Ag12 1_555 1_555
N4 C108 1_555 1_555
C57 S5 1_555 1_555
C58 C57 1_555 1_555
H73 C58 1_555 1_555
H74 C58 1_555 1_555
C59 C58 1_555 1_555
H75 C59 1_555 1_555
C60 C59 1_555 1_555
H76 C60 1_555 1_555
H77 C60 1_555 1_555
C61 C60 1_555 1_555
C62 C57 1_555 1_555
H79 C62 1_555 1_555
C63 C57 1_555 1_555
H81 C63 1_555 1_555
H82 C63 1_555 1_555
C64 C63 1_555 1_555
H83 C64 1_555 1_555
C65 C59 1_555 1_555
H84 C65 1_555 1_555
H85 C65 1_555 1_555
C66 C61 1_555 1_555
H86 C66 1_555 1_555
H87 C66 1_555 1_555
C77 S7 1_555 1_555
C78 C77 1_555 1_555
H103 C78 1_555 1_555
H104 C78 1_555 1_555
C79 C78 1_555 1_555
H105 C79 1_555 1_555
C80 C79 1_555 1_555
H107 C80 1_555 1_555
C83_2 C77 1_555 1_555
H112 C83_2 1_555 1_555
C86 C79 1_555 1_555
H116 C86 1_555 1_555
C100 C99 1_555 1_555
H135 C100 1_555 1_555
C101 N3 1_555 1_555
H136 C101 1_555 1_555
C102 H137 1_555 1_555
C103 C99 1_555 1_555
C107 C102 1_555 1_555
H140 C107 1_555 1_555
C108 H141 1_555 1_555
C109 C108 1_555 1_555
H142 C109 1_555 1_555
C110 C106 1_555 1_555
H193 C146 1_555 1_555
H194 C146 1_555 1_555
C147 C146 1_555 1_555
H195 C147 1_555 1_555
H196 C148 1_555 1_555
H197 C148 1_555 1_555
C151 C147 1_555 1_555
H201 C151 1_555 1_555
H202 C151 1_555 1_555
Ag26 N4 1_555 1_555
Ag6_3 Ag10 1_555 1_555
Ag6_3 Ag11 1_555 1_555
Ag10 Ag11 1_555 1_555
Ag11 S7 1_555 1_555
Ag12 S7 1_555 1_555
Ag16 S6 1_555 1_555
C61 C62 1_555 1_555
C64 C65 1_555 1_555
C64 C66 1_555 1_555
C100 C101 1_555 1_555
C102 C103 1_555 1_555
C106 C107 1_555 1_555
C109 C110 1_555 1_555
C147 C148 1_555 1_555
Ag9 S1 1_555 1_555
C1 S1 1_555 1_555
C6 C1 1_555 1_555
H7 C6 1_555 1_555
C7 C1 1_555 1_555
H9 C7 1_555 1_555
H10 C7 1_555 1_555
S8 Ag7 1_555 1_555
C87 S8 1_555 1_555
C88 C87 1_555 1_555
H118 C88 1_555 1_555
H119 C88 1_555 1_555
C89 C88 1_555 1_555
H120 C89 1_555 1_555
C90 C89 1_555 1_555
H121 C90 1_555 1_555
H122 C90 1_555 1_555
C91 C90 1_555 1_555
H123 C91 1_555 1_555
C92 C87 1_555 1_555
H124 C92 1_555 1_555
H125 C92 1_555 1_555
C93 C87 1_555 1_555
H126 C93 1_555 1_555
H127 C93 1_555 1_555
C94 C93 1_555 1_555
H128 C94 1_555 1_555
C95 C91 1_555 1_555
H129 C95 1_555 1_555
H130 C95 1_555 1_555
C96 C89 1_555 1_555
H131 C96 1_555 1_555
H132 C96 1_555 1_555
Ag9 S8 1_555 1_555
Ag26 S8 1_555 1_555
C91 C92 1_555 1_555
C94 C95 1_555 1_555
C94 C96 1_555 1_555
S4_2 Ag8 1_555 1_555
H36 C25 1_555 1_555
H38 C26 1_555 1_555
H39 C27_2 1_555 1_555
C28 C27_2 1_555 1_555
H41 C28 1_555 1_555
C29 C25 1_555 1_555
H42 C29 1_555 1_555
H43 C29 1_555 1_555
C31_2 S4_2 1_555 1_555
C32_2 C31_2 1_555 1_555
H46_2 C32_2 1_555 1_555
H47_2 C32_2 1_555 1_555
C33_2 C32_2 1_555 1_555
H48_2 C33_2 1_555 1_555
C37_2 C31_2 1_555 1_555
H54_2 C37_2 1_555 1_555
H55_2 C37_2 1_555 1_555
C38_2 C37_2 1_555 1_555
H56_2 C38_2 1_555 1_555
C40_2 C33_2 1_555 1_555
H59_2 C40_2 1_555 1_555
H60_2 C40_2 1_555 1_555
C124 C123 1_555 1_555
H160 C124 1_555 1_555
H161_2 C124 1_555 1_555
C125 C124 1_555 1_555
H162 C125 1_555 1_555
C126 C125 1_555 1_555
H163_2 C126 1_555 1_555
H164 C126 1_555 1_555
C127 C126 1_555 1_555
H165 C127 1_555 1_555
C128 C123 1_555 1_555
H166 C128 1_555 1_555
H167 C128 1_555 1_555
C129 C127 1_555 1_555
H168 C129 1_555 1_555
H169 C129 1_555 1_555
C130 C129 1_555 1_555
H170 C130 1_555 1_555
C131 C125 1_555 1_555
H171 C131 1_555 1_555
H172 C131 1_555 1_555
C132 C123 1_555 1_555
H173 C132 1_555 1_555
H174 C132 1_555 1_555
H205 C153 1_555 1_555
C154 C153 1_555 1_555
H206 C154 1_555 1_555
H210 C160 1_555 1_555
C161 C160 1_555 1_555
H211 C161 1_555 1_555
H215 C167 1_555 1_555
H216 C168 1_555 1_555
N8 Ag8 1_555 1_555
Ag6_4 Ag20 1_555 1_555
Ag6_4 Ag21_2 1_555 1_555
S4_2 Ag21_2 1_555 1_555
C25 C26 1_555 1_555
C28 C29 1_555 1_555
C38_2 C40_2 1_555 1_555
C127 C128 1_555 1_555
C130 C131 1_555 1_555
C130 C132 1_555 1_555
C167 C168 1_555 1_555
Ag13_2 Ag6_5 1_555 1_555
C68_2 C67_2 1_555 1_555
H88_2 C68_2 1_555 1_555
C69_2 C68_2 1_555 1_555
H90_2 C69_2 1_555 1_555
C70_2 C69_2 1_555 1_555
H92_2 C70_2 1_555 1_555
C71_2 C70_2 1_555 1_555
H93_2 C71_2 1_555 1_555
C72_2 C67_2 1_555 1_555
H94_2 C72_2 1_555 1_555
H95_2 C72_2 1_555 1_555
C73_2 C71_2 1_555 1_555
H96_2 C73_2 1_555 1_555
H97_2 C73_2 1_555 1_555
C74_2 C73_2 1_555 1_555
H98_2 C74_2 1_555 1_555
C75_2 C69_2 1_555 1_555
H99_2 C75_2 1_555 1_555
H100_2 C75_2 1_555 1_555
C76_2 C67_2 1_555 1_555
H101_2 C76_2 1_555 1_555
H102_2 C76_2 1_555 1_555
H133_2 C97_2 1_555 1_555
C98_2 C97_2 1_555 1_555
H134_2 C98_2 1_555 1_555
H138_2 C104_2 1_555 1_555
C105_2 C104_2 1_555 1_555
H139_2 C105_2 1_555 1_555
H143_2 C111_2 1_555 1_555
H144_2 C112_2 1_555 1_555
Ag17_2 Ag6_5 1_555 1_555
Ag18_2 Ag4_5 1_555 1_555
Ag19_2 Ag18_2 1_555 1_555
S10_2 Ag19_2 1_555 1_555
S11_2 Ag4_5 1_555 1_555
N5_2 Ag19_2 1_555 1_555
N8 C164_2 1_555 1_555
H145_2 C114_2 1_555 1_555
H146_2 C114_2 1_555 1_555
C115_2 C114_2 1_555 1_555
H147_2 C115_2 1_555 1_555
C116_2 C115_2 1_555 1_555
H148_2 C116_2 1_555 1_555
H149_2 C116_2 1_555 1_555
C117_2 C116_2 1_555 1_555
H150_2 C117_2 1_555 1_555
C121_2 C115_2 1_555 1_555
H156_2 C121_2 1_555 1_555
H157_2 C121_2 1_555 1_555
C122_2 C117_2 1_555 1_555
H158_2 C122_2 1_555 1_555
C133_2 S11_2 1_555 1_555
C134_2 C133_2 1_555 1_555
H175_2 C134_2 1_555 1_555
H176_2 C134_2 1_555 1_555
C135_2 C134_2 1_555 1_555
H177_2 C135_2 1_555 1_555
C136_2 C135_2 1_555 1_555
H178_2 C136_2 1_555 1_555
H179_2 C136_2 1_555 1_555
C137_2 C136_2 1_555 1_555
H180_2 C137_2 1_555 1_555
C138_2 C133_2 1_555 1_555
H181_2 C138_2 1_555 1_555
H182_2 C138_2 1_555 1_555
C139_2 C133_2 1_555 1_555
H183_2 C139_2 1_555 1_555
H184_2 C139_2 1_555 1_555
C140_2 C139_2 1_555 1_555
H185_2 C140_2 1_555 1_555
C141_2 C137_2 1_555 1_555
H186_2 C141_2 1_555 1_555
H187_2 C141_2 1_555 1_555
C142_2 C135_2 1_555 1_555
H188_2 C142_2 1_555 1_555
H189_2 C142_2 1_555 1_555
C156_2 C155_2 1_555 1_555
H207_2 C156_2 1_555 1_555
C157_2 N5_2 1_555 1_555
H208_2 C157_2 1_555 1_555
C158_2 H209_2 1_555 1_555
C159_2 C155_2 1_555 1_555
C163_2 C158_2 1_555 1_555
H212_2 C163_2 1_555 1_555
C164_2 H213_2 1_555 1_555
C165_2 C164_2 1_555 1_555
H214_2 C165_2 1_555 1_555
C166_2 C162_2 1_555 1_555
Ag6_5 Ag18_2 1_555 1_555
Ag13_2 Ag17_2 1_555 1_555
Ag13_2 Ag18_2 1_555 1_555
C71_2 C72_2 1_555 1_555
C74_2 C75_2 1_555 1_555
C74_2 C76_2 1_555 1_555
C111_2 C112_2 1_555 1_555
Ag17_2 Ag18_2 1_555 1_555
Ag18_2 S11_2 1_555 1_555
Ag19_2 S11_2 1_555 1_555
C120_2 C121_2 1_555 1_555
C120_2 C122_2 1_555 1_555
C137_2 C138_2 1_555 1_555
C140_2 C141_2 1_555 1_555
C140_2 C142_2 1_555 1_555
C156_2 C157_2 1_555 1_555
C158_2 C159_2 1_555 1_555
C162_2 C163_2 1_555 1_555
C165_2 C166_2 1_555 1_555
Ag1_2 Ag2_2 1_555 1_555
Ag2_2 Ag3_2 1_555 1_555
Ag3_2 Ag5_2 1_555 1_555
Ag4_6 Ag2_2 1_555 1_555
Ag5_2 Ag2_2 1_555 1_555
Ag6_6 Ag1_2 1_555 1_555
Ag7_2 Ag6_6 1_555 1_555
Ag9_2 S1_2 1_555 1_555
S1_2 Ag1_2 1_555 1_555
S2_2 Ag3_2 1_555 1_555
S3_2 Ag2_2 1_555 1_555
N1_2 Ag3_2 1_555 1_555
N2 C52_2 1_555 1_555
C1_2 S1_2 1_555 1_555
C2_2 C1_2 1_555 1_555
H1_2 C2_2 1_555 1_555
H2_2 C2_2 1_555 1_555
C3_2 C2_2 1_555 1_555
H3_2 C3_2 1_555 1_555
C4_2 C3_2 1_555 1_555
H4_2 C4_2 1_555 1_555
H5_2 C4_2 1_555 1_555
C5_2 C4_2 1_555 1_555
C6_2 C1_2 1_555 1_555
H7_2 C6_2 1_555 1_555
C7_2 C1_2 1_555 1_555
H9_2 C7_2 1_555 1_555
H10_2 C7_2 1_555 1_555
C8_2 C7_2 1_555 1_555
H11_2 C8_2 1_555 1_555
C9_2 C3_2 1_555 1_555
H12_2 C9_2 1_555 1_555
H13_2 C9_2 1_555 1_555
C10_2 C5_2 1_555 1_555
H14_2 C10_2 1_555 1_555
H15_2 C10_2 1_555 1_555
C11_2 S2_2 1_555 1_555
C12_2 C11_2 1_555 1_555
H16_2 C12_2 1_555 1_555
H17_2 C12_2 1_555 1_555
C13_2 C12_2 1_555 1_555
H18_2 C13_2 1_555 1_555
C14_2 C13_2 1_555 1_555
H19_2 C14_2 1_555 1_555
H20_2 C14_2 1_555 1_555
C15_2 C14_2 1_555 1_555
H21_2 C15_2 1_555 1_555
C16_2 C11_2 1_555 1_555
H22_2 C16_2 1_555 1_555
H23_2 C16_2 1_555 1_555
C17_2 C15_2 1_555 1_555
H24_2 C17_2 1_555 1_555
H25_2 C17_2 1_555 1_555
C18_2 C17_2 1_555 1_555
H26_2 C18_2 1_555 1_555
C19_2 C13_2 1_555 1_555
H27_2 C19_2 1_555 1_555
H28_2 C19_2 1_555 1_555
C20_2 C11_2 1_555 1_555
H29_2 C20_2 1_555 1_555
H30_2 C20_2 1_555 1_555
C21_2 S3_2 1_555 1_555
C22_2 C21_2 1_555 1_555
H31_2 C22_2 1_555 1_555
H32_2 C22_2 1_555 1_555
C23_2 C22_2 1_555 1_555
H33_2 C23_2 1_555 1_555
C24_2 C23_2 1_555 1_555
H35_2 C24_2 1_555 1_555
C27_3 C21_2 1_555 1_555
H40_2 C27_3 1_555 1_555
C30_2 C23_2 1_555 1_555
H44_2 C30_2 1_555 1_555
C41_2 N1_2 1_555 1_555
H61_2 C41_2 1_555 1_555
C42_2 C41_2 1_555 1_555
H62_2 C42_2 1_555 1_555
C43_2 C42_2 1_555 1_555
C44_2 C43_2 1_555 1_555
H63_2 C44_2 1_555 1_555
C45_2 N1_2 1_555 1_555
H64_2 C45_2 1_555 1_555
C46_2 H65_2 1_555 1_555
C47_2 C43_2 1_555 1_555
C48_2 C47_2 1_555 1_555
H66_2 C48_2 1_555 1_555
C49_2 C48_2 1_555 1_555
H67_2 C49_2 1_555 1_555
C50_2 C49_2 1_555 1_555
C51_2 C46_2 1_555 1_555
H68_2 C51_2 1_555 1_555
C52_2 H69_2 1_555 1_555
C53_2 C52_2 1_555 1_555
H70_2 C53_2 1_555 1_555
C54_2 C50_2 1_555 1_555
C55_2 C54_2 1_555 1_555
H71_2 C55_2 1_555 1_555
C56_2 N2 1_555 1_555
H72_2 C56_2 1_555 1_555
S8_2 Ag7_2 1_555 1_555
H108_2 C81_2 1_555 1_555
H110_2 C82_2 1_555 1_555
H111_2 C83_3 1_555 1_555
C84_2 C83_3 1_555 1_555
H113_2 C84_2 1_555 1_555
C85_2 C81_2 1_555 1_555
H114_2 C85_2 1_555 1_555
H115_2 C85_2 1_555 1_555
C87_2 S8_2 1_555 1_555
C88_2 C87_2 1_555 1_555
H118_2 C88_2 1_555 1_555
H119_2 C88_2 1_555 1_555
C89_2 C88_2 1_555 1_555
H120_2 C89_2 1_555 1_555
C90_2 C89_2 1_555 1_555
H121_2 C90_2 1_555 1_555
H122_2 C90_2 1_555 1_555
C91_2 C90_2 1_555 1_555
H123_2 C91_2 1_555 1_555
C92_2 C87_2 1_555 1_555
H124_2 C92_2 1_555 1_555
H125_2 C92_2 1_555 1_555
C93_2 C87_2 1_555 1_555
H126_2 C93_2 1_555 1_555
H127_2 C93_2 1_555 1_555
C94_2 C93_2 1_555 1_555
H128_2 C94_2 1_555 1_555
C95_2 C91_2 1_555 1_555
H129_2 C95_2 1_555 1_555
H130_2 C95_2 1_555 1_555
C96_2 C89_2 1_555 1_555
H131_2 C96_2 1_555 1_555
H132_2 C96_2 1_555 1_555
Ag25 N2 1_555 1_555
N9 Ag15 1_555 1_555
Ag2_2 Ag6_6 1_555 1_555
Ag3_2 S3_2 1_555 1_555
Ag4_6 S3_2 1_555 1_555
Ag5_2 Ag6_6 1_555 1_555
Ag5_2 S2_2 1_555 1_555
Ag9_2 S2_2 1_555 1_555
Ag9_2 S8_2 1_555 1_555
C5_2 C6_2 1_555 1_555
C8_2 C9_2 1_555 1_555
C8_2 C10_2 1_555 1_555
C15_2 C16_2 1_555 1_555
C18_2 C19_2 1_555 1_555
C18_2 C20_2 1_555 1_555
C44_2 C45_2 1_555 1_555
C46_2 C47_2 1_555 1_555
C50_2 C51_2 1_555 1_555
C53_2 C54_2 1_555 1_555
C55_2 C56_2 1_555 1_555
Ag15 S8_2 1_555 1_555
C81_2 C82_2 1_555 1_555
C84_2 C85_2 1_555 1_555
C91_2 C92_2 1_555 1_555
C94_2 C95_2 1_555 1_555
C94_2 C96_2 1_555 1_555
H49_2 C34_2 1_555 1_555
H50_2 C34_2 1_555 1_555
C35_2 C34_2 1_555 1_555
H51_2 C35_2 1_555 1_555
H52_2 C36_2 1_555 1_555
H53_2 C36_2 1_555 1_555
C39_2 C35_2 1_555 1_555
H57_2 C39_2 1_555 1_555
H58_2 C39_2 1_555 1_555
S12_2 Ag14_2 1_555 1_555
C113_2 S9_2 1_555 1_555
C118_2 C113_2 1_555 1_555
H151_2 C118_2 1_555 1_555
C119_2 C113_2 1_555 1_555
H153_2 C119_2 1_555 1_555
H154_2 C119_2 1_555 1_555
C143_2 S12_2 1_555 1_555
C144_2 C143_2 1_555 1_555
H190_2 C144_2 1_555 1_555
H191_2 C144_2 1_555 1_555
C145_2 C144_2 1_555 1_555
H192_2 C145_2 1_555 1_555
C149_2 C143_2 1_555 1_555
H198_2 C149_2 1_555 1_555
H199_2 C149_2 1_555 1_555
C150_2 C149_2 1_555 1_555
H200_2 C150_2 1_555 1_555
C152_2 C145_2 1_555 1_555
H203_2 C152_2 1_555 1_555
H204_2 C152_2 1_555 1_555
C35_2 C36_2 1_555 1_555
Ag25 S9_2 1_555 1_555
Ag25 S12_2 1_555 1_555
Ag23_2 S9_2 1_555 1_555
C150_2 C152_2 1_555 1_555
Ag11_2 Ag4_7 1_555 1_555
Ag12_2 Ag11_2 1_555 1_555
S6_2 Ag12_2 1_555 1_555
S7_2 Ag4_7 1_555 1_555
N3_2 Ag12_2 1_555 1_555
N9 C108_2 1_555 1_555
H73_2 C58_2 1_555 1_555
H74_2 C58_2 1_555 1_555
C59_2 C58_2 1_555 1_555
H75_2 C59_2 1_555 1_555
C60_2 C59_2 1_555 1_555
H76_2 C60_2 1_555 1_555
H77_2 C60_2 1_555 1_555
C61_2 C60_2 1_555 1_555
C65_2 C59_2 1_555 1_555
H84_2 C65_2 1_555 1_555
H85_2 C65_2 1_555 1_555
C66_2 C61_2 1_555 1_555
H86_2 C66_2 1_555 1_555
C77_2 S7_2 1_555 1_555
C78_2 C77_2 1_555 1_555
H103_2 C78_2 1_555 1_555
H104_2 C78_2 1_555 1_555
C79_2 C78_2 1_555 1_555
H105_2 C79_2 1_555 1_555
C80_2 C79_2 1_555 1_555
H107_2 C80_2 1_555 1_555
C83_4 C77_2 1_555 1_555
H112_2 C83_4 1_555 1_555
C86_2 C79_2 1_555 1_555
H116_2 C86_2 1_555 1_555
C100_2 C99_2 1_555 1_555
H135_2 C100_2 1_555 1_555
C101_2 N3_2 1_555 1_555
H136_2 C101_2 1_555 1_555
C102_2 H137_2 1_555 1_555
C103_2 C99_2 1_555 1_555
C107_2 C102_2 1_555 1_555
H140_2 C107_2 1_555 1_555
C108_2 H141_2 1_555 1_555
C109_2 C108_2 1_555 1_555
H142_2 C109_2 1_555 1_555
C110_2 C106_2 1_555 1_555
Ag6_7 Ag10_2 1_555 1_555
Ag6_7 Ag11_2 1_555 1_555
Ag10_2 Ag11_2 1_555 1_555
Ag11_2 S7_2 1_555 1_555
Ag12_2 S7_2 1_555 1_555
C64_2 C65_2 1_555 1_555
C64_2 C66_2 1_555 1_555
C100_2 C101_2 1_555 1_555
C102_2 C103_2 1_555 1_555
C106_2 C107_2 1_555 1_555
C109_2 C110_2 1_555 1_555
H36_2 C25_2 1_555 1_555
H38_2 C26_2 1_555 1_555
H39_2 C27_4 1_555 1_555
C28_2 C27_4 1_555 1_555
H41_2 C28_2 1_555 1_555
C29_2 C25_2 1_555 1_555
H42_2 C29_2 1_555 1_555
H43_2 C29_2 1_555 1_555
C124_2 C123_2 1_555 1_555
H160_2 C124_2 1_555 1_555
C125_2 C124_2 1_555 1_555
H162_2 C125_2 1_555 1_555
C126_2 C125_2 1_555 1_555
H164_2 C126_2 1_555 1_555
C127_2 C126_2 1_555 1_555
H165_2 C127_2 1_555 1_555
C128_2 C123_2 1_555 1_555
H166_2 C128_2 1_555 1_555
H167_2 C128_2 1_555 1_555
C129_2 C127_2 1_555 1_555
H168_2 C129_2 1_555 1_555
H169_2 C129_2 1_555 1_555
C130_2 C129_2 1_555 1_555
H170_2 C130_2 1_555 1_555
C131_2 C125_2 1_555 1_555
H171_2 C131_2 1_555 1_555
H172_2 C131_2 1_555 1_555
C132_2 C123_2 1_555 1_555
H173_2 C132_2 1_555 1_555
H174_2 C132_2 1_555 1_555
H205_2 C153_2 1_555 1_555
C154_2 C153_2 1_555 1_555
H206_2 C154_2 1_555 1_555
H210_2 C160_2 1_555 1_555
C161_2 C160_2 1_555 1_555
H211_2 C161_2 1_555 1_555
H215_2 C167_2 1_555 1_555
H216_2 C168_2 1_555 1_555
Ag6_8 Ag20_2 1_555 1_555
C25_2 C26_2 1_555 1_555
C28_2 C29_2 1_555 1_555
C127_2 C128_2 1_555 1_555
C130_2 C131_2 1_555 1_555
C130_2 C132_2 1_555 1_555
C167_2 C168_2 1_555 1_555
Ag16_2 S5_2 1_555 1_555
C57_2 S5_2 1_555 1_555
C62_2 C57_2 1_555 1_555
H79_2 C62_2 1_555 1_555
C63_2 C57_2 1_555 1_555
H81_2 C63_2 1_555 1_555
H82_2 C63_2 1_555 1_555
H193_2 C146_2 1_555 1_555
H194_2 C146_2 1_555 1_555
C147_2 C146_2 1_555 1_555
H195_2 C147_2 1_555 1_555
H196_2 C148_2 1_555 1_555
H197_2 C148_2 1_555 1_555
C151_2 C147_2 1_555 1_555
H201_2 C151_2 1_555 1_555
H202_2 C151_2 1_555 1_555
C147_2 C148_2 1_555 1_555

#END
