
###############################################################################
#
# This file contains modified crystal structure data generated from the
# MOF subset of the Cambridge Structural Database (CSD) v543 
# hosted by the Cambridge Crystallographic Data Centre (CCDC).
#
# This work is licensed under the Creative Commons
# Attribution-NonCommercial-ShareAlike 4.0 International License.
# To view a copy of this license, visit
# http://creativecommons.org/licenses/by-nc-sa/4.0/
# or send a letter to
# Creative Commons, PO Box 1866, Mountain View, CA 94042, USA.
#
# CIF created using the CSD Python API on 29 September 2022
# The structure has been converted into the P1 space group
# The structure has a 3D framework
# The original CSD entry PERSIQ is in the rhombohedral crystal system
# The framework has been calculated to contain at least 10.0% void space
# The void calculation uses a probe of radius 1.32A, grid spacing 0.4
#
###############################################################################

data_PERSIQ
_chemical_formula_moiety         '(C198 H396 Cl36 Cu18 Mn54 N36 O154 15-)n'
_symmetry_cell_setting           triclinic
_symmetry_space_group_name_H-M   'P 1'
_symmetry_Int_Tables_number      1
_space_group_name_Hall           'P 1'
loop_
_symmetry_equiv_pos_site_id
_symmetry_equiv_pos_as_xyz
1 x,y,z
_cell_length_a                   19.7840(8)
_cell_length_b                   19.7840(8)
_cell_length_c                   33.4938(14)
_cell_angle_alpha                90
_cell_angle_beta                 90
_cell_angle_gamma                120
_cell_volume                     11353.3
loop_
_atom_site_label
_atom_site_type_symbol
_atom_site_fract_x
_atom_site_fract_y
_atom_site_fract_z
Cl1 Cl 0.1903(3) 0.4341(4) 0.3737(2)
Cl1_2 Cl 0.5659(4) 0.7562(5) 0.3737(2)
Cl1_3 Cl 0.2438(5) 0.8097(3) 0.3737(2)
Cl1_4 Cl 0.8570(3) 0.7674(4) 0.7070(2)
Cl1_5 Cl 0.2326(4) 0.0895(5) 0.7070(2)
Cl1_6 Cl 0.9105(5) 0.1430(3) 0.7070(2)
Cl1_7 Cl 0.5236(3) 0.1008(4) 0.0404(2)
Cl1_8 Cl 0.8992(4) 0.4229(5) 0.0404(2)
Cl1_9 Cl 0.5771(5) 0.4764(3) 0.0404(2)
Cl1_10 Cl 0.8097(3) 0.5659(4) 0.6263(2)
Cl1_11 Cl 0.4341(4) 0.2438(5) 0.6263(2)
Cl1_12 Cl 0.7562(5) 0.1903(3) 0.6263(2)
Cl1_13 Cl 0.1430(3) 0.2326(4) 0.2930(2)
Cl1_14 Cl 0.7674(4) 0.9105(5) 0.2930(2)
Cl1_15 Cl 0.0895(5) 0.8570(3) 0.2930(2)
Cl1_16 Cl 0.4764(3) 0.8992(4) 0.9596(2)
Cl1_17 Cl 0.1008(4) 0.5771(5) 0.9596(2)
Cl1_18 Cl 0.4229(5) 0.5236(3) 0.9596(2)
C23 C 0.0045(5) 0.4401(4) 0.35940(15)
H45 H 0.0015 0.4104 0.3350
H46 H 0.0396 0.4346 0.3786
C24 C 0.0381(4) 0.5250(3) 0.34894(14)
C25 C 0.0033(10) 0.5258(7) 0.3095(3)
H47 H 0.0186 0.5807 0.3037
H48 H 0.0290 0.5100 0.2891
C26 C 0.1235(10) 0.5516(7) 0.3417(3)
H49 H 0.1262 0.5129 0.3241
H50 H 0.1469 0.6017 0.3270
O22 O 0.1689(7) 0.5618(5) 0.3748(3)
H51 H 0.1773 0.5243 0.3767
N5 N 0.0297(4) 0.5641(3) 0.38710(12)
H52 H 0.0706 0.5710 0.4035
C27 C 0.0367(6) 0.6391(4) 0.3844(2)
H54 H 0.0851 0.6747 0.3697
C28 C 0.0387(6) 0.6743(4) 0.4265(3)
H55 H 0.0561 0.7305 0.4236
H56 H 0.0771 0.6697 0.4436
Cu6 Cu 0.06526(4) 0.51331(3) 0.585397(15)
O37 O 0.0382(3) 0.4625(2) 0.45944(10)
Cu1 Cu 0.51331(3) 0.44805(3) 0.414603(15)
Mn1 Mn 0.59479(4) 0.43565(4) 0.335499(17)
Mn2 Mn 0.69775(4) 0.53741(4) 0.412049(18)
Mn3 Mn 0.58732(4) 0.34662(4) 0.405077(19)
Cl2 Cl 0.71624(9) 0.64391(8) 0.45499(4)
O1 O 0.51648(17) 0.34966(18) 0.36581(8)
O2 O 0.66537(18) 0.42992(17) 0.37255(8)
O3 O 0.6667 0.3333 0.43067(14)
C1 C 0.5599(4) 0.5644(3) 0.35940(15)
H1 H 0.5896 0.5911 0.3350
H2 H 0.5654 0.6050 0.3786
O4 O 0.5916(2) 0.52024(19) 0.37650(8)
C2 C 0.4750(3) 0.5131(3) 0.34894(14)
C3 C 0.4742(7) 0.4775(7) 0.3095(3)
H3 H 0.4193 0.4379 0.3037
H4 H 0.4900 0.5190 0.2891
O5 O 0.51790(19) 0.44294(19) 0.30323(9)
C4 C 0.4484(7) 0.5719(7) 0.3417(3)
H5 H 0.4871 0.6133 0.3241
H6 H 0.3983 0.5452 0.3270
O6 O 0.4382(5) 0.6071(5) 0.3748(3)
H7 H 0.4757 0.6530 0.3767
N1 N 0.4359(3) 0.4656(3) 0.38710(12)
H8 H 0.4290 0.4996 0.4035
C5 C 0.3609(4) 0.3976(4) 0.3844(2)
H9 H 0.3651 0.3571 0.3690
H10 H 0.3253 0.4104 0.3697
C6 C 0.3257(4) 0.3644(5) 0.4265(3)
H11 H 0.2695 0.3256 0.4236
H12 H 0.3303 0.4074 0.4436
C7 C 0.3687(3) 0.3246(3) 0.44742(18)
H13 H 0.3386 0.2948 0.4711
H14 H 0.3724 0.2879 0.4287
N2 N 0.4464(2) 0.3849(2) 0.45945(11)
H15 H 0.4385 0.4196 0.4747
C8 C 0.4924(3) 0.3612(3) 0.48607(12)
C9 C 0.5755(3) 0.4235(3) 0.48257(12)
H16 H 0.5836 0.4706 0.4970
H17 H 0.6092 0.4056 0.4951
O7 O 0.59680(18) 0.44227(17) 0.44195(8)
C10 C 0.4814(3) 0.2816(3) 0.47619(11)
H18 H 0.5133 0.2705 0.4950
H19 H 0.4261 0.2420 0.4809
O8 O 0.50128(19) 0.27197(18) 0.43669(9)
C11 C 0.4648(4) 0.3556(3) 0.53048(13)
H20 H 0.4122 0.3093 0.5338
H21 H 0.5012 0.3498 0.5485
O9 O 0.4625(2) 0.4243(2) 0.54056(10)
H22 H 0.4165 0.4157 0.5384
Cu2 Cu 0.55195(3) 0.06526(4) 0.414603(15)
Mn4 Mn 0.56435(4) 0.15914(6) 0.335499(17)
Mn5 Mn 0.46259(4) 0.16034(6) 0.412049(18)
Mn6 Mn 0.65338(4) 0.24070(6) 0.405077(19)
Cl3 Cl 0.35609(8) 0.07233(12) 0.45499(4)
O10 O 0.65034(18) 0.16682(25) 0.36581(8)
O11 O 0.57008(17) 0.23545(25) 0.37255(8)
O12 O 0.47976(19) 0.07136(28) 0.37650(8)
O13 O 0.55706(19) 0.07496(27) 0.30323(9)
H31 H 0.6429 0.0080 0.3690
C18 C 0.6754(3) 0.0441(4) 0.44742(18)
H35 H 0.7052 0.0438 0.4711
H36 H 0.7121 0.0845 0.4287
N4 N 0.6151(2) 0.0615(3) 0.45945(11)
H37 H 0.5804 0.0189 0.4747
C19 C 0.6388(3) 0.1312(4) 0.48607(12)
C20 C 0.5765(3) 0.1520(4) 0.48257(12)
H38 H 0.5294 0.1130 0.4970
H39 H 0.5944 0.2036 0.4951
O15 O 0.55773(17) 0.15453(25) 0.44195(8)
C21 C 0.7184(3) 0.1998(4) 0.47619(11)
H40 H 0.7295 0.2428 0.4950
H41 H 0.7580 0.1841 0.4809
O16 O 0.72803(18) 0.22931(26) 0.43669(9)
C22 C 0.6444(3) 0.1092(5) 0.53048(13)
H42 H 0.6907 0.1029 0.5338
H43 H 0.6502 0.1514 0.5485
O17 O 0.5757(2) 0.0382(3) 0.54056(10)
H44 H 0.5843 0.0008 0.5384
Cu3 Cu 0.93474(4) 0.48669(3) 0.414603(15)
Mn7 Mn 0.84086(6) 0.40521(4) 0.335499(17)
Mn8 Mn 0.83966(6) 0.30225(4) 0.412049(18)
Mn9 Mn 0.75930(6) 0.41268(4) 0.405077(19)
Cl4 Cl 0.92767(12) 0.28376(9) 0.45499(4)
O18 O 0.83318(25) 0.48352(17) 0.36581(8)
O19 O 0.76455(25) 0.33463(18) 0.37255(8)
O20 O 0.92864(28) 0.4084(2) 0.37650(8)
O21 O 0.92504(27) 0.48210(19) 0.30323(9)
H53 H 0.9920 0.6349 0.3690
C29 C 0.9559(4) 0.6313(3) 0.44742(18)
H57 H 0.9562 0.6614 0.4711
H58 H 0.9155 0.6276 0.4287
N6 N 0.9385(3) 0.5536(2) 0.45945(11)
H59 H 0.9811 0.5615 0.4747
C30 C 0.8688(4) 0.5076(3) 0.48607(12)
C31 C 0.8480(4) 0.4245(3) 0.48257(12)
H60 H 0.8870 0.4164 0.4970
H61 H 0.7964 0.3908 0.4951
O23 O 0.84547(25) 0.40320(18) 0.44195(8)
C32 C 0.8002(4) 0.5186(3) 0.47619(11)
H62 H 0.7572 0.4867 0.4950
H63 H 0.8159 0.5739 0.4809
O24 O 0.77069(26) 0.49872(19) 0.43669(9)
C33 C 0.8908(5) 0.5352(4) 0.53048(13)
H64 H 0.8971 0.5878 0.5338
H65 H 0.8486 0.4988 0.5485
O25 O 0.9618(3) 0.5375(2) 0.54056(10)
H66 H 0.9992 0.5835 0.5384
Cu4 Cu 0.48669(3) 0.55195(3) 0.585397(15)
Mn10 Mn 0.73854(4) 0.23102(4) 0.331168(17)
Mn11 Mn 0.76898(4) 0.50753(6) 0.331168(17)
Mn12 Mn 0.49247(6) 0.26146(4) 0.331168(17)
Mn13 Mn 0.63558(4) 0.12926(4) 0.254618(18)
Mn14 Mn 0.87074(4) 0.50633(6) 0.254618(18)
Mn15 Mn 0.49367(6) 0.36442(4) 0.254618(18)
O26 O 0.81685(17) 0.31701(18) 0.30086(8)
O27 O 0.68299(18) 0.49985(25) 0.30086(8)
O28 O 0.50015(25) 0.18315(17) 0.30086(8)
O29 O 0.66796(18) 0.23675(17) 0.29412(8)
O30 O 0.76325(17) 0.43122(25) 0.29412(8)
O31 O 0.56878(25) 0.33204(18) 0.29412(8)
O32 O 0.81543(19) 0.22373(19) 0.36344(9)
O33 O 0.77627(19) 0.59171(27) 0.36344(9)
O34 O 0.40829(27) 0.18457(19) 0.36344(9)
O35 O 0.5375(2) 0.5757(2) 0.45944(10)
C12 C 0.4356(3) 0.9955(5) 0.35940(15)
H23 H 0.4089 0.9985 0.3350
H24 H 0.3950 0.9604 0.3786
C13 C 0.4869(3) 0.9619(4) 0.34894(14)
C14 C 0.5225(7) 0.9967(10) 0.3095(3)
H25 H 0.5621 0.9814 0.3037
H26 H 0.4810 0.9710 0.2891
C15 C 0.4281(7) 0.8765(10) 0.3417(3)
H27 H 0.3867 0.8738 0.3241
H28 H 0.4548 0.8531 0.3270
O14 O 0.3929(5) 0.8311(7) 0.3748(3)
H29 H 0.3470 0.8227 0.3767
N3 N 0.5344(3) 0.9703(4) 0.38710(12)
H30 H 0.5004 0.9294 0.4035
C16 C 0.6024(4) 0.9633(6) 0.3844(2)
H32 H 0.5896 0.9149 0.3697
C17 C 0.6356(5) 0.9613(6) 0.4265(3)
H33 H 0.6744 0.9439 0.4236
H34 H 0.5926 0.9229 0.4436
Cu5 Cu 0.44805(3) 0.93474(4) 0.585397(15)
O36 O 0.4243(2) 0.9618(3) 0.45944(10)
Cu1_2 Cu 0.17998(3) 0.78138(3) 0.747936(15)
Mn1_2 Mn 0.26146(4) 0.76898(4) 0.668832(17)
Mn2_2 Mn 0.36442(4) 0.87074(4) 0.745382(18)
Mn3_2 Mn 0.25399(4) 0.67995(4) 0.738410(19)
Cl2_2 Cl 0.38291(9) 0.97724(8) 0.78832(4)
O1_2 O 0.18315(17) 0.68299(18) 0.69914(8)
O2_2 O 0.33204(18) 0.76325(17) 0.70588(8)
O3_2 O 0.3334 0.6666 0.76400(14)
C1_2 C 0.2266(4) 0.8977(3) 0.69273(15)
H1_2 H 0.2563 0.9244 0.6683
H2_2 H 0.2321 0.9383 0.7119
O4_2 O 0.2583(2) 0.85357(19) 0.70983(8)
C2_2 C 0.1417(3) 0.8464(3) 0.68227(14)
C3_2 C 0.1409(7) 0.8108(7) 0.6428(3)
H3_2 H 0.0860 0.7712 0.6370
H4_2 H 0.1567 0.8523 0.6224
O5_2 O 0.18457(19) 0.77627(19) 0.63656(9)
C4_2 C 0.1151(7) 0.9052(7) 0.6750(3)
H5_2 H 0.1538 0.9466 0.6574
H6_2 H 0.0650 0.8785 0.6603
O6_2 O 0.1049(5) 0.9404(5) 0.7081(3)
H7_2 H 0.1424 0.9863 0.7100
N1_2 N 0.1026(3) 0.7989(3) 0.72043(12)
H8_2 H 0.0957 0.8329 0.7368
C5_2 C 0.0276(4) 0.7309(4) 0.7177(2)
H9_2 H 0.0318 0.6904 0.7023
C7_2 C 0.0354(3) 0.6579(3) 0.78075(18)
H13_2 H 0.0053 0.6281 0.8044
H14_2 H 0.0391 0.6212 0.7620
N2_2 N 0.1131(2) 0.7182(2) 0.79278(11)
H15_2 H 0.1052 0.7529 0.8080
C8_2 C 0.1591(3) 0.6945(3) 0.81940(12)
C9_2 C 0.2422(3) 0.7568(3) 0.81590(12)
H16_2 H 0.2503 0.8039 0.8303
H17_2 H 0.2759 0.7389 0.8284
O7_2 O 0.26347(18) 0.77560(17) 0.77528(8)
C10_2 C 0.1481(3) 0.6149(3) 0.80952(11)
H18_2 H 0.1800 0.6038 0.8283
H19_2 H 0.0928 0.5753 0.8142
O8_2 O 0.16795(19) 0.60530(18) 0.77002(9)
C11_2 C 0.1315(4) 0.6889(3) 0.86381(13)
H20_2 H 0.0789 0.6426 0.8671
H21_2 H 0.1679 0.6831 0.8818
O9_2 O 0.1292(2) 0.7576(2) 0.87389(10)
H22_2 H 0.0832 0.7490 0.8717
Cu2_2 Cu 0.21862(3) 0.39859(4) 0.747936(15)
Mn4_2 Mn 0.23102(4) 0.49247(6) 0.668832(17)
Mn5_2 Mn 0.12926(4) 0.49367(6) 0.745382(18)
Mn6_2 Mn 0.32005(4) 0.57403(6) 0.738410(19)
Cl3_2 Cl 0.02276(8) 0.40566(12) 0.78832(4)
O10_2 O 0.31701(18) 0.50015(25) 0.69914(8)
O11_2 O 0.23675(17) 0.56878(25) 0.70588(8)
C12_2 C 0.1023(3) 0.3288(5) 0.69273(15)
H23_2 H 0.0756 0.3318 0.6683
H24_2 H 0.0617 0.2937 0.7119
O12_2 O 0.14643(19) 0.40469(28) 0.70983(8)
C13_2 C 0.1536(3) 0.2952(4) 0.68227(14)
C14_2 C 0.1892(7) 0.3300(10) 0.6428(3)
H25_2 H 0.2288 0.3147 0.6370
H26_2 H 0.1477 0.3043 0.6224
O13_2 O 0.22373(19) 0.40829(27) 0.63656(9)
C15_2 C 0.0948(7) 0.2098(10) 0.6750(3)
H27_2 H 0.0534 0.2071 0.6574
H28_2 H 0.1215 0.1864 0.6603
O14_2 O 0.0596(5) 0.1644(7) 0.7081(3)
H29_2 H 0.0137 0.1560 0.7100
N3_2 N 0.2011(3) 0.3036(4) 0.72043(12)
H30_2 H 0.1671 0.2627 0.7368
C16_2 C 0.2691(4) 0.2966(6) 0.7177(2)
H31_2 H 0.3096 0.3413 0.7023
H32_2 H 0.2563 0.2482 0.7030
C17_2 C 0.3023(5) 0.2946(6) 0.7598(3)
H33_2 H 0.3411 0.2772 0.7569
H34_2 H 0.2593 0.2562 0.7769
C18_2 C 0.3421(3) 0.3774(4) 0.78075(18)
H35_2 H 0.3719 0.3771 0.8044
H36_2 H 0.3788 0.4178 0.7620
N4_2 N 0.2818(2) 0.3948(3) 0.79278(11)
H37_2 H 0.2471 0.3522 0.8080
C19_2 C 0.3055(3) 0.4645(4) 0.81940(12)
C20_2 C 0.2432(3) 0.4853(4) 0.81590(12)
H38_2 H 0.1961 0.4463 0.8303
H39_2 H 0.2611 0.5369 0.8284
O15_2 O 0.22440(17) 0.48786(25) 0.77528(8)
C21_2 C 0.3851(3) 0.5331(4) 0.80952(11)
H40_2 H 0.3962 0.5761 0.8283
H41_2 H 0.4247 0.5174 0.8142
O16_2 O 0.39470(18) 0.56264(26) 0.77002(9)
C22_2 C 0.3111(3) 0.4425(5) 0.86381(13)
H42_2 H 0.3574 0.4362 0.8671
H43_2 H 0.3169 0.4847 0.8818
O17_2 O 0.2424(2) 0.3715(3) 0.87389(10)
H44_2 H 0.2510 0.3341 0.8717
Cu3_2 Cu 0.60141(4) 0.82002(3) 0.747936(15)
Mn7_2 Mn 0.50753(6) 0.73854(4) 0.668832(17)
Mn8_2 Mn 0.50633(6) 0.63558(4) 0.745382(18)
Mn9_2 Mn 0.42597(6) 0.74601(4) 0.738410(19)
Cl4_2 Cl 0.59434(12) 0.61709(9) 0.78832(4)
O18_2 O 0.49985(25) 0.81685(17) 0.69914(8)
O19_2 O 0.43122(25) 0.66796(18) 0.70588(8)
C23_2 C 0.6712(5) 0.7734(4) 0.69273(15)
H45_2 H 0.6682 0.7437 0.6683
H46_2 H 0.7063 0.7679 0.7119
O20_2 O 0.59531(28) 0.7417(2) 0.70983(8)
C24_2 C 0.7048(4) 0.8583(3) 0.68227(14)
C25_2 C 0.6700(10) 0.8591(7) 0.6428(3)
H47_2 H 0.6853 0.9140 0.6370
H48_2 H 0.6957 0.8433 0.6224
O21_2 O 0.59171(27) 0.81543(19) 0.63656(9)
C26_2 C 0.7902(10) 0.8849(7) 0.6750(3)
H49_2 H 0.7929 0.8462 0.6574
H50_2 H 0.8136 0.9350 0.6603
O22_2 O 0.8356(7) 0.8951(5) 0.7081(3)
H51_2 H 0.8440 0.8576 0.7100
N5_2 N 0.6964(4) 0.8974(3) 0.72043(12)
H52_2 H 0.7373 0.9043 0.7368
C27_2 C 0.7034(6) 0.9724(4) 0.7177(2)
H53_2 H 0.6587 0.9682 0.7023
C29_2 C 0.6226(4) 0.9646(3) 0.78075(18)
H57_2 H 0.6229 0.9947 0.8044
H58_2 H 0.5822 0.9609 0.7620
N6_2 N 0.6052(3) 0.8869(2) 0.79278(11)
H59_2 H 0.6478 0.8948 0.8080
C30_2 C 0.5355(4) 0.8409(3) 0.81940(12)
C31_2 C 0.5147(4) 0.7578(3) 0.81590(12)
H60_2 H 0.5537 0.7497 0.8303
H61_2 H 0.4631 0.7241 0.8284
O23_2 O 0.51214(25) 0.73653(18) 0.77528(8)
C32_2 C 0.4669(4) 0.8519(3) 0.80952(11)
H62_2 H 0.4239 0.8200 0.8283
H63_2 H 0.4826 0.9072 0.8142
O24_2 O 0.43736(26) 0.83205(19) 0.77002(9)
C33_2 C 0.5575(5) 0.8685(4) 0.86381(13)
H64_2 H 0.5638 0.9211 0.8671
H65_2 H 0.5153 0.8321 0.8818
O25_2 O 0.6285(3) 0.8708(2) 0.87389(10)
H66_2 H 0.6659 0.9168 0.8717
Cu4_2 Cu 0.15336(3) 0.88528(3) 0.918730(15)
Cu5_2 Cu 0.11472(3) 0.26807(4) 0.918730(15)
Cu6_2 Cu 0.73193(4) 0.84664(3) 0.918730(15)
Mn10_2 Mn 0.40521(4) 0.56435(4) 0.664501(17)
Mn11_2 Mn 0.43565(4) 0.84086(6) 0.664501(17)
Mn12_2 Mn 0.15914(6) 0.59479(4) 0.664501(17)
Mn13_2 Mn 0.30225(4) 0.46259(4) 0.587951(18)
Mn14_2 Mn 0.53741(4) 0.83966(6) 0.587951(18)
Mn15_2 Mn 0.16034(6) 0.69775(4) 0.587951(18)
O26_2 O 0.48352(17) 0.65034(18) 0.63419(8)
O27_2 O 0.34966(18) 0.83318(25) 0.63419(8)
O28_2 O 0.16682(25) 0.51648(17) 0.63419(8)
O29_2 O 0.33463(18) 0.57008(17) 0.62745(8)
O30_2 O 0.42992(17) 0.76455(25) 0.62745(8)
O31_2 O 0.23545(25) 0.66537(18) 0.62745(8)
O32_2 O 0.48210(19) 0.55706(19) 0.69677(9)
O33_2 O 0.44294(19) 0.92504(27) 0.69677(9)
O34_2 O 0.07496(27) 0.51790(19) 0.69677(9)
O35_2 O 0.2042(2) 0.9090(2) 0.79277(10)
O36_2 O 0.0910(2) 0.2951(3) 0.79277(10)
O37_2 O 0.7049(3) 0.7958(2) 0.79277(10)
Mn2_3 Mn 0.03108(4) 0.20408(4) 0.078716(18)
Cl2_3 Cl 0.04957(9) 0.31058(8) 0.12166(4)
O3_3 O 0.0000 -0.0000 0.09734(14)
Cu3_3 Cu 0.26807(4) 0.15336(3) 0.081270(15)
Mn7_3 Mn 0.17419(6) 0.07188(4) 0.002166(17)
Mn9_3 Mn 0.09263(6) 0.07935(4) 0.071744(19)
O18_3 O 0.16651(25) 0.15019(17) 0.03248(8)
O19_3 O 0.09788(25) 0.00130(18) 0.03922(8)
C23_3 C 0.3378(5) 0.1068(4) 0.02607(15)
H45_3 H 0.3348 0.0771 0.0017
H46_3 H 0.3729 0.1013 0.0453
O20_3 O 0.26197(28) 0.0751(2) 0.04317(8)
C24_3 C 0.3714(4) 0.1917(3) 0.01561(14)
C26_3 C 0.4568(10) 0.2183(7) 0.0084(3)
O22_3 O 0.5022(7) 0.2285(5) 0.0415(3)
H51_3 H 0.5106 0.1910 0.0434
N5_3 N 0.3630(4) 0.2308(3) 0.05377(12)
H52_3 H 0.4039 0.2377 0.0702
C27_3 C 0.3700(6) 0.3058(4) 0.0511(2)
H53_3 H 0.3253 0.3016 0.0357
H54_2 H 0.4184 0.3414 0.0364
C28_2 C 0.3720(6) 0.3410(4) 0.0932(3)
H55_2 H 0.3894 0.3972 0.0903
H56_2 H 0.4104 0.3364 0.1103
C29_3 C 0.2892(4) 0.2980(3) 0.11409(18)
H57_3 H 0.2895 0.3281 0.1378
H58_3 H 0.2488 0.2943 0.0954
N6_3 N 0.2718(3) 0.2203(2) 0.12612(11)
H59_3 H 0.3144 0.2282 0.1414
C30_3 C 0.2021(4) 0.1743(3) 0.15274(12)
C31_3 C 0.1813(4) 0.0912(3) 0.14924(12)
H60_3 H 0.2203 0.0831 0.1637
H61_3 H 0.1297 0.0575 0.1618
O23_3 O 0.17880(25) 0.06987(18) 0.10862(8)
C32_3 C 0.1335(4) 0.1853(3) 0.14286(11)
H62_3 H 0.0905 0.1534 0.1617
H63_3 H 0.1492 0.2406 0.1476
O24_3 O 0.10402(26) 0.16539(19) 0.10336(9)
C33_3 C 0.2241(5) 0.2019(4) 0.19715(13)
H64_3 H 0.2304 0.2545 0.2005
H65_3 H 0.1819 0.1655 0.2152
O25_3 O 0.2951(3) 0.2042(2) 0.20723(10)
H66_3 H 0.3325 0.2502 0.2051
Cu6_3 Cu 0.39859(4) 0.17998(3) 0.252064(15)
O33_3 O 0.10961(19) 0.25837(27) 0.03010(9)
O37_3 O 0.3715(3) 0.1292(2) 0.12611(10)
C25_3 C 0.3366(10) 0.1925(7) 0.9762(3)
H47_3 H 0.3519 0.2474 0.9704
H48_3 H 0.3623 0.1767 0.9558
O21_3 O 0.25837(27) 0.14877(19) 0.96990(9)
H49_3 H 0.4595 0.1796 0.9908
H50_3 H 0.4802 0.2684 0.9937
Mn11_3 Mn 0.10232(4) 0.17419(6) 0.997834(17)
Mn14_3 Mn 0.20408(4) 0.17299(6) 0.921284(18)
O27_3 O 0.01633(18) 0.16651(25) 0.96752(8)
O30_3 O 0.09659(17) 0.09788(25) 0.96078(8)
Mn10_3 Mn 0.07188(4) 0.89768(4) 0.997834(17)
O26_3 O 0.15019(17) 0.98367(18) 0.96752(8)
O29_3 O 0.00130(18) 0.90341(17) 0.96078(8)
Cu1_3 Cu 0.84664(3) 0.11472(3) 0.081270(15)
Mn1_3 Mn 0.92812(4) 0.10232(4) 0.002166(17)
Mn3_3 Mn 0.92065(4) 0.01329(4) 0.071744(19)
O1_3 O 0.84981(17) 0.01633(18) 0.03248(8)
O2_3 O 0.99870(18) 0.09659(17) 0.03922(8)
O3_4 O 1.0000 -0.0000 0.09734(14)
C1_3 C 0.8932(4) 0.2311(3) 0.02607(15)
H1_3 H 0.9229 0.2578 0.0017
H2_3 H 0.8987 0.2717 0.0453
O4_3 O 0.9249(2) 0.18691(19) 0.04317(8)
C2_3 C 0.8083(3) 0.1798(3) 0.01561(14)
C4_3 C 0.7817(7) 0.2386(7) 0.0084(3)
O6_3 O 0.7715(5) 0.2738(5) 0.0415(3)
H7_3 H 0.8090 0.3197 0.0434
N1_3 N 0.7692(3) 0.1323(3) 0.05377(12)
H8_3 H 0.7623 0.1663 0.0702
C5_3 C 0.6942(4) 0.0643(4) 0.0511(2)
H9_3 H 0.6984 0.0238 0.0357
H10_2 H 0.6586 0.0771 0.0364
C6_2 C 0.6590(4) 0.0311(5) 0.0932(3)
H12_2 H 0.6636 0.0741 0.1103
N2_3 N 0.7797(2) 0.0516(2) 0.12612(11)
H15_3 H 0.7718 0.0863 0.1414
C8_3 C 0.8257(3) 0.0279(3) 0.15274(12)
C9_3 C 0.9088(3) 0.0902(3) 0.14924(12)
H16_3 H 0.9169 0.1373 0.1637
H17_3 H 0.9425 0.0723 0.1618
O7_3 O 0.93013(18) 0.10894(17) 0.10862(8)
C11_3 C 0.7981(4) 0.0223(3) 0.19715(13)
H21_3 H 0.8345 0.0165 0.2152
O9_3 O 0.7958(2) 0.0910(2) 0.20723(10)
H22_3 H 0.7498 0.0824 0.2051
Cu4_3 Cu 0.82002(3) 0.21862(3) 0.252064(15)
O35_3 O 0.8708(2) 0.2424(2) 0.12611(10)
O3_5 O 1.0000 1.0000 0.09734(14)
H11_2 H 0.6028 0.9923 0.0903
C7_3 C 0.7020(3) 0.9913(3) 0.11409(18)
H13_3 H 0.6719 0.9615 0.1378
H14_3 H 0.7057 0.9546 0.0954
C10_3 C 0.8147(3) 0.9483(3) 0.14286(11)
H18_3 H 0.8466 0.9372 0.1617
H19_3 H 0.7594 0.9087 0.1476
O8_3 O 0.83461(19) 0.93864(18) 0.10336(9)
H20_3 H 0.7455 0.9760 0.2005
Cu2_3 Cu 0.88528(3) 0.73193(4) 0.081270(15)
Mn4_3 Mn 0.89768(4) 0.82581(6) 0.002166(17)
Mn5_3 Mn 0.79592(4) 0.82701(6) 0.078716(18)
Mn6_3 Mn 0.98671(4) 0.90737(6) 0.071744(19)
Cl3_3 Cl 0.68942(8) 0.73900(12) 0.12166(4)
O10_3 O 0.98367(18) 0.83349(25) 0.03248(8)
O11_3 O 0.90341(17) 0.90212(25) 0.03922(8)
C12_3 C 0.7689(3) 0.6622(5) 0.02607(15)
H23_3 H 0.7422 0.6652 0.0017
H24_3 H 0.7283 0.6271 0.0453
O12_3 O 0.81309(19) 0.73803(28) 0.04317(8)
C13_3 C 0.8202(3) 0.6286(4) 0.01561(14)
C15_3 C 0.7614(7) 0.5432(10) 0.0084(3)
O14_3 O 0.7262(5) 0.4978(7) 0.0415(3)
H29_3 H 0.6803 0.4894 0.0434
N3_3 N 0.8677(3) 0.6370(4) 0.05377(12)
H30_3 H 0.8337 0.5961 0.0702
C16_3 C 0.9357(4) 0.6300(6) 0.0511(2)
H31_3 H 0.9762 0.6747 0.0357
H32_3 H 0.9229 0.5816 0.0364
C17_3 C 0.9689(5) 0.6280(6) 0.0932(3)
H34_3 H 0.9259 0.5896 0.1103
N4_3 N 0.9484(2) 0.7282(3) 0.12612(11)
H37_3 H 0.9137 0.6856 0.1414
C19_3 C 0.9721(3) 0.7979(4) 0.15274(12)
C20_3 C 0.9098(3) 0.8187(4) 0.14924(12)
H38_3 H 0.8627 0.7797 0.1637
H39_3 H 0.9277 0.8703 0.1618
O15_3 O 0.89106(17) 0.82120(25) 0.10862(8)
C22_3 C 0.9777(3) 0.7759(5) 0.19715(13)
H43_3 H 0.9835 0.8181 0.2152
O17_3 O 0.9090(2) 0.7049(3) 0.20723(10)
H44_3 H 0.9176 0.6675 0.2051
Cu5_3 Cu 0.78138(3) 0.60141(4) 0.252064(15)
O34_3 O 0.74163(27) 0.85123(19) 0.03010(9)
O36_3 O 0.7576(2) 0.6285(3) 0.12611(10)
C14_3 C 0.8558(7) 0.6634(10) 0.9762(3)
H25_3 H 0.8954 0.6481 0.9704
H26_3 H 0.8143 0.6377 0.9558
O13_3 O 0.89039(19) 0.74163(27) 0.96990(9)
H27_3 H 0.7200 0.5405 0.9908
H28_3 H 0.7881 0.5198 0.9937
Mn12_3 Mn 0.82581(6) 0.92812(4) 0.997834(17)
Mn13_3 Mn 0.96892(4) 0.79592(4) 0.921284(18)
O28_3 O 0.83349(25) 0.84981(17) 0.96752(8)
O31_3 O 0.90212(25) 0.99870(18) 0.96078(8)
C12_4 C 0.5644(3) 0.0045(5) 0.64060(15)
H23_4 H 0.5911 0.0015 0.6650
H24_4 H 0.6050 0.0396 0.6214
C13_4 C 0.5131(3) 0.0381(4) 0.65106(14)
C14_4 C 0.4775(7) 0.0033(10) 0.6905(3)
H25_4 H 0.4379 0.0186 0.6963
H26_4 H 0.5190 0.0290 0.7109
C15_4 C 0.5719(7) 0.1235(10) 0.6583(3)
H27_4 H 0.6133 0.1262 0.6759
H28_4 H 0.5452 0.1469 0.6730
O14_4 O 0.6071(5) 0.1689(7) 0.6252(3)
H29_4 H 0.6530 0.1773 0.6233
N3_4 N 0.4656(3) 0.0297(4) 0.61290(12)
H30_4 H 0.4996 0.0706 0.5965
C16_4 C 0.3976(4) 0.0367(6) 0.6156(2)
H32_4 H 0.4104 0.0851 0.6303
C17_4 C 0.3644(5) 0.0387(6) 0.5735(3)
H33_3 H 0.3256 0.0561 0.5764
H34_4 H 0.4074 0.0771 0.5564
Mn3_4 Mn 0.41268(4) 0.65338(4) 0.594923(19)
Cl2_4 Cl 0.28376(9) 0.35609(8) 0.54501(4)
O3_6 O 0.3333 0.6667 0.56933(14)
C1_4 C 0.4401(4) 0.4356(3) 0.64060(15)
H1_4 H 0.4104 0.4089 0.6650
H2_4 H 0.4346 0.3950 0.6214
O4_4 O 0.4084(2) 0.47976(19) 0.62350(8)
C2_4 C 0.5250(3) 0.4869(3) 0.65106(14)
C3_3 C 0.5258(7) 0.5225(7) 0.6905(3)
H3_3 H 0.5807 0.5621 0.6963
H4_3 H 0.5100 0.4810 0.7109
C4_4 C 0.5516(7) 0.4281(7) 0.6583(3)
H5_3 H 0.5129 0.3867 0.6759
H6_3 H 0.6017 0.4548 0.6730
O6_4 O 0.5618(5) 0.3929(5) 0.6252(3)
H7_4 H 0.5243 0.3470 0.6233
N1_4 N 0.5641(3) 0.5344(3) 0.61290(12)
H8_4 H 0.5710 0.5004 0.5965
C5_4 C 0.6391(4) 0.6024(4) 0.6156(2)
H9_4 H 0.6349 0.6429 0.6310
H10_3 H 0.6747 0.5896 0.6303
C6_3 C 0.6743(4) 0.6356(5) 0.5735(3)
H11_3 H 0.7305 0.6744 0.5764
H12_3 H 0.6697 0.5926 0.5564
C7_4 C 0.6313(3) 0.6754(3) 0.55258(18)
H13_4 H 0.6614 0.7052 0.5289
H14_4 H 0.6276 0.7121 0.5713
N2_4 N 0.5536(2) 0.6151(2) 0.54055(11)
H15_4 H 0.5615 0.5804 0.5253
C8_4 C 0.5076(3) 0.6388(3) 0.51393(12)
C9_4 C 0.4245(3) 0.5765(3) 0.51743(12)
H16_4 H 0.4164 0.5294 0.5030
H17_4 H 0.3908 0.5944 0.5049
O7_4 O 0.40320(18) 0.55773(17) 0.55805(8)
C10_4 C 0.5186(3) 0.7184(3) 0.52381(11)
H18_4 H 0.4867 0.7295 0.5050
H19_4 H 0.5739 0.7580 0.5191
O8_4 O 0.49872(19) 0.72803(18) 0.56331(9)
C11_4 C 0.5352(4) 0.6444(3) 0.46952(13)
H20_4 H 0.5878 0.6907 0.4662
H21_4 H 0.4988 0.6502 0.4515
H22_4 H 0.5835 0.5843 0.4616
Mn6_4 Mn 0.34662(4) 0.75930(6) 0.594923(19)
Cl3_4 Cl 0.64391(8) 0.92767(12) 0.54501(4)
O12_4 O 0.52024(19) 0.92864(28) 0.62350(8)
H31_4 H 0.3571 0.9920 0.6310
C18_3 C 0.3246(3) 0.9559(4) 0.55258(18)
H35_3 H 0.2948 0.9562 0.5289
H36_3 H 0.2879 0.9155 0.5713
N4_4 N 0.3849(2) 0.9385(3) 0.54055(11)
H37_4 H 0.4196 0.9811 0.5253
C19_4 C 0.3612(3) 0.8688(4) 0.51393(12)
C20_4 C 0.4235(3) 0.8480(4) 0.51743(12)
H38_4 H 0.4706 0.8870 0.5030
H39_4 H 0.4056 0.7964 0.5049
O15_4 O 0.44227(17) 0.84547(25) 0.55805(8)
C21_3 C 0.2816(3) 0.8002(4) 0.52381(11)
H40_3 H 0.2705 0.7572 0.5050
H41_3 H 0.2420 0.8159 0.5191
O16_3 O 0.27197(18) 0.77069(26) 0.56331(9)
C22_4 C 0.3556(3) 0.8908(5) 0.46952(13)
H42_3 H 0.3093 0.8971 0.4662
H43_4 H 0.3498 0.8486 0.4515
H44_4 H 0.4157 0.9992 0.4616
Mn9_4 Mn 0.24070(6) 0.58732(4) 0.594923(19)
Cl4_3 Cl 0.07233(12) 0.71624(9) 0.54501(4)
O20_4 O 0.07136(28) 0.5916(2) 0.62350(8)
H53_4 H 0.0080 0.3651 0.6310
C29_4 C 0.0441(4) 0.3687(3) 0.55258(18)
H57_4 H 0.0438 0.3386 0.5289
H58_4 H 0.0845 0.3724 0.5713
N6_4 N 0.0615(3) 0.4464(2) 0.54055(11)
H59_4 H 0.0189 0.4385 0.5253
C30_4 C 0.1312(4) 0.4924(3) 0.51393(12)
C31_4 C 0.1520(4) 0.5755(3) 0.51743(12)
H60_4 H 0.1130 0.5836 0.5030
H61_4 H 0.2036 0.6092 0.5049
O23_4 O 0.15453(25) 0.59680(18) 0.55805(8)
C32_4 C 0.1998(4) 0.4814(3) 0.52381(11)
H62_4 H 0.2428 0.5133 0.5050
H63_4 H 0.1841 0.4261 0.5191
O24_4 O 0.22931(26) 0.50128(19) 0.56331(9)
C33_4 C 0.1092(5) 0.4648(4) 0.46952(13)
H64_4 H 0.1029 0.4122 0.4662
H65_4 H 0.1514 0.5012 0.4515
H66_4 H 0.0008 0.4165 0.4616
C23_4 C 0.9955(5) 0.5599(4) 0.64060(15)
H45_4 H 0.9985 0.5896 0.6650
H46_4 H 0.9604 0.5654 0.6214
C24_4 C 0.9619(4) 0.4750(3) 0.65106(14)
C25_4 C 0.9967(10) 0.4742(7) 0.6905(3)
H47_4 H 0.9814 0.4193 0.6963
H48_4 H 0.9710 0.4900 0.7109
C26_4 C 0.8765(10) 0.4484(7) 0.6583(3)
H49_4 H 0.8738 0.4871 0.6759
H50_4 H 0.8531 0.3983 0.6730
O22_4 O 0.8311(7) 0.4382(5) 0.6252(3)
H51_4 H 0.8227 0.4757 0.6233
N5_4 N 0.9703(4) 0.4359(3) 0.61290(12)
H52_4 H 0.9294 0.4290 0.5965
C27_4 C 0.9633(6) 0.3609(4) 0.6156(2)
H54_3 H 0.9149 0.3253 0.6303
C28_3 C 0.9613(6) 0.3257(4) 0.5735(3)
H55_3 H 0.9439 0.2695 0.5764
H56_3 H 0.9229 0.3303 0.5564
Mn3_5 Mn 0.74601(4) 0.32005(4) 0.261590(19)
Cl2_5 Cl 0.61709(9) 0.02276(8) 0.21168(4)
O3_7 O 0.6666 0.3334 0.23600(14)
C1_5 C 0.7734(4) 0.1023(3) 0.30727(15)
H1_5 H 0.7437 0.0756 0.3317
H2_5 H 0.7679 0.0617 0.2881
O4_5 O 0.7417(2) 0.14643(19) 0.29017(8)
C2_5 C 0.8583(3) 0.1536(3) 0.31773(14)
C3_4 C 0.8591(7) 0.1892(7) 0.3572(3)
H3_4 H 0.9140 0.2288 0.3630
H4_4 H 0.8433 0.1477 0.3776
C4_5 C 0.8849(7) 0.0948(7) 0.3250(3)
H5_4 H 0.8462 0.0534 0.3426
H6_4 H 0.9350 0.1215 0.3397
O6_5 O 0.8951(5) 0.0596(5) 0.2919(3)
H7_5 H 0.8576 0.0137 0.2900
N1_5 N 0.8974(3) 0.2011(3) 0.27957(12)
H8_5 H 0.9043 0.1671 0.2632
C5_5 C 0.9724(4) 0.2691(4) 0.2823(2)
H9_5 H 0.9682 0.3096 0.2977
C7_5 C 0.9646(3) 0.3421(3) 0.21925(18)
H13_5 H 0.9947 0.3719 0.1956
H14_5 H 0.9609 0.3788 0.2380
N2_5 N 0.8869(2) 0.2818(2) 0.20722(11)
H15_5 H 0.8948 0.2471 0.1920
C8_5 C 0.8409(3) 0.3055(3) 0.18060(12)
C9_5 C 0.7578(3) 0.2432(3) 0.18410(12)
H16_5 H 0.7497 0.1961 0.1697
H17_5 H 0.7241 0.2611 0.1716
O7_5 O 0.73653(18) 0.22440(17) 0.22472(8)
C10_5 C 0.8519(3) 0.3851(3) 0.19048(11)
H18_5 H 0.8200 0.3962 0.1717
H19_5 H 0.9072 0.4247 0.1858
O8_5 O 0.83205(19) 0.39470(18) 0.22998(9)
C11_5 C 0.8685(4) 0.3111(3) 0.13619(13)
H20_5 H 0.9211 0.3574 0.1329
H21_5 H 0.8321 0.3169 0.1182
H22_5 H 0.9168 0.2510 0.1283
Mn6_5 Mn 0.67995(4) 0.42597(6) 0.261590(19)
Cl3_5 Cl 0.97724(8) 0.59434(12) 0.21168(4)
C12_5 C 0.8977(3) 0.6712(5) 0.30727(15)
H23_5 H 0.9244 0.6682 0.3317
H24_5 H 0.9383 0.7063 0.2881
O12_5 O 0.85357(19) 0.59531(28) 0.29017(8)
C13_5 C 0.8464(3) 0.7048(4) 0.31773(14)
C14_5 C 0.8108(7) 0.6700(10) 0.3572(3)
H25_5 H 0.7712 0.6853 0.3630
H26_5 H 0.8523 0.6957 0.3776
C15_5 C 0.9052(7) 0.7902(10) 0.3250(3)
H27_5 H 0.9466 0.7929 0.3426
H28_5 H 0.8785 0.8136 0.3397
O14_5 O 0.9404(5) 0.8356(7) 0.2919(3)
H29_5 H 0.9863 0.8440 0.2900
N3_5 N 0.7989(3) 0.6964(4) 0.27957(12)
H30_5 H 0.8329 0.7373 0.2632
C16_5 C 0.7309(4) 0.7034(6) 0.2823(2)
H31_5 H 0.6904 0.6587 0.2977
H32_5 H 0.7437 0.7518 0.2970
C17_5 C 0.6977(5) 0.7054(6) 0.2402(3)
H33_4 H 0.6589 0.7228 0.2431
H34_5 H 0.7407 0.7438 0.2231
C18_4 C 0.6579(3) 0.6226(4) 0.21925(18)
H35_4 H 0.6281 0.6229 0.1956
H36_4 H 0.6212 0.5822 0.2380
N4_5 N 0.7182(2) 0.6052(3) 0.20722(11)
H37_5 H 0.7529 0.6478 0.1920
C19_5 C 0.6945(3) 0.5355(4) 0.18060(12)
C20_5 C 0.7568(3) 0.5147(4) 0.18410(12)
H38_5 H 0.8039 0.5537 0.1697
H39_5 H 0.7389 0.4631 0.1716
O15_5 O 0.77560(17) 0.51214(25) 0.22472(8)
C21_4 C 0.6149(3) 0.4669(4) 0.19048(11)
H40_4 H 0.6038 0.4239 0.1717
H41_4 H 0.5753 0.4826 0.1858
O16_4 O 0.60530(18) 0.43736(26) 0.22998(9)
C22_5 C 0.6889(3) 0.5575(5) 0.13619(13)
H42_4 H 0.6426 0.5638 0.1329
H43_5 H 0.6831 0.5153 0.1182
H44_5 H 0.7490 0.6659 0.1283
Mn9_5 Mn 0.57403(6) 0.25399(4) 0.261590(19)
Cl4_4 Cl 0.40566(12) 0.38291(9) 0.21168(4)
C23_5 C 0.3288(5) 0.2266(4) 0.30727(15)
H45_5 H 0.3318 0.2563 0.3317
H46_5 H 0.2937 0.2321 0.2881
O20_5 O 0.40469(28) 0.2583(2) 0.29017(8)
C24_5 C 0.2952(4) 0.1417(3) 0.31773(14)
C25_5 C 0.3300(10) 0.1409(7) 0.3572(3)
H47_5 H 0.3147 0.0860 0.3630
H48_5 H 0.3043 0.1567 0.3776
C26_5 C 0.2098(10) 0.1151(7) 0.3250(3)
H49_5 H 0.2071 0.1538 0.3426
H50_5 H 0.1864 0.0650 0.3397
O22_5 O 0.1644(7) 0.1049(5) 0.2919(3)
H51_5 H 0.1560 0.1424 0.2900
N5_5 N 0.3036(4) 0.1026(3) 0.27957(12)
H52_5 H 0.2627 0.0957 0.2632
C27_5 C 0.2966(6) 0.0276(4) 0.2823(2)
H53_5 H 0.3413 0.0318 0.2977
C29_5 C 0.3774(4) 0.0354(3) 0.21925(18)
H57_5 H 0.3771 0.0053 0.1956
H58_5 H 0.4178 0.0391 0.2380
N6_5 N 0.3948(3) 0.1131(2) 0.20722(11)
H59_5 H 0.3522 0.1052 0.1920
C30_5 C 0.4645(4) 0.1591(3) 0.18060(12)
C31_5 C 0.4853(4) 0.2422(3) 0.18410(12)
H60_5 H 0.4463 0.2503 0.1697
H61_5 H 0.5369 0.2759 0.1716
O23_5 O 0.48786(25) 0.26347(18) 0.22472(8)
C32_5 C 0.5331(4) 0.1481(3) 0.19048(11)
H62_5 H 0.5761 0.1800 0.1717
H63_5 H 0.5174 0.0928 0.1858
O24_5 O 0.56264(26) 0.16795(19) 0.22998(9)
C33_5 C 0.4425(5) 0.1315(4) 0.13619(13)
H64_5 H 0.4362 0.0789 0.1329
H65_5 H 0.4847 0.1679 0.1182
H66_5 H 0.3341 0.0832 0.1283
C14_6 C 0.1442(7) 0.3366(10) 0.0238(3)
H25_6 H 0.1046 0.3519 0.0296
H26_6 H 0.1857 0.3623 0.0442
H27_6 H 0.2800 0.4595 0.0092
H28_6 H 0.2119 0.4802 0.0063
O3_8 O -0.0000 0.0000 0.90266(14)
H11_4 H 0.3972 0.0077 0.9097
C7_6 C 0.2980(3) 0.0087(3) 0.88591(18)
H13_6 H 0.3281 0.0385 0.8622
H14_6 H 0.2943 0.0454 0.9046
C10_6 C 0.1853(3) 0.0517(3) 0.85714(11)
H18_6 H 0.1534 0.0628 0.8383
H19_6 H 0.2406 0.0913 0.8524
O8_6 O 0.16539(19) 0.06136(18) 0.89664(9)
H20_6 H 0.2545 0.0240 0.7995
Mn6_6 Mn 0.01329(4) 0.09263(6) 0.928256(19)
Cl3_6 Cl 0.31058(8) 0.26100(12) 0.87834(4)
C12_6 C 0.2311(3) 0.3378(5) 0.97393(15)
H23_6 H 0.2578 0.3348 0.9983
H24_6 H 0.2717 0.3729 0.9547
O12_6 O 0.18691(19) 0.26197(28) 0.95683(8)
C13_6 C 0.1798(3) 0.3714(4) 0.98439(14)
C15_6 C 0.2386(7) 0.4568(10) 0.9916(3)
O14_6 O 0.2738(5) 0.5022(7) 0.9585(3)
H29_6 H 0.3197 0.5106 0.9566
N3_6 N 0.1323(3) 0.3630(4) 0.94623(12)
H30_6 H 0.1663 0.4039 0.9298
C16_6 C 0.0643(4) 0.3700(6) 0.9489(2)
H31_6 H 0.0238 0.3253 0.9643
H32_6 H 0.0771 0.4184 0.9636
C17_6 C 0.0311(5) 0.3720(6) 0.9068(3)
H34_6 H 0.0741 0.4104 0.8897
N4_6 N 0.0516(2) 0.2718(3) 0.87388(11)
H37_6 H 0.0863 0.3144 0.8586
C19_6 C 0.0279(3) 0.2021(4) 0.84726(12)
C20_6 C 0.0902(3) 0.1813(4) 0.85076(12)
H38_6 H 0.1373 0.2203 0.8363
H39_6 H 0.0723 0.1297 0.8382
O15_6 O 0.10894(17) 0.17880(25) 0.89138(8)
C22_6 C 0.0223(3) 0.2241(5) 0.80285(13)
H43_6 H 0.0165 0.1819 0.7848
H44_6 H 0.0824 0.3325 0.7949
Mn3_6 Mn 0.07935(4) 0.98671(4) 0.928256(19)
O3_9 O -0.0000 1.0000 0.90266(14)
C1_6 C 0.1068(4) 0.7689(3) 0.97393(15)
H1_6 H 0.0771 0.7422 0.9983
H2_6 H 0.1013 0.7283 0.9547
O4_6 O 0.0751(2) 0.81309(19) 0.95683(8)
C2_6 C 0.1917(3) 0.8202(3) 0.98439(14)
C4_6 C 0.2183(7) 0.7614(7) 0.9916(3)
O6_6 O 0.2285(5) 0.7262(5) 0.9585(3)
H7_6 H 0.1910 0.6803 0.9566
N1_6 N 0.2308(3) 0.8677(3) 0.94623(12)
H8_6 H 0.2377 0.8337 0.9298
C5_6 C 0.3058(4) 0.9357(4) 0.9489(2)
H9_6 H 0.3016 0.9762 0.9643
H10_4 H 0.3414 0.9229 0.9636
C6_4 C 0.3410(4) 0.9689(5) 0.9068(3)
H12_4 H 0.3364 0.9259 0.8897
N2_6 N 0.2203(2) 0.9484(2) 0.87388(11)
H15_6 H 0.2282 0.9137 0.8586
C8_6 C 0.1743(3) 0.9721(3) 0.84726(12)
C9_6 C 0.0912(3) 0.9098(3) 0.85076(12)
H16_6 H 0.0831 0.8627 0.8363
H17_6 H 0.0575 0.9277 0.8382
O7_6 O 0.06987(18) 0.89106(17) 0.89138(8)
C11_6 C 0.2019(4) 0.9777(3) 0.80285(13)
H21_6 H 0.1655 0.9835 0.7848
H22_6 H 0.2502 0.9176 0.7949
C25_6 C 0.6634(10) 0.8075(7) 0.0238(3)
H47_6 H 0.6481 0.7526 0.0296
H48_6 H 0.6377 0.8233 0.0442
H49_6 H 0.5405 0.8204 0.0092
H50_6 H 0.5198 0.7316 0.0063
Cl2_6 Cl 0.95043(9) 0.68942(8) 0.87834(4)
O3_10 O 1.0000 1.0000 0.90266(14)
Mn9_6 Mn 0.90737(6) 0.92065(4) 0.928256(19)
C23_6 C 0.6622(5) 0.8932(4) 0.97393(15)
H45_6 H 0.6652 0.9229 0.9983
H46_6 H 0.6271 0.8987 0.9547
O20_6 O 0.73803(28) 0.9249(2) 0.95683(8)
C24_6 C 0.6286(4) 0.8083(3) 0.98439(14)
C26_6 C 0.5432(10) 0.7817(7) 0.9916(3)
O22_6 O 0.4978(7) 0.7715(5) 0.9585(3)
H51_6 H 0.4894 0.8090 0.9566
N5_6 N 0.6370(4) 0.7692(3) 0.94623(12)
H52_6 H 0.5961 0.7623 0.9298
C27_6 C 0.6300(6) 0.6942(4) 0.9489(2)
H53_6 H 0.6747 0.6984 0.9643
H54_4 H 0.5816 0.6586 0.9636
C28_4 C 0.6280(6) 0.6590(4) 0.9068(3)
H55_4 H 0.6106 0.6028 0.9097
H56_4 H 0.5896 0.6636 0.8897
C29_6 C 0.7108(4) 0.7020(3) 0.88591(18)
H57_6 H 0.7105 0.6719 0.8622
H58_6 H 0.7512 0.7057 0.9046
N6_6 N 0.7282(3) 0.7797(2) 0.87388(11)
H59_6 H 0.6856 0.7718 0.8586
C30_6 C 0.7979(4) 0.8257(3) 0.84726(12)
C31_6 C 0.8187(4) 0.9088(3) 0.85076(12)
H60_6 H 0.7797 0.9169 0.8363
H61_6 H 0.8703 0.9425 0.8382
O23_6 O 0.82120(25) 0.93013(18) 0.89138(8)
C32_6 C 0.8665(4) 0.8147(3) 0.85714(11)
H62_6 H 0.9095 0.8466 0.8383
H63_6 H 0.8508 0.7594 0.8524
O24_6 O 0.89598(26) 0.83461(19) 0.89664(9)
C33_6 C 0.7759(5) 0.7981(4) 0.80285(13)
H64_6 H 0.7696 0.7455 0.7995
H65_6 H 0.8181 0.8345 0.7848
H66_6 H 0.6675 0.7498 0.7949
H54_5 H 0.7518 0.0080 0.7030
C28_5 C 0.7054(6) 0.0076(4) 0.7598(3)
H55_5 H 0.7228 0.0638 0.7569
H56_5 H 0.7438 0.0030 0.7769
H10_5 H 0.9920 0.7437 0.7030
C6_5 C 0.9924(4) 0.6977(5) 0.7598(3)
H11_5 H 0.9362 0.6589 0.7569
H12_5 H 0.9970 0.7407 0.7769
O3_11 O 0.0000 1.0000 0.09734(14)
H33_5 H 0.0077 0.6106 0.0903
C18_5 C 0.0087(3) 0.7108(4) 0.11409(18)
H35_5 H 0.0385 0.7105 0.1378
H36_5 H 0.0454 0.7512 0.0954
C21_5 C 0.0517(3) 0.8665(4) 0.14286(11)
H40_5 H 0.0628 0.9095 0.1617
H41_5 H 0.0913 0.8508 0.1476
O16_5 O 0.06136(18) 0.89598(26) 0.10336(9)
H42_5 H 0.0240 0.7696 0.2005
Mn8_3 Mn 0.17299(6) 0.96892(4) 0.078716(18)
Cl4_5 Cl 0.26100(12) 0.95043(9) 0.12166(4)
O32_3 O 0.14877(19) 0.89039(19) 0.03010(9)
C3_5 C 0.1925(7) 0.8558(7) 0.0238(3)
H3_5 H 0.2474 0.8954 0.0296
H4_5 H 0.1767 0.8143 0.0442
H5_5 H 0.1796 0.7200 0.0092
H6_5 H 0.2684 0.7881 0.0063
C3_6 C 0.8075(7) 0.1442(7) 0.9762(3)
H3_6 H 0.7526 0.1046 0.9704
H4_6 H 0.8233 0.1857 0.9558
O5_3 O 0.85123(19) 0.10961(19) 0.96990(9)
H5_6 H 0.8204 0.2800 0.9908
H6_6 H 0.7316 0.2119 0.9937
Mn15_3 Mn 0.82701(6) 0.03108(4) 0.921284(18)
O3_12 O 1.0000 0.0000 0.90266(14)
H33_6 H 0.9923 0.3894 0.9097
C18_6 C 0.9913(3) 0.2892(4) 0.88591(18)
H35_6 H 0.9615 0.2895 0.8622
H36_6 H 0.9546 0.2488 0.9046
C21_6 C 0.9483(3) 0.1335(4) 0.85714(11)
H40_6 H 0.9372 0.0905 0.8383
H41_6 H 0.9087 0.1492 0.8524
O16_6 O 0.93864(18) 0.10402(26) 0.89664(9)
H42_6 H 0.9760 0.2304 0.7995
Cl4_6 Cl 0.73900(12) 0.04957(9) 0.87834(4)
H10_6 H 0.0080 0.2563 0.2970
C6_6 C 0.0076(4) 0.3023(5) 0.2402(3)
H11_6 H 0.0638 0.3411 0.2431
H12_6 H 0.0030 0.2593 0.2231
H54_6 H 0.2482 0.9920 0.2970
C28_6 C 0.2946(6) 0.9924(4) 0.2402(3)
H55_6 H 0.2772 0.9362 0.2431
H56_6 H 0.2562 0.9970 0.2231
loop_
_geom_bond_atom_site_label_1
_geom_bond_atom_site_label_2
_geom_bond_site_symmetry_1
_geom_bond_site_symmetry_2
C23 H45 1_555 1_555
H46 C23 1_555 1_555
C24 C23 1_555 1_555
C25 C24 1_555 1_555
H47 C25 1_555 1_555
H48 C25 1_555 1_555
C26 C24 1_555 1_555
H49 C26 1_555 1_555
H50 C26 1_555 1_555
O22 C26 1_555 1_555
H51 O22 1_555 1_555
H52 N5 1_555 1_555
C27 N5 1_555 1_555
H54 C27 1_555 1_555
C28 C27 1_555 1_555
H55 C28 1_555 1_555
H56 C28 1_555 1_555
C24 N5 1_555 1_555
Cu1 O1 1_555 1_555
Mn1 O1 1_555 1_555
Mn2 Cl2 1_555 1_555
Mn3 O1 1_555 1_555
O1 Mn12 1_555 1_555
O2 Mn1 1_555 1_555
O3 Mn3 1_555 1_555
C1 H1 1_555 1_555
H2 C1 1_555 1_555
O4 Cu1 1_555 1_555
C2 C1 1_555 1_555
C3 C2 1_555 1_555
H3 C3 1_555 1_555
H4 C3 1_555 1_555
O5 Mn1 1_555 1_555
C4 C2 1_555 1_555
H5 C4 1_555 1_555
H6 C4 1_555 1_555
O6 C4 1_555 1_555
H7 O6 1_555 1_555
N1 Cu1 1_555 1_555
H8 N1 1_555 1_555
C5 N1 1_555 1_555
H9 C5 1_555 1_555
H10 C5 1_555 1_555
C6 C5 1_555 1_555
H11 C6 1_555 1_555
H12 C6 1_555 1_555
C7 C6 1_555 1_555
H13 C7 1_555 1_555
H14 C7 1_555 1_555
N2 Cu1 1_555 1_555
H15 N2 1_555 1_555
C8 N2 1_555 1_555
C9 C8 1_555 1_555
H16 C9 1_555 1_555
H17 C9 1_555 1_555
O7 Cu1 1_555 1_555
C10 C8 1_555 1_555
H18 C10 1_555 1_555
H19 C10 1_555 1_555
O8 Mn3 1_555 1_555
C11 C8 1_555 1_555
H20 C11 1_555 1_555
H21 C11 1_555 1_555
O9 C11 1_555 1_555
H22 O9 1_555 1_555
Cu2 O10 1_555 1_555
Mn4 O10 1_555 1_555
Mn5 O8 1_555 1_555
Mn6 O3 1_555 1_555
Cl3 Mn5 1_555 1_555
O10 Mn6 1_555 1_555
O11 Mn3 1_555 1_555
O12 Cu2 1_555 1_555
O13 Mn4 1_555 1_555
H35 C18 1_555 1_555
H36 C18 1_555 1_555
N4 Cu2 1_555 1_555
H37 N4 1_555 1_555
C19 N4 1_555 1_555
C20 C19 1_555 1_555
H38 C20 1_555 1_555
H39 C20 1_555 1_555
O15 Cu2 1_555 1_555
C21 C19 1_555 1_555
H40 C21 1_555 1_555
H41 C21 1_555 1_555
O16 Mn6 1_555 1_555
C22 C19 1_555 1_555
H42 C22 1_555 1_555
H43 C22 1_555 1_555
O17 C22 1_555 1_555
H44 O17 1_555 1_555
Cu3 O18 1_555 1_555
Mn7 O18 1_555 1_555
Mn8 O16 1_555 1_555
Mn9 O2 1_555 1_555
Cl4 Mn8 1_555 1_555
O18 Mn9 1_555 1_555
O19 Mn6 1_555 1_555
O20 Cu3 1_555 1_555
O21 Mn7 1_555 1_555
H57 C29 1_555 1_555
H58 C29 1_555 1_555
N6 Cu3 1_555 1_555
H59 N6 1_555 1_555
C30 N6 1_555 1_555
C31 C30 1_555 1_555
H60 C31 1_555 1_555
H61 C31 1_555 1_555
O23 Cu3 1_555 1_555
C32 C30 1_555 1_555
H62 C32 1_555 1_555
H63 C32 1_555 1_555
O24 Mn2 1_555 1_555
C33 C30 1_555 1_555
H64 C33 1_555 1_555
H65 C33 1_555 1_555
O25 C33 1_555 1_555
H66 O25 1_555 1_555
Cu4 O9 1_555 1_555
Mn10 O10 1_555 1_555
Mn11 O2 1_555 1_555
Mn12 O11 1_555 1_555
Mn13 O13 1_555 1_555
Mn14 O21 1_555 1_555
Mn15 O5 1_555 1_555
O26 Mn7 1_555 1_555
O27 Mn1 1_555 1_555
O28 Mn4 1_555 1_555
O29 Mn4 1_555 1_555
O30 Mn7 1_555 1_555
O31 Mn1 1_555 1_555
O32 Mn8 1_555 1_555
O33 Mn2 1_555 1_555
O34 Mn5 1_555 1_555
O35 Cu1 1_555 1_555
Mn1 O4 1_555 1_555
Mn2 O2 1_555 1_555
Mn2 O4 1_555 1_555
Mn2 O7 1_555 1_555
Mn3 O2 1_555 1_555
Mn3 O7 1_555 1_555
O3 Mn9 1_555 1_555
C1 O4 1_555 1_555
C2 N1 1_555 1_555
C3 O5 1_555 1_555
C7 N2 1_555 1_555
C9 O7 1_555 1_555
C10 O8 1_555 1_555
Mn4 O11 1_555 1_555
Mn4 O12 1_555 1_555
Mn5 O11 1_555 1_555
Mn5 O12 1_555 1_555
Mn5 O15 1_555 1_555
Mn6 O11 1_555 1_555
Mn6 O15 1_555 1_555
C18 N4 1_555 1_555
C20 O15 1_555 1_555
C21 O16 1_555 1_555
Mn7 O19 1_555 1_555
Mn7 O20 1_555 1_555
Mn8 O19 1_555 1_555
Mn8 O20 1_555 1_555
Mn8 O23 1_555 1_555
Mn9 O19 1_555 1_555
Mn9 O23 1_555 1_555
Mn9 O24 1_555 1_555
O18 Mn11 1_555 1_555
O19 Mn10 1_555 1_555
C29 N6 1_555 1_555
C31 O23 1_555 1_555
C32 O24 1_555 1_555
Mn10 O26 1_555 1_555
Mn10 O29 1_555 1_555
Mn10 O32 1_555 1_555
Mn11 O27 1_555 1_555
Mn11 O30 1_555 1_555
Mn11 O33 1_555 1_555
Mn12 O28 1_555 1_555
Mn12 O31 1_555 1_555
Mn12 O34 1_555 1_555
Mn13 O29 1_555 1_555
Mn14 O30 1_555 1_555
Mn15 O31 1_555 1_555
C12 H23 1_555 1_555
H24 C12 1_555 1_555
C13 C12 1_555 1_555
C14 C13 1_555 1_555
H25 C14 1_555 1_555
H26 C14 1_555 1_555
C15 C13 1_555 1_555
H27 C15 1_555 1_555
H28 C15 1_555 1_555
O14 C15 1_555 1_555
H29 O14 1_555 1_555
H30 N3 1_555 1_555
C16 N3 1_555 1_555
H32 C16 1_555 1_555
C17 C16 1_555 1_555
H33 C17 1_555 1_555
H34 C17 1_555 1_555
C13 N3 1_555 1_555
Cu1_2 O1_2 1_555 1_555
Mn1_2 O1_2 1_555 1_555
Mn2_2 Cl2_2 1_555 1_555
Mn3_2 O1_2 1_555 1_555
O1_2 Mn12_2 1_555 1_555
O2_2 Mn1_2 1_555 1_555
O3_2 Mn3_2 1_555 1_555
C1_2 H1_2 1_555 1_555
H2_2 C1_2 1_555 1_555
O4_2 Cu1_2 1_555 1_555
C2_2 C1_2 1_555 1_555
C3_2 C2_2 1_555 1_555
H3_2 C3_2 1_555 1_555
H4_2 C3_2 1_555 1_555
O5_2 Mn1_2 1_555 1_555
C4_2 C2_2 1_555 1_555
H5_2 C4_2 1_555 1_555
H6_2 C4_2 1_555 1_555
O6_2 C4_2 1_555 1_555
H7_2 O6_2 1_555 1_555
N1_2 Cu1_2 1_555 1_555
H8_2 N1_2 1_555 1_555
C5_2 N1_2 1_555 1_555
H9_2 C5_2 1_555 1_555
H13_2 C7_2 1_555 1_555
H14_2 C7_2 1_555 1_555
N2_2 Cu1_2 1_555 1_555
H15_2 N2_2 1_555 1_555
C8_2 N2_2 1_555 1_555
C9_2 C8_2 1_555 1_555
H16_2 C9_2 1_555 1_555
H17_2 C9_2 1_555 1_555
O7_2 Cu1_2 1_555 1_555
C10_2 C8_2 1_555 1_555
H18_2 C10_2 1_555 1_555
H19_2 C10_2 1_555 1_555
O8_2 Mn3_2 1_555 1_555
C11_2 C8_2 1_555 1_555
H20_2 C11_2 1_555 1_555
H21_2 C11_2 1_555 1_555
O9_2 C11_2 1_555 1_555
H22_2 O9_2 1_555 1_555
Cu2_2 O10_2 1_555 1_555
Mn4_2 O10_2 1_555 1_555
Mn5_2 O8_2 1_555 1_555
Mn6_2 O3_2 1_555 1_555
Cl3_2 Mn5_2 1_555 1_555
O10_2 Mn6_2 1_555 1_555
O11_2 Mn3_2 1_555 1_555
C12_2 H23_2 1_555 1_555
H24_2 C12_2 1_555 1_555
O12_2 Cu2_2 1_555 1_555
C13_2 C12_2 1_555 1_555
C14_2 C13_2 1_555 1_555
H25_2 C14_2 1_555 1_555
H26_2 C14_2 1_555 1_555
O13_2 Mn4_2 1_555 1_555
C15_2 C13_2 1_555 1_555
H27_2 C15_2 1_555 1_555
H28_2 C15_2 1_555 1_555
O14_2 C15_2 1_555 1_555
H29_2 O14_2 1_555 1_555
N3_2 Cu2_2 1_555 1_555
H30_2 N3_2 1_555 1_555
C16_2 N3_2 1_555 1_555
H31_2 C16_2 1_555 1_555
H32_2 C16_2 1_555 1_555
C17_2 C16_2 1_555 1_555
H33_2 C17_2 1_555 1_555
H34_2 C17_2 1_555 1_555
C18_2 C17_2 1_555 1_555
H35_2 C18_2 1_555 1_555
H36_2 C18_2 1_555 1_555
N4_2 Cu2_2 1_555 1_555
H37_2 N4_2 1_555 1_555
C19_2 N4_2 1_555 1_555
C20_2 C19_2 1_555 1_555
H38_2 C20_2 1_555 1_555
H39_2 C20_2 1_555 1_555
O15_2 Cu2_2 1_555 1_555
C21_2 C19_2 1_555 1_555
H40_2 C21_2 1_555 1_555
H41_2 C21_2 1_555 1_555
O16_2 Mn6_2 1_555 1_555
C22_2 C19_2 1_555 1_555
H42_2 C22_2 1_555 1_555
H43_2 C22_2 1_555 1_555
O17_2 C22_2 1_555 1_555
H44_2 O17_2 1_555 1_555
Cu3_2 O18_2 1_555 1_555
Mn7_2 O18_2 1_555 1_555
Mn8_2 O16_2 1_555 1_555
Mn9_2 O2_2 1_555 1_555
Cl4_2 Mn8_2 1_555 1_555
O18_2 Mn9_2 1_555 1_555
O19_2 Mn6_2 1_555 1_555
C23_2 H45_2 1_555 1_555
H46_2 C23_2 1_555 1_555
O20_2 Cu3_2 1_555 1_555
C24_2 C23_2 1_555 1_555
C25_2 C24_2 1_555 1_555
H47_2 C25_2 1_555 1_555
H48_2 C25_2 1_555 1_555
O21_2 Mn7_2 1_555 1_555
C26_2 C24_2 1_555 1_555
H49_2 C26_2 1_555 1_555
H50_2 C26_2 1_555 1_555
O22_2 C26_2 1_555 1_555
H51_2 O22_2 1_555 1_555
N5_2 Cu3_2 1_555 1_555
H52_2 N5_2 1_555 1_555
C27_2 N5_2 1_555 1_555
H53_2 C27_2 1_555 1_555
H57_2 C29_2 1_555 1_555
H58_2 C29_2 1_555 1_555
N6_2 Cu3_2 1_555 1_555
H59_2 N6_2 1_555 1_555
C30_2 N6_2 1_555 1_555
C31_2 C30_2 1_555 1_555
H60_2 C31_2 1_555 1_555
H61_2 C31_2 1_555 1_555
O23_2 Cu3_2 1_555 1_555
C32_2 C30_2 1_555 1_555
H62_2 C32_2 1_555 1_555
H63_2 C32_2 1_555 1_555
O24_2 Mn2_2 1_555 1_555
C33_2 C30_2 1_555 1_555
H64_2 C33_2 1_555 1_555
H65_2 C33_2 1_555 1_555
O25_2 C33_2 1_555 1_555
H66_2 O25_2 1_555 1_555
Cu4_2 O9_2 1_555 1_555
Cu5_2 O17_2 1_555 1_555
Cu6_2 O25_2 1_555 1_555
Mn10_2 O10_2 1_555 1_555
Mn11_2 O2_2 1_555 1_555
Mn12_2 O11_2 1_555 1_555
Mn13_2 O13_2 1_555 1_555
Mn14_2 O21_2 1_555 1_555
Mn15_2 O5_2 1_555 1_555
O26_2 Mn7_2 1_555 1_555
O27_2 Mn1_2 1_555 1_555
O28_2 Mn4_2 1_555 1_555
O29_2 Mn4_2 1_555 1_555
O30_2 Mn7_2 1_555 1_555
O31_2 Mn1_2 1_555 1_555
O32_2 Mn8_2 1_555 1_555
O33_2 Mn2_2 1_555 1_555
O34_2 Mn5_2 1_555 1_555
O35_2 Cu1_2 1_555 1_555
O36_2 Cu2_2 1_555 1_555
O37_2 Cu3_2 1_555 1_555
Mn1_2 O4_2 1_555 1_555
Mn2_2 O2_2 1_555 1_555
Mn2_2 O4_2 1_555 1_555
Mn2_2 O7_2 1_555 1_555
Mn3_2 O2_2 1_555 1_555
Mn3_2 O7_2 1_555 1_555
O3_2 Mn9_2 1_555 1_555
C1_2 O4_2 1_555 1_555
C2_2 N1_2 1_555 1_555
C3_2 O5_2 1_555 1_555
C7_2 N2_2 1_555 1_555
C9_2 O7_2 1_555 1_555
C10_2 O8_2 1_555 1_555
Mn4_2 O11_2 1_555 1_555
Mn4_2 O12_2 1_555 1_555
Mn5_2 O11_2 1_555 1_555
Mn5_2 O12_2 1_555 1_555
Mn5_2 O15_2 1_555 1_555
Mn6_2 O11_2 1_555 1_555
Mn6_2 O15_2 1_555 1_555
C12_2 O12_2 1_555 1_555
C13_2 N3_2 1_555 1_555
C14_2 O13_2 1_555 1_555
C18_2 N4_2 1_555 1_555
C20_2 O15_2 1_555 1_555
C21_2 O16_2 1_555 1_555
Mn7_2 O19_2 1_555 1_555
Mn7_2 O20_2 1_555 1_555
Mn8_2 O19_2 1_555 1_555
Mn8_2 O20_2 1_555 1_555
Mn8_2 O23_2 1_555 1_555
Mn9_2 O19_2 1_555 1_555
Mn9_2 O23_2 1_555 1_555
Mn9_2 O24_2 1_555 1_555
O18_2 Mn11_2 1_555 1_555
O19_2 Mn10_2 1_555 1_555
C23_2 O20_2 1_555 1_555
C24_2 N5_2 1_555 1_555
C25_2 O21_2 1_555 1_555
C29_2 N6_2 1_555 1_555
C31_2 O23_2 1_555 1_555
C32_2 O24_2 1_555 1_555
Mn10_2 O26_2 1_555 1_555
Mn10_2 O29_2 1_555 1_555
Mn10_2 O32_2 1_555 1_555
Mn11_2 O27_2 1_555 1_555
Mn11_2 O30_2 1_555 1_555
Mn11_2 O33_2 1_555 1_555
Mn12_2 O28_2 1_555 1_555
Mn12_2 O31_2 1_555 1_555
Mn12_2 O34_2 1_555 1_555
Mn13_2 O29_2 1_555 1_555
Mn14_2 O30_2 1_555 1_555
Mn15_2 O31_2 1_555 1_555
Mn2_3 Cl2_3 1_555 1_555
Cu3_3 O18_3 1_555 1_555
Mn7_3 O18_3 1_555 1_555
O18_3 Mn9_3 1_555 1_555
C23_3 H45_3 1_555 1_555
H46_3 C23_3 1_555 1_555
O20_3 Cu3_3 1_555 1_555
C24_3 C23_3 1_555 1_555
C26_3 C24_3 1_555 1_555
O22_3 C26_3 1_555 1_555
H51_3 O22_3 1_555 1_555
N5_3 Cu3_3 1_555 1_555
H52_3 N5_3 1_555 1_555
C27_3 N5_3 1_555 1_555
H53_3 C27_3 1_555 1_555
H54_2 C27_3 1_555 1_555
C28_2 C27_3 1_555 1_555
H55_2 C28_2 1_555 1_555
H56_2 C28_2 1_555 1_555
C29_3 C28_2 1_555 1_555
H57_3 C29_3 1_555 1_555
H58_3 C29_3 1_555 1_555
N6_3 Cu3_3 1_555 1_555
H59_3 N6_3 1_555 1_555
C30_3 N6_3 1_555 1_555
C31_3 C30_3 1_555 1_555
H60_3 C31_3 1_555 1_555
H61_3 C31_3 1_555 1_555
O23_3 Cu3_3 1_555 1_555
C32_3 C30_3 1_555 1_555
H62_3 C32_3 1_555 1_555
H63_3 C32_3 1_555 1_555
O24_3 Mn2_3 1_555 1_555
C33_3 C30_3 1_555 1_555
H64_3 C33_3 1_555 1_555
H65_3 C33_3 1_555 1_555
O25_3 C33_3 1_555 1_555
H66_3 O25_3 1_555 1_555
Cu6_3 O25_3 1_555 1_555
O33_3 Mn2_3 1_555 1_555
O37_3 Cu3_3 1_555 1_555
O3_3 Mn9_3 1_555 1_555
Mn7_3 O19_3 1_555 1_555
Mn7_3 O20_3 1_555 1_555
Mn9_3 O19_3 1_555 1_555
Mn9_3 O23_3 1_555 1_555
Mn9_3 O24_3 1_555 1_555
C23_3 O20_3 1_555 1_555
C24_3 N5_3 1_555 1_555
C29_3 N6_3 1_555 1_555
C31_3 O23_3 1_555 1_555
C32_3 O24_3 1_555 1_555
H47_3 C25_3 1_555 1_555
H48_3 C25_3 1_555 1_555
Mn14_3 O21_3 1_555 1_555
C25_3 O21_3 1_555 1_555
Mn11_3 O27_3 1_555 1_555
Mn11_3 O30_3 1_555 1_555
Mn14_3 O30_3 1_555 1_555
Mn10_3 O26_3 1_555 1_555
Mn10_3 O29_3 1_555 1_555
Cu1_3 O1_3 1_555 1_555
Mn1_3 O1_3 1_555 1_555
Mn3_3 O1_3 1_555 1_555
O2_3 Mn1_3 1_555 1_555
O3_4 Mn3_3 1_555 1_555
C1_3 H1_3 1_555 1_555
H2_3 C1_3 1_555 1_555
O4_3 Cu1_3 1_555 1_555
C2_3 C1_3 1_555 1_555
C4_3 C2_3 1_555 1_555
O6_3 C4_3 1_555 1_555
H7_3 O6_3 1_555 1_555
N1_3 Cu1_3 1_555 1_555
H8_3 N1_3 1_555 1_555
C5_3 N1_3 1_555 1_555
H9_3 C5_3 1_555 1_555
H10_2 C5_3 1_555 1_555
C6_2 C5_3 1_555 1_555
H12_2 C6_2 1_555 1_555
N2_3 Cu1_3 1_555 1_555
H15_3 N2_3 1_555 1_555
C8_3 N2_3 1_555 1_555
C9_3 C8_3 1_555 1_555
H16_3 C9_3 1_555 1_555
H17_3 C9_3 1_555 1_555
O7_3 Cu1_3 1_555 1_555
C11_3 C8_3 1_555 1_555
H21_3 C11_3 1_555 1_555
O9_3 C11_3 1_555 1_555
H22_3 O9_3 1_555 1_555
Cu4_3 O9_3 1_555 1_555
O35_3 Cu1_3 1_555 1_555
Mn1_3 O4_3 1_555 1_555
Mn3_3 O2_3 1_555 1_555
Mn3_3 O7_3 1_555 1_555
C1_3 O4_3 1_555 1_555
C2_3 N1_3 1_555 1_555
C9_3 O7_3 1_555 1_555
H13_3 C7_3 1_555 1_555
H14_3 C7_3 1_555 1_555
H18_3 C10_3 1_555 1_555
H19_3 C10_3 1_555 1_555
Cu2_3 O10_3 1_555 1_555
Mn4_3 O10_3 1_555 1_555
Mn5_3 O8_3 1_555 1_555
Mn6_3 O3_5 1_555 1_555
Cl3_3 Mn5_3 1_555 1_555
O10_3 Mn6_3 1_555 1_555
C12_3 H23_3 1_555 1_555
H24_3 C12_3 1_555 1_555
O12_3 Cu2_3 1_555 1_555
C13_3 C12_3 1_555 1_555
C15_3 C13_3 1_555 1_555
O14_3 C15_3 1_555 1_555
H29_3 O14_3 1_555 1_555
N3_3 Cu2_3 1_555 1_555
H30_3 N3_3 1_555 1_555
C16_3 N3_3 1_555 1_555
H31_3 C16_3 1_555 1_555
H32_3 C16_3 1_555 1_555
C17_3 C16_3 1_555 1_555
H34_3 C17_3 1_555 1_555
N4_3 Cu2_3 1_555 1_555
H37_3 N4_3 1_555 1_555
C19_3 N4_3 1_555 1_555
C20_3 C19_3 1_555 1_555
H38_3 C20_3 1_555 1_555
H39_3 C20_3 1_555 1_555
O15_3 Cu2_3 1_555 1_555
C22_3 C19_3 1_555 1_555
H43_3 C22_3 1_555 1_555
O17_3 C22_3 1_555 1_555
H44_3 O17_3 1_555 1_555
Cu5_3 O17_3 1_555 1_555
O34_3 Mn5_3 1_555 1_555
O36_3 Cu2_3 1_555 1_555
C10_3 O8_3 1_555 1_555
Mn4_3 O11_3 1_555 1_555
Mn4_3 O12_3 1_555 1_555
Mn5_3 O11_3 1_555 1_555
Mn5_3 O12_3 1_555 1_555
Mn5_3 O15_3 1_555 1_555
Mn6_3 O11_3 1_555 1_555
Mn6_3 O15_3 1_555 1_555
C12_3 O12_3 1_555 1_555
C13_3 N3_3 1_555 1_555
C20_3 O15_3 1_555 1_555
H25_3 C14_3 1_555 1_555
H26_3 C14_3 1_555 1_555
Mn13_3 O13_3 1_555 1_555
C14_3 O13_3 1_555 1_555
Mn12_3 O28_3 1_555 1_555
Mn12_3 O31_3 1_555 1_555
C12_4 H23_4 1_555 1_555
H24_4 C12_4 1_555 1_555
C13_4 C12_4 1_555 1_555
C14_4 C13_4 1_555 1_555
H25_4 C14_4 1_555 1_555
H26_4 C14_4 1_555 1_555
C15_4 C13_4 1_555 1_555
H27_4 C15_4 1_555 1_555
H28_4 C15_4 1_555 1_555
O14_4 C15_4 1_555 1_555
H29_4 O14_4 1_555 1_555
H30_4 N3_4 1_555 1_555
C16_4 N3_4 1_555 1_555
H32_4 C16_4 1_555 1_555
C17_4 C16_4 1_555 1_555
H33_3 C17_4 1_555 1_555
H34_4 C17_4 1_555 1_555
C13_4 N3_4 1_555 1_555
Cu4 O26_2 1_555 1_555
Mn13_2 Cl2_4 1_555 1_555
Mn3_4 O26_2 1_555 1_555
O3_6 Mn3_4 1_555 1_555
C1_4 H1_4 1_555 1_555
H2_4 C1_4 1_555 1_555
O4_4 Cu4 1_555 1_555
C2_4 C1_4 1_555 1_555
C3_3 C2_4 1_555 1_555
H3_3 C3_3 1_555 1_555
H4_3 C3_3 1_555 1_555
C4_4 C2_4 1_555 1_555
H5_3 C4_4 1_555 1_555
H6_3 C4_4 1_555 1_555
O6_4 C4_4 1_555 1_555
H7_4 O6_4 1_555 1_555
N1_4 Cu4 1_555 1_555
H8_4 N1_4 1_555 1_555
C5_4 N1_4 1_555 1_555
H9_4 C5_4 1_555 1_555
H10_3 C5_4 1_555 1_555
C6_3 C5_4 1_555 1_555
H11_3 C6_3 1_555 1_555
H12_3 C6_3 1_555 1_555
C7_4 C6_3 1_555 1_555
H13_4 C7_4 1_555 1_555
H14_4 C7_4 1_555 1_555
N2_4 Cu4 1_555 1_555
H15_4 N2_4 1_555 1_555
C8_4 N2_4 1_555 1_555
C9_4 C8_4 1_555 1_555
H16_4 C9_4 1_555 1_555
H17_4 C9_4 1_555 1_555
O7_4 Cu4 1_555 1_555
C10_4 C8_4 1_555 1_555
H18_4 C10_4 1_555 1_555
H19_4 C10_4 1_555 1_555
O8_4 Mn3_4 1_555 1_555
C11_4 C8_4 1_555 1_555
H20_4 C11_4 1_555 1_555
H21_4 C11_4 1_555 1_555
O35 C11_4 1_555 1_555
H22_4 O35 1_555 1_555
Cu5 O27_2 1_555 1_555
Mn14_2 O8_4 1_555 1_555
Mn6_4 O3_6 1_555 1_555
Cl3_4 Mn14_2 1_555 1_555
O27_2 Mn6_4 1_555 1_555
O30_2 Mn3_4 1_555 1_555
O12_4 Cu5 1_555 1_555
H35_3 C18_3 1_555 1_555
H36_3 C18_3 1_555 1_555
N4_4 Cu5 1_555 1_555
H37_4 N4_4 1_555 1_555
C19_4 N4_4 1_555 1_555
C20_4 C19_4 1_555 1_555
H38_4 C20_4 1_555 1_555
H39_4 C20_4 1_555 1_555
O15_4 Cu5 1_555 1_555
C21_3 C19_4 1_555 1_555
H40_3 C21_3 1_555 1_555
H41_3 C21_3 1_555 1_555
O16_3 Mn6_4 1_555 1_555
C22_4 C19_4 1_555 1_555
H42_3 C22_4 1_555 1_555
H43_4 C22_4 1_555 1_555
O36 C22_4 1_555 1_555
H44_4 O36 1_555 1_555
Cu6 O28_2 1_555 1_555
Mn15_2 O16_3 1_555 1_555
Mn9_4 O29_2 1_555 1_555
Cl4_3 Mn15_2 1_555 1_555
O28_2 Mn9_4 1_555 1_555
O31_2 Mn6_4 1_555 1_555
O20_4 Cu6 1_555 1_555
H57_4 C29_4 1_555 1_555
H58_4 C29_4 1_555 1_555
N6_4 Cu6 1_555 1_555
H59_4 N6_4 1_555 1_555
C30_4 N6_4 1_555 1_555
C31_4 C30_4 1_555 1_555
H60_4 C31_4 1_555 1_555
H61_4 C31_4 1_555 1_555
O23_4 Cu6 1_555 1_555
C32_4 C30_4 1_555 1_555
H62_4 C32_4 1_555 1_555
H63_4 C32_4 1_555 1_555
O24_4 Mn13_2 1_555 1_555
C33_4 C30_4 1_555 1_555
H64_4 C33_4 1_555 1_555
H65_4 C33_4 1_555 1_555
O37 C33_4 1_555 1_555
H66_4 O37 1_555 1_555
Mn10_2 O4_4 1_555 1_555
Mn13_2 O4_4 1_555 1_555
Mn13_2 O7_4 1_555 1_555
Mn3_4 O29_2 1_555 1_555
Mn3_4 O7_4 1_555 1_555
O3_6 Mn9_4 1_555 1_555
C1_4 O4_4 1_555 1_555
C2_4 N1_4 1_555 1_555
C3_3 O32_2 1_555 1_555
C7_4 N2_4 1_555 1_555
C9_4 O7_4 1_555 1_555
C10_4 O8_4 1_555 1_555
Mn11_2 O12_4 1_555 1_555
Mn14_2 O12_4 1_555 1_555
Mn14_2 O15_4 1_555 1_555
Mn6_4 O30_2 1_555 1_555
Mn6_4 O15_4 1_555 1_555
C18_3 N4_4 1_555 1_555
C20_4 O15_4 1_555 1_555
C21_3 O16_3 1_555 1_555
Mn12_2 O20_4 1_555 1_555
Mn15_2 O20_4 1_555 1_555
Mn15_2 O23_4 1_555 1_555
Mn9_4 O31_2 1_555 1_555
Mn9_4 O23_4 1_555 1_555
Mn9_4 O24_4 1_555 1_555
C29_4 N6_4 1_555 1_555
C31_4 O23_4 1_555 1_555
C32_4 O24_4 1_555 1_555
C23_4 H45_4 1_555 1_555
H46_4 C23_4 1_555 1_555
C24_4 C23_4 1_555 1_555
C25_4 C24_4 1_555 1_555
H47_4 C25_4 1_555 1_555
H48_4 C25_4 1_555 1_555
C26_4 C24_4 1_555 1_555
H49_4 C26_4 1_555 1_555
H50_4 C26_4 1_555 1_555
O22_4 C26_4 1_555 1_555
H51_4 O22_4 1_555 1_555
H52_4 N5_4 1_555 1_555
C27_4 N5_4 1_555 1_555
H54_3 C27_4 1_555 1_555
C28_3 C27_4 1_555 1_555
H55_3 C28_3 1_555 1_555
H56_3 C28_3 1_555 1_555
C24_4 N5_4 1_555 1_555
Cu4_3 O26 1_555 1_555
Mn13 Cl2_5 1_555 1_555
Mn3_5 O26 1_555 1_555
O3_7 Mn3_5 1_555 1_555
C1_5 H1_5 1_555 1_555
H2_5 C1_5 1_555 1_555
O4_5 Cu4_3 1_555 1_555
C2_5 C1_5 1_555 1_555
C3_4 C2_5 1_555 1_555
H3_4 C3_4 1_555 1_555
H4_4 C3_4 1_555 1_555
C4_5 C2_5 1_555 1_555
H5_4 C4_5 1_555 1_555
H6_4 C4_5 1_555 1_555
O6_5 C4_5 1_555 1_555
H7_5 O6_5 1_555 1_555
N1_5 Cu4_3 1_555 1_555
H8_5 N1_5 1_555 1_555
C5_5 N1_5 1_555 1_555
H9_5 C5_5 1_555 1_555
H13_5 C7_5 1_555 1_555
H14_5 C7_5 1_555 1_555
N2_5 Cu4_3 1_555 1_555
H15_5 N2_5 1_555 1_555
C8_5 N2_5 1_555 1_555
C9_5 C8_5 1_555 1_555
H16_5 C9_5 1_555 1_555
H17_5 C9_5 1_555 1_555
O7_5 Cu4_3 1_555 1_555
C10_5 C8_5 1_555 1_555
H18_5 C10_5 1_555 1_555
H19_5 C10_5 1_555 1_555
O8_5 Mn3_5 1_555 1_555
C11_5 C8_5 1_555 1_555
H20_5 C11_5 1_555 1_555
H21_5 C11_5 1_555 1_555
O35_3 C11_5 1_555 1_555
H22_5 O35_3 1_555 1_555
Cu5_3 O27 1_555 1_555
Mn14 O8_5 1_555 1_555
Mn6_5 O3_7 1_555 1_555
Cl3_5 Mn14 1_555 1_555
O27 Mn6_5 1_555 1_555
O30 Mn3_5 1_555 1_555
C12_5 H23_5 1_555 1_555
H24_5 C12_5 1_555 1_555
O12_5 Cu5_3 1_555 1_555
C13_5 C12_5 1_555 1_555
C14_5 C13_5 1_555 1_555
H25_5 C14_5 1_555 1_555
H26_5 C14_5 1_555 1_555
C15_5 C13_5 1_555 1_555
H27_5 C15_5 1_555 1_555
H28_5 C15_5 1_555 1_555
O14_5 C15_5 1_555 1_555
H29_5 O14_5 1_555 1_555
N3_5 Cu5_3 1_555 1_555
H30_5 N3_5 1_555 1_555
C16_5 N3_5 1_555 1_555
H31_5 C16_5 1_555 1_555
H32_5 C16_5 1_555 1_555
C17_5 C16_5 1_555 1_555
H33_4 C17_5 1_555 1_555
H34_5 C17_5 1_555 1_555
C18_4 C17_5 1_555 1_555
H35_4 C18_4 1_555 1_555
H36_4 C18_4 1_555 1_555
N4_5 Cu5_3 1_555 1_555
H37_5 N4_5 1_555 1_555
C19_5 N4_5 1_555 1_555
C20_5 C19_5 1_555 1_555
H38_5 C20_5 1_555 1_555
H39_5 C20_5 1_555 1_555
O15_5 Cu5_3 1_555 1_555
C21_4 C19_5 1_555 1_555
H40_4 C21_4 1_555 1_555
H41_4 C21_4 1_555 1_555
O16_4 Mn6_5 1_555 1_555
C22_5 C19_5 1_555 1_555
H42_4 C22_5 1_555 1_555
H43_5 C22_5 1_555 1_555
O36_3 C22_5 1_555 1_555
H44_5 O36_3 1_555 1_555
Cu6_3 O28 1_555 1_555
Mn15 O16_4 1_555 1_555
Mn9_5 O29 1_555 1_555
Cl4_4 Mn15 1_555 1_555
O28 Mn9_5 1_555 1_555
O31 Mn6_5 1_555 1_555
C23_5 H45_5 1_555 1_555
H46_5 C23_5 1_555 1_555
O20_5 Cu6_3 1_555 1_555
C24_5 C23_5 1_555 1_555
C25_5 C24_5 1_555 1_555
H47_5 C25_5 1_555 1_555
H48_5 C25_5 1_555 1_555
C26_5 C24_5 1_555 1_555
H49_5 C26_5 1_555 1_555
H50_5 C26_5 1_555 1_555
O22_5 C26_5 1_555 1_555
H51_5 O22_5 1_555 1_555
N5_5 Cu6_3 1_555 1_555
H52_5 N5_5 1_555 1_555
C27_5 N5_5 1_555 1_555
H53_5 C27_5 1_555 1_555
H57_5 C29_5 1_555 1_555
H58_5 C29_5 1_555 1_555
N6_5 Cu6_3 1_555 1_555
H59_5 N6_5 1_555 1_555
C30_5 N6_5 1_555 1_555
C31_5 C30_5 1_555 1_555
H60_5 C31_5 1_555 1_555
H61_5 C31_5 1_555 1_555
O23_5 Cu6_3 1_555 1_555
C32_5 C30_5 1_555 1_555
H62_5 C32_5 1_555 1_555
H63_5 C32_5 1_555 1_555
O24_5 Mn13 1_555 1_555
C33_5 C30_5 1_555 1_555
H64_5 C33_5 1_555 1_555
H65_5 C33_5 1_555 1_555
O37_3 C33_5 1_555 1_555
H66_5 O37_3 1_555 1_555
Mn10 O4_5 1_555 1_555
Mn13 O4_5 1_555 1_555
Mn13 O7_5 1_555 1_555
Mn3_5 O29 1_555 1_555
Mn3_5 O7_5 1_555 1_555
O3_7 Mn9_5 1_555 1_555
C1_5 O4_5 1_555 1_555
C2_5 N1_5 1_555 1_555
C3_4 O32 1_555 1_555
C7_5 N2_5 1_555 1_555
C9_5 O7_5 1_555 1_555
C10_5 O8_5 1_555 1_555
Mn11 O12_5 1_555 1_555
Mn14 O12_5 1_555 1_555
Mn14 O15_5 1_555 1_555
Mn6_5 O30 1_555 1_555
Mn6_5 O15_5 1_555 1_555
C12_5 O12_5 1_555 1_555
C13_5 N3_5 1_555 1_555
C14_5 O33 1_555 1_555
C18_4 N4_5 1_555 1_555
C20_5 O15_5 1_555 1_555
C21_4 O16_4 1_555 1_555
Mn12 O20_5 1_555 1_555
Mn15 O20_5 1_555 1_555
Mn15 O23_5 1_555 1_555
Mn9_5 O31 1_555 1_555
Mn9_5 O23_5 1_555 1_555
Mn9_5 O24_5 1_555 1_555
C23_5 O20_5 1_555 1_555
C24_5 N5_5 1_555 1_555
C25_5 O34 1_555 1_555
C29_5 N6_5 1_555 1_555
C31_5 O23_5 1_555 1_555
C32_5 O24_5 1_555 1_555
H25_6 C14_6 1_555 1_555
H26_6 C14_6 1_555 1_555
C14_6 O33_3 1_555 1_555
H13_6 C7_6 1_555 1_555
H14_6 C7_6 1_555 1_555
H18_6 C10_6 1_555 1_555
H19_6 C10_6 1_555 1_555
Cu5_2 O27_3 1_555 1_555
Mn14_3 O8_6 1_555 1_555
Mn6_6 O3_8 1_555 1_555
Cl3_6 Mn14_3 1_555 1_555
O27_3 Mn6_6 1_555 1_555
C12_6 H23_6 1_555 1_555
H24_6 C12_6 1_555 1_555
O12_6 Cu5_2 1_555 1_555
C13_6 C12_6 1_555 1_555
C15_6 C13_6 1_555 1_555
O14_6 C15_6 1_555 1_555
H29_6 O14_6 1_555 1_555
N3_6 Cu5_2 1_555 1_555
H30_6 N3_6 1_555 1_555
C16_6 N3_6 1_555 1_555
H31_6 C16_6 1_555 1_555
H32_6 C16_6 1_555 1_555
C17_6 C16_6 1_555 1_555
H34_6 C17_6 1_555 1_555
N4_6 Cu5_2 1_555 1_555
H37_6 N4_6 1_555 1_555
C19_6 N4_6 1_555 1_555
C20_6 C19_6 1_555 1_555
H38_6 C20_6 1_555 1_555
H39_6 C20_6 1_555 1_555
O15_6 Cu5_2 1_555 1_555
C22_6 C19_6 1_555 1_555
H43_6 C22_6 1_555 1_555
O36_2 C22_6 1_555 1_555
H44_6 O36_2 1_555 1_555
C10_6 O8_6 1_555 1_555
Mn11_3 O12_6 1_555 1_555
Mn14_3 O12_6 1_555 1_555
Mn14_3 O15_6 1_555 1_555
Mn6_6 O30_3 1_555 1_555
Mn6_6 O15_6 1_555 1_555
C12_6 O12_6 1_555 1_555
C13_6 N3_6 1_555 1_555
C20_6 O15_6 1_555 1_555
Cu4_2 O26_3 1_555 1_555
Mn3_6 O26_3 1_555 1_555
O3_9 Mn3_6 1_555 1_555
C1_6 H1_6 1_555 1_555
H2_6 C1_6 1_555 1_555
O4_6 Cu4_2 1_555 1_555
C2_6 C1_6 1_555 1_555
C4_6 C2_6 1_555 1_555
O6_6 C4_6 1_555 1_555
H7_6 O6_6 1_555 1_555
N1_6 Cu4_2 1_555 1_555
H8_6 N1_6 1_555 1_555
C5_6 N1_6 1_555 1_555
H9_6 C5_6 1_555 1_555
H10_4 C5_6 1_555 1_555
C6_4 C5_6 1_555 1_555
H12_4 C6_4 1_555 1_555
N2_6 Cu4_2 1_555 1_555
H15_6 N2_6 1_555 1_555
C8_6 N2_6 1_555 1_555
C9_6 C8_6 1_555 1_555
H16_6 C9_6 1_555 1_555
H17_6 C9_6 1_555 1_555
O7_6 Cu4_2 1_555 1_555
C11_6 C8_6 1_555 1_555
H21_6 C11_6 1_555 1_555
O35_2 C11_6 1_555 1_555
H22_6 O35_2 1_555 1_555
Mn10_3 O4_6 1_555 1_555
Mn3_6 O29_3 1_555 1_555
Mn3_6 O7_6 1_555 1_555
C1_6 O4_6 1_555 1_555
C2_6 N1_6 1_555 1_555
C9_6 O7_6 1_555 1_555
H47_6 C25_6 1_555 1_555
H48_6 C25_6 1_555 1_555
C25_6 O34_3 1_555 1_555
Mn13_3 Cl2_6 1_555 1_555
Cu6_2 O28_3 1_555 1_555
O28_3 Mn9_6 1_555 1_555
C23_6 H45_6 1_555 1_555
H46_6 C23_6 1_555 1_555
O20_6 Cu6_2 1_555 1_555
C24_6 C23_6 1_555 1_555
C26_6 C24_6 1_555 1_555
O22_6 C26_6 1_555 1_555
H51_6 O22_6 1_555 1_555
N5_6 Cu6_2 1_555 1_555
H52_6 N5_6 1_555 1_555
C27_6 N5_6 1_555 1_555
H53_6 C27_6 1_555 1_555
H54_4 C27_6 1_555 1_555
C28_4 C27_6 1_555 1_555
H55_4 C28_4 1_555 1_555
H56_4 C28_4 1_555 1_555
C29_6 C28_4 1_555 1_555
H57_6 C29_6 1_555 1_555
H58_6 C29_6 1_555 1_555
N6_6 Cu6_2 1_555 1_555
H59_6 N6_6 1_555 1_555
C30_6 N6_6 1_555 1_555
C31_6 C30_6 1_555 1_555
H60_6 C31_6 1_555 1_555
H61_6 C31_6 1_555 1_555
O23_6 Cu6_2 1_555 1_555
C32_6 C30_6 1_555 1_555
H62_6 C32_6 1_555 1_555
H63_6 C32_6 1_555 1_555
O24_6 Mn13_3 1_555 1_555
C33_6 C30_6 1_555 1_555
H64_6 C33_6 1_555 1_555
H65_6 C33_6 1_555 1_555
O37_2 C33_6 1_555 1_555
H66_6 O37_2 1_555 1_555
O3_10 Mn9_6 1_555 1_555
Mn12_3 O20_6 1_555 1_555
Mn9_6 O31_3 1_555 1_555
Mn9_6 O23_6 1_555 1_555
Mn9_6 O24_6 1_555 1_555
C23_6 O20_6 1_555 1_555
C24_6 N5_6 1_555 1_555
C29_6 N6_6 1_555 1_555
C31_6 O23_6 1_555 1_555
C32_6 O24_6 1_555 1_555
H55_5 C28_5 1_555 1_555
H56_5 C28_5 1_555 1_555
H11_5 C6_5 1_555 1_555
H12_5 C6_5 1_555 1_555
H35_5 C18_5 1_555 1_555
H36_5 C18_5 1_555 1_555
H40_5 C21_5 1_555 1_555
H41_5 C21_5 1_555 1_555
Mn8_3 O16_5 1_555 1_555
Cl4_5 Mn8_3 1_555 1_555
O32_3 Mn8_3 1_555 1_555
C21_5 O16_5 1_555 1_555
H3_5 C3_5 1_555 1_555
H4_5 C3_5 1_555 1_555
C3_5 O32_3 1_555 1_555
H3_6 C3_6 1_555 1_555
H4_6 C3_6 1_555 1_555
Mn15_3 O5_3 1_555 1_555
C3_6 O5_3 1_555 1_555
H35_6 C18_6 1_555 1_555
H36_6 C18_6 1_555 1_555
H40_6 C21_6 1_555 1_555
H41_6 C21_6 1_555 1_555
Mn15_3 O16_6 1_555 1_555
Cl4_6 Mn15_3 1_555 1_555
C21_6 O16_6 1_555 1_555
H11_6 C6_6 1_555 1_555
H12_6 C6_6 1_555 1_555
H55_6 C28_6 1_555 1_555
H56_6 C28_6 1_555 1_555

#END
