
###############################################################################
#
# This file contains modified crystal structure data generated from the
# MOF subset of the Cambridge Structural Database (CSD) v543 
# hosted by the Cambridge Crystallographic Data Centre (CCDC).
#
# This work is licensed under the Creative Commons
# Attribution-NonCommercial-ShareAlike 4.0 International License.
# To view a copy of this license, visit
# http://creativecommons.org/licenses/by-nc-sa/4.0/
# or send a letter to
# Creative Commons, PO Box 1866, Mountain View, CA 94042, USA.
#
# CIF created using the CSD Python API on 29 September 2022
# The structure has been converted into the P1 space group
# The structure has a 3D framework
# The original CSD entry PESSAK is in the trigonal crystal system
# The framework has been calculated to contain at least 10.0% void space
# The void calculation uses a probe of radius 1.32A, grid spacing 0.4
# The framework is charged, counterions have been retained in the structure
#
###############################################################################

data_PESSAK
_chemical_formula_moiety         '(C12 H12 Fe6 O18 6-)n'
_symmetry_cell_setting           triclinic
_symmetry_space_group_name_H-M   'P 1'
_symmetry_Int_Tables_number      1
_space_group_name_Hall           'P 1'
loop_
_symmetry_equiv_pos_site_id
_symmetry_equiv_pos_as_xyz
1 x,y,z
_cell_length_a                   8.2193(4)
_cell_length_b                   8.2193(4)
_cell_length_c                   13.7688(7)
_cell_angle_alpha                90
_cell_angle_beta                 90
_cell_angle_gamma                120
_cell_volume                     805.557
loop_
_atom_site_label
_atom_site_type_symbol
_atom_site_fract_x
_atom_site_fract_y
_atom_site_fract_z
Fe4 Fe -0.0000 0.0000 0.5000
Fe5 Fe -0.0000 0.0000 -0.0000
O1 O 0.0090(5) 0.2067(5) 0.5828(3)
O10 O 0.4581(8) 0.1173(6) 0.6674(3)
C5 C 0.3371(11) 0.1264(8) 0.6199(4)
H5 H 0.3510 0.2448 0.6108
Fe4_2 Fe -0.0000 1.0000 0.5000
Fe5_2 Fe -0.0000 0.0000 1.0000
Fe7 Fe 0.6667 0.3333 0.7500
O14 O 0.2067(5) 0.1977(7) 0.4172(3)
Fe5_3 Fe -0.0000 1.0000 -0.0000
O9 O 0.1977(7) 0.9910(5) 0.5828(3)
Fe5_4 Fe -0.0000 1.0000 1.0000
Fe4_3 Fe 1.0000 0.0000 0.5000
Fe5_5 Fe 1.0000 0.0000 -0.0000
O2 O 0.8827(6) 0.3408(5) 0.6674(3)
C1 C 0.8736(8) 0.2107(8) 0.6199(4)
H1 H 0.7552 0.1062 0.6108
O5 O 0.7933(5) 0.8023(7) 0.5828(3)
O6 O 0.6592(5) 0.5419(8) 0.6674(3)
C3 C 0.7893(8) 0.6629(11) 0.6199(4)
H3 H 0.8938 0.6490 0.6108
O12 O 0.6592(5) 0.1173(6) 0.8326(3)
C6 C 0.7893(8) 0.1264(8) 0.8801(4)
H6 H 0.8938 0.2448 0.8892
Fe4_4 Fe 1.0000 1.0000 0.5000
Fe5_6 Fe 1.0000 0.0000 1.0000
O15 O 0.8023(7) 0.0090(5) 0.4172(3)
O16 O 0.4581(8) 0.3408(5) 0.8326(3)
O17 O 0.8827(6) 0.5419(8) 0.8326(3)
Fe5_7 Fe 1.0000 1.0000 -0.0000
O11 O 0.7933(5) 0.9910(5) 0.9172(3)
Fe5_8 Fe 1.0000 1.0000 1.0000
O13 O 0.9910(5) 0.7933(5) 0.4172(3)
O11_2 O 0.0090(5) 0.8023(7) 0.9172(3)
C6_2 C 0.8736(8) 0.6629(11) 0.8801(4)
H6_2 H 0.7552 0.6490 0.8892
O11_3 O 0.1977(7) 0.2067(5) 0.9172(3)
C6_3 C 0.3371(11) 0.2107(8) 0.8801(4)
H6_3 H 0.3510 0.1062 0.8892
O13_2 O 0.2067(5) 0.0090(5) 0.0828(3)
O15_2 O 0.9910(5) 0.1977(7) 0.0828(3)
O14_2 O 0.8023(7) 0.7933(5) 0.0828(3)
O4 O 0.3408(5) 0.4581(8) 0.3326(3)
C2 C 0.2107(8) 0.3371(11) 0.3801(4)
H2 H 0.1062 0.3510 0.3892
Fe6 Fe 0.3333 0.6667 0.2500
O2_2 O 0.1173(6) 0.6592(5) 0.3326(3)
C1_2 C 0.1264(8) 0.7893(8) 0.3801(4)
H1_2 H 0.2448 0.8938 0.3892
O8 O 0.5419(8) 0.8827(6) 0.3326(3)
C4 C 0.6629(11) 0.8736(8) 0.3801(4)
H4 H 0.6490 0.7552 0.3892
O12_2 O 0.3408(5) 0.8827(6) 0.1674(3)
C6_4 C 0.2107(8) 0.8736(8) 0.1199(4)
H6_4 H 0.1062 0.7552 0.1108
O16_2 O 0.5419(8) 0.6592(5) 0.1674(3)
O17_2 O 0.1173(6) 0.4581(8) 0.1674(3)
C6_5 C 0.1264(8) 0.3371(11) 0.1199(4)
H6_5 H 0.2448 0.3510 0.1108
C6_6 C 0.6629(11) 0.7893(8) 0.1199(4)
H6_6 H 0.6490 0.8938 0.1108
loop_
_geom_bond_atom_site_label_1
_geom_bond_atom_site_label_2
_geom_bond_site_symmetry_1
_geom_bond_site_symmetry_2
Fe4 O1 1_555 1_555
O10 C5 1_555 1_555
H5 C5 1_555 1_555
Fe7 O10 1_555 1_555
O14 Fe4 1_555 1_555
O9 Fe4_2 1_555 1_555
Fe7 O2 1_555 1_555
O2 C1 1_555 1_555
C1 H1 1_555 1_555
O5 C3 1_555 1_555
O6 Fe7 1_555 1_555
C3 O6 1_555 1_555
H3 C3 1_555 1_555
O12 Fe7 1_555 1_555
C6 O12 1_555 1_555
H6 C6 1_555 1_555
Fe4_4 O5 1_555 1_555
O15 Fe4_3 1_555 1_555
O16 Fe7 1_555 1_555
O17 Fe7 1_555 1_555
Fe5_8 O11 1_555 1_555
O13 Fe4_4 1_555 1_555
Fe5_4 O11_2 1_555 1_555
C6_2 O17 1_555 1_555
H6_2 C6_2 1_555 1_555
O11_3 C6_3 1_555 1_555
C6_3 O16 1_555 1_555
H6_3 C6_3 1_555 1_555
Fe5_2 O11_3 1_555 1_555
O13_2 Fe5 1_555 1_555
O15_2 Fe5_5 1_555 1_555
O14_2 Fe5_7 1_555 1_555
O4 C2 1_555 1_555
C2 O14 1_555 1_555
H2 C2 1_555 1_555
Fe6 O4 1_555 1_555
Fe6 O2_2 1_555 1_555
O2_2 C1_2 1_555 1_555
C1_2 H1_2 1_555 1_555
O8 Fe6 1_555 1_555
C4 O8 1_555 1_555
H4 C4 1_555 1_555
O12_2 Fe6 1_555 1_555
C6_4 O12_2 1_555 1_555
H6_4 C6_4 1_555 1_555
O16_2 Fe6 1_555 1_555
O17_2 Fe6 1_555 1_555
C6_5 O17_2 1_555 1_555
H6_5 C6_5 1_555 1_555
O14_2 C6_6 1_555 1_555
C6_6 O16_2 1_555 1_555
H6_6 C6_6 1_555 1_555

#END
