
###############################################################################
#
# This file contains modified crystal structure data generated from the
# MOF subset of the Cambridge Structural Database (CSD) v543 
# hosted by the Cambridge Crystallographic Data Centre (CCDC).
#
# This work is licensed under the Creative Commons
# Attribution-NonCommercial-ShareAlike 4.0 International License.
# To view a copy of this license, visit
# http://creativecommons.org/licenses/by-nc-sa/4.0/
# or send a letter to
# Creative Commons, PO Box 1866, Mountain View, CA 94042, USA.
#
# CIF created using the CSD Python API on 29 September 2022
# The structure has been converted into the P1 space group
# The structure has a 3D framework
# The original CSD entry PESSAK01 is in the trigonal crystal system
# The framework has been calculated to contain at least 10.0% void space
# The void calculation uses a probe of radius 1.32A, grid spacing 0.4
# The framework is charged, counterions have been retained in the structure
#
###############################################################################

data_PESSAK01
_chemical_formula_moiety         '(C12 H12 Fe6 O18 6-)n'
_symmetry_cell_setting           triclinic
_symmetry_space_group_name_H-M   'P 1'
_symmetry_Int_Tables_number      1
_space_group_name_Hall           'P 1'
loop_
_symmetry_equiv_pos_site_id
_symmetry_equiv_pos_as_xyz
1 x,y,z
_cell_length_a                   8.2315(10)
_cell_length_b                   8.2315(10)
_cell_length_c                   13.7812(18)
_cell_angle_alpha                90
_cell_angle_beta                 90
_cell_angle_gamma                120
_cell_volume                     808.678
loop_
_atom_site_label
_atom_site_type_symbol
_atom_site_fract_x
_atom_site_fract_y
_atom_site_fract_z
Fe4 Fe -0.0000 0.0000 0.5000
Fe4_2 Fe -0.0000 1.0000 0.5000
Fe5 Fe 0.0000 0.0000 0.0000
O2 O 0.2053(5) 0.0085(5) 0.5826(3)
O5 O 0.1188(6) 0.4576(8) 0.6680(3)
C3 C 0.1263(8) 0.3371(11) 0.6204(4)
H3 H 0.2445 0.3509 0.6114
Fe4_3 Fe 1.0000 0.0000 0.5000
Fe5_2 Fe 0.0000 0.0000 1.0000
Fe7 Fe 0.3333 0.6667 0.7500
O17 O 0.1968(7) 0.2053(5) 0.4174(3)
Fe5_3 Fe -0.0000 1.0000 0.0000
O1 O 0.3388(5) 0.8812(6) 0.6680(3)
C1 C 0.2108(8) 0.8737(8) 0.6204(4)
H1 H 0.1064 0.7555 0.6114
O9 O 0.5424(8) 0.6612(5) 0.6680(3)
O10 O 0.8032(7) 0.7947(5) 0.5826(3)
C5 C 0.6629(11) 0.7892(8) 0.6204(4)
H5 H 0.6491 0.8936 0.6114
O11 O 0.1188(6) 0.6612(5) 0.8320(3)
C6 C 0.1263(8) 0.7892(8) 0.8796(4)
H6 H 0.2445 0.8936 0.8886
Fe4_4 Fe 1.0000 1.0000 0.5000
Fe5_4 Fe 0.0000 1.0000 1.0000
O13 O 0.5424(8) 0.8812(6) 0.8320(3)
O14 O 0.3388(5) 0.4576(8) 0.8320(3)
O16 O 0.0085(5) 0.8032(7) 0.4174(3)
Fe5_5 Fe 1.0000 0.0000 0.0000
O6 O 0.9915(5) 0.1968(7) 0.5826(3)
Fe5_6 Fe 1.0000 0.0000 1.0000
Fe5_7 Fe 1.0000 1.0000 0.0000
O12 O 0.9915(5) 0.7947(5) 0.9174(3)
Fe5_8 Fe 1.0000 1.0000 1.0000
O15 O 0.7947(5) 0.9915(5) 0.4174(3)
O12_2 O 0.2053(5) 0.1968(7) 0.9174(3)
C6_2 C 0.2108(8) 0.3371(11) 0.8796(4)
H6_2 H 0.1064 0.3509 0.8886
O12_3 O 0.8032(7) 0.0085(5) 0.9174(3)
C6_3 C 0.6629(11) 0.8737(8) 0.8796(4)
H6_3 H 0.6491 0.7555 0.8886
O15_2 O 0.0085(5) 0.2053(5) 0.0826(3)
O16_2 O 0.1968(7) 0.9915(5) 0.0826(3)
O17_2 O 0.7947(5) 0.8032(7) 0.0826(3)
O7 O 0.4576(8) 0.3388(5) 0.3320(3)
C4 C 0.3371(11) 0.2108(8) 0.3796(4)
H4 H 0.3509 0.1064 0.3886
Fe6 Fe 0.6667 0.3333 0.2500
O1_2 O 0.6612(5) 0.1188(6) 0.3320(3)
C1_2 C 0.7892(8) 0.1263(8) 0.3796(4)
H1_2 H 0.8936 0.2445 0.3886
O3 O 0.8812(6) 0.5424(8) 0.3320(3)
C2 C 0.8737(8) 0.6629(11) 0.3796(4)
H2 H 0.7555 0.6491 0.3886
O11_2 O 0.8812(6) 0.3388(5) 0.1680(3)
C6_4 C 0.8737(8) 0.2108(8) 0.1204(4)
H6_4 H 0.7555 0.1064 0.1114
O13_2 O 0.4576(8) 0.1188(6) 0.1680(3)
O14_2 O 0.6612(5) 0.5424(8) 0.1680(3)
C6_5 C 0.7892(8) 0.6629(11) 0.1204(4)
H6_5 H 0.8936 0.6491 0.1114
C6_6 C 0.3371(11) 0.1263(8) 0.1204(4)
H6_6 H 0.3509 0.2445 0.1114
loop_
_geom_bond_atom_site_label_1
_geom_bond_atom_site_label_2
_geom_bond_site_symmetry_1
_geom_bond_site_symmetry_2
Fe4 O2 1_555 1_555
O5 C3 1_555 1_555
H3 C3 1_555 1_555
Fe7 O5 1_555 1_555
O17 Fe4 1_555 1_555
Fe7 O1 1_555 1_555
O1 C1 1_555 1_555
C1 H1 1_555 1_555
O9 Fe7 1_555 1_555
O10 C5 1_555 1_555
C5 O9 1_555 1_555
H5 C5 1_555 1_555
O11 Fe7 1_555 1_555
C6 O11 1_555 1_555
H6 C6 1_555 1_555
Fe4_4 O10 1_555 1_555
O13 Fe7 1_555 1_555
O14 Fe7 1_555 1_555
O16 Fe4_2 1_555 1_555
O6 Fe4_3 1_555 1_555
Fe5_8 O12 1_555 1_555
O15 Fe4_4 1_555 1_555
O12_2 C6_2 1_555 1_555
C6_2 O14 1_555 1_555
H6_2 C6_2 1_555 1_555
Fe5_2 O12_2 1_555 1_555
Fe5_6 O12_3 1_555 1_555
C6_3 O13 1_555 1_555
H6_3 C6_3 1_555 1_555
O15_2 Fe5 1_555 1_555
O16_2 Fe5_3 1_555 1_555
O17_2 Fe5_7 1_555 1_555
O7 C4 1_555 1_555
C4 O17 1_555 1_555
H4 C4 1_555 1_555
Fe6 O7 1_555 1_555
Fe6 O1_2 1_555 1_555
O1_2 C1_2 1_555 1_555
C1_2 H1_2 1_555 1_555
O3 Fe6 1_555 1_555
C2 O3 1_555 1_555
H2 C2 1_555 1_555
O11_2 Fe6 1_555 1_555
C6_4 O11_2 1_555 1_555
H6_4 C6_4 1_555 1_555
O13_2 Fe6 1_555 1_555
O14_2 Fe6 1_555 1_555
O17_2 C6_5 1_555 1_555
C6_5 O14_2 1_555 1_555
H6_5 C6_5 1_555 1_555
C6_6 O13_2 1_555 1_555
H6_6 C6_6 1_555 1_555

#END
