
###############################################################################
#
# This file contains modified crystal structure data generated from the
# MOF subset of the Cambridge Structural Database (CSD) v543 
# hosted by the Cambridge Crystallographic Data Centre (CCDC).
#
# This work is licensed under the Creative Commons
# Attribution-NonCommercial-ShareAlike 4.0 International License.
# To view a copy of this license, visit
# http://creativecommons.org/licenses/by-nc-sa/4.0/
# or send a letter to
# Creative Commons, PO Box 1866, Mountain View, CA 94042, USA.
#
# CIF created using the CSD Python API on 29 September 2022
# The structure has been converted into the P1 space group
# The structure has a 3D framework
# The original CSD entry PESTAL is in the trigonal crystal system
# The framework has been calculated to contain at least 10.0% void space
# The void calculation uses a probe of radius 1.32A, grid spacing 0.4
# The framework is charged, counterions have been retained in the structure
#
###############################################################################

data_PESTAL
_chemical_formula_moiety         '(C12 H12 Fe5 O17)n'
_symmetry_cell_setting           triclinic
_symmetry_space_group_name_H-M   'P 1'
_symmetry_Int_Tables_number      1
_space_group_name_Hall           'P 1'
loop_
_symmetry_equiv_pos_site_id
_symmetry_equiv_pos_as_xyz
1 x,y,z
_cell_length_a                   8.23031(18)
_cell_length_b                   8.23031(18)
_cell_length_c                   13.8606(3)
_cell_angle_alpha                90
_cell_angle_beta                 90
_cell_angle_gamma                120
_cell_volume                     813.102
loop_
_atom_site_label
_atom_site_type_symbol
_atom_site_fract_x
_atom_site_fract_y
_atom_site_fract_z
Fe1 Fe -0.0000 -0.0000 0.5000
Fe7 Fe 0.0000 -0.0000 0.0000
O14 O 0.2054(3) 0.1956(2) 0.41835(12)
O16 O 0.0098(2) 0.2054(3) 0.58165(12)
Fe7_2 Fe 0.0000 -0.0000 1.0000
Fe1_2 Fe -0.0000 1.0000 0.5000
Fe7_3 Fe 0.0000 1.0000 0.0000
O15 O 0.1956(2) 0.9902(2) 0.58165(12)
Fe7_4 Fe 0.0000 1.0000 1.0000
Fe1_3 Fe 1.0000 -0.0000 0.5000
O1 O 0.8044(2) 0.0098(2) 0.41835(12)
O9 O 0.2054(3) 0.0098(2) 0.08165(12)
Fe7_5 Fe 1.0000 -0.0000 0.0000
Fe7_6 Fe 1.0000 -0.0000 1.0000
Fe1_4 Fe 1.0000 1.0000 0.5000
Fe2 Fe 0.3333 0.6667 0.2500
O2 O 0.5442(2) 0.8828(3) 0.33281(12)
C1 C 0.6639(3) 0.8739(3) 0.38150(16)
H1 H 0.6486 0.7554 0.3919
O4 O 0.1172(3) 0.6614(4) 0.33281(12)
C2 C 0.1261(3) 0.7900(4) 0.38150(16)
H2 H 0.2446 0.8932 0.3919
O6 O 0.3386(4) 0.4558(2) 0.33281(12)
C3 C 0.2100(4) 0.3361(3) 0.38150(16)
H3 H 0.1068 0.3514 0.3919
O8 O 0.1172(3) 0.4558(2) 0.16719(12)
C4 C 0.1261(3) 0.3361(3) 0.11850(16)
H4 H 0.2446 0.3514 0.1081
O10 O 0.3386(4) 0.8828(3) 0.16719(12)
C5 C 0.2100(4) 0.8739(3) 0.11850(16)
H5 H 0.1068 0.7554 0.1081
O11 O 0.8044(2) 0.7946(3) 0.08165(12)
O12 O 0.5442(2) 0.6614(4) 0.16719(12)
C6 C 0.6639(3) 0.7900(4) 0.11850(16)
H6 H 0.6486 0.8932 0.1081
Fe7_7 Fe 1.0000 1.0000 0.0000
O13 O 0.9902(2) 0.7946(3) 0.41835(12)
O17 O 0.7946(3) 0.8044(2) 0.58165(12)
Fe7_8 Fe 1.0000 1.0000 1.0000
O7 O 0.9902(2) 0.1956(2) 0.08165(12)
O17_2 O 0.1956(2) 0.2054(3) 0.91835(12)
O15_2 O 0.0098(2) 0.8044(2) 0.91835(12)
O16_2 O 0.7946(3) 0.9902(2) 0.91835(12)
Fe2_2 Fe 0.6667 0.3333 0.7500
O2_2 O 0.4558(2) 0.1172(3) 0.66719(12)
C1_2 C 0.3361(3) 0.1261(3) 0.61850(16)
H1_2 H 0.3514 0.2446 0.6081
O4_2 O 0.8828(3) 0.3386(4) 0.66719(12)
C2_2 C 0.8739(3) 0.2100(4) 0.61850(16)
H2_2 H 0.7554 0.1068 0.6081
O6_2 O 0.6614(4) 0.5442(2) 0.66719(12)
C3_2 C 0.7900(4) 0.6639(3) 0.61850(16)
H3_2 H 0.8932 0.6486 0.6081
O8_2 O 0.8828(3) 0.5442(2) 0.83281(12)
C4_2 C 0.8739(3) 0.6639(3) 0.88150(16)
H4_2 H 0.7554 0.6486 0.8919
O10_2 O 0.6614(4) 0.1172(3) 0.83281(12)
C5_2 C 0.7900(4) 0.1261(3) 0.88150(16)
H5_2 H 0.8932 0.2446 0.8919
O12_2 O 0.4558(2) 0.3386(4) 0.83281(12)
C6_2 C 0.3361(3) 0.2100(4) 0.88150(16)
H6_2 H 0.3514 0.1068 0.8919
loop_
_geom_bond_atom_site_label_1
_geom_bond_atom_site_label_2
_geom_bond_site_symmetry_1
_geom_bond_site_symmetry_2
O14 Fe1 1_555 1_555
O16 Fe1 1_555 1_555
O15 Fe1_2 1_555 1_555
Fe1_3 O1 1_555 1_555
Fe7 O9 1_555 1_555
Fe2 O2 1_555 1_555
O2 C1 1_555 1_555
C1 H1 1_555 1_555
O4 Fe2 1_555 1_555
C2 O4 1_555 1_555
H2 C2 1_555 1_555
O14 C3 1_555 1_555
O6 Fe2 1_555 1_555
C3 O6 1_555 1_555
H3 C3 1_555 1_555
O8 Fe2 1_555 1_555
C4 O8 1_555 1_555
H4 C4 1_555 1_555
O10 Fe2 1_555 1_555
C5 O10 1_555 1_555
H5 C5 1_555 1_555
O11 C6 1_555 1_555
O12 Fe2 1_555 1_555
C6 O12 1_555 1_555
H6 C6 1_555 1_555
Fe7_7 O11 1_555 1_555
O13 Fe1_4 1_555 1_555
O17 Fe1_4 1_555 1_555
Fe7_5 O7 1_555 1_555
O17_2 Fe7_2 1_555 1_555
O15_2 Fe7_4 1_555 1_555
O16_2 Fe7_8 1_555 1_555
Fe2_2 O2_2 1_555 1_555
O2_2 C1_2 1_555 1_555
C1_2 H1_2 1_555 1_555
O4_2 Fe2_2 1_555 1_555
C2_2 O4_2 1_555 1_555
H2_2 C2_2 1_555 1_555
O17 C3_2 1_555 1_555
O6_2 Fe2_2 1_555 1_555
C3_2 O6_2 1_555 1_555
H3_2 C3_2 1_555 1_555
O8_2 Fe2_2 1_555 1_555
C4_2 O8_2 1_555 1_555
H4_2 C4_2 1_555 1_555
O10_2 Fe2_2 1_555 1_555
C5_2 O10_2 1_555 1_555
H5_2 C5_2 1_555 1_555
O17_2 C6_2 1_555 1_555
O12_2 Fe2_2 1_555 1_555
C6_2 O12_2 1_555 1_555
H6_2 C6_2 1_555 1_555

#END
