
###############################################################################
#
# This file contains modified crystal structure data generated from the
# MOF subset of the Cambridge Structural Database (CSD) v543 
# hosted by the Cambridge Crystallographic Data Centre (CCDC).
#
# This work is licensed under the Creative Commons
# Attribution-NonCommercial-ShareAlike 4.0 International License.
# To view a copy of this license, visit
# http://creativecommons.org/licenses/by-nc-sa/4.0/
# or send a letter to
# Creative Commons, PO Box 1866, Mountain View, CA 94042, USA.
#
# CIF created using the CSD Python API on 29 September 2022
# The structure has been converted into the P1 space group
# The structure has a 3D framework
# The original CSD entry PESYAQ is in the rhombohedral crystal system
# The original CSD entry PESYAQ is in a Sohncke space group
# The framework has been calculated to contain at least 10.0% void space
# The void calculation uses a probe of radius 1.32A, grid spacing 0.4
#
###############################################################################

data_PESYAQ
_chemical_formula_moiety         '(C360 H252 Co18 N54 O79)n'
_symmetry_cell_setting           triclinic
_symmetry_space_group_name_H-M   'P 1'
_symmetry_Int_Tables_number      1
_space_group_name_Hall           'P 1'
loop_
_symmetry_equiv_pos_site_id
_symmetry_equiv_pos_as_xyz
1 x,y,z
_cell_length_a                   33.3394(10)
_cell_length_b                   33.3394(10)
_cell_length_c                   9.5690(6)
_cell_angle_alpha                90
_cell_angle_beta                 90
_cell_angle_gamma                120
_cell_volume                     9211.13
loop_
_atom_site_label
_atom_site_type_symbol
_atom_site_fract_x
_atom_site_fract_y
_atom_site_fract_z
Co5 Co 0.66537(3) 0.20010(3) 0.18046(7)
C3 C 0.6472(2) 0.0672(2) 0.0803(6)
H3 H 0.6440 0.0885 0.1354
C9 C 0.3347(3) 0.1603(2) 0.1634(8)
H8 H 0.3057 0.1541 0.1944
C10 C 0.3424(3) 0.1228(2) 0.1464(9)
H9 H 0.3190 0.0928 0.1665
C11 C 0.3857(3) 0.1310(2) 0.0986(7)
C12 C 0.4168(3) 0.1761(2) 0.0711(9)
H10 H 0.4457 0.1833 0.0367
C13 C 0.4076(3) 0.2121(2) 0.0916(8)
H11 H 0.4306 0.2424 0.0727
C14 C 0.39500(27) 0.09333(19) 0.0761(7)
C15 C 0.4347(3) 0.1009(2) 0.0035(7)
C17 C 0.4154(2) 0.0213(2) 0.0321(6)
C18 C 0.3754(2) 0.0124(2) 0.1044(6)
C19 C 0.3660(3) 0.0483(2) 0.1264(6)
H15 H 0.3396 0.0421 0.1762
C23 C 0.56501(19) 0.0201(2) 0.0101(6)
C24 C 0.5477(2) 0.0342(2) 0.1205(6)
H18 H 0.5671 0.0513 0.1936
C25 C 0.5018(2) 0.0225(2) 0.1209(7)
H19 H 0.4902 0.0320 0.1943
C32 C 0.65210(18) 0.11377(18) 0.5899(5)
C33 C 0.6475(2) 0.12448(19) 0.7283(5)
H24 H 0.6243 0.1020 0.7841
C34 C 0.6768(2) 0.1679(2) 0.7838(5)
C35 C 0.7111(2) 0.2016(2) 0.6994(6)
H25 H 0.7315 0.2306 0.7363
C36 C 0.7151(2) 0.19203(19) 0.5594(6)
H26 H 0.7372 0.2151 0.5025
C37 C 0.68607(18) 0.14814(18) 0.5047(5)
C38 C 0.69630(17) 0.13909(17) 0.3582(5)
C39 C 0.6727(2) 0.1787(2) 0.9324(5)
C40 C 0.61943(19) 0.06633(26) 0.5319(6)
Co1 Co 0.74143(2) 0.09999(2) 0.18782(7)
N1 N 0.68669(15) 0.06699(17) 0.0622(4)
N2 N 0.61242(16) 0.03256(17) 0.0080(5)
N4 N 0.36620(23) 0.20375(16) 0.1381(5)
N6 N 0.7309(3) 0.2941(3) 0.2856(8)
O1 O 0.71302(15) 0.11227(15) 0.3527(4)
O2 O 0.69109(15) 0.15819(15) 0.2550(4)
O3 O 0.70545(15) 0.21308(14) 0.9912(4)
O4 O 0.63554(14) 0.15414(15) 0.9998(4)
O5 O 0.60225(16) 0.03304(24) 0.6206(4)
O6 O 0.61050(16) 0.06049(24) 0.4061(4)
O7 O 0.7298(3) 0.3142(2) 0.1837(10)
O8 O 0.7097(2) 0.25231(16) 0.3078(6)
O9 O 0.6448(2) 0.2453(2) 0.0844(6)
H27 H 0.6528 0.2686 0.1370
H28 H 0.6156 0.2309 0.0735
Co3 Co 0.35856(3) 0.25857(2) 0.18782(7)
N7 N 0.60460(18) 0.17131(32) 0.2998(5)
N8 N 0.79625(16) 0.16245(28) 0.1381(5)
O12 O 0.76412(29) 0.06442(16) 0.2873(4)
C1 C 0.6768(2) 0.0311(2) 0.9721(7)
H1 H 0.6984 0.0234 0.9396
C2 C 0.6319(2) 0.0089(2) 0.9375(7)
H12 H 0.4552 0.1305 0.9703
C16 C 0.4443(2) 0.0655(2) 0.9801(7)
H13 H 0.4704 0.0714 0.9289
H14 H 0.3552 0.9828 0.1377
C20 C 0.47273(19) 0.99652(19) 0.0113(6)
C27 C 0.3869(2) 0.9011(2) 0.0039(7)
H20 H 0.4056 0.9012 0.0763
N5 N 0.42544(17) 0.98510(17) 0.0138(6)
Co4 Co 0.56668(2) 0.97477(3) 0.52115(7)
H2 H 0.6167 0.9832 0.8794
C4 C 0.2442(4) 0.7313(2) 0.7678(7)
H4 H 0.2318 0.7038 0.8183
C5 C 0.2727(3) 0.7724(2) 0.8379(7)
H5 H 0.2785 0.7719 0.9329
C6 C 0.2924(2) 0.8135(2) 0.7676(6)
C7 C 0.2802(3) 0.8120(2) 0.6281(8)
H6 H 0.2910 0.8392 0.5772
C8 C 0.2517(4) 0.7695(3) 0.5655(7)
H7 H 0.2449 0.7692 0.4711
C21 C 0.4897(2) 0.9827(2) 0.9042(7)
H16 H 0.4703 0.9655 0.8312
C22 C 0.5365(2) 0.9944(2) 0.9028(7)
H17 H 0.5481 0.9848 0.8296
C26 C 0.3915(2) 0.9423(2) 0.9543(6)
C28 C 0.3542(2) 0.8599(2) 0.9438(7)
H21 H 0.3508 0.8323 0.9782
C29 C 0.3259(2) 0.8581(2) 0.8334(6)
C30 C 0.3322(2) 0.9002(2) 0.7853(7)
H22 H 0.3142 0.9004 0.7112
C31 C 0.3642(2) 0.9415(2) 0.8442(7)
H23 H 0.3676 0.9692 0.8099
N3 N 0.23337(27) 0.72873(18) 0.6331(5)
Co6 Co 0.20140(4) 0.66796(3) 0.51379(7)
H14_2 H 0.0172 0.3724 0.1377
C20_2 C 0.00348(19) 0.47621(27) 0.0113(6)
C27_2 C 0.0989(2) 0.4858(3) 0.0039(7)
H20_2 H 0.0988 0.5044 0.0763
N5_2 N 0.01490(17) 0.44034(24) 0.0138(6)
Co4_2 Co 0.02523(3) 0.59190(4) 0.52115(7)
H2_2 H 0.0168 0.6335 0.8794
C4_2 C 0.2687(2) 0.5129(4) 0.7678(7)
H4_2 H 0.2962 0.5280 0.8183
C5_2 C 0.2276(2) 0.5003(4) 0.8379(7)
H5_2 H 0.2281 0.5066 0.9329
C6_2 C 0.1865(2) 0.4789(3) 0.7676(6)
C7_2 C 0.1880(2) 0.4682(4) 0.6281(8)
H6_2 H 0.1608 0.4518 0.5772
C8_2 C 0.2305(3) 0.4822(5) 0.5655(7)
H7_2 H 0.2308 0.4757 0.4711
C21_2 C 0.0173(2) 0.5070(3) 0.9042(7)
H16_2 H 0.0345 0.5048 0.8312
C22_2 C 0.0056(2) 0.5421(3) 0.9028(7)
H17_2 H 0.0152 0.5633 0.8296
C26_2 C 0.0577(2) 0.4492(3) 0.9543(6)
C28_2 C 0.1401(2) 0.4943(3) 0.9438(7)
H21_2 H 0.1677 0.5185 0.9782
C29_2 C 0.1419(2) 0.4678(3) 0.8334(6)
C30_2 C 0.0998(2) 0.4320(3) 0.7853(7)
H22_2 H 0.0996 0.4138 0.7112
C31_2 C 0.0585(2) 0.4227(3) 0.8442(7)
H23_2 H 0.0308 0.3984 0.8099
N3_2 N 0.27127(18) 0.50464(32) 0.6331(5)
Co6_2 Co 0.33204(3) 0.53343(5) 0.51379(7)
Co5_2 Co 0.79990(3) 0.46527(4) 0.18046(7)
C3_2 C 0.9328(2) 0.5800(3) 0.0803(6)
H3_2 H 0.9115 0.5555 0.1354
C9_2 C 0.8397(2) 0.1744(4) 0.1634(8)
H8_2 H 0.8459 0.1516 0.1944
C10_2 C 0.8772(2) 0.2196(4) 0.1464(9)
H9_2 H 0.9072 0.2262 0.1665
C11_2 C 0.8690(2) 0.2547(4) 0.0986(7)
C12_2 C 0.8239(2) 0.2407(4) 0.0711(9)
H10_2 H 0.8167 0.2624 0.0367
C13_2 C 0.7879(2) 0.1955(4) 0.0916(8)
H11_2 H 0.7576 0.1882 0.0727
C14_2 C 0.90667(19) 0.30167(33) 0.0761(7)
C15_2 C 0.8991(2) 0.3338(4) 0.0035(7)
C17_2 C 0.9787(2) 0.3941(3) 0.0321(6)
C18_2 C 0.9876(2) 0.3630(3) 0.1044(6)
C19_2 C 0.9517(2) 0.3177(4) 0.1264(6)
H15_2 H 0.9579 0.2975 0.1762
C23_2 C 0.9799(2) 0.54491(28) 0.0101(6)
C24_2 C 0.9658(2) 0.5135(3) 0.1205(6)
H18_2 H 0.9487 0.5158 0.1936
C25_2 C 0.9775(2) 0.4793(3) 0.1209(7)
H19_2 H 0.9680 0.4582 0.1943
C32_2 C 0.88623(18) 0.53833(25) 0.5899(5)
C33_2 C 0.87552(19) 0.52302(28) 0.7283(5)
H24_2 H 0.8980 0.5223 0.7841
C34_2 C 0.8321(2) 0.5089(3) 0.7838(5)
C35_2 C 0.7984(2) 0.5095(3) 0.6994(6)
H25_2 H 0.7694 0.5009 0.7363
C36_2 C 0.80797(19) 0.52307(28) 0.5594(6)
H26_2 H 0.7849 0.5221 0.5025
C37_2 C 0.85186(18) 0.53793(25) 0.5047(5)
C38_2 C 0.86091(17) 0.55721(24) 0.3582(5)
C39_2 C 0.8213(2) 0.4940(3) 0.9324(5)
C40_2 C 0.93367(26) 0.55310(32) 0.5319(6)
Co1_2 Co 0.90001(2) 0.64144(3) 0.18782(7)
N1_2 N 0.93301(17) 0.61970(23) 0.0622(4)
N2_2 N 0.96744(17) 0.57986(23) 0.0080(5)
N6_2 N 0.7059(3) 0.4368(4) 0.2856(8)
O1_2 O 0.88773(15) 0.60075(21) 0.3527(4)
O2_2 O 0.84181(15) 0.53290(21) 0.2550(4)
O3_2 O 0.78692(14) 0.49237(21) 0.9912(4)
O4_2 O 0.84586(15) 0.48140(21) 0.9998(4)
O5_2 O 0.96696(24) 0.56921(29) 0.6206(4)
O6_2 O 0.93951(24) 0.55001(29) 0.4061(4)
O7_2 O 0.6858(2) 0.4156(4) 0.1837(10)
O8_2 O 0.74769(16) 0.45739(26) 0.3078(6)
O9_2 O 0.7547(2) 0.3995(3) 0.0844(6)
H27_2 H 0.7314 0.3842 0.1370
H28_2 H 0.7691 0.3847 0.0735
N7_2 N 0.82869(32) 0.43330(37) 0.2998(5)
N8_2 N 0.83755(28) 0.63380(32) 0.1381(5)
O12_2 O 0.93558(16) 0.69971(33) 0.2873(4)
C1_2 C 0.9689(2) 0.6457(3) 0.9721(7)
H1_2 H 0.9766 0.6750 0.9396
C2_2 C 0.9911(2) 0.6230(3) 0.9375(7)
H12_2 H 0.8695 0.3247 0.9703
C16_2 C 0.9345(2) 0.3788(3) 0.9801(7)
H13_2 H 0.9286 0.3990 0.9289
Co5_3 Co 0.53473(4) 0.33463(3) 0.18046(7)
C3_3 C 0.4200(3) 0.3528(2) 0.0803(6)
H3_3 H 0.4445 0.3560 0.1354
C9_3 C 0.8256(4) 0.6653(3) 0.1634(8)
H8_3 H 0.8484 0.6943 0.1944
C10_3 C 0.7804(4) 0.6576(3) 0.1464(9)
H9_3 H 0.7738 0.6810 0.1665
C11_3 C 0.7453(4) 0.6143(3) 0.0986(7)
C12_3 C 0.7593(4) 0.5832(3) 0.0711(9)
H10_3 H 0.7376 0.5543 0.0367
C13_3 C 0.8045(4) 0.5924(3) 0.0916(8)
H11_3 H 0.8118 0.5694 0.0727
C14_3 C 0.69833(33) 0.60500(27) 0.0761(7)
C15_3 C 0.6662(4) 0.5653(3) 0.0035(7)
C17_3 C 0.6059(3) 0.5846(2) 0.0321(6)
C18_3 C 0.6370(3) 0.6246(2) 0.1044(6)
H14_3 H 0.6276 0.6448 0.1377
C19_3 C 0.6823(4) 0.6340(3) 0.1264(6)
H15_3 H 0.7025 0.6604 0.1762
C20_3 C 0.52379(27) 0.52727(19) 0.0113(6)
C23_3 C 0.45509(28) 0.43499(19) 0.0101(6)
C24_3 C 0.4865(3) 0.4523(2) 0.1205(6)
H18_3 H 0.4842 0.4329 0.1936
C25_3 C 0.5207(3) 0.4982(2) 0.1209(7)
H19_3 H 0.5418 0.5098 0.1943
C27_3 C 0.5142(3) 0.6131(2) 0.0039(7)
H20_3 H 0.4956 0.5944 0.0763
C32_3 C 0.46167(25) 0.34790(18) 0.5899(5)
C33_3 C 0.47698(28) 0.3525(2) 0.7283(5)
H24_3 H 0.4777 0.3757 0.7841
C34_3 C 0.4911(3) 0.3232(2) 0.7838(5)
C35_3 C 0.4905(3) 0.2889(2) 0.6994(6)
H25_3 H 0.4991 0.2685 0.7363
C36_3 C 0.47693(28) 0.2849(2) 0.5594(6)
H26_3 H 0.4779 0.2628 0.5025
C37_3 C 0.46207(25) 0.31393(18) 0.5047(5)
C38_3 C 0.44279(24) 0.30370(17) 0.3582(5)
C39_3 C 0.5060(3) 0.3273(2) 0.9324(5)
C40_3 C 0.44690(32) 0.38057(19) 0.5319(6)
N1_3 N 0.38030(23) 0.31331(15) 0.0622(4)
N2_3 N 0.42014(23) 0.38758(16) 0.0080(5)
N5_3 N 0.55966(24) 0.57456(17) 0.0138(6)
N6_3 N 0.5632(4) 0.2691(3) 0.2856(8)
O1_3 O 0.39925(21) 0.28698(15) 0.3527(4)
O2_3 O 0.46710(21) 0.30891(15) 0.2550(4)
O3_3 O 0.50763(21) 0.29455(15) 0.9912(4)
O4_3 O 0.51860(21) 0.36446(14) 0.9998(4)
O5_3 O 0.43079(29) 0.39775(16) 0.6206(4)
O6_3 O 0.44999(29) 0.38950(16) 0.4061(4)
O7_3 O 0.5844(4) 0.2702(3) 0.1837(10)
O8_3 O 0.54261(26) 0.2903(2) 0.3078(6)
O9_3 O 0.6005(3) 0.3552(2) 0.0844(6)
H27_3 H 0.6158 0.3472 0.1370
H28_3 H 0.6153 0.3844 0.0735
Co4_3 Co 0.40810(4) 0.43332(2) 0.52115(7)
N7_3 N 0.56670(37) 0.39540(18) 0.2998(5)
O12_3 O 0.30029(33) 0.23588(29) 0.2873(4)
C1_3 C 0.3543(3) 0.3232(2) 0.9721(7)
H1_3 H 0.3250 0.3016 0.9396
C2_3 C 0.3770(3) 0.3681(2) 0.9375(7)
H2_3 H 0.3665 0.3833 0.8794
C4_3 C 0.4871(4) 0.7558(4) 0.7678(7)
H4_3 H 0.4720 0.7682 0.8183
C5_3 C 0.4997(4) 0.7273(3) 0.8379(7)
H5_3 H 0.4934 0.7215 0.9329
C6_3 C 0.5211(3) 0.7076(2) 0.7676(6)
C7_3 C 0.5318(4) 0.7198(3) 0.6281(8)
H6_3 H 0.5482 0.7090 0.5772
C8_3 C 0.5178(5) 0.7483(4) 0.5655(7)
H7_3 H 0.5243 0.7551 0.4711
H12_3 H 0.6753 0.5448 0.9703
C16_3 C 0.6212(3) 0.5557(2) 0.9801(7)
H13_3 H 0.6010 0.5296 0.9289
C21_3 C 0.4930(3) 0.5103(2) 0.9042(7)
H16_3 H 0.4952 0.5297 0.8312
C22_3 C 0.4579(3) 0.4635(2) 0.9028(7)
H17_3 H 0.4367 0.4519 0.8296
C26_3 C 0.5508(3) 0.6085(2) 0.9543(6)
C28_3 C 0.5057(3) 0.6458(2) 0.9438(7)
H21_3 H 0.4815 0.6492 0.9782
C29_3 C 0.5322(3) 0.6741(2) 0.8334(6)
C30_3 C 0.5680(3) 0.6678(2) 0.7853(7)
H22_3 H 0.5862 0.6858 0.7112
C31_3 C 0.5773(3) 0.6358(2) 0.8442(7)
H23_3 H 0.6016 0.6324 0.8099
N3_3 N 0.49536(32) 0.76663(27) 0.6331(5)
Co6_3 Co 0.46657(5) 0.79860(4) 0.51379(7)
C33_4 C 0.3142(2) 0.45781(19) 0.0616(5)
H24_4 H 0.2910 0.4353 0.1174
C34_4 C 0.3435(2) 0.5012(2) 0.1171(5)
C35_4 C 0.3778(2) 0.5349(2) 0.0327(6)
H25_4 H 0.3982 0.5639 0.0696
C39_4 C 0.3394(2) 0.5120(2) 0.2657(5)
O3_4 O 0.37212(15) 0.54641(14) 0.3245(4)
O4_4 O 0.30221(14) 0.48747(15) 0.3331(4)
C1_4 C 0.3435(2) 0.3644(2) 0.3054(7)
H1_4 H 0.3651 0.3567 0.2729
C2_4 C 0.2986(2) 0.3422(2) 0.2708(7)
H2_4 H 0.2834 0.3165 0.2127
C3_4 C 0.3139(2) 0.4005(2) 0.4136(6)
H3_4 H 0.3107 0.4218 0.4687
C9_4 C 0.0014(3) 0.4936(2) 0.4967(8)
C10_4 C 0.0091(3) 0.4561(2) 0.4797(9)
C11_4 C 0.0524(3) 0.4643(2) 0.4319(7)
C12_4 C 0.0835(3) 0.5094(2) 0.4044(9)
H10_4 H 0.1124 0.5166 0.3700
C13_4 C 0.0743(3) 0.5454(2) 0.4249(8)
H11_4 H 0.0973 0.5757 0.4060
C14_4 C 0.06167(27) 0.42666(19) 0.4094(7)
C15_4 C 0.1014(3) 0.4342(2) 0.3368(7)
H12_4 H 0.1219 0.4638 0.3036
C16_4 C 0.1110(2) 0.3988(2) 0.3134(7)
H13_4 H 0.1371 0.4047 0.2622
C17_4 C 0.0821(2) 0.3546(2) 0.3654(6)
C18_4 C 0.0421(2) 0.3457(2) 0.4377(6)
H14_4 H 0.0219 0.3161 0.4710
C19_4 C 0.0327(3) 0.3816(2) 0.4597(6)
H15_4 H 0.0063 0.3754 0.5095
C20_4 C 0.13940(19) 0.32985(19) 0.3446(6)
C21_4 C 0.1564(2) 0.3160(2) 0.2375(7)
H16_4 H 0.1370 0.2988 0.1645
C22_4 C 0.2032(2) 0.3277(2) 0.2361(7)
H17_4 H 0.2148 0.3181 0.1629
C23_4 C 0.23168(19) 0.3534(2) 0.3434(6)
C24_4 C 0.2144(2) 0.3675(2) 0.4538(6)
H18_4 H 0.2338 0.3846 0.5269
C25_4 C 0.1685(2) 0.3558(2) 0.4542(7)
H19_4 H 0.1569 0.3653 0.5276
C26_4 C 0.0582(2) 0.2756(2) 0.2876(6)
C27_4 C 0.0536(2) 0.2344(2) 0.3372(7)
H20_4 H 0.0723 0.2345 0.4096
C28_4 C 0.0209(2) 0.1932(2) 0.2771(7)
H21_4 H 0.0175 0.1656 0.3115
C31_4 C 0.0309(2) 0.2748(2) 0.1775(7)
H23_4 H 0.0343 0.3025 0.1432
C32_4 C 0.31877(18) 0.44710(18) 0.9232(5)
C36_4 C 0.3818(2) 0.52536(19) 0.8927(6)
H26_4 H 0.4039 0.5484 0.8358
C37_4 C 0.35274(18) 0.48147(18) 0.8380(5)
C38_4 C 0.36297(17) 0.47242(17) 0.6915(5)
C40_4 C 0.28610(19) 0.39966(26) 0.8652(6)
N1_4 N 0.35336(15) 0.40032(17) 0.3955(4)
N2_4 N 0.27909(16) 0.36589(17) 0.3413(5)
N4_2 N 0.03287(23) 0.53708(16) 0.4714(5)
N5_4 N 0.09211(17) 0.31843(17) 0.3471(6)
N6_4 N 0.3976(3) 0.6274(3) 0.6189(8)
O1_4 O 0.37969(15) 0.44560(15) 0.6860(4)
O2_4 O 0.35776(15) 0.49152(15) 0.5883(4)
O5_4 O 0.26892(16) 0.36637(24) 0.9539(4)
O6_4 O 0.27717(16) 0.39382(24) 0.7394(4)
O7_4 O 0.3965(3) 0.6475(2) 0.5170(10)
O8_4 O 0.3764(2) 0.58564(16) 0.6411(6)
O9_4 O 0.3115(2) 0.5786(2) 0.4177(6)
H27_4 H 0.3195 0.6019 0.4703
H28_4 H 0.2823 0.5642 0.4068
Co4_4 Co 0.23334(2) 0.30811(3) 0.85449(7)
N8_3 N 0.46292(16) 0.49578(28) 0.4714(5)
C7_4 C 0.9469(3) 0.1453(2) 0.9614(8)
H6_4 H 0.9577 0.1725 0.9105
C8_4 C 0.9184(4) 0.1028(3) 0.8988(7)
H7_4 H 0.9116 0.1025 0.8044
N3_4 N 0.90004(27) 0.06206(18) 0.9664(5)
Co6_4 Co 0.86806(4) 0.00130(3) 0.84713(7)
H1_5 H 0.6433 0.0083 0.2729
C33_5 C 0.54219(19) 0.85635(28) 0.0616(5)
H24_5 H 0.5647 0.8556 0.1174
C34_5 C 0.4988(2) 0.8422(3) 0.1171(5)
C35_5 C 0.4651(2) 0.8428(3) 0.0327(6)
H25_5 H 0.4361 0.8342 0.0696
C39_5 C 0.4880(2) 0.8273(3) 0.2657(5)
O3_5 O 0.45359(14) 0.82570(21) 0.3245(4)
O4_5 O 0.51253(15) 0.81473(21) 0.3331(4)
C1_5 C 0.6356(2) 0.9790(3) 0.3054(7)
C2_5 C 0.6578(2) 0.9563(3) 0.2708(7)
H2_5 H 0.6835 0.9668 0.2127
C3_5 C 0.5995(2) 0.9133(3) 0.4136(6)
H3_5 H 0.5782 0.8888 0.4687
C4_4 C 0.9354(2) 0.8462(4) 0.1011(7)
H4_4 H 0.9629 0.8613 0.1516
C5_4 C 0.8943(2) 0.8336(4) 0.1712(7)
H5_4 H 0.8948 0.8399 0.2662
C6_4 C 0.8532(2) 0.8122(3) 0.1009(6)
C9_5 C 0.5064(2) 0.5077(4) 0.4967(8)
H8_4 H 0.5126 0.4849 0.5277
C10_5 C 0.5439(2) 0.5529(4) 0.4797(9)
H9_4 H 0.5739 0.5595 0.4998
C11_5 C 0.5357(2) 0.5880(4) 0.4319(7)
C12_5 C 0.4906(2) 0.5740(4) 0.4044(9)
H10_5 H 0.4834 0.5957 0.3700
C13_5 C 0.4546(2) 0.5288(4) 0.4249(8)
H11_5 H 0.4243 0.5215 0.4060
C14_5 C 0.57334(19) 0.63500(33) 0.4094(7)
C15_5 C 0.5658(2) 0.6671(4) 0.3368(7)
H12_5 H 0.5362 0.6580 0.3036
C16_5 C 0.6012(2) 0.7121(3) 0.3134(7)
H13_5 H 0.5953 0.7323 0.2622
C17_5 C 0.6454(2) 0.7274(3) 0.3654(6)
C18_5 C 0.6543(2) 0.6963(3) 0.4377(6)
H14_5 H 0.6839 0.7057 0.4710
C19_5 C 0.6184(2) 0.6510(4) 0.4597(6)
H15_5 H 0.6246 0.6308 0.5095
C20_5 C 0.67015(19) 0.80954(27) 0.3446(6)
C21_5 C 0.6840(2) 0.8403(3) 0.2375(7)
H16_5 H 0.7012 0.8381 0.1645
C22_5 C 0.6723(2) 0.8754(3) 0.2361(7)
H17_5 H 0.6819 0.8966 0.1629
C23_5 C 0.6466(2) 0.87824(28) 0.3434(6)
C24_5 C 0.6325(2) 0.8468(3) 0.4538(6)
H18_5 H 0.6154 0.8491 0.5269
C25_5 C 0.6442(2) 0.8126(3) 0.4542(7)
H19_5 H 0.6347 0.7915 0.5276
C26_5 C 0.7244(2) 0.7825(3) 0.2876(6)
C27_5 C 0.7656(2) 0.8191(3) 0.3372(7)
H20_5 H 0.7655 0.8377 0.4096
C28_5 C 0.8068(2) 0.8276(3) 0.2771(7)
H21_5 H 0.8344 0.8518 0.3115
C29_4 C 0.8086(2) 0.8011(3) 0.1667(6)
C30_4 C 0.7665(2) 0.7653(3) 0.1186(7)
H22_4 H 0.7663 0.7471 0.0445
C31_5 C 0.7252(2) 0.7560(3) 0.1775(7)
H23_5 H 0.6975 0.7317 0.1432
C32_5 C 0.55290(18) 0.87166(25) 0.9232(5)
C36_5 C 0.47464(19) 0.85640(28) 0.8927(6)
H26_5 H 0.4516 0.8554 0.8358
C37_5 C 0.51853(18) 0.87126(25) 0.8380(5)
C38_5 C 0.52758(17) 0.89054(24) 0.6915(5)
C40_5 C 0.60034(26) 0.88643(32) 0.8652(6)
N1_5 N 0.59968(17) 0.95303(23) 0.3955(4)
N2_5 N 0.63411(17) 0.91319(23) 0.3413(5)
N5_5 N 0.68157(17) 0.77367(24) 0.3471(6)
N6_5 N 0.3726(3) 0.7701(4) 0.6189(8)
O1_5 O 0.55440(15) 0.93408(21) 0.6860(4)
O2_5 O 0.50848(15) 0.86623(21) 0.5883(4)
O5_5 O 0.63363(24) 0.90254(29) 0.9539(4)
O6_5 O 0.60618(24) 0.88334(29) 0.7394(4)
O7_5 O 0.3525(2) 0.7489(4) 0.5170(10)
O8_5 O 0.41436(16) 0.79072(26) 0.6411(6)
O9_5 O 0.4214(2) 0.7328(3) 0.4177(6)
H27_5 H 0.3981 0.7175 0.4703
H28_5 H 0.4358 0.7180 0.4068
Co4_5 Co 0.69189(3) 0.92524(4) 0.85449(7)
N8_4 N 0.50422(28) 0.96713(32) 0.4714(5)
C7_5 C 0.8547(2) 0.8015(4) 0.9614(8)
H6_5 H 0.8275 0.7851 0.9105
C8_5 C 0.8972(3) 0.8155(5) 0.8988(7)
H7_5 H 0.8975 0.8090 0.8044
N3_5 N 0.93794(18) 0.83797(32) 0.9664(5)
Co6_5 Co 0.99870(3) 0.86677(5) 0.84713(7)
C7_6 C 0.1985(4) 0.0531(3) 0.9614(8)
H6_6 H 0.2149 0.0423 0.9105
C8_6 C 0.1845(5) 0.0816(4) 0.8988(7)
H7_6 H 0.1910 0.0884 0.8044
N3_6 N 0.16203(32) 0.09996(27) 0.9664(5)
Co6_6 Co 0.13323(5) 0.13194(4) 0.84713(7)
C33_6 C 0.14365(28) 0.6858(2) 0.0616(5)
H24_6 H 0.1444 0.7090 0.1174
C34_6 C 0.1578(3) 0.6565(2) 0.1171(5)
C35_6 C 0.1572(3) 0.6222(2) 0.0327(6)
H25_6 H 0.1658 0.6018 0.0696
C39_6 C 0.1727(3) 0.6606(2) 0.2657(5)
O3_6 O 0.17430(21) 0.62788(15) 0.3245(4)
O4_6 O 0.18527(21) 0.69779(14) 0.3331(4)
C1_6 C 0.0210(3) 0.6565(2) 0.3054(7)
C2_6 C 0.0437(3) 0.7014(2) 0.2708(7)
H2_6 H 0.0332 0.7166 0.2127
C3_6 C 0.0867(3) 0.6861(2) 0.4136(6)
H3_6 H 0.1112 0.6893 0.4687
C9_6 C 0.4923(4) 0.9986(3) 0.4967(8)
C10_6 C 0.4471(4) 0.9909(3) 0.4797(9)
C11_6 C 0.4120(4) 0.9476(3) 0.4319(7)
C12_6 C 0.4260(4) 0.9165(3) 0.4044(9)
H10_6 H 0.4043 0.8876 0.3700
C13_6 C 0.4712(4) 0.9257(3) 0.4249(8)
H11_6 H 0.4785 0.9027 0.4060
C14_6 C 0.36500(33) 0.93833(27) 0.4094(7)
C15_6 C 0.3329(4) 0.8986(3) 0.3368(7)
H12_6 H 0.3420 0.8781 0.3036
C16_6 C 0.2879(3) 0.8890(2) 0.3134(7)
H13_6 H 0.2677 0.8629 0.2622
C17_6 C 0.2726(3) 0.9179(2) 0.3654(6)
C18_6 C 0.3037(3) 0.9579(2) 0.4377(6)
H14_6 H 0.2943 0.9781 0.4710
C19_6 C 0.3490(4) 0.9673(3) 0.4597(6)
H15_6 H 0.3692 0.9937 0.5095
C20_6 C 0.19046(27) 0.86060(19) 0.3446(6)
C21_6 C 0.1597(3) 0.8436(2) 0.2375(7)
H16_6 H 0.1619 0.8630 0.1645
C22_6 C 0.1246(3) 0.7968(2) 0.2361(7)
H17_6 H 0.1034 0.7852 0.1629
C23_6 C 0.12176(28) 0.76832(19) 0.3434(6)
C24_6 C 0.1532(3) 0.7856(2) 0.4538(6)
H18_6 H 0.1509 0.7662 0.5269
C25_6 C 0.1874(3) 0.8315(2) 0.4542(7)
H19_6 H 0.2085 0.8431 0.5276
C26_6 C 0.2175(3) 0.9418(2) 0.2876(6)
C27_6 C 0.1809(3) 0.9464(2) 0.3372(7)
H20_6 H 0.1623 0.9277 0.4096
C28_6 C 0.1724(3) 0.9791(2) 0.2771(7)
H21_6 H 0.1482 0.9825 0.3115
C31_6 C 0.2440(3) 0.9691(2) 0.1775(7)
H23_6 H 0.2683 0.9657 0.1432
C32_6 C 0.12834(25) 0.68123(18) 0.9232(5)
C36_6 C 0.14360(28) 0.6182(2) 0.8927(6)
H26_6 H 0.1446 0.5961 0.8358
C37_6 C 0.12874(25) 0.64726(18) 0.8380(5)
C38_6 C 0.10946(24) 0.63703(17) 0.6915(5)
C40_6 C 0.11357(32) 0.71390(19) 0.8652(6)
N1_6 N 0.04697(23) 0.64664(15) 0.3955(4)
N2_6 N 0.08681(23) 0.72091(16) 0.3413(5)
N5_6 N 0.22633(24) 0.90789(17) 0.3471(6)
N6_6 N 0.2299(4) 0.6024(3) 0.6189(8)
O1_6 O 0.06592(21) 0.62031(15) 0.6860(4)
O2_6 O 0.13377(21) 0.64224(15) 0.5883(4)
O5_6 O 0.09746(29) 0.73108(16) 0.9539(4)
O6_6 O 0.11666(29) 0.72283(16) 0.7394(4)
O7_6 O 0.2511(4) 0.6035(3) 0.5170(10)
O8_6 O 0.20928(26) 0.6236(2) 0.6411(6)
O9_6 O 0.2672(3) 0.6885(2) 0.4177(6)
H27_6 H 0.2825 0.6805 0.4703
H28_6 H 0.2820 0.7177 0.4068
Co4_6 Co 0.07476(4) 0.76666(2) 0.85449(7)
H1_6 H 0.9917 0.6349 0.2729
C34_7 C 0.0101(2) 0.8346(2) 0.4505(5)
C35_7 C 0.0444(2) 0.8683(2) 0.3661(6)
H25_7 H 0.0648 0.8973 0.4030
C36_7 C 0.0484(2) 0.85870(19) 0.2261(6)
H26_7 H 0.0705 0.8818 0.1692
C37_7 C 0.01940(18) 0.81481(18) 0.1714(5)
C38_7 C 0.02963(17) 0.80576(17) 0.0249(5)
C39_7 C 0.0060(2) 0.8454(2) 0.5991(5)
O1_7 O 0.04635(15) 0.77894(15) 0.0194(4)
O3_7 O 0.03878(15) 0.87975(14) 0.6579(4)
C1_7 C 0.0101(2) 0.6978(2) 0.6388(7)
H1_7 H 0.0317 0.6901 0.6063
N1_7 N 0.02002(15) 0.73366(17) 0.7289(4)
N6_7 N 0.0642(3) 0.9608(3) 0.9523(8)
O2_7 O 0.02442(15) 0.82486(15) 0.9217(4)
O7_7 O 0.0631(3) 0.9809(2) 0.8504(10)
O8_7 O 0.0430(2) 0.91898(16) 0.9745(6)
N8_5 N 0.12958(16) 0.82912(28) 0.8048(5)
C32_7 C 0.98543(18) 0.78044(18) 0.2566(5)
C33_7 C 0.9808(2) 0.79115(19) 0.3950(5)
H24_7 H 0.9576 0.7687 0.4508
C40_7 C 0.95276(19) 0.73300(26) 0.1986(6)
O4_7 O 0.96887(14) 0.82081(15) 0.6665(4)
O6_7 O 0.94383(16) 0.72716(24) 0.0728(4)
C2_7 C 0.9652(2) 0.6756(2) 0.6042(7)
H2_7 H 0.9500 0.6499 0.5461
C3_7 C 0.9805(2) 0.7339(2) 0.7470(6)
H3_7 H 0.9773 0.7552 0.8021
C4_5 C 0.5775(4) 0.3980(2) 0.4345(7)
H4_5 H 0.5651 0.3705 0.4850
C5_5 C 0.6060(3) 0.4391(2) 0.5046(7)
H5_5 H 0.6118 0.4386 0.5996
C6_5 C 0.6257(2) 0.4802(2) 0.4343(6)
C7_7 C 0.6135(3) 0.4787(2) 0.2948(8)
H6_7 H 0.6243 0.5059 0.2439
C8_7 C 0.5850(4) 0.4362(3) 0.2322(7)
H7_7 H 0.5782 0.4359 0.1378
C9_7 C 0.6680(3) 0.8270(2) 0.8301(8)
H8_5 H 0.6390 0.8208 0.8611
C10_7 C 0.6757(3) 0.7895(2) 0.8131(9)
H9_5 H 0.6523 0.7595 0.8332
C11_7 C 0.7190(3) 0.7977(2) 0.7653(7)
C12_7 C 0.7501(3) 0.8428(2) 0.7378(9)
H10_7 H 0.7790 0.8500 0.7034
C13_7 C 0.7409(3) 0.8788(2) 0.7583(8)
H11_7 H 0.7639 0.9091 0.7394
C14_7 C 0.72833(27) 0.76000(19) 0.7428(7)
C15_7 C 0.7680(3) 0.7676(2) 0.6702(7)
H12_7 H 0.7885 0.7972 0.6370
C16_7 C 0.7776(2) 0.7322(2) 0.6468(7)
H13_7 H 0.8037 0.7381 0.5956
C17_7 C 0.7487(2) 0.6880(2) 0.6988(6)
C18_7 C 0.7087(2) 0.6791(2) 0.7711(6)
H14_7 H 0.6885 0.6495 0.8044
C19_7 C 0.6993(3) 0.7150(2) 0.7931(6)
H15_7 H 0.6729 0.7088 0.8429
C20_7 C 0.80606(19) 0.66319(19) 0.6780(6)
C21_7 C 0.8230(2) 0.6494(2) 0.5709(7)
H16_7 H 0.8036 0.6322 0.4979
C22_7 C 0.8698(2) 0.6611(2) 0.5695(7)
H17_7 H 0.8814 0.6515 0.4963
C23_7 C 0.89834(19) 0.6868(2) 0.6768(6)
C24_7 C 0.8810(2) 0.7009(2) 0.7872(6)
H18_7 H 0.9004 0.7180 0.8603
C25_7 C 0.8351(2) 0.6892(2) 0.7876(7)
H19_7 H 0.8235 0.6987 0.8610
C26_7 C 0.7248(2) 0.6090(2) 0.6210(6)
C27_7 C 0.7202(2) 0.5678(2) 0.6706(7)
H20_7 H 0.7389 0.5679 0.7430
C28_7 C 0.6875(2) 0.5266(2) 0.6105(7)
H21_7 H 0.6841 0.4990 0.6449
C29_5 C 0.6592(2) 0.5248(2) 0.5001(6)
C30_5 C 0.6655(2) 0.5669(2) 0.4520(7)
H22_5 H 0.6475 0.5671 0.3779
C31_7 C 0.6975(2) 0.6082(2) 0.5109(7)
H23_7 H 0.7009 0.6359 0.4766
N2_7 N 0.94575(16) 0.69923(17) 0.6747(5)
N4_3 N 0.69953(23) 0.87042(16) 0.8048(5)
N5_7 N 0.75877(17) 0.65177(17) 0.6805(6)
O9_7 O 0.9781(2) 0.9120(2) 0.7511(6)
H27_7 H 0.9861 0.9353 0.8037
H28_7 H 0.9489 0.8976 0.7402
C32_8 C 0.21956(18) 0.20500(25) 0.2566(5)
C33_8 C 0.20885(19) 0.18969(28) 0.3950(5)
H24_8 H 0.2313 0.1890 0.4508
C34_8 C 0.1654(2) 0.1756(3) 0.4505(5)
C35_8 C 0.1317(2) 0.1762(3) 0.3661(6)
H25_8 H 0.1027 0.1676 0.4030
C36_8 C 0.14130(19) 0.18974(28) 0.2261(6)
H26_8 H 0.1182 0.1888 0.1692
C37_8 C 0.18519(18) 0.20460(25) 0.1714(5)
C38_8 C 0.19424(17) 0.22388(24) 0.0249(5)
C39_8 C 0.1546(2) 0.1607(3) 0.5991(5)
C40_8 C 0.26700(26) 0.21977(32) 0.1986(6)
O1_8 O 0.22106(15) 0.26742(21) 0.0194(4)
O3_8 O 0.12025(14) 0.15904(21) 0.6579(4)
O4_8 O 0.17919(15) 0.14807(21) 0.6665(4)
O6_8 O 0.27284(24) 0.21668(29) 0.0728(4)
C1_8 C 0.3022(2) 0.3124(3) 0.6388(7)
H1_8 H 0.3099 0.3417 0.6063
C2_8 C 0.3244(2) 0.2897(3) 0.6042(7)
H2_8 H 0.3501 0.3002 0.5461
C3_8 C 0.2661(2) 0.2467(3) 0.7470(6)
H3_8 H 0.2448 0.2222 0.8021
C4_6 C 0.6020(2) 0.1796(4) 0.4345(7)
H4_6 H 0.6295 0.1947 0.4850
C5_6 C 0.5609(2) 0.1670(4) 0.5046(7)
H5_6 H 0.5614 0.1733 0.5996
C6_6 C 0.5198(2) 0.1456(3) 0.4343(6)
C7_8 C 0.5213(2) 0.1349(4) 0.2948(8)
H6_8 H 0.4941 0.1185 0.2439
C8_8 C 0.5638(3) 0.1489(5) 0.2322(7)
H7_8 H 0.5641 0.1424 0.1378
C15_8 C 0.2324(2) 0.0005(4) 0.6702(7)
C16_8 C 0.2678(2) 0.0455(3) 0.6468(7)
H13_8 H 0.2619 0.0657 0.5956
C17_8 C 0.3120(2) 0.0608(3) 0.6988(6)
C18_8 C 0.3209(2) 0.0297(3) 0.7711(6)
H14_8 H 0.3505 0.0391 0.8044
C20_8 C 0.33681(19) 0.14288(27) 0.6780(6)
C21_8 C 0.3506(2) 0.1737(3) 0.5709(7)
H16_8 H 0.3678 0.1715 0.4979
C22_8 C 0.3389(2) 0.2088(3) 0.5695(7)
H17_8 H 0.3485 0.2300 0.4963
C23_8 C 0.3132(2) 0.21158(28) 0.6768(6)
C24_8 C 0.2991(2) 0.1802(3) 0.7872(6)
H18_8 H 0.2820 0.1825 0.8603
C25_8 C 0.3108(2) 0.1460(3) 0.7876(7)
H19_8 H 0.3013 0.1249 0.8610
C26_8 C 0.3910(2) 0.1159(3) 0.6210(6)
C27_8 C 0.4322(2) 0.1525(3) 0.6706(7)
H20_8 H 0.4321 0.1711 0.7430
C28_8 C 0.4734(2) 0.1610(3) 0.6105(7)
H21_8 H 0.5010 0.1852 0.6449
C29_6 C 0.4752(2) 0.1345(3) 0.5001(6)
C30_6 C 0.4331(2) 0.0987(3) 0.4520(7)
H22_6 H 0.4329 0.0805 0.3779
C31_8 C 0.3918(2) 0.0894(3) 0.5109(7)
H23_8 H 0.3641 0.0651 0.4766
N1_8 N 0.26634(17) 0.28637(23) 0.7289(4)
N2_8 N 0.30077(17) 0.24653(23) 0.6747(5)
N5_8 N 0.34823(17) 0.10701(24) 0.6805(6)
N6_8 N 0.0392(3) 0.1035(4) 0.9523(8)
O2_8 O 0.17514(15) 0.19957(21) 0.9217(4)
O7_8 O 0.0191(2) 0.0823(4) 0.8504(10)
O8_8 O 0.08102(16) 0.12406(26) 0.9745(6)
O9_8 O 0.0880(2) 0.0662(3) 0.7511(6)
H27_8 H 0.0647 0.0509 0.8037
H28_8 H 0.1024 0.0514 0.7402
N8_6 N 0.17088(28) 0.30047(32) 0.8048(5)
C9_8 C 0.1730(2) 0.8411(4) 0.8301(8)
H8_6 H 0.1792 0.8183 0.8611
C10_8 C 0.2105(2) 0.8863(4) 0.8131(9)
H9_6 H 0.2405 0.8929 0.8332
C11_8 C 0.2023(2) 0.9214(4) 0.7653(7)
C12_8 C 0.1572(2) 0.9074(4) 0.7378(9)
H10_8 H 0.1500 0.9291 0.7034
C13_8 C 0.1212(2) 0.8622(4) 0.7583(8)
H11_8 H 0.0909 0.8549 0.7394
C14_8 C 0.24000(19) 0.96834(33) 0.7428(7)
H12_8 H 0.2028 0.9914 0.6370
C19_8 C 0.2850(2) 0.9844(4) 0.7931(6)
H15_8 H 0.2912 0.9642 0.8429
C9_9 C 0.1589(4) 0.3320(3) 0.8301(8)
H8_7 H 0.1817 0.3610 0.8611
C10_9 C 0.1137(4) 0.3243(3) 0.8131(9)
H9_7 H 0.1071 0.3477 0.8332
C11_9 C 0.0786(4) 0.2810(3) 0.7653(7)
C12_9 C 0.0926(4) 0.2499(3) 0.7378(9)
H10_9 H 0.0709 0.2210 0.7034
C13_9 C 0.1378(4) 0.2591(3) 0.7583(8)
H11_9 H 0.1451 0.2361 0.7394
C14_9 C 0.03166(33) 0.27167(27) 0.7428(7)
H12_9 H 0.0086 0.2115 0.6370
C19_9 C 0.0156(4) 0.3007(3) 0.7931(6)
H15_9 H 0.0358 0.3271 0.8429
C32_9 C 0.79500(25) 0.01457(18) 0.2566(5)
C33_9 C 0.81031(28) 0.0192(2) 0.3950(5)
H24_9 H 0.8110 0.0424 0.4508
C40_9 C 0.78023(32) 0.04724(19) 0.1986(6)
O4_9 O 0.85193(21) 0.03113(14) 0.6665(4)
O6_9 O 0.78332(29) 0.05617(16) 0.0728(4)
C2_9 C 0.7103(3) 0.0348(2) 0.6042(7)
H2_9 H 0.6998 0.0500 0.5461
C3_9 C 0.7533(3) 0.0195(2) 0.7470(6)
H3_9 H 0.7778 0.0227 0.8021
C4_7 C 0.8204(4) 0.4225(4) 0.4345(7)
H4_7 H 0.8053 0.4349 0.4850
C5_7 C 0.8330(4) 0.3940(3) 0.5046(7)
H5_7 H 0.8267 0.3882 0.5996
C6_7 C 0.8544(3) 0.3743(2) 0.4343(6)
C7_9 C 0.8651(4) 0.3865(3) 0.2948(8)
H6_9 H 0.8815 0.3757 0.2439
C8_9 C 0.8511(5) 0.4150(4) 0.2322(7)
H7_9 H 0.8576 0.4218 0.1378
C15_9 C 0.9995(4) 0.2320(3) 0.6702(7)
C16_9 C 0.9545(3) 0.2224(2) 0.6468(7)
H13_9 H 0.9343 0.1963 0.5956
C17_9 C 0.9392(3) 0.2513(2) 0.6988(6)
C18_9 C 0.9703(3) 0.2913(2) 0.7711(6)
H14_9 H 0.9609 0.3115 0.8044
C20_9 C 0.85712(27) 0.19394(19) 0.6780(6)
C21_9 C 0.8263(3) 0.1770(2) 0.5709(7)
H16_9 H 0.8285 0.1964 0.4979
C22_9 C 0.7912(3) 0.1302(2) 0.5695(7)
H17_9 H 0.7700 0.1186 0.4963
C23_9 C 0.78842(28) 0.10166(19) 0.6768(6)
C24_9 C 0.8198(3) 0.1190(2) 0.7872(6)
H18_9 H 0.8175 0.0996 0.8603
C25_9 C 0.8540(3) 0.1649(2) 0.7876(7)
H19_9 H 0.8751 0.1765 0.8610
C26_9 C 0.8841(3) 0.2752(2) 0.6210(6)
C27_9 C 0.8475(3) 0.2798(2) 0.6706(7)
H20_9 H 0.8289 0.2611 0.7430
C28_9 C 0.8390(3) 0.3125(2) 0.6105(7)
H21_9 H 0.8148 0.3159 0.6449
C29_7 C 0.8655(3) 0.3408(2) 0.5001(6)
C30_7 C 0.9013(3) 0.3345(2) 0.4520(7)
H22_7 H 0.9195 0.3525 0.3779
C31_9 C 0.9106(3) 0.3025(2) 0.5109(7)
H23_9 H 0.9349 0.2991 0.4766
N2_9 N 0.75347(23) 0.05425(16) 0.6747(5)
N5_9 N 0.89299(24) 0.24123(17) 0.6805(6)
O9_9 O 0.9338(3) 0.0219(2) 0.7511(6)
H27_9 H 0.9491 0.0139 0.8037
H28_9 H 0.9486 0.0511 0.7402
C34_9 C 0.8244(3) 0.9899(2) 0.4505(5)
C35_9 C 0.8238(3) 0.9556(2) 0.3661(6)
H25_9 H 0.8324 0.9352 0.4030
C36_9 C 0.81026(28) 0.9516(2) 0.2261(6)
H26_9 H 0.8112 0.9295 0.1692
C37_9 C 0.79540(25) 0.98060(18) 0.1714(5)
C38_9 C 0.77612(24) 0.97037(17) 0.0249(5)
C39_9 C 0.8393(3) 0.9940(2) 0.5991(5)
O1_9 O 0.73258(21) 0.95365(15) 0.0194(4)
O3_9 O 0.84096(21) 0.96122(15) 0.6579(4)
C1_9 C 0.6876(3) 0.9899(2) 0.6388(7)
H1_9 H 0.6583 0.9683 0.6063
N1_9 N 0.71363(23) 0.97998(15) 0.7289(4)
N6_9 N 0.8965(4) 0.9358(3) 0.9523(8)
O2_9 O 0.80043(21) 0.97558(15) 0.9217(4)
O7_9 O 0.9177(4) 0.9369(3) 0.8504(10)
O8_9 O 0.87594(26) 0.9570(2) 0.9745(6)
C4_8 C 0.9109(4) 0.0646(2) 0.1011(7)
H4_8 H 0.8985 0.0371 0.1516
C5_8 C 0.9394(3) 0.1057(2) 0.1712(7)
H5_8 H 0.9452 0.1052 0.2662
C6_8 C 0.9591(2) 0.1468(2) 0.1009(6)
H8_8 H 0.9724 0.4874 0.5277
H9_8 H 0.9857 0.4261 0.4998
C29_8 C 0.9926(2) 0.1914(2) 0.1667(6)
C30_8 C 0.9989(2) 0.2335(2) 0.1186(7)
H22_8 H 0.9809 0.2337 0.0445
C4_9 C 0.1538(4) 0.0891(4) 0.1011(7)
H4_9 H 0.1387 0.1015 0.1516
C5_9 C 0.1664(4) 0.0606(3) 0.1712(7)
H5_9 H 0.1601 0.0548 0.2662
C6_9 C 0.1878(3) 0.0409(2) 0.1009(6)
H8_9 H 0.5151 0.0276 0.5277
H9_9 H 0.4405 0.0143 0.4998
C29_9 C 0.1989(3) 0.0074(2) 0.1667(6)
C30_9 C 0.2347(3) 0.0011(2) 0.1186(7)
H22_9 H 0.2529 0.0191 0.0445
loop_
_geom_bond_atom_site_label_1
_geom_bond_atom_site_label_2
_geom_bond_site_symmetry_1
_geom_bond_site_symmetry_2
C3 H3 1_555 1_555
C9 H8 1_555 1_555
C10 C9 1_555 1_555
H9 C10 1_555 1_555
C11 C10 1_555 1_555
C12 C11 1_555 1_555
H10 C12 1_555 1_555
C13 C12 1_555 1_555
H11 C13 1_555 1_555
C14 C11 1_555 1_555
C15 C14 1_555 1_555
C18 C17 1_555 1_555
C19 C14 1_555 1_555
H15 C19 1_555 1_555
C24 C23 1_555 1_555
H18 C24 1_555 1_555
H19 C25 1_555 1_555
C32 C33 1_555 1_555
C33 H24 1_555 1_555
C34 C33 1_555 1_555
C35 C34 1_555 1_555
H25 C35 1_555 1_555
C36 C35 1_555 1_555
H26 C36 1_555 1_555
C37 C32 1_555 1_555
C38 C37 1_555 1_555
C39 C34 1_555 1_555
C40 C32 1_555 1_555
Co1 N1 1_555 1_555
Co5 O2 1_555 1_555
N4 C9 1_555 1_555
N6 O7 1_555 1_555
O1 C38 1_555 1_555
O2 C38 1_555 1_555
O3 C39 1_555 1_555
O4 C39 1_555 1_555
O5 C40 1_555 1_555
O6 C40 1_555 1_555
O8 Co5 1_555 1_555
O9 Co5 1_555 1_555
H27 O9 1_555 1_555
H28 O9 1_555 1_555
Co3 N4 1_555 1_555
N7 Co5 1_555 1_555
N8 Co1 1_555 1_555
O12 Co1 1_555 1_555
C3 N1 1_555 1_555
C3 N2 1_555 1_555
C13 N4 1_555 1_555
C18 C19 1_555 1_555
C23 N2 1_555 1_555
C24 C25 1_555 1_555
C36 C37 1_555 1_555
Co1 O1 1_555 1_555
N6 O8 1_555 1_555
C1 H1 1_555 1_555
C2 C1 1_555 1_555
H13 C16 1_555 1_555
C27 H20 1_555 1_555
C20 N5 1_555 1_555
C4 H4 1_555 1_555
C5 C4 1_555 1_555
H5 C5 1_555 1_555
C6 C5 1_555 1_555
C7 C6 1_555 1_555
H6 C7 1_555 1_555
C8 C7 1_555 1_555
H7 C8 1_555 1_555
C21 H16 1_555 1_555
C22 C21 1_555 1_555
H17 C22 1_555 1_555
H21 C28 1_555 1_555
C29 C6 1_555 1_555
C30 C29 1_555 1_555
H22 C30 1_555 1_555
C31 C26 1_555 1_555
H23 C31 1_555 1_555
N3 C4 1_555 1_555
Co6 N3 1_555 1_555
C8 N3 1_555 1_555
C28 C29 1_555 1_555
C30 C31 1_555 1_555
C27_2 H20_2 1_555 1_555
C20_2 N5_2 1_555 1_555
C4_2 H4_2 1_555 1_555
C5_2 C4_2 1_555 1_555
H5_2 C5_2 1_555 1_555
C6_2 C5_2 1_555 1_555
C7_2 C6_2 1_555 1_555
H6_2 C7_2 1_555 1_555
C8_2 C7_2 1_555 1_555
H7_2 C8_2 1_555 1_555
C21_2 H16_2 1_555 1_555
C22_2 C21_2 1_555 1_555
H17_2 C22_2 1_555 1_555
H21_2 C28_2 1_555 1_555
C29_2 C6_2 1_555 1_555
C30_2 C29_2 1_555 1_555
H22_2 C30_2 1_555 1_555
C31_2 C26_2 1_555 1_555
H23_2 C31_2 1_555 1_555
N3_2 C4_2 1_555 1_555
Co6_2 N3_2 1_555 1_555
C8_2 N3_2 1_555 1_555
C28_2 C29_2 1_555 1_555
C30_2 C31_2 1_555 1_555
C3_2 H3_2 1_555 1_555
C9_2 H8_2 1_555 1_555
C10_2 C9_2 1_555 1_555
H9_2 C10_2 1_555 1_555
C11_2 C10_2 1_555 1_555
C12_2 C11_2 1_555 1_555
H10_2 C12_2 1_555 1_555
C13_2 C12_2 1_555 1_555
H11_2 C13_2 1_555 1_555
C14_2 C11_2 1_555 1_555
C15_2 C14_2 1_555 1_555
C18_2 C17_2 1_555 1_555
C19_2 C14_2 1_555 1_555
H15_2 C19_2 1_555 1_555
C24_2 C23_2 1_555 1_555
H18_2 C24_2 1_555 1_555
H19_2 C25_2 1_555 1_555
C32_2 C33_2 1_555 1_555
C33_2 H24_2 1_555 1_555
C34_2 C33_2 1_555 1_555
C35_2 C34_2 1_555 1_555
H25_2 C35_2 1_555 1_555
C36_2 C35_2 1_555 1_555
H26_2 C36_2 1_555 1_555
C37_2 C32_2 1_555 1_555
C38_2 C37_2 1_555 1_555
C39_2 C34_2 1_555 1_555
C40_2 C32_2 1_555 1_555
Co1_2 N1_2 1_555 1_555
Co5_2 O2_2 1_555 1_555
N8 C9_2 1_555 1_555
N6_2 O7_2 1_555 1_555
O1_2 C38_2 1_555 1_555
O2_2 C38_2 1_555 1_555
O3_2 C39_2 1_555 1_555
O4_2 C39_2 1_555 1_555
O5_2 C40_2 1_555 1_555
O6_2 C40_2 1_555 1_555
O8_2 Co5_2 1_555 1_555
O9_2 Co5_2 1_555 1_555
H27_2 O9_2 1_555 1_555
H28_2 O9_2 1_555 1_555
N7_2 Co5_2 1_555 1_555
N8_2 Co1_2 1_555 1_555
O12_2 Co1_2 1_555 1_555
C3_2 N1_2 1_555 1_555
C3_2 N2_2 1_555 1_555
C13_2 N8 1_555 1_555
C18_2 C19_2 1_555 1_555
C23_2 N2_2 1_555 1_555
C24_2 C25_2 1_555 1_555
C36_2 C37_2 1_555 1_555
Co1_2 O1_2 1_555 1_555
N6_2 O8_2 1_555 1_555
C1_2 H1_2 1_555 1_555
C2_2 C1_2 1_555 1_555
H13_2 C16_2 1_555 1_555
C3_3 H3_3 1_555 1_555
C9_3 H8_3 1_555 1_555
C10_3 C9_3 1_555 1_555
H9_3 C10_3 1_555 1_555
C11_3 C10_3 1_555 1_555
C12_3 C11_3 1_555 1_555
H10_3 C12_3 1_555 1_555
C13_3 C12_3 1_555 1_555
H11_3 C13_3 1_555 1_555
C14_3 C11_3 1_555 1_555
C15_3 C14_3 1_555 1_555
C18_3 C17_3 1_555 1_555
H14_3 C18_3 1_555 1_555
C19_3 C14_3 1_555 1_555
H15_3 C19_3 1_555 1_555
C24_3 C23_3 1_555 1_555
H18_3 C24_3 1_555 1_555
C25_3 C20_3 1_555 1_555
H19_3 C25_3 1_555 1_555
C27_3 H20_3 1_555 1_555
C32_3 C33_3 1_555 1_555
C33_3 H24_3 1_555 1_555
C34_3 C33_3 1_555 1_555
C35_3 C34_3 1_555 1_555
H25_3 C35_3 1_555 1_555
C36_3 C35_3 1_555 1_555
H26_3 C36_3 1_555 1_555
C37_3 C32_3 1_555 1_555
C38_3 C37_3 1_555 1_555
C39_3 C34_3 1_555 1_555
C40_3 C32_3 1_555 1_555
Co3 N1_3 1_555 1_555
Co5_3 O2_3 1_555 1_555
N8_2 C9_3 1_555 1_555
N5_3 C17_3 1_555 1_555
N6_3 O7_3 1_555 1_555
O1_3 C38_3 1_555 1_555
O2_3 C38_3 1_555 1_555
O3_3 C39_3 1_555 1_555
O4_3 C39_3 1_555 1_555
O5_3 C40_3 1_555 1_555
O6_3 C40_3 1_555 1_555
O8_3 Co5_3 1_555 1_555
O9_3 Co5_3 1_555 1_555
H27_3 O9_3 1_555 1_555
H28_3 O9_3 1_555 1_555
Co4_3 O5_3 1_555 1_555
N7_3 Co5_3 1_555 1_555
O12_3 Co3 1_555 1_555
C3_3 N1_3 1_555 1_555
C3_3 N2_3 1_555 1_555
C13_3 N8_2 1_555 1_555
C18_3 C19_3 1_555 1_555
C20_3 N5_3 1_555 1_555
C23_3 N2_3 1_555 1_555
C24_3 C25_3 1_555 1_555
C36_3 C37_3 1_555 1_555
Co3 O1_3 1_555 1_555
N6_3 O8_3 1_555 1_555
C1_3 H1_3 1_555 1_555
C2_3 C1_3 1_555 1_555
H2_3 C2_3 1_555 1_555
C4_3 H4_3 1_555 1_555
C5_3 C4_3 1_555 1_555
H5_3 C5_3 1_555 1_555
C6_3 C5_3 1_555 1_555
C7_3 C6_3 1_555 1_555
H6_3 C7_3 1_555 1_555
C8_3 C7_3 1_555 1_555
H7_3 C8_3 1_555 1_555
H13_3 C16_3 1_555 1_555
C21_3 H16_3 1_555 1_555
C22_3 C21_3 1_555 1_555
H17_3 C22_3 1_555 1_555
H21_3 C28_3 1_555 1_555
C29_3 C6_3 1_555 1_555
C30_3 C29_3 1_555 1_555
H22_3 C30_3 1_555 1_555
C31_3 C26_3 1_555 1_555
H23_3 C31_3 1_555 1_555
N3_3 C4_3 1_555 1_555
Co6_3 N3_3 1_555 1_555
C8_3 N3_3 1_555 1_555
C28_3 C29_3 1_555 1_555
C30_3 C31_3 1_555 1_555
C33_4 H24_4 1_555 1_555
C34_4 C33_4 1_555 1_555
C35_4 C34_4 1_555 1_555
H25_4 C35_4 1_555 1_555
C39_4 C34_4 1_555 1_555
O3_4 C39_4 1_555 1_555
O4_4 C39_4 1_555 1_555
Co6_2 O3_4 1_555 1_555
O4_4 Co6_2 1_555 1_555
C1_4 H1_4 1_555 1_555
C2_4 C1_4 1_555 1_555
H2_4 C2_4 1_555 1_555
C3_4 H3_4 1_555 1_555
C10_4 C9_4 1_555 1_555
C11_4 C10_4 1_555 1_555
C12_4 C11_4 1_555 1_555
H10_4 C12_4 1_555 1_555
C13_4 C12_4 1_555 1_555
H11_4 C13_4 1_555 1_555
C14_4 C11_4 1_555 1_555
C15_4 C14_4 1_555 1_555
H12_4 C15_4 1_555 1_555
C16_4 C15_4 1_555 1_555
H13_4 C16_4 1_555 1_555
C17_4 C16_4 1_555 1_555
C18_4 C17_4 1_555 1_555
H14_4 C18_4 1_555 1_555
C19_4 C14_4 1_555 1_555
H15_4 C19_4 1_555 1_555
C20_4 C21_4 1_555 1_555
C21_4 H16_4 1_555 1_555
C22_4 C21_4 1_555 1_555
H17_4 C22_4 1_555 1_555
C23_4 C22_4 1_555 1_555
C24_4 C23_4 1_555 1_555
H18_4 C24_4 1_555 1_555
C25_4 C20_4 1_555 1_555
H19_4 C25_4 1_555 1_555
C26_4 C27_4 1_555 1_555
C27_4 H20_4 1_555 1_555
C28_4 C27_4 1_555 1_555
H21_4 C28_4 1_555 1_555
C31_4 C26_4 1_555 1_555
H23_4 C31_4 1_555 1_555
H26_4 C36_4 1_555 1_555
C37_4 C32_4 1_555 1_555
C38_4 C37_4 1_555 1_555
C40_4 C32_4 1_555 1_555
Co4_3 N1_4 1_555 1_555
Co6_2 O2_4 1_555 1_555
N1_4 C1_4 1_555 1_555
N2_4 C2_4 1_555 1_555
N4_2 C9_4 1_555 1_555
N5_4 C17_4 1_555 1_555
N6_4 O7_4 1_555 1_555
O1_4 C38_4 1_555 1_555
O2_4 C38_4 1_555 1_555
O5_4 C40_4 1_555 1_555
O6_4 C40_4 1_555 1_555
O8_4 Co6_2 1_555 1_555
O9_4 Co6_2 1_555 1_555
H27_4 O9_4 1_555 1_555
H28_4 O9_4 1_555 1_555
Co4_2 N4_2 1_555 1_555
Co4_4 O5_4 1_555 1_555
N8_3 Co4_3 1_555 1_555
C3_4 N1_4 1_555 1_555
C3_4 N2_4 1_555 1_555
C13_4 N4_2 1_555 1_555
C18_4 C19_4 1_555 1_555
C20_4 N5_4 1_555 1_555
C23_4 N2_4 1_555 1_555
C24_4 C25_4 1_555 1_555
C26_4 N5_4 1_555 1_555
C36_4 C37_4 1_555 1_555
Co4_3 O1_4 1_555 1_555
N6_4 O8_4 1_555 1_555
H6_4 C7_4 1_555 1_555
C8_4 C7_4 1_555 1_555
H7_4 C8_4 1_555 1_555
Co6_4 N3_4 1_555 1_555
C8_4 N3_4 1_555 1_555
C33_5 H24_5 1_555 1_555
C34_5 C33_5 1_555 1_555
C35_5 C34_5 1_555 1_555
H25_5 C35_5 1_555 1_555
C39_5 C34_5 1_555 1_555
O3_5 C39_5 1_555 1_555
O4_5 C39_5 1_555 1_555
Co6_3 O3_5 1_555 1_555
O4_5 Co6_3 1_555 1_555
C2_5 C1_5 1_555 1_555
H2_5 C2_5 1_555 1_555
C3_5 H3_5 1_555 1_555
C4_4 H4_4 1_555 1_555
C5_4 C4_4 1_555 1_555
H5_4 C5_4 1_555 1_555
C6_4 C5_4 1_555 1_555
C9_5 H8_4 1_555 1_555
C10_5 C9_5 1_555 1_555
H9_4 C10_5 1_555 1_555
C11_5 C10_5 1_555 1_555
C12_5 C11_5 1_555 1_555
H10_5 C12_5 1_555 1_555
C13_5 C12_5 1_555 1_555
H11_5 C13_5 1_555 1_555
C14_5 C11_5 1_555 1_555
C15_5 C14_5 1_555 1_555
H12_5 C15_5 1_555 1_555
C16_5 C15_5 1_555 1_555
H13_5 C16_5 1_555 1_555
C17_5 C16_5 1_555 1_555
C18_5 C17_5 1_555 1_555
H14_5 C18_5 1_555 1_555
C19_5 C14_5 1_555 1_555
H15_5 C19_5 1_555 1_555
C20_5 C21_5 1_555 1_555
C21_5 H16_5 1_555 1_555
C22_5 C21_5 1_555 1_555
H17_5 C22_5 1_555 1_555
C23_5 C22_5 1_555 1_555
C24_5 C23_5 1_555 1_555
H18_5 C24_5 1_555 1_555
C25_5 C20_5 1_555 1_555
H19_5 C25_5 1_555 1_555
C26_5 C27_5 1_555 1_555
C27_5 H20_5 1_555 1_555
C28_5 C27_5 1_555 1_555
H21_5 C28_5 1_555 1_555
C29_4 C6_4 1_555 1_555
C30_4 C29_4 1_555 1_555
H22_4 C30_4 1_555 1_555
C31_5 C26_5 1_555 1_555
H23_5 C31_5 1_555 1_555
H26_5 C36_5 1_555 1_555
C37_5 C32_5 1_555 1_555
C38_5 C37_5 1_555 1_555
C40_5 C32_5 1_555 1_555
Co4 N1_5 1_555 1_555
Co6_3 O2_5 1_555 1_555
N1_5 C1_5 1_555 1_555
N2_5 C2_5 1_555 1_555
N8_3 C9_5 1_555 1_555
N5_5 C17_5 1_555 1_555
N6_5 O7_5 1_555 1_555
O1_5 C38_5 1_555 1_555
O2_5 C38_5 1_555 1_555
O5_5 C40_5 1_555 1_555
O6_5 C40_5 1_555 1_555
O8_5 Co6_3 1_555 1_555
O9_5 Co6_3 1_555 1_555
H27_5 O9_5 1_555 1_555
H28_5 O9_5 1_555 1_555
Co4_5 O5_5 1_555 1_555
N8_4 Co4 1_555 1_555
C3_5 N1_5 1_555 1_555
C3_5 N2_5 1_555 1_555
C13_5 N8_3 1_555 1_555
C18_5 C19_5 1_555 1_555
C20_5 N5_5 1_555 1_555
C23_5 N2_5 1_555 1_555
C24_5 C25_5 1_555 1_555
C26_5 N5_5 1_555 1_555
C28_5 C29_4 1_555 1_555
C30_4 C31_5 1_555 1_555
C36_5 C37_5 1_555 1_555
Co4 O1_5 1_555 1_555
N6_5 O8_5 1_555 1_555
H6_5 C7_5 1_555 1_555
C8_5 C7_5 1_555 1_555
H7_5 C8_5 1_555 1_555
Co6_5 N3_5 1_555 1_555
C8_5 N3_5 1_555 1_555
H6_6 C7_6 1_555 1_555
C8_6 C7_6 1_555 1_555
H7_6 C8_6 1_555 1_555
Co6_6 N3_6 1_555 1_555
C8_6 N3_6 1_555 1_555
C33_6 H24_6 1_555 1_555
C34_6 C33_6 1_555 1_555
C35_6 C34_6 1_555 1_555
H25_6 C35_6 1_555 1_555
C39_6 C34_6 1_555 1_555
O3_6 C39_6 1_555 1_555
O4_6 C39_6 1_555 1_555
Co6 O3_6 1_555 1_555
O4_6 Co6 1_555 1_555
C2_6 C1_6 1_555 1_555
H2_6 C2_6 1_555 1_555
C3_6 H3_6 1_555 1_555
C10_6 C9_6 1_555 1_555
C11_6 C10_6 1_555 1_555
C12_6 C11_6 1_555 1_555
H10_6 C12_6 1_555 1_555
C13_6 C12_6 1_555 1_555
H11_6 C13_6 1_555 1_555
C14_6 C11_6 1_555 1_555
C15_6 C14_6 1_555 1_555
H12_6 C15_6 1_555 1_555
C16_6 C15_6 1_555 1_555
H13_6 C16_6 1_555 1_555
C17_6 C16_6 1_555 1_555
C18_6 C17_6 1_555 1_555
H14_6 C18_6 1_555 1_555
C19_6 C14_6 1_555 1_555
H15_6 C19_6 1_555 1_555
C20_6 C21_6 1_555 1_555
C21_6 H16_6 1_555 1_555
C22_6 C21_6 1_555 1_555
H17_6 C22_6 1_555 1_555
C23_6 C22_6 1_555 1_555
C24_6 C23_6 1_555 1_555
H18_6 C24_6 1_555 1_555
C25_6 C20_6 1_555 1_555
H19_6 C25_6 1_555 1_555
C26_6 C27_6 1_555 1_555
C27_6 H20_6 1_555 1_555
C28_6 C27_6 1_555 1_555
H21_6 C28_6 1_555 1_555
C31_6 C26_6 1_555 1_555
H23_6 C31_6 1_555 1_555
H26_6 C36_6 1_555 1_555
C37_6 C32_6 1_555 1_555
C38_6 C37_6 1_555 1_555
C40_6 C32_6 1_555 1_555
Co4_2 N1_6 1_555 1_555
Co6 O2_6 1_555 1_555
N1_6 C1_6 1_555 1_555
N2_6 C2_6 1_555 1_555
N8_4 C9_6 1_555 1_555
N5_6 C17_6 1_555 1_555
N6_6 O7_6 1_555 1_555
O1_6 C38_6 1_555 1_555
O2_6 C38_6 1_555 1_555
O5_6 C40_6 1_555 1_555
O6_6 C40_6 1_555 1_555
O8_6 Co6 1_555 1_555
O9_6 Co6 1_555 1_555
H27_6 O9_6 1_555 1_555
H28_6 O9_6 1_555 1_555
Co4_6 O5_6 1_555 1_555
C3_6 N1_6 1_555 1_555
C3_6 N2_6 1_555 1_555
C13_6 N8_4 1_555 1_555
C18_6 C19_6 1_555 1_555
C20_6 N5_6 1_555 1_555
C23_6 N2_6 1_555 1_555
C24_6 C25_6 1_555 1_555
C26_6 N5_6 1_555 1_555
C36_6 C37_6 1_555 1_555
Co4_2 O1_6 1_555 1_555
N6_6 O8_6 1_555 1_555
C35_7 C34_7 1_555 1_555
H25_7 C35_7 1_555 1_555
C36_7 C35_7 1_555 1_555
H26_7 C36_7 1_555 1_555
C38_7 C37_7 1_555 1_555
C39_7 C34_7 1_555 1_555
O1_7 C38_7 1_555 1_555
O3_7 C39_7 1_555 1_555
C36_7 C37_7 1_555 1_555
C1_7 H1_7 1_555 1_555
Co4_6 N1_7 1_555 1_555
N1_7 C1_7 1_555 1_555
N6_7 O7_7 1_555 1_555
N8_5 Co4_6 1_555 1_555
N6_7 O8_7 1_555 1_555
C32_7 C33_7 1_555 1_555
C33_7 H24_7 1_555 1_555
C40_7 C32_7 1_555 1_555
O12_2 C40_7 1_555 1_555
O6_7 C40_7 1_555 1_555
O4_7 Co6_5 1_555 1_555
H2_7 C2_7 1_555 1_555
C3_7 H3_7 1_555 1_555
C4_5 H4_5 1_555 1_555
C5_5 C4_5 1_555 1_555
H5_5 C5_5 1_555 1_555
C6_5 C5_5 1_555 1_555
C7_7 C6_5 1_555 1_555
H6_7 C7_7 1_555 1_555
C8_7 C7_7 1_555 1_555
H7_7 C8_7 1_555 1_555
C9_7 H8_5 1_555 1_555
C10_7 C9_7 1_555 1_555
H9_5 C10_7 1_555 1_555
C11_7 C10_7 1_555 1_555
C12_7 C11_7 1_555 1_555
H10_7 C12_7 1_555 1_555
C13_7 C12_7 1_555 1_555
H11_7 C13_7 1_555 1_555
C14_7 C11_7 1_555 1_555
C15_7 C14_7 1_555 1_555
H12_7 C15_7 1_555 1_555
C16_7 C15_7 1_555 1_555
H13_7 C16_7 1_555 1_555
C17_7 C16_7 1_555 1_555
C18_7 C17_7 1_555 1_555
H14_7 C18_7 1_555 1_555
C19_7 C14_7 1_555 1_555
H15_7 C19_7 1_555 1_555
C20_7 C21_7 1_555 1_555
C21_7 H16_7 1_555 1_555
C22_7 C21_7 1_555 1_555
H17_7 C22_7 1_555 1_555
C23_7 C22_7 1_555 1_555
C24_7 C23_7 1_555 1_555
H18_7 C24_7 1_555 1_555
C25_7 C20_7 1_555 1_555
H19_7 C25_7 1_555 1_555
C26_7 C27_7 1_555 1_555
C27_7 H20_7 1_555 1_555
C28_7 C27_7 1_555 1_555
H21_7 C28_7 1_555 1_555
C29_5 C6_5 1_555 1_555
C30_5 C29_5 1_555 1_555
H22_5 C30_5 1_555 1_555
C31_7 C26_7 1_555 1_555
H23_7 C31_7 1_555 1_555
N2_7 C2_7 1_555 1_555
N7_3 C4_5 1_555 1_555
N4_3 C9_7 1_555 1_555
N5_7 C17_7 1_555 1_555
O9_7 Co6_5 1_555 1_555
H27_7 O9_7 1_555 1_555
H28_7 O9_7 1_555 1_555
Co4_5 N4_3 1_555 1_555
C3_7 N2_7 1_555 1_555
C8_7 N7_3 1_555 1_555
C13_7 N4_3 1_555 1_555
C18_7 C19_7 1_555 1_555
C20_7 N5_7 1_555 1_555
C23_7 N2_7 1_555 1_555
C24_7 C25_7 1_555 1_555
C26_7 N5_7 1_555 1_555
C28_7 C29_5 1_555 1_555
C30_5 C31_7 1_555 1_555
C32_8 C33_8 1_555 1_555
C33_8 H24_8 1_555 1_555
C34_8 C33_8 1_555 1_555
C35_8 C34_8 1_555 1_555
H25_8 C35_8 1_555 1_555
C36_8 C35_8 1_555 1_555
H26_8 C36_8 1_555 1_555
C37_8 C32_8 1_555 1_555
C38_8 C37_8 1_555 1_555
C39_8 C34_8 1_555 1_555
C40_8 C32_8 1_555 1_555
O1_8 C38_8 1_555 1_555
O3_8 C39_8 1_555 1_555
O4_8 C39_8 1_555 1_555
O12_3 C40_8 1_555 1_555
O6_8 C40_8 1_555 1_555
Co6_6 O3_8 1_555 1_555
C36_8 C37_8 1_555 1_555
O4_8 Co6_6 1_555 1_555
C1_8 H1_8 1_555 1_555
C2_8 C1_8 1_555 1_555
H2_8 C2_8 1_555 1_555
C3_8 H3_8 1_555 1_555
C4_6 H4_6 1_555 1_555
C5_6 C4_6 1_555 1_555
H5_6 C5_6 1_555 1_555
C6_6 C5_6 1_555 1_555
C7_8 C6_6 1_555 1_555
H6_8 C7_8 1_555 1_555
C8_8 C7_8 1_555 1_555
H7_8 C8_8 1_555 1_555
C16_8 C15_8 1_555 1_555
H13_8 C16_8 1_555 1_555
C17_8 C16_8 1_555 1_555
C18_8 C17_8 1_555 1_555
H14_8 C18_8 1_555 1_555
C20_8 C21_8 1_555 1_555
C21_8 H16_8 1_555 1_555
C22_8 C21_8 1_555 1_555
H17_8 C22_8 1_555 1_555
C23_8 C22_8 1_555 1_555
C24_8 C23_8 1_555 1_555
H18_8 C24_8 1_555 1_555
C25_8 C20_8 1_555 1_555
H19_8 C25_8 1_555 1_555
C26_8 C27_8 1_555 1_555
C27_8 H20_8 1_555 1_555
C28_8 C27_8 1_555 1_555
H21_8 C28_8 1_555 1_555
C29_6 C6_6 1_555 1_555
C30_6 C29_6 1_555 1_555
H22_6 C30_6 1_555 1_555
C31_8 C26_8 1_555 1_555
H23_8 C31_8 1_555 1_555
Co4_4 N1_8 1_555 1_555
Co6_6 O2_8 1_555 1_555
N1_8 C1_8 1_555 1_555
N2_8 C2_8 1_555 1_555
N7 C4_6 1_555 1_555
N5_8 C17_8 1_555 1_555
N6_8 O7_8 1_555 1_555
O8_8 Co6_6 1_555 1_555
O9_8 Co6_6 1_555 1_555
H27_8 O9_8 1_555 1_555
H28_8 O9_8 1_555 1_555
N8_6 Co4_4 1_555 1_555
C3_8 N1_8 1_555 1_555
C3_8 N2_8 1_555 1_555
C8_8 N7 1_555 1_555
C20_8 N5_8 1_555 1_555
C23_8 N2_8 1_555 1_555
C24_8 C25_8 1_555 1_555
C26_8 N5_8 1_555 1_555
C28_8 C29_6 1_555 1_555
C30_6 C31_8 1_555 1_555
N6_8 O8_8 1_555 1_555
C9_8 H8_6 1_555 1_555
C10_8 C9_8 1_555 1_555
H9_6 C10_8 1_555 1_555
C11_8 C10_8 1_555 1_555
C12_8 C11_8 1_555 1_555
H10_8 C12_8 1_555 1_555
C13_8 C12_8 1_555 1_555
H11_8 C13_8 1_555 1_555
C14_8 C11_8 1_555 1_555
C19_8 C14_8 1_555 1_555
H15_8 C19_8 1_555 1_555
N8_5 C9_8 1_555 1_555
C13_8 N8_5 1_555 1_555
C9_9 H8_7 1_555 1_555
C10_9 C9_9 1_555 1_555
H9_7 C10_9 1_555 1_555
C11_9 C10_9 1_555 1_555
C12_9 C11_9 1_555 1_555
H10_9 C12_9 1_555 1_555
C13_9 C12_9 1_555 1_555
H11_9 C13_9 1_555 1_555
C14_9 C11_9 1_555 1_555
C19_9 C14_9 1_555 1_555
H15_9 C19_9 1_555 1_555
N8_6 C9_9 1_555 1_555
C13_9 N8_6 1_555 1_555
C32_9 C33_9 1_555 1_555
C33_9 H24_9 1_555 1_555
C40_9 C32_9 1_555 1_555
O12 C40_9 1_555 1_555
O6_9 C40_9 1_555 1_555
O4_9 Co6_4 1_555 1_555
H2_9 C2_9 1_555 1_555
C3_9 H3_9 1_555 1_555
C4_7 H4_7 1_555 1_555
C5_7 C4_7 1_555 1_555
H5_7 C5_7 1_555 1_555
C6_7 C5_7 1_555 1_555
C7_9 C6_7 1_555 1_555
H6_9 C7_9 1_555 1_555
C8_9 C7_9 1_555 1_555
H7_9 C8_9 1_555 1_555
C16_9 C15_9 1_555 1_555
H13_9 C16_9 1_555 1_555
C17_9 C16_9 1_555 1_555
C18_9 C17_9 1_555 1_555
H14_9 C18_9 1_555 1_555
C20_9 C21_9 1_555 1_555
C21_9 H16_9 1_555 1_555
C22_9 C21_9 1_555 1_555
H17_9 C22_9 1_555 1_555
C23_9 C22_9 1_555 1_555
C24_9 C23_9 1_555 1_555
H18_9 C24_9 1_555 1_555
C25_9 C20_9 1_555 1_555
H19_9 C25_9 1_555 1_555
C26_9 C27_9 1_555 1_555
C27_9 H20_9 1_555 1_555
C28_9 C27_9 1_555 1_555
H21_9 C28_9 1_555 1_555
C29_7 C6_7 1_555 1_555
C30_7 C29_7 1_555 1_555
H22_7 C30_7 1_555 1_555
C31_9 C26_9 1_555 1_555
H23_9 C31_9 1_555 1_555
N2_9 C2_9 1_555 1_555
N7_2 C4_7 1_555 1_555
N5_9 C17_9 1_555 1_555
O9_9 Co6_4 1_555 1_555
H27_9 O9_9 1_555 1_555
H28_9 O9_9 1_555 1_555
C3_9 N2_9 1_555 1_555
C8_9 N7_2 1_555 1_555
C20_9 N5_9 1_555 1_555
C23_9 N2_9 1_555 1_555
C24_9 C25_9 1_555 1_555
C26_9 N5_9 1_555 1_555
C28_9 C29_7 1_555 1_555
C30_7 C31_9 1_555 1_555
C35_9 C34_9 1_555 1_555
H25_9 C35_9 1_555 1_555
C36_9 C35_9 1_555 1_555
H26_9 C36_9 1_555 1_555
C38_9 C37_9 1_555 1_555
C39_9 C34_9 1_555 1_555
O1_9 C38_9 1_555 1_555
O3_9 C39_9 1_555 1_555
C36_9 C37_9 1_555 1_555
C1_9 H1_9 1_555 1_555
Co4_5 N1_9 1_555 1_555
N1_9 C1_9 1_555 1_555
N6_9 O7_9 1_555 1_555
N6_9 O8_9 1_555 1_555
C4_8 H4_8 1_555 1_555
C5_8 C4_8 1_555 1_555
H5_8 C5_8 1_555 1_555
C6_8 C5_8 1_555 1_555
C29_8 C6_8 1_555 1_555
C30_8 C29_8 1_555 1_555
H22_8 C30_8 1_555 1_555
C4_9 H4_9 1_555 1_555
C5_9 C4_9 1_555 1_555
H5_9 C5_9 1_555 1_555
C6_9 C5_9 1_555 1_555
C29_9 C6_9 1_555 1_555
C30_9 C29_9 1_555 1_555
H22_9 C30_9 1_555 1_555

#END
