
###############################################################################
#
# This file contains modified crystal structure data generated from the
# MOF subset of the Cambridge Structural Database (CSD) v543 
# hosted by the Cambridge Crystallographic Data Centre (CCDC).
#
# This work is licensed under the Creative Commons
# Attribution-NonCommercial-ShareAlike 4.0 International License.
# To view a copy of this license, visit
# http://creativecommons.org/licenses/by-nc-sa/4.0/
# or send a letter to
# Creative Commons, PO Box 1866, Mountain View, CA 94042, USA.
#
# CIF created using the CSD Python API on 29 September 2022
# The structure has been converted into the P1 space group
# The structure has a 3D framework
# The original CSD entry PESZAR is in the rhombohedral crystal system
# The original CSD entry PESZAR is in a Sohncke space group
# The framework has been calculated to contain at least 10.0% void space
# The void calculation uses a probe of radius 1.32A, grid spacing 0.4
#
###############################################################################

data_PESZAR
_chemical_formula_moiety         '(C360 H252 Co18 N54 O79)n'
_symmetry_cell_setting           triclinic
_symmetry_space_group_name_H-M   'P 1'
_symmetry_Int_Tables_number      1
_space_group_name_Hall           'P 1'
loop_
_symmetry_equiv_pos_site_id
_symmetry_equiv_pos_as_xyz
1 x,y,z
_cell_length_a                   33.3402(7)
_cell_length_b                   33.3402(7)
_cell_length_c                   9.5524(4)
_cell_angle_alpha                90
_cell_angle_beta                 90
_cell_angle_gamma                120
_cell_volume                     9195.59
loop_
_atom_site_label
_atom_site_type_symbol
_atom_site_fract_x
_atom_site_fract_y
_atom_site_fract_z
Co1 Co 0.308173(15) 0.074832(15) 0.04182(4)
N2 N 0.28673(22) 0.02006(10) 0.1675(3)
C1 C 0.31259(14) 0.00994(20) 0.2574(4)
H1 H 0.3420 0.0312 0.2898
O9 O 0.08264(13) 0.06396(17) 0.0463(5)
N7 N 0.30023(11) 0.12960(19) 0.0929(3)
O12 O 0.15909(9) 0.03947(9) 0.2385(3)
O2 O 0.26742(8) 0.04631(18) 0.8773(2)
C3 C 0.22344(11) 0.02911(11) 0.8714(3)
C5 C 0.20435(11) 0.01963(11) 0.7248(3)
O3 O 0.19921(8) 0.02393(8) 0.9743(2)
C8 C 0.18992(12) 0.04879(13) 0.6704(4)
H4 H 0.1894 0.0713 0.7268
C13 C 0.17620(12) 0.04446(13) 0.5321(4)
O4 O 0.12381(12) 0.04258(15) 0.9204(4)
C16 C 0.17540(12) 0.01019(12) 0.4464(3)
H8 H 0.1673 0.0647 0.4955
N5 N 0.10363(16) 0.0645(2) 0.9391(6)
C18 C 0.16002(12) 0.00565(12) 0.2972(4)
O10 O 0.36695(16) 0.09759(10) 0.9421(3)
C2 C 0.24725(12) 0.98046(17) 0.1494(4)
C4 C 0.28907(13) 0.96490(19) 0.2916(4)
N3 N 0.24692(10) 0.94626(14) 0.2223(3)
H2 H 0.2230 0.9771 0.0931
H3 H 0.2990 0.9493 0.3500
C6 C 0.21144(11) 0.89867(16) 0.2194(4)
Co2 Co 0.131824(16) 0.998762(16) 0.04899(4)
C9 C 0.18027(13) 0.88131(19) 0.1094(4)
C10 C 0.20859(13) 0.87013(20) 0.3250(4)
O5 O 0.06554(12) 0.97771(10) 0.1448(4)
N4 N 0.17136(27) 0.56671(25) 0.5957(3)
C14 C 0.14606(14) 0.83542(15) 0.1101(4)
H5 H 0.1824 0.9005 0.0356
H6 H 0.2299 0.8818 0.3980
C15 C 0.17393(13) 0.82307(15) 0.3259(4)
H9 H 0.0480 0.9867 0.0857
H10 H 0.0703 0.9926 0.2342
H11 H 0.1249 0.8240 0.0368
C17 C 0.14260(12) 0.80586(12) 0.2182(4)
H12 H 0.1723 0.8038 0.3988
N6 N 0.10702(10) 0.75881(10) 0.2178(4)
C19 C 0.06038(12) 0.74850(12) 0.1988(4)
C20 C 0.11562(12) 0.72498(12) 0.2761(4)
C21 C 0.02933(12) 0.70897(12) 0.1262(4)
C22 C 0.04502(13) 0.77788(13) 0.2503(4)
C23 C 0.15186(13) 0.71996(13) 0.2267(4)
C24 C 0.08947(13) 0.69769(13) 0.3855(4)
H13 H 0.0387 0.6888 0.0921
C26 C 0.00021(13) 0.76805(13) 0.2276(4)
H14 H 0.0653 0.8043 0.3004
C27 C 0.16082(14) 0.68773(13) 0.2853(4)
H15 H 0.1702 0.7385 0.1536
C28 C 0.09864(13) 0.66542(13) 0.4443(4)
H16 H 0.0652 0.7010 0.4203
C30 C 0.13410(13) 0.65938(13) 0.3958(4)
H19 H 0.1852 0.6846 0.2508
H20 H 0.0804 0.6473 0.5183
C32 C 0.14508(13) 0.62565(13) 0.4627(4)
C35 C 0.16720(15) 0.60598(15) 0.3910(4)
C36 C 0.13470(18) 0.61343(15) 0.6034(5)
C39 C 0.17936(15) 0.57709(23) 0.4617(4)
H23 H 0.1739 0.6121 0.2963
C40 C 0.14842(18) 0.58412(25) 0.6638(5)
H24 H 0.1189 0.6246 0.6558
H27 H 0.1941 0.5643 0.4111
H28 H 0.1412 0.5761 0.7575
Co6 Co 0.200271(23) 0.534843(16) 0.71566(4)
O11 O 0.14813(9) 0.96874(9) 0.2305(3)
O1 O 0.23574(10) 0.93602(13) 0.6088(3)
C7 C 0.20429(11) 0.98511(11) 0.6400(3)
C11 C 0.21939(12) 0.95292(11) 0.6974(4)
C12 C 0.18939(12) 0.98060(12) 0.5023(4)
O8 O 0.21671(10) 0.94389(10) 0.8232(3)
H7 H 0.1887 0.9574 0.4465
Co4 Co 0.258501(15) 0.900008(21) 0.70849(4)
N8 N 0.09996(25) 0.93798(37) 0.9290(3)
N1 N 0.82937(16) 0.69977(11) 0.0929(3)
C25 C 0.98421(13) 0.69949(12) 0.1045(4)
C29 C 0.96830(12) 0.72854(12) 0.1552(4)
H17 H 0.9639 0.6730 0.0548
H18 H 0.9909 0.7883 0.2615
C31 C 0.92081(13) 0.71834(12) 0.1324(4)
C33 C 0.90750(15) 0.75049(14) 0.1588(6)
C34 C 0.88581(15) 0.67596(14) 0.0839(6)
C37 C 0.86248(15) 0.74069(14) 0.1382(6)
H21 H 0.9293 0.7796 0.1915
H22 H 0.8925 0.6527 0.0626
C38 C 0.84106(15) 0.66787(14) 0.0668(5)
H25 H 0.8551 0.7636 0.1567
H26 H 0.8183 0.6389 0.0356
Co3 Co 0.766659(21) 0.691827(15) 0.04182(4)
C2_2 C 0.01954(17) 0.26679(21) 0.1494(4)
C4_2 C 0.03510(19) 0.32417(23) 0.2916(4)
N3_2 N 0.05374(14) 0.30066(17) 0.2223(3)
H2_2 H 0.0229 0.2459 0.0931
H3_2 H 0.0507 0.3497 0.3500
C6_2 C 0.10133(16) 0.31277(19) 0.2194(4)
Co2_2 Co 0.001238(16) 0.133062(23) 0.04899(4)
C9_2 C 0.11869(19) 0.29896(23) 0.1094(4)
C10_2 C 0.12987(20) 0.33846(24) 0.3250(4)
O5_2 O 0.02229(10) 0.08783(16) 0.1448(4)
N4_2 N 0.43329(25) 0.60465(37) 0.5957(3)
C14_2 C 0.16458(15) 0.31064(21) 0.1101(4)
H5_2 H 0.0995 0.2819 0.0356
H6_2 H 0.1182 0.3481 0.3980
C15_2 C 0.17693(15) 0.35086(20) 0.3259(4)
H9_2 H 0.0133 0.0613 0.0857
H10_2 H 0.0074 0.0777 0.2342
H11_2 H 0.1760 0.3009 0.0368
C17_2 C 0.19414(12) 0.33674(17) 0.2182(4)
H12_2 H 0.1962 0.3685 0.3988
N6_2 N 0.24119(10) 0.34821(14) 0.2178(4)
C19_2 C 0.25150(12) 0.31188(17) 0.1988(4)
C20_2 C 0.27502(12) 0.39064(17) 0.2761(4)
C21_2 C 0.29103(12) 0.32036(17) 0.1262(4)
C22_2 C 0.22212(13) 0.26714(18) 0.2503(4)
C23_2 C 0.28004(13) 0.43190(18) 0.2267(4)
C24_2 C 0.30231(13) 0.39178(18) 0.3855(4)
C25_2 C 0.30051(12) 0.28472(18) 0.1045(4)
H13_2 H 0.3112 0.3499 0.0921
C26_2 C 0.23195(13) 0.23216(18) 0.2276(4)
H14_2 H 0.1957 0.2610 0.3004
C27_2 C 0.31227(13) 0.47309(19) 0.2853(4)
H15_2 H 0.2615 0.4317 0.1536
C28_2 C 0.33458(13) 0.43322(18) 0.4443(4)
H16_2 H 0.2990 0.3642 0.4203
C29_2 C 0.27146(12) 0.23976(17) 0.1552(4)
H17_2 H 0.3270 0.2909 0.0548
H18_2 H 0.2117 0.2026 0.2615
C30_2 C 0.34062(13) 0.47472(18) 0.3958(4)
H19_2 H 0.3154 0.5006 0.2508
H20_2 H 0.3527 0.4331 0.5183
C31_2 C 0.28166(12) 0.20247(18) 0.1324(4)
C32_2 C 0.37435(13) 0.51943(18) 0.4627(4)
C33_2 C 0.24951(14) 0.15701(21) 0.1588(6)
C34_2 C 0.32404(14) 0.20985(21) 0.0839(6)
C35_2 C 0.39402(15) 0.56122(21) 0.3910(4)
C36_2 C 0.38657(15) 0.52127(23) 0.6034(5)
C37_2 C 0.25931(14) 0.12179(21) 0.1382(6)
H21_2 H 0.2204 0.1497 0.1915
H22_2 H 0.3473 0.2398 0.0626
C38_2 C 0.33213(14) 0.17319(21) 0.0668(5)
C39_2 C 0.42291(23) 0.60227(27) 0.4617(4)
H23_2 H 0.3879 0.5618 0.2963
C40_2 C 0.41588(25) 0.56430(31) 0.6638(5)
H24_2 H 0.3754 0.4943 0.6558
H25_2 H 0.2364 0.0915 0.1567
H26_2 H 0.3611 0.1794 0.0356
H27_2 H 0.4357 0.6298 0.4111
H28_2 H 0.4239 0.5651 0.7575
Co6_2 Co 0.465157(16) 0.665429(28) 0.71566(4)
O11_2 O 0.03126(9) 0.17939(13) 0.2305(3)
O1_2 O 0.06398(13) 0.29972(16) 0.6088(3)
C7_2 C 0.01489(11) 0.21918(16) 0.6400(3)
C11_2 C 0.04708(11) 0.26647(16) 0.6974(4)
C12_2 C 0.01940(12) 0.20879(17) 0.5023(4)
O8_2 O 0.05611(10) 0.27282(14) 0.8232(3)
H7_2 H 0.0426 0.2313 0.4465
Co4_2 Co 0.099992(21) 0.358494(26) 0.70849(4)
N8_2 N 0.06202(37) 0.16197(45) 0.9290(3)
Co1_2 Co 0.925168(15) 0.233341(21) 0.04182(4)
N2_2 N 0.97994(10) 0.26667(24) 0.1675(3)
C1_2 C 0.99006(20) 0.30265(24) 0.2574(4)
H1_2 H 0.9688 0.3108 0.2898
O9_2 O 0.93604(17) 0.01868(21) 0.0463(5)
N7_2 N 0.87040(19) 0.17063(22) 0.0929(3)
O12_2 O 0.96053(9) 0.11962(13) 0.2385(3)
O2_2 O 0.95369(18) 0.22111(20) 0.8773(2)
C3_2 C 0.97089(11) 0.19433(16) 0.8714(3)
C5_2 C 0.98037(11) 0.18472(16) 0.7248(3)
O3_2 O 0.97607(8) 0.17528(11) 0.9743(2)
C8_2 C 0.95121(13) 0.14113(18) 0.6704(4)
H4_2 H 0.9287 0.1181 0.7268
C13_2 C 0.95554(13) 0.13174(18) 0.5321(4)
O4_2 O 0.95742(15) 0.08123(19) 0.9204(4)
C16_2 C 0.98981(12) 0.16521(17) 0.4464(3)
H8_2 H 0.9353 0.1026 0.4955
N5_2 N 0.9355(2) 0.03913(26) 0.9391(6)
C18_2 C 0.99435(12) 0.15437(17) 0.2972(4)
O10_2 O 0.90241(10) 0.26935(19) 0.9421(3)
C25_3 C 0.71528(18) 0.01579(13) 0.1045(4)
C29_3 C 0.76024(17) 0.03170(12) 0.1552(4)
H17_3 H 0.7091 0.0361 0.0548
H18_3 H 0.7974 0.0091 0.2615
C31_3 C 0.79753(18) 0.07919(13) 0.1324(4)
C33_3 C 0.84299(21) 0.09250(15) 0.1588(6)
C34_3 C 0.79015(21) 0.11419(15) 0.0839(6)
C37_3 C 0.87821(21) 0.13752(15) 0.1382(6)
H21_3 H 0.8503 0.0707 0.1915
H22_3 H 0.7602 0.1075 0.0626
C38_3 C 0.82681(21) 0.15894(15) 0.0668(5)
H25_3 H 0.9085 0.1449 0.1567
H26_3 H 0.8206 0.1817 0.0356
N2_3 N 0.73333(24) 0.71327(22) 0.1675(3)
C1_3 C 0.69735(24) 0.68741(14) 0.2574(4)
C2_3 C 0.73321(21) 0.75275(12) 0.1494(4)
C4_3 C 0.67583(23) 0.71093(13) 0.2916(4)
H1_3 H 0.6892 0.6580 0.2898
N3_3 N 0.69934(17) 0.75308(10) 0.2223(3)
H2_3 H 0.7541 0.7770 0.0931
H3_3 H 0.6503 0.7010 0.3500
C6_3 C 0.68723(19) 0.78856(11) 0.2194(4)
Co2_3 Co 0.866938(23) 0.868176(16) 0.04899(4)
C9_3 C 0.70104(23) 0.81973(13) 0.1094(4)
C10_3 C 0.66154(24) 0.79141(13) 0.3250(4)
O5_3 O 0.91217(16) 0.93446(12) 0.1448(4)
N4_3 N 0.39535(37) 0.82864(27) 0.5957(3)
C14_3 C 0.68936(21) 0.85394(14) 0.1101(4)
H5_3 H 0.7181 0.8176 0.0356
H6_3 H 0.6519 0.7701 0.3980
C15_3 C 0.64914(20) 0.82607(13) 0.3259(4)
H9_3 H 0.9387 0.9520 0.0857
H10_3 H 0.9223 0.9297 0.2342
H11_3 H 0.6991 0.8751 0.0368
C17_3 C 0.66326(17) 0.85740(12) 0.2182(4)
H12_3 H 0.6315 0.8277 0.3988
O9_3 O 0.98132(21) 0.91736(13) 0.0463(5)
N6_3 N 0.65179(14) 0.89298(10) 0.2178(4)
C19_3 C 0.68812(17) 0.93962(12) 0.1988(4)
C20_3 C 0.60936(17) 0.88438(12) 0.2761(4)
C21_3 C 0.67964(17) 0.97067(12) 0.1262(4)
C22_3 C 0.73286(18) 0.95498(13) 0.2503(4)
C23_3 C 0.56810(18) 0.84814(13) 0.2267(4)
C24_3 C 0.60822(18) 0.91053(13) 0.3855(4)
H13_3 H 0.6501 0.9613 0.0921
C26_3 C 0.76784(18) 0.99979(13) 0.2276(4)
H14_3 H 0.7390 0.9347 0.3004
C27_3 C 0.52691(19) 0.83918(14) 0.2853(4)
H15_3 H 0.5683 0.8298 0.1536
C28_3 C 0.56678(18) 0.90136(13) 0.4443(4)
H16_3 H 0.6358 0.9348 0.4203
C30_3 C 0.52528(18) 0.86590(13) 0.3958(4)
H19_3 H 0.4994 0.8148 0.2508
H20_3 H 0.5669 0.9196 0.5183
C32_3 C 0.48057(18) 0.85492(13) 0.4627(4)
C35_3 C 0.43878(21) 0.83280(15) 0.3910(4)
C36_3 C 0.47873(23) 0.86530(18) 0.6034(5)
C39_3 C 0.39773(27) 0.82064(15) 0.4617(4)
H23_3 H 0.4382 0.8261 0.2963
C40_3 C 0.43570(31) 0.85158(18) 0.6638(5)
H24_3 H 0.5057 0.8811 0.6558
H27_3 H 0.3702 0.8059 0.4111
H28_3 H 0.4349 0.8588 0.7575
Co6_3 Co 0.334571(28) 0.799729(23) 0.71566(4)
O11_3 O 0.82061(13) 0.85187(9) 0.2305(3)
O12_3 O 0.88038(13) 0.84091(9) 0.2385(3)
O1_3 O 0.70028(16) 0.76426(10) 0.6088(3)
O2_3 O 0.77889(20) 0.73258(8) 0.8773(2)
C3_3 C 0.80567(16) 0.77656(11) 0.8714(3)
C5_3 C 0.81528(16) 0.79565(11) 0.7248(3)
O3_3 O 0.82472(11) 0.80079(8) 0.9743(2)
C7_3 C 0.78082(16) 0.79571(11) 0.6400(3)
C8_3 C 0.85887(18) 0.81008(12) 0.6704(4)
C11_3 C 0.73353(16) 0.78061(12) 0.6974(4)
C12_3 C 0.79121(17) 0.81061(12) 0.5023(4)
H4_3 H 0.8819 0.8106 0.7268
C13_3 C 0.86826(18) 0.82380(12) 0.5321(4)
O4_3 O 0.91877(19) 0.87619(12) 0.9204(4)
O8_3 O 0.72718(14) 0.78329(10) 0.8232(3)
H7_3 H 0.7687 0.8113 0.4465
C16_3 C 0.83479(17) 0.82460(12) 0.4464(3)
H8_3 H 0.8974 0.8327 0.4955
N5_3 N 0.96087(26) 0.89637(16) 0.9391(6)
C18_3 C 0.84563(17) 0.83998(12) 0.2972(4)
Co4_3 Co 0.641506(26) 0.741499(15) 0.70849(4)
O10_3 O 0.73065(19) 0.63305(16) 0.9421(3)
N8_3 N 0.83803(45) 0.90004(25) 0.9290(3)
H1_4 H 0.0087 0.3645 0.6231
O10_4 O 0.03361(16) 0.43093(10) 0.2755(3)
Co1_3 Co 0.974840(15) 0.408165(15) 0.37515(4)
N1_2 N 0.49604(16) 0.03310(11) 0.4262(3)
N2_4 N 0.95340(22) 0.35339(10) 0.5008(3)
O2_4 O 0.93409(8) 0.37964(18) 0.2106(2)
C1_4 C 0.97926(14) 0.34327(20) 0.5907(4)
C2_4 C 0.91392(12) 0.31379(17) 0.4827(4)
C3_4 C 0.89011(11) 0.36244(11) 0.2047(3)
C4_4 C 0.95574(13) 0.29823(19) 0.6249(4)
N3_4 N 0.91359(10) 0.27959(14) 0.5556(3)
H2_4 H 0.8897 0.3104 0.4264
C5_4 C 0.87102(11) 0.35296(11) 0.0581(3)
O3_4 O 0.86588(8) 0.35726(8) 0.3076(2)
H3_4 H 0.9657 0.2826 0.6833
C6_4 C 0.87811(11) 0.23200(16) 0.5527(4)
C8_4 C 0.85659(12) 0.38212(13) 0.0037(4)
Co2_4 Co 0.798491(16) 0.332095(16) 0.38232(4)
C9_4 C 0.84694(13) 0.21464(19) 0.4427(4)
C10_4 C 0.87526(13) 0.20346(20) 0.6583(4)
C11_4 C 0.88606(12) 0.28625(11) 0.0307(4)
H4_4 H 0.8561 0.4046 0.0601
O4_4 O 0.79048(12) 0.37591(15) 0.2537(4)
O5_4 O 0.73221(12) 0.31104(10) 0.4781(4)
C14_4 C 0.81273(14) 0.16875(15) 0.4434(4)
H5_4 H 0.8491 0.2338 0.3689
H6_4 H 0.8966 0.2151 0.7313
C15_4 C 0.84060(13) 0.15640(15) 0.6592(4)
O8_4 O 0.88338(10) 0.27722(10) 0.1565(3)
N5_4 N 0.77030(16) 0.3978(2) 0.2724(6)
H9_4 H 0.7147 0.3200 0.4190
H10_4 H 0.7370 0.3259 0.5675
H11_4 H 0.7916 0.1573 0.3701
C17_4 C 0.80927(12) 0.13919(12) 0.5515(4)
H12_4 H 0.8390 0.1371 0.7321
O9_4 O 0.74931(13) 0.39729(17) 0.3796(5)
N6_4 N 0.77369(10) 0.09214(10) 0.5511(4)
C19_4 C 0.72705(12) 0.08183(12) 0.5321(4)
C20_4 C 0.78229(12) 0.05831(12) 0.6094(4)
C21_4 C 0.69600(12) 0.04230(12) 0.4595(4)
C22_4 C 0.71169(13) 0.11121(13) 0.5836(4)
C23_4 C 0.81853(13) 0.05329(13) 0.5600(4)
C24_4 C 0.75614(13) 0.03102(13) 0.7188(4)
C25_4 C 0.65088(13) 0.03282(12) 0.4378(4)
H13_4 H 0.7054 0.0221 0.4254
C26_4 C 0.66688(13) 0.10138(13) 0.5609(4)
H14_4 H 0.7320 0.1376 0.6337
C27_4 C 0.82749(14) 0.02106(13) 0.6186(4)
H15_4 H 0.8369 0.0718 0.4869
H16_4 H 0.7319 0.0343 0.7536
C29_4 C 0.63497(12) 0.06187(12) 0.4885(4)
H17_4 H 0.6306 0.0063 0.3881
H18_4 H 0.6576 0.1216 0.5948
H19_4 H 0.8519 0.0179 0.5841
C31_4 C 0.58748(13) 0.05167(12) 0.4657(4)
C33_4 C 0.57417(15) 0.08382(14) 0.4921(6)
C34_4 C 0.55248(15) 0.00929(14) 0.4172(6)
C37_4 C 0.52915(15) 0.07402(14) 0.4715(6)
H21_4 H 0.5960 0.1129 0.5248
C38_4 C 0.50773(15) 0.00120(14) 0.4001(5)
H25_4 H 0.5218 0.0969 0.4900
Co3_2 Co 0.433326(21) 0.025160(15) 0.37515(4)
N7_3 N 0.96690(11) 0.46293(19) 0.4262(3)
O11_4 O 0.81480(9) 0.30207(9) 0.5638(3)
O12_4 O 0.82576(9) 0.37280(9) 0.5718(3)
N8_4 N 0.76662(25) 0.27132(37) 0.2624(3)
C7_4 C 0.87096(11) 0.31844(11) 0.9733(3)
C12_4 C 0.85606(12) 0.31393(12) 0.8356(4)
C13_4 C 0.84287(12) 0.37779(13) 0.8654(4)
H7_4 H 0.8554 0.2907 0.7798
C16_4 C 0.84207(12) 0.34352(12) 0.7797(3)
H8_4 H 0.8340 0.3980 0.8288
C18_4 C 0.82669(12) 0.33898(12) 0.6305(4)
H28_4 H 0.8079 0.9094 0.0908
C28_4 C 0.76531(13) 0.99875(13) 0.7776(4)
C30_4 C 0.80077(13) 0.99271(13) 0.7291(4)
H20_4 H 0.7471 0.9806 0.8516
C32_4 C 0.81175(13) 0.95898(13) 0.7960(4)
C35_4 C 0.83387(15) 0.93931(15) 0.7243(4)
C36_4 C 0.80137(18) 0.94676(15) 0.9367(5)
H22_4 H 0.5592 0.9860 0.3959
C39_4 C 0.84603(15) 0.91042(23) 0.7950(4)
H23_4 H 0.8406 0.9454 0.6296
C40_4 C 0.81509(18) 0.91745(25) 0.9971(5)
H24_4 H 0.7856 0.9579 0.9891
H26_4 H 0.4850 0.9722 0.3689
H27_4 H 0.8608 0.8976 0.7444
H28_5 H 0.0906 0.8984 0.0908
C28_5 C 0.00125(13) 0.76655(18) 0.7776(4)
C30_5 C 0.00729(13) 0.80805(18) 0.7291(4)
H20_5 H 0.0194 0.7664 0.8516
C32_5 C 0.04102(13) 0.85276(18) 0.7960(4)
C35_5 C 0.06069(15) 0.89455(21) 0.7243(4)
C36_5 C 0.05324(15) 0.85460(23) 0.9367(5)
H22_5 H 0.0140 0.5731 0.3959
C39_5 C 0.08958(23) 0.93560(27) 0.7950(4)
H23_5 H 0.0546 0.8951 0.6296
C40_5 C 0.08255(25) 0.89763(31) 0.9971(5)
H24_5 H 0.0421 0.8276 0.9891
H26_5 H 0.0278 0.5127 0.3689
H27_5 H 0.1024 0.9631 0.7444
Co1_4 Co 0.591835(15) 0.566674(21) 0.37515(4)
N2_5 N 0.64661(10) 0.60000(24) 0.5008(3)
O2_5 O 0.62036(18) 0.55444(20) 0.2106(2)
C1_5 C 0.65673(20) 0.63598(24) 0.5907(4)
C2_5 C 0.68621(17) 0.60012(21) 0.4827(4)
C3_5 C 0.63756(11) 0.52766(16) 0.2047(3)
C4_5 C 0.70177(19) 0.65750(23) 0.6249(4)
H1_5 H 0.6355 0.6441 0.6231
N3_5 N 0.72041(14) 0.63399(17) 0.5556(3)
H2_5 H 0.6896 0.5792 0.4264
C5_5 C 0.64704(11) 0.51805(16) 0.0581(3)
O3_5 O 0.64274(8) 0.50861(11) 0.3076(2)
H3_5 H 0.7174 0.6830 0.6833
C6_5 C 0.76800(16) 0.64610(19) 0.5527(4)
C8_5 C 0.61788(13) 0.47446(18) 0.0037(4)
Co2_5 Co 0.667905(16) 0.466395(23) 0.38232(4)
C9_5 C 0.78536(19) 0.63229(23) 0.4427(4)
C10_5 C 0.79654(20) 0.67179(24) 0.6583(4)
C11_5 C 0.71375(11) 0.59980(16) 0.0307(4)
H4_5 H 0.5954 0.4514 0.0601
O4_5 O 0.62409(15) 0.41456(19) 0.2537(4)
O5_5 O 0.68896(10) 0.42116(16) 0.4781(4)
C14_5 C 0.83125(15) 0.64397(21) 0.4434(4)
H5_5 H 0.7662 0.6152 0.3689
H6_5 H 0.7849 0.6814 0.7313
C15_5 C 0.84360(15) 0.68419(20) 0.6592(4)
O8_5 O 0.72278(10) 0.60615(14) 0.1565(3)
N5_5 N 0.6022(2) 0.37246(26) 0.2724(6)
H9_5 H 0.6800 0.3946 0.4190
H10_5 H 0.6741 0.4110 0.5675
H11_5 H 0.8427 0.6342 0.3701
C17_5 C 0.86081(12) 0.67007(17) 0.5515(4)
H12_5 H 0.8629 0.7018 0.7321
O9_5 O 0.60271(17) 0.35201(21) 0.3796(5)
N6_5 N 0.90786(10) 0.68154(14) 0.5511(4)
C19_5 C 0.91817(12) 0.64521(17) 0.5321(4)
C20_5 C 0.94169(12) 0.72397(17) 0.6094(4)
C21_5 C 0.95770(12) 0.65369(17) 0.4595(4)
C22_5 C 0.88879(13) 0.60047(18) 0.5836(4)
C23_5 C 0.94671(13) 0.76523(18) 0.5600(4)
C24_5 C 0.96898(13) 0.72511(18) 0.7188(4)
C25_5 C 0.96718(12) 0.61805(18) 0.4378(4)
H13_5 H 0.9779 0.6832 0.4254
C26_5 C 0.89862(13) 0.56549(18) 0.5609(4)
H14_5 H 0.8624 0.5943 0.6337
C27_5 C 0.97894(13) 0.80642(19) 0.6186(4)
H15_5 H 0.9282 0.7650 0.4869
H16_5 H 0.9657 0.6975 0.7536
C29_5 C 0.93813(12) 0.57309(17) 0.4885(4)
H17_5 H 0.9937 0.6242 0.3881
H18_5 H 0.8784 0.5359 0.5948
H19_5 H 0.9821 0.8339 0.5841
C31_5 C 0.94833(12) 0.53580(18) 0.4657(4)
C33_5 C 0.91618(14) 0.49034(21) 0.4921(6)
C34_5 C 0.99071(14) 0.54318(21) 0.4172(6)
C37_5 C 0.92598(14) 0.45512(21) 0.4715(6)
H21_5 H 0.8871 0.4830 0.5248
C38_5 C 0.99880(14) 0.50652(21) 0.4001(5)
H25_5 H 0.9031 0.4248 0.4900
N7_4 N 0.53707(19) 0.50396(22) 0.4262(3)
O10_5 O 0.56907(10) 0.60269(19) 0.2755(3)
O11_5 O 0.69793(9) 0.51272(13) 0.5638(3)
O12_5 O 0.62720(9) 0.45295(13) 0.5718(3)
N8_5 N 0.72868(37) 0.49531(45) 0.2624(3)
C7_5 C 0.68156(11) 0.55251(16) 0.9733(3)
C12_5 C 0.68607(12) 0.54212(17) 0.8356(4)
C13_5 C 0.62221(13) 0.46507(18) 0.8654(4)
H7_5 H 0.7093 0.5646 0.7798
C16_5 C 0.65648(12) 0.49854(17) 0.7797(3)
H8_5 H 0.6020 0.4359 0.8288
C18_5 C 0.66102(12) 0.48770(17) 0.6305(4)
H28_6 H 0.1016 0.1921 0.0908
N2_6 N 0.40000(24) 0.04660(22) 0.5008(3)
O2_6 O 0.44556(20) 0.06591(8) 0.2106(2)
C1_6 C 0.36402(24) 0.02074(14) 0.5907(4)
C2_6 C 0.39988(21) 0.08608(12) 0.4827(4)
C3_6 C 0.47234(16) 0.10989(11) 0.2047(3)
C4_6 C 0.34250(23) 0.04426(13) 0.6249(4)
N3_6 N 0.36601(17) 0.08641(10) 0.5556(3)
H2_6 H 0.4208 0.1103 0.4264
C5_6 C 0.48195(16) 0.12898(11) 0.0581(3)
O3_6 O 0.49139(11) 0.13412(8) 0.3076(2)
H3_6 H 0.3170 0.0343 0.6833
C6_6 C 0.35390(19) 0.12189(11) 0.5527(4)
C8_6 C 0.52554(18) 0.14341(12) 0.0037(4)
Co2_6 Co 0.533605(23) 0.201509(16) 0.38232(4)
C9_6 C 0.36771(23) 0.15306(13) 0.4427(4)
C10_6 C 0.32821(24) 0.12474(13) 0.6583(4)
C11_6 C 0.40020(16) 0.11394(12) 0.0307(4)
H4_6 H 0.5486 0.1439 0.0601
O4_6 O 0.58544(19) 0.20952(12) 0.2537(4)
O5_6 O 0.57884(16) 0.26779(12) 0.4781(4)
C14_6 C 0.35603(21) 0.18727(14) 0.4434(4)
H5_6 H 0.3848 0.1509 0.3689
H6_6 H 0.3186 0.1034 0.7313
C15_6 C 0.31581(20) 0.15940(13) 0.6592(4)
O8_6 O 0.39385(14) 0.11662(10) 0.1565(3)
N5_6 N 0.62754(26) 0.22970(16) 0.2724(6)
H9_6 H 0.6054 0.2853 0.4190
H10_6 H 0.5890 0.2630 0.5675
H11_6 H 0.3658 0.2084 0.3701
C17_6 C 0.32993(17) 0.19073(12) 0.5515(4)
H12_6 H 0.2982 0.1610 0.7321
O9_6 O 0.64799(21) 0.25069(13) 0.3796(5)
N6_6 N 0.31846(14) 0.22631(10) 0.5511(4)
C19_6 C 0.35479(17) 0.27295(12) 0.5321(4)
C20_6 C 0.27603(17) 0.21771(12) 0.6094(4)
C21_6 C 0.34631(17) 0.30400(12) 0.4595(4)
C22_6 C 0.39953(18) 0.28831(13) 0.5836(4)
C23_6 C 0.23477(18) 0.18147(13) 0.5600(4)
C24_6 C 0.27489(18) 0.24386(13) 0.7188(4)
C25_6 C 0.38195(18) 0.34912(13) 0.4378(4)
H13_6 H 0.3168 0.2946 0.4254
C26_6 C 0.43451(18) 0.33312(13) 0.5609(4)
H14_6 H 0.4057 0.2680 0.6337
C27_6 C 0.19358(19) 0.17251(14) 0.6186(4)
H15_6 H 0.2350 0.1631 0.4869
C28_6 C 0.23345(18) 0.23469(13) 0.7776(4)
H16_6 H 0.3025 0.2681 0.7536
C29_6 C 0.42691(17) 0.36503(12) 0.4885(4)
H17_6 H 0.3758 0.3694 0.3881
H18_6 H 0.4641 0.3424 0.5948
C30_6 C 0.19195(18) 0.19923(13) 0.7291(4)
H19_6 H 0.1661 0.1481 0.5841
H20_6 H 0.2336 0.2529 0.8516
C31_6 C 0.46420(18) 0.41252(13) 0.4657(4)
C32_6 C 0.14724(18) 0.18825(13) 0.7960(4)
C33_6 C 0.50966(21) 0.42583(15) 0.4921(6)
C34_6 C 0.45682(21) 0.44752(15) 0.4172(6)
C35_6 C 0.10545(21) 0.16613(15) 0.7243(4)
C36_6 C 0.14540(23) 0.19863(18) 0.9367(5)
C37_6 C 0.54488(21) 0.47085(15) 0.4715(6)
H21_6 H 0.5170 0.4040 0.5248
H22_6 H 0.4269 0.4408 0.3959
C38_6 C 0.49348(21) 0.49227(15) 0.4001(5)
C39_6 C 0.06440(27) 0.15397(15) 0.7950(4)
H23_6 H 0.1049 0.1594 0.6296
C40_6 C 0.10237(31) 0.18491(18) 0.9971(5)
H24_6 H 0.1724 0.2144 0.9891
H25_6 H 0.5752 0.4782 0.4900
H26_6 H 0.4873 0.5150 0.3689
H27_6 H 0.0369 0.1392 0.7444
O11_6 O 0.48728(13) 0.18520(9) 0.5638(3)
O12_6 O 0.54705(13) 0.17424(9) 0.5718(3)
N8_6 N 0.50469(45) 0.23338(25) 0.2624(3)
C7_6 C 0.44749(16) 0.12904(11) 0.9733(3)
C12_6 C 0.45788(17) 0.14394(12) 0.8356(4)
C13_6 C 0.53493(18) 0.15713(12) 0.8654(4)
H7_6 H 0.4354 0.1446 0.7798
C16_6 C 0.50146(17) 0.15793(12) 0.7797(3)
H8_6 H 0.5641 0.1660 0.8288
C18_6 C 0.51230(17) 0.17331(12) 0.6305(4)
H1_6 H 0.3559 0.9913 0.6231
O10_6 O 0.39731(19) 0.96639(16) 0.2755(3)
H3_7 H 0.6323 0.6160 0.0167
H6_7 H 0.5632 0.5485 0.0647
H12_7 H 0.5056 0.4705 0.0655
C24_7 C 0.42280(13) 0.36436(13) 0.0522(4)
C28_7 C 0.43197(13) 0.33209(13) 0.1110(4)
H16_7 H 0.3985 0.3677 0.0870
C30_7 C 0.46743(13) 0.32605(13) 0.0625(4)
H20_7 H 0.4137 0.3140 0.1850
C32_7 C 0.47841(13) 0.29232(13) 0.1294(4)
C35_7 C 0.50053(15) 0.27265(15) 0.0577(4)
C36_7 C 0.46803(18) 0.28010(15) 0.2701(5)
C39_7 C 0.51269(15) 0.24376(23) 0.1284(4)
C40_7 C 0.48175(18) 0.25079(25) 0.3305(5)
H24_7 H 0.4522 0.2913 0.3225
H27_7 H 0.5274 0.2310 0.0778
H28_7 H 0.4745 0.2428 0.4242
N1_3 N 0.16270(16) 0.36644(11) 0.7596(3)
N2_7 N 0.62006(22) 0.68673(10) 0.8342(3)
O2_7 O 0.60075(8) 0.71298(18) 0.5440(2)
C1_7 C 0.64592(14) 0.67661(20) 0.9241(4)
C2_7 C 0.58058(12) 0.64713(17) 0.8161(4)
C3_7 C 0.55677(11) 0.69578(11) 0.5381(3)
C4_7 C 0.62240(13) 0.63157(19) 0.9583(4)
H1_7 H 0.6753 0.6979 0.9565
N3_7 N 0.58025(10) 0.61293(14) 0.8890(3)
H2_7 H 0.5563 0.6438 0.7598
C5_7 C 0.53768(11) 0.68630(11) 0.3915(3)
O3_7 O 0.53254(8) 0.69060(8) 0.6410(2)
C6_7 C 0.54477(11) 0.56534(16) 0.8861(4)
C7_7 C 0.53762(11) 0.65178(11) 0.3067(3)
C8_7 C 0.52325(12) 0.71546(13) 0.3371(4)
C9_7 C 0.51360(13) 0.54798(19) 0.7761(4)
C10_7 C 0.54192(13) 0.53680(20) 0.9917(4)
C11_7 C 0.55272(12) 0.61959(11) 0.3641(4)
C12_7 C 0.52272(12) 0.64727(12) 0.1690(4)
H4_7 H 0.5227 0.7380 0.3935
C13_7 C 0.50953(12) 0.71113(13) 0.1988(4)
O4_7 O 0.45714(12) 0.70925(15) 0.5871(4)
O5_7 O 0.39887(12) 0.64438(10) 0.8115(4)
C14_7 C 0.47939(14) 0.50209(15) 0.7768(4)
H5_7 H 0.5157 0.5672 0.7023
C15_7 C 0.50726(13) 0.48974(15) 0.9926(4)
O8_7 O 0.55004(10) 0.61056(10) 0.4899(3)
H7_7 H 0.5220 0.6241 0.1132
C16_7 C 0.50873(12) 0.67686(12) 0.1131(3)
H8_7 H 0.5006 0.7314 0.1622
N5_7 N 0.43696(16) 0.7312(2) 0.6058(6)
H9_7 H 0.3813 0.6534 0.7524
H10_7 H 0.4036 0.6593 0.9009
H11_7 H 0.4582 0.4907 0.7035
C17_7 C 0.47593(12) 0.47253(12) 0.8849(4)
O9_7 O 0.41597(13) 0.73063(17) 0.7130(5)
N6_7 N 0.44035(10) 0.42548(10) 0.8845(4)
C19_7 C 0.39371(12) 0.41517(12) 0.8655(4)
C20_7 C 0.44895(12) 0.39165(12) 0.9428(4)
C21_7 C 0.36266(12) 0.37564(12) 0.7929(4)
C22_7 C 0.37835(13) 0.44455(13) 0.9170(4)
C23_7 C 0.48519(13) 0.38663(13) 0.8934(4)
C25_7 C 0.31754(13) 0.36616(12) 0.7712(4)
H13_7 H 0.3720 0.3555 0.7588
C26_7 C 0.33354(13) 0.43472(13) 0.8943(4)
H14_7 H 0.3986 0.4710 0.9671
C27_7 C 0.49415(14) 0.35440(13) 0.9520(4)
H15_7 H 0.5035 0.4052 0.8203
C29_7 C 0.30163(12) 0.39521(12) 0.8219(4)
H17_7 H 0.2972 0.3397 0.7215
H18_7 H 0.3242 0.4550 0.9282
H19_7 H 0.5185 0.3513 0.9175
C31_7 C 0.25414(13) 0.38501(12) 0.7991(4)
C33_7 C 0.24083(15) 0.41716(14) 0.8255(6)
C34_7 C 0.21914(15) 0.34263(14) 0.7506(6)
C37_7 C 0.19581(15) 0.40736(14) 0.8049(6)
H21_7 H 0.2626 0.4463 0.8582
H22_7 H 0.2258 0.3194 0.7293
C38_7 C 0.17439(15) 0.33454(14) 0.7335(5)
H23_7 H 0.5072 0.2788 0.9630
H25_7 H 0.1884 0.4303 0.8234
H26_7 H 0.1516 0.3056 0.7023
N7_5 N 0.63356(11) 0.79627(19) 0.7596(3)
O11_7 O 0.48146(9) 0.63541(9) 0.8972(3)
O12_7 O 0.49242(9) 0.70614(9) 0.9052(3)
C18_7 C 0.49335(12) 0.67232(12) 0.9639(4)
H3_8 H 0.3840 0.0164 0.0167
H6_8 H 0.4515 0.0148 0.0647
H12_8 H 0.5295 0.0352 0.0655
C24_8 C 0.63564(13) 0.05845(18) 0.0522(4)
C28_8 C 0.66791(13) 0.09989(18) 0.1110(4)
H16_8 H 0.6323 0.0309 0.0870
C30_8 C 0.67395(13) 0.14139(18) 0.0625(4)
H20_8 H 0.6860 0.0998 0.1850
C32_8 C 0.70768(13) 0.18610(18) 0.1294(4)
C35_8 C 0.72735(15) 0.22789(21) 0.0577(4)
C36_8 C 0.71990(15) 0.18794(23) 0.2701(5)
C39_8 C 0.75624(23) 0.26894(27) 0.1284(4)
C40_8 C 0.74921(25) 0.23097(31) 0.3305(5)
H24_8 H 0.7087 0.1610 0.3225
H27_8 H 0.7690 0.2965 0.0778
H28_8 H 0.7572 0.2318 0.4242
C10_8 C 0.46320(20) 0.00513(24) 0.9917(4)
C15_8 C 0.51026(15) 0.01753(20) 0.9926(4)
C17_8 C 0.52747(12) 0.00341(17) 0.8849(4)
N6_8 N 0.57452(10) 0.01488(14) 0.8845(4)
C20_8 C 0.60835(12) 0.05731(17) 0.9428(4)
C23_8 C 0.61337(13) 0.09857(18) 0.8934(4)
H13_8 H 0.6445 0.0166 0.7588
C27_8 C 0.64560(13) 0.13976(19) 0.9520(4)
H15_8 H 0.5948 0.0984 0.8203
H19_8 H 0.6487 0.1673 0.9175
H23_8 H 0.7212 0.2285 0.9630
N2_8 N 0.31327(10) 0.93334(24) 0.8342(3)
O2_8 O 0.28702(18) 0.88778(20) 0.5440(2)
C1_8 C 0.32339(20) 0.96932(24) 0.9241(4)
C2_8 C 0.35287(17) 0.93346(21) 0.8161(4)
C3_8 C 0.30422(11) 0.86100(16) 0.5381(3)
C4_8 C 0.36843(19) 0.99084(23) 0.9583(4)
H1_8 H 0.3021 0.9775 0.9565
N3_8 N 0.38707(14) 0.96733(17) 0.8890(3)
H2_8 H 0.3562 0.9126 0.7598
C5_8 C 0.31370(11) 0.85139(16) 0.3915(3)
O3_8 O 0.30940(8) 0.84195(11) 0.6410(2)
C6_8 C 0.43466(16) 0.97944(19) 0.8861(4)
C7_8 C 0.34822(11) 0.88585(16) 0.3067(3)
C8_8 C 0.28454(13) 0.80780(18) 0.3371(4)
C9_8 C 0.45202(19) 0.96563(23) 0.7761(4)
C11_8 C 0.38041(11) 0.93314(16) 0.3641(4)
C12_8 C 0.35273(12) 0.87546(17) 0.1690(4)
H4_8 H 0.2620 0.7848 0.3935
C13_8 C 0.28887(13) 0.79841(18) 0.1988(4)
O4_8 O 0.29075(15) 0.74790(19) 0.5871(4)
O5_8 O 0.35562(10) 0.75450(16) 0.8115(4)
C14_8 C 0.49791(15) 0.97731(21) 0.7768(4)
H5_8 H 0.4328 0.9486 0.7023
O8_8 O 0.38944(10) 0.93949(14) 0.4899(3)
H7_8 H 0.3759 0.8980 0.1132
C16_8 C 0.32314(12) 0.83188(17) 0.1131(3)
H8_8 H 0.2686 0.7693 0.1622
N5_8 N 0.2688(2) 0.70580(26) 0.6058(6)
H9_8 H 0.3466 0.7280 0.7524
H10_8 H 0.3407 0.7444 0.9009
H11_8 H 0.5093 0.9676 0.7035
O9_8 O 0.26937(17) 0.68535(21) 0.7130(5)
C19_8 C 0.58483(12) 0.97855(17) 0.8655(4)
C21_8 C 0.62436(12) 0.98703(17) 0.7929(4)
C22_8 C 0.55545(13) 0.93381(18) 0.9170(4)
C25_8 C 0.63384(12) 0.95139(18) 0.7712(4)
C26_8 C 0.56528(13) 0.89883(18) 0.8943(4)
H14_8 H 0.5290 0.9277 0.9671
C29_8 C 0.60479(12) 0.90643(17) 0.8219(4)
H17_8 H 0.6603 0.9576 0.7215
H18_8 H 0.5450 0.8693 0.9282
C31_8 C 0.61499(12) 0.86914(18) 0.7991(4)
C33_8 C 0.58284(14) 0.82368(21) 0.8255(6)
C34_8 C 0.65737(14) 0.87652(21) 0.7506(6)
C37_8 C 0.59264(14) 0.78846(21) 0.8049(6)
H21_8 H 0.5537 0.8164 0.8582
H22_8 H 0.6806 0.9065 0.7293
C38_8 C 0.66546(14) 0.83986(21) 0.7335(5)
H25_8 H 0.5697 0.7582 0.8234
H26_8 H 0.6944 0.8461 0.7023
N7_6 N 0.20373(19) 0.83730(22) 0.7596(3)
O11_8 O 0.36459(9) 0.84606(13) 0.8972(3)
O12_8 O 0.29386(9) 0.78629(13) 0.9052(3)
C18_8 C 0.32768(12) 0.82104(17) 0.9639(4)
N2_9 N 0.06666(24) 0.37994(22) 0.8342(3)
O2_9 O 0.11222(20) 0.39925(8) 0.5440(2)
C1_9 C 0.03068(24) 0.35408(14) 0.9241(4)
C2_9 C 0.06654(21) 0.41942(12) 0.8161(4)
C3_9 C 0.13900(16) 0.44323(11) 0.5381(3)
C4_9 C 0.00916(23) 0.37760(13) 0.9583(4)
H1_9 H 0.0225 0.3247 0.9565
N3_9 N 0.03267(17) 0.41975(10) 0.8890(3)
H2_9 H 0.0874 0.4437 0.7598
C5_9 C 0.14861(16) 0.46232(11) 0.3915(3)
O3_9 O 0.15805(11) 0.46746(8) 0.6410(2)
C6_9 C 0.02056(19) 0.45523(11) 0.8861(4)
C7_9 C 0.11415(16) 0.46238(11) 0.3067(3)
C8_9 C 0.19220(18) 0.47675(12) 0.3371(4)
C9_9 C 0.03437(23) 0.48640(13) 0.7761(4)
C11_9 C 0.06686(16) 0.44728(12) 0.3641(4)
C12_9 C 0.12454(17) 0.47728(12) 0.1690(4)
H4_9 H 0.2152 0.4773 0.3935
C13_9 C 0.20159(18) 0.49047(12) 0.1988(4)
O4_9 O 0.25210(19) 0.54286(12) 0.5871(4)
O5_9 O 0.24550(16) 0.60113(12) 0.8115(4)
C14_9 C 0.02269(21) 0.52061(14) 0.7768(4)
H5_9 H 0.0514 0.4843 0.7023
O8_9 O 0.06051(14) 0.44996(10) 0.4899(3)
H7_9 H 0.1020 0.4780 0.1132
C16_9 C 0.16812(17) 0.49127(12) 0.1131(3)
H8_9 H 0.2307 0.4994 0.1622
N5_9 N 0.29420(26) 0.56304(16) 0.6058(6)
H9_9 H 0.2720 0.6187 0.7524
H10_9 H 0.2556 0.5964 0.9009
H11_9 H 0.0324 0.5418 0.7035
O9_9 O 0.31465(21) 0.58403(13) 0.7130(5)
C19_9 C 0.02145(17) 0.60629(12) 0.8655(4)
C21_9 C 0.01297(17) 0.63734(12) 0.7929(4)
C22_9 C 0.06619(18) 0.62165(13) 0.9170(4)
C25_9 C 0.04861(18) 0.68246(13) 0.7712(4)
C26_9 C 0.10117(18) 0.66646(13) 0.8943(4)
H14_9 H 0.0723 0.6014 0.9671
C29_9 C 0.09357(17) 0.69837(12) 0.8219(4)
H17_9 H 0.0424 0.7028 0.7215
H18_9 H 0.1307 0.6758 0.9282
C31_9 C 0.13086(18) 0.74586(13) 0.7991(4)
C33_9 C 0.17632(21) 0.75917(15) 0.8255(6)
C34_9 C 0.12348(21) 0.78086(15) 0.7506(6)
C37_9 C 0.21154(21) 0.80419(15) 0.8049(6)
H21_9 H 0.1836 0.7374 0.8582
H22_9 H 0.0935 0.7742 0.7293
C38_9 C 0.16014(21) 0.82561(15) 0.7335(5)
H25_9 H 0.2418 0.8116 0.8234
H26_9 H 0.1539 0.8484 0.7023
O11_9 O 0.15394(13) 0.51854(9) 0.8972(3)
O12_9 O 0.21371(13) 0.50758(9) 0.9052(3)
C18_9 C 0.17896(17) 0.50665(12) 0.9639(4)
H3_9 H 0.9836 0.3677 0.0167
H6_9 H 0.9852 0.4368 0.0647
H12_9 H 0.9648 0.4944 0.0655
C24_9 C 0.94155(18) 0.57720(13) 0.0522(4)
C28_9 C 0.90011(18) 0.56803(13) 0.1110(4)
H16_9 H 0.9691 0.6015 0.0870
C30_9 C 0.85861(18) 0.53257(13) 0.0625(4)
H20_9 H 0.9002 0.5863 0.1850
C32_9 C 0.81390(18) 0.52159(13) 0.1294(4)
C35_9 C 0.77211(21) 0.49947(15) 0.0577(4)
C36_9 C 0.81206(23) 0.53197(18) 0.2701(5)
C39_9 C 0.73106(27) 0.48731(15) 0.1284(4)
C40_9 C 0.76903(31) 0.51825(18) 0.3305(5)
H24_9 H 0.8390 0.5478 0.3225
H27_9 H 0.7035 0.4726 0.0778
H28_9 H 0.7682 0.5255 0.4242
C10_9 C 0.99487(24) 0.45808(13) 0.9917(4)
C15_9 C 0.98247(20) 0.49274(13) 0.9926(4)
C17_9 C 0.99659(17) 0.52407(12) 0.8849(4)
N6_9 N 0.98512(14) 0.55965(10) 0.8845(4)
C20_9 C 0.94269(17) 0.55105(12) 0.9428(4)
C23_9 C 0.90143(18) 0.51481(13) 0.8934(4)
H13_9 H 0.9834 0.6280 0.7588
C27_9 C 0.86024(19) 0.50585(14) 0.9520(4)
H15_9 H 0.9016 0.4965 0.8203
H19_9 H 0.8327 0.4815 0.9175
H23_9 H 0.7715 0.4928 0.9630
loop_
_geom_bond_atom_site_label_1
_geom_bond_atom_site_label_2
_geom_bond_site_symmetry_1
_geom_bond_site_symmetry_2
Co1 N2 1_555 1_555
N2 C1 1_555 1_555
H1 C1 1_555 1_555
N7 Co1 1_555 1_555
C3 O2 1_555 1_555
C5 C3 1_555 1_555
O3 C3 1_555 1_555
C8 C5 1_555 1_555
H4 C8 1_555 1_555
C13 C8 1_555 1_555
O12 C18 1_555 1_555
H8 C13 1_555 1_555
N5 O4 1_555 1_555
C18 C16 1_555 1_555
C13 C16 1_555 1_555
C4 N3 1_555 1_555
N3 C2 1_555 1_555
H2 C2 1_555 1_555
H3 C4 1_555 1_555
C6 N3 1_555 1_555
C9 C6 1_555 1_555
C10 C6 1_555 1_555
O5 Co2 1_555 1_555
N4 C39 1_555 1_555
C14 C9 1_555 1_555
H5 C9 1_555 1_555
H6 C10 1_555 1_555
C15 C10 1_555 1_555
H9 O5 1_555 1_555
H10 O5 1_555 1_555
H11 C14 1_555 1_555
C17 C14 1_555 1_555
H12 C15 1_555 1_555
N6 C17 1_555 1_555
C19 N6 1_555 1_555
C20 N6 1_555 1_555
C21 C19 1_555 1_555
C22 C19 1_555 1_555
C23 C20 1_555 1_555
C24 C20 1_555 1_555
H13 C21 1_555 1_555
C26 C22 1_555 1_555
H14 C22 1_555 1_555
C27 C23 1_555 1_555
H15 C23 1_555 1_555
C28 C24 1_555 1_555
H16 C24 1_555 1_555
C30 C27 1_555 1_555
H19 C27 1_555 1_555
H20 C28 1_555 1_555
C32 C30 1_555 1_555
C35 C32 1_555 1_555
C36 C32 1_555 1_555
C39 C35 1_555 1_555
H23 C35 1_555 1_555
C40 N4 1_555 1_555
H24 C36 1_555 1_555
H27 C39 1_555 1_555
H28 C40 1_555 1_555
Co6 N4 1_555 1_555
O11 Co2 1_555 1_555
C15 C17 1_555 1_555
C28 C30 1_555 1_555
C36 C40 1_555 1_555
O1 C11 1_555 1_555
C11 C7 1_555 1_555
C12 C7 1_555 1_555
O8 C11 1_555 1_555
H7 C12 1_555 1_555
Co4 O1 1_555 1_555
N1 C37 1_555 1_555
C29 C25 1_555 1_555
H17 C25 1_555 1_555
C31 C29 1_555 1_555
C33 C31 1_555 1_555
C34 C31 1_555 1_555
C37 C33 1_555 1_555
H21 C33 1_555 1_555
H22 C34 1_555 1_555
C38 N1 1_555 1_555
H25 C37 1_555 1_555
H26 C38 1_555 1_555
Co3 N1 1_555 1_555
C34 C38 1_555 1_555
N7 C37_2 1_555 1_555
C4_2 N3_2 1_555 1_555
N3_2 C2_2 1_555 1_555
H2_2 C2_2 1_555 1_555
H3_2 C4_2 1_555 1_555
C6_2 N3_2 1_555 1_555
C9_2 C6_2 1_555 1_555
C10_2 C6_2 1_555 1_555
O5_2 Co2_2 1_555 1_555
N4_2 C39_2 1_555 1_555
C14_2 C9_2 1_555 1_555
H5_2 C9_2 1_555 1_555
H6_2 C10_2 1_555 1_555
C15_2 C10_2 1_555 1_555
H9_2 O5_2 1_555 1_555
H10_2 O5_2 1_555 1_555
H11_2 C14_2 1_555 1_555
C17_2 C14_2 1_555 1_555
H12_2 C15_2 1_555 1_555
N6_2 C17_2 1_555 1_555
C19_2 N6_2 1_555 1_555
C20_2 N6_2 1_555 1_555
C21_2 C19_2 1_555 1_555
C22_2 C19_2 1_555 1_555
C23_2 C20_2 1_555 1_555
C24_2 C20_2 1_555 1_555
C25_2 C21_2 1_555 1_555
H13_2 C21_2 1_555 1_555
C26_2 C22_2 1_555 1_555
H14_2 C22_2 1_555 1_555
C27_2 C23_2 1_555 1_555
H15_2 C23_2 1_555 1_555
C28_2 C24_2 1_555 1_555
H16_2 C24_2 1_555 1_555
C29_2 C25_2 1_555 1_555
H17_2 C25_2 1_555 1_555
H18_2 C26_2 1_555 1_555
C30_2 C27_2 1_555 1_555
H19_2 C27_2 1_555 1_555
H20_2 C28_2 1_555 1_555
C31_2 C29_2 1_555 1_555
C32_2 C30_2 1_555 1_555
C33_2 C31_2 1_555 1_555
C34_2 C31_2 1_555 1_555
C35_2 C32_2 1_555 1_555
C36_2 C32_2 1_555 1_555
C37_2 C33_2 1_555 1_555
H21_2 C33_2 1_555 1_555
H22_2 C34_2 1_555 1_555
C38_2 N7 1_555 1_555
C39_2 C35_2 1_555 1_555
H23_2 C35_2 1_555 1_555
C40_2 N4_2 1_555 1_555
H24_2 C36_2 1_555 1_555
H25_2 C37_2 1_555 1_555
H26_2 C38_2 1_555 1_555
H27_2 C39_2 1_555 1_555
H28_2 C40_2 1_555 1_555
Co6_2 N4_2 1_555 1_555
O11_2 Co2_2 1_555 1_555
C15_2 C17_2 1_555 1_555
C26_2 C29_2 1_555 1_555
C28_2 C30_2 1_555 1_555
C34_2 C38_2 1_555 1_555
C36_2 C40_2 1_555 1_555
O1_2 C11_2 1_555 1_555
C11_2 C7_2 1_555 1_555
C12_2 C7_2 1_555 1_555
O8_2 C11_2 1_555 1_555
H7_2 C12_2 1_555 1_555
Co4_2 O1_2 1_555 1_555
Co1_2 N2_2 1_555 1_555
N2_2 C1_2 1_555 1_555
H1_2 C1_2 1_555 1_555
N7_2 Co1_2 1_555 1_555
C3_2 O2_2 1_555 1_555
C5_2 C3_2 1_555 1_555
O3_2 C3_2 1_555 1_555
C8_2 C5_2 1_555 1_555
H4_2 C8_2 1_555 1_555
C13_2 C8_2 1_555 1_555
O12_2 C18_2 1_555 1_555
H8_2 C13_2 1_555 1_555
N5_2 O4_2 1_555 1_555
C18_2 C16_2 1_555 1_555
C13_2 C16_2 1_555 1_555
N7_2 C37_3 1_555 1_555
C29_3 C25_3 1_555 1_555
H17_3 C25_3 1_555 1_555
C31_3 C29_3 1_555 1_555
C33_3 C31_3 1_555 1_555
C34_3 C31_3 1_555 1_555
C37_3 C33_3 1_555 1_555
H21_3 C33_3 1_555 1_555
H22_3 C34_3 1_555 1_555
C38_3 N7_2 1_555 1_555
H25_3 C37_3 1_555 1_555
H26_3 C38_3 1_555 1_555
C34_3 C38_3 1_555 1_555
Co3 N2_3 1_555 1_555
N2_3 C1_3 1_555 1_555
C1_3 C4_3 1_555 1_555
C2_3 N2_3 1_555 1_555
C4_3 N3_3 1_555 1_555
H1_3 C1_3 1_555 1_555
N3_3 C2_3 1_555 1_555
H2_3 C2_3 1_555 1_555
H3_3 C4_3 1_555 1_555
C6_3 N3_3 1_555 1_555
C9_3 C6_3 1_555 1_555
C10_3 C6_3 1_555 1_555
O5_3 Co2_3 1_555 1_555
N4_3 C39_3 1_555 1_555
C14_3 C9_3 1_555 1_555
H5_3 C9_3 1_555 1_555
H6_3 C10_3 1_555 1_555
C15_3 C10_3 1_555 1_555
H9_3 O5_3 1_555 1_555
H10_3 O5_3 1_555 1_555
H11_3 C14_3 1_555 1_555
C17_3 C14_3 1_555 1_555
H12_3 C15_3 1_555 1_555
N6_3 C17_3 1_555 1_555
C19_3 N6_3 1_555 1_555
C20_3 N6_3 1_555 1_555
C21_3 C19_3 1_555 1_555
C22_3 C19_3 1_555 1_555
C23_3 C20_3 1_555 1_555
C24_3 C20_3 1_555 1_555
H13_3 C21_3 1_555 1_555
C26_3 C22_3 1_555 1_555
H14_3 C22_3 1_555 1_555
C27_3 C23_3 1_555 1_555
H15_3 C23_3 1_555 1_555
C28_3 C24_3 1_555 1_555
H16_3 C24_3 1_555 1_555
C30_3 C27_3 1_555 1_555
H19_3 C27_3 1_555 1_555
H20_3 C28_3 1_555 1_555
C32_3 C30_3 1_555 1_555
C35_3 C32_3 1_555 1_555
C36_3 C32_3 1_555 1_555
C39_3 C35_3 1_555 1_555
H23_3 C35_3 1_555 1_555
C40_3 N4_3 1_555 1_555
H24_3 C36_3 1_555 1_555
H27_3 C39_3 1_555 1_555
H28_3 C40_3 1_555 1_555
Co6_3 N4_3 1_555 1_555
O11_3 Co2_3 1_555 1_555
O12_3 Co2_3 1_555 1_555
C15_3 C17_3 1_555 1_555
C28_3 C30_3 1_555 1_555
C36_3 C40_3 1_555 1_555
O1_3 C11_3 1_555 1_555
C3_3 O2_3 1_555 1_555
C5_3 C3_3 1_555 1_555
O3_3 C3_3 1_555 1_555
C7_3 C5_3 1_555 1_555
C8_3 C5_3 1_555 1_555
C11_3 C7_3 1_555 1_555
C12_3 C7_3 1_555 1_555
H4_3 C8_3 1_555 1_555
C13_3 C8_3 1_555 1_555
O11_3 C18_3 1_555 1_555
O12_3 C18_3 1_555 1_555
O8_3 C11_3 1_555 1_555
H7_3 C12_3 1_555 1_555
C16_3 C12_3 1_555 1_555
H8_3 C13_3 1_555 1_555
N5_3 O4_3 1_555 1_555
C18_3 C16_3 1_555 1_555
Co4_3 O1_3 1_555 1_555
C13_3 C16_3 1_555 1_555
Co1_3 N2_4 1_555 1_555
N1_2 C37_4 1_555 1_555
N2_4 C1_4 1_555 1_555
O2_4 Co1_3 1_555 1_555
C1_4 C4_4 1_555 1_555
C2_4 N2_4 1_555 1_555
C3_4 O2_4 1_555 1_555
C4_4 N3_4 1_555 1_555
N3_4 C2_4 1_555 1_555
H2_4 C2_4 1_555 1_555
C5_4 C3_4 1_555 1_555
O3_4 C3_4 1_555 1_555
H3_4 C4_4 1_555 1_555
C6_4 N3_4 1_555 1_555
C8_4 C5_4 1_555 1_555
Co2_4 O3_4 1_555 1_555
C9_4 C6_4 1_555 1_555
C10_4 C6_4 1_555 1_555
H4_4 C8_4 1_555 1_555
O4_4 Co2_4 1_555 1_555
O5_4 Co2_4 1_555 1_555
C14_4 C9_4 1_555 1_555
H5_4 C9_4 1_555 1_555
H6_4 C10_4 1_555 1_555
C15_4 C10_4 1_555 1_555
O8_4 C11_4 1_555 1_555
N5_4 O4_4 1_555 1_555
H9_4 O5_4 1_555 1_555
H10_4 O5_4 1_555 1_555
H11_4 C14_4 1_555 1_555
C17_4 C14_4 1_555 1_555
H12_4 C15_4 1_555 1_555
O9_4 N5_4 1_555 1_555
N6_4 C17_4 1_555 1_555
C19_4 N6_4 1_555 1_555
C20_4 N6_4 1_555 1_555
C21_4 C19_4 1_555 1_555
C22_4 C19_4 1_555 1_555
C23_4 C20_4 1_555 1_555
C24_4 C20_4 1_555 1_555
C25_4 C21_4 1_555 1_555
H13_4 C21_4 1_555 1_555
C26_4 C22_4 1_555 1_555
H14_4 C22_4 1_555 1_555
C27_4 C23_4 1_555 1_555
H15_4 C23_4 1_555 1_555
H16_4 C24_4 1_555 1_555
C29_4 C25_4 1_555 1_555
H17_4 C25_4 1_555 1_555
H18_4 C26_4 1_555 1_555
H19_4 C27_4 1_555 1_555
C31_4 C29_4 1_555 1_555
C33_4 C31_4 1_555 1_555
C34_4 C31_4 1_555 1_555
C37_4 C33_4 1_555 1_555
H21_4 C33_4 1_555 1_555
C38_4 N1_2 1_555 1_555
H25_4 C37_4 1_555 1_555
Co3_2 N1_2 1_555 1_555
N7_3 Co1_3 1_555 1_555
O11_4 Co2_4 1_555 1_555
O12_4 Co2_4 1_555 1_555
N8_4 Co2_4 1_555 1_555
C15_4 C17_4 1_555 1_555
C26_4 C29_4 1_555 1_555
C34_4 C38_4 1_555 1_555
C12_4 C7_4 1_555 1_555
O11_4 C18_4 1_555 1_555
O12_4 C18_4 1_555 1_555
H7_4 C12_4 1_555 1_555
C16_4 C12_4 1_555 1_555
H8_4 C13_4 1_555 1_555
C18_4 C16_4 1_555 1_555
C13_4 C16_4 1_555 1_555
N8_3 C39_4 1_555 1_555
H20_4 C28_4 1_555 1_555
C32_4 C30_4 1_555 1_555
C35_4 C32_4 1_555 1_555
C36_4 C32_4 1_555 1_555
C39_4 C35_4 1_555 1_555
H23_4 C35_4 1_555 1_555
C40_4 N8_3 1_555 1_555
H24_4 C36_4 1_555 1_555
H27_4 C39_4 1_555 1_555
C28_4 C30_4 1_555 1_555
C36_4 C40_4 1_555 1_555
N8 C39_5 1_555 1_555
H20_5 C28_5 1_555 1_555
C32_5 C30_5 1_555 1_555
C35_5 C32_5 1_555 1_555
C36_5 C32_5 1_555 1_555
C39_5 C35_5 1_555 1_555
H23_5 C35_5 1_555 1_555
C40_5 N8 1_555 1_555
H24_5 C36_5 1_555 1_555
H27_5 C39_5 1_555 1_555
C28_5 C30_5 1_555 1_555
C36_5 C40_5 1_555 1_555
Co1_4 N2_5 1_555 1_555
N7_3 C37_5 1_555 1_555
N2_5 C1_5 1_555 1_555
O2_5 Co1_4 1_555 1_555
C1_5 C4_5 1_555 1_555
C2_5 N2_5 1_555 1_555
C3_5 O2_5 1_555 1_555
C4_5 N3_5 1_555 1_555
H1_5 C1_5 1_555 1_555
N3_5 C2_5 1_555 1_555
H2_5 C2_5 1_555 1_555
C5_5 C3_5 1_555 1_555
O3_5 C3_5 1_555 1_555
H3_5 C4_5 1_555 1_555
C6_5 N3_5 1_555 1_555
C8_5 C5_5 1_555 1_555
Co2_5 O3_5 1_555 1_555
C9_5 C6_5 1_555 1_555
C10_5 C6_5 1_555 1_555
H4_5 C8_5 1_555 1_555
O4_5 Co2_5 1_555 1_555
O5_5 Co2_5 1_555 1_555
C14_5 C9_5 1_555 1_555
H5_5 C9_5 1_555 1_555
H6_5 C10_5 1_555 1_555
C15_5 C10_5 1_555 1_555
O8_5 C11_5 1_555 1_555
N5_5 O4_5 1_555 1_555
H9_5 O5_5 1_555 1_555
H10_5 O5_5 1_555 1_555
H11_5 C14_5 1_555 1_555
C17_5 C14_5 1_555 1_555
H12_5 C15_5 1_555 1_555
O9_5 N5_5 1_555 1_555
N6_5 C17_5 1_555 1_555
C19_5 N6_5 1_555 1_555
C20_5 N6_5 1_555 1_555
C21_5 C19_5 1_555 1_555
C22_5 C19_5 1_555 1_555
C23_5 C20_5 1_555 1_555
C24_5 C20_5 1_555 1_555
C25_5 C21_5 1_555 1_555
H13_5 C21_5 1_555 1_555
C26_5 C22_5 1_555 1_555
H14_5 C22_5 1_555 1_555
C27_5 C23_5 1_555 1_555
H15_5 C23_5 1_555 1_555
H16_5 C24_5 1_555 1_555
C29_5 C25_5 1_555 1_555
H17_5 C25_5 1_555 1_555
H18_5 C26_5 1_555 1_555
H19_5 C27_5 1_555 1_555
C31_5 C29_5 1_555 1_555
C33_5 C31_5 1_555 1_555
C34_5 C31_5 1_555 1_555
C37_5 C33_5 1_555 1_555
H21_5 C33_5 1_555 1_555
C38_5 N7_3 1_555 1_555
H25_5 C37_5 1_555 1_555
N7_4 Co1_4 1_555 1_555
O10_5 Co1_4 1_555 1_555
O11_5 Co2_5 1_555 1_555
O12_5 Co2_5 1_555 1_555
N8_5 Co2_5 1_555 1_555
C15_5 C17_5 1_555 1_555
C26_5 C29_5 1_555 1_555
C34_5 C38_5 1_555 1_555
C12_5 C7_5 1_555 1_555
O11_5 C18_5 1_555 1_555
O12_5 C18_5 1_555 1_555
H7_5 C12_5 1_555 1_555
C16_5 C12_5 1_555 1_555
H8_5 C13_5 1_555 1_555
C18_5 C16_5 1_555 1_555
C13_5 C16_5 1_555 1_555
Co3_2 N2_6 1_555 1_555
N7_4 C37_6 1_555 1_555
N2_6 C1_6 1_555 1_555
O2_6 Co3_2 1_555 1_555
C1_6 C4_6 1_555 1_555
C2_6 N2_6 1_555 1_555
C3_6 O2_6 1_555 1_555
C4_6 N3_6 1_555 1_555
N3_6 C2_6 1_555 1_555
H2_6 C2_6 1_555 1_555
C5_6 C3_6 1_555 1_555
O3_6 C3_6 1_555 1_555
H3_6 C4_6 1_555 1_555
C6_6 N3_6 1_555 1_555
C8_6 C5_6 1_555 1_555
Co2_6 O3_6 1_555 1_555
C9_6 C6_6 1_555 1_555
C10_6 C6_6 1_555 1_555
H4_6 C8_6 1_555 1_555
O4_6 Co2_6 1_555 1_555
O5_6 Co2_6 1_555 1_555
N8_2 C39_6 1_555 1_555
C14_6 C9_6 1_555 1_555
H5_6 C9_6 1_555 1_555
H6_6 C10_6 1_555 1_555
C15_6 C10_6 1_555 1_555
O8_6 C11_6 1_555 1_555
N5_6 O4_6 1_555 1_555
H9_6 O5_6 1_555 1_555
H10_6 O5_6 1_555 1_555
H11_6 C14_6 1_555 1_555
C17_6 C14_6 1_555 1_555
H12_6 C15_6 1_555 1_555
O9_6 N5_6 1_555 1_555
N6_6 C17_6 1_555 1_555
C19_6 N6_6 1_555 1_555
C20_6 N6_6 1_555 1_555
C21_6 C19_6 1_555 1_555
C22_6 C19_6 1_555 1_555
C23_6 C20_6 1_555 1_555
C24_6 C20_6 1_555 1_555
C25_6 C21_6 1_555 1_555
H13_6 C21_6 1_555 1_555
C26_6 C22_6 1_555 1_555
H14_6 C22_6 1_555 1_555
C27_6 C23_6 1_555 1_555
H15_6 C23_6 1_555 1_555
C28_6 C24_6 1_555 1_555
H16_6 C24_6 1_555 1_555
C29_6 C25_6 1_555 1_555
H17_6 C25_6 1_555 1_555
H18_6 C26_6 1_555 1_555
C30_6 C27_6 1_555 1_555
H19_6 C27_6 1_555 1_555
H20_6 C28_6 1_555 1_555
C31_6 C29_6 1_555 1_555
C32_6 C30_6 1_555 1_555
C33_6 C31_6 1_555 1_555
C34_6 C31_6 1_555 1_555
C35_6 C32_6 1_555 1_555
C36_6 C32_6 1_555 1_555
C37_6 C33_6 1_555 1_555
H21_6 C33_6 1_555 1_555
H22_6 C34_6 1_555 1_555
C38_6 N7_4 1_555 1_555
C39_6 C35_6 1_555 1_555
H23_6 C35_6 1_555 1_555
C40_6 N8_2 1_555 1_555
H24_6 C36_6 1_555 1_555
H25_6 C37_6 1_555 1_555
H26_6 C38_6 1_555 1_555
H27_6 C39_6 1_555 1_555
O11_6 Co2_6 1_555 1_555
O12_6 Co2_6 1_555 1_555
N8_6 Co2_6 1_555 1_555
C15_6 C17_6 1_555 1_555
C26_6 C29_6 1_555 1_555
C28_6 C30_6 1_555 1_555
C34_6 C38_6 1_555 1_555
C36_6 C40_6 1_555 1_555
C12_6 C7_6 1_555 1_555
O11_6 C18_6 1_555 1_555
O12_6 C18_6 1_555 1_555
H7_6 C12_6 1_555 1_555
C16_6 C12_6 1_555 1_555
H8_6 C13_6 1_555 1_555
C18_6 C16_6 1_555 1_555
C13_6 C16_6 1_555 1_555
N8_6 C39_7 1_555 1_555
C28_7 C24_7 1_555 1_555
H16_7 C24_7 1_555 1_555
H20_7 C28_7 1_555 1_555
C32_7 C30_7 1_555 1_555
C35_7 C32_7 1_555 1_555
C36_7 C32_7 1_555 1_555
C39_7 C35_7 1_555 1_555
C40_7 N8_6 1_555 1_555
H24_7 C36_7 1_555 1_555
H27_7 C39_7 1_555 1_555
H28_7 C40_7 1_555 1_555
C28_7 C30_7 1_555 1_555
C36_7 C40_7 1_555 1_555
Co4_3 N2_7 1_555 1_555
N1_3 C37_7 1_555 1_555
O10_5 C11_7 1_555 1_555
N2_7 C1_7 1_555 1_555
O2_7 Co4_3 1_555 1_555
C1_7 C4_7 1_555 1_555
C2_7 N2_7 1_555 1_555
C3_7 O2_7 1_555 1_555
C4_7 N3_7 1_555 1_555
H1_7 C1_7 1_555 1_555
N3_7 C2_7 1_555 1_555
H2_7 C2_7 1_555 1_555
C5_7 C3_7 1_555 1_555
O3_7 C3_7 1_555 1_555
C6_7 N3_7 1_555 1_555
C7_7 C5_7 1_555 1_555
C8_7 C5_7 1_555 1_555
Co6_2 O3_7 1_555 1_555
C9_7 C6_7 1_555 1_555
C10_7 C6_7 1_555 1_555
C11_7 C7_7 1_555 1_555
C12_7 C7_7 1_555 1_555
H4_7 C8_7 1_555 1_555
C13_7 C8_7 1_555 1_555
O4_7 Co6_2 1_555 1_555
O5_7 Co6_2 1_555 1_555
C14_7 C9_7 1_555 1_555
H5_7 C9_7 1_555 1_555
C15_7 C10_7 1_555 1_555
O8_7 C11_7 1_555 1_555
H7_7 C12_7 1_555 1_555
C16_7 C12_7 1_555 1_555
H8_7 C13_7 1_555 1_555
N5_7 O4_7 1_555 1_555
H9_7 O5_7 1_555 1_555
H10_7 O5_7 1_555 1_555
H11_7 C14_7 1_555 1_555
C17_7 C14_7 1_555 1_555
O9_7 N5_7 1_555 1_555
N6_7 C17_7 1_555 1_555
C19_7 N6_7 1_555 1_555
C20_7 N6_7 1_555 1_555
C21_7 C19_7 1_555 1_555
C22_7 C19_7 1_555 1_555
C23_7 C20_7 1_555 1_555
C25_7 C21_7 1_555 1_555
H13_7 C21_7 1_555 1_555
C26_7 C22_7 1_555 1_555
H14_7 C22_7 1_555 1_555
C27_7 C23_7 1_555 1_555
H15_7 C23_7 1_555 1_555
C29_7 C25_7 1_555 1_555
H17_7 C25_7 1_555 1_555
H18_7 C26_7 1_555 1_555
H19_7 C27_7 1_555 1_555
C31_7 C29_7 1_555 1_555
C33_7 C31_7 1_555 1_555
C34_7 C31_7 1_555 1_555
C37_7 C33_7 1_555 1_555
H21_7 C33_7 1_555 1_555
H22_7 C34_7 1_555 1_555
C38_7 N1_3 1_555 1_555
H25_7 C37_7 1_555 1_555
H26_7 C38_7 1_555 1_555
Co4_2 N1_3 1_555 1_555
N7_5 Co4_3 1_555 1_555
O11_7 Co6_2 1_555 1_555
O12_7 Co6_2 1_555 1_555
C13_7 C16_7 1_555 1_555
C15_7 C17_7 1_555 1_555
C26_7 C29_7 1_555 1_555
C34_7 C38_7 1_555 1_555
O11_7 C18_7 1_555 1_555
O12_7 C18_7 1_555 1_555
N8_4 C39_8 1_555 1_555
C28_8 C24_8 1_555 1_555
H16_8 C24_8 1_555 1_555
H20_8 C28_8 1_555 1_555
C32_8 C30_8 1_555 1_555
C35_8 C32_8 1_555 1_555
C36_8 C32_8 1_555 1_555
C39_8 C35_8 1_555 1_555
C40_8 N8_4 1_555 1_555
H24_8 C36_8 1_555 1_555
H27_8 C39_8 1_555 1_555
H28_8 C40_8 1_555 1_555
C28_8 C30_8 1_555 1_555
C36_8 C40_8 1_555 1_555
C15_8 C10_8 1_555 1_555
N6_8 C17_8 1_555 1_555
C20_8 N6_8 1_555 1_555
C23_8 C20_8 1_555 1_555
C27_8 C23_8 1_555 1_555
H15_8 C23_8 1_555 1_555
H19_8 C27_8 1_555 1_555
C15_8 C17_8 1_555 1_555
Co4 N2_8 1_555 1_555
N7_5 C37_8 1_555 1_555
O10_6 C11_8 1_555 1_555
N2_8 C1_8 1_555 1_555
O2_8 Co4 1_555 1_555
C1_8 C4_8 1_555 1_555
C2_8 N2_8 1_555 1_555
C3_8 O2_8 1_555 1_555
C4_8 N3_8 1_555 1_555
H1_8 C1_8 1_555 1_555
N3_8 C2_8 1_555 1_555
H2_8 C2_8 1_555 1_555
C5_8 C3_8 1_555 1_555
O3_8 C3_8 1_555 1_555
C6_8 N3_8 1_555 1_555
C7_8 C5_8 1_555 1_555
C8_8 C5_8 1_555 1_555
Co6_3 O3_8 1_555 1_555
C9_8 C6_8 1_555 1_555
C11_8 C7_8 1_555 1_555
C12_8 C7_8 1_555 1_555
H4_8 C8_8 1_555 1_555
C13_8 C8_8 1_555 1_555
O4_8 Co6_3 1_555 1_555
O5_8 Co6_3 1_555 1_555
C14_8 C9_8 1_555 1_555
H5_8 C9_8 1_555 1_555
O8_8 C11_8 1_555 1_555
H7_8 C12_8 1_555 1_555
C16_8 C12_8 1_555 1_555
H8_8 C13_8 1_555 1_555
N5_8 O4_8 1_555 1_555
H9_8 O5_8 1_555 1_555
H10_8 O5_8 1_555 1_555
H11_8 C14_8 1_555 1_555
O9_8 N5_8 1_555 1_555
C21_8 C19_8 1_555 1_555
C22_8 C19_8 1_555 1_555
C25_8 C21_8 1_555 1_555
C26_8 C22_8 1_555 1_555
H14_8 C22_8 1_555 1_555
C29_8 C25_8 1_555 1_555
H17_8 C25_8 1_555 1_555
H18_8 C26_8 1_555 1_555
C31_8 C29_8 1_555 1_555
C33_8 C31_8 1_555 1_555
C34_8 C31_8 1_555 1_555
C37_8 C33_8 1_555 1_555
H21_8 C33_8 1_555 1_555
H22_8 C34_8 1_555 1_555
C38_8 N7_5 1_555 1_555
H25_8 C37_8 1_555 1_555
H26_8 C38_8 1_555 1_555
N7_6 Co4 1_555 1_555
O11_8 Co6_3 1_555 1_555
O12_8 Co6_3 1_555 1_555
C13_8 C16_8 1_555 1_555
C26_8 C29_8 1_555 1_555
C34_8 C38_8 1_555 1_555
O11_8 C18_8 1_555 1_555
O12_8 C18_8 1_555 1_555
Co4_2 N2_9 1_555 1_555
N7_6 C37_9 1_555 1_555
O10_4 C11_9 1_555 1_555
N2_9 C1_9 1_555 1_555
O2_9 Co4_2 1_555 1_555
C1_9 C4_9 1_555 1_555
C2_9 N2_9 1_555 1_555
C3_9 O2_9 1_555 1_555
C4_9 N3_9 1_555 1_555
H1_9 C1_9 1_555 1_555
N3_9 C2_9 1_555 1_555
H2_9 C2_9 1_555 1_555
C5_9 C3_9 1_555 1_555
O3_9 C3_9 1_555 1_555
C6_9 N3_9 1_555 1_555
C7_9 C5_9 1_555 1_555
C8_9 C5_9 1_555 1_555
Co6 O3_9 1_555 1_555
C9_9 C6_9 1_555 1_555
C11_9 C7_9 1_555 1_555
C12_9 C7_9 1_555 1_555
H4_9 C8_9 1_555 1_555
C13_9 C8_9 1_555 1_555
O4_9 Co6 1_555 1_555
O5_9 Co6 1_555 1_555
C14_9 C9_9 1_555 1_555
H5_9 C9_9 1_555 1_555
O8_9 C11_9 1_555 1_555
H7_9 C12_9 1_555 1_555
C16_9 C12_9 1_555 1_555
H8_9 C13_9 1_555 1_555
N5_9 O4_9 1_555 1_555
H9_9 O5_9 1_555 1_555
H10_9 O5_9 1_555 1_555
H11_9 C14_9 1_555 1_555
O9_9 N5_9 1_555 1_555
C21_9 C19_9 1_555 1_555
C22_9 C19_9 1_555 1_555
C25_9 C21_9 1_555 1_555
C26_9 C22_9 1_555 1_555
H14_9 C22_9 1_555 1_555
C29_9 C25_9 1_555 1_555
H17_9 C25_9 1_555 1_555
H18_9 C26_9 1_555 1_555
C31_9 C29_9 1_555 1_555
C33_9 C31_9 1_555 1_555
C34_9 C31_9 1_555 1_555
C37_9 C33_9 1_555 1_555
H21_9 C33_9 1_555 1_555
H22_9 C34_9 1_555 1_555
C38_9 N7_6 1_555 1_555
H25_9 C37_9 1_555 1_555
H26_9 C38_9 1_555 1_555
O11_9 Co6 1_555 1_555
O12_9 Co6 1_555 1_555
C13_9 C16_9 1_555 1_555
C26_9 C29_9 1_555 1_555
C34_9 C38_9 1_555 1_555
O11_9 C18_9 1_555 1_555
O12_9 C18_9 1_555 1_555
N8_5 C39_9 1_555 1_555
C28_9 C24_9 1_555 1_555
H16_9 C24_9 1_555 1_555
H20_9 C28_9 1_555 1_555
C32_9 C30_9 1_555 1_555
C35_9 C32_9 1_555 1_555
C36_9 C32_9 1_555 1_555
C39_9 C35_9 1_555 1_555
C40_9 N8_5 1_555 1_555
H24_9 C36_9 1_555 1_555
H27_9 C39_9 1_555 1_555
H28_9 C40_9 1_555 1_555
C28_9 C30_9 1_555 1_555
C36_9 C40_9 1_555 1_555
C15_9 C10_9 1_555 1_555
N6_9 C17_9 1_555 1_555
C20_9 N6_9 1_555 1_555
C23_9 C20_9 1_555 1_555
C27_9 C23_9 1_555 1_555
H15_9 C23_9 1_555 1_555
H19_9 C27_9 1_555 1_555
C15_9 C17_9 1_555 1_555

#END
