
###############################################################################
#
# This file contains modified crystal structure data generated from the
# MOF subset of the Cambridge Structural Database (CSD) v543 
# hosted by the Cambridge Crystallographic Data Centre (CCDC).
#
# This work is licensed under the Creative Commons
# Attribution-NonCommercial-ShareAlike 4.0 International License.
# To view a copy of this license, visit
# http://creativecommons.org/licenses/by-nc-sa/4.0/
# or send a letter to
# Creative Commons, PO Box 1866, Mountain View, CA 94042, USA.
#
# CIF created using the CSD Python API on 29 September 2022
# The structure has been converted into the P1 space group
# The structure has a 3D framework
# The original CSD entry PETDOK is in the hexagonal crystal system
# The original CSD entry PETDOK is in a Sohncke space group
# The framework has been calculated to contain at least 10.0% void space
# The void calculation uses a probe of radius 1.32A, grid spacing 0.4
#
###############################################################################

data_PETDOK
_chemical_formula_moiety         '(C504 H312 N36 O80 Zn19)n'
_symmetry_cell_setting           triclinic
_symmetry_space_group_name_H-M   'P 1'
_symmetry_Int_Tables_number      1
_space_group_name_Hall           'P 1'
loop_
_symmetry_equiv_pos_site_id
_symmetry_equiv_pos_as_xyz
1 x,y,z
_cell_length_a                   23.1471(5)
_cell_length_b                   23.1471(5)
_cell_length_c                   60.7501(17)
_cell_angle_alpha                90
_cell_angle_beta                 90
_cell_angle_gamma                120
_cell_volume                     28188.4
loop_
_atom_site_label
_atom_site_type_symbol
_atom_site_fract_x
_atom_site_fract_y
_atom_site_fract_z
Zn1 Zn 0.000000 0.20276(6) 0.166667
C2 C 0.0321(7) 0.1803(6) 0.09702(17)
C3 C 0.0994(7) 0.2055(6) 0.09868(17)
H1 H 0.121047 0.224793 0.111830
C4 C 0.1357(6) 0.2027(6) 0.08113(18)
H2 H 0.181834 0.222930 0.082283
C5 C 0.1056(7) 0.1714(7) 0.06241(18)
C6 C 0.0385(8) 0.1479(10) 0.06034(15)
H3 H 0.018074 0.131215 0.046822
C7 C 0.0013(7) 0.1483(9) 0.07731(15)
C8 C 0.1408(6) 0.1554(8) 0.04408(18)
C9 C 0.2043(6) 0.1667(8) 0.0472(2)
H5 H 0.228454 0.189849 0.059624
C10 C 0.2334(6) 0.1429(8) 0.0315(2)
H6 H 0.272888 0.143581 0.034932
C11 C 0.2044(7) 0.1194(8) 0.0118(2)
C12 C 0.1384(7) 0.1070(8) 0.00849(19)
C13 C 0.1107(7) 0.1260(9) 0.02424(19)
H8 H 0.068013 0.118957 0.021659
C18 C 0.4180(8) 0.1123(11) 0.0060(2)
H9 H 0.400537 0.126180 0.017316
C19 C 0.4768(8) 0.1130(13) 0.0093(3)
H10 H 0.496662 0.123790 0.023146
C24 C 0.6161(7) 0.1447(9) 0.0145(2)
H13 H 0.602792 0.168863 0.023322
C25 C 0.6762(7) 0.1470(7) 0.01824(19)
H14 H 0.703378 0.173095 0.029699
C26 C 0.6969(6) 0.1113(6) 0.00522(16)
C29 C 0.7607(6) 0.1125(8) 0.0109(2)
O1 O 0.0221(3) 0.2099(3) 0.13372(9)
O3 O 0.7986(4) 0.1513(4) 0.02603(14)
O4 O 0.7713(4) 0.0701(4) 0.00064(12)
C73 C 0.2183(10) 0.0019(8) 0.0749(2)
C74 C 0.2114(10) 0.0320(8) 0.0942(2)
H44 H 0.241590 0.043271 0.105682
C75 C 0.1591(9) 0.0444(7) 0.09570(18)
C76 C 0.1133(10) 0.0265(8) 0.0788(2)
H45 H 0.077281 0.033490 0.080263
C78 C 0.1489(10) 0.0791(8) 0.11596(19)
C79 C 0.2041(11) 0.1260(8) 0.1263(2)
H47 H 0.245876 0.133914 0.121859
C80 C 0.1987(9) 0.1629(7) 0.14359(19)
H48 H 0.236141 0.197668 0.150231
C81 C 0.1351(9) 0.1452(7) 0.15031(17)
C82 C 0.0789(9) 0.0956(7) 0.1403(2)
H49 H 0.037561 0.086599 0.145677
C83 C 0.0801(9) 0.0579(8) 0.1226(2)
H50 H 0.042245 0.023816 0.115868
C84 C 0.1277(8) 0.1871(6) 0.16791(17)
O12 O 0.1759(6) 0.2294(5) 0.17855(12)
O13 O 0.0673(6) 0.1723(5) 0.17386(13)
Zn4 Zn 0.797240(60) 0.000000 0.000000
Zn8 Zn 0.14381(7) 0.27003(9) 0.19984(2)
Zn9 Zn 0.87378(6) 0.14381(7) 0.03318(2)
O18 O 0.0701(4) 0.2988(6) 0.16731(12)
C39 C 0.1351(9) 0.9899(5) 0.68302(17)
C40 C 0.0789(9) 0.9833(5) 0.6930(2)
H23 H 0.037561 0.950962 0.687656
C42 C 0.1277(8) 0.9406(6) 0.66542(17)
O5 O 0.1759(6) 0.9465(3) 0.65478(12)
O6 O 0.0673(6) 0.8950(4) 0.65947(13)
C44 C 0.0321(11) 0.8518(9) 0.73631(17)
C45 C 0.0994(11) 0.8939(9) 0.73465(17)
H27 H 0.121047 0.896254 0.721503
C46 C 0.1357(10) 0.9330(8) 0.75220(18)
H28 H 0.181834 0.958904 0.751050
C47 C 0.1056(12) 0.9342(10) 0.77092(18)
C48 C 0.0385(16) 0.8906(13) 0.77299(15)
H29 H 0.018074 0.886859 0.786511
C49 C 0.0013(14) 0.8530(11) 0.75602(15)
C50 C 0.1408(13) 0.9854(10) 0.78925(18)
C55 C 0.1107(14) 0.9847(11) 0.80909(19)
H34 H 0.068013 0.949056 0.811674
O8 O 0.0221(5) 0.8122(4) 0.69961(9)
Zn5 Zn -0.000000(85) 0.79724(6) 0.666667
Zn7 Zn 0.14381(11) 0.87378(6) 0.63349(2)
C84_2 C 0.9406(10) 0.1277(8) 0.00124(17)
O12_2 O 0.9465(8) 0.1759(6) 0.01188(12)
O13_2 O 0.8950(8) 0.0673(6) 0.00719(13)
C31 C 0.0019(8) 0.2183(10) 0.5918(2)
C32 C 0.0320(8) 0.2114(10) 0.5725(2)
H18 H 0.043271 0.241590 0.560985
C33 C 0.0444(7) 0.1591(9) 0.57097(18)
C34 C 0.0265(8) 0.1133(10) 0.5879(2)
H19 H 0.033490 0.077281 0.586404
C36 C 0.0791(8) 0.1489(10) 0.55071(19)
C37 C 0.1260(8) 0.2041(11) 0.5404(2)
H21 H 0.133914 0.245876 0.544808
C38 C 0.1629(7) 0.1987(9) 0.52308(19)
H22 H 0.197668 0.236141 0.516436
C39_2 C 0.1452(7) 0.1351(9) 0.51636(17)
C40_2 C 0.0956(7) 0.0789(9) 0.5264(2)
H23_2 H 0.086599 0.037561 0.520990
C41 C 0.0579(8) 0.0801(9) 0.5441(2)
H24 H 0.023816 0.042245 0.550799
C42_2 C 0.1871(6) 0.1277(8) 0.49876(17)
O5_2 O 0.2294(5) 0.1759(6) 0.48812(12)
O6_2 O 0.1723(5) 0.0673(6) 0.49281(13)
C44_2 C 0.1803(6) 0.0321(11) 0.56965(17)
C45_2 C 0.2055(6) 0.0994(11) 0.56799(17)
H27_2 H 0.224793 0.121047 0.554837
C46_2 C 0.2027(6) 0.1357(10) 0.58554(18)
H28_2 H 0.222930 0.181834 0.584384
C47_2 C 0.1714(7) 0.1056(12) 0.60426(18)
C48_2 C 0.1479(10) 0.0385(16) 0.60633(15)
H29_2 H 0.131215 0.018074 0.619845
C49_2 C 0.1483(9) 0.0013(14) 0.58936(15)
C50_2 C 0.1554(8) 0.1408(13) 0.62259(18)
C51 C 0.1667(8) 0.2043(13) 0.6195(2)
H31 H 0.189849 0.228454 0.607043
C52 C 0.1429(8) 0.2334(13) 0.6352(2)
H32 H 0.143581 0.272888 0.631735
C53 C 0.1194(8) 0.2044(14) 0.6549(2)
C54 C 0.1070(8) 0.1384(14) 0.65818(19)
H33 H 0.086251 0.114904 0.670925
C55_2 C 0.1260(9) 0.1107(14) 0.64243(19)
H34_2 H 0.118957 0.068013 0.645008
C56 C 0.0947(8) 0.2315(13) 0.6718(2)
C57 C 0.0820(8) 0.3148(14) 0.6825(2)
C58 C 0.0479(9) 0.2251(14) 0.7046(2)
C59 C 0.0919(9) 0.3849(14) 0.6799(2)
C60 C 0.1123(11) 0.4180(18) 0.6607(2)
H35 H 0.126180 0.400537 0.649351
C61 C 0.1130(13) 0.4768(20) 0.6574(3)
H36 H 0.123790 0.496662 0.643521
C62 C 0.0983(7) 0.5069(11) 0.6738(2)
C63 C 0.0820(13) 0.4777(20) 0.6931(3)
H37 H 0.075496 0.499049 0.704924
C64 C 0.0748(11) 0.4177(18) 0.6955(2)
H38 H 0.056842 0.395727 0.708720
C65 C 0.1050(7) 0.5757(11) 0.6695(2)
C66 C 0.1447(9) 0.6161(14) 0.6522(2)
H39 H 0.168863 0.602792 0.643345
C67 C 0.1470(7) 0.6762(12) 0.64843(19)
H40 H 0.173095 0.703378 0.636968
C68 C 0.1113(6) 0.6969(10) 0.66145(16)
C69 C 0.0745(7) 0.6562(13) 0.67832(18)
H41 H 0.049888 0.669734 0.686788
C70 C 0.0708(6) 0.5972(10) 0.68376(19)
H42 H 0.047397 0.572601 0.696041
C71 C 0.1125(8) 0.7607(13) 0.6558(2)
C72 C 0.0131(9) 0.1876(14) 0.7242(2)
H43 H 0.007883 0.260486 0.740609
C77 C 0.0022(9) 0.1232(14) 0.7260(2)
H46 H 0.013688 0.104218 0.714460
N4 N 0.1033(7) 0.2911(11) 0.66715(17)
N5 N 0.0538(7) 0.2858(11) 0.70174(17)
N6 N 0.0673(7) 0.1985(11) 0.68984(17)
O8_2 O 0.2099(3) 0.0221(5) 0.53295(9)
O10 O 0.1513(4) 0.7986(7) 0.64064(14)
O11 O 0.0701(4) 0.7713(7) 0.66603(12)
Zn5_2 Zn 0.202760(60) -0.000000(85) 0.500000
Zn7_2 Zn 0.27003(9) 0.14381(11) 0.46682(2)
C1 C 0.0088(7) 0.8194(6) 0.61673(17)
H4 H 0.044863 0.872763 0.575946
O2 O 0.0719(4) 0.8500(4) 0.61344(9)
O7 O 0.2254(5) 0.9203(5) 0.61056(13)
H25 H 0.218509 0.923174 0.596968
H26 H 0.265049 0.936204 0.615308
C31_2 C 0.7836(6) 0.0019(8) 0.4251(2)
C32_2 C 0.8206(6) 0.0320(8) 0.4058(2)
H18_2 H 0.801681 0.043271 0.394318
C33_2 C 0.8853(6) 0.0444(7) 0.40430(18)
C34_2 C 0.9132(6) 0.0265(8) 0.4212(2)
H19_2 H 0.956209 0.033490 0.419737
C36_2 C 0.9302(6) 0.0791(8) 0.38404(19)
C37_2 C 0.9219(7) 0.1260(8) 0.3737(2)
H21_2 H 0.888038 0.133914 0.378141
C38_2 C 0.9642(6) 0.1629(7) 0.35641(19)
H22_2 H 0.961527 0.197668 0.349769
C41_2 C 0.9778(5) 0.0579(8) 0.3774(2)
H24_2 H 0.981571 0.023816 0.384132
C51_2 C 0.9624(10) 0.1667(8) 0.4528(2)
H31_2 H 0.961395 0.189849 0.440376
C52_2 C 0.9095(10) 0.1429(8) 0.4685(2)
H32_2 H 0.870693 0.143581 0.465068
C53_2 C 0.9150(11) 0.1194(8) 0.4882(2)
C54_2 C 0.9686(11) 0.1070(8) 0.49151(19)
H33_2 H 0.971347 0.086251 0.504258
C56_2 C 0.8632(10) 0.0947(8) 0.5051(2)
C57_2 C 0.7672(11) 0.0820(8) 0.5158(2)
C58_2 C 0.8228(11) 0.0479(9) 0.5379(2)
C59_2 C 0.7070(11) 0.0919(9) 0.5132(2)
C60_2 C 0.6943(14) 0.1123(11) 0.4940(2)
H35_2 H 0.725643 0.126180 0.482684
C61_2 C 0.6362(15) 0.1130(13) 0.4907(3)
H36_2 H 0.627128 0.123790 0.476854
C62_2 C 0.5914(9) 0.0983(7) 0.5071(2)
C63_2 C 0.6043(15) 0.0820(13) 0.5264(3)
H37_2 H 0.576447 0.075496 0.538257
C64_2 C 0.6571(14) 0.0748(11) 0.5288(2)
H38_2 H 0.661115 0.056842 0.542053
C65_2 C 0.5293(9) 0.1050(7) 0.5028(2)
C66_2 C 0.5286(11) 0.1447(9) 0.4855(2)
H39_2 H 0.566071 0.168863 0.476678
C67_2 C 0.4708(10) 0.1470(7) 0.48176(19)
H40_2 H 0.469717 0.173095 0.470301
C68_2 C 0.4144(8) 0.1113(6) 0.49478(16)
C69_2 C 0.4183(11) 0.0745(7) 0.51165(18)
H41_2 H 0.380154 0.049888 0.520121
C70_2 C 0.4736(8) 0.0708(6) 0.51709(19)
H42_2 H 0.474796 0.047397 0.529374
C71_2 C 0.3518(10) 0.1125(8) 0.4891(2)
C72_2 C 0.8255(11) 0.0131(9) 0.5575(2)
H43_2 H 0.747397 0.007883 0.573942
C77_2 C 0.8790(11) 0.0022(9) 0.5593(2)
H46_2 H 0.909470 0.013688 0.547793
N4_2 N 0.8122(9) 0.1033(7) 0.50048(17)
N5_2 N 0.7680(9) 0.0538(7) 0.53507(17)
N6_2 N 0.8688(9) 0.0673(7) 0.52317(17)
O10_2 O 0.3527(6) 0.1513(4) 0.47397(14)
O11_2 O 0.2988(6) 0.0701(4) 0.49936(12)
C1_2 C 0.1894(9) 0.0088(7) 0.45006(17)
H4_2 H 0.172100 0.044863 0.409279
O2_2 O 0.2219(6) 0.0719(4) 0.44677(9)
O7_2 O 0.3051(7) 0.2254(5) 0.44389(13)
H25_2 H 0.295335 0.218509 0.430301
H26_2 H 0.328845 0.265049 0.448641
C43 C 0.0088(11) 0.1894(9) 0.21660(17)
H30 H 0.044863 0.172100 0.257387
O9 O 0.0719(7) 0.2219(6) 0.21989(9)
O14 O 0.2254(9) 0.3051(7) 0.22277(13)
H51 H 0.218509 0.295335 0.236365
H52 H 0.265049 0.328845 0.218025
O16 O 0.1513(7) 0.3527(6) 0.19270(14)
C9_2 C 0.1667(8) 0.9624(10) 0.2139(2)
H5_2 H 0.189849 0.961395 0.226291
C10_2 C 0.1429(8) 0.9095(10) 0.1982(2)
H6_2 H 0.143581 0.870693 0.201599
C11_2 C 0.1194(8) 0.9150(11) 0.1785(2)
C12_2 C 0.1070(8) 0.9686(11) 0.17516(19)
H7 H 0.086251 0.971347 0.162409
C14 C 0.0947(8) 0.8632(10) 0.1616(2)
C15 C 0.0820(8) 0.7672(11) 0.1509(2)
C16 C 0.0479(9) 0.8228(11) 0.1288(2)
C17 C 0.0919(9) 0.7070(11) 0.1535(2)
C18_2 C 0.1123(11) 0.6943(14) 0.1727(2)
H9_2 H 0.126180 0.725643 0.183983
C19_2 C 0.1130(13) 0.6362(15) 0.1760(3)
H10_2 H 0.123790 0.627128 0.189813
C20 C 0.0983(7) 0.5914(9) 0.1596(2)
C21 C 0.0820(13) 0.6043(15) 0.1403(3)
H11 H 0.075496 0.576447 0.128410
C22 C 0.0748(11) 0.6571(14) 0.1379(2)
H12 H 0.056842 0.661115 0.124614
C23 C 0.1050(7) 0.5293(9) 0.1639(2)
C24_2 C 0.1447(9) 0.5286(11) 0.1812(2)
H13_2 H 0.168863 0.566071 0.189989
C25_2 C 0.1470(7) 0.4708(10) 0.18491(19)
H14_2 H 0.173095 0.469717 0.196366
C26_2 C 0.1113(6) 0.4144(8) 0.17189(16)
C27 C 0.0745(7) 0.4183(11) 0.15502(18)
H15 H 0.049888 0.380154 0.146546
C28 C 0.0708(6) 0.4736(8) 0.14958(19)
H16 H 0.047397 0.474796 0.137293
C29_2 C 0.1125(8) 0.3518(10) 0.1776(2)
C30 C 0.0131(9) 0.8255(11) 0.1092(2)
H17 H 0.007883 0.747397 0.092725
C35 C 0.0022(9) 0.8790(11) 0.1074(2)
H20 H 0.013688 0.909470 0.118874
N1 N 0.1033(7) 0.8122(9) 0.16619(17)
N2 N 0.0538(7) 0.7680(9) 0.13160(17)
N3 N 0.0673(7) 0.8688(9) 0.14350(17)
C73_2 C 0.0019(8) 0.7836(13) 0.2416(2)
C74_2 C 0.0320(8) 0.8206(13) 0.2609(2)
H44_2 H 0.043271 0.801681 0.272349
C75_2 C 0.0444(7) 0.8853(11) 0.26237(18)
C76_2 C 0.0265(8) 0.9132(13) 0.2455(2)
H45_2 H 0.033490 0.956209 0.246930
C78_2 C 0.0791(8) 0.9302(13) 0.28263(19)
C79_2 C 0.1260(8) 0.9219(14) 0.2930(2)
H47_2 H 0.133914 0.888038 0.288526
C80_2 C 0.1629(7) 0.9642(11) 0.31026(19)
H48_2 H 0.197668 0.961527 0.316898
C83_2 C 0.0579(8) 0.9778(12) 0.2893(2)
H50_2 H 0.023816 0.981571 0.282535
C43_2 C 0.8194(6) 0.0088(11) 0.04994(17)
H30_2 H 0.872763 0.044863 0.090721
O9_2 O 0.8500(4) 0.0719(7) 0.05323(9)
O14_2 O 0.9203(5) 0.2254(9) 0.05611(13)
H51_2 H 0.923174 0.218509 0.069699
H52_2 H 0.936204 0.265049 0.051359
H7_2 H 0.114904 0.086251 0.995742
C14_2 C 0.2315(6) 0.0947(8) 0.9949(2)
C15_2 C 0.3148(7) 0.0820(8) 0.9842(2)
C16_2 C 0.2251(7) 0.0479(9) 0.9621(2)
C17_2 C 0.3849(7) 0.0919(9) 0.9868(2)
C20_2 C 0.5069(6) 0.0983(7) 0.9929(2)
C21_2 C 0.4777(8) 0.0820(13) 0.9736(3)
H11_2 H 0.499049 0.075496 0.961743
C22_2 C 0.4177(8) 0.0748(11) 0.9712(2)
H12_2 H 0.395727 0.056842 0.957947
C23_2 C 0.5757(6) 0.1050(7) 0.9972(2)
C27_2 C 0.6562(8) 0.0745(7) 0.98835(18)
H15_2 H 0.669734 0.049888 0.979879
C28_2 C 0.5972(6) 0.0708(6) 0.98291(19)
H16_2 H 0.572601 0.047397 0.970626
C30_2 C 0.1876(7) 0.0131(9) 0.9425(2)
H17_2 H 0.260486 0.007883 0.926058
C35_2 C 0.1232(7) 0.0022(9) 0.9407(2)
H20_2 H 0.104218 0.013688 0.952207
N1_2 N 0.2911(5) 0.1033(7) 0.99952(17)
N2_2 N 0.2858(5) 0.0538(7) 0.96493(17)
N3_2 N 0.1985(5) 0.0673(7) 0.97683(17)
Zn4_2 Zn 0.797240(60) 0.000000 1.000000
C2_2 C 0.8518(9) 0.0321(7) 0.93035(17)
C3_2 C 0.8939(9) 0.0994(7) 0.93201(17)
H1_2 H 0.896254 0.121047 0.945163
C4_2 C 0.9330(8) 0.1357(6) 0.91446(18)
H2_2 H 0.958904 0.181834 0.915616
C5_2 C 0.9342(10) 0.1056(7) 0.89574(18)
C6_2 C 0.8906(13) 0.0385(8) 0.89367(15)
H3_2 H 0.886859 0.018074 0.880155
C7_2 C 0.8530(11) 0.0013(7) 0.91064(15)
C8_2 C 0.9854(10) 0.1408(6) 0.87741(18)
C13_2 C 0.9847(11) 0.1107(7) 0.85757(19)
H8_2 H 0.949056 0.068013 0.854992
O1_2 O 0.8122(4) 0.0221(3) 0.96705(9)
C81_2 C 0.9899(11) 0.1351(9) 0.98364(17)
C82_2 C 0.9833(11) 0.0789(9) 0.9736(2)
H49_2 H 0.950962 0.037561 0.979010
H33_3 H 0.028653 0.913749 0.004258
C56_3 C 0.1368(10) 0.9053(8) 0.0051(2)
C57_3 C 0.2328(11) 0.9180(8) 0.0158(2)
C58_3 C 0.1772(11) 0.9521(9) 0.0379(2)
C59_3 C 0.2930(11) 0.9081(9) 0.0132(2)
C62_3 C 0.4086(9) 0.9017(7) 0.0071(2)
C63_3 C 0.3957(15) 0.9180(13) 0.0264(3)
H37_3 H 0.423553 0.924504 0.038257
C64_3 C 0.3429(14) 0.9252(11) 0.0288(2)
H38_3 H 0.338885 0.943158 0.042053
C65_3 C 0.4707(9) 0.8950(7) 0.0028(2)
C69_3 C 0.5817(11) 0.9255(7) 0.01165(18)
H41_3 H 0.619846 0.950112 0.020121
C70_3 C 0.5264(8) 0.9292(6) 0.01709(19)
H42_3 H 0.525204 0.952603 0.029374
C72_3 C 0.1745(11) 0.9869(9) 0.0575(2)
H43_3 H 0.252603 0.992117 0.073942
C77_3 C 0.1210(11) 0.9978(9) 0.0593(2)
H46_3 H 0.090530 0.986312 0.047793
N4_3 N 0.1878(9) 0.8967(7) 0.00048(17)
N5_3 N 0.2320(9) 0.9462(7) 0.03507(17)
N6_3 N 0.1312(9) 0.9327(7) 0.02317(17)
Zn4_3 Zn 0.797240(60) 1.000000 0.000000
Zn1_2 Zn 1.000000 0.20276(6) 0.166667
Zn2 Zn 0.85619(7) 0.12622(6) 0.13349(2)
C1_3 C 0.9912(7) 0.1806(6) 0.11673(17)
H4_3 H 0.955137 0.127237 0.075946
O2_3 O 0.9281(4) 0.1500(4) 0.11344(9)
O7_3 O 0.7746(5) 0.0797(5) 0.11056(13)
H25_3 H 0.781491 0.076826 0.096968
H26_3 H 0.734951 0.063796 0.115308
O15 O 0.9779(3) 0.1878(4) 0.19961(9)
O17 O 0.8487(4) 0.2014(4) 0.14064(14)
O19 O 0.9299(4) 0.2287(4) 0.16603(12)
O20 O 0.8241(6) 0.0535(3) 0.15478(12)
O22 O 0.9327(6) 0.1050(4) 0.15947(13)
O15_2 O 0.7901(5) 0.9779(3) 0.03295(9)
C39_3 C 0.8649(9) 0.0101(5) 0.18302(17)
C40_3 C 0.9211(9) 0.0167(5) 0.1930(2)
H23_3 H 0.962439 0.049038 0.187656
C42_3 C 0.8723(8) 0.0594(6) 0.16542(17)
C44_3 C 0.9679(11) 0.1482(9) 0.23631(17)
C45_3 C 0.9006(11) 0.1061(9) 0.23465(17)
H27_3 H 0.878953 0.103746 0.221503
C46_3 C 0.8643(10) 0.0670(8) 0.25220(18)
H28_3 H 0.818166 0.041096 0.251050
C47_3 C 0.8944(12) 0.0658(10) 0.27092(18)
C48_3 C 0.9615(16) 0.1094(13) 0.27299(15)
H29_3 H 0.981926 0.113141 0.286511
C49_3 C 0.9987(14) 0.1470(11) 0.25602(15)
C50_3 C 0.8592(13) 0.0146(10) 0.28925(18)
C55_3 C 0.8893(14) 0.0153(11) 0.30909(19)
H34_3 H 0.931987 0.050944 0.311674
C31_3 C 0.9981(8) 0.7817(10) 0.0918(2)
C32_3 C 0.9680(8) 0.7886(10) 0.0725(2)
H18_3 H 0.956729 0.758410 0.060985
C33_3 C 0.9556(7) 0.8409(9) 0.07097(18)
C34_3 C 0.9735(8) 0.8867(10) 0.0879(2)
H19_3 H 0.966510 0.922719 0.086404
C36_3 C 0.9209(8) 0.8511(10) 0.05071(19)
C37_3 C 0.8740(8) 0.7959(11) 0.0404(2)
H21_3 H 0.866086 0.754124 0.044808
C38_3 C 0.8371(7) 0.8013(9) 0.02308(19)
H22_3 H 0.802332 0.763859 0.016436
C39_4 C 0.8548(7) 0.8649(9) 0.01636(17)
C40_4 C 0.9044(7) 0.9211(9) 0.0264(2)
H23_4 H 0.913401 0.962439 0.020990
C41_3 C 0.9421(8) 0.9199(9) 0.0441(2)
H24_3 H 0.976184 0.957755 0.050799
C44_4 C 0.8197(6) 0.9679(11) 0.06965(17)
C45_4 C 0.7945(6) 0.9006(11) 0.06799(17)
H27_4 H 0.775207 0.878953 0.054837
C46_4 C 0.7973(6) 0.8643(10) 0.08554(18)
H28_4 H 0.777070 0.818166 0.084384
C47_4 C 0.8286(7) 0.8944(12) 0.10426(18)
C48_4 C 0.8521(10) 0.9615(16) 0.10633(15)
H29_4 H 0.868785 0.981926 0.119845
C49_4 C 0.8517(9) 0.9987(14) 0.08936(15)
C50_4 C 0.8446(8) 0.8592(13) 0.12259(18)
C51_3 C 0.8333(8) 0.7957(13) 0.1195(2)
H31_3 H 0.810151 0.771546 0.107043
C52_3 C 0.8571(8) 0.7666(13) 0.1352(2)
H32_3 H 0.856419 0.727112 0.131735
C53_3 C 0.8806(8) 0.7956(14) 0.1549(2)
C54_3 C 0.8930(8) 0.8616(14) 0.15818(19)
H33_4 H 0.913749 0.885096 0.170925
C55_4 C 0.8740(9) 0.8893(14) 0.14243(19)
H34_4 H 0.881043 0.931987 0.145008
C56_4 C 0.9053(8) 0.7685(13) 0.1718(2)
C57_4 C 0.9180(8) 0.6852(14) 0.1825(2)
C58_4 C 0.9521(9) 0.7749(14) 0.2046(2)
C59_4 C 0.9081(9) 0.6151(14) 0.1799(2)
C60_3 C 0.8877(11) 0.5820(18) 0.1607(2)
H35_3 H 0.873820 0.599463 0.149351
C61_3 C 0.8870(13) 0.5232(20) 0.1574(3)
H36_3 H 0.876210 0.503338 0.143521
C62_4 C 0.9017(7) 0.4931(11) 0.1738(2)
C63_4 C 0.9180(13) 0.5223(20) 0.1931(3)
H37_4 H 0.924504 0.500951 0.204924
C64_4 C 0.9252(11) 0.5823(18) 0.1955(2)
H38_4 H 0.943158 0.604273 0.208720
C65_4 C 0.8950(7) 0.4243(11) 0.1695(2)
C66_3 C 0.8553(9) 0.3839(14) 0.1522(2)
H39_3 H 0.831137 0.397208 0.143345
C67_3 C 0.8530(7) 0.3238(12) 0.14843(19)
H40_3 H 0.826905 0.296622 0.136968
C68_3 C 0.8887(6) 0.3031(10) 0.16145(16)
C69_4 C 0.9255(7) 0.3438(13) 0.17832(18)
H41_4 H 0.950112 0.330266 0.186788
C70_4 C 0.9292(6) 0.4028(10) 0.18376(19)
H42_4 H 0.952603 0.427399 0.196041
C71_3 C 0.8875(8) 0.2393(13) 0.1558(2)
C72_4 C 0.9869(9) 0.8124(14) 0.2242(2)
H43_4 H 0.992117 0.739514 0.240609
C77_4 C 0.9978(9) 0.8768(14) 0.2260(2)
H46_4 H 0.986312 0.895782 0.214460
N4_4 N 0.8967(7) 0.7089(11) 0.16715(17)
N5_4 N 0.9462(7) 0.7142(11) 0.20174(17)
N6_4 N 0.9327(7) 0.8015(11) 0.18984(17)
C31_4 C 0.2164(6) 0.9981(8) 0.9251(2)
C32_4 C 0.1794(6) 0.9680(8) 0.9058(2)
H18_4 H 0.198319 0.956729 0.894318
C33_4 C 0.1147(6) 0.9556(7) 0.90430(18)
C34_4 C 0.0868(6) 0.9735(8) 0.9212(2)
H19_4 H 0.043791 0.966510 0.919737
C36_4 C 0.0698(6) 0.9209(8) 0.88404(19)
C37_4 C 0.0781(7) 0.8740(8) 0.8737(2)
H21_4 H 0.111962 0.866086 0.878141
C38_4 C 0.0358(6) 0.8371(7) 0.85641(19)
H22_4 H 0.038473 0.802332 0.849769
C41_4 C 0.0222(5) 0.9421(8) 0.8774(2)
H24_4 H 0.018429 0.976184 0.884132
C51_4 C 0.0376(10) 0.8333(8) 0.9528(2)
H31_4 H 0.038605 0.810151 0.940376
C52_4 C 0.0905(10) 0.8571(8) 0.9685(2)
H32_4 H 0.129307 0.856419 0.965068
C53_4 C 0.0850(11) 0.8806(8) 0.9882(2)
C54_4 C 0.0314(11) 0.8930(8) 0.99151(19)
C60_4 C 0.3057(14) 0.8877(11) 0.9940(2)
H35_4 H 0.274357 0.873820 0.982684
C61_4 C 0.3638(15) 0.8870(13) 0.9907(3)
H36_4 H 0.372872 0.876210 0.976854
C66_4 C 0.4714(11) 0.8553(9) 0.9855(2)
H39_4 H 0.433929 0.831137 0.976678
C67_4 C 0.5292(10) 0.8530(7) 0.98176(19)
H40_4 H 0.530283 0.826905 0.970301
C68_4 C 0.5856(8) 0.8887(6) 0.99478(16)
C71_4 C 0.6482(10) 0.8875(8) 0.9891(2)
O10_3 O 0.6473(6) 0.8487(4) 0.97397(14)
O11_3 O 0.7012(6) 0.9299(4) 0.99936(12)
Zn4_4 Zn 0.797240(60) 1.000000 1.000000
Zn6 Zn 0.72997(9) 0.85619(7) 0.96682(2)
C1_4 C 0.8106(9) 0.9912(7) 0.95006(17)
H4_4 H 0.827900 0.955137 0.909279
O2_4 O 0.7781(6) 0.9281(4) 0.94677(9)
O7_4 O 0.6949(7) 0.7746(5) 0.94389(13)
H25_4 H 0.704665 0.781491 0.930301
H26_4 H 0.671155 0.734951 0.948641
Zn3 Zn 0.85619(11) 0.72997(9) 0.69984(2)
C43_3 C 0.9912(11) 0.8106(9) 0.71660(17)
H30_3 H 0.955137 0.827900 0.757387
O9_3 O 0.9281(7) 0.7781(6) 0.71989(9)
O14_3 O 0.7746(9) 0.6949(7) 0.72277(13)
H51_3 H 0.781491 0.704665 0.736365
H52_3 H 0.734951 0.671155 0.718025
Zn5_3 Zn 1.000000(85) 0.79724(6) 0.666667
O16_2 O 0.8487(7) 0.6473(6) 0.69270(14)
O20_2 O 0.7706(7) 0.8241(6) 0.98812(12)
O21 O 0.8241(6) 0.7706(5) 0.67855(12)
O22_2 O 0.8277(7) 0.9327(6) 0.99281(13)
Zn3_2 Zn 0.12622(6) 0.85619(11) 0.53318(2)
C43_4 C 0.1806(6) 0.9912(11) 0.54994(17)
H30_4 H 0.127237 0.955137 0.590721
O9_4 O 0.1500(4) 0.9281(7) 0.55323(9)
O14_4 O 0.0797(5) 0.7746(9) 0.55611(13)
H51_4 H 0.076826 0.781491 0.569699
H52_4 H 0.063796 0.734951 0.551359
Zn5_4 Zn 0.202760(60) 1.000000(85) 0.500000
O16_3 O 0.2014(4) 0.8487(7) 0.52603(14)
O21_2 O 0.0535(3) 0.8241(6) 0.51188(12)
C9_3 C 0.8333(8) 0.0376(10) 0.7139(2)
H5_3 H 0.810151 0.038605 0.726291
C10_3 C 0.8571(8) 0.0905(10) 0.6982(2)
H6_3 H 0.856419 0.129307 0.701599
C11_3 C 0.8806(8) 0.0850(11) 0.6785(2)
C12_3 C 0.8930(8) 0.0314(11) 0.67516(19)
H7_3 H 0.913749 0.028653 0.662409
C14_3 C 0.9053(8) 0.1368(10) 0.6616(2)
C15_3 C 0.9180(8) 0.2328(11) 0.6509(2)
C16_3 C 0.9521(9) 0.1772(11) 0.6288(2)
C17_3 C 0.9081(9) 0.2930(11) 0.6535(2)
C18_3 C 0.8877(11) 0.3057(14) 0.6727(2)
H9_3 H 0.873820 0.274357 0.683983
C19_3 C 0.8870(13) 0.3638(15) 0.6760(3)
H10_3 H 0.876210 0.372872 0.689813
C20_3 C 0.9017(7) 0.4086(9) 0.6596(2)
C21_3 C 0.9180(13) 0.3957(15) 0.6403(3)
H11_3 H 0.924504 0.423553 0.628410
C22_3 C 0.9252(11) 0.3429(14) 0.6379(2)
H12_3 H 0.943158 0.338885 0.624614
C23_3 C 0.8950(7) 0.4707(9) 0.6639(2)
C24_3 C 0.8553(9) 0.4714(11) 0.6812(2)
H13_3 H 0.831137 0.433929 0.689989
C25_3 C 0.8530(7) 0.5292(10) 0.68491(19)
H14_3 H 0.826905 0.530283 0.696366
C26_3 C 0.8887(6) 0.5856(8) 0.67189(16)
C27_3 C 0.9255(7) 0.5817(11) 0.65502(18)
H15_3 H 0.950112 0.619846 0.646546
C28_3 C 0.9292(6) 0.5264(8) 0.64958(19)
H16_3 H 0.952603 0.525204 0.637293
C29_3 C 0.8875(8) 0.6482(10) 0.6776(2)
C30_3 C 0.9869(9) 0.1745(11) 0.6092(2)
H17_3 H 0.992117 0.252603 0.592725
C35_3 C 0.9978(9) 0.1210(11) 0.6074(2)
H20_3 H 0.986312 0.090530 0.618874
N1_3 N 0.8967(7) 0.1878(9) 0.66619(17)
N2_3 N 0.9462(7) 0.2320(9) 0.63160(17)
N3_3 N 0.9327(7) 0.1312(9) 0.64350(17)
O4_2 O 0.9299(4) 0.7012(6) 0.66731(12)
C73_3 C 0.9981(8) 0.2164(13) 0.7416(2)
C74_3 C 0.9680(8) 0.1794(13) 0.7609(2)
H44_3 H 0.956729 0.198319 0.772349
C75_3 C 0.9556(7) 0.1147(11) 0.76237(18)
C76_3 C 0.9735(8) 0.0868(13) 0.7455(2)
H45_3 H 0.966510 0.043791 0.746930
C78_3 C 0.9209(8) 0.0698(13) 0.78263(19)
C79_3 C 0.8740(8) 0.0781(14) 0.7930(2)
H47_3 H 0.866086 0.111962 0.788526
C80_3 C 0.8371(7) 0.0358(11) 0.81026(19)
H48_3 H 0.802332 0.038473 0.816898
C83_3 C 0.9421(8) 0.0222(12) 0.7893(2)
H50_3 H 0.976184 0.018429 0.782535
C2_3 C 0.9679(7) 0.8197(6) 0.59702(17)
C3_3 C 0.9006(7) 0.7945(6) 0.59868(17)
H1_3 H 0.878953 0.775207 0.611830
C4_3 C 0.8643(6) 0.7973(6) 0.58113(18)
H2_3 H 0.818166 0.777070 0.582283
C5_3 C 0.8944(7) 0.8286(7) 0.56241(18)
C6_3 C 0.9615(8) 0.8521(10) 0.56034(15)
H3_3 H 0.981926 0.868785 0.546822
C7_3 C 0.9987(7) 0.8517(9) 0.57731(15)
C8_3 C 0.8592(6) 0.8446(8) 0.54408(18)
C9_4 C 0.7957(6) 0.8333(8) 0.5472(2)
H5_4 H 0.771546 0.810151 0.559624
C10_4 C 0.7666(6) 0.8571(8) 0.5315(2)
H6_4 H 0.727112 0.856419 0.534932
C11_4 C 0.7956(7) 0.8806(8) 0.5118(2)
C12_4 C 0.8616(7) 0.8930(8) 0.50849(19)
H7_4 H 0.885096 0.913749 0.495742
C13_3 C 0.8893(7) 0.8740(9) 0.52424(19)
H8_3 H 0.931987 0.881043 0.521659
C14_4 C 0.7685(6) 0.9053(8) 0.4949(2)
C15_4 C 0.6852(7) 0.9180(8) 0.4842(2)
C16_4 C 0.7749(7) 0.9521(9) 0.4621(2)
C17_4 C 0.6151(7) 0.9081(9) 0.4868(2)
C18_4 C 0.5820(8) 0.8877(11) 0.5060(2)
H9_4 H 0.599463 0.873820 0.517316
C19_4 C 0.5232(8) 0.8870(13) 0.5093(3)
H10_4 H 0.503338 0.876210 0.523146
C20_4 C 0.4931(6) 0.9017(7) 0.4929(2)
C21_4 C 0.5223(8) 0.9180(13) 0.4736(3)
H11_4 H 0.500951 0.924504 0.461743
C22_4 C 0.5823(8) 0.9252(11) 0.4712(2)
H12_4 H 0.604273 0.943158 0.457947
C23_4 C 0.4243(6) 0.8950(7) 0.4972(2)
C24_4 C 0.3839(7) 0.8553(9) 0.5145(2)
H13_4 H 0.397208 0.831137 0.523322
C25_4 C 0.3238(7) 0.8530(7) 0.51824(19)
H14_4 H 0.296622 0.826905 0.529699
C26_4 C 0.3031(6) 0.8887(6) 0.50522(16)
C27_4 C 0.3438(8) 0.9255(7) 0.48835(18)
H15_4 H 0.330266 0.950112 0.479879
C28_4 C 0.4028(6) 0.9292(6) 0.48291(19)
H16_4 H 0.427399 0.952603 0.470626
C29_4 C 0.2393(6) 0.8875(8) 0.5109(2)
C30_4 C 0.8124(7) 0.9869(9) 0.4425(2)
H17_4 H 0.739514 0.992117 0.426058
C35_4 C 0.8768(7) 0.9978(9) 0.4407(2)
H20_4 H 0.895782 0.986312 0.452207
N1_4 N 0.7089(5) 0.8967(7) 0.49952(17)
N2_4 N 0.7142(5) 0.9462(7) 0.46493(17)
N3_4 N 0.8015(5) 0.9327(7) 0.47683(17)
O1_3 O 0.9779(3) 0.7901(3) 0.63372(9)
O4_3 O 0.2287(4) 0.9299(4) 0.50064(12)
C73_4 C 0.7817(10) 0.9981(8) 0.5749(2)
C74_4 C 0.7886(10) 0.9680(8) 0.5942(2)
H44_4 H 0.758410 0.956729 0.605682
C75_4 C 0.8409(9) 0.9556(7) 0.59570(18)
C76_4 C 0.8867(10) 0.9735(8) 0.5788(2)
H45_4 H 0.922719 0.966510 0.580263
C78_4 C 0.8511(10) 0.9209(8) 0.61596(19)
C79_4 C 0.7959(11) 0.8740(8) 0.6263(2)
H47_4 H 0.754124 0.866086 0.621859
C80_4 C 0.8013(9) 0.8371(7) 0.64359(19)
H48_4 H 0.763859 0.802332 0.650231
C81_3 C 0.8649(9) 0.8548(7) 0.65031(17)
C82_3 C 0.9211(9) 0.9044(7) 0.6403(2)
H49_3 H 0.962439 0.913401 0.645677
C83_4 C 0.9199(9) 0.9421(8) 0.6226(2)
H50_4 H 0.957755 0.976184 0.615868
C84_3 C 0.8723(8) 0.8129(6) 0.66791(17)
O13_3 O 0.9327(6) 0.8277(5) 0.67386(13)
C2_4 C 0.1482(9) 0.9679(7) 0.43035(17)
C3_4 C 0.1061(9) 0.9006(7) 0.43201(17)
H1_4 H 0.103746 0.878953 0.445163
C4_4 C 0.0670(8) 0.8643(6) 0.41446(18)
H2_4 H 0.041096 0.818166 0.415616
C5_4 C 0.0658(10) 0.8944(7) 0.39574(18)
C6_4 C 0.1094(13) 0.9615(8) 0.39367(15)
H3_4 H 0.113141 0.981926 0.380155
C7_4 C 0.1470(11) 0.9987(7) 0.41064(15)
C8_4 C 0.0146(10) 0.8592(6) 0.37741(18)
C13_4 C 0.0153(11) 0.8893(7) 0.35757(19)
H8_4 H 0.050944 0.931987 0.354992
O1_4 O 0.1878(4) 0.9779(3) 0.46705(9)
C81_4 C 0.0101(11) 0.8649(9) 0.48364(17)
C82_4 C 0.0167(11) 0.9211(9) 0.4736(2)
H49_4 H 0.049038 0.962439 0.479010
C84_4 C 0.0594(10) 0.8723(8) 0.50124(17)
O13_4 O 0.1050(8) 0.9327(6) 0.50719(13)
C42_4 C 0.8129(6) 0.8723(8) 0.99876(17)
C39_5 C 0.9899(5) 0.8548(7) 0.84969(17)
C40_5 C 0.9833(5) 0.9044(7) 0.8597(2)
H23_5 H 0.950962 0.913401 0.854323
C42_5 C 0.9406(6) 0.8129(6) 0.83209(17)
O5_3 O 0.9465(3) 0.7706(5) 0.82145(12)
O6_3 O 0.8950(4) 0.8277(5) 0.82614(13)
Zn3_3 Zn 0.72997(9) 0.87378(6) 0.86651(2)
C43_5 C 0.8106(9) 0.8194(6) 0.88327(17)
C44_5 C 0.8518(9) 0.8197(6) 0.90298(17)
C45_5 C 0.8939(9) 0.7945(6) 0.90132(17)
H27_5 H 0.896254 0.775207 0.888170
C46_5 C 0.9330(8) 0.7973(6) 0.91887(18)
H28_5 H 0.958904 0.777070 0.917717
C47_5 C 0.9342(10) 0.8286(7) 0.93759(18)
C48_5 C 0.8906(13) 0.8521(10) 0.93966(15)
H29_5 H 0.886859 0.868785 0.953178
C49_5 C 0.8530(11) 0.8517(9) 0.92269(15)
H30_5 H 0.827900 0.872763 0.924054
C50_5 C 0.9854(10) 0.8446(8) 0.95592(18)
C55_5 C 0.9847(11) 0.8740(9) 0.97576(19)
H34_5 H 0.949056 0.881043 0.978341
O8_3 O 0.8122(4) 0.7901(3) 0.86628(9)
O9_5 O 0.7781(6) 0.8500(4) 0.88656(9)
O14_5 O 0.6949(7) 0.9203(5) 0.88944(13)
H51_5 H 0.704665 0.923174 0.903032
H52_5 H 0.671155 0.936204 0.884692
Zn5_5 Zn 0.79724(6) 0.797240(60) 0.833334
Zn7_3 Zn 0.87378(6) 0.72997(9) 0.80016(2)
O16_4 O 0.6473(6) 0.7986(4) 0.85936(14)
O21_3 O 0.7706(5) 0.9465(3) 0.84522(12)
C9_5 C 0.0376(10) 0.2043(6) 0.8805(2)
H5_5 H 0.038605 0.228454 0.892957
C10_5 C 0.0905(10) 0.2334(6) 0.8648(2)
H6_5 H 0.129307 0.272888 0.868265
C11_5 C 0.0850(11) 0.2044(7) 0.8451(2)
C12_5 C 0.0314(11) 0.1384(7) 0.84182(19)
H7_5 H 0.028653 0.114904 0.829075
C14_5 C 0.1368(10) 0.2315(6) 0.8282(2)
C15_5 C 0.2328(11) 0.3148(7) 0.8175(2)
C16_5 C 0.1772(11) 0.2251(7) 0.7954(2)
C17_5 C 0.2930(11) 0.3849(7) 0.8201(2)
C18_5 C 0.3057(14) 0.4180(8) 0.8393(2)
H9_5 H 0.274357 0.400537 0.850649
C19_5 C 0.3638(15) 0.4768(8) 0.8426(3)
H10_5 H 0.372872 0.496662 0.856479
C20_5 C 0.4086(9) 0.5069(6) 0.8262(2)
C21_5 C 0.3957(15) 0.4777(8) 0.8069(3)
H11_5 H 0.423553 0.499049 0.795076
C22_5 C 0.3429(14) 0.4177(8) 0.8045(2)
H12_5 H 0.338885 0.395727 0.791280
C23_5 C 0.4707(9) 0.5757(6) 0.8305(2)
C24_5 C 0.4714(11) 0.6161(7) 0.8478(2)
H13_5 H 0.433929 0.602792 0.856655
C25_5 C 0.5292(10) 0.6762(7) 0.85157(19)
H14_5 H 0.530283 0.703378 0.863032
C26_5 C 0.5856(8) 0.6969(6) 0.83855(16)
C27_5 C 0.5817(11) 0.6562(8) 0.82168(18)
H15_5 H 0.619846 0.669734 0.813212
C28_5 C 0.5264(8) 0.5972(6) 0.81624(19)
H16_5 H 0.525204 0.572601 0.803959
C29_5 C 0.6482(10) 0.7607(6) 0.8442(2)
C30_5 C 0.1745(11) 0.1876(7) 0.7758(2)
C31_5 C 0.2183(10) 0.2164(6) 0.7584(2)
H17_5 H 0.252603 0.260486 0.759391
C32_5 C 0.2114(10) 0.1794(6) 0.7391(2)
H18_5 H 0.241590 0.198319 0.727651
C33_5 C 0.1591(9) 0.1147(6) 0.73763(18)
C34_5 C 0.1133(10) 0.0868(6) 0.7545(2)
H19_5 H 0.077281 0.043791 0.753070
C35_5 C 0.1210(11) 0.1232(7) 0.7740(2)
H20_5 H 0.090530 0.104218 0.785540
C36_5 C 0.1489(10) 0.0698(6) 0.71737(19)
C37_5 C 0.2041(11) 0.0781(7) 0.7070(2)
H21_5 H 0.245876 0.111962 0.711474
C38_5 C 0.1987(9) 0.0358(6) 0.68974(19)
H22_5 H 0.236141 0.038473 0.683102
C41_5 C 0.0801(9) 0.0222(5) 0.7107(2)
H24_5 H 0.042245 0.018429 0.717465
N1_5 N 0.1878(9) 0.2911(5) 0.83285(17)
N2_5 N 0.2320(9) 0.2858(5) 0.79826(17)
N3_5 N 0.1312(9) 0.1985(5) 0.81016(17)
O4_4 O 0.7012(6) 0.7713(4) 0.83397(12)
C51_5 C 0.2043(13) 0.0376(10) 0.7861(2)
H31_5 H 0.228454 0.038605 0.773709
C52_5 C 0.2334(13) 0.0905(10) 0.8018(2)
H32_5 H 0.272888 0.129307 0.798401
C53_5 C 0.2044(14) 0.0850(11) 0.8215(2)
C54_5 C 0.1384(14) 0.0314(11) 0.82484(19)
H33_5 H 0.114904 0.028653 0.837591
C56_5 C 0.2315(13) 0.1368(10) 0.8384(2)
C57_5 C 0.3148(14) 0.2328(11) 0.8491(2)
C58_5 C 0.2251(14) 0.1772(11) 0.8712(2)
C59_5 C 0.3849(14) 0.2930(11) 0.8465(2)
C60_5 C 0.4180(18) 0.3057(14) 0.8273(2)
H35_5 H 0.400537 0.274357 0.816017
C61_5 C 0.4768(20) 0.3638(15) 0.8240(3)
H36_5 H 0.496662 0.372872 0.810187
C62_5 C 0.5069(11) 0.4086(9) 0.8404(2)
C63_5 C 0.4777(20) 0.3957(15) 0.8597(3)
H37_5 H 0.499049 0.423553 0.871590
C64_5 C 0.4177(18) 0.3429(14) 0.8621(2)
H38_5 H 0.395727 0.338885 0.875386
C65_5 C 0.5757(11) 0.4707(9) 0.8361(2)
C66_5 C 0.6161(14) 0.4714(11) 0.8188(2)
H39_5 H 0.602792 0.433929 0.810011
C67_5 C 0.6762(12) 0.5292(10) 0.81509(19)
H40_5 H 0.703378 0.530283 0.803634
C68_5 C 0.6969(10) 0.5856(8) 0.82811(16)
C69_5 C 0.6562(13) 0.5817(11) 0.84498(18)
H41_5 H 0.669734 0.619846 0.853454
C70_5 C 0.5972(10) 0.5264(8) 0.85042(19)
H42_5 H 0.572601 0.525204 0.862707
C71_5 C 0.7607(13) 0.6482(10) 0.8224(2)
C72_5 C 0.1876(14) 0.1745(11) 0.8908(2)
C73_5 C 0.2164(13) 0.2183(10) 0.9082(2)
H43_5 H 0.260486 0.252603 0.907275
C74_5 C 0.1794(13) 0.2114(10) 0.9275(2)
H44_5 H 0.198319 0.241590 0.939015
C75_5 C 0.1147(11) 0.1591(9) 0.92903(18)
C76_5 C 0.0868(13) 0.1133(10) 0.9121(2)
H45_5 H 0.043791 0.077281 0.913596
C77_5 C 0.1232(14) 0.1210(11) 0.8926(2)
H46_5 H 0.104218 0.090530 0.881126
C78_5 C 0.0698(13) 0.1489(10) 0.94929(19)
C79_5 C 0.0781(14) 0.2041(11) 0.9596(2)
H47_5 H 0.111962 0.245876 0.955192
C80_5 C 0.0358(11) 0.1987(9) 0.97692(19)
H48_5 H 0.038473 0.236141 0.983564
C83_5 C 0.0222(12) 0.0801(9) 0.9559(2)
H50_5 H 0.018429 0.042245 0.949201
N4_5 N 0.2911(11) 0.1878(9) 0.83381(17)
N5_5 N 0.2858(11) 0.2320(9) 0.86840(17)
N6_5 N 0.1985(11) 0.1312(9) 0.85650(17)
O10_4 O 0.7986(7) 0.6473(6) 0.80730(14)
O11_4 O 0.7713(7) 0.7012(6) 0.83269(12)
C1_5 C 0.8194(6) 0.8106(9) 0.78340(17)
C2_5 C 0.8197(6) 0.8518(9) 0.76369(17)
C3_5 C 0.7945(6) 0.8939(9) 0.76535(17)
H1_5 H 0.775207 0.896254 0.778497
C4_5 C 0.7973(6) 0.9330(8) 0.74780(18)
H2_5 H 0.777070 0.958904 0.748950
C5_5 C 0.8286(7) 0.9342(10) 0.72908(18)
C6_5 C 0.8521(10) 0.8906(13) 0.72701(15)
H3_5 H 0.868785 0.886859 0.713489
C7_5 C 0.8517(9) 0.8530(11) 0.74398(15)
H4_5 H 0.872763 0.827900 0.742613
C8_5 C 0.8446(8) 0.9854(10) 0.71075(18)
C13_5 C 0.8740(9) 0.9847(11) 0.69091(19)
H8_5 H 0.881043 0.949056 0.688326
O1_5 O 0.7901(3) 0.8122(4) 0.80039(9)
O2_5 O 0.8500(4) 0.7781(6) 0.78011(9)
O7_5 O 0.9203(5) 0.6949(7) 0.77723(13)
H25_5 H 0.923174 0.704665 0.763635
H26_5 H 0.936204 0.671155 0.781975
C81_5 C 0.8548(7) 0.9899(11) 0.81698(17)
C82_5 C 0.9044(7) 0.9833(11) 0.8070(2)
H49_5 H 0.913401 0.950962 0.812344
C84_5 C 0.8129(6) 0.9406(10) 0.83458(17)
O13_5 O 0.8277(5) 0.8950(8) 0.84053(13)
C39_6 C 0.0101(5) 0.1452(7) 0.34969(17)
C40_6 C 0.0167(5) 0.0956(7) 0.3597(2)
H23_6 H 0.049038 0.086599 0.354323
C42_6 C 0.0594(6) 0.1871(6) 0.33209(17)
O5_4 O 0.0535(3) 0.2294(5) 0.32145(12)
O6_4 O 0.1050(4) 0.1723(5) 0.32614(13)
Zn3_4 Zn 0.27003(9) 0.12622(6) 0.36651(2)
C43_6 C 0.1894(9) 0.1806(6) 0.38327(17)
C44_6 C 0.1482(9) 0.1803(6) 0.40298(17)
C45_6 C 0.1061(9) 0.2055(6) 0.40132(17)
H27_6 H 0.103746 0.224793 0.388170
C46_6 C 0.0670(8) 0.2027(6) 0.41887(18)
H28_6 H 0.041096 0.222930 0.417717
C47_6 C 0.0658(10) 0.1714(7) 0.43759(18)
C48_6 C 0.1094(13) 0.1479(10) 0.43966(15)
H29_6 H 0.113141 0.131215 0.453178
C49_6 C 0.1470(11) 0.1483(9) 0.42269(15)
H30_6 H 0.172100 0.127237 0.424054
C50_6 C 0.0146(10) 0.1554(8) 0.45592(18)
C55_6 C 0.0153(11) 0.1260(9) 0.47576(19)
H34_6 H 0.050944 0.118957 0.478341
O8_4 O 0.1878(4) 0.2099(3) 0.36628(9)
O9_6 O 0.2219(6) 0.1500(4) 0.38656(9)
O14_6 O 0.3051(7) 0.0797(5) 0.38944(13)
H51_6 H 0.295335 0.076826 0.403032
H52_6 H 0.328845 0.063796 0.384692
Zn5_6 Zn 0.20276(6) 0.202760(60) 0.333334
Zn7_4 Zn 0.12622(6) 0.27003(9) 0.30016(2)
O16_5 O 0.3527(6) 0.2014(4) 0.35936(14)
O21_4 O 0.2294(5) 0.0535(3) 0.34522(12)
C9_6 C 0.9624(10) 0.7957(6) 0.3805(2)
H5_6 H 0.961395 0.771546 0.392957
C10_6 C 0.9095(10) 0.7666(6) 0.3648(2)
H6_6 H 0.870693 0.727112 0.368265
C11_6 C 0.9150(11) 0.7956(7) 0.3451(2)
C12_6 C 0.9686(11) 0.8616(7) 0.34182(19)
H7_6 H 0.971347 0.885096 0.329075
C14_6 C 0.8632(10) 0.7685(6) 0.3282(2)
C15_6 C 0.7672(11) 0.6852(7) 0.3175(2)
C16_6 C 0.8228(11) 0.7749(7) 0.2954(2)
C17_6 C 0.7070(11) 0.6151(7) 0.3201(2)
C18_6 C 0.6943(14) 0.5820(8) 0.3393(2)
H9_6 H 0.725643 0.599463 0.350649
C19_6 C 0.6362(15) 0.5232(8) 0.3426(3)
H10_6 H 0.627128 0.503338 0.356479
C20_6 C 0.5914(9) 0.4931(6) 0.3262(2)
C21_6 C 0.6043(15) 0.5223(8) 0.3069(3)
H11_6 H 0.576447 0.500951 0.295076
C22_6 C 0.6571(14) 0.5823(8) 0.3045(2)
H12_6 H 0.661115 0.604273 0.291280
C23_6 C 0.5293(9) 0.4243(6) 0.3305(2)
C24_6 C 0.5286(11) 0.3839(7) 0.3478(2)
H13_6 H 0.566071 0.397208 0.356655
C25_6 C 0.4708(10) 0.3238(7) 0.35157(19)
H14_6 H 0.469717 0.296622 0.363032
C26_6 C 0.4144(8) 0.3031(6) 0.33855(16)
C27_6 C 0.4183(11) 0.3438(8) 0.32168(18)
H15_6 H 0.380154 0.330266 0.313212
C28_6 C 0.4736(8) 0.4028(6) 0.31624(19)
H16_6 H 0.474796 0.427399 0.303959
C29_6 C 0.3518(10) 0.2393(6) 0.3442(2)
C30_6 C 0.8255(11) 0.8124(7) 0.2758(2)
C31_6 C 0.7817(10) 0.7836(6) 0.2584(2)
H17_6 H 0.747397 0.739514 0.259391
C32_6 C 0.7886(10) 0.8206(6) 0.2391(2)
H18_6 H 0.758410 0.801681 0.227651
C33_6 C 0.8409(9) 0.8853(6) 0.23763(18)
C34_6 C 0.8867(10) 0.9132(6) 0.2545(2)
H19_6 H 0.922719 0.956209 0.253070
C35_6 C 0.8790(11) 0.8768(7) 0.2740(2)
H20_6 H 0.909470 0.895782 0.285540
C36_6 C 0.8511(10) 0.9302(6) 0.21737(19)
C37_6 C 0.7959(11) 0.9219(7) 0.2070(2)
H21_6 H 0.754124 0.888038 0.211474
C38_6 C 0.8013(9) 0.9642(6) 0.18974(19)
H22_6 H 0.763859 0.961527 0.183102
C41_6 C 0.9199(9) 0.9778(5) 0.2107(2)
H24_6 H 0.957755 0.981571 0.217465
N1_6 N 0.8122(9) 0.7089(5) 0.33285(17)
N2_6 N 0.7680(9) 0.7142(5) 0.29826(17)
N3_6 N 0.8688(9) 0.8015(5) 0.31016(17)
O4_5 O 0.2988(6) 0.2287(4) 0.33397(12)
C51_6 C 0.7957(13) 0.9624(10) 0.2861(2)
H31_6 H 0.771546 0.961395 0.273709
C52_6 C 0.7666(13) 0.9095(10) 0.3018(2)
H32_6 H 0.727112 0.870693 0.298401
C53_6 C 0.7956(14) 0.9150(11) 0.3215(2)
C54_6 C 0.8616(14) 0.9686(11) 0.32484(19)
H33_6 H 0.885096 0.971347 0.337591
C56_6 C 0.7685(13) 0.8632(10) 0.3384(2)
C57_6 C 0.6852(14) 0.7672(11) 0.3491(2)
C58_6 C 0.7749(14) 0.8228(11) 0.3712(2)
C59_6 C 0.6151(14) 0.7070(11) 0.3465(2)
C60_6 C 0.5820(18) 0.6943(14) 0.3273(2)
H35_6 H 0.599463 0.725643 0.316017
C61_6 C 0.5232(20) 0.6362(15) 0.3240(3)
H36_6 H 0.503338 0.627128 0.310187
C62_6 C 0.4931(11) 0.5914(9) 0.3404(2)
C63_6 C 0.5223(20) 0.6043(15) 0.3597(3)
H37_6 H 0.500951 0.576447 0.371590
C64_6 C 0.5823(18) 0.6571(14) 0.3621(2)
H38_6 H 0.604273 0.661115 0.375386
C65_6 C 0.4243(11) 0.5293(9) 0.3361(2)
C66_6 C 0.3839(14) 0.5286(11) 0.3188(2)
H39_6 H 0.397208 0.566071 0.310011
C67_6 C 0.3238(12) 0.4708(10) 0.31509(19)
H40_6 H 0.296622 0.469717 0.303634
C68_6 C 0.3031(10) 0.4144(8) 0.32811(16)
C69_6 C 0.3438(13) 0.4183(11) 0.34498(18)
H41_6 H 0.330266 0.380154 0.353454
C70_6 C 0.4028(10) 0.4736(8) 0.35042(19)
H42_6 H 0.427399 0.474796 0.362707
C71_6 C 0.2393(13) 0.3518(10) 0.3224(2)
C72_6 C 0.8124(14) 0.8255(11) 0.3908(2)
C73_6 C 0.7836(13) 0.7817(10) 0.4082(2)
H43_6 H 0.739514 0.747397 0.407275
C74_6 C 0.8206(13) 0.7886(10) 0.4275(2)
H44_6 H 0.801681 0.758410 0.439015
C75_6 C 0.8853(11) 0.8409(9) 0.42903(18)
C76_6 C 0.9132(13) 0.8867(10) 0.4121(2)
H45_6 H 0.956209 0.922719 0.413596
C77_6 C 0.8768(14) 0.8790(11) 0.3926(2)
H46_6 H 0.895782 0.909470 0.381126
C78_6 C 0.9302(13) 0.8511(10) 0.44929(19)
C79_6 C 0.9219(14) 0.7959(11) 0.4596(2)
H47_6 H 0.888038 0.754124 0.455192
C80_6 C 0.9642(11) 0.8013(9) 0.47692(19)
H48_6 H 0.961527 0.763859 0.483564
C83_6 C 0.9778(12) 0.9199(9) 0.4559(2)
H50_6 H 0.981571 0.957755 0.449201
N4_6 N 0.7089(11) 0.8122(9) 0.33381(17)
N5_6 N 0.7142(11) 0.7680(9) 0.36840(17)
N6_6 N 0.8015(11) 0.8688(9) 0.35650(17)
O10_5 O 0.2014(7) 0.3527(6) 0.30730(14)
O11_5 O 0.2287(7) 0.2988(6) 0.33269(12)
C1_6 C 0.1806(6) 0.1894(9) 0.28340(17)
C2_6 C 0.1803(6) 0.1482(9) 0.26369(17)
C3_6 C 0.2055(6) 0.1061(9) 0.26535(17)
H1_6 H 0.224793 0.103746 0.278497
C4_6 C 0.2027(6) 0.0670(8) 0.24780(18)
H2_6 H 0.222930 0.041096 0.248950
C5_6 C 0.1714(7) 0.0658(10) 0.22908(18)
C6_6 C 0.1479(10) 0.1094(13) 0.22701(15)
H3_6 H 0.131215 0.113141 0.213489
C7_6 C 0.1483(9) 0.1470(11) 0.24398(15)
H4_6 H 0.127237 0.172100 0.242613
C8_6 C 0.1554(8) 0.0146(10) 0.21075(18)
C13_6 C 0.1260(9) 0.0153(11) 0.19091(19)
H8_6 H 0.118957 0.050944 0.188326
O1_6 O 0.2099(3) 0.1878(4) 0.30039(9)
O2_6 O 0.1500(4) 0.2219(6) 0.28011(9)
O7_6 O 0.0797(5) 0.3051(7) 0.27723(13)
H25_6 H 0.076826 0.295335 0.263635
H26_6 H 0.063796 0.328845 0.281975
C81_6 C 0.1452(7) 0.0101(11) 0.31698(17)
C82_6 C 0.0956(7) 0.0167(11) 0.3070(2)
H49_6 H 0.086599 0.049038 0.312344
C84_6 C 0.1871(6) 0.0594(10) 0.33458(17)
O13_6 O 0.1723(5) 0.1050(8) 0.34053(13)
loop_
_geom_bond_atom_site_label_1
_geom_bond_atom_site_label_2
_geom_bond_site_symmetry_1
_geom_bond_site_symmetry_2
Zn1 O1 1_555 1_555
C2 C3 1_555 1_555
C3 H1 1_555 1_555
C4 C3 1_555 1_555
H2 C4 1_555 1_555
C5 C4 1_555 1_555
C6 C5 1_555 1_555
H3 C6 1_555 1_555
C7 C2 1_555 1_555
C8 C5 1_555 1_555
C9 C8 1_555 1_555
H5 C9 1_555 1_555
C10 C9 1_555 1_555
H6 C10 1_555 1_555
C11 C10 1_555 1_555
C12 C11 1_555 1_555
C13 C8 1_555 1_555
H8 C13 1_555 1_555
C18 H9 1_555 1_555
C19 C18 1_555 1_555
H10 C19 1_555 1_555
H13 C24 1_555 1_555
C25 C24 1_555 1_555
H14 C25 1_555 1_555
C26 C25 1_555 1_555
C29 C26 1_555 1_555
O3 C29 1_555 1_555
O4 C29 1_555 1_555
C74 C73 1_555 1_555
H44 C74 1_555 1_555
C75 C74 1_555 1_555
C76 C75 1_555 1_555
H45 C76 1_555 1_555
C78 C75 1_555 1_555
C79 C78 1_555 1_555
H47 C79 1_555 1_555
C80 C79 1_555 1_555
H48 C80 1_555 1_555
C81 C80 1_555 1_555
C82 C81 1_555 1_555
H49 C82 1_555 1_555
C83 C78 1_555 1_555
H50 C83 1_555 1_555
C84 C81 1_555 1_555
O12 C84 1_555 1_555
O13 Zn1 1_555 1_555
Zn4 O4 1_555 1_555
Zn8 O12 1_555 1_555
Zn9 O3 1_555 1_555
O18 Zn1 1_555 1_555
C6 C7 1_555 1_555
C12 C13 1_555 1_555
C82 C83 1_555 1_555
C84 O13 1_555 1_555
C40 C39 1_555 1_555
H23 C40 1_555 1_555
C42 C39 1_555 1_555
O5 C42 1_555 1_555
O6 C42 1_555 1_555
C44 C45 1_555 1_555
C45 H27 1_555 1_555
C46 C45 1_555 1_555
H28 C46 1_555 1_555
C47 C46 1_555 1_555
C48 C47 1_555 1_555
H29 C48 1_555 1_555
C49 C44 1_555 1_555
C50 C47 1_555 1_555
C55 C50 1_555 1_555
H34 C55 1_555 1_555
Zn5 O6 1_555 1_555
Zn7 O5 1_555 1_555
C48 C49 1_555 1_555
O8 Zn5 1_555 1_555
O12_2 C84_2 1_555 1_555
O13_2 Zn4 1_555 1_555
Zn9 O12_2 1_555 1_555
C84_2 O13_2 1_555 1_555
C32 C31 1_555 1_555
H18 C32 1_555 1_555
C33 C32 1_555 1_555
C34 C33 1_555 1_555
H19 C34 1_555 1_555
C36 C33 1_555 1_555
C37 C36 1_555 1_555
H21 C37 1_555 1_555
C38 C37 1_555 1_555
H22 C38 1_555 1_555
C39_2 C38 1_555 1_555
C40_2 C39_2 1_555 1_555
H23_2 C40_2 1_555 1_555
C41 C36 1_555 1_555
H24 C41 1_555 1_555
C42_2 C39_2 1_555 1_555
O5_2 C42_2 1_555 1_555
O6_2 C42_2 1_555 1_555
C44_2 C45_2 1_555 1_555
C45_2 H27_2 1_555 1_555
C46_2 C45_2 1_555 1_555
H28_2 C46_2 1_555 1_555
C47_2 C46_2 1_555 1_555
C48_2 C47_2 1_555 1_555
H29_2 C48_2 1_555 1_555
C49_2 C44_2 1_555 1_555
C50_2 C47_2 1_555 1_555
C51 C50_2 1_555 1_555
H31 C51 1_555 1_555
C52 C51 1_555 1_555
H32 C52 1_555 1_555
C53 C52 1_555 1_555
C54 C53 1_555 1_555
H33 C54 1_555 1_555
C55_2 C50_2 1_555 1_555
H34_2 C55_2 1_555 1_555
C56 C53 1_555 1_555
C57 C59 1_555 1_555
C58 C72 1_555 1_555
C59 C60 1_555 1_555
C60 H35 1_555 1_555
C61 C60 1_555 1_555
H36 C61 1_555 1_555
C62 C61 1_555 1_555
C63 C62 1_555 1_555
H37 C63 1_555 1_555
C64 C59 1_555 1_555
H38 C64 1_555 1_555
C65 C62 1_555 1_555
C66 C65 1_555 1_555
H39 C66 1_555 1_555
C67 C66 1_555 1_555
H40 C67 1_555 1_555
C68 C67 1_555 1_555
C69 C68 1_555 1_555
H41 C69 1_555 1_555
C70 C65 1_555 1_555
H42 C70 1_555 1_555
C71 C68 1_555 1_555
C77 C72 1_555 1_555
H46 C77 1_555 1_555
N4 C56 1_555 1_555
N5 C57 1_555 1_555
N6 C56 1_555 1_555
O10 C71 1_555 1_555
O11 C71 1_555 1_555
Zn5_2 O6_2 1_555 1_555
Zn7 O10 1_555 1_555
Zn7_2 O5_2 1_555 1_555
C40_2 C41 1_555 1_555
C48_2 C49_2 1_555 1_555
C54 C55_2 1_555 1_555
C57 N4 1_555 1_555
C58 N5 1_555 1_555
C58 N6 1_555 1_555
C63 C64 1_555 1_555
C69 C70 1_555 1_555
O8_2 Zn5_2 1_555 1_555
O11 Zn5 1_555 1_555
Zn7 O2 1_555 1_555
O2 C1 1_555 1_555
O7 Zn7 1_555 1_555
H25 O7 1_555 1_555
H26 O7 1_555 1_555
C32_2 C31_2 1_555 1_555
H18_2 C32_2 1_555 1_555
C33_2 C32_2 1_555 1_555
C34_2 C33_2 1_555 1_555
H19_2 C34_2 1_555 1_555
C36_2 C33_2 1_555 1_555
C37_2 C36_2 1_555 1_555
H21_2 C37_2 1_555 1_555
C38_2 C37_2 1_555 1_555
H22_2 C38_2 1_555 1_555
C41_2 C36_2 1_555 1_555
H24_2 C41_2 1_555 1_555
H31_2 C51_2 1_555 1_555
C52_2 C51_2 1_555 1_555
H32_2 C52_2 1_555 1_555
C53_2 C52_2 1_555 1_555
C54_2 C53_2 1_555 1_555
H33_2 C54_2 1_555 1_555
C56_2 C53_2 1_555 1_555
C57_2 C59_2 1_555 1_555
C58_2 C72_2 1_555 1_555
C59_2 C60_2 1_555 1_555
C60_2 H35_2 1_555 1_555
C61_2 C60_2 1_555 1_555
H36_2 C61_2 1_555 1_555
C62_2 C61_2 1_555 1_555
C63_2 C62_2 1_555 1_555
H37_2 C63_2 1_555 1_555
C64_2 C59_2 1_555 1_555
H38_2 C64_2 1_555 1_555
C65_2 C62_2 1_555 1_555
C66_2 C65_2 1_555 1_555
H39_2 C66_2 1_555 1_555
C67_2 C66_2 1_555 1_555
H40_2 C67_2 1_555 1_555
C68_2 C67_2 1_555 1_555
C69_2 C68_2 1_555 1_555
H41_2 C69_2 1_555 1_555
C70_2 C65_2 1_555 1_555
H42_2 C70_2 1_555 1_555
C71_2 C68_2 1_555 1_555
C77_2 C72_2 1_555 1_555
H46_2 C77_2 1_555 1_555
N4_2 C56_2 1_555 1_555
N5_2 C57_2 1_555 1_555
N6_2 C56_2 1_555 1_555
O10_2 C71_2 1_555 1_555
O11_2 C71_2 1_555 1_555
Zn7_2 O10_2 1_555 1_555
C57_2 N4_2 1_555 1_555
C58_2 N5_2 1_555 1_555
C58_2 N6_2 1_555 1_555
C63_2 C64_2 1_555 1_555
C69_2 C70_2 1_555 1_555
O11_2 Zn5_2 1_555 1_555
Zn7_2 O2_2 1_555 1_555
O2_2 C1_2 1_555 1_555
O7_2 Zn7_2 1_555 1_555
H25_2 O7_2 1_555 1_555
H26_2 O7_2 1_555 1_555
Zn8 O9 1_555 1_555
O9 C43 1_555 1_555
O14 Zn8 1_555 1_555
H51 O14 1_555 1_555
H52 O14 1_555 1_555
O16 Zn8 1_555 1_555
H5_2 C9_2 1_555 1_555
C10_2 C9_2 1_555 1_555
H6_2 C10_2 1_555 1_555
C11_2 C10_2 1_555 1_555
C12_2 C11_2 1_555 1_555
H7 C12_2 1_555 1_555
C14 C11_2 1_555 1_555
C15 C17 1_555 1_555
C16 C30 1_555 1_555
C17 C18_2 1_555 1_555
C18_2 H9_2 1_555 1_555
C19_2 C18_2 1_555 1_555
H10_2 C19_2 1_555 1_555
C20 C19_2 1_555 1_555
C21 C20 1_555 1_555
H11 C21 1_555 1_555
C22 C17 1_555 1_555
H12 C22 1_555 1_555
C23 C20 1_555 1_555
C24_2 C23 1_555 1_555
H13_2 C24_2 1_555 1_555
C25_2 C24_2 1_555 1_555
H14_2 C25_2 1_555 1_555
C26_2 C25_2 1_555 1_555
C27 C26_2 1_555 1_555
H15 C27 1_555 1_555
C28 C23 1_555 1_555
H16 C28 1_555 1_555
C29_2 C26_2 1_555 1_555
C35 C30 1_555 1_555
H20 C35 1_555 1_555
N1 C14 1_555 1_555
N2 C15 1_555 1_555
N3 C14 1_555 1_555
O16 C29_2 1_555 1_555
O18 C29_2 1_555 1_555
C74_2 C73_2 1_555 1_555
H44_2 C74_2 1_555 1_555
C75_2 C74_2 1_555 1_555
C76_2 C75_2 1_555 1_555
H45_2 C76_2 1_555 1_555
C78_2 C75_2 1_555 1_555
C79_2 C78_2 1_555 1_555
H47_2 C79_2 1_555 1_555
C80_2 C79_2 1_555 1_555
H48_2 C80_2 1_555 1_555
C83_2 C78_2 1_555 1_555
H50_2 C83_2 1_555 1_555
C15 N1 1_555 1_555
C16 N2 1_555 1_555
C16 N3 1_555 1_555
C21 C22 1_555 1_555
C27 C28 1_555 1_555
Zn9 O9_2 1_555 1_555
O9_2 C43_2 1_555 1_555
O14_2 Zn9 1_555 1_555
H51_2 O14_2 1_555 1_555
H52_2 O14_2 1_555 1_555
C15_2 C17_2 1_555 1_555
C16_2 C30_2 1_555 1_555
C21_2 C20_2 1_555 1_555
H11_2 C21_2 1_555 1_555
C22_2 C17_2 1_555 1_555
H12_2 C22_2 1_555 1_555
C23_2 C20_2 1_555 1_555
H15_2 C27_2 1_555 1_555
C28_2 C23_2 1_555 1_555
H16_2 C28_2 1_555 1_555
C35_2 C30_2 1_555 1_555
H20_2 C35_2 1_555 1_555
N1_2 C14_2 1_555 1_555
N2_2 C15_2 1_555 1_555
N3_2 C14_2 1_555 1_555
C15_2 N1_2 1_555 1_555
C16_2 N2_2 1_555 1_555
C16_2 N3_2 1_555 1_555
C21_2 C22_2 1_555 1_555
C27_2 C28_2 1_555 1_555
Zn4_2 O1_2 1_555 1_555
C2_2 C3_2 1_555 1_555
C3_2 H1_2 1_555 1_555
C4_2 C3_2 1_555 1_555
H2_2 C4_2 1_555 1_555
C5_2 C4_2 1_555 1_555
C6_2 C5_2 1_555 1_555
H3_2 C6_2 1_555 1_555
C7_2 C2_2 1_555 1_555
C8_2 C5_2 1_555 1_555
C13_2 C8_2 1_555 1_555
H8_2 C13_2 1_555 1_555
C82_2 C81_2 1_555 1_555
H49_2 C82_2 1_555 1_555
C6_2 C7_2 1_555 1_555
C57_3 C59_3 1_555 1_555
C58_3 C72_3 1_555 1_555
C63_3 C62_3 1_555 1_555
H37_3 C63_3 1_555 1_555
C64_3 C59_3 1_555 1_555
H38_3 C64_3 1_555 1_555
C65_3 C62_3 1_555 1_555
H41_3 C69_3 1_555 1_555
C70_3 C65_3 1_555 1_555
H42_3 C70_3 1_555 1_555
C77_3 C72_3 1_555 1_555
H46_3 C77_3 1_555 1_555
N4_3 C56_3 1_555 1_555
N5_3 C57_3 1_555 1_555
N6_3 C56_3 1_555 1_555
C57_3 N4_3 1_555 1_555
C58_3 N5_3 1_555 1_555
C58_3 N6_3 1_555 1_555
C63_3 C64_3 1_555 1_555
C69_3 C70_3 1_555 1_555
Zn2 O2_3 1_555 1_555
O2_3 C1_3 1_555 1_555
O7_3 Zn2 1_555 1_555
H25_3 O7_3 1_555 1_555
H26_3 O7_3 1_555 1_555
O15 Zn1_2 1_555 1_555
O17 Zn2 1_555 1_555
O19 Zn1_2 1_555 1_555
O20 Zn2 1_555 1_555
O22 Zn1_2 1_555 1_555
O15_2 Zn4_3 1_555 1_555
C40_3 C39_3 1_555 1_555
H23_3 C40_3 1_555 1_555
C42_3 C39_3 1_555 1_555
O20 C42_3 1_555 1_555
O22 C42_3 1_555 1_555
C44_3 C45_3 1_555 1_555
C45_3 H27_3 1_555 1_555
C46_3 C45_3 1_555 1_555
H28_3 C46_3 1_555 1_555
C47_3 C46_3 1_555 1_555
C48_3 C47_3 1_555 1_555
H29_3 C48_3 1_555 1_555
C49_3 C44_3 1_555 1_555
C50_3 C47_3 1_555 1_555
C55_3 C50_3 1_555 1_555
H34_3 C55_3 1_555 1_555
C48_3 C49_3 1_555 1_555
C32_3 C31_3 1_555 1_555
H18_3 C32_3 1_555 1_555
C33_3 C32_3 1_555 1_555
C34_3 C33_3 1_555 1_555
H19_3 C34_3 1_555 1_555
C36_3 C33_3 1_555 1_555
C37_3 C36_3 1_555 1_555
H21_3 C37_3 1_555 1_555
C38_3 C37_3 1_555 1_555
H22_3 C38_3 1_555 1_555
C39_4 C38_3 1_555 1_555
C40_4 C39_4 1_555 1_555
H23_4 C40_4 1_555 1_555
C41_3 C36_3 1_555 1_555
H24_3 C41_3 1_555 1_555
C44_4 C45_4 1_555 1_555
C45_4 H27_4 1_555 1_555
C46_4 C45_4 1_555 1_555
H28_4 C46_4 1_555 1_555
C47_4 C46_4 1_555 1_555
C48_4 C47_4 1_555 1_555
H29_4 C48_4 1_555 1_555
C49_4 C44_4 1_555 1_555
C50_4 C47_4 1_555 1_555
C51_3 C50_4 1_555 1_555
H31_3 C51_3 1_555 1_555
C52_3 C51_3 1_555 1_555
H32_3 C52_3 1_555 1_555
C53_3 C52_3 1_555 1_555
C54_3 C53_3 1_555 1_555
H33_4 C54_3 1_555 1_555
C55_4 C50_4 1_555 1_555
H34_4 C55_4 1_555 1_555
C56_4 C53_3 1_555 1_555
C57_4 C59_4 1_555 1_555
C58_4 C72_4 1_555 1_555
C59_4 C60_3 1_555 1_555
C60_3 H35_3 1_555 1_555
C61_3 C60_3 1_555 1_555
H36_3 C61_3 1_555 1_555
C62_4 C61_3 1_555 1_555
C63_4 C62_4 1_555 1_555
H37_4 C63_4 1_555 1_555
C64_4 C59_4 1_555 1_555
H38_4 C64_4 1_555 1_555
C65_4 C62_4 1_555 1_555
C66_3 C65_4 1_555 1_555
H39_3 C66_3 1_555 1_555
C67_3 C66_3 1_555 1_555
H40_3 C67_3 1_555 1_555
C68_3 C67_3 1_555 1_555
C69_4 C68_3 1_555 1_555
H41_4 C69_4 1_555 1_555
C70_4 C65_4 1_555 1_555
H42_4 C70_4 1_555 1_555
C71_3 C68_3 1_555 1_555
C77_4 C72_4 1_555 1_555
H46_4 C77_4 1_555 1_555
N4_4 C56_4 1_555 1_555
N5_4 C57_4 1_555 1_555
N6_4 C56_4 1_555 1_555
O17 C71_3 1_555 1_555
O19 C71_3 1_555 1_555
C40_4 C41_3 1_555 1_555
C48_4 C49_4 1_555 1_555
C54_3 C55_4 1_555 1_555
C57_4 N4_4 1_555 1_555
C58_4 N5_4 1_555 1_555
C58_4 N6_4 1_555 1_555
C63_4 C64_4 1_555 1_555
C69_4 C70_4 1_555 1_555
C32_4 C31_4 1_555 1_555
H18_4 C32_4 1_555 1_555
C33_4 C32_4 1_555 1_555
C34_4 C33_4 1_555 1_555
H19_4 C34_4 1_555 1_555
C36_4 C33_4 1_555 1_555
C37_4 C36_4 1_555 1_555
H21_4 C37_4 1_555 1_555
C38_4 C37_4 1_555 1_555
H22_4 C38_4 1_555 1_555
C41_4 C36_4 1_555 1_555
H24_4 C41_4 1_555 1_555
H31_4 C51_4 1_555 1_555
C52_4 C51_4 1_555 1_555
H32_4 C52_4 1_555 1_555
C53_4 C52_4 1_555 1_555
C54_4 C53_4 1_555 1_555
C60_4 H35_4 1_555 1_555
C61_4 C60_4 1_555 1_555
H36_4 C61_4 1_555 1_555
H39_4 C66_4 1_555 1_555
C67_4 C66_4 1_555 1_555
H40_4 C67_4 1_555 1_555
C68_4 C67_4 1_555 1_555
C71_4 C68_4 1_555 1_555
O10_3 C71_4 1_555 1_555
O11_3 C71_4 1_555 1_555
Zn6 O10_3 1_555 1_555
O11_3 Zn4_4 1_555 1_555
Zn6 O2_4 1_555 1_555
O2_4 C1_4 1_555 1_555
O7_4 Zn6 1_555 1_555
H25_4 O7_4 1_555 1_555
H26_4 O7_4 1_555 1_555
Zn3 O9_3 1_555 1_555
O9_3 C43_3 1_555 1_555
O14_3 Zn3 1_555 1_555
H51_3 O14_3 1_555 1_555
H52_3 O14_3 1_555 1_555
O16_2 Zn3 1_555 1_555
O20_2 Zn6 1_555 1_555
O21 Zn3 1_555 1_555
O22_2 Zn4_4 1_555 1_555
Zn3_2 O9_4 1_555 1_555
O9_4 C43_4 1_555 1_555
O14_4 Zn3_2 1_555 1_555
H51_4 O14_4 1_555 1_555
H52_4 O14_4 1_555 1_555
O16_3 Zn3_2 1_555 1_555
O21_2 Zn3_2 1_555 1_555
H5_3 C9_3 1_555 1_555
C10_3 C9_3 1_555 1_555
H6_3 C10_3 1_555 1_555
C11_3 C10_3 1_555 1_555
C12_3 C11_3 1_555 1_555
H7_3 C12_3 1_555 1_555
C14_3 C11_3 1_555 1_555
C15_3 C17_3 1_555 1_555
C16_3 C30_3 1_555 1_555
C17_3 C18_3 1_555 1_555
C18_3 H9_3 1_555 1_555
C19_3 C18_3 1_555 1_555
H10_3 C19_3 1_555 1_555
C20_3 C19_3 1_555 1_555
C21_3 C20_3 1_555 1_555
H11_3 C21_3 1_555 1_555
C22_3 C17_3 1_555 1_555
H12_3 C22_3 1_555 1_555
C23_3 C20_3 1_555 1_555
C24_3 C23_3 1_555 1_555
H13_3 C24_3 1_555 1_555
C25_3 C24_3 1_555 1_555
H14_3 C25_3 1_555 1_555
C26_3 C25_3 1_555 1_555
C27_3 C26_3 1_555 1_555
H15_3 C27_3 1_555 1_555
C28_3 C23_3 1_555 1_555
H16_3 C28_3 1_555 1_555
C29_3 C26_3 1_555 1_555
C35_3 C30_3 1_555 1_555
H20_3 C35_3 1_555 1_555
N1_3 C14_3 1_555 1_555
N2_3 C15_3 1_555 1_555
N3_3 C14_3 1_555 1_555
O16_2 C29_3 1_555 1_555
O4_2 C29_3 1_555 1_555
C74_3 C73_3 1_555 1_555
H44_3 C74_3 1_555 1_555
C75_3 C74_3 1_555 1_555
C76_3 C75_3 1_555 1_555
H45_3 C76_3 1_555 1_555
C78_3 C75_3 1_555 1_555
C79_3 C78_3 1_555 1_555
H47_3 C79_3 1_555 1_555
C80_3 C79_3 1_555 1_555
H48_3 C80_3 1_555 1_555
C83_3 C78_3 1_555 1_555
H50_3 C83_3 1_555 1_555
Zn5_3 O4_2 1_555 1_555
C15_3 N1_3 1_555 1_555
C16_3 N2_3 1_555 1_555
C16_3 N3_3 1_555 1_555
C21_3 C22_3 1_555 1_555
C27_3 C28_3 1_555 1_555
Zn5_3 O1_3 1_555 1_555
C2_3 C3_3 1_555 1_555
C3_3 H1_3 1_555 1_555
C4_3 C3_3 1_555 1_555
H2_3 C4_3 1_555 1_555
C5_3 C4_3 1_555 1_555
C6_3 C5_3 1_555 1_555
H3_3 C6_3 1_555 1_555
C7_3 C2_3 1_555 1_555
C8_3 C5_3 1_555 1_555
C9_4 C8_3 1_555 1_555
H5_4 C9_4 1_555 1_555
C10_4 C9_4 1_555 1_555
H6_4 C10_4 1_555 1_555
C11_4 C10_4 1_555 1_555
C12_4 C11_4 1_555 1_555
H7_4 C12_4 1_555 1_555
C13_3 C8_3 1_555 1_555
H8_3 C13_3 1_555 1_555
C14_4 C11_4 1_555 1_555
C15_4 C17_4 1_555 1_555
C16_4 C30_4 1_555 1_555
C17_4 C18_4 1_555 1_555
C18_4 H9_4 1_555 1_555
C19_4 C18_4 1_555 1_555
H10_4 C19_4 1_555 1_555
C20_4 C19_4 1_555 1_555
C21_4 C20_4 1_555 1_555
H11_4 C21_4 1_555 1_555
C22_4 C17_4 1_555 1_555
H12_4 C22_4 1_555 1_555
C23_4 C20_4 1_555 1_555
C24_4 C23_4 1_555 1_555
H13_4 C24_4 1_555 1_555
C25_4 C24_4 1_555 1_555
H14_4 C25_4 1_555 1_555
C26_4 C25_4 1_555 1_555
C27_4 C26_4 1_555 1_555
H15_4 C27_4 1_555 1_555
C28_4 C23_4 1_555 1_555
H16_4 C28_4 1_555 1_555
C29_4 C26_4 1_555 1_555
C35_4 C30_4 1_555 1_555
H20_4 C35_4 1_555 1_555
N1_4 C14_4 1_555 1_555
N2_4 C15_4 1_555 1_555
N3_4 C14_4 1_555 1_555
O16_3 C29_4 1_555 1_555
O4_3 C29_4 1_555 1_555
C74_4 C73_4 1_555 1_555
H44_4 C74_4 1_555 1_555
C75_4 C74_4 1_555 1_555
C76_4 C75_4 1_555 1_555
H45_4 C76_4 1_555 1_555
C78_4 C75_4 1_555 1_555
C79_4 C78_4 1_555 1_555
H47_4 C79_4 1_555 1_555
C80_4 C79_4 1_555 1_555
H48_4 C80_4 1_555 1_555
C81_3 C80_4 1_555 1_555
C82_3 C81_3 1_555 1_555
H49_3 C82_3 1_555 1_555
C83_4 C78_4 1_555 1_555
H50_4 C83_4 1_555 1_555
C84_3 C81_3 1_555 1_555
O21 C84_3 1_555 1_555
O13_3 Zn5_3 1_555 1_555
Zn5_4 O4_3 1_555 1_555
C6_3 C7_3 1_555 1_555
C12_4 C13_3 1_555 1_555
C15_4 N1_4 1_555 1_555
C16_4 N2_4 1_555 1_555
C16_4 N3_4 1_555 1_555
C21_4 C22_4 1_555 1_555
C27_4 C28_4 1_555 1_555
C82_3 C83_4 1_555 1_555
C84_3 O13_3 1_555 1_555
Zn5_4 O1_4 1_555 1_555
C2_4 C3_4 1_555 1_555
C3_4 H1_4 1_555 1_555
C4_4 C3_4 1_555 1_555
H2_4 C4_4 1_555 1_555
C5_4 C4_4 1_555 1_555
C6_4 C5_4 1_555 1_555
H3_4 C6_4 1_555 1_555
C7_4 C2_4 1_555 1_555
C8_4 C5_4 1_555 1_555
C13_4 C8_4 1_555 1_555
H8_4 C13_4 1_555 1_555
C82_4 C81_4 1_555 1_555
H49_4 C82_4 1_555 1_555
C84_4 C81_4 1_555 1_555
O21_2 C84_4 1_555 1_555
O13_4 Zn5_4 1_555 1_555
C6_4 C7_4 1_555 1_555
C84_4 O13_4 1_555 1_555
O20_2 C42_4 1_555 1_555
O22_2 C42_4 1_555 1_555
C40_5 C39_5 1_555 1_555
H23_5 C40_5 1_555 1_555
C42_5 C39_5 1_555 1_555
O5_3 C42_5 1_555 1_555
O6_3 C42_5 1_555 1_555
Zn3_3 O9_5 1_555 1_555
C43_5 C44_5 1_555 1_555
C44_5 C45_5 1_555 1_555
C45_5 H27_5 1_555 1_555
C46_5 C45_5 1_555 1_555
H28_5 C46_5 1_555 1_555
C47_5 C46_5 1_555 1_555
C48_5 C47_5 1_555 1_555
H29_5 C48_5 1_555 1_555
C49_5 C44_5 1_555 1_555
H30_5 C49_5 1_555 1_555
C50_5 C47_5 1_555 1_555
C55_5 C50_5 1_555 1_555
H34_5 C55_5 1_555 1_555
O8_3 C43_5 1_555 1_555
O9_5 C43_5 1_555 1_555
O14_5 Zn3_3 1_555 1_555
H51_5 O14_5 1_555 1_555
H52_5 O14_5 1_555 1_555
Zn5_5 O6_3 1_555 1_555
Zn7_3 O5_3 1_555 1_555
O16_4 Zn3_3 1_555 1_555
O21_3 Zn3_3 1_555 1_555
C48_5 C49_5 1_555 1_555
O8_3 Zn5_5 1_555 1_555
H5_5 C9_5 1_555 1_555
C10_5 C9_5 1_555 1_555
H6_5 C10_5 1_555 1_555
C11_5 C10_5 1_555 1_555
C12_5 C11_5 1_555 1_555
H7_5 C12_5 1_555 1_555
C14_5 C11_5 1_555 1_555
C15_5 C17_5 1_555 1_555
C16_5 C30_5 1_555 1_555
C17_5 C18_5 1_555 1_555
C18_5 H9_5 1_555 1_555
C19_5 C18_5 1_555 1_555
H10_5 C19_5 1_555 1_555
C20_5 C19_5 1_555 1_555
C21_5 C20_5 1_555 1_555
H11_5 C21_5 1_555 1_555
C22_5 C17_5 1_555 1_555
H12_5 C22_5 1_555 1_555
C23_5 C20_5 1_555 1_555
C24_5 C23_5 1_555 1_555
H13_5 C24_5 1_555 1_555
C25_5 C24_5 1_555 1_555
H14_5 C25_5 1_555 1_555
C26_5 C25_5 1_555 1_555
C27_5 C26_5 1_555 1_555
H15_5 C27_5 1_555 1_555
C28_5 C23_5 1_555 1_555
H16_5 C28_5 1_555 1_555
C29_5 C26_5 1_555 1_555
C30_5 C31_5 1_555 1_555
C31_5 H17_5 1_555 1_555
C32_5 C31_5 1_555 1_555
H18_5 C32_5 1_555 1_555
C33_5 C32_5 1_555 1_555
C34_5 C33_5 1_555 1_555
H19_5 C34_5 1_555 1_555
C35_5 C30_5 1_555 1_555
H20_5 C35_5 1_555 1_555
C36_5 C33_5 1_555 1_555
C37_5 C36_5 1_555 1_555
H21_5 C37_5 1_555 1_555
C38_5 C37_5 1_555 1_555
H22_5 C38_5 1_555 1_555
C41_5 C36_5 1_555 1_555
H24_5 C41_5 1_555 1_555
N1_5 C14_5 1_555 1_555
N2_5 C15_5 1_555 1_555
N3_5 C14_5 1_555 1_555
O16_4 C29_5 1_555 1_555
O4_4 C29_5 1_555 1_555
H31_5 C51_5 1_555 1_555
C52_5 C51_5 1_555 1_555
H32_5 C52_5 1_555 1_555
C53_5 C52_5 1_555 1_555
C54_5 C53_5 1_555 1_555
H33_5 C54_5 1_555 1_555
C56_5 C53_5 1_555 1_555
C57_5 C59_5 1_555 1_555
C58_5 C72_5 1_555 1_555
C59_5 C60_5 1_555 1_555
C60_5 H35_5 1_555 1_555
C61_5 C60_5 1_555 1_555
H36_5 C61_5 1_555 1_555
C62_5 C61_5 1_555 1_555
C63_5 C62_5 1_555 1_555
H37_5 C63_5 1_555 1_555
C64_5 C59_5 1_555 1_555
H38_5 C64_5 1_555 1_555
C65_5 C62_5 1_555 1_555
C66_5 C65_5 1_555 1_555
H39_5 C66_5 1_555 1_555
C67_5 C66_5 1_555 1_555
H40_5 C67_5 1_555 1_555
C68_5 C67_5 1_555 1_555
C69_5 C68_5 1_555 1_555
H41_5 C69_5 1_555 1_555
C70_5 C65_5 1_555 1_555
H42_5 C70_5 1_555 1_555
C71_5 C68_5 1_555 1_555
C72_5 C73_5 1_555 1_555
C73_5 H43_5 1_555 1_555
C74_5 C73_5 1_555 1_555
H44_5 C74_5 1_555 1_555
C75_5 C74_5 1_555 1_555
C76_5 C75_5 1_555 1_555
H45_5 C76_5 1_555 1_555
C77_5 C72_5 1_555 1_555
H46_5 C77_5 1_555 1_555
C78_5 C75_5 1_555 1_555
C79_5 C78_5 1_555 1_555
H47_5 C79_5 1_555 1_555
C80_5 C79_5 1_555 1_555
H48_5 C80_5 1_555 1_555
C83_5 C78_5 1_555 1_555
H50_5 C83_5 1_555 1_555
N4_5 C56_5 1_555 1_555
N5_5 C57_5 1_555 1_555
N6_5 C56_5 1_555 1_555
O10_4 C71_5 1_555 1_555
O11_4 C71_5 1_555 1_555
Zn5_5 O4_4 1_555 1_555
Zn7_3 O10_4 1_555 1_555
C15_5 N1_5 1_555 1_555
C16_5 N2_5 1_555 1_555
C16_5 N3_5 1_555 1_555
C21_5 C22_5 1_555 1_555
C27_5 C28_5 1_555 1_555
C34_5 C35_5 1_555 1_555
C57_5 N4_5 1_555 1_555
C58_5 N5_5 1_555 1_555
C58_5 N6_5 1_555 1_555
C63_5 C64_5 1_555 1_555
C69_5 C70_5 1_555 1_555
C76_5 C77_5 1_555 1_555
O11_4 Zn5_5 1_555 1_555
Zn5_5 O1_5 1_555 1_555
Zn7_3 O2_5 1_555 1_555
C1_5 C2_5 1_555 1_555
C2_5 C3_5 1_555 1_555
C3_5 H1_5 1_555 1_555
C4_5 C3_5 1_555 1_555
H2_5 C4_5 1_555 1_555
C5_5 C4_5 1_555 1_555
C6_5 C5_5 1_555 1_555
H3_5 C6_5 1_555 1_555
C7_5 C2_5 1_555 1_555
H4_5 C7_5 1_555 1_555
C8_5 C5_5 1_555 1_555
C13_5 C8_5 1_555 1_555
H8_5 C13_5 1_555 1_555
O1_5 C1_5 1_555 1_555
O2_5 C1_5 1_555 1_555
O7_5 Zn7_3 1_555 1_555
H25_5 O7_5 1_555 1_555
H26_5 O7_5 1_555 1_555
C82_5 C81_5 1_555 1_555
H49_5 C82_5 1_555 1_555
C84_5 C81_5 1_555 1_555
O21_3 C84_5 1_555 1_555
O13_5 Zn5_5 1_555 1_555
C6_5 C7_5 1_555 1_555
C84_5 O13_5 1_555 1_555
C40_6 C39_6 1_555 1_555
H23_6 C40_6 1_555 1_555
C42_6 C39_6 1_555 1_555
O5_4 C42_6 1_555 1_555
O6_4 C42_6 1_555 1_555
Zn3_4 O9_6 1_555 1_555
C43_6 C44_6 1_555 1_555
C44_6 C45_6 1_555 1_555
C45_6 H27_6 1_555 1_555
C46_6 C45_6 1_555 1_555
H28_6 C46_6 1_555 1_555
C47_6 C46_6 1_555 1_555
C48_6 C47_6 1_555 1_555
H29_6 C48_6 1_555 1_555
C49_6 C44_6 1_555 1_555
H30_6 C49_6 1_555 1_555
C50_6 C47_6 1_555 1_555
C55_6 C50_6 1_555 1_555
H34_6 C55_6 1_555 1_555
O8_4 C43_6 1_555 1_555
O9_6 C43_6 1_555 1_555
O14_6 Zn3_4 1_555 1_555
H51_6 O14_6 1_555 1_555
H52_6 O14_6 1_555 1_555
Zn5_6 O6_4 1_555 1_555
Zn7_4 O5_4 1_555 1_555
O16_5 Zn3_4 1_555 1_555
O21_4 Zn3_4 1_555 1_555
C48_6 C49_6 1_555 1_555
O8_4 Zn5_6 1_555 1_555
H5_6 C9_6 1_555 1_555
C10_6 C9_6 1_555 1_555
H6_6 C10_6 1_555 1_555
C11_6 C10_6 1_555 1_555
C12_6 C11_6 1_555 1_555
H7_6 C12_6 1_555 1_555
C14_6 C11_6 1_555 1_555
C15_6 C17_6 1_555 1_555
C16_6 C30_6 1_555 1_555
C17_6 C18_6 1_555 1_555
C18_6 H9_6 1_555 1_555
C19_6 C18_6 1_555 1_555
H10_6 C19_6 1_555 1_555
C20_6 C19_6 1_555 1_555
C21_6 C20_6 1_555 1_555
H11_6 C21_6 1_555 1_555
C22_6 C17_6 1_555 1_555
H12_6 C22_6 1_555 1_555
C23_6 C20_6 1_555 1_555
C24_6 C23_6 1_555 1_555
H13_6 C24_6 1_555 1_555
C25_6 C24_6 1_555 1_555
H14_6 C25_6 1_555 1_555
C26_6 C25_6 1_555 1_555
C27_6 C26_6 1_555 1_555
H15_6 C27_6 1_555 1_555
C28_6 C23_6 1_555 1_555
H16_6 C28_6 1_555 1_555
C29_6 C26_6 1_555 1_555
C30_6 C31_6 1_555 1_555
C31_6 H17_6 1_555 1_555
C32_6 C31_6 1_555 1_555
H18_6 C32_6 1_555 1_555
C33_6 C32_6 1_555 1_555
C34_6 C33_6 1_555 1_555
H19_6 C34_6 1_555 1_555
C35_6 C30_6 1_555 1_555
H20_6 C35_6 1_555 1_555
C36_6 C33_6 1_555 1_555
C37_6 C36_6 1_555 1_555
H21_6 C37_6 1_555 1_555
C38_6 C37_6 1_555 1_555
H22_6 C38_6 1_555 1_555
C41_6 C36_6 1_555 1_555
H24_6 C41_6 1_555 1_555
N1_6 C14_6 1_555 1_555
N2_6 C15_6 1_555 1_555
N3_6 C14_6 1_555 1_555
O16_5 C29_6 1_555 1_555
O4_5 C29_6 1_555 1_555
H31_6 C51_6 1_555 1_555
C52_6 C51_6 1_555 1_555
H32_6 C52_6 1_555 1_555
C53_6 C52_6 1_555 1_555
C54_6 C53_6 1_555 1_555
H33_6 C54_6 1_555 1_555
C56_6 C53_6 1_555 1_555
C57_6 C59_6 1_555 1_555
C58_6 C72_6 1_555 1_555
C59_6 C60_6 1_555 1_555
C60_6 H35_6 1_555 1_555
C61_6 C60_6 1_555 1_555
H36_6 C61_6 1_555 1_555
C62_6 C61_6 1_555 1_555
C63_6 C62_6 1_555 1_555
H37_6 C63_6 1_555 1_555
C64_6 C59_6 1_555 1_555
H38_6 C64_6 1_555 1_555
C65_6 C62_6 1_555 1_555
C66_6 C65_6 1_555 1_555
H39_6 C66_6 1_555 1_555
C67_6 C66_6 1_555 1_555
H40_6 C67_6 1_555 1_555
C68_6 C67_6 1_555 1_555
C69_6 C68_6 1_555 1_555
H41_6 C69_6 1_555 1_555
C70_6 C65_6 1_555 1_555
H42_6 C70_6 1_555 1_555
C71_6 C68_6 1_555 1_555
C72_6 C73_6 1_555 1_555
C73_6 H43_6 1_555 1_555
C74_6 C73_6 1_555 1_555
H44_6 C74_6 1_555 1_555
C75_6 C74_6 1_555 1_555
C76_6 C75_6 1_555 1_555
H45_6 C76_6 1_555 1_555
C77_6 C72_6 1_555 1_555
H46_6 C77_6 1_555 1_555
C78_6 C75_6 1_555 1_555
C79_6 C78_6 1_555 1_555
H47_6 C79_6 1_555 1_555
C80_6 C79_6 1_555 1_555
H48_6 C80_6 1_555 1_555
C83_6 C78_6 1_555 1_555
H50_6 C83_6 1_555 1_555
N4_6 C56_6 1_555 1_555
N5_6 C57_6 1_555 1_555
N6_6 C56_6 1_555 1_555
O10_5 C71_6 1_555 1_555
O11_5 C71_6 1_555 1_555
Zn5_6 O4_5 1_555 1_555
Zn7_4 O10_5 1_555 1_555
C15_6 N1_6 1_555 1_555
C16_6 N2_6 1_555 1_555
C16_6 N3_6 1_555 1_555
C21_6 C22_6 1_555 1_555
C27_6 C28_6 1_555 1_555
C34_6 C35_6 1_555 1_555
C57_6 N4_6 1_555 1_555
C58_6 N5_6 1_555 1_555
C58_6 N6_6 1_555 1_555
C63_6 C64_6 1_555 1_555
C69_6 C70_6 1_555 1_555
C76_6 C77_6 1_555 1_555
O11_5 Zn5_6 1_555 1_555
Zn5_6 O1_6 1_555 1_555
Zn7_4 O2_6 1_555 1_555
C1_6 C2_6 1_555 1_555
C2_6 C3_6 1_555 1_555
C3_6 H1_6 1_555 1_555
C4_6 C3_6 1_555 1_555
H2_6 C4_6 1_555 1_555
C5_6 C4_6 1_555 1_555
C6_6 C5_6 1_555 1_555
H3_6 C6_6 1_555 1_555
C7_6 C2_6 1_555 1_555
H4_6 C7_6 1_555 1_555
C8_6 C5_6 1_555 1_555
C13_6 C8_6 1_555 1_555
H8_6 C13_6 1_555 1_555
O1_6 C1_6 1_555 1_555
O2_6 C1_6 1_555 1_555
O7_6 Zn7_4 1_555 1_555
H25_6 O7_6 1_555 1_555
H26_6 O7_6 1_555 1_555
C82_6 C81_6 1_555 1_555
H49_6 C82_6 1_555 1_555
C84_6 C81_6 1_555 1_555
O21_4 C84_6 1_555 1_555
O13_6 Zn5_6 1_555 1_555
C6_6 C7_6 1_555 1_555
C84_6 O13_6 1_555 1_555

#END
