
###############################################################################
#
# This file contains modified crystal structure data generated from the
# MOF subset of the Cambridge Structural Database (CSD) v543 
# hosted by the Cambridge Crystallographic Data Centre (CCDC).
#
# This work is licensed under the Creative Commons
# Attribution-NonCommercial-ShareAlike 4.0 International License.
# To view a copy of this license, visit
# http://creativecommons.org/licenses/by-nc-sa/4.0/
# or send a letter to
# Creative Commons, PO Box 1866, Mountain View, CA 94042, USA.
#
# CIF created using the CSD Python API on 29 September 2022
# The structure has been converted into the P1 space group
# The structure has a 3D framework
# The original CSD entry PEVYUM is in the monoclinic crystal system
# The original CSD entry PEVYUM is in a Sohncke space group
# The framework has been calculated to contain at least 10.0% void space
# The void calculation uses a probe of radius 1.32A, grid spacing 0.4
#
###############################################################################

data_PEVYUM
_chemical_formula_moiety         '(C48 H40 Co4 N8 O10)n'
_symmetry_cell_setting           triclinic
_symmetry_space_group_name_H-M   'P 1'
_symmetry_Int_Tables_number      1
_space_group_name_Hall           'P 1'
loop_
_symmetry_equiv_pos_site_id
_symmetry_equiv_pos_as_xyz
1 x,y,z
_cell_length_a                   17.857(10)
_cell_length_b                   7.324(4)
_cell_length_c                   11.409(6)
_cell_angle_alpha                90
_cell_angle_beta                 97.668(9)
_cell_angle_gamma                90
_cell_volume                     1478.78
loop_
_atom_site_label
_atom_site_type_symbol
_atom_site_fract_x
_atom_site_fract_y
_atom_site_fract_z
F1 F 0.29671(16) 0.0965(8) 0.5106(3)
F2 F 0.70329(16) 0.0965(8) 0.4894(3)
Co6 Co 0.75096(5) 0.3462(2) 0.49690(7)
Co8 Co 0.24904(5) 0.3462(2) 0.50310(7)
N4 N 0.7486(3) 0.8466(15) 0.3123(4)
C15 C 0.6864(3) 0.8005(10) 0.2380(6)
H13 H 0.6429 0.7685 0.2698
C16 C 0.6845(3) 0.7986(10) 0.1166(5)
H14 H 0.6402 0.7680 0.0681
C17 C 0.7501(3) 0.8433(16) 0.0668(5)
C18 C 0.8139(4) 0.8889(10) 0.1448(5)
H15 H 0.8584 0.9205 0.1159
C19 C 0.8112(4) 0.8872(10) 0.2650(5)
H16 H 0.8549 0.9155 0.3155
Co4 Co 0.74904(5) 0.8462(2) 0.50310(7)
Co1 Co 0.25096(5) 0.8462(2) 0.49690(7)
O1 O 0.3652(3) 0.7502(9) 0.5110(4)
O2 O 0.3630(3) 0.4441(9) 0.5347(4)
O3 O 0.5100(3) 0.4460(8) 0.6312(4)
H1 H 0.4863 0.3533 0.6097
N1 N 0.2506(3) 0.8495(16) 0.3095(4)
C6 C 0.1900(3) 0.7911(11) 0.2343(6)
H6 H 0.1481 0.7488 0.2668
C7 C 0.1865(3) 0.7904(10) 0.1143(5)
H7 H 0.1424 0.7548 0.0671
C8 C 0.2499(3) 0.8436(17) 0.0627(5)
C9 C 0.3136(4) 0.9031(10) 0.1404(5)
H8 H 0.3570 0.9419 0.1108
C10 C 0.3106(4) 0.9028(10) 0.2603(5)
H9 H 0.3530 0.9421 0.3100
C11 C 0.3954(3) 0.5944(13) 0.5325(4)
C12 C 0.4823(3) 0.5935(14) 0.5593(5)
H10 H 0.4978 0.7065 0.6018
O4 O 0.6348(3) 0.7502(9) 0.4890(4)
O5 O 0.6370(3) 0.4441(9) 0.4653(4)
O6 O 0.4900(3) 0.4460(8) 0.3688(4)
H11 H 0.5137 0.3533 0.3903
C13 C 0.6046(3) 0.5944(13) 0.4675(4)
C14 C 0.5177(3) 0.5935(14) 0.4407(5)
H12 H 0.5022 0.7065 0.3982
N3 N 0.7494(3) 0.8495(16) 0.6905(4)
C20 C 0.8100(3) 0.7911(11) 0.7657(6)
H17 H 0.8519 0.7488 0.7332
C21 C 0.8135(3) 0.7904(10) 0.8857(5)
H18 H 0.8576 0.7548 0.9329
C22 C 0.7501(3) 0.8436(17) 0.9373(5)
C23 C 0.6864(4) 0.9031(10) 0.8596(5)
H19 H 0.6430 0.9419 0.8892
C24 C 0.6894(4) 0.9028(10) 0.7397(5)
H20 H 0.6470 0.9421 0.6900
O7 O 0.8630(3) 0.9441(9) 0.5347(4)
O8 O 0.1370(3) 0.9441(9) 0.4653(4)
N5 N 0.2514(3) 0.8466(15) 0.6877(4)
F3 F 0.79671(16) 0.5965(8) 0.5106(3)
F4 F 0.20329(16) 0.5965(8) 0.4894(3)
C1 C 0.3136(3) 0.8005(10) 0.7620(6)
H2 H 0.3571 0.7685 0.7302
C2 C 0.3155(3) 0.7986(10) 0.8834(5)
H3 H 0.3598 0.7680 0.9319
C3 C 0.2499(3) 0.8433(16) 0.9332(5)
C4 C 0.1861(4) 0.8889(10) 0.8552(5)
H4 H 0.1416 0.9205 0.8841
C5 C 0.1888(4) 0.8872(10) 0.7350(5)
H5 H 0.1451 0.9155 0.6845
N4_2 N 0.2486(3) 0.3466(15) 0.3123(4)
C15_2 C 0.1864(3) 0.3005(10) 0.2380(6)
H13_2 H 0.1429 0.2685 0.2698
C16_2 C 0.1845(3) 0.2986(10) 0.1166(5)
H14_2 H 0.1402 0.2680 0.0681
C17_2 C 0.2501(3) 0.3433(16) 0.0668(5)
C18_2 C 0.3139(4) 0.3889(10) 0.1448(5)
H15_2 H 0.3584 0.4205 0.1159
C19_2 C 0.3112(4) 0.3872(10) 0.2650(5)
H16_2 H 0.3549 0.4155 0.3155
O4_2 O 0.1348(3) 0.2502(9) 0.4890(4)
C13_2 C 0.1046(3) 0.0944(13) 0.4675(4)
C14_2 C 0.0177(3) 0.0935(14) 0.4407(5)
H12_2 H 0.0022 0.2065 0.3982
N3_2 N 0.2494(3) 0.3495(16) 0.6905(4)
C20_2 C 0.3100(3) 0.2911(11) 0.7657(6)
H17_2 H 0.3519 0.2488 0.7332
C21_2 C 0.3135(3) 0.2904(10) 0.8857(5)
H18_2 H 0.3576 0.2548 0.9329
C22_2 C 0.2501(3) 0.3436(17) 0.9373(5)
C23_2 C 0.1864(4) 0.4031(10) 0.8596(5)
H19_2 H 0.1430 0.4419 0.8892
C24_2 C 0.1894(4) 0.4028(10) 0.7397(5)
H20_2 H 0.1470 0.4421 0.6900
O3_2 O 0.0100(3) 0.9460(8) 0.6312(4)
H11_2 H 0.0137 0.8533 0.3903
O1_2 O 0.8652(3) 0.2502(9) 0.5110(4)
N1_2 N 0.7506(3) 0.3495(16) 0.3095(4)
C6_2 C 0.6900(3) 0.2911(11) 0.2343(6)
H6_2 H 0.6481 0.2488 0.2668
C7_2 C 0.6865(3) 0.2904(10) 0.1143(5)
H7_2 H 0.6424 0.2548 0.0671
C8_2 C 0.7499(3) 0.3436(17) 0.0627(5)
C9_2 C 0.8136(4) 0.4031(10) 0.1404(5)
H8_2 H 0.8570 0.4419 0.1108
C10_2 C 0.8106(4) 0.4028(10) 0.2603(5)
H9_2 H 0.8530 0.4421 0.3100
C11_2 C 0.8954(3) 0.0944(13) 0.5325(4)
C12_2 C 0.9823(3) 0.0935(14) 0.5593(5)
H10_2 H 0.9978 0.2065 0.6018
N5_2 N 0.7514(3) 0.3466(15) 0.6877(4)
C1_2 C 0.8136(3) 0.3005(10) 0.7620(6)
H2_2 H 0.8571 0.2685 0.7302
C2_2 C 0.8155(3) 0.2986(10) 0.8834(5)
H3_2 H 0.8598 0.2680 0.9319
C3_2 C 0.7499(3) 0.3433(16) 0.9332(5)
C4_2 C 0.6861(4) 0.3889(10) 0.8552(5)
H4_2 H 0.6416 0.4205 0.8841
C5_2 C 0.6888(4) 0.3872(10) 0.7350(5)
H5_2 H 0.6451 0.4155 0.6845
H1_2 H 0.9863 0.8533 0.6097
O6_2 O 0.9900(3) 0.9460(8) 0.3688(4)
loop_
_geom_bond_atom_site_label_1
_geom_bond_atom_site_label_2
_geom_bond_site_symmetry_1
_geom_bond_site_symmetry_2
Co6 F2 1_555 1_555
Co8 F1 1_555 1_555
N4 C15 1_555 1_555
C15 H13 1_555 1_555
C16 C15 1_555 1_555
H14 C16 1_555 1_555
C17 C16 1_555 1_555
C18 C17 1_555 1_555
H15 C18 1_555 1_555
C19 N4 1_555 1_555
H16 C19 1_555 1_555
Co4 N4 1_555 1_555
C18 C19 1_555 1_555
Co1 O1 1_555 1_555
O1 C11 1_555 1_555
O2 C11 1_555 1_555
O3 H1 1_555 1_555
N1 Co1 1_555 1_555
C6 N1 1_555 1_555
H6 C6 1_555 1_555
C7 C6 1_555 1_555
H7 C7 1_555 1_555
C9 C8 1_555 1_555
H8 C9 1_555 1_555
C10 N1 1_555 1_555
H9 C10 1_555 1_555
C11 C12 1_555 1_555
C12 O3 1_555 1_555
H10 C12 1_555 1_555
O4 C13 1_555 1_555
O5 C13 1_555 1_555
O6 H11 1_555 1_555
C13 C14 1_555 1_555
C14 C12 1_555 1_555
H12 C14 1_555 1_555
Co4 O4 1_555 1_555
N3 Co4 1_555 1_555
C20 N3 1_555 1_555
H17 C20 1_555 1_555
C21 C20 1_555 1_555
H18 C21 1_555 1_555
C23 C22 1_555 1_555
H19 C23 1_555 1_555
C24 N3 1_555 1_555
H20 C24 1_555 1_555
Co6 O5 1_555 1_555
Co8 O2 1_555 1_555
O7 Co4 1_555 1_555
O8 Co1 1_555 1_555
N5 Co1 1_555 1_555
F3 Co4 1_555 1_555
F4 Co1 1_555 1_555
C7 C8 1_555 1_555
C9 C10 1_555 1_555
O6 C14 1_555 1_555
C21 C22 1_555 1_555
C23 C24 1_555 1_555
Co6 F3 1_555 1_555
Co8 F4 1_555 1_555
N5 C1 1_555 1_555
C1 H2 1_555 1_555
C2 C1 1_555 1_555
H3 C2 1_555 1_555
C3 C2 1_555 1_555
C4 C3 1_555 1_555
H4 C4 1_555 1_555
C5 N5 1_555 1_555
H5 C5 1_555 1_555
C4 C5 1_555 1_555
N4_2 C15_2 1_555 1_555
C15_2 H13_2 1_555 1_555
C16_2 C15_2 1_555 1_555
H14_2 C16_2 1_555 1_555
C17_2 C16_2 1_555 1_555
C18_2 C17_2 1_555 1_555
H15_2 C18_2 1_555 1_555
C19_2 N4_2 1_555 1_555
H16_2 C19_2 1_555 1_555
Co8 N4_2 1_555 1_555
C18_2 C19_2 1_555 1_555
O4_2 C13_2 1_555 1_555
C13_2 C14_2 1_555 1_555
H12_2 C14_2 1_555 1_555
Co8 O4_2 1_555 1_555
N3_2 Co8 1_555 1_555
C20_2 N3_2 1_555 1_555
H17_2 C20_2 1_555 1_555
C21_2 C20_2 1_555 1_555
H18_2 C21_2 1_555 1_555
C23_2 C22_2 1_555 1_555
H19_2 C23_2 1_555 1_555
C24_2 N3_2 1_555 1_555
H20_2 C24_2 1_555 1_555
C21_2 C22_2 1_555 1_555
C23_2 C24_2 1_555 1_555
Co6 O1_2 1_555 1_555
O1_2 C11_2 1_555 1_555
N1_2 Co6 1_555 1_555
C6_2 N1_2 1_555 1_555
H6_2 C6_2 1_555 1_555
C7_2 C6_2 1_555 1_555
H7_2 C7_2 1_555 1_555
C9_2 C8_2 1_555 1_555
H8_2 C9_2 1_555 1_555
C10_2 N1_2 1_555 1_555
H9_2 C10_2 1_555 1_555
C11_2 C12_2 1_555 1_555
H10_2 C12_2 1_555 1_555
N5_2 Co6 1_555 1_555
C7_2 C8_2 1_555 1_555
C9_2 C10_2 1_555 1_555
N5_2 C1_2 1_555 1_555
C1_2 H2_2 1_555 1_555
C2_2 C1_2 1_555 1_555
H3_2 C2_2 1_555 1_555
C3_2 C2_2 1_555 1_555
C4_2 C3_2 1_555 1_555
H4_2 C4_2 1_555 1_555
C5_2 N5_2 1_555 1_555
H5_2 C5_2 1_555 1_555
C4_2 C5_2 1_555 1_555

#END
