
###############################################################################
#
# This file contains modified crystal structure data generated from the
# MOF subset of the Cambridge Structural Database (CSD) v543 
# hosted by the Cambridge Crystallographic Data Centre (CCDC).
#
# This work is licensed under the Creative Commons
# Attribution-NonCommercial-ShareAlike 4.0 International License.
# To view a copy of this license, visit
# http://creativecommons.org/licenses/by-nc-sa/4.0/
# or send a letter to
# Creative Commons, PO Box 1866, Mountain View, CA 94042, USA.
#
# CIF created using the CSD Python API on 29 September 2022
# The structure has been converted into the P1 space group
# The structure has a 3D framework
# The original CSD entry PEWFII is in the triclinic crystal system
# The framework has been calculated to contain at least 10.0% void space
# The void calculation uses a probe of radius 1.32A, grid spacing 0.4
# H atom positions have been added when not included in the experimental data
# Generated hydrogen atom positions removed from atoms on special positions
#
###############################################################################

data_PEWFII
_chemical_formula_moiety         '(C10 H10 Cu4 O12 U1)n'
_symmetry_cell_setting           triclinic
_symmetry_space_group_name_H-M   'P 1'
_symmetry_Int_Tables_number      1
_space_group_name_Hall           'P 1'
loop_
_symmetry_equiv_pos_site_id
_symmetry_equiv_pos_as_xyz
1 x,y,z
_cell_length_a                   7.1070(2)
_cell_length_b                   7.2234(2)
_cell_length_c                   9.2050(2)
_cell_angle_alpha                95.3770(10)
_cell_angle_beta                 91.2560(10)
_cell_angle_gamma                114.8930(10)
_cell_volume                     425.779
loop_
_atom_site_label
_atom_site_type_symbol
_atom_site_fract_x
_atom_site_fract_y
_atom_site_fract_z
Cu1 Cu -0.0000 -0.0000 0.5000
U1 U 0.5000 0.5000 0.5000
O5 O 0.3586(2) 0.22940(19) 0.46335(15)
O13 O 0.77790(19) 0.51482(19) 0.35368(13)
O14 O 0.22210(19) 0.48518(19) 0.64632(13)
O15 O 0.2397(2) 0.5993(2) 0.37788(13)
O16 O 0.7603(2) 0.4007(2) 0.62212(13)
O17 O 0.0102(2) 0.16313(19) 0.68625(14)
O18 O 0.4157(2) 0.4827(2) 0.23425(14)
O19 O 0.5843(2) 0.5173(2) 0.76575(14)
O20 O 0.6414(2) 0.77060(19) 0.53665(15)
Cu1_2 Cu 0.0000 1.0000 0.5000
C3 C 0.1322(2) 0.5247(2) 0.12236(15)
C5 C 0.2701(2) 0.5391(2) 0.25138(16)
O12 O 0.0965(3) 0.8362(2) 0.60899(17)
C6 C 0.0414(2) 0.4328(2) 0.86239(15)
C7 C 0.0938(2) 0.3551(2) 0.71816(15)
C9 C 0.1725(2) 0.4585(2) 0.98397(17)
H2 H 0.2886 0.4314 0.9732
Cu1_3 Cu 1.0000 -0.0000 0.5000
O6 O 0.9035(3) 0.1638(2) 0.39101(17)
Cu1_4 Cu 1.0000 1.0000 0.5000
O3 O 0.9898(2) 0.83687(19) 0.31375(14)
C1 C 0.9586(2) 0.5672(2) 0.13761(15)
C2 C 0.9062(2) 0.6449(2) 0.28184(15)
C4 C 0.8275(2) 0.5415(2) 0.01603(17)
H1 H 0.7114 0.5686 0.0268
C8 C 0.8678(2) 0.4753(2) 0.87764(15)
C10 C 0.7299(2) 0.4609(2) 0.74862(16)
loop_
_geom_bond_atom_site_label_1
_geom_bond_atom_site_label_2
_geom_bond_site_symmetry_1
_geom_bond_site_symmetry_2
U1 O5 1_555 1_555
O5 Cu1 1_555 1_555
O13 U1 1_555 1_555
O14 U1 1_555 1_555
O15 U1 1_555 1_555
O16 U1 1_555 1_555
O17 Cu1 1_555 1_555
O18 U1 1_555 1_555
O19 U1 1_555 1_555
O20 U1 1_555 1_555
O15 C5 1_555 1_555
O18 C5 1_555 1_555
C5 C3 1_555 1_555
O12 Cu1_2 1_555 1_555
O14 C7 1_555 1_555
O17 C7 1_555 1_555
C6 C7 1_555 1_555
H2 C9 1_555 1_555
C6 C9 1_555 1_555
O6 Cu1_3 1_555 1_555
Cu1_4 O3 1_555 1_555
O13 C2 1_555 1_555
O3 C2 1_555 1_555
C1 C2 1_555 1_555
C4 C1 1_555 1_555
H1 C4 1_555 1_555
O20 Cu1_4 1_555 1_555
O16 C10 1_555 1_555
O19 C10 1_555 1_555
C10 C8 1_555 1_555

#END
