
###############################################################################
#
# This file contains modified crystal structure data generated from the
# MOF subset of the Cambridge Structural Database (CSD) v543 
# hosted by the Cambridge Crystallographic Data Centre (CCDC).
#
# This work is licensed under the Creative Commons
# Attribution-NonCommercial-ShareAlike 4.0 International License.
# To view a copy of this license, visit
# http://creativecommons.org/licenses/by-nc-sa/4.0/
# or send a letter to
# Creative Commons, PO Box 1866, Mountain View, CA 94042, USA.
#
# CIF created using the CSD Python API on 29 September 2022
# The structure has been converted into the P1 space group
# The structure has a 3D framework
# The original CSD entry PEWGEF is in the rhombohedral crystal system
# The framework has been calculated to contain at least 10.0% void space
# The void calculation uses a probe of radius 1.32A, grid spacing 0.4
#
###############################################################################

data_PEWGEF
_chemical_formula_moiety         '(C90 H216 Cu27 N54 O72)n'
_symmetry_cell_setting           triclinic
_symmetry_space_group_name_H-M   'P 1'
_symmetry_Int_Tables_number      1
_space_group_name_Hall           'P 1'
loop_
_symmetry_equiv_pos_site_id
_symmetry_equiv_pos_as_xyz
1 x,y,z
_cell_length_a                   24.401(4)
_cell_length_b                   24.401(4)
_cell_length_c                   11.5733(18)
_cell_angle_alpha                90
_cell_angle_beta                 90
_cell_angle_gamma                120
_cell_volume                     5967.65
loop_
_atom_site_label
_atom_site_type_symbol
_atom_site_fract_x
_atom_site_fract_y
_atom_site_fract_z
Cu1 Cu 0.06354(7) 0.53177(4) 0.61591(11)
Cu2 Cu 0.02826(4) 0.57320(4) 0.37064(5)
O1 O 0.0757(3) 0.53785(17) 0.4486(6)
H1 H 0.1134 0.5567 0.4238
O2 O 0.0116(4) 0.5058(2) 0.2647(6)
O3 O 0.0233(6) 0.5116(3) 0.7705(9)
O6 O 0.1658(6) 0.5829(3) 0.6750(11)
H3 H 0.1890 0.6221 0.6566
O7 O 0.1271(5) 0.6545(6) 0.2856(10)
H4 H 0.1519 0.6388 0.2979
H5 H 0.1296 0.6661 0.2141
N1 N 0.0646(3) 0.6136(3) 0.6071(5)
N2 N 0.0501(3) 0.6310(3) 0.5040(5)
N3 N 0.0744(3) 0.7070(3) 0.6342(5)
C1 C 0.0974(6) 0.6585(5) 0.8042(7)
H6 H 0.1010 0.6208 0.8187
H7 H 0.0656 0.6584 0.8561
H8 H 0.1384 0.6966 0.8180
C2 C 0.0779(4) 0.6580(3) 0.6818(6)
C3 C 0.0573(4) 0.6880(4) 0.5227(6)
C4 C 0.0482(5) 0.7268(4) 0.4327(7)
H9 H 0.0119 0.7317 0.4537
H10 H 0.0403 0.7055 0.3577
H11 H 0.0863 0.7686 0.4279
H16 H 0.1890 0.5669 0.6566
Cu3 Cu 0.02826(4) 0.45506(6) 0.37064(5)
O8 O 0.1271(5) 0.4726(8) 0.2856(10)
H17 H 0.1519 0.5131 0.2979
H18 H 0.1296 0.4635 0.2141
N4 N 0.0646(3) 0.4510(4) 0.6071(5)
N5 N 0.0501(3) 0.4191(4) 0.5040(5)
N6 N 0.0744(3) 0.3674(4) 0.6342(5)
C7 C 0.0974(6) 0.4389(8) 0.8042(7)
H19 H 0.1010 0.4802 0.8187
H20 H 0.0656 0.4072 0.8561
H21 H 0.1384 0.4418 0.8180
C8 C 0.0779(4) 0.4199(5) 0.6818(6)
C9 C 0.0573(4) 0.3693(6) 0.5227(6)
C10 C 0.0482(5) 0.3214(6) 0.4327(7)
H22 H 0.0119 0.2802 0.4537
H23 H 0.0403 0.3348 0.3577
H24 H 0.0863 0.3177 0.4279
Cu4 Cu 0.09347(4) 0.78839(6) 0.70397(5)
Cu5 Cu 0.09347(4) 0.30507(4) 0.70397(5)
O4 O 0.9309(11) 0.4654(5) 0.699(2)
O5 O 0.9467(7) 0.4734(3) 0.4872(15)
H2 H 0.9466 0.4488 0.4328
C5 C 0.9387(15) 0.4693(8) 0.900(3)
H12 H 0.9708 0.4854 0.9587
H13 H 0.9131 0.4887 0.9085
C6 C 0.9699(12) 0.4849(6) 0.776(2)
H14 H 0.9131 0.4244 0.9085
H15 H 0.9466 0.4978 0.4328
N7 N 0.9659(4) 0.5923(3) 0.3009(5)
N8 N 0.9659(4) 0.3737(3) 0.3009(5)
Cu1_2 Cu 0.46823(4) 0.53177(8) 0.61591(11)
Cu2_2 Cu 0.42680(4) 0.45506(6) 0.37064(5)
O1_2 O 0.46215(17) 0.53785(34) 0.4486(6)
H1_2 H 0.4433 0.5567 0.4238
O2_2 O 0.4942(2) 0.5058(4) 0.2647(6)
O3_2 O 0.4884(3) 0.5117(7) 0.7705(9)
O4_2 O 0.5346(5) 0.4655(12) 0.699(2)
O5_2 O 0.5266(3) 0.4733(8) 0.4872(15)
H2_2 H 0.5512 0.4978 0.4328
O6_2 O 0.4171(3) 0.5829(7) 0.6750(11)
H3_2 H 0.3779 0.5669 0.6566
O7_2 O 0.3455(6) 0.4726(8) 0.2856(10)
H4_2 H 0.3612 0.5131 0.2979
H5_2 H 0.3339 0.4635 0.2141
N1_2 N 0.3864(3) 0.4510(4) 0.6071(5)
N2_2 N 0.3690(3) 0.4191(4) 0.5040(5)
N3_2 N 0.2930(3) 0.3674(4) 0.6342(5)
C1_2 C 0.3415(5) 0.4389(8) 0.8042(7)
H6_2 H 0.3792 0.4802 0.8187
H7_2 H 0.3416 0.4072 0.8561
H8_2 H 0.3034 0.4418 0.8180
C2_2 C 0.3420(3) 0.4199(5) 0.6818(6)
C3_2 C 0.3120(4) 0.3693(6) 0.5227(6)
C4_2 C 0.2732(4) 0.3214(6) 0.4327(7)
H9_2 H 0.2683 0.2802 0.4537
H10_2 H 0.2945 0.3348 0.3577
H11_2 H 0.2314 0.3177 0.4279
C5_2 C 0.5307(8) 0.4694(17) 0.900(3)
H12_2 H 0.5146 0.4854 0.9587
H13_2 H 0.5113 0.4244 0.9085
C6_2 C 0.5151(6) 0.4850(13) 0.776(2)
H14_2 H 0.5756 0.4887 0.9085
H15_2 H 0.5022 0.4488 0.4328
H16_2 H 0.4331 0.6221 0.6566
Cu3_2 Cu 0.54494(6) 0.57320(7) 0.37064(5)
O8_2 O 0.5274(8) 0.6545(9) 0.2856(10)
H17_2 H 0.4869 0.6388 0.2979
H18_2 H 0.5365 0.6661 0.2141
N4_2 N 0.5490(4) 0.6136(5) 0.6071(5)
N5_2 N 0.5809(4) 0.6310(5) 0.5040(5)
N6_2 N 0.6326(4) 0.7070(5) 0.6342(5)
C7_2 C 0.5611(8) 0.6585(10) 0.8042(7)
H19_2 H 0.5198 0.6208 0.8187
H20_2 H 0.5928 0.6584 0.8561
H21_2 H 0.5582 0.6966 0.8180
C8_2 C 0.5801(5) 0.6580(6) 0.6818(6)
C9_2 C 0.6307(6) 0.6880(7) 0.5227(6)
C10_2 C 0.6786(6) 0.7268(8) 0.4327(7)
H22_2 H 0.7198 0.7317 0.4537
H23_2 H 0.6652 0.7055 0.3577
H24_2 H 0.6823 0.7686 0.4279
Cu4_2 Cu 0.21161(6) 0.30507(7) 0.70397(5)
Cu5_2 Cu 0.69493(4) 0.78839(6) 0.70397(5)
N7_2 N 0.4077(3) 0.3737(5) 0.3009(5)
N8_2 N 0.6263(3) 0.5923(5) 0.3009(5)
O4_3 O 0.5345(12) 0.0691(11) 0.699(2)
O5_3 O 0.5267(8) 0.0533(7) 0.4872(15)
H2_3 H 0.5022 0.0534 0.4328
C5_3 C 0.5306(17) 0.0613(15) 0.900(3)
H12_3 H 0.5146 0.0292 0.9587
H13_3 H 0.5756 0.0869 0.9085
C6_3 C 0.5150(13) 0.0301(12) 0.776(2)
H14_3 H 0.5113 0.0869 0.9085
H15_3 H 0.5512 0.0534 0.4328
N7_3 N 0.6263(5) 0.0341(4) 0.3009(5)
N8_3 N 0.4077(5) 0.0341(4) 0.3009(5)
Cu1_3 Cu 0.46823(8) 0.93646(7) 0.61591(11)
Cu2_3 Cu 0.54494(6) 0.97174(4) 0.37064(5)
O1_3 O 0.46215(34) 0.9243(3) 0.4486(6)
H1_3 H 0.4433 0.8866 0.4238
O2_3 O 0.4942(4) 0.9884(4) 0.2647(6)
O3_3 O 0.4883(7) 0.9767(6) 0.7705(9)
O6_3 O 0.4171(7) 0.8342(6) 0.6750(11)
H3_3 H 0.4331 0.8110 0.6566
O7_3 O 0.5274(8) 0.8729(5) 0.2856(10)
H4_3 H 0.4869 0.8481 0.2979
H5_3 H 0.5365 0.8704 0.2141
N1_3 N 0.5490(4) 0.9354(3) 0.6071(5)
N2_3 N 0.5809(4) 0.9499(3) 0.5040(5)
N3_3 N 0.6326(4) 0.9256(3) 0.6342(5)
C1_3 C 0.5611(8) 0.9026(6) 0.8042(7)
H6_3 H 0.5198 0.8990 0.8187
H7_3 H 0.5928 0.9344 0.8561
H8_3 H 0.5582 0.8616 0.8180
C2_3 C 0.5801(5) 0.9221(4) 0.6818(6)
C3_3 C 0.6307(6) 0.9427(4) 0.5227(6)
C4_3 C 0.6786(6) 0.9518(5) 0.4327(7)
H9_3 H 0.7198 0.9881 0.4537
H10_3 H 0.6652 0.9597 0.3577
H11_3 H 0.6823 0.9137 0.4279
H16_3 H 0.3779 0.8110 0.6566
Cu3_3 Cu 0.42680(7) 0.97174(4) 0.37064(5)
O8_3 O 0.3455(9) 0.8729(5) 0.2856(10)
H17_3 H 0.3612 0.8481 0.2979
H18_3 H 0.3339 0.8704 0.2141
N4_3 N 0.3864(5) 0.9354(3) 0.6071(5)
N5_3 N 0.3690(5) 0.9499(3) 0.5040(5)
N6_3 N 0.2930(5) 0.9256(3) 0.6342(5)
C7_3 C 0.3415(10) 0.9026(6) 0.8042(7)
H19_3 H 0.3792 0.8990 0.8187
H20_3 H 0.3416 0.9344 0.8561
H21_3 H 0.3034 0.8616 0.8180
C8_3 C 0.3420(6) 0.9221(4) 0.6818(6)
C9_3 C 0.3120(7) 0.9427(4) 0.5227(6)
C10_3 C 0.2732(8) 0.9518(5) 0.4327(7)
H22_3 H 0.2683 0.9881 0.4537
H23_3 H 0.2945 0.9597 0.3577
H24_3 H 0.2314 0.9137 0.4279
Cu4_3 Cu 0.69493(7) 0.90653(4) 0.70397(5)
Cu5_3 Cu 0.21161(6) 0.90653(4) 0.70397(5)
H8_4 H 0.8051 0.0299 0.1513
Cu4_4 Cu 0.76013(4) 0.12173(6) 0.03731(5)
O3_4 O 0.6900(6) 0.8449(3) 0.1038(9)
O4_4 O 0.5976(11) 0.7987(5) 0.032(2)
O6_4 O 0.8325(6) 0.9162(3) 0.0083(11)
C1_4 C 0.7641(6) 0.9918(5) 0.1375(7)
H6_4 H 0.7677 0.9541 0.1520
H7_4 H 0.7323 0.9917 0.1894
C2_4 C 0.7446(4) 0.9913(3) 0.0151(6)
C5_4 C 0.6054(15) 0.8026(8) 0.233(3)
H12_4 H 0.6375 0.8187 0.2920
H13_4 H 0.5798 0.8220 0.2418
C6_4 C 0.6366(12) 0.8182(6) 0.109(2)
H14_4 H 0.5798 0.7577 0.2418
C7_4 C 0.7641(6) 0.7722(8) 0.1375(7)
H19_4 H 0.7677 0.8135 0.1520
H20_4 H 0.7323 0.7405 0.1894
H21_4 H 0.8051 0.7751 0.1513
C8_4 C 0.7446(4) 0.7532(5) 0.0151(6)
Cu5_4 Cu 0.76013(4) 0.63841(4) 0.03731(5)
Cu1_4 Cu 0.73021(7) 0.86510(4) 0.94924(11)
O1_4 O 0.7424(3) 0.87118(17) 0.7819(6)
H1_4 H 0.7801 0.8900 0.7571
O2_4 O 0.6783(4) 0.8391(2) 0.5980(6)
O5_4 O 0.6134(7) 0.8067(3) 0.8205(15)
H2_4 H 0.6133 0.7821 0.7661
H3_4 H 0.8557 0.9554 0.9899
O7_4 O 0.7938(5) 0.9878(6) 0.6189(10)
H4_4 H 0.8186 0.9721 0.6312
H5_4 H 0.7963 0.9994 0.5474
N1_4 N 0.7313(3) 0.9469(3) 0.9404(5)
N2_4 N 0.7168(3) 0.9643(3) 0.8373(5)
H15_4 H 0.6133 0.8311 0.7661
H16_4 H 0.8557 0.9002 0.9899
O8_4 O 0.7938(5) 0.8059(8) 0.6189(10)
H17_4 H 0.8186 0.8464 0.6312
H18_4 H 0.7963 0.7968 0.5474
N4_4 N 0.7313(3) 0.7843(4) 0.9404(5)
N5_4 N 0.7168(3) 0.7524(4) 0.8373(5)
N6_4 N 0.7411(3) 0.7007(4) 0.9675(5)
C9_4 C 0.7240(4) 0.7026(6) 0.8560(6)
C10_4 C 0.7149(5) 0.6547(6) 0.7660(7)
H22_4 H 0.6786 0.6135 0.7870
H23_4 H 0.7070 0.6681 0.6910
H24_4 H 0.7530 0.6510 0.7612
H21_5 H 0.2249 0.0299 0.1513
Cu5_5 Cu 0.36159(4) 0.12173(6) 0.03731(5)
N6_5 N 0.2993(4) 0.0403(5) 0.9675(5)
C9_5 C 0.2974(6) 0.0213(7) 0.8560(6)
C10_5 C 0.3453(6) 0.0601(8) 0.7660(7)
H22_5 H 0.3865 0.0650 0.7870
H23_5 H 0.3319 0.0388 0.6910
H24_5 H 0.3490 0.1019 0.7612
Cu1_5 Cu 0.13490(4) 0.86510(8) 0.94924(11)
O1_5 O 0.12882(17) 0.87118(34) 0.7819(6)
H1_5 H 0.1100 0.8900 0.7571
O2_5 O 0.1609(2) 0.8391(4) 0.5980(6)
O5_5 O 0.1933(3) 0.8066(8) 0.8205(15)
H2_5 H 0.2179 0.8311 0.7661
H3_5 H 0.0446 0.9002 0.9899
O7_5 O 0.0122(6) 0.8059(8) 0.6189(10)
H4_5 H 0.0279 0.8464 0.6312
H5_5 H 0.0006 0.7968 0.5474
N1_5 N 0.0531(3) 0.7843(4) 0.9404(5)
N2_5 N 0.0357(3) 0.7524(4) 0.8373(5)
H15_5 H 0.1689 0.7821 0.7661
H16_5 H 0.0998 0.9554 0.9899
O8_5 O 0.1941(8) 0.9878(9) 0.6189(10)
H17_5 H 0.1536 0.9721 0.6312
H18_5 H 0.2032 0.9994 0.5474
N4_5 N 0.2157(4) 0.9469(5) 0.9404(5)
N5_5 N 0.2476(4) 0.9643(5) 0.8373(5)
H8_5 H 0.9701 0.7751 0.1513
Cu4_5 Cu 0.87827(6) 0.63841(7) 0.03731(5)
N3_4 N 0.9597(3) 0.7007(4) 0.9675(5)
C3_4 C 0.9787(4) 0.7026(6) 0.8560(6)
C4_4 C 0.9399(4) 0.6547(6) 0.7660(7)
H9_4 H 0.9350 0.6135 0.7870
H10_4 H 0.9612 0.6681 0.6910
H11_4 H 0.8981 0.6510 0.7612
O3_5 O 0.1550(7) 0.3100(6) 0.1038(9)
O4_5 O 0.2012(12) 0.4024(11) 0.032(2)
O6_5 O 0.0838(7) 0.1675(6) 0.0083(11)
C1_5 C 0.2278(8) 0.2359(6) 0.1375(7)
H6_5 H 0.1865 0.2323 0.1520
H7_5 H 0.2595 0.2677 0.1894
H8_6 H 0.2249 0.1949 0.1513
C2_5 C 0.2468(5) 0.2554(4) 0.0151(6)
C5_5 C 0.1973(17) 0.3946(15) 0.233(3)
H12_5 H 0.1813 0.3625 0.2920
H13_5 H 0.2423 0.4202 0.2418
C6_5 C 0.1817(13) 0.3634(12) 0.109(2)
H14_5 H 0.1780 0.4202 0.2418
C7_5 C 0.0082(10) 0.2359(6) 0.1375(7)
H19_5 H 0.0459 0.2323 0.1520
H20_5 H 0.0083 0.2677 0.1894
C8_5 C 0.0087(6) 0.2554(4) 0.0151(6)
Cu4_6 Cu 0.36159(7) 0.23987(4) 0.03731(5)
Cu1_6 Cu 0.13490(8) 0.26979(7) 0.94924(11)
O1_6 O 0.12882(34) 0.2576(3) 0.7819(6)
H1_6 H 0.1100 0.2199 0.7571
O2_6 O 0.1609(4) 0.3217(4) 0.5980(6)
O5_6 O 0.1934(8) 0.3866(7) 0.8205(15)
H2_6 H 0.1689 0.3867 0.7661
H3_6 H 0.0998 0.1443 0.9899
O7_6 O 0.1941(8) 0.2062(5) 0.6189(10)
H4_6 H 0.1536 0.1814 0.6312
H5_6 H 0.2032 0.2037 0.5474
N1_6 N 0.2157(4) 0.2687(3) 0.9404(5)
N2_6 N 0.2476(4) 0.2832(3) 0.8373(5)
N3_5 N 0.2993(4) 0.2589(3) 0.9675(5)
C3_5 C 0.2974(6) 0.2760(4) 0.8560(6)
C4_5 C 0.3453(6) 0.2851(5) 0.7660(7)
H9_5 H 0.3865 0.3214 0.7870
H10_5 H 0.3319 0.2930 0.6910
H11_5 H 0.3490 0.2470 0.7612
H15_6 H 0.2179 0.3867 0.7661
H16_6 H 0.0446 0.1443 0.9899
O8_6 O 0.0122(9) 0.2062(5) 0.6189(10)
H17_6 H 0.0279 0.1814 0.6312
H18_6 H 0.0006 0.2037 0.5474
N4_6 N 0.0531(5) 0.2687(3) 0.9404(5)
N5_6 N 0.0357(5) 0.2832(3) 0.8373(5)
H21_6 H 0.9701 0.1949 0.1513
Cu5_6 Cu 0.87827(6) 0.23987(4) 0.03731(5)
Cu1_7 Cu 0.39687(7) 0.19844(4) 0.28258(11)
O1_7 O 0.4090(3) 0.20452(17) 0.1153(6)
H1_7 H 0.4467 0.2234 0.0905
O3_6 O 0.3566(6) 0.1783(3) 0.4372(9)
O4_6 O 0.2642(11) 0.1321(5) 0.366(2)
O5_7 O 0.2800(7) 0.1401(3) 0.1539(15)
H2_7 H 0.2799 0.1155 0.0995
O6_6 O 0.4991(6) 0.2496(3) 0.3417(11)
H3_7 H 0.5223 0.2888 0.3233
N1_7 N 0.3979(3) 0.2803(3) 0.2738(5)
N2_7 N 0.3834(3) 0.2977(3) 0.1707(5)
C1_6 C 0.4307(6) 0.3252(5) 0.4709(7)
H6_6 H 0.4343 0.2875 0.4854
H7_6 H 0.3989 0.3251 0.5228
H8_7 H 0.4717 0.3633 0.4847
C2_6 C 0.4112(4) 0.3247(3) 0.3485(6)
C3_6 C 0.3906(4) 0.3547(4) 0.1894(6)
C4_6 C 0.3815(5) 0.3935(4) 0.0994(7)
H9_6 H 0.3452 0.3984 0.1204
H10_6 H 0.3736 0.3722 0.0244
H11_6 H 0.4196 0.4353 0.0946
C5_6 C 0.2720(15) 0.1360(8) 0.567(3)
H12_6 H 0.3041 0.1521 0.6254
H13_6 H 0.2464 0.1554 0.5752
C6_6 C 0.3032(12) 0.1516(6) 0.443(2)
H14_6 H 0.2464 0.0911 0.5752
H15_7 H 0.2799 0.1645 0.0995
H16_7 H 0.5223 0.2336 0.3233
N4_7 N 0.3979(3) 0.1177(4) 0.2738(5)
N5_7 N 0.3834(3) 0.0858(4) 0.1707(5)
C7_6 C 0.4307(6) 0.1056(8) 0.4709(7)
H19_6 H 0.4343 0.1469 0.4854
H20_6 H 0.3989 0.0739 0.5228
H21_7 H 0.4717 0.1085 0.4847
C8_6 C 0.4112(4) 0.0866(5) 0.3485(6)
C9_6 C 0.3906(4) 0.0360(6) 0.1894(6)
H23_6 H 0.3736 0.0015 0.0244
O2_7 O 0.3449(4) 0.1725(2) 0.9314(6)
O7_7 O 0.4604(5) 0.3212(6) 0.9523(10)
H4_7 H 0.4852 0.3055 0.9646
H5_7 H 0.4629 0.3328 0.8808
O8_7 O 0.4604(5) 0.1393(8) 0.9523(10)
H17_7 H 0.4852 0.1798 0.9646
H18_7 H 0.4629 0.1302 0.8808
C10_6 C 0.3815(5) 0.9881(6) 0.0994(7)
H22_6 H 0.3452 0.9469 0.1204
H24_6 H 0.4196 0.9844 0.0946
C10_7 C 0.0119(6) 0.3935(8) 0.0994(7)
H22_7 H 0.0531 0.3984 0.1204
H24_7 H 0.0156 0.4353 0.0946
Cu1_8 Cu 0.80156(4) 0.19844(8) 0.28258(11)
O1_8 O 0.79548(17) 0.20452(34) 0.1153(6)
H1_8 H 0.7766 0.2234 0.0905
O3_7 O 0.8217(3) 0.1784(7) 0.4372(9)
O4_7 O 0.8679(5) 0.1322(12) 0.366(2)
O5_8 O 0.8599(3) 0.1400(8) 0.1539(15)
H2_8 H 0.8845 0.1645 0.0995
O6_7 O 0.7504(3) 0.2496(7) 0.3417(11)
H3_8 H 0.7112 0.2336 0.3233
N1_8 N 0.7197(3) 0.1177(4) 0.2738(5)
N2_8 N 0.7023(3) 0.0858(4) 0.1707(5)
C1_7 C 0.6748(5) 0.1056(8) 0.4709(7)
H6_7 H 0.7125 0.1469 0.4854
H7_7 H 0.6749 0.0739 0.5228
H8_8 H 0.6367 0.1085 0.4847
C2_7 C 0.6753(3) 0.0866(5) 0.3485(6)
C3_7 C 0.6453(4) 0.0360(6) 0.1894(6)
H10_7 H 0.6278 0.0015 0.0244
C5_7 C 0.8640(8) 0.1361(17) 0.567(3)
H12_7 H 0.8479 0.1521 0.6254
H13_7 H 0.8446 0.0911 0.5752
C6_7 C 0.8484(6) 0.1517(13) 0.443(2)
H14_7 H 0.9089 0.1554 0.5752
H15_8 H 0.8355 0.1155 0.0995
H16_8 H 0.7664 0.2888 0.3233
N4_8 N 0.8823(4) 0.2803(5) 0.2738(5)
N5_8 N 0.9142(4) 0.2977(5) 0.1707(5)
C7_7 C 0.8944(8) 0.3252(10) 0.4709(7)
H19_7 H 0.8531 0.2875 0.4854
H20_7 H 0.9261 0.3251 0.5228
H21_8 H 0.8915 0.3633 0.4847
C8_7 C 0.9134(5) 0.3247(6) 0.3485(6)
C9_7 C 0.9640(6) 0.3547(7) 0.1894(6)
H23_7 H 0.9985 0.3722 0.0244
C4_7 C 0.6065(4) 0.9881(6) 0.0994(7)
H9_7 H 0.6016 0.9469 0.1204
H11_7 H 0.5647 0.9844 0.0946
C4_8 C 0.0119(6) 0.6185(5) 0.0994(7)
H9_8 H 0.0531 0.6548 0.1204
H11_8 H 0.0156 0.5804 0.0946
Cu1_9 Cu 0.80156(8) 0.60313(7) 0.28258(11)
O1_9 O 0.79548(34) 0.5910(3) 0.1153(6)
H1_9 H 0.7766 0.5533 0.0905
O3_8 O 0.8216(7) 0.6434(6) 0.4372(9)
O4_8 O 0.8678(12) 0.7358(11) 0.366(2)
O5_9 O 0.8600(8) 0.7200(7) 0.1539(15)
H2_9 H 0.8355 0.7201 0.0995
O6_8 O 0.7504(7) 0.5009(6) 0.3417(11)
H3_9 H 0.7664 0.4777 0.3233
N1_9 N 0.8823(4) 0.6021(3) 0.2738(5)
N2_9 N 0.9142(4) 0.6166(3) 0.1707(5)
C1_8 C 0.8944(8) 0.5693(6) 0.4709(7)
H6_8 H 0.8531 0.5657 0.4854
H7_8 H 0.9261 0.6011 0.5228
H8_9 H 0.8915 0.5283 0.4847
C2_8 C 0.9134(5) 0.5888(4) 0.3485(6)
C3_8 C 0.9640(6) 0.6094(4) 0.1894(6)
H10_8 H 0.9985 0.6264 0.0244
C5_8 C 0.8639(17) 0.7280(15) 0.567(3)
H12_8 H 0.8479 0.6959 0.6254
H13_8 H 0.9089 0.7536 0.5752
C6_8 C 0.8483(13) 0.6968(12) 0.443(2)
H14_8 H 0.8446 0.7536 0.5752
H15_9 H 0.8845 0.7201 0.0995
H16_9 H 0.7112 0.4777 0.3233
N4_9 N 0.7197(5) 0.6021(3) 0.2738(5)
N5_9 N 0.7023(5) 0.6166(3) 0.1707(5)
C7_8 C 0.6748(10) 0.5693(6) 0.4709(7)
H19_8 H 0.7125 0.5657 0.4854
H20_8 H 0.6749 0.6011 0.5228
H21_9 H 0.6367 0.5283 0.4847
C8_8 C 0.6753(6) 0.5888(4) 0.3485(6)
C9_8 C 0.6453(7) 0.6094(4) 0.1894(6)
C10_8 C 0.6065(8) 0.6185(5) 0.0994(7)
H22_8 H 0.6016 0.6548 0.1204
H23_8 H 0.6278 0.6264 0.0244
H24_8 H 0.5647 0.5804 0.0946
O2_8 O 0.8275(4) 0.6551(4) 0.9314(6)
O7_8 O 0.8607(8) 0.5396(5) 0.9523(10)
H4_8 H 0.8202 0.5148 0.9646
H5_8 H 0.8698 0.5371 0.8808
O8_8 O 0.6788(9) 0.5396(5) 0.9523(10)
H17_8 H 0.6945 0.5148 0.9646
H18_8 H 0.6672 0.5371 0.8808
N3_6 N 0.7411(3) 0.0403(3) 0.9675(5)
C3_9 C 0.7240(4) 0.0213(4) 0.8560(6)
C4_9 C 0.7149(5) 0.0601(4) 0.7660(7)
H9_9 H 0.6786 0.0650 0.7870
H10_9 H 0.7070 0.0388 0.6910
H11_9 H 0.7530 0.1019 0.7612
N6_6 N 0.9597(5) 0.2589(3) 0.9675(5)
C9_9 C 0.9787(7) 0.2760(4) 0.8560(6)
C10_9 C 0.9399(8) 0.2851(5) 0.7660(7)
H22_9 H 0.9350 0.3214 0.7870
H23_9 H 0.9612 0.2930 0.6910
H24_9 H 0.8981 0.2470 0.7612
O2_9 O 0.8275(2) 0.1725(4) 0.9314(6)
O7_9 O 0.6788(6) 0.1393(8) 0.9523(10)
H4_9 H 0.6945 0.1798 0.9646
H5_9 H 0.6672 0.1302 0.8808
O8_9 O 0.8607(8) 0.3212(9) 0.9523(10)
H17_9 H 0.8202 0.3055 0.9646
H18_9 H 0.8698 0.3328 0.8808
O3_9 O 0.1551(3) 0.8450(7) 0.1038(9)
O4_9 O 0.2013(5) 0.7988(12) 0.032(2)
O6_9 O 0.0838(3) 0.9162(7) 0.0083(11)
C1_9 C 0.0082(5) 0.7722(8) 0.1375(7)
H6_9 H 0.0459 0.8135 0.1520
H7_9 H 0.0083 0.7405 0.1894
C2_9 C 0.0087(3) 0.7532(5) 0.0151(6)
C5_9 C 0.1974(8) 0.8027(17) 0.233(3)
H12_9 H 0.1813 0.8187 0.2920
H13_9 H 0.1780 0.7577 0.2418
C6_9 C 0.1818(6) 0.8183(13) 0.109(2)
H14_9 H 0.2423 0.8220 0.2418
C7_9 C 0.2278(8) 0.9918(10) 0.1375(7)
H19_9 H 0.1865 0.9541 0.1520
H20_9 H 0.2595 0.9917 0.1894
C8_9 C 0.2468(5) 0.9913(6) 0.0151(6)
loop_
_geom_bond_atom_site_label_1
_geom_bond_atom_site_label_2
_geom_bond_site_symmetry_1
_geom_bond_site_symmetry_2
Cu1 O1 1_555 1_555
Cu2 O1 1_555 1_555
O1 H1 1_555 1_555
O2 Cu2 1_555 1_555
O3 Cu1 1_555 1_555
O6 Cu1 1_555 1_555
H3 O6 1_555 1_555
O7 Cu2 1_555 1_555
H4 O7 1_555 1_555
H5 O7 1_555 1_555
N1 Cu1 1_555 1_555
N2 Cu2 1_555 1_555
N3 C2 1_555 1_555
C1 H6 1_555 1_555
H7 C1 1_555 1_555
H8 C1 1_555 1_555
C2 N1 1_555 1_555
C3 N2 1_555 1_555
C4 C3 1_555 1_555
H9 C4 1_555 1_555
H10 C4 1_555 1_555
H11 C4 1_555 1_555
H16 O6 1_555 1_555
Cu3 O1 1_555 1_555
O8 Cu3 1_555 1_555
H17 O8 1_555 1_555
H18 O8 1_555 1_555
N4 Cu1 1_555 1_555
N5 Cu3 1_555 1_555
N6 C8 1_555 1_555
C7 H19 1_555 1_555
H20 C7 1_555 1_555
H21 C7 1_555 1_555
C8 N4 1_555 1_555
C9 N5 1_555 1_555
C10 C9 1_555 1_555
H22 C10 1_555 1_555
H23 C10 1_555 1_555
H24 C10 1_555 1_555
Cu4 N3 1_555 1_555
Cu5 N6 1_555 1_555
O2 Cu3 1_555 1_555
N1 N2 1_555 1_555
N3 C3 1_555 1_555
C1 C2 1_555 1_555
N4 N5 1_555 1_555
N6 C9 1_555 1_555
C7 C8 1_555 1_555
O4 C6 1_555 1_555
H2 O5 1_555 1_555
C5 H12 1_555 1_555
H13 C5 1_555 1_555
H14 C5 1_555 1_555
H15 O5 1_555 1_555
C5 C6 1_555 1_555
Cu1_2 O1_2 1_555 1_555
Cu2_2 O1_2 1_555 1_555
O1_2 H1_2 1_555 1_555
O2_2 Cu2_2 1_555 1_555
O3_2 Cu1_2 1_555 1_555
O4_2 C6_2 1_555 1_555
O5_2 Cu2_2 1_555 1_555
H2_2 O5_2 1_555 1_555
O6_2 Cu1_2 1_555 1_555
H3_2 O6_2 1_555 1_555
O7_2 Cu2_2 1_555 1_555
H4_2 O7_2 1_555 1_555
H5_2 O7_2 1_555 1_555
N1_2 Cu1_2 1_555 1_555
N2_2 Cu2_2 1_555 1_555
N3_2 C2_2 1_555 1_555
C1_2 H6_2 1_555 1_555
H7_2 C1_2 1_555 1_555
H8_2 C1_2 1_555 1_555
C2_2 N1_2 1_555 1_555
C3_2 N2_2 1_555 1_555
C4_2 C3_2 1_555 1_555
H9_2 C4_2 1_555 1_555
H10_2 C4_2 1_555 1_555
H11_2 C4_2 1_555 1_555
C5_2 H12_2 1_555 1_555
H13_2 C5_2 1_555 1_555
C6_2 O3_2 1_555 1_555
H14_2 C5_2 1_555 1_555
H15_2 O5_2 1_555 1_555
H16_2 O6_2 1_555 1_555
Cu3_2 O1_2 1_555 1_555
O8_2 Cu3_2 1_555 1_555
H17_2 O8_2 1_555 1_555
H18_2 O8_2 1_555 1_555
N4_2 Cu1_2 1_555 1_555
N5_2 Cu3_2 1_555 1_555
N6_2 C8_2 1_555 1_555
C7_2 H19_2 1_555 1_555
H20_2 C7_2 1_555 1_555
H21_2 C7_2 1_555 1_555
C8_2 N4_2 1_555 1_555
C9_2 N5_2 1_555 1_555
C10_2 C9_2 1_555 1_555
H22_2 C10_2 1_555 1_555
H23_2 C10_2 1_555 1_555
H24_2 C10_2 1_555 1_555
Cu4_2 N3_2 1_555 1_555
Cu5_2 N6_2 1_555 1_555
N7_2 Cu2_2 1_555 1_555
N8_2 Cu3_2 1_555 1_555
O2_2 Cu3_2 1_555 1_555
O5_2 Cu3_2 1_555 1_555
N1_2 N2_2 1_555 1_555
N3_2 C3_2 1_555 1_555
C1_2 C2_2 1_555 1_555
C5_2 C6_2 1_555 1_555
N4_2 N5_2 1_555 1_555
N6_2 C9_2 1_555 1_555
C7_2 C8_2 1_555 1_555
O4_3 C6_3 1_555 1_555
H2_3 O5_3 1_555 1_555
C5_3 H12_3 1_555 1_555
H13_3 C5_3 1_555 1_555
H14_3 C5_3 1_555 1_555
H15_3 O5_3 1_555 1_555
C5_3 C6_3 1_555 1_555
Cu1_3 O1_3 1_555 1_555
Cu2_3 O1_3 1_555 1_555
O1_3 H1_3 1_555 1_555
O2_3 Cu2_3 1_555 1_555
O3_3 Cu1_3 1_555 1_555
O6_3 Cu1_3 1_555 1_555
H3_3 O6_3 1_555 1_555
O7_3 Cu2_3 1_555 1_555
H4_3 O7_3 1_555 1_555
H5_3 O7_3 1_555 1_555
N1_3 Cu1_3 1_555 1_555
N2_3 Cu2_3 1_555 1_555
N3_3 C2_3 1_555 1_555
C1_3 H6_3 1_555 1_555
H7_3 C1_3 1_555 1_555
H8_3 C1_3 1_555 1_555
C2_3 N1_3 1_555 1_555
C3_3 N2_3 1_555 1_555
C4_3 C3_3 1_555 1_555
H9_3 C4_3 1_555 1_555
H10_3 C4_3 1_555 1_555
H11_3 C4_3 1_555 1_555
H16_3 O6_3 1_555 1_555
Cu3_3 O1_3 1_555 1_555
O8_3 Cu3_3 1_555 1_555
H17_3 O8_3 1_555 1_555
H18_3 O8_3 1_555 1_555
N4_3 Cu1_3 1_555 1_555
N5_3 Cu3_3 1_555 1_555
N6_3 C8_3 1_555 1_555
C7_3 H19_3 1_555 1_555
H20_3 C7_3 1_555 1_555
H21_3 C7_3 1_555 1_555
C8_3 N4_3 1_555 1_555
C9_3 N5_3 1_555 1_555
C10_3 C9_3 1_555 1_555
H22_3 C10_3 1_555 1_555
H23_3 C10_3 1_555 1_555
H24_3 C10_3 1_555 1_555
Cu4_3 N3_3 1_555 1_555
Cu5_3 N6_3 1_555 1_555
O2_3 Cu3_3 1_555 1_555
N1_3 N2_3 1_555 1_555
N3_3 C3_3 1_555 1_555
C1_3 C2_3 1_555 1_555
N4_3 N5_3 1_555 1_555
N6_3 C9_3 1_555 1_555
C7_3 C8_3 1_555 1_555
O4_4 C6_4 1_555 1_555
C1_4 H6_4 1_555 1_555
H7_4 C1_4 1_555 1_555
C5_4 H12_4 1_555 1_555
H13_4 C5_4 1_555 1_555
C6_4 O3_4 1_555 1_555
H14_4 C5_4 1_555 1_555
C7_4 H19_4 1_555 1_555
H20_4 C7_4 1_555 1_555
H21_4 C7_4 1_555 1_555
C1_4 C2_4 1_555 1_555
C5_4 C6_4 1_555 1_555
C7_4 C8_4 1_555 1_555
Cu1_4 O1_4 1_555 1_555
Cu4_3 O1_4 1_555 1_555
O1_4 H1_4 1_555 1_555
O2_4 Cu4_3 1_555 1_555
O5_4 Cu4_3 1_555 1_555
H2_4 O5_4 1_555 1_555
O7_4 Cu4_3 1_555 1_555
H4_4 O7_4 1_555 1_555
H5_4 O7_4 1_555 1_555
N1_4 Cu1_4 1_555 1_555
N2_4 Cu4_3 1_555 1_555
H15_4 O5_4 1_555 1_555
Cu5_2 O1_4 1_555 1_555
O8_4 Cu5_2 1_555 1_555
H17_4 O8_4 1_555 1_555
H18_4 O8_4 1_555 1_555
N4_4 Cu1_4 1_555 1_555
N5_4 Cu5_2 1_555 1_555
C9_4 N5_4 1_555 1_555
C10_4 C9_4 1_555 1_555
H22_4 C10_4 1_555 1_555
H23_4 C10_4 1_555 1_555
H24_4 C10_4 1_555 1_555
O2_4 Cu5_2 1_555 1_555
O5_4 Cu5_2 1_555 1_555
N1_4 N2_4 1_555 1_555
N4_4 N5_4 1_555 1_555
N6_4 C9_4 1_555 1_555
C10_5 C9_5 1_555 1_555
H22_5 C10_5 1_555 1_555
H23_5 C10_5 1_555 1_555
H24_5 C10_5 1_555 1_555
N6_5 C9_5 1_555 1_555
Cu1_5 O1_5 1_555 1_555
Cu4 O1_5 1_555 1_555
O1_5 H1_5 1_555 1_555
O2_5 Cu4 1_555 1_555
O5_5 Cu4 1_555 1_555
H2_5 O5_5 1_555 1_555
O7_5 Cu4 1_555 1_555
H4_5 O7_5 1_555 1_555
H5_5 O7_5 1_555 1_555
N1_5 Cu1_5 1_555 1_555
N2_5 Cu4 1_555 1_555
H15_5 O5_5 1_555 1_555
Cu5_3 O1_5 1_555 1_555
O8_5 Cu5_3 1_555 1_555
H17_5 O8_5 1_555 1_555
H18_5 O8_5 1_555 1_555
N4_5 Cu1_5 1_555 1_555
N5_5 Cu5_3 1_555 1_555
O2_5 Cu5_3 1_555 1_555
O5_5 Cu5_3 1_555 1_555
N1_5 N2_5 1_555 1_555
N4_5 N5_5 1_555 1_555
C4_4 C3_4 1_555 1_555
H9_4 C4_4 1_555 1_555
H10_4 C4_4 1_555 1_555
H11_4 C4_4 1_555 1_555
N3_4 C3_4 1_555 1_555
O4_5 C6_5 1_555 1_555
C1_5 H6_5 1_555 1_555
H7_5 C1_5 1_555 1_555
H8_6 C1_5 1_555 1_555
C5_5 H12_5 1_555 1_555
H13_5 C5_5 1_555 1_555
C6_5 O3_5 1_555 1_555
H14_5 C5_5 1_555 1_555
C7_5 H19_5 1_555 1_555
H20_5 C7_5 1_555 1_555
C1_5 C2_5 1_555 1_555
C5_5 C6_5 1_555 1_555
C7_5 C8_5 1_555 1_555
Cu1_6 O1_6 1_555 1_555
Cu4_2 O1_6 1_555 1_555
O1_6 H1_6 1_555 1_555
O2_6 Cu4_2 1_555 1_555
O5_6 Cu4_2 1_555 1_555
H2_6 O5_6 1_555 1_555
O7_6 Cu4_2 1_555 1_555
H4_6 O7_6 1_555 1_555
H5_6 O7_6 1_555 1_555
N1_6 Cu1_6 1_555 1_555
N2_6 Cu4_2 1_555 1_555
C3_5 N2_6 1_555 1_555
C4_5 C3_5 1_555 1_555
H9_5 C4_5 1_555 1_555
H10_5 C4_5 1_555 1_555
H11_5 C4_5 1_555 1_555
H15_6 O5_6 1_555 1_555
Cu5 O1_6 1_555 1_555
O8_6 Cu5 1_555 1_555
H17_6 O8_6 1_555 1_555
H18_6 O8_6 1_555 1_555
N4_6 Cu1_6 1_555 1_555
N5_6 Cu5 1_555 1_555
O2_6 Cu5 1_555 1_555
O5_6 Cu5 1_555 1_555
N1_6 N2_6 1_555 1_555
N3_5 C3_5 1_555 1_555
N4_6 N5_6 1_555 1_555
Cu1_7 O1_7 1_555 1_555
Cu4_6 O1_7 1_555 1_555
O1_7 H1_7 1_555 1_555
O3_6 Cu1_7 1_555 1_555
O4_6 C6_6 1_555 1_555
O5_7 Cu4_6 1_555 1_555
H2_7 O5_7 1_555 1_555
O6_6 Cu1_7 1_555 1_555
H3_7 O6_6 1_555 1_555
N1_7 Cu1_7 1_555 1_555
N2_7 Cu4_6 1_555 1_555
N7_2 C2_6 1_555 1_555
C1_6 H6_6 1_555 1_555
H7_6 C1_6 1_555 1_555
H8_7 C1_6 1_555 1_555
C2_6 N1_7 1_555 1_555
C3_6 N2_7 1_555 1_555
C4_6 C3_6 1_555 1_555
H9_6 C4_6 1_555 1_555
H10_6 C4_6 1_555 1_555
H11_6 C4_6 1_555 1_555
C5_6 H12_6 1_555 1_555
H13_6 C5_6 1_555 1_555
C6_6 O3_6 1_555 1_555
H14_6 C5_6 1_555 1_555
H15_7 O5_7 1_555 1_555
H16_7 O6_6 1_555 1_555
Cu5_5 O1_7 1_555 1_555
N4_7 Cu1_7 1_555 1_555
N5_7 Cu5_5 1_555 1_555
N8_3 C8_6 1_555 1_555
C7_6 H19_6 1_555 1_555
H20_6 C7_6 1_555 1_555
H21_7 C7_6 1_555 1_555
C8_6 N4_7 1_555 1_555
C9_6 N5_7 1_555 1_555
O5_7 Cu5_5 1_555 1_555
N1_7 N2_7 1_555 1_555
N7_2 C3_6 1_555 1_555
C1_6 C2_6 1_555 1_555
C5_6 C6_6 1_555 1_555
N4_7 N5_7 1_555 1_555
N8_3 C9_6 1_555 1_555
C7_6 C8_6 1_555 1_555
H4_7 O7_7 1_555 1_555
H5_7 O7_7 1_555 1_555
H17_7 O8_7 1_555 1_555
H18_7 O8_7 1_555 1_555
H22_6 C10_6 1_555 1_555
H24_6 C10_6 1_555 1_555
H22_7 C10_7 1_555 1_555
H24_7 C10_7 1_555 1_555
Cu1_8 O1_8 1_555 1_555
Cu4_4 O1_8 1_555 1_555
O1_8 H1_8 1_555 1_555
O3_7 Cu1_8 1_555 1_555
O4_7 C6_7 1_555 1_555
O5_8 Cu4_4 1_555 1_555
H2_8 O5_8 1_555 1_555
O6_7 Cu1_8 1_555 1_555
H3_8 O6_7 1_555 1_555
N1_8 Cu1_8 1_555 1_555
N2_8 Cu4_4 1_555 1_555
N7_3 C2_7 1_555 1_555
C1_7 H6_7 1_555 1_555
H7_7 C1_7 1_555 1_555
H8_8 C1_7 1_555 1_555
C2_7 N1_8 1_555 1_555
C3_7 N2_8 1_555 1_555
C5_7 H12_7 1_555 1_555
H13_7 C5_7 1_555 1_555
C6_7 O3_7 1_555 1_555
H14_7 C5_7 1_555 1_555
H15_8 O5_8 1_555 1_555
H16_8 O6_7 1_555 1_555
Cu5_6 O1_8 1_555 1_555
N4_8 Cu1_8 1_555 1_555
N5_8 Cu5_6 1_555 1_555
N8 C8_7 1_555 1_555
C7_7 H19_7 1_555 1_555
H20_7 C7_7 1_555 1_555
H21_8 C7_7 1_555 1_555
C8_7 N4_8 1_555 1_555
C9_7 N5_8 1_555 1_555
O5_8 Cu5_6 1_555 1_555
N1_8 N2_8 1_555 1_555
N7_3 C3_7 1_555 1_555
C1_7 C2_7 1_555 1_555
C5_7 C6_7 1_555 1_555
N4_8 N5_8 1_555 1_555
N8 C9_7 1_555 1_555
C7_7 C8_7 1_555 1_555
H9_7 C4_7 1_555 1_555
H11_7 C4_7 1_555 1_555
H9_8 C4_8 1_555 1_555
H11_8 C4_8 1_555 1_555
Cu1_9 O1_9 1_555 1_555
Cu4_5 O1_9 1_555 1_555
O1_9 H1_9 1_555 1_555
O3_8 Cu1_9 1_555 1_555
O4_8 C6_8 1_555 1_555
O5_9 Cu4_5 1_555 1_555
H2_9 O5_9 1_555 1_555
O6_8 Cu1_9 1_555 1_555
H3_9 O6_8 1_555 1_555
N1_9 Cu1_9 1_555 1_555
N2_9 Cu4_5 1_555 1_555
N7 C2_8 1_555 1_555
C1_8 H6_8 1_555 1_555
H7_8 C1_8 1_555 1_555
H8_9 C1_8 1_555 1_555
C2_8 N1_9 1_555 1_555
C3_8 N2_9 1_555 1_555
C5_8 H12_8 1_555 1_555
H13_8 C5_8 1_555 1_555
C6_8 O3_8 1_555 1_555
H14_8 C5_8 1_555 1_555
H15_9 O5_9 1_555 1_555
H16_9 O6_8 1_555 1_555
Cu5_4 O1_9 1_555 1_555
N4_9 Cu1_9 1_555 1_555
N5_9 Cu5_4 1_555 1_555
N8_2 C8_8 1_555 1_555
C7_8 H19_8 1_555 1_555
H20_8 C7_8 1_555 1_555
H21_9 C7_8 1_555 1_555
C8_8 N4_9 1_555 1_555
C9_8 N5_9 1_555 1_555
C10_8 C9_8 1_555 1_555
H22_8 C10_8 1_555 1_555
H23_8 C10_8 1_555 1_555
H24_8 C10_8 1_555 1_555
O5_9 Cu5_4 1_555 1_555
N1_9 N2_9 1_555 1_555
N7 C3_8 1_555 1_555
C1_8 C2_8 1_555 1_555
C5_8 C6_8 1_555 1_555
N4_9 N5_9 1_555 1_555
N8_2 C9_8 1_555 1_555
C7_8 C8_8 1_555 1_555
H4_8 O7_8 1_555 1_555
H5_8 O7_8 1_555 1_555
H17_8 O8_8 1_555 1_555
H18_8 O8_8 1_555 1_555
C4_9 C3_9 1_555 1_555
H9_9 C4_9 1_555 1_555
H10_9 C4_9 1_555 1_555
H11_9 C4_9 1_555 1_555
N3_6 C3_9 1_555 1_555
C10_9 C9_9 1_555 1_555
H22_9 C10_9 1_555 1_555
H23_9 C10_9 1_555 1_555
H24_9 C10_9 1_555 1_555
N6_6 C9_9 1_555 1_555
H4_9 O7_9 1_555 1_555
H5_9 O7_9 1_555 1_555
H17_9 O8_9 1_555 1_555
H18_9 O8_9 1_555 1_555
O4_9 C6_9 1_555 1_555
C1_9 H6_9 1_555 1_555
H7_9 C1_9 1_555 1_555
C5_9 H12_9 1_555 1_555
H13_9 C5_9 1_555 1_555
C6_9 O3_9 1_555 1_555
H14_9 C5_9 1_555 1_555
C7_9 H19_9 1_555 1_555
H20_9 C7_9 1_555 1_555
C1_9 C2_9 1_555 1_555
C5_9 C6_9 1_555 1_555
C7_9 C8_9 1_555 1_555

#END
