
###############################################################################
#
# This file contains modified crystal structure data generated from the
# MOF subset of the Cambridge Structural Database (CSD) v543 
# hosted by the Cambridge Crystallographic Data Centre (CCDC).
#
# This work is licensed under the Creative Commons
# Attribution-NonCommercial-ShareAlike 4.0 International License.
# To view a copy of this license, visit
# http://creativecommons.org/licenses/by-nc-sa/4.0/
# or send a letter to
# Creative Commons, PO Box 1866, Mountain View, CA 94042, USA.
#
# CIF created using the CSD Python API on 29 September 2022
# The structure has been converted into the P1 space group
# The structure has a 3D framework
# The original CSD entry PEWXUL01 is in the monoclinic crystal system
# The framework has been calculated to contain at least 10.0% void space
# The void calculation uses a probe of radius 1.32A, grid spacing 0.4
# The framework is charged, counterions have been retained in the structure
#
###############################################################################

data_PEWXUL01
_chemical_formula_moiety         '(C104 H96 N26 Ni6)n'
_symmetry_cell_setting           triclinic
_symmetry_space_group_name_H-M   'P 1'
_symmetry_Int_Tables_number      1
_space_group_name_Hall           'P 1'
loop_
_symmetry_equiv_pos_site_id
_symmetry_equiv_pos_as_xyz
1 x,y,z
_cell_length_a                   18.28(5)
_cell_length_b                   19.91(4)
_cell_length_c                   8.63(4)
_cell_angle_alpha                90
_cell_angle_beta                 100.21(9)
_cell_angle_gamma                90
_cell_volume                     3091.19
loop_
_atom_site_label
_atom_site_type_symbol
_atom_site_fract_x
_atom_site_fract_y
_atom_site_fract_z
Ni2 Ni -0.0000 0.67556(8) 0.2500
Ni3 Ni 0.5000 0.17556(8) 0.2500
N9 N 0.4995(4) 0.1689(3) 0.0105(9)
N1 N 0.5794(4) 0.2526(3) 0.2756(8)
N2 N 0.9138(4) 0.6017(3) 0.2170(8)
N3 N 0.5005(4) 0.1689(3) 0.4895(9)
N4 N 0.5000 0.1243(7) 0.7500
C1 C 0.6293(5) 0.2634(5) 0.408(1)
C2 C 0.6821(5) 0.3137(4) 0.421(1)
C3 C 0.6839(6) 0.3562(5) 0.296(1)
C4 C 0.6316(6) 0.3456(5) 0.159(1)
C5 C 0.5806(6) 0.2946(5) 0.156(1)
C6 C 0.7426(7) 0.4104(6) 0.306(1)
C7 C 0.9204(6) 0.5436(4) 0.145(1)
C8 C 0.8674(7) 0.4939(5) 0.132(1)
C9 C 0.8020(7) 0.5047(6) 0.185(1)
C10 C 0.7935(6) 0.5646(6) 0.254(1)
C11 C 0.8506(5) 0.6115(5) 0.269(1)
C12 C 0.7423(8) 0.4512(7) 0.167(2)
C13 C 0.5001(6) 0.1528(5) 0.617(1)
H1 H 0.6290 0.2342 0.4968
H2 H 0.7182 0.3186 0.5150
H3 H 0.6299 0.3753 0.0701
H4 H 0.5426 0.2887 0.0614
H5 H 0.7909 0.3894 0.3285
H6 H 0.7375 0.4398 0.3883
H7 H 0.9645 0.5367 0.0979
H8 H 0.8775 0.4502 0.0826
H9 H 0.7487 0.5748 0.2950
H10 H 0.8449 0.6538 0.3226
H11 H 0.7471 0.4215 0.0774
H12 H 0.6942 0.4722 0.1378
Ni2_2 Ni 1.0000 0.67556(8) 0.2500
N5 N 0.4206(4) 0.2526(3) 0.2244(8)
N6 N 0.0862(4) 0.6017(3) 0.2830(8)
N7 N 0.4138(4) 0.1017(3) 0.2170(8)
N8 N 0.5862(4) 0.1017(3) 0.2830(8)
C14 C 0.3707(5) 0.2634(5) 0.092(1)
C15 C 0.3179(5) 0.3137(4) 0.079(1)
C16 C 0.3161(6) 0.3562(5) 0.204(1)
C17 C 0.3684(6) 0.3456(5) 0.341(1)
C18 C 0.4194(6) 0.2946(5) 0.344(1)
C19 C 0.2574(7) 0.4104(6) 0.194(1)
C20 C 0.0796(6) 0.5436(4) 0.355(1)
C21 C 0.1326(7) 0.4939(5) 0.368(1)
C22 C 0.1980(7) 0.5047(6) 0.315(1)
C23 C 0.2065(6) 0.5646(6) 0.246(1)
C24 C 0.1494(5) 0.6115(5) 0.231(1)
C25 C 0.2577(8) 0.4512(7) 0.333(2)
C26 C 0.4999(6) 0.1528(5) 0.883(1)
H13 H 0.3710 0.2342 0.0032
H15 H 0.3701 0.3753 0.4299
H16 H 0.4574 0.2887 0.4386
H17 H 0.2091 0.3894 0.1715
H18 H 0.2625 0.4398 0.1117
H19 H 0.0355 0.5367 0.4021
H20 H 0.1225 0.4502 0.4174
H21 H 0.2513 0.5748 0.2050
H22 H 0.1551 0.6538 0.1774
H23 H 0.2529 0.4215 0.4226
H24 H 0.3058 0.4722 0.3622
H14 H 0.2818 0.3186 0.9850
C7_2 C 0.4204(6) 0.0436(4) 0.145(1)
C9_2 C 0.3020(7) 0.0047(6) 0.185(1)
C10_2 C 0.2935(6) 0.0646(6) 0.254(1)
C11_2 C 0.3506(5) 0.1115(5) 0.269(1)
H7_2 H 0.4645 0.0367 0.0979
H9_2 H 0.2487 0.0748 0.2950
H10_2 H 0.3449 0.1538 0.3226
N1_2 N 0.0794(4) 0.7526(3) 0.2756(8)
N3_2 N 0.0005(4) 0.6689(3) 0.4895(9)
N4_2 N -0.0000 0.6243(7) 0.7500
C1_2 C 0.1293(5) 0.7634(5) 0.408(1)
C2_2 C 0.1821(5) 0.8137(4) 0.421(1)
C3_2 C 0.1839(6) 0.8562(5) 0.296(1)
C4_2 C 0.1316(6) 0.8456(5) 0.159(1)
C5_2 C 0.0806(6) 0.7946(5) 0.156(1)
C6_2 C 0.2426(7) 0.9104(6) 0.306(1)
C8_2 C 0.3674(7) 0.9939(5) 0.132(1)
C12_2 C 0.2423(8) 0.9512(7) 0.167(2)
C13_2 C 0.0001(6) 0.6528(5) 0.617(1)
H1_2 H 0.1290 0.7342 0.4968
H2_2 H 0.2182 0.8186 0.5150
H3_2 H 0.1299 0.8753 0.0701
H4_2 H 0.0426 0.7887 0.0614
H5_2 H 0.2909 0.8894 0.3285
H6_2 H 0.2375 0.9398 0.3883
H8_2 H 0.3775 0.9502 0.0826
H11_2 H 0.2471 0.9215 0.0774
H12_2 H 0.1942 0.9722 0.1378
C20_2 C 0.5796(6) 0.0436(4) 0.355(1)
C22_2 C 0.6980(7) 0.0047(6) 0.315(1)
C23_2 C 0.7065(6) 0.0646(6) 0.246(1)
C24_2 C 0.6494(5) 0.1115(5) 0.231(1)
H19_2 H 0.5355 0.0367 0.4021
H21_2 H 0.7513 0.0748 0.2050
H22_2 H 0.6551 0.1538 0.1774
N9_2 N 0.9995(4) 0.6689(3) 0.0105(9)
N4_3 N 1.0000 0.6243(7) 0.7500
N5_2 N 0.9206(4) 0.7526(3) 0.2244(8)
C14_2 C 0.8707(5) 0.7634(5) 0.092(1)
C15_2 C 0.8179(5) 0.8137(4) 0.079(1)
C16_2 C 0.8161(6) 0.8562(5) 0.204(1)
C17_2 C 0.8684(6) 0.8456(5) 0.341(1)
C18_2 C 0.9194(6) 0.7946(5) 0.344(1)
C19_2 C 0.7574(7) 0.9104(6) 0.194(1)
C21_2 C 0.6326(7) 0.9939(5) 0.368(1)
C25_2 C 0.7577(8) 0.9512(7) 0.333(2)
C26_2 C 0.9999(6) 0.6528(5) 0.883(1)
H13_2 H 0.8710 0.7342 0.0032
H15_2 H 0.8701 0.8753 0.4299
H16_2 H 0.9574 0.7887 0.4386
H17_2 H 0.7091 0.8894 0.1715
H18_2 H 0.7625 0.9398 0.1117
H20_2 H 0.6225 0.9502 0.4174
H23_2 H 0.7529 0.9215 0.4226
H24_2 H 0.8058 0.9722 0.3622
H14_2 H 0.7818 0.8186 0.9850
Ni4 Ni 0.0000 0.32444(8) 0.7500
H14_3 H 0.7182 0.6814 0.0150
Ni1 Ni 0.5000 0.82444(8) 0.7500
N1_3 N 0.4206(4) 0.7474(3) 0.7244(8)
N2_2 N 0.0862(4) 0.3983(3) 0.7830(8)
N3_3 N 0.4995(4) 0.8311(3) 0.5105(9)
N4_4 N 0.5000 0.8757(7) 0.2500
C1_3 C 0.3707(5) 0.7366(5) 0.592(1)
C2_3 C 0.3179(5) 0.6863(4) 0.579(1)
C3_3 C 0.3161(6) 0.6438(5) 0.704(1)
C4_3 C 0.3684(6) 0.6544(5) 0.841(1)
C5_3 C 0.4194(6) 0.7054(5) 0.844(1)
C6_3 C 0.2574(7) 0.5896(6) 0.694(1)
C7_3 C 0.0796(6) 0.4564(4) 0.855(1)
C8_3 C 0.1326(7) 0.5061(5) 0.868(1)
C9_3 C 0.1980(7) 0.4953(6) 0.815(1)
C10_3 C 0.2065(6) 0.4354(6) 0.746(1)
C11_3 C 0.1494(5) 0.3885(5) 0.731(1)
C12_3 C 0.2577(8) 0.5488(7) 0.833(2)
C13_3 C 0.4999(6) 0.8472(5) 0.383(1)
H1_3 H 0.3710 0.7658 0.5032
H2_3 H 0.2818 0.6814 0.4850
H3_3 H 0.3701 0.6247 0.9299
H4_3 H 0.4574 0.7113 0.9386
H5_3 H 0.2091 0.6106 0.6715
H6_3 H 0.2625 0.5602 0.6117
H7_3 H 0.0355 0.4633 0.9021
H8_3 H 0.1225 0.5498 0.9174
H9_3 H 0.2513 0.4252 0.7050
H10_3 H 0.1551 0.3462 0.6774
H11_3 H 0.2529 0.5785 0.9226
H12_3 H 0.3058 0.5278 0.8622
Ni4_2 Ni 1.0000 0.32444(8) 0.7500
N5_3 N 0.5794(4) 0.7474(3) 0.7756(8)
N6_2 N 0.9138(4) 0.3983(3) 0.7170(8)
N7_2 N 0.5862(4) 0.8983(3) 0.7830(8)
N8_2 N 0.4138(4) 0.8983(3) 0.7170(8)
N10 N 0.5005(4) 0.8311(3) 0.9895(9)
C14_3 C 0.6293(5) 0.7366(5) 0.908(1)
C15_3 C 0.6821(5) 0.6863(4) 0.921(1)
C16_3 C 0.6839(6) 0.6438(5) 0.796(1)
C17_3 C 0.6316(6) 0.6544(5) 0.659(1)
C18_3 C 0.5806(6) 0.7054(5) 0.656(1)
C19_3 C 0.7426(7) 0.5896(6) 0.806(1)
C20_3 C 0.9204(6) 0.4564(4) 0.645(1)
C21_3 C 0.8674(7) 0.5061(5) 0.632(1)
C22_3 C 0.8020(7) 0.4953(6) 0.685(1)
C23_3 C 0.7935(6) 0.4354(6) 0.754(1)
C24_3 C 0.8506(5) 0.3885(5) 0.769(1)
C25_3 C 0.7423(8) 0.5488(7) 0.667(2)
C26_3 C 0.5001(6) 0.8472(5) 0.117(1)
H13_3 H 0.6290 0.7658 0.9968
H15_3 H 0.6299 0.6247 0.5701
H16_3 H 0.5426 0.7113 0.5614
H17_3 H 0.7909 0.6106 0.8285
H18_3 H 0.7375 0.5602 0.8883
H19_3 H 0.9645 0.4633 0.5979
H20_3 H 0.8775 0.5498 0.5826
H21_3 H 0.7487 0.4252 0.7950
H22_3 H 0.8449 0.3462 0.8226
H23_3 H 0.7471 0.5785 0.5774
H24_3 H 0.6942 0.5278 0.6378
H14_4 H 0.2182 0.1814 0.0150
N4_5 N 0.0000 0.3757(7) 0.2500
N5_4 N 0.0794(4) 0.2474(3) 0.7756(8)
N10_2 N 0.0005(4) 0.3311(3) 0.9895(9)
C14_4 C 0.1293(5) 0.2366(5) 0.908(1)
C15_4 C 0.1821(5) 0.1863(4) 0.921(1)
C16_4 C 0.1839(6) 0.1438(5) 0.796(1)
C17_4 C 0.1316(6) 0.1544(5) 0.659(1)
C18_4 C 0.0806(6) 0.2054(5) 0.656(1)
C19_4 C 0.2426(7) 0.0896(6) 0.806(1)
C21_4 C 0.3674(7) 0.0061(5) 0.632(1)
C25_4 C 0.2423(8) 0.0488(7) 0.667(2)
C26_4 C 0.0001(6) 0.3472(5) 0.117(1)
H13_4 H 0.1290 0.2658 0.9968
H15_4 H 0.1299 0.1247 0.5701
H16_4 H 0.0426 0.2113 0.5614
H17_4 H 0.2909 0.1106 0.8285
H18_4 H 0.2375 0.0602 0.8883
H20_4 H 0.3775 0.0498 0.5826
H23_4 H 0.2471 0.0785 0.5774
H24_4 H 0.1942 0.0278 0.6378
C20_4 C 0.4204(6) 0.9564(4) 0.645(1)
C22_4 C 0.3020(7) 0.9953(6) 0.685(1)
C23_4 C 0.2935(6) 0.9354(6) 0.754(1)
C24_4 C 0.3506(5) 0.8885(5) 0.769(1)
H19_4 H 0.4645 0.9633 0.5979
H21_4 H 0.2487 0.9252 0.7950
H22_4 H 0.3449 0.8462 0.8226
N1_4 N 0.9206(4) 0.2474(3) 0.7244(8)
N3_4 N 0.9995(4) 0.3311(3) 0.5105(9)
N4_6 N 1.0000 0.3757(7) 0.2500
C1_4 C 0.8707(5) 0.2366(5) 0.592(1)
C2_4 C 0.8179(5) 0.1863(4) 0.579(1)
C3_4 C 0.8161(6) 0.1438(5) 0.704(1)
C4_4 C 0.8684(6) 0.1544(5) 0.841(1)
C5_4 C 0.9194(6) 0.2054(5) 0.844(1)
C6_4 C 0.7574(7) 0.0896(6) 0.694(1)
C8_4 C 0.6326(7) 0.0061(5) 0.868(1)
C12_4 C 0.7577(8) 0.0488(7) 0.833(2)
C13_4 C 0.9999(6) 0.3472(5) 0.383(1)
H1_4 H 0.8710 0.2658 0.5032
H2_4 H 0.7818 0.1814 0.4850
H3_4 H 0.8701 0.1247 0.9299
H4_4 H 0.9574 0.2113 0.9386
H5_4 H 0.7091 0.1106 0.6715
H6_4 H 0.7625 0.0602 0.6117
H8_4 H 0.6225 0.0498 0.9174
H11_4 H 0.7529 0.0785 0.9226
H12_4 H 0.8058 0.0278 0.8622
C7_4 C 0.5796(6) 0.9564(4) 0.855(1)
C9_4 C 0.6980(7) 0.9953(6) 0.815(1)
C10_4 C 0.7065(6) 0.9354(6) 0.746(1)
C11_4 C 0.6494(5) 0.8885(5) 0.731(1)
H7_4 H 0.5355 0.9633 0.9021
H9_4 H 0.7513 0.9252 0.7050
H10_4 H 0.6551 0.8462 0.6774
loop_
_geom_bond_atom_site_label_1
_geom_bond_atom_site_label_2
_geom_bond_site_symmetry_1
_geom_bond_site_symmetry_2
Ni3 N9 1_555 1_555
Ni3 N1 1_555 1_555
N1 C1 1_555 1_555
N2 C7 1_555 1_555
N3 Ni3 1_555 1_555
N4 C13 1_555 1_555
C1 C2 1_555 1_555
C2 C3 1_555 1_555
C3 C4 1_555 1_555
C4 C5 1_555 1_555
C5 N1 1_555 1_555
C6 C3 1_555 1_555
C7 C8 1_555 1_555
C8 C9 1_555 1_555
C9 C10 1_555 1_555
C10 C11 1_555 1_555
C11 N2 1_555 1_555
C12 C6 1_555 1_555
C13 N3 1_555 1_555
H1 C1 1_555 1_555
H2 C2 1_555 1_555
H3 C4 1_555 1_555
H4 C5 1_555 1_555
H5 C6 1_555 1_555
H6 C6 1_555 1_555
H7 C7 1_555 1_555
H8 C8 1_555 1_555
H9 C10 1_555 1_555
H10 C11 1_555 1_555
H11 C12 1_555 1_555
H12 C12 1_555 1_555
Ni2_2 N2 1_555 1_555
Ni2 N6 1_555 1_555
N5 Ni3 1_555 1_555
N6 C20 1_555 1_555
N7 Ni3 1_555 1_555
N8 Ni3 1_555 1_555
C14 N5 1_555 1_555
C15 C14 1_555 1_555
C16 C15 1_555 1_555
C17 C16 1_555 1_555
C18 N5 1_555 1_555
C19 C16 1_555 1_555
C20 C21 1_555 1_555
C21 C22 1_555 1_555
C22 C23 1_555 1_555
C23 C24 1_555 1_555
C24 N6 1_555 1_555
C25 C19 1_555 1_555
C26 N4 1_555 1_555
H13 C14 1_555 1_555
H15 C17 1_555 1_555
H16 C18 1_555 1_555
H17 C19 1_555 1_555
H18 C19 1_555 1_555
H19 C20 1_555 1_555
H20 C21 1_555 1_555
H21 C23 1_555 1_555
H22 C24 1_555 1_555
H23 C25 1_555 1_555
H24 C25 1_555 1_555
C9 C12 1_555 1_555
C17 C18 1_555 1_555
C22 C25 1_555 1_555
N7 C7_2 1_555 1_555
C9_2 C10_2 1_555 1_555
C10_2 C11_2 1_555 1_555
C11_2 N7 1_555 1_555
H7_2 C7_2 1_555 1_555
H9_2 C10_2 1_555 1_555
H10_2 C11_2 1_555 1_555
Ni2 N1_2 1_555 1_555
N1_2 C1_2 1_555 1_555
N3_2 Ni2 1_555 1_555
N4_2 C13_2 1_555 1_555
C1_2 C2_2 1_555 1_555
C2_2 C3_2 1_555 1_555
C3_2 C4_2 1_555 1_555
C4_2 C5_2 1_555 1_555
C5_2 N1_2 1_555 1_555
C6_2 C3_2 1_555 1_555
C12_2 C6_2 1_555 1_555
C13_2 N3_2 1_555 1_555
H1_2 C1_2 1_555 1_555
H2_2 C2_2 1_555 1_555
H3_2 C4_2 1_555 1_555
H4_2 C5_2 1_555 1_555
H5_2 C6_2 1_555 1_555
H6_2 C6_2 1_555 1_555
H8_2 C8_2 1_555 1_555
H11_2 C12_2 1_555 1_555
H12_2 C12_2 1_555 1_555
N8 C20_2 1_555 1_555
C22_2 C23_2 1_555 1_555
C23_2 C24_2 1_555 1_555
C24_2 N8 1_555 1_555
H19_2 C20_2 1_555 1_555
H21_2 C23_2 1_555 1_555
H22_2 C24_2 1_555 1_555
Ni2_2 N9_2 1_555 1_555
N5_2 Ni2_2 1_555 1_555
C14_2 N5_2 1_555 1_555
C15_2 C14_2 1_555 1_555
C16_2 C15_2 1_555 1_555
C17_2 C16_2 1_555 1_555
C18_2 N5_2 1_555 1_555
C19_2 C16_2 1_555 1_555
C25_2 C19_2 1_555 1_555
C26_2 N4_3 1_555 1_555
H13_2 C14_2 1_555 1_555
H15_2 C17_2 1_555 1_555
H16_2 C18_2 1_555 1_555
H17_2 C19_2 1_555 1_555
H18_2 C19_2 1_555 1_555
H20_2 C21_2 1_555 1_555
H23_2 C25_2 1_555 1_555
H24_2 C25_2 1_555 1_555
C17_2 C18_2 1_555 1_555
Ni1 N1_3 1_555 1_555
N1_3 C1_3 1_555 1_555
N2_2 C7_3 1_555 1_555
N3_3 Ni1 1_555 1_555
N4_4 C13_3 1_555 1_555
C1_3 C2_3 1_555 1_555
C2_3 C3_3 1_555 1_555
C3_3 C4_3 1_555 1_555
C4_3 C5_3 1_555 1_555
C5_3 N1_3 1_555 1_555
C6_3 C3_3 1_555 1_555
C7_3 C8_3 1_555 1_555
C8_3 C9_3 1_555 1_555
C9_3 C10_3 1_555 1_555
C10_3 C11_3 1_555 1_555
C11_3 N2_2 1_555 1_555
C12_3 C6_3 1_555 1_555
C13_3 N3_3 1_555 1_555
H1_3 C1_3 1_555 1_555
H2_3 C2_3 1_555 1_555
H3_3 C4_3 1_555 1_555
H4_3 C5_3 1_555 1_555
H5_3 C6_3 1_555 1_555
H6_3 C6_3 1_555 1_555
H7_3 C7_3 1_555 1_555
H8_3 C8_3 1_555 1_555
H9_3 C10_3 1_555 1_555
H10_3 C11_3 1_555 1_555
H11_3 C12_3 1_555 1_555
H12_3 C12_3 1_555 1_555
Ni4 N2_2 1_555 1_555
Ni4_2 N6_2 1_555 1_555
N5_3 Ni1 1_555 1_555
N6_2 C20_3 1_555 1_555
N7_2 Ni1 1_555 1_555
N8_2 Ni1 1_555 1_555
N10 Ni1 1_555 1_555
C14_3 N5_3 1_555 1_555
C15_3 C14_3 1_555 1_555
C16_3 C15_3 1_555 1_555
C17_3 C16_3 1_555 1_555
C18_3 N5_3 1_555 1_555
C19_3 C16_3 1_555 1_555
C20_3 C21_3 1_555 1_555
C21_3 C22_3 1_555 1_555
C22_3 C23_3 1_555 1_555
C23_3 C24_3 1_555 1_555
C24_3 N6_2 1_555 1_555
C25_3 C19_3 1_555 1_555
C26_3 N4_4 1_555 1_555
H13_3 C14_3 1_555 1_555
H15_3 C17_3 1_555 1_555
H16_3 C18_3 1_555 1_555
H17_3 C19_3 1_555 1_555
H18_3 C19_3 1_555 1_555
H19_3 C20_3 1_555 1_555
H20_3 C21_3 1_555 1_555
H21_3 C23_3 1_555 1_555
H22_3 C24_3 1_555 1_555
H23_3 C25_3 1_555 1_555
H24_3 C25_3 1_555 1_555
C9_3 C12_3 1_555 1_555
C17_3 C18_3 1_555 1_555
C22_3 C25_3 1_555 1_555
N5_4 Ni4 1_555 1_555
N10_2 Ni4 1_555 1_555
C14_4 N5_4 1_555 1_555
C15_4 C14_4 1_555 1_555
C16_4 C15_4 1_555 1_555
C17_4 C16_4 1_555 1_555
C18_4 N5_4 1_555 1_555
C19_4 C16_4 1_555 1_555
C25_4 C19_4 1_555 1_555
C26_4 N4_5 1_555 1_555
H13_4 C14_4 1_555 1_555
H15_4 C17_4 1_555 1_555
H16_4 C18_4 1_555 1_555
H17_4 C19_4 1_555 1_555
H18_4 C19_4 1_555 1_555
H20_4 C21_4 1_555 1_555
H23_4 C25_4 1_555 1_555
H24_4 C25_4 1_555 1_555
C17_4 C18_4 1_555 1_555
N8_2 C20_4 1_555 1_555
C22_4 C23_4 1_555 1_555
C23_4 C24_4 1_555 1_555
C24_4 N8_2 1_555 1_555
H19_4 C20_4 1_555 1_555
H21_4 C23_4 1_555 1_555
H22_4 C24_4 1_555 1_555
Ni4_2 N1_4 1_555 1_555
N1_4 C1_4 1_555 1_555
N3_4 Ni4_2 1_555 1_555
N4_6 C13_4 1_555 1_555
C1_4 C2_4 1_555 1_555
C2_4 C3_4 1_555 1_555
C3_4 C4_4 1_555 1_555
C4_4 C5_4 1_555 1_555
C5_4 N1_4 1_555 1_555
C6_4 C3_4 1_555 1_555
C12_4 C6_4 1_555 1_555
C13_4 N3_4 1_555 1_555
H1_4 C1_4 1_555 1_555
H2_4 C2_4 1_555 1_555
H3_4 C4_4 1_555 1_555
H4_4 C5_4 1_555 1_555
H5_4 C6_4 1_555 1_555
H6_4 C6_4 1_555 1_555
H8_4 C8_4 1_555 1_555
H11_4 C12_4 1_555 1_555
H12_4 C12_4 1_555 1_555
N7_2 C7_4 1_555 1_555
C9_4 C10_4 1_555 1_555
C10_4 C11_4 1_555 1_555
C11_4 N7_2 1_555 1_555
H7_4 C7_4 1_555 1_555
H9_4 C10_4 1_555 1_555
H10_4 C11_4 1_555 1_555

#END
