
###############################################################################
#
# This file contains modified crystal structure data generated from the
# MOF subset of the Cambridge Structural Database (CSD) v543 
# hosted by the Cambridge Crystallographic Data Centre (CCDC).
#
# This work is licensed under the Creative Commons
# Attribution-NonCommercial-ShareAlike 4.0 International License.
# To view a copy of this license, visit
# http://creativecommons.org/licenses/by-nc-sa/4.0/
# or send a letter to
# Creative Commons, PO Box 1866, Mountain View, CA 94042, USA.
#
# CIF created using the CSD Python API on 29 September 2022
# The structure has been converted into the P1 space group
# The structure has a 3D framework
# The original CSD entry PEXBIF01 is in the monoclinic crystal system
# The framework has been calculated to contain at least 10.0% void space
# The void calculation uses a probe of radius 1.32A, grid spacing 0.4
#
###############################################################################

data_PEXBIF01
_chemical_formula_moiety         '(C136 H136 Cd8 N40 O32)n'
_symmetry_cell_setting           triclinic
_symmetry_space_group_name_H-M   'P 1'
_symmetry_Int_Tables_number      1
_space_group_name_Hall           'P 1'
loop_
_symmetry_equiv_pos_site_id
_symmetry_equiv_pos_as_xyz
1 x,y,z
_cell_length_a                   16.6620(19)
_cell_length_b                   14.8610(17)
_cell_length_c                   17.9777(15)
_cell_angle_alpha                90
_cell_angle_beta                 113.117(8)
_cell_angle_gamma                90
_cell_volume                     4094.09
loop_
_atom_site_label
_atom_site_type_symbol
_atom_site_fract_x
_atom_site_fract_y
_atom_site_fract_z
H1 H 0.2725 0.0278 0.4011
H5 H 0.3892 0.0427 0.5421
H6 H 0.5371 0.0200 0.5827
C6 C 0.1224(2) 0.0283(2) 0.09532(19)
H8 H 0.1312 0.0823 0.1235
C15 C 0.0047(2) 0.0879(2) 0.2579(2)
C16 C 0.0951(2) 0.1265(2) 0.2798(2)
N4 N 0.11475(17) 0.02058(18) 0.01782(16)
O3 O 0.15231(17) 0.07845(13) 0.27351(16)
O4 O 0.10523(15) 0.20463(14) 0.30458(14)
C18 C 0.7175(2) 0.0336(2) 0.58939(19)
C19 C 0.7264(2) 0.1763(2) 0.60269(19)
H19 H 0.7448 0.2333 0.6238
C20 C 0.6595(2) 0.1599(2) 0.53238(19)
H20 H 0.6236 0.2021 0.4965
C21 C 0.5905(2) 0.0186(2) 0.45696(18)
H21 H 0.5854 0.0457 0.4062
C22 C 0.5013(2) 0.0171(2) 0.46124(18)
H24 H 0.4780 0.0777 0.4522
N6 N 0.76369(17) 0.09834(18) 0.63881(15)
N7 N 0.6549(2) 0.06908(17) 0.52437(18)
C26 C 0.3748(2) 0.0962(2) 0.0310(2)
H28 H 0.3782 0.1526 0.0052
H29 H 0.4221 0.0950 0.0840
C27 C 0.2897(2) 0.0916(2) 0.0404(2)
H30 H 0.2855 0.1426 0.0723
H31 H 0.2886 0.0374 0.0699
Cd5 Cd 0.881954(15) 0.075851(15) 0.750503(14)
H3 H 0.8764 0.2979 0.0035
C4 C 0.9095(2) 0.4814(2) 0.04304(18)
H4 H 0.9146 0.4543 0.0938
H5_2 H 0.8892 0.5427 0.0421
C5 C 0.9987(2) 0.4829(2) 0.03876(18)
C7 C 0.8970(2) 0.1114(2) 0.9352(2)
H9 H 0.9047 0.1730 0.9316
N1 N 0.88436(18) 0.05028(19) 0.87455(16)
C25 C 0.6034(3) 0.0676(2) 0.9990(2)
H27 H 0.5971 0.0935 0.9499
O10 O 0.91354(16) 0.21860(15) 0.79541(15)
O12 O 0.93902(15) 0.22018(15) 0.68631(15)
C28 C 0.9236(2) 0.5447(2) 0.74426(19)
H32 H 0.9212 0.6072 0.7424
C29 C 0.8499(2) 0.4972(2) 0.73683(18)
H33 H 0.7986 0.5269 0.7311
C30 C 0.8539(2) 0.4044(2) 0.7381(2)
H34 H 0.8048 0.3709 0.7331
C31 C 0.9305(2) 0.3608(2) 0.74671(19)
C34 C 0.9306(2) 0.2591(2) 0.74284(19)
N10 N 0.99886(16) 0.50348(18) 0.75410(15)
C9 C 0.1252(2) 0.0962(2) 0.9690(2)
H11 H 0.1218 0.1526 0.9948
H12 H 0.0779 0.0950 0.9160
C10 C 0.2103(2) 0.0916(2) 0.9596(2)
H13 H 0.2145 0.1426 0.9277
H14 H 0.2114 0.0374 0.9301
C23 C 0.3776(2) 0.0283(2) 0.90468(19)
H25 H 0.3688 0.0823 0.8765
N9 N 0.38525(17) 0.02058(18) 0.98218(16)
C29_2 C 0.6501(2) 0.0028(2) 0.76317(18)
C30_2 C 0.6461(2) 0.0956(2) 0.7619(2)
H34_2 H 0.6952 0.1291 0.7669
C31_2 C 0.5695(2) 0.1392(2) 0.75329(19)
C32 C 0.4953(2) 0.0879(2) 0.7421(2)
C33 C 0.4049(2) 0.1265(2) 0.7202(2)
C34_2 C 0.5694(2) 0.2409(2) 0.75716(19)
O5 O 0.58646(16) 0.28140(15) 0.70459(15)
O6 O 0.56098(15) 0.27982(15) 0.81369(15)
O7 O 0.34769(17) 0.07845(13) 0.72649(16)
O8 O 0.39477(15) 0.20463(14) 0.69542(14)
Cd3 Cd 0.618046(15) 0.424149(15) 0.749497(14)
C8 C 0.1034(3) 0.9324(2) 0.9990(2)
H10 H 0.0971 0.9065 0.9499
C24 C 0.3970(2) 0.8886(2) 0.9352(2)
H26 H 0.4047 0.8270 0.9316
N8 N 0.38436(18) 0.94972(19) 0.87455(16)
C28_2 C 0.5764(2) 0.9553(2) 0.75574(19)
H32_2 H 0.5788 0.8928 0.7576
H33_2 H 0.7014 0.9731 0.7689
Cd2 Cd 0.381954(15) 0.924149(15) 0.750503(14)
N10_2 N 0.50114(16) 0.99652(18) 0.74590(15)
N11 N 0.26369(17) 0.90166(18) 0.63881(15)
O9 O 0.41354(16) 0.78140(15) 0.79541(15)
O11 O 0.43902(15) 0.77982(15) 0.68631(15)
C12 C 0.8499(2) 0.0028(2) 0.23683(18)
C13 C 0.8539(2) 0.0956(2) 0.2381(2)
H17 H 0.8048 0.1291 0.2331
C14 C 0.9305(2) 0.1392(2) 0.24671(19)
C17 C 0.9306(2) 0.2409(2) 0.24284(19)
O1 O 0.91354(16) 0.28140(15) 0.29541(15)
O2 O 0.93902(15) 0.27982(15) 0.18631(15)
Cd4 Cd 0.881954(15) 0.424149(15) 0.250503(14)
H1_2 H 0.2275 0.0278 0.5989
H5_3 H 0.1108 0.0427 0.4579
H24_2 H 0.0220 0.0777 0.5478
C1 C 0.2175(2) 0.9664(2) 0.58939(19)
C2 C 0.2264(2) 0.8237(2) 0.60269(19)
H2 H 0.2448 0.7667 0.6238
C3 C 0.1595(2) 0.8401(2) 0.53238(19)
H3_2 H 0.1236 0.7979 0.4965
C4_2 C 0.0905(2) 0.9814(2) 0.45696(18)
H4_2 H 0.0854 0.9543 0.4062
C5_2 C 0.0013(2) 0.9829(2) 0.46124(18)
N5 N 0.1549(2) 0.93092(17) 0.52437(18)
H23 H 0.0371 0.9800 0.5827
C1_2 C 0.7825(2) 0.4664(2) 0.91061(19)
H1_3 H 0.7725 0.5278 0.9011
C2_2 C 0.7736(2) 0.3237(2) 0.89731(19)
H2_2 H 0.7552 0.2667 0.8762
C3_2 C 0.8405(2) 0.3401(2) 0.96762(19)
C6_2 C 0.6224(2) 0.5283(2) 0.59532(19)
H8_2 H 0.6312 0.5823 0.6235
C7_2 C 0.6030(2) 0.3886(2) 0.5648(2)
H9_2 H 0.5953 0.3270 0.5684
C8_2 C 0.6034(3) 0.4324(2) 0.4990(2)
H10_2 H 0.5971 0.4065 0.4499
C9_2 C 0.6252(2) 0.5962(2) 0.4690(2)
H11_2 H 0.6218 0.6526 0.4948
H12_2 H 0.5779 0.5950 0.4160
C10_2 C 0.7103(2) 0.5916(2) 0.4596(2)
H13_2 H 0.7145 0.6426 0.4277
H14_2 H 0.7114 0.5374 0.4301
C11 C 0.4236(2) 0.4553(2) 0.74426(19)
H15 H 0.4212 0.3928 0.7424
C12_2 C 0.3499(2) 0.5028(2) 0.73683(18)
H16 H 0.2986 0.4731 0.7311
C13_2 C 0.3539(2) 0.5956(2) 0.7381(2)
H17_2 H 0.3048 0.6291 0.7331
C14_2 C 0.4305(2) 0.6392(2) 0.74671(19)
C15_2 C 0.5047(2) 0.5879(2) 0.7579(2)
C16_2 C 0.5951(2) 0.6265(2) 0.7798(2)
C17_2 C 0.4306(2) 0.7409(2) 0.74284(19)
N1_2 N 0.61564(18) 0.44972(19) 0.62545(16)
N2 N 0.73631(17) 0.40166(18) 0.86119(15)
N3 N 0.49886(16) 0.49652(18) 0.75410(15)
N4_2 N 0.61475(17) 0.52058(18) 0.51782(16)
N5_2 N 0.8451(2) 0.43092(17) 0.97563(18)
O3_2 O 0.65231(17) 0.57845(13) 0.77351(16)
O4_2 O 0.60523(15) 0.70463(14) 0.80458(14)
H23_2 H 0.9629 0.4800 0.9173
H24_3 H 0.9780 0.5777 0.9522
C23_2 C 0.8776(2) 0.5283(2) 0.40468(19)
H25_2 H 0.8688 0.5823 0.3765
C24_2 C 0.8970(2) 0.3886(2) 0.4352(2)
H26_2 H 0.9047 0.3270 0.4316
C25_2 C 0.8966(3) 0.4324(2) 0.5010(2)
H27_2 H 0.9029 0.4065 0.5501
C26_2 C 0.8748(2) 0.5962(2) 0.5310(2)
H28_2 H 0.8782 0.6526 0.5052
H29_2 H 0.9221 0.5950 0.5840
C27_2 C 0.7897(2) 0.5916(2) 0.5404(2)
H30_2 H 0.7855 0.6426 0.5723
H31_2 H 0.7886 0.5374 0.5699
N8_2 N 0.88436(18) 0.44972(19) 0.37455(16)
N9_2 N 0.88525(17) 0.52058(18) 0.48218(16)
C32_2 C 0.9953(2) 0.5879(2) 0.2421(2)
C33_2 C 0.9049(2) 0.6265(2) 0.2202(2)
O7_2 O 0.84769(17) 0.57845(13) 0.22649(16)
O8_2 O 0.89477(15) 0.70463(14) 0.19542(14)
N11_2 N 0.76369(17) 0.40166(18) 0.13881(15)
C1_3 C 0.7175(2) 0.4664(2) 0.08939(19)
H1_4 H 0.7275 0.5278 0.0989
C2_3 C 0.7264(2) 0.3237(2) 0.10269(19)
H2_3 H 0.7448 0.2667 0.1238
C3_3 C 0.6595(2) 0.3401(2) 0.03238(19)
N5_3 N 0.6549(2) 0.43092(17) 0.02437(18)
H20_2 H 0.3764 0.7021 0.0035
C21_2 C 0.4095(2) 0.5186(2) 0.04304(18)
H21_2 H 0.4146 0.5457 0.0938
H22 H 0.3892 0.4573 0.0421
C22_2 C 0.4987(2) 0.5171(2) 0.03876(18)
H23_3 H 0.5371 0.4800 0.0827
H24_4 H 0.5220 0.5777 0.0478
C1_4 C 0.2825(2) 0.9664(2) 0.41061(19)
C2_4 C 0.2736(2) 0.8237(2) 0.39731(19)
H2_4 H 0.2552 0.7667 0.3762
C3_4 C 0.3405(2) 0.8401(2) 0.46762(19)
H3_3 H 0.3764 0.7979 0.5035
C4_3 C 0.4095(2) 0.9814(2) 0.54304(18)
H4_3 H 0.4146 0.9543 0.5938
C5_3 C 0.4987(2) 0.9829(2) 0.53876(18)
H7 H 0.5220 0.9223 0.5478
C7_3 C 0.1030(2) 0.8886(2) 0.0648(2)
H9_3 H 0.0953 0.8270 0.0684
Cd1 Cd 0.118046(15) 0.924149(15) 0.249497(14)
N1_3 N 0.11564(18) 0.94972(19) 0.12545(16)
N2_2 N 0.23631(17) 0.90166(18) 0.36119(15)
N5_4 N 0.3451(2) 0.93092(17) 0.47563(18)
H18 H 0.7275 0.9722 0.5989
H22_2 H 0.6108 0.9573 0.4579
H23_4 H 0.4629 0.9800 0.4173
C25_3 C 0.3966(3) 0.9324(2) 0.0010(2)
H27_3 H 0.4029 0.9065 0.0501
O10_2 O 0.08646(16) 0.78140(15) 0.20459(15)
O12_2 O 0.06098(15) 0.77982(15) 0.31369(15)
H20_3 H 0.1236 0.7021 0.9965
C21_3 C 0.0905(2) 0.5186(2) 0.95696(18)
H21_3 H 0.0854 0.5457 0.9062
H22_3 H 0.1108 0.4573 0.9579
C22_3 C 0.0013(2) 0.5171(2) 0.96124(18)
C28_3 C 0.0764(2) 0.4553(2) 0.25574(19)
H32_3 H 0.0788 0.3928 0.2576
C29_3 C 0.1501(2) 0.5028(2) 0.26317(18)
H33_3 H 0.2014 0.4731 0.2689
C30_3 C 0.1461(2) 0.5956(2) 0.2619(2)
H34_3 H 0.1952 0.6291 0.2669
C31_3 C 0.0695(2) 0.6392(2) 0.25329(19)
C34_3 C 0.0694(2) 0.7409(2) 0.25716(19)
N10_3 N 0.00114(16) 0.49652(18) 0.24590(15)
C6_3 C 0.8776(2) 0.9717(2) 0.90468(19)
H8_3 H 0.8688 0.9177 0.8765
C15_3 C 0.9953(2) 0.9121(2) 0.7421(2)
C16_3 C 0.9049(2) 0.8735(2) 0.7202(2)
N4_3 N 0.88525(17) 0.97942(18) 0.98218(16)
O3_3 O 0.84769(17) 0.92155(13) 0.72649(16)
O4_3 O 0.89477(15) 0.79537(14) 0.69542(14)
C26_3 C 0.6252(2) 0.9038(2) 0.9690(2)
H28_3 H 0.6218 0.8474 0.9948
H29_3 H 0.5779 0.9050 0.9160
C27_3 C 0.7103(2) 0.9084(2) 0.9596(2)
H30_3 H 0.7145 0.8574 0.9277
H31_3 H 0.7114 0.9626 0.9301
C11_2 C 0.9236(2) 0.9553(2) 0.24426(19)
H15_2 H 0.9212 0.8928 0.2424
H16_2 H 0.7986 0.9731 0.2311
N3_2 N 0.99886(16) 0.99652(18) 0.25410(15)
H6_2 H 0.9629 0.0200 0.4173
C18_2 C 0.7825(2) 0.0336(2) 0.41061(19)
C19_2 C 0.7736(2) 0.1763(2) 0.39731(19)
H19_2 H 0.7552 0.2333 0.3762
C20_2 C 0.8405(2) 0.1599(2) 0.46762(19)
H20_4 H 0.8764 0.2021 0.5035
C21_4 C 0.9095(2) 0.0186(2) 0.54304(18)
H21_4 H 0.9146 0.0457 0.5938
C22_4 C 0.9987(2) 0.0171(2) 0.53876(18)
N6_2 N 0.73631(17) 0.09834(18) 0.36119(15)
N7_2 N 0.8451(2) 0.06908(17) 0.47563(18)
Cd5_2 Cd 0.618046(15) 0.075851(15) 0.249497(14)
H7_2 H 0.9780 0.9223 0.4522
H18_2 H 0.7725 0.9722 0.4011
H22_4 H 0.8892 0.9573 0.5421
H6_3 H 0.0371 0.5200 0.0827
H7_3 H 0.0220 0.4223 0.0478
C18_3 C 0.2175(2) 0.5336(2) 0.08939(19)
H18_3 H 0.2275 0.4722 0.0989
C19_3 C 0.2264(2) 0.6763(2) 0.10269(19)
H19_3 H 0.2448 0.7333 0.1238
C20_3 C 0.1595(2) 0.6599(2) 0.03238(19)
N6_3 N 0.26369(17) 0.59834(18) 0.13881(15)
N7_3 N 0.1549(2) 0.56908(17) 0.02437(18)
Cd5_3 Cd 0.381954(15) 0.575851(15) 0.250503(14)
H3_4 H 0.6236 0.2979 0.9965
C4_4 C 0.5905(2) 0.4814(2) 0.95696(18)
H4_4 H 0.5854 0.4543 0.9062
H5_4 H 0.6108 0.5427 0.9579
C5_4 C 0.5013(2) 0.4829(2) 0.96124(18)
H6_4 H 0.4629 0.5200 0.9173
H7_4 H 0.4780 0.4223 0.9522
C18_4 C 0.2825(2) 0.5336(2) 0.91061(19)
H18_4 H 0.2725 0.4722 0.9011
C19_4 C 0.2736(2) 0.6763(2) 0.89731(19)
H19_4 H 0.2552 0.7333 0.8762
C20_4 C 0.3405(2) 0.6599(2) 0.96762(19)
N6_4 N 0.23631(17) 0.59834(18) 0.86119(15)
N7_4 N 0.3451(2) 0.56908(17) 0.97563(18)
Cd5_4 Cd 0.118046(15) 0.575851(15) 0.749497(14)
C12_3 C 0.1501(2) 0.9972(2) 0.76317(18)
C13_3 C 0.1461(2) 0.9044(2) 0.7619(2)
H17_3 H 0.1952 0.8709 0.7669
C14_3 C 0.0695(2) 0.8608(2) 0.75329(19)
C17_3 C 0.0694(2) 0.7591(2) 0.75716(19)
O1_2 O 0.08646(16) 0.71860(15) 0.70459(15)
O2_2 O 0.06098(15) 0.72018(15) 0.81369(15)
C8_3 C 0.8966(3) 0.0676(2) 0.0010(2)
H10_3 H 0.9029 0.0935 0.0501
C24_3 C 0.6030(2) 0.1114(2) 0.0648(2)
H26_3 H 0.5953 0.1730 0.0684
N8_3 N 0.61564(18) 0.05028(19) 0.12545(16)
C28_4 C 0.4236(2) 0.0447(2) 0.24426(19)
H32_4 H 0.4212 0.1072 0.2424
H33_4 H 0.2986 0.0269 0.2311
N10_4 N 0.49886(16) 0.00348(18) 0.25410(15)
O9_2 O 0.58646(16) 0.21860(15) 0.20459(15)
O11_2 O 0.56098(15) 0.22018(15) 0.31369(15)
C9_3 C 0.8748(2) 0.9038(2) 0.0310(2)
H11_3 H 0.8782 0.8474 0.0052
H12_3 H 0.9221 0.9050 0.0840
C10_3 C 0.7897(2) 0.9084(2) 0.0404(2)
H13_3 H 0.7855 0.8574 0.0723
H14_3 H 0.7886 0.9626 0.0699
C23_3 C 0.6224(2) 0.9717(2) 0.09532(19)
H25_3 H 0.6312 0.9177 0.1235
N9_3 N 0.61475(17) 0.97942(18) 0.01782(16)
C29_4 C 0.3499(2) 0.9972(2) 0.23683(18)
C30_4 C 0.3539(2) 0.9044(2) 0.2381(2)
H34_4 H 0.3048 0.8709 0.2331
C31_4 C 0.4305(2) 0.8608(2) 0.24671(19)
C32_3 C 0.5047(2) 0.9121(2) 0.2579(2)
C33_3 C 0.5951(2) 0.8735(2) 0.2798(2)
C34_4 C 0.4306(2) 0.7591(2) 0.24284(19)
O5_2 O 0.41354(16) 0.71860(15) 0.29541(15)
O6_2 O 0.43902(15) 0.72018(15) 0.18631(15)
O7_3 O 0.65231(17) 0.92155(13) 0.27351(16)
O8_3 O 0.60523(15) 0.79537(14) 0.30458(14)
C6_4 C 0.3776(2) 0.4717(2) 0.40468(19)
H8_4 H 0.3688 0.4177 0.3765
C7_4 C 0.3970(2) 0.6114(2) 0.4352(2)
H9_4 H 0.4047 0.6730 0.4316
C8_4 C 0.3966(3) 0.5676(2) 0.5010(2)
H10_4 H 0.4029 0.5935 0.5501
C9_4 C 0.3748(2) 0.4038(2) 0.5310(2)
H11_4 H 0.3782 0.3474 0.5052
H12_4 H 0.4221 0.4050 0.5840
C10_4 C 0.2897(2) 0.4084(2) 0.5404(2)
H13_4 H 0.2855 0.3574 0.5723
H14_4 H 0.2886 0.4626 0.5699
C11_3 C 0.5764(2) 0.5447(2) 0.25574(19)
H15_3 H 0.5788 0.6072 0.2576
C12_4 C 0.6501(2) 0.4972(2) 0.26317(18)
H16_3 H 0.7014 0.5269 0.2689
C13_4 C 0.6461(2) 0.4044(2) 0.2619(2)
H17_4 H 0.6952 0.3709 0.2669
C14_4 C 0.5695(2) 0.3608(2) 0.25329(19)
C15_4 C 0.4953(2) 0.4121(2) 0.2421(2)
C16_4 C 0.4049(2) 0.3735(2) 0.2202(2)
C17_4 C 0.5694(2) 0.2591(2) 0.25716(19)
N1_4 N 0.38436(18) 0.55028(19) 0.37455(16)
N3_3 N 0.50114(16) 0.50348(18) 0.24590(15)
N4_4 N 0.38525(17) 0.47942(18) 0.48218(16)
O3_4 O 0.34769(17) 0.42155(13) 0.22649(16)
O4_4 O 0.39477(15) 0.29537(14) 0.19542(14)
C23_4 C 0.1224(2) 0.4717(2) 0.59532(19)
H25_4 H 0.1312 0.4177 0.6235
C24_4 C 0.1030(2) 0.6114(2) 0.5648(2)
H26_4 H 0.0953 0.6730 0.5684
C25_4 C 0.1034(3) 0.5676(2) 0.4990(2)
H27_4 H 0.0971 0.5935 0.4499
C26_4 C 0.1252(2) 0.4038(2) 0.4690(2)
H28_4 H 0.1218 0.3474 0.4948
H29_4 H 0.0779 0.4050 0.4160
C27_4 C 0.2103(2) 0.4084(2) 0.4596(2)
H30_4 H 0.2145 0.3574 0.4277
H31_4 H 0.2114 0.4626 0.4301
N8_4 N 0.11564(18) 0.55028(19) 0.62545(16)
N9_4 N 0.11475(17) 0.47942(18) 0.51782(16)
C32_4 C 0.0047(2) 0.4121(2) 0.7579(2)
C33_4 C 0.0951(2) 0.3735(2) 0.7798(2)
O7_4 O 0.15231(17) 0.42155(13) 0.77351(16)
O8_4 O 0.10523(15) 0.29537(14) 0.80458(14)
C11_4 C 0.0764(2) 0.0447(2) 0.75574(19)
H15_4 H 0.0788 0.1072 0.7576
H16_4 H 0.2014 0.0269 0.7689
N3_4 N 0.00114(16) 0.00348(18) 0.74590(15)
loop_
_geom_bond_atom_site_label_1
_geom_bond_atom_site_label_2
_geom_bond_site_symmetry_1
_geom_bond_site_symmetry_2
C6 H8 1_555 1_555
C16 C15 1_555 1_555
N4 C6 1_555 1_555
O3 C16 1_555 1_555
O4 C16 1_555 1_555
C19 H19 1_555 1_555
C20 C19 1_555 1_555
H20 C20 1_555 1_555
C21 H21 1_555 1_555
H24 C22 1_555 1_555
N6 C18 1_555 1_555
N7 C18 1_555 1_555
C26 H28 1_555 1_555
H29 C26 1_555 1_555
H30 C27 1_555 1_555
H31 C27 1_555 1_555
Cd5 N6 1_555 1_555
C19 N6 1_555 1_555
C20 N7 1_555 1_555
C21 C22 1_555 1_555
C21 N7 1_555 1_555
C26 C27 1_555 1_555
C4 H4 1_555 1_555
H5_2 C4 1_555 1_555
C5 C4 1_555 1_555
C7 H9 1_555 1_555
Cd5 N1 1_555 1_555
H27 C25 1_555 1_555
O10 Cd5 1_555 1_555
O12 Cd5 1_555 1_555
C7 N1 1_555 1_555
C28 H32 1_555 1_555
C29 C28 1_555 1_555
H33 C29 1_555 1_555
C30 C29 1_555 1_555
H34 C30 1_555 1_555
C31 C30 1_555 1_555
C34 C31 1_555 1_555
N10 C28 1_555 1_555
O10 C34 1_555 1_555
O12 C34 1_555 1_555
C9 H11 1_555 1_555
H12 C9 1_555 1_555
C10 C9 1_555 1_555
H13 C10 1_555 1_555
H14 C10 1_555 1_555
C23 H25 1_555 1_555
N9 C23 1_555 1_555
C30_2 C29_2 1_555 1_555
H34_2 C30_2 1_555 1_555
C31_2 C30_2 1_555 1_555
C32 C31_2 1_555 1_555
C33 C32 1_555 1_555
C34_2 C31_2 1_555 1_555
O5 C34_2 1_555 1_555
O6 C34_2 1_555 1_555
O7 C33 1_555 1_555
O8 C33 1_555 1_555
Cd3 O5 1_555 1_555
O6 Cd3 1_555 1_555
H10 C8 1_555 1_555
C24 H26 1_555 1_555
C28_2 H32_2 1_555 1_555
Cd2 N8 1_555 1_555
N10_2 C28_2 1_555 1_555
N11 Cd2 1_555 1_555
O9 Cd2 1_555 1_555
O11 Cd2 1_555 1_555
C24 N8 1_555 1_555
Cd2 N10_2 1_555 1_555
C13 C12 1_555 1_555
H17 C13 1_555 1_555
C14 C13 1_555 1_555
C17 C14 1_555 1_555
O1 C17 1_555 1_555
O2 C17 1_555 1_555
Cd4 O1 1_555 1_555
O2 Cd4 1_555 1_555
C2 H2 1_555 1_555
C3 C2 1_555 1_555
H3_2 C3 1_555 1_555
C4_2 H4_2 1_555 1_555
C5_2 C4_2 1_555 1_555
N11 C1 1_555 1_555
N5 C1 1_555 1_555
C2 N11 1_555 1_555
C3 N5 1_555 1_555
C4_2 N5 1_555 1_555
C1_2 H1_3 1_555 1_555
C2_2 H2_2 1_555 1_555
C3_2 C2_2 1_555 1_555
C6_2 H8_2 1_555 1_555
C7_2 H9_2 1_555 1_555
C8_2 C7_2 1_555 1_555
H10_2 C8_2 1_555 1_555
C9_2 H11_2 1_555 1_555
H12_2 C9_2 1_555 1_555
C10_2 C9_2 1_555 1_555
H13_2 C10_2 1_555 1_555
H14_2 C10_2 1_555 1_555
C11 H15 1_555 1_555
C12_2 C11 1_555 1_555
H16 C12_2 1_555 1_555
C13_2 C12_2 1_555 1_555
H17_2 C13_2 1_555 1_555
C14_2 C13_2 1_555 1_555
C15_2 C14_2 1_555 1_555
C16_2 C15_2 1_555 1_555
C17_2 C14_2 1_555 1_555
Cd3 N1_2 1_555 1_555
N1_2 C6_2 1_555 1_555
N2 C1_2 1_555 1_555
N3 C11 1_555 1_555
N4_2 C6_2 1_555 1_555
N5_2 C1_2 1_555 1_555
O9 C17_2 1_555 1_555
O11 C17_2 1_555 1_555
O3_2 C16_2 1_555 1_555
O4_2 C16_2 1_555 1_555
C23_2 H25_2 1_555 1_555
C24_2 H26_2 1_555 1_555
C25_2 C24_2 1_555 1_555
H27_2 C25_2 1_555 1_555
C26_2 H28_2 1_555 1_555
H29_2 C26_2 1_555 1_555
C27_2 C10_2 1_555 1_555
H30_2 C27_2 1_555 1_555
H31_2 C27_2 1_555 1_555
N8_2 C23_2 1_555 1_555
N9_2 C23_2 1_555 1_555
C33_2 C32_2 1_555 1_555
Cd4 N8_2 1_555 1_555
O7_2 C33_2 1_555 1_555
O8_2 C33_2 1_555 1_555
N11_2 Cd4 1_555 1_555
C2_2 N2 1_555 1_555
C3_2 N5_2 1_555 1_555
C7_2 N1_2 1_555 1_555
C8_2 N4_2 1_555 1_555
C9_2 N4_2 1_555 1_555
C15_2 N3 1_555 1_555
Cd3 N2 1_555 1_555
Cd3 N3 1_555 1_555
Cd3 O3_2 1_555 1_555
C24_2 N8_2 1_555 1_555
C25_2 N9_2 1_555 1_555
C26_2 C27_2 1_555 1_555
C26_2 N9_2 1_555 1_555
Cd4 O7_2 1_555 1_555
C1_3 H1_4 1_555 1_555
C2_3 H2_3 1_555 1_555
C3_3 C2_3 1_555 1_555
N11_2 C1_3 1_555 1_555
N5_3 C1_3 1_555 1_555
C21_2 H21_2 1_555 1_555
H22 C21_2 1_555 1_555
H23_3 C22_2 1_555 1_555
H24_4 C22_2 1_555 1_555
C2_3 N11_2 1_555 1_555
C3_3 N5_3 1_555 1_555
C21_2 C22_2 1_555 1_555
C2_4 H2_4 1_555 1_555
C3_4 C2_4 1_555 1_555
H3_3 C3_4 1_555 1_555
C4_3 H4_3 1_555 1_555
C5_3 C4_3 1_555 1_555
H7 C5_3 1_555 1_555
C7_3 H9_3 1_555 1_555
Cd1 N1_3 1_555 1_555
N2_2 C1_4 1_555 1_555
N5_4 C1_4 1_555 1_555
H27_3 C25_3 1_555 1_555
O10_2 Cd1 1_555 1_555
O12_2 Cd1 1_555 1_555
C2_4 N2_2 1_555 1_555
C3_4 N5_4 1_555 1_555
C4_3 N5_4 1_555 1_555
C7_3 N1_3 1_555 1_555
Cd1 N2_2 1_555 1_555
C21_3 H21_3 1_555 1_555
H22_3 C21_3 1_555 1_555
C28_3 H32_3 1_555 1_555
C29_3 C28_3 1_555 1_555
H33_3 C29_3 1_555 1_555
C30_3 C29_3 1_555 1_555
H34_3 C30_3 1_555 1_555
C31_3 C30_3 1_555 1_555
C34_3 C31_3 1_555 1_555
N10_3 C28_3 1_555 1_555
O10_2 C34_3 1_555 1_555
O12_2 C34_3 1_555 1_555
C21_3 C22_3 1_555 1_555
C6_3 H8_3 1_555 1_555
C16_3 C15_3 1_555 1_555
N4_3 C6_3 1_555 1_555
O3_3 C16_3 1_555 1_555
O4_3 C16_3 1_555 1_555
C26_3 H28_3 1_555 1_555
H29_3 C26_3 1_555 1_555
H30_3 C27_3 1_555 1_555
H31_3 C27_3 1_555 1_555
C26_3 C27_3 1_555 1_555
C11_2 H15_2 1_555 1_555
N3_2 C11_2 1_555 1_555
C19_2 H19_2 1_555 1_555
C20_2 C19_2 1_555 1_555
H20_4 C20_2 1_555 1_555
C21_4 H21_4 1_555 1_555
N6_2 C18_2 1_555 1_555
N7_2 C18_2 1_555 1_555
Cd5_2 N6_2 1_555 1_555
C19_2 N6_2 1_555 1_555
C20_2 N7_2 1_555 1_555
C21_4 C22_4 1_555 1_555
C21_4 N7_2 1_555 1_555
C18_3 H18_3 1_555 1_555
C19_3 H19_3 1_555 1_555
C20_3 C19_3 1_555 1_555
N6_3 C18_3 1_555 1_555
N7_3 C18_3 1_555 1_555
Cd5_3 N6_3 1_555 1_555
C19_3 N6_3 1_555 1_555
C20_3 N7_3 1_555 1_555
C4_4 H4_4 1_555 1_555
H5_4 C4_4 1_555 1_555
C5_4 C4_4 1_555 1_555
H6_4 C5_4 1_555 1_555
H7_4 C5_4 1_555 1_555
C18_4 H18_4 1_555 1_555
C19_4 H19_4 1_555 1_555
C20_4 C19_4 1_555 1_555
N6_4 C18_4 1_555 1_555
N7_4 C18_4 1_555 1_555
Cd5_4 N6_4 1_555 1_555
C19_4 N6_4 1_555 1_555
C20_4 N7_4 1_555 1_555
C13_3 C12_3 1_555 1_555
H17_3 C13_3 1_555 1_555
C14_3 C13_3 1_555 1_555
C17_3 C14_3 1_555 1_555
O1_2 C17_3 1_555 1_555
O2_2 C17_3 1_555 1_555
Cd5_4 O1_2 1_555 1_555
O2_2 Cd5_4 1_555 1_555
H10_3 C8_3 1_555 1_555
C24_3 H26_3 1_555 1_555
C28_4 H32_4 1_555 1_555
Cd5_2 N8_3 1_555 1_555
N10_4 C28_4 1_555 1_555
O9_2 Cd5_2 1_555 1_555
O11_2 Cd5_2 1_555 1_555
C24_3 N8_3 1_555 1_555
Cd5_2 N10_4 1_555 1_555
C9_3 H11_3 1_555 1_555
H12_3 C9_3 1_555 1_555
C10_3 C9_3 1_555 1_555
H13_3 C10_3 1_555 1_555
H14_3 C10_3 1_555 1_555
C23_3 H25_3 1_555 1_555
N9_3 C23_3 1_555 1_555
C30_4 C29_4 1_555 1_555
H34_4 C30_4 1_555 1_555
C31_4 C30_4 1_555 1_555
C32_3 C31_4 1_555 1_555
C33_3 C32_3 1_555 1_555
C34_4 C31_4 1_555 1_555
O5_2 C34_4 1_555 1_555
O6_2 C34_4 1_555 1_555
O7_3 C33_3 1_555 1_555
O8_3 C33_3 1_555 1_555
Cd5_3 O5_2 1_555 1_555
O6_2 Cd5_3 1_555 1_555
C6_4 H8_4 1_555 1_555
C7_4 H9_4 1_555 1_555
C8_4 C7_4 1_555 1_555
H10_4 C8_4 1_555 1_555
C9_4 H11_4 1_555 1_555
H12_4 C9_4 1_555 1_555
C10_4 C9_4 1_555 1_555
H13_4 C10_4 1_555 1_555
H14_4 C10_4 1_555 1_555
C11_3 H15_3 1_555 1_555
C12_4 C11_3 1_555 1_555
H16_3 C12_4 1_555 1_555
C13_4 C12_4 1_555 1_555
H17_4 C13_4 1_555 1_555
C14_4 C13_4 1_555 1_555
C15_4 C14_4 1_555 1_555
C16_4 C15_4 1_555 1_555
C17_4 C14_4 1_555 1_555
Cd5_3 N1_4 1_555 1_555
N1_4 C6_4 1_555 1_555
N3_3 C11_3 1_555 1_555
N4_4 C6_4 1_555 1_555
O9_2 C17_4 1_555 1_555
O11_2 C17_4 1_555 1_555
O3_4 C16_4 1_555 1_555
O4_4 C16_4 1_555 1_555
C23_4 H25_4 1_555 1_555
C24_4 H26_4 1_555 1_555
C25_4 C24_4 1_555 1_555
H27_4 C25_4 1_555 1_555
C26_4 H28_4 1_555 1_555
H29_4 C26_4 1_555 1_555
C27_4 C10_4 1_555 1_555
H30_4 C27_4 1_555 1_555
H31_4 C27_4 1_555 1_555
N8_4 C23_4 1_555 1_555
N9_4 C23_4 1_555 1_555
C33_4 C32_4 1_555 1_555
Cd5_4 N8_4 1_555 1_555
O7_4 C33_4 1_555 1_555
O8_4 C33_4 1_555 1_555
C7_4 N1_4 1_555 1_555
C8_4 N4_4 1_555 1_555
C9_4 N4_4 1_555 1_555
C15_4 N3_3 1_555 1_555
Cd5_3 N3_3 1_555 1_555
Cd5_3 O3_4 1_555 1_555
C24_4 N8_4 1_555 1_555
C25_4 N9_4 1_555 1_555
C26_4 C27_4 1_555 1_555
C26_4 N9_4 1_555 1_555
Cd5_4 O7_4 1_555 1_555
C11_4 H15_4 1_555 1_555
N3_4 C11_4 1_555 1_555

#END
