
###############################################################################
#
# This file contains modified crystal structure data generated from the
# MOF subset of the Cambridge Structural Database (CSD) v543 
# hosted by the Cambridge Crystallographic Data Centre (CCDC).
#
# This work is licensed under the Creative Commons
# Attribution-NonCommercial-ShareAlike 4.0 International License.
# To view a copy of this license, visit
# http://creativecommons.org/licenses/by-nc-sa/4.0/
# or send a letter to
# Creative Commons, PO Box 1866, Mountain View, CA 94042, USA.
#
# CIF created using the CSD Python API on 29 September 2022
# The structure has been converted into the P1 space group
# The structure has a 3D framework
# The original CSD entry PEXGUX is in the monoclinic crystal system
# The original CSD entry PEXGUX is in a Sohncke space group
# The framework has been calculated to contain at least 10.0% void space
# The void calculation uses a probe of radius 1.32A, grid spacing 0.4
#
###############################################################################

data_PEXGUX
_chemical_formula_moiety         '(C224 H172 Ca12 N32 O57)n'
_symmetry_cell_setting           triclinic
_symmetry_space_group_name_H-M   'P 1'
_symmetry_Int_Tables_number      1
_space_group_name_Hall           'P 1'
loop_
_symmetry_equiv_pos_site_id
_symmetry_equiv_pos_as_xyz
1 x,y,z
_cell_length_a                   15.0283(10)
_cell_length_b                   29.0847(18)
_cell_length_c                   16.2929(12)
_cell_angle_alpha                90
_cell_angle_beta                 92.800(4)
_cell_angle_gamma                90
_cell_volume                     7113.02
loop_
_atom_site_label
_atom_site_type_symbol
_atom_site_fract_x
_atom_site_fract_y
_atom_site_fract_z
C68 C 0.0264(5) 0.8674(3) 0.6963(4)
C72 C 0.0412(5) 0.8234(3) 0.7200(4)
H64 H 0.0977 0.8110 0.7150
C80 C 0.0999(5) 0.8965(3) 0.6627(5)
O17 O 0.1730(3) 0.89566(18) 0.7042(3)
O21 O 0.0851(4) 0.9190(2) 0.5982(3)
Ca8 Ca 0.30761(11) 0.93317(6) 0.67364(9)
Ca10 Ca 0.14163(10) 0.94658(6) 0.47952(9)
Ca21 Ca 0.21774(10) 0.87238(5) 0.83889(9)
C2 C 0.2525(6) 0.0229(3) 0.5608(8)
C10 C 0.2635(5) 0.0745(3) 0.5723(5)
C11 C 0.1984(5) 0.0324(3) 0.2990(5)
C18 C 0.3128(6) 0.1012(3) 0.5215(6)
H14 H 0.3381 0.0871 0.4771
C19 C 0.1317(5) 0.0574(3) 0.3389(5)
H15 H 0.0805 0.0429 0.3559
H18 H 0.0212 0.0835 0.4542
H19 H 0.0075 0.0750 0.5478
C26 C 0.3266(5) 0.1481(3) 0.5329(5)
H30 H 0.3614 0.1647 0.4977
C27 C 0.1450(5) 0.1033(3) 0.3513(5)
H31 H 0.1022 0.1202 0.3775
C32 C 0.4752(11) 0.0051(6) 0.3468(9)
H42 H 0.4956 0.0167 0.3996
H44 H 0.4503 0.0298 0.3141
C34 C 0.2860(5) 0.1700(3) 0.6001(5)
C35 C 0.2206(5) 0.1252(3) 0.3261(5)
C38 C 0.2358(6) 0.1433(3) 0.6510(5)
H46 H 0.2067 0.1570 0.6936
C39 C 0.2845(5) 0.1019(3) 0.2871(5)
H47 H 0.3361 0.1164 0.2713
C42 C 0.2289(6) 0.0973(3) 0.6392(5)
H50 H 0.1995 0.0801 0.6776
C43 C 0.2683(6) 0.0529(3) 0.2709(6)
H51 H 0.3081 0.0363 0.2405
C46 C 0.2969(5) 0.2210(3) 0.6159(5)
C47 C 0.2347(5) 0.1743(3) 0.3443(5)
C50 C 0.3741(5) 0.2864(3) 0.6070(4)
C51 C 0.1926(5) 0.2402(3) 0.4066(5)
C54 C 0.4544(5) 0.3124(2) 0.5808(4)
C55 C 0.1284(5) 0.2668(3) 0.4541(5)
C58 C 0.5014(5) 0.2993(3) 0.5161(5)
H54 H 0.4836 0.2735 0.4859
C59 C 0.0642(6) 0.2430(3) 0.4973(6)
H55 H 0.0616 0.2111 0.4934
C62 C 0.5781(5) 0.3245(3) 0.4935(5)
H58 H 0.6090 0.3161 0.4478
C63 C 0.0053(6) 0.2654(3) 0.5451(5)
C66 C 0.6058(5) 0.3623(3) 0.5421(4)
C67 C 0.0031(5) 0.3135(3) 0.5422(4)
C70 C 0.5555(5) 0.3748(3) 0.6090(4)
H62 H 0.5741 0.3996 0.6416
C71 C 0.0661(5) 0.3384(3) 0.5037(5)
H63 H 0.0664 0.3704 0.5054
C74 C 0.4811(5) 0.3519(3) 0.6274(5)
H66 H 0.4473 0.3619 0.6703
C75 C 0.1320(5) 0.3132(3) 0.4603(5)
H67 H 0.1777 0.3291 0.4362
C78 C 0.6874(5) 0.3871(3) 0.5261(6)
C82 C 0.2492(5) 0.2847(3) 0.6768(4)
C83 C 0.3242(5) 0.2376(3) 0.3428(4)
C86 C 0.1806(5) 0.3095(3) 0.7243(5)
C87 C 0.4061(5) 0.2603(2) 0.3192(5)
C90 C 0.1960(6) 0.3528(3) 0.7512(6)
H70 H 0.2501 0.3668 0.7414
C91 C 0.4136(5) 0.3079(3) 0.3151(4)
H71 H 0.3649 0.3259 0.3274
C94 C 0.1322(5) 0.3770(3) 0.7936(5)
H74 H 0.1441 0.4062 0.8148
C95 C 0.4900(5) 0.3291(3) 0.2938(4)
H75 H 0.4925 0.3610 0.2921
C98 C 0.0488(5) 0.3555(3) 0.8030(5)
C99 C 0.5649(5) 0.3032(3) 0.2744(4)
C101 C 0.0759(5) 0.3316(3) 0.0153(4)
H77 H 0.0816 0.3624 0.0299
C102 C 0.0332(5) 0.3123(3) 0.7744(5)
C103 C 0.5581(5) 0.2542(3) 0.2764(5)
H79 H 0.6058 0.2360 0.2620
C106 C 0.1008(5) 0.2873(3) 0.7374(4)
H82 H 0.0921 0.2568 0.7221
C107 C 0.4796(5) 0.2341(3) 0.3002(5)
H83 H 0.4762 0.2022 0.3036
C111 C 0.6458(5) 0.3261(3) 0.2476(4)
N2 N 0.2369(4) 0.2387(2) 0.6612(4)
N3 N 0.1742(4) 0.1966(2) 0.3915(4)
N10 N 0.3181(4) 0.3093(2) 0.6512(4)
N11 N 0.2646(4) 0.2631(2) 0.3819(4)
N14 N 0.3662(4) 0.2423(2) 0.5848(4)
N15 N 0.3133(4) 0.1934(2) 0.3244(4)
O2 O 0.2423(5) 0.0087(2) 0.4890(5)
O15 O 0.7331(3) 0.4039(2) 0.5825(3)
O19 O 0.7044(4) 0.39472(19) 0.4481(4)
O24 O 0.7096(4) 0.30262(19) 0.2208(3)
O28 O 0.6464(3) 0.36955(19) 0.2474(3)
O42 O 0.1162(4) 0.0133(2) 0.0591(4)
O46 O 0.2660(4) 0.0094(2) 0.0708(4)
Ca9 Ca 0.69239(11) 0.43317(6) 0.32636(9)
Ca12 Ca 0.85837(10) 0.44658(6) 0.52048(9)
Ca15 Ca 0.81036(10) 0.37905(5) 0.70146(9)
Ca23 Ca 0.78226(10) 0.37238(5) 0.16111(9)
C9 C 0.2433(5) 0.0240(3) 0.8533(4)
H9 H 0.5298 0.0027 0.7983
C17 C 0.3219(5) 0.0481(3) 0.8360(6)
H13 H 0.3720 0.0314 0.8227
C25 C 0.3269(5) 0.0945(3) 0.8382(5)
H29 H 0.3791 0.1086 0.8228
C33 C 0.2568(5) 0.1221(3) 0.8627(4)
C37 C 0.1771(5) 0.1000(3) 0.8807(4)
H45 H 0.1286 0.1173 0.8960
C41 C 0.1701(5) 0.0536(3) 0.8760(5)
H49 H 0.1162 0.0400 0.8877
C45 C 0.2637(5) 0.1715(3) 0.8717(5)
C49 C 0.3435(5) 0.2384(2) 0.8632(5)
C53 C 0.4255(5) 0.2635(3) 0.8404(4)
C57 C 0.4862(6) 0.2415(3) 0.7940(5)
H53 H 0.4773 0.2107 0.7808
C61 C 0.5607(6) 0.2638(3) 0.7661(7)
H57 H 0.5982 0.2497 0.7299
C65 C 0.5775(5) 0.3106(3) 0.7962(5)
C69 C 0.5173(5) 0.3307(3) 0.8436(5)
H61 H 0.5281 0.3605 0.8622
C73 C 0.4382(5) 0.3083(3) 0.8665(5)
H65 H 0.3967 0.3231 0.8977
C77 C 0.6592(5) 0.3354(3) 0.7703(5)
C81 C 0.2088(5) 0.2394(3) 0.9180(5)
C85 C 0.1352(5) 0.2629(3) 0.9585(5)
C89 C 0.0593(5) 0.2389(3) 0.9783(5)
H69 H 0.0549 0.2075 0.9679
C105 C 0.1446(5) 0.3097(2) 0.9778(4)
H81 H 0.1960 0.3257 0.9656
N1 N 0.1959(4) 0.1936(2) 0.9054(4)
N9 N 0.2825(4) 0.2629(2) 0.8993(4)
N13 N 0.3412(4) 0.1931(2) 0.8494(4)
O14 O 0.7114(4) 0.3158(2) 0.7245(3)
O18 O 0.6707(4) 0.3762(2) 0.7951(3)
Ca17 Ca 0.67762(10) 0.44670(6) 0.86553(9)
C3 C 0.1858(5) 0.9805(3) 0.2906(5)
C8 C 0.5248(8) 0.9685(4) 0.2308(8)
C16 C 0.5939(7) 0.9429(4) 0.1826(7)
H10 H 0.5673 0.9331 0.1308
H11 H 0.6147 0.9165 0.2134
H12 H 0.6431 0.9630 0.1734
C24 C 0.6416(11) 0.9786(6) 0.3407(11)
H26 H 0.6476 0.9925 0.3942
H27 H 0.6828 0.9926 0.3052
H28 H 0.6542 0.9463 0.3452
H43 H 0.4305 0.9820 0.3538
N8 N 0.5489(8) 0.9853(4) 0.3061(7)
O3 O 0.2336(4) 0.95803(18) 0.2419(3)
O5 O 0.0227(5) 0.9975(3) 0.4837(4)
O8 O 0.4451(5) 0.9752(3) 0.2000(5)
O9 O 0.2023(3) 0.9062(2) 0.0648(4)
O11 O 0.2448(5) 0.9989(2) 0.6245(4)
O12 O 0.1315(3) 0.95954(18) 0.3337(3)
O13 O 0.3988(3) 0.91942(19) 0.0252(3)
Ca3 Ca 0.18964(10) 0.87905(5) 0.29854(9)
Ca4 Ca 0.32238(10) 0.94670(6) 0.13447(9)
H85 H 0.2234(19) 0.8848(11) 0.033(2)
H86 H 0.1828(19) 0.8847(11) 0.097(2)
O31 O 0.2886(4) 0.8158(2) 0.2755(3)
O32 O 0.2669(3) 0.9039(2) 0.4175(3)
O33 O 0.1169(4) 0.8169(2) 0.3676(4)
O35 O 0.3293(4) 0.8762(2) 0.2049(3)
O37 O 0.0706(4) 0.88276(19) 0.4174(4)
O40 O 0.0039(3) 0.9105(2) 0.1044(4)
O44 O 0.1035(3) 0.86917(19) 0.1769(3)
Ca20 Ca 0.92024(10) 0.44461(6) 0.00547(9)
C1 C 0.2362(5) 0.9765(3) 0.8504(5)
C4 C 0.3847(6) 0.8853(3) 0.9790(4)
C7 C 0.5251(8) 0.9558(5) 0.7021(11)
C12 C 0.4659(5) 0.8604(3) 0.9507(4)
C15 C 0.5434(17) 0.9706(9) 0.7926(9)
H7 H 0.6051 0.9655 0.8082
H8 H 0.5068 0.9529 0.8274
C20 C 0.4595(5) 0.8150(3) 0.9334(5)
H16 H 0.4051 0.7999 0.9362
C23 C 0.5765(11) 0.9301(6) 0.5594(8)
H23 H 0.6315 0.9228 0.5348
H24 H 0.5487 0.9556 0.5311
H25 H 0.5375 0.9039 0.5556
C28 C 0.5373(5) 0.7902(3) 0.9107(4)
H32 H 0.5355 0.7586 0.9019
C31 C 0.6897(12) 0.9379(8) 0.6851(13)
H39 H 0.7286 0.9293 0.6428
H40 H 0.6915 0.9149 0.7273
H41 H 0.7086 0.9669 0.7083
C36 C 0.6153(5) 0.8149(2) 0.9025(4)
C40 C 0.6190(5) 0.8608(3) 0.9194(5)
H48 H 0.6724 0.8764 0.9140
C44 C 0.5455(5) 0.8847(3) 0.9443(5)
H52 H 0.5489 0.9159 0.9564
C48 C 0.6948(5) 0.7902(3) 0.8715(4)
C52 C 0.8230(5) 0.7914(3) 0.8071(4)
C56 C 0.8926(5) 0.8174(3) 0.7655(5)
C60 C 0.8780(6) 0.8621(3) 0.7394(5)
H56 H 0.8212 0.8744 0.7426
C64 C 0.9417(5) 0.8884(3) 0.7098(5)
H60 H 0.9316 0.9194 0.6983
C76 C 0.9742(5) 0.7956(3) 0.7521(5)
H68 H 0.9835 0.7646 0.7638
C84 C 0.7734(5) 0.7247(3) 0.8611(5)
C88 C 0.7861(5) 0.6748(3) 0.8815(5)
C92 C 0.7164(5) 0.6506(3) 0.9112(5)
H72 H 0.6642 0.6660 0.9226
C96 C 0.7220(6) 0.6041(3) 0.9245(5)
H76 H 0.6721 0.5878 0.9398
C100 C 0.8008(6) 0.5816(3) 0.9155(5)
C104 C 0.8734(6) 0.6078(3) 0.8882(6)
H80 H 0.9284 0.5937 0.8830
C108 C 0.8638(5) 0.6532(3) 0.8695(5)
H84 H 0.9109 0.6694 0.8485
C112 C 0.8050(6) 0.5300(3) 0.9329(5)
N4 N 0.7541(4) 0.8149(2) 0.8343(4)
N7 N 0.5948(7) 0.9424(4) 0.6486(8)
N12 N 0.8388(4) 0.7455(2) 0.8210(4)
N16 N 0.7003(4) 0.7448(2) 0.8883(4)
O1 O 0.2921(3) 0.95217(18) 0.8118(3)
O4 O 0.3083(3) 0.86999(18) 0.9581(3)
O7 O 0.4508(5) 0.9557(3) 0.6554(6)
O10 O 0.1740(4) 0.95513(19) 0.8870(3)
O25 O 0.8838(4) 0.5133(2) 0.9409(4)
O29 O 0.7340(4) 0.5094(2) 0.9292(4)
Ca5 Ca 0.07976(10) 0.94461(6) 0.99453(9)
O36 O 0.2956(4) 0.89472(19) 0.5519(4)
O39 O 0.0741(3) 0.87611(19) 0.9185(3)
O41 O 0.2904(4) 0.80262(19) 0.7792(3)
O43 O 0.1373(4) 0.80890(19) 0.8987(3)
O45 O 0.3536(3) 0.86955(19) 0.7526(3)
C5 C 0.9448(8) 0.0056(6) 0.4655(9)
C21 C 0.9783(15) 0.0827(7) 0.4960(16)
H17 H 0.9507 0.1123 0.4999
H22 H 0.9671 0.0609 0.0149
C29 C 0.8124(11) 0.0541(7) 0.4673(18)
H33 H 0.7864 0.0242 0.4583
H34 H 0.7962 0.0737 0.4217
H35 H 0.7910 0.0670 0.5169
H59 H 0.9678 0.2491 0.5784
C79 C 0.9316(6) 0.3388(4) 0.5881(5)
C93 C 0.9900(5) 0.2622(3) 0.0136(5)
H73 H 0.9382 0.2465 0.0252
C97 C 0.9976(5) 0.3077(3) 0.0315(5)
H78 H 0.9774 0.2991 0.7794
C109 C 0.9244(5) 0.3321(3) 0.0737(4)
C110 C 0.9761(5) 0.3809(3) 0.8438(5)
N5 N 0.9131(10) 0.0496(7) 0.4755(8)
O16 O 0.8831(4) 0.3169(2) 0.6324(4)
O20 O 0.9294(4) 0.38276(19) 0.5826(4)
O22 O 0.9259(3) 0.37611(19) 0.0815(3)
O23 O 0.9961(3) 0.4105(2) 0.8956(4)
O26 O 0.8627(4) 0.30890(19) 0.1013(3)
O27 O 0.8965(3) 0.36917(19) 0.8231(3)
C5_2 C 0.0552(8) 0.5056(6) 0.5345(9)
C13 C 0.1235(14) 0.4666(7) 0.552(2)
H1 H 0.1815 0.4797 0.5627
H2 H 0.1248 0.4468 0.5046
H3 H 0.1067 0.4492 0.5984
C21_2 C 0.0217(15) 0.5827(7) 0.5040(16)
H17_2 H 0.0493 0.6123 0.5001
H22_2 H 0.0329 0.5609 0.9851
C29_2 C 0.1876(11) 0.5541(7) 0.5327(18)
H33_2 H 0.2136 0.5242 0.5417
H34_2 H 0.2038 0.5737 0.5783
H35_2 H 0.2090 0.5670 0.4831
H59_2 H 0.0322 0.7491 0.4216
C79_2 C 0.0684(6) 0.8388(4) 0.4119(5)
C93_2 C 0.0100(5) 0.7622(3) 0.9864(5)
H73_2 H 0.0618 0.7465 0.9748
C97_2 C 0.0024(5) 0.8077(3) 0.9685(5)
H78_2 H 0.0226 0.7991 0.2206
C109_2 C 0.0756(5) 0.8321(3) 0.9263(4)
C110_2 C 0.0239(5) 0.8809(3) 0.1562(5)
N5_2 N 0.0869(10) 0.5496(7) 0.5245(8)
C1_2 C 0.7638(5) 0.4765(3) 0.1496(5)
C4_2 C 0.6153(6) 0.3853(3) 0.0210(4)
C7_2 C 0.4749(8) 0.4558(5) 0.2979(11)
C9_2 C 0.7567(5) 0.5240(3) 0.1467(4)
C12_2 C 0.5341(5) 0.3604(3) 0.0493(4)
C15_2 C 0.4566(17) 0.4706(9) 0.2074(9)
H7_2 H 0.3949 0.4655 0.1918
H8_2 H 0.4932 0.4529 0.1726
H9_2 H 0.4702 0.5027 0.2017
C17_2 C 0.6781(5) 0.5481(3) 0.1640(6)
H13_2 H 0.6280 0.5314 0.1773
C20_2 C 0.5405(5) 0.3150(3) 0.0666(5)
H16_2 H 0.5949 0.2999 0.0638
C23_2 C 0.4235(11) 0.4301(6) 0.4406(8)
H23_2 H 0.3685 0.4228 0.4652
H24_2 H 0.4513 0.4556 0.4689
H25_2 H 0.4625 0.4039 0.4444
C25_2 C 0.6731(5) 0.5945(3) 0.1618(5)
H29_2 H 0.6209 0.6086 0.1772
C28_2 C 0.4627(5) 0.2902(3) 0.0893(4)
H32_2 H 0.4645 0.2586 0.0981
C31_2 C 0.3103(12) 0.4379(8) 0.3149(13)
H39_2 H 0.2714 0.4293 0.3572
H40_2 H 0.3085 0.4149 0.2727
H41_2 H 0.2914 0.4669 0.2917
C33_2 C 0.7432(5) 0.6221(3) 0.1373(4)
C36_2 C 0.3847(5) 0.3149(2) 0.0975(4)
C37_2 C 0.8229(5) 0.6000(3) 0.1193(4)
H45_2 H 0.8714 0.6173 0.1040
C40_2 C 0.3810(5) 0.3608(3) 0.0806(5)
H48_2 H 0.3276 0.3764 0.0860
C41_2 C 0.8299(5) 0.5536(3) 0.1240(5)
H49_2 H 0.8838 0.5400 0.1123
C44_2 C 0.4545(5) 0.3847(3) 0.0557(5)
H52_2 H 0.4511 0.4159 0.0436
C45_2 C 0.7363(5) 0.6715(3) 0.1283(5)
C48_2 C 0.3052(5) 0.2902(3) 0.1285(4)
C49_2 C 0.6565(5) 0.7384(2) 0.1368(5)
C52_2 C 0.1770(5) 0.2914(3) 0.1929(4)
C53_2 C 0.5745(5) 0.7635(3) 0.1596(4)
C56_2 C 0.1074(5) 0.3174(3) 0.2345(5)
C57_2 C 0.5138(6) 0.7415(3) 0.2060(5)
H53_2 H 0.5227 0.7107 0.2192
C60_2 C 0.1220(6) 0.3621(3) 0.2606(5)
H56_2 H 0.1788 0.3744 0.2574
C61_2 C 0.4393(6) 0.7638(3) 0.2339(7)
H57_2 H 0.4018 0.7497 0.2701
C64_2 C 0.0583(5) 0.3884(3) 0.2902(5)
H60_2 H 0.0684 0.4194 0.3017
C65_2 C 0.4225(5) 0.8106(3) 0.2038(5)
C69_2 C 0.4827(5) 0.8307(3) 0.1564(5)
H61_2 H 0.4719 0.8605 0.1378
C73_2 C 0.5618(5) 0.8083(3) 0.1335(5)
H65_2 H 0.6033 0.8231 0.1023
C76_2 C 0.0258(5) 0.2956(3) 0.2479(5)
H68_2 H 0.0165 0.2646 0.2362
C77_2 C 0.3408(5) 0.8354(3) 0.2297(5)
C81_2 C 0.7912(5) 0.7394(3) 0.0820(5)
C84_2 C 0.2266(5) 0.2247(3) 0.1389(5)
C85_2 C 0.8648(5) 0.7629(3) 0.0415(5)
C88_2 C 0.2139(5) 0.1748(3) 0.1185(5)
C89_2 C 0.9407(5) 0.7389(3) 0.0217(5)
H69_2 H 0.9451 0.7075 0.0321
C92_2 C 0.2836(5) 0.1506(3) 0.0888(5)
H72_2 H 0.3358 0.1660 0.0774
C96_2 C 0.2780(6) 0.1041(3) 0.0755(5)
H76_2 H 0.3279 0.0878 0.0602
C100_2 C 0.1992(6) 0.0816(3) 0.0845(5)
C104_2 C 0.1266(6) 0.1078(3) 0.1118(6)
H80_2 H 0.0716 0.0937 0.1170
C105_2 C 0.8554(5) 0.8097(2) 0.0222(4)
H81_2 H 0.8040 0.8257 0.0344
C108_2 C 0.1362(5) 0.1532(3) 0.1305(5)
H84_2 H 0.0891 0.1694 0.1515
C112_2 C 0.1950(6) 0.0300(3) 0.0671(5)
N1_2 N 0.8041(4) 0.6936(2) 0.0946(4)
N4_2 N 0.2459(4) 0.3149(2) 0.1657(4)
N7_2 N 0.4052(7) 0.4424(4) 0.3514(8)
N9_2 N 0.7175(4) 0.7629(2) 0.1007(4)
N12_2 N 0.1612(4) 0.2455(2) 0.1790(4)
N13_2 N 0.6588(4) 0.6931(2) 0.1506(4)
N16_2 N 0.2997(4) 0.2448(2) 0.1117(4)
O1_2 O 0.7079(3) 0.45217(18) 0.1882(3)
O4_2 O 0.6917(3) 0.36999(18) 0.0419(3)
O7_2 O 0.5492(5) 0.4557(3) 0.3446(6)
O10_2 O 0.8260(4) 0.45513(19) 0.1130(3)
O30 O 0.7552(5) 0.4989(2) 0.3755(4)
O34 O 0.8270(3) 0.39566(18) 0.2958(3)
C2_2 C 0.7475(6) 0.5229(3) 0.4392(8)
C3_2 C 0.8142(5) 0.4805(3) 0.7094(5)
C8_2 C 0.4752(8) 0.4685(4) 0.7692(8)
C10_2 C 0.7365(5) 0.5745(3) 0.4277(5)
C11_2 C 0.8016(5) 0.5324(3) 0.7010(5)
C16_2 C 0.4061(7) 0.4429(4) 0.8174(7)
H10_2 H 0.4327 0.4331 0.8692
H11_2 H 0.3853 0.4165 0.7866
H12_2 H 0.3569 0.4630 0.8266
C18_2 C 0.6872(6) 0.6012(3) 0.4785(6)
H14_2 H 0.6619 0.5871 0.5229
C19_2 C 0.8683(5) 0.5574(3) 0.6611(5)
H15_2 H 0.9195 0.5429 0.6441
H18_2 H 0.9788 0.5835 0.5458
H19_2 H 0.9925 0.5750 0.4522
C24_2 C 0.3584(11) 0.4786(6) 0.6593(11)
H26_2 H 0.3524 0.4925 0.6058
H27_2 H 0.3172 0.4926 0.6948
H28_2 H 0.3458 0.4463 0.6548
C26_2 C 0.6734(5) 0.6481(3) 0.4671(5)
H30_2 H 0.6386 0.6647 0.5023
C27_2 C 0.8550(5) 0.6033(3) 0.6487(5)
H31_2 H 0.8978 0.6202 0.6225
C32_2 C 0.5248(11) 0.5051(6) 0.6532(9)
H42_2 H 0.5044 0.5167 0.6004
H43_2 H 0.5695 0.4820 0.6462
H44_2 H 0.5497 0.5298 0.6859
C34_2 C 0.7140(5) 0.6700(3) 0.3999(5)
C35_2 C 0.7794(5) 0.6252(3) 0.6739(5)
C38_2 C 0.7642(6) 0.6433(3) 0.3490(5)
H46_2 H 0.7933 0.6570 0.3064
C39_2 C 0.7155(5) 0.6019(3) 0.7129(5)
H47_2 H 0.6639 0.6164 0.7287
C42_2 C 0.7711(6) 0.5973(3) 0.3608(5)
H50_2 H 0.8005 0.5801 0.3224
C43_2 C 0.7317(6) 0.5529(3) 0.7291(6)
H51_2 H 0.6919 0.5363 0.7595
C46_2 C 0.7031(5) 0.7210(3) 0.3841(5)
C47_2 C 0.7653(5) 0.6743(3) 0.6557(5)
C50_2 C 0.6259(5) 0.7864(3) 0.3930(4)
C51_2 C 0.8074(5) 0.7402(3) 0.5934(5)
C54_2 C 0.5456(5) 0.8124(2) 0.4192(4)
C55_2 C 0.8716(5) 0.7668(3) 0.5459(5)
C58_2 C 0.4986(5) 0.7993(3) 0.4839(5)
H54_2 H 0.5164 0.7735 0.5141
C59_2 C 0.9358(6) 0.7430(3) 0.5027(6)
H55_2 H 0.9384 0.7111 0.5066
C62_2 C 0.4219(5) 0.8245(3) 0.5065(5)
H58_2 H 0.3910 0.8161 0.5522
C63_2 C 0.9947(6) 0.7654(3) 0.4549(5)
C66_2 C 0.3942(5) 0.8623(3) 0.4579(4)
C67_2 C 0.9969(5) 0.8135(3) 0.4578(4)
C70_2 C 0.4445(5) 0.8748(3) 0.3910(4)
H62_2 H 0.4259 0.8996 0.3584
C71_2 C 0.9339(5) 0.8384(3) 0.4963(5)
H63_2 H 0.9336 0.8704 0.4946
C74_2 C 0.5189(5) 0.8519(3) 0.3726(5)
H66_2 H 0.5527 0.8619 0.3297
C75_2 C 0.8680(5) 0.8132(3) 0.5397(5)
H67_2 H 0.8223 0.8291 0.5638
C78_2 C 0.3126(5) 0.8871(3) 0.4739(6)
C82_2 C 0.7508(5) 0.7847(3) 0.3232(4)
C83_2 C 0.6758(5) 0.7376(3) 0.6572(4)
C86_2 C 0.8194(5) 0.8095(3) 0.2757(5)
C87_2 C 0.5939(5) 0.7603(2) 0.6808(5)
C90_2 C 0.8040(6) 0.8528(3) 0.2488(6)
H70_2 H 0.7499 0.8668 0.2586
C91_2 C 0.5864(5) 0.8079(3) 0.6849(4)
H71_2 H 0.6351 0.8259 0.6726
C94_2 C 0.8678(5) 0.8770(3) 0.2064(5)
H74_2 H 0.8559 0.9062 0.1852
C95_2 C 0.5100(5) 0.8291(3) 0.7062(4)
H75_2 H 0.5075 0.8610 0.7079
C98_2 C 0.9512(5) 0.8555(3) 0.1970(5)
C99_2 C 0.4351(5) 0.8032(3) 0.7256(4)
C101_2 C 0.9241(5) 0.8316(3) 0.9847(4)
H77_2 H 0.9184 0.8624 0.9701
C102_2 C 0.9668(5) 0.8123(3) 0.2256(5)
C103_2 C 0.4419(5) 0.7542(3) 0.7236(5)
H79_2 H 0.3942 0.7360 0.7380
C106_2 C 0.8992(5) 0.7873(3) 0.2626(4)
H82_2 H 0.9079 0.7568 0.2779
C107_2 C 0.5204(5) 0.7341(3) 0.6998(5)
H83_2 H 0.5238 0.7022 0.6964
C111_2 C 0.3542(5) 0.8261(3) 0.7524(4)
N2_2 N 0.7631(4) 0.7387(2) 0.3388(4)
N3_2 N 0.8258(4) 0.6966(2) 0.6085(4)
N8_2 N 0.4511(8) 0.4853(4) 0.6939(7)
N10_2 N 0.6819(4) 0.8093(2) 0.3488(4)
N11_2 N 0.7354(4) 0.7631(2) 0.6181(4)
N14_2 N 0.6338(4) 0.7423(2) 0.4152(4)
N15_2 N 0.6867(4) 0.6934(2) 0.6756(4)
O2_2 O 0.7577(5) 0.5087(2) 0.5110(5)
O3_2 O 0.7664(4) 0.45803(18) 0.7581(3)
O5_2 O 0.9773(5) 0.4975(3) 0.5163(4)
O8_2 O 0.5549(5) 0.4752(3) 0.8000(5)
O9_2 O 0.7977(3) 0.4062(2) 0.9352(4)
O12_2 O 0.8685(3) 0.45954(18) 0.6663(3)
O13_2 O 0.6012(3) 0.41942(19) 0.9748(3)
H85_2 H 0.7766(19) 0.3848(11) 0.967(2)
H86_2 H 0.8172(19) 0.3847(11) 0.903(2)
O38 O 0.9149(4) 0.4190(2) 0.4018(3)
C68_2 C 0.9736(5) 0.3674(3) 0.3037(4)
C72_2 C 0.9588(5) 0.3234(3) 0.2800(4)
H64_2 H 0.9023 0.3110 0.2850
C80_2 C 0.9001(5) 0.3965(3) 0.3373(5)
C22 C 0.9293(10) 0.0696(7) 0.9682(11)
H20 H 0.9028 0.0989 0.9782
H21 H 0.9641 0.0715 0.9204
C30 C 0.7613(15) 0.0441(17) 0.954(3)
H36 H 0.7514 0.0760 0.9654
H37 H 0.7348 0.0255 0.9947
H38 H 0.7347 0.0367 0.9006
N6 N 0.8588(11) 0.0348(6) 0.9545(11)
C13_2 C 0.8765(14) 0.9666(7) 0.448(2)
H1_2 H 0.8185 0.9797 0.4373
H2_2 H 0.8752 0.9468 0.4954
H3_2 H 0.8933 0.9492 0.4016
C6 C 0.8805(8) 0.9914(5) 0.9352(12)
C14 C 0.8067(10) 0.9574(6) 0.932(2)
H4 H 0.7506 0.9733 0.9295
H5 H 0.8111 0.9382 0.9795
H6 H 0.8107 0.9387 0.8833
O6 O 0.9557(4) 0.9797(2) 0.9408(4)
C6_2 C 0.1195(8) 0.4914(5) 0.0648(12)
C14_2 C 0.1933(10) 0.4574(6) 0.068(2)
H4_2 H 0.2494 0.4733 0.0705
H5_2 H 0.1889 0.4382 0.0205
H6_2 H 0.1893 0.4387 0.1167
C22_2 C 0.0707(10) 0.5696(7) 0.0318(11)
H20_2 H 0.0972 0.5989 0.0218
H21_2 H 0.0359 0.5715 0.0796
C30_2 C 0.2387(15) 0.5441(17) 0.046(3)
H36_2 H 0.2486 0.5760 0.0346
H37_2 H 0.2652 0.5255 0.0053
H38_2 H 0.2653 0.5367 0.0994
N6_2 N 0.1412(11) 0.5348(6) 0.0455(11)
O6_2 O 0.0443(4) 0.4797(2) 0.0592(4)
loop_
_geom_bond_atom_site_label_1
_geom_bond_atom_site_label_2
_geom_bond_site_symmetry_1
_geom_bond_site_symmetry_2
C72 C68 1_555 1_555
H64 C72 1_555 1_555
C80 C68 1_555 1_555
O17 C80 1_555 1_555
O21 C80 1_555 1_555
Ca8 O17 1_555 1_555
Ca10 O21 1_555 1_555
Ca21 O17 1_555 1_555
C2 C10 1_555 1_555
C10 C18 1_555 1_555
C11 C19 1_555 1_555
C18 H14 1_555 1_555
C19 H15 1_555 1_555
C26 C18 1_555 1_555
H30 C26 1_555 1_555
C27 C19 1_555 1_555
H31 C27 1_555 1_555
C32 H42 1_555 1_555
H44 C32 1_555 1_555
C34 C26 1_555 1_555
C35 C27 1_555 1_555
C38 C34 1_555 1_555
H46 C38 1_555 1_555
C39 C35 1_555 1_555
H47 C39 1_555 1_555
C42 C10 1_555 1_555
H50 C42 1_555 1_555
C43 C11 1_555 1_555
H51 C43 1_555 1_555
C46 C34 1_555 1_555
C47 C35 1_555 1_555
C50 C54 1_555 1_555
C51 C55 1_555 1_555
C54 C58 1_555 1_555
C55 C59 1_555 1_555
C58 H54 1_555 1_555
C59 H55 1_555 1_555
C62 C58 1_555 1_555
H58 C62 1_555 1_555
C63 C59 1_555 1_555
C66 C62 1_555 1_555
C67 C63 1_555 1_555
C70 C66 1_555 1_555
H62 C70 1_555 1_555
C71 C67 1_555 1_555
H63 C71 1_555 1_555
C74 C54 1_555 1_555
H66 C74 1_555 1_555
C75 C55 1_555 1_555
H67 C75 1_555 1_555
C78 C66 1_555 1_555
C82 C86 1_555 1_555
C83 C87 1_555 1_555
C86 C90 1_555 1_555
C87 C91 1_555 1_555
C90 H70 1_555 1_555
C91 H71 1_555 1_555
C94 C90 1_555 1_555
H74 C94 1_555 1_555
C95 C91 1_555 1_555
H75 C95 1_555 1_555
C98 C94 1_555 1_555
C99 C95 1_555 1_555
H77 C101 1_555 1_555
C102 C98 1_555 1_555
C103 C99 1_555 1_555
H79 C103 1_555 1_555
C106 C86 1_555 1_555
H82 C106 1_555 1_555
C107 C87 1_555 1_555
H83 C107 1_555 1_555
C111 C99 1_555 1_555
N2 C46 1_555 1_555
N3 C47 1_555 1_555
N10 C50 1_555 1_555
N11 C51 1_555 1_555
N14 C46 1_555 1_555
N15 C47 1_555 1_555
O2 C2 1_555 1_555
O15 C78 1_555 1_555
O19 C78 1_555 1_555
O24 C111 1_555 1_555
O28 C111 1_555 1_555
Ca9 O19 1_555 1_555
Ca12 O15 1_555 1_555
Ca15 O15 1_555 1_555
Ca23 O24 1_555 1_555
C38 C42 1_555 1_555
C39 C43 1_555 1_555
C50 N14 1_555 1_555
C51 N3 1_555 1_555
C70 C74 1_555 1_555
C71 C75 1_555 1_555
C82 N2 1_555 1_555
C82 N10 1_555 1_555
C83 N11 1_555 1_555
C83 N15 1_555 1_555
C102 C106 1_555 1_555
C103 C107 1_555 1_555
O28 Ca9 1_555 1_555
O28 Ca23 1_555 1_555
C9 C17 1_555 1_555
C17 H13 1_555 1_555
C25 C17 1_555 1_555
H29 C25 1_555 1_555
C33 C25 1_555 1_555
C37 C33 1_555 1_555
H45 C37 1_555 1_555
C41 C9 1_555 1_555
H49 C41 1_555 1_555
C45 C33 1_555 1_555
C49 C53 1_555 1_555
C53 C57 1_555 1_555
C57 H53 1_555 1_555
C61 C57 1_555 1_555
H57 C61 1_555 1_555
C65 C61 1_555 1_555
C69 C65 1_555 1_555
H61 C69 1_555 1_555
C73 C53 1_555 1_555
H65 C73 1_555 1_555
C77 C65 1_555 1_555
C81 C85 1_555 1_555
C85 C89 1_555 1_555
C89 H69 1_555 1_555
C105 C85 1_555 1_555
H81 C105 1_555 1_555
N1 C45 1_555 1_555
N9 C49 1_555 1_555
N13 C45 1_555 1_555
O14 C77 1_555 1_555
O18 C77 1_555 1_555
Ca15 O14 1_555 1_555
Ca17 O18 1_555 1_555
C37 C41 1_555 1_555
C49 N13 1_555 1_555
C69 C73 1_555 1_555
C81 N1 1_555 1_555
C81 N9 1_555 1_555
O18 Ca15 1_555 1_555
C8 C16 1_555 1_555
C16 H10 1_555 1_555
H11 C16 1_555 1_555
H12 C16 1_555 1_555
C24 H26 1_555 1_555
H27 C24 1_555 1_555
H28 C24 1_555 1_555
N8 C8 1_555 1_555
O3 C3 1_555 1_555
O8 C8 1_555 1_555
O9 Ca4 1_555 1_555
O12 C3 1_555 1_555
Ca3 O3 1_555 1_555
Ca4 O3 1_555 1_555
H85 O9 1_555 1_555
H86 O9 1_555 1_555
O31 Ca3 1_555 1_555
O32 Ca10 1_555 1_555
O33 Ca3 1_555 1_555
O35 Ca3 1_555 1_555
O37 Ca10 1_555 1_555
O44 Ca3 1_555 1_555
Ca8 O11 1_555 1_555
C24 N8 1_555 1_555
O5 Ca10 1_555 1_555
O8 Ca4 1_555 1_555
O12 Ca10 1_555 1_555
O12 Ca3 1_555 1_555
O13 Ca4 1_555 1_555
Ca3 O32 1_555 1_555
Ca3 O37 1_555 1_555
Ca4 O35 1_555 1_555
C4 C12 1_555 1_555
C7 C15 1_555 1_555
C12 C20 1_555 1_555
C15 H7 1_555 1_555
H8 C15 1_555 1_555
C20 H16 1_555 1_555
C23 H23 1_555 1_555
H24 C23 1_555 1_555
H25 C23 1_555 1_555
C28 C20 1_555 1_555
H32 C28 1_555 1_555
C31 H39 1_555 1_555
H40 C31 1_555 1_555
H41 C31 1_555 1_555
C36 C28 1_555 1_555
C40 C36 1_555 1_555
H48 C40 1_555 1_555
C44 C12 1_555 1_555
H52 C44 1_555 1_555
C48 C36 1_555 1_555
C52 C56 1_555 1_555
C56 C60 1_555 1_555
C60 H56 1_555 1_555
C64 C60 1_555 1_555
H60 C64 1_555 1_555
C76 C56 1_555 1_555
H68 C76 1_555 1_555
C84 C88 1_555 1_555
C88 C92 1_555 1_555
C92 H72 1_555 1_555
C96 C92 1_555 1_555
H76 C96 1_555 1_555
C100 C96 1_555 1_555
C104 C100 1_555 1_555
H80 C104 1_555 1_555
C108 C88 1_555 1_555
H84 C108 1_555 1_555
C112 C100 1_555 1_555
N4 C48 1_555 1_555
N7 C7 1_555 1_555
N12 C52 1_555 1_555
N16 C48 1_555 1_555
O1 C1 1_555 1_555
O4 C4 1_555 1_555
O7 C7 1_555 1_555
O10 C1 1_555 1_555
O25 C112 1_555 1_555
O29 C112 1_555 1_555
Ca8 O1 1_555 1_555
Ca21 O1 1_555 1_555
O36 Ca8 1_555 1_555
O39 Ca5 1_555 1_555
O41 Ca21 1_555 1_555
O43 Ca21 1_555 1_555
O45 Ca8 1_555 1_555
Ca17 O29 1_555 1_555
C23 N7 1_555 1_555
C31 N7 1_555 1_555
C40 C44 1_555 1_555
C52 N4 1_555 1_555
C84 N12 1_555 1_555
C84 N16 1_555 1_555
C104 C108 1_555 1_555
O4 Ca21 1_555 1_555
O7 Ca8 1_555 1_555
O10 Ca5 1_555 1_555
O10 Ca21 1_555 1_555
Ca21 O39 1_555 1_555
Ca21 O45 1_555 1_555
C21 H17 1_555 1_555
C29 H33 1_555 1_555
H34 C29 1_555 1_555
H35 C29 1_555 1_555
H73 C93 1_555 1_555
C97 C93 1_555 1_555
C109 C97 1_555 1_555
N5 C5 1_555 1_555
O16 C79 1_555 1_555
O20 C79 1_555 1_555
O22 C109 1_555 1_555
O23 C110 1_555 1_555
O26 C109 1_555 1_555
O27 C110 1_555 1_555
Ca12 O20 1_555 1_555
Ca15 O16 1_555 1_555
Ca20 O22 1_555 1_555
Ca23 O22 1_555 1_555
C21 N5 1_555 1_555
C29 N5 1_555 1_555
O20 Ca15 1_555 1_555
O26 Ca23 1_555 1_555
O27 Ca15 1_555 1_555
C5_2 C13 1_555 1_555
C13 H1 1_555 1_555
H2 C13 1_555 1_555
H3 C13 1_555 1_555
C21_2 H17_2 1_555 1_555
C29_2 H33_2 1_555 1_555
H34_2 C29_2 1_555 1_555
H35_2 C29_2 1_555 1_555
H73_2 C93_2 1_555 1_555
C97_2 C93_2 1_555 1_555
C109_2 C97_2 1_555 1_555
N5_2 C5_2 1_555 1_555
O33 C79_2 1_555 1_555
O37 C79_2 1_555 1_555
O39 C109_2 1_555 1_555
O40 C110_2 1_555 1_555
O43 C109_2 1_555 1_555
O44 C110_2 1_555 1_555
C21_2 N5_2 1_555 1_555
C29_2 N5_2 1_555 1_555
C1_2 C9_2 1_555 1_555
C4_2 C12_2 1_555 1_555
C7_2 C15_2 1_555 1_555
C9_2 C17_2 1_555 1_555
C12_2 C20_2 1_555 1_555
C15_2 H7_2 1_555 1_555
H8_2 C15_2 1_555 1_555
H9_2 C15_2 1_555 1_555
C17_2 H13_2 1_555 1_555
C20_2 H16_2 1_555 1_555
C23_2 H23_2 1_555 1_555
H24_2 C23_2 1_555 1_555
H25_2 C23_2 1_555 1_555
C25_2 C17_2 1_555 1_555
H29_2 C25_2 1_555 1_555
C28_2 C20_2 1_555 1_555
H32_2 C28_2 1_555 1_555
C31_2 H39_2 1_555 1_555
H40_2 C31_2 1_555 1_555
H41_2 C31_2 1_555 1_555
C33_2 C25_2 1_555 1_555
C36_2 C28_2 1_555 1_555
C37_2 C33_2 1_555 1_555
H45_2 C37_2 1_555 1_555
C40_2 C36_2 1_555 1_555
H48_2 C40_2 1_555 1_555
C41_2 C9_2 1_555 1_555
H49_2 C41_2 1_555 1_555
C44_2 C12_2 1_555 1_555
H52_2 C44_2 1_555 1_555
C45_2 C33_2 1_555 1_555
C48_2 C36_2 1_555 1_555
C49_2 C53_2 1_555 1_555
C52_2 C56_2 1_555 1_555
C53_2 C57_2 1_555 1_555
C56_2 C60_2 1_555 1_555
C57_2 H53_2 1_555 1_555
C60_2 H56_2 1_555 1_555
C61_2 C57_2 1_555 1_555
H57_2 C61_2 1_555 1_555
C64_2 C60_2 1_555 1_555
H60_2 C64_2 1_555 1_555
C65_2 C61_2 1_555 1_555
C69_2 C65_2 1_555 1_555
H61_2 C69_2 1_555 1_555
C73_2 C53_2 1_555 1_555
H65_2 C73_2 1_555 1_555
C76_2 C56_2 1_555 1_555
H68_2 C76_2 1_555 1_555
C77_2 C65_2 1_555 1_555
C81_2 C85_2 1_555 1_555
C84_2 C88_2 1_555 1_555
C85_2 C89_2 1_555 1_555
C88_2 C92_2 1_555 1_555
C89_2 H69_2 1_555 1_555
C92_2 H72_2 1_555 1_555
C96_2 C92_2 1_555 1_555
H76_2 C96_2 1_555 1_555
C100_2 C96_2 1_555 1_555
C104_2 C100_2 1_555 1_555
H80_2 C104_2 1_555 1_555
C105_2 C85_2 1_555 1_555
H81_2 C105_2 1_555 1_555
C108_2 C88_2 1_555 1_555
H84_2 C108_2 1_555 1_555
C112_2 C100_2 1_555 1_555
N1_2 C45_2 1_555 1_555
N4_2 C48_2 1_555 1_555
N7_2 C7_2 1_555 1_555
N9_2 C49_2 1_555 1_555
N12_2 C52_2 1_555 1_555
N13_2 C45_2 1_555 1_555
N16_2 C48_2 1_555 1_555
O1_2 C1_2 1_555 1_555
O4_2 C4_2 1_555 1_555
O7_2 C7_2 1_555 1_555
O10_2 C1_2 1_555 1_555
O31 C77_2 1_555 1_555
O35 C77_2 1_555 1_555
O42 C112_2 1_555 1_555
O46 C112_2 1_555 1_555
Ca9 O1_2 1_555 1_555
Ca23 O1_2 1_555 1_555
O30 Ca9 1_555 1_555
O34 Ca9 1_555 1_555
C23_2 N7_2 1_555 1_555
C31_2 N7_2 1_555 1_555
C37_2 C41_2 1_555 1_555
C40_2 C44_2 1_555 1_555
C49_2 N13_2 1_555 1_555
C52_2 N4_2 1_555 1_555
C69_2 C73_2 1_555 1_555
C81_2 N1_2 1_555 1_555
C81_2 N9_2 1_555 1_555
C84_2 N12_2 1_555 1_555
C84_2 N16_2 1_555 1_555
C104_2 C108_2 1_555 1_555
O4_2 Ca23 1_555 1_555
O7_2 Ca9 1_555 1_555
O10_2 Ca20 1_555 1_555
O10_2 Ca23 1_555 1_555
Ca23 O34 1_555 1_555
C2_2 C10_2 1_555 1_555
C3_2 C11_2 1_555 1_555
C8_2 C16_2 1_555 1_555
C10_2 C18_2 1_555 1_555
C11_2 C19_2 1_555 1_555
C16_2 H10_2 1_555 1_555
H11_2 C16_2 1_555 1_555
H12_2 C16_2 1_555 1_555
C18_2 H14_2 1_555 1_555
C19_2 H15_2 1_555 1_555
C24_2 H26_2 1_555 1_555
H27_2 C24_2 1_555 1_555
H28_2 C24_2 1_555 1_555
C26_2 C18_2 1_555 1_555
H30_2 C26_2 1_555 1_555
C27_2 C19_2 1_555 1_555
H31_2 C27_2 1_555 1_555
C32_2 H42_2 1_555 1_555
H43_2 C32_2 1_555 1_555
H44_2 C32_2 1_555 1_555
C34_2 C26_2 1_555 1_555
C35_2 C27_2 1_555 1_555
C38_2 C34_2 1_555 1_555
H46_2 C38_2 1_555 1_555
C39_2 C35_2 1_555 1_555
H47_2 C39_2 1_555 1_555
C42_2 C10_2 1_555 1_555
H50_2 C42_2 1_555 1_555
C43_2 C11_2 1_555 1_555
H51_2 C43_2 1_555 1_555
C46_2 C34_2 1_555 1_555
C47_2 C35_2 1_555 1_555
C50_2 C54_2 1_555 1_555
C51_2 C55_2 1_555 1_555
C54_2 C58_2 1_555 1_555
C55_2 C59_2 1_555 1_555
C58_2 H54_2 1_555 1_555
C59_2 H55_2 1_555 1_555
C62_2 C58_2 1_555 1_555
H58_2 C62_2 1_555 1_555
C63_2 C59_2 1_555 1_555
C66_2 C62_2 1_555 1_555
C67_2 C63_2 1_555 1_555
C70_2 C66_2 1_555 1_555
H62_2 C70_2 1_555 1_555
C71_2 C67_2 1_555 1_555
H63_2 C71_2 1_555 1_555
C74_2 C54_2 1_555 1_555
H66_2 C74_2 1_555 1_555
C75_2 C55_2 1_555 1_555
H67_2 C75_2 1_555 1_555
C78_2 C66_2 1_555 1_555
C82_2 C86_2 1_555 1_555
C83_2 C87_2 1_555 1_555
C86_2 C90_2 1_555 1_555
C87_2 C91_2 1_555 1_555
C90_2 H70_2 1_555 1_555
C91_2 H71_2 1_555 1_555
C94_2 C90_2 1_555 1_555
H74_2 C94_2 1_555 1_555
C95_2 C91_2 1_555 1_555
H75_2 C95_2 1_555 1_555
C98_2 C94_2 1_555 1_555
C99_2 C95_2 1_555 1_555
H77_2 C101_2 1_555 1_555
C102_2 C98_2 1_555 1_555
C103_2 C99_2 1_555 1_555
H79_2 C103_2 1_555 1_555
C106_2 C86_2 1_555 1_555
H82_2 C106_2 1_555 1_555
C107_2 C87_2 1_555 1_555
H83_2 C107_2 1_555 1_555
C111_2 C99_2 1_555 1_555
N2_2 C46_2 1_555 1_555
N3_2 C47_2 1_555 1_555
N8_2 C8_2 1_555 1_555
N10_2 C50_2 1_555 1_555
N11_2 C51_2 1_555 1_555
N14_2 C46_2 1_555 1_555
N15_2 C47_2 1_555 1_555
O2_2 C2_2 1_555 1_555
O3_2 C3_2 1_555 1_555
O8_2 C8_2 1_555 1_555
O9_2 Ca17 1_555 1_555
O30 C2_2 1_555 1_555
O12_2 C3_2 1_555 1_555
O32 C78_2 1_555 1_555
O36 C78_2 1_555 1_555
O41 C111_2 1_555 1_555
O45 C111_2 1_555 1_555
Ca12 O2_2 1_555 1_555
Ca15 O3_2 1_555 1_555
Ca17 O3_2 1_555 1_555
H85_2 O9_2 1_555 1_555
H86_2 O9_2 1_555 1_555
O38 Ca12 1_555 1_555
C24_2 N8_2 1_555 1_555
C32_2 N8_2 1_555 1_555
C38_2 C42_2 1_555 1_555
C39_2 C43_2 1_555 1_555
C50_2 N14_2 1_555 1_555
C51_2 N3_2 1_555 1_555
C70_2 C74_2 1_555 1_555
C71_2 C75_2 1_555 1_555
C82_2 N2_2 1_555 1_555
C82_2 N10_2 1_555 1_555
C83_2 N11_2 1_555 1_555
C83_2 N15_2 1_555 1_555
C102_2 C106_2 1_555 1_555
C103_2 C107_2 1_555 1_555
O5_2 Ca12 1_555 1_555
O8_2 Ca17 1_555 1_555
O12_2 Ca12 1_555 1_555
O12_2 Ca15 1_555 1_555
O13_2 Ca17 1_555 1_555
C72_2 C68_2 1_555 1_555
H64_2 C72_2 1_555 1_555
C80_2 C68_2 1_555 1_555
O34 C80_2 1_555 1_555
O38 C80_2 1_555 1_555
C22 H20 1_555 1_555
H21 C22 1_555 1_555
C30 H36 1_555 1_555
H37 C30 1_555 1_555
H38 C30 1_555 1_555
C22 N6 1_555 1_555
C30 N6 1_555 1_555
C13_2 H1_2 1_555 1_555
H2_2 C13_2 1_555 1_555
H3_2 C13_2 1_555 1_555
C6 C14 1_555 1_555
C14 H4 1_555 1_555
H5 C14 1_555 1_555
H6 C14 1_555 1_555
O6 C6 1_555 1_555
C6_2 C14_2 1_555 1_555
C14_2 H4_2 1_555 1_555
H5_2 C14_2 1_555 1_555
H6_2 C14_2 1_555 1_555
C22_2 H20_2 1_555 1_555
H21_2 C22_2 1_555 1_555
C30_2 H36_2 1_555 1_555
H37_2 C30_2 1_555 1_555
H38_2 C30_2 1_555 1_555
N6_2 C6_2 1_555 1_555
O6_2 C6_2 1_555 1_555
C22_2 N6_2 1_555 1_555
C30_2 N6_2 1_555 1_555

#END
