
###############################################################################
#
# This file contains modified crystal structure data generated from the
# MOF subset of the Cambridge Structural Database (CSD) v543 
# hosted by the Cambridge Crystallographic Data Centre (CCDC).
#
# This work is licensed under the Creative Commons
# Attribution-NonCommercial-ShareAlike 4.0 International License.
# To view a copy of this license, visit
# http://creativecommons.org/licenses/by-nc-sa/4.0/
# or send a letter to
# Creative Commons, PO Box 1866, Mountain View, CA 94042, USA.
#
# CIF created using the CSD Python API on 29 September 2022
# The structure has been converted into the P1 space group
# The structure has a 3D framework
# The original CSD entry PEXTUI is in the monoclinic crystal system
# The framework has been calculated to contain at least 10.0% void space
# The void calculation uses a probe of radius 1.32A, grid spacing 0.4
# H atom positions have been added when not included in the experimental data
# Generated hydrogen atom positions removed from atoms on special positions
#
###############################################################################

data_PEXTUI
_chemical_formula_moiety         '(C72 H80 Cd12 O61)n'
_symmetry_cell_setting           triclinic
_symmetry_space_group_name_H-M   'P 1'
_symmetry_Int_Tables_number      1
_space_group_name_Hall           'P 1'
loop_
_symmetry_equiv_pos_site_id
_symmetry_equiv_pos_as_xyz
1 x,y,z
_cell_length_a                   10.226(2)
_cell_length_b                   10.814(2)
_cell_length_c                   29.876(6)
_cell_angle_alpha                90
_cell_angle_beta                 99.437(3)
_cell_angle_gamma                90
_cell_volume                     3259.09
loop_
_atom_site_label
_atom_site_type_symbol
_atom_site_fract_x
_atom_site_fract_y
_atom_site_fract_z
Cd4 Cd 0.02927(4) 0.20337(4) 0.896670(14)
O23 O 0.1800(4) 0.0350(5) 0.9197(2)
O26 O 0.2590(4) 0.2138(4) 0.90368(17)
O28 O 0.0038(5) 0.3976(5) 0.86585(16)
O41 O 0.0628(7) 0.2871(10) 0.9685(2)
H23 H 0.08658 0.220367 0.991208
H24 H 0.135928 0.348446 0.971194
Cd9 Cd 0.72814(4) 0.37372(4) 0.849090(13)
C19 C 0.7653(5) 0.1494(5) 0.92144(19)
C20 C 0.6494(5) 0.0765(5) 0.93128(19)
C24 C 0.4137(5) 0.0536(5) 0.9287(2)
C25 C 0.5215(5) 0.1252(5) 0.9217(2)
H9 H 0.5084 0.2055 0.9107
C27 C 0.2752(5) 0.1042(6) 0.9170(2)
O17 O 0.7520(4) 0.2657(4) 0.91553(14)
O18 O 0.8697(4) 0.0922(5) 0.9196(2)
O30 O 0.8672(5) 0.4467(7) 0.8034(2)
O33 O 0.4992(5) 0.3921(6) 0.85604(19)
O36 O 0.5558(5) 0.4469(8) 0.7924(2)
O38 O 0.9680(5) 0.1441(6) 0.82387(18)
O40 O 0.7508(5) 0.1869(6) 0.81743(18)
O42 O 0.7464(9) 0.5592(6) 0.8889(3)
Cd3 Cd 0.5000 0.5000 1.0000
C21 C 0.6677(5) 0.9560(5) 0.9476(2)
H7 H 0.7529 0.9232 0.9539
C22 C 0.5609(6) 0.8850(5) 0.95440(19)
C23 C 0.4332(5) 0.9341(5) 0.9449(2)
H8 H 0.3609 0.8863 0.9495
C26 C 0.5811(6) 0.7533(6) 0.9708(2)
O19 O 0.4788(5) 0.6884(4) 0.9708(2)
O20 O 0.6939(6) 0.7142(5) 0.9833(3)
O43 O 0.3836(5) 0.4341(4) 0.93170(16)
O44 O 0.7001(6) 0.4484(5) 0.9750(2)
O42_2 O 0.2536(9) 0.0592(6) 0.6111(3)
Cd3_2 Cd 0.5000 0.0000 0.5000
O15 O 0.3836(5) 0.0659(4) 0.43170(16)
O16 O 0.7001(6) 0.0516(5) 0.4750(2)
Cd7 Cd 0.97073(4) 0.70337(4) 0.603330(14)
Cd9_2 Cd 0.27186(4) 0.87372(4) 0.650910(13)
C19_2 C 0.2347(5) 0.6494(5) 0.57856(19)
C20_2 C 0.3506(5) 0.5765(5) 0.56872(19)
C21_2 C 0.3323(5) 0.4560(5) 0.5524(2)
H7_2 H 0.2471 0.4232 0.5461
C22_2 C 0.4391(6) 0.3850(5) 0.54560(19)
C23_2 C 0.5668(5) 0.4341(5) 0.5551(2)
H8_2 H 0.6391 0.3863 0.5505
C24_2 C 0.5863(5) 0.5536(5) 0.5713(2)
C25_2 C 0.4785(5) 0.6252(5) 0.5783(2)
H9_2 H 0.4916 0.7055 0.5893
C26_2 C 0.4189(6) 0.2533(6) 0.5292(2)
C27_2 C 0.7248(5) 0.6042(6) 0.5830(2)
O17_2 O 0.2480(4) 0.7657(4) 0.58447(14)
O18_2 O 0.1303(4) 0.5922(5) 0.5804(2)
O19_2 O 0.5212(5) 0.1884(4) 0.5292(2)
O20_2 O 0.3061(6) 0.2142(5) 0.5167(3)
O21 O 0.8200(4) 0.5350(5) 0.5803(2)
O24 O 0.7410(4) 0.7138(4) 0.59632(17)
O30_2 O 0.1328(5) 0.9467(7) 0.6966(2)
O33_2 O 0.5008(5) 0.8921(6) 0.64396(19)
O36_2 O 0.4442(5) 0.9469(8) 0.7076(2)
O38_2 O 0.0320(5) 0.6441(6) 0.67613(18)
O40_2 O 0.2492(5) 0.6869(6) 0.68257(18)
H22 H 0.270669 0.0188883 0.542236
H28 H 0.638934 0.00632042 0.58863
O28_2 O 0.9962(5) 0.8976(5) 0.63415(16)
O41_2 O 0.9372(7) 0.7871(10) 0.5315(2)
H23_2 H 0.91342 0.720367 0.508792
H24_2 H 0.864072 0.848446 0.528806
C11 C 0.0962(5) 0.4689(6) 0.8024(2)
C12 C 0.2246(6) 0.4370(6) 0.8206(2)
H4 H 0.2415 0.3941 0.8479
C13 C 0.3292(6) 0.4688(7) 0.7981(2)
C14 C 0.3041(6) 0.5363(7) 0.7587(2)
H5 H 0.3744 0.5608 0.7445
C15 C 0.1757(6) 0.5685(6) 0.7396(2)
C16 C 0.0719(6) 0.5336(7) 0.7616(2)
C17 C 0.4710(6) 0.4332(7) 0.8167(2)
C18 C 0.1491(7) 0.6402(7) 0.6958(2)
H12 H 0.0148 0.0536 0.7511
C28 C 0.0184(6) 0.9345(6) 0.6744(2)
C10 C 0.9816(6) 0.4345(6) 0.8256(2)
H6 H 0.9852 0.5536 0.7489
C32 C 0.6959(6) 0.0363(7) 0.7413(2)
H11 H 0.6256 0.0608 0.7555
C33 C 0.8243(6) 0.0685(6) 0.7604(2)
C34 C 0.9281(6) 0.0336(7) 0.7384(2)
C36 C 0.8509(7) 0.1402(7) 0.8042(2)
H17 H 0.980352 0.328598 0.974077
C29 C 0.9038(5) 0.9689(6) 0.6976(2)
C30 C 0.7754(6) 0.9370(6) 0.6794(2)
H10 H 0.7585 0.8941 0.6521
C31 C 0.6708(6) 0.9688(7) 0.7019(2)
C35 C 0.5290(6) 0.9332(7) 0.6833(2)
H17_2 H 0.0196476 0.828598 0.525923
Cd3_3 Cd 0.5000 0.5000 0.0000
C3 C 0.3323(5) 0.0440(5) 0.0524(2)
H1 H 0.2471 0.0768 0.0461
C4 C 0.4391(6) 0.1150(5) 0.04560(19)
C5 C 0.5668(5) 0.0659(5) 0.0551(2)
H2 H 0.6391 0.1137 0.0505
C8 C 0.4189(6) 0.2467(6) 0.0292(2)
O3 O 0.5212(5) 0.3116(4) 0.0292(2)
O4 O 0.3061(6) 0.2858(5) 0.0167(3)
O15_2 O 0.6164(5) 0.5659(4) 0.06830(16)
O16_2 O 0.2999(6) 0.5516(5) 0.0250(2)
Cd8 Cd 0.02927(4) 0.29663(4) 0.396670(14)
Cd13 Cd 0.72814(4) 0.12628(4) 0.349090(13)
C29_2 C 0.0962(5) 0.0311(6) 0.3024(2)
C30_2 C 0.2246(6) 0.0630(6) 0.3206(2)
H10_2 H 0.2415 0.1059 0.3479
C31_2 C 0.3292(6) 0.0312(7) 0.2981(2)
C35_2 C 0.4710(6) 0.0668(7) 0.3167(2)
O27 O 0.0038(5) 0.1024(5) 0.36585(16)
O31 O 0.4992(5) 0.1079(6) 0.35604(19)
O34 O 0.5558(5) 0.0531(8) 0.2924(2)
Cd2 Cd 0.27186(4) 0.62628(4) 0.150910(13)
C1 C 0.2347(5) 0.8506(5) 0.07856(19)
C2 C 0.3506(5) 0.9235(5) 0.06872(19)
C6 C 0.5863(5) 0.9464(5) 0.0713(2)
C7 C 0.4785(5) 0.8748(5) 0.0783(2)
H3 H 0.4916 0.7945 0.0893
C9 C 0.7248(5) 0.8958(6) 0.0830(2)
C10_2 C 0.0184(6) 0.5655(6) 0.1744(2)
H6_2 H 0.0148 0.4464 0.2511
O1 O 0.2480(4) 0.7343(4) 0.08447(14)
O2 O 0.1303(4) 0.9078(5) 0.0804(2)
O5 O 0.8200(4) 0.9650(5) 0.0803(2)
O6 O 0.7410(4) 0.7862(4) 0.09632(17)
O8 O 0.1328(5) 0.5533(7) 0.1966(2)
O14 O 0.2536(9) 0.4408(6) 0.1111(3)
Cd5 Cd 0.97073(4) 0.79663(4) 0.103330(14)
C32_2 C 0.3041(6) 0.9637(7) 0.2587(2)
H11_2 H 0.3744 0.9392 0.2445
C33_2 C 0.1757(6) 0.9315(6) 0.2396(2)
C34_2 C 0.0719(6) 0.9664(7) 0.2616(2)
C36_2 C 0.1491(7) 0.8598(7) 0.1958(2)
O32 O 0.5008(5) 0.6079(6) 0.14396(19)
O35 O 0.4442(5) 0.5531(8) 0.2076(2)
O37 O 0.0320(5) 0.8559(6) 0.17613(18)
O39 O 0.2492(5) 0.8131(6) 0.18257(18)
H17_3 H 0.0196476 0.671402 0.0259227
C28_2 C 0.9816(6) 0.0655(6) 0.3256(2)
O29 O 0.8672(5) 0.0533(7) 0.3034(2)
C11_2 C 0.9038(5) 0.5311(6) 0.1976(2)
C12_2 C 0.7754(6) 0.5630(6) 0.1794(2)
H4_2 H 0.7585 0.6059 0.1521
C13_2 C 0.6708(6) 0.5312(7) 0.2019(2)
C14_2 C 0.6959(6) 0.4637(7) 0.2413(2)
H5_2 H 0.6256 0.4392 0.2555
C15_2 C 0.8243(6) 0.4315(6) 0.2604(2)
C16_2 C 0.9281(6) 0.4664(7) 0.2384(2)
C17_2 C 0.5290(6) 0.5668(7) 0.1833(2)
C18_2 C 0.8509(7) 0.3598(7) 0.3042(2)
O7 O 0.9962(5) 0.6024(5) 0.13415(16)
O11 O 0.9680(5) 0.3559(6) 0.32387(18)
O12 O 0.7508(5) 0.3131(6) 0.31743(18)
O13 O 0.9372(7) 0.7129(10) 0.0315(2)
H12_2 H 0.9852 0.9464 0.2489
H18 H 0.864072 0.651554 0.0288065
O13_2 O 0.0628(7) 0.2129(10) 0.4685(2)
O22 O 0.1800(4) 0.4650(5) 0.4197(2)
O25 O 0.2590(4) 0.2862(4) 0.40368(17)
H18_2 H 0.135928 0.151554 0.471194
Cd3_4 Cd 0.5000 1.0000 0.5000
C1_2 C 0.7653(5) 0.3506(5) 0.42144(19)
C2_2 C 0.6494(5) 0.4235(5) 0.43128(19)
C3_2 C 0.6677(5) 0.5440(5) 0.4476(2)
H1_2 H 0.7529 0.5768 0.4539
C4_2 C 0.5609(6) 0.6150(5) 0.45440(19)
C5_2 C 0.4332(5) 0.5659(5) 0.4449(2)
H2_2 H 0.3609 0.6137 0.4495
C6_2 C 0.4137(5) 0.4464(5) 0.4287(2)
C7_2 C 0.5215(5) 0.3748(5) 0.4217(2)
H3_2 H 0.5084 0.2945 0.4107
C8_2 C 0.5811(6) 0.7467(6) 0.4708(2)
C9_2 C 0.2752(5) 0.3958(6) 0.4170(2)
O1_2 O 0.7520(4) 0.2343(4) 0.41553(14)
O2_2 O 0.8697(4) 0.4078(5) 0.4196(2)
O3_2 O 0.4788(5) 0.8116(4) 0.4708(2)
O4_2 O 0.6939(6) 0.7858(5) 0.4833(3)
O43_2 O 0.6164(5) 0.9341(4) 0.56830(16)
O44_2 O 0.2999(6) 0.9484(5) 0.5250(2)
H17_4 H 0.980352 0.171402 0.474077
O14_2 O 0.7464(9) 0.9408(6) 0.3889(3)
H23_3 H 0.91342 0.779633 0.00879246
H23_4 H 0.08658 0.279633 0.491208
H22_2 H 0.729331 0.981112 0.457764
H28_2 H 0.361066 0.99368 0.41137
loop_
_geom_bond_atom_site_label_1
_geom_bond_atom_site_label_2
_geom_bond_site_symmetry_1
_geom_bond_site_symmetry_2
O23 Cd4 1_555 1_555
O26 Cd4 1_555 1_555
O28 Cd4 1_555 1_555
O41 Cd4 1_555 1_555
O41 H23 1_555 1_555
O41 H24 1_555 1_555
Cd9 O17 1_555 1_555
C19 C20 1_555 1_555
C25 C20 1_555 1_555
H9 C25 1_555 1_555
C27 C24 1_555 1_555
O17 C19 1_555 1_555
O18 C19 1_555 1_555
O23 C27 1_555 1_555
O30 Cd9 1_555 1_555
O33 Cd9 1_555 1_555
O36 Cd9 1_555 1_555
O40 Cd9 1_555 1_555
O42 Cd9 1_555 1_555
C24 C25 1_555 1_555
C27 O26 1_555 1_555
C21 H7 1_555 1_555
C22 C21 1_555 1_555
C23 C22 1_555 1_555
H8 C23 1_555 1_555
C26 C22 1_555 1_555
O19 Cd3 1_555 1_555
O20 C26 1_555 1_555
O43 Cd3 1_555 1_555
O44 Cd3 1_555 1_555
C26 O19 1_555 1_555
O15 Cd3_2 1_555 1_555
O16 Cd3_2 1_555 1_555
Cd7 O21 1_555 1_555
Cd9_2 O17_2 1_555 1_555
C19_2 C20_2 1_555 1_555
C20_2 C21_2 1_555 1_555
C21_2 H7_2 1_555 1_555
C22_2 C21_2 1_555 1_555
C23_2 C22_2 1_555 1_555
H8_2 C23_2 1_555 1_555
C24_2 C23_2 1_555 1_555
C25_2 C20_2 1_555 1_555
H9_2 C25_2 1_555 1_555
C26_2 C22_2 1_555 1_555
C27_2 C24_2 1_555 1_555
O17_2 C19_2 1_555 1_555
O18_2 C19_2 1_555 1_555
O19_2 Cd3_2 1_555 1_555
O20_2 C26_2 1_555 1_555
O21 C27_2 1_555 1_555
O24 Cd7 1_555 1_555
O30_2 Cd9_2 1_555 1_555
O33_2 Cd9_2 1_555 1_555
O36_2 Cd9_2 1_555 1_555
O40_2 Cd9_2 1_555 1_555
C24_2 C25_2 1_555 1_555
C26_2 O19_2 1_555 1_555
C27_2 O24 1_555 1_555
O28_2 Cd7 1_555 1_555
O41_2 Cd7 1_555 1_555
O41_2 H23_2 1_555 1_555
O41_2 H24_2 1_555 1_555
C11 C12 1_555 1_555
C12 H4 1_555 1_555
C13 C12 1_555 1_555
C14 C13 1_555 1_555
H5 C14 1_555 1_555
C15 C14 1_555 1_555
C16 C11 1_555 1_555
C17 C13 1_555 1_555
C18 C15 1_555 1_555
O33 C17 1_555 1_555
O36 C17 1_555 1_555
O38_2 C18 1_555 1_555
O40_2 C18 1_555 1_555
C15 C16 1_555 1_555
O30_2 C28 1_555 1_555
H11 C32 1_555 1_555
C33 C32 1_555 1_555
C36 C33 1_555 1_555
C10 O30 1_555 1_555
C33 C34 1_555 1_555
C36 O38 1_555 1_555
C36 O40 1_555 1_555
C29 C30 1_555 1_555
C30 H10 1_555 1_555
C31 C30 1_555 1_555
C35 C31 1_555 1_555
O33_2 C35 1_555 1_555
C35 O36_2 1_555 1_555
Cd3_3 O3 1_555 1_555
C3 H1 1_555 1_555
C4 C3 1_555 1_555
C5 C4 1_555 1_555
H2 C5 1_555 1_555
C8 C4 1_555 1_555
O3 C8 1_555 1_555
O4 C8 1_555 1_555
O15_2 Cd3_3 1_555 1_555
O16_2 Cd3_3 1_555 1_555
Cd8 O27 1_555 1_555
Cd13 O31 1_555 1_555
C29_2 C30_2 1_555 1_555
C30_2 H10_2 1_555 1_555
C31_2 C30_2 1_555 1_555
C35_2 C31_2 1_555 1_555
O31 C35_2 1_555 1_555
O34 Cd13 1_555 1_555
C35_2 O34 1_555 1_555
Cd2 O1 1_555 1_555
C1 C2 1_555 1_555
C7 C2 1_555 1_555
H3 C7 1_555 1_555
C9 C6 1_555 1_555
O1 C1 1_555 1_555
O2 C1 1_555 1_555
O5 C9 1_555 1_555
O6 C9 1_555 1_555
O8 Cd2 1_555 1_555
O14 Cd2 1_555 1_555
Cd5 O5 1_555 1_555
H11_2 C32_2 1_555 1_555
C33_2 C32_2 1_555 1_555
C36_2 C33_2 1_555 1_555
O32 Cd2 1_555 1_555
O35 Cd2 1_555 1_555
O39 Cd2 1_555 1_555
C6 C7 1_555 1_555
C10_2 O8 1_555 1_555
O6 Cd5 1_555 1_555
C33_2 C34_2 1_555 1_555
C36_2 O37 1_555 1_555
C36_2 O39 1_555 1_555
Cd13 O29 1_555 1_555
O29 C28_2 1_555 1_555
C11_2 C12_2 1_555 1_555
C12_2 H4_2 1_555 1_555
C13_2 C12_2 1_555 1_555
C14_2 C13_2 1_555 1_555
H5_2 C14_2 1_555 1_555
C15_2 C14_2 1_555 1_555
C16_2 C11_2 1_555 1_555
C17_2 C13_2 1_555 1_555
C18_2 C15_2 1_555 1_555
O7 Cd5 1_555 1_555
O32 C17_2 1_555 1_555
O35 C17_2 1_555 1_555
O11 C18_2 1_555 1_555
O12 C18_2 1_555 1_555
O13 Cd5 1_555 1_555
Cd13 O12 1_555 1_555
C15_2 C16_2 1_555 1_555
O13 H18 1_555 1_555
O13_2 Cd8 1_555 1_555
O22 Cd8 1_555 1_555
O25 Cd8 1_555 1_555
O13_2 H18_2 1_555 1_555
Cd13 O1_2 1_555 1_555
Cd3_4 O3_2 1_555 1_555
C1_2 C2_2 1_555 1_555
C2_2 C3_2 1_555 1_555
C3_2 H1_2 1_555 1_555
C4_2 C3_2 1_555 1_555
C5_2 C4_2 1_555 1_555
H2_2 C5_2 1_555 1_555
C6_2 C5_2 1_555 1_555
C7_2 C2_2 1_555 1_555
H3_2 C7_2 1_555 1_555
C8_2 C4_2 1_555 1_555
C9_2 C6_2 1_555 1_555
O1_2 C1_2 1_555 1_555
O2_2 C1_2 1_555 1_555
O3_2 C8_2 1_555 1_555
O4_2 C8_2 1_555 1_555
O22 C9_2 1_555 1_555
O25 C9_2 1_555 1_555
O43_2 Cd3_4 1_555 1_555
O44_2 Cd3_4 1_555 1_555
C6_2 C7_2 1_555 1_555
O13 H23_3 1_555 1_555
O13_2 H23_4 1_555 1_555

#END
