
###############################################################################
#
# This file contains modified crystal structure data generated from the
# MOF subset of the Cambridge Structural Database (CSD) v543 
# hosted by the Cambridge Crystallographic Data Centre (CCDC).
#
# This work is licensed under the Creative Commons
# Attribution-NonCommercial-ShareAlike 4.0 International License.
# To view a copy of this license, visit
# http://creativecommons.org/licenses/by-nc-sa/4.0/
# or send a letter to
# Creative Commons, PO Box 1866, Mountain View, CA 94042, USA.
#
# CIF created using the CSD Python API on 29 September 2022
# The structure has been converted into the P1 space group
# The structure has a 3D framework
# The original CSD entry PEYPIU is in the triclinic crystal system
# The framework has been calculated to contain at least 10.0% void space
# The void calculation uses a probe of radius 1.32A, grid spacing 0.4
#
###############################################################################

data_PEYPIU
_chemical_formula_moiety         '(C56 H32 N2 O24 Zn4)n'
_symmetry_cell_setting           triclinic
_symmetry_space_group_name_H-M   'P 1'
_symmetry_Int_Tables_number      1
_space_group_name_Hall           'P 1'
loop_
_symmetry_equiv_pos_site_id
_symmetry_equiv_pos_as_xyz
1 x,y,z
_cell_length_a                   10.8947(6)
_cell_length_b                   10.9708(6)
_cell_length_c                   13.9891(7)
_cell_angle_alpha                81.540(2)
_cell_angle_beta                 89.016(2)
_cell_angle_gamma                87.658(2)
_cell_volume                     1652.35
loop_
_atom_site_label
_atom_site_type_symbol
_atom_site_fract_x
_atom_site_fract_y
_atom_site_fract_z
O6 O 0.2712(6) 0.1921(5) 0.2200(4)
O7 O 0.2767(5) 0.1522(4) 0.3790(4)
O11 O 0.3515(5) 0.0013(5) 0.1215(4)
C26 C 0.2748(6) 0.1221(7) 0.2974(5)
Zn4 Zn 0.27300(6) 0.33617(7) 0.39297(5)
Zn7 Zn 0.27704(6) 0.37777(7) 0.18076(5)
N2 N 0.2777(5) 0.3773(5) 0.0372(4)
H3 H 0.4557 0.3647 0.0189
H11 H 0.1007 0.3912 0.0217
N1 N 0.2748(5) 0.3317(5) 0.5383(4)
O1 O 0.2674(5) 0.5245(4) 0.3558(4)
O2 O 0.0919(4) 0.3395(5) 0.3682(3)
O3 O 0.0960(4) 0.3850(5) 0.2074(3)
O8 O 0.2826(5) 0.5586(5) 0.1954(4)
C1 C 0.2738(6) 0.5931(6) 0.2766(5)
C2 C 0.2741(6) 0.7285(6) 0.2792(5)
C3 C 0.0421(6) 0.3581(6) 0.2871(5)
C4 C 0.3106(7) 0.9396(7) 0.2083(5)
C5 C 0.2764(6) 0.3550(6) 0.8409(4)
C7 C 0.3788(6) 0.3456(8) 0.5841(5)
H1 H 0.4517 0.3519 0.5485
C8 C 0.3828(6) 0.3510(8) 0.6809(5)
H2 H 0.4578 0.3592 0.7096
C9 C 0.2759(6) 0.3443(6) 0.7369(5)
C11 C 0.3816(6) 0.3659(8) 0.9867(5)
C12 C 0.1690(6) 0.3705(8) 0.8929(5)
H4 H 0.0934 0.3737 0.8626
C13 C 0.1719(6) 0.3241(7) 0.5917(5)
H5 H 0.0982 0.3159 0.5611
C14 C 0.2410(7) 0.7764(7) 0.3624(5)
H6 H 0.2176 0.7227 0.4167
C15 C 0.3851(6) 0.3558(8) 0.8917(5)
H7 H 0.4603 0.3494 0.8600
C16 C 0.3100(6) 0.8137(7) 0.2017(5)
O12 O 0.3473(5) 0.7932(5) 0.1112(4)
C21 C 0.2748(6) 0.9877(7) 0.2913(5)
C22 C 0.1691(6) 0.3277(7) 0.6891(5)
H9 H 0.0951 0.3190 0.7232
C23 C 0.2415(7) 0.9008(7) 0.3677(5)
H10 H 0.2182 0.9273 0.4258
C24 C 0.1742(6) 0.3809(7) 0.9886(5)
C28 C 0.3965(9) 0.9077(8) 0.0661(6)
H16 H 0.4856 0.9022 0.0663
O13 O 0.4564(4) 0.3352(5) 0.3668(3)
O14 O 0.4583(4) 0.3598(6) 0.2077(4)
C6 C 0.8438(6) 0.3360(6) 0.2032(5)
C10 C 0.9059(6) 0.3468(6) 0.2861(5)
O9 O 0.8864(4) 0.3312(5) 0.1123(3)
O10 O 0.6759(4) 0.3260(5) 0.1120(3)
C17 C 0.7154(6) 0.3315(7) 0.2038(5)
C18 C 0.8355(6) 0.3502(7) 0.3705(5)
H8 H 0.8748 0.3554 0.4282
C19 C 0.5103(6) 0.3451(6) 0.2864(5)
C20 C 0.6444(6) 0.3386(7) 0.2851(5)
C25 C 0.7118(6) 0.3462(6) 0.3698(5)
H12 H 0.6687 0.3485 0.4275
C27 C 0.7851(6) 0.2967(7) 0.0589(5)
H13 H 0.7911 0.2093 0.0543
H15 H 0.3694 0.9270 0.9997
H14 H 0.7840 0.3426 0.9941
H14_2 H 0.2160 0.6574 0.0059
O4 O 0.5436(4) 0.6648(5) 0.6332(3)
O5 O 0.5417(4) 0.6402(6) 0.7923(4)
C6_2 C 0.1562(6) 0.6640(6) 0.7968(5)
C10_2 C 0.0941(6) 0.6532(6) 0.7139(5)
O9_2 O 0.1136(4) 0.6688(5) 0.8877(3)
O10_2 O 0.3241(4) 0.6740(5) 0.8880(3)
C17_2 C 0.2846(6) 0.6685(7) 0.7962(5)
C18_2 C 0.1645(6) 0.6498(7) 0.6295(5)
H8_2 H 0.1252 0.6446 0.5718
C19_2 C 0.4897(6) 0.6549(6) 0.7136(5)
C20_2 C 0.3556(6) 0.6614(7) 0.7149(5)
C25_2 C 0.2882(6) 0.6538(6) 0.6302(5)
H12_2 H 0.3313 0.6515 0.5725
C27_2 C 0.2149(6) 0.7033(7) 0.9411(5)
H13_2 H 0.2089 0.7907 0.9457
Zn3 Zn 0.72700(6) 0.66383(7) 0.60703(5)
Zn5 Zn 0.72296(6) 0.62223(7) 0.81924(5)
N1_2 N 0.7252(5) 0.6683(5) 0.4617(4)
O1_2 O 0.7326(5) 0.4755(4) 0.6442(4)
O2_2 O 0.9081(4) 0.6605(5) 0.6318(3)
O3_2 O 0.9040(4) 0.6150(5) 0.7926(3)
O8_2 O 0.7174(5) 0.4414(5) 0.8046(4)
C1_2 C 0.7262(6) 0.4069(6) 0.7234(5)
C2_2 C 0.7259(6) 0.2715(6) 0.7208(5)
C3_2 C 0.9579(6) 0.6419(6) 0.7129(5)
C4_2 C 0.6894(7) 0.0604(7) 0.7917(5)
C5_2 C 0.7236(6) 0.6450(6) 0.1591(4)
C7_2 C 0.6212(6) 0.6544(8) 0.4159(5)
H1_2 H 0.5483 0.6481 0.4515
C8_2 C 0.6172(6) 0.6490(8) 0.3191(5)
H2_2 H 0.5422 0.6408 0.2904
C9_2 C 0.7241(6) 0.6557(6) 0.2631(5)
C11_2 C 0.6184(6) 0.6341(8) 0.0133(5)
C12_2 C 0.8310(6) 0.6295(8) 0.1071(5)
H4_2 H 0.9066 0.6263 0.1374
C13_2 C 0.8281(6) 0.6759(7) 0.4083(5)
H5_2 H 0.9018 0.6841 0.4389
C14_2 C 0.7590(7) 0.2236(7) 0.6376(5)
H6_2 H 0.7824 0.2773 0.5833
C15_2 C 0.6149(6) 0.6442(8) 0.1083(5)
H7_2 H 0.5397 0.6506 0.1400
C16_2 C 0.6900(6) 0.1863(7) 0.7983(5)
O12_2 O 0.6527(5) 0.2068(5) 0.8888(4)
C21_2 C 0.7252(6) 0.0123(7) 0.7087(5)
C22_2 C 0.8309(6) 0.6723(7) 0.3109(5)
H9_2 H 0.9049 0.6810 0.2768
C23_2 C 0.7585(7) 0.0992(7) 0.6323(5)
H10_2 H 0.7818 0.0727 0.5742
C24_2 C 0.8258(6) 0.6191(7) 0.0114(5)
C28_2 C 0.6035(9) 0.0923(8) 0.9339(6)
H16_2 H 0.5144 0.0978 0.9337
O15 O 0.7288(6) 0.8079(5) 0.7800(4)
O16 O 0.7233(5) 0.8478(4) 0.6210(4)
N3 N 0.7223(5) 0.6227(5) 0.9628(4)
H3_2 H 0.5443 0.6353 0.9811
H11_2 H 0.8993 0.6088 0.9783
O11_2 O 0.6485(5) 0.9987(5) 0.8785(4)
C26_2 C 0.7252(6) 0.8779(7) 0.7026(5)
H15_2 H 0.6306 0.0730 0.0003
loop_
_geom_bond_atom_site_label_1
_geom_bond_atom_site_label_2
_geom_bond_site_symmetry_1
_geom_bond_site_symmetry_2
O6 C26 1_555 1_555
O7 C26 1_555 1_555
Zn4 O7 1_555 1_555
Zn7 O6 1_555 1_555
Zn7 N2 1_555 1_555
Zn4 N1 1_555 1_555
Zn7 O3 1_555 1_555
N1 C7 1_555 1_555
O1 Zn4 1_555 1_555
O2 Zn4 1_555 1_555
O3 C3 1_555 1_555
O8 Zn7 1_555 1_555
C1 O1 1_555 1_555
C2 C1 1_555 1_555
C3 O2 1_555 1_555
C4 C16 1_555 1_555
C5 C9 1_555 1_555
C7 H1 1_555 1_555
C8 C7 1_555 1_555
H2 C8 1_555 1_555
C9 C8 1_555 1_555
C12 C5 1_555 1_555
H4 C12 1_555 1_555
C13 N1 1_555 1_555
H5 C13 1_555 1_555
C14 C2 1_555 1_555
H6 C14 1_555 1_555
C15 C5 1_555 1_555
H7 C15 1_555 1_555
C16 C2 1_555 1_555
O12 C16 1_555 1_555
C21 C4 1_555 1_555
C22 C9 1_555 1_555
H9 C22 1_555 1_555
C23 C14 1_555 1_555
H10 C23 1_555 1_555
H16 C28 1_555 1_555
O13 Zn4 1_555 1_555
O14 Zn7 1_555 1_555
O8 C1 1_555 1_555
C11 C15 1_555 1_555
C12 C24 1_555 1_555
C13 C22 1_555 1_555
O12 C28 1_555 1_555
C21 C23 1_555 1_555
O13 C19 1_555 1_555
O14 C19 1_555 1_555
C6 C10 1_555 1_555
O9 C6 1_555 1_555
O10 C17 1_555 1_555
C17 C6 1_555 1_555
C18 C10 1_555 1_555
H8 C18 1_555 1_555
C19 C20 1_555 1_555
C20 C17 1_555 1_555
C25 C18 1_555 1_555
H12 C25 1_555 1_555
C27 O9 1_555 1_555
H13 C27 1_555 1_555
O10 C27 1_555 1_555
C20 C25 1_555 1_555
O4 C19_2 1_555 1_555
O5 C19_2 1_555 1_555
C6_2 C10_2 1_555 1_555
O9_2 C6_2 1_555 1_555
O10_2 C17_2 1_555 1_555
C17_2 C6_2 1_555 1_555
C18_2 C10_2 1_555 1_555
H8_2 C18_2 1_555 1_555
C19_2 C20_2 1_555 1_555
C20_2 C17_2 1_555 1_555
C25_2 C18_2 1_555 1_555
H12_2 C25_2 1_555 1_555
C27_2 O9_2 1_555 1_555
H13_2 C27_2 1_555 1_555
Zn3 O4 1_555 1_555
Zn5 O5 1_555 1_555
O10_2 C27_2 1_555 1_555
C20_2 C25_2 1_555 1_555
Zn3 N1_2 1_555 1_555
Zn5 O3_2 1_555 1_555
N1_2 C7_2 1_555 1_555
O1_2 Zn3 1_555 1_555
O2_2 Zn3 1_555 1_555
O3_2 C3_2 1_555 1_555
O8_2 Zn5 1_555 1_555
C1_2 O1_2 1_555 1_555
C2_2 C1_2 1_555 1_555
C3_2 O2_2 1_555 1_555
C4_2 C16_2 1_555 1_555
C5_2 C9_2 1_555 1_555
C7_2 H1_2 1_555 1_555
C8_2 C7_2 1_555 1_555
H2_2 C8_2 1_555 1_555
C9_2 C8_2 1_555 1_555
C12_2 C5_2 1_555 1_555
H4_2 C12_2 1_555 1_555
C13_2 N1_2 1_555 1_555
H5_2 C13_2 1_555 1_555
C14_2 C2_2 1_555 1_555
H6_2 C14_2 1_555 1_555
C15_2 C5_2 1_555 1_555
H7_2 C15_2 1_555 1_555
C16_2 C2_2 1_555 1_555
O12_2 C16_2 1_555 1_555
C21_2 C4_2 1_555 1_555
C22_2 C9_2 1_555 1_555
H9_2 C22_2 1_555 1_555
C23_2 C14_2 1_555 1_555
H10_2 C23_2 1_555 1_555
H16_2 C28_2 1_555 1_555
O15 Zn5 1_555 1_555
O16 Zn3 1_555 1_555
N3 Zn5 1_555 1_555
O8_2 C1_2 1_555 1_555
C11_2 C15_2 1_555 1_555
C12_2 C24_2 1_555 1_555
C13_2 C22_2 1_555 1_555
O12_2 C28_2 1_555 1_555
C21_2 C23_2 1_555 1_555
O15 C26_2 1_555 1_555
O16 C26_2 1_555 1_555

#END
