
###############################################################################
#
# This file contains modified crystal structure data generated from the
# MOF subset of the Cambridge Structural Database (CSD) v543 
# hosted by the Cambridge Crystallographic Data Centre (CCDC).
#
# This work is licensed under the Creative Commons
# Attribution-NonCommercial-ShareAlike 4.0 International License.
# To view a copy of this license, visit
# http://creativecommons.org/licenses/by-nc-sa/4.0/
# or send a letter to
# Creative Commons, PO Box 1866, Mountain View, CA 94042, USA.
#
# CIF created using the CSD Python API on 29 September 2022
# The structure has been converted into the P1 space group
# The structure has a 3D framework
# The original CSD entry PEYSUJ is in the tetragonal crystal system
# The framework has been calculated to contain at least 10.0% void space
# The void calculation uses a probe of radius 1.32A, grid spacing 0.4
# H atom positions have been added when not included in the experimental data
#
###############################################################################

data_PEYSUJ
_chemical_formula_moiety         '(C136 H52 Al11 Br20 O62)n'
_symmetry_cell_setting           triclinic
_symmetry_space_group_name_H-M   'P 1'
_symmetry_Int_Tables_number      1
_space_group_name_Hall           'P 1'
loop_
_symmetry_equiv_pos_site_id
_symmetry_equiv_pos_as_xyz
1 x,y,z
_cell_length_a                   21.5064(14)
_cell_length_b                   21.5064(14)
_cell_length_c                   10.1648(12)
_cell_angle_alpha                90
_cell_angle_beta                 90
_cell_angle_gamma                90
_cell_volume                     4701.48
loop_
_atom_site_label
_atom_site_type_symbol
_atom_site_fract_x
_atom_site_fract_y
_atom_site_fract_z
_atom_site_U_iso_or_equiv
_atom_site_thermal_displace_type
Al1 Al 0.31709(73) 0.000 0.000 0.0025 Uiso
O1 O 0.25586(90) 0.00586(90) 0.125 0.0076 Uiso
O2 O 0.38258(88) 0.00832(71) 0.1278(13) 0.0025 Uiso
O3 O 0.33965(39) 0.07041(79) 0.2802(19) 0.0025 Uiso
C1 C 0.38756(74) 0.04378(63) 0.2293(13) 0.0152 Uiso
C2 C 0.44351(46) 0.0570(11) 0.2986(16) 0.0025 Uiso
C3 C 0.500 0.0476(13) 0.2345(16) 0.0025 Uiso
C4 C 0.44325(43) 0.0828(11) 0.4267(16) 0.0025 Uiso
C5 C 0.500 0.0876(14) 0.4945(18) 0.0025 Uiso
Br1 Br 0.500 0.11892(28) 0.66128(65) 0.0394 Uiso
O4 O 0.61742(88) 0.00832(71) 0.1278(13) 0.0025 Uiso
O5 O 0.66035(39) 0.07041(79) 0.2802(19) 0.0025 Uiso
C6 C 0.61244(74) 0.04378(63) 0.2293(13) 0.0152 Uiso
C7 C 0.55649(46) 0.0570(11) 0.2986(16) 0.0025 Uiso
C8 C 0.55675(43) 0.0828(11) 0.4267(16) 0.0025 Uiso
Al2 Al 0.68291(73) 0.000 0.000 0.0025 Uiso
Al3 Al 0.250 0.06709(73) 0.250 0.0025 Uiso
Al4 Al 0.750 0.06709(73) 0.250 0.0025 Uiso
H1 H 0.5 0.0325948 0.132178 . .
H2 H 0.400081 0.0985643 0.471677 . .
H3 H 0.599919 0.0985643 0.471677 . .
Al1_2 Al 0.31709(73) 0.000 1.000 0.0025 Uiso
Al2_2 Al 0.68291(73) 0.000 1.000 0.0025 Uiso
O9 O 0.32041(79) 0.08965(39) 0.9698(19) 0.0025 Uiso
Al1_3 Al 0.31709(73) 1.000 0.000 0.0025 Uiso
Al2_3 Al 0.68291(73) 1.000 0.000 0.0025 Uiso
O8 O 0.32041(79) 0.91035(39) 0.0302(19) 0.0025 Uiso
Al1_4 Al 0.31709(73) 1.000 1.000 0.0025 Uiso
Al2_4 Al 0.68291(73) 1.000 1.000 0.0025 Uiso
O6 O 0.25586(90) 0.99414(90) 0.875 0.0076 Uiso
O7 O 0.38258(88) 0.99168(71) 0.8722(13) 0.0025 Uiso
Al1_5 Al 0.68291(73) 0.500 0.000 0.0025 Uiso
O1_2 O 0.74414(90) 0.49414(90) 0.125 0.0076 Uiso
O2_2 O 0.61742(88) 0.49168(71) 0.1278(13) 0.0025 Uiso
O3_2 O 0.66035(39) 0.42959(79) 0.2802(19) 0.0025 Uiso
C1_2 C 0.61244(74) 0.45622(63) 0.2293(13) 0.0152 Uiso
C2_2 C 0.55649(46) 0.4430(11) 0.2986(16) 0.0025 Uiso
C3_2 C 0.500 0.4524(13) 0.2345(16) 0.0025 Uiso
C4_2 C 0.55675(43) 0.4172(11) 0.4267(16) 0.0025 Uiso
C5_2 C 0.500 0.4124(14) 0.4945(18) 0.0025 Uiso
Br1_2 Br 0.500 0.38108(28) 0.66128(65) 0.0394 Uiso
O4_2 O 0.38258(88) 0.49168(71) 0.1278(13) 0.0025 Uiso
O5_2 O 0.33965(39) 0.42959(79) 0.2802(19) 0.0025 Uiso
C6_2 C 0.38756(74) 0.45622(63) 0.2293(13) 0.0152 Uiso
C7_2 C 0.44351(46) 0.4430(11) 0.2986(16) 0.0025 Uiso
C8_2 C 0.44325(43) 0.4172(11) 0.4267(16) 0.0025 Uiso
Al2_5 Al 0.31709(73) 0.500 0.000 0.0025 Uiso
Al3_2 Al 0.750 0.43291(73) 0.250 0.0025 Uiso
Al4_2 Al 0.250 0.43291(73) 0.250 0.0025 Uiso
O8_2 O 0.67959(79) 0.58965(39) 0.0302(19) 0.0025 Uiso
H1_2 H 0.5 0.467405 0.132178 . .
H2_2 H 0.599919 0.401436 0.471677 . .
H3_2 H 0.400081 0.401436 0.471677 . .
Al1_6 Al 0.68291(73) 0.500 1.000 0.0025 Uiso
Al2_6 Al 0.31709(73) 0.500 1.000 0.0025 Uiso
O6_2 O 0.74414(90) 0.50586(90) 0.875 0.0076 Uiso
O7_2 O 0.61742(88) 0.50832(71) 0.8722(13) 0.0025 Uiso
O9_2 O 0.67959(79) 0.41035(39) 0.9698(19) 0.0025 Uiso
O3_3 O 0.66035(39) 0.57041(79) 0.7198(19) 0.0025 Uiso
C1_3 C 0.61244(74) 0.54378(63) 0.7707(13) 0.0152 Uiso
C2_3 C 0.55649(46) 0.5570(11) 0.7014(16) 0.0025 Uiso
C3_3 C 0.500 0.5476(13) 0.7655(16) 0.0025 Uiso
C4_3 C 0.55675(43) 0.5828(11) 0.5733(16) 0.0025 Uiso
C5_3 C 0.500 0.5876(14) 0.5055(18) 0.0025 Uiso
Br1_3 Br 0.500 0.61892(28) 0.33872(65) 0.0394 Uiso
O4_3 O 0.38258(88) 0.50832(71) 0.8722(13) 0.0025 Uiso
O5_3 O 0.33965(39) 0.57041(79) 0.7198(19) 0.0025 Uiso
C6_3 C 0.38756(74) 0.54378(63) 0.7707(13) 0.0152 Uiso
C7_3 C 0.44351(46) 0.5570(11) 0.7014(16) 0.0025 Uiso
C8_3 C 0.44325(43) 0.5828(11) 0.5733(16) 0.0025 Uiso
Al3_3 Al 0.750 0.56709(73) 0.750 0.0025 Uiso
Al4_3 Al 0.250 0.56709(73) 0.750 0.0025 Uiso
H1_3 H 0.5 0.532595 0.867822 . .
H2_3 H 0.599919 0.598564 0.528323 . .
H3_3 H 0.400081 0.598564 0.528323 . .
Al1_7 Al 0.18291(73) 0.000 0.500 0.0025 Uiso
O6_3 O 0.24414(90) 0.00586(90) 0.375 0.0076 Uiso
O7_3 O 0.11742(88) 0.00832(71) 0.3722(13) 0.0025 Uiso
O8_3 O 0.17959(79) 0.08965(39) 0.5302(19) 0.0025 Uiso
Al1_8 Al 0.18291(73) 1.000 0.500 0.0025 Uiso
O1_3 O 0.24414(90) 0.99414(90) 0.625 0.0076 Uiso
O2_3 O 0.11742(88) 0.99168(71) 0.6278(13) 0.0025 Uiso
O3_4 O 0.16035(39) 0.92959(79) 0.7802(19) 0.0025 Uiso
C1_4 C 0.11244(74) 0.95622(63) 0.7293(13) 0.0152 Uiso
C2_4 C 0.05649(46) 0.9430(11) 0.7986(16) 0.0025 Uiso
C3_4 C 0.000 0.9524(13) 0.7345(16) 0.0025 Uiso
C4_4 C 0.05675(43) 0.9172(11) 0.9267(16) 0.0025 Uiso
C5_4 C 0.000 0.9124(14) 0.9945(18) 0.0025 Uiso
Al3_4 Al 0.250 0.93291(73) 0.750 0.0025 Uiso
O9_3 O 0.17959(79) 0.91035(39) 0.4698(19) 0.0025 Uiso
H1_4 H -9.24446e-33 0.967405 0.632178 . .
H2_4 H 0.0999194 0.901436 0.971677 . .
Al2_7 Al 0.81709(73) 0.000 0.500 0.0025 Uiso
C3_5 C 1.000 0.9524(13) 0.7345(16) 0.0025 Uiso
C5_5 C 1.000 0.9124(14) 0.9945(18) 0.0025 Uiso
O4_4 O 0.88258(88) 0.99168(71) 0.6278(13) 0.0025 Uiso
O5_4 O 0.83965(39) 0.92959(79) 0.7802(19) 0.0025 Uiso
C6_4 C 0.88756(74) 0.95622(63) 0.7293(13) 0.0152 Uiso
C7_4 C 0.94351(46) 0.9430(11) 0.7986(16) 0.0025 Uiso
C8_4 C 0.94325(43) 0.9172(11) 0.9267(16) 0.0025 Uiso
Al2_8 Al 0.81709(73) 1.000 0.500 0.0025 Uiso
Al4_4 Al 0.750 0.93291(73) 0.750 0.0025 Uiso
H1_5 H 1 0.967405 0.632178 . .
H3_4 H 0.900081 0.901436 0.971677 . .
O3_5 O 0.16035(39) 0.07041(79) 0.2198(19) 0.0025 Uiso
C1_5 C 0.11244(74) 0.04378(63) 0.2707(13) 0.0152 Uiso
C2_5 C 0.05649(46) 0.0570(11) 0.2014(16) 0.0025 Uiso
C3_6 C -0.000 0.0476(13) 0.2655(16) 0.0025 Uiso
C4_5 C 0.05675(43) 0.0828(11) 0.0733(16) 0.0025 Uiso
C5_6 C 0.000 0.0876(14) 0.0055(18) 0.0025 Uiso
H1_6 H 1.54074e-33 0.0325948 0.367822 . .
H2_5 H 0.0999194 0.0985643 0.0283228 . .
C3_7 C 1.000 0.0476(13) 0.2655(16) 0.0025 Uiso
C5_7 C 1.000 0.0876(14) 0.0055(18) 0.0025 Uiso
O4_5 O 0.88258(88) 0.00832(71) 0.3722(13) 0.0025 Uiso
O5_5 O 0.83965(39) 0.07041(79) 0.2198(19) 0.0025 Uiso
C6_5 C 0.88756(74) 0.04378(63) 0.2707(13) 0.0152 Uiso
C7_5 C 0.94351(46) 0.0570(11) 0.2014(16) 0.0025 Uiso
C8_5 C 0.94325(43) 0.0828(11) 0.0733(16) 0.0025 Uiso
H1_7 H 1 0.0325948 0.367822 . .
H3_5 H 0.900081 0.0985643 0.0283228 . .
O2_4 O 0.24168(71) 0.86742(88) 0.6222(13) 0.0025 Uiso
C1_6 C 0.20622(63) 0.86244(74) 0.5207(13) 0.0152 Uiso
C2_6 C 0.1930(11) 0.80649(46) 0.4514(16) 0.0025 Uiso
C3_8 C 0.2024(13) 0.750 0.5155(16) 0.0025 Uiso
C4_6 C 0.1672(11) 0.80675(43) 0.3233(16) 0.0025 Uiso
C5_8 C 0.1624(14) 0.750 0.2555(18) 0.0025 Uiso
Br1_4 Br 0.13108(28) 0.750 0.08872(65) 0.0394 Uiso
O4_6 O 0.24168(71) 0.63258(88) 0.6222(13) 0.0025 Uiso
O5_6 O 0.17959(79) 0.58965(39) 0.4698(19) 0.0025 Uiso
C6_6 C 0.20622(63) 0.63756(74) 0.5207(13) 0.0152 Uiso
C7_6 C 0.1930(11) 0.69351(46) 0.4514(16) 0.0025 Uiso
C8_6 C 0.1672(11) 0.69325(43) 0.3233(16) 0.0025 Uiso
Al4_5 Al 0.18291(73) 0.500 0.500 0.0025 Uiso
O7_4 O 0.25832(71) 0.86742(88) 0.8778(13) 0.0025 Uiso
O8_4 O 0.33965(39) 0.92959(79) 0.7198(19) 0.0025 Uiso
H1_8 H 0.217405 0.75 0.617822 . .
H2_6 H 0.151436 0.849919 0.278323 . .
H3_6 H 0.151436 0.650081 0.278323 . .
O2_5 O 0.24168(71) 0.13258(88) 0.3778(13) 0.0025 Uiso
C1_7 C 0.20622(63) 0.13756(74) 0.4793(13) 0.0152 Uiso
C2_7 C 0.1930(11) 0.19351(46) 0.5486(16) 0.0025 Uiso
C3_9 C 0.2024(13) 0.250 0.4845(16) 0.0025 Uiso
C4_7 C 0.1672(11) 0.19325(43) 0.6767(16) 0.0025 Uiso
C5_9 C 0.1624(14) 0.250 0.7445(18) 0.0025 Uiso
Br1_5 Br 0.13108(28) 0.250 0.91128(65) 0.0394 Uiso
O4_7 O 0.24168(71) 0.36742(88) 0.3778(13) 0.0025 Uiso
O5_7 O 0.17959(79) 0.41035(39) 0.5302(19) 0.0025 Uiso
C6_7 C 0.20622(63) 0.36244(74) 0.4793(13) 0.0152 Uiso
C7_7 C 0.1930(11) 0.30649(46) 0.5486(16) 0.0025 Uiso
C8_7 C 0.1672(11) 0.30675(43) 0.6767(16) 0.0025 Uiso
O7_5 O 0.25832(71) 0.13258(88) 0.1222(13) 0.0025 Uiso
H1_9 H 0.217405 0.25 0.382178 . .
H2_7 H 0.151436 0.150081 0.721677 . .
H3_7 H 0.151436 0.349919 0.721677 . .
O2_6 O 0.74168(71) 0.36742(88) 0.1222(13) 0.0025 Uiso
C1_8 C 0.70622(63) 0.36244(74) 0.0207(13) 0.0152 Uiso
C3_10 C 0.7024(13) 0.250 0.0155(16) 0.0025 Uiso
O4_8 O 0.74168(71) 0.13258(88) 0.1222(13) 0.0025 Uiso
C6_8 C 0.70622(63) 0.13756(74) 0.0207(13) 0.0152 Uiso
O6_4 O 0.75586(90) 0.49414(90) 0.375 0.0076 Uiso
O7_6 O 0.75832(71) 0.36742(88) 0.3778(13) 0.0025 Uiso
O8_5 O 0.83965(39) 0.42959(79) 0.2198(19) 0.0025 Uiso
H1_10 H 0.717405 0.25 0.117822 . .
C2_8 C 0.6930(11) 0.30649(46) 0.9514(16) 0.0025 Uiso
C4_8 C 0.6672(11) 0.30675(43) 0.8233(16) 0.0025 Uiso
C5_10 C 0.6624(14) 0.250 0.7555(18) 0.0025 Uiso
Br1_6 Br 0.63108(28) 0.250 0.58872(65) 0.0394 Uiso
O5_8 O 0.67959(79) 0.08965(39) 0.9698(19) 0.0025 Uiso
C7_8 C 0.6930(11) 0.19351(46) 0.9514(16) 0.0025 Uiso
C8_8 C 0.6672(11) 0.19325(43) 0.8233(16) 0.0025 Uiso
H2_8 H 0.651436 0.349919 0.778323 . .
H3_8 H 0.651436 0.150081 0.778323 . .
C2_9 C 0.6930(11) 0.69351(46) 0.0486(16) 0.0025 Uiso
C4_9 C 0.6672(11) 0.69325(43) 0.1767(16) 0.0025 Uiso
C5_11 C 0.6624(14) 0.750 0.2445(18) 0.0025 Uiso
Br1_7 Br 0.63108(28) 0.750 0.41128(65) 0.0394 Uiso
O5_9 O 0.67959(79) 0.91035(39) 0.0302(19) 0.0025 Uiso
C7_9 C 0.6930(11) 0.80649(46) 0.0486(16) 0.0025 Uiso
C8_9 C 0.6672(11) 0.80675(43) 0.1767(16) 0.0025 Uiso
H2_9 H 0.651436 0.650081 0.221677 . .
H3_9 H 0.651436 0.849919 0.221677 . .
O2_7 O 0.74168(71) 0.63258(88) 0.8778(13) 0.0025 Uiso
C1_9 C 0.70622(63) 0.63756(74) 0.9793(13) 0.0152 Uiso
C3_11 C 0.7024(13) 0.750 0.9845(16) 0.0025 Uiso
O4_9 O 0.74168(71) 0.86742(88) 0.8778(13) 0.0025 Uiso
C6_9 C 0.70622(63) 0.86244(74) 0.9793(13) 0.0152 Uiso
O6_5 O 0.75586(90) 0.50586(90) 0.625 0.0076 Uiso
O7_7 O 0.75832(71) 0.63258(88) 0.6222(13) 0.0025 Uiso
O8_6 O 0.83965(39) 0.57041(79) 0.7802(19) 0.0025 Uiso
H1_11 H 0.717405 0.75 0.882178 . .
C2_10 C 0.3070(11) 0.80649(46) 0.0486(16) 0.0025 Uiso
C4_10 C 0.3328(11) 0.80675(43) 0.1767(16) 0.0025 Uiso
C5_12 C 0.3376(14) 0.750 0.2445(18) 0.0025 Uiso
Br1_8 Br 0.36892(28) 0.750 0.41128(65) 0.0394 Uiso
O5_10 O 0.32041(79) 0.58965(39) 0.0302(19) 0.0025 Uiso
C7_10 C 0.3070(11) 0.69351(46) 0.0486(16) 0.0025 Uiso
C8_10 C 0.3328(11) 0.69325(43) 0.1767(16) 0.0025 Uiso
H2_10 H 0.348564 0.849919 0.221677 . .
H3_10 H 0.348564 0.650081 0.221677 . .
C1_10 C 0.29378(63) 0.86244(74) 0.9793(13) 0.0152 Uiso
C3_12 C 0.2976(13) 0.750 0.9845(16) 0.0025 Uiso
O4_10 O 0.25832(71) 0.63258(88) 0.8778(13) 0.0025 Uiso
C6_10 C 0.29378(63) 0.63756(74) 0.9793(13) 0.0152 Uiso
H1_12 H 0.282595 0.75 0.882178 . .
C1_11 C 0.29378(63) 0.13756(74) 0.0207(13) 0.0152 Uiso
C3_13 C 0.2976(13) 0.250 0.0155(16) 0.0025 Uiso
O4_11 O 0.25832(71) 0.36742(88) 0.1222(13) 0.0025 Uiso
C6_11 C 0.29378(63) 0.36244(74) 0.0207(13) 0.0152 Uiso
H1_13 H 0.282595 0.25 0.117822 . .
C2_11 C 0.3070(11) 0.19351(46) 0.9514(16) 0.0025 Uiso
C4_11 C 0.3328(11) 0.19325(43) 0.8233(16) 0.0025 Uiso
C5_13 C 0.3376(14) 0.250 0.7555(18) 0.0025 Uiso
Br1_9 Br 0.36892(28) 0.250 0.58872(65) 0.0394 Uiso
O5_11 O 0.32041(79) 0.41035(39) 0.9698(19) 0.0025 Uiso
C7_11 C 0.3070(11) 0.30649(46) 0.9514(16) 0.0025 Uiso
C8_11 C 0.3328(11) 0.30675(43) 0.8233(16) 0.0025 Uiso
H2_11 H 0.348564 0.150081 0.778323 . .
H3_11 H 0.348564 0.349919 0.778323 . .
O3_6 O 0.82041(79) 0.41035(39) 0.5302(19) 0.0025 Uiso
C1_12 C 0.79378(63) 0.36244(74) 0.4793(13) 0.0152 Uiso
C2_12 C 0.8070(11) 0.30649(46) 0.5486(16) 0.0025 Uiso
C3_14 C 0.7976(13) 0.250 0.4845(16) 0.0025 Uiso
C4_12 C 0.8328(11) 0.30675(43) 0.6767(16) 0.0025 Uiso
C5_14 C 0.8376(14) 0.250 0.7445(18) 0.0025 Uiso
Br1_10 Br 0.86892(28) 0.250 0.91128(65) 0.0394 Uiso
O4_12 O 0.75832(71) 0.13258(88) 0.3778(13) 0.0025 Uiso
O5_12 O 0.82041(79) 0.08965(39) 0.5302(19) 0.0025 Uiso
C6_12 C 0.79378(63) 0.13756(74) 0.4793(13) 0.0152 Uiso
C7_12 C 0.8070(11) 0.19351(46) 0.5486(16) 0.0025 Uiso
C8_12 C 0.8328(11) 0.19325(43) 0.6767(16) 0.0025 Uiso
Al3_5 Al 0.81709(73) 0.500 0.500 0.0025 Uiso
H1_14 H 0.782595 0.25 0.382178 . .
H2_12 H 0.848564 0.349919 0.721677 . .
H3_12 H 0.848564 0.150081 0.721677 . .
O3_7 O 0.82041(79) 0.58965(39) 0.4698(19) 0.0025 Uiso
C1_13 C 0.79378(63) 0.63756(74) 0.5207(13) 0.0152 Uiso
C2_13 C 0.8070(11) 0.69351(46) 0.4514(16) 0.0025 Uiso
C3_15 C 0.7976(13) 0.750 0.5155(16) 0.0025 Uiso
C4_13 C 0.8328(11) 0.69325(43) 0.3233(16) 0.0025 Uiso
C5_15 C 0.8376(14) 0.750 0.2555(18) 0.0025 Uiso
Br1_11 Br 0.86892(28) 0.750 0.08872(65) 0.0394 Uiso
O4_13 O 0.75832(71) 0.86742(88) 0.6222(13) 0.0025 Uiso
O5_13 O 0.82041(79) 0.91035(39) 0.4698(19) 0.0025 Uiso
C6_13 C 0.79378(63) 0.86244(74) 0.5207(13) 0.0152 Uiso
C7_13 C 0.8070(11) 0.80649(46) 0.4514(16) 0.0025 Uiso
C8_13 C 0.8328(11) 0.80675(43) 0.3233(16) 0.0025 Uiso
H1_15 H 0.782595 0.75 0.617822 . .
H2_13 H 0.848564 0.650081 0.278323 . .
H3_13 H 0.848564 0.849919 0.278323 . .
C1_14 C 0.38756(74) 0.95622(63) 0.7707(13) 0.0152 Uiso
C2_14 C 0.44351(46) 0.9430(11) 0.7014(16) 0.0025 Uiso
C3_16 C 0.500 0.9524(13) 0.7655(16) 0.0025 Uiso
C4_14 C 0.44325(43) 0.9172(11) 0.5733(16) 0.0025 Uiso
C5_16 C 0.500 0.9124(14) 0.5055(18) 0.0025 Uiso
Br1_12 Br 0.500 0.88108(28) 0.33872(65) 0.0394 Uiso
O4_14 O 0.61742(88) 0.99168(71) 0.8722(13) 0.0025 Uiso
O5_14 O 0.66035(39) 0.92959(79) 0.7198(19) 0.0025 Uiso
C6_14 C 0.61244(74) 0.95622(63) 0.7707(13) 0.0152 Uiso
C7_14 C 0.55649(46) 0.9430(11) 0.7014(16) 0.0025 Uiso
C8_14 C 0.55675(43) 0.9172(11) 0.5733(16) 0.0025 Uiso
H1_16 H 0.5 0.967405 0.867822 . .
H2_14 H 0.400081 0.901436 0.528323 . .
H3_14 H 0.599919 0.901436 0.528323 . .
C3_17 C -0.000 0.4524(13) 0.2655(16) 0.0025 Uiso
C5_17 C -0.000 0.4124(14) 0.0055(18) 0.0025 Uiso
O4_15 O 0.11742(88) 0.49168(71) 0.3722(13) 0.0025 Uiso
O5_15 O 0.16035(39) 0.42959(79) 0.2198(19) 0.0025 Uiso
C6_15 C 0.11244(74) 0.45622(63) 0.2707(13) 0.0152 Uiso
C7_15 C 0.05649(46) 0.4430(11) 0.2014(16) 0.0025 Uiso
C8_15 C 0.05675(43) 0.4172(11) 0.0733(16) 0.0025 Uiso
H1_17 H 1.54074e-33 0.467405 0.367822 . .
H3_15 H 0.0999194 0.401436 0.0283228 . .
O2_8 O 0.88258(88) 0.49168(71) 0.3722(13) 0.0025 Uiso
C1_15 C 0.88756(74) 0.45622(63) 0.2707(13) 0.0152 Uiso
C2_15 C 0.94351(46) 0.4430(11) 0.2014(16) 0.0025 Uiso
C3_18 C 1.000 0.4524(13) 0.2655(16) 0.0025 Uiso
C4_15 C 0.94325(43) 0.4172(11) 0.0733(16) 0.0025 Uiso
C5_18 C 1.000 0.4124(14) 0.0055(18) 0.0025 Uiso
O7_8 O 0.88258(88) 0.50832(71) 0.6278(13) 0.0025 Uiso
H1_18 H 1 0.467405 0.367822 . .
H2_15 H 0.900081 0.401436 0.0283228 . .
C3_19 C 0.000 0.5476(13) 0.7345(16) 0.0025 Uiso
C5_19 C 0.000 0.5876(14) 0.9945(18) 0.0025 Uiso
O4_16 O 0.11742(88) 0.50832(71) 0.6278(13) 0.0025 Uiso
O5_16 O 0.16035(39) 0.57041(79) 0.7802(19) 0.0025 Uiso
C6_16 C 0.11244(74) 0.54378(63) 0.7293(13) 0.0152 Uiso
C7_16 C 0.05649(46) 0.5570(11) 0.7986(16) 0.0025 Uiso
C8_16 C 0.05675(43) 0.5828(11) 0.9267(16) 0.0025 Uiso
H1_19 H -3.08149e-33 0.532595 0.632178 . .
H3_16 H 0.0999194 0.598564 0.971677 . .
C1_16 C 0.88756(74) 0.54378(63) 0.7293(13) 0.0152 Uiso
C2_16 C 0.94351(46) 0.5570(11) 0.7986(16) 0.0025 Uiso
C3_20 C 1.000 0.5476(13) 0.7345(16) 0.0025 Uiso
C4_16 C 0.94325(43) 0.5828(11) 0.9267(16) 0.0025 Uiso
C5_20 C 1.000 0.5876(14) 0.9945(18) 0.0025 Uiso
H1_20 H 1 0.532595 0.632178 . .
H2_16 H 0.900081 0.598564 0.971677 . .
O6_6 O 0.74414(90) 0.00586(90) 0.125 0.0076 Uiso
O1_4 O 0.74414(90) 0.99414(90) 0.875 0.0076 Uiso
O6_7 O 0.25586(90) 0.49414(90) 0.125 0.0076 Uiso
O1_5 O 0.25586(90) 0.50586(90) 0.875 0.0076 Uiso
O1_6 O 0.75586(90) 0.00586(90) 0.375 0.0076 Uiso
O6_8 O 0.75586(90) 0.99414(90) 0.625 0.0076 Uiso
O6_9 O 0.24414(90) 0.50586(90) 0.625 0.0076 Uiso
O6_10 O 0.24414(90) 0.49414(90) 0.375 0.0076 Uiso
Br1_13 Br 0.000 0.88108(28) 0.16128(65) 0.0394 Uiso
Br1_14 Br 1.000 0.88108(28) 0.16128(65) 0.0394 Uiso
Br1_15 Br 0.000 0.11892(28) 0.83872(65) 0.0394 Uiso
Br1_16 Br 1.000 0.11892(28) 0.83872(65) 0.0394 Uiso
Br1_17 Br 0.000 0.38108(28) 0.83872(65) 0.0394 Uiso
Br1_18 Br 1.000 0.38108(28) 0.83872(65) 0.0394 Uiso
Br1_19 Br -0.000 0.61892(28) 0.16128(65) 0.0394 Uiso
Br1_20 Br 1.000 0.61892(28) 0.16128(65) 0.0394 Uiso
loop_
_geom_bond_atom_site_label_1
_geom_bond_atom_site_label_2
_geom_bond_site_symmetry_1
_geom_bond_site_symmetry_2
Al1 O1 1_555 1_555
O1 Al3 1_555 1_555
O2 Al1 1_555 1_555
O3 C1 1_555 1_555
C1 O2 1_555 1_555
C2 C1 1_555 1_555
C3 C2 1_555 1_555
C4 C2 1_555 1_555
C5 C4 1_555 1_555
Br1 C5 1_555 1_555
O4 C6 1_555 1_555
O5 C6 1_555 1_555
C6 C7 1_555 1_555
C7 C3 1_555 1_555
C8 C5 1_555 1_555
Al2 O4 1_555 1_555
Al3 O3 1_555 1_555
Al4 O5 1_555 1_555
C7 C8 1_555 1_555
C3 H1 1_555 1_555
C4 H2 1_555 1_555
C8 H3 1_555 1_555
O9 Al1_2 1_555 1_555
O8 Al1_3 1_555 1_555
O6 Al1_4 1_555 1_555
O7 Al1_4 1_555 1_555
Al1_5 O1_2 1_555 1_555
O1_2 Al3_2 1_555 1_555
O2_2 Al1_5 1_555 1_555
O3_2 C1_2 1_555 1_555
C1_2 O2_2 1_555 1_555
C2_2 C1_2 1_555 1_555
C3_2 C2_2 1_555 1_555
C4_2 C2_2 1_555 1_555
C5_2 C4_2 1_555 1_555
Br1_2 C5_2 1_555 1_555
O4_2 C6_2 1_555 1_555
O5_2 C6_2 1_555 1_555
C6_2 C7_2 1_555 1_555
C7_2 C3_2 1_555 1_555
C8_2 C5_2 1_555 1_555
Al2_5 O4_2 1_555 1_555
Al3_2 O3_2 1_555 1_555
Al4_2 O5_2 1_555 1_555
O8_2 Al1_5 1_555 1_555
C7_2 C8_2 1_555 1_555
C3_2 H1_2 1_555 1_555
C4_2 H2_2 1_555 1_555
C8_2 H3_2 1_555 1_555
O6_2 Al1_6 1_555 1_555
O7_2 Al1_6 1_555 1_555
O9_2 Al1_6 1_555 1_555
O6_2 Al3_3 1_555 1_555
O3_3 C1_3 1_555 1_555
C1_3 O7_2 1_555 1_555
C2_3 C1_3 1_555 1_555
C3_3 C2_3 1_555 1_555
C4_3 C2_3 1_555 1_555
C5_3 C4_3 1_555 1_555
Br1_3 C5_3 1_555 1_555
O4_3 C6_3 1_555 1_555
O5_3 C6_3 1_555 1_555
C6_3 C7_3 1_555 1_555
C7_3 C3_3 1_555 1_555
C8_3 C5_3 1_555 1_555
Al2_6 O4_3 1_555 1_555
Al3_3 O3_3 1_555 1_555
Al4_3 O5_3 1_555 1_555
C7_3 C8_3 1_555 1_555
C3_3 H1_3 1_555 1_555
C4_3 H2_3 1_555 1_555
C8_3 H3_3 1_555 1_555
O6_3 Al1_7 1_555 1_555
O7_3 Al1_7 1_555 1_555
O8_3 Al1_7 1_555 1_555
Al1_8 O1_3 1_555 1_555
O1_3 Al3_4 1_555 1_555
O2_3 Al1_8 1_555 1_555
O3_4 C1_4 1_555 1_555
C1_4 O2_3 1_555 1_555
C2_4 C1_4 1_555 1_555
C3_4 C2_4 1_555 1_555
C4_4 C2_4 1_555 1_555
C5_4 C4_4 1_555 1_555
Al3_4 O3_4 1_555 1_555
O9_3 Al1_8 1_555 1_555
C3_4 H1_4 1_555 1_555
C4_4 H2_4 1_555 1_555
O4_4 C6_4 1_555 1_555
O5_4 C6_4 1_555 1_555
C6_4 C7_4 1_555 1_555
C7_4 C3_5 1_555 1_555
C8_4 C5_5 1_555 1_555
Al2_8 O4_4 1_555 1_555
Al4_4 O5_4 1_555 1_555
C7_4 C8_4 1_555 1_555
C3_5 H1_5 1_555 1_555
C8_4 H3_4 1_555 1_555
O6_3 Al3 1_555 1_555
O3_5 C1_5 1_555 1_555
C1_5 O7_3 1_555 1_555
C2_5 C1_5 1_555 1_555
C3_6 C2_5 1_555 1_555
C4_5 C2_5 1_555 1_555
C5_6 C4_5 1_555 1_555
Al3 O3_5 1_555 1_555
C3_6 H1_6 1_555 1_555
C4_5 H2_5 1_555 1_555
O4_5 C6_5 1_555 1_555
O5_5 C6_5 1_555 1_555
C6_5 C7_5 1_555 1_555
C7_5 C3_7 1_555 1_555
C8_5 C5_7 1_555 1_555
Al2_7 O4_5 1_555 1_555
Al4 O5_5 1_555 1_555
C7_5 C8_5 1_555 1_555
C3_7 H1_7 1_555 1_555
C8_5 H3_5 1_555 1_555
O2_4 Al3_4 1_555 1_555
O9_3 C1_6 1_555 1_555
C1_6 O2_4 1_555 1_555
C2_6 C1_6 1_555 1_555
C3_8 C2_6 1_555 1_555
C4_6 C2_6 1_555 1_555
C5_8 C4_6 1_555 1_555
Br1_4 C5_8 1_555 1_555
O4_6 C6_6 1_555 1_555
O5_6 C6_6 1_555 1_555
C6_6 C7_6 1_555 1_555
C7_6 C3_8 1_555 1_555
C8_6 C5_8 1_555 1_555
Al4_3 O4_6 1_555 1_555
Al4_5 O5_6 1_555 1_555
O6 Al3_4 1_555 1_555
O7_4 Al3_4 1_555 1_555
O8_4 Al3_4 1_555 1_555
C7_6 C8_6 1_555 1_555
C3_8 H1_8 1_555 1_555
C4_6 H2_6 1_555 1_555
C8_6 H3_6 1_555 1_555
O2_5 Al3 1_555 1_555
O8_3 C1_7 1_555 1_555
C1_7 O2_5 1_555 1_555
C2_7 C1_7 1_555 1_555
C3_9 C2_7 1_555 1_555
C4_7 C2_7 1_555 1_555
C5_9 C4_7 1_555 1_555
Br1_5 C5_9 1_555 1_555
O4_7 C6_7 1_555 1_555
O5_7 C6_7 1_555 1_555
C6_7 C7_7 1_555 1_555
C7_7 C3_9 1_555 1_555
C8_7 C5_9 1_555 1_555
Al4_2 O4_7 1_555 1_555
Al4_5 O5_7 1_555 1_555
O7_5 Al3 1_555 1_555
C7_7 C8_7 1_555 1_555
C3_9 H1_9 1_555 1_555
C4_7 H2_7 1_555 1_555
C8_7 H3_7 1_555 1_555
O2_6 Al3_2 1_555 1_555
C1_8 O2_6 1_555 1_555
O4_8 C6_8 1_555 1_555
Al4 O4_8 1_555 1_555
O6_4 Al3_2 1_555 1_555
O7_6 Al3_2 1_555 1_555
O8_5 Al3_2 1_555 1_555
C3_10 H1_10 1_555 1_555
C4_8 C2_8 1_555 1_555
C5_10 C4_8 1_555 1_555
Br1_6 C5_10 1_555 1_555
C8_8 C5_10 1_555 1_555
Al2_2 O5_8 1_555 1_555
C7_8 C8_8 1_555 1_555
C4_8 H2_8 1_555 1_555
C8_8 H3_8 1_555 1_555
C4_9 C2_9 1_555 1_555
C5_11 C4_9 1_555 1_555
Br1_7 C5_11 1_555 1_555
C8_9 C5_11 1_555 1_555
Al2_3 O5_9 1_555 1_555
C7_9 C8_9 1_555 1_555
C4_9 H2_9 1_555 1_555
C8_9 H3_9 1_555 1_555
O2_7 Al3_3 1_555 1_555
C1_9 O2_7 1_555 1_555
O4_9 C6_9 1_555 1_555
Al4_4 O4_9 1_555 1_555
O6_5 Al3_3 1_555 1_555
O7_7 Al3_3 1_555 1_555
O8_6 Al3_3 1_555 1_555
C3_11 H1_11 1_555 1_555
C4_10 C2_10 1_555 1_555
C5_12 C4_10 1_555 1_555
Br1_8 C5_12 1_555 1_555
C8_10 C5_12 1_555 1_555
Al2_5 O5_10 1_555 1_555
C7_10 C8_10 1_555 1_555
C4_10 H2_10 1_555 1_555
C8_10 H3_10 1_555 1_555
C1_10 O7_4 1_555 1_555
O4_10 C6_10 1_555 1_555
Al4_3 O4_10 1_555 1_555
C3_12 H1_12 1_555 1_555
C1_11 O7_5 1_555 1_555
O4_11 C6_11 1_555 1_555
Al4_2 O4_11 1_555 1_555
C3_13 H1_13 1_555 1_555
C4_11 C2_11 1_555 1_555
C5_13 C4_11 1_555 1_555
Br1_9 C5_13 1_555 1_555
C8_11 C5_13 1_555 1_555
Al2_6 O5_11 1_555 1_555
C7_11 C8_11 1_555 1_555
C4_11 H2_11 1_555 1_555
C8_11 H3_11 1_555 1_555
O6_4 Al3_5 1_555 1_555
O3_6 C1_12 1_555 1_555
C1_12 O7_6 1_555 1_555
C2_12 C1_12 1_555 1_555
C3_14 C2_12 1_555 1_555
C4_12 C2_12 1_555 1_555
C5_14 C4_12 1_555 1_555
Br1_10 C5_14 1_555 1_555
O4_12 C6_12 1_555 1_555
O5_12 C6_12 1_555 1_555
C6_12 C7_12 1_555 1_555
C7_12 C3_14 1_555 1_555
C8_12 C5_14 1_555 1_555
Al4 O4_12 1_555 1_555
Al3_5 O3_6 1_555 1_555
Al2_7 O5_12 1_555 1_555
C7_12 C8_12 1_555 1_555
C3_14 H1_14 1_555 1_555
C4_12 H2_12 1_555 1_555
C8_12 H3_12 1_555 1_555
O6_5 Al3_5 1_555 1_555
O3_7 C1_13 1_555 1_555
C1_13 O7_7 1_555 1_555
C2_13 C1_13 1_555 1_555
C3_15 C2_13 1_555 1_555
C4_13 C2_13 1_555 1_555
C5_15 C4_13 1_555 1_555
Br1_11 C5_15 1_555 1_555
O4_13 C6_13 1_555 1_555
O5_13 C6_13 1_555 1_555
C6_13 C7_13 1_555 1_555
C7_13 C3_15 1_555 1_555
C8_13 C5_15 1_555 1_555
Al4_4 O4_13 1_555 1_555
Al3_5 O3_7 1_555 1_555
Al2_8 O5_13 1_555 1_555
C7_13 C8_13 1_555 1_555
C3_15 H1_15 1_555 1_555
C4_13 H2_13 1_555 1_555
C8_13 H3_13 1_555 1_555
O8_4 C1_14 1_555 1_555
C1_14 O7 1_555 1_555
C2_14 C1_14 1_555 1_555
C3_16 C2_14 1_555 1_555
C4_14 C2_14 1_555 1_555
C5_16 C4_14 1_555 1_555
Br1_12 C5_16 1_555 1_555
O4_14 C6_14 1_555 1_555
O5_14 C6_14 1_555 1_555
C6_14 C7_14 1_555 1_555
C7_14 C3_16 1_555 1_555
C8_14 C5_16 1_555 1_555
Al2_4 O4_14 1_555 1_555
Al4_4 O5_14 1_555 1_555
C7_14 C8_14 1_555 1_555
C3_16 H1_16 1_555 1_555
C4_14 H2_14 1_555 1_555
C8_14 H3_14 1_555 1_555
O4_15 C6_15 1_555 1_555
O5_15 C6_15 1_555 1_555
C6_15 C7_15 1_555 1_555
C7_15 C3_17 1_555 1_555
C8_15 C5_17 1_555 1_555
Al4_5 O4_15 1_555 1_555
Al4_2 O5_15 1_555 1_555
C7_15 C8_15 1_555 1_555
C3_17 H1_17 1_555 1_555
C8_15 H3_15 1_555 1_555
O2_8 Al3_5 1_555 1_555
O8_5 C1_15 1_555 1_555
C1_15 O2_8 1_555 1_555
C2_15 C1_15 1_555 1_555
C3_18 C2_15 1_555 1_555
C4_15 C2_15 1_555 1_555
C5_18 C4_15 1_555 1_555
O7_8 Al3_5 1_555 1_555
C3_18 H1_18 1_555 1_555
C4_15 H2_15 1_555 1_555
O4_16 C6_16 1_555 1_555
O5_16 C6_16 1_555 1_555
C6_16 C7_16 1_555 1_555
C7_16 C3_19 1_555 1_555
C8_16 C5_19 1_555 1_555
Al4_5 O4_16 1_555 1_555
Al4_3 O5_16 1_555 1_555
C7_16 C8_16 1_555 1_555
C3_19 H1_19 1_555 1_555
C8_16 H3_16 1_555 1_555
O8_6 C1_16 1_555 1_555
C1_16 O7_8 1_555 1_555
C2_16 C1_16 1_555 1_555
C3_20 C2_16 1_555 1_555
C4_16 C2_16 1_555 1_555
C5_20 C4_16 1_555 1_555
C3_20 H1_20 1_555 1_555
C4_16 H2_16 1_555 1_555
O6_6 Al2 1_555 1_555
Al2_4 O1_4 1_555 1_555
O1_4 Al4_4 1_555 1_555
O6_7 Al2_5 1_555 1_555
Al2_6 O1_5 1_555 1_555
O1_5 Al4_3 1_555 1_555
O6_7 Al4_2 1_555 1_555
Al2_7 O1_6 1_555 1_555
O1_6 Al4 1_555 1_555
O6_8 Al2_8 1_555 1_555
O6_8 Al4_4 1_555 1_555
O6_6 Al4 1_555 1_555
O6_9 Al4_3 1_555 1_555
O6_10 Al4_2 1_555 1_555
O6_9 Al4_5 1_555 1_555
O6_10 Al4_5 1_555 1_555

#END
