
###############################################################################
#
# This file contains modified crystal structure data generated from the
# MOF subset of the Cambridge Structural Database (CSD) v543 
# hosted by the Cambridge Crystallographic Data Centre (CCDC).
#
# This work is licensed under the Creative Commons
# Attribution-NonCommercial-ShareAlike 4.0 International License.
# To view a copy of this license, visit
# http://creativecommons.org/licenses/by-nc-sa/4.0/
# or send a letter to
# Creative Commons, PO Box 1866, Mountain View, CA 94042, USA.
#
# CIF created using the CSD Python API on 29 September 2022
# The structure has been converted into the P1 space group
# The structure has a 3D framework
# The original CSD entry PEYSIW is in the monoclinic crystal system
# The framework has been calculated to contain at least 10.0% void space
# The void calculation uses a probe of radius 1.32A, grid spacing 0.4
# The framework is charged, counterions have been retained in the structure
#
###############################################################################

data_PEYSIW
_chemical_formula_moiety         '(C104 H96 N30 Ni6)n'
_symmetry_cell_setting           triclinic
_symmetry_space_group_name_H-M   'P 1'
_symmetry_Int_Tables_number      1
_space_group_name_Hall           'P 1'
loop_
_symmetry_equiv_pos_site_id
_symmetry_equiv_pos_as_xyz
1 x,y,z
_cell_length_a                   18.56(11)
_cell_length_b                   19.70(22)
_cell_length_c                   8.63(5)
_cell_angle_alpha                90
_cell_angle_beta                 100.29(20)
_cell_angle_gamma                90
_cell_volume                     3104.65
loop_
_atom_site_label
_atom_site_type_symbol
_atom_site_fract_x
_atom_site_fract_y
_atom_site_fract_z
Ni2 Ni 0.0000 0.6771(2) 0.2500
Ni1 Ni 0.5000 0.1771(2) 0.2500
N1 N 0.5799(7) 0.2544(7) 0.280(2)
N2 N 0.9141(8) 0.6021(7) 0.221(2)
N3 N 0.4989(8) 0.1707(8) 0.012(2)
C1 C 0.582(1) 0.295(1) 0.162(2)
C2 C 0.637(1) 0.3481(10) 0.168(3)
C3 C 0.686(1) 0.355(1) 0.304(3)
C4 C 0.684(1) 0.312(1) 0.426(2)
C5 C 0.629(1) 0.2651(10) 0.412(2)
C6 C 0.744(2) 0.406(2) 0.312(3)
C7 C 0.853(1) 0.617(1) 0.274(3)
C8 C 0.795(1) 0.566(1) 0.259(3)
C9 C 0.807(2) 0.504(1) 0.190(3)
C10 C 0.870(2) 0.494(1) 0.135(4)
C11 C 0.922(1) 0.542(1) 0.148(2)
C12 C 0.740(2) 0.454(1) 0.184(3)
H1 H 0.5470 0.2926 0.0557
H2 H 0.6422 0.3772 0.0757
H3 H 0.7184 0.3201 0.5325
H4 H 0.6267 0.2326 0.4954
H5 H 0.7412 0.4370 0.4036
H6 H 0.7909 0.3867 0.3332
H7 H 0.8477 0.6623 0.3265
H8 H 0.7491 0.5783 0.2986
H9 H 0.8807 0.4532 0.0783
H10 H 0.9721 0.5308 0.1155
H11 H 0.6928 0.4727 0.1670
H12 H 0.7378 0.4197 0.0916
Ni2_2 Ni 1.0000 0.6771(2) 0.2500
N5 N 0.4201(7) 0.2544(7) 0.220(2)
N6 N 0.0859(8) 0.6021(7) 0.279(2)
N7 N 0.4141(8) 0.1021(7) 0.221(2)
N8 N 0.5859(8) 0.1021(7) 0.279(2)
N10 N 0.5011(8) 0.1707(8) 0.488(2)
C14 C 0.418(1) 0.295(1) 0.338(2)
C15 C 0.363(1) 0.3481(10) 0.332(3)
C16 C 0.314(1) 0.355(1) 0.196(3)
C17 C 0.316(1) 0.312(1) 0.074(2)
C18 C 0.371(1) 0.2651(10) 0.088(2)
C19 C 0.256(2) 0.406(2) 0.188(3)
C20 C 0.147(1) 0.617(1) 0.226(3)
C21 C 0.205(1) 0.566(1) 0.241(3)
C22 C 0.193(2) 0.504(1) 0.310(3)
C23 C 0.130(2) 0.494(1) 0.365(4)
C24 C 0.078(1) 0.542(1) 0.352(2)
C25 C 0.260(2) 0.454(1) 0.316(3)
H13 H 0.4530 0.2926 0.4443
H14 H 0.3578 0.3772 0.4243
H16 H 0.3733 0.2326 0.0046
H17 H 0.2588 0.4370 0.0964
H18 H 0.2091 0.3867 0.1668
H19 H 0.1523 0.6623 0.1735
H20 H 0.2509 0.5783 0.2014
H21 H 0.1193 0.4532 0.4217
H22 H 0.0279 0.5308 0.3845
H23 H 0.3072 0.4727 0.3330
H24 H 0.2622 0.4197 0.4084
N4 N 0.5000 0.124(2) 0.7500
C13 C 0.499(1) 0.1551(10) 0.891(3)
C26 C 0.501(1) 0.1551(10) 0.609(3)
H15 H 0.2816 0.3201 0.9675
C7_2 C 0.353(1) 0.117(1) 0.274(3)
C8_2 C 0.295(1) 0.066(1) 0.259(3)
C9_2 C 0.307(2) 0.004(1) 0.190(3)
C11_2 C 0.422(1) 0.042(1) 0.148(2)
H7_2 H 0.3477 0.1623 0.3265
H8_2 H 0.2491 0.0783 0.2986
H10_2 H 0.4721 0.0308 0.1155
N1_2 N 0.0799(7) 0.7544(7) 0.280(2)
C1_2 C 0.082(1) 0.795(1) 0.162(2)
C2_2 C 0.137(1) 0.8481(10) 0.168(3)
C3_2 C 0.186(1) 0.855(1) 0.304(3)
C4_2 C 0.184(1) 0.812(1) 0.426(2)
C5_2 C 0.129(1) 0.7651(10) 0.412(2)
C6_2 C 0.244(2) 0.906(2) 0.312(3)
C10_2 C 0.370(2) 0.994(1) 0.135(4)
C12_2 C 0.240(2) 0.954(1) 0.184(3)
H1_2 H 0.0470 0.7926 0.0557
H2_2 H 0.1422 0.8772 0.0757
H3_2 H 0.2184 0.8201 0.5325
H4_2 H 0.1267 0.7326 0.4954
H5_2 H 0.2412 0.9370 0.4036
H6_2 H 0.2909 0.8867 0.3332
H9_2 H 0.3807 0.9532 0.0783
H11_2 H 0.1928 0.9727 0.1670
H12_2 H 0.2378 0.9197 0.0916
N10_2 N 0.0011(8) 0.6707(8) 0.488(2)
N4_2 N -0.0000 0.624(2) 0.7500
C26_2 C 0.001(1) 0.6551(10) 0.609(3)
C20_2 C 0.647(1) 0.117(1) 0.226(3)
C21_2 C 0.705(1) 0.066(1) 0.241(3)
C22_2 C 0.693(2) 0.004(1) 0.310(3)
C24_2 C 0.578(1) 0.042(1) 0.352(2)
H19_2 H 0.6523 0.1623 0.1735
H20_2 H 0.7509 0.0783 0.2014
H22_2 H 0.5279 0.0308 0.3845
N3_2 N 0.9989(8) 0.6707(8) 0.012(2)
N5_2 N 0.9201(7) 0.7544(7) 0.220(2)
C14_2 C 0.918(1) 0.795(1) 0.338(2)
C15_2 C 0.863(1) 0.8481(10) 0.332(3)
C16_2 C 0.814(1) 0.855(1) 0.196(3)
C17_2 C 0.816(1) 0.812(1) 0.074(2)
C18_2 C 0.871(1) 0.7651(10) 0.088(2)
C19_2 C 0.756(2) 0.906(2) 0.188(3)
C23_2 C 0.630(2) 0.994(1) 0.365(4)
C25_2 C 0.760(2) 0.954(1) 0.316(3)
H13_2 H 0.9530 0.7926 0.4443
H14_2 H 0.8578 0.8772 0.4243
H16_2 H 0.8733 0.7326 0.0046
H17_2 H 0.7588 0.9370 0.0964
H18_2 H 0.7091 0.8867 0.1668
H21_2 H 0.6193 0.9532 0.4217
H23_2 H 0.8072 0.9727 0.3330
H24_2 H 0.7622 0.9197 0.4084
N4_3 N 1.0000 0.624(2) 0.7500
C13_2 C 0.999(1) 0.6551(10) 0.891(3)
H15_2 H 0.7816 0.8201 0.9675
Ni4 Ni 0.0000 0.3229(2) 0.7500
N4_4 N 0.5000 0.876(2) 0.2500
C13_3 C 0.501(1) 0.8449(10) 0.109(3)
Ni3 Ni 0.5000 0.8229(2) 0.7500
N9 N 0.4989(8) 0.8293(8) 0.512(2)
C26_3 C 0.499(1) 0.8449(10) 0.391(3)
H15_3 H 0.7184 0.6799 0.0325
N1_3 N 0.4201(7) 0.7456(7) 0.720(2)
N2_2 N 0.0859(8) 0.3979(7) 0.779(2)
N3_3 N 0.5011(8) 0.8293(8) 0.988(2)
C1_3 C 0.418(1) 0.705(1) 0.838(2)
C2_3 C 0.363(1) 0.6519(10) 0.832(3)
C3_3 C 0.314(1) 0.645(1) 0.696(3)
C4_3 C 0.316(1) 0.688(1) 0.574(2)
C5_3 C 0.371(1) 0.7349(10) 0.588(2)
C6_3 C 0.256(2) 0.594(2) 0.688(3)
C7_3 C 0.147(1) 0.383(1) 0.726(3)
C8_3 C 0.205(1) 0.434(1) 0.741(3)
C9_3 C 0.193(2) 0.496(1) 0.810(3)
C10_3 C 0.130(2) 0.506(1) 0.865(4)
C11_3 C 0.078(1) 0.458(1) 0.852(2)
C12_3 C 0.260(2) 0.546(1) 0.816(3)
H1_3 H 0.4530 0.7074 0.9443
H2_3 H 0.3578 0.6228 0.9243
H3_3 H 0.2816 0.6799 0.4675
H4_3 H 0.3733 0.7674 0.5046
H5_3 H 0.2588 0.5630 0.5964
H6_3 H 0.2091 0.6133 0.6668
H7_3 H 0.1523 0.3377 0.6735
H8_3 H 0.2509 0.4217 0.7014
H9_3 H 0.1193 0.5468 0.9217
H10_3 H 0.0279 0.4692 0.8845
H11_3 H 0.3072 0.5273 0.8330
H12_3 H 0.2622 0.5803 0.9084
Ni4_2 Ni 1.0000 0.3229(2) 0.7500
N5_3 N 0.5799(7) 0.7456(7) 0.780(2)
N6_2 N 0.9141(8) 0.3979(7) 0.721(2)
N7_2 N 0.5859(8) 0.8979(7) 0.779(2)
N8_2 N 0.4141(8) 0.8979(7) 0.721(2)
C14_3 C 0.582(1) 0.705(1) 0.662(2)
C15_3 C 0.637(1) 0.6519(10) 0.668(3)
C16_3 C 0.686(1) 0.645(1) 0.804(3)
C17_3 C 0.684(1) 0.688(1) 0.926(2)
C18_3 C 0.629(1) 0.7349(10) 0.912(2)
C19_3 C 0.744(2) 0.594(2) 0.812(3)
C20_3 C 0.853(1) 0.383(1) 0.774(3)
C21_3 C 0.795(1) 0.434(1) 0.759(3)
C22_3 C 0.807(2) 0.496(1) 0.690(3)
C23_3 C 0.870(2) 0.506(1) 0.635(4)
C24_3 C 0.922(1) 0.458(1) 0.648(2)
C25_3 C 0.740(2) 0.546(1) 0.684(3)
H13_3 H 0.5470 0.7074 0.5557
H14_3 H 0.6422 0.6228 0.5757
H16_3 H 0.6267 0.7674 0.9954
H17_3 H 0.7412 0.5630 0.9036
H18_3 H 0.7909 0.6133 0.8332
H19_3 H 0.8477 0.3377 0.8265
H20_3 H 0.7491 0.4217 0.7986
H21_3 H 0.8807 0.5468 0.5783
H22_3 H 0.9721 0.4692 0.6155
H23_3 H 0.6928 0.5273 0.6670
H24_3 H 0.7378 0.5803 0.5916
N4_5 N 0.0000 0.376(2) 0.2500
C13_4 C 0.001(1) 0.3449(10) 0.109(3)
H15_4 H 0.2184 0.1799 0.0325
N3_4 N 0.0011(8) 0.3293(8) 0.988(2)
N5_4 N 0.0799(7) 0.2456(7) 0.780(2)
C14_4 C 0.082(1) 0.205(1) 0.662(2)
C15_4 C 0.137(1) 0.1519(10) 0.668(3)
C16_4 C 0.186(1) 0.145(1) 0.804(3)
C17_4 C 0.184(1) 0.188(1) 0.926(2)
C18_4 C 0.129(1) 0.2349(10) 0.912(2)
C19_4 C 0.244(2) 0.094(2) 0.812(3)
C23_4 C 0.370(2) 0.006(1) 0.635(4)
C25_4 C 0.240(2) 0.046(1) 0.684(3)
H13_4 H 0.0470 0.2074 0.5557
H14_4 H 0.1422 0.1228 0.5757
H16_4 H 0.1267 0.2674 0.9954
H17_4 H 0.2412 0.0630 0.9036
H18_4 H 0.2909 0.1133 0.8332
H21_4 H 0.3807 0.0468 0.5783
H23_4 H 0.1928 0.0273 0.6670
H24_4 H 0.2378 0.0803 0.5916
C20_4 C 0.353(1) 0.883(1) 0.774(3)
C21_4 C 0.295(1) 0.934(1) 0.759(3)
C22_4 C 0.307(2) 0.996(1) 0.690(3)
C24_4 C 0.422(1) 0.958(1) 0.648(2)
H19_4 H 0.3477 0.8377 0.8265
H20_4 H 0.2491 0.9217 0.7986
H22_4 H 0.4721 0.9692 0.6155
N4_6 N 1.0000 0.376(2) 0.2500
N9_2 N 0.9989(8) 0.3293(8) 0.512(2)
C26_4 C 0.999(1) 0.3449(10) 0.391(3)
N1_4 N 0.9201(7) 0.2456(7) 0.720(2)
C1_4 C 0.918(1) 0.205(1) 0.838(2)
C2_4 C 0.863(1) 0.1519(10) 0.832(3)
C3_4 C 0.814(1) 0.145(1) 0.696(3)
C4_4 C 0.816(1) 0.188(1) 0.574(2)
C5_4 C 0.871(1) 0.2349(10) 0.588(2)
C6_4 C 0.756(2) 0.094(2) 0.688(3)
C10_4 C 0.630(2) 0.006(1) 0.865(4)
C12_4 C 0.760(2) 0.046(1) 0.816(3)
H1_4 H 0.9530 0.2074 0.9443
H2_4 H 0.8578 0.1228 0.9243
H3_4 H 0.7816 0.1799 0.4675
H4_4 H 0.8733 0.2674 0.5046
H5_4 H 0.7588 0.0630 0.5964
H6_4 H 0.7091 0.1133 0.6668
H9_4 H 0.6193 0.0468 0.9217
H11_4 H 0.8072 0.0273 0.8330
H12_4 H 0.7622 0.0803 0.9084
C7_4 C 0.647(1) 0.883(1) 0.726(3)
C8_4 C 0.705(1) 0.934(1) 0.741(3)
C9_4 C 0.693(2) 0.996(1) 0.810(3)
C11_4 C 0.578(1) 0.958(1) 0.852(2)
H7_4 H 0.6523 0.8377 0.6735
H8_4 H 0.7509 0.9217 0.7014
H10_4 H 0.5279 0.9692 0.8845
loop_
_geom_bond_atom_site_label_1
_geom_bond_atom_site_label_2
_geom_bond_site_symmetry_1
_geom_bond_site_symmetry_2
Ni1 N1 1_555 1_555
N1 C1 1_555 1_555
N2 C7 1_555 1_555
N3 Ni1 1_555 1_555
C1 C2 1_555 1_555
C2 C3 1_555 1_555
C3 C4 1_555 1_555
C4 C5 1_555 1_555
C5 N1 1_555 1_555
C6 C3 1_555 1_555
C7 C8 1_555 1_555
C8 C9 1_555 1_555
C9 C10 1_555 1_555
C10 C11 1_555 1_555
C11 N2 1_555 1_555
C12 C6 1_555 1_555
H1 C1 1_555 1_555
H2 C2 1_555 1_555
H3 C4 1_555 1_555
H4 C5 1_555 1_555
H5 C6 1_555 1_555
H6 C6 1_555 1_555
H7 C7 1_555 1_555
H8 C8 1_555 1_555
H9 C10 1_555 1_555
H10 C11 1_555 1_555
H11 C12 1_555 1_555
H12 C12 1_555 1_555
Ni2_2 N2 1_555 1_555
Ni2 N6 1_555 1_555
N5 Ni1 1_555 1_555
N6 C20 1_555 1_555
N7 Ni1 1_555 1_555
N8 Ni1 1_555 1_555
N10 Ni1 1_555 1_555
C14 N5 1_555 1_555
C15 C14 1_555 1_555
C16 C15 1_555 1_555
C17 C16 1_555 1_555
C18 N5 1_555 1_555
C19 C16 1_555 1_555
C20 C21 1_555 1_555
C21 C22 1_555 1_555
C22 C23 1_555 1_555
C23 C24 1_555 1_555
C24 N6 1_555 1_555
C25 C19 1_555 1_555
H13 C14 1_555 1_555
H14 C15 1_555 1_555
H16 C18 1_555 1_555
H17 C19 1_555 1_555
H18 C19 1_555 1_555
H19 C20 1_555 1_555
H20 C21 1_555 1_555
H21 C23 1_555 1_555
H22 C24 1_555 1_555
H23 C25 1_555 1_555
H24 C25 1_555 1_555
C9 C12 1_555 1_555
C17 C18 1_555 1_555
C22 C25 1_555 1_555
N4 C13 1_555 1_555
N10 C26 1_555 1_555
C26 N4 1_555 1_555
N7 C7_2 1_555 1_555
C7_2 C8_2 1_555 1_555
C8_2 C9_2 1_555 1_555
C11_2 N7 1_555 1_555
H7_2 C7_2 1_555 1_555
H8_2 C8_2 1_555 1_555
H10_2 C11_2 1_555 1_555
Ni2 N1_2 1_555 1_555
N1_2 C1_2 1_555 1_555
C1_2 C2_2 1_555 1_555
C2_2 C3_2 1_555 1_555
C3_2 C4_2 1_555 1_555
C4_2 C5_2 1_555 1_555
C5_2 N1_2 1_555 1_555
C6_2 C3_2 1_555 1_555
C12_2 C6_2 1_555 1_555
H1_2 C1_2 1_555 1_555
H2_2 C2_2 1_555 1_555
H3_2 C4_2 1_555 1_555
H4_2 C5_2 1_555 1_555
H5_2 C6_2 1_555 1_555
H6_2 C6_2 1_555 1_555
H9_2 C10_2 1_555 1_555
H11_2 C12_2 1_555 1_555
H12_2 C12_2 1_555 1_555
N10_2 Ni2 1_555 1_555
N10_2 C26_2 1_555 1_555
C26_2 N4_2 1_555 1_555
N8 C20_2 1_555 1_555
C20_2 C21_2 1_555 1_555
C21_2 C22_2 1_555 1_555
C24_2 N8 1_555 1_555
H19_2 C20_2 1_555 1_555
H20_2 C21_2 1_555 1_555
H22_2 C24_2 1_555 1_555
N3_2 Ni2_2 1_555 1_555
N5_2 Ni2_2 1_555 1_555
C14_2 N5_2 1_555 1_555
C15_2 C14_2 1_555 1_555
C16_2 C15_2 1_555 1_555
C17_2 C16_2 1_555 1_555
C18_2 N5_2 1_555 1_555
C19_2 C16_2 1_555 1_555
C25_2 C19_2 1_555 1_555
H13_2 C14_2 1_555 1_555
H14_2 C15_2 1_555 1_555
H16_2 C18_2 1_555 1_555
H17_2 C19_2 1_555 1_555
H18_2 C19_2 1_555 1_555
H21_2 C23_2 1_555 1_555
H23_2 C25_2 1_555 1_555
H24_2 C25_2 1_555 1_555
C17_2 C18_2 1_555 1_555
N4_3 C13_2 1_555 1_555
N4_4 C13_3 1_555 1_555
Ni3 N9 1_555 1_555
N9 C26_3 1_555 1_555
C26_3 N4_4 1_555 1_555
Ni3 N1_3 1_555 1_555
N1_3 C1_3 1_555 1_555
N2_2 C7_3 1_555 1_555
N3_3 Ni3 1_555 1_555
C1_3 C2_3 1_555 1_555
C2_3 C3_3 1_555 1_555
C3_3 C4_3 1_555 1_555
C4_3 C5_3 1_555 1_555
C5_3 N1_3 1_555 1_555
C6_3 C3_3 1_555 1_555
C7_3 C8_3 1_555 1_555
C8_3 C9_3 1_555 1_555
C9_3 C10_3 1_555 1_555
C10_3 C11_3 1_555 1_555
C11_3 N2_2 1_555 1_555
C12_3 C6_3 1_555 1_555
H1_3 C1_3 1_555 1_555
H2_3 C2_3 1_555 1_555
H3_3 C4_3 1_555 1_555
H4_3 C5_3 1_555 1_555
H5_3 C6_3 1_555 1_555
H6_3 C6_3 1_555 1_555
H7_3 C7_3 1_555 1_555
H8_3 C8_3 1_555 1_555
H9_3 C10_3 1_555 1_555
H10_3 C11_3 1_555 1_555
H11_3 C12_3 1_555 1_555
H12_3 C12_3 1_555 1_555
Ni4 N2_2 1_555 1_555
Ni4_2 N6_2 1_555 1_555
N5_3 Ni3 1_555 1_555
N6_2 C20_3 1_555 1_555
N7_2 Ni3 1_555 1_555
N8_2 Ni3 1_555 1_555
C14_3 N5_3 1_555 1_555
C15_3 C14_3 1_555 1_555
C16_3 C15_3 1_555 1_555
C17_3 C16_3 1_555 1_555
C18_3 N5_3 1_555 1_555
C19_3 C16_3 1_555 1_555
C20_3 C21_3 1_555 1_555
C21_3 C22_3 1_555 1_555
C22_3 C23_3 1_555 1_555
C23_3 C24_3 1_555 1_555
C24_3 N6_2 1_555 1_555
C25_3 C19_3 1_555 1_555
H13_3 C14_3 1_555 1_555
H14_3 C15_3 1_555 1_555
H16_3 C18_3 1_555 1_555
H17_3 C19_3 1_555 1_555
H18_3 C19_3 1_555 1_555
H19_3 C20_3 1_555 1_555
H20_3 C21_3 1_555 1_555
H21_3 C23_3 1_555 1_555
H22_3 C24_3 1_555 1_555
H23_3 C25_3 1_555 1_555
H24_3 C25_3 1_555 1_555
C9_3 C12_3 1_555 1_555
C17_3 C18_3 1_555 1_555
C22_3 C25_3 1_555 1_555
N4_5 C13_4 1_555 1_555
N3_4 Ni4 1_555 1_555
N5_4 Ni4 1_555 1_555
C14_4 N5_4 1_555 1_555
C15_4 C14_4 1_555 1_555
C16_4 C15_4 1_555 1_555
C17_4 C16_4 1_555 1_555
C18_4 N5_4 1_555 1_555
C19_4 C16_4 1_555 1_555
C25_4 C19_4 1_555 1_555
H13_4 C14_4 1_555 1_555
H14_4 C15_4 1_555 1_555
H16_4 C18_4 1_555 1_555
H17_4 C19_4 1_555 1_555
H18_4 C19_4 1_555 1_555
H21_4 C23_4 1_555 1_555
H23_4 C25_4 1_555 1_555
H24_4 C25_4 1_555 1_555
C17_4 C18_4 1_555 1_555
N8_2 C20_4 1_555 1_555
C20_4 C21_4 1_555 1_555
C21_4 C22_4 1_555 1_555
C24_4 N8_2 1_555 1_555
H19_4 C20_4 1_555 1_555
H20_4 C21_4 1_555 1_555
H22_4 C24_4 1_555 1_555
Ni4_2 N9_2 1_555 1_555
N9_2 C26_4 1_555 1_555
C26_4 N4_6 1_555 1_555
Ni4_2 N1_4 1_555 1_555
N1_4 C1_4 1_555 1_555
C1_4 C2_4 1_555 1_555
C2_4 C3_4 1_555 1_555
C3_4 C4_4 1_555 1_555
C4_4 C5_4 1_555 1_555
C5_4 N1_4 1_555 1_555
C6_4 C3_4 1_555 1_555
C12_4 C6_4 1_555 1_555
H1_4 C1_4 1_555 1_555
H2_4 C2_4 1_555 1_555
H3_4 C4_4 1_555 1_555
H4_4 C5_4 1_555 1_555
H5_4 C6_4 1_555 1_555
H6_4 C6_4 1_555 1_555
H9_4 C10_4 1_555 1_555
H11_4 C12_4 1_555 1_555
H12_4 C12_4 1_555 1_555
N7_2 C7_4 1_555 1_555
C7_4 C8_4 1_555 1_555
C8_4 C9_4 1_555 1_555
C11_4 N7_2 1_555 1_555
H7_4 C7_4 1_555 1_555
H8_4 C8_4 1_555 1_555
H10_4 C11_4 1_555 1_555

#END
