
###############################################################################
#
# This file contains modified crystal structure data generated from the
# MOF subset of the Cambridge Structural Database (CSD) v543 
# hosted by the Cambridge Crystallographic Data Centre (CCDC).
#
# This work is licensed under the Creative Commons
# Attribution-NonCommercial-ShareAlike 4.0 International License.
# To view a copy of this license, visit
# http://creativecommons.org/licenses/by-nc-sa/4.0/
# or send a letter to
# Creative Commons, PO Box 1866, Mountain View, CA 94042, USA.
#
# CIF created using the CSD Python API on 29 September 2022
# The structure has been converted into the P1 space group
# The structure has a 3D framework
# The original CSD entry PEYVOG is in the monoclinic crystal system
# The original CSD entry PEYVOG is in a Sohncke space group
# The framework has been calculated to contain at least 10.0% void space
# The void calculation uses a probe of radius 1.32A, grid spacing 0.4
# The framework is charged, counterions have been retained in the structure
#
###############################################################################

data_PEYVOG
_chemical_formula_moiety         '(C220 H120 Ag12 B12 F48 N24 O28)n'
_symmetry_cell_setting           triclinic
_symmetry_space_group_name_H-M   'P 1'
_symmetry_Int_Tables_number      1
_space_group_name_Hall           'P 1'
loop_
_symmetry_equiv_pos_site_id
_symmetry_equiv_pos_as_xyz
1 x,y,z
_cell_length_a                   18.1872(16)
_cell_length_b                   10.5623(9)
_cell_length_c                   34.928(4)
_cell_angle_alpha                90
_cell_angle_beta                 102.274(3)
_cell_angle_gamma                90
_cell_volume                     6556.25
loop_
_atom_site_label
_atom_site_type_symbol
_atom_site_fract_x
_atom_site_fract_y
_atom_site_fract_z
Ag5 Ag 0.10963(5) 0.01532(12) 0.25012(2)
O10 O 0.0213(5) 0.1691(8) 0.2774(2)
H20 H 0.0120 0.0059 0.6098
Ag6 Ag 0.08305(6) 0.01371(12) 0.75693(3)
O3 O 0.2818(4) 0.6464(7) 0.90121(17)
C1 C 0.2415(6) 0.6431(9) 1.0000(2)
C3 C 0.3510(5) 0.7586(8) 0.9997(2)
C4 C 0.3460(5) 0.7344(8) 0.9610(2)
H2 H 0.3819 0.7657 0.9481
C5 C 0.2866(5) 0.6629(8) 0.9413(2)
C6 C 0.2336(5) 0.6150(9) 0.9602(3)
H3 H 0.1938 0.5657 0.9469
N3 N 0.1137(6) 0.1428(10) 0.8061(3)
C21 C 0.2423(6) 0.5426(9) 0.8840(2)
C22 C 0.1741(6) 0.5547(10) 0.8590(3)
H12 H 0.1517 0.6341 0.8549
C23 C 0.1381(6) 0.4520(12) 0.8400(3)
H13 H 0.0913 0.4615 0.8232
C24 C 0.1704(6) 0.3373(9) 0.8454(2)
C25 C 0.2400(6) 0.3234(10) 0.8713(3)
H14 H 0.2624 0.2441 0.8755
C26 C 0.2749(7) 0.4273(11) 0.8905(3)
H15 H 0.3210 0.4186 0.9079
C27 C 0.1381(6) 0.2298(12) 0.8244(3)
O1 O 0.3161(4) 0.1009(7) 0.98282(18)
O2 O 0.0875(4) 0.3319(6) 0.98082(18)
C1_2 C 0.2585(6) 0.1431(9) 1.0000(2)
C2 C 0.2007(5) 0.2196(9) 0.9805(2)
H1 H 0.1977 0.2433 0.9546
C7 C 0.2959(6) 0.0532(8) 0.9450(2)
C8 C 0.3499(5) 0.0681(9) 0.9226(3)
H4 H 0.3947 0.1101 0.9328
C9 C 0.3368(5) 0.0212(11) 0.8857(3)
H5 H 0.3720 0.0331 0.8702
C14 C 0.0513(5) 0.2924(9) 0.9447(2)
C15 C 0.0308(5) 0.3793(10) 0.9157(3)
H8 H 0.0426 0.4643 0.9206
C19 C 0.0350(5) 0.1632(10) 0.9369(3)
H11 H 0.0518 0.1023 0.9560
N2 N 0.0921(6) 0.1411(11) 0.1972(3)
C16 C 0.0072(6) 0.3423(11) 0.1208(3)
H9 H 0.0208 0.4021 0.1406
C17 C 0.0256(6) 0.2156(13) 0.1283(3)
C18 C 0.0051(5) 0.1292(9) 0.0986(3)
H10 H 0.0193 0.0450 0.1030
C20 C 0.0622(6) 0.1731(11) 0.1662(3)
O7 O 0.0017(5) 0.8522(7) 0.2216(2)
Ag1 Ag 0.39037(5) 0.51532(12) 0.74988(2)
Ag3 Ag 0.77203(10) 0.29538(13) 0.74915(4)
O1_2 O 0.8161(4) 0.6009(7) 0.98282(18)
O2_2 O 0.5875(4) 0.8319(6) 0.98082(18)
C1_3 C 0.7585(6) 0.6431(9) 1.0000(2)
C2_2 C 0.7007(5) 0.7196(9) 0.9805(2)
H1_2 H 0.6977 0.7433 0.9546
N1 N 0.7489(6) 0.3644(11) 0.8015(3)
C7_2 C 0.7959(6) 0.5532(8) 0.9450(2)
C8_2 C 0.8499(5) 0.5681(9) 0.9226(3)
H4_2 H 0.8947 0.6101 0.9328
C9_2 C 0.8368(5) 0.5212(11) 0.8857(3)
H5_2 H 0.8720 0.5331 0.8702
C10 C 0.7716(6) 0.4564(9) 0.8710(3)
C11 C 0.7159(5) 0.4402(9) 0.8946(3)
H6 H 0.6713 0.3971 0.8849
C12 C 0.7301(5) 0.4887(9) 0.9306(2)
H7 H 0.6951 0.4787 0.9463
C13 C 0.7555(6) 0.4034(11) 0.8323(3)
N2_2 N 0.4079(6) 0.6411(11) 0.8028(3)
C14_2 C 0.5513(5) 0.7924(9) 0.9447(2)
C15_2 C 0.5308(5) 0.8793(10) 0.9157(3)
H8_2 H 0.5426 0.9643 0.9206
C16_2 C 0.4928(6) 0.8423(11) 0.8792(3)
H9_2 H 0.4792 0.9021 0.8594
C17_2 C 0.4744(6) 0.7156(13) 0.8717(3)
C18_2 C 0.4949(5) 0.6292(9) 0.9014(3)
H10_2 H 0.4807 0.5450 0.8970
C19_2 C 0.5350(5) 0.6632(10) 0.9369(3)
H11_2 H 0.5518 0.6023 0.9560
C20_2 C 0.4378(6) 0.6731(11) 0.8338(3)
N5 N 0.6330(7) 0.4020(12) 0.3047(3)
C41 C 0.7604(6) 0.0103(13) 0.3852(2)
C42 C 0.7979(8) 0.1214(15) 0.3889(4)
H23 H 0.8457 0.1276 0.4049
C43 C 0.7641(8) 0.2254(12) 0.3687(4)
H24 H 0.7888 0.3030 0.3708
C44 C 0.6926(6) 0.2126(11) 0.3452(3)
C45 C 0.6571(7) 0.0958(12) 0.3421(3)
H25 H 0.6092 0.0870 0.3264
C47 C 0.6569(7) 0.3178(12) 0.3224(3)
N6 N 0.7589(6) 0.2107(10) 0.6927(3)
C48 C 0.7044(5) 0.0046(11) 0.5521(2)
C49 C 0.7713(6) 0.0650(9) 0.5655(3)
H27 H 0.8062 0.0714 0.5496
C50 C 0.7871(6) 0.1175(9) 0.6033(3)
H28 H 0.8331 0.1560 0.6133
C51 C 0.7323(6) 0.1101(9) 0.6250(3)
C52 C 0.6666(6) 0.0475(9) 0.6115(3)
H29 H 0.6317 0.0401 0.6274
C54 C 0.7502(6) 0.1628(11) 0.6631(3)
O8 O 0.4787(5) 0.6691(8) 0.7226(2)
Ag4 Ag 0.60963(5) 0.51532(12) 0.25012(2)
Ag7 Ag 0.58305(6) 0.51371(12) 0.75693(3)
N8 N 0.3670(7) 0.4020(12) 0.6953(3)
O9 O 0.4983(5) 0.3522(7) 0.7784(2)
Ag3_2 Ag 0.22797(10) 0.29538(13) 0.25085(4)
O1_3 O 0.1839(4) 0.6009(7) 0.01718(18)
O2_3 O 0.4125(4) 0.8319(6) 0.01918(18)
C1_4 C 0.2415(6) 0.6431(9) 0.0000(2)
C2_3 C 0.2993(5) 0.7196(9) 0.0195(2)
H1_3 H 0.3023 0.7433 0.0454
N1_2 N 0.2511(6) 0.3644(11) 0.1985(3)
C7_3 C 0.2041(6) 0.5532(8) 0.0550(2)
C8_3 C 0.1501(5) 0.5681(9) 0.0774(3)
H4_3 H 0.1053 0.6101 0.0672
C9_3 C 0.1632(5) 0.5212(11) 0.1143(3)
H5_3 H 0.1280 0.5331 0.1298
C10_2 C 0.2284(6) 0.4564(9) 0.1290(3)
C11_2 C 0.2841(5) 0.4402(9) 0.1054(3)
H6_2 H 0.3287 0.3971 0.1151
C12_2 C 0.2699(5) 0.4887(9) 0.0694(2)
H7_2 H 0.3049 0.4787 0.0537
C13_2 C 0.2445(6) 0.4034(11) 0.1677(3)
N2_3 N 0.5921(6) 0.6411(11) 0.1972(3)
C14_3 C 0.4487(5) 0.7924(9) 0.0553(2)
C15_3 C 0.4692(5) 0.8793(10) 0.0843(3)
H8_3 H 0.4574 0.9643 0.0794
C16_3 C 0.5072(6) 0.8423(11) 0.1208(3)
H9_3 H 0.5208 0.9021 0.1406
C17_3 C 0.5256(6) 0.7156(13) 0.1283(3)
C18_3 C 0.5051(5) 0.6292(9) 0.0986(3)
H10_3 H 0.5193 0.5450 0.1030
C19_3 C 0.4650(5) 0.6632(10) 0.0631(3)
H11_3 H 0.4482 0.6023 0.0440
C20_3 C 0.5622(6) 0.6731(11) 0.1662(3)
C41_2 C 0.2396(6) 0.0103(13) 0.6148(2)
C42_2 C 0.2021(8) 0.1214(15) 0.6111(4)
H23_2 H 0.1543 0.1276 0.5951
C43_2 C 0.2359(8) 0.2254(12) 0.6313(4)
H24_2 H 0.2112 0.3030 0.6292
C44_2 C 0.3074(6) 0.2126(11) 0.6548(3)
C45_2 C 0.3429(7) 0.0958(12) 0.6579(3)
H25_2 H 0.3908 0.0870 0.6736
C47_2 C 0.3431(7) 0.3178(12) 0.6776(3)
N6_2 N 0.2411(6) 0.2107(10) 0.3073(3)
C48_2 C 0.2956(5) 0.0046(11) 0.4479(2)
C49_2 C 0.2287(6) 0.0650(9) 0.4345(3)
H27_2 H 0.1938 0.0714 0.4504
C50_2 C 0.2129(6) 0.1175(9) 0.3967(3)
H28_2 H 0.1669 0.1560 0.3867
C51_2 C 0.2677(6) 0.1101(9) 0.3750(3)
C52_2 C 0.3334(6) 0.0475(9) 0.3885(3)
H29_2 H 0.3683 0.0401 0.3726
C54_2 C 0.2498(6) 0.1628(11) 0.3369(3)
O8_2 O 0.5213(5) 0.6691(8) 0.2774(2)
Ag7_2 Ag 0.41695(6) 0.51371(12) 0.24307(3)
O9_2 O 0.5017(5) 0.3522(7) 0.2216(2)
O7_2 O 0.9983(5) 0.8522(7) 0.7784(2)
N3_2 N 0.3863(6) 0.6428(10) 0.1939(3)
C23_2 C 0.3619(6) 0.9520(12) 0.1600(3)
H13_2 H 0.4087 0.9615 0.1768
C24_2 C 0.3296(6) 0.8373(9) 0.1546(2)
C25_2 C 0.2600(6) 0.8234(10) 0.1287(3)
H14_2 H 0.2376 0.7441 0.1245
C26_2 C 0.2251(7) 0.9273(11) 0.1095(3)
H15_2 H 0.1790 0.9186 0.0921
C27_2 C 0.3619(6) 0.7298(12) 0.1756(3)
N7 N 0.4157(6) 0.4078(11) 0.2974(3)
Ag3_3 Ag 0.27203(10) 0.79538(13) 0.74915(4)
N1_3 N 0.2489(6) 0.8644(11) 0.8015(3)
C10_3 C 0.2716(6) 0.9564(9) 0.8710(3)
C11_3 C 0.2159(5) 0.9402(9) 0.8946(3)
H6_3 H 0.1713 0.8971 0.8849
C12_3 C 0.2301(5) 0.9887(9) 0.9306(2)
H7_3 H 0.1951 0.9787 0.9463
C13_3 C 0.2555(6) 0.9034(11) 0.8323(3)
O4 O 0.4142(4) 0.2107(6) 0.52402(19)
O5 O 0.2998(5) 0.4037(8) 0.40479(19)
O6 O 0.1854(4) 0.4528(7) 0.51486(17)
C28 C 0.3562(6) 0.2875(9) 0.5030(2)
C29 C 0.3575(6) 0.3121(9) 0.4648(3)
H16 H 0.3962 0.2822 0.4535
C30 C 0.2980(6) 0.3845(9) 0.4430(3)
C31 C 0.2419(6) 0.4315(9) 0.4595(2)
H17 H 0.2032 0.4799 0.4448
C32 C 0.2439(5) 0.4059(9) 0.4980(3)
C33 C 0.2997(6) 0.3304(9) 0.5205(2)
H18 H 0.2988 0.3098 0.5463
N4 N 0.5843(6) 0.4078(11) 0.7026(3)
C34 C 0.4480(5) 0.2569(9) 0.5600(3)
C35 C 0.4644(6) 0.3796(10) 0.5675(3)
H19 H 0.4512 0.4386 0.5475
C36 C 0.5010(7) 0.4207(11) 0.6048(3)
H20_2 H 0.5120 0.5059 0.6098
C37 C 0.5202(6) 0.3299(10) 0.6338(3)
C38 C 0.5025(7) 0.2065(10) 0.6262(3)
H21 H 0.5126 0.1474 0.6464
C39 C 0.4695(6) 0.1681(9) 0.5888(3)
H22 H 0.4620 0.0825 0.5831
C40 C 0.5584(7) 0.3757(12) 0.6728(3)
N5_2 N 0.1330(7) 0.9020(12) 0.3047(3)
C41_3 C 0.2604(6) 0.5103(13) 0.3852(2)
C42_3 C 0.2979(8) 0.6214(15) 0.3889(4)
H23_3 H 0.3457 0.6276 0.4049
C43_3 C 0.2641(8) 0.7254(12) 0.3687(4)
H24_3 H 0.2888 0.8030 0.3708
C44_3 C 0.1926(6) 0.7126(11) 0.3452(3)
C45_3 C 0.1571(7) 0.5958(12) 0.3421(3)
H25_3 H 0.1092 0.5870 0.3264
C46 C 0.1918(6) 0.4947(11) 0.3618(3)
H26 H 0.1687 0.4156 0.3592
C47_3 C 0.1569(7) 0.8178(12) 0.3224(3)
N6_3 N 0.2589(6) 0.7107(10) 0.6927(3)
C48_3 C 0.2044(5) 0.5046(11) 0.5521(2)
C49_3 C 0.2713(6) 0.5650(9) 0.5655(3)
H27_3 H 0.3062 0.5714 0.5496
C50_3 C 0.2871(6) 0.6175(9) 0.6033(3)
H28_3 H 0.3331 0.6560 0.6133
C51_3 C 0.2323(6) 0.6101(9) 0.6250(3)
C52_3 C 0.1666(6) 0.5475(9) 0.6115(3)
H29_3 H 0.1317 0.5401 0.6274
C53 C 0.1515(5) 0.4950(10) 0.5746(2)
H30 H 0.1061 0.4538 0.5650
C54_3 C 0.2502(6) 0.6628(11) 0.6631(3)
N8_2 N 0.8670(7) 0.9020(12) 0.6953(3)
Ag3_4 Ag 0.72797(10) 0.79538(13) 0.25085(4)
N1_4 N 0.7511(6) 0.8644(11) 0.1985(3)
C10_4 C 0.7284(6) 0.9564(9) 0.1290(3)
C11_4 C 0.7841(5) 0.9402(9) 0.1054(3)
H6_4 H 0.8287 0.8971 0.1151
C12_4 C 0.7699(5) 0.9887(9) 0.0694(2)
H7_4 H 0.8049 0.9787 0.0537
C13_4 C 0.7445(6) 0.9034(11) 0.1677(3)
O4_2 O 0.5858(4) 0.2107(6) 0.47598(19)
O5_2 O 0.7002(5) 0.4037(8) 0.59521(19)
O6_2 O 0.8146(4) 0.4528(7) 0.48514(17)
C28_2 C 0.6438(6) 0.2875(9) 0.4970(2)
C29_2 C 0.6425(6) 0.3121(9) 0.5352(3)
H16_2 H 0.6038 0.2822 0.5465
C30_2 C 0.7020(6) 0.3845(9) 0.5570(3)
C31_2 C 0.7581(6) 0.4315(9) 0.5405(2)
H17_2 H 0.7968 0.4799 0.5552
C32_2 C 0.7561(5) 0.4059(9) 0.5020(3)
C33_2 C 0.7003(6) 0.3304(9) 0.4795(2)
H18_2 H 0.7012 0.3098 0.4537
C34_2 C 0.5520(5) 0.2569(9) 0.4400(3)
C35_2 C 0.5356(6) 0.3796(10) 0.4325(3)
H19_2 H 0.5488 0.4386 0.4525
C36_2 C 0.4990(7) 0.4207(11) 0.3952(3)
H20_3 H 0.4880 0.5059 0.3902
C37_2 C 0.4798(6) 0.3299(10) 0.3662(3)
C38_2 C 0.4975(7) 0.2065(10) 0.3738(3)
H21_2 H 0.4874 0.1474 0.3536
C39_2 C 0.5305(6) 0.1681(9) 0.4112(3)
H22_2 H 0.5380 0.0825 0.4169
C40_2 C 0.4416(7) 0.3757(12) 0.3272(3)
C41_4 C 0.7396(6) 0.5103(13) 0.6148(2)
C42_4 C 0.7021(8) 0.6214(15) 0.6111(4)
H23_4 H 0.6543 0.6276 0.5951
C43_4 C 0.7359(8) 0.7254(12) 0.6313(4)
H24_4 H 0.7112 0.8030 0.6292
C44_4 C 0.8074(6) 0.7126(11) 0.6548(3)
C45_4 C 0.8429(7) 0.5958(12) 0.6579(3)
H25_4 H 0.8908 0.5870 0.6736
C46_2 C 0.8082(6) 0.4947(11) 0.6382(3)
H26_2 H 0.8313 0.4156 0.6408
C47_4 C 0.8431(7) 0.8178(12) 0.6776(3)
N6_4 N 0.7411(6) 0.7107(10) 0.3073(3)
C48_4 C 0.7956(5) 0.5046(11) 0.4479(2)
C49_4 C 0.7287(6) 0.5650(9) 0.4345(3)
H27_4 H 0.6938 0.5714 0.4504
C50_4 C 0.7129(6) 0.6175(9) 0.3967(3)
H28_4 H 0.6669 0.6560 0.3867
C51_4 C 0.7677(6) 0.6101(9) 0.3750(3)
C52_4 C 0.8334(6) 0.5475(9) 0.3885(3)
H29_4 H 0.8683 0.5401 0.3726
C53_2 C 0.8485(5) 0.4950(10) 0.4254(2)
H30_2 H 0.8939 0.4538 0.4350
C54_4 C 0.7498(6) 0.6628(11) 0.3369(3)
N3_3 N 0.6137(6) 0.6428(10) 0.8061(3)
C23_3 C 0.6381(6) 0.9520(12) 0.8400(3)
H13_3 H 0.5913 0.9615 0.8232
C24_3 C 0.6704(6) 0.8373(9) 0.8454(2)
C25_3 C 0.7400(6) 0.8234(10) 0.8713(3)
H14_3 H 0.7624 0.7441 0.8755
C26_3 C 0.7749(7) 0.9273(11) 0.8905(3)
H15_3 H 0.8210 0.9186 0.9079
C27_3 C 0.6381(6) 0.7298(12) 0.8244(3)
N4_2 N 0.0843(6) 0.9078(11) 0.7026(3)
C36_3 C 0.0010(7) 0.9207(11) 0.6048(3)
C37_3 C 0.0202(6) 0.8299(10) 0.6338(3)
C38_3 C 0.0025(7) 0.7065(10) 0.6262(3)
H21_3 H 0.0126 0.6474 0.6464
C40_3 C 0.0584(7) 0.8757(12) 0.6728(3)
Ag2 Ag 0.91695(6) 0.01371(12) 0.24307(3)
O3_2 O 0.7182(4) 0.6464(7) 0.09879(17)
C1_5 C 0.7585(6) 0.6431(9) 0.0000(2)
C3_2 C 0.6490(5) 0.7586(8) 0.0003(2)
C4_2 C 0.6540(5) 0.7344(8) 0.0390(2)
H2_2 H 0.6181 0.7657 0.0519
C5_2 C 0.7134(5) 0.6629(8) 0.0587(2)
C6_2 C 0.7664(5) 0.6150(9) 0.0398(3)
H3_2 H 0.8062 0.5657 0.0531
N3_4 N 0.8863(6) 0.1428(10) 0.1939(3)
C21_2 C 0.7577(6) 0.5426(9) 0.1160(2)
C22_2 C 0.8259(6) 0.5547(10) 0.1410(3)
H12_2 H 0.8483 0.6341 0.1451
C23_4 C 0.8619(6) 0.4520(12) 0.1600(3)
H13_4 H 0.9087 0.4615 0.1768
C24_4 C 0.8296(6) 0.3373(9) 0.1546(2)
C25_4 C 0.7600(6) 0.3234(10) 0.1287(3)
H14_4 H 0.7376 0.2441 0.1245
C26_4 C 0.7251(7) 0.4273(11) 0.1095(3)
H15_4 H 0.6790 0.4186 0.0921
C27_4 C 0.8619(6) 0.2298(12) 0.1756(3)
H20_4 H 0.9880 0.0059 0.3902
Ag5_2 Ag 0.89037(5) 0.01532(12) 0.74988(2)
O10_2 O 0.9787(5) 0.1691(8) 0.7226(2)
N2_4 N 0.9079(6) 0.1411(11) 0.8028(3)
C16_4 C 0.9928(6) 0.3423(11) 0.8792(3)
H9_4 H 0.9792 0.4021 0.8594
C17_4 C 0.9744(6) 0.2156(13) 0.8717(3)
C18_4 C 0.9949(5) 0.1292(9) 0.9014(3)
H10_4 H 0.9807 0.0450 0.8970
C20_4 C 0.9378(6) 0.1731(11) 0.8338(3)
O1_4 O 0.6839(4) 0.1009(7) 0.01718(18)
O2_4 O 0.9125(4) 0.3319(6) 0.01918(18)
C1_6 C 0.7415(6) 0.1431(9) 0.0000(2)
C2_4 C 0.7993(5) 0.2196(9) 0.0195(2)
H1_4 H 0.8023 0.2433 0.0454
C7_4 C 0.7041(6) 0.0532(8) 0.0550(2)
C8_4 C 0.6501(5) 0.0681(9) 0.0774(3)
H4_4 H 0.6053 0.1101 0.0672
C9_4 C 0.6632(5) 0.0212(11) 0.1143(3)
H5_4 H 0.6280 0.0331 0.1298
C14_4 C 0.9487(5) 0.2924(9) 0.0553(2)
C15_4 C 0.9692(5) 0.3793(10) 0.0843(3)
H8_4 H 0.9574 0.4643 0.0794
C19_4 C 0.9650(5) 0.1632(10) 0.0631(3)
H11_4 H 0.9482 0.1023 0.0440
N7_2 N 0.9157(6) 0.9078(11) 0.2974(3)
C36_4 C 0.9990(7) 0.9207(11) 0.3952(3)
C37_4 C 0.9798(6) 0.8299(10) 0.3662(3)
C38_4 C 0.9975(7) 0.7065(10) 0.3738(3)
H21_4 H 0.9874 0.6474 0.3536
C40_4 C 0.9416(7) 0.8757(12) 0.3272(3)
O4_3 O 0.9142(4) 0.7107(6) 0.52402(19)
O5_3 O 0.7998(5) 0.9037(8) 0.40479(19)
O6_3 O 0.6854(4) 0.9528(7) 0.51486(17)
C28_3 C 0.8562(6) 0.7875(9) 0.5030(2)
C29_3 C 0.8575(6) 0.8121(9) 0.4648(3)
H16_3 H 0.8962 0.7822 0.4535
C30_3 C 0.7980(6) 0.8845(9) 0.4430(3)
C31_3 C 0.7419(6) 0.9315(9) 0.4595(2)
H17_3 H 0.7032 0.9799 0.4448
C32_3 C 0.7439(5) 0.9059(9) 0.4980(3)
C33_3 C 0.7997(6) 0.8304(9) 0.5205(2)
H18_3 H 0.7988 0.8098 0.5463
C34_3 C 0.9480(5) 0.7569(9) 0.5600(3)
C35_3 C 0.9644(6) 0.8796(10) 0.5675(3)
H19_3 H 0.9512 0.9386 0.5475
C39_3 C 0.9695(6) 0.6681(9) 0.5888(3)
H22_3 H 0.9620 0.5825 0.5831
C46_3 C 0.6918(6) 0.9947(11) 0.3618(3)
H26_3 H 0.6687 0.9156 0.3592
C53_3 C 0.6515(5) 0.9950(10) 0.5746(2)
H30_3 H 0.6061 0.9538 0.5650
O4_4 O 0.0858(4) 0.7107(6) 0.47598(19)
O5_4 O 0.2002(5) 0.9037(8) 0.59521(19)
O6_4 O 0.3146(4) 0.9528(7) 0.48514(17)
C28_4 C 0.1438(6) 0.7875(9) 0.4970(2)
C29_4 C 0.1425(6) 0.8121(9) 0.5352(3)
H16_4 H 0.1038 0.7822 0.5465
C30_4 C 0.2020(6) 0.8845(9) 0.5570(3)
C31_4 C 0.2581(6) 0.9315(9) 0.5405(2)
H17_4 H 0.2968 0.9799 0.5552
C32_4 C 0.2561(5) 0.9059(9) 0.5020(3)
C33_4 C 0.2003(6) 0.8304(9) 0.4795(2)
H18_4 H 0.2012 0.8098 0.4537
C34_4 C 0.0520(5) 0.7569(9) 0.4400(3)
C35_4 C 0.0356(6) 0.8796(10) 0.4325(3)
H19_4 H 0.0488 0.9386 0.4525
C39_4 C 0.0305(6) 0.6681(9) 0.4112(3)
H22_4 H 0.0380 0.5825 0.4169
C46_4 C 0.3082(6) 0.9947(11) 0.6382(3)
H26_4 H 0.3313 0.9156 0.6408
C53_4 C 0.3485(5) 0.9950(10) 0.4254(2)
H30_4 H 0.3939 0.9538 0.4350
O3_3 O 0.2182(4) 0.1464(7) 0.09879(17)
C1_7 C 0.2585(6) 0.1431(9) 0.0000(2)
C3_3 C 0.1490(5) 0.2586(8) 0.0003(2)
C4_3 C 0.1540(5) 0.2344(8) 0.0390(2)
H2_3 H 0.1181 0.2657 0.0519
C5_3 C 0.2134(5) 0.1629(8) 0.0587(2)
C6_3 C 0.2664(5) 0.1150(9) 0.0398(3)
H3_3 H 0.3062 0.0657 0.0531
C21_3 C 0.2577(6) 0.0426(9) 0.1160(2)
C22_3 C 0.3259(6) 0.0547(10) 0.1410(3)
H12_3 H 0.3483 0.1341 0.1451
O3_4 O 0.7818(4) 0.1464(7) 0.90121(17)
C1_8 C 0.7415(6) 0.1431(9) 1.0000(2)
C3_4 C 0.8510(5) 0.2586(8) 0.9997(2)
C4_4 C 0.8460(5) 0.2344(8) 0.9610(2)
H2_4 H 0.8819 0.2657 0.9481
C5_4 C 0.7866(5) 0.1629(8) 0.9413(2)
C6_4 C 0.7336(5) 0.1150(9) 0.9602(3)
H3_4 H 0.6938 0.0657 0.9469
C21_4 C 0.7423(6) 0.0426(9) 0.8840(2)
C22_4 C 0.6741(6) 0.0547(10) 0.8590(3)
H12_4 H 0.6517 0.1341 0.8549
B1 B 0.9358(9) 0.4810(13) 0.7622(4)
F1 F 0.8809(6) 0.4308(11) 0.7334(3)
F2 F 0.9117(7) 0.4905(13) 0.7953(3)
F3 F 0.9549(5) 0.5911(8) 0.7491(2)
F4 F 0.9915(5) 0.3958(8) 0.7674(3)
B1_2 B 0.0642(9) 0.4810(13) 0.2378(4)
F1_2 F 0.1191(6) 0.4308(11) 0.2666(3)
F2_2 F 0.0883(7) 0.4905(13) 0.2047(3)
F3_2 F 0.0451(5) 0.5911(8) 0.2509(2)
F4_2 F 0.0085(5) 0.3958(8) 0.2326(3)
F3_3 F 0.4549(5) 0.0911(8) 0.7491(2)
B1_3 B 0.4358(9) 0.9810(13) 0.7622(4)
F1_3 F 0.3809(6) 0.9308(11) 0.7334(3)
F2_3 F 0.4117(7) 0.9905(13) 0.7953(3)
F4_3 F 0.4915(5) 0.8958(8) 0.7674(3)
F3_4 F 0.5451(5) 0.0911(8) 0.2509(2)
B1_4 B 0.5642(9) 0.9810(13) 0.2378(4)
F1_4 F 0.6191(6) 0.9308(11) 0.2666(3)
F2_4 F 0.5883(7) 0.9905(13) 0.2047(3)
F4_4 F 0.5085(5) 0.8958(8) 0.2326(3)
B2 B 0.5055(8) 0.2672(12) 0.8795(4)
F5 F 0.5549(9) 0.265(3) 0.9129(3)
F6 F 0.4984(7) 0.1517(9) 0.8679(6)
F7 F 0.4433(6) 0.3141(11) 0.8837(5)
F8 F 0.5437(5) 0.3300(10) 0.8580(2)
B2_2 B 0.4945(8) 0.2672(12) 0.1205(4)
F5_2 F 0.4451(9) 0.265(3) 0.0871(3)
F6_2 F 0.5016(7) 0.1517(9) 0.1321(6)
F7_2 F 0.5567(6) 0.3141(11) 0.1163(5)
F8_2 F 0.4563(5) 0.3300(10) 0.1420(2)
B2_3 B 0.0055(8) 0.7672(12) 0.8795(4)
F5_3 F 0.0549(9) 0.765(3) 0.9129(3)
F8_3 F 0.0437(5) 0.8300(10) 0.8580(2)
F6_3 F 0.9984(7) 0.6517(9) 0.8679(6)
F7_3 F 0.9433(6) 0.8141(11) 0.8837(5)
F6_4 F 0.0016(7) 0.6517(9) 0.1321(6)
F7_4 F 0.0567(6) 0.8141(11) 0.1163(5)
B2_4 B 0.9945(8) 0.7672(12) 0.1205(4)
F5_4 F 0.9451(9) 0.765(3) 0.0871(3)
F8_4 F 0.9563(5) 0.8300(10) 0.1420(2)
B3 B 0.0089(9) 0.3036(14) 0.3778(4)
F9 F 0.0343(7) 0.2175(10) 0.3552(3)
F10 F 0.0616(7) 0.3202(18) 0.4084(4)
F11 F 0.9884(9) 0.4059(9) 0.3567(4)
F12 F 0.9530(8) 0.2510(16) 0.3875(6)
F11_2 F 0.0116(9) 0.4059(9) 0.6433(4)
F12_2 F 0.0470(8) 0.2510(16) 0.6125(6)
B3_2 B 0.9911(9) 0.3036(14) 0.6222(4)
F9_2 F 0.9657(7) 0.2175(10) 0.6448(3)
F10_2 F 0.9384(7) 0.3202(18) 0.5916(4)
B3_3 B 0.5089(9) 0.8036(14) 0.3778(4)
F9_3 F 0.5343(7) 0.7175(10) 0.3552(3)
F10_3 F 0.5616(7) 0.8202(18) 0.4084(4)
F11_3 F 0.4884(9) 0.9059(9) 0.3567(4)
F12_3 F 0.4530(8) 0.7510(16) 0.3875(6)
B3_4 B 0.4911(9) 0.8036(14) 0.6222(4)
F9_4 F 0.4657(7) 0.7175(10) 0.6448(3)
F10_4 F 0.4384(7) 0.8202(18) 0.5916(4)
F11_4 F 0.5116(9) 0.9059(9) 0.6433(4)
F12_4 F 0.5470(8) 0.7510(16) 0.6125(6)
loop_
_geom_bond_atom_site_label_1
_geom_bond_atom_site_label_2
_geom_bond_site_symmetry_1
_geom_bond_site_symmetry_2
Ag5 O10 1_555 1_555
Ag6 N3 1_555 1_555
O3 C5 1_555 1_555
C4 C3 1_555 1_555
H2 C4 1_555 1_555
C5 C4 1_555 1_555
C6 C1 1_555 1_555
H3 C6 1_555 1_555
N3 C27 1_555 1_555
C21 O3 1_555 1_555
C22 C21 1_555 1_555
H12 C22 1_555 1_555
C23 C22 1_555 1_555
H13 C23 1_555 1_555
C24 C23 1_555 1_555
C25 C24 1_555 1_555
H14 C25 1_555 1_555
C26 C21 1_555 1_555
H15 C26 1_555 1_555
C27 C24 1_555 1_555
C5 C6 1_555 1_555
C25 C26 1_555 1_555
O1 C1_2 1_555 1_555
C1_2 C2 1_555 1_555
C2 H1 1_555 1_555
C7 O1 1_555 1_555
C8 C7 1_555 1_555
H4 C8 1_555 1_555
C9 C8 1_555 1_555
H5 C9 1_555 1_555
C14 O2 1_555 1_555
C15 C14 1_555 1_555
H8 C15 1_555 1_555
C19 C14 1_555 1_555
H11 C19 1_555 1_555
Ag5 N2 1_555 1_555
N2 C20 1_555 1_555
H9 C16 1_555 1_555
C17 C16 1_555 1_555
C18 C17 1_555 1_555
H10 C18 1_555 1_555
C20 C17 1_555 1_555
Ag1 N2_2 1_555 1_555
Ag3 N1 1_555 1_555
O1_2 C1_3 1_555 1_555
C1_3 C2_2 1_555 1_555
C2_2 H1_2 1_555 1_555
N1 C13 1_555 1_555
C7_2 O1_2 1_555 1_555
C8_2 C7_2 1_555 1_555
H4_2 C8_2 1_555 1_555
C9_2 C8_2 1_555 1_555
H5_2 C9_2 1_555 1_555
C10 C9_2 1_555 1_555
C11 C10 1_555 1_555
H6 C11 1_555 1_555
C12 C7_2 1_555 1_555
H7 C12 1_555 1_555
C13 C10 1_555 1_555
N2_2 C20_2 1_555 1_555
C14_2 O2_2 1_555 1_555
C15_2 C14_2 1_555 1_555
H8_2 C15_2 1_555 1_555
C16_2 C15_2 1_555 1_555
H9_2 C16_2 1_555 1_555
C17_2 C16_2 1_555 1_555
C18_2 C17_2 1_555 1_555
H10_2 C18_2 1_555 1_555
C19_2 C14_2 1_555 1_555
H11_2 C19_2 1_555 1_555
C20_2 C17_2 1_555 1_555
N5 C47 1_555 1_555
C42 C41 1_555 1_555
H23 C42 1_555 1_555
C43 C42 1_555 1_555
H24 C43 1_555 1_555
C44 C43 1_555 1_555
C45 C44 1_555 1_555
H25 C45 1_555 1_555
C47 C44 1_555 1_555
N6 Ag3 1_555 1_555
C49 C48 1_555 1_555
H27 C49 1_555 1_555
C50 C49 1_555 1_555
H28 C50 1_555 1_555
C51 C50 1_555 1_555
C52 C51 1_555 1_555
H29 C52 1_555 1_555
C54 N6 1_555 1_555
O8 Ag1 1_555 1_555
Ag4 N5 1_555 1_555
Ag7 O8 1_555 1_555
N8 Ag1 1_555 1_555
O9 Ag1 1_555 1_555
C11 C12 1_555 1_555
C18_2 C19_2 1_555 1_555
C51 C54 1_555 1_555
Ag7 O9 1_555 1_555
Ag4 N2_3 1_555 1_555
Ag3_2 N1_2 1_555 1_555
O1_3 C1_4 1_555 1_555
C1_4 C2_3 1_555 1_555
C2_3 H1_3 1_555 1_555
N1_2 C13_2 1_555 1_555
C7_3 O1_3 1_555 1_555
C8_3 C7_3 1_555 1_555
H4_3 C8_3 1_555 1_555
C9_3 C8_3 1_555 1_555
H5_3 C9_3 1_555 1_555
C10_2 C9_3 1_555 1_555
C11_2 C10_2 1_555 1_555
H6_2 C11_2 1_555 1_555
C12_2 C7_3 1_555 1_555
H7_2 C12_2 1_555 1_555
C13_2 C10_2 1_555 1_555
N2_3 C20_3 1_555 1_555
C14_3 O2_3 1_555 1_555
C15_3 C14_3 1_555 1_555
H8_3 C15_3 1_555 1_555
C16_3 C15_3 1_555 1_555
H9_3 C16_3 1_555 1_555
C17_3 C16_3 1_555 1_555
C18_3 C17_3 1_555 1_555
H10_3 C18_3 1_555 1_555
C19_3 C14_3 1_555 1_555
H11_3 C19_3 1_555 1_555
C20_3 C17_3 1_555 1_555
N8 C47_2 1_555 1_555
C42_2 C41_2 1_555 1_555
H23_2 C42_2 1_555 1_555
C43_2 C42_2 1_555 1_555
H24_2 C43_2 1_555 1_555
C44_2 C43_2 1_555 1_555
C45_2 C44_2 1_555 1_555
H25_2 C45_2 1_555 1_555
C47_2 C44_2 1_555 1_555
N6_2 Ag3_2 1_555 1_555
C49_2 C48_2 1_555 1_555
H27_2 C49_2 1_555 1_555
C50_2 C49_2 1_555 1_555
H28_2 C50_2 1_555 1_555
C51_2 C50_2 1_555 1_555
C52_2 C51_2 1_555 1_555
H29_2 C52_2 1_555 1_555
C54_2 N6_2 1_555 1_555
O8_2 Ag4 1_555 1_555
Ag7_2 O8_2 1_555 1_555
O9_2 Ag4 1_555 1_555
C11_2 C12_2 1_555 1_555
C18_3 C19_3 1_555 1_555
C51_2 C54_2 1_555 1_555
Ag7_2 O9_2 1_555 1_555
Ag7_2 N3_2 1_555 1_555
N3_2 C27_2 1_555 1_555
H13_2 C23_2 1_555 1_555
C24_2 C23_2 1_555 1_555
C25_2 C24_2 1_555 1_555
H14_2 C25_2 1_555 1_555
H15_2 C26_2 1_555 1_555
C27_2 C24_2 1_555 1_555
N7 Ag7_2 1_555 1_555
C25_2 C26_2 1_555 1_555
Ag3_3 N1_3 1_555 1_555
N1_3 C13_3 1_555 1_555
C11_3 C10_3 1_555 1_555
H6_3 C11_3 1_555 1_555
H7_3 C12_3 1_555 1_555
C13_3 C10_3 1_555 1_555
O4 C28 1_555 1_555
O5 C30 1_555 1_555
O6 C32 1_555 1_555
C28 C29 1_555 1_555
C29 H16 1_555 1_555
C30 C29 1_555 1_555
C31 C30 1_555 1_555
H17 C31 1_555 1_555
C32 C31 1_555 1_555
C33 C28 1_555 1_555
H18 C33 1_555 1_555
N4 C40 1_555 1_555
C34 O4 1_555 1_555
C35 C34 1_555 1_555
H19 C35 1_555 1_555
C36 C35 1_555 1_555
H20_2 C36 1_555 1_555
C37 C36 1_555 1_555
C38 C37 1_555 1_555
H21 C38 1_555 1_555
C39 C34 1_555 1_555
H22 C39 1_555 1_555
C40 C37 1_555 1_555
N5_2 C47_3 1_555 1_555
C41_3 O5 1_555 1_555
C42_3 C41_3 1_555 1_555
H23_3 C42_3 1_555 1_555
C43_3 C42_3 1_555 1_555
H24_3 C43_3 1_555 1_555
C44_3 C43_3 1_555 1_555
C45_3 C44_3 1_555 1_555
H25_3 C45_3 1_555 1_555
C46 C41_3 1_555 1_555
H26 C46 1_555 1_555
C47_3 C44_3 1_555 1_555
N6_3 Ag3_3 1_555 1_555
C48_3 O6 1_555 1_555
C49_3 C48_3 1_555 1_555
H27_3 C49_3 1_555 1_555
C50_3 C49_3 1_555 1_555
H28_3 C50_3 1_555 1_555
C51_3 C50_3 1_555 1_555
C52_3 C51_3 1_555 1_555
H29_3 C52_3 1_555 1_555
C53 C48_3 1_555 1_555
H30 C53 1_555 1_555
C54_3 N6_3 1_555 1_555
Ag7 N4 1_555 1_555
C11_3 C12_3 1_555 1_555
C32 C33 1_555 1_555
C38 C39 1_555 1_555
C45_3 C46 1_555 1_555
C51_3 C54_3 1_555 1_555
C52_3 C53 1_555 1_555
Ag3_4 N1_4 1_555 1_555
N1_4 C13_4 1_555 1_555
C11_4 C10_4 1_555 1_555
H6_4 C11_4 1_555 1_555
H7_4 C12_4 1_555 1_555
C13_4 C10_4 1_555 1_555
O4_2 C28_2 1_555 1_555
O5_2 C30_2 1_555 1_555
O6_2 C32_2 1_555 1_555
C28_2 C29_2 1_555 1_555
C29_2 H16_2 1_555 1_555
C30_2 C29_2 1_555 1_555
C31_2 C30_2 1_555 1_555
H17_2 C31_2 1_555 1_555
C32_2 C31_2 1_555 1_555
C33_2 C28_2 1_555 1_555
H18_2 C33_2 1_555 1_555
N7 C40_2 1_555 1_555
C34_2 O4_2 1_555 1_555
C35_2 C34_2 1_555 1_555
H19_2 C35_2 1_555 1_555
C36_2 C35_2 1_555 1_555
H20_3 C36_2 1_555 1_555
C37_2 C36_2 1_555 1_555
C38_2 C37_2 1_555 1_555
H21_2 C38_2 1_555 1_555
C39_2 C34_2 1_555 1_555
H22_2 C39_2 1_555 1_555
C40_2 C37_2 1_555 1_555
N8_2 C47_4 1_555 1_555
C41_4 O5_2 1_555 1_555
C42_4 C41_4 1_555 1_555
H23_4 C42_4 1_555 1_555
C43_4 C42_4 1_555 1_555
H24_4 C43_4 1_555 1_555
C44_4 C43_4 1_555 1_555
C45_4 C44_4 1_555 1_555
H25_4 C45_4 1_555 1_555
C46_2 C41_4 1_555 1_555
H26_2 C46_2 1_555 1_555
C47_4 C44_4 1_555 1_555
N6_4 Ag3_4 1_555 1_555
C48_4 O6_2 1_555 1_555
C49_4 C48_4 1_555 1_555
H27_4 C49_4 1_555 1_555
C50_4 C49_4 1_555 1_555
H28_4 C50_4 1_555 1_555
C51_4 C50_4 1_555 1_555
C52_4 C51_4 1_555 1_555
H29_4 C52_4 1_555 1_555
C53_2 C48_4 1_555 1_555
H30_2 C53_2 1_555 1_555
C54_4 N6_4 1_555 1_555
C11_4 C12_4 1_555 1_555
C32_2 C33_2 1_555 1_555
C38_2 C39_2 1_555 1_555
C45_4 C46_2 1_555 1_555
C51_4 C54_4 1_555 1_555
C52_4 C53_2 1_555 1_555
Ag7 N3_3 1_555 1_555
N3_3 C27_3 1_555 1_555
H13_3 C23_3 1_555 1_555
C24_3 C23_3 1_555 1_555
C25_3 C24_3 1_555 1_555
H14_3 C25_3 1_555 1_555
H15_3 C26_3 1_555 1_555
C27_3 C24_3 1_555 1_555
C25_3 C26_3 1_555 1_555
N4_2 C40_3 1_555 1_555
C37_3 C36_3 1_555 1_555
C38_3 C37_3 1_555 1_555
H21_3 C38_3 1_555 1_555
C40_3 C37_3 1_555 1_555
Ag2 N3_4 1_555 1_555
O3_2 C5_2 1_555 1_555
C4_2 C3_2 1_555 1_555
H2_2 C4_2 1_555 1_555
C5_2 C4_2 1_555 1_555
C6_2 C1_5 1_555 1_555
H3_2 C6_2 1_555 1_555
N3_4 C27_4 1_555 1_555
C21_2 O3_2 1_555 1_555
C22_2 C21_2 1_555 1_555
H12_2 C22_2 1_555 1_555
C23_4 C22_2 1_555 1_555
H13_4 C23_4 1_555 1_555
C24_4 C23_4 1_555 1_555
C25_4 C24_4 1_555 1_555
H14_4 C25_4 1_555 1_555
C26_4 C21_2 1_555 1_555
H15_4 C26_4 1_555 1_555
C27_4 C24_4 1_555 1_555
C5_2 C6_2 1_555 1_555
C25_4 C26_4 1_555 1_555
Ag5_2 O10_2 1_555 1_555
Ag5_2 N2_4 1_555 1_555
N2_4 C20_4 1_555 1_555
H9_4 C16_4 1_555 1_555
C17_4 C16_4 1_555 1_555
C18_4 C17_4 1_555 1_555
H10_4 C18_4 1_555 1_555
C20_4 C17_4 1_555 1_555
O1_4 C1_6 1_555 1_555
C1_6 C2_4 1_555 1_555
C2_4 H1_4 1_555 1_555
C7_4 O1_4 1_555 1_555
C8_4 C7_4 1_555 1_555
H4_4 C8_4 1_555 1_555
C9_4 C8_4 1_555 1_555
H5_4 C9_4 1_555 1_555
C14_4 O2_4 1_555 1_555
C15_4 C14_4 1_555 1_555
H8_4 C15_4 1_555 1_555
C19_4 C14_4 1_555 1_555
H11_4 C19_4 1_555 1_555
N7_2 C40_4 1_555 1_555
C37_4 C36_4 1_555 1_555
C38_4 C37_4 1_555 1_555
H21_4 C38_4 1_555 1_555
C40_4 C37_4 1_555 1_555
O4_3 C28_3 1_555 1_555
O5_3 C30_3 1_555 1_555
O6_3 C32_3 1_555 1_555
C28_3 C29_3 1_555 1_555
C29_3 H16_3 1_555 1_555
C30_3 C29_3 1_555 1_555
C31_3 C30_3 1_555 1_555
H17_3 C31_3 1_555 1_555
C32_3 C31_3 1_555 1_555
C33_3 C28_3 1_555 1_555
H18_3 C33_3 1_555 1_555
C34_3 O4_3 1_555 1_555
C35_3 C34_3 1_555 1_555
H19_3 C35_3 1_555 1_555
C39_3 C34_3 1_555 1_555
H22_3 C39_3 1_555 1_555
H26_3 C46_3 1_555 1_555
H30_3 C53_3 1_555 1_555
C32_3 C33_3 1_555 1_555
O4_4 C28_4 1_555 1_555
O5_4 C30_4 1_555 1_555
O6_4 C32_4 1_555 1_555
C28_4 C29_4 1_555 1_555
C29_4 H16_4 1_555 1_555
C30_4 C29_4 1_555 1_555
C31_4 C30_4 1_555 1_555
H17_4 C31_4 1_555 1_555
C32_4 C31_4 1_555 1_555
C33_4 C28_4 1_555 1_555
H18_4 C33_4 1_555 1_555
C34_4 O4_4 1_555 1_555
C35_4 C34_4 1_555 1_555
H19_4 C35_4 1_555 1_555
C39_4 C34_4 1_555 1_555
H22_4 C39_4 1_555 1_555
H26_4 C46_4 1_555 1_555
H30_4 C53_4 1_555 1_555
C32_4 C33_4 1_555 1_555
O3_3 C5_3 1_555 1_555
C4_3 C3_3 1_555 1_555
H2_3 C4_3 1_555 1_555
C5_3 C4_3 1_555 1_555
C6_3 C1_7 1_555 1_555
H3_3 C6_3 1_555 1_555
C21_3 O3_3 1_555 1_555
C22_3 C21_3 1_555 1_555
H12_3 C22_3 1_555 1_555
C5_3 C6_3 1_555 1_555
O3_4 C5_4 1_555 1_555
C4_4 C3_4 1_555 1_555
H2_4 C4_4 1_555 1_555
C5_4 C4_4 1_555 1_555
C6_4 C1_8 1_555 1_555
H3_4 C6_4 1_555 1_555
C21_4 O3_4 1_555 1_555
C22_4 C21_4 1_555 1_555
H12_4 C22_4 1_555 1_555
C5_4 C6_4 1_555 1_555
B1 F1 1_555 1_555
F2 B1 1_555 1_555
F3 B1 1_555 1_555
F4 B1 1_555 1_555
B1_2 F1_2 1_555 1_555
F2_2 B1_2 1_555 1_555
F3_2 B1_2 1_555 1_555
F4_2 B1_2 1_555 1_555
B1_3 F1_3 1_555 1_555
F2_3 B1_3 1_555 1_555
F4_3 B1_3 1_555 1_555
B1_4 F1_4 1_555 1_555
F2_4 B1_4 1_555 1_555
F4_4 B1_4 1_555 1_555
B2 F5 1_555 1_555
F6 B2 1_555 1_555
F7 B2 1_555 1_555
F8 B2 1_555 1_555
B2_2 F5_2 1_555 1_555
F6_2 B2_2 1_555 1_555
F7_2 B2_2 1_555 1_555
F8_2 B2_2 1_555 1_555
B2_3 F5_3 1_555 1_555
F8_3 B2_3 1_555 1_555
B2_4 F5_4 1_555 1_555
F8_4 B2_4 1_555 1_555
B3 F9 1_555 1_555
F10 B3 1_555 1_555
B3_2 F9_2 1_555 1_555
F10_2 B3_2 1_555 1_555
B3_3 F9_3 1_555 1_555
F10_3 B3_3 1_555 1_555
F11_3 B3_3 1_555 1_555
F12_3 B3_3 1_555 1_555
B3_4 F9_4 1_555 1_555
F10_4 B3_4 1_555 1_555
F11_4 B3_4 1_555 1_555
F12_4 B3_4 1_555 1_555

#END
