
###############################################################################
#
# This file contains modified crystal structure data generated from the
# MOF subset of the Cambridge Structural Database (CSD) v543 
# hosted by the Cambridge Crystallographic Data Centre (CCDC).
#
# This work is licensed under the Creative Commons
# Attribution-NonCommercial-ShareAlike 4.0 International License.
# To view a copy of this license, visit
# http://creativecommons.org/licenses/by-nc-sa/4.0/
# or send a letter to
# Creative Commons, PO Box 1866, Mountain View, CA 94042, USA.
#
# CIF created using the CSD Python API on 29 September 2022
# The structure has been converted into the P1 space group
# The structure has a 3D framework
# The original CSD entry PEYVEV is in the hexagonal crystal system
# The framework has been calculated to contain at least 10.0% void space
# The void calculation uses a probe of radius 1.32A, grid spacing 0.4
# H atom positions have been added when not included in the experimental data
# Generated hydrogen atom positions removed from atoms on special positions
#
###############################################################################

data_PEYVEV
_chemical_formula_moiety         '(C108 H144 In27 O101)n'
_symmetry_cell_setting           triclinic
_symmetry_space_group_name_H-M   'P 1'
_symmetry_Int_Tables_number      1
_space_group_name_Hall           'P 1'
loop_
_symmetry_equiv_pos_site_id
_symmetry_equiv_pos_as_xyz
1 x,y,z
_cell_length_a                   15.32130(10)
_cell_length_b                   15.32130(10)
_cell_length_c                   32.5710(3)
_cell_angle_alpha                90
_cell_angle_beta                 90
_cell_angle_gamma                120
_cell_volume                     6621.45
loop_
_atom_site_label
_atom_site_type_symbol
_atom_site_fract_x
_atom_site_fract_y
_atom_site_fract_z
O2 O 0.0000 -0.0000 0.7500
In13 In 0.57965(2) 0.42035(2) 0.59211(2)
In24 In 0.5000 0.5000 0.5000
In25 In -0.0000 0.5000 0.5000
In28 In 0.15452(6) 0.07726(4) 0.7500
O11 O 0.0000 -0.0000 0.2500
O21 O 0.0181(4) 0.1831(4) 0.70285(17)
O22 O 0.1650(6) 0.1831(4) 0.70285(17)
O23 O 0.0181(4) 0.1831(4) 0.79715(17)
O27 O 0.1831(4) 0.0181(4) 0.29715(17)
O28 O 0.1831(4) 0.0181(4) 0.20285(17)
O56 O 0.4216(5) 0.3799(4) 0.59851(18)
O76 O 0.3736(5) 0.4277(4) 0.54178(19)
O77 O 0.0541(6) 0.4277(4) 0.54178(19)
C11 C 0.1032(9) 0.2064(8) 0.6888(3)
C21 C 0.3593(6) 0.3911(6) 0.5773(2)
C22 C 0.0318(8) 0.3911(6) 0.5773(2)
C27 C 0.1368(9) 0.2736(8) 0.6506(3)
C32 C 0.1936(10) 0.3872(4) 0.5785(3)
H7 H 0.2123 0.4246 0.5544
C42 C 0.2594(6) 0.3588(6) 0.5969(2)
C43 C 0.0994(8) 0.3588(6) 0.5969(2)
C53 C 0.2299(5) 0.3020(6) 0.6327(2)
C54 C 0.0721(8) 0.3020(6) 0.6327(2)
H17 H 0.2726 0.2828 0.6448
H18 H 0.0102 0.2828 0.6448
O2_2 O 0.0000 1.0000 0.7500
In6 In 0.15930(3) 0.57965(2) 0.40789(2)
In27 In 0.07726(4) 0.92274(4) 0.2500
O10 O 0.1568(4) 0.8432(4) 0.2500
O11_2 O 0.0000 1.0000 0.2500
O24 O 0.0181(4) 0.8350(6) 0.70285(17)
O25 O 0.0181(4) 0.8350(6) 0.79715(17)
O32 O 0.1426(4) 0.5713(3) 0.4727(2)
O41 O 0.2645(3) 0.5289(6) 0.4062(3)
O42 O 0.2645(3) 0.7356(7) 0.4062(3)
O49 O 0.0417(6) 0.6201(4) 0.40149(18)
O59 O 0.0417(6) 0.4216(5) 0.40149(18)
O64 O 0.1526(6) 0.5763(4) 0.3407(3)
O82 O 0.0541(6) 0.6264(5) 0.54178(19)
In23 In 0.5000 0.0000 0.0000
In3 In 0.92274(4) 0.07726(4) 0.7500
O1 O 0.8432(4) 0.1568(4) 0.7500
O2_3 O 1.0000 -0.0000 0.7500
In5 In 0.57965(2) 0.15930(3) 0.59211(2)
In12 In 0.57965(2) 0.15930(3) 0.90789(2)
In14 In 0.84070(3) 0.42035(2) 0.59211(2)
In18 In 0.5000 -0.0000 0.5000
In23_2 In 0.5000 -0.0000 1.0000
In25_2 In 1.0000 0.5000 0.5000
O11_3 O 1.0000 -0.0000 0.2500
O30 O 0.5713(3) 0.1426(4) 0.5273(2)
O39 O 0.5289(6) 0.2644(7) 0.5938(3)
O40 O 0.7356(7) 0.2645(3) 0.5938(3)
O47 O 0.6201(4) 0.0417(6) 0.59851(18)
O55 O 0.6201(4) 0.0417(6) 0.90149(18)
O57 O 0.9583(6) 0.3799(4) 0.59851(18)
O58 O 0.4216(5) 0.0417(6) 0.59851(18)
O63 O 0.5763(4) 0.1526(6) 0.6593(3)
O79 O 0.6264(5) 0.0541(6) 0.45822(19)
O80 O 0.4277(4) 0.0541(6) 0.45822(19)
In22 In 0.5000 0.5000 0.0000
In23_3 In 0.5000 1.0000 0.0000
O2_4 O 1.0000 1.0000 0.7500
O3 O 0.8169(4) 0.9819(4) 0.70285(17)
O4 O 0.5713(3) 0.4287(3) 0.5273(2)
O6 O 0.6201(4) 0.5784(5) 0.59851(18)
O7 O 0.5763(4) 0.4237(4) 0.6593(3)
O8 O 0.5723(4) 0.6264(5) 0.54178(19)
C1 C 0.7936(8) 0.8968(4) 0.6888(3)
C2 C 0.6089(6) 0.6407(6) 0.5773(2)
C3 C 0.7264(8) 0.8632(4) 0.6506(3)
C4 C 0.6128(4) 0.8064(9) 0.5785(3)
H1 H 0.5754 0.7877 0.5544
C5 C 0.6412(6) 0.7406(6) 0.5969(2)
C6 C 0.6980(6) 0.7701(5) 0.6327(2)
H2 H 0.7172 0.7274 0.6448
In4 In 0.42035(2) 0.57965(2) 0.40789(2)
In11 In 0.57965(2) 0.42035(2) 0.90789(2)
In15 In 0.42035(2) 0.84070(3) 0.40789(2)
In18_2 In 0.5000 1.0000 0.5000
In22_2 In 0.5000 0.5000 1.0000
In23_4 In 0.5000 1.0000 1.0000
In26 In 0.92274(4) 0.84548(6) 0.7500
In29 In 0.84548(6) 0.92274(4) 0.2500
In31 In 0.07726(4) 0.15452(6) 0.2500
O9 O 0.8432(4) 0.6864(6) 0.7500
O11_4 O 1.0000 1.0000 0.2500
O12 O 0.8169(4) 0.8350(6) 0.70285(17)
O13 O 0.9819(4) 0.8169(4) 0.29715(17)
O14 O 0.8350(6) 0.8169(4) 0.29715(17)
O16 O 0.1831(4) 0.1650(6) 0.29715(17)
O19 O 0.8169(4) 0.9819(4) 0.79715(17)
O20 O 0.8169(4) 0.8350(6) 0.79715(17)
O26 O 0.9819(4) 0.8169(4) 0.20285(17)
O29 O 0.4287(3) 0.5713(3) 0.4727(2)
O31 O 0.4287(3) 0.8574(4) 0.4727(2)
O33 O 0.8574(4) 0.4287(3) 0.5273(2)
O36 O 0.7356(7) 0.4711(6) 0.5938(3)
O38 O 0.4711(6) 0.7356(7) 0.4062(3)
O48 O 0.5784(5) 0.6201(4) 0.40149(18)
O50 O 0.3799(4) 0.4216(5) 0.40149(18)
O54 O 0.6201(4) 0.5784(5) 0.90149(18)
O62 O 0.4237(4) 0.5763(4) 0.3407(3)
O67 O 0.5723(4) 0.9459(6) 0.54178(19)
O68 O 0.6264(5) 0.5723(4) 0.45822(19)
O69 O 0.9459(6) 0.5723(4) 0.45822(19)
O70 O 0.4277(4) 0.3736(5) 0.45822(19)
O74 O 0.5723(4) 0.6264(5) 0.95822(19)
O75 O 0.5723(4) 0.9459(6) 0.95822(19)
O78 O 0.3736(5) 0.9459(6) 0.54178(19)
O83 O 0.9459(6) 0.3736(5) 0.45822(19)
C7 C 0.8968(4) 0.7936(8) 0.3112(3)
C8 C 0.2064(8) 0.1032(4) 0.3112(3)
C10 C 0.7936(8) 0.8968(9) 0.8112(3)
C12 C 0.6089(6) 0.9682(8) 0.5773(2)
C13 C 0.6407(6) 0.6089(6) 0.4227(2)
C14 C 0.9682(8) 0.6089(6) 0.4227(2)
C15 C 0.3911(6) 0.3593(6) 0.4227(2)
C16 C 0.3911(6) 0.0318(8) 0.4227(2)
C19 C 0.6089(6) 0.6407(6) 0.9227(2)
C20 C 0.6089(6) 0.9682(8) 0.9227(2)
C23 C 0.8632(4) 0.7264(8) 0.3494(3)
C24 C 0.2736(8) 0.1368(4) 0.3494(3)
C26 C 0.7264(8) 0.8632(9) 0.8494(3)
C28 C 0.8064(9) 0.6128(4) 0.4215(3)
C29 C 0.3872(4) 0.1936(9) 0.4215(3)
C31 C 0.6128(4) 0.8064(10) 0.9215(3)
H3 H 0.7877 0.5754 0.4456
H4 H 0.4246 0.2123 0.4456
H6 H 0.5754 0.7877 0.9456
C33 C 0.6412(6) 0.9006(8) 0.5969(2)
C34 C 0.7406(6) 0.6412(6) 0.4031(2)
C35 C 0.9006(8) 0.6412(6) 0.4031(2)
C36 C 0.3588(6) 0.2594(6) 0.4031(2)
C37 C 0.3588(6) 0.0994(8) 0.4031(2)
C40 C 0.6412(6) 0.7406(6) 0.9031(2)
C41 C 0.6412(6) 0.9006(8) 0.9031(2)
C44 C 0.6980(6) 0.9279(8) 0.6327(2)
C45 C 0.7701(5) 0.6980(6) 0.3673(2)
C46 C 0.9279(8) 0.6980(6) 0.3673(2)
C47 C 0.3020(6) 0.2299(5) 0.3673(2)
C48 C 0.3020(6) 0.0721(8) 0.3673(2)
C51 C 0.6980(6) 0.7701(5) 0.8673(2)
C52 C 0.6980(6) 0.9279(8) 0.8673(2)
H8 H 0.7172 0.9898 0.6448
H9 H 0.7274 0.7172 0.3552
H10 H 0.9898 0.7172 0.3552
H11 H 0.2828 0.2726 0.3552
H12 H 0.2828 0.0102 0.3552
H15 H 0.7172 0.7274 0.8552
H16 H 0.7172 0.9898 0.8552
O51 O 0.3799(4) 0.9583(6) 0.40149(18)
O60 O 0.5784(5) 0.9583(6) 0.40149(18)
O65 O 0.4237(4) 0.8474(6) 0.3407(3)
O61 O 0.9583(6) 0.5784(5) 0.59851(18)
O66 O 0.8474(6) 0.4237(4) 0.6593(3)
O9_2 O 0.3136(6) 0.1568(7) 0.7500
O10_2 O 0.1568(4) 0.3136(6) 0.2500
O15 O 0.9819(4) 0.1650(6) 0.29715(17)
O16_2 O 0.8350(6) 0.0181(7) 0.29715(17)
O25_2 O 0.1650(6) 0.1831(7) 0.79715(17)
O26_2 O 0.1831(4) 0.1650(6) 0.20285(17)
O54_2 O 0.4216(5) 0.0417(6) 0.90149(18)
C8_2 C 0.8968(4) 0.1032(9) 0.3112(3)
C15_2 C 0.6407(6) 0.0318(8) 0.4227(2)
C16_2 C 0.9682(8) 0.3593(10) 0.4227(2)
C24_2 C 0.8632(4) 0.1368(9) 0.3494(3)
C29_2 C 0.8064(9) 0.1936(10) 0.4215(3)
H4_2 H 0.7877 0.2123 0.4456
C36_2 C 0.7406(6) 0.0994(8) 0.4031(2)
C37_2 C 0.9006(8) 0.2594(10) 0.4031(2)
C47_2 C 0.7701(5) 0.0721(8) 0.3673(2)
C48_2 C 0.9279(8) 0.2299(10) 0.3673(2)
H11_2 H 0.7274 0.0102 0.3552
H12_2 H 0.9898 0.2726 0.3552
In23_5 In 0.0000 0.5000 0.0000
C1_2 C 0.1032(4) 0.8968(9) 0.6888(3)
C2_2 C 0.3593(6) 0.9682(8) 0.5773(2)
C3_2 C 0.1368(4) 0.8632(9) 0.6506(3)
C4_2 C 0.1936(9) 0.8064(10) 0.5785(3)
H1_2 H 0.2123 0.7877 0.5544
C5_2 C 0.2594(6) 0.9006(8) 0.5969(2)
C6_2 C 0.2299(5) 0.9279(8) 0.6327(2)
H2_2 H 0.2726 0.9898 0.6448
In23_6 In -0.0000 0.5000 1.0000
O12_2 O 0.1650(6) 0.9819(7) 0.70285(17)
O20_2 O 0.1650(6) 0.9819(7) 0.79715(17)
O74_2 O 0.3736(5) 0.9459(6) 0.95822(19)
O75_2 O 0.0541(6) 0.6264(7) 0.95822(19)
C10_2 C 0.1032(9) 0.8968(12) 0.8112(3)
C12_2 C 0.0318(8) 0.6407(10) 0.5773(2)
C19_2 C 0.3593(6) 0.9682(8) 0.9227(2)
C20_2 C 0.0318(8) 0.6407(10) 0.9227(2)
C26_2 C 0.1368(9) 0.8632(12) 0.8494(3)
C31_2 C 0.1936(10) 0.8064(11) 0.9215(3)
H6_2 H 0.2123 0.7877 0.9456
C33_2 C 0.0994(8) 0.7406(10) 0.5969(2)
C40_2 C 0.2594(6) 0.9006(8) 0.9031(2)
C41_2 C 0.0994(8) 0.7406(10) 0.9031(2)
C44_2 C 0.0721(8) 0.7701(10) 0.6327(2)
C51_2 C 0.2299(5) 0.9279(8) 0.8673(2)
C52_2 C 0.0721(8) 0.7701(10) 0.8673(2)
H8_2 H 0.0102 0.7274 0.6448
H15_2 H 0.2726 0.9898 0.8552
H16_2 H 0.0102 0.7274 0.8552
O28_2 O 0.9819(4) 0.1650(6) 0.20285(17)
In23_7 In 1.0000 0.5000 0.0000
In12_2 In 0.84070(3) 0.42035(4) 0.90789(2)
In23_8 In 1.0000 0.5000 1.0000
O55_2 O 0.9583(6) 0.5784(7) 0.90149(18)
O55_3 O 0.4216(7) 0.3799(4) 0.90149(18)
O74_3 O 0.0541(6) 0.4277(4) 0.95822(19)
O75_3 O 0.3736(7) 0.4277(4) 0.95822(19)
C10_3 C 0.1032(12) 0.2064(8) 0.8112(3)
C19_3 C 0.0318(8) 0.3911(6) 0.9227(2)
C20_3 C 0.3593(10) 0.3911(6) 0.9227(2)
C26_3 C 0.1368(12) 0.2736(8) 0.8494(3)
C31_3 C 0.1936(11) 0.3872(4) 0.9215(3)
H6_3 H 0.2123 0.4246 0.9456
C40_3 C 0.0994(8) 0.3588(6) 0.9031(2)
C41_3 C 0.2594(10) 0.3588(6) 0.9031(2)
C51_3 C 0.0721(8) 0.3020(6) 0.8673(2)
C52_3 C 0.2299(10) 0.3020(6) 0.8673(2)
H15_3 H 0.0102 0.2828 0.8552
H16_3 H 0.2726 0.2828 0.8552
O26_3 O 0.8350(6) 0.0181(4) 0.20285(17)
O54_3 O 0.9583(6) 0.3799(4) 0.90149(18)
O10_3 O 0.6864(6) 0.8432(4) 0.2500
O28_3 O 0.8350(6) 0.8169(4) 0.20285(17)
In5_2 In 0.15930(3) 0.57965(4) 0.09211(2)
In14_2 In 0.42035(2) 0.57965(4) 0.09211(2)
In17 In 0.42035(2) 0.84070(3) 0.09211(2)
O30_2 O 0.1426(4) 0.5713(5) 0.0273(2)
O39_2 O 0.2644(7) 0.7355(9) 0.0938(3)
O40_2 O 0.2645(3) 0.5289(8) 0.0938(3)
O47_2 O 0.0417(6) 0.4216(7) 0.09851(18)
O57_2 O 0.3799(4) 0.4216(7) 0.09851(18)
O58_2 O 0.0417(6) 0.6201(8) 0.09851(18)
O63_2 O 0.1526(6) 0.5763(7) 0.1593(3)
O76_2 O 0.4277(4) 0.0541(6) 0.04178(19)
O77_2 O 0.4277(4) 0.3736(7) 0.04178(19)
C11_2 C 0.2064(8) 0.1032(12) 0.1888(3)
C21_2 C 0.3911(6) 0.0318(8) 0.0773(2)
C22_2 C 0.3911(6) 0.3593(10) 0.0773(2)
C27_2 C 0.2736(8) 0.1368(12) 0.1506(3)
C32_2 C 0.3872(4) 0.1936(11) 0.0785(3)
H7_2 H 0.4246 0.2123 0.0544
C42_2 C 0.3588(6) 0.0994(8) 0.0969(2)
C43_2 C 0.3588(6) 0.2594(10) 0.0969(2)
C53_2 C 0.3020(6) 0.0721(8) 0.1327(2)
C54_2 C 0.3020(6) 0.2299(10) 0.1327(2)
H17_2 H 0.2828 0.0102 0.1448
H18_2 H 0.2828 0.2726 0.1448
O56_2 O 0.3799(4) 0.9583(6) 0.09851(18)
O8_2 O 0.6264(5) 0.0541(6) 0.04178(19)
C1_3 C 0.8968(4) 0.1032(9) 0.1888(3)
C2_3 C 0.6407(6) 0.0318(8) 0.0773(2)
C3_3 C 0.8632(4) 0.1368(9) 0.1506(3)
C4_3 C 0.8064(9) 0.1936(10) 0.0785(3)
H1_3 H 0.7877 0.2123 0.0544
C5_3 C 0.7406(6) 0.0994(8) 0.0969(2)
C6_3 C 0.7701(5) 0.0721(8) 0.1327(2)
H2_3 H 0.7274 0.0102 0.1448
O35 O 0.4287(3) 0.5713(5) 0.0273(2)
O46 O 0.4711(6) 0.7355(9) 0.0938(3)
O61_2 O 0.5784(5) 0.6201(8) 0.09851(18)
O66_2 O 0.4237(4) 0.5763(7) 0.1593(3)
O67_2 O 0.9459(6) 0.3736(7) 0.04178(19)
O78_2 O 0.9459(6) 0.5723(8) 0.04178(19)
C12_3 C 0.9682(8) 0.3593(10) 0.0773(2)
C33_3 C 0.9006(8) 0.2594(10) 0.0969(2)
C44_3 C 0.9279(8) 0.2299(10) 0.1327(2)
H8_3 H 0.9898 0.2726 0.1448
O29_2 O 0.5713(3) 0.1426(4) 0.9727(2)
O31_2 O 0.8574(4) 0.4287(5) 0.9727(2)
O37 O 0.5289(6) 0.2644(7) 0.9062(3)
O38_2 O 0.7356(7) 0.2645(9) 0.9062(3)
O62_2 O 0.5763(4) 0.1526(6) 0.8407(3)
O4_2 O 0.4287(3) 0.8574(4) 0.0273(2)
O6_2 O 0.5784(5) 0.9583(6) 0.09851(18)
O7_2 O 0.4237(4) 0.8474(6) 0.1593(3)
O82_2 O 0.6264(5) 0.5723(8) 0.04178(19)
O32_2 O 0.5713(3) 0.4287(5) 0.9727(2)
O42_2 O 0.7356(7) 0.4711(8) 0.9062(3)
O64_2 O 0.5763(4) 0.4237(7) 0.8407(3)
O65_2 O 0.8474(6) 0.4237(7) 0.8407(3)
C1_4 C 0.8968(9) 0.7936(8) 0.1888(3)
C2_4 C 0.9682(8) 0.6089(6) 0.0773(2)
C3_4 C 0.8632(9) 0.7264(8) 0.1506(3)
C4_4 C 0.8064(10) 0.6128(4) 0.0785(3)
H1_4 H 0.7877 0.5754 0.0544
C5_4 C 0.9006(8) 0.6412(6) 0.0969(2)
C6_4 C 0.9279(8) 0.6980(6) 0.1327(2)
H2_4 H 0.9898 0.7172 0.1448
C12_4 C 0.6407(10) 0.6089(6) 0.0773(2)
C33_4 C 0.7406(10) 0.6412(6) 0.0969(2)
C44_4 C 0.7701(10) 0.6980(6) 0.1327(2)
H8_4 H 0.7274 0.7172 0.1448
loop_
_geom_bond_atom_site_label_1
_geom_bond_atom_site_label_2
_geom_bond_site_symmetry_1
_geom_bond_site_symmetry_2
In13 O56 1_555 1_555
In24 O76 1_555 1_555
In25 O77 1_555 1_555
In28 O2 1_555 1_555
O22 In28 1_555 1_555
O56 C21 1_555 1_555
O76 C21 1_555 1_555
O77 C22 1_555 1_555
C11 O21 1_555 1_555
C21 C42 1_555 1_555
C27 C11 1_555 1_555
C32 H7 1_555 1_555
C42 C32 1_555 1_555
C43 C22 1_555 1_555
C53 C27 1_555 1_555
C54 C27 1_555 1_555
H17 C53 1_555 1_555
H18 C54 1_555 1_555
O22 C11 1_555 1_555
C32 C43 1_555 1_555
C42 C53 1_555 1_555
C43 C54 1_555 1_555
In6 O32 1_555 1_555
In25 O32 1_555 1_555
In27 O10 1_555 1_555
O11_2 In27 1_555 1_555
O41 In6 1_555 1_555
O42 In6 1_555 1_555
O49 In6 1_555 1_555
O59 In6 1_555 1_555
O64 In6 1_555 1_555
O82 In25 1_555 1_555
In3 O1 1_555 1_555
O2_3 In3 1_555 1_555
In5 O30 1_555 1_555
In12 O55 1_555 1_555
In14 O40 1_555 1_555
In13 O39 1_555 1_555
In18 O30 1_555 1_555
O39 In5 1_555 1_555
O40 In5 1_555 1_555
O47 In5 1_555 1_555
O57 In14 1_555 1_555
O58 In5 1_555 1_555
O63 In5 1_555 1_555
O79 In18 1_555 1_555
O80 In18 1_555 1_555
In13 O4 1_555 1_555
In24 O4 1_555 1_555
O6 In13 1_555 1_555
O7 In13 1_555 1_555
O8 In24 1_555 1_555
C1 O3 1_555 1_555
C2 O6 1_555 1_555
C3 C1 1_555 1_555
C4 H1 1_555 1_555
C5 C2 1_555 1_555
C6 C3 1_555 1_555
H2 C6 1_555 1_555
In4 O29 1_555 1_555
In14 O33 1_555 1_555
In11 O54 1_555 1_555
In15 O31 1_555 1_555
In22_2 O74 1_555 1_555
In23_4 O75 1_555 1_555
In26 O2_4 1_555 1_555
In29 O11_4 1_555 1_555
In31 O16 1_555 1_555
O9 In26 1_555 1_555
O12 C1 1_555 1_555
O14 In29 1_555 1_555
O27 C8 1_555 1_555
O16 C8 1_555 1_555
O20 In26 1_555 1_555
O29 In24 1_555 1_555
O31 In18_2 1_555 1_555
O33 In25_2 1_555 1_555
O36 In13 1_555 1_555
O41 In4 1_555 1_555
O38 In4 1_555 1_555
O48 In4 1_555 1_555
O50 In4 1_555 1_555
O54 C19 1_555 1_555
O62 In4 1_555 1_555
O67 In18_2 1_555 1_555
O68 In24 1_555 1_555
O69 In25_2 1_555 1_555
O70 In24 1_555 1_555
O74 C19 1_555 1_555
O75 C20 1_555 1_555
O78 In18_2 1_555 1_555
O83 In25_2 1_555 1_555
C7 O13 1_555 1_555
C8 C24 1_555 1_555
C10 O19 1_555 1_555
C13 O48 1_555 1_555
C15 O50 1_555 1_555
C19 C40 1_555 1_555
C20 C41 1_555 1_555
C23 C7 1_555 1_555
C24 C47 1_555 1_555
C26 C10 1_555 1_555
C28 H3 1_555 1_555
C29 H4 1_555 1_555
C31 H6 1_555 1_555
C33 C4 1_555 1_555
C34 C13 1_555 1_555
C35 C14 1_555 1_555
C36 C15 1_555 1_555
C37 C16 1_555 1_555
C40 C31 1_555 1_555
C41 C31 1_555 1_555
C44 C3 1_555 1_555
C45 C23 1_555 1_555
C46 C23 1_555 1_555
C47 C36 1_555 1_555
C48 C24 1_555 1_555
C51 C26 1_555 1_555
C52 C26 1_555 1_555
H8 C44 1_555 1_555
H9 C45 1_555 1_555
H10 C46 1_555 1_555
H11 C47 1_555 1_555
H12 C48 1_555 1_555
H15 C51 1_555 1_555
H16 C52 1_555 1_555
O8 C2 1_555 1_555
C4 C5 1_555 1_555
C5 C6 1_555 1_555
In14 O36 1_555 1_555
In15 O38 1_555 1_555
In26 O12 1_555 1_555
O14 C7 1_555 1_555
O20 C10 1_555 1_555
O67 C12 1_555 1_555
O68 C13 1_555 1_555
O69 C14 1_555 1_555
O70 C15 1_555 1_555
O80 C16 1_555 1_555
C12 C33 1_555 1_555
C28 C34 1_555 1_555
C28 C35 1_555 1_555
C29 C36 1_555 1_555
C29 C37 1_555 1_555
C33 C44 1_555 1_555
C34 C45 1_555 1_555
C35 C46 1_555 1_555
C37 C48 1_555 1_555
C40 C51 1_555 1_555
C41 C52 1_555 1_555
O42 In15 1_555 1_555
O51 In15 1_555 1_555
O60 In15 1_555 1_555
O65 In15 1_555 1_555
O61 In14 1_555 1_555
O66 In14 1_555 1_555
In12 O54_2 1_555 1_555
In31 O10_2 1_555 1_555
O9_2 In28 1_555 1_555
O11 In31 1_555 1_555
O15 C8_2 1_555 1_555
O16_2 C8_2 1_555 1_555
O25_2 In28 1_555 1_555
O26_2 In31 1_555 1_555
C8_2 C24_2 1_555 1_555
C24_2 C47_2 1_555 1_555
C29_2 H4_2 1_555 1_555
C36_2 C15_2 1_555 1_555
C37_2 C16_2 1_555 1_555
C47_2 C36_2 1_555 1_555
C48_2 C24_2 1_555 1_555
H11_2 C47_2 1_555 1_555
H12_2 C48_2 1_555 1_555
O79 C15_2 1_555 1_555
O83 C16_2 1_555 1_555
C29_2 C36_2 1_555 1_555
C29_2 C37_2 1_555 1_555
C37_2 C48_2 1_555 1_555
C1_2 O24 1_555 1_555
C3_2 C1_2 1_555 1_555
C4_2 H1_2 1_555 1_555
C5_2 C2_2 1_555 1_555
C6_2 C3_2 1_555 1_555
H2_2 C6_2 1_555 1_555
In23_4 O74_2 1_555 1_555
In23_6 O75_2 1_555 1_555
O12_2 C1_2 1_555 1_555
O74_2 C19_2 1_555 1_555
O75_2 C20_2 1_555 1_555
C10_2 O25 1_555 1_555
C19_2 C40_2 1_555 1_555
C20_2 C41_2 1_555 1_555
C26_2 C10_2 1_555 1_555
C31_2 H6_2 1_555 1_555
C33_2 C4_2 1_555 1_555
C40_2 C31_2 1_555 1_555
C41_2 C31_2 1_555 1_555
C44_2 C3_2 1_555 1_555
C51_2 C26_2 1_555 1_555
C52_2 C26_2 1_555 1_555
H8_2 C44_2 1_555 1_555
H15_2 C51_2 1_555 1_555
H16_2 C52_2 1_555 1_555
O78 C2_2 1_555 1_555
C4_2 C5_2 1_555 1_555
C5_2 C6_2 1_555 1_555
O20_2 C10_2 1_555 1_555
O82 C12_2 1_555 1_555
C12_2 C33_2 1_555 1_555
C33_2 C44_2 1_555 1_555
C40_2 C51_2 1_555 1_555
C41_2 C52_2 1_555 1_555
In12_2 O55_2 1_555 1_555
In11 O55_3 1_555 1_555
In23_6 O74_3 1_555 1_555
In22_2 O75_3 1_555 1_555
O55_3 C20_3 1_555 1_555
O74_3 C19_3 1_555 1_555
O75_3 C20_3 1_555 1_555
C10_3 O25_2 1_555 1_555
C19_3 C40_3 1_555 1_555
C20_3 C41_3 1_555 1_555
C26_3 C10_3 1_555 1_555
C31_3 H6_3 1_555 1_555
C40_3 C31_3 1_555 1_555
C41_3 C31_3 1_555 1_555
C51_3 C26_3 1_555 1_555
C52_3 C26_3 1_555 1_555
H15_3 C51_3 1_555 1_555
H16_3 C52_3 1_555 1_555
O23 C10_3 1_555 1_555
C40_3 C51_3 1_555 1_555
C41_3 C52_3 1_555 1_555
In12_2 O54_3 1_555 1_555
In29 O10_3 1_555 1_555
O28_3 In29 1_555 1_555
In5_2 O30_2 1_555 1_555
In14_2 O40_2 1_555 1_555
In17 O39_2 1_555 1_555
In23_5 O30_2 1_555 1_555
In23 O76_2 1_555 1_555
In22 O77_2 1_555 1_555
O39_2 In5_2 1_555 1_555
O40_2 In5_2 1_555 1_555
O47_2 In5_2 1_555 1_555
O57_2 In14_2 1_555 1_555
O58_2 In5_2 1_555 1_555
O63_2 In5_2 1_555 1_555
O76_2 C21_2 1_555 1_555
O77_2 C22_2 1_555 1_555
C11_2 O26_2 1_555 1_555
C21_2 C42_2 1_555 1_555
C22_2 O57_2 1_555 1_555
C27_2 C11_2 1_555 1_555
C32_2 H7_2 1_555 1_555
C42_2 C32_2 1_555 1_555
C43_2 C22_2 1_555 1_555
C53_2 C27_2 1_555 1_555
C54_2 C27_2 1_555 1_555
H17_2 C53_2 1_555 1_555
H18_2 C54_2 1_555 1_555
O28 C11_2 1_555 1_555
C32_2 C43_2 1_555 1_555
C42_2 C53_2 1_555 1_555
C43_2 C54_2 1_555 1_555
In17 O56_2 1_555 1_555
O8_2 In23 1_555 1_555
C1_3 O28_2 1_555 1_555
C3_3 C1_3 1_555 1_555
C4_3 H1_3 1_555 1_555
C5_3 C2_3 1_555 1_555
C6_3 C3_3 1_555 1_555
H2_3 C6_3 1_555 1_555
In14_2 O35 1_555 1_555
In22 O35 1_555 1_555
O26_3 C1_3 1_555 1_555
O46 In14_2 1_555 1_555
O61_2 In14_2 1_555 1_555
O66_2 In14_2 1_555 1_555
O67_2 In23_7 1_555 1_555
O78_2 In23_7 1_555 1_555
C33_3 C4_3 1_555 1_555
C44_3 C3_3 1_555 1_555
H8_3 C44_3 1_555 1_555
O8_2 C2_3 1_555 1_555
C4_3 C5_3 1_555 1_555
C5_3 C6_3 1_555 1_555
O67_2 C12_3 1_555 1_555
C12_3 C33_3 1_555 1_555
C33_3 C44_3 1_555 1_555
In12 O29_2 1_555 1_555
In12_2 O31_2 1_555 1_555
In11 O37 1_555 1_555
O29_2 In23_2 1_555 1_555
O31_2 In23_8 1_555 1_555
O37 In12 1_555 1_555
O38_2 In12 1_555 1_555
O62_2 In12 1_555 1_555
In12_2 O38_2 1_555 1_555
In17 O4_2 1_555 1_555
In23_3 O4_2 1_555 1_555
O6_2 In17 1_555 1_555
O7_2 In17 1_555 1_555
O46 In17 1_555 1_555
O82_2 In22 1_555 1_555
In11 O32_2 1_555 1_555
In22_2 O32_2 1_555 1_555
O42_2 In11 1_555 1_555
O64_2 In11 1_555 1_555
O42_2 In12_2 1_555 1_555
O65_2 In12_2 1_555 1_555
C1_4 O28_3 1_555 1_555
C3_4 C1_4 1_555 1_555
C4_4 H1_4 1_555 1_555
C5_4 C2_4 1_555 1_555
C6_4 C3_4 1_555 1_555
H2_4 C6_4 1_555 1_555
O26 C1_4 1_555 1_555
C12_4 O61_2 1_555 1_555
C33_4 C4_4 1_555 1_555
C44_4 C3_4 1_555 1_555
H8_4 C44_4 1_555 1_555
O78_2 C2_4 1_555 1_555
C4_4 C5_4 1_555 1_555
C5_4 C6_4 1_555 1_555
O82_2 C12_4 1_555 1_555
C12_4 C33_4 1_555 1_555
C33_4 C44_4 1_555 1_555

#END
