
###############################################################################
#
# This file contains modified crystal structure data generated from the
# MOF subset of the Cambridge Structural Database (CSD) v543 
# hosted by the Cambridge Crystallographic Data Centre (CCDC).
#
# This work is licensed under the Creative Commons
# Attribution-NonCommercial-ShareAlike 4.0 International License.
# To view a copy of this license, visit
# http://creativecommons.org/licenses/by-nc-sa/4.0/
# or send a letter to
# Creative Commons, PO Box 1866, Mountain View, CA 94042, USA.
#
# CIF created using the CSD Python API on 29 September 2022
# The structure has been converted into the P1 space group
# The structure has a 3D framework
# The original CSD entry PEZCII is in the rhombohedral crystal system
# The original CSD entry PEZCII is in a Sohncke space group
# The framework has been calculated to contain at least 10.0% void space
# The void calculation uses a probe of radius 1.32A, grid spacing 0.4
#
###############################################################################

data_PEZCII
_chemical_formula_moiety         '(C253 H155 La16 O68)n'
_symmetry_cell_setting           triclinic
_symmetry_space_group_name_H-M   'P 1'
_symmetry_Int_Tables_number      1
_space_group_name_Hall           'P 1'
loop_
_symmetry_equiv_pos_site_id
_symmetry_equiv_pos_as_xyz
1 x,y,z
_cell_length_a                   28.764(4)
_cell_length_b                   28.764(4)
_cell_length_c                   12.563(3)
_cell_angle_alpha                90
_cell_angle_beta                 90
_cell_angle_gamma                120
_cell_volume                     9001.66
loop_
_atom_site_label
_atom_site_type_symbol
_atom_site_fract_x
_atom_site_fract_y
_atom_site_fract_z
La2 La 0.0000 0.322216(13) 0.0000
La2_2 La 0.0000 0.322216(13) 1.0000
La6 La 0.011117(13) 0.344451(13) 0.6667
La1 La 0.322216(13) 0.0000 0.0000
O4 O 0.2343(2) 0.0000 0.0000
La2_3 La 1.0000 0.322216(13) 0.0000
O9 O 0.39193(22) 0.01322(15) 0.1670(2)
O12 O 0.3497(2) 0.08729(19) 0.0835(4)
C1 C 0.4215(2) 0.0221(2) 0.8802(4)
C2 C 0.4727(2) 0.0217(2) 0.8658(5)
C3 C 0.5183(2) 0.0600(3) 0.9181(5)
H1 H 0.5174 0.0869 0.9591
C4 C 0.5652(2) 0.0577(2) 0.9087(5)
H2 H 0.5966 0.0842 0.9419
C5 C 0.5668(2) 0.0171(2) 0.8509(5)
C8 C 0.6183(2) 0.0158(2) 0.8406(4)
C9 C 0.6667 0.0635(3) 0.8333
H5 H 0.6667 0.0962 0.8333
La1_2 La 0.322216(13) 0.0000 1.0000
O1 O 0.42093(14) 0.05521(16) 0.9463(3)
O4_2 O 0.2343(2) 0.0000 1.0000
C17 C 0.9118(2) 0.2673(3) 0.7865(4)
C18 C 0.8606(2) 0.2157(3) 0.8009(5)
C19 C 0.8150(2) 0.2084(4) 0.7486(5)
H10 H 0.8159 0.2362 0.7076
C20 C 0.7681(2) 0.1592(3) 0.7580(5)
H11 H 0.7367 0.1543 0.7248
C21 C 0.7665(2) 0.1170(3) 0.8158(5)
C22 C 0.8116(3) 0.1243(4) 0.8688(5)
H12 H 0.8103 0.0970 0.9118
C23 C 0.8598(2) 0.1737(3) 0.8575(5)
H13 H 0.8915 0.1781 0.8883
C24 C 0.7150(2) 0.0642(3) 0.8261(4)
C25 C 0.7147(2) 0.0164(3) 0.8253(4)
H14 H 0.7475 0.0167 0.8192
O5 O 0.91240(14) 0.30095(21) 0.7204(3)
O6 O 0.95462(16) 0.27474(22) 0.8337(2)
H17 H 0.2300 0.0111 0.9401
La2_4 La 1.0000 0.322216(13) 1.0000
O11 O 0.32011(15) 0.04538(16) 0.8337(2)
La1_3 La 0.322216(13) 1.0000 0.0000
O4_3 O 0.2343(2) 1.0000 0.0000
H9 H 0.2189 0.9889 0.0599
La3 La 0.677784(13) 0.677784(13) 0.0000
O8 O 0.36572(21) 0.94479(16) 0.0537(3)
O10 O 0.27474(22) 0.95462(16) 0.1663(2)
C6 C 0.5217(3) 0.9793(2) 0.7979(5)
H3 H 0.5230 0.9533 0.7549
C7 C 0.4735(2) 0.9805(2) 0.8092(5)
H4 H 0.4418 0.9532 0.7784
C10 C 0.6186(2) 0.9683(2) 0.8414(4)
H6 H 0.5858 0.9358 0.8475
C11 C 0.6667 0.9669(2) 0.8333
C12 C 0.6667 0.9158(2) 0.8333
C13 C 0.7027(2) 0.9086(2) 0.7699(5)
H7 H 0.7277 0.9373 0.7277
C14 C 0.7022(3) 0.8607(2) 0.7680(5)
H8 H 0.7256 0.8559 0.7232
C15 C 0.6667 0.8198(2) 0.8333
C16 C 0.6667 0.7663(3) 0.8333
La1_4 La 0.322216(13) 1.0000 1.0000
O2 O 0.37871(16) 0.98678(15) 0.8330(2)
O3 O 0.6830(2) 0.75396(19) 0.7502(4)
O4_4 O 0.2343(2) 1.0000 1.0000
C26 C 0.6306(2) 0.8726(3) 0.8968(5)
H15 H 0.6056 0.8763 0.9390
C27 C 0.6311(3) 0.8252(4) 0.8987(5)
H16 H 0.6077 0.7970 0.9435
O7 O 0.6503(2) 0.73763(28) 0.9165(4)
La3_2 La 0.677784(13) 0.677784(13) 1.0000
La4 La 0.655549(13) 0.6667 0.6667
La5 La 0.3333 0.988883(13) 0.6667
O13 O 0.26237(28) 0.91271(19) 0.9165(4)
O4_5 O -0.0000 0.2343(2) 0.0000
H9_2 H 0.0111 0.2300 0.0599
O8_2 O 0.05521(16) 0.42093(26) 0.0537(3)
O10_2 O 0.04538(16) 0.32011(27) 0.1663(2)
C6_2 C 0.0207(2) 0.5424(4) 0.7979(5)
H3_2 H 0.0467 0.5697 0.7549
C7_2 C 0.0195(2) 0.4930(3) 0.8092(5)
H4_2 H 0.0468 0.4886 0.7784
C10_2 C 0.0317(2) 0.6503(3) 0.8414(4)
H6_2 H 0.0642 0.6500 0.8475
C11_2 C 0.0331(2) 0.6998(2) 0.8333
C12_2 C 0.0842(2) 0.7509(2) 0.8333
C13_2 C 0.0914(2) 0.7941(3) 0.7699(5)
H7_2 H 0.0627 0.7904 0.7277
C14_2 C 0.1393(2) 0.8415(4) 0.7680(5)
H8_2 H 0.1441 0.8697 0.7232
C15_2 C 0.1802(2) 0.8469(2) 0.8333
C16_2 C 0.2337(3) 0.9004(3) 0.8333
O2_2 O 0.01322(15) 0.39193(22) 0.8330(2)
O3_2 O 0.24604(19) 0.92904(28) 0.7502(4)
O4_6 O -0.0000 0.2343(2) 1.0000
C26_2 C 0.1274(3) 0.7581(4) 0.8968(5)
H15_2 H 0.1237 0.7294 0.9390
C27_2 C 0.1748(4) 0.8060(5) 0.8987(5)
H16_2 H 0.2030 0.8108 0.9435
O13_2 O 0.08729(19) 0.34967(34) 0.9165(4)
O4_7 O 1.0000 0.2343(2) 0.0000
O9_2 O 0.98678(15) 0.37871(27) 0.1670(2)
O12_2 O 0.91271(19) 0.26237(28) 0.0835(4)
C1_2 C 0.9779(2) 0.3994(3) 0.8802(4)
C2_2 C 0.9783(2) 0.4510(3) 0.8658(5)
C3_2 C 0.9400(3) 0.4583(4) 0.9181(5)
H1_2 H 0.9131 0.4305 0.9591
C4_2 C 0.9423(2) 0.5075(3) 0.9087(5)
H2_2 H 0.9158 0.5124 0.9419
C5_2 C 0.9829(2) 0.5497(3) 0.8509(5)
C8_2 C 0.9842(2) 0.6025(3) 0.8406(4)
C9_2 C 0.9365(3) 0.6032(3) 0.8333
H5_2 H 0.9038 0.5705 0.8333
O1_2 O 0.94479(16) 0.36572(21) 0.9463(3)
O4_8 O 1.0000 0.2343(2) 1.0000
C17_2 C 0.7327(3) 0.6446(4) 0.7865(4)
C18_2 C 0.7843(3) 0.6450(4) 0.8009(5)
C19_2 C 0.7916(4) 0.6067(4) 0.7486(5)
H10_2 H 0.7638 0.5798 0.7076
C20_2 C 0.8408(3) 0.6090(4) 0.7580(5)
H11_2 H 0.8457 0.5825 0.7248
C21_2 C 0.8830(3) 0.6496(4) 0.8158(5)
C22_2 C 0.8757(4) 0.6874(5) 0.8688(5)
H12_2 H 0.9030 0.7134 0.9118
C23_2 C 0.8263(3) 0.6862(4) 0.8575(5)
H13_2 H 0.8219 0.7135 0.8883
C24_2 C 0.9358(3) 0.6509(4) 0.8261(4)
C25_2 C 0.9836(3) 0.6984(4) 0.8253(4)
H14_2 H 0.9833 0.7309 0.8192
O5_2 O 0.69905(21) 0.61146(25) 0.7204(3)
O6_2 O 0.72526(22) 0.67989(27) 0.8337(2)
H17_2 H 0.9889 0.2189 0.9401
O4_9 O 0.7657(2) 0.7657(2) 0.0000
H9_3 H 0.7700 0.7811 0.0599
O8_3 O 0.57907(26) 0.63428(21) 0.0537(3)
O9_3 O 0.62129(27) 0.60807(22) 0.1670(2)
O10_3 O 0.67989(27) 0.72526(22) 0.1663(2)
O12_3 O 0.73763(28) 0.6503(2) 0.0835(4)
C1_3 C 0.6006(3) 0.5785(2) 0.8802(4)
C2_3 C 0.5490(3) 0.5273(2) 0.8658(5)
C3_3 C 0.5417(4) 0.4817(2) 0.9181(5)
H1_3 H 0.5695 0.4826 0.9591
C4_3 C 0.4925(3) 0.4348(2) 0.9087(5)
H2_3 H 0.4876 0.4034 0.9419
C5_3 C 0.4503(3) 0.4332(2) 0.8509(5)
C6_3 C 0.4576(4) 0.4783(3) 0.7979(5)
H3_3 H 0.4303 0.4770 0.7549
C7_3 C 0.5070(3) 0.5265(2) 0.8092(5)
H4_3 H 0.5114 0.5582 0.7784
C8_3 C 0.3975(3) 0.3817(2) 0.8406(4)
C9_3 C 0.3968(3) 0.3333 0.8333
H5_3 H 0.4295 0.3333 0.8333
C10_3 C 0.3497(3) 0.3814(2) 0.8414(4)
H6_3 H 0.3500 0.4142 0.8475
C11_3 C 0.3002(2) 0.3333 0.8333
C12_3 C 0.2491(2) 0.3333 0.8333
C13_3 C 0.2059(3) 0.2973(2) 0.7699(5)
H7_3 H 0.2096 0.2723 0.7277
C14_3 C 0.1585(4) 0.2978(3) 0.7680(5)
H8_3 H 0.1303 0.2744 0.7232
C15_3 C 0.1531(2) 0.3333 0.8333
C16_3 C 0.0996(3) 0.3333 0.8333
O1_3 O 0.63428(21) 0.57907(14) 0.9463(3)
O2_3 O 0.60807(22) 0.62129(16) 0.8330(2)
O3_3 O 0.07096(28) 0.3170(2) 0.7502(4)
O4_10 O 0.7657(2) 0.7657(2) 1.0000
C17_3 C 0.3554(4) 0.0882(2) 0.7865(4)
C18_3 C 0.3550(4) 0.1394(2) 0.8009(5)
C19_3 C 0.3933(4) 0.1850(2) 0.7486(5)
H10_3 H 0.4202 0.1841 0.7076
C20_3 C 0.3910(4) 0.2319(2) 0.7580(5)
H11_3 H 0.4175 0.2633 0.7248
C21_3 C 0.3504(4) 0.2335(2) 0.8158(5)
C22_3 C 0.3126(5) 0.1884(3) 0.8688(5)
H12_3 H 0.2866 0.1897 0.9118
C23_3 C 0.3138(4) 0.1402(2) 0.8575(5)
H13_3 H 0.2865 0.1085 0.8883
C24_3 C 0.3491(4) 0.2850(2) 0.8261(4)
C25_3 C 0.3016(4) 0.2853(2) 0.8253(4)
H14_3 H 0.2691 0.2525 0.8192
C26_3 C 0.2419(4) 0.3694(2) 0.8968(5)
H15_3 H 0.2706 0.3944 0.9390
C27_3 C 0.1940(5) 0.3689(3) 0.8987(5)
H16_3 H 0.1892 0.3923 0.9435
O5_3 O 0.38854(25) 0.08760(14) 0.7204(3)
H17_3 H 0.7811 0.7700 0.9401
La6_2 La 0.344451(13) 0.011117(13) 0.3333
C1_4 C 0.0221(2) 0.4215(2) 0.1198(4)
C2_4 C 0.0217(2) 0.4727(2) 0.1342(5)
C3_4 C 0.0600(3) 0.5183(2) 0.0819(5)
H1_4 H 0.0869 0.5174 0.0409
C4_4 C 0.0577(2) 0.5652(2) 0.0913(5)
H2_4 H 0.0842 0.5966 0.0581
C5_4 C 0.0171(2) 0.5668(2) 0.1491(5)
C8_4 C 0.0158(2) 0.6183(2) 0.1594(4)
C9_4 C 0.0635(3) 0.6667 0.1667
H5_4 H 0.0962 0.6667 0.1667
C17_4 C 0.2673(3) 0.9118(2) 0.2135(4)
C18_4 C 0.2157(3) 0.8606(2) 0.1991(5)
C19_4 C 0.2084(4) 0.8150(2) 0.2514(5)
H10_4 H 0.2362 0.8159 0.2924
C20_4 C 0.1592(3) 0.7681(2) 0.2420(5)
H11_4 H 0.1543 0.7367 0.2752
C21_4 C 0.1170(3) 0.7665(2) 0.1842(5)
C22_4 C 0.1243(4) 0.8116(3) 0.1312(5)
H12_4 H 0.0970 0.8103 0.0882
C23_4 C 0.1737(3) 0.8598(2) 0.1425(5)
H13_4 H 0.1781 0.8915 0.1117
C24_4 C 0.0642(3) 0.7150(2) 0.1739(4)
C25_4 C 0.0164(3) 0.7147(2) 0.1747(4)
H14_4 H 0.0167 0.7475 0.1808
O5_4 O 0.30095(21) 0.91240(14) 0.2796(3)
C6_4 C 0.9793(2) 0.5217(3) 0.2021(5)
H3_4 H 0.9533 0.5230 0.2451
C7_4 C 0.9805(2) 0.4735(2) 0.1908(5)
H4_4 H 0.9532 0.4418 0.2216
C10_4 C 0.9683(2) 0.6186(2) 0.1586(4)
H6_4 H 0.9358 0.5858 0.1525
C11_4 C 0.9669(2) 0.6667 0.1667
C12_4 C 0.9158(2) 0.6667 0.1667
C13_4 C 0.9086(2) 0.7027(2) 0.2301(5)
H7_4 H 0.9373 0.7277 0.2723
C14_4 C 0.8607(2) 0.7022(3) 0.2320(5)
H8_4 H 0.8559 0.7256 0.2768
C15_4 C 0.8198(2) 0.6667 0.1667
C16_4 C 0.7663(3) 0.6667 0.1667
O3_4 O 0.75396(19) 0.6830(2) 0.2498(4)
C26_4 C 0.8726(3) 0.6306(2) 0.1032(5)
H15_4 H 0.8763 0.6056 0.0610
C27_4 C 0.8252(4) 0.6311(3) 0.1013(5)
H16_4 H 0.7970 0.6077 0.0565
La4_2 La 0.6667 0.655549(13) 0.3333
La5_2 La 0.988883(13) 0.3333 0.3333
C6_5 C 0.5424(4) 0.0207(2) 0.2021(5)
H3_5 H 0.5697 0.0467 0.2451
C7_5 C 0.4930(3) 0.0195(2) 0.1908(5)
H4_5 H 0.4886 0.0468 0.2216
C10_5 C 0.6503(3) 0.0317(2) 0.1586(4)
H6_5 H 0.6500 0.0642 0.1525
C11_5 C 0.6998(2) 0.0331(2) 0.1667
C12_5 C 0.7509(2) 0.0842(2) 0.1667
C13_5 C 0.7941(3) 0.0914(2) 0.2301(5)
H7_5 H 0.7904 0.0627 0.2723
C14_5 C 0.8415(4) 0.1393(2) 0.2320(5)
H8_5 H 0.8697 0.1441 0.2768
C15_5 C 0.8469(2) 0.1802(2) 0.1667
C16_5 C 0.9004(3) 0.2337(3) 0.1667
O3_5 O 0.92904(28) 0.24604(19) 0.2498(4)
C26_5 C 0.7581(4) 0.1274(3) 0.1032(5)
H15_5 H 0.7294 0.1237 0.0610
C27_5 C 0.8060(5) 0.1748(4) 0.1013(5)
H16_5 H 0.8108 0.2030 0.0565
C1_5 C 0.3994(3) 0.9779(2) 0.1198(4)
C2_5 C 0.4510(3) 0.9783(2) 0.1342(5)
C3_5 C 0.4583(4) 0.9400(3) 0.0819(5)
H1_5 H 0.4305 0.9131 0.0409
C4_5 C 0.5075(3) 0.9423(2) 0.0913(5)
H2_5 H 0.5124 0.9158 0.0581
C5_5 C 0.5497(3) 0.9829(2) 0.1491(5)
C8_5 C 0.6025(3) 0.9842(2) 0.1594(4)
C9_5 C 0.6032(3) 0.9365(3) 0.1667
H5_5 H 0.5705 0.9038 0.1667
C17_5 C 0.6446(4) 0.7327(3) 0.2135(4)
C18_5 C 0.6450(4) 0.7843(3) 0.1991(5)
C19_5 C 0.6067(4) 0.7916(4) 0.2514(5)
H10_5 H 0.5798 0.7638 0.2924
C20_5 C 0.6090(4) 0.8408(3) 0.2420(5)
H11_5 H 0.5825 0.8457 0.2752
C21_5 C 0.6496(4) 0.8830(3) 0.1842(5)
C22_5 C 0.6874(5) 0.8757(4) 0.1312(5)
H12_5 H 0.7134 0.9030 0.0882
C23_5 C 0.6862(4) 0.8263(3) 0.1425(5)
H13_5 H 0.7135 0.8219 0.1117
C24_5 C 0.6509(4) 0.9358(3) 0.1739(4)
C25_5 C 0.6984(4) 0.9836(3) 0.1747(4)
H14_5 H 0.7309 0.9833 0.1808
O5_5 O 0.61146(25) 0.69905(21) 0.2796(3)
C1_6 C 0.5785(2) 0.6006(3) 0.1198(4)
C2_6 C 0.5273(2) 0.5490(3) 0.1342(5)
C3_6 C 0.4817(2) 0.5417(4) 0.0819(5)
H1_6 H 0.4826 0.5695 0.0409
C4_6 C 0.4348(2) 0.4925(3) 0.0913(5)
H2_6 H 0.4034 0.4876 0.0581
C5_6 C 0.4332(2) 0.4503(3) 0.1491(5)
C6_6 C 0.4783(3) 0.4576(4) 0.2021(5)
H3_6 H 0.4770 0.4303 0.2451
C7_6 C 0.5265(2) 0.5070(3) 0.1908(5)
H4_6 H 0.5582 0.5114 0.2216
C8_6 C 0.3817(2) 0.3975(3) 0.1594(4)
C9_6 C 0.3333 0.3968(3) 0.1667
H5_6 H 0.3333 0.4295 0.1667
C10_6 C 0.3814(2) 0.3497(3) 0.1586(4)
H6_6 H 0.4142 0.3500 0.1525
C11_6 C 0.3333 0.3002(2) 0.1667
C12_6 C 0.3333 0.2491(2) 0.1667
C13_6 C 0.2973(2) 0.2059(3) 0.2301(5)
H7_6 H 0.2723 0.2096 0.2723
C14_6 C 0.2978(3) 0.1585(4) 0.2320(5)
H8_6 H 0.2744 0.1303 0.2768
C15_6 C 0.3333 0.1531(2) 0.1667
C16_6 C 0.3333 0.0996(3) 0.1667
O3_6 O 0.3170(2) 0.07096(28) 0.2498(4)
C17_6 C 0.0882(2) 0.3554(4) 0.2135(4)
C18_6 C 0.1394(2) 0.3550(4) 0.1991(5)
C19_6 C 0.1850(2) 0.3933(4) 0.2514(5)
H10_6 H 0.1841 0.4202 0.2924
C20_6 C 0.2319(2) 0.3910(4) 0.2420(5)
H11_6 H 0.2633 0.4175 0.2752
C21_6 C 0.2335(2) 0.3504(4) 0.1842(5)
C22_6 C 0.1884(3) 0.3126(5) 0.1312(5)
H12_6 H 0.1897 0.2866 0.0882
C23_6 C 0.1402(2) 0.3138(4) 0.1425(5)
H13_6 H 0.1085 0.2865 0.1117
C24_6 C 0.2850(2) 0.3491(4) 0.1739(4)
C25_6 C 0.2853(2) 0.3016(4) 0.1747(4)
H14_6 H 0.2525 0.2691 0.1808
C26_6 C 0.3694(2) 0.2419(4) 0.1032(5)
H15_6 H 0.3944 0.2706 0.0610
C27_6 C 0.3689(3) 0.1940(5) 0.1013(5)
H16_6 H 0.3923 0.1892 0.0565
O5_6 O 0.08760(14) 0.38854(25) 0.2796(3)
O8_4 O 0.03239(21) 0.27812(16) 0.3870(3)
O9_4 O 0.05860(22) 0.34655(15) 0.5003(2)
O12_4 O 0.0163(2) 0.42063(19) 0.4169(4)
O4_11 O 0.9010(2) 0.3333 0.3333
H9_4 H 0.8856 0.3222 0.3932
H17_4 H 0.8967 0.3444 0.2734
O10_4 O 0.94140(22) 0.28796(16) 0.4997(2)
O4_12 O 0.6667 0.5676(2) 0.3333
H9_5 H 0.6778 0.5633 0.3932
H17_5 H 0.6556 0.5522 0.2734
O8_5 O 0.72188(16) 0.75426(26) 0.3870(3)
O9_5 O 0.65345(15) 0.71204(27) 0.5003(2)
O10_5 O 0.71204(16) 0.65345(27) 0.4997(2)
O12_5 O 0.57937(19) 0.59571(28) 0.4169(4)
O4_13 O 0.4324(2) 0.0990(2) 0.3333
H9_6 H 0.4367 0.1144 0.3932
H17_6 H 0.4478 0.1033 0.2734
O10_6 O 0.34655(27) 0.05860(22) 0.4997(2)
O8_6 O 0.24574(26) 0.96761(21) 0.3870(3)
O9_6 O 0.28796(27) 0.94140(22) 0.5003(2)
O12_6 O 0.40429(28) 0.9837(2) 0.4169(4)
C9_7 C 0.7302(3) 0.0000 0.5000
H5_7 H 0.7629 0.0000 0.5000
C11_7 C 0.6336(2) 0.0000 0.5000
C12_7 C 0.5825(2) 0.0000 0.5000
C13_7 C 0.5753(2) 0.0360(2) 0.5634(5)
H7_7 H 0.6040 0.0610 0.6056
C14_7 C 0.5274(2) 0.0355(3) 0.5653(5)
H8_7 H 0.5226 0.0589 0.6101
C15_7 C 0.4865(2) 0.0000 0.5000
C16_7 C 0.4330(3) 0.0000 0.5000
O3_7 O 0.42063(19) 0.0163(2) 0.5831(4)
C17_7 C 0.9339(3) 0.2452(2) 0.5469(4)
C18_7 C 0.8823(3) 0.1940(2) 0.5325(5)
C19_7 C 0.8750(4) 0.1484(2) 0.5848(5)
H10_7 H 0.9028 0.1493 0.6258
C20_7 C 0.8258(3) 0.1015(2) 0.5754(5)
H11_7 H 0.8209 0.0701 0.6086
C21_7 C 0.7836(3) 0.0999(2) 0.5176(5)
C22_7 C 0.7909(4) 0.1450(3) 0.4646(5)
H12_7 H 0.7636 0.1437 0.4216
C23_7 C 0.8403(3) 0.1932(2) 0.4759(5)
H13_7 H 0.8447 0.2249 0.4451
C24_7 C 0.7308(3) 0.0484(2) 0.5073(4)
C25_7 C 0.6830(3) 0.0481(2) 0.5081(4)
H14_7 H 0.6833 0.0809 0.5142
O5_7 O 0.96761(21) 0.24574(14) 0.6130(3)
C1_7 C 0.6888(2) 0.7548(2) 0.4531(4)
C2_7 C 0.6884(2) 0.8060(2) 0.4675(5)
C3_7 C 0.7267(3) 0.8516(2) 0.4152(5)
H1_7 H 0.7536 0.8507 0.3742
C4_7 C 0.7244(2) 0.8985(2) 0.4246(5)
H2_7 H 0.7509 0.9299 0.3914
C5_7 C 0.6838(2) 0.9001(2) 0.4824(5)
C6_7 C 0.6460(2) 0.8550(3) 0.5354(5)
H3_7 H 0.6200 0.8563 0.5784
C7_7 C 0.6472(2) 0.8068(2) 0.5241(5)
H4_7 H 0.6199 0.7751 0.5549
C8_7 C 0.6825(2) 0.9516(2) 0.4927(4)
C9_8 C 0.7302(3) 1.0000 0.5000
H5_8 H 0.7629 1.0000 0.5000
C10_7 C 0.6350(2) 0.9519(2) 0.4919(4)
H6_7 H 0.6025 0.9191 0.4858
C11_8 C 0.6336(2) 1.0000 0.5000
C12_8 C 0.5825(2) 1.0000 0.5000
C15_8 C 0.4865(2) 1.0000 0.5000
C16_8 C 0.4330(3) 1.0000 0.5000
C26_7 C 0.5392(3) 0.9640(2) 0.4366(5)
H15_7 H 0.5429 0.9390 0.3944
C27_7 C 0.4918(4) 0.9645(3) 0.4347(5)
H16_7 H 0.4636 0.9411 0.3899
C1_8 C 0.0661(3) 0.3112(2) 0.4531(4)
C2_8 C 0.1177(3) 0.3116(2) 0.4675(5)
C3_8 C 0.1250(4) 0.2733(3) 0.4152(5)
H1_8 H 0.0972 0.2464 0.3742
C4_8 C 0.1742(3) 0.2756(2) 0.4246(5)
H2_8 H 0.1791 0.2491 0.3914
C5_8 C 0.2164(3) 0.3162(2) 0.4824(5)
C6_8 C 0.2091(4) 0.3540(2) 0.5354(5)
H3_8 H 0.2364 0.3800 0.5784
C7_8 C 0.1597(3) 0.3528(2) 0.5241(5)
H4_8 H 0.1553 0.3801 0.5549
C8_8 C 0.2692(3) 0.3175(2) 0.4927(4)
C9_9 C 0.2699(3) 0.2698(3) 0.5000
H5_9 H 0.2372 0.2371 0.5000
C10_8 C 0.3170(3) 0.3650(2) 0.4919(4)
H6_8 H 0.3167 0.3975 0.4858
C11_9 C 0.3665(2) 0.3664(2) 0.5000
C12_9 C 0.4176(2) 0.4175(2) 0.5000
C13_8 C 0.4608(3) 0.4247(2) 0.5634(5)
H7_8 H 0.4571 0.3960 0.6056
C14_8 C 0.5082(4) 0.4726(2) 0.5653(5)
H8_8 H 0.5364 0.4774 0.6101
C15_9 C 0.5136(2) 0.5135(2) 0.5000
C16_9 C 0.5671(3) 0.5670(3) 0.5000
O3_8 O 0.59571(28) 0.57937(19) 0.5831(4)
C17_8 C 0.3112(4) 0.0661(3) 0.5469(4)
C18_8 C 0.3116(4) 0.1177(3) 0.5325(5)
C19_8 C 0.2733(4) 0.1250(4) 0.5848(5)
H10_8 H 0.2464 0.0972 0.6258
C20_8 C 0.2756(4) 0.1742(3) 0.5754(5)
H11_8 H 0.2491 0.1791 0.6086
C21_8 C 0.3162(4) 0.2164(3) 0.5176(5)
C22_8 C 0.3540(5) 0.2091(4) 0.4646(5)
H12_8 H 0.3800 0.2364 0.4216
C23_8 C 0.3528(4) 0.1597(3) 0.4759(5)
H13_8 H 0.3801 0.1553 0.4451
C24_8 C 0.3175(4) 0.2692(3) 0.5073(4)
C25_8 C 0.3650(4) 0.3170(3) 0.5081(4)
H14_8 H 0.3975 0.3167 0.5142
C26_8 C 0.4247(4) 0.4608(3) 0.4366(5)
H15_8 H 0.3960 0.4571 0.3944
C27_8 C 0.4726(5) 0.5082(4) 0.4347(5)
H16_8 H 0.4774 0.5364 0.3899
O5_8 O 0.27812(25) 0.03239(21) 0.6130(3)
C1_9 C 0.2452(2) 0.9339(3) 0.4531(4)
C2_9 C 0.1940(2) 0.8823(3) 0.4675(5)
C3_9 C 0.1484(2) 0.8750(4) 0.4152(5)
H1_9 H 0.1493 0.9028 0.3742
C4_9 C 0.1015(2) 0.8258(3) 0.4246(5)
H2_9 H 0.0701 0.8209 0.3914
C5_9 C 0.0999(2) 0.7836(3) 0.4824(5)
C6_9 C 0.1450(3) 0.7909(4) 0.5354(5)
H3_9 H 0.1437 0.7636 0.5784
C7_9 C 0.1932(2) 0.8403(3) 0.5241(5)
H4_9 H 0.2249 0.8447 0.5549
C8_9 C 0.0484(2) 0.7308(3) 0.4927(4)
C9_10 C -0.0000 0.7301(3) 0.5000
H5_10 H -0.0000 0.7628 0.5000
C10_9 C 0.0481(2) 0.6830(3) 0.4919(4)
H6_9 H 0.0809 0.6833 0.4858
C11_10 C -0.0000 0.6335(2) 0.5000
C12_10 C -0.0000 0.5824(2) 0.5000
C15_10 C -0.0000 0.4864(2) 0.5000
C16_10 C -0.0000 0.4329(3) 0.5000
C26_9 C 0.0360(2) 0.5753(4) 0.4366(5)
H15_9 H 0.0610 0.6040 0.3944
C27_9 C 0.0355(3) 0.5274(5) 0.4347(5)
H16_9 H 0.0589 0.5226 0.3899
C9_11 C 1.0000 0.7301(3) 0.5000
H5_11 H 1.0000 0.7628 0.5000
C11_11 C 1.0000 0.6335(2) 0.5000
C12_11 C 1.0000 0.5824(2) 0.5000
C13_9 C 0.9640(2) 0.5392(3) 0.5634(5)
H7_9 H 0.9390 0.5429 0.6056
C14_9 C 0.9645(3) 0.4918(4) 0.5653(5)
H8_9 H 0.9411 0.4636 0.6101
C15_11 C 1.0000 0.4864(2) 0.5000
C16_11 C 1.0000 0.4329(3) 0.5000
O3_9 O 0.9837(2) 0.40429(28) 0.5831(4)
C17_9 C 0.7548(2) 0.6888(4) 0.5469(4)
C18_9 C 0.8060(2) 0.6884(4) 0.5325(5)
C19_9 C 0.8516(2) 0.7267(4) 0.5848(5)
H10_9 H 0.8507 0.7536 0.6258
C20_9 C 0.8985(2) 0.7244(4) 0.5754(5)
H11_9 H 0.9299 0.7509 0.6086
C21_9 C 0.9001(2) 0.6838(4) 0.5176(5)
C22_9 C 0.8550(3) 0.6460(5) 0.4646(5)
H12_9 H 0.8563 0.6200 0.4216
C23_9 C 0.8068(2) 0.6472(4) 0.4759(5)
H13_9 H 0.7751 0.6199 0.4451
C24_9 C 0.9516(2) 0.6825(4) 0.5073(4)
C25_9 C 0.9519(2) 0.6350(4) 0.5081(4)
H14_9 H 0.9191 0.6025 0.5142
O5_9 O 0.75426(14) 0.72188(25) 0.6130(3)
O4_14 O 0.5676(2) 0.6667 0.6667
H9_7 H 0.5522 0.6556 0.7266
H17_7 H 0.5633 0.6778 0.6068
O4_15 O 0.3333 0.9010(2) 0.6667
H9_8 H 0.3444 0.8967 0.7266
H17_8 H 0.3222 0.8856 0.6068
O4_16 O 0.0990(2) 0.4324(2) 0.6667
H9_9 H 0.1033 0.4478 0.7266
H17_9 H 0.1144 0.4367 0.6068
loop_
_geom_bond_atom_site_label_1
_geom_bond_atom_site_label_2
_geom_bond_site_symmetry_1
_geom_bond_site_symmetry_2
O4 La1 1_555 1_555
O9 La1 1_555 1_555
O12 La1 1_555 1_555
C1 C2 1_555 1_555
C2 C3 1_555 1_555
C3 H1 1_555 1_555
C4 C3 1_555 1_555
H2 C4 1_555 1_555
C5 C4 1_555 1_555
C8 C5 1_555 1_555
C9 C8 1_555 1_555
H5 C9 1_555 1_555
La1_2 O1 1_555 1_555
O1 C1 1_555 1_555
O4_2 La1_2 1_555 1_555
C17 C18 1_555 1_555
C18 C19 1_555 1_555
C19 H10 1_555 1_555
C20 C19 1_555 1_555
H11 C20 1_555 1_555
C21 C20 1_555 1_555
C22 C21 1_555 1_555
H12 C22 1_555 1_555
C23 C18 1_555 1_555
H13 C23 1_555 1_555
C24 C9 1_555 1_555
H14 C25 1_555 1_555
O5 C17 1_555 1_555
O6 C17 1_555 1_555
H17 O4_2 1_555 1_555
La2_4 O6 1_555 1_555
O11 La1_2 1_555 1_555
C21 C24 1_555 1_555
C22 C23 1_555 1_555
C24 C25 1_555 1_555
O4_3 La1_3 1_555 1_555
H9 O4_3 1_555 1_555
O8 La1_3 1_555 1_555
O10 La1_3 1_555 1_555
H3 C6 1_555 1_555
H4 C7 1_555 1_555
H6 C10 1_555 1_555
C11 C10 1_555 1_555
C12 C11 1_555 1_555
C13 C12 1_555 1_555
H7 C13 1_555 1_555
C14 C13 1_555 1_555
H8 C14 1_555 1_555
C15 C14 1_555 1_555
C16 C15 1_555 1_555
O3 C16 1_555 1_555
O4_4 La1_4 1_555 1_555
C26 C12 1_555 1_555
H15 C26 1_555 1_555
C27 C15 1_555 1_555
H16 C27 1_555 1_555
O7 C16 1_555 1_555
La3_2 O7 1_555 1_555
La4 O3 1_555 1_555
La5 O2 1_555 1_555
O13 La1_4 1_555 1_555
C6 C7 1_555 1_555
La1_4 O2 1_555 1_555
C26 C27 1_555 1_555
O4_5 La2 1_555 1_555
H9_2 O4_5 1_555 1_555
O8_2 La2 1_555 1_555
O10_2 La2 1_555 1_555
H3_2 C6_2 1_555 1_555
H4_2 C7_2 1_555 1_555
H6_2 C10_2 1_555 1_555
C11_2 C10_2 1_555 1_555
C12_2 C11_2 1_555 1_555
C13_2 C12_2 1_555 1_555
H7_2 C13_2 1_555 1_555
C14_2 C13_2 1_555 1_555
H8_2 C14_2 1_555 1_555
C15_2 C14_2 1_555 1_555
C16_2 C15_2 1_555 1_555
O3_2 C16_2 1_555 1_555
O4_6 La2_2 1_555 1_555
C26_2 C12_2 1_555 1_555
H15_2 C26_2 1_555 1_555
C27_2 C15_2 1_555 1_555
H16_2 C27_2 1_555 1_555
O13 C16_2 1_555 1_555
La5 O3_2 1_555 1_555
La6 O2_2 1_555 1_555
O13_2 La2_2 1_555 1_555
C6_2 C7_2 1_555 1_555
La2_2 O2_2 1_555 1_555
C26_2 C27_2 1_555 1_555
O4_7 La2_3 1_555 1_555
O9_2 La2_3 1_555 1_555
O12_2 La2_3 1_555 1_555
C1_2 C2_2 1_555 1_555
C2_2 C3_2 1_555 1_555
C3_2 H1_2 1_555 1_555
C4_2 C3_2 1_555 1_555
H2_2 C4_2 1_555 1_555
C5_2 C4_2 1_555 1_555
C8_2 C5_2 1_555 1_555
C9_2 C8_2 1_555 1_555
H5_2 C9_2 1_555 1_555
La2_4 O1_2 1_555 1_555
O1_2 C1_2 1_555 1_555
O4_8 La2_4 1_555 1_555
C17_2 C18_2 1_555 1_555
C18_2 C19_2 1_555 1_555
C19_2 H10_2 1_555 1_555
C20_2 C19_2 1_555 1_555
H11_2 C20_2 1_555 1_555
C21_2 C20_2 1_555 1_555
C22_2 C21_2 1_555 1_555
H12_2 C22_2 1_555 1_555
C23_2 C18_2 1_555 1_555
H13_2 C23_2 1_555 1_555
C24_2 C9_2 1_555 1_555
H14_2 C25_2 1_555 1_555
O5_2 C17_2 1_555 1_555
O6_2 C17_2 1_555 1_555
H17_2 O4_8 1_555 1_555
La3_2 O6_2 1_555 1_555
La4 O5_2 1_555 1_555
C21_2 C24_2 1_555 1_555
C22_2 C23_2 1_555 1_555
C24_2 C25_2 1_555 1_555
O6_2 La4 1_555 1_555
O4_9 La3 1_555 1_555
H9_3 O4_9 1_555 1_555
O8_3 La3 1_555 1_555
O9_3 La3 1_555 1_555
O10_3 La3 1_555 1_555
O12_3 La3 1_555 1_555
C1_3 C2_3 1_555 1_555
C2_3 C3_3 1_555 1_555
C3_3 H1_3 1_555 1_555
C4_3 C3_3 1_555 1_555
H2_3 C4_3 1_555 1_555
C5_3 C4_3 1_555 1_555
C6_3 C5_3 1_555 1_555
H3_3 C6_3 1_555 1_555
C7_3 C2_3 1_555 1_555
H4_3 C7_3 1_555 1_555
C8_3 C5_3 1_555 1_555
C9_3 C8_3 1_555 1_555
H5_3 C9_3 1_555 1_555
C10_3 C8_3 1_555 1_555
H6_3 C10_3 1_555 1_555
C11_3 C10_3 1_555 1_555
C12_3 C11_3 1_555 1_555
C13_3 C12_3 1_555 1_555
H7_3 C13_3 1_555 1_555
C14_3 C13_3 1_555 1_555
H8_3 C14_3 1_555 1_555
C15_3 C14_3 1_555 1_555
C16_3 C15_3 1_555 1_555
La3_2 O1_3 1_555 1_555
O1_3 C1_3 1_555 1_555
O2_3 C1_3 1_555 1_555
O3_3 C16_3 1_555 1_555
O4_10 La3_2 1_555 1_555
C17_3 C18_3 1_555 1_555
C18_3 C19_3 1_555 1_555
C19_3 H10_3 1_555 1_555
C20_3 C19_3 1_555 1_555
H11_3 C20_3 1_555 1_555
C21_3 C20_3 1_555 1_555
C22_3 C21_3 1_555 1_555
H12_3 C22_3 1_555 1_555
C23_3 C18_3 1_555 1_555
H13_3 C23_3 1_555 1_555
C24_3 C9_3 1_555 1_555
C25_3 C11_3 1_555 1_555
H14_3 C25_3 1_555 1_555
C26_3 C12_3 1_555 1_555
H15_3 C26_3 1_555 1_555
C27_3 C15_3 1_555 1_555
H16_3 C27_3 1_555 1_555
O5_3 C17_3 1_555 1_555
O11 C17_3 1_555 1_555
O13_2 C16_3 1_555 1_555
H17_3 O4_10 1_555 1_555
La6 O3_3 1_555 1_555
La4 O2_3 1_555 1_555
C6_3 C7_3 1_555 1_555
La3_2 O2_3 1_555 1_555
C21_3 C24_3 1_555 1_555
C22_3 C23_3 1_555 1_555
C24_3 C25_3 1_555 1_555
C26_3 C27_3 1_555 1_555
C1_4 C2_4 1_555 1_555
C2_4 C3_4 1_555 1_555
C3_4 H1_4 1_555 1_555
C4_4 C3_4 1_555 1_555
H2_4 C4_4 1_555 1_555
C5_4 C4_4 1_555 1_555
C8_4 C5_4 1_555 1_555
C9_4 C8_4 1_555 1_555
H5_4 C9_4 1_555 1_555
O8_2 C1_4 1_555 1_555
C17_4 C18_4 1_555 1_555
C18_4 C19_4 1_555 1_555
C19_4 H10_4 1_555 1_555
C20_4 C19_4 1_555 1_555
H11_4 C20_4 1_555 1_555
C21_4 C20_4 1_555 1_555
C22_4 C21_4 1_555 1_555
H12_4 C22_4 1_555 1_555
C23_4 C18_4 1_555 1_555
H13_4 C23_4 1_555 1_555
C24_4 C9_4 1_555 1_555
H14_4 C25_4 1_555 1_555
O5_4 C17_4 1_555 1_555
O10 C17_4 1_555 1_555
C21_4 C24_4 1_555 1_555
C22_4 C23_4 1_555 1_555
C24_4 C25_4 1_555 1_555
H3_4 C6_4 1_555 1_555
H4_4 C7_4 1_555 1_555
H6_4 C10_4 1_555 1_555
C11_4 C10_4 1_555 1_555
C12_4 C11_4 1_555 1_555
C13_4 C12_4 1_555 1_555
H7_4 C13_4 1_555 1_555
C14_4 C13_4 1_555 1_555
H8_4 C14_4 1_555 1_555
C15_4 C14_4 1_555 1_555
C16_4 C15_4 1_555 1_555
O3_4 C16_4 1_555 1_555
C26_4 C12_4 1_555 1_555
H15_4 C26_4 1_555 1_555
C27_4 C15_4 1_555 1_555
H16_4 C27_4 1_555 1_555
O12_3 C16_4 1_555 1_555
La4_2 O3_4 1_555 1_555
La5_2 O9_2 1_555 1_555
C6_4 C7_4 1_555 1_555
C26_4 C27_4 1_555 1_555
H3_5 C6_5 1_555 1_555
H4_5 C7_5 1_555 1_555
H6_5 C10_5 1_555 1_555
C11_5 C10_5 1_555 1_555
C12_5 C11_5 1_555 1_555
C13_5 C12_5 1_555 1_555
H7_5 C13_5 1_555 1_555
C14_5 C13_5 1_555 1_555
H8_5 C14_5 1_555 1_555
C15_5 C14_5 1_555 1_555
C16_5 C15_5 1_555 1_555
O3_5 C16_5 1_555 1_555
C26_5 C12_5 1_555 1_555
H15_5 C26_5 1_555 1_555
C27_5 C15_5 1_555 1_555
H16_5 C27_5 1_555 1_555
O12_2 C16_5 1_555 1_555
La5_2 O3_5 1_555 1_555
La6_2 O9 1_555 1_555
C6_5 C7_5 1_555 1_555
C26_5 C27_5 1_555 1_555
C1_5 C2_5 1_555 1_555
C2_5 C3_5 1_555 1_555
C3_5 H1_5 1_555 1_555
C4_5 C3_5 1_555 1_555
H2_5 C4_5 1_555 1_555
C5_5 C4_5 1_555 1_555
C8_5 C5_5 1_555 1_555
C9_5 C8_5 1_555 1_555
H5_5 C9_5 1_555 1_555
O8 C1_5 1_555 1_555
C17_5 C18_5 1_555 1_555
C18_5 C19_5 1_555 1_555
C19_5 H10_5 1_555 1_555
C20_5 C19_5 1_555 1_555
H11_5 C20_5 1_555 1_555
C21_5 C20_5 1_555 1_555
C22_5 C21_5 1_555 1_555
H12_5 C22_5 1_555 1_555
C23_5 C18_5 1_555 1_555
H13_5 C23_5 1_555 1_555
C24_5 C9_5 1_555 1_555
H14_5 C25_5 1_555 1_555
O5_5 C17_5 1_555 1_555
O10_3 C17_5 1_555 1_555
La4_2 O5_5 1_555 1_555
C21_5 C24_5 1_555 1_555
C22_5 C23_5 1_555 1_555
C24_5 C25_5 1_555 1_555
O10_3 La4_2 1_555 1_555
C1_6 C2_6 1_555 1_555
C2_6 C3_6 1_555 1_555
C3_6 H1_6 1_555 1_555
C4_6 C3_6 1_555 1_555
H2_6 C4_6 1_555 1_555
C5_6 C4_6 1_555 1_555
C6_6 C5_6 1_555 1_555
H3_6 C6_6 1_555 1_555
C7_6 C2_6 1_555 1_555
H4_6 C7_6 1_555 1_555
C8_6 C5_6 1_555 1_555
C9_6 C8_6 1_555 1_555
H5_6 C9_6 1_555 1_555
C10_6 C8_6 1_555 1_555
H6_6 C10_6 1_555 1_555
C11_6 C10_6 1_555 1_555
C12_6 C11_6 1_555 1_555
C13_6 C12_6 1_555 1_555
H7_6 C13_6 1_555 1_555
C14_6 C13_6 1_555 1_555
H8_6 C14_6 1_555 1_555
C15_6 C14_6 1_555 1_555
C16_6 C15_6 1_555 1_555
O8_3 C1_6 1_555 1_555
O9_3 C1_6 1_555 1_555
O3_6 C16_6 1_555 1_555
C17_6 C18_6 1_555 1_555
C18_6 C19_6 1_555 1_555
C19_6 H10_6 1_555 1_555
C20_6 C19_6 1_555 1_555
H11_6 C20_6 1_555 1_555
C21_6 C20_6 1_555 1_555
C22_6 C21_6 1_555 1_555
H12_6 C22_6 1_555 1_555
C23_6 C18_6 1_555 1_555
H13_6 C23_6 1_555 1_555
C24_6 C9_6 1_555 1_555
C25_6 C11_6 1_555 1_555
H14_6 C25_6 1_555 1_555
C26_6 C12_6 1_555 1_555
H15_6 C26_6 1_555 1_555
C27_6 C15_6 1_555 1_555
H16_6 C27_6 1_555 1_555
O5_6 C17_6 1_555 1_555
O10_2 C17_6 1_555 1_555
O12 C16_6 1_555 1_555
La6_2 O3_6 1_555 1_555
La4_2 O9_3 1_555 1_555
C6_6 C7_6 1_555 1_555
C21_6 C24_6 1_555 1_555
C22_6 C23_6 1_555 1_555
C24_6 C25_6 1_555 1_555
C26_6 C27_6 1_555 1_555
O4_11 La5_2 1_555 1_555
H9_4 O4_11 1_555 1_555
H17_4 O4_11 1_555 1_555
O10_4 La5_2 1_555 1_555
O4_12 La4_2 1_555 1_555
H9_5 O4_12 1_555 1_555
H17_5 O4_12 1_555 1_555
O8_5 La4_2 1_555 1_555
O9_5 La4_2 1_555 1_555
O10_5 La4_2 1_555 1_555
O12_5 La4_2 1_555 1_555
O4_13 La6_2 1_555 1_555
H9_6 O4_13 1_555 1_555
H17_6 O4_13 1_555 1_555
O10_6 La6_2 1_555 1_555
H5_7 C9_7 1_555 1_555
C12_7 C11_7 1_555 1_555
C13_7 C12_7 1_555 1_555
H7_7 C13_7 1_555 1_555
C14_7 C13_7 1_555 1_555
H8_7 C14_7 1_555 1_555
C15_7 C14_7 1_555 1_555
C16_7 C15_7 1_555 1_555
O3_7 C16_7 1_555 1_555
C17_7 C18_7 1_555 1_555
C18_7 C19_7 1_555 1_555
C19_7 H10_7 1_555 1_555
C20_7 C19_7 1_555 1_555
H11_7 C20_7 1_555 1_555
C21_7 C20_7 1_555 1_555
C22_7 C21_7 1_555 1_555
H12_7 C22_7 1_555 1_555
C23_7 C18_7 1_555 1_555
H13_7 C23_7 1_555 1_555
C24_7 C9_7 1_555 1_555
C25_7 C11_7 1_555 1_555
H14_7 C25_7 1_555 1_555
O5_7 C17_7 1_555 1_555
O10_4 C17_7 1_555 1_555
C21_7 C24_7 1_555 1_555
C22_7 C23_7 1_555 1_555
C24_7 C25_7 1_555 1_555
C1_7 C2_7 1_555 1_555
C2_7 C3_7 1_555 1_555
C3_7 H1_7 1_555 1_555
C4_7 C3_7 1_555 1_555
H2_7 C4_7 1_555 1_555
C5_7 C4_7 1_555 1_555
C6_7 C5_7 1_555 1_555
H3_7 C6_7 1_555 1_555
C7_7 C2_7 1_555 1_555
H4_7 C7_7 1_555 1_555
C8_7 C5_7 1_555 1_555
C9_8 C8_7 1_555 1_555
H5_8 C9_8 1_555 1_555
C10_7 C8_7 1_555 1_555
H6_7 C10_7 1_555 1_555
C11_8 C10_7 1_555 1_555
C12_8 C11_8 1_555 1_555
C16_8 C15_8 1_555 1_555
O8_5 C1_7 1_555 1_555
O9_5 C1_7 1_555 1_555
C26_7 C12_8 1_555 1_555
H15_7 C26_7 1_555 1_555
C27_7 C15_8 1_555 1_555
H16_7 C27_7 1_555 1_555
O12_6 C16_8 1_555 1_555
La4 O9_5 1_555 1_555
C6_7 C7_7 1_555 1_555
C26_7 C27_7 1_555 1_555
La4 O10_5 1_555 1_555
C1_8 C2_8 1_555 1_555
C2_8 C3_8 1_555 1_555
C3_8 H1_8 1_555 1_555
C4_8 C3_8 1_555 1_555
H2_8 C4_8 1_555 1_555
C5_8 C4_8 1_555 1_555
C6_8 C5_8 1_555 1_555
H3_8 C6_8 1_555 1_555
C7_8 C2_8 1_555 1_555
H4_8 C7_8 1_555 1_555
C8_8 C5_8 1_555 1_555
C9_9 C8_8 1_555 1_555
H5_9 C9_9 1_555 1_555
C10_8 C8_8 1_555 1_555
H6_8 C10_8 1_555 1_555
C11_9 C10_8 1_555 1_555
C12_9 C11_9 1_555 1_555
C13_8 C12_9 1_555 1_555
H7_8 C13_8 1_555 1_555
C14_8 C13_8 1_555 1_555
H8_8 C14_8 1_555 1_555
C15_9 C14_8 1_555 1_555
C16_9 C15_9 1_555 1_555
O8_4 C1_8 1_555 1_555
O9_4 C1_8 1_555 1_555
O3_8 C16_9 1_555 1_555
C17_8 C18_8 1_555 1_555
C18_8 C19_8 1_555 1_555
C19_8 H10_8 1_555 1_555
C20_8 C19_8 1_555 1_555
H11_8 C20_8 1_555 1_555
C21_8 C20_8 1_555 1_555
C22_8 C21_8 1_555 1_555
H12_8 C22_8 1_555 1_555
C23_8 C18_8 1_555 1_555
H13_8 C23_8 1_555 1_555
C24_8 C9_9 1_555 1_555
C25_8 C11_9 1_555 1_555
H14_8 C25_8 1_555 1_555
C26_8 C12_9 1_555 1_555
H15_8 C26_8 1_555 1_555
C27_8 C15_9 1_555 1_555
H16_8 C27_8 1_555 1_555
O5_8 C17_8 1_555 1_555
O10_6 C17_8 1_555 1_555
O12_5 C16_9 1_555 1_555
La4 O3_8 1_555 1_555
La6 O9_4 1_555 1_555
C6_8 C7_8 1_555 1_555
C21_8 C24_8 1_555 1_555
C22_8 C23_8 1_555 1_555
C24_8 C25_8 1_555 1_555
C26_8 C27_8 1_555 1_555
C1_9 C2_9 1_555 1_555
C2_9 C3_9 1_555 1_555
C3_9 H1_9 1_555 1_555
C4_9 C3_9 1_555 1_555
H2_9 C4_9 1_555 1_555
C5_9 C4_9 1_555 1_555
C6_9 C5_9 1_555 1_555
H3_9 C6_9 1_555 1_555
C7_9 C2_9 1_555 1_555
H4_9 C7_9 1_555 1_555
C8_9 C5_9 1_555 1_555
C9_10 C8_9 1_555 1_555
H5_10 C9_10 1_555 1_555
C10_9 C8_9 1_555 1_555
H6_9 C10_9 1_555 1_555
C11_10 C10_9 1_555 1_555
C12_10 C11_10 1_555 1_555
C16_10 C15_10 1_555 1_555
O8_6 C1_9 1_555 1_555
O9_6 C1_9 1_555 1_555
C26_9 C12_10 1_555 1_555
H15_9 C26_9 1_555 1_555
C27_9 C15_10 1_555 1_555
H16_9 C27_9 1_555 1_555
O12_4 C16_10 1_555 1_555
La5 O9_6 1_555 1_555
C6_9 C7_9 1_555 1_555
C26_9 C27_9 1_555 1_555
H5_11 C9_11 1_555 1_555
C12_11 C11_11 1_555 1_555
C13_9 C12_11 1_555 1_555
H7_9 C13_9 1_555 1_555
C14_9 C13_9 1_555 1_555
H8_9 C14_9 1_555 1_555
C15_11 C14_9 1_555 1_555
C16_11 C15_11 1_555 1_555
O3_9 C16_11 1_555 1_555
C17_9 C18_9 1_555 1_555
C18_9 C19_9 1_555 1_555
C19_9 H10_9 1_555 1_555
C20_9 C19_9 1_555 1_555
H11_9 C20_9 1_555 1_555
C21_9 C20_9 1_555 1_555
C22_9 C21_9 1_555 1_555
H12_9 C22_9 1_555 1_555
C23_9 C18_9 1_555 1_555
H13_9 C23_9 1_555 1_555
C24_9 C9_11 1_555 1_555
C25_9 C11_11 1_555 1_555
H14_9 C25_9 1_555 1_555
O5_9 C17_9 1_555 1_555
O10_5 C17_9 1_555 1_555
La4 O5_9 1_555 1_555
C21_9 C24_9 1_555 1_555
C22_9 C23_9 1_555 1_555
C24_9 C25_9 1_555 1_555
O4_14 La4 1_555 1_555
H9_7 O4_14 1_555 1_555
H17_7 O4_14 1_555 1_555
O4_15 La5 1_555 1_555
H9_8 O4_15 1_555 1_555
H17_8 O4_15 1_555 1_555
O4_16 La6 1_555 1_555
H9_9 O4_16 1_555 1_555
H17_9 O4_16 1_555 1_555

#END
