
###############################################################################
#
# This file contains modified crystal structure data generated from the
# MOF subset of the Cambridge Structural Database (CSD) v543 
# hosted by the Cambridge Crystallographic Data Centre (CCDC).
#
# This work is licensed under the Creative Commons
# Attribution-NonCommercial-ShareAlike 4.0 International License.
# To view a copy of this license, visit
# http://creativecommons.org/licenses/by-nc-sa/4.0/
# or send a letter to
# Creative Commons, PO Box 1866, Mountain View, CA 94042, USA.
#
# CIF created using the CSD Python API on 29 September 2022
# The structure has been converted into the P1 space group
# The structure has a 3D framework
# The original CSD entry PEZNUG01 is in the trigonal crystal system
# The framework has been calculated to contain at least 10.0% void space
# The void calculation uses a probe of radius 1.32A, grid spacing 0.4
# The framework is charged, counterions have been retained in the structure
#
###############################################################################

data_PEZNUG01
_chemical_formula_moiety         '(C12 H12 Fe2 Ga4 O18 1-)n'
_symmetry_cell_setting           triclinic
_symmetry_space_group_name_H-M   'P 1'
_symmetry_Int_Tables_number      1
_space_group_name_Hall           'P 1'
loop_
_symmetry_equiv_pos_site_id
_symmetry_equiv_pos_as_xyz
1 x,y,z
_cell_length_a                   8.1821(6)
_cell_length_b                   8.1821(6)
_cell_length_c                   13.950(2)
_cell_angle_alpha                90
_cell_angle_beta                 90
_cell_angle_gamma                120
_cell_volume                     808.787
loop_
_atom_site_label
_atom_site_type_symbol
_atom_site_fract_x
_atom_site_fract_y
_atom_site_fract_z
Ga3 Ga 0.0000 0.0000 0.0000
Ga3_2 Ga 0.0000 0.0000 1.0000
Ga3_3 Ga 0.0000 1.0000 0.0000
Ga3_4 Ga 0.0000 1.0000 1.0000
O2 O 0.2046(4) 0.0115(3) 0.08029(17)
O5 O 0.1154(4) 0.4530(6) 0.16656(18)
C3 C 0.1263(5) 0.3334(7) 0.1178(2)
H3 H 0.2455 0.3483 0.1082
Fe3 Fe 0.3333 0.6667 0.2500
Ga3_5 Ga 1.0000 0.0000 0.0000
Ga4 Ga 0.0000 0.0000 0.5000
Ga3_6 Ga 1.0000 0.0000 1.0000
O17 O 0.1931(5) 0.2046(4) 0.91971(17)
O1 O 0.3376(4) 0.8846(4) 0.16656(18)
C1 C 0.2071(5) 0.8737(5) 0.1178(2)
H1 H 0.1028 0.7545 0.1082
O9 O 0.5470(6) 0.6624(4) 0.16656(18)
O10 O 0.8069(5) 0.7954(4) 0.08029(17)
C5 C 0.6666(7) 0.7929(5) 0.1178(2)
H5 H 0.6517 0.8972 0.1082
O11 O 0.1154(4) 0.6624(4) 0.33344(18)
C6 C 0.1263(5) 0.7929(5) 0.3822(2)
H6 H 0.2455 0.8972 0.3918
Ga3_7 Ga 1.0000 1.0000 0.0000
Ga4_2 Ga 0.0000 1.0000 0.5000
O13 O 0.5470(6) 0.8846(4) 0.33344(18)
O14 O 0.3376(4) 0.4530(6) 0.33344(18)
Ga3_8 Ga 1.0000 1.0000 1.0000
O16 O 0.0115(3) 0.8069(5) 0.91971(17)
O6 O 0.9885(3) 0.1931(5) 0.08029(17)
Ga4_3 Ga 1.0000 0.0000 0.5000
O12 O 0.9885(3) 0.7954(4) 0.41971(17)
Ga4_4 Ga 1.0000 1.0000 0.5000
O15 O 0.7954(4) 0.9885(3) 0.91971(17)
O12_2 O 0.2046(4) 0.1931(5) 0.41971(17)
C6_2 C 0.2071(5) 0.3334(7) 0.3822(2)
H6_2 H 0.1028 0.3483 0.3918
O12_3 O 0.8069(5) 0.0115(3) 0.41971(17)
C6_3 C 0.6666(7) 0.8737(5) 0.3822(2)
H6_3 H 0.6517 0.7545 0.3918
O15_2 O 0.0115(3) 0.2046(4) 0.58029(17)
O16_2 O 0.1931(5) 0.9885(3) 0.58029(17)
O17_2 O 0.7954(4) 0.8069(5) 0.58029(17)
O7 O 0.4530(6) 0.3376(4) 0.83344(18)
C4 C 0.3334(7) 0.2071(5) 0.8822(2)
H4 H 0.3483 0.1028 0.8918
Fe2 Fe 0.6667 0.3333 0.7500
O1_2 O 0.6624(4) 0.1154(4) 0.83344(18)
C1_2 C 0.7929(5) 0.1263(5) 0.8822(2)
H1_2 H 0.8972 0.2455 0.8918
O3 O 0.8846(4) 0.5470(6) 0.83344(18)
C2 C 0.8737(5) 0.6666(7) 0.8822(2)
H2 H 0.7545 0.6517 0.8918
O11_2 O 0.8846(4) 0.3376(4) 0.66656(18)
C6_4 C 0.8737(5) 0.2071(5) 0.6178(2)
H6_4 H 0.7545 0.1028 0.6082
O13_2 O 0.4530(6) 0.1154(4) 0.66656(18)
O14_2 O 0.6624(4) 0.5470(6) 0.66656(18)
C6_5 C 0.7929(5) 0.6666(7) 0.6178(2)
H6_5 H 0.8972 0.6517 0.6082
C6_6 C 0.3334(7) 0.1263(5) 0.6178(2)
H6_6 H 0.3483 0.2455 0.6082
loop_
_geom_bond_atom_site_label_1
_geom_bond_atom_site_label_2
_geom_bond_site_symmetry_1
_geom_bond_site_symmetry_2
Ga3 O2 1_555 1_555
O5 C3 1_555 1_555
H3 C3 1_555 1_555
Fe3 O5 1_555 1_555
O17 Ga3_2 1_555 1_555
Fe3 O1 1_555 1_555
O1 C1 1_555 1_555
C1 H1 1_555 1_555
O9 Fe3 1_555 1_555
O10 C5 1_555 1_555
C5 O9 1_555 1_555
H5 C5 1_555 1_555
O11 Fe3 1_555 1_555
C6 O11 1_555 1_555
H6 C6 1_555 1_555
Ga3_7 O10 1_555 1_555
O13 Fe3 1_555 1_555
O14 Fe3 1_555 1_555
O16 Ga3_4 1_555 1_555
O6 Ga3_5 1_555 1_555
Ga4_4 O12 1_555 1_555
O15 Ga3_8 1_555 1_555
O12_2 C6_2 1_555 1_555
C6_2 O14 1_555 1_555
H6_2 C6_2 1_555 1_555
Ga4 O12_2 1_555 1_555
Ga4_3 O12_3 1_555 1_555
C6_3 O13 1_555 1_555
H6_3 C6_3 1_555 1_555
O15_2 Ga4 1_555 1_555
O16_2 Ga4_2 1_555 1_555
O17_2 Ga4_4 1_555 1_555
O7 C4 1_555 1_555
C4 O17 1_555 1_555
H4 C4 1_555 1_555
Fe2 O7 1_555 1_555
Fe2 O1_2 1_555 1_555
O1_2 C1_2 1_555 1_555
C1_2 H1_2 1_555 1_555
O3 Fe2 1_555 1_555
C2 O3 1_555 1_555
H2 C2 1_555 1_555
O11_2 Fe2 1_555 1_555
C6_4 O11_2 1_555 1_555
H6_4 C6_4 1_555 1_555
O13_2 Fe2 1_555 1_555
O14_2 Fe2 1_555 1_555
O17_2 C6_5 1_555 1_555
C6_5 O14_2 1_555 1_555
H6_5 C6_5 1_555 1_555
C6_6 O13_2 1_555 1_555
H6_6 C6_6 1_555 1_555

#END
