
###############################################################################
#
# This file contains modified crystal structure data generated from the
# MOF subset of the Cambridge Structural Database (CSD) v543 
# hosted by the Cambridge Crystallographic Data Centre (CCDC).
#
# This work is licensed under the Creative Commons
# Attribution-NonCommercial-ShareAlike 4.0 International License.
# To view a copy of this license, visit
# http://creativecommons.org/licenses/by-nc-sa/4.0/
# or send a letter to
# Creative Commons, PO Box 1866, Mountain View, CA 94042, USA.
#
# CIF created using the CSD Python API on 29 September 2022
# The structure has been converted into the P1 space group
# The structure has a 3D framework
# The original CSD entry PEZPAO01 is in the trigonal crystal system
# The framework has been calculated to contain at least 10.0% void space
# The void calculation uses a probe of radius 1.32A, grid spacing 0.4
# The framework is charged, counterions have been retained in the structure
#
###############################################################################

data_PEZPAO01
_chemical_formula_moiety         '(C12 H12 Ga9 Ni1 O20 1-)n'
_symmetry_cell_setting           triclinic
_symmetry_space_group_name_H-M   'P 1'
_symmetry_Int_Tables_number      1
_space_group_name_Hall           'P 1'
loop_
_symmetry_equiv_pos_site_id
_symmetry_equiv_pos_as_xyz
1 x,y,z
_cell_length_a                   8.1561(15)
_cell_length_b                   8.1561(15)
_cell_length_c                   13.418(3)
_cell_angle_alpha                90
_cell_angle_beta                 90
_cell_angle_gamma                120
_cell_volume                     773.007
loop_
_atom_site_label
_atom_site_type_symbol
_atom_site_fract_x
_atom_site_fract_y
_atom_site_fract_z
Ga1 Ga 0.0000 0.0000 0.0000
Ni1 Ni 0.6667 0.3333 0.2500
O1 O 0.19435(18) 0.20748(18) 0.08336(9)
O2 O 0.46239(19) 0.34311(19) 0.16789(9)
C1 C 0.3367(2) 0.2078(3) 0.11975(12)
H1 H 0.3488 0.1014 0.1102
O8 O 0.46239(19) 0.11928(27) 0.33211(9)
C4 C 0.3367(2) 0.1289(4) 0.38025(12)
H4 H 0.3488 0.2474 0.3898
Ga2 Ga -0.0000 0.0000 0.5000
O14 O 0.65689(19) 0.11928(27) 0.16789(9)
O15 O 0.88072(27) 0.53761(19) 0.16789(9)
O16 O 0.65689(19) 0.53761(19) 0.33211(9)
O17 O 0.88072(27) 0.34311(19) 0.33211(9)
Ga1_2 Ga -0.0000 0.0000 1.0000
O11 O 0.20748(18) 0.01313(25) 0.91664(9)
Ga1_3 Ga 0.0000 1.0000 0.0000
O5 O 0.01313(25) 0.80565(18) 0.08336(9)
O7 O 0.19435(18) 0.98687(25) 0.41664(9)
Ga2_2 Ga -0.0000 1.0000 0.5000
Ga1_4 Ga 0.0000 1.0000 1.0000
O12 O 0.34311(19) 0.88072(27) 0.83211(9)
C6 C 0.2078(3) 0.8711(4) 0.88025(12)
H6 H 0.1014 0.7526 0.8898
Ni5 Ni 0.3333 0.6667 0.7500
Ga1_5 Ga 1.0000 0.0000 0.0000
C2 C 0.7922(3) 0.1289(4) 0.11975(12)
H2 H 0.8986 0.2474 0.1102
Ga2_3 Ga 1.0000 0.0000 0.5000
Ga1_6 Ga 1.0000 0.0000 1.0000
O13 O 0.98687(25) 0.19435(18) 0.91664(9)
Ga1_7 Ga 1.0000 1.0000 0.0000
O3 O 0.79252(18) 0.98687(25) 0.08336(9)
C3 C 0.8711(4) 0.6633(2) 0.11975(12)
H3 H 0.7526 0.6512 0.1102
Ga2_4 Ga 1.0000 1.0000 0.5000
Ga1_8 Ga 1.0000 1.0000 1.0000
O9 O 0.80565(18) 0.79252(18) 0.91664(9)
O10 O 0.53761(19) 0.65689(19) 0.83211(9)
C5 C 0.6633(2) 0.7922(3) 0.88025(12)
H5 H 0.6512 0.8986 0.8898
O7_2 O 0.01313(25) 0.20748(31) 0.41664(9)
O12_2 O 0.11928(27) 0.46239(33) 0.83211(9)
C6_2 C 0.1289(4) 0.3367(5) 0.88025(12)
H6_2 H 0.2474 0.3488 0.8898
C4_2 C 0.8711(4) 0.2078(4) 0.38025(12)
H4_2 H 0.7526 0.1014 0.3898
O7_3 O 0.79252(31) 0.80565(18) 0.41664(9)
C4_3 C 0.7922(4) 0.6633(2) 0.38025(12)
H4_3 H 0.8986 0.6512 0.3898
O9_2 O 0.20748(18) 0.19435(18) 0.58336(9)
O10_2 O 0.34311(19) 0.46239(19) 0.66789(9)
C5_2 C 0.2078(3) 0.3367(2) 0.61975(12)
H5_2 H 0.1014 0.3488 0.6102
O12_3 O 0.11928(27) 0.65689(19) 0.66789(9)
C6_3 C 0.1289(4) 0.7922(3) 0.61975(12)
H6_3 H 0.2474 0.8986 0.6102
O13_2 O 0.80565(18) 0.01313(25) 0.58336(9)
O11_2 O 0.98687(25) 0.79252(18) 0.58336(9)
O10_3 O 0.53761(19) 0.88072(27) 0.66789(9)
C5_3 C 0.6633(2) 0.8711(4) 0.61975(12)
H5_3 H 0.6512 0.7526 0.6102
loop_
_geom_bond_atom_site_label_1
_geom_bond_atom_site_label_2
_geom_bond_site_symmetry_1
_geom_bond_site_symmetry_2
Ga1 O1 1_555 1_555
Ni1 O2 1_555 1_555
O1 C1 1_555 1_555
O2 C1 1_555 1_555
C1 H1 1_555 1_555
O8 Ni1 1_555 1_555
C4 O8 1_555 1_555
H4 C4 1_555 1_555
O14 Ni1 1_555 1_555
O15 Ni1 1_555 1_555
O16 Ni1 1_555 1_555
O17 Ni1 1_555 1_555
O11 Ga1_2 1_555 1_555
O5 Ga1_3 1_555 1_555
Ga2_2 O7 1_555 1_555
O12 C6 1_555 1_555
H6 C6 1_555 1_555
Ni5 O12 1_555 1_555
O14 C2 1_555 1_555
H2 C2 1_555 1_555
O13 Ga1_6 1_555 1_555
O3 Ga1_7 1_555 1_555
O15 C3 1_555 1_555
H3 C3 1_555 1_555
O9 Ga1_8 1_555 1_555
O10 C5 1_555 1_555
C5 O9 1_555 1_555
H5 C5 1_555 1_555
Ni5 O10 1_555 1_555
Ga2 O7_2 1_555 1_555
O12_2 C6_2 1_555 1_555
H6_2 C6_2 1_555 1_555
Ni5 O12_2 1_555 1_555
C4_2 O17 1_555 1_555
H4_2 C4_2 1_555 1_555
O7_3 C4_3 1_555 1_555
C4_3 O16 1_555 1_555
H4_3 C4_3 1_555 1_555
Ga2_4 O7_3 1_555 1_555
O9_2 Ga2 1_555 1_555
O10_2 C5_2 1_555 1_555
C5_2 O9_2 1_555 1_555
H5_2 C5_2 1_555 1_555
Ni5 O10_2 1_555 1_555
O12_3 C6_3 1_555 1_555
H6_3 C6_3 1_555 1_555
Ni5 O12_3 1_555 1_555
O13_2 Ga2_3 1_555 1_555
O11_2 Ga2_4 1_555 1_555
O10_3 C5_3 1_555 1_555
H5_3 C5_3 1_555 1_555
Ni5 O10_3 1_555 1_555

#END
