
###############################################################################
#
# This file contains modified crystal structure data generated from the
# MOF subset of the Cambridge Structural Database (CSD) v543 
# hosted by the Cambridge Crystallographic Data Centre (CCDC).
#
# This work is licensed under the Creative Commons
# Attribution-NonCommercial-ShareAlike 4.0 International License.
# To view a copy of this license, visit
# http://creativecommons.org/licenses/by-nc-sa/4.0/
# or send a letter to
# Creative Commons, PO Box 1866, Mountain View, CA 94042, USA.
#
# CIF created using the CSD Python API on 29 September 2022
# The structure has been converted into the P1 space group
# The structure has a 3D framework
# The original CSD entry PEZSUL is in the tetragonal crystal system
# The framework has been calculated to contain at least 10.0% void space
# The void calculation uses a probe of radius 1.32A, grid spacing 0.4
#
###############################################################################

data_PEZSUL
_chemical_formula_moiety         '(C256 H198 N48 Ni32 O114 S20)n'
_symmetry_cell_setting           triclinic
_symmetry_space_group_name_H-M   'P 1'
_symmetry_Int_Tables_number      1
_space_group_name_Hall           'P 1'
loop_
_symmetry_equiv_pos_site_id
_symmetry_equiv_pos_as_xyz
1 x,y,z
_cell_length_a                   24.4097(5)
_cell_length_b                   24.4097(5)
_cell_length_c                   14.7898(7)
_cell_angle_alpha                90
_cell_angle_beta                 90
_cell_angle_gamma                90
_cell_volume                     8812.26
loop_
_atom_site_label
_atom_site_type_symbol
_atom_site_fract_x
_atom_site_fract_y
_atom_site_fract_z
C10 C 0.18961(12) 0.00010(11) 0.6674(2)
H7 H 0.1553 0.0162 0.6729
C11 C 0.23613(11) 0.03256(10) 0.67141(18)
C12 C 0.23081(11) 0.09361(11) 0.68425(18)
C13 C 0.28718(12) 0.00849(12) 0.6633(2)
H8 H 0.3186 0.0300 0.6657
O4 O 0.27357(8) 0.12132(7) 0.68077(14)
O5 O 0.18317(8) 0.11092(7) 0.69710(14)
Ni3 Ni 0.15397(2) 0.18787(2) 0.69508(2)
Ni6 Ni 0.27854(2) 0.20465(2) 0.69472(2)
C1 C 0.23968(13) 0.79364(11) 0.0298(2)
H4 H 0.4036 0.8674 0.3110
C15 C 0.09225(11) 0.79048(11) 0.3682(2)
H10 H 0.0689 0.7717 0.4070
C16 C 0.13189(11) 0.85337(11) 0.2985(2)
H11 H 0.1422 0.8878 0.2779
N1 N 0.15480(9) 0.80751(9) 0.27092(16)
N2 N 0.12870(9) 0.76598(9) 0.31643(16)
N3 N 0.09220(9) 0.84520(9) 0.35937(17)
Ni1 Ni 0.34603(2) 0.81213(2) 0.19508(2)
Ni2 Ni 0.22146(2) 0.79535(2) 0.19472(2)
O1 O 0.28465(7) 0.78707(7) 0.28155(12)
O2 O 0.19223(9) 0.79019(9) 0.06348(14)
O3 O 0.28172(9) 0.79245(9) 0.07832(14)
O6 O 0.39721(10) 0.83380(10) 0.30335(16)
H12 H 0.3069 0.8111 0.3013
H13 H 0.3978 0.8087 0.3430
N4 N 0.37130(9) 0.73402(9) 0.18357(16)
N5 N 0.40480(9) 0.84220(9) 0.10937(17)
Ni4 Ni 0.06213(2) 0.90397(2) 0.44508(2)
Ni5 Ni 0.15397(2) 0.68787(2) 0.30492(2)
Ni7 Ni 0.27854(2) 0.70465(2) 0.30528(2)
O9 O 0.21535(7) 0.71293(7) 0.21845(12)
O10 O 0.22643(8) 0.87868(7) 0.18077(14)
O11 O 0.31683(8) 0.88908(7) 0.19710(14)
C1_2 C 0.26032(13) 0.20636(11) 0.5298(2)
C2 C 0.25583(13) 0.19801(11) 0.4296(2)
C3 C 0.20588(14) 0.19032(13) 0.3885(2)
H1 H 0.1738 0.1937 0.4219
C4 C 0.20330(15) 0.17743(13) 0.2968(2)
H2 H 0.1697 0.1713 0.2688
C5 C 0.25136(14) 0.17387(11) 0.2482(2)
C6 C 0.30129(15) 0.18407(13) 0.2869(2)
H3 H 0.3332 0.1829 0.2525
H4_2 H 0.0964 0.1326 0.8110
C7 C 0.30328(15) 0.19607(13) 0.3780(2)
H5 H 0.3369 0.2030 0.4052
C8 C 0.25519(14) 0.07857(11) 0.14734(19)
C9 C 0.30646(13) 0.05548(11) 0.1554(2)
H6 H 0.3378 0.0771 0.1528
C14 C 0.20845(14) 0.04760(13) 0.1516(2)
H9 H 0.1742 0.0641 0.1467
C15_2 C 0.40775(11) 0.20952(11) 0.8682(2)
H10_2 H 0.4311 0.2283 0.9070
C16_2 C 0.36811(11) 0.14663(11) 0.7985(2)
H11_2 H 0.3578 0.1122 0.7779
N1_2 N 0.34520(9) 0.19249(9) 0.77092(16)
N2_2 N 0.37130(9) 0.23402(9) 0.81643(16)
N3_2 N 0.40780(9) 0.15480(9) 0.85937(17)
O1_2 O 0.21535(7) 0.21293(7) 0.78155(12)
O2_2 O 0.30777(9) 0.20981(9) 0.56348(14)
O3_2 O 0.21828(9) 0.20755(9) 0.57832(14)
O6_2 O 0.10279(10) 0.16620(10) 0.80335(16)
O7 O 0.19728(12) 0.16226(10) 0.09756(18)
O8 O 0.29813(12) 0.17016(9) 0.08903(16)
S1 S 0.24999(4) 0.15051(3) 0.13458(5)
H12_2 H 0.1931 0.1889 0.8013
H13_2 H 0.1022 0.1913 0.8430
N4_2 N 0.12870(9) 0.26598(9) 0.68357(16)
N5_2 N 0.09520(9) 0.15780(9) 0.60937(17)
Ni4_2 Ni 0.43787(2) 0.09603(2) 0.94508(2)
Ni5_2 Ni 0.34603(2) 0.31213(2) 0.80492(2)
Ni7_2 Ni 0.22146(2) 0.29535(2) 0.80528(2)
O9_2 O 0.28465(7) 0.28707(7) 0.71845(12)
C10_2 C 0.31039(12) 0.99990(11) 0.1674(2)
H7_2 H 0.3447 0.9838 0.1729
C11_2 C 0.26387(11) 0.96744(10) 0.17141(18)
C12_2 C 0.26919(11) 0.90639(11) 0.18425(18)
C13_2 C 0.21282(12) 0.99151(12) 0.1633(2)
H8_2 H 0.1814 0.9700 0.1657
N4_3 N 0.01598(9) 0.62130(9) 0.43357(16)
Ni5_3 Ni 0.06213(2) 0.40397(2) 0.55492(2)
Ni7_3 Ni 0.04535(2) 0.52854(2) 0.55528(2)
O9_3 O 0.03707(7) 0.46535(7) 0.46845(12)
C1_3 C 0.95636(11) 0.48968(13) 0.2798(2)
C2_2 C 0.94801(11) 0.49417(13) 0.1796(2)
C3_2 C 0.94032(13) 0.54412(14) 0.1385(2)
H1_2 H 0.9437 0.5762 0.1719
C4_2 C 0.92743(13) 0.54670(15) 0.0468(2)
H2_2 H 0.9213 0.5803 0.0188
C6_2 C 0.93407(13) 0.44871(15) 0.0369(2)
H3_2 H 0.9329 0.4168 0.0025
H4_3 H 0.8826 0.6536 0.5610
C7_2 C 0.94607(13) 0.44672(15) 0.1280(2)
H5_2 H 0.9530 0.4131 0.1552
C15_3 C 0.95952(11) 0.34225(11) 0.6182(2)
H10_3 H 0.9783 0.3189 0.6570
C16_3 C 0.89663(11) 0.38189(11) 0.5485(2)
H11_3 H 0.8622 0.3922 0.5279
N1_3 N 0.94249(9) 0.40480(9) 0.52092(16)
N2_3 N 0.98402(9) 0.37870(9) 0.56643(16)
N3_3 N 0.90480(9) 0.34220(9) 0.60937(17)
Ni1_2 Ni 0.93787(2) 0.59603(2) 0.44508(2)
Ni2_2 Ni 0.95465(2) 0.47146(2) 0.44472(2)
O1_3 O 0.96293(7) 0.53465(7) 0.53155(12)
O2_3 O 0.95981(9) 0.44223(9) 0.31348(14)
O3_3 O 0.95755(9) 0.53172(9) 0.32832(14)
O6_3 O 0.91620(10) 0.64721(10) 0.55335(16)
H12_3 H 0.9389 0.5569 0.5513
H13_3 H 0.9413 0.6478 0.5930
N5_3 N 0.90780(9) 0.65480(9) 0.35937(17)
Ni4_3 Ni 0.84603(2) 0.31213(2) 0.69508(2)
O10_2 O 0.87132(7) 0.47643(8) 0.43077(14)
O11_2 O 0.86092(7) 0.56683(8) 0.44710(14)
C5_2 C 0.92387(11) 0.49864(14) 0.9982(2)
C8_2 C 0.82857(11) 0.49481(14) 0.89734(19)
C9_2 C 0.80548(11) 0.44354(13) 0.9054(2)
H6_2 H 0.8271 0.4122 0.9028
C10_3 C 0.74990(11) 0.43961(12) 0.9174(2)
H7_3 H 0.7338 0.4053 0.9229
C11_3 C 0.71744(10) 0.48613(11) 0.92141(18)
C12_3 C 0.65639(11) 0.48081(11) 0.93425(18)
C13_3 C 0.74151(12) 0.53718(12) 0.9133(2)
H8_3 H 0.7200 0.5686 0.9157
C14_2 C 0.79760(13) 0.54155(14) 0.9016(2)
H9_2 H 0.8141 0.5758 0.8967
O4_2 O 0.62868(7) 0.52357(8) 0.93077(14)
O5_2 O 0.63908(7) 0.43317(8) 0.94710(14)
O7_2 O 0.91226(10) 0.55272(12) 0.84756(18)
O8_2 O 0.92016(9) 0.45187(12) 0.83903(16)
S1_2 S 0.90051(3) 0.50001(4) 0.88458(5)
Ni3_2 Ni 0.56213(2) 0.40397(2) 0.94508(2)
Ni6_2 Ni 0.54535(2) 0.52854(2) 0.94472(2)
H4_4 H 0.6174 0.3464 0.0610
C15_4 C 0.54048(11) 0.65775(11) 0.1182(2)
H10_4 H 0.5217 0.6811 0.1570
C16_4 C 0.60337(11) 0.61811(11) 0.0485(2)
H11_4 H 0.6378 0.6078 0.0279
N1_4 N 0.55751(9) 0.59520(9) 0.02092(16)
N2_4 N 0.51598(9) 0.62130(9) 0.06643(16)
N3_4 N 0.59520(9) 0.65780(9) 0.10937(17)
O1_4 O 0.53707(7) 0.46535(7) 0.03155(12)
O6_4 O 0.58380(10) 0.35279(10) 0.05335(16)
H12_4 H 0.5611 0.4431 0.0513
H13_4 H 0.5587 0.3522 0.0930
Ni4_4 Ni 0.65397(2) 0.68787(2) 0.19508(2)
Ni5_4 Ni 0.43787(2) 0.59603(2) 0.05492(2)
Ni7_4 Ni 0.45465(2) 0.47146(2) 0.05528(2)
C1_4 C 0.54364(11) 0.51032(13) 0.7798(2)
C2_3 C 0.55199(11) 0.50583(13) 0.6796(2)
C3_3 C 0.55968(13) 0.45588(14) 0.6385(2)
H1_3 H 0.5563 0.4238 0.6719
C4_3 C 0.57257(13) 0.45330(15) 0.5468(2)
H2_3 H 0.5787 0.4197 0.5188
C5_3 C 0.57613(11) 0.50136(14) 0.4982(2)
C6_3 C 0.56593(13) 0.55129(15) 0.5369(2)
H3_3 H 0.5671 0.5832 0.5025
C7_3 C 0.55393(13) 0.55328(15) 0.6280(2)
H5_3 H 0.5470 0.5869 0.6552
C8_3 C 0.67143(11) 0.50519(14) 0.39734(19)
C9_3 C 0.69452(11) 0.55646(13) 0.4054(2)
H6_3 H 0.6729 0.5878 0.4028
C10_4 C 0.75010(11) 0.56039(12) 0.4174(2)
H7_4 H 0.7662 0.5947 0.4229
C11_4 C 0.78256(10) 0.51387(11) 0.42141(18)
C12_4 C 0.84361(11) 0.51919(11) 0.43425(18)
C13_4 C 0.75849(12) 0.46282(12) 0.4133(2)
H8_4 H 0.7800 0.4314 0.4157
C14_3 C 0.70240(13) 0.45845(14) 0.4016(2)
H9_3 H 0.6859 0.4242 0.3967
O2_4 O 0.54019(9) 0.55777(9) 0.81348(14)
O3_4 O 0.54245(9) 0.46828(9) 0.82832(14)
O7_3 O 0.58774(10) 0.44728(12) 0.34756(18)
O8_3 O 0.57984(9) 0.54813(12) 0.33903(16)
S1_3 S 0.59949(3) 0.49999(4) 0.38458(5)
N4_4 N 0.48402(9) 0.37870(9) 0.93357(16)
N5_4 N 0.59220(9) 0.34520(9) 0.85937(17)
O9_4 O 0.46293(7) 0.53465(7) 0.96845(12)
C1_5 C 0.73968(13) 0.29364(11) 0.5298(2)
C2_4 C 0.74417(13) 0.30199(11) 0.4296(2)
C3_4 C 0.79412(14) 0.30968(13) 0.3885(2)
H1_4 H 0.8262 0.3063 0.4219
C4_4 C 0.79670(15) 0.32257(13) 0.2968(2)
H2_4 H 0.8303 0.3287 0.2688
C5_4 C 0.74864(14) 0.32613(11) 0.2482(2)
C6_4 C 0.69871(15) 0.31593(13) 0.2869(2)
H3_4 H 0.6668 0.3171 0.2525
H4_5 H 0.9036 0.3674 0.8110
C7_4 C 0.69672(15) 0.30393(13) 0.3780(2)
H5_4 H 0.6631 0.2970 0.4052
C8_4 C 0.74481(14) 0.42143(11) 0.14734(19)
C9_4 C 0.69354(13) 0.44452(11) 0.1554(2)
H6_4 H 0.6622 0.4229 0.1528
C10_5 C 0.68961(12) 0.50010(11) 0.1674(2)
H7_5 H 0.6553 0.5162 0.1729
C11_5 C 0.73613(11) 0.53256(10) 0.17141(18)
C12_5 C 0.73081(11) 0.59361(11) 0.18425(18)
C13_5 C 0.78718(12) 0.50849(12) 0.1633(2)
H8_5 H 0.8186 0.5300 0.1657
C14_4 C 0.79155(14) 0.45240(13) 0.1516(2)
H9_4 H 0.8258 0.4359 0.1467
C15_5 C 0.59225(11) 0.29048(11) 0.8682(2)
H10_5 H 0.5689 0.2717 0.9070
C16_5 C 0.63189(11) 0.35337(11) 0.7985(2)
H11_5 H 0.6422 0.3878 0.7779
N1_5 N 0.65480(9) 0.30751(9) 0.77092(16)
N2_5 N 0.62870(9) 0.26598(9) 0.81643(16)
Ni2_3 Ni 0.72146(2) 0.29535(2) 0.69472(2)
O1_5 O 0.78465(7) 0.28707(7) 0.78155(12)
O2_5 O 0.69223(9) 0.29019(9) 0.56348(14)
O3_5 O 0.78172(9) 0.29245(9) 0.57832(14)
O4_3 O 0.77357(8) 0.62132(7) 0.18077(14)
O5_3 O 0.68317(8) 0.61092(7) 0.19710(14)
O6_5 O 0.89721(10) 0.33380(10) 0.80335(16)
O7_4 O 0.80272(12) 0.33774(10) 0.09756(18)
O8_4 O 0.70187(12) 0.32984(9) 0.08903(16)
S1_4 S 0.75001(4) 0.34949(3) 0.13458(5)
H12_5 H 0.8069 0.3111 0.8013
H13_5 H 0.8978 0.3087 0.8430
N4_5 N 0.87130(9) 0.23402(9) 0.68357(16)
Ni5_5 Ni 0.65397(2) 0.18787(2) 0.80492(2)
Ni6_3 Ni 0.77854(2) 0.70465(2) 0.19472(2)
Ni7_5 Ni 0.77854(2) 0.20465(2) 0.80528(2)
O9_5 O 0.71535(7) 0.21293(7) 0.71845(12)
O10_3 O 0.72643(8) 0.37868(7) 0.68077(14)
O11_3 O 0.81683(8) 0.38908(7) 0.69710(14)
C1_6 C 0.76032(13) 0.70636(11) 0.0298(2)
H4_6 H 0.5964 0.6326 0.3110
C15_6 C 0.90775(11) 0.70952(11) 0.3682(2)
H10_6 H 0.9311 0.7283 0.4070
C16_6 C 0.86811(11) 0.64663(11) 0.2985(2)
H11_6 H 0.8578 0.6122 0.2779
N1_6 N 0.84520(9) 0.69249(9) 0.27092(16)
N2_6 N 0.87130(9) 0.73402(9) 0.31643(16)
O1_6 O 0.71535(7) 0.71293(7) 0.28155(12)
O2_6 O 0.80777(9) 0.70981(9) 0.06348(14)
O3_6 O 0.71828(9) 0.70755(9) 0.07832(14)
O6_6 O 0.60279(10) 0.66620(10) 0.30335(16)
H12_6 H 0.6931 0.6889 0.3013
H13_6 H 0.6022 0.6913 0.3430
N4_6 N 0.62870(9) 0.76598(9) 0.18357(16)
Ni5_6 Ni 0.84603(2) 0.81213(2) 0.30492(2)
Ni7_6 Ni 0.72146(2) 0.79535(2) 0.30528(2)
O9_6 O 0.78465(7) 0.78707(7) 0.21845(12)
C2_5 C 0.75583(13) 0.69801(11) 0.9296(2)
C3_5 C 0.70588(14) 0.69032(13) 0.8885(2)
H1_5 H 0.6738 0.6937 0.9219
C4_5 C 0.70330(15) 0.67743(13) 0.7968(2)
H2_5 H 0.6697 0.6713 0.7688
C5_5 C 0.75136(14) 0.67387(11) 0.7482(2)
C6_5 C 0.80129(15) 0.68407(13) 0.7869(2)
H3_5 H 0.8332 0.6829 0.7525
C7_5 C 0.80328(15) 0.69607(13) 0.8780(2)
H5_5 H 0.8369 0.7030 0.9052
C8_5 C 0.75519(14) 0.57857(11) 0.64734(19)
C9_5 C 0.80646(13) 0.55548(11) 0.6554(2)
H6_5 H 0.8378 0.5771 0.6528
C10_6 C 0.81039(12) 0.49990(11) 0.6674(2)
H7_6 H 0.8447 0.4838 0.6729
C11_6 C 0.76387(11) 0.46744(10) 0.67141(18)
C12_6 C 0.76919(11) 0.40639(11) 0.68425(18)
C13_6 C 0.71282(12) 0.49151(12) 0.6633(2)
H8_6 H 0.6814 0.4700 0.6657
C14_5 C 0.70845(14) 0.54760(13) 0.6516(2)
H9_5 H 0.6742 0.5641 0.6467
O7_5 O 0.69728(12) 0.66226(10) 0.59756(18)
O8_5 O 0.79813(12) 0.67016(9) 0.58903(16)
S1_5 S 0.74999(4) 0.65051(3) 0.63458(5)
H4_7 H 0.3826 0.1536 0.0610
O1_7 O 0.46293(7) 0.03465(7) 0.03155(12)
O6_7 O 0.41620(10) 0.14721(10) 0.05335(16)
H12_7 H 0.4389 0.0569 0.0513
H13_7 H 0.4413 0.1478 0.0930
Ni7_7 Ni 0.54535(2) 0.02854(2) 0.05528(2)
C3_6 C 0.44032(13) 0.04412(14) 0.6385(2)
H1_6 H 0.4437 0.0762 0.6719
C4_6 C 0.42743(13) 0.04670(15) 0.5468(2)
H2_6 H 0.4213 0.0803 0.5188
C13_7 C 0.24151(12) 0.03718(12) 0.4133(2)
H8_7 H 0.2200 0.0686 0.4157
C14_6 C 0.29760(13) 0.04155(14) 0.4016(2)
H9_6 H 0.3141 0.0758 0.3967
O3_7 O 0.45755(9) 0.03172(9) 0.82832(14)
O4_4 O 0.12868(7) 0.02357(8) 0.43077(14)
O7_6 O 0.41226(10) 0.05272(12) 0.34756(18)
S1_6 S 0.40051(3) 0.00001(4) 0.38458(5)
N4_7 N 0.51598(9) 0.12130(9) 0.93357(16)
Ni6_4 Ni 0.04535(2) 0.02854(2) 0.44472(2)
O11_4 O 0.36092(7) 0.06683(8) 0.94710(14)
C15_7 C 0.45952(11) 0.84225(11) 0.1182(2)
H10_7 H 0.4783 0.8189 0.1570
C16_7 C 0.39663(11) 0.88189(11) 0.0485(2)
H11_7 H 0.3622 0.8922 0.0279
N1_7 N 0.44249(9) 0.90480(9) 0.02092(16)
N2_7 N 0.48402(9) 0.87870(9) 0.06643(16)
Ni5_7 Ni 0.56213(2) 0.90397(2) 0.05492(2)
C1_7 C 0.45636(11) 0.98968(13) 0.7798(2)
C2_6 C 0.44801(11) 0.99417(13) 0.6796(2)
C5_6 C 0.42387(11) 0.99864(14) 0.4982(2)
C6_6 C 0.43407(13) 0.94871(15) 0.5369(2)
H3_6 H 0.4329 0.9168 0.5025
C7_6 C 0.44607(13) 0.94672(15) 0.6280(2)
H5_6 H 0.4530 0.9131 0.6552
C8_6 C 0.32857(11) 0.99481(14) 0.39734(19)
C9_6 C 0.30548(11) 0.94354(13) 0.4054(2)
H6_6 H 0.3271 0.9122 0.4028
C10_7 C 0.24990(11) 0.93961(12) 0.4174(2)
H7_7 H 0.2338 0.9053 0.4229
C11_7 C 0.21744(10) 0.98613(11) 0.42141(18)
C12_7 C 0.15639(11) 0.98081(11) 0.43425(18)
Ni2_4 Ni 0.45465(2) 0.97146(2) 0.94472(2)
O2_7 O 0.45981(9) 0.94223(9) 0.81348(14)
O5_4 O 0.13908(7) 0.93317(8) 0.44710(14)
O8_6 O 0.42016(9) 0.95187(12) 0.33903(16)
S1_7 S 0.40051(3) 1.00001(4) 0.38458(5)
O9_7 O 0.53707(7) 0.96535(7) 0.96845(12)
O10_4 O 0.37132(7) 0.97643(8) 0.93077(14)
C1_8 C 0.04364(11) 0.01032(13) 0.2798(2)
C2_7 C 0.05199(11) 0.00583(13) 0.1796(2)
C6_7 C 0.06593(13) 0.05129(15) 0.0369(2)
H3_7 H 0.0671 0.0832 0.0025
C7_7 C 0.05393(13) 0.05328(15) 0.1280(2)
H5_7 H 0.0470 0.0869 0.1552
C15_8 C 0.04048(11) 0.15775(11) 0.6182(2)
H10_8 H 0.0217 0.1811 0.6570
C16_8 C 0.10337(11) 0.11811(11) 0.5485(2)
H11_8 H 0.1378 0.1078 0.5279
N1_8 N 0.05751(9) 0.09520(9) 0.52092(16)
N2_8 N 0.01598(9) 0.12130(9) 0.56643(16)
O2_8 O 0.04019(9) 0.05777(9) 0.31348(14)
C5_7 C 0.07613(11) 0.00136(14) 0.9982(2)
C8_7 C 0.17143(11) 0.00519(14) 0.89734(19)
C9_7 C 0.19452(11) 0.05646(13) 0.9054(2)
H6_7 H 0.1729 0.0878 0.9028
C10_8 C 0.25010(11) 0.06039(12) 0.9174(2)
H7_8 H 0.2662 0.0947 0.9229
C11_8 C 0.28256(10) 0.01387(11) 0.92141(18)
C12_8 C 0.34361(11) 0.01919(11) 0.93425(18)
O8_7 O 0.07984(9) 0.04813(12) 0.83903(16)
S1_8 S 0.09949(3) -0.00001(4) 0.88458(5)
C3_7 C 0.05968(13) 0.95588(14) 0.1385(2)
H1_7 H 0.0563 0.9238 0.1719
C4_7 C 0.07257(13) 0.95330(15) 0.0468(2)
H2_7 H 0.0787 0.9197 0.0188
H4_8 H 0.1174 0.8464 0.5610
O1_8 O 0.03707(7) 0.96535(7) 0.53155(12)
O3_8 O 0.04245(9) 0.96828(9) 0.32832(14)
O6_8 O 0.08380(10) 0.85279(10) 0.55335(16)
H12_8 H 0.0611 0.9431 0.5513
H13_8 H 0.0587 0.8522 0.5930
C13_8 C 0.25849(12) 0.96282(12) 0.9133(2)
H8_8 H 0.2800 0.9314 0.9157
C14_7 C 0.20240(13) 0.95845(14) 0.9016(2)
H9_7 H 0.1859 0.9242 0.8967
O7_7 O 0.08774(10) 0.94728(12) 0.84756(18)
S1_9 S 0.09949(3) 0.99999(4) 0.88458(5)
Ni5_8 Ni 0.93787(2) 0.09603(2) 0.55492(2)
O9_8 O 0.96293(7) 0.03465(7) 0.46845(12)
N4_8 N 0.98402(9) 0.87870(9) 0.43357(16)
Ni7_8 Ni 0.95465(2) 0.97146(2) 0.55528(2)
C1_9 C 0.76032(13) 0.20636(11) 0.9702(2)
H4_9 H 0.5964 0.1326 0.6890
C15_9 C 0.90775(11) 0.20952(11) 0.6318(2)
H10_9 H 0.9311 0.2283 0.5930
C16_9 C 0.86811(11) 0.14663(11) 0.7015(2)
H11_9 H 0.8578 0.1122 0.7221
N1_9 N 0.84520(9) 0.19249(9) 0.72908(16)
N3_5 N 0.90780(9) 0.15480(9) 0.64063(17)
O2_9 O 0.80777(9) 0.20981(9) 0.93652(14)
O3_9 O 0.71828(9) 0.20755(9) 0.92168(14)
O6_9 O 0.60279(10) 0.16620(10) 0.69665(16)
H12_9 H 0.6931 0.1889 0.6987
H13_9 H 0.6022 0.1913 0.6570
N5_5 N 0.59520(9) 0.15780(9) 0.89063(17)
O10_5 O 0.77357(8) 0.12132(7) 0.81923(14)
O11_5 O 0.68317(8) 0.11092(7) 0.80290(14)
C10_9 C 0.81039(12) 0.99990(11) 0.3326(2)
H7_9 H 0.8447 0.9838 0.3271
C11_9 C 0.76387(11) 0.96744(10) 0.32859(18)
C12_9 C 0.76919(11) 0.90639(11) 0.31575(18)
C13_9 C 0.71282(12) 0.99151(12) 0.3367(2)
H8_9 H 0.6814 0.9700 0.3343
O4_5 O 0.72643(8) 0.87868(7) 0.31923(14)
O5_5 O 0.81683(8) 0.88908(7) 0.30290(14)
C10_10 C 0.68961(12) 0.00010(11) 0.8326(2)
H7_10 H 0.6553 0.0162 0.8271
C11_10 C 0.73613(11) 0.03256(10) 0.82859(18)
C12_10 C 0.73081(11) 0.09361(11) 0.81575(18)
C13_10 C 0.78718(12) 0.00849(12) 0.8367(2)
H8_10 H 0.8186 0.0300 0.8343
C1_10 C 0.73968(13) 0.79364(11) 0.4702(2)
C2_8 C 0.74417(13) 0.80199(11) 0.5704(2)
C3_8 C 0.79412(14) 0.80968(13) 0.6115(2)
H1_8 H 0.8262 0.8063 0.5781
C4_8 C 0.79670(15) 0.82257(13) 0.7032(2)
H2_8 H 0.8303 0.8287 0.7312
C5_8 C 0.74864(14) 0.82613(11) 0.7518(2)
C6_8 C 0.69871(15) 0.81593(13) 0.7131(2)
H3_8 H 0.6668 0.8171 0.7475
H4_10 H 0.9036 0.8674 0.1890
C7_8 C 0.69672(15) 0.80393(13) 0.6220(2)
H5_8 H 0.6631 0.7970 0.5948
C8_8 C 0.74481(14) 0.92143(11) 0.85266(19)
C9_8 C 0.69354(13) 0.94452(11) 0.8446(2)
H6_8 H 0.6622 0.9229 0.8472
C14_8 C 0.79155(14) 0.95240(13) 0.8484(2)
H9_8 H 0.8258 0.9359 0.8533
C15_10 C 0.59225(11) 0.79048(11) 0.1318(2)
H10_10 H 0.5689 0.7717 0.0930
C16_10 C 0.63189(11) 0.85337(11) 0.2015(2)
H11_10 H 0.6422 0.8878 0.2221
N1_10 N 0.65480(9) 0.80751(9) 0.22908(16)
N3_6 N 0.59220(9) 0.84520(9) 0.14063(17)
O2_10 O 0.69223(9) 0.79019(9) 0.43652(14)
O3_10 O 0.78172(9) 0.79245(9) 0.42168(14)
O6_10 O 0.89721(10) 0.83380(10) 0.19665(16)
O7_8 O 0.80272(12) 0.83774(10) 0.90244(18)
O8_8 O 0.70187(12) 0.82984(9) 0.91097(16)
S1_10 S 0.75001(4) 0.84949(3) 0.86542(5)
H12_10 H 0.8069 0.8111 0.1987
H13_10 H 0.8978 0.8087 0.1570
N5_6 N 0.90480(9) 0.84220(9) 0.39063(17)
C5_9 C 0.07613(11) 0.50136(14) 0.0018(2)
C8_9 C 0.17143(11) 0.50519(14) 0.10266(19)
C9_9 C 0.19452(11) 0.55646(13) 0.0946(2)
H6_9 H 0.1729 0.5878 0.0972
C10_11 C 0.25010(11) 0.56039(12) 0.0826(2)
H7_11 H 0.2662 0.5947 0.0771
C11_11 C 0.28256(10) 0.51387(11) 0.07859(18)
C12_11 C 0.34361(11) 0.51919(11) 0.06575(18)
C13_11 C 0.25849(12) 0.46282(12) 0.0867(2)
H8_11 H 0.2800 0.4314 0.0843
C14_9 C 0.20240(13) 0.45845(14) 0.0984(2)
H9_9 H 0.1859 0.4242 0.1033
O4_6 O 0.37132(7) 0.47643(8) 0.06923(14)
O5_6 O 0.36092(7) 0.56683(8) 0.05290(14)
O7_9 O 0.08774(10) 0.44728(12) 0.15244(18)
O8_9 O 0.07984(9) 0.54813(12) 0.16097(16)
S1_11 S 0.09949(3) 0.49999(4) 0.11542(5)
C1_11 C 0.04364(11) 0.51032(13) 0.7202(2)
C2_9 C 0.05199(11) 0.50583(13) 0.8204(2)
C3_9 C 0.05968(13) 0.45588(14) 0.8615(2)
H1_9 H 0.0563 0.4238 0.8281
C4_9 C 0.07257(13) 0.45330(15) 0.9532(2)
H2_9 H 0.0787 0.4197 0.9812
C6_9 C 0.06593(13) 0.55129(15) 0.9631(2)
H3_9 H 0.0671 0.5832 0.9975
H4_11 H 0.1174 0.3464 0.4390
C7_9 C 0.05393(13) 0.55328(15) 0.8720(2)
H5_9 H 0.0470 0.5869 0.8448
C15_11 C 0.04048(11) 0.65775(11) 0.3818(2)
H10_11 H 0.0217 0.6811 0.3430
C16_11 C 0.10337(11) 0.61811(11) 0.4515(2)
H11_11 H 0.1378 0.6078 0.4721
N1_11 N 0.05751(9) 0.59520(9) 0.47908(16)
N3_7 N 0.09520(9) 0.65780(9) 0.39063(17)
O2_11 O 0.04019(9) 0.55777(9) 0.68652(14)
O3_11 O 0.04245(9) 0.46828(9) 0.67168(14)
O6_11 O 0.08380(10) 0.35279(10) 0.44665(16)
H12_11 H 0.0611 0.4431 0.4487
H13_11 H 0.0587 0.3522 0.4070
N5_7 N 0.09220(9) 0.34520(9) 0.64063(17)
O10_6 O 0.12868(7) 0.52357(8) 0.56923(14)
O11_6 O 0.13908(7) 0.43317(8) 0.55290(14)
C1_12 C 0.45636(11) 0.48968(13) 0.2202(2)
C2_10 C 0.44801(11) 0.49417(13) 0.3204(2)
C3_10 C 0.44032(13) 0.54412(14) 0.3615(2)
H1_10 H 0.4437 0.5762 0.3281
C4_10 C 0.42743(13) 0.54670(15) 0.4532(2)
H2_10 H 0.4213 0.5803 0.4812
C5_10 C 0.42387(11) 0.49864(14) 0.5018(2)
C6_10 C 0.43407(13) 0.44871(15) 0.4631(2)
H3_10 H 0.4329 0.4168 0.4975
C7_10 C 0.44607(13) 0.44672(15) 0.3720(2)
H5_10 H 0.4530 0.4131 0.3448
C8_10 C 0.32857(11) 0.49481(14) 0.60266(19)
C9_10 C 0.30548(11) 0.44354(13) 0.5946(2)
H6_10 H 0.3271 0.4122 0.5972
C10_12 C 0.24990(11) 0.43961(12) 0.5826(2)
H7_12 H 0.2338 0.4053 0.5771
C11_12 C 0.21744(10) 0.48613(11) 0.57859(18)
C12_12 C 0.15639(11) 0.48081(11) 0.56575(18)
C13_12 C 0.24151(12) 0.53718(12) 0.5867(2)
H8_12 H 0.2200 0.5686 0.5843
C14_10 C 0.29760(13) 0.54155(14) 0.5984(2)
H9_10 H 0.3141 0.5758 0.6033
O2_12 O 0.45981(9) 0.44223(9) 0.18652(14)
O3_12 O 0.45755(9) 0.53172(9) 0.17168(14)
O7_10 O 0.41226(10) 0.55272(12) 0.65244(18)
O8_10 O 0.42016(9) 0.45187(12) 0.66097(16)
S1_12 S 0.40051(3) 0.50001(4) 0.61542(5)
N5_8 N 0.40780(9) 0.65480(9) 0.14063(17)
H4_12 H 0.3826 0.6536 0.9390
C15_12 C 0.45952(11) 0.34225(11) 0.8818(2)
H10_12 H 0.4783 0.3189 0.8430
C16_12 C 0.39663(11) 0.38189(11) 0.9515(2)
H11_12 H 0.3622 0.3922 0.9721
N1_12 N 0.44249(9) 0.40480(9) 0.97908(16)
N3_8 N 0.40480(9) 0.34220(9) 0.89063(17)
O6_12 O 0.41620(10) 0.64721(10) 0.94665(16)
H12_12 H 0.4389 0.5569 0.9487
H13_12 H 0.4413 0.6478 0.9070
C1_13 C 0.26032(13) 0.70636(11) 0.4702(2)
C2_11 C 0.25583(13) 0.69801(11) 0.5704(2)
C3_11 C 0.20588(14) 0.69032(13) 0.6115(2)
H1_11 H 0.1738 0.6937 0.5781
C4_11 C 0.20330(15) 0.67743(13) 0.7032(2)
H2_11 H 0.1697 0.6713 0.7312
C5_11 C 0.25136(14) 0.67387(11) 0.7518(2)
C6_11 C 0.30129(15) 0.68407(13) 0.7131(2)
H3_11 H 0.3332 0.6829 0.7475
H4_13 H 0.0964 0.6326 0.1890
C7_11 C 0.30328(15) 0.69607(13) 0.6220(2)
H5_11 H 0.3369 0.7030 0.5948
C8_11 C 0.25519(14) 0.57857(11) 0.85266(19)
C9_11 C 0.30646(13) 0.55548(11) 0.8446(2)
H6_11 H 0.3378 0.5771 0.8472
C10_13 C 0.31039(12) 0.49990(11) 0.8326(2)
H7_13 H 0.3447 0.4838 0.8271
C11_13 C 0.26387(11) 0.46744(10) 0.82859(18)
C12_13 C 0.26919(11) 0.40639(11) 0.81575(18)
C13_13 C 0.21282(12) 0.49151(12) 0.8367(2)
H8_13 H 0.1814 0.4700 0.8343
C14_11 C 0.20845(14) 0.54760(13) 0.8484(2)
H9_11 H 0.1742 0.5641 0.8533
C15_13 C 0.40775(11) 0.70952(11) 0.1318(2)
H10_13 H 0.4311 0.7283 0.0930
C16_13 C 0.36811(11) 0.64663(11) 0.2015(2)
H11_13 H 0.3578 0.6122 0.2221
N1_13 N 0.34520(9) 0.69249(9) 0.22908(16)
O2_13 O 0.30777(9) 0.70981(9) 0.43652(14)
O3_13 O 0.21828(9) 0.70755(9) 0.42168(14)
O4_7 O 0.22643(8) 0.37868(7) 0.81923(14)
O5_7 O 0.31683(8) 0.38908(7) 0.80290(14)
O6_13 O 0.10279(10) 0.66620(10) 0.19665(16)
O7_11 O 0.19728(12) 0.66226(10) 0.90244(18)
O8_11 O 0.29813(12) 0.67016(9) 0.91097(16)
S1_13 S 0.24999(4) 0.65051(3) 0.86542(5)
H12_13 H 0.1931 0.6889 0.1987
H13_13 H 0.1022 0.6913 0.1570
O10_7 O 0.27357(8) 0.62132(7) 0.31923(14)
O11_7 O 0.18317(8) 0.61092(7) 0.30290(14)
C2_12 C 0.24417(13) 0.30199(11) 0.0704(2)
C3_12 C 0.29412(14) 0.30968(13) 0.1115(2)
H1_12 H 0.3262 0.3063 0.0781
C4_12 C 0.29670(15) 0.32257(13) 0.2032(2)
H2_12 H 0.3303 0.3287 0.2312
C5_12 C 0.24864(14) 0.32613(11) 0.2518(2)
C6_12 C 0.19871(15) 0.31593(13) 0.2131(2)
H3_12 H 0.1668 0.3171 0.2475
C7_12 C 0.19672(15) 0.30393(13) 0.1220(2)
H5_12 H 0.1631 0.2970 0.0948
C8_12 C 0.24481(14) 0.42143(11) 0.35266(19)
C9_12 C 0.19354(13) 0.44452(11) 0.3446(2)
H6_12 H 0.1622 0.4229 0.3472
C10_14 C 0.18961(12) 0.50010(11) 0.3326(2)
H7_14 H 0.1553 0.5162 0.3271
C11_14 C 0.23613(11) 0.53256(10) 0.32859(18)
C12_14 C 0.23081(11) 0.59361(11) 0.31575(18)
C13_14 C 0.28718(12) 0.50849(12) 0.3367(2)
H8_14 H 0.3186 0.5300 0.3343
C14_12 C 0.29155(14) 0.45240(13) 0.3484(2)
H9_12 H 0.3258 0.4359 0.3533
O7_12 O 0.30272(12) 0.33774(10) 0.40244(18)
O8_12 O 0.20187(12) 0.32984(9) 0.41097(16)
S1_14 S 0.25001(4) 0.34949(3) 0.36542(5)
C1_14 C 0.23968(13) 0.29364(11) 0.9702(2)
H4_14 H 0.4036 0.3674 0.6890
C15_14 C 0.09225(11) 0.29048(11) 0.6318(2)
H10_14 H 0.0689 0.2717 0.5930
C16_14 C 0.13189(11) 0.35337(11) 0.7015(2)
H11_14 H 0.1422 0.3878 0.7221
N1_14 N 0.15480(9) 0.30751(9) 0.72908(16)
O2_14 O 0.19223(9) 0.29019(9) 0.93652(14)
O3_14 O 0.28172(9) 0.29245(9) 0.92168(14)
O6_14 O 0.39721(10) 0.33380(10) 0.69665(16)
H12_14 H 0.3069 0.3111 0.6987
H13_14 H 0.3978 0.3087 0.6570
C1_15 C 0.54364(11) 0.01032(13) 0.2202(2)
C2_13 C 0.55199(11) 0.00583(13) 0.3204(2)
C5_13 C 0.57613(11) 0.00136(14) 0.5018(2)
C6_13 C 0.56593(13) 0.05129(15) 0.4631(2)
H3_13 H 0.5671 0.0832 0.4975
C7_13 C 0.55393(13) 0.05328(15) 0.3720(2)
H5_13 H 0.5470 0.0869 0.3448
C8_13 C 0.67143(11) 0.00519(14) 0.60266(19)
C9_13 C 0.69452(11) 0.05646(13) 0.5946(2)
H6_13 H 0.6729 0.0878 0.5972
C10_15 C 0.75010(11) 0.06039(12) 0.5826(2)
H7_15 H 0.7662 0.0947 0.5771
C11_15 C 0.78256(10) 0.01387(11) 0.57859(18)
C12_15 C 0.84361(11) 0.01919(11) 0.56575(18)
O2_15 O 0.54019(9) 0.05777(9) 0.18652(14)
O5_8 O 0.86092(7) 0.06683(8) 0.55290(14)
O8_13 O 0.57984(9) 0.04813(12) 0.66097(16)
S1_15 S 0.59949(3) -0.00001(4) 0.61542(5)
O10_8 O 0.62868(7) 0.02357(8) 0.06923(14)
C15_15 C 0.54048(11) 0.15775(11) 0.8818(2)
H10_15 H 0.5217 0.1811 0.8430
C16_15 C 0.60337(11) 0.11811(11) 0.9515(2)
H11_15 H 0.6378 0.1078 0.9721
N1_15 N 0.55751(9) 0.09520(9) 0.97908(16)
C3_13 C 0.55968(13) 0.95588(14) 0.3615(2)
H1_13 H 0.5563 0.9238 0.3281
C4_13 C 0.57257(13) 0.95330(15) 0.4532(2)
H2_13 H 0.5787 0.9197 0.4812
C13_15 C 0.75849(12) 0.96282(12) 0.5867(2)
H8_15 H 0.7800 0.9314 0.5843
C14_13 C 0.70240(13) 0.95845(14) 0.5984(2)
H9_13 H 0.6859 0.9242 0.6033
O3_15 O 0.54245(9) 0.96828(9) 0.17168(14)
O4_8 O 0.87132(7) 0.97643(8) 0.56923(14)
O7_13 O 0.58774(10) 0.94728(12) 0.65244(18)
S1_16 S 0.59949(3) 0.99999(4) 0.61542(5)
O11_8 O 0.63908(7) 0.93317(8) 0.05290(14)
H4_15 H 0.6174 0.8464 0.9390
O6_15 O 0.58380(10) 0.85279(10) 0.94665(16)
H12_15 H 0.5611 0.9431 0.9487
H13_15 H 0.5587 0.8522 0.9070
C13_16 C 0.74151(12) 0.03718(12) 0.0867(2)
H8_16 H 0.7200 0.0686 0.0843
C14_14 C 0.79760(13) 0.04155(14) 0.0984(2)
H9_14 H 0.8141 0.0758 0.1033
O7_14 O 0.91226(10) 0.05272(12) 0.15244(18)
S1_17 S 0.90051(3) 0.00001(4) 0.11542(5)
C3_14 C 0.94032(13) 0.04412(14) 0.8615(2)
H1_14 H 0.9437 0.0762 0.8281
C4_14 C 0.92743(13) 0.04670(15) 0.9532(2)
H2_14 H 0.9213 0.0803 0.9812
H4_16 H 0.8826 0.1536 0.4390
O3_16 O 0.95755(9) 0.03172(9) 0.67168(14)
O6_16 O 0.91620(10) 0.14721(10) 0.44665(16)
H12_16 H 0.9389 0.0569 0.4487
H13_16 H 0.9413 0.1478 0.4070
C5_14 C 0.92387(11) 0.99864(14) 0.0018(2)
C8_14 C 0.82857(11) 0.99481(14) 0.10266(19)
C9_14 C 0.80548(11) 0.94354(13) 0.0946(2)
H6_14 H 0.8271 0.9122 0.0972
C10_16 C 0.74990(11) 0.93961(12) 0.0826(2)
H7_16 H 0.7338 0.9053 0.0771
C11_16 C 0.71744(10) 0.98613(11) 0.07859(18)
C12_16 C 0.65639(11) 0.98081(11) 0.06575(18)
O8_14 O 0.92016(9) 0.95187(12) 0.16097(16)
S1_18 S 0.90051(3) 1.00001(4) 0.11542(5)
C1_16 C 0.95636(11) 0.98968(13) 0.7202(2)
C2_14 C 0.94801(11) 0.99417(13) 0.8204(2)
C6_14 C 0.93407(13) 0.94871(15) 0.9631(2)
H3_14 H 0.9329 0.9168 0.9975
C7_14 C 0.94607(13) 0.94672(15) 0.8720(2)
H5_14 H 0.9530 0.9131 0.8448
C15_16 C 0.95952(11) 0.84225(11) 0.3818(2)
H10_16 H 0.9783 0.8189 0.3430
C16_16 C 0.89663(11) 0.88189(11) 0.4515(2)
H11_16 H 0.8622 0.8922 0.4721
N1_16 N 0.94249(9) 0.90480(9) 0.47908(16)
O2_16 O 0.95981(9) 0.94223(9) 0.68652(14)
C2_15 C 0.24417(13) 0.80199(11) 0.9296(2)
C3_15 C 0.29412(14) 0.80968(13) 0.8885(2)
H1_15 H 0.3262 0.8063 0.9219
C4_15 C 0.29670(15) 0.82257(13) 0.7968(2)
H2_15 H 0.3303 0.8287 0.7688
C5_15 C 0.24864(14) 0.82613(11) 0.7482(2)
C6_15 C 0.19871(15) 0.81593(13) 0.7869(2)
H3_15 H 0.1668 0.8171 0.7525
C7_15 C 0.19672(15) 0.80393(13) 0.8780(2)
H5_15 H 0.1631 0.7970 0.9052
C8_15 C 0.24481(14) 0.92143(11) 0.64734(19)
C9_15 C 0.19354(13) 0.94452(11) 0.6554(2)
H6_15 H 0.1622 0.9229 0.6528
C14_15 C 0.29155(14) 0.95240(13) 0.6516(2)
H9_15 H 0.3258 0.9359 0.6467
O7_15 O 0.30272(12) 0.83774(10) 0.59756(18)
O8_15 O 0.20187(12) 0.82984(9) 0.58903(16)
S1_19 S 0.25001(4) 0.84949(3) 0.63458(5)
C2_16 C 0.75583(13) 0.19801(11) 0.0704(2)
C3_16 C 0.70588(14) 0.19032(13) 0.1115(2)
H1_16 H 0.6738 0.1937 0.0781
C4_16 C 0.70330(15) 0.17743(13) 0.2032(2)
H2_16 H 0.6697 0.1713 0.2312
C5_16 C 0.75136(14) 0.17387(11) 0.2518(2)
C6_16 C 0.80129(15) 0.18407(13) 0.2131(2)
H3_16 H 0.8332 0.1829 0.2475
C7_16 C 0.80328(15) 0.19607(13) 0.1220(2)
H5_16 H 0.8369 0.2030 0.0948
C8_16 C 0.75519(14) 0.07857(11) 0.35266(19)
C9_16 C 0.80646(13) 0.05548(11) 0.3446(2)
H6_16 H 0.8378 0.0771 0.3472
C14_16 C 0.70845(14) 0.04760(13) 0.3484(2)
H9_16 H 0.6742 0.0641 0.3533
O7_16 O 0.69728(12) 0.16226(10) 0.40244(18)
O8_16 O 0.79813(12) 0.17016(9) 0.41097(16)
S1_20 S 0.74999(4) 0.15051(3) 0.36542(5)
loop_
_geom_bond_atom_site_label_1
_geom_bond_atom_site_label_2
_geom_bond_site_symmetry_1
_geom_bond_site_symmetry_2
H7 C10 1_555 1_555
C11 C10 1_555 1_555
C12 C11 1_555 1_555
C13 C11 1_555 1_555
H8 C13 1_555 1_555
O4 C12 1_555 1_555
O5 C12 1_555 1_555
Ni3 O5 1_555 1_555
Ni6 O4 1_555 1_555
H4 O6 1_555 1_555
C15 H10 1_555 1_555
C16 H11 1_555 1_555
N1 C16 1_555 1_555
N2 C15 1_555 1_555
N3 C15 1_555 1_555
Ni1 O1 1_555 1_555
Ni2 N1 1_555 1_555
O1 Ni2 1_555 1_555
O2 C1 1_555 1_555
O3 C1 1_555 1_555
O6 Ni1 1_555 1_555
H12 O1 1_555 1_555
H13 O6 1_555 1_555
N4 Ni1 1_555 1_555
N5 Ni1 1_555 1_555
Ni4 N3 1_555 1_555
Ni5 N2 1_555 1_555
Ni7 O1 1_555 1_555
O9 Ni2 1_555 1_555
O10 Ni2 1_555 1_555
O11 Ni1 1_555 1_555
C16 N3 1_555 1_555
N1 N2 1_555 1_555
Ni1 O3 1_555 1_555
Ni2 O2 1_555 1_555
Ni2 O3 1_555 1_555
Ni5 O9 1_555 1_555
Ni7 O9 1_555 1_555
C1_2 C2 1_555 1_555
C2 C3 1_555 1_555
C3 H1 1_555 1_555
C4 C3 1_555 1_555
H2 C4 1_555 1_555
C5 C4 1_555 1_555
C6 C5 1_555 1_555
H3 C6 1_555 1_555
H4_2 O6_2 1_555 1_555
C7 C2 1_555 1_555
H5 C7 1_555 1_555
C8 C9 1_555 1_555
C9 H6 1_555 1_555
C14 C8 1_555 1_555
H9 C14 1_555 1_555
C15_2 H10_2 1_555 1_555
C16_2 H11_2 1_555 1_555
N1_2 C16_2 1_555 1_555
N2_2 C15_2 1_555 1_555
N3_2 C15_2 1_555 1_555
Ni3 O1_2 1_555 1_555
Ni6 N1_2 1_555 1_555
O1_2 Ni6 1_555 1_555
O2_2 C1_2 1_555 1_555
O3_2 C1_2 1_555 1_555
O6_2 Ni3 1_555 1_555
O7 S1 1_555 1_555
O8 S1 1_555 1_555
S1 C5 1_555 1_555
H12_2 O1_2 1_555 1_555
H13_2 O6_2 1_555 1_555
N4_2 Ni3 1_555 1_555
N5_2 Ni3 1_555 1_555
Ni4_2 N3_2 1_555 1_555
Ni5_2 N2_2 1_555 1_555
Ni7_2 O1_2 1_555 1_555
O9_2 Ni6 1_555 1_555
C6 C7 1_555 1_555
C8 S1 1_555 1_555
C16_2 N3_2 1_555 1_555
N1_2 N2_2 1_555 1_555
Ni3 O3_2 1_555 1_555
Ni6 O2_2 1_555 1_555
Ni6 O3_2 1_555 1_555
Ni5_2 O9_2 1_555 1_555
Ni7_2 O9_2 1_555 1_555
H7_2 C10_2 1_555 1_555
C11_2 C10_2 1_555 1_555
C12_2 C11_2 1_555 1_555
C13_2 C11_2 1_555 1_555
H8_2 C13_2 1_555 1_555
O10 C12_2 1_555 1_555
O11 C12_2 1_555 1_555
Ni5_3 O9_3 1_555 1_555
Ni7_3 O9_3 1_555 1_555
C1_3 C2_2 1_555 1_555
C2_2 C3_2 1_555 1_555
C3_2 H1_2 1_555 1_555
C4_2 C3_2 1_555 1_555
H2_2 C4_2 1_555 1_555
H3_2 C6_2 1_555 1_555
H4_3 O6_3 1_555 1_555
C7_2 C2_2 1_555 1_555
H5_2 C7_2 1_555 1_555
C15_3 H10_3 1_555 1_555
C16_3 H11_3 1_555 1_555
N1_3 C16_3 1_555 1_555
N2_3 C15_3 1_555 1_555
N3_3 C15_3 1_555 1_555
Ni1_2 O1_3 1_555 1_555
Ni2_2 N1_3 1_555 1_555
O1_3 Ni2_2 1_555 1_555
O2_3 C1_3 1_555 1_555
O3_3 C1_3 1_555 1_555
O6_3 Ni1_2 1_555 1_555
H12_3 O1_3 1_555 1_555
H13_3 O6_3 1_555 1_555
N5_3 Ni1_2 1_555 1_555
Ni4_3 N3_3 1_555 1_555
O10_2 Ni2_2 1_555 1_555
O11_2 Ni1_2 1_555 1_555
C6_2 C7_2 1_555 1_555
C16_3 N3_3 1_555 1_555
N1_3 N2_3 1_555 1_555
Ni1_2 O3_3 1_555 1_555
Ni2_2 O2_3 1_555 1_555
Ni2_2 O3_3 1_555 1_555
C8_2 C9_2 1_555 1_555
C9_2 H6_2 1_555 1_555
C10_3 C9_2 1_555 1_555
H7_3 C10_3 1_555 1_555
C11_3 C10_3 1_555 1_555
C12_3 C11_3 1_555 1_555
C13_3 C11_3 1_555 1_555
H8_3 C13_3 1_555 1_555
C14_2 C8_2 1_555 1_555
H9_2 C14_2 1_555 1_555
O4_2 C12_3 1_555 1_555
O5_2 C12_3 1_555 1_555
O7_2 S1_2 1_555 1_555
O8_2 S1_2 1_555 1_555
S1_2 C5_2 1_555 1_555
Ni3_2 O5_2 1_555 1_555
Ni6_2 O4_2 1_555 1_555
C8_2 S1_2 1_555 1_555
C13_3 C14_2 1_555 1_555
H4_4 O6_4 1_555 1_555
C15_4 H10_4 1_555 1_555
C16_4 H11_4 1_555 1_555
N1_4 C16_4 1_555 1_555
N2_4 C15_4 1_555 1_555
N3_4 C15_4 1_555 1_555
H12_4 O1_4 1_555 1_555
H13_4 O6_4 1_555 1_555
Ni4_4 N3_4 1_555 1_555
Ni5_4 N2_4 1_555 1_555
Ni7_4 O1_4 1_555 1_555
C16_4 N3_4 1_555 1_555
N1_4 N2_4 1_555 1_555
C1_4 C2_3 1_555 1_555
C2_3 C3_3 1_555 1_555
C3_3 H1_3 1_555 1_555
C4_3 C3_3 1_555 1_555
H2_3 C4_3 1_555 1_555
C5_3 C4_3 1_555 1_555
C6_3 C5_3 1_555 1_555
H3_3 C6_3 1_555 1_555
C7_3 C2_3 1_555 1_555
H5_3 C7_3 1_555 1_555
C8_3 C9_3 1_555 1_555
C9_3 H6_3 1_555 1_555
C10_4 C9_3 1_555 1_555
H7_4 C10_4 1_555 1_555
C11_4 C10_4 1_555 1_555
C12_4 C11_4 1_555 1_555
C13_4 C11_4 1_555 1_555
H8_4 C13_4 1_555 1_555
C14_3 C8_3 1_555 1_555
H9_3 C14_3 1_555 1_555
O2_4 C1_4 1_555 1_555
O3_4 C1_4 1_555 1_555
O10_2 C12_4 1_555 1_555
O11_2 C12_4 1_555 1_555
O7_3 S1_3 1_555 1_555
O8_3 S1_3 1_555 1_555
S1_3 C5_3 1_555 1_555
N4_4 Ni3_2 1_555 1_555
N5_4 Ni3_2 1_555 1_555
O9_4 Ni6_2 1_555 1_555
C6_3 C7_3 1_555 1_555
C8_3 S1_3 1_555 1_555
C13_4 C14_3 1_555 1_555
Ni3_2 O3_4 1_555 1_555
Ni6_2 O2_4 1_555 1_555
Ni6_2 O3_4 1_555 1_555
C1_5 C2_4 1_555 1_555
C2_4 C3_4 1_555 1_555
C3_4 H1_4 1_555 1_555
C4_4 C3_4 1_555 1_555
H2_4 C4_4 1_555 1_555
C5_4 C4_4 1_555 1_555
C6_4 C5_4 1_555 1_555
H3_4 C6_4 1_555 1_555
H4_5 O6_5 1_555 1_555
C7_4 C2_4 1_555 1_555
H5_4 C7_4 1_555 1_555
C8_4 C9_4 1_555 1_555
C9_4 H6_4 1_555 1_555
C10_5 C9_4 1_555 1_555
H7_5 C10_5 1_555 1_555
C11_5 C10_5 1_555 1_555
C12_5 C11_5 1_555 1_555
C13_5 C11_5 1_555 1_555
H8_5 C13_5 1_555 1_555
C14_4 C8_4 1_555 1_555
H9_4 C14_4 1_555 1_555
C15_5 H10_5 1_555 1_555
C16_5 H11_5 1_555 1_555
N1_5 C16_5 1_555 1_555
N2_5 C15_5 1_555 1_555
N5_4 C15_5 1_555 1_555
Ni4_3 O1_5 1_555 1_555
Ni2_3 N1_5 1_555 1_555
O1_5 Ni2_3 1_555 1_555
O2_5 C1_5 1_555 1_555
O3_5 C1_5 1_555 1_555
O4_3 C12_5 1_555 1_555
O5_3 C12_5 1_555 1_555
O6_5 Ni4_3 1_555 1_555
O7_4 S1_4 1_555 1_555
O8_4 S1_4 1_555 1_555
S1_4 C5_4 1_555 1_555
H12_5 O1_5 1_555 1_555
H13_5 O6_5 1_555 1_555
N4_5 Ni4_3 1_555 1_555
Ni4_4 O5_3 1_555 1_555
Ni5_5 N2_5 1_555 1_555
Ni6_3 O4_3 1_555 1_555
Ni7_5 O1_5 1_555 1_555
O9_5 Ni2_3 1_555 1_555
O10_3 Ni2_3 1_555 1_555
O11_3 Ni4_3 1_555 1_555
C6_4 C7_4 1_555 1_555
C8_4 S1_4 1_555 1_555
C13_5 C14_4 1_555 1_555
C16_5 N5_4 1_555 1_555
N1_5 N2_5 1_555 1_555
Ni4_3 O3_5 1_555 1_555
Ni2_3 O2_5 1_555 1_555
Ni2_3 O3_5 1_555 1_555
Ni5_5 O9_5 1_555 1_555
Ni7_5 O9_5 1_555 1_555
H4_6 O6_6 1_555 1_555
C15_6 H10_6 1_555 1_555
C16_6 H11_6 1_555 1_555
N1_6 C16_6 1_555 1_555
N2_6 C15_6 1_555 1_555
N5_3 C15_6 1_555 1_555
Ni4_4 O1_6 1_555 1_555
Ni6_3 N1_6 1_555 1_555
O1_6 Ni6_3 1_555 1_555
O2_6 C1_6 1_555 1_555
O3_6 C1_6 1_555 1_555
O6_6 Ni4_4 1_555 1_555
H12_6 O1_6 1_555 1_555
H13_6 O6_6 1_555 1_555
N4_6 Ni4_4 1_555 1_555
Ni5_6 N2_6 1_555 1_555
Ni7_6 O1_6 1_555 1_555
O9_6 Ni6_3 1_555 1_555
C16_6 N5_3 1_555 1_555
N1_6 N2_6 1_555 1_555
Ni4_4 O3_6 1_555 1_555
Ni6_3 O2_6 1_555 1_555
Ni6_3 O3_6 1_555 1_555
Ni5_6 O9_6 1_555 1_555
Ni7_6 O9_6 1_555 1_555
C2_5 C3_5 1_555 1_555
C3_5 H1_5 1_555 1_555
C4_5 C3_5 1_555 1_555
H2_5 C4_5 1_555 1_555
C5_5 C4_5 1_555 1_555
C6_5 C5_5 1_555 1_555
H3_5 C6_5 1_555 1_555
C7_5 C2_5 1_555 1_555
H5_5 C7_5 1_555 1_555
C8_5 C9_5 1_555 1_555
C9_5 H6_5 1_555 1_555
C10_6 C9_5 1_555 1_555
H7_6 C10_6 1_555 1_555
C11_6 C10_6 1_555 1_555
C12_6 C11_6 1_555 1_555
C13_6 C11_6 1_555 1_555
H8_6 C13_6 1_555 1_555
C14_5 C8_5 1_555 1_555
H9_5 C14_5 1_555 1_555
O10_3 C12_6 1_555 1_555
O11_3 C12_6 1_555 1_555
O7_5 S1_5 1_555 1_555
O8_5 S1_5 1_555 1_555
S1_5 C5_5 1_555 1_555
C6_5 C7_5 1_555 1_555
C8_5 S1_5 1_555 1_555
C13_6 C14_5 1_555 1_555
H4_7 O6_7 1_555 1_555
H12_7 O1_7 1_555 1_555
H13_7 O6_7 1_555 1_555
Ni7_7 O1_7 1_555 1_555
C3_6 H1_6 1_555 1_555
C4_6 C3_6 1_555 1_555
H2_6 C4_6 1_555 1_555
H8_7 C13_7 1_555 1_555
H9_6 C14_6 1_555 1_555
O7_6 S1_6 1_555 1_555
N4_7 Ni4_2 1_555 1_555
Ni6_4 O4_4 1_555 1_555
O11_4 Ni4_2 1_555 1_555
C13_7 C14_6 1_555 1_555
Ni4_2 O3_7 1_555 1_555
C15_7 H10_7 1_555 1_555
C16_7 H11_7 1_555 1_555
N1_7 C16_7 1_555 1_555
N2_7 C15_7 1_555 1_555
N5 C15_7 1_555 1_555
Ni5_7 N2_7 1_555 1_555
C16_7 N5 1_555 1_555
N1_7 N2_7 1_555 1_555
C1_7 C2_6 1_555 1_555
C6_6 C5_6 1_555 1_555
H3_6 C6_6 1_555 1_555
C7_6 C2_6 1_555 1_555
H5_6 C7_6 1_555 1_555
C8_6 C9_6 1_555 1_555
C9_6 H6_6 1_555 1_555
C10_7 C9_6 1_555 1_555
H7_7 C10_7 1_555 1_555
C11_7 C10_7 1_555 1_555
C12_7 C11_7 1_555 1_555
O2_7 C1_7 1_555 1_555
O5_4 C12_7 1_555 1_555
O8_6 S1_7 1_555 1_555
S1_7 C5_6 1_555 1_555
Ni4 O5_4 1_555 1_555
O9_7 Ni2_4 1_555 1_555
O10_4 Ni2_4 1_555 1_555
C6_6 C7_6 1_555 1_555
C8_6 S1_7 1_555 1_555
Ni2_4 O2_7 1_555 1_555
C1_8 C2_7 1_555 1_555
H3_7 C6_7 1_555 1_555
C7_7 C2_7 1_555 1_555
H5_7 C7_7 1_555 1_555
C15_8 H10_8 1_555 1_555
C16_8 H11_8 1_555 1_555
N1_8 C16_8 1_555 1_555
N2_8 C15_8 1_555 1_555
N5_2 C15_8 1_555 1_555
Ni6_4 N1_8 1_555 1_555
O2_8 C1_8 1_555 1_555
C6_7 C7_7 1_555 1_555
C16_8 N5_2 1_555 1_555
N1_8 N2_8 1_555 1_555
Ni6_4 O2_8 1_555 1_555
C8_7 C9_7 1_555 1_555
C9_7 H6_7 1_555 1_555
C10_8 C9_7 1_555 1_555
H7_8 C10_8 1_555 1_555
C11_8 C10_8 1_555 1_555
C12_8 C11_8 1_555 1_555
O11_4 C12_8 1_555 1_555
O8_7 S1_8 1_555 1_555
S1_8 C5_7 1_555 1_555
C8_7 S1_8 1_555 1_555
C3_7 H1_7 1_555 1_555
C4_7 C3_7 1_555 1_555
H2_7 C4_7 1_555 1_555
H4_8 O6_8 1_555 1_555
Ni4 O1_8 1_555 1_555
O6_8 Ni4 1_555 1_555
H12_8 O1_8 1_555 1_555
H13_8 O6_8 1_555 1_555
Ni4 O3_8 1_555 1_555
H8_8 C13_8 1_555 1_555
H9_7 C14_7 1_555 1_555
O7_7 S1_9 1_555 1_555
C13_8 C14_7 1_555 1_555
Ni5_8 O9_8 1_555 1_555
H4_9 O6_9 1_555 1_555
C15_9 H10_9 1_555 1_555
C16_9 H11_9 1_555 1_555
N1_9 C16_9 1_555 1_555
N4_5 C15_9 1_555 1_555
N3_5 C15_9 1_555 1_555
Ni7_5 N1_9 1_555 1_555
O2_9 C1_9 1_555 1_555
O3_9 C1_9 1_555 1_555
O6_9 Ni5_5 1_555 1_555
H12_9 O9_5 1_555 1_555
H13_9 O6_9 1_555 1_555
N5_5 Ni5_5 1_555 1_555
Ni5_8 N3_5 1_555 1_555
O10_5 Ni7_5 1_555 1_555
O11_5 Ni5_5 1_555 1_555
C16_9 N3_5 1_555 1_555
N1_9 N4_5 1_555 1_555
Ni5_5 O3_9 1_555 1_555
Ni7_5 O2_9 1_555 1_555
Ni7_5 O3_9 1_555 1_555
H7_9 C10_9 1_555 1_555
C11_9 C10_9 1_555 1_555
C12_9 C11_9 1_555 1_555
C13_9 C11_9 1_555 1_555
H8_9 C13_9 1_555 1_555
O4_5 C12_9 1_555 1_555
O5_5 C12_9 1_555 1_555
Ni5_6 O5_5 1_555 1_555
Ni7_6 O4_5 1_555 1_555
H7_10 C10_10 1_555 1_555
C11_10 C10_10 1_555 1_555
C12_10 C11_10 1_555 1_555
C13_10 C11_10 1_555 1_555
H8_10 C13_10 1_555 1_555
O10_5 C12_10 1_555 1_555
O11_5 C12_10 1_555 1_555
C1_10 C2_8 1_555 1_555
C2_8 C3_8 1_555 1_555
C3_8 H1_8 1_555 1_555
C4_8 C3_8 1_555 1_555
H2_8 C4_8 1_555 1_555
C5_8 C4_8 1_555 1_555
C6_8 C5_8 1_555 1_555
H3_8 C6_8 1_555 1_555
H4_10 O6_10 1_555 1_555
C7_8 C2_8 1_555 1_555
H5_8 C7_8 1_555 1_555
C8_8 C9_8 1_555 1_555
C9_8 H6_8 1_555 1_555
C14_8 C8_8 1_555 1_555
H9_8 C14_8 1_555 1_555
C15_10 H10_10 1_555 1_555
C16_10 H11_10 1_555 1_555
N1_10 C16_10 1_555 1_555
N4_6 C15_10 1_555 1_555
N3_6 C15_10 1_555 1_555
Ni7_6 N1_10 1_555 1_555
O2_10 C1_10 1_555 1_555
O3_10 C1_10 1_555 1_555
O6_10 Ni5_6 1_555 1_555
O7_8 S1_10 1_555 1_555
O8_8 S1_10 1_555 1_555
S1_10 C5_8 1_555 1_555
H12_10 O9_6 1_555 1_555
H13_10 O6_10 1_555 1_555
N5_6 Ni5_6 1_555 1_555
Ni5_7 N3_6 1_555 1_555
C6_8 C7_8 1_555 1_555
C8_8 S1_10 1_555 1_555
C16_10 N3_6 1_555 1_555
N1_10 N4_6 1_555 1_555
Ni5_6 O3_10 1_555 1_555
Ni7_6 O2_10 1_555 1_555
Ni7_6 O3_10 1_555 1_555
C8_9 C9_9 1_555 1_555
C9_9 H6_9 1_555 1_555
C10_11 C9_9 1_555 1_555
H7_11 C10_11 1_555 1_555
C11_11 C10_11 1_555 1_555
C12_11 C11_11 1_555 1_555
C13_11 C11_11 1_555 1_555
H8_11 C13_11 1_555 1_555
C14_9 C8_9 1_555 1_555
H9_9 C14_9 1_555 1_555
O4_6 C12_11 1_555 1_555
O5_6 C12_11 1_555 1_555
O7_9 S1_11 1_555 1_555
O8_9 S1_11 1_555 1_555
S1_11 C5_9 1_555 1_555
Ni5_4 O5_6 1_555 1_555
Ni7_4 O4_6 1_555 1_555
C8_9 S1_11 1_555 1_555
C13_11 C14_9 1_555 1_555
C1_11 C2_9 1_555 1_555
C2_9 C3_9 1_555 1_555
C3_9 H1_9 1_555 1_555
C4_9 C3_9 1_555 1_555
H2_9 C4_9 1_555 1_555
H3_9 C6_9 1_555 1_555
H4_11 O6_11 1_555 1_555
C7_9 C2_9 1_555 1_555
H5_9 C7_9 1_555 1_555
C15_11 H10_11 1_555 1_555
C16_11 H11_11 1_555 1_555
N1_11 C16_11 1_555 1_555
N4_3 C15_11 1_555 1_555
N3_7 C15_11 1_555 1_555
Ni7_3 N1_11 1_555 1_555
O2_11 C1_11 1_555 1_555
O3_11 C1_11 1_555 1_555
O6_11 Ni5_3 1_555 1_555
H12_11 O9_3 1_555 1_555
H13_11 O6_11 1_555 1_555
N5_7 Ni5_3 1_555 1_555
Ni5 N3_7 1_555 1_555
O10_6 Ni7_3 1_555 1_555
O11_6 Ni5_3 1_555 1_555
C6_9 C7_9 1_555 1_555
C16_11 N3_7 1_555 1_555
N1_11 N4_3 1_555 1_555
Ni5_3 O3_11 1_555 1_555
Ni7_3 O2_11 1_555 1_555
Ni7_3 O3_11 1_555 1_555
C1_12 C2_10 1_555 1_555
C2_10 C3_10 1_555 1_555
C3_10 H1_10 1_555 1_555
C4_10 C3_10 1_555 1_555
H2_10 C4_10 1_555 1_555
C5_10 C4_10 1_555 1_555
C6_10 C5_10 1_555 1_555
H3_10 C6_10 1_555 1_555
C7_10 C2_10 1_555 1_555
H5_10 C7_10 1_555 1_555
C8_10 C9_10 1_555 1_555
C9_10 H6_10 1_555 1_555
C10_12 C9_10 1_555 1_555
H7_12 C10_12 1_555 1_555
C11_12 C10_12 1_555 1_555
C12_12 C11_12 1_555 1_555
C13_12 C11_12 1_555 1_555
H8_12 C13_12 1_555 1_555
C14_10 C8_10 1_555 1_555
H9_10 C14_10 1_555 1_555
O2_12 C1_12 1_555 1_555
O3_12 C1_12 1_555 1_555
O10_6 C12_12 1_555 1_555
O11_6 C12_12 1_555 1_555
O7_10 S1_12 1_555 1_555
O8_10 S1_12 1_555 1_555
S1_12 C5_10 1_555 1_555
N5_8 Ni5_4 1_555 1_555
C6_10 C7_10 1_555 1_555
C8_10 S1_12 1_555 1_555
C13_12 C14_10 1_555 1_555
Ni5_4 O3_12 1_555 1_555
Ni7_4 O2_12 1_555 1_555
Ni7_4 O3_12 1_555 1_555
H4_12 O6_12 1_555 1_555
C15_12 H10_12 1_555 1_555
C16_12 H11_12 1_555 1_555
N1_12 C16_12 1_555 1_555
N4_4 C15_12 1_555 1_555
N3_8 C15_12 1_555 1_555
H12_12 O9_4 1_555 1_555
H13_12 O6_12 1_555 1_555
Ni5_2 N3_8 1_555 1_555
C16_12 N3_8 1_555 1_555
N1_12 N4_4 1_555 1_555
C1_13 C2_11 1_555 1_555
C2_11 C3_11 1_555 1_555
C3_11 H1_11 1_555 1_555
C4_11 C3_11 1_555 1_555
H2_11 C4_11 1_555 1_555
C5_11 C4_11 1_555 1_555
C6_11 C5_11 1_555 1_555
H3_11 C6_11 1_555 1_555
H4_13 O6_13 1_555 1_555
C7_11 C2_11 1_555 1_555
H5_11 C7_11 1_555 1_555
C8_11 C9_11 1_555 1_555
C9_11 H6_11 1_555 1_555
C10_13 C9_11 1_555 1_555
H7_13 C10_13 1_555 1_555
C11_13 C10_13 1_555 1_555
C12_13 C11_13 1_555 1_555
C13_13 C11_13 1_555 1_555
H8_13 C13_13 1_555 1_555
C14_11 C8_11 1_555 1_555
H9_11 C14_11 1_555 1_555
C15_13 H10_13 1_555 1_555
C16_13 H11_13 1_555 1_555
N1_13 C16_13 1_555 1_555
N4 C15_13 1_555 1_555
N5_8 C15_13 1_555 1_555
Ni7 N1_13 1_555 1_555
O2_13 C1_13 1_555 1_555
O3_13 C1_13 1_555 1_555
O4_7 C12_13 1_555 1_555
O5_7 C12_13 1_555 1_555
O6_13 Ni5 1_555 1_555
O7_11 S1_13 1_555 1_555
O8_11 S1_13 1_555 1_555
S1_13 C5_11 1_555 1_555
H12_13 O9 1_555 1_555
H13_13 O6_13 1_555 1_555
Ni5_2 O5_7 1_555 1_555
Ni7_2 O4_7 1_555 1_555
O10_7 Ni7 1_555 1_555
O11_7 Ni5 1_555 1_555
C6_11 C7_11 1_555 1_555
C8_11 S1_13 1_555 1_555
C13_13 C14_11 1_555 1_555
C16_13 N5_8 1_555 1_555
N1_13 N4 1_555 1_555
Ni5 O3_13 1_555 1_555
Ni7 O2_13 1_555 1_555
Ni7 O3_13 1_555 1_555
C2_12 C3_12 1_555 1_555
C3_12 H1_12 1_555 1_555
C4_12 C3_12 1_555 1_555
H2_12 C4_12 1_555 1_555
C5_12 C4_12 1_555 1_555
C6_12 C5_12 1_555 1_555
H3_12 C6_12 1_555 1_555
C7_12 C2_12 1_555 1_555
H5_12 C7_12 1_555 1_555
C8_12 C9_12 1_555 1_555
C9_12 H6_12 1_555 1_555
C10_14 C9_12 1_555 1_555
H7_14 C10_14 1_555 1_555
C11_14 C10_14 1_555 1_555
C12_14 C11_14 1_555 1_555
C13_14 C11_14 1_555 1_555
H8_14 C13_14 1_555 1_555
C14_12 C8_12 1_555 1_555
H9_12 C14_12 1_555 1_555
O10_7 C12_14 1_555 1_555
O11_7 C12_14 1_555 1_555
O7_12 S1_14 1_555 1_555
O8_12 S1_14 1_555 1_555
S1_14 C5_12 1_555 1_555
C6_12 C7_12 1_555 1_555
C8_12 S1_14 1_555 1_555
C13_14 C14_12 1_555 1_555
H4_14 O6_14 1_555 1_555
C15_14 H10_14 1_555 1_555
C16_14 H11_14 1_555 1_555
N1_14 C16_14 1_555 1_555
N4_2 C15_14 1_555 1_555
N5_7 C15_14 1_555 1_555
Ni7_2 N1_14 1_555 1_555
O2_14 C1_14 1_555 1_555
O3_14 C1_14 1_555 1_555
O6_14 Ni5_2 1_555 1_555
H12_14 O9_2 1_555 1_555
H13_14 O6_14 1_555 1_555
C16_14 N5_7 1_555 1_555
N1_14 N4_2 1_555 1_555
Ni5_2 O3_14 1_555 1_555
Ni7_2 O2_14 1_555 1_555
Ni7_2 O3_14 1_555 1_555
C1_15 C2_13 1_555 1_555
C6_13 C5_13 1_555 1_555
H3_13 C6_13 1_555 1_555
C7_13 C2_13 1_555 1_555
H5_13 C7_13 1_555 1_555
C8_13 C9_13 1_555 1_555
C9_13 H6_13 1_555 1_555
C10_15 C9_13 1_555 1_555
H7_15 C10_15 1_555 1_555
C11_15 C10_15 1_555 1_555
C12_15 C11_15 1_555 1_555
O2_15 C1_15 1_555 1_555
O5_8 C12_15 1_555 1_555
O8_13 S1_15 1_555 1_555
S1_15 C5_13 1_555 1_555
Ni5_8 O5_8 1_555 1_555
O10_8 Ni7_7 1_555 1_555
C6_13 C7_13 1_555 1_555
C8_13 S1_15 1_555 1_555
Ni7_7 O2_15 1_555 1_555
C15_15 H10_15 1_555 1_555
C16_15 H11_15 1_555 1_555
N1_15 C16_15 1_555 1_555
N4_7 C15_15 1_555 1_555
N5_5 C15_15 1_555 1_555
C16_15 N5_5 1_555 1_555
N1_15 N4_7 1_555 1_555
C3_13 H1_13 1_555 1_555
C4_13 C3_13 1_555 1_555
H2_13 C4_13 1_555 1_555
H8_15 C13_15 1_555 1_555
H9_13 C14_13 1_555 1_555
O7_13 S1_16 1_555 1_555
Ni7_8 O4_8 1_555 1_555
O11_8 Ni5_7 1_555 1_555
C13_15 C14_13 1_555 1_555
Ni5_7 O3_15 1_555 1_555
H4_15 O6_15 1_555 1_555
H12_15 O9_7 1_555 1_555
H13_15 O6_15 1_555 1_555
H8_16 C13_16 1_555 1_555
H9_14 C14_14 1_555 1_555
O7_14 S1_17 1_555 1_555
C13_16 C14_14 1_555 1_555
C3_14 H1_14 1_555 1_555
C4_14 C3_14 1_555 1_555
H2_14 C4_14 1_555 1_555
H4_16 O6_16 1_555 1_555
O6_16 Ni5_8 1_555 1_555
H12_16 O9_8 1_555 1_555
H13_16 O6_16 1_555 1_555
Ni5_8 O3_16 1_555 1_555
C8_14 C9_14 1_555 1_555
C9_14 H6_14 1_555 1_555
C10_16 C9_14 1_555 1_555
H7_16 C10_16 1_555 1_555
C11_16 C10_16 1_555 1_555
C12_16 C11_16 1_555 1_555
O11_8 C12_16 1_555 1_555
O8_14 S1_18 1_555 1_555
S1_18 C5_14 1_555 1_555
C8_14 S1_18 1_555 1_555
C1_16 C2_14 1_555 1_555
H3_14 C6_14 1_555 1_555
C7_14 C2_14 1_555 1_555
H5_14 C7_14 1_555 1_555
C15_16 H10_16 1_555 1_555
C16_16 H11_16 1_555 1_555
N1_16 C16_16 1_555 1_555
N4_8 C15_16 1_555 1_555
N5_6 C15_16 1_555 1_555
Ni7_8 N1_16 1_555 1_555
O2_16 C1_16 1_555 1_555
C6_14 C7_14 1_555 1_555
C16_16 N5_6 1_555 1_555
N1_16 N4_8 1_555 1_555
Ni7_8 O2_16 1_555 1_555
C2_15 C3_15 1_555 1_555
C3_15 H1_15 1_555 1_555
C4_15 C3_15 1_555 1_555
H2_15 C4_15 1_555 1_555
C5_15 C4_15 1_555 1_555
C6_15 C5_15 1_555 1_555
H3_15 C6_15 1_555 1_555
C7_15 C2_15 1_555 1_555
H5_15 C7_15 1_555 1_555
C8_15 C9_15 1_555 1_555
C9_15 H6_15 1_555 1_555
C14_15 C8_15 1_555 1_555
H9_15 C14_15 1_555 1_555
O7_15 S1_19 1_555 1_555
O8_15 S1_19 1_555 1_555
S1_19 C5_15 1_555 1_555
C6_15 C7_15 1_555 1_555
C8_15 S1_19 1_555 1_555
C2_16 C3_16 1_555 1_555
C3_16 H1_16 1_555 1_555
C4_16 C3_16 1_555 1_555
H2_16 C4_16 1_555 1_555
C5_16 C4_16 1_555 1_555
C6_16 C5_16 1_555 1_555
H3_16 C6_16 1_555 1_555
C7_16 C2_16 1_555 1_555
H5_16 C7_16 1_555 1_555
C8_16 C9_16 1_555 1_555
C9_16 H6_16 1_555 1_555
C14_16 C8_16 1_555 1_555
H9_16 C14_16 1_555 1_555
O7_16 S1_20 1_555 1_555
O8_16 S1_20 1_555 1_555
S1_20 C5_16 1_555 1_555
C6_16 C7_16 1_555 1_555
C8_16 S1_20 1_555 1_555

#END
