
###############################################################################
#
# This file contains modified crystal structure data generated from the
# MOF subset of the Cambridge Structural Database (CSD) v543 
# hosted by the Cambridge Crystallographic Data Centre (CCDC).
#
# This work is licensed under the Creative Commons
# Attribution-NonCommercial-ShareAlike 4.0 International License.
# To view a copy of this license, visit
# http://creativecommons.org/licenses/by-nc-sa/4.0/
# or send a letter to
# Creative Commons, PO Box 1866, Mountain View, CA 94042, USA.
#
# CIF created using the CSD Python API on 29 September 2022
# The structure has been converted into the P1 space group
# The structure has a 3D framework
# The original CSD entry PEZTAS is in the tetragonal crystal system
# The framework has been calculated to contain at least 10.0% void space
# The void calculation uses a probe of radius 1.32A, grid spacing 0.4
#
###############################################################################

data_PEZTAS
_chemical_formula_moiety         '(C256 H208 N48 O120 S16 Zn28)n'
_symmetry_cell_setting           triclinic
_symmetry_space_group_name_H-M   'P 1'
_symmetry_Int_Tables_number      1
_space_group_name_Hall           'P 1'
loop_
_symmetry_equiv_pos_site_id
_symmetry_equiv_pos_as_xyz
1 x,y,z
_cell_length_a                   24.9898(13)
_cell_length_b                   24.9898(13)
_cell_length_c                   14.9086(15)
_cell_angle_alpha                90
_cell_angle_beta                 90
_cell_angle_gamma                90
_cell_volume                     9310.27
loop_
_atom_site_label
_atom_site_type_symbol
_atom_site_fract_x
_atom_site_fract_y
_atom_site_fract_z
N1 N 0.59334(8) 0.65694(8) 0.61244(15)
C1 C 0.34310(10) 0.51912(10) 0.56411(17)
C2 C 0.28296(10) 0.51476(10) 0.57674(16)
C3 C 0.25231(10) 0.56053(11) 0.58076(18)
H1 H 0.2687 0.5938 0.5760
C4 C 0.19758(10) 0.55757(12) 0.59176(19)
H2 H 0.1770 0.5885 0.5939
C5 C 0.17386(10) 0.50784(11) 0.59962(17)
C6 C 0.20382(11) 0.46189(12) 0.5956(2)
H3 H 0.1874 0.4286 0.6002
C7 C 0.25865(11) 0.46543(11) 0.5846(2)
H4 H 0.2792 0.4344 0.5826
C8 C 0.07983(10) 0.50093(12) 0.50150(18)
C9 C 0.07034(13) 0.54766(13) 0.4560(2)
H5 H 0.0726 0.5805 0.4851
C10 C 0.05721(13) 0.54500(12) 0.3653(2)
H6 H 0.0507 0.5764 0.3337
C11 C 0.05376(10) 0.49666(11) 0.32184(17)
C12 C 0.06129(13) 0.45016(12) 0.3695(2)
H7 H 0.0576 0.4173 0.3409
C13 C 0.07438(14) 0.45190(13) 0.4602(2)
H8 H 0.0794 0.4204 0.4925
C14 C 0.04549(10) 0.49421(12) 0.22230(18)
C15 C 0.53975(10) 0.65686(10) 0.62071(18)
H9 H 0.5213 0.6786 0.6608
C16 C 0.60176(10) 0.62019(10) 0.54916(18)
H10 H 0.6355 0.6108 0.5283
N2 N 0.51626(8) 0.62277(8) 0.56605(14)
N3 N 0.55708(8) 0.59864(8) 0.51947(14)
O1 O 0.46258(7) 0.53560(7) 0.47551(12)
O2 O 0.36080(7) 0.56567(7) 0.55483(14)
O3 O 0.36947(7) 0.47695(7) 0.56382(14)
O4 O 0.03701(8) 0.53785(8) 0.18171(13)
O5 O 0.04868(9) 0.44996(9) 0.18484(14)
O6 O 0.41560(10) 0.64696(10) 0.43966(15)
O7 O 0.09200(9) 0.45386(11) 0.65555(15)
O8 O 0.08493(8) 0.55219(11) 0.65319(15)
S1 S 0.10365(3) 0.50364(3) 0.61293(5)
Zn1 Zn 0.54715(2) 0.53058(2) 0.45055(2)
Zn2 Zn 0.43781(2) 0.59665(2) 0.55874(2)
H11 H 0.3812 0.6561 0.4398
H12 H 0.4278 0.6482 0.3916
H13 H 0.4454 0.5279 0.5253
N4 N 0.40694(8) 0.65666(8) 0.63756(15)
O9 O 0.53742(7) 0.46440(7) 0.52449(12)
O10 O 0.63053(7) 0.52305(7) 0.43618(14)
O11 O 0.53701(8) 0.53785(8) 0.31829(13)
O12 O 0.45132(9) 0.55004(9) 0.68484(14)
Zn3 Zn 0.45285(2) 0.46942(2) 0.54945(2)
Zn4 Zn 0.04715(2) 0.53058(2) 0.04945(2)
Zn5 Zn 0.06219(2) 0.40335(2) 0.05874(2)
Zn6 Zn 0.65335(2) 0.68781(2) 0.69126(2)
C1_2 C 0.15690(10) 0.48088(10) 0.06411(17)
C2_2 C 0.21704(10) 0.48524(10) 0.07674(16)
C3_2 C 0.24769(10) 0.43947(11) 0.08076(18)
H1_2 H 0.2313 0.4062 0.0760
C4_2 C 0.30242(10) 0.44243(12) 0.09176(19)
H2_2 H 0.3230 0.4115 0.0939
C5_2 C 0.32614(10) 0.49216(11) 0.09962(17)
C6_2 C 0.29618(11) 0.53811(12) 0.0956(2)
H3_2 H 0.3126 0.5714 0.1002
C7_2 C 0.24135(11) 0.53457(11) 0.0846(2)
H4_2 H 0.2208 0.5656 0.0826
C8_2 C 0.42017(10) 0.49907(12) 0.00150(18)
O2_2 O 0.13920(7) 0.43433(7) 0.05483(14)
O3_2 O 0.13053(7) 0.52305(7) 0.06382(14)
O7_2 O 0.40800(9) 0.54614(11) 0.15555(15)
O8_2 O 0.41507(8) 0.44781(11) 0.15319(15)
S1_2 S 0.39635(3) 0.49636(3) 0.11293(5)
H13_2 H 0.0546 0.4721 0.0253
N4_2 N 0.09306(8) 0.34334(8) 0.13756(15)
C9_2 C 0.42966(13) 0.45234(13) 0.9560(2)
H5_2 H 0.4274 0.4195 0.9851
C10_2 C 0.44279(13) 0.45500(12) 0.8653(2)
H6_2 H 0.4493 0.4236 0.8337
C11_2 C 0.44624(10) 0.50334(11) 0.82184(17)
C12_2 C 0.43871(13) 0.54984(12) 0.8695(2)
H7_2 H 0.4424 0.5827 0.8409
C13_2 C 0.42562(14) 0.54810(13) 0.9602(2)
H8_2 H 0.4206 0.5796 0.9925
C14_2 C 0.45451(10) 0.50579(12) 0.72230(18)
O1_2 O 0.03742(7) 0.46440(7) 0.97551(12)
O4_2 O 0.46299(8) 0.46215(8) 0.68171(13)
O6_2 O 0.08440(10) 0.35304(10) 0.93966(15)
H11_2 H 0.1188 0.3439 0.9398
H12_2 H 0.0722 0.3518 0.8916
N1_2 N 0.90666(8) 0.34306(8) 0.11244(15)
C15_2 C 0.96025(10) 0.34314(10) 0.12071(18)
H9_2 H 0.9787 0.3214 0.1608
C16_2 C 0.89824(10) 0.37981(10) 0.04916(18)
H10_2 H 0.8645 0.3892 0.0283
N2_2 N 0.98374(8) 0.37723(8) 0.06605(14)
N3_2 N 0.94292(8) 0.40136(8) 0.01947(14)
O9_2 O 0.96258(7) 0.53560(7) 0.02449(12)
Zn6_2 Zn 0.84665(2) 0.31219(2) 0.19126(2)
Zn1_2 Zn 0.95285(2) 0.46942(2) 0.95055(2)
O10_2 O 0.86947(7) 0.47695(7) 0.93618(14)
O11_2 O 0.96299(8) 0.46215(8) 0.81829(13)
N1_3 N 0.09306(8) 0.84334(8) 0.86244(15)
C1_3 C 0.23088(10) 0.59310(10) 0.81411(17)
C2_3 C 0.23524(10) 0.53296(10) 0.82674(16)
C3_3 C 0.18947(11) 0.50231(10) 0.83076(18)
H1_3 H 0.1562 0.5187 0.8260
C4_3 C 0.19243(12) 0.44758(10) 0.84176(19)
H2_3 H 0.1615 0.4270 0.8439
C5_3 C 0.24216(11) 0.42386(10) 0.84962(17)
C6_3 C 0.28811(12) 0.45382(11) 0.8456(2)
H3_3 H 0.3214 0.4374 0.8502
C7_3 C 0.28457(11) 0.50865(11) 0.8346(2)
H4_3 H 0.3156 0.5292 0.8326
C8_3 C 0.24907(12) 0.32983(10) 0.75150(18)
C9_3 C 0.20234(13) 0.32034(13) 0.7060(2)
H5_3 H 0.1695 0.3226 0.7351
C10_3 C 0.20500(12) 0.30721(13) 0.6153(2)
H6_3 H 0.1736 0.3007 0.5837
C11_3 C 0.25334(11) 0.30376(10) 0.57184(17)
C12_3 C 0.29984(12) 0.31129(13) 0.6195(2)
H7_3 H 0.3327 0.3076 0.5909
C13_3 C 0.29810(13) 0.32438(14) 0.7102(2)
H8_3 H 0.3296 0.3294 0.7425
C14_3 C 0.25579(12) 0.29549(10) 0.47230(18)
C15_3 C 0.09314(10) 0.78975(10) 0.87071(18)
H9_3 H 0.0714 0.7713 0.9108
C16_3 C 0.12981(10) 0.85176(10) 0.79916(18)
H10_3 H 0.1392 0.8855 0.7783
N2_3 N 0.12723(8) 0.76626(8) 0.81605(14)
N3_3 N 0.15136(8) 0.80708(8) 0.76947(14)
O1_3 O 0.21440(7) 0.71258(7) 0.72551(12)
O2_3 O 0.18433(7) 0.61080(7) 0.80483(14)
O3_3 O 0.27305(7) 0.61947(7) 0.81382(14)
O4_3 O 0.21215(8) 0.28701(8) 0.43171(13)
O5_2 O 0.30004(9) 0.29868(9) 0.43484(14)
O6_3 O 0.10304(10) 0.66560(10) 0.68966(15)
O7_3 O 0.29614(11) 0.34200(9) 0.90555(15)
O8_3 O 0.19781(11) 0.33493(8) 0.90319(15)
S1_3 S 0.24636(3) 0.35365(3) 0.86293(5)
Zn1_3 Zn 0.21942(2) 0.79715(2) 0.70055(2)
Zn2_2 Zn 0.15335(2) 0.68781(2) 0.80874(2)
H11_3 H 0.0939 0.6312 0.6898
H12_3 H 0.1018 0.6778 0.6416
H13_3 H 0.2221 0.6954 0.7753
N4_3 N 0.09334(8) 0.65694(8) 0.88756(15)
O9_3 O 0.28560(7) 0.78742(7) 0.77449(12)
O10_3 O 0.22695(7) 0.88053(7) 0.68618(14)
O11_3 O 0.21215(8) 0.78701(8) 0.56829(13)
O12_2 O 0.19996(9) 0.70132(9) 0.93484(14)
Zn3_2 Zn 0.28058(2) 0.70285(2) 0.79945(2)
Zn4_2 Zn 0.21942(2) 0.29715(2) 0.29945(2)
Zn5_2 Zn 0.34665(2) 0.31219(2) 0.30874(2)
Zn6_3 Zn 0.06219(2) 0.90335(2) 0.94126(2)
N1_4 N 0.40694(8) 0.15666(8) 0.36244(15)
C1_4 C 0.26912(10) 0.40690(10) 0.31411(17)
C2_4 C 0.26476(10) 0.46704(10) 0.32674(16)
C3_4 C 0.31053(11) 0.49769(10) 0.33076(18)
H1_4 H 0.3438 0.4813 0.3260
C4_4 C 0.30757(12) 0.55242(10) 0.34176(19)
H2_4 H 0.3385 0.5730 0.3439
C5_4 C 0.25784(11) 0.57614(10) 0.34962(17)
C6_4 C 0.21189(12) 0.54618(11) 0.3456(2)
H3_4 H 0.1786 0.5626 0.3502
C7_4 C 0.21543(11) 0.49135(11) 0.3346(2)
H4_4 H 0.1844 0.4708 0.3326
C8_4 C 0.25093(12) 0.67017(10) 0.25150(18)
C9_4 C 0.29766(13) 0.67966(13) 0.2060(2)
H5_4 H 0.3305 0.6774 0.2351
C10_4 C 0.29500(12) 0.69279(13) 0.1153(2)
H6_4 H 0.3264 0.6993 0.0837
C11_4 C 0.24666(11) 0.69624(10) 0.07184(17)
C12_4 C 0.20016(12) 0.68871(13) 0.1195(2)
H7_4 H 0.1673 0.6924 0.0909
C13_4 C 0.20190(13) 0.67562(14) 0.2102(2)
H8_4 H 0.1704 0.6706 0.2425
C15_4 C 0.40686(10) 0.21025(10) 0.37071(18)
H9_4 H 0.4286 0.2287 0.4108
C16_4 C 0.37019(10) 0.14824(10) 0.29916(18)
H10_4 H 0.3608 0.1145 0.2783
N2_4 N 0.37277(8) 0.23374(8) 0.31605(14)
N3_4 N 0.34864(8) 0.19292(8) 0.26947(14)
O1_4 O 0.28560(7) 0.28742(7) 0.22551(12)
O2_4 O 0.31567(7) 0.38920(7) 0.30483(14)
O3_4 O 0.22695(7) 0.38053(7) 0.31382(14)
O6_4 O 0.39696(10) 0.33440(10) 0.18966(15)
O7_4 O 0.20386(11) 0.65800(9) 0.40555(15)
O8_4 O 0.30219(11) 0.66507(8) 0.40319(15)
S1_4 S 0.25364(3) 0.64635(3) 0.36293(5)
Zn1_4 Zn 0.28058(2) 0.20285(2) 0.20055(2)
H11_4 H 0.4061 0.3688 0.1898
H12_4 H 0.3982 0.3222 0.1416
H13_4 H 0.2779 0.3046 0.2753
N4_4 N 0.40666(8) 0.34306(8) 0.38756(15)
O9_4 O 0.21440(7) 0.21258(7) 0.27449(12)
O10_4 O 0.27305(7) 0.11947(7) 0.18618(14)
O11_4 O 0.28785(8) 0.21299(8) 0.06829(13)
Zn6_4 Zn 0.43781(2) 0.09665(2) 0.44126(2)
C14_4 C 0.24421(12) 0.70451(10) 0.97230(18)
O4_4 O 0.28785(8) 0.71299(8) 0.93171(13)
N1_5 N 0.09334(8) 0.15694(8) 0.11244(15)
C15_5 C 0.03975(10) 0.15686(10) 0.12071(18)
H9_5 H 0.0213 0.1786 0.1608
C16_5 C 0.10176(10) 0.12019(10) 0.04916(18)
H10_5 H 0.1355 0.1108 0.0283
N2_5 N 0.01626(8) 0.12277(8) 0.06605(14)
N3_5 N 0.05708(8) 0.09864(8) 0.01947(14)
Zn6_5 Zn 0.15335(2) 0.18781(2) 0.19126(2)
Zn1_5 Zn 0.04715(2) 0.03058(2) 0.95055(2)
O10_5 O 0.13053(7) 0.02305(7) 0.93618(14)
O11_5 O 0.03701(8) 0.03785(8) 0.81829(13)
O9_5 O 0.03742(7) 0.96440(7) 0.02449(12)
C1_5 C 0.84310(10) 0.01912(10) 0.06411(17)
C2_5 C 0.78296(10) 0.01476(10) 0.07674(16)
C3_5 C 0.75231(10) 0.06053(11) 0.08076(18)
H1_5 H 0.7687 0.0938 0.0760
C4_5 C 0.69758(10) 0.05757(12) 0.09176(19)
H2_5 H 0.6770 0.0885 0.0939
C5_5 C 0.67386(10) 0.00784(11) 0.09962(17)
C8_5 C 0.57983(10) 0.00093(12) 0.00150(18)
O2_5 O 0.86080(7) 0.06567(7) 0.05483(14)
O8_5 O 0.58493(8) 0.05219(11) 0.15319(15)
S1_5 S 0.60365(3) 0.00364(3) 0.11293(5)
Zn2_3 Zn 0.93781(2) 0.09665(2) 0.05874(2)
H13_5 H 0.9454 0.0279 0.0253
N4_5 N 0.90694(8) 0.15666(8) 0.13756(15)
O12_3 O 0.95132(9) 0.05004(9) 0.18484(14)
C9_5 C 0.57034(13) 0.04766(13) 0.9560(2)
H5_5 H 0.5726 0.0805 0.9851
C10_5 C 0.55721(13) 0.04500(12) 0.8653(2)
H6_5 H 0.5507 0.0764 0.8337
O1_5 O 0.96258(7) 0.03560(7) 0.97551(12)
O4_5 O 0.53701(8) 0.03785(8) 0.68171(13)
O6_5 O 0.91560(10) 0.14696(10) 0.93966(15)
H11_5 H 0.8812 0.1561 0.9398
H12_5 H 0.9278 0.1482 0.8916
Zn4_3 Zn 0.54715(2) 0.03058(2) 0.54945(2)
C6_5 C 0.70382(11) 0.96189(12) 0.0956(2)
H3_5 H 0.6874 0.9286 0.1002
C7_5 C 0.75865(11) 0.96543(11) 0.0846(2)
H4_5 H 0.7792 0.9344 0.0826
O3_5 O 0.86947(7) 0.97695(7) 0.06382(14)
O7_5 O 0.59200(9) 0.95386(11) 0.15555(15)
Zn3_3 Zn 0.95285(2) 0.96942(2) 0.04945(2)
C11_5 C 0.55376(10) 0.99666(11) 0.82184(17)
C12_5 C 0.56129(13) 0.95016(12) 0.8695(2)
H7_5 H 0.5576 0.9173 0.8409
C13_5 C 0.57438(14) 0.95190(13) 0.9602(2)
H8_5 H 0.5794 0.9204 0.9925
C14_5 C 0.54549(10) 0.99421(12) 0.72230(18)
O5_3 O 0.54868(9) 0.94996(9) 0.68484(14)
Zn5_3 Zn 0.56219(2) 0.90335(2) 0.55874(2)
C6_6 C 0.79618(11) 0.03811(12) 0.5956(2)
H3_6 H 0.8126 0.0714 0.6002
C7_6 C 0.74135(11) 0.03457(11) 0.5846(2)
H4_6 H 0.7208 0.0656 0.5826
C11_6 C 0.94624(10) 0.00334(11) 0.32184(17)
C12_6 C 0.93871(13) 0.04984(12) 0.3695(2)
H7_6 H 0.9424 0.0827 0.3409
C13_6 C 0.92562(14) 0.04810(13) 0.4602(2)
H8_6 H 0.9206 0.0796 0.4925
C14_6 C 0.95451(10) 0.00579(12) 0.22230(18)
O3_6 O 0.63053(7) 0.02305(7) 0.56382(14)
O7_6 O 0.90800(9) 0.04614(11) 0.65555(15)
O9_6 O 0.46258(7) 0.03560(7) 0.52449(12)
N1_6 N 0.40666(8) 0.84306(8) 0.61244(15)
C1_6 C 0.65690(10) 0.98088(10) 0.56411(17)
C2_6 C 0.71704(10) 0.98524(10) 0.57674(16)
C3_6 C 0.74769(10) 0.93947(11) 0.58076(18)
H1_6 H 0.7313 0.9062 0.5760
C4_6 C 0.80242(10) 0.94243(12) 0.59176(19)
H2_6 H 0.8230 0.9115 0.5939
C5_6 C 0.82614(10) 0.99216(11) 0.59962(17)
C8_6 C 0.92017(10) 0.99907(12) 0.50150(18)
C9_6 C 0.92966(13) 0.95234(13) 0.4560(2)
H5_6 H 0.9274 0.9195 0.4851
C10_6 C 0.94279(13) 0.95500(12) 0.3653(2)
H6_6 H 0.9493 0.9236 0.3337
C15_6 C 0.46025(10) 0.84314(10) 0.62071(18)
H9_6 H 0.4787 0.8214 0.6608
C16_6 C 0.39824(10) 0.87981(10) 0.54916(18)
H10_6 H 0.3645 0.8892 0.5283
N2_6 N 0.48374(8) 0.87723(8) 0.56605(14)
N3_6 N 0.44292(8) 0.90136(8) 0.51947(14)
O1_6 O 0.53742(7) 0.96440(7) 0.47551(12)
O2_6 O 0.63920(7) 0.93433(7) 0.55483(14)
O4_6 O 0.96299(8) 0.96215(8) 0.18171(13)
O6_6 O 0.58440(10) 0.85304(10) 0.43966(15)
O8_6 O 0.91507(8) 0.94781(11) 0.65319(15)
S1_6 S 0.89635(3) 0.99636(3) 0.61293(5)
Zn1_6 Zn 0.45285(2) 0.96942(2) 0.45055(2)
H11_6 H 0.6188 0.8439 0.4398
H12_6 H 0.5722 0.8518 0.3916
H13_6 H 0.5546 0.9721 0.5253
N4_6 N 0.59306(8) 0.84334(8) 0.63756(15)
O10_6 O 0.36947(7) 0.97695(7) 0.43618(14)
O11_6 O 0.46299(8) 0.96215(8) 0.31829(13)
Zn6_6 Zn 0.34665(2) 0.81219(2) 0.69126(2)
N1_7 N 0.59306(8) 0.34334(8) 0.36244(15)
C1_7 C 0.73088(10) 0.09310(10) 0.31411(17)
C2_7 C 0.73524(10) 0.03296(10) 0.32674(16)
C3_7 C 0.68947(11) 0.00231(10) 0.33076(18)
H1_7 H 0.6562 0.0187 0.3260
C7_7 C 0.78457(11) 0.00865(11) 0.3346(2)
H4_7 H 0.8156 0.0292 0.3326
C15_7 C 0.59314(10) 0.28975(10) 0.37071(18)
H9_7 H 0.5714 0.2713 0.4108
C16_7 C 0.62981(10) 0.35176(10) 0.29916(18)
H10_7 H 0.6392 0.3855 0.2783
N2_7 N 0.62723(8) 0.26626(8) 0.31605(14)
N3_7 N 0.65136(8) 0.30708(8) 0.26947(14)
O1_7 O 0.71440(7) 0.21258(7) 0.22551(12)
O2_7 O 0.68433(7) 0.11080(7) 0.30483(14)
O3_7 O 0.77305(7) 0.11947(7) 0.31382(14)
O6_7 O 0.60304(10) 0.16560(10) 0.18966(15)
Zn1_7 Zn 0.71942(2) 0.29715(2) 0.20055(2)
Zn2_4 Zn 0.65335(2) 0.18781(2) 0.30874(2)
H11_7 H 0.5939 0.1312 0.1898
H12_7 H 0.6018 0.1778 0.1416
H13_7 H 0.7221 0.1954 0.2753
N4_7 N 0.59334(8) 0.15694(8) 0.38756(15)
O9_7 O 0.78560(7) 0.28742(7) 0.27449(12)
O10_7 O 0.72695(7) 0.38053(7) 0.18618(14)
O11_7 O 0.71215(8) 0.28701(8) 0.06829(13)
O12_4 O 0.69996(9) 0.20132(9) 0.43484(14)
Zn3_4 Zn 0.78058(2) 0.20285(2) 0.29945(2)
Zn6_7 Zn 0.56219(2) 0.40335(2) 0.44126(2)
C14_7 C 0.75579(12) 0.79549(10) 0.97230(18)
O4_7 O 0.71215(8) 0.78701(8) 0.93171(13)
O5_4 O 0.80004(9) 0.79868(9) 0.93484(14)
Zn4_4 Zn 0.71942(2) 0.79715(2) 0.79945(2)
Zn5_4 Zn 0.84665(2) 0.81219(2) 0.80874(2)
C4_7 C 0.80757(12) 0.05242(10) 0.84176(19)
H2_7 H 0.8385 0.0730 0.8439
C5_7 C 0.75784(11) 0.07614(10) 0.84962(17)
C6_7 C 0.71189(12) 0.04618(11) 0.8456(2)
H3_7 H 0.6786 0.0626 0.8502
C8_7 C 0.75093(12) 0.17017(10) 0.75150(18)
C9_7 C 0.79766(13) 0.17966(13) 0.7060(2)
H5_7 H 0.8305 0.1774 0.7351
C10_7 C 0.79500(12) 0.19279(13) 0.6153(2)
H6_7 H 0.8264 0.1993 0.5837
C11_7 C 0.74666(11) 0.19624(10) 0.57184(17)
C12_7 C 0.70016(12) 0.18871(13) 0.6195(2)
H7_7 H 0.6673 0.1924 0.5909
C13_7 C 0.70190(13) 0.17562(14) 0.7102(2)
H8_7 H 0.6704 0.1706 0.7425
C14_8 C 0.74421(12) 0.20451(10) 0.47230(18)
O4_8 O 0.78785(8) 0.21299(8) 0.43171(13)
O7_7 O 0.70386(11) 0.15800(9) 0.90555(15)
O8_7 O 0.80219(11) 0.16507(8) 0.90319(15)
S1_7 S 0.75364(3) 0.14635(3) 0.86293(5)
N1_8 N 0.90694(8) 0.65666(8) 0.86244(15)
C1_8 C 0.76912(10) 0.90690(10) 0.81411(17)
C2_8 C 0.76476(10) 0.96704(10) 0.82674(16)
C3_8 C 0.81053(11) 0.99769(10) 0.83076(18)
H1_8 H 0.8438 0.9813 0.8260
C7_8 C 0.71543(11) 0.99135(11) 0.8346(2)
H4_8 H 0.6844 0.9708 0.8326
C15_8 C 0.90686(10) 0.71025(10) 0.87071(18)
H9_8 H 0.9286 0.7287 0.9108
C16_8 C 0.87019(10) 0.64824(10) 0.79916(18)
H10_8 H 0.8608 0.6145 0.7783
N2_8 N 0.87277(8) 0.73374(8) 0.81605(14)
N3_8 N 0.84864(8) 0.69292(8) 0.76947(14)
O1_8 O 0.78560(7) 0.78742(7) 0.72551(12)
O2_8 O 0.81567(7) 0.88920(7) 0.80483(14)
O3_8 O 0.72695(7) 0.88053(7) 0.81382(14)
O6_8 O 0.89696(10) 0.83440(10) 0.68966(15)
Zn1_8 Zn 0.78058(2) 0.70285(2) 0.70055(2)
H11_8 H 0.9061 0.8688 0.6898
H12_8 H 0.8982 0.8222 0.6416
H13_8 H 0.7779 0.8046 0.7753
N4_8 N 0.90666(8) 0.84306(8) 0.88756(15)
O9_8 O 0.71440(7) 0.71258(7) 0.77449(12)
O10_8 O 0.77305(7) 0.61947(7) 0.68618(14)
O11_8 O 0.78785(8) 0.71299(8) 0.56829(13)
Zn6_8 Zn 0.93781(2) 0.59665(2) 0.94126(2)
C1_9 C 0.65690(10) 0.48088(10) 0.43589(17)
C2_9 C 0.71704(10) 0.48524(10) 0.42326(16)
C3_9 C 0.74769(10) 0.43947(11) 0.41924(18)
H1_9 H 0.7313 0.4062 0.4240
C4_8 C 0.80242(10) 0.44243(12) 0.40824(19)
H2_8 H 0.8230 0.4115 0.4061
C5_8 C 0.82614(10) 0.49216(11) 0.40038(17)
C6_8 C 0.79618(11) 0.53811(12) 0.4044(2)
H3_8 H 0.8126 0.5714 0.3998
C7_9 C 0.74135(11) 0.53457(11) 0.4154(2)
H4_9 H 0.7208 0.5656 0.4174
C8_8 C 0.92017(10) 0.49907(12) 0.49850(18)
C9_8 C 0.92966(13) 0.45234(13) 0.5440(2)
H5_8 H 0.9274 0.4195 0.5149
C10_8 C 0.94279(13) 0.45500(12) 0.6347(2)
H6_8 H 0.9493 0.4236 0.6663
C11_8 C 0.94624(10) 0.50334(11) 0.67816(17)
C12_8 C 0.93871(13) 0.54984(12) 0.6305(2)
H7_8 H 0.9424 0.5827 0.6591
C13_8 C 0.92562(14) 0.54810(13) 0.5398(2)
H8_8 H 0.9206 0.5796 0.5075
C14_9 C 0.95451(10) 0.50579(12) 0.77770(18)
C15_9 C 0.46025(10) 0.34314(10) 0.37929(18)
H9_9 H 0.4787 0.3214 0.3392
C16_9 C 0.39824(10) 0.37981(10) 0.45084(18)
H10_9 H 0.3645 0.3892 0.4717
N2_9 N 0.48374(8) 0.37723(8) 0.43395(14)
N3_9 N 0.44292(8) 0.40136(8) 0.48053(14)
O2_9 O 0.63920(7) 0.43433(7) 0.44517(14)
O5_5 O 0.95132(9) 0.55004(9) 0.81516(14)
O6_9 O 0.58440(10) 0.35304(10) 0.56034(15)
O7_8 O 0.90800(9) 0.54614(11) 0.34445(15)
O8_8 O 0.91507(8) 0.44781(11) 0.34681(15)
S1_8 S 0.89635(3) 0.49636(3) 0.38707(5)
H11_9 H 0.6188 0.3439 0.5602
H12_9 H 0.5722 0.3518 0.6084
H13_9 H 0.5546 0.4721 0.4747
O12_5 O 0.54868(9) 0.44996(9) 0.31516(14)
C15_10 C 0.03975(10) 0.65686(10) 0.87929(18)
H9_10 H 0.0213 0.6786 0.8392
C16_10 C 0.10176(10) 0.62019(10) 0.95084(18)
H10_10 H 0.1355 0.6108 0.9717
N2_10 N 0.01626(8) 0.62277(8) 0.93395(14)
N3_10 N 0.05708(8) 0.59864(8) 0.98053(14)
C9_9 C 0.57034(13) 0.54766(13) 0.0440(2)
H5_9 H 0.5726 0.5805 0.0149
C10_9 C 0.55721(13) 0.54500(12) 0.1347(2)
H6_9 H 0.5507 0.5764 0.1663
C11_9 C 0.55376(10) 0.49666(11) 0.17816(17)
C12_9 C 0.56129(13) 0.45016(12) 0.1305(2)
H7_9 H 0.5576 0.4173 0.1591
C13_9 C 0.57438(14) 0.45190(13) 0.0398(2)
H8_9 H 0.5794 0.4204 0.0075
C14_10 C 0.54549(10) 0.49421(12) 0.27770(18)
O6_10 O 0.91560(10) 0.64696(10) 0.06034(15)
H11_10 H 0.8812 0.6561 0.0602
H12_10 H 0.9278 0.6482 0.1084
C1_10 C 0.84310(10) 0.51912(10) 0.93589(17)
C2_10 C 0.78296(10) 0.51476(10) 0.92326(16)
C3_10 C 0.75231(10) 0.56053(11) 0.91924(18)
H1_10 H 0.7687 0.5938 0.9240
C4_9 C 0.69758(10) 0.55757(12) 0.90824(19)
H2_9 H 0.6770 0.5885 0.9061
C5_9 C 0.67386(10) 0.50784(11) 0.90038(17)
C6_9 C 0.70382(11) 0.46189(12) 0.9044(2)
H3_9 H 0.6874 0.4286 0.8998
C7_10 C 0.75865(11) 0.46543(11) 0.9154(2)
H4_10 H 0.7792 0.4344 0.9174
C8_9 C 0.57983(10) 0.50093(12) 0.99850(18)
O2_10 O 0.86080(7) 0.56567(7) 0.94517(14)
O7_9 O 0.59200(9) 0.45386(11) 0.84445(15)
O8_9 O 0.58493(8) 0.55219(11) 0.84681(15)
S1_9 S 0.60365(3) 0.50364(3) 0.88707(5)
H13_10 H 0.9454 0.5279 0.9747
C1_11 C 0.76912(10) 0.40690(10) 0.18589(17)
C2_11 C 0.76476(10) 0.46704(10) 0.17326(16)
C3_11 C 0.81053(11) 0.49769(10) 0.16924(18)
H1_11 H 0.8438 0.4813 0.1740
C4_10 C 0.80757(12) 0.55242(10) 0.15824(19)
H2_10 H 0.8385 0.5730 0.1561
C5_10 C 0.75784(11) 0.57614(10) 0.15038(17)
C6_10 C 0.71189(12) 0.54618(11) 0.1544(2)
H3_10 H 0.6786 0.5626 0.1498
C7_11 C 0.71543(11) 0.49135(11) 0.1654(2)
H4_11 H 0.6844 0.4708 0.1674
C8_10 C 0.75093(12) 0.67017(10) 0.24850(18)
C9_10 C 0.79766(13) 0.67966(13) 0.2940(2)
H5_10 H 0.8305 0.6774 0.2649
C10_10 C 0.79500(12) 0.69279(13) 0.3847(2)
H6_10 H 0.8264 0.6993 0.4163
C11_10 C 0.74666(11) 0.69624(10) 0.42816(17)
C12_10 C 0.70016(12) 0.68871(13) 0.3805(2)
H7_10 H 0.6673 0.6924 0.4091
C13_10 C 0.70190(13) 0.67562(14) 0.2898(2)
H8_10 H 0.6704 0.6706 0.2575
C14_11 C 0.74421(12) 0.70451(10) 0.52770(18)
C15_11 C 0.90686(10) 0.21025(10) 0.12929(18)
H9_11 H 0.9286 0.2287 0.0892
C16_11 C 0.87019(10) 0.14824(10) 0.20084(18)
H10_11 H 0.8608 0.1145 0.2217
N2_11 N 0.87277(8) 0.23374(8) 0.18395(14)
N3_11 N 0.84864(8) 0.19292(8) 0.23053(14)
O2_11 O 0.81567(7) 0.38920(7) 0.19517(14)
O5_6 O 0.69996(9) 0.70132(9) 0.56516(14)
O6_11 O 0.89696(10) 0.33440(10) 0.31034(15)
O7_10 O 0.70386(11) 0.65800(9) 0.09445(15)
O8_10 O 0.80219(11) 0.66507(8) 0.09681(15)
S1_10 S 0.75364(3) 0.64635(3) 0.13707(5)
H11_11 H 0.9061 0.3688 0.3102
H12_11 H 0.8982 0.3222 0.3584
H13_11 H 0.7779 0.3046 0.2247
O12_6 O 0.80004(9) 0.29868(9) 0.06516(14)
C14_12 C 0.75579(12) 0.29549(10) 0.02770(18)
C1_12 C 0.73088(10) 0.59310(10) 0.68589(17)
C2_12 C 0.73524(10) 0.53296(10) 0.67326(16)
C3_12 C 0.68947(11) 0.50231(10) 0.66924(18)
H1_12 H 0.6562 0.5187 0.6740
C4_11 C 0.69243(12) 0.44758(10) 0.65824(19)
H2_11 H 0.6615 0.4270 0.6561
C5_11 C 0.74216(11) 0.42386(10) 0.65038(17)
C6_11 C 0.78811(12) 0.45382(11) 0.6544(2)
H3_11 H 0.8214 0.4374 0.6498
C7_12 C 0.78457(11) 0.50865(11) 0.6654(2)
H4_12 H 0.8156 0.5292 0.6674
C8_11 C 0.74907(12) 0.32983(10) 0.74850(18)
C9_11 C 0.70234(13) 0.32034(13) 0.7940(2)
H5_11 H 0.6695 0.3226 0.7649
C10_11 C 0.70500(12) 0.30721(13) 0.8847(2)
H6_11 H 0.6736 0.3007 0.9163
C11_11 C 0.75334(11) 0.30376(10) 0.92816(17)
C12_11 C 0.79984(12) 0.31129(13) 0.8805(2)
H7_11 H 0.8327 0.3076 0.9091
C13_11 C 0.79810(13) 0.32438(14) 0.7898(2)
H8_11 H 0.8296 0.3294 0.7575
C15_12 C 0.59314(10) 0.78975(10) 0.62929(18)
H9_12 H 0.5714 0.7713 0.5892
C16_12 C 0.62981(10) 0.85176(10) 0.70084(18)
H10_12 H 0.6392 0.8855 0.7217
N2_12 N 0.62723(8) 0.76626(8) 0.68395(14)
N3_12 N 0.65136(8) 0.80708(8) 0.73053(14)
O2_12 O 0.68433(7) 0.61080(7) 0.69517(14)
O6_12 O 0.60304(10) 0.66560(10) 0.81034(15)
O7_11 O 0.79614(11) 0.34200(9) 0.59445(15)
O8_11 O 0.69781(11) 0.33493(8) 0.59681(15)
S1_11 S 0.74636(3) 0.35365(3) 0.63707(5)
H11_12 H 0.5939 0.6312 0.8102
H12_12 H 0.6018 0.6778 0.8584
H13_12 H 0.7221 0.6954 0.7247
C11_12 C 0.44624(10) 0.00334(11) 0.17816(17)
C12_12 C 0.43871(13) 0.04984(12) 0.1305(2)
H7_12 H 0.4424 0.0827 0.1591
C13_12 C 0.42562(14) 0.04810(13) 0.0398(2)
H8_12 H 0.4206 0.0796 0.0075
C14_13 C 0.45451(10) 0.00579(12) 0.27770(18)
O5_7 O 0.45132(9) 0.05004(9) 0.31516(14)
C6_12 C 0.29618(11) 0.03811(12) 0.9044(2)
H3_12 H 0.3126 0.0714 0.8998
C7_13 C 0.24135(11) 0.03457(11) 0.9154(2)
H4_13 H 0.2208 0.0656 0.9174
O7_12 O 0.40800(9) 0.04614(11) 0.84445(15)
C9_12 C 0.42966(13) 0.95234(13) 0.0440(2)
H5_12 H 0.4274 0.9195 0.0149
C10_12 C 0.44279(13) 0.95500(12) 0.1347(2)
H6_12 H 0.4493 0.9236 0.1663
O6_13 O 0.08440(10) 0.85304(10) 0.06034(15)
H11_13 H 0.1188 0.8439 0.0602
H12_13 H 0.0722 0.8518 0.1084
C1_13 C 0.15690(10) 0.98088(10) 0.93589(17)
C2_13 C 0.21704(10) 0.98524(10) 0.92326(16)
C3_13 C 0.24769(10) 0.93947(11) 0.91924(18)
H1_13 H 0.2313 0.9062 0.9240
C4_12 C 0.30242(10) 0.94243(12) 0.90824(19)
H2_12 H 0.3230 0.9115 0.9061
C5_12 C 0.32614(10) 0.99216(11) 0.90038(17)
C8_12 C 0.42017(10) 0.99907(12) 0.99850(18)
O2_13 O 0.13920(7) 0.93433(7) 0.94517(14)
O8_12 O 0.41507(8) 0.94781(11) 0.84681(15)
S1_12 S 0.39635(3) 0.99636(3) 0.88707(5)
H13_13 H 0.0546 0.9721 0.9747
O12_7 O 0.04868(9) 0.94996(9) 0.81516(14)
C15_13 C 0.96025(10) 0.84314(10) 0.87929(18)
H9_13 H 0.9787 0.8214 0.8392
C16_13 C 0.89824(10) 0.87981(10) 0.95084(18)
H10_13 H 0.8645 0.8892 0.9717
N2_13 N 0.98374(8) 0.87723(8) 0.93395(14)
N3_13 N 0.94292(8) 0.90136(8) 0.98053(14)
C1_14 C 0.34310(10) 0.01912(10) 0.43589(17)
C2_14 C 0.28296(10) 0.01476(10) 0.42326(16)
C3_14 C 0.25231(10) 0.06053(11) 0.41924(18)
H1_14 H 0.2687 0.0938 0.4240
C4_13 C 0.19758(10) 0.05757(12) 0.40824(19)
H2_13 H 0.1770 0.0885 0.4061
C5_13 C 0.17386(10) 0.00784(11) 0.40038(17)
C8_13 C 0.07983(10) 0.00093(12) 0.49850(18)
C9_13 C 0.07034(13) 0.04766(13) 0.5440(2)
H5_13 H 0.0726 0.0805 0.5149
C10_13 C 0.05721(13) 0.04500(12) 0.6347(2)
H6_13 H 0.0507 0.0764 0.6663
C15_14 C 0.53975(10) 0.15686(10) 0.37929(18)
H9_14 H 0.5213 0.1786 0.3392
C16_14 C 0.60176(10) 0.12019(10) 0.45084(18)
H10_14 H 0.6355 0.1108 0.4717
N2_14 N 0.51626(8) 0.12277(8) 0.43395(14)
N3_14 N 0.55708(8) 0.09864(8) 0.48053(14)
O2_14 O 0.36080(7) 0.06567(7) 0.44517(14)
O6_14 O 0.41560(10) 0.14696(10) 0.56034(15)
O8_13 O 0.08493(8) 0.05219(11) 0.34681(15)
S1_13 S 0.10365(3) 0.00364(3) 0.38707(5)
H11_14 H 0.3812 0.1561 0.5602
H12_14 H 0.4278 0.1482 0.6084
H13_14 H 0.4454 0.0279 0.4747
C6_13 C 0.20382(11) 0.96189(12) 0.4044(2)
H3_13 H 0.1874 0.9286 0.3998
C7_14 C 0.25865(11) 0.96543(11) 0.4154(2)
H4_14 H 0.2792 0.9344 0.4174
C11_13 C 0.05376(10) 0.99666(11) 0.67816(17)
C12_13 C 0.06129(13) 0.95016(12) 0.6305(2)
H7_13 H 0.0576 0.9173 0.6591
C13_13 C 0.07438(14) 0.95190(13) 0.5398(2)
H8_13 H 0.0794 0.9204 0.5075
C14_14 C 0.04549(10) 0.99421(12) 0.77770(18)
O7_13 O 0.09200(9) 0.95386(11) 0.34445(15)
C14_15 C 0.24421(12) 0.20451(10) 0.02770(18)
O5_8 O 0.19996(9) 0.20132(9) 0.06516(14)
C1_15 C 0.26912(10) 0.90690(10) 0.68589(17)
C2_15 C 0.26476(10) 0.96704(10) 0.67326(16)
C3_15 C 0.31053(11) 0.99769(10) 0.66924(18)
H1_15 H 0.3438 0.9813 0.6740
C7_15 C 0.21543(11) 0.99135(11) 0.6654(2)
H4_15 H 0.1844 0.9708 0.6674
C15_15 C 0.40686(10) 0.71025(10) 0.62929(18)
H9_15 H 0.4286 0.7287 0.5892
C16_15 C 0.37019(10) 0.64824(10) 0.70084(18)
H10_15 H 0.3608 0.6145 0.7217
N2_15 N 0.37277(8) 0.73374(8) 0.68395(14)
N3_15 N 0.34864(8) 0.69292(8) 0.73053(14)
O2_15 O 0.31567(7) 0.88920(7) 0.69517(14)
O6_15 O 0.39696(10) 0.83440(10) 0.81034(15)
H11_15 H 0.4061 0.8688 0.8102
H12_15 H 0.3982 0.8222 0.8584
H13_15 H 0.2779 0.8046 0.7247
O12_8 O 0.30004(9) 0.79868(9) 0.56516(14)
C1_16 C 0.23088(10) 0.09310(10) 0.18589(17)
C2_16 C 0.23524(10) 0.03296(10) 0.17326(16)
C3_16 C 0.18947(11) 0.00231(10) 0.16924(18)
H1_16 H 0.1562 0.0187 0.1740
C7_16 C 0.28457(11) 0.00865(11) 0.1654(2)
H4_16 H 0.3156 0.0292 0.1674
C15_16 C 0.09314(10) 0.28975(10) 0.12929(18)
H9_16 H 0.0714 0.2713 0.0892
C16_16 C 0.12981(10) 0.35176(10) 0.20084(18)
H10_16 H 0.1392 0.3855 0.2217
N2_16 N 0.12723(8) 0.26626(8) 0.18395(14)
N3_16 N 0.15136(8) 0.30708(8) 0.23053(14)
O2_16 O 0.18433(7) 0.11080(7) 0.19517(14)
O6_16 O 0.10304(10) 0.16560(10) 0.31034(15)
H11_16 H 0.0939 0.1312 0.3102
H12_16 H 0.1018 0.1778 0.3584
H13_16 H 0.2221 0.1954 0.2247
C4_14 C 0.19243(12) 0.94758(10) 0.15824(19)
H2_14 H 0.1615 0.9270 0.1561
C5_14 C 0.24216(11) 0.92386(10) 0.15038(17)
C6_14 C 0.28811(12) 0.95382(11) 0.1544(2)
H3_14 H 0.3214 0.9374 0.1498
C8_14 C 0.24907(12) 0.82983(10) 0.24850(18)
C9_14 C 0.20234(13) 0.82034(13) 0.2940(2)
H5_14 H 0.1695 0.8226 0.2649
C10_14 C 0.20500(12) 0.80721(13) 0.3847(2)
H6_14 H 0.1736 0.8007 0.4163
C11_14 C 0.25334(11) 0.80376(10) 0.42816(17)
C12_14 C 0.29984(12) 0.81129(13) 0.3805(2)
H7_14 H 0.3327 0.8076 0.4091
C13_14 C 0.29810(13) 0.82438(14) 0.2898(2)
H8_14 H 0.3296 0.8294 0.2575
C14_16 C 0.25579(12) 0.79549(10) 0.52770(18)
O7_14 O 0.29614(11) 0.84200(9) 0.09445(15)
O8_14 O 0.19781(11) 0.83493(8) 0.09681(15)
S1_14 S 0.24636(3) 0.85365(3) 0.13707(5)
C4_15 C 0.69243(12) 0.94758(10) 0.34176(19)
H2_15 H 0.6615 0.9270 0.3439
C5_15 C 0.74216(11) 0.92386(10) 0.34962(17)
C6_15 C 0.78811(12) 0.95382(11) 0.3456(2)
H3_15 H 0.8214 0.9374 0.3502
C8_15 C 0.74907(12) 0.82983(10) 0.25150(18)
C9_15 C 0.70234(13) 0.82034(13) 0.2060(2)
H5_15 H 0.6695 0.8226 0.2351
C10_15 C 0.70500(12) 0.80721(13) 0.1153(2)
H6_15 H 0.6736 0.8007 0.0837
C11_15 C 0.75334(11) 0.80376(10) 0.07184(17)
C12_15 C 0.79984(12) 0.81129(13) 0.1195(2)
H7_15 H 0.8327 0.8076 0.0909
C13_15 C 0.79810(13) 0.82438(14) 0.2102(2)
H8_15 H 0.8296 0.8294 0.2425
O7_15 O 0.79614(11) 0.84200(9) 0.40555(15)
O8_15 O 0.69781(11) 0.83493(8) 0.40319(15)
S1_15 S 0.74636(3) 0.85365(3) 0.36293(5)
C4_16 C 0.30757(12) 0.05242(10) 0.65824(19)
H2_16 H 0.3385 0.0730 0.6561
C5_16 C 0.25784(11) 0.07614(10) 0.65038(17)
C6_16 C 0.21189(12) 0.04618(11) 0.6544(2)
H3_16 H 0.1786 0.0626 0.6498
C8_16 C 0.25093(12) 0.17017(10) 0.74850(18)
C9_16 C 0.29766(13) 0.17966(13) 0.7940(2)
H5_16 H 0.3305 0.1774 0.7649
C10_16 C 0.29500(12) 0.19279(13) 0.8847(2)
H6_16 H 0.3264 0.1993 0.9163
C11_16 C 0.24666(11) 0.19624(10) 0.92816(17)
C12_16 C 0.20016(12) 0.18871(13) 0.8805(2)
H7_16 H 0.1673 0.1924 0.9091
C13_16 C 0.20190(13) 0.17562(14) 0.7898(2)
H8_16 H 0.1704 0.1706 0.7575
O7_16 O 0.20386(11) 0.15800(9) 0.59445(15)
O8_16 O 0.30219(11) 0.16507(8) 0.59681(15)
S1_16 S 0.25364(3) 0.14635(3) 0.63707(5)
loop_
_geom_bond_atom_site_label_1
_geom_bond_atom_site_label_2
_geom_bond_site_symmetry_1
_geom_bond_site_symmetry_2
N1 C15 1_555 1_555
C1 C2 1_555 1_555
C2 C3 1_555 1_555
C3 H1 1_555 1_555
C4 C3 1_555 1_555
H2 C4 1_555 1_555
C5 C4 1_555 1_555
C6 C5 1_555 1_555
H3 C6 1_555 1_555
C7 C2 1_555 1_555
H4 C7 1_555 1_555
C8 C9 1_555 1_555
C9 H5 1_555 1_555
C10 C9 1_555 1_555
H6 C10 1_555 1_555
C11 C10 1_555 1_555
C12 C11 1_555 1_555
H7 C12 1_555 1_555
C13 C8 1_555 1_555
H8 C13 1_555 1_555
C14 C11 1_555 1_555
C15 H9 1_555 1_555
C16 N1 1_555 1_555
H10 C16 1_555 1_555
N2 C15 1_555 1_555
N3 C16 1_555 1_555
O1 Zn1 1_555 1_555
O2 C1 1_555 1_555
O3 C1 1_555 1_555
O4 C14 1_555 1_555
O5 C14 1_555 1_555
O6 Zn2 1_555 1_555
O7 S1 1_555 1_555
O8 S1 1_555 1_555
S1 C5 1_555 1_555
Zn1 N3 1_555 1_555
Zn2 N2 1_555 1_555
H11 O6 1_555 1_555
H12 O6 1_555 1_555
H13 O1 1_555 1_555
N4 Zn2 1_555 1_555
O9 Zn1 1_555 1_555
O10 Zn1 1_555 1_555
O11 Zn1 1_555 1_555
O12 Zn2 1_555 1_555
Zn3 O1 1_555 1_555
Zn4 O4 1_555 1_555
Zn5 O5 1_555 1_555
Zn6 N1 1_555 1_555
C6 C7 1_555 1_555
C8 S1 1_555 1_555
C12 C13 1_555 1_555
N2 N3 1_555 1_555
O1 Zn2 1_555 1_555
O2 Zn2 1_555 1_555
O3 Zn3 1_555 1_555
O9 Zn3 1_555 1_555
C1_2 C2_2 1_555 1_555
C2_2 C3_2 1_555 1_555
C3_2 H1_2 1_555 1_555
C4_2 C3_2 1_555 1_555
H2_2 C4_2 1_555 1_555
C5_2 C4_2 1_555 1_555
C6_2 C5_2 1_555 1_555
H3_2 C6_2 1_555 1_555
C7_2 C2_2 1_555 1_555
H4_2 C7_2 1_555 1_555
O2_2 C1_2 1_555 1_555
O3_2 C1_2 1_555 1_555
O7_2 S1_2 1_555 1_555
O8_2 S1_2 1_555 1_555
S1_2 C5_2 1_555 1_555
N4_2 Zn5 1_555 1_555
C6_2 C7_2 1_555 1_555
C8_2 S1_2 1_555 1_555
O2_2 Zn5 1_555 1_555
O3_2 Zn4 1_555 1_555
C9_2 H5_2 1_555 1_555
C10_2 C9_2 1_555 1_555
H6_2 C10_2 1_555 1_555
C11_2 C10_2 1_555 1_555
C12_2 C11_2 1_555 1_555
H7_2 C12_2 1_555 1_555
H8_2 C13_2 1_555 1_555
C14_2 C11_2 1_555 1_555
O4_2 C14_2 1_555 1_555
O12 C14_2 1_555 1_555
H11_2 O6_2 1_555 1_555
H12_2 O6_2 1_555 1_555
Zn3 O4_2 1_555 1_555
C12_2 C13_2 1_555 1_555
N1_2 C15_2 1_555 1_555
C15_2 H9_2 1_555 1_555
C16_2 N1_2 1_555 1_555
H10_2 C16_2 1_555 1_555
N2_2 C15_2 1_555 1_555
N3_2 C16_2 1_555 1_555
Zn6_2 N1_2 1_555 1_555
N2_2 N3_2 1_555 1_555
O10_2 Zn1_2 1_555 1_555
O11_2 Zn1_2 1_555 1_555
N1_3 C15_3 1_555 1_555
C1_3 C2_3 1_555 1_555
C2_3 C3_3 1_555 1_555
C3_3 H1_3 1_555 1_555
C4_3 C3_3 1_555 1_555
H2_3 C4_3 1_555 1_555
C5_3 C4_3 1_555 1_555
C6_3 C5_3 1_555 1_555
H3_3 C6_3 1_555 1_555
C7_3 C2_3 1_555 1_555
H4_3 C7_3 1_555 1_555
C8_3 C9_3 1_555 1_555
C9_3 H5_3 1_555 1_555
C10_3 C9_3 1_555 1_555
H6_3 C10_3 1_555 1_555
C11_3 C10_3 1_555 1_555
C12_3 C11_3 1_555 1_555
H7_3 C12_3 1_555 1_555
C13_3 C8_3 1_555 1_555
H8_3 C13_3 1_555 1_555
C14_3 C11_3 1_555 1_555
C15_3 H9_3 1_555 1_555
C16_3 N1_3 1_555 1_555
H10_3 C16_3 1_555 1_555
N2_3 C15_3 1_555 1_555
N3_3 C16_3 1_555 1_555
O1_3 Zn1_3 1_555 1_555
O2_3 C1_3 1_555 1_555
O3_3 C1_3 1_555 1_555
O4_3 C14_3 1_555 1_555
O5_2 C14_3 1_555 1_555
O6_3 Zn2_2 1_555 1_555
O7_3 S1_3 1_555 1_555
O8_3 S1_3 1_555 1_555
S1_3 C5_3 1_555 1_555
Zn1_3 N3_3 1_555 1_555
Zn2_2 N2_3 1_555 1_555
H11_3 O6_3 1_555 1_555
H12_3 O6_3 1_555 1_555
H13_3 O1_3 1_555 1_555
N4_3 Zn2_2 1_555 1_555
O9_3 Zn1_3 1_555 1_555
O10_3 Zn1_3 1_555 1_555
O11_3 Zn1_3 1_555 1_555
O12_2 Zn2_2 1_555 1_555
Zn3_2 O1_3 1_555 1_555
Zn4_2 O4_3 1_555 1_555
Zn5_2 O5_2 1_555 1_555
Zn6_3 N1_3 1_555 1_555
C6_3 C7_3 1_555 1_555
C8_3 S1_3 1_555 1_555
C12_3 C13_3 1_555 1_555
N2_3 N3_3 1_555 1_555
O1_3 Zn2_2 1_555 1_555
O2_3 Zn2_2 1_555 1_555
O3_3 Zn3_2 1_555 1_555
O9_3 Zn3_2 1_555 1_555
N1_4 C15_4 1_555 1_555
C1_4 C2_4 1_555 1_555
C2_4 C3_4 1_555 1_555
C3_4 H1_4 1_555 1_555
C4_4 C3_4 1_555 1_555
H2_4 C4_4 1_555 1_555
C5_4 C4_4 1_555 1_555
C6_4 C5_4 1_555 1_555
H3_4 C6_4 1_555 1_555
C7_4 C2_4 1_555 1_555
H4_4 C7_4 1_555 1_555
C8_4 C9_4 1_555 1_555
C9_4 H5_4 1_555 1_555
C10_4 C9_4 1_555 1_555
H6_4 C10_4 1_555 1_555
C11_4 C10_4 1_555 1_555
C12_4 C11_4 1_555 1_555
H7_4 C12_4 1_555 1_555
C13_4 C8_4 1_555 1_555
H8_4 C13_4 1_555 1_555
C15_4 H9_4 1_555 1_555
C16_4 N1_4 1_555 1_555
H10_4 C16_4 1_555 1_555
N2_4 C15_4 1_555 1_555
N3_4 C16_4 1_555 1_555
O1_4 Zn1_4 1_555 1_555
O2_4 C1_4 1_555 1_555
O3_4 C1_4 1_555 1_555
O6_4 Zn5_2 1_555 1_555
O7_4 S1_4 1_555 1_555
O8_4 S1_4 1_555 1_555
S1_4 C5_4 1_555 1_555
Zn1_4 N3_4 1_555 1_555
Zn5_2 N2_4 1_555 1_555
H11_4 O6_4 1_555 1_555
H12_4 O6_4 1_555 1_555
H13_4 O1_4 1_555 1_555
N4_4 Zn5_2 1_555 1_555
O9_4 Zn1_4 1_555 1_555
O10_4 Zn1_4 1_555 1_555
O11_4 Zn1_4 1_555 1_555
Zn4_2 O1_4 1_555 1_555
Zn6_4 N1_4 1_555 1_555
C6_4 C7_4 1_555 1_555
C8_4 S1_4 1_555 1_555
C12_4 C13_4 1_555 1_555
N2_4 N3_4 1_555 1_555
O1_4 Zn5_2 1_555 1_555
O2_4 Zn5_2 1_555 1_555
O3_4 Zn4_2 1_555 1_555
O9_4 Zn4_2 1_555 1_555
O4_4 C14_4 1_555 1_555
O12_2 C14_4 1_555 1_555
Zn3_2 O4_4 1_555 1_555
N1_5 C15_5 1_555 1_555
C15_5 H9_5 1_555 1_555
C16_5 N1_5 1_555 1_555
H10_5 C16_5 1_555 1_555
N2_5 C15_5 1_555 1_555
N3_5 C16_5 1_555 1_555
Zn6_5 N1_5 1_555 1_555
N2_5 N3_5 1_555 1_555
O10_5 Zn1_5 1_555 1_555
O11_5 Zn1_5 1_555 1_555
C1_5 C2_5 1_555 1_555
C2_5 C3_5 1_555 1_555
C3_5 H1_5 1_555 1_555
C4_5 C3_5 1_555 1_555
H2_5 C4_5 1_555 1_555
C5_5 C4_5 1_555 1_555
O2_5 C1_5 1_555 1_555
O8_5 S1_5 1_555 1_555
S1_5 C5_5 1_555 1_555
N4_5 Zn2_3 1_555 1_555
O12_3 Zn2_3 1_555 1_555
C8_5 S1_5 1_555 1_555
O2_5 Zn2_3 1_555 1_555
C9_5 H5_5 1_555 1_555
C10_5 C9_5 1_555 1_555
H6_5 C10_5 1_555 1_555
H11_5 O6_5 1_555 1_555
H12_5 O6_5 1_555 1_555
Zn4_3 O4_5 1_555 1_555
H3_5 C6_5 1_555 1_555
H4_5 C7_5 1_555 1_555
C6_5 C7_5 1_555 1_555
O3_5 Zn3_3 1_555 1_555
C12_5 C11_5 1_555 1_555
H7_5 C12_5 1_555 1_555
H8_5 C13_5 1_555 1_555
C14_5 C11_5 1_555 1_555
O5_3 C14_5 1_555 1_555
Zn5_3 O5_3 1_555 1_555
C12_5 C13_5 1_555 1_555
H3_6 C6_6 1_555 1_555
H4_6 C7_6 1_555 1_555
C12_6 C11_6 1_555 1_555
H7_6 C12_6 1_555 1_555
H8_6 C13_6 1_555 1_555
C14_6 C11_6 1_555 1_555
O12_3 C14_6 1_555 1_555
C6_6 C7_6 1_555 1_555
C12_6 C13_6 1_555 1_555
O3_6 Zn4_3 1_555 1_555
O9_6 Zn4_3 1_555 1_555
N1_6 C15_6 1_555 1_555
C1_6 C2_6 1_555 1_555
C2_6 C3_6 1_555 1_555
C3_6 H1_6 1_555 1_555
C4_6 C3_6 1_555 1_555
H2_6 C4_6 1_555 1_555
C5_6 C4_6 1_555 1_555
C8_6 C9_6 1_555 1_555
C9_6 H5_6 1_555 1_555
C10_6 C9_6 1_555 1_555
H6_6 C10_6 1_555 1_555
C15_6 H9_6 1_555 1_555
C16_6 N1_6 1_555 1_555
H10_6 C16_6 1_555 1_555
N2_6 C15_6 1_555 1_555
N3_6 C16_6 1_555 1_555
O1_6 Zn1_6 1_555 1_555
O2_6 C1_6 1_555 1_555
O6_6 Zn5_3 1_555 1_555
O8_6 S1_6 1_555 1_555
S1_6 C5_6 1_555 1_555
Zn1_6 N3_6 1_555 1_555
Zn5_3 N2_6 1_555 1_555
H11_6 O6_6 1_555 1_555
H12_6 O6_6 1_555 1_555
H13_6 O1_6 1_555 1_555
N4_6 Zn5_3 1_555 1_555
O10_6 Zn1_6 1_555 1_555
O11_6 Zn1_6 1_555 1_555
Zn3_3 O4_6 1_555 1_555
Zn6_6 N1_6 1_555 1_555
C8_6 S1_6 1_555 1_555
N2_6 N3_6 1_555 1_555
O1_6 Zn5_3 1_555 1_555
O2_6 Zn5_3 1_555 1_555
N1_7 C15_7 1_555 1_555
C1_7 C2_7 1_555 1_555
C2_7 C3_7 1_555 1_555
C3_7 H1_7 1_555 1_555
C7_7 C2_7 1_555 1_555
H4_7 C7_7 1_555 1_555
C15_7 H9_7 1_555 1_555
C16_7 N1_7 1_555 1_555
H10_7 C16_7 1_555 1_555
N2_7 C15_7 1_555 1_555
N3_7 C16_7 1_555 1_555
O1_7 Zn1_7 1_555 1_555
O2_7 C1_7 1_555 1_555
O3_7 C1_7 1_555 1_555
O6_7 Zn2_4 1_555 1_555
Zn1_7 N3_7 1_555 1_555
Zn2_4 N2_7 1_555 1_555
H11_7 O6_7 1_555 1_555
H12_7 O6_7 1_555 1_555
H13_7 O1_7 1_555 1_555
N4_7 Zn2_4 1_555 1_555
O9_7 Zn1_7 1_555 1_555
O10_7 Zn1_7 1_555 1_555
O11_7 Zn1_7 1_555 1_555
O12_4 Zn2_4 1_555 1_555
Zn3_4 O1_7 1_555 1_555
Zn6_7 N1_7 1_555 1_555
N2_7 N3_7 1_555 1_555
O1_7 Zn2_4 1_555 1_555
O2_7 Zn2_4 1_555 1_555
O3_7 Zn3_4 1_555 1_555
O9_7 Zn3_4 1_555 1_555
O4_7 C14_7 1_555 1_555
O5_4 C14_7 1_555 1_555
Zn4_4 O4_7 1_555 1_555
Zn5_4 O5_4 1_555 1_555
H2_7 C4_7 1_555 1_555
C5_7 C4_7 1_555 1_555
C6_7 C5_7 1_555 1_555
H3_7 C6_7 1_555 1_555
C8_7 C9_7 1_555 1_555
C9_7 H5_7 1_555 1_555
C10_7 C9_7 1_555 1_555
H6_7 C10_7 1_555 1_555
C11_7 C10_7 1_555 1_555
C12_7 C11_7 1_555 1_555
H7_7 C12_7 1_555 1_555
C13_7 C8_7 1_555 1_555
H8_7 C13_7 1_555 1_555
C14_8 C11_7 1_555 1_555
O4_8 C14_8 1_555 1_555
O12_4 C14_8 1_555 1_555
O7_7 S1_7 1_555 1_555
O8_7 S1_7 1_555 1_555
S1_7 C5_7 1_555 1_555
Zn3_4 O4_8 1_555 1_555
C8_7 S1_7 1_555 1_555
C12_7 C13_7 1_555 1_555
N1_8 C15_8 1_555 1_555
C1_8 C2_8 1_555 1_555
C2_8 C3_8 1_555 1_555
C3_8 H1_8 1_555 1_555
C7_8 C2_8 1_555 1_555
H4_8 C7_8 1_555 1_555
C15_8 H9_8 1_555 1_555
C16_8 N1_8 1_555 1_555
H10_8 C16_8 1_555 1_555
N2_8 C15_8 1_555 1_555
N3_8 C16_8 1_555 1_555
O1_8 Zn1_8 1_555 1_555
O2_8 C1_8 1_555 1_555
O3_8 C1_8 1_555 1_555
O6_8 Zn5_4 1_555 1_555
Zn1_8 N3_8 1_555 1_555
Zn5_4 N2_8 1_555 1_555
H11_8 O6_8 1_555 1_555
H12_8 O6_8 1_555 1_555
H13_8 O1_8 1_555 1_555
N4_8 Zn5_4 1_555 1_555
O9_8 Zn1_8 1_555 1_555
O10_8 Zn1_8 1_555 1_555
O11_8 Zn1_8 1_555 1_555
Zn4_4 O1_8 1_555 1_555
Zn6_8 N1_8 1_555 1_555
N2_8 N3_8 1_555 1_555
O1_8 Zn5_4 1_555 1_555
O2_8 Zn5_4 1_555 1_555
O3_8 Zn4_4 1_555 1_555
O9_8 Zn4_4 1_555 1_555
N4_4 C15_9 1_555 1_555
C1_9 C2_9 1_555 1_555
C2_9 C3_9 1_555 1_555
C3_9 H1_9 1_555 1_555
C4_8 C3_9 1_555 1_555
H2_8 C4_8 1_555 1_555
C5_8 C4_8 1_555 1_555
C6_8 C5_8 1_555 1_555
H3_8 C6_8 1_555 1_555
C7_9 C2_9 1_555 1_555
H4_9 C7_9 1_555 1_555
C8_8 C9_8 1_555 1_555
C9_8 H5_8 1_555 1_555
C10_8 C9_8 1_555 1_555
H6_8 C10_8 1_555 1_555
C11_8 C10_8 1_555 1_555
C12_8 C11_8 1_555 1_555
H7_8 C12_8 1_555 1_555
C13_8 C8_8 1_555 1_555
H8_8 C13_8 1_555 1_555
C14_9 C11_8 1_555 1_555
C15_9 H9_9 1_555 1_555
C16_9 N4_4 1_555 1_555
H10_9 C16_9 1_555 1_555
N2_9 C15_9 1_555 1_555
N3_9 C16_9 1_555 1_555
O2_9 C1_9 1_555 1_555
O10 C1_9 1_555 1_555
O11_2 C14_9 1_555 1_555
O5_5 C14_9 1_555 1_555
O6_9 Zn6_7 1_555 1_555
O7_8 S1_8 1_555 1_555
O8_8 S1_8 1_555 1_555
S1_8 C5_8 1_555 1_555
Zn3 N3_9 1_555 1_555
Zn6_7 N2_9 1_555 1_555
H11_9 O6_9 1_555 1_555
H12_9 O6_9 1_555 1_555
H13_9 O9 1_555 1_555
O12_5 Zn6_7 1_555 1_555
Zn6_8 O5_5 1_555 1_555
C6_8 C7_9 1_555 1_555
C8_8 S1_8 1_555 1_555
C12_8 C13_8 1_555 1_555
N2_9 N3_9 1_555 1_555
O9 Zn6_7 1_555 1_555
O2_9 Zn6_7 1_555 1_555
N4_3 C15_10 1_555 1_555
C15_10 H9_10 1_555 1_555
C16_10 N4_3 1_555 1_555
H10_10 C16_10 1_555 1_555
N2_10 C15_10 1_555 1_555
N3_10 C16_10 1_555 1_555
N2_10 N3_10 1_555 1_555
C9_9 H5_9 1_555 1_555
C10_9 C9_9 1_555 1_555
H6_9 C10_9 1_555 1_555
C11_9 C10_9 1_555 1_555
C12_9 C11_9 1_555 1_555
H7_9 C12_9 1_555 1_555
H8_9 C13_9 1_555 1_555
C14_10 C11_9 1_555 1_555
O11 C14_10 1_555 1_555
O12_5 C14_10 1_555 1_555
H11_10 O6_10 1_555 1_555
H12_10 O6_10 1_555 1_555
C12_9 C13_9 1_555 1_555
C1_10 C2_10 1_555 1_555
C2_10 C3_10 1_555 1_555
C3_10 H1_10 1_555 1_555
C4_9 C3_10 1_555 1_555
H2_9 C4_9 1_555 1_555
C5_9 C4_9 1_555 1_555
C6_9 C5_9 1_555 1_555
H3_9 C6_9 1_555 1_555
C7_10 C2_10 1_555 1_555
H4_10 C7_10 1_555 1_555
O2_10 C1_10 1_555 1_555
O10_2 C1_10 1_555 1_555
O7_9 S1_9 1_555 1_555
O8_9 S1_9 1_555 1_555
S1_9 C5_9 1_555 1_555
C6_9 C7_10 1_555 1_555
C8_9 S1_9 1_555 1_555
O2_10 Zn6_8 1_555 1_555
N4_5 C15_11 1_555 1_555
C1_11 C2_11 1_555 1_555
C2_11 C3_11 1_555 1_555
C3_11 H1_11 1_555 1_555
C4_10 C3_11 1_555 1_555
H2_10 C4_10 1_555 1_555
C5_10 C4_10 1_555 1_555
C6_10 C5_10 1_555 1_555
H3_10 C6_10 1_555 1_555
C7_11 C2_11 1_555 1_555
H4_11 C7_11 1_555 1_555
C8_10 C9_10 1_555 1_555
C9_10 H5_10 1_555 1_555
C10_10 C9_10 1_555 1_555
H6_10 C10_10 1_555 1_555
C11_10 C10_10 1_555 1_555
C12_10 C11_10 1_555 1_555
H7_10 C12_10 1_555 1_555
C13_10 C8_10 1_555 1_555
H8_10 C13_10 1_555 1_555
C14_11 C11_10 1_555 1_555
C15_11 H9_11 1_555 1_555
C16_11 N4_5 1_555 1_555
H10_11 C16_11 1_555 1_555
N2_11 C15_11 1_555 1_555
N3_11 C16_11 1_555 1_555
O2_11 C1_11 1_555 1_555
O10_7 C1_11 1_555 1_555
O11_8 C14_11 1_555 1_555
O5_6 C14_11 1_555 1_555
O6_11 Zn6_2 1_555 1_555
O7_10 S1_10 1_555 1_555
O8_10 S1_10 1_555 1_555
S1_10 C5_10 1_555 1_555
Zn3_4 N3_11 1_555 1_555
Zn6_2 N2_11 1_555 1_555
H11_11 O6_11 1_555 1_555
H12_11 O6_11 1_555 1_555
H13_11 O9_7 1_555 1_555
O12_6 Zn6_2 1_555 1_555
Zn6 O5_6 1_555 1_555
C6_10 C7_11 1_555 1_555
C8_10 S1_10 1_555 1_555
C12_10 C13_10 1_555 1_555
N2_11 N3_11 1_555 1_555
O9_7 Zn6_2 1_555 1_555
O2_11 Zn6_2 1_555 1_555
O11_7 C14_12 1_555 1_555
O12_6 C14_12 1_555 1_555
N4_6 C15_12 1_555 1_555
C1_12 C2_12 1_555 1_555
C2_12 C3_12 1_555 1_555
C3_12 H1_12 1_555 1_555
C4_11 C3_12 1_555 1_555
H2_11 C4_11 1_555 1_555
C5_11 C4_11 1_555 1_555
C6_11 C5_11 1_555 1_555
H3_11 C6_11 1_555 1_555
C7_12 C2_12 1_555 1_555
H4_12 C7_12 1_555 1_555
C8_11 C9_11 1_555 1_555
C9_11 H5_11 1_555 1_555
C10_11 C9_11 1_555 1_555
H6_11 C10_11 1_555 1_555
C11_11 C10_11 1_555 1_555
C12_11 C11_11 1_555 1_555
H7_11 C12_11 1_555 1_555
C13_11 C8_11 1_555 1_555
H8_11 C13_11 1_555 1_555
C15_12 H9_12 1_555 1_555
C16_12 N4_6 1_555 1_555
H10_12 C16_12 1_555 1_555
N2_12 C15_12 1_555 1_555
N3_12 C16_12 1_555 1_555
O2_12 C1_12 1_555 1_555
O10_8 C1_12 1_555 1_555
O6_12 Zn6 1_555 1_555
O7_11 S1_11 1_555 1_555
O8_11 S1_11 1_555 1_555
S1_11 C5_11 1_555 1_555
Zn4_4 N3_12 1_555 1_555
Zn6 N2_12 1_555 1_555
H11_12 O6_12 1_555 1_555
H12_12 O6_12 1_555 1_555
H13_12 O9_8 1_555 1_555
C6_11 C7_12 1_555 1_555
C8_11 S1_11 1_555 1_555
C12_11 C13_11 1_555 1_555
N2_12 N3_12 1_555 1_555
O9_8 Zn6 1_555 1_555
O2_12 Zn6 1_555 1_555
C12_12 C11_12 1_555 1_555
H7_12 C12_12 1_555 1_555
H8_12 C13_12 1_555 1_555
C14_13 C11_12 1_555 1_555
O5_7 C14_13 1_555 1_555
Zn6_4 O5_7 1_555 1_555
C12_12 C13_12 1_555 1_555
H3_12 C6_12 1_555 1_555
H4_13 C7_13 1_555 1_555
C6_12 C7_13 1_555 1_555
C9_12 H5_12 1_555 1_555
C10_12 C9_12 1_555 1_555
H6_12 C10_12 1_555 1_555
H11_13 O6_13 1_555 1_555
H12_13 O6_13 1_555 1_555
C1_13 C2_13 1_555 1_555
C2_13 C3_13 1_555 1_555
C3_13 H1_13 1_555 1_555
C4_12 C3_13 1_555 1_555
H2_12 C4_12 1_555 1_555
C5_12 C4_12 1_555 1_555
O2_13 C1_13 1_555 1_555
O8_12 S1_12 1_555 1_555
S1_12 C5_12 1_555 1_555
O12_7 Zn6_3 1_555 1_555
C8_12 S1_12 1_555 1_555
O2_13 Zn6_3 1_555 1_555
N4_8 C15_13 1_555 1_555
C15_13 H9_13 1_555 1_555
C16_13 N4_8 1_555 1_555
H10_13 C16_13 1_555 1_555
N2_13 C15_13 1_555 1_555
N3_13 C16_13 1_555 1_555
N2_13 N3_13 1_555 1_555
N4_7 C15_14 1_555 1_555
C1_14 C2_14 1_555 1_555
C2_14 C3_14 1_555 1_555
C3_14 H1_14 1_555 1_555
C4_13 C3_14 1_555 1_555
H2_13 C4_13 1_555 1_555
C5_13 C4_13 1_555 1_555
C8_13 C9_13 1_555 1_555
C9_13 H5_13 1_555 1_555
C10_13 C9_13 1_555 1_555
H6_13 C10_13 1_555 1_555
C15_14 H9_14 1_555 1_555
C16_14 N4_7 1_555 1_555
H10_14 C16_14 1_555 1_555
N2_14 C15_14 1_555 1_555
N3_14 C16_14 1_555 1_555
O2_14 C1_14 1_555 1_555
O6_14 Zn6_4 1_555 1_555
O8_13 S1_13 1_555 1_555
S1_13 C5_13 1_555 1_555
Zn4_3 N3_14 1_555 1_555
Zn6_4 N2_14 1_555 1_555
H11_14 O6_14 1_555 1_555
H12_14 O6_14 1_555 1_555
H13_14 O9_6 1_555 1_555
C8_13 S1_13 1_555 1_555
N2_14 N3_14 1_555 1_555
O9_6 Zn6_4 1_555 1_555
O2_14 Zn6_4 1_555 1_555
H3_13 C6_13 1_555 1_555
H4_14 C7_14 1_555 1_555
C12_13 C11_13 1_555 1_555
H7_13 C12_13 1_555 1_555
H8_13 C13_13 1_555 1_555
C14_14 C11_13 1_555 1_555
O12_7 C14_14 1_555 1_555
C6_13 C7_14 1_555 1_555
C12_13 C13_13 1_555 1_555
O11_4 C14_15 1_555 1_555
O5_8 C14_15 1_555 1_555
Zn6_5 O5_8 1_555 1_555
N4 C15_15 1_555 1_555
C1_15 C2_15 1_555 1_555
C2_15 C3_15 1_555 1_555
C3_15 H1_15 1_555 1_555
C7_15 C2_15 1_555 1_555
H4_15 C7_15 1_555 1_555
C15_15 H9_15 1_555 1_555
C16_15 N4 1_555 1_555
H10_15 C16_15 1_555 1_555
N2_15 C15_15 1_555 1_555
N3_15 C16_15 1_555 1_555
O2_15 C1_15 1_555 1_555
O10_3 C1_15 1_555 1_555
O6_15 Zn6_6 1_555 1_555
Zn3_2 N3_15 1_555 1_555
Zn6_6 N2_15 1_555 1_555
H11_15 O6_15 1_555 1_555
H12_15 O6_15 1_555 1_555
H13_15 O9_3 1_555 1_555
O12_8 Zn6_6 1_555 1_555
N2_15 N3_15 1_555 1_555
O9_3 Zn6_6 1_555 1_555
O2_15 Zn6_6 1_555 1_555
N4_2 C15_16 1_555 1_555
C1_16 C2_16 1_555 1_555
C2_16 C3_16 1_555 1_555
C3_16 H1_16 1_555 1_555
C7_16 C2_16 1_555 1_555
H4_16 C7_16 1_555 1_555
C15_16 H9_16 1_555 1_555
C16_16 N4_2 1_555 1_555
H10_16 C16_16 1_555 1_555
N2_16 C15_16 1_555 1_555
N3_16 C16_16 1_555 1_555
O2_16 C1_16 1_555 1_555
O10_4 C1_16 1_555 1_555
O6_16 Zn6_5 1_555 1_555
Zn4_2 N3_16 1_555 1_555
Zn6_5 N2_16 1_555 1_555
H11_16 O6_16 1_555 1_555
H12_16 O6_16 1_555 1_555
H13_16 O9_4 1_555 1_555
N2_16 N3_16 1_555 1_555
O9_4 Zn6_5 1_555 1_555
O2_16 Zn6_5 1_555 1_555
H2_14 C4_14 1_555 1_555
C5_14 C4_14 1_555 1_555
C6_14 C5_14 1_555 1_555
H3_14 C6_14 1_555 1_555
C8_14 C9_14 1_555 1_555
C9_14 H5_14 1_555 1_555
C10_14 C9_14 1_555 1_555
H6_14 C10_14 1_555 1_555
C11_14 C10_14 1_555 1_555
C12_14 C11_14 1_555 1_555
H7_14 C12_14 1_555 1_555
C13_14 C8_14 1_555 1_555
H8_14 C13_14 1_555 1_555
C14_16 C11_14 1_555 1_555
O11_3 C14_16 1_555 1_555
O12_8 C14_16 1_555 1_555
O7_14 S1_14 1_555 1_555
O8_14 S1_14 1_555 1_555
S1_14 C5_14 1_555 1_555
C8_14 S1_14 1_555 1_555
C12_14 C13_14 1_555 1_555
H2_15 C4_15 1_555 1_555
C5_15 C4_15 1_555 1_555
C6_15 C5_15 1_555 1_555
H3_15 C6_15 1_555 1_555
C8_15 C9_15 1_555 1_555
C9_15 H5_15 1_555 1_555
C10_15 C9_15 1_555 1_555
H6_15 C10_15 1_555 1_555
C11_15 C10_15 1_555 1_555
C12_15 C11_15 1_555 1_555
H7_15 C12_15 1_555 1_555
C13_15 C8_15 1_555 1_555
H8_15 C13_15 1_555 1_555
O7_15 S1_15 1_555 1_555
O8_15 S1_15 1_555 1_555
S1_15 C5_15 1_555 1_555
C8_15 S1_15 1_555 1_555
C12_15 C13_15 1_555 1_555
H2_16 C4_16 1_555 1_555
C5_16 C4_16 1_555 1_555
C6_16 C5_16 1_555 1_555
H3_16 C6_16 1_555 1_555
C8_16 C9_16 1_555 1_555
C9_16 H5_16 1_555 1_555
C10_16 C9_16 1_555 1_555
H6_16 C10_16 1_555 1_555
C11_16 C10_16 1_555 1_555
C12_16 C11_16 1_555 1_555
H7_16 C12_16 1_555 1_555
C13_16 C8_16 1_555 1_555
H8_16 C13_16 1_555 1_555
O7_16 S1_16 1_555 1_555
O8_16 S1_16 1_555 1_555
S1_16 C5_16 1_555 1_555
C8_16 S1_16 1_555 1_555
C12_16 C13_16 1_555 1_555

#END
