
###############################################################################
#
# This file contains modified crystal structure data generated from the
# MOF subset of the Cambridge Structural Database (CSD) v543 
# hosted by the Cambridge Crystallographic Data Centre (CCDC).
#
# This work is licensed under the Creative Commons
# Attribution-NonCommercial-ShareAlike 4.0 International License.
# To view a copy of this license, visit
# http://creativecommons.org/licenses/by-nc-sa/4.0/
# or send a letter to
# Creative Commons, PO Box 1866, Mountain View, CA 94042, USA.
#
# CIF created using the CSD Python API on 29 September 2022
# The structure has been converted into the P1 space group
# The structure has a 3D framework
# The original CSD entry PIBGUF is in the rhombohedral crystal system
# The framework has been calculated to contain at least 10.0% void space
# The void calculation uses a probe of radius 1.32A, grid spacing 0.4
#
###############################################################################

data_PIBGUF
_chemical_formula_moiety         '(C612 H504 N36 O174 P30 Zn28)n'
_symmetry_cell_setting           triclinic
_symmetry_space_group_name_H-M   'P 1'
_symmetry_Int_Tables_number      1
_space_group_name_Hall           'P 1'
loop_
_symmetry_equiv_pos_site_id
_symmetry_equiv_pos_as_xyz
1 x,y,z
_cell_length_a                   28.7078(3)
_cell_length_b                   28.7078(3)
_cell_length_c                   43.8106(5)
_cell_angle_alpha                90
_cell_angle_beta                 90
_cell_angle_gamma                120
_cell_volume                     31268.7
loop_
_atom_site_label
_atom_site_type_symbol
_atom_site_fract_x
_atom_site_fract_y
_atom_site_fract_z
Zn1 Zn 0.322425(17) 0.198197(16) 0.144456(8)
P2 P 0.0000 0.0000 0.22382(3)
O5 O 0.31500(12) 0.13991(11) 0.11558(5)
O6 O 0.33325(12) 0.09416(11) 0.14993(5)
O7 O 0.24142(10) 0.15467(11) 0.15436(6)
O8 O 0.26227(10) 0.11075(11) 0.18815(6)
C1 C 0.33217(12) 0.00433(13) 0.05339(8)
C2 C 0.06672(14) 0.03693(13) 0.20802(8)
C3 C 0.32969(15) 0.08371(14) 0.06855(7)
H1 H 0.3303 0.1155 0.0635
O10 O 0.0000 0.0000 0.25765(9)
C7 C 0.33325(15) 0.05226(13) 0.04576(7)
H2 H 0.3363 0.0629 0.0255
C8 C 0.32435(14) 0.10388(13) 0.12334(7)
C9 C 0.16010(15) 0.06250(15) 0.21371(8)
H3 H 0.1870 0.0608 0.2247
C11 C 0.23058(14) 0.12143(13) 0.17540(7)
C12 C 0.32519(13) 0.06793(13) 0.09888(7)
C13 C 0.17280(14) 0.09191(14) 0.18647(7)
C16 C 0.10782(14) 0.03604(14) 0.22437(8)
H6 H 0.1000 0.0174 0.2427
C17 C 0.32417(16) 0.02027(15) 0.10631(8)
H7 H 0.3216 0.0098 0.1266
H12 H 0.4264 0.0057 0.0626
C29 C 0.13176(16) 0.09332(17) 0.17020(8)
H20 H 0.1397 0.1126 0.1520
C30 C 0.07959(16) 0.06642(18) 0.18078(9)
H21 H 0.0527 0.0679 0.1698
P3 P 0.03660(3) 0.36974(4) 0.023039(18)
O16 O 0.26072(10) 0.35428(14) 0.02829(6)
O17 O 0.28068(11) 0.41078(16) 0.06721(6)
O18 O 0.08213(12) 0.62342(16) 0.00802(7)
O21 O 0.02935(11) 0.59639(16) 0.04880(6)
C51 C 0.10189(13) 0.37747(18) 0.02892(7)
C52 C 0.19888(14) 0.38169(20) 0.03996(8)
C53 C 0.04318(13) 0.43476(18) 0.02627(7)
C56 C 0.05322(14) 0.53607(20) 0.02770(8)
C58 C 0.02088(17) 0.49707(23) 0.04918(9)
H39 H 0.0028 0.5051 0.0640
C59 C 0.11159(14) 0.33925(21) 0.01590(8)
H40 H 0.0855 0.3119 0.0039
C61 C 0.16060(15) 0.34228(21) 0.02097(9)
H42 H 0.1681 0.3177 0.0116
C62 C 0.08057(15) 0.52367(22) 0.00604(8)
C63 C 0.01131(15) 0.33822(22) 0.08357(8)
H44 H 0.0436 0.3688 0.0886
C64 C 0.13992(15) 0.41832(21) 0.04743(9)
H45 H 0.1331 0.4441 0.0557
C65 C 0.25020(15) 0.38287(21) 0.04604(8)
C66 C 0.05584(15) 0.58947(21) 0.02762(9)
C67 C 0.01585(16) 0.44665(22) 0.04839(9)
C68 C 0.07582(15) 0.47347(21) 0.00513(8)
C75 C 0.18803(14) 0.41974(20) 0.05321(8)
H60 H 0.2134 0.4462 0.0660
Zn10 Zn 0.344242(17) 0.135136(16) 0.188877(8)
Zn16 Zn 0.037996(17) 0.666547(24) 0.039460(9)
Zn18 Zn 0.333453(24) 0.371449(17) 0.039460(9)
N9 N 0.32505(15) 0.25274(10) 0.11366(6)
O35 O 0.33342(12) 0.23917(11) 0.18340(5)
O38 O 0.40440(10) 0.22258(11) 0.14518(6)
Zn2 Zn 0.371449(17) 0.037996(17) 0.960540(9)
H16 H 0.2693 0.0219 0.9260
C32 C 0.33892(19) 0.0107(2) 0.89571(9)
H24 H 0.3715 0.0092 0.8920
H25 H 0.3478 0.0479 0.8940
O15 O 0.01499(9) 0.34324(13) 0.99284(5)
N3 N 0.00850(11) 0.32827(16) 0.92649(6)
N4 N 0.07231(11) 0.32505(15) 0.88634(6)
H43 H 0.1025 0.5497 0.9919
H47 H 0.0943 0.4656 0.9905
C69 C 0.02318(17) 0.31967(25) 0.87143(8)
H48 H 0.0024 0.2842 0.8624
H49 H 0.0333 0.3462 0.8553
C70 C 0.01269(17) 0.27891(23) 0.93025(9)
H51 H 0.0223 0.2765 0.9512
C71 C 0.05557(18) 0.27992(24) 0.90849(9)
H52 H 0.0865 0.2849 0.9201
H53 H 0.0408 0.2460 0.8976
C72 C 0.09900(16) 0.37655(24) 0.90329(9)
H54 H 0.1060 0.4059 0.8896
H55 H 0.1332 0.3828 0.9112
C74 C 0.06363(17) 0.37533(26) 0.92958(10)
H58 H 0.0792 0.3732 0.9488
H59 H 0.0619 0.4082 0.9296
Zn9 Zn 0.124228(23) 0.322425(17) 0.855544(8)
O31 O 0.35428(14) 0.09356(10) 0.97171(6)
O32 O 0.45871(11) 0.08213(12) 0.99198(7)
O41 O 0.43296(11) 0.02935(11) 0.95120(6)
P1 P 0.33314(3) 0.96340(3) 0.023039(18)
P2_2 P -0.0000 1.0000 0.22382(3)
O2 O 0.09356(10) 0.73928(10) 0.02829(6)
O3 O 0.13010(11) 0.71932(11) 0.06721(6)
O4 O 0.54129(11) 0.91787(12) 0.00802(7)
O9 O 0.56704(11) 0.97065(11) 0.04880(6)
C4 C 0.27558(13) 0.89811(13) 0.02892(7)
O10_2 O -0.0000 1.0000 0.25765(9)
C5 C 0.18281(14) 0.80112(14) 0.03996(8)
C6 C 0.39158(13) 0.95682(13) 0.02627(7)
C10 C 0.48285(14) 0.94678(14) 0.02770(8)
C14 C 0.47619(16) 0.97912(17) 0.04918(9)
H4 H 0.5023 0.9972 0.0640
C15 C 0.22766(15) 0.88841(14) 0.01590(8)
H5 H 0.2264 0.9145 0.0039
C18 C 0.18168(15) 0.83940(15) 0.02097(9)
H8 H 0.1496 0.8319 0.0116
C19 C 0.44310(16) 0.91943(15) 0.00604(8)
C20 C 0.32691(16) 0.98869(15) 0.08357(8)
H10 H 0.3252 0.9564 0.0886
C21 C 0.27840(15) 0.86008(15) 0.04743(9)
H11 H 0.3110 0.8669 0.0557
C22 C 0.13267(14) 0.74980(15) 0.04604(8)
C23 C 0.53363(15) 0.94416(15) 0.02762(9)
C24 C 0.43080(15) 0.98415(16) 0.04839(9)
C25 C 0.39765(15) 0.92418(15) 0.00513(8)
C34 C 0.23171(14) 0.81197(14) 0.05321(8)
H28 H 0.2328 0.7866 0.0660
H36 H 0.0152 0.9473 0.1698
Zn14 Zn 0.628551(17) 0.962004(17) 0.039460(9)
O1 O 0.32825(9) 0.98501(9) 0.99284(5)
N1 N 0.31977(12) 0.99150(11) 0.92649(6)
N2 N 0.25274(10) 0.92769(11) 0.88634(6)
H9 H 0.4472 0.8975 0.9919
H13 H 0.3713 0.9057 0.9905
C26 C 0.29649(19) 0.97682(17) 0.87143(8)
H14 H 0.2818 0.9976 0.8624
H15 H 0.3129 0.9667 0.8553
C27 C 0.26622(16) 0.98731(17) 0.93025(9)
H17 H 0.2542 0.9777 0.9512
C28 C 0.22435(16) 0.94443(18) 0.90849(9)
H18 H 0.1984 0.9135 0.9201
H19 H 0.2052 0.9592 0.8976
C31 C 0.27755(18) 0.90100(16) 0.90329(9)
H22 H 0.2999 0.8940 0.8896
H23 H 0.2496 0.8668 0.9112
C33 C 0.3117(2) 0.93637(17) 0.92958(10)
H26 H 0.2940 0.9208 0.9488
H27 H 0.3463 0.9381 0.9296
Zn8 Zn 0.198197(16) 0.875772(23) 0.855544(8)
P2_3 P 1.0000 0.0000 0.22382(3)
O10_3 O 1.0000 0.0000 0.25765(9)
O11 O 0.84533(11) 0.08675(15) 0.15436(6)
O12 O 0.88925(11) 0.15152(15) 0.18815(6)
C35 C 0.96307(13) 0.02979(19) 0.20802(8)
C36 C 0.93750(15) 0.09760(21) 0.21371(8)
H29 H 0.9392 0.1262 0.2247
C37 C 0.87857(13) 0.10915(19) 0.17540(7)
C38 C 0.90809(14) 0.08089(20) 0.18647(7)
C39 C 0.96396(14) 0.07178(20) 0.22437(8)
H30 H 0.9826 0.0826 0.2427
C40 C 0.90668(17) 0.03844(23) 0.17020(8)
H31 H 0.8874 0.0271 0.1520
C41 C 0.93358(18) 0.01317(24) 0.18078(9)
Zn3 Zn 0.801803(16) 0.124228(23) 0.144456(8)
O19 O 0.86009(11) 0.17509(16) 0.11558(5)
O20 O 0.90584(11) 0.23909(16) 0.14993(5)
C49 C 0.99567(13) 0.32784(18) 0.05339(8)
C50 C 0.91629(14) 0.24598(21) 0.06855(7)
H37 H 0.8845 0.2148 0.0635
C54 C 0.94774(13) 0.28099(20) 0.04576(7)
H38 H 0.9371 0.2734 0.0255
C55 C 0.89612(13) 0.22047(19) 0.12334(7)
C57 C 0.93207(13) 0.25726(18) 0.09888(7)
C60 C 0.97973(15) 0.30390(22) 0.10631(8)
H41 H 0.9902 0.3118 0.1266
H46 H 0.9943 0.4207 0.0626
Zn11 Zn 0.864864(16) 0.209105(23) 0.188877(8)
N7 N 0.74726(10) 0.07231(11) 0.11366(6)
O36 O 0.76083(11) 0.09424(16) 0.18340(5)
O39 O 0.77742(11) 0.18181(15) 0.14518(6)
Zn4 Zn 0.962004(17) 0.333453(24) 0.960540(9)
H50 H 0.9781 0.2474 0.9260
C73 C 0.9893(2) 0.32822(28) 0.89571(9)
H56 H 0.9908 0.3623 0.8920
H57 H 0.9521 0.2999 0.8940
O29 O 0.90644(10) 0.26072(10) 0.97171(6)
O33 O 0.91787(12) 0.37658(16) 0.99198(7)
O42 O 0.97065(11) 0.40361(16) 0.95120(6)
P2_4 P 1.0000 1.0000 0.22382(3)
O10_4 O 1.0000 1.0000 0.25765(9)
H32 H 0.9321 0.9848 0.1698
O13 O 0.91325(15) 0.75858(10) 0.15436(6)
O14 O 0.84848(15) 0.73773(10) 0.18815(6)
C42 C 0.97021(19) 0.93328(14) 0.20802(8)
C43 C 0.90240(21) 0.83990(15) 0.21371(8)
H33 H 0.8738 0.8130 0.2247
C44 C 0.89085(19) 0.76942(14) 0.17540(7)
C45 C 0.91911(20) 0.82720(14) 0.18647(7)
C46 C 0.92822(20) 0.89218(14) 0.22437(8)
H34 H 0.9174 0.9000 0.2427
C47 C 0.96156(23) 0.86824(16) 0.17020(8)
H35 H 0.9729 0.8603 0.1520
C48 C 0.98683(24) 0.92041(16) 0.18078(9)
Zn5 Zn 0.875772(23) 0.677575(17) 0.144456(8)
P4 P 0.63026(4) 0.66686(3) 0.023039(18)
O23 O 0.64572(14) 0.90644(10) 0.02829(6)
O24 O 0.58922(16) 0.86990(11) 0.06721(6)
O25 O 0.37658(16) 0.45871(11) 0.00802(7)
O26 O 0.82491(16) 0.68500(12) 0.11558(5)
O27 O 0.76091(16) 0.66675(12) 0.14993(5)
O28 O 0.40361(16) 0.43296(11) 0.04880(6)
C76 C 0.67216(18) 0.66783(12) 0.05339(8)
C77 C 0.75402(21) 0.67031(15) 0.06855(7)
H61 H 0.7852 0.6697 0.0635
C78 C 0.62253(18) 0.72442(13) 0.02892(7)
C79 C 0.61831(20) 0.81719(14) 0.03996(8)
C80 C 0.56524(18) 0.60842(13) 0.02627(7)
C81 C 0.71901(20) 0.66675(15) 0.04576(7)
H62 H 0.7266 0.6637 0.0255
C82 C 0.77953(19) 0.67565(14) 0.12334(7)
C83 C 0.46393(20) 0.51715(14) 0.02770(8)
C84 C 0.74274(18) 0.67481(13) 0.09888(7)
C85 C 0.50293(23) 0.52381(16) 0.04918(9)
H63 H 0.4949 0.4977 0.0640
C86 C 0.66075(21) 0.77234(15) 0.01590(8)
H64 H 0.6881 0.7736 0.0039
C87 C 0.69610(22) 0.67583(16) 0.10631(8)
H65 H 0.6882 0.6784 0.1266
C88 C 0.65772(21) 0.81832(15) 0.02097(9)
H66 H 0.6823 0.8504 0.0116
C89 C 0.47633(22) 0.55690(16) 0.00604(8)
C90 C 0.66178(22) 0.67309(16) 0.08357(8)
H68 H 0.6312 0.6748 0.0886
C91 C 0.58168(21) 0.72160(15) 0.04743(9)
H69 H 0.5559 0.6890 0.0557
C92 C 0.61713(21) 0.86733(14) 0.04604(8)
C93 C 0.41053(21) 0.46637(15) 0.02762(9)
C94 C 0.55335(22) 0.56920(15) 0.04839(9)
H70 H 0.5793 0.5736 0.0626
C95 C 0.52653(21) 0.60235(15) 0.00513(8)
C102 C 0.58026(20) 0.76829(14) 0.05321(8)
H84 H 0.5538 0.7672 0.0660
Zn12 Zn 0.790895(23) 0.655758(17) 0.188877(8)
N8 N 0.92769(11) 0.67495(15) 0.11366(6)
O37 O 0.90576(16) 0.66658(12) 0.18340(5)
O40 O 0.81819(15) 0.59560(10) 0.14518(6)
Zn6 Zn 0.666547(24) 0.628551(17) 0.960540(9)
O22 O 0.65676(13) 0.67175(9) 0.99284(5)
N5 N 0.67173(16) 0.68023(12) 0.92649(6)
N6 N 0.67495(15) 0.74726(10) 0.88634(6)
H67 H 0.4503 0.5528 0.9919
H71 H 0.5344 0.6287 0.9905
C96 C 0.68033(25) 0.70351(19) 0.87143(8)
H72 H 0.7158 0.7182 0.8624
H73 H 0.6538 0.6871 0.8553
C97 C 0.72109(23) 0.73378(16) 0.93025(9)
H74 H 0.7526 0.7307 0.9260
H75 H 0.7235 0.7458 0.9512
C98 C 0.72008(24) 0.77565(16) 0.90849(9)
H76 H 0.7151 0.8016 0.9201
H77 H 0.7540 0.7948 0.8976
C99 C 0.62345(24) 0.72245(18) 0.90329(9)
H78 H 0.5941 0.7001 0.8896
H79 H 0.6172 0.7504 0.9112
C100 C 0.67178(28) 0.66108(19) 0.89571(9)
H80 H 0.6377 0.6285 0.8920
H81 H 0.7001 0.6522 0.8940
C101 C 0.62467(26) 0.6883(2) 0.92958(10)
H82 H 0.6268 0.7060 0.9488
H83 H 0.5918 0.6537 0.9296
Zn7 Zn 0.677575(17) 0.801803(16) 0.855544(8)
O30 O 0.73928(10) 0.64572(14) 0.97171(6)
O34 O 0.62342(16) 0.54129(11) 0.99198(7)
O43 O 0.59639(16) 0.56704(11) 0.95120(6)
Zn2_2 Zn 0.038116(17) 0.371329(17) 0.293873(9)
O4_2 O 0.20796(11) 0.25120(12) 0.34135(7)
O9_2 O 0.23371(11) 0.30398(11) 0.38213(6)
C6_2 C 0.05825(13) 0.29015(13) 0.35960(7)
H2_2 H 0.0030 0.3962 0.3588
C10_2 C 0.14952(14) 0.28011(14) 0.36103(8)
C14_2 C 0.14286(16) 0.31245(17) 0.38251(9)
H4_2 H 0.1690 0.3305 0.3973
C19_2 C 0.10977(16) 0.25276(15) 0.33937(8)
H9_2 H 0.1139 0.2308 0.3252
C23_2 C 0.20030(15) 0.27749(15) 0.36095(9)
C24_2 C 0.09747(15) 0.31748(16) 0.38172(9)
H12_2 H 0.0931 0.3390 0.3959
C25_2 C 0.06432(15) 0.25751(15) 0.33846(8)
H13_2 H 0.0380 0.2390 0.3238
C32_2 C 0.00559(19) 0.3440(2) 0.22904(9)
H24_2 H 0.0382 0.3425 0.2253
H25_2 H 0.0145 0.3812 0.2273
H27_2 H 0.0130 0.2714 0.2629
Zn10_2 Zn 0.010908(17) 0.468470(16) 0.522211(8)
Zn14_2 Zn 0.295218(17) 0.295337(17) 0.372793(9)
Zn18_2 Zn 0.000120(24) 0.704782(17) 0.372793(9)
O31_2 O 0.02095(14) 0.42689(10) 0.30504(6)
O32_2 O 0.12538(11) 0.41546(12) 0.32531(7)
O35_2 O 0.00008(12) 0.57251(11) 0.51674(5)
O38_2 O 0.07106(10) 0.55592(11) 0.47852(6)
O41_2 O 0.09963(11) 0.36268(11) 0.28453(6)
Zn1_2 Zn 0.989092(17) 0.531530(16) 0.477789(8)
P1_2 P 0.99981(3) 0.29673(3) 0.356372(18)
P2_5 P 0.6667 0.3333 0.55715(3)
O1_2 O 0.99492(9) 0.31834(9) 0.32617(5)
N1_2 N 0.98644(12) 0.32483(11) 0.25982(6)
O2_2 O 0.76023(10) 0.07261(10) 0.36162(6)
O3_2 O 0.79677(11) 0.05265(11) 0.40054(6)
O5_2 O 0.98167(12) 0.47324(11) 0.44891(5)
N2_2 N 0.91941(10) 0.26102(11) 0.21967(6)
O6_2 O 0.99992(12) 0.42749(11) 0.48326(5)
O7_2 O 0.90809(10) 0.48800(11) 0.48769(6)
O8_2 O 0.92894(10) 0.44408(11) 0.52148(6)
C1_2 C 0.99884(12) 0.33766(13) 0.38672(8)
C2_2 C 0.73339(14) 0.37026(13) 0.54135(8)
C3_2 C 0.99636(15) 0.41704(14) 0.40188(7)
H1_2 H 0.9970 0.4488 0.3968
C4_2 C 0.94225(13) 0.23144(13) 0.36225(7)
O10_5 O 0.6667 0.3333 0.59098(9)
C5_2 C 0.84948(14) 0.13445(14) 0.37329(8)
C7_2 C 0.99992(15) 0.38559(13) 0.37909(7)
C8_2 C 0.99102(14) 0.43721(13) 0.45667(7)
C9_2 C 0.82677(15) 0.39583(15) 0.54704(8)
H3_2 H 0.8537 0.3941 0.5580
C11_2 C 0.89725(14) 0.45476(13) 0.50873(7)
C12_2 C 0.99186(13) 0.40126(13) 0.43221(7)
C13_2 C 0.83947(14) 0.42524(14) 0.51980(7)
C15_2 C 0.89433(15) 0.22174(14) 0.34923(8)
H5_2 H 0.8931 0.2478 0.3372
C16_2 C 0.77449(14) 0.36937(14) 0.55770(8)
H6_2 H 0.7667 0.3507 0.5760
C17_2 C 0.99084(16) 0.35360(15) 0.43964(8)
H7_2 H 0.9883 0.3431 0.4599
C18_2 C 0.84835(15) 0.17273(15) 0.35430(9)
H8_2 H 0.8163 0.1652 0.3449
C20_2 C 0.99358(16) 0.32202(15) 0.41690(8)
H10_2 H 0.9919 0.2897 0.4219
C21_2 C 0.94507(15) 0.19341(15) 0.38076(9)
H11_2 H 0.9777 0.2002 0.3890
C22_2 C 0.79934(14) 0.08313(15) 0.37937(8)
C26_2 C 0.96316(19) 0.31015(17) 0.20476(8)
H14_2 H 0.9485 0.3309 0.1957
H15_2 H 0.9796 0.3000 0.1886
C27_2 C 0.93289(16) 0.32064(17) 0.26358(9)
H16_2 H 0.9360 0.3552 0.2593
H17_2 H 0.9209 0.3110 0.2845
C28_2 C 0.89102(16) 0.27776(18) 0.24182(9)
H18_2 H 0.8651 0.2468 0.2534
H19_2 H 0.8719 0.2925 0.2309
C29_2 C 0.79843(16) 0.42665(17) 0.50353(8)
H20_2 H 0.8064 0.4459 0.4853
C30_2 C 0.74626(16) 0.39975(18) 0.51411(9)
H21_2 H 0.7194 0.4012 0.5031
C31_2 C 0.94422(18) 0.23433(16) 0.23662(9)
H22_2 H 0.9666 0.2273 0.2229
H23_2 H 0.9163 0.2001 0.2445
C33_2 C 0.9784(2) 0.26970(17) 0.26291(10)
H26_2 H 0.9607 0.2541 0.2821
C34_2 C 0.89838(14) 0.14530(14) 0.38654(8)
H28_2 H 0.8995 0.1199 0.3993
O11_2 O 0.51200(11) 0.42008(15) 0.48769(6)
O12_2 O 0.55592(11) 0.48485(15) 0.52148(6)
C35_2 C 0.62974(13) 0.36312(19) 0.54135(8)
C36_2 C 0.60417(15) 0.43093(21) 0.54704(8)
H29_2 H 0.6059 0.4595 0.5580
C37_2 C 0.54524(13) 0.44248(19) 0.50873(7)
C38_2 C 0.57476(14) 0.41422(20) 0.51980(7)
C39_2 C 0.63063(14) 0.40511(20) 0.55770(8)
H30_2 H 0.6493 0.4159 0.5760
C40_2 C 0.57335(17) 0.37177(23) 0.50353(8)
H31_2 H 0.5541 0.3604 0.4853
C41_2 C 0.60025(18) 0.34650(24) 0.51411(9)
H32_2 H 0.5988 0.3181 0.5031
O13_2 O 0.57992(15) 0.09191(10) 0.48769(6)
O14_2 O 0.51515(15) 0.07106(10) 0.52148(6)
C42_2 C 0.63688(19) 0.26661(14) 0.54135(8)
C43_2 C 0.56907(21) 0.17323(15) 0.54704(8)
H33_2 H 0.5405 0.1463 0.5580
C44_2 C 0.55752(19) 0.10275(14) 0.50873(7)
C45_2 C 0.58578(20) 0.16053(14) 0.51980(7)
C46_2 C 0.59489(20) 0.22551(14) 0.55770(8)
H34_2 H 0.5841 0.2333 0.5760
C47_2 C 0.62823(23) 0.20157(16) 0.50353(8)
H35_2 H 0.6396 0.1936 0.4853
C48_2 C 0.65350(24) 0.25374(16) 0.51411(9)
H36_2 H 0.6819 0.2806 0.5031
Zn3_2 Zn 0.468470(16) 0.457561(23) 0.477789(8)
Zn4_2 Zn 0.628671(17) 0.666786(24) 0.293873(9)
P3_2 P 0.70327(3) 0.70307(4) 0.356372(18)
O15_2 O 0.68166(9) 0.67657(13) 0.32617(5)
N3_2 N 0.67517(11) 0.66160(16) 0.25982(6)
O16_2 O 0.92739(10) 0.68761(14) 0.36162(6)
O17_2 O 0.94735(11) 0.74411(16) 0.40054(6)
O18_2 O 0.74880(12) 0.95675(16) 0.34135(7)
O19_2 O 0.52676(11) 0.50842(16) 0.44891(5)
N4_2 N 0.73898(11) 0.65838(15) 0.21967(6)
O20_2 O 0.57251(11) 0.57242(16) 0.48326(5)
O21_2 O 0.69602(11) 0.92972(16) 0.38213(6)
C49_2 C 0.66234(13) 0.66117(18) 0.38672(8)
C50_2 C 0.58296(14) 0.57931(21) 0.40188(7)
H37_2 H 0.5512 0.5481 0.3968
C51_2 C 0.76856(13) 0.71080(18) 0.36225(7)
C52_2 C 0.86555(14) 0.71502(20) 0.37329(8)
C53_2 C 0.70985(13) 0.76809(18) 0.35960(7)
C54_2 C 0.61441(13) 0.61432(20) 0.37909(7)
H38_2 H 0.6038 0.6067 0.3588
C55_2 C 0.56279(13) 0.55380(19) 0.45667(7)
C56_2 C 0.71989(14) 0.86940(20) 0.36103(8)
C57_2 C 0.59874(13) 0.59059(18) 0.43221(7)
C58_2 C 0.68755(17) 0.83040(23) 0.38251(9)
H39_2 H 0.6695 0.8384 0.3973
C59_2 C 0.77826(14) 0.67258(21) 0.34923(8)
H40_2 H 0.7522 0.6452 0.3372
C60_2 C 0.64640(15) 0.63723(22) 0.43964(8)
H41_2 H 0.6569 0.6451 0.4599
C61_2 C 0.82727(15) 0.67561(21) 0.35430(9)
H42_2 H 0.8348 0.6510 0.3449
C62_2 C 0.74724(15) 0.85700(22) 0.33937(8)
H43_2 H 0.7692 0.8830 0.3252
C63_2 C 0.67798(15) 0.67155(22) 0.41690(8)
H44_2 H 0.7103 0.7021 0.4219
C64_2 C 0.80659(15) 0.75165(21) 0.38076(9)
H45_2 H 0.7998 0.7774 0.3890
C65_2 C 0.91687(15) 0.71620(21) 0.37937(8)
C66_2 C 0.72251(15) 0.92280(21) 0.36095(9)
C67_2 C 0.68252(16) 0.77998(22) 0.38172(9)
H46_2 H 0.6610 0.7540 0.3959
C68_2 C 0.74249(15) 0.80680(21) 0.33846(8)
H47_2 H 0.7610 0.7989 0.3238
C69_2 C 0.68985(17) 0.65300(25) 0.20476(8)
H48_2 H 0.6691 0.6175 0.1957
H49_2 H 0.7000 0.6795 0.1886
C70_2 C 0.67936(17) 0.61224(23) 0.26358(9)
H50_2 H 0.6448 0.5807 0.2593
H51_2 H 0.6890 0.6098 0.2845
C71_2 C 0.72224(18) 0.61325(24) 0.24182(9)
H52_2 H 0.7532 0.6182 0.2534
H53_2 H 0.7075 0.5793 0.2309
C72_2 C 0.76567(16) 0.70988(24) 0.23662(9)
H54_2 H 0.7727 0.7392 0.2229
H55_2 H 0.7999 0.7161 0.2445
C73_2 C 0.6560(2) 0.66155(28) 0.22904(9)
H56_2 H 0.6575 0.6956 0.2253
H57_2 H 0.6188 0.6332 0.2273
C74_2 C 0.73030(17) 0.70866(26) 0.26291(10)
H58_2 H 0.7459 0.7065 0.2821
H59_2 H 0.7286 0.7415 0.2629
C75_2 C 0.85470(14) 0.75307(20) 0.38654(8)
H60_2 H 0.8801 0.7795 0.3993
Zn5_2 Zn 0.542439(23) 0.010908(17) 0.477789(8)
P4_2 P 0.29693(4) 0.00019(3) 0.356372(18)
O22_2 O 0.32343(13) 0.00508(9) 0.32617(5)
N5_2 N 0.33840(16) 0.01356(12) 0.25982(6)
O23_2 O 0.31239(14) 0.23977(10) 0.36162(6)
O24_2 O 0.25589(16) 0.20323(11) 0.40054(6)
O26_2 O 0.49158(16) 0.01833(12) 0.44891(5)
N6_2 N 0.34162(15) 0.08059(10) 0.21967(6)
O27_2 O 0.42758(16) 0.00008(12) 0.48326(5)
C76_2 C 0.33883(18) 0.00116(12) 0.38672(8)
C77_2 C 0.42069(21) 0.00364(15) 0.40188(7)
H61_2 H 0.4519 0.0030 0.3968
C78_2 C 0.28920(18) 0.05775(13) 0.36225(7)
C79_2 C 0.28498(20) 0.15052(14) 0.37329(8)
C81_2 C 0.38568(20) 0.00008(15) 0.37909(7)
C82_2 C 0.44620(19) 0.00898(14) 0.45667(7)
C84_2 C 0.40941(18) 0.00814(13) 0.43221(7)
C86_2 C 0.32742(21) 0.10567(15) 0.34923(8)
H64_2 H 0.3548 0.1069 0.3372
C87_2 C 0.36277(22) 0.00916(16) 0.43964(8)
H65_2 H 0.3549 0.0117 0.4599
C88_2 C 0.32439(21) 0.15165(15) 0.35430(9)
H66_2 H 0.3490 0.1837 0.3449
C90_2 C 0.32845(22) 0.00642(16) 0.41690(8)
H68_2 H 0.2979 0.0081 0.4219
C91_2 C 0.24835(21) 0.05493(15) 0.38076(9)
H69_2 H 0.2226 0.0223 0.3890
C92_2 C 0.28380(21) 0.20066(14) 0.37937(8)
C96_2 C 0.34700(25) 0.03684(19) 0.20476(8)
H72_2 H 0.3825 0.0515 0.1957
H73_2 H 0.3205 0.0204 0.1886
C97_2 C 0.38776(23) 0.06711(16) 0.26358(9)
H74_2 H 0.4193 0.0640 0.2593
H75_2 H 0.3902 0.0791 0.2845
C98_2 C 0.38675(24) 0.10898(16) 0.24182(9)
H76_2 H 0.3818 0.1349 0.2534
H77_2 H 0.4207 0.1281 0.2309
C99_2 C 0.29012(24) 0.05578(18) 0.23662(9)
H78_2 H 0.2608 0.0334 0.2229
H79_2 H 0.2839 0.0837 0.2445
C101_2 C 0.29134(26) 0.0216(2) 0.26291(10)
H82_2 H 0.2935 0.0393 0.2821
C102_2 C 0.24693(20) 0.10162(14) 0.38654(8)
H84_2 H 0.2205 0.1005 0.3993
Zn11_2 Zn 0.531530(16) 0.542439(23) 0.522211(8)
Zn16_2 Zn 0.704663(17) 0.999880(24) 0.372793(9)
O29_2 O 0.57311(10) 0.59405(10) 0.30504(6)
O33_2 O 0.58454(12) 0.70991(16) 0.32531(7)
N7_2 N 0.41393(10) 0.40564(11) 0.44699(6)
N8_2 N 0.59436(11) 0.00828(15) 0.44699(6)
N9_2 N 0.99172(15) 0.58607(10) 0.44699(6)
O36_2 O 0.42749(11) 0.42758(16) 0.51674(5)
O39_2 O 0.44408(11) 0.51515(15) 0.47852(6)
O42_2 O 0.63732(11) 0.73694(16) 0.28453(6)
Zn6_2 Zn 0.333214(24) 0.961884(17) 0.293873(9)
O25_2 O 0.04325(16) 0.79204(11) 0.34135(7)
O28_2 O 0.07028(16) 0.76629(11) 0.38213(6)
C80_2 C 0.23191(18) 0.94175(13) 0.35960(7)
H62_2 H 0.3933 0.9970 0.3588
C83_2 C 0.13060(20) 0.85048(14) 0.36103(8)
C85_2 C 0.16960(23) 0.85714(16) 0.38251(9)
H63_2 H 0.1616 0.8310 0.3973
C89_2 C 0.14300(22) 0.89023(16) 0.33937(8)
H67_2 H 0.1170 0.8861 0.3252
C93_2 C 0.07720(21) 0.79970(15) 0.36095(9)
C94_2 C 0.22002(22) 0.90253(15) 0.38172(9)
H70_2 H 0.2460 0.9069 0.3959
C95_2 C 0.19320(21) 0.93568(15) 0.33846(8)
H71_2 H 0.2011 0.9620 0.3238
C100_2 C 0.33845(28) 0.99441(19) 0.22904(9)
H80_2 H 0.3044 0.9618 0.2253
H81_2 H 0.3668 0.9855 0.2273
H83_2 H 0.2585 0.9870 0.2629
Zn12_2 Zn 0.457561(23) 0.989092(17) 0.522211(8)
O30_2 O 0.40595(10) 0.97905(14) 0.30504(6)
O34_2 O 0.29009(16) 0.87462(11) 0.32531(7)
O37_2 O 0.57242(16) 0.99992(12) 0.51674(5)
O40_2 O 0.48485(15) 0.92894(10) 0.47852(6)
O43_2 O 0.26306(16) 0.90037(11) 0.28453(6)
Zn4_3 Zn 0.295337(17) 0.000120(24) 0.627207(9)
P3_3 P 0.36993(3) 0.03641(4) 0.689706(18)
O15_3 O 0.34832(9) 0.00991(13) 0.65951(5)
O16_3 O 0.59405(10) 0.02095(14) 0.69496(6)
O17_3 O 0.61401(11) 0.07745(16) 0.73388(6)
O18_3 O 0.41546(12) 0.29009(16) 0.67469(7)
O21_3 O 0.36268(11) 0.26306(16) 0.71547(6)
C51_3 C 0.43522(13) 0.04414(18) 0.69559(7)
C52_3 C 0.53221(14) 0.04836(20) 0.70663(8)
C53_3 C 0.37651(13) 0.10143(18) 0.69294(7)
C56_3 C 0.38655(14) 0.20274(20) 0.69437(8)
C58_3 C 0.35421(17) 0.16374(23) 0.71585(9)
H39_3 H 0.3361 0.1718 0.7307
C59_3 C 0.44492(14) 0.00592(21) 0.68257(8)
C61_3 C 0.49393(15) 0.00895(21) 0.68764(9)
C62_3 C 0.41390(15) 0.19034(22) 0.67271(8)
H43_3 H 0.4358 0.2164 0.6586
C63_3 C 0.34464(15) 0.00489(22) 0.75024(8)
H44_3 H 0.3769 0.0355 0.7553
C64_3 C 0.47325(15) 0.08499(21) 0.71410(9)
H45_3 H 0.4664 0.1108 0.7224
C65_3 C 0.58353(15) 0.04954(21) 0.71271(8)
C66_3 C 0.38917(15) 0.25614(21) 0.69429(9)
C67_3 C 0.34918(16) 0.11332(22) 0.71506(9)
H46_3 H 0.3276 0.0874 0.7293
C68_3 C 0.40915(15) 0.14014(21) 0.67180(8)
H47_3 H 0.4276 0.1323 0.6572
H49_3 H 0.3666 0.0129 0.5220
C72_3 C 0.43233(16) 0.04322(24) 0.56996(9)
H54_3 H 0.4393 0.0726 0.5563
H55_3 H 0.4665 0.0495 0.5779
H56_3 H 0.3241 0.0290 0.5587
C74_3 C 0.39696(17) 0.04200(26) 0.59625(10)
H58_3 H 0.4125 0.0399 0.6155
H59_3 H 0.3952 0.0749 0.5963
C75_3 C 0.52136(14) 0.08641(20) 0.71988(8)
H60_3 H 0.5467 0.1129 0.7327
Zn16_3 Zn 0.371329(17) 0.333214(24) 0.706127(9)
Zn18_3 Zn 0.666786(24) 0.038116(17) 0.706127(9)
O33_3 O 0.25120(12) 0.04325(16) 0.65865(7)
O42_3 O 0.30398(11) 0.07028(16) 0.61787(6)
Zn1_3 Zn 0.655758(17) 0.864864(16) 0.811123(8)
Zn2_3 Zn 0.704782(17) 0.704663(17) 0.627207(9)
P1_3 P 0.66647(3) 0.63007(3) 0.689706(18)
P2_6 P 0.3333 0.6667 0.89049(3)
O1_3 O 0.66158(9) 0.65168(9) 0.65951(5)
N1_3 N 0.65310(12) 0.65817(11) 0.59316(6)
O2_3 O 0.42689(10) 0.40595(10) 0.69496(6)
O3_3 O 0.46343(11) 0.38599(11) 0.73388(6)
O4_3 O 0.87462(11) 0.58454(12) 0.67469(7)
O5_3 O 0.64833(12) 0.80658(11) 0.78225(5)
N2_3 N 0.58607(10) 0.59436(11) 0.55301(6)
O6_3 O 0.66658(12) 0.76083(11) 0.81660(5)
O7_3 O 0.57475(10) 0.82134(11) 0.82103(6)
O8_3 O 0.59560(10) 0.77742(11) 0.85482(6)
O9_3 O 0.90037(11) 0.63732(11) 0.71547(6)
C1_3 C 0.66550(12) 0.67100(13) 0.72006(8)
C2_3 C 0.40005(14) 0.70360(13) 0.87469(8)
C3_3 C 0.66302(15) 0.75038(14) 0.73522(7)
H1_3 H 0.6636 0.7822 0.7302
C4_3 C 0.60891(13) 0.56478(13) 0.69559(7)
O10_6 O 0.3333 0.6667 0.92432(9)
C5_3 C 0.51614(14) 0.46779(14) 0.70663(8)
C6_3 C 0.72491(13) 0.62349(13) 0.69294(7)
C7_3 C 0.66658(15) 0.71893(13) 0.71243(7)
H2_3 H 0.6696 0.7296 0.6922
C8_3 C 0.65768(14) 0.77055(13) 0.79001(7)
C9_3 C 0.49343(15) 0.72917(15) 0.88038(8)
H3_3 H 0.5203 0.7275 0.8914
C10_3 C 0.81618(14) 0.61345(14) 0.69437(8)
C11_3 C 0.56391(14) 0.78810(13) 0.84207(7)
C12_3 C 0.65852(13) 0.73460(13) 0.76555(7)
C13_3 C 0.50613(14) 0.75858(14) 0.85314(7)
C14_3 C 0.80952(16) 0.64579(17) 0.71585(9)
H4_3 H 0.8356 0.6639 0.7307
C15_3 C 0.56099(15) 0.55508(14) 0.68257(8)
H5_3 H 0.5597 0.5812 0.6706
C16_3 C 0.44115(14) 0.70271(14) 0.89104(8)
H6_3 H 0.4333 0.6841 0.9094
C17_3 C 0.65750(16) 0.68694(15) 0.77298(8)
H7_3 H 0.6549 0.6765 0.7933
C18_3 C 0.51501(15) 0.50607(15) 0.68764(9)
H8_3 H 0.4829 0.4986 0.6783
C19_3 C 0.77643(16) 0.58610(15) 0.67271(8)
H9_3 H 0.7805 0.5642 0.6586
C20_3 C 0.66024(16) 0.65536(15) 0.75024(8)
H10_3 H 0.6585 0.6231 0.7553
C21_3 C 0.61173(15) 0.52675(15) 0.71410(9)
H11_3 H 0.6443 0.5336 0.7224
C22_3 C 0.46600(14) 0.41647(15) 0.71271(8)
C23_3 C 0.86696(15) 0.61083(15) 0.69429(9)
C24_3 C 0.76413(15) 0.65082(16) 0.71506(9)
H12_3 H 0.7597 0.6724 0.7293
C25_3 C 0.73098(15) 0.59085(15) 0.67180(8)
H13_3 H 0.7046 0.5724 0.6572
C26_3 C 0.62982(19) 0.64349(17) 0.53810(8)
H14_3 H 0.6151 0.6643 0.5291
H15_3 H 0.6462 0.6334 0.5220
C27_3 C 0.59955(16) 0.65398(17) 0.59692(9)
H16_3 H 0.6026 0.6886 0.5927
H17_3 H 0.5875 0.6444 0.6179
C28_3 C 0.55768(16) 0.61110(18) 0.57516(9)
H18_3 H 0.5317 0.5802 0.5868
H19_3 H 0.5385 0.6259 0.5643
C29_3 C 0.46509(16) 0.75999(17) 0.83687(8)
H20_3 H 0.4730 0.7793 0.8187
C30_3 C 0.41292(16) 0.73309(18) 0.84745(9)
H21_3 H 0.3860 0.7346 0.8365
C31_3 C 0.61088(18) 0.56767(16) 0.56996(9)
H22_3 H 0.6332 0.5607 0.5563
H23_3 H 0.5829 0.5335 0.5779
C32_3 C 0.67225(19) 0.6774(2) 0.56238(9)
H24_3 H 0.7048 0.6759 0.5587
H25_3 H 0.6811 0.7146 0.5607
C33_3 C 0.6450(2) 0.60304(17) 0.59625(10)
H26_3 H 0.6273 0.5875 0.6155
H27_3 H 0.6796 0.6048 0.5963
C34_3 C 0.56504(14) 0.47864(14) 0.71988(8)
H28_3 H 0.5661 0.4533 0.7327
O11_3 O 0.17866(11) 0.75342(15) 0.82103(6)
O12_3 O 0.22258(11) 0.81819(15) 0.85482(6)
C35_3 C 0.29640(13) 0.69646(19) 0.87469(8)
C36_3 C 0.27083(15) 0.76427(21) 0.88038(8)
H29_3 H 0.2725 0.7929 0.8914
C37_3 C 0.21190(13) 0.77582(19) 0.84207(7)
C38_3 C 0.24142(14) 0.74756(20) 0.85314(7)
C39_3 C 0.29729(14) 0.73845(20) 0.89104(8)
H30_3 H 0.3159 0.7493 0.9094
C40_3 C 0.24001(17) 0.70511(23) 0.83687(8)
H31_3 H 0.2207 0.6938 0.8187
C41_3 C 0.26691(18) 0.67984(24) 0.84745(9)
H32_3 H 0.2654 0.6515 0.8365
O13_3 O 0.24658(15) 0.42525(10) 0.82103(6)
O14_3 O 0.18181(15) 0.40440(10) 0.85482(6)
C42_3 C 0.30354(19) 0.59995(14) 0.87469(8)
C43_3 C 0.23573(21) 0.50657(15) 0.88038(8)
H33_3 H 0.2071 0.4797 0.8914
C44_3 C 0.22418(19) 0.43609(14) 0.84207(7)
C45_3 C 0.25244(20) 0.49387(14) 0.85314(7)
C46_3 C 0.26155(20) 0.55885(14) 0.89104(8)
H34_3 H 0.2507 0.5667 0.9094
C47_3 C 0.29489(23) 0.53491(16) 0.83687(8)
H35_3 H 0.3062 0.5270 0.8187
C48_3 C 0.32016(24) 0.58708(16) 0.84745(9)
H36_3 H 0.3485 0.6140 0.8365
Zn3_3 Zn 0.135136(16) 0.790895(23) 0.811123(8)
N3_3 N 0.34183(11) 0.99494(16) 0.59316(6)
O19_3 O 0.19342(11) 0.84176(16) 0.78225(5)
N4_3 N 0.40564(11) 0.99172(15) 0.55301(6)
O20_3 O 0.23917(11) 0.90576(16) 0.81660(5)
C49_3 C 0.32900(13) 0.99451(18) 0.72006(8)
C50_3 C 0.24962(14) 0.91265(21) 0.73522(7)
H37_3 H 0.2178 0.8815 0.7302
C54_3 C 0.28107(13) 0.94766(20) 0.71243(7)
H38_3 H 0.2704 0.9401 0.6922
C55_3 C 0.22945(13) 0.88714(19) 0.79001(7)
C57_3 C 0.26540(13) 0.92393(18) 0.76555(7)
H40_3 H 0.4188 0.9786 0.6706
C60_3 C 0.31306(15) 0.97057(22) 0.77298(8)
H41_3 H 0.3235 0.9785 0.7933
H42_3 H 0.5014 0.9844 0.6783
C69_3 C 0.35651(17) 0.98634(25) 0.53810(8)
H48_3 H 0.3357 0.9509 0.5291
C70_3 C 0.34602(17) 0.94558(23) 0.59692(9)
H50_3 H 0.3114 0.9141 0.5927
H51_3 H 0.3556 0.9432 0.6179
C71_3 C 0.38890(18) 0.94659(24) 0.57516(9)
H52_3 H 0.4198 0.9516 0.5868
H53_3 H 0.3741 0.9127 0.5643
C73_3 C 0.3226(2) 0.99489(28) 0.56238(9)
H57_3 H 0.2854 0.9666 0.5607
Zn5_3 Zn 0.209105(23) 0.344242(17) 0.811123(8)
N5_3 N 0.00506(16) 0.34690(12) 0.59316(6)
O26_3 O 0.15824(16) 0.35167(12) 0.78225(5)
N6_3 N 0.00828(15) 0.41393(10) 0.55301(6)
O27_3 O 0.09424(16) 0.33342(12) 0.81660(5)
C76_3 C 0.00549(18) 0.33450(12) 0.72006(8)
C77_3 C 0.08735(21) 0.33698(15) 0.73522(7)
H61_3 H 0.1185 0.3364 0.7302
C81_3 C 0.05234(20) 0.33342(15) 0.71243(7)
H62_3 H 0.0599 0.3304 0.6922
C82_3 C 0.11286(19) 0.34232(14) 0.79001(7)
C84_3 C 0.07607(18) 0.34148(13) 0.76555(7)
H64_3 H 0.0214 0.4403 0.6706
C87_3 C 0.02943(22) 0.34250(16) 0.77298(8)
H65_3 H 0.0215 0.3451 0.7933
H66_3 H 0.0156 0.5171 0.6783
C96_3 C 0.01366(25) 0.37018(19) 0.53810(8)
H72_3 H 0.0491 0.3849 0.5291
C97_3 C 0.05442(23) 0.40045(16) 0.59692(9)
H74_3 H 0.0859 0.3974 0.5927
H75_3 H 0.0568 0.4125 0.6179
C98_3 C 0.05341(24) 0.44232(16) 0.57516(9)
H76_3 H 0.0484 0.4683 0.5868
H77_3 H 0.0873 0.4615 0.5643
C100_3 C 0.00511(28) 0.32775(19) 0.56238(9)
H81_3 H 0.0334 0.3189 0.5607
Zn14_3 Zn 0.961884(17) 0.628671(17) 0.706127(9)
O29_3 O 0.23977(10) 0.92739(10) 0.63838(6)
O30_3 O 0.07261(10) 0.31239(14) 0.63838(6)
O31_3 O 0.68761(14) 0.76023(10) 0.63838(6)
O32_3 O 0.79204(11) 0.74880(12) 0.65865(7)
N7_3 N 0.08059(10) 0.73898(11) 0.78033(6)
N8_3 N 0.26102(11) 0.34162(15) 0.78033(6)
N9_3 N 0.65838(15) 0.91941(10) 0.78033(6)
O35_3 O 0.66675(12) 0.90584(11) 0.85007(5)
O36_3 O 0.09416(11) 0.76091(16) 0.85007(5)
O37_3 O 0.23909(16) 0.33325(12) 0.85007(5)
O38_3 O 0.73773(10) 0.88925(11) 0.81185(6)
O39_3 O 0.11075(11) 0.84848(15) 0.81185(6)
O40_3 O 0.15152(15) 0.26227(10) 0.81185(6)
O41_3 O 0.76629(11) 0.69602(11) 0.61787(6)
Zn6_3 Zn 0.999880(24) 0.295218(17) 0.627207(9)
P4_3 P 0.96359(4) 0.33353(3) 0.689706(18)
O22_3 O 0.99009(13) 0.33842(9) 0.65951(5)
O23_3 O 0.97905(14) 0.57311(10) 0.69496(6)
O24_3 O 0.92255(16) 0.53657(11) 0.73388(6)
O25_3 O 0.70991(16) 0.12538(11) 0.67469(7)
O28_3 O 0.73694(16) 0.09963(11) 0.71547(6)
C78_3 C 0.95586(18) 0.39109(13) 0.69559(7)
C79_3 C 0.95164(20) 0.48386(14) 0.70663(8)
C80_3 C 0.89857(18) 0.27509(13) 0.69294(7)
C83_3 C 0.79726(20) 0.18382(14) 0.69437(8)
C85_3 C 0.83626(23) 0.19048(16) 0.71585(9)
H63_3 H 0.8282 0.1644 0.7307
C86_3 C 0.99408(21) 0.43901(15) 0.68257(8)
C88_3 C 0.99105(21) 0.48499(15) 0.68764(9)
C89_3 C 0.80966(22) 0.22357(16) 0.67271(8)
H67_3 H 0.7836 0.2195 0.6586
C90_3 C 0.99511(22) 0.33976(16) 0.75024(8)
H68_3 H 0.9645 0.3415 0.7553
C91_3 C 0.91501(21) 0.38827(15) 0.71410(9)
H69_3 H 0.8892 0.3557 0.7224
C92_3 C 0.95046(21) 0.53400(14) 0.71271(8)
C93_3 C 0.74386(21) 0.13304(15) 0.69429(9)
C94_3 C 0.88668(22) 0.23587(15) 0.71506(9)
H70_3 H 0.9126 0.2403 0.7293
C95_3 C 0.85986(21) 0.26902(15) 0.67180(8)
H71_3 H 0.8677 0.2954 0.6572
H73_3 H 0.9871 0.3538 0.5220
C99_3 C 0.95678(24) 0.38912(18) 0.56996(9)
H78_3 H 0.9274 0.3668 0.5563
H79_3 H 0.9505 0.4171 0.5779
H80_3 H 0.9710 0.2952 0.5587
C101_3 C 0.95800(26) 0.3550(2) 0.59625(10)
H82_3 H 0.9601 0.3727 0.6155
H83_3 H 0.9251 0.3204 0.5963
C102_3 C 0.91359(20) 0.43496(14) 0.71988(8)
H84_3 H 0.8871 0.4339 0.7327
O34_3 O 0.95675(16) 0.20796(11) 0.65865(7)
O43_3 O 0.92972(16) 0.23371(11) 0.61787(6)
O22_4 O 0.34324(13) 0.32825(9) 0.00716(5)
N5_4 N 0.32827(16) 0.31977(12) 0.07351(6)
H67_4 H 0.5497 0.4472 0.0081
H71_4 H 0.4656 0.3713 0.0095
C96_4 C 0.31967(25) 0.29649(19) 0.12857(8)
H72_4 H 0.2842 0.2818 0.1376
H73_4 H 0.3462 0.3129 0.1447
C97_4 C 0.27891(23) 0.26622(16) 0.06975(9)
H74_4 H 0.2474 0.2693 0.0740
H75_4 H 0.2765 0.2542 0.0488
C98_4 C 0.27992(24) 0.22435(16) 0.09151(9)
H76_4 H 0.2849 0.1984 0.0799
H77_4 H 0.2460 0.2052 0.1024
C99_4 C 0.37655(24) 0.27755(18) 0.09671(9)
H78_4 H 0.4059 0.2999 0.1104
H79_4 H 0.3828 0.2496 0.0888
C100_4 C 0.32822(28) 0.33892(19) 0.10429(9)
H80_4 H 0.3623 0.3715 0.1080
H81_4 H 0.2999 0.3478 0.1060
C101_4 C 0.37533(26) 0.3117(2) 0.07042(10)
H82_4 H 0.3732 0.2940 0.0512
H83_4 H 0.4082 0.3463 0.0704
P2_7 P 0.0000 0.0000 0.77618(3)
O10_7 O 0.0000 0.0000 0.74235(9)
H32_4 H 0.0679 0.0152 0.8302
O13_4 O 0.08675(15) 0.24142(10) 0.84564(6)
C42_4 C 0.02979(19) 0.06672(14) 0.79198(8)
C43_4 C 0.09760(21) 0.16010(15) 0.78629(8)
H33_4 H 0.1262 0.1870 0.7753
C44_4 C 0.10915(19) 0.23058(14) 0.82460(7)
C45_4 C 0.08089(20) 0.17280(14) 0.81353(7)
C46_4 C 0.07178(20) 0.10782(14) 0.77563(8)
H34_4 H 0.0826 0.1000 0.7573
C47_4 C 0.03844(23) 0.13176(16) 0.82980(8)
H35_4 H 0.0271 0.1397 0.8480
C48_4 C 0.01317(24) 0.07959(16) 0.81922(9)
P4_4 P 0.36974(4) 0.33314(3) 0.976961(18)
O24_4 O 0.41078(16) 0.13010(11) 0.93279(6)
O26_4 O 0.17509(16) 0.31500(12) 0.88442(5)
C76_4 C 0.32784(18) 0.33217(12) 0.94661(8)
C77_4 C 0.24598(21) 0.32969(15) 0.93145(7)
H61_4 H 0.2148 0.3303 0.9365
C78_4 C 0.37747(18) 0.27558(13) 0.97108(7)
C79_4 C 0.38169(20) 0.18281(14) 0.96004(8)
C80_4 C 0.43476(18) 0.39158(13) 0.97373(7)
C81_4 C 0.28099(20) 0.33325(15) 0.95424(7)
H62_4 H 0.2734 0.3363 0.9745
C82_4 C 0.22047(19) 0.32435(14) 0.87666(7)
C83_4 C 0.53607(20) 0.48285(14) 0.97230(8)
C84_4 C 0.25726(18) 0.32519(13) 0.90112(7)
C85_4 C 0.49707(23) 0.47619(16) 0.95082(9)
H63_4 H 0.5051 0.5023 0.9360
C86_4 C 0.33925(21) 0.22766(15) 0.98410(8)
H64_4 H 0.3119 0.2264 0.9961
C87_4 C 0.30390(22) 0.32417(16) 0.89369(8)
H65_4 H 0.3118 0.3216 0.8734
C88_4 C 0.34228(21) 0.18168(15) 0.97903(9)
H66_4 H 0.3177 0.1496 0.9884
C89_4 C 0.52367(22) 0.44310(16) 0.99396(8)
C90_4 C 0.33822(22) 0.32691(16) 0.91643(8)
H68_4 H 0.3688 0.3252 0.9114
C91_4 C 0.41832(21) 0.27840(15) 0.95257(9)
H69_4 H 0.4441 0.3110 0.9443
C92_4 C 0.38287(21) 0.13267(14) 0.95396(8)
C93_4 C 0.58947(21) 0.53363(15) 0.97238(9)
C94_4 C 0.44665(22) 0.43080(15) 0.95161(9)
H70_4 H 0.4207 0.4264 0.9374
C95_4 C 0.47347(21) 0.39765(15) 0.99487(8)
C102_4 C 0.41974(20) 0.23171(14) 0.94679(8)
H84_4 H 0.4462 0.2328 0.9340
H50_4 H 0.0219 0.7526 0.0740
C73_4 C 0.0107(2) 0.67178(28) 0.10429(9)
H56_4 H 0.0092 0.6377 0.1080
H57_4 H 0.0479 0.7001 0.1060
P2_8 P -0.0000 1.0000 0.77618(3)
O10_8 O -0.0000 1.0000 0.74235(9)
O11_4 O 0.15467(11) 0.91325(15) 0.84564(6)
C35_4 C 0.03693(13) 0.97021(19) 0.79198(8)
C36_4 C 0.06250(15) 0.90240(21) 0.78629(8)
H29_4 H 0.0608 0.8738 0.7753
C37_4 C 0.12143(13) 0.89085(19) 0.82460(7)
C38_4 C 0.09191(14) 0.91911(20) 0.81353(7)
C39_4 C 0.03604(14) 0.92822(20) 0.77563(8)
H30_4 H 0.0174 0.9174 0.7573
C40_4 C 0.09332(17) 0.96156(23) 0.82980(8)
H31_4 H 0.1126 0.9729 0.8480
C41_4 C 0.06642(18) 0.98683(24) 0.81922(9)
O19_4 O 0.13991(11) 0.82491(16) 0.88442(5)
C49_4 C 0.00433(13) 0.67216(18) 0.94661(8)
C50_4 C 0.08371(14) 0.75402(21) 0.93145(7)
H37_4 H 0.1155 0.7852 0.9365
C54_4 C 0.05226(13) 0.71901(20) 0.95424(7)
H38_4 H 0.0629 0.7266 0.9745
C55_4 C 0.10388(13) 0.77953(19) 0.87666(7)
C57_4 C 0.06793(13) 0.74274(18) 0.90112(7)
C60_4 C 0.02027(15) 0.69610(22) 0.89369(8)
H41_4 H 0.0098 0.6882 0.8734
H46_4 H 0.0057 0.5793 0.9374
O1_4 O 0.67175(9) 0.01499(9) 0.00716(5)
N1_4 N 0.68023(12) 0.00850(11) 0.07351(6)
H9_4 H 0.5528 0.1025 0.0081
H13_4 H 0.6287 0.0943 0.0095
C26_4 C 0.70351(19) 0.02318(17) 0.12857(8)
H14_4 H 0.7182 0.0024 0.1376
H15_4 H 0.6871 0.0333 0.1447
C27_4 C 0.73378(16) 0.01269(17) 0.06975(9)
H17_4 H 0.7458 0.0223 0.0488
C28_4 C 0.77565(16) 0.05557(18) 0.09151(9)
H18_4 H 0.8016 0.0865 0.0799
H19_4 H 0.7948 0.0408 0.1024
C31_4 C 0.72245(18) 0.09900(16) 0.09671(9)
H22_4 H 0.7001 0.1060 0.1104
H23_4 H 0.7504 0.1332 0.0888
C33_4 C 0.6883(2) 0.06363(17) 0.07042(10)
H26_4 H 0.7060 0.0792 0.0512
H27_4 H 0.6537 0.0619 0.0704
P1_4 P 0.66686(3) 0.03660(3) 0.976961(18)
P2_9 P 1.0000 0.0000 0.77618(3)
O3_4 O 0.86990(11) 0.28068(11) 0.93279(6)
C4_4 C 0.72442(13) 0.10189(13) 0.97108(7)
O10_9 O 1.0000 0.0000 0.74235(9)
C5_4 C 0.81719(14) 0.19888(14) 0.96004(8)
C6_4 C 0.60842(13) 0.04318(13) 0.97373(7)
C10_4 C 0.51715(14) 0.05322(14) 0.97230(8)
C14_4 C 0.52381(16) 0.02088(17) 0.95082(9)
H4_4 H 0.4977 0.0028 0.9360
C15_4 C 0.77234(15) 0.11159(14) 0.98410(8)
H5_4 H 0.7736 0.0855 0.9961
C18_4 C 0.81832(15) 0.16060(15) 0.97903(9)
H8_4 H 0.8504 0.1681 0.9884
C19_4 C 0.55690(16) 0.08057(15) 0.99396(8)
C20_4 C 0.67309(16) 0.01131(15) 0.91643(8)
H10_4 H 0.6748 0.0436 0.9114
C21_4 C 0.72160(15) 0.13992(15) 0.95257(9)
H11_4 H 0.6890 0.1331 0.9443
C22_4 C 0.86733(14) 0.25020(15) 0.95396(8)
C23_4 C 0.46637(15) 0.05584(15) 0.97238(9)
C24_4 C 0.56920(15) 0.01585(16) 0.95161(9)
C25_4 C 0.60235(15) 0.07582(15) 0.99487(8)
C34_4 C 0.76829(14) 0.18803(14) 0.94679(8)
H28_4 H 0.7672 0.2134 0.9340
H36_4 H 0.9848 0.0527 0.8302
H16_4 H 0.7307 0.9781 0.0740
C32_4 C 0.66108(19) 0.9893(2) 0.10429(9)
H24_4 H 0.6285 0.9908 0.1080
H25_4 H 0.6522 0.9521 0.1060
O15_4 O 0.98501(9) 0.65676(13) 0.00716(5)
N3_4 N 0.99150(11) 0.67173(16) 0.07351(6)
H43_4 H 0.8975 0.4503 0.0081
H47_4 H 0.9057 0.5344 0.0095
C69_4 C 0.97682(17) 0.68033(25) 0.12857(8)
H48_4 H 0.9976 0.7158 0.1376
H49_4 H 0.9667 0.6538 0.1447
C70_4 C 0.98731(17) 0.72109(23) 0.06975(9)
H51_4 H 0.9777 0.7235 0.0488
C71_4 C 0.94443(18) 0.72008(24) 0.09151(9)
H52_4 H 0.9135 0.7151 0.0799
H53_4 H 0.9592 0.7540 0.1024
C72_4 C 0.90100(16) 0.62345(24) 0.09671(9)
H54_4 H 0.8940 0.5941 0.1104
H55_4 H 0.8668 0.6172 0.0888
C74_4 C 0.93637(17) 0.62467(26) 0.07042(10)
H58_4 H 0.9208 0.6268 0.0512
H59_4 H 0.9381 0.5918 0.0704
P2_10 P 1.0000 1.0000 0.77618(3)
O5_4 O 0.68500(12) 0.86009(11) 0.88442(5)
O7_4 O 0.75858(10) 0.84533(11) 0.84564(6)
C1_4 C 0.66783(12) 0.99567(13) 0.94661(8)
C2_4 C 0.93328(14) 0.96307(13) 0.79198(8)
C3_4 C 0.67031(15) 0.91629(14) 0.93145(7)
H1_4 H 0.6697 0.8845 0.9365
O10_10 O 1.0000 1.0000 0.74235(9)
C7_4 C 0.66675(15) 0.94774(13) 0.95424(7)
H2_4 H 0.6637 0.9371 0.9745
C8_4 C 0.67565(14) 0.89612(13) 0.87666(7)
C9_4 C 0.83990(15) 0.93750(15) 0.78629(8)
H3_4 H 0.8130 0.9392 0.7753
C11_4 C 0.76942(14) 0.87857(13) 0.82460(7)
C12_4 C 0.67481(13) 0.93207(13) 0.90112(7)
C13_4 C 0.82720(14) 0.90809(14) 0.81353(7)
C16_4 C 0.89218(14) 0.96396(14) 0.77563(8)
H6_4 H 0.9000 0.9826 0.7573
C17_4 C 0.67583(16) 0.97973(15) 0.89369(8)
H7_4 H 0.6784 0.9902 0.8734
H12_4 H 0.5736 0.9943 0.9374
C29_4 C 0.86824(16) 0.90668(17) 0.82980(8)
H20_4 H 0.8603 0.8874 0.8480
C30_4 C 0.92041(16) 0.93358(18) 0.81922(9)
H21_4 H 0.9473 0.9321 0.8302
P3_4 P 0.96340(3) 0.63026(4) 0.976961(18)
O17_4 O 0.71932(11) 0.58922(16) 0.93279(6)
C51_4 C 0.89811(13) 0.62253(18) 0.97108(7)
C52_4 C 0.80112(14) 0.61831(20) 0.96004(8)
C53_4 C 0.95682(13) 0.56524(18) 0.97373(7)
C56_4 C 0.94678(14) 0.46393(20) 0.97230(8)
C58_4 C 0.97912(17) 0.50293(23) 0.95082(9)
H39_4 H 0.9972 0.4949 0.9360
C59_4 C 0.88841(14) 0.66075(21) 0.98410(8)
H40_4 H 0.9145 0.6881 0.9961
C61_4 C 0.83940(15) 0.65772(21) 0.97903(9)
H42_4 H 0.8319 0.6823 0.9884
C62_4 C 0.91943(15) 0.47633(22) 0.99396(8)
C63_4 C 0.98869(15) 0.66178(22) 0.91643(8)
H44_4 H 0.9564 0.6312 0.9114
C64_4 C 0.86008(15) 0.58168(21) 0.95257(9)
H45_4 H 0.8669 0.5559 0.9443
C65_4 C 0.74980(15) 0.61713(21) 0.95396(8)
C66_4 C 0.94416(15) 0.41053(21) 0.97238(9)
C67_4 C 0.98415(16) 0.55335(22) 0.95161(9)
C68_4 C 0.92418(15) 0.52653(21) 0.99487(8)
C75_4 C 0.81197(14) 0.58026(20) 0.94679(8)
H60_4 H 0.7866 0.5538 0.9340
C80_5 C 0.76809(18) 0.05825(13) 0.64040(7)
H62_5 H 0.6067 0.0030 0.6412
C83_5 C 0.86940(20) 0.14952(14) 0.63897(8)
C85_5 C 0.83040(23) 0.14286(16) 0.61749(9)
H63_5 H 0.8384 0.1690 0.6027
C89_5 C 0.85700(22) 0.10977(16) 0.66063(8)
H67_5 H 0.8830 0.1139 0.6748
C93_5 C 0.92280(21) 0.20030(15) 0.63905(9)
C94_5 C 0.77998(22) 0.09747(15) 0.61828(9)
H70_5 H 0.7540 0.0931 0.6041
C95_5 C 0.80680(21) 0.06432(15) 0.66154(8)
H71_5 H 0.7989 0.0380 0.6762
C100_5 C 0.66155(28) 0.00559(19) 0.77096(9)
H80_5 H 0.6956 0.0382 0.7747
H81_5 H 0.6332 0.0145 0.7727
H83_5 H 0.7415 0.0130 0.7371
P1_5 P 0.00019(3) 0.70327(3) 0.643628(18)
P2_11 P 0.3333 0.6667 0.44285(3)
O1_5 O 0.00508(9) 0.68166(9) 0.67383(5)
N1_5 N 0.01356(12) 0.67517(11) 0.74018(6)
O3_5 O 0.20323(11) 0.94735(11) 0.59946(6)
O5_5 O 0.01833(12) 0.52676(11) 0.55109(5)
O7_5 O 0.09191(10) 0.51200(11) 0.51231(6)
C1_5 C 0.00116(12) 0.66234(13) 0.61328(8)
C2_5 C 0.26661(14) 0.62974(13) 0.45865(8)
C3_5 C 0.00364(15) 0.58296(14) 0.59812(7)
H1_5 H 0.0030 0.5512 0.6032
C4_5 C 0.05775(13) 0.76856(13) 0.63775(7)
O10_11 O 0.3333 0.6667 0.40902(9)
C5_5 C 0.15052(14) 0.86555(14) 0.62671(8)
C7_5 C 0.00008(15) 0.61441(13) 0.62091(7)
C8_5 C 0.00898(14) 0.56279(13) 0.54333(7)
C9_5 C 0.17323(15) 0.60417(15) 0.45296(8)
H3_5 H 0.1463 0.6059 0.4420
C11_5 C 0.10275(14) 0.54524(13) 0.49127(7)
C12_5 C 0.00814(13) 0.59874(13) 0.56779(7)
C13_5 C 0.16053(14) 0.57476(14) 0.48020(7)
C15_5 C 0.10567(15) 0.77826(14) 0.65077(8)
H5_5 H 0.1069 0.7522 0.6628
C16_5 C 0.22551(14) 0.63063(14) 0.44230(8)
H6_5 H 0.2333 0.6493 0.4240
C17_5 C 0.00916(16) 0.64640(15) 0.56036(8)
H7_5 H 0.0117 0.6569 0.5401
C18_5 C 0.15165(15) 0.82727(15) 0.64570(9)
H8_5 H 0.1837 0.8348 0.6551
C20_5 C 0.00642(16) 0.67798(15) 0.58310(8)
H10_5 H 0.0081 0.7103 0.5781
C21_5 C 0.05493(15) 0.80659(15) 0.61924(9)
H11_5 H 0.0223 0.7998 0.6110
C22_5 C 0.20066(14) 0.91687(15) 0.62063(8)
C26_5 C 0.03684(19) 0.68985(17) 0.79524(8)
H14_5 H 0.0515 0.6691 0.8043
H15_5 H 0.0204 0.7000 0.8114
C27_5 C 0.06711(16) 0.67936(17) 0.73642(9)
H16_5 H 0.0640 0.6448 0.7407
H17_5 H 0.0791 0.6890 0.7155
C28_5 C 0.10898(16) 0.72224(18) 0.75818(9)
H18_5 H 0.1349 0.7532 0.7466
H19_5 H 0.1281 0.7075 0.7691
C29_5 C 0.20157(16) 0.57335(17) 0.49647(8)
H20_5 H 0.1936 0.5541 0.5147
C30_5 C 0.25374(16) 0.60025(18) 0.48589(9)
H21_5 H 0.2806 0.5988 0.4969
C31_5 C 0.05578(18) 0.76567(16) 0.76338(9)
H22_5 H 0.0334 0.7727 0.7771
H23_5 H 0.0837 0.7999 0.7555
C33_5 C 0.0216(2) 0.73030(17) 0.73709(10)
H26_5 H 0.0393 0.7459 0.7179
C34_5 C 0.10162(14) 0.85470(14) 0.61346(8)
H28_5 H 0.1005 0.8801 0.6007
O11_5 O 0.48800(11) 0.57992(15) 0.51231(6)
C35_5 C 0.37026(13) 0.63688(19) 0.45865(8)
C36_5 C 0.39583(15) 0.56907(21) 0.45296(8)
H29_5 H 0.3941 0.5405 0.4420
C37_5 C 0.45476(13) 0.55752(19) 0.49127(7)
C38_5 C 0.42524(14) 0.58578(20) 0.48020(7)
C39_5 C 0.36937(14) 0.59489(20) 0.44230(8)
H30_5 H 0.3507 0.5841 0.4240
C40_5 C 0.42665(17) 0.62823(23) 0.49647(8)
H31_5 H 0.4459 0.6396 0.5147
C41_5 C 0.39975(18) 0.65350(24) 0.48589(9)
H32_5 H 0.4012 0.6819 0.4969
O13_5 O 0.42008(15) 0.90809(10) 0.51231(6)
C42_5 C 0.36312(19) 0.73339(14) 0.45865(8)
C43_5 C 0.43093(21) 0.82677(15) 0.45296(8)
H33_5 H 0.4595 0.8537 0.4420
C44_5 C 0.44248(19) 0.89725(14) 0.49127(7)
C45_5 C 0.41422(20) 0.83947(14) 0.48020(7)
C46_5 C 0.40511(20) 0.77449(14) 0.44230(8)
H34_5 H 0.4159 0.7667 0.4240
C47_5 C 0.37177(23) 0.79843(16) 0.49647(8)
H35_5 H 0.3604 0.8064 0.5147
C48_5 C 0.34650(24) 0.74626(16) 0.48589(9)
H36_5 H 0.3181 0.7194 0.4969
P3_5 P 0.29673(3) 0.29693(4) 0.643628(18)
O15_5 O 0.31834(9) 0.32343(13) 0.67383(5)
N3_5 N 0.32483(11) 0.33840(16) 0.74018(6)
O17_5 O 0.05265(11) 0.25589(16) 0.59946(6)
O19_5 O 0.47324(11) 0.49158(16) 0.55109(5)
C49_5 C 0.33766(13) 0.33883(18) 0.61328(8)
C50_5 C 0.41704(14) 0.42069(21) 0.59812(7)
H37_5 H 0.4488 0.4519 0.6032
C51_5 C 0.23144(13) 0.28920(18) 0.63775(7)
C52_5 C 0.13445(14) 0.28498(20) 0.62671(8)
C53_5 C 0.29015(13) 0.23191(18) 0.64040(7)
C54_5 C 0.38559(13) 0.38568(20) 0.62091(7)
H38_5 H 0.3962 0.3933 0.6412
C55_5 C 0.43721(13) 0.44620(19) 0.54333(7)
C56_5 C 0.28011(14) 0.13060(20) 0.63897(8)
C57_5 C 0.40126(13) 0.40941(18) 0.56779(7)
C58_5 C 0.31245(17) 0.16960(23) 0.61749(9)
H39_5 H 0.3305 0.1616 0.6027
C59_5 C 0.22174(14) 0.32742(21) 0.65077(8)
H40_5 H 0.2478 0.3548 0.6628
C60_5 C 0.35360(15) 0.36277(22) 0.56036(8)
H41_5 H 0.3431 0.3549 0.5401
C61_5 C 0.17273(15) 0.32439(21) 0.64570(9)
H42_5 H 0.1652 0.3490 0.6551
C62_5 C 0.25276(15) 0.14300(22) 0.66063(8)
H43_5 H 0.2308 0.1170 0.6748
C63_5 C 0.32202(15) 0.32845(22) 0.58310(8)
H44_5 H 0.2897 0.2979 0.5781
C64_5 C 0.19341(15) 0.24835(21) 0.61924(9)
H45_5 H 0.2002 0.2226 0.6110
C65_5 C 0.08313(15) 0.28380(21) 0.62063(8)
C66_5 C 0.27749(15) 0.07720(21) 0.63905(9)
C67_5 C 0.31748(16) 0.22002(22) 0.61828(9)
H46_5 H 0.3390 0.2460 0.6041
C68_5 C 0.25751(15) 0.19320(21) 0.66154(8)
H47_5 H 0.2390 0.2011 0.6762
C69_5 C 0.31015(17) 0.34700(25) 0.79524(8)
H48_5 H 0.3309 0.3825 0.8043
H49_5 H 0.3000 0.3205 0.8114
C70_5 C 0.32064(17) 0.38776(23) 0.73642(9)
H50_5 H 0.3552 0.4193 0.7407
H51_5 H 0.3110 0.3902 0.7155
C71_5 C 0.27776(18) 0.38675(24) 0.75818(9)
H52_5 H 0.2468 0.3818 0.7466
H53_5 H 0.2925 0.4207 0.7691
C72_5 C 0.23433(16) 0.29012(24) 0.76338(9)
H54_5 H 0.2273 0.2608 0.7771
H55_5 H 0.2001 0.2839 0.7555
C73_5 C 0.3440(2) 0.33845(28) 0.77096(9)
H56_5 H 0.3425 0.3044 0.7747
H57_5 H 0.3812 0.3668 0.7727
C74_5 C 0.26970(17) 0.29134(26) 0.73709(10)
H58_5 H 0.2541 0.2935 0.7179
H59_5 H 0.2714 0.2585 0.7371
C75_5 C 0.14530(14) 0.24693(20) 0.61346(8)
H60_5 H 0.1199 0.2205 0.6007
P4_5 P 0.70307(4) 0.99981(3) 0.643628(18)
O22_5 O 0.67657(13) 0.99492(9) 0.67383(5)
N5_5 N 0.66160(16) 0.98644(12) 0.74018(6)
O24_5 O 0.74411(16) 0.79677(11) 0.59946(6)
O26_5 O 0.50842(16) 0.98167(12) 0.55109(5)
C76_5 C 0.66117(18) 0.99884(12) 0.61328(8)
C77_5 C 0.57931(21) 0.99636(15) 0.59812(7)
H61_5 H 0.5481 0.9970 0.6032
C78_5 C 0.71080(18) 0.94225(13) 0.63775(7)
C79_5 C 0.71502(20) 0.84948(14) 0.62671(8)
C81_5 C 0.61432(20) 0.99992(15) 0.62091(7)
C82_5 C 0.55380(19) 0.99102(14) 0.54333(7)
C84_5 C 0.59059(18) 0.99186(13) 0.56779(7)
C86_5 C 0.67258(21) 0.89433(15) 0.65077(8)
H64_5 H 0.6452 0.8931 0.6628
C87_5 C 0.63723(22) 0.99084(16) 0.56036(8)
H65_5 H 0.6451 0.9883 0.5401
C88_5 C 0.67561(21) 0.84835(15) 0.64570(9)
H66_5 H 0.6510 0.8163 0.6551
C90_5 C 0.67155(22) 0.99358(16) 0.58310(8)
H68_5 H 0.7021 0.9919 0.5781
C91_5 C 0.75165(21) 0.94507(15) 0.61924(9)
H69_5 H 0.7774 0.9777 0.6110
C92_5 C 0.71620(21) 0.79934(14) 0.62063(8)
C96_5 C 0.65300(25) 0.96316(19) 0.79524(8)
H72_5 H 0.6175 0.9485 0.8043
H73_5 H 0.6795 0.9796 0.8114
C97_5 C 0.61224(23) 0.93289(16) 0.73642(9)
H74_5 H 0.5807 0.9360 0.7407
H75_5 H 0.6098 0.9209 0.7155
C98_5 C 0.61325(24) 0.89102(16) 0.75818(9)
H76_5 H 0.6182 0.8651 0.7466
H77_5 H 0.5793 0.8719 0.7691
C99_5 C 0.70988(24) 0.94422(18) 0.76338(9)
H78_5 H 0.7392 0.9666 0.7771
H79_5 H 0.7161 0.9163 0.7555
C101_5 C 0.70866(26) 0.9784(2) 0.73709(10)
H82_5 H 0.7065 0.9607 0.7179
C102_5 C 0.75307(20) 0.89838(14) 0.61346(8)
H84_5 H 0.7795 0.8995 0.6007
C6_5 C 0.94175(13) 0.70985(13) 0.64040(7)
H2_5 H 0.9970 0.6038 0.6412
C10_5 C 0.85048(14) 0.71989(14) 0.63897(8)
C14_5 C 0.85714(16) 0.68755(17) 0.61749(9)
H4_5 H 0.8310 0.6695 0.6027
C19_5 C 0.89023(16) 0.74724(15) 0.66063(8)
H9_5 H 0.8861 0.7692 0.6748
C23_5 C 0.79970(15) 0.72251(15) 0.63905(9)
C24_5 C 0.90253(15) 0.68252(16) 0.61828(9)
H12_5 H 0.9069 0.6610 0.6041
C25_5 C 0.93568(15) 0.74249(15) 0.66154(8)
H13_5 H 0.9620 0.7610 0.6762
C32_5 C 0.99441(19) 0.6560(2) 0.77096(9)
H24_5 H 0.9618 0.6575 0.7747
H25_5 H 0.9855 0.6188 0.7727
H27_5 H 0.9870 0.7286 0.7371
P4_6 P 0.03641(4) 0.66647(3) 0.310294(18)
O22_6 O 0.00991(13) 0.66158(9) 0.34049(5)
O24_6 O 0.07745(16) 0.46343(11) 0.26612(6)
C78_6 C 0.04414(18) 0.60891(13) 0.30441(7)
C79_6 C 0.04836(20) 0.51614(14) 0.29337(8)
C80_6 C 0.10143(18) 0.72491(13) 0.30706(7)
C83_6 C 0.20274(20) 0.81618(14) 0.30563(8)
C85_6 C 0.16374(23) 0.80952(16) 0.28415(9)
H63_6 H 0.1718 0.8356 0.2693
C86_6 C 0.00592(21) 0.56099(15) 0.31743(8)
C88_6 C 0.00895(21) 0.51501(15) 0.31236(9)
C89_6 C 0.19034(22) 0.77643(16) 0.32729(8)
H67_6 H 0.2164 0.7805 0.3414
C90_6 C 0.00489(22) 0.66024(16) 0.24976(8)
H68_6 H 0.0355 0.6585 0.2447
C91_6 C 0.08499(21) 0.61173(15) 0.28590(9)
H69_6 H 0.1108 0.6443 0.2776
C92_6 C 0.04954(21) 0.46600(14) 0.28729(8)
C93_6 C 0.25614(21) 0.86696(15) 0.30571(9)
C94_6 C 0.11332(22) 0.76413(15) 0.28494(9)
H70_6 H 0.0874 0.7597 0.2707
C95_6 C 0.14014(21) 0.73098(15) 0.32820(8)
H71_6 H 0.1323 0.7046 0.3428
H73_6 H 0.0129 0.6462 0.4780
C99_6 C 0.04322(24) 0.61088(18) 0.43004(9)
H78_6 H 0.0726 0.6332 0.4437
H79_6 H 0.0495 0.5829 0.4221
H80_6 H 0.0290 0.7048 0.4413
C101_6 C 0.04200(26) 0.6450(2) 0.40375(10)
H82_6 H 0.0399 0.6273 0.3845
H83_6 H 0.0749 0.6796 0.4037
C102_6 C 0.08641(20) 0.56504(14) 0.28012(8)
H84_6 H 0.1129 0.5661 0.2673
P1_6 P 0.33353(3) 0.36993(3) 0.310294(18)
P2_12 P 0.6667 0.3333 0.10951(3)
O1_6 O 0.33842(9) 0.34832(9) 0.34049(5)
N1_6 N 0.34690(12) 0.34183(11) 0.40684(6)
O3_6 O 0.53657(11) 0.61401(11) 0.26612(6)
O5_6 O 0.35167(12) 0.19342(11) 0.21775(5)
O7_6 O 0.42525(10) 0.17866(11) 0.17897(6)
C1_6 C 0.33450(12) 0.32900(13) 0.27994(8)
C2_6 C 0.59995(14) 0.29640(13) 0.12531(8)
C3_6 C 0.33698(15) 0.24962(14) 0.26478(7)
H1_6 H 0.3364 0.2178 0.2698
C4_6 C 0.39109(13) 0.43522(13) 0.30441(7)
O10_12 O 0.6667 0.3333 0.07568(9)
C5_6 C 0.48386(14) 0.53221(14) 0.29337(8)
C6_6 C 0.27509(13) 0.37651(13) 0.30706(7)
C7_6 C 0.33342(15) 0.28107(13) 0.28757(7)
H2_6 H 0.3304 0.2704 0.3078
C8_6 C 0.34232(14) 0.22945(13) 0.20999(7)
C9_6 C 0.50657(15) 0.27083(15) 0.11962(8)
H3_6 H 0.4797 0.2725 0.1086
C10_6 C 0.18382(14) 0.38655(14) 0.30563(8)
C11_6 C 0.43609(14) 0.21190(13) 0.15793(7)
C12_6 C 0.34148(13) 0.26540(13) 0.23445(7)
C13_6 C 0.49387(14) 0.24142(14) 0.14686(7)
C14_6 C 0.19048(16) 0.35421(17) 0.28415(9)
H4_6 H 0.1644 0.3361 0.2693
C15_6 C 0.43901(15) 0.44492(14) 0.31743(8)
H5_6 H 0.4403 0.4188 0.3294
C16_6 C 0.55885(14) 0.29729(14) 0.10896(8)
H6_6 H 0.5667 0.3159 0.0906
C17_6 C 0.34250(16) 0.31306(15) 0.22702(8)
H7_6 H 0.3451 0.3235 0.2067
C18_6 C 0.48499(15) 0.49393(15) 0.31236(9)
H8_6 H 0.5171 0.5014 0.3217
C19_6 C 0.22357(16) 0.41390(15) 0.32729(8)
H9_6 H 0.2195 0.4358 0.3414
C20_6 C 0.33976(16) 0.34464(15) 0.24976(8)
H10_6 H 0.3415 0.3769 0.2447
C21_6 C 0.38827(15) 0.47325(15) 0.28590(9)
H11_6 H 0.3557 0.4664 0.2776
C22_6 C 0.53400(14) 0.58353(15) 0.28729(8)
C23_6 C 0.13304(15) 0.38917(15) 0.30571(9)
C24_6 C 0.23587(15) 0.34918(16) 0.28494(9)
H12_6 H 0.2403 0.3276 0.2707
C25_6 C 0.26902(15) 0.40915(15) 0.32820(8)
H13_6 H 0.2954 0.4276 0.3428
C26_6 C 0.37018(19) 0.35651(17) 0.46190(8)
H14_6 H 0.3849 0.3357 0.4709
H15_6 H 0.3538 0.3666 0.4780
C27_6 C 0.40045(16) 0.34602(17) 0.40308(9)
H16_6 H 0.3974 0.3114 0.4073
H17_6 H 0.4125 0.3556 0.3821
C28_6 C 0.44232(16) 0.38890(18) 0.42484(9)
H18_6 H 0.4683 0.4198 0.4132
H19_6 H 0.4615 0.3741 0.4357
C29_6 C 0.53491(16) 0.24001(17) 0.16313(8)
H20_6 H 0.5270 0.2207 0.1813
C30_6 C 0.58708(16) 0.26691(18) 0.15255(9)
H21_6 H 0.6140 0.2654 0.1635
C31_6 C 0.38912(18) 0.43233(16) 0.43004(9)
H22_6 H 0.3668 0.4393 0.4437
H23_6 H 0.4171 0.4665 0.4221
C32_6 C 0.32775(19) 0.3226(2) 0.43762(9)
H24_6 H 0.2952 0.3241 0.4413
H25_6 H 0.3189 0.2854 0.4393
C33_6 C 0.3550(2) 0.39696(17) 0.40375(10)
H26_6 H 0.3727 0.4125 0.3845
H27_6 H 0.3204 0.3952 0.4037
C34_6 C 0.43496(14) 0.52136(14) 0.28012(8)
H28_6 H 0.4339 0.5467 0.2673
O11_6 O 0.82134(11) 0.24658(15) 0.17897(6)
C35_6 C 0.70360(13) 0.30354(19) 0.12531(8)
C36_6 C 0.72917(15) 0.23573(21) 0.11962(8)
H29_6 H 0.7275 0.2071 0.1086
C37_6 C 0.78810(13) 0.22418(19) 0.15793(7)
C38_6 C 0.75858(14) 0.25244(20) 0.14686(7)
C39_6 C 0.70271(14) 0.26155(20) 0.10896(8)
H30_6 H 0.6841 0.2507 0.0906
C40_6 C 0.75999(17) 0.29489(23) 0.16313(8)
H31_6 H 0.7793 0.3062 0.1813
C41_6 C 0.73309(18) 0.32016(24) 0.15255(9)
H32_6 H 0.7346 0.3485 0.1635
O13_6 O 0.75342(15) 0.57475(10) 0.17897(6)
C42_6 C 0.69646(19) 0.40005(14) 0.12531(8)
C43_6 C 0.76427(21) 0.49343(15) 0.11962(8)
H33_6 H 0.7929 0.5203 0.1086
C44_6 C 0.77582(19) 0.56391(14) 0.15793(7)
C45_6 C 0.74756(20) 0.50613(14) 0.14686(7)
C46_6 C 0.73845(20) 0.44115(14) 0.10896(8)
H34_6 H 0.7493 0.4333 0.0906
C47_6 C 0.70511(23) 0.46509(16) 0.16313(8)
H35_6 H 0.6938 0.4730 0.1813
C48_6 C 0.67984(24) 0.41292(16) 0.15255(9)
H36_6 H 0.6515 0.3860 0.1635
N3_6 N 0.65817(11) 0.00506(16) 0.40684(6)
O19_6 O 0.80658(11) 0.15824(16) 0.21775(5)
C49_6 C 0.67100(13) 0.00549(18) 0.27994(8)
C50_6 C 0.75038(14) 0.08735(21) 0.26478(7)
H37_6 H 0.7822 0.1185 0.2698
C54_6 C 0.71893(13) 0.05234(20) 0.28757(7)
H38_6 H 0.7296 0.0599 0.3078
C55_6 C 0.77055(13) 0.11286(19) 0.20999(7)
C57_6 C 0.73460(13) 0.07607(18) 0.23445(7)
H40_6 H 0.5812 0.0214 0.3294
C60_6 C 0.68694(15) 0.02943(22) 0.22702(8)
H41_6 H 0.6765 0.0215 0.2067
H42_6 H 0.4986 0.0156 0.3217
C69_6 C 0.64349(17) 0.01366(25) 0.46190(8)
H48_6 H 0.6643 0.0491 0.4709
C70_6 C 0.65398(17) 0.05442(23) 0.40308(9)
H50_6 H 0.6886 0.0859 0.4073
H51_6 H 0.6444 0.0568 0.3821
C71_6 C 0.61110(18) 0.05341(24) 0.42484(9)
H52_6 H 0.5802 0.0484 0.4132
H53_6 H 0.6259 0.0873 0.4357
C73_6 C 0.6774(2) 0.00511(28) 0.43762(9)
H57_6 H 0.7146 0.0334 0.4393
N5_6 N 0.99494(16) 0.65310(12) 0.40684(6)
O26_6 O 0.84176(16) 0.64833(12) 0.21775(5)
C76_6 C 0.99451(18) 0.66550(12) 0.27994(8)
C77_6 C 0.91265(21) 0.66302(15) 0.26478(7)
H61_6 H 0.8815 0.6636 0.2698
C81_6 C 0.94766(20) 0.66658(15) 0.28757(7)
H62_6 H 0.9401 0.6696 0.3078
C82_6 C 0.88714(19) 0.65768(14) 0.20999(7)
C84_6 C 0.92393(18) 0.65852(13) 0.23445(7)
H64_6 H 0.9786 0.5597 0.3294
C87_6 C 0.97057(22) 0.65750(16) 0.22702(8)
H65_6 H 0.9785 0.6549 0.2067
H66_6 H 0.9844 0.4829 0.3217
C96_6 C 0.98634(25) 0.62982(19) 0.46190(8)
H72_6 H 0.9509 0.6151 0.4709
C97_6 C 0.94558(23) 0.59955(16) 0.40308(9)
H74_6 H 0.9141 0.6026 0.4073
H75_6 H 0.9432 0.5875 0.3821
C98_6 C 0.94659(24) 0.55768(16) 0.42484(9)
H76_6 H 0.9516 0.5317 0.4132
H77_6 H 0.9127 0.5385 0.4357
C100_6 C 0.99489(28) 0.67225(19) 0.43762(9)
H81_6 H 0.9666 0.6811 0.4393
P3_6 P 0.63007(3) 0.96359(4) 0.310294(18)
O15_6 O 0.65168(9) 0.99009(13) 0.34049(5)
O17_6 O 0.38599(11) 0.92255(16) 0.26612(6)
C51_6 C 0.56478(13) 0.95586(18) 0.30441(7)
C52_6 C 0.46779(14) 0.95164(20) 0.29337(8)
C53_6 C 0.62349(13) 0.89857(18) 0.30706(7)
C56_6 C 0.61345(14) 0.79726(20) 0.30563(8)
C58_6 C 0.64579(17) 0.83626(23) 0.28415(9)
H39_6 H 0.6639 0.8282 0.2693
C59_6 C 0.55508(14) 0.99408(21) 0.31743(8)
C61_6 C 0.50607(15) 0.99105(21) 0.31236(9)
C62_6 C 0.58610(15) 0.80966(22) 0.32729(8)
H43_6 H 0.5642 0.7836 0.3414
C63_6 C 0.65536(15) 0.99511(22) 0.24976(8)
H44_6 H 0.6231 0.9645 0.2447
C64_6 C 0.52675(15) 0.91501(21) 0.28590(9)
H45_6 H 0.5336 0.8892 0.2776
C65_6 C 0.41647(15) 0.95046(21) 0.28729(8)
C66_6 C 0.61083(15) 0.74386(21) 0.30571(9)
C67_6 C 0.65082(16) 0.88668(22) 0.28494(9)
H46_6 H 0.6724 0.9126 0.2707
C68_6 C 0.59085(15) 0.85986(21) 0.32820(8)
H47_6 H 0.5724 0.8677 0.3428
H49_6 H 0.6334 0.9871 0.4780
C72_6 C 0.56767(16) 0.95678(24) 0.43004(9)
H54_6 H 0.5607 0.9274 0.4437
H55_6 H 0.5335 0.9505 0.4221
H56_6 H 0.6759 0.9710 0.4413
C74_6 C 0.60304(17) 0.95800(26) 0.40375(10)
H58_6 H 0.5875 0.9601 0.3845
H59_6 H 0.6048 0.9251 0.4037
C75_6 C 0.47864(14) 0.91359(20) 0.28012(8)
H60_6 H 0.4533 0.8871 0.2673
loop_
_geom_bond_atom_site_label_1
_geom_bond_atom_site_label_2
_geom_bond_site_symmetry_1
_geom_bond_site_symmetry_2
Zn1 O5 1_555 1_555
P2 C2 1_555 1_555
O5 C8 1_555 1_555
O6 C8 1_555 1_555
O7 Zn1 1_555 1_555
O8 C11 1_555 1_555
C2 C16 1_555 1_555
C3 H1 1_555 1_555
O10 P2 1_555 1_555
C7 C1 1_555 1_555
H2 C7 1_555 1_555
C8 C12 1_555 1_555
C9 H3 1_555 1_555
C11 O7 1_555 1_555
C12 C3 1_555 1_555
C13 C9 1_555 1_555
C16 C9 1_555 1_555
H6 C16 1_555 1_555
C17 C12 1_555 1_555
H7 C17 1_555 1_555
C29 C13 1_555 1_555
H20 C29 1_555 1_555
C30 C2 1_555 1_555
H21 C30 1_555 1_555
O16 C65 1_555 1_555
O17 C65 1_555 1_555
O18 C66 1_555 1_555
O21 C66 1_555 1_555
C51 P3 1_555 1_555
C52 C61 1_555 1_555
C53 P3 1_555 1_555
C56 C58 1_555 1_555
C58 H39 1_555 1_555
C59 C51 1_555 1_555
H40 C59 1_555 1_555
C61 C59 1_555 1_555
H42 C61 1_555 1_555
C62 C56 1_555 1_555
H44 C63 1_555 1_555
C64 C51 1_555 1_555
H45 C64 1_555 1_555
C65 C52 1_555 1_555
C66 C56 1_555 1_555
C67 C53 1_555 1_555
C68 C53 1_555 1_555
C75 C52 1_555 1_555
H60 C75 1_555 1_555
Zn10 O6 1_555 1_555
Zn16 O18 1_555 1_555
Zn18 O16 1_555 1_555
N9 Zn1 1_555 1_555
O35 Zn1 1_555 1_555
O38 Zn1 1_555 1_555
O8 Zn10 1_555 1_555
C3 C7 1_555 1_555
C11 C13 1_555 1_555
C29 C30 1_555 1_555
O21 Zn16 1_555 1_555
C58 C67 1_555 1_555
C62 C68 1_555 1_555
C64 C75 1_555 1_555
H24 C32 1_555 1_555
H25 C32 1_555 1_555
N4 C69 1_555 1_555
C69 H48 1_555 1_555
H49 C69 1_555 1_555
C70 N3 1_555 1_555
H51 C70 1_555 1_555
C71 N4 1_555 1_555
H52 C71 1_555 1_555
H53 C71 1_555 1_555
C72 N4 1_555 1_555
H54 C72 1_555 1_555
H55 C72 1_555 1_555
C74 N3 1_555 1_555
H58 C74 1_555 1_555
H59 C74 1_555 1_555
Zn9 N4 1_555 1_555
O31 Zn2 1_555 1_555
O32 Zn2 1_555 1_555
O41 Zn2 1_555 1_555
C70 C71 1_555 1_555
C72 C74 1_555 1_555
O2 C22 1_555 1_555
O3 C22 1_555 1_555
O4 C23 1_555 1_555
O9 C23 1_555 1_555
C4 P1 1_555 1_555
O10_2 P2_2 1_555 1_555
C5 C18 1_555 1_555
C6 P1 1_555 1_555
C10 C14 1_555 1_555
C14 H4 1_555 1_555
C15 C4 1_555 1_555
H5 C15 1_555 1_555
C18 C15 1_555 1_555
H8 C18 1_555 1_555
C19 C10 1_555 1_555
H10 C20 1_555 1_555
C21 C4 1_555 1_555
H11 C21 1_555 1_555
C22 C5 1_555 1_555
C23 C10 1_555 1_555
C24 C6 1_555 1_555
C25 C6 1_555 1_555
C34 C5 1_555 1_555
H28 C34 1_555 1_555
Zn14 O4 1_555 1_555
Zn16 O2 1_555 1_555
O9 Zn14 1_555 1_555
C14 C24 1_555 1_555
C19 C25 1_555 1_555
C21 C34 1_555 1_555
N2 C26 1_555 1_555
C26 H14 1_555 1_555
H15 C26 1_555 1_555
C27 N1 1_555 1_555
H17 C27 1_555 1_555
C28 N2 1_555 1_555
H18 C28 1_555 1_555
H19 C28 1_555 1_555
C31 N2 1_555 1_555
H22 C31 1_555 1_555
H23 C31 1_555 1_555
C33 N1 1_555 1_555
H26 C33 1_555 1_555
H27 C33 1_555 1_555
Zn8 N2 1_555 1_555
C27 C28 1_555 1_555
C31 C33 1_555 1_555
O10_3 P2_3 1_555 1_555
O11 C37 1_555 1_555
O12 C37 1_555 1_555
C35 P2_3 1_555 1_555
C36 H29 1_555 1_555
C37 C38 1_555 1_555
C38 C36 1_555 1_555
C39 C35 1_555 1_555
H30 C39 1_555 1_555
C40 C38 1_555 1_555
H31 C40 1_555 1_555
C41 C35 1_555 1_555
Zn3 O11 1_555 1_555
O19 Zn3 1_555 1_555
O20 C55 1_555 1_555
C50 H37 1_555 1_555
C54 C49 1_555 1_555
H38 C54 1_555 1_555
C55 O19 1_555 1_555
C57 C50 1_555 1_555
C60 C57 1_555 1_555
H41 C60 1_555 1_555
Zn11 O12 1_555 1_555
N7 Zn3 1_555 1_555
O36 Zn3 1_555 1_555
O39 Zn3 1_555 1_555
C36 C39 1_555 1_555
C40 C41 1_555 1_555
O20 Zn11 1_555 1_555
C50 C54 1_555 1_555
C55 C57 1_555 1_555
H56 C73 1_555 1_555
H57 C73 1_555 1_555
O29 Zn4 1_555 1_555
O33 Zn4 1_555 1_555
O42 Zn4 1_555 1_555
O10_4 P2_4 1_555 1_555
O13 C44 1_555 1_555
O14 C44 1_555 1_555
C42 P2_4 1_555 1_555
C43 H33 1_555 1_555
C44 C45 1_555 1_555
C45 C43 1_555 1_555
C46 C42 1_555 1_555
H34 C46 1_555 1_555
C47 C45 1_555 1_555
H35 C47 1_555 1_555
C48 C42 1_555 1_555
Zn5 O13 1_555 1_555
O23 C92 1_555 1_555
O24 C92 1_555 1_555
O25 C93 1_555 1_555
O26 Zn5 1_555 1_555
O27 C82 1_555 1_555
O28 C93 1_555 1_555
C76 P4 1_555 1_555
C77 H61 1_555 1_555
C78 P4 1_555 1_555
C79 C88 1_555 1_555
C80 P4 1_555 1_555
C81 C76 1_555 1_555
H62 C81 1_555 1_555
C82 O26 1_555 1_555
C83 C85 1_555 1_555
C84 C77 1_555 1_555
C85 H63 1_555 1_555
C86 C78 1_555 1_555
H64 C86 1_555 1_555
C87 C84 1_555 1_555
H65 C87 1_555 1_555
C88 C86 1_555 1_555
H66 C88 1_555 1_555
C89 C83 1_555 1_555
C90 C76 1_555 1_555
H68 C90 1_555 1_555
C91 C78 1_555 1_555
H69 C91 1_555 1_555
C92 C79 1_555 1_555
C93 C83 1_555 1_555
C94 C80 1_555 1_555
H70 C94 1_555 1_555
C95 C80 1_555 1_555
C102 C79 1_555 1_555
H84 C102 1_555 1_555
Zn12 O14 1_555 1_555
Zn14 O23 1_555 1_555
Zn18 O25 1_555 1_555
N8 Zn5 1_555 1_555
O37 Zn5 1_555 1_555
O40 Zn5 1_555 1_555
C43 C46 1_555 1_555
C47 C48 1_555 1_555
O27 Zn12 1_555 1_555
O28 Zn18 1_555 1_555
C77 C81 1_555 1_555
C82 C84 1_555 1_555
C85 C94 1_555 1_555
C87 C90 1_555 1_555
C89 C95 1_555 1_555
C91 C102 1_555 1_555
Zn6 O22 1_555 1_555
N5 Zn6 1_555 1_555
N6 C96 1_555 1_555
C96 H72 1_555 1_555
H73 C96 1_555 1_555
C97 N5 1_555 1_555
H74 C97 1_555 1_555
H75 C97 1_555 1_555
C98 N6 1_555 1_555
H76 C98 1_555 1_555
H77 C98 1_555 1_555
C99 N6 1_555 1_555
H78 C99 1_555 1_555
H79 C99 1_555 1_555
C100 N5 1_555 1_555
H80 C100 1_555 1_555
H81 C100 1_555 1_555
C101 N5 1_555 1_555
H82 C101 1_555 1_555
H83 C101 1_555 1_555
Zn7 N6 1_555 1_555
O30 Zn6 1_555 1_555
O34 Zn6 1_555 1_555
O43 Zn6 1_555 1_555
C96 C100 1_555 1_555
C97 C98 1_555 1_555
C99 C101 1_555 1_555
O4_2 C23_2 1_555 1_555
O9_2 C23_2 1_555 1_555
C10_2 C14_2 1_555 1_555
C14_2 H4_2 1_555 1_555
C19_2 C10_2 1_555 1_555
H9_2 C19_2 1_555 1_555
C23_2 C10_2 1_555 1_555
C24_2 C6_2 1_555 1_555
H12_2 C24_2 1_555 1_555
C25_2 C6_2 1_555 1_555
H13_2 C25_2 1_555 1_555
H24_2 C32_2 1_555 1_555
H25_2 C32_2 1_555 1_555
Zn14_2 O4_2 1_555 1_555
O31_2 Zn2_2 1_555 1_555
O32_2 Zn2_2 1_555 1_555
O41_2 Zn2_2 1_555 1_555
O9_2 Zn14_2 1_555 1_555
C14_2 C24_2 1_555 1_555
C19_2 C25_2 1_555 1_555
Zn1_2 O5_2 1_555 1_555
P1_2 O1_2 1_555 1_555
P2_5 C2_2 1_555 1_555
O2_2 C22_2 1_555 1_555
O3_2 C22_2 1_555 1_555
O5_2 C8_2 1_555 1_555
N2_2 C26_2 1_555 1_555
O6_2 C8_2 1_555 1_555
O7_2 Zn1_2 1_555 1_555
O8_2 C11_2 1_555 1_555
C1_2 P1_2 1_555 1_555
C2_2 C16_2 1_555 1_555
C3_2 H1_2 1_555 1_555
C4_2 P1_2 1_555 1_555
O10_5 P2_5 1_555 1_555
C5_2 C18_2 1_555 1_555
C7_2 C1_2 1_555 1_555
C8_2 C12_2 1_555 1_555
C9_2 H3_2 1_555 1_555
C11_2 O7_2 1_555 1_555
C12_2 C3_2 1_555 1_555
C13_2 C9_2 1_555 1_555
C15_2 C4_2 1_555 1_555
H5_2 C15_2 1_555 1_555
C16_2 C9_2 1_555 1_555
H6_2 C16_2 1_555 1_555
C17_2 C12_2 1_555 1_555
H7_2 C17_2 1_555 1_555
C18_2 C15_2 1_555 1_555
H8_2 C18_2 1_555 1_555
C20_2 C1_2 1_555 1_555
H10_2 C20_2 1_555 1_555
C21_2 C4_2 1_555 1_555
H11_2 C21_2 1_555 1_555
C22_2 C5_2 1_555 1_555
C26_2 H14_2 1_555 1_555
H15_2 C26_2 1_555 1_555
C27_2 N1_2 1_555 1_555
H16_2 C27_2 1_555 1_555
H17_2 C27_2 1_555 1_555
C28_2 N2_2 1_555 1_555
H18_2 C28_2 1_555 1_555
H19_2 C28_2 1_555 1_555
C29_2 C13_2 1_555 1_555
H20_2 C29_2 1_555 1_555
C30_2 C2_2 1_555 1_555
H21_2 C30_2 1_555 1_555
C31_2 N2_2 1_555 1_555
H22_2 C31_2 1_555 1_555
H23_2 C31_2 1_555 1_555
C33_2 N1_2 1_555 1_555
H26_2 C33_2 1_555 1_555
C34_2 C5_2 1_555 1_555
H28_2 C34_2 1_555 1_555
O11_2 C37_2 1_555 1_555
O12_2 C37_2 1_555 1_555
C35_2 P2_5 1_555 1_555
C36_2 H29_2 1_555 1_555
C37_2 C38_2 1_555 1_555
C38_2 C36_2 1_555 1_555
C39_2 C35_2 1_555 1_555
H30_2 C39_2 1_555 1_555
C40_2 C38_2 1_555 1_555
H31_2 C40_2 1_555 1_555
C41_2 C35_2 1_555 1_555
H32_2 C41_2 1_555 1_555
O13_2 C44_2 1_555 1_555
O14_2 C44_2 1_555 1_555
C42_2 P2_5 1_555 1_555
C43_2 H33_2 1_555 1_555
C44_2 C45_2 1_555 1_555
C45_2 C43_2 1_555 1_555
C46_2 C42_2 1_555 1_555
H34_2 C46_2 1_555 1_555
C47_2 C45_2 1_555 1_555
H35_2 C47_2 1_555 1_555
C48_2 C42_2 1_555 1_555
H36_2 C48_2 1_555 1_555
Zn3_2 O11_2 1_555 1_555
Zn4_2 O15_2 1_555 1_555
P3_2 O15_2 1_555 1_555
N3_2 Zn4_2 1_555 1_555
O16_2 C65_2 1_555 1_555
O17_2 C65_2 1_555 1_555
O18_2 C66_2 1_555 1_555
O19_2 Zn3_2 1_555 1_555
N4_2 C69_2 1_555 1_555
O20_2 C55_2 1_555 1_555
O21_2 C66_2 1_555 1_555
C49_2 P3_2 1_555 1_555
C50_2 H37_2 1_555 1_555
C51_2 P3_2 1_555 1_555
C52_2 C61_2 1_555 1_555
C53_2 P3_2 1_555 1_555
C54_2 C49_2 1_555 1_555
H38_2 C54_2 1_555 1_555
C55_2 O19_2 1_555 1_555
C56_2 C58_2 1_555 1_555
C57_2 C50_2 1_555 1_555
C58_2 H39_2 1_555 1_555
C59_2 C51_2 1_555 1_555
H40_2 C59_2 1_555 1_555
C60_2 C57_2 1_555 1_555
H41_2 C60_2 1_555 1_555
C61_2 C59_2 1_555 1_555
H42_2 C61_2 1_555 1_555
C62_2 C56_2 1_555 1_555
H43_2 C62_2 1_555 1_555
C63_2 C49_2 1_555 1_555
H44_2 C63_2 1_555 1_555
C64_2 C51_2 1_555 1_555
H45_2 C64_2 1_555 1_555
C65_2 C52_2 1_555 1_555
C66_2 C56_2 1_555 1_555
C67_2 C53_2 1_555 1_555
H46_2 C67_2 1_555 1_555
C68_2 C53_2 1_555 1_555
H47_2 C68_2 1_555 1_555
C69_2 H48_2 1_555 1_555
H49_2 C69_2 1_555 1_555
C70_2 N3_2 1_555 1_555
H50_2 C70_2 1_555 1_555
H51_2 C70_2 1_555 1_555
C71_2 N4_2 1_555 1_555
H52_2 C71_2 1_555 1_555
H53_2 C71_2 1_555 1_555
C72_2 N4_2 1_555 1_555
H54_2 C72_2 1_555 1_555
H55_2 C72_2 1_555 1_555
C73_2 N3_2 1_555 1_555
H56_2 C73_2 1_555 1_555
H57_2 C73_2 1_555 1_555
C74_2 N3_2 1_555 1_555
H58_2 C74_2 1_555 1_555
H59_2 C74_2 1_555 1_555
C75_2 C52_2 1_555 1_555
H60_2 C75_2 1_555 1_555
Zn5_2 O13_2 1_555 1_555
P4_2 O22_2 1_555 1_555
O23_2 C92_2 1_555 1_555
O24_2 C92_2 1_555 1_555
O26_2 Zn5_2 1_555 1_555
N6_2 C96_2 1_555 1_555
O27_2 C82_2 1_555 1_555
C76_2 P4_2 1_555 1_555
C77_2 H61_2 1_555 1_555
C78_2 P4_2 1_555 1_555
C79_2 C88_2 1_555 1_555
C81_2 C76_2 1_555 1_555
C82_2 O26_2 1_555 1_555
C84_2 C77_2 1_555 1_555
C86_2 C78_2 1_555 1_555
H64_2 C86_2 1_555 1_555
C87_2 C84_2 1_555 1_555
H65_2 C87_2 1_555 1_555
C88_2 C86_2 1_555 1_555
H66_2 C88_2 1_555 1_555
C90_2 C76_2 1_555 1_555
H68_2 C90_2 1_555 1_555
C91_2 C78_2 1_555 1_555
H69_2 C91_2 1_555 1_555
C92_2 C79_2 1_555 1_555
C96_2 H72_2 1_555 1_555
H73_2 C96_2 1_555 1_555
C97_2 N5_2 1_555 1_555
H74_2 C97_2 1_555 1_555
H75_2 C97_2 1_555 1_555
C98_2 N6_2 1_555 1_555
H76_2 C98_2 1_555 1_555
H77_2 C98_2 1_555 1_555
C99_2 N6_2 1_555 1_555
H78_2 C99_2 1_555 1_555
H79_2 C99_2 1_555 1_555
C101_2 N5_2 1_555 1_555
H82_2 C101_2 1_555 1_555
C102_2 C79_2 1_555 1_555
H84_2 C102_2 1_555 1_555
Zn10 N6_2 1_555 1_555
Zn11 N2_2 1_555 1_555
Zn12 N4_2 1_555 1_555
Zn11_2 O12_2 1_555 1_555
Zn14_2 O23_2 1_555 1_555
Zn16_2 O18_2 1_555 1_555
O29_2 Zn4_2 1_555 1_555
O33_2 Zn4_2 1_555 1_555
N7_2 Zn3_2 1_555 1_555
N8_2 Zn5_2 1_555 1_555
N9_2 Zn1_2 1_555 1_555
O36_2 Zn3_2 1_555 1_555
O39_2 Zn3_2 1_555 1_555
O42_2 Zn4_2 1_555 1_555
C3_2 C7_2 1_555 1_555
C11_2 C13_2 1_555 1_555
C17_2 C20_2 1_555 1_555
C21_2 C34_2 1_555 1_555
C27_2 C28_2 1_555 1_555
C29_2 C30_2 1_555 1_555
C31_2 C33_2 1_555 1_555
C36_2 C39_2 1_555 1_555
C40_2 C41_2 1_555 1_555
C43_2 C46_2 1_555 1_555
C47_2 C48_2 1_555 1_555
O20_2 Zn11_2 1_555 1_555
O21_2 Zn16_2 1_555 1_555
C50_2 C54_2 1_555 1_555
C55_2 C57_2 1_555 1_555
C58_2 C67_2 1_555 1_555
C60_2 C63_2 1_555 1_555
C62_2 C68_2 1_555 1_555
C64_2 C75_2 1_555 1_555
C69_2 C73_2 1_555 1_555
C70_2 C71_2 1_555 1_555
C72_2 C74_2 1_555 1_555
C77_2 C81_2 1_555 1_555
C82_2 C84_2 1_555 1_555
C87_2 C90_2 1_555 1_555
C91_2 C102_2 1_555 1_555
C97_2 C98_2 1_555 1_555
C99_2 C101_2 1_555 1_555
O25_2 C93_2 1_555 1_555
O28_2 C93_2 1_555 1_555
C83_2 C85_2 1_555 1_555
C85_2 H63_2 1_555 1_555
C89_2 C83_2 1_555 1_555
H67_2 C89_2 1_555 1_555
C93_2 C83_2 1_555 1_555
C94_2 C80_2 1_555 1_555
H70_2 C94_2 1_555 1_555
C95_2 C80_2 1_555 1_555
H71_2 C95_2 1_555 1_555
H80_2 C100_2 1_555 1_555
H81_2 C100_2 1_555 1_555
Zn18_2 O25_2 1_555 1_555
O30_2 Zn6_2 1_555 1_555
O34_2 Zn6_2 1_555 1_555
O43_2 Zn6_2 1_555 1_555
O28_2 Zn18_2 1_555 1_555
C85_2 C94_2 1_555 1_555
C89_2 C95_2 1_555 1_555
Zn4_3 O15_3 1_555 1_555
P3_3 O15_3 1_555 1_555
O16_3 C65_3 1_555 1_555
O17_3 C65_3 1_555 1_555
O18_3 C66_3 1_555 1_555
O21_3 C66_3 1_555 1_555
C51_3 P3_3 1_555 1_555
C52_3 C61_3 1_555 1_555
C53_3 P3_3 1_555 1_555
C56_3 C58_3 1_555 1_555
C58_3 H39_3 1_555 1_555
C59_3 C51_3 1_555 1_555
C61_3 C59_3 1_555 1_555
C62_3 C56_3 1_555 1_555
H43_3 C62_3 1_555 1_555
H44_3 C63_3 1_555 1_555
C64_3 C51_3 1_555 1_555
H45_3 C64_3 1_555 1_555
C65_3 C52_3 1_555 1_555
C66_3 C56_3 1_555 1_555
C67_3 C53_3 1_555 1_555
H46_3 C67_3 1_555 1_555
C68_3 C53_3 1_555 1_555
H47_3 C68_3 1_555 1_555
H54_3 C72_3 1_555 1_555
H55_3 C72_3 1_555 1_555
H58_3 C74_3 1_555 1_555
H59_3 C74_3 1_555 1_555
C75_3 C52_3 1_555 1_555
H60_3 C75_3 1_555 1_555
Zn16_3 O18_3 1_555 1_555
Zn18_3 O16_3 1_555 1_555
O33_3 Zn4_3 1_555 1_555
O42_3 Zn4_3 1_555 1_555
O21_3 Zn16_3 1_555 1_555
C58_3 C67_3 1_555 1_555
C62_3 C68_3 1_555 1_555
C64_3 C75_3 1_555 1_555
C72_3 C74_3 1_555 1_555
Zn1_3 O5_3 1_555 1_555
Zn2_3 O1_3 1_555 1_555
P1_3 O1_3 1_555 1_555
P2_6 C2_3 1_555 1_555
N1_3 Zn2_3 1_555 1_555
O2_3 C22_3 1_555 1_555
O3_3 C22_3 1_555 1_555
O4_3 C23_3 1_555 1_555
O5_3 C8_3 1_555 1_555
N2_3 C26_3 1_555 1_555
O6_3 C8_3 1_555 1_555
O7_3 Zn1_3 1_555 1_555
O8_3 C11_3 1_555 1_555
O9_3 C23_3 1_555 1_555
C1_3 P1_3 1_555 1_555
C2_3 C16_3 1_555 1_555
C3_3 H1_3 1_555 1_555
C4_3 P1_3 1_555 1_555
O10_6 P2_6 1_555 1_555
C5_3 C18_3 1_555 1_555
C6_3 P1_3 1_555 1_555
C7_3 C1_3 1_555 1_555
H2_3 C7_3 1_555 1_555
C8_3 C12_3 1_555 1_555
C9_3 H3_3 1_555 1_555
C10_3 C14_3 1_555 1_555
C11_3 O7_3 1_555 1_555
C12_3 C3_3 1_555 1_555
C13_3 C9_3 1_555 1_555
C14_3 H4_3 1_555 1_555
C15_3 C4_3 1_555 1_555
H5_3 C15_3 1_555 1_555
C16_3 C9_3 1_555 1_555
H6_3 C16_3 1_555 1_555
C17_3 C12_3 1_555 1_555
H7_3 C17_3 1_555 1_555
C18_3 C15_3 1_555 1_555
H8_3 C18_3 1_555 1_555
C19_3 C10_3 1_555 1_555
H9_3 C19_3 1_555 1_555
C20_3 C1_3 1_555 1_555
H10_3 C20_3 1_555 1_555
C21_3 C4_3 1_555 1_555
H11_3 C21_3 1_555 1_555
C22_3 C5_3 1_555 1_555
C23_3 C10_3 1_555 1_555
C24_3 C6_3 1_555 1_555
H12_3 C24_3 1_555 1_555
C25_3 C6_3 1_555 1_555
H13_3 C25_3 1_555 1_555
C26_3 H14_3 1_555 1_555
H15_3 C26_3 1_555 1_555
C27_3 N1_3 1_555 1_555
H16_3 C27_3 1_555 1_555
H17_3 C27_3 1_555 1_555
C28_3 N2_3 1_555 1_555
H18_3 C28_3 1_555 1_555
H19_3 C28_3 1_555 1_555
C29_3 C13_3 1_555 1_555
H20_3 C29_3 1_555 1_555
C30_3 C2_3 1_555 1_555
H21_3 C30_3 1_555 1_555
C31_3 N2_3 1_555 1_555
H22_3 C31_3 1_555 1_555
H23_3 C31_3 1_555 1_555
C32_3 N1_3 1_555 1_555
H24_3 C32_3 1_555 1_555
H25_3 C32_3 1_555 1_555
C33_3 N1_3 1_555 1_555
H26_3 C33_3 1_555 1_555
H27_3 C33_3 1_555 1_555
C34_3 C5_3 1_555 1_555
H28_3 C34_3 1_555 1_555
O11_3 C37_3 1_555 1_555
O12_3 C37_3 1_555 1_555
C35_3 P2_6 1_555 1_555
C36_3 H29_3 1_555 1_555
C37_3 C38_3 1_555 1_555
C38_3 C36_3 1_555 1_555
C39_3 C35_3 1_555 1_555
H30_3 C39_3 1_555 1_555
C40_3 C38_3 1_555 1_555
H31_3 C40_3 1_555 1_555
C41_3 C35_3 1_555 1_555
H32_3 C41_3 1_555 1_555
O13_3 C44_3 1_555 1_555
O14_3 C44_3 1_555 1_555
C42_3 P2_6 1_555 1_555
C43_3 H33_3 1_555 1_555
C44_3 C45_3 1_555 1_555
C45_3 C43_3 1_555 1_555
C46_3 C42_3 1_555 1_555
H34_3 C46_3 1_555 1_555
C47_3 C45_3 1_555 1_555
H35_3 C47_3 1_555 1_555
C48_3 C42_3 1_555 1_555
H36_3 C48_3 1_555 1_555
Zn3_3 O11_3 1_555 1_555
O19_3 Zn3_3 1_555 1_555
N4_3 C69_3 1_555 1_555
O20_3 C55_3 1_555 1_555
C50_3 H37_3 1_555 1_555
C54_3 C49_3 1_555 1_555
H38_3 C54_3 1_555 1_555
C55_3 O19_3 1_555 1_555
C57_3 C50_3 1_555 1_555
C60_3 C57_3 1_555 1_555
H41_3 C60_3 1_555 1_555
C69_3 H48_3 1_555 1_555
C70_3 N3_3 1_555 1_555
H50_3 C70_3 1_555 1_555
H51_3 C70_3 1_555 1_555
C71_3 N4_3 1_555 1_555
H52_3 C71_3 1_555 1_555
H53_3 C71_3 1_555 1_555
C73_3 N3_3 1_555 1_555
H57_3 C73_3 1_555 1_555
Zn5_3 O13_3 1_555 1_555
O26_3 Zn5_3 1_555 1_555
N6_3 C96_3 1_555 1_555
O27_3 C82_3 1_555 1_555
C77_3 H61_3 1_555 1_555
C81_3 C76_3 1_555 1_555
H62_3 C81_3 1_555 1_555
C82_3 O26_3 1_555 1_555
C84_3 C77_3 1_555 1_555
C87_3 C84_3 1_555 1_555
H65_3 C87_3 1_555 1_555
C96_3 H72_3 1_555 1_555
C97_3 N5_3 1_555 1_555
H74_3 C97_3 1_555 1_555
H75_3 C97_3 1_555 1_555
C98_3 N6_3 1_555 1_555
H76_3 C98_3 1_555 1_555
H77_3 C98_3 1_555 1_555
C100_3 N5_3 1_555 1_555
H81_3 C100_3 1_555 1_555
Zn10_2 N6_3 1_555 1_555
Zn11_2 N2_3 1_555 1_555
Zn12_2 N4_3 1_555 1_555
Zn7 O6_3 1_555 1_555
Zn8 O12_3 1_555 1_555
Zn9 O14_3 1_555 1_555
Zn14_3 O4_3 1_555 1_555
Zn16_3 O2_3 1_555 1_555
O31_3 Zn2_3 1_555 1_555
O32_3 Zn2_3 1_555 1_555
N7_3 Zn3_3 1_555 1_555
N8_3 Zn5_3 1_555 1_555
N9_3 Zn1_3 1_555 1_555
O35_3 Zn1_3 1_555 1_555
O36_3 Zn3_3 1_555 1_555
O37_3 Zn5_3 1_555 1_555
O38_3 Zn1_3 1_555 1_555
O39_3 Zn3_3 1_555 1_555
O40_3 Zn5_3 1_555 1_555
O41_3 Zn2_3 1_555 1_555
O8_3 Zn7 1_555 1_555
O9_3 Zn14_3 1_555 1_555
C3_3 C7_3 1_555 1_555
C11_3 C13_3 1_555 1_555
C14_3 C24_3 1_555 1_555
C17_3 C20_3 1_555 1_555
C19_3 C25_3 1_555 1_555
C21_3 C34_3 1_555 1_555
C26_3 C32_3 1_555 1_555
C27_3 C28_3 1_555 1_555
C29_3 C30_3 1_555 1_555
C31_3 C33_3 1_555 1_555
C36_3 C39_3 1_555 1_555
C40_3 C41_3 1_555 1_555
C43_3 C46_3 1_555 1_555
C47_3 C48_3 1_555 1_555
O20_3 Zn8 1_555 1_555
C50_3 C54_3 1_555 1_555
C55_3 C57_3 1_555 1_555
C69_3 C73_3 1_555 1_555
C70_3 C71_3 1_555 1_555
O27_3 Zn9 1_555 1_555
C77_3 C81_3 1_555 1_555
C82_3 C84_3 1_555 1_555
C96_3 C100_3 1_555 1_555
C97_3 C98_3 1_555 1_555
Zn6_3 O22_3 1_555 1_555
P4_3 O22_3 1_555 1_555
O23_3 C92_3 1_555 1_555
O24_3 C92_3 1_555 1_555
O25_3 C93_3 1_555 1_555
O28_3 C93_3 1_555 1_555
C78_3 P4_3 1_555 1_555
C79_3 C88_3 1_555 1_555
C80_3 P4_3 1_555 1_555
C83_3 C85_3 1_555 1_555
C85_3 H63_3 1_555 1_555
C86_3 C78_3 1_555 1_555
C88_3 C86_3 1_555 1_555
C89_3 C83_3 1_555 1_555
H67_3 C89_3 1_555 1_555
H68_3 C90_3 1_555 1_555
C91_3 C78_3 1_555 1_555
H69_3 C91_3 1_555 1_555
C92_3 C79_3 1_555 1_555
C93_3 C83_3 1_555 1_555
C94_3 C80_3 1_555 1_555
H70_3 C94_3 1_555 1_555
C95_3 C80_3 1_555 1_555
H71_3 C95_3 1_555 1_555
H78_3 C99_3 1_555 1_555
H79_3 C99_3 1_555 1_555
H82_3 C101_3 1_555 1_555
H83_3 C101_3 1_555 1_555
C102_3 C79_3 1_555 1_555
H84_3 C102_3 1_555 1_555
Zn14_3 O23_3 1_555 1_555
Zn18_3 O25_3 1_555 1_555
O34_3 Zn6_3 1_555 1_555
O43_3 Zn6_3 1_555 1_555
O28_3 Zn18_3 1_555 1_555
C85_3 C94_3 1_555 1_555
C89_3 C95_3 1_555 1_555
C91_3 C102_3 1_555 1_555
C99_3 C101_3 1_555 1_555
Zn18 O22_4 1_555 1_555
N5_4 Zn18 1_555 1_555
N9 C96_4 1_555 1_555
C96_4 H72_4 1_555 1_555
H73_4 C96_4 1_555 1_555
C97_4 N5_4 1_555 1_555
H74_4 C97_4 1_555 1_555
H75_4 C97_4 1_555 1_555
C98_4 N9 1_555 1_555
H76_4 C98_4 1_555 1_555
H77_4 C98_4 1_555 1_555
C99_4 N9 1_555 1_555
H78_4 C99_4 1_555 1_555
H79_4 C99_4 1_555 1_555
C100_4 N5_4 1_555 1_555
H80_4 C100_4 1_555 1_555
H81_4 C100_4 1_555 1_555
C101_4 N5_4 1_555 1_555
H82_4 C101_4 1_555 1_555
H83_4 C101_4 1_555 1_555
C96_4 C100_4 1_555 1_555
C97_4 C98_4 1_555 1_555
C99_4 C101_4 1_555 1_555
O10_7 P2_7 1_555 1_555
O13_4 C44_4 1_555 1_555
O40_3 C44_4 1_555 1_555
C42_4 P2_7 1_555 1_555
C43_4 H33_4 1_555 1_555
C44_4 C45_4 1_555 1_555
C45_4 C43_4 1_555 1_555
C46_4 C42_4 1_555 1_555
H34_4 C46_4 1_555 1_555
C47_4 C45_4 1_555 1_555
H35_4 C47_4 1_555 1_555
C48_4 C42_4 1_555 1_555
Zn9 O13_4 1_555 1_555
O31 C92_4 1_555 1_555
O24_4 C92_4 1_555 1_555
O34 C93_4 1_555 1_555
O26_4 Zn9 1_555 1_555
O37_3 C82_4 1_555 1_555
O43 C93_4 1_555 1_555
C76_4 P4_4 1_555 1_555
C77_4 H61_4 1_555 1_555
C78_4 P4_4 1_555 1_555
C79_4 C88_4 1_555 1_555
C80_4 P4_4 1_555 1_555
C81_4 C76_4 1_555 1_555
H62_4 C81_4 1_555 1_555
C82_4 O26_4 1_555 1_555
C83_4 C85_4 1_555 1_555
C84_4 C77_4 1_555 1_555
C85_4 H63_4 1_555 1_555
C86_4 C78_4 1_555 1_555
H64_4 C86_4 1_555 1_555
C87_4 C84_4 1_555 1_555
H65_4 C87_4 1_555 1_555
C88_4 C86_4 1_555 1_555
H66_4 C88_4 1_555 1_555
C89_4 C83_4 1_555 1_555
C90_4 C76_4 1_555 1_555
H68_4 C90_4 1_555 1_555
C91_4 C78_4 1_555 1_555
H69_4 C91_4 1_555 1_555
C92_4 C79_4 1_555 1_555
C93_4 C83_4 1_555 1_555
C94_4 C80_4 1_555 1_555
H70_4 C94_4 1_555 1_555
C95_4 C80_4 1_555 1_555
C102_4 C79_4 1_555 1_555
H84_4 C102_4 1_555 1_555
C43_4 C46_4 1_555 1_555
C47_4 C48_4 1_555 1_555
C77_4 C81_4 1_555 1_555
C82_4 C84_4 1_555 1_555
C85_4 C94_4 1_555 1_555
C87_4 C90_4 1_555 1_555
C89_4 C95_4 1_555 1_555
C91_4 C102_4 1_555 1_555
H56_4 C73_4 1_555 1_555
H57_4 C73_4 1_555 1_555
O10_8 P2_8 1_555 1_555
O11_4 C37_4 1_555 1_555
O39_3 C37_4 1_555 1_555
C35_4 P2_8 1_555 1_555
C36_4 H29_4 1_555 1_555
C37_4 C38_4 1_555 1_555
C38_4 C36_4 1_555 1_555
C39_4 C35_4 1_555 1_555
H30_4 C39_4 1_555 1_555
C40_4 C38_4 1_555 1_555
H31_4 C40_4 1_555 1_555
C41_4 C35_4 1_555 1_555
Zn8 O11_4 1_555 1_555
O19_4 Zn8 1_555 1_555
O36_3 C55_4 1_555 1_555
C50_4 H37_4 1_555 1_555
C54_4 C49_4 1_555 1_555
H38_4 C54_4 1_555 1_555
C55_4 O19_4 1_555 1_555
C57_4 C50_4 1_555 1_555
C60_4 C57_4 1_555 1_555
H41_4 C60_4 1_555 1_555
C36_4 C39_4 1_555 1_555
C40_4 C41_4 1_555 1_555
C50_4 C54_4 1_555 1_555
C55_4 C57_4 1_555 1_555
N7 C26_4 1_555 1_555
C26_4 H14_4 1_555 1_555
H15_4 C26_4 1_555 1_555
C27_4 N1_4 1_555 1_555
H17_4 C27_4 1_555 1_555
C28_4 N7 1_555 1_555
H18_4 C28_4 1_555 1_555
H19_4 C28_4 1_555 1_555
C31_4 N7 1_555 1_555
H22_4 C31_4 1_555 1_555
H23_4 C31_4 1_555 1_555
C33_4 N1_4 1_555 1_555
H26_4 C33_4 1_555 1_555
H27_4 C33_4 1_555 1_555
C27_4 C28_4 1_555 1_555
C31_4 C33_4 1_555 1_555
O29 C22_4 1_555 1_555
O3_4 C22_4 1_555 1_555
O32 C23_4 1_555 1_555
O41 C23_4 1_555 1_555
C4_4 P1_4 1_555 1_555
O10_9 P2_9 1_555 1_555
C5_4 C18_4 1_555 1_555
C6_4 P1_4 1_555 1_555
C10_4 C14_4 1_555 1_555
C14_4 H4_4 1_555 1_555
C15_4 C4_4 1_555 1_555
H5_4 C15_4 1_555 1_555
C18_4 C15_4 1_555 1_555
H8_4 C18_4 1_555 1_555
C19_4 C10_4 1_555 1_555
H10_4 C20_4 1_555 1_555
C21_4 C4_4 1_555 1_555
H11_4 C21_4 1_555 1_555
C22_4 C5_4 1_555 1_555
C23_4 C10_4 1_555 1_555
C24_4 C6_4 1_555 1_555
C25_4 C6_4 1_555 1_555
C34_4 C5_4 1_555 1_555
H28_4 C34_4 1_555 1_555
C14_4 C24_4 1_555 1_555
C19_4 C25_4 1_555 1_555
C21_4 C34_4 1_555 1_555
H24_4 C32_4 1_555 1_555
H25_4 C32_4 1_555 1_555
N8 C69_4 1_555 1_555
C69_4 H48_4 1_555 1_555
H49_4 C69_4 1_555 1_555
C70_4 N3_4 1_555 1_555
H51_4 C70_4 1_555 1_555
C71_4 N8 1_555 1_555
H52_4 C71_4 1_555 1_555
H53_4 C71_4 1_555 1_555
C72_4 N8 1_555 1_555
H54_4 C72_4 1_555 1_555
H55_4 C72_4 1_555 1_555
C74_4 N3_4 1_555 1_555
H58_4 C74_4 1_555 1_555
H59_4 C74_4 1_555 1_555
C70_4 C71_4 1_555 1_555
C72_4 C74_4 1_555 1_555
Zn7 O5_4 1_555 1_555
P2_10 C2_4 1_555 1_555
O5_4 C8_4 1_555 1_555
O35_3 C8_4 1_555 1_555
O7_4 Zn7 1_555 1_555
O38_3 C11_4 1_555 1_555
C2_4 C16_4 1_555 1_555
C3_4 H1_4 1_555 1_555
O10_10 P2_10 1_555 1_555
C7_4 C1_4 1_555 1_555
H2_4 C7_4 1_555 1_555
C8_4 C12_4 1_555 1_555
C9_4 H3_4 1_555 1_555
C11_4 O7_4 1_555 1_555
C12_4 C3_4 1_555 1_555
C13_4 C9_4 1_555 1_555
C16_4 C9_4 1_555 1_555
H6_4 C16_4 1_555 1_555
C17_4 C12_4 1_555 1_555
H7_4 C17_4 1_555 1_555
C29_4 C13_4 1_555 1_555
H20_4 C29_4 1_555 1_555
C30_4 C2_4 1_555 1_555
H21_4 C30_4 1_555 1_555
O30 C65_4 1_555 1_555
O17_4 C65_4 1_555 1_555
O33 C66_4 1_555 1_555
O42 C66_4 1_555 1_555
C51_4 P3_4 1_555 1_555
C52_4 C61_4 1_555 1_555
C53_4 P3_4 1_555 1_555
C56_4 C58_4 1_555 1_555
C58_4 H39_4 1_555 1_555
C59_4 C51_4 1_555 1_555
H40_4 C59_4 1_555 1_555
C61_4 C59_4 1_555 1_555
H42_4 C61_4 1_555 1_555
C62_4 C56_4 1_555 1_555
H44_4 C63_4 1_555 1_555
C64_4 C51_4 1_555 1_555
H45_4 C64_4 1_555 1_555
C65_4 C52_4 1_555 1_555
C66_4 C56_4 1_555 1_555
C67_4 C53_4 1_555 1_555
C68_4 C53_4 1_555 1_555
C75_4 C52_4 1_555 1_555
H60_4 C75_4 1_555 1_555
C3_4 C7_4 1_555 1_555
C11_4 C13_4 1_555 1_555
C29_4 C30_4 1_555 1_555
C58_4 C67_4 1_555 1_555
C62_4 C68_4 1_555 1_555
C64_4 C75_4 1_555 1_555
O34_3 C93_5 1_555 1_555
O43_3 C93_5 1_555 1_555
C83_5 C85_5 1_555 1_555
C85_5 H63_5 1_555 1_555
C89_5 C83_5 1_555 1_555
H67_5 C89_5 1_555 1_555
C93_5 C83_5 1_555 1_555
C94_5 C80_5 1_555 1_555
H70_5 C94_5 1_555 1_555
C95_5 C80_5 1_555 1_555
H71_5 C95_5 1_555 1_555
H80_5 C100_5 1_555 1_555
H81_5 C100_5 1_555 1_555
C85_5 C94_5 1_555 1_555
C89_5 C95_5 1_555 1_555
Zn10_2 O5_5 1_555 1_555
P1_5 O1_5 1_555 1_555
P2_11 C2_5 1_555 1_555
O29_3 C22_5 1_555 1_555
O3_5 C22_5 1_555 1_555
O5_5 C8_5 1_555 1_555
N7_3 C26_5 1_555 1_555
O35_2 C8_5 1_555 1_555
O7_5 Zn10_2 1_555 1_555
O38_2 C11_5 1_555 1_555
C1_5 P1_5 1_555 1_555
C2_5 C16_5 1_555 1_555
C3_5 H1_5 1_555 1_555
C4_5 P1_5 1_555 1_555
O10_11 P2_11 1_555 1_555
C5_5 C18_5 1_555 1_555
C7_5 C1_5 1_555 1_555
C8_5 C12_5 1_555 1_555
C9_5 H3_5 1_555 1_555
C11_5 O7_5 1_555 1_555
C12_5 C3_5 1_555 1_555
C13_5 C9_5 1_555 1_555
C15_5 C4_5 1_555 1_555
H5_5 C15_5 1_555 1_555
C16_5 C9_5 1_555 1_555
H6_5 C16_5 1_555 1_555
C17_5 C12_5 1_555 1_555
H7_5 C17_5 1_555 1_555
C18_5 C15_5 1_555 1_555
H8_5 C18_5 1_555 1_555
C20_5 C1_5 1_555 1_555
H10_5 C20_5 1_555 1_555
C21_5 C4_5 1_555 1_555
H11_5 C21_5 1_555 1_555
C22_5 C5_5 1_555 1_555
C26_5 H14_5 1_555 1_555
H15_5 C26_5 1_555 1_555
C27_5 N1_5 1_555 1_555
H16_5 C27_5 1_555 1_555
H17_5 C27_5 1_555 1_555
C28_5 N7_3 1_555 1_555
H18_5 C28_5 1_555 1_555
H19_5 C28_5 1_555 1_555
C29_5 C13_5 1_555 1_555
H20_5 C29_5 1_555 1_555
C30_5 C2_5 1_555 1_555
H21_5 C30_5 1_555 1_555
C31_5 N7_3 1_555 1_555
H22_5 C31_5 1_555 1_555
H23_5 C31_5 1_555 1_555
C33_5 N1_5 1_555 1_555
H26_5 C33_5 1_555 1_555
C34_5 C5_5 1_555 1_555
H28_5 C34_5 1_555 1_555
O11_5 C37_5 1_555 1_555
O39_2 C37_5 1_555 1_555
C35_5 P2_11 1_555 1_555
C36_5 H29_5 1_555 1_555
C37_5 C38_5 1_555 1_555
C38_5 C36_5 1_555 1_555
C39_5 C35_5 1_555 1_555
H30_5 C39_5 1_555 1_555
C40_5 C38_5 1_555 1_555
H31_5 C40_5 1_555 1_555
C41_5 C35_5 1_555 1_555
H32_5 C41_5 1_555 1_555
O13_5 C44_5 1_555 1_555
O40_2 C44_5 1_555 1_555
C42_5 P2_11 1_555 1_555
C43_5 H33_5 1_555 1_555
C44_5 C45_5 1_555 1_555
C45_5 C43_5 1_555 1_555
C46_5 C42_5 1_555 1_555
H34_5 C46_5 1_555 1_555
C47_5 C45_5 1_555 1_555
H35_5 C47_5 1_555 1_555
C48_5 C42_5 1_555 1_555
H36_5 C48_5 1_555 1_555
Zn11_2 O11_5 1_555 1_555
Zn16_3 O15_5 1_555 1_555
P3_5 O15_5 1_555 1_555
N3_5 Zn16_3 1_555 1_555
O30_3 C65_5 1_555 1_555
O17_5 C65_5 1_555 1_555
O33_3 C66_5 1_555 1_555
O19_5 Zn11_2 1_555 1_555
N8_3 C69_5 1_555 1_555
O36_2 C55_5 1_555 1_555
O42_3 C66_5 1_555 1_555
C49_5 P3_5 1_555 1_555
C50_5 H37_5 1_555 1_555
C51_5 P3_5 1_555 1_555
C52_5 C61_5 1_555 1_555
C53_5 P3_5 1_555 1_555
C54_5 C49_5 1_555 1_555
H38_5 C54_5 1_555 1_555
C55_5 O19_5 1_555 1_555
C56_5 C58_5 1_555 1_555
C57_5 C50_5 1_555 1_555
C58_5 H39_5 1_555 1_555
C59_5 C51_5 1_555 1_555
H40_5 C59_5 1_555 1_555
C60_5 C57_5 1_555 1_555
H41_5 C60_5 1_555 1_555
C61_5 C59_5 1_555 1_555
H42_5 C61_5 1_555 1_555
C62_5 C56_5 1_555 1_555
H43_5 C62_5 1_555 1_555
C63_5 C49_5 1_555 1_555
H44_5 C63_5 1_555 1_555
C64_5 C51_5 1_555 1_555
H45_5 C64_5 1_555 1_555
C65_5 C52_5 1_555 1_555
C66_5 C56_5 1_555 1_555
C67_5 C53_5 1_555 1_555
H46_5 C67_5 1_555 1_555
C68_5 C53_5 1_555 1_555
H47_5 C68_5 1_555 1_555
C69_5 H48_5 1_555 1_555
H49_5 C69_5 1_555 1_555
C70_5 N3_5 1_555 1_555
H50_5 C70_5 1_555 1_555
H51_5 C70_5 1_555 1_555
C71_5 N8_3 1_555 1_555
H52_5 C71_5 1_555 1_555
H53_5 C71_5 1_555 1_555
C72_5 N8_3 1_555 1_555
H54_5 C72_5 1_555 1_555
H55_5 C72_5 1_555 1_555
C73_5 N3_5 1_555 1_555
H56_5 C73_5 1_555 1_555
H57_5 C73_5 1_555 1_555
C74_5 N3_5 1_555 1_555
H58_5 C74_5 1_555 1_555
H59_5 C74_5 1_555 1_555
C75_5 C52_5 1_555 1_555
H60_5 C75_5 1_555 1_555
Zn12_2 O13_5 1_555 1_555
P4_5 O22_5 1_555 1_555
O31_3 C92_5 1_555 1_555
O24_5 C92_5 1_555 1_555
O26_5 Zn12_2 1_555 1_555
N9_3 C96_5 1_555 1_555
O37_2 C82_5 1_555 1_555
C76_5 P4_5 1_555 1_555
C77_5 H61_5 1_555 1_555
C78_5 P4_5 1_555 1_555
C79_5 C88_5 1_555 1_555
C81_5 C76_5 1_555 1_555
C82_5 O26_5 1_555 1_555
C84_5 C77_5 1_555 1_555
C86_5 C78_5 1_555 1_555
H64_5 C86_5 1_555 1_555
C87_5 C84_5 1_555 1_555
H65_5 C87_5 1_555 1_555
C88_5 C86_5 1_555 1_555
H66_5 C88_5 1_555 1_555
C90_5 C76_5 1_555 1_555
H68_5 C90_5 1_555 1_555
C91_5 C78_5 1_555 1_555
H69_5 C91_5 1_555 1_555
C92_5 C79_5 1_555 1_555
C96_5 H72_5 1_555 1_555
H73_5 C96_5 1_555 1_555
C97_5 N5_5 1_555 1_555
H74_5 C97_5 1_555 1_555
H75_5 C97_5 1_555 1_555
C98_5 N9_3 1_555 1_555
H76_5 C98_5 1_555 1_555
H77_5 C98_5 1_555 1_555
C99_5 N9_3 1_555 1_555
H78_5 C99_5 1_555 1_555
H79_5 C99_5 1_555 1_555
C101_5 N5_5 1_555 1_555
H82_5 C101_5 1_555 1_555
C102_5 C79_5 1_555 1_555
H84_5 C102_5 1_555 1_555
C3_5 C7_5 1_555 1_555
C11_5 C13_5 1_555 1_555
C17_5 C20_5 1_555 1_555
C21_5 C34_5 1_555 1_555
C27_5 C28_5 1_555 1_555
C29_5 C30_5 1_555 1_555
C31_5 C33_5 1_555 1_555
C36_5 C39_5 1_555 1_555
C40_5 C41_5 1_555 1_555
C43_5 C46_5 1_555 1_555
C47_5 C48_5 1_555 1_555
C50_5 C54_5 1_555 1_555
C55_5 C57_5 1_555 1_555
C58_5 C67_5 1_555 1_555
C60_5 C63_5 1_555 1_555
C62_5 C68_5 1_555 1_555
C64_5 C75_5 1_555 1_555
C69_5 C73_5 1_555 1_555
C70_5 C71_5 1_555 1_555
C72_5 C74_5 1_555 1_555
C77_5 C81_5 1_555 1_555
C82_5 C84_5 1_555 1_555
C87_5 C90_5 1_555 1_555
C91_5 C102_5 1_555 1_555
C97_5 C98_5 1_555 1_555
C99_5 C101_5 1_555 1_555
O32_3 C23_5 1_555 1_555
O41_3 C23_5 1_555 1_555
C10_5 C14_5 1_555 1_555
C14_5 H4_5 1_555 1_555
C19_5 C10_5 1_555 1_555
H9_5 C19_5 1_555 1_555
C23_5 C10_5 1_555 1_555
C24_5 C6_5 1_555 1_555
H12_5 C24_5 1_555 1_555
C25_5 C6_5 1_555 1_555
H13_5 C25_5 1_555 1_555
H24_5 C32_5 1_555 1_555
H25_5 C32_5 1_555 1_555
C14_5 C24_5 1_555 1_555
C19_5 C25_5 1_555 1_555
Zn18_2 O22_6 1_555 1_555
P4_6 O22_6 1_555 1_555
O31_2 C92_6 1_555 1_555
O24_6 C92_6 1_555 1_555
O34_2 C93_6 1_555 1_555
O43_2 C93_6 1_555 1_555
C78_6 P4_6 1_555 1_555
C79_6 C88_6 1_555 1_555
C80_6 P4_6 1_555 1_555
C83_6 C85_6 1_555 1_555
C85_6 H63_6 1_555 1_555
C86_6 C78_6 1_555 1_555
C88_6 C86_6 1_555 1_555
C89_6 C83_6 1_555 1_555
H67_6 C89_6 1_555 1_555
H68_6 C90_6 1_555 1_555
C91_6 C78_6 1_555 1_555
H69_6 C91_6 1_555 1_555
C92_6 C79_6 1_555 1_555
C93_6 C83_6 1_555 1_555
C94_6 C80_6 1_555 1_555
H70_6 C94_6 1_555 1_555
C95_6 C80_6 1_555 1_555
H71_6 C95_6 1_555 1_555
H78_6 C99_6 1_555 1_555
H79_6 C99_6 1_555 1_555
H82_6 C101_6 1_555 1_555
H83_6 C101_6 1_555 1_555
C102_6 C79_6 1_555 1_555
H84_6 C102_6 1_555 1_555
C85_6 C94_6 1_555 1_555
C89_6 C95_6 1_555 1_555
C91_6 C102_6 1_555 1_555
C99_6 C101_6 1_555 1_555
Zn10 O5_6 1_555 1_555
Zn14_2 O1_6 1_555 1_555
P1_6 O1_6 1_555 1_555
P2_12 C2_6 1_555 1_555
N1_6 Zn14_2 1_555 1_555
O29_2 C22_6 1_555 1_555
O3_6 C22_6 1_555 1_555
O32_2 C23_6 1_555 1_555
O5_6 C8_6 1_555 1_555
N7_2 C26_6 1_555 1_555
O35 C8_6 1_555 1_555
O7_6 Zn10 1_555 1_555
O38 C11_6 1_555 1_555
O41_2 C23_6 1_555 1_555
C1_6 P1_6 1_555 1_555
C2_6 C16_6 1_555 1_555
C3_6 H1_6 1_555 1_555
C4_6 P1_6 1_555 1_555
O10_12 P2_12 1_555 1_555
C5_6 C18_6 1_555 1_555
C6_6 P1_6 1_555 1_555
C7_6 C1_6 1_555 1_555
H2_6 C7_6 1_555 1_555
C8_6 C12_6 1_555 1_555
C9_6 H3_6 1_555 1_555
C10_6 C14_6 1_555 1_555
C11_6 O7_6 1_555 1_555
C12_6 C3_6 1_555 1_555
C13_6 C9_6 1_555 1_555
C14_6 H4_6 1_555 1_555
C15_6 C4_6 1_555 1_555
H5_6 C15_6 1_555 1_555
C16_6 C9_6 1_555 1_555
H6_6 C16_6 1_555 1_555
C17_6 C12_6 1_555 1_555
H7_6 C17_6 1_555 1_555
C18_6 C15_6 1_555 1_555
H8_6 C18_6 1_555 1_555
C19_6 C10_6 1_555 1_555
H9_6 C19_6 1_555 1_555
C20_6 C1_6 1_555 1_555
H10_6 C20_6 1_555 1_555
C21_6 C4_6 1_555 1_555
H11_6 C21_6 1_555 1_555
C22_6 C5_6 1_555 1_555
C23_6 C10_6 1_555 1_555
C24_6 C6_6 1_555 1_555
H12_6 C24_6 1_555 1_555
C25_6 C6_6 1_555 1_555
H13_6 C25_6 1_555 1_555
C26_6 H14_6 1_555 1_555
H15_6 C26_6 1_555 1_555
C27_6 N1_6 1_555 1_555
H16_6 C27_6 1_555 1_555
H17_6 C27_6 1_555 1_555
C28_6 N7_2 1_555 1_555
H18_6 C28_6 1_555 1_555
H19_6 C28_6 1_555 1_555
C29_6 C13_6 1_555 1_555
H20_6 C29_6 1_555 1_555
C30_6 C2_6 1_555 1_555
H21_6 C30_6 1_555 1_555
C31_6 N7_2 1_555 1_555
H22_6 C31_6 1_555 1_555
H23_6 C31_6 1_555 1_555
C32_6 N1_6 1_555 1_555
H24_6 C32_6 1_555 1_555
H25_6 C32_6 1_555 1_555
C33_6 N1_6 1_555 1_555
H26_6 C33_6 1_555 1_555
H27_6 C33_6 1_555 1_555
C34_6 C5_6 1_555 1_555
H28_6 C34_6 1_555 1_555
O11_6 C37_6 1_555 1_555
O39 C37_6 1_555 1_555
C35_6 P2_12 1_555 1_555
C36_6 H29_6 1_555 1_555
C37_6 C38_6 1_555 1_555
C38_6 C36_6 1_555 1_555
C39_6 C35_6 1_555 1_555
H30_6 C39_6 1_555 1_555
C40_6 C38_6 1_555 1_555
H31_6 C40_6 1_555 1_555
C41_6 C35_6 1_555 1_555
H32_6 C41_6 1_555 1_555
O13_6 C44_6 1_555 1_555
O40 C44_6 1_555 1_555
C42_6 P2_12 1_555 1_555
C43_6 H33_6 1_555 1_555
C44_6 C45_6 1_555 1_555
C45_6 C43_6 1_555 1_555
C46_6 C42_6 1_555 1_555
H34_6 C46_6 1_555 1_555
C47_6 C45_6 1_555 1_555
H35_6 C47_6 1_555 1_555
C48_6 C42_6 1_555 1_555
H36_6 C48_6 1_555 1_555
Zn11 O11_6 1_555 1_555
O19_6 Zn11 1_555 1_555
N8_2 C69_6 1_555 1_555
O36 C55_6 1_555 1_555
C50_6 H37_6 1_555 1_555
C54_6 C49_6 1_555 1_555
H38_6 C54_6 1_555 1_555
C55_6 O19_6 1_555 1_555
C57_6 C50_6 1_555 1_555
C60_6 C57_6 1_555 1_555
H41_6 C60_6 1_555 1_555
C69_6 H48_6 1_555 1_555
C70_6 N3_6 1_555 1_555
H50_6 C70_6 1_555 1_555
H51_6 C70_6 1_555 1_555
C71_6 N8_2 1_555 1_555
H52_6 C71_6 1_555 1_555
H53_6 C71_6 1_555 1_555
C73_6 N3_6 1_555 1_555
H57_6 C73_6 1_555 1_555
Zn12 O13_6 1_555 1_555
O26_6 Zn12 1_555 1_555
N9_2 C96_6 1_555 1_555
O37 C82_6 1_555 1_555
C77_6 H61_6 1_555 1_555
C81_6 C76_6 1_555 1_555
H62_6 C81_6 1_555 1_555
C82_6 O26_6 1_555 1_555
C84_6 C77_6 1_555 1_555
C87_6 C84_6 1_555 1_555
H65_6 C87_6 1_555 1_555
C96_6 H72_6 1_555 1_555
C97_6 N5_6 1_555 1_555
H74_6 C97_6 1_555 1_555
H75_6 C97_6 1_555 1_555
C98_6 N9_2 1_555 1_555
H76_6 C98_6 1_555 1_555
H77_6 C98_6 1_555 1_555
C100_6 N5_6 1_555 1_555
H81_6 C100_6 1_555 1_555
C3_6 C7_6 1_555 1_555
C11_6 C13_6 1_555 1_555
C14_6 C24_6 1_555 1_555
C17_6 C20_6 1_555 1_555
C19_6 C25_6 1_555 1_555
C21_6 C34_6 1_555 1_555
C26_6 C32_6 1_555 1_555
C27_6 C28_6 1_555 1_555
C29_6 C30_6 1_555 1_555
C31_6 C33_6 1_555 1_555
C36_6 C39_6 1_555 1_555
C40_6 C41_6 1_555 1_555
C43_6 C46_6 1_555 1_555
C47_6 C48_6 1_555 1_555
C50_6 C54_6 1_555 1_555
C55_6 C57_6 1_555 1_555
C69_6 C73_6 1_555 1_555
C70_6 C71_6 1_555 1_555
C77_6 C81_6 1_555 1_555
C82_6 C84_6 1_555 1_555
C96_6 C100_6 1_555 1_555
C97_6 C98_6 1_555 1_555
Zn16_2 O15_6 1_555 1_555
P3_6 O15_6 1_555 1_555
O30_2 C65_6 1_555 1_555
O17_6 C65_6 1_555 1_555
O33_2 C66_6 1_555 1_555
O42_2 C66_6 1_555 1_555
C51_6 P3_6 1_555 1_555
C52_6 C61_6 1_555 1_555
C53_6 P3_6 1_555 1_555
C56_6 C58_6 1_555 1_555
C58_6 H39_6 1_555 1_555
C59_6 C51_6 1_555 1_555
C61_6 C59_6 1_555 1_555
C62_6 C56_6 1_555 1_555
H43_6 C62_6 1_555 1_555
H44_6 C63_6 1_555 1_555
C64_6 C51_6 1_555 1_555
H45_6 C64_6 1_555 1_555
C65_6 C52_6 1_555 1_555
C66_6 C56_6 1_555 1_555
C67_6 C53_6 1_555 1_555
H46_6 C67_6 1_555 1_555
C68_6 C53_6 1_555 1_555
H47_6 C68_6 1_555 1_555
H54_6 C72_6 1_555 1_555
H55_6 C72_6 1_555 1_555
H58_6 C74_6 1_555 1_555
H59_6 C74_6 1_555 1_555
C75_6 C52_6 1_555 1_555
H60_6 C75_6 1_555 1_555
C58_6 C67_6 1_555 1_555
C62_6 C68_6 1_555 1_555
C64_6 C75_6 1_555 1_555
C72_6 C74_6 1_555 1_555

#END
