
###############################################################################
#
# This file contains modified crystal structure data generated from the
# MOF subset of the Cambridge Structural Database (CSD) v543 
# hosted by the Cambridge Crystallographic Data Centre (CCDC).
#
# This work is licensed under the Creative Commons
# Attribution-NonCommercial-ShareAlike 4.0 International License.
# To view a copy of this license, visit
# http://creativecommons.org/licenses/by-nc-sa/4.0/
# or send a letter to
# Creative Commons, PO Box 1866, Mountain View, CA 94042, USA.
#
# CIF created using the CSD Python API on 29 September 2022
# The structure has been converted into the P1 space group
# The structure has a 3D framework
# The original CSD entry PIBNUK01 is in the cubic crystal system
# The original CSD entry PIBNUK01 is in a Sohncke space group
# The framework has been calculated to contain at least 10.0% void space
# The void calculation uses a probe of radius 1.32A, grid spacing 0.4
# H atom positions have been added when not included in the experimental data
# Generated hydrogen atom positions removed from atoms on special positions
#
###############################################################################

data_PIBNUK01
_chemical_formula_moiety         '(C192 H120 N24 O56 Zn8)n'
_symmetry_cell_setting           triclinic
_symmetry_space_group_name_H-M   'P 1'
_symmetry_Int_Tables_number      1
_space_group_name_Hall           'P 1'
loop_
_symmetry_equiv_pos_site_id
_symmetry_equiv_pos_as_xyz
1 x,y,z
_cell_length_a                   25.6349(2)
_cell_length_b                   25.6349(2)
_cell_length_c                   25.6349(2)
_cell_angle_alpha                90
_cell_angle_beta                 90
_cell_angle_gamma                90
_cell_volume                     16845.9
loop_
_atom_site_label
_atom_site_type_symbol
_atom_site_fract_x
_atom_site_fract_y
_atom_site_fract_z
O15 O 0.00337(6) 0.39887(6) 0.06096(6)
O16 O 0.39887(6) 0.06096(6) 0.00337(6)
O17 O 0.06096(6) 0.00337(6) 0.39887(6)
N4 N 0.12166(7) 0.17461(9) 0.19446(8)
N5 N 0.19446(8) 0.12166(7) 0.17461(9)
N6 N 0.17461(9) 0.19446(8) 0.12166(7)
C11 C 0.13352(12) 0.20339(10) 0.15192(12)
C12 C 0.15192(12) 0.13352(12) 0.20339(10)
C13 C 0.20339(10) 0.15192(12) 0.13352(12)
C21 C 0.03224(9) 0.32889(9) 0.11468(11)
C22 C 0.32889(9) 0.11468(11) 0.03224(9)
C23 C 0.11468(11) 0.03224(9) 0.32889(9)
C26 C 0.02631(9) 0.30241(10) 0.16038(10)
C27 C 0.30241(10) 0.16038(10) 0.02631(9)
C28 C 0.16038(10) 0.02631(9) 0.30241(10)
C31 C 0.05929(10) 0.26198(10) 0.17446(9)
C32 C 0.26198(10) 0.17446(9) 0.05929(10)
C33 C 0.17446(9) 0.05929(10) 0.26198(10)
H12 H 0.0551 0.2447 0.2061
H13 H 0.2447 0.2061 0.0551
H14 H 0.2061 0.0551 0.2447
C36 C 0.09872(9) 0.24797(10) 0.14007(11)
C37 C 0.24797(10) 0.14007(11) 0.09872(9)
C38 C 0.14007(11) 0.09872(9) 0.24797(10)
C41 C 0.10630(9) 0.27536(11) 0.09358(10)
C42 C 0.27536(11) 0.09358(10) 0.10630(9)
C43 C 0.09358(10) 0.10630(9) 0.27536(11)
H17 H 0.1338 0.2668 0.0715
H18 H 0.2668 0.0715 0.1338
H19 H 0.0715 0.1338 0.2668
C46 C 0.07239(10) 0.31531(9) 0.08070(9)
C47 C 0.31531(9) 0.08070(9) 0.07239(10)
C48 C 0.08070(9) 0.07239(10) 0.31531(9)
H22 H 0.0764 0.3331 0.0493
H23 H 0.3331 0.0493 0.0764
H24 H 0.0493 0.0764 0.3331
H26 H 0.0316493 0.51197 0.019545
O3 O 0.00057(6) 0.50057(6) 0.99943(6)
Zn5 Zn 0.3750 0.1250 0.8750
Zn9 Zn 0.455234(9) 0.044766(9) 0.955234(9)
O7 O 0.37737(5) 0.12917(5) 0.95571(6)
C17 C 0.37182(10) 0.10060(11) 0.99377(10)
H8 H 0.3117 0.1828 0.9993
Zn6 Zn 0.1250 0.8750 0.3750
Zn10 Zn 0.044766(9) 0.955234(9) 0.455234(9)
O8 O 0.12917(5) 0.95571(6) 0.37737(5)
C18 C 0.10060(11) 0.99377(10) 0.37182(10)
H9 H 0.1828 0.9993 0.3117
Zn1 Zn 0.8750 0.3750 0.1250
Zn2 Zn 0.955234(9) 0.455234(9) 0.044766(9)
O1 O 0.87737(5) 0.37083(5) 0.04429(6)
C2 C 0.87182(10) 0.39940(11) 0.00623(10)
H1 H 0.8117 0.3172 0.0007
O6 O 0.95571(6) 0.37737(5) 0.12917(5)
O9 O 0.87083(5) 0.45571(6) 0.12263(5)
O10 O 0.87917(5) 0.37263(5) 0.20571(6)
O11 O 0.87263(5) 0.29429(6) 0.12083(5)
O12 O 0.79429(6) 0.37917(5) 0.12737(5)
O18 O 0.93904(6) 0.50337(6) 0.10113(6)
C16 C 0.99377(10) 0.37182(10) 0.10060(11)
H7 H 0.9993 0.3117 0.1828
H27 H 0.51197 0.019545 0.0316493
O2 O 0.89887(6) 0.43904(6) 0.99663(6)
N1 N 0.67461(9) 0.30554(8) 0.87834(7)
C1 C 0.70339(10) 0.34808(12) 0.86648(12)
C3 C 0.82889(9) 0.38532(11) 0.96776(9)
C4 C 0.80241(10) 0.33962(10) 0.97369(9)
C5 C 0.76198(10) 0.32554(9) 0.94071(10)
H2 H 0.7447 0.2939 0.9449
C6 C 0.74797(10) 0.35993(11) 0.90128(9)
C7 C 0.77536(11) 0.40642(10) 0.89370(9)
H3 H 0.7668 0.4285 0.8662
C8 C 0.81531(9) 0.41930(9) 0.92761(10)
H4 H 0.8331 0.4507 0.9236
Zn3 Zn 0.6250 0.6250 0.6250
Zn7 Zn 0.544766(9) 0.544766(9) 0.544766(9)
O4 O 0.62917(5) 0.54429(6) 0.62263(5)
O5 O 0.45571(6) 0.12263(5) 0.87083(5)
O13 O 0.56096(6) 0.49663(6) 0.60113(6)
O14 O 0.50337(6) 0.10113(6) 0.93904(6)
N2 N 0.62166(7) 0.32539(9) 0.80554(8)
N3 N 0.69446(8) 0.37834(7) 0.82539(9)
C9 C 0.63352(12) 0.29661(10) 0.84808(12)
C10 C 0.65192(12) 0.36648(12) 0.79661(10)
C14 C 0.60060(11) 0.50623(10) 0.62818(10)
C15 C 0.49377(10) 0.12818(10) 0.89940(11)
C19 C 0.61468(11) 0.46776(9) 0.67111(9)
C20 C 0.53224(9) 0.17111(9) 0.88532(11)
C24 C 0.66038(10) 0.47369(9) 0.69759(10)
C25 C 0.52631(9) 0.19759(10) 0.83962(10)
H5 H 0.6828 0.5007 0.6883
H6 H 0.4993 0.1883 0.8172
C29 C 0.67446(9) 0.44071(10) 0.73802(10)
C30 C 0.55929(10) 0.23802(10) 0.82554(9)
H10 H 0.7061 0.4449 0.7553
H11 H 0.5551 0.2553 0.7939
C34 C 0.64007(11) 0.40128(9) 0.75203(10)
C35 C 0.59872(9) 0.25203(10) 0.85993(11)
C39 C 0.59358(10) 0.39370(9) 0.72464(11)
C40 C 0.60630(9) 0.22464(11) 0.90642(10)
H15 H 0.5715 0.3662 0.7332
H16 H 0.6338 0.2332 0.9285
C44 C 0.58070(9) 0.42761(10) 0.68469(9)
C45 C 0.57239(10) 0.18469(9) 0.91930(9)
H20 H 0.5493 0.4236 0.6669
H21 H 0.5764 0.1669 0.9507
H25 H 0.980455 0.531649 0.98803
O21 O 0.50057(6) 0.99943(6) 0.00057(6)
H28 H 0.480455 0.968351 0.0119701
O20 O 0.43904(6) 0.99663(6) 0.89887(6)
H28_2 H 0.019545 0.0316493 0.51197
O5_2 O 0.04429(6) 0.87737(5) 0.37083(5)
O19 O 0.10113(6) 0.93904(6) 0.50337(6)
C15_2 C 0.00623(10) 0.87182(10) 0.39940(11)
H6_2 H 0.0007 0.8117 0.3172
O8_2 O 0.37083(5) 0.04429(6) 0.87737(5)
O21_2 O 0.99943(6) 0.00057(6) 0.50057(6)
C18_2 C 0.39940(11) 0.00623(10) 0.87182(10)
H9_2 H 0.3172 0.0007 0.8117
O1_2 O 0.62263(5) 0.62917(5) 0.54429(6)
O2_2 O 0.60113(6) 0.56096(6) 0.49663(6)
O3_2 O 0.49943(6) 0.49943(6) 0.49943(6)
N1_2 N 0.82539(9) 0.69446(8) 0.37834(7)
C1_2 C 0.79661(10) 0.65192(12) 0.36648(12)
C2_2 C 0.62818(10) 0.60060(11) 0.50623(10)
C3_2 C 0.67111(9) 0.61468(11) 0.46776(9)
C4_2 C 0.69759(10) 0.66038(10) 0.47369(9)
H1_2 H 0.6883 0.6828 0.5007
C5_2 C 0.73802(10) 0.67446(9) 0.44071(10)
H2_2 H 0.7553 0.7061 0.4449
C6_2 C 0.75203(10) 0.64007(11) 0.40128(9)
C7_2 C 0.72464(11) 0.59358(10) 0.39370(9)
H3_2 H 0.7332 0.5715 0.3662
C8_2 C 0.68469(9) 0.58070(9) 0.42761(10)
H4_2 H 0.6669 0.5493 0.4236
O6_2 O 0.54429(6) 0.62263(5) 0.62917(5)
O7_2 O 0.12263(5) 0.87083(5) 0.45571(6)
O10_2 O 0.62083(5) 0.62737(5) 0.70571(6)
O11_2 O 0.62737(5) 0.70571(6) 0.62083(5)
O12_2 O 0.70571(6) 0.62083(5) 0.62737(5)
O14_2 O 0.99663(6) 0.89887(6) 0.43904(6)
O15_2 O 0.49663(6) 0.60113(6) 0.56096(6)
N2_2 N 0.87834(7) 0.67461(9) 0.30554(8)
N3_2 N 0.80554(8) 0.62166(7) 0.32539(9)
N4_2 N 0.37834(7) 0.82539(9) 0.69446(8)
N5_2 N 0.30554(8) 0.87834(7) 0.67461(9)
N6_2 N 0.32539(9) 0.80554(8) 0.62166(7)
C9_2 C 0.86648(12) 0.70339(10) 0.34808(12)
C10_2 C 0.84808(12) 0.63352(12) 0.29661(10)
C11_2 C 0.36648(12) 0.79661(10) 0.65192(12)
C12_2 C 0.34808(12) 0.86648(12) 0.70339(10)
C13_2 C 0.29661(10) 0.84808(12) 0.63352(12)
C14_2 C 0.89940(11) 0.49377(10) 0.12818(10)
C16_2 C 0.50623(10) 0.62818(10) 0.60060(11)
C17_2 C 0.12818(10) 0.89940(11) 0.49377(10)
C19_2 C 0.88532(11) 0.53224(9) 0.17111(9)
C20_2 C 0.96776(9) 0.82889(9) 0.38532(11)
C21_2 C 0.46776(9) 0.67111(9) 0.61468(11)
C22_2 C 0.17111(9) 0.88532(11) 0.53224(9)
C23_2 C 0.38532(11) 0.96776(9) 0.82889(9)
C24_2 C 0.83962(10) 0.52631(9) 0.19759(10)
C25_2 C 0.97369(9) 0.80241(10) 0.33962(10)
C26_2 C 0.47369(9) 0.69759(10) 0.66038(10)
C27_2 C 0.19759(10) 0.83962(10) 0.52631(9)
C28_2 C 0.33962(10) 0.97369(9) 0.80241(10)
H5_2 H 0.8172 0.4993 0.1883
H7_2 H 0.5007 0.6883 0.6828
H8_2 H 0.1883 0.8172 0.4993
C29_2 C 0.82554(9) 0.55929(10) 0.23802(10)
C30_2 C 0.94071(10) 0.76198(10) 0.32554(9)
C31_2 C 0.44071(10) 0.73802(10) 0.67446(9)
C32_2 C 0.23802(10) 0.82554(9) 0.55929(10)
C33_2 C 0.32554(9) 0.94071(10) 0.76198(10)
H10_2 H 0.7939 0.5551 0.2553
H11_2 H 0.9449 0.7447 0.2939
H12_2 H 0.4449 0.7553 0.7061
H13_2 H 0.2553 0.7939 0.5551
H14_2 H 0.2939 0.9449 0.7447
C34_2 C 0.85993(11) 0.59872(9) 0.25203(10)
C35_2 C 0.90128(9) 0.74797(10) 0.35993(11)
C36_2 C 0.40128(9) 0.75203(10) 0.64007(11)
C37_2 C 0.25203(10) 0.85993(11) 0.59872(9)
C38_2 C 0.35993(11) 0.90128(9) 0.74797(10)
C39_2 C 0.90642(10) 0.60630(9) 0.22464(11)
C40_2 C 0.89370(9) 0.77536(11) 0.40642(10)
C41_2 C 0.39370(9) 0.72464(11) 0.59358(10)
C42_2 C 0.22464(11) 0.90642(10) 0.60630(9)
C43_2 C 0.40642(10) 0.89370(9) 0.77536(11)
H15_2 H 0.9285 0.6338 0.2332
H16_2 H 0.8662 0.7668 0.4285
H17_2 H 0.3662 0.7332 0.5715
H18_2 H 0.2332 0.9285 0.6338
H19_2 H 0.4285 0.8662 0.7668
C44_2 C 0.91930(9) 0.57239(10) 0.18469(9)
C45_2 C 0.92761(10) 0.81531(9) 0.41930(9)
C46_2 C 0.42761(10) 0.68469(9) 0.58070(9)
C47_2 C 0.18469(9) 0.91930(9) 0.57239(10)
C48_2 C 0.41930(9) 0.92761(10) 0.81531(9)
H20_2 H 0.9507 0.5764 0.1669
H21_2 H 0.9236 0.8331 0.4507
H22_2 H 0.4236 0.6669 0.5493
H23_2 H 0.1669 0.9507 0.5764
H24_2 H 0.4507 0.9236 0.8331
H27_2 H 0.98803 0.980455 0.531649
O10_3 O 0.12083(5) 0.87263(5) 0.29429(6)
O11_3 O 0.12737(5) 0.79429(6) 0.37917(5)
O12_3 O 0.20571(6) 0.87917(5) 0.37263(5)
H26_2 H 0.968351 0.0119701 0.480455
O10_4 O 0.37917(5) 0.12737(5) 0.79429(6)
O11_4 O 0.37263(5) 0.20571(6) 0.87917(5)
O12_4 O 0.29429(6) 0.12083(5) 0.87263(5)
H27_3 H 0.0119701 0.480455 0.968351
H26_3 H 0.531649 0.98803 0.980455
Zn9_2 Zn 0.294766(9) 0.205234(9) 0.794766(9)
O16_2 O 0.31096(6) 0.14887(6) 0.74663(6)
C17_3 C 0.35060(11) 0.12182(10) 0.75623(10)
C22_3 C 0.36468(11) 0.07889(9) 0.71776(9)
C27_3 C 0.41038(10) 0.05241(10) 0.72369(9)
H8_3 H 0.4328 0.0617 0.7507
C32_3 C 0.42446(9) 0.01198(10) 0.69071(10)
C42_3 C 0.34358(10) 0.02536(11) 0.64370(9)
H18_3 H 0.3215 0.0168 0.6162
C47_3 C 0.33070(9) 0.06531(9) 0.67761(10)
H23_3 H 0.2993 0.0831 0.6736
Zn7_2 Zn 0.794766(9) 0.294766(9) 0.205234(9)
O13_2 O 0.74663(6) 0.31096(6) 0.14887(6)
C14_3 C 0.75623(10) 0.35060(11) 0.12182(10)
C19_3 C 0.71776(9) 0.36468(11) 0.07889(9)
C24_3 C 0.72369(9) 0.41038(10) 0.05241(10)
H5_3 H 0.7507 0.4328 0.0617
C29_3 C 0.69071(10) 0.42446(9) 0.01198(10)
C39_3 C 0.64370(9) 0.34358(10) 0.02536(11)
H15_3 H 0.6162 0.3215 0.0168
C44_3 C 0.67761(10) 0.33070(9) 0.06531(9)
H20_3 H 0.6736 0.2993 0.0831
Zn2_2 Zn 0.705234(9) 0.705234(9) 0.705234(9)
O2_3 O 0.68904(6) 0.64887(6) 0.75337(6)
O3_3 O 0.75057(6) 0.75057(6) 0.75057(6)
N1_3 N 0.55554(8) 0.42461(9) 0.87166(7)
C1_3 C 0.59808(12) 0.45339(10) 0.88352(12)
C2_3 C 0.64940(11) 0.62182(10) 0.74377(10)
C3_3 C 0.63532(11) 0.57889(9) 0.78224(9)
C4_3 C 0.58962(10) 0.55241(10) 0.77631(9)
H1_3 H 0.5672 0.5617 0.7493
C5_3 C 0.57554(9) 0.51198(10) 0.80929(10)
H2_3 H 0.5439 0.4947 0.8051
C6_3 C 0.60993(11) 0.49797(10) 0.84872(9)
C7_3 C 0.65642(10) 0.52536(11) 0.85630(9)
H3_3 H 0.6785 0.5168 0.8838
C8_3 C 0.66930(9) 0.56531(9) 0.82239(10)
H4_3 H 0.7007 0.5831 0.8264
Zn10_2 Zn 0.205234(9) 0.794766(9) 0.294766(9)
O14_3 O 0.35113(6) 0.25337(6) 0.81096(6)
O15_3 O 0.64887(6) 0.75337(6) 0.68904(6)
O17_2 O 0.25337(6) 0.81096(6) 0.35113(6)
O18_2 O 0.75337(6) 0.68904(6) 0.64887(6)
O20_2 O 0.24663(6) 0.18904(6) 0.85113(6)
O21_3 O 0.24943(6) 0.25057(6) 0.74943(6)
N2_3 N 0.57539(9) 0.37166(7) 0.94446(8)
N3_3 N 0.62834(7) 0.44446(8) 0.92461(9)
N4_3 N 0.42461(9) 0.87166(7) 0.55554(8)
N5_3 N 0.37166(7) 0.94446(8) 0.57539(9)
N6_3 N 0.44446(8) 0.92461(9) 0.62834(7)
C9_3 C 0.54661(10) 0.38352(12) 0.90192(12)
C10_3 C 0.61648(12) 0.40192(12) 0.95339(10)
C11_3 C 0.45339(10) 0.88352(12) 0.59808(12)
C12_3 C 0.38352(12) 0.90192(12) 0.54661(10)
C13_3 C 0.40192(12) 0.95339(10) 0.61648(12)
C15_3 C 0.37818(10) 0.24377(10) 0.85060(11)
C16_3 C 0.62182(10) 0.74377(10) 0.64940(11)
C18_3 C 0.24377(10) 0.85060(11) 0.37818(10)
C20_3 C 0.42111(9) 0.28224(9) 0.86468(11)
C21_3 C 0.57889(9) 0.78224(9) 0.63532(11)
C23_3 C 0.28224(9) 0.86468(11) 0.42111(9)
C25_3 C 0.44759(10) 0.27631(9) 0.91038(10)
C26_3 C 0.55241(10) 0.77631(9) 0.58962(10)
C28_3 C 0.27631(9) 0.91038(10) 0.44759(10)
H6_3 H 0.4383 0.2493 0.9328
H7_3 H 0.5617 0.7493 0.5672
H9_3 H 0.2493 0.9328 0.4383
C30_3 C 0.48802(10) 0.30929(10) 0.92446(9)
C31_3 C 0.51198(10) 0.80929(10) 0.57554(9)
C33_3 C 0.30929(10) 0.92446(9) 0.48802(10)
H10_3 H 0.6949 0.4561 0.9947
H11_3 H 0.5053 0.3051 0.9561
H12_3 H 0.4947 0.8051 0.5439
H13_3 H 0.4561 0.9947 0.6949
H14_3 H 0.3051 0.9561 0.5053
C34_3 C 0.65128(9) 0.39007(11) 0.99797(10)
C35_3 C 0.50203(10) 0.34872(9) 0.89007(11)
C36_3 C 0.49797(10) 0.84872(9) 0.60993(11)
C37_3 C 0.39007(11) 0.99797(10) 0.65128(9)
C38_3 C 0.34872(9) 0.89007(11) 0.50203(10)
C40_3 C 0.47464(11) 0.35630(9) 0.84358(10)
C41_3 C 0.52536(11) 0.85630(9) 0.65642(10)
C43_3 C 0.35630(9) 0.84358(10) 0.47464(11)
H16_3 H 0.4832 0.3838 0.8215
H17_3 H 0.5168 0.8838 0.6785
H19_3 H 0.3838 0.8215 0.4832
C45_3 C 0.43469(9) 0.32239(10) 0.83070(9)
C46_3 C 0.56531(9) 0.82239(10) 0.66930(9)
C48_3 C 0.32239(10) 0.83070(9) 0.43469(9)
H21_3 H 0.4169 0.3264 0.7993
H22_3 H 0.5831 0.8264 0.7007
H24_3 H 0.3264 0.7993 0.4169
O14_4 O 0.14887(6) 0.74663(6) 0.31096(6)
O19_2 O 0.18904(6) 0.85113(6) 0.24663(6)
O21_4 O 0.25057(6) 0.74943(6) 0.24943(6)
N4_4 N 0.07539(9) 0.12834(7) 0.05554(8)
N5_4 N 0.12834(7) 0.05554(8) 0.07539(9)
N6_4 N 0.05554(8) 0.07539(9) 0.12834(7)
C11_4 C 0.04661(10) 0.11648(12) 0.09808(12)
C12_4 C 0.11648(12) 0.09808(12) 0.04661(10)
C13_4 C 0.09808(12) 0.04661(10) 0.11648(12)
C15_4 C 0.12182(10) 0.75623(10) 0.35060(11)
C20_4 C 0.07889(9) 0.71776(9) 0.36468(11)
C25_4 C 0.05241(10) 0.72369(9) 0.41038(10)
H6_4 H 0.0617 0.7507 0.4328
C30_4 C 0.01198(10) 0.69071(10) 0.42446(9)
H12_4 H 0.0053 0.1949 0.0439
H13_4 H 0.0439 0.0053 0.1949
H14_4 H 0.1949 0.0439 0.0053
C36_4 C 0.00203(10) 0.15128(9) 0.10993(11)
C37_4 C 0.10993(11) 0.00203(10) 0.15128(9)
C38_4 C 0.15128(9) 0.10993(11) 0.00203(10)
C40_4 C 0.02536(11) 0.64370(9) 0.34358(10)
H16_4 H 0.0168 0.6162 0.3215
C45_4 C 0.06531(9) 0.67761(10) 0.33070(9)
H21_4 H 0.0831 0.6736 0.2993
C18_4 C 0.25623(10) 0.14940(11) 0.87818(10)
C23_4 C 0.21776(9) 0.13532(11) 0.92111(9)
C28_4 C 0.22369(9) 0.08962(10) 0.94759(10)
H9_4 H 0.2507 0.0672 0.9383
C33_4 C 0.19071(10) 0.07554(9) 0.98802(10)
C43_4 C 0.14370(9) 0.15642(10) 0.97464(11)
H19_4 H 0.1162 0.1785 0.9832
C48_4 C 0.17761(10) 0.16930(9) 0.93469(9)
H24_4 H 0.1736 0.2007 0.9169
C17_4 C 0.14940(11) 0.87818(10) 0.25623(10)
C22_4 C 0.13532(11) 0.92111(9) 0.21776(9)
C27_4 C 0.08962(10) 0.94759(10) 0.22369(9)
H8_4 H 0.0672 0.9383 0.2507
C32_4 C 0.07554(9) 0.98802(10) 0.19071(10)
C42_4 C 0.15642(10) 0.97464(11) 0.14370(9)
H18_4 H 0.1785 0.9832 0.1162
C47_4 C 0.16930(9) 0.93469(9) 0.17761(10)
H23_4 H 0.2007 0.9169 0.1736
O2_4 O 0.81096(6) 0.35113(6) 0.25337(6)
O3_4 O 0.74943(6) 0.24943(6) 0.25057(6)
N1_4 N 0.94446(8) 0.57539(9) 0.37166(7)
C1_4 C 0.90192(12) 0.54661(10) 0.38352(12)
C2_4 C 0.85060(11) 0.37818(10) 0.24377(10)
C3_4 C 0.86468(11) 0.42111(9) 0.28224(9)
C4_4 C 0.91038(10) 0.44759(10) 0.27631(9)
H1_4 H 0.9328 0.4383 0.2493
C5_4 C 0.92446(9) 0.48802(10) 0.30929(10)
H2_4 H 0.9561 0.5053 0.3051
C6_4 C 0.89007(11) 0.50203(10) 0.34872(9)
C7_4 C 0.84358(10) 0.47464(11) 0.35630(9)
H3_4 H 0.8215 0.4832 0.3838
C8_4 C 0.83070(9) 0.43469(9) 0.32239(10)
H4_4 H 0.7993 0.4169 0.3264
O15_4 O 0.85113(6) 0.24663(6) 0.18904(6)
N2_4 N 0.92461(9) 0.62834(7) 0.44446(8)
N3_4 N 0.87166(7) 0.55554(8) 0.42461(9)
C9_4 C 0.95339(10) 0.61648(12) 0.40192(12)
C10_4 C 0.88352(12) 0.59808(12) 0.45339(10)
C14_4 C 0.74377(10) 0.64940(11) 0.62182(10)
C16_4 C 0.87818(10) 0.25623(10) 0.14940(11)
C19_4 C 0.78224(9) 0.63532(11) 0.57889(9)
C21_4 C 0.92111(9) 0.21776(9) 0.13532(11)
C24_4 C 0.77631(9) 0.58962(10) 0.55241(10)
C26_4 C 0.94759(10) 0.22369(9) 0.08962(10)
H5_4 H 0.7493 0.5672 0.5617
H7_4 H 0.9383 0.2507 0.0672
C29_4 C 0.80929(10) 0.57554(9) 0.51198(10)
C31_4 C 0.98802(10) 0.19071(10) 0.07554(9)
H10_4 H 0.8051 0.5439 0.4947
H11_4 H 0.9947 0.6949 0.4561
C34_4 C 0.84872(9) 0.60993(11) 0.49797(10)
C35_4 C 0.99797(10) 0.65128(9) 0.39007(11)
C39_4 C 0.85630(9) 0.65642(10) 0.52536(11)
C41_4 C 0.97464(11) 0.14370(9) 0.15642(10)
H15_4 H 0.8838 0.6785 0.5168
H17_4 H 0.9832 0.1162 0.1785
C44_4 C 0.82239(10) 0.66930(9) 0.56531(9)
C46_4 C 0.93469(9) 0.17761(10) 0.16930(9)
H20_4 H 0.8264 0.7007 0.5831
H22_4 H 0.9169 0.1736 0.2007
loop_
_geom_bond_atom_site_label_1
_geom_bond_atom_site_label_2
_geom_bond_site_symmetry_1
_geom_bond_site_symmetry_2
N4 C11 1_555 1_555
N5 C12 1_555 1_555
N6 C11 1_555 1_555
C11 C36 1_555 1_555
C12 N4 1_555 1_555
C13 N5 1_555 1_555
C22 C27 1_555 1_555
C23 C28 1_555 1_555
C26 C21 1_555 1_555
C31 C26 1_555 1_555
C32 C27 1_555 1_555
C33 C28 1_555 1_555
H12 C31 1_555 1_555
H13 C32 1_555 1_555
H14 C33 1_555 1_555
C36 C31 1_555 1_555
C37 C13 1_555 1_555
C38 C12 1_555 1_555
C41 C36 1_555 1_555
C42 C37 1_555 1_555
C43 C38 1_555 1_555
H17 C41 1_555 1_555
H18 C42 1_555 1_555
H19 C43 1_555 1_555
C46 C21 1_555 1_555
C47 C22 1_555 1_555
C48 C23 1_555 1_555
H22 C46 1_555 1_555
H23 C47 1_555 1_555
H24 C48 1_555 1_555
N6 C13 1_555 1_555
C32 C37 1_555 1_555
C33 C38 1_555 1_555
C41 C46 1_555 1_555
C42 C47 1_555 1_555
C43 C48 1_555 1_555
Zn5 O7 1_555 1_555
O7 C17 1_555 1_555
Zn6 O8 1_555 1_555
O8 C18 1_555 1_555
Zn1 O1 1_555 1_555
O1 C2 1_555 1_555
O6 Zn1 1_555 1_555
O9 Zn1 1_555 1_555
O10 Zn1 1_555 1_555
O11 Zn1 1_555 1_555
O12 Zn1 1_555 1_555
O18 Zn2 1_555 1_555
C16 O6 1_555 1_555
N1 C1 1_555 1_555
C1 C6 1_555 1_555
C3 C4 1_555 1_555
C5 C4 1_555 1_555
H2 C5 1_555 1_555
C6 C5 1_555 1_555
C7 C6 1_555 1_555
H3 C7 1_555 1_555
C8 C3 1_555 1_555
H4 C8 1_555 1_555
Zn3 O4 1_555 1_555
Zn5 O5 1_555 1_555
Zn7 O13 1_555 1_555
Zn9 O14 1_555 1_555
O4 C14 1_555 1_555
O5 C15 1_555 1_555
O13 C14 1_555 1_555
O14 C15 1_555 1_555
N2 C9 1_555 1_555
N3 C1 1_555 1_555
C9 N1 1_555 1_555
C10 N2 1_555 1_555
C14 C19 1_555 1_555
C15 C20 1_555 1_555
C19 C24 1_555 1_555
C20 C25 1_555 1_555
C24 H5 1_555 1_555
C25 H6 1_555 1_555
C29 C24 1_555 1_555
C30 C25 1_555 1_555
H10 C29 1_555 1_555
H11 C30 1_555 1_555
C34 C10 1_555 1_555
C35 C9 1_555 1_555
C39 C34 1_555 1_555
C40 C35 1_555 1_555
H15 C39 1_555 1_555
H16 C40 1_555 1_555
C44 C19 1_555 1_555
C45 C20 1_555 1_555
H20 C44 1_555 1_555
H21 C45 1_555 1_555
C7 C8 1_555 1_555
N3 C10 1_555 1_555
C29 C34 1_555 1_555
C30 C35 1_555 1_555
C39 C44 1_555 1_555
C40 C45 1_555 1_555
O21 H28 1_555 1_555
Zn6 O5_2 1_555 1_555
O5_2 C15_2 1_555 1_555
O19 Zn10 1_555 1_555
Zn5 O8_2 1_555 1_555
O8_2 C18_2 1_555 1_555
Zn3 O1_2 1_555 1_555
Zn7 O2_2 1_555 1_555
O1_2 C2_2 1_555 1_555
O2_2 C2_2 1_555 1_555
O3_2 Zn7 1_555 1_555
N1_2 C1_2 1_555 1_555
C1_2 C6_2 1_555 1_555
C2_2 C3_2 1_555 1_555
C3_2 C4_2 1_555 1_555
C4_2 H1_2 1_555 1_555
C5_2 C4_2 1_555 1_555
H2_2 C5_2 1_555 1_555
C6_2 C5_2 1_555 1_555
C7_2 C6_2 1_555 1_555
H3_2 C7_2 1_555 1_555
C8_2 C3_2 1_555 1_555
H4_2 C8_2 1_555 1_555
Zn6 O7_2 1_555 1_555
O9 C14_2 1_555 1_555
O6_2 Zn3 1_555 1_555
O7_2 C17_2 1_555 1_555
O10_2 Zn3 1_555 1_555
O11_2 Zn3 1_555 1_555
O12_2 Zn3 1_555 1_555
O18 C14_2 1_555 1_555
O15_2 Zn7 1_555 1_555
O19 C17_2 1_555 1_555
N2_2 C9_2 1_555 1_555
N3_2 C1_2 1_555 1_555
N4_2 C11_2 1_555 1_555
N5_2 C12_2 1_555 1_555
N6_2 C11_2 1_555 1_555
C9_2 N1_2 1_555 1_555
C10_2 N2_2 1_555 1_555
C11_2 C36_2 1_555 1_555
C12_2 N4_2 1_555 1_555
C13_2 N5_2 1_555 1_555
C14_2 C19_2 1_555 1_555
C16_2 O6_2 1_555 1_555
C17_2 C22_2 1_555 1_555
C19_2 C24_2 1_555 1_555
C20_2 C25_2 1_555 1_555
C21_2 C16_2 1_555 1_555
C22_2 C27_2 1_555 1_555
C23_2 C28_2 1_555 1_555
C24_2 H5_2 1_555 1_555
C26_2 C21_2 1_555 1_555
C27_2 H8_2 1_555 1_555
H7_2 C26_2 1_555 1_555
C29_2 C24_2 1_555 1_555
C30_2 C25_2 1_555 1_555
C31_2 C26_2 1_555 1_555
C32_2 C27_2 1_555 1_555
C33_2 C28_2 1_555 1_555
H10_2 C29_2 1_555 1_555
H11_2 C30_2 1_555 1_555
H12_2 C31_2 1_555 1_555
H13_2 C32_2 1_555 1_555
H14_2 C33_2 1_555 1_555
C34_2 C10_2 1_555 1_555
C35_2 C9_2 1_555 1_555
C36_2 C31_2 1_555 1_555
C37_2 C13_2 1_555 1_555
C38_2 C12_2 1_555 1_555
C39_2 C34_2 1_555 1_555
C40_2 C35_2 1_555 1_555
C41_2 C36_2 1_555 1_555
C42_2 C37_2 1_555 1_555
C43_2 C38_2 1_555 1_555
H15_2 C39_2 1_555 1_555
H16_2 C40_2 1_555 1_555
H17_2 C41_2 1_555 1_555
H18_2 C42_2 1_555 1_555
H19_2 C43_2 1_555 1_555
C44_2 C19_2 1_555 1_555
C45_2 C20_2 1_555 1_555
C46_2 C21_2 1_555 1_555
C47_2 C22_2 1_555 1_555
C48_2 C23_2 1_555 1_555
H20_2 C44_2 1_555 1_555
H21_2 C45_2 1_555 1_555
H22_2 C46_2 1_555 1_555
H23_2 C47_2 1_555 1_555
H24_2 C48_2 1_555 1_555
C7_2 C8_2 1_555 1_555
O15_2 C16_2 1_555 1_555
N3_2 C10_2 1_555 1_555
N6_2 C13_2 1_555 1_555
C29_2 C34_2 1_555 1_555
C30_2 C35_2 1_555 1_555
C32_2 C37_2 1_555 1_555
C33_2 C38_2 1_555 1_555
C39_2 C44_2 1_555 1_555
C40_2 C45_2 1_555 1_555
C41_2 C46_2 1_555 1_555
C42_2 C47_2 1_555 1_555
C43_2 C48_2 1_555 1_555
O10_3 Zn6 1_555 1_555
O11_3 Zn6 1_555 1_555
O12_3 Zn6 1_555 1_555
O21_2 H26_2 1_555 1_555
O10_4 Zn5 1_555 1_555
O11_4 Zn5 1_555 1_555
O12_4 Zn5 1_555 1_555
O3 H27_3 1_555 1_555
Zn9_2 O16_2 1_555 1_555
O10_4 C17_3 1_555 1_555
O16_2 C17_3 1_555 1_555
C17_3 C22_3 1_555 1_555
C22_3 C27_3 1_555 1_555
C27_3 H8_3 1_555 1_555
C32_3 C27_3 1_555 1_555
H18_3 C42_3 1_555 1_555
C47_3 C22_3 1_555 1_555
H23_3 C47_3 1_555 1_555
C42_3 C47_3 1_555 1_555
Zn7_2 O13_2 1_555 1_555
O12 C14_3 1_555 1_555
O13_2 C14_3 1_555 1_555
C14_3 C19_3 1_555 1_555
C19_3 C24_3 1_555 1_555
C24_3 H5_3 1_555 1_555
C29_3 C24_3 1_555 1_555
H15_3 C39_3 1_555 1_555
C44_3 C19_3 1_555 1_555
H20_3 C44_3 1_555 1_555
C39_3 C44_3 1_555 1_555
Zn2_2 O2_3 1_555 1_555
O10_2 C2_3 1_555 1_555
O2_3 C2_3 1_555 1_555
O3_3 Zn2_2 1_555 1_555
N1_3 C1_3 1_555 1_555
C1_3 C6_3 1_555 1_555
C2_3 C3_3 1_555 1_555
C3_3 C4_3 1_555 1_555
C4_3 H1_3 1_555 1_555
C5_3 C4_3 1_555 1_555
H2_3 C5_3 1_555 1_555
C6_3 C5_3 1_555 1_555
C7_3 C6_3 1_555 1_555
H3_3 C7_3 1_555 1_555
C8_3 C3_3 1_555 1_555
H4_3 C8_3 1_555 1_555
Zn9_2 O14_3 1_555 1_555
Zn10_2 O17_2 1_555 1_555
O11_4 C15_3 1_555 1_555
O12_3 C18_3 1_555 1_555
O14_3 C15_3 1_555 1_555
O15_3 Zn2_2 1_555 1_555
O17_2 C18_3 1_555 1_555
O18_2 Zn2_2 1_555 1_555
O20_2 Zn9_2 1_555 1_555
O21_3 Zn9_2 1_555 1_555
N2_3 C9_3 1_555 1_555
N3_3 C1_3 1_555 1_555
N4_3 C11_3 1_555 1_555
N5_3 C12_3 1_555 1_555
N6_3 C11_3 1_555 1_555
C9_3 N1_3 1_555 1_555
C10_3 N2_3 1_555 1_555
C11_3 C36_3 1_555 1_555
C12_3 N4_3 1_555 1_555
C13_3 N5_3 1_555 1_555
C15_3 C20_3 1_555 1_555
C16_3 O11_2 1_555 1_555
C18_3 C23_3 1_555 1_555
C20_3 C25_3 1_555 1_555
C21_3 C16_3 1_555 1_555
C23_3 C28_3 1_555 1_555
C25_3 H6_3 1_555 1_555
C26_3 C21_3 1_555 1_555
C28_3 H9_3 1_555 1_555
H7_3 C26_3 1_555 1_555
C30_3 C25_3 1_555 1_555
C31_3 C26_3 1_555 1_555
C33_3 C28_3 1_555 1_555
H11_3 C30_3 1_555 1_555
H12_3 C31_3 1_555 1_555
H14_3 C33_3 1_555 1_555
C34_3 C10_3 1_555 1_555
C35_3 C9_3 1_555 1_555
C36_3 C31_3 1_555 1_555
C37_3 C13_3 1_555 1_555
C38_3 C12_3 1_555 1_555
C40_3 C35_3 1_555 1_555
C41_3 C36_3 1_555 1_555
C43_3 C38_3 1_555 1_555
H16_3 C40_3 1_555 1_555
H17_3 C41_3 1_555 1_555
H19_3 C43_3 1_555 1_555
C45_3 C20_3 1_555 1_555
C46_3 C21_3 1_555 1_555
C48_3 C23_3 1_555 1_555
H21_3 C45_3 1_555 1_555
H22_3 C46_3 1_555 1_555
H24_3 C48_3 1_555 1_555
C7_3 C8_3 1_555 1_555
O15_3 C16_3 1_555 1_555
N3_3 C10_3 1_555 1_555
N6_3 C13_3 1_555 1_555
C30_3 C35_3 1_555 1_555
C33_3 C38_3 1_555 1_555
C40_3 C45_3 1_555 1_555
C41_3 C46_3 1_555 1_555
C43_3 C48_3 1_555 1_555
Zn10_2 O14_4 1_555 1_555
O11_3 C15_4 1_555 1_555
O14_4 C15_4 1_555 1_555
O19_2 Zn10_2 1_555 1_555
O21_4 Zn10_2 1_555 1_555
N4_4 C11_4 1_555 1_555
N5_4 C12_4 1_555 1_555
N6_4 C11_4 1_555 1_555
C11_4 C36_4 1_555 1_555
C12_4 N4_4 1_555 1_555
C13_4 N5_4 1_555 1_555
C15_4 C20_4 1_555 1_555
C20_4 C25_4 1_555 1_555
C25_4 H6_4 1_555 1_555
C30_4 C25_4 1_555 1_555
C37_4 C13_4 1_555 1_555
C38_4 C12_4 1_555 1_555
H16_4 C40_4 1_555 1_555
C45_4 C20_4 1_555 1_555
H21_4 C45_4 1_555 1_555
N6_4 C13_4 1_555 1_555
C40_4 C45_4 1_555 1_555
O12_4 C18_4 1_555 1_555
O20_2 C18_4 1_555 1_555
C18_4 C23_4 1_555 1_555
C23_4 C28_4 1_555 1_555
C28_4 H9_4 1_555 1_555
C33_4 C28_4 1_555 1_555
H19_4 C43_4 1_555 1_555
C48_4 C23_4 1_555 1_555
H24_4 C48_4 1_555 1_555
C43_4 C48_4 1_555 1_555
O10_3 C17_4 1_555 1_555
O19_2 C17_4 1_555 1_555
C17_4 C22_4 1_555 1_555
C22_4 C27_4 1_555 1_555
C27_4 H8_4 1_555 1_555
C32_4 C27_4 1_555 1_555
H18_4 C42_4 1_555 1_555
C47_4 C22_4 1_555 1_555
H23_4 C47_4 1_555 1_555
C42_4 C47_4 1_555 1_555
Zn7_2 O2_4 1_555 1_555
O10 C2_4 1_555 1_555
O2_4 C2_4 1_555 1_555
O3_4 Zn7_2 1_555 1_555
N1_4 C1_4 1_555 1_555
C1_4 C6_4 1_555 1_555
C2_4 C3_4 1_555 1_555
C3_4 C4_4 1_555 1_555
C4_4 H1_4 1_555 1_555
C5_4 C4_4 1_555 1_555
H2_4 C5_4 1_555 1_555
C6_4 C5_4 1_555 1_555
C7_4 C6_4 1_555 1_555
H3_4 C7_4 1_555 1_555
C8_4 C3_4 1_555 1_555
H4_4 C8_4 1_555 1_555
O12_2 C14_4 1_555 1_555
O18_2 C14_4 1_555 1_555
O15_4 Zn7_2 1_555 1_555
N2_4 C9_4 1_555 1_555
N3_4 C1_4 1_555 1_555
C9_4 N1_4 1_555 1_555
C10_4 N2_4 1_555 1_555
C14_4 C19_4 1_555 1_555
C16_4 O11 1_555 1_555
C19_4 C24_4 1_555 1_555
C21_4 C16_4 1_555 1_555
C24_4 H5_4 1_555 1_555
C26_4 C21_4 1_555 1_555
H7_4 C26_4 1_555 1_555
C29_4 C24_4 1_555 1_555
C31_4 C26_4 1_555 1_555
H10_4 C29_4 1_555 1_555
C34_4 C10_4 1_555 1_555
C35_4 C9_4 1_555 1_555
C39_4 C34_4 1_555 1_555
H15_4 C39_4 1_555 1_555
H17_4 C41_4 1_555 1_555
C44_4 C19_4 1_555 1_555
C46_4 C21_4 1_555 1_555
H20_4 C44_4 1_555 1_555
H22_4 C46_4 1_555 1_555
C7_4 C8_4 1_555 1_555
O15_4 C16_4 1_555 1_555
N3_4 C10_4 1_555 1_555
C29_4 C34_4 1_555 1_555
C39_4 C44_4 1_555 1_555
C41_4 C46_4 1_555 1_555

#END
