
###############################################################################
#
# This file contains modified crystal structure data generated from the
# MOF subset of the Cambridge Structural Database (CSD) v543 
# hosted by the Cambridge Crystallographic Data Centre (CCDC).
#
# This work is licensed under the Creative Commons
# Attribution-NonCommercial-ShareAlike 4.0 International License.
# To view a copy of this license, visit
# http://creativecommons.org/licenses/by-nc-sa/4.0/
# or send a letter to
# Creative Commons, PO Box 1866, Mountain View, CA 94042, USA.
#
# CIF created using the CSD Python API on 29 September 2022
# The structure has been converted into the P1 space group
# The structure has a 3D framework
# The original CSD entry PIBNUK is in the cubic crystal system
# The original CSD entry PIBNUK is in a Sohncke space group
# The framework has been calculated to contain at least 10.0% void space
# The void calculation uses a probe of radius 1.32A, grid spacing 0.4
# H atom positions have been added when not included in the experimental data
# Generated hydrogen atom positions removed from atoms on special positions
#
###############################################################################

data_PIBNUK
_chemical_formula_moiety         '(C192 H120 N24 O56 Zn10)n'
_symmetry_cell_setting           triclinic
_symmetry_space_group_name_H-M   'P 1'
_symmetry_Int_Tables_number      1
_space_group_name_Hall           'P 1'
loop_
_symmetry_equiv_pos_site_id
_symmetry_equiv_pos_as_xyz
1 x,y,z
_cell_length_a                   25.6415(6)
_cell_length_b                   25.6415(6)
_cell_length_c                   25.6415(6)
_cell_angle_alpha                90
_cell_angle_beta                 90
_cell_angle_gamma                90
_cell_volume                     16858.9
loop_
_atom_site_label
_atom_site_type_symbol
_atom_site_fract_x
_atom_site_fract_y
_atom_site_fract_z
Zn5 Zn 0.6250 0.1250 0.3750
Zn9 Zn 0.544976(9) 0.044976(9) 0.455024(9)
O7 O 0.62920(5) 0.04396(6) 0.37743(5)
C47 C 0.60021(11) 0.00542(10) 0.37094(11)
H27 H 0.0309595 0.0112376 0.979772
Zn1 Zn 0.3750 0.6250 0.1250
Zn2 Zn 0.455024(9) 0.544976(9) 0.044976(9)
O1 O 0.37743(5) 0.62920(5) 0.04396(6)
O3 O 0.49987(6) 0.50013(6) 0.00013(6)
C8 C 0.37094(11) 0.60021(11) 0.00542(10)
N4 N 0.62166(7) 0.82525(11) 0.19468(9)
N5 N 0.67475(11) 0.80532(9) 0.12166(7)
N6 N 0.69468(9) 0.87834(7) 0.17475(11)
O6 O 0.45604(6) 0.62257(5) 0.12920(5)
O9 O 0.37080(5) 0.54396(6) 0.12257(5)
O10 O 0.37920(5) 0.62743(5) 0.20604(6)
O11 O 0.37257(5) 0.70604(6) 0.12080(5)
O12 O 0.29396(6) 0.62080(5) 0.12743(5)
O15 O 0.50328(5) 0.60150(6) 0.06113(6)
O16 O 0.56113(6) 0.99672(5) 0.39850(6)
O17 O 0.89850(6) 0.93887(6) 0.00328(5)
O18 O 0.43887(6) 0.49672(5) 0.10150(6)
C11 C 0.59903(10) 0.75296(10) 0.13995(11)
C12 C 0.63995(11) 0.90097(10) 0.24704(10)
C13 C 0.74704(10) 0.86005(11) 0.09903(10)
C16 C 0.60601(9) 0.72516(12) 0.09447(11)
C17 C 0.59447(11) 0.89399(9) 0.27484(12)
C18 C 0.77484(12) 0.90553(11) 0.10601(9)
H7 H 0.6340 0.7335 0.0723
H8 H 0.5723 0.8660 0.2665
H9 H 0.7665 0.9277 0.1340
C21 C 0.57222(11) 0.68496(10) 0.08100(10)
C22 C 0.58100(10) 0.92778(11) 0.31504(10)
C23 C 0.81504(10) 0.91900(10) 0.07222(11)
H12 H 0.5764 0.6670 0.0493
H13 H 0.5493 0.9236 0.3330
H14 H 0.8330 0.9507 0.0764
C26 C 0.53242(10) 0.67187(10) 0.11471(12)
C27 C 0.61471(12) 0.96758(10) 0.32813(10)
C28 C 0.82813(10) 0.88529(12) 0.03242(10)
C31 C 0.52720(9) 0.69756(11) 0.16032(11)
C32 C 0.66032(11) 0.97280(9) 0.30244(11)
C33 C 0.80244(11) 0.83968(11) 0.02720(9)
H17 H 0.5005 0.6877 0.1835
H18 H 0.6835 0.9995 0.3123
H19 H 0.8123 0.8165 0.0005
C36 C 0.56017(11) 0.73799(10) 0.17379(10)
C37 C 0.67379(10) 0.93983(11) 0.26201(10)
C38 C 0.76201(10) 0.82621(10) 0.06017(11)
H22 H 0.5561 0.7552 0.2059
H23 H 0.7059 0.9439 0.2448
H24 H 0.7448 0.7941 0.0561
C41 C 0.63387(13) 0.79623(10) 0.15246(14)
C42 C 0.70377(10) 0.84754(14) 0.13387(13)
C43 C 0.65246(14) 0.86613(13) 0.20377(10)
C46 C 0.49458(10) 0.62906(11) 0.10021(11)
H26 H 0.530959 0.488762 0.0202284
N1 N 0.17475(11) 0.69468(9) 0.87834(7)
O2 O 0.39850(6) 0.56113(6) 0.99672(5)
C1 C 0.24704(10) 0.63995(11) 0.90097(10)
C2 C 0.27484(12) 0.59447(11) 0.89399(9)
H1 H 0.2665 0.5723 0.8660
C3 C 0.31504(10) 0.58100(10) 0.92778(11)
H2 H 0.3330 0.5493 0.9236
C4 C 0.32813(10) 0.61471(12) 0.96758(10)
C5 C 0.30244(11) 0.66032(11) 0.97280(9)
H3 H 0.3123 0.6835 0.9995
C6 C 0.26201(10) 0.67379(10) 0.93983(11)
H4 H 0.2448 0.7059 0.9439
C7 C 0.20377(10) 0.65246(14) 0.86613(13)
N2 N 0.19468(9) 0.62166(7) 0.82525(11)
N3 N 0.12166(7) 0.67475(11) 0.80532(9)
Zn4 Zn 0.1250 0.3750 0.6250
Zn6 Zn 0.8750 0.8750 0.8750
Zn8 Zn 0.044976(9) 0.455024(9) 0.544976(9)
Zn10 Zn 0.955024(9) 0.955024(9) 0.955024(9)
O5 O 0.12920(5) 0.45604(6) 0.62257(5)
O8 O 0.87743(5) 0.87080(5) 0.95604(6)
O13 O 0.00328(5) 0.89850(6) 0.93887(6)
O14 O 0.06113(6) 0.50328(5) 0.60150(6)
C9 C 0.09903(10) 0.74704(10) 0.86005(11)
C10 C 0.13995(11) 0.59903(10) 0.75296(10)
C14 C 0.10601(9) 0.77484(12) 0.90553(11)
C15 C 0.09447(11) 0.60601(9) 0.72516(12)
H5 H 0.1340 0.7665 0.9277
H6 H 0.0723 0.6340 0.7335
C19 C 0.07222(11) 0.81504(10) 0.91900(10)
C20 C 0.08100(10) 0.57222(11) 0.68496(10)
H10 H 0.0764 0.8330 0.9507
H11 H 0.0493 0.5764 0.6670
C24 C 0.03242(10) 0.82813(10) 0.88529(12)
C25 C 0.11471(12) 0.53242(10) 0.67187(10)
C29 C 0.02720(9) 0.80244(11) 0.83968(11)
C30 C 0.16032(11) 0.52720(9) 0.69756(11)
H15 H 0.0005 0.8123 0.8165
H16 H 0.1835 0.5005 0.6877
C34 C 0.06017(11) 0.76201(10) 0.82621(10)
C35 C 0.17379(10) 0.56017(11) 0.73799(10)
H20 H 0.0561 0.7448 0.7941
H21 H 0.2059 0.5561 0.7552
C39 C 0.15246(14) 0.63387(13) 0.79623(10)
C40 C 0.13387(13) 0.70377(10) 0.84754(14)
C45 C 0.10021(11) 0.49458(10) 0.62906(11)
C48 C 0.87094(11) 0.89979(11) 0.99458(10)
H25 H 0.511238 0.520228 0.969041
H28 H 0.979772 0.0309595 0.0112376
O20 O 0.93887(6) 0.00328(5) 0.89850(6)
O4 O 0.95604(6) 0.87743(5) 0.87080(5)
O21 O 0.99987(6) 0.99987(6) 0.99987(6)
C44 C 0.99458(10) 0.87094(11) 0.89979(11)
N1_2 N 0.32525(11) 0.30532(9) 0.37834(7)
O1_2 O 0.12257(5) 0.37080(5) 0.54396(6)
O2_2 O 0.10150(6) 0.43887(6) 0.49672(5)
O3_2 O 0.00013(6) 0.49987(6) 0.50013(6)
C1_2 C 0.25296(10) 0.36005(11) 0.40097(10)
C2_2 C 0.22516(12) 0.40553(11) 0.39399(9)
H1_2 H 0.2335 0.4277 0.3660
C3_2 C 0.18496(10) 0.41900(10) 0.42778(11)
H2_2 H 0.1670 0.4507 0.4236
C4_2 C 0.17187(10) 0.38529(12) 0.46758(10)
C5_2 C 0.19756(11) 0.33968(11) 0.47280(9)
H3_2 H 0.1877 0.3165 0.4995
C6_2 C 0.23799(10) 0.32621(10) 0.43983(11)
H4_2 H 0.2552 0.2941 0.4439
C7_2 C 0.29623(10) 0.34754(14) 0.36613(13)
C8_2 C 0.12906(11) 0.39979(11) 0.50542(10)
N2_2 N 0.30532(9) 0.37834(7) 0.32525(11)
N3_2 N 0.37834(7) 0.32525(11) 0.30532(9)
O4_2 O 0.54396(6) 0.12257(5) 0.37080(5)
O6_2 O 0.04396(6) 0.37743(5) 0.62920(5)
O10_2 O 0.12080(5) 0.37257(5) 0.70604(6)
O11_2 O 0.12743(5) 0.29396(6) 0.62080(5)
O12_2 O 0.20604(6) 0.37920(5) 0.62743(5)
O13_2 O 0.49672(5) 0.10150(6) 0.43887(6)
O19 O 0.60150(6) 0.06113(6) 0.50328(5)
O21_2 O 0.50013(6) 0.00013(6) 0.49987(6)
C9_2 C 0.40097(10) 0.25296(10) 0.36005(11)
C10_2 C 0.36005(11) 0.40097(10) 0.25296(10)
C14_2 C 0.39399(9) 0.22516(12) 0.40553(11)
C15_2 C 0.40553(11) 0.39399(9) 0.22516(12)
H5_2 H 0.3660 0.2335 0.4277
H6_2 H 0.4277 0.3660 0.2335
C19_2 C 0.42778(11) 0.18496(10) 0.41900(10)
C20_2 C 0.41900(10) 0.42778(11) 0.18496(10)
H10_2 H 0.4236 0.1670 0.4507
H11_2 H 0.4507 0.4236 0.1670
C24_2 C 0.46758(10) 0.17187(10) 0.38529(12)
C25_2 C 0.38529(12) 0.46758(10) 0.17187(10)
C29_2 C 0.47280(9) 0.19756(11) 0.33968(11)
C30_2 C 0.33968(11) 0.47280(9) 0.19756(11)
H15_2 H 0.4995 0.1877 0.3165
H16_2 H 0.3165 0.4995 0.1877
C34_2 C 0.43983(11) 0.23799(10) 0.32621(10)
C35_2 C 0.32621(10) 0.43983(11) 0.23799(10)
H20_2 H 0.4439 0.2552 0.2941
H21_2 H 0.2941 0.4439 0.2552
C39_2 C 0.34754(14) 0.36613(13) 0.29623(10)
C40_2 C 0.36613(13) 0.29623(10) 0.34754(14)
C44_2 C 0.50542(10) 0.12906(11) 0.39979(11)
C45_2 C 0.39979(11) 0.50542(10) 0.12906(11)
C46_2 C 0.00542(10) 0.37094(11) 0.60021(11)
H27_2 H 0.469041 0.988762 0.479772
H28_2 H 0.520228 0.969041 0.511238
N4_2 N 0.87834(7) 0.17475(11) 0.69468(9)
N5_2 N 0.82525(11) 0.19468(9) 0.62166(7)
N6_2 N 0.80532(9) 0.12166(7) 0.67475(11)
O8_2 O 0.62257(5) 0.12920(5) 0.45604(6)
O15_2 O 0.99672(5) 0.39850(6) 0.56113(6)
C11_2 C 0.90097(10) 0.24704(10) 0.63995(11)
C12_2 C 0.86005(11) 0.09903(10) 0.74704(10)
C13_2 C 0.75296(10) 0.13995(11) 0.59903(10)
C16_2 C 0.89399(9) 0.27484(12) 0.59447(11)
C17_2 C 0.90553(11) 0.10601(9) 0.77484(12)
C18_2 C 0.72516(12) 0.09447(11) 0.60601(9)
H7_2 H 0.8660 0.2665 0.5723
H8_2 H 0.9277 0.1340 0.7665
H9_2 H 0.7335 0.0723 0.6340
C21_2 C 0.92778(11) 0.31504(10) 0.58100(10)
C22_2 C 0.91900(10) 0.07222(11) 0.81504(10)
C23_2 C 0.68496(10) 0.08100(10) 0.57222(11)
H12_2 H 0.9236 0.3330 0.5493
H13_2 H 0.9507 0.0764 0.8330
H14_2 H 0.6670 0.0493 0.5764
C26_2 C 0.96758(10) 0.32813(10) 0.61471(12)
C27_2 C 0.88529(12) 0.03242(10) 0.82813(10)
C28_2 C 0.67187(10) 0.11471(12) 0.53242(10)
C31_2 C 0.97280(9) 0.30244(11) 0.66032(11)
C32_2 C 0.83968(11) 0.02720(9) 0.80244(11)
C33_2 C 0.69756(11) 0.16032(11) 0.52720(9)
H17_2 H 0.9995 0.3123 0.6835
H18_2 H 0.8165 0.0005 0.8123
H19_2 H 0.6877 0.1835 0.5005
C36_2 C 0.93983(11) 0.26201(10) 0.67379(10)
C37_2 C 0.82621(10) 0.06017(11) 0.76201(10)
C38_2 C 0.73799(10) 0.17379(10) 0.56017(11)
H22_2 H 0.9439 0.2448 0.7059
H23_2 H 0.7941 0.0561 0.7448
H24_2 H 0.7552 0.2059 0.5561
C41_2 C 0.86613(13) 0.20377(10) 0.65246(14)
C42_2 C 0.79623(10) 0.15246(14) 0.63387(13)
C43_2 C 0.84754(14) 0.13387(13) 0.70377(10)
C48_2 C 0.62906(11) 0.10021(11) 0.49458(10)
H25_2 H 0.988762 0.479772 0.469041
H26_2 H 0.969041 0.511238 0.520228
O7_2 O 0.87080(5) 0.95604(6) 0.87743(5)
C47_2 C 0.89979(11) 0.99458(10) 0.87094(11)
H28_3 H 0.0202284 0.530959 0.488762
O10_3 O 0.62080(5) 0.12743(5) 0.29396(6)
O11_3 O 0.62743(5) 0.20604(6) 0.37920(5)
O12_3 O 0.70604(6) 0.12080(5) 0.37257(5)
H25_3 H 0.488762 0.0202284 0.530959
H25_4 H 0.0112376 0.979772 0.0309595
O10_4 O 0.87920(5) 0.87257(5) 0.79396(6)
O11_4 O 0.87257(5) 0.79396(6) 0.87920(5)
O12_4 O 0.79396(6) 0.87920(5) 0.87257(5)
H28_4 H 0.479772 0.469041 0.988762
Zn10_2 Zn 0.705024(9) 0.205024(9) 0.294976(9)
O17_2 O 0.68887(6) 0.14850(6) 0.24672(5)
C18_3 C 0.65553(11) 0.02484(12) 0.14399(9)
H9_3 H 0.6777 0.0165 0.1160
C23_3 C 0.66900(10) 0.06504(10) 0.17778(11)
H14_3 H 0.7007 0.0830 0.1736
C28_3 C 0.63529(12) 0.07813(10) 0.21758(10)
C33_3 C 0.58968(11) 0.05244(11) 0.22280(9)
H19_3 H 0.5665 0.0623 0.2495
C38_3 C 0.57621(10) 0.01201(10) 0.18983(11)
C48_3 C 0.64979(11) 0.12094(11) 0.25542(10)
N1_3 N 0.44468(9) 0.42475(11) 0.37166(7)
Zn2_2 Zn 0.294976(9) 0.705024(9) 0.205024(9)
O2_3 O 0.31113(6) 0.64850(6) 0.25328(5)
O3_3 O 0.25013(6) 0.74987(6) 0.24987(6)
C1_3 C 0.38995(11) 0.49704(10) 0.34903(10)
C2_3 C 0.34447(11) 0.52484(12) 0.35601(9)
H1_3 H 0.3223 0.5165 0.3840
C3_3 C 0.33100(10) 0.56504(10) 0.32222(11)
H2_3 H 0.2993 0.5830 0.3264
C4_3 C 0.36471(12) 0.57813(10) 0.28242(10)
C5_3 C 0.41032(11) 0.55244(11) 0.27720(9)
H3_3 H 0.4335 0.5623 0.2505
C6_3 C 0.42379(10) 0.51201(10) 0.31017(11)
H4_3 H 0.4559 0.4948 0.3061
C7_3 C 0.40246(14) 0.45377(10) 0.38387(13)
C8_3 C 0.35021(11) 0.62094(11) 0.24458(10)
N2_3 N 0.37166(7) 0.44468(9) 0.42475(11)
N3_3 N 0.42475(11) 0.37166(7) 0.44468(9)
N4_3 N 0.57525(11) 0.87166(7) 0.05532(9)
N5_3 N 0.55532(9) 0.92475(11) 0.12834(7)
N6_3 N 0.62834(7) 0.94468(9) 0.07525(11)
Zn8_2 Zn 0.205024(9) 0.294976(9) 0.705024(9)
O13_3 O 0.64850(6) 0.25328(5) 0.31113(6)
O14_2 O 0.25328(5) 0.31113(6) 0.64850(6)
O15_3 O 0.35150(6) 0.75328(5) 0.18887(6)
O18_2 O 0.24672(5) 0.68887(6) 0.14850(6)
O20_2 O 0.75328(5) 0.18887(6) 0.35150(6)
O21_3 O 0.74987(6) 0.24987(6) 0.25013(6)
C9_3 C 0.49704(10) 0.34903(10) 0.38995(11)
C10_3 C 0.34903(10) 0.38995(11) 0.49704(10)
C11_3 C 0.50296(10) 0.84903(10) 0.11005(11)
C12_3 C 0.65097(10) 0.88995(11) 0.00296(10)
C13_3 C 0.61005(11) 0.99704(10) 0.15097(10)
C14_3 C 0.52484(12) 0.35601(9) 0.34447(11)
C15_3 C 0.35601(9) 0.34447(11) 0.52484(12)
C16_3 C 0.47516(12) 0.85601(9) 0.15553(11)
H5_3 H 0.5165 0.3840 0.3223
H6_3 H 0.3840 0.3223 0.5165
H7_3 H 0.4835 0.8840 0.1777
C19_3 C 0.56504(10) 0.32222(11) 0.33100(10)
C20_3 C 0.32222(11) 0.33100(10) 0.56504(10)
C21_3 C 0.43496(10) 0.82222(11) 0.16900(10)
H10_3 H 0.5830 0.3264 0.2993
H11_3 H 0.3264 0.2993 0.5830
H12_3 H 0.4170 0.8264 0.2007
C24_3 C 0.57813(10) 0.28242(10) 0.36471(12)
C25_3 C 0.28242(10) 0.36471(12) 0.57813(10)
C26_3 C 0.42187(10) 0.78242(10) 0.13529(12)
C29_3 C 0.55244(11) 0.27720(9) 0.41032(11)
C30_3 C 0.27720(9) 0.41032(11) 0.55244(11)
C31_3 C 0.44756(11) 0.77720(9) 0.08968(11)
H15_3 H 0.5623 0.2505 0.4335
H16_3 H 0.2505 0.4335 0.5623
H17_3 H 0.4377 0.7505 0.0665
C34_3 C 0.51201(10) 0.31017(11) 0.42379(10)
C35_3 C 0.31017(11) 0.42379(10) 0.51201(10)
C36_3 C 0.48799(10) 0.81017(11) 0.07621(10)
H20_3 H 0.4948 0.3061 0.4559
H21_3 H 0.3061 0.4559 0.4948
H22_3 H 0.5052 0.8061 0.0441
H23_3 H 0.6939 0.9559 0.0052
H24_3 H 0.5441 0.9948 0.1939
C39_3 C 0.38387(13) 0.40246(14) 0.45377(10)
C40_3 C 0.45377(10) 0.38387(13) 0.40246(14)
C41_3 C 0.54623(10) 0.88387(13) 0.09754(14)
C42_3 C 0.59754(14) 0.95377(10) 0.11613(13)
C43_3 C 0.61613(13) 0.90246(14) 0.04623(10)
C44_3 C 0.62094(11) 0.24458(10) 0.35021(11)
C45_3 C 0.24458(10) 0.35021(11) 0.62094(11)
C46_3 C 0.37906(11) 0.74458(10) 0.14979(11)
Zn9_2 Zn 0.794976(9) 0.794976(9) 0.794976(9)
O16_2 O 0.74672(5) 0.81113(6) 0.85150(6)
C17_3 C 0.64399(9) 0.84447(11) 0.97516(12)
H8_3 H 0.6160 0.8223 0.9835
C22_3 C 0.67778(11) 0.83100(10) 0.93496(10)
H13_3 H 0.6736 0.7993 0.9170
C27_3 C 0.71758(10) 0.86471(12) 0.92187(10)
C32_3 C 0.72280(9) 0.91032(11) 0.94756(11)
H18_3 H 0.7495 0.9335 0.9377
C37_3 C 0.68983(11) 0.92379(10) 0.98799(10)
C47_3 C 0.75542(10) 0.85021(11) 0.87906(11)
C15_4 C 0.14399(9) 0.65553(11) 0.02484(12)
H6_4 H 0.1160 0.6777 0.0165
C20_4 C 0.17778(11) 0.66900(10) 0.06504(10)
H11_4 H 0.1736 0.7007 0.0830
C25_4 C 0.21758(10) 0.63529(12) 0.07813(10)
C30_4 C 0.22280(9) 0.58968(11) 0.05244(11)
H16_4 H 0.2495 0.5665 0.0623
C35_4 C 0.18983(11) 0.57621(10) 0.01201(10)
C45_4 C 0.25542(10) 0.64979(11) 0.12094(11)
N1_4 N 0.05532(9) 0.57525(11) 0.87166(7)
O2_4 O 0.18887(6) 0.35150(6) 0.75328(5)
O3_4 O 0.24987(6) 0.25013(6) 0.74987(6)
C1_4 C 0.11005(11) 0.50296(10) 0.84903(10)
C2_4 C 0.15553(11) 0.47516(12) 0.85601(9)
H1_4 H 0.1777 0.4835 0.8840
C3_4 C 0.16900(10) 0.43496(10) 0.82222(11)
H2_4 H 0.2007 0.4170 0.8264
C4_4 C 0.13529(12) 0.42187(10) 0.78242(10)
C5_4 C 0.08968(11) 0.44756(11) 0.77720(9)
H3_4 H 0.0665 0.4377 0.7505
C6_4 C 0.07621(10) 0.48799(10) 0.81017(11)
H4_4 H 0.0441 0.5052 0.8061
C7_4 C 0.09754(14) 0.54623(10) 0.88387(13)
C8_4 C 0.14979(11) 0.37906(11) 0.74458(10)
N2_4 N 0.12834(7) 0.55532(9) 0.92475(11)
N3_4 N 0.07525(11) 0.62834(7) 0.94468(9)
O15_4 O 0.14850(6) 0.24672(5) 0.68887(6)
C9_4 C 0.00296(10) 0.65097(10) 0.88995(11)
C10_4 C 0.15097(10) 0.61005(11) 0.99704(10)
C16_4 C 0.02484(12) 0.14399(9) 0.65553(11)
H7_4 H 0.0165 0.1160 0.6777
C21_4 C 0.06504(10) 0.17778(11) 0.66900(10)
H12_4 H 0.0830 0.1736 0.7007
C26_4 C 0.07813(10) 0.21758(10) 0.63529(12)
C31_4 C 0.05244(11) 0.22280(9) 0.58968(11)
H17_4 H 0.0623 0.2495 0.5665
C36_4 C 0.01201(10) 0.18983(11) 0.57621(10)
H20_4 H 0.0052 0.6939 0.9559
H21_4 H 0.1939 0.5441 0.9948
C39_4 C 0.11613(13) 0.59754(14) 0.95377(10)
C40_4 C 0.04623(10) 0.61613(13) 0.90246(14)
C46_4 C 0.12094(11) 0.25542(10) 0.64979(11)
N4_4 N 0.92475(11) 0.12834(7) 0.55532(9)
N5_4 N 0.94468(9) 0.07525(11) 0.62834(7)
N6_4 N 0.87166(7) 0.05532(9) 0.57525(11)
O13_4 O 0.85150(6) 0.74672(5) 0.81113(6)
O19_2 O 0.81113(6) 0.85150(6) 0.74672(5)
O21_4 O 0.75013(6) 0.75013(6) 0.75013(6)
C11_4 C 0.99704(10) 0.15097(10) 0.61005(11)
C12_4 C 0.84903(10) 0.11005(11) 0.50296(10)
C13_4 C 0.88995(11) 0.00296(10) 0.65097(10)
C14_4 C 0.97516(12) 0.64399(9) 0.84447(11)
C17_4 C 0.85601(9) 0.15553(11) 0.47516(12)
H5_4 H 0.9835 0.6160 0.8223
H8_4 H 0.8840 0.1777 0.4835
C19_4 C 0.93496(10) 0.67778(11) 0.83100(10)
C22_4 C 0.82222(11) 0.16900(10) 0.43496(10)
H10_4 H 0.9170 0.6736 0.7993
H13_4 H 0.8264 0.2007 0.4170
C24_4 C 0.92187(10) 0.71758(10) 0.86471(12)
C27_4 C 0.78242(10) 0.13529(12) 0.42187(10)
C29_4 C 0.94756(11) 0.72280(9) 0.91032(11)
C32_4 C 0.77720(9) 0.08968(11) 0.44756(11)
H15_4 H 0.9377 0.7495 0.9335
H18_4 H 0.7505 0.0665 0.4377
C34_4 C 0.98799(10) 0.68983(11) 0.92379(10)
C37_4 C 0.81017(11) 0.07621(10) 0.48799(10)
H22_4 H 0.9948 0.1939 0.5441
H23_4 H 0.8061 0.0441 0.5052
H24_4 H 0.9559 0.0052 0.6939
C41_4 C 0.95377(10) 0.11613(13) 0.59754(14)
C42_4 C 0.90246(14) 0.04623(10) 0.61613(13)
C43_4 C 0.88387(13) 0.09754(14) 0.54623(10)
C44_4 C 0.87906(11) 0.75542(10) 0.85021(11)
C47_4 C 0.74458(10) 0.14979(11) 0.37906(11)
C18_4 C 0.84447(11) 0.97516(12) 0.64399(9)
H9_4 H 0.8223 0.9835 0.6160
C23_4 C 0.83100(10) 0.93496(10) 0.67778(11)
H14_4 H 0.7993 0.9170 0.6736
C28_4 C 0.86471(12) 0.92187(10) 0.71758(10)
C33_4 C 0.91032(11) 0.94756(11) 0.72280(9)
H19_4 H 0.9335 0.9377 0.7495
C38_4 C 0.92379(10) 0.98799(10) 0.68983(11)
C48_4 C 0.85021(11) 0.87906(11) 0.75542(10)
loop_
_geom_bond_atom_site_label_1
_geom_bond_atom_site_label_2
_geom_bond_site_symmetry_1
_geom_bond_site_symmetry_2
Zn5 O7 1_555 1_555
O7 C47 1_555 1_555
Zn1 O1 1_555 1_555
O1 C8 1_555 1_555
O3 Zn2 1_555 1_555
N4 C41 1_555 1_555
N5 C41 1_555 1_555
N6 C42 1_555 1_555
O6 Zn1 1_555 1_555
O9 Zn1 1_555 1_555
O10 Zn1 1_555 1_555
O11 Zn1 1_555 1_555
O12 Zn1 1_555 1_555
O15 Zn2 1_555 1_555
O18 Zn2 1_555 1_555
C11 C16 1_555 1_555
C12 C17 1_555 1_555
C13 C18 1_555 1_555
C16 H7 1_555 1_555
C17 H8 1_555 1_555
C18 H9 1_555 1_555
C21 C16 1_555 1_555
C22 C17 1_555 1_555
C23 C18 1_555 1_555
H12 C21 1_555 1_555
H13 C22 1_555 1_555
H14 C23 1_555 1_555
C26 C21 1_555 1_555
C27 C22 1_555 1_555
C28 C23 1_555 1_555
C31 C26 1_555 1_555
C32 C27 1_555 1_555
C33 C28 1_555 1_555
H17 C31 1_555 1_555
H18 C32 1_555 1_555
H19 C33 1_555 1_555
C36 C11 1_555 1_555
C37 C12 1_555 1_555
C38 C13 1_555 1_555
H22 C36 1_555 1_555
H23 C37 1_555 1_555
H24 C38 1_555 1_555
C41 C11 1_555 1_555
C42 N5 1_555 1_555
C43 N4 1_555 1_555
C46 O6 1_555 1_555
N6 C43 1_555 1_555
O15 C46 1_555 1_555
C12 C43 1_555 1_555
C13 C42 1_555 1_555
C26 C46 1_555 1_555
C31 C36 1_555 1_555
C32 C37 1_555 1_555
C33 C38 1_555 1_555
O3 H26 1_555 1_555
N1 C7 1_555 1_555
C1 C2 1_555 1_555
C2 H1 1_555 1_555
C3 C2 1_555 1_555
H2 C3 1_555 1_555
C4 C3 1_555 1_555
C5 C4 1_555 1_555
H3 C5 1_555 1_555
C6 C1 1_555 1_555
H4 C6 1_555 1_555
C7 C1 1_555 1_555
N2 C7 1_555 1_555
N3 C39 1_555 1_555
Zn4 O5 1_555 1_555
Zn6 O8 1_555 1_555
Zn8 O14 1_555 1_555
O5 C45 1_555 1_555
O8 C48 1_555 1_555
O14 C45 1_555 1_555
C9 C14 1_555 1_555
C10 C15 1_555 1_555
C14 H5 1_555 1_555
C15 H6 1_555 1_555
C19 C14 1_555 1_555
C20 C15 1_555 1_555
H10 C19 1_555 1_555
H11 C20 1_555 1_555
C24 C19 1_555 1_555
C25 C20 1_555 1_555
C29 C24 1_555 1_555
C30 C25 1_555 1_555
H15 C29 1_555 1_555
H16 C30 1_555 1_555
C34 C9 1_555 1_555
C35 C10 1_555 1_555
H20 C34 1_555 1_555
H21 C35 1_555 1_555
C39 N2 1_555 1_555
C40 N1 1_555 1_555
C45 C25 1_555 1_555
C5 C6 1_555 1_555
N3 C40 1_555 1_555
C9 C40 1_555 1_555
C10 C39 1_555 1_555
C29 C34 1_555 1_555
C30 C35 1_555 1_555
Zn6 O4 1_555 1_555
O4 C44 1_555 1_555
O21 Zn10 1_555 1_555
N1_2 C7_2 1_555 1_555
Zn4 O1_2 1_555 1_555
Zn8 O2_2 1_555 1_555
O1_2 C8_2 1_555 1_555
O2_2 C8_2 1_555 1_555
O3_2 Zn8 1_555 1_555
C1_2 C2_2 1_555 1_555
C2_2 H1_2 1_555 1_555
C3_2 C2_2 1_555 1_555
H2_2 C3_2 1_555 1_555
C4_2 C3_2 1_555 1_555
C5_2 C4_2 1_555 1_555
H3_2 C5_2 1_555 1_555
C6_2 C1_2 1_555 1_555
H4_2 C6_2 1_555 1_555
C7_2 C1_2 1_555 1_555
C8_2 C4_2 1_555 1_555
N2_2 C7_2 1_555 1_555
N3_2 C39_2 1_555 1_555
Zn5 O4_2 1_555 1_555
Zn9 O13_2 1_555 1_555
O4_2 C44_2 1_555 1_555
O9 C45_2 1_555 1_555
O6_2 Zn4 1_555 1_555
O10_2 Zn4 1_555 1_555
O11_2 Zn4 1_555 1_555
O12_2 Zn4 1_555 1_555
O13_2 C44_2 1_555 1_555
O18 C45_2 1_555 1_555
O19 Zn9 1_555 1_555
O21_2 Zn9 1_555 1_555
C9_2 C14_2 1_555 1_555
C10_2 C15_2 1_555 1_555
C14_2 H5_2 1_555 1_555
C15_2 H6_2 1_555 1_555
C19_2 C14_2 1_555 1_555
C20_2 C15_2 1_555 1_555
H10_2 C19_2 1_555 1_555
H11_2 C20_2 1_555 1_555
C24_2 C19_2 1_555 1_555
C25_2 C20_2 1_555 1_555
C29_2 C24_2 1_555 1_555
C30_2 C25_2 1_555 1_555
H15_2 C29_2 1_555 1_555
H16_2 C30_2 1_555 1_555
C34_2 C9_2 1_555 1_555
C35_2 C10_2 1_555 1_555
H20_2 C34_2 1_555 1_555
H21_2 C35_2 1_555 1_555
C39_2 N2_2 1_555 1_555
C40_2 N1_2 1_555 1_555
C44_2 C24_2 1_555 1_555
C45_2 C25_2 1_555 1_555
C46_2 O6_2 1_555 1_555
C5_2 C6_2 1_555 1_555
N3_2 C40_2 1_555 1_555
C9_2 C40_2 1_555 1_555
C10_2 C39_2 1_555 1_555
C29_2 C34_2 1_555 1_555
C30_2 C35_2 1_555 1_555
N4_2 C41_2 1_555 1_555
N5_2 C41_2 1_555 1_555
N6_2 C42_2 1_555 1_555
Zn5 O8_2 1_555 1_555
O8_2 C48_2 1_555 1_555
O19 C48_2 1_555 1_555
C11_2 C16_2 1_555 1_555
C12_2 C17_2 1_555 1_555
C13_2 C18_2 1_555 1_555
C16_2 H7_2 1_555 1_555
C17_2 H8_2 1_555 1_555
C18_2 H9_2 1_555 1_555
C21_2 C16_2 1_555 1_555
C22_2 C17_2 1_555 1_555
C23_2 C18_2 1_555 1_555
H12_2 C21_2 1_555 1_555
H13_2 C22_2 1_555 1_555
H14_2 C23_2 1_555 1_555
C26_2 C21_2 1_555 1_555
C27_2 C22_2 1_555 1_555
C28_2 C23_2 1_555 1_555
C31_2 C26_2 1_555 1_555
C32_2 C27_2 1_555 1_555
C33_2 C28_2 1_555 1_555
H17_2 C31_2 1_555 1_555
H18_2 C32_2 1_555 1_555
H19_2 C33_2 1_555 1_555
C36_2 C11_2 1_555 1_555
C37_2 C12_2 1_555 1_555
C38_2 C13_2 1_555 1_555
H22_2 C36_2 1_555 1_555
H23_2 C37_2 1_555 1_555
H24_2 C38_2 1_555 1_555
C41_2 C11_2 1_555 1_555
C42_2 N5_2 1_555 1_555
C43_2 N4_2 1_555 1_555
C48_2 C28_2 1_555 1_555
N6_2 C43_2 1_555 1_555
C12_2 C43_2 1_555 1_555
C13_2 C42_2 1_555 1_555
C31_2 C36_2 1_555 1_555
C32_2 C37_2 1_555 1_555
C33_2 C38_2 1_555 1_555
Zn6 O7_2 1_555 1_555
O7_2 C47_2 1_555 1_555
O3_2 H28_3 1_555 1_555
O10_3 Zn5 1_555 1_555
O11_3 Zn5 1_555 1_555
O12_3 Zn5 1_555 1_555
O21_2 H25_3 1_555 1_555
O10_4 Zn6 1_555 1_555
O11_4 Zn6 1_555 1_555
O12_4 Zn6 1_555 1_555
Zn10_2 O17_2 1_555 1_555
O10_3 C48_3 1_555 1_555
O17_2 C48_3 1_555 1_555
C18_3 H9_3 1_555 1_555
C23_3 C18_3 1_555 1_555
H14_3 C23_3 1_555 1_555
C28_3 C23_3 1_555 1_555
C33_3 C28_3 1_555 1_555
H19_3 C33_3 1_555 1_555
C48_3 C28_3 1_555 1_555
C33_3 C38_3 1_555 1_555
N1_3 C7_3 1_555 1_555
Zn2_2 O2_3 1_555 1_555
O10 C8_3 1_555 1_555
O2_3 C8_3 1_555 1_555
O3_3 Zn2_2 1_555 1_555
C1_3 C2_3 1_555 1_555
C2_3 H1_3 1_555 1_555
C3_3 C2_3 1_555 1_555
H2_3 C3_3 1_555 1_555
C4_3 C3_3 1_555 1_555
C5_3 C4_3 1_555 1_555
H3_3 C5_3 1_555 1_555
C6_3 C1_3 1_555 1_555
H4_3 C6_3 1_555 1_555
C7_3 C1_3 1_555 1_555
C8_3 C4_3 1_555 1_555
N2_3 C7_3 1_555 1_555
N3_3 C39_3 1_555 1_555
N4_3 C41_3 1_555 1_555
N5_3 C41_3 1_555 1_555
N6_3 C42_3 1_555 1_555
Zn10_2 O13_3 1_555 1_555
Zn8_2 O14_2 1_555 1_555
O11_3 C44_3 1_555 1_555
O12_2 C45_3 1_555 1_555
O13_3 C44_3 1_555 1_555
O14_2 C45_3 1_555 1_555
O15_3 Zn2_2 1_555 1_555
O18_2 Zn2_2 1_555 1_555
O20_2 Zn10_2 1_555 1_555
O21_3 Zn10_2 1_555 1_555
C9_3 C14_3 1_555 1_555
C10_3 C15_3 1_555 1_555
C11_3 C16_3 1_555 1_555
C14_3 H5_3 1_555 1_555
C15_3 H6_3 1_555 1_555
C16_3 H7_3 1_555 1_555
C19_3 C14_3 1_555 1_555
C20_3 C15_3 1_555 1_555
C21_3 C16_3 1_555 1_555
H10_3 C19_3 1_555 1_555
H11_3 C20_3 1_555 1_555
H12_3 C21_3 1_555 1_555
C24_3 C19_3 1_555 1_555
C25_3 C20_3 1_555 1_555
C26_3 C21_3 1_555 1_555
C29_3 C24_3 1_555 1_555
C30_3 C25_3 1_555 1_555
C31_3 C26_3 1_555 1_555
H15_3 C29_3 1_555 1_555
H16_3 C30_3 1_555 1_555
H17_3 C31_3 1_555 1_555
C34_3 C9_3 1_555 1_555
C35_3 C10_3 1_555 1_555
C36_3 C11_3 1_555 1_555
H20_3 C34_3 1_555 1_555
H21_3 C35_3 1_555 1_555
H22_3 C36_3 1_555 1_555
C39_3 N2_3 1_555 1_555
C40_3 N1_3 1_555 1_555
C41_3 C11_3 1_555 1_555
C42_3 N5_3 1_555 1_555
C43_3 N4_3 1_555 1_555
C44_3 C24_3 1_555 1_555
C45_3 C25_3 1_555 1_555
C46_3 O11 1_555 1_555
C5_3 C6_3 1_555 1_555
N3_3 C40_3 1_555 1_555
N6_3 C43_3 1_555 1_555
O15_3 C46_3 1_555 1_555
C9_3 C40_3 1_555 1_555
C10_3 C39_3 1_555 1_555
C12_3 C43_3 1_555 1_555
C13_3 C42_3 1_555 1_555
C26_3 C46_3 1_555 1_555
C29_3 C34_3 1_555 1_555
C30_3 C35_3 1_555 1_555
C31_3 C36_3 1_555 1_555
Zn9_2 O16_2 1_555 1_555
O12_4 C47_3 1_555 1_555
O16_2 C47_3 1_555 1_555
C17_3 H8_3 1_555 1_555
C22_3 C17_3 1_555 1_555
H13_3 C22_3 1_555 1_555
C27_3 C22_3 1_555 1_555
C32_3 C27_3 1_555 1_555
H18_3 C32_3 1_555 1_555
C47_3 C27_3 1_555 1_555
C32_3 C37_3 1_555 1_555
O12 C45_4 1_555 1_555
O18_2 C45_4 1_555 1_555
C15_4 H6_4 1_555 1_555
C20_4 C15_4 1_555 1_555
H11_4 C20_4 1_555 1_555
C25_4 C20_4 1_555 1_555
C30_4 C25_4 1_555 1_555
H16_4 C30_4 1_555 1_555
C45_4 C25_4 1_555 1_555
C30_4 C35_4 1_555 1_555
N1_4 C7_4 1_555 1_555
Zn8_2 O2_4 1_555 1_555
O10_2 C8_4 1_555 1_555
O2_4 C8_4 1_555 1_555
O3_4 Zn8_2 1_555 1_555
C1_4 C2_4 1_555 1_555
C2_4 H1_4 1_555 1_555
C3_4 C2_4 1_555 1_555
H2_4 C3_4 1_555 1_555
C4_4 C3_4 1_555 1_555
C5_4 C4_4 1_555 1_555
H3_4 C5_4 1_555 1_555
C6_4 C1_4 1_555 1_555
H4_4 C6_4 1_555 1_555
C7_4 C1_4 1_555 1_555
C8_4 C4_4 1_555 1_555
N2_4 C7_4 1_555 1_555
N3_4 C39_4 1_555 1_555
O15_4 Zn8_2 1_555 1_555
C16_4 H7_4 1_555 1_555
C21_4 C16_4 1_555 1_555
H12_4 C21_4 1_555 1_555
C26_4 C21_4 1_555 1_555
C31_4 C26_4 1_555 1_555
H17_4 C31_4 1_555 1_555
C39_4 N2_4 1_555 1_555
C40_4 N1_4 1_555 1_555
C46_4 O11_2 1_555 1_555
C5_4 C6_4 1_555 1_555
N3_4 C40_4 1_555 1_555
O15_4 C46_4 1_555 1_555
C9_4 C40_4 1_555 1_555
C10_4 C39_4 1_555 1_555
C26_4 C46_4 1_555 1_555
C31_4 C36_4 1_555 1_555
N4_4 C41_4 1_555 1_555
N5_4 C41_4 1_555 1_555
N6_4 C42_4 1_555 1_555
Zn9_2 O13_4 1_555 1_555
O11_4 C44_4 1_555 1_555
O12_3 C47_4 1_555 1_555
O13_4 C44_4 1_555 1_555
O20_2 C47_4 1_555 1_555
O19_2 Zn9_2 1_555 1_555
O21_4 Zn9_2 1_555 1_555
C12_4 C17_4 1_555 1_555
C14_4 H5_4 1_555 1_555
C17_4 H8_4 1_555 1_555
C19_4 C14_4 1_555 1_555
C22_4 C17_4 1_555 1_555
H10_4 C19_4 1_555 1_555
H13_4 C22_4 1_555 1_555
C24_4 C19_4 1_555 1_555
C27_4 C22_4 1_555 1_555
C29_4 C24_4 1_555 1_555
C32_4 C27_4 1_555 1_555
H15_4 C29_4 1_555 1_555
H18_4 C32_4 1_555 1_555
C37_4 C12_4 1_555 1_555
H23_4 C37_4 1_555 1_555
C41_4 C11_4 1_555 1_555
C42_4 N5_4 1_555 1_555
C43_4 N4_4 1_555 1_555
C44_4 C24_4 1_555 1_555
C47_4 C27_4 1_555 1_555
N6_4 C43_4 1_555 1_555
C12_4 C43_4 1_555 1_555
C13_4 C42_4 1_555 1_555
C29_4 C34_4 1_555 1_555
C32_4 C37_4 1_555 1_555
O10_4 C48_4 1_555 1_555
O19_2 C48_4 1_555 1_555
C18_4 H9_4 1_555 1_555
C23_4 C18_4 1_555 1_555
H14_4 C23_4 1_555 1_555
C28_4 C23_4 1_555 1_555
C33_4 C28_4 1_555 1_555
H19_4 C33_4 1_555 1_555
C48_4 C28_4 1_555 1_555
C33_4 C38_4 1_555 1_555

#END
