
###############################################################################
#
# This file contains modified crystal structure data generated from the
# MOF subset of the Cambridge Structural Database (CSD) v543 
# hosted by the Cambridge Crystallographic Data Centre (CCDC).
#
# This work is licensed under the Creative Commons
# Attribution-NonCommercial-ShareAlike 4.0 International License.
# To view a copy of this license, visit
# http://creativecommons.org/licenses/by-nc-sa/4.0/
# or send a letter to
# Creative Commons, PO Box 1866, Mountain View, CA 94042, USA.
#
# CIF created using the CSD Python API on 29 September 2022
# The structure has been converted into the P1 space group
# The structure has a 3D framework
# The original CSD entry PIBPIA is in the cubic crystal system
# The original CSD entry PIBPIA is in a Sohncke space group
# The framework has been calculated to contain at least 10.0% void space
# The void calculation uses a probe of radius 1.32A, grid spacing 0.4
# H atom positions have been added when not included in the experimental data
# Generated hydrogen atom positions removed from atoms on special positions
#
###############################################################################

data_PIBPIA
_chemical_formula_moiety         '(C192 H120 Cd9 N24 O50)n'
_symmetry_cell_setting           triclinic
_symmetry_space_group_name_H-M   'P 1'
_symmetry_Int_Tables_number      1
_space_group_name_Hall           'P 1'
loop_
_symmetry_equiv_pos_site_id
_symmetry_equiv_pos_as_xyz
1 x,y,z
_cell_length_a                   26.001(3)
_cell_length_b                   26.001(3)
_cell_length_c                   26.001(3)
_cell_angle_alpha                90
_cell_angle_beta                 90
_cell_angle_gamma                90
_cell_volume                     17578
loop_
_atom_site_label
_atom_site_type_symbol
_atom_site_fract_x
_atom_site_fract_y
_atom_site_fract_z
Cd1 Cd 0.1250 0.1250 0.1250
Cd2 Cd 0.20625(5) 0.20625(5) 0.20625(5)
O1 O 0.1472(9) 0.2600(9) 0.1894(9)
C2 C 0.0508(14) 0.2761(15) 0.0840(16)
H1 H 0.0607 0.2512 0.0603
C3 C 0.0237(13) 0.3581(10) 0.1551(13)
H2 H 0.0167 0.3853 0.1772
C4 C 0.0126(13) 0.3094(13) 0.0763(11)
C6 C 0.0744(13) 0.2829(12) 0.1321(17)
C7 C 0.1205(13) 0.2506(11) 0.1546(14)
O2 O 0.1277(6) 0.2142(7) 0.1244(7)
C8 C 0.0627(12) 0.3220(13) 0.1667(13)
H4 H 0.0805 0.3243 0.1976
O3 O 0.2581(8) 0.2581(8) 0.2581(8)
O6 O 0.1894(9) 0.1472(9) 0.2600(9)
O9 O 0.2600(9) 0.1894(9) 0.1472(9)
C16 C 0.0840(16) 0.0508(14) 0.2761(15)
H7 H 0.0603 0.0607 0.2512
C21 C 0.1551(13) 0.0237(13) 0.3581(10)
H12 H 0.1772 0.0167 0.3853
C26 C 0.0763(11) 0.0126(13) 0.3094(13)
C36 C 0.1321(17) 0.0744(13) 0.2829(12)
C41 C 0.1546(14) 0.1205(13) 0.2506(11)
O14 O 0.1244(7) 0.1277(6) 0.2142(7)
O17 O 0.2142(7) 0.1244(7) 0.1277(6)
O18 O 0.0358(7) 0.1223(6) 0.1256(7)
O19 O 0.1223(6) 0.1256(7) 0.0358(7)
O20 O 0.1256(7) 0.0358(7) 0.1223(6)
C46 C 0.1667(13) 0.0627(12) 0.3220(13)
H22 H 0.1976 0.0805 0.3243
Cd5 Cd 0.3750 0.8750 0.6250
Cd9 Cd 0.29375(5) 0.79375(5) 0.70625(5)
N4 N 0.1267(8) 0.9430(14) 0.4258(17)
N5 N 0.0570(14) 0.9258(17) 0.3733(8)
N6 N 0.0742(17) 0.8733(8) 0.4430(14)
C11 C 0.098(2) 0.9540(11) 0.3847(18)
C12 C 0.0460(11) 0.8847(18) 0.402(2)
C13 C 0.1153(18) 0.902(2) 0.4540(11)
O7 O 0.2400(9) 0.8106(9) 0.6472(9)
C17 C 0.2239(15) 0.9160(16) 0.5508(14)
H8 H 0.2488 0.9397 0.5607
C22 C 0.1419(10) 0.8449(13) 0.5237(13)
H13 H 0.1147 0.8228 0.5167
C27 C 0.1906(13) 0.9237(11) 0.5126(13)
H17 H 0.0460 0.9941 0.3052
H18 H 0.1948 0.9540 0.4941
H19 H 0.0059 0.8052 0.4540
C31 C 0.1095(14) 0.9962(12) 0.3515(12)
C32 C 0.1485(12) 0.8905(14) 0.4962(12)
C33 C 0.0038(12) 0.8515(12) 0.3905(14)
C37 C 0.2171(12) 0.8679(17) 0.5744(13)
C42 C 0.2494(11) 0.8454(14) 0.6205(13)
O15 O 0.2858(7) 0.8756(7) 0.6277(6)
C47 C 0.1780(13) 0.8333(13) 0.5627(12)
H23 H 0.1757 0.8024 0.5805
N1 N 0.9430(14) 0.4258(17) 0.1267(8)
C1 C 0.9540(11) 0.3847(18) 0.098(2)
H3 H 0.9941 0.3052 0.0460
C5 C 0.9962(12) 0.3515(12) 0.1095(14)
Cd3 Cd 0.8750 0.6250 0.3750
Cd7 Cd 0.79375(5) 0.70625(5) 0.29375(5)
N2 N 0.9258(17) 0.3733(8) 0.0570(14)
N3 N 0.8733(8) 0.4430(14) 0.0742(17)
C9 C 0.8847(18) 0.402(2) 0.0460(11)
C10 C 0.902(2) 0.4540(11) 0.1153(18)
O4 O 0.8106(9) 0.6472(9) 0.2400(9)
O10 O 0.8528(9) 0.7600(9) 0.3106(9)
O11 O 0.7400(9) 0.6894(9) 0.3528(9)
C14 C 0.9160(16) 0.5508(14) 0.2239(15)
H5 H 0.9397 0.5607 0.2488
C19 C 0.8449(13) 0.5237(13) 0.1419(10)
H10 H 0.8228 0.5167 0.1147
C24 C 0.9237(11) 0.5126(13) 0.1906(13)
H15 H 0.9540 0.4941 0.1948
H16 H 0.8052 0.4540 0.0059
C29 C 0.8905(14) 0.4962(12) 0.1485(12)
C30 C 0.8515(12) 0.3905(14) 0.0038(12)
C34 C 0.8679(17) 0.5744(13) 0.2171(12)
C39 C 0.8454(14) 0.6205(13) 0.2494(11)
O12 O 0.8756(7) 0.6277(6) 0.2858(7)
C44 C 0.8333(13) 0.5627(12) 0.1780(13)
H20 H 0.8024 0.5805 0.1757
O21 O 0.7419(8) 0.7581(8) 0.2419(8)
Cd4 Cd 0.6250 0.3750 0.8750
Cd8 Cd 0.70625(5) 0.29375(5) 0.79375(5)
O5 O 0.7600(9) 0.3106(9) 0.8528(9)
C15 C 0.7761(15) 0.4160(16) 0.9492(14)
H6 H 0.7512 0.4397 0.9393
C20 C 0.8581(10) 0.3449(13) 0.9763(13)
H11 H 0.8853 0.3228 0.9833
C25 C 0.8094(13) 0.4237(11) 0.9874(13)
C35 C 0.7829(12) 0.3679(17) 0.9256(13)
C40 C 0.7506(11) 0.3454(14) 0.8795(13)
O13 O 0.7142(7) 0.3756(7) 0.8723(6)
C45 C 0.8220(13) 0.3333(13) 0.9373(12)
H21 H 0.8243 0.3024 0.9195
C18 C 0.9492(14) 0.7761(15) 0.4160(16)
H9 H 0.9393 0.7512 0.4397
C23 C 0.9763(13) 0.8581(10) 0.3449(13)
H14 H 0.9833 0.8853 0.3228
C28 C 0.9874(13) 0.8094(13) 0.4237(11)
C38 C 0.9256(13) 0.7829(12) 0.3679(17)
C43 C 0.8795(13) 0.7506(11) 0.3454(14)
O16 O 0.8723(6) 0.7142(7) 0.3756(7)
C48 C 0.9373(12) 0.8220(13) 0.3333(13)
H24 H 0.9195 0.8243 0.3024
C17_2 C 0.2761(15) 0.0840(16) 0.0508(14)
H8_2 H 0.2512 0.0603 0.0607
C22_2 C 0.3581(10) 0.1551(13) 0.0237(13)
H13_2 H 0.3853 0.1772 0.0167
C27_2 C 0.3094(13) 0.0763(11) 0.0126(13)
C37_2 C 0.2829(12) 0.1321(17) 0.0744(13)
C42_2 C 0.2506(11) 0.1546(14) 0.1205(13)
C47_2 C 0.3220(13) 0.1667(13) 0.0627(12)
H23_2 H 0.3243 0.1976 0.0805
N4_2 N 0.3733(8) 0.0570(14) 0.9258(17)
N5_2 N 0.4430(14) 0.0742(17) 0.8733(8)
N6_2 N 0.4258(17) 0.1267(8) 0.9430(14)
C11_2 C 0.402(2) 0.0460(11) 0.8847(18)
C12_2 C 0.4540(11) 0.1153(18) 0.902(2)
C13_2 C 0.3847(18) 0.098(2) 0.9540(11)
O8 O 0.6472(9) 0.2400(9) 0.8106(9)
C18_2 C 0.5508(14) 0.2239(15) 0.9160(16)
H9_2 H 0.5607 0.2488 0.9397
C23_2 C 0.5237(13) 0.1419(10) 0.8449(13)
H14_2 H 0.5167 0.1147 0.8228
C28_2 C 0.5126(13) 0.1906(13) 0.9237(11)
H17_2 H 0.4540 0.0059 0.8052
H18_2 H 0.3052 0.0460 0.9941
H19_2 H 0.4941 0.1948 0.9540
C31_2 C 0.3905(14) 0.0038(12) 0.8515(12)
C32_2 C 0.3515(12) 0.1095(14) 0.9962(12)
C33_2 C 0.4962(12) 0.1485(12) 0.8905(14)
C38_2 C 0.5744(13) 0.2171(12) 0.8679(17)
C43_2 C 0.6205(13) 0.2494(11) 0.8454(14)
O16_2 O 0.6277(6) 0.2858(7) 0.8756(7)
C48_2 C 0.5627(12) 0.1780(13) 0.8333(13)
H24_2 H 0.5805 0.1757 0.8024
N1_2 N 0.5570(14) 0.5742(17) 0.6267(8)
C1_2 C 0.5460(11) 0.6153(18) 0.598(2)
O1_2 O 0.3528(9) 0.7400(9) 0.6894(9)
C2_2 C 0.4492(14) 0.7239(15) 0.5840(16)
H1_2 H 0.4393 0.7488 0.5603
C3_2 C 0.4763(13) 0.6419(10) 0.6551(13)
H2_2 H 0.4833 0.6147 0.6772
C4_2 C 0.4874(13) 0.6906(13) 0.5763(11)
H3_2 H 0.5059 0.6948 0.5460
C5_2 C 0.5038(12) 0.6485(12) 0.6095(14)
C6_2 C 0.4256(13) 0.7171(12) 0.6321(17)
C7_2 C 0.3795(13) 0.7494(11) 0.6546(14)
O2_2 O 0.3723(6) 0.7858(7) 0.6244(7)
C8_2 C 0.4373(12) 0.6780(13) 0.6667(13)
H4_2 H 0.4195 0.6757 0.6976
O3_2 O 0.2419(8) 0.7419(8) 0.7581(8)
N2_2 N 0.5742(17) 0.6267(8) 0.5570(14)
N3_2 N 0.6267(8) 0.5570(14) 0.5742(17)
C9_2 C 0.6153(18) 0.598(2) 0.5460(11)
C10_2 C 0.598(2) 0.5460(11) 0.6153(18)
O4_2 O 0.6894(9) 0.3528(9) 0.7400(9)
O6_2 O 0.3106(9) 0.8528(9) 0.7600(9)
C14_2 C 0.5840(16) 0.4492(14) 0.7239(15)
C15_2 C 0.7239(15) 0.5840(16) 0.4492(14)
C16_2 C 0.4160(16) 0.9492(14) 0.7761(15)
H5_2 H 0.5603 0.4393 0.7488
H6_2 H 0.7488 0.5603 0.4393
H7_2 H 0.4397 0.9393 0.7512
C19_2 C 0.6551(13) 0.4763(13) 0.6419(10)
C20_2 C 0.6419(10) 0.6551(13) 0.4763(13)
C21_2 C 0.3449(13) 0.9763(13) 0.8581(10)
H10_2 H 0.6772 0.4833 0.6147
H11_2 H 0.6147 0.6772 0.4833
H12_2 H 0.3228 0.9833 0.8853
C24_2 C 0.5763(11) 0.4874(13) 0.6906(13)
C25_2 C 0.6906(13) 0.5763(11) 0.4874(13)
C26_2 C 0.4237(11) 0.9874(13) 0.8094(13)
H15_2 H 0.5460 0.5059 0.6948
H16_2 H 0.6948 0.5460 0.5059
C29_2 C 0.6095(14) 0.5038(12) 0.6485(12)
C30_2 C 0.6485(12) 0.6095(14) 0.5038(12)
C34_2 C 0.6321(17) 0.4256(13) 0.7171(12)
C35_2 C 0.7171(12) 0.6321(17) 0.4256(13)
C36_2 C 0.3679(17) 0.9256(13) 0.7829(12)
C39_2 C 0.6546(14) 0.3795(13) 0.7494(11)
C40_2 C 0.7494(11) 0.6546(14) 0.3795(13)
C41_2 C 0.3454(14) 0.8795(13) 0.7506(11)
O12_2 O 0.6244(7) 0.3723(6) 0.7858(7)
O13_2 O 0.7858(7) 0.6244(7) 0.3723(6)
O14_2 O 0.3756(7) 0.8723(6) 0.7142(7)
O18_2 O 0.4642(7) 0.8777(6) 0.6256(7)
O19_2 O 0.3777(6) 0.8744(7) 0.5358(7)
O20_2 O 0.3744(7) 0.9642(7) 0.6223(6)
C44_2 C 0.6667(13) 0.4373(12) 0.6780(13)
C45_2 C 0.6780(13) 0.6667(13) 0.4373(12)
C46_2 C 0.3333(13) 0.9373(12) 0.8220(13)
H20_2 H 0.6976 0.4195 0.6757
H21_2 H 0.6757 0.6976 0.4195
H22_2 H 0.3024 0.9195 0.8243
O21_2 O 0.7581(8) 0.2419(8) 0.7419(8)
O18_3 O 0.9642(7) 0.6223(6) 0.3744(7)
O19_3 O 0.8777(6) 0.6256(7) 0.4642(7)
O20_3 O 0.8744(7) 0.5358(7) 0.3777(6)
O18_4 O 0.5358(7) 0.3777(6) 0.8744(7)
O19_4 O 0.6223(6) 0.3744(7) 0.9642(7)
O20_4 O 0.6256(7) 0.4642(7) 0.8777(6)
O10_2 O 0.0100(9) 0.6028(9) 0.4394(9)
O21_3 O 0.0081(8) 0.4919(8) 0.5081(8)
H26 H 0.0385311 0.480321 0.48814
O3_3 O 0.5081(8) 0.0081(8) 0.4919(8)
Cd9_2 Cd 0.04375(5) 0.04375(5) 0.04375(5)
O9_2 O 0.4394(9) 0.0100(9) 0.6028(9)
H28 H 0.48814 0.0385311 0.480321
Cd2_2 Cd 0.45625(5) 0.95625(5) 0.54375(5)
N1_3 N 0.6758(17) 0.6930(14) 0.6233(8)
C1_3 C 0.6347(18) 0.7040(11) 0.652(2)
O1_3 O 0.5100(9) 0.8972(9) 0.5606(9)
C2_3 C 0.5261(15) 0.8008(14) 0.6660(16)
H1_3 H 0.5012 0.8107 0.6897
C3_3 C 0.6081(10) 0.7737(13) 0.5949(13)
H2_3 H 0.6353 0.7667 0.5728
C4_3 C 0.5594(13) 0.7626(13) 0.6737(11)
H3_3 H 0.5552 0.7441 0.7040
C5_3 C 0.6015(12) 0.7462(12) 0.6405(14)
C6_3 C 0.5329(12) 0.8244(13) 0.6179(17)
C7_3 C 0.5006(11) 0.8705(13) 0.5954(14)
C8_3 C 0.5720(13) 0.8127(12) 0.5833(13)
H4_3 H 0.5743 0.8305 0.5524
Cd7_2 Cd 0.95625(5) 0.54375(5) 0.45625(5)
Cd8_2 Cd 0.54375(5) 0.45625(5) 0.95625(5)
N2_3 N 0.6233(8) 0.6758(17) 0.6930(14)
N3_3 N 0.6930(14) 0.6233(8) 0.6758(17)
N4_3 N 0.1930(14) 0.8767(8) 0.3242(17)
N5_3 N 0.1758(17) 0.8070(14) 0.3767(8)
N6_3 N 0.1233(8) 0.8242(17) 0.3070(14)
C9_3 C 0.652(2) 0.6347(18) 0.7040(11)
C10_3 C 0.7040(11) 0.652(2) 0.6347(18)
C11_3 C 0.2040(11) 0.848(2) 0.3653(18)
C12_3 C 0.1347(18) 0.7960(11) 0.348(2)
C13_3 C 0.152(2) 0.8653(18) 0.2960(11)
O4_3 O 0.8972(9) 0.5606(9) 0.5100(9)
O5_2 O 0.5606(9) 0.5100(9) 0.8972(9)
O6_3 O 0.3972(9) 0.9394(9) 0.4900(9)
O7_2 O 0.0606(9) 0.9900(9) 0.1028(9)
O11_2 O 0.9394(9) 0.4900(9) 0.3972(9)
C14_3 C 0.8008(14) 0.6660(16) 0.5261(15)
C15_3 C 0.6660(16) 0.5261(15) 0.8008(14)
C16_3 C 0.3008(14) 0.8340(16) 0.4739(15)
C17_3 C 0.1660(16) 0.9739(15) 0.1992(14)
C18_3 C 0.0261(15) 0.6992(14) 0.3340(16)
H5_3 H 0.8107 0.6897 0.5012
H6_3 H 0.6897 0.5012 0.8107
H7_3 H 0.3107 0.8103 0.4988
H8_3 H 0.1897 0.9988 0.1893
H9_3 H 0.0012 0.6893 0.3103
C19_3 C 0.7737(13) 0.5949(13) 0.6081(10)
C20_3 C 0.5949(13) 0.6081(10) 0.7737(13)
C21_3 C 0.2737(13) 0.9051(13) 0.3919(10)
C22_3 C 0.0949(13) 0.8919(10) 0.2263(13)
C23_3 C 0.1081(10) 0.7263(13) 0.4051(13)
H10_3 H 0.7667 0.5728 0.6353
H11_3 H 0.5728 0.6353 0.7667
H12_3 H 0.2667 0.9272 0.3647
H13_3 H 0.0728 0.8647 0.2333
H14_3 H 0.1353 0.7333 0.4272
C24_3 C 0.7626(13) 0.6737(11) 0.5594(13)
C25_3 C 0.6737(11) 0.5594(13) 0.7626(13)
C26_3 C 0.2626(13) 0.8263(11) 0.4406(13)
C27_3 C 0.1737(11) 0.9406(13) 0.2374(13)
C28_3 C 0.0594(13) 0.7374(13) 0.3263(11)
H15_3 H 0.7441 0.7040 0.5552
H16_3 H 0.7040 0.5552 0.7441
H17_3 H 0.2441 0.7960 0.4448
H18_3 H 0.2040 0.9448 0.2559
H19_3 H 0.0552 0.7559 0.2960
C29_3 C 0.7462(12) 0.6405(14) 0.6015(12)
C30_3 C 0.6405(14) 0.6015(12) 0.7462(12)
C31_3 C 0.2462(12) 0.8595(14) 0.3985(12)
C32_3 C 0.1405(14) 0.8985(12) 0.2538(12)
C33_3 C 0.1015(12) 0.7538(12) 0.3595(14)
C34_3 C 0.8244(13) 0.6179(17) 0.5329(12)
C35_3 C 0.6179(17) 0.5329(12) 0.8244(13)
C36_3 C 0.3244(13) 0.8821(17) 0.4671(12)
C37_3 C 0.1179(17) 0.9671(12) 0.1756(13)
C38_3 C 0.0329(12) 0.6756(13) 0.3821(17)
C39_3 C 0.8705(13) 0.5954(14) 0.5006(11)
C40_3 C 0.5954(14) 0.5006(11) 0.8705(13)
C41_3 C 0.3705(13) 0.9046(14) 0.4994(11)
C42_3 C 0.0954(14) 0.9994(11) 0.1295(13)
C43_3 C 0.0006(11) 0.6295(13) 0.4046(14)
C44_3 C 0.8127(12) 0.5833(13) 0.5720(13)
C45_3 C 0.5833(13) 0.5720(13) 0.8127(12)
C46_3 C 0.3127(12) 0.9167(13) 0.4280(13)
C47_3 C 0.0833(13) 0.9280(13) 0.1873(12)
C48_3 C 0.0720(13) 0.6873(12) 0.4167(13)
H20_3 H 0.8305 0.5524 0.5743
H21_3 H 0.5524 0.5743 0.8305
H22_3 H 0.3305 0.9476 0.4257
H23_3 H 0.0524 0.9257 0.1695
H24_3 H 0.0743 0.6695 0.4476
H25 H 0.98814 0.461469 0.519679
H27 H 0.519679 0.98814 0.461469
N4_4 N 0.3070(14) 0.1233(8) 0.8242(17)
N5_4 N 0.3242(17) 0.1930(14) 0.8767(8)
N6_4 N 0.3767(8) 0.1758(17) 0.8070(14)
C11_4 C 0.2960(11) 0.152(2) 0.8653(18)
C12_4 C 0.3653(18) 0.2040(11) 0.848(2)
C13_4 C 0.348(2) 0.1347(18) 0.7960(11)
O6_4 O 0.1028(9) 0.0606(9) 0.9900(9)
O8_2 O 0.4900(9) 0.3972(9) 0.9394(9)
C16_4 C 0.1992(14) 0.1660(16) 0.9739(15)
C17_4 C 0.3340(16) 0.0261(15) 0.6992(14)
C18_4 C 0.4739(15) 0.3008(14) 0.8340(16)
H7_4 H 0.1893 0.1897 0.9988
H8_4 H 0.3103 0.0012 0.6893
H9_4 H 0.4988 0.3107 0.8103
C21_4 C 0.2263(13) 0.0949(13) 0.8919(10)
C22_4 C 0.4051(13) 0.1081(10) 0.7263(13)
C23_4 C 0.3919(10) 0.2737(13) 0.9051(13)
H12_4 H 0.2333 0.0728 0.8647
H13_4 H 0.4272 0.1353 0.7333
H14_4 H 0.3647 0.2667 0.9272
C26_4 C 0.2374(13) 0.1737(11) 0.9406(13)
C27_4 C 0.3263(11) 0.0594(13) 0.7374(13)
C28_4 C 0.4406(13) 0.2626(13) 0.8263(11)
H17_4 H 0.2559 0.2040 0.9448
H18_4 H 0.2960 0.0552 0.7559
H19_4 H 0.4448 0.2441 0.7960
C31_4 C 0.2538(12) 0.1405(14) 0.8985(12)
C32_4 C 0.3595(14) 0.1015(12) 0.7538(12)
C33_4 C 0.3985(12) 0.2462(12) 0.8595(14)
C36_4 C 0.1756(13) 0.1179(17) 0.9671(12)
C37_4 C 0.3821(17) 0.0329(12) 0.6756(13)
C38_4 C 0.4671(12) 0.3244(13) 0.8821(17)
C41_4 C 0.1295(13) 0.0954(14) 0.9994(11)
C42_4 C 0.4046(14) 0.0006(11) 0.6295(13)
C43_4 C 0.4994(11) 0.3705(13) 0.9046(14)
C46_4 C 0.1873(12) 0.0833(13) 0.9280(13)
C47_4 C 0.4167(13) 0.0720(13) 0.6873(12)
C48_4 C 0.4280(13) 0.3127(12) 0.9167(13)
H22_4 H 0.1695 0.0524 0.9257
H23_4 H 0.4476 0.0743 0.6695
H24_4 H 0.4257 0.3305 0.9476
H28_2 H 0.0118605 0.961469 0.980321
N1_4 N 0.8242(17) 0.3070(14) 0.1233(8)
C1_4 C 0.8653(18) 0.2960(11) 0.152(2)
O1_4 O 0.9900(9) 0.1028(9) 0.0606(9)
C2_4 C 0.9739(15) 0.1992(14) 0.1660(16)
H1_4 H 0.9988 0.1893 0.1897
C3_4 C 0.8919(10) 0.2263(13) 0.0949(13)
H2_4 H 0.8647 0.2333 0.0728
C4_4 C 0.9406(13) 0.2374(13) 0.1737(11)
H3_4 H 0.9448 0.2559 0.2040
C5_4 C 0.8985(12) 0.2538(12) 0.1405(14)
C6_4 C 0.9671(12) 0.1756(13) 0.1179(17)
C7_4 C 0.9994(11) 0.1295(13) 0.0954(14)
C8_4 C 0.9280(13) 0.1873(12) 0.0833(13)
H4_4 H 0.9257 0.1695 0.0524
N2_4 N 0.8767(8) 0.3242(17) 0.1930(14)
N3_4 N 0.8070(14) 0.3767(8) 0.1758(17)
C9_4 C 0.848(2) 0.3653(18) 0.2040(11)
C10_4 C 0.7960(11) 0.348(2) 0.1347(18)
O4_4 O 0.6028(9) 0.4394(9) 0.0100(9)
C14_4 C 0.6992(14) 0.3340(16) 0.0261(15)
C15_4 C 0.8340(16) 0.4739(15) 0.3008(14)
H5_4 H 0.6893 0.3103 0.0012
H6_4 H 0.8103 0.4988 0.3107
C19_4 C 0.7263(13) 0.4051(13) 0.1081(10)
C20_4 C 0.9051(13) 0.3919(10) 0.2737(13)
H10_4 H 0.7333 0.4272 0.1353
H11_4 H 0.9272 0.3647 0.2667
C24_4 C 0.7374(13) 0.3263(11) 0.0594(13)
C25_4 C 0.8263(11) 0.4406(13) 0.2626(13)
H15_4 H 0.7559 0.2960 0.0552
H16_4 H 0.7960 0.4448 0.2441
C29_4 C 0.7538(12) 0.3595(14) 0.1015(12)
C30_4 C 0.8595(14) 0.3985(12) 0.2462(12)
C34_4 C 0.6756(13) 0.3821(17) 0.0329(12)
C35_4 C 0.8821(17) 0.4671(12) 0.3244(13)
C39_4 C 0.6295(13) 0.4046(14) 0.0006(11)
C40_4 C 0.9046(14) 0.4994(11) 0.3705(13)
C44_4 C 0.6873(12) 0.4167(13) 0.0720(13)
C45_4 C 0.9167(13) 0.4280(13) 0.3127(12)
H20_4 H 0.6695 0.4476 0.0743
H21_4 H 0.9476 0.4257 0.3305
O21_4 O 0.4919(8) 0.5081(8) 0.0081(8)
H25_2 H 0.51186 0.538531 0.0196789
H26_2 H 0.461469 0.519679 0.98814
H27_2 H 0.980321 0.0118605 0.961469
H26_3 H 0.538531 0.0196789 0.51186
H27_3 H 0.0196789 0.51186 0.538531
H27_4 H 0.480321 0.48814 0.0385311
H26_4 H 0.961469 0.980321 0.0118605
O3_4 O 0.9919(8) 0.9919(8) 0.9919(8)
loop_
_geom_bond_atom_site_label_1
_geom_bond_atom_site_label_2
_geom_bond_site_symmetry_1
_geom_bond_site_symmetry_2
Cd1 O2 1_555 1_555
Cd2 O1 1_555 1_555
O1 C7 1_555 1_555
C2 H1 1_555 1_555
C3 H2 1_555 1_555
C4 C2 1_555 1_555
C6 C2 1_555 1_555
C7 C6 1_555 1_555
O2 C7 1_555 1_555
C8 C3 1_555 1_555
H4 C8 1_555 1_555
O3 Cd2 1_555 1_555
O6 Cd2 1_555 1_555
O9 Cd2 1_555 1_555
C16 H7 1_555 1_555
C21 H12 1_555 1_555
C26 C16 1_555 1_555
C36 C16 1_555 1_555
C41 O6 1_555 1_555
O14 Cd1 1_555 1_555
O17 Cd1 1_555 1_555
O18 Cd1 1_555 1_555
O19 Cd1 1_555 1_555
O20 Cd1 1_555 1_555
C46 C21 1_555 1_555
H22 C46 1_555 1_555
C6 C8 1_555 1_555
C36 C41 1_555 1_555
C36 C46 1_555 1_555
C41 O14 1_555 1_555
Cd5 O15 1_555 1_555
Cd9 O7 1_555 1_555
N4 C11 1_555 1_555
N5 C11 1_555 1_555
N6 C12 1_555 1_555
C11 C31 1_555 1_555
C12 N5 1_555 1_555
C13 N4 1_555 1_555
O7 C42 1_555 1_555
C17 H8 1_555 1_555
C22 H13 1_555 1_555
C27 C17 1_555 1_555
H18 C27 1_555 1_555
C32 C13 1_555 1_555
C33 C12 1_555 1_555
C37 C17 1_555 1_555
C42 C37 1_555 1_555
O15 C42 1_555 1_555
C47 C22 1_555 1_555
H23 C47 1_555 1_555
N6 C13 1_555 1_555
C22 C32 1_555 1_555
C27 C32 1_555 1_555
C37 C47 1_555 1_555
N1 C1 1_555 1_555
C1 C5 1_555 1_555
Cd3 O12 1_555 1_555
Cd7 O4 1_555 1_555
N2 C1 1_555 1_555
N3 C9 1_555 1_555
C9 N2 1_555 1_555
C10 N1 1_555 1_555
O4 C39 1_555 1_555
O10 Cd7 1_555 1_555
O11 Cd7 1_555 1_555
C14 H5 1_555 1_555
C19 H10 1_555 1_555
C24 C14 1_555 1_555
H15 C24 1_555 1_555
C29 C10 1_555 1_555
C30 C9 1_555 1_555
C34 C14 1_555 1_555
C39 C34 1_555 1_555
O12 C39 1_555 1_555
C44 C19 1_555 1_555
H20 C44 1_555 1_555
O21 Cd7 1_555 1_555
N3 C10 1_555 1_555
C19 C29 1_555 1_555
C24 C29 1_555 1_555
C34 C44 1_555 1_555
Cd4 O13 1_555 1_555
Cd8 O5 1_555 1_555
O5 C40 1_555 1_555
C15 H6 1_555 1_555
C20 H11 1_555 1_555
C25 C15 1_555 1_555
C35 C15 1_555 1_555
C40 C35 1_555 1_555
O13 C40 1_555 1_555
C45 C20 1_555 1_555
H21 C45 1_555 1_555
C35 C45 1_555 1_555
Cd3 O16 1_555 1_555
O10 C43 1_555 1_555
C18 H9 1_555 1_555
C23 H14 1_555 1_555
C28 C18 1_555 1_555
C38 C18 1_555 1_555
C43 C38 1_555 1_555
O16 C43 1_555 1_555
C48 C23 1_555 1_555
H24 C48 1_555 1_555
C38 C48 1_555 1_555
O9 C42_2 1_555 1_555
C17_2 H8_2 1_555 1_555
C22_2 H13_2 1_555 1_555
C27_2 C17_2 1_555 1_555
C37_2 C17_2 1_555 1_555
C42_2 C37_2 1_555 1_555
O17 C42_2 1_555 1_555
C47_2 C22_2 1_555 1_555
H23_2 C47_2 1_555 1_555
C37_2 C47_2 1_555 1_555
Cd4 O16_2 1_555 1_555
Cd8 O8 1_555 1_555
N4_2 C11_2 1_555 1_555
N5_2 C11_2 1_555 1_555
N6_2 C12_2 1_555 1_555
C11_2 C31_2 1_555 1_555
C12_2 N5_2 1_555 1_555
C13_2 N4_2 1_555 1_555
O8 C43_2 1_555 1_555
C18_2 H9_2 1_555 1_555
C23_2 H14_2 1_555 1_555
C28_2 C18_2 1_555 1_555
H19_2 C28_2 1_555 1_555
C32_2 C13_2 1_555 1_555
C33_2 C12_2 1_555 1_555
C38_2 C18_2 1_555 1_555
C43_2 C38_2 1_555 1_555
O16_2 C43_2 1_555 1_555
C48_2 C23_2 1_555 1_555
H24_2 C48_2 1_555 1_555
N6_2 C13_2 1_555 1_555
C23_2 C33_2 1_555 1_555
C28_2 C33_2 1_555 1_555
C38_2 C48_2 1_555 1_555
Cd5 O2_2 1_555 1_555
Cd9 O1_2 1_555 1_555
N1_2 C1_2 1_555 1_555
C1_2 C5_2 1_555 1_555
O1_2 C7_2 1_555 1_555
C2_2 H1_2 1_555 1_555
C3_2 H2_2 1_555 1_555
C4_2 C2_2 1_555 1_555
H3_2 C4_2 1_555 1_555
C5_2 C3_2 1_555 1_555
C6_2 C2_2 1_555 1_555
C7_2 C6_2 1_555 1_555
O2_2 C7_2 1_555 1_555
C8_2 C3_2 1_555 1_555
H4_2 C8_2 1_555 1_555
O3_2 Cd9 1_555 1_555
Cd4 O12_2 1_555 1_555
Cd3 O13_2 1_555 1_555
Cd8 O4_2 1_555 1_555
N2_2 C1_2 1_555 1_555
N3_2 C9_2 1_555 1_555
C9_2 N2_2 1_555 1_555
C10_2 N1_2 1_555 1_555
O4_2 C39_2 1_555 1_555
O11 C40_2 1_555 1_555
O6_2 Cd9 1_555 1_555
C14_2 H5_2 1_555 1_555
C15_2 H6_2 1_555 1_555
C16_2 H7_2 1_555 1_555
C19_2 H10_2 1_555 1_555
C20_2 H11_2 1_555 1_555
C21_2 H12_2 1_555 1_555
C24_2 C14_2 1_555 1_555
C25_2 C15_2 1_555 1_555
C26_2 C16_2 1_555 1_555
H15_2 C24_2 1_555 1_555
H16_2 C25_2 1_555 1_555
C29_2 C10_2 1_555 1_555
C30_2 C9_2 1_555 1_555
C34_2 C14_2 1_555 1_555
C35_2 C15_2 1_555 1_555
C36_2 C16_2 1_555 1_555
C39_2 C34_2 1_555 1_555
C40_2 C35_2 1_555 1_555
C41_2 O6_2 1_555 1_555
O12_2 C39_2 1_555 1_555
O13_2 C40_2 1_555 1_555
O14_2 Cd5 1_555 1_555
O18_2 Cd5 1_555 1_555
O19_2 Cd5 1_555 1_555
O20_2 Cd5 1_555 1_555
C44_2 C19_2 1_555 1_555
C45_2 C20_2 1_555 1_555
C46_2 C21_2 1_555 1_555
H20_2 C44_2 1_555 1_555
H21_2 C45_2 1_555 1_555
H22_2 C46_2 1_555 1_555
O21_2 Cd8 1_555 1_555
C4_2 C5_2 1_555 1_555
C6_2 C8_2 1_555 1_555
N3_2 C10_2 1_555 1_555
C19_2 C29_2 1_555 1_555
C20_2 C30_2 1_555 1_555
C24_2 C29_2 1_555 1_555
C25_2 C30_2 1_555 1_555
C34_2 C44_2 1_555 1_555
C35_2 C45_2 1_555 1_555
C36_2 C41_2 1_555 1_555
C36_2 C46_2 1_555 1_555
C41_2 O14_2 1_555 1_555
O18_3 Cd3 1_555 1_555
O19_3 Cd3 1_555 1_555
O20_3 Cd3 1_555 1_555
O18_4 Cd4 1_555 1_555
O19_4 Cd4 1_555 1_555
O20_4 Cd4 1_555 1_555
O21_3 H26 1_555 1_555
O3_3 H28 1_555 1_555
Cd2_2 O1_3 1_555 1_555
N1_3 C1_3 1_555 1_555
C1_3 C5_3 1_555 1_555
O1_3 C7_3 1_555 1_555
C2_3 H1_3 1_555 1_555
C3_3 H2_3 1_555 1_555
C4_3 C2_3 1_555 1_555
H3_3 C4_3 1_555 1_555
C5_3 C3_3 1_555 1_555
C6_3 C2_3 1_555 1_555
C7_3 C6_3 1_555 1_555
O18_2 C7_3 1_555 1_555
C8_3 C3_3 1_555 1_555
H4_3 C8_3 1_555 1_555
Cd7_2 O4_3 1_555 1_555
Cd8_2 O5_2 1_555 1_555
N2_3 C1_3 1_555 1_555
N3_3 C9_3 1_555 1_555
N4_3 C11_3 1_555 1_555
N5_3 C11_3 1_555 1_555
N6_3 C12_3 1_555 1_555
C9_3 N2_3 1_555 1_555
C10_3 N1_3 1_555 1_555
C11_3 C31_3 1_555 1_555
C12_3 N5_3 1_555 1_555
C13_3 N4_3 1_555 1_555
O4_3 C39_3 1_555 1_555
O5_2 C40_3 1_555 1_555
O6_3 Cd2_2 1_555 1_555
O7_2 C42_3 1_555 1_555
O10_2 C43_3 1_555 1_555
O11_2 Cd7_2 1_555 1_555
C14_3 H5_3 1_555 1_555
C15_3 H6_3 1_555 1_555
C16_3 H7_3 1_555 1_555
C17_3 H8_3 1_555 1_555
C18_3 H9_3 1_555 1_555
C19_3 H10_3 1_555 1_555
C20_3 H11_3 1_555 1_555
C21_3 H12_3 1_555 1_555
C22_3 H13_3 1_555 1_555
C23_3 H14_3 1_555 1_555
C24_3 C14_3 1_555 1_555
C25_3 C15_3 1_555 1_555
C26_3 C16_3 1_555 1_555
C27_3 C17_3 1_555 1_555
C28_3 C18_3 1_555 1_555
H15_3 C24_3 1_555 1_555
H16_3 C25_3 1_555 1_555
H17_3 C26_3 1_555 1_555
H18_3 C27_3 1_555 1_555
H19_3 C28_3 1_555 1_555
C29_3 C10_3 1_555 1_555
C30_3 C9_3 1_555 1_555
C31_3 C21_3 1_555 1_555
C32_3 C13_3 1_555 1_555
C33_3 C12_3 1_555 1_555
C34_3 C14_3 1_555 1_555
C35_3 C15_3 1_555 1_555
C36_3 C16_3 1_555 1_555
C37_3 C17_3 1_555 1_555
C38_3 C18_3 1_555 1_555
C39_3 C34_3 1_555 1_555
C40_3 C35_3 1_555 1_555
C41_3 O6_3 1_555 1_555
C42_3 C37_3 1_555 1_555
C43_3 C38_3 1_555 1_555
O19_3 C39_3 1_555 1_555
O20_4 C40_3 1_555 1_555
C44_3 C19_3 1_555 1_555
C45_3 C20_3 1_555 1_555
C46_3 C21_3 1_555 1_555
C47_3 C22_3 1_555 1_555
C48_3 C23_3 1_555 1_555
H20_3 C44_3 1_555 1_555
H21_3 C45_3 1_555 1_555
H22_3 C46_3 1_555 1_555
H23_3 C47_3 1_555 1_555
H24_3 C48_3 1_555 1_555
C4_3 C5_3 1_555 1_555
C6_3 C8_3 1_555 1_555
N3_3 C10_3 1_555 1_555
N6_3 C13_3 1_555 1_555
C19_3 C29_3 1_555 1_555
C20_3 C30_3 1_555 1_555
C22_3 C32_3 1_555 1_555
C23_3 C33_3 1_555 1_555
C24_3 C29_3 1_555 1_555
C25_3 C30_3 1_555 1_555
C26_3 C31_3 1_555 1_555
C27_3 C32_3 1_555 1_555
C28_3 C33_3 1_555 1_555
C34_3 C44_3 1_555 1_555
C35_3 C45_3 1_555 1_555
C36_3 C41_3 1_555 1_555
C36_3 C46_3 1_555 1_555
C37_3 C47_3 1_555 1_555
C38_3 C48_3 1_555 1_555
C41_3 O19_2 1_555 1_555
Cd8_2 O8_2 1_555 1_555
N4_4 C11_4 1_555 1_555
N5_4 C11_4 1_555 1_555
N6_4 C12_4 1_555 1_555
C11_4 C31_4 1_555 1_555
C12_4 N5_4 1_555 1_555
C13_4 N4_4 1_555 1_555
O9_2 C42_4 1_555 1_555
O8_2 C43_4 1_555 1_555
C16_4 H7_4 1_555 1_555
C17_4 H8_4 1_555 1_555
C18_4 H9_4 1_555 1_555
C21_4 H12_4 1_555 1_555
C22_4 H13_4 1_555 1_555
C23_4 H14_4 1_555 1_555
C26_4 C16_4 1_555 1_555
C27_4 C17_4 1_555 1_555
C28_4 C18_4 1_555 1_555
H17_4 C26_4 1_555 1_555
H18_4 C27_4 1_555 1_555
H19_4 C28_4 1_555 1_555
C31_4 C21_4 1_555 1_555
C32_4 C13_4 1_555 1_555
C33_4 C12_4 1_555 1_555
C36_4 C16_4 1_555 1_555
C37_4 C17_4 1_555 1_555
C38_4 C18_4 1_555 1_555
C41_4 O6_4 1_555 1_555
C42_4 C37_4 1_555 1_555
C43_4 C38_4 1_555 1_555
O18_4 C43_4 1_555 1_555
C46_4 C21_4 1_555 1_555
C47_4 C22_4 1_555 1_555
C48_4 C23_4 1_555 1_555
H22_4 C46_4 1_555 1_555
H23_4 C47_4 1_555 1_555
H24_4 C48_4 1_555 1_555
N6_4 C13_4 1_555 1_555
C22_4 C32_4 1_555 1_555
C23_4 C33_4 1_555 1_555
C26_4 C31_4 1_555 1_555
C27_4 C32_4 1_555 1_555
C28_4 C33_4 1_555 1_555
C36_4 C41_4 1_555 1_555
C36_4 C46_4 1_555 1_555
C37_4 C47_4 1_555 1_555
C38_4 C48_4 1_555 1_555
N1_4 C1_4 1_555 1_555
C1_4 C5_4 1_555 1_555
O1_4 C7_4 1_555 1_555
C2_4 H1_4 1_555 1_555
C3_4 H2_4 1_555 1_555
C4_4 C2_4 1_555 1_555
H3_4 C4_4 1_555 1_555
C5_4 C3_4 1_555 1_555
C6_4 C2_4 1_555 1_555
C7_4 C6_4 1_555 1_555
C8_4 C3_4 1_555 1_555
H4_4 C8_4 1_555 1_555
N2_4 C1_4 1_555 1_555
N3_4 C9_4 1_555 1_555
C9_4 N2_4 1_555 1_555
C10_4 N1_4 1_555 1_555
O4_4 C39_4 1_555 1_555
O11_2 C40_4 1_555 1_555
C14_4 H5_4 1_555 1_555
C15_4 H6_4 1_555 1_555
C19_4 H10_4 1_555 1_555
C20_4 H11_4 1_555 1_555
C24_4 C14_4 1_555 1_555
C25_4 C15_4 1_555 1_555
H15_4 C24_4 1_555 1_555
H16_4 C25_4 1_555 1_555
C29_4 C10_4 1_555 1_555
C30_4 C9_4 1_555 1_555
C34_4 C14_4 1_555 1_555
C35_4 C15_4 1_555 1_555
C39_4 C34_4 1_555 1_555
C40_4 C35_4 1_555 1_555
O20_3 C40_4 1_555 1_555
C44_4 C19_4 1_555 1_555
C45_4 C20_4 1_555 1_555
H20_4 C44_4 1_555 1_555
H21_4 C45_4 1_555 1_555
C4_4 C5_4 1_555 1_555
C6_4 C8_4 1_555 1_555
N3_4 C10_4 1_555 1_555
C19_4 C29_4 1_555 1_555
C20_4 C30_4 1_555 1_555
C24_4 C29_4 1_555 1_555
C25_4 C30_4 1_555 1_555
C34_4 C44_4 1_555 1_555
C35_4 C45_4 1_555 1_555
O21_4 H25_2 1_555 1_555
O3_3 H26_3 1_555 1_555
O21_3 H27_3 1_555 1_555
O21_4 H27_4 1_555 1_555

#END
