
###############################################################################
#
# This file contains modified crystal structure data generated from the
# MOF subset of the Cambridge Structural Database (CSD) v543 
# hosted by the Cambridge Crystallographic Data Centre (CCDC).
#
# This work is licensed under the Creative Commons
# Attribution-NonCommercial-ShareAlike 4.0 International License.
# To view a copy of this license, visit
# http://creativecommons.org/licenses/by-nc-sa/4.0/
# or send a letter to
# Creative Commons, PO Box 1866, Mountain View, CA 94042, USA.
#
# CIF created using the CSD Python API on 29 September 2022
# The structure has been converted into the P1 space group
# The structure has a 3D framework
# The original CSD entry PIBXUV is in the tetragonal crystal system
# The framework has been calculated to contain at least 10.0% void space
# The void calculation uses a probe of radius 1.32A, grid spacing 0.4
# The framework is charged, counterions have been retained in the structure
# H atom positions have been added when not included in the experimental data
#
###############################################################################

data_PIBXUV
_chemical_formula_moiety         '(C138 H80 Cd4 Mn9 N20 O36 1-)n'
_symmetry_cell_setting           triclinic
_symmetry_space_group_name_H-M   'P 1'
_symmetry_Int_Tables_number      1
_space_group_name_Hall           'P 1'
loop_
_symmetry_equiv_pos_site_id
_symmetry_equiv_pos_as_xyz
1 x,y,z
_cell_length_a                   16.9198(4)
_cell_length_b                   16.9198(4)
_cell_length_c                   16.0170(6)
_cell_angle_alpha                90
_cell_angle_beta                 90
_cell_angle_gamma                90
_cell_volume                     4585.34
loop_
_atom_site_label
_atom_site_type_symbol
_atom_site_fract_x
_atom_site_fract_y
_atom_site_fract_z
Cd5 Cd -0.0000 -0.0000 0.40339(4)
Cd8 Cd -0.0000 -0.0000 0.59661(4)
Cd5_2 Cd -0.0000 1.0000 0.40339(4)
Cd8_2 Cd -0.0000 1.0000 0.59661(4)
Cd5_3 Cd 1.0000 -0.0000 0.40339(4)
Cd8_3 Cd 1.0000 -0.0000 0.59661(4)
Mn1 Mn 0.5000 0.5000 0.5000
O1 O 0.09069(15) 0.09069(15) 0.4309(3)
O2 O 0.5000 0.5000 0.3637(4)
O3 O 0.5000 0.5000 0.2270(6)
N1 N 0.5000 0.3806(3) 0.5000
C1 C 0.4609(3) 0.2519(3) 0.5000
H1 H 0.4286 0.2074 0.5000
C2 C 0.4349(3) 0.3323(2) 0.5000
C3 C 0.3562(2) 0.3562(2) 0.5000
C4 C 0.2941(3) 0.2941(3) 0.5000
C5 C 0.2643(2) 0.2643(2) 0.4281(4)
H2 H 0.2833 0.2833 0.3774
C6 C 0.2070(2) 0.2070(2) 0.4279(4)
H3 H 0.1881 0.1881 0.3771
C7 C 0.1772(3) 0.1772(3) 0.5000
C8 C 0.1145(3) 0.1145(3) 0.5000
C9 C 0.5000 0.5000 0.2955(5)
O4 O 0.90931(15) 0.09069(15) 0.5691(3)
C10 C 0.5391(3) 0.2519(3) 0.5000
H4 H 0.5714 0.2074 0.5000
C11 C 0.5651(3) 0.3323(2) 0.5000
C12 C 0.6438(2) 0.3562(2) 0.5000
C13 C 0.7059(3) 0.2941(3) 0.5000
C14 C 0.7357(2) 0.2643(2) 0.5719(4)
H5 H 0.7167 0.2833 0.6226
C15 C 0.7930(2) 0.2070(2) 0.5721(4)
H6 H 0.8119 0.1881 0.6229
C16 C 0.8228(3) 0.1772(3) 0.5000
C17 C 0.8855(3) 0.1145(3) 0.5000
O5 O 0.09069(15) 0.09069(15) 0.5691(3)
N2 N 0.3806(3) 0.5000 0.5000
C18 C 0.2519(3) 0.4609(3) 0.5000
H7 H 0.2074 0.4286 0.5000
C19 C 0.3323(2) 0.4349(3) 0.5000
C20 C 0.2643(2) 0.2643(2) 0.5719(4)
H8 H 0.2833 0.2833 0.6226
C21 C 0.2070(2) 0.2070(2) 0.5721(4)
H9 H 0.1881 0.1881 0.6229
O6 O 0.90931(15) 0.09069(15) 0.4309(3)
C22 C 0.7357(2) 0.2643(2) 0.4281(4)
H10 H 0.7167 0.2833 0.3774
C23 C 0.7930(2) 0.2070(2) 0.4279(4)
H11 H 0.8119 0.1881 0.3771
N3 N 0.6194(3) 0.5000 0.5000
C24 C 0.7481(3) 0.4609(3) 0.5000
H12 H 0.7926 0.4286 0.5000
C25 C 0.6677(2) 0.4349(3) 0.5000
O7 O 0.09069(15) 0.90931(15) 0.4309(3)
C26 C 0.2519(3) 0.5391(3) 0.5000
H13 H 0.2074 0.5714 0.5000
C27 C 0.3323(2) 0.5651(3) 0.5000
C28 C 0.3562(2) 0.6438(2) 0.5000
C29 C 0.2941(3) 0.7059(3) 0.5000
C30 C 0.2643(2) 0.7357(2) 0.4281(4)
H14 H 0.2833 0.7167 0.3774
C31 C 0.2070(2) 0.7930(2) 0.4279(4)
H15 H 0.1881 0.8119 0.3771
C32 C 0.1772(3) 0.8228(3) 0.5000
C33 C 0.1145(3) 0.8855(3) 0.5000
O8 O 0.90931(15) 0.90931(15) 0.5691(3)
C34 C 0.7481(3) 0.5391(3) 0.5000
H16 H 0.7926 0.5714 0.5000
C35 C 0.6677(2) 0.5651(3) 0.5000
C36 C 0.6438(2) 0.6438(2) 0.5000
C37 C 0.7059(3) 0.7059(3) 0.5000
C38 C 0.7357(2) 0.7357(2) 0.5719(4)
H17 H 0.7167 0.7167 0.6226
C39 C 0.7930(2) 0.7930(2) 0.5721(4)
H18 H 0.8119 0.8119 0.6229
C40 C 0.8228(3) 0.8228(3) 0.5000
C41 C 0.8855(3) 0.8855(3) 0.5000
O9 O 0.09069(15) 0.90931(15) 0.5691(3)
C42 C 0.2643(2) 0.7357(2) 0.5719(4)
H19 H 0.2833 0.7167 0.6226
C43 C 0.2070(2) 0.7930(2) 0.5721(4)
H20 H 0.1881 0.8119 0.6229
O10 O 0.90931(15) 0.90931(15) 0.4309(3)
C44 C 0.7357(2) 0.7357(2) 0.4281(4)
H21 H 0.7167 0.7167 0.3774
C45 C 0.7930(2) 0.7930(2) 0.4279(4)
H22 H 0.8119 0.8119 0.3771
N4 N 0.5000 0.6194(3) 0.5000
C46 C 0.5391(3) 0.7481(3) 0.5000
H23 H 0.5714 0.7926 0.5000
C47 C 0.5651(3) 0.6677(2) 0.5000
C48 C 0.4609(3) 0.7481(3) 0.5000
H24 H 0.4286 0.7926 0.5000
C49 C 0.4349(3) 0.6677(2) 0.5000
O11 O 0.5000 0.5000 0.6363(4)
O12 O 0.5000 0.5000 0.7730(6)
C50 C 0.5000 0.5000 0.7045(5)
Cd5_4 Cd 1.0000 1.0000 0.40339(4)
Cd8_4 Cd 1.0000 1.0000 0.59661(4)
Cd9 Cd 0.5000 0.5000 0.90339(4)
Cd10 Cd 0.5000 0.5000 0.09661(4)
O19 O 0.0000 0.0000 0.7270(6)
O20 O 0.0000 0.0000 0.2730(6)
H25 H 0.564362 0.5 0.2955
H26 H 0.564362 0.5 0.7045
O19_2 O 0.0000 1.0000 0.7270(6)
O20_2 O 0.0000 1.0000 0.2730(6)
O19_3 O 1.0000 0.0000 0.7270(6)
O20_3 O 1.0000 0.0000 0.2730(6)
O19_4 O 1.0000 1.0000 0.7270(6)
O20_4 O 1.0000 1.0000 0.2730(6)
H25_2 H 0.435638 0.5 0.2955
H26_2 H 0.435638 0.5 0.7045
H25_3 H 0.5 0.564362 0.2955
H26_3 H 0.5 0.564362 0.7045
H25_4 H 0.5 0.435638 0.2955
H26_4 H 0.5 0.435638 0.7045
Mn1_2 Mn -0.0000 -0.0000 0.0000
N3_2 N 0.1194(3) -0.0000 0.0000
O8_2 O 0.40931(15) 0.40931(15) 0.0691(3)
C34_2 C 0.2481(3) 0.0391(3) 0.0000
H16_2 H 0.2926 0.0714 0.0000
C35_2 C 0.1677(2) 0.0651(3) 0.0000
C36_2 C 0.1438(2) 0.1438(2) 0.0000
C37_2 C 0.2059(3) 0.2059(3) 0.0000
C38_2 C 0.2357(2) 0.2357(2) 0.0719(4)
H17_2 H 0.2167 0.2167 0.1226
C39_2 C 0.2930(2) 0.2930(2) 0.0721(4)
H18_2 H 0.3119 0.3119 0.1229
C40_2 C 0.3228(3) 0.3228(3) 0.0000
C41_2 C 0.3855(3) 0.3855(3) 0.0000
N4_2 N -0.0000 0.1194(3) 0.0000
C46_2 C 0.0391(3) 0.2481(3) 0.0000
H23_2 H 0.0714 0.2926 0.0000
C47_2 C 0.0651(3) 0.1677(2) 0.0000
O11_2 O -0.0000 -0.0000 0.1363(4)
C50_2 C -0.0000 -0.0000 0.2045(5)
H26_5 H 0.0643625 -1.11022e-16 0.2045
Mn1_3 Mn -0.0000 -0.0000 1.0000
O2_2 O -0.0000 -0.0000 0.8637(4)
C9_2 C -0.0000 -0.0000 0.7955(5)
N3_3 N 0.1194(3) -0.0000 1.0000
C34_3 C 0.2481(3) 0.0391(3) 1.0000
H16_3 H 0.2926 0.0714 1.0000
C35_3 C 0.1677(2) 0.0651(3) 1.0000
C36_3 C 0.1438(2) 0.1438(2) 1.0000
C37_3 C 0.2059(3) 0.2059(3) 1.0000
C40_3 C 0.3228(3) 0.3228(3) 1.0000
C41_3 C 0.3855(3) 0.3855(3) 1.0000
O10_2 O 0.40931(15) 0.40931(15) 0.9309(3)
C44_2 C 0.2357(2) 0.2357(2) 0.9281(4)
H21_2 H 0.2167 0.2167 0.8774
C45_2 C 0.2930(2) 0.2930(2) 0.9279(4)
H22_2 H 0.3119 0.3119 0.8771
N4_3 N -0.0000 0.1194(3) 1.0000
C46_3 C 0.0391(3) 0.2481(3) 1.0000
H23_3 H 0.0714 0.2926 1.0000
C47_3 C 0.0651(3) 0.1677(2) 1.0000
H25_5 H 0.0643625 -5.55112e-17 0.7955
Mn1_4 Mn -0.0000 1.0000 0.0000
N1_2 N -0.0000 0.8806(3) 0.0000
O4_2 O 0.40931(15) 0.59069(15) 0.0691(3)
C10_2 C 0.0391(3) 0.7519(3) 0.0000
H4_2 H 0.0714 0.7074 0.0000
C11_2 C 0.0651(3) 0.8323(2) 0.0000
C12_2 C 0.1438(2) 0.8562(2) 0.0000
C13_2 C 0.2059(3) 0.7941(3) 0.0000
C14_2 C 0.2357(2) 0.7643(2) 0.0719(4)
H5_2 H 0.2167 0.7833 0.1226
C15_2 C 0.2930(2) 0.7070(2) 0.0721(4)
H6_2 H 0.3119 0.6881 0.1229
C16_2 C 0.3228(3) 0.6772(3) 0.0000
C17_2 C 0.3855(3) 0.6145(3) 0.0000
N3_4 N 0.1194(3) 1.0000 0.0000
C24_2 C 0.2481(3) 0.9609(3) 0.0000
H12_2 H 0.2926 0.9286 0.0000
C25_2 C 0.1677(2) 0.9349(3) 0.0000
O11_3 O -0.0000 1.0000 0.1363(4)
C50_3 C -0.0000 1.0000 0.2045(5)
H26_6 H 0.0643625 1 0.2045
Mn1_5 Mn -0.0000 1.0000 1.0000
O2_3 O -0.0000 1.0000 0.8637(4)
N1_3 N -0.0000 0.8806(3) 1.0000
C9_3 C -0.0000 1.0000 0.7955(5)
C10_3 C 0.0391(3) 0.7519(3) 1.0000
H4_3 H 0.0714 0.7074 1.0000
C11_3 C 0.0651(3) 0.8323(2) 1.0000
C12_3 C 0.1438(2) 0.8562(2) 1.0000
C13_3 C 0.2059(3) 0.7941(3) 1.0000
C16_3 C 0.3228(3) 0.6772(3) 1.0000
C17_3 C 0.3855(3) 0.6145(3) 1.0000
O6_2 O 0.40931(15) 0.59069(15) 0.9309(3)
C22_2 C 0.2357(2) 0.7643(2) 0.9281(4)
H10_2 H 0.2167 0.7833 0.8774
C23_2 C 0.2930(2) 0.7070(2) 0.9279(4)
H11_2 H 0.3119 0.6881 0.8771
N3_5 N 0.1194(3) 1.0000 1.0000
C24_3 C 0.2481(3) 0.9609(3) 1.0000
H12_3 H 0.2926 0.9286 1.0000
C25_3 C 0.1677(2) 0.9349(3) 1.0000
H25_6 H 0.0643625 1 0.7955
Mn1_6 Mn 1.0000 -0.0000 0.0000
N2_2 N 0.8806(3) -0.0000 0.0000
C26_2 C 0.7519(3) 0.0391(3) 0.0000
H13_2 H 0.7074 0.0714 0.0000
C27_2 C 0.8323(2) 0.0651(3) 0.0000
C28_2 C 0.8562(2) 0.1438(2) 0.0000
C29_2 C 0.7941(3) 0.2059(3) 0.0000
C32_2 C 0.6772(3) 0.3228(3) 0.0000
C33_2 C 0.6145(3) 0.3855(3) 0.0000
O9_2 O 0.59069(15) 0.40931(15) 0.0691(3)
C42_2 C 0.7643(2) 0.2357(2) 0.0719(4)
H19_2 H 0.7833 0.2167 0.1226
C43_2 C 0.7070(2) 0.2930(2) 0.0721(4)
H20_2 H 0.6881 0.3119 0.1229
N4_4 N 1.0000 0.1194(3) 0.0000
C48_2 C 0.9609(3) 0.2481(3) 0.0000
H24_2 H 0.9286 0.2926 0.0000
C49_2 C 0.9349(3) 0.1677(2) 0.0000
O11_4 O 1.0000 -0.0000 0.1363(4)
C50_4 C 1.0000 -0.0000 0.2045(5)
Mn1_7 Mn 1.0000 -0.0000 1.0000
O2_4 O 1.0000 -0.0000 0.8637(4)
C9_4 C 1.0000 -0.0000 0.7955(5)
N2_3 N 0.8806(3) -0.0000 1.0000
O7_2 O 0.59069(15) 0.40931(15) 0.9309(3)
C26_3 C 0.7519(3) 0.0391(3) 1.0000
H13_3 H 0.7074 0.0714 1.0000
C27_3 C 0.8323(2) 0.0651(3) 1.0000
C28_3 C 0.8562(2) 0.1438(2) 1.0000
C29_3 C 0.7941(3) 0.2059(3) 1.0000
C30_2 C 0.7643(2) 0.2357(2) 0.9281(4)
H14_2 H 0.7833 0.2167 0.8774
C31_2 C 0.7070(2) 0.2930(2) 0.9279(4)
H15_2 H 0.6881 0.3119 0.8771
C32_3 C 0.6772(3) 0.3228(3) 1.0000
C33_3 C 0.6145(3) 0.3855(3) 1.0000
N4_5 N 1.0000 0.1194(3) 1.0000
C48_3 C 0.9609(3) 0.2481(3) 1.0000
H24_3 H 0.9286 0.2926 1.0000
C49_3 C 0.9349(3) 0.1677(2) 1.0000
Mn1_8 Mn 1.0000 1.0000 0.0000
N1_4 N 1.0000 0.8806(3) 0.0000
C1_2 C 0.9609(3) 0.7519(3) 0.0000
H1_2 H 0.9286 0.7074 0.0000
C2_2 C 0.9349(3) 0.8323(2) 0.0000
C3_2 C 0.8562(2) 0.8562(2) 0.0000
C4_2 C 0.7941(3) 0.7941(3) 0.0000
C7_2 C 0.6772(3) 0.6772(3) 0.0000
C8_2 C 0.6145(3) 0.6145(3) 0.0000
O5_2 O 0.59069(15) 0.59069(15) 0.0691(3)
N2_4 N 0.8806(3) 1.0000 0.0000
C18_2 C 0.7519(3) 0.9609(3) 0.0000
H7_2 H 0.7074 0.9286 0.0000
C19_2 C 0.8323(2) 0.9349(3) 0.0000
C20_2 C 0.7643(2) 0.7643(2) 0.0719(4)
H8_2 H 0.7833 0.7833 0.1226
C21_2 C 0.7070(2) 0.7070(2) 0.0721(4)
H9_2 H 0.6881 0.6881 0.1229
O11_5 O 1.0000 1.0000 0.1363(4)
C50_5 C 1.0000 1.0000 0.2045(5)
Mn1_9 Mn 1.0000 1.0000 1.0000
O1_2 O 0.59069(15) 0.59069(15) 0.9309(3)
O2_5 O 1.0000 1.0000 0.8637(4)
N1_5 N 1.0000 0.8806(3) 1.0000
C1_3 C 0.9609(3) 0.7519(3) 1.0000
H1_3 H 0.9286 0.7074 1.0000
C2_3 C 0.9349(3) 0.8323(2) 1.0000
C3_3 C 0.8562(2) 0.8562(2) 1.0000
C4_3 C 0.7941(3) 0.7941(3) 1.0000
C5_2 C 0.7643(2) 0.7643(2) 0.9281(4)
H2_2 H 0.7833 0.7833 0.8774
C6_2 C 0.7070(2) 0.7070(2) 0.9279(4)
H3_2 H 0.6881 0.6881 0.8771
C7_3 C 0.6772(3) 0.6772(3) 1.0000
C8_3 C 0.6145(3) 0.6145(3) 1.0000
C9_5 C 1.0000 1.0000 0.7955(5)
N2_5 N 0.8806(3) 1.0000 1.0000
C18_3 C 0.7519(3) 0.9609(3) 1.0000
H7_3 H 0.7074 0.9286 1.0000
C19_3 C 0.8323(2) 0.9349(3) 1.0000
H26_7 H 0.935638 1.11022e-16 0.2045
H25_7 H 0.935638 5.55112e-17 0.7955
H26_8 H 0.935638 1 0.2045
H25_8 H 0.935638 1 0.7955
H26_9 H 1.11022e-16 0.0643625 0.2045
H25_9 H 5.55112e-17 0.0643625 0.7955
H26_10 H 1 0.0643625 0.2045
H25_10 H 1 0.0643625 0.7955
H26_11 H -1.11022e-16 0.935638 0.2045
H25_11 H -5.55112e-17 0.935638 0.7955
H26_12 H 1 0.935638 0.2045
H25_12 H 1 0.935638 0.7955
loop_
_geom_bond_atom_site_label_1
_geom_bond_atom_site_label_2
_geom_bond_site_symmetry_1
_geom_bond_site_symmetry_2
Cd5 O1 1_555 1_555
Mn1 O2 1_555 1_555
O1 C8 1_555 1_555
O2 C9 1_555 1_555
O3 C9 1_555 1_555
N1 Mn1 1_555 1_555
C1 H1 1_555 1_555
C2 N1 1_555 1_555
C3 C2 1_555 1_555
C4 C3 1_555 1_555
C5 C4 1_555 1_555
H2 C5 1_555 1_555
C6 C5 1_555 1_555
H3 C6 1_555 1_555
C7 C6 1_555 1_555
C8 C7 1_555 1_555
O4 C17 1_555 1_555
C10 C1 1_555 1_555
H4 C10 1_555 1_555
C11 N1 1_555 1_555
C12 C11 1_555 1_555
C13 C12 1_555 1_555
C14 C13 1_555 1_555
H5 C14 1_555 1_555
C15 C14 1_555 1_555
H6 C15 1_555 1_555
C16 C15 1_555 1_555
C17 C16 1_555 1_555
O5 C8 1_555 1_555
N2 Mn1 1_555 1_555
C18 H7 1_555 1_555
C19 C3 1_555 1_555
C20 C4 1_555 1_555
H8 C20 1_555 1_555
C21 C7 1_555 1_555
H9 C21 1_555 1_555
O6 C17 1_555 1_555
C22 C13 1_555 1_555
H10 C22 1_555 1_555
C23 C16 1_555 1_555
H11 C23 1_555 1_555
N3 Mn1 1_555 1_555
C24 H12 1_555 1_555
C25 C12 1_555 1_555
O7 C33 1_555 1_555
C26 C18 1_555 1_555
H13 C26 1_555 1_555
C27 N2 1_555 1_555
C28 C27 1_555 1_555
C29 C28 1_555 1_555
C30 C29 1_555 1_555
H14 C30 1_555 1_555
C31 C30 1_555 1_555
H15 C31 1_555 1_555
C32 C31 1_555 1_555
C33 C32 1_555 1_555
O8 C41 1_555 1_555
C34 C24 1_555 1_555
H16 C34 1_555 1_555
C35 N3 1_555 1_555
C36 C35 1_555 1_555
C37 C36 1_555 1_555
C38 C37 1_555 1_555
H17 C38 1_555 1_555
C39 C38 1_555 1_555
H18 C39 1_555 1_555
C40 C39 1_555 1_555
C41 C40 1_555 1_555
O9 C33 1_555 1_555
C42 C29 1_555 1_555
H19 C42 1_555 1_555
C43 C32 1_555 1_555
H20 C43 1_555 1_555
O10 C41 1_555 1_555
C44 C37 1_555 1_555
H21 C44 1_555 1_555
C45 C40 1_555 1_555
H22 C45 1_555 1_555
N4 Mn1 1_555 1_555
C46 H23 1_555 1_555
C47 C36 1_555 1_555
C48 C46 1_555 1_555
H24 C48 1_555 1_555
C49 C28 1_555 1_555
Cd8 O5 1_555 1_555
O11 Mn1 1_555 1_555
O12 C50 1_555 1_555
C50 O11 1_555 1_555
Cd5_2 O7 1_555 1_555
Cd5_3 O6 1_555 1_555
Cd5_4 O10 1_555 1_555
Cd8_2 O9 1_555 1_555
Cd8_3 O4 1_555 1_555
Cd8_4 O8 1_555 1_555
Cd9 O12 1_555 1_555
Cd10 O3 1_555 1_555
O19 Cd8 1_555 1_555
O20 Cd5 1_555 1_555
C1 C2 1_555 1_555
C10 C11 1_555 1_555
N2 C19 1_555 1_555
C18 C19 1_555 1_555
C20 C21 1_555 1_555
C22 C23 1_555 1_555
N3 C25 1_555 1_555
C24 C25 1_555 1_555
C26 C27 1_555 1_555
C34 C35 1_555 1_555
C42 C43 1_555 1_555
C44 C45 1_555 1_555
N4 C47 1_555 1_555
N4 C49 1_555 1_555
C46 C47 1_555 1_555
C48 C49 1_555 1_555
C9 H25 1_555 1_555
C50 H26 1_555 1_555
O19_2 Cd8_2 1_555 1_555
O20_2 Cd5_2 1_555 1_555
O19_3 Cd8_3 1_555 1_555
O20_3 Cd5_3 1_555 1_555
O19_4 Cd8_4 1_555 1_555
O20_4 Cd5_4 1_555 1_555
C9 H25_2 1_555 1_555
C50 H26_2 1_555 1_555
C9 H25_3 1_555 1_555
C50 H26_3 1_555 1_555
C9 H25_4 1_555 1_555
C50 H26_4 1_555 1_555
N3_2 Mn1_2 1_555 1_555
O8_2 C41_2 1_555 1_555
H16_2 C34_2 1_555 1_555
C35_2 N3_2 1_555 1_555
C36_2 C35_2 1_555 1_555
C37_2 C36_2 1_555 1_555
C38_2 C37_2 1_555 1_555
H17_2 C38_2 1_555 1_555
C39_2 C38_2 1_555 1_555
H18_2 C39_2 1_555 1_555
C40_2 C39_2 1_555 1_555
C41_2 C40_2 1_555 1_555
N4_2 Mn1_2 1_555 1_555
C46_2 H23_2 1_555 1_555
C47_2 C36_2 1_555 1_555
O11_2 Mn1_2 1_555 1_555
O20 C50_2 1_555 1_555
C50_2 O11_2 1_555 1_555
Cd10 O8_2 1_555 1_555
C34_2 C35_2 1_555 1_555
N4_2 C47_2 1_555 1_555
C46_2 C47_2 1_555 1_555
C50_2 H26_5 1_555 1_555
Mn1_3 O2_2 1_555 1_555
O2_2 C9_2 1_555 1_555
O19 C9_2 1_555 1_555
N3_3 Mn1_3 1_555 1_555
H16_3 C34_3 1_555 1_555
C35_3 N3_3 1_555 1_555
C36_3 C35_3 1_555 1_555
C37_3 C36_3 1_555 1_555
C41_3 C40_3 1_555 1_555
O10_2 C41_3 1_555 1_555
C44_2 C37_3 1_555 1_555
H21_2 C44_2 1_555 1_555
C45_2 C40_3 1_555 1_555
H22_2 C45_2 1_555 1_555
N4_3 Mn1_3 1_555 1_555
C46_3 H23_3 1_555 1_555
C47_3 C36_3 1_555 1_555
Cd9 O10_2 1_555 1_555
C34_3 C35_3 1_555 1_555
C44_2 C45_2 1_555 1_555
N4_3 C47_3 1_555 1_555
C46_3 C47_3 1_555 1_555
C9_2 H25_5 1_555 1_555
N1_2 Mn1_4 1_555 1_555
O4_2 C17_2 1_555 1_555
H4_2 C10_2 1_555 1_555
C11_2 N1_2 1_555 1_555
C12_2 C11_2 1_555 1_555
C13_2 C12_2 1_555 1_555
C14_2 C13_2 1_555 1_555
H5_2 C14_2 1_555 1_555
C15_2 C14_2 1_555 1_555
H6_2 C15_2 1_555 1_555
C16_2 C15_2 1_555 1_555
C17_2 C16_2 1_555 1_555
N3_4 Mn1_4 1_555 1_555
C24_2 H12_2 1_555 1_555
C25_2 C12_2 1_555 1_555
O11_3 Mn1_4 1_555 1_555
O20_2 C50_3 1_555 1_555
C50_3 O11_3 1_555 1_555
Cd10 O4_2 1_555 1_555
C10_2 C11_2 1_555 1_555
N3_4 C25_2 1_555 1_555
C24_2 C25_2 1_555 1_555
C50_3 H26_6 1_555 1_555
Mn1_5 O2_3 1_555 1_555
O2_3 C9_3 1_555 1_555
O19_2 C9_3 1_555 1_555
N1_3 Mn1_5 1_555 1_555
H4_3 C10_3 1_555 1_555
C11_3 N1_3 1_555 1_555
C12_3 C11_3 1_555 1_555
C13_3 C12_3 1_555 1_555
C17_3 C16_3 1_555 1_555
O6_2 C17_3 1_555 1_555
C22_2 C13_3 1_555 1_555
H10_2 C22_2 1_555 1_555
C23_2 C16_3 1_555 1_555
H11_2 C23_2 1_555 1_555
N3_5 Mn1_5 1_555 1_555
C24_3 H12_3 1_555 1_555
C25_3 C12_3 1_555 1_555
Cd9 O6_2 1_555 1_555
C10_3 C11_3 1_555 1_555
C22_2 C23_2 1_555 1_555
N3_5 C25_3 1_555 1_555
C24_3 C25_3 1_555 1_555
C9_3 H25_6 1_555 1_555
N2_2 Mn1_6 1_555 1_555
H13_2 C26_2 1_555 1_555
C27_2 N2_2 1_555 1_555
C28_2 C27_2 1_555 1_555
C29_2 C28_2 1_555 1_555
C33_2 C32_2 1_555 1_555
O9_2 C33_2 1_555 1_555
C42_2 C29_2 1_555 1_555
H19_2 C42_2 1_555 1_555
C43_2 C32_2 1_555 1_555
H20_2 C43_2 1_555 1_555
N4_4 Mn1_6 1_555 1_555
H24_2 C48_2 1_555 1_555
C49_2 C28_2 1_555 1_555
O11_4 Mn1_6 1_555 1_555
O20_3 C50_4 1_555 1_555
C50_4 O11_4 1_555 1_555
Cd10 O9_2 1_555 1_555
C26_2 C27_2 1_555 1_555
C42_2 C43_2 1_555 1_555
N4_4 C49_2 1_555 1_555
C48_2 C49_2 1_555 1_555
Mn1_7 O2_4 1_555 1_555
O2_4 C9_4 1_555 1_555
O19_3 C9_4 1_555 1_555
N2_3 Mn1_7 1_555 1_555
O7_2 C33_3 1_555 1_555
H13_3 C26_3 1_555 1_555
C27_3 N2_3 1_555 1_555
C28_3 C27_3 1_555 1_555
C29_3 C28_3 1_555 1_555
C30_2 C29_3 1_555 1_555
H14_2 C30_2 1_555 1_555
C31_2 C30_2 1_555 1_555
H15_2 C31_2 1_555 1_555
C32_3 C31_2 1_555 1_555
C33_3 C32_3 1_555 1_555
N4_5 Mn1_7 1_555 1_555
H24_3 C48_3 1_555 1_555
C49_3 C28_3 1_555 1_555
Cd9 O7_2 1_555 1_555
C26_3 C27_3 1_555 1_555
N4_5 C49_3 1_555 1_555
C48_3 C49_3 1_555 1_555
N1_4 Mn1_8 1_555 1_555
C1_2 H1_2 1_555 1_555
C2_2 N1_4 1_555 1_555
C3_2 C2_2 1_555 1_555
C4_2 C3_2 1_555 1_555
C8_2 C7_2 1_555 1_555
O5_2 C8_2 1_555 1_555
N2_4 Mn1_8 1_555 1_555
C18_2 H7_2 1_555 1_555
C19_2 C3_2 1_555 1_555
C20_2 C4_2 1_555 1_555
H8_2 C20_2 1_555 1_555
C21_2 C7_2 1_555 1_555
H9_2 C21_2 1_555 1_555
Cd10 O5_2 1_555 1_555
O11_5 Mn1_8 1_555 1_555
O20_4 C50_5 1_555 1_555
C50_5 O11_5 1_555 1_555
C1_2 C2_2 1_555 1_555
N2_4 C19_2 1_555 1_555
C18_2 C19_2 1_555 1_555
C20_2 C21_2 1_555 1_555
Cd9 O1_2 1_555 1_555
Mn1_9 O2_5 1_555 1_555
O1_2 C8_3 1_555 1_555
O2_5 C9_5 1_555 1_555
O19_4 C9_5 1_555 1_555
N1_5 Mn1_9 1_555 1_555
C1_3 H1_3 1_555 1_555
C2_3 N1_5 1_555 1_555
C3_3 C2_3 1_555 1_555
C4_3 C3_3 1_555 1_555
C5_2 C4_3 1_555 1_555
H2_2 C5_2 1_555 1_555
C6_2 C5_2 1_555 1_555
H3_2 C6_2 1_555 1_555
C7_3 C6_2 1_555 1_555
C8_3 C7_3 1_555 1_555
N2_5 Mn1_9 1_555 1_555
C18_3 H7_3 1_555 1_555
C19_3 C3_3 1_555 1_555
C1_3 C2_3 1_555 1_555
N2_5 C19_3 1_555 1_555
C18_3 C19_3 1_555 1_555
C50_4 H26_7 1_555 1_555
C9_4 H25_7 1_555 1_555
C50_5 H26_8 1_555 1_555
C9_5 H25_8 1_555 1_555
C50_2 H26_9 1_555 1_555
C9_2 H25_9 1_555 1_555
C50_4 H26_10 1_555 1_555
C9_4 H25_10 1_555 1_555
C50_3 H26_11 1_555 1_555
C9_3 H25_11 1_555 1_555
C50_5 H26_12 1_555 1_555
C9_5 H25_12 1_555 1_555

#END
