
###############################################################################
#
# This file contains modified crystal structure data generated from the
# MOF subset of the Cambridge Structural Database (CSD) v543 
# hosted by the Cambridge Crystallographic Data Centre (CCDC).
#
# This work is licensed under the Creative Commons
# Attribution-NonCommercial-ShareAlike 4.0 International License.
# To view a copy of this license, visit
# http://creativecommons.org/licenses/by-nc-sa/4.0/
# or send a letter to
# Creative Commons, PO Box 1866, Mountain View, CA 94042, USA.
#
# CIF created using the CSD Python API on 29 September 2022
# The structure has been converted into the P1 space group
# The structure has a 3D framework
# The original CSD entry PIBZAE is in the monoclinic crystal system
# The framework has been calculated to contain at least 10.0% void space
# The void calculation uses a probe of radius 1.32A, grid spacing 0.4
# H atom positions have been added when not included in the experimental data
#
###############################################################################

data_PIBZAE
_chemical_formula_moiety         '(C104 H144 Cu16 F16 N48 O196 Si4 W48)n'
_symmetry_cell_setting           triclinic
_symmetry_space_group_name_H-M   'P 1'
_symmetry_Int_Tables_number      1
_space_group_name_Hall           'P 1'
loop_
_symmetry_equiv_pos_site_id
_symmetry_equiv_pos_as_xyz
1 x,y,z
_cell_length_a                   12.870(3)
_cell_length_b                   25.158(5)
_cell_length_c                   22.566(5)
_cell_angle_alpha                90
_cell_angle_beta                 95.947(4)
_cell_angle_gamma                90
_cell_volume                     7267.18
loop_
_atom_site_label
_atom_site_type_symbol
_atom_site_fract_x
_atom_site_fract_y
_atom_site_fract_z
Cu6 Cu 0.0244(2) 0.44185(9) 0.00569(12)
C1 C 0.4376(17) 0.1687(8) 0.5299(10)
H1 H 0.4679 0.1859 0.4996
C2 C 0.065(3) 0.0608(14) 0.4667(19)
C3 C 0.3527(18) 0.1552(8) 0.6035(9)
H2 H 0.3137 0.1606 0.6354
C4 C 0.162(3) 0.0422(13) 0.5613(14)
C5 C 0.0614(17) 0.6691(8) 0.5161(9)
C6 C 0.189(2) 0.6570(8) 0.5852(12)
C8 C 0.1978(18) 0.3594(8) 0.5147(10)
H4 H 0.1740 0.3397 0.4812
C10 C 0.1964(16) 0.4700(7) 0.6106(8)
H7 H 0.2563 0.4778 0.6390
H8 H 0.1368 0.4643 0.6329
C11 C 0.1746(16) 0.5177(7) 0.5698(8)
C12 C 0.2709(17) 0.5316(8) 0.5384(9)
C13 C 0.2651(19) 0.5343(8) 0.4778(11)
H9 H 0.2022 0.5260 0.4556
C14 C 0.2478(18) 0.0294(8) 0.5328(9)
C15 C 0.3496(16) 0.0137(7) 0.5693(9)
C16 C 0.3878(18) 0.0562(8) 0.6158(9)
H10 H 0.3405 0.0575 0.6465
H11 H 0.4564 0.0463 0.6345
C18 C 0.454(2) 0.5626(10) 0.5414(14)
H13 H 0.5160 0.5734 0.5632
C19 C 0.352(2) 0.5493(11) 0.4474(12)
H14 H 0.3472 0.5505 0.4060
C20 C 0.066(3) 0.0576(17) 0.529(2)
H15 H 0.0069 0.0650 0.5481
C21 C 0.242(2) 0.0334(10) 0.4707(12)
H16 H 0.3005 0.0259 0.4515
C22 C 0.152(3) 0.0478(14) 0.4379(17)
H17 H 0.1484 0.0490 0.3965
C23 C 0.1524(17) 0.5644(7) 0.6124(9)
H18 H 0.0916 0.5562 0.6327
H19 H 0.2117 0.5692 0.6422
C24 C 0.368(2) 0.5461(9) 0.5688(11)
C25 C 0.443(3) 0.5620(11) 0.4809(14)
C26 C 0.2842(18) 0.3823(8) 0.5951(9)
H20 H 0.3302 0.3828 0.6297
N1 N 0.4517(14) 0.1174(6) 0.5421(7)
N2 N 0.3937(14) 0.1094(7) 0.5886(7)
N3 N 0.1586(15) 0.4050(6) 0.5264(8)
N4 N 0.2170(14) 0.4204(6) 0.5780(7)
N5 N 0.2758(15) 0.3426(7) 0.5547(8)
N6 N 0.3771(15) 0.1926(7) 0.5646(7)
N7 N 0.0514(13) 0.6190(6) 0.5364(7)
N8 N 0.1443(15) 0.6937(7) 0.5458(8)
N9 N 0.1345(14) 0.6118(6) 0.5786(7)
O1 O 0.4484(12) 0.2851(6) 0.5072(7)
O2 O 0.0867(11) 0.5093(5) 0.5272(5)
O3 O 0.4285(11) 0.0061(5) 0.5303(6)
F1 F 0.3776(11) 0.5441(7) 0.6283(6)
F2 F 0.5242(14) 0.5772(8) 0.4516(9)
F3 F 0.1607(15) 0.0386(10) 0.6179(8)
Cu1 Cu 0.5244(2) 0.05815(9) 0.50569(12)
Cu2 Cu 0.0317(2) 0.44356(9) 0.49353(11)
Cu3 Cu 0.3326(2) 0.26898(9) 0.56139(11)
H21 H 0.4304 0.3055 0.4775
H22 H 0.5149 0.2885 0.5147
O4 O 0.145(3) 0.7830(10) 0.622(2)
Cu4 Cu 0.1868(2) 0.76799(10) 0.53936(16)
H23 H 0.0930 0.7876 0.6438
H24 H 0.1828 0.7582 0.6435
O6 O 0.0579(12) 0.3281(5) 0.6111(6)
O8 O 0.0654(12) 0.3975(5) 0.6999(6)
O9 O 0.2199(13) 0.3887(6) 0.7939(7)
O10 O 0.1208(12) 0.2910(5) 0.8166(6)
O14 O 0.1140(12) 0.2097(6) 0.7117(7)
O25 O 0.1282(17) 0.1026(7) 0.7448(8)
O26 O 0.2055(12) 0.2469(5) 0.6104(6)
O27 O 0.0051(11) 0.3762(5) 0.8077(6)
O36 O 0.1833(11) 0.3101(6) 0.7097(6)
O38 O 0.1165(13) 0.1852(6) 0.8265(7)
W2 W 0.10571(7) 0.26452(4) 0.65260(4)
W7 W 0.05724(9) 0.24446(4) 0.86490(4)
W9 W 0.11648(9) 0.35229(4) 0.76338(5)
W10 W 0.04795(10) 0.15542(4) 0.75432(5)
O44 O 0.1425(15) 0.2458(5) 0.9281(7)
O45 O 0.2314(15) 0.2475(7) 0.4781(7)
H25 H 0.1940 0.2428 0.4449
H26 H 0.2179 0.2209 0.5003
O46 O 0.4263(13) 0.2889(7) 0.6431(9)
H27 H 0.4226 0.2798 0.6800
H28 H 0.4901 0.2838 0.6369
O47 O 0.005(2) 0.7920(7) 0.5178(8)
H30 H 0.0007 0.7864 0.4799
O48 O 0.1066(16) 0.4442(8) 0.3956(9)
H31 H 0.1094 0.4394 0.3579
H32 H 0.1678 0.4355 0.4122
O49 O 0.639(2) 0.0559(8) 0.6032(11)
H33 H 0.6493 0.0302 0.6290
H34 H 0.6752 0.0821 0.6189
N14 N 0.2449(15) 0.8397(7) 0.5396(8)
N15 N 0.6355(14) 0.1000(6) 0.4760(7)
Cu9 Cu 0.3132(2) 0.26799(10) 0.96064(16)
O52 O 0.4239(13) 0.0940(6) 0.4098(6)
O53 O 0.2077(12) 0.7675(5) 0.4343(7)
O54 O 0.3575(15) 0.7458(5) 0.5719(7)
H35 H 0.257711 0.66352 0.616771
H36 H 0.00951894 0.687196 0.480542
C7 C 0.2414(17) 0.8799(8) 0.5785(9)
H3 H 0.1955 0.8814 0.6077
C9 C 0.3409(17) 0.9630(7) 0.6065(9)
H5 H 0.2901 0.9687 0.6346
H6 H 0.4079 0.9560 0.6290
C17 C 0.3213(18) 0.8541(8) 0.5075(10)
H12 H 0.3423 0.8337 0.4765
N11 N 0.3645(14) 0.9000(6) 0.5240(7)
N12 N 0.3102(14) 0.9165(7) 0.5703(7)
O51 O 0.5715(11) 0.9939(5) 0.4697(6)
Cu5 Cu 0.4756(2) 0.94185(9) 0.49431(12)
F4 F 0.9738(19) 0.0768(12) 0.4320(12)
O5 O 0.9837(11) 0.3035(5) 0.7080(6)
O7 O 0.6929(12) 0.3383(6) 0.6640(7)
O11 O 0.8238(11) 0.3126(5) 0.7702(6)
O12 O 0.9643(12) 0.3005(6) 0.8799(6)
O13 O 0.8185(11) 0.2433(5) 0.6811(6)
O15 O 0.8507(11) 0.3298(5) 0.6029(6)
O16 O 0.9621(13) 0.4240(6) 0.5914(6)
O17 O 0.6525(13) 0.3153(6) 0.5432(7)
O18 O 0.9912(13) 0.2274(6) 0.6139(7)
O19 O 0.6590(14) 0.4403(6) 0.7061(7)
O20 O 0.7423(13) 0.1529(6) 0.6417(8)
O21 O 0.7568(14) 0.1616(6) 0.7595(7)
O22 O 0.9528(14) 0.1951(6) 0.8905(8)
O23 O 0.6286(12) 0.2410(6) 0.6293(7)
O24 O 0.9471(15) 0.1256(6) 0.8016(8)
O28 O 0.8046(12) 0.4102(6) 0.8013(6)
O29 O 0.6379(13) 0.3512(6) 0.7751(7)
O30 O 0.7631(13) 0.2282(7) 0.8480(7)
O31 O 0.5734(14) 0.2800(8) 0.8575(8)
O32 O 0.6414(14) 0.2454(6) 0.7495(7)
O33 O 0.8554(11) 0.3975(5) 0.6906(6)
O34 O 0.5615(15) 0.1549(7) 0.6919(8)
O35 O 0.9401(12) 0.2266(5) 0.7827(7)
O37 O 0.7653(13) 0.3327(7) 0.8736(7)
O39 O 0.8964(15) 0.1359(7) 0.5657(7)
O40 O 0.9505(14) 0.1502(6) 0.6860(7)
O41 O 0.9239(13) 0.4060(6) 0.9098(6)
O42 O 0.7933(17) 0.1213(7) 0.8767(9)
Si1 Si 0.8913(5) 0.2714(2) 0.7347(2)
W1 W 0.66958(9) 0.19192(4) 0.69534(5)
W3 W 0.95674(8) 0.37417(4) 0.64119(4)
W4 W 0.72612(8) 0.29002(4) 0.60279(4)
W5 W 0.73061(8) 0.38554(4) 0.72678(4)
W6 W 0.89117(8) 0.36446(4) 0.85172(4)
W8 W 0.67852(9) 0.28808(5) 0.81955(5)
W11 W 0.84374(10) 0.16696(4) 0.83353(5)
W12 W 0.87360(11) 0.17978(5) 0.61823(6)
O43 O 0.7923(12) 0.2325(5) 0.5657(7)
H29 H 0.9850 0.8247 0.5214
N13 N 0.9486(13) 0.3810(6) 0.4636(7)
O50 O 0.9133(11) 0.4907(5) 0.4728(5)
Cu7 Cu 0.9683(2) 0.55644(9) 0.50647(11)
Cu10 Cu 0.8132(2) 0.23201(10) 0.46064(16)
C13_2 C 0.2349(19) 0.0343(8) 0.0222(11)
H9_2 H 0.2978 0.0260 0.0444
C19_2 C 0.148(2) 0.0493(11) 0.0526(12)
H14_2 H 0.1528 0.0505 0.0940
C25_2 C 0.057(3) 0.0620(11) 0.0191(14)
H30_2 H 0.4993 0.2864 0.0201
O53_2 O 0.2923(12) 0.2675(5) 0.0657(7)
H36_2 H 0.490481 0.187196 0.0194577
C5_2 C 0.4386(17) 0.1691(8) 0.9839(9)
C6_2 C 0.311(2) 0.1570(8) 0.9148(12)
C11_2 C 0.3254(16) 0.0177(7) 0.9302(8)
C12_2 C 0.2291(17) 0.0316(8) 0.9616(9)
C18_2 C 0.046(2) 0.0626(10) 0.9586(14)
C23_2 C 0.3476(17) 0.0644(7) 0.8876(9)
H18_2 H 0.4084 0.0562 0.8673
H19_2 H 0.2883 0.0692 0.8578
C24_2 C 0.132(2) 0.0461(9) 0.9312(11)
N7_2 N 0.4486(13) 0.1190(6) 0.9636(7)
N8_2 N 0.3557(15) 0.1937(7) 0.9542(8)
N9_2 N 0.3655(14) 0.1118(6) 0.9214(7)
O2_2 O 0.4133(11) 0.0093(5) 0.9728(5)
F1_2 F 0.1224(11) 0.0441(7) 0.8717(6)
O4_2 O 0.355(3) 0.2830(10) 0.878(2)
H23_2 H 0.4070 0.2876 0.8562
H24_2 H 0.3172 0.2582 0.8565
O47_2 O 0.495(2) 0.2920(7) 0.9822(8)
H29_2 H 0.5150 0.3247 0.9786
N14_2 N 0.2551(15) 0.3397(7) 0.9604(8)
Cu7_2 Cu 0.5317(2) 0.05644(9) 0.99353(11)
H35_2 H 0.242289 0.16352 0.883229
H1_2 H 0.0321 0.6859 0.0004
C2_2 C 0.435(3) 0.5608(14) 0.0333(19)
H4_2 H 0.3260 0.8397 0.0188
H12_2 H 0.1577 0.3337 0.0235
C21_2 C 0.258(2) 0.5334(10) 0.0293(12)
H16_2 H 0.1995 0.5259 0.0485
C22_2 C 0.348(3) 0.5478(14) 0.0621(17)
H17_2 H 0.3516 0.5490 0.1035
F4_2 F 0.5262(19) 0.5768(12) 0.0680(12)
Cu2_2 Cu 0.4683(2) 0.94356(9) 0.00647(11)
H21_2 H 0.0696 0.8055 0.0225
O45_2 O 0.2686(15) 0.7475(7) 0.0219(7)
H25_2 H 0.3060 0.7428 0.0551
O48_2 O 0.3934(16) 0.9442(8) 0.1044(9)
H31_2 H 0.3906 0.9394 0.1421
H32_2 H 0.3322 0.9355 0.0878
N13_2 N 0.5514(13) 0.8810(6) 0.0364(7)
O50_2 O 0.5867(11) 0.9907(5) 0.0272(5)
Cu10_2 Cu 0.6868(2) 0.73201(10) 0.03936(16)
O52_2 O 0.0761(13) 0.5940(6) 0.0902(6)
C1_2 C 0.0624(17) 0.6687(8) 0.9701(10)
C3_2 C 0.1473(18) 0.6552(8) 0.8965(9)
H2_2 H 0.1863 0.6606 0.8646
C4_2 C 0.338(3) 0.5422(13) 0.9387(14)
C7_2 C 0.2586(17) 0.3799(8) 0.9215(9)
H3_2 H 0.3045 0.3814 0.8923
C8_2 C 0.3022(18) 0.8594(8) 0.9853(10)
C9_2 C 0.1591(17) 0.4630(7) 0.8935(9)
H5_2 H 0.2099 0.4687 0.8654
H6_2 H 0.0921 0.4560 0.8710
C10_2 C 0.3036(16) 0.9700(7) 0.8894(8)
H7_2 H 0.2437 0.9778 0.8610
H8_2 H 0.3632 0.9643 0.8671
C14_2 C 0.2522(18) 0.5294(8) 0.9672(9)
C15_2 C 0.1504(16) 0.5137(7) 0.9307(9)
C16_2 C 0.1122(18) 0.5562(8) 0.8842(9)
H10_2 H 0.1595 0.5575 0.8535
H11_2 H 0.0436 0.5463 0.8655
C17_2 C 0.1787(18) 0.3541(8) 0.9925(10)
C20_2 C 0.434(3) 0.5576(17) 0.971(2)
H15_2 H 0.4931 0.5650 0.9519
C26_2 C 0.2158(18) 0.8823(8) 0.9049(9)
H20_2 H 0.1698 0.8828 0.8703
N1_2 N 0.0483(14) 0.6174(6) 0.9579(7)
N2_2 N 0.1063(14) 0.6094(7) 0.9114(7)
N3_2 N 0.3414(15) 0.9050(6) 0.9736(8)
N4_2 N 0.2830(14) 0.9204(6) 0.9220(7)
N5_2 N 0.2242(15) 0.8426(7) 0.9453(8)
N6_2 N 0.1229(15) 0.6926(7) 0.9354(7)
N11_2 N 0.1355(14) 0.4000(6) 0.9760(7)
N12_2 N 0.1898(14) 0.4165(7) 0.9297(7)
O1_2 O 0.0516(12) 0.7851(6) 0.9928(7)
O3_2 O 0.0715(11) 0.5061(5) 0.9697(6)
F3_2 F 0.3393(15) 0.5386(10) 0.8821(8)
Cu3_2 Cu 0.1674(2) 0.76898(9) 0.93861(11)
O5_2 O 0.5163(11) 0.8035(5) 0.7920(6)
O6_2 O 0.4421(12) 0.8281(5) 0.8889(6)
O7_2 O 0.8071(12) 0.8383(6) 0.8360(7)
O8_2 O 0.4346(12) 0.8975(5) 0.8001(6)
O9_2 O 0.2801(13) 0.8887(6) 0.7061(7)
O10_2 O 0.3792(12) 0.7910(5) 0.6834(6)
O11_2 O 0.6762(11) 0.8126(5) 0.7298(6)
O12_2 O 0.5357(12) 0.8005(6) 0.6201(6)
O13_2 O 0.6815(11) 0.7433(5) 0.8189(6)
O14_2 O 0.3860(12) 0.7097(6) 0.7883(7)
O15_2 O 0.6493(11) 0.8298(5) 0.8971(6)
O16_2 O 0.5379(13) 0.9240(6) 0.9086(6)
O17_2 O 0.8475(13) 0.8153(6) 0.9568(7)
O18_2 O 0.5088(13) 0.7274(6) 0.8861(7)
O19_2 O 0.8410(14) 0.9403(6) 0.7939(7)
O20_2 O 0.7577(13) 0.6529(6) 0.8583(8)
O21_2 O 0.7432(14) 0.6616(6) 0.7405(7)
O22_2 O 0.5472(14) 0.6951(6) 0.6095(8)
O23_2 O 0.8714(12) 0.7410(6) 0.8707(7)
O24_2 O 0.5529(15) 0.6256(6) 0.6984(8)
O25_2 O 0.3718(17) 0.6026(7) 0.7552(8)
O26_2 O 0.2945(12) 0.7469(5) 0.8896(6)
O27_2 O 0.4949(11) 0.8762(5) 0.6923(6)
O28_2 O 0.6954(12) 0.9102(6) 0.6987(6)
O29_2 O 0.8621(13) 0.8512(6) 0.7249(7)
O30_2 O 0.7369(13) 0.7282(7) 0.6520(7)
O31_2 O 0.9266(14) 0.7800(8) 0.6425(8)
O32_2 O 0.8586(14) 0.7454(6) 0.7505(7)
O33_2 O 0.6446(11) 0.8975(5) 0.8094(6)
O34_2 O 0.9385(15) 0.6549(7) 0.8081(8)
O35_2 O 0.5599(12) 0.7266(5) 0.7173(7)
O36_2 O 0.3167(11) 0.8101(6) 0.7903(6)
O37_2 O 0.7347(13) 0.8327(7) 0.6264(7)
O38_2 O 0.3835(13) 0.6852(6) 0.6735(7)
O39_2 O 0.6036(15) 0.6359(7) 0.9343(7)
O40_2 O 0.5495(14) 0.6502(6) 0.8140(7)
O41_2 O 0.5761(13) 0.9060(6) 0.5902(6)
O42_2 O 0.7067(17) 0.6213(7) 0.6233(9)
Si1_2 Si 0.6087(5) 0.7714(2) 0.7653(2)
W1_2 W 0.83042(9) 0.69192(4) 0.80466(5)
W2_2 W 0.39429(7) 0.76452(4) 0.84740(4)
W3_2 W 0.54326(8) 0.87417(4) 0.85881(4)
W4_2 W 0.77388(8) 0.79002(4) 0.89721(4)
W5_2 W 0.76939(8) 0.88554(4) 0.77322(4)
W6_2 W 0.60883(8) 0.86446(4) 0.64828(4)
W7_2 W 0.44276(9) 0.74446(4) 0.63510(4)
W8_2 W 0.82148(9) 0.78808(5) 0.68045(5)
W9_2 W 0.38352(9) 0.85229(4) 0.73662(5)
W10_2 W 0.45205(10) 0.65542(4) 0.74568(5)
W11_2 W 0.65626(10) 0.66696(4) 0.66647(5)
W12_2 W 0.62640(11) 0.67978(5) 0.88177(6)
O43_2 O 0.7077(12) 0.7325(5) 0.9343(7)
H26_2 H 0.2821 0.7209 0.9997
O46_2 O 0.0737(13) 0.7889(7) 0.8569(9)
H27_2 H 0.0774 0.7798 0.8200
H28_2 H 0.0099 0.7838 0.8631
N15_2 N 0.8645(14) 0.6000(6) 0.0240(7)
O51_2 O 0.9285(11) 0.4939(5) 0.0303(6)
Cu1_2 Cu 0.9756(2) 0.55815(9) 0.99431(12)
H22_2 H 0.9851 0.7885 0.9853
O49_2 O 0.861(2) 0.5559(8) 0.8968(11)
H33_2 H 0.8507 0.5302 0.8710
H34_2 H 0.8248 0.5821 0.8811
F4_3 F 0.0262(19) 0.9232(12) 0.5680(12)
O5_3 O 0.0163(11) 0.6965(5) 0.2920(6)
O7_3 O 0.3071(12) 0.6617(6) 0.3360(7)
O11_3 O 0.1762(11) 0.6874(5) 0.2298(6)
O12_3 O 0.0357(12) 0.6995(6) 0.1201(6)
O13_3 O 0.1815(11) 0.7567(5) 0.3189(6)
O15_3 O 0.1493(11) 0.6702(5) 0.3971(6)
O16_3 O 0.0379(13) 0.5760(6) 0.4086(6)
O17_3 O 0.3475(13) 0.6847(6) 0.4568(7)
O18_3 O 0.0088(13) 0.7726(6) 0.3861(7)
O19_3 O 0.3410(14) 0.5597(6) 0.2939(7)
O20_3 O 0.2577(13) 0.8471(6) 0.3583(8)
O21_3 O 0.2432(14) 0.8384(6) 0.2405(7)
O22_3 O 0.0472(14) 0.8049(6) 0.1095(8)
O23_3 O 0.3714(12) 0.7590(6) 0.3707(7)
O24_3 O 0.0529(15) 0.8744(6) 0.1984(8)
O28_3 O 0.1954(12) 0.5898(6) 0.1987(6)
O29_3 O 0.3621(13) 0.6488(6) 0.2249(7)
O30_3 O 0.2369(13) 0.7718(7) 0.1520(7)
O31_3 O 0.4266(14) 0.7200(8) 0.1425(8)
O32_3 O 0.3586(14) 0.7546(6) 0.2505(7)
O33_3 O 0.1446(11) 0.6025(5) 0.3094(6)
O34_3 O 0.4385(15) 0.8451(7) 0.3081(8)
O35_3 O 0.0599(12) 0.7734(5) 0.2173(7)
O37_3 O 0.2347(13) 0.6673(7) 0.1264(7)
O39_3 O 0.1036(15) 0.8641(7) 0.4343(7)
O40_3 O 0.0495(14) 0.8498(6) 0.3140(7)
O42_3 O 0.2067(17) 0.8787(7) 0.1233(9)
Si1_3 Si 0.1087(5) 0.7286(2) 0.2653(2)
W1_3 W 0.33042(9) 0.80808(4) 0.30466(5)
W3_3 W 0.04326(8) 0.62583(4) 0.35881(4)
W4_3 W 0.27388(8) 0.70998(4) 0.39721(4)
W5_3 W 0.26939(8) 0.61446(4) 0.27322(4)
W6_3 W 0.10883(8) 0.63554(4) 0.14828(4)
W8_3 W 0.32148(9) 0.71192(5) 0.18045(5)
W11_3 W 0.15626(10) 0.83304(4) 0.16647(5)
W12_3 W 0.12640(11) 0.82022(5) 0.38177(6)
H29_3 H 0.0150 0.1753 0.4786
C7_3 C 0.7586(17) 0.1201(8) 0.4215(9)
H3_3 H 0.8045 0.1186 0.3923
C9_3 C 0.6591(17) 0.0370(7) 0.3935(9)
H5_3 H 0.7099 0.0313 0.3654
H6_3 H 0.5921 0.0440 0.3710
C17_3 C 0.6787(18) 0.1459(8) 0.4925(10)
H12_3 H 0.6577 0.1663 0.5235
N10 N 0.7551(15) 0.1603(7) 0.4604(8)
N12_3 N 0.6898(14) 0.0835(7) 0.4297(7)
C1_3 C 0.5624(17) 0.8313(8) 0.4701(10)
H1_3 H 0.5321 0.8141 0.5004
C2_3 C 0.935(3) 0.9392(14) 0.5333(19)
C3_3 C 0.6473(18) 0.8448(8) 0.3965(9)
H2_3 H 0.6863 0.8394 0.3646
C4_3 C 0.838(3) 0.9578(13) 0.4387(14)
C5_3 C 0.9386(17) 0.3309(8) 0.4839(9)
C6_3 C 0.811(2) 0.3430(8) 0.4148(12)
C8_3 C 0.8022(18) 0.6406(8) 0.4853(10)
H4_3 H 0.8260 0.6603 0.5188
C10_3 C 0.8036(16) 0.5300(7) 0.3894(8)
H7_3 H 0.7437 0.5222 0.3610
H8_3 H 0.8632 0.5357 0.3671
C11_3 C 0.8254(16) 0.4823(7) 0.4302(8)
C12_3 C 0.7291(17) 0.4684(8) 0.4616(9)
C13_3 C 0.7349(19) 0.4657(8) 0.5222(11)
H9_3 H 0.7978 0.4740 0.5444
C14_3 C 0.7522(18) 0.9706(8) 0.4672(9)
C15_3 C 0.6504(16) 0.9863(7) 0.4307(9)
C16_3 C 0.6122(18) 0.9438(8) 0.3842(9)
H10_3 H 0.6595 0.9425 0.3535
H11_3 H 0.5436 0.9537 0.3655
C18_3 C 0.546(2) 0.4374(10) 0.4586(14)
H13_2 H 0.4840 0.4266 0.4368
C19_3 C 0.648(2) 0.4507(11) 0.5526(12)
H14_3 H 0.6528 0.4495 0.5940
C20_3 C 0.934(3) 0.9424(17) 0.471(2)
H15_3 H 0.9931 0.9350 0.4519
C21_3 C 0.758(2) 0.9666(10) 0.5293(12)
H16_3 H 0.6995 0.9741 0.5485
C22_3 C 0.848(3) 0.9522(14) 0.5621(17)
H17_3 H 0.8516 0.9510 0.6035
C23_3 C 0.8476(17) 0.4356(7) 0.3876(9)
H18_3 H 0.9084 0.4438 0.3673
H19_3 H 0.7883 0.4308 0.3578
C24_3 C 0.632(2) 0.4539(9) 0.4312(11)
C25_3 C 0.557(3) 0.4380(11) 0.5191(14)
C26_3 C 0.7158(18) 0.6177(8) 0.4049(9)
H20_3 H 0.6698 0.6172 0.3703
N1_3 N 0.5483(14) 0.8826(6) 0.4579(7)
N2_3 N 0.6063(14) 0.8906(7) 0.4114(7)
N3_3 N 0.8414(15) 0.5950(6) 0.4736(8)
N4_3 N 0.7830(14) 0.5796(6) 0.4220(7)
N5_3 N 0.7242(15) 0.6574(7) 0.4453(8)
N6_3 N 0.6229(15) 0.8074(7) 0.4354(7)
N8_3 N 0.8557(15) 0.3063(7) 0.4542(8)
N9_3 N 0.8655(14) 0.3882(6) 0.4214(7)
O1_3 O 0.5516(12) 0.7149(6) 0.4928(7)
F1_3 F 0.6224(11) 0.4559(7) 0.3717(6)
F2_2 F 0.4758(14) 0.4228(8) 0.5484(9)
F3_3 F 0.8393(15) 0.9614(10) 0.3821(8)
Cu3_3 Cu 0.6674(2) 0.73102(9) 0.43861(11)
H21_3 H 0.5696 0.6945 0.5225
H22_3 H 0.4851 0.7115 0.4853
O4_3 O 0.855(3) 0.2170(10) 0.378(2)
H23_3 H 0.9070 0.2124 0.3562
H24_3 H 0.8172 0.2418 0.3565
O6_3 O 0.9421(12) 0.6719(5) 0.3889(6)
O8_3 O 0.9346(12) 0.6025(5) 0.3001(6)
O9_3 O 0.7801(13) 0.6113(6) 0.2061(7)
O10_3 O 0.8792(12) 0.7090(5) 0.1834(6)
O14_3 O 0.8860(12) 0.7903(6) 0.2883(7)
O25_3 O 0.8718(17) 0.8974(7) 0.2552(8)
O26_3 O 0.7945(12) 0.7531(5) 0.3896(6)
O27_3 O 0.9949(11) 0.6238(5) 0.1923(6)
O36_3 O 0.8167(11) 0.6899(6) 0.2903(6)
O38_3 O 0.8835(13) 0.8148(6) 0.1735(7)
W2_3 W 0.89429(7) 0.73548(4) 0.34740(4)
W7_3 W 0.94276(9) 0.75554(4) 0.13510(4)
W9_3 W 0.88352(9) 0.64771(4) 0.23662(5)
W10_3 W 0.95205(10) 0.84458(4) 0.24568(5)
O44_2 O 0.8575(15) 0.7542(5) 0.0719(7)
O45_3 O 0.7686(15) 0.7525(7) 0.5219(7)
H25_3 H 0.8060 0.7572 0.5551
H26_3 H 0.7821 0.7791 0.4997
O46_3 O 0.5737(13) 0.7111(7) 0.3569(9)
H27_3 H 0.5774 0.7202 0.3200
H28_3 H 0.5099 0.7162 0.3631
O47_3 O 0.995(2) 0.2080(7) 0.4822(8)
H30_3 H 0.9993 0.2136 0.5201
O48_3 O 0.8934(16) 0.5558(8) 0.6044(9)
H31_3 H 0.8906 0.5606 0.6421
H32_3 H 0.8322 0.5645 0.5878
O49_3 O 0.361(2) 0.9441(8) 0.3968(11)
H33_3 H 0.3507 0.9698 0.3710
H34_3 H 0.3248 0.9179 0.3811
O54_2 O 0.6425(15) 0.2542(5) 0.4281(7)
H35_3 H 0.742289 0.33648 0.383229
H36_3 H 0.990481 0.312804 0.519458
H22_4 H 0.0149 0.2115 0.0147
O49_4 O 0.139(2) 0.4441(8) 0.1032(11)
H33_4 H 0.1493 0.4698 0.1290
H34_4 H 0.1752 0.4179 0.1189
C1_4 C 0.9376(17) 0.3313(8) 0.0299(10)
C3_4 C 0.8527(18) 0.3448(8) 0.1035(9)
H2_4 H 0.8137 0.3394 0.1354
C4_4 C 0.662(3) 0.4578(13) 0.0613(14)
C7_4 C 0.7414(17) 0.6201(8) 0.0785(9)
H3_4 H 0.6955 0.6186 0.1077
C8_4 C 0.6978(18) 0.1406(8) 0.0147(10)
C9_4 C 0.8409(17) 0.5370(7) 0.1065(9)
H5_4 H 0.7901 0.5313 0.1346
H6_4 H 0.9079 0.5440 0.1290
C10_4 C 0.6964(16) 0.0300(7) 0.1106(8)
H7_4 H 0.7563 0.0222 0.1390
H8_4 H 0.6368 0.0357 0.1329
C14_4 C 0.7478(18) 0.4706(8) 0.0328(9)
C15_4 C 0.8496(16) 0.4863(7) 0.0693(9)
C16_4 C 0.8878(18) 0.4438(8) 0.1158(9)
H10_4 H 0.8405 0.4425 0.1465
H11_4 H 0.9564 0.4537 0.1345
C17_4 C 0.8213(18) 0.6459(8) 0.0075(10)
C20_4 C 0.566(3) 0.4424(17) 0.029(2)
H15_4 H 0.5069 0.4350 0.0481
C26_4 C 0.7842(18) 0.1177(8) 0.0951(9)
H20_4 H 0.8302 0.1172 0.1297
N1_4 N 0.9517(14) 0.3826(6) 0.0421(7)
N2_4 N 0.8937(14) 0.3906(7) 0.0886(7)
N3_4 N 0.6586(15) 0.0950(6) 0.0264(8)
N4_4 N 0.7170(14) 0.0796(6) 0.0780(7)
N5_4 N 0.7758(15) 0.1574(7) 0.0547(8)
N6_4 N 0.8771(15) 0.3074(7) 0.0646(7)
N10_2 N 0.7449(15) 0.6603(7) 0.0396(8)
N12_4 N 0.8102(14) 0.5835(7) 0.0703(7)
O1_4 O 0.9484(12) 0.2149(6) 0.0072(7)
F3_4 F 0.6607(15) 0.4614(10) 0.1179(8)
Cu3_4 Cu 0.8326(2) 0.23102(9) 0.06139(11)
O5_4 O 0.4837(11) 0.1965(5) 0.2080(6)
O6_4 O 0.5579(12) 0.1719(5) 0.1111(6)
O7_4 O 0.1929(12) 0.1617(6) 0.1640(7)
O8_4 O 0.5654(12) 0.1025(5) 0.1999(6)
O9_4 O 0.7199(13) 0.1113(6) 0.2939(7)
O10_4 O 0.6208(12) 0.2090(5) 0.3166(6)
O11_4 O 0.3238(11) 0.1874(5) 0.2702(6)
O12_4 O 0.4643(12) 0.1995(6) 0.3799(6)
O13_4 O 0.3185(11) 0.2567(5) 0.1811(6)
O14_4 O 0.6140(12) 0.2903(6) 0.2117(7)
O15_4 O 0.3507(11) 0.1702(5) 0.1029(6)
O16_4 O 0.4621(13) 0.0760(6) 0.0914(6)
O17_4 O 0.1525(13) 0.1847(6) 0.0432(7)
O18_4 O 0.4912(13) 0.2726(6) 0.1139(7)
O19_4 O 0.1590(14) 0.0597(6) 0.2061(7)
O20_4 O 0.2423(13) 0.3471(6) 0.1417(8)
O21_4 O 0.2568(14) 0.3384(6) 0.2595(7)
O22_4 O 0.4528(14) 0.3049(6) 0.3905(8)
O23_4 O 0.1286(12) 0.2590(6) 0.1293(7)
O24_4 O 0.4471(15) 0.3744(6) 0.3016(8)
O25_4 O 0.6282(17) 0.3974(7) 0.2448(8)
O26_4 O 0.7055(12) 0.2531(5) 0.1104(6)
O27_4 O 0.5051(11) 0.1238(5) 0.3077(6)
O28_4 O 0.3046(12) 0.0898(6) 0.3013(6)
O29_4 O 0.1379(13) 0.1488(6) 0.2751(7)
O30_4 O 0.2631(13) 0.2718(7) 0.3480(7)
O31_4 O 0.0734(14) 0.2200(8) 0.3575(8)
O32_4 O 0.1414(14) 0.2546(6) 0.2495(7)
O33_4 O 0.3554(11) 0.1025(5) 0.1906(6)
O34_4 O 0.0615(15) 0.3451(7) 0.1919(8)
O35_4 O 0.4401(12) 0.2734(5) 0.2827(7)
O36_4 O 0.6833(11) 0.1899(6) 0.2097(6)
O37_4 O 0.2653(13) 0.1673(7) 0.3736(7)
O38_4 O 0.6165(13) 0.3148(6) 0.3265(7)
O39_4 O 0.3964(15) 0.3641(7) 0.0657(7)
O40_4 O 0.4505(14) 0.3498(6) 0.1860(7)
O42_4 O 0.2933(17) 0.3787(7) 0.3767(9)
Si1_4 Si 0.3913(5) 0.2286(2) 0.2347(2)
W1_4 W 0.16958(9) 0.30808(4) 0.19534(5)
W2_4 W 0.60571(7) 0.23548(4) 0.15260(4)
W3_4 W 0.45674(8) 0.12583(4) 0.14119(4)
W4_4 W 0.22612(8) 0.20998(4) 0.10279(4)
W5_4 W 0.23061(8) 0.11446(4) 0.22678(4)
W6_4 W 0.39117(8) 0.13554(4) 0.35172(4)
W7_4 W 0.55724(9) 0.25554(4) 0.36490(4)
W8_4 W 0.17852(9) 0.21192(5) 0.31955(5)
W9_4 W 0.61648(9) 0.14771(4) 0.26338(5)
W10_4 W 0.54795(10) 0.34458(4) 0.25432(5)
W11_4 W 0.34374(10) 0.33304(4) 0.33353(5)
W12_4 W 0.37360(11) 0.32022(5) 0.11823(6)
H26_4 H 0.7179 0.2791 0.0003
O46_4 O 0.9263(13) 0.2111(7) 0.1431(9)
H27_4 H 0.9226 0.2202 0.1800
H28_4 H 0.9901 0.2162 0.1369
H1_4 H 0.9679 0.3141 0.9996
C2_4 C 0.565(3) 0.4392(14) 0.9667(19)
H4_4 H 0.6740 0.1603 0.9812
H12_4 H 0.8423 0.6663 0.9765
C21_4 C 0.742(2) 0.4666(10) 0.9707(12)
H16_4 H 0.8005 0.4741 0.9515
C22_4 C 0.652(3) 0.4522(14) 0.9379(17)
H17_4 H 0.6484 0.4510 0.8965
F4_4 F 0.4738(19) 0.4232(12) 0.9320(12)
H21_4 H 0.9304 0.1945 0.9775
O45_4 O 0.7314(15) 0.2525(7) 0.9781(7)
H25_4 H 0.6940 0.2572 0.9449
O48_4 O 0.6066(16) 0.0558(8) 0.8956(9)
H31_4 H 0.6094 0.0606 0.8579
H32_4 H 0.6678 0.0645 0.9122
C5_4 C 0.5614(17) 0.8309(8) 0.0161(9)
C6_4 C 0.689(2) 0.8430(8) 0.0852(12)
C11_4 C 0.6746(16) 0.9823(7) 0.0698(8)
C12_4 C 0.7709(17) 0.9684(8) 0.0384(9)
C18_4 C 0.954(2) 0.9374(10) 0.0414(14)
C23_4 C 0.6524(17) 0.9356(7) 0.1124(9)
H18_4 H 0.5916 0.9438 0.1327
H19_4 H 0.7117 0.9308 0.1422
C24_4 C 0.868(2) 0.9539(9) 0.0688(11)
N8_4 N 0.6443(15) 0.8063(7) 0.0458(8)
N9_4 N 0.6345(14) 0.8882(6) 0.0786(7)
F1_4 F 0.8776(11) 0.9559(7) 0.1283(6)
O4_4 O 0.645(3) 0.7170(10) 0.122(2)
H23_4 H 0.5930 0.7124 0.1438
H24_4 H 0.6828 0.7418 0.1435
O47_4 O 0.505(2) 0.7080(7) 0.0178(8)
H29_4 H 0.4850 0.6753 0.0214
H35_4 H 0.757711 0.83648 0.116771
C13_4 C 0.7651(19) 0.9657(8) 0.9778(11)
H9_4 H 0.7022 0.9740 0.9556
C19_4 C 0.852(2) 0.9507(11) 0.9474(12)
H14_4 H 0.8472 0.9495 0.9060
C25_4 C 0.943(3) 0.9380(11) 0.9809(14)
H30_4 H 0.5007 0.7136 0.9799
H36_4 H 0.509519 0.812804 0.980542
F2_3 F 0.9758(14) 0.0772(8) 0.0484(9)
H13_3 H 0.9840 0.0734 0.9368
H13_4 H 0.0160 0.9266 0.0632
F2_4 F 0.0242(14) 0.9228(8) 0.9516(9)
loop_
_geom_bond_atom_site_label_1
_geom_bond_atom_site_label_2
_geom_bond_site_symmetry_1
_geom_bond_site_symmetry_2
C1 H1 1_555 1_555
C2 C20 1_555 1_555
C3 H2 1_555 1_555
C4 C14 1_555 1_555
C5 N7 1_555 1_555
C6 N8 1_555 1_555
C8 H4 1_555 1_555
C10 H7 1_555 1_555
H8 C10 1_555 1_555
C11 C10 1_555 1_555
C12 C11 1_555 1_555
C13 C12 1_555 1_555
H9 C13 1_555 1_555
C14 C15 1_555 1_555
C16 C15 1_555 1_555
H10 C16 1_555 1_555
H11 C16 1_555 1_555
C18 H13 1_555 1_555
C19 C13 1_555 1_555
H14 C19 1_555 1_555
C20 C4 1_555 1_555
H15 C20 1_555 1_555
C21 C14 1_555 1_555
H16 C21 1_555 1_555
C22 C2 1_555 1_555
H17 C22 1_555 1_555
C23 C11 1_555 1_555
H18 C23 1_555 1_555
H19 C23 1_555 1_555
C24 C12 1_555 1_555
C25 C18 1_555 1_555
C26 H20 1_555 1_555
N1 C1 1_555 1_555
N2 C3 1_555 1_555
N3 C8 1_555 1_555
N4 C10 1_555 1_555
N5 C8 1_555 1_555
N6 C1 1_555 1_555
N7 N9 1_555 1_555
N8 C5 1_555 1_555
N9 C6 1_555 1_555
O1 Cu3 1_555 1_555
O2 C11 1_555 1_555
O3 C15 1_555 1_555
F1 C24 1_555 1_555
F2 C25 1_555 1_555
F3 C4 1_555 1_555
Cu1 N1 1_555 1_555
Cu2 N3 1_555 1_555
Cu3 N5 1_555 1_555
H21 O1 1_555 1_555
H22 O1 1_555 1_555
O4 Cu4 1_555 1_555
Cu4 N8 1_555 1_555
H23 O4 1_555 1_555
H24 O4 1_555 1_555
O6 W2 1_555 1_555
O9 W9 1_555 1_555
O10 W7 1_555 1_555
O14 W2 1_555 1_555
O25 W10 1_555 1_555
O26 Cu3 1_555 1_555
O36 W2 1_555 1_555
O38 W7 1_555 1_555
W10 O14 1_555 1_555
O44 W7 1_555 1_555
O45 Cu3 1_555 1_555
H25 O45 1_555 1_555
H26 O45 1_555 1_555
O46 Cu3 1_555 1_555
H27 O46 1_555 1_555
H28 O46 1_555 1_555
O47 Cu4 1_555 1_555
H30 O47 1_555 1_555
O48 Cu2 1_555 1_555
H31 O48 1_555 1_555
H32 O48 1_555 1_555
O49 Cu1 1_555 1_555
H33 O49 1_555 1_555
H34 O49 1_555 1_555
N14 Cu4 1_555 1_555
N15 Cu1 1_555 1_555
Cu9 O44 1_555 1_555
O52 Cu1 1_555 1_555
O53 Cu4 1_555 1_555
O54 Cu4 1_555 1_555
C3 N6 1_555 1_555
C16 N2 1_555 1_555
C18 C24 1_555 1_555
C19 C25 1_555 1_555
C21 C22 1_555 1_555
C23 N9 1_555 1_555
C26 N4 1_555 1_555
C26 N5 1_555 1_555
N1 N2 1_555 1_555
N3 N4 1_555 1_555
N6 Cu3 1_555 1_555
O2 Cu2 1_555 1_555
O3 Cu1 1_555 1_555
O8 W9 1_555 1_555
O10 W9 1_555 1_555
O26 W2 1_555 1_555
O27 W9 1_555 1_555
O36 W9 1_555 1_555
O38 W10 1_555 1_555
C6 H35 1_555 1_555
C5 H36 1_555 1_555
C7 H3 1_555 1_555
C9 H5 1_555 1_555
H6 C9 1_555 1_555
C17 H12 1_555 1_555
N14 C7 1_555 1_555
N11 C17 1_555 1_555
N12 C7 1_555 1_555
Cu5 N11 1_555 1_555
C9 N12 1_555 1_555
C17 N14 1_555 1_555
N11 N12 1_555 1_555
O51 Cu5 1_555 1_555
O5 Si1 1_555 1_555
O7 W4 1_555 1_555
O11 Si1 1_555 1_555
O12 W6 1_555 1_555
O13 Si1 1_555 1_555
O15 W3 1_555 1_555
O17 W4 1_555 1_555
O19 W5 1_555 1_555
O20 W1 1_555 1_555
O21 W1 1_555 1_555
O23 W1 1_555 1_555
O28 W5 1_555 1_555
O29 W5 1_555 1_555
O30 W8 1_555 1_555
O31 W8 1_555 1_555
O32 W1 1_555 1_555
O33 W3 1_555 1_555
O34 W1 1_555 1_555
O35 Si1 1_555 1_555
O37 W6 1_555 1_555
O39 W12 1_555 1_555
O41 W6 1_555 1_555
O42 W11 1_555 1_555
W1 O13 1_555 1_555
W3 O5 1_555 1_555
W4 O13 1_555 1_555
W5 O7 1_555 1_555
W6 O11 1_555 1_555
W8 O11 1_555 1_555
W11 O21 1_555 1_555
W12 O13 1_555 1_555
O43 W4 1_555 1_555
Cu10 O43 1_555 1_555
O11 W5 1_555 1_555
O15 W4 1_555 1_555
O16 W3 1_555 1_555
O18 W12 1_555 1_555
O20 W12 1_555 1_555
O22 W11 1_555 1_555
O23 W4 1_555 1_555
O24 W11 1_555 1_555
O28 W6 1_555 1_555
O29 W8 1_555 1_555
O30 W11 1_555 1_555
O32 W8 1_555 1_555
O33 W5 1_555 1_555
O35 W11 1_555 1_555
O37 W8 1_555 1_555
O40 W12 1_555 1_555
W12 O43 1_555 1_555
O50 Cu7 1_555 1_555
H9_2 C13_2 1_555 1_555
C19_2 C13_2 1_555 1_555
H14_2 C19_2 1_555 1_555
C19_2 C25_2 1_555 1_555
C5_2 N7_2 1_555 1_555
C6_2 N8_2 1_555 1_555
C12_2 C11_2 1_555 1_555
C23_2 C11_2 1_555 1_555
H18_2 C23_2 1_555 1_555
H19_2 C23_2 1_555 1_555
C24_2 C12_2 1_555 1_555
N7_2 N9_2 1_555 1_555
N8_2 C5_2 1_555 1_555
N9_2 C6_2 1_555 1_555
O2_2 C11_2 1_555 1_555
F1_2 C24_2 1_555 1_555
O4_2 Cu9 1_555 1_555
Cu9 N8_2 1_555 1_555
H23_2 O4_2 1_555 1_555
H24_2 O4_2 1_555 1_555
O47_2 Cu9 1_555 1_555
H29_2 O47_2 1_555 1_555
N14_2 Cu9 1_555 1_555
Cu7_2 N7_2 1_555 1_555
C18_2 C24_2 1_555 1_555
C23_2 N9_2 1_555 1_555
O2_2 Cu7_2 1_555 1_555
C6_2 H35_2 1_555 1_555
H16_2 C21_2 1_555 1_555
C22_2 C2_2 1_555 1_555
H17_2 C22_2 1_555 1_555
F4_2 C2_2 1_555 1_555
H25_2 O45_2 1_555 1_555
O48_2 Cu2_2 1_555 1_555
H31_2 O48_2 1_555 1_555
H32_2 O48_2 1_555 1_555
N13_2 Cu2_2 1_555 1_555
O50_2 Cu2_2 1_555 1_555
C21_2 C22_2 1_555 1_555
C3_2 H2_2 1_555 1_555
C4_2 C14_2 1_555 1_555
C7_2 H3_2 1_555 1_555
C9_2 H5_2 1_555 1_555
H6_2 C9_2 1_555 1_555
C10_2 H7_2 1_555 1_555
H8_2 C10_2 1_555 1_555
C14_2 C15_2 1_555 1_555
C15_2 C9_2 1_555 1_555
C16_2 C15_2 1_555 1_555
H10_2 C16_2 1_555 1_555
H11_2 C16_2 1_555 1_555
C20_2 C4_2 1_555 1_555
H15_2 C20_2 1_555 1_555
C26_2 H20_2 1_555 1_555
N1_2 C1_2 1_555 1_555
N2_2 C3_2 1_555 1_555
N3_2 C8_2 1_555 1_555
N4_2 C10_2 1_555 1_555
N5_2 C8_2 1_555 1_555
N6_2 C1_2 1_555 1_555
N14_2 C7_2 1_555 1_555
N11_2 C17_2 1_555 1_555
N12_2 C7_2 1_555 1_555
O1_2 Cu3_2 1_555 1_555
O3_2 C15_2 1_555 1_555
F3_2 C4_2 1_555 1_555
Cu3_2 N5_2 1_555 1_555
O5_2 Si1_2 1_555 1_555
O6_2 W2_2 1_555 1_555
O7_2 W4_2 1_555 1_555
O8_2 W3_2 1_555 1_555
O9_2 W9_2 1_555 1_555
O10_2 W7_2 1_555 1_555
O11_2 Si1_2 1_555 1_555
O12_2 W6_2 1_555 1_555
O13_2 Si1_2 1_555 1_555
O14_2 W2_2 1_555 1_555
O15_2 W3_2 1_555 1_555
O17_2 W4_2 1_555 1_555
O18_2 W2_2 1_555 1_555
O19_2 W5_2 1_555 1_555
O20_2 W1_2 1_555 1_555
O21_2 W1_2 1_555 1_555
O22_2 W7_2 1_555 1_555
O23_2 W1_2 1_555 1_555
O24_2 W10_2 1_555 1_555
O25_2 W10_2 1_555 1_555
O26_2 Cu3_2 1_555 1_555
O27_2 W6_2 1_555 1_555
O28_2 W5_2 1_555 1_555
O29_2 W5_2 1_555 1_555
O30_2 W8_2 1_555 1_555
O31_2 W8_2 1_555 1_555
O32_2 W1_2 1_555 1_555
O33_2 W3_2 1_555 1_555
O34_2 W1_2 1_555 1_555
O35_2 Si1_2 1_555 1_555
O36_2 W2_2 1_555 1_555
O37_2 W6_2 1_555 1_555
O38_2 W7_2 1_555 1_555
O39_2 W12_2 1_555 1_555
O40_2 W10_2 1_555 1_555
O41_2 W6_2 1_555 1_555
O42_2 W11_2 1_555 1_555
W1_2 O13_2 1_555 1_555
W2_2 O5_2 1_555 1_555
W3_2 O5_2 1_555 1_555
W4_2 O13_2 1_555 1_555
W5_2 O7_2 1_555 1_555
W6_2 O11_2 1_555 1_555
W7_2 O12_2 1_555 1_555
W8_2 O11_2 1_555 1_555
W9_2 O5_2 1_555 1_555
W10_2 O14_2 1_555 1_555
W11_2 O21_2 1_555 1_555
W12_2 O13_2 1_555 1_555
O43_2 W4_2 1_555 1_555
O54 W7_2 1_555 1_555
O46_2 Cu3_2 1_555 1_555
H27_2 O46_2 1_555 1_555
H28_2 O46_2 1_555 1_555
Cu5 O41_2 1_555 1_555
C3_2 N6_2 1_555 1_555
C9_2 N12_2 1_555 1_555
C16_2 N2_2 1_555 1_555
C17_2 N14_2 1_555 1_555
C26_2 N4_2 1_555 1_555
C26_2 N5_2 1_555 1_555
N1_2 N2_2 1_555 1_555
N3_2 N4_2 1_555 1_555
N6_2 Cu3_2 1_555 1_555
N11_2 N12_2 1_555 1_555
O6_2 W3_2 1_555 1_555
O8_2 W9_2 1_555 1_555
O10_2 W9_2 1_555 1_555
O11_2 W5_2 1_555 1_555
O15_2 W4_2 1_555 1_555
O16_2 W3_2 1_555 1_555
O18_2 W12_2 1_555 1_555
O20_2 W12_2 1_555 1_555
O22_2 W11_2 1_555 1_555
O23_2 W4_2 1_555 1_555
O24_2 W11_2 1_555 1_555
O26_2 W2_2 1_555 1_555
O27_2 W9_2 1_555 1_555
O28_2 W6_2 1_555 1_555
O29_2 W8_2 1_555 1_555
O30_2 W11_2 1_555 1_555
O32_2 W8_2 1_555 1_555
O33_2 W5_2 1_555 1_555
O35_2 W7_2 1_555 1_555
O35_2 W10_2 1_555 1_555
O35_2 W11_2 1_555 1_555
O36_2 W9_2 1_555 1_555
O37_2 W8_2 1_555 1_555
O38_2 W10_2 1_555 1_555
O40_2 W12_2 1_555 1_555
W12_2 O43_2 1_555 1_555
O49_2 Cu1_2 1_555 1_555
H33_2 O49_2 1_555 1_555
H34_2 O49_2 1_555 1_555
O5_3 Si1_3 1_555 1_555
O7_3 W4_3 1_555 1_555
O11_3 Si1_3 1_555 1_555
O12_3 W6_3 1_555 1_555
O13_3 Si1_3 1_555 1_555
O15_3 W3_3 1_555 1_555
O17_3 W4_3 1_555 1_555
O19_3 W5_3 1_555 1_555
O20_3 W1_3 1_555 1_555
O21_3 W1_3 1_555 1_555
O23_3 W1_3 1_555 1_555
O28_3 W5_3 1_555 1_555
O29_3 W5_3 1_555 1_555
O30_3 W8_3 1_555 1_555
O31_3 W8_3 1_555 1_555
O32_3 W1_3 1_555 1_555
O33_3 W3_3 1_555 1_555
O34_3 W1_3 1_555 1_555
O35_3 Si1_3 1_555 1_555
O37_3 W6_3 1_555 1_555
O39_3 W12_3 1_555 1_555
O52_2 W6_3 1_555 1_555
O42_3 W11_3 1_555 1_555
W1_3 O13_3 1_555 1_555
W3_3 O5_3 1_555 1_555
W4_3 O13_3 1_555 1_555
W5_3 O7_3 1_555 1_555
W6_3 O11_3 1_555 1_555
W8_3 O11_3 1_555 1_555
W11_3 O21_3 1_555 1_555
W12_3 O13_3 1_555 1_555
O53 W4_3 1_555 1_555
O11_3 W5_3 1_555 1_555
O15_3 W4_3 1_555 1_555
O16_3 W3_3 1_555 1_555
O18_3 W12_3 1_555 1_555
O20_3 W12_3 1_555 1_555
O22_3 W11_3 1_555 1_555
O23_3 W4_3 1_555 1_555
O24_3 W11_3 1_555 1_555
O28_3 W6_3 1_555 1_555
O29_3 W8_3 1_555 1_555
O30_3 W11_3 1_555 1_555
O32_3 W8_3 1_555 1_555
O33_3 W5_3 1_555 1_555
O35_3 W11_3 1_555 1_555
O37_3 W8_3 1_555 1_555
O40_3 W12_3 1_555 1_555
W12_3 O53 1_555 1_555
C7_3 H3_3 1_555 1_555
C9_3 H5_3 1_555 1_555
H6_3 C9_3 1_555 1_555
C17_3 H12_3 1_555 1_555
N10 C7_3 1_555 1_555
N15 C17_3 1_555 1_555
N12_3 C7_3 1_555 1_555
Cu10 N10 1_555 1_555
C9_3 N12_3 1_555 1_555
C17_3 N10 1_555 1_555
N15 N12_3 1_555 1_555
C1_3 H1_3 1_555 1_555
C2_3 C20_3 1_555 1_555
C3_3 H2_3 1_555 1_555
C4_3 C14_3 1_555 1_555
C5_3 N13 1_555 1_555
C6_3 N8_3 1_555 1_555
C8_3 H4_3 1_555 1_555
C10_3 H7_3 1_555 1_555
H8_3 C10_3 1_555 1_555
C11_3 C10_3 1_555 1_555
C12_3 C11_3 1_555 1_555
C13_3 C12_3 1_555 1_555
H9_3 C13_3 1_555 1_555
C14_3 C15_3 1_555 1_555
C16_3 C15_3 1_555 1_555
H10_3 C16_3 1_555 1_555
H11_3 C16_3 1_555 1_555
C18_3 H13_2 1_555 1_555
C19_3 C13_3 1_555 1_555
H14_3 C19_3 1_555 1_555
C20_3 C4_3 1_555 1_555
H15_3 C20_3 1_555 1_555
C21_3 C14_3 1_555 1_555
H16_3 C21_3 1_555 1_555
C22_3 C2_3 1_555 1_555
H17_3 C22_3 1_555 1_555
C23_3 C11_3 1_555 1_555
H18_3 C23_3 1_555 1_555
H19_3 C23_3 1_555 1_555
C24_3 C12_3 1_555 1_555
C25_3 C18_3 1_555 1_555
C26_3 H20_3 1_555 1_555
N1_3 C1_3 1_555 1_555
N2_3 C3_3 1_555 1_555
N3_3 C8_3 1_555 1_555
N4_3 C10_3 1_555 1_555
N5_3 C8_3 1_555 1_555
N6_3 C1_3 1_555 1_555
N13 N9_3 1_555 1_555
N8_3 C5_3 1_555 1_555
N9_3 C6_3 1_555 1_555
O1_3 Cu3_3 1_555 1_555
O50 C11_3 1_555 1_555
O51 C15_3 1_555 1_555
F1_3 C24_3 1_555 1_555
F2_2 C25_3 1_555 1_555
F3_3 C4_3 1_555 1_555
Cu5 N1_3 1_555 1_555
Cu7 N3_3 1_555 1_555
Cu3_3 N5_3 1_555 1_555
H21_3 O1_3 1_555 1_555
H22_3 O1_3 1_555 1_555
O4_3 Cu10 1_555 1_555
Cu10 N8_3 1_555 1_555
H23_3 O4_3 1_555 1_555
H24_3 O4_3 1_555 1_555
O6_3 W2_3 1_555 1_555
O9_3 W9_3 1_555 1_555
O10_3 W7_3 1_555 1_555
O14_3 W2_3 1_555 1_555
O25_3 W10_3 1_555 1_555
O26_3 Cu3_3 1_555 1_555
O36_3 W2_3 1_555 1_555
O38_3 W7_3 1_555 1_555
W10_3 O14_3 1_555 1_555
O44_2 W7_3 1_555 1_555
O45_3 Cu3_3 1_555 1_555
H25_3 O45_3 1_555 1_555
H26_3 O45_3 1_555 1_555
O46_3 Cu3_3 1_555 1_555
H27_3 O46_3 1_555 1_555
H28_3 O46_3 1_555 1_555
O47_3 Cu10 1_555 1_555
H30_3 O47_3 1_555 1_555
O48_3 Cu7 1_555 1_555
H31_3 O48_3 1_555 1_555
H32_3 O48_3 1_555 1_555
O49_3 Cu5 1_555 1_555
H33_3 O49_3 1_555 1_555
H34_3 O49_3 1_555 1_555
Cu10_2 O44_2 1_555 1_555
O54_2 Cu10 1_555 1_555
C3_3 N6_3 1_555 1_555
C16_3 N2_3 1_555 1_555
C18_3 C24_3 1_555 1_555
C19_3 C25_3 1_555 1_555
C21_3 C22_3 1_555 1_555
C23_3 N9_3 1_555 1_555
C26_3 N4_3 1_555 1_555
C26_3 N5_3 1_555 1_555
N1_3 N2_3 1_555 1_555
N3_3 N4_3 1_555 1_555
N6_3 Cu3_3 1_555 1_555
O8_3 W9_3 1_555 1_555
O10_3 W9_3 1_555 1_555
O26_3 W2_3 1_555 1_555
O27_3 W9_3 1_555 1_555
O36_3 W9_3 1_555 1_555
O38_3 W10_3 1_555 1_555
C6_3 H35_3 1_555 1_555
C5_3 H36_3 1_555 1_555
O49_4 Cu6 1_555 1_555
H33_4 O49_4 1_555 1_555
H34_4 O49_4 1_555 1_555
C3_4 H2_4 1_555 1_555
C4_4 C14_4 1_555 1_555
C7_4 H3_4 1_555 1_555
C9_4 H5_4 1_555 1_555
H6_4 C9_4 1_555 1_555
C10_4 H7_4 1_555 1_555
H8_4 C10_4 1_555 1_555
C14_4 C15_4 1_555 1_555
C15_4 C9_4 1_555 1_555
C16_4 C15_4 1_555 1_555
H10_4 C16_4 1_555 1_555
H11_4 C16_4 1_555 1_555
C20_4 C4_4 1_555 1_555
H15_4 C20_4 1_555 1_555
C26_4 H20_4 1_555 1_555
N1_4 C1_4 1_555 1_555
N2_4 C3_4 1_555 1_555
N3_4 C8_4 1_555 1_555
N4_4 C10_4 1_555 1_555
N5_4 C8_4 1_555 1_555
N6_4 C1_4 1_555 1_555
N10_2 C7_4 1_555 1_555
N15_2 C17_4 1_555 1_555
N12_4 C7_4 1_555 1_555
O1_4 Cu3_4 1_555 1_555
O51_2 C15_4 1_555 1_555
F3_4 C4_4 1_555 1_555
Cu3_4 N5_4 1_555 1_555
O5_4 Si1_4 1_555 1_555
O6_4 W2_4 1_555 1_555
O7_4 W4_4 1_555 1_555
O8_4 W3_4 1_555 1_555
O9_4 W9_4 1_555 1_555
O10_4 W7_4 1_555 1_555
O11_4 Si1_4 1_555 1_555
O12_4 W6_4 1_555 1_555
O13_4 Si1_4 1_555 1_555
O14_4 W2_4 1_555 1_555
O15_4 W3_4 1_555 1_555
O17_4 W4_4 1_555 1_555
O18_4 W2_4 1_555 1_555
O19_4 W5_4 1_555 1_555
O20_4 W1_4 1_555 1_555
O21_4 W1_4 1_555 1_555
O22_4 W7_4 1_555 1_555
O23_4 W1_4 1_555 1_555
O24_4 W10_4 1_555 1_555
O25_4 W10_4 1_555 1_555
O26_4 Cu3_4 1_555 1_555
O27_4 W6_4 1_555 1_555
O28_4 W5_4 1_555 1_555
O29_4 W5_4 1_555 1_555
O30_4 W8_4 1_555 1_555
O31_4 W8_4 1_555 1_555
O32_4 W1_4 1_555 1_555
O33_4 W3_4 1_555 1_555
O34_4 W1_4 1_555 1_555
O35_4 Si1_4 1_555 1_555
O36_4 W2_4 1_555 1_555
O37_4 W6_4 1_555 1_555
O38_4 W7_4 1_555 1_555
O39_4 W12_4 1_555 1_555
O40_4 W10_4 1_555 1_555
O52 W6_4 1_555 1_555
O42_4 W11_4 1_555 1_555
W1_4 O13_4 1_555 1_555
W2_4 O5_4 1_555 1_555
W3_4 O5_4 1_555 1_555
W4_4 O13_4 1_555 1_555
W5_4 O7_4 1_555 1_555
W6_4 O11_4 1_555 1_555
W7_4 O12_4 1_555 1_555
W8_4 O11_4 1_555 1_555
W9_4 O5_4 1_555 1_555
W10_4 O14_4 1_555 1_555
W11_4 O21_4 1_555 1_555
W12_4 O13_4 1_555 1_555
O53_2 W4_4 1_555 1_555
O54_2 W7_4 1_555 1_555
O46_4 Cu3_4 1_555 1_555
H27_4 O46_4 1_555 1_555
H28_4 O46_4 1_555 1_555
Cu10_2 N10_2 1_555 1_555
C3_4 N6_4 1_555 1_555
C9_4 N12_4 1_555 1_555
C16_4 N2_4 1_555 1_555
C17_4 N10_2 1_555 1_555
C26_4 N4_4 1_555 1_555
C26_4 N5_4 1_555 1_555
N1_4 N2_4 1_555 1_555
N3_4 N4_4 1_555 1_555
N6_4 Cu3_4 1_555 1_555
N15_2 N12_4 1_555 1_555
O6_4 W3_4 1_555 1_555
O8_4 W9_4 1_555 1_555
O10_4 W9_4 1_555 1_555
O11_4 W5_4 1_555 1_555
O15_4 W4_4 1_555 1_555
O16_4 W3_4 1_555 1_555
O18_4 W12_4 1_555 1_555
O20_4 W12_4 1_555 1_555
O22_4 W11_4 1_555 1_555
O23_4 W4_4 1_555 1_555
O24_4 W11_4 1_555 1_555
O26_4 W2_4 1_555 1_555
O27_4 W9_4 1_555 1_555
O28_4 W6_4 1_555 1_555
O29_4 W8_4 1_555 1_555
O30_4 W11_4 1_555 1_555
O32_4 W8_4 1_555 1_555
O33_4 W5_4 1_555 1_555
O35_4 W7_4 1_555 1_555
O35_4 W10_4 1_555 1_555
O35_4 W11_4 1_555 1_555
O36_4 W9_4 1_555 1_555
O37_4 W8_4 1_555 1_555
O38_4 W10_4 1_555 1_555
O40_4 W12_4 1_555 1_555
W12_4 O53_2 1_555 1_555
H16_4 C21_4 1_555 1_555
C22_4 C2_4 1_555 1_555
H17_4 C22_4 1_555 1_555
F4_4 C2_4 1_555 1_555
H25_4 O45_4 1_555 1_555
O48_4 Cu7_2 1_555 1_555
H31_4 O48_4 1_555 1_555
H32_4 O48_4 1_555 1_555
C21_4 C22_4 1_555 1_555
C5_4 N13_2 1_555 1_555
C6_4 N8_4 1_555 1_555
C12_4 C11_4 1_555 1_555
C23_4 C11_4 1_555 1_555
H18_4 C23_4 1_555 1_555
H19_4 C23_4 1_555 1_555
C24_4 C12_4 1_555 1_555
N13_2 N9_4 1_555 1_555
N8_4 C5_4 1_555 1_555
N9_4 C6_4 1_555 1_555
O50_2 C11_4 1_555 1_555
F1_4 C24_4 1_555 1_555
O4_4 Cu10_2 1_555 1_555
Cu10_2 N8_4 1_555 1_555
H23_4 O4_4 1_555 1_555
H24_4 O4_4 1_555 1_555
O47_4 Cu10_2 1_555 1_555
H29_4 O47_4 1_555 1_555
C18_4 C24_4 1_555 1_555
C23_4 N9_4 1_555 1_555
C6_4 H35_4 1_555 1_555
H9_4 C13_4 1_555 1_555
C19_4 C13_4 1_555 1_555
H14_4 C19_4 1_555 1_555
C19_4 C25_4 1_555 1_555

#END
