
###############################################################################
#
# This file contains modified crystal structure data generated from the
# MOF subset of the Cambridge Structural Database (CSD) v543 
# hosted by the Cambridge Crystallographic Data Centre (CCDC).
#
# This work is licensed under the Creative Commons
# Attribution-NonCommercial-ShareAlike 4.0 International License.
# To view a copy of this license, visit
# http://creativecommons.org/licenses/by-nc-sa/4.0/
# or send a letter to
# Creative Commons, PO Box 1866, Mountain View, CA 94042, USA.
#
# CIF created using the CSD Python API on 29 September 2022
# The structure has been converted into the P1 space group
# The structure has a 3D framework
# The original CSD entry PICTIG is in the monoclinic crystal system
# The framework has been calculated to contain at least 10.0% void space
# The void calculation uses a probe of radius 1.32A, grid spacing 0.4
#
###############################################################################

data_PICTIG
_chemical_formula_moiety         '(C128 H64 O61 Zn14)n'
_symmetry_cell_setting           triclinic
_symmetry_space_group_name_H-M   'P 1'
_symmetry_Int_Tables_number      1
_space_group_name_Hall           'P 1'
loop_
_symmetry_equiv_pos_site_id
_symmetry_equiv_pos_as_xyz
1 x,y,z
_cell_length_a                   33.319(5)
_cell_length_b                   9.7669(15)
_cell_length_c                   18.226(3)
_cell_angle_alpha                90
_cell_angle_beta                 93.682(4)
_cell_angle_gamma                90
_cell_volume                     5918.92
loop_
_atom_site_label
_atom_site_type_symbol
_atom_site_fract_x
_atom_site_fract_y
_atom_site_fract_z
O10 O 0.29787(8) 0.0882(3) 0.49436(17)
Zn6 Zn 0.347197(13) 0.19889(5) 0.51618(3)
Zn7 Zn 0.2500 0.2500 0.5000
Zn1 Zn 0.152803(13) 0.30111(5) 0.48382(3)
O1 O 0.15951(9) 0.1814(3) 0.39955(17)
O2 O 0.22654(9) 0.1902(3) 0.39912(16)
O4 O 0.17520(12) 0.5211(3) 0.4082(2)
O6 O 0.20213(8) 0.4118(3) 0.50564(17)
O7 O 0.09636(9) 0.3492(4) 0.4630(2)
O8 O 0.10730(12) 0.4810(5) 0.5581(3)
C1 C 0.08450(16) 0.4311(6) 0.5096(3)
C2 C 0.22641(15) 0.7492(5) 0.4351(3)
H1 H 0.2106 0.7482 0.3911
C3 C 0.22605(13) 0.6373(4) 0.4816(3)
C5 C 0.22497(14) 0.0705(5) 0.2602(3)
H2 H 0.2493 0.1053 0.2798
C6 C 0.19043(13) 0.0848(4) 0.2993(2)
C8 C 0.25036(14) 0.6389(5) 0.5471(3)
H3 H 0.2507 0.5638 0.5785
C10 C 0.19262(13) 0.1571(4) 0.3721(2)
C11 C 0.22322(14) 0.0059(5) 0.1937(3)
C12 C 0.15490(14) 0.0326(5) 0.2692(3)
H6 H 0.1316 0.0424 0.2941
C13 C 0.19967(14) 0.5165(4) 0.4619(3)
C14 C 0.04118(15) 0.4690(6) 0.5044(3)
C15 C 0.01492(18) 0.4083(8) 0.4518(4)
H7 H 0.0248 0.3467 0.4184
C16 C 0.02622(17) 0.5612(7) 0.5515(4)
H8 H 0.0435 0.6044 0.5862
O9 O 0.32480(12) 0.9789(3) 0.5918(2)
C17 C 0.27359(15) 0.7508(5) 0.5649(3)
H9 H 0.2894 0.7518 0.6089
C18 C 0.27395(13) 0.8627(4) 0.5184(3)
C19 C 0.24964(14) 0.8611(5) 0.4529(3)
H10 H 0.2493 0.9362 0.4215
C20 C 0.30033(14) 0.9835(4) 0.5381(3)
O17 O 0.27346(9) 0.3098(3) 0.60088(16)
O18 O 0.28401(9) 0.3836(3) 0.44483(16)
O19 O 0.21599(9) 0.1164(3) 0.55517(16)
O21 O 0.15413(9) 0.1872(3) 0.57402(18)
O3 O 0.21599(9) 0.8836(3) 0.05517(16)
O5 O 0.15413(9) 0.8128(3) 0.07402(18)
C4 C 0.18696(13) 0.9519(4) 0.1639(2)
C7 C 0.18579(12) 0.8778(4) 0.0921(2)
C9 C 0.15321(14) 0.9658(5) 0.2022(3)
H4 H 0.1289 0.9299 0.1830
H5 H 0.2463 0.9979 0.1680
Zn10 Zn 0.2500 0.7500 0.0000
Zn5 Zn 0.152803(13) 0.69889(5) 0.98382(3)
Zn10_2 Zn 0.2500 0.7500 1.0000
Zn4 Zn 0.847197(13) 0.30111(5) 0.01618(3)
Zn8 Zn 0.7500 0.2500 0.0000
O15 O 0.78401(9) 0.1164(3) 0.94483(16)
O16 O 0.84587(9) 0.1872(3) 0.92598(18)
C25 C 0.81304(13) 0.0481(4) 0.8361(2)
C28 C 0.81421(12) 0.1222(4) 0.9079(2)
C29 C 0.84679(14) 0.0342(5) 0.7978(3)
H14 H 0.8711 0.0701 0.8170
H15 H 0.7537 0.0021 0.8320
Zn8_2 Zn 0.7500 0.2500 1.0000
O11 O 0.90364(9) 0.6508(4) 0.5370(2)
O12 O 0.89270(12) 0.5190(5) 0.4419(3)
C21 C 0.91550(16) 0.5689(6) 0.4904(3)
C22 C 0.95882(15) 0.5310(6) 0.4956(3)
C23 C 0.98508(18) 0.5917(8) 0.5482(4)
H11 H 0.9752 0.6533 0.5816
C24 C 0.97378(17) 0.4388(7) 0.4485(4)
H12 H 0.9565 0.3956 0.4138
Zn3 Zn 0.847197(13) 0.69889(5) 0.51618(3)
O13 O 0.84049(9) 0.8186(3) 0.60045(17)
O14 O 0.77346(9) 0.8098(3) 0.60088(16)
C26 C 0.77503(14) 0.9295(5) 0.7398(3)
H13 H 0.7507 0.8947 0.7202
C27 C 0.80957(13) 0.9152(4) 0.7007(2)
C30 C 0.80738(13) 0.8429(4) 0.6279(2)
C31 C 0.77678(14) 0.9941(5) 0.8063(3)
C32 C 0.84510(14) 0.9674(5) 0.7308(3)
H16 H 0.8684 0.9576 0.7059
Zn9 Zn 0.7500 0.7500 0.5000
O20 O 0.84587(9) 0.8128(3) 0.42598(18)
O22 O 0.79787(8) 0.5882(3) 0.49436(17)
C25_2 C 0.18696(13) 0.0481(4) 0.6639(2)
C28_2 C 0.18579(12) 0.1222(4) 0.5921(2)
C29_2 C 0.15321(14) 0.0342(5) 0.7022(3)
H14_2 H 0.1289 0.0701 0.6830
H15_2 H 0.2463 0.0021 0.6680
O12_2 O 0.10730(12) 0.5190(5) 0.0581(3)
C21_2 C 0.08450(16) 0.5689(6) 0.0096(3)
C22_2 C 0.04118(15) 0.5310(6) 0.0044(3)
C24_2 C 0.02622(17) 0.4388(7) 0.0515(4)
H12_2 H 0.0435 0.3956 0.0862
O22_2 O 0.20213(8) 0.5882(3) 0.00564(17)
O11_2 O 0.09636(9) 0.6508(4) 0.9630(2)
C23_2 C 0.01492(18) 0.5917(8) 0.9518(4)
H11_2 H 0.0248 0.6533 0.9184
O13_2 O 0.15951(9) 0.8186(3) 0.89955(17)
O14_2 O 0.22654(9) 0.8098(3) 0.89912(16)
C26_2 C 0.22497(14) 0.9295(5) 0.7602(3)
H13_2 H 0.2493 0.8947 0.7798
C27_2 C 0.19043(13) 0.9152(4) 0.7993(2)
C30_2 C 0.19262(13) 0.8429(4) 0.8721(2)
C31_2 C 0.22322(14) 0.9941(5) 0.6937(3)
C32_2 C 0.15490(14) 0.9674(5) 0.7692(3)
H16_2 H 0.1316 0.9576 0.7941
O10_2 O 0.70213(8) 0.0882(3) 0.00564(17)
Zn6_2 Zn 0.652803(13) 0.19889(5) 0.98382(3)
O1_2 O 0.84049(9) 0.1814(3) 0.10045(17)
O2_2 O 0.77346(9) 0.1902(3) 0.10088(16)
O4_2 O 0.82480(12) 0.5211(3) 0.0918(2)
O7_2 O 0.90364(9) 0.3492(4) 0.0370(2)
C2_2 C 0.77359(15) 0.7492(5) 0.0649(3)
H1_2 H 0.7894 0.7482 0.1089
C3_2 C 0.77395(13) 0.6373(4) 0.0184(3)
C5_2 C 0.77503(14) 0.0705(5) 0.2398(3)
H2_2 H 0.7507 0.1053 0.2202
C6_2 C 0.80957(13) 0.0848(4) 0.2007(2)
C10_2 C 0.80738(13) 0.1571(4) 0.1279(2)
C11_2 C 0.77678(14) 0.0059(5) 0.3063(3)
C12_2 C 0.84510(14) 0.0326(5) 0.2308(3)
H6_2 H 0.8684 0.0424 0.2059
C13_2 C 0.80033(14) 0.5165(4) 0.0381(3)
C15_2 C 0.98508(18) 0.4083(8) 0.0482(4)
H7_2 H 0.9752 0.3467 0.0816
C19_2 C 0.75036(14) 0.8611(5) 0.0471(3)
H10_2 H 0.7507 0.9362 0.0785
O18_2 O 0.71599(9) 0.3836(3) 0.05517(16)
O6_2 O 0.79787(8) 0.4118(3) 0.99436(17)
O8_2 O 0.89270(12) 0.4810(5) 0.9419(3)
C1_2 C 0.91550(16) 0.4311(6) 0.9904(3)
C8_2 C 0.74964(14) 0.6389(5) 0.9529(3)
H3_2 H 0.7493 0.5638 0.9215
C14_2 C 0.95882(15) 0.4690(6) 0.9956(3)
C16_2 C 0.97378(17) 0.5612(7) 0.9485(4)
H8_2 H 0.9565 0.6044 0.9138
O9_2 O 0.67520(12) 0.9789(3) 0.9082(2)
C17_2 C 0.72641(15) 0.7508(5) 0.9351(3)
H9_2 H 0.7106 0.7518 0.8911
C18_2 C 0.72605(13) 0.8627(4) 0.9816(3)
C20_2 C 0.69967(14) 0.9835(4) 0.9619(3)
O17_2 O 0.72654(9) 0.3098(3) 0.89912(16)
O3_2 O 0.78401(9) 0.8836(3) 0.44483(16)
C4_2 C 0.81304(13) 0.9519(4) 0.3361(2)
C7_2 C 0.81421(12) 0.8778(4) 0.4079(2)
C9_2 C 0.84679(14) 0.9658(5) 0.2978(3)
H4_2 H 0.8711 0.9299 0.3170
H5_2 H 0.7537 0.9979 0.3320
Zn4_2 Zn 0.347197(13) 0.80111(5) 0.01618(3)
O4_3 O 0.67520(12) 0.0211(3) 0.4082(2)
C2_3 C 0.72641(15) 0.2492(5) 0.4351(3)
H1_3 H 0.7106 0.2482 0.3911
C3_3 C 0.72605(13) 0.1373(4) 0.4816(3)
C8_3 C 0.75036(14) 0.1389(5) 0.5471(3)
H3_3 H 0.7507 0.0638 0.5785
C13_3 C 0.69967(14) 0.0165(4) 0.4619(3)
C16_3 C 0.52622(17) 0.0612(7) 0.5515(4)
H8_3 H 0.5435 0.1044 0.5862
O9_3 O 0.82480(12) 0.4789(3) 0.5918(2)
C17_3 C 0.77359(15) 0.2508(5) 0.5649(3)
H9_3 H 0.7894 0.2518 0.6089
C18_3 C 0.77395(13) 0.3627(4) 0.5184(3)
C19_3 C 0.74964(14) 0.3611(5) 0.4529(3)
H10_3 H 0.7493 0.4362 0.4215
C20_3 C 0.80033(14) 0.4835(4) 0.5381(3)
O11_3 O 0.40364(9) 0.1508(4) 0.5370(2)
O12_3 O 0.39270(12) 0.0190(5) 0.4419(3)
C21_3 C 0.41550(16) 0.0689(6) 0.4904(3)
C22_3 C 0.45882(15) 0.0310(6) 0.4956(3)
C23_3 C 0.48508(18) 0.0917(8) 0.5482(4)
H11_3 H 0.4752 0.1533 0.5816
O13_3 O 0.34049(9) 0.3186(3) 0.60045(17)
O15_2 O 0.28401(9) 0.6164(3) 0.94483(16)
O16_2 O 0.34587(9) 0.6872(3) 0.92598(18)
C25_3 C 0.31304(13) 0.5481(4) 0.8361(2)
C26_3 C 0.27503(14) 0.4295(5) 0.7398(3)
H13_3 H 0.2507 0.3947 0.7202
C27_3 C 0.30957(13) 0.4152(4) 0.7007(2)
C28_3 C 0.31421(12) 0.6222(4) 0.9079(2)
C29_3 C 0.34679(14) 0.5342(5) 0.7978(3)
H14_3 H 0.3711 0.5701 0.8170
C30_3 C 0.30738(13) 0.3429(4) 0.6279(2)
C31_3 C 0.27678(14) 0.4941(5) 0.8063(3)
H15_3 H 0.2537 0.5021 0.8320
C32_3 C 0.34510(14) 0.4674(5) 0.7308(3)
H16_3 H 0.3684 0.4576 0.7059
O20_2 O 0.34587(9) 0.3128(3) 0.42598(18)
Zn1_2 Zn 0.652803(13) 0.80111(5) 0.48382(3)
O1_3 O 0.65951(9) 0.6814(3) 0.39955(17)
O2_3 O 0.72654(9) 0.6902(3) 0.39912(16)
O5_2 O 0.65413(9) 0.3128(3) 0.07402(18)
O6_3 O 0.70213(8) 0.9118(3) 0.50564(17)
O7_3 O 0.59636(9) 0.8492(4) 0.4630(2)
O8_3 O 0.60730(12) 0.9810(5) 0.5581(3)
C1_3 C 0.58450(16) 0.9311(6) 0.5096(3)
C4_3 C 0.68696(13) 0.4519(4) 0.1639(2)
C5_3 C 0.72497(14) 0.5705(5) 0.2602(3)
H2_3 H 0.7493 0.6053 0.2798
C6_3 C 0.69043(13) 0.5848(4) 0.2993(2)
C7_3 C 0.68579(12) 0.3778(4) 0.0921(2)
C9_3 C 0.65321(14) 0.4658(5) 0.2022(3)
H4_3 H 0.6289 0.4299 0.1830
C10_3 C 0.69262(13) 0.6571(4) 0.3721(2)
C11_3 C 0.72322(14) 0.5059(5) 0.1937(3)
H5_3 H 0.7463 0.4979 0.1680
C12_3 C 0.65490(14) 0.5326(5) 0.2692(3)
H6_3 H 0.6316 0.5424 0.2941
C14_3 C 0.54118(15) 0.9690(6) 0.5044(3)
C15_3 C 0.51492(18) 0.9083(8) 0.4518(4)
H7_3 H 0.5248 0.8467 0.4184
C24_3 C 0.47378(17) 0.9388(7) 0.4485(4)
H12_3 H 0.4565 0.8956 0.4138
O19_2 O 0.71599(9) 0.6164(3) 0.55517(16)
O21_2 O 0.65413(9) 0.6872(3) 0.57402(18)
O4_4 O 0.32480(12) 0.0211(3) 0.0918(2)
C2_4 C 0.27359(15) 0.2492(5) 0.0649(3)
H1_4 H 0.2894 0.2482 0.1089
C3_4 C 0.27395(13) 0.1373(4) 0.0184(3)
C13_4 C 0.30033(14) 0.0165(4) 0.0381(3)
C19_4 C 0.25036(14) 0.3611(5) 0.0471(3)
H10_4 H 0.2507 0.4362 0.0785
O12_4 O 0.60730(12) 0.0190(5) 0.0581(3)
C21_4 C 0.58450(16) 0.0689(6) 0.0096(3)
C22_4 C 0.54118(15) 0.0310(6) 0.0044(3)
C8_4 C 0.24964(14) 0.1389(5) 0.9529(3)
H3_4 H 0.2493 0.0638 0.9215
C16_4 C 0.47378(17) 0.0612(7) 0.9485(4)
H8_4 H 0.4565 0.1044 0.9138
O9_4 O 0.17520(12) 0.4789(3) 0.9082(2)
C17_4 C 0.22641(15) 0.2508(5) 0.9351(3)
H9_4 H 0.2106 0.2518 0.8911
C18_4 C 0.22605(13) 0.3627(4) 0.9816(3)
C20_4 C 0.19967(14) 0.4835(4) 0.9619(3)
O11_4 O 0.59636(9) 0.1508(4) 0.9630(2)
C23_4 C 0.51492(18) 0.0917(8) 0.9518(4)
H11_4 H 0.5248 0.1533 0.9184
O13_4 O 0.65951(9) 0.3186(3) 0.89955(17)
C25_4 C 0.68696(13) 0.5481(4) 0.6639(2)
C26_4 C 0.72497(14) 0.4295(5) 0.7602(3)
H13_4 H 0.7493 0.3947 0.7798
C27_4 C 0.69043(13) 0.4152(4) 0.7993(2)
C28_4 C 0.68579(12) 0.6222(4) 0.5921(2)
C29_4 C 0.65321(14) 0.5342(5) 0.7022(3)
H14_4 H 0.6289 0.5701 0.6830
C30_4 C 0.69262(13) 0.3429(4) 0.8721(2)
C31_4 C 0.72322(14) 0.4941(5) 0.6937(3)
H15_4 H 0.7463 0.5021 0.6680
C32_4 C 0.65490(14) 0.4674(5) 0.7692(3)
H16_4 H 0.6316 0.4576 0.7941
O1_4 O 0.34049(9) 0.6814(3) 0.10045(17)
O2_4 O 0.27346(9) 0.6902(3) 0.10088(16)
O7_4 O 0.40364(9) 0.8492(4) 0.0370(2)
C4_4 C 0.31304(13) 0.4519(4) 0.3361(2)
C5_4 C 0.27503(14) 0.5705(5) 0.2398(3)
H2_4 H 0.2507 0.6053 0.2202
C6_4 C 0.30957(13) 0.5848(4) 0.2007(2)
C7_4 C 0.31421(12) 0.3778(4) 0.4079(2)
C9_4 C 0.34679(14) 0.4658(5) 0.2978(3)
H4_4 H 0.3711 0.4299 0.3170
C10_4 C 0.30738(13) 0.6571(4) 0.1279(2)
C11_4 C 0.27678(14) 0.5059(5) 0.3063(3)
H5_4 H 0.2537 0.4979 0.3320
C12_4 C 0.34510(14) 0.5326(5) 0.2308(3)
H6_4 H 0.3684 0.5424 0.2059
C15_4 C 0.48508(18) 0.9083(8) 0.0482(4)
H7_4 H 0.4752 0.8467 0.0816
C24_4 C 0.52622(17) 0.9388(7) 0.0515(4)
H12_4 H 0.5435 0.8956 0.0862
O6_4 O 0.29787(8) 0.9118(3) 0.99436(17)
O8_4 O 0.39270(12) 0.9810(5) 0.9419(3)
C1_4 C 0.41550(16) 0.9311(6) 0.9904(3)
C14_4 C 0.45882(15) 0.9690(6) 0.9956(3)
loop_
_geom_bond_atom_site_label_1
_geom_bond_atom_site_label_2
_geom_bond_site_symmetry_1
_geom_bond_site_symmetry_2
Zn6 O10 1_555 1_555
Zn7 O10 1_555 1_555
Zn1 O1 1_555 1_555
Zn7 O2 1_555 1_555
O1 C10 1_555 1_555
O2 C10 1_555 1_555
O4 C13 1_555 1_555
O6 Zn1 1_555 1_555
O7 Zn1 1_555 1_555
O8 C1 1_555 1_555
C1 O7 1_555 1_555
C2 H1 1_555 1_555
C3 C2 1_555 1_555
C5 H2 1_555 1_555
C6 C5 1_555 1_555
C8 C3 1_555 1_555
H3 C8 1_555 1_555
C10 C6 1_555 1_555
C12 C6 1_555 1_555
H6 C12 1_555 1_555
C13 O6 1_555 1_555
C14 C1 1_555 1_555
C15 C14 1_555 1_555
H7 C15 1_555 1_555
C16 C14 1_555 1_555
H8 C16 1_555 1_555
O9 C20 1_555 1_555
C17 C8 1_555 1_555
H9 C17 1_555 1_555
C18 C17 1_555 1_555
C19 C2 1_555 1_555
H10 C19 1_555 1_555
C20 C18 1_555 1_555
O17 Zn7 1_555 1_555
O18 Zn7 1_555 1_555
O19 Zn7 1_555 1_555
O21 Zn1 1_555 1_555
Zn7 O6 1_555 1_555
C3 C13 1_555 1_555
C5 C11 1_555 1_555
C18 C19 1_555 1_555
O3 C7 1_555 1_555
O5 C7 1_555 1_555
C4 C7 1_555 1_555
C9 C4 1_555 1_555
H4 C9 1_555 1_555
Zn10 O3 1_555 1_555
O15 C28 1_555 1_555
O16 C28 1_555 1_555
C25 C28 1_555 1_555
C29 C25 1_555 1_555
H14 C29 1_555 1_555
Zn8_2 O15 1_555 1_555
O11 C21 1_555 1_555
O12 C21 1_555 1_555
C21 C22 1_555 1_555
C22 C23 1_555 1_555
H11 C23 1_555 1_555
H12 C24 1_555 1_555
Zn3 O11 1_555 1_555
O13 Zn3 1_555 1_555
O14 C30 1_555 1_555
C26 H13 1_555 1_555
C27 C26 1_555 1_555
C30 O13 1_555 1_555
C32 C27 1_555 1_555
H16 C32 1_555 1_555
Zn9 O14 1_555 1_555
O20 Zn3 1_555 1_555
O22 Zn3 1_555 1_555
C22 C24 1_555 1_555
C26 C31 1_555 1_555
C27 C30 1_555 1_555
Zn9 O22 1_555 1_555
O19 C28_2 1_555 1_555
O21 C28_2 1_555 1_555
C25_2 C28_2 1_555 1_555
C29_2 C25_2 1_555 1_555
H14_2 C29_2 1_555 1_555
O12_2 C21_2 1_555 1_555
C21_2 C22_2 1_555 1_555
H12_2 C24_2 1_555 1_555
C22_2 C24_2 1_555 1_555
Zn10 O22_2 1_555 1_555
H11_2 C23_2 1_555 1_555
Zn5 O11_2 1_555 1_555
O13_2 Zn5 1_555 1_555
O14_2 C30_2 1_555 1_555
C26_2 H13_2 1_555 1_555
C27_2 C26_2 1_555 1_555
C30_2 O13_2 1_555 1_555
C32_2 C27_2 1_555 1_555
H16_2 C32_2 1_555 1_555
Zn10_2 O14_2 1_555 1_555
C26_2 C31_2 1_555 1_555
C27_2 C30_2 1_555 1_555
Zn8 O10_2 1_555 1_555
Zn4 O1_2 1_555 1_555
Zn8 O2_2 1_555 1_555
O1_2 C10_2 1_555 1_555
O2_2 C10_2 1_555 1_555
O4_2 C13_2 1_555 1_555
O7_2 Zn4 1_555 1_555
C2_2 H1_2 1_555 1_555
C3_2 C2_2 1_555 1_555
C5_2 H2_2 1_555 1_555
C6_2 C5_2 1_555 1_555
C10_2 C6_2 1_555 1_555
C12_2 C6_2 1_555 1_555
H6_2 C12_2 1_555 1_555
H7_2 C15_2 1_555 1_555
C19_2 C2_2 1_555 1_555
H10_2 C19_2 1_555 1_555
O18_2 Zn8 1_555 1_555
C3_2 C13_2 1_555 1_555
C5_2 C11_2 1_555 1_555
O8_2 C1_2 1_555 1_555
H3_2 C8_2 1_555 1_555
C14_2 C1_2 1_555 1_555
C16_2 C14_2 1_555 1_555
H8_2 C16_2 1_555 1_555
O9_2 C20_2 1_555 1_555
C17_2 C8_2 1_555 1_555
H9_2 C17_2 1_555 1_555
C18_2 C17_2 1_555 1_555
C20_2 C18_2 1_555 1_555
O17_2 Zn8_2 1_555 1_555
Zn8_2 O6_2 1_555 1_555
O3_2 C7_2 1_555 1_555
O20 C7_2 1_555 1_555
C4_2 C7_2 1_555 1_555
C9_2 C4_2 1_555 1_555
H4_2 C9_2 1_555 1_555
Zn9 O3_2 1_555 1_555
O4_3 C13_3 1_555 1_555
C2_3 H1_3 1_555 1_555
C3_3 C2_3 1_555 1_555
C8_3 C3_3 1_555 1_555
H3_3 C8_3 1_555 1_555
H8_3 C16_3 1_555 1_555
O9_3 C20_3 1_555 1_555
O22 C20_3 1_555 1_555
C17_3 C8_3 1_555 1_555
H9_3 C17_3 1_555 1_555
C18_3 C17_3 1_555 1_555
C19_3 C2_3 1_555 1_555
H10_3 C19_3 1_555 1_555
C20_3 C18_3 1_555 1_555
O11_3 C21_3 1_555 1_555
O12_3 C21_3 1_555 1_555
C21_3 C22_3 1_555 1_555
C22_3 C23_3 1_555 1_555
C23_3 C16_3 1_555 1_555
H11_3 C23_3 1_555 1_555
Zn6 O11_3 1_555 1_555
O13_3 Zn6 1_555 1_555
O17 C30_3 1_555 1_555
O15_2 C28_3 1_555 1_555
O16_2 C28_3 1_555 1_555
C25_3 C28_3 1_555 1_555
C26_3 H13_3 1_555 1_555
C27_3 C26_3 1_555 1_555
C29_3 C25_3 1_555 1_555
H14_3 C29_3 1_555 1_555
C30_3 O13_3 1_555 1_555
C31_3 C25_3 1_555 1_555
H15_3 C31_3 1_555 1_555
C32_3 C27_3 1_555 1_555
H16_3 C32_3 1_555 1_555
Zn10_2 O15_2 1_555 1_555
O20_2 Zn6 1_555 1_555
C3_3 C13_3 1_555 1_555
C18_3 C19_3 1_555 1_555
C26_3 C31_3 1_555 1_555
C27_3 C30_3 1_555 1_555
C29_3 C32_3 1_555 1_555
Zn1_2 O1_3 1_555 1_555
Zn9 O2_3 1_555 1_555
O1_3 C10_3 1_555 1_555
O2_3 C10_3 1_555 1_555
O18_2 C7_3 1_555 1_555
O5_2 C7_3 1_555 1_555
O6_3 Zn1_2 1_555 1_555
O7_3 Zn1_2 1_555 1_555
O8_3 C1_3 1_555 1_555
C1_3 O7_3 1_555 1_555
C4_3 C7_3 1_555 1_555
C5_3 H2_3 1_555 1_555
C6_3 C5_3 1_555 1_555
C9_3 C4_3 1_555 1_555
H4_3 C9_3 1_555 1_555
C10_3 C6_3 1_555 1_555
C11_3 C4_3 1_555 1_555
H5_3 C11_3 1_555 1_555
C12_3 C6_3 1_555 1_555
H6_3 C12_3 1_555 1_555
C14_3 C1_3 1_555 1_555
C15_3 C14_3 1_555 1_555
H7_3 C15_3 1_555 1_555
C24_3 C15_3 1_555 1_555
H12_3 C24_3 1_555 1_555
O19_2 Zn9 1_555 1_555
O21_2 Zn1_2 1_555 1_555
Zn9 O6_3 1_555 1_555
C5_3 C11_3 1_555 1_555
C9_3 C12_3 1_555 1_555
O4_4 C13_4 1_555 1_555
C2_4 H1_4 1_555 1_555
C3_4 C2_4 1_555 1_555
C19_4 C2_4 1_555 1_555
H10_4 C19_4 1_555 1_555
O12_4 C21_4 1_555 1_555
C21_4 C22_4 1_555 1_555
C3_4 C13_4 1_555 1_555
H3_4 C8_4 1_555 1_555
H8_4 C16_4 1_555 1_555
O9_4 C20_4 1_555 1_555
C17_4 C8_4 1_555 1_555
H9_4 C17_4 1_555 1_555
C18_4 C17_4 1_555 1_555
C20_4 C18_4 1_555 1_555
C23_4 C16_4 1_555 1_555
H11_4 C23_4 1_555 1_555
Zn6_2 O11_4 1_555 1_555
O13_4 Zn6_2 1_555 1_555
O17_2 C30_4 1_555 1_555
O19_2 C28_4 1_555 1_555
O21_2 C28_4 1_555 1_555
C25_4 C28_4 1_555 1_555
C26_4 H13_4 1_555 1_555
C27_4 C26_4 1_555 1_555
C29_4 C25_4 1_555 1_555
H14_4 C29_4 1_555 1_555
C30_4 O13_4 1_555 1_555
C31_4 C25_4 1_555 1_555
H15_4 C31_4 1_555 1_555
C32_4 C27_4 1_555 1_555
H16_4 C32_4 1_555 1_555
C26_4 C31_4 1_555 1_555
C27_4 C30_4 1_555 1_555
C29_4 C32_4 1_555 1_555
Zn4_2 O1_4 1_555 1_555
Zn10 O2_4 1_555 1_555
O1_4 C10_4 1_555 1_555
O2_4 C10_4 1_555 1_555
O18 C7_4 1_555 1_555
O20_2 C7_4 1_555 1_555
O7_4 Zn4_2 1_555 1_555
C4_4 C7_4 1_555 1_555
C5_4 H2_4 1_555 1_555
C6_4 C5_4 1_555 1_555
C9_4 C4_4 1_555 1_555
H4_4 C9_4 1_555 1_555
C10_4 C6_4 1_555 1_555
C11_4 C4_4 1_555 1_555
H5_4 C11_4 1_555 1_555
C12_4 C6_4 1_555 1_555
H6_4 C12_4 1_555 1_555
H7_4 C15_4 1_555 1_555
C24_4 C15_4 1_555 1_555
H12_4 C24_4 1_555 1_555
C5_4 C11_4 1_555 1_555
C9_4 C12_4 1_555 1_555
O8_4 C1_4 1_555 1_555
C14_4 C1_4 1_555 1_555
Zn10_2 O6_4 1_555 1_555

#END
