
###############################################################################
#
# This file contains modified crystal structure data generated from the
# MOF subset of the Cambridge Structural Database (CSD) v543 
# hosted by the Cambridge Crystallographic Data Centre (CCDC).
#
# This work is licensed under the Creative Commons
# Attribution-NonCommercial-ShareAlike 4.0 International License.
# To view a copy of this license, visit
# http://creativecommons.org/licenses/by-nc-sa/4.0/
# or send a letter to
# Creative Commons, PO Box 1866, Mountain View, CA 94042, USA.
#
# CIF created using the CSD Python API on 29 September 2022
# The structure has been converted into the P1 space group
# The structure has a 3D framework
# The original CSD entry PIDMEV01 is in the monoclinic crystal system
# The framework has been calculated to contain at least 10.0% void space
# The void calculation uses a probe of radius 1.32A, grid spacing 0.4
#
###############################################################################

data_PIDMEV01
_chemical_formula_moiety         '(C188 H136 N8 O52 Zn14)n'
_symmetry_cell_setting           triclinic
_symmetry_space_group_name_H-M   'P 1'
_symmetry_Int_Tables_number      1
_space_group_name_Hall           'P 1'
loop_
_symmetry_equiv_pos_site_id
_symmetry_equiv_pos_as_xyz
1 x,y,z
_cell_length_a                   15.6988(12)
_cell_length_b                   25.1203(19)
_cell_length_c                   16.5589(13)
_cell_angle_alpha                90
_cell_angle_beta                 114.7640(10)
_cell_angle_gamma                90
_cell_volume                     5929.64
loop_
_atom_site_label
_atom_site_type_symbol
_atom_site_fract_x
_atom_site_fract_y
_atom_site_fract_z
Zn9 Zn 0.0000 0.82930(2) 0.2500
H32 H 0.0453 0.3780 0.5851
Zn1 Zn 0.25920(4) 0.30642(3) 0.06381(4)
Zn2 Zn 0.5000 0.32930(2) 0.2500
N1 N 0.3293(3) 0.62960(14) 0.1014(3)
C1 C 0.3493(3) 0.40368(18) 0.1381(3)
C2 C 0.3422(3) 0.46284(18) 0.1304(3)
C3 C 0.4227(3) 0.49248(18) 0.1471(3)
H1 H 0.4799 0.4751 0.1641
C4 C 0.4194(3) 0.54710(19) 0.1389(3)
H2 H 0.4742 0.5661 0.1510
C5 C 0.3341(3) 0.57400(17) 0.1124(3)
C6 C 0.2531(3) 0.54409(19) 0.0965(3)
H3 H 0.1958 0.5613 0.0796
C7 C 0.2577(3) 0.48933(18) 0.1058(3)
H4 H 0.2035 0.4701 0.0954
C8 C 0.1291(3) 0.76067(16) 0.2456(3)
C9 C 0.1785(3) 0.72459(16) 0.2062(3)
C10 C 0.1710(3) 0.73364(18) 0.1209(3)
H5 H 0.1335 0.7612 0.0870
C11 C 0.2199(3) 0.70136(17) 0.0860(3)
H6 H 0.2151 0.7076 0.0289
C12 C 0.2754(3) 0.66011(16) 0.1361(3)
C13 C 0.2811(4) 0.65037(18) 0.2211(3)
H7 H 0.3170 0.6221 0.2544
C14 C 0.2335(4) 0.68253(17) 0.2557(3)
H8 H 0.2381 0.6761 0.3127
C15 C 0.6218(3) 0.7286(3) 0.0375(4)
C16 C 0.5426(3) 0.7046(2) 0.0511(3)
C17 C 0.5000(3) 0.6585(2) 0.0061(3)
C18 C 0.4275(3) 0.63476(19) 0.0199(3)
C19 C 0.3985(3) 0.65671(17) 0.0823(3)
C20 C 0.4395(3) 0.70335(19) 0.1256(3)
H11 H 0.4194 0.7187 0.1657
C21 C 0.5104(3) 0.7273(2) 0.1096(3)
H12 H 0.5367 0.7589 0.1383
H17 H 0.0363 0.3594 0.0041
O1 O 0.4289(3) 0.38336(14) 0.1606(3)
O2 O 0.2746(3) 0.37718(13) 0.1200(3)
O3 O 0.0698(2) 0.79215(13) 0.1935(2)
O4 O 0.1478(2) 0.75774(12) 0.3271(2)
O6 O 0.6524(3) 0.7726(2) 0.0738(3)
Zn3 Zn 0.74080(4) 0.30642(3) 0.43619(4)
Zn4 Zn 0.24080(4) 0.80642(3) 0.43619(4)
Zn6 Zn 0.75920(4) 0.80642(3) 0.06381(4)
Zn7 Zn 0.25920(4) 0.69358(3) 0.56381(4)
Zn9_2 Zn 1.0000 0.82930(2) 0.2500
N2 N 0.6707(3) 0.62960(14) 0.3986(3)
C24 C 0.6507(3) 0.40368(18) 0.3619(3)
C25 C 0.6578(3) 0.46284(18) 0.3696(3)
C26 C 0.5773(3) 0.49248(18) 0.3529(3)
H18 H 0.5201 0.4751 0.3359
C27 C 0.5806(3) 0.54710(19) 0.3611(3)
H19 H 0.5258 0.5661 0.3490
C28 C 0.6659(3) 0.57400(17) 0.3876(3)
C29 C 0.7469(3) 0.54409(19) 0.4035(3)
H20 H 0.8042 0.5613 0.4204
C30 C 0.7423(3) 0.48933(18) 0.3942(3)
H21 H 0.7965 0.4701 0.4046
C31 C 0.8709(3) 0.76067(16) 0.2544(3)
C32 C 0.8215(3) 0.72459(16) 0.2938(3)
C33 C 0.8290(3) 0.73364(18) 0.3791(3)
H22 H 0.8665 0.7612 0.4130
C34 C 0.7801(3) 0.70136(17) 0.4140(3)
H23 H 0.7849 0.7076 0.4711
C35 C 0.7246(3) 0.66011(16) 0.3639(3)
C36 C 0.7189(4) 0.65037(18) 0.2789(3)
H24 H 0.6830 0.6221 0.2456
C37 C 0.7665(4) 0.68253(17) 0.2443(3)
H25 H 0.7619 0.6761 0.1873
C38 C 0.3782(3) 0.7286(3) 0.4625(4)
C39 C 0.4574(3) 0.7046(2) 0.4489(3)
C40 C 0.5000(3) 0.6585(2) 0.4939(3)
H26 H 0.4796 0.6433 0.5339
C41 C 0.5725(3) 0.63476(19) 0.4801(3)
H27 H 0.6018 0.6045 0.5119
C42 C 0.6015(3) 0.65671(17) 0.4177(3)
C43 C 0.5605(3) 0.70335(19) 0.3744(3)
H28 H 0.5806 0.7187 0.3343
C44 C 0.4896(3) 0.7273(2) 0.3904(3)
H29 H 0.4633 0.7589 0.3617
C45 C 0.9386(8) 0.3474(5) 0.6006(9)
H30 H 0.9574 0.3648 0.6578
H31 H 0.9673 0.3124 0.6119
C46 C 0.9784(13) 0.3765(7) 0.5520(16)
H33 H 0.9534 0.4120 0.5419
H34 H 0.9637 0.3594 0.4959
O8 O 0.5711(3) 0.38336(14) 0.3394(3)
O9 O 0.7254(3) 0.37718(13) 0.3800(3)
O10 O 0.9302(2) 0.79215(13) 0.3065(2)
O11 O 0.5698(2) 0.29215(13) 0.1935(2)
O12 O 0.4302(2) 0.29215(13) 0.3065(2)
O13 O 0.8522(2) 0.75774(12) 0.1729(2)
O14 O 0.3522(2) 0.25774(12) 0.1729(2)
O15 O 0.6478(2) 0.25774(12) 0.3271(2)
O16 O 0.3447(3) 0.7025(2) 0.5071(3)
O17 O 0.3447(3) 0.2975(2) 0.0071(3)
O18 O 0.6553(3) 0.2975(2) 0.4929(3)
O19 O 0.3476(3) 0.7726(2) 0.4262(3)
O20 O 0.1524(3) 0.2726(2) 0.0738(3)
O21 O 0.8476(3) 0.2726(2) 0.4262(3)
O22 O 0.8362(4) 0.3397(3) 0.5633(3)
H9 H 0.5204 0.6433 0.9661
H10 H 0.3982 0.6045 0.9881
C22 C 0.0614(8) 0.3474(5) 0.8994(9)
H13 H 0.0426 0.3648 0.8422
H14 H 0.0327 0.3124 0.8881
C23 C 0.0216(13) 0.3765(7) 0.9480(16)
H16 H 0.0466 0.4120 0.9581
O5 O 0.6553(3) 0.7025(2) 0.9929(3)
O7 O 0.1638(4) 0.3397(3) 0.9367(3)
Zn5 Zn 0.74080(4) 0.69358(3) 0.93619(4)
C15_2 C 0.1218(3) 0.2286(3) 0.0375(4)
C16_2 C 0.0426(3) 0.2046(2) 0.0511(3)
C17_2 C -0.0000(3) 0.1585(2) 0.0061(3)
C21_2 C 0.0104(3) 0.2273(2) 0.1096(3)
H12_2 H 0.0367 0.2589 0.1383
N2_2 N 0.1707(3) 0.12960(14) 0.3986(3)
C27_2 C 0.0806(3) 0.04710(19) 0.3611(3)
H19_2 H 0.0258 0.0661 0.3490
C28_2 C 0.1659(3) 0.07400(17) 0.3876(3)
C29_2 C 0.2469(3) 0.04409(19) 0.4035(3)
H20_2 H 0.3042 0.0613 0.4204
C31_2 C 0.3709(3) 0.26067(16) 0.2544(3)
C32_2 C 0.3215(3) 0.22459(16) 0.2938(3)
C33_2 C 0.3290(3) 0.23364(18) 0.3791(3)
H22_2 H 0.3665 0.2612 0.4130
C34_2 C 0.2801(3) 0.20136(17) 0.4140(3)
H23_2 H 0.2849 0.2076 0.4711
C35_2 C 0.2246(3) 0.16011(16) 0.3639(3)
C36_2 C 0.2189(4) 0.15037(18) 0.2789(3)
H24_2 H 0.1830 0.1221 0.2456
C37_2 C 0.2665(4) 0.18253(17) 0.2443(3)
H25_2 H 0.2619 0.1761 0.1873
C40_2 C -0.0000(3) 0.1585(2) 0.4939(3)
C41_2 C 0.0725(3) 0.13476(19) 0.4801(3)
H27_2 H 0.1018 0.1045 0.5119
C42_2 C 0.1015(3) 0.15671(17) 0.4177(3)
C43_2 C 0.0605(3) 0.20335(19) 0.3744(3)
H28_2 H 0.0806 0.2187 0.3343
H9_2 H 0.0204 0.1433 0.9661
O5_2 O 0.1553(3) 0.2025(2) 0.9929(3)
Zn5_2 Zn 0.24080(4) 0.19358(3) 0.93619(4)
C24_2 C 0.1507(3) 0.90368(18) 0.3619(3)
C25_2 C 0.1578(3) 0.96284(18) 0.3696(3)
C26_2 C 0.0773(3) 0.99248(18) 0.3529(3)
H18_2 H 0.0201 0.9751 0.3359
C30_2 C 0.2423(3) 0.98933(18) 0.3942(3)
H21_2 H 0.2965 0.9701 0.4046
C45_2 C 0.4386(8) 0.8474(5) 0.6006(9)
H30_2 H 0.4574 0.8648 0.6578
H31_2 H 0.4673 0.8124 0.6119
C46_2 C 0.4784(13) 0.8765(7) 0.5520(16)
H32_2 H 0.5453 0.8780 0.5851
H33_2 H 0.4534 0.9120 0.5419
H34_2 H 0.4637 0.8594 0.4959
O8_2 O 0.0711(3) 0.88336(14) 0.3394(3)
O9_2 O 0.2254(3) 0.87718(13) 0.3800(3)
O18_2 O 0.1553(3) 0.7975(2) 0.4929(3)
O22_2 O 0.3362(4) 0.8397(3) 0.5633(3)
N1_2 N 0.8293(3) 0.12960(14) 0.1014(3)
C4_2 C 0.9194(3) 0.04710(19) 0.1389(3)
H2_2 H 0.9742 0.0661 0.1510
C5_2 C 0.8341(3) 0.07400(17) 0.1124(3)
C6_2 C 0.7531(3) 0.04409(19) 0.0965(3)
H3_2 H 0.6958 0.0613 0.0796
C8_2 C 0.6291(3) 0.26067(16) 0.2456(3)
C9_2 C 0.6785(3) 0.22459(16) 0.2062(3)
C10_2 C 0.6710(3) 0.23364(18) 0.1209(3)
H5_2 H 0.6335 0.2612 0.0870
C11_2 C 0.7199(3) 0.20136(17) 0.0860(3)
H6_2 H 0.7151 0.2076 0.0289
C12_2 C 0.7754(3) 0.16011(16) 0.1361(3)
C13_2 C 0.7811(4) 0.15037(18) 0.2211(3)
H7_2 H 0.8170 0.1221 0.2544
C14_2 C 0.7335(4) 0.18253(17) 0.2557(3)
H8_2 H 0.7381 0.1761 0.3127
C17_3 C 1.0000(3) 0.1585(2) 0.0061(3)
C18_2 C 0.9275(3) 0.13476(19) 0.0199(3)
C19_2 C 0.8985(3) 0.15671(17) 0.0823(3)
C20_2 C 0.9395(3) 0.20335(19) 0.1256(3)
H11_2 H 0.9194 0.2187 0.1657
Zn7_2 Zn 0.75920(4) 0.19358(3) 0.56381(4)
C38_2 C 0.8782(3) 0.2286(3) 0.4625(4)
C39_2 C 0.9574(3) 0.2046(2) 0.4489(3)
C40_3 C 1.0000(3) 0.1585(2) 0.4939(3)
H26_2 H 0.9796 0.1433 0.5339
C44_2 C 0.9896(3) 0.2273(2) 0.3904(3)
H29_2 H 0.9633 0.2589 0.3617
O16_2 O 0.8447(3) 0.2025(2) 0.5071(3)
C1_2 C 0.8493(3) 0.90368(18) 0.1381(3)
C2_2 C 0.8422(3) 0.96284(18) 0.1304(3)
C3_2 C 0.9227(3) 0.99248(18) 0.1471(3)
H1_2 H 0.9799 0.9751 0.1641
C7_2 C 0.7577(3) 0.98933(18) 0.1058(3)
H4_2 H 0.7035 0.9701 0.0954
H17_2 H 0.5363 0.8594 0.0041
O1_2 O 0.9289(3) 0.88336(14) 0.1606(3)
O2_2 O 0.7746(3) 0.87718(13) 0.1200(3)
O17_2 O 0.8447(3) 0.7975(2) 0.0071(3)
Zn8 Zn 0.0000 0.17070(2) 0.7500
H9_3 H 0.4796 0.3567 0.0339
H10_2 H 0.6018 0.3955 0.0119
C22_2 C 0.9386(8) 0.6526(5) 0.1006(9)
H13_2 H 0.9574 0.6352 0.1578
H14_2 H 0.9673 0.6876 0.1119
C23_2 C 0.9784(13) 0.6235(7) 0.0520(16)
H16_2 H 0.9534 0.5880 0.0419
O7_2 O 0.8362(4) 0.6603(3) 0.0633(3)
Zn2_2 Zn 0.5000 0.67070(2) 0.7500
N1_3 N 0.6707(3) 0.37040(14) 0.8986(3)
C1_3 C 0.6507(3) 0.59632(18) 0.8619(3)
C2_3 C 0.6578(3) 0.53716(18) 0.8696(3)
C3_3 C 0.5773(3) 0.50752(18) 0.8529(3)
H1_3 H 0.5201 0.5249 0.8359
C4_3 C 0.5806(3) 0.45290(19) 0.8611(3)
H2_3 H 0.5258 0.4339 0.8490
C5_3 C 0.6659(3) 0.42600(17) 0.8876(3)
C6_3 C 0.7469(3) 0.45591(19) 0.9035(3)
H3_3 H 0.8042 0.4387 0.9204
C7_3 C 0.7423(3) 0.51067(18) 0.8942(3)
H4_3 H 0.7965 0.5299 0.9046
C8_3 C 0.8709(3) 0.23933(16) 0.7544(3)
C9_3 C 0.8215(3) 0.27541(16) 0.7938(3)
C10_3 C 0.8290(3) 0.26636(18) 0.8791(3)
H5_3 H 0.8665 0.2388 0.9130
C11_3 C 0.7801(3) 0.29864(17) 0.9140(3)
H6_3 H 0.7849 0.2924 0.9711
C12_3 C 0.7246(3) 0.33989(16) 0.8639(3)
C13_3 C 0.7189(4) 0.34963(18) 0.7789(3)
H7_3 H 0.6830 0.3779 0.7456
C14_3 C 0.7665(4) 0.31747(17) 0.7443(3)
H8_3 H 0.7619 0.3239 0.6873
C15_3 C 0.3782(3) 0.2714(3) 0.9625(4)
C16_3 C 0.4574(3) 0.2954(2) 0.9489(3)
C17_4 C 0.5000(3) 0.3415(2) 0.9939(3)
C18_3 C 0.5725(3) 0.36524(19) 0.9801(3)
C19_3 C 0.6015(3) 0.34329(17) 0.9177(3)
C20_3 C 0.5605(3) 0.29665(19) 0.8744(3)
H11_3 H 0.5806 0.2813 0.8343
C21_3 C 0.4896(3) 0.2727(2) 0.8904(3)
H12_3 H 0.4633 0.2411 0.8617
H17_3 H 0.9637 0.6406 0.9959
O1_3 O 0.5711(3) 0.61664(14) 0.8394(3)
O2_3 O 0.7254(3) 0.62282(13) 0.8800(3)
O3_2 O 0.9302(2) 0.20785(13) 0.8065(2)
O4_2 O 0.8522(2) 0.24226(12) 0.6729(2)
O6_2 O 0.3476(3) 0.2274(2) 0.9262(3)
Zn8_2 Zn 1.0000 0.17070(2) 0.7500
N2_3 N 0.3293(3) 0.37040(14) 0.6014(3)
C24_3 C 0.3493(3) 0.59632(18) 0.6381(3)
C25_3 C 0.3422(3) 0.53716(18) 0.6304(3)
C26_3 C 0.4227(3) 0.50752(18) 0.6471(3)
H18_3 H 0.4799 0.5249 0.6641
C27_3 C 0.4194(3) 0.45290(19) 0.6389(3)
H19_3 H 0.4742 0.4339 0.6510
C28_3 C 0.3341(3) 0.42600(17) 0.6124(3)
C29_3 C 0.2531(3) 0.45591(19) 0.5965(3)
H20_3 H 0.1958 0.4387 0.5796
C30_3 C 0.2577(3) 0.51067(18) 0.6058(3)
H21_3 H 0.2035 0.5299 0.5954
C31_3 C 0.1291(3) 0.23933(16) 0.7456(3)
C32_3 C 0.1785(3) 0.27541(16) 0.7062(3)
C33_3 C 0.1710(3) 0.26636(18) 0.6209(3)
H22_3 H 0.1335 0.2388 0.5870
C34_3 C 0.2199(3) 0.29864(17) 0.5860(3)
H23_3 H 0.2151 0.2924 0.5289
C35_3 C 0.2754(3) 0.33989(16) 0.6361(3)
C36_3 C 0.2811(4) 0.34963(18) 0.7211(3)
H24_3 H 0.3170 0.3779 0.7544
C37_3 C 0.2335(4) 0.31747(17) 0.7557(3)
H25_3 H 0.2381 0.3239 0.8127
C38_3 C 0.6218(3) 0.2714(3) 0.5375(4)
C39_3 C 0.5426(3) 0.2954(2) 0.5511(3)
C40_4 C 0.5000(3) 0.3415(2) 0.5061(3)
H26_3 H 0.5204 0.3567 0.4661
C41_3 C 0.4275(3) 0.36524(19) 0.5199(3)
H27_3 H 0.3982 0.3955 0.4881
C42_3 C 0.3985(3) 0.34329(17) 0.5823(3)
C43_3 C 0.4395(3) 0.29665(19) 0.6256(3)
H28_3 H 0.4194 0.2813 0.6657
C44_3 C 0.5104(3) 0.2727(2) 0.6096(3)
H29_3 H 0.5367 0.2411 0.6383
C45_3 C 0.0614(8) 0.6526(5) 0.3994(9)
H30_3 H 0.0426 0.6352 0.3422
H31_3 H 0.0327 0.6876 0.3881
C46_3 C 0.0216(13) 0.6235(7) 0.4480(16)
H33_3 H 0.0466 0.5880 0.4581
H34_3 H 0.0363 0.6406 0.5041
O8_3 O 0.4289(3) 0.61664(14) 0.6606(3)
O9_3 O 0.2746(3) 0.62282(13) 0.6200(3)
O10_2 O 0.0698(2) 0.20785(13) 0.6935(2)
O11_2 O 0.4302(2) 0.70785(13) 0.8065(2)
O12_2 O 0.5698(2) 0.70785(13) 0.6935(2)
O13_2 O 0.1478(2) 0.24226(12) 0.8271(2)
O14_2 O 0.6478(2) 0.74226(12) 0.8271(2)
O15_2 O 0.3522(2) 0.74226(12) 0.6729(2)
O19_2 O 0.6524(3) 0.2274(2) 0.5738(3)
O20_2 O 0.8476(3) 0.7274(2) 0.9262(3)
O21_2 O 0.1524(3) 0.7274(2) 0.5738(3)
O22_3 O 0.1638(4) 0.6603(3) 0.4367(3)
H32_3 H 0.9547 0.6220 0.4149
C1_4 C 0.1507(3) 0.09632(18) 0.8619(3)
C2_4 C 0.1578(3) 0.03716(18) 0.8696(3)
C3_4 C 0.0773(3) 0.00752(18) 0.8529(3)
H1_4 H 0.0201 0.0249 0.8359
C7_4 C 0.2423(3) 0.01067(18) 0.8942(3)
H4_4 H 0.2965 0.0299 0.9046
H17_4 H 0.4637 0.1406 0.9959
O1_4 O 0.0711(3) 0.11664(14) 0.8394(3)
O2_4 O 0.2254(3) 0.12282(13) 0.8800(3)
N1_4 N 0.1707(3) 0.87040(14) 0.8986(3)
C4_4 C 0.0806(3) 0.95290(19) 0.8611(3)
H2_4 H 0.0258 0.9339 0.8490
C5_4 C 0.1659(3) 0.92600(17) 0.8876(3)
C6_4 C 0.2469(3) 0.95591(19) 0.9035(3)
H3_4 H 0.3042 0.9387 0.9204
C8_4 C 0.3709(3) 0.73933(16) 0.7544(3)
C9_4 C 0.3215(3) 0.77541(16) 0.7938(3)
C10_4 C 0.3290(3) 0.76636(18) 0.8791(3)
H5_4 H 0.3665 0.7388 0.9130
C11_4 C 0.2801(3) 0.79864(17) 0.9140(3)
H6_4 H 0.2849 0.7924 0.9711
C12_4 C 0.2246(3) 0.83989(16) 0.8639(3)
C13_4 C 0.2189(4) 0.84963(18) 0.7789(3)
H7_4 H 0.1830 0.8779 0.7456
C14_4 C 0.2665(4) 0.81747(17) 0.7443(3)
H8_4 H 0.2619 0.8239 0.6873
C17_5 C 0.0000(3) 0.8415(2) 0.9939(3)
C18_4 C 0.0725(3) 0.86524(19) 0.9801(3)
C19_4 C 0.1015(3) 0.84329(17) 0.9177(3)
C20_4 C 0.0605(3) 0.79665(19) 0.8744(3)
H11_4 H 0.0806 0.7813 0.8343
C38_4 C 0.1218(3) 0.7714(3) 0.5375(4)
C39_4 C 0.0426(3) 0.7954(2) 0.5511(3)
C40_5 C 0.0000(3) 0.8415(2) 0.5061(3)
H26_4 H 0.0204 0.8567 0.4661
C44_4 C 0.0104(3) 0.7727(2) 0.6096(3)
H29_4 H 0.0367 0.7411 0.6383
C24_4 C 0.8493(3) 0.09632(18) 0.6381(3)
C25_4 C 0.8422(3) 0.03716(18) 0.6304(3)
C26_4 C 0.9227(3) 0.00752(18) 0.6471(3)
H18_4 H 0.9799 0.0249 0.6641
C30_4 C 0.7577(3) 0.01067(18) 0.6058(3)
H21_4 H 0.7035 0.0299 0.5954
C45_4 C 0.5614(8) 0.1526(5) 0.3994(9)
H30_4 H 0.5426 0.1352 0.3422
H31_4 H 0.5327 0.1876 0.3881
C46_4 C 0.5216(13) 0.1235(7) 0.4480(16)
H32_4 H 0.4547 0.1220 0.4149
H33_4 H 0.5466 0.0880 0.4581
H34_4 H 0.5363 0.1406 0.5041
O8_4 O 0.9289(3) 0.11664(14) 0.6606(3)
O9_4 O 0.7746(3) 0.12282(13) 0.6200(3)
O22_4 O 0.6638(4) 0.1603(3) 0.4367(3)
H9_4 H 0.9796 0.8567 0.0339
C15_4 C 0.8782(3) 0.7714(3) 0.9625(4)
C16_4 C 0.9574(3) 0.7954(2) 0.9489(3)
C17_6 C 1.0000(3) 0.8415(2) 0.9939(3)
C21_4 C 0.9896(3) 0.7727(2) 0.8904(3)
H12_4 H 0.9633 0.7411 0.8617
N2_4 N 0.8293(3) 0.87040(14) 0.6014(3)
C27_4 C 0.9194(3) 0.95290(19) 0.6389(3)
H19_4 H 0.9742 0.9339 0.6510
C28_4 C 0.8341(3) 0.92600(17) 0.6124(3)
C29_4 C 0.7531(3) 0.95591(19) 0.5965(3)
H20_4 H 0.6958 0.9387 0.5796
C31_4 C 0.6291(3) 0.73933(16) 0.7456(3)
C32_4 C 0.6785(3) 0.77541(16) 0.7062(3)
C33_4 C 0.6710(3) 0.76636(18) 0.6209(3)
H22_4 H 0.6335 0.7388 0.5870
C34_4 C 0.7199(3) 0.79864(17) 0.5860(3)
H23_4 H 0.7151 0.7924 0.5289
C35_4 C 0.7754(3) 0.83989(16) 0.6361(3)
C36_4 C 0.7811(4) 0.84963(18) 0.7211(3)
H24_4 H 0.8170 0.8779 0.7544
C37_4 C 0.7335(4) 0.81747(17) 0.7557(3)
H25_4 H 0.7381 0.8239 0.8127
C40_6 C 1.0000(3) 0.8415(2) 0.5061(3)
C41_4 C 0.9275(3) 0.86524(19) 0.5199(3)
H27_4 H 0.8982 0.8955 0.4881
C42_4 C 0.8985(3) 0.84329(17) 0.5823(3)
C43_4 C 0.9395(3) 0.79665(19) 0.6256(3)
H28_4 H 0.9194 0.7813 0.6657
H15 H 0.9547 0.3780 0.9149
H10_3 H 0.8982 0.1045 0.9881
C22_3 C 0.5614(8) 0.8474(5) 0.8994(9)
H13_3 H 0.5426 0.8648 0.8422
H14_3 H 0.5327 0.8124 0.8881
C23_3 C 0.5216(13) 0.8765(7) 0.9480(16)
H15_2 H 0.4547 0.8780 0.9149
H16_3 H 0.5466 0.9120 0.9581
O7_3 O 0.6638(4) 0.8397(3) 0.9367(3)
H15_3 H 0.0453 0.6220 0.0851
C22_4 C 0.4386(8) 0.1526(5) 0.1006(9)
H13_4 H 0.4574 0.1352 0.1578
H14_4 H 0.4673 0.1876 0.1119
C23_4 C 0.4784(13) 0.1235(7) 0.0520(16)
H15_4 H 0.5453 0.1220 0.0851
H16_4 H 0.4534 0.0880 0.0419
O7_4 O 0.3362(4) 0.1603(3) 0.0633(3)
H10_4 H 0.1018 0.8955 0.0119
loop_
_geom_bond_atom_site_label_1
_geom_bond_atom_site_label_2
_geom_bond_site_symmetry_1
_geom_bond_site_symmetry_2
Zn1 O2 1_555 1_555
Zn2 O1 1_555 1_555
N1 C5 1_555 1_555
C1 C2 1_555 1_555
C2 C3 1_555 1_555
C3 H1 1_555 1_555
C4 C3 1_555 1_555
H2 C4 1_555 1_555
C5 C4 1_555 1_555
C6 C5 1_555 1_555
H3 C6 1_555 1_555
C7 C2 1_555 1_555
H4 C7 1_555 1_555
C8 C9 1_555 1_555
C9 C10 1_555 1_555
C10 H5 1_555 1_555
C11 C10 1_555 1_555
H6 C11 1_555 1_555
C12 N1 1_555 1_555
C13 C12 1_555 1_555
H7 C13 1_555 1_555
C14 C9 1_555 1_555
H8 C14 1_555 1_555
C15 C16 1_555 1_555
C16 C17 1_555 1_555
C18 C17 1_555 1_555
C19 N1 1_555 1_555
C20 C19 1_555 1_555
H11 C20 1_555 1_555
C21 C16 1_555 1_555
H12 C21 1_555 1_555
O1 C1 1_555 1_555
O2 C1 1_555 1_555
O3 C8 1_555 1_555
O4 C8 1_555 1_555
O6 C15 1_555 1_555
Zn3 O9 1_555 1_555
Zn4 O4 1_555 1_555
Zn6 O6 1_555 1_555
Zn7 O16 1_555 1_555
Zn9 O3 1_555 1_555
Zn9_2 O10 1_555 1_555
N2 C28 1_555 1_555
C24 C25 1_555 1_555
C25 C26 1_555 1_555
C26 H18 1_555 1_555
C27 C26 1_555 1_555
H19 C27 1_555 1_555
C28 C27 1_555 1_555
C29 C28 1_555 1_555
H20 C29 1_555 1_555
C30 C25 1_555 1_555
H21 C30 1_555 1_555
C31 C32 1_555 1_555
C32 C33 1_555 1_555
C33 H22 1_555 1_555
C34 C33 1_555 1_555
H23 C34 1_555 1_555
C35 N2 1_555 1_555
C36 C35 1_555 1_555
H24 C36 1_555 1_555
C37 C32 1_555 1_555
H25 C37 1_555 1_555
C38 C39 1_555 1_555
C39 C40 1_555 1_555
C40 H26 1_555 1_555
C41 C40 1_555 1_555
H27 C41 1_555 1_555
C42 N2 1_555 1_555
C43 C42 1_555 1_555
H28 C43 1_555 1_555
C44 C39 1_555 1_555
H29 C44 1_555 1_555
C45 H30 1_555 1_555
H31 C45 1_555 1_555
C46 C45 1_555 1_555
H33 C46 1_555 1_555
H34 C46 1_555 1_555
O8 Zn2 1_555 1_555
O9 C24 1_555 1_555
O10 C31 1_555 1_555
O11 Zn2 1_555 1_555
O12 Zn2 1_555 1_555
O13 Zn6 1_555 1_555
O14 Zn1 1_555 1_555
O15 Zn3 1_555 1_555
O16 C38 1_555 1_555
O17 Zn1 1_555 1_555
O18 Zn3 1_555 1_555
O19 Zn4 1_555 1_555
O20 Zn1 1_555 1_555
O21 Zn3 1_555 1_555
O22 Zn3 1_555 1_555
C6 C7 1_555 1_555
C11 C12 1_555 1_555
C13 C14 1_555 1_555
C18 C19 1_555 1_555
C20 C21 1_555 1_555
C24 O8 1_555 1_555
C29 C30 1_555 1_555
C31 O13 1_555 1_555
C34 C35 1_555 1_555
C36 C37 1_555 1_555
C38 O19 1_555 1_555
C41 C42 1_555 1_555
C43 C44 1_555 1_555
C45 O22 1_555 1_555
C22 H13 1_555 1_555
H14 C22 1_555 1_555
C23 C22 1_555 1_555
H16 C23 1_555 1_555
Zn5 O5 1_555 1_555
C22 O7 1_555 1_555
C15_2 C16_2 1_555 1_555
C16_2 C17_2 1_555 1_555
C21_2 C16_2 1_555 1_555
H12_2 C21_2 1_555 1_555
O20 C15_2 1_555 1_555
N2_2 C28_2 1_555 1_555
H19_2 C27_2 1_555 1_555
C28_2 C27_2 1_555 1_555
C29_2 C28_2 1_555 1_555
H20_2 C29_2 1_555 1_555
C31_2 C32_2 1_555 1_555
C32_2 C33_2 1_555 1_555
C33_2 H22_2 1_555 1_555
C34_2 C33_2 1_555 1_555
H23_2 C34_2 1_555 1_555
C35_2 N2_2 1_555 1_555
C36_2 C35_2 1_555 1_555
H24_2 C36_2 1_555 1_555
C37_2 C32_2 1_555 1_555
H25_2 C37_2 1_555 1_555
C41_2 C40_2 1_555 1_555
H27_2 C41_2 1_555 1_555
C42_2 N2_2 1_555 1_555
C43_2 C42_2 1_555 1_555
H28_2 C43_2 1_555 1_555
O12 C31_2 1_555 1_555
C31_2 O14 1_555 1_555
C34_2 C35_2 1_555 1_555
C36_2 C37_2 1_555 1_555
C41_2 C42_2 1_555 1_555
Zn5_2 O5_2 1_555 1_555
Zn4 O9_2 1_555 1_555
C24_2 C25_2 1_555 1_555
C25_2 C26_2 1_555 1_555
C26_2 H18_2 1_555 1_555
C30_2 C25_2 1_555 1_555
H21_2 C30_2 1_555 1_555
C45_2 H30_2 1_555 1_555
H31_2 C45_2 1_555 1_555
C46_2 C45_2 1_555 1_555
H32_2 C46_2 1_555 1_555
H33_2 C46_2 1_555 1_555
H34_2 C46_2 1_555 1_555
O8_2 Zn9 1_555 1_555
O9_2 C24_2 1_555 1_555
O18_2 Zn4 1_555 1_555
O22_2 Zn4 1_555 1_555
C24_2 O8_2 1_555 1_555
C45_2 O22_2 1_555 1_555
N1_2 C5_2 1_555 1_555
H2_2 C4_2 1_555 1_555
C5_2 C4_2 1_555 1_555
C6_2 C5_2 1_555 1_555
H3_2 C6_2 1_555 1_555
C8_2 C9_2 1_555 1_555
C9_2 C10_2 1_555 1_555
C10_2 H5_2 1_555 1_555
C11_2 C10_2 1_555 1_555
H6_2 C11_2 1_555 1_555
C12_2 N1_2 1_555 1_555
C13_2 C12_2 1_555 1_555
H7_2 C13_2 1_555 1_555
C14_2 C9_2 1_555 1_555
H8_2 C14_2 1_555 1_555
C18_2 C17_3 1_555 1_555
C19_2 N1_2 1_555 1_555
C20_2 C19_2 1_555 1_555
H11_2 C20_2 1_555 1_555
O11 C8_2 1_555 1_555
O15 C8_2 1_555 1_555
Zn7_2 O16_2 1_555 1_555
C38_2 C39_2 1_555 1_555
C39_2 C40_3 1_555 1_555
C40_3 H26_2 1_555 1_555
C44_2 C39_2 1_555 1_555
H29_2 C44_2 1_555 1_555
O16_2 C38_2 1_555 1_555
C11_2 C12_2 1_555 1_555
C13_2 C14_2 1_555 1_555
C18_2 C19_2 1_555 1_555
C38_2 O21 1_555 1_555
Zn6 O2_2 1_555 1_555
Zn9_2 O1_2 1_555 1_555
C1_2 C2_2 1_555 1_555
C2_2 C3_2 1_555 1_555
C3_2 H1_2 1_555 1_555
C7_2 C2_2 1_555 1_555
H4_2 C7_2 1_555 1_555
O1_2 C1_2 1_555 1_555
O2_2 C1_2 1_555 1_555
O17_2 Zn6 1_555 1_555
C22_2 H13_2 1_555 1_555
H14_2 C22_2 1_555 1_555
C23_2 C22_2 1_555 1_555
H16_2 C23_2 1_555 1_555
C22_2 O7_2 1_555 1_555
Zn5 O2_3 1_555 1_555
Zn2_2 O1_3 1_555 1_555
N1_3 C5_3 1_555 1_555
C1_3 C2_3 1_555 1_555
C2_3 C3_3 1_555 1_555
C3_3 H1_3 1_555 1_555
C4_3 C3_3 1_555 1_555
H2_3 C4_3 1_555 1_555
C5_3 C4_3 1_555 1_555
C6_3 C5_3 1_555 1_555
H3_3 C6_3 1_555 1_555
C7_3 C2_3 1_555 1_555
H4_3 C7_3 1_555 1_555
C8_3 C9_3 1_555 1_555
C9_3 C10_3 1_555 1_555
C10_3 H5_3 1_555 1_555
C11_3 C10_3 1_555 1_555
H6_3 C11_3 1_555 1_555
C12_3 N1_3 1_555 1_555
C13_3 C12_3 1_555 1_555
H7_3 C13_3 1_555 1_555
C14_3 C9_3 1_555 1_555
H8_3 C14_3 1_555 1_555
C15_3 C16_3 1_555 1_555
C16_3 C17_4 1_555 1_555
C18_3 C17_4 1_555 1_555
C19_3 N1_3 1_555 1_555
C20_3 C19_3 1_555 1_555
H11_3 C20_3 1_555 1_555
C21_3 C16_3 1_555 1_555
H12_3 C21_3 1_555 1_555
O1_3 C1_3 1_555 1_555
O2_3 C1_3 1_555 1_555
O3_2 C8_3 1_555 1_555
O4_2 C8_3 1_555 1_555
O6_2 C15_3 1_555 1_555
Zn7 O9_3 1_555 1_555
Zn7_2 O4_2 1_555 1_555
Zn5_2 O6_2 1_555 1_555
Zn8_2 O3_2 1_555 1_555
Zn8 O10_2 1_555 1_555
N2_3 C28_3 1_555 1_555
C24_3 C25_3 1_555 1_555
C25_3 C26_3 1_555 1_555
C26_3 H18_3 1_555 1_555
C27_3 C26_3 1_555 1_555
H19_3 C27_3 1_555 1_555
C28_3 C27_3 1_555 1_555
C29_3 C28_3 1_555 1_555
H20_3 C29_3 1_555 1_555
C30_3 C25_3 1_555 1_555
H21_3 C30_3 1_555 1_555
C31_3 C32_3 1_555 1_555
C32_3 C33_3 1_555 1_555
C33_3 H22_3 1_555 1_555
C34_3 C33_3 1_555 1_555
H23_3 C34_3 1_555 1_555
C35_3 N2_3 1_555 1_555
C36_3 C35_3 1_555 1_555
H24_3 C36_3 1_555 1_555
C37_3 C32_3 1_555 1_555
H25_3 C37_3 1_555 1_555
C38_3 C39_3 1_555 1_555
C39_3 C40_4 1_555 1_555
C40_4 H26_3 1_555 1_555
C41_3 C40_4 1_555 1_555
H27_3 C41_3 1_555 1_555
C42_3 N2_3 1_555 1_555
C43_3 C42_3 1_555 1_555
H28_3 C43_3 1_555 1_555
C44_3 C39_3 1_555 1_555
H29_3 C44_3 1_555 1_555
C45_3 H30_3 1_555 1_555
H31_3 C45_3 1_555 1_555
C46_3 C45_3 1_555 1_555
H33_3 C46_3 1_555 1_555
H34_3 C46_3 1_555 1_555
O8_3 Zn2_2 1_555 1_555
O9_3 C24_3 1_555 1_555
O10_2 C31_3 1_555 1_555
O11_2 Zn2_2 1_555 1_555
O12_2 Zn2_2 1_555 1_555
O13_2 Zn5_2 1_555 1_555
O14_2 Zn5 1_555 1_555
O15_2 Zn7 1_555 1_555
O18 C38_3 1_555 1_555
O19_2 Zn7_2 1_555 1_555
O20_2 Zn5 1_555 1_555
O21_2 Zn7 1_555 1_555
O22_3 Zn7 1_555 1_555
C6_3 C7_3 1_555 1_555
C11_3 C12_3 1_555 1_555
C13_3 C14_3 1_555 1_555
C18_3 C19_3 1_555 1_555
C20_3 C21_3 1_555 1_555
C24_3 O8_3 1_555 1_555
C29_3 C30_3 1_555 1_555
C31_3 O13_2 1_555 1_555
C34_3 C35_3 1_555 1_555
C36_3 C37_3 1_555 1_555
C38_3 O19_2 1_555 1_555
C41_3 C42_3 1_555 1_555
C43_3 C44_3 1_555 1_555
C45_3 O22_3 1_555 1_555
Zn5_2 O2_4 1_555 1_555
Zn8 O1_4 1_555 1_555
C1_4 C2_4 1_555 1_555
C2_4 C3_4 1_555 1_555
C3_4 H1_4 1_555 1_555
C7_4 C2_4 1_555 1_555
H4_4 C7_4 1_555 1_555
O1_4 C1_4 1_555 1_555
O2_4 C1_4 1_555 1_555
N1_4 C5_4 1_555 1_555
H2_4 C4_4 1_555 1_555
C5_4 C4_4 1_555 1_555
C6_4 C5_4 1_555 1_555
H3_4 C6_4 1_555 1_555
C8_4 C9_4 1_555 1_555
C9_4 C10_4 1_555 1_555
C10_4 H5_4 1_555 1_555
C11_4 C10_4 1_555 1_555
H6_4 C11_4 1_555 1_555
C12_4 N1_4 1_555 1_555
C13_4 C12_4 1_555 1_555
H7_4 C13_4 1_555 1_555
C14_4 C9_4 1_555 1_555
H8_4 C14_4 1_555 1_555
C18_4 C17_5 1_555 1_555
C19_4 N1_4 1_555 1_555
C20_4 C19_4 1_555 1_555
H11_4 C20_4 1_555 1_555
O11_2 C8_4 1_555 1_555
O15_2 C8_4 1_555 1_555
C38_4 C39_4 1_555 1_555
C39_4 C40_5 1_555 1_555
C40_5 H26_4 1_555 1_555
C44_4 C39_4 1_555 1_555
H29_4 C44_4 1_555 1_555
O18_2 C38_4 1_555 1_555
C11_4 C12_4 1_555 1_555
C13_4 C14_4 1_555 1_555
C18_4 C19_4 1_555 1_555
C38_4 O21_2 1_555 1_555
Zn7_2 O9_4 1_555 1_555
C24_4 C25_4 1_555 1_555
C25_4 C26_4 1_555 1_555
C26_4 H18_4 1_555 1_555
C30_4 C25_4 1_555 1_555
H21_4 C30_4 1_555 1_555
C45_4 H30_4 1_555 1_555
H31_4 C45_4 1_555 1_555
C46_4 C45_4 1_555 1_555
H32_4 C46_4 1_555 1_555
H33_4 C46_4 1_555 1_555
H34_4 C46_4 1_555 1_555
O8_4 Zn8_2 1_555 1_555
O9_4 C24_4 1_555 1_555
O22_4 Zn7_2 1_555 1_555
C24_4 O8_4 1_555 1_555
C45_4 O22_4 1_555 1_555
C15_4 C16_4 1_555 1_555
C16_4 C17_6 1_555 1_555
C21_4 C16_4 1_555 1_555
H12_4 C21_4 1_555 1_555
O20_2 C15_4 1_555 1_555
N2_4 C28_4 1_555 1_555
H19_4 C27_4 1_555 1_555
C28_4 C27_4 1_555 1_555
C29_4 C28_4 1_555 1_555
H20_4 C29_4 1_555 1_555
C31_4 C32_4 1_555 1_555
C32_4 C33_4 1_555 1_555
C33_4 H22_4 1_555 1_555
C34_4 C33_4 1_555 1_555
H23_4 C34_4 1_555 1_555
C35_4 N2_4 1_555 1_555
C36_4 C35_4 1_555 1_555
H24_4 C36_4 1_555 1_555
C37_4 C32_4 1_555 1_555
H25_4 C37_4 1_555 1_555
C41_4 C40_6 1_555 1_555
H27_4 C41_4 1_555 1_555
C42_4 N2_4 1_555 1_555
C43_4 C42_4 1_555 1_555
H28_4 C43_4 1_555 1_555
O12_2 C31_4 1_555 1_555
C31_4 O14_2 1_555 1_555
C34_4 C35_4 1_555 1_555
C36_4 C37_4 1_555 1_555
C41_4 C42_4 1_555 1_555
C22_3 H13_3 1_555 1_555
H14_3 C22_3 1_555 1_555
C23_3 C22_3 1_555 1_555
H15_2 C23_3 1_555 1_555
H16_3 C23_3 1_555 1_555
C22_3 O7_3 1_555 1_555
C22_4 H13_4 1_555 1_555
H14_4 C22_4 1_555 1_555
C23_4 C22_4 1_555 1_555
H15_4 C23_4 1_555 1_555
H16_4 C23_4 1_555 1_555
C22_4 O7_4 1_555 1_555

#END
