
###############################################################################
#
# This file contains modified crystal structure data generated from the
# MOF subset of the Cambridge Structural Database (CSD) v543 
# hosted by the Cambridge Crystallographic Data Centre (CCDC).
#
# This work is licensed under the Creative Commons
# Attribution-NonCommercial-ShareAlike 4.0 International License.
# To view a copy of this license, visit
# http://creativecommons.org/licenses/by-nc-sa/4.0/
# or send a letter to
# Creative Commons, PO Box 1866, Mountain View, CA 94042, USA.
#
# CIF created using the CSD Python API on 29 September 2022
# The structure has been converted into the P1 space group
# The structure has a 3D framework
# The original CSD entry PIDMEV is in the monoclinic crystal system
# The framework has been calculated to contain at least 10.0% void space
# The void calculation uses a probe of radius 1.32A, grid spacing 0.4
#
###############################################################################

data_PIDMEV
_chemical_formula_moiety         '(C184 H136 N8 O52 Zn14)n'
_symmetry_cell_setting           triclinic
_symmetry_space_group_name_H-M   'P 1'
_symmetry_Int_Tables_number      1
_space_group_name_Hall           'P 1'
loop_
_symmetry_equiv_pos_site_id
_symmetry_equiv_pos_as_xyz
1 x,y,z
_cell_length_a                   15.7334(5)
_cell_length_b                   25.0527(9)
_cell_length_c                   16.8171(4)
_cell_angle_alpha                90
_cell_angle_beta                 113.526(2)
_cell_angle_gamma                90
_cell_volume                     6077.71
loop_
_atom_site_label
_atom_site_type_symbol
_atom_site_fract_x
_atom_site_fract_y
_atom_site_fract_z
Zn2 Zn -0.0000 0.32908(2) 0.2500
O6 O 0.1550(2) 0.77180(17) 0.0742(3)
C15 C 0.1228(3) 0.7289(2) 0.0365(3)
C16 C 0.0439(3) 0.70450(17) 0.0510(3)
C17 C 0.0014(3) 0.65918(17) 0.0067(3)
C21 C 0.0112(3) 0.72757(19) 0.1087(3)
H12 H 0.0370 0.7594 0.1362
Zn3 Zn 0.23612(4) 0.30516(2) 0.43109(4)
Zn6 Zn 0.26388(4) 0.80516(2) 0.06891(4)
Zn9 Zn 0.5000 0.82908(2) 0.2500
N2 N 0.1673(2) 0.62984(13) 0.3964(2)
O8 O 0.0702(2) 0.38270(12) 0.3374(2)
O9 O 0.2236(2) 0.37696(12) 0.3819(2)
O10 O 0.4297(2) 0.79127(12) 0.3053(2)
O11 O 0.0703(2) 0.29127(12) 0.1947(2)
O13 O 0.3527(2) 0.75756(13) 0.1753(2)
O15 O 0.1473(2) 0.25756(13) 0.3247(2)
O18 O 0.1555(3) 0.29637(18) 0.4916(3)
O21 O 0.3450(2) 0.27180(17) 0.4258(3)
C24 C 0.1494(3) 0.40331(16) 0.3612(3)
C25 C 0.1555(3) 0.46265(15) 0.3681(3)
C26 C 0.0759(3) 0.49218(16) 0.3519(3)
H18 H 0.0193 0.4747 0.3351
C27 C 0.0789(3) 0.54621(16) 0.3599(3)
H19 H 0.0244 0.5651 0.3483
C28 C 0.1625(3) 0.57374(15) 0.3853(3)
C29 C 0.2433(3) 0.54461(17) 0.4007(3)
H20 H 0.2999 0.5621 0.4171
C30 C 0.2387(3) 0.48918(16) 0.3914(3)
H21 H 0.2924 0.4699 0.4011
C31 C 0.3702(3) 0.76039(16) 0.2546(3)
C32 C 0.3209(3) 0.72432(15) 0.2938(3)
C33 C 0.3280(3) 0.73205(17) 0.3774(3)
H22 H 0.3668 0.7587 0.4112
C34 C 0.2787(3) 0.70090(16) 0.4119(3)
H23 H 0.2834 0.7070 0.4680
C35 C 0.2221(3) 0.66044(15) 0.3624(3)
C36 C 0.2165(3) 0.65153(18) 0.2789(3)
H24 H 0.1799 0.6239 0.2458
C37 C 0.2648(3) 0.68333(17) 0.2452(3)
H25 H 0.2599 0.6774 0.1889
C41 C 0.0703(3) 0.63550(16) 0.4783(3)
H27 H 0.0997 0.6055 0.5098
C42 C 0.0984(3) 0.65653(15) 0.4162(3)
C43 C 0.0592(3) 0.70374(17) 0.3745(3)
H28 H 0.0802 0.7193 0.3354
O22 O 0.3335(4) 0.3397(3) 0.5598(3)
C45 C 0.4306(9) 0.3501(7) 0.5971(9)
H30 H 0.4422 0.3727 0.6472
H31 H 0.4610 0.3163 0.6191
C46 C 0.4716(17) 0.3704(9) 0.5561(17)
H32 H 0.4273 0.3836 0.5017
H33 H 0.5103 0.3442 0.5455
H34 H 0.5092 0.3994 0.5888
O5 O 0.1555(3) 0.70363(18) 0.9916(3)
H9 H 0.0210 0.6443 0.9663
Zn5 Zn 0.23612(4) 0.69484(2) 0.93109(4)
Zn1 Zn 0.76388(4) 0.30516(2) 0.06891(4)
Zn2_2 Zn 1.0000 0.32908(2) 0.2500
N1 N 0.8327(2) 0.62984(13) 0.1036(2)
O1 O 0.9298(2) 0.38270(12) 0.1626(2)
O2 O 0.7764(2) 0.37696(12) 0.1181(2)
O3 O 0.5703(2) 0.79127(12) 0.1947(2)
O4 O 0.6473(2) 0.75756(13) 0.3247(2)
C1 C 0.8506(3) 0.40331(16) 0.1388(3)
C2 C 0.8445(3) 0.46265(15) 0.1319(3)
C3 C 0.9241(3) 0.49218(16) 0.1481(3)
H1 H 0.9807 0.4747 0.1649
C4 C 0.9211(3) 0.54621(16) 0.1401(3)
H2 H 0.9756 0.5651 0.1517
C5 C 0.8375(3) 0.57374(15) 0.1147(3)
C6 C 0.7567(3) 0.54461(17) 0.0993(3)
H3 H 0.7001 0.5621 0.0829
C7 C 0.7613(3) 0.48918(16) 0.1086(3)
H4 H 0.7076 0.4699 0.0989
C8 C 0.6298(3) 0.76039(16) 0.2454(3)
C9 C 0.6791(3) 0.72432(15) 0.2062(3)
C10 C 0.6720(3) 0.73205(17) 0.1226(3)
H5 H 0.6332 0.7587 0.0888
C11 C 0.7213(3) 0.70090(16) 0.0881(3)
H6 H 0.7166 0.7070 0.0320
C12 C 0.7779(3) 0.66044(15) 0.1376(3)
C13 C 0.7835(3) 0.65153(18) 0.2211(3)
H7 H 0.8201 0.6239 0.2542
C14 C 0.7352(3) 0.68333(17) 0.2548(3)
H8 H 0.7401 0.6774 0.3111
C18 C 0.9297(3) 0.63550(16) 0.0217(3)
C19 C 0.9016(3) 0.65653(15) 0.0838(3)
C20 C 0.9408(3) 0.70374(17) 0.1255(3)
H11 H 0.9198 0.7193 0.1646
Zn4 Zn 0.73612(4) 0.80516(2) 0.43109(4)
Zn7 Zn 0.76388(4) 0.69484(2) 0.56891(4)
O12 O 0.9297(2) 0.29127(12) 0.3053(2)
O14 O 0.8527(2) 0.25756(13) 0.1753(2)
O16 O 0.8445(3) 0.70363(18) 0.5084(3)
O17 O 0.8445(3) 0.29637(18) 0.0084(3)
O19 O 0.8450(2) 0.77180(17) 0.4258(3)
O20 O 0.6550(2) 0.27180(17) 0.0742(3)
C38 C 0.8772(3) 0.7289(2) 0.4635(3)
C39 C 0.9561(3) 0.70450(17) 0.4490(3)
C40 C 0.9986(3) 0.65918(17) 0.4933(3)
H26 H 0.9790 0.6443 0.5337
C44 C 0.9888(3) 0.72757(19) 0.3913(3)
H29 H 0.9630 0.7594 0.3638
N1_2 N 0.3327(2) 0.12984(13) 0.1036(2)
C4_2 C 0.4211(3) 0.04621(16) 0.1401(3)
H2_2 H 0.4756 0.0651 0.1517
C5_2 C 0.3375(3) 0.07374(15) 0.1147(3)
C6_2 C 0.2567(3) 0.04461(17) 0.0993(3)
H3_2 H 0.2001 0.0621 0.0829
C8_2 C 0.1298(3) 0.26039(16) 0.2454(3)
C9_2 C 0.1791(3) 0.22432(15) 0.2062(3)
C10_2 C 0.1720(3) 0.23205(17) 0.1226(3)
H5_2 H 0.1332 0.2587 0.0888
C11_2 C 0.2213(3) 0.20090(16) 0.0881(3)
H6_2 H 0.2166 0.2070 0.0320
C12_2 C 0.2779(3) 0.16044(15) 0.1376(3)
C13_2 C 0.2835(3) 0.15153(18) 0.2211(3)
H7_2 H 0.3201 0.1239 0.2542
C14_2 C 0.2352(3) 0.18333(17) 0.2548(3)
H8_2 H 0.2401 0.1774 0.3111
C15_2 C 0.6228(3) 0.2289(2) 0.0365(3)
C16_2 C 0.5439(3) 0.20450(17) 0.0510(3)
C17_2 C 0.5014(3) 0.15918(17) 0.0067(3)
C18_2 C 0.4297(3) 0.13550(16) 0.0217(3)
C19_2 C 0.4016(3) 0.15653(15) 0.0838(3)
C20_2 C 0.4408(3) 0.20374(17) 0.1255(3)
H11_2 H 0.4198 0.2193 0.1646
C21_2 C 0.5112(3) 0.22757(19) 0.1087(3)
H12_2 H 0.5370 0.2594 0.1362
Zn7_2 Zn 0.26388(4) 0.19484(2) 0.56891(4)
N2_2 N 0.6673(2) 0.12984(13) 0.3964(2)
O16_2 O 0.3445(3) 0.20363(18) 0.5084(3)
C27_2 C 0.5789(3) 0.04621(16) 0.3599(3)
H19_2 H 0.5244 0.0651 0.3483
C28_2 C 0.6625(3) 0.07374(15) 0.3853(3)
C29_2 C 0.7433(3) 0.04461(17) 0.4007(3)
H20_2 H 0.7999 0.0621 0.4171
C31_2 C 0.8702(3) 0.26039(16) 0.2546(3)
C32_2 C 0.8209(3) 0.22432(15) 0.2938(3)
C33_2 C 0.8280(3) 0.23205(17) 0.3774(3)
H22_2 H 0.8668 0.2587 0.4112
C34_2 C 0.7787(3) 0.20090(16) 0.4119(3)
H23_2 H 0.7834 0.2070 0.4680
C35_2 C 0.7221(3) 0.16044(15) 0.3624(3)
C36_2 C 0.7165(3) 0.15153(18) 0.2789(3)
H24_2 H 0.6799 0.1239 0.2458
C37_2 C 0.7648(3) 0.18333(17) 0.2452(3)
H25_2 H 0.7599 0.1774 0.1889
C38_2 C 0.3772(3) 0.2289(2) 0.4635(3)
C39_2 C 0.4561(3) 0.20450(17) 0.4490(3)
C40_2 C 0.4986(3) 0.15918(17) 0.4933(3)
H26_2 H 0.4790 0.1443 0.5337
C41_2 C 0.5703(3) 0.13550(16) 0.4783(3)
H27_2 H 0.5997 0.1055 0.5098
C42_2 C 0.5984(3) 0.15653(15) 0.4162(3)
C43_2 C 0.5592(3) 0.20374(17) 0.3745(3)
H28_2 H 0.5802 0.2193 0.3354
C44_2 C 0.4888(3) 0.22757(19) 0.3913(3)
H29_2 H 0.4630 0.2594 0.3638
O5_2 O 0.6555(3) 0.20363(18) 0.9916(3)
H9_2 H 0.5210 0.1443 0.9663
H10 H 0.4003 0.1055 0.9902
Zn5_2 Zn 0.73612(4) 0.19484(2) 0.93109(4)
O1_2 O 0.4298(2) 0.88270(12) 0.1626(2)
O2_2 O 0.2764(2) 0.87696(12) 0.1181(2)
C1_2 C 0.3506(3) 0.90331(16) 0.1388(3)
C2_2 C 0.3445(3) 0.96265(15) 0.1319(3)
C3_2 C 0.4241(3) 0.99218(16) 0.1481(3)
H1_2 H 0.4807 0.9747 0.1649
C7_2 C 0.2613(3) 0.98918(16) 0.1086(3)
H4_2 H 0.2076 0.9699 0.0989
O8_2 O 0.5702(2) 0.88270(12) 0.3374(2)
O9_2 O 0.7236(2) 0.87696(12) 0.3819(2)
O17_2 O 0.3445(3) 0.79637(18) 0.0084(3)
O18_2 O 0.6555(3) 0.79637(18) 0.4916(3)
C24_2 C 0.6494(3) 0.90331(16) 0.3612(3)
C25_2 C 0.6555(3) 0.96265(15) 0.3681(3)
C26_2 C 0.5759(3) 0.99218(16) 0.3519(3)
H18_2 H 0.5193 0.9747 0.3351
C30_2 C 0.7387(3) 0.98918(16) 0.3914(3)
H21_2 H 0.7924 0.9699 0.4011
O22_2 O 0.8335(4) 0.8397(3) 0.5598(3)
C45_2 C 0.9306(9) 0.8501(7) 0.5971(9)
H30_2 H 0.9422 0.8727 0.6472
H31_2 H 0.9610 0.8163 0.6191
C46_2 C 0.9716(17) 0.8704(9) 0.5561(17)
H32_2 H 0.9273 0.8836 0.5017
Zn2_3 Zn -0.0000 0.67092(2) 0.7500
N1_3 N 0.1673(2) 0.37016(13) 0.8964(2)
O1_3 O 0.0702(2) 0.61730(12) 0.8374(2)
O2_3 O 0.2236(2) 0.62304(12) 0.8819(2)
O3_2 O 0.4297(2) 0.20873(12) 0.8053(2)
O4_2 O 0.3527(2) 0.24244(13) 0.6753(2)
C1_3 C 0.1494(3) 0.59669(16) 0.8612(3)
C2_3 C 0.1555(3) 0.53735(15) 0.8681(3)
C3_3 C 0.0759(3) 0.50782(16) 0.8519(3)
H1_3 H 0.0193 0.5253 0.8351
C4_3 C 0.0789(3) 0.45379(16) 0.8599(3)
H2_3 H 0.0244 0.4349 0.8483
C5_3 C 0.1625(3) 0.42626(15) 0.8853(3)
C6_3 C 0.2433(3) 0.45539(17) 0.9007(3)
H3_3 H 0.2999 0.4379 0.9171
C7_3 C 0.2387(3) 0.51082(16) 0.8914(3)
H4_3 H 0.2924 0.5301 0.9011
C8_3 C 0.3702(3) 0.23961(16) 0.7546(3)
C9_3 C 0.3209(3) 0.27568(15) 0.7938(3)
C10_3 C 0.3280(3) 0.26795(17) 0.8774(3)
H5_3 H 0.3668 0.2413 0.9112
C11_3 C 0.2787(3) 0.29910(16) 0.9119(3)
H6_3 H 0.2834 0.2930 0.9680
C12_3 C 0.2221(3) 0.33956(15) 0.8624(3)
C13_3 C 0.2165(3) 0.34847(18) 0.7789(3)
H7_3 H 0.1799 0.3761 0.7458
C14_3 C 0.2648(3) 0.31667(17) 0.7452(3)
H8_3 H 0.2599 0.3226 0.6889
C18_3 C 0.0703(3) 0.36450(16) 0.9783(3)
C19_3 C 0.0984(3) 0.34347(15) 0.9162(3)
C20_3 C 0.0592(3) 0.29626(17) 0.8745(3)
H11_3 H 0.0802 0.2807 0.8354
Zn8 Zn 0.5000 0.17092(2) 0.7500
O12_2 O 0.0703(2) 0.70873(12) 0.6947(2)
O14_2 O 0.1473(2) 0.74244(13) 0.8247(2)
O19_2 O 0.1550(2) 0.22820(17) 0.5742(3)
O20_2 O 0.3450(2) 0.72820(17) 0.9258(3)
C38_3 C 0.1228(3) 0.2711(2) 0.5365(3)
C39_3 C 0.0439(3) 0.29550(17) 0.5510(3)
C40_3 C 0.0014(3) 0.34082(17) 0.5067(3)
H26_3 H 0.0210 0.3557 0.4663
C44_3 C 0.0112(3) 0.27243(19) 0.6087(3)
H29_3 H 0.0370 0.2406 0.6362
H9_3 H 0.9790 0.3557 0.0337
Zn2_4 Zn 1.0000 0.67092(2) 0.7500
O6_2 O 0.8450(2) 0.22820(17) 0.9258(3)
C15_3 C 0.8772(3) 0.2711(2) 0.9635(3)
C16_3 C 0.9561(3) 0.29550(17) 0.9490(3)
C17_3 C 0.9986(3) 0.34082(17) 0.9933(3)
C21_3 C 0.9888(3) 0.27243(19) 0.8913(3)
H12_3 H 0.9630 0.2406 0.8638
N2_3 N 0.8327(2) 0.37016(13) 0.6036(2)
O8_3 O 0.9298(2) 0.61730(12) 0.6626(2)
O9_3 O 0.7764(2) 0.62304(12) 0.6181(2)
O10_2 O 0.5703(2) 0.20873(12) 0.6947(2)
O11_2 O 0.9297(2) 0.70873(12) 0.8053(2)
O13_2 O 0.6473(2) 0.24244(13) 0.8247(2)
O15_2 O 0.8527(2) 0.74244(13) 0.6753(2)
O21_2 O 0.6550(2) 0.72820(17) 0.5742(3)
C24_3 C 0.8506(3) 0.59669(16) 0.6388(3)
C25_3 C 0.8445(3) 0.53735(15) 0.6319(3)
C26_3 C 0.9241(3) 0.50782(16) 0.6481(3)
H18_3 H 0.9807 0.5253 0.6649
C27_3 C 0.9211(3) 0.45379(16) 0.6401(3)
H19_3 H 0.9756 0.4349 0.6517
C28_3 C 0.8375(3) 0.42626(15) 0.6147(3)
C29_3 C 0.7567(3) 0.45539(17) 0.5993(3)
H20_3 H 0.7001 0.4379 0.5829
C30_3 C 0.7613(3) 0.51082(16) 0.6086(3)
H21_3 H 0.7076 0.5301 0.5989
C31_3 C 0.6298(3) 0.23961(16) 0.7454(3)
C32_3 C 0.6791(3) 0.27568(15) 0.7062(3)
C33_3 C 0.6720(3) 0.26795(17) 0.6226(3)
H22_3 H 0.6332 0.2413 0.5888
C34_3 C 0.7213(3) 0.29910(16) 0.5881(3)
H23_3 H 0.7166 0.2930 0.5320
C35_3 C 0.7779(3) 0.33956(15) 0.6376(3)
C36_3 C 0.7835(3) 0.34847(18) 0.7211(3)
H24_3 H 0.8201 0.3761 0.7542
C37_3 C 0.7352(3) 0.31667(17) 0.7548(3)
H25_3 H 0.7401 0.3226 0.8111
C41_3 C 0.9297(3) 0.36450(16) 0.5217(3)
H27_3 H 0.9003 0.3945 0.4902
C42_3 C 0.9016(3) 0.34347(15) 0.5838(3)
C43_3 C 0.9408(3) 0.29626(17) 0.6255(3)
H28_3 H 0.9198 0.2807 0.6646
O22_3 O 0.6665(4) 0.6603(3) 0.4402(3)
C45_3 C 0.5694(9) 0.6499(7) 0.4029(9)
H30_3 H 0.5578 0.6273 0.3528
H31_3 H 0.5390 0.6837 0.3809
C46_3 C 0.5284(17) 0.6296(9) 0.4439(17)
H32_3 H 0.5727 0.6164 0.4983
H33_2 H 0.4897 0.6558 0.4545
H34_2 H 0.4908 0.6006 0.4112
O1_4 O 0.5702(2) 0.11730(12) 0.8374(2)
O2_4 O 0.7236(2) 0.12304(12) 0.8819(2)
C1_4 C 0.6494(3) 0.09669(16) 0.8612(3)
C2_4 C 0.6555(3) 0.03735(15) 0.8681(3)
C3_4 C 0.5759(3) 0.00782(16) 0.8519(3)
H1_4 H 0.5193 0.0253 0.8351
C7_4 C 0.7387(3) 0.01082(16) 0.8914(3)
H4_4 H 0.7924 0.0301 0.9011
O8_4 O 0.4298(2) 0.11730(12) 0.6626(2)
O9_4 O 0.2764(2) 0.12304(12) 0.6181(2)
C24_4 C 0.3506(3) 0.09669(16) 0.6388(3)
C25_4 C 0.3445(3) 0.03735(15) 0.6319(3)
C26_4 C 0.4241(3) 0.00782(16) 0.6481(3)
H18_4 H 0.4807 0.0253 0.6649
C30_4 C 0.2613(3) 0.01082(16) 0.6086(3)
H21_4 H 0.2076 0.0301 0.5989
O22_4 O 0.1665(4) 0.1603(3) 0.4402(3)
C45_4 C 0.0694(9) 0.1499(7) 0.4029(9)
H30_4 H 0.0578 0.1273 0.3528
H31_4 H 0.0390 0.1837 0.3809
C46_4 C 0.0284(17) 0.1296(9) 0.4439(17)
H32_4 H 0.0727 0.1164 0.4983
H9_4 H 0.4790 0.8557 0.0337
H10_2 H 0.5997 0.8945 0.0098
N1_4 N 0.6673(2) 0.87016(13) 0.8964(2)
C4_4 C 0.5789(3) 0.95379(16) 0.8599(3)
H2_4 H 0.5244 0.9349 0.8483
C5_4 C 0.6625(3) 0.92626(15) 0.8853(3)
C6_4 C 0.7433(3) 0.95539(17) 0.9007(3)
H3_4 H 0.7999 0.9379 0.9171
C8_4 C 0.8702(3) 0.73961(16) 0.7546(3)
C9_4 C 0.8209(3) 0.77568(15) 0.7938(3)
C10_4 C 0.8280(3) 0.76795(17) 0.8774(3)
H5_4 H 0.8668 0.7413 0.9112
C11_4 C 0.7787(3) 0.79910(16) 0.9119(3)
H6_4 H 0.7834 0.7930 0.9680
C12_4 C 0.7221(3) 0.83956(15) 0.8624(3)
C13_4 C 0.7165(3) 0.84847(18) 0.7789(3)
H7_4 H 0.6799 0.8761 0.7458
C14_4 C 0.7648(3) 0.81667(17) 0.7452(3)
H8_4 H 0.7599 0.8226 0.6889
C15_4 C 0.3772(3) 0.7711(2) 0.9635(3)
C16_4 C 0.4561(3) 0.79550(17) 0.9490(3)
C17_4 C 0.4986(3) 0.84082(17) 0.9933(3)
C18_4 C 0.5703(3) 0.86450(16) 0.9783(3)
C19_4 C 0.5984(3) 0.84347(15) 0.9162(3)
C20_4 C 0.5592(3) 0.79626(17) 0.8745(3)
H11_4 H 0.5802 0.7807 0.8354
C21_4 C 0.4888(3) 0.77243(19) 0.8913(3)
H12_4 H 0.4630 0.7406 0.8638
N2_4 N 0.3327(2) 0.87016(13) 0.6036(2)
C27_4 C 0.4211(3) 0.95379(16) 0.6401(3)
H19_4 H 0.4756 0.9349 0.6517
C28_4 C 0.3375(3) 0.92626(15) 0.6147(3)
C29_4 C 0.2567(3) 0.95539(17) 0.5993(3)
H20_4 H 0.2001 0.9379 0.5829
C31_4 C 0.1298(3) 0.73961(16) 0.7454(3)
C32_4 C 0.1791(3) 0.77568(15) 0.7062(3)
C33_4 C 0.1720(3) 0.76795(17) 0.6226(3)
H22_4 H 0.1332 0.7413 0.5888
C34_4 C 0.2213(3) 0.79910(16) 0.5881(3)
H23_4 H 0.2166 0.7930 0.5320
C35_4 C 0.2779(3) 0.83956(15) 0.6376(3)
C36_4 C 0.2835(3) 0.84847(18) 0.7211(3)
H24_4 H 0.3201 0.8761 0.7542
C37_4 C 0.2352(3) 0.81667(17) 0.7548(3)
H25_4 H 0.2401 0.8226 0.8111
C38_4 C 0.6228(3) 0.7711(2) 0.5365(3)
C39_4 C 0.5439(3) 0.79550(17) 0.5510(3)
C40_4 C 0.5014(3) 0.84082(17) 0.5067(3)
H26_4 H 0.5210 0.8557 0.4663
C41_4 C 0.4297(3) 0.86450(16) 0.5217(3)
H27_4 H 0.4003 0.8945 0.4902
C42_4 C 0.4016(3) 0.84347(15) 0.5838(3)
C43_4 C 0.4408(3) 0.79626(17) 0.6255(3)
H28_4 H 0.4198 0.7807 0.6646
C44_4 C 0.5112(3) 0.77243(19) 0.6087(3)
H29_4 H 0.5370 0.7406 0.6362
H10_3 H 0.9003 0.6055 0.9902
O7 O 0.6665(4) 0.3397(3) 0.9402(3)
C22 C 0.5694(9) 0.3501(7) 0.9029(9)
H13 H 0.5578 0.3727 0.8528
H14 H 0.5390 0.3163 0.8809
C23 C 0.5284(17) 0.3704(9) 0.9439(17)
H15 H 0.5727 0.3836 0.9983
H16 H 0.4897 0.3442 0.9545
H17 H 0.4908 0.3994 0.9112
H33_3 H 0.0103 0.8442 0.5455
H34_3 H 0.0092 0.8994 0.5888
O7_2 O 0.1665(4) 0.8397(3) 0.9402(3)
C22_2 C 0.0694(9) 0.8501(7) 0.9029(9)
H13_2 H 0.0578 0.8727 0.8528
H14_2 H 0.0390 0.8163 0.8809
C23_2 C 0.0284(17) 0.8704(9) 0.9439(17)
H15_2 H 0.0727 0.8836 0.9983
H16_2 H 0.9897 0.8442 0.9545
H17_2 H 0.9908 0.8994 0.9112
H10_4 H 0.0997 0.3945 0.0098
O7_3 O 0.3335(4) 0.6603(3) 0.0598(3)
C22_3 C 0.4306(9) 0.6499(7) 0.0971(9)
H13_3 H 0.4422 0.6273 0.1472
H14_3 H 0.4610 0.6837 0.1191
C23_3 C 0.4716(17) 0.6296(9) 0.0561(17)
H15_3 H 0.4273 0.6164 0.0017
H16_3 H 0.5103 0.6558 0.0455
H17_3 H 0.5092 0.6006 0.0888
H16_4 H 0.0103 0.1558 0.0455
H17_4 H 0.0092 0.1006 0.0888
O7_4 O 0.8335(4) 0.1603(3) 0.0598(3)
C22_4 C 0.9306(9) 0.1499(7) 0.0971(9)
H13_4 H 0.9422 0.1273 0.1472
H14_4 H 0.9610 0.1837 0.1191
C23_4 C 0.9716(17) 0.1296(9) 0.0561(17)
H15_4 H 0.9273 0.1164 0.0017
H33_4 H 0.9897 0.1558 0.4545
H34_4 H 0.9908 0.1006 0.4112
loop_
_geom_bond_atom_site_label_1
_geom_bond_atom_site_label_2
_geom_bond_site_symmetry_1
_geom_bond_site_symmetry_2
O6 C15 1_555 1_555
C15 C16 1_555 1_555
C16 C17 1_555 1_555
C21 C16 1_555 1_555
H12 C21 1_555 1_555
Zn3 O9 1_555 1_555
Zn6 O6 1_555 1_555
Zn9 O10 1_555 1_555
N2 C28 1_555 1_555
O8 Zn2 1_555 1_555
O9 C24 1_555 1_555
O10 C31 1_555 1_555
O11 Zn2 1_555 1_555
O13 Zn6 1_555 1_555
O15 Zn3 1_555 1_555
O18 Zn3 1_555 1_555
O21 Zn3 1_555 1_555
C24 O8 1_555 1_555
C25 C24 1_555 1_555
C26 C25 1_555 1_555
H18 C26 1_555 1_555
C27 C26 1_555 1_555
H19 C27 1_555 1_555
C28 C27 1_555 1_555
C29 C28 1_555 1_555
H20 C29 1_555 1_555
C30 C25 1_555 1_555
H21 C30 1_555 1_555
C31 O13 1_555 1_555
C32 C31 1_555 1_555
C33 C32 1_555 1_555
H22 C33 1_555 1_555
C34 C33 1_555 1_555
H23 C34 1_555 1_555
C35 N2 1_555 1_555
C36 C35 1_555 1_555
H24 C36 1_555 1_555
C37 C32 1_555 1_555
H25 C37 1_555 1_555
H27 C41 1_555 1_555
C42 N2 1_555 1_555
C43 C42 1_555 1_555
H28 C43 1_555 1_555
O22 Zn3 1_555 1_555
C45 O22 1_555 1_555
H30 C45 1_555 1_555
H31 C45 1_555 1_555
C46 C45 1_555 1_555
H32 C46 1_555 1_555
H33 C46 1_555 1_555
H34 C46 1_555 1_555
C29 C30 1_555 1_555
C34 C35 1_555 1_555
C36 C37 1_555 1_555
C41 C42 1_555 1_555
Zn5 O5 1_555 1_555
Zn1 O2 1_555 1_555
Zn2_2 O1 1_555 1_555
N1 C5 1_555 1_555
O1 C1 1_555 1_555
O2 C1 1_555 1_555
O3 C8 1_555 1_555
O4 C8 1_555 1_555
C1 C2 1_555 1_555
C2 C3 1_555 1_555
C3 H1 1_555 1_555
C4 C3 1_555 1_555
H2 C4 1_555 1_555
C5 C4 1_555 1_555
C6 C5 1_555 1_555
H3 C6 1_555 1_555
C7 C2 1_555 1_555
H4 C7 1_555 1_555
C8 C9 1_555 1_555
C9 C10 1_555 1_555
C10 H5 1_555 1_555
C11 C10 1_555 1_555
H6 C11 1_555 1_555
C12 N1 1_555 1_555
C13 C12 1_555 1_555
H7 C13 1_555 1_555
C14 C9 1_555 1_555
H8 C14 1_555 1_555
C19 N1 1_555 1_555
C20 C19 1_555 1_555
H11 C20 1_555 1_555
Zn4 O4 1_555 1_555
Zn7 O16 1_555 1_555
Zn9 O3 1_555 1_555
O12 Zn2_2 1_555 1_555
O14 Zn1 1_555 1_555
O16 C38 1_555 1_555
O17 Zn1 1_555 1_555
O19 Zn4 1_555 1_555
O20 Zn1 1_555 1_555
C38 O19 1_555 1_555
C39 C38 1_555 1_555
C40 C39 1_555 1_555
H26 C40 1_555 1_555
C44 C39 1_555 1_555
H29 C44 1_555 1_555
C6 C7 1_555 1_555
C11 C12 1_555 1_555
C13 C14 1_555 1_555
C18 C19 1_555 1_555
N1_2 C5_2 1_555 1_555
O11 C8_2 1_555 1_555
O15 C8_2 1_555 1_555
O20 C15_2 1_555 1_555
H2_2 C4_2 1_555 1_555
C5_2 C4_2 1_555 1_555
C6_2 C5_2 1_555 1_555
H3_2 C6_2 1_555 1_555
C8_2 C9_2 1_555 1_555
C9_2 C10_2 1_555 1_555
C10_2 H5_2 1_555 1_555
C11_2 C10_2 1_555 1_555
H6_2 C11_2 1_555 1_555
C12_2 N1_2 1_555 1_555
C13_2 C12_2 1_555 1_555
H7_2 C13_2 1_555 1_555
C14_2 C9_2 1_555 1_555
H8_2 C14_2 1_555 1_555
C15_2 C16_2 1_555 1_555
C16_2 C17_2 1_555 1_555
C18_2 C17_2 1_555 1_555
C19_2 N1_2 1_555 1_555
C20_2 C19_2 1_555 1_555
H11_2 C20_2 1_555 1_555
C21_2 C16_2 1_555 1_555
H12_2 C21_2 1_555 1_555
Zn7_2 O16_2 1_555 1_555
N2_2 C28_2 1_555 1_555
O12 C31_2 1_555 1_555
O16_2 C38_2 1_555 1_555
H19_2 C27_2 1_555 1_555
C28_2 C27_2 1_555 1_555
C29_2 C28_2 1_555 1_555
H20_2 C29_2 1_555 1_555
C31_2 O14 1_555 1_555
C32_2 C31_2 1_555 1_555
C33_2 C32_2 1_555 1_555
H22_2 C33_2 1_555 1_555
C34_2 C33_2 1_555 1_555
H23_2 C34_2 1_555 1_555
C35_2 N2_2 1_555 1_555
C36_2 C35_2 1_555 1_555
H24_2 C36_2 1_555 1_555
C37_2 C32_2 1_555 1_555
H25_2 C37_2 1_555 1_555
C38_2 O21 1_555 1_555
C39_2 C38_2 1_555 1_555
C40_2 C39_2 1_555 1_555
H26_2 C40_2 1_555 1_555
C41_2 C40_2 1_555 1_555
H27_2 C41_2 1_555 1_555
C42_2 N2_2 1_555 1_555
C43_2 C42_2 1_555 1_555
H28_2 C43_2 1_555 1_555
C44_2 C39_2 1_555 1_555
H29_2 C44_2 1_555 1_555
C11_2 C12_2 1_555 1_555
C13_2 C14_2 1_555 1_555
C18_2 C19_2 1_555 1_555
C20_2 C21_2 1_555 1_555
C34_2 C35_2 1_555 1_555
C36_2 C37_2 1_555 1_555
C41_2 C42_2 1_555 1_555
C43_2 C44_2 1_555 1_555
Zn5_2 O5_2 1_555 1_555
Zn6 O2_2 1_555 1_555
Zn9 O1_2 1_555 1_555
O1_2 C1_2 1_555 1_555
O2_2 C1_2 1_555 1_555
C1_2 C2_2 1_555 1_555
C2_2 C3_2 1_555 1_555
C3_2 H1_2 1_555 1_555
C7_2 C2_2 1_555 1_555
H4_2 C7_2 1_555 1_555
Zn4 O9_2 1_555 1_555
O8_2 Zn9 1_555 1_555
O9_2 C24_2 1_555 1_555
O17_2 Zn6 1_555 1_555
O18_2 Zn4 1_555 1_555
C24_2 O8_2 1_555 1_555
C25_2 C24_2 1_555 1_555
C26_2 C25_2 1_555 1_555
H18_2 C26_2 1_555 1_555
C30_2 C25_2 1_555 1_555
H21_2 C30_2 1_555 1_555
O22_2 Zn4 1_555 1_555
C45_2 O22_2 1_555 1_555
H30_2 C45_2 1_555 1_555
H31_2 C45_2 1_555 1_555
C46_2 C45_2 1_555 1_555
H32_2 C46_2 1_555 1_555
Zn5 O2_3 1_555 1_555
Zn2_3 O1_3 1_555 1_555
N1_3 C5_3 1_555 1_555
O1_3 C1_3 1_555 1_555
O2_3 C1_3 1_555 1_555
O3_2 C8_3 1_555 1_555
O4_2 C8_3 1_555 1_555
C1_3 C2_3 1_555 1_555
C2_3 C3_3 1_555 1_555
C3_3 H1_3 1_555 1_555
C4_3 C3_3 1_555 1_555
H2_3 C4_3 1_555 1_555
C5_3 C4_3 1_555 1_555
C6_3 C5_3 1_555 1_555
H3_3 C6_3 1_555 1_555
C7_3 C2_3 1_555 1_555
H4_3 C7_3 1_555 1_555
C8_3 C9_3 1_555 1_555
C9_3 C10_3 1_555 1_555
C10_3 H5_3 1_555 1_555
C11_3 C10_3 1_555 1_555
H6_3 C11_3 1_555 1_555
C12_3 N1_3 1_555 1_555
C13_3 C12_3 1_555 1_555
H7_3 C13_3 1_555 1_555
C14_3 C9_3 1_555 1_555
H8_3 C14_3 1_555 1_555
C19_3 N1_3 1_555 1_555
C20_3 C19_3 1_555 1_555
H11_3 C20_3 1_555 1_555
Zn7_2 O4_2 1_555 1_555
Zn8 O3_2 1_555 1_555
O12_2 Zn2_3 1_555 1_555
O14_2 Zn5 1_555 1_555
O18 C38_3 1_555 1_555
O19_2 Zn7_2 1_555 1_555
O20_2 Zn5 1_555 1_555
C38_3 O19_2 1_555 1_555
C39_3 C38_3 1_555 1_555
C40_3 C39_3 1_555 1_555
H26_3 C40_3 1_555 1_555
C44_3 C39_3 1_555 1_555
H29_3 C44_3 1_555 1_555
C6_3 C7_3 1_555 1_555
C11_3 C12_3 1_555 1_555
C13_3 C14_3 1_555 1_555
C18_3 C19_3 1_555 1_555
O6_2 C15_3 1_555 1_555
C15_3 C16_3 1_555 1_555
C16_3 C17_3 1_555 1_555
C21_3 C16_3 1_555 1_555
H12_3 C21_3 1_555 1_555
Zn7 O9_3 1_555 1_555
Zn5_2 O6_2 1_555 1_555
Zn8 O10_2 1_555 1_555
N2_3 C28_3 1_555 1_555
O8_3 Zn2_4 1_555 1_555
O9_3 C24_3 1_555 1_555
O10_2 C31_3 1_555 1_555
O11_2 Zn2_4 1_555 1_555
O13_2 Zn5_2 1_555 1_555
O15_2 Zn7 1_555 1_555
O21_2 Zn7 1_555 1_555
C24_3 O8_3 1_555 1_555
C25_3 C24_3 1_555 1_555
C26_3 C25_3 1_555 1_555
H18_3 C26_3 1_555 1_555
C27_3 C26_3 1_555 1_555
H19_3 C27_3 1_555 1_555
C28_3 C27_3 1_555 1_555
C29_3 C28_3 1_555 1_555
H20_3 C29_3 1_555 1_555
C30_3 C25_3 1_555 1_555
H21_3 C30_3 1_555 1_555
C31_3 O13_2 1_555 1_555
C32_3 C31_3 1_555 1_555
C33_3 C32_3 1_555 1_555
H22_3 C33_3 1_555 1_555
C34_3 C33_3 1_555 1_555
H23_3 C34_3 1_555 1_555
C35_3 N2_3 1_555 1_555
C36_3 C35_3 1_555 1_555
H24_3 C36_3 1_555 1_555
C37_3 C32_3 1_555 1_555
H25_3 C37_3 1_555 1_555
H27_3 C41_3 1_555 1_555
C42_3 N2_3 1_555 1_555
C43_3 C42_3 1_555 1_555
H28_3 C43_3 1_555 1_555
O22_3 Zn7 1_555 1_555
C45_3 O22_3 1_555 1_555
H30_3 C45_3 1_555 1_555
H31_3 C45_3 1_555 1_555
C46_3 C45_3 1_555 1_555
H32_3 C46_3 1_555 1_555
H33_2 C46_3 1_555 1_555
H34_2 C46_3 1_555 1_555
C29_3 C30_3 1_555 1_555
C34_3 C35_3 1_555 1_555
C36_3 C37_3 1_555 1_555
C41_3 C42_3 1_555 1_555
Zn5_2 O2_4 1_555 1_555
Zn8 O1_4 1_555 1_555
O1_4 C1_4 1_555 1_555
O2_4 C1_4 1_555 1_555
C1_4 C2_4 1_555 1_555
C2_4 C3_4 1_555 1_555
C3_4 H1_4 1_555 1_555
C7_4 C2_4 1_555 1_555
H4_4 C7_4 1_555 1_555
Zn7_2 O9_4 1_555 1_555
O8_4 Zn8 1_555 1_555
O9_4 C24_4 1_555 1_555
C24_4 O8_4 1_555 1_555
C25_4 C24_4 1_555 1_555
C26_4 C25_4 1_555 1_555
H18_4 C26_4 1_555 1_555
C30_4 C25_4 1_555 1_555
H21_4 C30_4 1_555 1_555
O22_4 Zn7_2 1_555 1_555
C45_4 O22_4 1_555 1_555
H30_4 C45_4 1_555 1_555
H31_4 C45_4 1_555 1_555
C46_4 C45_4 1_555 1_555
H32_4 C46_4 1_555 1_555
N1_4 C5_4 1_555 1_555
O11_2 C8_4 1_555 1_555
O15_2 C8_4 1_555 1_555
O20_2 C15_4 1_555 1_555
H2_4 C4_4 1_555 1_555
C5_4 C4_4 1_555 1_555
C6_4 C5_4 1_555 1_555
H3_4 C6_4 1_555 1_555
C8_4 C9_4 1_555 1_555
C9_4 C10_4 1_555 1_555
C10_4 H5_4 1_555 1_555
C11_4 C10_4 1_555 1_555
H6_4 C11_4 1_555 1_555
C12_4 N1_4 1_555 1_555
C13_4 C12_4 1_555 1_555
H7_4 C13_4 1_555 1_555
C14_4 C9_4 1_555 1_555
H8_4 C14_4 1_555 1_555
C15_4 C16_4 1_555 1_555
C16_4 C17_4 1_555 1_555
C18_4 C17_4 1_555 1_555
C19_4 N1_4 1_555 1_555
C20_4 C19_4 1_555 1_555
H11_4 C20_4 1_555 1_555
C21_4 C16_4 1_555 1_555
H12_4 C21_4 1_555 1_555
N2_4 C28_4 1_555 1_555
O12_2 C31_4 1_555 1_555
O18_2 C38_4 1_555 1_555
H19_4 C27_4 1_555 1_555
C28_4 C27_4 1_555 1_555
C29_4 C28_4 1_555 1_555
H20_4 C29_4 1_555 1_555
C31_4 O14_2 1_555 1_555
C32_4 C31_4 1_555 1_555
C33_4 C32_4 1_555 1_555
H22_4 C33_4 1_555 1_555
C34_4 C33_4 1_555 1_555
H23_4 C34_4 1_555 1_555
C35_4 N2_4 1_555 1_555
C36_4 C35_4 1_555 1_555
H24_4 C36_4 1_555 1_555
C37_4 C32_4 1_555 1_555
H25_4 C37_4 1_555 1_555
C38_4 O21_2 1_555 1_555
C39_4 C38_4 1_555 1_555
C40_4 C39_4 1_555 1_555
H26_4 C40_4 1_555 1_555
C41_4 C40_4 1_555 1_555
H27_4 C41_4 1_555 1_555
C42_4 N2_4 1_555 1_555
C43_4 C42_4 1_555 1_555
H28_4 C43_4 1_555 1_555
C44_4 C39_4 1_555 1_555
H29_4 C44_4 1_555 1_555
C11_4 C12_4 1_555 1_555
C13_4 C14_4 1_555 1_555
C18_4 C19_4 1_555 1_555
C20_4 C21_4 1_555 1_555
C34_4 C35_4 1_555 1_555
C36_4 C37_4 1_555 1_555
C41_4 C42_4 1_555 1_555
C43_4 C44_4 1_555 1_555
C22 O7 1_555 1_555
H13 C22 1_555 1_555
H14 C22 1_555 1_555
C23 C22 1_555 1_555
H15 C23 1_555 1_555
H16 C23 1_555 1_555
H17 C23 1_555 1_555
C22_2 O7_2 1_555 1_555
H13_2 C22_2 1_555 1_555
H14_2 C22_2 1_555 1_555
C23_2 C22_2 1_555 1_555
H15_2 C23_2 1_555 1_555
C22_3 O7_3 1_555 1_555
H13_3 C22_3 1_555 1_555
H14_3 C22_3 1_555 1_555
C23_3 C22_3 1_555 1_555
H15_3 C23_3 1_555 1_555
H16_3 C23_3 1_555 1_555
H17_3 C23_3 1_555 1_555
C22_4 O7_4 1_555 1_555
H13_4 C22_4 1_555 1_555
H14_4 C22_4 1_555 1_555
C23_4 C22_4 1_555 1_555
H15_4 C23_4 1_555 1_555

#END
