
###############################################################################
#
# This file contains modified crystal structure data generated from the
# MOF subset of the Cambridge Structural Database (CSD) v543 
# hosted by the Cambridge Crystallographic Data Centre (CCDC).
#
# This work is licensed under the Creative Commons
# Attribution-NonCommercial-ShareAlike 4.0 International License.
# To view a copy of this license, visit
# http://creativecommons.org/licenses/by-nc-sa/4.0/
# or send a letter to
# Creative Commons, PO Box 1866, Mountain View, CA 94042, USA.
#
# CIF created using the CSD Python API on 29 September 2022
# The structure has been converted into the P1 space group
# The structure has a 3D framework
# The original CSD entry PIDPOK is in the orthorhombic crystal system
# The framework has been calculated to contain at least 10.0% void space
# The void calculation uses a probe of radius 1.32A, grid spacing 0.4
# H atom positions have been added when not included in the experimental data
#
###############################################################################

data_PIDPOK
_chemical_formula_moiety         '(C168 H192 Cu8 I8 N36 Na4 O55 Sr7)n'
_symmetry_cell_setting           triclinic
_symmetry_space_group_name_H-M   'P 1'
_symmetry_Int_Tables_number      1
_space_group_name_Hall           'P 1'
loop_
_symmetry_equiv_pos_site_id
_symmetry_equiv_pos_as_xyz
1 x,y,z
_cell_length_a                   26.145(15)
_cell_length_b                   16.869(9)
_cell_length_c                   13.608(7)
_cell_angle_alpha                90
_cell_angle_beta                 90
_cell_angle_gamma                90
_cell_volume                     6001.67
loop_
_atom_site_label
_atom_site_type_symbol
_atom_site_fract_x
_atom_site_fract_y
_atom_site_fract_z
C41 C 0.4806(12) 0.004(2) 0.807(3)
H43 H 0.4623 0.0420 0.8467
H44 H 0.5003 0.0321 0.7584
Cu4 Cu 0.63660(7) 0.04828(9) 0.74555(15)
N10 N 0.3837(6) 0.0682(6) 0.2532(10)
I1 I 0.28688(4) 0.93948(5) 0.38310(7)
I2 I 0.33432(4) 0.93393(5) 0.06038(7)
Sr1 Sr 0.48107(4) 0.46703(6) 0.34089(8)
Sr2 Sr 0.56216(4) 0.56175(6) 0.56159(8)
Cu1 Cu 0.27161(7) 0.87410(10) 0.20110(14)
Cu2 Cu 0.36340(7) 0.95172(9) 0.24555(15)
O1 O 0.5042(3) 0.6101(4) 0.3747(7)
O2 O 0.5524(3) 0.3602(5) 0.3421(8)
O3 O 0.4183(4) 0.5332(6) 0.2003(7)
N1 N 0.2983(4) 0.7620(6) 0.2176(9)
O4 O 0.4761(3) 0.4716(5) 0.5255(6)
O5 O 0.4747(3) 0.5265(5) 0.6729(6)
O6 O 0.5819(4) 0.4599(5) 0.4309(7)
O7 O 0.4924(4) 0.6650(6) 0.5198(7)
O8 O 0.5487(4) 0.6536(5) 0.7121(6)
O9 O 0.5728(4) 0.6602(5) 0.8675(7)
N2 N 0.6163(6) 0.9318(6) 0.7532(10)
N3 N 0.4127(4) 0.8651(6) 0.2963(9)
C1 C 0.3065(6) 0.7329(7) 0.3094(11)
H1 H 0.2932 0.7607 0.3626
C2 C 0.3907(5) 0.5569(6) 0.2709(10)
O10 O 0.3923(4) 0.5291(5) 0.3549(7)
N4 N 0.3019(4) 0.4011(7) 0.6695(8)
C3 C 0.3570(5) 0.6253(6) 0.2510(10)
C4 C 0.4635(5) 0.7355(6) 0.3820(10)
C5 C 0.4542(4) 0.4845(6) 0.6070(8)
C6 C 0.6400(5) 0.3541(7) 0.3907(9)
C7 C 0.3685(5) 0.4294(9) 0.5539(11)
H2 H 0.3798 0.4272 0.4892
C8 C 0.4011(4) 0.4542(6) 0.6264(8)
C9 C 0.3331(6) 0.6656(8) 0.3275(11)
H3 H 0.3354 0.6463 0.3913
C10 C 0.5878(5) 0.3944(7) 0.3890(10)
C11 C 0.3182(6) 0.7191(8) 0.1446(9)
H4 H 0.3116 0.7356 0.0806
C12 C 0.6433(5) 0.2729(8) 0.3679(10)
H5 H 0.6146 0.2433 0.3510
C13 C 0.3470(5) 0.6537(7) 0.1568(10)
H6 H 0.3603 0.6275 0.1023
C14 C 0.4444(6) 0.7978(8) 0.4361(11)
H7 H 0.4488 0.7979 0.5040
C15 C 0.3338(5) 0.4219(9) 0.7403(11)
H8 H 0.3220 0.4209 0.8049
C16 C 0.5690(5) 0.6877(7) 0.7843(10)
C17 C 0.3199(6) 0.4080(11) 0.5754(11)
H9 H 0.2976 0.3974 0.5237
C18 C 0.5871(5) 0.7717(7) 0.7703(9)
C19 C 0.6080(8) 0.8127(9) 0.8492(11)
H10 H 0.6133 0.7877 0.9092
C20 C 0.6209(7) 0.8934(9) 0.8356(12)
H11 H 0.6335 0.9210 0.8896
C21 C 0.3852(6) 0.4458(8) 0.7228(9)
H12 H 0.4075 0.4555 0.7747
C22 C 0.4879(5) 0.6646(6) 0.4296(9)
C23 C 0.4568(5) 0.7428(7) 0.2819(10)
H13 H 0.4690 0.7035 0.2402
C24 C 0.5991(7) 0.8883(8) 0.6769(11)
H14 H 0.5981 0.9130 0.6158
C25 C 0.4194(6) 0.8590(9) 0.3930(13)
H15 H 0.4063 0.8988 0.4330
N5 N 0.2864(9) 0.6825(15) 0.6193(17)
C26 C 0.4323(5) 0.8072(7) 0.2435(11)
H16 H 0.4293 0.8104 0.1755
C27 C 0.5827(6) 0.8104(8) 0.6811(12)
H17 H 0.5693 0.7850 0.6262
C28 C 0.6918(7) 0.2395(9) 0.3719(12)
H18 H 0.6933 0.1852 0.3600
N6 N 0.7349(5) 0.2731(10) 0.3898(15)
C29 C 0.7278(7) 0.3534(11) 0.4112(18)
H19 H 0.7569 0.3820 0.4276
O11 O 0.3715(8) 0.6694(12) 0.6208(14)
C30 C 0.3308(12) 0.645(2) 0.629(2)
H20 H 0.3286 0.5913 0.6447
Na1 Na 0.4538(2) 0.6775(3) 0.6735(4)
O12 O 0.4506(8) 0.8141(10) 0.7082(18)
C31 C 0.2349(10) 0.6489(18) 0.646(2)
H21 H 0.2192 0.6264 0.5890
H22 H 0.2135 0.6905 0.6716
H23 H 0.2391 0.6086 0.6954
C32 C 0.2849(10) 0.7630(17) 0.599(2)
H24 H 0.3059 0.7909 0.6458
H25 H 0.2503 0.7816 0.6039
H26 H 0.2976 0.7724 0.5340
C33 C 0.6842(5) 0.3934(8) 0.4107(10)
H27 H 0.6838 0.4475 0.4238
N7 N 0.7207(7) 0.5514(12) 0.7162(18)
O13 O 0.6603(6) 0.5717(10) 0.6005(15)
N8 N 0.6387(9) 0.7756(15) 0.388(2)
O14 O 0.6072(7) 0.6752(11) 0.4719(17)
C34 C 0.6976(9) 0.5441(17) 0.631(2)
H28 H 0.7143 0.5107 0.5871
C35 C 0.6357(12) 0.7101(19) 0.440(3)
H29 H 0.6680 0.6893 0.4528
C36 C 0.6939(9) 0.6167(16) 0.779(2)
H30 H 0.7085 0.6675 0.7644
H31 H 0.6988 0.6052 0.8479
H32 H 0.6580 0.6173 0.7649
C37 C 0.6812(10) 0.8203(18) 0.354(3)
H33 H 0.7101 0.8105 0.3958
H34 H 0.6729 0.8757 0.3554
H35 H 0.6894 0.8049 0.2879
C38 C 0.5939(11) 0.8251(18) 0.387(3)
H36 H 0.5693 0.8051 0.4328
H37 H 0.5792 0.8249 0.3219
H38 H 0.6032 0.8783 0.4042
C39 C 0.7553(9) 0.5153(17) 0.780(2)
H39 H 0.7471 0.4600 0.7860
H40 H 0.7533 0.5401 0.8433
H41 H 0.7893 0.5209 0.7544
C40 C 0.4683(10) 0.8693(16) 0.764(2)
N9 N 0.4429(11) 0.9494(14) 0.757(3)
H42 H 0.5031 0.9739 0.8481
C42 C 0.3862(9) 0.9375(19) 0.781(4)
H45 H 0.3705 0.9054 0.7313
H46 H 0.3694 0.9881 0.7837
H47 H 0.3831 0.9117 0.8437
Sr3 Sr 0.51893(4) 0.53297(6) 0.84089(8)
Sr4 Sr 0.43784(4) 0.43825(6) 0.06159(8)
Cu3 Cu 0.22839(7) 0.37410(10) 0.70110(14)
O15 O 0.4476(3) 0.6398(5) 0.8421(8)
O16 O 0.5817(4) 0.4668(6) 0.7003(7)
O17 O 0.5253(3) 0.4735(5) 0.1729(6)
O18 O 0.4513(4) 0.3464(5) 0.2121(6)
O19 O 0.4272(4) 0.3398(5) 0.3675(7)
N11 N 0.1981(4) 0.9011(7) 0.1695(8)
Na2 Na 0.5462(2) 0.3225(3) 0.1735(4)
H48 H 0.500123 0.858662 0.813921
O4_2 O 0.5239(3) 0.5284(5) 0.0255(6)
O7_2 O 0.5076(4) 0.3350(6) 0.0198(7)
N4_2 N 0.6981(4) 0.5989(7) 0.1695(8)
C5_2 C 0.5458(4) 0.5155(6) 0.1070(8)
C7_2 C 0.6315(5) 0.5706(9) 0.0539(11)
C8_2 C 0.5989(4) 0.5458(6) 0.1264(8)
H7_2 H 0.5512 0.2021 0.0040
C15_2 C 0.6662(5) 0.5781(9) 0.2403(11)
H8_2 H 0.6780 0.5791 0.3049
C16_2 C 0.4310(5) 0.3123(7) 0.2843(10)
C17_2 C 0.6801(6) 0.5920(11) 0.0754(11)
H9_2 H 0.7024 0.6026 0.0237
C18_2 C 0.4129(5) 0.2283(7) 0.2703(9)
C19_2 C 0.3920(8) 0.1873(9) 0.3492(11)
H10_2 H 0.3867 0.2123 0.4092
C20_2 C 0.3791(7) 0.1066(9) 0.3356(12)
H11_2 H 0.3665 0.0790 0.3896
C21_2 C 0.6148(6) 0.5542(8) 0.2228(9)
H12_2 H 0.5925 0.5445 0.2747
C24_2 C 0.4009(7) 0.1117(8) 0.1769(11)
H14_2 H 0.4019 0.0870 0.1158
N5_2 N 0.7136(9) 0.3175(15) 0.1193(17)
C27_2 C 0.4173(6) 0.1896(8) 0.1811(12)
H17_2 H 0.4307 0.2150 0.1262
O11_2 O 0.6285(8) 0.3306(12) 0.1208(14)
C30_2 C 0.6692(12) 0.355(2) 0.129(2)
H20_2 H 0.6714 0.4087 0.1447
O12_2 O 0.5494(8) 0.1859(10) 0.2082(18)
C31_2 C 0.7651(10) 0.3511(18) 0.146(2)
H21_2 H 0.7808 0.3736 0.0890
H22_2 H 0.7865 0.3095 0.1716
H23_2 H 0.7609 0.3914 0.1954
C32_2 C 0.7151(10) 0.2370(17) 0.099(2)
H24_2 H 0.6941 0.2091 0.1458
H25_2 H 0.7497 0.2184 0.1039
H26_2 H 0.7024 0.2276 0.0340
N7_2 N 0.2793(7) 0.4486(12) 0.2162(18)
O13_2 O 0.3397(6) 0.4283(10) 0.1005(15)
C34_2 C 0.3024(9) 0.4559(17) 0.131(2)
H28_2 H 0.2857 0.4893 0.0871
C36_2 C 0.3061(9) 0.3833(16) 0.279(2)
H30_2 H 0.2915 0.3325 0.2644
H31_2 H 0.3012 0.3948 0.3479
H32_2 H 0.3420 0.3827 0.2649
C39_2 C 0.2447(9) 0.4847(17) 0.280(2)
H39_2 H 0.2529 0.5400 0.2860
H40_2 H 0.2467 0.4599 0.3433
H41_2 H 0.2107 0.4791 0.2544
C40_2 C 0.5317(10) 0.1307(16) 0.264(2)
N9_2 N 0.5571(11) 0.0506(14) 0.257(3)
H42_2 H 0.4969 0.0261 0.3481
C42_2 C 0.6138(9) 0.0625(19) 0.281(4)
H45_2 H 0.6295 0.0946 0.2313
H46_2 H 0.6306 0.0119 0.2837
H47_2 H 0.6169 0.0883 0.3437
Cu3_2 Cu 0.77161(7) 0.62590(10) 0.20110(14)
H48_2 H 0.499877 0.141338 0.313921
I1_2 I 0.71312(4) 0.06052(5) 0.88310(7)
I2_2 I 0.66568(4) 0.06607(5) 0.56038(7)
Cu1_2 Cu 0.72839(7) 0.12590(10) 0.70110(14)
O1_2 O 0.4958(3) 0.3899(4) 0.8747(7)
N1_2 N 0.7017(4) 0.2380(6) 0.7176(9)
O6_2 O 0.4181(4) 0.5401(5) 0.9309(7)
N3_2 N 0.5873(4) 0.1349(6) 0.7963(9)
C1_2 C 0.6935(6) 0.2671(7) 0.8094(11)
H1_2 H 0.7068 0.2393 0.8626
C2_2 C 0.6093(5) 0.4431(6) 0.7709(10)
O10_2 O 0.6077(4) 0.4709(5) 0.8549(7)
C3_2 C 0.6430(5) 0.3747(6) 0.7510(10)
C4_2 C 0.5365(5) 0.2645(6) 0.8820(10)
C6_2 C 0.3600(5) 0.6459(7) 0.8907(9)
H2_2 H 0.6202 0.5728 0.9892
C9_2 C 0.6669(6) 0.3344(8) 0.8275(11)
H3_2 H 0.6646 0.3537 0.8913
C10_2 C 0.4122(5) 0.6056(7) 0.8890(10)
C11_2 C 0.6818(6) 0.2809(8) 0.6446(9)
H4_2 H 0.6884 0.2644 0.5806
C12_2 C 0.3567(5) 0.7271(8) 0.8679(10)
H5_2 H 0.3854 0.7567 0.8510
C13_2 C 0.6530(5) 0.3463(7) 0.6568(10)
H6_2 H 0.6397 0.3725 0.6023
C14_2 C 0.5556(6) 0.2022(8) 0.9361(11)
C22_2 C 0.5121(5) 0.3354(6) 0.9296(9)
C23_2 C 0.5432(5) 0.2572(7) 0.7819(10)
H13_2 H 0.5310 0.2965 0.7402
C25_2 C 0.5806(6) 0.1410(9) 0.8930(13)
H15_2 H 0.5937 0.1012 0.9330
C26_2 C 0.5677(5) 0.1928(7) 0.7435(11)
H16_2 H 0.5707 0.1896 0.6755
C28_2 C 0.3082(7) 0.7605(9) 0.8719(12)
H18_2 H 0.3067 0.8148 0.8600
N6_2 N 0.2651(5) 0.7269(10) 0.8898(15)
C29_2 C 0.2722(7) 0.6466(11) 0.9112(18)
H19_2 H 0.2431 0.6180 0.9276
C33_2 C 0.3158(5) 0.6066(8) 0.9107(10)
H27_2 H 0.3162 0.5525 0.9238
N8_2 N 0.3613(9) 0.2244(15) 0.888(2)
O14_2 O 0.3928(7) 0.3248(11) 0.9719(17)
C35_2 C 0.3643(12) 0.2899(19) 0.940(3)
H29_2 H 0.3320 0.3107 0.9528
C37_2 C 0.3188(10) 0.1797(18) 0.854(3)
H33_2 H 0.2899 0.1895 0.8958
H34_2 H 0.3271 0.1243 0.8554
H35_2 H 0.3106 0.1951 0.7879
C38_2 C 0.4061(11) 0.1749(18) 0.887(3)
H36_2 H 0.4307 0.1949 0.9328
H37_2 H 0.4208 0.1751 0.8219
H38_2 H 0.3968 0.1217 0.9042
N11_2 N 0.8019(4) 0.0989(7) 0.6695(8)
C41_2 C 0.5194(12) 0.996(2) 0.307(3)
H43_2 H 0.5377 0.9580 0.3467
H44_2 H 0.4997 0.9679 0.2584
O5_2 O 0.0253(3) 0.0265(5) 0.1729(6)
O7_3 O 0.0076(4) 0.1650(6) 0.0198(7)
H7_3 H 0.0512 0.2979 0.0040
N5_3 N 0.2136(9) 0.1825(15) 0.1193(17)
O11_3 O 0.1285(8) 0.1694(12) 0.1208(14)
C30_3 C 0.1692(12) 0.145(2) 0.129(2)
H20_3 H 0.1714 0.0913 0.1447
Na1_2 Na 0.0462(2) 0.1775(3) 0.1735(4)
O12_3 O 0.0494(8) 0.3141(10) 0.2082(18)
C31_3 C 0.2651(10) 0.1489(18) 0.146(2)
H21_3 H 0.2808 0.1264 0.0890
H22_3 H 0.2865 0.1905 0.1716
H23_3 H 0.2609 0.1086 0.1954
C32_3 C 0.2151(10) 0.2630(17) 0.099(2)
H24_3 H 0.1941 0.2909 0.1458
H25_3 H 0.2497 0.2816 0.1039
H26_3 H 0.2024 0.2724 0.0340
C40_3 C 0.0317(10) 0.3693(16) 0.264(2)
N9_3 N 0.0571(11) 0.4494(14) 0.257(3)
C41_3 C 0.0194(12) 0.504(2) 0.307(3)
H43_3 H 0.0377 0.5420 0.3467
C42_3 C 0.1138(9) 0.4375(19) 0.281(4)
H45_3 H 0.1295 0.4054 0.2313
H46_3 H 0.1306 0.4881 0.2837
H47_3 H 0.1169 0.4117 0.3437
O15_2 O 0.0524(3) 0.1398(5) 0.3421(8)
I1_3 I 0.21312(4) 0.43948(5) 0.88310(7)
I2_3 I 0.16568(4) 0.43393(5) 0.56038(7)
Cu2_2 Cu 0.13660(7) 0.45172(9) 0.74555(15)
O3_2 O 0.0817(4) 0.0332(6) 0.7003(7)
N1_3 N 0.2017(4) 0.2620(6) 0.7176(9)
N3_3 N 0.0873(4) 0.3651(6) 0.7963(9)
C1_3 C 0.1935(6) 0.2329(7) 0.8094(11)
H1_3 H 0.2068 0.2607 0.8626
C2_3 C 0.1093(5) 0.0569(6) 0.7709(10)
O10_3 O 0.1077(4) 0.0291(5) 0.8549(7)
C3_3 C 0.1430(5) 0.1253(6) 0.7510(10)
C4_3 C 0.0365(5) 0.2355(6) 0.8820(10)
C9_3 C 0.1669(6) 0.1656(8) 0.8275(11)
H3_3 H 0.1646 0.1463 0.8913
C11_3 C 0.1818(6) 0.2191(8) 0.6446(9)
H4_3 H 0.1884 0.2356 0.5806
C13_3 C 0.1530(5) 0.1537(7) 0.6568(10)
H6_3 H 0.1397 0.1275 0.6023
C14_3 C 0.0556(6) 0.2978(8) 0.9361(11)
C22_3 C 0.0121(5) 0.1646(6) 0.9296(9)
C23_3 C 0.0432(5) 0.2428(7) 0.7819(10)
H13_3 H 0.0310 0.2035 0.7402
C25_3 C 0.0806(6) 0.3590(9) 0.8930(13)
H15_3 H 0.0937 0.3988 0.9330
C26_3 C 0.0677(5) 0.3072(7) 0.7435(11)
H16_3 H 0.0707 0.3104 0.6755
N10_2 N 0.1163(6) 0.5682(6) 0.7532(10)
O4_3 O 0.0239(3) 0.9716(5) 0.0255(6)
C5_3 C 0.0458(4) 0.9845(6) 0.1070(8)
C7_3 C 0.1315(5) 0.9294(9) 0.0539(11)
C8_3 C 0.0989(4) 0.9542(6) 0.1264(8)
C15_3 C 0.1662(5) 0.9219(9) 0.2403(11)
H8_3 H 0.1780 0.9209 0.3049
C17_3 C 0.1801(6) 0.9080(11) 0.0754(11)
H9_3 H 0.2024 0.8974 0.0237
C21_3 C 0.1148(6) 0.9458(8) 0.2228(9)
H12_3 H 0.0925 0.9555 0.2747
Sr1_2 Sr 0.01893(4) 0.96703(6) 0.84089(8)
H2_3 H 0.1202 0.9272 0.9892
Sr4_2 Sr 0.06216(4) 0.93825(6) 0.56159(8)
O18_2 O 0.0487(4) 0.8464(5) 0.7121(6)
O19_2 O 0.0728(4) 0.8398(5) 0.8675(7)
Sr2_2 Sr 0.93784(4) 0.06175(6) 0.06159(8)
O8_2 O 0.9513(4) 0.1536(5) 0.2121(6)
O9_2 O 0.9272(4) 0.1602(5) 0.3675(7)
N2_2 N 0.8837(6) 0.4318(6) 0.2532(10)
C16_3 C 0.9310(5) 0.1877(7) 0.2843(10)
C18_3 C 0.9129(5) 0.2717(7) 0.2703(9)
C19_3 C 0.8920(8) 0.3127(9) 0.3492(11)
H10_3 H 0.8867 0.2877 0.4092
C20_3 C 0.8791(7) 0.3934(9) 0.3356(12)
H11_3 H 0.8665 0.4210 0.3896
C24_3 C 0.9009(7) 0.3883(8) 0.1769(11)
H14_3 H 0.9019 0.4130 0.1158
C27_3 C 0.9173(6) 0.3104(8) 0.1811(12)
H17_3 H 0.9307 0.2850 0.1262
N7_3 N 0.7793(7) 0.0514(12) 0.2162(18)
O13_3 O 0.8397(6) 0.0717(10) 0.1005(15)
C34_3 C 0.8024(9) 0.0441(17) 0.131(2)
H28_3 H 0.7857 0.0107 0.0871
C36_3 C 0.8061(9) 0.1167(16) 0.279(2)
H30_3 H 0.7915 0.1675 0.2644
H31_3 H 0.8012 0.1052 0.3479
H32_3 H 0.8420 0.1173 0.2649
C39_3 C 0.7447(9) 0.0153(17) 0.280(2)
H40_3 H 0.7467 0.0401 0.3433
H41_3 H 0.7107 0.0209 0.2544
H42_3 H 0.9969 0.4739 0.3481
H44_3 H 0.9997 0.5321 0.2584
Sr3_2 Sr 0.98107(4) 0.03297(6) 0.34089(8)
Cu4_2 Cu 0.86340(7) 0.54828(9) 0.24555(15)
H48_3 H 0.999877 0.358662 0.313921
H39_3 H 0.7529 0.9600 0.2860
O16_2 O 0.9183(4) 0.9668(6) 0.2003(7)
O2_2 O 0.9476(3) 0.8602(5) 0.8421(8)
O6_3 O 0.9181(4) 0.9599(5) 0.9309(7)
C6_3 C 0.8600(5) 0.8541(7) 0.8907(9)
C10_3 C 0.9122(5) 0.8944(7) 0.8890(10)
C12_3 C 0.8567(5) 0.7729(8) 0.8679(10)
H5_3 H 0.8854 0.7433 0.8510
C28_3 C 0.8082(7) 0.7395(9) 0.8719(12)
H18_3 H 0.8067 0.6852 0.8600
N6_3 N 0.7651(5) 0.7731(10) 0.8898(15)
C29_3 C 0.7722(7) 0.8534(11) 0.9112(18)
H19_3 H 0.7431 0.8820 0.9276
C33_3 C 0.8158(5) 0.8934(8) 0.9107(10)
H27_3 H 0.8162 0.9475 0.9238
O17_2 O 0.9747(3) 0.9735(5) 0.6729(6)
Na2_2 Na 0.9538(2) 0.8225(3) 0.6735(4)
O6_4 O 0.0819(4) 0.0401(5) 0.4309(7)
C6_4 C 0.1400(5) 0.1459(7) 0.3907(9)
C10_4 C 0.0878(5) 0.1056(7) 0.3890(10)
C12_4 C 0.1433(5) 0.2271(8) 0.3679(10)
H5_4 H 0.1146 0.2567 0.3510
C28_4 C 0.1918(7) 0.2605(9) 0.3719(12)
H18_4 H 0.1933 0.3148 0.3600
N6_4 N 0.2349(5) 0.2269(10) 0.3898(15)
C29_4 C 0.2278(7) 0.1466(11) 0.4112(18)
H19_4 H 0.2569 0.1180 0.4276
C33_4 C 0.1842(5) 0.1066(8) 0.4107(10)
H27_4 H 0.1838 0.0525 0.4238
H39_4 H 0.2471 0.0400 0.7860
O1_3 O 0.0042(3) 0.8899(4) 0.3747(7)
C16_4 C 0.0690(5) 0.8123(7) 0.7843(10)
C18_4 C 0.0871(5) 0.7283(7) 0.7703(9)
C19_4 C 0.1080(8) 0.6873(9) 0.8492(11)
H10_4 H 0.1133 0.7123 0.9092
C20_4 C 0.1209(7) 0.6066(9) 0.8356(12)
H11_4 H 0.1335 0.5790 0.8896
C24_4 C 0.0991(7) 0.6117(8) 0.6769(11)
H14_4 H 0.0981 0.5870 0.6158
C27_4 C 0.0827(6) 0.6896(8) 0.6811(12)
H17_4 H 0.0693 0.7150 0.6262
N7_4 N 0.2207(7) 0.9486(12) 0.7162(18)
O13_4 O 0.1603(6) 0.9283(10) 0.6005(15)
N8_3 N 0.1387(9) 0.7244(15) 0.388(2)
O14_3 O 0.1072(7) 0.8248(11) 0.4719(17)
C34_4 C 0.1976(9) 0.9559(17) 0.631(2)
H28_4 H 0.2143 0.9893 0.5871
C35_3 C 0.1357(12) 0.7899(19) 0.440(3)
H29_3 H 0.1680 0.8107 0.4528
C36_4 C 0.1939(9) 0.8833(16) 0.779(2)
H30_4 H 0.2085 0.8325 0.7644
H31_4 H 0.1988 0.8948 0.8479
H32_4 H 0.1580 0.8827 0.7649
C37_3 C 0.1812(10) 0.6797(18) 0.354(3)
H33_3 H 0.2101 0.6895 0.3958
H34_3 H 0.1729 0.6243 0.3554
H35_3 H 0.1894 0.6951 0.2879
C38_3 C 0.0939(11) 0.6749(18) 0.387(3)
H36_3 H 0.0693 0.6949 0.4328
H37_3 H 0.0792 0.6751 0.3219
H38_3 H 0.1032 0.6217 0.4042
C39_4 C 0.2553(9) 0.9847(17) 0.780(2)
H40_4 H 0.2533 0.9599 0.8433
H41_4 H 0.2893 0.9791 0.7544
H42_4 H 0.0031 0.5261 0.8481
H44_4 H 0.0003 0.4679 0.7584
H48_4 H 0.00012265 0.641338 0.813921
O4_4 O 0.9761(3) 0.0284(5) 0.5255(6)
C5_4 C 0.9542(4) 0.0155(6) 0.6070(8)
C7_4 C 0.8685(5) 0.0706(9) 0.5539(11)
H2_4 H 0.8798 0.0728 0.4892
C8_4 C 0.9011(4) 0.0458(6) 0.6264(8)
C15_4 C 0.8338(5) 0.0781(9) 0.7403(11)
H8_4 H 0.8220 0.0791 0.8049
C17_4 C 0.8199(6) 0.0920(11) 0.5754(11)
H9_4 H 0.7976 0.1026 0.5237
C21_4 C 0.8852(6) 0.0542(8) 0.7228(9)
H12_4 H 0.9075 0.0445 0.7747
I1_4 I 0.78688(4) 0.56052(5) 0.38310(7)
I2_4 I 0.83432(4) 0.56607(5) 0.06038(7)
N1_4 N 0.7983(4) 0.7380(6) 0.2176(9)
O7_4 O 0.9924(4) 0.8350(6) 0.5198(7)
N3_4 N 0.9127(4) 0.6349(6) 0.2963(9)
C1_4 C 0.8065(6) 0.7671(7) 0.3094(11)
H1_4 H 0.7932 0.7393 0.3626
C2_4 C 0.8907(5) 0.9431(6) 0.2709(10)
O10_4 O 0.8923(4) 0.9709(5) 0.3549(7)
C3_4 C 0.8570(5) 0.8747(6) 0.2510(10)
C4_4 C 0.9635(5) 0.7645(6) 0.3820(10)
C9_4 C 0.8331(6) 0.8344(8) 0.3275(11)
H3_4 H 0.8354 0.8537 0.3913
C11_4 C 0.8182(6) 0.7809(8) 0.1446(9)
H4_4 H 0.8116 0.7644 0.0806
C13_4 C 0.8470(5) 0.8463(7) 0.1568(10)
H6_4 H 0.8603 0.8725 0.1023
C14_4 C 0.9444(6) 0.7022(8) 0.4361(11)
H7_4 H 0.9488 0.7021 0.5040
C22_4 C 0.9879(5) 0.8354(6) 0.4296(9)
C23_4 C 0.9568(5) 0.7572(7) 0.2819(10)
H13_4 H 0.9690 0.7965 0.2402
C25_4 C 0.9194(6) 0.6410(9) 0.3930(13)
H15_4 H 0.9063 0.6012 0.4330
N5_4 N 0.7864(9) 0.8175(15) 0.6193(17)
C26_4 C 0.9323(5) 0.6928(7) 0.2435(11)
H16_4 H 0.9293 0.6896 0.1755
O11_4 O 0.8715(8) 0.8306(12) 0.6208(14)
C30_4 C 0.8308(12) 0.855(2) 0.629(2)
H20_4 H 0.8286 0.9087 0.6447
O12_4 O 0.9506(8) 0.6859(10) 0.7082(18)
C31_4 C 0.7349(10) 0.8511(18) 0.646(2)
H21_4 H 0.7192 0.8736 0.5890
H22_4 H 0.7135 0.8095 0.6716
H23_4 H 0.7391 0.8914 0.6954
C32_4 C 0.7849(10) 0.7370(17) 0.599(2)
H24_4 H 0.8059 0.7091 0.6458
H25_4 H 0.7503 0.7184 0.6039
H26_4 H 0.7976 0.7276 0.5340
C40_4 C 0.9683(10) 0.6307(16) 0.764(2)
N9_4 N 0.9429(11) 0.5506(14) 0.757(3)
C41_4 C 0.9806(12) 0.496(2) 0.807(3)
H43_4 H 0.9623 0.4580 0.8467
C42_4 C 0.8862(9) 0.5625(19) 0.781(4)
H45_4 H 0.8705 0.5946 0.7313
H46_4 H 0.8694 0.5119 0.7837
H47_4 H 0.8831 0.5883 0.8437
O1_4 O 0.9958(3) 0.1101(4) 0.8747(7)
N8_4 N 0.8613(9) 0.2756(15) 0.888(2)
O14_4 O 0.8928(7) 0.1752(11) 0.9719(17)
C35_4 C 0.8643(12) 0.2101(19) 0.940(3)
H29_4 H 0.8320 0.1893 0.9528
C37_4 C 0.8188(10) 0.3203(18) 0.854(3)
H33_4 H 0.7899 0.3105 0.8958
H34_4 H 0.8271 0.3757 0.8554
H35_4 H 0.8106 0.3049 0.7879
C38_4 C 0.9061(11) 0.3251(18) 0.887(3)
H36_4 H 0.9307 0.3051 0.9328
H37_4 H 0.9208 0.3249 0.8219
H38_4 H 0.8968 0.3783 0.9042
loop_
_geom_bond_atom_site_label_1
_geom_bond_atom_site_label_2
_geom_bond_site_symmetry_1
_geom_bond_site_symmetry_2
H43 C41 1_555 1_555
H44 C41 1_555 1_555
I1 Cu1 1_555 1_555
I2 Cu1 1_555 1_555
Sr1 O1 1_555 1_555
Sr2 O4 1_555 1_555
Cu1 N1 1_555 1_555
Cu2 I1 1_555 1_555
O1 C22 1_555 1_555
O2 Sr1 1_555 1_555
O3 Sr1 1_555 1_555
N1 C1 1_555 1_555
O4 Sr1 1_555 1_555
O5 Sr2 1_555 1_555
O6 Sr1 1_555 1_555
O7 Sr2 1_555 1_555
O8 Sr2 1_555 1_555
O9 C16 1_555 1_555
N2 C20 1_555 1_555
N3 Cu2 1_555 1_555
C1 H1 1_555 1_555
C2 O3 1_555 1_555
O10 Sr1 1_555 1_555
N4 C15 1_555 1_555
C3 C2 1_555 1_555
C4 C14 1_555 1_555
C5 O4 1_555 1_555
C6 C10 1_555 1_555
C7 H2 1_555 1_555
C8 C5 1_555 1_555
C9 C1 1_555 1_555
H3 C9 1_555 1_555
C10 O2 1_555 1_555
C11 N1 1_555 1_555
H4 C11 1_555 1_555
C12 C6 1_555 1_555
H5 C12 1_555 1_555
C13 C3 1_555 1_555
H6 C13 1_555 1_555
C14 H7 1_555 1_555
C15 H8 1_555 1_555
C16 O8 1_555 1_555
C17 N4 1_555 1_555
H9 C17 1_555 1_555
C18 C16 1_555 1_555
C19 C18 1_555 1_555
H10 C19 1_555 1_555
C20 C19 1_555 1_555
H11 C20 1_555 1_555
C21 C8 1_555 1_555
H12 C21 1_555 1_555
C22 O7 1_555 1_555
C23 C4 1_555 1_555
H13 C23 1_555 1_555
C24 N2 1_555 1_555
H14 C24 1_555 1_555
C25 N3 1_555 1_555
H15 C25 1_555 1_555
N5 C30 1_555 1_555
C26 N3 1_555 1_555
H16 C26 1_555 1_555
C27 C18 1_555 1_555
H17 C27 1_555 1_555
C28 C12 1_555 1_555
H18 C28 1_555 1_555
N6 C28 1_555 1_555
C29 N6 1_555 1_555
H19 C29 1_555 1_555
O11 C30 1_555 1_555
C30 H20 1_555 1_555
Na1 O5 1_555 1_555
O12 Na1 1_555 1_555
C31 N5 1_555 1_555
H21 C31 1_555 1_555
H22 C31 1_555 1_555
H23 C31 1_555 1_555
C32 N5 1_555 1_555
H24 C32 1_555 1_555
H25 C32 1_555 1_555
H26 C32 1_555 1_555
C33 C6 1_555 1_555
H27 C33 1_555 1_555
N7 C34 1_555 1_555
O13 Sr2 1_555 1_555
N8 C35 1_555 1_555
O14 Sr2 1_555 1_555
C34 O13 1_555 1_555
H28 C34 1_555 1_555
C35 O14 1_555 1_555
H29 C35 1_555 1_555
C36 N7 1_555 1_555
H30 C36 1_555 1_555
H31 C36 1_555 1_555
H32 C36 1_555 1_555
C37 N8 1_555 1_555
H33 C37 1_555 1_555
H34 C37 1_555 1_555
H35 C37 1_555 1_555
C38 N8 1_555 1_555
H36 C38 1_555 1_555
H37 C38 1_555 1_555
H38 C38 1_555 1_555
C39 N7 1_555 1_555
H39 C39 1_555 1_555
H40 C39 1_555 1_555
H41 C39 1_555 1_555
C40 O12 1_555 1_555
N9 C40 1_555 1_555
C42 N9 1_555 1_555
H45 C42 1_555 1_555
H46 C42 1_555 1_555
H47 C42 1_555 1_555
Sr3 O5 1_555 1_555
Sr4 O3 1_555 1_555
Cu3 N4 1_555 1_555
O15 Na1 1_555 1_555
O16 Sr2 1_555 1_555
O17 Sr1 1_555 1_555
O18 Sr1 1_555 1_555
O19 Sr1 1_555 1_555
N11 Cu1 1_555 1_555
Na2 O2 1_555 1_555
I2 Cu2 1_555 1_555
Sr2 O6 1_555 1_555
O5 C5 1_555 1_555
O6 C10 1_555 1_555
O7 Na1 1_555 1_555
O8 Na1 1_555 1_555
O8 Sr3 1_555 1_555
O9 Sr3 1_555 1_555
C2 O10 1_555 1_555
C3 C9 1_555 1_555
C4 C22 1_555 1_555
C7 C8 1_555 1_555
C7 C17 1_555 1_555
C11 C13 1_555 1_555
C14 C25 1_555 1_555
C15 C21 1_555 1_555
C23 C26 1_555 1_555
C24 C27 1_555 1_555
C29 C33 1_555 1_555
O11 Na1 1_555 1_555
Sr3 O15 1_555 1_555
Sr3 O16 1_555 1_555
Sr4 O17 1_555 1_555
Sr4 O18 1_555 1_555
O17 Na2 1_555 1_555
O18 Na2 1_555 1_555
C40 H48 1_555 1_555
Sr4 O4_2 1_555 1_555
O7_2 Sr4 1_555 1_555
O19 C16_2 1_555 1_555
N10 C20_2 1_555 1_555
N4_2 C15_2 1_555 1_555
C5_2 O4_2 1_555 1_555
C8_2 C5_2 1_555 1_555
C15_2 H8_2 1_555 1_555
C16_2 O18 1_555 1_555
C17_2 N4_2 1_555 1_555
H9_2 C17_2 1_555 1_555
C18_2 C16_2 1_555 1_555
C19_2 C18_2 1_555 1_555
H10_2 C19_2 1_555 1_555
C20_2 C19_2 1_555 1_555
H11_2 C20_2 1_555 1_555
C21_2 C8_2 1_555 1_555
H12_2 C21_2 1_555 1_555
C24_2 N10 1_555 1_555
H14_2 C24_2 1_555 1_555
N5_2 C30_2 1_555 1_555
C27_2 C18_2 1_555 1_555
H17_2 C27_2 1_555 1_555
O11_2 C30_2 1_555 1_555
C30_2 H20_2 1_555 1_555
O12_2 Na2 1_555 1_555
C31_2 N5_2 1_555 1_555
H21_2 C31_2 1_555 1_555
H22_2 C31_2 1_555 1_555
H23_2 C31_2 1_555 1_555
C32_2 N5_2 1_555 1_555
H24_2 C32_2 1_555 1_555
H25_2 C32_2 1_555 1_555
H26_2 C32_2 1_555 1_555
N7_2 C34_2 1_555 1_555
O13_2 Sr4 1_555 1_555
C34_2 O13_2 1_555 1_555
H28_2 C34_2 1_555 1_555
C36_2 N7_2 1_555 1_555
H30_2 C36_2 1_555 1_555
H31_2 C36_2 1_555 1_555
H32_2 C36_2 1_555 1_555
C39_2 N7_2 1_555 1_555
H39_2 C39_2 1_555 1_555
H40_2 C39_2 1_555 1_555
H41_2 C39_2 1_555 1_555
C40_2 O12_2 1_555 1_555
N9_2 C40_2 1_555 1_555
C42_2 N9_2 1_555 1_555
H45_2 C42_2 1_555 1_555
H46_2 C42_2 1_555 1_555
H47_2 C42_2 1_555 1_555
Cu3_2 N4_2 1_555 1_555
O17 C5_2 1_555 1_555
O7_2 Na2 1_555 1_555
C7_2 C8_2 1_555 1_555
C7_2 C17_2 1_555 1_555
C15_2 C21_2 1_555 1_555
C24_2 C27_2 1_555 1_555
O11_2 Na2 1_555 1_555
C40_2 H48_2 1_555 1_555
I1_2 Cu1_2 1_555 1_555
I2_2 Cu1_2 1_555 1_555
Sr3 O1_2 1_555 1_555
Cu1_2 N1_2 1_555 1_555
Cu4 I1_2 1_555 1_555
O1_2 C22_2 1_555 1_555
N1_2 C1_2 1_555 1_555
O6_2 Sr3 1_555 1_555
N3_2 Cu4 1_555 1_555
C1_2 H1_2 1_555 1_555
C2_2 O16 1_555 1_555
O10_2 Sr3 1_555 1_555
C3_2 C2_2 1_555 1_555
C4_2 C14_2 1_555 1_555
C6_2 C10_2 1_555 1_555
C9_2 C1_2 1_555 1_555
H3_2 C9_2 1_555 1_555
C10_2 O15 1_555 1_555
C11_2 N1_2 1_555 1_555
H4_2 C11_2 1_555 1_555
C12_2 C6_2 1_555 1_555
H5_2 C12_2 1_555 1_555
C13_2 C3_2 1_555 1_555
H6_2 C13_2 1_555 1_555
C23_2 C4_2 1_555 1_555
H13_2 C23_2 1_555 1_555
C25_2 N3_2 1_555 1_555
H15_2 C25_2 1_555 1_555
C26_2 N3_2 1_555 1_555
H16_2 C26_2 1_555 1_555
C28_2 C12_2 1_555 1_555
H18_2 C28_2 1_555 1_555
N6_2 C28_2 1_555 1_555
C29_2 N6_2 1_555 1_555
H19_2 C29_2 1_555 1_555
C33_2 C6_2 1_555 1_555
H27_2 C33_2 1_555 1_555
N8_2 C35_2 1_555 1_555
C35_2 O14_2 1_555 1_555
H29_2 C35_2 1_555 1_555
C37_2 N8_2 1_555 1_555
H33_2 C37_2 1_555 1_555
H34_2 C37_2 1_555 1_555
H35_2 C37_2 1_555 1_555
C38_2 N8_2 1_555 1_555
H36_2 C38_2 1_555 1_555
H37_2 C38_2 1_555 1_555
H38_2 C38_2 1_555 1_555
N11_2 Cu1_2 1_555 1_555
I2_2 Cu4 1_555 1_555
O6_2 C10_2 1_555 1_555
C2_2 O10_2 1_555 1_555
C3_2 C9_2 1_555 1_555
C4_2 C22_2 1_555 1_555
C11_2 C13_2 1_555 1_555
C14_2 C25_2 1_555 1_555
C23_2 C26_2 1_555 1_555
C29_2 C33_2 1_555 1_555
H43_2 C41_2 1_555 1_555
H44_2 C41_2 1_555 1_555
N5_3 C30_3 1_555 1_555
O11_3 C30_3 1_555 1_555
C30_3 H20_3 1_555 1_555
Na1_2 O5_2 1_555 1_555
O12_3 Na1_2 1_555 1_555
C31_3 N5_3 1_555 1_555
H21_3 C31_3 1_555 1_555
H22_3 C31_3 1_555 1_555
H23_3 C31_3 1_555 1_555
C32_3 N5_3 1_555 1_555
H24_3 C32_3 1_555 1_555
H25_3 C32_3 1_555 1_555
H26_3 C32_3 1_555 1_555
C40_3 O12_3 1_555 1_555
N9_3 C40_3 1_555 1_555
C41_3 N9_3 1_555 1_555
H43_3 C41_3 1_555 1_555
C42_3 N9_3 1_555 1_555
H45_3 C42_3 1_555 1_555
H46_3 C42_3 1_555 1_555
H47_3 C42_3 1_555 1_555
O15_2 Na1_2 1_555 1_555
O7_3 Na1_2 1_555 1_555
O11_3 Na1_2 1_555 1_555
I1_3 Cu3 1_555 1_555
I2_3 Cu3 1_555 1_555
Cu3 N1_3 1_555 1_555
Cu2_2 I1_3 1_555 1_555
N1_3 C1_3 1_555 1_555
N3_3 Cu2_2 1_555 1_555
C1_3 H1_3 1_555 1_555
C2_3 O3_2 1_555 1_555
C3_3 C2_3 1_555 1_555
C4_3 C14_3 1_555 1_555
C9_3 C1_3 1_555 1_555
H3_3 C9_3 1_555 1_555
C11_3 N1_3 1_555 1_555
H4_3 C11_3 1_555 1_555
C13_3 C3_3 1_555 1_555
H6_3 C13_3 1_555 1_555
C23_3 C4_3 1_555 1_555
H13_3 C23_3 1_555 1_555
C25_3 N3_3 1_555 1_555
H15_3 C25_3 1_555 1_555
C26_3 N3_3 1_555 1_555
H16_3 C26_3 1_555 1_555
N10_2 Cu2_2 1_555 1_555
I2_3 Cu2_2 1_555 1_555
C2_3 O10_3 1_555 1_555
C3_3 C9_3 1_555 1_555
C4_3 C22_3 1_555 1_555
C11_3 C13_3 1_555 1_555
C14_3 C25_3 1_555 1_555
C23_3 C26_3 1_555 1_555
N11 C15_3 1_555 1_555
C5_3 O4_3 1_555 1_555
C8_3 C5_3 1_555 1_555
C15_3 H8_3 1_555 1_555
C17_3 N11 1_555 1_555
H9_3 C17_3 1_555 1_555
C21_3 C8_3 1_555 1_555
H12_3 C21_3 1_555 1_555
C7_3 C8_3 1_555 1_555
C7_3 C17_3 1_555 1_555
C15_3 C21_3 1_555 1_555
O18_2 Sr1_2 1_555 1_555
O19_2 Sr1_2 1_555 1_555
Sr4_2 O18_2 1_555 1_555
O8_2 Sr2_2 1_555 1_555
O9_2 C16_3 1_555 1_555
N2_2 C20_3 1_555 1_555
C16_3 O8_2 1_555 1_555
C18_3 C16_3 1_555 1_555
C19_3 C18_3 1_555 1_555
H10_3 C19_3 1_555 1_555
C20_3 C19_3 1_555 1_555
H11_3 C20_3 1_555 1_555
C24_3 N2_2 1_555 1_555
H14_3 C24_3 1_555 1_555
C27_3 C18_3 1_555 1_555
H17_3 C27_3 1_555 1_555
N7_3 C34_3 1_555 1_555
O13_3 Sr2_2 1_555 1_555
C34_3 O13_3 1_555 1_555
H28_3 C34_3 1_555 1_555
C36_3 N7_3 1_555 1_555
H30_3 C36_3 1_555 1_555
H31_3 C36_3 1_555 1_555
H32_3 C36_3 1_555 1_555
C39_3 N7_3 1_555 1_555
H40_3 C39_3 1_555 1_555
H41_3 C39_3 1_555 1_555
Cu4_2 N2_2 1_555 1_555
O8_2 Sr3_2 1_555 1_555
O9_2 Sr3_2 1_555 1_555
C24_3 C27_3 1_555 1_555
C6_3 C10_3 1_555 1_555
C10_3 O2_2 1_555 1_555
C12_3 C6_3 1_555 1_555
H5_3 C12_3 1_555 1_555
C28_3 C12_3 1_555 1_555
H18_3 C28_3 1_555 1_555
N6_3 C28_3 1_555 1_555
C29_3 N6_3 1_555 1_555
H19_3 C29_3 1_555 1_555
C33_3 C6_3 1_555 1_555
H27_3 C33_3 1_555 1_555
Na2_2 O2_2 1_555 1_555
O6_3 C10_3 1_555 1_555
C29_3 C33_3 1_555 1_555
O17_2 Na2_2 1_555 1_555
C6_4 C10_4 1_555 1_555
C10_4 O15_2 1_555 1_555
C12_4 C6_4 1_555 1_555
H5_4 C12_4 1_555 1_555
C28_4 C12_4 1_555 1_555
H18_4 C28_4 1_555 1_555
N6_4 C28_4 1_555 1_555
C29_4 N6_4 1_555 1_555
H19_4 C29_4 1_555 1_555
C33_4 C6_4 1_555 1_555
H27_4 C33_4 1_555 1_555
O6_4 C10_4 1_555 1_555
C29_4 C33_4 1_555 1_555
O19_2 C16_4 1_555 1_555
N10_2 C20_4 1_555 1_555
C16_4 O18_2 1_555 1_555
C18_4 C16_4 1_555 1_555
C19_4 C18_4 1_555 1_555
H10_4 C19_4 1_555 1_555
C20_4 C19_4 1_555 1_555
H11_4 C20_4 1_555 1_555
C24_4 N10_2 1_555 1_555
H14_4 C24_4 1_555 1_555
C27_4 C18_4 1_555 1_555
H17_4 C27_4 1_555 1_555
N7_4 C34_4 1_555 1_555
O13_4 Sr4_2 1_555 1_555
N8_3 C35_3 1_555 1_555
O14_3 Sr4_2 1_555 1_555
C34_4 O13_4 1_555 1_555
H28_4 C34_4 1_555 1_555
C35_3 O14_3 1_555 1_555
H29_3 C35_3 1_555 1_555
C36_4 N7_4 1_555 1_555
H30_4 C36_4 1_555 1_555
H31_4 C36_4 1_555 1_555
H32_4 C36_4 1_555 1_555
C37_3 N8_3 1_555 1_555
H33_3 C37_3 1_555 1_555
H34_3 C37_3 1_555 1_555
H35_3 C37_3 1_555 1_555
C38_3 N8_3 1_555 1_555
H36_3 C38_3 1_555 1_555
H37_3 C38_3 1_555 1_555
H38_3 C38_3 1_555 1_555
C39_4 N7_4 1_555 1_555
H40_4 C39_4 1_555 1_555
H41_4 C39_4 1_555 1_555
C24_4 C27_4 1_555 1_555
O4_4 Sr3_2 1_555 1_555
N11_2 C15_4 1_555 1_555
C5_4 O4_4 1_555 1_555
C7_4 H2_4 1_555 1_555
C8_4 C5_4 1_555 1_555
C15_4 H8_4 1_555 1_555
C17_4 N11_2 1_555 1_555
H9_4 C17_4 1_555 1_555
C21_4 C8_4 1_555 1_555
H12_4 C21_4 1_555 1_555
C7_4 C8_4 1_555 1_555
C7_4 C17_4 1_555 1_555
C15_4 C21_4 1_555 1_555
I1_4 Cu3_2 1_555 1_555
I2_4 Cu3_2 1_555 1_555
Cu3_2 N1_4 1_555 1_555
Cu4_2 I1_4 1_555 1_555
N1_4 C1_4 1_555 1_555
N3_4 Cu4_2 1_555 1_555
C1_4 H1_4 1_555 1_555
C2_4 O16_2 1_555 1_555
C3_4 C2_4 1_555 1_555
C4_4 C14_4 1_555 1_555
C9_4 C1_4 1_555 1_555
H3_4 C9_4 1_555 1_555
C11_4 N1_4 1_555 1_555
H4_4 C11_4 1_555 1_555
C13_4 C3_4 1_555 1_555
H6_4 C13_4 1_555 1_555
C14_4 H7_4 1_555 1_555
C22_4 O7_4 1_555 1_555
C23_4 C4_4 1_555 1_555
H13_4 C23_4 1_555 1_555
C25_4 N3_4 1_555 1_555
H15_4 C25_4 1_555 1_555
N5_4 C30_4 1_555 1_555
C26_4 N3_4 1_555 1_555
H16_4 C26_4 1_555 1_555
O11_4 C30_4 1_555 1_555
C30_4 H20_4 1_555 1_555
O12_4 Na2_2 1_555 1_555
C31_4 N5_4 1_555 1_555
H21_4 C31_4 1_555 1_555
H22_4 C31_4 1_555 1_555
H23_4 C31_4 1_555 1_555
C32_4 N5_4 1_555 1_555
H24_4 C32_4 1_555 1_555
H25_4 C32_4 1_555 1_555
H26_4 C32_4 1_555 1_555
C40_4 O12_4 1_555 1_555
N9_4 C40_4 1_555 1_555
C41_4 N9_4 1_555 1_555
H43_4 C41_4 1_555 1_555
C42_4 N9_4 1_555 1_555
H45_4 C42_4 1_555 1_555
H46_4 C42_4 1_555 1_555
H47_4 C42_4 1_555 1_555
I2_4 Cu4_2 1_555 1_555
O7_4 Na2_2 1_555 1_555
C2_4 O10_4 1_555 1_555
C3_4 C9_4 1_555 1_555
C4_4 C22_4 1_555 1_555
C11_4 C13_4 1_555 1_555
C14_4 C25_4 1_555 1_555
C23_4 C26_4 1_555 1_555
O11_4 Na2_2 1_555 1_555
N8_4 C35_4 1_555 1_555
C35_4 O14_4 1_555 1_555
H29_4 C35_4 1_555 1_555
C37_4 N8_4 1_555 1_555
H33_4 C37_4 1_555 1_555
H34_4 C37_4 1_555 1_555
H35_4 C37_4 1_555 1_555
C38_4 N8_4 1_555 1_555
H36_4 C38_4 1_555 1_555
H37_4 C38_4 1_555 1_555
H38_4 C38_4 1_555 1_555

#END
