
###############################################################################
#
# This file contains modified crystal structure data generated from the
# MOF subset of the Cambridge Structural Database (CSD) v543 
# hosted by the Cambridge Crystallographic Data Centre (CCDC).
#
# This work is licensed under the Creative Commons
# Attribution-NonCommercial-ShareAlike 4.0 International License.
# To view a copy of this license, visit
# http://creativecommons.org/licenses/by-nc-sa/4.0/
# or send a letter to
# Creative Commons, PO Box 1866, Mountain View, CA 94042, USA.
#
# CIF created using the CSD Python API on 29 September 2022
# The structure has been converted into the P1 space group
# The structure has a 3D framework
# The original CSD entry PIDQOL is in the triclinic crystal system
# The framework has been calculated to contain at least 10.0% void space
# The void calculation uses a probe of radius 1.32A, grid spacing 0.4
#
###############################################################################

data_PIDQOL
_chemical_formula_moiety         '(C72 H92 Cu3 I3 N18 Na2 O32 Sr4)n'
_symmetry_cell_setting           triclinic
_symmetry_space_group_name_H-M   'P 1'
_symmetry_Int_Tables_number      1
_space_group_name_Hall           'P 1'
loop_
_symmetry_equiv_pos_site_id
_symmetry_equiv_pos_as_xyz
1 x,y,z
_cell_length_a                   12.305(8)
_cell_length_b                   14.283(10)
_cell_length_c                   17.104(11)
_cell_angle_alpha                101.054(8)
_cell_angle_beta                 92.084(12)
_cell_angle_gamma                96.198(7)
_cell_volume                     2928.03
loop_
_atom_site_label
_atom_site_type_symbol
_atom_site_fract_x
_atom_site_fract_y
_atom_site_fract_z
I1 I 0.58557(5) 0.05700(4) 0.39972(3)
Cu1 Cu 0.40329(8) 0.01766(7) 0.46761(6)
N10 N 0.3154(6) 0.1344(5) 0.4888(4)
Sr1 Sr 0.07258(6) 0.50120(5) 0.36660(4)
Sr2 Sr 0.02997(6) 0.49168(5) 0.12110(4)
O1 O 0.0582(5) 0.6179(4) 0.2619(3)
O3 O 0.1049(5) 0.4164(4) 0.4770(3)
C2 C 0.1190(6) 0.3706(5) 0.5322(4)
C3 C 0.1879(6) 0.2879(5) 0.5160(4)
C4 C 0.1765(7) 0.7654(6) 0.2840(4)
O5 O 0.1260(7) 0.6666(5) 0.1563(3)
O6 O 0.1538(7) 0.3511(5) 0.2916(4)
C5 C 0.1584(7) 0.7848(6) 0.3654(4)
H1 H 0.1043 0.7477 0.3862
C6 C 0.2580(8) 0.8220(6) 0.2564(5)
H2 H 0.2730 0.8090 0.2027
C7 C 0.2470(7) 0.2709(6) 0.4490(5)
H3 H 0.2447 0.3101 0.4115
C9 C 0.2217(8) 0.8592(6) 0.4134(5)
H4 H 0.2077 0.8730 0.4673
C10 C 0.1868(8) 0.3640(7) 0.2263(6)
O7 O 0.2814(6) 0.5725(6) 0.3682(5)
C11 C 0.3172(8) 0.8973(6) 0.3073(5)
H5 H 0.3679 0.9379 0.2868
C12 C 0.1152(7) 0.6776(6) 0.2305(5)
O8 O 0.1750(6) 0.4359(5) 0.1973(4)
C15 C 0.1915(7) 0.2251(6) 0.5676(5)
H8 H 0.1505 0.2322 0.6126
N1 N 0.4240(7) 0.6606(7) 0.3318(6)
C16 C 0.2485(8) 0.2883(8) 0.1791(5)
C17 C 0.3375(9) 0.6018(9) 0.3219(7)
H9 H 0.3144 0.5777 0.2688
C20 C 0.4670(16) 0.7031(14) 0.4126(11)
H12 H 0.4095 0.6996 0.4488
H13 H 0.4950 0.7691 0.4152
H14 H 0.5248 0.6686 0.4272
O9 O 0.0821(4) 0.3894(4) 0.5999(3)
N3 N 0.3036(6) 0.9142(5) 0.3876(4)
C21 C 0.3101(7) 0.1952(6) 0.4377(5)
H15 H 0.3508 0.1858 0.3927
C22 C 0.2571(8) 0.1509(6) 0.5519(5)
H16 H 0.2599 0.1103 0.5883
C23 C 0.2637(8) 0.2079(7) 0.2060(6)
H17 H 0.2329 0.1957 0.2524
C24 C 0.2996(11) 0.3042(9) 0.1094(6)
H18 H 0.2941 0.3598 0.0894
C25 C 0.3577(11) 0.2331(10) 0.0728(7)
H19 H 0.3891 0.2418 0.0257
N5 N 0.3733(7) 0.1544(7) 0.0978(5)
C26 C 0.3275(9) 0.1427(8) 0.1621(8)
H20 H 0.3371 0.0872 0.1810
H25 H 0.0484 0.1473 0.0779
C30 C 0.4819(14) 0.6888(14) 0.2668(12)
H28 H 0.4579 0.6445 0.2181
H29 H 0.5591 0.6885 0.2770
H30 H 0.4674 0.7522 0.2620
O14 O 0.1463(6) 0.6402(5) 0.4944(4)
H31 H 0.2162 0.6406 0.5035
H32 H 0.1133 0.6294 0.5363
I3 I 0.41443(5) 0.94300(4) 0.60028(3)
Cu4 Cu 0.59671(8) 0.98234(7) 0.53239(6)
Cu5 Cu 0.50202(9) 0.07809(9) 0.05585(7)
Na2 Na 0.1450(3) 0.3968(2) 0.73386(18)
O18 O 0.1236(5) 0.5009(6) 0.9948(3)
O2 O 0.9212(5) 0.4379(4) 0.2387(3)
O4 O 0.8914(5) 0.3692(4) 0.3427(3)
C1 C 0.7844(7) 0.3052(5) 0.2219(4)
C8 C 0.8716(7) 0.3761(5) 0.2713(4)
C13 C 0.7321(8) 0.2265(7) 0.2488(5)
H6 H 0.7474 0.2190 0.3008
C14 C 0.6586(8) 0.1602(6) 0.1995(6)
H7 H 0.6283 0.1070 0.2185
C18 C 0.7504(8) 0.3134(7) 0.1456(5)
H10 H 0.7798 0.3655 0.1248
C19 C 0.6747(9) 0.2464(7) 0.1010(5)
H11 H 0.6534 0.2549 0.0503
N2 N 0.6285(6) 0.1680(6) 0.1262(4)
O10 O 0.8431(6) 0.5637(5) 0.1270(4)
O11 O 0.8764(5) 0.4991(6) 0.0052(3)
N6 N 0.8140(6) 0.5368(7) 0.0562(6)
O12 O 0.9966(9) 0.3191(6) 0.0571(6)
N7 N 0.9192(8) 0.1696(6) 0.0101(5)
C27 C 0.9398(12) 0.2617(8) 0.0069(7)
C29 C 0.9702(15) 0.1406(11) 0.0807(9)
H26 H 0.9441 0.0749 0.0811
H27 H 0.9511 0.1810 0.1286
Na1 Na 0.8550(3) 0.6032(2) 0.26614(18)
O13 O 0.6812(9) 0.5374(9) 0.2891(8)
N8 N 0.8123(13) 0.8521(10) 0.1717(8)
O15 O 0.8686(12) 0.7624(8) 0.2502(6)
C31 C 0.8808(19) 0.7965(13) 0.1878(10)
H33 H 0.9375 0.7816 0.1549
C32 C 0.8208(18) 0.8896(13) 0.0965(10)
H34 H 0.8512 0.9558 0.1086
H35 H 0.7494 0.8839 0.0705
H36 H 0.8675 0.8531 0.0620
C33 C 0.7566(18) 0.9173(13) 0.2288(10)
H37 H 0.7333 0.8860 0.2712
H38 H 0.6940 0.9349 0.2023
H39 H 0.8059 0.9740 0.2503
N9 N 0.5757(11) 0.4318(11) 0.3393(10)
C34 C 0.6614(15) 0.4940(15) 0.3502(14)
H40 H 0.7059 0.5075 0.3970
C35 C 0.5015(14) 0.3885(14) 0.2783(7)
H41 H 0.5031 0.4261 0.2374
H42 H 0.4295 0.3834 0.2980
H43 H 0.5199 0.3254 0.2565
C36 C 0.5573(15) 0.3809(14) 0.4126(8)
H44 H 0.6089 0.3352 0.4130
H45 H 0.4842 0.3484 0.4081
H46 H 0.5676 0.4281 0.4612
O16 O 0.6948(8) 0.5012(13) 0.0369(9)
Sr3 Sr 0.92742(6) 0.49880(5) 0.63340(4)
O17 O 0.9179(4) 0.6106(4) 0.4001(3)
H21 H 0.9092 0.2832 0.9640
C28 C 0.8486(14) 0.0994(11) 0.9510(10)
H22 H 0.7850 0.1275 0.9370
H23 H 0.8265 0.0438 0.9730
H24 H 0.8880 0.0809 0.9042
Sr4 Sr 0.97003(6) 0.50832(5) 0.87890(4)
I4 I 0.52500(6) 0.09130(5) 0.90477(4)
I2 I 0.47500(6) 0.90870(5) 0.09523(4)
Cu6 Cu 0.49798(9) 0.92191(9) 0.94415(7)
H21_2 H 0.0908 0.7168 0.0360
C28_2 C 0.1514(14) 0.9006(11) 0.0490(10)
H22_2 H 0.2150 0.8725 0.0630
H23_2 H 0.1735 0.9562 0.0270
H24_2 H 0.1120 0.9191 0.0958
O2_2 O 0.0788(5) 0.5621(4) 0.7613(3)
O4_2 O 0.1086(5) 0.6308(4) 0.6573(3)
C1_2 C 0.2156(7) 0.6948(5) 0.7781(4)
C8_2 C 0.1284(7) 0.6239(5) 0.7287(4)
C13_2 C 0.2679(8) 0.7735(7) 0.7512(5)
H6_2 H 0.2526 0.7810 0.6992
C14_2 C 0.3414(8) 0.8398(6) 0.8005(6)
H7_2 H 0.3717 0.8930 0.7815
C18_2 C 0.2496(8) 0.6866(7) 0.8544(5)
H10_2 H 0.2202 0.6345 0.8752
C19_2 C 0.3253(9) 0.7536(7) 0.8990(5)
H11_2 H 0.3466 0.7451 0.9497
N2_2 N 0.3715(6) 0.8320(6) 0.8738(4)
O10_2 O 0.1569(6) 0.4363(5) 0.8730(4)
N6_2 N 0.1860(6) 0.4632(7) 0.9438(6)
O12_2 O 0.0034(9) 0.6809(6) 0.9429(6)
N7_2 N 0.0808(8) 0.8304(6) 0.9899(5)
C27_2 C 0.0602(12) 0.7383(8) 0.9931(7)
C29_2 C 0.0298(15) 0.8594(11) 0.9193(9)
H26_2 H 0.0559 0.9251 0.9189
H27_2 H 0.0489 0.8190 0.8714
O13_2 O 0.3188(9) 0.4626(9) 0.7109(8)
N8_2 N 0.1877(13) 0.1479(10) 0.8283(8)
O15_2 O 0.1314(12) 0.2376(8) 0.7498(6)
C31_2 C 0.1192(19) 0.2035(13) 0.8122(10)
H33_2 H 0.0625 0.2184 0.8451
C32_2 C 0.1792(18) 0.1104(13) 0.9035(10)
H34_2 H 0.1488 0.0442 0.8914
H35_2 H 0.2506 0.1161 0.9295
H36_2 H 0.1325 0.1469 0.9380
C33_2 C 0.2434(18) 0.0827(13) 0.7712(10)
H37_2 H 0.2667 0.1140 0.7288
H38_2 H 0.3060 0.0651 0.7977
H39_2 H 0.1941 0.0260 0.7497
N9_2 N 0.4243(11) 0.5682(11) 0.6607(10)
C34_2 C 0.3386(15) 0.5060(15) 0.6498(14)
H40_2 H 0.2941 0.4925 0.6030
C35_2 C 0.4985(14) 0.6115(14) 0.7217(7)
H41_2 H 0.4969 0.5739 0.7626
H42_2 H 0.5705 0.6166 0.7020
H43_2 H 0.4801 0.6746 0.7435
C36_2 C 0.4427(15) 0.6191(14) 0.5874(8)
H44_2 H 0.3911 0.6648 0.5870
H45_2 H 0.5158 0.6516 0.5919
H46_2 H 0.4324 0.5719 0.5388
O16_2 O 0.3052(8) 0.4988(13) 0.9631(9)
N11 N 0.6267(7) 0.8456(7) 0.9022(5)
O1_2 O 0.9418(5) 0.3821(4) 0.7381(3)
O3_2 O 0.8951(5) 0.5836(4) 0.5230(3)
C2_2 C 0.8810(6) 0.6294(5) 0.4678(4)
C3_2 C 0.8121(6) 0.7121(5) 0.4840(4)
C4_2 C 0.8235(7) 0.2346(6) 0.7160(4)
O5_2 O 0.8740(7) 0.3334(5) 0.8437(3)
O6_2 O 0.8462(7) 0.6489(5) 0.7084(4)
C5_2 C 0.8416(7) 0.2152(6) 0.6346(4)
H1_2 H 0.8957 0.2523 0.6138
C6_2 C 0.7420(8) 0.1780(6) 0.7436(5)
H2_2 H 0.7270 0.1910 0.7973
C7_2 C 0.7530(7) 0.7291(6) 0.5510(5)
H3_2 H 0.7553 0.6899 0.5885
C9_2 C 0.7783(8) 0.1408(6) 0.5866(5)
H4_2 H 0.7923 0.1270 0.5327
C10_2 C 0.8132(8) 0.6360(7) 0.7737(6)
O7_2 O 0.7186(6) 0.4275(6) 0.6318(5)
C11_2 C 0.6828(8) 0.1027(6) 0.6927(5)
H5_2 H 0.6321 0.0621 0.7132
C12_2 C 0.8848(7) 0.3224(6) 0.7695(5)
O8_2 O 0.8250(6) 0.5641(5) 0.8027(4)
C15_2 C 0.8085(7) 0.7749(6) 0.4324(5)
H8_2 H 0.8495 0.7678 0.3874
N1_2 N 0.5760(7) 0.3394(7) 0.6682(6)
C16_2 C 0.7515(8) 0.7117(8) 0.8209(5)
C17_2 C 0.6625(9) 0.3982(9) 0.6781(7)
H9_2 H 0.6856 0.4223 0.7312
C20_2 C 0.5330(16) 0.2969(14) 0.5874(11)
H12_2 H 0.5905 0.3004 0.5512
H13_2 H 0.5050 0.2309 0.5848
H14_2 H 0.4752 0.3314 0.5728
N3_2 N 0.6964(6) 0.0858(5) 0.6124(4)
N4 N 0.6846(6) 0.8656(5) 0.5112(4)
C21_2 C 0.6899(7) 0.8048(6) 0.5623(5)
H15_2 H 0.6492 0.8142 0.6073
C22_2 C 0.7429(8) 0.8491(6) 0.4481(5)
H16_2 H 0.7401 0.8897 0.4117
C23_2 C 0.7363(8) 0.7921(7) 0.7940(6)
H17_2 H 0.7671 0.8043 0.7476
C24_2 C 0.7004(11) 0.6958(9) 0.8906(6)
H18_2 H 0.7059 0.6402 0.9106
C25_2 C 0.6423(11) 0.7669(10) 0.9272(7)
H19_2 H 0.6109 0.7582 0.9743
C26_2 C 0.6725(9) 0.8573(8) 0.8379(8)
H20_2 H 0.6629 0.9128 0.8190
H25_2 H 0.9516 0.8527 0.9221
C30_2 C 0.5181(14) 0.3112(14) 0.7332(12)
H28_2 H 0.5421 0.3555 0.7819
H29_2 H 0.4409 0.3115 0.7230
H30_2 H 0.5326 0.2478 0.7380
O14_2 O 0.8537(6) 0.3598(5) 0.5056(4)
H31_2 H 0.7838 0.3594 0.4965
H32_2 H 0.8867 0.3706 0.4637
loop_
_geom_bond_atom_site_label_1
_geom_bond_atom_site_label_2
_geom_bond_site_symmetry_1
_geom_bond_site_symmetry_2
I1 Cu1 1_555 1_555
N10 Cu1 1_555 1_555
Sr1 O1 1_555 1_555
Sr2 O1 1_555 1_555
O1 C12 1_555 1_555
O3 Sr1 1_555 1_555
C2 O3 1_555 1_555
C3 C2 1_555 1_555
C4 C5 1_555 1_555
O5 Sr2 1_555 1_555
O6 Sr1 1_555 1_555
C5 H1 1_555 1_555
C6 C4 1_555 1_555
H2 C6 1_555 1_555
C7 C3 1_555 1_555
H3 C7 1_555 1_555
C9 C5 1_555 1_555
H4 C9 1_555 1_555
C10 O6 1_555 1_555
O7 Sr1 1_555 1_555
C11 C6 1_555 1_555
H5 C11 1_555 1_555
C12 C4 1_555 1_555
O8 Sr2 1_555 1_555
C15 C3 1_555 1_555
H8 C15 1_555 1_555
N1 C17 1_555 1_555
C16 C10 1_555 1_555
C17 O7 1_555 1_555
H9 C17 1_555 1_555
C20 N1 1_555 1_555
H12 C20 1_555 1_555
H13 C20 1_555 1_555
H14 C20 1_555 1_555
O9 C2 1_555 1_555
N3 C9 1_555 1_555
N10 C21 1_555 1_555
C21 C7 1_555 1_555
H15 C21 1_555 1_555
C22 C15 1_555 1_555
H16 C22 1_555 1_555
C23 C16 1_555 1_555
H17 C23 1_555 1_555
C24 C16 1_555 1_555
H18 C24 1_555 1_555
C25 C24 1_555 1_555
H19 C25 1_555 1_555
N5 C25 1_555 1_555
C26 C23 1_555 1_555
H20 C26 1_555 1_555
C30 N1 1_555 1_555
H28 C30 1_555 1_555
H29 C30 1_555 1_555
H30 C30 1_555 1_555
O14 Sr1 1_555 1_555
H31 O14 1_555 1_555
H32 O14 1_555 1_555
Cu5 N5 1_555 1_555
Na2 O9 1_555 1_555
O5 C12 1_555 1_555
C10 O8 1_555 1_555
C11 N3 1_555 1_555
N10 C22 1_555 1_555
N5 C26 1_555 1_555
I3 Cu4 1_555 1_555
Cu5 N2 1_555 1_555
C1 C8 1_555 1_555
C8 O2 1_555 1_555
C13 C1 1_555 1_555
H6 C13 1_555 1_555
C14 C13 1_555 1_555
H7 C14 1_555 1_555
C18 C1 1_555 1_555
H10 C18 1_555 1_555
C19 C18 1_555 1_555
H11 C19 1_555 1_555
N2 C14 1_555 1_555
N6 O10 1_555 1_555
N7 C27 1_555 1_555
C27 O12 1_555 1_555
C29 N7 1_555 1_555
H26 C29 1_555 1_555
H27 C29 1_555 1_555
O13 Na1 1_555 1_555
N8 C31 1_555 1_555
O15 Na1 1_555 1_555
C31 O15 1_555 1_555
H33 C31 1_555 1_555
C32 N8 1_555 1_555
H34 C32 1_555 1_555
H35 C32 1_555 1_555
H36 C32 1_555 1_555
C33 N8 1_555 1_555
H37 C33 1_555 1_555
H38 C33 1_555 1_555
H39 C33 1_555 1_555
N9 C34 1_555 1_555
C34 O13 1_555 1_555
H40 C34 1_555 1_555
C35 N9 1_555 1_555
H41 C35 1_555 1_555
H42 C35 1_555 1_555
H43 C35 1_555 1_555
C36 N9 1_555 1_555
H44 C36 1_555 1_555
H45 C36 1_555 1_555
H46 C36 1_555 1_555
O16 N6 1_555 1_555
O2 Na1 1_555 1_555
O4 C8 1_555 1_555
C19 N2 1_555 1_555
O10 Na1 1_555 1_555
O11 N6 1_555 1_555
Na1 O17 1_555 1_555
H22 C28 1_555 1_555
H23 C28 1_555 1_555
H24 C28 1_555 1_555
H22_2 C28_2 1_555 1_555
H23_2 C28_2 1_555 1_555
H24_2 C28_2 1_555 1_555
Cu6 N2_2 1_555 1_555
C1_2 C8_2 1_555 1_555
C8_2 O2_2 1_555 1_555
C13_2 C1_2 1_555 1_555
H6_2 C13_2 1_555 1_555
C14_2 C13_2 1_555 1_555
H7_2 C14_2 1_555 1_555
C18_2 C1_2 1_555 1_555
H10_2 C18_2 1_555 1_555
C19_2 C18_2 1_555 1_555
H11_2 C19_2 1_555 1_555
N2_2 C14_2 1_555 1_555
N6_2 O10_2 1_555 1_555
N7_2 C27_2 1_555 1_555
C27_2 O12_2 1_555 1_555
C29_2 N7_2 1_555 1_555
H26_2 C29_2 1_555 1_555
H27_2 C29_2 1_555 1_555
O13_2 Na2 1_555 1_555
N8_2 C31_2 1_555 1_555
O15_2 Na2 1_555 1_555
C31_2 O15_2 1_555 1_555
H33_2 C31_2 1_555 1_555
C32_2 N8_2 1_555 1_555
H34_2 C32_2 1_555 1_555
H35_2 C32_2 1_555 1_555
H36_2 C32_2 1_555 1_555
C33_2 N8_2 1_555 1_555
H37_2 C33_2 1_555 1_555
H38_2 C33_2 1_555 1_555
H39_2 C33_2 1_555 1_555
N9_2 C34_2 1_555 1_555
C34_2 O13_2 1_555 1_555
H40_2 C34_2 1_555 1_555
C35_2 N9_2 1_555 1_555
H41_2 C35_2 1_555 1_555
H42_2 C35_2 1_555 1_555
H43_2 C35_2 1_555 1_555
C36_2 N9_2 1_555 1_555
H44_2 C36_2 1_555 1_555
H45_2 C36_2 1_555 1_555
H46_2 C36_2 1_555 1_555
O16_2 N6_2 1_555 1_555
N11 Cu6 1_555 1_555
O2_2 Na2 1_555 1_555
O4_2 C8_2 1_555 1_555
C19_2 N2_2 1_555 1_555
O10_2 Na2 1_555 1_555
O18 N6_2 1_555 1_555
Sr3 O1_2 1_555 1_555
Sr4 O1_2 1_555 1_555
O1_2 C12_2 1_555 1_555
O3_2 Sr3 1_555 1_555
C2_2 O3_2 1_555 1_555
C3_2 C2_2 1_555 1_555
C4_2 C5_2 1_555 1_555
O5_2 Sr4 1_555 1_555
O6_2 Sr3 1_555 1_555
C5_2 H1_2 1_555 1_555
C6_2 C4_2 1_555 1_555
H2_2 C6_2 1_555 1_555
C7_2 C3_2 1_555 1_555
H3_2 C7_2 1_555 1_555
C9_2 C5_2 1_555 1_555
H4_2 C9_2 1_555 1_555
C10_2 O6_2 1_555 1_555
O7_2 Sr3 1_555 1_555
C11_2 C6_2 1_555 1_555
H5_2 C11_2 1_555 1_555
C12_2 C4_2 1_555 1_555
O8_2 Sr4 1_555 1_555
C15_2 C3_2 1_555 1_555
H8_2 C15_2 1_555 1_555
N1_2 C17_2 1_555 1_555
C16_2 C10_2 1_555 1_555
C17_2 O7_2 1_555 1_555
H9_2 C17_2 1_555 1_555
C20_2 N1_2 1_555 1_555
H12_2 C20_2 1_555 1_555
H13_2 C20_2 1_555 1_555
H14_2 C20_2 1_555 1_555
O17 C2_2 1_555 1_555
N3_2 C9_2 1_555 1_555
N4 C21_2 1_555 1_555
C21_2 C7_2 1_555 1_555
H15_2 C21_2 1_555 1_555
C22_2 C15_2 1_555 1_555
H16_2 C22_2 1_555 1_555
C23_2 C16_2 1_555 1_555
H17_2 C23_2 1_555 1_555
C24_2 C16_2 1_555 1_555
H18_2 C24_2 1_555 1_555
C25_2 C24_2 1_555 1_555
H19_2 C25_2 1_555 1_555
N11 C25_2 1_555 1_555
C26_2 C23_2 1_555 1_555
H20_2 C26_2 1_555 1_555
C30_2 N1_2 1_555 1_555
H28_2 C30_2 1_555 1_555
H29_2 C30_2 1_555 1_555
H30_2 C30_2 1_555 1_555
O14_2 Sr3 1_555 1_555
H31_2 O14_2 1_555 1_555
H32_2 O14_2 1_555 1_555
Cu4 N4 1_555 1_555
O5_2 C12_2 1_555 1_555
C10_2 O8_2 1_555 1_555
C11_2 N3_2 1_555 1_555
N4 C22_2 1_555 1_555
N11 C26_2 1_555 1_555

#END
