
###############################################################################
#
# This file contains modified crystal structure data generated from the
# MOF subset of the Cambridge Structural Database (CSD) v543 
# hosted by the Cambridge Crystallographic Data Centre (CCDC).
#
# This work is licensed under the Creative Commons
# Attribution-NonCommercial-ShareAlike 4.0 International License.
# To view a copy of this license, visit
# http://creativecommons.org/licenses/by-nc-sa/4.0/
# or send a letter to
# Creative Commons, PO Box 1866, Mountain View, CA 94042, USA.
#
# CIF created using the CSD Python API on 29 September 2022
# The structure has been converted into the P1 space group
# The structure has a 3D framework
# The original CSD entry PIDVUW is in the rhombohedral crystal system
# The original CSD entry PIDVUW is in a Sohncke space group
# The framework has been calculated to contain at least 10.0% void space
# The void calculation uses a probe of radius 1.32A, grid spacing 0.4
# H atom positions have been added when not included in the experimental data
#
###############################################################################

data_PIDVUW
_chemical_formula_moiety         '(C360 H288 Cd18 N72 O90)n'
_symmetry_cell_setting           triclinic
_symmetry_space_group_name_H-M   'P 1'
_symmetry_Int_Tables_number      1
_space_group_name_Hall           'P 1'
loop_
_symmetry_equiv_pos_site_id
_symmetry_equiv_pos_as_xyz
1 x,y,z
_cell_length_a                   13.8046(11)
_cell_length_b                   13.8046(11)
_cell_length_c                   61.007(5)
_cell_angle_alpha                90
_cell_angle_beta                 90
_cell_angle_gamma                120
_cell_volume                     10068.3
loop_
_atom_site_label
_atom_site_type_symbol
_atom_site_fract_x
_atom_site_fract_y
_atom_site_fract_z
Cd1 Cd 0.64019(5) 0.02909(5) 0.08412(2)
C1 C 0.3889(7) 0.2283(7) 0.20972(12)
H1 H 0.353939 0.248500 0.199106
C2 C 0.4470(9) 0.2040(9) 0.24005(11)
H2 H 0.459638 0.203509 0.255010
C3 C 0.4864(10) 0.1638(10) 0.22484(12)
H3 H 0.531274 0.132148 0.227127
C4 C 0.4695(6) 0.1467(6) 0.18424(11)
C5 C 0.4663(8) 0.0448(8) 0.18193(13)
C6 C 0.4906(8) 0.0167(8) 0.16125(12)
C7 C 0.5159(6) 0.0916(6) 0.14358(12)
C8 C 0.5130(6) 0.1885(7) 0.14610(11)
H6 H 0.526145 0.235155 0.134123
C9 C 0.4904(6) 0.2176(6) 0.16662(11)
H7 H 0.489408 0.284022 0.168417
C10 C 0.5501(7) 0.0648(7) 0.12181(12)
C12 C 0.4020(7) 0.0012(8) 0.06803(13)
H9 H 0.399736 0.039370 0.080402
N1 N 0.3858(6) 0.2458(6) 0.23086(9)
N2 N 0.4483(6) 0.1783(6) 0.20526(9)
O1 O 0.5924(6) 0.1390(6) 0.10795(8)
Cd3 Cd 0.27777(7) 0.30424(5) 0.24921(2)
N5 N 0.8067(8) 0.0875(6) 0.10247(9)
O6 O 0.7338(6) 0.0573(6) 0.04994(8)
O7 O 0.7164(6) 0.1980(5) 0.06067(9)
C16 C 0.1526(9) 0.8087(10) 0.99149(13)
H12 H 0.080602 0.795562 0.988957
C17 C 0.2077(8) 0.7864(7) 0.97518(11)
C18 C 0.3135(7) 0.8064(7) 0.97918(12)
H13 H 0.351808 0.792173 0.968280
C19 C 0.3643(7) 0.8474(8) 0.99924(11)
C20 C 0.1527(7) 0.7431(7) 0.95315(11)
O4 O 0.0573(6) 0.7338(6) 0.95006(8)
O5 O 0.1980(5) 0.7164(6) 0.93933(9)
Cd2 Cd 0.02909(5) 0.64019(5) 0.91588(2)
C1_2 C 0.2283(7) 0.3889(7) 0.79028(12)
H1_2 H 0.248500 0.353939 0.800894
C2_2 C 0.2040(9) 0.4470(9) 0.75995(11)
H2_2 H 0.203509 0.459638 0.744990
C3_2 C 0.1638(10) 0.4864(10) 0.77516(12)
H3_2 H 0.132148 0.531274 0.772873
C4_2 C 0.1467(6) 0.4695(6) 0.81576(11)
C5_2 C 0.0448(8) 0.4663(8) 0.81807(13)
C6_2 C 0.0167(8) 0.4906(8) 0.83875(12)
C7_2 C 0.0916(6) 0.5159(6) 0.85642(12)
C8_2 C 0.1885(7) 0.5130(6) 0.85390(11)
H6_2 H 0.235155 0.526145 0.865877
C9_2 C 0.2176(6) 0.4904(6) 0.83338(11)
H7_2 H 0.284022 0.489408 0.831583
C10_2 C 0.0648(7) 0.5501(7) 0.87819(12)
C12_2 C 0.0012(8) 0.4020(7) 0.93197(13)
H9_2 H 0.039370 0.399736 0.919598
N1_2 N 0.2458(6) 0.3858(6) 0.76914(9)
N2_2 N 0.1783(6) 0.4483(6) 0.79474(9)
O1_2 O 0.1390(6) 0.5924(6) 0.89205(8)
Cd3_2 Cd 0.30424(5) 0.27777(7) 0.75079(2)
N5_2 N 0.0875(6) 0.8067(8) 0.89753(9)
C16_2 C 0.8087(10) 0.1526(9) 0.00851(13)
H12_2 H 0.795562 0.080602 0.011043
C17_2 C 0.7864(7) 0.2077(8) 0.02482(11)
C18_2 C 0.8064(7) 0.3135(7) 0.02082(12)
H13_2 H 0.792173 0.351808 0.031720
C19_2 C 0.8474(8) 0.3643(7) 0.00076(11)
C20_2 C 0.7431(7) 0.1527(7) 0.04685(11)
C13 C 0.3064(11) 0.0063(8) 0.38437(12)
H10 H 0.377850 0.068073 0.383116
C14 C 0.2265(10) 0.0256(7) 0.34892(12)
C15 C 0.3142(13) 0.1307(8) 0.34485(14)
H11 H 0.367890 0.168367 0.355599
C16_3 C 0.3228(13) 0.1807(9) 0.32482(13)
H12_3 H 0.381627 0.252731 0.322290
C17_3 C 0.2454(11) 0.1256(8) 0.30851(11)
C18_3 C 0.1596(10) 0.0198(7) 0.31251(12)
C20_3 C 0.2571(10) 0.1806(7) 0.28648(11)
O4_2 O 0.3432(8) 0.2760(6) 0.28339(8)
O5_2 O 0.1851(8) 0.1353(5) 0.27266(9)
Cd3_3 Cd 0.69314(9) 0.05557(7) 0.58255(2)
Cd1_2 Cd 0.05557(7) 0.69314(5) 0.41745(2)
C1_3 C 0.5061(10) 0.9444(7) 0.54305(12)
H1_3 H 0.561228 0.979394 0.532439
C2_3 C 0.4237(13) 0.8863(9) 0.57338(11)
H2_3 H 0.410538 0.873695 0.588343
C3_3 C 0.3441(14) 0.8469(10) 0.55817(12)
H3_3 H 0.267541 0.802059 0.560460
C4_3 C 0.3439(8) 0.8638(6) 0.51757(11)
C5_3 C 0.2452(11) 0.8670(8) 0.51526(13)
H4 H 0.214435 0.884739 0.527100
C6_3 C 0.1928(11) 0.8427(8) 0.49458(12)
H5 H 0.126354 0.843425 0.492600
C7_3 C 0.2424(8) 0.8174(6) 0.47691(12)
C8_3 C 0.3422(9) 0.8203(6) 0.47943(11)
H6_3 H 0.375677 0.807188 0.467456
C9_3 C 0.3939(8) 0.8429(6) 0.49995(11)
H7_3 H 0.461281 0.843925 0.501750
C10_3 C 0.1814(10) 0.7832(7) 0.45514(12)
C11 C 0.1336(11) 0.8804(8) 0.37825(13)
H8 H 0.063948 0.840349 0.371542
C12_3 C 0.2659(11) 0.9313(7) 0.40136(13)
H9_3 H 0.306301 0.933597 0.413735
H13_3 H 0.107032 0.981525 0.301613
C19_3 C 0.1498(11) 0.9690(7) 0.33257(11)
H14 H 0.091476 0.896645 0.335027
N1_3 N 0.5267(8) 0.9475(6) 0.56419(9)
N2_3 N 0.3967(8) 0.8850(6) 0.53859(9)
N3 N 0.1583(8) 0.8537(6) 0.39736(9)
N4 N 0.2205(8) 0.9722(6) 0.36962(9)
O1_3 O 0.2133(8) 0.7409(6) 0.44128(8)
O3 O 0.0981(8) 0.7940(6) 0.45218(9)
O7_2 O 0.1483(8) 0.6169(6) 0.39400(9)
O2 O 0.9063(12) 0.7289(10) 0.41663(11)
N5_3 N 0.9475(10) 0.5267(8) 0.43581(9)
O6_2 O 0.9902(8) 0.5995(6) 0.38327(8)
H15 H 0.884532 0.730716 0.401187
H16 H 0.841506 0.668987 0.424694
H3_4 H 0.065793 0.201185 0.106206
C5_4 C 0.0882(11) 0.2885(8) 0.15140(13)
H4_2 H 0.118899 0.336971 0.139566
C6_4 C 0.1406(11) 0.3166(8) 0.17208(12)
H5_2 H 0.206980 0.383738 0.174066
C7_4 C 0.0910(8) 0.2417(6) 0.18975(12)
C10_4 C 0.1520(10) 0.2685(7) 0.21152(12)
C11_2 C 0.1998(11) 0.4135(8) 0.28841(13)
H8_2 H 0.269386 0.443068 0.295124
C12_4 C 0.0675(11) 0.3321(8) 0.26530(13)
H9_4 H 0.027033 0.293963 0.252931
C13_2 C 0.0270(11) 0.3666(7) 0.28229(12)
C14_2 C 0.1069(10) 0.4658(7) 0.31774(12)
C15_2 C 0.0192(13) 0.4832(10) 0.32181(14)
C16_4 C 0.0106(13) 0.5246(10) 0.34184(13)
C17_4 C 0.0880(11) 0.5469(7) 0.35815(11)
C18_4 C 0.1738(10) 0.5269(7) 0.35415(12)
H13_4 H 0.226302 0.541160 0.365053
C19_4 C 0.1836(11) 0.4859(8) 0.33409(11)
H14_2 H 0.241858 0.471836 0.331639
C20_4 C 0.0763(10) 0.5902(7) 0.38018(11)
N3_2 N 0.1751(8) 0.3621(6) 0.26930(9)
N4_2 N 0.1129(8) 0.4184(6) 0.29704(9)
O1_4 O 0.1201(8) 0.1943(6) 0.22538(8)
O2_2 O 0.4271(12) 0.4893(7) 0.25003(11)
O3_2 O 0.2353(8) 0.3626(6) 0.21448(9)
H15_2 H 0.448801 0.51285 0.26548
H16_2 H 0.491827 0.494148 0.241973
C1_4 C 0.8273(10) 0.1050(7) 0.12361(12)
H1_4 H 0.772106 0.084833 0.134227
C2_4 C 0.9097(13) 0.1293(9) 0.09328(11)
H2_4 H 0.922796 0.129824 0.078323
C3_4 C 0.9893(14) 0.1695(10) 0.10849(12)
C4_4 C 0.9895(8) 0.1866(6) 0.14909(11)
C8_4 C 0.9912(9) 0.1448(7) 0.18723(11)
H6_4 H 0.957657 0.098178 0.199210
C9_4 C 0.9395(8) 0.1157(6) 0.16671(11)
H7_4 H 0.872053 0.049311 0.164916
H10_2 H 0.955484 0.356890 0.283550
H11_2 H 0.965444 0.467144 0.311067
H12_4 H 0.951707 0.537771 0.344376
N2_4 N 0.9367(8) 0.1550(6) 0.12807(9)
H3_5 H 0.201185 0.065793 0.893794
C5_5 C 0.2885(8) 0.0882(11) 0.84860(13)
H4_3 H 0.336971 0.118899 0.860434
C6_5 C 0.3166(8) 0.1406(11) 0.82792(12)
H5_3 H 0.383738 0.206980 0.825934
C7_5 C 0.2417(6) 0.0910(8) 0.81025(12)
C10_5 C 0.2685(7) 0.1520(10) 0.78848(12)
C11_3 C 0.4135(8) 0.1998(11) 0.71159(13)
H8_3 H 0.443068 0.269386 0.704876
C12_5 C 0.3321(8) 0.0675(11) 0.73470(13)
H9_5 H 0.293963 0.027033 0.747069
C13_3 C 0.3666(7) 0.0270(11) 0.71771(12)
C14_3 C 0.4658(7) 0.1069(10) 0.68226(12)
C15_3 C 0.4832(10) 0.0192(13) 0.67819(14)
C16_5 C 0.5246(10) 0.0106(13) 0.65816(13)
C17_5 C 0.5469(7) 0.0880(11) 0.64185(11)
C18_5 C 0.5269(7) 0.1738(10) 0.64585(12)
H13_5 H 0.541160 0.226302 0.634947
C19_5 C 0.4859(8) 0.1836(11) 0.66591(11)
H14_3 H 0.471836 0.241858 0.668361
C20_5 C 0.5902(7) 0.0763(10) 0.61982(11)
N3_3 N 0.3621(6) 0.1751(8) 0.73070(9)
N4_3 N 0.4184(6) 0.1129(8) 0.70296(9)
O1_5 O 0.1943(6) 0.1201(8) 0.77462(8)
O2_3 O 0.4893(7) 0.4271(12) 0.74997(11)
O3_3 O 0.3626(6) 0.2353(8) 0.78552(9)
O5_3 O 0.6169(6) 0.1483(8) 0.60600(9)
O6_3 O 0.2760(6) 0.3432(8) 0.71661(8)
O7_3 O 0.1353(5) 0.1851(8) 0.72734(9)
H15_3 H 0.51285 0.448801 0.73452
H16_3 H 0.494148 0.491827 0.758027
C1_5 C 0.1050(7) 0.8273(10) 0.87639(12)
H1_5 H 0.084833 0.772106 0.865773
C2_5 C 0.1293(9) 0.9097(13) 0.90672(11)
H2_5 H 0.129824 0.922796 0.921677
C3_5 C 0.1695(10) 0.9893(14) 0.89151(12)
C4_5 C 0.1866(6) 0.9895(8) 0.85091(11)
C8_5 C 0.1448(7) 0.9912(9) 0.81277(11)
H6_5 H 0.098178 0.957657 0.800790
C9_5 C 0.1157(6) 0.9395(8) 0.83329(11)
H7_5 H 0.049311 0.872053 0.835084
H10_3 H 0.356890 0.955484 0.716450
H11_3 H 0.467144 0.965444 0.688933
H12_5 H 0.537771 0.951707 0.655624
N2_5 N 0.1550(6) 0.9367(8) 0.87193(9)
O4_3 O 0.5995(6) 0.9902(8) 0.61673(8)
C13_4 C 0.0063(8) 0.3064(11) 0.61563(12)
H10_4 H 0.068073 0.377850 0.616884
C14_4 C 0.0256(7) 0.2265(10) 0.65108(12)
C15_4 C 0.1307(8) 0.3142(13) 0.65515(14)
H11_4 H 0.168367 0.367890 0.644401
C16_6 C 0.1807(9) 0.3228(13) 0.67518(13)
H12_6 H 0.252731 0.381627 0.677710
C17_6 C 0.1256(8) 0.2454(11) 0.69149(11)
C18_6 C 0.0198(7) 0.1596(10) 0.68749(12)
C20_6 C 0.1806(7) 0.2571(10) 0.71352(11)
C1_6 C 0.9444(7) 0.5061(10) 0.45695(12)
H1_6 H 0.979394 0.561228 0.467561
C2_6 C 0.8863(9) 0.4237(13) 0.42662(11)
H2_6 H 0.873695 0.410538 0.411657
C3_6 C 0.8469(10) 0.3441(14) 0.44183(12)
H3_6 H 0.802059 0.267541 0.439540
C4_6 C 0.8638(6) 0.3439(8) 0.48243(11)
C5_6 C 0.8670(8) 0.2452(11) 0.48474(13)
H4_4 H 0.884739 0.214435 0.472900
C6_6 C 0.8427(8) 0.1928(11) 0.50542(12)
H5_4 H 0.843425 0.126354 0.507400
C7_6 C 0.8174(6) 0.2424(8) 0.52309(12)
C8_6 C 0.8203(6) 0.3422(9) 0.52057(11)
H6_6 H 0.807188 0.375677 0.532544
C9_6 C 0.8429(6) 0.3939(8) 0.50005(11)
H7_6 H 0.843925 0.461281 0.498250
C10_6 C 0.7832(7) 0.1814(10) 0.54486(12)
C11_4 C 0.8804(8) 0.1336(11) 0.62175(13)
H8_4 H 0.840349 0.063948 0.628458
C12_6 C 0.9313(7) 0.2659(11) 0.59864(13)
H9_6 H 0.933597 0.306301 0.586265
H13_6 H 0.981525 0.107032 0.698387
C19_6 C 0.9690(7) 0.1498(11) 0.66743(11)
H14_4 H 0.896645 0.091476 0.664973
N2_6 N 0.8850(6) 0.3967(8) 0.46141(9)
N3_4 N 0.8537(6) 0.1583(8) 0.60264(9)
N4_4 N 0.9722(6) 0.2205(8) 0.63038(9)
O1_6 O 0.7409(6) 0.2133(8) 0.55872(8)
O3_4 O 0.7940(6) 0.0981(8) 0.54782(9)
O2_4 O 0.7289(10) 0.9063(12) 0.58337(11)
H15_4 H 0.730716 0.884532 0.598813
H16_4 H 0.668987 0.841506 0.575306
H4_5 H 0.448594 0.996362 0.193767
H5_5 H 0.489908 0.949595 0.159267
C11_5 C 0.4529(8) 0.9198(8) 0.04492(13)
H8_5 H 0.492984 0.890265 0.038209
C13_5 C 0.3270(8) 0.9667(7) 0.05104(12)
H10_5 H 0.265260 0.976443 0.049783
C14_5 C 0.3077(7) 0.8675(7) 0.01559(12)
C15_5 C 0.2026(8) 0.8501(10) 0.01152(14)
H11_5 H 0.164966 0.866189 0.022266
H14_5 H 0.436688 0.861497 0.001694
N3_5 N 0.4796(6) 0.9712(6) 0.06403(9)
N4_5 N 0.3611(6) 0.9149(6) 0.03629(9)
O2_5 O 0.6044(10) 0.8440(7) 0.08330(11)
O3_5 O 0.5393(6) 0.9707(6) 0.11885(9)
H15_5 H 0.602618 0.820483 0.0678533
H16_5 H 0.664346 0.839185 0.0913606
H4_6 H 0.003638 0.452232 0.193767
H5_6 H 0.050405 0.540313 0.159267
C11_6 C 0.0802(8) 0.5331(11) 0.04492(13)
H8_6 H 0.109735 0.602719 0.038209
C13_6 C 0.0333(7) 0.3603(11) 0.05104(12)
H10_6 H 0.023557 0.288817 0.049783
C14_6 C 0.1325(7) 0.4402(10) 0.01559(12)
C15_6 C 0.1499(10) 0.3525(13) 0.01152(14)
H11_6 H 0.133811 0.298777 0.022266
H14_6 H 0.138503 0.575191 0.001694
N3_6 N 0.0288(6) 0.5084(8) 0.06403(9)
N4_6 N 0.0851(6) 0.4462(8) 0.03629(9)
O2_6 O 0.1560(7) 0.7604(12) 0.08330(11)
O3_6 O 0.0293(6) 0.5686(8) 0.11885(9)
H15_6 H 0.179517 0.782135 0.0678533
H16_6 H 0.160815 0.825161 0.0913606
C16_7 C 0.1913(10) 0.3439(13) 0.99149(13)
H12_7 H 0.204438 0.285040 0.988957
C17_7 C 0.2136(7) 0.4213(11) 0.97518(11)
C18_7 C 0.1936(7) 0.5071(10) 0.97918(12)
H13_7 H 0.207827 0.559635 0.968280
C19_7 C 0.1526(8) 0.5169(11) 0.99924(11)
C20_7 C 0.2569(7) 0.4096(10) 0.95315(11)
O4_4 O 0.2662(6) 0.3235(8) 0.95006(8)
O5_4 O 0.2836(6) 0.4816(8) 0.93933(9)
Cd2_2 Cd 0.35981(5) 0.38890(7) 0.91588(2)
Cd1_3 Cd 0.97091(5) 0.61110(7) 0.08412(2)
C1_7 C 0.7717(7) 0.1606(10) 0.20972(12)
H1_7 H 0.751500 0.105439 0.199106
C2_7 C 0.7960(9) 0.2430(13) 0.24005(11)
H2_7 H 0.796491 0.256129 0.255010
C3_7 C 0.8362(10) 0.3226(14) 0.22484(12)
H3_7 H 0.867852 0.399126 0.227127
C4_7 C 0.8533(6) 0.3228(8) 0.18424(11)
C5_7 C 0.9552(8) 0.4215(11) 0.18193(13)
C6_7 C 0.9833(8) 0.4739(11) 0.16125(12)
C7_7 C 0.9084(6) 0.4243(8) 0.14358(12)
C8_7 C 0.8115(7) 0.3245(9) 0.14610(11)
H6_7 H 0.764845 0.290990 0.134123
C9_7 C 0.7824(6) 0.2728(8) 0.16662(11)
H7_7 H 0.715978 0.205386 0.168417
C10_7 C 0.9352(7) 0.4853(10) 0.12181(12)
C12_7 C 0.9988(8) 0.4008(11) 0.06803(13)
H9_7 H 0.960630 0.360366 0.080402
N1_4 N 0.7542(6) 0.1400(8) 0.23086(9)
N2_7 N 0.8217(6) 0.2700(8) 0.20526(9)
O1_7 O 0.8610(6) 0.4534(8) 0.10795(8)
N5_4 N 0.9125(6) 0.7191(10) 0.10247(9)
O6_4 O 0.9427(6) 0.6765(8) 0.04994(8)
O7_4 O 0.8020(5) 0.5184(8) 0.06067(9)
Cd3_4 Cd 0.69576(5) 0.97352(9) 0.24921(2)
Cd3_5 Cd 0.72223(7) 0.02648(9) 0.75079(2)
C16_8 C 0.8474(9) 0.6561(13) 0.00851(13)
H12_8 H 0.919398 0.714960 0.011043
C17_8 C 0.7923(8) 0.5787(11) 0.02482(11)
C18_8 C 0.6865(7) 0.4929(10) 0.02082(12)
H13_8 H 0.648192 0.440365 0.031720
C19_8 C 0.6357(7) 0.4831(11) 0.00076(11)
C20_8 C 0.8473(7) 0.5904(10) 0.04685(11)
C1_8 C 0.6111(7) 0.8394(10) 0.79028(12)
H1_8 H 0.646061 0.894561 0.800894
C2_8 C 0.5530(9) 0.7570(13) 0.75995(11)
H2_8 H 0.540362 0.743871 0.744990
C3_8 C 0.5136(10) 0.6774(14) 0.77516(12)
H3_8 H 0.468726 0.600874 0.772873
C4_8 C 0.5305(6) 0.6772(8) 0.81576(11)
C5_8 C 0.5337(8) 0.5785(11) 0.81807(13)
H4_7 H 0.551406 0.547768 0.806233
C6_8 C 0.5094(8) 0.5261(11) 0.83875(12)
H5_7 H 0.510092 0.459687 0.840733
C7_8 C 0.4841(6) 0.5757(8) 0.85642(12)
C8_8 C 0.4870(6) 0.6755(9) 0.85390(11)
H6_8 H 0.473855 0.709010 0.865877
C9_8 C 0.5096(6) 0.7272(8) 0.83338(11)
H7_8 H 0.510592 0.794614 0.831583
C10_8 C 0.4499(7) 0.5147(10) 0.87819(12)
C11_7 C 0.5471(8) 0.4669(11) 0.95508(13)
H8_7 H 0.507016 0.397281 0.961791
C12_8 C 0.5980(7) 0.5992(11) 0.93197(13)
H9_8 H 0.600264 0.639634 0.919598
C13_7 C 0.6730(8) 0.6397(11) 0.94896(12)
H10_7 H 0.734740 0.711183 0.950217
C14_7 C 0.6923(7) 0.5598(10) 0.98441(12)
C15_7 C 0.7974(8) 0.6475(13) 0.98848(14)
H11_7 H 0.835034 0.701223 0.977734
H14_7 H 0.563312 0.424809 0.998306
N1_5 N 0.6142(6) 0.8600(8) 0.76914(9)
N2_8 N 0.5517(6) 0.7300(8) 0.79474(9)
N3_7 N 0.5204(6) 0.4916(8) 0.93597(9)
N4_7 N 0.6389(6) 0.5538(8) 0.96371(9)
O1_8 O 0.4076(6) 0.5466(8) 0.89205(8)
O2_7 O 0.3956(10) 0.2396(12) 0.91670(11)
O3_7 O 0.4607(6) 0.4314(8) 0.88115(9)
N5_5 N 0.1933(8) 0.2809(10) 0.89753(9)
H15_7 H 0.397382 0.217865 0.932147
H16_7 H 0.335654 0.174839 0.908639
Cd1_4 Cd 0.30686(5) 0.36242(5) 0.41745(2)
C1_9 C 0.0556(7) 0.5616(7) 0.54305(12)
H1_9 H 0.020606 0.581833 0.532439
C2_9 C 0.1137(9) 0.5373(9) 0.57338(11)
H2_9 H 0.126305 0.536842 0.588343
C3_9 C 0.1531(10) 0.4971(10) 0.55817(12)
H3_9 H 0.197941 0.465481 0.560460
C4_9 C 0.1362(6) 0.4800(6) 0.51757(11)
C5_9 C 0.1330(8) 0.3781(8) 0.51526(13)
H4_8 H 0.115261 0.329695 0.527100
C6_9 C 0.1573(8) 0.3500(8) 0.49458(12)
H5_8 H 0.156575 0.282928 0.492600
C7_9 C 0.1826(6) 0.4249(6) 0.47691(12)
C8_9 C 0.1797(6) 0.5218(7) 0.47943(11)
H6_9 H 0.192812 0.568488 0.467456
C9_9 C 0.1571(6) 0.5509(6) 0.49995(11)
H7_9 H 0.156075 0.617355 0.501750
C10_9 C 0.2168(7) 0.3981(7) 0.45514(12)
C11_8 C 0.1196(8) 0.2531(8) 0.37825(13)
H8_8 H 0.159651 0.223598 0.371542
C12_9 C 0.0687(7) 0.3345(8) 0.40136(13)
H9_9 H 0.066403 0.372703 0.413735
H13_9 H 0.018475 0.125506 0.301613
C19_9 C 0.0310(7) 0.1807(8) 0.33257(11)
H14_8 H 0.103355 0.194830 0.335027
N1_6 N 0.0525(6) 0.5791(6) 0.56419(9)
N2_9 N 0.1150(6) 0.5116(6) 0.53859(9)
N3_8 N 0.1463(6) 0.3045(6) 0.39736(9)
N4_8 N 0.0278(6) 0.2482(6) 0.36962(9)
O1_9 O 0.2591(6) 0.4723(6) 0.44128(8)
O2_8 O 0.2711(10) 0.1773(7) 0.41663(11)
O3_8 O 0.2060(6) 0.3040(6) 0.45218(9)
N5_6 N 0.4733(8) 0.4209(6) 0.43581(9)
O6_5 O 0.4005(6) 0.3906(6) 0.38327(8)
O7_5 O 0.3831(6) 0.5313(5) 0.39400(9)
H15_8 H 0.269284 0.153816 0.401187
H16_8 H 0.331013 0.172519 0.424694
C13_8 C 0.9937(8) 0.3000(7) 0.38437(12)
H10_8 H 0.931927 0.309776 0.383116
C14_8 C 0.9744(7) 0.2008(7) 0.34892(12)
C15_8 C 0.8693(8) 0.1834(10) 0.34485(14)
H11_8 H 0.831633 0.199522 0.355599
C16_9 C 0.8193(9) 0.1420(10) 0.32482(13)
H12_9 H 0.747269 0.128895 0.322290
C17_9 C 0.8744(8) 0.1197(7) 0.30851(11)
C18_9 C 0.9802(7) 0.1397(7) 0.31251(12)
C20_9 C 0.8194(7) 0.0764(7) 0.28648(11)
O4_5 O 0.7240(6) 0.0671(6) 0.28339(8)
O5_5 O 0.8647(5) 0.0497(6) 0.27266(9)
Cd3_6 Cd 0.94443(7) 0.63758(5) 0.58255(2)
C1_10 C 0.8950(7) 0.7222(7) 0.12361(12)
H1_10 H 0.915167 0.687272 0.134227
C2_10 C 0.8707(9) 0.7803(9) 0.09328(11)
H2_10 H 0.870176 0.792971 0.078323
C3_10 C 0.8305(10) 0.8197(10) 0.10849(12)
H3_10 H 0.798815 0.864607 0.106206
C4_10 C 0.8134(6) 0.8028(6) 0.14909(11)
C5_10 C 0.7115(8) 0.7996(8) 0.15140(13)
H4_9 H 0.663029 0.781927 0.139566
C6_10 C 0.6834(8) 0.8239(8) 0.17208(12)
H5_9 H 0.616262 0.823241 0.174066
C7_10 C 0.7583(6) 0.8492(6) 0.18975(12)
C8_10 C 0.8552(7) 0.8463(6) 0.18723(11)
H6_10 H 0.901822 0.859478 0.199210
C9_10 C 0.8843(6) 0.8237(6) 0.16671(11)
H7_10 H 0.950689 0.822741 0.164916
C10_10 C 0.7315(7) 0.8834(7) 0.21152(12)
C11_9 C 0.5865(8) 0.7862(8) 0.28841(13)
H8_9 H 0.556932 0.826317 0.295124
C12_10 C 0.6679(8) 0.7353(7) 0.26530(13)
H9_10 H 0.706037 0.733069 0.252931
C13_9 C 0.6334(7) 0.6603(8) 0.28229(12)
H10_9 H 0.643110 0.598593 0.283550
C14_9 C 0.5342(7) 0.6410(7) 0.31774(12)
C15_9 C 0.5168(10) 0.5359(8) 0.32181(14)
H11_9 H 0.532856 0.498299 0.311067
C16_10 C 0.4754(10) 0.4859(9) 0.34184(13)
H12_10 H 0.462229 0.413935 0.344376
C17_10 C 0.4531(7) 0.5410(8) 0.35815(11)
C18_10 C 0.4731(7) 0.6468(7) 0.35415(12)
H13_10 H 0.458840 0.685141 0.365053
C19_10 C 0.5141(8) 0.6976(7) 0.33409(11)
H14_9 H 0.528164 0.770021 0.331639
C20_10 C 0.4098(7) 0.4860(7) 0.38018(11)
N2_10 N 0.8450(6) 0.7816(6) 0.12807(9)
N3_9 N 0.6379(6) 0.8129(6) 0.26930(9)
N4_9 N 0.5816(6) 0.6944(6) 0.29704(9)
O1_10 O 0.8057(6) 0.9257(6) 0.22538(8)
O2_9 O 0.5107(7) 0.9377(10) 0.25003(11)
O3_9 O 0.6374(6) 0.8726(6) 0.21448(9)
H15_9 H 0.48715 0.935951 0.26548
H16_9 H 0.505852 0.997679 0.241973
C1_11 C 0.1727(10) 0.2778(7) 0.87639(12)
H1_11 H 0.227894 0.312728 0.865773
C2_11 C 0.0903(13) 0.2197(9) 0.90672(11)
H2_11 H 0.077204 0.207029 0.921677
C3_11 C 0.0107(14) 0.1803(10) 0.89151(12)
C4_11 C 0.0105(8) 0.1972(6) 0.85091(11)
C8_11 C 0.0088(9) 0.1537(6) 0.81277(11)
H6_11 H 0.042343 0.140522 0.800790
C9_11 C 0.0605(8) 0.1763(6) 0.83329(11)
H7_11 H 0.127947 0.177259 0.835084
H10_10 H 0.044516 0.401407 0.716450
H11_10 H 0.034556 0.501701 0.688933
H12_11 H 0.048293 0.586065 0.655624
N2_11 N 0.0633(8) 0.2184(6) 0.87193(9)
O4_6 O 0.0098(8) 0.6094(6) 0.61673(8)
H3_11 H 0.934207 0.135393 0.893794
C5_11 C 0.9118(11) 0.2004(8) 0.84860(13)
H4_10 H 0.881101 0.218073 0.860434
C6_11 C 0.8594(11) 0.1761(8) 0.82792(12)
H5_10 H 0.793020 0.176759 0.825934
C7_11 C 0.9090(8) 0.1508(6) 0.81025(12)
C10_11 C 0.8480(10) 0.1166(7) 0.78848(12)
C11_10 C 0.8002(11) 0.2138(8) 0.71159(13)
H8_10 H 0.730614 0.173683 0.704876
C12_11 C 0.9325(11) 0.2647(7) 0.73470(13)
H9_11 H 0.972967 0.266931 0.747069
C13_10 C 0.9730(11) 0.3397(8) 0.71771(12)
C14_10 C 0.8931(10) 0.3590(7) 0.68226(12)
C15_10 C 0.9808(13) 0.4641(8) 0.67819(14)
C16_11 C 0.9894(13) 0.5141(9) 0.65816(13)
C17_11 C 0.9120(11) 0.4590(8) 0.64185(11)
C18_11 C 0.8262(10) 0.3532(7) 0.64585(12)
H13_11 H 0.773698 0.314859 0.634947
C19_11 C 0.8164(11) 0.3024(7) 0.66591(11)
H14_10 H 0.758142 0.229979 0.668361
C20_11 C 0.9237(10) 0.5140(7) 0.61982(11)
N3_10 N 0.8249(8) 0.1871(6) 0.73070(9)
N4_10 N 0.8871(8) 0.3056(6) 0.70296(9)
O1_11 O 0.8799(8) 0.0743(6) 0.77462(8)
O2_10 O 0.5729(12) 0.0623(10) 0.74997(11)
O3_10 O 0.7647(8) 0.1274(6) 0.78552(9)
O5_6 O 0.8517(8) 0.4687(5) 0.60600(9)
H15_10 H 0.551199 0.0640492 0.73452
H16_10 H 0.508173 0.0023206 0.758027
O6_6 O 0.6568(8) 0.9329(6) 0.71661(8)
O7_6 O 0.8149(8) 0.9503(6) 0.72734(9)
O2_11 O 0.0937(12) 0.8227(7) 0.58337(11)
H15_11 H 0.115468 0.846184 0.598813
H16_11 H 0.158494 0.827481 0.575306
C1_12 C 0.4939(10) 0.4384(7) 0.45695(12)
H1_12 H 0.438772 0.418167 0.467561
C2_12 C 0.5763(13) 0.4627(9) 0.42662(11)
H2_12 H 0.589462 0.463158 0.411657
C3_12 C 0.6559(14) 0.5029(10) 0.44183(12)
H3_12 H 0.732459 0.534519 0.439540
C4_12 C 0.6561(8) 0.5200(6) 0.48243(11)
C5_12 C 0.7548(11) 0.6219(8) 0.48474(13)
H4_11 H 0.785565 0.670305 0.472900
C6_12 C 0.8072(11) 0.6500(8) 0.50542(12)
H5_11 H 0.873646 0.717072 0.507400
C7_12 C 0.7576(8) 0.5751(6) 0.52309(12)
C8_12 C 0.6578(9) 0.4782(7) 0.52057(11)
H6_12 H 0.624323 0.431512 0.532544
C9_12 C 0.6061(8) 0.4491(6) 0.50005(11)
H7_12 H 0.538719 0.382645 0.498250
C10_12 C 0.8186(10) 0.6019(7) 0.54486(12)
C11_11 C 0.8664(11) 0.7469(8) 0.62175(13)
H8_11 H 0.936052 0.776402 0.628458
C12_12 C 0.7341(11) 0.6655(8) 0.59864(13)
H9_12 H 0.693699 0.627297 0.586265
C13_11 C 0.6936(11) 0.7000(7) 0.61563(12)
H10_11 H 0.622150 0.690224 0.616884
C14_11 C 0.7735(10) 0.7992(7) 0.65108(12)
C15_11 C 0.6858(13) 0.8166(10) 0.65515(14)
H11_11 H 0.632110 0.800478 0.644401
C16_12 C 0.6772(13) 0.8580(10) 0.67518(13)
H12_12 H 0.618373 0.871105 0.677710
C17_12 C 0.7546(11) 0.8803(7) 0.69149(11)
C18_12 C 0.8404(10) 0.8603(7) 0.68749(12)
H13_12 H 0.892968 0.874494 0.698387
C19_12 C 0.8502(11) 0.8193(8) 0.66743(11)
H14_11 H 0.908524 0.805170 0.664973
C20_12 C 0.7429(10) 0.9236(7) 0.71352(11)
N2_12 N 0.6033(8) 0.4884(6) 0.46141(9)
N3_11 N 0.8417(8) 0.6955(6) 0.60264(9)
N4_11 N 0.7795(8) 0.7518(6) 0.63038(9)
O1_12 O 0.7867(8) 0.5277(6) 0.55872(8)
O3_11 O 0.9019(8) 0.6960(6) 0.54782(9)
Cd3_7 Cd 0.02648(9) 0.72223(7) 0.24921(2)
Cd1_5 Cd 0.38890(7) 0.35981(5) 0.08412(2)
C1_13 C 0.8394(10) 0.6111(7) 0.20972(12)
H1_13 H 0.894561 0.646061 0.199106
C2_13 C 0.7570(13) 0.5530(9) 0.24005(11)
H2_13 H 0.743871 0.540362 0.255010
C3_13 C 0.6774(14) 0.5136(10) 0.22484(12)
H3_13 H 0.600874 0.468726 0.227127
C4_13 C 0.6772(8) 0.5305(6) 0.18424(11)
C5_13 C 0.5785(11) 0.5337(8) 0.18193(13)
H4_12 H 0.547768 0.551406 0.193767
C6_13 C 0.5261(11) 0.5094(8) 0.16125(12)
H5_12 H 0.459687 0.510092 0.159267
C7_13 C 0.5757(8) 0.4841(6) 0.14358(12)
C8_13 C 0.6755(9) 0.4870(6) 0.14610(11)
H6_13 H 0.709010 0.473855 0.134123
C9_13 C 0.7272(8) 0.5096(6) 0.16662(11)
H7_13 H 0.794614 0.510592 0.168417
C10_13 C 0.5147(10) 0.4499(7) 0.12181(12)
C11_12 C 0.4669(11) 0.5471(8) 0.04492(13)
H8_12 H 0.397281 0.507016 0.038209
C12_13 C 0.5992(11) 0.5980(7) 0.06803(13)
H9_13 H 0.639634 0.600264 0.080402
C13_12 C 0.6397(11) 0.6730(8) 0.05104(12)
H10_12 H 0.711183 0.734740 0.049783
C14_12 C 0.5598(10) 0.6923(7) 0.01559(12)
C15_12 C 0.6475(13) 0.7974(8) 0.01152(14)
H11_12 H 0.701223 0.835034 0.022266
H14_12 H 0.424809 0.563312 0.001694
N1_7 N 0.8600(8) 0.6142(6) 0.23086(9)
N2_13 N 0.7300(8) 0.5517(6) 0.20526(9)
N3_12 N 0.4916(8) 0.5204(6) 0.06403(9)
N4_12 N 0.5538(8) 0.6389(6) 0.03629(9)
O1_13 O 0.5466(8) 0.4076(6) 0.10795(8)
O2_12 O 0.2396(12) 0.3956(10) 0.08330(11)
O3_12 O 0.4314(8) 0.4607(6) 0.11885(9)
N5_7 N 0.2809(10) 0.1933(8) 0.10247(9)
O6_7 O 0.3235(8) 0.2662(6) 0.04994(8)
O7_7 O 0.4816(8) 0.2836(6) 0.06067(9)
H15_12 H 0.217865 0.397382 0.0678533
H16_12 H 0.174839 0.335654 0.0913606
C16_13 C 0.6561(13) 0.8474(9) 0.99149(13)
H12_13 H 0.714960 0.919398 0.988957
C17_13 C 0.5787(11) 0.7923(8) 0.97518(11)
C18_13 C 0.4929(10) 0.6865(7) 0.97918(12)
H13_13 H 0.440365 0.648192 0.968280
C19_13 C 0.4831(11) 0.6357(7) 0.99924(11)
C20_13 C 0.5904(10) 0.8473(7) 0.95315(11)
O4_7 O 0.6765(8) 0.9427(6) 0.95006(8)
O5_7 O 0.5184(8) 0.8020(5) 0.93933(9)
Cd2_3 Cd 0.61110(7) 0.97091(5) 0.91588(2)
C16_14 C 0.3439(13) 0.1913(10) 0.00851(13)
H12_14 H 0.285040 0.204438 0.011043
C17_14 C 0.4213(11) 0.2136(7) 0.02482(11)
C18_14 C 0.5071(10) 0.1936(7) 0.02082(12)
H13_14 H 0.559635 0.207827 0.031720
C19_14 C 0.5169(11) 0.1526(8) 0.00076(11)
C20_14 C 0.4096(10) 0.2569(7) 0.04685(11)
C1_14 C 0.1606(10) 0.7717(7) 0.79028(12)
H1_14 H 0.105439 0.751500 0.800894
C2_14 C 0.2430(13) 0.7960(9) 0.75995(11)
H2_14 H 0.256129 0.796491 0.744990
C3_14 C 0.3226(14) 0.8362(10) 0.77516(12)
H3_14 H 0.399126 0.867852 0.772873
C4_14 C 0.3228(8) 0.8533(6) 0.81576(11)
C5_14 C 0.4215(11) 0.9552(8) 0.81807(13)
C6_14 C 0.4739(11) 0.9833(8) 0.83875(12)
C7_14 C 0.4243(8) 0.9084(6) 0.85642(12)
C8_14 C 0.3245(9) 0.8115(7) 0.85390(11)
H6_14 H 0.290990 0.764845 0.865877
C9_14 C 0.2728(8) 0.7824(6) 0.83338(11)
H7_14 H 0.205386 0.715978 0.831583
C10_14 C 0.4853(10) 0.9352(7) 0.87819(12)
C12_14 C 0.4008(11) 0.9988(8) 0.93197(13)
H9_14 H 0.360366 0.960630 0.919598
N1_8 N 0.1400(8) 0.7542(6) 0.76914(9)
N2_14 N 0.2700(8) 0.8217(6) 0.79474(9)
O1_14 O 0.4534(8) 0.8610(6) 0.89205(8)
N5_8 N 0.7191(10) 0.9125(6) 0.89753(9)
Cd3_8 Cd 0.97352(9) 0.69576(5) 0.75079(2)
O2_13 O 0.8227(7) 0.0937(12) 0.41663(11)
N5_9 N 0.5791(6) 0.0525(10) 0.43581(9)
O6_8 O 0.6094(6) 0.0098(8) 0.38327(8)
H15_13 H 0.846184 0.115468 0.401187
H16_13 H 0.827481 0.158494 0.424694
Cd1_6 Cd 0.63758(5) 0.94443(7) 0.41745(2)
C1_15 C 0.4384(7) 0.4939(10) 0.54305(12)
H1_15 H 0.418167 0.438772 0.532439
C2_15 C 0.4627(9) 0.5763(13) 0.57338(11)
H2_15 H 0.463158 0.589462 0.588343
C3_15 C 0.5029(10) 0.6559(14) 0.55817(12)
H3_15 H 0.534519 0.732459 0.560460
C4_15 C 0.5200(6) 0.6561(8) 0.51757(11)
C5_15 C 0.6219(8) 0.7548(11) 0.51526(13)
H4_13 H 0.670305 0.785565 0.527100
C6_15 C 0.6500(8) 0.8072(11) 0.49458(12)
H5_13 H 0.717072 0.873646 0.492600
C7_15 C 0.5751(6) 0.7576(8) 0.47691(12)
C8_15 C 0.4782(7) 0.6578(9) 0.47943(11)
H6_15 H 0.431512 0.624323 0.467456
C9_15 C 0.4491(6) 0.6061(8) 0.49995(11)
H7_15 H 0.382645 0.538719 0.501750
C10_15 C 0.6019(7) 0.8186(10) 0.45514(12)
C11_13 C 0.7469(8) 0.8664(11) 0.37825(13)
H8_13 H 0.776402 0.936052 0.371542
C12_15 C 0.6655(8) 0.7341(11) 0.40136(13)
H9_15 H 0.627297 0.693699 0.413735
C13_13 C 0.7000(7) 0.6936(11) 0.38437(12)
H10_13 H 0.690224 0.622150 0.383116
C14_13 C 0.7992(7) 0.7735(10) 0.34892(12)
C15_13 C 0.8166(10) 0.6858(13) 0.34485(14)
H11_13 H 0.800478 0.632110 0.355599
C16_15 C 0.8580(10) 0.6772(13) 0.32482(13)
H12_15 H 0.871105 0.618373 0.322290
C17_15 C 0.8803(7) 0.7546(11) 0.30851(11)
C18_15 C 0.8603(7) 0.8404(10) 0.31251(12)
H13_15 H 0.874494 0.892968 0.301613
C19_15 C 0.8193(8) 0.8502(11) 0.33257(11)
H14_13 H 0.805170 0.908524 0.335027
C20_15 C 0.9236(7) 0.7429(10) 0.28648(11)
N1_9 N 0.4209(6) 0.4733(8) 0.56419(9)
N2_15 N 0.4884(6) 0.6033(8) 0.53859(9)
N3_13 N 0.6955(6) 0.8417(8) 0.39736(9)
N4_13 N 0.7518(6) 0.7795(8) 0.36962(9)
O1_15 O 0.5277(6) 0.7867(8) 0.44128(8)
O3_13 O 0.6960(6) 0.9019(8) 0.45218(9)
O4_8 O 0.9329(6) 0.6568(8) 0.28339(8)
O5_8 O 0.9503(6) 0.8149(8) 0.27266(9)
Cd3_9 Cd 0.36242(5) 0.30686(9) 0.58255(2)
O7_8 O 0.4687(5) 0.8517(8) 0.39400(9)
C1_16 C 0.2778(7) 0.1727(10) 0.12361(12)
H1_16 H 0.312728 0.227894 0.134227
C2_16 C 0.2197(9) 0.0903(13) 0.09328(11)
H2_16 H 0.207029 0.077204 0.078323
C3_16 C 0.1803(10) 0.0107(14) 0.10849(12)
C4_16 C 0.1972(6) 0.0105(8) 0.14909(11)
C8_16 C 0.1537(6) 0.0088(9) 0.18723(11)
H6_16 H 0.140522 0.042343 0.199210
C9_16 C 0.1763(6) 0.0605(8) 0.16671(11)
H7_16 H 0.177259 0.127947 0.164916
H10_14 H 0.401407 0.044516 0.283550
H11_14 H 0.501701 0.034556 0.311067
H12_16 H 0.586065 0.048293 0.344376
N2_16 N 0.2184(6) 0.0633(8) 0.12807(9)
H3_16 H 0.135393 0.934207 0.106206
C5_16 C 0.2004(8) 0.9118(11) 0.15140(13)
H4_14 H 0.218073 0.881101 0.139566
C6_16 C 0.1761(8) 0.8594(11) 0.17208(12)
H5_14 H 0.176759 0.793020 0.174066
C7_16 C 0.1508(6) 0.9090(8) 0.18975(12)
C10_16 C 0.1166(7) 0.8480(10) 0.21152(12)
C11_14 C 0.2138(8) 0.8002(11) 0.28841(13)
H8_14 H 0.173683 0.730614 0.295124
C12_16 C 0.2647(7) 0.9325(11) 0.26530(13)
H9_16 H 0.266931 0.972967 0.252931
C13_14 C 0.3397(8) 0.9730(11) 0.28229(12)
C14_14 C 0.3590(7) 0.8931(10) 0.31774(12)
C15_14 C 0.4641(8) 0.9808(13) 0.32181(14)
C16_16 C 0.5141(9) 0.9894(13) 0.34184(13)
C17_16 C 0.4590(8) 0.9120(11) 0.35815(11)
C18_16 C 0.3532(7) 0.8262(10) 0.35415(12)
H13_16 H 0.314859 0.773698 0.365053
C19_16 C 0.3024(7) 0.8164(11) 0.33409(11)
H14_14 H 0.229979 0.758142 0.331639
C20_16 C 0.5140(7) 0.9237(10) 0.38018(11)
N3_14 N 0.1871(6) 0.8249(8) 0.26930(9)
N4_14 N 0.3056(6) 0.8871(8) 0.29704(9)
O1_16 O 0.0743(6) 0.8799(8) 0.22538(8)
O2_14 O 0.0623(10) 0.5729(12) 0.25003(11)
O3_14 O 0.1274(6) 0.7647(8) 0.21448(9)
H15_14 H 0.0640492 0.551199 0.26548
H16_14 H 0.0023206 0.508173 0.241973
O6_9 O 0.0671(6) 0.7240(6) 0.71661(8)
O7_9 O 0.0497(6) 0.8647(5) 0.72734(9)
C1_17 C 0.7222(7) 0.8950(7) 0.87639(12)
H1_17 H 0.687272 0.915167 0.865773
C2_17 C 0.7803(9) 0.8707(9) 0.90672(11)
H2_17 H 0.792971 0.870176 0.921677
C3_17 C 0.8197(10) 0.8305(10) 0.89151(12)
H3_17 H 0.864607 0.798815 0.893794
C4_17 C 0.8028(6) 0.8134(6) 0.85091(11)
C5_17 C 0.7996(8) 0.7115(8) 0.84860(13)
H4_15 H 0.781927 0.663029 0.860434
C6_17 C 0.8239(8) 0.6834(8) 0.82792(12)
H5_15 H 0.823241 0.616262 0.825934
C7_17 C 0.8492(6) 0.7583(6) 0.81025(12)
C8_17 C 0.8463(6) 0.8552(7) 0.81277(11)
H6_17 H 0.859478 0.901822 0.800790
C9_17 C 0.8237(6) 0.8843(6) 0.83329(11)
H7_17 H 0.822741 0.950689 0.835084
C10_17 C 0.8834(7) 0.7315(7) 0.78848(12)
C11_15 C 0.7862(8) 0.5865(8) 0.71159(13)
H8_15 H 0.826317 0.556932 0.704876
C12_17 C 0.7353(7) 0.6679(8) 0.73470(13)
H9_17 H 0.733069 0.706037 0.747069
C13_15 C 0.6603(8) 0.6334(7) 0.71771(12)
H10_15 H 0.598593 0.643110 0.716450
C14_15 C 0.6410(7) 0.5342(7) 0.68226(12)
C15_15 C 0.5359(8) 0.5168(10) 0.67819(14)
H11_15 H 0.498299 0.532856 0.688933
C16_17 C 0.4859(9) 0.4754(10) 0.65816(13)
H12_17 H 0.413935 0.462229 0.655624
C17_17 C 0.5410(8) 0.4531(7) 0.64185(11)
C18_17 C 0.6468(7) 0.4731(7) 0.64585(12)
H13_17 H 0.685141 0.458840 0.634947
C19_17 C 0.6976(7) 0.5141(8) 0.66591(11)
H14_15 H 0.770021 0.528164 0.668361
C20_17 C 0.4860(7) 0.4098(7) 0.61982(11)
N2_17 N 0.7816(6) 0.8450(6) 0.87193(9)
N3_15 N 0.8129(6) 0.6379(6) 0.73070(9)
N4_15 N 0.6944(6) 0.5816(6) 0.70296(9)
O1_17 O 0.9257(6) 0.8057(6) 0.77462(8)
O2_15 O 0.9377(10) 0.5107(7) 0.74997(11)
O3_15 O 0.8726(6) 0.6374(6) 0.78552(9)
O4_9 O 0.3906(6) 0.4005(6) 0.61673(8)
O5_9 O 0.5313(5) 0.3831(6) 0.60600(9)
H15_15 H 0.935951 0.48715 0.73452
H16_15 H 0.997679 0.505852 0.758027
C1_18 C 0.5616(7) 0.0556(7) 0.45695(12)
H1_18 H 0.581833 0.020606 0.467561
C2_18 C 0.5373(9) 0.1137(9) 0.42662(11)
H2_18 H 0.536842 0.126305 0.411657
C3_18 C 0.4971(10) 0.1531(10) 0.44183(12)
H3_18 H 0.465481 0.197941 0.439540
C4_18 C 0.4800(6) 0.1362(6) 0.48243(11)
C5_18 C 0.3781(8) 0.1330(8) 0.48474(13)
H4_16 H 0.329695 0.115261 0.472900
C6_18 C 0.3500(8) 0.1573(8) 0.50542(12)
H5_16 H 0.282928 0.156575 0.507400
C7_18 C 0.4249(6) 0.1826(6) 0.52309(12)
C8_18 C 0.5218(7) 0.1797(6) 0.52057(11)
H6_18 H 0.568488 0.192812 0.532544
C9_18 C 0.5509(6) 0.1571(6) 0.50005(11)
H7_18 H 0.617355 0.156075 0.498250
C10_18 C 0.3981(7) 0.2168(7) 0.54486(12)
C11_16 C 0.2531(8) 0.1196(8) 0.62175(13)
H8_16 H 0.223598 0.159651 0.628458
C12_18 C 0.3345(8) 0.0687(7) 0.59864(13)
H9_18 H 0.372703 0.066403 0.586265
H13_18 H 0.125506 0.018475 0.698387
C19_18 C 0.1807(8) 0.0310(7) 0.66743(11)
H14_16 H 0.194830 0.103355 0.664973
N2_18 N 0.5116(6) 0.1150(6) 0.46141(9)
N3_16 N 0.3045(6) 0.1463(6) 0.60264(9)
N4_16 N 0.2482(6) 0.0278(6) 0.63038(9)
O1_18 O 0.4723(6) 0.2591(6) 0.55872(8)
O2_16 O 0.1773(7) 0.2711(10) 0.58337(11)
O3_16 O 0.3040(6) 0.2060(6) 0.54782(9)
H15_16 H 0.153816 0.269284 0.598813
H16_16 H 0.172519 0.331013 0.575306
C13_16 C 0.3000(7) 0.9937(8) 0.61563(12)
H10_16 H 0.309776 0.931927 0.616884
C14_16 C 0.2008(7) 0.9744(7) 0.65108(12)
C15_16 C 0.1834(10) 0.8693(8) 0.65515(14)
H11_16 H 0.199522 0.831633 0.644401
C16_18 C 0.1420(10) 0.8193(9) 0.67518(13)
H12_18 H 0.128895 0.747269 0.677710
C17_18 C 0.1197(7) 0.8744(8) 0.69149(11)
C18_18 C 0.1397(7) 0.9802(7) 0.68749(12)
C20_18 C 0.0764(7) 0.8194(7) 0.71352(11)
H4_17 H 0.996362 0.448594 0.806233
H5_17 H 0.949595 0.489908 0.840733
C11_17 C 0.9198(8) 0.4529(8) 0.95508(13)
H8_17 H 0.890265 0.492984 0.961791
C13_17 C 0.9667(7) 0.3270(8) 0.94896(12)
H10_17 H 0.976443 0.265260 0.950217
C14_17 C 0.8675(7) 0.3077(7) 0.98441(12)
C15_17 C 0.8501(10) 0.2026(8) 0.98848(14)
H11_17 H 0.866189 0.164966 0.977734
H14_17 H 0.861497 0.436688 0.998306
N3_17 N 0.9712(6) 0.4796(6) 0.93597(9)
N4_17 N 0.9149(6) 0.3611(6) 0.96371(9)
O2_17 O 0.8440(7) 0.6044(10) 0.91670(11)
O3_17 O 0.9707(6) 0.5393(6) 0.88115(9)
H15_17 H 0.820483 0.602618 0.932147
H16_17 H 0.839185 0.664346 0.908639
H4_18 H 0.452232 0.003638 0.806233
H5_18 H 0.540313 0.050405 0.840733
C11_18 C 0.5331(11) 0.0802(8) 0.95508(13)
H8_18 H 0.602719 0.109735 0.961791
C13_18 C 0.3603(11) 0.0333(7) 0.94896(12)
H10_18 H 0.288817 0.023557 0.950217
C14_18 C 0.4402(10) 0.1325(7) 0.98441(12)
C15_18 C 0.3525(13) 0.1499(10) 0.98848(14)
H11_18 H 0.298777 0.133811 0.977734
H14_18 H 0.575191 0.138503 0.998306
N3_18 N 0.5084(8) 0.0288(6) 0.93597(9)
N4_18 N 0.4462(8) 0.0851(6) 0.96371(9)
O2_18 O 0.7604(12) 0.1560(7) 0.91670(11)
O3_18 O 0.5686(8) 0.0293(6) 0.88115(9)
H15_18 H 0.782135 0.179517 0.932147
H16_18 H 0.825161 0.160815 0.908639
loop_
_geom_bond_atom_site_label_1
_geom_bond_atom_site_label_2
_geom_bond_site_symmetry_1
_geom_bond_site_symmetry_2
C1 H1 1_555 1_555
C2 H2 1_555 1_555
C3 C2 1_555 1_555
H3 C3 1_555 1_555
C4 C5 1_555 1_555
C6 C5 1_555 1_555
C7 C6 1_555 1_555
C8 C7 1_555 1_555
H6 C8 1_555 1_555
C9 C4 1_555 1_555
H7 C9 1_555 1_555
C10 C7 1_555 1_555
C12 H9 1_555 1_555
N1 C1 1_555 1_555
N2 C1 1_555 1_555
O1 Cd1 1_555 1_555
Cd3 N1 1_555 1_555
N5 Cd1 1_555 1_555
O6 Cd1 1_555 1_555
O7 Cd1 1_555 1_555
C2 N1 1_555 1_555
C3 N2 1_555 1_555
C4 N2 1_555 1_555
C8 C9 1_555 1_555
C10 O1 1_555 1_555
H12 C16 1_555 1_555
C17 C16 1_555 1_555
C18 C17 1_555 1_555
H13 C18 1_555 1_555
C20 C17 1_555 1_555
O4 C20 1_555 1_555
O5 C20 1_555 1_555
Cd2 O4 1_555 1_555
C18 C19 1_555 1_555
O5 Cd2 1_555 1_555
C1_2 H1_2 1_555 1_555
C2_2 H2_2 1_555 1_555
C3_2 C2_2 1_555 1_555
H3_2 C3_2 1_555 1_555
C4_2 C5_2 1_555 1_555
C6_2 C5_2 1_555 1_555
C7_2 C6_2 1_555 1_555
C8_2 C7_2 1_555 1_555
H6_2 C8_2 1_555 1_555
C9_2 C4_2 1_555 1_555
H7_2 C9_2 1_555 1_555
C10_2 C7_2 1_555 1_555
C12_2 H9_2 1_555 1_555
N1_2 C1_2 1_555 1_555
N2_2 C1_2 1_555 1_555
O1_2 Cd2 1_555 1_555
Cd3_2 N1_2 1_555 1_555
N5_2 Cd2 1_555 1_555
C2_2 N1_2 1_555 1_555
C3_2 N2_2 1_555 1_555
C4_2 N2_2 1_555 1_555
C8_2 C9_2 1_555 1_555
C10_2 O1_2 1_555 1_555
H12_2 C16_2 1_555 1_555
C17_2 C16_2 1_555 1_555
C18_2 C17_2 1_555 1_555
H13_2 C18_2 1_555 1_555
C20_2 C17_2 1_555 1_555
O6 C20_2 1_555 1_555
O7 C20_2 1_555 1_555
C18_2 C19_2 1_555 1_555
H10 C13 1_555 1_555
C14 C15 1_555 1_555
C15 H11 1_555 1_555
C16_3 C15 1_555 1_555
H12_3 C16_3 1_555 1_555
C17_3 C16_3 1_555 1_555
C18_3 C17_3 1_555 1_555
C20_3 C17_3 1_555 1_555
O4_2 C20_3 1_555 1_555
O5_2 C20_3 1_555 1_555
Cd3 O4_2 1_555 1_555
O5_2 Cd3 1_555 1_555
Cd1_2 N3 1_555 1_555
C1_3 H1_3 1_555 1_555
C2_3 H2_3 1_555 1_555
C3_3 C2_3 1_555 1_555
H3_3 C3_3 1_555 1_555
C4_3 C5_3 1_555 1_555
C5_3 H4 1_555 1_555
C6_3 C5_3 1_555 1_555
H5 C6_3 1_555 1_555
C7_3 C6_3 1_555 1_555
C8_3 C7_3 1_555 1_555
H6_3 C8_3 1_555 1_555
C9_3 C4_3 1_555 1_555
H7_3 C9_3 1_555 1_555
C10_3 C7_3 1_555 1_555
C11 H8 1_555 1_555
C12_3 H9_3 1_555 1_555
H14 C19_3 1_555 1_555
N1_3 C1_3 1_555 1_555
N2_3 C1_3 1_555 1_555
N3 C11 1_555 1_555
N4 C11 1_555 1_555
O1_3 Cd1_2 1_555 1_555
O3 Cd1_2 1_555 1_555
O7_2 Cd1_2 1_555 1_555
C2_3 N1_3 1_555 1_555
C3_3 N2_3 1_555 1_555
C4_3 N2_3 1_555 1_555
C8_3 C9_3 1_555 1_555
C10_3 O1_3 1_555 1_555
C10_3 O3 1_555 1_555
C12_3 N3 1_555 1_555
O2 H15 1_555 1_555
O2 H16 1_555 1_555
Cd3 N3_2 1_555 1_555
C5_4 H4_2 1_555 1_555
C6_4 C5_4 1_555 1_555
H5_2 C6_4 1_555 1_555
C7_4 C6_4 1_555 1_555
C10_4 C7_4 1_555 1_555
C11_2 H8_2 1_555 1_555
C12_4 H9_4 1_555 1_555
C13_2 C12_4 1_555 1_555
C14_2 C15_2 1_555 1_555
C16_4 C15_2 1_555 1_555
C17_4 C16_4 1_555 1_555
C18_4 C17_4 1_555 1_555
H13_4 C18_4 1_555 1_555
C19_4 C14_2 1_555 1_555
H14_2 C19_4 1_555 1_555
C20_4 C17_4 1_555 1_555
N3_2 C11_2 1_555 1_555
N4_2 C11_2 1_555 1_555
O1_4 Cd3 1_555 1_555
O2_2 Cd3 1_555 1_555
O3_2 Cd3 1_555 1_555
O7_2 C20_4 1_555 1_555
C10_4 O1_4 1_555 1_555
C10_4 O3_2 1_555 1_555
C12_4 N3_2 1_555 1_555
C13_2 N4_2 1_555 1_555
C14_2 N4_2 1_555 1_555
C18_4 C19_4 1_555 1_555
O2_2 H15_2 1_555 1_555
O2_2 H16_2 1_555 1_555
C1_4 H1_4 1_555 1_555
C2_4 H2_4 1_555 1_555
C3_4 C2_4 1_555 1_555
H6_4 C8_4 1_555 1_555
C9_4 C4_4 1_555 1_555
H7_4 C9_4 1_555 1_555
N5 C1_4 1_555 1_555
N2_4 C1_4 1_555 1_555
C2_4 N5 1_555 1_555
C3_4 N2_4 1_555 1_555
C4_4 N2_4 1_555 1_555
C8_4 C9_4 1_555 1_555
Cd3_2 N3_3 1_555 1_555
C5_5 H4_3 1_555 1_555
C6_5 C5_5 1_555 1_555
H5_3 C6_5 1_555 1_555
C7_5 C6_5 1_555 1_555
C10_5 C7_5 1_555 1_555
C11_3 H8_3 1_555 1_555
C12_5 H9_5 1_555 1_555
C13_3 C12_5 1_555 1_555
C14_3 C15_3 1_555 1_555
C16_5 C15_3 1_555 1_555
C17_5 C16_5 1_555 1_555
C18_5 C17_5 1_555 1_555
H13_5 C18_5 1_555 1_555
C19_5 C14_3 1_555 1_555
H14_3 C19_5 1_555 1_555
C20_5 C17_5 1_555 1_555
N3_3 C11_3 1_555 1_555
N4_3 C11_3 1_555 1_555
O1_5 Cd3_2 1_555 1_555
O2_3 Cd3_2 1_555 1_555
O3_3 Cd3_2 1_555 1_555
O5_3 C20_5 1_555 1_555
O6_3 Cd3_2 1_555 1_555
O7_3 Cd3_2 1_555 1_555
C10_5 O1_5 1_555 1_555
C10_5 O3_3 1_555 1_555
C12_5 N3_3 1_555 1_555
C13_3 N4_3 1_555 1_555
C14_3 N4_3 1_555 1_555
C18_5 C19_5 1_555 1_555
O5_3 Cd3_3 1_555 1_555
O2_3 H15_3 1_555 1_555
O2_3 H16_3 1_555 1_555
C1_5 H1_5 1_555 1_555
C2_5 H2_5 1_555 1_555
C3_5 C2_5 1_555 1_555
H6_5 C8_5 1_555 1_555
C9_5 C4_5 1_555 1_555
H7_5 C9_5 1_555 1_555
N5_2 C1_5 1_555 1_555
N2_5 C1_5 1_555 1_555
C2_5 N5_2 1_555 1_555
C3_5 N2_5 1_555 1_555
C4_5 N2_5 1_555 1_555
C8_5 C9_5 1_555 1_555
H10_4 C13_4 1_555 1_555
C14_4 C15_4 1_555 1_555
C15_4 H11_4 1_555 1_555
C16_6 C15_4 1_555 1_555
H12_6 C16_6 1_555 1_555
C17_6 C16_6 1_555 1_555
C18_6 C17_6 1_555 1_555
C20_6 C17_6 1_555 1_555
O6_3 C20_6 1_555 1_555
O7_3 C20_6 1_555 1_555
Cd3_3 N3_4 1_555 1_555
C1_6 H1_6 1_555 1_555
C2_6 H2_6 1_555 1_555
C3_6 C2_6 1_555 1_555
H3_6 C3_6 1_555 1_555
C4_6 C5_6 1_555 1_555
C5_6 H4_4 1_555 1_555
C6_6 C5_6 1_555 1_555
H5_4 C6_6 1_555 1_555
C7_6 C6_6 1_555 1_555
C8_6 C7_6 1_555 1_555
H6_6 C8_6 1_555 1_555
C9_6 C4_6 1_555 1_555
H7_6 C9_6 1_555 1_555
C10_6 C7_6 1_555 1_555
C11_4 H8_4 1_555 1_555
C12_6 H9_6 1_555 1_555
H14_4 C19_6 1_555 1_555
N5_3 C1_6 1_555 1_555
N2_6 C1_6 1_555 1_555
N3_4 C11_4 1_555 1_555
N4_4 C11_4 1_555 1_555
O1_6 Cd3_3 1_555 1_555
O3_4 Cd3_3 1_555 1_555
C2_6 N5_3 1_555 1_555
C3_6 N2_6 1_555 1_555
C4_6 N2_6 1_555 1_555
C8_6 C9_6 1_555 1_555
C10_6 O1_6 1_555 1_555
C10_6 O3_4 1_555 1_555
C12_6 N3_4 1_555 1_555
O2_4 H15_4 1_555 1_555
O2_4 H16_4 1_555 1_555
C11_5 H8_5 1_555 1_555
H10_5 C13_5 1_555 1_555
C14_5 C15_5 1_555 1_555
C15_5 H11_5 1_555 1_555
N3_5 C11_5 1_555 1_555
N4_5 C11_5 1_555 1_555
C13_5 N4_5 1_555 1_555
C14_5 N4_5 1_555 1_555
O2_5 H15_5 1_555 1_555
O2_5 H16_5 1_555 1_555
C11_6 H8_6 1_555 1_555
H10_6 C13_6 1_555 1_555
C14_6 C15_6 1_555 1_555
C15_6 H11_6 1_555 1_555
N3_6 C11_6 1_555 1_555
N4_6 C11_6 1_555 1_555
C13_6 N4_6 1_555 1_555
C14_6 N4_6 1_555 1_555
O2_6 H15_6 1_555 1_555
O2_6 H16_6 1_555 1_555
H12_7 C16_7 1_555 1_555
C17_7 C16_7 1_555 1_555
C18_7 C17_7 1_555 1_555
H13_7 C18_7 1_555 1_555
C20_7 C17_7 1_555 1_555
O4_4 C20_7 1_555 1_555
O5_4 C20_7 1_555 1_555
Cd2_2 O4_4 1_555 1_555
C18_7 C19_7 1_555 1_555
O5_4 Cd2_2 1_555 1_555
C1_7 H1_7 1_555 1_555
C2_7 H2_7 1_555 1_555
C3_7 C2_7 1_555 1_555
H3_7 C3_7 1_555 1_555
C4_7 C5_7 1_555 1_555
C6_7 C5_7 1_555 1_555
C7_7 C6_7 1_555 1_555
C8_7 C7_7 1_555 1_555
H6_7 C8_7 1_555 1_555
C9_7 C4_7 1_555 1_555
H7_7 C9_7 1_555 1_555
C10_7 C7_7 1_555 1_555
C12_7 H9_7 1_555 1_555
N1_4 C1_7 1_555 1_555
N2_7 C1_7 1_555 1_555
O1_7 Cd1_3 1_555 1_555
N5_4 Cd1_3 1_555 1_555
O6_4 Cd1_3 1_555 1_555
O7_4 Cd1_3 1_555 1_555
C2_7 N1_4 1_555 1_555
C3_7 N2_7 1_555 1_555
C4_7 N2_7 1_555 1_555
C8_7 C9_7 1_555 1_555
C10_7 O1_7 1_555 1_555
H12_8 C16_8 1_555 1_555
C17_8 C16_8 1_555 1_555
C18_8 C17_8 1_555 1_555
H13_8 C18_8 1_555 1_555
C20_8 C17_8 1_555 1_555
O6_4 C20_8 1_555 1_555
O7_4 C20_8 1_555 1_555
C18_8 C19_8 1_555 1_555
Cd2_2 N3_7 1_555 1_555
C1_8 H1_8 1_555 1_555
C2_8 H2_8 1_555 1_555
C3_8 C2_8 1_555 1_555
H3_8 C3_8 1_555 1_555
C4_8 C5_8 1_555 1_555
C5_8 H4_7 1_555 1_555
C6_8 C5_8 1_555 1_555
H5_7 C6_8 1_555 1_555
C7_8 C6_8 1_555 1_555
C8_8 C7_8 1_555 1_555
H6_8 C8_8 1_555 1_555
C9_8 C4_8 1_555 1_555
H7_8 C9_8 1_555 1_555
C10_8 C7_8 1_555 1_555
C11_7 H8_7 1_555 1_555
C12_8 H9_8 1_555 1_555
C13_7 C12_8 1_555 1_555
H10_7 C13_7 1_555 1_555
C14_7 C15_7 1_555 1_555
C15_7 H11_7 1_555 1_555
N1_5 C1_8 1_555 1_555
N2_8 C1_8 1_555 1_555
N3_7 C11_7 1_555 1_555
N4_7 C11_7 1_555 1_555
O1_8 Cd2_2 1_555 1_555
O2_7 Cd2_2 1_555 1_555
O3_7 Cd2_2 1_555 1_555
N5_5 Cd2_2 1_555 1_555
C2_8 N1_5 1_555 1_555
C3_8 N2_8 1_555 1_555
C4_8 N2_8 1_555 1_555
C8_8 C9_8 1_555 1_555
C10_8 O1_8 1_555 1_555
C10_8 O3_7 1_555 1_555
C12_8 N3_7 1_555 1_555
C13_7 N4_7 1_555 1_555
C14_7 N4_7 1_555 1_555
O2_7 H15_7 1_555 1_555
O2_7 H16_7 1_555 1_555
Cd1_4 N3_8 1_555 1_555
C1_9 H1_9 1_555 1_555
C2_9 H2_9 1_555 1_555
C3_9 C2_9 1_555 1_555
H3_9 C3_9 1_555 1_555
C4_9 C5_9 1_555 1_555
C5_9 H4_8 1_555 1_555
C6_9 C5_9 1_555 1_555
H5_8 C6_9 1_555 1_555
C7_9 C6_9 1_555 1_555
C8_9 C7_9 1_555 1_555
H6_9 C8_9 1_555 1_555
C9_9 C4_9 1_555 1_555
H7_9 C9_9 1_555 1_555
C10_9 C7_9 1_555 1_555
C11_8 H8_8 1_555 1_555
C12_9 H9_9 1_555 1_555
H14_8 C19_9 1_555 1_555
N1_6 C1_9 1_555 1_555
N2_9 C1_9 1_555 1_555
N3_8 C11_8 1_555 1_555
N4_8 C11_8 1_555 1_555
O1_9 Cd1_4 1_555 1_555
O2_8 Cd1_4 1_555 1_555
O3_8 Cd1_4 1_555 1_555
N5_6 Cd1_4 1_555 1_555
O6_5 Cd1_4 1_555 1_555
O7_5 Cd1_4 1_555 1_555
C2_9 N1_6 1_555 1_555
C3_9 N2_9 1_555 1_555
C4_9 N2_9 1_555 1_555
C8_9 C9_9 1_555 1_555
C10_9 O1_9 1_555 1_555
C10_9 O3_8 1_555 1_555
C12_9 N3_8 1_555 1_555
O2_8 H15_8 1_555 1_555
O2_8 H16_8 1_555 1_555
H10_8 C13_8 1_555 1_555
C14_8 C15_8 1_555 1_555
C15_8 H11_8 1_555 1_555
C16_9 C15_8 1_555 1_555
H12_9 C16_9 1_555 1_555
C17_9 C16_9 1_555 1_555
C18_9 C17_9 1_555 1_555
C20_9 C17_9 1_555 1_555
O4_5 C20_9 1_555 1_555
O5_5 C20_9 1_555 1_555
Cd3_4 N3_9 1_555 1_555
C1_10 H1_10 1_555 1_555
C2_10 H2_10 1_555 1_555
C3_10 C2_10 1_555 1_555
H3_10 C3_10 1_555 1_555
C4_10 C5_10 1_555 1_555
C5_10 H4_9 1_555 1_555
C6_10 C5_10 1_555 1_555
H5_9 C6_10 1_555 1_555
C7_10 C6_10 1_555 1_555
C8_10 C7_10 1_555 1_555
H6_10 C8_10 1_555 1_555
C9_10 C4_10 1_555 1_555
H7_10 C9_10 1_555 1_555
C10_10 C7_10 1_555 1_555
C11_9 H8_9 1_555 1_555
C12_10 H9_10 1_555 1_555
C13_9 C12_10 1_555 1_555
H10_9 C13_9 1_555 1_555
C14_9 C15_9 1_555 1_555
C15_9 H11_9 1_555 1_555
C16_10 C15_9 1_555 1_555
H12_10 C16_10 1_555 1_555
C17_10 C16_10 1_555 1_555
C18_10 C17_10 1_555 1_555
H13_10 C18_10 1_555 1_555
C19_10 C14_9 1_555 1_555
H14_9 C19_10 1_555 1_555
C20_10 C17_10 1_555 1_555
N5_4 C1_10 1_555 1_555
N2_10 C1_10 1_555 1_555
N3_9 C11_9 1_555 1_555
N4_9 C11_9 1_555 1_555
O1_10 Cd3_4 1_555 1_555
O2_9 Cd3_4 1_555 1_555
O3_9 Cd3_4 1_555 1_555
O6_5 C20_10 1_555 1_555
O7_5 C20_10 1_555 1_555
C2_10 N5_4 1_555 1_555
C3_10 N2_10 1_555 1_555
C4_10 N2_10 1_555 1_555
C8_10 C9_10 1_555 1_555
C10_10 O1_10 1_555 1_555
C10_10 O3_9 1_555 1_555
C12_10 N3_9 1_555 1_555
C13_9 N4_9 1_555 1_555
C14_9 N4_9 1_555 1_555
C18_10 C19_10 1_555 1_555
O2_9 H15_9 1_555 1_555
O2_9 H16_9 1_555 1_555
C1_11 H1_11 1_555 1_555
C2_11 H2_11 1_555 1_555
C3_11 C2_11 1_555 1_555
H6_11 C8_11 1_555 1_555
C9_11 C4_11 1_555 1_555
H7_11 C9_11 1_555 1_555
N5_5 C1_11 1_555 1_555
N2_11 C1_11 1_555 1_555
C2_11 N5_5 1_555 1_555
C3_11 N2_11 1_555 1_555
C4_11 N2_11 1_555 1_555
C8_11 C9_11 1_555 1_555
Cd3_5 N3_10 1_555 1_555
C5_11 H4_10 1_555 1_555
C6_11 C5_11 1_555 1_555
H5_10 C6_11 1_555 1_555
C7_11 C6_11 1_555 1_555
C10_11 C7_11 1_555 1_555
C11_10 H8_10 1_555 1_555
C12_11 H9_11 1_555 1_555
C13_10 C12_11 1_555 1_555
C14_10 C15_10 1_555 1_555
C16_11 C15_10 1_555 1_555
C17_11 C16_11 1_555 1_555
C18_11 C17_11 1_555 1_555
H13_11 C18_11 1_555 1_555
C19_11 C14_10 1_555 1_555
H14_10 C19_11 1_555 1_555
C20_11 C17_11 1_555 1_555
N3_10 C11_10 1_555 1_555
N4_10 C11_10 1_555 1_555
O1_11 Cd3_5 1_555 1_555
O2_10 Cd3_5 1_555 1_555
O3_10 Cd3_5 1_555 1_555
O5_6 C20_11 1_555 1_555
C10_11 O1_11 1_555 1_555
C10_11 O3_10 1_555 1_555
C12_11 N3_10 1_555 1_555
C13_10 N4_10 1_555 1_555
C14_10 N4_10 1_555 1_555
C18_11 C19_11 1_555 1_555
O5_6 Cd3_6 1_555 1_555
O2_10 H15_10 1_555 1_555
O2_10 H16_10 1_555 1_555
O2_11 H15_11 1_555 1_555
O2_11 H16_11 1_555 1_555
Cd3_6 N3_11 1_555 1_555
C1_12 H1_12 1_555 1_555
C2_12 H2_12 1_555 1_555
C3_12 C2_12 1_555 1_555
H3_12 C3_12 1_555 1_555
C4_12 C5_12 1_555 1_555
C5_12 H4_11 1_555 1_555
C6_12 C5_12 1_555 1_555
H5_11 C6_12 1_555 1_555
C7_12 C6_12 1_555 1_555
C8_12 C7_12 1_555 1_555
H6_12 C8_12 1_555 1_555
C9_12 C4_12 1_555 1_555
H7_12 C9_12 1_555 1_555
C10_12 C7_12 1_555 1_555
C11_11 H8_11 1_555 1_555
C12_12 H9_12 1_555 1_555
C13_11 C12_12 1_555 1_555
H10_11 C13_11 1_555 1_555
C14_11 C15_11 1_555 1_555
C15_11 H11_11 1_555 1_555
C16_12 C15_11 1_555 1_555
H12_12 C16_12 1_555 1_555
C17_12 C16_12 1_555 1_555
C18_12 C17_12 1_555 1_555
H13_12 C18_12 1_555 1_555
C19_12 C14_11 1_555 1_555
H14_11 C19_12 1_555 1_555
C20_12 C17_12 1_555 1_555
N5_6 C1_12 1_555 1_555
N2_12 C1_12 1_555 1_555
N3_11 C11_11 1_555 1_555
N4_11 C11_11 1_555 1_555
O1_12 Cd3_6 1_555 1_555
O3_11 Cd3_6 1_555 1_555
O6_6 C20_12 1_555 1_555
O7_6 C20_12 1_555 1_555
C2_12 N5_6 1_555 1_555
C3_12 N2_12 1_555 1_555
C4_12 N2_12 1_555 1_555
C8_12 C9_12 1_555 1_555
C10_12 O1_12 1_555 1_555
C10_12 O3_11 1_555 1_555
C12_12 N3_11 1_555 1_555
C13_11 N4_11 1_555 1_555
C14_11 N4_11 1_555 1_555
C18_12 C19_12 1_555 1_555
Cd1_5 N3_12 1_555 1_555
C1_13 H1_13 1_555 1_555
C2_13 H2_13 1_555 1_555
C3_13 C2_13 1_555 1_555
H3_13 C3_13 1_555 1_555
C4_13 C5_13 1_555 1_555
C5_13 H4_12 1_555 1_555
C6_13 C5_13 1_555 1_555
H5_12 C6_13 1_555 1_555
C7_13 C6_13 1_555 1_555
C8_13 C7_13 1_555 1_555
H6_13 C8_13 1_555 1_555
C9_13 C4_13 1_555 1_555
H7_13 C9_13 1_555 1_555
C10_13 C7_13 1_555 1_555
C11_12 H8_12 1_555 1_555
C12_13 H9_13 1_555 1_555
C13_12 C12_13 1_555 1_555
H10_12 C13_12 1_555 1_555
C14_12 C15_12 1_555 1_555
C15_12 H11_12 1_555 1_555
N1_7 C1_13 1_555 1_555
N2_13 C1_13 1_555 1_555
N3_12 C11_12 1_555 1_555
N4_12 C11_12 1_555 1_555
O1_13 Cd1_5 1_555 1_555
O2_12 Cd1_5 1_555 1_555
O3_12 Cd1_5 1_555 1_555
N5_7 Cd1_5 1_555 1_555
O6_7 Cd1_5 1_555 1_555
O7_7 Cd1_5 1_555 1_555
C2_13 N1_7 1_555 1_555
C3_13 N2_13 1_555 1_555
C4_13 N2_13 1_555 1_555
C8_13 C9_13 1_555 1_555
C10_13 O1_13 1_555 1_555
C10_13 O3_12 1_555 1_555
C12_13 N3_12 1_555 1_555
C13_12 N4_12 1_555 1_555
C14_12 N4_12 1_555 1_555
O2_12 H15_12 1_555 1_555
O2_12 H16_12 1_555 1_555
H12_13 C16_13 1_555 1_555
C17_13 C16_13 1_555 1_555
C18_13 C17_13 1_555 1_555
H13_13 C18_13 1_555 1_555
C20_13 C17_13 1_555 1_555
O4_7 C20_13 1_555 1_555
O5_7 C20_13 1_555 1_555
Cd2_3 O4_7 1_555 1_555
C18_13 C19_13 1_555 1_555
O5_7 Cd2_3 1_555 1_555
H12_14 C16_14 1_555 1_555
C17_14 C16_14 1_555 1_555
C18_14 C17_14 1_555 1_555
H13_14 C18_14 1_555 1_555
C20_14 C17_14 1_555 1_555
O6_7 C20_14 1_555 1_555
O7_7 C20_14 1_555 1_555
C18_14 C19_14 1_555 1_555
C1_14 H1_14 1_555 1_555
C2_14 H2_14 1_555 1_555
C3_14 C2_14 1_555 1_555
H3_14 C3_14 1_555 1_555
C4_14 C5_14 1_555 1_555
C6_14 C5_14 1_555 1_555
C7_14 C6_14 1_555 1_555
C8_14 C7_14 1_555 1_555
H6_14 C8_14 1_555 1_555
C9_14 C4_14 1_555 1_555
H7_14 C9_14 1_555 1_555
C10_14 C7_14 1_555 1_555
C12_14 H9_14 1_555 1_555
N1_8 C1_14 1_555 1_555
N2_14 C1_14 1_555 1_555
O1_14 Cd2_3 1_555 1_555
N5_8 Cd2_3 1_555 1_555
C2_14 N1_8 1_555 1_555
C3_14 N2_14 1_555 1_555
C4_14 N2_14 1_555 1_555
C8_14 C9_14 1_555 1_555
C10_14 O1_14 1_555 1_555
O2_13 H15_13 1_555 1_555
O2_13 H16_13 1_555 1_555
Cd1_6 N3_13 1_555 1_555
C1_15 H1_15 1_555 1_555
C2_15 H2_15 1_555 1_555
C3_15 C2_15 1_555 1_555
H3_15 C3_15 1_555 1_555
C4_15 C5_15 1_555 1_555
C5_15 H4_13 1_555 1_555
C6_15 C5_15 1_555 1_555
H5_13 C6_15 1_555 1_555
C7_15 C6_15 1_555 1_555
C8_15 C7_15 1_555 1_555
H6_15 C8_15 1_555 1_555
C9_15 C4_15 1_555 1_555
H7_15 C9_15 1_555 1_555
C10_15 C7_15 1_555 1_555
C11_13 H8_13 1_555 1_555
C12_15 H9_15 1_555 1_555
C13_13 C12_15 1_555 1_555
H10_13 C13_13 1_555 1_555
C14_13 C15_13 1_555 1_555
C15_13 H11_13 1_555 1_555
C16_15 C15_13 1_555 1_555
H12_15 C16_15 1_555 1_555
C17_15 C16_15 1_555 1_555
C18_15 C17_15 1_555 1_555
H13_15 C18_15 1_555 1_555
C19_15 C14_13 1_555 1_555
H14_13 C19_15 1_555 1_555
C20_15 C17_15 1_555 1_555
N1_9 C1_15 1_555 1_555
N2_15 C1_15 1_555 1_555
N3_13 C11_13 1_555 1_555
N4_13 C11_13 1_555 1_555
O1_15 Cd1_6 1_555 1_555
O3_13 Cd1_6 1_555 1_555
O4_8 C20_15 1_555 1_555
O5_8 C20_15 1_555 1_555
Cd3_9 N1_9 1_555 1_555
O7_8 Cd1_6 1_555 1_555
C2_15 N1_9 1_555 1_555
C3_15 N2_15 1_555 1_555
C4_15 N2_15 1_555 1_555
C8_15 C9_15 1_555 1_555
C10_15 O1_15 1_555 1_555
C10_15 O3_13 1_555 1_555
C12_15 N3_13 1_555 1_555
C13_13 N4_13 1_555 1_555
C14_13 N4_13 1_555 1_555
C18_15 C19_15 1_555 1_555
C1_16 H1_16 1_555 1_555
C2_16 H2_16 1_555 1_555
C3_16 C2_16 1_555 1_555
H6_16 C8_16 1_555 1_555
C9_16 C4_16 1_555 1_555
H7_16 C9_16 1_555 1_555
N5_7 C1_16 1_555 1_555
N2_16 C1_16 1_555 1_555
C2_16 N5_7 1_555 1_555
C3_16 N2_16 1_555 1_555
C4_16 N2_16 1_555 1_555
C8_16 C9_16 1_555 1_555
Cd3_7 N3_14 1_555 1_555
C5_16 H4_14 1_555 1_555
C6_16 C5_16 1_555 1_555
H5_14 C6_16 1_555 1_555
C7_16 C6_16 1_555 1_555
C10_16 C7_16 1_555 1_555
C11_14 H8_14 1_555 1_555
C12_16 H9_16 1_555 1_555
C13_14 C12_16 1_555 1_555
C14_14 C15_14 1_555 1_555
C16_16 C15_14 1_555 1_555
C17_16 C16_16 1_555 1_555
C18_16 C17_16 1_555 1_555
H13_16 C18_16 1_555 1_555
C19_16 C14_14 1_555 1_555
H14_14 C19_16 1_555 1_555
C20_16 C17_16 1_555 1_555
N3_14 C11_14 1_555 1_555
N4_14 C11_14 1_555 1_555
O1_16 Cd3_7 1_555 1_555
O2_14 Cd3_7 1_555 1_555
O3_14 Cd3_7 1_555 1_555
O7_8 C20_16 1_555 1_555
C10_16 O1_16 1_555 1_555
C10_16 O3_14 1_555 1_555
C12_16 N3_14 1_555 1_555
C13_14 N4_14 1_555 1_555
C14_14 N4_14 1_555 1_555
C18_16 C19_16 1_555 1_555
O2_14 H15_14 1_555 1_555
O2_14 H16_14 1_555 1_555
Cd3_8 N3_15 1_555 1_555
C1_17 H1_17 1_555 1_555
C2_17 H2_17 1_555 1_555
C3_17 C2_17 1_555 1_555
H3_17 C3_17 1_555 1_555
C4_17 C5_17 1_555 1_555
C5_17 H4_15 1_555 1_555
C6_17 C5_17 1_555 1_555
H5_15 C6_17 1_555 1_555
C7_17 C6_17 1_555 1_555
C8_17 C7_17 1_555 1_555
H6_17 C8_17 1_555 1_555
C9_17 C4_17 1_555 1_555
H7_17 C9_17 1_555 1_555
C10_17 C7_17 1_555 1_555
C11_15 H8_15 1_555 1_555
C12_17 H9_17 1_555 1_555
C13_15 C12_17 1_555 1_555
H10_15 C13_15 1_555 1_555
C14_15 C15_15 1_555 1_555
C15_15 H11_15 1_555 1_555
C16_17 C15_15 1_555 1_555
H12_17 C16_17 1_555 1_555
C17_17 C16_17 1_555 1_555
C18_17 C17_17 1_555 1_555
H13_17 C18_17 1_555 1_555
C19_17 C14_15 1_555 1_555
H14_15 C19_17 1_555 1_555
C20_17 C17_17 1_555 1_555
N5_8 C1_17 1_555 1_555
N2_17 C1_17 1_555 1_555
N3_15 C11_15 1_555 1_555
N4_15 C11_15 1_555 1_555
O1_17 Cd3_8 1_555 1_555
O2_15 Cd3_8 1_555 1_555
O3_15 Cd3_8 1_555 1_555
O4_9 C20_17 1_555 1_555
O5_9 C20_17 1_555 1_555
Cd3_9 O4_9 1_555 1_555
C2_17 N5_8 1_555 1_555
C3_17 N2_17 1_555 1_555
C4_17 N2_17 1_555 1_555
C8_17 C9_17 1_555 1_555
C10_17 O1_17 1_555 1_555
C10_17 O3_15 1_555 1_555
C12_17 N3_15 1_555 1_555
C13_15 N4_15 1_555 1_555
C14_15 N4_15 1_555 1_555
C18_17 C19_17 1_555 1_555
O5_9 Cd3_9 1_555 1_555
O2_15 H15_15 1_555 1_555
O2_15 H16_15 1_555 1_555
Cd3_9 N3_16 1_555 1_555
C1_18 H1_18 1_555 1_555
C2_18 H2_18 1_555 1_555
C3_18 C2_18 1_555 1_555
H3_18 C3_18 1_555 1_555
C4_18 C5_18 1_555 1_555
C5_18 H4_16 1_555 1_555
C6_18 C5_18 1_555 1_555
H5_16 C6_18 1_555 1_555
C7_18 C6_18 1_555 1_555
C8_18 C7_18 1_555 1_555
H6_18 C8_18 1_555 1_555
C9_18 C4_18 1_555 1_555
H7_18 C9_18 1_555 1_555
C10_18 C7_18 1_555 1_555
C11_16 H8_16 1_555 1_555
C12_18 H9_18 1_555 1_555
H14_16 C19_18 1_555 1_555
N5_9 C1_18 1_555 1_555
N2_18 C1_18 1_555 1_555
N3_16 C11_16 1_555 1_555
N4_16 C11_16 1_555 1_555
O1_18 Cd3_9 1_555 1_555
O2_16 Cd3_9 1_555 1_555
O3_16 Cd3_9 1_555 1_555
C2_18 N5_9 1_555 1_555
C3_18 N2_18 1_555 1_555
C4_18 N2_18 1_555 1_555
C8_18 C9_18 1_555 1_555
C10_18 O1_18 1_555 1_555
C10_18 O3_16 1_555 1_555
C12_18 N3_16 1_555 1_555
O2_16 H15_16 1_555 1_555
O2_16 H16_16 1_555 1_555
H10_16 C13_16 1_555 1_555
C14_16 C15_16 1_555 1_555
C15_16 H11_16 1_555 1_555
C16_18 C15_16 1_555 1_555
H12_18 C16_18 1_555 1_555
C17_18 C16_18 1_555 1_555
C18_18 C17_18 1_555 1_555
C20_18 C17_18 1_555 1_555
O6_9 C20_18 1_555 1_555
O7_9 C20_18 1_555 1_555
C11_17 H8_17 1_555 1_555
H10_17 C13_17 1_555 1_555
C14_17 C15_17 1_555 1_555
C15_17 H11_17 1_555 1_555
N3_17 C11_17 1_555 1_555
N4_17 C11_17 1_555 1_555
C13_17 N4_17 1_555 1_555
C14_17 N4_17 1_555 1_555
O2_17 H15_17 1_555 1_555
O2_17 H16_17 1_555 1_555
C11_18 H8_18 1_555 1_555
H10_18 C13_18 1_555 1_555
C14_18 C15_18 1_555 1_555
C15_18 H11_18 1_555 1_555
N3_18 C11_18 1_555 1_555
N4_18 C11_18 1_555 1_555
C13_18 N4_18 1_555 1_555
C14_18 N4_18 1_555 1_555
O2_18 H15_18 1_555 1_555
O2_18 H16_18 1_555 1_555

#END
