
###############################################################################
#
# This file contains modified crystal structure data generated from the
# MOF subset of the Cambridge Structural Database (CSD) v543 
# hosted by the Cambridge Crystallographic Data Centre (CCDC).
#
# This work is licensed under the Creative Commons
# Attribution-NonCommercial-ShareAlike 4.0 International License.
# To view a copy of this license, visit
# http://creativecommons.org/licenses/by-nc-sa/4.0/
# or send a letter to
# Creative Commons, PO Box 1866, Mountain View, CA 94042, USA.
#
# CIF created using the CSD Python API on 29 September 2022
# The structure has been converted into the P1 space group
# The structure has a 3D framework
# The original CSD entry PIFPIE is in the monoclinic crystal system
# The framework has been calculated to contain at least 10.0% void space
# The void calculation uses a probe of radius 1.32A, grid spacing 0.4
#
###############################################################################

data_PIFPIE
_chemical_formula_moiety         '(C168 H96 N8 O48 Zn14)n'
_symmetry_cell_setting           triclinic
_symmetry_space_group_name_H-M   'P 1'
_symmetry_Int_Tables_number      1
_space_group_name_Hall           'P 1'
loop_
_symmetry_equiv_pos_site_id
_symmetry_equiv_pos_as_xyz
1 x,y,z
_cell_length_a                   15.631(4)
_cell_length_b                   24.948(6)
_cell_length_c                   16.800(4)
_cell_angle_alpha                90
_cell_angle_beta                 113.875(4)
_cell_angle_gamma                90
_cell_volume                     5990.77
loop_
_atom_site_label
_atom_site_type_symbol
_atom_site_fract_x
_atom_site_fract_y
_atom_site_fract_z
Zn2 Zn 0.0000 0.328635(18) 0.2500
O5 O 0.17004(15) 0.69861(8) 0.00189(15)
O6 O 0.14952(15) 0.77529(9) 0.05722(17)
C15 C 0.1273(2) 0.72864(14) 0.0340(2)
C16 C 0.0465(2) 0.70448(12) 0.0478(2)
C17 C 0.0065(2) 0.65738(12) 0.0076(2)
C21 C 0.0131(2) 0.72830(11) 0.1034(2)
H12 H 0.0375 0.7611 0.1287
Zn3 Zn 0.22530(3) 0.300556(13) 0.41827(3)
Zn6 Zn 0.27470(3) 0.800556(13) 0.08173(3)
Zn9 Zn 0.5000 0.828635(18) 0.2500
O7 O 0.07297(16) 0.38091(8) 0.33670(17)
O8 O 0.22856(16) 0.37619(8) 0.39133(18)
C22 C 0.1531(3) 0.40212(12) 0.3667(2)
C23 C 0.1574(2) 0.46147(11) 0.3747(2)
C24 C 0.0762(2) 0.48984(11) 0.3548(2)
H13 H 0.0195 0.4717 0.3370
C25 C 0.0779(2) 0.54510(12) 0.3610(2)
H14 H 0.0222 0.5637 0.3471
C26 C 0.1605(2) 0.57287(11) 0.3874(2)
C27 C 0.2425(2) 0.54455(12) 0.4075(2)
H15 H 0.2993 0.5626 0.4259
C28 C 0.2402(2) 0.48890(12) 0.4002(2)
H16 H 0.2955 0.4701 0.4128
O9 O 0.43205(16) 0.78988(8) 0.30795(16)
O10 O 0.06795(16) 0.28988(8) 0.19205(16)
O12 O 0.35352(16) 0.75533(8) 0.17743(17)
O14 O 0.14648(16) 0.25533(8) 0.32257(17)
C29 C 0.3720(2) 0.75838(12) 0.2569(3)
C30 C 0.3214(2) 0.72287(12) 0.2957(2)
C31 C 0.3270(2) 0.73171(12) 0.3786(2)
H17 H 0.3650 0.7590 0.4122
C32 C 0.2762(2) 0.70012(12) 0.4125(2)
H18 H 0.2806 0.7063 0.4686
C33 C 0.2200(2) 0.66004(11) 0.3631(2)
C34 C 0.2161(2) 0.65006(11) 0.2814(2)
H19 H 0.1798 0.6219 0.2485
C35 C 0.2662(2) 0.68190(12) 0.2477(2)
H20 H 0.2623 0.6753 0.1918
O17 O 0.17004(15) 0.30139(8) 0.50189(15)
O20 O 0.35048(15) 0.27529(9) 0.44278(17)
C39 C 0.0650(2) 0.63386(11) 0.4767(2)
H22 H 0.0933 0.6028 0.5064
C40 C 0.0951(2) 0.65632(11) 0.4166(2)
C41 C 0.0564(2) 0.70410(11) 0.3776(2)
H23 H 0.0768 0.7202 0.3385
N2 N 0.16368(17) 0.62959(9) 0.39606(18)
H9 H 0.0278 0.6411 0.9693
Zn5 Zn 0.22530(3) 0.699444(13) 0.91827(3)
Zn1 Zn 0.77470(3) 0.300556(13) 0.08173(3)
Zn2_2 Zn 1.0000 0.328635(18) 0.2500
O1 O 0.92703(16) 0.38091(8) 0.16330(17)
O2 O 0.77144(16) 0.37619(8) 0.10867(18)
C1 C 0.8469(3) 0.40212(12) 0.1333(2)
C2 C 0.8426(2) 0.46147(11) 0.1253(2)
C3 C 0.9238(2) 0.48984(11) 0.1452(2)
H1 H 0.9805 0.4717 0.1630
C4 C 0.9221(2) 0.54510(12) 0.1390(2)
H2 H 0.9778 0.5637 0.1529
C5 C 0.8395(2) 0.57287(11) 0.1126(2)
C6 C 0.7575(2) 0.54455(12) 0.0925(2)
H3 H 0.7007 0.5626 0.0741
C7 C 0.7598(2) 0.48890(12) 0.0998(2)
H4 H 0.7045 0.4701 0.0872
O3 O 0.56795(16) 0.78988(8) 0.19205(16)
O4 O 0.64648(16) 0.75533(8) 0.32257(17)
C8 C 0.6280(2) 0.75838(12) 0.2431(3)
C9 C 0.6786(2) 0.72287(12) 0.2043(2)
C10 C 0.6730(2) 0.73171(12) 0.1214(2)
H5 H 0.6350 0.7590 0.0878
C11 C 0.7238(2) 0.70012(12) 0.0875(2)
H6 H 0.7194 0.7063 0.0314
C12 C 0.7800(2) 0.66004(11) 0.1369(2)
C13 C 0.7839(2) 0.65006(11) 0.2186(2)
H7 H 0.8202 0.6219 0.2515
C14 C 0.7338(2) 0.68190(12) 0.2523(2)
H8 H 0.7377 0.6753 0.3082
C18 C 0.9350(2) 0.63386(11) 0.0233(2)
C19 C 0.9049(2) 0.65632(11) 0.0834(2)
C20 C 0.9436(2) 0.70410(11) 0.1224(2)
H11 H 0.9232 0.7202 0.1615
N1 N 0.83632(17) 0.62959(9) 0.10394(18)
Zn4 Zn 0.72530(3) 0.800556(13) 0.41827(3)
Zn7 Zn 0.77470(3) 0.699444(13) 0.58173(3)
O11 O 0.93205(16) 0.28988(8) 0.30795(16)
O13 O 0.85352(16) 0.25533(8) 0.17743(17)
O15 O 0.82996(15) 0.69861(8) 0.49811(15)
O18 O 0.85048(15) 0.77529(9) 0.44278(17)
O19 O 0.64952(15) 0.27529(9) 0.05722(17)
C36 C 0.8727(2) 0.72864(14) 0.4660(2)
C37 C 0.9535(2) 0.70448(12) 0.4522(2)
C38 C 0.9935(2) 0.65738(12) 0.4924(2)
H21 H 0.9722 0.6411 0.5307
C42 C 0.9869(2) 0.72830(11) 0.3966(2)
H24 H 0.9625 0.7611 0.3713
H10 H 0.9067 0.6028 0.9936
O16 O 0.82996(15) 0.30139(8) 0.99811(15)
C4_2 C 0.4221(2) 0.04510(12) 0.1390(2)
H2_2 H 0.4778 0.0637 0.1529
C5_2 C 0.3395(2) 0.07287(11) 0.1126(2)
C6_2 C 0.2575(2) 0.04455(12) 0.0925(2)
H3_2 H 0.2007 0.0626 0.0741
C8_2 C 0.1280(2) 0.25838(12) 0.2431(3)
C9_2 C 0.1786(2) 0.22287(12) 0.2043(2)
C10_2 C 0.1730(2) 0.23171(12) 0.1214(2)
H5_2 H 0.1350 0.2590 0.0878
C11_2 C 0.2238(2) 0.20012(12) 0.0875(2)
H6_2 H 0.2194 0.2063 0.0314
C12_2 C 0.2800(2) 0.16004(11) 0.1369(2)
C13_2 C 0.2839(2) 0.15006(11) 0.2186(2)
H7_2 H 0.3202 0.1219 0.2515
C14_2 C 0.2338(2) 0.18190(12) 0.2523(2)
H8_2 H 0.2377 0.1753 0.3082
O5_2 O 0.67004(15) 0.19861(8) 0.00189(15)
C15_2 C 0.6273(2) 0.22864(14) 0.0340(2)
C16_2 C 0.5465(2) 0.20448(12) 0.0478(2)
C17_2 C 0.5065(2) 0.15738(12) 0.0076(2)
C18_2 C 0.4350(2) 0.13386(11) 0.0233(2)
C19_2 C 0.4049(2) 0.15632(11) 0.0834(2)
C20_2 C 0.4436(2) 0.20410(11) 0.1224(2)
H11_2 H 0.4232 0.2202 0.1615
C21_2 C 0.5131(2) 0.22830(11) 0.1034(2)
H12_2 H 0.5375 0.2611 0.1287
N1_2 N 0.33632(17) 0.12959(9) 0.10394(18)
Zn7_2 Zn 0.27470(3) 0.199444(13) 0.58173(3)
C25_2 C 0.5779(2) 0.04510(12) 0.3610(2)
H14_2 H 0.5222 0.0637 0.3471
C26_2 C 0.6605(2) 0.07287(11) 0.3874(2)
C27_2 C 0.7425(2) 0.04455(12) 0.4075(2)
H15_2 H 0.7993 0.0626 0.4259
C29_2 C 0.8720(2) 0.25838(12) 0.2569(3)
C30_2 C 0.8214(2) 0.22287(12) 0.2957(2)
C31_2 C 0.8270(2) 0.23171(12) 0.3786(2)
H17_2 H 0.8650 0.2590 0.4122
C32_2 C 0.7762(2) 0.20012(12) 0.4125(2)
H18_2 H 0.7806 0.2063 0.4686
C33_2 C 0.7200(2) 0.16004(11) 0.3631(2)
C34_2 C 0.7161(2) 0.15006(11) 0.2814(2)
H19_2 H 0.6798 0.1219 0.2485
C35_2 C 0.7662(2) 0.18190(12) 0.2477(2)
H20_2 H 0.7623 0.1753 0.1918
O15_2 O 0.32996(15) 0.19861(8) 0.49811(15)
C36_2 C 0.3727(2) 0.22864(14) 0.4660(2)
C37_2 C 0.4535(2) 0.20448(12) 0.4522(2)
C38_2 C 0.4935(2) 0.15738(12) 0.4924(2)
H21_2 H 0.4722 0.1411 0.5307
C39_2 C 0.5650(2) 0.13386(11) 0.4767(2)
H22_2 H 0.5933 0.1028 0.5064
C40_2 C 0.5951(2) 0.15632(11) 0.4166(2)
C41_2 C 0.5564(2) 0.20410(11) 0.3776(2)
H23_2 H 0.5768 0.2202 0.3385
C42_2 C 0.4869(2) 0.22830(11) 0.3966(2)
H24_2 H 0.4625 0.2611 0.3713
N2_2 N 0.66368(17) 0.12959(9) 0.39606(18)
H9_2 H 0.5278 0.1411 0.9693
H10_2 H 0.4067 0.1028 0.9936
Zn5_2 Zn 0.72530(3) 0.199444(13) 0.91827(3)
O1_2 O 0.42703(16) 0.88091(8) 0.16330(17)
O2_2 O 0.27144(16) 0.87619(8) 0.10867(18)
C1_2 C 0.3469(3) 0.90212(12) 0.1333(2)
C2_2 C 0.3426(2) 0.96147(11) 0.1253(2)
C3_2 C 0.4238(2) 0.98984(11) 0.1452(2)
H1_2 H 0.4805 0.9717 0.1630
C7_2 C 0.2598(2) 0.98890(12) 0.0998(2)
H4_2 H 0.2045 0.9701 0.0872
O7_2 O 0.57297(16) 0.88091(8) 0.33670(17)
O8_2 O 0.72856(16) 0.87619(8) 0.39133(18)
C22_2 C 0.6531(3) 0.90212(12) 0.3667(2)
C23_2 C 0.6574(2) 0.96147(11) 0.3747(2)
C24_2 C 0.5762(2) 0.98984(11) 0.3548(2)
H13_2 H 0.5195 0.9717 0.3370
C28_2 C 0.7402(2) 0.98890(12) 0.4002(2)
H16_2 H 0.7955 0.9701 0.4128
O17_2 O 0.67004(15) 0.80139(8) 0.50189(15)
O16_2 O 0.32996(15) 0.80139(8) 0.99811(15)
H10_3 H 0.0933 0.3972 0.0064
Zn2_3 Zn 0.0000 0.671365(18) 0.7500
O1_3 O 0.07297(16) 0.61909(8) 0.83670(17)
O2_3 O 0.22856(16) 0.62381(8) 0.89133(18)
C1_3 C 0.1531(3) 0.59788(12) 0.8667(2)
C2_3 C 0.1574(2) 0.53853(11) 0.8747(2)
C3_3 C 0.0762(2) 0.51016(11) 0.8548(2)
H1_3 H 0.0195 0.5283 0.8370
C4_3 C 0.0779(2) 0.45490(12) 0.8610(2)
H2_3 H 0.0222 0.4363 0.8471
C5_3 C 0.1605(2) 0.42713(11) 0.8874(2)
C6_3 C 0.2425(2) 0.45545(12) 0.9075(2)
H3_3 H 0.2993 0.4374 0.9259
C7_3 C 0.2402(2) 0.51110(12) 0.9002(2)
H4_3 H 0.2955 0.5299 0.9128
O3_2 O 0.43205(16) 0.21012(8) 0.80795(16)
O4_2 O 0.35352(16) 0.24467(8) 0.67743(17)
C8_3 C 0.3720(2) 0.24162(12) 0.7569(3)
C9_3 C 0.3214(2) 0.27713(12) 0.7957(2)
C10_3 C 0.3270(2) 0.26829(12) 0.8786(2)
H5_3 H 0.3650 0.2410 0.9122
C11_3 C 0.2762(2) 0.29988(12) 0.9125(2)
H6_3 H 0.2806 0.2937 0.9686
C12_3 C 0.2200(2) 0.33996(11) 0.8631(2)
C13_3 C 0.2161(2) 0.34994(11) 0.7814(2)
H7_3 H 0.1798 0.3781 0.7485
C14_3 C 0.2662(2) 0.31810(12) 0.7477(2)
H8_3 H 0.2623 0.3247 0.6918
C18_3 C 0.0650(2) 0.36614(11) 0.9767(2)
C19_3 C 0.0951(2) 0.34368(11) 0.9166(2)
C20_3 C 0.0564(2) 0.29590(11) 0.8776(2)
H11_3 H 0.0768 0.2798 0.8385
N1_3 N 0.16368(17) 0.37041(9) 0.89606(18)
Zn8 Zn 0.5000 0.171365(18) 0.7500
O11_2 O 0.06795(16) 0.71012(8) 0.69205(16)
O13_2 O 0.14648(16) 0.74467(8) 0.82257(17)
O18_2 O 0.14952(15) 0.22471(9) 0.55722(17)
O19_2 O 0.35048(15) 0.72471(9) 0.94278(17)
C36_3 C 0.1273(2) 0.27136(14) 0.5340(2)
C37_3 C 0.0465(2) 0.29552(12) 0.5478(2)
C38_3 C 0.0065(2) 0.34262(12) 0.5076(2)
H21_3 H 0.0278 0.3589 0.4693
C42_3 C 0.0131(2) 0.27170(11) 0.6034(2)
H24_3 H 0.0375 0.2389 0.6287
H9_3 H 0.9722 0.3589 0.0307
Zn2_4 Zn 1.0000 0.671365(18) 0.7500
O6_2 O 0.85048(15) 0.22471(9) 0.94278(17)
C15_3 C 0.8727(2) 0.27136(14) 0.9660(2)
C16_3 C 0.9535(2) 0.29552(12) 0.9522(2)
C17_3 C 0.9935(2) 0.34262(12) 0.9924(2)
C21_3 C 0.9869(2) 0.27170(11) 0.8966(2)
H12_3 H 0.9625 0.2389 0.8713
O7_3 O 0.92703(16) 0.61909(8) 0.66330(17)
O8_3 O 0.77144(16) 0.62381(8) 0.60867(18)
C22_3 C 0.8469(3) 0.59788(12) 0.6333(2)
C23_3 C 0.8426(2) 0.53853(11) 0.6253(2)
C24_3 C 0.9238(2) 0.51016(11) 0.6452(2)
H13_3 H 0.9805 0.5283 0.6630
C25_3 C 0.9221(2) 0.45490(12) 0.6390(2)
H14_3 H 0.9778 0.4363 0.6529
C26_3 C 0.8395(2) 0.42713(11) 0.6126(2)
C27_3 C 0.7575(2) 0.45545(12) 0.5925(2)
H15_3 H 0.7007 0.4374 0.5741
C28_3 C 0.7598(2) 0.51110(12) 0.5998(2)
H16_3 H 0.7045 0.5299 0.5872
O9_2 O 0.56795(16) 0.21012(8) 0.69205(16)
O10_2 O 0.93205(16) 0.71012(8) 0.80795(16)
O12_2 O 0.64648(16) 0.24467(8) 0.82257(17)
O14_2 O 0.85352(16) 0.74467(8) 0.67743(17)
C29_3 C 0.6280(2) 0.24162(12) 0.7431(3)
C30_3 C 0.6786(2) 0.27713(12) 0.7043(2)
C31_3 C 0.6730(2) 0.26829(12) 0.6214(2)
H17_3 H 0.6350 0.2410 0.5878
C32_3 C 0.7238(2) 0.29988(12) 0.5875(2)
H18_3 H 0.7194 0.2937 0.5314
C33_3 C 0.7800(2) 0.33996(11) 0.6369(2)
C34_3 C 0.7839(2) 0.34994(11) 0.7186(2)
H19_3 H 0.8202 0.3781 0.7515
C35_3 C 0.7338(2) 0.31810(12) 0.7523(2)
H20_3 H 0.7377 0.3247 0.8082
O20_2 O 0.64952(15) 0.72471(9) 0.55722(17)
C39_3 C 0.9350(2) 0.36614(11) 0.5233(2)
H22_3 H 0.9067 0.3972 0.4936
C40_3 C 0.9049(2) 0.34368(11) 0.5834(2)
C41_3 C 0.9436(2) 0.29590(11) 0.6224(2)
H23_3 H 0.9232 0.2798 0.6615
N2_3 N 0.83632(17) 0.37041(9) 0.60394(18)
O1_4 O 0.57297(16) 0.11909(8) 0.83670(17)
O2_4 O 0.72856(16) 0.12381(8) 0.89133(18)
C1_4 C 0.6531(3) 0.09788(12) 0.8667(2)
C2_4 C 0.6574(2) 0.03853(11) 0.8747(2)
C3_4 C 0.5762(2) 0.01016(11) 0.8548(2)
H1_4 H 0.5195 0.0283 0.8370
C7_4 C 0.7402(2) 0.01110(12) 0.9002(2)
H4_4 H 0.7955 0.0299 0.9128
O7_4 O 0.42703(16) 0.11909(8) 0.66330(17)
O8_4 O 0.27144(16) 0.12381(8) 0.60867(18)
C22_4 C 0.3469(3) 0.09788(12) 0.6333(2)
C23_4 C 0.3426(2) 0.03853(11) 0.6253(2)
C24_4 C 0.4238(2) 0.01016(11) 0.6452(2)
H13_4 H 0.4805 0.0283 0.6630
C28_4 C 0.2598(2) 0.01110(12) 0.5998(2)
H16_4 H 0.2045 0.0299 0.5872
H9_4 H 0.4722 0.8589 0.0307
H10_4 H 0.5933 0.8972 0.0064
C4_4 C 0.5779(2) 0.95490(12) 0.8610(2)
H2_4 H 0.5222 0.9363 0.8471
C5_4 C 0.6605(2) 0.92713(11) 0.8874(2)
C6_4 C 0.7425(2) 0.95545(12) 0.9075(2)
H3_4 H 0.7993 0.9374 0.9259
C8_4 C 0.8720(2) 0.74162(12) 0.7569(3)
C9_4 C 0.8214(2) 0.77713(12) 0.7957(2)
C10_4 C 0.8270(2) 0.76829(12) 0.8786(2)
H5_4 H 0.8650 0.7410 0.9122
C11_4 C 0.7762(2) 0.79988(12) 0.9125(2)
H6_4 H 0.7806 0.7937 0.9686
C12_4 C 0.7200(2) 0.83996(11) 0.8631(2)
C13_4 C 0.7161(2) 0.84994(11) 0.7814(2)
H7_4 H 0.6798 0.8781 0.7485
C14_4 C 0.7662(2) 0.81810(12) 0.7477(2)
H8_4 H 0.7623 0.8247 0.6918
C15_4 C 0.3727(2) 0.77136(14) 0.9660(2)
C16_4 C 0.4535(2) 0.79552(12) 0.9522(2)
C17_4 C 0.4935(2) 0.84262(12) 0.9924(2)
C18_4 C 0.5650(2) 0.86614(11) 0.9767(2)
C19_4 C 0.5951(2) 0.84368(11) 0.9166(2)
C20_4 C 0.5564(2) 0.79590(11) 0.8776(2)
H11_4 H 0.5768 0.7798 0.8385
C21_4 C 0.4869(2) 0.77170(11) 0.8966(2)
H12_4 H 0.4625 0.7389 0.8713
N1_4 N 0.66368(17) 0.87041(9) 0.89606(18)
C25_4 C 0.4221(2) 0.95490(12) 0.6390(2)
H14_4 H 0.4778 0.9363 0.6529
C26_4 C 0.3395(2) 0.92713(11) 0.6126(2)
C27_4 C 0.2575(2) 0.95545(12) 0.5925(2)
H15_4 H 0.2007 0.9374 0.5741
C29_4 C 0.1280(2) 0.74162(12) 0.7431(3)
C30_4 C 0.1786(2) 0.77713(12) 0.7043(2)
C31_4 C 0.1730(2) 0.76829(12) 0.6214(2)
H17_4 H 0.1350 0.7410 0.5878
C32_4 C 0.2238(2) 0.79988(12) 0.5875(2)
H18_4 H 0.2194 0.7937 0.5314
C33_4 C 0.2800(2) 0.83996(11) 0.6369(2)
C34_4 C 0.2839(2) 0.84994(11) 0.7186(2)
H19_4 H 0.3202 0.8781 0.7515
C35_4 C 0.2338(2) 0.81810(12) 0.7523(2)
H20_4 H 0.2377 0.8247 0.8082
C36_4 C 0.6273(2) 0.77136(14) 0.5340(2)
C37_4 C 0.5465(2) 0.79552(12) 0.5478(2)
C38_4 C 0.5065(2) 0.84262(12) 0.5076(2)
H21_4 H 0.5278 0.8589 0.4693
C39_4 C 0.4350(2) 0.86614(11) 0.5233(2)
H22_4 H 0.4067 0.8972 0.4936
C40_4 C 0.4049(2) 0.84368(11) 0.5834(2)
C41_4 C 0.4436(2) 0.79590(11) 0.6224(2)
H23_4 H 0.4232 0.7798 0.6615
C42_4 C 0.5131(2) 0.77170(11) 0.6034(2)
H24_4 H 0.5375 0.7389 0.6287
N2_4 N 0.33632(17) 0.87041(9) 0.60394(18)
loop_
_geom_bond_atom_site_label_1
_geom_bond_atom_site_label_2
_geom_bond_site_symmetry_1
_geom_bond_site_symmetry_2
O5 C15 1_555 1_555
O6 C15 1_555 1_555
C15 C16 1_555 1_555
C16 C17 1_555 1_555
C21 C16 1_555 1_555
H12 C21 1_555 1_555
Zn3 O8 1_555 1_555
Zn6 O6 1_555 1_555
Zn9 O9 1_555 1_555
O7 Zn2 1_555 1_555
O8 C22 1_555 1_555
C22 O7 1_555 1_555
C23 C22 1_555 1_555
C24 C23 1_555 1_555
H13 C24 1_555 1_555
C25 C24 1_555 1_555
H14 C25 1_555 1_555
C26 C25 1_555 1_555
C27 C26 1_555 1_555
H15 C27 1_555 1_555
C28 C23 1_555 1_555
H16 C28 1_555 1_555
O9 C29 1_555 1_555
O10 Zn2 1_555 1_555
O12 Zn6 1_555 1_555
O14 Zn3 1_555 1_555
C29 O12 1_555 1_555
C30 C29 1_555 1_555
C31 C30 1_555 1_555
H17 C31 1_555 1_555
C32 C31 1_555 1_555
H18 C32 1_555 1_555
C33 C32 1_555 1_555
C34 C33 1_555 1_555
H19 C34 1_555 1_555
C35 C30 1_555 1_555
H20 C35 1_555 1_555
O17 Zn3 1_555 1_555
O20 Zn3 1_555 1_555
H22 C39 1_555 1_555
C40 C39 1_555 1_555
C41 C40 1_555 1_555
H23 C41 1_555 1_555
N2 C26 1_555 1_555
C27 C28 1_555 1_555
C33 N2 1_555 1_555
C34 C35 1_555 1_555
C40 N2 1_555 1_555
Zn1 O2 1_555 1_555
Zn2_2 O1 1_555 1_555
O1 C1 1_555 1_555
O2 C1 1_555 1_555
C1 C2 1_555 1_555
C2 C3 1_555 1_555
C3 H1 1_555 1_555
C4 C3 1_555 1_555
H2 C4 1_555 1_555
C5 C4 1_555 1_555
C6 C5 1_555 1_555
H3 C6 1_555 1_555
C7 C2 1_555 1_555
H4 C7 1_555 1_555
O3 C8 1_555 1_555
O4 C8 1_555 1_555
C8 C9 1_555 1_555
C9 C10 1_555 1_555
C10 H5 1_555 1_555
C11 C10 1_555 1_555
H6 C11 1_555 1_555
C12 C11 1_555 1_555
C13 C12 1_555 1_555
H7 C13 1_555 1_555
C14 C9 1_555 1_555
H8 C14 1_555 1_555
C19 C18 1_555 1_555
C20 C19 1_555 1_555
H11 C20 1_555 1_555
N1 C5 1_555 1_555
Zn4 O4 1_555 1_555
Zn7 O15 1_555 1_555
Zn9 O3 1_555 1_555
O11 Zn2_2 1_555 1_555
O13 Zn1 1_555 1_555
O15 C36 1_555 1_555
O18 Zn4 1_555 1_555
O19 Zn1 1_555 1_555
C36 O18 1_555 1_555
C37 C36 1_555 1_555
C38 C37 1_555 1_555
H21 C38 1_555 1_555
C42 C37 1_555 1_555
H24 C42 1_555 1_555
C6 C7 1_555 1_555
C12 N1 1_555 1_555
C13 C14 1_555 1_555
C19 N1 1_555 1_555
H2_2 C4_2 1_555 1_555
C5_2 C4_2 1_555 1_555
C6_2 C5_2 1_555 1_555
H3_2 C6_2 1_555 1_555
O10 C8_2 1_555 1_555
O14 C8_2 1_555 1_555
C8_2 C9_2 1_555 1_555
C9_2 C10_2 1_555 1_555
C10_2 H5_2 1_555 1_555
C11_2 C10_2 1_555 1_555
H6_2 C11_2 1_555 1_555
C12_2 C11_2 1_555 1_555
C13_2 C12_2 1_555 1_555
H7_2 C13_2 1_555 1_555
C14_2 C9_2 1_555 1_555
H8_2 C14_2 1_555 1_555
O5_2 C15_2 1_555 1_555
O19 C15_2 1_555 1_555
C15_2 C16_2 1_555 1_555
C16_2 C17_2 1_555 1_555
C18_2 C17_2 1_555 1_555
C19_2 C18_2 1_555 1_555
C20_2 C19_2 1_555 1_555
H11_2 C20_2 1_555 1_555
C21_2 C16_2 1_555 1_555
H12_2 C21_2 1_555 1_555
N1_2 C5_2 1_555 1_555
Zn7_2 O15_2 1_555 1_555
H14_2 C25_2 1_555 1_555
C26_2 C25_2 1_555 1_555
C27_2 C26_2 1_555 1_555
H15_2 C27_2 1_555 1_555
O11 C29_2 1_555 1_555
C29_2 O13 1_555 1_555
C30_2 C29_2 1_555 1_555
C31_2 C30_2 1_555 1_555
H17_2 C31_2 1_555 1_555
C32_2 C31_2 1_555 1_555
H18_2 C32_2 1_555 1_555
C33_2 C32_2 1_555 1_555
C34_2 C33_2 1_555 1_555
H19_2 C34_2 1_555 1_555
C35_2 C30_2 1_555 1_555
H20_2 C35_2 1_555 1_555
O15_2 C36_2 1_555 1_555
C36_2 O20 1_555 1_555
C37_2 C36_2 1_555 1_555
C38_2 C37_2 1_555 1_555
H21_2 C38_2 1_555 1_555
C39_2 C38_2 1_555 1_555
H22_2 C39_2 1_555 1_555
C40_2 C39_2 1_555 1_555
C41_2 C40_2 1_555 1_555
H23_2 C41_2 1_555 1_555
C42_2 C37_2 1_555 1_555
H24_2 C42_2 1_555 1_555
N2_2 C26_2 1_555 1_555
C12_2 N1_2 1_555 1_555
C13_2 C14_2 1_555 1_555
C19_2 N1_2 1_555 1_555
C20_2 C21_2 1_555 1_555
C33_2 N2_2 1_555 1_555
C34_2 C35_2 1_555 1_555
C40_2 N2_2 1_555 1_555
C41_2 C42_2 1_555 1_555
Zn6 O2_2 1_555 1_555
Zn9 O1_2 1_555 1_555
O1_2 C1_2 1_555 1_555
O2_2 C1_2 1_555 1_555
C1_2 C2_2 1_555 1_555
C2_2 C3_2 1_555 1_555
C3_2 H1_2 1_555 1_555
C7_2 C2_2 1_555 1_555
H4_2 C7_2 1_555 1_555
Zn4 O8_2 1_555 1_555
O7_2 Zn9 1_555 1_555
O8_2 C22_2 1_555 1_555
C22_2 O7_2 1_555 1_555
C23_2 C22_2 1_555 1_555
C24_2 C23_2 1_555 1_555
H13_2 C24_2 1_555 1_555
C28_2 C23_2 1_555 1_555
H16_2 C28_2 1_555 1_555
O17_2 Zn4 1_555 1_555
Zn5 O2_3 1_555 1_555
Zn2_3 O1_3 1_555 1_555
O1_3 C1_3 1_555 1_555
O2_3 C1_3 1_555 1_555
C1_3 C2_3 1_555 1_555
C2_3 C3_3 1_555 1_555
C3_3 H1_3 1_555 1_555
C4_3 C3_3 1_555 1_555
H2_3 C4_3 1_555 1_555
C5_3 C4_3 1_555 1_555
C6_3 C5_3 1_555 1_555
H3_3 C6_3 1_555 1_555
C7_3 C2_3 1_555 1_555
H4_3 C7_3 1_555 1_555
O3_2 C8_3 1_555 1_555
O4_2 C8_3 1_555 1_555
C8_3 C9_3 1_555 1_555
C9_3 C10_3 1_555 1_555
C10_3 H5_3 1_555 1_555
C11_3 C10_3 1_555 1_555
H6_3 C11_3 1_555 1_555
C12_3 C11_3 1_555 1_555
C13_3 C12_3 1_555 1_555
H7_3 C13_3 1_555 1_555
C14_3 C9_3 1_555 1_555
H8_3 C14_3 1_555 1_555
C19_3 C18_3 1_555 1_555
C20_3 C19_3 1_555 1_555
H11_3 C20_3 1_555 1_555
N1_3 C5_3 1_555 1_555
Zn7_2 O4_2 1_555 1_555
Zn8 O3_2 1_555 1_555
O11_2 Zn2_3 1_555 1_555
O13_2 Zn5 1_555 1_555
O17 C36_3 1_555 1_555
O18_2 Zn7_2 1_555 1_555
O19_2 Zn5 1_555 1_555
C36_3 O18_2 1_555 1_555
C37_3 C36_3 1_555 1_555
C38_3 C37_3 1_555 1_555
H21_3 C38_3 1_555 1_555
C42_3 C37_3 1_555 1_555
H24_3 C42_3 1_555 1_555
C6_3 C7_3 1_555 1_555
C12_3 N1_3 1_555 1_555
C13_3 C14_3 1_555 1_555
C19_3 N1_3 1_555 1_555
O16 C15_3 1_555 1_555
O6_2 C15_3 1_555 1_555
C15_3 C16_3 1_555 1_555
C16_3 C17_3 1_555 1_555
C21_3 C16_3 1_555 1_555
H12_3 C21_3 1_555 1_555
Zn7 O8_3 1_555 1_555
Zn5_2 O6_2 1_555 1_555
Zn8 O9_2 1_555 1_555
O7_3 Zn2_4 1_555 1_555
O8_3 C22_3 1_555 1_555
C22_3 O7_3 1_555 1_555
C23_3 C22_3 1_555 1_555
C24_3 C23_3 1_555 1_555
H13_3 C24_3 1_555 1_555
C25_3 C24_3 1_555 1_555
H14_3 C25_3 1_555 1_555
C26_3 C25_3 1_555 1_555
C27_3 C26_3 1_555 1_555
H15_3 C27_3 1_555 1_555
C28_3 C23_3 1_555 1_555
H16_3 C28_3 1_555 1_555
O9_2 C29_3 1_555 1_555
O10_2 Zn2_4 1_555 1_555
O12_2 Zn5_2 1_555 1_555
O14_2 Zn7 1_555 1_555
C29_3 O12_2 1_555 1_555
C30_3 C29_3 1_555 1_555
C31_3 C30_3 1_555 1_555
H17_3 C31_3 1_555 1_555
C32_3 C31_3 1_555 1_555
H18_3 C32_3 1_555 1_555
C33_3 C32_3 1_555 1_555
C34_3 C33_3 1_555 1_555
H19_3 C34_3 1_555 1_555
C35_3 C30_3 1_555 1_555
H20_3 C35_3 1_555 1_555
O20_2 Zn7 1_555 1_555
H22_3 C39_3 1_555 1_555
C40_3 C39_3 1_555 1_555
C41_3 C40_3 1_555 1_555
H23_3 C41_3 1_555 1_555
N2_3 C26_3 1_555 1_555
C27_3 C28_3 1_555 1_555
C33_3 N2_3 1_555 1_555
C34_3 C35_3 1_555 1_555
C40_3 N2_3 1_555 1_555
Zn5_2 O2_4 1_555 1_555
Zn8 O1_4 1_555 1_555
O1_4 C1_4 1_555 1_555
O2_4 C1_4 1_555 1_555
C1_4 C2_4 1_555 1_555
C2_4 C3_4 1_555 1_555
C3_4 H1_4 1_555 1_555
C7_4 C2_4 1_555 1_555
H4_4 C7_4 1_555 1_555
Zn7_2 O8_4 1_555 1_555
O7_4 Zn8 1_555 1_555
O8_4 C22_4 1_555 1_555
C22_4 O7_4 1_555 1_555
C23_4 C22_4 1_555 1_555
C24_4 C23_4 1_555 1_555
H13_4 C24_4 1_555 1_555
C28_4 C23_4 1_555 1_555
H16_4 C28_4 1_555 1_555
H2_4 C4_4 1_555 1_555
C5_4 C4_4 1_555 1_555
C6_4 C5_4 1_555 1_555
H3_4 C6_4 1_555 1_555
O10_2 C8_4 1_555 1_555
O14_2 C8_4 1_555 1_555
C8_4 C9_4 1_555 1_555
C9_4 C10_4 1_555 1_555
C10_4 H5_4 1_555 1_555
C11_4 C10_4 1_555 1_555
H6_4 C11_4 1_555 1_555
C12_4 C11_4 1_555 1_555
C13_4 C12_4 1_555 1_555
H7_4 C13_4 1_555 1_555
C14_4 C9_4 1_555 1_555
H8_4 C14_4 1_555 1_555
O16_2 C15_4 1_555 1_555
O19_2 C15_4 1_555 1_555
C15_4 C16_4 1_555 1_555
C16_4 C17_4 1_555 1_555
C18_4 C17_4 1_555 1_555
C19_4 C18_4 1_555 1_555
C20_4 C19_4 1_555 1_555
H11_4 C20_4 1_555 1_555
C21_4 C16_4 1_555 1_555
H12_4 C21_4 1_555 1_555
N1_4 C5_4 1_555 1_555
H14_4 C25_4 1_555 1_555
C26_4 C25_4 1_555 1_555
C27_4 C26_4 1_555 1_555
H15_4 C27_4 1_555 1_555
O11_2 C29_4 1_555 1_555
C29_4 O13_2 1_555 1_555
C30_4 C29_4 1_555 1_555
C31_4 C30_4 1_555 1_555
H17_4 C31_4 1_555 1_555
C32_4 C31_4 1_555 1_555
H18_4 C32_4 1_555 1_555
C33_4 C32_4 1_555 1_555
C34_4 C33_4 1_555 1_555
H19_4 C34_4 1_555 1_555
C35_4 C30_4 1_555 1_555
H20_4 C35_4 1_555 1_555
O17_2 C36_4 1_555 1_555
C36_4 O20_2 1_555 1_555
C37_4 C36_4 1_555 1_555
C38_4 C37_4 1_555 1_555
H21_4 C38_4 1_555 1_555
C39_4 C38_4 1_555 1_555
H22_4 C39_4 1_555 1_555
C40_4 C39_4 1_555 1_555
C41_4 C40_4 1_555 1_555
H23_4 C41_4 1_555 1_555
C42_4 C37_4 1_555 1_555
H24_4 C42_4 1_555 1_555
N2_4 C26_4 1_555 1_555
C12_4 N1_4 1_555 1_555
C13_4 C14_4 1_555 1_555
C19_4 N1_4 1_555 1_555
C20_4 C21_4 1_555 1_555
C33_4 N2_4 1_555 1_555
C34_4 C35_4 1_555 1_555
C40_4 N2_4 1_555 1_555
C41_4 C42_4 1_555 1_555

#END
