
###############################################################################
#
# This file contains modified crystal structure data generated from the
# MOF subset of the Cambridge Structural Database (CSD) v543 
# hosted by the Cambridge Crystallographic Data Centre (CCDC).
#
# This work is licensed under the Creative Commons
# Attribution-NonCommercial-ShareAlike 4.0 International License.
# To view a copy of this license, visit
# http://creativecommons.org/licenses/by-nc-sa/4.0/
# or send a letter to
# Creative Commons, PO Box 1866, Mountain View, CA 94042, USA.
#
# CIF created using the CSD Python API on 29 September 2022
# The structure has been converted into the P1 space group
# The structure has a 3D framework
# The original CSD entry PIGHIX is in the monoclinic crystal system
# The framework has been calculated to contain at least 10.0% void space
# The void calculation uses a probe of radius 1.32A, grid spacing 0.4
# The framework is charged, counterions have been retained in the structure
#
###############################################################################

data_PIGHIX
_chemical_formula_moiety         '(C192 H144 B8 Cu14 F32 N24 O40)n'
_symmetry_cell_setting           triclinic
_symmetry_space_group_name_H-M   'P 1'
_symmetry_Int_Tables_number      1
_space_group_name_Hall           'P 1'
loop_
_symmetry_equiv_pos_site_id
_symmetry_equiv_pos_as_xyz
1 x,y,z
_cell_length_a                   19.0949(9)
_cell_length_b                   22.7667(11)
_cell_length_c                   13.3952(7)
_cell_angle_alpha                90
_cell_angle_beta                 113.1850(10)
_cell_angle_gamma                90
_cell_volume                     5352.97
loop_
_atom_site_label
_atom_site_type_symbol
_atom_site_fract_x
_atom_site_fract_y
_atom_site_fract_z
Cu3 Cu 0.00415(2) 0.736648(18) 0.44304(3)
Cu5 Cu -0.0000 0.63126(2) 0.2500
N4 N 0.03260(19) 0.82245(13) 0.4551(3)
N5 N 0.09486(18) 0.73287(14) 0.5841(3)
C26 C 0.0213(3) 0.9243(2) 0.4141(6)
C27 C 0.0787(3) 0.9375(2) 0.5099(6)
H23 H 0.0940 0.9767 0.5269
C28 C 0.1153(3) 0.8927(2) 0.5835(5)
C29 C 0.1760(4) 0.9003(3) 0.6866(6)
H24 H 0.1942 0.9385 0.7089
C30 C 0.2079(3) 0.8557(3) 0.7526(5)
H25 H 0.2474 0.8631 0.8204
C31 C 0.1833(3) 0.7962(3) 0.7226(4)
C32 C 0.2138(3) 0.7461(3) 0.7856(4)
H26 H 0.2532 0.7501 0.8547
C33 C 0.1867(3) 0.6920(3) 0.7473(4)
H27 H 0.2082 0.6583 0.7886
C34 C 0.1265(2) 0.6869(2) 0.6458(3)
H28 H 0.1077 0.6492 0.6202
C35 C 0.1232(2) 0.7870(2) 0.6211(3)
C36 C 0.0899(2) 0.83507(18) 0.5514(3)
Cu1 Cu 0.49585(2) 0.763352(18) 0.55696(3)
Cu2 Cu 0.5000 0.86874(2) 0.7500
N1 N 0.46740(19) 0.67755(13) 0.5449(3)
N2 N 0.40514(18) 0.76713(14) 0.4159(3)
N3 N 0.57436(16) 0.93534(13) 0.8045(2)
O1 O 0.51142(14) 0.84794(11) 0.5652(2)
O2 O 0.62055(17) 0.84719(13) 0.5407(3)
O3 O 0.57906(17) 0.74621(11) 0.6937(2)
O4 O 0.57967(14) 0.81169(11) 0.8185(2)
O5 O 0.5781(2) 0.73880(15) 0.4618(3)
H1 H 0.557(3) 0.737(6) 0.3889(7)
H2 H 0.616(4) 0.764(3) 0.468(7)
C1 C 0.5011(3) 0.63365(18) 0.6111(4)
H3 H 0.5417 0.6420 0.6775
C2 C 0.4787(3) 0.5757(2) 0.5859(6)
H4 H 0.5033 0.5456 0.6353
C3 C 0.4213(3) 0.5625(2) 0.4901(6)
H5 H 0.4060 0.5233 0.4731
C4 C 0.3847(3) 0.6073(2) 0.4165(5)
C5 C 0.3240(4) 0.5997(3) 0.3134(6)
H6 H 0.3058 0.5615 0.2911
C6 C 0.2921(3) 0.6443(3) 0.2474(5)
H7 H 0.2526 0.6369 0.1796
C7 C 0.3167(3) 0.7038(3) 0.2774(4)
C8 C 0.2862(3) 0.7539(3) 0.2144(4)
H8 H 0.2468 0.7499 0.1453
C9 C 0.3133(3) 0.8080(3) 0.2527(4)
H9 H 0.2918 0.8417 0.2114
C10 C 0.3735(2) 0.8131(2) 0.3542(3)
H10 H 0.3923 0.8508 0.3798
C11 C 0.3768(2) 0.7130(2) 0.3789(3)
C12 C 0.4101(2) 0.66493(18) 0.4486(3)
C13 C 0.6491(2) 0.93375(19) 0.8613(3)
H11 H 0.6737 0.8972 0.8787
C14 C 0.6920(2) 0.9849(2) 0.8960(4)
H12 H 0.7448 0.9823 0.9368
C18 C 0.5404(2) 0.98872(15) 0.7795(3)
C19 C 0.5678(2) 0.87288(16) 0.5522(3)
C20 C 0.5657(2) 0.93778(15) 0.5472(3)
H15 H 0.6122 0.9583 0.5729
C21 C 0.5017(2) 0.96852(15) 0.5085(3)
H16 H 0.4555 0.9482 0.4908
C22 C 0.6055(2) 0.76806(14) 0.7868(3)
C23 C 0.6736(2) 0.73914(16) 0.8674(3)
H17 H 0.6871 0.7017 0.8510
C24 C 0.7163(2) 0.76331(16) 0.9610(3)
H18 H 0.7018 0.8003 0.9777
N6 N 0.42564(16) 0.93534(13) 0.6955(2)
O11 O 0.42033(14) 0.81169(11) 0.6815(2)
C37 C 0.3509(2) 0.93375(19) 0.6387(3)
H29 H 0.3263 0.8972 0.6213
C38 C 0.3080(2) 0.9849(2) 0.6040(4)
H30 H 0.2552 0.9823 0.5632
C42 C 0.4596(2) 0.98872(15) 0.7205(3)
Cu2_2 Cu -0.0000 0.36874(2) 0.7500
N3_2 N 0.07436(16) 0.43534(13) 0.8045(2)
O1_2 O 0.01142(14) 0.34794(11) 0.5652(2)
O2_2 O 0.12055(17) 0.34719(13) 0.5407(3)
O3_2 O 0.07906(17) 0.24621(11) 0.6937(2)
O4_2 O 0.07967(14) 0.31169(11) 0.8185(2)
O5_2 O 0.0781(2) 0.23880(15) 0.4618(3)
H1_2 H 0.057(3) 0.237(6) 0.3889(7)
H2_2 H 0.116(4) 0.264(3) 0.468(7)
C1_2 C 0.0011(3) 0.13365(18) 0.6111(4)
H3_2 H 0.0417 0.1420 0.6775
H4_2 H 0.0033 0.0456 0.6353
C13_2 C 0.1491(2) 0.43375(19) 0.8613(3)
H11_2 H 0.1737 0.3972 0.8787
C14_2 C 0.1920(2) 0.4849(2) 0.8960(4)
H12_2 H 0.2448 0.4823 0.9368
C15 C 0.1585(3) 0.5382(2) 0.8714(4)
H13 H 0.1875 0.5725 0.8953
C16 C 0.0801(2) 0.54172(16) 0.8099(3)
C17 C 0.0379(3) 0.59580(17) 0.7788(3)
H14 H 0.0637 0.6318 0.7990
C18_2 C 0.0404(2) 0.48872(15) 0.7795(3)
C19_2 C 0.0678(2) 0.37288(16) 0.5522(3)
C20_2 C 0.0657(2) 0.43778(15) 0.5472(3)
H15_2 H 0.1122 0.4583 0.5729
C21_2 C 0.0017(2) 0.46852(15) 0.5085(3)
C22_2 C 0.1055(2) 0.26806(14) 0.7868(3)
C23_2 C 0.1736(2) 0.23914(16) 0.8674(3)
H17_2 H 0.1871 0.2017 0.8510
C24_2 C 0.2163(2) 0.26331(16) 0.9610(3)
H18_2 H 0.2018 0.3003 0.9777
H34 H 0.0445 0.5518 0.5092
N2_2 N 0.59486(18) 0.76713(14) 0.0841(3)
O5_3 O 0.4219(2) 0.73880(15) 0.0382(3)
H1_3 H 0.443(3) 0.737(6) 0.1111(7)
H2_3 H 0.384(4) 0.764(3) 0.032(7)
C3_2 C 0.5787(3) 0.5625(2) 0.0099(6)
H5_2 H 0.5940 0.5233 0.0269
C4_2 C 0.6153(3) 0.6073(2) 0.0835(5)
C5_2 C 0.6760(4) 0.5997(3) 0.1866(6)
H6_2 H 0.6942 0.5615 0.2089
C6_2 C 0.7079(3) 0.6443(3) 0.2526(5)
H7_2 H 0.7474 0.6369 0.3204
C7_2 C 0.6833(3) 0.7038(3) 0.2226(4)
C8_2 C 0.7138(3) 0.7539(3) 0.2856(4)
H8_2 H 0.7532 0.7499 0.3547
C9_2 C 0.6867(3) 0.8080(3) 0.2473(4)
H9_2 H 0.7082 0.8417 0.2886
C10_2 C 0.6265(2) 0.8131(2) 0.1458(3)
H10_2 H 0.6077 0.8508 0.1202
C11_2 C 0.6232(2) 0.7130(2) 0.1211(3)
C12_2 C 0.5899(2) 0.66493(18) 0.0514(3)
H16_2 H 0.5445 0.9482 0.0092
Cu1_2 Cu 0.50415(2) 0.763352(18) 0.94304(3)
N1_2 N 0.53260(19) 0.67755(13) 0.9551(3)
O1_3 O 0.48858(14) 0.84794(11) 0.9348(2)
O2_3 O 0.37945(17) 0.84719(13) 0.9593(3)
O3_3 O 0.42094(17) 0.74621(11) 0.8063(2)
C1_3 C 0.4989(3) 0.63365(18) 0.8889(4)
H3_3 H 0.4583 0.6420 0.8225
C2_2 C 0.5213(3) 0.5757(2) 0.9141(6)
H4_3 H 0.4967 0.5456 0.8647
C19_3 C 0.4322(2) 0.87288(16) 0.9478(3)
C20_3 C 0.4343(2) 0.93778(15) 0.9528(3)
H15_3 H 0.3878 0.9583 0.9271
C21_3 C 0.4983(2) 0.96852(15) 0.9915(3)
C22_3 C 0.3945(2) 0.76806(14) 0.7132(3)
C23_3 C 0.3264(2) 0.73914(16) 0.6326(3)
H17_3 H 0.3129 0.7017 0.6490
C24_3 C 0.2837(2) 0.76331(16) 0.5390(3)
H18_3 H 0.2982 0.8003 0.5223
O7 O 0.01142(14) 0.65206(11) 0.0652(2)
O9 O 0.07906(17) 0.75379(11) 0.1937(2)
O10 O 0.07967(14) 0.68831(11) 0.3185(2)
C25 C 0.0011(3) 0.86635(18) 0.1111(4)
H21 H 0.0417 0.8580 0.1775
H22 H 0.0033 0.9544 0.1353
C46 C 0.1055(2) 0.73194(14) 0.2868(3)
C47 C 0.1736(2) 0.76086(16) 0.3674(3)
H35 H 0.1871 0.7983 0.3510
C48 C 0.2163(2) 0.73669(16) 0.4610(3)
H36 H 0.2018 0.6997 0.4777
O12 O 0.0781(2) 0.76120(15) 0.9618(3)
H19 H 0.057(3) 0.763(6) 0.8889(7)
H20 H 0.116(4) 0.736(3) 0.968(7)
N2_3 N 0.09486(18) 0.26713(14) 0.0841(3)
C3_3 C 0.0787(3) 0.0625(2) 0.0099(6)
H5_3 H 0.0940 0.0233 0.0269
C4_3 C 0.1153(3) 0.1073(2) 0.0835(5)
C5_3 C 0.1760(4) 0.0997(3) 0.1866(6)
H6_3 H 0.1942 0.0615 0.2089
C6_3 C 0.2079(3) 0.1443(3) 0.2526(5)
H7_3 H 0.2474 0.1369 0.3204
C7_3 C 0.1833(3) 0.2038(3) 0.2226(4)
C8_3 C 0.2138(3) 0.2539(3) 0.2856(4)
H8_3 H 0.2532 0.2499 0.3547
C9_3 C 0.1867(3) 0.3080(3) 0.2473(4)
H9_3 H 0.2082 0.3417 0.2886
C10_3 C 0.1265(2) 0.3131(2) 0.1458(3)
H10_3 H 0.1077 0.3508 0.1202
C11_3 C 0.1232(2) 0.2130(2) 0.1211(3)
C12_3 C 0.0899(2) 0.16493(18) 0.0514(3)
H16_3 H 0.0445 0.4482 0.0092
O8 O 0.12055(17) 0.65281(13) 0.0407(3)
C43 C 0.0678(2) 0.62712(16) 0.0522(3)
C44 C 0.0657(2) 0.56222(15) 0.0472(3)
H33 H 0.1122 0.5417 0.0729
C45 C 0.0017(2) 0.53148(15) 0.0085(3)
Cu1_3 Cu 0.00415(2) 0.263352(18) 0.94304(3)
N1_3 N 0.03260(19) 0.17755(13) 0.9551(3)
C2_3 C 0.0213(3) 0.0757(2) 0.9141(6)
C15_2 C 0.3415(3) 0.9618(2) 0.1286(4)
H13_2 H 0.3125 0.9275 0.1047
C16_2 C 0.4199(2) 0.95828(16) 0.1901(3)
C17_2 C 0.4621(3) 0.90420(17) 0.2212(3)
H14_2 H 0.4363 0.8682 0.2010
C39 C 0.6585(3) 0.9618(2) 0.3714(4)
H31 H 0.6875 0.9275 0.3953
C40 C 0.5801(2) 0.95828(16) 0.3099(3)
C41 C 0.5379(3) 0.90420(17) 0.2788(3)
H32 H 0.5637 0.8682 0.2990
N6_2 N 0.07436(16) 0.56466(13) 0.3045(2)
C37_2 C 0.1491(2) 0.56625(19) 0.3613(3)
H29_2 H 0.1737 0.6028 0.3787
C38_2 C 0.1920(2) 0.5151(2) 0.3960(4)
H30_2 H 0.2448 0.5177 0.4368
C39_2 C 0.1585(3) 0.4618(2) 0.3714(4)
H31_2 H 0.1875 0.4275 0.3953
C40_2 C 0.0801(2) 0.45828(16) 0.3099(3)
C41_2 C 0.0379(3) 0.40420(17) 0.2788(3)
H32_2 H 0.0637 0.3682 0.2990
C42_2 C 0.0404(2) 0.51128(15) 0.2795(3)
C15_3 C 0.6585(3) 0.0382(2) 0.8714(4)
H13_3 H 0.6875 0.0725 0.8953
C16_3 C 0.5801(2) 0.04172(16) 0.8099(3)
C17_3 C 0.5379(3) 0.09580(17) 0.7788(3)
H14_3 H 0.5637 0.1318 0.7990
Cu4 Cu 0.50415(2) 0.236648(18) 0.44304(3)
O6 O 0.48858(14) 0.15206(11) 0.4348(2)
O8_2 O 0.37945(17) 0.15281(13) 0.4593(3)
C39_3 C 0.3415(3) 0.0382(2) 0.6286(4)
H31_3 H 0.3125 0.0725 0.6047
C40_3 C 0.4199(2) 0.04172(16) 0.6901(3)
C41_3 C 0.4621(3) 0.09580(17) 0.7212(3)
H32_3 H 0.4363 0.1318 0.7010
C43_2 C 0.4322(2) 0.12712(16) 0.4478(3)
C44_2 C 0.4343(2) 0.06222(15) 0.4528(3)
H33_2 H 0.3878 0.0417 0.4271
C45_2 C 0.4983(2) 0.03148(15) 0.4915(3)
H34_2 H 0.5445 0.0518 0.5092
Cu5_2 Cu 1.0000 0.63126(2) 0.2500
O7_2 O 0.98858(14) 0.65206(11) 0.4348(2)
O9_2 O 0.92094(17) 0.75379(11) 0.3063(2)
O10_2 O 0.92033(14) 0.68831(11) 0.1815(2)
O12_2 O 0.9219(2) 0.76120(15) 0.5382(3)
H19_2 H 0.943(3) 0.763(6) 0.6111(7)
H20_2 H 0.884(4) 0.736(3) 0.532(7)
C25_2 C 0.9989(3) 0.86635(18) 0.3889(4)
H21_2 H 0.9583 0.8580 0.3225
H22_2 H 0.9967 0.9544 0.3647
C46_2 C 0.8945(2) 0.73194(14) 0.2132(3)
C47_2 C 0.8264(2) 0.76086(16) 0.1326(3)
H35_2 H 0.8129 0.7983 0.1490
C48_2 C 0.7837(2) 0.73669(16) 0.0390(3)
H36_2 H 0.7982 0.6997 0.0223
Cu5_3 Cu 0.5000 0.13126(2) 0.2500
N4_2 N 0.53260(19) 0.32245(13) 0.4551(3)
N5_2 N 0.59486(18) 0.23287(14) 0.5841(3)
O9_3 O 0.42094(17) 0.25379(11) 0.3063(2)
O10_3 O 0.42033(14) 0.18831(11) 0.1815(2)
O12_3 O 0.4219(2) 0.26120(15) 0.5382(3)
H19_3 H 0.443(3) 0.263(6) 0.6111(7)
H20_3 H 0.384(4) 0.236(3) 0.532(7)
C25_3 C 0.4989(3) 0.36635(18) 0.3889(4)
H21_3 H 0.4583 0.3580 0.3225
C26_2 C 0.5213(3) 0.4243(2) 0.4141(6)
H22_3 H 0.4967 0.4544 0.3647
C27_2 C 0.5787(3) 0.4375(2) 0.5099(6)
H23_2 H 0.5940 0.4767 0.5269
C28_2 C 0.6153(3) 0.3927(2) 0.5835(5)
C29_2 C 0.6760(4) 0.4003(3) 0.6866(6)
H24_2 H 0.6942 0.4385 0.7089
C30_2 C 0.7079(3) 0.3557(3) 0.7526(5)
H25_2 H 0.7474 0.3631 0.8204
C31_2 C 0.6833(3) 0.2962(3) 0.7226(4)
C32_2 C 0.7138(3) 0.2461(3) 0.7856(4)
H26_2 H 0.7532 0.2501 0.8547
C33_2 C 0.6867(3) 0.1920(3) 0.7473(4)
H27_2 H 0.7082 0.1583 0.7886
C34_2 C 0.6265(2) 0.1869(2) 0.6458(3)
H28_2 H 0.6077 0.1492 0.6202
C35_2 C 0.6232(2) 0.2870(2) 0.6211(3)
C36_2 C 0.5899(2) 0.33507(18) 0.5514(3)
C46_3 C 0.3945(2) 0.23194(14) 0.2132(3)
C47_3 C 0.3264(2) 0.26086(16) 0.1326(3)
H35_3 H 0.3129 0.2983 0.1490
C48_3 C 0.2837(2) 0.23669(16) 0.0390(3)
H36_3 H 0.2982 0.1997 0.0223
Cu1_4 Cu 0.99585(2) 0.263352(18) 0.55696(3)
Cu2_3 Cu 1.0000 0.36874(2) 0.7500
N1_4 N 0.96740(19) 0.17755(13) 0.5449(3)
N2_4 N 0.90514(18) 0.26713(14) 0.4159(3)
C2_4 C 0.9787(3) 0.0757(2) 0.5859(6)
C3_4 C 0.9213(3) 0.0625(2) 0.4901(6)
H5_4 H 0.9060 0.0233 0.4731
C4_4 C 0.8847(3) 0.1073(2) 0.4165(5)
C5_4 C 0.8240(4) 0.0997(3) 0.3134(6)
H6_4 H 0.8058 0.0615 0.2911
C6_4 C 0.7921(3) 0.1443(3) 0.2474(5)
H7_4 H 0.7526 0.1369 0.1796
C7_4 C 0.8167(3) 0.2038(3) 0.2774(4)
C8_4 C 0.7862(3) 0.2539(3) 0.2144(4)
H8_4 H 0.7468 0.2499 0.1453
C9_4 C 0.8133(3) 0.3080(3) 0.2527(4)
H9_4 H 0.7918 0.3417 0.2114
C10_4 C 0.8735(2) 0.3131(2) 0.3542(3)
H10_4 H 0.8923 0.3508 0.3798
C11_4 C 0.8768(2) 0.2130(2) 0.3789(3)
C12_4 C 0.9101(2) 0.16493(18) 0.4486(3)
H16_4 H 0.9555 0.4482 0.4908
N6_3 N 0.92564(16) 0.43534(13) 0.6955(2)
O8_3 O 0.87945(17) 0.65281(13) 0.4593(3)
O11_2 O 0.92033(14) 0.31169(11) 0.6815(2)
C37_3 C 0.8509(2) 0.43375(19) 0.6387(3)
H29_3 H 0.8263 0.3972 0.6213
C38_3 C 0.8080(2) 0.4849(2) 0.6040(4)
H30_3 H 0.7552 0.4823 0.5632
C39_4 C 0.8415(3) 0.5382(2) 0.6286(4)
H31_4 H 0.8125 0.5725 0.6047
C40_4 C 0.9199(2) 0.54172(16) 0.6901(3)
C41_4 C 0.9621(3) 0.59580(17) 0.7212(3)
H32_4 H 0.9363 0.6318 0.7010
C42_3 C 0.9596(2) 0.48872(15) 0.7205(3)
C43_3 C 0.9322(2) 0.62712(16) 0.4478(3)
C44_3 C 0.9343(2) 0.56222(15) 0.4528(3)
H33_3 H 0.8878 0.5417 0.4271
C45_3 C 0.9983(2) 0.53148(15) 0.4915(3)
Cu4_2 Cu 0.49585(2) 0.236648(18) 0.05696(3)
O6_2 O 0.51142(14) 0.15206(11) 0.0652(2)
O8_4 O 0.62055(17) 0.15281(13) 0.0407(3)
C43_4 C 0.5678(2) 0.12712(16) 0.0522(3)
C44_4 C 0.5657(2) 0.06222(15) 0.0472(3)
H33_4 H 0.6122 0.0417 0.0729
C45_4 C 0.5017(2) 0.03148(15) 0.0085(3)
H34_3 H 0.4555 0.0518 0.9908
Cu3_2 Cu 0.99585(2) 0.736648(18) 0.05696(3)
N4_3 N 0.96740(19) 0.82245(13) 0.0449(3)
C26_3 C 0.9787(3) 0.9243(2) 0.0859(6)
N5_3 N 0.90514(18) 0.73287(14) 0.9159(3)
C27_3 C 0.9213(3) 0.9375(2) 0.9901(6)
H23_3 H 0.9060 0.9767 0.9731
C28_3 C 0.8847(3) 0.8927(2) 0.9165(5)
C29_3 C 0.8240(4) 0.9003(3) 0.8134(6)
H24_3 H 0.8058 0.9385 0.7911
C30_3 C 0.7921(3) 0.8557(3) 0.7474(5)
H25_3 H 0.7526 0.8631 0.6796
C31_3 C 0.8167(3) 0.7962(3) 0.7774(4)
C32_3 C 0.7862(3) 0.7461(3) 0.7144(4)
H26_3 H 0.7468 0.7501 0.6453
C33_3 C 0.8133(3) 0.6920(3) 0.7527(4)
H27_3 H 0.7918 0.6583 0.7114
C34_3 C 0.8735(2) 0.6869(2) 0.8542(3)
H28_3 H 0.8923 0.6492 0.8798
C35_3 C 0.8768(2) 0.7870(2) 0.8789(3)
C36_3 C 0.9101(2) 0.83507(18) 0.9486(3)
O5_4 O 0.9219(2) 0.23880(15) 0.0382(3)
H1_4 H 0.943(3) 0.237(6) 0.1111(7)
H2_4 H 0.884(4) 0.264(3) 0.032(7)
O1_4 O 0.98858(14) 0.34794(11) 0.9348(2)
O2_4 O 0.87945(17) 0.34719(13) 0.9593(3)
O3_4 O 0.92094(17) 0.24621(11) 0.8063(2)
C1_4 C 0.9989(3) 0.13365(18) 0.8889(4)
H3_4 H 0.9583 0.1420 0.8225
H4_4 H 0.9967 0.0456 0.8647
C19_4 C 0.9322(2) 0.37288(16) 0.9478(3)
C20_4 C 0.9343(2) 0.43778(15) 0.9528(3)
H15_4 H 0.8878 0.4583 0.9271
C21_4 C 0.9983(2) 0.46852(15) 0.9915(3)
C22_4 C 0.8945(2) 0.26806(14) 0.7132(3)
C23_4 C 0.8264(2) 0.23914(16) 0.6326(3)
H17_4 H 0.8129 0.2017 0.6490
C24_4 C 0.7837(2) 0.26331(16) 0.5390(3)
H18_4 H 0.7982 0.3003 0.5223
N4_4 N 0.46740(19) 0.32245(13) 0.0449(3)
O9_4 O 0.57906(17) 0.25379(11) 0.1937(2)
O10_4 O 0.57967(14) 0.18831(11) 0.3185(2)
C25_4 C 0.5011(3) 0.36635(18) 0.1111(4)
H21_4 H 0.5417 0.3580 0.1775
C26_4 C 0.4787(3) 0.4243(2) 0.0859(6)
H22_4 H 0.5033 0.4544 0.1353
H34_4 H 0.9555 0.5518 0.9908
C46_4 C 0.6055(2) 0.23194(14) 0.2868(3)
C47_4 C 0.6736(2) 0.26086(16) 0.3674(3)
H35_4 H 0.6871 0.2983 0.3510
C48_4 C 0.7163(2) 0.23669(16) 0.4610(3)
H36_4 H 0.7018 0.1997 0.4777
N5_4 N 0.40514(18) 0.23287(14) 0.9159(3)
O12_4 O 0.5781(2) 0.26120(15) 0.9618(3)
H19_4 H 0.557(3) 0.263(6) 0.8889(7)
H20_4 H 0.616(4) 0.236(3) 0.968(7)
C27_4 C 0.4213(3) 0.4375(2) 0.9901(6)
H23_4 H 0.4060 0.4767 0.9731
C28_4 C 0.3847(3) 0.3927(2) 0.9165(5)
C29_4 C 0.3240(4) 0.4003(3) 0.8134(6)
H24_4 H 0.3058 0.4385 0.7911
C30_4 C 0.2921(3) 0.3557(3) 0.7474(5)
H25_4 H 0.2526 0.3631 0.6796
C31_4 C 0.3167(3) 0.2962(3) 0.7774(4)
C32_4 C 0.2862(3) 0.2461(3) 0.7144(4)
H26_4 H 0.2468 0.2501 0.6453
C33_4 C 0.3133(3) 0.1920(3) 0.7527(4)
H27_4 H 0.2918 0.1583 0.7114
C34_4 C 0.3735(2) 0.1869(2) 0.8542(3)
H28_4 H 0.3923 0.1492 0.8798
C35_4 C 0.3768(2) 0.2870(2) 0.8789(3)
C36_4 C 0.4101(2) 0.33507(18) 0.9486(3)
N3_3 N 0.42564(16) 0.06466(13) 0.1955(2)
C13_3 C 0.3509(2) 0.06625(19) 0.1387(3)
H11_3 H 0.3263 0.1028 0.1213
C14_3 C 0.3080(2) 0.0151(2) 0.1040(4)
H12_3 H 0.2552 0.0177 0.0632
C18_3 C 0.4596(2) 0.01128(15) 0.2205(3)
N6_4 N 0.57436(16) 0.06466(13) 0.3045(2)
C37_4 C 0.6491(2) 0.06625(19) 0.3613(3)
H29_4 H 0.6737 0.1028 0.3787
C38_4 C 0.6920(2) 0.0151(2) 0.3960(4)
H30_4 H 0.7448 0.0177 0.4368
C42_4 C 0.5404(2) 0.01128(15) 0.2795(3)
N3_4 N 0.92564(16) 0.56466(13) 0.1955(2)
C13_4 C 0.8509(2) 0.56625(19) 0.1387(3)
H11_4 H 0.8263 0.6028 0.1213
C14_4 C 0.8080(2) 0.5151(2) 0.1040(4)
H12_4 H 0.7552 0.5177 0.0632
C15_4 C 0.8415(3) 0.4618(2) 0.1286(4)
H13_4 H 0.8125 0.4275 0.1047
C16_4 C 0.9199(2) 0.45828(16) 0.1901(3)
C17_4 C 0.9621(3) 0.40420(17) 0.2212(3)
H14_4 H 0.9363 0.3682 0.2010
C18_4 C 0.9596(2) 0.51128(15) 0.2205(3)
B1 B 0.7143(4) 0.5592(2) 0.8208(5)
F1 F 0.6786(5) 0.5621(4) 0.7074(6)
F2 F 0.6918(5) 0.5080(3) 0.8540(7)
F3 F 0.7229(5) 0.5990(4) 0.9045(6)
F4 F 0.7790(4) 0.5346(4) 0.8276(7)
B1_2 B 0.2143(4) 0.0592(2) 0.8208(5)
F1_2 F 0.1786(5) 0.0621(4) 0.7074(6)
F2_2 F 0.1918(5) 0.0080(3) 0.8540(7)
F3_2 F 0.2229(5) 0.0990(4) 0.9045(6)
F4_2 F 0.2790(4) 0.0346(4) 0.8276(7)
B1_3 B 0.2857(4) 0.5592(2) 0.6792(5)
F1_3 F 0.3214(5) 0.5621(4) 0.7926(6)
F2_3 F 0.3082(5) 0.5080(3) 0.6460(7)
F3_3 F 0.2771(5) 0.5990(4) 0.5955(6)
F4_3 F 0.2210(4) 0.5346(4) 0.6724(7)
B1_4 B 0.7857(4) 0.0592(2) 0.6792(5)
F1_4 F 0.8214(5) 0.0621(4) 0.7926(6)
F2_4 F 0.8082(5) 0.0080(3) 0.6460(7)
F3_4 F 0.7771(5) 0.0990(4) 0.5955(6)
F4_4 F 0.7210(4) 0.0346(4) 0.6724(7)
B1_5 B 0.2857(4) 0.4408(2) 0.1792(5)
F1_5 F 0.3214(5) 0.4379(4) 0.2926(6)
F2_5 F 0.3082(5) 0.4920(3) 0.1460(7)
F3_5 F 0.2771(5) 0.4010(4) 0.0955(6)
F4_5 F 0.2210(4) 0.4654(4) 0.1724(7)
B1_6 B 0.7857(4) 0.9408(2) 0.1792(5)
F1_6 F 0.8214(5) 0.9379(4) 0.2926(6)
F2_6 F 0.8082(5) 0.9920(3) 0.1460(7)
F3_6 F 0.7771(5) 0.9010(4) 0.0955(6)
F4_6 F 0.7210(4) 0.9654(4) 0.1724(7)
B1_7 B 0.7143(4) 0.4408(2) 0.3208(5)
F1_7 F 0.6786(5) 0.4379(4) 0.2074(6)
F2_7 F 0.6918(5) 0.4920(3) 0.3540(7)
F3_7 F 0.7229(5) 0.4010(4) 0.4045(6)
F4_7 F 0.7790(4) 0.4654(4) 0.3276(7)
B1_8 B 0.2143(4) 0.9408(2) 0.3208(5)
F1_8 F 0.1786(5) 0.9379(4) 0.2074(6)
F2_8 F 0.1918(5) 0.9920(3) 0.3540(7)
F3_8 F 0.2229(5) 0.9010(4) 0.4045(6)
F4_8 F 0.2790(4) 0.9654(4) 0.3276(7)
loop_
_geom_bond_atom_site_label_1
_geom_bond_atom_site_label_2
_geom_bond_site_symmetry_1
_geom_bond_site_symmetry_2
Cu3 N4 1_555 1_555
N5 Cu3 1_555 1_555
C27 C26 1_555 1_555
H23 C27 1_555 1_555
C28 C27 1_555 1_555
C29 C28 1_555 1_555
H24 C29 1_555 1_555
C30 C29 1_555 1_555
H25 C30 1_555 1_555
C31 C30 1_555 1_555
C32 C31 1_555 1_555
H26 C32 1_555 1_555
C33 C32 1_555 1_555
H27 C33 1_555 1_555
C34 N5 1_555 1_555
H28 C34 1_555 1_555
C35 N5 1_555 1_555
C36 N4 1_555 1_555
C28 C36 1_555 1_555
C31 C35 1_555 1_555
C33 C34 1_555 1_555
C35 C36 1_555 1_555
Cu1 N1 1_555 1_555
Cu2 N3 1_555 1_555
N1 C1 1_555 1_555
N2 Cu1 1_555 1_555
N3 C13 1_555 1_555
O1 Cu1 1_555 1_555
O2 C19 1_555 1_555
O3 Cu1 1_555 1_555
O4 Cu2 1_555 1_555
O5 Cu1 1_555 1_555
H1 O5 1_555 1_555
H2 O5 1_555 1_555
C1 H3 1_555 1_555
C2 C1 1_555 1_555
H4 C2 1_555 1_555
C3 C2 1_555 1_555
H5 C3 1_555 1_555
C4 C3 1_555 1_555
C5 C4 1_555 1_555
H6 C5 1_555 1_555
C6 C5 1_555 1_555
H7 C6 1_555 1_555
C7 C6 1_555 1_555
C8 C7 1_555 1_555
H8 C8 1_555 1_555
C9 C8 1_555 1_555
H9 C9 1_555 1_555
C10 N2 1_555 1_555
H10 C10 1_555 1_555
C11 N2 1_555 1_555
C12 N1 1_555 1_555
C13 H11 1_555 1_555
C14 C13 1_555 1_555
H12 C14 1_555 1_555
C18 N3 1_555 1_555
C19 O1 1_555 1_555
C20 C19 1_555 1_555
H15 C20 1_555 1_555
C21 C20 1_555 1_555
H16 C21 1_555 1_555
C22 O3 1_555 1_555
C23 C22 1_555 1_555
H17 C23 1_555 1_555
C24 C23 1_555 1_555
H18 C24 1_555 1_555
N6 Cu2 1_555 1_555
O11 Cu2 1_555 1_555
C37 N6 1_555 1_555
H29 C37 1_555 1_555
C38 C37 1_555 1_555
H30 C38 1_555 1_555
C42 C18 1_555 1_555
O4 C22 1_555 1_555
C4 C12 1_555 1_555
C7 C11 1_555 1_555
C9 C10 1_555 1_555
C11 C12 1_555 1_555
N6 C42 1_555 1_555
Cu2_2 N3_2 1_555 1_555
N3_2 C13_2 1_555 1_555
O2_2 C19_2 1_555 1_555
O4_2 Cu2_2 1_555 1_555
H1_2 O5_2 1_555 1_555
H2_2 O5_2 1_555 1_555
C1_2 H3_2 1_555 1_555
C13_2 H11_2 1_555 1_555
C14_2 C13_2 1_555 1_555
H12_2 C14_2 1_555 1_555
C15 C14_2 1_555 1_555
H13 C15 1_555 1_555
C16 C15 1_555 1_555
C17 C16 1_555 1_555
H14 C17 1_555 1_555
C18_2 N3_2 1_555 1_555
C19_2 O1_2 1_555 1_555
C20_2 C19_2 1_555 1_555
H15_2 C20_2 1_555 1_555
C21_2 C20_2 1_555 1_555
C22_2 O3_2 1_555 1_555
C23_2 C22_2 1_555 1_555
H17_2 C23_2 1_555 1_555
C24_2 C23_2 1_555 1_555
H18_2 C24_2 1_555 1_555
O4_2 C22_2 1_555 1_555
C16 C18_2 1_555 1_555
H1_3 O5_3 1_555 1_555
H2_3 O5_3 1_555 1_555
H5_2 C3_2 1_555 1_555
C4_2 C3_2 1_555 1_555
C5_2 C4_2 1_555 1_555
H6_2 C5_2 1_555 1_555
C6_2 C5_2 1_555 1_555
H7_2 C6_2 1_555 1_555
C7_2 C6_2 1_555 1_555
C8_2 C7_2 1_555 1_555
H8_2 C8_2 1_555 1_555
C9_2 C8_2 1_555 1_555
H9_2 C9_2 1_555 1_555
C10_2 N2_2 1_555 1_555
H10_2 C10_2 1_555 1_555
C11_2 N2_2 1_555 1_555
C4_2 C12_2 1_555 1_555
C7_2 C11_2 1_555 1_555
C9_2 C10_2 1_555 1_555
C11_2 C12_2 1_555 1_555
Cu1_2 N1_2 1_555 1_555
N1_2 C1_3 1_555 1_555
O1_3 Cu1_2 1_555 1_555
O2_3 C19_3 1_555 1_555
O3_3 Cu1_2 1_555 1_555
C1_3 H3_3 1_555 1_555
C2_2 C1_3 1_555 1_555
H4_3 C2_2 1_555 1_555
C19_3 O1_3 1_555 1_555
C20_3 C19_3 1_555 1_555
H15_3 C20_3 1_555 1_555
C21_3 C20_3 1_555 1_555
C22_3 O3_3 1_555 1_555
C23_3 C22_3 1_555 1_555
H17_3 C23_3 1_555 1_555
C24_3 C23_3 1_555 1_555
H18_3 C24_3 1_555 1_555
Cu5 O10 1_555 1_555
O10 C46 1_555 1_555
C25 H21 1_555 1_555
C46 O9 1_555 1_555
C47 C46 1_555 1_555
H35 C47 1_555 1_555
C48 C24_3 1_555 1_555
H36 C48 1_555 1_555
O11 C22_3 1_555 1_555
C47 C48 1_555 1_555
H19 O12 1_555 1_555
H20 O12 1_555 1_555
H5_3 C3_3 1_555 1_555
C4_3 C3_3 1_555 1_555
C5_3 C4_3 1_555 1_555
H6_3 C5_3 1_555 1_555
C6_3 C5_3 1_555 1_555
H7_3 C6_3 1_555 1_555
C7_3 C6_3 1_555 1_555
C8_3 C7_3 1_555 1_555
H8_3 C8_3 1_555 1_555
C9_3 C8_3 1_555 1_555
H9_3 C9_3 1_555 1_555
C10_3 N2_3 1_555 1_555
H10_3 C10_3 1_555 1_555
C11_3 N2_3 1_555 1_555
O7 C43 1_555 1_555
O8 C43 1_555 1_555
C43 C44 1_555 1_555
C44 H33 1_555 1_555
C4_3 C12_3 1_555 1_555
C7_3 C11_3 1_555 1_555
C9_3 C10_3 1_555 1_555
C11_3 C12_3 1_555 1_555
C44 C45 1_555 1_555
Cu1_3 N1_3 1_555 1_555
H13_2 C15_2 1_555 1_555
C16_2 C15_2 1_555 1_555
C17_2 C16_2 1_555 1_555
H14_2 C17_2 1_555 1_555
H31 C39 1_555 1_555
C40 C39 1_555 1_555
C41 C17_2 1_555 1_555
H32 C41 1_555 1_555
C40 C41 1_555 1_555
N6_2 Cu5 1_555 1_555
C37_2 N6_2 1_555 1_555
H29_2 C37_2 1_555 1_555
C38_2 C37_2 1_555 1_555
H30_2 C38_2 1_555 1_555
C39_2 C38_2 1_555 1_555
H31_2 C39_2 1_555 1_555
C40_2 C39_2 1_555 1_555
H32_2 C41_2 1_555 1_555
N6_2 C42_2 1_555 1_555
C40_2 C41_2 1_555 1_555
C40_2 C42_2 1_555 1_555
H13_3 C15_3 1_555 1_555
C16_3 C15_3 1_555 1_555
C17_3 C16_3 1_555 1_555
H14_3 C17_3 1_555 1_555
Cu4 O6 1_555 1_555
O6 C43_2 1_555 1_555
O8_2 C43_2 1_555 1_555
H31_3 C39_3 1_555 1_555
C40_3 C39_3 1_555 1_555
C41_3 C17_3 1_555 1_555
H32_3 C41_3 1_555 1_555
C43_2 C44_2 1_555 1_555
C44_2 H33_2 1_555 1_555
H34_2 C45_2 1_555 1_555
C40_3 C41_3 1_555 1_555
C44_2 C45_2 1_555 1_555
Cu5_2 O10_2 1_555 1_555
O10_2 C46_2 1_555 1_555
H19_2 O12_2 1_555 1_555
H20_2 O12_2 1_555 1_555
C25_2 H21_2 1_555 1_555
C46_2 O9_2 1_555 1_555
C47_2 C46_2 1_555 1_555
H35_2 C47_2 1_555 1_555
H36_2 C48_2 1_555 1_555
C47_2 C48_2 1_555 1_555
Cu4 N4_2 1_555 1_555
Cu5_3 O10_3 1_555 1_555
N4_2 C25_3 1_555 1_555
N5_2 Cu4 1_555 1_555
O9_3 Cu4 1_555 1_555
O10_3 C46_3 1_555 1_555
O12_3 Cu4 1_555 1_555
H19_3 O12_3 1_555 1_555
H20_3 O12_3 1_555 1_555
C25_3 H21_3 1_555 1_555
C26_2 C25_3 1_555 1_555
H22_3 C26_2 1_555 1_555
C27_2 C26_2 1_555 1_555
H23_2 C27_2 1_555 1_555
C28_2 C27_2 1_555 1_555
C29_2 C28_2 1_555 1_555
H24_2 C29_2 1_555 1_555
C30_2 C29_2 1_555 1_555
H25_2 C30_2 1_555 1_555
C31_2 C30_2 1_555 1_555
C32_2 C31_2 1_555 1_555
H26_2 C32_2 1_555 1_555
C33_2 C32_2 1_555 1_555
H27_2 C33_2 1_555 1_555
C34_2 N5_2 1_555 1_555
H28_2 C34_2 1_555 1_555
C35_2 N5_2 1_555 1_555
C36_2 N4_2 1_555 1_555
C46_3 O9_3 1_555 1_555
C47_3 C46_3 1_555 1_555
H35_3 C47_3 1_555 1_555
H36_3 C48_3 1_555 1_555
C28_2 C36_2 1_555 1_555
C31_2 C35_2 1_555 1_555
C33_2 C34_2 1_555 1_555
C35_2 C36_2 1_555 1_555
C47_3 C48_3 1_555 1_555
Cu1_4 N1_4 1_555 1_555
N2_4 Cu1_4 1_555 1_555
C3_4 C2_4 1_555 1_555
H5_4 C3_4 1_555 1_555
C4_4 C3_4 1_555 1_555
C5_4 C4_4 1_555 1_555
H6_4 C5_4 1_555 1_555
C6_4 C5_4 1_555 1_555
H7_4 C6_4 1_555 1_555
C7_4 C6_4 1_555 1_555
C8_4 C7_4 1_555 1_555
H8_4 C8_4 1_555 1_555
C9_4 C8_4 1_555 1_555
H9_4 C9_4 1_555 1_555
C10_4 N2_4 1_555 1_555
H10_4 C10_4 1_555 1_555
C11_4 N2_4 1_555 1_555
C12_4 N1_4 1_555 1_555
N6_3 Cu2_3 1_555 1_555
O7_2 C43_3 1_555 1_555
O8_3 C43_3 1_555 1_555
O11_2 Cu2_3 1_555 1_555
C37_3 N6_3 1_555 1_555
H29_3 C37_3 1_555 1_555
C38_3 C37_3 1_555 1_555
H30_3 C38_3 1_555 1_555
C39_4 C38_3 1_555 1_555
H31_4 C39_4 1_555 1_555
C40_4 C39_4 1_555 1_555
H32_4 C41_4 1_555 1_555
C43_3 C44_3 1_555 1_555
C44_3 H33_3 1_555 1_555
C4_4 C12_4 1_555 1_555
C7_4 C11_4 1_555 1_555
C9_4 C10_4 1_555 1_555
C11_4 C12_4 1_555 1_555
N6_3 C42_3 1_555 1_555
C40_4 C41_4 1_555 1_555
C40_4 C42_3 1_555 1_555
C44_3 C45_3 1_555 1_555
Cu4_2 O6_2 1_555 1_555
O6_2 C43_4 1_555 1_555
O8_4 C43_4 1_555 1_555
C43_4 C44_4 1_555 1_555
C44_4 H33_4 1_555 1_555
C44_4 C45_4 1_555 1_555
Cu3_2 N4_3 1_555 1_555
H23_3 C27_3 1_555 1_555
C28_3 C27_3 1_555 1_555
C29_3 C28_3 1_555 1_555
H24_3 C29_3 1_555 1_555
C30_3 C29_3 1_555 1_555
H25_3 C30_3 1_555 1_555
C31_3 C30_3 1_555 1_555
C32_3 C31_3 1_555 1_555
H26_3 C32_3 1_555 1_555
C33_3 C32_3 1_555 1_555
H27_3 C33_3 1_555 1_555
C34_3 N5_3 1_555 1_555
H28_3 C34_3 1_555 1_555
C35_3 N5_3 1_555 1_555
C28_3 C36_3 1_555 1_555
C31_3 C35_3 1_555 1_555
C33_3 C34_3 1_555 1_555
C35_3 C36_3 1_555 1_555
H1_4 O5_4 1_555 1_555
H2_4 O5_4 1_555 1_555
O2_4 C19_4 1_555 1_555
C1_4 H3_4 1_555 1_555
C19_4 O1_4 1_555 1_555
C20_4 C19_4 1_555 1_555
H15_4 C20_4 1_555 1_555
C21_4 C20_4 1_555 1_555
C22_4 O3_4 1_555 1_555
C23_4 C22_4 1_555 1_555
H17_4 C23_4 1_555 1_555
C24_4 C23_4 1_555 1_555
H18_4 C24_4 1_555 1_555
Cu4_2 N4_4 1_555 1_555
Cu5_3 O10_4 1_555 1_555
N4_4 C25_4 1_555 1_555
O9_4 Cu4_2 1_555 1_555
O10_4 C46_4 1_555 1_555
C25_4 H21_4 1_555 1_555
C26_4 C25_4 1_555 1_555
H22_4 C26_4 1_555 1_555
C46_4 O9_4 1_555 1_555
C47_4 C46_4 1_555 1_555
H35_4 C47_4 1_555 1_555
C48_4 C24_4 1_555 1_555
H36_4 C48_4 1_555 1_555
O11_2 C22_4 1_555 1_555
C47_4 C48_4 1_555 1_555
H19_4 O12_4 1_555 1_555
H20_4 O12_4 1_555 1_555
H23_4 C27_4 1_555 1_555
C28_4 C27_4 1_555 1_555
C29_4 C28_4 1_555 1_555
H24_4 C29_4 1_555 1_555
C30_4 C29_4 1_555 1_555
H25_4 C30_4 1_555 1_555
C31_4 C30_4 1_555 1_555
C32_4 C31_4 1_555 1_555
H26_4 C32_4 1_555 1_555
C33_4 C32_4 1_555 1_555
H27_4 C33_4 1_555 1_555
C34_4 N5_4 1_555 1_555
H28_4 C34_4 1_555 1_555
C35_4 N5_4 1_555 1_555
C28_4 C36_4 1_555 1_555
C31_4 C35_4 1_555 1_555
C33_4 C34_4 1_555 1_555
C35_4 C36_4 1_555 1_555
Cu5_3 N3_3 1_555 1_555
N3_3 C13_3 1_555 1_555
C13_3 H11_3 1_555 1_555
C14_3 C13_3 1_555 1_555
H12_3 C14_3 1_555 1_555
C18_3 N3_3 1_555 1_555
N6_4 Cu5_3 1_555 1_555
C37_4 N6_4 1_555 1_555
H29_4 C37_4 1_555 1_555
C38_4 C37_4 1_555 1_555
H30_4 C38_4 1_555 1_555
C42_4 C18_3 1_555 1_555
N6_4 C42_4 1_555 1_555
Cu5_2 N3_4 1_555 1_555
N3_4 C13_4 1_555 1_555
C13_4 H11_4 1_555 1_555
C14_4 C13_4 1_555 1_555
H12_4 C14_4 1_555 1_555
C15_4 C14_4 1_555 1_555
H13_4 C15_4 1_555 1_555
C16_4 C15_4 1_555 1_555
C17_4 C16_4 1_555 1_555
H14_4 C17_4 1_555 1_555
C18_4 N3_4 1_555 1_555
C16_4 C18_4 1_555 1_555
B1 F1 1_555 1_555
F2 B1 1_555 1_555
F3 B1 1_555 1_555
F4 B1 1_555 1_555
B1_2 F1_2 1_555 1_555
F2_2 B1_2 1_555 1_555
F3_2 B1_2 1_555 1_555
F4_2 B1_2 1_555 1_555
B1_3 F1_3 1_555 1_555
F2_3 B1_3 1_555 1_555
F3_3 B1_3 1_555 1_555
F4_3 B1_3 1_555 1_555
B1_4 F1_4 1_555 1_555
F2_4 B1_4 1_555 1_555
F3_4 B1_4 1_555 1_555
F4_4 B1_4 1_555 1_555
B1_5 F1_5 1_555 1_555
F2_5 B1_5 1_555 1_555
F3_5 B1_5 1_555 1_555
F4_5 B1_5 1_555 1_555
B1_6 F1_6 1_555 1_555
F2_6 B1_6 1_555 1_555
F3_6 B1_6 1_555 1_555
F4_6 B1_6 1_555 1_555
B1_7 F1_7 1_555 1_555
F2_7 B1_7 1_555 1_555
F3_7 B1_7 1_555 1_555
F4_7 B1_7 1_555 1_555
B1_8 F1_8 1_555 1_555
F2_8 B1_8 1_555 1_555
F3_8 B1_8 1_555 1_555
F4_8 B1_8 1_555 1_555

#END
