
###############################################################################
#
# This file contains modified crystal structure data generated from the
# MOF subset of the Cambridge Structural Database (CSD) v543 
# hosted by the Cambridge Crystallographic Data Centre (CCDC).
#
# This work is licensed under the Creative Commons
# Attribution-NonCommercial-ShareAlike 4.0 International License.
# To view a copy of this license, visit
# http://creativecommons.org/licenses/by-nc-sa/4.0/
# or send a letter to
# Creative Commons, PO Box 1866, Mountain View, CA 94042, USA.
#
# CIF created using the CSD Python API on 29 September 2022
# The structure has been converted into the P1 space group
# The structure has a 3D framework
# The original CSD entry PIGXAF is in the cubic crystal system
# The framework has been calculated to contain at least 10.0% void space
# The void calculation uses a probe of radius 1.32A, grid spacing 0.4
# The framework is charged, counterions have been retained in the structure
# H atom positions have been added when not included in the experimental data
#
###############################################################################

data_PIGXAF
_chemical_formula_moiety         '(C144 H192 Cd30 N36 O182 12+)n'
_symmetry_cell_setting           triclinic
_symmetry_space_group_name_H-M   'P 1'
_symmetry_Int_Tables_number      1
_space_group_name_Hall           'P 1'
loop_
_symmetry_equiv_pos_site_id
_symmetry_equiv_pos_as_xyz
1 x,y,z
_cell_length_a                   18.518(2)
_cell_length_b                   18.518(2)
_cell_length_c                   18.518(2)
_cell_angle_alpha                90
_cell_angle_beta                 90
_cell_angle_gamma                90
_cell_volume                     6350.12
loop_
_atom_site_label
_atom_site_type_symbol
_atom_site_fract_x
_atom_site_fract_y
_atom_site_fract_z
Cd1 Cd -0.0000 0.2500 0.3750
Cd2 Cd -0.0000 0.25000(3) 0.5824
Cd3 Cd -0.00000(3) 0.2500 0.1676
Cd6 Cd 0.25000(3) 0.4176 0.5000
Cd7 Cd 0.1676 0.00000(3) 0.2500
O6 O 0.0582(2) 0.2912(3) 0.4833(2)
O7 O 0.0412(3) 0.1918(2) 0.2667(2)
O11 O 0.1032(4) 0.3223(5) 0.3512(3)
O12 O 0.0723(5) 0.1468(4) 0.3988(3)
O14 O 0.1994(4) 0.3805(5) 0.3965(3)
O15 O 0.1305(5) 0.0506(4) 0.3535(3)
O16 O 0.1035(3) 0.1994(4) 0.6195(5)
O20 O 0.1546(2) 0.3461(3) 0.5309(2)
O21 O 0.0961(3) 0.0954(2) 0.2191(2)
O23 O 0.0309(2) 0.3454(2) 0.6539(3)
C4 C 0.1160(3) 0.3268(3) 0.4787(3)
C5 C 0.0768(3) 0.1340(3) 0.2713(3)
C7 C 0.1415(4) 0.3448(5) 0.4023(4)
C8 C 0.0948(5) 0.1085(4) 0.3477(4)
Cd7_2 Cd 0.1676 1.00000(3) 0.2500
Cd1_2 Cd 1.0000 0.2500 0.3750
Cd2_2 Cd 1.0000 0.25000(3) 0.5824
O1 O 0.9418(2) 0.2088(3) 0.4833(2)
O2 O 0.8968(4) 0.1777(5) 0.3512(3)
O3 O 0.8006(4) 0.1195(5) 0.3965(3)
O4 O 0.8454(2) 0.1539(3) 0.5309(2)
C1 C 0.8840(3) 0.1732(3) 0.4787(3)
C2 C 0.8585(4) 0.1552(5) 0.4023(4)
Cd3_2 Cd 1.00000(3) 0.2500 0.1676
Cd4 Cd 0.75000(3) 0.0824 0.5000
Cd5 Cd 0.8324 0.50000(3) 0.2500
O5 O 0.9588(3) 0.3082(2) 0.2667(2)
O10 O 0.9277(5) 0.3532(4) 0.3988(3)
O13 O 0.8695(5) 0.4494(4) 0.3535(3)
O17 O 0.8965(3) 0.3006(4) 0.6195(5)
O18 O 0.6994(4) 0.1195(5) 0.6035(3)
O19 O 0.9039(3) 0.4046(2) 0.2191(2)
O22 O 0.9691(2) 0.1546(2) 0.6539(3)
O24 O 0.6546(2) 0.1539(3) 0.4691(2)
C3 C 0.9232(3) 0.3660(3) 0.2713(3)
C6 C 0.9052(5) 0.3915(4) 0.3477(4)
O8 O 0.7912(3) 0.9833(2) 0.5582(2)
O9 O 0.7088(3) 0.9833(2) 0.4418(2)
O8_2 O 0.7088(3) 0.0167(2) 0.0582(2)
Cd7_3 Cd 0.3324 0.00000(3) 0.7500
O9_2 O 0.7912(3) 0.0167(2) 0.9418(2)
Cd2_3 Cd 0.5000 0.75000(3) 0.0824
O4_2 O 0.6546(2) 0.8461(3) 0.0309(2)
Cd4_2 Cd 0.75000(3) 0.9176 -0.0000
Cd6_2 Cd 0.25000(3) 0.5824 -0.0000
O16_2 O 0.3965(3) 0.8006(4) 0.1195(5)
O17_2 O 0.6035(3) 0.6994(4) 0.1195(5)
O18_2 O 0.8006(4) 0.8805(5) 0.1035(3)
O20_2 O 0.3454(2) 0.6539(3) 0.0309(2)
O22_2 O 0.5309(2) 0.8454(2) 0.1539(3)
O23_2 O 0.4691(2) 0.6546(2) 0.1539(3)
Cd1_3 Cd 0.5000 0.7500 0.8750
O1_2 O 0.5582(2) 0.7912(3) 0.9833(2)
O2_2 O 0.6032(4) 0.8223(5) 0.8512(3)
O3_2 O 0.6994(4) 0.8805(5) 0.8965(3)
C1_2 C 0.6160(3) 0.8268(3) 0.9787(3)
C2_2 C 0.6415(4) 0.8448(5) 0.9023(4)
Cd3_3 Cd 0.50000(3) 0.7500 0.6676
Cd4_3 Cd 0.75000(3) 0.9176 1.0000
Cd5_2 Cd 0.6676 0.50000(3) 0.7500
Cd6_3 Cd 0.25000(3) 0.5824 1.0000
Cd7_4 Cd 0.3324 1.00000(3) 0.7500
O5_2 O 0.5412(3) 0.6918(2) 0.7667(2)
O6_2 O 0.4418(2) 0.7088(3) 0.9833(2)
O7_2 O 0.4588(3) 0.8082(2) 0.7667(2)
O10_2 O 0.5723(5) 0.6468(4) 0.8988(3)
O11_2 O 0.3968(4) 0.6777(5) 0.8512(3)
O12_2 O 0.4277(5) 0.8532(4) 0.8988(3)
O13_2 O 0.6305(5) 0.5506(4) 0.8535(3)
O14_2 O 0.3006(4) 0.6195(5) 0.8965(3)
O15_2 O 0.3695(5) 0.9494(4) 0.8535(3)
O19_2 O 0.5961(3) 0.5954(2) 0.7191(2)
O21_2 O 0.4039(3) 0.9046(2) 0.7191(2)
O24_2 O 0.8454(2) 0.8461(3) 0.9691(2)
C3_2 C 0.5768(3) 0.6340(3) 0.7713(3)
C4_2 C 0.3840(3) 0.6732(3) 0.9787(3)
C5_2 C 0.4232(3) 0.8660(3) 0.7713(3)
C6_2 C 0.5948(5) 0.6085(4) 0.8477(4)
C7_2 C 0.3585(4) 0.6552(5) 0.9023(4)
C8_2 C 0.4052(5) 0.8915(4) 0.8477(4)
Cd1_4 Cd 0.0000 0.7500 0.1250
O1_3 O 0.0582(2) 0.7088(3) 0.0167(2)
O2_3 O 0.1032(4) 0.6777(5) 0.1488(3)
O3_3 O 0.1994(4) 0.6195(5) 0.1035(3)
C1_3 C 0.1160(3) 0.6732(3) 0.0213(3)
C2_3 C 0.1415(4) 0.6552(5) 0.0977(4)
Cd3_4 Cd 0.00000(3) 0.7500 0.3324
O5_3 O 0.0412(3) 0.8082(2) 0.2333(2)
O9_3 O 0.2912(3) 0.4833(2) 0.0582(2)
O10_3 O 0.0723(5) 0.8532(4) 0.1012(3)
O13_3 O 0.1305(5) 0.9494(4) 0.1465(3)
O19_3 O 0.0961(3) 0.9046(2) 0.2809(2)
C3_3 C 0.0768(3) 0.8660(3) 0.2287(3)
C6_3 C 0.0948(5) 0.8915(4) 0.1523(4)
Cd2_4 Cd 0.0000 0.75000(3) 0.9176
O4_3 O 0.1546(2) 0.6539(3) 0.9691(2)
O8_3 O 0.2088(3) 0.4833(2) 0.9418(2)
O17_3 O 0.1035(3) 0.8006(4) 0.8805(5)
O22_3 O 0.0309(2) 0.6546(2) 0.8461(3)
Cd1_5 Cd 1.0000 0.7500 0.1250
Cd3_5 Cd 1.00000(3) 0.7500 0.3324
O6_3 O 0.9418(2) 0.7912(3) 0.0167(2)
O7_3 O 0.9588(3) 0.6918(2) 0.2333(2)
O11_3 O 0.8968(4) 0.8223(5) 0.1488(3)
O12_3 O 0.9277(5) 0.6468(4) 0.1012(3)
O15_3 O 0.8695(5) 0.5506(4) 0.1465(3)
O21_3 O 0.9039(3) 0.5954(2) 0.2809(2)
C4_3 C 0.8840(3) 0.8268(3) 0.0213(3)
C5_3 C 0.9232(3) 0.6340(3) 0.2287(3)
C7_3 C 0.8585(4) 0.8448(5) 0.0977(4)
C8_3 C 0.9052(5) 0.6085(4) 0.1523(4)
Cd2_5 Cd 1.0000 0.75000(3) 0.9176
O16_3 O 0.8965(3) 0.6994(4) 0.8805(5)
O23_3 O 0.9691(2) 0.8454(2) 0.8461(3)
Cd1_6 Cd 0.5000 0.2500 0.6250
Cd2_6 Cd 0.5000 0.25000(3) 0.4176
O1_4 O 0.4418(2) 0.2912(3) 0.5167(2)
O2_4 O 0.3968(4) 0.3223(5) 0.6488(3)
O3_4 O 0.3006(4) 0.3805(5) 0.6035(3)
O4_4 O 0.3454(2) 0.3461(3) 0.4691(2)
C1_4 C 0.3840(3) 0.3268(3) 0.5213(3)
C2_4 C 0.3585(4) 0.3448(5) 0.5977(4)
Cd3_6 Cd 0.50000(3) 0.2500 0.8324
O5_4 O 0.4588(3) 0.1918(2) 0.7333(2)
O6_4 O 0.5582(2) 0.2088(3) 0.5167(2)
O7_4 O 0.5412(3) 0.3082(2) 0.7333(2)
O8_4 O 0.2912(3) 0.5167(2) 0.4418(2)
O9_4 O 0.2088(3) 0.5167(2) 0.5582(2)
O10_4 O 0.4277(5) 0.1468(4) 0.6012(3)
O11_4 O 0.6032(4) 0.1777(5) 0.6488(3)
O12_4 O 0.5723(5) 0.3532(4) 0.6012(3)
O13_4 O 0.3695(5) 0.0506(4) 0.6465(3)
O15_4 O 0.6305(5) 0.4494(4) 0.6465(3)
O16_4 O 0.6035(3) 0.3006(4) 0.3805(5)
O17_4 O 0.3965(3) 0.1994(4) 0.3805(5)
O19_4 O 0.4039(3) 0.0954(2) 0.7809(2)
O21_4 O 0.5961(3) 0.4046(2) 0.7809(2)
O22_4 O 0.4691(2) 0.3454(2) 0.3461(3)
O23_4 O 0.5309(2) 0.1546(2) 0.3461(3)
C3_4 C 0.4232(3) 0.1340(3) 0.7287(3)
C4_4 C 0.6160(3) 0.1732(3) 0.5213(3)
C5_4 C 0.5768(3) 0.3660(3) 0.7287(3)
C6_4 C 0.4052(5) 0.1085(4) 0.6523(4)
C7_4 C 0.6415(4) 0.1552(5) 0.5977(4)
C8_4 C 0.5948(5) 0.3915(4) 0.6523(4)
Cd1_7 Cd 0.3750 -0.0000 0.2500
Cd2_7 Cd 0.5824 -0.0000 0.25000(3)
Cd7_5 Cd 0.2500 0.1676 0.00000(3)
O6_5 O 0.4833(2) 0.0582(2) 0.2912(3)
O7_5 O 0.2667(2) 0.0412(3) 0.1918(2)
O11_5 O 0.3512(3) 0.1032(4) 0.3223(5)
O12_5 O 0.3988(3) 0.0723(5) 0.1468(4)
O15_5 O 0.3535(3) 0.1305(5) 0.0506(4)
O16_5 O 0.6195(5) 0.1035(3) 0.1994(4)
O21_5 O 0.2191(2) 0.0961(3) 0.0954(2)
O23_5 O 0.6539(3) 0.0309(2) 0.3454(2)
C4_5 C 0.4787(3) 0.1160(3) 0.3268(3)
C5_5 C 0.2713(3) 0.0768(3) 0.1340(3)
C7_5 C 0.4023(4) 0.1415(4) 0.3448(5)
C8_5 C 0.3477(4) 0.0948(5) 0.1085(4)
Cd7_6 Cd 0.2500 0.1676 1.00000(3)
Cd1_8 Cd 0.3750 1.0000 0.2500
Cd2_8 Cd 0.5824 1.0000 0.25000(3)
O1_5 O 0.4833(2) 0.9418(2) 0.2088(3)
O2_5 O 0.3512(3) 0.8968(4) 0.1777(5)
C1_5 C 0.4787(3) 0.8840(3) 0.1732(3)
C2_5 C 0.4023(4) 0.8585(4) 0.1552(5)
Cd5_3 Cd 0.2500 0.8324 0.50000(3)
O5_5 O 0.2667(2) 0.9588(3) 0.3082(2)
O10_5 O 0.3988(3) 0.9277(5) 0.3532(4)
O13_5 O 0.3535(3) 0.8695(5) 0.4494(4)
O17_5 O 0.6195(5) 0.8965(3) 0.3006(4)
O19_5 O 0.2191(2) 0.9039(3) 0.4046(2)
O22_5 O 0.6539(3) 0.9691(2) 0.1546(2)
C3_5 C 0.2713(3) 0.9232(3) 0.3660(3)
C6_5 C 0.3477(4) 0.9052(5) 0.3915(4)
Cd2_9 Cd 0.0824 0.5000 0.75000(3)
O16_6 O 0.1195(5) 0.3965(3) 0.8006(4)
O17_6 O 0.1195(5) 0.6035(3) 0.6994(4)
O22_6 O 0.1539(3) 0.5309(2) 0.8454(2)
O23_6 O 0.1539(3) 0.4691(2) 0.6546(2)
Cd7_7 Cd 0.7500 0.3324 0.00000(3)
Cd1_9 Cd 0.8750 0.5000 0.7500
O1_6 O 0.9833(2) 0.5582(2) 0.7912(3)
O2_6 O 0.8512(3) 0.6032(4) 0.8223(5)
C1_6 C 0.9787(3) 0.6160(3) 0.8268(3)
C2_6 C 0.9023(4) 0.6415(4) 0.8448(5)
Cd5_4 Cd 0.7500 0.6676 0.50000(3)
Cd7_8 Cd 0.7500 0.3324 1.00000(3)
O5_6 O 0.7667(2) 0.5412(3) 0.6918(2)
O6_6 O 0.9833(2) 0.4418(2) 0.7088(3)
O7_6 O 0.7667(2) 0.4588(3) 0.8082(2)
O10_6 O 0.8988(3) 0.5723(5) 0.6468(4)
O11_6 O 0.8512(3) 0.3968(4) 0.6777(5)
O12_6 O 0.8988(3) 0.4277(5) 0.8532(4)
O13_6 O 0.8535(3) 0.6305(5) 0.5506(4)
O15_6 O 0.8535(3) 0.3695(5) 0.9494(4)
O19_6 O 0.7191(2) 0.5961(3) 0.5954(2)
O21_6 O 0.7191(2) 0.4039(3) 0.9046(2)
C3_6 C 0.7713(3) 0.5768(3) 0.6340(3)
C4_6 C 0.9787(3) 0.3840(3) 0.6732(3)
C5_6 C 0.7713(3) 0.4232(3) 0.8660(3)
C6_6 C 0.8477(4) 0.5948(5) 0.6085(4)
C7_6 C 0.9023(4) 0.3585(4) 0.6552(5)
C8_6 C 0.8477(4) 0.4052(5) 0.8915(4)
Cd1_10 Cd 0.1250 0.0000 0.7500
O1_7 O 0.0167(2) 0.0582(2) 0.7088(3)
O2_7 O 0.1488(3) 0.1032(4) 0.6777(5)
C1_7 C 0.0213(3) 0.1160(3) 0.6732(3)
C2_7 C 0.0977(4) 0.1415(4) 0.6552(5)
O5_7 O 0.2333(2) 0.0412(3) 0.8082(2)
O10_7 O 0.1012(3) 0.0723(5) 0.8532(4)
O13_7 O 0.1465(3) 0.1305(5) 0.9494(4)
O19_7 O 0.2809(2) 0.0961(3) 0.9046(2)
C3_7 C 0.2287(3) 0.0768(3) 0.8660(3)
C6_7 C 0.1523(4) 0.0948(5) 0.8915(4)
Cd1_11 Cd 0.1250 1.0000 0.7500
O6_7 O 0.0167(2) 0.9418(2) 0.7912(3)
O7_7 O 0.2333(2) 0.9588(3) 0.6918(2)
O11_7 O 0.1488(3) 0.8968(4) 0.8223(5)
O12_7 O 0.1012(3) 0.9277(5) 0.6468(4)
O15_7 O 0.1465(3) 0.8695(5) 0.5506(4)
O21_7 O 0.2809(2) 0.9039(3) 0.5954(2)
C4_7 C 0.0213(3) 0.8840(3) 0.8268(3)
C5_7 C 0.2287(3) 0.9232(3) 0.6340(3)
C7_7 C 0.0977(4) 0.8585(4) 0.8448(5)
C8_7 C 0.1523(4) 0.9052(5) 0.6085(4)
Cd2_10 Cd 0.9176 0.0000 0.75000(3)
O17_7 O 0.8805(5) 0.1035(3) 0.8006(4)
O22_7 O 0.8461(3) 0.0309(2) 0.6546(2)
Cd2_11 Cd 0.9176 1.0000 0.75000(3)
O16_7 O 0.8805(5) 0.8965(3) 0.6994(4)
O23_7 O 0.8461(3) 0.9691(2) 0.8454(2)
Cd1_12 Cd 0.6250 0.5000 0.2500
Cd2_12 Cd 0.4176 0.5000 0.25000(3)
O1_8 O 0.5167(2) 0.4418(2) 0.2912(3)
O2_8 O 0.6488(3) 0.3968(4) 0.3223(5)
C1_8 C 0.5213(3) 0.3840(3) 0.3268(3)
C2_8 C 0.5977(4) 0.3585(4) 0.3448(5)
O5_8 O 0.7333(2) 0.4588(3) 0.1918(2)
O6_8 O 0.5167(2) 0.5582(2) 0.2088(3)
O7_8 O 0.7333(2) 0.5412(3) 0.3082(2)
O10_8 O 0.6012(3) 0.4277(5) 0.1468(4)
O11_8 O 0.6488(3) 0.6032(4) 0.1777(5)
O12_8 O 0.6012(3) 0.5723(5) 0.3532(4)
O13_8 O 0.6465(3) 0.3695(5) 0.0506(4)
O15_8 O 0.6465(3) 0.6305(5) 0.4494(4)
O16_8 O 0.3805(5) 0.6035(3) 0.3006(4)
O17_8 O 0.3805(5) 0.3965(3) 0.1994(4)
O19_8 O 0.7809(2) 0.4039(3) 0.0954(2)
O21_8 O 0.7809(2) 0.5961(3) 0.4046(2)
O22_8 O 0.3461(3) 0.4691(2) 0.3454(2)
O23_8 O 0.3461(3) 0.5309(2) 0.1546(2)
C3_8 C 0.7287(3) 0.4232(3) 0.1340(3)
C4_8 C 0.5213(3) 0.6160(3) 0.1732(3)
C5_8 C 0.7287(3) 0.5768(3) 0.3660(3)
C6_8 C 0.6523(4) 0.4052(5) 0.1085(4)
C7_8 C 0.5977(4) 0.6415(4) 0.1552(5)
C8_8 C 0.6523(4) 0.5948(5) 0.3915(4)
Cd1_13 Cd 0.2500 0.3750 -0.0000
O7_9 O 0.1918(2) 0.2667(2) 0.0412(3)
O11_9 O 0.3223(5) 0.3512(3) 0.1032(4)
O12_9 O 0.1468(4) 0.3988(3) 0.0723(5)
O15_9 O 0.0506(4) 0.3535(3) 0.1305(5)
O21_9 O 0.0954(2) 0.2191(2) 0.0961(3)
C4_9 C 0.3268(3) 0.4787(3) 0.1160(3)
C5_9 C 0.1340(3) 0.2713(3) 0.0768(3)
C7_9 C 0.3448(5) 0.4023(4) 0.1415(4)
C8_9 C 0.1085(4) 0.3477(4) 0.0948(5)
Cd1_14 Cd 0.2500 0.3750 1.0000
O2_9 O 0.1777(5) 0.3512(3) 0.8968(4)
C1_9 C 0.1732(3) 0.4787(3) 0.8840(3)
C2_9 C 0.1552(5) 0.4023(4) 0.8585(4)
O5_9 O 0.3082(2) 0.2667(2) 0.9588(3)
O10_9 O 0.3532(4) 0.3988(3) 0.9277(5)
O13_9 O 0.4494(4) 0.3535(3) 0.8695(5)
O19_9 O 0.4046(2) 0.2191(2) 0.9039(3)
C3_9 C 0.3660(3) 0.2713(3) 0.9232(3)
C6_9 C 0.3915(4) 0.3477(4) 0.9052(5)
Cd1_15 Cd 0.7500 0.8750 0.5000
O2_10 O 0.8223(5) 0.8512(3) 0.6032(4)
C1_10 C 0.8268(3) 0.9787(3) 0.6160(3)
C2_10 C 0.8448(5) 0.9023(4) 0.6415(4)
O5_10 O 0.6918(2) 0.7667(2) 0.5412(3)
O7_10 O 0.8082(2) 0.7667(2) 0.4588(3)
O10_10 O 0.6468(4) 0.8988(3) 0.5723(5)
O11_10 O 0.6777(5) 0.8512(3) 0.3968(4)
O12_10 O 0.8532(4) 0.8988(3) 0.4277(5)
O13_10 O 0.5506(4) 0.8535(3) 0.6305(5)
O15_10 O 0.9494(4) 0.8535(3) 0.3695(5)
O19_10 O 0.5954(2) 0.7191(2) 0.5961(3)
O21_10 O 0.9046(2) 0.7191(2) 0.4039(3)
C3_10 C 0.6340(3) 0.7713(3) 0.5768(3)
C4_10 C 0.6732(3) 0.9787(3) 0.3840(3)
C5_10 C 0.8660(3) 0.7713(3) 0.4232(3)
C6_10 C 0.6085(4) 0.8477(4) 0.5948(5)
C7_10 C 0.6552(5) 0.9023(4) 0.3585(4)
C8_10 C 0.8915(4) 0.8477(4) 0.4052(5)
Cd1_16 Cd 0.7500 0.1250 0.0000
O2_11 O 0.6777(5) 0.1488(3) 0.1032(4)
C1_11 C 0.6732(3) 0.0213(3) 0.1160(3)
C2_11 C 0.6552(5) 0.0977(4) 0.1415(4)
O5_11 O 0.8082(2) 0.2333(2) 0.0412(3)
O10_11 O 0.8532(4) 0.1012(3) 0.0723(5)
O13_11 O 0.9494(4) 0.1465(3) 0.1305(5)
O19_11 O 0.9046(2) 0.2809(2) 0.0961(3)
C3_11 C 0.8660(3) 0.2287(3) 0.0768(3)
C6_11 C 0.8915(4) 0.1523(4) 0.0948(5)
Cd1_17 Cd 0.7500 0.1250 1.0000
O7_11 O 0.6918(2) 0.2333(2) 0.9588(3)
O11_11 O 0.8223(5) 0.1488(3) 0.8968(4)
O12_11 O 0.6468(4) 0.1012(3) 0.9277(5)
O15_11 O 0.5506(4) 0.1465(3) 0.8695(5)
O21_11 O 0.5954(2) 0.2809(2) 0.9039(3)
C4_11 C 0.8268(3) 0.0213(3) 0.8840(3)
C5_11 C 0.6340(3) 0.2287(3) 0.9232(3)
C7_11 C 0.8448(5) 0.0977(4) 0.8585(4)
C8_11 C 0.6085(4) 0.1523(4) 0.9052(5)
Cd1_18 Cd 0.2500 0.6250 0.5000
O2_12 O 0.3223(5) 0.6488(3) 0.3968(4)
C1_12 C 0.3268(3) 0.5213(3) 0.3840(3)
C2_12 C 0.3448(5) 0.5977(4) 0.3585(4)
O5_12 O 0.1918(2) 0.7333(2) 0.4588(3)
O7_12 O 0.3082(2) 0.7333(2) 0.5412(3)
O10_12 O 0.1468(4) 0.6012(3) 0.4277(5)
O11_12 O 0.1777(5) 0.6488(3) 0.6032(4)
O12_12 O 0.3532(4) 0.6012(3) 0.5723(5)
O13_12 O 0.0506(4) 0.6465(3) 0.3695(5)
O15_12 O 0.4494(4) 0.6465(3) 0.6305(5)
O19_12 O 0.0954(2) 0.7809(2) 0.4039(3)
O21_12 O 0.4046(2) 0.7809(2) 0.5961(3)
C3_12 C 0.1340(3) 0.7287(3) 0.4232(3)
C4_12 C 0.1732(3) 0.5213(3) 0.6160(3)
C5_12 C 0.3660(3) 0.7287(3) 0.5768(3)
C6_12 C 0.1085(4) 0.6523(4) 0.4052(5)
C7_12 C 0.1552(5) 0.5977(4) 0.6415(4)
C8_12 C 0.3915(4) 0.6523(4) 0.5948(5)
C9 C 0.747(4) 0.338(3) 0.5801(10)
N1 N 0.7500 0.333(3) 0.5000
C10 C 0.753(4) 0.338(3) 0.4199(10)
H1 H 0.80165 0.366889 0.403871
H2 H 0.753861 0.283884 0.3969
H3 H 0.705685 0.366889 0.400277
H4 H 0.69835 0.366889 0.596129
H5 H 0.746139 0.283884 0.6031
H6 H 0.794315 0.366889 0.599723
H7 H 0.705278 0.301355 0.498325
H8 H 0.794722 0.301355 0.501675
C9_2 C 0.753(4) 0.662(3) 0.0801(10)
N1_2 N 0.7500 0.667(3) -0.0000
H4_2 H 0.80165 0.633111 0.096129
H5_2 H 0.753861 0.716116 0.1031
H6_2 H 0.705685 0.633111 0.0997232
H8_2 H 0.705278 0.698645 0.00167498
N1_3 N 0.7500 0.667(3) 1.0000
C10_2 C 0.747(4) 0.662(3) 0.9199(10)
H1_2 H 0.69835 0.633111 0.903871
H2_2 H 0.746139 0.716116 0.8969
H3_2 H 0.794315 0.633111 0.900277
H7_2 H 0.794722 0.698645 0.998325
N1_4 N 0.2500 0.833(3) 0.0000
C10_3 C 0.247(4) 0.838(3) 0.0801(10)
H1_3 H 0.19835 0.866889 0.096129
H2_3 H 0.246139 0.783884 0.1031
H3_3 H 0.294315 0.866889 0.0997232
H7_3 H 0.294722 0.801355 0.00167498
C9_3 C 0.253(4) 0.838(3) 0.9199(10)
N1_5 N 0.2500 0.833(3) 1.0000
H4_3 H 0.30165 0.866889 0.903871
H5_3 H 0.253861 0.783884 0.8969
H6_3 H 0.205685 0.866889 0.900277
H8_3 H 0.205278 0.801355 0.998325
C9_4 C 0.247(4) 0.162(3) 0.4199(10)
N1_6 N 0.2500 0.167(3) 0.5000
C10_4 C 0.253(4) 0.162(3) 0.5801(10)
H1_4 H 0.30165 0.133111 0.596129
H2_4 H 0.253861 0.216116 0.6031
H3_4 H 0.205685 0.133111 0.599723
H4_4 H 0.19835 0.133111 0.403871
H5_4 H 0.246139 0.216116 0.3969
H6_4 H 0.294315 0.133111 0.400277
H7_4 H 0.205278 0.198645 0.501675
H8_4 H 0.294722 0.198645 0.498325
C9_5 C 0.5801(10) 0.747(4) 0.338(3)
N1_7 N 0.5000 0.7500 0.333(3)
C10_5 C 0.4199(10) 0.753(4) 0.338(3)
H1_5 H 0.403871 0.80165 0.366889
H2_5 H 0.3969 0.753861 0.283884
H3_5 H 0.400277 0.705685 0.366889
H4_5 H 0.596129 0.69835 0.366889
H5_5 H 0.6031 0.746139 0.283884
H6_5 H 0.599723 0.794315 0.366889
H7_5 H 0.498325 0.705278 0.301355
H8_5 H 0.501675 0.794722 0.301355
C9_6 C 0.0801(10) 0.753(4) 0.662(3)
N1_8 N -0.0000 0.7500 0.667(3)
H4_6 H 0.096129 0.80165 0.633111
H5_6 H 0.1031 0.753861 0.716116
H6_6 H 0.0997232 0.705685 0.633111
H8_6 H 0.00167498 0.705278 0.698645
N1_9 N 1.0000 0.7500 0.667(3)
C10_6 C 0.9199(10) 0.747(4) 0.662(3)
H1_6 H 0.903871 0.69835 0.633111
H2_6 H 0.8969 0.746139 0.716116
H3_6 H 0.900277 0.794315 0.633111
H7_6 H 0.998325 0.794722 0.698645
N1_10 N 0.0000 0.2500 0.833(3)
C10_7 C 0.0801(10) 0.247(4) 0.838(3)
H1_7 H 0.096129 0.19835 0.866889
H2_7 H 0.1031 0.246139 0.783884
H3_7 H 0.0997232 0.294315 0.866889
H7_7 H 0.00167498 0.294722 0.801355
C9_7 C 0.9199(10) 0.253(4) 0.838(3)
N1_11 N 1.0000 0.2500 0.833(3)
H4_7 H 0.903871 0.30165 0.866889
H5_7 H 0.8969 0.253861 0.783884
H6_7 H 0.900277 0.205685 0.866889
H8_7 H 0.998325 0.205278 0.801355
C9_8 C 0.4199(10) 0.247(4) 0.162(3)
N1_12 N 0.5000 0.2500 0.167(3)
C10_8 C 0.5801(10) 0.253(4) 0.162(3)
H1_8 H 0.596129 0.30165 0.133111
H2_8 H 0.6031 0.253861 0.216116
H3_8 H 0.599723 0.205685 0.133111
H4_8 H 0.403871 0.19835 0.133111
H5_8 H 0.3969 0.246139 0.216116
H6_8 H 0.400277 0.294315 0.133111
H7_8 H 0.501675 0.205278 0.198645
H8_8 H 0.498325 0.294722 0.198645
C9_9 C 0.338(3) 0.5801(10) 0.747(4)
N1_13 N 0.333(3) 0.5000 0.7500
C10_9 C 0.338(3) 0.4199(10) 0.753(4)
H1_9 H 0.366889 0.403871 0.80165
H2_9 H 0.283884 0.3969 0.753861
H3_9 H 0.366889 0.400277 0.705685
H4_9 H 0.366889 0.596129 0.69835
H5_9 H 0.283884 0.6031 0.746139
H6_9 H 0.366889 0.599723 0.794315
H7_9 H 0.301355 0.498325 0.705278
H8_9 H 0.301355 0.501675 0.794722
C9_10 C 0.662(3) 0.0801(10) 0.753(4)
N1_14 N 0.667(3) -0.0000 0.7500
H4_10 H 0.633111 0.096129 0.80165
H5_10 H 0.716116 0.1031 0.753861
H6_10 H 0.633111 0.0997232 0.705685
H8_10 H 0.698645 0.00167498 0.705278
N1_15 N 0.667(3) 1.0000 0.7500
C10_10 C 0.662(3) 0.9199(10) 0.747(4)
H1_10 H 0.633111 0.903871 0.69835
H2_10 H 0.716116 0.8969 0.746139
H3_10 H 0.633111 0.900277 0.794315
H7_10 H 0.698645 0.998325 0.794722
N1_16 N 0.833(3) 0.0000 0.2500
C10_11 C 0.838(3) 0.0801(10) 0.247(4)
H1_11 H 0.866889 0.096129 0.19835
H2_11 H 0.783884 0.1031 0.246139
H3_11 H 0.866889 0.0997232 0.294315
H7_11 H 0.801355 0.00167498 0.294722
C9_11 C 0.838(3) 0.9199(10) 0.253(4)
N1_17 N 0.833(3) 1.0000 0.2500
H4_11 H 0.866889 0.903871 0.30165
H5_11 H 0.783884 0.8969 0.253861
H6_11 H 0.866889 0.900277 0.205685
H8_11 H 0.801355 0.998325 0.205278
C9_12 C 0.162(3) 0.4199(10) 0.247(4)
N1_18 N 0.167(3) 0.5000 0.2500
C10_12 C 0.162(3) 0.5801(10) 0.253(4)
H1_12 H 0.133111 0.596129 0.30165
H2_12 H 0.216116 0.6031 0.253861
H3_12 H 0.133111 0.599723 0.205685
H4_12 H 0.133111 0.403871 0.19835
H5_12 H 0.216116 0.3969 0.246139
H6_12 H 0.133111 0.400277 0.294315
H7_12 H 0.198645 0.501675 0.205278
H8_12 H 0.198645 0.498325 0.294722
N1_19 N 0.583(3) -0.0000 0.7500
C10_13 C 0.588(3) 0.003(4) 0.6699(10)
H1_13 H 0.616889 0.0516502 0.653871
H2_13 H 0.533884 0.00386143 0.6469
H6_13 H 0.616889 0.044315 0.849723
H8_13 H 0.551355 0.0447221 0.751675
C9_13 C 0.588(3) 0.997(4) 0.8301(10)
N1_20 N 0.583(3) 1.0000 0.7500
H3_13 H 0.616889 0.955685 0.650277
H4_13 H 0.616889 0.94835 0.846129
H5_13 H 0.533884 0.996139 0.8531
H7_13 H 0.551355 0.955278 0.748325
C9_14 C 0.912(3) 0.003(4) 0.3301(10)
N1_21 N 0.917(3) 0.0000 0.2500
H3_14 H 0.883111 0.044315 0.150277
H4_14 H 0.883111 0.0516502 0.346129
H5_14 H 0.966116 0.00386143 0.3531
H7_14 H 0.948645 0.0447221 0.248325
N1_22 N 0.917(3) 1.0000 0.2500
C10_14 C 0.912(3) 0.997(4) 0.1699(10)
H1_14 H 0.883111 0.94835 0.153871
H2_14 H 0.966116 0.996139 0.1469
H6_14 H 0.883111 0.955685 0.349723
H8_14 H 0.948645 0.955278 0.251675
C9_15 C 0.088(3) 0.503(4) 0.1699(10)
N1_23 N 0.083(3) 0.5000 0.2500
C10_15 C 0.088(3) 0.497(4) 0.3301(10)
H1_15 H 0.116889 0.44835 0.346129
H2_15 H 0.0338836 0.496139 0.3531
H3_15 H 0.116889 0.544315 0.349723
H4_15 H 0.116889 0.55165 0.153871
H5_15 H 0.0338836 0.503861 0.1469
H6_15 H 0.116889 0.455685 0.150277
H7_15 H 0.0513545 0.544722 0.251675
H8_15 H 0.0513545 0.455278 0.248325
C9_16 C 0.412(3) 0.497(4) 0.6699(10)
N1_24 N 0.417(3) 0.5000 0.7500
C10_16 C 0.412(3) 0.503(4) 0.8301(10)
H1_16 H 0.383111 0.55165 0.846129
H2_16 H 0.466116 0.503861 0.8531
H3_16 H 0.383111 0.455685 0.849723
H4_16 H 0.383111 0.44835 0.653871
H5_16 H 0.466116 0.496139 0.6469
H6_16 H 0.383111 0.544315 0.650277
H7_16 H 0.448645 0.455278 0.751675
H8_16 H 0.448645 0.544722 0.748325
N1_25 N -0.0000 0.7500 0.583(3)
C10_17 C 0.003(4) 0.6699(10) 0.588(3)
H1_17 H 0.0516502 0.653871 0.616889
H2_17 H 0.00386143 0.6469 0.533884
H6_17 H 0.044315 0.849723 0.616889
H8_17 H 0.0447221 0.751675 0.551355
C9_17 C 0.997(4) 0.8301(10) 0.588(3)
N1_26 N 1.0000 0.7500 0.583(3)
H3_17 H 0.955685 0.650277 0.616889
H4_17 H 0.94835 0.846129 0.616889
H5_17 H 0.996139 0.8531 0.533884
H7_17 H 0.955278 0.748325 0.551355
C9_18 C 0.003(4) 0.3301(10) 0.912(3)
N1_27 N 0.0000 0.2500 0.917(3)
H3_18 H 0.044315 0.150277 0.883111
H4_18 H 0.0516502 0.346129 0.883111
H5_18 H 0.00386143 0.3531 0.966116
H7_18 H 0.0447221 0.248325 0.948645
N1_28 N 1.0000 0.2500 0.917(3)
C10_18 C 0.997(4) 0.1699(10) 0.912(3)
H1_18 H 0.94835 0.153871 0.883111
H2_18 H 0.996139 0.1469 0.966116
H6_18 H 0.955685 0.349723 0.883111
H8_18 H 0.955278 0.251675 0.948645
C9_19 C 0.503(4) 0.1699(10) 0.088(3)
N1_29 N 0.5000 0.2500 0.083(3)
C10_19 C 0.497(4) 0.3301(10) 0.088(3)
H1_19 H 0.44835 0.346129 0.116889
H2_19 H 0.496139 0.3531 0.0338836
H3_19 H 0.544315 0.349723 0.116889
H4_19 H 0.55165 0.153871 0.116889
H5_19 H 0.503861 0.1469 0.0338836
H6_19 H 0.455685 0.150277 0.116889
H7_19 H 0.544722 0.251675 0.0513545
H8_19 H 0.455278 0.248325 0.0513545
C9_20 C 0.497(4) 0.6699(10) 0.412(3)
N1_30 N 0.5000 0.7500 0.417(3)
C10_20 C 0.503(4) 0.8301(10) 0.412(3)
H1_20 H 0.55165 0.846129 0.383111
H2_20 H 0.503861 0.8531 0.466116
H3_20 H 0.455685 0.849723 0.383111
H4_20 H 0.44835 0.653871 0.383111
H5_20 H 0.496139 0.6469 0.466116
H6_20 H 0.544315 0.650277 0.383111
H7_20 H 0.455278 0.751675 0.448645
H8_20 H 0.544722 0.748325 0.448645
N1_31 N 0.7500 0.583(3) -0.0000
C10_21 C 0.6699(10) 0.588(3) 0.003(4)
H1_21 H 0.653871 0.616889 0.0516502
H2_21 H 0.6469 0.533884 0.00386143
H6_21 H 0.849723 0.616889 0.044315
H8_21 H 0.751675 0.551355 0.0447221
C9_21 C 0.8301(10) 0.588(3) 0.997(4)
N1_32 N 0.7500 0.583(3) 1.0000
H3_21 H 0.650277 0.616889 0.955685
H4_21 H 0.846129 0.616889 0.94835
H5_21 H 0.8531 0.533884 0.996139
H7_21 H 0.748325 0.551355 0.955278
C9_22 C 0.3301(10) 0.912(3) 0.003(4)
N1_33 N 0.2500 0.917(3) 0.0000
H3_22 H 0.150277 0.883111 0.044315
H4_22 H 0.346129 0.883111 0.0516502
H5_22 H 0.3531 0.966116 0.00386143
H7_22 H 0.248325 0.948645 0.0447221
N1_34 N 0.2500 0.917(3) 1.0000
C10_22 C 0.1699(10) 0.912(3) 0.997(4)
H1_22 H 0.153871 0.883111 0.94835
H2_22 H 0.1469 0.966116 0.996139
H6_22 H 0.349723 0.883111 0.955685
H8_22 H 0.251675 0.948645 0.955278
C9_23 C 0.1699(10) 0.088(3) 0.503(4)
N1_35 N 0.2500 0.083(3) 0.5000
C10_23 C 0.3301(10) 0.088(3) 0.497(4)
H1_23 H 0.346129 0.116889 0.44835
H2_23 H 0.3531 0.0338836 0.496139
H3_23 H 0.349723 0.116889 0.544315
H4_23 H 0.153871 0.116889 0.55165
H5_23 H 0.1469 0.0338836 0.503861
H6_23 H 0.150277 0.116889 0.455685
H7_23 H 0.251675 0.0513545 0.544722
H8_23 H 0.248325 0.0513545 0.455278
C9_24 C 0.6699(10) 0.412(3) 0.497(4)
N1_36 N 0.7500 0.417(3) 0.5000
C10_24 C 0.8301(10) 0.412(3) 0.503(4)
H1_24 H 0.846129 0.383111 0.55165
H2_24 H 0.8531 0.466116 0.503861
H3_24 H 0.849723 0.383111 0.455685
H4_24 H 0.653871 0.383111 0.44835
H5_24 H 0.6469 0.466116 0.496139
H6_24 H 0.650277 0.383111 0.544315
H7_24 H 0.751675 0.448645 0.455278
H8_24 H 0.748325 0.448645 0.544722
loop_
_geom_bond_atom_site_label_1
_geom_bond_atom_site_label_2
_geom_bond_site_symmetry_1
_geom_bond_site_symmetry_2
Cd6 O14 1_555 1_555
Cd7 O15 1_555 1_555
O6 Cd1 1_555 1_555
O7 Cd1 1_555 1_555
O11 Cd1 1_555 1_555
O12 Cd1 1_555 1_555
O14 C7 1_555 1_555
O15 C8 1_555 1_555
O16 Cd2 1_555 1_555
O20 Cd6 1_555 1_555
O21 Cd7 1_555 1_555
O23 Cd2 1_555 1_555
C4 O6 1_555 1_555
C5 O7 1_555 1_555
C7 O11 1_555 1_555
C8 O12 1_555 1_555
Cd2 O6 1_555 1_555
Cd3 O7 1_555 1_555
O20 C4 1_555 1_555
O21 C5 1_555 1_555
C4 C7 1_555 1_555
C5 C8 1_555 1_555
Cd1_2 O1 1_555 1_555
Cd2_2 O1 1_555 1_555
O1 C1 1_555 1_555
O2 Cd1_2 1_555 1_555
O3 C2 1_555 1_555
O4 C1 1_555 1_555
C1 C2 1_555 1_555
C2 O2 1_555 1_555
Cd3_2 O5 1_555 1_555
Cd4 O3 1_555 1_555
Cd5 O13 1_555 1_555
O5 Cd1_2 1_555 1_555
O10 Cd1_2 1_555 1_555
O13 C6 1_555 1_555
O17 Cd2_2 1_555 1_555
O18 Cd4 1_555 1_555
O19 Cd5 1_555 1_555
O22 Cd2_2 1_555 1_555
O24 Cd4 1_555 1_555
C3 O5 1_555 1_555
C6 O10 1_555 1_555
O4 Cd4 1_555 1_555
O19 C3 1_555 1_555
C3 C6 1_555 1_555
O16_2 Cd2_3 1_555 1_555
O17_2 Cd2_3 1_555 1_555
O18_2 Cd4_2 1_555 1_555
O20_2 Cd6_2 1_555 1_555
O22_2 Cd2_3 1_555 1_555
O23_2 Cd2_3 1_555 1_555
O4_2 Cd4_2 1_555 1_555
Cd1_3 O1_2 1_555 1_555
O1_2 C1_2 1_555 1_555
O2_2 Cd1_3 1_555 1_555
O3_2 C2_2 1_555 1_555
C1_2 C2_2 1_555 1_555
C2_2 O2_2 1_555 1_555
Cd3_3 O5_2 1_555 1_555
Cd4_3 O3_2 1_555 1_555
Cd5_2 O13_2 1_555 1_555
Cd6_3 O14_2 1_555 1_555
Cd7_4 O15_2 1_555 1_555
O5_2 Cd1_3 1_555 1_555
O6_2 Cd1_3 1_555 1_555
O7_2 Cd1_3 1_555 1_555
O10_2 Cd1_3 1_555 1_555
O11_2 Cd1_3 1_555 1_555
O12_2 Cd1_3 1_555 1_555
O13_2 C6_2 1_555 1_555
O14_2 C7_2 1_555 1_555
O15_2 C8_2 1_555 1_555
O19_2 Cd5_2 1_555 1_555
O21_2 Cd7_4 1_555 1_555
O24_2 Cd4_3 1_555 1_555
C3_2 O5_2 1_555 1_555
C4_2 O6_2 1_555 1_555
C5_2 O7_2 1_555 1_555
C6_2 O10_2 1_555 1_555
C7_2 O11_2 1_555 1_555
C8_2 O12_2 1_555 1_555
Cd3_3 O7_2 1_555 1_555
O19_2 C3_2 1_555 1_555
O21_2 C5_2 1_555 1_555
C3_2 C6_2 1_555 1_555
C4_2 C7_2 1_555 1_555
C5_2 C8_2 1_555 1_555
Cd1_4 O1_3 1_555 1_555
O1_3 C1_3 1_555 1_555
O2_3 Cd1_4 1_555 1_555
O3_3 C2_3 1_555 1_555
C1_3 C2_3 1_555 1_555
C2_3 O2_3 1_555 1_555
Cd3_4 O5_3 1_555 1_555
Cd6_2 O3_3 1_555 1_555
Cd7_2 O13_3 1_555 1_555
O5_3 Cd1_4 1_555 1_555
O9_3 Cd6_2 1_555 1_555
O10_3 Cd1_4 1_555 1_555
O13_3 C6_3 1_555 1_555
O19_3 Cd7_2 1_555 1_555
C3_3 O5_3 1_555 1_555
C6_3 O10_3 1_555 1_555
O19_3 C3_3 1_555 1_555
C3_3 C6_3 1_555 1_555
O8_3 Cd6_3 1_555 1_555
O17_3 Cd2_4 1_555 1_555
O22_3 Cd2_4 1_555 1_555
O4_3 Cd6_3 1_555 1_555
Cd5 O15_3 1_555 1_555
O6_3 Cd1_5 1_555 1_555
O7_3 Cd1_5 1_555 1_555
O11_3 Cd1_5 1_555 1_555
O12_3 Cd1_5 1_555 1_555
O18_2 C7_3 1_555 1_555
O15_3 C8_3 1_555 1_555
O21_3 Cd5 1_555 1_555
C4_3 O6_3 1_555 1_555
C5_3 O7_3 1_555 1_555
C7_3 O11_3 1_555 1_555
C8_3 O12_3 1_555 1_555
Cd3_5 O7_3 1_555 1_555
O21_3 C5_3 1_555 1_555
C4_3 C7_3 1_555 1_555
C5_3 C8_3 1_555 1_555
O16_3 Cd2_5 1_555 1_555
O23_3 Cd2_5 1_555 1_555
Cd1_6 O1_4 1_555 1_555
Cd2_6 O1_4 1_555 1_555
O1_4 C1_4 1_555 1_555
O2_4 Cd1_6 1_555 1_555
O3_4 C2_4 1_555 1_555
O4_4 C1_4 1_555 1_555
C1_4 C2_4 1_555 1_555
C2_4 O2_4 1_555 1_555
Cd3_6 O5_4 1_555 1_555
Cd6 O3_4 1_555 1_555
Cd7_3 O13_4 1_555 1_555
Cd5_2 O15_4 1_555 1_555
O5_4 Cd1_6 1_555 1_555
O6_4 Cd1_6 1_555 1_555
O7_4 Cd1_6 1_555 1_555
O8_4 Cd6 1_555 1_555
O9_4 Cd6 1_555 1_555
O10_4 Cd1_6 1_555 1_555
O11_4 Cd1_6 1_555 1_555
O12_4 Cd1_6 1_555 1_555
O13_4 C6_4 1_555 1_555
O18 C7_4 1_555 1_555
O15_4 C8_4 1_555 1_555
O16_4 Cd2_6 1_555 1_555
O17_4 Cd2_6 1_555 1_555
O19_4 Cd7_3 1_555 1_555
O21_4 Cd5_2 1_555 1_555
O22_4 Cd2_6 1_555 1_555
O23_4 Cd2_6 1_555 1_555
C3_4 O5_4 1_555 1_555
C4_4 O6_4 1_555 1_555
C5_4 O7_4 1_555 1_555
C6_4 O10_4 1_555 1_555
C7_4 O11_4 1_555 1_555
C8_4 O12_4 1_555 1_555
Cd2_6 O6_4 1_555 1_555
O4_4 Cd6 1_555 1_555
Cd3_6 O7_4 1_555 1_555
O19_4 C3_4 1_555 1_555
O24 C4_4 1_555 1_555
O21_4 C5_4 1_555 1_555
C3_4 C6_4 1_555 1_555
C4_4 C7_4 1_555 1_555
C5_4 C8_4 1_555 1_555
Cd7_5 O15_5 1_555 1_555
O6_5 Cd1_7 1_555 1_555
O7_5 Cd1_7 1_555 1_555
O11_5 Cd1_7 1_555 1_555
O12_5 Cd1_7 1_555 1_555
O17_4 C7_5 1_555 1_555
O15_5 C8_5 1_555 1_555
O16_5 Cd2_7 1_555 1_555
O21_5 Cd7_5 1_555 1_555
O23_5 Cd2_7 1_555 1_555
C4_5 O6_5 1_555 1_555
C5_5 O7_5 1_555 1_555
C7_5 O11_5 1_555 1_555
C8_5 O12_5 1_555 1_555
Cd2_7 O6_5 1_555 1_555
Cd7 O7_5 1_555 1_555
O23_4 C4_5 1_555 1_555
O21_5 C5_5 1_555 1_555
C4_5 C7_5 1_555 1_555
C5_5 C8_5 1_555 1_555
Cd1_8 O1_5 1_555 1_555
Cd2_8 O1_5 1_555 1_555
O1_5 C1_5 1_555 1_555
O2_5 Cd1_8 1_555 1_555
O16_2 C2_5 1_555 1_555
O22_2 C1_5 1_555 1_555
C1_5 C2_5 1_555 1_555
C2_5 O2_5 1_555 1_555
Cd7_2 O5_5 1_555 1_555
Cd5_3 O13_5 1_555 1_555
O5_5 Cd1_8 1_555 1_555
O10_5 Cd1_8 1_555 1_555
O13_5 C6_5 1_555 1_555
O17_5 Cd2_8 1_555 1_555
O19_5 Cd5_3 1_555 1_555
O22_5 Cd2_8 1_555 1_555
C3_5 O5_5 1_555 1_555
C6_5 O10_5 1_555 1_555
O19_5 C3_5 1_555 1_555
C3_5 C6_5 1_555 1_555
O16_6 Cd2_9 1_555 1_555
O17_6 Cd2_9 1_555 1_555
O22_6 Cd2_9 1_555 1_555
O23_6 Cd2_9 1_555 1_555
Cd1_9 O1_6 1_555 1_555
O1_6 C1_6 1_555 1_555
O2_6 Cd1_9 1_555 1_555
O16_3 C2_6 1_555 1_555
C1_6 C2_6 1_555 1_555
C2_6 O2_6 1_555 1_555
Cd5_2 O5_6 1_555 1_555
Cd5_4 O13_6 1_555 1_555
Cd7_8 O15_6 1_555 1_555
O5_6 Cd1_9 1_555 1_555
O6_6 Cd1_9 1_555 1_555
O7_6 Cd1_9 1_555 1_555
O10_6 Cd1_9 1_555 1_555
O11_6 Cd1_9 1_555 1_555
O12_6 Cd1_9 1_555 1_555
O13_6 C6_6 1_555 1_555
O17 C7_6 1_555 1_555
O15_6 C8_6 1_555 1_555
O19_6 Cd5_4 1_555 1_555
O21_6 Cd7_8 1_555 1_555
C3_6 O5_6 1_555 1_555
C4_6 O6_6 1_555 1_555
C5_6 O7_6 1_555 1_555
C6_6 O10_6 1_555 1_555
C7_6 O11_6 1_555 1_555
C8_6 O12_6 1_555 1_555
Cd5_2 O7_6 1_555 1_555
O19_6 C3_6 1_555 1_555
O21_6 C5_6 1_555 1_555
C3_6 C6_6 1_555 1_555
C4_6 C7_6 1_555 1_555
C5_6 C8_6 1_555 1_555
Cd1_10 O1_7 1_555 1_555
O1_7 C1_7 1_555 1_555
O2_7 Cd1_10 1_555 1_555
O16 C2_7 1_555 1_555
C1_7 C2_7 1_555 1_555
C2_7 O2_7 1_555 1_555
Cd7_3 O5_7 1_555 1_555
Cd7_6 O13_7 1_555 1_555
O5_7 Cd1_10 1_555 1_555
O10_7 Cd1_10 1_555 1_555
O13_7 C6_7 1_555 1_555
O19_7 Cd7_6 1_555 1_555
C3_7 O5_7 1_555 1_555
C6_7 O10_7 1_555 1_555
O19_7 C3_7 1_555 1_555
C3_7 C6_7 1_555 1_555
Cd5_3 O15_7 1_555 1_555
O6_7 Cd1_11 1_555 1_555
O7_7 Cd1_11 1_555 1_555
O11_7 Cd1_11 1_555 1_555
O12_7 Cd1_11 1_555 1_555
O17_3 C7_7 1_555 1_555
O15_7 C8_7 1_555 1_555
O21_7 Cd5_3 1_555 1_555
C4_7 O6_7 1_555 1_555
C5_7 O7_7 1_555 1_555
C7_7 O11_7 1_555 1_555
C8_7 O12_7 1_555 1_555
Cd7_4 O7_7 1_555 1_555
O21_7 C5_7 1_555 1_555
C4_7 C7_7 1_555 1_555
C5_7 C8_7 1_555 1_555
O17_7 Cd2_10 1_555 1_555
O22_7 Cd2_10 1_555 1_555
O16_7 Cd2_11 1_555 1_555
O23_7 Cd2_11 1_555 1_555
Cd1_12 O1_8 1_555 1_555
Cd2_12 O1_8 1_555 1_555
O1_8 C1_8 1_555 1_555
O2_8 Cd1_12 1_555 1_555
O16_4 C2_8 1_555 1_555
O22_4 C1_8 1_555 1_555
C1_8 C2_8 1_555 1_555
C2_8 O2_8 1_555 1_555
Cd5 O5_8 1_555 1_555
Cd7_7 O13_8 1_555 1_555
Cd5_4 O15_8 1_555 1_555
O5_8 Cd1_12 1_555 1_555
O6_8 Cd1_12 1_555 1_555
O7_8 Cd1_12 1_555 1_555
O10_8 Cd1_12 1_555 1_555
O11_8 Cd1_12 1_555 1_555
O12_8 Cd1_12 1_555 1_555
O13_8 C6_8 1_555 1_555
O17_2 C7_8 1_555 1_555
O15_8 C8_8 1_555 1_555
O16_8 Cd2_12 1_555 1_555
O17_8 Cd2_12 1_555 1_555
O19_8 Cd7_7 1_555 1_555
O21_8 Cd5_4 1_555 1_555
O22_8 Cd2_12 1_555 1_555
O23_8 Cd2_12 1_555 1_555
C3_8 O5_8 1_555 1_555
C4_8 O6_8 1_555 1_555
C5_8 O7_8 1_555 1_555
C6_8 O10_8 1_555 1_555
C7_8 O11_8 1_555 1_555
C8_8 O12_8 1_555 1_555
Cd2_12 O6_8 1_555 1_555
Cd5 O7_8 1_555 1_555
O19_8 C3_8 1_555 1_555
O23_2 C4_8 1_555 1_555
O21_8 C5_8 1_555 1_555
C3_8 C6_8 1_555 1_555
C4_8 C7_8 1_555 1_555
C5_8 C8_8 1_555 1_555
Cd3 O15_9 1_555 1_555
O9_3 Cd1_13 1_555 1_555
O7_9 Cd1_13 1_555 1_555
O11_9 Cd1_13 1_555 1_555
O12_9 Cd1_13 1_555 1_555
O17_8 C7_9 1_555 1_555
O15_9 C8_9 1_555 1_555
O21_9 Cd3 1_555 1_555
C4_9 O9_3 1_555 1_555
C5_9 O7_9 1_555 1_555
C7_9 O11_9 1_555 1_555
C8_9 O12_9 1_555 1_555
Cd7_5 O7_9 1_555 1_555
O23_8 C4_9 1_555 1_555
O21_9 C5_9 1_555 1_555
C4_9 C7_9 1_555 1_555
C5_9 C8_9 1_555 1_555
Cd1_14 O8_3 1_555 1_555
O8_3 C1_9 1_555 1_555
O2_9 Cd1_14 1_555 1_555
O16_6 C2_9 1_555 1_555
O22_6 C1_9 1_555 1_555
C1_9 C2_9 1_555 1_555
C2_9 O2_9 1_555 1_555
Cd7_6 O5_9 1_555 1_555
Cd3_6 O13_9 1_555 1_555
O5_9 Cd1_14 1_555 1_555
O10_9 Cd1_14 1_555 1_555
O13_9 C6_9 1_555 1_555
O19_9 Cd3_6 1_555 1_555
C3_9 O5_9 1_555 1_555
C6_9 O10_9 1_555 1_555
O19_9 C3_9 1_555 1_555
C3_9 C6_9 1_555 1_555
Cd1_15 O8 1_555 1_555
O8 C1_10 1_555 1_555
O2_10 Cd1_15 1_555 1_555
O16_7 C2_10 1_555 1_555
C1_10 C2_10 1_555 1_555
C2_10 O2_10 1_555 1_555
Cd5_4 O5_10 1_555 1_555
Cd3_3 O13_10 1_555 1_555
Cd3_5 O15_10 1_555 1_555
O5_10 Cd1_15 1_555 1_555
O9 Cd1_15 1_555 1_555
O7_10 Cd1_15 1_555 1_555
O10_10 Cd1_15 1_555 1_555
O11_10 Cd1_15 1_555 1_555
O12_10 Cd1_15 1_555 1_555
O13_10 C6_10 1_555 1_555
O17_5 C7_10 1_555 1_555
O15_10 C8_10 1_555 1_555
O19_10 Cd3_3 1_555 1_555
O21_10 Cd3_5 1_555 1_555
C3_10 O5_10 1_555 1_555
C4_10 O9 1_555 1_555
C5_10 O7_10 1_555 1_555
C6_10 O10_10 1_555 1_555
C7_10 O11_10 1_555 1_555
C8_10 O12_10 1_555 1_555
Cd5_4 O7_10 1_555 1_555
O19_10 C3_10 1_555 1_555
O21_10 C5_10 1_555 1_555
C3_10 C6_10 1_555 1_555
C4_10 C7_10 1_555 1_555
C5_10 C8_10 1_555 1_555
Cd1_16 O8_2 1_555 1_555
O8_2 C1_11 1_555 1_555
O2_11 Cd1_16 1_555 1_555
O16_5 C2_11 1_555 1_555
C1_11 C2_11 1_555 1_555
C2_11 O2_11 1_555 1_555
Cd7_7 O5_11 1_555 1_555
Cd3_2 O13_11 1_555 1_555
O5_11 Cd1_16 1_555 1_555
O10_11 Cd1_16 1_555 1_555
O13_11 C6_11 1_555 1_555
O19_11 Cd3_2 1_555 1_555
C3_11 O5_11 1_555 1_555
C6_11 O10_11 1_555 1_555
O19_11 C3_11 1_555 1_555
C3_11 C6_11 1_555 1_555
Cd3_6 O15_11 1_555 1_555
O9_2 Cd1_17 1_555 1_555
O7_11 Cd1_17 1_555 1_555
O11_11 Cd1_17 1_555 1_555
O12_11 Cd1_17 1_555 1_555
O17_7 C7_11 1_555 1_555
O15_11 C8_11 1_555 1_555
O21_11 Cd3_6 1_555 1_555
C4_11 O9_2 1_555 1_555
C5_11 O7_11 1_555 1_555
C7_11 O11_11 1_555 1_555
C8_11 O12_11 1_555 1_555
Cd7_8 O7_11 1_555 1_555
O21_11 C5_11 1_555 1_555
C4_11 C7_11 1_555 1_555
C5_11 C8_11 1_555 1_555
Cd1_18 O8_4 1_555 1_555
O8_4 C1_12 1_555 1_555
O2_12 Cd1_18 1_555 1_555
O16_8 C2_12 1_555 1_555
O22_8 C1_12 1_555 1_555
C1_12 C2_12 1_555 1_555
C2_12 O2_12 1_555 1_555
Cd5_3 O5_12 1_555 1_555
Cd3_4 O13_12 1_555 1_555
Cd3_3 O15_12 1_555 1_555
O5_12 Cd1_18 1_555 1_555
O9_4 Cd1_18 1_555 1_555
O7_12 Cd1_18 1_555 1_555
O10_12 Cd1_18 1_555 1_555
O11_12 Cd1_18 1_555 1_555
O12_12 Cd1_18 1_555 1_555
O13_12 C6_12 1_555 1_555
O17_6 C7_12 1_555 1_555
O15_12 C8_12 1_555 1_555
O19_12 Cd3_4 1_555 1_555
O21_12 Cd3_3 1_555 1_555
C3_12 O5_12 1_555 1_555
C4_12 O9_4 1_555 1_555
C5_12 O7_12 1_555 1_555
C6_12 O10_12 1_555 1_555
C7_12 O11_12 1_555 1_555
C8_12 O12_12 1_555 1_555
Cd5_3 O7_12 1_555 1_555
O19_12 C3_12 1_555 1_555
O23_6 C4_12 1_555 1_555
O21_12 C5_12 1_555 1_555
C3_12 C6_12 1_555 1_555
C4_12 C7_12 1_555 1_555
C5_12 C8_12 1_555 1_555
C9 N1 1_555 1_555
N1 C10 1_555 1_555
C10 H1 1_555 1_555
C10 H2 1_555 1_555
C10 H3 1_555 1_555
C9 H4 1_555 1_555
C9 H5 1_555 1_555
C9 H6 1_555 1_555
N1 H7 1_555 1_555
N1 H8 1_555 1_555
C9_2 N1_2 1_555 1_555
C9_2 H4_2 1_555 1_555
C9_2 H5_2 1_555 1_555
C9_2 H6_2 1_555 1_555
N1_2 H8_2 1_555 1_555
N1_3 C10_2 1_555 1_555
C10_2 H1_2 1_555 1_555
C10_2 H2_2 1_555 1_555
C10_2 H3_2 1_555 1_555
N1_3 H7_2 1_555 1_555
N1_4 C10_3 1_555 1_555
C10_3 H1_3 1_555 1_555
C10_3 H2_3 1_555 1_555
C10_3 H3_3 1_555 1_555
N1_4 H7_3 1_555 1_555
C9_3 N1_5 1_555 1_555
C9_3 H4_3 1_555 1_555
C9_3 H5_3 1_555 1_555
C9_3 H6_3 1_555 1_555
N1_5 H8_3 1_555 1_555
C9_4 N1_6 1_555 1_555
N1_6 C10_4 1_555 1_555
C10_4 H1_4 1_555 1_555
C10_4 H2_4 1_555 1_555
C10_4 H3_4 1_555 1_555
C9_4 H4_4 1_555 1_555
C9_4 H5_4 1_555 1_555
C9_4 H6_4 1_555 1_555
N1_6 H7_4 1_555 1_555
N1_6 H8_4 1_555 1_555
C9_5 N1_7 1_555 1_555
N1_7 C10_5 1_555 1_555
C10_5 H1_5 1_555 1_555
C10_5 H2_5 1_555 1_555
C10_5 H3_5 1_555 1_555
C9_5 H4_5 1_555 1_555
C9_5 H5_5 1_555 1_555
C9_5 H6_5 1_555 1_555
N1_7 H7_5 1_555 1_555
N1_7 H8_5 1_555 1_555
C9_6 N1_8 1_555 1_555
C9_6 H4_6 1_555 1_555
C9_6 H5_6 1_555 1_555
C9_6 H6_6 1_555 1_555
N1_8 H8_6 1_555 1_555
N1_9 C10_6 1_555 1_555
C10_6 H1_6 1_555 1_555
C10_6 H2_6 1_555 1_555
C10_6 H3_6 1_555 1_555
N1_9 H7_6 1_555 1_555
N1_10 C10_7 1_555 1_555
C10_7 H1_7 1_555 1_555
C10_7 H2_7 1_555 1_555
C10_7 H3_7 1_555 1_555
N1_10 H7_7 1_555 1_555
C9_7 N1_11 1_555 1_555
C9_7 H4_7 1_555 1_555
C9_7 H5_7 1_555 1_555
C9_7 H6_7 1_555 1_555
N1_11 H8_7 1_555 1_555
C9_8 N1_12 1_555 1_555
N1_12 C10_8 1_555 1_555
C10_8 H1_8 1_555 1_555
C10_8 H2_8 1_555 1_555
C10_8 H3_8 1_555 1_555
C9_8 H4_8 1_555 1_555
C9_8 H5_8 1_555 1_555
C9_8 H6_8 1_555 1_555
N1_12 H7_8 1_555 1_555
N1_12 H8_8 1_555 1_555
C9_9 N1_13 1_555 1_555
N1_13 C10_9 1_555 1_555
C10_9 H1_9 1_555 1_555
C10_9 H2_9 1_555 1_555
C10_9 H3_9 1_555 1_555
C9_9 H4_9 1_555 1_555
C9_9 H5_9 1_555 1_555
C9_9 H6_9 1_555 1_555
N1_13 H7_9 1_555 1_555
N1_13 H8_9 1_555 1_555
C9_10 N1_14 1_555 1_555
C9_10 H4_10 1_555 1_555
C9_10 H5_10 1_555 1_555
C9_10 H6_10 1_555 1_555
N1_14 H8_10 1_555 1_555
N1_15 C10_10 1_555 1_555
C10_10 H1_10 1_555 1_555
C10_10 H2_10 1_555 1_555
C10_10 H3_10 1_555 1_555
N1_15 H7_10 1_555 1_555
N1_16 C10_11 1_555 1_555
C10_11 H1_11 1_555 1_555
C10_11 H2_11 1_555 1_555
C10_11 H3_11 1_555 1_555
N1_16 H7_11 1_555 1_555
C9_11 N1_17 1_555 1_555
C9_11 H4_11 1_555 1_555
C9_11 H5_11 1_555 1_555
C9_11 H6_11 1_555 1_555
N1_17 H8_11 1_555 1_555
C9_12 N1_18 1_555 1_555
N1_18 C10_12 1_555 1_555
C10_12 H1_12 1_555 1_555
C10_12 H2_12 1_555 1_555
C10_12 H3_12 1_555 1_555
C9_12 H4_12 1_555 1_555
C9_12 H5_12 1_555 1_555
C9_12 H6_12 1_555 1_555
N1_18 H7_12 1_555 1_555
N1_18 H8_12 1_555 1_555
N1_19 C10_13 1_555 1_555
C10_13 H1_13 1_555 1_555
C10_13 H2_13 1_555 1_555
N1_19 H8_13 1_555 1_555
C9_13 N1_20 1_555 1_555
C9_13 H4_13 1_555 1_555
C9_13 H5_13 1_555 1_555
N1_20 H7_13 1_555 1_555
C9_14 N1_21 1_555 1_555
C9_14 H4_14 1_555 1_555
C9_14 H5_14 1_555 1_555
N1_21 H7_14 1_555 1_555
N1_22 C10_14 1_555 1_555
C10_14 H1_14 1_555 1_555
C10_14 H2_14 1_555 1_555
N1_22 H8_14 1_555 1_555
C9_15 N1_23 1_555 1_555
N1_23 C10_15 1_555 1_555
C10_15 H1_15 1_555 1_555
C10_15 H2_15 1_555 1_555
C10_15 H3_15 1_555 1_555
C9_15 H4_15 1_555 1_555
C9_15 H5_15 1_555 1_555
C9_15 H6_15 1_555 1_555
N1_23 H7_15 1_555 1_555
N1_23 H8_15 1_555 1_555
C9_16 N1_24 1_555 1_555
N1_24 C10_16 1_555 1_555
C10_16 H1_16 1_555 1_555
C10_16 H2_16 1_555 1_555
C10_16 H3_16 1_555 1_555
C9_16 H4_16 1_555 1_555
C9_16 H5_16 1_555 1_555
C9_16 H6_16 1_555 1_555
N1_24 H7_16 1_555 1_555
N1_24 H8_16 1_555 1_555
N1_25 C10_17 1_555 1_555
C10_17 H1_17 1_555 1_555
C10_17 H2_17 1_555 1_555
N1_25 H8_17 1_555 1_555
C9_17 N1_26 1_555 1_555
C9_17 H4_17 1_555 1_555
C9_17 H5_17 1_555 1_555
N1_26 H7_17 1_555 1_555
C9_18 N1_27 1_555 1_555
C9_18 H4_18 1_555 1_555
C9_18 H5_18 1_555 1_555
N1_27 H7_18 1_555 1_555
N1_28 C10_18 1_555 1_555
C10_18 H1_18 1_555 1_555
C10_18 H2_18 1_555 1_555
N1_28 H8_18 1_555 1_555
C9_19 N1_29 1_555 1_555
N1_29 C10_19 1_555 1_555
C10_19 H1_19 1_555 1_555
C10_19 H2_19 1_555 1_555
C10_19 H3_19 1_555 1_555
C9_19 H4_19 1_555 1_555
C9_19 H5_19 1_555 1_555
C9_19 H6_19 1_555 1_555
N1_29 H7_19 1_555 1_555
N1_29 H8_19 1_555 1_555
C9_20 N1_30 1_555 1_555
N1_30 C10_20 1_555 1_555
C10_20 H1_20 1_555 1_555
C10_20 H2_20 1_555 1_555
C10_20 H3_20 1_555 1_555
C9_20 H4_20 1_555 1_555
C9_20 H5_20 1_555 1_555
C9_20 H6_20 1_555 1_555
N1_30 H7_20 1_555 1_555
N1_30 H8_20 1_555 1_555
N1_31 C10_21 1_555 1_555
C10_21 H1_21 1_555 1_555
C10_21 H2_21 1_555 1_555
N1_31 H8_21 1_555 1_555
C9_21 N1_32 1_555 1_555
C9_21 H4_21 1_555 1_555
C9_21 H5_21 1_555 1_555
N1_32 H7_21 1_555 1_555
C9_22 N1_33 1_555 1_555
C9_22 H4_22 1_555 1_555
C9_22 H5_22 1_555 1_555
N1_33 H7_22 1_555 1_555
N1_34 C10_22 1_555 1_555
C10_22 H1_22 1_555 1_555
C10_22 H2_22 1_555 1_555
N1_34 H8_22 1_555 1_555
C9_23 N1_35 1_555 1_555
N1_35 C10_23 1_555 1_555
C10_23 H1_23 1_555 1_555
C10_23 H2_23 1_555 1_555
C10_23 H3_23 1_555 1_555
C9_23 H4_23 1_555 1_555
C9_23 H5_23 1_555 1_555
C9_23 H6_23 1_555 1_555
N1_35 H7_23 1_555 1_555
N1_35 H8_23 1_555 1_555
C9_24 N1_36 1_555 1_555
N1_36 C10_24 1_555 1_555
C10_24 H1_24 1_555 1_555
C10_24 H2_24 1_555 1_555
C10_24 H3_24 1_555 1_555
C9_24 H4_24 1_555 1_555
C9_24 H5_24 1_555 1_555
C9_24 H6_24 1_555 1_555
N1_36 H7_24 1_555 1_555
N1_36 H8_24 1_555 1_555

#END
