
###############################################################################
#
# This file contains modified crystal structure data generated from the
# MOF subset of the Cambridge Structural Database (CSD) v543 
# hosted by the Cambridge Crystallographic Data Centre (CCDC).
#
# This work is licensed under the Creative Commons
# Attribution-NonCommercial-ShareAlike 4.0 International License.
# To view a copy of this license, visit
# http://creativecommons.org/licenses/by-nc-sa/4.0/
# or send a letter to
# Creative Commons, PO Box 1866, Mountain View, CA 94042, USA.
#
# CIF created using the CSD Python API on 29 September 2022
# The structure has been converted into the P1 space group
# The structure has a 3D framework
# The original CSD entry PIGXUZ is in the monoclinic crystal system
# The framework has been calculated to contain at least 10.0% void space
# The void calculation uses a probe of radius 1.32A, grid spacing 0.4
#
###############################################################################

data_PIGXUZ
_chemical_formula_moiety         '(C272 H184 Co12 N40 O80)n'
_symmetry_cell_setting           triclinic
_symmetry_space_group_name_H-M   'P 1'
_symmetry_Int_Tables_number      1
_space_group_name_Hall           'P 1'
loop_
_symmetry_equiv_pos_site_id
_symmetry_equiv_pos_as_xyz
1 x,y,z
_cell_length_a                   28.080(6)
_cell_length_b                   13.840(3)
_cell_length_c                   21.812(4)
_cell_angle_alpha                90
_cell_angle_beta                 120.14(3)
_cell_angle_gamma                90
_cell_volume                     7330.69
loop_
_atom_site_label
_atom_site_type_symbol
_atom_site_fract_x
_atom_site_fract_y
_atom_site_fract_z
Co2 Co 0.148960(19) 0.62058(3) 0.44336(2)
C1 C 0.17284(19) 0.4336(2) 0.5198(2)
H1 H 0.1863 0.4729 0.5597
C2 C 0.17955(19) 0.3355(2) 0.5293(2)
H2 H 0.1975 0.3095 0.5748
C3 C 0.15932(15) 0.2749(2) 0.47038(18)
C4 C 0.13054(15) 0.3184(2) 0.40402(19)
H3 H 0.1142 0.2805 0.3633
C5 C 0.12622(14) 0.4176(2) 0.39870(18)
H4 H 0.1076 0.4453 0.3538
C6 C 0.16954(15) 0.1692(2) 0.47691(19)
C7 C 0.13516(15) 0.1059(2) 0.4221(2)
H5 H 0.1043 0.1292 0.3817
C8 C 0.14762(15) 0.0089(2) 0.4290(2)
C9 C 0.22394(16) 0.0307(2) 0.5388(2)
H7 H 0.2541 0.0050 0.5789
C10 C 0.21446(16) 0.1290(2) 0.5363(2)
H8 H 0.2380 0.1681 0.5741
H10 H 0.2294 0.0069 0.7832
N1 N 0.14773(12) 0.47558(18) 0.45547(15)
N7 N 0.35227(12) 0.02442(18) 0.54453(15)
O12 O 0.22223(9) 0.67065(14) 0.50687(12)
O17 O 0.13836(11) 0.64341(16) 0.34844(13)
O24 O 0.09495(11) 0.66496(16) 0.46929(15)
Co1 Co 0.204881(18) 0.82014(3) 0.49495(2)
H6 H 0.1244 0.9678 0.3923
C11 C 0.22080(16) 0.7689(2) 0.63679(19)
C12 C 0.21247(15) 0.8072(2) 0.69556(19)
C13 C 0.22542(17) 0.9031(3) 0.7157(2)
H9 H 0.2383 0.9417 0.6922
C14 C 0.2197(2) 0.9428(3) 0.7698(2)
C15 C 0.1995(2) 0.8862(3) 0.8038(2)
H11 H 0.1951 0.9125 0.8398
C16 C 0.1860(2) 0.7915(3) 0.7849(2)
H12 H 0.1726 0.7543 0.8084
C17 C 0.19203(17) 0.7499(2) 0.7308(2)
C18 C 0.16343(18) 0.5838(3) 0.7400(2)
C19 C 0.14652(18) 0.4904(3) 0.6966(2)
C20 C 0.13250(17) 0.3179(3) 0.7131(2)
C21 C 0.1194(2) 0.2887(3) 0.6456(2)
H13 H 0.1130 0.3348 0.6113
C22 C 0.1159(3) 0.1917(3) 0.6289(3)
H14 H 0.1076 0.1729 0.5836
C23 C 0.1248(3) 0.1219(3) 0.6798(3)
H15 H 0.1238 0.0565 0.6693
C24 C 0.1351(2) 0.1512(3) 0.7454(2)
H16 H 0.1398 0.1046 0.7787
C25 C 0.13873(15) 0.2480(2) 0.76387(19)
C26 C 0.14779(14) 0.2703(2) 0.83613(18)
C27 C 0.09681(14) 0.7522(2) 0.4897(2)
C28 C 0.06065(16) 0.7802(3) 0.5187(2)
C29 C 0.0635(2) 0.8765(3) 0.5401(3)
H17 H 0.0866 0.9194 0.5345
C30 C 0.0325(3) 0.9088(4) 0.5694(4)
H18 H 0.0352 0.9726 0.5842
N2 N 0.19123(12) 0.97066(18) 0.48546(15)
N3 N 0.17563(16) 0.6542(2) 0.70836(18)
H21 H 0.1731 0.6389 0.6686
N4 N 0.14027(15) 0.4161(2) 0.73174(16)
H22 H 0.1411 0.4307 0.7706
N5 N 0.02290(15) 0.6205(2) 0.5071(2)
H23 H 0.0416 0.6065 0.4870
O1 O 0.27777(9) 0.82935(14) 0.49313(12)
O2 O 0.23482(11) 0.83015(16) 0.60527(13)
O3 O 0.21337(15) 0.68076(17) 0.62179(16)
O4 O 0.13836(11) 0.35659(16) 0.84844(13)
O5 O 0.16269(11) 0.20336(16) 0.88088(13)
O6 O 0.14003(17) 0.4888(2) 0.63698(16)
O7 O 0.16682(18) 0.5873(2) 0.79798(18)
O9 O 0.12700(11) 0.81516(16) 0.48648(17)
C33 C 0.02556(17) 0.7168(3) 0.5278(2)
Co3 Co 0.295119(18) 0.67986(3) 0.50505(2)
Co4 Co 0.204881(18) 0.17986(3) 0.99495(2)
Co7 Co 0.351040(19) 0.87942(3) 0.55664(2)
Co8 Co 0.148960(19) 0.37942(3) 0.94336(2)
C35 C 0.32716(19) 0.0664(2) 0.4802(2)
H24 H 0.3137 0.0271 0.4403
C36 C 0.32045(19) 0.1645(2) 0.4707(2)
H25 H 0.3025 0.1905 0.4252
C37 C 0.34068(15) 0.2251(2) 0.52962(18)
C38 C 0.36946(15) 0.1816(2) 0.59598(19)
H26 H 0.3858 0.2195 0.6367
C39 C 0.37378(14) 0.0824(2) 0.60130(18)
H27 H 0.3924 0.0547 0.6462
C40 C 0.33046(15) 0.3308(2) 0.52309(19)
C41 C 0.36484(15) 0.3941(2) 0.5779(2)
H28 H 0.3957 0.3708 0.6183
C42 C 0.35238(15) 0.4911(2) 0.5710(2)
H29 H 0.3756 0.5322 0.6077
C43 C 0.27606(16) 0.4693(2) 0.4612(2)
H30 H 0.2459 0.4950 0.4211
C44 C 0.28554(16) 0.3710(2) 0.4637(2)
H31 H 0.2620 0.3319 0.4259
C45 C 0.22080(16) 0.2311(2) 0.13679(19)
C46 C 0.21247(15) 0.1928(2) 0.19556(19)
C47 C 0.22542(17) 0.0969(3) 0.2157(2)
H32 H 0.2383 0.0583 0.1922
C48 C 0.2197(2) 0.0572(3) 0.2698(2)
C49 C 0.1995(2) 0.1138(3) 0.3038(2)
H34 H 0.1951 0.0875 0.3398
C50 C 0.1860(2) 0.2085(3) 0.2849(2)
H35 H 0.1726 0.2457 0.3084
C51 C 0.19203(17) 0.2501(2) 0.2308(2)
C52 C 0.16343(18) 0.4162(3) 0.2400(2)
C53 C 0.14652(18) 0.5096(3) 0.1966(2)
C54 C 0.13250(17) 0.6821(3) 0.2131(2)
C55 C 0.1194(2) 0.7113(3) 0.1456(2)
H36 H 0.1130 0.6652 0.1113
C56 C 0.1159(3) 0.8083(3) 0.1289(3)
H37 H 0.1076 0.8271 0.0836
C57 C 0.1248(3) 0.8781(3) 0.1798(3)
H38 H 0.1238 0.9435 0.1693
C58 C 0.1351(2) 0.8488(3) 0.2454(2)
H39 H 0.1398 0.8954 0.2787
C59 C 0.13873(15) 0.7520(2) 0.26387(19)
C60 C 0.14779(14) 0.7297(2) 0.33613(18)
C65 C 0.0021(3) 0.1543(4) 0.4236(4)
H42 H 0.0237 0.1323 0.4052
C66 C 0.0055(2) 0.2487(4) 0.4432(3)
H43 H 0.0287 0.2905 0.4372
N8 N 0.30877(12) 0.52934(18) 0.51454(15)
N9 N 0.17563(16) 0.3458(2) 0.20836(18)
H44 H 0.1731 0.3611 0.1686
N10 N 0.14027(15) 0.5839(2) 0.23174(16)
H45 H 0.1411 0.5693 0.2706
O13 O 0.23482(11) 0.16985(16) 0.10527(13)
O14 O 0.26518(11) 0.66985(16) 0.39473(13)
O15 O 0.21337(15) 0.31924(17) 0.12179(16)
O18 O 0.36164(11) 0.85659(16) 0.65156(13)
O19 O 0.16269(11) 0.79664(16) 0.38088(13)
O20 O 0.33731(11) 0.70336(16) 0.61912(13)
O21 O 0.14003(17) 0.5112(2) 0.13698(16)
O22 O 0.16682(18) 0.4127(2) 0.29798(18)
O25 O 0.40505(11) 0.83504(16) 0.53071(15)
O27 O 0.37300(11) 0.68484(16) 0.51352(17)
O28 O 0.03503(15) 0.4504(2) 0.4603(2)
C68 C 0.00499(17) 0.4532(3) 0.4855(2)
H33 H 0.2294 0.9931 0.2832
C31 C 0.9979(3) 0.8457(4) 0.5764(4)
H19 H 0.9763 0.8677 0.5948
C32 C 0.9945(2) 0.7513(4) 0.5568(3)
H20 H 0.9713 0.7095 0.5628
O10 O 0.96497(15) 0.5496(2) 0.5397(2)
C34 C 0.99501(17) 0.5468(3) 0.5145(2)
Co5 Co 0.795119(18) 0.17986(3) 0.50505(2)
Co10 Co 0.851040(19) 0.37942(3) 0.55664(2)
C61 C 0.90319(14) 0.2478(2) 0.5103(2)
C62 C 0.93935(16) 0.2198(3) 0.4813(2)
C63 C 0.9365(2) 0.1235(3) 0.4599(3)
H40 H 0.9134 0.0806 0.4655
C64 C 0.9675(3) 0.0912(4) 0.4306(4)
H41 H 0.9648 0.0274 0.4158
N11 N 0.97710(15) 0.3795(2) 0.4929(2)
H46 H 0.9584 0.3935 0.5130
O23 O 0.90505(11) 0.33504(16) 0.53071(15)
O26 O 0.87300(11) 0.18484(16) 0.51352(17)
C67 C 0.97444(17) 0.2832(3) 0.4722(2)
Co2_2 Co 0.648960(19) 0.12058(3) 0.44336(2)
O12_2 O 0.72223(9) 0.17065(14) 0.50687(12)
O17_2 O 0.63836(11) 0.14341(16) 0.34844(13)
O24_2 O 0.59495(11) 0.16496(16) 0.46929(15)
Co1_2 Co 0.704881(18) 0.32014(3) 0.49495(2)
C1_2 C 0.67284(19) 0.9336(2) 0.5198(2)
H1_2 H 0.6863 0.9729 0.5597
C2_2 C 0.67955(19) 0.8355(2) 0.5293(2)
H2_2 H 0.6975 0.8095 0.5748
C3_2 C 0.65932(15) 0.7749(2) 0.47038(18)
C4_2 C 0.63054(15) 0.8184(2) 0.40402(19)
H3_2 H 0.6142 0.7805 0.3633
C5_2 C 0.62622(14) 0.9176(2) 0.39870(18)
H4_2 H 0.6076 0.9453 0.3538
C6_2 C 0.66954(15) 0.6692(2) 0.47691(19)
C7_2 C 0.63516(15) 0.6059(2) 0.4221(2)
H5_2 H 0.6043 0.6292 0.3817
C8_2 C 0.64762(15) 0.5089(2) 0.4290(2)
H6_2 H 0.6244 0.4678 0.3923
C9_2 C 0.72394(16) 0.5307(2) 0.5388(2)
H7_2 H 0.7541 0.5050 0.5789
C10_2 C 0.71446(16) 0.6290(2) 0.5363(2)
H8_2 H 0.7380 0.6681 0.5741
C11_2 C 0.72080(16) 0.2689(2) 0.63679(19)
C12_2 C 0.71247(15) 0.3072(2) 0.69556(19)
C13_2 C 0.72542(17) 0.4031(3) 0.7157(2)
H9_2 H 0.7383 0.4417 0.6922
C14_2 C 0.7197(2) 0.4428(3) 0.7698(2)
H10_2 H 0.7294 0.5069 0.7832
C15_2 C 0.6995(2) 0.3862(3) 0.8038(2)
H11_2 H 0.6951 0.4125 0.8398
C16_2 C 0.6860(2) 0.2915(3) 0.7849(2)
H12_2 H 0.6726 0.2543 0.8084
C17_2 C 0.69203(17) 0.2499(2) 0.7308(2)
C18_2 C 0.66343(18) 0.0838(3) 0.7400(2)
C27_2 C 0.59681(14) 0.2522(2) 0.4897(2)
C28_2 C 0.56065(16) 0.2802(3) 0.5187(2)
C29_2 C 0.5635(2) 0.3765(3) 0.5401(3)
H17_2 H 0.5866 0.4194 0.5345
C30_2 C 0.5325(3) 0.4088(4) 0.5694(4)
H18_2 H 0.5352 0.4726 0.5842
C31_2 C 0.4979(3) 0.3457(4) 0.5764(4)
H19_2 H 0.4763 0.3677 0.5948
C32_2 C 0.4945(2) 0.2513(4) 0.5568(3)
H20_2 H 0.4713 0.2095 0.5628
N1_2 N 0.64773(12) 0.97558(18) 0.45547(15)
N2_2 N 0.69123(12) 0.47066(18) 0.48546(15)
N3_2 N 0.67563(16) 0.1542(2) 0.70836(18)
H21_2 H 0.6731 0.1389 0.6686
N5_2 N 0.52290(15) 0.1205(2) 0.5071(2)
H23_2 H 0.5416 0.1065 0.4870
O1_2 O 0.77777(9) 0.32935(14) 0.49313(12)
O2_2 O 0.73482(11) 0.33015(16) 0.60527(13)
O3_2 O 0.71337(15) 0.18076(17) 0.62179(16)
O7_2 O 0.66682(18) 0.0873(2) 0.79798(18)
O9_2 O 0.62700(11) 0.31516(16) 0.48648(17)
O10_2 O 0.46497(15) 0.0496(2) 0.5397(2)
C33_2 C 0.52556(17) 0.2168(3) 0.5278(2)
C34_2 C 0.49501(17) 0.0468(3) 0.5145(2)
H29_2 H 0.8756 0.0322 0.6077
C53_2 C 0.64652(18) 0.0096(3) 0.1966(2)
C54_2 C 0.63250(17) 0.1821(3) 0.2131(2)
C55_2 C 0.6194(2) 0.2113(3) 0.1456(2)
H36_2 H 0.6130 0.1652 0.1113
C56_2 C 0.6159(3) 0.3083(3) 0.1289(3)
H37_2 H 0.6076 0.3271 0.0836
C57_2 C 0.6248(3) 0.3781(3) 0.1798(3)
H38_2 H 0.6238 0.4435 0.1693
C58_2 C 0.6351(2) 0.3488(3) 0.2454(2)
H39_2 H 0.6398 0.3954 0.2787
C59_2 C 0.63873(15) 0.2520(2) 0.26387(19)
C60_2 C 0.64779(14) 0.2297(2) 0.33613(18)
N7_2 N 0.85227(12) 0.52442(18) 0.54453(15)
N8_2 N 0.80877(12) 0.02934(18) 0.51454(15)
N10_2 N 0.64027(15) 0.0839(2) 0.23174(16)
H45_2 H 0.6411 0.0693 0.2706
O14_2 O 0.76518(11) 0.16985(16) 0.39473(13)
O18_2 O 0.86164(11) 0.35659(16) 0.65156(13)
O19_2 O 0.66269(11) 0.29664(16) 0.38088(13)
O20_2 O 0.83731(11) 0.20336(16) 0.61912(13)
O21_2 O 0.64003(17) 0.0112(2) 0.13698(16)
C19_2 C 0.64652(18) 0.9904(3) 0.6966(2)
C20_2 C 0.63250(17) 0.8179(3) 0.7131(2)
C21_2 C 0.6194(2) 0.7887(3) 0.6456(2)
H13_2 H 0.6130 0.8348 0.6113
C22_2 C 0.6159(3) 0.6917(3) 0.6289(3)
H14_2 H 0.6076 0.6729 0.5836
C23_2 C 0.6248(3) 0.6219(3) 0.6798(3)
H15_2 H 0.6238 0.5565 0.6693
C24_2 C 0.6351(2) 0.6512(3) 0.7454(2)
H16_2 H 0.6398 0.6046 0.7787
C25_2 C 0.63873(15) 0.7480(2) 0.76387(19)
C26_2 C 0.64779(14) 0.7703(2) 0.83613(18)
N4_2 N 0.64027(15) 0.9161(2) 0.73174(16)
H22_2 H 0.6411 0.9307 0.7706
O4_2 O 0.63836(11) 0.85659(16) 0.84844(13)
O5_2 O 0.66269(11) 0.70336(16) 0.88088(13)
O6_2 O 0.64003(17) 0.9888(2) 0.63698(16)
Co4_2 Co 0.704881(18) 0.67986(3) 0.99495(2)
Co8_2 Co 0.648960(19) 0.87942(3) 0.94336(2)
C35_2 C 0.82716(19) 0.5664(2) 0.4802(2)
H24_2 H 0.8137 0.5271 0.4403
C36_2 C 0.82045(19) 0.6645(2) 0.4707(2)
H25_2 H 0.8025 0.6905 0.4252
C37_2 C 0.84068(15) 0.7251(2) 0.52962(18)
C38_2 C 0.86946(15) 0.6816(2) 0.59598(19)
H26_2 H 0.8858 0.7195 0.6367
C39_2 C 0.87378(14) 0.5824(2) 0.60130(18)
H27_2 H 0.8924 0.5547 0.6462
C40_2 C 0.83046(15) 0.8308(2) 0.52309(19)
C41_2 C 0.86484(15) 0.8941(2) 0.5779(2)
H28_2 H 0.8957 0.8708 0.6183
C42_2 C 0.85238(15) 0.9911(2) 0.5710(2)
C43_2 C 0.77606(16) 0.9693(2) 0.4612(2)
H30_2 H 0.7459 0.9950 0.4211
C44_2 C 0.78554(16) 0.8710(2) 0.4637(2)
H31_2 H 0.7620 0.8319 0.4259
C45_2 C 0.72080(16) 0.7311(2) 0.13679(19)
C46_2 C 0.71247(15) 0.6928(2) 0.19556(19)
C47_2 C 0.72542(17) 0.5969(3) 0.2157(2)
H32_2 H 0.7383 0.5583 0.1922
C48_2 C 0.7197(2) 0.5572(3) 0.2698(2)
H33_2 H 0.7294 0.4931 0.2832
C49_2 C 0.6995(2) 0.6138(3) 0.3038(2)
H34_2 H 0.6951 0.5875 0.3398
C50_2 C 0.6860(2) 0.7085(3) 0.2849(2)
H35_2 H 0.6726 0.7457 0.3084
C51_2 C 0.69203(17) 0.7501(2) 0.2308(2)
C52_2 C 0.66343(18) 0.9162(3) 0.2400(2)
C61_2 C 0.40319(14) 0.7478(2) 0.5103(2)
C62_2 C 0.43935(16) 0.7198(3) 0.4813(2)
C63_2 C 0.4365(2) 0.6235(3) 0.4599(3)
H40_2 H 0.4134 0.5806 0.4655
C64_2 C 0.4675(3) 0.5912(4) 0.4306(4)
H41_2 H 0.4648 0.5274 0.4158
C65_2 C 0.5021(3) 0.6543(4) 0.4236(4)
H42_2 H 0.5237 0.6323 0.4052
C66_2 C 0.5055(2) 0.7487(4) 0.4432(3)
H43_2 H 0.5287 0.7905 0.4372
N9_2 N 0.67563(16) 0.8458(2) 0.20836(18)
H44_2 H 0.6731 0.8611 0.1686
N11_2 N 0.47710(15) 0.8795(2) 0.4929(2)
H46_2 H 0.4584 0.8935 0.5130
O13_2 O 0.73482(11) 0.66985(16) 0.10527(13)
O15_2 O 0.71337(15) 0.81924(17) 0.12179(16)
O22_2 O 0.66682(18) 0.9127(2) 0.29798(18)
O28_2 O 0.53503(15) 0.9504(2) 0.4603(2)
C67_2 C 0.47444(17) 0.7832(3) 0.4722(2)
C68_2 C 0.50499(17) 0.9532(3) 0.4855(2)
C62_3 C 0.06065(16) 0.2198(3) 0.0187(2)
C63_3 C 0.0635(2) 0.1235(3) 0.0401(3)
H40_3 H 0.0866 0.0806 0.0345
C64_3 C 0.0325(3) 0.0912(4) 0.0694(4)
H41_3 H 0.0352 0.0274 0.0842
N11_3 N 0.02290(15) 0.3795(2) 0.0071(2)
C67_3 C 0.02556(17) 0.2832(3) 0.0278(2)
C31_3 C 0.0021(3) 0.8457(4) 0.9236(4)
H19_3 H 0.0237 0.8677 0.9052
C32_3 C 0.0055(2) 0.7513(4) 0.9432(3)
H20_3 H 0.0287 0.7095 0.9372
O10_3 O 0.03503(15) 0.5496(2) 0.9603(2)
C34_3 C 0.00499(17) 0.5468(3) 0.9855(2)
C61_3 C 0.09681(14) 0.2478(2) 0.9897(2)
H46_3 H 0.0416 0.3935 0.9870
O23_2 O 0.09495(11) 0.33504(16) 0.96929(15)
O26_2 O 0.12700(11) 0.18484(16) 0.98648(17)
Co2_3 Co 0.851040(19) 0.62058(3) 0.05664(2)
C3_3 C 0.84068(15) 0.2749(2) 0.02962(18)
C4_3 C 0.86946(15) 0.3184(2) 0.09598(19)
H3_3 H 0.8858 0.2805 0.1367
C5_3 C 0.87378(14) 0.4176(2) 0.10130(18)
H4_3 H 0.8924 0.4453 0.1462
C6_3 C 0.83046(15) 0.1692(2) 0.02309(19)
C7_3 C 0.86484(15) 0.1059(2) 0.0779(2)
H5_3 H 0.8957 0.1292 0.1183
C8_3 C 0.85238(15) 0.0089(2) 0.0710(2)
N1_3 N 0.85227(12) 0.47558(18) 0.04453(15)
O17_3 O 0.86164(11) 0.64341(16) 0.15156(13)
O24_3 O 0.90505(11) 0.66496(16) 0.03071(15)
C1_3 C 0.82716(19) 0.4336(2) 0.9802(2)
H1_3 H 0.8137 0.4729 0.9403
C2_3 C 0.82045(19) 0.3355(2) 0.9707(2)
H2_3 H 0.8025 0.3095 0.9252
C9_3 C 0.77606(16) 0.0307(2) 0.9612(2)
H7_3 H 0.7459 0.0050 0.9211
C10_3 C 0.78554(16) 0.1290(2) 0.9637(2)
H8_3 H 0.7620 0.1681 0.9259
H10_3 H 0.7706 0.0069 0.7168
N7_3 N 0.64773(12) 0.02442(18) 0.95547(15)
O12_3 O 0.77777(9) 0.67065(14) 0.99313(12)
Co1_3 Co 0.795119(18) 0.82014(3) 0.00505(2)
H6_3 H 0.8756 0.9678 0.1077
C27_3 C 0.90319(14) 0.7522(2) 0.0103(2)
N2_3 N 0.80877(12) 0.97066(18) 0.01454(15)
H23_3 H 0.9584 0.6065 0.0130
O1_3 O 0.72223(9) 0.82935(14) 0.00687(12)
O9_3 O 0.87300(11) 0.81516(16) 0.01352(17)
C35_3 C 0.67284(19) 0.0664(2) 0.0198(2)
H24_3 H 0.6863 0.0271 0.0597
C36_3 C 0.67955(19) 0.1645(2) 0.0293(2)
H25_3 H 0.6975 0.1905 0.0748
C43_3 C 0.72394(16) 0.4693(2) 0.0388(2)
H30_3 H 0.7541 0.4950 0.0789
C44_3 C 0.71446(16) 0.3710(2) 0.0363(2)
H31_3 H 0.7380 0.3319 0.0741
C45_3 C 0.77920(16) 0.2311(2) 0.36321(19)
C46_3 C 0.78753(15) 0.1928(2) 0.30444(19)
C47_3 C 0.77458(17) 0.0969(3) 0.2843(2)
H32_3 H 0.7617 0.0583 0.3078
C48_3 C 0.7803(2) 0.0572(3) 0.2302(2)
C49_3 C 0.8005(2) 0.1138(3) 0.1962(2)
H34_3 H 0.8049 0.0875 0.1602
C50_3 C 0.8140(2) 0.2085(3) 0.2151(2)
H35_3 H 0.8274 0.2457 0.1916
C51_3 C 0.80797(17) 0.2501(2) 0.2692(2)
C52_3 C 0.83657(18) 0.4162(3) 0.2600(2)
C53_3 C 0.85348(18) 0.5096(3) 0.3034(2)
C54_3 C 0.86750(17) 0.6821(3) 0.2869(2)
C55_3 C 0.8806(2) 0.7113(3) 0.3544(2)
H36_3 H 0.8870 0.6652 0.3887
C56_3 C 0.8841(3) 0.8083(3) 0.3711(3)
H37_3 H 0.8924 0.8271 0.4164
C57_3 C 0.8752(3) 0.8781(3) 0.3202(3)
H38_3 H 0.8762 0.9435 0.3307
C58_3 C 0.8649(2) 0.8488(3) 0.2546(2)
H39_3 H 0.8602 0.8954 0.2213
C59_3 C 0.86127(15) 0.7520(2) 0.23613(19)
C60_3 C 0.85221(14) 0.7297(2) 0.16387(18)
C65_3 C 0.9979(3) 0.1543(4) 0.0764(4)
H42_3 H 0.9763 0.1323 0.0948
C66_3 C 0.9945(2) 0.2487(4) 0.0568(3)
H43_3 H 0.9713 0.2905 0.0628
N9_3 N 0.82437(16) 0.3458(2) 0.29164(18)
H44_3 H 0.8269 0.3611 0.3314
N10_3 N 0.85973(15) 0.5839(2) 0.26826(16)
H45_3 H 0.8589 0.5693 0.2294
O15_3 O 0.78663(15) 0.31924(17) 0.37821(16)
O19_3 O 0.83731(11) 0.79664(16) 0.11912(13)
O21_3 O 0.85997(17) 0.5112(2) 0.36302(16)
O22_3 O 0.83318(18) 0.4127(2) 0.20202(18)
O28_3 O 0.96497(15) 0.4504(2) 0.0397(2)
C68_3 C 0.99501(17) 0.4532(3) 0.0145(2)
C11_3 C 0.77920(16) 0.7689(2) 0.86321(19)
C12_3 C 0.78753(15) 0.8072(2) 0.80444(19)
C13_3 C 0.77458(17) 0.9031(3) 0.7843(2)
H9_3 H 0.7617 0.9417 0.8078
C14_3 C 0.7803(2) 0.9428(3) 0.7302(2)
C15_3 C 0.8005(2) 0.8862(3) 0.6962(2)
H11_3 H 0.8049 0.9125 0.6602
C16_3 C 0.8140(2) 0.7915(3) 0.7151(2)
H12_3 H 0.8274 0.7543 0.6916
C17_3 C 0.80797(17) 0.7499(2) 0.7692(2)
C18_3 C 0.83657(18) 0.5838(3) 0.7600(2)
C19_3 C 0.85348(18) 0.4904(3) 0.8034(2)
C20_3 C 0.86750(17) 0.3179(3) 0.7869(2)
C21_3 C 0.8806(2) 0.2887(3) 0.8544(2)
H13_3 H 0.8870 0.3348 0.8887
C22_3 C 0.8841(3) 0.1917(3) 0.8711(3)
H14_3 H 0.8924 0.1729 0.9164
C23_3 C 0.8752(3) 0.1219(3) 0.8202(3)
H15_3 H 0.8762 0.0565 0.8307
C24_3 C 0.8649(2) 0.1512(3) 0.7546(2)
H16_3 H 0.8602 0.1046 0.7213
C25_3 C 0.86127(15) 0.2480(2) 0.73613(19)
C26_3 C 0.85221(14) 0.2703(2) 0.66387(18)
C28_3 C 0.93935(16) 0.7802(3) 0.9813(2)
C29_3 C 0.9365(2) 0.8765(3) 0.9599(3)
H17_3 H 0.9134 0.9194 0.9655
C30_3 C 0.9675(3) 0.9088(4) 0.9306(4)
H18_3 H 0.9648 0.9726 0.9158
N3_3 N 0.82437(16) 0.6542(2) 0.79164(18)
H21_3 H 0.8269 0.6389 0.8314
N4_3 N 0.85973(15) 0.4161(2) 0.76826(16)
H22_3 H 0.8589 0.4307 0.7294
N5_3 N 0.97710(15) 0.6205(2) 0.9929(2)
O2_3 O 0.76518(11) 0.83015(16) 0.89473(13)
O3_3 O 0.78663(15) 0.68076(17) 0.87821(16)
O6_3 O 0.85997(17) 0.4888(2) 0.86302(16)
O7_3 O 0.83318(18) 0.5873(2) 0.70202(18)
C33_3 C 0.97444(17) 0.7168(3) 0.9722(2)
C37_3 C 0.65932(15) 0.2251(2) 0.97038(18)
C38_3 C 0.63054(15) 0.1816(2) 0.90402(19)
H26_3 H 0.6142 0.2195 0.8633
C39_3 C 0.62622(14) 0.0824(2) 0.89870(18)
H27_3 H 0.6076 0.0547 0.8538
C40_3 C 0.66954(15) 0.3308(2) 0.97691(19)
C41_3 C 0.63516(15) 0.3941(2) 0.9221(2)
H28_3 H 0.6043 0.3708 0.8817
C42_3 C 0.64762(15) 0.4911(2) 0.9290(2)
H29_3 H 0.6244 0.5322 0.8923
N8_3 N 0.69123(12) 0.52934(18) 0.98546(15)
O25_2 O 0.59495(11) 0.83504(16) 0.96929(15)
O27_2 O 0.62700(11) 0.68484(16) 0.98648(17)
H33_3 H 0.7706 0.9931 0.2168
Co2_4 Co 0.351040(19) 0.12058(3) 0.05664(2)
O17_4 O 0.36164(11) 0.14341(16) 0.15156(13)
O24_4 O 0.40505(11) 0.16496(16) 0.03071(15)
O12_4 O 0.27777(9) 0.17065(14) 0.99313(12)
Co1_4 Co 0.295119(18) 0.32014(3) 0.00505(2)
C3_4 C 0.34068(15) 0.7749(2) 0.02962(18)
C4_4 C 0.36946(15) 0.8184(2) 0.09598(19)
H3_4 H 0.3858 0.7805 0.1367
C5_4 C 0.37378(14) 0.9176(2) 0.10130(18)
H4_4 H 0.3924 0.9453 0.1462
C6_4 C 0.33046(15) 0.6692(2) 0.02309(19)
C7_4 C 0.36484(15) 0.6059(2) 0.0779(2)
H5_4 H 0.3957 0.6292 0.1183
C8_4 C 0.35238(15) 0.5089(2) 0.0710(2)
H6_4 H 0.3756 0.4678 0.1077
C27_4 C 0.40319(14) 0.2522(2) 0.0103(2)
N1_4 N 0.35227(12) 0.97558(18) 0.04453(15)
N2_4 N 0.30877(12) 0.47066(18) 0.01454(15)
H23_4 H 0.4584 0.1065 0.0130
O1_4 O 0.22223(9) 0.32935(14) 0.00687(12)
O9_4 O 0.37300(11) 0.31516(16) 0.01352(17)
C53_4 C 0.35348(18) 0.0096(3) 0.3034(2)
C54_4 C 0.36750(17) 0.1821(3) 0.2869(2)
C55_4 C 0.3806(2) 0.2113(3) 0.3544(2)
H36_4 H 0.3870 0.1652 0.3887
C56_4 C 0.3841(3) 0.3083(3) 0.3711(3)
H37_4 H 0.3924 0.3271 0.4164
C57_4 C 0.3752(3) 0.3781(3) 0.3202(3)
H38_4 H 0.3762 0.4435 0.3307
C58_4 C 0.3649(2) 0.3488(3) 0.2546(2)
H39_4 H 0.3602 0.3954 0.2213
C59_4 C 0.36127(15) 0.2520(2) 0.23613(19)
C60_4 C 0.35221(14) 0.2297(2) 0.16387(18)
N10_4 N 0.35973(15) 0.0839(2) 0.26826(16)
H45_4 H 0.3589 0.0693 0.2294
O19_4 O 0.33731(11) 0.29664(16) 0.11912(13)
O21_4 O 0.35997(17) 0.0112(2) 0.36302(16)
C1_4 C 0.32716(19) 0.9336(2) 0.9802(2)
H1_4 H 0.3137 0.9729 0.9403
C2_4 C 0.32045(19) 0.8355(2) 0.9707(2)
H2_4 H 0.3025 0.8095 0.9252
C9_4 C 0.27606(16) 0.5307(2) 0.9612(2)
H7_4 H 0.2459 0.5050 0.9211
C10_4 C 0.28554(16) 0.6290(2) 0.9637(2)
H8_4 H 0.2620 0.6681 0.9259
C11_4 C 0.27920(16) 0.2689(2) 0.86321(19)
C12_4 C 0.28753(15) 0.3072(2) 0.80444(19)
C13_4 C 0.27458(17) 0.4031(3) 0.7843(2)
H9_4 H 0.2617 0.4417 0.8078
C14_4 C 0.2803(2) 0.4428(3) 0.7302(2)
H10_4 H 0.2706 0.5069 0.7168
C15_4 C 0.3005(2) 0.3862(3) 0.6962(2)
H11_4 H 0.3049 0.4125 0.6602
C16_4 C 0.3140(2) 0.2915(3) 0.7151(2)
H12_4 H 0.3274 0.2543 0.6916
C17_4 C 0.30797(17) 0.2499(2) 0.7692(2)
C18_4 C 0.33657(18) 0.0838(3) 0.7600(2)
C28_4 C 0.43935(16) 0.2802(3) 0.9813(2)
C29_4 C 0.4365(2) 0.3765(3) 0.9599(3)
H17_4 H 0.4134 0.4194 0.9655
C30_4 C 0.4675(3) 0.4088(4) 0.9306(4)
H18_4 H 0.4648 0.4726 0.9158
C31_4 C 0.5021(3) 0.3457(4) 0.9236(4)
H19_4 H 0.5237 0.3677 0.9052
C32_4 C 0.5055(2) 0.2513(4) 0.9432(3)
H20_4 H 0.5287 0.2095 0.9372
N3_4 N 0.32437(16) 0.1542(2) 0.79164(18)
H21_4 H 0.3269 0.1389 0.8314
N5_4 N 0.47710(15) 0.1205(2) 0.9929(2)
O2_4 O 0.26518(11) 0.33015(16) 0.89473(13)
O3_4 O 0.28663(15) 0.18076(17) 0.87821(16)
O7_4 O 0.33318(18) 0.0873(2) 0.70202(18)
O10_4 O 0.53503(15) 0.0496(2) 0.9603(2)
C33_4 C 0.47444(17) 0.2168(3) 0.9722(2)
C34_4 C 0.50499(17) 0.0468(3) 0.9855(2)
H29_4 H 0.1244 0.0322 0.8923
N7_4 N 0.14773(12) 0.52442(18) 0.95547(15)
N8_4 N 0.19123(12) 0.02934(18) 0.98546(15)
C35_4 C 0.17284(19) 0.5664(2) 0.0198(2)
H24_4 H 0.1863 0.5271 0.0597
C36_4 C 0.17955(19) 0.6645(2) 0.0293(2)
H25_4 H 0.1975 0.6905 0.0748
C43_4 C 0.22394(16) 0.9693(2) 0.0388(2)
H30_4 H 0.2541 0.9950 0.0789
C44_4 C 0.21446(16) 0.8710(2) 0.0363(2)
H31_4 H 0.2380 0.8319 0.0741
C45_4 C 0.27920(16) 0.7311(2) 0.36321(19)
C46_4 C 0.28753(15) 0.6928(2) 0.30444(19)
C47_4 C 0.27458(17) 0.5969(3) 0.2843(2)
H32_4 H 0.2617 0.5583 0.3078
C48_4 C 0.2803(2) 0.5572(3) 0.2302(2)
H33_4 H 0.2706 0.4931 0.2168
C49_4 C 0.3005(2) 0.6138(3) 0.1962(2)
H34_4 H 0.3049 0.5875 0.1602
C50_4 C 0.3140(2) 0.7085(3) 0.2151(2)
H35_4 H 0.3274 0.7457 0.1916
C51_4 C 0.30797(17) 0.7501(2) 0.2692(2)
C52_4 C 0.33657(18) 0.9162(3) 0.2600(2)
C62_4 C 0.56065(16) 0.7198(3) 0.0187(2)
C63_4 C 0.5635(2) 0.6235(3) 0.0401(3)
H40_4 H 0.5866 0.5806 0.0345
C64_4 C 0.5325(3) 0.5912(4) 0.0694(4)
H41_4 H 0.5352 0.5274 0.0842
C65_4 C 0.4979(3) 0.6543(4) 0.0764(4)
H42_4 H 0.4763 0.6323 0.0948
C66_4 C 0.4945(2) 0.7487(4) 0.0568(3)
H43_4 H 0.4713 0.7905 0.0628
N9_4 N 0.32437(16) 0.8458(2) 0.29164(18)
H44_4 H 0.3269 0.8611 0.3314
N11_4 N 0.52290(15) 0.8795(2) 0.0071(2)
O15_4 O 0.28663(15) 0.81924(17) 0.37821(16)
O22_4 O 0.33318(18) 0.9127(2) 0.20202(18)
O28_4 O 0.46497(15) 0.9504(2) 0.0397(2)
C67_4 C 0.52556(17) 0.7832(3) 0.0278(2)
C68_4 C 0.49501(17) 0.9532(3) 0.0145(2)
C19_4 C 0.35348(18) 0.9904(3) 0.8034(2)
C20_4 C 0.36750(17) 0.8179(3) 0.7869(2)
C21_4 C 0.3806(2) 0.7887(3) 0.8544(2)
H13_4 H 0.3870 0.8348 0.8887
C22_4 C 0.3841(3) 0.6917(3) 0.8711(3)
H14_4 H 0.3924 0.6729 0.9164
C23_4 C 0.3752(3) 0.6219(3) 0.8202(3)
H15_4 H 0.3762 0.5565 0.8307
C24_4 C 0.3649(2) 0.6512(3) 0.7546(2)
H16_4 H 0.3602 0.6046 0.7213
C25_4 C 0.36127(15) 0.7480(2) 0.73613(19)
C26_4 C 0.35221(14) 0.7703(2) 0.66387(18)
N4_4 N 0.35973(15) 0.9161(2) 0.76826(16)
H22_4 H 0.3589 0.9307 0.7294
O6_4 O 0.35997(17) 0.9888(2) 0.86302(16)
C37_4 C 0.15932(15) 0.7251(2) 0.97038(18)
C38_4 C 0.13054(15) 0.6816(2) 0.90402(19)
H26_4 H 0.1142 0.7195 0.8633
C39_4 C 0.12622(14) 0.5824(2) 0.89870(18)
H27_4 H 0.1076 0.5547 0.8538
C40_4 C 0.16954(15) 0.8308(2) 0.97691(19)
C41_4 C 0.13516(15) 0.8941(2) 0.9221(2)
H28_4 H 0.1043 0.8708 0.8817
C42_4 C 0.14762(15) 0.9911(2) 0.9290(2)
C61_4 C 0.59681(14) 0.7478(2) 0.9897(2)
H46_4 H 0.5416 0.8935 0.9870
loop_
_geom_bond_atom_site_label_1
_geom_bond_atom_site_label_2
_geom_bond_site_symmetry_1
_geom_bond_site_symmetry_2
Co2 N1 1_555 1_555
C1 H1 1_555 1_555
C2 C1 1_555 1_555
H2 C2 1_555 1_555
C3 C2 1_555 1_555
C4 C3 1_555 1_555
H3 C4 1_555 1_555
C5 C4 1_555 1_555
H4 C5 1_555 1_555
C6 C3 1_555 1_555
C7 C6 1_555 1_555
H5 C7 1_555 1_555
C8 C7 1_555 1_555
C9 H7 1_555 1_555
C10 C6 1_555 1_555
H8 C10 1_555 1_555
N1 C1 1_555 1_555
O12 Co2 1_555 1_555
O17 Co2 1_555 1_555
O24 Co2 1_555 1_555
C5 N1 1_555 1_555
C9 C10 1_555 1_555
Co1 N2 1_555 1_555
C11 C12 1_555 1_555
C12 C13 1_555 1_555
C13 H9 1_555 1_555
C14 C13 1_555 1_555
C15 C14 1_555 1_555
H11 C15 1_555 1_555
C16 C15 1_555 1_555
H12 C16 1_555 1_555
C17 C12 1_555 1_555
C18 C19 1_555 1_555
C19 N4 1_555 1_555
C20 C21 1_555 1_555
C21 H13 1_555 1_555
C22 C21 1_555 1_555
H14 C22 1_555 1_555
C23 C22 1_555 1_555
H15 C23 1_555 1_555
C24 C23 1_555 1_555
H16 C24 1_555 1_555
C25 C20 1_555 1_555
C26 C25 1_555 1_555
C27 C28 1_555 1_555
C28 C29 1_555 1_555
C29 H17 1_555 1_555
C30 C29 1_555 1_555
H18 C30 1_555 1_555
N3 C17 1_555 1_555
H21 N3 1_555 1_555
N4 C20 1_555 1_555
H22 N4 1_555 1_555
N5 H23 1_555 1_555
O1 Co1 1_555 1_555
O2 Co1 1_555 1_555
O3 C11 1_555 1_555
O4 C26 1_555 1_555
O5 C26 1_555 1_555
O6 C19 1_555 1_555
O7 C18 1_555 1_555
O24 C27 1_555 1_555
O9 Co1 1_555 1_555
C33 C28 1_555 1_555
Co3 O1 1_555 1_555
Co4 O5 1_555 1_555
Co7 O1 1_555 1_555
Co8 O4 1_555 1_555
C35 H24 1_555 1_555
C36 C35 1_555 1_555
H25 C36 1_555 1_555
C37 C36 1_555 1_555
C38 C37 1_555 1_555
H26 C38 1_555 1_555
C39 C38 1_555 1_555
H27 C39 1_555 1_555
C40 C37 1_555 1_555
C41 C40 1_555 1_555
H28 C41 1_555 1_555
C42 C41 1_555 1_555
H29 C42 1_555 1_555
C43 H30 1_555 1_555
C44 C40 1_555 1_555
H31 C44 1_555 1_555
C45 C46 1_555 1_555
C46 C47 1_555 1_555
C47 H32 1_555 1_555
C48 C47 1_555 1_555
C49 C48 1_555 1_555
H34 C49 1_555 1_555
C50 C49 1_555 1_555
H35 C50 1_555 1_555
C51 C46 1_555 1_555
C52 C53 1_555 1_555
C53 N10 1_555 1_555
C54 C55 1_555 1_555
C55 H36 1_555 1_555
C56 C55 1_555 1_555
H37 C56 1_555 1_555
C57 C56 1_555 1_555
H38 C57 1_555 1_555
C58 C57 1_555 1_555
H39 C58 1_555 1_555
C59 C54 1_555 1_555
C60 C59 1_555 1_555
H42 C65 1_555 1_555
C66 C65 1_555 1_555
H43 C66 1_555 1_555
N7 C35 1_555 1_555
N8 Co3 1_555 1_555
N9 C51 1_555 1_555
H44 N9 1_555 1_555
N10 C54 1_555 1_555
H45 N10 1_555 1_555
O12 Co1 1_555 1_555
O13 C45 1_555 1_555
O14 Co3 1_555 1_555
O15 C45 1_555 1_555
O18 Co7 1_555 1_555
O19 Co1 1_555 1_555
O20 Co3 1_555 1_555
O21 C53 1_555 1_555
O22 C52 1_555 1_555
O25 Co7 1_555 1_555
O27 Co3 1_555 1_555
O28 C68 1_555 1_555
C11 O2 1_555 1_555
C16 C17 1_555 1_555
C18 N3 1_555 1_555
C24 C25 1_555 1_555
C27 O9 1_555 1_555
N5 C33 1_555 1_555
Co3 O12 1_555 1_555
C39 N7 1_555 1_555
C42 N8 1_555 1_555
C43 C44 1_555 1_555
C43 N8 1_555 1_555
C50 C51 1_555 1_555
C52 N9 1_555 1_555
C58 C59 1_555 1_555
C60 O17 1_555 1_555
C60 O19 1_555 1_555
H19 C31 1_555 1_555
C32 C31 1_555 1_555
H20 C32 1_555 1_555
O10 C34 1_555 1_555
Co5 O26 1_555 1_555
Co10 O23 1_555 1_555
C61 C62 1_555 1_555
C62 C63 1_555 1_555
C63 H40 1_555 1_555
C64 C63 1_555 1_555
H41 C64 1_555 1_555
N11 H46 1_555 1_555
O23 C61 1_555 1_555
O26 C61 1_555 1_555
C67 C62 1_555 1_555
N11 C67 1_555 1_555
O12_2 Co2_2 1_555 1_555
O17_2 Co2_2 1_555 1_555
O24_2 Co2_2 1_555 1_555
Co1_2 N2_2 1_555 1_555
C1_2 H1_2 1_555 1_555
C2_2 C1_2 1_555 1_555
H2_2 C2_2 1_555 1_555
C3_2 C2_2 1_555 1_555
C4_2 C3_2 1_555 1_555
H3_2 C4_2 1_555 1_555
C5_2 C4_2 1_555 1_555
H4_2 C5_2 1_555 1_555
C6_2 C3_2 1_555 1_555
C7_2 C6_2 1_555 1_555
H5_2 C7_2 1_555 1_555
C8_2 C7_2 1_555 1_555
H6_2 C8_2 1_555 1_555
C9_2 H7_2 1_555 1_555
C10_2 C6_2 1_555 1_555
H8_2 C10_2 1_555 1_555
C11_2 C12_2 1_555 1_555
C12_2 C13_2 1_555 1_555
C13_2 H9_2 1_555 1_555
C14_2 C13_2 1_555 1_555
H10_2 C14_2 1_555 1_555
C15_2 C14_2 1_555 1_555
H11_2 C15_2 1_555 1_555
C16_2 C15_2 1_555 1_555
H12_2 C16_2 1_555 1_555
C17_2 C12_2 1_555 1_555
C27_2 C28_2 1_555 1_555
C28_2 C29_2 1_555 1_555
C29_2 H17_2 1_555 1_555
C30_2 C29_2 1_555 1_555
H18_2 C30_2 1_555 1_555
C31_2 C30_2 1_555 1_555
H19_2 C31_2 1_555 1_555
C32_2 C31_2 1_555 1_555
H20_2 C32_2 1_555 1_555
N1_2 C1_2 1_555 1_555
N2_2 C8_2 1_555 1_555
N3_2 C17_2 1_555 1_555
H21_2 N3_2 1_555 1_555
N5_2 H23_2 1_555 1_555
O1_2 Co1_2 1_555 1_555
O2_2 Co1_2 1_555 1_555
O3_2 C11_2 1_555 1_555
O7_2 C18_2 1_555 1_555
O24_2 C27_2 1_555 1_555
O9_2 Co1_2 1_555 1_555
O10_2 C34_2 1_555 1_555
C33_2 C28_2 1_555 1_555
C34_2 N5_2 1_555 1_555
Co5 O1_2 1_555 1_555
Co10 O1_2 1_555 1_555
C53_2 N10_2 1_555 1_555
C54_2 C55_2 1_555 1_555
C55_2 H36_2 1_555 1_555
C56_2 C55_2 1_555 1_555
H37_2 C56_2 1_555 1_555
C57_2 C56_2 1_555 1_555
H38_2 C57_2 1_555 1_555
C58_2 C57_2 1_555 1_555
H39_2 C58_2 1_555 1_555
C59_2 C54_2 1_555 1_555
C60_2 C59_2 1_555 1_555
N7_2 Co10 1_555 1_555
N8_2 Co5 1_555 1_555
N10_2 C54_2 1_555 1_555
H45_2 N10_2 1_555 1_555
O12_2 Co1_2 1_555 1_555
O14_2 Co5 1_555 1_555
O18_2 Co10 1_555 1_555
O19_2 Co1_2 1_555 1_555
O20_2 Co5 1_555 1_555
O21_2 C53_2 1_555 1_555
C5_2 N1_2 1_555 1_555
C9_2 C10_2 1_555 1_555
C9_2 N2_2 1_555 1_555
C11_2 O2_2 1_555 1_555
C16_2 C17_2 1_555 1_555
C18_2 N3_2 1_555 1_555
C27_2 O9_2 1_555 1_555
C32_2 C33_2 1_555 1_555
N5_2 C33_2 1_555 1_555
Co5 O12_2 1_555 1_555
C58_2 C59_2 1_555 1_555
C60_2 O17_2 1_555 1_555
C60_2 O19_2 1_555 1_555
C19_2 N4_2 1_555 1_555
C20_2 C21_2 1_555 1_555
C21_2 H13_2 1_555 1_555
C22_2 C21_2 1_555 1_555
H14_2 C22_2 1_555 1_555
C23_2 C22_2 1_555 1_555
H15_2 C23_2 1_555 1_555
C24_2 C23_2 1_555 1_555
H16_2 C24_2 1_555 1_555
C25_2 C20_2 1_555 1_555
C26_2 C25_2 1_555 1_555
N4_2 C20_2 1_555 1_555
H22_2 N4_2 1_555 1_555
O4_2 C26_2 1_555 1_555
O5_2 C26_2 1_555 1_555
O6_2 C19_2 1_555 1_555
Co4_2 O5_2 1_555 1_555
Co8_2 O4_2 1_555 1_555
C35_2 H24_2 1_555 1_555
C36_2 C35_2 1_555 1_555
H25_2 C36_2 1_555 1_555
C37_2 C36_2 1_555 1_555
C38_2 C37_2 1_555 1_555
H26_2 C38_2 1_555 1_555
C39_2 C38_2 1_555 1_555
H27_2 C39_2 1_555 1_555
C40_2 C37_2 1_555 1_555
C41_2 C40_2 1_555 1_555
H28_2 C41_2 1_555 1_555
C42_2 C41_2 1_555 1_555
C43_2 H30_2 1_555 1_555
C44_2 C40_2 1_555 1_555
H31_2 C44_2 1_555 1_555
C45_2 C46_2 1_555 1_555
C46_2 C47_2 1_555 1_555
C47_2 H32_2 1_555 1_555
C48_2 C47_2 1_555 1_555
H33_2 C48_2 1_555 1_555
C49_2 C48_2 1_555 1_555
H34_2 C49_2 1_555 1_555
C50_2 C49_2 1_555 1_555
H35_2 C50_2 1_555 1_555
C51_2 C46_2 1_555 1_555
C61_2 C62_2 1_555 1_555
C62_2 C63_2 1_555 1_555
C63_2 H40_2 1_555 1_555
C64_2 C63_2 1_555 1_555
H41_2 C64_2 1_555 1_555
C65_2 C64_2 1_555 1_555
H42_2 C65_2 1_555 1_555
C66_2 C65_2 1_555 1_555
H43_2 C66_2 1_555 1_555
N7_2 C35_2 1_555 1_555
N9_2 C51_2 1_555 1_555
H44_2 N9_2 1_555 1_555
N11_2 H46_2 1_555 1_555
O13_2 C45_2 1_555 1_555
O15_2 C45_2 1_555 1_555
O22_2 C52_2 1_555 1_555
O25 C61_2 1_555 1_555
O27 C61_2 1_555 1_555
O28_2 C68_2 1_555 1_555
C67_2 C62_2 1_555 1_555
C24_2 C25_2 1_555 1_555
C39_2 N7_2 1_555 1_555
C43_2 C44_2 1_555 1_555
C50_2 C51_2 1_555 1_555
C52_2 N9_2 1_555 1_555
C66_2 C67_2 1_555 1_555
N11_2 C67_2 1_555 1_555
N11_2 C68_2 1_555 1_555
C62_3 C63_3 1_555 1_555
C63_3 H40_3 1_555 1_555
C64_3 C63_3 1_555 1_555
H41_3 C64_3 1_555 1_555
C67_3 C62_3 1_555 1_555
N11_3 C67_3 1_555 1_555
H19_3 C31_3 1_555 1_555
C32_3 C31_3 1_555 1_555
H20_3 C32_3 1_555 1_555
O10_3 C34_3 1_555 1_555
Co4 O26_2 1_555 1_555
Co8 O23_2 1_555 1_555
O23_2 C61_3 1_555 1_555
O26_2 C61_3 1_555 1_555
Co2_3 N1_3 1_555 1_555
C4_3 C3_3 1_555 1_555
H3_3 C4_3 1_555 1_555
C5_3 C4_3 1_555 1_555
H4_3 C5_3 1_555 1_555
C6_3 C3_3 1_555 1_555
C7_3 C6_3 1_555 1_555
H5_3 C7_3 1_555 1_555
C8_3 C7_3 1_555 1_555
O17_3 Co2_3 1_555 1_555
O24_3 Co2_3 1_555 1_555
C5_3 N1_3 1_555 1_555
C1_3 H1_3 1_555 1_555
C2_3 C1_3 1_555 1_555
H2_3 C2_3 1_555 1_555
C9_3 H7_3 1_555 1_555
H8_3 C10_3 1_555 1_555
C9_3 C10_3 1_555 1_555
Co1_3 N2_3 1_555 1_555
O1_3 Co1_3 1_555 1_555
O24_3 C27_3 1_555 1_555
O9_3 Co1_3 1_555 1_555
C35_3 H24_3 1_555 1_555
C36_3 C35_3 1_555 1_555
H25_3 C36_3 1_555 1_555
C43_3 H30_3 1_555 1_555
H31_3 C44_3 1_555 1_555
C45_3 C46_3 1_555 1_555
C46_3 C47_3 1_555 1_555
C47_3 H32_3 1_555 1_555
C48_3 C47_3 1_555 1_555
C49_3 C48_3 1_555 1_555
H34_3 C49_3 1_555 1_555
C50_3 C49_3 1_555 1_555
H35_3 C50_3 1_555 1_555
C51_3 C46_3 1_555 1_555
C52_3 C53_3 1_555 1_555
C53_3 N10_3 1_555 1_555
C54_3 C55_3 1_555 1_555
C55_3 H36_3 1_555 1_555
C56_3 C55_3 1_555 1_555
H37_3 C56_3 1_555 1_555
C57_3 C56_3 1_555 1_555
H38_3 C57_3 1_555 1_555
C58_3 C57_3 1_555 1_555
H39_3 C58_3 1_555 1_555
C59_3 C54_3 1_555 1_555
C60_3 C59_3 1_555 1_555
H42_3 C65_3 1_555 1_555
C66_3 C65_3 1_555 1_555
H43_3 C66_3 1_555 1_555
N9_3 C51_3 1_555 1_555
H44_3 N9_3 1_555 1_555
N10_3 C54_3 1_555 1_555
H45_3 N10_3 1_555 1_555
O14_2 C45_3 1_555 1_555
O15_3 C45_3 1_555 1_555
O19_3 Co1_3 1_555 1_555
O21_3 C53_3 1_555 1_555
O22_3 C52_3 1_555 1_555
O28_3 C68_3 1_555 1_555
C27_3 O9_3 1_555 1_555
C43_3 C44_3 1_555 1_555
C50_3 C51_3 1_555 1_555
C52_3 N9_3 1_555 1_555
C58_3 C59_3 1_555 1_555
C60_3 O17_3 1_555 1_555
C60_3 O19_3 1_555 1_555
C11_3 C12_3 1_555 1_555
C12_3 C13_3 1_555 1_555
C13_3 H9_3 1_555 1_555
C14_3 C13_3 1_555 1_555
C15_3 C14_3 1_555 1_555
H11_3 C15_3 1_555 1_555
C16_3 C15_3 1_555 1_555
H12_3 C16_3 1_555 1_555
C17_3 C12_3 1_555 1_555
C18_3 C19_3 1_555 1_555
C19_3 N4_3 1_555 1_555
C20_3 C21_3 1_555 1_555
C21_3 H13_3 1_555 1_555
C22_3 C21_3 1_555 1_555
H14_3 C22_3 1_555 1_555
C23_3 C22_3 1_555 1_555
H15_3 C23_3 1_555 1_555
C24_3 C23_3 1_555 1_555
H16_3 C24_3 1_555 1_555
C25_3 C20_3 1_555 1_555
C26_3 C25_3 1_555 1_555
C28_3 C29_3 1_555 1_555
C29_3 H17_3 1_555 1_555
C30_3 C29_3 1_555 1_555
H18_3 C30_3 1_555 1_555
N3_3 C17_3 1_555 1_555
H21_3 N3_3 1_555 1_555
N4_3 C20_3 1_555 1_555
H22_3 N4_3 1_555 1_555
O3_3 C11_3 1_555 1_555
O18_2 C26_3 1_555 1_555
O20_2 C26_3 1_555 1_555
O6_3 C19_3 1_555 1_555
O7_3 C18_3 1_555 1_555
C33_3 C28_3 1_555 1_555
C38_3 C37_3 1_555 1_555
H26_3 C38_3 1_555 1_555
C39_3 C38_3 1_555 1_555
H27_3 C39_3 1_555 1_555
C40_3 C37_3 1_555 1_555
C41_3 C40_3 1_555 1_555
H28_3 C41_3 1_555 1_555
C42_3 C41_3 1_555 1_555
H29_3 C42_3 1_555 1_555
N8_3 Co4_2 1_555 1_555
O25_2 Co8_2 1_555 1_555
O27_2 Co4_2 1_555 1_555
C11_3 O2_3 1_555 1_555
C16_3 C17_3 1_555 1_555
C18_3 N3_3 1_555 1_555
C24_3 C25_3 1_555 1_555
N5_3 C33_3 1_555 1_555
Co4_2 O12_3 1_555 1_555
C39_3 N7_3 1_555 1_555
C42_3 N8_3 1_555 1_555
O17_4 Co2_4 1_555 1_555
O24_4 Co2_4 1_555 1_555
Co1_4 N2_4 1_555 1_555
C4_4 C3_4 1_555 1_555
H3_4 C4_4 1_555 1_555
C5_4 C4_4 1_555 1_555
H4_4 C5_4 1_555 1_555
C6_4 C3_4 1_555 1_555
C7_4 C6_4 1_555 1_555
H5_4 C7_4 1_555 1_555
C8_4 C7_4 1_555 1_555
H6_4 C8_4 1_555 1_555
N2_4 C8_4 1_555 1_555
O1_4 Co1_4 1_555 1_555
O24_4 C27_4 1_555 1_555
O9_4 Co1_4 1_555 1_555
C53_4 N10_4 1_555 1_555
C54_4 C55_4 1_555 1_555
C55_4 H36_4 1_555 1_555
C56_4 C55_4 1_555 1_555
H37_4 C56_4 1_555 1_555
C57_4 C56_4 1_555 1_555
H38_4 C57_4 1_555 1_555
C58_4 C57_4 1_555 1_555
H39_4 C58_4 1_555 1_555
C59_4 C54_4 1_555 1_555
C60_4 C59_4 1_555 1_555
N10_4 C54_4 1_555 1_555
H45_4 N10_4 1_555 1_555
O19_4 Co1_4 1_555 1_555
O21_4 C53_4 1_555 1_555
C5_4 N1_4 1_555 1_555
C27_4 O9_4 1_555 1_555
C58_4 C59_4 1_555 1_555
C60_4 O17_4 1_555 1_555
C60_4 O19_4 1_555 1_555
C1_4 H1_4 1_555 1_555
C2_4 C1_4 1_555 1_555
H2_4 C2_4 1_555 1_555
C9_4 H7_4 1_555 1_555
H8_4 C10_4 1_555 1_555
C11_4 C12_4 1_555 1_555
C12_4 C13_4 1_555 1_555
C13_4 H9_4 1_555 1_555
C14_4 C13_4 1_555 1_555
H10_4 C14_4 1_555 1_555
C15_4 C14_4 1_555 1_555
H11_4 C15_4 1_555 1_555
C16_4 C15_4 1_555 1_555
H12_4 C16_4 1_555 1_555
C17_4 C12_4 1_555 1_555
C28_4 C29_4 1_555 1_555
C29_4 H17_4 1_555 1_555
C30_4 C29_4 1_555 1_555
H18_4 C30_4 1_555 1_555
C31_4 C30_4 1_555 1_555
H19_4 C31_4 1_555 1_555
C32_4 C31_4 1_555 1_555
H20_4 C32_4 1_555 1_555
N3_4 C17_4 1_555 1_555
H21_4 N3_4 1_555 1_555
O3_4 C11_4 1_555 1_555
O7_4 C18_4 1_555 1_555
O10_4 C34_4 1_555 1_555
C33_4 C28_4 1_555 1_555
C34_4 N5_4 1_555 1_555
N7_4 Co8 1_555 1_555
N8_4 Co4 1_555 1_555
C9_4 C10_4 1_555 1_555
C11_4 O2_4 1_555 1_555
C16_4 C17_4 1_555 1_555
C18_4 N3_4 1_555 1_555
C32_4 C33_4 1_555 1_555
N5_4 C33_4 1_555 1_555
Co4 O12_4 1_555 1_555
C35_4 H24_4 1_555 1_555
C36_4 C35_4 1_555 1_555
H25_4 C36_4 1_555 1_555
C43_4 H30_4 1_555 1_555
H31_4 C44_4 1_555 1_555
C45_4 C46_4 1_555 1_555
C46_4 C47_4 1_555 1_555
C47_4 H32_4 1_555 1_555
C48_4 C47_4 1_555 1_555
H33_4 C48_4 1_555 1_555
C49_4 C48_4 1_555 1_555
H34_4 C49_4 1_555 1_555
C50_4 C49_4 1_555 1_555
H35_4 C50_4 1_555 1_555
C51_4 C46_4 1_555 1_555
C62_4 C63_4 1_555 1_555
C63_4 H40_4 1_555 1_555
C64_4 C63_4 1_555 1_555
H41_4 C64_4 1_555 1_555
C65_4 C64_4 1_555 1_555
H42_4 C65_4 1_555 1_555
C66_4 C65_4 1_555 1_555
H43_4 C66_4 1_555 1_555
N9_4 C51_4 1_555 1_555
H44_4 N9_4 1_555 1_555
O14 C45_4 1_555 1_555
O15_4 C45_4 1_555 1_555
O22_4 C52_4 1_555 1_555
O28_4 C68_4 1_555 1_555
C67_4 C62_4 1_555 1_555
C43_4 C44_4 1_555 1_555
C50_4 C51_4 1_555 1_555
C52_4 N9_4 1_555 1_555
C66_4 C67_4 1_555 1_555
N11_4 C67_4 1_555 1_555
N11_4 C68_4 1_555 1_555
C19_4 N4_4 1_555 1_555
C20_4 C21_4 1_555 1_555
C21_4 H13_4 1_555 1_555
C22_4 C21_4 1_555 1_555
H14_4 C22_4 1_555 1_555
C23_4 C22_4 1_555 1_555
H15_4 C23_4 1_555 1_555
C24_4 C23_4 1_555 1_555
H16_4 C24_4 1_555 1_555
C25_4 C20_4 1_555 1_555
C26_4 C25_4 1_555 1_555
N4_4 C20_4 1_555 1_555
H22_4 N4_4 1_555 1_555
O18 C26_4 1_555 1_555
O20 C26_4 1_555 1_555
O6_4 C19_4 1_555 1_555
C38_4 C37_4 1_555 1_555
H26_4 C38_4 1_555 1_555
C39_4 C38_4 1_555 1_555
H27_4 C39_4 1_555 1_555
C40_4 C37_4 1_555 1_555
C41_4 C40_4 1_555 1_555
H28_4 C41_4 1_555 1_555
C42_4 C41_4 1_555 1_555
O25_2 C61_4 1_555 1_555
O27_2 C61_4 1_555 1_555
C24_4 C25_4 1_555 1_555
C39_4 N7_4 1_555 1_555

#END
