
###############################################################################
#
# This file contains modified crystal structure data generated from the
# MOF subset of the Cambridge Structural Database (CSD) v543 
# hosted by the Cambridge Crystallographic Data Centre (CCDC).
#
# This work is licensed under the Creative Commons
# Attribution-NonCommercial-ShareAlike 4.0 International License.
# To view a copy of this license, visit
# http://creativecommons.org/licenses/by-nc-sa/4.0/
# or send a letter to
# Creative Commons, PO Box 1866, Mountain View, CA 94042, USA.
#
# CIF created using the CSD Python API on 29 September 2022
# The structure has been converted into the P1 space group
# The structure has a 3D framework
# The original CSD entry PIHJIB is in the orthorhombic crystal system
# The framework has been calculated to contain at least 10.0% void space
# The void calculation uses a probe of radius 1.32A, grid spacing 0.4
#
###############################################################################

data_PIHJIB
_chemical_formula_moiety         '(C192 H128 Cd5 N16 O30)n'
_symmetry_cell_setting           triclinic
_symmetry_space_group_name_H-M   'P 1'
_symmetry_Int_Tables_number      1
_space_group_name_Hall           'P 1'
loop_
_symmetry_equiv_pos_site_id
_symmetry_equiv_pos_as_xyz
1 x,y,z
_cell_length_a                   18.208(5)
_cell_length_b                   14.367(5)
_cell_length_c                   19.710(5)
_cell_angle_alpha                90
_cell_angle_beta                 90
_cell_angle_gamma                90
_cell_volume                     5156.02
loop_
_atom_site_label
_atom_site_type_symbol
_atom_site_fract_x
_atom_site_fract_y
_atom_site_fract_z
N2 N 0.00015(16) 0.0923(2) 0.12760(15)
O3 O 0.34433(16) 0.1677(2) 0.42866(14)
O4 O 0.31886(17) 0.0535(2) 0.35987(16)
C6 C 0.0822(2) 0.2164(3) 0.15286(19)
H3 H 0.1013 0.2740 0.1405
C7 C 0.1629(2) 0.2157(3) 0.25620(18)
C8 C 0.2224(2) 0.3503(3) 0.3035(2)
H4 H 0.2278 0.4146 0.3058
C11 C 0.10670(19) 0.1721(3) 0.21131(18)
C13 C 0.0294(2) 0.1745(3) 0.11335(19)
H7 H 0.0135 0.2054 0.0746
C14 C 0.2088(2) 0.1594(3) 0.29551(19)
H8 H 0.2048 0.0951 0.2921
C15 C 0.3105(2) 0.1350(3) 0.37881(19)
C16 C 0.2666(2) 0.2934(3) 0.3428(2)
H9 H 0.3011 0.3200 0.3718
C17 C 0.2603(2) 0.1972(3) 0.33942(18)
C20 C 0.0751(2) 0.0872(3) 0.2264(2)
H12 H 0.0895 0.0549 0.2651
C21 C 0.1705(2) 0.3123(3) 0.2611(2)
H13 H 0.1403 0.3510 0.2356
C23 C 0.0227(2) 0.0508(3) 0.1847(2)
Cd3 Cd 0.412283(13) 0.024023(18) 0.441199(12)
H15 H 0.0016 0.9941 0.1965
O6 O 0.03034(15) 0.90600(19) 0.03122(13)
Cd2 Cd 0.087717(13) 0.975977(18) 0.941199(12)
Cd1 Cd 0.912283(13) 0.024023(18) 0.058801(12)
C12 C 0.6891(2) 0.3617(3) 0.0040(2)
H6 H 0.6660 0.3322 0.0402
Cd4 Cd 0.587717(13) 0.524023(18) 0.058801(12)
O7 O 0.84433(16) 0.1677(2) 0.07134(14)
O8 O 0.81886(17) 0.0535(2) 0.14013(16)
N1 N 0.66679(16) 0.4469(2) 0.98733(16)
C1 C 0.7559(2) 0.4431(3) 0.8979(2)
H1 H 0.7772 0.4736 0.8612
O2 O 0.96966(15) 0.09400(19) 0.96878(13)
C2 C 0.94415(18) 0.2010(2) 0.88020(17)
C3 C 0.88545(18) 0.2432(2) 0.91323(17)
H2 H 0.8754 0.2276 0.9581
C4 C 0.84124(19) 0.3087(3) 0.88028(18)
C5 C 0.77992(19) 0.3553(3) 0.91624(18)
C9 C 0.99213(18) 0.1324(2) 0.91621(17)
C10 C 0.9583(2) 0.2232(3) 0.81300(18)
H5 H 0.9978 0.1959 0.7907
C18 C 0.9138(2) 0.2858(3) 0.77900(19)
H10 H 0.9223 0.2986 0.7334
C19 C 0.7443(2) 0.3150(3) 0.97070(19)
H11 H 0.7578 0.2557 0.9850
C22 C 0.8568(2) 0.3292(3) 0.81264(19)
H14 H 0.8284 0.3729 0.7898
C24 C 0.7001(3) 0.4855(3) 0.9343(2)
H16 H 0.6850 0.5445 0.9209
N3 N 0.83321(16) 0.9469(2) 0.98733(16)
H15_2 H 0.4984 0.0059 0.6965
O5 O 0.55340(13) 0.11365(18) 0.60973(13)
N3_2 N 0.66679(16) 0.0531(2) 0.48733(16)
O6_2 O 0.46966(15) 0.09400(19) 0.53122(13)
Cd1_2 Cd 0.587717(13) 0.975977(18) 0.558801(12)
O1 O 0.44660(13) 0.88635(18) 0.39027(13)
N1_2 N 0.83321(16) 0.5531(2) 0.48733(16)
C1_2 C 0.7441(2) 0.5569(3) 0.3979(2)
H1_2 H 0.7228 0.5264 0.3612
N2_2 N 0.49985(16) 0.9077(2) 0.62760(15)
O2_2 O 0.53034(15) 0.90600(19) 0.46878(13)
O3_2 O 0.15567(16) 0.8323(2) 0.92866(14)
O4_2 O 0.18114(17) 0.9465(2) 0.85987(16)
C2_2 C 0.55585(18) 0.7990(2) 0.38020(17)
C3_2 C 0.61455(18) 0.7568(2) 0.41323(17)
H2_2 H 0.6246 0.7724 0.4581
C4_2 C 0.65876(19) 0.6913(3) 0.38028(18)
C5_2 C 0.72008(19) 0.6447(3) 0.41624(18)
C6_2 C 0.4178(2) 0.7836(3) 0.65286(19)
H3_2 H 0.3987 0.7260 0.6405
C7_2 C 0.3371(2) 0.7843(3) 0.75620(18)
C8_2 C 0.2776(2) 0.6497(3) 0.8035(2)
H4_2 H 0.2722 0.5854 0.8058
C9_2 C 0.50787(18) 0.8676(2) 0.41621(17)
C10_2 C 0.5417(2) 0.7768(3) 0.31300(18)
H5_2 H 0.5022 0.8041 0.2907
C11_2 C 0.39330(19) 0.8279(3) 0.71131(18)
C12_2 C 0.8109(2) 0.6383(3) 0.5040(2)
H6_2 H 0.8340 0.6678 0.5402
C13_2 C 0.4706(2) 0.8255(3) 0.61335(19)
H7_2 H 0.4865 0.7946 0.5746
C14_2 C 0.2912(2) 0.8406(3) 0.79551(19)
H8_2 H 0.2952 0.9049 0.7921
C15_2 C 0.1895(2) 0.8650(3) 0.87881(19)
C16_2 C 0.2334(2) 0.7066(3) 0.8428(2)
H9_2 H 0.1989 0.6800 0.8718
C17_2 C 0.2397(2) 0.8028(3) 0.83942(18)
C18_2 C 0.5862(2) 0.7142(3) 0.27900(19)
H10_2 H 0.5777 0.7014 0.2334
C19_2 C 0.7557(2) 0.6850(3) 0.47070(19)
H11_2 H 0.7422 0.7443 0.4850
C20_2 C 0.4249(2) 0.9128(3) 0.7264(2)
H12_2 H 0.4105 0.9451 0.7651
C21_2 C 0.3295(2) 0.6877(3) 0.7611(2)
H13_2 H 0.3597 0.6490 0.7356
C22_2 C 0.6432(2) 0.6708(3) 0.31264(19)
H14_2 H 0.6716 0.6271 0.2898
C23_2 C 0.4773(2) 0.9492(3) 0.6847(2)
C24_2 C 0.7999(3) 0.5145(3) 0.4343(2)
H16_2 H 0.8150 0.4555 0.4209
Cd4_2 Cd 0.912283(13) 0.475977(18) 0.558801(12)
O7_2 O 0.65567(16) 0.8323(2) 0.57134(14)
O8_2 O 0.68114(17) 0.9465(2) 0.64013(16)
O1_2 O 0.55340(13) 0.38635(18) 0.10973(13)
N1_3 N 0.16679(16) 0.0531(2) 0.01267(16)
C1_3 C 0.2559(2) 0.0569(3) 0.1021(2)
H1_3 H 0.2772 0.0264 0.1388
O2_3 O 0.46966(15) 0.40600(19) 0.03122(13)
C2_3 C 0.44415(18) 0.2990(2) 0.11980(17)
C3_3 C 0.38545(18) 0.2568(2) 0.08677(17)
H2_3 H 0.3754 0.2724 0.0419
C4_3 C 0.34124(19) 0.1913(3) 0.11972(18)
C5_3 C 0.27992(19) 0.1447(3) 0.08376(18)
C9_3 C 0.49213(18) 0.3676(2) 0.08379(17)
C10_3 C 0.4583(2) 0.2768(3) 0.18700(18)
H5_3 H 0.4978 0.3041 0.2093
C18_3 C 0.4138(2) 0.2142(3) 0.22100(19)
H10_3 H 0.4223 0.2014 0.2666
C19_3 C 0.2443(2) 0.1850(3) 0.02930(19)
H11_3 H 0.2578 0.2443 0.0150
C22_3 C 0.3568(2) 0.1708(3) 0.18736(19)
H14_3 H 0.3284 0.1271 0.2102
C24_3 C 0.2001(3) 0.0145(3) 0.0657(2)
N3_3 N 0.33321(16) 0.5531(2) 0.01267(16)
Cd1_3 Cd 0.412283(13) 0.475977(18) 0.941199(12)
N2_3 N 0.50015(16) 0.4077(2) 0.87240(15)
O3_3 O 0.84433(16) 0.3323(2) 0.57134(14)
O4_3 O 0.81886(17) 0.4465(2) 0.64013(16)
C6_3 C 0.5822(2) 0.2836(3) 0.84714(19)
H3_3 H 0.6013 0.2260 0.8595
C7_3 C 0.6629(2) 0.2843(3) 0.74380(18)
C8_3 C 0.7224(2) 0.1497(3) 0.6965(2)
H4_3 H 0.7278 0.0854 0.6942
C11_3 C 0.60670(19) 0.3279(3) 0.78869(18)
C12_3 C 0.1891(2) 0.1383(3) 0.9960(2)
H6_3 H 0.1660 0.1678 0.9598
C13_3 C 0.5294(2) 0.3255(3) 0.88665(19)
H7_3 H 0.5135 0.2946 0.9254
C14_3 C 0.7088(2) 0.3406(3) 0.70449(19)
H8_3 H 0.7048 0.4049 0.7079
C15_3 C 0.8105(2) 0.3650(3) 0.62119(19)
C16_3 C 0.7666(2) 0.2066(3) 0.6572(2)
H9_3 H 0.8011 0.1800 0.6282
C17_3 C 0.7603(2) 0.3028(3) 0.66058(18)
C20_3 C 0.5751(2) 0.4128(3) 0.7736(2)
H12_3 H 0.5895 0.4451 0.7349
C21_3 C 0.6705(2) 0.1877(3) 0.7389(2)
H13_3 H 0.6403 0.1490 0.7644
C23_3 C 0.5227(2) 0.4492(3) 0.8153(2)
H15_3 H 0.5016 0.5059 0.8035
O5_2 O 0.44660(13) 0.61365(18) 0.89027(13)
O6_3 O 0.53034(15) 0.59400(19) 0.96878(13)
O7_3 O 0.34433(16) 0.3323(2) 0.92866(14)
O8_3 O 0.31886(17) 0.4465(2) 0.85987(16)
H16_3 H 0.3150 0.0445 0.5791
Cd1_4 Cd 0.087717(13) 0.524023(18) 0.441199(12)
N1_4 N 0.33321(16) 0.9469(2) 0.51267(16)
C1_4 C 0.2441(2) 0.9431(3) 0.6021(2)
H1_4 H 0.2228 0.9736 0.6388
O2_4 O 0.03034(15) 0.59400(19) 0.53122(13)
C2_4 C 0.05585(18) 0.7010(2) 0.61980(17)
C3_4 C 0.11455(18) 0.7432(2) 0.58677(17)
H2_4 H 0.1246 0.7276 0.5419
C4_4 C 0.15876(19) 0.8087(3) 0.61972(18)
C5_4 C 0.22008(19) 0.8553(3) 0.58376(18)
C9_4 C 0.00787(18) 0.6324(2) 0.58379(17)
C10_4 C 0.0417(2) 0.7232(3) 0.68700(18)
H5_4 H 0.0022 0.6959 0.7093
C12_4 C 0.3109(2) 0.8617(3) 0.4960(2)
H6_4 H 0.3340 0.8322 0.4598
C18_4 C 0.0862(2) 0.7858(3) 0.72100(19)
H10_4 H 0.0777 0.7986 0.7666
C19_4 C 0.2557(2) 0.8150(3) 0.52930(19)
H11_4 H 0.2422 0.7557 0.5150
C22_4 C 0.1432(2) 0.8292(3) 0.68736(19)
H14_4 H 0.1716 0.8729 0.7102
C24_4 C 0.2999(3) 0.9855(3) 0.5657(2)
O5_3 O 0.05340(13) 0.38635(18) 0.39027(13)
N3_4 N 0.16679(16) 0.4469(2) 0.51267(16)
O7_4 O 0.15567(16) 0.6677(2) 0.42866(14)
O8_4 O 0.18114(17) 0.5535(2) 0.35987(16)
O1_3 O 0.94660(13) 0.61365(18) 0.60973(13)
N2_4 N 0.99985(16) 0.5923(2) 0.37240(15)
O3_4 O 0.65567(16) 0.6677(2) 0.07134(14)
O4_4 O 0.68114(17) 0.5535(2) 0.14013(16)
C6_4 C 0.9178(2) 0.7164(3) 0.34714(19)
H3_4 H 0.8987 0.7740 0.3595
C7_4 C 0.8371(2) 0.7157(3) 0.24380(18)
C8_4 C 0.7776(2) 0.8503(3) 0.1965(2)
H4_4 H 0.7722 0.9146 0.1942
C11_4 C 0.89330(19) 0.6721(3) 0.28869(18)
C13_4 C 0.9706(2) 0.6745(3) 0.38665(19)
H7_4 H 0.9865 0.7054 0.4254
C14_4 C 0.7912(2) 0.6594(3) 0.20449(19)
H8_4 H 0.7952 0.5951 0.2079
C15_4 C 0.6895(2) 0.6350(3) 0.12119(19)
C16_4 C 0.7334(2) 0.7934(3) 0.1572(2)
H9_4 H 0.6989 0.8200 0.1282
C17_4 C 0.7397(2) 0.6972(3) 0.16058(18)
C20_4 C 0.9249(2) 0.5872(3) 0.2736(2)
H12_4 H 0.9105 0.5549 0.2349
C21_4 C 0.8295(2) 0.8123(3) 0.2389(2)
H13_4 H 0.8597 0.8510 0.2644
C23_4 C 0.9773(2) 0.5508(3) 0.3153(2)
H15_4 H 0.9984 0.4941 0.3035
O6_4 O 0.96966(15) 0.40600(19) 0.46878(13)
C1_5 C 0.2441(2) 0.5569(3) 0.1021(2)
H1_5 H 0.2228 0.5264 0.1388
C2_5 C 0.05585(18) 0.7990(2) 0.11980(17)
C3_5 C 0.11455(18) 0.7568(2) 0.08677(17)
H2_5 H 0.1246 0.7724 0.0419
C4_5 C 0.15876(19) 0.6913(3) 0.11972(18)
C5_5 C 0.22008(19) 0.6447(3) 0.08376(18)
C9_5 C 0.00787(18) 0.8676(2) 0.08379(17)
C10_5 C 0.0417(2) 0.7768(3) 0.18700(18)
H5_5 H 0.0022 0.8041 0.2093
C18_5 C 0.0862(2) 0.7142(3) 0.22100(19)
H10_5 H 0.0777 0.7014 0.2666
C19_5 C 0.2557(2) 0.6850(3) 0.02930(19)
H11_5 H 0.2422 0.7443 0.0150
C22_5 C 0.1432(2) 0.6708(3) 0.18736(19)
H14_5 H 0.1716 0.6271 0.2102
C24_5 C 0.2999(3) 0.5145(3) 0.0657(2)
H16_4 H 0.3150 0.4555 0.0791
C12_5 C 0.3109(2) 0.6383(3) 0.9960(2)
H6_5 H 0.3340 0.6678 0.9598
H15_5 H 0.9984 0.0059 0.8035
N2_5 N 0.99985(16) 0.9077(2) 0.87240(15)
C6_5 C 0.9178(2) 0.7836(3) 0.84714(19)
H3_5 H 0.8987 0.7260 0.8595
C7_5 C 0.8371(2) 0.7843(3) 0.74380(18)
C8_5 C 0.7776(2) 0.6497(3) 0.6965(2)
H4_5 H 0.7722 0.5854 0.6942
C11_5 C 0.89330(19) 0.8279(3) 0.78869(18)
C13_5 C 0.9706(2) 0.8255(3) 0.88665(19)
H7_5 H 0.9865 0.7946 0.9254
C14_5 C 0.7912(2) 0.8406(3) 0.70449(19)
H8_5 H 0.7952 0.9049 0.7079
C15_5 C 0.6895(2) 0.8650(3) 0.62119(19)
C16_5 C 0.7334(2) 0.7066(3) 0.6572(2)
H9_5 H 0.6989 0.6800 0.6282
C17_5 C 0.7397(2) 0.8028(3) 0.66058(18)
C20_5 C 0.9249(2) 0.9128(3) 0.7736(2)
H12_5 H 0.9105 0.9451 0.7349
C21_5 C 0.8295(2) 0.6877(3) 0.7389(2)
H13_5 H 0.8597 0.6490 0.7644
C23_5 C 0.9773(2) 0.9492(3) 0.8153(2)
C1_6 C 0.2559(2) 0.4431(3) 0.6021(2)
H1_6 H 0.2772 0.4736 0.6388
N2_6 N 0.50015(16) 0.0923(2) 0.37240(15)
C2_6 C 0.44415(18) 0.2010(2) 0.61980(17)
C3_6 C 0.38545(18) 0.2432(2) 0.58677(17)
H2_6 H 0.3754 0.2276 0.5419
C4_6 C 0.34124(19) 0.3087(3) 0.61972(18)
C5_6 C 0.27992(19) 0.3553(3) 0.58376(18)
C6_6 C 0.5822(2) 0.2164(3) 0.34714(19)
H3_6 H 0.6013 0.2740 0.3595
C7_6 C 0.6629(2) 0.2157(3) 0.24380(18)
C8_6 C 0.7224(2) 0.3503(3) 0.1965(2)
H4_6 H 0.7278 0.4146 0.1942
C9_6 C 0.49213(18) 0.1324(2) 0.58379(17)
C10_6 C 0.4583(2) 0.2232(3) 0.68700(18)
H5_6 H 0.4978 0.1959 0.7093
C11_6 C 0.60670(19) 0.1721(3) 0.28869(18)
C12_6 C 0.1891(2) 0.3617(3) 0.4960(2)
H6_6 H 0.1660 0.3322 0.4598
C13_6 C 0.5294(2) 0.1745(3) 0.38665(19)
H7_6 H 0.5135 0.2054 0.4254
C14_6 C 0.7088(2) 0.1594(3) 0.20449(19)
H8_6 H 0.7048 0.0951 0.2079
C15_6 C 0.8105(2) 0.1350(3) 0.12119(19)
C16_6 C 0.7666(2) 0.2934(3) 0.1572(2)
H9_6 H 0.8011 0.3200 0.1282
C17_6 C 0.7603(2) 0.1972(3) 0.16058(18)
C18_6 C 0.4138(2) 0.2858(3) 0.72100(19)
H10_6 H 0.4223 0.2986 0.7666
C19_6 C 0.2443(2) 0.3150(3) 0.52930(19)
H11_6 H 0.2578 0.2557 0.5150
C20_6 C 0.5751(2) 0.0872(3) 0.2736(2)
H12_6 H 0.5895 0.0549 0.2349
C21_6 C 0.6705(2) 0.3123(3) 0.2389(2)
H13_6 H 0.6403 0.3510 0.2644
C22_6 C 0.3568(2) 0.3292(3) 0.68736(19)
H14_6 H 0.3284 0.3729 0.7102
C23_6 C 0.5227(2) 0.0508(3) 0.3153(2)
C24_6 C 0.2001(3) 0.4855(3) 0.5657(2)
H16_5 H 0.1850 0.5445 0.5791
H15_6 H 0.5016 0.9941 0.3035
N2_7 N 0.49985(16) 0.5923(2) 0.12760(15)
C6_7 C 0.4178(2) 0.7164(3) 0.15286(19)
H3_7 H 0.3987 0.7740 0.1405
C7_7 C 0.3371(2) 0.7157(3) 0.25620(18)
C8_7 C 0.2776(2) 0.8503(3) 0.3035(2)
H4_7 H 0.2722 0.9146 0.3058
C11_7 C 0.39330(19) 0.6721(3) 0.21131(18)
C12_7 C 0.8109(2) 0.8617(3) 0.0040(2)
H6_7 H 0.8340 0.8322 0.0402
C13_7 C 0.4706(2) 0.6745(3) 0.11335(19)
H7_7 H 0.4865 0.7054 0.0746
C14_7 C 0.2912(2) 0.6594(3) 0.29551(19)
H8_7 H 0.2952 0.5951 0.2921
C15_7 C 0.1895(2) 0.6350(3) 0.37881(19)
C16_7 C 0.2334(2) 0.7934(3) 0.3428(2)
H9_7 H 0.1989 0.8200 0.3718
C17_7 C 0.2397(2) 0.6972(3) 0.33942(18)
C20_7 C 0.4249(2) 0.5872(3) 0.2264(2)
H12_7 H 0.4105 0.5549 0.2651
C21_7 C 0.3295(2) 0.8123(3) 0.2611(2)
H13_7 H 0.3597 0.8510 0.2356
C23_7 C 0.4773(2) 0.5508(3) 0.1847(2)
H15_7 H 0.4984 0.4941 0.1965
C1_7 C 0.7441(2) 0.9431(3) 0.8979(2)
H1_7 H 0.7228 0.9736 0.8612
C2_7 C 0.55585(18) 0.7010(2) 0.88020(17)
C3_7 C 0.61455(18) 0.7432(2) 0.91323(17)
H2_7 H 0.6246 0.7276 0.9581
C4_7 C 0.65876(19) 0.8087(3) 0.88028(18)
C5_7 C 0.72008(19) 0.8553(3) 0.91624(18)
C9_7 C 0.50787(18) 0.6324(2) 0.91621(17)
C10_7 C 0.5417(2) 0.7232(3) 0.81300(18)
H5_7 H 0.5022 0.6959 0.7907
C18_7 C 0.5862(2) 0.7858(3) 0.77900(19)
H10_7 H 0.5777 0.7986 0.7334
C19_7 C 0.7557(2) 0.8150(3) 0.97070(19)
H11_7 H 0.7422 0.7557 0.9850
C22_7 C 0.6432(2) 0.8292(3) 0.81264(19)
H14_7 H 0.6716 0.8729 0.7898
C24_7 C 0.7999(3) 0.9855(3) 0.9343(2)
N2_8 N 0.00015(16) 0.4077(2) 0.62760(15)
C6_8 C 0.0822(2) 0.2836(3) 0.65286(19)
H3_8 H 0.1013 0.2260 0.6405
C7_8 C 0.1629(2) 0.2843(3) 0.75620(18)
C8_8 C 0.2224(2) 0.1497(3) 0.8035(2)
H4_8 H 0.2278 0.0854 0.8058
C11_8 C 0.10670(19) 0.3279(3) 0.71131(18)
C13_8 C 0.0294(2) 0.3255(3) 0.61335(19)
H7_8 H 0.0135 0.2946 0.5746
C14_8 C 0.2088(2) 0.3406(3) 0.79551(19)
H8_8 H 0.2048 0.4049 0.7921
C15_8 C 0.3105(2) 0.3650(3) 0.87881(19)
C16_8 C 0.2666(2) 0.2066(3) 0.8428(2)
H9_8 H 0.3011 0.1800 0.8718
C17_8 C 0.2603(2) 0.3028(3) 0.83942(18)
C20_8 C 0.0751(2) 0.4128(3) 0.7264(2)
H12_8 H 0.0895 0.4451 0.7651
C21_8 C 0.1705(2) 0.1877(3) 0.7611(2)
H13_8 H 0.1403 0.1490 0.7356
C23_8 C 0.0227(2) 0.4492(3) 0.6847(2)
H15_8 H 0.0016 0.5059 0.6965
C1_8 C 0.7559(2) 0.0569(3) 0.3979(2)
H1_8 H 0.7772 0.0264 0.3612
C2_8 C 0.94415(18) 0.2990(2) 0.38020(17)
C3_8 C 0.88545(18) 0.2568(2) 0.41323(17)
H2_8 H 0.8754 0.2724 0.4581
C4_8 C 0.84124(19) 0.1913(3) 0.38028(18)
C5_8 C 0.77992(19) 0.1447(3) 0.41624(18)
C9_8 C 0.99213(18) 0.3676(2) 0.41621(17)
C10_8 C 0.9583(2) 0.2768(3) 0.31300(18)
H5_8 H 0.9978 0.3041 0.2907
C12_8 C 0.6891(2) 0.1383(3) 0.5040(2)
H6_8 H 0.6660 0.1678 0.5402
C18_8 C 0.9138(2) 0.2142(3) 0.27900(19)
H10_8 H 0.9223 0.2014 0.2334
C19_8 C 0.7443(2) 0.1850(3) 0.47070(19)
H11_8 H 0.7578 0.2443 0.4850
C22_8 C 0.8568(2) 0.1708(3) 0.31264(19)
H14_8 H 0.8284 0.1271 0.2898
C24_8 C 0.7001(3) 0.0145(3) 0.4343(2)
H16_6 H 0.6850 0.9555 0.4209
O1_4 O 0.05340(13) 0.11365(18) 0.89027(13)
O5_4 O 0.94660(13) 0.88635(18) 0.10973(13)
H16_7 H 0.1850 0.9555 0.0791
H16_8 H 0.8150 0.0445 0.9209
loop_
_geom_bond_atom_site_label_1
_geom_bond_atom_site_label_2
_geom_bond_site_symmetry_1
_geom_bond_site_symmetry_2
N2 C13 1_555 1_555
O3 C15 1_555 1_555
O4 C15 1_555 1_555
C6 H3 1_555 1_555
C7 C11 1_555 1_555
C8 H4 1_555 1_555
C11 C6 1_555 1_555
C13 C6 1_555 1_555
H7 C13 1_555 1_555
C14 C7 1_555 1_555
H8 C14 1_555 1_555
C15 C17 1_555 1_555
C16 C8 1_555 1_555
H9 C16 1_555 1_555
C17 C14 1_555 1_555
C20 C11 1_555 1_555
H12 C20 1_555 1_555
C21 C7 1_555 1_555
H13 C21 1_555 1_555
C23 N2 1_555 1_555
Cd3 O3 1_555 1_555
O4 Cd3 1_555 1_555
C8 C21 1_555 1_555
C16 C17 1_555 1_555
C20 C23 1_555 1_555
C12 H6 1_555 1_555
O7 Cd1 1_555 1_555
O8 Cd1 1_555 1_555
C1 H1 1_555 1_555
C2 C3 1_555 1_555
C3 H2 1_555 1_555
C4 C3 1_555 1_555
C5 C1 1_555 1_555
C9 O2 1_555 1_555
C10 C2 1_555 1_555
H5 C10 1_555 1_555
C18 C10 1_555 1_555
H10 C18 1_555 1_555
C19 C5 1_555 1_555
H11 C19 1_555 1_555
C22 C4 1_555 1_555
H14 C22 1_555 1_555
C24 N1 1_555 1_555
H16 C24 1_555 1_555
C1 C24 1_555 1_555
C2 C9 1_555 1_555
C4 C5 1_555 1_555
C18 C22 1_555 1_555
Cd3 O6_2 1_555 1_555
Cd1_2 N2_2 1_555 1_555
O1 C9_2 1_555 1_555
N1_2 C12_2 1_555 1_555
C1_2 H1_2 1_555 1_555
N2_2 C13_2 1_555 1_555
O2_2 Cd1_2 1_555 1_555
O3_2 C15_2 1_555 1_555
O4_2 C15_2 1_555 1_555
C2_2 C3_2 1_555 1_555
C3_2 H2_2 1_555 1_555
C4_2 C3_2 1_555 1_555
C5_2 C1_2 1_555 1_555
C6_2 H3_2 1_555 1_555
C7_2 C11_2 1_555 1_555
C8_2 H4_2 1_555 1_555
C9_2 O2_2 1_555 1_555
C10_2 C2_2 1_555 1_555
H5_2 C10_2 1_555 1_555
C11_2 C6_2 1_555 1_555
C12_2 H6_2 1_555 1_555
C13_2 C6_2 1_555 1_555
H7_2 C13_2 1_555 1_555
C14_2 C7_2 1_555 1_555
H8_2 C14_2 1_555 1_555
C15_2 C17_2 1_555 1_555
C16_2 C8_2 1_555 1_555
H9_2 C16_2 1_555 1_555
C17_2 C14_2 1_555 1_555
C18_2 C10_2 1_555 1_555
H10_2 C18_2 1_555 1_555
C19_2 C5_2 1_555 1_555
H11_2 C19_2 1_555 1_555
C20_2 C11_2 1_555 1_555
H12_2 C20_2 1_555 1_555
C21_2 C7_2 1_555 1_555
H13_2 C21_2 1_555 1_555
C22_2 C4_2 1_555 1_555
H14_2 C22_2 1_555 1_555
C23_2 N2_2 1_555 1_555
C24_2 N1_2 1_555 1_555
H16_2 C24_2 1_555 1_555
Cd2 O3_2 1_555 1_555
Cd4_2 N1_2 1_555 1_555
O7_2 Cd1_2 1_555 1_555
O8_2 Cd1_2 1_555 1_555
C1_2 C24_2 1_555 1_555
O4_2 Cd2 1_555 1_555
C2_2 C9_2 1_555 1_555
C4_2 C5_2 1_555 1_555
C8_2 C21_2 1_555 1_555
C12_2 C19_2 1_555 1_555
C16_2 C17_2 1_555 1_555
C18_2 C22_2 1_555 1_555
C20_2 C23_2 1_555 1_555
O1_2 C9_3 1_555 1_555
C1_3 H1_3 1_555 1_555
C2_3 C3_3 1_555 1_555
C3_3 H2_3 1_555 1_555
C4_3 C3_3 1_555 1_555
C5_3 C1_3 1_555 1_555
C9_3 O2_3 1_555 1_555
C10_3 C2_3 1_555 1_555
H5_3 C10_3 1_555 1_555
C18_3 C10_3 1_555 1_555
H10_3 C18_3 1_555 1_555
C19_3 C5_3 1_555 1_555
H11_3 C19_3 1_555 1_555
C22_3 C4_3 1_555 1_555
H14_3 C22_3 1_555 1_555
C24_3 N1_3 1_555 1_555
Cd4 O1_2 1_555 1_555
C1_3 C24_3 1_555 1_555
O2_3 Cd4 1_555 1_555
C2_3 C9_3 1_555 1_555
C4_3 C5_3 1_555 1_555
C18_3 C22_3 1_555 1_555
Cd1_3 N2_3 1_555 1_555
N2_3 C13_3 1_555 1_555
O3_3 C15_3 1_555 1_555
O4_3 C15_3 1_555 1_555
C6_3 H3_3 1_555 1_555
C7_3 C11_3 1_555 1_555
C8_3 H4_3 1_555 1_555
C11_3 C6_3 1_555 1_555
C12_3 H6_3 1_555 1_555
C13_3 C6_3 1_555 1_555
H7_3 C13_3 1_555 1_555
C14_3 C7_3 1_555 1_555
H8_3 C14_3 1_555 1_555
C15_3 C17_3 1_555 1_555
C16_3 C8_3 1_555 1_555
H9_3 C16_3 1_555 1_555
C17_3 C14_3 1_555 1_555
C20_3 C11_3 1_555 1_555
H12_3 C20_3 1_555 1_555
C21_3 C7_3 1_555 1_555
H13_3 C21_3 1_555 1_555
C23_3 N2_3 1_555 1_555
H15_3 C23_3 1_555 1_555
Cd4_2 O3_3 1_555 1_555
O5_2 Cd1_3 1_555 1_555
O6_3 Cd1_3 1_555 1_555
O7_3 Cd1_3 1_555 1_555
O8_3 Cd1_3 1_555 1_555
O4_3 Cd4_2 1_555 1_555
C8_3 C21_3 1_555 1_555
C16_3 C17_3 1_555 1_555
C20_3 C23_3 1_555 1_555
N1_4 C12_4 1_555 1_555
C1_4 H1_4 1_555 1_555
O2_4 Cd1_4 1_555 1_555
C2_4 C3_4 1_555 1_555
C3_4 H2_4 1_555 1_555
C4_4 C3_4 1_555 1_555
C5_4 C1_4 1_555 1_555
C9_4 O2_4 1_555 1_555
C10_4 C2_4 1_555 1_555
H5_4 C10_4 1_555 1_555
C12_4 H6_4 1_555 1_555
C18_4 C10_4 1_555 1_555
H10_4 C18_4 1_555 1_555
C19_4 C5_4 1_555 1_555
H11_4 C19_4 1_555 1_555
C22_4 C4_4 1_555 1_555
H14_4 C22_4 1_555 1_555
C24_4 N1_4 1_555 1_555
O5_3 Cd1_4 1_555 1_555
N3_4 Cd1_4 1_555 1_555
O7_4 Cd1_4 1_555 1_555
O8_4 Cd1_4 1_555 1_555
C1_4 C24_4 1_555 1_555
C2_4 C9_4 1_555 1_555
C4_4 C5_4 1_555 1_555
C12_4 C19_4 1_555 1_555
C18_4 C22_4 1_555 1_555
N2_4 C13_4 1_555 1_555
O3_4 C15_4 1_555 1_555
O4_4 C15_4 1_555 1_555
C6_4 H3_4 1_555 1_555
C7_4 C11_4 1_555 1_555
C8_4 H4_4 1_555 1_555
C11_4 C6_4 1_555 1_555
C13_4 C6_4 1_555 1_555
H7_4 C13_4 1_555 1_555
C14_4 C7_4 1_555 1_555
H8_4 C14_4 1_555 1_555
C15_4 C17_4 1_555 1_555
C16_4 C8_4 1_555 1_555
H9_4 C16_4 1_555 1_555
C17_4 C14_4 1_555 1_555
C20_4 C11_4 1_555 1_555
H12_4 C20_4 1_555 1_555
C21_4 C7_4 1_555 1_555
H13_4 C21_4 1_555 1_555
C23_4 N2_4 1_555 1_555
H15_4 C23_4 1_555 1_555
Cd4_2 O1_3 1_555 1_555
Cd4 O3_4 1_555 1_555
O4_4 Cd4 1_555 1_555
C8_4 C21_4 1_555 1_555
C16_4 C17_4 1_555 1_555
C20_4 C23_4 1_555 1_555
Cd4_2 O6_4 1_555 1_555
C1_5 H1_5 1_555 1_555
C2_5 C3_5 1_555 1_555
C3_5 H2_5 1_555 1_555
C4_5 C3_5 1_555 1_555
C5_5 C1_5 1_555 1_555
C9_5 O6 1_555 1_555
C10_5 C2_5 1_555 1_555
H5_5 C10_5 1_555 1_555
C18_5 C10_5 1_555 1_555
H10_5 C18_5 1_555 1_555
C19_5 C5_5 1_555 1_555
H11_5 C19_5 1_555 1_555
C22_5 C4_5 1_555 1_555
H14_5 C22_5 1_555 1_555
C24_5 N3_3 1_555 1_555
H16_4 C24_5 1_555 1_555
C1_5 C24_5 1_555 1_555
C2_5 C9_5 1_555 1_555
C4_5 C5_5 1_555 1_555
C18_5 C22_5 1_555 1_555
C12_5 H6_5 1_555 1_555
N2_5 C13_5 1_555 1_555
O7_2 C15_5 1_555 1_555
O8_2 C15_5 1_555 1_555
C6_5 H3_5 1_555 1_555
C7_5 C11_5 1_555 1_555
C8_5 H4_5 1_555 1_555
C11_5 C6_5 1_555 1_555
C13_5 C6_5 1_555 1_555
H7_5 C13_5 1_555 1_555
C14_5 C7_5 1_555 1_555
H8_5 C14_5 1_555 1_555
C15_5 C17_5 1_555 1_555
C16_5 C8_5 1_555 1_555
H9_5 C16_5 1_555 1_555
C17_5 C14_5 1_555 1_555
C20_5 C11_5 1_555 1_555
H12_5 C20_5 1_555 1_555
C21_5 C7_5 1_555 1_555
H13_5 C21_5 1_555 1_555
C23_5 N2_5 1_555 1_555
C8_5 C21_5 1_555 1_555
C16_5 C17_5 1_555 1_555
C20_5 C23_5 1_555 1_555
Cd3 N2_6 1_555 1_555
O5 C9_6 1_555 1_555
N3_4 C12_6 1_555 1_555
C1_6 H1_6 1_555 1_555
N2_6 C13_6 1_555 1_555
O7 C15_6 1_555 1_555
O8 C15_6 1_555 1_555
C2_6 C3_6 1_555 1_555
C3_6 H2_6 1_555 1_555
C4_6 C3_6 1_555 1_555
C5_6 C1_6 1_555 1_555
C6_6 H3_6 1_555 1_555
C7_6 C11_6 1_555 1_555
C8_6 H4_6 1_555 1_555
C9_6 O6_2 1_555 1_555
C10_6 C2_6 1_555 1_555
H5_6 C10_6 1_555 1_555
C11_6 C6_6 1_555 1_555
C12_6 H6_6 1_555 1_555
C13_6 C6_6 1_555 1_555
H7_6 C13_6 1_555 1_555
C14_6 C7_6 1_555 1_555
H8_6 C14_6 1_555 1_555
C15_6 C17_6 1_555 1_555
C16_6 C8_6 1_555 1_555
H9_6 C16_6 1_555 1_555
C17_6 C14_6 1_555 1_555
C18_6 C10_6 1_555 1_555
H10_6 C18_6 1_555 1_555
C19_6 C5_6 1_555 1_555
H11_6 C19_6 1_555 1_555
C20_6 C11_6 1_555 1_555
H12_6 C20_6 1_555 1_555
C21_6 C7_6 1_555 1_555
H13_6 C21_6 1_555 1_555
C22_6 C4_6 1_555 1_555
H14_6 C22_6 1_555 1_555
C23_6 N2_6 1_555 1_555
C24_6 N3_4 1_555 1_555
H16_5 C24_6 1_555 1_555
C1_6 C24_6 1_555 1_555
C2_6 C9_6 1_555 1_555
C4_6 C5_6 1_555 1_555
C8_6 C21_6 1_555 1_555
C12_6 C19_6 1_555 1_555
C16_6 C17_6 1_555 1_555
C18_6 C22_6 1_555 1_555
C20_6 C23_6 1_555 1_555
Cd4 N2_7 1_555 1_555
N2_7 C13_7 1_555 1_555
O7_4 C15_7 1_555 1_555
O8_4 C15_7 1_555 1_555
C6_7 H3_7 1_555 1_555
C7_7 C11_7 1_555 1_555
C8_7 H4_7 1_555 1_555
C11_7 C6_7 1_555 1_555
C12_7 H6_7 1_555 1_555
C13_7 C6_7 1_555 1_555
H7_7 C13_7 1_555 1_555
C14_7 C7_7 1_555 1_555
H8_7 C14_7 1_555 1_555
C15_7 C17_7 1_555 1_555
C16_7 C8_7 1_555 1_555
H9_7 C16_7 1_555 1_555
C17_7 C14_7 1_555 1_555
C20_7 C11_7 1_555 1_555
H12_7 C20_7 1_555 1_555
C21_7 C7_7 1_555 1_555
H13_7 C21_7 1_555 1_555
C23_7 N2_7 1_555 1_555
H15_7 C23_7 1_555 1_555
C8_7 C21_7 1_555 1_555
C16_7 C17_7 1_555 1_555
C20_7 C23_7 1_555 1_555
O5_2 C9_7 1_555 1_555
C1_7 H1_7 1_555 1_555
C2_7 C3_7 1_555 1_555
C3_7 H2_7 1_555 1_555
C4_7 C3_7 1_555 1_555
C5_7 C1_7 1_555 1_555
C9_7 O6_3 1_555 1_555
C10_7 C2_7 1_555 1_555
H5_7 C10_7 1_555 1_555
C18_7 C10_7 1_555 1_555
H10_7 C18_7 1_555 1_555
C19_7 C5_7 1_555 1_555
H11_7 C19_7 1_555 1_555
C22_7 C4_7 1_555 1_555
H14_7 C22_7 1_555 1_555
C24_7 N3 1_555 1_555
C1_7 C24_7 1_555 1_555
C2_7 C9_7 1_555 1_555
C4_7 C5_7 1_555 1_555
C18_7 C22_7 1_555 1_555
N2_8 C13_8 1_555 1_555
O7_3 C15_8 1_555 1_555
O8_3 C15_8 1_555 1_555
C6_8 H3_8 1_555 1_555
C7_8 C11_8 1_555 1_555
C8_8 H4_8 1_555 1_555
C11_8 C6_8 1_555 1_555
C13_8 C6_8 1_555 1_555
H7_8 C13_8 1_555 1_555
C14_8 C7_8 1_555 1_555
H8_8 C14_8 1_555 1_555
C15_8 C17_8 1_555 1_555
C16_8 C8_8 1_555 1_555
H9_8 C16_8 1_555 1_555
C17_8 C14_8 1_555 1_555
C20_8 C11_8 1_555 1_555
H12_8 C20_8 1_555 1_555
C21_8 C7_8 1_555 1_555
H13_8 C21_8 1_555 1_555
C23_8 N2_8 1_555 1_555
H15_8 C23_8 1_555 1_555
C8_8 C21_8 1_555 1_555
C16_8 C17_8 1_555 1_555
C20_8 C23_8 1_555 1_555
N3_2 C12_8 1_555 1_555
C1_8 H1_8 1_555 1_555
C2_8 C3_8 1_555 1_555
C3_8 H2_8 1_555 1_555
C4_8 C3_8 1_555 1_555
C5_8 C1_8 1_555 1_555
C9_8 O6_4 1_555 1_555
C10_8 C2_8 1_555 1_555
H5_8 C10_8 1_555 1_555
C12_8 H6_8 1_555 1_555
C18_8 C10_8 1_555 1_555
H10_8 C18_8 1_555 1_555
C19_8 C5_8 1_555 1_555
H11_8 C19_8 1_555 1_555
C22_8 C4_8 1_555 1_555
H14_8 C22_8 1_555 1_555
C24_8 N3_2 1_555 1_555
C1_8 C24_8 1_555 1_555
C2_8 C9_8 1_555 1_555
C4_8 C5_8 1_555 1_555
C12_8 C19_8 1_555 1_555
C18_8 C22_8 1_555 1_555

#END
