
###############################################################################
#
# This file contains modified crystal structure data generated from the
# MOF subset of the Cambridge Structural Database (CSD) v543 
# hosted by the Cambridge Crystallographic Data Centre (CCDC).
#
# This work is licensed under the Creative Commons
# Attribution-NonCommercial-ShareAlike 4.0 International License.
# To view a copy of this license, visit
# http://creativecommons.org/licenses/by-nc-sa/4.0/
# or send a letter to
# Creative Commons, PO Box 1866, Mountain View, CA 94042, USA.
#
# CIF created using the CSD Python API on 29 September 2022
# The structure has been converted into the P1 space group
# The structure has a 3D framework
# The original CSD entry PIHJOH02 is in the monoclinic crystal system
# The framework has been calculated to contain at least 10.0% void space
# The void calculation uses a probe of radius 1.32A, grid spacing 0.4
#
###############################################################################

data_PIHJOH02
_chemical_formula_moiety         '(C96 H64 Mn4 N8 O12)n'
_symmetry_cell_setting           triclinic
_symmetry_space_group_name_H-M   'P 1'
_symmetry_Int_Tables_number      1
_space_group_name_Hall           'P 1'
loop_
_symmetry_equiv_pos_site_id
_symmetry_equiv_pos_as_xyz
1 x,y,z
_cell_length_a                   8.5203(9)
_cell_length_b                   15.0866(17)
_cell_length_c                   18.313(2)
_cell_angle_alpha                90
_cell_angle_beta                 97.9420(10)
_cell_angle_gamma                90
_cell_volume                     2331.42
loop_
_atom_site_label
_atom_site_type_symbol
_atom_site_fract_x
_atom_site_fract_y
_atom_site_fract_z
H1 H 0.0304 0.1533 0.2866
C9 C 0.1204(2) 0.20000(14) 0.15167(11)
C11 C 0.1969(2) 0.25546(13) 0.10843(11)
H5 H 0.1777 0.1592 0.1827
H7 H 0.3062 0.2497 0.1107
O5 O 0.05336(14) 0.09527(9) 0.41329(7)
Mn2 Mn 0.2500 0.07801(2) 0.5000
N3 N 0.12421(18) 0.31696(10) 0.06345(8)
Mn4 Mn 0.2500 0.42199(2) 0.0000
Mn4_2 Mn 0.2500 0.42199(2) 1.0000
O1 O 0.83755(15) 0.02218(9) 0.43306(7)
C1 C 0.9189(2) 0.06374(11) 0.39305(9)
C2 C 0.8488(2) 0.08057(11) 0.31384(10)
C3 C 0.9308(2) 0.13127(11) 0.26823(9)
C4 C 0.7016(2) 0.04693(16) 0.28594(12)
C5 C 0.8674(2) 0.14988(12) 0.19563(10)
H2 H 0.6457 0.0126 0.3157
C6 C 0.6373(3) 0.06442(19) 0.21354(14)
C7 C 0.9562(2) 0.20548(12) 0.14864(9)
C8 C 0.7186(3) 0.11582(17) 0.16916(12)
H3 H 0.5387 0.0413 0.1949
C10 C 0.8796(2) 0.26805(13) 0.10077(11)
H4 H 0.6735 0.1279 0.1210
C12 C 0.9658(2) 0.32230(13) 0.06066(11)
H6 H 0.7699 0.2734 0.0958
H8 H 0.9118 0.3648 0.0301
O3 O 0.66245(15) 0.02218(9) 0.56694(7)
C13 C 0.5811(2) 0.06374(11) 0.60695(9)
O6 O 0.44664(14) 0.09527(9) 0.58671(7)
C14 C 0.6512(2) 0.08057(11) 0.68616(10)
C15 C 0.5692(2) 0.13127(11) 0.73177(9)
C16 C 0.7984(2) 0.04693(16) 0.71406(12)
H9 H 0.4696 0.1533 0.7134
C17 C 0.6326(2) 0.14988(12) 0.80437(10)
H10 H 0.8543 0.0126 0.6843
C18 C 0.8627(3) 0.06442(19) 0.78646(14)
C19 C 0.5438(2) 0.20548(12) 0.85136(9)
C20 C 0.7814(3) 0.11582(17) 0.83084(12)
H11 H 0.9613 0.0413 0.8051
C21 C 0.3796(2) 0.20000(14) 0.84833(11)
C22 C 0.6204(2) 0.26805(13) 0.89923(11)
H12 H 0.8265 0.1279 0.8790
C23 C 0.3031(2) 0.25546(13) 0.89157(11)
H13 H 0.3223 0.1592 0.8173
C24 C 0.5342(2) 0.32230(13) 0.93934(11)
H14 H 0.7301 0.2734 0.9042
N4 N 0.37579(18) 0.31696(10) 0.93655(8)
H15 H 0.1938 0.2497 0.8893
H16 H 0.5882 0.3648 0.9699
Mn1 Mn 0.7500 0.92199(2) 0.5000
N1 N 0.62421(18) 0.81696(10) 0.56345(8)
O2 O 0.94664(14) 0.90473(9) 0.58671(7)
N2 N 0.87579(18) 0.81696(10) 0.43655(8)
O4 O 0.55336(14) 0.90473(9) 0.41329(7)
O2_2 O 0.44664(14) 0.40473(9) 0.08671(7)
O3_2 O 0.16245(15) 0.52218(9) 0.06694(7)
C13_2 C 0.0811(2) 0.56374(11) 0.10695(9)
C14_2 C 0.1512(2) 0.58057(11) 0.18616(10)
Mn2_2 Mn 0.7500 0.57801(2) 0.0000
C15_2 C 0.0692(2) 0.63127(11) 0.23177(9)
C16_2 C 0.2984(2) 0.54693(16) 0.21406(12)
C17_2 C 0.1326(2) 0.64988(12) 0.30437(10)
H10_2 H 0.3543 0.5126 0.1843
C18_2 C 0.3627(3) 0.56442(19) 0.28646(14)
C19_2 C 0.0438(2) 0.70548(12) 0.35136(9)
C20_2 C 0.2814(3) 0.61582(17) 0.33084(12)
H11_2 H 0.4613 0.5413 0.3051
C22_2 C 0.1204(2) 0.76805(13) 0.39923(11)
H12_2 H 0.3265 0.6279 0.3790
C24_2 C 0.0342(2) 0.82230(13) 0.43934(11)
H14_2 H 0.2301 0.7734 0.4042
H16_2 H 0.0882 0.8648 0.4699
O1_2 O 0.33755(15) 0.52218(9) 0.93306(7)
C1_2 C 0.4189(2) 0.56374(11) 0.89305(9)
C2_2 C 0.3488(2) 0.58057(11) 0.81384(10)
C3_2 C 0.4308(2) 0.63127(11) 0.76823(9)
C4_2 C 0.2016(2) 0.54693(16) 0.78594(12)
H1_2 H 0.5304 0.6533 0.7866
C5_2 C 0.3674(2) 0.64988(12) 0.69563(10)
H2_2 H 0.1457 0.5126 0.8157
C6_2 C 0.1373(3) 0.56442(19) 0.71354(14)
C7_2 C 0.4562(2) 0.70548(12) 0.64864(9)
C8_2 C 0.2186(3) 0.61582(17) 0.66916(12)
H3_2 H 0.0387 0.5413 0.6949
C9_2 C 0.6204(2) 0.70000(14) 0.65167(11)
C10_2 C 0.3796(2) 0.76805(13) 0.60077(11)
H4_2 H 0.1735 0.6279 0.6210
C11_2 C 0.6969(2) 0.75546(13) 0.60843(11)
H5_2 H 0.6777 0.6592 0.6827
C12_2 C 0.4658(2) 0.82230(13) 0.56066(11)
H6_2 H 0.2699 0.7734 0.5958
H7_2 H 0.8062 0.7497 0.6107
H8_2 H 0.4118 0.8648 0.5301
O4_2 O 0.05336(14) 0.40473(9) 0.91329(7)
O5_2 O 0.55336(14) 0.59527(9) 0.91329(7)
Mn2_3 Mn 0.7500 0.57801(2) 1.0000
O6_2 O 0.94664(14) 0.59527(9) 0.08671(7)
H9_2 H 0.9696 0.6533 0.2134
C21_2 C 0.8796(2) 0.70000(14) 0.34833(11)
C23_2 C 0.8031(2) 0.75546(13) 0.39157(11)
H13_2 H 0.8223 0.6592 0.3173
H15_2 H 0.6938 0.7497 0.3893
N1_2 N 0.37579(18) 0.18304(10) 0.43655(8)
N2_2 N 0.12421(18) 0.18304(10) 0.56345(8)
O1_3 O 0.16245(15) 0.97782(9) 0.56694(7)
C1_3 C 0.0811(2) 0.93626(11) 0.60695(9)
C2_3 C 0.1512(2) 0.91943(11) 0.68616(10)
C3_3 C 0.0692(2) 0.86873(11) 0.73177(9)
C4_3 C 0.2984(2) 0.95307(16) 0.71406(12)
C5_3 C 0.1326(2) 0.85012(12) 0.80437(10)
H2_3 H 0.3543 0.9874 0.6843
C6_3 C 0.3627(3) 0.93558(19) 0.78646(14)
C7_3 C 0.0438(2) 0.79452(12) 0.85136(9)
C8_3 C 0.2814(3) 0.88418(17) 0.83084(12)
H3_3 H 0.4613 0.9587 0.8051
C10_3 C 0.1204(2) 0.73195(13) 0.89923(11)
H4_3 H 0.3265 0.8721 0.8790
C12_3 C 0.0342(2) 0.67770(13) 0.93934(11)
H6_3 H 0.2301 0.7266 0.9042
H8_3 H 0.0882 0.6352 0.9699
O3_3 O 0.33755(15) 0.97782(9) 0.43306(7)
C13_3 C 0.4189(2) 0.93626(11) 0.39305(9)
C14_3 C 0.3488(2) 0.91943(11) 0.31384(10)
C15_3 C 0.4308(2) 0.86873(11) 0.26823(9)
C16_3 C 0.2016(2) 0.95307(16) 0.28594(12)
H9_3 H 0.5304 0.8467 0.2866
C17_3 C 0.3674(2) 0.85012(12) 0.19563(10)
H10_3 H 0.1457 0.9874 0.3157
C18_3 C 0.1373(3) 0.93558(19) 0.21354(14)
C19_3 C 0.4562(2) 0.79452(12) 0.14864(9)
C20_3 C 0.2186(3) 0.88418(17) 0.16916(12)
H11_3 H 0.0387 0.9587 0.1949
C21_3 C 0.6204(2) 0.80000(14) 0.15167(11)
C22_3 C 0.3796(2) 0.73195(13) 0.10077(11)
H12_3 H 0.1735 0.8721 0.1210
C23_3 C 0.6969(2) 0.74454(13) 0.10843(11)
H13_3 H 0.6777 0.8408 0.1827
C24_3 C 0.4658(2) 0.67770(13) 0.06066(11)
H14_3 H 0.2699 0.7266 0.0958
N4_2 N 0.62421(18) 0.68304(10) 0.06345(8)
H15_3 H 0.8062 0.7503 0.1107
H16_3 H 0.4118 0.6352 0.0301
H1_3 H 0.9696 0.8467 0.7134
C9_3 C 0.8796(2) 0.80000(14) 0.84833(11)
C11_3 C 0.8031(2) 0.74454(13) 0.89157(11)
H5_3 H 0.8223 0.8408 0.8173
H7_3 H 0.6938 0.7503 0.8893
N3_2 N 0.87579(18) 0.68304(10) 0.93655(8)
H9_4 H 0.0304 0.3467 0.7866
C21_4 C 0.1204(2) 0.30000(14) 0.65167(11)
C23_4 C 0.1969(2) 0.24454(13) 0.60843(11)
H13_4 H 0.1777 0.3408 0.6827
H15_4 H 0.3062 0.2503 0.6107
O1_4 O 0.66245(15) 0.47782(9) 0.06694(7)
C1_4 C 0.5811(2) 0.43626(11) 0.10695(9)
C2_4 C 0.6512(2) 0.41943(11) 0.18616(10)
C3_4 C 0.5692(2) 0.36873(11) 0.23177(9)
C4_4 C 0.7984(2) 0.45307(16) 0.21406(12)
H1_4 H 0.4696 0.3467 0.2134
C5_4 C 0.6326(2) 0.35012(12) 0.30437(10)
H2_4 H 0.8543 0.4874 0.1843
C6_4 C 0.8627(3) 0.43558(19) 0.28646(14)
C7_4 C 0.5438(2) 0.29452(12) 0.35136(9)
C8_4 C 0.7814(3) 0.38418(17) 0.33084(12)
H3_4 H 0.9613 0.4587 0.3051
C9_4 C 0.3796(2) 0.30000(14) 0.34833(11)
C10_4 C 0.6204(2) 0.23195(13) 0.39923(11)
H4_4 H 0.8265 0.3721 0.3790
C11_4 C 0.3031(2) 0.24454(13) 0.39157(11)
H5_4 H 0.3223 0.3408 0.3173
C12_4 C 0.5342(2) 0.17770(13) 0.43934(11)
H6_4 H 0.7301 0.2266 0.4042
H7_4 H 0.1938 0.2503 0.3893
H8_4 H 0.5882 0.1352 0.4699
O3_4 O 0.83755(15) 0.47782(9) 0.93306(7)
C13_4 C 0.9189(2) 0.43626(11) 0.89305(9)
C14_4 C 0.8488(2) 0.41943(11) 0.81384(10)
C15_4 C 0.9308(2) 0.36873(11) 0.76823(9)
C16_4 C 0.7016(2) 0.45307(16) 0.78594(12)
C17_4 C 0.8674(2) 0.35012(12) 0.69563(10)
H10_4 H 0.6457 0.4874 0.8157
C18_4 C 0.6373(3) 0.43558(19) 0.71354(14)
C19_4 C 0.9562(2) 0.29452(12) 0.64864(9)
C20_4 C 0.7186(3) 0.38418(17) 0.66916(12)
H11_4 H 0.5387 0.4587 0.6949
C22_4 C 0.8796(2) 0.23195(13) 0.60077(11)
H12_4 H 0.6735 0.3721 0.6210
C24_4 C 0.9658(2) 0.17770(13) 0.56066(11)
H14_4 H 0.7699 0.2266 0.5958
H16_4 H 0.9118 0.1352 0.5301
loop_
_geom_bond_atom_site_label_1
_geom_bond_atom_site_label_2
_geom_bond_site_symmetry_1
_geom_bond_site_symmetry_2
C11 C9 1_555 1_555
H5 C9 1_555 1_555
H7 C11 1_555 1_555
Mn2 O5 1_555 1_555
N3 C11 1_555 1_555
Mn4 N3 1_555 1_555
C1 O1 1_555 1_555
C2 C1 1_555 1_555
C3 C2 1_555 1_555
C4 C2 1_555 1_555
C5 C3 1_555 1_555
H2 C4 1_555 1_555
C6 C4 1_555 1_555
C7 C5 1_555 1_555
C8 C5 1_555 1_555
H3 C6 1_555 1_555
C10 C7 1_555 1_555
H4 C8 1_555 1_555
C12 C10 1_555 1_555
H6 C10 1_555 1_555
H8 C12 1_555 1_555
C13 O3 1_555 1_555
O6 C13 1_555 1_555
C14 C13 1_555 1_555
Mn2 O6 1_555 1_555
C15 C14 1_555 1_555
C16 C14 1_555 1_555
H9 C15 1_555 1_555
C17 C15 1_555 1_555
H10 C16 1_555 1_555
C18 C16 1_555 1_555
C19 C17 1_555 1_555
C20 C17 1_555 1_555
H11 C18 1_555 1_555
C21 C19 1_555 1_555
C22 C19 1_555 1_555
H12 C20 1_555 1_555
C23 C21 1_555 1_555
H13 C21 1_555 1_555
C24 C22 1_555 1_555
H14 C22 1_555 1_555
N4 C23 1_555 1_555
H15 C23 1_555 1_555
H16 C24 1_555 1_555
Mn4_2 N4 1_555 1_555
C6 C8 1_555 1_555
C18 C20 1_555 1_555
C24 N4 1_555 1_555
Mn1 N1 1_555 1_555
O2 Mn1 1_555 1_555
N2 Mn1 1_555 1_555
O4 Mn1 1_555 1_555
O2_2 Mn4 1_555 1_555
O3_2 Mn4 1_555 1_555
C13_2 O3_2 1_555 1_555
C14_2 C13_2 1_555 1_555
C15_2 C14_2 1_555 1_555
C16_2 C14_2 1_555 1_555
C17_2 C15_2 1_555 1_555
H10_2 C16_2 1_555 1_555
C18_2 C16_2 1_555 1_555
C19_2 C17_2 1_555 1_555
C20_2 C17_2 1_555 1_555
H11_2 C18_2 1_555 1_555
C22_2 C19_2 1_555 1_555
H12_2 C20_2 1_555 1_555
C24_2 C22_2 1_555 1_555
H14_2 C22_2 1_555 1_555
H16_2 C24_2 1_555 1_555
C18_2 C20_2 1_555 1_555
O1_2 Mn4_2 1_555 1_555
C1_2 O1_2 1_555 1_555
C2_2 C1_2 1_555 1_555
C3_2 C2_2 1_555 1_555
C4_2 C2_2 1_555 1_555
H1_2 C3_2 1_555 1_555
C5_2 C3_2 1_555 1_555
H2_2 C4_2 1_555 1_555
C6_2 C4_2 1_555 1_555
C7_2 C5_2 1_555 1_555
C8_2 C5_2 1_555 1_555
H3_2 C6_2 1_555 1_555
C9_2 C7_2 1_555 1_555
C10_2 C7_2 1_555 1_555
H4_2 C8_2 1_555 1_555
C11_2 C9_2 1_555 1_555
H5_2 C9_2 1_555 1_555
C12_2 C10_2 1_555 1_555
H6_2 C10_2 1_555 1_555
H7_2 C11_2 1_555 1_555
H8_2 C12_2 1_555 1_555
O4_2 Mn4_2 1_555 1_555
O5_2 C1_2 1_555 1_555
Mn2_3 O5_2 1_555 1_555
N1 C11_2 1_555 1_555
C6_2 C8_2 1_555 1_555
C12_2 N1 1_555 1_555
Mn2_2 O6_2 1_555 1_555
C23_2 C21_2 1_555 1_555
H13_2 C21_2 1_555 1_555
N2 C23_2 1_555 1_555
H15_2 C23_2 1_555 1_555
Mn2 N1_2 1_555 1_555
N2_2 Mn2 1_555 1_555
C1_3 O1_3 1_555 1_555
C2_3 C1_3 1_555 1_555
C3_3 C2_3 1_555 1_555
C4_3 C2_3 1_555 1_555
C5_3 C3_3 1_555 1_555
H2_3 C4_3 1_555 1_555
C6_3 C4_3 1_555 1_555
C7_3 C5_3 1_555 1_555
C8_3 C5_3 1_555 1_555
H3_3 C6_3 1_555 1_555
C10_3 C7_3 1_555 1_555
H4_3 C8_3 1_555 1_555
C12_3 C10_3 1_555 1_555
H6_3 C10_3 1_555 1_555
H8_3 C12_3 1_555 1_555
C13_3 O3_3 1_555 1_555
O4 C13_3 1_555 1_555
C14_3 C13_3 1_555 1_555
C15_3 C14_3 1_555 1_555
C16_3 C14_3 1_555 1_555
H9_3 C15_3 1_555 1_555
C17_3 C15_3 1_555 1_555
H10_3 C16_3 1_555 1_555
C18_3 C16_3 1_555 1_555
C19_3 C17_3 1_555 1_555
C20_3 C17_3 1_555 1_555
H11_3 C18_3 1_555 1_555
C21_3 C19_3 1_555 1_555
C22_3 C19_3 1_555 1_555
H12_3 C20_3 1_555 1_555
C23_3 C21_3 1_555 1_555
H13_3 C21_3 1_555 1_555
C24_3 C22_3 1_555 1_555
H14_3 C22_3 1_555 1_555
N4_2 C23_3 1_555 1_555
H15_3 C23_3 1_555 1_555
H16_3 C24_3 1_555 1_555
Mn2_2 N4_2 1_555 1_555
C6_3 C8_3 1_555 1_555
C18_3 C20_3 1_555 1_555
C24_3 N4_2 1_555 1_555
C11_3 C9_3 1_555 1_555
H5_3 C9_3 1_555 1_555
H7_3 C11_3 1_555 1_555
N3_2 C11_3 1_555 1_555
Mn2_3 N3_2 1_555 1_555
C23_4 C21_4 1_555 1_555
H13_4 C21_4 1_555 1_555
N2_2 C23_4 1_555 1_555
H15_4 C23_4 1_555 1_555
O1_4 Mn2_2 1_555 1_555
C1_4 O1_4 1_555 1_555
C2_4 C1_4 1_555 1_555
C3_4 C2_4 1_555 1_555
C4_4 C2_4 1_555 1_555
H1_4 C3_4 1_555 1_555
C5_4 C3_4 1_555 1_555
H2_4 C4_4 1_555 1_555
C6_4 C4_4 1_555 1_555
C7_4 C5_4 1_555 1_555
C8_4 C5_4 1_555 1_555
H3_4 C6_4 1_555 1_555
C9_4 C7_4 1_555 1_555
C10_4 C7_4 1_555 1_555
H4_4 C8_4 1_555 1_555
C11_4 C9_4 1_555 1_555
H5_4 C9_4 1_555 1_555
C12_4 C10_4 1_555 1_555
H6_4 C10_4 1_555 1_555
H7_4 C11_4 1_555 1_555
H8_4 C12_4 1_555 1_555
O2_2 C1_4 1_555 1_555
N1_2 C11_4 1_555 1_555
C6_4 C8_4 1_555 1_555
C12_4 N1_2 1_555 1_555
O3_4 Mn2_3 1_555 1_555
C13_4 O3_4 1_555 1_555
C14_4 C13_4 1_555 1_555
C15_4 C14_4 1_555 1_555
C16_4 C14_4 1_555 1_555
C17_4 C15_4 1_555 1_555
H10_4 C16_4 1_555 1_555
C18_4 C16_4 1_555 1_555
C19_4 C17_4 1_555 1_555
C20_4 C17_4 1_555 1_555
H11_4 C18_4 1_555 1_555
C22_4 C19_4 1_555 1_555
H12_4 C20_4 1_555 1_555
C24_4 C22_4 1_555 1_555
H14_4 C22_4 1_555 1_555
H16_4 C24_4 1_555 1_555
C18_4 C20_4 1_555 1_555

#END
