
###############################################################################
#
# This file contains modified crystal structure data generated from the
# MOF subset of the Cambridge Structural Database (CSD) v543 
# hosted by the Cambridge Crystallographic Data Centre (CCDC).
#
# This work is licensed under the Creative Commons
# Attribution-NonCommercial-ShareAlike 4.0 International License.
# To view a copy of this license, visit
# http://creativecommons.org/licenses/by-nc-sa/4.0/
# or send a letter to
# Creative Commons, PO Box 1866, Mountain View, CA 94042, USA.
#
# CIF created using the CSD Python API on 29 September 2022
# The structure has been converted into the P1 space group
# The structure has a 3D framework
# The original CSD entry PIHWAG is in the monoclinic crystal system
# The framework has been calculated to contain at least 10.0% void space
# The void calculation uses a probe of radius 1.32A, grid spacing 0.4
#
###############################################################################

data_PIHWAG
_chemical_formula_moiety         '(C96 H64 La4 N4 O26 S12)n'
_symmetry_cell_setting           triclinic
_symmetry_space_group_name_H-M   'P 1'
_symmetry_Int_Tables_number      1
_space_group_name_Hall           'P 1'
loop_
_symmetry_equiv_pos_site_id
_symmetry_equiv_pos_as_xyz
1 x,y,z
_cell_length_a                   23.241(10)
_cell_length_b                   16.264(7)
_cell_length_c                   8.206(4)
_cell_angle_alpha                90
_cell_angle_beta                 91.544(6)
_cell_angle_gamma                90
_cell_volume                     3100.67
loop_
_atom_site_label
_atom_site_type_symbol
_atom_site_fract_x
_atom_site_fract_y
_atom_site_fract_z
C12 C 0.0171(3) 0.4318(5) 0.4317(9)
S2 S 0.07405(9) 0.49772(12) 0.4001(3)
C13 C 0.1088(3) 0.4255(4) 0.2833(9)
C14 C 0.0776(3) 0.3537(5) 0.2741(10)
H6 H 0.0892 0.3064 0.2154
C15 C 0.0256(3) 0.3586(5) 0.3635(10)
C16 C 0.1640(3) 0.4437(4) 0.2052(9)
O3 O 0.1805(2) 0.3987(3) 0.0939(6)
O4 O 0.1921(2) 0.5075(3) 0.2525(7)
H11 H 0.0329 0.9663 0.7892
H15 H 0.0004 0.8570 0.9935
La6 La 0.265392(17) 0.51661(2) 0.49655(2)
La5 La 0.265392(17) 0.48339(2) 0.99655(2)
O8 O 0.8078(2) 0.0755(3) 0.2097(6)
O10 O 0.6921(2) 0.0075(3) 0.2525(7)
H10 H 0.9038 0.0309 0.8186
H12 H 0.9831 0.0038 0.6732
O12 O 0.7363(2) 0.1348(3) 0.9468(6)
O13 O 0.7977(2) 0.0935(3) 0.7637(6)
La4 La 0.765392(17) 0.01661(2) 0.49655(2)
H14 H 0.9331 0.8544 0.0293
O9 O 0.6805(2) 0.8987(3) 0.0939(6)
O14 O 0.7977(2) 0.9065(3) 0.2637(6)
C1 C 0.9042(3) 0.5697(5) 0.6149(9)
C2 C 0.9541(3) 0.5429(5) 0.5406(10)
H1 H 0.9805 0.5827 0.5027
C3 C 0.9666(3) 0.4594(5) 0.5198(9)
C4 C 0.9283(3) 0.4019(4) 0.5814(9)
H2 H 0.9368 0.3450 0.5713
C5 C 0.8778(3) 0.4256(4) 0.6575(9)
C6 C 0.8658(3) 0.5093(5) 0.6729(10)
H3 H 0.8313 0.5261 0.7229
C7 C 0.8902(3) 0.6576(5) 0.6328(9)
S1 S 0.83809(8) 0.68873(11) 0.7641(2)
C8 C 0.8435(3) 0.7889(5) 0.7000(9)
C9 C 0.8851(3) 0.7973(5) 0.5853(9)
H4 H 0.8946 0.8483 0.5361
C10 C 0.9123(3) 0.7226(5) 0.5483(10)
H5 H 0.9426 0.7177 0.4733
C11 C 0.8066(3) 0.8529(5) 0.7710(8)
O1 O 0.8078(2) 0.9245(3) 0.7097(6)
O2 O 0.7765(2) 0.8358(3) 0.8905(6)
H7 H 0.9996 0.3139 0.3733
C17 C 0.8379(3) 0.3647(5) 0.7251(9)
S3 S 0.84272(8) 0.26136(11) 0.6787(2)
C18 C 0.7870(3) 0.2372(4) 0.8060(9)
C19 C 0.7655(3) 0.3059(5) 0.8762(10)
H8 H 0.7344 0.3051 0.9491
C20 C 0.7937(3) 0.3782(5) 0.8304(9)
H9 H 0.7834 0.4312 0.8683
C21 C 0.7721(3) 0.1507(4) 0.8417(9)
La1 La 0.765392(17) 0.98339(2) 0.99655(2)
O7 O 0.8736(2) 0.9701(4) 0.9925(7)
C22 C 0.9093(3) 0.9835(5) 0.8850(10)
N1 N 0.9536(3) 0.9368(5) 0.8574(9)
C23 C 0.9955(4) 0.9553(9) 0.7355(13)
H13 H 0.9990 0.9083 0.6617
C24 C 0.9616(5) 0.8589(6) 0.9440(12)
H16 H 0.9567 0.8132 0.8671
O11 O 0.6921(2) 0.9925(3) 0.7525(7)
C12_2 C 0.0171(3) 0.5682(5) 0.9317(9)
S2_2 S 0.07405(9) 0.50228(12) 0.9001(3)
C13_2 C 0.1088(3) 0.5745(4) 0.7833(9)
C14_2 C 0.0776(3) 0.6463(5) 0.7741(10)
H6_2 H 0.0892 0.6936 0.7154
C15_2 C 0.0256(3) 0.6414(5) 0.8635(10)
C16_2 C 0.1640(3) 0.5563(4) 0.7052(9)
O3_2 O 0.1805(2) 0.6013(3) 0.5939(6)
O4_2 O 0.1921(2) 0.4925(3) 0.7525(7)
C1_2 C 0.9042(3) 0.4303(5) 0.1149(9)
C2_2 C 0.9541(3) 0.4571(5) 0.0406(10)
H1_2 H 0.9805 0.4173 0.0027
C3_2 C 0.9666(3) 0.5406(5) 0.0198(9)
C4_2 C 0.9283(3) 0.5981(4) 0.0814(9)
H2_2 H 0.9368 0.6550 0.0713
C5_2 C 0.8778(3) 0.5744(4) 0.1575(9)
C6_2 C 0.8658(3) 0.4907(5) 0.1729(10)
H3_2 H 0.8313 0.4739 0.2229
C7_2 C 0.8902(3) 0.3424(5) 0.1328(9)
S1_2 S 0.83809(8) 0.31127(11) 0.2641(2)
C8_2 C 0.8435(3) 0.2111(5) 0.2000(9)
C9_2 C 0.8851(3) 0.2027(5) 0.0853(9)
H4_2 H 0.8946 0.1517 0.0361
C10_2 C 0.9123(3) 0.2774(5) 0.0483(10)
C11_2 C 0.8066(3) 0.1471(5) 0.2710(8)
O2_2 O 0.7765(2) 0.1642(3) 0.3905(6)
C17_2 C 0.8379(3) 0.6353(5) 0.2251(9)
S3_2 S 0.84272(8) 0.73864(11) 0.1787(2)
C18_2 C 0.7870(3) 0.7628(4) 0.3060(9)
C19_2 C 0.7655(3) 0.6941(5) 0.3762(10)
H8_2 H 0.7344 0.6949 0.4491
C20_2 C 0.7937(3) 0.6218(5) 0.3304(9)
H9_2 H 0.7834 0.5688 0.3683
C21_2 C 0.7721(3) 0.8493(4) 0.3417(9)
O5 O 0.7363(2) 0.8652(3) 0.4468(6)
O7_2 O 0.8736(2) 0.0299(4) 0.4925(7)
C22_2 C 0.9093(3) 0.0165(5) 0.3850(10)
N1_2 N 0.9536(3) 0.0632(5) 0.3574(9)
C23_2 C 0.9955(4) 0.0447(9) 0.2355(13)
H13_2 H 0.9990 0.0917 0.1617
C24_2 C 0.9616(5) 0.1411(6) 0.4440(12)
H14_2 H 0.9331 0.1456 0.5293
H16_2 H 0.9567 0.1868 0.3671
O9_2 O 0.6805(2) 0.1013(3) 0.5939(6)
H5_2 H 0.9426 0.2823 0.9733
H7_2 H 0.9996 0.6861 0.8733
H10_2 H 0.9038 0.9691 0.3186
H12_2 H 0.9831 0.9962 0.1732
H14_3 H 0.4331 0.3544 0.0293
O8_2 O 0.3078(2) 0.5755(3) 0.2097(6)
O14_2 O 0.2977(2) 0.4065(3) 0.2637(6)
C1_3 C 0.4042(3) 0.0697(5) 0.6149(9)
C2_3 C 0.4541(3) 0.0429(5) 0.5406(10)
H1_3 H 0.4805 0.0827 0.5027
C6_3 C 0.3658(3) 0.0093(5) 0.6729(10)
H3_3 H 0.3313 0.0261 0.7229
C7_3 C 0.3902(3) 0.1576(5) 0.6328(9)
S1_3 S 0.33809(8) 0.18873(11) 0.7641(2)
C8_3 C 0.3435(3) 0.2889(5) 0.7000(9)
C9_3 C 0.3851(3) 0.2973(5) 0.5853(9)
H4_3 H 0.3946 0.3483 0.5361
C10_3 C 0.4123(3) 0.2226(5) 0.5483(10)
H5_3 H 0.4426 0.2177 0.4733
C11_3 C 0.3066(3) 0.3529(5) 0.7710(8)
O1_2 O 0.3078(2) 0.4245(3) 0.7097(6)
O2_3 O 0.2765(2) 0.3358(3) 0.8905(6)
O7_3 O 0.3736(2) 0.4701(4) 0.9925(7)
C22_3 C 0.4093(3) 0.4835(5) 0.8850(10)
H10_3 H 0.4038 0.5309 0.8186
N1_3 N 0.4536(3) 0.4368(5) 0.8574(9)
C23_3 C 0.4955(4) 0.4553(9) 0.7355(13)
H11_2 H 0.5329 0.4663 0.7892
H12_3 H 0.4831 0.5038 0.6732
H13_3 H 0.4990 0.4083 0.6617
C24_3 C 0.4616(5) 0.3589(6) 0.9440(12)
H15_2 H 0.5004 0.3570 0.9935
H16_3 H 0.4567 0.3132 0.8671
O12_2 O 0.2363(2) 0.6348(3) 0.9468(6)
O13_2 O 0.2977(2) 0.5935(3) 0.7637(6)
C3_3 C 0.4666(3) 0.9594(5) 0.5198(9)
C4_3 C 0.4283(3) 0.9019(4) 0.5814(9)
H2_3 H 0.4368 0.8450 0.5713
C5_3 C 0.3778(3) 0.9256(4) 0.6575(9)
C12_3 C 0.5171(3) 0.9318(5) 0.4317(9)
S2_3 S 0.57405(9) 0.99772(12) 0.4001(3)
C13_3 C 0.6088(3) 0.9255(4) 0.2833(9)
C14_3 C 0.5776(3) 0.8537(5) 0.2741(10)
H6_3 H 0.5892 0.8064 0.2154
C15_3 C 0.5256(3) 0.8586(5) 0.3635(10)
H7_3 H 0.4996 0.8139 0.3733
C16_3 C 0.6640(3) 0.9437(4) 0.2052(9)
C17_3 C 0.3379(3) 0.8647(5) 0.7251(9)
S3_3 S 0.34272(8) 0.76136(11) 0.6787(2)
C18_3 C 0.2870(3) 0.7372(4) 0.8060(9)
C19_3 C 0.2655(3) 0.8059(5) 0.8762(10)
H8_3 H 0.2344 0.8051 0.9491
C20_3 C 0.2937(3) 0.8782(5) 0.8304(9)
H9_3 H 0.2834 0.9312 0.8683
C21_3 C 0.2721(3) 0.6507(4) 0.8417(9)
C3_4 C 0.4666(3) 0.0406(5) 0.0198(9)
C4_4 C 0.4283(3) 0.0981(4) 0.0814(9)
H2_4 H 0.4368 0.1550 0.0713
C5_4 C 0.3778(3) 0.0744(4) 0.1575(9)
C17_4 C 0.3379(3) 0.1353(5) 0.2251(9)
S3_4 S 0.34272(8) 0.23864(11) 0.1787(2)
C18_4 C 0.2870(3) 0.2628(4) 0.3060(9)
C19_4 C 0.2655(3) 0.1941(5) 0.3762(10)
H8_4 H 0.2344 0.1949 0.4491
C20_4 C 0.2937(3) 0.1218(5) 0.3304(9)
H9_4 H 0.2834 0.0688 0.3683
C21_4 C 0.2721(3) 0.3493(4) 0.3417(9)
O5_2 O 0.2363(2) 0.3652(3) 0.4468(6)
C12_4 C 0.5171(3) 0.0682(5) 0.9317(9)
S2_4 S 0.57405(9) 0.00228(12) 0.9001(3)
C13_4 C 0.6088(3) 0.0745(4) 0.7833(9)
C14_4 C 0.5776(3) 0.1463(5) 0.7741(10)
H6_4 H 0.5892 0.1936 0.7154
C15_4 C 0.5256(3) 0.1414(5) 0.8635(10)
H7_4 H 0.4996 0.1861 0.8733
C16_4 C 0.6640(3) 0.0563(4) 0.7052(9)
C1_4 C 0.4042(3) 0.9303(5) 0.1149(9)
C2_4 C 0.4541(3) 0.9571(5) 0.0406(10)
H1_4 H 0.4805 0.9173 0.0027
C6_4 C 0.3658(3) 0.9907(5) 0.1729(10)
H3_4 H 0.3313 0.9739 0.2229
C7_4 C 0.3902(3) 0.8424(5) 0.1328(9)
S1_4 S 0.33809(8) 0.81127(11) 0.2641(2)
C8_4 C 0.3435(3) 0.7111(5) 0.2000(9)
C9_4 C 0.3851(3) 0.7027(5) 0.0853(9)
H4_4 H 0.3946 0.6517 0.0361
C10_4 C 0.4123(3) 0.7774(5) 0.0483(10)
C11_4 C 0.3066(3) 0.6471(5) 0.2710(8)
O2_4 O 0.2765(2) 0.6642(3) 0.3905(6)
O7_4 O 0.3736(2) 0.5299(4) 0.4925(7)
C22_4 C 0.4093(3) 0.5165(5) 0.3850(10)
H10_4 H 0.4038 0.4691 0.3186
N1_4 N 0.4536(3) 0.5632(5) 0.3574(9)
C23_4 C 0.4955(4) 0.5447(9) 0.2355(13)
H11_3 H 0.5329 0.5337 0.2892
H12_4 H 0.4831 0.4962 0.1732
H13_4 H 0.4990 0.5917 0.1617
C24_4 C 0.4616(5) 0.6411(6) 0.4440(12)
H14_4 H 0.4331 0.6456 0.5293
H15_3 H 0.5004 0.6430 0.4935
H16_4 H 0.4567 0.6868 0.3671
H5_4 H 0.4426 0.7823 0.9733
H11_4 H 0.0329 0.0337 0.2892
H15_4 H 0.0004 0.1430 0.4935
loop_
_geom_bond_atom_site_label_1
_geom_bond_atom_site_label_2
_geom_bond_site_symmetry_1
_geom_bond_site_symmetry_2
S2 C12 1_555 1_555
C13 S2 1_555 1_555
C14 C13 1_555 1_555
H6 C14 1_555 1_555
C15 C12 1_555 1_555
C16 C13 1_555 1_555
O3 C16 1_555 1_555
O4 C16 1_555 1_555
La6 O4 1_555 1_555
C14 C15 1_555 1_555
O13 La4 1_555 1_555
C1 C2 1_555 1_555
C2 H1 1_555 1_555
C3 C2 1_555 1_555
C4 C3 1_555 1_555
H2 C4 1_555 1_555
C5 C4 1_555 1_555
C6 C1 1_555 1_555
H3 C6 1_555 1_555
C7 C1 1_555 1_555
S1 C7 1_555 1_555
C8 S1 1_555 1_555
C9 C8 1_555 1_555
H4 C9 1_555 1_555
C10 C7 1_555 1_555
H5 C10 1_555 1_555
C11 C8 1_555 1_555
O1 C11 1_555 1_555
O2 C11 1_555 1_555
C17 C5 1_555 1_555
S3 C17 1_555 1_555
C18 S3 1_555 1_555
C19 C18 1_555 1_555
H8 C19 1_555 1_555
C20 C17 1_555 1_555
H9 C20 1_555 1_555
C21 C18 1_555 1_555
O12 C21 1_555 1_555
O13 C21 1_555 1_555
La1 O1 1_555 1_555
O7 La1 1_555 1_555
C22 O7 1_555 1_555
N1 C22 1_555 1_555
C23 N1 1_555 1_555
H13 C23 1_555 1_555
C24 N1 1_555 1_555
H16 C24 1_555 1_555
O11 La1 1_555 1_555
C5 C6 1_555 1_555
C9 C10 1_555 1_555
O2 La1 1_555 1_555
C19 C20 1_555 1_555
S2_2 C12_2 1_555 1_555
C13_2 S2_2 1_555 1_555
C14_2 C13_2 1_555 1_555
H6_2 C14_2 1_555 1_555
C15_2 C12_2 1_555 1_555
C16_2 C13_2 1_555 1_555
O3_2 C16_2 1_555 1_555
O4_2 C16_2 1_555 1_555
La6 O3_2 1_555 1_555
La5 O4_2 1_555 1_555
C14_2 C15_2 1_555 1_555
O4_2 La6 1_555 1_555
C1_2 C2_2 1_555 1_555
C2_2 H1_2 1_555 1_555
C3_2 C2_2 1_555 1_555
C4_2 C3_2 1_555 1_555
H2_2 C4_2 1_555 1_555
C5_2 C4_2 1_555 1_555
C6_2 C1_2 1_555 1_555
H3_2 C6_2 1_555 1_555
C7_2 C1_2 1_555 1_555
S1_2 C7_2 1_555 1_555
C8_2 S1_2 1_555 1_555
C9_2 C8_2 1_555 1_555
H4_2 C9_2 1_555 1_555
C10_2 C7_2 1_555 1_555
C11_2 C8_2 1_555 1_555
O8 C11_2 1_555 1_555
O2_2 C11_2 1_555 1_555
C17_2 C5_2 1_555 1_555
S3_2 C17_2 1_555 1_555
C18_2 S3_2 1_555 1_555
C19_2 C18_2 1_555 1_555
H8_2 C19_2 1_555 1_555
C20_2 C17_2 1_555 1_555
H9_2 C20_2 1_555 1_555
C21_2 C18_2 1_555 1_555
O5 C21_2 1_555 1_555
O14 C21_2 1_555 1_555
La4 O8 1_555 1_555
O7_2 La4 1_555 1_555
C22_2 O7_2 1_555 1_555
N1_2 C22_2 1_555 1_555
C23_2 N1_2 1_555 1_555
H13_2 C23_2 1_555 1_555
C24_2 N1_2 1_555 1_555
H14_2 C24_2 1_555 1_555
H16_2 C24_2 1_555 1_555
O9_2 La4 1_555 1_555
O10 La4 1_555 1_555
C5_2 C6_2 1_555 1_555
C9_2 C10_2 1_555 1_555
O2_2 La4 1_555 1_555
C19_2 C20_2 1_555 1_555
C1_3 C2_3 1_555 1_555
C2_3 H1_3 1_555 1_555
C6_3 C1_3 1_555 1_555
H3_3 C6_3 1_555 1_555
C7_3 C1_3 1_555 1_555
S1_3 C7_3 1_555 1_555
C8_3 S1_3 1_555 1_555
C9_3 C8_3 1_555 1_555
H4_3 C9_3 1_555 1_555
C10_3 C7_3 1_555 1_555
H5_3 C10_3 1_555 1_555
C11_3 C8_3 1_555 1_555
O1_2 C11_3 1_555 1_555
O2_3 C11_3 1_555 1_555
La5 O1_2 1_555 1_555
O7_3 La5 1_555 1_555
C22_3 O7_3 1_555 1_555
H10_3 C22_3 1_555 1_555
N1_3 C22_3 1_555 1_555
C23_3 N1_3 1_555 1_555
H11_2 C23_3 1_555 1_555
H12_3 C23_3 1_555 1_555
H13_3 C23_3 1_555 1_555
C24_3 N1_3 1_555 1_555
H15_2 C24_3 1_555 1_555
H16_3 C24_3 1_555 1_555
O12_2 La5 1_555 1_555
O13_2 La5 1_555 1_555
La6 O1_2 1_555 1_555
C9_3 C10_3 1_555 1_555
O2_3 La5 1_555 1_555
O13_2 La6 1_555 1_555
C4_3 C3_3 1_555 1_555
H2_3 C4_3 1_555 1_555
C5_3 C4_3 1_555 1_555
C12_3 C3_3 1_555 1_555
S2_3 C12_3 1_555 1_555
C13_3 S2_3 1_555 1_555
C14_3 C13_3 1_555 1_555
H6_3 C14_3 1_555 1_555
C15_3 C12_3 1_555 1_555
H7_3 C15_3 1_555 1_555
C16_3 C13_3 1_555 1_555
O9 C16_3 1_555 1_555
C17_3 C5_3 1_555 1_555
S3_3 C17_3 1_555 1_555
C18_3 S3_3 1_555 1_555
C19_3 C18_3 1_555 1_555
H8_3 C19_3 1_555 1_555
C20_3 C17_3 1_555 1_555
H9_3 C20_3 1_555 1_555
C21_3 C18_3 1_555 1_555
O12_2 C21_3 1_555 1_555
O13_2 C21_3 1_555 1_555
C14_3 C15_3 1_555 1_555
C19_3 C20_3 1_555 1_555
C4_4 C3_4 1_555 1_555
H2_4 C4_4 1_555 1_555
C5_4 C4_4 1_555 1_555
C17_4 C5_4 1_555 1_555
S3_4 C17_4 1_555 1_555
C18_4 S3_4 1_555 1_555
C19_4 C18_4 1_555 1_555
H8_4 C19_4 1_555 1_555
C20_4 C17_4 1_555 1_555
H9_4 C20_4 1_555 1_555
C21_4 C18_4 1_555 1_555
O5_2 C21_4 1_555 1_555
O14_2 C21_4 1_555 1_555
La6 O5_2 1_555 1_555
C19_4 C20_4 1_555 1_555
O14_2 La6 1_555 1_555
S2_4 C12_4 1_555 1_555
C13_4 S2_4 1_555 1_555
C14_4 C13_4 1_555 1_555
H6_4 C14_4 1_555 1_555
C15_4 C12_4 1_555 1_555
H7_4 C15_4 1_555 1_555
C16_4 C13_4 1_555 1_555
O9_2 C16_4 1_555 1_555
C14_4 C15_4 1_555 1_555
C1_4 C2_4 1_555 1_555
C2_4 H1_4 1_555 1_555
C6_4 C1_4 1_555 1_555
H3_4 C6_4 1_555 1_555
C7_4 C1_4 1_555 1_555
S1_4 C7_4 1_555 1_555
C8_4 S1_4 1_555 1_555
C9_4 C8_4 1_555 1_555
H4_4 C9_4 1_555 1_555
C10_4 C7_4 1_555 1_555
C11_4 C8_4 1_555 1_555
O8_2 C11_4 1_555 1_555
O2_4 C11_4 1_555 1_555
La6 O8_2 1_555 1_555
O7_4 La6 1_555 1_555
C22_4 O7_4 1_555 1_555
H10_4 C22_4 1_555 1_555
N1_4 C22_4 1_555 1_555
C23_4 N1_4 1_555 1_555
H11_3 C23_4 1_555 1_555
H12_4 C23_4 1_555 1_555
H13_4 C23_4 1_555 1_555
C24_4 N1_4 1_555 1_555
H14_4 C24_4 1_555 1_555
H15_3 C24_4 1_555 1_555
H16_4 C24_4 1_555 1_555
C9_4 C10_4 1_555 1_555
O2_4 La6 1_555 1_555

#END
