
###############################################################################
#
# This file contains modified crystal structure data generated from the
# MOF subset of the Cambridge Structural Database (CSD) v543 
# hosted by the Cambridge Crystallographic Data Centre (CCDC).
#
# This work is licensed under the Creative Commons
# Attribution-NonCommercial-ShareAlike 4.0 International License.
# To view a copy of this license, visit
# http://creativecommons.org/licenses/by-nc-sa/4.0/
# or send a letter to
# Creative Commons, PO Box 1866, Mountain View, CA 94042, USA.
#
# CIF created using the CSD Python API on 29 September 2022
# The structure has been converted into the P1 space group
# The structure has a 3D framework
# The original CSD entry PIJJOI is in the orthorhombic crystal system
# The framework has been calculated to contain at least 10.0% void space
# The void calculation uses a probe of radius 1.32A, grid spacing 0.4
#
###############################################################################

data_PIJJOI
_chemical_formula_moiety         '(C144 H144 N32 O32 Zn8)n'
_symmetry_cell_setting           triclinic
_symmetry_space_group_name_H-M   'P 1'
_symmetry_Int_Tables_number      1
_space_group_name_Hall           'P 1'
loop_
_symmetry_equiv_pos_site_id
_symmetry_equiv_pos_as_xyz
1 x,y,z
_cell_length_a                   16.2045(13)
_cell_length_b                   17.6022(14)
_cell_length_c                   17.9025(14)
_cell_angle_alpha                90
_cell_angle_beta                 90
_cell_angle_gamma                90
_cell_volume                     5106.42
loop_
_atom_site_label
_atom_site_type_symbol
_atom_site_fract_x
_atom_site_fract_y
_atom_site_fract_z
O3 O 0.12783(11) 0.33979(11) 0.60507(10)
O4 O 0.17437(12) 0.23121(12) 0.65174(13)
C14 C 0.01012(16) 0.26894(14) 0.52117(15)
H16 H 0.0103 0.3217 0.5239
C15 C 0.06669(15) 0.14962(14) 0.55675(16)
H17 H 0.1040 0.1212 0.5847
C16 C 0.01277(16) 0.11331(14) 0.50875(16)
H18 H 0.0150 0.0608 0.5036
C17 C 0.12772(15) 0.26801(15) 0.61183(14)
C18 C 0.06564(14) 0.22763(13) 0.56351(14)
Zn2 Zn 0.225215(15) 0.399171(14) 0.617034(13)
Zn1 Zn 0.725215(15) 0.100829(14) 0.382966(13)
O1 O 0.82720(10) 0.15365(10) 0.40801(10)
O2 O 0.90519(13) 0.04915(11) 0.39826(11)
N1 N 0.71380(13) 0.02604(11) 0.46757(10)
C1 C 0.7245(2) 0.12243(17) 0.56821(16)
H3 H 0.7748 0.1478 0.5547
H4 H 0.6785 0.1487 0.5465
H5 H 0.7190 0.1221 0.6216
C2 C 0.72650(16) 0.04260(14) 0.54002(13)
C6 C 0.9005(2) 0.0366(2) 0.66964(18)
H9 H 0.9040 0.0864 0.6913
H10 H 0.9486 0.0078 0.6830
H11 H 0.8973 0.0410 0.6163
C11 C 0.89248(15) 0.11478(14) 0.42043(14)
C12 C 0.95546(14) 0.15456(13) 0.46828(13)
C13 C 0.95433(16) 0.23270(15) 0.47474(15)
H15 H 0.9160 0.2610 0.4479
O5 O 0.62783(11) 0.16021(11) 0.39493(10)
N5 N 0.74398(12) 0.05779(11) 0.28251(10)
N2 N 0.71873(12) 0.94944(11) 0.46251(10)
H1 H 0.7133 0.9244 0.4215
N3 N 0.74398(12) 0.94221(11) 0.78251(10)
N4 N 0.81522(13) 0.97989(12) 0.77054(10)
H2 H 0.8500 0.9914 0.8050
C3 C 0.73887(15) 0.97568(14) 0.58059(12)
C4 C 0.73304(14) 0.91734(14) 0.52911(13)
C5 C 0.7397(2) 0.83349(16) 0.53763(16)
H6 H 0.7384 0.8100 0.4892
H7 H 0.7907 0.8212 0.5621
H8 H 0.6943 0.8152 0.5670
C7 C 0.82508(16) 0.99720(16) 0.69822(13)
C8 C 0.75635(15) 0.96947(13) 0.66098(12)
C9 C 0.70728(14) 0.93557(13) 0.71586(12)
C10 C 0.62780(16) 0.89380(16) 0.70789(15)
H12 H 0.5907 0.9090 0.7470
H13 H 0.6037 0.9053 0.6603
H14 H 0.6378 0.8402 0.7113
Zn3 Zn 0.725215(15) 0.899171(14) 0.882966(13)
O1_2 O 0.32720(10) 0.34635(10) 0.59199(10)
O2_2 O 0.40519(13) 0.45085(11) 0.60174(11)
O4_2 O 0.67437(12) 0.26879(12) 0.34826(13)
N1_2 N 0.21380(13) 0.47396(11) 0.53243(10)
N2_2 N 0.21873(12) 0.55056(11) 0.53749(10)
H1_2 H 0.2133 0.5756 0.5785
N3_2 N 0.24398(12) 0.55779(11) 0.21749(10)
N4_2 N 0.31522(13) 0.52011(12) 0.22946(10)
H2_2 H 0.3500 0.5086 0.1950
C1_2 C 0.2245(2) 0.37757(17) 0.43179(16)
H3_2 H 0.2748 0.3522 0.4453
H4_2 H 0.1785 0.3513 0.4535
H5_2 H 0.2190 0.3779 0.3784
C2_2 C 0.22650(16) 0.45740(14) 0.45998(13)
C3_2 C 0.23887(15) 0.52432(14) 0.41941(12)
C4_2 C 0.23304(14) 0.58266(14) 0.47089(13)
C5_2 C 0.2397(2) 0.66651(16) 0.46237(16)
H6_2 H 0.2384 0.6900 0.5108
H7_2 H 0.2907 0.6788 0.4379
H8_2 H 0.1943 0.6848 0.4330
C6_2 C 0.4005(2) 0.4634(2) 0.33036(18)
H9_2 H 0.4040 0.4136 0.3087
H10_2 H 0.4486 0.4922 0.3170
H11_2 H 0.3973 0.4590 0.3837
C7_2 C 0.32508(16) 0.50280(16) 0.30178(13)
C8_2 C 0.25635(15) 0.53053(13) 0.33902(12)
C9_2 C 0.20728(14) 0.56443(13) 0.28414(12)
C10_2 C 0.12780(16) 0.60620(16) 0.29211(15)
H12_2 H 0.0907 0.5910 0.2530
H13_2 H 0.1037 0.5947 0.3397
H14_2 H 0.1378 0.6598 0.2887
C11_2 C 0.39248(15) 0.38522(14) 0.57957(14)
C12_2 C 0.45546(14) 0.34544(13) 0.53172(13)
C13_2 C 0.45433(16) 0.26730(15) 0.52526(15)
H15_2 H 0.4160 0.2390 0.5521
C14_2 C 0.51012(16) 0.23106(14) 0.47883(15)
H16_2 H 0.5103 0.1783 0.4761
C15_2 C 0.56669(15) 0.35038(14) 0.44325(16)
H17_2 H 0.6040 0.3788 0.4153
C16_2 C 0.51277(16) 0.38669(14) 0.49125(16)
H18_2 H 0.5150 0.4392 0.4964
C17_2 C 0.62772(15) 0.23199(15) 0.38817(14)
C18_2 C 0.56564(14) 0.27237(13) 0.43649(14)
Zn3_2 Zn 0.225215(15) 0.600829(14) 0.117034(13)
N5_2 N 0.24398(12) 0.44221(11) 0.71749(10)
O1_3 O 0.32720(10) 0.65365(10) 0.09199(10)
O2_3 O 0.40519(13) 0.54915(11) 0.10174(11)
N1_3 N 0.21380(13) 0.52604(11) 0.03243(10)
N2_3 N 0.21873(12) 0.44944(11) 0.03749(10)
H1_3 H 0.2133 0.4244 0.0785
H6_3 H 0.2384 0.3100 0.0108
C11_3 C 0.39248(15) 0.61478(14) 0.07957(14)
C12_3 C 0.45546(14) 0.65456(13) 0.03172(13)
C13_3 C 0.45433(16) 0.73270(15) 0.02526(15)
H15_3 H 0.4160 0.7610 0.0521
O5_2 O 0.12783(11) 0.66021(11) 0.10507(10)
O3_2 O 0.62783(11) 0.83979(11) 0.89493(10)
O4_3 O 0.67437(12) 0.73121(12) 0.84826(13)
N4_3 N 0.31522(13) 0.47989(12) 0.72946(10)
H2_3 H 0.3500 0.4914 0.6950
C1_3 C 0.2245(2) 0.62243(17) 0.93179(16)
H3_3 H 0.2748 0.6478 0.9453
H4_3 H 0.1785 0.6487 0.9535
H5_3 H 0.2190 0.6221 0.8784
C2_3 C 0.22650(16) 0.54260(14) 0.95998(13)
C3_3 C 0.23887(15) 0.47568(14) 0.91941(12)
C4_3 C 0.23304(14) 0.41734(14) 0.97089(13)
C5_3 C 0.2397(2) 0.33349(16) 0.96237(16)
H7_3 H 0.2907 0.3212 0.9379
H8_3 H 0.1943 0.3152 0.9330
C6_3 C 0.4005(2) 0.5366(2) 0.83036(18)
H9_3 H 0.4040 0.5864 0.8087
H10_3 H 0.4486 0.5078 0.8170
H11_3 H 0.3973 0.5410 0.8837
C7_3 C 0.32508(16) 0.49720(16) 0.80178(13)
C8_3 C 0.25635(15) 0.46947(13) 0.83902(12)
C9_3 C 0.20728(14) 0.43557(13) 0.78414(12)
C10_3 C 0.12780(16) 0.39380(16) 0.79211(15)
H12_3 H 0.0907 0.4090 0.7530
H13_3 H 0.1037 0.4053 0.8397
H14_3 H 0.1378 0.3402 0.7887
C14_3 C 0.51012(16) 0.76894(14) 0.97883(15)
H16_3 H 0.5103 0.8217 0.9761
C15_3 C 0.56669(15) 0.64962(14) 0.94325(16)
H17_3 H 0.6040 0.6212 0.9153
C16_3 C 0.51277(16) 0.61331(14) 0.99125(16)
H18_3 H 0.5150 0.5608 0.9964
C17_3 C 0.62772(15) 0.76801(15) 0.88817(14)
C18_3 C 0.56564(14) 0.72763(13) 0.93649(14)
O4_4 O 0.17437(12) 0.76879(12) 0.15174(13)
C14_4 C 0.01012(16) 0.73106(14) 0.02117(15)
H16_4 H 0.0103 0.6783 0.0239
C15_4 C 0.06669(15) 0.85038(14) 0.05675(16)
H17_4 H 0.1040 0.8788 0.0847
C16_4 C 0.01277(16) 0.88669(14) 0.00875(16)
H18_4 H 0.0150 0.9392 0.0036
C17_4 C 0.12772(15) 0.73199(15) 0.11183(14)
C18_4 C 0.06564(14) 0.77237(13) 0.06351(14)
N4_4 N 0.81522(13) 0.02011(12) 0.27054(10)
H2_4 H 0.8500 0.0086 0.3050
C3_4 C 0.73887(15) 0.02432(14) 0.08059(12)
C4_4 C 0.73304(14) 0.08266(14) 0.02911(13)
C5_4 C 0.7397(2) 0.16651(16) 0.03763(16)
H7_4 H 0.7907 0.1788 0.0621
H8_4 H 0.6943 0.1848 0.0670
C7_4 C 0.82508(16) 0.00280(16) 0.19822(13)
C8_4 C 0.75635(15) 0.03053(13) 0.16098(12)
C9_4 C 0.70728(14) 0.06443(13) 0.21586(12)
C10_4 C 0.62780(16) 0.10620(16) 0.20789(15)
H12_4 H 0.5907 0.0910 0.2470
H13_4 H 0.6037 0.0947 0.1603
H14_4 H 0.6378 0.1598 0.2113
O1_4 O 0.82720(10) 0.84635(10) 0.90801(10)
O2_4 O 0.90519(13) 0.95085(11) 0.89826(11)
N1_4 N 0.71380(13) 0.97396(11) 0.96757(10)
C11_4 C 0.89248(15) 0.88522(14) 0.92043(14)
C12_4 C 0.95546(14) 0.84544(13) 0.96828(13)
C13_4 C 0.95433(16) 0.76730(15) 0.97474(15)
H15_4 H 0.9160 0.7390 0.9479
O3_3 O 0.37217(11) 0.16021(11) 0.10507(10)
O4_5 O 0.32563(12) 0.26879(12) 0.15174(13)
N3_3 N 0.75602(12) 0.55779(11) 0.28251(10)
N4_5 N 0.68478(13) 0.52011(12) 0.27054(10)
H2_5 H 0.6500 0.5086 0.3050
C1_4 C 0.7755(2) 0.37757(17) 0.06821(16)
H3_4 H 0.7252 0.3522 0.0547
H4_4 H 0.8215 0.3513 0.0465
H5_4 H 0.7810 0.3779 0.1216
C2_4 C 0.77350(16) 0.45740(14) 0.04002(13)
C3_5 C 0.76113(15) 0.52432(14) 0.08059(12)
C4_5 C 0.76696(14) 0.58266(14) 0.02911(13)
C5_5 C 0.7603(2) 0.66651(16) 0.03763(16)
H7_5 H 0.7093 0.6788 0.0621
H8_5 H 0.8057 0.6848 0.0670
C6_4 C 0.5995(2) 0.4634(2) 0.16964(18)
H9_4 H 0.5960 0.4136 0.1913
H10_4 H 0.5514 0.4922 0.1830
H11_4 H 0.6027 0.4590 0.1163
C7_5 C 0.67492(16) 0.50280(16) 0.19822(13)
C8_5 C 0.74365(15) 0.53053(13) 0.16098(12)
C9_5 C 0.79272(14) 0.56443(13) 0.21586(12)
C10_5 C 0.87220(16) 0.60620(16) 0.20789(15)
H12_5 H 0.9093 0.5910 0.2470
H13_5 H 0.8963 0.5947 0.1603
H14_5 H 0.8622 0.6598 0.2113
C14_5 C 0.48988(16) 0.23106(14) 0.02117(15)
H16_5 H 0.4897 0.1783 0.0239
C15_5 C 0.43331(15) 0.35038(14) 0.05675(16)
H17_5 H 0.3960 0.3788 0.0847
C16_5 C 0.48723(16) 0.38669(14) 0.00875(16)
H18_5 H 0.4850 0.4392 0.0036
C17_5 C 0.37228(15) 0.23199(15) 0.11183(14)
C18_5 C 0.43436(14) 0.27237(13) 0.06351(14)
Zn2_2 Zn 0.274785(15) 0.100829(14) 0.117034(13)
Zn3_3 Zn 0.774785(15) 0.600829(14) 0.382966(13)
Zn1_2 Zn 0.774785(15) 0.399171(14) 0.882966(13)
O1_5 O 0.67280(10) 0.34635(10) 0.90801(10)
O2_5 O 0.59481(13) 0.45085(11) 0.89826(11)
N1_5 N 0.78620(13) 0.47396(11) 0.96757(10)
N2_4 N 0.78127(12) 0.55056(11) 0.96251(10)
H1_4 H 0.7867 0.5756 0.9215
H6_4 H 0.7616 0.6900 0.9892
C11_5 C 0.60752(15) 0.38522(14) 0.92043(14)
C12_5 C 0.54454(14) 0.34544(13) 0.96828(13)
C13_5 C 0.54567(16) 0.26730(15) 0.97474(15)
H15_5 H 0.5840 0.2390 0.9479
O5_3 O 0.87217(11) 0.33979(11) 0.89493(10)
N5_3 N 0.75602(12) 0.44221(11) 0.78251(10)
O1_6 O 0.17280(10) 0.15365(10) 0.09199(10)
O2_6 O 0.09481(13) 0.04915(11) 0.10174(11)
N1_6 N 0.28620(13) 0.02604(11) 0.03243(10)
C11_6 C 0.10752(15) 0.11478(14) 0.07957(14)
C12_6 C 0.04454(14) 0.15456(13) 0.03172(13)
C13_6 C 0.04567(16) 0.23270(15) 0.02526(15)
H15_6 H 0.0840 0.2610 0.0521
N5_4 N 0.25602(12) 0.05779(11) 0.21749(10)
N3_4 N 0.25602(12) 0.94221(11) 0.71749(10)
N4_6 N 0.18478(13) 0.97989(12) 0.72946(10)
H2_6 H 0.1500 0.9914 0.6950
C3_6 C 0.26113(15) 0.97568(14) 0.91941(12)
C4_6 C 0.26696(14) 0.91734(14) 0.97089(13)
C5_6 C 0.2603(2) 0.83349(16) 0.96237(16)
H7_6 H 0.2093 0.8212 0.9379
H8_6 H 0.3057 0.8152 0.9330
C7_6 C 0.17492(16) 0.99720(16) 0.80178(13)
C8_6 C 0.24365(15) 0.96947(13) 0.83902(12)
C9_6 C 0.29272(14) 0.93557(13) 0.78414(12)
C10_6 C 0.37220(16) 0.89380(16) 0.79211(15)
H12_6 H 0.4093 0.9090 0.7530
H13_6 H 0.3963 0.9053 0.8397
H14_6 H 0.3622 0.8402 0.7887
Zn3_4 Zn 0.274785(15) 0.899171(14) 0.617034(13)
O4_6 O 0.82563(12) 0.23121(12) 0.84826(13)
C14_6 C 0.98988(16) 0.26894(14) 0.97883(15)
H16_6 H 0.9897 0.3217 0.9761
C15_6 C 0.93331(15) 0.14962(14) 0.94325(16)
H17_6 H 0.8960 0.1212 0.9153
C16_6 C 0.98723(16) 0.11331(14) 0.99125(16)
H18_6 H 0.9850 0.0608 0.9964
C17_6 C 0.87228(15) 0.26801(15) 0.88817(14)
C18_6 C 0.93436(14) 0.22763(13) 0.93649(14)
N2_5 N 0.28127(12) 0.05056(11) 0.53749(10)
H1_5 H 0.2867 0.0756 0.5785
N4_7 N 0.18478(13) 0.02011(12) 0.22946(10)
H2_7 H 0.1500 0.0086 0.1950
C3_7 C 0.26113(15) 0.02432(14) 0.41941(12)
C4_7 C 0.26696(14) 0.08266(14) 0.47089(13)
C5_7 C 0.2603(2) 0.16651(16) 0.46237(16)
H6_5 H 0.2616 0.1900 0.5108
H7_7 H 0.2093 0.1788 0.4379
H8_7 H 0.3057 0.1848 0.4330
C7_7 C 0.17492(16) 0.00280(16) 0.30178(13)
C8_7 C 0.24365(15) 0.03053(13) 0.33902(12)
C9_7 C 0.29272(14) 0.06443(13) 0.28414(12)
C10_7 C 0.37220(16) 0.10620(16) 0.29211(15)
H12_7 H 0.4093 0.0910 0.2530
H13_7 H 0.3963 0.0947 0.3397
H14_7 H 0.3622 0.1598 0.2887
O1_7 O 0.17280(10) 0.84635(10) 0.59199(10)
O2_7 O 0.09481(13) 0.95085(11) 0.60174(11)
N1_7 N 0.28620(13) 0.97396(11) 0.53243(10)
C1_5 C 0.2755(2) 0.87757(17) 0.43179(16)
H3_5 H 0.2252 0.8522 0.4453
H4_5 H 0.3215 0.8513 0.4535
H5_5 H 0.2810 0.8779 0.3784
C2_5 C 0.27350(16) 0.95740(14) 0.45998(13)
C6_5 C 0.0995(2) 0.9634(2) 0.33036(18)
H9_5 H 0.0960 0.9136 0.3087
H10_5 H 0.0514 0.9922 0.3170
H11_5 H 0.1027 0.9590 0.3837
C11_7 C 0.10752(15) 0.88522(14) 0.57957(14)
C12_7 C 0.04454(14) 0.84544(13) 0.53172(13)
C13_7 C 0.04567(16) 0.76730(15) 0.52526(15)
H15_7 H 0.0840 0.7390 0.5521
O5_4 O 0.37217(11) 0.83979(11) 0.60507(10)
O3_4 O 0.87217(11) 0.66021(11) 0.39493(10)
O4_7 O 0.82563(12) 0.76879(12) 0.34826(13)
C14_7 C 0.98988(16) 0.73106(14) 0.47883(15)
H16_7 H 0.9897 0.6783 0.4761
C15_7 C 0.93331(15) 0.85038(14) 0.44325(16)
H17_7 H 0.8960 0.8788 0.4153
C16_7 C 0.98723(16) 0.88669(14) 0.49125(16)
H18_7 H 0.9850 0.9392 0.4964
C17_7 C 0.87228(15) 0.73199(15) 0.38817(14)
C18_7 C 0.93436(14) 0.77237(13) 0.43649(14)
O1_8 O 0.67280(10) 0.65365(10) 0.40801(10)
O2_8 O 0.59481(13) 0.54915(11) 0.39826(11)
O4_8 O 0.32563(12) 0.73121(12) 0.65174(13)
N1_8 N 0.78620(13) 0.52604(11) 0.46757(10)
N2_6 N 0.78127(12) 0.44944(11) 0.46251(10)
H1_6 H 0.7867 0.4244 0.4215
N4_8 N 0.68478(13) 0.47989(12) 0.77054(10)
H2_8 H 0.6500 0.4914 0.8050
C1_6 C 0.7755(2) 0.62243(17) 0.56821(16)
H3_6 H 0.7252 0.6478 0.5547
H4_6 H 0.8215 0.6487 0.5465
H5_6 H 0.7810 0.6221 0.6216
C2_6 C 0.77350(16) 0.54260(14) 0.54002(13)
C3_8 C 0.76113(15) 0.47568(14) 0.58059(12)
C4_8 C 0.76696(14) 0.41734(14) 0.52911(13)
C5_8 C 0.7603(2) 0.33349(16) 0.53763(16)
H6_6 H 0.7616 0.3100 0.4892
H7_8 H 0.7093 0.3212 0.5621
H8_8 H 0.8057 0.3152 0.5670
C6_6 C 0.5995(2) 0.5366(2) 0.66964(18)
H9_6 H 0.5960 0.5864 0.6913
H10_6 H 0.5514 0.5078 0.6830
H11_6 H 0.6027 0.5410 0.6163
C7_8 C 0.67492(16) 0.49720(16) 0.69822(13)
C8_8 C 0.74365(15) 0.46947(13) 0.66098(12)
C9_8 C 0.79272(14) 0.43557(13) 0.71586(12)
C10_8 C 0.87220(16) 0.39380(16) 0.70789(15)
H12_8 H 0.9093 0.4090 0.7470
H13_8 H 0.8963 0.4053 0.6603
H14_8 H 0.8622 0.3402 0.7113
C11_8 C 0.60752(15) 0.61478(14) 0.42043(14)
C12_8 C 0.54454(14) 0.65456(13) 0.46828(13)
C13_8 C 0.54567(16) 0.73270(15) 0.47474(15)
H15_8 H 0.5840 0.7610 0.4479
C14_8 C 0.48988(16) 0.76894(14) 0.52117(15)
H16_8 H 0.4897 0.8217 0.5239
C15_8 C 0.43331(15) 0.64962(14) 0.55675(16)
H17_8 H 0.3960 0.6212 0.5847
C16_8 C 0.48723(16) 0.61331(14) 0.50875(16)
H18_8 H 0.4850 0.5608 0.5036
C17_8 C 0.37228(15) 0.76801(15) 0.61183(14)
C18_8 C 0.43436(14) 0.72763(13) 0.56351(14)
C1_7 C 0.2755(2) 0.12243(17) 0.93179(16)
H3_7 H 0.2252 0.1478 0.9453
H4_7 H 0.3215 0.1487 0.9535
H5_7 H 0.2810 0.1221 0.8784
C2_7 C 0.27350(16) 0.04260(14) 0.95998(13)
C6_7 C 0.0995(2) 0.0366(2) 0.83036(18)
H9_7 H 0.0960 0.0864 0.8087
H10_7 H 0.0514 0.0078 0.8170
H11_7 H 0.1027 0.0410 0.8837
N2_7 N 0.28127(12) 0.94944(11) 0.03749(10)
H1_7 H 0.2867 0.9244 0.0785
H6_7 H 0.2616 0.8100 0.0108
N2_8 N 0.71873(12) 0.05056(11) 0.96251(10)
H1_8 H 0.7133 0.0756 0.9215
H6_8 H 0.7384 0.1900 0.9892
C1_8 C 0.7245(2) 0.87757(17) 0.06821(16)
H3_8 H 0.7748 0.8522 0.0547
H4_8 H 0.6785 0.8513 0.0465
H5_8 H 0.7190 0.8779 0.1216
C2_8 C 0.72650(16) 0.95740(14) 0.04002(13)
C6_8 C 0.9005(2) 0.9634(2) 0.16964(18)
H9_8 H 0.9040 0.9136 0.1913
H10_8 H 0.9486 0.9922 0.1830
H11_8 H 0.8973 0.9590 0.1163
loop_
_geom_bond_atom_site_label_1
_geom_bond_atom_site_label_2
_geom_bond_site_symmetry_1
_geom_bond_site_symmetry_2
O3 C17 1_555 1_555
O4 C17 1_555 1_555
H16 C14 1_555 1_555
C15 H17 1_555 1_555
H18 C16 1_555 1_555
C17 C18 1_555 1_555
C18 C14 1_555 1_555
Zn2 O3 1_555 1_555
C15 C16 1_555 1_555
C15 C18 1_555 1_555
Zn1 O1 1_555 1_555
O1 C11 1_555 1_555
O2 C11 1_555 1_555
N1 Zn1 1_555 1_555
C1 H3 1_555 1_555
H4 C1 1_555 1_555
H5 C1 1_555 1_555
C2 N1 1_555 1_555
C6 H9 1_555 1_555
H10 C6 1_555 1_555
H11 C6 1_555 1_555
C11 C12 1_555 1_555
C12 C13 1_555 1_555
C13 H15 1_555 1_555
O5 Zn1 1_555 1_555
N5 Zn1 1_555 1_555
C1 C2 1_555 1_555
H1 N2 1_555 1_555
N3 N4 1_555 1_555
N4 H2 1_555 1_555
C4 N2 1_555 1_555
C5 C4 1_555 1_555
H6 C5 1_555 1_555
H7 C5 1_555 1_555
H8 C5 1_555 1_555
C7 N4 1_555 1_555
C8 C3 1_555 1_555
C9 N3 1_555 1_555
C10 C9 1_555 1_555
H12 C10 1_555 1_555
H13 C10 1_555 1_555
H14 C10 1_555 1_555
Zn3 N3 1_555 1_555
C3 C4 1_555 1_555
C7 C8 1_555 1_555
C8 C9 1_555 1_555
Zn2 O1_2 1_555 1_555
O1_2 C11_2 1_555 1_555
O2_2 C11_2 1_555 1_555
O5 C17_2 1_555 1_555
O4_2 C17_2 1_555 1_555
N1_2 Zn2 1_555 1_555
N2_2 N1_2 1_555 1_555
H1_2 N2_2 1_555 1_555
N3_2 N4_2 1_555 1_555
N4_2 H2_2 1_555 1_555
C1_2 H3_2 1_555 1_555
H4_2 C1_2 1_555 1_555
H5_2 C1_2 1_555 1_555
C2_2 N1_2 1_555 1_555
C3_2 C2_2 1_555 1_555
C4_2 N2_2 1_555 1_555
C5_2 C4_2 1_555 1_555
H6_2 C5_2 1_555 1_555
H7_2 C5_2 1_555 1_555
H8_2 C5_2 1_555 1_555
C6_2 H9_2 1_555 1_555
H10_2 C6_2 1_555 1_555
H11_2 C6_2 1_555 1_555
C7_2 N4_2 1_555 1_555
C8_2 C3_2 1_555 1_555
C9_2 N3_2 1_555 1_555
C10_2 C9_2 1_555 1_555
H12_2 C10_2 1_555 1_555
H13_2 C10_2 1_555 1_555
H14_2 C10_2 1_555 1_555
C11_2 C12_2 1_555 1_555
C12_2 C13_2 1_555 1_555
C13_2 H15_2 1_555 1_555
C14_2 C13_2 1_555 1_555
H16_2 C14_2 1_555 1_555
C15_2 H17_2 1_555 1_555
C16_2 C12_2 1_555 1_555
H18_2 C16_2 1_555 1_555
C17_2 C18_2 1_555 1_555
C18_2 C14_2 1_555 1_555
Zn3_2 N3_2 1_555 1_555
N5_2 Zn2 1_555 1_555
C1_2 C2_2 1_555 1_555
C3_2 C4_2 1_555 1_555
C6_2 C7_2 1_555 1_555
C7_2 C8_2 1_555 1_555
C8_2 C9_2 1_555 1_555
C15_2 C16_2 1_555 1_555
C15_2 C18_2 1_555 1_555
Zn3_2 O1_3 1_555 1_555
O1_3 C11_3 1_555 1_555
O2_3 C11_3 1_555 1_555
N1_3 Zn3_2 1_555 1_555
N2_3 N1_3 1_555 1_555
H1_3 N2_3 1_555 1_555
C11_3 C12_3 1_555 1_555
C12_3 C13_3 1_555 1_555
C13_3 H15_3 1_555 1_555
O5_2 Zn3_2 1_555 1_555
O3_2 C17_3 1_555 1_555
O4_3 C17_3 1_555 1_555
N5_2 N4_3 1_555 1_555
N4_3 H2_3 1_555 1_555
C1_3 H3_3 1_555 1_555
H4_3 C1_3 1_555 1_555
H5_3 C1_3 1_555 1_555
C3_3 C2_3 1_555 1_555
C5_3 C4_3 1_555 1_555
H7_3 C5_3 1_555 1_555
H8_3 C5_3 1_555 1_555
C6_3 H9_3 1_555 1_555
H10_3 C6_3 1_555 1_555
H11_3 C6_3 1_555 1_555
C7_3 N4_3 1_555 1_555
C8_3 C3_3 1_555 1_555
C9_3 N5_2 1_555 1_555
C10_3 C9_3 1_555 1_555
H12_3 C10_3 1_555 1_555
H13_3 C10_3 1_555 1_555
H14_3 C10_3 1_555 1_555
H16_3 C14_3 1_555 1_555
C15_3 H17_3 1_555 1_555
H18_3 C16_3 1_555 1_555
C17_3 C18_3 1_555 1_555
C18_3 C14_3 1_555 1_555
Zn3 O3_2 1_555 1_555
C1_3 C2_3 1_555 1_555
C3_3 C4_3 1_555 1_555
C6_3 C7_3 1_555 1_555
C7_3 C8_3 1_555 1_555
C8_3 C9_3 1_555 1_555
C15_3 C16_3 1_555 1_555
C15_3 C18_3 1_555 1_555
O5_2 C17_4 1_555 1_555
O4_4 C17_4 1_555 1_555
H16_4 C14_4 1_555 1_555
C15_4 H17_4 1_555 1_555
H18_4 C16_4 1_555 1_555
C17_4 C18_4 1_555 1_555
C18_4 C14_4 1_555 1_555
C15_4 C16_4 1_555 1_555
C15_4 C18_4 1_555 1_555
N5 N4_4 1_555 1_555
N4_4 H2_4 1_555 1_555
C5_4 C4_4 1_555 1_555
H7_4 C5_4 1_555 1_555
H8_4 C5_4 1_555 1_555
C7_4 N4_4 1_555 1_555
C8_4 C3_4 1_555 1_555
C9_4 N5 1_555 1_555
C10_4 C9_4 1_555 1_555
H12_4 C10_4 1_555 1_555
H13_4 C10_4 1_555 1_555
H14_4 C10_4 1_555 1_555
C3_4 C4_4 1_555 1_555
C7_4 C8_4 1_555 1_555
C8_4 C9_4 1_555 1_555
Zn3 O1_4 1_555 1_555
O1_4 C11_4 1_555 1_555
O2_4 C11_4 1_555 1_555
N1_4 Zn3 1_555 1_555
C11_4 C12_4 1_555 1_555
C12_4 C13_4 1_555 1_555
C13_4 H15_4 1_555 1_555
O3_3 C17_5 1_555 1_555
O4_5 C17_5 1_555 1_555
N3_3 N4_5 1_555 1_555
N4_5 H2_5 1_555 1_555
C1_4 H3_4 1_555 1_555
H4_4 C1_4 1_555 1_555
H5_4 C1_4 1_555 1_555
C3_5 C2_4 1_555 1_555
C5_5 C4_5 1_555 1_555
H7_5 C5_5 1_555 1_555
H8_5 C5_5 1_555 1_555
C6_4 H9_4 1_555 1_555
H10_4 C6_4 1_555 1_555
H11_4 C6_4 1_555 1_555
C7_5 N4_5 1_555 1_555
C8_5 C3_5 1_555 1_555
C9_5 N3_3 1_555 1_555
C10_5 C9_5 1_555 1_555
H12_5 C10_5 1_555 1_555
H13_5 C10_5 1_555 1_555
H14_5 C10_5 1_555 1_555
H16_5 C14_5 1_555 1_555
C15_5 H17_5 1_555 1_555
H18_5 C16_5 1_555 1_555
C17_5 C18_5 1_555 1_555
C18_5 C14_5 1_555 1_555
Zn2_2 O3_3 1_555 1_555
Zn3_3 N3_3 1_555 1_555
C1_4 C2_4 1_555 1_555
C3_5 C4_5 1_555 1_555
C6_4 C7_5 1_555 1_555
C7_5 C8_5 1_555 1_555
C8_5 C9_5 1_555 1_555
C15_5 C16_5 1_555 1_555
C15_5 C18_5 1_555 1_555
Zn1_2 O1_5 1_555 1_555
O1_5 C11_5 1_555 1_555
O2_5 C11_5 1_555 1_555
N1_5 Zn1_2 1_555 1_555
N2_4 N1_5 1_555 1_555
H1_4 N2_4 1_555 1_555
C11_5 C12_5 1_555 1_555
C12_5 C13_5 1_555 1_555
C13_5 H15_5 1_555 1_555
O5_3 Zn1_2 1_555 1_555
N5_3 Zn1_2 1_555 1_555
Zn2_2 O1_6 1_555 1_555
O1_6 C11_6 1_555 1_555
O2_6 C11_6 1_555 1_555
N1_6 Zn2_2 1_555 1_555
C11_6 C12_6 1_555 1_555
C12_6 C13_6 1_555 1_555
C13_6 H15_6 1_555 1_555
N5_4 Zn2_2 1_555 1_555
N3_4 N4_6 1_555 1_555
N4_6 H2_6 1_555 1_555
C5_6 C4_6 1_555 1_555
H7_6 C5_6 1_555 1_555
H8_6 C5_6 1_555 1_555
C7_6 N4_6 1_555 1_555
C8_6 C3_6 1_555 1_555
C9_6 N3_4 1_555 1_555
C10_6 C9_6 1_555 1_555
H12_6 C10_6 1_555 1_555
H13_6 C10_6 1_555 1_555
H14_6 C10_6 1_555 1_555
Zn3_4 N3_4 1_555 1_555
C3_6 C4_6 1_555 1_555
C7_6 C8_6 1_555 1_555
C8_6 C9_6 1_555 1_555
O5_3 C17_6 1_555 1_555
O4_6 C17_6 1_555 1_555
H16_6 C14_6 1_555 1_555
C15_6 H17_6 1_555 1_555
H18_6 C16_6 1_555 1_555
C17_6 C18_6 1_555 1_555
C18_6 C14_6 1_555 1_555
C15_6 C16_6 1_555 1_555
C15_6 C18_6 1_555 1_555
H1_5 N2_5 1_555 1_555
N5_4 N4_7 1_555 1_555
N4_7 H2_7 1_555 1_555
C4_7 N2_5 1_555 1_555
C5_7 C4_7 1_555 1_555
H6_5 C5_7 1_555 1_555
H7_7 C5_7 1_555 1_555
H8_7 C5_7 1_555 1_555
C7_7 N4_7 1_555 1_555
C8_7 C3_7 1_555 1_555
C9_7 N5_4 1_555 1_555
C10_7 C9_7 1_555 1_555
H12_7 C10_7 1_555 1_555
H13_7 C10_7 1_555 1_555
H14_7 C10_7 1_555 1_555
C3_7 C4_7 1_555 1_555
C7_7 C8_7 1_555 1_555
C8_7 C9_7 1_555 1_555
Zn3_4 O1_7 1_555 1_555
O1_7 C11_7 1_555 1_555
O2_7 C11_7 1_555 1_555
N1_7 Zn3_4 1_555 1_555
C1_5 H3_5 1_555 1_555
H4_5 C1_5 1_555 1_555
H5_5 C1_5 1_555 1_555
C2_5 N1_7 1_555 1_555
C6_5 H9_5 1_555 1_555
H10_5 C6_5 1_555 1_555
H11_5 C6_5 1_555 1_555
C11_7 C12_7 1_555 1_555
C12_7 C13_7 1_555 1_555
C13_7 H15_7 1_555 1_555
O5_4 Zn3_4 1_555 1_555
C1_5 C2_5 1_555 1_555
O3_4 C17_7 1_555 1_555
O4_7 C17_7 1_555 1_555
H16_7 C14_7 1_555 1_555
C15_7 H17_7 1_555 1_555
H18_7 C16_7 1_555 1_555
C17_7 C18_7 1_555 1_555
C18_7 C14_7 1_555 1_555
Zn3_3 O3_4 1_555 1_555
C15_7 C16_7 1_555 1_555
C15_7 C18_7 1_555 1_555
Zn3_3 O1_8 1_555 1_555
O1_8 C11_8 1_555 1_555
O2_8 C11_8 1_555 1_555
O5_4 C17_8 1_555 1_555
O4_8 C17_8 1_555 1_555
N1_8 Zn3_3 1_555 1_555
N2_6 N1_8 1_555 1_555
H1_6 N2_6 1_555 1_555
N5_3 N4_8 1_555 1_555
N4_8 H2_8 1_555 1_555
C1_6 H3_6 1_555 1_555
H4_6 C1_6 1_555 1_555
H5_6 C1_6 1_555 1_555
C2_6 N1_8 1_555 1_555
C3_8 C2_6 1_555 1_555
C4_8 N2_6 1_555 1_555
C5_8 C4_8 1_555 1_555
H6_6 C5_8 1_555 1_555
H7_8 C5_8 1_555 1_555
H8_8 C5_8 1_555 1_555
C6_6 H9_6 1_555 1_555
H10_6 C6_6 1_555 1_555
H11_6 C6_6 1_555 1_555
C7_8 N4_8 1_555 1_555
C8_8 C3_8 1_555 1_555
C9_8 N5_3 1_555 1_555
C10_8 C9_8 1_555 1_555
H12_8 C10_8 1_555 1_555
H13_8 C10_8 1_555 1_555
H14_8 C10_8 1_555 1_555
C11_8 C12_8 1_555 1_555
C12_8 C13_8 1_555 1_555
C13_8 H15_8 1_555 1_555
C14_8 C13_8 1_555 1_555
H16_8 C14_8 1_555 1_555
C15_8 H17_8 1_555 1_555
C16_8 C12_8 1_555 1_555
H18_8 C16_8 1_555 1_555
C17_8 C18_8 1_555 1_555
C18_8 C14_8 1_555 1_555
C1_6 C2_6 1_555 1_555
C3_8 C4_8 1_555 1_555
C6_6 C7_8 1_555 1_555
C7_8 C8_8 1_555 1_555
C8_8 C9_8 1_555 1_555
C15_8 C16_8 1_555 1_555
C15_8 C18_8 1_555 1_555
C1_7 H3_7 1_555 1_555
H4_7 C1_7 1_555 1_555
H5_7 C1_7 1_555 1_555
C6_7 H9_7 1_555 1_555
H10_7 C6_7 1_555 1_555
H11_7 C6_7 1_555 1_555
C1_7 C2_7 1_555 1_555
H1_7 N2_7 1_555 1_555
H1_8 N2_8 1_555 1_555
C1_8 H3_8 1_555 1_555
H4_8 C1_8 1_555 1_555
H5_8 C1_8 1_555 1_555
C6_8 H9_8 1_555 1_555
H10_8 C6_8 1_555 1_555
H11_8 C6_8 1_555 1_555
C1_8 C2_8 1_555 1_555

#END
