
###############################################################################
#
# This file contains modified crystal structure data generated from the
# MOF subset of the Cambridge Structural Database (CSD) v543 
# hosted by the Cambridge Crystallographic Data Centre (CCDC).
#
# This work is licensed under the Creative Commons
# Attribution-NonCommercial-ShareAlike 4.0 International License.
# To view a copy of this license, visit
# http://creativecommons.org/licenses/by-nc-sa/4.0/
# or send a letter to
# Creative Commons, PO Box 1866, Mountain View, CA 94042, USA.
#
# CIF created using the CSD Python API on 29 September 2022
# The structure has been converted into the P1 space group
# The structure has a 3D framework
# The original CSD entry PIJJEZ is in the rhombohedral crystal system
# The framework has been calculated to contain at least 10.0% void space
# The void calculation uses a probe of radius 1.32A, grid spacing 0.4
# The framework is charged, counterions have been retained in the structure
#
###############################################################################

data_PIJJEZ
_chemical_formula_moiety         '(C1008 H432 Cd37 O288 27-)n'
_symmetry_cell_setting           triclinic
_symmetry_space_group_name_H-M   'P 1'
_symmetry_Int_Tables_number      1
_space_group_name_Hall           'P 1'
loop_
_symmetry_equiv_pos_site_id
_symmetry_equiv_pos_as_xyz
1 x,y,z
_cell_length_a                   26.5879(6)
_cell_length_b                   26.5879(6)
_cell_length_c                   67.331(4)
_cell_angle_alpha                90
_cell_angle_beta                 90
_cell_angle_gamma                120
_cell_volume                     41220.5
loop_
_atom_site_label
_atom_site_type_symbol
_atom_site_fract_x
_atom_site_fract_y
_atom_site_fract_z
Cd7 Cd 0.00428(2) 0.48094(2) 0.552405(8)
Cd16 Cd 0.0000 0.5000 0.5000
O54 O 0.0352(3) 0.5563(2) 0.52818(7)
O58 O 0.00702(17) 0.43057(19) 0.51825(7)
O64 O 0.0665(2) 0.4501(3) 0.54373(8)
O72 O 0.0856(4) 0.5764(2) 0.55597(8)
Cd1 Cd 0.81427(2) 0.67095(2) 0.614262(8)
O1 O 0.7482(2) 0.6441(3) 0.58810(8)
O2 O 0.8310(2) 0.6488(3) 0.58233(9)
C1 C 0.7821(3) 0.6388(3) 0.57691(12)
C2 C 0.7944(2) 0.6064(3) 0.52235(9)
C3 C 0.8077(3) 0.6238(3) 0.54210(10)
H1 H 0.8455 0.6377 0.5466
C4 C 0.7099(3) 0.6011(3) 0.54897(10)
H2 H 0.6816 0.5983 0.5577
C5 C 0.6965(3) 0.5850(3) 0.52916(10)
H3 H 0.6589 0.5727 0.5248
C6 C 0.7657(3) 0.6210(3) 0.55533(11)
C7 C 0.8367(3) 0.6043(3) 0.50927(11)
C8 C 0.8202(3) 0.5813(3) 0.49034(9)
C9 C 0.7213(3) 0.5677(3) 0.49536(8)
C10 C 0.6660(3) 0.5512(3) 0.48792(9)
H4 H 0.6389 0.5530 0.4962
C11 C 0.7370(3) 0.5864(3) 0.51563(9)
C12 C 0.7623(3) 0.5638(3) 0.48244(9)
C13 C 0.8585(3) 0.5715(3) 0.47858(11)
H5 H 0.8477 0.5566 0.4658
C14 C 0.6505(3) 0.5320(3) 0.46818(9)
C15 C 0.7454(3) 0.5454(4) 0.46269(11)
H6 H 0.7718 0.5440 0.4540
C16 C 0.6909(3) 0.5296(5) 0.45614(11)
H7 H 0.6808 0.5167 0.4431
C17 C 0.9125(3) 0.5840(3) 0.48607(10)
C18 C 0.9299(3) 0.6100(3) 0.50445(11)
H8 H 0.9666 0.6202 0.5093
C19 C 0.8933(3) 0.6206(3) 0.51559(12)
H9 H 0.9062 0.6393 0.5278
Cd2 Cd 0.8333 0.6667 0.6667
O3 O 0.7801(4) 0.5803(3) 0.62259(12)
C20 C 0.7845(3) 0.5573(3) 0.63823(16)
C21 C 0.9486(3) 0.5662(3) 0.47427(12)
O4 O 0.8005(3) 0.5784(3) 0.65507(10)
C22 C 0.5905(3) 0.5135(4) 0.46094(11)
C23 C 0.7646(3) 0.4935(3) 0.63745(13)
O5 O 0.5563(2) 0.5211(2) 0.47182(7)
O6 O 0.99298(17) 0.56943(19) 0.48175(7)
O7 O 0.9335(2) 0.5499(3) 0.45627(8)
O8 O 0.5764(2) 0.4908(3) 0.44403(8)
C24 C 0.6864(3) 0.3932(3) 0.63625(13)
C25 C 0.7263(3) 0.3744(3) 0.63577(12)
C26 C 0.7070(4) 0.4540(3) 0.63664(14)
H10 H 0.6804 0.4670 0.6363
C27 C 0.7857(5) 0.4150(5) 0.6371(2)
H11 H 0.8128 0.4026 0.6375
C28 C 0.8041(6) 0.4747(5) 0.6378(2)
H12 H 0.8435 0.5017 0.6385
O9 O 0.4197(3) 0.1998(5) 0.62259(12)
C29 C 0.4427(3) 0.2272(4) 0.63823(16)
O10 O 0.4216(3) 0.2221(4) 0.65507(10)
C30 C 0.5065(3) 0.2711(4) 0.63745(13)
C31 C 0.6068(3) 0.2932(4) 0.63625(13)
C32 C 0.6256(3) 0.3519(4) 0.63577(12)
C33 C 0.5460(3) 0.2530(5) 0.63664(14)
H13 H 0.5330 0.2134 0.6363
C34 C 0.5850(5) 0.3707(7) 0.6371(2)
H14 H 0.5974 0.4102 0.6375
C35 C 0.5253(5) 0.3294(8) 0.6378(2)
H15 H 0.4983 0.3418 0.6385
O11 O 0.8002(5) 0.2199(4) 0.62259(12)
C36 C 0.7728(4) 0.2155(3) 0.63823(16)
O12 O 0.7779(4) 0.1995(3) 0.65507(10)
C37 C 0.7289(4) 0.2354(3) 0.63745(13)
C38 C 0.7068(4) 0.3136(3) 0.63625(13)
C39 C 0.6481(4) 0.2737(3) 0.63577(12)
C40 C 0.7470(5) 0.2930(4) 0.63664(14)
H16 H 0.7866 0.3196 0.6363
C41 C 0.6293(7) 0.2143(5) 0.6371(2)
H17 H 0.5898 0.1872 0.6375
C42 C 0.6706(8) 0.1959(6) 0.6378(2)
H18 H 0.6582 0.1565 0.6385
Cd3 Cd 0.32905(2) 0.14332(3) 0.614262(8)
O13 O 0.3559(3) 0.1041(4) 0.58810(8)
O14 O 0.3512(3) 0.1822(4) 0.58233(9)
C43 C 0.3612(3) 0.1433(4) 0.57691(12)
C44 C 0.3936(3) 0.1880(4) 0.52235(9)
C45 C 0.3762(3) 0.1839(4) 0.54210(10)
H19 H 0.3623 0.2078 0.5466
C46 C 0.3989(3) 0.1088(4) 0.54897(10)
H20 H 0.4017 0.0833 0.5577
C47 C 0.4150(3) 0.1115(4) 0.52916(10)
H21 H 0.4273 0.0862 0.5248
C48 C 0.3790(3) 0.1447(4) 0.55533(11)
C49 C 0.3957(3) 0.2324(4) 0.50927(11)
C50 C 0.4187(3) 0.2389(4) 0.49034(9)
C51 C 0.4323(3) 0.1536(4) 0.49536(8)
C52 C 0.4488(3) 0.1148(4) 0.48792(9)
H22 H 0.4470 0.0859 0.4962
C53 C 0.4136(3) 0.1506(4) 0.51563(9)
C54 C 0.4362(3) 0.1985(4) 0.48244(9)
C55 C 0.4285(3) 0.2870(4) 0.47858(11)
H23 H 0.4434 0.2911 0.4658
C56 C 0.4680(3) 0.1185(4) 0.46818(9)
C57 C 0.4546(4) 0.2000(5) 0.46269(11)
H24 H 0.4560 0.2278 0.4540
C58 C 0.4704(5) 0.1613(6) 0.45614(11)
H25 H 0.4833 0.1641 0.4431
C59 C 0.4160(3) 0.3285(4) 0.48607(10)
C60 C 0.3900(3) 0.3199(4) 0.50445(11)
H26 H 0.3798 0.3464 0.5093
C61 C 0.3794(3) 0.2727(4) 0.51559(12)
H27 H 0.3607 0.2669 0.5278
Cd4 Cd 0.3333 0.1666 0.6667
C62 C 0.4338(3) 0.3824(4) 0.47427(12)
C63 C 0.4865(4) 0.0770(5) 0.46094(11)
O15 O 0.4789(2) 0.0352(3) 0.47182(7)
O16 O 0.43057(19) 0.42355(25) 0.48175(7)
O17 O 0.4501(3) 0.3836(4) 0.45627(8)
O18 O 0.5092(3) 0.0856(4) 0.44403(8)
Cd5 Cd 0.85668(3) 0.18573(2) 0.614262(8)
O19 O 0.8959(4) 0.2518(2) 0.58810(8)
O20 O 0.8178(4) 0.1690(2) 0.58233(9)
C64 C 0.8567(4) 0.2179(3) 0.57691(12)
C65 C 0.8120(4) 0.2056(2) 0.52235(9)
C66 C 0.8161(4) 0.1923(3) 0.54210(10)
H28 H 0.7922 0.1545 0.5466
C67 C 0.8912(4) 0.2901(3) 0.54897(10)
H29 H 0.9167 0.3184 0.5577
C68 C 0.8885(4) 0.3035(3) 0.52916(10)
H30 H 0.9138 0.3411 0.5248
C69 C 0.8553(4) 0.2343(3) 0.55533(11)
C70 C 0.7676(4) 0.1633(3) 0.50927(11)
C71 C 0.7611(4) 0.1798(3) 0.49034(9)
C72 C 0.8464(4) 0.2787(3) 0.49536(8)
C73 C 0.8852(4) 0.3340(3) 0.48792(9)
H31 H 0.9141 0.3611 0.4962
C74 C 0.8494(4) 0.2630(3) 0.51563(9)
C75 C 0.8015(4) 0.2377(3) 0.48244(9)
C76 C 0.7130(4) 0.1415(3) 0.47858(11)
H32 H 0.7089 0.1523 0.4658
C77 C 0.8815(4) 0.3495(3) 0.46818(9)
C78 C 0.8000(5) 0.2546(3) 0.46269(11)
H33 H 0.7722 0.2282 0.4540
C79 C 0.8387(6) 0.3091(3) 0.45614(11)
H34 H 0.8359 0.3192 0.4431
C80 C 0.6715(4) 0.0875(3) 0.48607(10)
C81 C 0.6801(4) 0.0701(3) 0.50445(11)
H35 H 0.6536 0.0334 0.5093
C82 C 0.7273(4) 0.1067(3) 0.51559(12)
H36 H 0.7331 0.0938 0.5278
Cd6 Cd 0.8334 0.1667 0.6667
C83 C 0.6176(4) 0.0514(3) 0.47427(12)
C84 C 0.9230(5) 0.4095(3) 0.46094(11)
O21 O 0.9648(3) 0.4437(2) 0.47182(7)
O22 O 0.57645(25) 0.00702(17) 0.48175(7)
O23 O 0.6164(4) 0.0665(2) 0.45627(8)
O24 O 0.9144(4) 0.4236(2) 0.44403(8)
O25 O 0.9774(3) 0.4149(2) 0.57857(8)
O26 O 0.9821(3) 0.4977(2) 0.58434(9)
C85 C 0.9721(3) 0.4488(3) 0.58976(12)
C86 C 0.9397(3) 0.4611(2) 0.64432(9)
C87 C 0.9571(3) 0.4744(3) 0.62457(10)
H37 H 0.9710 0.5122 0.6201
C88 C 0.9344(3) 0.3766(3) 0.61770(10)
H38 H 0.9316 0.3483 0.6090
C89 C 0.9183(3) 0.3632(3) 0.63751(10)
H39 H 0.9060 0.3256 0.6419
C90 C 0.9543(3) 0.4324(3) 0.61134(11)
C91 C 0.9376(3) 0.5034(3) 0.65740(11)
C92 C 0.9146(3) 0.4869(3) 0.67633(9)
C93 C 0.9010(3) 0.3880(3) 0.67131(8)
C94 C 0.8845(3) 0.3327(3) 0.67875(9)
H40 H 0.8863 0.3056 0.6705
C95 C 0.9197(3) 0.4037(3) 0.65104(9)
C96 C 0.8971(3) 0.4290(3) 0.68423(9)
C97 C 0.9048(3) 0.5252(3) 0.68809(11)
H41 H 0.8899 0.5144 0.7009
C98 C 0.8653(3) 0.3172(3) 0.69849(9)
C99 C 0.8787(4) 0.4121(3) 0.70398(11)
H42 H 0.8773 0.4385 0.7127
C100 C 0.8629(5) 0.3576(3) 0.71053(11)
H43 H 0.8500 0.3475 0.7236
C101 C 0.9173(3) 0.5792(3) 0.68060(10)
C102 C 0.9433(3) 0.5966(3) 0.66222(11)
H44 H 0.9535 0.6333 0.6574
C103 C 0.9539(3) 0.5600(3) 0.65108(12)
H45 H 0.9726 0.5729 0.6389
O27 O 0.9136(3) 0.4468(4) 0.54408(12)
C104 C 0.8906(3) 0.4512(3) 0.52844(16)
C105 C 0.8995(3) 0.6153(3) 0.69240(12)
O28 O 0.9117(3) 0.4672(3) 0.51160(10)
C106 C 0.8468(4) 0.2572(3) 0.70573(11)
C107 C 0.8268(3) 0.4313(3) 0.52922(13)
O29 O 0.8544(2) 0.2230(2) 0.69485(7)
O30 O 0.90276(19) 0.65965(17) 0.68492(7)
O31 O 0.8832(3) 0.6002(2) 0.71040(8)
O32 O 0.8241(3) 0.2431(2) 0.72264(8)
C108 C 0.7265(3) 0.3531(3) 0.53042(13)
C109 C 0.7077(3) 0.3930(3) 0.53090(12)
C110 C 0.7873(3) 0.3737(4) 0.53003(14)
H46 H 0.8003 0.3471 0.5304
C111 C 0.7483(5) 0.4524(5) 0.5296(2)
H47 H 0.7359 0.4795 0.5292
C112 C 0.8080(5) 0.4708(6) 0.5289(2)
H48 H 0.8350 0.5102 0.5282
O33 O 0.5331(5) 0.0864(3) 0.54408(12)
C113 C 0.5605(4) 0.1094(3) 0.52844(16)
O34 O 0.5554(4) 0.0883(3) 0.51160(10)
C114 C 0.6044(4) 0.1732(3) 0.52922(13)
C115 C 0.6265(4) 0.2735(3) 0.53042(13)
C116 C 0.6852(4) 0.2923(3) 0.53090(12)
C117 C 0.5863(5) 0.2127(3) 0.53003(14)
H49 H 0.5467 0.1997 0.5304
C118 C 0.7040(7) 0.2517(5) 0.5296(2)
H50 H 0.7435 0.2641 0.5292
C119 C 0.6627(8) 0.1920(5) 0.5289(2)
H51 H 0.6751 0.1650 0.5282
O35 O 0.5532(4) 0.4669(5) 0.54408(12)
C120 C 0.5488(3) 0.4395(4) 0.52844(16)
O36 O 0.5328(3) 0.4446(4) 0.51160(10)
C121 C 0.5687(3) 0.3956(4) 0.52922(13)
C122 C 0.6469(3) 0.3735(4) 0.53042(13)
C123 C 0.6070(3) 0.3148(4) 0.53090(12)
C124 C 0.6263(4) 0.4137(5) 0.53003(14)
H52 H 0.6529 0.4533 0.5304
C125 C 0.5476(5) 0.2960(7) 0.5296(2)
H53 H 0.5205 0.2565 0.5292
C126 C 0.5292(6) 0.3373(8) 0.5289(2)
H54 H 0.4898 0.3249 0.5282
O37 O 0.4374(4) 0.0226(3) 0.57857(8)
O38 O 0.5155(4) 0.0179(3) 0.58434(9)
C127 C 0.4766(4) 0.0279(3) 0.58976(12)
C128 C 0.5213(4) 0.0603(3) 0.64432(9)
C129 C 0.5172(4) 0.0429(3) 0.62457(10)
H55 H 0.5411 0.0290 0.6201
C130 C 0.4421(4) 0.0656(3) 0.61770(10)
H56 H 0.4166 0.0684 0.6090
C131 C 0.4448(4) 0.0817(3) 0.63751(10)
H57 H 0.4195 0.0940 0.6419
C132 C 0.4780(4) 0.0457(3) 0.61134(11)
C133 C 0.5657(4) 0.0624(3) 0.65740(11)
C134 C 0.5722(4) 0.0854(3) 0.67633(9)
C135 C 0.4869(4) 0.0990(3) 0.67131(8)
C136 C 0.4481(4) 0.1155(3) 0.67875(9)
H58 H 0.4192 0.1137 0.6705
C137 C 0.4839(4) 0.0803(3) 0.65104(9)
C138 C 0.5318(4) 0.1029(3) 0.68423(9)
C139 C 0.6203(4) 0.0952(3) 0.68809(11)
H59 H 0.6244 0.1101 0.7009
C140 C 0.4518(4) 0.1347(3) 0.69849(9)
C141 C 0.5333(5) 0.1213(4) 0.70398(11)
H60 H 0.5611 0.1227 0.7127
C142 C 0.4946(6) 0.1371(5) 0.71053(11)
H61 H 0.4974 0.1500 0.7236
C143 C 0.6618(4) 0.0827(3) 0.68060(10)
C144 C 0.6532(4) 0.0567(3) 0.66222(11)
H62 H 0.6797 0.0465 0.6574
C145 C 0.6060(4) 0.0461(3) 0.65108(12)
H63 H 0.6002 0.0274 0.6389
C146 C 0.7157(4) 0.1005(3) 0.69240(12)
C147 C 0.4103(5) 0.1532(4) 0.70573(11)
O39 O 0.3685(3) 0.1456(2) 0.69485(7)
O40 O 0.75688(25) 0.09724(19) 0.68492(7)
O41 O 0.7169(4) 0.1168(3) 0.71040(8)
O42 O 0.4189(4) 0.1759(3) 0.72264(8)
Cd9 Cd 0.51906(2) 0.52335(3) 0.552405(8)
O43 O 0.5851(2) 0.5626(4) 0.57857(8)
O44 O 0.5023(2) 0.4845(4) 0.58434(9)
C148 C 0.5512(3) 0.5234(4) 0.58976(12)
C149 C 0.5389(2) 0.4787(4) 0.64432(9)
C150 C 0.5256(3) 0.4828(4) 0.62457(10)
H64 H 0.4878 0.4589 0.6201
C151 C 0.6234(3) 0.5579(4) 0.61770(10)
H65 H 0.6517 0.5834 0.6090
C152 C 0.6368(3) 0.5552(4) 0.63751(10)
H66 H 0.6744 0.5805 0.6419
C153 C 0.5676(3) 0.5220(4) 0.61134(11)
C154 C 0.4966(3) 0.4343(4) 0.65740(11)
C155 C 0.5131(3) 0.4278(4) 0.67633(9)
C156 C 0.6120(3) 0.5131(4) 0.67131(8)
C157 C 0.6673(3) 0.5519(4) 0.67875(9)
H67 H 0.6944 0.5808 0.6705
C158 C 0.5963(3) 0.5161(4) 0.65104(9)
C159 C 0.5710(3) 0.4682(4) 0.68423(9)
C160 C 0.4748(3) 0.3797(4) 0.68809(11)
H68 H 0.4856 0.3756 0.7009
C161 C 0.6828(3) 0.5482(4) 0.69849(9)
C162 C 0.5879(3) 0.4667(5) 0.70398(11)
H69 H 0.5615 0.4389 0.7127
C163 C 0.6424(3) 0.5054(6) 0.71053(11)
H70 H 0.6525 0.5026 0.7236
C164 C 0.4208(3) 0.3382(4) 0.68060(10)
C165 C 0.4034(3) 0.3468(4) 0.66222(11)
H71 H 0.3667 0.3203 0.6574
C166 C 0.4400(3) 0.3940(4) 0.65108(12)
H72 H 0.4271 0.3998 0.6389
C167 C 0.3847(3) 0.2843(4) 0.69240(12)
C168 C 0.7428(3) 0.5897(5) 0.70573(11)
O45 O 0.7770(2) 0.6315(3) 0.69485(7)
O46 O 0.34035(17) 0.24312(25) 0.68492(7)
O47 O 0.3998(2) 0.2831(4) 0.71040(8)
O48 O 0.7569(2) 0.5811(4) 0.72264(8)
Cd10 Cd 0.85240(2) 0.66238(2) 0.719071(8)
Cd11 Cd 0.33762(2) 0.19001(3) 0.719071(8)
Cd12 Cd 0.80999(3) 0.14760(2) 0.719071(8)
Cd13 Cd 0.99572(2) 0.51906(2) 0.447595(8)
Cd14 Cd 0.52335(3) 0.00428(2) 0.447595(8)
Cd15 Cd 0.48094(2) 0.47665(3) 0.447595(8)
Cd16_2 Cd 1.0000 0.5000 0.5000
Cd17 Cd 0.4999 -0.0000 0.5000
Cd18 Cd 0.5000 0.5001 0.5000
O49 O 0.8662(3) 0.7549(3) 0.67826(10)
O50 O 0.2451(3) 0.1112(4) 0.67826(10)
O51 O 0.8888(4) 0.1338(3) 0.67826(10)
O52 O 0.4437(2) 0.4789(2) 0.52818(7)
O55 O 0.8122(2) 0.1104(2) 0.63849(7)
O56 O 0.2981(3) 0.1878(2) 0.63849(7)
O57 O 0.8896(2) 0.7019(3) 0.63849(7)
O59 O 0.56943(19) 0.57645(25) 0.51825(7)
O61 O 0.76390(19) 0.67369(17) 0.64842(7)
O62 O 0.90978(25) 0.23610(19) 0.64842(7)
O63 O 0.32631(17) 0.09022(25) 0.64842(7)
O65 O 0.5499(3) 0.6164(4) 0.54373(8)
O67 O 0.7834(3) 0.7332(2) 0.62294(8)
O68 O 0.9497(4) 0.2166(3) 0.62294(8)
O69 O 0.2668(2) 0.0503(4) 0.62294(8)
O70 O 0.4236(2) 0.5092(3) 0.55597(8)
O73 O 0.8425(3) 0.0903(2) 0.61070(8)
O74 O 0.2477(4) 0.1575(3) 0.61070(8)
O75 O 0.9097(2) 0.7523(4) 0.61070(8)
Cd8 Cd 0.47665(3) 0.99572(2) 0.552405(8)
Cd17_2 Cd 0.4999 1.0000 0.5000
O53 O 0.5211(2) 0.9648(3) 0.52818(7)
O60 O 0.42355(25) 0.99298(17) 0.51825(7)
O66 O 0.3836(4) 0.9335(2) 0.54373(8)
O71 O 0.4908(3) 0.9144(4) 0.55597(8)
Cd16_3 Cd 0.5000 0.0000 0.0000
Cd7_2 Cd 0.48094(2) 0.00428(2) 0.947595(8)
O54_2 O 0.5563(2) 0.0352(3) 0.97182(7)
O58_2 O 0.43057(19) 0.00702(17) 0.98175(7)
O64_2 O 0.4501(3) 0.0665(2) 0.95627(8)
O72_2 O 0.5764(2) 0.0856(4) 0.94403(8)
C8_2 C 0.5813(3) 0.8202(3) 0.00966(9)
C9_2 C 0.5677(3) 0.7213(3) 0.00464(8)
C10_2 C 0.5512(3) 0.6660(3) 0.01208(9)
H4_2 H 0.5530 0.6389 0.0038
C12_2 C 0.5638(3) 0.7623(3) 0.01756(9)
C13_2 C 0.5715(3) 0.8585(3) 0.02142(11)
H5_2 H 0.5566 0.8477 0.0342
C14_2 C 0.5320(3) 0.6505(3) 0.03182(9)
C15_2 C 0.5454(4) 0.7454(3) 0.03731(11)
H6_2 H 0.5440 0.7718 0.0460
C16_2 C 0.5296(5) 0.6909(3) 0.04386(11)
H7_2 H 0.5167 0.6808 0.0569
C17_2 C 0.5840(3) 0.9125(3) 0.01393(10)
C21_2 C 0.5662(3) 0.9486(3) 0.02573(12)
C22_2 C 0.5135(4) 0.5905(3) 0.03906(11)
O5_2 O 0.5211(2) 0.5563(2) 0.02818(7)
O6_2 O 0.56943(19) 0.99298(17) 0.01825(7)
O7_2 O 0.5499(3) 0.9335(2) 0.04373(8)
O8_2 O 0.4908(3) 0.5764(2) 0.05597(8)
C50_2 C 0.2389(4) 0.4187(3) 0.00966(9)
C51_2 C 0.1536(4) 0.4323(3) 0.00464(8)
C52_2 C 0.1148(4) 0.4488(3) 0.01208(9)
H22_2 H 0.0859 0.4470 0.0038
C54_2 C 0.1985(4) 0.4362(3) 0.01756(9)
C55_2 C 0.2870(4) 0.4285(3) 0.02142(11)
H23_2 H 0.2911 0.4434 0.0342
C56_2 C 0.1185(4) 0.4680(3) 0.03182(9)
C57_2 C 0.2000(5) 0.4546(4) 0.03731(11)
H24_2 H 0.2278 0.4560 0.0460
C58_2 C 0.1613(6) 0.4704(5) 0.04386(11)
H25_2 H 0.1641 0.4833 0.0569
C59_2 C 0.3285(4) 0.4160(3) 0.01393(10)
C62_2 C 0.3824(4) 0.4338(3) 0.02573(12)
C63_2 C 0.0770(5) 0.4865(4) 0.03906(11)
O15_2 O 0.0352(3) 0.4789(2) 0.02818(7)
O16_2 O 0.42355(25) 0.43057(19) 0.01825(7)
O17_2 O 0.3836(4) 0.4501(3) 0.04373(8)
O18_2 O 0.0856(4) 0.5092(3) 0.05597(8)
C71_2 C 0.1798(3) 0.7611(4) 0.00966(9)
C72_2 C 0.2787(3) 0.8464(4) 0.00464(8)
C73_2 C 0.3340(3) 0.8852(4) 0.01208(9)
H31_2 H 0.3611 0.9141 0.0038
C75_2 C 0.2377(3) 0.8015(4) 0.01756(9)
C76_2 C 0.1415(3) 0.7130(4) 0.02142(11)
H32_2 H 0.1523 0.7089 0.0342
C77_2 C 0.3495(3) 0.8815(4) 0.03182(9)
C78_2 C 0.2546(3) 0.8000(5) 0.03731(11)
H33_2 H 0.2282 0.7722 0.0460
C79_2 C 0.3091(3) 0.8387(6) 0.04386(11)
H34_2 H 0.3192 0.8359 0.0569
C80_2 C 0.0875(3) 0.6715(4) 0.01393(10)
C83_2 C 0.0514(3) 0.6176(4) 0.02573(12)
C84_2 C 0.4095(3) 0.9230(5) 0.03906(11)
O21_2 O 0.4437(2) 0.9648(3) 0.02818(7)
O22_2 O 0.00702(17) 0.57645(25) 0.01825(7)
O23_2 O 0.0665(2) 0.6164(4) 0.04373(8)
O24_2 O 0.4236(2) 0.9144(4) 0.05597(8)
Cd13_2 Cd 0.51906(2) 0.99572(2) 0.052405(8)
Cd14_2 Cd 0.00428(2) 0.52335(3) 0.052405(8)
Cd15_2 Cd 0.47665(3) 0.48094(2) 0.052405(8)
Cd16_4 Cd 0.5000 1.0000 0.0000
Cd17_3 Cd -0.0000 0.4999 0.0000
Cd18_2 Cd 0.5001 0.5000 0.0000
Cd1_2 Cd 0.67095(2) 0.81427(2) 0.885738(8)
O1_2 O 0.6441(3) 0.7482(2) 0.91190(8)
O2_2 O 0.6488(3) 0.8310(2) 0.91767(9)
C1_2 C 0.6388(3) 0.7821(3) 0.92309(12)
C2_2 C 0.6064(3) 0.7944(2) 0.97765(9)
C3_2 C 0.6238(3) 0.8077(3) 0.95790(10)
H1_2 H 0.6377 0.8455 0.9534
C4_2 C 0.6011(3) 0.7099(3) 0.95103(10)
H2_2 H 0.5983 0.6816 0.9423
C5_2 C 0.5850(3) 0.6965(3) 0.97084(10)
H3_2 H 0.5727 0.6589 0.9752
C6_2 C 0.6210(3) 0.7657(3) 0.94467(11)
C7_2 C 0.6043(3) 0.8367(3) 0.99073(11)
C11_2 C 0.5864(3) 0.7370(3) 0.98437(9)
C18_2 C 0.6100(3) 0.9299(3) 0.99555(11)
H8_2 H 0.6202 0.9666 0.9907
C19_2 C 0.6206(3) 0.8933(3) 0.98441(12)
H9_2 H 0.6393 0.9062 0.9722
Cd2_2 Cd 0.6667 0.8333 0.8333
O3_2 O 0.5803(3) 0.7801(4) 0.87741(12)
C20_2 C 0.5573(3) 0.7845(3) 0.86177(16)
O4_2 O 0.5784(3) 0.8005(3) 0.84493(10)
C23_2 C 0.4935(3) 0.7646(3) 0.86255(13)
C24_2 C 0.3932(3) 0.6864(3) 0.86375(13)
C25_2 C 0.3744(3) 0.7263(3) 0.86423(12)
C26_2 C 0.4540(3) 0.7070(4) 0.86336(14)
H10_2 H 0.4670 0.6804 0.8637
C27_2 C 0.4150(5) 0.7857(5) 0.8629(2)
H11_2 H 0.4026 0.8128 0.8625
C28_2 C 0.4747(5) 0.8041(6) 0.8622(2)
H12_2 H 0.5017 0.8435 0.8615
O9_2 O 0.1998(5) 0.4197(3) 0.87741(12)
C29_2 C 0.2272(4) 0.4427(3) 0.86177(16)
O10_2 O 0.2221(4) 0.4216(3) 0.84493(10)
C30_2 C 0.2711(4) 0.5065(3) 0.86255(13)
C31_2 C 0.2932(4) 0.6068(3) 0.86375(13)
C32_2 C 0.3519(4) 0.6256(3) 0.86423(12)
C33_2 C 0.2530(5) 0.5460(3) 0.86336(14)
H13_2 H 0.2134 0.5330 0.8637
C34_2 C 0.3707(7) 0.5850(5) 0.8629(2)
H14_2 H 0.4102 0.5974 0.8625
C35_2 C 0.3294(8) 0.5253(5) 0.8622(2)
H15_2 H 0.3418 0.4983 0.8615
O11_2 O 0.2199(4) 0.8002(5) 0.87741(12)
C36_2 C 0.2155(3) 0.7728(4) 0.86177(16)
O12_2 O 0.1995(3) 0.7779(4) 0.84493(10)
C37_2 C 0.2354(3) 0.7289(4) 0.86255(13)
C38_2 C 0.3136(3) 0.7068(4) 0.86375(13)
C39_2 C 0.2737(3) 0.6481(4) 0.86423(12)
C40_2 C 0.2930(4) 0.7470(5) 0.86336(14)
H16_2 H 0.3196 0.7866 0.8637
C41_2 C 0.2143(5) 0.6293(7) 0.8629(2)
H17_2 H 0.1872 0.5898 0.8625
C42_2 C 0.1959(6) 0.6706(8) 0.8622(2)
H18_2 H 0.1565 0.6582 0.8615
Cd3_2 Cd 0.14332(3) 0.32905(2) 0.885738(8)
O13_2 O 0.1041(4) 0.3559(3) 0.91190(8)
O14_2 O 0.1822(4) 0.3512(3) 0.91767(9)
C43_2 C 0.1433(4) 0.3612(3) 0.92309(12)
C44_2 C 0.1880(4) 0.3936(3) 0.97765(9)
C45_2 C 0.1839(4) 0.3762(3) 0.95790(10)
H19_2 H 0.2078 0.3623 0.9534
C46_2 C 0.1088(4) 0.3989(3) 0.95103(10)
H20_2 H 0.0833 0.4017 0.9423
C47_2 C 0.1115(4) 0.4150(3) 0.97084(10)
H21_2 H 0.0862 0.4273 0.9752
C48_2 C 0.1447(4) 0.3790(3) 0.94467(11)
C49_2 C 0.2324(4) 0.3957(3) 0.99073(11)
C53_2 C 0.1506(4) 0.4136(3) 0.98437(9)
C60_2 C 0.3199(4) 0.3900(3) 0.99555(11)
H26_2 H 0.3464 0.3798 0.9907
C61_2 C 0.2727(4) 0.3794(3) 0.98441(12)
H27_2 H 0.2669 0.3607 0.9722
Cd4_2 Cd 0.1666 0.3333 0.8333
Cd5_2 Cd 0.18573(2) 0.85668(3) 0.885738(8)
O19_2 O 0.2518(2) 0.8959(4) 0.91190(8)
O20_2 O 0.1690(2) 0.8178(4) 0.91767(9)
C64_2 C 0.2179(3) 0.8567(4) 0.92309(12)
C65_2 C 0.2056(2) 0.8120(4) 0.97765(9)
C66_2 C 0.1923(3) 0.8161(4) 0.95790(10)
H28_2 H 0.1545 0.7922 0.9534
C67_2 C 0.2901(3) 0.8912(4) 0.95103(10)
H29_2 H 0.3184 0.9167 0.9423
C68_2 C 0.3035(3) 0.8885(4) 0.97084(10)
H30_2 H 0.3411 0.9138 0.9752
C69_2 C 0.2343(3) 0.8553(4) 0.94467(11)
C70_2 C 0.1633(3) 0.7676(4) 0.99073(11)
C74_2 C 0.2630(3) 0.8494(4) 0.98437(9)
C81_2 C 0.0701(3) 0.6801(4) 0.99555(11)
H35_2 H 0.0334 0.6536 0.9907
C82_2 C 0.1067(3) 0.7273(4) 0.98441(12)
H36_2 H 0.0938 0.7331 0.9722
Cd6_2 Cd 0.1667 0.8334 0.8333
O25_2 O 0.4149(2) 0.9774(3) 0.92143(8)
O26_2 O 0.4977(2) 0.9821(3) 0.91566(9)
C85_2 C 0.4488(3) 0.9721(3) 0.91024(12)
C86_2 C 0.4611(2) 0.9397(3) 0.85568(9)
C87_2 C 0.4744(3) 0.9571(3) 0.87543(10)
H37_2 H 0.5122 0.9710 0.8799
C88_2 C 0.3766(3) 0.9344(3) 0.88230(10)
H38_2 H 0.3483 0.9316 0.8910
C89_2 C 0.3632(3) 0.9183(3) 0.86249(10)
H39_2 H 0.3256 0.9060 0.8581
C90_2 C 0.4324(3) 0.9543(3) 0.88866(11)
C91_2 C 0.5034(3) 0.9376(3) 0.84260(11)
C92_2 C 0.4869(3) 0.9146(3) 0.82367(9)
C93_2 C 0.3880(3) 0.9010(3) 0.82869(8)
C94_2 C 0.3327(3) 0.8845(3) 0.82125(9)
H40_2 H 0.3056 0.8863 0.8295
C95_2 C 0.4037(3) 0.9197(3) 0.84896(9)
C96_2 C 0.4290(3) 0.8971(3) 0.81577(9)
C97_2 C 0.5252(3) 0.9048(3) 0.81191(11)
H41_2 H 0.5144 0.8899 0.7991
C98_2 C 0.3172(3) 0.8653(3) 0.80151(9)
C99_2 C 0.4121(3) 0.8787(4) 0.79602(11)
H42_2 H 0.4385 0.8773 0.7873
C100_2 C 0.3576(3) 0.8629(5) 0.78947(11)
H43_2 H 0.3475 0.8500 0.7764
C101_2 C 0.5792(3) 0.9173(3) 0.81940(10)
C102_2 C 0.5966(3) 0.9433(3) 0.83778(11)
H44_2 H 0.6333 0.9535 0.8426
C103_2 C 0.5600(3) 0.9539(3) 0.84892(12)
H45_2 H 0.5729 0.9726 0.8611
O27_2 O 0.4468(4) 0.9136(3) 0.95592(12)
C104_2 C 0.4512(3) 0.8906(3) 0.97156(16)
C105_2 C 0.6153(3) 0.8995(3) 0.80760(12)
O28_2 O 0.4672(3) 0.9117(3) 0.98840(10)
C106_2 C 0.2572(3) 0.8468(4) 0.79427(11)
C107_2 C 0.4313(3) 0.8268(3) 0.97078(13)
O29_2 O 0.2230(2) 0.8544(2) 0.80515(7)
O30_2 O 0.65965(17) 0.90276(19) 0.81508(7)
O31_2 O 0.6002(2) 0.8832(3) 0.78960(8)
O32_2 O 0.2431(2) 0.8241(3) 0.77736(8)
C108_2 C 0.3531(3) 0.7265(3) 0.96958(13)
C109_2 C 0.3930(3) 0.7077(3) 0.96910(12)
C110_2 C 0.3737(4) 0.7873(3) 0.96997(14)
H46_2 H 0.3471 0.8003 0.9696
C111_2 C 0.4524(5) 0.7483(5) 0.9704(2)
H47_2 H 0.4795 0.7359 0.9708
C112_2 C 0.4708(6) 0.8080(5) 0.9711(2)
H48_2 H 0.5102 0.8350 0.9718
O33_2 O 0.0864(3) 0.5331(5) 0.95592(12)
C113_2 C 0.1094(3) 0.5605(4) 0.97156(16)
O34_2 O 0.0883(3) 0.5554(4) 0.98840(10)
C114_2 C 0.1732(3) 0.6044(4) 0.97078(13)
C115_2 C 0.2735(3) 0.6265(4) 0.96958(13)
C116_2 C 0.2923(3) 0.6852(4) 0.96910(12)
C117_2 C 0.2127(3) 0.5863(5) 0.96997(14)
H49_2 H 0.1997 0.5467 0.9696
C118_2 C 0.2517(5) 0.7040(7) 0.9704(2)
H50_2 H 0.2641 0.7435 0.9708
C119_2 C 0.1920(5) 0.6627(8) 0.9711(2)
H51_2 H 0.1650 0.6751 0.9718
O35_2 O 0.4669(5) 0.5532(4) 0.95592(12)
C120_2 C 0.4395(4) 0.5488(3) 0.97156(16)
O36_2 O 0.4446(4) 0.5328(3) 0.98840(10)
C121_2 C 0.3956(4) 0.5687(3) 0.97078(13)
C122_2 C 0.3735(4) 0.6469(3) 0.96958(13)
C123_2 C 0.3148(4) 0.6070(3) 0.96910(12)
C124_2 C 0.4137(5) 0.6263(4) 0.96997(14)
H52_2 H 0.4533 0.6529 0.9696
C125_2 C 0.2960(7) 0.5476(5) 0.9704(2)
H53_2 H 0.2565 0.5205 0.9708
C126_2 C 0.3373(8) 0.5292(6) 0.9711(2)
H54_2 H 0.3249 0.4898 0.9718
O37_2 O 0.0226(3) 0.4374(4) 0.92143(8)
O38_2 O 0.0179(3) 0.5155(4) 0.91566(9)
C127_2 C 0.0279(3) 0.4766(4) 0.91024(12)
C128_2 C 0.0603(3) 0.5213(4) 0.85568(9)
C129_2 C 0.0429(3) 0.5172(4) 0.87543(10)
H55_2 H 0.0290 0.5411 0.8799
C130_2 C 0.0656(3) 0.4421(4) 0.88230(10)
H56_2 H 0.0684 0.4166 0.8910
C131_2 C 0.0817(3) 0.4448(4) 0.86249(10)
H57_2 H 0.0940 0.4195 0.8581
C132_2 C 0.0457(3) 0.4780(4) 0.88866(11)
C133_2 C 0.0624(3) 0.5657(4) 0.84260(11)
C134_2 C 0.0854(3) 0.5722(4) 0.82367(9)
C135_2 C 0.0990(3) 0.4869(4) 0.82869(8)
C136_2 C 0.1155(3) 0.4481(4) 0.82125(9)
H58_2 H 0.1137 0.4192 0.8295
C137_2 C 0.0803(3) 0.4839(4) 0.84896(9)
C138_2 C 0.1029(3) 0.5318(4) 0.81577(9)
C139_2 C 0.0952(3) 0.6203(4) 0.81191(11)
H59_2 H 0.1101 0.6244 0.7991
C140_2 C 0.1347(3) 0.4518(4) 0.80151(9)
C141_2 C 0.1213(4) 0.5333(5) 0.79602(11)
H60_2 H 0.1227 0.5611 0.7873
C142_2 C 0.1371(5) 0.4946(6) 0.78947(11)
H61_2 H 0.1500 0.4974 0.7764
C143_2 C 0.0827(3) 0.6618(4) 0.81940(10)
C144_2 C 0.0567(3) 0.6532(4) 0.83778(11)
H62_2 H 0.0465 0.6797 0.8426
C145_2 C 0.0461(3) 0.6060(4) 0.84892(12)
H63_2 H 0.0274 0.6002 0.8611
C146_2 C 0.1005(3) 0.7157(4) 0.80760(12)
C147_2 C 0.1532(4) 0.4103(5) 0.79427(11)
O39_2 O 0.1456(2) 0.3685(3) 0.80515(7)
O40_2 O 0.09724(19) 0.75688(25) 0.81508(7)
O41_2 O 0.1168(3) 0.7169(4) 0.78960(8)
O42_2 O 0.1759(3) 0.4189(4) 0.77736(8)
Cd9_2 Cd 0.52335(3) 0.51906(2) 0.947595(8)
O43_2 O 0.5626(4) 0.5851(2) 0.92143(8)
O44_2 O 0.4845(4) 0.5023(2) 0.91566(9)
C148_2 C 0.5234(4) 0.5512(3) 0.91024(12)
C149_2 C 0.4787(4) 0.5389(2) 0.85568(9)
C150_2 C 0.4828(4) 0.5256(3) 0.87543(10)
H64_2 H 0.4589 0.4878 0.8799
C151_2 C 0.5579(4) 0.6234(3) 0.88230(10)
H65_2 H 0.5834 0.6517 0.8910
C152_2 C 0.5552(4) 0.6368(3) 0.86249(10)
H66_2 H 0.5805 0.6744 0.8581
C153_2 C 0.5220(4) 0.5676(3) 0.88866(11)
C154_2 C 0.4343(4) 0.4966(3) 0.84260(11)
C155_2 C 0.4278(4) 0.5131(3) 0.82367(9)
C156_2 C 0.5131(4) 0.6120(3) 0.82869(8)
C157_2 C 0.5519(4) 0.6673(3) 0.82125(9)
H67_2 H 0.5808 0.6944 0.8295
C158_2 C 0.5161(4) 0.5963(3) 0.84896(9)
C159_2 C 0.4682(4) 0.5710(3) 0.81577(9)
C160_2 C 0.3797(4) 0.4748(3) 0.81191(11)
H68_2 H 0.3756 0.4856 0.7991
C161_2 C 0.5482(4) 0.6828(3) 0.80151(9)
C162_2 C 0.4667(5) 0.5879(3) 0.79602(11)
H69_2 H 0.4389 0.5615 0.7873
C163_2 C 0.5054(6) 0.6424(3) 0.78947(11)
H70_2 H 0.5026 0.6525 0.7764
C164_2 C 0.3382(4) 0.4208(3) 0.81940(10)
C165_2 C 0.3468(4) 0.4034(3) 0.83778(11)
H71_2 H 0.3203 0.3667 0.8426
C166_2 C 0.3940(4) 0.4400(3) 0.84892(12)
H72_2 H 0.3998 0.4271 0.8611
C167_2 C 0.2843(4) 0.3847(3) 0.80760(12)
C168_2 C 0.5897(5) 0.7428(3) 0.79427(11)
O45_2 O 0.6315(3) 0.7770(2) 0.80515(7)
O46_2 O 0.24312(25) 0.34035(17) 0.81508(7)
O47_2 O 0.2831(4) 0.3998(2) 0.78960(8)
O48_2 O 0.5811(4) 0.7569(2) 0.77736(8)
Cd10_2 Cd 0.66238(2) 0.85240(2) 0.780929(8)
Cd11_2 Cd 0.19001(3) 0.33762(2) 0.780929(8)
Cd12_2 Cd 0.14760(2) 0.80999(3) 0.780929(8)
O49_2 O 0.7549(3) 0.8662(3) 0.82174(10)
O50_2 O 0.1112(4) 0.2451(3) 0.82174(10)
O51_2 O 0.1338(3) 0.8888(4) 0.82174(10)
O52_2 O 0.4789(2) 0.4437(2) 0.97182(7)
O55_2 O 0.1104(2) 0.8122(2) 0.86151(7)
O56_2 O 0.1878(2) 0.2981(3) 0.86151(7)
O57_2 O 0.7019(3) 0.8896(2) 0.86151(7)
O59_2 O 0.57645(25) 0.56943(19) 0.98175(7)
O61_2 O 0.67369(17) 0.76390(19) 0.85158(7)
O62_2 O 0.23610(19) 0.90978(25) 0.85158(7)
O63_2 O 0.09022(25) 0.32631(17) 0.85158(7)
O65_2 O 0.6164(4) 0.5499(3) 0.95627(8)
O67_2 O 0.7332(2) 0.7834(3) 0.87706(8)
O68_2 O 0.2166(3) 0.9497(4) 0.87706(8)
O69_2 O 0.0503(4) 0.2668(2) 0.87706(8)
O70_2 O 0.5092(3) 0.4236(2) 0.94403(8)
O73_2 O 0.0903(2) 0.8425(3) 0.88930(8)
O74_2 O 0.1575(3) 0.2477(4) 0.88930(8)
O75_2 O 0.7523(4) 0.9097(2) 0.88930(8)
Cd17_4 Cd 1.0000 0.4999 0.0000
Cd8_2 Cd 0.99572(2) 0.47665(3) 0.947595(8)
O53_2 O 0.9648(3) 0.5211(2) 0.97182(7)
O60_2 O 0.99298(17) 0.42355(25) 0.98175(7)
O66_2 O 0.9335(2) 0.3836(4) 0.95627(8)
O71_2 O 0.9144(4) 0.4908(3) 0.94403(8)
O49_3 O 0.5328(3) 0.0883(3) 0.01160(10)
O51_3 O 0.5554(4) 0.4672(3) 0.01160(10)
O50_3 O 0.9117(3) 0.4446(4) 0.01160(10)
Cd1_3 Cd 0.33762(2) 0.14760(2) 0.219071(8)
O1_3 O 0.3108(3) 0.0815(2) 0.24523(8)
O2_3 O 0.3155(3) 0.1643(2) 0.25100(9)
C1_3 C 0.3055(3) 0.1154(3) 0.25642(12)
C2_3 C 0.2731(3) 0.1277(2) 0.31098(9)
C3_3 C 0.2905(3) 0.1410(3) 0.29123(10)
H1_3 H 0.3044 0.1788 0.2867
C4_3 C 0.2678(3) 0.0432(3) 0.28436(10)
H2_3 H 0.2650 0.0149 0.2756
C5_3 C 0.2517(3) 0.0298(3) 0.30417(10)
C6_3 C 0.2877(3) 0.0990(3) 0.27800(11)
C7_3 C 0.2710(3) 0.1700(3) 0.32406(11)
C8_3 C 0.2480(3) 0.1535(3) 0.34299(9)
C9_3 C 0.2344(3) 0.0546(3) 0.33797(8)
C11_3 C 0.2531(3) 0.0703(3) 0.31770(9)
C12_3 C 0.2305(3) 0.0956(3) 0.35089(9)
C13_3 C 0.2382(3) 0.1918(3) 0.35475(11)
H5_3 H 0.2233 0.1810 0.3675
C15_3 C 0.2121(4) 0.0787(3) 0.37064(11)
H6_3 H 0.2107 0.1051 0.3793
C16_3 C 0.1963(5) 0.0242(3) 0.37719(11)
H7_3 H 0.1834 0.0141 0.3902
C17_3 C 0.2507(3) 0.2458(3) 0.34726(10)
C18_3 C 0.2767(3) 0.2632(3) 0.32888(11)
H8_3 H 0.2869 0.2999 0.3240
C19_3 C 0.2873(3) 0.2266(3) 0.31774(12)
H9_3 H 0.3060 0.2395 0.3055
Cd2_3 Cd 0.3334 0.1666 0.1666
O3_3 O 0.2470(3) 0.1134(4) 0.21074(12)
C20_3 C 0.2240(3) 0.1178(3) 0.19510(16)
C21_3 C 0.2329(3) 0.2819(3) 0.35906(12)
O4_3 O 0.2451(3) 0.1338(3) 0.17826(10)
C23_3 C 0.1602(3) 0.0979(3) 0.19588(13)
O6_3 O 0.23610(19) 0.32631(17) 0.35158(7)
O7_3 O 0.2166(3) 0.2668(2) 0.37706(8)
C24_3 C 0.0599(3) 0.0197(3) 0.19708(13)
C25_3 C 0.0411(3) 0.0596(3) 0.19756(12)
C26_3 C 0.1207(3) 0.0403(4) 0.19669(14)
H10_3 H 0.1337 0.0137 0.1970
C27_3 C 0.0817(5) 0.1190(5) 0.1962(2)
H11_3 H 0.0693 0.1461 0.1958
C28_3 C 0.1414(5) 0.1374(6) 0.1955(2)
H12_3 H 0.1684 0.1768 0.1948
H30_3 H 0.0078 0.2471 0.3085
C73_3 C 0.0007(3) 0.2185(4) 0.34541(9)
H31_3 H 0.0278 0.2474 0.3371
C77_3 C 0.0162(3) 0.2148(4) 0.36515(9)
C84_3 C 0.0762(3) 0.2563(5) 0.37239(11)
O21_3 O 0.1104(2) 0.2981(3) 0.36151(7)
O24_3 O 0.0903(2) 0.2477(4) 0.38930(8)
Cd7_3 Cd 0.14760(2) 0.33762(2) 0.280929(8)
O25_3 O 0.0815(2) 0.3108(3) 0.25477(8)
O26_3 O 0.1643(2) 0.3155(3) 0.24900(9)
C85_3 C 0.1154(3) 0.3055(3) 0.24358(12)
C86_3 C 0.1277(2) 0.2731(3) 0.18902(9)
C87_3 C 0.1410(3) 0.2905(3) 0.20877(10)
H37_3 H 0.1788 0.3044 0.2133
C88_3 C 0.0432(3) 0.2678(3) 0.21564(10)
H38_3 H 0.0149 0.2650 0.2244
C89_3 C 0.0298(3) 0.2517(3) 0.19583(10)
C90_3 C 0.0990(3) 0.2877(3) 0.22200(11)
C91_3 C 0.1700(3) 0.2710(3) 0.17594(11)
C92_3 C 0.1535(3) 0.2480(3) 0.15701(9)
C93_3 C 0.0546(3) 0.2344(3) 0.16203(8)
C95_3 C 0.0703(3) 0.2531(3) 0.18230(9)
C96_3 C 0.0956(3) 0.2305(3) 0.14911(9)
C97_3 C 0.1918(3) 0.2382(3) 0.14525(11)
H41_3 H 0.1810 0.2233 0.1325
C99_3 C 0.0787(3) 0.2121(4) 0.12936(11)
H42_3 H 0.1051 0.2107 0.1207
C100_3 C 0.0242(3) 0.1963(5) 0.12281(11)
H43_3 H 0.0141 0.1834 0.1098
C101_3 C 0.2458(3) 0.2507(3) 0.15274(10)
C102_3 C 0.2632(3) 0.2767(3) 0.17112(11)
H44_3 H 0.2999 0.2869 0.1760
C103_3 C 0.2266(3) 0.2873(3) 0.18226(12)
H45_3 H 0.2395 0.3060 0.1945
O27_3 O 0.1134(4) 0.2470(3) 0.28926(12)
C104_3 C 0.1178(3) 0.2240(3) 0.30490(16)
C105_3 C 0.2819(3) 0.2329(3) 0.14094(12)
O28_3 O 0.1338(3) 0.2451(3) 0.32174(10)
C107_3 C 0.0979(3) 0.1602(3) 0.30412(13)
O30_3 O 0.32631(17) 0.23610(19) 0.14842(7)
O31_3 O 0.2668(2) 0.2166(3) 0.12294(8)
C108_3 C 0.0197(3) 0.0599(3) 0.30292(13)
C109_3 C 0.0596(3) 0.0411(3) 0.30244(12)
C110_3 C 0.0403(4) 0.1207(3) 0.30331(14)
H46_3 H 0.0137 0.1337 0.3030
C111_3 C 0.1190(5) 0.0817(5) 0.3038(2)
H47_3 H 0.1461 0.0693 0.3042
C112_3 C 0.1374(6) 0.1414(5) 0.3045(2)
H48_3 H 0.1768 0.1684 0.3052
H66_3 H 0.2471 0.0078 0.1915
C157_3 C 0.2185(4) 0.0007(3) 0.15459(9)
H67_3 H 0.2474 0.0278 0.1629
C161_3 C 0.2148(4) 0.0162(3) 0.13485(9)
C168_3 C 0.2563(5) 0.0762(3) 0.12761(11)
O45_3 O 0.2981(3) 0.1104(2) 0.13849(7)
O48_3 O 0.2477(4) 0.0903(2) 0.11070(8)
Cd10_3 Cd 0.32905(2) 0.18573(2) 0.114262(8)
Cd13_3 Cd 0.18573(2) 0.32905(2) 0.385738(8)
Cd16_5 Cd 0.1666 0.3334 0.3334
O49_4 O 0.4216(3) 0.1995(3) 0.15507(10)
O54_3 O 0.2230(2) 0.3685(3) 0.30515(7)
O57_3 O 0.3685(3) 0.2230(2) 0.19485(7)
O58_3 O 0.09724(19) 0.34035(17) 0.31508(7)
O61_3 O 0.34035(17) 0.09724(19) 0.18492(7)
O64_3 O 0.1168(3) 0.3998(2) 0.28960(8)
O67_3 O 0.3998(2) 0.1168(3) 0.21040(8)
O72_3 O 0.2431(2) 0.4189(4) 0.27736(8)
O75_3 O 0.4189(4) 0.2431(2) 0.22264(8)
H3_3 H 0.2394 0.9922 0.3085
C10_3 C 0.2179(3) 0.9993(3) 0.34541(9)
H4_3 H 0.2197 0.9722 0.3371
C14_3 C 0.1987(3) 0.9838(3) 0.36515(9)
C22_3 C 0.1802(4) 0.9238(3) 0.37239(11)
O5_3 O 0.1878(2) 0.8896(2) 0.36151(7)
O8_3 O 0.1575(3) 0.9097(2) 0.38930(8)
C32_3 C 0.0186(4) 0.9589(3) 0.19756(12)
C34_3 C 0.0374(7) 0.9183(5) 0.1962(2)
H14_3 H 0.0769 0.9307 0.1958
H15_3 H 0.0085 0.8316 0.1948
H26_3 H 0.0131 0.7131 0.3240
C62_3 C 0.0491(4) 0.7671(3) 0.35906(12)
O16_3 O 0.09022(25) 0.76390(19) 0.35158(7)
O17_3 O 0.0503(4) 0.7834(3) 0.37706(8)
O35_3 O 0.1335(5) 0.8866(4) 0.28926(12)
C120_3 C 0.1061(4) 0.8822(3) 0.30490(16)
O36_3 O 0.1112(4) 0.8662(3) 0.32174(10)
C121_3 C 0.0622(4) 0.9021(3) 0.30412(13)
C122_3 C 0.0401(4) 0.9803(3) 0.30292(13)
C124_3 C 0.0803(5) 0.9597(4) 0.30331(14)
H52_3 H 0.1199 0.9863 0.3030
C126_3 C 0.0039(8) 0.8626(6) 0.3045(2)
Cd9_3 Cd 0.19001(3) 0.85240(2) 0.280929(8)
O43_3 O 0.2292(4) 0.9185(2) 0.25477(8)
O44_3 O 0.1511(4) 0.8357(2) 0.24900(9)
C148_3 C 0.1900(4) 0.8846(3) 0.24358(12)
C149_3 C 0.1453(4) 0.8723(2) 0.18902(9)
C150_3 C 0.1494(4) 0.8590(3) 0.20877(10)
H64_3 H 0.1255 0.8212 0.2133
C151_3 C 0.2245(4) 0.9568(3) 0.21564(10)
H65_3 H 0.2500 0.9851 0.2244
C152_3 C 0.2218(4) 0.9702(3) 0.19583(10)
C153_3 C 0.1886(4) 0.9010(3) 0.22200(11)
C154_3 C 0.1009(4) 0.8300(3) 0.17594(11)
C155_3 C 0.0944(4) 0.8465(3) 0.15701(9)
C156_3 C 0.1797(4) 0.9454(3) 0.16203(8)
C158_3 C 0.1827(4) 0.9297(3) 0.18230(9)
C159_3 C 0.1348(4) 0.9044(3) 0.14911(9)
C160_3 C 0.0463(4) 0.8082(3) 0.14525(11)
H68_3 H 0.0422 0.8190 0.1325
C162_3 C 0.1333(5) 0.9213(3) 0.12936(11)
H69_3 H 0.1055 0.8949 0.1207
C163_3 C 0.1720(6) 0.9758(3) 0.12281(11)
H70_3 H 0.1692 0.9859 0.1098
C164_3 C 0.0048(4) 0.7542(3) 0.15274(10)
C165_3 C 0.0134(4) 0.7368(3) 0.17112(11)
C166_3 C 0.0606(4) 0.7734(3) 0.18226(12)
H72_3 H 0.0664 0.7605 0.1945
Cd15_3 Cd 0.14332(3) 0.81427(2) 0.385738(8)
Cd18_3 Cd 0.1667 0.8334 0.3334
O52_3 O 0.1456(2) 0.7770(2) 0.30515(7)
O59_3 O 0.24312(25) 0.90276(19) 0.31508(7)
O65_3 O 0.2831(4) 0.8832(3) 0.28960(8)
O70_3 O 0.1759(3) 0.7569(2) 0.27736(8)
O11_3 O 0.8866(4) 0.1335(5) 0.21074(12)
C36_3 C 0.8822(3) 0.1061(4) 0.19510(16)
O12_3 O 0.8662(3) 0.1112(4) 0.17826(10)
C37_3 C 0.9021(3) 0.0622(4) 0.19588(13)
C38_3 C 0.9803(3) 0.0401(4) 0.19708(13)
C40_3 C 0.9597(4) 0.0803(5) 0.19669(14)
H16_3 H 0.9863 0.1199 0.1970
C42_3 C 0.8626(6) 0.0039(8) 0.1955(2)
Cd5_3 Cd 0.85240(2) 0.19001(3) 0.219071(8)
O19_3 O 0.9185(2) 0.2292(4) 0.24523(8)
O20_3 O 0.8357(2) 0.1511(4) 0.25100(9)
C64_3 C 0.8846(3) 0.1900(4) 0.25642(12)
C65_3 C 0.8723(2) 0.1453(4) 0.31098(9)
C66_3 C 0.8590(3) 0.1494(4) 0.29123(10)
H28_3 H 0.8212 0.1255 0.2867
C67_3 C 0.9568(3) 0.2245(4) 0.28436(10)
H29_3 H 0.9851 0.2500 0.2756
C68_3 C 0.9702(3) 0.2218(4) 0.30417(10)
C69_3 C 0.9010(3) 0.1886(4) 0.27800(11)
C70_3 C 0.8300(3) 0.1009(4) 0.32406(11)
C71_3 C 0.8465(3) 0.0944(4) 0.34299(9)
C72_3 C 0.9454(3) 0.1797(4) 0.33797(8)
C74_3 C 0.9297(3) 0.1827(4) 0.31770(9)
C75_3 C 0.9044(3) 0.1348(4) 0.35089(9)
C76_3 C 0.8082(3) 0.0463(4) 0.35475(11)
H32_3 H 0.8190 0.0422 0.3675
C78_3 C 0.9213(3) 0.1333(5) 0.37064(11)
H33_3 H 0.8949 0.1055 0.3793
C79_3 C 0.9758(3) 0.1720(6) 0.37719(11)
H34_3 H 0.9859 0.1692 0.3902
C80_3 C 0.7542(3) 0.0048(4) 0.34726(10)
C81_3 C 0.7368(3) 0.0134(4) 0.32888(11)
C82_3 C 0.7734(3) 0.0606(4) 0.31774(12)
H36_3 H 0.7605 0.0664 0.3055
Cd6_3 Cd 0.8334 0.1667 0.1666
H39_3 H 0.9922 0.2394 0.1915
C94_3 C 0.9993(3) 0.2179(3) 0.15459(9)
H40_3 H 0.9722 0.2197 0.1629
C98_3 C 0.9838(3) 0.1987(3) 0.13485(9)
C106_3 C 0.9238(3) 0.1802(4) 0.12761(11)
O29_3 O 0.8896(2) 0.1878(2) 0.13849(7)
O32_3 O 0.9097(2) 0.1575(3) 0.11070(8)
C116_3 C 0.9589(3) 0.0186(4) 0.30244(12)
C118_3 C 0.9183(5) 0.0374(7) 0.3038(2)
H50_3 H 0.9307 0.0769 0.3042
H51_3 H 0.8316 0.0085 0.3052
H62_3 H 0.7131 0.0131 0.1760
C146_3 C 0.7671(3) 0.0491(4) 0.14094(12)
O40_3 O 0.76390(19) 0.09022(25) 0.14842(7)
O41_3 O 0.7834(3) 0.0503(4) 0.12294(8)
Cd12_3 Cd 0.81427(2) 0.14332(3) 0.114262(8)
O51_4 O 0.8005(3) 0.2221(4) 0.15507(10)
O55_3 O 0.7770(2) 0.1456(2) 0.19485(7)
O62_3 O 0.90276(19) 0.24312(25) 0.18492(7)
O68_3 O 0.8832(3) 0.2831(4) 0.21040(8)
O73_3 O 0.7569(2) 0.1759(3) 0.22264(8)
O9_3 O 0.8665(5) 0.7530(3) 0.21074(12)
C29_3 C 0.8939(4) 0.7760(3) 0.19510(16)
O10_3 O 0.8888(4) 0.7549(3) 0.17826(10)
C30_3 C 0.9378(4) 0.8398(3) 0.19588(13)
C31_3 C 0.9599(4) 0.9401(3) 0.19708(13)
C33_3 C 0.9197(5) 0.8793(3) 0.19669(14)
H13_3 H 0.8801 0.8663 0.1970
C35_3 C 0.9961(8) 0.8586(5) 0.1955(2)
C39_3 C 0.9404(3) 0.9814(4) 0.19756(12)
C41_3 C 0.8810(5) 0.9626(7) 0.1962(2)
H17_3 H 0.8539 0.9231 0.1958
H18_3 H 0.8232 0.9915 0.1948
Cd3_3 Cd 0.80999(3) 0.66238(2) 0.219071(8)
O13_3 O 0.7708(4) 0.6892(3) 0.24523(8)
O14_3 O 0.8489(4) 0.6845(3) 0.25100(9)
C43_3 C 0.8100(4) 0.6945(3) 0.25642(12)
C44_3 C 0.8547(4) 0.7269(3) 0.31098(9)
C45_3 C 0.8506(4) 0.7095(3) 0.29123(10)
H19_3 H 0.8745 0.6956 0.2867
C46_3 C 0.7755(4) 0.7322(3) 0.28436(10)
H20_3 H 0.7500 0.7350 0.2756
C47_3 C 0.7782(4) 0.7483(3) 0.30417(10)
H21_3 H 0.7529 0.7606 0.3085
C48_3 C 0.8114(4) 0.7123(3) 0.27800(11)
C49_3 C 0.8991(4) 0.7290(3) 0.32406(11)
C50_3 C 0.9056(4) 0.7520(3) 0.34299(9)
C51_3 C 0.8203(4) 0.7656(3) 0.33797(8)
C52_3 C 0.7815(4) 0.7821(3) 0.34541(9)
H22_3 H 0.7526 0.7803 0.3371
C53_3 C 0.8173(4) 0.7469(3) 0.31770(9)
C54_3 C 0.8652(4) 0.7695(3) 0.35089(9)
C55_3 C 0.9537(4) 0.7618(3) 0.35475(11)
H23_3 H 0.9578 0.7767 0.3675
C56_3 C 0.7852(4) 0.8013(3) 0.36515(9)
C57_3 C 0.8667(5) 0.7879(4) 0.37064(11)
H24_3 H 0.8945 0.7893 0.3793
C58_3 C 0.8280(6) 0.8037(5) 0.37719(11)
H25_3 H 0.8308 0.8166 0.3902
C59_3 C 0.9952(4) 0.7493(3) 0.34726(10)
C60_3 C 0.9866(4) 0.7233(3) 0.32888(11)
C61_3 C 0.9394(4) 0.7127(3) 0.31774(12)
H27_3 H 0.9336 0.6940 0.3055
Cd4_3 Cd 0.8333 0.6666 0.1666
C63_3 C 0.7437(5) 0.8198(4) 0.37239(11)
O15_3 O 0.7019(3) 0.8122(2) 0.36151(7)
O18_3 O 0.7523(4) 0.8425(3) 0.38930(8)
H35_3 H 0.7001 0.9869 0.3240
C83_3 C 0.7181(3) 0.9509(4) 0.35906(12)
O22_3 O 0.67369(17) 0.90978(25) 0.35158(7)
O23_3 O 0.7332(2) 0.9497(4) 0.37706(8)
O33_3 O 0.7530(3) 0.8665(5) 0.28926(12)
C113_3 C 0.7760(3) 0.8939(4) 0.30490(16)
O34_3 O 0.7549(3) 0.8888(4) 0.32174(10)
C114_3 C 0.8398(3) 0.9378(4) 0.30412(13)
C115_3 C 0.9401(3) 0.9599(4) 0.30292(13)
C117_3 C 0.8793(3) 0.9197(5) 0.30331(14)
H49_3 H 0.8663 0.8801 0.3030
C119_3 C 0.8586(5) 0.9961(8) 0.3045(2)
C123_3 C 0.9814(4) 0.9404(3) 0.30244(12)
C125_3 C 0.9626(7) 0.8810(5) 0.3038(2)
H53_3 H 0.9231 0.8539 0.3042
H54_3 H 0.9915 0.8232 0.3052
Cd8_3 Cd 0.66238(2) 0.80999(3) 0.280929(8)
O37_3 O 0.6892(3) 0.7708(4) 0.25477(8)
O38_3 O 0.6845(3) 0.8489(4) 0.24900(9)
C127_3 C 0.6945(3) 0.8100(4) 0.24358(12)
C128_3 C 0.7269(3) 0.8547(4) 0.18902(9)
C129_3 C 0.7095(3) 0.8506(4) 0.20877(10)
H55_3 H 0.6956 0.8745 0.2133
C130_3 C 0.7322(3) 0.7755(4) 0.21564(10)
H56_3 H 0.7350 0.7500 0.2244
C131_3 C 0.7483(3) 0.7782(4) 0.19583(10)
H57_3 H 0.7606 0.7529 0.1915
C132_3 C 0.7123(3) 0.8114(4) 0.22200(11)
C133_3 C 0.7290(3) 0.8991(4) 0.17594(11)
C134_3 C 0.7520(3) 0.9056(4) 0.15701(9)
C135_3 C 0.7656(3) 0.8203(4) 0.16203(8)
C136_3 C 0.7821(3) 0.7815(4) 0.15459(9)
H58_3 H 0.7803 0.7526 0.1629
C137_3 C 0.7469(3) 0.8173(4) 0.18230(9)
C138_3 C 0.7695(3) 0.8652(4) 0.14911(9)
C139_3 C 0.7618(3) 0.9537(4) 0.14525(11)
H59_3 H 0.7767 0.9578 0.1325
C140_3 C 0.8013(3) 0.7852(4) 0.13485(9)
C141_3 C 0.7879(4) 0.8667(5) 0.12936(11)
H60_3 H 0.7893 0.8945 0.1207
C142_3 C 0.8037(5) 0.8280(6) 0.12281(11)
H61_3 H 0.8166 0.8308 0.1098
C143_3 C 0.7493(3) 0.9952(4) 0.15274(10)
C144_3 C 0.7233(3) 0.9866(4) 0.17112(11)
C145_3 C 0.7127(3) 0.9394(4) 0.18226(12)
H63_3 H 0.6940 0.9336 0.1945
C147_3 C 0.8198(4) 0.7437(5) 0.12761(11)
O39_3 O 0.8122(2) 0.7019(3) 0.13849(7)
O42_3 O 0.8425(3) 0.7523(4) 0.11070(8)
H71_3 H 0.9869 0.7001 0.1760
C167_3 C 0.9509(4) 0.7181(3) 0.14094(12)
O46_3 O 0.90978(25) 0.67369(17) 0.14842(7)
O47_3 O 0.9497(4) 0.7332(2) 0.12294(8)
Cd11_3 Cd 0.85668(3) 0.67095(2) 0.114262(8)
Cd14_3 Cd 0.67095(2) 0.85668(3) 0.385738(8)
Cd17_5 Cd 0.6666 0.8333 0.3334
O50_4 O 0.7779(4) 0.5784(3) 0.15507(10)
O53_3 O 0.6315(3) 0.8544(2) 0.30515(7)
O56_3 O 0.8544(2) 0.6315(3) 0.19485(7)
O60_3 O 0.65965(17) 0.75688(25) 0.31508(7)
O63_3 O 0.75688(25) 0.65965(17) 0.18492(7)
O66_3 O 0.6002(2) 0.7169(4) 0.28960(8)
O69_3 O 0.7169(4) 0.6002(2) 0.21040(8)
O71_3 O 0.5811(4) 0.8241(3) 0.27736(8)
O74_3 O 0.8241(3) 0.5811(4) 0.22264(8)
O49_5 O 0.1995(3) 0.4216(3) 0.34493(10)
O51_5 O 0.2221(4) 0.8005(3) 0.34493(10)
O50_5 O 0.5784(3) 0.7779(4) 0.34493(10)
O49_6 O 0.0883(3) 0.5328(3) 0.48840(10)
O51_6 O 0.4672(3) 0.5554(4) 0.48840(10)
O50_6 O 0.4446(4) 0.9117(3) 0.48840(10)
O1_4 O 0.2518(2) 0.3559(3) 0.41190(8)
O2_4 O 0.1690(2) 0.3512(3) 0.41767(9)
C1_4 C 0.2179(3) 0.3612(3) 0.42309(12)
C2_4 C 0.2056(2) 0.3936(3) 0.47765(9)
C3_4 C 0.1923(3) 0.3762(3) 0.45790(10)
H1_4 H 0.1545 0.3623 0.4534
C4_4 C 0.2901(3) 0.3989(3) 0.45103(10)
H2_4 H 0.3184 0.4017 0.4423
C5_4 C 0.3035(3) 0.4150(3) 0.47084(10)
H3_4 H 0.3411 0.4273 0.4752
C6_4 C 0.2343(3) 0.3790(3) 0.44467(11)
C7_4 C 0.1633(3) 0.3957(3) 0.49073(11)
C8_4 C 0.1798(3) 0.4187(3) 0.50966(9)
C9_4 C 0.2787(3) 0.4323(3) 0.50464(8)
C10_4 C 0.3340(3) 0.4488(3) 0.51208(9)
H4_4 H 0.3611 0.4470 0.5038
C11_4 C 0.2630(3) 0.4136(3) 0.48437(9)
C12_4 C 0.2377(3) 0.4362(3) 0.51756(9)
C13_4 C 0.1415(3) 0.4285(3) 0.52142(11)
H5_4 H 0.1523 0.4434 0.5342
C14_4 C 0.3495(3) 0.4680(3) 0.53182(9)
C15_4 C 0.2546(3) 0.4546(4) 0.53731(11)
H6_4 H 0.2282 0.4560 0.5460
C16_4 C 0.3091(3) 0.4704(5) 0.54386(11)
H7_4 H 0.3192 0.4833 0.5569
C17_4 C 0.0875(3) 0.4160(3) 0.51393(10)
C18_4 C 0.0701(3) 0.3900(3) 0.49555(11)
H8_4 H 0.0334 0.3798 0.4907
C19_4 C 0.1067(3) 0.3794(3) 0.48441(12)
H9_4 H 0.0938 0.3607 0.4722
O3_4 O 0.2199(4) 0.4197(3) 0.37741(12)
C20_4 C 0.2155(3) 0.4427(3) 0.36177(16)
C21_4 C 0.0514(3) 0.4338(3) 0.52573(12)
C22_4 C 0.4095(3) 0.4865(4) 0.53906(11)
C23_4 C 0.2354(3) 0.5065(3) 0.36255(13)
C24_4 C 0.3136(3) 0.6068(3) 0.36375(13)
C25_4 C 0.2737(3) 0.6256(3) 0.36423(12)
C26_4 C 0.2930(4) 0.5460(3) 0.36336(14)
H10_4 H 0.3196 0.5330 0.3637
C27_4 C 0.2143(5) 0.5850(5) 0.3629(2)
H11_4 H 0.1872 0.5974 0.3625
C28_4 C 0.1959(6) 0.5253(5) 0.3622(2)
H12_4 H 0.1565 0.4983 0.3615
O9_4 O 0.5803(3) 0.8002(5) 0.37741(12)
C29_4 C 0.5573(3) 0.7728(4) 0.36177(16)
C30_4 C 0.4935(3) 0.7289(4) 0.36255(13)
C31_4 C 0.3932(3) 0.7068(4) 0.36375(13)
C32_4 C 0.3744(3) 0.6481(4) 0.36423(12)
C33_4 C 0.4540(3) 0.7470(5) 0.36336(14)
H13_4 H 0.4670 0.7866 0.3637
C34_4 C 0.4150(5) 0.6293(7) 0.3629(2)
H14_4 H 0.4026 0.5898 0.3625
C35_4 C 0.4747(5) 0.6706(8) 0.3622(2)
H15_4 H 0.5017 0.6582 0.3615
O11_4 O 0.1998(5) 0.7801(4) 0.37741(12)
C36_4 C 0.2272(4) 0.7845(3) 0.36177(16)
C37_4 C 0.2711(4) 0.7646(3) 0.36255(13)
C38_4 C 0.2932(4) 0.6864(3) 0.36375(13)
C39_4 C 0.3519(4) 0.7263(3) 0.36423(12)
C40_4 C 0.2530(5) 0.7070(4) 0.36336(14)
H16_4 H 0.2134 0.6804 0.3637
C41_4 C 0.3707(7) 0.7857(5) 0.3629(2)
H17_4 H 0.4102 0.8128 0.3625
C42_4 C 0.3294(8) 0.8041(6) 0.3622(2)
H18_4 H 0.3418 0.8435 0.3615
O13_4 O 0.6441(3) 0.8959(4) 0.41190(8)
O14_4 O 0.6488(3) 0.8178(4) 0.41767(9)
C43_4 C 0.6388(3) 0.8567(4) 0.42309(12)
C44_4 C 0.6064(3) 0.8120(4) 0.47765(9)
C45_4 C 0.6238(3) 0.8161(4) 0.45790(10)
H19_4 H 0.6377 0.7922 0.4534
C46_4 C 0.6011(3) 0.8912(4) 0.45103(10)
H20_4 H 0.5983 0.9167 0.4423
C47_4 C 0.5850(3) 0.8885(4) 0.47084(10)
H21_4 H 0.5727 0.9138 0.4752
C48_4 C 0.6210(3) 0.8553(4) 0.44467(11)
C49_4 C 0.6043(3) 0.7676(4) 0.49073(11)
C50_4 C 0.5813(3) 0.7611(4) 0.50966(9)
C51_4 C 0.5677(3) 0.8464(4) 0.50464(8)
C52_4 C 0.5512(3) 0.8852(4) 0.51208(9)
H22_4 H 0.5530 0.9141 0.5038
C53_4 C 0.5864(3) 0.8494(4) 0.48437(9)
C54_4 C 0.5638(3) 0.8015(4) 0.51756(9)
C55_4 C 0.5715(3) 0.7130(4) 0.52142(11)
H23_4 H 0.5566 0.7089 0.5342
C56_4 C 0.5320(3) 0.8815(4) 0.53182(9)
C57_4 C 0.5454(4) 0.8000(5) 0.53731(11)
H24_4 H 0.5440 0.7722 0.5460
C58_4 C 0.5296(5) 0.8387(6) 0.54386(11)
H25_4 H 0.5167 0.8359 0.5569
C59_4 C 0.5840(3) 0.6715(4) 0.51393(10)
C60_4 C 0.6100(3) 0.6801(4) 0.49555(11)
H26_4 H 0.6202 0.6536 0.4907
C61_4 C 0.6206(3) 0.7273(4) 0.48441(12)
H27_4 H 0.6393 0.7331 0.4722
C62_4 C 0.5662(3) 0.6176(4) 0.52573(12)
C63_4 C 0.5135(4) 0.9230(5) 0.53906(11)
O19_4 O 0.1041(4) 0.7482(2) 0.41190(8)
O20_4 O 0.1822(4) 0.8310(2) 0.41767(9)
C64_4 C 0.1433(4) 0.7821(3) 0.42309(12)
C65_4 C 0.1880(4) 0.7944(2) 0.47765(9)
C66_4 C 0.1839(4) 0.8077(3) 0.45790(10)
H28_4 H 0.2078 0.8455 0.4534
C67_4 C 0.1088(4) 0.7099(3) 0.45103(10)
H29_4 H 0.0833 0.6816 0.4423
C68_4 C 0.1115(4) 0.6965(3) 0.47084(10)
H30_4 H 0.0862 0.6589 0.4752
C69_4 C 0.1447(4) 0.7657(3) 0.44467(11)
C70_4 C 0.2324(4) 0.8367(3) 0.49073(11)
C71_4 C 0.2389(4) 0.8202(3) 0.50966(9)
C72_4 C 0.1536(4) 0.7213(3) 0.50464(8)
C73_4 C 0.1148(4) 0.6660(3) 0.51208(9)
H31_4 H 0.0859 0.6389 0.5038
C74_4 C 0.1506(4) 0.7370(3) 0.48437(9)
C75_4 C 0.1985(4) 0.7623(3) 0.51756(9)
C76_4 C 0.2870(4) 0.8585(3) 0.52142(11)
H32_4 H 0.2911 0.8477 0.5342
C77_4 C 0.1185(4) 0.6505(3) 0.53182(9)
C78_4 C 0.2000(5) 0.7454(3) 0.53731(11)
H33_4 H 0.2278 0.7718 0.5460
C79_4 C 0.1613(6) 0.6909(3) 0.54386(11)
H34_4 H 0.1641 0.6808 0.5569
C80_4 C 0.3285(4) 0.9125(3) 0.51393(10)
C81_4 C 0.3199(4) 0.9299(3) 0.49555(11)
H35_4 H 0.3464 0.9666 0.4907
C82_4 C 0.2727(4) 0.8933(3) 0.48441(12)
H36_4 H 0.2669 0.9062 0.4722
C83_4 C 0.3824(4) 0.9486(3) 0.52573(12)
C84_4 C 0.0770(5) 0.5905(3) 0.53906(11)
O25_4 O 0.0226(3) 0.5851(2) 0.42143(8)
O26_4 O 0.0179(3) 0.5023(2) 0.41566(9)
C85_4 C 0.0279(3) 0.5512(3) 0.41024(12)
C86_4 C 0.0603(3) 0.5389(2) 0.35568(9)
C87_4 C 0.0429(3) 0.5256(3) 0.37543(10)
H37_4 H 0.0290 0.4878 0.3799
C88_4 C 0.0656(3) 0.6234(3) 0.38230(10)
H38_4 H 0.0684 0.6517 0.3910
C89_4 C 0.0817(3) 0.6368(3) 0.36249(10)
H39_4 H 0.0940 0.6744 0.3581
C90_4 C 0.0457(3) 0.5676(3) 0.38866(11)
C91_4 C 0.0624(3) 0.4966(3) 0.34260(11)
C92_4 C 0.0854(3) 0.5131(3) 0.32367(9)
C93_4 C 0.0990(3) 0.6120(3) 0.32869(8)
C94_4 C 0.1155(3) 0.6673(3) 0.32125(9)
H40_4 H 0.1137 0.6944 0.3295
C95_4 C 0.0803(3) 0.5963(3) 0.34896(9)
C96_4 C 0.1029(3) 0.5710(3) 0.31577(9)
C97_4 C 0.0952(3) 0.4748(3) 0.31191(11)
H41_4 H 0.1101 0.4856 0.2991
C98_4 C 0.1347(3) 0.6828(3) 0.30151(9)
C99_4 C 0.1213(4) 0.5879(3) 0.29602(11)
H42_4 H 0.1227 0.5615 0.2873
C100_4 C 0.1371(5) 0.6424(3) 0.28947(11)
H43_4 H 0.1500 0.6525 0.2764
C101_4 C 0.0827(3) 0.4208(3) 0.31940(10)
C102_4 C 0.0567(3) 0.4034(3) 0.33778(11)
H44_4 H 0.0465 0.3667 0.3426
C103_4 C 0.0461(3) 0.4400(3) 0.34892(12)
H45_4 H 0.0274 0.4271 0.3611
O27_4 O 0.0864(3) 0.5532(4) 0.45592(12)
C104_4 C 0.1094(3) 0.5488(3) 0.47156(16)
C105_4 C 0.1005(3) 0.3847(3) 0.30760(12)
C106_4 C 0.1532(4) 0.7428(3) 0.29427(11)
C107_4 C 0.1732(3) 0.5687(3) 0.47078(13)
C108_4 C 0.2735(3) 0.6469(3) 0.46958(13)
C109_4 C 0.2923(3) 0.6070(3) 0.46910(12)
C110_4 C 0.2127(3) 0.6263(4) 0.46997(14)
H46_4 H 0.1997 0.6529 0.4696
C111_4 C 0.2517(5) 0.5476(5) 0.4704(2)
H47_4 H 0.2641 0.5205 0.4708
C112_4 C 0.1920(5) 0.5292(6) 0.4711(2)
H48_4 H 0.1650 0.4898 0.4718
O33_4 O 0.4669(5) 0.9136(3) 0.45592(12)
C113_4 C 0.4395(4) 0.8906(3) 0.47156(16)
C114_4 C 0.3956(4) 0.8268(3) 0.47078(13)
C115_4 C 0.3735(4) 0.7265(3) 0.46958(13)
C116_4 C 0.3148(4) 0.7077(3) 0.46910(12)
C117_4 C 0.4137(5) 0.7873(3) 0.46997(14)
H49_4 H 0.4533 0.8003 0.4696
C118_4 C 0.2960(7) 0.7483(5) 0.4704(2)
H50_4 H 0.2565 0.7359 0.4708
C119_4 C 0.3373(8) 0.8080(5) 0.4711(2)
H51_4 H 0.3249 0.8350 0.4718
O35_4 O 0.4468(4) 0.5331(5) 0.45592(12)
C120_4 C 0.4512(3) 0.5605(4) 0.47156(16)
C121_4 C 0.4313(3) 0.6044(4) 0.47078(13)
C122_4 C 0.3531(3) 0.6265(4) 0.46958(13)
C123_4 C 0.3930(3) 0.6852(4) 0.46910(12)
C124_4 C 0.3737(4) 0.5863(5) 0.46997(14)
H52_4 H 0.3471 0.5467 0.4696
C125_4 C 0.4524(5) 0.7040(7) 0.4704(2)
H53_4 H 0.4795 0.7435 0.4708
C126_4 C 0.4708(6) 0.6627(8) 0.4711(2)
H54_4 H 0.5102 0.6751 0.4718
O37_4 O 0.5626(4) 0.9774(3) 0.42143(8)
O38_4 O 0.4845(4) 0.9821(3) 0.41566(9)
C127_4 C 0.5234(4) 0.9721(3) 0.41024(12)
C128_4 C 0.4787(4) 0.9397(3) 0.35568(9)
C129_4 C 0.4828(4) 0.9571(3) 0.37543(10)
H55_4 H 0.4589 0.9710 0.3799
C130_4 C 0.5579(4) 0.9344(3) 0.38230(10)
H56_4 H 0.5834 0.9316 0.3910
C131_4 C 0.5552(4) 0.9183(3) 0.36249(10)
H57_4 H 0.5805 0.9060 0.3581
C132_4 C 0.5220(4) 0.9543(3) 0.38866(11)
C133_4 C 0.4343(4) 0.9376(3) 0.34260(11)
C134_4 C 0.4278(4) 0.9146(3) 0.32367(9)
C135_4 C 0.5131(4) 0.9010(3) 0.32869(8)
C136_4 C 0.5519(4) 0.8845(3) 0.32125(9)
H58_4 H 0.5808 0.8863 0.3295
C137_4 C 0.5161(4) 0.9197(3) 0.34896(9)
C138_4 C 0.4682(4) 0.8971(3) 0.31577(9)
C139_4 C 0.3797(4) 0.9048(3) 0.31191(11)
H59_4 H 0.3756 0.8899 0.2991
C140_4 C 0.5482(4) 0.8653(3) 0.30151(9)
C141_4 C 0.4667(5) 0.8787(4) 0.29602(11)
H60_4 H 0.4389 0.8773 0.2873
C142_4 C 0.5054(6) 0.8629(5) 0.28947(11)
H61_4 H 0.5026 0.8500 0.2764
C143_4 C 0.3382(4) 0.9173(3) 0.31940(10)
C144_4 C 0.3468(4) 0.9433(3) 0.33778(11)
H62_4 H 0.3203 0.9535 0.3426
C145_4 C 0.3940(4) 0.9539(3) 0.34892(12)
H63_4 H 0.3998 0.9726 0.3611
C146_4 C 0.2843(4) 0.8995(3) 0.30760(12)
C147_4 C 0.5897(5) 0.8468(4) 0.29427(11)
O43_4 O 0.4149(2) 0.4374(4) 0.42143(8)
O44_4 O 0.4977(2) 0.5155(4) 0.41566(9)
C148_4 C 0.4488(3) 0.4766(4) 0.41024(12)
C149_4 C 0.4611(2) 0.5213(4) 0.35568(9)
C150_4 C 0.4744(3) 0.5172(4) 0.37543(10)
H64_4 H 0.5122 0.5411 0.3799
C151_4 C 0.3766(3) 0.4421(4) 0.38230(10)
H65_4 H 0.3483 0.4166 0.3910
C152_4 C 0.3632(3) 0.4448(4) 0.36249(10)
H66_4 H 0.3256 0.4195 0.3581
C153_4 C 0.4324(3) 0.4780(4) 0.38866(11)
C154_4 C 0.5034(3) 0.5657(4) 0.34260(11)
C155_4 C 0.4869(3) 0.5722(4) 0.32367(9)
C156_4 C 0.3880(3) 0.4869(4) 0.32869(8)
C157_4 C 0.3327(3) 0.4481(4) 0.32125(9)
H67_4 H 0.3056 0.4192 0.3295
C158_4 C 0.4037(3) 0.4839(4) 0.34896(9)
C159_4 C 0.4290(3) 0.5318(4) 0.31577(9)
C160_4 C 0.5252(3) 0.6203(4) 0.31191(11)
H68_4 H 0.5144 0.6244 0.2991
C161_4 C 0.3172(3) 0.4518(4) 0.30151(9)
C162_4 C 0.4121(3) 0.5333(5) 0.29602(11)
H69_4 H 0.4385 0.5611 0.2873
C163_4 C 0.3576(3) 0.4946(6) 0.28947(11)
H70_4 H 0.3475 0.4974 0.2764
C164_4 C 0.5792(3) 0.6618(4) 0.31940(10)
C165_4 C 0.5966(3) 0.6532(4) 0.33778(11)
H71_4 H 0.6333 0.6797 0.3426
C166_4 C 0.5600(3) 0.6060(4) 0.34892(12)
H72_4 H 0.5729 0.6002 0.3611
C167_4 C 0.6153(3) 0.7157(4) 0.30760(12)
C168_4 C 0.2572(3) 0.4103(5) 0.29427(11)
Cd17_6 Cd 0.0000 0.5001 1.0000
O1_5 O 0.3559(3) 0.2518(2) 0.08810(8)
O2_5 O 0.3512(3) 0.1690(2) 0.08233(9)
C1_5 C 0.3612(3) 0.2179(3) 0.07691(12)
C2_5 C 0.3936(3) 0.2056(2) 0.02235(9)
C3_5 C 0.3762(3) 0.1923(3) 0.04210(10)
H1_5 H 0.3623 0.1545 0.0466
C4_5 C 0.3989(3) 0.2901(3) 0.04897(10)
H2_5 H 0.4017 0.3184 0.0577
C5_5 C 0.4150(3) 0.3035(3) 0.02916(10)
H3_5 H 0.4273 0.3411 0.0248
C6_5 C 0.3790(3) 0.2343(3) 0.05533(11)
C7_5 C 0.3957(3) 0.1633(3) 0.00927(11)
C11_5 C 0.4136(3) 0.2630(3) 0.01563(9)
C18_5 C 0.3900(3) 0.0701(3) 0.00445(11)
H8_5 H 0.3798 0.0334 0.0093
C19_5 C 0.3794(3) 0.1067(3) 0.01559(12)
H9_5 H 0.3607 0.0938 0.0278
O3_5 O 0.4197(3) 0.2199(4) 0.12259(12)
C20_5 C 0.4427(3) 0.2155(3) 0.13823(16)
C23_5 C 0.5065(3) 0.2354(3) 0.13745(13)
C24_5 C 0.6068(3) 0.3136(3) 0.13625(13)
C25_5 C 0.6256(3) 0.2737(3) 0.13577(12)
C26_5 C 0.5460(3) 0.2930(4) 0.13664(14)
H10_5 H 0.5330 0.3196 0.1363
C27_5 C 0.5850(5) 0.2143(5) 0.1371(2)
H11_5 H 0.5974 0.1872 0.1375
C28_5 C 0.5253(5) 0.1959(6) 0.1378(2)
H12_5 H 0.4983 0.1565 0.1385
O9_5 O 0.8002(5) 0.5803(3) 0.12259(12)
C29_5 C 0.7728(4) 0.5573(3) 0.13823(16)
C30_5 C 0.7289(4) 0.4935(3) 0.13745(13)
C31_5 C 0.7068(4) 0.3932(3) 0.13625(13)
C32_5 C 0.6481(4) 0.3744(3) 0.13577(12)
C33_5 C 0.7470(5) 0.4540(3) 0.13664(14)
H13_5 H 0.7866 0.4670 0.1363
C34_5 C 0.6293(7) 0.4150(5) 0.1371(2)
H14_5 H 0.5898 0.4026 0.1375
C35_5 C 0.6706(8) 0.4747(5) 0.1378(2)
H15_5 H 0.6582 0.5017 0.1385
O11_5 O 0.7801(4) 0.1998(5) 0.12259(12)
C36_5 C 0.7845(3) 0.2272(4) 0.13823(16)
C37_5 C 0.7646(3) 0.2711(4) 0.13745(13)
C38_5 C 0.6864(3) 0.2932(4) 0.13625(13)
C39_5 C 0.7263(3) 0.3519(4) 0.13577(12)
C40_5 C 0.7070(4) 0.2530(5) 0.13664(14)
H16_5 H 0.6804 0.2134 0.1363
C41_5 C 0.7857(5) 0.3707(7) 0.1371(2)
H17_5 H 0.8128 0.4102 0.1375
C42_5 C 0.8041(6) 0.3294(8) 0.1378(2)
H18_5 H 0.8435 0.3418 0.1385
O13_5 O 0.8959(4) 0.6441(3) 0.08810(8)
O14_5 O 0.8178(4) 0.6488(3) 0.08233(9)
C43_5 C 0.8567(4) 0.6388(3) 0.07691(12)
C44_5 C 0.8120(4) 0.6064(3) 0.02235(9)
C45_5 C 0.8161(4) 0.6238(3) 0.04210(10)
H19_5 H 0.7922 0.6377 0.0466
C46_5 C 0.8912(4) 0.6011(3) 0.04897(10)
H20_5 H 0.9167 0.5983 0.0577
C47_5 C 0.8885(4) 0.5850(3) 0.02916(10)
H21_5 H 0.9138 0.5727 0.0248
C48_5 C 0.8553(4) 0.6210(3) 0.05533(11)
C49_5 C 0.7676(4) 0.6043(3) 0.00927(11)
C53_5 C 0.8494(4) 0.5864(3) 0.01563(9)
C60_5 C 0.6801(4) 0.6100(3) 0.00445(11)
H26_5 H 0.6536 0.6202 0.0093
C61_5 C 0.7273(4) 0.6206(3) 0.01559(12)
H27_5 H 0.7331 0.6393 0.0278
O19_5 O 0.7482(2) 0.1041(4) 0.08810(8)
O20_5 O 0.8310(2) 0.1822(4) 0.08233(9)
C64_5 C 0.7821(3) 0.1433(4) 0.07691(12)
C65_5 C 0.7944(2) 0.1880(4) 0.02235(9)
C66_5 C 0.8077(3) 0.1839(4) 0.04210(10)
H28_5 H 0.8455 0.2078 0.0466
C67_5 C 0.7099(3) 0.1088(4) 0.04897(10)
H29_5 H 0.6816 0.0833 0.0577
C68_5 C 0.6965(3) 0.1115(4) 0.02916(10)
H30_5 H 0.6589 0.0862 0.0248
C69_5 C 0.7657(3) 0.1447(4) 0.05533(11)
C70_5 C 0.8367(3) 0.2324(4) 0.00927(11)
C74_5 C 0.7370(3) 0.1506(4) 0.01563(9)
C81_5 C 0.9299(3) 0.3199(4) 0.00445(11)
H35_5 H 0.9666 0.3464 0.0093
C82_5 C 0.8933(3) 0.2727(4) 0.01559(12)
H36_5 H 0.9062 0.2669 0.0278
O25_5 O 0.5851(2) 0.0226(3) 0.07857(8)
O26_5 O 0.5023(2) 0.0179(3) 0.08434(9)
C85_5 C 0.5512(3) 0.0279(3) 0.08976(12)
C86_5 C 0.5389(2) 0.0603(3) 0.14432(9)
C87_5 C 0.5256(3) 0.0429(3) 0.12457(10)
H37_5 H 0.4878 0.0290 0.1201
C88_5 C 0.6234(3) 0.0656(3) 0.11770(10)
H38_5 H 0.6517 0.0684 0.1090
C89_5 C 0.6368(3) 0.0817(3) 0.13751(10)
H39_5 H 0.6744 0.0940 0.1419
C90_5 C 0.5676(3) 0.0457(3) 0.11134(11)
C91_5 C 0.4966(3) 0.0624(3) 0.15740(11)
C92_5 C 0.5131(3) 0.0854(3) 0.17633(9)
C93_5 C 0.6120(3) 0.0990(3) 0.17131(8)
C94_5 C 0.6673(3) 0.1155(3) 0.17875(9)
H40_5 H 0.6944 0.1137 0.1705
C95_5 C 0.5963(3) 0.0803(3) 0.15104(9)
C96_5 C 0.5710(3) 0.1029(3) 0.18423(9)
C97_5 C 0.4748(3) 0.0952(3) 0.18809(11)
H41_5 H 0.4856 0.1101 0.2009
C98_5 C 0.6828(3) 0.1347(3) 0.19849(9)
C99_5 C 0.5879(3) 0.1213(4) 0.20398(11)
H42_5 H 0.5615 0.1227 0.2127
C100_5 C 0.6424(3) 0.1371(5) 0.21053(11)
H43_5 H 0.6525 0.1500 0.2236
C101_5 C 0.4208(3) 0.0827(3) 0.18060(10)
C102_5 C 0.4034(3) 0.0567(3) 0.16222(11)
H44_5 H 0.3667 0.0465 0.1574
C103_5 C 0.4400(3) 0.0461(3) 0.15108(12)
H45_5 H 0.4271 0.0274 0.1389
O27_5 O 0.5532(4) 0.0864(3) 0.04408(12)
C104_5 C 0.5488(3) 0.1094(3) 0.02844(16)
C105_5 C 0.3847(3) 0.1005(3) 0.19240(12)
C106_5 C 0.7428(3) 0.1532(4) 0.20573(11)
C107_5 C 0.5687(3) 0.1732(3) 0.02922(13)
C108_5 C 0.6469(3) 0.2735(3) 0.03042(13)
C109_5 C 0.6070(3) 0.2923(3) 0.03090(12)
C110_5 C 0.6263(4) 0.2127(3) 0.03003(14)
H46_5 H 0.6529 0.1997 0.0304
C111_5 C 0.5476(5) 0.2517(5) 0.0296(2)
H47_5 H 0.5205 0.2641 0.0292
C112_5 C 0.5292(6) 0.1920(5) 0.0289(2)
H48_5 H 0.4898 0.1650 0.0282
O33_5 O 0.9136(3) 0.4669(5) 0.04408(12)
C113_5 C 0.8906(3) 0.4395(4) 0.02844(16)
C114_5 C 0.8268(3) 0.3956(4) 0.02922(13)
C115_5 C 0.7265(3) 0.3735(4) 0.03042(13)
C116_5 C 0.7077(3) 0.3148(4) 0.03090(12)
C117_5 C 0.7873(3) 0.4137(5) 0.03003(14)
H49_5 H 0.8003 0.4533 0.0304
C118_5 C 0.7483(5) 0.2960(7) 0.0296(2)
H50_5 H 0.7359 0.2565 0.0292
C119_5 C 0.8080(5) 0.3373(8) 0.0289(2)
H51_5 H 0.8350 0.3249 0.0282
O35_5 O 0.5331(5) 0.4468(4) 0.04408(12)
C120_5 C 0.5605(4) 0.4512(3) 0.02844(16)
C121_5 C 0.6044(4) 0.4313(3) 0.02922(13)
C122_5 C 0.6265(4) 0.3531(3) 0.03042(13)
C123_5 C 0.6852(4) 0.3930(3) 0.03090(12)
C124_5 C 0.5863(5) 0.3737(4) 0.03003(14)
H52_5 H 0.5467 0.3471 0.0304
C125_5 C 0.7040(7) 0.4524(5) 0.0296(2)
H53_5 H 0.7435 0.4795 0.0292
C126_5 C 0.6627(8) 0.4708(6) 0.0289(2)
H54_5 H 0.6751 0.5102 0.0282
O37_5 O 0.9774(3) 0.5626(4) 0.07857(8)
O38_5 O 0.9821(3) 0.4845(4) 0.08434(9)
C127_5 C 0.9721(3) 0.5234(4) 0.08976(12)
C128_5 C 0.9397(3) 0.4787(4) 0.14432(9)
C129_5 C 0.9571(3) 0.4828(4) 0.12457(10)
H55_5 H 0.9710 0.4589 0.1201
C130_5 C 0.9344(3) 0.5579(4) 0.11770(10)
H56_5 H 0.9316 0.5834 0.1090
C131_5 C 0.9183(3) 0.5552(4) 0.13751(10)
H57_5 H 0.9060 0.5805 0.1419
C132_5 C 0.9543(3) 0.5220(4) 0.11134(11)
C133_5 C 0.9376(3) 0.4343(4) 0.15740(11)
C134_5 C 0.9146(3) 0.4278(4) 0.17633(9)
C135_5 C 0.9010(3) 0.5131(4) 0.17131(8)
C136_5 C 0.8845(3) 0.5519(4) 0.17875(9)
H58_5 H 0.8863 0.5808 0.1705
C137_5 C 0.9197(3) 0.5161(4) 0.15104(9)
C138_5 C 0.8971(3) 0.4682(4) 0.18423(9)
C139_5 C 0.9048(3) 0.3797(4) 0.18809(11)
H59_5 H 0.8899 0.3756 0.2009
C140_5 C 0.8653(3) 0.5482(4) 0.19849(9)
C141_5 C 0.8787(4) 0.4667(5) 0.20398(11)
H60_5 H 0.8773 0.4389 0.2127
C142_5 C 0.8629(5) 0.5054(6) 0.21053(11)
H61_5 H 0.8500 0.5026 0.2236
C143_5 C 0.9173(3) 0.3382(4) 0.18060(10)
C144_5 C 0.9433(3) 0.3468(4) 0.16222(11)
H62_5 H 0.9535 0.3203 0.1574
C145_5 C 0.9539(3) 0.3940(4) 0.15108(12)
H63_5 H 0.9726 0.3998 0.1389
C146_5 C 0.8995(3) 0.2843(4) 0.19240(12)
C147_5 C 0.8468(4) 0.5897(5) 0.20573(11)
O43_5 O 0.4374(4) 0.4149(2) 0.07857(8)
O44_5 O 0.5155(4) 0.4977(2) 0.08434(9)
C148_5 C 0.4766(4) 0.4488(3) 0.08976(12)
C149_5 C 0.5213(4) 0.4611(2) 0.14432(9)
C150_5 C 0.5172(4) 0.4744(3) 0.12457(10)
H64_5 H 0.5411 0.5122 0.1201
C151_5 C 0.4421(4) 0.3766(3) 0.11770(10)
H65_5 H 0.4166 0.3483 0.1090
C152_5 C 0.4448(4) 0.3632(3) 0.13751(10)
H66_5 H 0.4195 0.3256 0.1419
C153_5 C 0.4780(4) 0.4324(3) 0.11134(11)
C154_5 C 0.5657(4) 0.5034(3) 0.15740(11)
C155_5 C 0.5722(4) 0.4869(3) 0.17633(9)
C156_5 C 0.4869(4) 0.3880(3) 0.17131(8)
C157_5 C 0.4481(4) 0.3327(3) 0.17875(9)
H67_5 H 0.4192 0.3056 0.1705
C158_5 C 0.4839(4) 0.4037(3) 0.15104(9)
C159_5 C 0.5318(4) 0.4290(3) 0.18423(9)
C160_5 C 0.6203(4) 0.5252(3) 0.18809(11)
H68_5 H 0.6244 0.5144 0.2009
C161_5 C 0.4518(4) 0.3172(3) 0.19849(9)
C162_5 C 0.5333(5) 0.4121(3) 0.20398(11)
H69_5 H 0.5611 0.4385 0.2127
C163_5 C 0.4946(6) 0.3576(3) 0.21053(11)
H70_5 H 0.4974 0.3475 0.2236
C164_5 C 0.6618(4) 0.5792(3) 0.18060(10)
C165_5 C 0.6532(4) 0.5966(3) 0.16222(11)
H71_5 H 0.6797 0.6333 0.1574
C166_5 C 0.6060(4) 0.5600(3) 0.15108(12)
H72_5 H 0.6002 0.5729 0.1389
C167_5 C 0.7157(4) 0.6153(3) 0.19240(12)
C168_5 C 0.4103(5) 0.2572(3) 0.20573(11)
C8_5 C 0.4187(3) 0.1798(3) 0.99034(9)
C9_5 C 0.4323(3) 0.2787(3) 0.99536(8)
C10_5 C 0.4488(3) 0.3340(3) 0.98792(9)
H4_5 H 0.4470 0.3611 0.9962
C12_5 C 0.4362(3) 0.2377(3) 0.98244(9)
C13_5 C 0.4285(3) 0.1415(3) 0.97858(11)
H5_5 H 0.4434 0.1523 0.9658
C14_5 C 0.4680(3) 0.3495(3) 0.96818(9)
C15_5 C 0.4546(4) 0.2546(3) 0.96269(11)
H6_5 H 0.4560 0.2282 0.9540
C16_5 C 0.4704(5) 0.3091(3) 0.95614(11)
H7_5 H 0.4833 0.3192 0.9431
C17_5 C 0.4160(3) 0.0875(3) 0.98607(10)
C21_5 C 0.4338(3) 0.0514(3) 0.97427(12)
C22_5 C 0.4865(4) 0.4095(3) 0.96094(11)
C50_5 C 0.7611(4) 0.5813(3) 0.99034(9)
C51_5 C 0.8464(4) 0.5677(3) 0.99536(8)
C52_5 C 0.8852(4) 0.5512(3) 0.98792(9)
H22_5 H 0.9141 0.5530 0.9962
C54_5 C 0.8015(4) 0.5638(3) 0.98244(9)
C55_5 C 0.7130(4) 0.5715(3) 0.97858(11)
H23_5 H 0.7089 0.5566 0.9658
C56_5 C 0.8815(4) 0.5320(3) 0.96818(9)
C57_5 C 0.8000(5) 0.5454(4) 0.96269(11)
H24_5 H 0.7722 0.5440 0.9540
C58_5 C 0.8387(6) 0.5296(5) 0.95614(11)
H25_5 H 0.8359 0.5167 0.9431
C59_5 C 0.6715(4) 0.5840(3) 0.98607(10)
C62_5 C 0.6176(4) 0.5662(3) 0.97427(12)
C63_5 C 0.9230(5) 0.5135(4) 0.96094(11)
C71_5 C 0.8202(3) 0.2389(4) 0.99034(9)
C72_5 C 0.7213(3) 0.1536(4) 0.99536(8)
C73_5 C 0.6660(3) 0.1148(4) 0.98792(9)
H31_5 H 0.6389 0.0859 0.9962
C75_5 C 0.7623(3) 0.1985(4) 0.98244(9)
C76_5 C 0.8585(3) 0.2870(4) 0.97858(11)
H32_5 H 0.8477 0.2911 0.9658
C77_5 C 0.6505(3) 0.1185(4) 0.96818(9)
C78_5 C 0.7454(3) 0.2000(5) 0.96269(11)
H33_5 H 0.7718 0.2278 0.9540
C79_5 C 0.6909(3) 0.1613(6) 0.95614(11)
H34_5 H 0.6808 0.1641 0.9431
C80_5 C 0.9125(3) 0.3285(4) 0.98607(10)
C83_5 C 0.9486(3) 0.3824(4) 0.97427(12)
C84_5 C 0.5905(3) 0.0770(5) 0.96094(11)
Cd16_6 Cd 0.5000 -0.0000 1.0000
Cd17_7 Cd 1.0000 0.5001 1.0000
Cd18_4 Cd 0.4999 0.5000 1.0000
Cd16_7 Cd 0.5000 1.0000 1.0000
O9_6 O 0.1335(5) 0.2470(3) 0.78926(12)
C29_6 C 0.1061(4) 0.2240(3) 0.80490(16)
C30_6 C 0.0622(4) 0.1602(3) 0.80412(13)
C31_6 C 0.0401(4) 0.0599(3) 0.80292(13)
C33_6 C 0.0803(5) 0.1207(3) 0.80331(14)
H13_6 H 0.1199 0.1337 0.8030
C35_6 C 0.0039(8) 0.1414(5) 0.8045(2)
C39_6 C 0.0596(3) 0.0186(4) 0.80244(12)
C41_6 C 0.1190(5) 0.0374(7) 0.8038(2)
H17_6 H 0.1461 0.0769 0.8042
H18_6 H 0.1768 0.0085 0.8052
O13_6 O 0.2292(4) 0.3108(3) 0.75477(8)
O14_6 O 0.1511(4) 0.3155(3) 0.74900(9)
C43_6 C 0.1900(4) 0.3055(3) 0.74358(12)
C44_6 C 0.1453(4) 0.2731(3) 0.68902(9)
C45_6 C 0.1494(4) 0.2905(3) 0.70877(10)
H19_6 H 0.1255 0.3044 0.7133
C46_6 C 0.2245(4) 0.2678(3) 0.71564(10)
H20_6 H 0.2500 0.2650 0.7244
C47_6 C 0.2218(4) 0.2517(3) 0.69583(10)
H21_6 H 0.2471 0.2394 0.6915
C48_6 C 0.1886(4) 0.2877(3) 0.72200(11)
C49_6 C 0.1009(4) 0.2710(3) 0.67594(11)
C50_6 C 0.0944(4) 0.2480(3) 0.65701(9)
C51_6 C 0.1797(4) 0.2344(3) 0.66203(8)
C52_6 C 0.2185(4) 0.2179(3) 0.65459(9)
H22_6 H 0.2474 0.2197 0.6629
C53_6 C 0.1827(4) 0.2531(3) 0.68230(9)
C54_6 C 0.1348(4) 0.2305(3) 0.64911(9)
C55_6 C 0.0463(4) 0.2382(3) 0.64525(11)
H23_6 H 0.0422 0.2233 0.6325
C56_6 C 0.2148(4) 0.1987(3) 0.63485(9)
C57_6 C 0.1333(5) 0.2121(4) 0.62936(11)
H24_6 H 0.1055 0.2107 0.6207
C58_6 C 0.1720(6) 0.1963(5) 0.62281(11)
H25_6 H 0.1692 0.1834 0.6098
C59_6 C 0.0048(4) 0.2507(3) 0.65274(10)
C60_6 C 0.0134(4) 0.2767(3) 0.67112(11)
C61_6 C 0.0606(4) 0.2873(3) 0.68226(12)
H27_6 H 0.0664 0.3060 0.6945
C63_6 C 0.2563(5) 0.1802(4) 0.62761(11)
H35_6 H 0.2999 0.0131 0.6760
C83_6 C 0.2819(3) 0.0491(4) 0.64094(12)
O33_6 O 0.2470(3) 0.1335(5) 0.71074(12)
C113_6 C 0.2240(3) 0.1061(4) 0.69510(16)
C114_6 C 0.1602(3) 0.0622(4) 0.69588(13)
C115_6 C 0.0599(3) 0.0401(4) 0.69708(13)
C117_6 C 0.1207(3) 0.0803(5) 0.69669(14)
H49_6 H 0.1337 0.1199 0.6970
C119_6 C 0.1414(5) 0.0039(8) 0.6955(2)
C123_6 C 0.0186(4) 0.0596(3) 0.69756(12)
C125_6 C 0.0374(7) 0.1190(5) 0.6962(2)
H53_6 H 0.0769 0.1461 0.6958
H54_6 H 0.0085 0.1768 0.6948
O37_6 O 0.3108(3) 0.2292(4) 0.74523(8)
O38_6 O 0.3155(3) 0.1511(4) 0.75100(9)
C127_6 C 0.3055(3) 0.1900(4) 0.75642(12)
C128_6 C 0.2731(3) 0.1453(4) 0.81098(9)
C129_6 C 0.2905(3) 0.1494(4) 0.79123(10)
H55_6 H 0.3044 0.1255 0.7867
C130_6 C 0.2678(3) 0.2245(4) 0.78436(10)
H56_6 H 0.2650 0.2500 0.7756
C131_6 C 0.2517(3) 0.2218(4) 0.80417(10)
H57_6 H 0.2394 0.2471 0.8085
C132_6 C 0.2877(3) 0.1886(4) 0.77800(11)
C133_6 C 0.2710(3) 0.1009(4) 0.82406(11)
C134_6 C 0.2480(3) 0.0944(4) 0.84299(9)
C135_6 C 0.2344(3) 0.1797(4) 0.83797(8)
C136_6 C 0.2179(3) 0.2185(4) 0.84541(9)
H58_6 H 0.2197 0.2474 0.8371
C137_6 C 0.2531(3) 0.1827(4) 0.81770(9)
C138_6 C 0.2305(3) 0.1348(4) 0.85089(9)
C139_6 C 0.2382(3) 0.0463(4) 0.85475(11)
H59_6 H 0.2233 0.0422 0.8675
C140_6 C 0.1987(3) 0.2148(4) 0.86515(9)
C141_6 C 0.2121(4) 0.1333(5) 0.87064(11)
H60_6 H 0.2107 0.1055 0.8793
C142_6 C 0.1963(5) 0.1720(6) 0.87719(11)
H61_6 H 0.1834 0.1692 0.8902
C143_6 C 0.2507(3) 0.0048(4) 0.84726(10)
C144_6 C 0.2767(3) 0.0134(4) 0.82888(11)
C145_6 C 0.2873(3) 0.0606(4) 0.81774(12)
H63_6 H 0.3060 0.0664 0.8055
C147_6 C 0.1802(4) 0.2563(5) 0.87239(11)
H71_6 H 0.0131 0.2999 0.8240
C167_6 C 0.0491(4) 0.2819(3) 0.85906(12)
O11_6 O 0.1134(4) 0.8665(5) 0.78926(12)
C36_6 C 0.1178(3) 0.8939(4) 0.80490(16)
C37_6 C 0.0979(3) 0.9378(4) 0.80412(13)
C38_6 C 0.0197(3) 0.9599(4) 0.80292(13)
C40_6 C 0.0403(4) 0.9197(5) 0.80331(14)
H16_6 H 0.0137 0.8801 0.8030
C42_6 C 0.1374(6) 0.9961(8) 0.8045(2)
O19_6 O 0.0815(2) 0.7708(4) 0.75477(8)
O20_6 O 0.1643(2) 0.8489(4) 0.74900(9)
C64_6 C 0.1154(3) 0.8100(4) 0.74358(12)
C65_6 C 0.1277(2) 0.8547(4) 0.68902(9)
C66_6 C 0.1410(3) 0.8506(4) 0.70877(10)
H28_6 H 0.1788 0.8745 0.7133
C67_6 C 0.0432(3) 0.7755(4) 0.71564(10)
H29_6 H 0.0149 0.7500 0.7244
C68_6 C 0.0298(3) 0.7782(4) 0.69583(10)
C69_6 C 0.0990(3) 0.8114(4) 0.72200(11)
C70_6 C 0.1700(3) 0.8991(4) 0.67594(11)
C71_6 C 0.1535(3) 0.9056(4) 0.65701(9)
C72_6 C 0.0546(3) 0.8203(4) 0.66203(8)
C74_6 C 0.0703(3) 0.8173(4) 0.68230(9)
C75_6 C 0.0956(3) 0.8652(4) 0.64911(9)
C76_6 C 0.1918(3) 0.9537(4) 0.64525(11)
H32_6 H 0.1810 0.9578 0.6325
C78_6 C 0.0787(3) 0.8667(5) 0.62936(11)
H33_6 H 0.1051 0.8945 0.6207
C79_6 C 0.0242(3) 0.8280(6) 0.62281(11)
H34_6 H 0.0141 0.8308 0.6098
C80_6 C 0.2458(3) 0.9952(4) 0.65274(10)
C81_6 C 0.2632(3) 0.9866(4) 0.67112(11)
C82_6 C 0.2266(3) 0.9394(4) 0.68226(12)
H36_6 H 0.2395 0.9336 0.6945
H39_6 H 0.0078 0.7606 0.8085
C94_6 C 0.0007(3) 0.7821(3) 0.84541(9)
H40_6 H 0.0278 0.7803 0.8371
C98_6 C 0.0162(3) 0.8013(3) 0.86515(9)
C106_6 C 0.0762(3) 0.8198(4) 0.87239(11)
C116_6 C 0.0411(3) 0.9814(4) 0.69756(12)
C118_6 C 0.0817(5) 0.9626(7) 0.6962(2)
H50_6 H 0.0693 0.9231 0.6958
H51_6 H 0.1684 0.9915 0.6948
H62_6 H 0.2869 0.9869 0.8240
C146_6 C 0.2329(3) 0.9509(4) 0.85906(12)
H3_6 H 0.7606 0.0078 0.6915
C10_6 C 0.7821(3) 0.0007(3) 0.65459(9)
H4_6 H 0.7803 0.0278 0.6629
C14_6 C 0.8013(3) 0.0162(3) 0.63485(9)
C22_6 C 0.8198(4) 0.0762(3) 0.62761(11)
C32_6 C 0.9814(4) 0.0411(3) 0.80244(12)
C34_6 C 0.9626(7) 0.0817(5) 0.8038(2)
H14_6 H 0.9231 0.0693 0.8042
H15_6 H 0.9915 0.1684 0.8052
H26_6 H 0.9869 0.2869 0.6760
C62_6 C 0.9509(4) 0.2329(3) 0.64094(12)
O35_6 O 0.8665(5) 0.1134(4) 0.71074(12)
C120_6 C 0.8939(4) 0.1178(3) 0.69510(16)
C121_6 C 0.9378(4) 0.0979(3) 0.69588(13)
C122_6 C 0.9599(4) 0.0197(3) 0.69708(13)
C124_6 C 0.9197(5) 0.0403(4) 0.69669(14)
H52_6 H 0.8801 0.0137 0.6970
C126_6 C 0.9961(8) 0.1374(6) 0.6955(2)
O43_6 O 0.7708(4) 0.0815(2) 0.74523(8)
O44_6 O 0.8489(4) 0.1643(2) 0.75100(9)
C148_6 C 0.8100(4) 0.1154(3) 0.75642(12)
C149_6 C 0.8547(4) 0.1277(2) 0.81098(9)
C150_6 C 0.8506(4) 0.1410(3) 0.79123(10)
H64_6 H 0.8745 0.1788 0.7867
C151_6 C 0.7755(4) 0.0432(3) 0.78436(10)
H65_6 H 0.7500 0.0149 0.7756
C152_6 C 0.7782(4) 0.0298(3) 0.80417(10)
C153_6 C 0.8114(4) 0.0990(3) 0.77800(11)
C154_6 C 0.8991(4) 0.1700(3) 0.82406(11)
C155_6 C 0.9056(4) 0.1535(3) 0.84299(9)
C156_6 C 0.8203(4) 0.0546(3) 0.83797(8)
C158_6 C 0.8173(4) 0.0703(3) 0.81770(9)
C159_6 C 0.8652(4) 0.0956(3) 0.85089(9)
C160_6 C 0.9537(4) 0.1918(3) 0.85475(11)
H68_6 H 0.9578 0.1810 0.8675
C162_6 C 0.8667(5) 0.0787(3) 0.87064(11)
H69_6 H 0.8945 0.1051 0.8793
C163_6 C 0.8280(6) 0.0242(3) 0.87719(11)
H70_6 H 0.8308 0.0141 0.8902
C164_6 C 0.9952(4) 0.2458(3) 0.84726(10)
C165_6 C 0.9866(4) 0.2632(3) 0.82888(11)
C166_6 C 0.9394(4) 0.2266(3) 0.81774(12)
H72_6 H 0.9336 0.2395 0.8055
O1_6 O 0.6892(3) 0.9185(2) 0.75477(8)
O2_6 O 0.6845(3) 0.8357(2) 0.74900(9)
C1_6 C 0.6945(3) 0.8846(3) 0.74358(12)
C2_6 C 0.7269(3) 0.8723(2) 0.68902(9)
C3_6 C 0.7095(3) 0.8590(3) 0.70877(10)
H1_6 H 0.6956 0.8212 0.7133
C4_6 C 0.7322(3) 0.9568(3) 0.71564(10)
H2_6 H 0.7350 0.9851 0.7244
C5_6 C 0.7483(3) 0.9702(3) 0.69583(10)
C6_6 C 0.7123(3) 0.9010(3) 0.72200(11)
C7_6 C 0.7290(3) 0.8300(3) 0.67594(11)
C8_6 C 0.7520(3) 0.8465(3) 0.65701(9)
C9_6 C 0.7656(3) 0.9454(3) 0.66203(8)
C11_6 C 0.7469(3) 0.9297(3) 0.68230(9)
C12_6 C 0.7695(3) 0.9044(3) 0.64911(9)
C13_6 C 0.7618(3) 0.8082(3) 0.64525(11)
H5_6 H 0.7767 0.8190 0.6325
C15_6 C 0.7879(4) 0.9213(3) 0.62936(11)
H6_6 H 0.7893 0.8949 0.6207
C16_6 C 0.8037(5) 0.9758(3) 0.62281(11)
H7_6 H 0.8166 0.9859 0.6098
C17_6 C 0.7493(3) 0.7542(3) 0.65274(10)
C18_6 C 0.7233(3) 0.7368(3) 0.67112(11)
H8_6 H 0.7131 0.7001 0.6760
C19_6 C 0.7127(3) 0.7734(3) 0.68226(12)
H9_6 H 0.6940 0.7605 0.6945
O3_6 O 0.7530(3) 0.8866(4) 0.78926(12)
C20_6 C 0.7760(3) 0.8822(3) 0.80490(16)
C21_6 C 0.7671(3) 0.7181(3) 0.64094(12)
C23_6 C 0.8398(3) 0.9021(3) 0.80412(13)
C24_6 C 0.9401(3) 0.9803(3) 0.80292(13)
C25_6 C 0.9589(3) 0.9404(3) 0.80244(12)
C26_6 C 0.8793(3) 0.9597(4) 0.80331(14)
H10_6 H 0.8663 0.9863 0.8030
C27_6 C 0.9183(5) 0.8810(5) 0.8038(2)
H11_6 H 0.9307 0.8539 0.8042
C28_6 C 0.8586(5) 0.8626(6) 0.8045(2)
H12_6 H 0.8316 0.8232 0.8052
H30_6 H 0.9922 0.7529 0.6915
C73_6 C 0.9993(3) 0.7815(4) 0.65459(9)
H31_6 H 0.9722 0.7526 0.6629
C77_6 C 0.9838(3) 0.7852(4) 0.63485(9)
C84_6 C 0.9238(3) 0.7437(5) 0.62761(11)
O25_6 O 0.9185(2) 0.6892(3) 0.74523(8)
O26_6 O 0.8357(2) 0.6845(3) 0.75100(9)
C85_6 C 0.8846(3) 0.6945(3) 0.75642(12)
C86_6 C 0.8723(2) 0.7269(3) 0.81098(9)
C87_6 C 0.8590(3) 0.7095(3) 0.79123(10)
H37_6 H 0.8212 0.6956 0.7867
C88_6 C 0.9568(3) 0.7322(3) 0.78436(10)
H38_6 H 0.9851 0.7350 0.7756
C89_6 C 0.9702(3) 0.7483(3) 0.80417(10)
C90_6 C 0.9010(3) 0.7123(3) 0.77800(11)
C91_6 C 0.8300(3) 0.7290(3) 0.82406(11)
C92_6 C 0.8465(3) 0.7520(3) 0.84299(9)
C93_6 C 0.9454(3) 0.7656(3) 0.83797(8)
C95_6 C 0.9297(3) 0.7469(3) 0.81770(9)
C96_6 C 0.9044(3) 0.7695(3) 0.85089(9)
C97_6 C 0.8082(3) 0.7618(3) 0.85475(11)
H41_6 H 0.8190 0.7767 0.8675
C99_6 C 0.9213(3) 0.7879(4) 0.87064(11)
H42_6 H 0.8949 0.7893 0.8793
C100_6 C 0.9758(3) 0.8037(5) 0.87719(11)
H43_6 H 0.9859 0.8166 0.8902
C101_6 C 0.7542(3) 0.7493(3) 0.84726(10)
C102_6 C 0.7368(3) 0.7233(3) 0.82888(11)
H44_6 H 0.7001 0.7131 0.8240
C103_6 C 0.7734(3) 0.7127(3) 0.81774(12)
H45_6 H 0.7605 0.6940 0.8055
O27_6 O 0.8866(4) 0.7530(3) 0.71074(12)
C104_6 C 0.8822(3) 0.7760(3) 0.69510(16)
C105_6 C 0.7181(3) 0.7671(3) 0.85906(12)
C107_6 C 0.9021(3) 0.8398(3) 0.69588(13)
C108_6 C 0.9803(3) 0.9401(3) 0.69708(13)
C109_6 C 0.9404(3) 0.9589(3) 0.69756(12)
C110_6 C 0.9597(4) 0.8793(3) 0.69669(14)
H46_6 H 0.9863 0.8663 0.6970
C111_6 C 0.8810(5) 0.9183(5) 0.6962(2)
H47_6 H 0.8539 0.9307 0.6958
C112_6 C 0.8626(6) 0.8586(5) 0.6955(2)
H48_6 H 0.8232 0.8316 0.6948
H66_6 H 0.7529 0.9922 0.8085
C157_6 C 0.7815(4) 0.9993(3) 0.84541(9)
H67_6 H 0.7526 0.9722 0.8371
C161_6 C 0.7852(4) 0.9838(3) 0.86515(9)
C168_6 C 0.7437(5) 0.9238(3) 0.87239(11)
loop_
_geom_bond_atom_site_label_1
_geom_bond_atom_site_label_2
_geom_bond_site_symmetry_1
_geom_bond_site_symmetry_2
O54 Cd7 1_555 1_555
O58 Cd7 1_555 1_555
O64 Cd7 1_555 1_555
O72 Cd7 1_555 1_555
Cd16 O54 1_555 1_555
Cd16 O58 1_555 1_555
Cd1 O1 1_555 1_555
O1 C1 1_555 1_555
O2 Cd1 1_555 1_555
C1 O2 1_555 1_555
C2 C3 1_555 1_555
C3 H1 1_555 1_555
C4 H2 1_555 1_555
C5 C4 1_555 1_555
H3 C5 1_555 1_555
C6 C1 1_555 1_555
C7 C2 1_555 1_555
C8 C7 1_555 1_555
C9 C10 1_555 1_555
C10 H4 1_555 1_555
C11 C2 1_555 1_555
C12 C8 1_555 1_555
C13 C8 1_555 1_555
H5 C13 1_555 1_555
C14 C10 1_555 1_555
C15 C12 1_555 1_555
H6 C15 1_555 1_555
C16 C14 1_555 1_555
H7 C16 1_555 1_555
C17 C13 1_555 1_555
C18 C17 1_555 1_555
H8 C18 1_555 1_555
C19 C7 1_555 1_555
H9 C19 1_555 1_555
Cd2 O4 1_555 1_555
O3 Cd1 1_555 1_555
C20 O3 1_555 1_555
C21 C17 1_555 1_555
O4 C20 1_555 1_555
C22 C14 1_555 1_555
C23 C20 1_555 1_555
O5 C22 1_555 1_555
O6 C21 1_555 1_555
O7 C21 1_555 1_555
O8 C22 1_555 1_555
C24 C25 1_555 1_555
C25 C27 1_555 1_555
C26 C23 1_555 1_555
H10 C26 1_555 1_555
C27 H11 1_555 1_555
C28 C23 1_555 1_555
H12 C28 1_555 1_555
O9 C29 1_555 1_555
C29 O10 1_555 1_555
O10 Cd4 1_555 1_555
C30 C29 1_555 1_555
C31 C32 1_555 1_555
C32 C24 1_555 1_555
C33 C30 1_555 1_555
H13 C33 1_555 1_555
C34 C32 1_555 1_555
H14 C34 1_555 1_555
C35 C30 1_555 1_555
H15 C35 1_555 1_555
O11 C36 1_555 1_555
C36 O12 1_555 1_555
O12 Cd6 1_555 1_555
C37 C36 1_555 1_555
C38 C25 1_555 1_555
C39 C31 1_555 1_555
C40 C37 1_555 1_555
H16 C40 1_555 1_555
C41 C39 1_555 1_555
H17 C41 1_555 1_555
C42 C37 1_555 1_555
H18 C42 1_555 1_555
Cd3 O9 1_555 1_555
O13 Cd3 1_555 1_555
O14 Cd3 1_555 1_555
C43 O13 1_555 1_555
C44 C45 1_555 1_555
C45 H19 1_555 1_555
C46 H20 1_555 1_555
C47 C46 1_555 1_555
H21 C47 1_555 1_555
C48 C43 1_555 1_555
C49 C44 1_555 1_555
C50 C49 1_555 1_555
C51 C52 1_555 1_555
C52 H22 1_555 1_555
C53 C44 1_555 1_555
C54 C50 1_555 1_555
C55 C50 1_555 1_555
H23 C55 1_555 1_555
C56 C52 1_555 1_555
C57 C54 1_555 1_555
H24 C57 1_555 1_555
C58 C56 1_555 1_555
H25 C58 1_555 1_555
C59 C55 1_555 1_555
C60 C59 1_555 1_555
H26 C60 1_555 1_555
C61 C49 1_555 1_555
H27 C61 1_555 1_555
Cd4 O39 1_555 1_555
C62 C59 1_555 1_555
C63 C56 1_555 1_555
O15 C63 1_555 1_555
O16 C62 1_555 1_555
O17 C62 1_555 1_555
O18 C63 1_555 1_555
Cd5 O11 1_555 1_555
O19 Cd5 1_555 1_555
O20 Cd5 1_555 1_555
C64 O19 1_555 1_555
C65 C66 1_555 1_555
C66 H28 1_555 1_555
C67 H29 1_555 1_555
C68 C67 1_555 1_555
H30 C68 1_555 1_555
C69 C64 1_555 1_555
C70 C65 1_555 1_555
C71 C70 1_555 1_555
C72 C73 1_555 1_555
C73 H31 1_555 1_555
C74 C65 1_555 1_555
C75 C71 1_555 1_555
C76 C71 1_555 1_555
H32 C76 1_555 1_555
C77 C73 1_555 1_555
C78 C75 1_555 1_555
H33 C78 1_555 1_555
C79 C77 1_555 1_555
H34 C79 1_555 1_555
C80 C76 1_555 1_555
C81 C80 1_555 1_555
H35 C81 1_555 1_555
C82 C70 1_555 1_555
H36 C82 1_555 1_555
Cd6 O29 1_555 1_555
C83 C80 1_555 1_555
C84 C77 1_555 1_555
O21 C84 1_555 1_555
O22 C83 1_555 1_555
O23 C83 1_555 1_555
O24 C84 1_555 1_555
O25 C85 1_555 1_555
C85 O26 1_555 1_555
C86 C87 1_555 1_555
C87 H37 1_555 1_555
C88 H38 1_555 1_555
C89 C88 1_555 1_555
H39 C89 1_555 1_555
C90 C85 1_555 1_555
C91 C86 1_555 1_555
C92 C91 1_555 1_555
C93 C94 1_555 1_555
C94 H40 1_555 1_555
C95 C86 1_555 1_555
C96 C92 1_555 1_555
C97 C92 1_555 1_555
H41 C97 1_555 1_555
C98 C94 1_555 1_555
C99 C96 1_555 1_555
H42 C99 1_555 1_555
C100 C98 1_555 1_555
H43 C100 1_555 1_555
C101 C97 1_555 1_555
C102 C101 1_555 1_555
H44 C102 1_555 1_555
C103 C91 1_555 1_555
H45 C103 1_555 1_555
C104 O27 1_555 1_555
C105 C101 1_555 1_555
O28 C104 1_555 1_555
C106 C98 1_555 1_555
C107 C104 1_555 1_555
O29 C106 1_555 1_555
O30 Cd2 1_555 1_555
O31 C105 1_555 1_555
O32 C106 1_555 1_555
C108 C109 1_555 1_555
C109 C111 1_555 1_555
C110 C107 1_555 1_555
H46 C110 1_555 1_555
C111 H47 1_555 1_555
C112 C107 1_555 1_555
H48 C112 1_555 1_555
O33 C113 1_555 1_555
C113 O34 1_555 1_555
O34 Cd17 1_555 1_555
C114 C113 1_555 1_555
C115 C116 1_555 1_555
C116 C108 1_555 1_555
C117 C114 1_555 1_555
H49 C117 1_555 1_555
C118 C116 1_555 1_555
H50 C118 1_555 1_555
C119 C114 1_555 1_555
H51 C119 1_555 1_555
O35 C120 1_555 1_555
C120 O36 1_555 1_555
O36 Cd18 1_555 1_555
C121 C120 1_555 1_555
C122 C109 1_555 1_555
C123 C115 1_555 1_555
C124 C121 1_555 1_555
H52 C124 1_555 1_555
C125 C123 1_555 1_555
H53 C125 1_555 1_555
C126 C121 1_555 1_555
H54 C126 1_555 1_555
C127 O37 1_555 1_555
C128 C129 1_555 1_555
C129 H55 1_555 1_555
C130 H56 1_555 1_555
C131 C130 1_555 1_555
H57 C131 1_555 1_555
C132 C127 1_555 1_555
C133 C128 1_555 1_555
C134 C133 1_555 1_555
C135 C136 1_555 1_555
C136 H58 1_555 1_555
C137 C128 1_555 1_555
C138 C134 1_555 1_555
C139 C134 1_555 1_555
H59 C139 1_555 1_555
C140 C136 1_555 1_555
C141 C138 1_555 1_555
H60 C141 1_555 1_555
C142 C140 1_555 1_555
H61 C142 1_555 1_555
C143 C139 1_555 1_555
C144 C143 1_555 1_555
H62 C144 1_555 1_555
C145 C133 1_555 1_555
H63 C145 1_555 1_555
C146 C143 1_555 1_555
C147 C140 1_555 1_555
O39 C147 1_555 1_555
O40 Cd6 1_555 1_555
O41 C146 1_555 1_555
O42 C147 1_555 1_555
Cd9 O35 1_555 1_555
O43 Cd9 1_555 1_555
O44 Cd9 1_555 1_555
C148 O43 1_555 1_555
C149 C150 1_555 1_555
C150 H64 1_555 1_555
C151 H65 1_555 1_555
C152 C151 1_555 1_555
H66 C152 1_555 1_555
C153 C148 1_555 1_555
C154 C149 1_555 1_555
C155 C154 1_555 1_555
C156 C157 1_555 1_555
C157 H67 1_555 1_555
C158 C149 1_555 1_555
C159 C155 1_555 1_555
C160 C155 1_555 1_555
H68 C160 1_555 1_555
C161 C157 1_555 1_555
C162 C159 1_555 1_555
H69 C162 1_555 1_555
C163 C161 1_555 1_555
H70 C163 1_555 1_555
C164 C160 1_555 1_555
C165 C164 1_555 1_555
H71 C165 1_555 1_555
C166 C154 1_555 1_555
H72 C166 1_555 1_555
C167 C164 1_555 1_555
C168 C161 1_555 1_555
O45 Cd2 1_555 1_555
O46 Cd4 1_555 1_555
O47 C167 1_555 1_555
O48 C168 1_555 1_555
Cd10 O30 1_555 1_555
Cd11 O39 1_555 1_555
Cd12 O29 1_555 1_555
Cd13 O6 1_555 1_555
Cd14 O15 1_555 1_555
Cd15 O5 1_555 1_555
Cd16_2 O6 1_555 1_555
Cd17 O15 1_555 1_555
Cd18 O5 1_555 1_555
O49 Cd2 1_555 1_555
O50 Cd4 1_555 1_555
O51 Cd6 1_555 1_555
O52 Cd9 1_555 1_555
O55 Cd5 1_555 1_555
O56 Cd3 1_555 1_555
O57 Cd1 1_555 1_555
O59 Cd9 1_555 1_555
O61 Cd1 1_555 1_555
O62 Cd5 1_555 1_555
O63 Cd3 1_555 1_555
O65 Cd9 1_555 1_555
O67 Cd1 1_555 1_555
O68 Cd5 1_555 1_555
O69 Cd3 1_555 1_555
O70 Cd9 1_555 1_555
O73 Cd5 1_555 1_555
O74 Cd3 1_555 1_555
O75 Cd1 1_555 1_555
C3 C6 1_555 1_555
C4 C6 1_555 1_555
C5 C11 1_555 1_555
C9 C11 1_555 1_555
C9 C12 1_555 1_555
C15 C16 1_555 1_555
C18 C19 1_555 1_555
Cd2 O57 1_555 1_555
Cd2 O61 1_555 1_555
O7 Cd13 1_555 1_555
O8 Cd15 1_555 1_555
C24 C26 1_555 1_555
C27 C28 1_555 1_555
C31 C33 1_555 1_555
C34 C35 1_555 1_555
C38 C39 1_555 1_555
C38 C40 1_555 1_555
C41 C42 1_555 1_555
O14 C43 1_555 1_555
C45 C48 1_555 1_555
C46 C48 1_555 1_555
C47 C53 1_555 1_555
C51 C53 1_555 1_555
C51 C54 1_555 1_555
C57 C58 1_555 1_555
C60 C61 1_555 1_555
Cd4 O56 1_555 1_555
Cd4 O63 1_555 1_555
O16 Cd15 1_555 1_555
O16 Cd18 1_555 1_555
O17 Cd15 1_555 1_555
O18 Cd14 1_555 1_555
O20 C64 1_555 1_555
C66 C69 1_555 1_555
C67 C69 1_555 1_555
C68 C74 1_555 1_555
C72 C74 1_555 1_555
C72 C75 1_555 1_555
C78 C79 1_555 1_555
C81 C82 1_555 1_555
Cd6 O55 1_555 1_555
Cd6 O62 1_555 1_555
O21 Cd13 1_555 1_555
O21 Cd16_2 1_555 1_555
O22 Cd14 1_555 1_555
O22 Cd17 1_555 1_555
O23 Cd14 1_555 1_555
O24 Cd13 1_555 1_555
C87 C90 1_555 1_555
C88 C90 1_555 1_555
C89 C95 1_555 1_555
C93 C95 1_555 1_555
C93 C96 1_555 1_555
C99 C100 1_555 1_555
C102 C103 1_555 1_555
C105 O30 1_555 1_555
O28 Cd16_2 1_555 1_555
O31 Cd10 1_555 1_555
O32 Cd12 1_555 1_555
C108 C110 1_555 1_555
C111 C112 1_555 1_555
C115 C117 1_555 1_555
C118 C119 1_555 1_555
C122 C123 1_555 1_555
C122 C124 1_555 1_555
C125 C126 1_555 1_555
O38 C127 1_555 1_555
C129 C132 1_555 1_555
C130 C132 1_555 1_555
C131 C137 1_555 1_555
C135 C137 1_555 1_555
C135 C138 1_555 1_555
C141 C142 1_555 1_555
C144 C145 1_555 1_555
C146 O40 1_555 1_555
O40 Cd12 1_555 1_555
O41 Cd12 1_555 1_555
O42 Cd11 1_555 1_555
O44 C148 1_555 1_555
C150 C153 1_555 1_555
C151 C153 1_555 1_555
C152 C158 1_555 1_555
C156 C158 1_555 1_555
C156 C159 1_555 1_555
C162 C163 1_555 1_555
C165 C166 1_555 1_555
C167 O46 1_555 1_555
C168 O45 1_555 1_555
O45 Cd10 1_555 1_555
O46 Cd11 1_555 1_555
O47 Cd11 1_555 1_555
O48 Cd10 1_555 1_555
Cd18 O52 1_555 1_555
Cd18 O59 1_555 1_555
O53 Cd8 1_555 1_555
O60 Cd8 1_555 1_555
O66 Cd8 1_555 1_555
O71 Cd8 1_555 1_555
Cd17_2 O53 1_555 1_555
Cd17_2 O60 1_555 1_555
O54_2 Cd7_2 1_555 1_555
O58_2 Cd7_2 1_555 1_555
O64_2 Cd7_2 1_555 1_555
O72_2 Cd7_2 1_555 1_555
C9_2 C10_2 1_555 1_555
C10_2 H4_2 1_555 1_555
C12_2 C8_2 1_555 1_555
C13_2 C8_2 1_555 1_555
H5_2 C13_2 1_555 1_555
C14_2 C10_2 1_555 1_555
C15_2 C12_2 1_555 1_555
H6_2 C15_2 1_555 1_555
C16_2 C14_2 1_555 1_555
H7_2 C16_2 1_555 1_555
C17_2 C13_2 1_555 1_555
C21_2 C17_2 1_555 1_555
C22_2 C14_2 1_555 1_555
O5_2 C22_2 1_555 1_555
O6_2 C21_2 1_555 1_555
O7_2 C21_2 1_555 1_555
O8_2 C22_2 1_555 1_555
C51_2 C52_2 1_555 1_555
C52_2 H22_2 1_555 1_555
C54_2 C50_2 1_555 1_555
C55_2 C50_2 1_555 1_555
H23_2 C55_2 1_555 1_555
C56_2 C52_2 1_555 1_555
C57_2 C54_2 1_555 1_555
H24_2 C57_2 1_555 1_555
C58_2 C56_2 1_555 1_555
H25_2 C58_2 1_555 1_555
C59_2 C55_2 1_555 1_555
C62_2 C59_2 1_555 1_555
C63_2 C56_2 1_555 1_555
O15_2 C63_2 1_555 1_555
O16_2 C62_2 1_555 1_555
O17_2 C62_2 1_555 1_555
O18_2 C63_2 1_555 1_555
C72_2 C73_2 1_555 1_555
C73_2 H31_2 1_555 1_555
C75_2 C71_2 1_555 1_555
C76_2 C71_2 1_555 1_555
H32_2 C76_2 1_555 1_555
C77_2 C73_2 1_555 1_555
C78_2 C75_2 1_555 1_555
H33_2 C78_2 1_555 1_555
C79_2 C77_2 1_555 1_555
H34_2 C79_2 1_555 1_555
C80_2 C76_2 1_555 1_555
C83_2 C80_2 1_555 1_555
C84_2 C77_2 1_555 1_555
O21_2 C84_2 1_555 1_555
O22_2 C83_2 1_555 1_555
O23_2 C83_2 1_555 1_555
O24_2 C84_2 1_555 1_555
Cd13_2 O6_2 1_555 1_555
Cd14_2 O15_2 1_555 1_555
Cd15_2 O5_2 1_555 1_555
Cd16_4 O6_2 1_555 1_555
Cd17_3 O15_2 1_555 1_555
Cd18_2 O5_2 1_555 1_555
C9_2 C12_2 1_555 1_555
C15_2 C16_2 1_555 1_555
O7_2 Cd13_2 1_555 1_555
O8_2 Cd15_2 1_555 1_555
C51_2 C54_2 1_555 1_555
C57_2 C58_2 1_555 1_555
O16_2 Cd15_2 1_555 1_555
O16_2 Cd18_2 1_555 1_555
O17_2 Cd15_2 1_555 1_555
O18_2 Cd14_2 1_555 1_555
C72_2 C75_2 1_555 1_555
C78_2 C79_2 1_555 1_555
O21_2 Cd13_2 1_555 1_555
O21_2 Cd16_4 1_555 1_555
O22_2 Cd14_2 1_555 1_555
O22_2 Cd17_3 1_555 1_555
O23_2 Cd14_2 1_555 1_555
O24_2 Cd13_2 1_555 1_555
Cd1_2 O1_2 1_555 1_555
O1_2 C1_2 1_555 1_555
O2_2 Cd1_2 1_555 1_555
C1_2 O2_2 1_555 1_555
C2_2 C3_2 1_555 1_555
C3_2 H1_2 1_555 1_555
C4_2 H2_2 1_555 1_555
C5_2 C4_2 1_555 1_555
H3_2 C5_2 1_555 1_555
C6_2 C1_2 1_555 1_555
C7_2 C2_2 1_555 1_555
C11_2 C2_2 1_555 1_555
H8_2 C18_2 1_555 1_555
C19_2 C7_2 1_555 1_555
H9_2 C19_2 1_555 1_555
Cd2_2 O4_2 1_555 1_555
O3_2 Cd1_2 1_555 1_555
C20_2 O3_2 1_555 1_555
O4_2 C20_2 1_555 1_555
C23_2 C20_2 1_555 1_555
C24_2 C25_2 1_555 1_555
C25_2 C27_2 1_555 1_555
C26_2 C23_2 1_555 1_555
H10_2 C26_2 1_555 1_555
C27_2 H11_2 1_555 1_555
C28_2 C23_2 1_555 1_555
H12_2 C28_2 1_555 1_555
O9_2 C29_2 1_555 1_555
C29_2 O10_2 1_555 1_555
O10_2 Cd4_2 1_555 1_555
C30_2 C29_2 1_555 1_555
C31_2 C32_2 1_555 1_555
C32_2 C24_2 1_555 1_555
C33_2 C30_2 1_555 1_555
H13_2 C33_2 1_555 1_555
C34_2 C32_2 1_555 1_555
H14_2 C34_2 1_555 1_555
C35_2 C30_2 1_555 1_555
H15_2 C35_2 1_555 1_555
O11_2 C36_2 1_555 1_555
C36_2 O12_2 1_555 1_555
O12_2 Cd6_2 1_555 1_555
C37_2 C36_2 1_555 1_555
C38_2 C25_2 1_555 1_555
C39_2 C31_2 1_555 1_555
C40_2 C37_2 1_555 1_555
H16_2 C40_2 1_555 1_555
C41_2 C39_2 1_555 1_555
H17_2 C41_2 1_555 1_555
C42_2 C37_2 1_555 1_555
H18_2 C42_2 1_555 1_555
Cd3_2 O9_2 1_555 1_555
O13_2 Cd3_2 1_555 1_555
O14_2 Cd3_2 1_555 1_555
C43_2 O13_2 1_555 1_555
C44_2 C45_2 1_555 1_555
C45_2 H19_2 1_555 1_555
C46_2 H20_2 1_555 1_555
C47_2 C46_2 1_555 1_555
H21_2 C47_2 1_555 1_555
C48_2 C43_2 1_555 1_555
C49_2 C44_2 1_555 1_555
C53_2 C44_2 1_555 1_555
H26_2 C60_2 1_555 1_555
C61_2 C49_2 1_555 1_555
H27_2 C61_2 1_555 1_555
Cd4_2 O39_2 1_555 1_555
Cd5_2 O11_2 1_555 1_555
O19_2 Cd5_2 1_555 1_555
O20_2 Cd5_2 1_555 1_555
C64_2 O19_2 1_555 1_555
C65_2 C66_2 1_555 1_555
C66_2 H28_2 1_555 1_555
C67_2 H29_2 1_555 1_555
C68_2 C67_2 1_555 1_555
H30_2 C68_2 1_555 1_555
C69_2 C64_2 1_555 1_555
C70_2 C65_2 1_555 1_555
C74_2 C65_2 1_555 1_555
H35_2 C81_2 1_555 1_555
C82_2 C70_2 1_555 1_555
H36_2 C82_2 1_555 1_555
Cd6_2 O29_2 1_555 1_555
O25_2 C85_2 1_555 1_555
C85_2 O26_2 1_555 1_555
C86_2 C87_2 1_555 1_555
C87_2 H37_2 1_555 1_555
C88_2 H38_2 1_555 1_555
C89_2 C88_2 1_555 1_555
H39_2 C89_2 1_555 1_555
C90_2 C85_2 1_555 1_555
C91_2 C86_2 1_555 1_555
C92_2 C91_2 1_555 1_555
C93_2 C94_2 1_555 1_555
C94_2 H40_2 1_555 1_555
C95_2 C86_2 1_555 1_555
C96_2 C92_2 1_555 1_555
C97_2 C92_2 1_555 1_555
H41_2 C97_2 1_555 1_555
C98_2 C94_2 1_555 1_555
C99_2 C96_2 1_555 1_555
H42_2 C99_2 1_555 1_555
C100_2 C98_2 1_555 1_555
H43_2 C100_2 1_555 1_555
C101_2 C97_2 1_555 1_555
C102_2 C101_2 1_555 1_555
H44_2 C102_2 1_555 1_555
C103_2 C91_2 1_555 1_555
H45_2 C103_2 1_555 1_555
C104_2 O27_2 1_555 1_555
C105_2 C101_2 1_555 1_555
O28_2 C104_2 1_555 1_555
C106_2 C98_2 1_555 1_555
C107_2 C104_2 1_555 1_555
O29_2 C106_2 1_555 1_555
O30_2 Cd2_2 1_555 1_555
O31_2 C105_2 1_555 1_555
O32_2 C106_2 1_555 1_555
C108_2 C109_2 1_555 1_555
C109_2 C111_2 1_555 1_555
C110_2 C107_2 1_555 1_555
H46_2 C110_2 1_555 1_555
C111_2 H47_2 1_555 1_555
C112_2 C107_2 1_555 1_555
H48_2 C112_2 1_555 1_555
O33_2 C113_2 1_555 1_555
C113_2 O34_2 1_555 1_555
C114_2 C113_2 1_555 1_555
C115_2 C116_2 1_555 1_555
C116_2 C108_2 1_555 1_555
C117_2 C114_2 1_555 1_555
H49_2 C117_2 1_555 1_555
C118_2 C116_2 1_555 1_555
H50_2 C118_2 1_555 1_555
C119_2 C114_2 1_555 1_555
H51_2 C119_2 1_555 1_555
O35_2 C120_2 1_555 1_555
C120_2 O36_2 1_555 1_555
C121_2 C120_2 1_555 1_555
C122_2 C109_2 1_555 1_555
C123_2 C115_2 1_555 1_555
C124_2 C121_2 1_555 1_555
H52_2 C124_2 1_555 1_555
C125_2 C123_2 1_555 1_555
H53_2 C125_2 1_555 1_555
C126_2 C121_2 1_555 1_555
H54_2 C126_2 1_555 1_555
C127_2 O37_2 1_555 1_555
C128_2 C129_2 1_555 1_555
C129_2 H55_2 1_555 1_555
C130_2 H56_2 1_555 1_555
C131_2 C130_2 1_555 1_555
H57_2 C131_2 1_555 1_555
C132_2 C127_2 1_555 1_555
C133_2 C128_2 1_555 1_555
C134_2 C133_2 1_555 1_555
C135_2 C136_2 1_555 1_555
C136_2 H58_2 1_555 1_555
C137_2 C128_2 1_555 1_555
C138_2 C134_2 1_555 1_555
C139_2 C134_2 1_555 1_555
H59_2 C139_2 1_555 1_555
C140_2 C136_2 1_555 1_555
C141_2 C138_2 1_555 1_555
H60_2 C141_2 1_555 1_555
C142_2 C140_2 1_555 1_555
H61_2 C142_2 1_555 1_555
C143_2 C139_2 1_555 1_555
C144_2 C143_2 1_555 1_555
H62_2 C144_2 1_555 1_555
C145_2 C133_2 1_555 1_555
H63_2 C145_2 1_555 1_555
C146_2 C143_2 1_555 1_555
C147_2 C140_2 1_555 1_555
O39_2 C147_2 1_555 1_555
O40_2 Cd6_2 1_555 1_555
O41_2 C146_2 1_555 1_555
O42_2 C147_2 1_555 1_555
Cd9_2 O35_2 1_555 1_555
O43_2 Cd9_2 1_555 1_555
O44_2 Cd9_2 1_555 1_555
C148_2 O43_2 1_555 1_555
C149_2 C150_2 1_555 1_555
C150_2 H64_2 1_555 1_555
C151_2 H65_2 1_555 1_555
C152_2 C151_2 1_555 1_555
H66_2 C152_2 1_555 1_555
C153_2 C148_2 1_555 1_555
C154_2 C149_2 1_555 1_555
C155_2 C154_2 1_555 1_555
C156_2 C157_2 1_555 1_555
C157_2 H67_2 1_555 1_555
C158_2 C149_2 1_555 1_555
C159_2 C155_2 1_555 1_555
C160_2 C155_2 1_555 1_555
H68_2 C160_2 1_555 1_555
C161_2 C157_2 1_555 1_555
C162_2 C159_2 1_555 1_555
H69_2 C162_2 1_555 1_555
C163_2 C161_2 1_555 1_555
H70_2 C163_2 1_555 1_555
C164_2 C160_2 1_555 1_555
C165_2 C164_2 1_555 1_555
H71_2 C165_2 1_555 1_555
C166_2 C154_2 1_555 1_555
H72_2 C166_2 1_555 1_555
C167_2 C164_2 1_555 1_555
C168_2 C161_2 1_555 1_555
O45_2 Cd2_2 1_555 1_555
O46_2 Cd4_2 1_555 1_555
O47_2 C167_2 1_555 1_555
O48_2 C168_2 1_555 1_555
Cd10_2 O30_2 1_555 1_555
Cd11_2 O39_2 1_555 1_555
Cd12_2 O29_2 1_555 1_555
O49_2 Cd2_2 1_555 1_555
O50_2 Cd4_2 1_555 1_555
O51_2 Cd6_2 1_555 1_555
O52_2 Cd9_2 1_555 1_555
O55_2 Cd5_2 1_555 1_555
O56_2 Cd3_2 1_555 1_555
O57_2 Cd1_2 1_555 1_555
O59_2 Cd9_2 1_555 1_555
O61_2 Cd1_2 1_555 1_555
O62_2 Cd5_2 1_555 1_555
O63_2 Cd3_2 1_555 1_555
O65_2 Cd9_2 1_555 1_555
O67_2 Cd1_2 1_555 1_555
O68_2 Cd5_2 1_555 1_555
O69_2 Cd3_2 1_555 1_555
O70_2 Cd9_2 1_555 1_555
O73_2 Cd5_2 1_555 1_555
O74_2 Cd3_2 1_555 1_555
O75_2 Cd1_2 1_555 1_555
C3_2 C6_2 1_555 1_555
C4_2 C6_2 1_555 1_555
C5_2 C11_2 1_555 1_555
C18_2 C19_2 1_555 1_555
Cd2_2 O57_2 1_555 1_555
Cd2_2 O61_2 1_555 1_555
C24_2 C26_2 1_555 1_555
C27_2 C28_2 1_555 1_555
C31_2 C33_2 1_555 1_555
C34_2 C35_2 1_555 1_555
C38_2 C39_2 1_555 1_555
C38_2 C40_2 1_555 1_555
C41_2 C42_2 1_555 1_555
O14_2 C43_2 1_555 1_555
C45_2 C48_2 1_555 1_555
C46_2 C48_2 1_555 1_555
C47_2 C53_2 1_555 1_555
C60_2 C61_2 1_555 1_555
Cd4_2 O56_2 1_555 1_555
Cd4_2 O63_2 1_555 1_555
O20_2 C64_2 1_555 1_555
C66_2 C69_2 1_555 1_555
C67_2 C69_2 1_555 1_555
C68_2 C74_2 1_555 1_555
C81_2 C82_2 1_555 1_555
Cd6_2 O55_2 1_555 1_555
Cd6_2 O62_2 1_555 1_555
C87_2 C90_2 1_555 1_555
C88_2 C90_2 1_555 1_555
C89_2 C95_2 1_555 1_555
C93_2 C95_2 1_555 1_555
C93_2 C96_2 1_555 1_555
C99_2 C100_2 1_555 1_555
C102_2 C103_2 1_555 1_555
C105_2 O30_2 1_555 1_555
O31_2 Cd10_2 1_555 1_555
O32_2 Cd12_2 1_555 1_555
C108_2 C110_2 1_555 1_555
C111_2 C112_2 1_555 1_555
C115_2 C117_2 1_555 1_555
C118_2 C119_2 1_555 1_555
C122_2 C123_2 1_555 1_555
C122_2 C124_2 1_555 1_555
C125_2 C126_2 1_555 1_555
O38_2 C127_2 1_555 1_555
C129_2 C132_2 1_555 1_555
C130_2 C132_2 1_555 1_555
C131_2 C137_2 1_555 1_555
C135_2 C137_2 1_555 1_555
C135_2 C138_2 1_555 1_555
C141_2 C142_2 1_555 1_555
C144_2 C145_2 1_555 1_555
C146_2 O40_2 1_555 1_555
O40_2 Cd12_2 1_555 1_555
O41_2 Cd12_2 1_555 1_555
O42_2 Cd11_2 1_555 1_555
O44_2 C148_2 1_555 1_555
C150_2 C153_2 1_555 1_555
C151_2 C153_2 1_555 1_555
C152_2 C158_2 1_555 1_555
C156_2 C158_2 1_555 1_555
C156_2 C159_2 1_555 1_555
C162_2 C163_2 1_555 1_555
C165_2 C166_2 1_555 1_555
C167_2 O46_2 1_555 1_555
C168_2 O45_2 1_555 1_555
O45_2 Cd10_2 1_555 1_555
O46_2 Cd11_2 1_555 1_555
O47_2 Cd11_2 1_555 1_555
O48_2 Cd10_2 1_555 1_555
O53_2 Cd8_2 1_555 1_555
O60_2 Cd8_2 1_555 1_555
O66_2 Cd8_2 1_555 1_555
O71_2 Cd8_2 1_555 1_555
O49_3 Cd16_3 1_555 1_555
O51_3 Cd18_2 1_555 1_555
O50_3 Cd17_4 1_555 1_555
Cd1_3 O1_3 1_555 1_555
O1_3 C1_3 1_555 1_555
O2_3 Cd1_3 1_555 1_555
C1_3 O2_3 1_555 1_555
C2_3 C3_3 1_555 1_555
C3_3 H1_3 1_555 1_555
C4_3 H2_3 1_555 1_555
C5_3 C4_3 1_555 1_555
C6_3 C1_3 1_555 1_555
C7_3 C2_3 1_555 1_555
C8_3 C7_3 1_555 1_555
C11_3 C2_3 1_555 1_555
C12_3 C8_3 1_555 1_555
C13_3 C8_3 1_555 1_555
H5_3 C13_3 1_555 1_555
C15_3 C12_3 1_555 1_555
H6_3 C15_3 1_555 1_555
H7_3 C16_3 1_555 1_555
C17_3 C13_3 1_555 1_555
C18_3 C17_3 1_555 1_555
H8_3 C18_3 1_555 1_555
C19_3 C7_3 1_555 1_555
H9_3 C19_3 1_555 1_555
Cd2_3 O4_3 1_555 1_555
O3_3 Cd1_3 1_555 1_555
C20_3 O3_3 1_555 1_555
C21_3 C17_3 1_555 1_555
O4_3 C20_3 1_555 1_555
C23_3 C20_3 1_555 1_555
O6_3 C21_3 1_555 1_555
O7_3 C21_3 1_555 1_555
C24_3 C25_3 1_555 1_555
C25_3 C27_3 1_555 1_555
C26_3 C23_3 1_555 1_555
H10_3 C26_3 1_555 1_555
C27_3 H11_3 1_555 1_555
C28_3 C23_3 1_555 1_555
H12_3 C28_3 1_555 1_555
C73_3 H31_3 1_555 1_555
C77_3 C73_3 1_555 1_555
C84_3 C77_3 1_555 1_555
O21_3 C84_3 1_555 1_555
O24_3 C84_3 1_555 1_555
Cd7_3 O25_3 1_555 1_555
O25_3 C85_3 1_555 1_555
O26_3 Cd7_3 1_555 1_555
C85_3 O26_3 1_555 1_555
C86_3 C87_3 1_555 1_555
C87_3 H37_3 1_555 1_555
C88_3 H38_3 1_555 1_555
C89_3 C88_3 1_555 1_555
C90_3 C85_3 1_555 1_555
C91_3 C86_3 1_555 1_555
C92_3 C91_3 1_555 1_555
C95_3 C86_3 1_555 1_555
C96_3 C92_3 1_555 1_555
C97_3 C92_3 1_555 1_555
H41_3 C97_3 1_555 1_555
C99_3 C96_3 1_555 1_555
H42_3 C99_3 1_555 1_555
H43_3 C100_3 1_555 1_555
C101_3 C97_3 1_555 1_555
C102_3 C101_3 1_555 1_555
H44_3 C102_3 1_555 1_555
C103_3 C91_3 1_555 1_555
H45_3 C103_3 1_555 1_555
O27_3 Cd7_3 1_555 1_555
C104_3 O27_3 1_555 1_555
C105_3 C101_3 1_555 1_555
O28_3 C104_3 1_555 1_555
C107_3 C104_3 1_555 1_555
O30_3 Cd2_3 1_555 1_555
O31_3 C105_3 1_555 1_555
C108_3 C109_3 1_555 1_555
C109_3 C111_3 1_555 1_555
C110_3 C107_3 1_555 1_555
H46_3 C110_3 1_555 1_555
C111_3 H47_3 1_555 1_555
C112_3 C107_3 1_555 1_555
H48_3 C112_3 1_555 1_555
C157_3 H67_3 1_555 1_555
C161_3 C157_3 1_555 1_555
C168_3 C161_3 1_555 1_555
O45_3 Cd2_3 1_555 1_555
O48_3 C168_3 1_555 1_555
Cd10_3 O30_3 1_555 1_555
Cd13_3 O6_3 1_555 1_555
Cd16_5 O6_3 1_555 1_555
O49_4 Cd2_3 1_555 1_555
O54_3 Cd7_3 1_555 1_555
O57_3 Cd1_3 1_555 1_555
O58_3 Cd7_3 1_555 1_555
O61_3 Cd1_3 1_555 1_555
O64_3 Cd7_3 1_555 1_555
O67_3 Cd1_3 1_555 1_555
O72_3 Cd7_3 1_555 1_555
O75_3 Cd1_3 1_555 1_555
C3_3 C6_3 1_555 1_555
C4_3 C6_3 1_555 1_555
C5_3 C11_3 1_555 1_555
C9_3 C11_3 1_555 1_555
C9_3 C12_3 1_555 1_555
C15_3 C16_3 1_555 1_555
C18_3 C19_3 1_555 1_555
Cd2_3 O57_3 1_555 1_555
Cd2_3 O61_3 1_555 1_555
O7_3 Cd13_3 1_555 1_555
C24_3 C26_3 1_555 1_555
C27_3 C28_3 1_555 1_555
O21_3 Cd13_3 1_555 1_555
O21_3 Cd16_5 1_555 1_555
O24_3 Cd13_3 1_555 1_555
C87_3 C90_3 1_555 1_555
C88_3 C90_3 1_555 1_555
C89_3 C95_3 1_555 1_555
C93_3 C95_3 1_555 1_555
C93_3 C96_3 1_555 1_555
C99_3 C100_3 1_555 1_555
C102_3 C103_3 1_555 1_555
C105_3 O30_3 1_555 1_555
O28_3 Cd16_5 1_555 1_555
O31_3 Cd10_3 1_555 1_555
C108_3 C110_3 1_555 1_555
C111_3 C112_3 1_555 1_555
C168_3 O45_3 1_555 1_555
O45_3 Cd10_3 1_555 1_555
O48_3 Cd10_3 1_555 1_555
Cd16_5 O54_3 1_555 1_555
Cd16_5 O58_3 1_555 1_555
C10_3 H4_3 1_555 1_555
C14_3 C10_3 1_555 1_555
C22_3 C14_3 1_555 1_555
O5_3 C22_3 1_555 1_555
O8_3 C22_3 1_555 1_555
C34_3 C32_3 1_555 1_555
H14_3 C34_3 1_555 1_555
O16_3 C62_3 1_555 1_555
O17_3 C62_3 1_555 1_555
O35_3 C120_3 1_555 1_555
C120_3 O36_3 1_555 1_555
O36_3 Cd18_3 1_555 1_555
C121_3 C120_3 1_555 1_555
C124_3 C121_3 1_555 1_555
H52_3 C124_3 1_555 1_555
C126_3 C121_3 1_555 1_555
Cd9_3 O35_3 1_555 1_555
O43_3 Cd9_3 1_555 1_555
O44_3 Cd9_3 1_555 1_555
C148_3 O43_3 1_555 1_555
C149_3 C150_3 1_555 1_555
C150_3 H64_3 1_555 1_555
C151_3 H65_3 1_555 1_555
C152_3 C151_3 1_555 1_555
C153_3 C148_3 1_555 1_555
C154_3 C149_3 1_555 1_555
C155_3 C154_3 1_555 1_555
C158_3 C149_3 1_555 1_555
C159_3 C155_3 1_555 1_555
C160_3 C155_3 1_555 1_555
H68_3 C160_3 1_555 1_555
C162_3 C159_3 1_555 1_555
H69_3 C162_3 1_555 1_555
H70_3 C163_3 1_555 1_555
C164_3 C160_3 1_555 1_555
C165_3 C164_3 1_555 1_555
C166_3 C154_3 1_555 1_555
H72_3 C166_3 1_555 1_555
Cd15_3 O5_3 1_555 1_555
Cd18_3 O5_3 1_555 1_555
O52_3 Cd9_3 1_555 1_555
O59_3 Cd9_3 1_555 1_555
O65_3 Cd9_3 1_555 1_555
O70_3 Cd9_3 1_555 1_555
O8_3 Cd15_3 1_555 1_555
O16_3 Cd15_3 1_555 1_555
O16_3 Cd18_3 1_555 1_555
O17_3 Cd15_3 1_555 1_555
C122_3 C124_3 1_555 1_555
O44_3 C148_3 1_555 1_555
C150_3 C153_3 1_555 1_555
C151_3 C153_3 1_555 1_555
C152_3 C158_3 1_555 1_555
C156_3 C158_3 1_555 1_555
C156_3 C159_3 1_555 1_555
C162_3 C163_3 1_555 1_555
C165_3 C166_3 1_555 1_555
Cd18_3 O52_3 1_555 1_555
Cd18_3 O59_3 1_555 1_555
O11_3 C36_3 1_555 1_555
C36_3 O12_3 1_555 1_555
O12_3 Cd6_3 1_555 1_555
C37_3 C36_3 1_555 1_555
C40_3 C37_3 1_555 1_555
H16_3 C40_3 1_555 1_555
C42_3 C37_3 1_555 1_555
Cd5_3 O11_3 1_555 1_555
O19_3 Cd5_3 1_555 1_555
O20_3 Cd5_3 1_555 1_555
C64_3 O19_3 1_555 1_555
C65_3 C66_3 1_555 1_555
C66_3 H28_3 1_555 1_555
C67_3 H29_3 1_555 1_555
C68_3 C67_3 1_555 1_555
C69_3 C64_3 1_555 1_555
C70_3 C65_3 1_555 1_555
C71_3 C70_3 1_555 1_555
C74_3 C65_3 1_555 1_555
C75_3 C71_3 1_555 1_555
C76_3 C71_3 1_555 1_555
H32_3 C76_3 1_555 1_555
C78_3 C75_3 1_555 1_555
H33_3 C78_3 1_555 1_555
H34_3 C79_3 1_555 1_555
C80_3 C76_3 1_555 1_555
C81_3 C80_3 1_555 1_555
C82_3 C70_3 1_555 1_555
H36_3 C82_3 1_555 1_555
Cd6_3 O29_3 1_555 1_555
C94_3 H40_3 1_555 1_555
C98_3 C94_3 1_555 1_555
C106_3 C98_3 1_555 1_555
O29_3 C106_3 1_555 1_555
O32_3 C106_3 1_555 1_555
C118_3 C116_3 1_555 1_555
H50_3 C118_3 1_555 1_555
O40_3 Cd6_3 1_555 1_555
O41_3 C146_3 1_555 1_555
Cd12_3 O29_3 1_555 1_555
O51_4 Cd6_3 1_555 1_555
O55_3 Cd5_3 1_555 1_555
O62_3 Cd5_3 1_555 1_555
O68_3 Cd5_3 1_555 1_555
O73_3 Cd5_3 1_555 1_555
C38_3 C40_3 1_555 1_555
O20_3 C64_3 1_555 1_555
C66_3 C69_3 1_555 1_555
C67_3 C69_3 1_555 1_555
C68_3 C74_3 1_555 1_555
C72_3 C74_3 1_555 1_555
C72_3 C75_3 1_555 1_555
C78_3 C79_3 1_555 1_555
C81_3 C82_3 1_555 1_555
Cd6_3 O55_3 1_555 1_555
Cd6_3 O62_3 1_555 1_555
O32_3 Cd12_3 1_555 1_555
C146_3 O40_3 1_555 1_555
O40_3 Cd12_3 1_555 1_555
O41_3 Cd12_3 1_555 1_555
O9_3 C29_3 1_555 1_555
C29_3 O10_3 1_555 1_555
O10_3 Cd4_3 1_555 1_555
C30_3 C29_3 1_555 1_555
C33_3 C30_3 1_555 1_555
H13_3 C33_3 1_555 1_555
C35_3 C30_3 1_555 1_555
C39_3 C31_3 1_555 1_555
C41_3 C39_3 1_555 1_555
H17_3 C41_3 1_555 1_555
Cd3_3 O9_3 1_555 1_555
O13_3 Cd3_3 1_555 1_555
O14_3 Cd3_3 1_555 1_555
C43_3 O13_3 1_555 1_555
C44_3 C45_3 1_555 1_555
C45_3 H19_3 1_555 1_555
C46_3 H20_3 1_555 1_555
C47_3 C46_3 1_555 1_555
H21_3 C47_3 1_555 1_555
C48_3 C43_3 1_555 1_555
C49_3 C44_3 1_555 1_555
C50_3 C49_3 1_555 1_555
C51_3 C52_3 1_555 1_555
C52_3 H22_3 1_555 1_555
C53_3 C44_3 1_555 1_555
C54_3 C50_3 1_555 1_555
C55_3 C50_3 1_555 1_555
H23_3 C55_3 1_555 1_555
C56_3 C52_3 1_555 1_555
C57_3 C54_3 1_555 1_555
H24_3 C57_3 1_555 1_555
C58_3 C56_3 1_555 1_555
H25_3 C58_3 1_555 1_555
C59_3 C55_3 1_555 1_555
C60_3 C59_3 1_555 1_555
C61_3 C49_3 1_555 1_555
H27_3 C61_3 1_555 1_555
Cd4_3 O39_3 1_555 1_555
C63_3 C56_3 1_555 1_555
O15_3 C63_3 1_555 1_555
O18_3 C63_3 1_555 1_555
O22_3 C83_3 1_555 1_555
O23_3 C83_3 1_555 1_555
O33_3 C113_3 1_555 1_555
C113_3 O34_3 1_555 1_555
O34_3 Cd17_5 1_555 1_555
C114_3 C113_3 1_555 1_555
C117_3 C114_3 1_555 1_555
H49_3 C117_3 1_555 1_555
C119_3 C114_3 1_555 1_555
C123_3 C115_3 1_555 1_555
C125_3 C123_3 1_555 1_555
H53_3 C125_3 1_555 1_555
Cd8_3 O33_3 1_555 1_555
O37_3 Cd8_3 1_555 1_555
O38_3 Cd8_3 1_555 1_555
C127_3 O37_3 1_555 1_555
C128_3 C129_3 1_555 1_555
C129_3 H55_3 1_555 1_555
C130_3 H56_3 1_555 1_555
C131_3 C130_3 1_555 1_555
H57_3 C131_3 1_555 1_555
C132_3 C127_3 1_555 1_555
C133_3 C128_3 1_555 1_555
C134_3 C133_3 1_555 1_555
C135_3 C136_3 1_555 1_555
C136_3 H58_3 1_555 1_555
C137_3 C128_3 1_555 1_555
C138_3 C134_3 1_555 1_555
C139_3 C134_3 1_555 1_555
H59_3 C139_3 1_555 1_555
C140_3 C136_3 1_555 1_555
C141_3 C138_3 1_555 1_555
H60_3 C141_3 1_555 1_555
C142_3 C140_3 1_555 1_555
H61_3 C142_3 1_555 1_555
C143_3 C139_3 1_555 1_555
C144_3 C143_3 1_555 1_555
C145_3 C133_3 1_555 1_555
H63_3 C145_3 1_555 1_555
C147_3 C140_3 1_555 1_555
O39_3 C147_3 1_555 1_555
O42_3 C147_3 1_555 1_555
O46_3 Cd4_3 1_555 1_555
O47_3 C167_3 1_555 1_555
Cd11_3 O39_3 1_555 1_555
Cd14_3 O15_3 1_555 1_555
Cd17_5 O15_3 1_555 1_555
O50_4 Cd4_3 1_555 1_555
O53_3 Cd8_3 1_555 1_555
O56_3 Cd3_3 1_555 1_555
O60_3 Cd8_3 1_555 1_555
O63_3 Cd3_3 1_555 1_555
O66_3 Cd8_3 1_555 1_555
O69_3 Cd3_3 1_555 1_555
O71_3 Cd8_3 1_555 1_555
O74_3 Cd3_3 1_555 1_555
C31_3 C33_3 1_555 1_555
O14_3 C43_3 1_555 1_555
C45_3 C48_3 1_555 1_555
C46_3 C48_3 1_555 1_555
C47_3 C53_3 1_555 1_555
C51_3 C53_3 1_555 1_555
C51_3 C54_3 1_555 1_555
C57_3 C58_3 1_555 1_555
C60_3 C61_3 1_555 1_555
Cd4_3 O56_3 1_555 1_555
Cd4_3 O63_3 1_555 1_555
O18_3 Cd14_3 1_555 1_555
O22_3 Cd14_3 1_555 1_555
O22_3 Cd17_5 1_555 1_555
O23_3 Cd14_3 1_555 1_555
C115_3 C117_3 1_555 1_555
O38_3 C127_3 1_555 1_555
C129_3 C132_3 1_555 1_555
C130_3 C132_3 1_555 1_555
C131_3 C137_3 1_555 1_555
C135_3 C137_3 1_555 1_555
C135_3 C138_3 1_555 1_555
C141_3 C142_3 1_555 1_555
C144_3 C145_3 1_555 1_555
O42_3 Cd11_3 1_555 1_555
C167_3 O46_3 1_555 1_555
O46_3 Cd11_3 1_555 1_555
O47_3 Cd11_3 1_555 1_555
Cd17_5 O53_3 1_555 1_555
Cd17_5 O60_3 1_555 1_555
O49_5 Cd16_5 1_555 1_555
O51_5 Cd18_3 1_555 1_555
O50_5 Cd17_5 1_555 1_555
O49_6 Cd16 1_555 1_555
O51_6 Cd18 1_555 1_555
O50_6 Cd17_2 1_555 1_555
Cd13_3 O1_4 1_555 1_555
O1_4 C1_4 1_555 1_555
O2_4 Cd13_3 1_555 1_555
C1_4 O2_4 1_555 1_555
C2_4 C3_4 1_555 1_555
C3_4 H1_4 1_555 1_555
C4_4 H2_4 1_555 1_555
C5_4 C4_4 1_555 1_555
H3_4 C5_4 1_555 1_555
C6_4 C1_4 1_555 1_555
C7_4 C2_4 1_555 1_555
C8_4 C7_4 1_555 1_555
C9_4 C10_4 1_555 1_555
C10_4 H4_4 1_555 1_555
C11_4 C2_4 1_555 1_555
C12_4 C8_4 1_555 1_555
C13_4 C8_4 1_555 1_555
H5_4 C13_4 1_555 1_555
C14_4 C10_4 1_555 1_555
C15_4 C12_4 1_555 1_555
H6_4 C15_4 1_555 1_555
C16_4 C14_4 1_555 1_555
H7_4 C16_4 1_555 1_555
C17_4 C13_4 1_555 1_555
C18_4 C17_4 1_555 1_555
H8_4 C18_4 1_555 1_555
C19_4 C7_4 1_555 1_555
H9_4 C19_4 1_555 1_555
O3_4 Cd13_3 1_555 1_555
C20_4 O3_4 1_555 1_555
C21_4 C17_4 1_555 1_555
O49_5 C20_4 1_555 1_555
C22_4 C14_4 1_555 1_555
C23_4 C20_4 1_555 1_555
O52 C22_4 1_555 1_555
O58 C21_4 1_555 1_555
O64 C21_4 1_555 1_555
O70 C22_4 1_555 1_555
C24_4 C25_4 1_555 1_555
C25_4 C27_4 1_555 1_555
C26_4 C23_4 1_555 1_555
H10_4 C26_4 1_555 1_555
C27_4 H11_4 1_555 1_555
C28_4 C23_4 1_555 1_555
H12_4 C28_4 1_555 1_555
O9_4 C29_4 1_555 1_555
C29_4 O50_5 1_555 1_555
C30_4 C29_4 1_555 1_555
C31_4 C32_4 1_555 1_555
C32_4 C24_4 1_555 1_555
C33_4 C30_4 1_555 1_555
H13_4 C33_4 1_555 1_555
C34_4 C32_4 1_555 1_555
H14_4 C34_4 1_555 1_555
C35_4 C30_4 1_555 1_555
H15_4 C35_4 1_555 1_555
O11_4 C36_4 1_555 1_555
C36_4 O51_5 1_555 1_555
C37_4 C36_4 1_555 1_555
C38_4 C25_4 1_555 1_555
C39_4 C31_4 1_555 1_555
C40_4 C37_4 1_555 1_555
H16_4 C40_4 1_555 1_555
C41_4 C39_4 1_555 1_555
H17_4 C41_4 1_555 1_555
C42_4 C37_4 1_555 1_555
H18_4 C42_4 1_555 1_555
Cd14_3 O9_4 1_555 1_555
O13_4 Cd14_3 1_555 1_555
O14_4 Cd14_3 1_555 1_555
C43_4 O13_4 1_555 1_555
C44_4 C45_4 1_555 1_555
C45_4 H19_4 1_555 1_555
C46_4 H20_4 1_555 1_555
C47_4 C46_4 1_555 1_555
H21_4 C47_4 1_555 1_555
C48_4 C43_4 1_555 1_555
C49_4 C44_4 1_555 1_555
C50_4 C49_4 1_555 1_555
C51_4 C52_4 1_555 1_555
C52_4 H22_4 1_555 1_555
C53_4 C44_4 1_555 1_555
C54_4 C50_4 1_555 1_555
C55_4 C50_4 1_555 1_555
H23_4 C55_4 1_555 1_555
C56_4 C52_4 1_555 1_555
C57_4 C54_4 1_555 1_555
H24_4 C57_4 1_555 1_555
C58_4 C56_4 1_555 1_555
H25_4 C58_4 1_555 1_555
C59_4 C55_4 1_555 1_555
C60_4 C59_4 1_555 1_555
H26_4 C60_4 1_555 1_555
C61_4 C49_4 1_555 1_555
H27_4 C61_4 1_555 1_555
C62_4 C59_4 1_555 1_555
C63_4 C56_4 1_555 1_555
O53 C63_4 1_555 1_555
O59 C62_4 1_555 1_555
O65 C62_4 1_555 1_555
O71 C63_4 1_555 1_555
Cd15_3 O11_4 1_555 1_555
O19_4 Cd15_3 1_555 1_555
O20_4 Cd15_3 1_555 1_555
C64_4 O19_4 1_555 1_555
C65_4 C66_4 1_555 1_555
C66_4 H28_4 1_555 1_555
C67_4 H29_4 1_555 1_555
C68_4 C67_4 1_555 1_555
H30_4 C68_4 1_555 1_555
C69_4 C64_4 1_555 1_555
C70_4 C65_4 1_555 1_555
C71_4 C70_4 1_555 1_555
C72_4 C73_4 1_555 1_555
C73_4 H31_4 1_555 1_555
C74_4 C65_4 1_555 1_555
C75_4 C71_4 1_555 1_555
C76_4 C71_4 1_555 1_555
H32_4 C76_4 1_555 1_555
C77_4 C73_4 1_555 1_555
C78_4 C75_4 1_555 1_555
H33_4 C78_4 1_555 1_555
C79_4 C77_4 1_555 1_555
H34_4 C79_4 1_555 1_555
C80_4 C76_4 1_555 1_555
C81_4 C80_4 1_555 1_555
H35_4 C81_4 1_555 1_555
C82_4 C70_4 1_555 1_555
H36_4 C82_4 1_555 1_555
C83_4 C80_4 1_555 1_555
C84_4 C77_4 1_555 1_555
O54 C84_4 1_555 1_555
O60 C83_4 1_555 1_555
O66 C83_4 1_555 1_555
O72 C84_4 1_555 1_555
O25_4 C85_4 1_555 1_555
C85_4 O26_4 1_555 1_555
C86_4 C87_4 1_555 1_555
C87_4 H37_4 1_555 1_555
C88_4 H38_4 1_555 1_555
C89_4 C88_4 1_555 1_555
H39_4 C89_4 1_555 1_555
C90_4 C85_4 1_555 1_555
C91_4 C86_4 1_555 1_555
C92_4 C91_4 1_555 1_555
C93_4 C94_4 1_555 1_555
C94_4 H40_4 1_555 1_555
C95_4 C86_4 1_555 1_555
C96_4 C92_4 1_555 1_555
C97_4 C92_4 1_555 1_555
H41_4 C97_4 1_555 1_555
C98_4 C94_4 1_555 1_555
C99_4 C96_4 1_555 1_555
H42_4 C99_4 1_555 1_555
C100_4 C98_4 1_555 1_555
H43_4 C100_4 1_555 1_555
C101_4 C97_4 1_555 1_555
C102_4 C101_4 1_555 1_555
H44_4 C102_4 1_555 1_555
C103_4 C91_4 1_555 1_555
H45_4 C103_4 1_555 1_555
C104_4 O27_4 1_555 1_555
C105_4 C101_4 1_555 1_555
O49_6 C104_4 1_555 1_555
C106_4 C98_4 1_555 1_555
C107_4 C104_4 1_555 1_555
O52_3 C106_4 1_555 1_555
O64_3 C105_4 1_555 1_555
O70_3 C106_4 1_555 1_555
C108_4 C109_4 1_555 1_555
C109_4 C111_4 1_555 1_555
C110_4 C107_4 1_555 1_555
H46_4 C110_4 1_555 1_555
C111_4 H47_4 1_555 1_555
C112_4 C107_4 1_555 1_555
H48_4 C112_4 1_555 1_555
O33_4 C113_4 1_555 1_555
C113_4 O50_6 1_555 1_555
C114_4 C113_4 1_555 1_555
C115_4 C116_4 1_555 1_555
C116_4 C108_4 1_555 1_555
C117_4 C114_4 1_555 1_555
H49_4 C117_4 1_555 1_555
C118_4 C116_4 1_555 1_555
H50_4 C118_4 1_555 1_555
C119_4 C114_4 1_555 1_555
H51_4 C119_4 1_555 1_555
O35_4 C120_4 1_555 1_555
C120_4 O51_6 1_555 1_555
C121_4 C120_4 1_555 1_555
C122_4 C109_4 1_555 1_555
C123_4 C115_4 1_555 1_555
C124_4 C121_4 1_555 1_555
H52_4 C124_4 1_555 1_555
C125_4 C123_4 1_555 1_555
H53_4 C125_4 1_555 1_555
C126_4 C121_4 1_555 1_555
H54_4 C126_4 1_555 1_555
C127_4 O37_4 1_555 1_555
C128_4 C129_4 1_555 1_555
C129_4 H55_4 1_555 1_555
C130_4 H56_4 1_555 1_555
C131_4 C130_4 1_555 1_555
H57_4 C131_4 1_555 1_555
C132_4 C127_4 1_555 1_555
C133_4 C128_4 1_555 1_555
C134_4 C133_4 1_555 1_555
C135_4 C136_4 1_555 1_555
C136_4 H58_4 1_555 1_555
C137_4 C128_4 1_555 1_555
C138_4 C134_4 1_555 1_555
C139_4 C134_4 1_555 1_555
H59_4 C139_4 1_555 1_555
C140_4 C136_4 1_555 1_555
C141_4 C138_4 1_555 1_555
H60_4 C141_4 1_555 1_555
C142_4 C140_4 1_555 1_555
H61_4 C142_4 1_555 1_555
C143_4 C139_4 1_555 1_555
C144_4 C143_4 1_555 1_555
H62_4 C144_4 1_555 1_555
C145_4 C133_4 1_555 1_555
H63_4 C145_4 1_555 1_555
C146_4 C143_4 1_555 1_555
C147_4 C140_4 1_555 1_555
O53_3 C147_4 1_555 1_555
O65_3 C146_4 1_555 1_555
O71_3 C147_4 1_555 1_555
Cd15 O35_4 1_555 1_555
O43_4 Cd15 1_555 1_555
O44_4 Cd15 1_555 1_555
C148_4 O43_4 1_555 1_555
C149_4 C150_4 1_555 1_555
C150_4 H64_4 1_555 1_555
C151_4 H65_4 1_555 1_555
C152_4 C151_4 1_555 1_555
H66_4 C152_4 1_555 1_555
C153_4 C148_4 1_555 1_555
C154_4 C149_4 1_555 1_555
C155_4 C154_4 1_555 1_555
C156_4 C157_4 1_555 1_555
C157_4 H67_4 1_555 1_555
C158_4 C149_4 1_555 1_555
C159_4 C155_4 1_555 1_555
C160_4 C155_4 1_555 1_555
H68_4 C160_4 1_555 1_555
C161_4 C157_4 1_555 1_555
C162_4 C159_4 1_555 1_555
H69_4 C162_4 1_555 1_555
C163_4 C161_4 1_555 1_555
H70_4 C163_4 1_555 1_555
C164_4 C160_4 1_555 1_555
C165_4 C164_4 1_555 1_555
H71_4 C165_4 1_555 1_555
C166_4 C154_4 1_555 1_555
H72_4 C166_4 1_555 1_555
C167_4 C164_4 1_555 1_555
C168_4 C161_4 1_555 1_555
O66_3 C167_4 1_555 1_555
O72_3 C168_4 1_555 1_555
C3_4 C6_4 1_555 1_555
C4_4 C6_4 1_555 1_555
C5_4 C11_4 1_555 1_555
C9_4 C11_4 1_555 1_555
C9_4 C12_4 1_555 1_555
C15_4 C16_4 1_555 1_555
C18_4 C19_4 1_555 1_555
C24_4 C26_4 1_555 1_555
C27_4 C28_4 1_555 1_555
C31_4 C33_4 1_555 1_555
C34_4 C35_4 1_555 1_555
C38_4 C39_4 1_555 1_555
C38_4 C40_4 1_555 1_555
C41_4 C42_4 1_555 1_555
O14_4 C43_4 1_555 1_555
C45_4 C48_4 1_555 1_555
C46_4 C48_4 1_555 1_555
C47_4 C53_4 1_555 1_555
C51_4 C53_4 1_555 1_555
C51_4 C54_4 1_555 1_555
C57_4 C58_4 1_555 1_555
C60_4 C61_4 1_555 1_555
O20_4 C64_4 1_555 1_555
C66_4 C69_4 1_555 1_555
C67_4 C69_4 1_555 1_555
C68_4 C74_4 1_555 1_555
C72_4 C74_4 1_555 1_555
C72_4 C75_4 1_555 1_555
C78_4 C79_4 1_555 1_555
C81_4 C82_4 1_555 1_555
C87_4 C90_4 1_555 1_555
C88_4 C90_4 1_555 1_555
C89_4 C95_4 1_555 1_555
C93_4 C95_4 1_555 1_555
C93_4 C96_4 1_555 1_555
C99_4 C100_4 1_555 1_555
C102_4 C103_4 1_555 1_555
C105_4 O58_3 1_555 1_555
C108_4 C110_4 1_555 1_555
C111_4 C112_4 1_555 1_555
C115_4 C117_4 1_555 1_555
C118_4 C119_4 1_555 1_555
C122_4 C123_4 1_555 1_555
C122_4 C124_4 1_555 1_555
C125_4 C126_4 1_555 1_555
O38_4 C127_4 1_555 1_555
C129_4 C132_4 1_555 1_555
C130_4 C132_4 1_555 1_555
C131_4 C137_4 1_555 1_555
C135_4 C137_4 1_555 1_555
C135_4 C138_4 1_555 1_555
C141_4 C142_4 1_555 1_555
C144_4 C145_4 1_555 1_555
C146_4 O59_3 1_555 1_555
O44_4 C148_4 1_555 1_555
C150_4 C153_4 1_555 1_555
C151_4 C153_4 1_555 1_555
C152_4 C158_4 1_555 1_555
C156_4 C158_4 1_555 1_555
C156_4 C159_4 1_555 1_555
C162_4 C163_4 1_555 1_555
C165_4 C166_4 1_555 1_555
C167_4 O60_3 1_555 1_555
C168_4 O54_3 1_555 1_555
Cd10_3 O1_5 1_555 1_555
O1_5 C1_5 1_555 1_555
O2_5 Cd10_3 1_555 1_555
C1_5 O2_5 1_555 1_555
C2_5 C3_5 1_555 1_555
C3_5 H1_5 1_555 1_555
C4_5 H2_5 1_555 1_555
C5_5 C4_5 1_555 1_555
H3_5 C5_5 1_555 1_555
C6_5 C1_5 1_555 1_555
C7_5 C2_5 1_555 1_555
C11_5 C2_5 1_555 1_555
H8_5 C18_5 1_555 1_555
C19_5 C7_5 1_555 1_555
H9_5 C19_5 1_555 1_555
O3_5 Cd10_3 1_555 1_555
C20_5 O3_5 1_555 1_555
O49_4 C20_5 1_555 1_555
C23_5 C20_5 1_555 1_555
C24_5 C25_5 1_555 1_555
C25_5 C27_5 1_555 1_555
C26_5 C23_5 1_555 1_555
H10_5 C26_5 1_555 1_555
C27_5 H11_5 1_555 1_555
C28_5 C23_5 1_555 1_555
H12_5 C28_5 1_555 1_555
O9_5 C29_5 1_555 1_555
C29_5 O50_4 1_555 1_555
C30_5 C29_5 1_555 1_555
C31_5 C32_5 1_555 1_555
C32_5 C24_5 1_555 1_555
C33_5 C30_5 1_555 1_555
H13_5 C33_5 1_555 1_555
C34_5 C32_5 1_555 1_555
H14_5 C34_5 1_555 1_555
C35_5 C30_5 1_555 1_555
H15_5 C35_5 1_555 1_555
O11_5 C36_5 1_555 1_555
C36_5 O51_4 1_555 1_555
C37_5 C36_5 1_555 1_555
C38_5 C25_5 1_555 1_555
C39_5 C31_5 1_555 1_555
C40_5 C37_5 1_555 1_555
H16_5 C40_5 1_555 1_555
C41_5 C39_5 1_555 1_555
H17_5 C41_5 1_555 1_555
C42_5 C37_5 1_555 1_555
H18_5 C42_5 1_555 1_555
Cd11_3 O9_5 1_555 1_555
O13_5 Cd11_3 1_555 1_555
O14_5 Cd11_3 1_555 1_555
C43_5 O13_5 1_555 1_555
C44_5 C45_5 1_555 1_555
C45_5 H19_5 1_555 1_555
C46_5 H20_5 1_555 1_555
C47_5 C46_5 1_555 1_555
H21_5 C47_5 1_555 1_555
C48_5 C43_5 1_555 1_555
C49_5 C44_5 1_555 1_555
C53_5 C44_5 1_555 1_555
H26_5 C60_5 1_555 1_555
C61_5 C49_5 1_555 1_555
H27_5 C61_5 1_555 1_555
Cd12_3 O11_5 1_555 1_555
O19_5 Cd12_3 1_555 1_555
O20_5 Cd12_3 1_555 1_555
C64_5 O19_5 1_555 1_555
C65_5 C66_5 1_555 1_555
C66_5 H28_5 1_555 1_555
C67_5 H29_5 1_555 1_555
C68_5 C67_5 1_555 1_555
H30_5 C68_5 1_555 1_555
C69_5 C64_5 1_555 1_555
C70_5 C65_5 1_555 1_555
C74_5 C65_5 1_555 1_555
H35_5 C81_5 1_555 1_555
C82_5 C70_5 1_555 1_555
H36_5 C82_5 1_555 1_555
O25_5 C85_5 1_555 1_555
C85_5 O26_5 1_555 1_555
C86_5 C87_5 1_555 1_555
C87_5 H37_5 1_555 1_555
C88_5 H38_5 1_555 1_555
C89_5 C88_5 1_555 1_555
H39_5 C89_5 1_555 1_555
C90_5 C85_5 1_555 1_555
C91_5 C86_5 1_555 1_555
C92_5 C91_5 1_555 1_555
C93_5 C94_5 1_555 1_555
C94_5 H40_5 1_555 1_555
C95_5 C86_5 1_555 1_555
C96_5 C92_5 1_555 1_555
C97_5 C92_5 1_555 1_555
H41_5 C97_5 1_555 1_555
C98_5 C94_5 1_555 1_555
C99_5 C96_5 1_555 1_555
H42_5 C99_5 1_555 1_555
C100_5 C98_5 1_555 1_555
H43_5 C100_5 1_555 1_555
C101_5 C97_5 1_555 1_555
C102_5 C101_5 1_555 1_555
H44_5 C102_5 1_555 1_555
C103_5 C91_5 1_555 1_555
H45_5 C103_5 1_555 1_555
C104_5 O27_5 1_555 1_555
C105_5 C101_5 1_555 1_555
O49_3 C104_5 1_555 1_555
C106_5 C98_5 1_555 1_555
C107_5 C104_5 1_555 1_555
O55_3 C106_5 1_555 1_555
O67_3 C105_5 1_555 1_555
O73_3 C106_5 1_555 1_555
C108_5 C109_5 1_555 1_555
C109_5 C111_5 1_555 1_555
C110_5 C107_5 1_555 1_555
H46_5 C110_5 1_555 1_555
C111_5 H47_5 1_555 1_555
C112_5 C107_5 1_555 1_555
H48_5 C112_5 1_555 1_555
O33_5 C113_5 1_555 1_555
C113_5 O50_3 1_555 1_555
C114_5 C113_5 1_555 1_555
C115_5 C116_5 1_555 1_555
C116_5 C108_5 1_555 1_555
C117_5 C114_5 1_555 1_555
H49_5 C117_5 1_555 1_555
C118_5 C116_5 1_555 1_555
H50_5 C118_5 1_555 1_555
C119_5 C114_5 1_555 1_555
H51_5 C119_5 1_555 1_555
O35_5 C120_5 1_555 1_555
C120_5 O51_3 1_555 1_555
C121_5 C120_5 1_555 1_555
C122_5 C109_5 1_555 1_555
C123_5 C115_5 1_555 1_555
C124_5 C121_5 1_555 1_555
H52_5 C124_5 1_555 1_555
C125_5 C123_5 1_555 1_555
H53_5 C125_5 1_555 1_555
C126_5 C121_5 1_555 1_555
H54_5 C126_5 1_555 1_555
C127_5 O37_5 1_555 1_555
C128_5 C129_5 1_555 1_555
C129_5 H55_5 1_555 1_555
C130_5 H56_5 1_555 1_555
C131_5 C130_5 1_555 1_555
H57_5 C131_5 1_555 1_555
C132_5 C127_5 1_555 1_555
C133_5 C128_5 1_555 1_555
C134_5 C133_5 1_555 1_555
C135_5 C136_5 1_555 1_555
C136_5 H58_5 1_555 1_555
C137_5 C128_5 1_555 1_555
C138_5 C134_5 1_555 1_555
C139_5 C134_5 1_555 1_555
H59_5 C139_5 1_555 1_555
C140_5 C136_5 1_555 1_555
C141_5 C138_5 1_555 1_555
H60_5 C141_5 1_555 1_555
C142_5 C140_5 1_555 1_555
H61_5 C142_5 1_555 1_555
C143_5 C139_5 1_555 1_555
C144_5 C143_5 1_555 1_555
H62_5 C144_5 1_555 1_555
C145_5 C133_5 1_555 1_555
H63_5 C145_5 1_555 1_555
C146_5 C143_5 1_555 1_555
C147_5 C140_5 1_555 1_555
O56_3 C147_5 1_555 1_555
O68_3 C146_5 1_555 1_555
O74_3 C147_5 1_555 1_555
Cd15_2 O35_5 1_555 1_555
O43_5 Cd15_2 1_555 1_555
O44_5 Cd15_2 1_555 1_555
C148_5 O43_5 1_555 1_555
C149_5 C150_5 1_555 1_555
C150_5 H64_5 1_555 1_555
C151_5 H65_5 1_555 1_555
C152_5 C151_5 1_555 1_555
H66_5 C152_5 1_555 1_555
C153_5 C148_5 1_555 1_555
C154_5 C149_5 1_555 1_555
C155_5 C154_5 1_555 1_555
C156_5 C157_5 1_555 1_555
C157_5 H67_5 1_555 1_555
C158_5 C149_5 1_555 1_555
C159_5 C155_5 1_555 1_555
C160_5 C155_5 1_555 1_555
H68_5 C160_5 1_555 1_555
C161_5 C157_5 1_555 1_555
C162_5 C159_5 1_555 1_555
H69_5 C162_5 1_555 1_555
C163_5 C161_5 1_555 1_555
H70_5 C163_5 1_555 1_555
C164_5 C160_5 1_555 1_555
C165_5 C164_5 1_555 1_555
H71_5 C165_5 1_555 1_555
C166_5 C154_5 1_555 1_555
H72_5 C166_5 1_555 1_555
C167_5 C164_5 1_555 1_555
C168_5 C161_5 1_555 1_555
O69_3 C167_5 1_555 1_555
O75_3 C168_5 1_555 1_555
C3_5 C6_5 1_555 1_555
C4_5 C6_5 1_555 1_555
C5_5 C11_5 1_555 1_555
C18_5 C19_5 1_555 1_555
C24_5 C26_5 1_555 1_555
C27_5 C28_5 1_555 1_555
C31_5 C33_5 1_555 1_555
C34_5 C35_5 1_555 1_555
C38_5 C39_5 1_555 1_555
C38_5 C40_5 1_555 1_555
C41_5 C42_5 1_555 1_555
O14_5 C43_5 1_555 1_555
C45_5 C48_5 1_555 1_555
C46_5 C48_5 1_555 1_555
C47_5 C53_5 1_555 1_555
C60_5 C61_5 1_555 1_555
O20_5 C64_5 1_555 1_555
C66_5 C69_5 1_555 1_555
C67_5 C69_5 1_555 1_555
C68_5 C74_5 1_555 1_555
C81_5 C82_5 1_555 1_555
C87_5 C90_5 1_555 1_555
C88_5 C90_5 1_555 1_555
C89_5 C95_5 1_555 1_555
C93_5 C95_5 1_555 1_555
C93_5 C96_5 1_555 1_555
C99_5 C100_5 1_555 1_555
C102_5 C103_5 1_555 1_555
C105_5 O61_3 1_555 1_555
C108_5 C110_5 1_555 1_555
C111_5 C112_5 1_555 1_555
C115_5 C117_5 1_555 1_555
C118_5 C119_5 1_555 1_555
C122_5 C123_5 1_555 1_555
C122_5 C124_5 1_555 1_555
C125_5 C126_5 1_555 1_555
O38_5 C127_5 1_555 1_555
C129_5 C132_5 1_555 1_555
C130_5 C132_5 1_555 1_555
C131_5 C137_5 1_555 1_555
C135_5 C137_5 1_555 1_555
C135_5 C138_5 1_555 1_555
C141_5 C142_5 1_555 1_555
C144_5 C145_5 1_555 1_555
C146_5 O62_3 1_555 1_555
O44_5 C148_5 1_555 1_555
C150_5 C153_5 1_555 1_555
C151_5 C153_5 1_555 1_555
C152_5 C158_5 1_555 1_555
C156_5 C158_5 1_555 1_555
C156_5 C159_5 1_555 1_555
C162_5 C163_5 1_555 1_555
C165_5 C166_5 1_555 1_555
C167_5 O63_3 1_555 1_555
C168_5 O57_3 1_555 1_555
C9_5 C10_5 1_555 1_555
C10_5 H4_5 1_555 1_555
C12_5 C8_5 1_555 1_555
C13_5 C8_5 1_555 1_555
H5_5 C13_5 1_555 1_555
C14_5 C10_5 1_555 1_555
C15_5 C12_5 1_555 1_555
H6_5 C15_5 1_555 1_555
C16_5 C14_5 1_555 1_555
H7_5 C16_5 1_555 1_555
C17_5 C13_5 1_555 1_555
C21_5 C17_5 1_555 1_555
C22_5 C14_5 1_555 1_555
O52_2 C22_5 1_555 1_555
O58_2 C21_5 1_555 1_555
O64_2 C21_5 1_555 1_555
O70_2 C22_5 1_555 1_555
C51_5 C52_5 1_555 1_555
C52_5 H22_5 1_555 1_555
C54_5 C50_5 1_555 1_555
C55_5 C50_5 1_555 1_555
H23_5 C55_5 1_555 1_555
C56_5 C52_5 1_555 1_555
C57_5 C54_5 1_555 1_555
H24_5 C57_5 1_555 1_555
C58_5 C56_5 1_555 1_555
H25_5 C58_5 1_555 1_555
C59_5 C55_5 1_555 1_555
C62_5 C59_5 1_555 1_555
C63_5 C56_5 1_555 1_555
O53_2 C63_5 1_555 1_555
O59_2 C62_5 1_555 1_555
O65_2 C62_5 1_555 1_555
O71_2 C63_5 1_555 1_555
C72_5 C73_5 1_555 1_555
C73_5 H31_5 1_555 1_555
C75_5 C71_5 1_555 1_555
C76_5 C71_5 1_555 1_555
H32_5 C76_5 1_555 1_555
C77_5 C73_5 1_555 1_555
C78_5 C75_5 1_555 1_555
H33_5 C78_5 1_555 1_555
C79_5 C77_5 1_555 1_555
H34_5 C79_5 1_555 1_555
C80_5 C76_5 1_555 1_555
C83_5 C80_5 1_555 1_555
C84_5 C77_5 1_555 1_555
O54_2 C84_5 1_555 1_555
O60_2 C83_5 1_555 1_555
O66_2 C83_5 1_555 1_555
O72_2 C84_5 1_555 1_555
Cd16_6 O58_2 1_555 1_555
Cd17_7 O53_2 1_555 1_555
Cd18_4 O52_2 1_555 1_555
C9_5 C12_5 1_555 1_555
C15_5 C16_5 1_555 1_555
C51_5 C54_5 1_555 1_555
C57_5 C58_5 1_555 1_555
O59_2 Cd18_4 1_555 1_555
C72_5 C75_5 1_555 1_555
C78_5 C79_5 1_555 1_555
O54_2 Cd16_6 1_555 1_555
O60_2 Cd17_7 1_555 1_555
O34_2 Cd17_6 1_555 1_555
O36_2 Cd18_4 1_555 1_555
O28_2 Cd16_7 1_555 1_555
O9_6 C29_6 1_555 1_555
C29_6 O50_2 1_555 1_555
C30_6 C29_6 1_555 1_555
C33_6 C30_6 1_555 1_555
H13_6 C33_6 1_555 1_555
C35_6 C30_6 1_555 1_555
C39_6 C31_6 1_555 1_555
C41_6 C39_6 1_555 1_555
H17_6 C41_6 1_555 1_555
Cd11_2 O9_6 1_555 1_555
O13_6 Cd11_2 1_555 1_555
O14_6 Cd11_2 1_555 1_555
C43_6 O13_6 1_555 1_555
C44_6 C45_6 1_555 1_555
C45_6 H19_6 1_555 1_555
C46_6 H20_6 1_555 1_555
C47_6 C46_6 1_555 1_555
H21_6 C47_6 1_555 1_555
C48_6 C43_6 1_555 1_555
C49_6 C44_6 1_555 1_555
C50_6 C49_6 1_555 1_555
C51_6 C52_6 1_555 1_555
C52_6 H22_6 1_555 1_555
C53_6 C44_6 1_555 1_555
C54_6 C50_6 1_555 1_555
C55_6 C50_6 1_555 1_555
H23_6 C55_6 1_555 1_555
C56_6 C52_6 1_555 1_555
C57_6 C54_6 1_555 1_555
H24_6 C57_6 1_555 1_555
C58_6 C56_6 1_555 1_555
H25_6 C58_6 1_555 1_555
C59_6 C55_6 1_555 1_555
C60_6 C59_6 1_555 1_555
C61_6 C49_6 1_555 1_555
H27_6 C61_6 1_555 1_555
C63_6 C56_6 1_555 1_555
O56 C63_6 1_555 1_555
O74 C63_6 1_555 1_555
O63 C83_6 1_555 1_555
O69 C83_6 1_555 1_555
O33_6 C113_6 1_555 1_555
C113_6 O50 1_555 1_555
C114_6 C113_6 1_555 1_555
C117_6 C114_6 1_555 1_555
H49_6 C117_6 1_555 1_555
C119_6 C114_6 1_555 1_555
C123_6 C115_6 1_555 1_555
C125_6 C123_6 1_555 1_555
H53_6 C125_6 1_555 1_555
Cd11 O33_6 1_555 1_555
O37_6 Cd11 1_555 1_555
O38_6 Cd11 1_555 1_555
C127_6 O37_6 1_555 1_555
C128_6 C129_6 1_555 1_555
C129_6 H55_6 1_555 1_555
C130_6 H56_6 1_555 1_555
C131_6 C130_6 1_555 1_555
H57_6 C131_6 1_555 1_555
C132_6 C127_6 1_555 1_555
C133_6 C128_6 1_555 1_555
C134_6 C133_6 1_555 1_555
C135_6 C136_6 1_555 1_555
C136_6 H58_6 1_555 1_555
C137_6 C128_6 1_555 1_555
C138_6 C134_6 1_555 1_555
C139_6 C134_6 1_555 1_555
H59_6 C139_6 1_555 1_555
C140_6 C136_6 1_555 1_555
C141_6 C138_6 1_555 1_555
H60_6 C141_6 1_555 1_555
C142_6 C140_6 1_555 1_555
H61_6 C142_6 1_555 1_555
C143_6 C139_6 1_555 1_555
C144_6 C143_6 1_555 1_555
C145_6 C133_6 1_555 1_555
H63_6 C145_6 1_555 1_555
C147_6 C140_6 1_555 1_555
O56_2 C147_6 1_555 1_555
O74_2 C147_6 1_555 1_555
O69_2 C167_6 1_555 1_555
C31_6 C33_6 1_555 1_555
O14_6 C43_6 1_555 1_555
C45_6 C48_6 1_555 1_555
C46_6 C48_6 1_555 1_555
C47_6 C53_6 1_555 1_555
C51_6 C53_6 1_555 1_555
C51_6 C54_6 1_555 1_555
C57_6 C58_6 1_555 1_555
C60_6 C61_6 1_555 1_555
C115_6 C117_6 1_555 1_555
O38_6 C127_6 1_555 1_555
C129_6 C132_6 1_555 1_555
C130_6 C132_6 1_555 1_555
C131_6 C137_6 1_555 1_555
C135_6 C137_6 1_555 1_555
C135_6 C138_6 1_555 1_555
C141_6 C142_6 1_555 1_555
C144_6 C145_6 1_555 1_555
C167_6 O63_2 1_555 1_555
O11_6 C36_6 1_555 1_555
C36_6 O51_2 1_555 1_555
C37_6 C36_6 1_555 1_555
C40_6 C37_6 1_555 1_555
H16_6 C40_6 1_555 1_555
C42_6 C37_6 1_555 1_555
Cd12_2 O11_6 1_555 1_555
O19_6 Cd12_2 1_555 1_555
O20_6 Cd12_2 1_555 1_555
C64_6 O19_6 1_555 1_555
C65_6 C66_6 1_555 1_555
C66_6 H28_6 1_555 1_555
C67_6 H29_6 1_555 1_555
C68_6 C67_6 1_555 1_555
C69_6 C64_6 1_555 1_555
C70_6 C65_6 1_555 1_555
C71_6 C70_6 1_555 1_555
C74_6 C65_6 1_555 1_555
C75_6 C71_6 1_555 1_555
C76_6 C71_6 1_555 1_555
H32_6 C76_6 1_555 1_555
C78_6 C75_6 1_555 1_555
H33_6 C78_6 1_555 1_555
H34_6 C79_6 1_555 1_555
C80_6 C76_6 1_555 1_555
C81_6 C80_6 1_555 1_555
C82_6 C70_6 1_555 1_555
H36_6 C82_6 1_555 1_555
C94_6 H40_6 1_555 1_555
C98_6 C94_6 1_555 1_555
C106_6 C98_6 1_555 1_555
O55_2 C106_6 1_555 1_555
O73_2 C106_6 1_555 1_555
C118_6 C116_6 1_555 1_555
H50_6 C118_6 1_555 1_555
O68_2 C146_6 1_555 1_555
C38_6 C40_6 1_555 1_555
O20_6 C64_6 1_555 1_555
C66_6 C69_6 1_555 1_555
C67_6 C69_6 1_555 1_555
C68_6 C74_6 1_555 1_555
C72_6 C74_6 1_555 1_555
C72_6 C75_6 1_555 1_555
C78_6 C79_6 1_555 1_555
C81_6 C82_6 1_555 1_555
C146_6 O62_2 1_555 1_555
C10_6 H4_6 1_555 1_555
C14_6 C10_6 1_555 1_555
C22_6 C14_6 1_555 1_555
O55 C22_6 1_555 1_555
O73 C22_6 1_555 1_555
C34_6 C32_6 1_555 1_555
H14_6 C34_6 1_555 1_555
O62 C62_6 1_555 1_555
O68 C62_6 1_555 1_555
O35_6 C120_6 1_555 1_555
C120_6 O51 1_555 1_555
C121_6 C120_6 1_555 1_555
C124_6 C121_6 1_555 1_555
H52_6 C124_6 1_555 1_555
C126_6 C121_6 1_555 1_555
Cd12 O35_6 1_555 1_555
O43_6 Cd12 1_555 1_555
O44_6 Cd12 1_555 1_555
C148_6 O43_6 1_555 1_555
C149_6 C150_6 1_555 1_555
C150_6 H64_6 1_555 1_555
C151_6 H65_6 1_555 1_555
C152_6 C151_6 1_555 1_555
C153_6 C148_6 1_555 1_555
C154_6 C149_6 1_555 1_555
C155_6 C154_6 1_555 1_555
C158_6 C149_6 1_555 1_555
C159_6 C155_6 1_555 1_555
C160_6 C155_6 1_555 1_555
H68_6 C160_6 1_555 1_555
C162_6 C159_6 1_555 1_555
H69_6 C162_6 1_555 1_555
H70_6 C163_6 1_555 1_555
C164_6 C160_6 1_555 1_555
C165_6 C164_6 1_555 1_555
C166_6 C154_6 1_555 1_555
H72_6 C166_6 1_555 1_555
C122_6 C124_6 1_555 1_555
O44_6 C148_6 1_555 1_555
C150_6 C153_6 1_555 1_555
C151_6 C153_6 1_555 1_555
C152_6 C158_6 1_555 1_555
C156_6 C158_6 1_555 1_555
C156_6 C159_6 1_555 1_555
C162_6 C163_6 1_555 1_555
C165_6 C166_6 1_555 1_555
Cd10_2 O1_6 1_555 1_555
O1_6 C1_6 1_555 1_555
O2_6 Cd10_2 1_555 1_555
C1_6 O2_6 1_555 1_555
C2_6 C3_6 1_555 1_555
C3_6 H1_6 1_555 1_555
C4_6 H2_6 1_555 1_555
C5_6 C4_6 1_555 1_555
C6_6 C1_6 1_555 1_555
C7_6 C2_6 1_555 1_555
C8_6 C7_6 1_555 1_555
C11_6 C2_6 1_555 1_555
C12_6 C8_6 1_555 1_555
C13_6 C8_6 1_555 1_555
H5_6 C13_6 1_555 1_555
C15_6 C12_6 1_555 1_555
H6_6 C15_6 1_555 1_555
H7_6 C16_6 1_555 1_555
C17_6 C13_6 1_555 1_555
C18_6 C17_6 1_555 1_555
H8_6 C18_6 1_555 1_555
C19_6 C7_6 1_555 1_555
H9_6 C19_6 1_555 1_555
O3_6 Cd10_2 1_555 1_555
C20_6 O3_6 1_555 1_555
C21_6 C17_6 1_555 1_555
O49_2 C20_6 1_555 1_555
C23_6 C20_6 1_555 1_555
O61 C21_6 1_555 1_555
O67 C21_6 1_555 1_555
C24_6 C25_6 1_555 1_555
C25_6 C27_6 1_555 1_555
C26_6 C23_6 1_555 1_555
H10_6 C26_6 1_555 1_555
C27_6 H11_6 1_555 1_555
C28_6 C23_6 1_555 1_555
H12_6 C28_6 1_555 1_555
C73_6 H31_6 1_555 1_555
C77_6 C73_6 1_555 1_555
C84_6 C77_6 1_555 1_555
O57 C84_6 1_555 1_555
O75 C84_6 1_555 1_555
Cd10 O25_6 1_555 1_555
O25_6 C85_6 1_555 1_555
O26_6 Cd10 1_555 1_555
C85_6 O26_6 1_555 1_555
C86_6 C87_6 1_555 1_555
C87_6 H37_6 1_555 1_555
C88_6 H38_6 1_555 1_555
C89_6 C88_6 1_555 1_555
C90_6 C85_6 1_555 1_555
C91_6 C86_6 1_555 1_555
C92_6 C91_6 1_555 1_555
C95_6 C86_6 1_555 1_555
C96_6 C92_6 1_555 1_555
C97_6 C92_6 1_555 1_555
H41_6 C97_6 1_555 1_555
C99_6 C96_6 1_555 1_555
H42_6 C99_6 1_555 1_555
H43_6 C100_6 1_555 1_555
C101_6 C97_6 1_555 1_555
C102_6 C101_6 1_555 1_555
H44_6 C102_6 1_555 1_555
C103_6 C91_6 1_555 1_555
H45_6 C103_6 1_555 1_555
O27_6 Cd10 1_555 1_555
C104_6 O27_6 1_555 1_555
C105_6 C101_6 1_555 1_555
O49 C104_6 1_555 1_555
C107_6 C104_6 1_555 1_555
O67_2 C105_6 1_555 1_555
C108_6 C109_6 1_555 1_555
C109_6 C111_6 1_555 1_555
C110_6 C107_6 1_555 1_555
H46_6 C110_6 1_555 1_555
C111_6 H47_6 1_555 1_555
C112_6 C107_6 1_555 1_555
H48_6 C112_6 1_555 1_555
C157_6 H67_6 1_555 1_555
C161_6 C157_6 1_555 1_555
C168_6 C161_6 1_555 1_555
O75_2 C168_6 1_555 1_555
C3_6 C6_6 1_555 1_555
C4_6 C6_6 1_555 1_555
C5_6 C11_6 1_555 1_555
C9_6 C11_6 1_555 1_555
C9_6 C12_6 1_555 1_555
C15_6 C16_6 1_555 1_555
C18_6 C19_6 1_555 1_555
C24_6 C26_6 1_555 1_555
C27_6 C28_6 1_555 1_555
C87_6 C90_6 1_555 1_555
C88_6 C90_6 1_555 1_555
C89_6 C95_6 1_555 1_555
C93_6 C95_6 1_555 1_555
C93_6 C96_6 1_555 1_555
C99_6 C100_6 1_555 1_555
C102_6 C103_6 1_555 1_555
C105_6 O61_2 1_555 1_555
C108_6 C110_6 1_555 1_555
C111_6 C112_6 1_555 1_555
C168_6 O57_2 1_555 1_555

#END
