
###############################################################################
#
# This file contains modified crystal structure data generated from the
# MOF subset of the Cambridge Structural Database (CSD) v543 
# hosted by the Cambridge Crystallographic Data Centre (CCDC).
#
# This work is licensed under the Creative Commons
# Attribution-NonCommercial-ShareAlike 4.0 International License.
# To view a copy of this license, visit
# http://creativecommons.org/licenses/by-nc-sa/4.0/
# or send a letter to
# Creative Commons, PO Box 1866, Mountain View, CA 94042, USA.
#
# CIF created using the CSD Python API on 29 September 2022
# The structure has been converted into the P1 space group
# The structure has a 3D framework
# The original CSD entry PIJROR is in the monoclinic crystal system
# The framework has been calculated to contain at least 10.0% void space
# The void calculation uses a probe of radius 1.32A, grid spacing 0.4
#
###############################################################################

data_PIJROR
_chemical_formula_moiety         '(C96 H64 Ce4 N4 O27 S12)n'
_symmetry_cell_setting           triclinic
_symmetry_space_group_name_H-M   'P 1'
_symmetry_Int_Tables_number      1
_space_group_name_Hall           'P 1'
loop_
_symmetry_equiv_pos_site_id
_symmetry_equiv_pos_as_xyz
1 x,y,z
_cell_length_a                   23.293(6)
_cell_length_b                   16.237(4)
_cell_length_c                   8.172(2)
_cell_angle_alpha                90
_cell_angle_beta                 91.277(4)
_cell_angle_gamma                90
_cell_volume                     3089.95
loop_
_atom_site_label
_atom_site_type_symbol
_atom_site_fract_x
_atom_site_fract_y
_atom_site_fract_z
C2 C 0.2425(4) 0.0432(6) 0.0588(11)
H1 H 0.2162 0.0831 0.0974
C9 C 0.3114(4) 0.2974(6) 0.0113(12)
H4 H 0.3014 0.3486 0.0593
C10 C 0.2849(4) 0.2220(6) 0.0493(12)
H5 H 0.2549 0.2169 0.1255
O4 O 0.0032(3) 0.0085(4) 0.3418(9)
Ce4 Ce 0.43102(2) 0.51655(2) 0.10112(3)
C1 C 0.2928(4) 0.0690(6) 0.9826(12)
C6 C 0.3309(4) 0.0091(6) 0.9267(13)
H3 H 0.3655 0.0259 0.8771
C7 C 0.3065(4) 0.1577(6) 0.9664(12)
S1 S 0.35913(10) 0.18886(14) 0.8338(3)
C8 C 0.3528(4) 0.2885(6) 0.8983(12)
C11 C 0.3903(4) 0.3542(6) 0.8264(13)
O1 O 0.3891(3) 0.4255(4) 0.8896(8)
O2 O 0.4202(3) 0.3384(4) 0.7042(8)
Ce1 Ce 0.43102(2) 0.48345(2) 0.60112(3)
O7 O 0.3242(3) 0.4685(5) 0.6059(9)
C22 C 0.2882(5) 0.4835(6) 0.7165(14)
H10 H 0.2939 0.5305 0.7840
N1 N 0.2439(4) 0.4368(6) 0.7405(11)
C23 C 0.2007(6) 0.4601(11) 0.8637(17)
H11 H 0.2129 0.5109 0.9192
H12 H 0.1974 0.4158 0.9443
H13 H 0.1634 0.4690 0.8087
C24 C 0.2367(5) 0.3590(7) 0.6526(14)
H14 H 0.2609 0.3591 0.5559
H15 H 0.1964 0.3525 0.6181
H16 H 0.2480 0.3133 0.7246
O8 O 0.3891(3) 0.5745(4) 0.3896(8)
O9 O 0.5155(2) 0.4003(4) 0.5046(8)
O10 O 0.5032(3) 0.5085(4) 0.3418(9)
O11 O 0.5032(3) 0.4915(4) 0.8418(9)
O12 O 0.4604(3) 0.6344(4) 0.6506(8)
O13 O 0.3991(3) 0.5918(4) 0.8361(8)
O14 O 0.3991(3) 0.4082(4) 0.3361(8)
C3 C 0.2306(4) 0.9593(6) 0.0788(11)
C4 C 0.2686(4) 0.9020(6) 0.0176(12)
H2 H 0.2598 0.8451 0.0275
C12 C 0.1792(4) 0.9335(5) 0.1652(11)
S2 S 0.12223(11) 0.99823(15) 0.1969(3)
C13 C 0.0868(4) 0.9263(6) 0.3131(11)
C14 C 0.1181(4) 0.8534(6) 0.3236(12)
H6 H 0.1060 0.8062 0.3822
C15 C 0.1700(4) 0.8575(6) 0.2374(13)
H7 H 0.1959 0.8126 0.2298
C16 C 0.0328(4) 0.9448(5) 0.3902(12)
O3 O 0.0155(2) 0.9003(4) 0.5046(8)
C5 C 0.3190(4) 0.9248(6) 0.9422(12)
C17 C 0.3592(4) 0.8637(6) 0.8729(12)
S3 S 0.35383(10) 0.76087(14) 0.9197(3)
C18 C 0.4087(4) 0.7371(6) 0.7953(13)
C19 C 0.4313(4) 0.8052(6) 0.7223(12)
H8 H 0.4624 0.8036 0.6492
C20 C 0.4031(4) 0.8777(6) 0.7676(12)
H9 H 0.4133 0.9308 0.7293
C21 C 0.4243(4) 0.6506(5) 0.7589(11)
Ce6 Ce 0.93102(2) 0.01655(2) 0.10112(3)
Ce5 Ce 0.93102(2) 0.98345(2) 0.60112(3)
O3_2 O 0.0155(2) 0.0997(4) 0.0046(8)
C3_2 C 0.2306(4) 0.0407(6) 0.5788(11)
C4_2 C 0.2686(4) 0.0980(6) 0.5176(12)
H2_2 H 0.2598 0.1549 0.5275
C5_2 C 0.3190(4) 0.0752(6) 0.4422(12)
C12_2 C 0.1792(4) 0.0665(5) 0.6652(11)
S2_2 S 0.12223(11) 0.00177(15) 0.6969(3)
C13_2 C 0.0868(4) 0.0737(6) 0.8131(11)
C14_2 C 0.1181(4) 0.1466(6) 0.8236(12)
H6_2 H 0.1060 0.1938 0.8822
C15_2 C 0.1700(4) 0.1425(6) 0.7374(13)
H7_2 H 0.1959 0.1874 0.7298
C16_2 C 0.0328(4) 0.0552(5) 0.8902(12)
C17_2 C 0.3592(4) 0.1363(6) 0.3729(12)
S3_2 S 0.35383(10) 0.23913(14) 0.4197(3)
C18_2 C 0.4087(4) 0.2629(6) 0.2953(13)
C19_2 C 0.4313(4) 0.1948(6) 0.2223(12)
H8_2 H 0.4624 0.1964 0.1492
C20_2 C 0.4031(4) 0.1223(6) 0.2676(12)
H9_2 H 0.4133 0.0692 0.2293
C21_2 C 0.4243(4) 0.3494(5) 0.2589(11)
O5 O 0.4604(3) 0.3656(4) 0.1506(8)
C1_2 C 0.2928(4) 0.9310(6) 0.4826(12)
C2_2 C 0.2425(4) 0.9568(6) 0.5588(11)
H1_2 H 0.2162 0.9169 0.5974
C6_2 C 0.3309(4) 0.9909(6) 0.4267(13)
H3_2 H 0.3655 0.9741 0.3771
C7_2 C 0.3065(4) 0.8423(6) 0.4664(12)
S1_2 S 0.35913(10) 0.81114(14) 0.3338(3)
C8_2 C 0.3528(4) 0.7115(6) 0.3983(12)
C9_2 C 0.3114(4) 0.7026(6) 0.5113(12)
H4_2 H 0.3014 0.6514 0.5593
C10_2 C 0.2849(4) 0.7780(6) 0.5493(12)
H5_2 H 0.2549 0.7831 0.6255
C11_2 C 0.3903(4) 0.6458(6) 0.3264(13)
O2_2 O 0.4202(3) 0.6616(4) 0.2042(8)
O4_2 O 0.0032(3) 0.9915(4) 0.8418(9)
O7_2 O 0.3242(3) 0.5315(5) 0.1059(9)
C22_2 C 0.2882(5) 0.5165(6) 0.2165(14)
H10_2 H 0.2939 0.4695 0.2840
N1_2 N 0.2439(4) 0.5632(6) 0.2405(11)
C23_2 C 0.2007(6) 0.5399(11) 0.3637(17)
H11_2 H 0.2129 0.4891 0.4192
H12_2 H 0.1974 0.5842 0.4443
H13_2 H 0.1634 0.5310 0.3087
C24_2 C 0.2367(5) 0.6410(7) 0.1526(14)
H14_2 H 0.2609 0.6409 0.0559
H15_2 H 0.1964 0.6475 0.1181
H16_2 H 0.2480 0.6867 0.2246
O9_2 O 0.5155(2) 0.5997(4) 0.0046(8)
H10_3 H 0.7939 0.0305 0.7840
H11_3 H 0.7129 0.0109 0.9192
O8_2 O 0.8891(3) 0.0745(4) 0.3896(8)
O12_2 O 0.9604(3) 0.1344(4) 0.6506(8)
O13_2 O 0.8991(3) 0.0918(4) 0.8361(8)
C2_3 C 0.7425(4) 0.5432(6) 0.0588(11)
H1_3 H 0.7162 0.5831 0.0974
C3_3 C 0.7306(4) 0.4593(6) 0.0788(11)
C4_3 C 0.7686(4) 0.4020(6) 0.0176(12)
H2_3 H 0.7598 0.3451 0.0275
C9_3 C 0.8114(4) 0.7974(6) 0.0113(12)
H4_3 H 0.8014 0.8486 0.0593
C10_3 C 0.7849(4) 0.7220(6) 0.0493(12)
H5_3 H 0.7549 0.7169 0.1255
C12_3 C 0.6792(4) 0.4335(5) 0.1652(11)
S2_3 S 0.62223(11) 0.49823(15) 0.1969(3)
C13_3 C 0.5868(4) 0.4263(6) 0.3131(11)
C14_3 C 0.6181(4) 0.3534(6) 0.3236(12)
H6_3 H 0.6060 0.3062 0.3822
C15_3 C 0.6700(4) 0.3575(6) 0.2374(13)
H7_3 H 0.6959 0.3126 0.2298
C16_3 C 0.5328(4) 0.4448(5) 0.3902(12)
C1_3 C 0.7928(4) 0.5690(6) 0.9826(12)
C5_3 C 0.8190(4) 0.4248(6) 0.9422(12)
C6_3 C 0.8309(4) 0.5091(6) 0.9267(13)
H3_3 H 0.8655 0.5259 0.8771
C7_3 C 0.8065(4) 0.6577(6) 0.9664(12)
S1_3 S 0.85913(10) 0.68886(14) 0.8338(3)
C8_3 C 0.8528(4) 0.7885(6) 0.8983(12)
C11_3 C 0.8903(4) 0.8542(6) 0.8264(13)
O1_2 O 0.8891(3) 0.9255(4) 0.8896(8)
O2_3 O 0.9202(3) 0.8384(4) 0.7042(8)
C17_3 C 0.8592(4) 0.3637(6) 0.8729(12)
S3_3 S 0.85383(10) 0.26087(14) 0.9197(3)
C18_3 C 0.9087(4) 0.2371(6) 0.7953(13)
C19_3 C 0.9313(4) 0.3052(6) 0.7223(12)
H8_3 H 0.9624 0.3036 0.6492
C20_3 C 0.9031(4) 0.3777(6) 0.7676(12)
H9_3 H 0.9133 0.4308 0.7293
C21_3 C 0.9243(4) 0.1506(5) 0.7589(11)
O7_3 O 0.8242(3) 0.9685(5) 0.6059(9)
C22_3 C 0.7882(5) 0.9835(6) 0.7165(14)
N1_3 N 0.7439(4) 0.9368(6) 0.7405(11)
C23_3 C 0.7007(6) 0.9601(11) 0.8637(17)
H12_3 H 0.6974 0.9158 0.9443
H13_3 H 0.6634 0.9690 0.8087
C24_3 C 0.7367(5) 0.8590(7) 0.6526(14)
H14_3 H 0.7609 0.8591 0.5559
H15_3 H 0.6964 0.8525 0.6181
H16_3 H 0.7480 0.8133 0.7246
O14_2 O 0.8991(3) 0.9082(4) 0.3361(8)
C1_4 C 0.7928(4) 0.4310(6) 0.4826(12)
C2_4 C 0.7425(4) 0.4568(6) 0.5588(11)
H1_4 H 0.7162 0.4169 0.5974
C3_4 C 0.7306(4) 0.5407(6) 0.5788(11)
C4_4 C 0.7686(4) 0.5980(6) 0.5176(12)
H2_4 H 0.7598 0.6549 0.5275
C5_4 C 0.8190(4) 0.5752(6) 0.4422(12)
C6_4 C 0.8309(4) 0.4909(6) 0.4267(13)
H3_4 H 0.8655 0.4741 0.3771
C7_4 C 0.8065(4) 0.3423(6) 0.4664(12)
S1_4 S 0.85913(10) 0.31114(14) 0.3338(3)
C8_4 C 0.8528(4) 0.2115(6) 0.3983(12)
C9_4 C 0.8114(4) 0.2026(6) 0.5113(12)
H4_4 H 0.8014 0.1514 0.5593
C10_4 C 0.7849(4) 0.2780(6) 0.5493(12)
H5_4 H 0.7549 0.2831 0.6255
C11_4 C 0.8903(4) 0.1458(6) 0.3264(13)
O2_4 O 0.9202(3) 0.1616(4) 0.2042(8)
C12_4 C 0.6792(4) 0.5665(5) 0.6652(11)
S2_4 S 0.62223(11) 0.50177(15) 0.6969(3)
C13_4 C 0.5868(4) 0.5737(6) 0.8131(11)
C14_4 C 0.6181(4) 0.6466(6) 0.8236(12)
H6_4 H 0.6060 0.6938 0.8822
C15_4 C 0.6700(4) 0.6425(6) 0.7374(13)
H7_4 H 0.6959 0.6874 0.7298
C16_4 C 0.5328(4) 0.5552(5) 0.8902(12)
C17_4 C 0.8592(4) 0.6363(6) 0.3729(12)
S3_4 S 0.85383(10) 0.73913(14) 0.4197(3)
C18_4 C 0.9087(4) 0.7629(6) 0.2953(13)
C19_4 C 0.9313(4) 0.6948(6) 0.2223(12)
H8_4 H 0.9624 0.6964 0.1492
C20_4 C 0.9031(4) 0.6223(6) 0.2676(12)
H9_4 H 0.9133 0.5692 0.2293
C21_4 C 0.9243(4) 0.8494(5) 0.2589(11)
O5_2 O 0.9604(3) 0.8656(4) 0.1506(8)
O7_4 O 0.8242(3) 0.0315(5) 0.1059(9)
C22_4 C 0.7882(5) 0.0165(6) 0.2165(14)
N1_4 N 0.7439(4) 0.0632(6) 0.2405(11)
C23_4 C 0.7007(6) 0.0399(11) 0.3637(17)
H12_4 H 0.6974 0.0842 0.4443
H13_4 H 0.6634 0.0310 0.3087
C24_4 C 0.7367(5) 0.1410(7) 0.1526(14)
H14_4 H 0.7609 0.1409 0.0559
H15_4 H 0.6964 0.1475 0.1181
H16_4 H 0.7480 0.1867 0.2246
H10_4 H 0.7939 0.9695 0.2840
H11_4 H 0.7129 0.9891 0.4192
loop_
_geom_bond_atom_site_label_1
_geom_bond_atom_site_label_2
_geom_bond_site_symmetry_1
_geom_bond_site_symmetry_2
C2 H1 1_555 1_555
H4 C9 1_555 1_555
H5 C10 1_555 1_555
C9 C10 1_555 1_555
C6 C1 1_555 1_555
H3 C6 1_555 1_555
C7 C1 1_555 1_555
S1 C7 1_555 1_555
C8 S1 1_555 1_555
C11 C8 1_555 1_555
O1 C11 1_555 1_555
O2 C11 1_555 1_555
Ce1 O1 1_555 1_555
O7 Ce1 1_555 1_555
C22 O7 1_555 1_555
H10 C22 1_555 1_555
N1 C22 1_555 1_555
C23 N1 1_555 1_555
H11 C23 1_555 1_555
H12 C23 1_555 1_555
H13 C23 1_555 1_555
C24 N1 1_555 1_555
H14 C24 1_555 1_555
H15 C24 1_555 1_555
H16 C24 1_555 1_555
O8 Ce1 1_555 1_555
O9 Ce1 1_555 1_555
O10 Ce1 1_555 1_555
O11 Ce1 1_555 1_555
O12 Ce1 1_555 1_555
O13 Ce1 1_555 1_555
O14 Ce1 1_555 1_555
O2 Ce1 1_555 1_555
C4 C3 1_555 1_555
H2 C4 1_555 1_555
C12 C3 1_555 1_555
S2 C12 1_555 1_555
C13 S2 1_555 1_555
C14 C13 1_555 1_555
H6 C14 1_555 1_555
C15 C12 1_555 1_555
H7 C15 1_555 1_555
C16 C13 1_555 1_555
O3 C16 1_555 1_555
C14 C15 1_555 1_555
C17 C5 1_555 1_555
S3 C17 1_555 1_555
C18 S3 1_555 1_555
C19 C18 1_555 1_555
H8 C19 1_555 1_555
C20 C17 1_555 1_555
H9 C20 1_555 1_555
C21 C18 1_555 1_555
O12 C21 1_555 1_555
O13 C21 1_555 1_555
C19 C20 1_555 1_555
C4_2 C3_2 1_555 1_555
H2_2 C4_2 1_555 1_555
C5_2 C4_2 1_555 1_555
C12_2 C3_2 1_555 1_555
S2_2 C12_2 1_555 1_555
C13_2 S2_2 1_555 1_555
C14_2 C13_2 1_555 1_555
H6_2 C14_2 1_555 1_555
C15_2 C12_2 1_555 1_555
H7_2 C15_2 1_555 1_555
C16_2 C13_2 1_555 1_555
C17_2 C5_2 1_555 1_555
S3_2 C17_2 1_555 1_555
C18_2 S3_2 1_555 1_555
C19_2 C18_2 1_555 1_555
H8_2 C19_2 1_555 1_555
C20_2 C17_2 1_555 1_555
H9_2 C20_2 1_555 1_555
C21_2 C18_2 1_555 1_555
O5 C21_2 1_555 1_555
O14 C21_2 1_555 1_555
Ce4 O5 1_555 1_555
C14_2 C15_2 1_555 1_555
C19_2 C20_2 1_555 1_555
O14 Ce4 1_555 1_555
C1_2 C2_2 1_555 1_555
C2_2 H1_2 1_555 1_555
C6_2 C1_2 1_555 1_555
H3_2 C6_2 1_555 1_555
C7_2 C1_2 1_555 1_555
S1_2 C7_2 1_555 1_555
C8_2 S1_2 1_555 1_555
C9_2 C8_2 1_555 1_555
H4_2 C9_2 1_555 1_555
C10_2 C7_2 1_555 1_555
H5_2 C10_2 1_555 1_555
C11_2 C8_2 1_555 1_555
O8 C11_2 1_555 1_555
O2_2 C11_2 1_555 1_555
Ce4 O8 1_555 1_555
O7_2 Ce4 1_555 1_555
C22_2 O7_2 1_555 1_555
H10_2 C22_2 1_555 1_555
N1_2 C22_2 1_555 1_555
C23_2 N1_2 1_555 1_555
H11_2 C23_2 1_555 1_555
H12_2 C23_2 1_555 1_555
H13_2 C23_2 1_555 1_555
C24_2 N1_2 1_555 1_555
H14_2 C24_2 1_555 1_555
H15_2 C24_2 1_555 1_555
H16_2 C24_2 1_555 1_555
O9_2 Ce4 1_555 1_555
O10 Ce4 1_555 1_555
C9_2 C10_2 1_555 1_555
O2_2 Ce4 1_555 1_555
C2_3 H1_3 1_555 1_555
C3_3 C2_3 1_555 1_555
C4_3 C3_3 1_555 1_555
H2_3 C4_3 1_555 1_555
H4_3 C9_3 1_555 1_555
H5_3 C10_3 1_555 1_555
C12_3 C3_3 1_555 1_555
S2_3 C12_3 1_555 1_555
C13_3 S2_3 1_555 1_555
C14_3 C13_3 1_555 1_555
H6_3 C14_3 1_555 1_555
C15_3 C12_3 1_555 1_555
H7_3 C15_3 1_555 1_555
C16_3 C13_3 1_555 1_555
O9 C16_3 1_555 1_555
O10 C16_3 1_555 1_555
C9_3 C10_3 1_555 1_555
C14_3 C15_3 1_555 1_555
C6_3 C1_3 1_555 1_555
H3_3 C6_3 1_555 1_555
C7_3 C1_3 1_555 1_555
S1_3 C7_3 1_555 1_555
C8_3 S1_3 1_555 1_555
C11_3 C8_3 1_555 1_555
O1_2 C11_3 1_555 1_555
O2_3 C11_3 1_555 1_555
Ce5 O1_2 1_555 1_555
C17_3 C5_3 1_555 1_555
S3_3 C17_3 1_555 1_555
C18_3 S3_3 1_555 1_555
C19_3 C18_3 1_555 1_555
H8_3 C19_3 1_555 1_555
C20_3 C17_3 1_555 1_555
H9_3 C20_3 1_555 1_555
C21_3 C18_3 1_555 1_555
O12_2 C21_3 1_555 1_555
O13_2 C21_3 1_555 1_555
O7_3 Ce5 1_555 1_555
C22_3 O7_3 1_555 1_555
N1_3 C22_3 1_555 1_555
C23_3 N1_3 1_555 1_555
H12_3 C23_3 1_555 1_555
H13_3 C23_3 1_555 1_555
C24_3 N1_3 1_555 1_555
H14_3 C24_3 1_555 1_555
H15_3 C24_3 1_555 1_555
H16_3 C24_3 1_555 1_555
O14_2 Ce5 1_555 1_555
C5_3 C6_3 1_555 1_555
O2_3 Ce5 1_555 1_555
C19_3 C20_3 1_555 1_555
C1_4 C2_4 1_555 1_555
C2_4 H1_4 1_555 1_555
C3_4 C2_4 1_555 1_555
C4_4 C3_4 1_555 1_555
H2_4 C4_4 1_555 1_555
C5_4 C4_4 1_555 1_555
C6_4 C1_4 1_555 1_555
H3_4 C6_4 1_555 1_555
C7_4 C1_4 1_555 1_555
S1_4 C7_4 1_555 1_555
C8_4 S1_4 1_555 1_555
C9_4 C8_4 1_555 1_555
H4_4 C9_4 1_555 1_555
C10_4 C7_4 1_555 1_555
H5_4 C10_4 1_555 1_555
C11_4 C8_4 1_555 1_555
O8_2 C11_4 1_555 1_555
O2_4 C11_4 1_555 1_555
Ce6 O8_2 1_555 1_555
C12_4 C3_4 1_555 1_555
S2_4 C12_4 1_555 1_555
C13_4 S2_4 1_555 1_555
C14_4 C13_4 1_555 1_555
H6_4 C14_4 1_555 1_555
C15_4 C12_4 1_555 1_555
H7_4 C15_4 1_555 1_555
C16_4 C13_4 1_555 1_555
O11 C16_4 1_555 1_555
C17_4 C5_4 1_555 1_555
S3_4 C17_4 1_555 1_555
C18_4 S3_4 1_555 1_555
C19_4 C18_4 1_555 1_555
H8_4 C19_4 1_555 1_555
C20_4 C17_4 1_555 1_555
H9_4 C20_4 1_555 1_555
C21_4 C18_4 1_555 1_555
O5_2 C21_4 1_555 1_555
O14_2 C21_4 1_555 1_555
O7_4 Ce6 1_555 1_555
C22_4 O7_4 1_555 1_555
N1_4 C22_4 1_555 1_555
C23_4 N1_4 1_555 1_555
H12_4 C23_4 1_555 1_555
H13_4 C23_4 1_555 1_555
C24_4 N1_4 1_555 1_555
H14_4 C24_4 1_555 1_555
H15_4 C24_4 1_555 1_555
H16_4 C24_4 1_555 1_555
C5_4 C6_4 1_555 1_555
C9_4 C10_4 1_555 1_555
O2_4 Ce6 1_555 1_555
C14_4 C15_4 1_555 1_555
C19_4 C20_4 1_555 1_555

#END
