
###############################################################################
#
# This file contains modified crystal structure data generated from the
# MOF subset of the Cambridge Structural Database (CSD) v543 
# hosted by the Cambridge Crystallographic Data Centre (CCDC).
#
# This work is licensed under the Creative Commons
# Attribution-NonCommercial-ShareAlike 4.0 International License.
# To view a copy of this license, visit
# http://creativecommons.org/licenses/by-nc-sa/4.0/
# or send a letter to
# Creative Commons, PO Box 1866, Mountain View, CA 94042, USA.
#
# CIF created using the CSD Python API on 29 September 2022
# The structure has been converted into the P1 space group
# The structure has a 3D framework
# The original CSD entry PIKYAM is in the orthorhombic crystal system
# The framework has been calculated to contain at least 10.0% void space
# The void calculation uses a probe of radius 1.32A, grid spacing 0.4
# H atom positions have been added when not included in the experimental data
#
###############################################################################

data_PIKYAM
_chemical_formula_moiety         '(C672 H472 Cd28 N8 O120)n'
_symmetry_cell_setting           triclinic
_symmetry_space_group_name_H-M   'P 1'
_symmetry_Int_Tables_number      1
_space_group_name_Hall           'P 1'
loop_
_symmetry_equiv_pos_site_id
_symmetry_equiv_pos_as_xyz
1 x,y,z
_cell_length_a                   17.1330(2)
_cell_length_b                   42.5330(3)
_cell_length_c                   33.8993(3)
_cell_angle_alpha                90
_cell_angle_beta                 90
_cell_angle_gamma                90
_cell_volume                     24703
loop_
_atom_site_label
_atom_site_type_symbol
_atom_site_fract_x
_atom_site_fract_y
_atom_site_fract_z
H25 H 0.020309 0.519793 0.386359
C36 C 0.00155(19) 0.56411(7) 0.36776(10)
H27 H 0.051458 0.567176 0.357680
C41 C 0.00557(18) 0.67836(7) 0.31615(10)
C42 C 0.0577(3) 0.65489(9) 0.31690(17)
H30 H 0.108003 0.658387 0.307563
C43 C 0.0378(3) 0.62541(9) 0.33141(19)
H31 H 0.074684 0.609398 0.330285
C44 C 0.02622(19) 0.71040(7) 0.30155(9)
H33 H 0.018573 0.407646 0.419155
C52 C 0.0298(2) 0.36289(7) 0.36420(11)
H36 H 0.063429 0.370005 0.383802
C53 C 0.0416(2) 0.33338(8) 0.34768(11)
H37 H 0.083162 0.321129 0.356353
C57 C 0.0035(2) 0.28944(7) 0.30229(10)
Cd1 Cd -0.000000 0.23782(2) 0.250000
Cd2 Cd 0.000000 0.76477(2) 0.250000
O9 O 0.09743(13) 0.71693(5) 0.29609(7)
O10 O 0.06943(15) 0.27648(5) 0.30592(7)
C125 C 0.1532(2) 0.47382(7) 0.01435(9)
C126 C 0.2058(2) 0.45188(8) 0.02843(12)
H85 H 0.231150 0.455426 0.052270
C127 C 0.2212(3) 0.42442(9) 0.00716(13)
H86 H 0.257963 0.410227 0.016657
C128 C 0.13349(19) 0.50291(7) 0.03702(10)
C131 C 0.1469(2) 0.53305(7) 0.01556(9)
C132 C 0.0908(2) 0.55660(7) 0.01407(10)
H89 H 0.043397 0.553707 0.026925
C142 C 0.1046(2) 0.50160(6) 0.07412(10)
C143 C 0.08994(19) 0.53034(6) 0.09777(9)
C144 C 0.1464(2) 0.55353(7) 0.10264(10)
H95 H 0.196802 0.550112 0.093386
C145 C 0.0170(2) 0.53567(7) 0.11444(9)
C146 C 0.1283(2) 0.58184(7) 0.12125(10)
H97 H 0.167126 0.596917 0.124388
C148 C 0.0534(2) 0.58810(6) 0.13525(9)
C149 C 0.03320(19) 0.61905(7) 0.15285(9)
C150 C 0.0866(3) 0.64272(10) 0.1552(2)
H99 H 0.137040 0.639240 0.146104
C151 C 0.0675(3) 0.67192(10) 0.1708(2)
H100 H 0.105675 0.687406 0.172238
C156 C 0.08312(19) 0.47119(6) 0.09331(9)
C157 C 0.0324(2) 0.44988(8) 0.07579(11)
H103 H 0.009572 0.454838 0.051681
C158 C 0.0152(2) 0.42149(8) 0.09349(12)
C159 C 0.04700(18) 0.41300(6) 0.12974(9)
C160 C 0.0955(2) 0.43500(8) 0.14796(11)
H105 H 0.117302 0.430325 0.172381
C161 C 0.1117(2) 0.46368(8) 0.13041(11)
H106 H 0.142353 0.478218 0.143799
C162 C 0.03142(19) 0.38196(7) 0.14808(9)
C165 C 0.00696(19) 0.32192(7) 0.18126(10)
C166 C 0.0662(2) 0.34122(8) 0.19475(12)
H109 H 0.098485 0.334359 0.215075
C167 C 0.0782(2) 0.37077(8) 0.17825(12)
H110 H 0.118492 0.383301 0.187723
O27 O 0.02955(14) 0.72919(5) 0.20517(8)
O30 O 0.05308(15) 0.27733(5) 0.21528(8)
Cd12 Cd 0.12977(2) 0.23943(2) 0.34309(2)
Cd18 Cd 0.15927(2) 0.75284(2) 0.33353(2)
O42 O 0.08474(13) 0.20253(5) 0.29793(8)
O44 O 0.09223(14) 0.20291(5) 0.23278(8)
O46 O 0.08238(14) 0.80188(5) 0.22499(7)
O49 O 0.11162(13) 0.78935(5) 0.28640(7)
C112 C 0.2711(2) 0.22471(12) 0.69469(12)
H72 H 0.221812 0.218170 0.684013
H73 H 0.300635 0.206540 0.702415
H74 H 0.299550 0.236251 0.675054
C113 C 0.2139(2) 0.27360(11) 0.72283(12)
H75 H 0.239932 0.286217 0.703381
H76 H 0.210380 0.285110 0.747125
H77 H 0.162399 0.268471 0.713738
C114 C 0.2846(2) 0.23705(8) 0.76399(11)
H78 H 0.314187 0.218799 0.765950
C115 C 0.2412(2) 0.30346(7) 0.88415(10)
C116 C 0.2253(2) 0.33294(7) 0.90760(10)
C117 C 0.1513(3) 0.34439(10) 0.91230(15)
H79 H 0.109569 0.333444 0.901418
C118 C 0.1372(2) 0.37184(9) 0.93286(15)
H80 H 0.086346 0.379209 0.935217
C119 C 0.1973(2) 0.38846(7) 0.94991(10)
C120 C 0.2710(3) 0.37672(11) 0.9458(2)
H81 H 0.312701 0.386922 0.957830
C121 C 0.2843(3) 0.34939(11) 0.92368(19)
H82 H 0.335225 0.342461 0.920021
C122 C 0.1825(2) 0.41800(7) 0.97205(10)
C123 C 0.1307(2) 0.44033(8) 0.95776(10)
H83 H 0.104827 0.436733 0.934077
C124 C 0.1171(2) 0.46805(7) 0.97844(10)
H84 H 0.083156 0.482960 0.968011
C129 C 0.2166(2) 0.53815(8) 0.99559(10)
H87 H 0.254731 0.522566 0.995611
C130 C 0.2304(2) 0.56607(8) 0.97562(11)
H88 H 0.277982 0.569005 0.962969
C133 C 0.1043(2) 0.58434(7) 0.99375(10)
H90 H 0.065559 0.599658 0.993208
C134 C 0.1744(2) 0.58986(7) 0.97409(9)
C135 C 0.1890(2) 0.61956(7) 0.95201(10)
C136 C 0.2442(3) 0.62136(8) 0.92236(12)
H91 H 0.273199 0.603567 0.916126
C137 C 0.2574(3) 0.64888(8) 0.90174(12)
H92 H 0.295667 0.649409 0.882282
C138 C 0.2141(2) 0.67576(7) 0.90978(10)
C139 C 0.1577(2) 0.67420(8) 0.93867(11)
H93 H 0.127122 0.691751 0.943973
C140 C 0.1460(2) 0.64667(8) 0.96002(11)
H94 H 0.108889 0.646339 0.980009
C141 C 0.2247(2) 0.70529(7) 0.88566(9)
Cd5 Cd 0.37023(2) 0.26057(2) 0.84309(2)
Cd6 Cd 0.34073(2) 0.74716(2) 0.83353(2)
N2 N 0.25783(18) 0.24485(7) 0.72926(9)
O20 O 0.27271(13) 0.25277(5) 0.79517(7)
O21 O 0.4825(2) 0.26590(10) 0.87844(10)
O22 O 0.18474(17) 0.28644(6) 0.87514(8)
O23 O 0.31214(17) 0.29861(5) 0.87569(8)
O24 O 0.28701(17) 0.70733(5) 0.86620(7)
O25 O 0.17062(16) 0.72483(5) 0.88679(7)
O26 O 0.4495(2) 0.73671(9) 0.86994(11)
Cd13 Cd 0.12977(2) 0.76057(2) 0.84309(2)
Cd19 Cd 0.15927(2) 0.24716(2) 0.83353(2)
O31 O 0.22729(13) 0.75277(5) 0.79517(7)
O33 O 0.31526(17) 0.78644(6) 0.87514(8)
O35 O 0.32938(16) 0.22483(5) 0.88679(7)
O37 O 0.40257(13) 0.78307(5) 0.79609(7)
O39 O 0.43057(15) 0.22352(5) 0.80592(7)
O43 O 0.41526(13) 0.29747(5) 0.79793(8)
O50 O 0.38838(13) 0.71065(5) 0.78640(7)
H111 H 0.514633 0.283003 0.86687
H112 H 0.469589 0.271153 0.906226
H113 H 0.46714 0.714875 0.864643
H114 H 0.49157 0.751673 0.862626
C1 C 0.7289(2) 0.22471(12) 0.80531(12)
H1 H 0.778188 0.218170 0.815987
H2 H 0.699365 0.206540 0.797585
H3 H 0.700450 0.236251 0.824946
C2 C 0.7861(2) 0.27360(11) 0.77717(12)
H4 H 0.760068 0.286217 0.796619
H5 H 0.789620 0.285110 0.752875
H6 H 0.837601 0.268471 0.786262
C3 C 0.7154(2) 0.23705(8) 0.73601(11)
H7 H 0.685813 0.218799 0.734050
C4 C 0.7588(2) 0.30346(7) 0.61585(10)
C5 C 0.7747(2) 0.33294(7) 0.59240(10)
C6 C 0.8487(3) 0.34439(10) 0.58770(15)
H8 H 0.890431 0.333444 0.598582
C7 C 0.8628(2) 0.37184(9) 0.56714(15)
H9 H 0.913654 0.379209 0.564783
C8 C 0.8027(2) 0.38846(7) 0.55009(10)
C9 C 0.7290(3) 0.37672(11) 0.5542(2)
H10 H 0.687299 0.386922 0.542170
C10 C 0.7157(3) 0.34939(11) 0.57632(19)
H11 H 0.664775 0.342461 0.579979
C11 C 0.8175(2) 0.41800(7) 0.52795(10)
C12 C 0.8693(2) 0.44033(8) 0.54224(10)
H12 H 0.895173 0.436733 0.565923
C13 C 0.8829(2) 0.46805(7) 0.52156(10)
H13 H 0.916844 0.482960 0.531989
C14 C 0.8468(2) 0.47382(7) 0.48565(9)
C15 C 0.7942(2) 0.45188(8) 0.47157(12)
H14 H 0.768850 0.455426 0.447730
C16 C 0.7788(3) 0.42442(9) 0.49284(13)
H15 H 0.742037 0.410227 0.483343
C17 C 0.86651(19) 0.50291(7) 0.46298(10)
C18 C 0.7834(2) 0.53815(8) 0.50441(10)
H16 H 0.745269 0.522566 0.504389
C19 C 0.7696(2) 0.56607(8) 0.52438(11)
H17 H 0.722018 0.569005 0.537031
C20 C 0.8531(2) 0.53305(7) 0.48444(9)
C21 C 0.9092(2) 0.55660(7) 0.48593(10)
H18 H 0.956603 0.553707 0.473075
C22 C 0.8957(2) 0.58434(7) 0.50625(10)
H19 H 0.934441 0.599658 0.506792
C23 C 0.8256(2) 0.58986(7) 0.52591(9)
C24 C 0.8110(2) 0.61956(7) 0.54799(10)
C25 C 0.7558(3) 0.62136(8) 0.57764(12)
H20 H 0.726801 0.603567 0.583874
C26 C 0.7426(3) 0.64888(8) 0.59826(12)
H21 H 0.704333 0.649409 0.617718
C27 C 0.7859(2) 0.67576(7) 0.59022(10)
C28 C 0.8423(2) 0.67420(8) 0.56133(11)
H22 H 0.872878 0.691751 0.556027
C29 C 0.8540(2) 0.64667(8) 0.53998(11)
H23 H 0.891111 0.646339 0.519991
C30 C 0.7753(2) 0.70529(7) 0.61434(9)
C31 C 0.8954(2) 0.50160(6) 0.42588(10)
C32 C 0.91006(19) 0.53034(6) 0.40223(9)
C33 C 0.8536(2) 0.55353(7) 0.39736(10)
H24 H 0.803198 0.550112 0.406614
C34 C 0.9830(2) 0.53567(7) 0.38556(9)
C35 C 0.8717(2) 0.58184(7) 0.37875(10)
H26 H 0.832874 0.596917 0.375612
C37 C 0.9466(2) 0.58810(6) 0.36475(9)
C38 C 0.96680(19) 0.61905(7) 0.34715(9)
C39 C 0.9134(3) 0.64272(10) 0.3448(2)
H28 H 0.862960 0.639240 0.353896
C40 C 0.9325(3) 0.67192(10) 0.3292(2)
H29 H 0.894325 0.687406 0.327762
C45 C 0.91688(19) 0.47119(6) 0.40669(9)
C46 C 0.9676(2) 0.44988(8) 0.42421(11)
H32 H 0.990428 0.454838 0.448319
C47 C 0.9848(2) 0.42149(8) 0.40651(12)
C48 C 0.95300(18) 0.41300(6) 0.37026(9)
C49 C 0.9045(2) 0.43500(8) 0.35204(11)
H34 H 0.882698 0.430325 0.327619
C50 C 0.8883(2) 0.46368(8) 0.36959(11)
H35 H 0.857647 0.478218 0.356201
C51 C 0.96858(19) 0.38196(7) 0.35192(9)
C54 C 0.99304(19) 0.32192(7) 0.31874(10)
C55 C 0.9338(2) 0.34122(8) 0.30525(12)
H38 H 0.901515 0.334359 0.284925
C56 C 0.9218(2) 0.37077(8) 0.32175(12)
H39 H 0.881508 0.383301 0.312277
C58 C 0.8889(2) 0.19131(7) 0.23407(12)
C59 C 0.8084(2) 0.15091(7) 0.19872(11)
H40 H 0.822856 0.159857 0.174776
C60 C 0.8362(2) 0.16352(7) 0.23354(12)
C61 C 0.8138(3) 0.14970(9) 0.26905(12)
H41 H 0.831929 0.157959 0.292744
C62 C 0.7648(3) 0.12376(9) 0.26943(13)
H42 H 0.750810 0.114763 0.293417
C63 C 0.7359(2) 0.11088(8) 0.23429(11)
C64 C 0.7588(2) 0.12487(7) 0.19909(11)
H43 H 0.740697 0.116721 0.175328
C65 C 0.6833(2) 0.08338(7) 0.23578(11)
C66 C 0.6322(3) 0.07950(9) 0.26728(13)
H44 H 0.629713 0.095044 0.286531
C67 C 0.5848(2) 0.05324(9) 0.27097(13)
H45 H 0.552772 0.051142 0.292979
C68 C 0.58450(19) 0.03014(7) 0.24227(10)
C69 C 0.63372(19) 0.03431(7) 0.21018(10)
H46 H 0.634143 0.019248 0.190294
C70 C 0.68208(18) 0.06015(7) 0.20687(10)
H47 H 0.714377 0.062056 0.184955
C84 C 0.5388(2) 0.00039(7) 0.24583(10)
Cd1_2 Cd 1.000000 0.23782(2) 0.250000
Cd2_2 Cd 1.000000 0.76477(2) 0.250000
Cd3 Cd 0.62977(2) 0.26057(2) 0.65691(2)
Cd4 Cd 0.65927(2) 0.74716(2) 0.66647(2)
N1 N 0.74217(18) 0.24485(7) 0.77074(9)
O1 O 0.72729(13) 0.25277(5) 0.70483(7)
O2 O 0.5175(2) 0.26590(10) 0.62156(10)
O3 O 0.81526(17) 0.28644(6) 0.62486(8)
O4 O 0.68786(17) 0.29861(5) 0.62431(8)
O5 O 0.71299(17) 0.70733(5) 0.63380(7)
O6 O 0.82938(16) 0.72483(5) 0.61321(7)
O7 O 0.5505(2) 0.73671(9) 0.63006(11)
O8 O 0.97045(14) 0.72919(5) 0.29483(8)
O11 O 0.94692(15) 0.27733(5) 0.28472(8)
O12 O 0.91526(13) 0.20253(5) 0.20207(8)
O13 O 0.90777(14) 0.20291(5) 0.26722(8)
C85 C 0.1111(2) 0.19131(7) 0.26593(12)
C86 C 0.1916(2) 0.15091(7) 0.30128(11)
H56 H 0.177144 0.159857 0.325224
C87 C 0.1638(2) 0.16352(7) 0.26646(12)
C88 C 0.1862(3) 0.14970(9) 0.23095(12)
H57 H 0.168071 0.157959 0.207256
C89 C 0.2352(3) 0.12376(9) 0.23057(13)
H58 H 0.249190 0.114763 0.206583
C90 C 0.2641(2) 0.11088(8) 0.26571(11)
C91 C 0.2412(2) 0.12487(7) 0.30091(11)
H59 H 0.259303 0.116721 0.324672
C92 C 0.3167(2) 0.08338(7) 0.26422(11)
C93 C 0.3678(3) 0.07950(9) 0.23272(13)
H60 H 0.370287 0.095044 0.213469
C94 C 0.4152(2) 0.05324(9) 0.22903(13)
H61 H 0.447228 0.051142 0.207021
C95 C 0.41550(19) 0.03014(7) 0.25773(10)
C96 C 0.36628(19) 0.03431(7) 0.28982(10)
H62 H 0.365857 0.019248 0.309706
C97 C 0.31792(18) 0.06015(7) 0.29313(10)
H63 H 0.285623 0.062056 0.315045
C111 C 0.4612(2) 0.00039(7) 0.25417(10)
H96 H 0.979691 0.519793 0.113641
C147 C 0.99845(19) 0.56411(7) 0.13224(10)
H98 H 0.948542 0.567176 0.142320
C152 C 0.99443(18) 0.67836(7) 0.18385(10)
C153 C 0.9423(3) 0.65489(9) 0.18310(17)
H101 H 0.891997 0.658387 0.192437
C154 C 0.9622(3) 0.62541(9) 0.16859(19)
H102 H 0.925316 0.609398 0.169715
C155 C 0.97378(19) 0.71040(7) 0.19845(9)
H104 H 0.981427 0.407646 0.080845
C163 C 0.9702(2) 0.36289(7) 0.13580(11)
H107 H 0.936571 0.370005 0.116198
C164 C 0.9584(2) 0.33338(8) 0.15232(11)
H108 H 0.916838 0.321129 0.143647
C168 C 0.9965(2) 0.28944(7) 0.19771(10)
O28 O 0.90257(13) 0.71693(5) 0.20391(7)
O29 O 0.93057(15) 0.27648(5) 0.19408(7)
Cd10 Cd 0.87023(2) 0.23943(2) 0.15691(2)
Cd14 Cd 0.87023(2) 0.76057(2) 0.65691(2)
Cd16 Cd 0.84073(2) 0.75284(2) 0.16647(2)
Cd20 Cd 0.84073(2) 0.24716(2) 0.66647(2)
O32 O 0.77271(13) 0.75277(5) 0.70483(7)
O34 O 0.68474(17) 0.78644(6) 0.62486(8)
O36 O 0.67062(16) 0.22483(5) 0.61321(7)
O38 O 0.59743(13) 0.78307(5) 0.70391(7)
O40 O 0.56943(15) 0.22352(5) 0.69408(7)
O41 O 0.58474(13) 0.29747(5) 0.70207(8)
O45 O 0.91762(14) 0.80188(5) 0.27501(7)
O47 O 0.88838(13) 0.78935(5) 0.21360(7)
O48 O 0.61162(13) 0.71065(5) 0.71360(7)
H115 H 0.53286 0.714875 0.635357
H116 H 0.50843 0.751673 0.637374
H117 H 0.485367 0.283003 0.63313
H118 H 0.530411 0.271153 0.593774
C71 C 0.58571(19) 0.97080(7) 0.24151(10)
C72 C 0.6566(2) 0.96954(7) 0.26122(10)
H48 H 0.673276 0.987041 0.275349
C73 C 0.70317(19) 0.94298(7) 0.26043(10)
H49 H 0.750228 0.942875 0.274100
C74 C 0.68030(18) 0.91626(7) 0.23930(10)
C75 C 0.6110(2) 0.91798(7) 0.21795(11)
H50 H 0.595483 0.900874 0.202753
C76 C 0.56460(19) 0.94469(7) 0.21891(11)
H51 H 0.518719 0.945226 0.204263
C77 C 0.7283(2) 0.88739(7) 0.24019(10)
C78 C 0.7721(2) 0.88029(8) 0.27368(10)
H52 H 0.769925 0.893609 0.295412
C79 C 0.8190(2) 0.85351(8) 0.27513(11)
H53 H 0.847265 0.849030 0.297857
C80 C 0.8238(2) 0.83344(7) 0.24278(11)
C81 C 0.7793(2) 0.84020(8) 0.20989(11)
H54 H 0.781165 0.826807 0.188226
C82 C 0.7318(2) 0.86662(8) 0.20856(11)
H55 H 0.701825 0.870482 0.186199
C83 C 0.87892(19) 0.80654(7) 0.24390(10)
C98 C 0.41429(19) 0.97080(7) 0.25849(10)
C99 C 0.3434(2) 0.96954(7) 0.23878(10)
H64 H 0.326724 0.987041 0.224651
C100 C 0.29683(19) 0.94298(7) 0.23957(10)
H65 H 0.249772 0.942875 0.225900
C101 C 0.31970(18) 0.91626(7) 0.26070(10)
C102 C 0.3890(2) 0.91798(7) 0.28205(11)
H66 H 0.404517 0.900874 0.297247
C103 C 0.43540(19) 0.94469(7) 0.28109(11)
H67 H 0.481281 0.945226 0.295737
C104 C 0.2717(2) 0.88739(7) 0.25981(10)
C105 C 0.2279(2) 0.88029(8) 0.22632(10)
H68 H 0.230075 0.893609 0.204588
C106 C 0.1810(2) 0.85351(8) 0.22487(11)
H69 H 0.152735 0.849030 0.202143
C107 C 0.1762(2) 0.83344(7) 0.25722(11)
C108 C 0.2207(2) 0.84020(8) 0.29011(11)
H70 H 0.218835 0.826807 0.311774
C109 C 0.2682(2) 0.86662(8) 0.29144(11)
H71 H 0.298175 0.870482 0.313801
C110 C 0.12108(19) 0.80654(7) 0.25610(10)
C85_2 C 0.3889(2) 0.30869(7) 0.76593(12)
C86_2 C 0.3084(2) 0.34909(7) 0.80128(11)
H56_2 H 0.322856 0.340143 0.825224
C87_2 C 0.3362(2) 0.33648(7) 0.76646(12)
C88_2 C 0.3138(3) 0.35030(9) 0.73095(12)
H57_2 H 0.331929 0.342041 0.707256
C89_2 C 0.2648(3) 0.37624(9) 0.73057(13)
H58_2 H 0.250810 0.385237 0.706583
C90_2 C 0.2359(2) 0.38912(8) 0.76571(11)
C91_2 C 0.2588(2) 0.37513(7) 0.80091(11)
H59_2 H 0.240697 0.383279 0.824672
C92_2 C 0.1833(2) 0.41662(7) 0.76422(11)
C93_2 C 0.1322(3) 0.42050(9) 0.73272(13)
H60_2 H 0.129713 0.404956 0.713469
C94_2 C 0.0848(2) 0.44676(9) 0.72903(13)
H61_2 H 0.052772 0.448858 0.707021
C95_2 C 0.08450(19) 0.46986(7) 0.75773(10)
C96_2 C 0.13372(19) 0.46569(7) 0.78982(10)
H62_2 H 0.134143 0.480752 0.809706
C97_2 C 0.18208(18) 0.43985(7) 0.79313(10)
H63_2 H 0.214377 0.437944 0.815045
C98_2 C 0.08571(19) 0.52920(7) 0.75849(10)
C99_2 C 0.1566(2) 0.53046(7) 0.73878(10)
H64_2 H 0.173276 0.512959 0.724651
C100_2 C 0.20317(19) 0.55702(7) 0.73957(10)
H65_2 H 0.250228 0.557125 0.725900
C101_2 C 0.18030(18) 0.58374(7) 0.76070(10)
C102_2 C 0.1110(2) 0.58202(7) 0.78205(11)
H66_2 H 0.095483 0.599126 0.797247
C103_2 C 0.06460(19) 0.55531(7) 0.78109(11)
H67_2 H 0.018719 0.554774 0.795737
C104_2 C 0.2283(2) 0.61261(7) 0.75981(10)
C105_2 C 0.2721(2) 0.61971(8) 0.72632(10)
H68_2 H 0.269925 0.606391 0.704588
C106_2 C 0.3190(2) 0.64649(8) 0.72487(11)
H69_2 H 0.347265 0.650970 0.702143
C107_2 C 0.3238(2) 0.66656(7) 0.75722(11)
C108_2 C 0.2793(2) 0.65980(8) 0.79011(11)
H70_2 H 0.281165 0.673193 0.811774
C109_2 C 0.2318(2) 0.63338(8) 0.79144(11)
H71_2 H 0.201825 0.629518 0.813801
C110_2 C 0.37892(19) 0.69346(7) 0.75610(10)
C111_2 C 0.0388(2) 0.49961(7) 0.75417(10)
O17 O 0.40777(14) 0.29709(5) 0.73278(8)
O18 O 0.41762(14) 0.69812(5) 0.72499(7)
Cd7 Cd 0.500000 0.26218(2) 0.750000
Cd8 Cd 0.500000 0.73523(2) 0.750000
C1_2 C 0.7711(2) 0.27529(12) 0.30531(12)
H1_2 H 0.721812 0.281830 0.315987
H2_2 H 0.800635 0.293460 0.297585
H3_2 H 0.799550 0.263749 0.324946
C2_2 C 0.7139(2) 0.22640(11) 0.27717(12)
H4_2 H 0.739932 0.213783 0.296619
H5_2 H 0.710380 0.214890 0.252875
H6_2 H 0.662399 0.231529 0.286262
C3_2 C 0.7846(2) 0.26295(8) 0.23601(11)
H7_2 H 0.814187 0.281201 0.234050
C4_2 C 0.7412(2) 0.19654(7) 0.11585(10)
C5_2 C 0.7253(2) 0.16706(7) 0.09240(10)
C6_2 C 0.6513(3) 0.15561(10) 0.08770(15)
H8_2 H 0.609569 0.166556 0.098582
C7_2 C 0.6372(2) 0.12816(9) 0.06714(15)
H9_2 H 0.586346 0.120791 0.064783
C8_2 C 0.6973(2) 0.11154(7) 0.05009(10)
C9_2 C 0.7710(3) 0.12328(11) 0.0542(2)
H10_2 H 0.812701 0.113078 0.042170
C10_2 C 0.7843(3) 0.15061(11) 0.07632(19)
H11_2 H 0.835225 0.157539 0.079979
C11_2 C 0.6825(2) 0.08200(7) 0.02795(10)
C12_2 C 0.6307(2) 0.05967(8) 0.04224(10)
H12_2 H 0.604827 0.063267 0.065923
C13_2 C 0.6171(2) 0.03195(7) 0.02156(10)
H13_2 H 0.583156 0.017040 0.031989
N1_2 N 0.75783(18) 0.25515(7) 0.27074(9)
O1_2 O 0.77271(13) 0.24723(5) 0.20483(7)
O2_2 O 0.9825(2) 0.23410(10) 0.12156(10)
O3_2 O 0.68474(17) 0.21356(6) 0.12486(8)
O4_2 O 0.81214(17) 0.20139(5) 0.12431(8)
Cd20_2 Cd 0.65927(2) 0.25284(2) 0.16647(2)
O36_2 O 0.82938(16) 0.27517(5) 0.11321(7)
H118_2 H 0.969589 0.228847 0.0937744
C14_2 C 0.6532(2) 0.02618(7) 0.98565(9)
C15_2 C 0.7058(2) 0.04812(8) 0.97157(12)
H14_2 H 0.731150 0.044574 0.947730
C16_2 C 0.7212(3) 0.07558(9) 0.99284(13)
H15_2 H 0.757963 0.089773 0.983343
C45_2 C 0.58312(19) 0.02881(6) 0.90669(9)
C46_2 C 0.5324(2) 0.05012(8) 0.92421(11)
H32_2 H 0.509572 0.045162 0.948319
C47_2 C 0.5152(2) 0.07851(8) 0.90651(12)
H33_2 H 0.481427 0.092354 0.919155
C48_2 C 0.54700(18) 0.08700(6) 0.87026(9)
C49_2 C 0.5955(2) 0.06500(8) 0.85204(11)
H34_2 H 0.617302 0.069675 0.827619
C50_2 C 0.6117(2) 0.03632(8) 0.86959(11)
H35_2 H 0.642353 0.021782 0.856201
C51_2 C 0.53142(19) 0.11804(7) 0.85192(9)
C52_2 C 0.4702(2) 0.13711(7) 0.86420(11)
H36_2 H 0.436571 0.129995 0.883802
C53_2 C 0.4584(2) 0.16662(8) 0.84768(11)
H37_2 H 0.416838 0.178871 0.856353
C54_2 C 0.50696(19) 0.17808(7) 0.81874(10)
C55_2 C 0.5662(2) 0.15878(8) 0.80525(12)
H38_2 H 0.598485 0.165641 0.784925
C56_2 C 0.5782(2) 0.12923(8) 0.82175(12)
H39_2 H 0.618492 0.116699 0.812277
C57_2 C 0.4965(2) 0.21056(7) 0.80229(10)
C58_2 C 0.6111(2) 0.30869(7) 0.73407(12)
C59_2 C 0.6916(2) 0.34909(7) 0.69872(11)
H40_2 H 0.677144 0.340143 0.674776
C60_2 C 0.6638(2) 0.33648(7) 0.73354(12)
C61_2 C 0.6862(3) 0.35030(9) 0.76905(12)
H41_2 H 0.668071 0.342041 0.792744
C62_2 C 0.7352(3) 0.37624(9) 0.76943(13)
H42_2 H 0.749190 0.385237 0.793417
C63_2 C 0.7641(2) 0.38912(8) 0.73429(11)
C64_2 C 0.7412(2) 0.37513(7) 0.69909(11)
H43_2 H 0.759303 0.383279 0.675328
C65_2 C 0.8167(2) 0.41662(7) 0.73578(11)
C66_2 C 0.8678(3) 0.42050(9) 0.76728(13)
H44_2 H 0.870287 0.404956 0.786531
C67_2 C 0.9152(2) 0.44676(9) 0.77097(13)
H45_2 H 0.947228 0.448858 0.792979
C68_2 C 0.91550(19) 0.46986(7) 0.74227(10)
C69_2 C 0.86628(19) 0.46569(7) 0.71018(10)
H46_2 H 0.865857 0.480752 0.690294
C70_2 C 0.81792(18) 0.43985(7) 0.70687(10)
H47_2 H 0.785623 0.437944 0.684955
C71_2 C 0.91429(19) 0.52920(7) 0.74151(10)
C72_2 C 0.8434(2) 0.53046(7) 0.76122(10)
H48_2 H 0.826724 0.512959 0.775349
C73_2 C 0.79683(19) 0.55702(7) 0.76043(10)
H49_2 H 0.749772 0.557125 0.774100
C74_2 C 0.81970(18) 0.58374(7) 0.73930(10)
C75_2 C 0.8890(2) 0.58202(7) 0.71795(11)
H50_2 H 0.904517 0.599126 0.702753
C76_2 C 0.93540(19) 0.55531(7) 0.71891(11)
H51_2 H 0.981281 0.554774 0.704263
C77_2 C 0.7717(2) 0.61261(7) 0.74019(10)
C78_2 C 0.7279(2) 0.61971(8) 0.77368(10)
H52_2 H 0.730075 0.606391 0.795412
C79_2 C 0.6810(2) 0.64649(8) 0.77513(11)
H53_2 H 0.652735 0.650970 0.797857
C80_2 C 0.6762(2) 0.66656(7) 0.74278(11)
C81_2 C 0.7207(2) 0.65980(8) 0.70989(11)
H54_2 H 0.718835 0.673193 0.688226
C82_2 C 0.7682(2) 0.63338(8) 0.70856(11)
H55_2 H 0.798175 0.629518 0.686199
C83_2 C 0.62108(19) 0.69346(7) 0.74390(10)
C84_2 C 0.9612(2) 0.49961(7) 0.74583(10)
O11_2 O 0.55308(15) 0.22267(5) 0.78472(8)
O13_2 O 0.59223(14) 0.29709(5) 0.76722(8)
O14 O 0.58238(14) 0.69812(5) 0.77501(7)
C112_2 C 0.2289(2) 0.27529(12) 0.19469(12)
H72_2 H 0.278188 0.281830 0.184013
H73_2 H 0.199365 0.293460 0.202415
H74_2 H 0.200450 0.263749 0.175054
C113_2 C 0.2861(2) 0.22640(11) 0.22283(12)
H75_2 H 0.260068 0.213783 0.203381
H76_2 H 0.289620 0.214890 0.247125
H77_2 H 0.337601 0.231529 0.213738
C114_2 C 0.2154(2) 0.26295(8) 0.26399(11)
H78_2 H 0.185813 0.281201 0.265950
C115_2 C 0.2588(2) 0.19654(7) 0.38415(10)
C116_2 C 0.2747(2) 0.16706(7) 0.40760(10)
C117_2 C 0.3487(3) 0.15561(10) 0.41230(15)
H79_2 H 0.390431 0.166556 0.401418
C118_2 C 0.3628(2) 0.12816(9) 0.43286(15)
H80_2 H 0.413654 0.120791 0.435217
C119_2 C 0.3027(2) 0.11154(7) 0.44991(10)
C120_2 C 0.2290(3) 0.12328(11) 0.4458(2)
H81_2 H 0.187299 0.113078 0.457830
C121_2 C 0.2157(3) 0.15061(11) 0.42368(19)
H82_2 H 0.164775 0.157539 0.420021
C122_2 C 0.3175(2) 0.08200(7) 0.47205(10)
C123_2 C 0.3693(2) 0.05967(8) 0.45776(10)
H83_2 H 0.395173 0.063267 0.434077
C124_2 C 0.3829(2) 0.03195(7) 0.47844(10)
H84_2 H 0.416844 0.017040 0.468011
C125_2 C 0.3468(2) 0.02618(7) 0.51435(9)
C126_2 C 0.2942(2) 0.04812(8) 0.52843(12)
H85_2 H 0.268850 0.044574 0.552270
C127_2 C 0.2788(3) 0.07558(9) 0.50716(13)
H86_2 H 0.242037 0.089773 0.516657
C156_2 C 0.41688(19) 0.02881(6) 0.59331(9)
C157_2 C 0.4676(2) 0.05012(8) 0.57579(11)
H103_2 H 0.490428 0.045162 0.551681
C158_2 C 0.4848(2) 0.07851(8) 0.59349(12)
H104_2 H 0.518573 0.092354 0.580845
C159_2 C 0.45300(18) 0.08700(6) 0.62974(9)
C160_2 C 0.4045(2) 0.06500(8) 0.64796(11)
H105_2 H 0.382698 0.069675 0.672381
C161_2 C 0.3883(2) 0.03632(8) 0.63041(11)
H106_2 H 0.357647 0.021782 0.643799
C162_2 C 0.46858(19) 0.11804(7) 0.64808(9)
C163_2 C 0.5298(2) 0.13711(7) 0.63580(11)
H107_2 H 0.563429 0.129995 0.616198
C164_2 C 0.5416(2) 0.16662(8) 0.65232(11)
H108_2 H 0.583162 0.178871 0.643647
C165_2 C 0.49304(19) 0.17808(7) 0.68126(10)
C166_2 C 0.4338(2) 0.15878(8) 0.69475(12)
H109_2 H 0.401515 0.165641 0.715075
C167_2 C 0.4218(2) 0.12923(8) 0.67825(12)
H110_2 H 0.381508 0.116699 0.687723
C168_2 C 0.5035(2) 0.21056(7) 0.69771(10)
N2_2 N 0.24217(18) 0.25515(7) 0.22926(9)
O20_2 O 0.22729(13) 0.24723(5) 0.29517(7)
O21_2 O 0.0175(2) 0.23410(10) 0.37844(10)
O22_2 O 0.31526(17) 0.21356(6) 0.37514(8)
O23_2 O 0.18786(17) 0.20139(5) 0.37569(8)
O30_2 O 0.44692(15) 0.22267(5) 0.71528(8)
Cd19_2 Cd 0.34073(2) 0.25284(2) 0.33353(2)
O35_2 O 0.17062(16) 0.27517(5) 0.38679(7)
H112_2 H 0.0304114 0.228847 0.406226
C18_2 C 0.7166(2) 0.96185(8) 0.00441(10)
H16_2 H 0.754731 0.977434 0.004389
C19_2 C 0.7304(2) 0.93393(8) 0.02438(11)
H17_2 H 0.777982 0.930995 0.037031
C22_2 C 0.6043(2) 0.91566(7) 0.00625(10)
H19_2 H 0.565559 0.900342 0.006792
C23_2 C 0.6744(2) 0.91014(7) 0.02591(9)
C24_2 C 0.6890(2) 0.88044(7) 0.04799(10)
C25_2 C 0.7442(3) 0.87864(8) 0.07764(12)
H20_2 H 0.773199 0.896433 0.083874
C26_2 C 0.7574(3) 0.85112(8) 0.09826(12)
H21_2 H 0.795667 0.850591 0.117718
C27_2 C 0.7141(2) 0.82424(7) 0.09022(10)
C28_2 C 0.6577(2) 0.82580(8) 0.06133(11)
H22_2 H 0.627122 0.808249 0.056027
C29_2 C 0.6460(2) 0.85333(8) 0.03998(11)
H23_2 H 0.608889 0.853661 0.019991
C30_2 C 0.7247(2) 0.79471(7) 0.11434(9)
O5_2 O 0.78701(17) 0.79267(5) 0.13380(7)
O6_2 O 0.67062(16) 0.77517(5) 0.11321(7)
O7_2 O 0.9495(2) 0.76329(9) 0.13006(11)
Cd14_2 Cd 0.62977(2) 0.73943(2) 0.15691(2)
O32_2 O 0.72729(13) 0.74723(5) 0.20483(7)
O34_2 O 0.81526(17) 0.71356(6) 0.12486(8)
H115_2 H 0.96714 0.785125 0.135357
H116_2 H 0.99157 0.748327 0.137374
C17_2 C 0.63349(19) 0.99709(7) 0.96298(10)
C20_2 C 0.6469(2) 0.96695(7) 0.98444(9)
C21_2 C 0.5908(2) 0.94340(7) 0.98593(10)
H18_2 H 0.543397 0.946293 0.973075
C31_2 C 0.6046(2) 0.99840(6) 0.92588(10)
C32_2 C 0.58994(19) 0.96966(6) 0.90223(9)
C33_2 C 0.6464(2) 0.94647(7) 0.89736(10)
H24_2 H 0.696802 0.949888 0.906614
C34_2 C 0.5170(2) 0.96433(7) 0.88556(9)
H25_2 H 0.479691 0.980207 0.886359
C35_2 C 0.6283(2) 0.91816(7) 0.87875(10)
H26_2 H 0.667126 0.903083 0.875612
C36_2 C 0.49845(19) 0.93589(7) 0.86776(10)
H27_2 H 0.448542 0.932824 0.857680
C37_2 C 0.5534(2) 0.91190(6) 0.86475(9)
C38_2 C 0.53320(19) 0.88095(7) 0.84715(9)
C39_2 C 0.5866(3) 0.85728(10) 0.8448(2)
H28_2 H 0.637040 0.860760 0.853896
C40_2 C 0.5675(3) 0.82808(10) 0.8292(2)
H29_2 H 0.605675 0.812594 0.827762
C41_2 C 0.49443(18) 0.82164(7) 0.81615(10)
C42_2 C 0.4423(3) 0.84511(9) 0.81690(17)
H30_2 H 0.391997 0.841613 0.807563
C43_2 C 0.4622(3) 0.87459(9) 0.83141(19)
H31_2 H 0.425316 0.890602 0.830285
C44_2 C 0.47378(19) 0.78960(7) 0.80155(9)
O8_2 O 0.52955(14) 0.77081(5) 0.79483(8)
C128_2 C 0.36651(19) 0.99709(7) 0.53702(10)
C129_2 C 0.2834(2) 0.96185(8) 0.49559(10)
H87_2 H 0.245269 0.977434 0.495611
C130_2 C 0.2696(2) 0.93393(8) 0.47562(11)
H88_2 H 0.222018 0.930995 0.462969
C131_2 C 0.3531(2) 0.96695(7) 0.51556(9)
C132_2 C 0.4092(2) 0.94340(7) 0.51407(10)
H89_2 H 0.456603 0.946293 0.526925
C133_2 C 0.3957(2) 0.91566(7) 0.49375(10)
H90_2 H 0.434441 0.900342 0.493208
C134_2 C 0.3256(2) 0.91014(7) 0.47409(9)
C135_2 C 0.3110(2) 0.88044(7) 0.45201(10)
C136_2 C 0.2558(3) 0.87864(8) 0.42236(12)
H91_2 H 0.226801 0.896433 0.416126
C137_2 C 0.2426(3) 0.85112(8) 0.40174(12)
H92_2 H 0.204333 0.850591 0.382282
C138_2 C 0.2859(2) 0.82424(7) 0.40978(10)
C139_2 C 0.3423(2) 0.82580(8) 0.43867(11)
H93_2 H 0.372878 0.808249 0.443973
C140_2 C 0.3540(2) 0.85333(8) 0.46002(11)
H94_2 H 0.391111 0.853661 0.480009
C141_2 C 0.2753(2) 0.79471(7) 0.38566(9)
C142_2 C 0.3954(2) 0.99840(6) 0.57412(10)
C143_2 C 0.41006(19) 0.96966(6) 0.59777(9)
C144_2 C 0.3536(2) 0.94647(7) 0.60264(10)
H95_2 H 0.303198 0.949888 0.593386
C145_2 C 0.4830(2) 0.96433(7) 0.61444(9)
H96_2 H 0.520309 0.980207 0.613641
C146_2 C 0.3717(2) 0.91816(7) 0.62125(10)
H97_2 H 0.332874 0.903083 0.624388
C147_2 C 0.50155(19) 0.93589(7) 0.63224(10)
H98_2 H 0.551458 0.932824 0.642320
C148_2 C 0.4466(2) 0.91190(6) 0.63525(9)
C149_2 C 0.46680(19) 0.88095(7) 0.65285(9)
C150_2 C 0.4134(3) 0.85728(10) 0.6552(2)
H99_2 H 0.362960 0.860760 0.646104
C151_2 C 0.4325(3) 0.82808(10) 0.6708(2)
H100_2 H 0.394325 0.812594 0.672238
C152_2 C 0.50557(18) 0.82164(7) 0.68385(10)
C153_2 C 0.5577(3) 0.84511(9) 0.68310(17)
H101_2 H 0.608003 0.841613 0.692437
C154_2 C 0.5378(3) 0.87459(9) 0.66859(19)
H102_2 H 0.574684 0.890602 0.669715
C155_2 C 0.52622(19) 0.78960(7) 0.69845(9)
O24_2 O 0.21299(17) 0.79267(5) 0.36620(7)
O25_2 O 0.32938(16) 0.77517(5) 0.38679(7)
O26_2 O 0.0505(2) 0.76329(9) 0.36994(11)
O27_2 O 0.47045(14) 0.77081(5) 0.70517(8)
Cd13_2 Cd 0.37023(2) 0.73943(2) 0.34309(2)
O31_2 O 0.27271(13) 0.74723(5) 0.29517(7)
O33_2 O 0.18474(17) 0.71356(6) 0.37514(8)
H113_2 H 0.0328601 0.785125 0.364643
H114_2 H 0.00842968 0.748327 0.362626
H111_2 H 0.985367 0.216997 0.36687
Cd8_2 Cd -0.000000 0.23523(2) 0.750000
Cd7_2 Cd 0.000000 0.76218(2) 0.750000
C71_3 C 0.41429(19) 0.02920(7) 0.75849(10)
C72_3 C 0.3434(2) 0.03046(7) 0.73878(10)
H48_3 H 0.326724 0.012959 0.724651
C73_3 C 0.29683(19) 0.05702(7) 0.73957(10)
H49_3 H 0.249772 0.057125 0.725900
C74_3 C 0.31970(18) 0.08374(7) 0.76070(10)
C75_3 C 0.3890(2) 0.08202(7) 0.78205(11)
H50_3 H 0.404517 0.099126 0.797247
C76_3 C 0.43540(19) 0.05531(7) 0.78109(11)
H51_3 H 0.481281 0.054774 0.795737
C77_3 C 0.2717(2) 0.11261(7) 0.75981(10)
C78_3 C 0.2279(2) 0.11971(8) 0.72632(10)
H52_3 H 0.230075 0.106391 0.704588
C79_3 C 0.1810(2) 0.14649(8) 0.72487(11)
H53_3 H 0.152735 0.150970 0.702143
C80_3 C 0.1762(2) 0.16656(7) 0.75722(11)
C81_3 C 0.2207(2) 0.15980(8) 0.79011(11)
H54_3 H 0.218835 0.173193 0.811774
C82_3 C 0.2682(2) 0.13338(8) 0.79144(11)
H55_3 H 0.298175 0.129518 0.813801
C83_3 C 0.12108(19) 0.19346(7) 0.75610(10)
O14_2 O 0.08238(14) 0.19812(5) 0.72499(7)
O15 O 0.11162(13) 0.21065(5) 0.78640(7)
C98_3 C 0.58571(19) 0.02920(7) 0.74151(10)
C99_3 C 0.6566(2) 0.03046(7) 0.76122(10)
H64_3 H 0.673276 0.012959 0.775349
C100_3 C 0.70317(19) 0.05702(7) 0.76043(10)
H65_3 H 0.750228 0.057125 0.774100
C101_3 C 0.68030(18) 0.08374(7) 0.73930(10)
C102_3 C 0.6110(2) 0.08202(7) 0.71795(11)
H66_3 H 0.595483 0.099126 0.702753
C103_3 C 0.56460(19) 0.05531(7) 0.71891(11)
H67_3 H 0.518719 0.054774 0.704263
C104_3 C 0.7283(2) 0.11261(7) 0.74019(10)
C105_3 C 0.7721(2) 0.11971(8) 0.77368(10)
H68_3 H 0.769925 0.106391 0.795412
C106_3 C 0.8190(2) 0.14649(8) 0.77513(11)
H69_3 H 0.847265 0.150970 0.797857
C107_3 C 0.8238(2) 0.16656(7) 0.74278(11)
C108_3 C 0.7793(2) 0.15980(8) 0.70989(11)
H70_3 H 0.781165 0.173193 0.688226
C109_3 C 0.7318(2) 0.13338(8) 0.70856(11)
H71_3 H 0.701825 0.129518 0.686199
C110_3 C 0.87892(19) 0.19346(7) 0.74390(10)
O18_2 O 0.91762(14) 0.19812(5) 0.77501(7)
O19 O 0.88838(13) 0.21065(5) 0.71360(7)
Cd8_3 Cd 1.000000 0.23523(2) 0.750000
C1_3 C 0.2711(2) 0.77529(12) 0.19469(12)
H1_3 H 0.221812 0.781830 0.184013
H2_3 H 0.300635 0.793460 0.202415
H3_3 H 0.299550 0.763749 0.175054
C2_3 C 0.2139(2) 0.72640(11) 0.22283(12)
H4_3 H 0.239932 0.713783 0.203381
H5_3 H 0.210380 0.714890 0.247125
H6_3 H 0.162399 0.731529 0.213738
C3_3 C 0.2846(2) 0.76295(8) 0.26399(11)
H7_3 H 0.314187 0.781201 0.265950
C4_3 C 0.2412(2) 0.69654(7) 0.38415(10)
C5_3 C 0.2253(2) 0.66706(7) 0.40760(10)
C6_3 C 0.1513(3) 0.65561(10) 0.41230(15)
H8_3 H 0.109569 0.666556 0.401418
C7_3 C 0.1372(2) 0.62816(9) 0.43286(15)
H9_3 H 0.086346 0.620791 0.435217
C8_3 C 0.1973(2) 0.61154(7) 0.44991(10)
C9_3 C 0.2710(3) 0.62328(11) 0.4458(2)
H10_3 H 0.312701 0.613078 0.457830
C10_3 C 0.2843(3) 0.65061(11) 0.42368(19)
H11_3 H 0.335225 0.657539 0.420021
C11_3 C 0.1825(2) 0.58200(7) 0.47205(10)
C12_3 C 0.1307(2) 0.55967(8) 0.45776(10)
H12_3 H 0.104827 0.563267 0.434077
C13_3 C 0.1171(2) 0.53195(7) 0.47844(10)
H13_3 H 0.083156 0.517040 0.468011
C14_3 C 0.1532(2) 0.52618(7) 0.51435(9)
C15_3 C 0.2058(2) 0.54812(8) 0.52843(12)
H14_3 H 0.231150 0.544574 0.552270
C16_3 C 0.2212(3) 0.57558(9) 0.50716(13)
H15_3 H 0.257963 0.589773 0.516657
C17_3 C 0.13349(19) 0.49709(7) 0.53702(10)
C18_3 C 0.2166(2) 0.46185(8) 0.49559(10)
H16_3 H 0.254731 0.477434 0.495611
C19_3 C 0.2304(2) 0.43393(8) 0.47562(11)
H17_3 H 0.277982 0.430995 0.462969
C20_3 C 0.1469(2) 0.46695(7) 0.51556(9)
C21_3 C 0.0908(2) 0.44340(7) 0.51407(10)
H18_3 H 0.043397 0.446293 0.526925
C22_3 C 0.1043(2) 0.41566(7) 0.49375(10)
H19_3 H 0.065559 0.400342 0.493208
C23_3 C 0.1744(2) 0.41014(7) 0.47409(9)
C24_3 C 0.1890(2) 0.38044(7) 0.45201(10)
C25_3 C 0.2442(3) 0.37864(8) 0.42236(12)
H20_3 H 0.273199 0.396433 0.416126
C26_3 C 0.2574(3) 0.35112(8) 0.40174(12)
H21_3 H 0.295667 0.350591 0.382282
C27_3 C 0.2141(2) 0.32424(7) 0.40978(10)
C28_3 C 0.1577(2) 0.32580(8) 0.43867(11)
H22_3 H 0.127122 0.308249 0.443973
C29_3 C 0.1460(2) 0.35333(8) 0.46002(11)
H23_3 H 0.108889 0.353661 0.480009
C30_3 C 0.2247(2) 0.29471(7) 0.38566(9)
C31_3 C 0.1046(2) 0.49840(6) 0.57412(10)
C32_3 C 0.08994(19) 0.46966(6) 0.59777(9)
C33_3 C 0.1464(2) 0.44647(7) 0.60264(10)
H24_3 H 0.196802 0.449888 0.593386
C34_3 C 0.0170(2) 0.46433(7) 0.61444(9)
C35_3 C 0.1283(2) 0.41816(7) 0.62125(10)
H26_3 H 0.167126 0.403083 0.624388
C37_3 C 0.0534(2) 0.41190(6) 0.63525(9)
C38_3 C 0.03320(19) 0.38095(7) 0.65285(9)
C39_3 C 0.0866(3) 0.35728(10) 0.6552(2)
H28_3 H 0.137040 0.360760 0.646104
C40_3 C 0.0675(3) 0.32808(10) 0.6708(2)
H29_3 H 0.105675 0.312594 0.672238
C45_3 C 0.08312(19) 0.52881(6) 0.59331(9)
C46_3 C 0.0324(2) 0.55012(8) 0.57579(11)
H32_3 H 0.009572 0.545162 0.551681
C47_3 C 0.0152(2) 0.57851(8) 0.59349(12)
C48_3 C 0.04700(18) 0.58700(6) 0.62974(9)
C49_3 C 0.0955(2) 0.56500(8) 0.64796(11)
H34_3 H 0.117302 0.569675 0.672381
C50_3 C 0.1117(2) 0.53632(8) 0.63041(11)
H35_3 H 0.142353 0.521782 0.643799
C51_3 C 0.03142(19) 0.61804(7) 0.64808(9)
C54_3 C 0.00696(19) 0.67808(7) 0.68126(10)
C55_3 C 0.0662(2) 0.65878(8) 0.69475(12)
H38_3 H 0.098485 0.665641 0.715075
C56_3 C 0.0782(2) 0.62923(8) 0.67825(12)
H39_3 H 0.118492 0.616699 0.687723
C58_3 C 0.1111(2) 0.80869(7) 0.76593(12)
C59_3 C 0.1916(2) 0.84909(7) 0.80128(11)
H40_3 H 0.177144 0.840143 0.825224
C60_3 C 0.1638(2) 0.83648(7) 0.76646(12)
C61_3 C 0.1862(3) 0.85030(9) 0.73095(12)
H41_3 H 0.168071 0.842041 0.707256
C62_3 C 0.2352(3) 0.87624(9) 0.73057(13)
H42_3 H 0.249190 0.885237 0.706583
C63_3 C 0.2641(2) 0.88912(8) 0.76571(11)
C64_3 C 0.2412(2) 0.87513(7) 0.80091(11)
H43_3 H 0.259303 0.883279 0.824672
C65_3 C 0.3167(2) 0.91662(7) 0.76422(11)
C66_3 C 0.3678(3) 0.92050(9) 0.73272(13)
H44_3 H 0.370287 0.904956 0.713469
C67_3 C 0.4152(2) 0.94676(9) 0.72903(13)
H45_3 H 0.447228 0.948858 0.707021
C68_3 C 0.41550(19) 0.96986(7) 0.75773(10)
C69_3 C 0.36628(19) 0.96569(7) 0.78982(10)
H46_3 H 0.365857 0.980752 0.809706
C70_3 C 0.31792(18) 0.93985(7) 0.79313(10)
H47_3 H 0.285623 0.937944 0.815045
C84_3 C 0.4612(2) 0.99961(7) 0.75417(10)
N1_3 N 0.25783(18) 0.75515(7) 0.22926(9)
O2_3 O 0.4825(2) 0.73410(10) 0.37844(10)
O4_3 O 0.31214(17) 0.70139(5) 0.37569(8)
O5_3 O 0.28701(17) 0.29267(5) 0.36620(7)
O7_3 O 0.4495(2) 0.26329(9) 0.36994(11)
O8_3 O 0.02955(14) 0.27081(5) 0.70517(8)
O11_3 O 0.05308(15) 0.72267(5) 0.71528(8)
O12_2 O 0.08474(13) 0.79747(5) 0.79793(8)
O13_3 O 0.09223(14) 0.79709(5) 0.73278(8)
C85_3 C 0.8889(2) 0.80869(7) 0.73407(12)
C86_3 C 0.8084(2) 0.84909(7) 0.69872(11)
H56_3 H 0.822856 0.840143 0.674776
C87_3 C 0.8362(2) 0.83648(7) 0.73354(12)
C88_3 C 0.8138(3) 0.85030(9) 0.76905(12)
H57_3 H 0.831929 0.842041 0.792744
C89_3 C 0.7648(3) 0.87624(9) 0.76943(13)
H58_3 H 0.750810 0.885237 0.793417
C90_3 C 0.7359(2) 0.88912(8) 0.73429(11)
C91_3 C 0.7588(2) 0.87513(7) 0.69909(11)
H59_3 H 0.740697 0.883279 0.675328
C92_3 C 0.6833(2) 0.91662(7) 0.73578(11)
C93_3 C 0.6322(3) 0.92050(9) 0.76728(13)
H60_3 H 0.629713 0.904956 0.786531
C94_3 C 0.5848(2) 0.94676(9) 0.77097(13)
H61_3 H 0.552772 0.948858 0.792979
C95_3 C 0.58450(19) 0.96986(7) 0.74227(10)
C96_3 C 0.63372(19) 0.96569(7) 0.71018(10)
H62_3 H 0.634143 0.980752 0.690294
C97_3 C 0.68208(18) 0.93985(7) 0.70687(10)
H63_3 H 0.714377 0.937944 0.684955
C111_3 C 0.5388(2) 0.99961(7) 0.74583(10)
O16 O 0.91526(13) 0.79747(5) 0.70207(8)
O17_2 O 0.90777(14) 0.79709(5) 0.76722(8)
H96_3 H 0.020309 0.480207 0.886359
C147_3 C 0.00155(19) 0.43589(7) 0.86776(10)
H98_3 H 0.051458 0.432824 0.857680
C152_3 C 0.00557(18) 0.32164(7) 0.81615(10)
C153_3 C 0.0577(3) 0.34511(9) 0.81690(17)
H101_3 H 0.108003 0.341613 0.807563
C154_3 C 0.0378(3) 0.37459(9) 0.83141(19)
H102_3 H 0.074684 0.390602 0.830285
C155_3 C 0.02622(19) 0.28960(7) 0.80155(9)
H104_3 H 0.018573 0.592354 0.919155
C163_3 C 0.0298(2) 0.63711(7) 0.86420(11)
H107_3 H 0.063429 0.629995 0.883802
C164_3 C 0.0416(2) 0.66662(8) 0.84768(11)
H108_3 H 0.083162 0.678871 0.856353
C168_3 C 0.0035(2) 0.71056(7) 0.80229(10)
O28_2 O 0.09743(13) 0.28307(5) 0.79609(7)
O29_2 O 0.06943(15) 0.72352(5) 0.80592(7)
Cd7_3 Cd 1.000000 0.76218(2) 0.750000
O38_2 O 0.40257(13) 0.21693(5) 0.29609(7)
O40_2 O 0.43057(15) 0.77648(5) 0.30592(7)
O41_2 O 0.41526(13) 0.70253(5) 0.29793(8)
O48_2 O 0.38838(13) 0.28935(5) 0.28640(7)
H115_3 H 0.46714 0.285125 0.364643
H116_3 H 0.49157 0.248327 0.362626
H117_2 H 0.514633 0.716997 0.36687
H118_3 H 0.469589 0.728847 0.406226
C112_3 C 0.7289(2) 0.77529(12) 0.30531(12)
H72_3 H 0.778188 0.781830 0.315987
H73_3 H 0.699365 0.793460 0.297585
H74_3 H 0.700450 0.763749 0.324946
C113_3 C 0.7861(2) 0.72640(11) 0.27717(12)
H75_3 H 0.760068 0.713783 0.296619
H76_3 H 0.789620 0.714890 0.252875
H77_3 H 0.837601 0.731529 0.286262
C114_3 C 0.7154(2) 0.76295(8) 0.23601(11)
H78_3 H 0.685813 0.781201 0.234050
C115_3 C 0.7588(2) 0.69654(7) 0.11585(10)
C116_3 C 0.7747(2) 0.66706(7) 0.09240(10)
C117_3 C 0.8487(3) 0.65561(10) 0.08770(15)
H79_3 H 0.890431 0.666556 0.098582
C118_3 C 0.8628(2) 0.62816(9) 0.06714(15)
H80_3 H 0.913654 0.620791 0.064783
C119_3 C 0.8027(2) 0.61154(7) 0.05009(10)
C120_3 C 0.7290(3) 0.62328(11) 0.0542(2)
H81_3 H 0.687299 0.613078 0.042170
C121_3 C 0.7157(3) 0.65061(11) 0.07632(19)
H82_3 H 0.664775 0.657539 0.079979
C122_3 C 0.8175(2) 0.58200(7) 0.02795(10)
C123_3 C 0.8693(2) 0.55967(8) 0.04224(10)
H83_3 H 0.895173 0.563267 0.065923
C124_3 C 0.8829(2) 0.53195(7) 0.02156(10)
H84_3 H 0.916844 0.517040 0.031989
C129_3 C 0.7834(2) 0.46185(8) 0.00441(10)
H87_3 H 0.745269 0.477434 0.004389
C130_3 C 0.7696(2) 0.43393(8) 0.02438(11)
H88_3 H 0.722018 0.430995 0.037031
C133_3 C 0.8957(2) 0.41566(7) 0.00625(10)
H90_3 H 0.934441 0.400342 0.006792
C134_3 C 0.8256(2) 0.41014(7) 0.02591(9)
C135_3 C 0.8110(2) 0.38044(7) 0.04799(10)
C136_3 C 0.7558(3) 0.37864(8) 0.07764(12)
H91_3 H 0.726801 0.396433 0.083874
C137_3 C 0.7426(3) 0.35112(8) 0.09826(12)
H92_3 H 0.704333 0.350591 0.117718
C138_3 C 0.7859(2) 0.32424(7) 0.09022(10)
C139_3 C 0.8423(2) 0.32580(8) 0.06133(11)
H93_3 H 0.872878 0.308249 0.056027
C140_3 C 0.8540(2) 0.35333(8) 0.03998(11)
H94_3 H 0.891111 0.353661 0.019991
C141_3 C 0.7753(2) 0.29471(7) 0.11434(9)
N2_3 N 0.74217(18) 0.75515(7) 0.27074(9)
O21_3 O 0.5175(2) 0.73410(10) 0.12156(10)
O23_3 O 0.68786(17) 0.70139(5) 0.12431(8)
O24_3 O 0.71299(17) 0.29267(5) 0.13380(7)
O26_3 O 0.5505(2) 0.26329(9) 0.13006(11)
O37_2 O 0.59743(13) 0.21693(5) 0.20391(7)
O39_2 O 0.56943(15) 0.77648(5) 0.19408(7)
O43_2 O 0.58474(13) 0.70253(5) 0.20207(8)
O50_2 O 0.61162(13) 0.28935(5) 0.21360(7)
H111_3 H 0.485367 0.716997 0.13313
H112_3 H 0.530411 0.728847 0.0937744
H113_3 H 0.53286 0.285125 0.135357
H114_3 H 0.50843 0.248327 0.137374
H25_3 H 0.979691 0.480207 0.613641
C36_3 C 0.99845(19) 0.43589(7) 0.63224(10)
H27_3 H 0.948542 0.432824 0.642320
C41_3 C 0.99443(18) 0.32164(7) 0.68385(10)
C42_3 C 0.9423(3) 0.34511(9) 0.68310(17)
H30_3 H 0.891997 0.341613 0.692437
C43_3 C 0.9622(3) 0.37459(9) 0.66859(19)
H31_3 H 0.925316 0.390602 0.669715
C44_3 C 0.97378(19) 0.28960(7) 0.69845(9)
H33_3 H 0.981427 0.592354 0.580845
C52_3 C 0.9702(2) 0.63711(7) 0.63580(11)
H36_3 H 0.936571 0.629995 0.616198
C53_3 C 0.9584(2) 0.66662(8) 0.65232(11)
H37_3 H 0.916838 0.678871 0.643647
C57_3 C 0.9965(2) 0.71056(7) 0.69771(10)
O9_2 O 0.90257(13) 0.28307(5) 0.70391(7)
O10_2 O 0.93057(15) 0.72352(5) 0.69408(7)
C125_3 C 0.8468(2) 0.52618(7) 0.98565(9)
C126_3 C 0.7942(2) 0.54812(8) 0.97157(12)
H85_3 H 0.768850 0.544574 0.947730
C127_3 C 0.7788(3) 0.57558(9) 0.99284(13)
H86_3 H 0.742037 0.589773 0.983343
C128_3 C 0.86651(19) 0.49709(7) 0.96298(10)
C131_3 C 0.8531(2) 0.46695(7) 0.98444(9)
C132_3 C 0.9092(2) 0.44340(7) 0.98593(10)
H89_3 H 0.956603 0.446293 0.973075
C142_3 C 0.8954(2) 0.49840(6) 0.92588(10)
C143_3 C 0.91006(19) 0.46966(6) 0.90223(9)
C144_3 C 0.8536(2) 0.44647(7) 0.89736(10)
H95_3 H 0.803198 0.449888 0.906614
C145_3 C 0.9830(2) 0.46433(7) 0.88556(9)
C146_3 C 0.8717(2) 0.41816(7) 0.87875(10)
H97_3 H 0.832874 0.403083 0.875612
C148_3 C 0.9466(2) 0.41190(6) 0.86475(9)
C149_3 C 0.96680(19) 0.38095(7) 0.84715(9)
C150_3 C 0.9134(3) 0.35728(10) 0.8448(2)
H99_3 H 0.862960 0.360760 0.853896
C151_3 C 0.9325(3) 0.32808(10) 0.8292(2)
H100_3 H 0.894325 0.312594 0.827762
C156_3 C 0.91688(19) 0.52881(6) 0.90669(9)
C157_3 C 0.9676(2) 0.55012(8) 0.92421(11)
H103_3 H 0.990428 0.545162 0.948319
C158_3 C 0.9848(2) 0.57851(8) 0.90651(12)
C159_3 C 0.95300(18) 0.58700(6) 0.87026(9)
C160_3 C 0.9045(2) 0.56500(8) 0.85204(11)
H105_3 H 0.882698 0.569675 0.827619
C161_3 C 0.8883(2) 0.53632(8) 0.86959(11)
H106_3 H 0.857647 0.521782 0.856201
C162_3 C 0.96858(19) 0.61804(7) 0.85192(9)
C165_3 C 0.99304(19) 0.67808(7) 0.81874(10)
C166_3 C 0.9338(2) 0.65878(8) 0.80525(12)
H109_3 H 0.901515 0.665641 0.784925
C167_3 C 0.9218(2) 0.62923(8) 0.82175(12)
H110_3 H 0.881508 0.616699 0.812277
O27_3 O 0.97045(14) 0.27081(5) 0.79483(8)
O30_3 O 0.94692(15) 0.72267(5) 0.78472(8)
H111_4 H 0.0146329 0.783003 0.63313
C17_4 C 0.36651(19) 0.00291(7) 0.03702(10)
C20_4 C 0.3531(2) 0.03305(7) 0.01556(9)
C21_4 C 0.4092(2) 0.05660(7) 0.01407(10)
H18_4 H 0.456603 0.053707 0.026925
C31_4 C 0.3954(2) 0.00160(6) 0.07412(10)
C32_4 C 0.41006(19) 0.03034(6) 0.09777(9)
C33_4 C 0.3536(2) 0.05353(7) 0.10264(10)
H24_4 H 0.303198 0.050112 0.093386
C34_4 C 0.4830(2) 0.03567(7) 0.11444(9)
H25_4 H 0.520309 0.019793 0.113641
C35_4 C 0.3717(2) 0.08184(7) 0.12125(10)
H26_4 H 0.332874 0.096917 0.124388
C36_4 C 0.50155(19) 0.06411(7) 0.13224(10)
H27_4 H 0.551458 0.067176 0.142320
C37_4 C 0.4466(2) 0.08810(6) 0.13525(9)
C38_4 C 0.46680(19) 0.11905(7) 0.15285(9)
C39_4 C 0.4134(3) 0.14272(10) 0.1552(2)
H28_4 H 0.362960 0.139240 0.146104
C40_4 C 0.4325(3) 0.17192(10) 0.1708(2)
H29_4 H 0.394325 0.187406 0.172238
C41_4 C 0.50557(18) 0.17836(7) 0.18385(10)
C42_4 C 0.5577(3) 0.15489(9) 0.18310(17)
H30_4 H 0.608003 0.158387 0.192437
C43_4 C 0.5378(3) 0.12541(9) 0.16859(19)
H31_4 H 0.574684 0.109398 0.169715
C44_4 C 0.52622(19) 0.21040(7) 0.19845(9)
Cd2_3 Cd 0.500000 0.26477(2) 0.250000
O8_4 O 0.47045(14) 0.22919(5) 0.20517(8)
C128_4 C 0.63349(19) 0.00291(7) 0.46298(10)
C129_4 C 0.7166(2) 0.03815(8) 0.50441(10)
H87_4 H 0.754731 0.022566 0.504389
C130_4 C 0.7304(2) 0.06607(8) 0.52438(11)
H88_4 H 0.777982 0.069005 0.537031
C131_4 C 0.6469(2) 0.03305(7) 0.48444(9)
C132_4 C 0.5908(2) 0.05660(7) 0.48593(10)
H89_4 H 0.543397 0.053707 0.473075
C133_4 C 0.6043(2) 0.08434(7) 0.50625(10)
H90_4 H 0.565559 0.099658 0.506792
C134_4 C 0.6744(2) 0.08986(7) 0.52591(9)
C135_4 C 0.6890(2) 0.11956(7) 0.54799(10)
C136_4 C 0.7442(3) 0.12136(8) 0.57764(12)
H91_4 H 0.773199 0.103567 0.583874
C137_4 C 0.7574(3) 0.14888(8) 0.59826(12)
H92_4 H 0.795667 0.149409 0.617718
C138_4 C 0.7141(2) 0.17576(7) 0.59022(10)
C139_4 C 0.6577(2) 0.17420(8) 0.56133(11)
H93_4 H 0.627122 0.191751 0.556027
C140_4 C 0.6460(2) 0.14667(8) 0.53998(11)
H94_4 H 0.608889 0.146339 0.519991
C141_4 C 0.7247(2) 0.20529(7) 0.61434(9)
C142_4 C 0.6046(2) 0.00160(6) 0.42588(10)
C143_4 C 0.58994(19) 0.03034(6) 0.40223(9)
C144_4 C 0.6464(2) 0.05353(7) 0.39736(10)
H95_4 H 0.696802 0.050112 0.406614
C145_4 C 0.5170(2) 0.03567(7) 0.38556(9)
H96_4 H 0.479691 0.019793 0.386359
C146_4 C 0.6283(2) 0.08184(7) 0.37875(10)
H97_4 H 0.667126 0.096917 0.375612
C147_4 C 0.49845(19) 0.06411(7) 0.36776(10)
H98_4 H 0.448542 0.067176 0.357680
C148_4 C 0.5534(2) 0.08810(6) 0.36475(9)
C149_4 C 0.53320(19) 0.11905(7) 0.34715(9)
C150_4 C 0.5866(3) 0.14272(10) 0.3448(2)
H99_4 H 0.637040 0.139240 0.353896
C151_4 C 0.5675(3) 0.17192(10) 0.3292(2)
H100_4 H 0.605675 0.187406 0.327762
C152_4 C 0.49443(18) 0.17836(7) 0.31615(10)
C153_4 C 0.4423(3) 0.15489(9) 0.31690(17)
H101_4 H 0.391997 0.158387 0.307563
C154_4 C 0.4622(3) 0.12541(9) 0.33141(19)
H102_4 H 0.425316 0.109398 0.330285
C155_4 C 0.47378(19) 0.21040(7) 0.30155(9)
O24_4 O 0.78701(17) 0.20733(5) 0.63380(7)
O26_4 O 0.9495(2) 0.23671(9) 0.63006(11)
O27_4 O 0.52955(14) 0.22919(5) 0.29483(8)
O45_2 O 0.41762(14) 0.30188(5) 0.22499(7)
O46_2 O 0.58238(14) 0.30188(5) 0.27501(7)
H113_4 H 0.96714 0.214875 0.635357
H114_4 H 0.99157 0.251673 0.637374
C18_4 C 0.2834(2) 0.03815(8) 0.99559(10)
H16_4 H 0.245269 0.022566 0.995611
C19_4 C 0.2696(2) 0.06607(8) 0.97562(11)
H17_4 H 0.222018 0.069005 0.962969
C22_4 C 0.3957(2) 0.08434(7) 0.99375(10)
H19_4 H 0.434441 0.099658 0.993208
C23_4 C 0.3256(2) 0.08986(7) 0.97409(9)
C24_4 C 0.3110(2) 0.11956(7) 0.95201(10)
C25_4 C 0.2558(3) 0.12136(8) 0.92236(12)
H20_4 H 0.226801 0.103567 0.916126
C26_4 C 0.2426(3) 0.14888(8) 0.90174(12)
H21_4 H 0.204333 0.149409 0.882282
C27_4 C 0.2859(2) 0.17576(7) 0.90978(10)
C28_4 C 0.3423(2) 0.17420(8) 0.93867(11)
H22_4 H 0.372878 0.191751 0.943973
C29_4 C 0.3540(2) 0.14667(8) 0.96002(11)
H23_4 H 0.391111 0.146339 0.980009
C30_4 C 0.2753(2) 0.20529(7) 0.88566(9)
O5_4 O 0.21299(17) 0.20733(5) 0.86620(7)
O7_4 O 0.0505(2) 0.23671(9) 0.86994(11)
H115_4 H 0.0328601 0.214875 0.864643
H116_4 H 0.00842968 0.251673 0.862626
C14_4 C 0.3468(2) 0.97382(7) 0.01435(9)
C15_4 C 0.2942(2) 0.95188(8) 0.02843(12)
H14_4 H 0.268850 0.955426 0.052270
C16_4 C 0.2788(3) 0.92442(9) 0.00716(13)
H15_4 H 0.242037 0.910227 0.016657
C45_4 C 0.41688(19) 0.97119(6) 0.09331(9)
C46_4 C 0.4676(2) 0.94988(8) 0.07579(11)
H32_4 H 0.490428 0.954838 0.051681
C47_4 C 0.4848(2) 0.92149(8) 0.09349(12)
H33_4 H 0.518573 0.907646 0.080845
C48_4 C 0.45300(18) 0.91300(6) 0.12974(9)
C49_4 C 0.4045(2) 0.93500(8) 0.14796(11)
H34_4 H 0.382698 0.930325 0.172381
C50_4 C 0.3883(2) 0.96368(8) 0.13041(11)
H35_4 H 0.357647 0.978218 0.143799
C51_4 C 0.46858(19) 0.88196(7) 0.14808(9)
C52_4 C 0.5298(2) 0.86289(7) 0.13580(11)
H36_4 H 0.563429 0.870005 0.116198
C53_4 C 0.5416(2) 0.83338(8) 0.15232(11)
H37_4 H 0.583162 0.821129 0.143647
C54_4 C 0.49304(19) 0.82192(7) 0.18126(10)
C55_4 C 0.4338(2) 0.84122(8) 0.19475(12)
H38_4 H 0.401515 0.834359 0.215075
C56_4 C 0.4218(2) 0.87077(8) 0.17825(12)
H39_4 H 0.381508 0.883301 0.187723
C57_4 C 0.5035(2) 0.78944(7) 0.19771(10)
C58_4 C 0.3889(2) 0.69131(7) 0.26593(12)
C59_4 C 0.3084(2) 0.65091(7) 0.30128(11)
H40_4 H 0.322856 0.659857 0.325224
C60_4 C 0.3362(2) 0.66352(7) 0.26646(12)
C61_4 C 0.3138(3) 0.64970(9) 0.23095(12)
H41_4 H 0.331929 0.657959 0.207256
C62_4 C 0.2648(3) 0.62376(9) 0.23057(13)
H42_4 H 0.250810 0.614763 0.206583
C63_4 C 0.2359(2) 0.61088(8) 0.26571(11)
C64_4 C 0.2588(2) 0.62487(7) 0.30091(11)
H43_4 H 0.240697 0.616721 0.324672
C65_4 C 0.1833(2) 0.58338(7) 0.26422(11)
C66_4 C 0.1322(3) 0.57950(9) 0.23272(13)
H44_4 H 0.129713 0.595044 0.213469
C67_4 C 0.0848(2) 0.55324(9) 0.22903(13)
H45_4 H 0.052772 0.551142 0.207021
C68_4 C 0.08450(19) 0.53014(7) 0.25773(10)
C69_4 C 0.13372(19) 0.53431(7) 0.28982(10)
H46_4 H 0.134143 0.519248 0.309706
C70_4 C 0.18208(18) 0.56015(7) 0.29313(10)
H47_4 H 0.214377 0.562056 0.315045
C71_4 C 0.08571(19) 0.47080(7) 0.25849(10)
C72_4 C 0.1566(2) 0.46954(7) 0.23878(10)
H48_4 H 0.173276 0.487041 0.224651
C73_4 C 0.20317(19) 0.44298(7) 0.23957(10)
H49_4 H 0.250228 0.442875 0.225900
C74_4 C 0.18030(18) 0.41626(7) 0.26070(10)
C75_4 C 0.1110(2) 0.41798(7) 0.28205(11)
H50_4 H 0.095483 0.400874 0.297247
C76_4 C 0.06460(19) 0.44469(7) 0.28109(11)
H51_4 H 0.018719 0.445226 0.295737
C77_4 C 0.2283(2) 0.38739(7) 0.25981(10)
C78_4 C 0.2721(2) 0.38029(8) 0.22632(10)
H52_4 H 0.269925 0.393609 0.204588
C79_4 C 0.3190(2) 0.35351(8) 0.22487(11)
H53_4 H 0.347265 0.349030 0.202143
C80_4 C 0.3238(2) 0.33344(7) 0.25722(11)
C81_4 C 0.2793(2) 0.34020(8) 0.29011(11)
H54_4 H 0.281165 0.326807 0.311774
C82_4 C 0.2318(2) 0.36662(8) 0.29144(11)
H55_4 H 0.201825 0.370482 0.313801
C83_4 C 0.37892(19) 0.30654(7) 0.25610(10)
C84_4 C 0.0388(2) 0.50039(7) 0.25417(10)
Cd1_3 Cd 0.500000 0.73782(2) 0.250000
O11_4 O 0.44692(15) 0.77733(5) 0.21528(8)
O13_4 O 0.40777(14) 0.70291(5) 0.23278(8)
C112_4 C 0.7711(2) 0.72471(12) 0.80531(12)
H72_4 H 0.721812 0.718170 0.815987
H73_4 H 0.800635 0.706540 0.797585
H74_4 H 0.799550 0.736251 0.824946
C113_4 C 0.7139(2) 0.77360(11) 0.77717(12)
H75_4 H 0.739932 0.786217 0.796619
H76_4 H 0.710380 0.785110 0.752875
H77_4 H 0.662399 0.768471 0.786262
C114_4 C 0.7846(2) 0.73705(8) 0.73601(11)
H78_4 H 0.814187 0.718799 0.734050
C115_4 C 0.7412(2) 0.80346(7) 0.61585(10)
C116_4 C 0.7253(2) 0.83294(7) 0.59240(10)
C117_4 C 0.6513(3) 0.84439(10) 0.58770(15)
H79_4 H 0.609569 0.833444 0.598582
C118_4 C 0.6372(2) 0.87184(9) 0.56714(15)
H80_4 H 0.586346 0.879209 0.564783
C119_4 C 0.6973(2) 0.88846(7) 0.55009(10)
C120_4 C 0.7710(3) 0.87672(11) 0.5542(2)
H81_4 H 0.812701 0.886922 0.542170
C121_4 C 0.7843(3) 0.84939(11) 0.57632(19)
H82_4 H 0.835225 0.842461 0.579979
C122_4 C 0.6825(2) 0.91800(7) 0.52795(10)
C123_4 C 0.6307(2) 0.94033(8) 0.54224(10)
H83_4 H 0.604827 0.936733 0.565923
C124_4 C 0.6171(2) 0.96805(7) 0.52156(10)
H84_4 H 0.583156 0.982960 0.531989
C125_4 C 0.6532(2) 0.97382(7) 0.48565(9)
C126_4 C 0.7058(2) 0.95188(8) 0.47157(12)
H85_4 H 0.731150 0.955426 0.447730
C127_4 C 0.7212(3) 0.92442(9) 0.49284(13)
H86_4 H 0.757963 0.910227 0.483343
C156_4 C 0.58312(19) 0.97119(6) 0.40669(9)
C157_4 C 0.5324(2) 0.94988(8) 0.42421(11)
H103_4 H 0.509572 0.954838 0.448319
C158_4 C 0.5152(2) 0.92149(8) 0.40651(12)
H104_4 H 0.481427 0.907646 0.419155
C159_4 C 0.54700(18) 0.91300(6) 0.37026(9)
C160_4 C 0.5955(2) 0.93500(8) 0.35204(11)
H105_4 H 0.617302 0.930325 0.327619
C161_4 C 0.6117(2) 0.96368(8) 0.36959(11)
H106_4 H 0.642353 0.978218 0.356201
C162_4 C 0.53142(19) 0.88196(7) 0.35192(9)
C163_4 C 0.4702(2) 0.86289(7) 0.36420(11)
H107_4 H 0.436571 0.870005 0.383802
C164_4 C 0.4584(2) 0.83338(8) 0.34768(11)
H108_4 H 0.416838 0.821129 0.356353
C165_4 C 0.50696(19) 0.82192(7) 0.31874(10)
C166_4 C 0.5662(2) 0.84122(8) 0.30525(12)
H109_4 H 0.598485 0.834359 0.284925
C167_4 C 0.5782(2) 0.87077(8) 0.32175(12)
H110_4 H 0.618492 0.883301 0.312277
C168_4 C 0.4965(2) 0.78944(7) 0.30229(10)
N2_4 N 0.75783(18) 0.74485(7) 0.77074(9)
O21_4 O 0.9825(2) 0.76590(10) 0.62156(10)
O23_4 O 0.81214(17) 0.79861(5) 0.62431(8)
O30_4 O 0.55308(15) 0.77733(5) 0.28472(8)
O44_2 O 0.59223(14) 0.70291(5) 0.26722(8)
H112_4 H 0.969589 0.771153 0.593774
C1_4 C 0.2289(2) 0.72471(12) 0.69469(12)
H1_4 H 0.278188 0.718170 0.684013
H2_4 H 0.199365 0.706540 0.702415
H3_4 H 0.200450 0.736251 0.675054
C2_4 C 0.2861(2) 0.77360(11) 0.72283(12)
H4_4 H 0.260068 0.786217 0.703381
H5_4 H 0.289620 0.785110 0.747125
H6_4 H 0.337601 0.768471 0.713738
C3_4 C 0.2154(2) 0.73705(8) 0.76399(11)
H7_4 H 0.185813 0.718799 0.765950
C4_4 C 0.2588(2) 0.80346(7) 0.88415(10)
C5_4 C 0.2747(2) 0.83294(7) 0.90760(10)
C6_4 C 0.3487(3) 0.84439(10) 0.91230(15)
H8_4 H 0.390431 0.833444 0.901418
C7_4 C 0.3628(2) 0.87184(9) 0.93286(15)
H9_4 H 0.413654 0.879209 0.935217
C8_4 C 0.3027(2) 0.88846(7) 0.94991(10)
C9_4 C 0.2290(3) 0.87672(11) 0.9458(2)
H10_4 H 0.187299 0.886922 0.957830
C10_4 C 0.2157(3) 0.84939(11) 0.92368(19)
H11_4 H 0.164775 0.842461 0.920021
C11_4 C 0.3175(2) 0.91800(7) 0.97205(10)
C12_4 C 0.3693(2) 0.94033(8) 0.95776(10)
H12_4 H 0.395173 0.936733 0.934077
C13_4 C 0.3829(2) 0.96805(7) 0.97844(10)
H13_4 H 0.416844 0.982960 0.968011
N1_4 N 0.24217(18) 0.74485(7) 0.72926(9)
O2_4 O 0.0175(2) 0.76590(10) 0.87844(10)
O4_4 O 0.18786(17) 0.79861(5) 0.87569(8)
H118_4 H 0.0304114 0.771153 0.906226
C85_4 C 0.6111(2) 0.69131(7) 0.23407(12)
C86_4 C 0.6916(2) 0.65091(7) 0.19872(11)
H56_4 H 0.677144 0.659857 0.174776
C87_4 C 0.6638(2) 0.66352(7) 0.23354(12)
C88_4 C 0.6862(3) 0.64970(9) 0.26905(12)
H57_4 H 0.668071 0.657959 0.292744
C89_4 C 0.7352(3) 0.62376(9) 0.26943(13)
H58_4 H 0.749190 0.614763 0.293417
C90_4 C 0.7641(2) 0.61088(8) 0.23429(11)
C91_4 C 0.7412(2) 0.62487(7) 0.19909(11)
H59_4 H 0.759303 0.616721 0.175328
C92_4 C 0.8167(2) 0.58338(7) 0.23578(11)
C93_4 C 0.8678(3) 0.57950(9) 0.26728(13)
H60_4 H 0.870287 0.595044 0.286531
C94_4 C 0.9152(2) 0.55324(9) 0.27097(13)
H61_4 H 0.947228 0.551142 0.292979
C95_4 C 0.91550(19) 0.53014(7) 0.24227(10)
C96_4 C 0.86628(19) 0.53431(7) 0.21018(10)
H62_4 H 0.865857 0.519248 0.190294
C97_4 C 0.81792(18) 0.56015(7) 0.20687(10)
H63_4 H 0.785623 0.562056 0.184955
C98_4 C 0.91429(19) 0.47080(7) 0.24151(10)
C99_4 C 0.8434(2) 0.46954(7) 0.26122(10)
H64_4 H 0.826724 0.487041 0.275349
C100_4 C 0.79683(19) 0.44298(7) 0.26043(10)
H65_4 H 0.749772 0.442875 0.274100
C101_4 C 0.81970(18) 0.41626(7) 0.23930(10)
C102_4 C 0.8890(2) 0.41798(7) 0.21795(11)
H66_4 H 0.904517 0.400874 0.202753
C103_4 C 0.93540(19) 0.44469(7) 0.21891(11)
H67_4 H 0.981281 0.445226 0.204263
C104_4 C 0.7717(2) 0.38739(7) 0.24019(10)
C105_4 C 0.7279(2) 0.38029(8) 0.27368(10)
H68_4 H 0.730075 0.393609 0.295412
C106_4 C 0.6810(2) 0.35351(8) 0.27513(11)
H69_4 H 0.652735 0.349030 0.297857
C107_4 C 0.6762(2) 0.33344(7) 0.24278(11)
C108_4 C 0.7207(2) 0.34020(8) 0.20989(11)
H70_4 H 0.718835 0.326807 0.188226
C109_4 C 0.7682(2) 0.36662(8) 0.20856(11)
H71_4 H 0.798175 0.370482 0.186199
C110_4 C 0.62108(19) 0.30654(7) 0.24390(10)
C111_4 C 0.9612(2) 0.50039(7) 0.24583(10)
H117_3 H 0.0146329 0.216997 0.13313
H117_4 H 0.985367 0.783003 0.86687
loop_
_geom_bond_atom_site_label_1
_geom_bond_atom_site_label_2
_geom_bond_site_symmetry_1
_geom_bond_site_symmetry_2
H27 C36 1_555 1_555
C42 C41 1_555 1_555
H30 C42 1_555 1_555
H31 C43 1_555 1_555
C44 C41 1_555 1_555
H36 C52 1_555 1_555
C53 C52 1_555 1_555
H37 C53 1_555 1_555
Cd1 O10 1_555 1_555
O9 C44 1_555 1_555
O10 C57 1_555 1_555
C126 C125 1_555 1_555
H85 C126 1_555 1_555
H86 C127 1_555 1_555
C128 C125 1_555 1_555
C131 C128 1_555 1_555
C132 C131 1_555 1_555
H89 C132 1_555 1_555
C142 C128 1_555 1_555
C143 C142 1_555 1_555
C144 C143 1_555 1_555
H95 C144 1_555 1_555
C145 C143 1_555 1_555
C146 C144 1_555 1_555
H97 C146 1_555 1_555
C148 C146 1_555 1_555
C149 C148 1_555 1_555
C150 C149 1_555 1_555
H99 C150 1_555 1_555
C151 C150 1_555 1_555
H100 C151 1_555 1_555
C156 C142 1_555 1_555
C157 C156 1_555 1_555
H103 C157 1_555 1_555
C158 C157 1_555 1_555
C159 C158 1_555 1_555
C160 C159 1_555 1_555
H105 C160 1_555 1_555
C161 C156 1_555 1_555
H106 C161 1_555 1_555
C162 C159 1_555 1_555
C166 C165 1_555 1_555
H109 C166 1_555 1_555
C167 C162 1_555 1_555
H110 C167 1_555 1_555
O27 Cd2 1_555 1_555
O30 Cd1 1_555 1_555
Cd12 O10 1_555 1_555
Cd18 O9 1_555 1_555
O42 Cd1 1_555 1_555
O44 Cd1 1_555 1_555
O46 Cd2 1_555 1_555
O49 Cd2 1_555 1_555
C42 C43 1_555 1_555
C126 C127 1_555 1_555
C160 C161 1_555 1_555
C166 C167 1_555 1_555
Cd12 O42 1_555 1_555
Cd18 O49 1_555 1_555
C112 H72 1_555 1_555
H73 C112 1_555 1_555
H74 C112 1_555 1_555
C113 H75 1_555 1_555
H76 C113 1_555 1_555
H77 C113 1_555 1_555
C114 H78 1_555 1_555
C115 C116 1_555 1_555
C116 C117 1_555 1_555
C117 H79 1_555 1_555
C118 C117 1_555 1_555
H80 C118 1_555 1_555
C119 C118 1_555 1_555
C120 C119 1_555 1_555
H81 C120 1_555 1_555
C121 C116 1_555 1_555
H82 C121 1_555 1_555
C122 C119 1_555 1_555
C123 C122 1_555 1_555
H83 C123 1_555 1_555
C124 C123 1_555 1_555
H84 C124 1_555 1_555
C129 H87 1_555 1_555
C130 C129 1_555 1_555
H88 C130 1_555 1_555
H90 C133 1_555 1_555
C134 C130 1_555 1_555
C135 C134 1_555 1_555
C136 C135 1_555 1_555
H91 C136 1_555 1_555
C137 C136 1_555 1_555
H92 C137 1_555 1_555
C138 C137 1_555 1_555
C139 C138 1_555 1_555
H93 C139 1_555 1_555
C140 C135 1_555 1_555
H94 C140 1_555 1_555
C141 C138 1_555 1_555
Cd5 O20 1_555 1_555
Cd6 O24 1_555 1_555
N2 C112 1_555 1_555
O20 C114 1_555 1_555
O21 Cd5 1_555 1_555
O22 C115 1_555 1_555
O23 C115 1_555 1_555
O24 C141 1_555 1_555
O25 C141 1_555 1_555
O26 Cd6 1_555 1_555
Cd13 O25 1_555 1_555
Cd19 O20 1_555 1_555
O31 Cd6 1_555 1_555
O33 Cd6 1_555 1_555
O35 Cd5 1_555 1_555
O37 Cd6 1_555 1_555
O39 Cd5 1_555 1_555
O43 Cd5 1_555 1_555
O50 Cd6 1_555 1_555
C113 N2 1_555 1_555
C114 N2 1_555 1_555
C120 C121 1_555 1_555
C133 C134 1_555 1_555
C139 C140 1_555 1_555
Cd5 O23 1_555 1_555
O22 Cd19 1_555 1_555
Cd13 O31 1_555 1_555
O21 H111 1_555 1_555
O21 H112 1_555 1_555
O26 H113 1_555 1_555
O26 H114 1_555 1_555
C1 H1 1_555 1_555
H2 C1 1_555 1_555
H3 C1 1_555 1_555
C2 H4 1_555 1_555
H5 C2 1_555 1_555
H6 C2 1_555 1_555
C3 H7 1_555 1_555
C4 C5 1_555 1_555
C5 C6 1_555 1_555
C6 H8 1_555 1_555
C7 C6 1_555 1_555
H9 C7 1_555 1_555
C8 C7 1_555 1_555
C9 C8 1_555 1_555
H10 C9 1_555 1_555
C10 C5 1_555 1_555
H11 C10 1_555 1_555
C11 C8 1_555 1_555
C12 C11 1_555 1_555
H12 C12 1_555 1_555
C13 C12 1_555 1_555
H13 C13 1_555 1_555
C14 C13 1_555 1_555
C15 C14 1_555 1_555
H14 C15 1_555 1_555
C16 C11 1_555 1_555
H15 C16 1_555 1_555
C17 C14 1_555 1_555
C18 H16 1_555 1_555
C19 C18 1_555 1_555
H17 C19 1_555 1_555
C20 C17 1_555 1_555
C21 C20 1_555 1_555
H18 C21 1_555 1_555
C22 C21 1_555 1_555
H19 C22 1_555 1_555
C23 C19 1_555 1_555
C24 C23 1_555 1_555
C25 C24 1_555 1_555
H20 C25 1_555 1_555
C26 C25 1_555 1_555
H21 C26 1_555 1_555
C27 C26 1_555 1_555
C28 C27 1_555 1_555
H22 C28 1_555 1_555
C29 C24 1_555 1_555
H23 C29 1_555 1_555
C30 C27 1_555 1_555
C31 C17 1_555 1_555
C32 C31 1_555 1_555
C33 C32 1_555 1_555
H24 C33 1_555 1_555
C34 C32 1_555 1_555
C35 C33 1_555 1_555
H26 C35 1_555 1_555
C37 C35 1_555 1_555
C38 C37 1_555 1_555
C39 C38 1_555 1_555
H28 C39 1_555 1_555
C40 C39 1_555 1_555
H29 C40 1_555 1_555
C45 C31 1_555 1_555
C46 C45 1_555 1_555
H32 C46 1_555 1_555
C47 C46 1_555 1_555
C48 C47 1_555 1_555
C49 C48 1_555 1_555
H34 C49 1_555 1_555
C50 C45 1_555 1_555
H35 C50 1_555 1_555
C51 C48 1_555 1_555
C55 C54 1_555 1_555
H38 C55 1_555 1_555
C56 C51 1_555 1_555
H39 C56 1_555 1_555
C58 C60 1_555 1_555
C59 H40 1_555 1_555
C60 C59 1_555 1_555
C61 C60 1_555 1_555
H41 C61 1_555 1_555
C62 C61 1_555 1_555
H42 C62 1_555 1_555
C63 C62 1_555 1_555
C64 C59 1_555 1_555
H43 C64 1_555 1_555
C65 C63 1_555 1_555
C66 C65 1_555 1_555
H44 C66 1_555 1_555
C67 C66 1_555 1_555
H45 C67 1_555 1_555
C68 C67 1_555 1_555
C69 C68 1_555 1_555
H46 C69 1_555 1_555
C70 C65 1_555 1_555
H47 C70 1_555 1_555
C84 C68 1_555 1_555
Cd2_2 O8 1_555 1_555
Cd3 O1 1_555 1_555
Cd4 O5 1_555 1_555
N1 C1 1_555 1_555
O1 C3 1_555 1_555
O2 Cd3 1_555 1_555
O3 C4 1_555 1_555
O4 C4 1_555 1_555
O5 C30 1_555 1_555
O6 C30 1_555 1_555
O7 Cd4 1_555 1_555
O12 C58 1_555 1_555
O13 C58 1_555 1_555
C85 C87 1_555 1_555
C86 H56 1_555 1_555
C87 C86 1_555 1_555
C88 C87 1_555 1_555
H57 C88 1_555 1_555
C89 C88 1_555 1_555
H58 C89 1_555 1_555
C90 C89 1_555 1_555
C91 C86 1_555 1_555
H59 C91 1_555 1_555
C92 C90 1_555 1_555
C93 C92 1_555 1_555
H60 C93 1_555 1_555
C94 C93 1_555 1_555
H61 C94 1_555 1_555
C95 C94 1_555 1_555
C96 C95 1_555 1_555
H62 C96 1_555 1_555
C97 C92 1_555 1_555
H63 C97 1_555 1_555
C111 C84 1_555 1_555
O42 C85 1_555 1_555
O44 C85 1_555 1_555
H98 C147 1_555 1_555
C153 C152 1_555 1_555
H101 C153 1_555 1_555
H102 C154 1_555 1_555
C155 C152 1_555 1_555
H107 C163 1_555 1_555
C164 C163 1_555 1_555
H108 C164 1_555 1_555
O28 C155 1_555 1_555
O29 Cd1_2 1_555 1_555
Cd10 O12 1_555 1_555
Cd14 O6 1_555 1_555
Cd16 O28 1_555 1_555
Cd20 O1 1_555 1_555
O32 Cd4 1_555 1_555
O34 Cd4 1_555 1_555
O36 Cd3 1_555 1_555
O38 Cd4 1_555 1_555
O40 Cd3 1_555 1_555
O41 Cd3 1_555 1_555
O45 Cd2_2 1_555 1_555
O47 Cd2_2 1_555 1_555
O48 Cd4 1_555 1_555
C2 N1 1_555 1_555
C3 N1 1_555 1_555
C9 C10 1_555 1_555
C15 C16 1_555 1_555
C18 C20 1_555 1_555
C22 C23 1_555 1_555
C28 C29 1_555 1_555
C49 C50 1_555 1_555
C55 C56 1_555 1_555
C63 C64 1_555 1_555
C69 C70 1_555 1_555
Cd1_2 O11 1_555 1_555
Cd1_2 O12 1_555 1_555
Cd1_2 O13 1_555 1_555
Cd3 O4 1_555 1_555
O3 Cd20 1_555 1_555
C90 C91 1_555 1_555
C95 C111 1_555 1_555
C96 C97 1_555 1_555
C153 C154 1_555 1_555
C168 O29 1_555 1_555
O29 Cd10 1_555 1_555
Cd14 O32 1_555 1_555
Cd16 O47 1_555 1_555
O7 H115 1_555 1_555
O7 H116 1_555 1_555
O2 H117 1_555 1_555
O2 H118 1_555 1_555
C71 C72 1_555 1_555
C72 H48 1_555 1_555
C73 C72 1_555 1_555
H49 C73 1_555 1_555
C74 C73 1_555 1_555
C75 C74 1_555 1_555
H50 C75 1_555 1_555
C76 C71 1_555 1_555
H51 C76 1_555 1_555
C77 C74 1_555 1_555
C78 C77 1_555 1_555
H52 C78 1_555 1_555
C79 C78 1_555 1_555
H53 C79 1_555 1_555
C80 C79 1_555 1_555
C81 C80 1_555 1_555
H54 C81 1_555 1_555
C82 C77 1_555 1_555
H55 C82 1_555 1_555
C83 C80 1_555 1_555
O45 C83 1_555 1_555
O47 C83 1_555 1_555
C98 C99 1_555 1_555
C99 H64 1_555 1_555
C100 C99 1_555 1_555
H65 C100 1_555 1_555
C101 C100 1_555 1_555
C102 C101 1_555 1_555
H66 C102 1_555 1_555
C103 C98 1_555 1_555
H67 C103 1_555 1_555
C104 C101 1_555 1_555
C105 C104 1_555 1_555
H68 C105 1_555 1_555
C106 C105 1_555 1_555
H69 C106 1_555 1_555
C107 C106 1_555 1_555
C108 C107 1_555 1_555
H70 C108 1_555 1_555
C109 C104 1_555 1_555
H71 C109 1_555 1_555
C110 C107 1_555 1_555
O46 C110 1_555 1_555
O49 C110 1_555 1_555
C75 C76 1_555 1_555
C81 C82 1_555 1_555
C102 C103 1_555 1_555
C108 C109 1_555 1_555
C85_2 C87_2 1_555 1_555
C86_2 H56_2 1_555 1_555
C87_2 C86_2 1_555 1_555
C88_2 C87_2 1_555 1_555
H57_2 C88_2 1_555 1_555
C89_2 C88_2 1_555 1_555
H58_2 C89_2 1_555 1_555
C90_2 C89_2 1_555 1_555
C91_2 C86_2 1_555 1_555
H59_2 C91_2 1_555 1_555
C92_2 C90_2 1_555 1_555
C93_2 C92_2 1_555 1_555
H60_2 C93_2 1_555 1_555
C94_2 C93_2 1_555 1_555
H61_2 C94_2 1_555 1_555
C95_2 C94_2 1_555 1_555
C96_2 C95_2 1_555 1_555
H62_2 C96_2 1_555 1_555
C97_2 C92_2 1_555 1_555
H63_2 C97_2 1_555 1_555
C98_2 C99_2 1_555 1_555
C99_2 H64_2 1_555 1_555
C100_2 C99_2 1_555 1_555
H65_2 C100_2 1_555 1_555
C101_2 C100_2 1_555 1_555
C102_2 C101_2 1_555 1_555
H66_2 C102_2 1_555 1_555
C103_2 C98_2 1_555 1_555
H67_2 C103_2 1_555 1_555
C104_2 C101_2 1_555 1_555
C105_2 C104_2 1_555 1_555
H68_2 C105_2 1_555 1_555
C106_2 C105_2 1_555 1_555
H69_2 C106_2 1_555 1_555
C107_2 C106_2 1_555 1_555
C108_2 C107_2 1_555 1_555
H70_2 C108_2 1_555 1_555
C109_2 C104_2 1_555 1_555
H71_2 C109_2 1_555 1_555
C110_2 C107_2 1_555 1_555
O43 C85_2 1_555 1_555
O17 C85_2 1_555 1_555
O18 C110_2 1_555 1_555
O50 C110_2 1_555 1_555
Cd7 O43 1_555 1_555
Cd8 O18 1_555 1_555
C90_2 C91_2 1_555 1_555
C95_2 C111_2 1_555 1_555
C96_2 C97_2 1_555 1_555
C98_2 C111_2 1_555 1_555
C102_2 C103_2 1_555 1_555
C108_2 C109_2 1_555 1_555
O17 Cd7 1_555 1_555
O50 Cd8 1_555 1_555
C1_2 H1_2 1_555 1_555
H2_2 C1_2 1_555 1_555
H3_2 C1_2 1_555 1_555
C2_2 H4_2 1_555 1_555
H5_2 C2_2 1_555 1_555
H6_2 C2_2 1_555 1_555
C3_2 H7_2 1_555 1_555
C4_2 C5_2 1_555 1_555
C5_2 C6_2 1_555 1_555
C6_2 H8_2 1_555 1_555
C7_2 C6_2 1_555 1_555
H9_2 C7_2 1_555 1_555
C8_2 C7_2 1_555 1_555
C9_2 C8_2 1_555 1_555
H10_2 C9_2 1_555 1_555
C10_2 C5_2 1_555 1_555
H11_2 C10_2 1_555 1_555
C11_2 C8_2 1_555 1_555
C12_2 C11_2 1_555 1_555
H12_2 C12_2 1_555 1_555
C13_2 C12_2 1_555 1_555
H13_2 C13_2 1_555 1_555
Cd10 O1_2 1_555 1_555
N1_2 C1_2 1_555 1_555
O1_2 C3_2 1_555 1_555
O2_2 Cd10 1_555 1_555
O3_2 C4_2 1_555 1_555
O4_2 C4_2 1_555 1_555
Cd20_2 O1_2 1_555 1_555
O36_2 Cd10 1_555 1_555
C2_2 N1_2 1_555 1_555
C3_2 N1_2 1_555 1_555
C9_2 C10_2 1_555 1_555
Cd10 O4_2 1_555 1_555
O3_2 Cd20_2 1_555 1_555
O2_2 H118_2 1_555 1_555
C15_2 C14_2 1_555 1_555
H14_2 C15_2 1_555 1_555
H15_2 C16_2 1_555 1_555
C46_2 C45_2 1_555 1_555
H32_2 C46_2 1_555 1_555
C47_2 C46_2 1_555 1_555
H33_2 C47_2 1_555 1_555
C48_2 C47_2 1_555 1_555
C49_2 C48_2 1_555 1_555
H34_2 C49_2 1_555 1_555
C50_2 C45_2 1_555 1_555
H35_2 C50_2 1_555 1_555
C51_2 C48_2 1_555 1_555
C52_2 C51_2 1_555 1_555
H36_2 C52_2 1_555 1_555
C53_2 C52_2 1_555 1_555
H37_2 C53_2 1_555 1_555
C54_2 C53_2 1_555 1_555
C55_2 C54_2 1_555 1_555
H38_2 C55_2 1_555 1_555
C56_2 C51_2 1_555 1_555
H39_2 C56_2 1_555 1_555
C57_2 C54_2 1_555 1_555
C58_2 C60_2 1_555 1_555
C59_2 H40_2 1_555 1_555
C60_2 C59_2 1_555 1_555
C61_2 C60_2 1_555 1_555
H41_2 C61_2 1_555 1_555
C62_2 C61_2 1_555 1_555
H42_2 C62_2 1_555 1_555
C63_2 C62_2 1_555 1_555
C64_2 C59_2 1_555 1_555
H43_2 C64_2 1_555 1_555
C65_2 C63_2 1_555 1_555
C66_2 C65_2 1_555 1_555
H44_2 C66_2 1_555 1_555
C67_2 C66_2 1_555 1_555
H45_2 C67_2 1_555 1_555
C68_2 C67_2 1_555 1_555
C69_2 C68_2 1_555 1_555
H46_2 C69_2 1_555 1_555
C70_2 C65_2 1_555 1_555
H47_2 C70_2 1_555 1_555
C71_2 C72_2 1_555 1_555
C72_2 H48_2 1_555 1_555
C73_2 C72_2 1_555 1_555
H49_2 C73_2 1_555 1_555
C74_2 C73_2 1_555 1_555
C75_2 C74_2 1_555 1_555
H50_2 C75_2 1_555 1_555
C76_2 C71_2 1_555 1_555
H51_2 C76_2 1_555 1_555
C77_2 C74_2 1_555 1_555
C78_2 C77_2 1_555 1_555
H52_2 C78_2 1_555 1_555
C79_2 C78_2 1_555 1_555
H53_2 C79_2 1_555 1_555
C80_2 C79_2 1_555 1_555
C81_2 C80_2 1_555 1_555
H54_2 C81_2 1_555 1_555
C82_2 C77_2 1_555 1_555
H55_2 C82_2 1_555 1_555
C83_2 C80_2 1_555 1_555
C84_2 C68_2 1_555 1_555
Cd7 O39 1_555 1_555
O39 C57_2 1_555 1_555
O11_2 C57_2 1_555 1_555
O41 C58_2 1_555 1_555
O13_2 C58_2 1_555 1_555
O14 C83_2 1_555 1_555
O48 C83_2 1_555 1_555
C112_2 H72_2 1_555 1_555
H73_2 C112_2 1_555 1_555
H74_2 C112_2 1_555 1_555
C113_2 H75_2 1_555 1_555
H76_2 C113_2 1_555 1_555
H77_2 C113_2 1_555 1_555
C114_2 H78_2 1_555 1_555
C115_2 C116_2 1_555 1_555
C116_2 C117_2 1_555 1_555
C117_2 H79_2 1_555 1_555
C118_2 C117_2 1_555 1_555
H80_2 C118_2 1_555 1_555
C119_2 C118_2 1_555 1_555
C120_2 C119_2 1_555 1_555
H81_2 C120_2 1_555 1_555
C121_2 C116_2 1_555 1_555
H82_2 C121_2 1_555 1_555
C122_2 C119_2 1_555 1_555
C123_2 C122_2 1_555 1_555
H83_2 C123_2 1_555 1_555
C124_2 C123_2 1_555 1_555
H84_2 C124_2 1_555 1_555
C125_2 C124_2 1_555 1_555
C126_2 C125_2 1_555 1_555
H85_2 C126_2 1_555 1_555
C127_2 C122_2 1_555 1_555
H86_2 C127_2 1_555 1_555
C157_2 C156_2 1_555 1_555
H103_2 C157_2 1_555 1_555
C158_2 C157_2 1_555 1_555
H104_2 C158_2 1_555 1_555
C159_2 C158_2 1_555 1_555
C160_2 C159_2 1_555 1_555
H105_2 C160_2 1_555 1_555
C161_2 C156_2 1_555 1_555
H106_2 C161_2 1_555 1_555
C162_2 C159_2 1_555 1_555
C163_2 C162_2 1_555 1_555
H107_2 C163_2 1_555 1_555
C164_2 C163_2 1_555 1_555
H108_2 C164_2 1_555 1_555
C165_2 C164_2 1_555 1_555
C166_2 C165_2 1_555 1_555
H109_2 C166_2 1_555 1_555
C167_2 C162_2 1_555 1_555
H110_2 C167_2 1_555 1_555
C168_2 C165_2 1_555 1_555
Cd12 O20_2 1_555 1_555
N2_2 C112_2 1_555 1_555
O20_2 C114_2 1_555 1_555
O21_2 Cd12 1_555 1_555
O22_2 C115_2 1_555 1_555
O23_2 C115_2 1_555 1_555
O40 Cd7 1_555 1_555
O30_2 Cd7 1_555 1_555
Cd8 O14 1_555 1_555
Cd19_2 O20_2 1_555 1_555
O35_2 Cd12 1_555 1_555
C15_2 C16_2 1_555 1_555
C49_2 C50_2 1_555 1_555
C55_2 C56_2 1_555 1_555
C63_2 C64_2 1_555 1_555
C69_2 C70_2 1_555 1_555
C71_2 C84_2 1_555 1_555
C75_2 C76_2 1_555 1_555
C81_2 C82_2 1_555 1_555
Cd7 O11_2 1_555 1_555
Cd7 O41 1_555 1_555
Cd7 O13_2 1_555 1_555
O48 Cd8 1_555 1_555
C113_2 N2_2 1_555 1_555
C114_2 N2_2 1_555 1_555
C120_2 C121_2 1_555 1_555
C126_2 C127_2 1_555 1_555
C160_2 C161_2 1_555 1_555
C166_2 C167_2 1_555 1_555
C168_2 O40 1_555 1_555
C168_2 O30_2 1_555 1_555
Cd12 O23_2 1_555 1_555
O22_2 Cd19_2 1_555 1_555
O21_2 H112_2 1_555 1_555
C18_2 H16_2 1_555 1_555
C19_2 C18_2 1_555 1_555
H17_2 C19_2 1_555 1_555
H19_2 C22_2 1_555 1_555
C23_2 C19_2 1_555 1_555
C24_2 C23_2 1_555 1_555
C25_2 C24_2 1_555 1_555
H20_2 C25_2 1_555 1_555
C26_2 C25_2 1_555 1_555
H21_2 C26_2 1_555 1_555
C27_2 C26_2 1_555 1_555
C28_2 C27_2 1_555 1_555
H22_2 C28_2 1_555 1_555
C29_2 C24_2 1_555 1_555
H23_2 C29_2 1_555 1_555
C30_2 C27_2 1_555 1_555
Cd16 O5_2 1_555 1_555
O5_2 C30_2 1_555 1_555
O6_2 C30_2 1_555 1_555
O7_2 Cd16 1_555 1_555
Cd14_2 O6_2 1_555 1_555
O32_2 Cd16 1_555 1_555
O34_2 Cd16 1_555 1_555
C22_2 C23_2 1_555 1_555
C28_2 C29_2 1_555 1_555
Cd14_2 O32_2 1_555 1_555
O7_2 H115_2 1_555 1_555
O7_2 H116_2 1_555 1_555
C20_2 C17_2 1_555 1_555
C21_2 C20_2 1_555 1_555
H18_2 C21_2 1_555 1_555
C31_2 C17_2 1_555 1_555
C32_2 C31_2 1_555 1_555
C33_2 C32_2 1_555 1_555
H24_2 C33_2 1_555 1_555
C34_2 C32_2 1_555 1_555
H25_2 C34_2 1_555 1_555
C35_2 C33_2 1_555 1_555
H26_2 C35_2 1_555 1_555
C36_2 C34_2 1_555 1_555
H27_2 C36_2 1_555 1_555
C37_2 C35_2 1_555 1_555
C38_2 C37_2 1_555 1_555
C39_2 C38_2 1_555 1_555
H28_2 C39_2 1_555 1_555
C40_2 C39_2 1_555 1_555
H29_2 C40_2 1_555 1_555
C41_2 C40_2 1_555 1_555
C42_2 C41_2 1_555 1_555
H30_2 C42_2 1_555 1_555
C43_2 C38_2 1_555 1_555
H31_2 C43_2 1_555 1_555
C44_2 C41_2 1_555 1_555
Cd8 O8_2 1_555 1_555
O8_2 C44_2 1_555 1_555
O37 C44_2 1_555 1_555
C129_2 H87_2 1_555 1_555
C130_2 C129_2 1_555 1_555
H88_2 C130_2 1_555 1_555
C131_2 C128_2 1_555 1_555
C132_2 C131_2 1_555 1_555
H89_2 C132_2 1_555 1_555
C133_2 C132_2 1_555 1_555
H90_2 C133_2 1_555 1_555
C134_2 C130_2 1_555 1_555
C135_2 C134_2 1_555 1_555
C136_2 C135_2 1_555 1_555
H91_2 C136_2 1_555 1_555
C137_2 C136_2 1_555 1_555
H92_2 C137_2 1_555 1_555
C138_2 C137_2 1_555 1_555
C139_2 C138_2 1_555 1_555
H93_2 C139_2 1_555 1_555
C140_2 C135_2 1_555 1_555
H94_2 C140_2 1_555 1_555
C141_2 C138_2 1_555 1_555
C142_2 C128_2 1_555 1_555
C143_2 C142_2 1_555 1_555
C144_2 C143_2 1_555 1_555
H95_2 C144_2 1_555 1_555
C145_2 C143_2 1_555 1_555
H96_2 C145_2 1_555 1_555
C146_2 C144_2 1_555 1_555
H97_2 C146_2 1_555 1_555
C147_2 C145_2 1_555 1_555
H98_2 C147_2 1_555 1_555
C148_2 C146_2 1_555 1_555
C149_2 C148_2 1_555 1_555
C150_2 C149_2 1_555 1_555
H99_2 C150_2 1_555 1_555
C151_2 C150_2 1_555 1_555
H100_2 C151_2 1_555 1_555
C152_2 C151_2 1_555 1_555
C153_2 C152_2 1_555 1_555
H101_2 C153_2 1_555 1_555
C154_2 C149_2 1_555 1_555
H102_2 C154_2 1_555 1_555
C155_2 C152_2 1_555 1_555
Cd18 O24_2 1_555 1_555
O24_2 C141_2 1_555 1_555
O25_2 C141_2 1_555 1_555
O26_2 Cd18 1_555 1_555
O27_2 Cd8 1_555 1_555
O38 C155_2 1_555 1_555
Cd13_2 O25_2 1_555 1_555
O31_2 Cd18 1_555 1_555
O33_2 Cd18 1_555 1_555
C36_2 C37_2 1_555 1_555
C42_2 C43_2 1_555 1_555
C129_2 C131_2 1_555 1_555
C133_2 C134_2 1_555 1_555
C139_2 C140_2 1_555 1_555
C147_2 C148_2 1_555 1_555
C153_2 C154_2 1_555 1_555
C155_2 O27_2 1_555 1_555
Cd13_2 O31_2 1_555 1_555
O26_2 H113_2 1_555 1_555
O26_2 H114_2 1_555 1_555
C71_3 C72_3 1_555 1_555
C72_3 H48_3 1_555 1_555
C73_3 C72_3 1_555 1_555
H49_3 C73_3 1_555 1_555
C74_3 C73_3 1_555 1_555
C75_3 C74_3 1_555 1_555
H50_3 C75_3 1_555 1_555
C76_3 C71_3 1_555 1_555
H51_3 C76_3 1_555 1_555
C77_3 C74_3 1_555 1_555
C78_3 C77_3 1_555 1_555
H52_3 C78_3 1_555 1_555
C79_3 C78_3 1_555 1_555
H53_3 C79_3 1_555 1_555
C80_3 C79_3 1_555 1_555
C81_3 C80_3 1_555 1_555
H54_3 C81_3 1_555 1_555
C82_3 C77_3 1_555 1_555
H55_3 C82_3 1_555 1_555
C83_3 C80_3 1_555 1_555
O14_2 C83_3 1_555 1_555
O15 C83_3 1_555 1_555
C98_3 C99_3 1_555 1_555
C99_3 H64_3 1_555 1_555
C100_3 C99_3 1_555 1_555
H65_3 C100_3 1_555 1_555
C101_3 C100_3 1_555 1_555
C102_3 C101_3 1_555 1_555
H66_3 C102_3 1_555 1_555
C103_3 C98_3 1_555 1_555
H67_3 C103_3 1_555 1_555
C104_3 C101_3 1_555 1_555
C105_3 C104_3 1_555 1_555
H68_3 C105_3 1_555 1_555
C106_3 C105_3 1_555 1_555
H69_3 C106_3 1_555 1_555
C107_3 C106_3 1_555 1_555
C108_3 C107_3 1_555 1_555
H70_3 C108_3 1_555 1_555
C109_3 C104_3 1_555 1_555
H71_3 C109_3 1_555 1_555
C110_3 C107_3 1_555 1_555
O18_2 C110_3 1_555 1_555
O19 C110_3 1_555 1_555
Cd8_3 O18_2 1_555 1_555
Cd8_2 O14_2 1_555 1_555
Cd19 O15 1_555 1_555
Cd20 O19 1_555 1_555
C75_3 C76_3 1_555 1_555
C81_3 C82_3 1_555 1_555
O15 Cd8_2 1_555 1_555
C102_3 C103_3 1_555 1_555
C108_3 C109_3 1_555 1_555
O19 Cd8_3 1_555 1_555
C1_3 H1_3 1_555 1_555
H2_3 C1_3 1_555 1_555
H3_3 C1_3 1_555 1_555
C2_3 H4_3 1_555 1_555
H5_3 C2_3 1_555 1_555
H6_3 C2_3 1_555 1_555
C3_3 H7_3 1_555 1_555
C4_3 C5_3 1_555 1_555
C5_3 C6_3 1_555 1_555
C6_3 H8_3 1_555 1_555
C7_3 C6_3 1_555 1_555
H9_3 C7_3 1_555 1_555
C8_3 C7_3 1_555 1_555
C9_3 C8_3 1_555 1_555
H10_3 C9_3 1_555 1_555
C10_3 C5_3 1_555 1_555
H11_3 C10_3 1_555 1_555
C11_3 C8_3 1_555 1_555
C12_3 C11_3 1_555 1_555
H12_3 C12_3 1_555 1_555
C13_3 C12_3 1_555 1_555
H13_3 C13_3 1_555 1_555
C14_3 C13_3 1_555 1_555
C15_3 C14_3 1_555 1_555
H14_3 C15_3 1_555 1_555
C16_3 C11_3 1_555 1_555
H15_3 C16_3 1_555 1_555
C17_3 C14_3 1_555 1_555
C18_3 H16_3 1_555 1_555
C19_3 C18_3 1_555 1_555
H17_3 C19_3 1_555 1_555
C20_3 C17_3 1_555 1_555
C21_3 C20_3 1_555 1_555
H18_3 C21_3 1_555 1_555
C22_3 C21_3 1_555 1_555
H19_3 C22_3 1_555 1_555
C23_3 C19_3 1_555 1_555
C24_3 C23_3 1_555 1_555
C25_3 C24_3 1_555 1_555
H20_3 C25_3 1_555 1_555
C26_3 C25_3 1_555 1_555
H21_3 C26_3 1_555 1_555
C27_3 C26_3 1_555 1_555
C28_3 C27_3 1_555 1_555
H22_3 C28_3 1_555 1_555
C29_3 C24_3 1_555 1_555
H23_3 C29_3 1_555 1_555
C30_3 C27_3 1_555 1_555
C31_3 C17_3 1_555 1_555
C32_3 C31_3 1_555 1_555
C33_3 C32_3 1_555 1_555
H24_3 C33_3 1_555 1_555
C34_3 C32_3 1_555 1_555
C35_3 C33_3 1_555 1_555
H26_3 C35_3 1_555 1_555
C37_3 C35_3 1_555 1_555
C38_3 C37_3 1_555 1_555
C39_3 C38_3 1_555 1_555
H28_3 C39_3 1_555 1_555
C40_3 C39_3 1_555 1_555
H29_3 C40_3 1_555 1_555
C45_3 C31_3 1_555 1_555
C46_3 C45_3 1_555 1_555
H32_3 C46_3 1_555 1_555
C47_3 C46_3 1_555 1_555
C48_3 C47_3 1_555 1_555
C49_3 C48_3 1_555 1_555
H34_3 C49_3 1_555 1_555
C50_3 C45_3 1_555 1_555
H35_3 C50_3 1_555 1_555
C51_3 C48_3 1_555 1_555
C55_3 C54_3 1_555 1_555
H38_3 C55_3 1_555 1_555
C56_3 C51_3 1_555 1_555
H39_3 C56_3 1_555 1_555
C58_3 C60_3 1_555 1_555
C59_3 H40_3 1_555 1_555
C60_3 C59_3 1_555 1_555
C61_3 C60_3 1_555 1_555
H41_3 C61_3 1_555 1_555
C62_3 C61_3 1_555 1_555
H42_3 C62_3 1_555 1_555
C63_3 C62_3 1_555 1_555
C64_3 C59_3 1_555 1_555
H43_3 C64_3 1_555 1_555
C65_3 C63_3 1_555 1_555
C66_3 C65_3 1_555 1_555
H44_3 C66_3 1_555 1_555
C67_3 C66_3 1_555 1_555
H45_3 C67_3 1_555 1_555
C68_3 C67_3 1_555 1_555
C69_3 C68_3 1_555 1_555
H46_3 C69_3 1_555 1_555
C70_3 C65_3 1_555 1_555
H47_3 C70_3 1_555 1_555
C84_3 C68_3 1_555 1_555
Cd8_2 O8_3 1_555 1_555
Cd19_2 O5_3 1_555 1_555
N1_3 C1_3 1_555 1_555
O31_2 C3_3 1_555 1_555
O2_3 Cd13_2 1_555 1_555
O33_2 C4_3 1_555 1_555
O4_3 C4_3 1_555 1_555
O5_3 C30_3 1_555 1_555
O35_2 C30_3 1_555 1_555
O7_3 Cd19_2 1_555 1_555
O12_2 C58_3 1_555 1_555
O13_3 C58_3 1_555 1_555
C85_3 C87_3 1_555 1_555
C86_3 H56_3 1_555 1_555
C87_3 C86_3 1_555 1_555
C88_3 C87_3 1_555 1_555
H57_3 C88_3 1_555 1_555
C89_3 C88_3 1_555 1_555
H58_3 C89_3 1_555 1_555
C90_3 C89_3 1_555 1_555
C91_3 C86_3 1_555 1_555
H59_3 C91_3 1_555 1_555
C92_3 C90_3 1_555 1_555
C93_3 C92_3 1_555 1_555
H60_3 C93_3 1_555 1_555
C94_3 C93_3 1_555 1_555
H61_3 C94_3 1_555 1_555
C95_3 C94_3 1_555 1_555
C96_3 C95_3 1_555 1_555
H62_3 C96_3 1_555 1_555
C97_3 C92_3 1_555 1_555
H63_3 C97_3 1_555 1_555
C111_3 C84_3 1_555 1_555
O16 C85_3 1_555 1_555
O17_2 C85_3 1_555 1_555
H98_3 C147_3 1_555 1_555
C153_3 C152_3 1_555 1_555
H101_3 C153_3 1_555 1_555
H102_3 C154_3 1_555 1_555
C155_3 C152_3 1_555 1_555
H107_3 C163_3 1_555 1_555
C164_3 C163_3 1_555 1_555
H108_3 C164_3 1_555 1_555
O28_2 C155_3 1_555 1_555
O29_2 Cd7_2 1_555 1_555
Cd7_3 O16 1_555 1_555
Cd13 O12_2 1_555 1_555
Cd14 O16 1_555 1_555
Cd19 O28_2 1_555 1_555
O38_2 Cd19_2 1_555 1_555
O40_2 Cd13_2 1_555 1_555
O41_2 Cd13_2 1_555 1_555
O48_2 Cd19_2 1_555 1_555
C2_3 N1_3 1_555 1_555
C3_3 N1_3 1_555 1_555
C9_3 C10_3 1_555 1_555
C15_3 C16_3 1_555 1_555
C18_3 C20_3 1_555 1_555
C22_3 C23_3 1_555 1_555
C28_3 C29_3 1_555 1_555
C49_3 C50_3 1_555 1_555
C55_3 C56_3 1_555 1_555
C63_3 C64_3 1_555 1_555
C69_3 C70_3 1_555 1_555
Cd7_2 O11_3 1_555 1_555
Cd7_2 O12_2 1_555 1_555
Cd7_2 O13_3 1_555 1_555
Cd13_2 O4_3 1_555 1_555
C90_3 C91_3 1_555 1_555
C95_3 C111_3 1_555 1_555
C96_3 C97_3 1_555 1_555
O17_2 Cd7_3 1_555 1_555
C153_3 C154_3 1_555 1_555
C168_3 O29_2 1_555 1_555
O29_2 Cd13 1_555 1_555
O7_3 H115_3 1_555 1_555
O7_3 H116_3 1_555 1_555
O2_3 H117_2 1_555 1_555
O2_3 H118_3 1_555 1_555
C112_3 H72_3 1_555 1_555
H73_3 C112_3 1_555 1_555
H74_3 C112_3 1_555 1_555
C113_3 H75_3 1_555 1_555
H76_3 C113_3 1_555 1_555
H77_3 C113_3 1_555 1_555
C114_3 H78_3 1_555 1_555
C115_3 C116_3 1_555 1_555
C116_3 C117_3 1_555 1_555
C117_3 H79_3 1_555 1_555
C118_3 C117_3 1_555 1_555
H80_3 C118_3 1_555 1_555
C119_3 C118_3 1_555 1_555
C120_3 C119_3 1_555 1_555
H81_3 C120_3 1_555 1_555
C121_3 C116_3 1_555 1_555
H82_3 C121_3 1_555 1_555
C122_3 C119_3 1_555 1_555
C123_3 C122_3 1_555 1_555
H83_3 C123_3 1_555 1_555
C124_3 C123_3 1_555 1_555
H84_3 C124_3 1_555 1_555
C129_3 H87_3 1_555 1_555
C130_3 C129_3 1_555 1_555
H88_3 C130_3 1_555 1_555
H90_3 C133_3 1_555 1_555
C134_3 C130_3 1_555 1_555
C135_3 C134_3 1_555 1_555
C136_3 C135_3 1_555 1_555
H91_3 C136_3 1_555 1_555
C137_3 C136_3 1_555 1_555
H92_3 C137_3 1_555 1_555
C138_3 C137_3 1_555 1_555
C139_3 C138_3 1_555 1_555
H93_3 C139_3 1_555 1_555
C140_3 C135_3 1_555 1_555
H94_3 C140_3 1_555 1_555
C141_3 C138_3 1_555 1_555
Cd20_2 O24_3 1_555 1_555
N2_3 C112_3 1_555 1_555
O32_2 C114_3 1_555 1_555
O21_3 Cd14_2 1_555 1_555
O34_2 C115_3 1_555 1_555
O23_3 C115_3 1_555 1_555
O24_3 C141_3 1_555 1_555
O36_2 C141_3 1_555 1_555
O26_3 Cd20_2 1_555 1_555
O37_2 Cd20_2 1_555 1_555
O39_2 Cd14_2 1_555 1_555
O43_2 Cd14_2 1_555 1_555
O50_2 Cd20_2 1_555 1_555
C113_3 N2_3 1_555 1_555
C114_3 N2_3 1_555 1_555
C120_3 C121_3 1_555 1_555
C133_3 C134_3 1_555 1_555
C139_3 C140_3 1_555 1_555
Cd14_2 O23_3 1_555 1_555
O21_3 H111_3 1_555 1_555
O21_3 H112_3 1_555 1_555
O26_3 H113_3 1_555 1_555
O26_3 H114_3 1_555 1_555
H27_3 C36_3 1_555 1_555
C42_3 C41_3 1_555 1_555
H30_3 C42_3 1_555 1_555
H31_3 C43_3 1_555 1_555
C44_3 C41_3 1_555 1_555
H36_3 C52_3 1_555 1_555
C53_3 C52_3 1_555 1_555
H37_3 C53_3 1_555 1_555
Cd7_3 O10_2 1_555 1_555
O9_2 C44_3 1_555 1_555
O10_2 C57_3 1_555 1_555
C126_3 C125_3 1_555 1_555
H85_3 C126_3 1_555 1_555
H86_3 C127_3 1_555 1_555
C128_3 C125_3 1_555 1_555
C131_3 C128_3 1_555 1_555
C132_3 C131_3 1_555 1_555
H89_3 C132_3 1_555 1_555
C142_3 C128_3 1_555 1_555
C143_3 C142_3 1_555 1_555
C144_3 C143_3 1_555 1_555
H95_3 C144_3 1_555 1_555
C145_3 C143_3 1_555 1_555
C146_3 C144_3 1_555 1_555
H97_3 C146_3 1_555 1_555
C148_3 C146_3 1_555 1_555
C149_3 C148_3 1_555 1_555
C150_3 C149_3 1_555 1_555
H99_3 C150_3 1_555 1_555
C151_3 C150_3 1_555 1_555
H100_3 C151_3 1_555 1_555
C156_3 C142_3 1_555 1_555
C157_3 C156_3 1_555 1_555
H103_3 C157_3 1_555 1_555
C158_3 C157_3 1_555 1_555
C159_3 C158_3 1_555 1_555
C160_3 C159_3 1_555 1_555
H105_3 C160_3 1_555 1_555
C161_3 C156_3 1_555 1_555
H106_3 C161_3 1_555 1_555
C162_3 C159_3 1_555 1_555
C166_3 C165_3 1_555 1_555
H109_3 C166_3 1_555 1_555
C167_3 C162_3 1_555 1_555
H110_3 C167_3 1_555 1_555
O27_3 Cd8_3 1_555 1_555
O30_3 Cd7_3 1_555 1_555
Cd14 O10_2 1_555 1_555
Cd20 O9_2 1_555 1_555
C42_3 C43_3 1_555 1_555
C126_3 C127_3 1_555 1_555
C160_3 C161_3 1_555 1_555
C166_3 C167_3 1_555 1_555
C20_4 C17_4 1_555 1_555
C21_4 C20_4 1_555 1_555
H18_4 C21_4 1_555 1_555
C31_4 C17_4 1_555 1_555
C32_4 C31_4 1_555 1_555
C33_4 C32_4 1_555 1_555
H24_4 C33_4 1_555 1_555
C34_4 C32_4 1_555 1_555
H25_4 C34_4 1_555 1_555
C35_4 C33_4 1_555 1_555
H26_4 C35_4 1_555 1_555
C36_4 C34_4 1_555 1_555
H27_4 C36_4 1_555 1_555
C37_4 C35_4 1_555 1_555
C38_4 C37_4 1_555 1_555
C39_4 C38_4 1_555 1_555
H28_4 C39_4 1_555 1_555
C40_4 C39_4 1_555 1_555
H29_4 C40_4 1_555 1_555
C41_4 C40_4 1_555 1_555
C42_4 C41_4 1_555 1_555
H30_4 C42_4 1_555 1_555
C43_4 C38_4 1_555 1_555
H31_4 C43_4 1_555 1_555
C44_4 C41_4 1_555 1_555
Cd2_3 O8_4 1_555 1_555
O8_4 C44_4 1_555 1_555
O37_2 C44_4 1_555 1_555
C129_4 H87_4 1_555 1_555
C130_4 C129_4 1_555 1_555
H88_4 C130_4 1_555 1_555
C131_4 C128_4 1_555 1_555
C132_4 C131_4 1_555 1_555
H89_4 C132_4 1_555 1_555
C133_4 C132_4 1_555 1_555
H90_4 C133_4 1_555 1_555
C134_4 C130_4 1_555 1_555
C135_4 C134_4 1_555 1_555
C136_4 C135_4 1_555 1_555
H91_4 C136_4 1_555 1_555
C137_4 C136_4 1_555 1_555
H92_4 C137_4 1_555 1_555
C138_4 C137_4 1_555 1_555
C139_4 C138_4 1_555 1_555
H93_4 C139_4 1_555 1_555
C140_4 C135_4 1_555 1_555
H94_4 C140_4 1_555 1_555
C141_4 C138_4 1_555 1_555
C142_4 C128_4 1_555 1_555
C143_4 C142_4 1_555 1_555
C144_4 C143_4 1_555 1_555
H95_4 C144_4 1_555 1_555
C145_4 C143_4 1_555 1_555
H96_4 C145_4 1_555 1_555
C146_4 C144_4 1_555 1_555
H97_4 C146_4 1_555 1_555
C147_4 C145_4 1_555 1_555
H98_4 C147_4 1_555 1_555
C148_4 C146_4 1_555 1_555
C149_4 C148_4 1_555 1_555
C150_4 C149_4 1_555 1_555
H99_4 C150_4 1_555 1_555
C151_4 C150_4 1_555 1_555
H100_4 C151_4 1_555 1_555
C152_4 C151_4 1_555 1_555
C153_4 C152_4 1_555 1_555
H101_4 C153_4 1_555 1_555
C154_4 C149_4 1_555 1_555
H102_4 C154_4 1_555 1_555
C155_4 C152_4 1_555 1_555
Cd20 O24_4 1_555 1_555
O24_4 C141_4 1_555 1_555
O36 C141_4 1_555 1_555
O26_4 Cd20 1_555 1_555
O27_4 Cd2_3 1_555 1_555
O38_2 C155_4 1_555 1_555
O45_2 Cd2_3 1_555 1_555
O46_2 Cd2_3 1_555 1_555
O48_2 Cd2_3 1_555 1_555
O50_2 Cd2_3 1_555 1_555
C36_4 C37_4 1_555 1_555
C42_4 C43_4 1_555 1_555
C129_4 C131_4 1_555 1_555
C133_4 C134_4 1_555 1_555
C139_4 C140_4 1_555 1_555
C147_4 C148_4 1_555 1_555
C153_4 C154_4 1_555 1_555
C155_4 O27_4 1_555 1_555
O26_4 H113_4 1_555 1_555
O26_4 H114_4 1_555 1_555
C18_4 H16_4 1_555 1_555
C19_4 C18_4 1_555 1_555
H17_4 C19_4 1_555 1_555
H19_4 C22_4 1_555 1_555
C23_4 C19_4 1_555 1_555
C24_4 C23_4 1_555 1_555
C25_4 C24_4 1_555 1_555
H20_4 C25_4 1_555 1_555
C26_4 C25_4 1_555 1_555
H21_4 C26_4 1_555 1_555
C27_4 C26_4 1_555 1_555
C28_4 C27_4 1_555 1_555
H22_4 C28_4 1_555 1_555
C29_4 C24_4 1_555 1_555
H23_4 C29_4 1_555 1_555
C30_4 C27_4 1_555 1_555
Cd19 O5_4 1_555 1_555
O5_4 C30_4 1_555 1_555
O35 C30_4 1_555 1_555
O7_4 Cd19 1_555 1_555
C22_4 C23_4 1_555 1_555
C28_4 C29_4 1_555 1_555
O7_4 H115_4 1_555 1_555
O7_4 H116_4 1_555 1_555
C15_4 C14_4 1_555 1_555
H14_4 C15_4 1_555 1_555
H15_4 C16_4 1_555 1_555
C46_4 C45_4 1_555 1_555
H32_4 C46_4 1_555 1_555
C47_4 C46_4 1_555 1_555
H33_4 C47_4 1_555 1_555
C48_4 C47_4 1_555 1_555
C49_4 C48_4 1_555 1_555
H34_4 C49_4 1_555 1_555
C50_4 C45_4 1_555 1_555
H35_4 C50_4 1_555 1_555
C51_4 C48_4 1_555 1_555
C52_4 C51_4 1_555 1_555
H36_4 C52_4 1_555 1_555
C53_4 C52_4 1_555 1_555
H37_4 C53_4 1_555 1_555
C54_4 C53_4 1_555 1_555
C55_4 C54_4 1_555 1_555
H38_4 C55_4 1_555 1_555
C56_4 C51_4 1_555 1_555
H39_4 C56_4 1_555 1_555
C57_4 C54_4 1_555 1_555
C58_4 C60_4 1_555 1_555
C59_4 H40_4 1_555 1_555
C60_4 C59_4 1_555 1_555
C61_4 C60_4 1_555 1_555
H41_4 C61_4 1_555 1_555
C62_4 C61_4 1_555 1_555
H42_4 C62_4 1_555 1_555
C63_4 C62_4 1_555 1_555
C64_4 C59_4 1_555 1_555
H43_4 C64_4 1_555 1_555
C65_4 C63_4 1_555 1_555
C66_4 C65_4 1_555 1_555
H44_4 C66_4 1_555 1_555
C67_4 C66_4 1_555 1_555
H45_4 C67_4 1_555 1_555
C68_4 C67_4 1_555 1_555
C69_4 C68_4 1_555 1_555
H46_4 C69_4 1_555 1_555
C70_4 C65_4 1_555 1_555
H47_4 C70_4 1_555 1_555
C71_4 C72_4 1_555 1_555
C72_4 H48_4 1_555 1_555
C73_4 C72_4 1_555 1_555
H49_4 C73_4 1_555 1_555
C74_4 C73_4 1_555 1_555
C75_4 C74_4 1_555 1_555
H50_4 C75_4 1_555 1_555
C76_4 C71_4 1_555 1_555
H51_4 C76_4 1_555 1_555
C77_4 C74_4 1_555 1_555
C78_4 C77_4 1_555 1_555
H52_4 C78_4 1_555 1_555
C79_4 C78_4 1_555 1_555
H53_4 C79_4 1_555 1_555
C80_4 C79_4 1_555 1_555
C81_4 C80_4 1_555 1_555
H54_4 C81_4 1_555 1_555
C82_4 C77_4 1_555 1_555
H55_4 C82_4 1_555 1_555
C83_4 C80_4 1_555 1_555
C84_4 C68_4 1_555 1_555
Cd1_3 O39_2 1_555 1_555
O39_2 C57_4 1_555 1_555
O11_4 C57_4 1_555 1_555
O41_2 C58_4 1_555 1_555
O13_4 C58_4 1_555 1_555
O45_2 C83_4 1_555 1_555
O48_2 C83_4 1_555 1_555
C112_4 H72_4 1_555 1_555
H73_4 C112_4 1_555 1_555
H74_4 C112_4 1_555 1_555
C113_4 H75_4 1_555 1_555
H76_4 C113_4 1_555 1_555
H77_4 C113_4 1_555 1_555
C114_4 H78_4 1_555 1_555
C115_4 C116_4 1_555 1_555
C116_4 C117_4 1_555 1_555
C117_4 H79_4 1_555 1_555
C118_4 C117_4 1_555 1_555
H80_4 C118_4 1_555 1_555
C119_4 C118_4 1_555 1_555
C120_4 C119_4 1_555 1_555
H81_4 C120_4 1_555 1_555
C121_4 C116_4 1_555 1_555
H82_4 C121_4 1_555 1_555
C122_4 C119_4 1_555 1_555
C123_4 C122_4 1_555 1_555
H83_4 C123_4 1_555 1_555
C124_4 C123_4 1_555 1_555
H84_4 C124_4 1_555 1_555
C125_4 C124_4 1_555 1_555
C126_4 C125_4 1_555 1_555
H85_4 C126_4 1_555 1_555
C127_4 C122_4 1_555 1_555
H86_4 C127_4 1_555 1_555
C157_4 C156_4 1_555 1_555
H103_4 C157_4 1_555 1_555
C158_4 C157_4 1_555 1_555
H104_4 C158_4 1_555 1_555
C159_4 C158_4 1_555 1_555
C160_4 C159_4 1_555 1_555
H105_4 C160_4 1_555 1_555
C161_4 C156_4 1_555 1_555
H106_4 C161_4 1_555 1_555
C162_4 C159_4 1_555 1_555
C163_4 C162_4 1_555 1_555
H107_4 C163_4 1_555 1_555
C164_4 C163_4 1_555 1_555
H108_4 C164_4 1_555 1_555
C165_4 C164_4 1_555 1_555
C166_4 C165_4 1_555 1_555
H109_4 C166_4 1_555 1_555
C167_4 C162_4 1_555 1_555
H110_4 C167_4 1_555 1_555
C168_4 C165_4 1_555 1_555
N2_4 C112_4 1_555 1_555
O32 C114_4 1_555 1_555
O21_4 Cd14 1_555 1_555
O34 C115_4 1_555 1_555
O23_4 C115_4 1_555 1_555
O40_2 Cd1_3 1_555 1_555
O30_4 Cd1_3 1_555 1_555
O43_2 Cd1_3 1_555 1_555
O44_2 Cd1_3 1_555 1_555
C15_4 C16_4 1_555 1_555
C49_4 C50_4 1_555 1_555
C55_4 C56_4 1_555 1_555
C63_4 C64_4 1_555 1_555
C69_4 C70_4 1_555 1_555
C71_4 C84_4 1_555 1_555
C75_4 C76_4 1_555 1_555
C81_4 C82_4 1_555 1_555
Cd1_3 O11_4 1_555 1_555
Cd1_3 O41_2 1_555 1_555
Cd1_3 O13_4 1_555 1_555
C113_4 N2_4 1_555 1_555
C114_4 N2_4 1_555 1_555
C120_4 C121_4 1_555 1_555
C126_4 C127_4 1_555 1_555
C160_4 C161_4 1_555 1_555
C166_4 C167_4 1_555 1_555
C168_4 O40_2 1_555 1_555
C168_4 O30_4 1_555 1_555
Cd14 O23_4 1_555 1_555
O21_4 H112_4 1_555 1_555
C1_4 H1_4 1_555 1_555
H2_4 C1_4 1_555 1_555
H3_4 C1_4 1_555 1_555
C2_4 H4_4 1_555 1_555
H5_4 C2_4 1_555 1_555
H6_4 C2_4 1_555 1_555
C3_4 H7_4 1_555 1_555
C4_4 C5_4 1_555 1_555
C5_4 C6_4 1_555 1_555
C6_4 H8_4 1_555 1_555
C7_4 C6_4 1_555 1_555
H9_4 C7_4 1_555 1_555
C8_4 C7_4 1_555 1_555
C9_4 C8_4 1_555 1_555
H10_4 C9_4 1_555 1_555
C10_4 C5_4 1_555 1_555
H11_4 C10_4 1_555 1_555
C11_4 C8_4 1_555 1_555
C12_4 C11_4 1_555 1_555
H12_4 C12_4 1_555 1_555
C13_4 C12_4 1_555 1_555
H13_4 C13_4 1_555 1_555
N1_4 C1_4 1_555 1_555
O31 C3_4 1_555 1_555
O2_4 Cd13 1_555 1_555
O33 C4_4 1_555 1_555
O4_4 C4_4 1_555 1_555
C2_4 N1_4 1_555 1_555
C3_4 N1_4 1_555 1_555
C9_4 C10_4 1_555 1_555
Cd13 O4_4 1_555 1_555
O2_4 H118_4 1_555 1_555
C85_4 C87_4 1_555 1_555
C86_4 H56_4 1_555 1_555
C87_4 C86_4 1_555 1_555
C88_4 C87_4 1_555 1_555
H57_4 C88_4 1_555 1_555
C89_4 C88_4 1_555 1_555
H58_4 C89_4 1_555 1_555
C90_4 C89_4 1_555 1_555
C91_4 C86_4 1_555 1_555
H59_4 C91_4 1_555 1_555
C92_4 C90_4 1_555 1_555
C93_4 C92_4 1_555 1_555
H60_4 C93_4 1_555 1_555
C94_4 C93_4 1_555 1_555
H61_4 C94_4 1_555 1_555
C95_4 C94_4 1_555 1_555
C96_4 C95_4 1_555 1_555
H62_4 C96_4 1_555 1_555
C97_4 C92_4 1_555 1_555
H63_4 C97_4 1_555 1_555
C98_4 C99_4 1_555 1_555
C99_4 H64_4 1_555 1_555
C100_4 C99_4 1_555 1_555
H65_4 C100_4 1_555 1_555
C101_4 C100_4 1_555 1_555
C102_4 C101_4 1_555 1_555
H66_4 C102_4 1_555 1_555
C103_4 C98_4 1_555 1_555
H67_4 C103_4 1_555 1_555
C104_4 C101_4 1_555 1_555
C105_4 C104_4 1_555 1_555
H68_4 C105_4 1_555 1_555
C106_4 C105_4 1_555 1_555
H69_4 C106_4 1_555 1_555
C107_4 C106_4 1_555 1_555
C108_4 C107_4 1_555 1_555
H70_4 C108_4 1_555 1_555
C109_4 C104_4 1_555 1_555
H71_4 C109_4 1_555 1_555
C110_4 C107_4 1_555 1_555
O43_2 C85_4 1_555 1_555
O44_2 C85_4 1_555 1_555
O46_2 C110_4 1_555 1_555
O50_2 C110_4 1_555 1_555
C90_4 C91_4 1_555 1_555
C95_4 C111_4 1_555 1_555
C96_4 C97_4 1_555 1_555
C98_4 C111_4 1_555 1_555
C102_4 C103_4 1_555 1_555
C108_4 C109_4 1_555 1_555

#END
