
###############################################################################
#
# This file contains modified crystal structure data generated from the
# MOF subset of the Cambridge Structural Database (CSD) v543 
# hosted by the Cambridge Crystallographic Data Centre (CCDC).
#
# This work is licensed under the Creative Commons
# Attribution-NonCommercial-ShareAlike 4.0 International License.
# To view a copy of this license, visit
# http://creativecommons.org/licenses/by-nc-sa/4.0/
# or send a letter to
# Creative Commons, PO Box 1866, Mountain View, CA 94042, USA.
#
# CIF created using the CSD Python API on 29 September 2022
# The structure has been converted into the P1 space group
# The structure has a 3D framework
# The original CSD entry PILMUV is in the monoclinic crystal system
# The framework has been calculated to contain at least 10.0% void space
# The void calculation uses a probe of radius 1.32A, grid spacing 0.4
#
###############################################################################

data_PILMUV
_chemical_formula_moiety         '(C328 H216 Cd16 N48 O88)n'
_symmetry_cell_setting           triclinic
_symmetry_space_group_name_H-M   'P 1'
_symmetry_Int_Tables_number      1
_space_group_name_Hall           'P 1'
loop_
_symmetry_equiv_pos_site_id
_symmetry_equiv_pos_as_xyz
1 x,y,z
_cell_length_a                   25.7978(13)
_cell_length_b                   14.0191(5)
_cell_length_c                   26.2388(9)
_cell_angle_alpha                90
_cell_angle_beta                 114.875(3)
_cell_angle_gamma                90
_cell_volume                     8609.2
loop_
_atom_site_label
_atom_site_type_symbol
_atom_site_fract_x
_atom_site_fract_y
_atom_site_fract_z
H4 H 0.011606 0.348428 0.063195
C2 C 0.0122(4) 0.3205(8) 0.9873(3)
H5 H 0.047434 0.342672 0.990552
C5 C 0.0195(3) 0.2377(5) 0.8826(2)
H7 H 0.052610 0.224982 0.914758
C6 C 0.0189(3) 0.2284(5) 0.8293(2)
H8 H 0.051771 0.209197 0.825858
C10 C 0.0148(2) 0.2611(4) 0.7147(2)
H11 H 0.052517 0.272391 0.739715
H12 H 0.014750 0.271042 0.637709
O7 O 0.8259(2) 0.0945(3) 0.48169(19)
O8 O 0.88083(18) 0.0487(3) 0.56587(18)
C34 C 0.8476(2) 0.0307(4) 0.5164(2)
C36 C 0.5584(3) 0.0091(6) 0.0209(3)
H23 H 0.597889 0.015048 0.035412
C39 C 0.5583(3) 0.0134(6) 0.1579(3)
H25 H 0.529269 0.054812 0.155606
Cd5 Cd 0.87059(2) 0.22199(2) 0.54380(2)
N1 N 0.9393(2) 0.2831(4) 0.0077(2)
C1 C 0.9921(4) 0.3230(7) 0.0274(3)
Cd8 Cd 0.87059(2) 0.27801(2) 0.04380(2)
Cd2 Cd 0.70904(2) 0.83580(3) 0.23805(2)
O1 O 0.44190(19) 0.4605(5) 0.1953(2)
O2 O 0.48222(17) 0.5129(3) 0.14141(17)
H1 H 0.447655 0.521183 0.118215
O3 O 0.6680(2) 0.7034(4) 0.2494(2)
O4 O 0.7244(2) 0.5770(4) 0.2711(2)
O5 O 0.7367(2) 0.8594(3) 0.32820(17)
O6 O 0.79660(19) 0.7374(3) 0.34320(18)
O9 O 0.85956(15) 0.3989(3) 0.53338(15)
O10 O 0.79905(18) 0.3048(3) 0.46903(19)
O11 O 0.80168(18) 0.2072(3) 0.58072(19)
H2 H 0.768401 0.231513 0.567161
H3 H 0.801181 0.156353 0.598141
N2 N 0.9704(2) 0.2788(4) 0.9411(2)
N3 N 0.9701(2) 0.2422(3) 0.72778(18)
N4 N 0.9360(2) 0.2403(3) 0.63555(18)
N5 N 0.6345(2) 0.9211(4) 0.1903(2)
N6 N 0.5663(2) 0.9752(4) 0.1140(2)
C3 C 0.9277(3) 0.2580(5) 0.9557(3)
H6 H 0.893657 0.229141 0.931708
C4 C 0.9700(3) 0.2663(5) 0.8868(2)
C7 C 0.9703(2) 0.2472(4) 0.7825(2)
C8 C 0.9210(3) 0.2740(5) 0.7874(2)
H9 H 0.887752 0.286032 0.755368
C9 C 0.9211(3) 0.2829(5) 0.8397(3)
H10 H 0.887764 0.300189 0.842983
C11 C 0.9936(3) 0.2600(4) 0.6584(2)
C12 C 0.9236(2) 0.2301(4) 0.6787(2)
H13 H 0.887233 0.216142 0.676028
C13 C 0.8161(2) 0.3871(3) 0.4886(2)
C14 C 0.7840(2) 0.4722(3) 0.4556(2)
C15 C 0.8060(2) 0.5636(3) 0.4722(2)
H14 H 0.839728 0.571301 0.504405
C16 C 0.7780(2) 0.6436(3) 0.44121(19)
C17 C 0.7264(2) 0.6300(3) 0.3947(2)
H15 H 0.706925 0.682817 0.374114
C18 C 0.7029(2) 0.5395(3) 0.3780(2)
C19 C 0.7325(2) 0.4613(3) 0.4089(2)
H16 H 0.717459 0.400423 0.398143
C20 C 0.6467(2) 0.5272(3) 0.3288(2)
C21 C 0.6022(2) 0.4809(4) 0.3356(2)
H17 H 0.608059 0.456985 0.370641
C22 C 0.5493(2) 0.4703(4) 0.2907(2)
H18 H 0.519715 0.440851 0.296228
C23 C 0.5400(2) 0.5028(4) 0.2379(2)
C24 C 0.5838(2) 0.5508(4) 0.2311(2)
H19 H 0.577795 0.574498 0.195947
C25 C 0.6360(2) 0.5637(4) 0.2757(2)
C26 C 0.4828(2) 0.4903(4) 0.1898(2)
C27 C 0.6804(3) 0.6183(5) 0.2645(2)
C28 C 0.8007(2) 0.7414(3) 0.4601(2)
C29 C 0.8244(2) 0.7634(3) 0.5169(2)
H20 H 0.829227 0.715188 0.542871
C30 C 0.8411(2) 0.8559(4) 0.5360(2)
H21 H 0.857666 0.868520 0.574313
C31 C 0.8333(2) 0.9286(3) 0.4984(2)
C32 C 0.8103(2) 0.9082(4) 0.4418(2)
H22 H 0.804845 0.957463 0.416270
C33 C 0.7951(2) 0.8160(4) 0.4219(2)
C35 C 0.7749(3) 0.8015(4) 0.3597(2)
C37 C 0.5324(3) 0.9890(5) 0.0564(3)
C38 C 0.4737(3) 0.9798(6) 0.0349(3)
H24 H 0.456243 0.966155 0.058732
C40 C 0.6000(3) 0.9799(6) 0.2046(3)
H26 H 0.604956 0.994040 0.240972
C41 C 0.6130(3) 0.9212(6) 0.1356(3)
H27 H 0.628323 0.888048 0.114407
Cd10 Cd 0.79096(2) 0.66420(3) 0.26195(2)
O24 O 0.7756(2) 0.9230(4) 0.2289(2)
O26 O 0.70340(19) 0.7626(3) 0.15680(18)
N14 N 0.9393(2) 0.2169(4) 0.5077(2)
O21 O 0.70095(18) 0.1952(3) 0.03097(19)
C60 C 0.6839(2) 0.1129(3) 0.0114(2)
C61 C 0.7160(2) 0.0278(3) 0.0444(2)
C66 C 0.7675(2) 0.0387(3) 0.0911(2)
H48 H 0.782541 0.099577 0.101857
C68 C 0.8978(2) 0.0191(4) 0.1644(2)
H49 H 0.891941 0.043015 0.129359
C69 C 0.9507(2) 0.0297(4) 0.2093(2)
H50 H 0.980285 0.059149 0.203772
O28 O 0.6741(2) 0.4055(3) 0.01831(19)
O2_2 O 0.98222(17) 0.0129(3) 0.64141(17)
H1_2 H 0.947655 0.021183 0.618215
C38_2 C 0.9737(3) 0.4798(6) 0.5349(3)
H24_2 H 0.956243 0.466155 0.558732
N7 N 0.8655(2) 0.5789(4) 0.3097(2)
N8 N 0.9337(2) 0.5248(4) 0.3860(2)
C42 C 0.9416(3) 0.4909(6) 0.4791(3)
H28 H 0.902111 0.484952 0.464588
C43 C 0.9676(3) 0.5110(5) 0.4436(3)
C45 C 0.9417(3) 0.4866(6) 0.3421(3)
H30 H 0.970731 0.445188 0.344394
C46 C 0.9000(3) 0.5201(6) 0.2954(3)
H31 H 0.895044 0.505960 0.259028
C47 C 0.8870(3) 0.5788(6) 0.3644(3)
H32 H 0.871677 0.611952 0.385593
O14 O 0.8320(2) 0.7966(4) 0.2506(2)
O16 O 0.7633(2) 0.6406(3) 0.17180(17)
C62 C 0.6940(2) 0.9364(3) 0.0278(2)
C63 C 0.7220(2) 0.8564(3) 0.05879(19)
C64 C 0.7736(2) 0.8700(3) 0.1053(2)
H47 H 0.793075 0.817183 0.125886
C65 C 0.7971(2) 0.9605(3) 0.1220(2)
C67 C 0.8533(2) 0.9728(3) 0.1712(2)
C70 C 0.9600(2) 0.9972(4) 0.2621(2)
C71 C 0.9162(2) 0.9492(4) 0.2689(2)
H51 H 0.922205 0.925502 0.304053
C72 C 0.8640(2) 0.9363(4) 0.2243(2)
C74 C 0.8196(3) 0.8817(5) 0.2355(2)
C75 C 0.6993(2) 0.7586(3) 0.0399(2)
C78 C 0.6667(2) 0.5714(3) 0.0016(2)
C79 C 0.6897(2) 0.5918(4) 0.0582(2)
H54 H 0.695155 0.542537 0.083730
C80 C 0.7049(2) 0.6840(4) 0.0781(2)
C82 C 0.7251(3) 0.6985(4) 0.1403(2)
O20 O 0.85956(15) 0.1011(3) 0.03338(15)
O22 O 0.80168(18) 0.2928(3) 0.08072(19)
H34 H 0.768401 0.268487 0.067161
H35 H 0.801181 0.343647 0.098141
N10 N 0.9704(2) 0.2212(4) 0.4411(2)
N11 N 0.9701(2) 0.2578(3) 0.22778(18)
N12 N 0.9360(2) 0.2597(3) 0.13555(18)
C48 C 0.9921(4) 0.1770(7) 0.5274(3)
C50 C 0.9277(3) 0.2420(5) 0.4557(3)
H38 H 0.893657 0.270859 0.431708
C51 C 0.9700(3) 0.2337(5) 0.3868(2)
C54 C 0.9703(2) 0.2528(4) 0.2825(2)
C55 C 0.9210(3) 0.2260(5) 0.2874(2)
H41 H 0.887752 0.213968 0.255368
C56 C 0.9211(3) 0.2171(5) 0.3397(3)
H42 H 0.887764 0.199811 0.342983
C58 C 0.9936(3) 0.2400(4) 0.1584(2)
C59 C 0.9236(2) 0.2699(4) 0.1787(2)
H45 H 0.887233 0.283858 0.176028
O30 O 0.88083(18) 0.4513(3) 0.06587(18)
H46 H 0.839728 0.928699 0.004405
C76 C 0.8244(2) 0.7366(3) 0.0169(2)
H52 H 0.829227 0.784812 0.042871
C77 C 0.8411(2) 0.6441(4) 0.0360(2)
H53 H 0.857666 0.631480 0.074313
C81 C 0.8476(2) 0.4693(4) 0.0164(2)
N7_2 N 0.3655(2) 0.0789(4) 0.8097(2)
N8_2 N 0.4337(2) 0.0248(4) 0.8860(2)
C43_2 C 0.4676(3) 0.0110(5) 0.9436(3)
C44 C 0.5263(3) 0.0202(6) 0.9651(3)
H29 H 0.543757 0.033845 0.941268
C46_2 C 0.4000(3) 0.0201(6) 0.7954(3)
H31_2 H 0.395044 0.005960 0.759028
C47_2 C 0.3870(3) 0.0788(6) 0.8644(3)
H32_2 H 0.371677 0.111952 0.885593
Cd3 Cd 0.12941(2) 0.77801(2) 0.45620(2)
Cd4 Cd 0.29096(2) 0.16420(3) 0.76195(2)
O12 O 0.55810(19) 0.5395(5) 0.8047(2)
O13 O 0.51778(17) 0.4871(3) 0.85859(17)
H33 H 0.552345 0.478817 0.881785
O14_2 O 0.3320(2) 0.2966(4) 0.7506(2)
O15 O 0.2756(2) 0.4230(4) 0.7289(2)
O16_2 O 0.2633(2) 0.1406(3) 0.67180(17)
O17 O 0.20340(19) 0.2626(3) 0.65680(18)
O20_2 O 0.14044(15) 0.6011(3) 0.46662(15)
O21_2 O 0.20095(18) 0.6952(3) 0.53097(19)
O22_2 O 0.19832(18) 0.7928(3) 0.41928(19)
H34_2 H 0.231599 0.768487 0.432839
H35_2 H 0.198819 0.843647 0.401859
N10_2 N 0.0296(2) 0.7212(4) 0.0589(2)
N11_2 N 0.0299(2) 0.7578(3) 0.27222(18)
N12_2 N 0.0640(2) 0.7597(3) 0.36445(18)
C50_2 C 0.0723(3) 0.7420(5) 0.0443(3)
H38_2 H 0.106343 0.770859 0.068292
C51_2 C 0.0300(3) 0.7337(5) 0.1132(2)
C54_2 C 0.0297(2) 0.7528(4) 0.2175(2)
C55_2 C 0.0790(3) 0.7260(5) 0.2126(2)
H41_2 H 0.112248 0.713968 0.244632
C56_2 C 0.0789(3) 0.7171(5) 0.1603(3)
H42_2 H 0.112236 0.699811 0.157017
C58_2 C 0.0064(3) 0.7400(4) 0.3416(2)
C59_2 C 0.0764(2) 0.7699(4) 0.3213(2)
H45_2 H 0.112767 0.783858 0.323972
C60_2 C 0.1839(2) 0.6129(3) 0.5114(2)
C61_2 C 0.2160(2) 0.5278(3) 0.5444(2)
C62_2 C 0.1940(2) 0.4364(3) 0.5278(2)
H46_2 H 0.160272 0.428699 0.495595
C63_2 C 0.2220(2) 0.3564(3) 0.55879(19)
C64_2 C 0.2736(2) 0.3700(3) 0.6053(2)
H47_2 H 0.293075 0.317183 0.625886
C65_2 C 0.2971(2) 0.4605(3) 0.6220(2)
C66_2 C 0.2675(2) 0.5387(3) 0.5911(2)
H48_2 H 0.282541 0.599577 0.601857
C67_2 C 0.3533(2) 0.4728(3) 0.6712(2)
C68_2 C 0.3978(2) 0.5191(4) 0.6644(2)
H49_2 H 0.391941 0.543015 0.629359
C69_2 C 0.4507(2) 0.5297(4) 0.7093(2)
H50_2 H 0.480285 0.559149 0.703772
C70_2 C 0.4600(2) 0.4972(4) 0.7621(2)
C71_2 C 0.4162(2) 0.4492(4) 0.7689(2)
H51_2 H 0.422205 0.425502 0.804053
C72_2 C 0.3640(2) 0.4363(4) 0.7243(2)
C73 C 0.5172(2) 0.5097(4) 0.8102(2)
C74_2 C 0.3196(3) 0.3817(5) 0.7355(2)
C75_2 C 0.1993(2) 0.2586(3) 0.5399(2)
C76_2 C 0.1756(2) 0.2366(3) 0.4831(2)
H52_2 H 0.170773 0.284812 0.457129
C77_2 C 0.1589(2) 0.1441(4) 0.4640(2)
H53_2 H 0.142334 0.131480 0.425687
C78_2 C 0.1667(2) 0.0714(3) 0.5016(2)
C79_2 C 0.1897(2) 0.0918(4) 0.5582(2)
H54_2 H 0.195155 0.042537 0.583730
C80_2 C 0.2049(2) 0.1840(4) 0.5781(2)
C82_2 C 0.2251(3) 0.1985(4) 0.6403(2)
Cd9 Cd 0.20904(2) 0.33580(3) 0.73805(2)
O23 O 0.2244(2) 0.0770(4) 0.7711(2)
O25 O 0.29660(19) 0.2374(3) 0.84320(18)
O28_2 O 0.1741(2) 0.9055(3) 0.51831(19)
O30_2 O 0.11917(18) 0.9513(3) 0.43413(18)
N13 N 0.0607(2) 0.7831(4) 0.4923(2)
N9 N 0.0607(2) 0.7169(4) 0.9923(2)
C48_2 C 0.0079(4) 0.6770(7) 0.9726(3)
Cd6 Cd 0.12941(2) 0.72199(2) 0.95620(2)
C42_2 C 0.4416(3) 0.9909(6) 0.9791(3)
H28_2 H 0.402111 0.984952 0.964588
C45_2 C 0.4417(3) 0.9866(6) 0.8421(3)
H30_2 H 0.470731 0.945188 0.844394
C81_2 C 0.1524(2) 0.9693(4) 0.4836(2)
O3_2 O 0.1680(2) 0.2034(4) 0.7494(2)
O5_2 O 0.2367(2) 0.3594(3) 0.82820(17)
O7_2 O 0.3259(2) 0.5945(3) 0.98169(19)
N5_2 N 0.1345(2) 0.4211(4) 0.6903(2)
N6_2 N 0.0663(2) 0.4752(4) 0.6140(2)
C15_2 C 0.3060(2) 0.0636(3) 0.9722(2)
C16_2 C 0.2780(2) 0.1436(3) 0.94121(19)
C17_2 C 0.2264(2) 0.1300(3) 0.8947(2)
H15_2 H 0.206925 0.182817 0.874114
C18_2 C 0.2029(2) 0.0395(3) 0.8780(2)
C20_2 C 0.1467(2) 0.0272(3) 0.8288(2)
C23_2 C 0.0400(2) 0.0028(4) 0.7379(2)
C24_2 C 0.0838(2) 0.0508(4) 0.7311(2)
H19_2 H 0.077795 0.074498 0.695947
C25_2 C 0.1360(2) 0.0637(4) 0.7757(2)
C27_2 C 0.1804(3) 0.1183(5) 0.7645(2)
C28_2 C 0.3007(2) 0.2414(3) 0.9601(2)
C31_2 C 0.3333(2) 0.4286(3) 0.9984(2)
C32_2 C 0.3103(2) 0.4082(4) 0.9418(2)
H22_2 H 0.304845 0.457463 0.916270
C33_2 C 0.2951(2) 0.3160(4) 0.9219(2)
C35_2 C 0.2749(3) 0.3015(4) 0.8597(2)
C36_2 C 0.0584(3) 0.5091(6) 0.5209(3)
H23_2 H 0.097889 0.515048 0.535412
C37_2 C 0.0324(3) 0.4890(5) 0.5564(3)
C39_2 C 0.0583(3) 0.5134(6) 0.6579(3)
H25_2 H 0.029269 0.554812 0.655606
C40_2 C 0.1000(3) 0.4799(6) 0.7046(3)
H26_2 H 0.104956 0.494040 0.740972
C41_2 C 0.1130(3) 0.4212(6) 0.6356(3)
H27_2 H 0.128323 0.388048 0.614407
C44_2 C 0.0263(3) 0.5202(6) 0.4651(3)
H29_2 H 0.043757 0.533845 0.441268
O13_2 O 0.01778(17) 0.9871(3) 0.35859(17)
H33_2 H 0.052345 0.978817 0.381785
O10_2 O 0.29905(18) 0.8048(3) 0.96903(19)
C13_2 C 0.3161(2) 0.8871(3) 0.9886(2)
C14_2 C 0.2840(2) 0.9722(3) 0.9556(2)
C19_2 C 0.2325(2) 0.9613(3) 0.9089(2)
H16_2 H 0.217459 0.900423 0.898143
C21_2 C 0.1022(2) 0.9809(4) 0.8356(2)
H17_2 H 0.108059 0.956985 0.870641
C22_2 C 0.0493(2) 0.9703(4) 0.7907(2)
H18_2 H 0.019715 0.940851 0.796228
O8_2 O 0.11917(18) 0.5487(3) 0.93413(18)
H14_2 H 0.160272 0.071301 0.995595
C29_2 C 0.1756(2) 0.2634(3) 0.9831(2)
H20_2 H 0.170773 0.215188 0.957129
C30_2 C 0.1589(2) 0.3559(4) 0.9640(2)
H21_2 H 0.142334 0.368520 0.925687
C34_2 C 0.1524(2) 0.5307(4) 0.9836(2)
O9_2 O 0.14044(15) 0.8989(3) 0.96662(15)
O11_2 O 0.19832(18) 0.7072(3) 0.91928(19)
H2_2 H 0.231599 0.731513 0.932839
H3_2 H 0.198819 0.656353 0.901859
N2_2 N 0.0296(2) 0.7788(4) 0.5589(2)
N3_2 N 0.0299(2) 0.7422(3) 0.77222(18)
N4_2 N 0.0640(2) 0.7403(3) 0.86445(18)
C1_2 C 0.0079(4) 0.8230(7) 0.4726(3)
C3_2 C 0.0723(3) 0.7580(5) 0.5443(3)
H6_2 H 0.106343 0.729141 0.568292
C4_2 C 0.0300(3) 0.7663(5) 0.6132(2)
C7_2 C 0.0297(2) 0.7472(4) 0.7175(2)
C8_2 C 0.0790(3) 0.7740(5) 0.7126(2)
H9_2 H 0.112248 0.786032 0.744632
C9_2 C 0.0789(3) 0.7829(5) 0.6603(3)
H10_2 H 0.112236 0.800189 0.657017
C11_2 C 0.0064(3) 0.7600(4) 0.8416(2)
C12_2 C 0.0764(2) 0.7301(4) 0.8213(2)
H13_2 H 0.112767 0.716142 0.823972
C49 C 0.9878(4) 0.6795(8) 0.0127(3)
H37 H 0.952566 0.657328 0.009448
C52 C 0.9805(3) 0.7623(5) 0.1174(2)
H39 H 0.947390 0.775018 0.085242
C53 C 0.9811(3) 0.7716(5) 0.1707(2)
H40 H 0.948229 0.790803 0.174142
C57 C 0.9852(2) 0.7389(4) 0.2853(2)
H43 H 0.947483 0.727609 0.260285
H44 H 0.985250 0.728958 0.362291
H36 H 0.988394 0.651572 0.936805
N9_2 N 0.4393(2) 0.7169(4) 0.0077(2)
C48_3 C 0.4921(4) 0.6770(7) 0.0274(3)
H36_2 H 0.511606 0.651572 0.063195
Cd6_2 Cd 0.37059(2) 0.72199(2) 0.04380(2)
N7_3 N 0.1345(2) 0.0789(4) 0.1903(2)
N8_3 N 0.0663(2) 0.0248(4) 0.1140(2)
C43_3 C 0.0324(3) 0.0110(5) 0.0564(3)
C46_3 C 0.1000(3) 0.0201(6) 0.2046(3)
H31_3 H 0.104956 0.005960 0.240972
C47_3 C 0.1130(3) 0.0788(6) 0.1356(3)
H32_3 H 0.128323 0.111952 0.114407
Cd3_2 Cd 0.37059(2) 0.77801(2) 0.54380(2)
Cd4_2 Cd 0.20904(2) 0.16420(3) 0.23805(2)
O14_3 O 0.1680(2) 0.2966(4) 0.2494(2)
O15_2 O 0.2244(2) 0.4230(4) 0.2711(2)
O16_3 O 0.2367(2) 0.1406(3) 0.32820(17)
O17_2 O 0.29660(19) 0.2626(3) 0.34320(18)
O20_3 O 0.35956(15) 0.6011(3) 0.53338(15)
O21_3 O 0.29905(18) 0.6952(3) 0.46903(19)
O22_3 O 0.30168(18) 0.7928(3) 0.58072(19)
H34_3 H 0.268401 0.768487 0.567161
H35_3 H 0.301181 0.843647 0.598141
N10_3 N 0.4704(2) 0.7212(4) 0.9411(2)
N11_3 N 0.4701(2) 0.7578(3) 0.72778(18)
N12_3 N 0.4360(2) 0.7597(3) 0.63555(18)
C49_2 C 0.5122(4) 0.6795(8) 0.9873(3)
H37_2 H 0.547434 0.657328 0.990552
C50_3 C 0.4277(3) 0.7420(5) 0.9557(3)
H38_3 H 0.393657 0.770859 0.931708
C51_3 C 0.4700(3) 0.7337(5) 0.8868(2)
C52_2 C 0.5195(3) 0.7623(5) 0.8826(2)
H39_2 H 0.552610 0.775018 0.914758
C53_2 C 0.5189(3) 0.7716(5) 0.8293(2)
H40_2 H 0.551771 0.790803 0.825858
C54_3 C 0.4703(2) 0.7528(4) 0.7825(2)
C55_3 C 0.4210(3) 0.7260(5) 0.7874(2)
H41_3 H 0.387752 0.713968 0.755368
C56_3 C 0.4211(3) 0.7171(5) 0.8397(3)
H42_3 H 0.387764 0.699811 0.842983
C57_2 C 0.5148(2) 0.7389(4) 0.7147(2)
H43_2 H 0.552517 0.727609 0.739715
C58_3 C 0.4936(3) 0.7400(4) 0.6584(2)
H44_2 H 0.514750 0.728958 0.637709
C59_3 C 0.4236(2) 0.7699(4) 0.6787(2)
H45_3 H 0.387233 0.783858 0.676028
C60_3 C 0.3161(2) 0.6129(3) 0.4886(2)
C61_3 C 0.2840(2) 0.5278(3) 0.4556(2)
C62_3 C 0.3060(2) 0.4364(3) 0.4722(2)
H46_3 H 0.339728 0.428699 0.504405
C63_3 C 0.2780(2) 0.3564(3) 0.44121(19)
C64_3 C 0.2264(2) 0.3700(3) 0.3947(2)
H47_3 H 0.206925 0.317183 0.374114
C65_3 C 0.2029(2) 0.4605(3) 0.3780(2)
C66_3 C 0.2325(2) 0.5387(3) 0.4089(2)
H48_3 H 0.217459 0.599577 0.398143
C67_3 C 0.1467(2) 0.4728(3) 0.3288(2)
C68_3 C 0.1022(2) 0.5191(4) 0.3356(2)
H49_3 H 0.108059 0.543015 0.370641
C69_3 C 0.0493(2) 0.5297(4) 0.2907(2)
H50_3 H 0.019715 0.559149 0.296228
C70_3 C 0.0400(2) 0.4972(4) 0.2379(2)
C71_3 C 0.0838(2) 0.4492(4) 0.2311(2)
H51_3 H 0.077795 0.425502 0.195947
C72_3 C 0.1360(2) 0.4363(4) 0.2757(2)
C74_3 C 0.1804(3) 0.3817(5) 0.2645(2)
C75_3 C 0.3007(2) 0.2586(3) 0.4601(2)
C76_3 C 0.3244(2) 0.2366(3) 0.5169(2)
H52_3 H 0.329227 0.284812 0.542871
C77_3 C 0.3411(2) 0.1441(4) 0.5360(2)
H53_3 H 0.357666 0.131480 0.574313
C78_3 C 0.3333(2) 0.0714(3) 0.4984(2)
C79_3 C 0.3103(2) 0.0918(4) 0.4418(2)
H54_3 H 0.304845 0.042537 0.416270
C80_3 C 0.2951(2) 0.1840(4) 0.4219(2)
C82_3 C 0.2749(3) 0.1985(4) 0.3597(2)
Cd9_2 Cd 0.29096(2) 0.33580(3) 0.26195(2)
O23_2 O 0.2756(2) 0.0770(4) 0.2289(2)
O25_2 O 0.20340(19) 0.2374(3) 0.15680(18)
O28_3 O 0.3259(2) 0.9055(3) 0.48169(19)
O30_3 O 0.38083(18) 0.9513(3) 0.56587(18)
N13_2 N 0.4393(2) 0.7831(4) 0.5077(2)
C42_3 C 0.0584(3) 0.9909(6) 0.0209(3)
H28_3 H 0.097889 0.984952 0.035412
C45_3 C 0.0583(3) 0.9866(6) 0.1579(3)
H30_3 H 0.029269 0.945188 0.155606
C81_3 C 0.3476(2) 0.9693(4) 0.5164(2)
O7_3 O 0.6741(2) 0.0945(3) 0.51831(19)
O8_3 O 0.61917(18) 0.0487(3) 0.43413(18)
C34_3 C 0.6524(2) 0.0307(4) 0.4836(2)
C36_3 C 0.9416(3) 0.0091(6) 0.9791(3)
H23_3 H 0.902111 0.015048 0.964588
C39_3 C 0.9417(3) 0.0134(6) 0.8421(3)
H25_3 H 0.970731 0.054812 0.844394
Cd5_2 Cd 0.62941(2) 0.22199(2) 0.45620(2)
Cd2_2 Cd 0.79096(2) 0.83580(3) 0.76195(2)
O3_3 O 0.8320(2) 0.7034(4) 0.7506(2)
O4_2 O 0.7756(2) 0.5770(4) 0.7289(2)
O5_3 O 0.7633(2) 0.8594(3) 0.67180(17)
O6_2 O 0.70340(19) 0.7374(3) 0.65680(18)
O9_3 O 0.64044(15) 0.3989(3) 0.46662(15)
O10_3 O 0.70095(18) 0.3048(3) 0.53097(19)
O11_3 O 0.69832(18) 0.2072(3) 0.41928(19)
H2_3 H 0.731599 0.231513 0.432839
H3_3 H 0.698819 0.156353 0.401859
N2_3 N 0.5296(2) 0.2788(4) 0.0589(2)
N3_3 N 0.5299(2) 0.2422(3) 0.27222(18)
N4_3 N 0.5640(2) 0.2403(3) 0.36445(18)
N5_3 N 0.8655(2) 0.9211(4) 0.8097(2)
N6_3 N 0.9337(2) 0.9752(4) 0.8860(2)
C2_2 C 0.4878(4) 0.3205(8) 0.0127(3)
H5_2 H 0.452566 0.342672 0.009448
C3_3 C 0.5723(3) 0.2580(5) 0.0443(3)
H6_3 H 0.606343 0.229141 0.068292
C4_3 C 0.5300(3) 0.2663(5) 0.1132(2)
C5_2 C 0.4805(3) 0.2377(5) 0.1174(2)
H7_2 H 0.447390 0.224982 0.085242
C6_2 C 0.4811(3) 0.2284(5) 0.1707(2)
H8_2 H 0.448229 0.209197 0.174142
C7_3 C 0.5297(2) 0.2472(4) 0.2175(2)
C8_3 C 0.5790(3) 0.2740(5) 0.2126(2)
H9_3 H 0.612248 0.286032 0.244632
C9_3 C 0.5789(3) 0.2829(5) 0.1603(3)
H10_3 H 0.612236 0.300189 0.157017
C10_2 C 0.4852(2) 0.2611(4) 0.2853(2)
H11_2 H 0.447483 0.272391 0.260285
C11_3 C 0.5064(3) 0.2600(4) 0.3416(2)
H12_2 H 0.485250 0.271042 0.362291
C12_3 C 0.5764(2) 0.2301(4) 0.3213(2)
H13_3 H 0.612767 0.216142 0.323972
C13_3 C 0.6839(2) 0.3871(3) 0.5114(2)
C14_3 C 0.7160(2) 0.4722(3) 0.5444(2)
C15_3 C 0.6940(2) 0.5636(3) 0.5278(2)
H14_3 H 0.660272 0.571301 0.495595
C16_3 C 0.7220(2) 0.6436(3) 0.55879(19)
C17_3 C 0.7736(2) 0.6300(3) 0.6053(2)
H15_3 H 0.793075 0.682817 0.625886
C18_3 C 0.7971(2) 0.5395(3) 0.6220(2)
C19_3 C 0.7675(2) 0.4613(3) 0.5911(2)
H16_3 H 0.782541 0.400423 0.601857
C20_3 C 0.8533(2) 0.5272(3) 0.6712(2)
C21_3 C 0.8978(2) 0.4809(4) 0.6644(2)
H17_3 H 0.891941 0.456985 0.629359
C22_3 C 0.9507(2) 0.4703(4) 0.7093(2)
H18_3 H 0.980285 0.440851 0.703772
C23_3 C 0.9600(2) 0.5028(4) 0.7621(2)
C24_3 C 0.9162(2) 0.5508(4) 0.7689(2)
H19_3 H 0.922205 0.574498 0.804053
C25_3 C 0.8640(2) 0.5637(4) 0.7243(2)
C27_3 C 0.8196(3) 0.6183(5) 0.7355(2)
C28_3 C 0.6993(2) 0.7414(3) 0.5399(2)
C29_3 C 0.6756(2) 0.7634(3) 0.4831(2)
H20_3 H 0.670773 0.715188 0.457129
C30_3 C 0.6589(2) 0.8559(4) 0.4640(2)
H21_3 H 0.642334 0.868520 0.425687
C31_3 C 0.6667(2) 0.9286(3) 0.5016(2)
C32_3 C 0.6897(2) 0.9082(4) 0.5582(2)
H22_3 H 0.695155 0.957463 0.583730
C33_3 C 0.7049(2) 0.8160(4) 0.5781(2)
C35_3 C 0.7251(3) 0.8015(4) 0.6403(2)
C37_3 C 0.9676(3) 0.9890(5) 0.9436(3)
C40_3 C 0.9000(3) 0.9799(6) 0.7954(3)
H26_3 H 0.895044 0.994040 0.759028
C41_3 C 0.8870(3) 0.9212(6) 0.8644(3)
H27_3 H 0.871677 0.888048 0.885593
Cd10_2 Cd 0.70904(2) 0.66420(3) 0.73805(2)
O24_2 O 0.7244(2) 0.9230(4) 0.7711(2)
O26_2 O 0.79660(19) 0.7626(3) 0.84320(18)
N14_2 N 0.5607(2) 0.2169(4) 0.4923(2)
N1_2 N 0.5607(2) 0.2831(4) 0.9923(2)
C1_3 C 0.5079(4) 0.3230(7) 0.9726(3)
H4_2 H 0.488394 0.348428 0.936805
Cd8_2 Cd 0.62941(2) 0.27801(2) 0.95620(2)
O8_4 O 0.38083(18) 0.5487(3) 0.06587(18)
H14_4 H 0.339728 0.071301 0.004405
C29_4 C 0.3244(2) 0.2634(3) 0.0169(2)
H20_4 H 0.329227 0.215188 0.042871
C30_4 C 0.3411(2) 0.3559(4) 0.0360(2)
H21_4 H 0.357666 0.368520 0.074313
C34_4 C 0.3476(2) 0.5307(4) 0.0164(2)
O9_4 O 0.35956(15) 0.8989(3) 0.03338(15)
O11_4 O 0.30168(18) 0.7072(3) 0.08072(19)
H2_4 H 0.268401 0.731513 0.067161
H3_4 H 0.301181 0.656353 0.098141
N2_4 N 0.4704(2) 0.7788(4) 0.4411(2)
N3_4 N 0.4701(2) 0.7422(3) 0.22778(18)
N4_4 N 0.4360(2) 0.7403(3) 0.13555(18)
C1_4 C 0.4921(4) 0.8230(7) 0.5274(3)
H4_3 H 0.511606 0.848428 0.563195
C2_3 C 0.5122(4) 0.8205(8) 0.4873(3)
H5_3 H 0.547434 0.842672 0.490552
C3_4 C 0.4277(3) 0.7580(5) 0.4557(3)
H6_4 H 0.393657 0.729141 0.431708
C4_4 C 0.4700(3) 0.7663(5) 0.3868(2)
C5_3 C 0.5195(3) 0.7377(5) 0.3826(2)
H7_3 H 0.552610 0.724982 0.414758
C6_3 C 0.5189(3) 0.7284(5) 0.3293(2)
H8_3 H 0.551771 0.709197 0.325858
C7_4 C 0.4703(2) 0.7472(4) 0.2825(2)
C8_4 C 0.4210(3) 0.7740(5) 0.2874(2)
H9_4 H 0.387752 0.786032 0.255368
C9_4 C 0.4211(3) 0.7829(5) 0.3397(3)
H10_4 H 0.387764 0.800189 0.342983
C10_3 C 0.5148(2) 0.7611(4) 0.2147(2)
H11_3 H 0.552517 0.772391 0.239715
C11_4 C 0.4936(3) 0.7600(4) 0.1584(2)
H12_3 H 0.514750 0.771042 0.137709
C12_4 C 0.4236(2) 0.7301(4) 0.1787(2)
H13_4 H 0.387233 0.716142 0.176028
O20_4 O 0.64044(15) 0.1011(3) 0.96662(15)
O22_4 O 0.69832(18) 0.2928(3) 0.91928(19)
H34_4 H 0.731599 0.268487 0.932839
H35_4 H 0.698819 0.343647 0.901859
N10_4 N 0.5296(2) 0.2212(4) 0.5589(2)
N11_4 N 0.5299(2) 0.2578(3) 0.77222(18)
N12_4 N 0.5640(2) 0.2597(3) 0.86445(18)
C48_4 C 0.5079(4) 0.1770(7) 0.4726(3)
H36_3 H 0.488394 0.151572 0.436805
C49_3 C 0.4878(4) 0.1795(8) 0.5127(3)
H37_3 H 0.452566 0.157328 0.509448
C50_4 C 0.5723(3) 0.2420(5) 0.5443(3)
H38_4 H 0.606343 0.270859 0.568292
C51_4 C 0.5300(3) 0.2337(5) 0.6132(2)
C52_3 C 0.4805(3) 0.2623(5) 0.6174(2)
H39_3 H 0.447390 0.275018 0.585242
C53_3 C 0.4811(3) 0.2716(5) 0.6707(2)
H40_3 H 0.448229 0.290803 0.674142
C54_4 C 0.5297(2) 0.2528(4) 0.7175(2)
C55_4 C 0.5790(3) 0.2260(5) 0.7126(2)
H41_4 H 0.612248 0.213968 0.744632
C56_4 C 0.5789(3) 0.2171(5) 0.6603(3)
H42_4 H 0.612236 0.199811 0.657017
C57_3 C 0.4852(2) 0.2389(4) 0.7853(2)
H43_3 H 0.447483 0.227609 0.760285
C58_4 C 0.5064(3) 0.2400(4) 0.8416(2)
H44_3 H 0.485250 0.228958 0.862291
C59_4 C 0.5764(2) 0.2699(4) 0.8213(2)
H45_4 H 0.612767 0.283858 0.823972
O30_4 O 0.61917(18) 0.4513(3) 0.93413(18)
H46_4 H 0.660272 0.928699 0.995595
C76_4 C 0.6756(2) 0.7366(3) 0.9831(2)
H52_4 H 0.670773 0.784812 0.957129
C77_4 C 0.6589(2) 0.6441(4) 0.9640(2)
H53_4 H 0.642334 0.631480 0.925687
C81_4 C 0.6524(2) 0.4693(4) 0.9836(2)
O12_2 O 0.44190(19) 0.0395(5) 0.6953(2)
O21_4 O 0.79905(18) 0.1952(3) 0.96903(19)
C60_4 C 0.8161(2) 0.1129(3) 0.9886(2)
C61_4 C 0.7840(2) 0.0278(3) 0.9556(2)
C66_4 C 0.7325(2) 0.0387(3) 0.9089(2)
H48_4 H 0.717459 0.099577 0.898143
C68_4 C 0.6022(2) 0.0191(4) 0.8356(2)
H49_4 H 0.608059 0.043015 0.870641
C69_4 C 0.5493(2) 0.0297(4) 0.7907(2)
H50_4 H 0.519715 0.059149 0.796228
C73_2 C 0.4828(2) 0.0097(4) 0.6898(2)
O28_4 O 0.8259(2) 0.4055(3) 0.98169(19)
O2_3 O 0.51778(17) 0.0129(3) 0.35859(17)
H1_3 H 0.552345 0.021183 0.381785
O3_4 O 0.3320(2) 0.2034(4) 0.2506(2)
O5_4 O 0.2633(2) 0.3594(3) 0.17180(17)
O7_4 O 0.1741(2) 0.5945(3) 0.01831(19)
N5_4 N 0.3655(2) 0.4211(4) 0.3097(2)
N6_4 N 0.4337(2) 0.4752(4) 0.3860(2)
C15_4 C 0.1940(2) 0.0636(3) 0.0278(2)
C16_4 C 0.2220(2) 0.1436(3) 0.05879(19)
C17_4 C 0.2736(2) 0.1300(3) 0.1053(2)
H15_4 H 0.293075 0.182817 0.125886
C18_4 C 0.2971(2) 0.0395(3) 0.1220(2)
C20_4 C 0.3533(2) 0.0272(3) 0.1712(2)
C23_4 C 0.4600(2) 0.0028(4) 0.2621(2)
C24_4 C 0.4162(2) 0.0508(4) 0.2689(2)
H19_4 H 0.422205 0.074498 0.304053
C25_4 C 0.3640(2) 0.0637(4) 0.2243(2)
C27_4 C 0.3196(3) 0.1183(5) 0.2355(2)
C28_4 C 0.1993(2) 0.2414(3) 0.0399(2)
C31_4 C 0.1667(2) 0.4286(3) 0.0016(2)
C32_4 C 0.1897(2) 0.4082(4) 0.0582(2)
H22_4 H 0.195155 0.457463 0.083730
C33_4 C 0.2049(2) 0.3160(4) 0.0781(2)
C35_4 C 0.2251(3) 0.3015(4) 0.1403(2)
C36_4 C 0.4416(3) 0.5091(6) 0.4791(3)
H23_4 H 0.402111 0.515048 0.464588
C37_4 C 0.4676(3) 0.4890(5) 0.4436(3)
C38_3 C 0.5263(3) 0.4798(6) 0.4651(3)
H24_3 H 0.543757 0.466155 0.441268
C39_4 C 0.4417(3) 0.5134(6) 0.3421(3)
H25_4 H 0.470731 0.554812 0.344394
C40_4 C 0.4000(3) 0.4799(6) 0.2954(3)
H26_4 H 0.395044 0.494040 0.259028
C41_4 C 0.3870(3) 0.4212(6) 0.3644(3)
H27_4 H 0.371677 0.388048 0.385593
N7_4 N 0.6345(2) 0.5789(4) 0.6903(2)
N8_4 N 0.5663(2) 0.5248(4) 0.6140(2)
C42_4 C 0.5584(3) 0.4909(6) 0.5209(3)
H28_4 H 0.597889 0.484952 0.535412
C43_4 C 0.5324(3) 0.5110(5) 0.5564(3)
C44_3 C 0.4737(3) 0.5202(6) 0.5349(3)
H29_3 H 0.456243 0.533845 0.558732
C45_4 C 0.5583(3) 0.4866(6) 0.6579(3)
H30_4 H 0.529269 0.445188 0.655606
C46_4 C 0.6000(3) 0.5201(6) 0.7046(3)
H31_4 H 0.604956 0.505960 0.740972
C47_4 C 0.6130(3) 0.5788(6) 0.6356(3)
H32_4 H 0.628323 0.611952 0.614407
O13_3 O 0.48222(17) 0.9871(3) 0.64141(17)
H33_3 H 0.447655 0.978817 0.618215
O14_4 O 0.6680(2) 0.7966(4) 0.7494(2)
O16_4 O 0.7367(2) 0.6406(3) 0.82820(17)
C62_4 C 0.8060(2) 0.9364(3) 0.9722(2)
C63_4 C 0.7780(2) 0.8564(3) 0.94121(19)
C64_4 C 0.7264(2) 0.8700(3) 0.8947(2)
H47_4 H 0.706925 0.817183 0.874114
C65_4 C 0.7029(2) 0.9605(3) 0.8780(2)
C67_4 C 0.6467(2) 0.9728(3) 0.8288(2)
C70_4 C 0.5400(2) 0.9972(4) 0.7379(2)
C71_4 C 0.5838(2) 0.9492(4) 0.7311(2)
H51_4 H 0.577795 0.925502 0.695947
C72_4 C 0.6360(2) 0.9363(4) 0.7757(2)
C74_4 C 0.6804(3) 0.8817(5) 0.7645(2)
C75_4 C 0.8007(2) 0.7586(3) 0.9601(2)
C78_4 C 0.8333(2) 0.5714(3) 0.9984(2)
C79_4 C 0.8103(2) 0.5918(4) 0.9418(2)
H54_4 H 0.804845 0.542537 0.916270
C80_4 C 0.7951(2) 0.6840(4) 0.9219(2)
C82_4 C 0.7749(3) 0.6985(4) 0.8597(2)
O1_2 O 0.55810(19) 0.9605(5) 0.3047(2)
O10_4 O 0.20095(18) 0.8048(3) 0.03097(19)
C13_4 C 0.1839(2) 0.8871(3) 0.0114(2)
C14_4 C 0.2160(2) 0.9722(3) 0.0444(2)
C19_4 C 0.2675(2) 0.9613(3) 0.0911(2)
H16_4 H 0.282541 0.900423 0.101857
C21_4 C 0.3978(2) 0.9809(4) 0.1644(2)
H17_4 H 0.391941 0.956985 0.129359
C22_4 C 0.4507(2) 0.9703(4) 0.2093(2)
H18_4 H 0.480285 0.940851 0.203772
C26_2 C 0.5172(2) 0.9903(4) 0.3102(2)
O1_3 O 0.05810(19) 0.4605(5) 0.8047(2)
O2_4 O 0.01778(17) 0.5129(3) 0.85859(17)
H1_4 H 0.052345 0.521183 0.881785
C26_3 C 0.0172(2) 0.4903(4) 0.8102(2)
C38_4 C 0.0263(3) 0.9798(6) 0.9651(3)
H24_4 H 0.043757 0.966155 0.941268
C44_4 C 0.9737(3) 0.0202(6) 0.0349(3)
H29_4 H 0.956243 0.033845 0.058732
O12_3 O 0.94190(19) 0.5395(5) 0.1953(2)
O13_4 O 0.98222(17) 0.4871(3) 0.14141(17)
H33_4 H 0.947655 0.478817 0.118215
C73_3 C 0.9828(2) 0.5097(4) 0.1898(2)
O12_4 O 0.05810(19) 0.0395(5) 0.3047(2)
C73_4 C 0.0172(2) 0.0097(4) 0.3102(2)
O1_4 O 0.94190(19) 0.9605(5) 0.6953(2)
C26_4 C 0.9828(2) 0.9903(4) 0.6898(2)
H36_4 H 0.011606 0.151572 0.563195
C49_4 C 0.0122(4) 0.1795(8) 0.4873(3)
H37_4 H 0.047434 0.157328 0.490552
C52_4 C 0.0195(3) 0.2623(5) 0.3826(2)
H39_4 H 0.052610 0.275018 0.414758
C53_4 C 0.0189(3) 0.2716(5) 0.3293(2)
H40_4 H 0.051771 0.290803 0.325858
C57_4 C 0.0148(2) 0.2389(4) 0.2147(2)
H43_4 H 0.052517 0.227609 0.239715
H44_4 H 0.014750 0.228958 0.137709
H4_4 H 0.988394 0.848428 0.436805
C2_4 C 0.9878(4) 0.8205(8) 0.5127(3)
H5_4 H 0.952566 0.842672 0.509448
C5_4 C 0.9805(3) 0.7377(5) 0.6174(2)
H7_4 H 0.947390 0.724982 0.585242
C6_4 C 0.9811(3) 0.7284(5) 0.6707(2)
H8_4 H 0.948229 0.709197 0.674142
C10_4 C 0.9852(2) 0.7611(4) 0.7853(2)
H11_4 H 0.947483 0.772391 0.760285
H12_4 H 0.985250 0.771042 0.862291
loop_
_geom_bond_atom_site_label_1
_geom_bond_atom_site_label_2
_geom_bond_site_symmetry_1
_geom_bond_site_symmetry_2
H5 C2 1_555 1_555
H7 C5 1_555 1_555
C6 C5 1_555 1_555
H8 C6 1_555 1_555
H11 C10 1_555 1_555
O7 C34 1_555 1_555
O8 C34 1_555 1_555
C36 H23 1_555 1_555
H25 C39 1_555 1_555
Cd5 O7 1_555 1_555
O8 Cd5 1_555 1_555
N1 C1 1_555 1_555
Cd8 N1 1_555 1_555
Cd5 O9 1_555 1_555
Cd2 O3 1_555 1_555
O1 C26 1_555 1_555
O2 H1 1_555 1_555
O3 C27 1_555 1_555
O4 C27 1_555 1_555
O5 Cd2 1_555 1_555
O6 C35 1_555 1_555
O9 C13 1_555 1_555
O10 Cd5 1_555 1_555
O11 Cd5 1_555 1_555
H2 O11 1_555 1_555
H3 O11 1_555 1_555
N3 C7 1_555 1_555
N4 Cd5 1_555 1_555
N5 Cd2 1_555 1_555
N6 C37 1_555 1_555
H6 C3 1_555 1_555
C4 N2 1_555 1_555
C8 C7 1_555 1_555
H9 C8 1_555 1_555
C9 C4 1_555 1_555
H10 C9 1_555 1_555
C11 N4 1_555 1_555
C12 N3 1_555 1_555
H13 C12 1_555 1_555
C13 O10 1_555 1_555
C14 C13 1_555 1_555
C15 C14 1_555 1_555
H14 C15 1_555 1_555
C16 C15 1_555 1_555
C17 C16 1_555 1_555
H15 C17 1_555 1_555
C18 C17 1_555 1_555
C19 C14 1_555 1_555
H16 C19 1_555 1_555
C20 C18 1_555 1_555
C21 C20 1_555 1_555
H17 C21 1_555 1_555
C22 C21 1_555 1_555
H18 C22 1_555 1_555
C23 C22 1_555 1_555
C24 C23 1_555 1_555
H19 C24 1_555 1_555
C25 C20 1_555 1_555
C26 O2 1_555 1_555
C27 C25 1_555 1_555
C28 C16 1_555 1_555
C29 C28 1_555 1_555
H20 C29 1_555 1_555
C30 C29 1_555 1_555
H21 C30 1_555 1_555
C31 C30 1_555 1_555
C32 C31 1_555 1_555
H22 C32 1_555 1_555
C33 C28 1_555 1_555
C35 O5 1_555 1_555
C38 C37 1_555 1_555
H24 C38 1_555 1_555
C40 N5 1_555 1_555
H26 C40 1_555 1_555
C41 N5 1_555 1_555
H27 C41 1_555 1_555
Cd10 O4 1_555 1_555
O24 Cd2 1_555 1_555
O26 Cd2 1_555 1_555
N14 Cd5 1_555 1_555
O6 Cd10 1_555 1_555
N2 C3 1_555 1_555
N4 C12 1_555 1_555
N6 C41 1_555 1_555
C8 C9 1_555 1_555
C18 C19 1_555 1_555
C23 C26 1_555 1_555
C24 C25 1_555 1_555
C32 C33 1_555 1_555
C33 C35 1_555 1_555
C60 O21 1_555 1_555
C61 C60 1_555 1_555
C66 C61 1_555 1_555
H48 C66 1_555 1_555
H49 C68 1_555 1_555
C69 C68 1_555 1_555
H50 C69 1_555 1_555
O2_2 H1_2 1_555 1_555
H24_2 C38_2 1_555 1_555
N7 C46 1_555 1_555
N8 C43 1_555 1_555
C42 C38_2 1_555 1_555
H28 C42 1_555 1_555
C43 C42 1_555 1_555
C45 N8 1_555 1_555
H30 C45 1_555 1_555
C46 C45 1_555 1_555
H31 C46 1_555 1_555
C47 N7 1_555 1_555
H32 C47 1_555 1_555
Cd10 N7 1_555 1_555
O14 Cd10 1_555 1_555
O24 C74 1_555 1_555
O16 Cd10 1_555 1_555
O26 C82 1_555 1_555
C63 C62 1_555 1_555
C64 C63 1_555 1_555
H47 C64 1_555 1_555
C65 C64 1_555 1_555
C67 C65 1_555 1_555
C71 C70 1_555 1_555
H51 C71 1_555 1_555
C72 C67 1_555 1_555
C74 O14 1_555 1_555
C75 C63 1_555 1_555
C79 C78 1_555 1_555
H54 C79 1_555 1_555
C80 C75 1_555 1_555
C82 O16 1_555 1_555
N8 C47 1_555 1_555
C71 C72 1_555 1_555
C72 C74 1_555 1_555
C79 C80 1_555 1_555
C80 C82 1_555 1_555
Cd8 O20 1_555 1_555
O22 Cd8 1_555 1_555
H34 O22 1_555 1_555
H35 O22 1_555 1_555
N14 C48 1_555 1_555
N11 C54 1_555 1_555
N12 Cd8 1_555 1_555
C50 N14 1_555 1_555
H38 C50 1_555 1_555
C51 N10 1_555 1_555
C55 C54 1_555 1_555
H41 C55 1_555 1_555
C56 C51 1_555 1_555
H42 C56 1_555 1_555
C58 N12 1_555 1_555
C59 N11 1_555 1_555
H45 C59 1_555 1_555
O30 Cd8 1_555 1_555
N10 C50 1_555 1_555
N12 C59 1_555 1_555
C55 C56 1_555 1_555
O30 C81 1_555 1_555
H52 C76 1_555 1_555
C77 C76 1_555 1_555
H53 C77 1_555 1_555
N7_2 C46_2 1_555 1_555
N8_2 C43_2 1_555 1_555
H29 C44 1_555 1_555
H31_2 C46_2 1_555 1_555
C47_2 N7_2 1_555 1_555
H32_2 C47_2 1_555 1_555
Cd3 O20_2 1_555 1_555
Cd4 N7_2 1_555 1_555
O12 C73 1_555 1_555
O13 H33 1_555 1_555
O14_2 Cd4 1_555 1_555
O15 C74_2 1_555 1_555
O16_2 Cd4 1_555 1_555
O17 C82_2 1_555 1_555
O20_2 C60_2 1_555 1_555
O21_2 Cd3 1_555 1_555
O22_2 Cd3 1_555 1_555
H34_2 O22_2 1_555 1_555
H35_2 O22_2 1_555 1_555
N11_2 C54_2 1_555 1_555
N12_2 Cd3 1_555 1_555
H38_2 C50_2 1_555 1_555
C51_2 N10_2 1_555 1_555
C55_2 C54_2 1_555 1_555
H41_2 C55_2 1_555 1_555
C56_2 C51_2 1_555 1_555
H42_2 C56_2 1_555 1_555
C58_2 N12_2 1_555 1_555
C59_2 N11_2 1_555 1_555
H45_2 C59_2 1_555 1_555
C60_2 O21_2 1_555 1_555
C61_2 C60_2 1_555 1_555
C62_2 C61_2 1_555 1_555
H46_2 C62_2 1_555 1_555
C63_2 C62_2 1_555 1_555
C64_2 C63_2 1_555 1_555
H47_2 C64_2 1_555 1_555
C65_2 C64_2 1_555 1_555
C66_2 C61_2 1_555 1_555
H48_2 C66_2 1_555 1_555
C67_2 C65_2 1_555 1_555
C68_2 C67_2 1_555 1_555
H49_2 C68_2 1_555 1_555
C69_2 C68_2 1_555 1_555
H50_2 C69_2 1_555 1_555
C70_2 C69_2 1_555 1_555
C71_2 C70_2 1_555 1_555
H51_2 C71_2 1_555 1_555
C72_2 C67_2 1_555 1_555
C73 O13 1_555 1_555
C74_2 O14_2 1_555 1_555
C75_2 C63_2 1_555 1_555
C76_2 C75_2 1_555 1_555
H52_2 C76_2 1_555 1_555
C77_2 C76_2 1_555 1_555
H53_2 C77_2 1_555 1_555
C78_2 C77_2 1_555 1_555
C79_2 C78_2 1_555 1_555
H54_2 C79_2 1_555 1_555
C80_2 C75_2 1_555 1_555
C82_2 O16_2 1_555 1_555
Cd9 O15 1_555 1_555
O23 Cd4 1_555 1_555
O25 Cd4 1_555 1_555
O28_2 Cd3 1_555 1_555
O30_2 Cd3 1_555 1_555
N13 Cd3 1_555 1_555
N8_2 C47_2 1_555 1_555
C43_2 C44 1_555 1_555
O17 Cd9 1_555 1_555
N10_2 C50_2 1_555 1_555
N12_2 C59_2 1_555 1_555
C55_2 C56_2 1_555 1_555
C65_2 C66_2 1_555 1_555
C70_2 C73 1_555 1_555
C71_2 C72_2 1_555 1_555
C72_2 C74_2 1_555 1_555
C79_2 C80_2 1_555 1_555
C80_2 C82_2 1_555 1_555
N9 C48_2 1_555 1_555
Cd6 N9 1_555 1_555
H28_2 C42_2 1_555 1_555
H30_2 C45_2 1_555 1_555
O28_2 C81_2 1_555 1_555
O30_2 C81_2 1_555 1_555
Cd9 O3_2 1_555 1_555
O3_2 C27_2 1_555 1_555
O23 C27_2 1_555 1_555
O5_2 Cd9 1_555 1_555
O25 C35_2 1_555 1_555
N5_2 Cd9 1_555 1_555
N6_2 C37_2 1_555 1_555
C16_2 C15_2 1_555 1_555
C17_2 C16_2 1_555 1_555
H15_2 C17_2 1_555 1_555
C18_2 C17_2 1_555 1_555
C20_2 C18_2 1_555 1_555
C24_2 C23_2 1_555 1_555
H19_2 C24_2 1_555 1_555
C25_2 C20_2 1_555 1_555
C27_2 C25_2 1_555 1_555
C28_2 C16_2 1_555 1_555
C32_2 C31_2 1_555 1_555
H22_2 C32_2 1_555 1_555
C33_2 C28_2 1_555 1_555
C35_2 O5_2 1_555 1_555
C36_2 H23_2 1_555 1_555
C37_2 C36_2 1_555 1_555
C39_2 N6_2 1_555 1_555
H25_2 C39_2 1_555 1_555
C40_2 N5_2 1_555 1_555
H26_2 C40_2 1_555 1_555
C41_2 N5_2 1_555 1_555
H27_2 C41_2 1_555 1_555
C44_2 C36_2 1_555 1_555
H29_2 C44_2 1_555 1_555
O13_2 H33_2 1_555 1_555
N6_2 C41_2 1_555 1_555
C24_2 C25_2 1_555 1_555
C32_2 C33_2 1_555 1_555
C33_2 C35_2 1_555 1_555
C39_2 C40_2 1_555 1_555
C13_2 O10_2 1_555 1_555
C14_2 C13_2 1_555 1_555
C19_2 C14_2 1_555 1_555
H16_2 C19_2 1_555 1_555
H17_2 C21_2 1_555 1_555
C22_2 C21_2 1_555 1_555
H18_2 C22_2 1_555 1_555
O8_2 C34_2 1_555 1_555
H20_2 C29_2 1_555 1_555
C30_2 C29_2 1_555 1_555
H21_2 C30_2 1_555 1_555
O8_2 Cd6 1_555 1_555
Cd6 O9_2 1_555 1_555
O11_2 Cd6 1_555 1_555
H2_2 O11_2 1_555 1_555
H3_2 O11_2 1_555 1_555
N13 C1_2 1_555 1_555
N3_2 C7_2 1_555 1_555
N4_2 Cd6 1_555 1_555
C3_2 N13 1_555 1_555
H6_2 C3_2 1_555 1_555
C4_2 N2_2 1_555 1_555
C8_2 C7_2 1_555 1_555
H9_2 C8_2 1_555 1_555
C9_2 C4_2 1_555 1_555
H10_2 C9_2 1_555 1_555
C11_2 N4_2 1_555 1_555
C12_2 N3_2 1_555 1_555
H13_2 C12_2 1_555 1_555
N2_2 C3_2 1_555 1_555
N4_2 C12_2 1_555 1_555
C8_2 C9_2 1_555 1_555
H37 C49 1_555 1_555
H39 C52 1_555 1_555
C53 C52 1_555 1_555
H40 C53 1_555 1_555
H43 C57 1_555 1_555
N9_2 C48_3 1_555 1_555
C48_3 H36_2 1_555 1_555
Cd6_2 N9_2 1_555 1_555
N7_3 C46_3 1_555 1_555
N8_3 C43_3 1_555 1_555
H31_3 C46_3 1_555 1_555
C47_3 N7_3 1_555 1_555
H32_3 C47_3 1_555 1_555
Cd3_2 O20_3 1_555 1_555
Cd4_2 N7_3 1_555 1_555
O14_3 Cd4_2 1_555 1_555
O15_2 C74_3 1_555 1_555
O16_3 Cd4_2 1_555 1_555
O17_2 C82_3 1_555 1_555
O20_3 C60_3 1_555 1_555
O21_3 Cd3_2 1_555 1_555
O22_3 Cd3_2 1_555 1_555
H34_3 O22_3 1_555 1_555
H35_3 O22_3 1_555 1_555
N10_3 C49_2 1_555 1_555
N11_3 C54_3 1_555 1_555
N12_3 Cd3_2 1_555 1_555
H37_2 C49_2 1_555 1_555
H38_3 C50_3 1_555 1_555
C51_3 N10_3 1_555 1_555
C52_2 C51_3 1_555 1_555
H39_2 C52_2 1_555 1_555
C53_2 C52_2 1_555 1_555
H40_2 C53_2 1_555 1_555
C54_3 C53_2 1_555 1_555
C55_3 C54_3 1_555 1_555
H41_3 C55_3 1_555 1_555
C56_3 C51_3 1_555 1_555
H42_3 C56_3 1_555 1_555
C57_2 N11_3 1_555 1_555
H43_2 C57_2 1_555 1_555
C58_3 N12_3 1_555 1_555
H44_2 C58_3 1_555 1_555
C59_3 N11_3 1_555 1_555
H45_3 C59_3 1_555 1_555
C60_3 O21_3 1_555 1_555
C61_3 C60_3 1_555 1_555
C62_3 C61_3 1_555 1_555
H46_3 C62_3 1_555 1_555
C63_3 C62_3 1_555 1_555
C64_3 C63_3 1_555 1_555
H47_3 C64_3 1_555 1_555
C65_3 C64_3 1_555 1_555
C66_3 C61_3 1_555 1_555
H48_3 C66_3 1_555 1_555
C67_3 C65_3 1_555 1_555
C68_3 C67_3 1_555 1_555
H49_3 C68_3 1_555 1_555
C69_3 C68_3 1_555 1_555
H50_3 C69_3 1_555 1_555
C70_3 C69_3 1_555 1_555
C71_3 C70_3 1_555 1_555
H51_3 C71_3 1_555 1_555
C72_3 C67_3 1_555 1_555
C74_3 O14_3 1_555 1_555
C75_3 C63_3 1_555 1_555
C76_3 C75_3 1_555 1_555
H52_3 C76_3 1_555 1_555
C77_3 C76_3 1_555 1_555
H53_3 C77_3 1_555 1_555
C78_3 C77_3 1_555 1_555
C79_3 C78_3 1_555 1_555
H54_3 C79_3 1_555 1_555
C80_3 C75_3 1_555 1_555
C82_3 O16_3 1_555 1_555
Cd9_2 O15_2 1_555 1_555
O23_2 Cd4_2 1_555 1_555
O25_2 Cd4_2 1_555 1_555
O28_3 Cd3_2 1_555 1_555
O30_3 Cd3_2 1_555 1_555
N13_2 Cd3_2 1_555 1_555
N8_3 C47_3 1_555 1_555
O17_2 Cd9_2 1_555 1_555
N10_3 C50_3 1_555 1_555
N12_3 C59_3 1_555 1_555
C55_3 C56_3 1_555 1_555
C57_2 C58_3 1_555 1_555
C65_3 C66_3 1_555 1_555
C71_3 C72_3 1_555 1_555
C72_3 C74_3 1_555 1_555
C79_3 C80_3 1_555 1_555
C80_3 C82_3 1_555 1_555
H28_3 C42_3 1_555 1_555
H30_3 C45_3 1_555 1_555
O28_3 C81_3 1_555 1_555
O30_3 C81_3 1_555 1_555
O7_3 C34_3 1_555 1_555
O8_3 C34_3 1_555 1_555
C36_3 H23_3 1_555 1_555
H25_3 C39_3 1_555 1_555
Cd5_2 O7_3 1_555 1_555
O8_3 Cd5_2 1_555 1_555
Cd5_2 O9_3 1_555 1_555
Cd2_2 O3_3 1_555 1_555
O3_3 C27_3 1_555 1_555
O4_2 C27_3 1_555 1_555
O5_3 Cd2_2 1_555 1_555
O6_2 C35_3 1_555 1_555
O9_3 C13_3 1_555 1_555
O10_3 Cd5_2 1_555 1_555
O11_3 Cd5_2 1_555 1_555
H2_3 O11_3 1_555 1_555
H3_3 O11_3 1_555 1_555
N2_3 C2_2 1_555 1_555
N3_3 C7_3 1_555 1_555
N4_3 Cd5_2 1_555 1_555
N5_3 Cd2_2 1_555 1_555
N6_3 C37_3 1_555 1_555
H5_2 C2_2 1_555 1_555
H6_3 C3_3 1_555 1_555
C4_3 N2_3 1_555 1_555
C5_2 C4_3 1_555 1_555
H7_2 C5_2 1_555 1_555
C6_2 C5_2 1_555 1_555
H8_2 C6_2 1_555 1_555
C7_3 C6_2 1_555 1_555
C8_3 C7_3 1_555 1_555
H9_3 C8_3 1_555 1_555
C9_3 C4_3 1_555 1_555
H10_3 C9_3 1_555 1_555
C10_2 N3_3 1_555 1_555
H11_2 C10_2 1_555 1_555
C11_3 N4_3 1_555 1_555
H12_2 C11_3 1_555 1_555
C12_3 N3_3 1_555 1_555
H13_3 C12_3 1_555 1_555
C13_3 O10_3 1_555 1_555
C14_3 C13_3 1_555 1_555
C15_3 C14_3 1_555 1_555
H14_3 C15_3 1_555 1_555
C16_3 C15_3 1_555 1_555
C17_3 C16_3 1_555 1_555
H15_3 C17_3 1_555 1_555
C18_3 C17_3 1_555 1_555
C19_3 C14_3 1_555 1_555
H16_3 C19_3 1_555 1_555
C20_3 C18_3 1_555 1_555
C21_3 C20_3 1_555 1_555
H17_3 C21_3 1_555 1_555
C22_3 C21_3 1_555 1_555
H18_3 C22_3 1_555 1_555
C23_3 C22_3 1_555 1_555
C24_3 C23_3 1_555 1_555
H19_3 C24_3 1_555 1_555
C25_3 C20_3 1_555 1_555
C27_3 C25_3 1_555 1_555
C28_3 C16_3 1_555 1_555
C29_3 C28_3 1_555 1_555
H20_3 C29_3 1_555 1_555
C30_3 C29_3 1_555 1_555
H21_3 C30_3 1_555 1_555
C31_3 C30_3 1_555 1_555
C32_3 C31_3 1_555 1_555
H22_3 C32_3 1_555 1_555
C33_3 C28_3 1_555 1_555
C35_3 O5_3 1_555 1_555
C40_3 N5_3 1_555 1_555
H26_3 C40_3 1_555 1_555
C41_3 N5_3 1_555 1_555
H27_3 C41_3 1_555 1_555
Cd10_2 O4_2 1_555 1_555
O24_2 Cd2_2 1_555 1_555
O26_2 Cd2_2 1_555 1_555
N14_2 Cd5_2 1_555 1_555
O6_2 Cd10_2 1_555 1_555
N2_3 C3_3 1_555 1_555
N4_3 C12_3 1_555 1_555
N6_3 C41_3 1_555 1_555
C8_3 C9_3 1_555 1_555
C10_2 C11_3 1_555 1_555
C18_3 C19_3 1_555 1_555
C24_3 C25_3 1_555 1_555
C32_3 C33_3 1_555 1_555
C33_3 C35_3 1_555 1_555
N1_2 C1_3 1_555 1_555
C1_3 H4_2 1_555 1_555
Cd8_2 N1_2 1_555 1_555
O8_4 C34_4 1_555 1_555
H20_4 C29_4 1_555 1_555
C30_4 C29_4 1_555 1_555
H21_4 C30_4 1_555 1_555
O8_4 Cd6_2 1_555 1_555
Cd6_2 O9_4 1_555 1_555
O11_4 Cd6_2 1_555 1_555
H2_4 O11_4 1_555 1_555
H3_4 O11_4 1_555 1_555
N13_2 C1_4 1_555 1_555
N2_4 C2_3 1_555 1_555
N3_4 C7_4 1_555 1_555
N4_4 Cd6_2 1_555 1_555
C1_4 H4_3 1_555 1_555
C2_3 C1_4 1_555 1_555
H5_3 C2_3 1_555 1_555
C3_4 N13_2 1_555 1_555
H6_4 C3_4 1_555 1_555
C4_4 N2_4 1_555 1_555
C5_3 C4_4 1_555 1_555
H7_3 C5_3 1_555 1_555
C6_3 C5_3 1_555 1_555
H8_3 C6_3 1_555 1_555
C7_4 C6_3 1_555 1_555
C8_4 C7_4 1_555 1_555
H9_4 C8_4 1_555 1_555
C9_4 C4_4 1_555 1_555
H10_4 C9_4 1_555 1_555
C10_3 N3_4 1_555 1_555
H11_3 C10_3 1_555 1_555
C11_4 N4_4 1_555 1_555
H12_3 C11_4 1_555 1_555
C12_4 N3_4 1_555 1_555
H13_4 C12_4 1_555 1_555
N2_4 C3_4 1_555 1_555
N4_4 C12_4 1_555 1_555
C8_4 C9_4 1_555 1_555
C10_3 C11_4 1_555 1_555
Cd8_2 O20_4 1_555 1_555
O22_4 Cd8_2 1_555 1_555
H34_4 O22_4 1_555 1_555
H35_4 O22_4 1_555 1_555
N14_2 C48_4 1_555 1_555
N10_4 C49_3 1_555 1_555
N11_4 C54_4 1_555 1_555
N12_4 Cd8_2 1_555 1_555
C48_4 H36_3 1_555 1_555
C49_3 C48_4 1_555 1_555
H37_3 C49_3 1_555 1_555
C50_4 N14_2 1_555 1_555
H38_4 C50_4 1_555 1_555
C51_4 N10_4 1_555 1_555
C52_3 C51_4 1_555 1_555
H39_3 C52_3 1_555 1_555
C53_3 C52_3 1_555 1_555
H40_3 C53_3 1_555 1_555
C54_4 C53_3 1_555 1_555
C55_4 C54_4 1_555 1_555
H41_4 C55_4 1_555 1_555
C56_4 C51_4 1_555 1_555
H42_4 C56_4 1_555 1_555
C57_3 N11_4 1_555 1_555
H43_3 C57_3 1_555 1_555
C58_4 N12_4 1_555 1_555
H44_3 C58_4 1_555 1_555
C59_4 N11_4 1_555 1_555
H45_4 C59_4 1_555 1_555
O30_4 Cd8_2 1_555 1_555
N10_4 C50_4 1_555 1_555
N12_4 C59_4 1_555 1_555
C55_4 C56_4 1_555 1_555
C57_3 C58_4 1_555 1_555
O30_4 C81_4 1_555 1_555
H52_4 C76_4 1_555 1_555
C77_4 C76_4 1_555 1_555
H53_4 C77_4 1_555 1_555
O12_2 C73_2 1_555 1_555
C60_4 O21_4 1_555 1_555
C61_4 C60_4 1_555 1_555
C66_4 C61_4 1_555 1_555
H48_4 C66_4 1_555 1_555
H49_4 C68_4 1_555 1_555
C69_4 C68_4 1_555 1_555
H50_4 C69_4 1_555 1_555
Cd9_2 O3_4 1_555 1_555
O2_3 H1_3 1_555 1_555
O3_4 C27_4 1_555 1_555
O23_2 C27_4 1_555 1_555
O5_4 Cd9_2 1_555 1_555
O25_2 C35_4 1_555 1_555
N5_4 Cd9_2 1_555 1_555
N6_4 C37_4 1_555 1_555
C16_4 C15_4 1_555 1_555
C17_4 C16_4 1_555 1_555
H15_4 C17_4 1_555 1_555
C18_4 C17_4 1_555 1_555
C20_4 C18_4 1_555 1_555
C24_4 C23_4 1_555 1_555
H19_4 C24_4 1_555 1_555
C25_4 C20_4 1_555 1_555
C27_4 C25_4 1_555 1_555
C28_4 C16_4 1_555 1_555
C32_4 C31_4 1_555 1_555
H22_4 C32_4 1_555 1_555
C33_4 C28_4 1_555 1_555
C35_4 O5_4 1_555 1_555
C36_4 H23_4 1_555 1_555
C37_4 C36_4 1_555 1_555
C38_3 C37_4 1_555 1_555
H24_3 C38_3 1_555 1_555
C39_4 N6_4 1_555 1_555
H25_4 C39_4 1_555 1_555
C40_4 N5_4 1_555 1_555
H26_4 C40_4 1_555 1_555
C41_4 N5_4 1_555 1_555
H27_4 C41_4 1_555 1_555
N7_4 C46_4 1_555 1_555
N8_4 C43_4 1_555 1_555
C42_4 C38_3 1_555 1_555
H28_4 C42_4 1_555 1_555
C43_4 C42_4 1_555 1_555
C44_3 C36_4 1_555 1_555
H29_3 C44_3 1_555 1_555
C45_4 N8_4 1_555 1_555
H30_4 C45_4 1_555 1_555
C46_4 C45_4 1_555 1_555
H31_4 C46_4 1_555 1_555
C47_4 N7_4 1_555 1_555
H32_4 C47_4 1_555 1_555
Cd10_2 N7_4 1_555 1_555
O13_3 H33_3 1_555 1_555
O14_4 Cd10_2 1_555 1_555
O24_2 C74_4 1_555 1_555
O16_4 Cd10_2 1_555 1_555
O26_2 C82_4 1_555 1_555
C63_4 C62_4 1_555 1_555
C64_4 C63_4 1_555 1_555
H47_4 C64_4 1_555 1_555
C65_4 C64_4 1_555 1_555
C67_4 C65_4 1_555 1_555
C71_4 C70_4 1_555 1_555
H51_4 C71_4 1_555 1_555
C72_4 C67_4 1_555 1_555
C74_4 O14_4 1_555 1_555
C75_4 C63_4 1_555 1_555
C79_4 C78_4 1_555 1_555
H54_4 C79_4 1_555 1_555
C80_4 C75_4 1_555 1_555
C82_4 O16_4 1_555 1_555
N6_4 C41_4 1_555 1_555
C24_4 C25_4 1_555 1_555
C32_4 C33_4 1_555 1_555
C33_4 C35_4 1_555 1_555
C39_4 C40_4 1_555 1_555
N8_4 C47_4 1_555 1_555
C43_4 C44_3 1_555 1_555
C71_4 C72_4 1_555 1_555
C72_4 C74_4 1_555 1_555
C79_4 C80_4 1_555 1_555
C80_4 C82_4 1_555 1_555
O1_2 C26_2 1_555 1_555
C13_4 O10_4 1_555 1_555
C14_4 C13_4 1_555 1_555
C19_4 C14_4 1_555 1_555
H16_4 C19_4 1_555 1_555
H17_4 C21_4 1_555 1_555
C22_4 C21_4 1_555 1_555
H18_4 C22_4 1_555 1_555
O1_3 C26_3 1_555 1_555
O2_4 H1_4 1_555 1_555
C26_3 O2_4 1_555 1_555
H24_4 C38_4 1_555 1_555
H29_4 C44_4 1_555 1_555
O12_3 C73_3 1_555 1_555
O13_4 H33_4 1_555 1_555
C73_3 O13_4 1_555 1_555
O12_4 C73_4 1_555 1_555
O1_4 C26_4 1_555 1_555
H37_4 C49_4 1_555 1_555
H39_4 C52_4 1_555 1_555
C53_4 C52_4 1_555 1_555
H40_4 C53_4 1_555 1_555
H43_4 C57_4 1_555 1_555
H5_4 C2_4 1_555 1_555
H7_4 C5_4 1_555 1_555
C6_4 C5_4 1_555 1_555
H8_4 C6_4 1_555 1_555
H11_4 C10_4 1_555 1_555

#END
