
###############################################################################
#
# This file contains modified crystal structure data generated from the
# MOF subset of the Cambridge Structural Database (CSD) v543 
# hosted by the Cambridge Crystallographic Data Centre (CCDC).
#
# This work is licensed under the Creative Commons
# Attribution-NonCommercial-ShareAlike 4.0 International License.
# To view a copy of this license, visit
# http://creativecommons.org/licenses/by-nc-sa/4.0/
# or send a letter to
# Creative Commons, PO Box 1866, Mountain View, CA 94042, USA.
#
# CIF created using the CSD Python API on 29 September 2022
# The structure has been converted into the P1 space group
# The structure has a 3D framework
# The original CSD entry PILPOS is in the monoclinic crystal system
# The framework has been calculated to contain at least 10.0% void space
# The void calculation uses a probe of radius 1.32A, grid spacing 0.4
# H atom positions have been added when not included in the experimental data
#
###############################################################################

data_PILPOS
_chemical_formula_moiety         '(C192 H112 N48 O56 Zn4)n'
_symmetry_cell_setting           triclinic
_symmetry_space_group_name_H-M   'P 1'
_symmetry_Int_Tables_number      1
_space_group_name_Hall           'P 1'
loop_
_symmetry_equiv_pos_site_id
_symmetry_equiv_pos_as_xyz
1 x,y,z
_cell_length_a                   11.001(2)
_cell_length_b                   25.507(5)
_cell_length_c                   17.270(4)
_cell_angle_alpha                90
_cell_angle_beta                 93.56(3)
_cell_angle_gamma                90
_cell_volume                     4836.65
loop_
_atom_site_label
_atom_site_type_symbol
_atom_site_fract_x
_atom_site_fract_y
_atom_site_fract_z
Zn1 Zn 0.09240(9) 0.09031(4) 0.04886(7)
N7 N 0.1574(7) 0.1638(3) 0.0735(4)
N8 N 0.2375(6) 0.0398(2) 0.0434(4)
H14 H 0.0265443 0.0889305 0.186474
O2 O 0.7409(7) 0.1822(3) 0.8884(5)
O3 O 0.4756(6) 0.2964(2) 0.5568(5)
H1 H 0.4562 0.3272 0.5497
O4 O 0.9587(6) 0.2889(3) 0.6161(6)
O5 O 0.2684(6) 0.0751(2) 0.4281(4)
N1 N 0.9750(6) 0.0912(3) 0.9516(4)
N2 N 0.8966(7) 0.1346(3) 0.9424(5)
H2 H 0.9079 0.1593 0.9760
N3 N 0.6574(7) 0.3362(3) 0.5735(4)
N4 N 0.7828(7) 0.3317(3) 0.5901(5)
H3 H 0.8239 0.3604 0.5921
C1 C 0.8499(8) 0.0152(4) 0.7850(5)
C2 C 0.7605(8) 0.0180(3) 0.7262(5)
C3 C 0.6812(7) 0.0613(3) 0.7186(4)
C4 C 0.6943(7) 0.1018(3) 0.7699(5)
H7 H 0.6417 0.1304 0.7654
C5 C 0.7884(7) 0.1006(3) 0.8305(5)
C6 C 0.8637(7) 0.0562(3) 0.8374(5)
C7 C 0.9573(8) 0.0530(4) 0.9021(5)
C8 C 0.8062(8) 0.1423(3) 0.8874(6)
C9 C 0.8309(8) 0.1913(3) 0.6110(6)
H8 H 0.9153 0.1893 0.6179
C10 C 0.7614(7) 0.1462(3) 0.6104(5)
H9 H 0.7997 0.1139 0.6167
C11 C 0.6353(7) 0.1483(3) 0.6007(4)
C12 C 0.5793(7) 0.1964(3) 0.5895(5)
H10 H 0.4949 0.1982 0.5824
C13 C 0.6487(7) 0.2427(3) 0.5887(5)
C14 C 0.7737(7) 0.2397(3) 0.6011(5)
C15 C 0.5891(8) 0.2935(3) 0.5731(6)
C16 C 0.8456(8) 0.2875(4) 0.6031(6)
C17 C 0.4687(7) 0.0933(3) 0.5431(5)
H11 H 0.4551 0.1196 0.5064
C18 C 0.5607(7) 0.0996(3) 0.5998(4)
C19 C 0.5841(6) 0.0584(3) 0.6546(4)
C20 C 0.5129(7) 0.0138(3) 0.6496(4)
C21 C 0.4159(6) 0.0086(3) 0.5927(4)
C22 C 0.3945(7) 0.0484(3) 0.5387(4)
C23 C 0.2926(7) 0.0423(3) 0.4809(5)
Zn3 Zn 0.59240(9) 0.40969(4) 0.54886(7)
O3_2 O 0.9756(6) 0.7964(2) 0.5568(5)
H1_2 H 0.9562 0.8272 0.5497
O5_2 O 0.7684(6) 0.5751(2) 0.4281(4)
O6 O 0.8519(6) 0.4267(2) 0.6438(4)
N5 N 0.7258(6) 0.4998(2) 0.4875(4)
H4 H 0.6672 0.4958 0.4526
N6 N 0.7375(6) 0.4602(2) 0.5434(4)
H10_2 H 0.9949 0.6982 0.5824
C17_2 C 0.9687(7) 0.5933(3) 0.5431(5)
H11_2 H 0.9551 0.6196 0.5064
C21_2 C 0.9159(6) 0.5086(3) 0.5927(4)
C22_2 C 0.8945(7) 0.5484(3) 0.5387(4)
C23_2 C 0.7926(7) 0.5423(3) 0.4809(5)
C24 C 0.8341(7) 0.4620(3) 0.5939(5)
O6_2 O 0.3519(6) 0.0733(2) 0.1438(4)
H5 H 0.9009 0.0139 0.2896
H6 H 0.7519 0.0093 0.1906
H12 H 0.5293 0.0134 0.1845
C24_2 C 0.3341(7) 0.0380(3) 0.0939(5)
O1 O 0.5189(8) 0.4879(4) 0.4095(5)
O2_2 O 0.2409(7) 0.3178(3) 0.3884(5)
O4_2 O 0.4587(6) 0.2111(3) 0.1161(6)
N1_2 N 0.4750(6) 0.4088(3) 0.4516(4)
N2_2 N 0.3966(7) 0.3654(3) 0.4424(5)
H2_2 H 0.4079 0.3407 0.4760
N4_2 N 0.2828(7) 0.1683(3) 0.0901(5)
H3_2 H 0.3239 0.1396 0.0921
C1_2 C 0.3499(8) 0.4848(4) 0.2850(5)
H5_2 H 0.4009 0.5139 0.2896
C2_2 C 0.2605(8) 0.4820(3) 0.2262(5)
H6_2 H 0.2519 0.5093 0.1906
C3_2 C 0.1812(7) 0.4387(3) 0.2186(4)
C4_2 C 0.1943(7) 0.3982(3) 0.2699(5)
H7_2 H 0.1417 0.3696 0.2654
C5_2 C 0.2884(7) 0.3994(3) 0.3305(5)
C6_2 C 0.3637(7) 0.4438(3) 0.3374(5)
C7_2 C 0.4573(8) 0.4470(4) 0.4021(5)
C8_2 C 0.3062(8) 0.3577(3) 0.3874(6)
C9_2 C 0.3309(8) 0.3087(3) 0.1110(6)
H8_2 H 0.4153 0.3107 0.1179
C10_2 C 0.2614(7) 0.3538(3) 0.1104(5)
H9_2 H 0.2997 0.3861 0.1167
C11_2 C 0.1353(7) 0.3517(3) 0.1007(4)
C12_2 C 0.0793(7) 0.3036(3) 0.0895(5)
C13_2 C 0.1487(7) 0.2573(3) 0.0887(5)
C14_2 C 0.2737(7) 0.2603(3) 0.1011(5)
C15_2 C 0.0891(8) 0.2065(3) 0.0731(6)
C16_2 C 0.3456(8) 0.2125(4) 0.1031(6)
C18_2 C 0.0607(7) 0.4004(3) 0.0998(4)
C19_2 C 0.0841(6) 0.4416(3) 0.1546(4)
C20_2 C 0.0129(7) 0.4862(3) 0.1496(4)
H12_2 H 0.0293 0.5134 0.1845
O7 O 0.4784(8) 0.4106(3) 0.6359(5)
H13 H 0.426284 0.442373 0.631365
H14_2 H 0.526544 0.411069 0.686474
O1_2 O 0.0189(8) 0.0121(4) 0.9095(5)
O7_2 O 0.9784(8) 0.0894(3) 0.1359(5)
H13_2 H 0.926284 0.0576274 0.131365
O6_3 O 0.3519(6) 0.9267(2) 0.6438(4)
N5_2 N 0.2258(6) 0.9998(2) 0.4875(4)
H4_2 H 0.1672 0.9958 0.4526
N6_2 N 0.2375(6) 0.9602(2) 0.5434(4)
H5_3 H 0.9009 0.9861 0.7896
H6_3 H 0.7519 0.9907 0.6906
H12_3 H 0.5293 0.9866 0.6845
C24_3 C 0.3341(7) 0.9620(3) 0.5939(5)
Zn2 Zn 0.09240(9) 0.90969(4) 0.54886(7)
O1_3 O 0.5189(8) 0.5121(4) 0.9095(5)
O2_3 O 0.2409(7) 0.6822(3) 0.8884(5)
O4_3 O 0.4587(6) 0.7889(3) 0.6161(6)
N1_3 N 0.4750(6) 0.5912(3) 0.9516(4)
N2_3 N 0.3966(7) 0.6346(3) 0.9424(5)
H2_3 H 0.4079 0.6593 0.9760
N3_2 N 0.1574(7) 0.8362(3) 0.5735(4)
N4_3 N 0.2828(7) 0.8317(3) 0.5901(5)
H3_3 H 0.3239 0.8604 0.5921
C1_3 C 0.3499(8) 0.5152(4) 0.7850(5)
H5_4 H 0.4009 0.4861 0.7896
C2_3 C 0.2605(8) 0.5180(3) 0.7262(5)
H6_4 H 0.2519 0.4907 0.6906
C3_3 C 0.1812(7) 0.5613(3) 0.7186(4)
C4_3 C 0.1943(7) 0.6018(3) 0.7699(5)
H7_3 H 0.1417 0.6304 0.7654
C5_3 C 0.2884(7) 0.6006(3) 0.8305(5)
C6_3 C 0.3637(7) 0.5562(3) 0.8374(5)
C7_3 C 0.4573(8) 0.5530(4) 0.9021(5)
C8_3 C 0.3062(8) 0.6423(3) 0.8874(6)
C9_3 C 0.3309(8) 0.6913(3) 0.6110(6)
H8_3 H 0.4153 0.6893 0.6179
C10_3 C 0.2614(7) 0.6462(3) 0.6104(5)
H9_3 H 0.2997 0.6139 0.6167
C11_3 C 0.1353(7) 0.6483(3) 0.6007(4)
C12_3 C 0.0793(7) 0.6964(3) 0.5895(5)
C13_3 C 0.1487(7) 0.7427(3) 0.5887(5)
C14_3 C 0.2737(7) 0.7397(3) 0.6011(5)
C15_3 C 0.0891(8) 0.7935(3) 0.5731(6)
C16_3 C 0.3456(8) 0.7875(4) 0.6031(6)
C18_3 C 0.0607(7) 0.5996(3) 0.5998(4)
C19_3 C 0.0841(6) 0.5584(3) 0.6546(4)
C20_3 C 0.0129(7) 0.5138(3) 0.6496(4)
H12_4 H 0.0293 0.4866 0.6845
O1_4 O 0.0189(8) 0.9879(4) 0.4095(5)
H14_3 H 0.0265443 0.911069 0.686474
O5_3 O 0.7316(6) 0.0751(2) 0.0719(4)
C23_3 C 0.7074(7) 0.0423(3) 0.0191(5)
O2_4 O 0.2591(7) 0.1822(3) 0.6116(5)
O3_3 O 0.5244(6) 0.2964(2) 0.9432(5)
H1_3 H 0.5438 0.3272 0.9503
O4_4 O 0.0413(6) 0.2889(3) 0.8839(6)
N1_4 N 0.0250(6) 0.0912(3) 0.5484(4)
N2_4 N 0.1034(7) 0.1346(3) 0.5576(5)
H2_4 H 0.0921 0.1593 0.5240
N3_3 N 0.3426(7) 0.3362(3) 0.9265(4)
N4_4 N 0.2172(7) 0.3317(3) 0.9099(5)
H3_4 H 0.1761 0.3604 0.9079
C1_4 C 0.1501(8) 0.0152(4) 0.7150(5)
C2_4 C 0.2395(8) 0.0180(3) 0.7738(5)
C3_4 C 0.3188(7) 0.0613(3) 0.7814(4)
C4_4 C 0.3057(7) 0.1018(3) 0.7301(5)
H7_4 H 0.3583 0.1304 0.7346
C5_4 C 0.2116(7) 0.1006(3) 0.6695(5)
C6_4 C 0.1363(7) 0.0562(3) 0.6626(5)
C7_4 C 0.0427(8) 0.0530(4) 0.5979(5)
C8_4 C 0.1938(8) 0.1423(3) 0.6126(6)
C9_4 C 0.1691(8) 0.1913(3) 0.8890(6)
H8_4 H 0.0847 0.1893 0.8821
C10_4 C 0.2386(7) 0.1462(3) 0.8896(5)
H9_4 H 0.2003 0.1139 0.8833
C11_4 C 0.3647(7) 0.1483(3) 0.8993(4)
C12_4 C 0.4207(7) 0.1964(3) 0.9105(5)
H10_3 H 0.5051 0.1982 0.9176
C13_4 C 0.3513(7) 0.2427(3) 0.9113(5)
C14_4 C 0.2263(7) 0.2397(3) 0.8989(5)
C15_4 C 0.4109(8) 0.2935(3) 0.9269(6)
C16_4 C 0.1544(8) 0.2875(4) 0.8969(6)
C17_3 C 0.5313(7) 0.0933(3) 0.9569(5)
H11_3 H 0.5449 0.1196 0.9936
C18_4 C 0.4393(7) 0.0996(3) 0.9002(4)
C19_4 C 0.4159(6) 0.0584(3) 0.8454(4)
C20_4 C 0.4871(7) 0.0138(3) 0.8504(4)
C21_3 C 0.5841(6) 0.0086(3) 0.9073(4)
C22_3 C 0.6055(7) 0.0484(3) 0.9613(4)
O7_3 O 0.0216(8) 0.0894(3) 0.3641(5)
Zn3_2 Zn 0.40760(9) 0.40969(4) 0.95114(7)
H13_3 H 0.073716 0.0576274 0.368635
O3_4 O 0.0244(6) 0.7964(2) 0.9432(5)
H1_4 H 0.0438 0.8272 0.9503
O6_4 O 0.1481(6) 0.4267(2) 0.8562(4)
N6_3 N 0.2625(6) 0.4602(2) 0.9566(4)
H10_4 H 0.0051 0.6982 0.9176
C17_4 C 0.0313(7) 0.5933(3) 0.9569(5)
H11_4 H 0.0449 0.6196 0.9936
C21_4 C 0.0841(6) 0.5086(3) 0.9073(4)
C22_4 C 0.1055(7) 0.5484(3) 0.9613(4)
C24_4 C 0.1659(7) 0.4620(3) 0.9061(5)
O7_4 O 0.5216(8) 0.4106(3) 0.8641(5)
H13_4 H 0.573716 0.442373 0.868635
H14_4 H 0.473456 0.411069 0.813526
N5_3 N 0.7742(6) 0.9998(2) 0.0125(4)
H4_3 H 0.8328 0.9958 0.0474
O6_5 O 0.6481(6) 0.9267(2) 0.8562(4)
N6_4 N 0.7625(6) 0.9602(2) 0.9566(4)
H5_5 H 0.0991 0.9861 0.7104
H6_5 H 0.2481 0.9907 0.8094
H12_5 H 0.4707 0.9866 0.8155
C24_5 C 0.6659(7) 0.9620(3) 0.9061(5)
Zn2_2 Zn 0.90760(9) 0.90969(4) 0.95114(7)
Zn1_2 Zn 0.40760(9) 0.59031(4) 0.45114(7)
O1_5 O 0.4811(8) 0.5121(4) 0.5905(5)
O2_5 O 0.7591(7) 0.6822(3) 0.6116(5)
O4_5 O 0.5413(6) 0.7889(3) 0.8839(6)
N1_5 N 0.5250(6) 0.5912(3) 0.5484(4)
N2_5 N 0.6034(7) 0.6346(3) 0.5576(5)
H2_5 H 0.5921 0.6593 0.5240
N3_4 N 0.8426(7) 0.8362(3) 0.9265(4)
N4_5 N 0.7172(7) 0.8317(3) 0.9099(5)
H3_5 H 0.6761 0.8604 0.9079
C1_5 C 0.6501(8) 0.5152(4) 0.7150(5)
H5_6 H 0.5991 0.4861 0.7104
C2_5 C 0.7395(8) 0.5180(3) 0.7738(5)
H6_6 H 0.7481 0.4907 0.8094
C3_5 C 0.8188(7) 0.5613(3) 0.7814(4)
C4_5 C 0.8057(7) 0.6018(3) 0.7301(5)
H7_5 H 0.8583 0.6304 0.7346
C5_5 C 0.7116(7) 0.6006(3) 0.6695(5)
C6_5 C 0.6363(7) 0.5562(3) 0.6626(5)
C7_5 C 0.5427(8) 0.5530(4) 0.5979(5)
C8_5 C 0.6938(8) 0.6423(3) 0.6126(6)
C9_5 C 0.6691(8) 0.6913(3) 0.8890(6)
H8_5 H 0.5847 0.6893 0.8821
C10_5 C 0.7386(7) 0.6462(3) 0.8896(5)
H9_5 H 0.7003 0.6139 0.8833
C11_5 C 0.8647(7) 0.6483(3) 0.8993(4)
C12_5 C 0.9207(7) 0.6964(3) 0.9105(5)
C13_5 C 0.8513(7) 0.7427(3) 0.9113(5)
C14_5 C 0.7263(7) 0.7397(3) 0.8989(5)
C15_5 C 0.9109(8) 0.7935(3) 0.9269(6)
C16_5 C 0.6544(8) 0.7875(4) 0.8969(6)
C18_5 C 0.9393(7) 0.5996(3) 0.9002(4)
C19_5 C 0.9159(6) 0.5584(3) 0.8454(4)
C20_5 C 0.9871(7) 0.5138(3) 0.8504(4)
H12_6 H 0.9707 0.4866 0.8155
O7_5 O 0.5216(8) 0.5894(3) 0.3641(5)
N7_2 N 0.3426(7) 0.6638(3) 0.4265(4)
N8_2 N 0.2625(6) 0.5398(2) 0.4566(4)
H13_5 H 0.573716 0.557627 0.368635
H14_5 H 0.473456 0.588931 0.313526
O2_6 O 0.2591(7) 0.8178(3) 0.1116(5)
O3_5 O 0.5244(6) 0.7036(2) 0.4432(5)
H1_5 H 0.5438 0.6728 0.4503
O4_6 O 0.0413(6) 0.7111(3) 0.3839(6)
O5_4 O 0.7316(6) 0.9249(2) 0.5719(4)
N1_6 N 0.0250(6) 0.9088(3) 0.0484(4)
N2_6 N 0.1034(7) 0.8654(3) 0.0576(5)
H2_6 H 0.0921 0.8407 0.0240
N4_6 N 0.2172(7) 0.6683(3) 0.4099(5)
H3_6 H 0.1761 0.6396 0.4079
C1_6 C 0.1501(8) 0.9848(4) 0.2150(5)
C2_6 C 0.2395(8) 0.9820(3) 0.2738(5)
C3_6 C 0.3188(7) 0.9387(3) 0.2814(4)
C4_6 C 0.3057(7) 0.8982(3) 0.2301(5)
H7_6 H 0.3583 0.8696 0.2346
C5_6 C 0.2116(7) 0.8994(3) 0.1695(5)
C6_6 C 0.1363(7) 0.9438(3) 0.1626(5)
C7_6 C 0.0427(8) 0.9470(4) 0.0979(5)
C8_6 C 0.1938(8) 0.8577(3) 0.1126(6)
C9_6 C 0.1691(8) 0.8087(3) 0.3890(6)
H8_6 H 0.0847 0.8107 0.3821
C10_6 C 0.2386(7) 0.8538(3) 0.3896(5)
H9_6 H 0.2003 0.8861 0.3833
C11_6 C 0.3647(7) 0.8517(3) 0.3993(4)
C12_6 C 0.4207(7) 0.8036(3) 0.4105(5)
H10_5 H 0.5051 0.8018 0.4176
C13_6 C 0.3513(7) 0.7573(3) 0.4113(5)
C14_6 C 0.2263(7) 0.7603(3) 0.3989(5)
C15_6 C 0.4109(8) 0.7065(3) 0.4269(6)
C16_6 C 0.1544(8) 0.7125(4) 0.3969(6)
C17_5 C 0.5313(7) 0.9067(3) 0.4569(5)
H11_5 H 0.5449 0.8804 0.4936
C18_6 C 0.4393(7) 0.9004(3) 0.4002(4)
C19_6 C 0.4159(6) 0.9416(3) 0.3454(4)
C20_6 C 0.4871(7) 0.9862(3) 0.3504(4)
C21_5 C 0.5841(6) 0.9914(3) 0.4073(4)
C22_5 C 0.6055(7) 0.9516(3) 0.4613(4)
C23_4 C 0.7074(7) 0.9577(3) 0.5191(5)
H14_6 H 0.973456 0.911069 0.813526
O3_6 O 0.0244(6) 0.2036(2) 0.4432(5)
H1_6 H 0.0438 0.1728 0.4503
O5_5 O 0.2316(6) 0.4249(2) 0.5719(4)
O6_6 O 0.1481(6) 0.5733(2) 0.3562(4)
N5_4 N 0.2742(6) 0.5002(2) 0.5125(4)
H4_4 H 0.3328 0.5042 0.5474
H10_6 H 0.0051 0.3018 0.4176
C17_6 C 0.0313(7) 0.4067(3) 0.4569(5)
H11_6 H 0.0449 0.3804 0.4936
C21_6 C 0.0841(6) 0.4914(3) 0.4073(4)
C22_6 C 0.1055(7) 0.4516(3) 0.4613(4)
C23_5 C 0.2074(7) 0.4577(3) 0.5191(5)
C24_6 C 0.1659(7) 0.5380(3) 0.4061(5)
Zn1_3 Zn 0.90760(9) 0.09031(4) 0.45114(7)
O1_6 O 0.9811(8) 0.0121(4) 0.5905(5)
N7_3 N 0.8426(7) 0.1638(3) 0.4265(4)
N8_3 N 0.7625(6) 0.0398(2) 0.4566(4)
H14_7 H 0.973456 0.0889305 0.313526
O6_7 O 0.6481(6) 0.0733(2) 0.3562(4)
N5_5 N 0.7742(6) 0.0002(2) 0.5125(4)
H4_5 H 0.8328 0.0042 0.5474
H5_7 H 0.0991 0.0139 0.2104
H6_7 H 0.2481 0.0093 0.3094
H12_7 H 0.4707 0.0134 0.3155
C24_7 C 0.6659(7) 0.0380(3) 0.4061(5)
O1_7 O 0.4811(8) 0.4879(4) 0.0905(5)
O2_7 O 0.7591(7) 0.3178(3) 0.1116(5)
O4_7 O 0.5413(6) 0.2111(3) 0.3839(6)
N1_7 N 0.5250(6) 0.4088(3) 0.0484(4)
N2_7 N 0.6034(7) 0.3654(3) 0.0576(5)
H2_7 H 0.5921 0.3407 0.0240
N4_7 N 0.7172(7) 0.1683(3) 0.4099(5)
H3_7 H 0.6761 0.1396 0.4079
C1_7 C 0.6501(8) 0.4848(4) 0.2150(5)
H5_8 H 0.5991 0.5139 0.2104
C2_7 C 0.7395(8) 0.4820(3) 0.2738(5)
H6_8 H 0.7481 0.5093 0.3094
C3_7 C 0.8188(7) 0.4387(3) 0.2814(4)
C4_7 C 0.8057(7) 0.3982(3) 0.2301(5)
H7_7 H 0.8583 0.3696 0.2346
C5_7 C 0.7116(7) 0.3994(3) 0.1695(5)
C6_7 C 0.6363(7) 0.4438(3) 0.1626(5)
C7_7 C 0.5427(8) 0.4470(4) 0.0979(5)
C8_7 C 0.6938(8) 0.3577(3) 0.1126(6)
C9_7 C 0.6691(8) 0.3087(3) 0.3890(6)
H8_7 H 0.5847 0.3107 0.3821
C10_7 C 0.7386(7) 0.3538(3) 0.3896(5)
H9_7 H 0.7003 0.3861 0.3833
C11_7 C 0.8647(7) 0.3517(3) 0.3993(4)
C12_7 C 0.9207(7) 0.3036(3) 0.4105(5)
C13_7 C 0.8513(7) 0.2573(3) 0.4113(5)
C14_7 C 0.7263(7) 0.2603(3) 0.3989(5)
C15_7 C 0.9109(8) 0.2065(3) 0.4269(6)
C16_7 C 0.6544(8) 0.2125(4) 0.3969(6)
C18_7 C 0.9393(7) 0.4004(3) 0.4002(4)
C19_7 C 0.9159(6) 0.4416(3) 0.3454(4)
C20_7 C 0.9871(7) 0.4862(3) 0.3504(4)
H12_8 H 0.9707 0.5134 0.3155
Zn1_4 Zn 0.59240(9) 0.59031(4) 0.04886(7)
O7_6 O 0.4784(8) 0.5894(3) 0.1359(5)
N7_4 N 0.6574(7) 0.6638(3) 0.0735(4)
N8_4 N 0.7375(6) 0.5398(2) 0.0434(4)
H13_6 H 0.426284 0.557627 0.131365
H14_8 H 0.526544 0.588931 0.186474
O2_8 O 0.7409(7) 0.8178(3) 0.3884(5)
O3_7 O 0.4756(6) 0.7036(2) 0.0568(5)
H1_7 H 0.4562 0.6728 0.0497
O4_8 O 0.9587(6) 0.7111(3) 0.1161(6)
N1_8 N 0.9750(6) 0.9088(3) 0.4516(4)
N2_8 N 0.8966(7) 0.8654(3) 0.4424(5)
H2_8 H 0.9079 0.8407 0.4760
N4_8 N 0.7828(7) 0.6683(3) 0.0901(5)
H3_8 H 0.8239 0.6396 0.0921
C1_8 C 0.8499(8) 0.9848(4) 0.2850(5)
C2_8 C 0.7605(8) 0.9820(3) 0.2262(5)
C3_8 C 0.6812(7) 0.9387(3) 0.2186(4)
C4_8 C 0.6943(7) 0.8982(3) 0.2699(5)
H7_8 H 0.6417 0.8696 0.2654
C5_8 C 0.7884(7) 0.8994(3) 0.3305(5)
C6_8 C 0.8637(7) 0.9438(3) 0.3374(5)
C7_8 C 0.9573(8) 0.9470(4) 0.4021(5)
C8_8 C 0.8062(8) 0.8577(3) 0.3874(6)
C9_8 C 0.8309(8) 0.8087(3) 0.1110(6)
H8_8 H 0.9153 0.8107 0.1179
C10_8 C 0.7614(7) 0.8538(3) 0.1104(5)
H9_8 H 0.7997 0.8861 0.1167
C11_8 C 0.6353(7) 0.8517(3) 0.1007(4)
C12_8 C 0.5793(7) 0.8036(3) 0.0895(5)
H10_7 H 0.4949 0.8018 0.0824
C13_8 C 0.6487(7) 0.7573(3) 0.0887(5)
C14_8 C 0.7737(7) 0.7603(3) 0.1011(5)
C15_8 C 0.5891(8) 0.7065(3) 0.0731(6)
C16_8 C 0.8456(8) 0.7125(4) 0.1031(6)
C17_7 C 0.4687(7) 0.9067(3) 0.0431(5)
H11_7 H 0.4551 0.8804 0.0064
C18_8 C 0.5607(7) 0.9004(3) 0.0998(4)
C19_8 C 0.5841(6) 0.9416(3) 0.1546(4)
C20_8 C 0.5129(7) 0.9862(3) 0.1496(4)
C21_7 C 0.4159(6) 0.9914(3) 0.0927(4)
C22_7 C 0.3945(7) 0.9516(3) 0.0387(4)
O7_7 O 0.9784(8) 0.9106(3) 0.6359(5)
H13_7 H 0.926284 0.942373 0.631365
O3_8 O 0.9756(6) 0.2036(2) 0.0568(5)
H1_8 H 0.9562 0.1728 0.0497
O6_8 O 0.8519(6) 0.5733(2) 0.1438(4)
H10_8 H 0.9949 0.3018 0.0824
C17_8 C 0.9687(7) 0.4067(3) 0.0431(5)
H11_8 H 0.9551 0.3804 0.0064
C21_8 C 0.9159(6) 0.4914(3) 0.0927(4)
C22_8 C 0.8945(7) 0.4516(3) 0.0387(4)
C24_8 C 0.8341(7) 0.5380(3) 0.0939(5)
O5_6 O 0.2316(6) 0.5751(2) 0.0719(4)
N5_6 N 0.2742(6) 0.4998(2) 0.0125(4)
H4_6 H 0.3328 0.4958 0.0474
C23_6 C 0.2074(7) 0.5423(3) 0.0191(5)
O7_8 O 0.0216(8) 0.9106(3) 0.8641(5)
H13_8 H 0.073716 0.942373 0.868635
O1_8 O 0.9811(8) 0.9879(4) 0.0905(5)
N5_7 N 0.2258(6) 0.0002(2) 0.9875(4)
H4_7 H 0.1672 0.0042 0.9526
O5_7 O 0.2684(6) 0.9249(2) 0.9281(4)
C23_7 C 0.2926(7) 0.9577(3) 0.9809(5)
O5_8 O 0.7684(6) 0.4249(2) 0.9281(4)
N5_8 N 0.7258(6) 0.5002(2) 0.9875(4)
H4_8 H 0.6672 0.5042 0.9526
C23_8 C 0.7926(7) 0.4577(3) 0.9809(5)
loop_
_geom_bond_atom_site_label_1
_geom_bond_atom_site_label_2
_geom_bond_site_symmetry_1
_geom_bond_site_symmetry_2
N7 Zn1 1_555 1_555
N8 Zn1 1_555 1_555
O2 C8 1_555 1_555
O3 H1 1_555 1_555
O4 C16 1_555 1_555
O5 C23 1_555 1_555
N1 N2 1_555 1_555
N2 H2 1_555 1_555
N3 N4 1_555 1_555
N4 H3 1_555 1_555
C2 C1 1_555 1_555
C3 C2 1_555 1_555
C4 C3 1_555 1_555
H7 C4 1_555 1_555
C5 C4 1_555 1_555
C6 C1 1_555 1_555
C7 N1 1_555 1_555
C8 N2 1_555 1_555
C9 H8 1_555 1_555
C10 C9 1_555 1_555
H9 C10 1_555 1_555
C11 C10 1_555 1_555
C12 C11 1_555 1_555
H10 C12 1_555 1_555
C13 C12 1_555 1_555
C14 C9 1_555 1_555
C15 O3 1_555 1_555
C16 N4 1_555 1_555
C17 H11 1_555 1_555
C18 C11 1_555 1_555
C19 C3 1_555 1_555
C20 C19 1_555 1_555
C21 C20 1_555 1_555
C22 C17 1_555 1_555
Zn3 N3 1_555 1_555
N3 C15 1_555 1_555
C5 C6 1_555 1_555
C5 C8 1_555 1_555
C6 C7 1_555 1_555
C13 C14 1_555 1_555
C13 C15 1_555 1_555
C14 C16 1_555 1_555
C17 C18 1_555 1_555
C18 C19 1_555 1_555
C21 C22 1_555 1_555
C22 C23 1_555 1_555
O3_2 H1_2 1_555 1_555
O5_2 C23_2 1_555 1_555
O6 C24 1_555 1_555
N5 H4 1_555 1_555
N6 N5 1_555 1_555
C17_2 H11_2 1_555 1_555
C22_2 C17_2 1_555 1_555
C23_2 N5 1_555 1_555
C24 N6 1_555 1_555
Zn3 N6 1_555 1_555
C21_2 C22_2 1_555 1_555
C21_2 C24 1_555 1_555
C22_2 C23_2 1_555 1_555
O6_2 C24_2 1_555 1_555
C24_2 N8 1_555 1_555
Zn3 N1_2 1_555 1_555
O1 C7_2 1_555 1_555
O2_2 C8_2 1_555 1_555
O4_2 C16_2 1_555 1_555
N1_2 N2_2 1_555 1_555
N2_2 H2_2 1_555 1_555
N7 N4_2 1_555 1_555
N4_2 H3_2 1_555 1_555
C1_2 H5_2 1_555 1_555
C2_2 C1_2 1_555 1_555
H6_2 C2_2 1_555 1_555
C3_2 C2_2 1_555 1_555
C4_2 C3_2 1_555 1_555
H7_2 C4_2 1_555 1_555
C5_2 C4_2 1_555 1_555
C6_2 C1_2 1_555 1_555
C7_2 N1_2 1_555 1_555
C8_2 N2_2 1_555 1_555
C9_2 H8_2 1_555 1_555
C10_2 C9_2 1_555 1_555
H9_2 C10_2 1_555 1_555
C11_2 C10_2 1_555 1_555
C12_2 C11_2 1_555 1_555
C13_2 C12_2 1_555 1_555
C14_2 C9_2 1_555 1_555
C16_2 N4_2 1_555 1_555
C18_2 C11_2 1_555 1_555
C19_2 C3_2 1_555 1_555
C20_2 C19_2 1_555 1_555
H12_2 C20_2 1_555 1_555
O7 Zn3 1_555 1_555
N7 C15_2 1_555 1_555
C5_2 C6_2 1_555 1_555
C5_2 C8_2 1_555 1_555
C6_2 C7_2 1_555 1_555
C13_2 C14_2 1_555 1_555
C13_2 C15_2 1_555 1_555
C14_2 C16_2 1_555 1_555
C18_2 C19_2 1_555 1_555
O7 H13 1_555 1_555
O7 H14_2 1_555 1_555
O7_2 H13_2 1_555 1_555
O6_3 C24_3 1_555 1_555
N5_2 H4_2 1_555 1_555
N6_2 N5_2 1_555 1_555
C24_3 N6_2 1_555 1_555
Zn2 N6_2 1_555 1_555
O1_3 C7_3 1_555 1_555
O2_3 C8_3 1_555 1_555
O4_3 C16_3 1_555 1_555
N1_3 N2_3 1_555 1_555
N2_3 H2_3 1_555 1_555
N3_2 N4_3 1_555 1_555
N4_3 H3_3 1_555 1_555
C1_3 H5_4 1_555 1_555
C2_3 C1_3 1_555 1_555
H6_4 C2_3 1_555 1_555
C3_3 C2_3 1_555 1_555
C4_3 C3_3 1_555 1_555
H7_3 C4_3 1_555 1_555
C5_3 C4_3 1_555 1_555
C6_3 C1_3 1_555 1_555
C7_3 N1_3 1_555 1_555
C8_3 N2_3 1_555 1_555
C9_3 H8_3 1_555 1_555
C10_3 C9_3 1_555 1_555
H9_3 C10_3 1_555 1_555
C11_3 C10_3 1_555 1_555
C12_3 C11_3 1_555 1_555
C13_3 C12_3 1_555 1_555
C14_3 C9_3 1_555 1_555
C16_3 N4_3 1_555 1_555
C18_3 C11_3 1_555 1_555
C19_3 C3_3 1_555 1_555
C20_3 C19_3 1_555 1_555
H12_4 C20_3 1_555 1_555
Zn2 N3_2 1_555 1_555
N3_2 C15_3 1_555 1_555
C5_3 C6_3 1_555 1_555
C5_3 C8_3 1_555 1_555
C6_3 C7_3 1_555 1_555
C13_3 C14_3 1_555 1_555
C13_3 C15_3 1_555 1_555
C14_3 C16_3 1_555 1_555
C18_3 C19_3 1_555 1_555
O5_3 C23_3 1_555 1_555
O2_4 C8_4 1_555 1_555
O3_3 H1_3 1_555 1_555
O4_4 C16_4 1_555 1_555
N1_4 N2_4 1_555 1_555
N2_4 H2_4 1_555 1_555
N3_3 N4_4 1_555 1_555
N4_4 H3_4 1_555 1_555
C2_4 C1_4 1_555 1_555
C3_4 C2_4 1_555 1_555
C4_4 C3_4 1_555 1_555
H7_4 C4_4 1_555 1_555
C5_4 C4_4 1_555 1_555
C6_4 C1_4 1_555 1_555
C7_4 N1_4 1_555 1_555
C8_4 N2_4 1_555 1_555
C9_4 H8_4 1_555 1_555
C10_4 C9_4 1_555 1_555
H9_4 C10_4 1_555 1_555
C11_4 C10_4 1_555 1_555
C12_4 C11_4 1_555 1_555
H10_3 C12_4 1_555 1_555
C13_4 C12_4 1_555 1_555
C14_4 C9_4 1_555 1_555
C15_4 O3_3 1_555 1_555
C16_4 N4_4 1_555 1_555
C17_3 H11_3 1_555 1_555
C18_4 C11_4 1_555 1_555
C19_4 C3_4 1_555 1_555
C20_4 C19_4 1_555 1_555
C21_3 C20_4 1_555 1_555
C22_3 C17_3 1_555 1_555
Zn3_2 N3_3 1_555 1_555
N3_3 C15_4 1_555 1_555
C5_4 C6_4 1_555 1_555
C5_4 C8_4 1_555 1_555
C6_4 C7_4 1_555 1_555
C13_4 C14_4 1_555 1_555
C13_4 C15_4 1_555 1_555
C14_4 C16_4 1_555 1_555
C17_3 C18_4 1_555 1_555
C18_4 C19_4 1_555 1_555
C21_3 C22_3 1_555 1_555
O7_3 H13_3 1_555 1_555
O3_4 H1_4 1_555 1_555
O6_4 C24_4 1_555 1_555
C17_4 H11_4 1_555 1_555
C22_4 C17_4 1_555 1_555
C24_4 N6_3 1_555 1_555
Zn3_2 N6_3 1_555 1_555
C21_4 C22_4 1_555 1_555
C21_4 C24_4 1_555 1_555
O7_4 Zn3_2 1_555 1_555
O7_4 H13_4 1_555 1_555
O7_4 H14_4 1_555 1_555
N5_3 H4_3 1_555 1_555
O6_5 C24_5 1_555 1_555
C24_5 N6_4 1_555 1_555
Zn2_2 N6_4 1_555 1_555
Zn1_2 N1_5 1_555 1_555
O1_5 C7_5 1_555 1_555
O2_5 C8_5 1_555 1_555
O4_5 C16_5 1_555 1_555
N1_5 N2_5 1_555 1_555
N2_5 H2_5 1_555 1_555
N3_4 N4_5 1_555 1_555
N4_5 H3_5 1_555 1_555
C1_5 H5_6 1_555 1_555
C2_5 C1_5 1_555 1_555
H6_6 C2_5 1_555 1_555
C3_5 C2_5 1_555 1_555
C4_5 C3_5 1_555 1_555
H7_5 C4_5 1_555 1_555
C5_5 C4_5 1_555 1_555
C6_5 C1_5 1_555 1_555
C7_5 N1_5 1_555 1_555
C8_5 N2_5 1_555 1_555
C9_5 H8_5 1_555 1_555
C10_5 C9_5 1_555 1_555
H9_5 C10_5 1_555 1_555
C11_5 C10_5 1_555 1_555
C12_5 C11_5 1_555 1_555
C13_5 C12_5 1_555 1_555
C14_5 C9_5 1_555 1_555
C16_5 N4_5 1_555 1_555
C18_5 C11_5 1_555 1_555
C19_5 C3_5 1_555 1_555
C20_5 C19_5 1_555 1_555
H12_6 C20_5 1_555 1_555
O7_5 Zn1_2 1_555 1_555
Zn2_2 N3_4 1_555 1_555
N7_2 Zn1_2 1_555 1_555
N8_2 Zn1_2 1_555 1_555
N3_4 C15_5 1_555 1_555
C5_5 C6_5 1_555 1_555
C5_5 C8_5 1_555 1_555
C6_5 C7_5 1_555 1_555
C13_5 C14_5 1_555 1_555
C13_5 C15_5 1_555 1_555
C14_5 C16_5 1_555 1_555
C18_5 C19_5 1_555 1_555
O7_5 H13_5 1_555 1_555
O7_5 H14_5 1_555 1_555
O2_6 C8_6 1_555 1_555
O3_5 H1_5 1_555 1_555
O4_6 C16_6 1_555 1_555
O5_4 C23_4 1_555 1_555
N1_6 N2_6 1_555 1_555
N2_6 H2_6 1_555 1_555
N7_2 N4_6 1_555 1_555
N4_6 H3_6 1_555 1_555
C2_6 C1_6 1_555 1_555
C3_6 C2_6 1_555 1_555
C4_6 C3_6 1_555 1_555
H7_6 C4_6 1_555 1_555
C5_6 C4_6 1_555 1_555
C6_6 C1_6 1_555 1_555
C7_6 N1_6 1_555 1_555
C8_6 N2_6 1_555 1_555
C9_6 H8_6 1_555 1_555
C10_6 C9_6 1_555 1_555
H9_6 C10_6 1_555 1_555
C11_6 C10_6 1_555 1_555
C12_6 C11_6 1_555 1_555
H10_5 C12_6 1_555 1_555
C13_6 C12_6 1_555 1_555
C14_6 C9_6 1_555 1_555
C15_6 O3_5 1_555 1_555
C16_6 N4_6 1_555 1_555
C17_5 H11_5 1_555 1_555
C18_6 C11_6 1_555 1_555
C19_6 C3_6 1_555 1_555
C20_6 C19_6 1_555 1_555
C21_5 C20_6 1_555 1_555
C22_5 C17_5 1_555 1_555
N7_2 C15_6 1_555 1_555
C5_6 C6_6 1_555 1_555
C5_6 C8_6 1_555 1_555
C6_6 C7_6 1_555 1_555
C13_6 C14_6 1_555 1_555
C13_6 C15_6 1_555 1_555
C14_6 C16_6 1_555 1_555
C17_5 C18_6 1_555 1_555
C18_6 C19_6 1_555 1_555
C21_5 C22_5 1_555 1_555
C22_5 C23_4 1_555 1_555
O3_6 H1_6 1_555 1_555
O5_5 C23_5 1_555 1_555
O6_6 C24_6 1_555 1_555
N5_4 H4_4 1_555 1_555
N8_2 N5_4 1_555 1_555
C17_6 H11_6 1_555 1_555
C22_6 C17_6 1_555 1_555
C23_5 N5_4 1_555 1_555
C24_6 N8_2 1_555 1_555
C21_6 C22_6 1_555 1_555
C21_6 C24_6 1_555 1_555
C22_6 C23_5 1_555 1_555
N7_3 Zn1_3 1_555 1_555
N8_3 Zn1_3 1_555 1_555
O6_7 C24_7 1_555 1_555
N5_5 H4_5 1_555 1_555
N8_3 N5_5 1_555 1_555
C24_7 N8_3 1_555 1_555
O1_7 C7_7 1_555 1_555
O2_7 C8_7 1_555 1_555
O4_7 C16_7 1_555 1_555
N1_7 N2_7 1_555 1_555
N2_7 H2_7 1_555 1_555
N7_3 N4_7 1_555 1_555
N4_7 H3_7 1_555 1_555
C1_7 H5_8 1_555 1_555
C2_7 C1_7 1_555 1_555
H6_8 C2_7 1_555 1_555
C3_7 C2_7 1_555 1_555
C4_7 C3_7 1_555 1_555
H7_7 C4_7 1_555 1_555
C5_7 C4_7 1_555 1_555
C6_7 C1_7 1_555 1_555
C7_7 N1_7 1_555 1_555
C8_7 N2_7 1_555 1_555
C9_7 H8_7 1_555 1_555
C10_7 C9_7 1_555 1_555
H9_7 C10_7 1_555 1_555
C11_7 C10_7 1_555 1_555
C12_7 C11_7 1_555 1_555
C13_7 C12_7 1_555 1_555
C14_7 C9_7 1_555 1_555
C16_7 N4_7 1_555 1_555
C18_7 C11_7 1_555 1_555
C19_7 C3_7 1_555 1_555
C20_7 C19_7 1_555 1_555
H12_8 C20_7 1_555 1_555
N7_3 C15_7 1_555 1_555
C5_7 C6_7 1_555 1_555
C5_7 C8_7 1_555 1_555
C6_7 C7_7 1_555 1_555
C13_7 C14_7 1_555 1_555
C13_7 C15_7 1_555 1_555
C14_7 C16_7 1_555 1_555
C18_7 C19_7 1_555 1_555
O7_6 Zn1_4 1_555 1_555
N7_4 Zn1_4 1_555 1_555
N8_4 Zn1_4 1_555 1_555
O7_6 H13_6 1_555 1_555
O7_6 H14_8 1_555 1_555
O2_8 C8_8 1_555 1_555
O3_7 H1_7 1_555 1_555
O4_8 C16_8 1_555 1_555
N1_8 N2_8 1_555 1_555
N2_8 H2_8 1_555 1_555
N7_4 N4_8 1_555 1_555
N4_8 H3_8 1_555 1_555
C2_8 C1_8 1_555 1_555
C3_8 C2_8 1_555 1_555
C4_8 C3_8 1_555 1_555
H7_8 C4_8 1_555 1_555
C5_8 C4_8 1_555 1_555
C6_8 C1_8 1_555 1_555
C7_8 N1_8 1_555 1_555
C8_8 N2_8 1_555 1_555
C9_8 H8_8 1_555 1_555
C10_8 C9_8 1_555 1_555
H9_8 C10_8 1_555 1_555
C11_8 C10_8 1_555 1_555
C12_8 C11_8 1_555 1_555
H10_7 C12_8 1_555 1_555
C13_8 C12_8 1_555 1_555
C14_8 C9_8 1_555 1_555
C15_8 O3_7 1_555 1_555
C16_8 N4_8 1_555 1_555
C17_7 H11_7 1_555 1_555
C18_8 C11_8 1_555 1_555
C19_8 C3_8 1_555 1_555
C20_8 C19_8 1_555 1_555
C21_7 C20_8 1_555 1_555
C22_7 C17_7 1_555 1_555
N7_4 C15_8 1_555 1_555
C5_8 C6_8 1_555 1_555
C5_8 C8_8 1_555 1_555
C6_8 C7_8 1_555 1_555
C13_8 C14_8 1_555 1_555
C13_8 C15_8 1_555 1_555
C14_8 C16_8 1_555 1_555
C17_7 C18_8 1_555 1_555
C18_8 C19_8 1_555 1_555
C21_7 C22_7 1_555 1_555
O7_7 H13_7 1_555 1_555
O3_8 H1_8 1_555 1_555
O6_8 C24_8 1_555 1_555
C17_8 H11_8 1_555 1_555
C22_8 C17_8 1_555 1_555
C24_8 N8_4 1_555 1_555
C21_8 C22_8 1_555 1_555
C21_8 C24_8 1_555 1_555
O5_6 C23_6 1_555 1_555
N5_6 H4_6 1_555 1_555
C23_6 N5_6 1_555 1_555
O7_8 H13_8 1_555 1_555
N5_7 H4_7 1_555 1_555
O5_7 C23_7 1_555 1_555
O5_8 C23_8 1_555 1_555
N5_8 H4_8 1_555 1_555
C23_8 N5_8 1_555 1_555

#END
