
###############################################################################
#
# This file contains modified crystal structure data generated from the
# MOF subset of the Cambridge Structural Database (CSD) v543 
# hosted by the Cambridge Crystallographic Data Centre (CCDC).
#
# This work is licensed under the Creative Commons
# Attribution-NonCommercial-ShareAlike 4.0 International License.
# To view a copy of this license, visit
# http://creativecommons.org/licenses/by-nc-sa/4.0/
# or send a letter to
# Creative Commons, PO Box 1866, Mountain View, CA 94042, USA.
#
# CIF created using the CSD Python API on 29 September 2022
# The structure has been converted into the P1 space group
# The structure has a 3D framework
# The original CSD entry PILWIS is in the monoclinic crystal system
# The framework has been calculated to contain at least 10.0% void space
# The void calculation uses a probe of radius 1.32A, grid spacing 0.4
#
###############################################################################

data_PILWIS
_chemical_formula_moiety         '(C184 H136 Cd8 N16 O32)n'
_symmetry_cell_setting           triclinic
_symmetry_space_group_name_H-M   'P 1'
_symmetry_Int_Tables_number      1
_space_group_name_Hall           'P 1'
loop_
_symmetry_equiv_pos_site_id
_symmetry_equiv_pos_as_xyz
1 x,y,z
_cell_length_a                   17.3010(12)
_cell_length_b                   14.396(2)
_cell_length_c                   20.5570(15)
_cell_angle_alpha                90
_cell_angle_beta                 110.393(3)
_cell_angle_gamma                90
_cell_volume                     4799.13
loop_
_atom_site_label
_atom_site_type_symbol
_atom_site_fract_x
_atom_site_fract_y
_atom_site_fract_z
C2 C 0.1745(2) 0.0203(3) 0.7447(2)
O3 O 0.1068(2) 0.1202(3) 0.7984(2)
O4 O 0.0609(2) 0.1143(3) 0.6829(2)
C6 C 0.1077(2) 0.0901(3) 0.7417(3)
C11 C 0.2111(3) 0.0278(3) 0.6958(2)
H4 H 0.1920 0.0716 0.6606
C24 C 0.1937(4) 0.1962(6) 0.0475(3)
H18 H 0.2332 0.1658 0.0840
N4 N 0.1646(2) 0.2820(4) 0.04960(19)
C25 C 0.1229(6) 0.2657(6) 0.1853(5)
H19 H 0.1534 0.2128 0.1842
C27 C 0.1314(3) 0.3407(5) 0.1499(2)
C28 C 0.0263(3) 0.3400(4) 0.2283(3)
C29 C 0.1901(3) 0.3439(6) 0.1102(3)
H20 H 0.1931 0.4071 0.0948
H21 H 0.2447 0.3262 0.1408
C32 C 0.0847(4) 0.4182(4) 0.1524(3)
H26 H 0.0877 0.4711 0.1275
C33 C 0.0328(3) 0.4178(4) 0.1921(3)
H27 H 0.0027 0.4707 0.1937
C34 C 0.0706(5) 0.2631(6) 0.2237(5)
H28 H 0.0658 0.2087 0.2464
Cd4 Cd 0.033406(13) 0.224046(16) 0.832332(12)
O10 O 0.06671(18) 0.3287(2) 0.69270(17)
N3 N 0.1008(2) 0.2277(2) 0.94488(17)
C26 C 0.1094(3) 0.2994(4) 0.9868(2)
C30 C 0.1555(3) 0.1617(4) 0.9830(3)
H22 H 0.1647 0.1036 0.9673
C31 C 0.0642(5) 0.3889(5) 0.9674(3)
H23 H 0.0346 0.3899 0.9183
H24 H 0.1029 0.4394 0.9798
H25 H 0.0261 0.3951 0.9917
O12 O 0.11743(19) 0.3262(3) 0.80848(18)
O1 O 0.43329(18) 0.8287(2) 0.80730(17)
O2 O 0.38257(19) 0.8262(3) 0.69152(18)
C1 C 0.3070(2) 0.9049(3) 0.7495(2)
C4 C 0.2010(3) 0.9520(3) 0.7975(2)
C5 C 0.3802(2) 0.8483(3) 0.7499(2)
C8 C 0.2774(3) 0.9698(3) 0.6984(2)
H3 H 0.3015 0.9757 0.6646
C9 C 0.2685(3) 0.8929(3) 0.8000(2)
C18 C 0.1614(4) 0.9356(5) 0.8472(4)
H12 H 0.1160 0.9715 0.8454
C20 C 0.2919(5) 0.8214(6) 0.8513(4)
H14 H 0.3344 0.7811 0.8525
C21 C 0.1877(6) 0.8704(7) 0.8960(5)
H15 H 0.1623 0.8641 0.9288
C23 C 0.2536(6) 0.8108(8) 0.8988(6)
H17 H 0.2708 0.7648 0.9326
Cd6 Cd 0.466594(13) 0.724046(16) 0.667668(12)
Cd8 Cd 0.533406(13) 0.724046(16) 0.832332(12)
Cd1 Cd 0.966594(13) 0.224046(16) 0.667668(12)
N1 N 0.8992(2) 0.2277(2) 0.55512(17)
C3 C 0.8063(4) 0.1962(6) 0.4525(3)
H1 H 0.7668 0.1658 0.4160
N2 N 0.8354(2) 0.2820(4) 0.45040(19)
C7 C 0.8771(6) 0.2657(6) 0.3147(5)
H2 H 0.8466 0.2128 0.3158
C10 C 0.8906(3) 0.2994(4) 0.5132(2)
C12 C 0.8686(3) 0.3407(5) 0.3501(2)
C13 C 0.9737(3) 0.3400(4) 0.2717(3)
C14 C 0.8099(3) 0.3439(6) 0.3898(3)
H5 H 0.8069 0.4071 0.4052
H6 H 0.7553 0.3262 0.3592
C15 C 0.8445(3) 0.1617(4) 0.5170(3)
H7 H 0.8353 0.1036 0.5327
C16 C 0.9358(5) 0.3889(5) 0.5326(3)
H8 H 0.9654 0.3899 0.5817
H9 H 0.8971 0.4394 0.5202
H10 H 0.9739 0.3951 0.5083
C17 C 0.9153(4) 0.4182(4) 0.3476(3)
H11 H 0.9123 0.4711 0.3725
C19 C 0.9672(3) 0.4178(4) 0.3079(3)
H13 H 0.9973 0.4707 0.3063
C22 C 0.9294(5) 0.2631(6) 0.2763(5)
H16 H 0.9342 0.2087 0.2536
O11 O 0.88257(19) 0.3262(3) 0.69152(18)
O14 O 0.8932(2) 0.1202(3) 0.7016(2)
C36 C 0.8255(2) 0.0203(3) 0.7553(2)
O8 O 0.9391(2) 0.1143(3) 0.8171(2)
C39 C 0.8923(2) 0.0901(3) 0.7583(3)
C42 C 0.7889(3) 0.0278(3) 0.8042(2)
H30 H 0.8080 0.0716 0.8394
O9 O 0.93329(18) 0.3287(2) 0.80730(17)
O5 O 0.56671(18) 0.8287(2) 0.69270(17)
O6 O 0.61743(19) 0.8262(3) 0.80848(18)
C35 C 0.6930(2) 0.9049(3) 0.7505(2)
C37 C 0.7990(3) 0.9520(3) 0.7025(2)
C38 C 0.6198(2) 0.8483(3) 0.7501(2)
C40 C 0.7226(3) 0.9698(3) 0.8016(2)
H29 H 0.6985 0.9757 0.8354
C41 C 0.7315(3) 0.8929(3) 0.7000(2)
C43 C 0.8386(4) 0.9356(5) 0.6528(4)
H31 H 0.8840 0.9715 0.6546
C44 C 0.7081(5) 0.8214(6) 0.6487(4)
H32 H 0.6656 0.7811 0.6475
C45 C 0.8123(6) 0.8704(7) 0.6040(5)
H33 H 0.8377 0.8641 0.5712
C46 C 0.7464(6) 0.8108(8) 0.6012(6)
H34 H 0.7292 0.7648 0.5674
N1_2 N 0.3992(2) 0.7277(2) 0.55512(17)
C1_2 C 0.8070(2) 0.4049(3) 0.7495(2)
C2_2 C 0.6745(2) 0.5203(3) 0.7447(2)
C3_2 C 0.3063(4) 0.6962(6) 0.4525(3)
H1_2 H 0.2668 0.6658 0.4160
O3_2 O 0.6068(2) 0.6202(3) 0.7984(2)
C4_2 C 0.7010(3) 0.4520(3) 0.7975(2)
C5_2 C 0.8802(2) 0.3483(3) 0.7499(2)
O4_2 O 0.5609(2) 0.6143(3) 0.6829(2)
C6_2 C 0.6077(2) 0.5901(3) 0.7417(3)
N2_2 N 0.3354(2) 0.7820(4) 0.45040(19)
C7_2 C 0.3771(6) 0.7657(6) 0.3147(5)
H2_2 H 0.3466 0.7128 0.3158
C8_2 C 0.7774(3) 0.4698(3) 0.6984(2)
H3_2 H 0.8015 0.4757 0.6646
C9_2 C 0.7685(3) 0.3929(3) 0.8000(2)
C10_2 C 0.3906(3) 0.7994(4) 0.5132(2)
C11_2 C 0.7111(3) 0.5278(3) 0.6958(2)
H4_2 H 0.6920 0.5716 0.6606
C12_2 C 0.3686(3) 0.8407(5) 0.3501(2)
C13_2 C 0.4737(3) 0.8400(4) 0.2717(3)
C14_2 C 0.3099(3) 0.8439(6) 0.3898(3)
H5_2 H 0.3069 0.9071 0.4052
H6_2 H 0.2553 0.8262 0.3592
C15_2 C 0.3445(3) 0.6617(4) 0.5170(3)
H7_2 H 0.3353 0.6036 0.5327
C16_2 C 0.4358(5) 0.8889(5) 0.5326(3)
H8_2 H 0.4654 0.8899 0.5817
H9_2 H 0.3971 0.9394 0.5202
H10_2 H 0.4739 0.8951 0.5083
C17_2 C 0.4153(4) 0.9182(4) 0.3476(3)
H11_2 H 0.4123 0.9711 0.3725
C18_2 C 0.6614(4) 0.4356(5) 0.8472(4)
H12_2 H 0.6160 0.4715 0.8454
C19_2 C 0.4672(3) 0.9178(4) 0.3079(3)
H13_2 H 0.4973 0.9707 0.3063
C20_2 C 0.7919(5) 0.3214(6) 0.8513(4)
H14_2 H 0.8344 0.2811 0.8525
C21_2 C 0.6877(6) 0.3704(7) 0.8960(5)
H15_2 H 0.6623 0.3641 0.9288
C22_2 C 0.4294(5) 0.7631(6) 0.2763(5)
H16_2 H 0.4342 0.7087 0.2536
C23_2 C 0.7536(6) 0.3108(8) 0.8988(6)
H17_2 H 0.7708 0.2648 0.9326
C24_2 C 0.6937(4) 0.6962(6) 0.0475(3)
H18_2 H 0.7332 0.6658 0.0840
N4_2 N 0.6646(2) 0.7820(4) 0.04960(19)
C25_2 C 0.6229(6) 0.7657(6) 0.1853(5)
H19_2 H 0.6534 0.7128 0.1842
C27_2 C 0.6314(3) 0.8407(5) 0.1499(2)
C28_2 C 0.5263(3) 0.8400(4) 0.2283(3)
C29_2 C 0.6901(3) 0.8439(6) 0.1102(3)
H20_2 H 0.6931 0.9071 0.0948
H21_2 H 0.7447 0.8262 0.1408
C32_2 C 0.5847(4) 0.9182(4) 0.1524(3)
H26_2 H 0.5877 0.9711 0.1275
C33_2 C 0.5328(3) 0.9178(4) 0.1921(3)
H27_2 H 0.5027 0.9707 0.1937
C34_2 C 0.5706(5) 0.7631(6) 0.2237(5)
H28_2 H 0.5658 0.7087 0.2464
O14_2 O 0.3932(2) 0.6202(3) 0.7016(2)
N3_2 N 0.6008(2) 0.7277(2) 0.94488(17)
C26_2 C 0.6094(3) 0.7994(4) 0.9868(2)
C30_2 C 0.6555(3) 0.6617(4) 0.9830(3)
H22_2 H 0.6647 0.6036 0.9673
C31_2 C 0.5642(5) 0.8889(5) 0.9674(3)
H23_2 H 0.5346 0.8899 0.9183
H24_2 H 0.6029 0.9394 0.9798
H25_2 H 0.5261 0.8951 0.9917
C35_2 C 0.1930(2) 0.4049(3) 0.7505(2)
C36_2 C 0.3255(2) 0.5203(3) 0.7553(2)
C37_2 C 0.2990(3) 0.4520(3) 0.7025(2)
C38_2 C 0.1198(2) 0.3483(3) 0.7501(2)
O8_2 O 0.4391(2) 0.6143(3) 0.8171(2)
C39_2 C 0.3923(2) 0.5901(3) 0.7583(3)
C40_2 C 0.2226(3) 0.4698(3) 0.8016(2)
H29_2 H 0.1985 0.4757 0.8354
C41_2 C 0.2315(3) 0.3929(3) 0.7000(2)
C42_2 C 0.2889(3) 0.5278(3) 0.8042(2)
H30_2 H 0.3080 0.5716 0.8394
C43_2 C 0.3386(4) 0.4356(5) 0.6528(4)
H31_2 H 0.3840 0.4715 0.6546
C44_2 C 0.2081(5) 0.3214(6) 0.6487(4)
H32_2 H 0.1656 0.2811 0.6475
C45_2 C 0.3123(6) 0.3704(7) 0.6040(5)
H33_2 H 0.3377 0.3641 0.5712
C46_2 C 0.2464(6) 0.3108(8) 0.6012(6)
H34_2 H 0.2292 0.2648 0.5674
O5_2 O 0.43329(18) 0.1713(2) 0.30730(17)
O6_2 O 0.38257(19) 0.1738(3) 0.19152(18)
C35_3 C 0.3070(2) 0.0951(3) 0.2495(2)
C37_3 C 0.2010(3) 0.0480(3) 0.2975(2)
C38_3 C 0.3802(2) 0.1517(3) 0.2499(2)
C40_3 C 0.2774(3) 0.0302(3) 0.1984(2)
H29_3 H 0.3015 0.0243 0.1646
C41_3 C 0.2685(3) 0.1071(3) 0.3000(2)
C43_3 C 0.1614(4) 0.0644(5) 0.3472(4)
H31_3 H 0.1160 0.0285 0.3454
C44_3 C 0.2919(5) 0.1786(6) 0.3513(4)
H32_3 H 0.3344 0.2189 0.3525
C45_3 C 0.1877(6) 0.1296(7) 0.3960(5)
H33_3 H 0.1623 0.1359 0.4288
C46_3 C 0.2536(6) 0.1892(8) 0.3988(6)
H34_3 H 0.2708 0.2352 0.4326
Cd5 Cd 0.533406(13) 0.275954(16) 0.332332(12)
Cd7 Cd 0.466594(13) 0.275954(16) 0.167668(12)
C36_3 C 0.1745(2) 0.9797(3) 0.2447(2)
O7 O 0.1068(2) 0.8798(3) 0.2984(2)
O8_3 O 0.0609(2) 0.8857(3) 0.1829(2)
C39_3 C 0.1077(2) 0.9099(3) 0.2417(3)
C42_3 C 0.2111(3) 0.9722(3) 0.1958(2)
H30_3 H 0.1920 0.9284 0.1606
Cd3 Cd 0.033406(13) 0.775954(16) 0.332332(12)
O9_2 O 0.06671(18) 0.6713(2) 0.19270(17)
N1_3 N 0.1008(2) 0.7723(2) 0.44488(17)
C3_3 C 0.1937(4) 0.8038(6) 0.5475(3)
H1_3 H 0.2332 0.8342 0.5840
N2_3 N 0.1646(2) 0.7180(4) 0.54960(19)
C7_3 C 0.1229(6) 0.7343(6) 0.6853(5)
H2_3 H 0.1534 0.7872 0.6842
C10_3 C 0.1094(3) 0.7006(4) 0.4868(2)
C12_3 C 0.1314(3) 0.6593(5) 0.6499(2)
C13_3 C 0.0263(3) 0.6600(4) 0.7283(3)
C14_3 C 0.1901(3) 0.6561(6) 0.6102(3)
H5_3 H 0.1931 0.5929 0.5948
H6_3 H 0.2447 0.6738 0.6408
C15_3 C 0.1555(3) 0.8383(4) 0.4830(3)
H7_3 H 0.1647 0.8964 0.4673
C16_3 C 0.0642(5) 0.6111(5) 0.4674(3)
H8_3 H 0.0346 0.6101 0.4183
H9_3 H 0.1029 0.5606 0.4798
H10_3 H 0.0261 0.6049 0.4917
C17_3 C 0.0847(4) 0.5818(4) 0.6524(3)
H11_3 H 0.0877 0.5289 0.6275
C19_3 C 0.0328(3) 0.5822(4) 0.6921(3)
H13_3 H 0.0027 0.5293 0.6937
C22_3 C 0.0706(5) 0.7369(6) 0.7237(5)
H16_3 H 0.0658 0.7913 0.7464
O11_2 O 0.11743(19) 0.6738(3) 0.30848(18)
O1_2 O 0.56671(18) 0.1713(2) 0.19270(17)
O2_2 O 0.61743(19) 0.1738(3) 0.30848(18)
C1_3 C 0.6930(2) 0.0951(3) 0.2505(2)
C4_3 C 0.7990(3) 0.0480(3) 0.2025(2)
C5_3 C 0.6198(2) 0.1517(3) 0.2501(2)
C8_3 C 0.7226(3) 0.0302(3) 0.3016(2)
H3_3 H 0.6985 0.0243 0.3354
C9_3 C 0.7315(3) 0.1071(3) 0.2000(2)
C18_3 C 0.8386(4) 0.0644(5) 0.1528(4)
H12_3 H 0.8840 0.0285 0.1546
C20_3 C 0.7081(5) 0.1786(6) 0.1487(4)
H14_3 H 0.6656 0.2189 0.1475
C21_3 C 0.8123(6) 0.1296(7) 0.1040(5)
H15_3 H 0.8377 0.1359 0.0712
C23_3 C 0.7464(6) 0.1892(8) 0.1012(6)
H17_3 H 0.7292 0.2352 0.0674
N3_3 N 0.8992(2) 0.7723(2) 0.05512(17)
C26_3 C 0.8906(3) 0.7006(4) 0.0132(2)
C30_3 C 0.8445(3) 0.8383(4) 0.0170(3)
H22_3 H 0.8353 0.8964 0.0327
C31_3 C 0.9358(5) 0.6111(5) 0.0326(3)
H23_3 H 0.9654 0.6101 0.0817
H24_3 H 0.8971 0.5606 0.0202
H25_3 H 0.9739 0.6049 0.0083
Cd2 Cd 0.966594(13) 0.775954(16) 0.167668(12)
O12_2 O 0.88257(19) 0.6738(3) 0.19152(18)
O13 O 0.8932(2) 0.8798(3) 0.2016(2)
C2_3 C 0.8255(2) 0.9797(3) 0.2553(2)
O4_3 O 0.9391(2) 0.8857(3) 0.3171(2)
C6_3 C 0.8923(2) 0.9099(3) 0.2583(3)
C11_3 C 0.7889(3) 0.9722(3) 0.3042(2)
H4_3 H 0.8080 0.9284 0.3394
C24_3 C 0.8063(4) 0.8038(6) 0.9525(3)
H18_3 H 0.7668 0.8342 0.9160
N4_3 N 0.8354(2) 0.7180(4) 0.95040(19)
C25_3 C 0.8771(6) 0.7343(6) 0.8147(5)
H19_3 H 0.8466 0.7872 0.8158
C27_3 C 0.8686(3) 0.6593(5) 0.8501(2)
C28_3 C 0.9737(3) 0.6600(4) 0.7717(3)
C29_3 C 0.8099(3) 0.6561(6) 0.8898(3)
H20_3 H 0.8069 0.5929 0.9052
H21_3 H 0.7553 0.6738 0.8592
C32_3 C 0.9153(4) 0.5818(4) 0.8476(3)
H26_3 H 0.9123 0.5289 0.8725
C33_3 C 0.9672(3) 0.5822(4) 0.8079(3)
H27_3 H 0.9973 0.5293 0.8063
C34_3 C 0.9294(5) 0.7369(6) 0.7763(5)
H28_3 H 0.9342 0.7913 0.7536
O10_2 O 0.93329(18) 0.6713(2) 0.30730(17)
N3_4 N 0.3992(2) 0.2723(2) 0.05512(17)
C26_4 C 0.3906(3) 0.2006(4) 0.0132(2)
C30_4 C 0.3445(3) 0.3383(4) 0.0170(3)
H22_4 H 0.3353 0.3964 0.0327
C31_4 C 0.4358(5) 0.1111(5) 0.0326(3)
H23_4 H 0.4654 0.1101 0.0817
H24_4 H 0.3971 0.0606 0.0202
H25_4 H 0.4739 0.1049 0.0083
C35_4 C 0.8070(2) 0.5951(3) 0.2495(2)
C36_4 C 0.6745(2) 0.4797(3) 0.2447(2)
O7_2 O 0.6068(2) 0.3798(3) 0.2984(2)
C37_4 C 0.7010(3) 0.5480(3) 0.2975(2)
C38_4 C 0.8802(2) 0.6517(3) 0.2499(2)
O8_4 O 0.5609(2) 0.3857(3) 0.1829(2)
C39_4 C 0.6077(2) 0.4099(3) 0.2417(3)
C40_4 C 0.7774(3) 0.5302(3) 0.1984(2)
H29_4 H 0.8015 0.5243 0.1646
C41_4 C 0.7685(3) 0.6071(3) 0.3000(2)
C42_4 C 0.7111(3) 0.4722(3) 0.1958(2)
H30_4 H 0.6920 0.4284 0.1606
C43_4 C 0.6614(4) 0.5644(5) 0.3472(4)
H31_4 H 0.6160 0.5285 0.3454
C44_4 C 0.7919(5) 0.6786(6) 0.3513(4)
H32_4 H 0.8344 0.7189 0.3525
C45_4 C 0.6877(6) 0.6296(7) 0.3960(5)
H33_4 H 0.6623 0.6359 0.4288
C46_4 C 0.7536(6) 0.6892(8) 0.3988(6)
H34_4 H 0.7708 0.7352 0.4326
O13_2 O 0.3932(2) 0.3798(3) 0.2016(2)
N1_4 N 0.6008(2) 0.2723(2) 0.44488(17)
C1_4 C 0.1930(2) 0.5951(3) 0.2505(2)
C2_4 C 0.3255(2) 0.4797(3) 0.2553(2)
C3_4 C 0.6937(4) 0.3038(6) 0.5475(3)
H1_4 H 0.7332 0.3342 0.5840
C4_4 C 0.2990(3) 0.5480(3) 0.2025(2)
C5_4 C 0.1198(2) 0.6517(3) 0.2501(2)
O4_4 O 0.4391(2) 0.3857(3) 0.3171(2)
C6_4 C 0.3923(2) 0.4099(3) 0.2583(3)
N2_4 N 0.6646(2) 0.2180(4) 0.54960(19)
C7_4 C 0.6229(6) 0.2343(6) 0.6853(5)
H2_4 H 0.6534 0.2872 0.6842
C8_4 C 0.2226(3) 0.5302(3) 0.3016(2)
H3_4 H 0.1985 0.5243 0.3354
C9_4 C 0.2315(3) 0.6071(3) 0.2000(2)
C10_4 C 0.6094(3) 0.2006(4) 0.4868(2)
C11_4 C 0.2889(3) 0.4722(3) 0.3042(2)
H4_4 H 0.3080 0.4284 0.3394
C12_4 C 0.6314(3) 0.1593(5) 0.6499(2)
C13_4 C 0.5263(3) 0.1600(4) 0.7283(3)
C14_4 C 0.6901(3) 0.1561(6) 0.6102(3)
H5_4 H 0.6931 0.0929 0.5948
H6_4 H 0.7447 0.1738 0.6408
C15_4 C 0.6555(3) 0.3383(4) 0.4830(3)
H7_4 H 0.6647 0.3964 0.4673
C16_4 C 0.5642(5) 0.1111(5) 0.4674(3)
H8_4 H 0.5346 0.1101 0.4183
H9_4 H 0.6029 0.0606 0.4798
H10_4 H 0.5261 0.1049 0.4917
C17_4 C 0.5847(4) 0.0818(4) 0.6524(3)
H11_4 H 0.5877 0.0289 0.6275
C18_4 C 0.3386(4) 0.5644(5) 0.1528(4)
H12_4 H 0.3840 0.5285 0.1546
C19_4 C 0.5328(3) 0.0822(4) 0.6921(3)
H13_4 H 0.5027 0.0293 0.6937
C20_4 C 0.2081(5) 0.6786(6) 0.1487(4)
H14_4 H 0.1656 0.7189 0.1475
C21_4 C 0.3123(6) 0.6296(7) 0.1040(5)
H15_4 H 0.3377 0.6359 0.0712
C22_4 C 0.5706(5) 0.2369(6) 0.7237(5)
H16_4 H 0.5658 0.2913 0.7464
C23_4 C 0.2464(6) 0.6892(8) 0.1012(6)
H17_4 H 0.2292 0.7352 0.0674
C24_4 C 0.3063(4) 0.3038(6) 0.9525(3)
H18_4 H 0.2668 0.3342 0.9160
N4_4 N 0.3354(2) 0.2180(4) 0.95040(19)
C25_4 C 0.3771(6) 0.2343(6) 0.8147(5)
H19_4 H 0.3466 0.2872 0.8158
C27_4 C 0.3686(3) 0.1593(5) 0.8501(2)
C28_4 C 0.4737(3) 0.1600(4) 0.7717(3)
C29_4 C 0.3099(3) 0.1561(6) 0.8898(3)
H20_4 H 0.3069 0.0929 0.9052
H21_4 H 0.2553 0.1738 0.8592
C32_4 C 0.4153(4) 0.0818(4) 0.8476(3)
H26_4 H 0.4123 0.0289 0.8725
C33_4 C 0.4672(3) 0.0822(4) 0.8079(3)
H27_4 H 0.4973 0.0293 0.8063
C34_4 C 0.4294(5) 0.2369(6) 0.7763(5)
H28_4 H 0.4342 0.2913 0.7536
loop_
_geom_bond_atom_site_label_1
_geom_bond_atom_site_label_2
_geom_bond_site_symmetry_1
_geom_bond_site_symmetry_2
O3 C6 1_555 1_555
C6 C2 1_555 1_555
C11 C2 1_555 1_555
H4 C11 1_555 1_555
C24 H18 1_555 1_555
N4 C24 1_555 1_555
C25 H19 1_555 1_555
C27 C25 1_555 1_555
C29 N4 1_555 1_555
H20 C29 1_555 1_555
H21 C29 1_555 1_555
C32 C27 1_555 1_555
H26 C32 1_555 1_555
C33 C28 1_555 1_555
H27 C33 1_555 1_555
C34 C25 1_555 1_555
H28 C34 1_555 1_555
Cd4 O3 1_555 1_555
O4 C6 1_555 1_555
C27 C29 1_555 1_555
C28 C34 1_555 1_555
C32 C33 1_555 1_555
N3 C26 1_555 1_555
C30 N3 1_555 1_555
H22 C30 1_555 1_555
C31 C26 1_555 1_555
H23 C31 1_555 1_555
H24 C31 1_555 1_555
H25 C31 1_555 1_555
Cd4 N3 1_555 1_555
O12 Cd4 1_555 1_555
O1 C5 1_555 1_555
O2 C5 1_555 1_555
C1 C5 1_555 1_555
C4 C9 1_555 1_555
C8 C1 1_555 1_555
H3 C8 1_555 1_555
C9 C1 1_555 1_555
C18 C4 1_555 1_555
H12 C18 1_555 1_555
C20 C9 1_555 1_555
H14 C20 1_555 1_555
C21 C18 1_555 1_555
H15 C21 1_555 1_555
C23 C20 1_555 1_555
H17 C23 1_555 1_555
Cd6 O2 1_555 1_555
Cd8 O1 1_555 1_555
C21 C23 1_555 1_555
Cd1 N1 1_555 1_555
N1 C10 1_555 1_555
C3 H1 1_555 1_555
N2 C3 1_555 1_555
C7 H2 1_555 1_555
C10 N2 1_555 1_555
C12 C7 1_555 1_555
C13 C19 1_555 1_555
C14 N2 1_555 1_555
H5 C14 1_555 1_555
H6 C14 1_555 1_555
C15 N1 1_555 1_555
H7 C15 1_555 1_555
C16 C10 1_555 1_555
H8 C16 1_555 1_555
H9 C16 1_555 1_555
H10 C16 1_555 1_555
C17 C12 1_555 1_555
H11 C17 1_555 1_555
C19 C17 1_555 1_555
H13 C19 1_555 1_555
C22 C7 1_555 1_555
H16 C22 1_555 1_555
O11 Cd1 1_555 1_555
O14 Cd1 1_555 1_555
C3 C15 1_555 1_555
C12 C14 1_555 1_555
C13 C22 1_555 1_555
O14 C39 1_555 1_555
C39 C36 1_555 1_555
C42 C36 1_555 1_555
H30 C42 1_555 1_555
O8 C39 1_555 1_555
O5 C38 1_555 1_555
O6 C38 1_555 1_555
C35 C38 1_555 1_555
C37 C41 1_555 1_555
C40 C35 1_555 1_555
H29 C40 1_555 1_555
C41 C35 1_555 1_555
C43 C37 1_555 1_555
H31 C43 1_555 1_555
C44 C41 1_555 1_555
H32 C44 1_555 1_555
C45 C43 1_555 1_555
H33 C45 1_555 1_555
C46 C44 1_555 1_555
H34 C46 1_555 1_555
Cd6 O5 1_555 1_555
Cd8 O6 1_555 1_555
C45 C46 1_555 1_555
Cd6 N1_2 1_555 1_555
N1_2 C10_2 1_555 1_555
O9 C5_2 1_555 1_555
O11 C5_2 1_555 1_555
C1_2 C5_2 1_555 1_555
C2_2 C4_2 1_555 1_555
C3_2 H1_2 1_555 1_555
O3_2 C6_2 1_555 1_555
C4_2 C9_2 1_555 1_555
O4_2 Cd6 1_555 1_555
C6_2 C2_2 1_555 1_555
N2_2 C3_2 1_555 1_555
C7_2 H2_2 1_555 1_555
C8_2 C1_2 1_555 1_555
H3_2 C8_2 1_555 1_555
C9_2 C1_2 1_555 1_555
C10_2 N2_2 1_555 1_555
C11_2 C2_2 1_555 1_555
H4_2 C11_2 1_555 1_555
C12_2 C7_2 1_555 1_555
C13_2 C19_2 1_555 1_555
C14_2 N2_2 1_555 1_555
H5_2 C14_2 1_555 1_555
H6_2 C14_2 1_555 1_555
C15_2 N1_2 1_555 1_555
H7_2 C15_2 1_555 1_555
C16_2 C10_2 1_555 1_555
H8_2 C16_2 1_555 1_555
H9_2 C16_2 1_555 1_555
H10_2 C16_2 1_555 1_555
C17_2 C12_2 1_555 1_555
H11_2 C17_2 1_555 1_555
C18_2 C4_2 1_555 1_555
H12_2 C18_2 1_555 1_555
C19_2 C17_2 1_555 1_555
H13_2 C19_2 1_555 1_555
C20_2 C9_2 1_555 1_555
H14_2 C20_2 1_555 1_555
C21_2 C18_2 1_555 1_555
H15_2 C21_2 1_555 1_555
C22_2 C7_2 1_555 1_555
H16_2 C22_2 1_555 1_555
C23_2 C20_2 1_555 1_555
H17_2 C23_2 1_555 1_555
C24_2 H18_2 1_555 1_555
N4_2 C24_2 1_555 1_555
C25_2 H19_2 1_555 1_555
C27_2 C25_2 1_555 1_555
C28_2 C13_2 1_555 1_555
C29_2 N4_2 1_555 1_555
H20_2 C29_2 1_555 1_555
H21_2 C29_2 1_555 1_555
C32_2 C27_2 1_555 1_555
H26_2 C32_2 1_555 1_555
C33_2 C28_2 1_555 1_555
H27_2 C33_2 1_555 1_555
C34_2 C25_2 1_555 1_555
H28_2 C34_2 1_555 1_555
Cd8 O3_2 1_555 1_555
O14_2 Cd6 1_555 1_555
C3_2 C15_2 1_555 1_555
O4_2 C6_2 1_555 1_555
C8_2 C11_2 1_555 1_555
C12_2 C14_2 1_555 1_555
C13_2 C22_2 1_555 1_555
C21_2 C23_2 1_555 1_555
C27_2 C29_2 1_555 1_555
C28_2 C34_2 1_555 1_555
C32_2 C33_2 1_555 1_555
N3_2 C26_2 1_555 1_555
C30_2 N3_2 1_555 1_555
H22_2 C30_2 1_555 1_555
C31_2 C26_2 1_555 1_555
H23_2 C31_2 1_555 1_555
H24_2 C31_2 1_555 1_555
H25_2 C31_2 1_555 1_555
Cd8 N3_2 1_555 1_555
O10 C38_2 1_555 1_555
O12 C38_2 1_555 1_555
C35_2 C38_2 1_555 1_555
C36_2 C37_2 1_555 1_555
O14_2 C39_2 1_555 1_555
C37_2 C41_2 1_555 1_555
O8_2 Cd8 1_555 1_555
C39_2 C36_2 1_555 1_555
C40_2 C35_2 1_555 1_555
H29_2 C40_2 1_555 1_555
C41_2 C35_2 1_555 1_555
C42_2 C36_2 1_555 1_555
H30_2 C42_2 1_555 1_555
C43_2 C37_2 1_555 1_555
H31_2 C43_2 1_555 1_555
C44_2 C41_2 1_555 1_555
H32_2 C44_2 1_555 1_555
C45_2 C43_2 1_555 1_555
H33_2 C45_2 1_555 1_555
C46_2 C44_2 1_555 1_555
H34_2 C46_2 1_555 1_555
O8_2 C39_2 1_555 1_555
C40_2 C42_2 1_555 1_555
C45_2 C46_2 1_555 1_555
O5_2 C38_3 1_555 1_555
O6_2 C38_3 1_555 1_555
C35_3 C38_3 1_555 1_555
C37_3 C41_3 1_555 1_555
C40_3 C35_3 1_555 1_555
H29_3 C40_3 1_555 1_555
C41_3 C35_3 1_555 1_555
C43_3 C37_3 1_555 1_555
H31_3 C43_3 1_555 1_555
C44_3 C41_3 1_555 1_555
H32_3 C44_3 1_555 1_555
C45_3 C43_3 1_555 1_555
H33_3 C45_3 1_555 1_555
C46_3 C44_3 1_555 1_555
H34_3 C46_3 1_555 1_555
Cd5 O5_2 1_555 1_555
Cd7 O6_2 1_555 1_555
C45_3 C46_3 1_555 1_555
O7 C39_3 1_555 1_555
C39_3 C36_3 1_555 1_555
C42_3 C36_3 1_555 1_555
H30_3 C42_3 1_555 1_555
Cd3 O7 1_555 1_555
O8_3 C39_3 1_555 1_555
Cd3 N1_3 1_555 1_555
N1_3 C10_3 1_555 1_555
C3_3 H1_3 1_555 1_555
N2_3 C3_3 1_555 1_555
C7_3 H2_3 1_555 1_555
C10_3 N2_3 1_555 1_555
C12_3 C7_3 1_555 1_555
C13_3 C19_3 1_555 1_555
C14_3 N2_3 1_555 1_555
H5_3 C14_3 1_555 1_555
H6_3 C14_3 1_555 1_555
C15_3 N1_3 1_555 1_555
H7_3 C15_3 1_555 1_555
C16_3 C10_3 1_555 1_555
H8_3 C16_3 1_555 1_555
H9_3 C16_3 1_555 1_555
H10_3 C16_3 1_555 1_555
C17_3 C12_3 1_555 1_555
H11_3 C17_3 1_555 1_555
C19_3 C17_3 1_555 1_555
H13_3 C19_3 1_555 1_555
C22_3 C7_3 1_555 1_555
H16_3 C22_3 1_555 1_555
O11_2 Cd3 1_555 1_555
C3_3 C15_3 1_555 1_555
C12_3 C14_3 1_555 1_555
C13_3 C22_3 1_555 1_555
O1_2 C5_3 1_555 1_555
O2_2 C5_3 1_555 1_555
C1_3 C5_3 1_555 1_555
C4_3 C9_3 1_555 1_555
C8_3 C1_3 1_555 1_555
H3_3 C8_3 1_555 1_555
C9_3 C1_3 1_555 1_555
C18_3 C4_3 1_555 1_555
H12_3 C18_3 1_555 1_555
C20_3 C9_3 1_555 1_555
H14_3 C20_3 1_555 1_555
C21_3 C18_3 1_555 1_555
H15_3 C21_3 1_555 1_555
C23_3 C20_3 1_555 1_555
H17_3 C23_3 1_555 1_555
Cd5 O2_2 1_555 1_555
Cd7 O1_2 1_555 1_555
C21_3 C23_3 1_555 1_555
N3_3 C26_3 1_555 1_555
C30_3 N3_3 1_555 1_555
H22_3 C30_3 1_555 1_555
C31_3 C26_3 1_555 1_555
H23_3 C31_3 1_555 1_555
H24_3 C31_3 1_555 1_555
H25_3 C31_3 1_555 1_555
Cd2 N3_3 1_555 1_555
O12_2 Cd2 1_555 1_555
O13 Cd2 1_555 1_555
O13 C6_3 1_555 1_555
C6_3 C2_3 1_555 1_555
C11_3 C2_3 1_555 1_555
H4_3 C11_3 1_555 1_555
C24_3 H18_3 1_555 1_555
N4_3 C24_3 1_555 1_555
C25_3 H19_3 1_555 1_555
C27_3 C25_3 1_555 1_555
C29_3 N4_3 1_555 1_555
H20_3 C29_3 1_555 1_555
H21_3 C29_3 1_555 1_555
C32_3 C27_3 1_555 1_555
H26_3 C32_3 1_555 1_555
C33_3 C28_3 1_555 1_555
H27_3 C33_3 1_555 1_555
C34_3 C25_3 1_555 1_555
H28_3 C34_3 1_555 1_555
O4_3 C6_3 1_555 1_555
C27_3 C29_3 1_555 1_555
C28_3 C34_3 1_555 1_555
C32_3 C33_3 1_555 1_555
N3_4 C26_4 1_555 1_555
C30_4 N3_4 1_555 1_555
H22_4 C30_4 1_555 1_555
C31_4 C26_4 1_555 1_555
H23_4 C31_4 1_555 1_555
H24_4 C31_4 1_555 1_555
H25_4 C31_4 1_555 1_555
Cd7 N3_4 1_555 1_555
O10_2 C38_4 1_555 1_555
O12_2 C38_4 1_555 1_555
C35_4 C38_4 1_555 1_555
C36_4 C37_4 1_555 1_555
O7_2 C39_4 1_555 1_555
C37_4 C41_4 1_555 1_555
O8_4 Cd7 1_555 1_555
C39_4 C36_4 1_555 1_555
C40_4 C35_4 1_555 1_555
H29_4 C40_4 1_555 1_555
C41_4 C35_4 1_555 1_555
C42_4 C36_4 1_555 1_555
H30_4 C42_4 1_555 1_555
C43_4 C37_4 1_555 1_555
H31_4 C43_4 1_555 1_555
C44_4 C41_4 1_555 1_555
H32_4 C44_4 1_555 1_555
C45_4 C43_4 1_555 1_555
H33_4 C45_4 1_555 1_555
C46_4 C44_4 1_555 1_555
H34_4 C46_4 1_555 1_555
Cd5 O7_2 1_555 1_555
O13_2 Cd7 1_555 1_555
O8_4 C39_4 1_555 1_555
C40_4 C42_4 1_555 1_555
C45_4 C46_4 1_555 1_555
Cd5 N1_4 1_555 1_555
N1_4 C10_4 1_555 1_555
O9_2 C5_4 1_555 1_555
O11_2 C5_4 1_555 1_555
C1_4 C5_4 1_555 1_555
C2_4 C4_4 1_555 1_555
C3_4 H1_4 1_555 1_555
O13_2 C6_4 1_555 1_555
C4_4 C9_4 1_555 1_555
O4_4 Cd5 1_555 1_555
C6_4 C2_4 1_555 1_555
N2_4 C3_4 1_555 1_555
C7_4 H2_4 1_555 1_555
C8_4 C1_4 1_555 1_555
H3_4 C8_4 1_555 1_555
C9_4 C1_4 1_555 1_555
C10_4 N2_4 1_555 1_555
C11_4 C2_4 1_555 1_555
H4_4 C11_4 1_555 1_555
C12_4 C7_4 1_555 1_555
C13_4 C19_4 1_555 1_555
C14_4 N2_4 1_555 1_555
H5_4 C14_4 1_555 1_555
H6_4 C14_4 1_555 1_555
C15_4 N1_4 1_555 1_555
H7_4 C15_4 1_555 1_555
C16_4 C10_4 1_555 1_555
H8_4 C16_4 1_555 1_555
H9_4 C16_4 1_555 1_555
H10_4 C16_4 1_555 1_555
C17_4 C12_4 1_555 1_555
H11_4 C17_4 1_555 1_555
C18_4 C4_4 1_555 1_555
H12_4 C18_4 1_555 1_555
C19_4 C17_4 1_555 1_555
H13_4 C19_4 1_555 1_555
C20_4 C9_4 1_555 1_555
H14_4 C20_4 1_555 1_555
C21_4 C18_4 1_555 1_555
H15_4 C21_4 1_555 1_555
C22_4 C7_4 1_555 1_555
H16_4 C22_4 1_555 1_555
C23_4 C20_4 1_555 1_555
H17_4 C23_4 1_555 1_555
C24_4 H18_4 1_555 1_555
N4_4 C24_4 1_555 1_555
C25_4 H19_4 1_555 1_555
C27_4 C25_4 1_555 1_555
C28_4 C13_4 1_555 1_555
C29_4 N4_4 1_555 1_555
H20_4 C29_4 1_555 1_555
H21_4 C29_4 1_555 1_555
C32_4 C27_4 1_555 1_555
H26_4 C32_4 1_555 1_555
C33_4 C28_4 1_555 1_555
H27_4 C33_4 1_555 1_555
C34_4 C25_4 1_555 1_555
H28_4 C34_4 1_555 1_555
C3_4 C15_4 1_555 1_555
O4_4 C6_4 1_555 1_555
C8_4 C11_4 1_555 1_555
C12_4 C14_4 1_555 1_555
C13_4 C22_4 1_555 1_555
C21_4 C23_4 1_555 1_555
C27_4 C29_4 1_555 1_555
C28_4 C34_4 1_555 1_555
C32_4 C33_4 1_555 1_555

#END
