
###############################################################################
#
# This file contains modified crystal structure data generated from the
# MOF subset of the Cambridge Structural Database (CSD) v543 
# hosted by the Cambridge Crystallographic Data Centre (CCDC).
#
# This work is licensed under the Creative Commons
# Attribution-NonCommercial-ShareAlike 4.0 International License.
# To view a copy of this license, visit
# http://creativecommons.org/licenses/by-nc-sa/4.0/
# or send a letter to
# Creative Commons, PO Box 1866, Mountain View, CA 94042, USA.
#
# CIF created using the CSD Python API on 29 September 2022
# The structure has been converted into the P1 space group
# The structure has a 3D framework
# The original CSD entry PILYUH is in the orthorhombic crystal system
# The framework has been calculated to contain at least 10.0% void space
# The void calculation uses a probe of radius 1.32A, grid spacing 0.4
#
###############################################################################

data_PILYUH
_chemical_formula_moiety         '(C176 H128 Cd16 N96 O56)n'
_symmetry_cell_setting           triclinic
_symmetry_space_group_name_H-M   'P 1'
_symmetry_Int_Tables_number      1
_space_group_name_Hall           'P 1'
loop_
_symmetry_equiv_pos_site_id
_symmetry_equiv_pos_as_xyz
1 x,y,z
_cell_length_a                   15.2285(4)
_cell_length_b                   40.8194(14)
_cell_length_c                   13.2764(5)
_cell_angle_alpha                90
_cell_angle_beta                 90
_cell_angle_gamma                90
_cell_volume                     8252.85
loop_
_atom_site_label
_atom_site_type_symbol
_atom_site_fract_x
_atom_site_fract_y
_atom_site_fract_z
Cd1 Cd 0.13752(2) 0.09790(2) 0.05766(4)
O3 O 0.0713(2) 0.30339(8) 0.1972(3)
N3 N 0.0939(2) 0.15023(8) 0.0325(3)
N4 N 0.0477(3) 0.20546(9) 0.0436(4)
N6 N 0.1575(3) 0.18559(11) 0.1451(4)
H4 H 0.161097 0.204943 0.174009
H5 H 0.192171 0.169576 0.164744
C4 C 0.0099(3) 0.31989(13) 0.1597(4)
H7 H 0.017498 0.258098 0.081158
C10 C 0.1003(3) 0.18060(12) 0.0726(6)
Cd2 Cd 0.11248(2) 0.34790(2) 0.30766(4)
O5 O 0.03366(19) 0.05863(8) 0.0954(2)
O8 O 0.0067(4) 0.10238(12) 0.1847(4)
N7 N 0.2280(2) 0.08045(9) 0.1784(3)
N1 N 0.02672(18) 0.11823(7) 0.9220(3)
H1 H 0.061781 0.102312 0.941446
C1 C 0.0329(3) 0.14575(11) 0.9609(4)
O6 O 0.2540(3) 0.09781(7) 0.9301(4)
O7 O 0.1787(2) 0.05339(8) 0.9472(3)
O1 O 0.71634(19) 0.30863(8) 0.8454(2)
O4 O 0.7433(4) 0.35238(12) 0.9347(4)
H2 H 0.987272 0.114632 0.874804
N2 N 0.9780(2) 0.16955(9) 0.9284(3)
N5 N 0.9329(3) 0.22350(9) 0.9446(3)
H3 H 0.897804 0.217991 0.894696
C3 C 0.9897(3) 0.19893(14) 0.9752(4)
C5 C 0.8364(3) 0.30551(13) 0.9568(4)
C8 C 0.9217(3) 0.25587(12) 0.9797(4)
C9 C 0.7600(4) 0.32261(14) 0.9089(4)
C11 C 0.8557(3) 0.27243(12) 0.9289(4)
H8 H 0.823881 0.261984 0.876393
Cd3 Cd 0.88752(2) 0.15210(2) 0.80766(4)
Cd4 Cd 0.61248(2) 0.34790(2) 0.80766(4)
O1_2 O 0.28366(19) 0.69137(8) 0.8454(2)
O4_2 O 0.2567(4) 0.64762(12) 0.9347(4)
H2_2 H 0.012728 0.885368 0.874804
N2_2 N 0.0220(2) 0.83045(9) 0.9284(3)
N5_2 N 0.0671(3) 0.77650(9) 0.9446(3)
H3_2 H 0.102196 0.782009 0.894696
C3_2 C 0.0103(3) 0.80107(14) 0.9752(4)
C5_2 C 0.1636(3) 0.69449(13) 0.9568(4)
C8_2 C 0.0783(3) 0.74413(12) 0.9797(4)
C9_2 C 0.2400(4) 0.67739(14) 0.9089(4)
C11_2 C 0.1443(3) 0.72757(12) 0.9289(4)
H8_2 H 0.176119 0.738016 0.876393
Cd3_2 Cd 0.11248(2) 0.84790(2) 0.80766(4)
Cd4_2 Cd 0.38752(2) 0.65210(2) 0.80766(4)
Cd1_2 Cd 0.86248(2) 0.90210(2) 0.05766(4)
O3_2 O 0.9287(2) 0.69661(8) 0.1972(3)
N3_2 N 0.9061(2) 0.84977(8) 0.0325(3)
N4_2 N 0.9523(3) 0.79454(9) 0.0436(4)
N6_2 N 0.8425(3) 0.81441(11) 0.1451(4)
H4_2 H 0.838903 0.795057 0.174009
H5_2 H 0.807829 0.830424 0.164744
C4_2 C 0.9901(3) 0.68011(13) 0.1597(4)
H7_2 H 0.982502 0.741902 0.081158
C10_2 C 0.8997(3) 0.81940(12) 0.0726(6)
Cd2_2 Cd 0.88752(2) 0.65210(2) 0.30766(4)
O5_2 O 0.96634(19) 0.94137(8) 0.0954(2)
O8_2 O 0.9933(4) 0.89762(12) 0.1847(4)
N7_2 N 0.7720(2) 0.91955(9) 0.1784(3)
N1_2 N 0.97328(18) 0.88177(7) 0.9220(3)
H1_2 H 0.938219 0.897688 0.941446
C1_2 C 0.9671(3) 0.85425(11) 0.9609(4)
O6_2 O 0.7460(3) 0.90219(7) 0.9301(4)
O7_2 O 0.8213(2) 0.94661(8) 0.9472(3)
Cd1_3 Cd 0.38752(2) 0.15210(2) 0.30766(4)
N1_3 N 0.27672(18) 0.13177(7) 0.1720(3)
H1_3 H 0.311781 0.147688 0.191446
H2_3 H 0.237272 0.135368 0.124804
N3_3 N 0.3439(2) 0.09977(8) 0.2825(3)
N4_3 N 0.2977(3) 0.04454(9) 0.2936(4)
N5_3 N 0.1829(3) 0.02650(9) 0.1946(3)
H3_3 H 0.147804 0.032009 0.144696
N6_3 N 0.4075(3) 0.06441(11) 0.3951(4)
H4_3 H 0.411097 0.045057 0.424009
H5_3 H 0.442171 0.080424 0.414744
C1_3 C 0.2829(3) 0.10425(11) 0.2109(4)
C3_3 C 0.2397(3) 0.05107(14) 0.2252(4)
C10_3 C 0.3503(3) 0.06940(12) 0.3226(6)
O5_3 O 0.28366(19) 0.19137(8) 0.3454(2)
O6_3 O 0.5040(3) 0.15219(7) 0.1801(4)
O7_3 O 0.4287(2) 0.19661(8) 0.1972(3)
O8_3 O 0.2567(4) 0.14762(12) 0.4347(4)
N7_3 N 0.4780(2) 0.16955(9) 0.4284(3)
O2 O 0.2460(3) 0.90219(7) 0.4301(4)
O3_3 O 0.3213(2) 0.94661(8) 0.4472(3)
C2 C 0.1377(3) 0.92914(13) 0.2843(5)
H6 H 0.125577 0.907478 0.306387
C4_3 C 0.2599(3) 0.93011(13) 0.4097(4)
C5_3 C 0.0864(3) 0.94449(13) 0.2068(4)
C6 C 0.2216(3) 0.97999(10) 0.2994(5)
H7_3 H 0.267498 0.991902 0.331158
C7 C 0.2056(3) 0.94727(12) 0.3253(6)
C8_3 C 0.1717(3) 0.99413(12) 0.2297(4)
C9_3 C 0.0100(4) 0.92739(14) 0.1589(4)
C11_3 C 0.1057(3) 0.97757(12) 0.1789(4)
H8_3 H 0.073881 0.988016 0.126393
Cd2_3 Cd 0.36248(2) 0.90210(2) 0.55766(4)
O1_3 O 0.53366(19) 0.55863(8) 0.0954(2)
O2_2 O 0.2540(3) 0.59781(7) 0.4301(4)
O3_4 O 0.1787(2) 0.55339(8) 0.4472(3)
O4_3 O 0.5067(4) 0.60238(12) 0.1847(4)
N1_4 N 0.22328(18) 0.36823(7) 0.1720(3)
H1_4 H 0.188219 0.352312 0.191446
H2_4 H 0.262728 0.364632 0.124804
N2_3 N 0.2720(2) 0.41955(9) 0.1784(3)
N3_4 N 0.1561(2) 0.40023(8) 0.2825(3)
N4_4 N 0.2023(3) 0.45546(9) 0.2936(4)
N5_4 N 0.3171(3) 0.47350(9) 0.1946(3)
H3_4 H 0.352196 0.467991 0.144696
N6_4 N 0.0925(3) 0.43559(11) 0.3951(4)
H4_4 H 0.088903 0.454943 0.424009
H5_4 H 0.057829 0.419576 0.414744
C1_4 C 0.2171(3) 0.39575(11) 0.2109(4)
C2_2 C 0.3623(3) 0.57086(13) 0.2843(5)
H6_2 H 0.374423 0.592522 0.306387
C3_4 C 0.2603(3) 0.44893(14) 0.2252(4)
C4_4 C 0.2401(3) 0.56989(13) 0.4097(4)
C5_4 C 0.4136(3) 0.55551(13) 0.2068(4)
C6_2 C 0.2784(3) 0.52001(10) 0.2994(5)
H7_4 H 0.232502 0.508098 0.331158
C7_2 C 0.2944(3) 0.55273(12) 0.3253(6)
C8_4 C 0.3283(3) 0.50587(12) 0.2297(4)
C9_4 C 0.4900(4) 0.57261(14) 0.1589(4)
C10_4 C 0.1497(3) 0.43060(12) 0.3226(6)
C11_4 C 0.3943(3) 0.52243(12) 0.1789(4)
H8_4 H 0.426119 0.511984 0.126393
Cd2_4 Cd 0.13752(2) 0.59790(2) 0.55766(4)
Cd3_3 Cd 0.36248(2) 0.40210(2) 0.05766(4)
Cd4_3 Cd 0.63752(2) 0.59790(2) 0.05766(4)
O5_4 O 0.21634(19) 0.30863(8) 0.3454(2)
O8_4 O 0.2433(4) 0.35238(12) 0.4347(4)
N7_4 N 0.0220(2) 0.33045(9) 0.4284(3)
O3_5 O 0.0713(2) 0.80339(8) 0.6972(3)
N1_5 N 0.02672(18) 0.61823(7) 0.4220(3)
H1_5 H 0.061781 0.602312 0.441446
N3_5 N 0.0939(2) 0.65023(8) 0.5325(3)
N4_5 N 0.0477(3) 0.70546(9) 0.5436(4)
N6_5 N 0.1575(3) 0.68559(11) 0.6451(4)
H4_5 H 0.161097 0.704943 0.674009
H5_5 H 0.192171 0.669576 0.664744
C1_5 C 0.0329(3) 0.64575(11) 0.4609(4)
C4_5 C 0.0099(3) 0.81989(13) 0.6597(4)
H7_5 H 0.017498 0.758098 0.581158
C10_5 C 0.1003(3) 0.68060(12) 0.5726(6)
O5_5 O 0.03366(19) 0.55863(8) 0.5954(2)
O8_5 O 0.0067(4) 0.60238(12) 0.6847(4)
N7_5 N 0.2280(2) 0.58045(9) 0.6784(3)
O1_4 O 0.71634(19) 0.80863(8) 0.3454(2)
O2_3 O 0.9960(3) 0.84781(7) 0.6801(4)
O4_4 O 0.7433(4) 0.85238(12) 0.4347(4)
H2_5 H 0.987272 0.614632 0.374804
N2_4 N 0.9780(2) 0.66955(9) 0.4284(3)
N5_5 N 0.9329(3) 0.72350(9) 0.4446(3)
H3_5 H 0.897804 0.717991 0.394696
C2_3 C 0.8877(3) 0.82086(13) 0.5343(5)
H6_3 H 0.875577 0.842522 0.556387
C3_5 C 0.9897(3) 0.69893(14) 0.4752(4)
C5_5 C 0.8364(3) 0.80551(13) 0.4568(4)
C6_3 C 0.9716(3) 0.77001(10) 0.5494(5)
C7_3 C 0.9556(3) 0.80273(12) 0.5753(6)
C8_5 C 0.9217(3) 0.75587(12) 0.4797(4)
C9_5 C 0.7600(4) 0.82261(14) 0.4089(4)
C11_5 C 0.8557(3) 0.77243(12) 0.4289(4)
H8_5 H 0.823881 0.761984 0.376393
Cd4_4 Cd 0.61248(2) 0.84790(2) 0.30766(4)
O2_4 O 0.0040(3) 0.15219(7) 0.6801(4)
H2_6 H 0.012728 0.385368 0.374804
N5_6 N 0.0671(3) 0.27650(9) 0.4446(3)
H3_6 H 0.102196 0.282009 0.394696
C2_4 C 0.1123(3) 0.17914(13) 0.5343(5)
H6_4 H 0.124423 0.157478 0.556387
C3_6 C 0.0103(3) 0.30107(14) 0.4752(4)
C5_6 C 0.1636(3) 0.19449(13) 0.4568(4)
C6_4 C 0.0284(3) 0.22999(10) 0.5494(5)
C7_4 C 0.0444(3) 0.19727(12) 0.5753(6)
C8_6 C 0.0783(3) 0.24413(12) 0.4797(4)
C9_6 C 0.2400(4) 0.17739(14) 0.4089(4)
C11_6 C 0.1443(3) 0.22757(12) 0.4289(4)
H8_6 H 0.176119 0.238016 0.376393
Cd1_4 Cd 0.86248(2) 0.40210(2) 0.55766(4)
O3_6 O 0.9287(2) 0.19661(8) 0.6972(3)
N1_6 N 0.97328(18) 0.38177(7) 0.4220(3)
H1_6 H 0.938219 0.397688 0.441446
N3_6 N 0.9061(2) 0.34977(8) 0.5325(3)
N4_6 N 0.9523(3) 0.29454(9) 0.5436(4)
N6_6 N 0.8425(3) 0.31441(11) 0.6451(4)
H4_6 H 0.838903 0.295057 0.674009
H5_6 H 0.807829 0.330424 0.664744
C1_6 C 0.9671(3) 0.35425(11) 0.4609(4)
C4_6 C 0.9901(3) 0.18011(13) 0.6597(4)
H7_6 H 0.982502 0.241902 0.581158
C10_6 C 0.8997(3) 0.31940(12) 0.5726(6)
O5_6 O 0.96634(19) 0.44137(8) 0.5954(2)
O6_4 O 0.7460(3) 0.40219(7) 0.4301(4)
O7_4 O 0.8213(2) 0.44661(8) 0.4472(3)
O8_6 O 0.9933(4) 0.39762(12) 0.6847(4)
N7_6 N 0.7720(2) 0.41955(9) 0.6784(3)
O2_5 O 0.2460(3) 0.40219(7) 0.9301(4)
O3_7 O 0.3213(2) 0.44661(8) 0.9472(3)
N1_7 N 0.27672(18) 0.63177(7) 0.6720(3)
H1_7 H 0.311781 0.647688 0.691446
H2_7 H 0.237272 0.635368 0.624804
N3_7 N 0.3439(2) 0.59977(8) 0.7825(3)
N4_7 N 0.2977(3) 0.54454(9) 0.7936(4)
N5_7 N 0.1829(3) 0.52650(9) 0.6946(3)
H3_7 H 0.147804 0.532009 0.644696
N6_7 N 0.4075(3) 0.56441(11) 0.8951(4)
H4_7 H 0.411097 0.545057 0.924009
H5_7 H 0.442171 0.580424 0.914744
C1_7 C 0.2829(3) 0.60425(11) 0.7109(4)
C2_5 C 0.1377(3) 0.42914(13) 0.7843(5)
H6_5 H 0.125577 0.407478 0.806387
C3_7 C 0.2397(3) 0.55107(14) 0.7252(4)
C4_7 C 0.2599(3) 0.43011(13) 0.9097(4)
C5_7 C 0.0864(3) 0.44449(13) 0.7068(4)
C6_5 C 0.2216(3) 0.47999(10) 0.7994(5)
H7_7 H 0.267498 0.491902 0.831158
C7_5 C 0.2056(3) 0.44727(12) 0.8253(6)
C8_7 C 0.1717(3) 0.49413(12) 0.7297(4)
C9_7 C 0.0100(4) 0.42739(14) 0.6589(4)
C10_7 C 0.3503(3) 0.56940(12) 0.8226(6)
C11_7 C 0.1057(3) 0.47757(12) 0.6789(4)
H8_7 H 0.073881 0.488016 0.626393
O6_5 O 0.5040(3) 0.65219(7) 0.6801(4)
O7_5 O 0.4287(2) 0.69661(8) 0.6972(3)
N7_7 N 0.4780(2) 0.66955(9) 0.9284(3)
O1_5 O 0.53366(19) 0.05863(8) 0.5954(2)
O4_5 O 0.5067(4) 0.10238(12) 0.6847(4)
C2_6 C 0.3623(3) 0.07086(13) 0.7843(5)
H6_6 H 0.374423 0.092522 0.806387
C4_8 C 0.2401(3) 0.06989(13) 0.9097(4)
C5_8 C 0.4136(3) 0.05551(13) 0.7068(4)
C6_6 C 0.2784(3) 0.02001(10) 0.7994(5)
H7_8 H 0.232502 0.008098 0.831158
C7_6 C 0.2944(3) 0.05273(12) 0.8253(6)
C8_8 C 0.3283(3) 0.00587(12) 0.7297(4)
C9_8 C 0.4900(4) 0.07261(14) 0.6589(4)
C11_8 C 0.3943(3) 0.02243(12) 0.6789(4)
H8_8 H 0.426119 0.011984 0.626393
Cd4_5 Cd 0.63752(2) 0.09790(2) 0.55766(4)
N1_8 N 0.22328(18) 0.86823(7) 0.6720(3)
H1_8 H 0.188219 0.852312 0.691446
H2_8 H 0.262728 0.864632 0.624804
N2_5 N 0.2720(2) 0.91955(9) 0.6784(3)
N3_8 N 0.1561(2) 0.90023(8) 0.7825(3)
N4_8 N 0.2023(3) 0.95546(9) 0.7936(4)
N5_8 N 0.3171(3) 0.97350(9) 0.6946(3)
H3_8 H 0.352196 0.967991 0.644696
N6_8 N 0.0925(3) 0.93559(11) 0.8951(4)
H4_8 H 0.088903 0.954943 0.924009
H5_8 H 0.057829 0.919576 0.914744
C1_8 C 0.2171(3) 0.89575(11) 0.7109(4)
C3_8 C 0.2603(3) 0.94893(14) 0.7252(4)
C10_8 C 0.1497(3) 0.93060(12) 0.8226(6)
O5_7 O 0.21634(19) 0.80863(8) 0.8454(2)
O8_7 O 0.2433(4) 0.85238(12) 0.9347(4)
O2_6 O 0.4960(3) 0.34781(7) 0.6801(4)
O3_8 O 0.5713(2) 0.30339(8) 0.6972(3)
N1_9 N 0.52672(18) 0.11823(7) 0.4220(3)
H1_9 H 0.561781 0.102312 0.441446
H2_9 H 0.487272 0.114632 0.374804
N3_9 N 0.5939(2) 0.15023(8) 0.5325(3)
N4_9 N 0.5477(3) 0.20546(9) 0.5436(4)
N5_9 N 0.4329(3) 0.22350(9) 0.4446(3)
H3_9 H 0.397804 0.217991 0.394696
N6_9 N 0.6575(3) 0.18559(11) 0.6451(4)
H4_9 H 0.661097 0.204943 0.674009
H5_9 H 0.692171 0.169576 0.664744
C1_9 C 0.5329(3) 0.14575(11) 0.4609(4)
C2_7 C 0.3877(3) 0.32086(13) 0.5343(5)
H6_7 H 0.375577 0.342522 0.556387
C3_9 C 0.4897(3) 0.19893(14) 0.4752(4)
C4_9 C 0.5099(3) 0.31989(13) 0.6597(4)
C5_9 C 0.3364(3) 0.30551(13) 0.4568(4)
C6_7 C 0.4716(3) 0.27001(10) 0.5494(5)
H7_9 H 0.517498 0.258098 0.581158
C7_7 C 0.4556(3) 0.30273(12) 0.5753(6)
C8_9 C 0.4217(3) 0.25587(12) 0.4797(4)
C9_9 C 0.2600(4) 0.32261(14) 0.4089(4)
C10_9 C 0.6003(3) 0.18060(12) 0.5726(6)
C11_9 C 0.3557(3) 0.27243(12) 0.4289(4)
H8_9 H 0.323881 0.261984 0.376393
O6_6 O 0.7540(3) 0.09781(7) 0.4301(4)
O7_6 O 0.6787(2) 0.05339(8) 0.4472(3)
N7_8 N 0.7280(2) 0.08045(9) 0.6784(3)
O1_6 O 0.78366(19) 0.69137(8) 0.3454(2)
O4_6 O 0.7567(4) 0.64762(12) 0.4347(4)
N1_10 N 0.47328(18) 0.88177(7) 0.4220(3)
H1_10 H 0.438219 0.897688 0.441446
H2_10 H 0.512728 0.885368 0.374804
N2_6 N 0.5220(2) 0.83045(9) 0.4284(3)
N3_10 N 0.4061(2) 0.84977(8) 0.5325(3)
N4_10 N 0.4523(3) 0.79454(9) 0.5436(4)
N5_10 N 0.5671(3) 0.77650(9) 0.4446(3)
H3_10 H 0.602196 0.782009 0.394696
N6_10 N 0.3425(3) 0.81441(11) 0.6451(4)
H4_10 H 0.338903 0.795057 0.674009
H5_10 H 0.307829 0.830424 0.664744
C1_10 C 0.4671(3) 0.85425(11) 0.4609(4)
C2_8 C 0.6123(3) 0.67914(13) 0.5343(5)
H6_8 H 0.624423 0.657478 0.556387
C3_10 C 0.5103(3) 0.80107(14) 0.4752(4)
C4_10 C 0.4901(3) 0.68011(13) 0.6597(4)
C5_10 C 0.6636(3) 0.69449(13) 0.4568(4)
C6_8 C 0.5284(3) 0.72999(10) 0.5494(5)
H7_10 H 0.482502 0.741902 0.581158
C7_8 C 0.5444(3) 0.69727(12) 0.5753(6)
C8_10 C 0.5783(3) 0.74413(12) 0.4797(4)
C9_10 C 0.7400(4) 0.67739(14) 0.4089(4)
C10_10 C 0.3997(3) 0.81940(12) 0.5726(6)
C11_10 C 0.6443(3) 0.72757(12) 0.4289(4)
H8_10 H 0.676119 0.738016 0.376393
O5_8 O 0.46634(19) 0.94137(8) 0.5954(2)
O8_8 O 0.4933(4) 0.89762(12) 0.6847(4)
N1_11 N 0.77672(18) 0.13177(7) 0.6720(3)
H1_11 H 0.811781 0.147688 0.691446
H2_11 H 0.737272 0.135368 0.624804
N3_11 N 0.8439(2) 0.09977(8) 0.7825(3)
N4_11 N 0.7977(3) 0.04454(9) 0.7936(4)
N5_11 N 0.6829(3) 0.02650(9) 0.6946(3)
H3_11 H 0.647804 0.032009 0.644696
N6_11 N 0.9075(3) 0.06441(11) 0.8951(4)
H4_11 H 0.911097 0.045057 0.924009
H5_11 H 0.942171 0.080424 0.914744
C1_11 C 0.7829(3) 0.10425(11) 0.7109(4)
C3_11 C 0.7397(3) 0.05107(14) 0.7252(4)
C10_11 C 0.8503(3) 0.06940(12) 0.8226(6)
O5_9 O 0.78366(19) 0.19137(8) 0.8454(2)
O8_9 O 0.7567(4) 0.14762(12) 0.9347(4)
C2_9 C 0.6377(3) 0.92914(13) 0.7843(5)
H6_9 H 0.625577 0.907478 0.806387
C4_11 C 0.7599(3) 0.93011(13) 0.9097(4)
C5_11 C 0.5864(3) 0.94449(13) 0.7068(4)
C6_9 C 0.7216(3) 0.97999(10) 0.7994(5)
H7_11 H 0.767498 0.991902 0.831158
C7_9 C 0.7056(3) 0.94727(12) 0.8253(6)
C8_11 C 0.6717(3) 0.99413(12) 0.7297(4)
C9_11 C 0.5100(4) 0.92739(14) 0.6589(4)
C11_11 C 0.6057(3) 0.97757(12) 0.6789(4)
H8_11 H 0.573881 0.988016 0.626393
O2_7 O 0.7540(3) 0.59781(7) 0.9301(4)
O3_9 O 0.6787(2) 0.55339(8) 0.9472(3)
N1_12 N 0.72328(18) 0.36823(7) 0.6720(3)
H1_12 H 0.688219 0.352312 0.691446
H2_12 H 0.762728 0.364632 0.624804
N3_12 N 0.6561(2) 0.40023(8) 0.7825(3)
N4_12 N 0.7023(3) 0.45546(9) 0.7936(4)
N5_12 N 0.8171(3) 0.47350(9) 0.6946(3)
H3_12 H 0.852196 0.467991 0.644696
N6_12 N 0.5925(3) 0.43559(11) 0.8951(4)
H4_12 H 0.588903 0.454943 0.924009
H5_12 H 0.557829 0.419576 0.914744
C1_12 C 0.7171(3) 0.39575(11) 0.7109(4)
C2_10 C 0.8623(3) 0.57086(13) 0.7843(5)
H6_10 H 0.874423 0.592522 0.806387
C3_12 C 0.7603(3) 0.44893(14) 0.7252(4)
C4_12 C 0.7401(3) 0.56989(13) 0.9097(4)
C5_12 C 0.9136(3) 0.55551(13) 0.7068(4)
C6_10 C 0.7784(3) 0.52001(10) 0.7994(5)
H7_12 H 0.732502 0.508098 0.831158
C7_10 C 0.7944(3) 0.55273(12) 0.8253(6)
C8_12 C 0.8283(3) 0.50587(12) 0.7297(4)
C9_12 C 0.9900(4) 0.57261(14) 0.6589(4)
C10_12 C 0.6497(3) 0.43060(12) 0.8226(6)
C11_12 C 0.8943(3) 0.52243(12) 0.6789(4)
H8_12 H 0.926119 0.511984 0.626393
N7_9 N 0.5220(2) 0.33045(9) 0.9284(3)
O2_8 O 0.4960(3) 0.84781(7) 0.1801(4)
O3_10 O 0.5713(2) 0.80339(8) 0.1972(3)
N3_13 N 0.5939(2) 0.65023(8) 0.0325(3)
N4_13 N 0.5477(3) 0.70546(9) 0.0436(4)
N6_13 N 0.6575(3) 0.68559(11) 0.1451(4)
H4_13 H 0.661097 0.704943 0.174009
H5_13 H 0.692171 0.669576 0.164744
C2_11 C 0.3877(3) 0.82086(13) 0.0343(5)
H6_11 H 0.375577 0.842522 0.056387
C4_13 C 0.5099(3) 0.81989(13) 0.1597(4)
C6_11 C 0.4716(3) 0.77001(10) 0.0494(5)
H7_13 H 0.517498 0.758098 0.081158
C7_11 C 0.4556(3) 0.80273(12) 0.0753(6)
C10_13 C 0.6003(3) 0.68060(12) 0.0726(6)
N7_10 N 0.7280(2) 0.58045(9) 0.1784(3)
N1_13 N 0.52672(18) 0.61823(7) 0.9220(3)
H1_13 H 0.561781 0.602312 0.941446
H2_13 H 0.487272 0.614632 0.874804
N5_13 N 0.4329(3) 0.72350(9) 0.9446(3)
H3_13 H 0.397804 0.717991 0.894696
C1_13 C 0.5329(3) 0.64575(11) 0.9609(4)
C3_13 C 0.4897(3) 0.69893(14) 0.9752(4)
C5_13 C 0.3364(3) 0.80551(13) 0.9568(4)
C8_13 C 0.4217(3) 0.75587(12) 0.9797(4)
C9_13 C 0.2600(4) 0.82261(14) 0.9089(4)
C11_13 C 0.3557(3) 0.77243(12) 0.9289(4)
H8_13 H 0.323881 0.761984 0.876393
N3_14 N 0.4061(2) 0.34977(8) 0.0325(3)
N4_14 N 0.4523(3) 0.29454(9) 0.0436(4)
N6_14 N 0.3425(3) 0.31441(11) 0.1451(4)
H4_14 H 0.338903 0.295057 0.174009
H5_14 H 0.307829 0.330424 0.164744
C2_12 C 0.6123(3) 0.17914(13) 0.0343(5)
H6_12 H 0.624423 0.157478 0.056387
C4_14 C 0.4901(3) 0.18011(13) 0.1597(4)
C6_12 C 0.5284(3) 0.22999(10) 0.0494(5)
H7_14 H 0.482502 0.241902 0.081158
C7_12 C 0.5444(3) 0.19727(12) 0.0753(6)
C10_14 C 0.3997(3) 0.31940(12) 0.0726(6)
O5_10 O 0.46634(19) 0.44137(8) 0.0954(2)
O8_10 O 0.4933(4) 0.39762(12) 0.1847(4)
N1_14 N 0.47328(18) 0.38177(7) 0.9220(3)
H1_14 H 0.438219 0.397688 0.941446
H2_14 H 0.512728 0.385368 0.874804
N5_14 N 0.5671(3) 0.27650(9) 0.9446(3)
H3_14 H 0.602196 0.282009 0.894696
C1_14 C 0.4671(3) 0.35425(11) 0.9609(4)
C3_14 C 0.5103(3) 0.30107(14) 0.9752(4)
C5_14 C 0.6636(3) 0.19449(13) 0.9568(4)
C8_14 C 0.5783(3) 0.24413(12) 0.9797(4)
C9_14 C 0.7400(4) 0.17739(14) 0.9089(4)
C11_14 C 0.6443(3) 0.22757(12) 0.9289(4)
H8_14 H 0.676119 0.238016 0.876393
N1_15 N 0.77672(18) 0.63177(7) 0.1720(3)
H1_15 H 0.811781 0.647688 0.191446
H2_15 H 0.737272 0.635368 0.124804
N3_15 N 0.8439(2) 0.59977(8) 0.2825(3)
N4_15 N 0.7977(3) 0.54454(9) 0.2936(4)
N5_15 N 0.6829(3) 0.52650(9) 0.1946(3)
H3_15 H 0.647804 0.532009 0.144696
N6_15 N 0.9075(3) 0.56441(11) 0.3951(4)
H4_15 H 0.911097 0.545057 0.424009
H5_15 H 0.942171 0.580424 0.414744
C1_15 C 0.7829(3) 0.60425(11) 0.2109(4)
C2_13 C 0.6377(3) 0.42914(13) 0.2843(5)
H6_13 H 0.625577 0.407478 0.306387
C3_15 C 0.7397(3) 0.55107(14) 0.2252(4)
C4_15 C 0.7599(3) 0.43011(13) 0.4097(4)
C5_15 C 0.5864(3) 0.44449(13) 0.2068(4)
C6_13 C 0.7216(3) 0.47999(10) 0.2994(5)
H7_15 H 0.767498 0.491902 0.331158
C7_13 C 0.7056(3) 0.44727(12) 0.3253(6)
C8_15 C 0.6717(3) 0.49413(12) 0.2297(4)
C9_15 C 0.5100(4) 0.42739(14) 0.1589(4)
C10_15 C 0.8503(3) 0.56940(12) 0.3226(6)
C11_15 C 0.6057(3) 0.47757(12) 0.1789(4)
H8_15 H 0.573881 0.488016 0.126393
C2_14 C 0.8623(3) 0.07086(13) 0.2843(5)
H6_14 H 0.874423 0.092522 0.306387
C4_16 C 0.7401(3) 0.06989(13) 0.4097(4)
C5_16 C 0.9136(3) 0.05551(13) 0.2068(4)
C6_14 C 0.7784(3) 0.02001(10) 0.2994(5)
H7_16 H 0.732502 0.008098 0.331158
C7_14 C 0.7944(3) 0.05273(12) 0.3253(6)
C8_16 C 0.8283(3) 0.00587(12) 0.2297(4)
C9_16 C 0.9900(4) 0.07261(14) 0.1589(4)
C11_16 C 0.8943(3) 0.02243(12) 0.1789(4)
H8_16 H 0.926119 0.011984 0.126393
N1_16 N 0.72328(18) 0.86823(7) 0.1720(3)
H1_16 H 0.688219 0.852312 0.191446
H2_16 H 0.762728 0.864632 0.124804
N3_16 N 0.6561(2) 0.90023(8) 0.2825(3)
N4_16 N 0.7023(3) 0.95546(9) 0.2936(4)
N5_16 N 0.8171(3) 0.97350(9) 0.1946(3)
H3_16 H 0.852196 0.967991 0.144696
N6_16 N 0.5925(3) 0.93559(11) 0.3951(4)
H4_16 H 0.588903 0.954943 0.424009
H5_16 H 0.557829 0.919576 0.414744
C1_16 C 0.7171(3) 0.89575(11) 0.2109(4)
C3_16 C 0.7603(3) 0.94893(14) 0.2252(4)
C10_16 C 0.6497(3) 0.93060(12) 0.3226(6)
O2_9 O 0.9960(3) 0.34781(7) 0.1801(4)
C2_15 C 0.8877(3) 0.32086(13) 0.0343(5)
H6_15 H 0.875577 0.342522 0.056387
C6_15 C 0.9716(3) 0.27001(10) 0.0494(5)
C7_15 C 0.9556(3) 0.30273(12) 0.0753(6)
O2_10 O 0.0040(3) 0.65219(7) 0.1801(4)
C2_16 C 0.1123(3) 0.67914(13) 0.0343(5)
H6_16 H 0.124423 0.657478 0.056387
C6_16 C 0.0284(3) 0.72999(10) 0.0494(5)
C7_16 C 0.0444(3) 0.69727(12) 0.0753(6)
loop_
_geom_bond_atom_site_label_1
_geom_bond_atom_site_label_2
_geom_bond_site_symmetry_1
_geom_bond_site_symmetry_2
O3 C4 1_555 1_555
N3 Cd1 1_555 1_555
N6 H4 1_555 1_555
H5 N6 1_555 1_555
C10 N3 1_555 1_555
O5 Cd1 1_555 1_555
O8 Cd1 1_555 1_555
N7 Cd1 1_555 1_555
O3 Cd2 1_555 1_555
N4 C10 1_555 1_555
N6 C10 1_555 1_555
N1 H1 1_555 1_555
C1 N1 1_555 1_555
O1 C9 1_555 1_555
O4 C9 1_555 1_555
N5 H3 1_555 1_555
C3 N2 1_555 1_555
C8 N5 1_555 1_555
C9 C5 1_555 1_555
C11 C5 1_555 1_555
H8 C11 1_555 1_555
Cd3 N2 1_555 1_555
Cd4 O1 1_555 1_555
O4 Cd4 1_555 1_555
N5 C3 1_555 1_555
C8 C11 1_555 1_555
O1_2 C9_2 1_555 1_555
O4_2 C9_2 1_555 1_555
N5_2 H3_2 1_555 1_555
C3_2 N2_2 1_555 1_555
C8_2 N5_2 1_555 1_555
C9_2 C5_2 1_555 1_555
C11_2 C5_2 1_555 1_555
H8_2 C11_2 1_555 1_555
Cd3_2 N2_2 1_555 1_555
Cd4_2 O1_2 1_555 1_555
O4_2 Cd4_2 1_555 1_555
N5_2 C3_2 1_555 1_555
C8_2 C11_2 1_555 1_555
O3_2 C4_2 1_555 1_555
N3_2 Cd1_2 1_555 1_555
N6_2 H4_2 1_555 1_555
H5_2 N6_2 1_555 1_555
C10_2 N3_2 1_555 1_555
O5_2 Cd1_2 1_555 1_555
O8_2 Cd1_2 1_555 1_555
N7_2 Cd1_2 1_555 1_555
O3_2 Cd2_2 1_555 1_555
N4_2 C10_2 1_555 1_555
N6_2 C10_2 1_555 1_555
N1_2 H1_2 1_555 1_555
C1_2 N1_2 1_555 1_555
Cd1_3 N1_3 1_555 1_555
N1_3 H1_3 1_555 1_555
H2_3 N1_3 1_555 1_555
N7 C1_3 1_555 1_555
N3_3 Cd1_3 1_555 1_555
N4_3 C3_3 1_555 1_555
N5_3 H3_3 1_555 1_555
N6_3 H4_3 1_555 1_555
H5_3 N6_3 1_555 1_555
C1_3 N1_3 1_555 1_555
C3_3 N7 1_555 1_555
C10_3 N3_3 1_555 1_555
O5_3 Cd1_3 1_555 1_555
O6_3 Cd1_3 1_555 1_555
O7_3 Cd1_3 1_555 1_555
O8_3 Cd1_3 1_555 1_555
N7_3 Cd1_3 1_555 1_555
N3_3 C1_3 1_555 1_555
N4_3 C10_3 1_555 1_555
N5_3 C3_3 1_555 1_555
N6_3 C10_3 1_555 1_555
O2 C4_3 1_555 1_555
O3_3 C4_3 1_555 1_555
C2 H6 1_555 1_555
C4_3 C7 1_555 1_555
C5_3 C2 1_555 1_555
C6 H7_3 1_555 1_555
C7 C2 1_555 1_555
C9_3 C5_3 1_555 1_555
C11_3 C5_3 1_555 1_555
H8_3 C11_3 1_555 1_555
Cd2_3 O2 1_555 1_555
O3_3 Cd2_3 1_555 1_555
C6 C7 1_555 1_555
C6 C8_3 1_555 1_555
C8_3 C11_3 1_555 1_555
Cd2 N1_4 1_555 1_555
O1_3 C9_4 1_555 1_555
O2_2 C4_4 1_555 1_555
O3_4 C4_4 1_555 1_555
O4_3 C9_4 1_555 1_555
N1_4 H1_4 1_555 1_555
H2_4 N1_4 1_555 1_555
N2_3 C1_4 1_555 1_555
N3_4 Cd2 1_555 1_555
N4_4 C3_4 1_555 1_555
N5_4 H3_4 1_555 1_555
N6_4 H4_4 1_555 1_555
H5_4 N6_4 1_555 1_555
C1_4 N1_4 1_555 1_555
C2_2 H6_2 1_555 1_555
C3_4 N2_3 1_555 1_555
C4_4 C7_2 1_555 1_555
C5_4 C2_2 1_555 1_555
C6_2 H7_4 1_555 1_555
C7_2 C2_2 1_555 1_555
C8_4 N5_4 1_555 1_555
C9_4 C5_4 1_555 1_555
C10_4 N3_4 1_555 1_555
C11_4 C5_4 1_555 1_555
H8_4 C11_4 1_555 1_555
Cd2_4 O2_2 1_555 1_555
Cd3_3 N2_3 1_555 1_555
Cd4_3 O1_3 1_555 1_555
O5_4 Cd2 1_555 1_555
O8_4 Cd2 1_555 1_555
N7_4 Cd2 1_555 1_555
O3_4 Cd2_4 1_555 1_555
O4_3 Cd4_3 1_555 1_555
N3_4 C1_4 1_555 1_555
N4_4 C10_4 1_555 1_555
N5_4 C3_4 1_555 1_555
N6_4 C10_4 1_555 1_555
C6_2 C7_2 1_555 1_555
C6_2 C8_4 1_555 1_555
C8_4 C11_4 1_555 1_555
Cd2_4 N1_5 1_555 1_555
O3_5 C4_5 1_555 1_555
N1_5 H1_5 1_555 1_555
N3_5 Cd2_4 1_555 1_555
N6_5 H4_5 1_555 1_555
H5_5 N6_5 1_555 1_555
C1_5 N1_5 1_555 1_555
C10_5 N3_5 1_555 1_555
O5_5 Cd2_4 1_555 1_555
O8_5 Cd2_4 1_555 1_555
N7_5 Cd2_4 1_555 1_555
O3_5 Cd3_2 1_555 1_555
N3_5 C1_5 1_555 1_555
N4_5 C10_5 1_555 1_555
N6_5 C10_5 1_555 1_555
O1_4 C9_5 1_555 1_555
O4_4 C9_5 1_555 1_555
N5_5 H3_5 1_555 1_555
C2_3 H6_3 1_555 1_555
C3_5 N2_4 1_555 1_555
C5_5 C2_3 1_555 1_555
C7_3 C2_3 1_555 1_555
C8_5 N5_5 1_555 1_555
C9_5 C5_5 1_555 1_555
C11_5 C5_5 1_555 1_555
H8_5 C11_5 1_555 1_555
Cd2_2 N2_4 1_555 1_555
Cd4_4 O1_4 1_555 1_555
O4_4 Cd4_4 1_555 1_555
N5_5 C3_5 1_555 1_555
C6_3 C7_3 1_555 1_555
C6_3 C8_5 1_555 1_555
C8_5 C11_5 1_555 1_555
O5_3 C9_6 1_555 1_555
O8_3 C9_6 1_555 1_555
N5_6 H3_6 1_555 1_555
C2_4 H6_4 1_555 1_555
C3_6 N7_4 1_555 1_555
C5_6 C2_4 1_555 1_555
C7_4 C2_4 1_555 1_555
C8_6 N5_6 1_555 1_555
C9_6 C5_6 1_555 1_555
C11_6 C5_6 1_555 1_555
H8_6 C11_6 1_555 1_555
N5_6 C3_6 1_555 1_555
C6_4 C7_4 1_555 1_555
C6_4 C8_6 1_555 1_555
C8_6 C11_6 1_555 1_555
Cd1_4 N1_6 1_555 1_555
O3_6 C4_6 1_555 1_555
N1_6 H1_6 1_555 1_555
N3_6 Cd1_4 1_555 1_555
N6_6 H4_6 1_555 1_555
H5_6 N6_6 1_555 1_555
C1_6 N1_6 1_555 1_555
C10_6 N3_6 1_555 1_555
O5_6 Cd1_4 1_555 1_555
O6_4 Cd1_4 1_555 1_555
O7_4 Cd1_4 1_555 1_555
O8_6 Cd1_4 1_555 1_555
N7_6 Cd1_4 1_555 1_555
O3_6 Cd3 1_555 1_555
N3_6 C1_6 1_555 1_555
N4_6 C10_6 1_555 1_555
N6_6 C10_6 1_555 1_555
Cd4_2 N1_7 1_555 1_555
O2_5 C4_7 1_555 1_555
O3_7 C4_7 1_555 1_555
N1_7 H1_7 1_555 1_555
H2_7 N1_7 1_555 1_555
N7_5 C1_7 1_555 1_555
N3_7 Cd4_2 1_555 1_555
N4_7 C3_7 1_555 1_555
N5_7 H3_7 1_555 1_555
N6_7 H4_7 1_555 1_555
H5_7 N6_7 1_555 1_555
C1_7 N1_7 1_555 1_555
C2_5 H6_5 1_555 1_555
C3_7 N7_5 1_555 1_555
C4_7 C7_5 1_555 1_555
C5_7 C2_5 1_555 1_555
C6_5 H7_7 1_555 1_555
C7_5 C2_5 1_555 1_555
C8_7 N5_7 1_555 1_555
C9_7 C5_7 1_555 1_555
C10_7 N3_7 1_555 1_555
C11_7 C5_7 1_555 1_555
H8_7 C11_7 1_555 1_555
O6_5 Cd4_2 1_555 1_555
O7_5 Cd4_2 1_555 1_555
N7_7 Cd4_2 1_555 1_555
N3_7 C1_7 1_555 1_555
N4_7 C10_7 1_555 1_555
N5_7 C3_7 1_555 1_555
N6_7 C10_7 1_555 1_555
C6_5 C7_5 1_555 1_555
C6_5 C8_7 1_555 1_555
C8_7 C11_7 1_555 1_555
O1_5 C9_8 1_555 1_555
O6 C4_8 1_555 1_555
O7 C4_8 1_555 1_555
O4_5 C9_8 1_555 1_555
C2_6 H6_6 1_555 1_555
C4_8 C7_6 1_555 1_555
C5_8 C2_6 1_555 1_555
C6_6 H7_8 1_555 1_555
C7_6 C2_6 1_555 1_555
C9_8 C5_8 1_555 1_555
C11_8 C5_8 1_555 1_555
H8_8 C11_8 1_555 1_555
Cd4_5 O1_5 1_555 1_555
O4_5 Cd4_5 1_555 1_555
C6_6 C7_6 1_555 1_555
C6_6 C8_8 1_555 1_555
C8_8 C11_8 1_555 1_555
Cd3_2 N1_8 1_555 1_555
N1_8 H1_8 1_555 1_555
H2_8 N1_8 1_555 1_555
N2_5 C1_8 1_555 1_555
N3_8 Cd3_2 1_555 1_555
N4_8 C3_8 1_555 1_555
N5_8 H3_8 1_555 1_555
N6_8 H4_8 1_555 1_555
H5_8 N6_8 1_555 1_555
C1_8 N1_8 1_555 1_555
C3_8 N2_5 1_555 1_555
C10_8 N3_8 1_555 1_555
Cd2_3 N2_5 1_555 1_555
O5_7 Cd3_2 1_555 1_555
O8_7 Cd3_2 1_555 1_555
N3_8 C1_8 1_555 1_555
N4_8 C10_8 1_555 1_555
N5_8 C3_8 1_555 1_555
N6_8 C10_8 1_555 1_555
Cd4_5 N1_9 1_555 1_555
O5_4 C9_9 1_555 1_555
O2_6 C4_9 1_555 1_555
O3_8 C4_9 1_555 1_555
O8_4 C9_9 1_555 1_555
N1_9 H1_9 1_555 1_555
H2_9 N1_9 1_555 1_555
N7_3 C1_9 1_555 1_555
N3_9 Cd4_5 1_555 1_555
N4_9 C3_9 1_555 1_555
N5_9 H3_9 1_555 1_555
N6_9 H4_9 1_555 1_555
H5_9 N6_9 1_555 1_555
C1_9 N1_9 1_555 1_555
C2_7 H6_7 1_555 1_555
C3_9 N7_3 1_555 1_555
C4_9 C7_7 1_555 1_555
C5_9 C2_7 1_555 1_555
C6_7 H7_9 1_555 1_555
C7_7 C2_7 1_555 1_555
C8_9 N5_9 1_555 1_555
C9_9 C5_9 1_555 1_555
C10_9 N3_9 1_555 1_555
C11_9 C5_9 1_555 1_555
H8_9 C11_9 1_555 1_555
Cd4 O2_6 1_555 1_555
O6_6 Cd4_5 1_555 1_555
O7_6 Cd4_5 1_555 1_555
N7_8 Cd4_5 1_555 1_555
O3_8 Cd4 1_555 1_555
N3_9 C1_9 1_555 1_555
N4_9 C10_9 1_555 1_555
N5_9 C3_9 1_555 1_555
N6_9 C10_9 1_555 1_555
C6_7 C7_7 1_555 1_555
C6_7 C8_9 1_555 1_555
C8_9 C11_9 1_555 1_555
Cd2_3 N1_10 1_555 1_555
O1_6 C9_10 1_555 1_555
O6_5 C4_10 1_555 1_555
O7_5 C4_10 1_555 1_555
O4_6 C9_10 1_555 1_555
N1_10 H1_10 1_555 1_555
H2_10 N1_10 1_555 1_555
N2_6 C1_10 1_555 1_555
N3_10 Cd2_3 1_555 1_555
N4_10 C3_10 1_555 1_555
N5_10 H3_10 1_555 1_555
N6_10 H4_10 1_555 1_555
H5_10 N6_10 1_555 1_555
C1_10 N1_10 1_555 1_555
C2_8 H6_8 1_555 1_555
C3_10 N2_6 1_555 1_555
C4_10 C7_8 1_555 1_555
C5_10 C2_8 1_555 1_555
C6_8 H7_10 1_555 1_555
C7_8 C2_8 1_555 1_555
C8_10 N5_10 1_555 1_555
C9_10 C5_10 1_555 1_555
C10_10 N3_10 1_555 1_555
C11_10 C5_10 1_555 1_555
H8_10 C11_10 1_555 1_555
Cd4_4 N2_6 1_555 1_555
Cd2_2 O1_6 1_555 1_555
O5_8 Cd2_3 1_555 1_555
O8_8 Cd2_3 1_555 1_555
O4_6 Cd2_2 1_555 1_555
N3_10 C1_10 1_555 1_555
N4_10 C10_10 1_555 1_555
N5_10 C3_10 1_555 1_555
N6_10 C10_10 1_555 1_555
C6_8 C7_8 1_555 1_555
C6_8 C8_10 1_555 1_555
C8_10 C11_10 1_555 1_555
Cd3 N1_11 1_555 1_555
N1_11 H1_11 1_555 1_555
H2_11 N1_11 1_555 1_555
N7_8 C1_11 1_555 1_555
N3_11 Cd3 1_555 1_555
N4_11 C3_11 1_555 1_555
N5_11 H3_11 1_555 1_555
N6_11 H4_11 1_555 1_555
H5_11 N6_11 1_555 1_555
C1_11 N1_11 1_555 1_555
C3_11 N7_8 1_555 1_555
C10_11 N3_11 1_555 1_555
O5_9 Cd3 1_555 1_555
O8_9 Cd3 1_555 1_555
N3_11 C1_11 1_555 1_555
N4_11 C10_11 1_555 1_555
N5_11 C3_11 1_555 1_555
N6_11 C10_11 1_555 1_555
O5_8 C9_11 1_555 1_555
O6_2 C4_11 1_555 1_555
O7_2 C4_11 1_555 1_555
O8_8 C9_11 1_555 1_555
C2_9 H6_9 1_555 1_555
C4_11 C7_9 1_555 1_555
C5_11 C2_9 1_555 1_555
C6_9 H7_11 1_555 1_555
C7_9 C2_9 1_555 1_555
C9_11 C5_11 1_555 1_555
C11_11 C5_11 1_555 1_555
H8_11 C11_11 1_555 1_555
C6_9 C7_9 1_555 1_555
C6_9 C8_11 1_555 1_555
C8_11 C11_11 1_555 1_555
Cd4 N1_12 1_555 1_555
O2_7 C4_12 1_555 1_555
O3_9 C4_12 1_555 1_555
N1_12 H1_12 1_555 1_555
H2_12 N1_12 1_555 1_555
N7_6 C1_12 1_555 1_555
N3_12 Cd4 1_555 1_555
N4_12 C3_12 1_555 1_555
N5_12 H3_12 1_555 1_555
N6_12 H4_12 1_555 1_555
H5_12 N6_12 1_555 1_555
C1_12 N1_12 1_555 1_555
C2_10 H6_10 1_555 1_555
C3_12 N7_6 1_555 1_555
C4_12 C7_10 1_555 1_555
C5_12 C2_10 1_555 1_555
C6_10 H7_12 1_555 1_555
C7_10 C2_10 1_555 1_555
C8_12 N5_12 1_555 1_555
C9_12 C5_12 1_555 1_555
C10_12 N3_12 1_555 1_555
C11_12 C5_12 1_555 1_555
H8_12 C11_12 1_555 1_555
N7_9 Cd4 1_555 1_555
N3_12 C1_12 1_555 1_555
N4_12 C10_12 1_555 1_555
N5_12 C3_12 1_555 1_555
N6_12 C10_12 1_555 1_555
C6_10 C7_10 1_555 1_555
C6_10 C8_12 1_555 1_555
C8_12 C11_12 1_555 1_555
O2_8 C4_13 1_555 1_555
O3_10 C4_13 1_555 1_555
N3_13 Cd4_3 1_555 1_555
N6_13 H4_13 1_555 1_555
H5_13 N6_13 1_555 1_555
C2_11 H6_11 1_555 1_555
C4_13 C7_11 1_555 1_555
C6_11 H7_13 1_555 1_555
C7_11 C2_11 1_555 1_555
C10_13 N3_13 1_555 1_555
Cd4_4 O2_8 1_555 1_555
N7_10 Cd4_3 1_555 1_555
O3_10 Cd4_4 1_555 1_555
N4_13 C10_13 1_555 1_555
N6_13 C10_13 1_555 1_555
C6_11 C7_11 1_555 1_555
O5_7 C9_13 1_555 1_555
O8_7 C9_13 1_555 1_555
N1_13 H1_13 1_555 1_555
H2_13 N1_13 1_555 1_555
N7_7 C1_13 1_555 1_555
N5_13 H3_13 1_555 1_555
C1_13 N1_13 1_555 1_555
C3_13 N7_7 1_555 1_555
C8_13 N5_13 1_555 1_555
C9_13 C5_13 1_555 1_555
C11_13 C5_13 1_555 1_555
H8_13 C11_13 1_555 1_555
N5_13 C3_13 1_555 1_555
C8_13 C11_13 1_555 1_555
O6_3 C4_14 1_555 1_555
O7_3 C4_14 1_555 1_555
N3_14 Cd3_3 1_555 1_555
N6_14 H4_14 1_555 1_555
H5_14 N6_14 1_555 1_555
C2_12 H6_12 1_555 1_555
C4_14 C7_12 1_555 1_555
C6_12 H7_14 1_555 1_555
C7_12 C2_12 1_555 1_555
C10_14 N3_14 1_555 1_555
O5_10 Cd3_3 1_555 1_555
O8_10 Cd3_3 1_555 1_555
N4_14 C10_14 1_555 1_555
N6_14 C10_14 1_555 1_555
C6_12 C7_12 1_555 1_555
O5_9 C9_14 1_555 1_555
O8_9 C9_14 1_555 1_555
N1_14 H1_14 1_555 1_555
H2_14 N1_14 1_555 1_555
N7_9 C1_14 1_555 1_555
N5_14 H3_14 1_555 1_555
C1_14 N1_14 1_555 1_555
C3_14 N7_9 1_555 1_555
C8_14 N5_14 1_555 1_555
C9_14 C5_14 1_555 1_555
C11_14 C5_14 1_555 1_555
H8_14 C11_14 1_555 1_555
N5_14 C3_14 1_555 1_555
C8_14 C11_14 1_555 1_555
Cd2_2 N1_15 1_555 1_555
O5_10 C9_15 1_555 1_555
O6_4 C4_15 1_555 1_555
O7_4 C4_15 1_555 1_555
O8_10 C9_15 1_555 1_555
N1_15 H1_15 1_555 1_555
H2_15 N1_15 1_555 1_555
N7_10 C1_15 1_555 1_555
N3_15 Cd2_2 1_555 1_555
N4_15 C3_15 1_555 1_555
N5_15 H3_15 1_555 1_555
N6_15 H4_15 1_555 1_555
H5_15 N6_15 1_555 1_555
C1_15 N1_15 1_555 1_555
C2_13 H6_13 1_555 1_555
C3_15 N7_10 1_555 1_555
C4_15 C7_13 1_555 1_555
C5_15 C2_13 1_555 1_555
C6_13 H7_15 1_555 1_555
C7_13 C2_13 1_555 1_555
C8_15 N5_15 1_555 1_555
C9_15 C5_15 1_555 1_555
C10_15 N3_15 1_555 1_555
C11_15 C5_15 1_555 1_555
H8_15 C11_15 1_555 1_555
N3_15 C1_15 1_555 1_555
N4_15 C10_15 1_555 1_555
N5_15 C3_15 1_555 1_555
N6_15 C10_15 1_555 1_555
C6_13 C7_13 1_555 1_555
C6_13 C8_15 1_555 1_555
C8_15 C11_15 1_555 1_555
O6_6 C4_16 1_555 1_555
O7_6 C4_16 1_555 1_555
C2_14 H6_14 1_555 1_555
C4_16 C7_14 1_555 1_555
C5_16 C2_14 1_555 1_555
C6_14 H7_16 1_555 1_555
C7_14 C2_14 1_555 1_555
C9_16 C5_16 1_555 1_555
C11_16 C5_16 1_555 1_555
H8_16 C11_16 1_555 1_555
C6_14 C7_14 1_555 1_555
C6_14 C8_16 1_555 1_555
C8_16 C11_16 1_555 1_555
Cd4_4 N1_16 1_555 1_555
N1_16 H1_16 1_555 1_555
H2_16 N1_16 1_555 1_555
N7_2 C1_16 1_555 1_555
N3_16 Cd4_4 1_555 1_555
N4_16 C3_16 1_555 1_555
N5_16 H3_16 1_555 1_555
N6_16 H4_16 1_555 1_555
H5_16 N6_16 1_555 1_555
C1_16 N1_16 1_555 1_555
C3_16 N7_2 1_555 1_555
C10_16 N3_16 1_555 1_555
N3_16 C1_16 1_555 1_555
N4_16 C10_16 1_555 1_555
N5_16 C3_16 1_555 1_555
N6_16 C10_16 1_555 1_555
C2_15 H6_15 1_555 1_555
C7_15 C2_15 1_555 1_555
C6_15 C7_15 1_555 1_555
C2_16 H6_16 1_555 1_555
C7_16 C2_16 1_555 1_555
C6_16 C7_16 1_555 1_555

#END
