
###############################################################################
#
# This file contains modified crystal structure data generated from the
# MOF subset of the Cambridge Structural Database (CSD) v543 
# hosted by the Cambridge Crystallographic Data Centre (CCDC).
#
# This work is licensed under the Creative Commons
# Attribution-NonCommercial-ShareAlike 4.0 International License.
# To view a copy of this license, visit
# http://creativecommons.org/licenses/by-nc-sa/4.0/
# or send a letter to
# Creative Commons, PO Box 1866, Mountain View, CA 94042, USA.
#
# CIF created using the CSD Python API on 29 September 2022
# The structure has been converted into the P1 space group
# The structure has a 3D framework
# The original CSD entry PIMSUC is in the rhombohedral crystal system
# The original CSD entry PIMSUC is in a Sohncke space group
# The framework has been calculated to contain at least 10.0% void space
# The void calculation uses a probe of radius 1.32A, grid spacing 0.4
#
###############################################################################

data_PIMSUC
_chemical_formula_moiety         '(C567 H459 Ca27 N27 O128)n'
_symmetry_cell_setting           triclinic
_symmetry_space_group_name_H-M   'P 1'
_symmetry_Int_Tables_number      1
_space_group_name_Hall           'P 1'
loop_
_symmetry_equiv_pos_site_id
_symmetry_equiv_pos_as_xyz
1 x,y,z
_cell_length_a                   28.5523(8)
_cell_length_b                   28.5523(8)
_cell_length_c                   28.3085(10)
_cell_angle_alpha                90
_cell_angle_beta                 90
_cell_angle_gamma                120
_cell_volume                     19986.2
loop_
_atom_site_label
_atom_site_type_symbol
_atom_site_fract_x
_atom_site_fract_y
_atom_site_fract_z
Ca21 Ca 0.36630(5) 0.03439(4) 0.13690(3)
Ca32 Ca 0.39065(6) 0.05723(4) 0.91390(4)
Ca1 Ca 0.03429(4) 0.36635(4) 0.02429(3)
C2 C 0.09125(17) 0.41014(17) 0.13290(16)
C4 C 0.0001(2) 0.25278(19) 0.08074(19)
C7 C 0.1578(3) 0.3857(5) 0.0313(4)
H3 H 0.1419 0.3523 0.0465
C9 C 0.14313(17) 0.46125(18) 0.12139(16)
C14 C 0.14426(18) 0.49908(18) 0.09033(17)
H8 H 0.1130 0.4915 0.0739
C18 C 0.2456(5) 0.3915(10) 0.0443(6)
H14 H 0.2255 0.3531 0.0503
H15 H 0.2637 0.4100 0.0729
H16 H 0.2724 0.3988 0.0203
C20 C 0.19135(18) 0.54850(18) 0.08312(18)
H18 H 0.1915 0.5737 0.0622
C24 C 0.23837(16) 0.55977(16) 0.10763(16)
C26 C 0.0002(2) 0.10131(17) 0.08017(19)
C28 C 0.23780(17) 0.52086(17) 0.13739(17)
H22 H 0.2693 0.5276 0.1529
C30 C 0.0414(2) 0.14715(19) 0.0574(2)
H24 H 0.0694 0.1452 0.0424
C32 C 0.19041(18) 0.47187(18) 0.14418(17)
H26 H 0.1904 0.4460 0.1642
C34 C 0.0407(2) 0.1957(2) 0.05728(19)
H28 H 0.0674 0.2256 0.0414
C36 C 0.28750(17) 0.61487(17) 0.10463(16)
C40 C 0.28180(17) 0.66045(17) 0.10445(16)
H30 H 0.2474 0.6564 0.1042
N2 N 0.2090(3) 0.4092(5) 0.0288(4)
O2 O 0.05193(13) 0.39493(13) 0.10373(12)
O7 O 0.12669(15) 0.39891(17) 0.01767(17)
O8 O 0.0533(2) 0.45385(18) 0.0032(2)
O9 O 0.08811(19) 0.38607(13) 0.16998(12)
O11 O 0.03193(16) 0.28837(14) 0.05349(13)
C63 C 0.2335(8) 0.4622(7) 0.0065(7)
H50 H 0.2614 0.4883 0.0266
H51 H 0.2070 0.4729 0.0008
C64 C 0.58986(17) 0.68111(24) 0.13290(16)
C65 C 0.53875(18) 0.68188(25) 0.12139(16)
C66 C 0.50092(18) 0.64518(25) 0.09033(17)
H52 H 0.5085 0.6215 0.0739
C67 C 0.45150(18) 0.64285(25) 0.08312(18)
H53 H 0.4263 0.6178 0.0622
C68 C 0.44023(16) 0.67860(23) 0.10763(16)
C69 C 0.47914(17) 0.71694(24) 0.13739(17)
H54 H 0.4724 0.7417 0.1529
C70 C 0.52813(18) 0.71854(25) 0.14418(17)
H55 H 0.5540 0.7444 0.1642
C71 C 0.38513(17) 0.67263(24) 0.10463(16)
C72 C 0.33955(17) 0.62135(24) 0.10445(16)
H56 H 0.3436 0.5910 0.1042
O16 O 0.60507(13) 0.65700(18) 0.10373(12)
O17 O 0.61393(13) 0.70204(23) 0.16998(12)
C73 C 0.31889(24) 0.90875(17) 0.13290(16)
C74 C 0.31812(25) 0.85687(17) 0.12139(16)
C75 C 0.35482(25) 0.85574(18) 0.09033(17)
H57 H 0.3785 0.8870 0.0739
C76 C 0.35715(25) 0.80865(18) 0.08312(18)
H58 H 0.3822 0.8085 0.0622
C77 C 0.32140(23) 0.76163(16) 0.10763(16)
C78 C 0.28306(24) 0.76220(17) 0.13739(17)
H59 H 0.2583 0.7307 0.1529
C79 C 0.28146(25) 0.80959(18) 0.14418(17)
H60 H 0.2556 0.8096 0.1642
C80 C 0.32737(24) 0.71250(17) 0.10463(16)
C81 C 0.37865(24) 0.71820(17) 0.10445(16)
H61 H 0.4090 0.7526 0.1042
O18 O 0.34300(18) 0.94807(13) 0.10373(12)
O19 O 0.29796(23) 0.91189(19) 0.16998(12)
C110 C 0.19928(28) 0.0002(2) 0.08101(18)
C111 C 0.1949(3) 0.0398(2) 0.10238(19)
H77 H 0.2253 0.0675 0.1170
C112 C 0.14730(28) 0.0414(2) 0.1037(2)
H78 H 0.1455 0.0690 0.1195
C116 C 0.04923(25) 0.00035(18) 0.0801(2)
C117 C 0.04876(27) 0.04858(19) 0.0806(2)
H81 H 0.0813 0.0812 0.0812
O26 O 0.28814(21) 0.03171(16) 0.10783(14)
Ca13 Ca 0.63365(4) 0.66794(6) 0.02429(3)
Ca16 Ca 0.33206(6) 0.96571(4) 0.02429(3)
Ca18 Ca 0.66809(3) 0.63370(5) 0.13690(3)
Ca33 Ca 0.60944(4) 0.66675(4) 0.24723(4)
Ca34 Ca 0.33325(4) 0.94268(6) 0.24723(4)
Ca35 Ca 0.05732(6) 0.39056(4) 0.24723(4)
C1 C 0.0232(3) 0.4537(2) 0.9716(2)
C8 C 0.0297(2) 0.50685(18) 0.95623(18)
C23 C 0.0367(2) 0.6045(2) 0.9309(2)
C27 C 0.0727(2) 0.6035(2) 0.9641(2)
H21 H 0.0990 0.6355 0.9778
C31 C 0.0691(2) 0.5545(2) 0.9767(2)
H25 H 0.0930 0.5538 0.9986
C35 C 0.0378(2) 0.6565(2) 0.9210(3)
C43 C 0.0862(2) 0.7053(2) 0.9208(2)
H33 H 0.1185 0.7054 0.9255
C44 C 0.0375(3) 0.7534(2) 0.9085(3)
H34 H 0.0372 0.7857 0.9062
C53 C 0.08743(28) 0.75393(19) 0.9138(2)
C54 C 0.13925(28) 0.80515(19) 0.9141(2)
C55 C 0.14633(27) 0.84792(19) 0.9438(2)
H39 H 0.1183 0.8438 0.9634
C56 C 0.19539(28) 0.8962(2) 0.94366(19)
H40 H 0.2005 0.9243 0.9636
C57 C 0.23680(25) 0.90248(16) 0.91374(16)
C58 C 0.22927(27) 0.86185(19) 0.88341(19)
H41 H 0.2564 0.8672 0.8622
C59 C 0.1816(3) 0.8132(2) 0.8844(2)
H42 H 0.1777 0.7852 0.8650
C60 C 0.28934(24) 0.95573(16) 0.91391(16)
O14 O 0.30493(18) 0.98246(13) 0.95163(11)
O15 O 0.31578(13) 0.97141(12) 0.87595(11)
H49 H 0.2491 0.4604 0.9769
Ca23 Ca 0.29894(4) 0.99858(3) 0.80357(3)
O64 O 0.01754(13) 0.32247(22) 0.95163(11)
O67 O 0.02859(12) 0.34437(18) 0.87595(11)
C109 C 0.25268(28) 0.9999(2) 0.08074(19)
C113 C 0.10111(26) 0.9998(2) 0.08017(19)
C114 C 0.10575(28) 0.9586(2) 0.0574(2)
H79 H 0.0758 0.9306 0.0424
C115 C 0.1550(3) 0.9593(2) 0.05728(19)
H80 H 0.1582 0.9326 0.0414
O27 O 0.25644(21) 0.96807(16) 0.05349(13)
Ca25 Ca 0.00142(3) 0.30037(5) 0.80357(3)
Ca2 Ca 0.96561(4) 0.33191(3) 0.13690(3)
C3 C 0.90885(18) 0.31913(18) 0.02833(17)
C6 C 0.8415(4) 0.2288(4) 0.1307(4)
H2 H 0.8589 0.2118 0.1173
C10 C 0.85667(17) 0.31790(18) 0.03948(16)
C11 C 0.9998(2) 0.19908(19) 0.08101(18)
C12 C 0.7626(5) 0.2234(7) 0.1576(6)
H4 H 0.7886 0.2529 0.1764
H5 H 0.7356 0.1964 0.1778
H6 H 0.7457 0.2363 0.1360
C15 C 0.85570(18) 0.35489(18) 0.07085(17)
H9 H 0.8868 0.3781 0.0876
C16 C 0.9602(2) 0.1551(2) 0.10238(19)
H10 H 0.9325 0.1578 0.1170
C17 C 0.7547(6) 0.1463(7) 0.1142(7)
H11 H 0.7695 0.1350 0.0891
H12 H 0.7224 0.1454 0.1033
H13 H 0.7460 0.1221 0.1406
C21 C 0.80913(18) 0.35783(18) 0.07751(18)
H19 H 0.8093 0.3834 0.0980
C22 C 0.9586(2) 0.10590(19) 0.1037(2)
H20 H 0.9310 0.0765 0.1195
C25 C 0.76179(17) 0.32199(17) 0.05323(16)
C29 C 0.76185(18) 0.28336(18) 0.02386(17)
H23 H 0.7301 0.2584 0.0087
C33 C 0.80988(17) 0.28163(18) 0.01677(16)
C37 C 0.71291(17) 0.32780(17) 0.05665(16)
C38 C 0.99965(18) 0.04888(18) 0.0801(2)
C41 C 0.71795(17) 0.37840(17) 0.05717(16)
H31 H 0.7523 0.4088 0.0579
C42 C 0.95142(19) 0.00018(19) 0.0806(2)
H32 H 0.9188 0.0001 0.0812
N1 N 0.7925(4) 0.1991(4) 0.1296(5)
O4 O 0.96829(16) 0.25643(14) 0.10783(14)
O6 O 0.87291(15) 0.27207(19) 0.14350(16)
O10 O 0.94847(12) 0.34414(13) 0.05729(12)
C82 C 0.68087(18) 0.58972(25) 0.02833(17)
C83 C 0.68210(18) 0.53877(25) 0.03948(16)
C84 C 0.64511(18) 0.50081(25) 0.07085(17)
H62 H 0.6219 0.5087 0.0876
C85 C 0.64217(18) 0.45130(25) 0.07751(18)
H63 H 0.6166 0.4259 0.0980
C86 C 0.67801(17) 0.43980(24) 0.05323(16)
C87 C 0.71664(18) 0.47849(25) 0.02386(17)
H64 H 0.7416 0.4717 0.0087
C88 C 0.71837(18) 0.52825(25) 0.01677(16)
C89 C 0.67220(17) 0.38511(24) 0.05665(16)
C90 C 0.62160(17) 0.33955(24) 0.05717(16)
H66 H 0.5912 0.3435 0.0579
O21 O 0.65586(13) 0.60433(18) 0.05729(12)
C91 C 0.41028(25) 0.09115(18) 0.02833(17)
C92 C 0.46123(25) 0.14333(17) 0.03948(16)
C93 C 0.49919(25) 0.14430(18) 0.07085(17)
H67 H 0.4913 0.1132 0.0876
C94 C 0.54870(25) 0.19087(18) 0.07751(18)
H68 H 0.5741 0.1907 0.0980
C95 C 0.56020(24) 0.23821(17) 0.05323(16)
C96 C 0.52151(25) 0.23815(18) 0.02386(17)
H69 H 0.5283 0.2699 0.0087
C97 C 0.47175(25) 0.19012(17) 0.01677(16)
C98 C 0.61489(24) 0.28709(17) 0.05665(16)
C99 C 0.66045(24) 0.28205(17) 0.05717(16)
H71 H 0.6565 0.2477 0.0579
O23 O 0.39567(18) 0.05153(12) 0.05729(12)
O59 O 0.9474(2) 0.4004(4) 0.1579(2)
O70 O 0.98245(13) 0.30474(12) 0.20928(11)
Ca3 Ca 0.94277(4) 0.33342(4) 0.91390(4)
C5 C 0.8218(4) 0.3388(4) 0.9153(3)
H1 H 0.7941 0.3061 0.9038
C13 C 0.9959(2) 0.5085(2) 0.9236(2)
H7 H 0.9705 0.4766 0.9091
C19 C 0.9980(3) 0.5565(2) 0.9112(3)
H17 H 0.9733 0.5562 0.8897
H27 H 0.8099 0.2559 0.9967
C39 C 0.9901(2) 0.6562(2) 0.9130(3)
H29 H 0.9577 0.6235 0.9120
C45 C 0.9896(3) 0.7049(2) 0.9065(3)
C46 C 0.9374(3) 0.7030(2) 0.8967(3)
C47 C 0.9366(3) 0.7393(2) 0.8635(2)
H35 H 0.9687 0.7656 0.8499
C48 C 0.8881(3) 0.7357(2) 0.8511(2)
H36 H 0.8879 0.7602 0.8295
C49 C 0.8402(3) 0.6964(2) 0.87039(18)
C50 C 0.8416(4) 0.6620(3) 0.9045(3)
H37 H 0.8099 0.6364 0.9190
C51 C 0.8901(4) 0.6661(3) 0.9166(3)
H38 H 0.8905 0.6428 0.9393
C52 C 0.7865(4) 0.6901(3) 0.8551(2)
O1 O 0.9889(3) 0.41158(17) 0.95236(18)
O3 O 0.91221(13) 0.29790(15) 0.99098(11)
O5 O 0.8691(4) 0.3448(4) 0.9171(4)
O12 O 0.7864(3) 0.7193(2) 0.8246(2)
O13 O 0.7447(4) 0.6565(3) 0.87494(18)
N3 N 0.8084(4) 0.3768(5) 0.9291(3)
C61 C 0.8472(10) 0.4295(7) 0.9491(8)
H43 H 0.8683 0.4302 0.9813
H44 H 0.8338 0.4582 0.9614
H45 H 0.8832 0.4598 0.9297
C62 C 0.7468(6) 0.3487(9) 0.9208(6)
H46 H 0.7295 0.3114 0.9070
H47 H 0.7358 0.3697 0.8996
H48 H 0.7273 0.3447 0.9513
H65 H 0.7441 0.5540 0.9967
O20 O 0.70210(15) 0.61431(20) 0.99098(11)
H70 H 0.4460 0.1901 0.9967
O22 O 0.38569(20) 0.08779(13) 0.99098(11)
Ca9 Ca 0.69963(5) 0.70106(4) 0.80357(3)
C187 C 0.7206(6) 0.8252(4) 0.7974(4)
H147 H 0.6862 0.8078 0.7840
C188 C 0.7941(9) 0.9041(5) 0.8243(6)
H148 H 0.7976 0.8781 0.8431
H149 H 0.7941 0.9311 0.8445
H150 H 0.8239 0.9210 0.8027
C189 C 0.7249(9) 0.9120(6) 0.7809(7)
H151 H 0.6988 0.8972 0.7558
H152 H 0.7563 0.9443 0.7700
H153 H 0.7094 0.9207 0.8073
N9 N 0.7399(6) 0.8742(4) 0.7963(5)
O45 O 0.73249(24) 0.79376(15) 0.81017(16)
Ca30 Ca 0.66658(4) 0.60935(6) 0.91390(4)
O48 O 0.67633(18) 0.61474(13) 0.77040(12)
O51 O 0.62147(21) 0.69838(16) 0.77450(14)
O53 O 0.94726(13) 0.36871(23) 0.83665(12)
O57 O 0.72900(18) 0.71820(12) 0.72396(12)
O62 O 0.9118(5) 0.2553(4) 0.87494(18)
O69 O 0.65563(18) 0.68422(13) 0.87595(11)
C100 C 0.74722(19) 0.74732(28) 0.08074(19)
C101 C 0.80092(19) 0.80072(28) 0.08101(18)
C102 C 0.8449(2) 0.8051(3) 0.10238(19)
H72 H 0.8422 0.7747 0.1170
C103 C 0.89410(19) 0.85270(28) 0.1037(2)
H73 H 0.9235 0.8545 0.1195
C104 C 0.89869(17) 0.89889(26) 0.08017(19)
C105 C 0.85285(19) 0.89425(28) 0.0574(2)
H74 H 0.8548 0.9242 0.0424
C106 C 0.8043(2) 0.8450(3) 0.05728(19)
H75 H 0.7744 0.8418 0.0414
C107 C 0.95112(18) 0.95077(25) 0.0801(2)
C108 C 0.99982(19) 0.95124(27) 0.0806(2)
H76 H 0.9999 0.9187 0.0812
O24 O 0.74357(14) 0.71186(21) 0.10783(14)
O25 O 0.71163(14) 0.74356(21) 0.05349(13)
C120 C 0.7712(4) 0.6127(6) 0.1307(4)
H83 H 0.7882 0.6471 0.1173
C121 C 0.6143(5) 0.7721(6) 0.0313(4)
H84 H 0.6477 0.7896 0.0465
C123 C 0.7766(7) 0.5392(9) 0.1576(6)
H85 H 0.7471 0.5357 0.1764
H86 H 0.8036 0.5392 0.1778
H87 H 0.7637 0.5094 0.1360
C125 C 0.8537(7) 0.6084(9) 0.1142(7)
H89 H 0.8650 0.6345 0.0891
H90 H 0.8546 0.5770 0.1033
H91 H 0.8779 0.6239 0.1406
C126 C 0.6085(10) 0.8541(11) 0.0443(6)
H92 H 0.6469 0.8724 0.0503
H93 H 0.5900 0.8537 0.0729
H94 H 0.6012 0.8736 0.0203
N4 N 0.8009(4) 0.5934(6) 0.1296(5)
N5 N 0.5908(5) 0.7998(6) 0.0288(4)
O30 O 0.72793(19) 0.60084(24) 0.14350(16)
O31 O 0.60109(17) 0.72778(23) 0.01767(17)
O32 O 0.54615(18) 0.59945(27) 0.0032(2)
C153 C 0.5378(7) 0.7713(11) 0.0065(7)
H116 H 0.5117 0.7731 0.0266
H117 H 0.5271 0.7341 0.0008
O60 O 0.5996(4) 0.5469(3) 0.1579(2)
O71 O 0.69526(12) 0.67770(18) 0.20928(11)
C118 C 0.5463(2) 0.5695(4) 0.9716(2)
C119 C 0.6612(4) 0.4830(6) 0.9153(3)
H82 H 0.6939 0.4880 0.9038
C122 C 0.49315(18) 0.52285(27) 0.95623(18)
C124 C 0.4915(2) 0.4874(3) 0.9236(2)
H88 H 0.5234 0.4939 0.9091
C127 C 0.4435(2) 0.4415(4) 0.9112(3)
H95 H 0.4438 0.4171 0.8897
C128 C 0.3955(2) 0.4322(3) 0.9309(2)
C129 C 0.3965(2) 0.4692(3) 0.9641(2)
H96 H 0.3645 0.4635 0.9778
C130 C 0.4455(2) 0.5146(3) 0.9767(2)
H97 H 0.4462 0.5392 0.9986
C131 C 0.3435(2) 0.3813(3) 0.9210(3)
C132 C 0.3438(2) 0.3339(3) 0.9130(3)
H98 H 0.3765 0.3342 0.9120
C133 C 0.2947(2) 0.3809(3) 0.9208(2)
H99 H 0.2946 0.4131 0.9255
C134 C 0.2466(2) 0.2841(4) 0.9085(3)
H100 H 0.2143 0.2515 0.9062
C135 C 0.2951(2) 0.2847(4) 0.9065(3)
C136 C 0.2970(2) 0.2344(4) 0.8967(3)
C137 C 0.2607(2) 0.1973(4) 0.8635(2)
H101 H 0.2344 0.2031 0.8499
C138 C 0.2643(2) 0.1524(4) 0.8511(2)
H102 H 0.2398 0.1277 0.8295
C139 C 0.3036(2) 0.1438(4) 0.87039(18)
C140 C 0.3380(3) 0.1796(5) 0.9045(3)
H103 H 0.3636 0.1735 0.9190
C141 C 0.3339(3) 0.2240(5) 0.9166(3)
H104 H 0.3572 0.2477 0.9393
C142 C 0.3099(3) 0.0964(5) 0.8551(2)
C143 C 0.24607(19) 0.33350(34) 0.9138(2)
C144 C 0.19485(19) 0.33410(34) 0.9141(2)
C145 C 0.15208(19) 0.29841(33) 0.9438(2)
H105 H 0.1562 0.2745 0.9634
C146 C 0.1038(2) 0.29919(34) 0.94366(19)
H106 H 0.0757 0.2762 0.9636
C147 C 0.09752(16) 0.33432(30) 0.91374(16)
C148 C 0.13815(19) 0.36742(33) 0.88341(19)
H107 H 0.1328 0.3892 0.8622
C149 C 0.1868(2) 0.3684(4) 0.8844(2)
H108 H 0.2148 0.3925 0.8650
C150 C 0.04427(16) 0.33361(29) 0.91391(16)
O28 O 0.58842(17) 0.57732(34) 0.95236(18)
O29 O 0.6552(4) 0.5243(6) 0.9171(4)
O33 O 0.2807(2) 0.0671(4) 0.8246(2)
O34 O 0.3435(3) 0.0882(5) 0.87494(18)
N6 N 0.6232(5) 0.4316(6) 0.9291(3)
C151 C 0.5705(7) 0.4177(12) 0.9491(8)
H109 H 0.5698 0.4381 0.9813
H110 H 0.5418 0.3756 0.9614
H111 H 0.5402 0.4234 0.9297
C152 C 0.6513(9) 0.3981(11) 0.9208(6)
H112 H 0.6886 0.4181 0.9070
H113 H 0.6303 0.3661 0.8996
H114 H 0.6553 0.3826 0.9513
H115 H 0.5396 0.7887 0.9769
C155 C 0.5170(6) 0.1782(4) 0.9153(3)
H118 H 0.5120 0.2059 0.9038
C158 C 0.5126(3) 0.0041(2) 0.9236(2)
H120 H 0.5061 0.0295 0.9091
C160 C 0.5585(4) 0.0020(3) 0.9112(3)
H124 H 0.5829 0.0267 0.8897
C165 C 0.6661(3) 0.0099(2) 0.9130(3)
H127 H 0.6658 0.0423 0.9120
C168 C 0.7153(4) 0.0104(3) 0.9065(3)
C169 C 0.7656(4) 0.0626(3) 0.8967(3)
C170 C 0.8027(4) 0.0634(3) 0.8635(2)
H130 H 0.7969 0.0313 0.8499
C171 C 0.8476(4) 0.1119(3) 0.8511(2)
H131 H 0.8723 0.1121 0.8295
C172 C 0.8562(4) 0.1598(3) 0.87039(18)
C173 C 0.8204(5) 0.1584(4) 0.9045(3)
H132 H 0.8265 0.1901 0.9190
C174 C 0.7760(5) 0.1099(4) 0.9166(3)
H133 H 0.7523 0.1095 0.9393
C175 C 0.9036(5) 0.2135(4) 0.8551(2)
O37 O 0.42268(34) 0.0111(3) 0.95236(18)
O38 O 0.4757(6) 0.1309(4) 0.9171(4)
O41 O 0.9329(4) 0.2136(3) 0.8246(2)
N8 N 0.5684(6) 0.1916(4) 0.9291(3)
C184 C 0.5823(12) 0.1528(10) 0.9491(8)
H138 H 0.5619 0.1317 0.9813
H139 H 0.6244 0.1662 0.9614
H140 H 0.5766 0.1168 0.9297
C185 C 0.6019(11) 0.2532(6) 0.9208(6)
H141 H 0.5819 0.2705 0.9070
H142 H 0.6339 0.2642 0.8996
H143 H 0.6174 0.2727 0.9513
O52 O 0.42144(19) 0.05274(13) 0.83665(12)
O54 O 0.63129(23) 0.57856(19) 0.83665(12)
O65 O 0.67753(22) 0.69507(18) 0.95163(11)
C156 C 0.2279(6) 0.8422(3) 0.0313(4)
H119 H 0.2104 0.8581 0.0465
C159 C 0.1459(11) 0.7544(5) 0.0443(6)
H121 H 0.1276 0.7745 0.0503
H122 H 0.1463 0.7363 0.0729
H123 H 0.1264 0.7276 0.0203
N7 N 0.2002(6) 0.7910(3) 0.0288(4)
O39 O 0.27222(23) 0.87331(15) 0.01767(17)
O40 O 0.40055(27) 0.9467(2) 0.0032(2)
C186 C 0.2287(11) 0.7665(8) 0.0065(7)
H145 H 0.2269 0.7386 0.0266
H146 H 0.2659 0.7930 0.0008
C154 C 0.4305(4) 0.9768(3) 0.9716(2)
C157 C 0.47715(27) 0.9703(2) 0.95623(18)
C161 C 0.5678(3) 0.9633(2) 0.9309(2)
C162 C 0.5308(3) 0.9273(2) 0.9641(2)
H125 H 0.5365 0.9010 0.9778
C163 C 0.4854(3) 0.9309(2) 0.9767(2)
H126 H 0.4608 0.9070 0.9986
C164 C 0.6187(3) 0.9622(2) 0.9210(3)
C166 C 0.6191(3) 0.9138(2) 0.9208(2)
H128 H 0.5869 0.8815 0.9255
C167 C 0.7159(4) 0.9625(3) 0.9085(3)
H129 H 0.7485 0.9628 0.9062
C176 C 0.66650(34) 0.91257(28) 0.9138(2)
C177 C 0.66590(34) 0.86075(28) 0.9141(2)
C178 C 0.70159(33) 0.85367(27) 0.9438(2)
H134 H 0.7255 0.8817 0.9634
C179 C 0.70081(34) 0.80461(28) 0.94366(19)
H135 H 0.7238 0.7995 0.9636
C180 C 0.66568(30) 0.76320(25) 0.91374(16)
C181 C 0.63258(33) 0.77073(27) 0.88341(19)
H136 H 0.6108 0.7436 0.8622
C182 C 0.6316(4) 0.8184(3) 0.8844(2)
H137 H 0.6075 0.8223 0.8650
C183 C 0.66639(29) 0.71066(24) 0.91391(16)
H144 H 0.2113 0.7509 0.9769
C120_2 C 0.3873(6) 0.1585(7) 0.1307(4)
H83_2 H 0.3529 0.1411 0.1173
C123_2 C 0.4608(9) 0.2374(11) 0.1576(6)
H85_2 H 0.4643 0.2114 0.1764
H86_2 H 0.4608 0.2644 0.1778
H87_2 H 0.4906 0.2543 0.1360
C125_2 C 0.3916(9) 0.2453(11) 0.1142(7)
H89_2 H 0.3655 0.2305 0.0891
H90_2 H 0.4230 0.2776 0.1033
H91_2 H 0.3761 0.2540 0.1406
N4_2 N 0.4066(6) 0.2075(7) 0.1296(5)
O30_2 O 0.39916(24) 0.12709(31) 0.14350(16)
O60_2 O 0.4531(3) 0.0526(5) 0.1579(2)
O71_2 O 0.32230(18) 0.01755(22) 0.20928(11)
O48_2 O 0.38526(13) 0.06160(22) 0.77040(12)
O57_2 O 0.28180(12) 0.01081(22) 0.72396(12)
C187_2 C 0.1748(4) 0.8955(7) 0.7974(4)
H147_2 H 0.1922 0.8785 0.7840
C188_2 C 0.0959(5) 0.8901(10) 0.8243(6)
H148_2 H 0.1219 0.9196 0.8431
H149_2 H 0.0689 0.8631 0.8445
H150_2 H 0.0790 0.9030 0.8027
C189_2 C 0.0880(6) 0.8130(11) 0.7809(7)
H151_2 H 0.1028 0.8017 0.7558
H152_2 H 0.0557 0.8121 0.7700
H153_2 H 0.0793 0.7888 0.8073
N9_2 N 0.1258(4) 0.8658(7) 0.7963(5)
O45_2 O 0.20624(15) 0.93874(28) 0.81017(16)
O51_2 O 0.30162(16) 0.92310(26) 0.77450(14)
C187_3 C 0.1045(7) 0.2794(6) 0.7974(4)
H147_3 H 0.1215 0.3138 0.7840
C188_3 C 0.1099(10) 0.2059(9) 0.8243(6)
H148_3 H 0.0804 0.2024 0.8431
H149_3 H 0.1369 0.2059 0.8445
H150_3 H 0.0970 0.1761 0.8027
C189_3 C 0.1870(11) 0.2751(9) 0.7809(7)
H151_3 H 0.1983 0.3012 0.7558
H152_3 H 0.1879 0.2437 0.7700
H153_3 H 0.2112 0.2906 0.8073
N9_3 N 0.1342(7) 0.2601(6) 0.7963(5)
O45_3 O 0.06126(28) 0.26751(24) 0.81017(16)
O51_3 O 0.07690(26) 0.37853(21) 0.77450(14)
O48_3 O 0.93840(22) 0.32367(18) 0.77040(12)
O57_3 O 0.98919(22) 0.27100(18) 0.72396(12)
C64_2 C 0.25653(17) 0.01444(24) 0.46623(16)
C65_2 C 0.20542(18) 0.01521(25) 0.45472(16)
C68_2 C 0.10690(16) 0.01193(23) 0.44096(16)
C69_2 C 0.14581(17) 0.05027(24) 0.47072(17)
H54_2 H 0.1391 0.0750 0.4862
C70_2 C 0.19480(18) 0.05187(25) 0.47751(17)
H55_2 H 0.2207 0.0777 0.4975
C71_2 C 0.05180(17) 0.00596(24) 0.43796(16)
O17_2 O 0.28060(13) 0.03537(23) 0.50331(12)
C75_2 C 0.02149(25) 0.18907(18) 0.42366(17)
H57_2 H 0.0452 0.2203 0.4072
C76_2 C 0.02382(25) 0.14198(18) 0.41645(18)
H58_2 H 0.0489 0.1418 0.3955
C81_2 C 0.04532(24) 0.05153(17) 0.43778(16)
H61_2 H 0.0757 0.0859 0.4375
O18_2 O 0.00967(18) 0.28140(13) 0.43706(12)
Ca13_2 Ca 0.30032(4) 0.00127(6) 0.35762(3)
Ca21_2 Ca 0.03297(5) 0.36772(4) 0.47023(3)
Ca33_2 Ca 0.27610(4) 0.00009(4) 0.58057(4)
C66_2 C 0.16759(18) 0.97851(25) 0.42366(17)
H52_2 H 0.1752 0.9548 0.4072
C67_2 C 0.11817(18) 0.97618(25) 0.41645(18)
H53_2 H 0.0930 0.9511 0.3955
C72_2 C 0.00622(17) 0.95468(24) 0.43778(16)
H56_2 H 0.0103 0.9243 0.4375
O16_2 O 0.27174(13) 0.99033(18) 0.43706(12)
Ca18_2 Ca 0.33476(3) 0.96703(5) 0.47023(3)
C43_2 C 0.7529(2) 0.0386(2) 0.2541(2)
H33_2 H 0.7852 0.0387 0.2588
C44_2 C 0.7042(3) 0.0867(2) 0.2418(3)
H34_2 H 0.7039 0.1190 0.2395
C45_2 C 0.6563(3) 0.0382(2) 0.2398(3)
C46_2 C 0.6041(3) 0.0363(2) 0.2300(3)
C47_2 C 0.6033(3) 0.0726(2) 0.1968(2)
H35_2 H 0.6354 0.0989 0.1832
C48_2 C 0.5548(3) 0.0690(2) 0.1844(2)
H36_2 H 0.5546 0.0935 0.1628
C49_2 C 0.5069(3) 0.0297(2) 0.20372(18)
C52_2 C 0.4532(4) 0.0234(3) 0.1884(2)
C53_2 C 0.75410(28) 0.08726(19) 0.2471(2)
C54_2 C 0.80592(28) 0.13848(19) 0.2474(2)
C55_2 C 0.81300(27) 0.18125(19) 0.2771(2)
H39_2 H 0.7850 0.1771 0.2967
C56_2 C 0.86206(28) 0.2295(2) 0.27699(19)
H40_2 H 0.8672 0.2576 0.2969
C57_2 C 0.90347(25) 0.23581(16) 0.24707(16)
C58_2 C 0.89594(27) 0.19518(19) 0.21674(19)
H41_2 H 0.9231 0.2005 0.1955
C59_2 C 0.8483(3) 0.1465(2) 0.2177(2)
H42_2 H 0.8444 0.1185 0.1983
C60_2 C 0.95601(24) 0.28906(16) 0.24724(16)
O14_2 O 0.97160(18) 0.31579(13) 0.28496(11)
C73_2 C 0.98556(24) 0.24208(17) 0.46623(16)
C74_2 C 0.98479(25) 0.19020(17) 0.45472(16)
C77_2 C 0.98807(23) 0.09496(16) 0.44096(16)
C78_2 C 0.94973(24) 0.09553(17) 0.47072(17)
H59_2 H 0.9250 0.0640 0.4862
C79_2 C 0.94813(25) 0.14292(18) 0.47751(17)
H60_2 H 0.9223 0.1429 0.4975
C80_2 C 0.99404(24) 0.04583(17) 0.43796(16)
O19_2 O 0.96463(23) 0.24522(19) 0.50331(12)
Ca16_2 Ca 0.99873(6) 0.29904(4) 0.35762(3)
Ca34_2 Ca 0.99991(4) 0.27602(6) 0.58057(4)
Ca1_2 Ca 0.70096(4) 0.69968(4) 0.35762(3)
Ca2_2 Ca 0.63228(4) 0.66524(3) 0.47023(3)
C1_2 C 0.6899(3) 0.7870(2) 0.3049(2)
C2_2 C 0.75792(17) 0.74347(17) 0.46623(16)
C3_2 C 0.57552(18) 0.65246(18) 0.36166(17)
C4_2 C 0.6668(2) 0.58611(19) 0.41407(19)
C5_2 C 0.4885(4) 0.6721(4) 0.2486(3)
H1_2 H 0.4608 0.6394 0.2371
C6_2 C 0.5082(4) 0.5621(4) 0.4640(4)
H2_2 H 0.5256 0.5451 0.4506
C7_2 C 0.8245(3) 0.7190(5) 0.3646(4)
H3_2 H 0.8086 0.6856 0.3798
C8_2 C 0.6964(2) 0.84018(18) 0.28956(18)
C9_2 C 0.80980(17) 0.79458(18) 0.45472(16)
C10_2 C 0.52334(17) 0.65123(18) 0.37281(16)
C11_2 C 0.6665(2) 0.53241(19) 0.41434(18)
C12_2 C 0.4293(5) 0.5567(7) 0.4909(6)
H4_2 H 0.4553 0.5862 0.5097
H5_2 H 0.4023 0.5297 0.5111
H6_2 H 0.4124 0.5696 0.4693
C13_2 C 0.6626(2) 0.8418(2) 0.2569(2)
H7_2 H 0.6372 0.8099 0.2424
C14_2 C 0.81093(18) 0.83241(18) 0.42366(17)
H8_2 H 0.7797 0.8248 0.4072
C15_2 C 0.52237(18) 0.68822(18) 0.40418(17)
H9_2 H 0.5535 0.7114 0.4209
C16_2 C 0.6269(2) 0.4884(2) 0.43571(19)
H10_2 H 0.5992 0.4911 0.4503
C17_2 C 0.4214(6) 0.4796(7) 0.4475(7)
H11_2 H 0.4362 0.4683 0.4224
H12_2 H 0.3891 0.4787 0.4366
H13_2 H 0.4127 0.4554 0.4739
C18_2 C 0.9123(5) 0.7248(10) 0.3776(6)
H14_2 H 0.8922 0.6864 0.3836
H15_2 H 0.9304 0.7433 0.4062
H16_2 H 0.9391 0.7321 0.3536
C19_2 C 0.6647(3) 0.8898(2) 0.2445(3)
H17_2 H 0.6400 0.8895 0.2230
C20_2 C 0.85802(18) 0.88183(18) 0.41645(18)
H18_2 H 0.8582 0.9070 0.3955
C21_2 C 0.47580(18) 0.69116(18) 0.41084(18)
H19_2 H 0.4760 0.7167 0.4313
C22_2 C 0.6253(2) 0.43923(19) 0.4370(2)
H20_2 H 0.5977 0.4098 0.4528
C23_2 C 0.7034(2) 0.9378(2) 0.2642(2)
C24_2 C 0.90504(16) 0.89310(16) 0.44096(16)
C25_2 C 0.42846(17) 0.65532(17) 0.38656(16)
C26_2 C 0.6669(2) 0.43464(17) 0.41350(19)
C27_2 C 0.7394(2) 0.9368(2) 0.2974(2)
H21_2 H 0.7657 0.9688 0.3111
C28_2 C 0.90447(17) 0.85419(17) 0.47072(17)
H22_2 H 0.9360 0.8609 0.4862
C29_2 C 0.42852(18) 0.61669(18) 0.35719(17)
H23_2 H 0.3968 0.5917 0.3420
C30_2 C 0.7081(2) 0.48048(19) 0.3907(2)
H24_2 H 0.7361 0.4785 0.3757
C31_2 C 0.7358(2) 0.8878(2) 0.3100(2)
H25_2 H 0.7597 0.8871 0.3319
C32_2 C 0.85708(18) 0.80520(18) 0.47751(17)
H26_2 H 0.8571 0.7793 0.4975
C33_2 C 0.47655(17) 0.61496(18) 0.35010(16)
H27_2 H 0.4766 0.5892 0.3300
C34_2 C 0.7074(2) 0.5290(2) 0.39061(19)
H28_2 H 0.7341 0.5589 0.3747
C35_2 C 0.7045(2) 0.9898(2) 0.2543(3)
C36_2 C 0.95417(17) 0.94820(17) 0.43796(16)
C37_2 C 0.37958(17) 0.66113(17) 0.38998(16)
C38_2 C 0.66632(18) 0.38221(18) 0.4134(2)
C39_2 C 0.6568(2) 0.9895(2) 0.2463(3)
H29_2 H 0.6244 0.9568 0.2453
C40_2 C 0.94847(17) 0.99378(17) 0.43778(16)
H30_2 H 0.9141 0.9897 0.4375
C41_2 C 0.38462(17) 0.71173(17) 0.39050(16)
H31_2 H 0.4190 0.7421 0.3912
C42_2 C 0.61809(19) 0.33351(19) 0.4139(2)
H32_2 H 0.5855 0.3334 0.4145
C50_2 C 0.5083(4) 0.9953(3) 0.2378(3)
H37_2 H 0.4766 0.9697 0.2523
C51_2 C 0.5568(4) 0.9994(3) 0.2499(3)
H38_2 H 0.5572 0.9761 0.2726
N1_2 N 0.4592(4) 0.5324(4) 0.4629(5)
N2_2 N 0.8757(3) 0.7425(5) 0.3621(4)
O1_2 O 0.6556(3) 0.74491(17) 0.28569(18)
O2_2 O 0.71860(13) 0.72826(13) 0.43706(12)
O3_2 O 0.57888(13) 0.63123(15) 0.32431(11)
O4_2 O 0.63496(16) 0.58976(14) 0.44116(14)
O5_2 O 0.5358(4) 0.6781(4) 0.2504(4)
O6_2 O 0.53958(15) 0.60540(19) 0.47683(16)
O7_2 O 0.79336(15) 0.73224(17) 0.35100(17)
O8_2 O 0.7200(2) 0.78718(18) 0.3365(2)
O9_2 O 0.75478(19) 0.71940(13) 0.50331(12)
O10_2 O 0.61514(12) 0.67747(13) 0.39062(12)
O11_2 O 0.69860(16) 0.62170(14) 0.38682(13)
O13_2 O 0.4114(4) 0.9898(3) 0.20827(18)
N3_2 N 0.4751(4) 0.7101(5) 0.2624(3)
C61_2 C 0.5139(10) 0.7628(7) 0.2824(8)
H43_2 H 0.5350 0.7635 0.3146
H44_2 H 0.5005 0.7915 0.2947
H45_2 H 0.5499 0.7931 0.2630
C62_2 C 0.4135(6) 0.6820(9) 0.2541(6)
H46_2 H 0.3962 0.6447 0.2403
H47_2 H 0.4025 0.7030 0.2329
H48_2 H 0.3940 0.6780 0.2846
C63_2 C 0.9002(8) 0.7955(7) 0.3398(7)
H49_2 H 0.9158 0.7937 0.3102
H50_2 H 0.9281 0.8216 0.3599
H51_2 H 0.8737 0.8062 0.3341
C82_2 C 0.34754(18) 0.92305(25) 0.36166(17)
C83_2 C 0.34877(18) 0.87210(25) 0.37281(16)
C84_2 C 0.31178(18) 0.83414(25) 0.40418(17)
H62_2 H 0.2886 0.8420 0.4209
C85_2 C 0.30884(18) 0.78463(25) 0.41084(18)
H63_2 H 0.2833 0.7592 0.4313
C86_2 C 0.34468(17) 0.77313(24) 0.38656(16)
C87_2 C 0.38331(18) 0.81182(25) 0.35719(17)
H64_2 H 0.4083 0.8050 0.3420
C88_2 C 0.38504(18) 0.86158(25) 0.35010(16)
H65_2 H 0.4108 0.8873 0.3300
C89_2 C 0.33887(17) 0.71844(24) 0.38998(16)
C90_2 C 0.28827(17) 0.67288(24) 0.39050(16)
H66_2 H 0.2579 0.6768 0.3912
O20_2 O 0.36877(15) 0.94764(20) 0.32431(11)
O21_2 O 0.32253(13) 0.93766(18) 0.39062(12)
C91_2 C 0.07695(25) 0.42448(18) 0.36166(17)
C92_2 C 0.12790(25) 0.47666(17) 0.37281(16)
C93_2 C 0.16586(25) 0.47763(18) 0.40418(17)
H67_2 H 0.1580 0.4465 0.4209
C94_2 C 0.21537(25) 0.52420(18) 0.41084(18)
H68_2 H 0.2408 0.5240 0.4313
C95_2 C 0.22687(24) 0.57154(17) 0.38656(16)
C96_2 C 0.18818(25) 0.57148(18) 0.35719(17)
H69_2 H 0.1950 0.6032 0.3420
C97_2 C 0.13842(25) 0.52345(17) 0.35010(16)
H70_2 H 0.1127 0.5234 0.3300
C98_2 C 0.28156(24) 0.62042(17) 0.38998(16)
C99_2 C 0.32712(24) 0.61538(17) 0.39050(16)
H71_2 H 0.3232 0.5810 0.3912
O22_2 O 0.05236(20) 0.42112(13) 0.32431(11)
O23_2 O 0.06234(18) 0.38486(12) 0.39062(12)
C100_2 C 0.41389(19) 0.08065(28) 0.41407(19)
C101_2 C 0.46759(19) 0.13405(28) 0.41434(18)
C102_2 C 0.5116(2) 0.1384(3) 0.43571(19)
H72_2 H 0.5089 0.1080 0.4503
C103_2 C 0.56077(19) 0.18603(28) 0.4370(2)
H73_2 H 0.5902 0.1878 0.4528
C104_2 C 0.56536(17) 0.23222(26) 0.41350(19)
C105_2 C 0.51952(19) 0.22758(28) 0.3907(2)
H74_2 H 0.5215 0.2575 0.3757
C106_2 C 0.4710(2) 0.1783(3) 0.39061(19)
H75_2 H 0.4411 0.1751 0.3747
C107_2 C 0.61779(18) 0.28410(25) 0.4134(2)
C108_2 C 0.66649(19) 0.28457(27) 0.4139(2)
H76_2 H 0.6666 0.2520 0.4145
O24_2 O 0.41024(14) 0.04519(21) 0.44116(14)
O25_2 O 0.37830(14) 0.07689(21) 0.38682(13)
C109_2 C 0.91935(28) 0.3332(2) 0.41407(19)
C110_2 C 0.86595(28) 0.3335(2) 0.41434(18)
C111_2 C 0.8616(3) 0.3731(2) 0.43571(19)
H77_2 H 0.8920 0.4008 0.4503
C112_2 C 0.81397(28) 0.3747(2) 0.4370(2)
H78_2 H 0.8122 0.4023 0.4528
C113_2 C 0.76778(26) 0.3331(2) 0.41350(19)
C114_2 C 0.77242(28) 0.2919(2) 0.3907(2)
H79_2 H 0.7425 0.2639 0.3757
C115_2 C 0.8217(3) 0.2926(2) 0.39061(19)
H80_2 H 0.8249 0.2659 0.3747
C116_2 C 0.71590(25) 0.33368(18) 0.4134(2)
C117_2 C 0.71543(27) 0.38191(19) 0.4139(2)
H81_2 H 0.7480 0.4145 0.4145
O26_2 O 0.95481(21) 0.36504(16) 0.44116(14)
O27_2 O 0.92311(21) 0.30140(16) 0.38682(13)
C121_2 C 0.2810(5) 0.1054(6) 0.3646(4)
H84_2 H 0.3144 0.1229 0.3798
C126_2 C 0.2752(10) 0.1874(11) 0.3776(6)
H92_2 H 0.3136 0.2057 0.3836
H93_2 H 0.2567 0.1870 0.4062
H94_2 H 0.2679 0.2069 0.3536
N5_2 N 0.2575(5) 0.1331(6) 0.3621(4)
O31_2 O 0.26776(17) 0.06111(23) 0.35100(17)
C153_2 C 0.2045(7) 0.1046(11) 0.3398(7)
H115_2 H 0.2063 0.1220 0.3102
H116_2 H 0.1784 0.1064 0.3599
H117_2 H 0.1938 0.0674 0.3341
Ca35_2 Ca 0.72398(6) 0.72390(4) 0.58057(4)
O59_2 O 0.6140(2) 0.7338(4) 0.4913(2)
O62_2 O 0.5785(5) 0.5886(4) 0.20827(18)
O64_2 O 0.68421(13) 0.65580(22) 0.28496(11)
O65_2 O 0.34420(22) 0.02840(18) 0.28496(11)
O70_2 O 0.64911(13) 0.63808(12) 0.54262(11)
O71_3 O 0.36192(12) 0.01104(18) 0.54262(11)
C118_2 C 0.2130(2) 0.9028(4) 0.3049(2)
C119_2 C 0.3279(4) 0.8163(6) 0.2486(3)
H82_2 H 0.3606 0.8213 0.2371
C120_3 C 0.4379(4) 0.9460(6) 0.4640(4)
H83_3 H 0.4549 0.9804 0.4506
C122_2 C 0.15982(18) 0.85618(27) 0.28956(18)
C123_3 C 0.4433(7) 0.8725(9) 0.4909(6)
H85_3 H 0.4138 0.8690 0.5097
H86_3 H 0.4703 0.8725 0.5111
H87_3 H 0.4304 0.8427 0.4693
C124_2 C 0.1582(2) 0.8207(3) 0.2569(2)
H88_2 H 0.1901 0.8272 0.2424
C125_3 C 0.5204(7) 0.9417(9) 0.4475(7)
H89_3 H 0.5317 0.9678 0.4224
H90_3 H 0.5213 0.9103 0.4366
H91_3 H 0.5446 0.9572 0.4739
C127_2 C 0.1102(2) 0.7748(4) 0.2445(3)
H95_2 H 0.1105 0.7504 0.2230
C128_2 C 0.0622(2) 0.7655(3) 0.2642(2)
C129_2 C 0.0632(2) 0.8025(3) 0.2974(2)
H96_2 H 0.0312 0.7968 0.3111
C130_2 C 0.1122(2) 0.8479(3) 0.3100(2)
H97_2 H 0.1129 0.8725 0.3319
C131_2 C 0.0102(2) 0.7146(3) 0.2543(3)
C132_2 C 0.0105(2) 0.6672(3) 0.2463(3)
H98_2 H 0.0432 0.6675 0.2453
C140_2 C 0.0047(3) 0.5129(5) 0.2378(3)
H103_2 H 0.0303 0.5068 0.2523
C141_2 C 0.0006(3) 0.5573(5) 0.2499(3)
H104_2 H 0.0239 0.5810 0.2726
N4_3 N 0.4676(4) 0.9267(6) 0.4629(5)
O28_2 O 0.25509(17) 0.91065(34) 0.28569(18)
O29_2 O 0.3219(4) 0.8576(6) 0.2504(4)
O30_3 O 0.39460(19) 0.93417(24) 0.47683(16)
O32_2 O 0.21282(18) 0.93278(27) 0.3365(2)
O34_2 O 0.0102(3) 0.4215(5) 0.20827(18)
N6_2 N 0.2899(5) 0.7649(6) 0.2624(3)
C151_2 C 0.2372(7) 0.7510(12) 0.2824(8)
H109_2 H 0.2365 0.7714 0.3146
H110_2 H 0.2085 0.7089 0.2947
H111_2 H 0.2069 0.7567 0.2630
C152_2 C 0.3180(9) 0.7314(11) 0.2541(6)
H112_2 H 0.3553 0.7514 0.2403
H113_2 H 0.2970 0.6994 0.2329
H114_2 H 0.3220 0.7159 0.2846
C154_2 C 0.0972(4) 0.3101(3) 0.3049(2)
C155_2 C 0.1837(6) 0.5115(4) 0.2486(3)
H118_2 H 0.1787 0.5392 0.2371
C157_2 C 0.14382(27) 0.3036(2) 0.28956(18)
C158_2 C 0.1793(3) 0.3374(2) 0.2569(2)
H120_2 H 0.1728 0.3628 0.2424
C160_2 C 0.2252(4) 0.3353(3) 0.2445(3)
H124_2 H 0.2496 0.3600 0.2230
C161_2 C 0.2345(3) 0.2966(2) 0.2642(2)
C162_2 C 0.1975(3) 0.2606(2) 0.2974(2)
H125_2 H 0.2032 0.2343 0.3111
C163_2 C 0.1521(3) 0.2642(2) 0.3100(2)
H126_2 H 0.1275 0.2403 0.3319
C164_2 C 0.2854(3) 0.2955(2) 0.2543(3)
C165_2 C 0.3328(3) 0.3432(2) 0.2463(3)
H127_2 H 0.3325 0.3756 0.2453
C166_2 C 0.2858(3) 0.2471(2) 0.2541(2)
H128_2 H 0.2536 0.2148 0.2588
C167_2 C 0.3826(4) 0.2958(3) 0.2418(3)
H129_2 H 0.4152 0.2961 0.2395
C168_2 C 0.3820(4) 0.3437(3) 0.2398(3)
C169_2 C 0.4323(4) 0.3959(3) 0.2300(3)
C170_2 C 0.4694(4) 0.3967(3) 0.1968(2)
H130_2 H 0.4636 0.3646 0.1832
C171_2 C 0.5143(4) 0.4452(3) 0.1844(2)
H131_2 H 0.5390 0.4454 0.1628
C172_2 C 0.5229(4) 0.4931(3) 0.20372(18)
C173_2 C 0.4871(5) 0.4917(4) 0.2378(3)
H132_2 H 0.4932 0.5234 0.2523
C174_2 C 0.4427(5) 0.4432(4) 0.2499(3)
H133_2 H 0.4190 0.4428 0.2726
C175_2 C 0.5703(5) 0.5468(4) 0.1884(2)
C176_2 C 0.33317(34) 0.24590(28) 0.2471(2)
C177_2 C 0.33257(34) 0.19408(28) 0.2474(2)
C178_2 C 0.36826(33) 0.18700(27) 0.2771(2)
H134_2 H 0.3922 0.2150 0.2967
C179_2 C 0.36748(34) 0.13794(28) 0.27699(19)
H135_2 H 0.3905 0.1328 0.2969
C180_2 C 0.33235(30) 0.09653(25) 0.24707(16)
C181_2 C 0.29925(33) 0.10406(27) 0.21674(19)
H136_2 H 0.2775 0.0769 0.1955
C182_2 C 0.2983(4) 0.1517(3) 0.2177(2)
H137_2 H 0.2742 0.1556 0.1983
C183_2 C 0.33306(29) 0.04399(24) 0.24724(16)
O37_2 O 0.08935(34) 0.3444(3) 0.28569(18)
O38_2 O 0.1424(6) 0.4642(4) 0.2504(4)
O40_2 O 0.06722(27) 0.2800(2) 0.3365(2)
N8_2 N 0.2351(6) 0.5249(4) 0.2624(3)
C184_2 C 0.2490(12) 0.4861(10) 0.2824(8)
H138_2 H 0.2286 0.4650 0.3146
H139_2 H 0.2911 0.4995 0.2947
H140_2 H 0.2433 0.4501 0.2630
C185_2 C 0.2686(11) 0.5865(6) 0.2541(6)
H141_2 H 0.2486 0.6038 0.2403
H142_2 H 0.3006 0.5975 0.2329
H143_2 H 0.2841 0.6060 0.2846
O60_3 O 0.2662(4) 0.8803(3) 0.4913(2)
C133_2 C 0.9614(2) 0.7142(3) 0.2541(2)
H99_2 H 0.9613 0.7464 0.2588
C134_2 C 0.9133(2) 0.6174(4) 0.2418(3)
H100_2 H 0.8810 0.5848 0.2395
C135_2 C 0.9618(2) 0.6180(4) 0.2398(3)
C136_2 C 0.9637(2) 0.5677(4) 0.2300(3)
C137_2 C 0.9274(2) 0.5306(4) 0.1968(2)
H101_2 H 0.9011 0.5364 0.1832
C138_2 C 0.9310(2) 0.4857(4) 0.1844(2)
H102_2 H 0.9065 0.4610 0.1628
C139_2 C 0.9703(2) 0.4771(4) 0.20372(18)
C142_2 C 0.9766(3) 0.4297(5) 0.1884(2)
C143_2 C 0.91274(19) 0.66683(34) 0.2471(2)
C144_2 C 0.86152(19) 0.66743(34) 0.2474(2)
C145_2 C 0.81875(19) 0.63174(33) 0.2771(2)
H105_2 H 0.8229 0.6078 0.2967
C146_2 C 0.7705(2) 0.63252(34) 0.27699(19)
H106_2 H 0.7424 0.6095 0.2969
C147_2 C 0.76419(16) 0.66765(30) 0.24707(16)
C148_2 C 0.80482(19) 0.70075(33) 0.21674(19)
H107_2 H 0.7995 0.7225 0.1955
C149_2 C 0.8535(2) 0.7017(4) 0.2177(2)
H108_2 H 0.8815 0.7258 0.1983
C150_2 C 0.71094(16) 0.66694(29) 0.24724(16)
C156_2 C 0.8946(6) 0.1755(3) 0.3646(4)
H119_2 H 0.8771 0.1914 0.3798
C159_2 C 0.8126(11) 0.0877(5) 0.3776(6)
H121_2 H 0.7943 0.1078 0.3836
H122_2 H 0.8130 0.0696 0.4062
H123_2 H 0.7931 0.0609 0.3536
N7_2 N 0.8669(6) 0.1243(3) 0.3621(4)
O39_2 O 0.93889(23) 0.20664(15) 0.35100(17)
C186_2 C 0.8954(11) 0.0998(8) 0.3398(7)
H144_2 H 0.8780 0.0842 0.3102
H145_2 H 0.8936 0.0719 0.3599
H146_2 H 0.9326 0.1263 0.3341
C120_4 C 0.0540(6) 0.4918(7) 0.4640(4)
H83_4 H 0.0196 0.4744 0.4506
C123_4 C 0.1275(9) 0.5707(11) 0.4909(6)
H85_4 H 0.1310 0.5447 0.5097
H86_4 H 0.1275 0.5977 0.5111
H87_4 H 0.1573 0.5876 0.4693
C125_4 C 0.0583(9) 0.5786(11) 0.4475(7)
H89_4 H 0.0322 0.5638 0.4224
H90_4 H 0.0897 0.6109 0.4366
H91_4 H 0.0428 0.5873 0.4739
N4_4 N 0.0733(6) 0.5408(7) 0.4629(5)
O30_4 O 0.06583(24) 0.46042(31) 0.47683(16)
O60_4 O 0.1197(3) 0.3860(5) 0.4913(2)
O71_4 O 0.98896(18) 0.35089(22) 0.54262(11)
Ca1_3 Ca 0.36762(4) 0.03302(4) 0.69096(3)
C1_3 C 0.3565(3) 0.1204(2) 0.6383(2)
C2_3 C 0.42458(17) 0.07681(17) 0.79957(16)
C5_3 C 0.1551(4) 0.0055(4) 0.5820(3)
C7_3 C 0.4911(3) 0.0524(5) 0.6980(4)
H3_3 H 0.4752 0.0190 0.7132
C8_3 C 0.3630(2) 0.17352(18) 0.62290(18)
C9_3 C 0.47646(17) 0.12792(18) 0.78806(16)
C13_3 C 0.3292(2) 0.1752(2) 0.5903(2)
H7_3 H 0.3038 0.1433 0.5758
C14_3 C 0.47759(18) 0.16575(18) 0.75700(17)
H8_3 H 0.4463 0.1582 0.7406
C15_3 C 0.18903(18) 0.02156(18) 0.73752(17)
H9_3 H 0.2201 0.0448 0.7543
C18_3 C 0.5789(5) 0.0582(10) 0.7110(6)
H14_3 H 0.5588 0.0198 0.7170
H15_3 H 0.5970 0.0767 0.7396
H16_3 H 0.6057 0.0655 0.6870
C19_3 C 0.3313(3) 0.2232(2) 0.5779(3)
H17_3 H 0.3066 0.2229 0.5564
C20_3 C 0.52468(18) 0.21517(18) 0.74979(18)
H18_3 H 0.5248 0.2404 0.7289
C21_3 C 0.14246(18) 0.02450(18) 0.74418(18)
H19_3 H 0.1426 0.0501 0.7647
C23_3 C 0.3700(2) 0.2712(2) 0.5976(2)
C24_3 C 0.57170(16) 0.22644(16) 0.77430(16)
C27_3 C 0.4060(2) 0.2702(2) 0.6308(2)
H21_3 H 0.4323 0.3022 0.6445
C28_3 C 0.57113(17) 0.18753(17) 0.80406(17)
H22_3 H 0.6026 0.1943 0.8196
C31_3 C 0.4024(2) 0.2212(2) 0.6434(2)
H25_3 H 0.4263 0.2205 0.6653
C32_3 C 0.52374(18) 0.13854(18) 0.81085(17)
H26_3 H 0.5237 0.1127 0.8309
C35_3 C 0.3711(2) 0.3232(2) 0.5877(3)
C36_3 C 0.62083(17) 0.28154(17) 0.77130(16)
C39_3 C 0.3234(2) 0.3229(2) 0.5797(3)
H29_3 H 0.2910 0.2902 0.5787
C40_3 C 0.61513(17) 0.32712(17) 0.77112(16)
H30_3 H 0.5807 0.3231 0.7709
C41_3 C 0.05128(17) 0.04507(17) 0.72384(16)
H31_3 H 0.0856 0.0755 0.7246
C43_3 C 0.4195(2) 0.3720(2) 0.5875(2)
H33_3 H 0.4518 0.3721 0.5922
C44_3 C 0.3708(3) 0.4201(2) 0.5752(3)
H34_3 H 0.3705 0.4524 0.5729
C45_3 C 0.3229(3) 0.3716(2) 0.5732(3)
C46_3 C 0.2707(3) 0.3697(2) 0.5634(3)
C47_3 C 0.2699(3) 0.4060(2) 0.5302(2)
H35_3 H 0.3020 0.4323 0.5166
C48_3 C 0.2214(3) 0.4024(2) 0.5178(2)
H36_3 H 0.2212 0.4269 0.4962
C49_3 C 0.1735(3) 0.3631(2) 0.53706(18)
C50_3 C 0.1749(4) 0.3287(3) 0.5712(3)
H37_3 H 0.1432 0.3031 0.5857
C51_3 C 0.2234(4) 0.3328(3) 0.5833(3)
H38_3 H 0.2238 0.3095 0.6060
C52_3 C 0.1198(4) 0.3568(3) 0.5218(2)
C53_3 C 0.42076(28) 0.42060(19) 0.5805(2)
C54_3 C 0.47258(28) 0.47182(19) 0.5808(2)
C55_3 C 0.47966(27) 0.51459(19) 0.6105(2)
H39_3 H 0.4516 0.5105 0.6301
C56_3 C 0.52872(28) 0.5629(2) 0.61033(19)
H40_3 H 0.5338 0.5910 0.6303
C57_3 C 0.57013(25) 0.56915(16) 0.58041(16)
C58_3 C 0.56260(27) 0.52852(19) 0.55008(19)
H41_3 H 0.5897 0.5339 0.5289
C59_3 C 0.5149(3) 0.4799(2) 0.5511(2)
H42_3 H 0.5110 0.4519 0.5317
C60_3 C 0.62267(24) 0.62240(16) 0.58058(16)
N2_3 N 0.5423(3) 0.0759(5) 0.6955(4)
O1_3 O 0.3222(3) 0.07825(17) 0.61903(18)
O5_3 O 0.2024(4) 0.0115(4) 0.5838(4)
O7_3 O 0.46002(15) 0.06558(17) 0.68434(17)
O8_3 O 0.3866(2) 0.12052(18) 0.6699(2)
O13_3 O 0.0780(4) 0.3232(3) 0.54161(18)
O14_3 O 0.63826(18) 0.64913(13) 0.61830(11)
N3_3 N 0.1417(4) 0.0435(5) 0.5958(3)
C61_3 C 0.1805(10) 0.0962(7) 0.6158(8)
H43_3 H 0.2016 0.0969 0.6480
H44_3 H 0.1671 0.1249 0.6281
H45_3 H 0.2165 0.1265 0.5964
C62_3 C 0.0801(6) 0.0154(9) 0.5875(6)
H47_3 H 0.0691 0.0364 0.5663
H48_3 H 0.0606 0.0114 0.6180
C63_3 C 0.5668(8) 0.1289(7) 0.6732(7)
H49_3 H 0.5824 0.1271 0.6436
H50_3 H 0.5947 0.1550 0.6933
H51_3 H 0.5403 0.1396 0.6675
C64_3 C 0.92319(17) 0.34778(24) 0.79957(16)
C65_3 C 0.87208(18) 0.34855(25) 0.78806(16)
C66_3 C 0.83425(18) 0.31185(25) 0.75700(17)
H52_3 H 0.8418 0.2882 0.7406
C67_3 C 0.78483(18) 0.30952(25) 0.74979(18)
H53_3 H 0.7596 0.2845 0.7289
C68_3 C 0.77356(16) 0.34527(23) 0.77430(16)
C69_3 C 0.81247(17) 0.38361(24) 0.80406(17)
H54_3 H 0.8057 0.4084 0.8196
C70_3 C 0.86146(18) 0.38521(25) 0.81085(17)
H55_3 H 0.8873 0.4111 0.8309
C71_3 C 0.71846(17) 0.33930(24) 0.77130(16)
C72_3 C 0.67288(17) 0.28802(24) 0.77112(16)
H56_3 H 0.6769 0.2577 0.7709
C73_3 C 0.65222(24) 0.57542(17) 0.79957(16)
C74_3 C 0.65145(25) 0.52354(17) 0.78806(16)
C75_3 C 0.68815(25) 0.52241(18) 0.75700(17)
H57_3 H 0.7118 0.5537 0.7406
C76_3 C 0.69048(25) 0.47532(18) 0.74979(18)
H58_3 H 0.7155 0.4752 0.7289
C77_3 C 0.65473(23) 0.42830(16) 0.77430(16)
C78_3 C 0.61639(24) 0.42887(17) 0.80406(17)
H59_3 H 0.5916 0.3974 0.8196
C79_3 C 0.61479(25) 0.47626(18) 0.81085(17)
H60_3 H 0.5889 0.4763 0.8309
C80_3 C 0.66070(24) 0.37917(17) 0.77130(16)
C81_3 C 0.71198(24) 0.38487(17) 0.77112(16)
H61_3 H 0.7423 0.4193 0.7709
C82_3 C 0.01420(18) 0.25639(25) 0.69500(17)
C83_3 C 0.01543(18) 0.20544(25) 0.70615(16)
C86_3 C 0.01134(17) 0.10647(24) 0.71990(16)
C87_3 C 0.04997(18) 0.14516(25) 0.69053(17)
H64_3 H 0.0749 0.1384 0.6754
C88_3 C 0.05170(18) 0.19492(25) 0.68344(16)
H65_3 H 0.0774 0.2207 0.6634
C89_3 C 0.00553(17) 0.05178(24) 0.72332(16)
O20_3 O 0.03543(15) 0.28098(20) 0.65765(11)
Ca13_3 Ca 0.96698(4) 0.33461(6) 0.69096(3)
Ca16_3 Ca 0.66539(6) 0.63238(4) 0.69096(3)
C3_3 C 0.24218(18) 0.98580(18) 0.69500(17)
C4_3 C 0.3334(2) 0.91945(19) 0.74741(19)
H1_3 H 0.1274 0.9728 0.5705
C10_3 C 0.19000(17) 0.98457(18) 0.70615(16)
C11_3 C 0.3331(2) 0.86575(19) 0.74768(18)
C16_3 C 0.2935(2) 0.8218(2) 0.76905(19)
H10_3 H 0.2658 0.8245 0.7837
C22_3 C 0.2919(2) 0.77257(19) 0.7704(2)
H20_3 H 0.2643 0.7432 0.7862
C25_3 C 0.09512(17) 0.98866(17) 0.71990(16)
C26_3 C 0.3335(2) 0.76798(17) 0.74684(19)
C29_3 C 0.09518(18) 0.95003(18) 0.69053(17)
H23_3 H 0.0634 0.9251 0.6754
C30_3 C 0.3747(2) 0.81382(19) 0.7241(2)
H24_3 H 0.4027 0.8119 0.7091
C33_3 C 0.14321(17) 0.94830(18) 0.68344(16)
H27_3 H 0.1432 0.9226 0.6634
C34_3 C 0.3740(2) 0.8624(2) 0.72395(19)
H28_3 H 0.4007 0.8923 0.7081
C37_3 C 0.04624(17) 0.99447(17) 0.72332(16)
C38_3 C 0.33298(18) 0.71555(18) 0.7468(2)
C42_3 C 0.28475(19) 0.66685(19) 0.7473(2)
H32_3 H 0.2521 0.6668 0.7479
O3_3 O 0.24554(13) 0.96457(15) 0.65765(11)
O11_3 O 0.36526(16) 0.95504(14) 0.72016(13)
H46_3 H 0.0628 0.9781 0.5737
C100_3 C 0.08055(19) 0.41399(28) 0.74741(19)
C101_3 C 0.13425(19) 0.46739(28) 0.74768(18)
C102_3 C 0.1782(2) 0.4718(3) 0.76905(19)
H72_3 H 0.1755 0.4414 0.7837
C103_3 C 0.22743(19) 0.51937(28) 0.7704(2)
H73_3 H 0.2568 0.5212 0.7862
C104_3 C 0.23202(17) 0.56556(26) 0.74684(19)
C105_3 C 0.18618(19) 0.56092(28) 0.7241(2)
H74_3 H 0.1881 0.5909 0.7091
C106_3 C 0.1376(2) 0.5117(3) 0.72395(19)
H75_3 H 0.1077 0.5085 0.7081
C107_3 C 0.28445(18) 0.61744(25) 0.7468(2)
C108_3 C 0.33315(19) 0.61791(27) 0.7473(2)
H76_3 H 0.3332 0.5854 0.7479
O25_3 O 0.04496(14) 0.41023(21) 0.72016(13)
C109_3 C 0.58601(28) 0.6666(2) 0.74741(19)
C110_3 C 0.53261(28) 0.6669(2) 0.74768(18)
C111_3 C 0.5282(3) 0.7065(2) 0.76905(19)
H77_3 H 0.5586 0.7342 0.7837
C112_3 C 0.48063(28) 0.7081(2) 0.7704(2)
H78_3 H 0.4788 0.7357 0.7862
C113_3 C 0.43444(26) 0.6665(2) 0.74684(19)
C114_3 C 0.43908(28) 0.6253(2) 0.7241(2)
H79_3 H 0.4091 0.5973 0.7091
C115_3 C 0.4883(3) 0.6260(2) 0.72395(19)
H80_3 H 0.4915 0.5993 0.7081
C116_3 C 0.38256(25) 0.66702(18) 0.7468(2)
C117_3 C 0.38209(27) 0.71525(19) 0.7473(2)
H81_3 H 0.4146 0.7479 0.7479
O27_3 O 0.58977(21) 0.63474(16) 0.72016(13)
H82_3 H 0.0272 0.1547 0.5705
H112_3 H 0.0219 0.0848 0.5737
O62_3 O 0.2451(5) 0.9220(4) 0.54161(18)
O64_3 O 0.35087(13) 0.98914(22) 0.61830(11)
O65_3 O 0.01086(22) 0.36174(18) 0.61830(11)
C167_3 C 0.0492(4) 0.6292(3) 0.5752(3)
H129_3 H 0.0818 0.6295 0.5729
C168_3 C 0.0486(4) 0.6771(3) 0.5732(3)
C169_3 C 0.0989(4) 0.7293(3) 0.5634(3)
C170_3 C 0.1360(4) 0.7301(3) 0.5302(2)
H130_3 H 0.1302 0.6980 0.5166
C171_3 C 0.1809(4) 0.7786(3) 0.5178(2)
H131_3 H 0.2056 0.7788 0.4962
C172_3 C 0.1895(4) 0.8265(3) 0.53706(18)
C173_3 C 0.1537(5) 0.8251(4) 0.5712(3)
H132_3 H 0.1598 0.8568 0.5857
C174_3 C 0.1093(5) 0.7766(4) 0.5833(3)
H133_3 H 0.0856 0.7762 0.6060
C175_3 C 0.2369(5) 0.8802(4) 0.5218(2)
C178_3 C 0.03492(33) 0.52034(27) 0.6105(2)
H134_3 H 0.0588 0.5484 0.6301
C179_3 C 0.03414(34) 0.47128(28) 0.61033(19)
H135_3 H 0.0571 0.4662 0.6303
C84_3 C 0.97844(18) 0.16748(25) 0.73752(17)
H62_3 H 0.9552 0.1754 0.7543
C85_3 C 0.97550(18) 0.11797(25) 0.74418(18)
H63_3 H 0.9499 0.0926 0.7647
C90_3 C 0.95493(17) 0.00622(24) 0.72384(16)
H66_3 H 0.9245 0.0102 0.7246
C91_3 C 0.74361(25) 0.75782(18) 0.69500(17)
C92_3 C 0.79456(25) 0.81000(17) 0.70615(16)
C93_3 C 0.83252(25) 0.81097(18) 0.73752(17)
H67_3 H 0.8246 0.7799 0.7543
C94_3 C 0.88203(25) 0.85754(18) 0.74418(18)
H68_3 H 0.9074 0.8574 0.7647
C95_3 C 0.89353(24) 0.90488(17) 0.71990(16)
C96_3 C 0.85484(25) 0.90482(18) 0.69053(17)
H69_3 H 0.8616 0.9366 0.6754
C97_3 C 0.80508(25) 0.85679(17) 0.68344(16)
H70_3 H 0.7793 0.8568 0.6634
C98_3 C 0.94822(24) 0.95376(17) 0.72332(16)
C99_3 C 0.99378(24) 0.94872(17) 0.72384(16)
H71_3 H 0.9898 0.9144 0.7246
O22_3 O 0.71902(20) 0.75446(13) 0.65765(11)
C118_3 C 0.8796(2) 0.2362(4) 0.6383(2)
C119_3 C 0.9945(4) 0.1497(6) 0.5820(3)
C121_3 C 0.9476(5) 0.4388(6) 0.6980(4)
H84_3 H 0.9810 0.4563 0.7132
C122_3 C 0.82648(18) 0.18952(27) 0.62290(18)
C124_3 C 0.8248(2) 0.1541(3) 0.5903(2)
H88_3 H 0.8567 0.1606 0.5758
C126_3 C 0.9418(10) 0.5208(11) 0.7110(6)
H92_3 H 0.9802 0.5391 0.7170
H93_3 H 0.9233 0.5204 0.7396
H94_3 H 0.9345 0.5403 0.6870
C127_3 C 0.7768(2) 0.1082(4) 0.5779(3)
H95_3 H 0.7771 0.0838 0.5564
C128_3 C 0.7288(2) 0.0989(3) 0.5976(2)
C129_3 C 0.7298(2) 0.1359(3) 0.6308(2)
H96_3 H 0.6978 0.1302 0.6445
C130_3 C 0.7788(2) 0.1813(3) 0.6434(2)
H97_3 H 0.7795 0.2059 0.6653
C131_3 C 0.6768(2) 0.0480(3) 0.5877(3)
C132_3 C 0.6771(2) 0.0006(3) 0.5797(3)
H98_3 H 0.7098 0.0009 0.5787
C133_3 C 0.6280(2) 0.0476(3) 0.5875(2)
H99_3 H 0.6279 0.0798 0.5922
C143_3 C 0.57940(19) 0.00017(34) 0.5805(2)
C144_3 C 0.52818(19) 0.00077(34) 0.5808(2)
C147_3 C 0.43085(16) 0.00099(30) 0.58041(16)
C148_3 C 0.47148(19) 0.03409(33) 0.55008(19)
H107_3 H 0.4661 0.0559 0.5289
C149_3 C 0.5201(2) 0.0351(4) 0.5511(2)
H108_3 H 0.5481 0.0592 0.5317
C150_3 C 0.37760(16) 0.00028(29) 0.58058(16)
N5_3 N 0.9241(5) 0.4665(6) 0.6955(4)
O28_3 O 0.92175(17) 0.24399(34) 0.61903(18)
O29_3 O 0.9885(4) 0.1910(6) 0.5838(4)
O31_3 O 0.93442(17) 0.39445(23) 0.68434(17)
O32_3 O 0.87948(18) 0.26612(27) 0.6699(2)
N6_3 N 0.9565(5) 0.0983(6) 0.5958(3)
C151_3 C 0.9038(7) 0.0844(12) 0.6158(8)
H109_3 H 0.9031 0.1048 0.6480
H110_3 H 0.8751 0.0423 0.6281
H111_3 H 0.8735 0.0901 0.5964
C152_3 C 0.9846(9) 0.0648(11) 0.5875(6)
H113_3 H 0.9636 0.0328 0.5663
H114_3 H 0.9886 0.0493 0.6180
C153_3 C 0.8711(7) 0.4380(11) 0.6732(7)
H115_3 H 0.8729 0.4554 0.6436
H116_3 H 0.8450 0.4398 0.6933
H117_3 H 0.8604 0.4008 0.6675
C134_3 C 0.5799(2) 0.9508(4) 0.5752(3)
H100_3 H 0.5476 0.9182 0.5729
C135_3 C 0.6284(2) 0.9514(4) 0.5732(3)
C136_3 C 0.6303(2) 0.9011(4) 0.5634(3)
C137_3 C 0.5940(2) 0.8640(4) 0.5302(2)
H101_3 H 0.5677 0.8698 0.5166
C138_3 C 0.5976(2) 0.8191(4) 0.5178(2)
H102_3 H 0.5731 0.7944 0.4962
C139_3 C 0.6369(2) 0.8105(4) 0.53706(18)
C140_3 C 0.6713(3) 0.8463(5) 0.5712(3)
H103_3 H 0.6969 0.8402 0.5857
C141_3 C 0.6672(3) 0.8907(5) 0.5833(3)
H104_3 H 0.6905 0.9144 0.6060
C142_3 C 0.6432(3) 0.7631(5) 0.5218(2)
C145_3 C 0.48541(19) 0.96508(33) 0.6105(2)
H105_3 H 0.4895 0.9412 0.6301
C146_3 C 0.4371(2) 0.96586(34) 0.61033(19)
H106_3 H 0.4090 0.9429 0.6303
O34_3 O 0.6768(3) 0.7549(5) 0.54161(18)
C154_3 C 0.7638(4) 0.6435(3) 0.6383(2)
C155_3 C 0.8503(6) 0.8449(4) 0.5820(3)
H118_3 H 0.8453 0.8726 0.5705
C156_3 C 0.5612(6) 0.5089(3) 0.6980(4)
H119_3 H 0.5437 0.5248 0.7132
C157_3 C 0.81048(27) 0.6370(2) 0.62290(18)
C158_3 C 0.8459(3) 0.6708(2) 0.5903(2)
H120_3 H 0.8394 0.6962 0.5758
C159_3 C 0.4792(11) 0.4211(5) 0.7110(6)
H121_3 H 0.4609 0.4412 0.7170
H122_3 H 0.4796 0.4030 0.7396
H123_3 H 0.4597 0.3943 0.6870
C160_3 C 0.8918(4) 0.6687(3) 0.5779(3)
H124_3 H 0.9162 0.6934 0.5564
C161_3 C 0.9011(3) 0.6300(2) 0.5976(2)
C162_3 C 0.8641(3) 0.5940(2) 0.6308(2)
H125_3 H 0.8698 0.5677 0.6445
C163_3 C 0.8187(3) 0.5976(2) 0.6434(2)
H126_3 H 0.7941 0.5737 0.6653
C164_3 C 0.9520(3) 0.6289(2) 0.5877(3)
C165_3 C 0.9994(3) 0.6766(2) 0.5797(3)
H127_3 H 0.9991 0.7090 0.5787
C166_3 C 0.9524(3) 0.5805(2) 0.5875(2)
H128_3 H 0.9202 0.5482 0.5922
C176_3 C 0.99983(34) 0.57924(28) 0.5805(2)
C177_3 C 0.99923(34) 0.52742(28) 0.5808(2)
C180_3 C 0.99901(30) 0.42987(25) 0.58041(16)
C181_3 C 0.96591(33) 0.43740(27) 0.55008(19)
H136_3 H 0.9441 0.4103 0.5289
C182_3 C 0.9649(4) 0.4851(3) 0.5511(2)
H137_3 H 0.9408 0.4890 0.5317
C183_3 C 0.99972(29) 0.37733(24) 0.58058(16)
N7_3 N 0.5335(6) 0.4577(3) 0.6955(4)
O37_3 O 0.75601(34) 0.6778(3) 0.61903(18)
O38_3 O 0.8090(6) 0.7976(4) 0.5838(4)
O39_3 O 0.60555(23) 0.53998(15) 0.68434(17)
O40_3 O 0.73388(27) 0.6134(2) 0.6699(2)
N8_3 N 0.9017(6) 0.8583(4) 0.5958(3)
C184_3 C 0.9156(12) 0.8195(10) 0.6158(8)
H138_3 H 0.8952 0.7984 0.6480
H139_3 H 0.9577 0.8329 0.6281
H140_3 H 0.9099 0.7835 0.5964
C185_3 C 0.9352(11) 0.9199(6) 0.5875(6)
H141_3 H 0.9152 0.9372 0.5737
H142_3 H 0.9672 0.9309 0.5663
H143_3 H 0.9507 0.9394 0.6180
C186_3 C 0.5620(11) 0.4332(8) 0.6732(7)
H144_3 H 0.5446 0.4176 0.6436
H145_3 H 0.5602 0.4053 0.6933
H146_3 H 0.5992 0.4597 0.6675
loop_
_geom_bond_atom_site_label_1
_geom_bond_atom_site_label_2
_geom_bond_site_symmetry_1
_geom_bond_site_symmetry_2
Ca1 O2 1_555 1_555
C2 C9 1_555 1_555
C7 H3 1_555 1_555
C9 C14 1_555 1_555
C14 H8 1_555 1_555
C18 H14 1_555 1_555
H15 C18 1_555 1_555
H16 C18 1_555 1_555
C20 C14 1_555 1_555
H18 C20 1_555 1_555
C24 C20 1_555 1_555
C28 C24 1_555 1_555
H22 C28 1_555 1_555
C30 C26 1_555 1_555
H24 C30 1_555 1_555
C32 C9 1_555 1_555
H26 C32 1_555 1_555
H28 C34 1_555 1_555
C36 C24 1_555 1_555
C40 C36 1_555 1_555
H30 C40 1_555 1_555
N2 C7 1_555 1_555
O2 C2 1_555 1_555
O7 Ca1 1_555 1_555
O8 Ca1 1_555 1_555
O9 C2 1_555 1_555
O11 Ca1 1_555 1_555
C63 N2 1_555 1_555
H50 C63 1_555 1_555
H51 C63 1_555 1_555
C64 C65 1_555 1_555
C65 C66 1_555 1_555
C66 H52 1_555 1_555
C67 C66 1_555 1_555
H53 C67 1_555 1_555
C68 C67 1_555 1_555
C69 C68 1_555 1_555
H54 C69 1_555 1_555
C70 C65 1_555 1_555
H55 C70 1_555 1_555
C71 C68 1_555 1_555
C72 C36 1_555 1_555
H56 C72 1_555 1_555
O16 C64 1_555 1_555
O17 C64 1_555 1_555
C73 C74 1_555 1_555
C74 C75 1_555 1_555
C75 H57 1_555 1_555
C76 C75 1_555 1_555
H58 C76 1_555 1_555
C77 C76 1_555 1_555
C78 C77 1_555 1_555
H59 C78 1_555 1_555
C79 C74 1_555 1_555
H60 C79 1_555 1_555
C80 C40 1_555 1_555
C81 C71 1_555 1_555
H61 C81 1_555 1_555
O18 C73 1_555 1_555
O19 C73 1_555 1_555
C110 C111 1_555 1_555
C111 H77 1_555 1_555
C112 C111 1_555 1_555
H78 C112 1_555 1_555
H81 C117 1_555 1_555
Ca13 O16 1_555 1_555
Ca18 O16 1_555 1_555
Ca21 O26 1_555 1_555
Ca33 O17 1_555 1_555
Ca34 O19 1_555 1_555
Ca35 O9 1_555 1_555
C4 O11 1_555 1_555
C7 O7 1_555 1_555
C18 N2 1_555 1_555
C28 C32 1_555 1_555
C30 C34 1_555 1_555
C69 C70 1_555 1_555
C71 C72 1_555 1_555
C77 C80 1_555 1_555
C78 C79 1_555 1_555
C80 C81 1_555 1_555
O18 Ca16 1_555 1_555
C116 C117 1_555 1_555
C1 C8 1_555 1_555
C27 C23 1_555 1_555
H21 C27 1_555 1_555
C31 C8 1_555 1_555
H25 C31 1_555 1_555
C35 C23 1_555 1_555
C43 C35 1_555 1_555
H33 C43 1_555 1_555
C44 H34 1_555 1_555
C53 C43 1_555 1_555
C54 C53 1_555 1_555
C55 C54 1_555 1_555
H39 C55 1_555 1_555
C56 C55 1_555 1_555
H40 C56 1_555 1_555
C57 C56 1_555 1_555
C58 C57 1_555 1_555
H41 C58 1_555 1_555
C59 C54 1_555 1_555
H42 C59 1_555 1_555
C60 C57 1_555 1_555
O14 C60 1_555 1_555
O15 C60 1_555 1_555
Ca23 O15 1_555 1_555
C27 C31 1_555 1_555
C44 C53 1_555 1_555
C58 C59 1_555 1_555
C114 C113 1_555 1_555
H79 C114 1_555 1_555
H80 C115 1_555 1_555
O27 C109 1_555 1_555
Ca16 O27 1_555 1_555
C114 C115 1_555 1_555
C3 C10 1_555 1_555
C6 H2 1_555 1_555
C10 C15 1_555 1_555
C11 C16 1_555 1_555
C12 H4 1_555 1_555
H5 C12 1_555 1_555
H6 C12 1_555 1_555
C15 H9 1_555 1_555
C16 H10 1_555 1_555
C17 H11 1_555 1_555
H12 C17 1_555 1_555
H13 C17 1_555 1_555
C21 C15 1_555 1_555
H19 C21 1_555 1_555
C22 C16 1_555 1_555
H20 C22 1_555 1_555
C25 C21 1_555 1_555
C29 C25 1_555 1_555
H23 C29 1_555 1_555
C33 C10 1_555 1_555
C37 C25 1_555 1_555
C41 C37 1_555 1_555
H31 C41 1_555 1_555
C42 C38 1_555 1_555
H32 C42 1_555 1_555
N1 C6 1_555 1_555
O4 Ca2 1_555 1_555
O6 Ca2 1_555 1_555
C82 C83 1_555 1_555
C83 C84 1_555 1_555
C84 H62 1_555 1_555
C85 C84 1_555 1_555
H63 C85 1_555 1_555
C86 C85 1_555 1_555
C87 C86 1_555 1_555
H64 C87 1_555 1_555
C88 C83 1_555 1_555
C89 C41 1_555 1_555
C90 C89 1_555 1_555
H66 C90 1_555 1_555
O21 C82 1_555 1_555
C91 C92 1_555 1_555
C92 C93 1_555 1_555
C93 H67 1_555 1_555
C94 C93 1_555 1_555
H68 C94 1_555 1_555
C95 C94 1_555 1_555
C96 C95 1_555 1_555
H69 C96 1_555 1_555
C97 C92 1_555 1_555
C98 C90 1_555 1_555
C99 C37 1_555 1_555
H71 C99 1_555 1_555
O23 C91 1_555 1_555
Ca13 O21 1_555 1_555
Ca18 O21 1_555 1_555
Ca21 O23 1_555 1_555
O59 Ca2 1_555 1_555
O70 Ca2 1_555 1_555
Ca2 O10 1_555 1_555
C3 O10 1_555 1_555
C6 O6 1_555 1_555
C12 N1 1_555 1_555
C17 N1 1_555 1_555
C29 C33 1_555 1_555
C86 C89 1_555 1_555
C87 C88 1_555 1_555
C95 C98 1_555 1_555
C96 C97 1_555 1_555
C98 C99 1_555 1_555
Ca3 O1 1_555 1_555
C5 H1 1_555 1_555
C13 H7 1_555 1_555
C19 C13 1_555 1_555
H17 C19 1_555 1_555
H29 C39 1_555 1_555
C45 C39 1_555 1_555
C46 C45 1_555 1_555
C47 C46 1_555 1_555
H35 C47 1_555 1_555
C48 C47 1_555 1_555
H36 C48 1_555 1_555
C49 C48 1_555 1_555
C50 C49 1_555 1_555
H37 C50 1_555 1_555
C51 C46 1_555 1_555
H38 C51 1_555 1_555
C52 C49 1_555 1_555
O3 Ca3 1_555 1_555
O5 Ca3 1_555 1_555
O12 C52 1_555 1_555
O13 C52 1_555 1_555
N3 C5 1_555 1_555
C61 N3 1_555 1_555
H43 C61 1_555 1_555
H44 C61 1_555 1_555
H45 C61 1_555 1_555
C62 N3 1_555 1_555
H46 C62 1_555 1_555
H47 C62 1_555 1_555
H48 C62 1_555 1_555
Ca9 O12 1_555 1_555
C187 H147 1_555 1_555
C188 H148 1_555 1_555
H149 C188 1_555 1_555
H150 C188 1_555 1_555
C189 H151 1_555 1_555
H152 C189 1_555 1_555
H153 C189 1_555 1_555
N9 C187 1_555 1_555
O45 Ca9 1_555 1_555
Ca30 O13 1_555 1_555
Ca32 O22 1_555 1_555
O48 Ca9 1_555 1_555
O51 Ca9 1_555 1_555
O53 Ca3 1_555 1_555
O57 Ca9 1_555 1_555
O62 Ca3 1_555 1_555
O69 Ca9 1_555 1_555
C5 O5 1_555 1_555
C50 C51 1_555 1_555
O20 Ca30 1_555 1_555
C187 O45 1_555 1_555
C188 N9 1_555 1_555
C189 N9 1_555 1_555
Ca30 O69 1_555 1_555
C100 C101 1_555 1_555
C101 C102 1_555 1_555
C102 H72 1_555 1_555
C103 C102 1_555 1_555
H73 C103 1_555 1_555
C104 C103 1_555 1_555
C105 C104 1_555 1_555
H74 C105 1_555 1_555
C106 C101 1_555 1_555
H75 C106 1_555 1_555
C108 C107 1_555 1_555
H76 C108 1_555 1_555
O24 C100 1_555 1_555
O25 C100 1_555 1_555
Ca13 O25 1_555 1_555
Ca18 O24 1_555 1_555
C120 H83 1_555 1_555
C121 H84 1_555 1_555
C123 H85 1_555 1_555
H86 C123 1_555 1_555
H87 C123 1_555 1_555
C125 H89 1_555 1_555
H90 C125 1_555 1_555
H91 C125 1_555 1_555
C126 H92 1_555 1_555
H93 C126 1_555 1_555
H94 C126 1_555 1_555
N4 C120 1_555 1_555
N5 C121 1_555 1_555
O30 Ca18 1_555 1_555
O31 Ca13 1_555 1_555
O32 Ca13 1_555 1_555
C153 N5 1_555 1_555
H116 C153 1_555 1_555
H117 C153 1_555 1_555
O60 Ca18 1_555 1_555
O71 Ca18 1_555 1_555
C104 C107 1_555 1_555
C105 C106 1_555 1_555
C120 O30 1_555 1_555
C121 O31 1_555 1_555
C123 N4 1_555 1_555
C125 N4 1_555 1_555
C126 N5 1_555 1_555
Ca30 O28 1_555 1_555
C118 C122 1_555 1_555
C119 H82 1_555 1_555
C122 C124 1_555 1_555
C124 H88 1_555 1_555
C127 C124 1_555 1_555
H95 C127 1_555 1_555
C128 C127 1_555 1_555
C129 C128 1_555 1_555
H96 C129 1_555 1_555
C130 C122 1_555 1_555
H97 C130 1_555 1_555
C131 C128 1_555 1_555
C132 C131 1_555 1_555
H98 C132 1_555 1_555
C133 C131 1_555 1_555
H99 C133 1_555 1_555
C134 H100 1_555 1_555
C135 C132 1_555 1_555
C136 C135 1_555 1_555
C137 C136 1_555 1_555
H101 C137 1_555 1_555
C138 C137 1_555 1_555
H102 C138 1_555 1_555
C139 C138 1_555 1_555
C140 C139 1_555 1_555
H103 C140 1_555 1_555
C141 C136 1_555 1_555
H104 C141 1_555 1_555
C142 C139 1_555 1_555
C143 C133 1_555 1_555
C144 C143 1_555 1_555
C145 C144 1_555 1_555
H105 C145 1_555 1_555
C146 C145 1_555 1_555
H106 C146 1_555 1_555
C147 C146 1_555 1_555
C148 C147 1_555 1_555
H107 C148 1_555 1_555
C149 C144 1_555 1_555
H108 C149 1_555 1_555
C150 C147 1_555 1_555
O28 C118 1_555 1_555
O29 Ca30 1_555 1_555
O33 C142 1_555 1_555
O34 C142 1_555 1_555
O64 C150 1_555 1_555
O67 C150 1_555 1_555
N6 C119 1_555 1_555
C151 N6 1_555 1_555
H109 C151 1_555 1_555
H110 C151 1_555 1_555
H111 C151 1_555 1_555
C152 N6 1_555 1_555
H112 C152 1_555 1_555
H113 C152 1_555 1_555
H114 C152 1_555 1_555
Ca32 O34 1_555 1_555
C155 H118 1_555 1_555
C158 H120 1_555 1_555
C160 C158 1_555 1_555
H124 C160 1_555 1_555
H127 C165 1_555 1_555
C168 C165 1_555 1_555
C169 C168 1_555 1_555
C170 C169 1_555 1_555
H130 C170 1_555 1_555
C171 C170 1_555 1_555
H131 C171 1_555 1_555
C172 C171 1_555 1_555
C173 C172 1_555 1_555
H132 C173 1_555 1_555
C174 C169 1_555 1_555
H133 C174 1_555 1_555
C175 C172 1_555 1_555
O37 Ca32 1_555 1_555
O38 Ca32 1_555 1_555
O41 C175 1_555 1_555
O62 C175 1_555 1_555
N8 C155 1_555 1_555
C184 N8 1_555 1_555
H138 C184 1_555 1_555
H139 C184 1_555 1_555
H140 C184 1_555 1_555
C185 N8 1_555 1_555
H141 C185 1_555 1_555
H142 C185 1_555 1_555
H143 C185 1_555 1_555
Ca25 O67 1_555 1_555
O52 Ca32 1_555 1_555
O54 Ca30 1_555 1_555
Ca30 O65 1_555 1_555
C119 O29 1_555 1_555
C129 C130 1_555 1_555
C134 C135 1_555 1_555
C134 C143 1_555 1_555
C140 C141 1_555 1_555
C148 C149 1_555 1_555
C155 O38 1_555 1_555
C173 C174 1_555 1_555
Ca16 O39 1_555 1_555
C156 H119 1_555 1_555
C159 H121 1_555 1_555
H122 C159 1_555 1_555
H123 C159 1_555 1_555
N7 C156 1_555 1_555
O39 C156 1_555 1_555
O40 Ca16 1_555 1_555
C186 N7 1_555 1_555
H145 C186 1_555 1_555
H146 C186 1_555 1_555
C159 N7 1_555 1_555
C154 C157 1_555 1_555
C162 C161 1_555 1_555
H125 C162 1_555 1_555
C163 C157 1_555 1_555
H126 C163 1_555 1_555
C164 C161 1_555 1_555
C166 C164 1_555 1_555
H128 C166 1_555 1_555
C167 H129 1_555 1_555
C176 C166 1_555 1_555
C177 C176 1_555 1_555
C178 C177 1_555 1_555
H134 C178 1_555 1_555
C179 C178 1_555 1_555
H135 C179 1_555 1_555
C180 C179 1_555 1_555
C181 C180 1_555 1_555
H136 C181 1_555 1_555
C182 C177 1_555 1_555
H137 C182 1_555 1_555
C183 C180 1_555 1_555
O65 C183 1_555 1_555
O69 C183 1_555 1_555
C162 C163 1_555 1_555
C167 C176 1_555 1_555
C181 C182 1_555 1_555
C120_2 H83_2 1_555 1_555
C123_2 H85_2 1_555 1_555
H86_2 C123_2 1_555 1_555
H87_2 C123_2 1_555 1_555
C125_2 H89_2 1_555 1_555
H90_2 C125_2 1_555 1_555
H91_2 C125_2 1_555 1_555
N4_2 C120_2 1_555 1_555
O30_2 Ca21 1_555 1_555
O60_2 Ca21 1_555 1_555
O71_2 Ca21 1_555 1_555
C120_2 O30_2 1_555 1_555
C123_2 N4_2 1_555 1_555
C125_2 N4_2 1_555 1_555
Ca33 O71 1_555 1_555
C187_2 H147_2 1_555 1_555
C188_2 H148_2 1_555 1_555
H149_2 C188_2 1_555 1_555
H150_2 C188_2 1_555 1_555
C189_2 H151_2 1_555 1_555
H152_2 C189_2 1_555 1_555
H153_2 C189_2 1_555 1_555
N9_2 C187_2 1_555 1_555
O45_2 Ca23 1_555 1_555
O51_2 Ca23 1_555 1_555
C187_2 O45_2 1_555 1_555
C188_2 N9_2 1_555 1_555
C189_2 N9_2 1_555 1_555
C187_3 H147_3 1_555 1_555
C188_3 H148_3 1_555 1_555
H149_3 C188_3 1_555 1_555
H150_3 C188_3 1_555 1_555
C189_3 H151_3 1_555 1_555
H152_3 C189_3 1_555 1_555
H153_3 C189_3 1_555 1_555
N9_3 C187_3 1_555 1_555
O45_3 Ca25 1_555 1_555
O51_3 Ca25 1_555 1_555
C187_3 O45_3 1_555 1_555
C188_3 N9_3 1_555 1_555
C189_3 N9_3 1_555 1_555
C64_2 C65_2 1_555 1_555
C69_2 C68_2 1_555 1_555
H54_2 C69_2 1_555 1_555
C70_2 C65_2 1_555 1_555
H55_2 C70_2 1_555 1_555
C71_2 C68_2 1_555 1_555
O17_2 C64_2 1_555 1_555
C75_2 H57_2 1_555 1_555
C76_2 C75_2 1_555 1_555
H58_2 C76_2 1_555 1_555
C81_2 C71_2 1_555 1_555
H61_2 C81_2 1_555 1_555
Ca21_2 O18_2 1_555 1_555
Ca33_2 O17_2 1_555 1_555
C69_2 C70_2 1_555 1_555
C66_2 H52_2 1_555 1_555
C67_2 C66_2 1_555 1_555
H53_2 C67_2 1_555 1_555
H56_2 C72_2 1_555 1_555
Ca18_2 O16_2 1_555 1_555
H33_2 C43_2 1_555 1_555
C44_2 H34_2 1_555 1_555
C46_2 C45_2 1_555 1_555
C47_2 C46_2 1_555 1_555
H35_2 C47_2 1_555 1_555
C48_2 C47_2 1_555 1_555
H36_2 C48_2 1_555 1_555
C49_2 C48_2 1_555 1_555
C52_2 C49_2 1_555 1_555
C53_2 C43_2 1_555 1_555
C54_2 C53_2 1_555 1_555
C55_2 C54_2 1_555 1_555
H39_2 C55_2 1_555 1_555
C56_2 C55_2 1_555 1_555
H40_2 C56_2 1_555 1_555
C57_2 C56_2 1_555 1_555
C58_2 C57_2 1_555 1_555
H41_2 C58_2 1_555 1_555
C59_2 C54_2 1_555 1_555
H42_2 C59_2 1_555 1_555
C60_2 C57_2 1_555 1_555
O60_2 C52_2 1_555 1_555
O14_2 C60_2 1_555 1_555
O70 C60_2 1_555 1_555
C73_2 C74_2 1_555 1_555
C78_2 C77_2 1_555 1_555
H59_2 C78_2 1_555 1_555
C79_2 C74_2 1_555 1_555
H60_2 C79_2 1_555 1_555
O19_2 C73_2 1_555 1_555
Ca16_2 O14_2 1_555 1_555
Ca34_2 O19_2 1_555 1_555
C44_2 C45_2 1_555 1_555
C44_2 C53_2 1_555 1_555
C58_2 C59_2 1_555 1_555
C77_2 C80_2 1_555 1_555
C78_2 C79_2 1_555 1_555
Ca1_2 O2_2 1_555 1_555
Ca2_2 O2_2 1_555 1_555
Ca33 O1_2 1_555 1_555
C1_2 C8_2 1_555 1_555
C2_2 C9_2 1_555 1_555
C3_2 C10_2 1_555 1_555
C4_2 C11_2 1_555 1_555
C5_2 H1_2 1_555 1_555
C6_2 H2_2 1_555 1_555
C7_2 H3_2 1_555 1_555
C8_2 C13_2 1_555 1_555
C9_2 C14_2 1_555 1_555
C10_2 C15_2 1_555 1_555
C11_2 C16_2 1_555 1_555
C12_2 H4_2 1_555 1_555
H5_2 C12_2 1_555 1_555
H6_2 C12_2 1_555 1_555
C13_2 H7_2 1_555 1_555
C14_2 H8_2 1_555 1_555
C15_2 H9_2 1_555 1_555
C16_2 H10_2 1_555 1_555
C17_2 H11_2 1_555 1_555
H12_2 C17_2 1_555 1_555
H13_2 C17_2 1_555 1_555
C18_2 H14_2 1_555 1_555
H15_2 C18_2 1_555 1_555
H16_2 C18_2 1_555 1_555
C19_2 C13_2 1_555 1_555
H17_2 C19_2 1_555 1_555
C20_2 C14_2 1_555 1_555
H18_2 C20_2 1_555 1_555
C21_2 C15_2 1_555 1_555
H19_2 C21_2 1_555 1_555
C22_2 C16_2 1_555 1_555
H20_2 C22_2 1_555 1_555
C23_2 C19_2 1_555 1_555
C24_2 C20_2 1_555 1_555
C25_2 C21_2 1_555 1_555
C26_2 C22_2 1_555 1_555
C27_2 C23_2 1_555 1_555
H21_2 C27_2 1_555 1_555
C28_2 C24_2 1_555 1_555
H22_2 C28_2 1_555 1_555
C29_2 C25_2 1_555 1_555
H23_2 C29_2 1_555 1_555
C30_2 C26_2 1_555 1_555
H24_2 C30_2 1_555 1_555
C31_2 C8_2 1_555 1_555
H25_2 C31_2 1_555 1_555
C32_2 C9_2 1_555 1_555
H26_2 C32_2 1_555 1_555
C33_2 C10_2 1_555 1_555
H27_2 C33_2 1_555 1_555
C34_2 C11_2 1_555 1_555
H28_2 C34_2 1_555 1_555
C35_2 C23_2 1_555 1_555
C36_2 C24_2 1_555 1_555
C37_2 C25_2 1_555 1_555
C38_2 C26_2 1_555 1_555
C39_2 C35_2 1_555 1_555
H29_2 C39_2 1_555 1_555
C40_2 C36_2 1_555 1_555
H30_2 C40_2 1_555 1_555
C41_2 C37_2 1_555 1_555
H31_2 C41_2 1_555 1_555
C42_2 C38_2 1_555 1_555
H32_2 C42_2 1_555 1_555
H37_2 C50_2 1_555 1_555
H38_2 C51_2 1_555 1_555
N1_2 C6_2 1_555 1_555
N2_2 C7_2 1_555 1_555
O1_2 C1_2 1_555 1_555
O2_2 C2_2 1_555 1_555
O3_2 Ca33 1_555 1_555
O4_2 Ca2_2 1_555 1_555
O5_2 Ca33 1_555 1_555
O6_2 Ca2_2 1_555 1_555
O7_2 Ca1_2 1_555 1_555
O8_2 Ca1_2 1_555 1_555
O9_2 C2_2 1_555 1_555
O10_2 Ca1_2 1_555 1_555
O11_2 Ca1_2 1_555 1_555
N3_2 C5_2 1_555 1_555
C61_2 N3_2 1_555 1_555
H43_2 C61_2 1_555 1_555
H44_2 C61_2 1_555 1_555
H45_2 C61_2 1_555 1_555
C62_2 N3_2 1_555 1_555
H46_2 C62_2 1_555 1_555
H47_2 C62_2 1_555 1_555
H48_2 C62_2 1_555 1_555
C63_2 N2_2 1_555 1_555
H49_2 C63_2 1_555 1_555
H50_2 C63_2 1_555 1_555
H51_2 C63_2 1_555 1_555
C82_2 C83_2 1_555 1_555
C83_2 C84_2 1_555 1_555
C84_2 H62_2 1_555 1_555
C85_2 C84_2 1_555 1_555
H63_2 C85_2 1_555 1_555
C86_2 C85_2 1_555 1_555
C87_2 C86_2 1_555 1_555
H64_2 C87_2 1_555 1_555
C88_2 C83_2 1_555 1_555
H65_2 C88_2 1_555 1_555
C89_2 C41_2 1_555 1_555
C90_2 C89_2 1_555 1_555
H66_2 C90_2 1_555 1_555
O20_2 C82_2 1_555 1_555
O21_2 C82_2 1_555 1_555
C91_2 C92_2 1_555 1_555
C92_2 C93_2 1_555 1_555
C93_2 H67_2 1_555 1_555
C94_2 C93_2 1_555 1_555
H68_2 C94_2 1_555 1_555
C95_2 C94_2 1_555 1_555
C96_2 C95_2 1_555 1_555
H69_2 C96_2 1_555 1_555
C97_2 C92_2 1_555 1_555
H70_2 C97_2 1_555 1_555
C98_2 C90_2 1_555 1_555
C99_2 C37_2 1_555 1_555
H71_2 C99_2 1_555 1_555
O22_2 C91_2 1_555 1_555
O23_2 C91_2 1_555 1_555
C100_2 C101_2 1_555 1_555
C101_2 C102_2 1_555 1_555
C102_2 H72_2 1_555 1_555
C103_2 C102_2 1_555 1_555
H73_2 C103_2 1_555 1_555
C104_2 C103_2 1_555 1_555
C105_2 C104_2 1_555 1_555
H74_2 C105_2 1_555 1_555
C106_2 C101_2 1_555 1_555
H75_2 C106_2 1_555 1_555
C107_2 C42_2 1_555 1_555
C108_2 C107_2 1_555 1_555
H76_2 C108_2 1_555 1_555
O24_2 C100_2 1_555 1_555
O25_2 C100_2 1_555 1_555
C109_2 C110_2 1_555 1_555
C110_2 C111_2 1_555 1_555
C111_2 H77_2 1_555 1_555
C112_2 C111_2 1_555 1_555
H78_2 C112_2 1_555 1_555
C113_2 C112_2 1_555 1_555
C114_2 C113_2 1_555 1_555
H79_2 C114_2 1_555 1_555
C115_2 C110_2 1_555 1_555
H80_2 C115_2 1_555 1_555
C116_2 C108_2 1_555 1_555
C117_2 C38_2 1_555 1_555
H81_2 C117_2 1_555 1_555
O26_2 C109_2 1_555 1_555
O27_2 C109_2 1_555 1_555
Ca13_2 O25_2 1_555 1_555
C121_2 H84_2 1_555 1_555
C126_2 H92_2 1_555 1_555
H93_2 C126_2 1_555 1_555
H94_2 C126_2 1_555 1_555
N5_2 C121_2 1_555 1_555
O31_2 Ca13_2 1_555 1_555
C153_2 N5_2 1_555 1_555
H115_2 C153_2 1_555 1_555
H116_2 C153_2 1_555 1_555
H117_2 C153_2 1_555 1_555
Ca16_2 O27_2 1_555 1_555
Ca18_2 O21_2 1_555 1_555
Ca21_2 O23_2 1_555 1_555
Ca34 O13_2 1_555 1_555
Ca35 O22_2 1_555 1_555
Ca35_2 O9_2 1_555 1_555
O59_2 Ca2_2 1_555 1_555
O62_2 Ca33 1_555 1_555
O64_2 Ca1_2 1_555 1_555
O65_2 Ca13_2 1_555 1_555
O70_2 Ca2_2 1_555 1_555
Ca2_2 O10_2 1_555 1_555
Ca33 O64_2 1_555 1_555
C1_2 O8_2 1_555 1_555
C3_2 O3_2 1_555 1_555
C3_2 O10_2 1_555 1_555
C4_2 O4_2 1_555 1_555
C4_2 O11_2 1_555 1_555
C5_2 O5_2 1_555 1_555
C6_2 O6_2 1_555 1_555
C7_2 O7_2 1_555 1_555
C12_2 N1_2 1_555 1_555
C17_2 N1_2 1_555 1_555
C18_2 N2_2 1_555 1_555
C27_2 C31_2 1_555 1_555
C28_2 C32_2 1_555 1_555
C29_2 C33_2 1_555 1_555
C30_2 C34_2 1_555 1_555
C50_2 C51_2 1_555 1_555
C86_2 C89_2 1_555 1_555
C87_2 C88_2 1_555 1_555
O20_2 Ca34 1_555 1_555
C95_2 C98_2 1_555 1_555
C96_2 C97_2 1_555 1_555
C98_2 C99_2 1_555 1_555
C104_2 C107_2 1_555 1_555
C105_2 C106_2 1_555 1_555
C113_2 C116_2 1_555 1_555
C114_2 C115_2 1_555 1_555
C116_2 C117_2 1_555 1_555
C121_2 O31_2 1_555 1_555
C126_2 N5_2 1_555 1_555
Ca35_2 O70_2 1_555 1_555
Ca34 O28_2 1_555 1_555
C118_2 C122_2 1_555 1_555
C119_2 H82_2 1_555 1_555
C120_3 H83_3 1_555 1_555
C122_2 C124_2 1_555 1_555
C123_3 H85_3 1_555 1_555
H86_3 C123_3 1_555 1_555
H87_3 C123_3 1_555 1_555
C124_2 H88_2 1_555 1_555
C125_3 H89_3 1_555 1_555
H90_3 C125_3 1_555 1_555
H91_3 C125_3 1_555 1_555
C127_2 C124_2 1_555 1_555
H95_2 C127_2 1_555 1_555
C128_2 C127_2 1_555 1_555
C129_2 C128_2 1_555 1_555
H96_2 C129_2 1_555 1_555
C130_2 C122_2 1_555 1_555
H97_2 C130_2 1_555 1_555
C131_2 C128_2 1_555 1_555
C132_2 C131_2 1_555 1_555
H98_2 C132_2 1_555 1_555
H103_2 C140_2 1_555 1_555
H104_2 C141_2 1_555 1_555
N4_3 C120_3 1_555 1_555
O28_2 C118_2 1_555 1_555
O29_2 Ca34 1_555 1_555
O30_3 Ca18_2 1_555 1_555
N6_2 C119_2 1_555 1_555
C151_2 N6_2 1_555 1_555
H109_2 C151_2 1_555 1_555
H110_2 C151_2 1_555 1_555
H111_2 C151_2 1_555 1_555
C152_2 N6_2 1_555 1_555
H112_2 C152_2 1_555 1_555
H113_2 C152_2 1_555 1_555
H114_2 C152_2 1_555 1_555
Ca35 O34_2 1_555 1_555
C154_2 C157_2 1_555 1_555
C155_2 H118_2 1_555 1_555
C157_2 C158_2 1_555 1_555
C158_2 H120_2 1_555 1_555
C160_2 C158_2 1_555 1_555
H124_2 C160_2 1_555 1_555
C161_2 C160_2 1_555 1_555
C162_2 C161_2 1_555 1_555
H125_2 C162_2 1_555 1_555
C163_2 C157_2 1_555 1_555
H126_2 C163_2 1_555 1_555
C164_2 C161_2 1_555 1_555
C165_2 C164_2 1_555 1_555
H127_2 C165_2 1_555 1_555
C166_2 C164_2 1_555 1_555
H128_2 C166_2 1_555 1_555
C167_2 H129_2 1_555 1_555
C168_2 C165_2 1_555 1_555
C169_2 C168_2 1_555 1_555
C170_2 C169_2 1_555 1_555
H130_2 C170_2 1_555 1_555
C171_2 C170_2 1_555 1_555
H131_2 C171_2 1_555 1_555
C172_2 C171_2 1_555 1_555
C173_2 C172_2 1_555 1_555
H132_2 C173_2 1_555 1_555
C174_2 C169_2 1_555 1_555
H133_2 C174_2 1_555 1_555
C175_2 C172_2 1_555 1_555
C176_2 C166_2 1_555 1_555
C177_2 C176_2 1_555 1_555
C178_2 C177_2 1_555 1_555
H134_2 C178_2 1_555 1_555
C179_2 C178_2 1_555 1_555
H135_2 C179_2 1_555 1_555
C180_2 C179_2 1_555 1_555
C181_2 C180_2 1_555 1_555
H136_2 C181_2 1_555 1_555
C182_2 C177_2 1_555 1_555
H137_2 C182_2 1_555 1_555
C183_2 C180_2 1_555 1_555
O37_2 Ca35 1_555 1_555
O38_2 Ca35 1_555 1_555
O60 C175_2 1_555 1_555
O62_2 C175_2 1_555 1_555
O65_2 C183_2 1_555 1_555
O71_2 C183_2 1_555 1_555
N8_2 C155_2 1_555 1_555
C184_2 N8_2 1_555 1_555
H138_2 C184_2 1_555 1_555
H139_2 C184_2 1_555 1_555
H140_2 C184_2 1_555 1_555
C185_2 N8_2 1_555 1_555
H141_2 C185_2 1_555 1_555
H142_2 C185_2 1_555 1_555
H143_2 C185_2 1_555 1_555
O60_3 Ca18_2 1_555 1_555
C118_2 O32_2 1_555 1_555
C119_2 O29_2 1_555 1_555
C120_3 O30_3 1_555 1_555
C123_3 N4_3 1_555 1_555
C125_3 N4_3 1_555 1_555
C129_2 C130_2 1_555 1_555
C140_2 C141_2 1_555 1_555
C154_2 O37_2 1_555 1_555
C154_2 O40_2 1_555 1_555
C155_2 O38_2 1_555 1_555
C162_2 C163_2 1_555 1_555
C167_2 C168_2 1_555 1_555
C167_2 C176_2 1_555 1_555
C173_2 C174_2 1_555 1_555
C181_2 C182_2 1_555 1_555
H99_2 C133_2 1_555 1_555
C134_2 H100_2 1_555 1_555
C136_2 C135_2 1_555 1_555
C137_2 C136_2 1_555 1_555
H101_2 C137_2 1_555 1_555
C138_2 C137_2 1_555 1_555
H102_2 C138_2 1_555 1_555
C139_2 C138_2 1_555 1_555
C142_2 C139_2 1_555 1_555
C143_2 C133_2 1_555 1_555
C144_2 C143_2 1_555 1_555
C145_2 C144_2 1_555 1_555
H105_2 C145_2 1_555 1_555
C146_2 C145_2 1_555 1_555
H106_2 C146_2 1_555 1_555
C147_2 C146_2 1_555 1_555
C148_2 C147_2 1_555 1_555
H107_2 C148_2 1_555 1_555
C149_2 C144_2 1_555 1_555
H108_2 C149_2 1_555 1_555
C150_2 C147_2 1_555 1_555
O59 C142_2 1_555 1_555
O64_2 C150_2 1_555 1_555
O71 C150_2 1_555 1_555
Ca16_2 O39_2 1_555 1_555
C156_2 H119_2 1_555 1_555
C159_2 H121_2 1_555 1_555
H122_2 C159_2 1_555 1_555
H123_2 C159_2 1_555 1_555
N7_2 C156_2 1_555 1_555
O39_2 C156_2 1_555 1_555
C186_2 N7_2 1_555 1_555
H144_2 C186_2 1_555 1_555
H145_2 C186_2 1_555 1_555
H146_2 C186_2 1_555 1_555
C134_2 C135_2 1_555 1_555
C134_2 C143_2 1_555 1_555
C148_2 C149_2 1_555 1_555
C159_2 N7_2 1_555 1_555
C120_4 H83_4 1_555 1_555
C123_4 H85_4 1_555 1_555
H86_4 C123_4 1_555 1_555
H87_4 C123_4 1_555 1_555
C125_4 H89_4 1_555 1_555
H90_4 C125_4 1_555 1_555
H91_4 C125_4 1_555 1_555
N4_4 C120_4 1_555 1_555
O30_4 Ca21_2 1_555 1_555
O60_4 Ca21_2 1_555 1_555
C120_4 O30_4 1_555 1_555
C123_4 N4_4 1_555 1_555
C125_4 N4_4 1_555 1_555
Ca33_2 O71_3 1_555 1_555
Ca34_2 O71_4 1_555 1_555
Ca1_3 O48_2 1_555 1_555
Ca33_2 O1_3 1_555 1_555
C1_3 C8_3 1_555 1_555
C2_3 C9_3 1_555 1_555
C7_3 H3_3 1_555 1_555
C8_3 C13_3 1_555 1_555
C9_3 C14_3 1_555 1_555
C13_3 H7_3 1_555 1_555
C14_3 H8_3 1_555 1_555
C15_3 H9_3 1_555 1_555
C18_3 H14_3 1_555 1_555
H15_3 C18_3 1_555 1_555
H16_3 C18_3 1_555 1_555
C19_3 C13_3 1_555 1_555
H17_3 C19_3 1_555 1_555
C20_3 C14_3 1_555 1_555
H18_3 C20_3 1_555 1_555
C21_3 C15_3 1_555 1_555
H19_3 C21_3 1_555 1_555
C23_3 C19_3 1_555 1_555
C24_3 C20_3 1_555 1_555
C27_3 C23_3 1_555 1_555
H21_3 C27_3 1_555 1_555
C28_3 C24_3 1_555 1_555
H22_3 C28_3 1_555 1_555
C31_3 C8_3 1_555 1_555
H25_3 C31_3 1_555 1_555
C32_3 C9_3 1_555 1_555
H26_3 C32_3 1_555 1_555
C35_3 C23_3 1_555 1_555
C36_3 C24_3 1_555 1_555
C39_3 C35_3 1_555 1_555
H29_3 C39_3 1_555 1_555
C40_3 C36_3 1_555 1_555
H30_3 C40_3 1_555 1_555
H31_3 C41_3 1_555 1_555
C43_3 C35_3 1_555 1_555
H33_3 C43_3 1_555 1_555
C44_3 H34_3 1_555 1_555
C45_3 C39_3 1_555 1_555
C46_3 C45_3 1_555 1_555
C47_3 C46_3 1_555 1_555
H35_3 C47_3 1_555 1_555
C48_3 C47_3 1_555 1_555
H36_3 C48_3 1_555 1_555
C49_3 C48_3 1_555 1_555
C50_3 C49_3 1_555 1_555
H37_3 C50_3 1_555 1_555
C51_3 C46_3 1_555 1_555
H38_3 C51_3 1_555 1_555
C52_3 C49_3 1_555 1_555
C53_3 C43_3 1_555 1_555
C54_3 C53_3 1_555 1_555
C55_3 C54_3 1_555 1_555
H39_3 C55_3 1_555 1_555
C56_3 C55_3 1_555 1_555
H40_3 C56_3 1_555 1_555
C57_3 C56_3 1_555 1_555
C58_3 C57_3 1_555 1_555
H41_3 C58_3 1_555 1_555
C59_3 C54_3 1_555 1_555
H42_3 C59_3 1_555 1_555
C60_3 C57_3 1_555 1_555
N2_3 C7_3 1_555 1_555
O1_3 C1_3 1_555 1_555
O48_2 C2_3 1_555 1_555
O5_3 Ca33_2 1_555 1_555
O7_3 Ca1_3 1_555 1_555
O8_3 Ca1_3 1_555 1_555
O52 C2_3 1_555 1_555
O57_2 Ca1_3 1_555 1_555
O60_4 C52_3 1_555 1_555
O13_3 C52_3 1_555 1_555
O14_3 C60_3 1_555 1_555
O70_2 C60_3 1_555 1_555
N3_3 C5_3 1_555 1_555
C61_3 N3_3 1_555 1_555
H43_3 C61_3 1_555 1_555
H44_3 C61_3 1_555 1_555
H45_3 C61_3 1_555 1_555
C62_3 N3_3 1_555 1_555
H47_3 C62_3 1_555 1_555
H48_3 C62_3 1_555 1_555
C63_3 N2_3 1_555 1_555
H49_3 C63_3 1_555 1_555
H50_3 C63_3 1_555 1_555
H51_3 C63_3 1_555 1_555
C64_3 C65_3 1_555 1_555
C65_3 C66_3 1_555 1_555
C66_3 H52_3 1_555 1_555
C67_3 C66_3 1_555 1_555
H53_3 C67_3 1_555 1_555
C68_3 C67_3 1_555 1_555
C69_3 C68_3 1_555 1_555
H54_3 C69_3 1_555 1_555
C70_3 C65_3 1_555 1_555
H55_3 C70_3 1_555 1_555
C71_3 C68_3 1_555 1_555
C72_3 C36_3 1_555 1_555
H56_3 C72_3 1_555 1_555
O48_3 C64_3 1_555 1_555
O53 C64_3 1_555 1_555
C73_3 C74_3 1_555 1_555
C74_3 C75_3 1_555 1_555
C75_3 H57_3 1_555 1_555
C76_3 C75_3 1_555 1_555
H58_3 C76_3 1_555 1_555
C77_3 C76_3 1_555 1_555
C78_3 C77_3 1_555 1_555
H59_3 C78_3 1_555 1_555
C79_3 C74_3 1_555 1_555
H60_3 C79_3 1_555 1_555
C80_3 C40_3 1_555 1_555
C81_3 C71_3 1_555 1_555
H61_3 C81_3 1_555 1_555
O48 C73_3 1_555 1_555
O54 C73_3 1_555 1_555
C82_3 C83_3 1_555 1_555
C87_3 C86_3 1_555 1_555
H64_3 C87_3 1_555 1_555
C88_3 C83_3 1_555 1_555
H65_3 C88_3 1_555 1_555
C89_3 C41_3 1_555 1_555
O20_3 C82_3 1_555 1_555
Ca13_3 O48_3 1_555 1_555
Ca16_3 O14_3 1_555 1_555
Ca35_2 O14_3 1_555 1_555
C1_3 O8_3 1_555 1_555
C5_3 O5_3 1_555 1_555
C7_3 O7_3 1_555 1_555
C18_3 N2_3 1_555 1_555
C27_3 C31_3 1_555 1_555
C28_3 C32_3 1_555 1_555
C44_3 C45_3 1_555 1_555
C44_3 C53_3 1_555 1_555
C50_3 C51_3 1_555 1_555
C58_3 C59_3 1_555 1_555
C69_3 C70_3 1_555 1_555
C71_3 C72_3 1_555 1_555
C77_3 C80_3 1_555 1_555
C78_3 C79_3 1_555 1_555
C80_3 C81_3 1_555 1_555
O48 Ca16_3 1_555 1_555
C86_3 C89_3 1_555 1_555
C87_3 C88_3 1_555 1_555
C3_3 C10_3 1_555 1_555
C4_3 C11_3 1_555 1_555
C11_3 C16_3 1_555 1_555
C16_3 H10_3 1_555 1_555
C22_3 C16_3 1_555 1_555
H20_3 C22_3 1_555 1_555
C26_3 C22_3 1_555 1_555
C29_3 C25_3 1_555 1_555
H23_3 C29_3 1_555 1_555
C30_3 C26_3 1_555 1_555
H24_3 C30_3 1_555 1_555
C33_3 C10_3 1_555 1_555
H27_3 C33_3 1_555 1_555
C34_3 C11_3 1_555 1_555
H28_3 C34_3 1_555 1_555
C37_3 C25_3 1_555 1_555
C38_3 C26_3 1_555 1_555
C42_3 C38_3 1_555 1_555
H32_3 C42_3 1_555 1_555
C100_3 C101_3 1_555 1_555
C101_3 C102_3 1_555 1_555
C102_3 H72_3 1_555 1_555
C103_3 C102_3 1_555 1_555
H73_3 C103_3 1_555 1_555
C104_3 C103_3 1_555 1_555
C105_3 C104_3 1_555 1_555
H74_3 C105_3 1_555 1_555
C106_3 C101_3 1_555 1_555
H75_3 C106_3 1_555 1_555
C107_3 C42_3 1_555 1_555
C108_3 C107_3 1_555 1_555
H76_3 C108_3 1_555 1_555
O51_3 C100_3 1_555 1_555
O25_3 C100_3 1_555 1_555
C109_3 C110_3 1_555 1_555
C110_3 C111_3 1_555 1_555
C111_3 H77_3 1_555 1_555
C112_3 C111_3 1_555 1_555
H78_3 C112_3 1_555 1_555
C113_3 C112_3 1_555 1_555
C114_3 C113_3 1_555 1_555
H79_3 C114_3 1_555 1_555
C115_3 C110_3 1_555 1_555
H80_3 C115_3 1_555 1_555
C116_3 C108_3 1_555 1_555
C117_3 C38_3 1_555 1_555
H81_3 C117_3 1_555 1_555
O51 C109_3 1_555 1_555
O27_3 C109_3 1_555 1_555
Ca16_3 O27_3 1_555 1_555
C3_3 O3_3 1_555 1_555
C4_3 O51_2 1_555 1_555
C4_3 O11_3 1_555 1_555
C29_3 C33_3 1_555 1_555
C30_3 C34_3 1_555 1_555
C104_3 C107_3 1_555 1_555
C105_3 C106_3 1_555 1_555
C113_3 C116_3 1_555 1_555
C114_3 C115_3 1_555 1_555
C116_3 C117_3 1_555 1_555
C167_3 H129_3 1_555 1_555
C169_3 C168_3 1_555 1_555
C170_3 C169_3 1_555 1_555
H130_3 C170_3 1_555 1_555
C171_3 C170_3 1_555 1_555
H131_3 C171_3 1_555 1_555
C172_3 C171_3 1_555 1_555
C173_3 C172_3 1_555 1_555
H132_3 C173_3 1_555 1_555
C174_3 C169_3 1_555 1_555
H133_3 C174_3 1_555 1_555
C175_3 C172_3 1_555 1_555
H134_3 C178_3 1_555 1_555
C179_3 C178_3 1_555 1_555
H135_3 C179_3 1_555 1_555
O60_3 C175_3 1_555 1_555
O62_3 C175_3 1_555 1_555
C167_3 C168_3 1_555 1_555
C173_3 C174_3 1_555 1_555
C84_3 H62_3 1_555 1_555
C85_3 C84_3 1_555 1_555
H63_3 C85_3 1_555 1_555
H66_3 C90_3 1_555 1_555
Ca13_3 O57_3 1_555 1_555
C91_3 C92_3 1_555 1_555
C92_3 C93_3 1_555 1_555
C93_3 H67_3 1_555 1_555
C94_3 C93_3 1_555 1_555
H68_3 C94_3 1_555 1_555
C95_3 C94_3 1_555 1_555
C96_3 C95_3 1_555 1_555
H69_3 C96_3 1_555 1_555
C97_3 C92_3 1_555 1_555
H70_3 C97_3 1_555 1_555
H71_3 C99_3 1_555 1_555
O22_3 C91_3 1_555 1_555
O57 C91_3 1_555 1_555
Ca34_2 O28_3 1_555 1_555
C118_3 C122_3 1_555 1_555
C121_3 H84_3 1_555 1_555
C122_3 C124_3 1_555 1_555
C124_3 H88_3 1_555 1_555
C126_3 H92_3 1_555 1_555
H93_3 C126_3 1_555 1_555
H94_3 C126_3 1_555 1_555
C127_3 C124_3 1_555 1_555
H95_3 C127_3 1_555 1_555
C128_3 C127_3 1_555 1_555
C129_3 C128_3 1_555 1_555
H96_3 C129_3 1_555 1_555
C130_3 C122_3 1_555 1_555
H97_3 C130_3 1_555 1_555
C131_3 C128_3 1_555 1_555
C132_3 C131_3 1_555 1_555
H98_3 C132_3 1_555 1_555
C133_3 C131_3 1_555 1_555
H99_3 C133_3 1_555 1_555
C143_3 C133_3 1_555 1_555
C144_3 C143_3 1_555 1_555
C148_3 C147_3 1_555 1_555
H107_3 C148_3 1_555 1_555
C149_3 C144_3 1_555 1_555
H108_3 C149_3 1_555 1_555
C150_3 C147_3 1_555 1_555
N5_3 C121_3 1_555 1_555
O28_3 C118_3 1_555 1_555
O29_3 Ca34_2 1_555 1_555
O31_3 Ca13_3 1_555 1_555
O32_3 Ca13_3 1_555 1_555
O71_3 C150_3 1_555 1_555
N6_3 C119_3 1_555 1_555
C151_3 N6_3 1_555 1_555
H109_3 C151_3 1_555 1_555
H110_3 C151_3 1_555 1_555
H111_3 C151_3 1_555 1_555
C152_3 N6_3 1_555 1_555
H113_3 C152_3 1_555 1_555
H114_3 C152_3 1_555 1_555
C153_3 N5_3 1_555 1_555
H115_3 C153_3 1_555 1_555
H116_3 C153_3 1_555 1_555
H117_3 C153_3 1_555 1_555
Ca16_3 O57 1_555 1_555
Ca35_2 O22_3 1_555 1_555
C95_3 C98_3 1_555 1_555
C96_3 C97_3 1_555 1_555
C98_3 C99_3 1_555 1_555
C118_3 O32_3 1_555 1_555
C119_3 O29_3 1_555 1_555
C121_3 O31_3 1_555 1_555
C126_3 N5_3 1_555 1_555
C129_3 C130_3 1_555 1_555
C148_3 C149_3 1_555 1_555
C134_3 H100_3 1_555 1_555
C136_3 C135_3 1_555 1_555
C137_3 C136_3 1_555 1_555
H101_3 C137_3 1_555 1_555
C138_3 C137_3 1_555 1_555
H102_3 C138_3 1_555 1_555
C139_3 C138_3 1_555 1_555
C140_3 C139_3 1_555 1_555
H103_3 C140_3 1_555 1_555
C141_3 C136_3 1_555 1_555
H104_3 C141_3 1_555 1_555
C142_3 C139_3 1_555 1_555
H105_3 C145_3 1_555 1_555
C146_3 C145_3 1_555 1_555
H106_3 C146_3 1_555 1_555
O59_2 C142_3 1_555 1_555
O34_3 C142_3 1_555 1_555
Ca16_3 O39_3 1_555 1_555
Ca35_2 O34_3 1_555 1_555
C154_3 C157_3 1_555 1_555
C155_3 H118_3 1_555 1_555
C156_3 H119_3 1_555 1_555
C157_3 C158_3 1_555 1_555
C158_3 H120_3 1_555 1_555
C159_3 H121_3 1_555 1_555
H122_3 C159_3 1_555 1_555
H123_3 C159_3 1_555 1_555
C160_3 C158_3 1_555 1_555
H124_3 C160_3 1_555 1_555
C161_3 C160_3 1_555 1_555
C162_3 C161_3 1_555 1_555
H125_3 C162_3 1_555 1_555
C163_3 C157_3 1_555 1_555
H126_3 C163_3 1_555 1_555
C164_3 C161_3 1_555 1_555
C165_3 C164_3 1_555 1_555
H127_3 C165_3 1_555 1_555
C166_3 C164_3 1_555 1_555
H128_3 C166_3 1_555 1_555
C176_3 C166_3 1_555 1_555
C177_3 C176_3 1_555 1_555
C181_3 C180_3 1_555 1_555
H136_3 C181_3 1_555 1_555
C182_3 C177_3 1_555 1_555
H137_3 C182_3 1_555 1_555
C183_3 C180_3 1_555 1_555
N7_3 C156_3 1_555 1_555
O37_3 Ca35_2 1_555 1_555
O38_3 Ca35_2 1_555 1_555
O39_3 C156_3 1_555 1_555
O40_3 Ca16_3 1_555 1_555
O71_4 C183_3 1_555 1_555
N8_3 C155_3 1_555 1_555
C184_3 N8_3 1_555 1_555
H138_3 C184_3 1_555 1_555
H139_3 C184_3 1_555 1_555
H140_3 C184_3 1_555 1_555
C185_3 N8_3 1_555 1_555
H141_3 C185_3 1_555 1_555
H142_3 C185_3 1_555 1_555
H143_3 C185_3 1_555 1_555
C186_3 N7_3 1_555 1_555
H144_3 C186_3 1_555 1_555
H145_3 C186_3 1_555 1_555
H146_3 C186_3 1_555 1_555
C134_3 C135_3 1_555 1_555
C140_3 C141_3 1_555 1_555
C154_3 O37_3 1_555 1_555
C154_3 O40_3 1_555 1_555
C155_3 O38_3 1_555 1_555
C159_3 N7_3 1_555 1_555
C162_3 C163_3 1_555 1_555
C181_3 C182_3 1_555 1_555

#END
