
###############################################################################
#
# This file contains modified crystal structure data generated from the
# MOF subset of the Cambridge Structural Database (CSD) v543 
# hosted by the Cambridge Crystallographic Data Centre (CCDC).
#
# This work is licensed under the Creative Commons
# Attribution-NonCommercial-ShareAlike 4.0 International License.
# To view a copy of this license, visit
# http://creativecommons.org/licenses/by-nc-sa/4.0/
# or send a letter to
# Creative Commons, PO Box 1866, Mountain View, CA 94042, USA.
#
# CIF created using the CSD Python API on 29 September 2022
# The structure has been converted into the P1 space group
# The structure has a 3D framework
# The original CSD entry PIPKUX is in the orthorhombic crystal system
# The framework has been calculated to contain at least 10.0% void space
# The void calculation uses a probe of radius 1.32A, grid spacing 0.4
# The framework is charged, counterions have been retained in the structure
#
###############################################################################

data_PIPKUX
_chemical_formula_moiety         '(C192 H152 Cu32 I32 In14 N32 O76 1-)n'
_symmetry_cell_setting           triclinic
_symmetry_space_group_name_H-M   'P 1'
_symmetry_Int_Tables_number      1
_space_group_name_Hall           'P 1'
loop_
_symmetry_equiv_pos_site_id
_symmetry_equiv_pos_as_xyz
1 x,y,z
_cell_length_a                   15.7352(6)
_cell_length_b                   32.9364(11)
_cell_length_c                   36.5832(11)
_cell_angle_alpha                90
_cell_angle_beta                 90
_cell_angle_gamma                90
_cell_volume                     18959.6
loop_
_atom_site_label
_atom_site_type_symbol
_atom_site_fract_x
_atom_site_fract_y
_atom_site_fract_z
H4 H 0.0003 0.4634 0.1229
C10 C 0.2560(6) 0.7948(3) 0.1911(2)
C11 C 0.1883(7) 0.7645(3) 0.1817(2)
C15 C 0.0810(8) 0.7163(4) 0.1963(2)
H9 H 0.0531 0.7017 0.2145
C16 C 0.1027(8) 0.7339(4) 0.1373(3)
H10 H 0.0858 0.7333 0.1129
C17 C 0.1680(11) 0.7563(5) 0.1458(4)
H11 H 0.2016 0.7670 0.1273
C18 C 0.1439(8) 0.7418(4) 0.2064(3)
H12 H 0.1575 0.7440 0.2310
H17 H 0.1600 0.3613 0.2318
H18 H 0.2034 0.4267 0.1597
H19 H 0.2679 0.3944 0.1609
N2 N 0.0566(6) 0.7108(3) 0.16192(18)
O2 O 0.0203(5) 0.40315(17) 0.16260(15)
O5 O 0.1133(3) 0.36154(15) 0.22179(12)
O6 O 0.2914(5) 0.8120(3) 0.16498(16)
O8 O 0.2150(7) 0.4020(3) 0.1623(2)
O10 O 0.2695(5) 0.7989(2) 0.22394(15)
I3 I 0.03403(5) 0.61986(2) 0.09974(2)
In1 In 0.0000 0.36439(2) 0.2500
In2 In 0.11601(4) 0.35660(2) 0.16443(2)
C25 C 0.4630(9) 0.8012(4) 0.3128(3)
C26 C 0.4051(9) 0.7653(4) 0.3220(4)
C27 C 0.0224(7) 0.4227(3) 0.31566(19)
C28 C 0.0500(7) 0.4638(2) 0.3275(2)
C29 C 0.0965(7) 0.4890(3) 0.3049(3)
H20 H 0.1145 0.4800 0.2821
C30 C 0.4170(7) 0.7432(3) 0.3539(2)
H21 H 0.4622 0.7488 0.3695
C31 C 0.1159(6) 0.5278(3) 0.3168(3)
H22 H 0.1482 0.5440 0.3012
C32 C 0.0285(7) 0.4796(3) 0.3604(2)
C33 C 0.0476(8) 0.5188(3) 0.3700(2)
H24 H 0.0289 0.5287 0.3925
C36 C 0.3445(7) 0.7536(3) 0.2985(2)
H25 H 0.3380 0.7666 0.2761
C37 C 0.2918(7) 0.7219(3) 0.3081(2)
H26 H 0.2499 0.7142 0.2916
C38 C 0.3604(7) 0.7132(3) 0.3617(3)
H27 H 0.3658 0.6998 0.3839
C43 C 0.1184(11) 0.6193(3) 0.58233(19)
C44 C 0.1203(6) 0.6059(3) 0.48448(18)
H32 H 0.1216 0.5861 0.4663
C45 C 0.1199(7) 0.5943(3) 0.5208(2)
H33 H 0.1216 0.5669 0.5270
C46 C 0.1149(14) 0.6755(3) 0.5020(3)
H34 H 0.1165 0.7029 0.4958
C47 C 0.1171(9) 0.6237(4) 0.54799(17)
C48 C 0.1087(11) 0.6639(3) 0.5381(3)
H35 H 0.0987 0.6834 0.5560
N5 N 0.2970(6) 0.7017(3) 0.3392(2)
N7 N 0.0928(5) 0.5435(2) 0.34782(18)
N8 N 0.1188(5) 0.6463(3) 0.4749(2)
O11 O 0.5198(4) 0.81005(16) 0.33502(12)
O13 O 0.0465(4) 0.41289(19) 0.28401(16)
O14 O 0.4448(5) 0.81820(19) 0.28391(15)
O17 O 0.1118(4) 0.64481(18) 0.60746(12)
O19 O 0.1318(11) 0.5838(4) 0.5930(5)
Cu5 Cu 0.10730(9) 0.60219(3) 0.36183(3)
Cu6 Cu 0.11808(10) 0.65150(4) 0.41723(3)
Cu7 Cu 0.20249(9) 0.66584(4) 0.35650(3)
Cu8 Cu 0.03804(9) 0.67463(4) 0.35580(3)
I5 I 0.11294(4) 0.64391(2) 0.29744(2)
I6 I 0.25497(5) 0.60660(2) 0.39816(2)
I8 I 0.12781(6) 0.72764(2) 0.39744(2)
O22 O 0.0198(4) 0.31005(16) 0.16498(12)
O23 O 0.0552(5) 0.31820(19) 0.28391(15)
O26 O 0.2086(5) 0.3120(3) 0.16498(16)
O27 O 0.1118(4) 0.35519(18) 0.10746(12)
In5 In 0.5000 0.86439(2) 0.2500
In8 In 0.61601(4) 0.85660(2) 0.33557(2)
In9 In 0.11601(4) 0.64340(2) 0.66443(2)
In11 In 0.38399(4) 0.85660(2) 0.16443(2)
C1 C 0.5370(9) 0.8012(4) 0.1872(3)
C2 C 0.5949(9) 0.7653(4) 0.1780(4)
C3 C 0.9776(7) 0.4227(3) 0.18434(19)
C4 C 0.9500(7) 0.4638(2) 0.1725(2)
C5 C 0.9035(7) 0.4890(3) 0.1951(3)
H1 H 0.8855 0.4800 0.2179
C6 C 0.5830(7) 0.7432(3) 0.1461(2)
H2 H 0.5378 0.7488 0.1305
C7 C 0.8841(6) 0.5278(3) 0.1832(3)
H3 H 0.8518 0.5440 0.1988
C8 C 0.9715(7) 0.4796(3) 0.1396(2)
C9 C 0.9524(8) 0.5188(3) 0.1300(2)
H5 H 0.9711 0.5287 0.1075
C12 C 0.6555(7) 0.7536(3) 0.2015(2)
H6 H 0.6620 0.7666 0.2239
C13 C 0.7082(7) 0.7219(3) 0.1919(2)
H7 H 0.7501 0.7142 0.2084
C14 C 0.6396(7) 0.7132(3) 0.1383(3)
H8 H 0.6342 0.6998 0.1161
C20 C 0.8797(6) 0.6059(3) 0.01552(18)
H13 H 0.8784 0.5861 0.0337
H15 H 0.8835 0.7029 0.0042
N1 N 0.7030(6) 0.7017(3) 0.1608(2)
N3 N 0.9072(5) 0.5435(2) 0.15218(18)
N4 N 0.8812(5) 0.6463(3) 0.0251(2)
O1 O 0.4802(4) 0.81005(16) 0.16498(12)
O3 O 0.9535(4) 0.41289(19) 0.21599(16)
O4 O 0.5552(5) 0.81820(19) 0.21609(15)
Cu1 Cu 0.89270(9) 0.60219(3) 0.13817(3)
Cu2 Cu 0.88192(10) 0.65150(4) 0.08277(3)
Cu3 Cu 0.79751(9) 0.66584(4) 0.14350(3)
Cu4 Cu 0.96196(9) 0.67463(4) 0.14420(3)
I1 I 0.88706(4) 0.64391(2) 0.20256(2)
I2 I 0.74503(5) 0.60660(2) 0.10184(2)
I4 I 0.87219(6) 0.72764(2) 0.10256(2)
In1_2 In 1.0000 0.36439(2) 0.2500
H23 H 0.9997 0.4634 0.3771
C34 C 0.7440(6) 0.7948(3) 0.3089(2)
C35 C 0.8117(7) 0.7645(3) 0.3183(2)
C39 C 0.9190(8) 0.7163(4) 0.3037(2)
H28 H 0.9469 0.7017 0.2855
C40 C 0.8973(8) 0.7339(4) 0.3627(3)
H29 H 0.9142 0.7333 0.3871
C41 C 0.8320(11) 0.7563(5) 0.3542(4)
H30 H 0.7984 0.7670 0.3727
C42 C 0.8561(8) 0.7418(4) 0.2936(3)
H31 H 0.8425 0.7440 0.2690
H36 H 0.8400 0.3613 0.2682
H37 H 0.7966 0.4267 0.3403
H38 H 0.7321 0.3944 0.3391
N6 N 0.9434(6) 0.7108(3) 0.33808(18)
O12 O 0.9797(5) 0.40315(17) 0.33740(15)
O15 O 0.8867(3) 0.36154(15) 0.27821(12)
O16 O 0.7086(5) 0.8120(3) 0.33502(16)
O18 O 0.7850(7) 0.4020(3) 0.3377(2)
O20 O 0.7305(5) 0.7989(2) 0.27606(15)
I7 I 0.96597(5) 0.61986(2) 0.40026(2)
In3 In 0.88399(4) 0.35660(2) 0.33557(2)
O21 O 0.9802(4) 0.31005(16) 0.33502(12)
O24 O 0.9448(5) 0.31820(19) 0.21609(15)
O25 O 0.7914(5) 0.3120(3) 0.33502(16)
O28 O 0.8882(4) 0.35519(18) 0.39254(12)
C19 C 0.8816(11) 0.6193(3) 0.91767(19)
C21 C 0.8801(7) 0.5943(3) 0.9792(2)
H14 H 0.8784 0.5669 0.9730
C22 C 0.8851(14) 0.6755(3) 0.9980(3)
C23 C 0.8829(9) 0.6237(4) 0.95201(17)
C24 C 0.8913(11) 0.6639(3) 0.9619(3)
H16 H 0.9013 0.6834 0.9440
O7 O 0.8882(4) 0.64481(18) 0.89254(12)
O9 O 0.8682(11) 0.5838(4) 0.9070(5)
In6 In 0.88399(4) 0.64340(2) 0.83557(2)
O1_2 O 0.0198(4) 0.68995(16) 0.66498(12)
In4 In -0.0000 0.63561(2) 0.7500
C3_2 C 0.5224(7) 0.0773(3) 0.68434(19)
C4_2 C 0.5500(7) 0.0362(2) 0.6725(2)
C5_2 C 0.5965(7) 0.0110(3) 0.6951(3)
H1_2 H 0.6145 0.0200 0.7179
C8_2 C 0.5285(7) 0.0204(3) 0.6396(2)
H4_2 H 0.4997 0.0366 0.6229
H17_2 H 0.3400 0.1387 0.7318
H18_2 H 0.2966 0.0733 0.6597
H19_2 H 0.2321 0.1056 0.6609
O2_2 O 0.4797(5) 0.09685(17) 0.66260(15)
O3_2 O 0.5465(4) 0.08711(19) 0.71599(16)
O5_2 O 0.3867(3) 0.13846(15) 0.72179(12)
O8_2 O 0.2850(7) 0.0980(3) 0.6623(2)
In1_3 In 0.5000 0.13561(2) 0.7500
In2_2 In 0.38399(4) 0.14340(2) 0.66443(2)
C27_2 C 0.4776(7) 0.0773(3) 0.81566(19)
C28_2 C 0.4500(7) 0.0362(2) 0.8275(2)
C29_2 C 0.4035(7) 0.0110(3) 0.8049(3)
H20_2 H 0.3855 0.0200 0.7821
C32_2 C 0.4715(7) 0.0204(3) 0.8604(2)
H23_2 H 0.5003 0.0366 0.8771
H36_2 H 0.6600 0.1387 0.7682
H37_2 H 0.7034 0.0733 0.8403
H38_2 H 0.7679 0.1056 0.8391
O12_2 O 0.5203(5) 0.09685(17) 0.83740(15)
O13_2 O 0.4535(4) 0.08711(19) 0.78401(16)
O15_2 O 0.6133(3) 0.13846(15) 0.77821(12)
O18_2 O 0.7150(7) 0.0980(3) 0.8377(2)
In3_2 In 0.61601(4) 0.14340(2) 0.83557(2)
O21_2 O 0.5198(4) 0.18995(16) 0.83502(12)
O22_2 O 0.4802(4) 0.18995(16) 0.66498(12)
O23_2 O 0.4448(5) 0.18180(19) 0.78391(15)
O24_2 O 0.5552(5) 0.18180(19) 0.71609(15)
O25_2 O 0.7086(5) 0.1880(3) 0.83502(16)
O26_2 O 0.2914(5) 0.1880(3) 0.66498(16)
O27_2 O 0.3882(4) 0.14481(18) 0.60746(12)
O28_2 O 0.6118(4) 0.14481(18) 0.89254(12)
C43_2 C 0.3816(11) 0.8807(3) 0.08233(19)
C45_2 C 0.3801(7) 0.9057(3) 0.0208(2)
H33_2 H 0.3784 0.9331 0.0270
C46_2 C 0.3851(14) 0.8245(3) 0.0020(3)
C47_2 C 0.3829(9) 0.8763(4) 0.04799(17)
C48_2 C 0.3913(11) 0.8361(3) 0.0381(3)
H35_2 H 0.4013 0.8166 0.0560
O17_2 O 0.3882(4) 0.85519(18) 0.10746(12)
O19_2 O 0.3682(11) 0.9162(4) 0.0930(5)
C1_2 C 0.9630(9) 0.6988(4) 0.6872(3)
C2_2 C 0.9051(9) 0.7347(4) 0.6780(4)
C6_2 C 0.9170(7) 0.7568(3) 0.6461(2)
H2_2 H 0.9622 0.7512 0.6305
C7_2 C 0.6159(6) 0.9722(3) 0.6832(3)
H3_2 H 0.6482 0.9560 0.6988
C9_2 C 0.5476(8) 0.9812(3) 0.6300(2)
H5_2 H 0.5289 0.9713 0.6075
C10_2 C 0.2440(6) 0.7052(3) 0.6911(2)
C11_2 C 0.3117(7) 0.7355(3) 0.6817(2)
C12_2 C 0.8445(7) 0.7464(3) 0.7015(2)
H6_2 H 0.8380 0.7334 0.7239
C13_2 C 0.7918(7) 0.7781(3) 0.6919(2)
H7_2 H 0.7499 0.7858 0.7084
C14_2 C 0.8604(7) 0.7868(3) 0.6383(3)
H8_2 H 0.8658 0.8002 0.6161
C15_2 C 0.4190(8) 0.7837(4) 0.6963(2)
H9_2 H 0.4469 0.7983 0.7145
C16_2 C 0.3973(8) 0.7661(4) 0.6373(3)
H10_2 H 0.4142 0.7667 0.6129
C17_2 C 0.3320(11) 0.7437(5) 0.6458(4)
H11_2 H 0.2984 0.7330 0.6273
C18_2 C 0.3561(8) 0.7582(4) 0.7064(3)
H12_2 H 0.3425 0.7560 0.7310
C19_2 C 0.6184(11) 0.8807(3) 0.41767(19)
C20_2 C 0.6203(6) 0.8941(3) 0.51552(18)
H13_2 H 0.6216 0.9139 0.5337
C21_2 C 0.6199(7) 0.9057(3) 0.4792(2)
H14_2 H 0.6216 0.9331 0.4730
C22_2 C 0.6149(14) 0.8245(3) 0.4980(3)
H15_2 H 0.6165 0.7971 0.5042
C23_2 C 0.6171(9) 0.8763(4) 0.45201(17)
C24_2 C 0.6087(11) 0.8361(3) 0.4619(3)
H16_2 H 0.5987 0.8166 0.4440
N1_2 N 0.7970(6) 0.7983(3) 0.6608(2)
N2_2 N 0.4434(6) 0.7892(3) 0.66192(18)
N3_2 N 0.5928(5) 0.9565(2) 0.65218(18)
N4_2 N 0.6188(5) 0.8537(3) 0.5251(2)
O4_2 O 0.9448(5) 0.68180(19) 0.71609(15)
O6_2 O 0.2086(5) 0.6880(3) 0.66498(16)
O7_2 O 0.6118(4) 0.85519(18) 0.39254(12)
O9_2 O 0.6318(11) 0.9162(4) 0.4070(5)
O10_2 O 0.2305(5) 0.7011(2) 0.72394(15)
Cu1_2 Cu 0.60730(9) 0.89781(3) 0.63817(3)
Cu2_2 Cu 0.61808(10) 0.84850(4) 0.58277(3)
Cu3_2 Cu 0.70249(9) 0.83416(4) 0.64350(3)
Cu4_2 Cu 0.53804(9) 0.82537(4) 0.64420(3)
I1_2 I 0.61294(4) 0.85609(2) 0.70256(2)
I2_2 I 0.75497(5) 0.89340(2) 0.60184(2)
I3_2 I 0.46597(5) 0.88014(2) 0.59974(2)
I4_2 I 0.62781(6) 0.77236(2) 0.60256(2)
C25_2 C 0.0370(9) 0.6988(4) 0.8128(3)
C26_2 C 0.0949(9) 0.7347(4) 0.8220(4)
C30_2 C 0.0830(7) 0.7568(3) 0.8539(2)
H21_2 H 0.0378 0.7512 0.8695
C31_2 C 0.3841(6) 0.9722(3) 0.8168(3)
H22_2 H 0.3518 0.9560 0.8012
C33_2 C 0.4524(8) 0.9812(3) 0.8700(2)
H24_2 H 0.4711 0.9713 0.8925
C34_2 C 0.7560(6) 0.7052(3) 0.8089(2)
C35_2 C 0.6883(7) 0.7355(3) 0.8183(2)
C36_2 C 0.1555(7) 0.7464(3) 0.7985(2)
H25_2 H 0.1620 0.7334 0.7761
C37_2 C 0.2082(7) 0.7781(3) 0.8081(2)
H26_2 H 0.2501 0.7858 0.7916
C38_2 C 0.1396(7) 0.7868(3) 0.8617(3)
H27_2 H 0.1342 0.8002 0.8839
C39_2 C 0.5810(8) 0.7837(4) 0.8037(2)
H28_2 H 0.5531 0.7983 0.7855
C40_2 C 0.6027(8) 0.7661(4) 0.8627(3)
H29_2 H 0.5858 0.7667 0.8871
C41_2 C 0.6680(11) 0.7437(5) 0.8542(4)
H30_2 H 0.7016 0.7330 0.8727
C42_2 C 0.6439(8) 0.7582(4) 0.7936(3)
H31_2 H 0.6575 0.7560 0.7690
C44_2 C 0.3797(6) 0.8941(3) 0.98448(18)
H32_2 H 0.3784 0.9139 0.9663
H34_2 H 0.3835 0.7971 0.9958
N5_2 N 0.2030(6) 0.7983(3) 0.8392(2)
N6_2 N 0.5566(6) 0.7892(3) 0.83808(18)
N7_2 N 0.4072(5) 0.9565(2) 0.84782(18)
N8_2 N 0.3812(5) 0.8537(3) 0.9749(2)
O14_2 O 0.0552(5) 0.68180(19) 0.78391(15)
O16_2 O 0.7914(5) 0.6880(3) 0.83502(16)
O20_2 O 0.7695(5) 0.7011(2) 0.77606(15)
Cu5_2 Cu 0.39270(9) 0.89781(3) 0.86183(3)
Cu6_2 Cu 0.38192(10) 0.84850(4) 0.91723(3)
Cu7_2 Cu 0.29751(9) 0.83416(4) 0.85650(3)
Cu8_2 Cu 0.46196(9) 0.82537(4) 0.85580(3)
I5_2 I 0.38706(4) 0.85609(2) 0.79744(2)
I6_2 I 0.24503(5) 0.89340(2) 0.89816(2)
I7_2 I 0.53403(5) 0.88014(2) 0.90026(2)
I8_2 I 0.37219(6) 0.77236(2) 0.89744(2)
In4_2 In 1.0000 0.63561(2) 0.7500
O11_2 O 0.9802(4) 0.68995(16) 0.83502(12)
C19_3 C 0.1184(11) 0.3807(3) 0.08233(19)
C21_3 C 0.1199(7) 0.4057(3) 0.0208(2)
H14_3 H 0.1216 0.4331 0.0270
C22_3 C 0.1149(14) 0.3245(3) 0.0020(3)
C23_3 C 0.1171(9) 0.3763(4) 0.04799(17)
C24_3 C 0.1087(11) 0.3361(3) 0.0381(3)
H16_3 H 0.0987 0.3166 0.0560
O9_3 O 0.1318(11) 0.4162(4) 0.0930(5)
C1_3 C 0.4630(9) 0.1988(4) 0.8128(3)
C2_3 C 0.4051(9) 0.2347(4) 0.8220(4)
C3_3 C 0.0224(7) 0.5773(3) 0.81566(19)
C4_3 C 0.0500(7) 0.5362(2) 0.8275(2)
C5_3 C 0.0965(7) 0.5110(3) 0.8049(3)
H1_3 H 0.1145 0.5200 0.7821
C6_3 C 0.4170(7) 0.2568(3) 0.8539(2)
H2_3 H 0.4622 0.2512 0.8695
C7_3 C 0.1159(6) 0.4722(3) 0.8168(3)
H3_3 H 0.1482 0.4560 0.8012
C8_3 C 0.0285(7) 0.5204(3) 0.8604(2)
C9_3 C 0.0476(8) 0.4812(3) 0.8700(2)
H5_3 H 0.0289 0.4713 0.8925
C12_3 C 0.3445(7) 0.2464(3) 0.7985(2)
H6_3 H 0.3380 0.2334 0.7761
C13_3 C 0.2918(7) 0.2781(3) 0.8081(2)
H7_3 H 0.2499 0.2858 0.7916
C14_3 C 0.3604(7) 0.2868(3) 0.8617(3)
H8_3 H 0.3658 0.3002 0.8839
C20_3 C 0.1203(6) 0.3941(3) 0.98448(18)
H13_3 H 0.1216 0.4139 0.9663
H15_3 H 0.1165 0.2971 0.9958
N1_3 N 0.2970(6) 0.2983(3) 0.8392(2)
N3_3 N 0.0928(5) 0.4565(2) 0.84782(18)
N4_3 N 0.1188(5) 0.3537(3) 0.9749(2)
O3_3 O 0.0465(4) 0.58711(19) 0.78401(16)
Cu1_3 Cu 0.10730(9) 0.39781(3) 0.86183(3)
Cu2_3 Cu 0.11808(10) 0.34850(4) 0.91723(3)
Cu3_3 Cu 0.20249(9) 0.33416(4) 0.85650(3)
Cu4_3 Cu 0.03804(9) 0.32537(4) 0.85580(3)
I1_3 I 0.11294(4) 0.35609(2) 0.79744(2)
I2_3 I 0.25497(5) 0.39340(2) 0.89816(2)
I4_3 I 0.12781(6) 0.27236(2) 0.89744(2)
H23_3 H 0.0003 0.5366 0.6229
C34_3 C 0.2560(6) 0.2052(3) 0.6911(2)
C35_3 C 0.1883(7) 0.2355(3) 0.6817(2)
C39_3 C 0.0810(8) 0.2837(4) 0.6963(2)
H28_3 H 0.0531 0.2983 0.7145
C40_3 C 0.1027(8) 0.2661(4) 0.6373(3)
H29_3 H 0.0858 0.2667 0.6129
C41_3 C 0.1680(11) 0.2437(5) 0.6458(4)
H30_3 H 0.2016 0.2330 0.6273
C42_3 C 0.1439(8) 0.2582(4) 0.7064(3)
H31_3 H 0.1575 0.2560 0.7310
H36_3 H 0.1600 0.6387 0.7318
H37_3 H 0.2034 0.5733 0.6597
H38_3 H 0.2679 0.6056 0.6609
N6_3 N 0.0566(6) 0.2892(3) 0.66192(18)
O12_3 O 0.0203(5) 0.59685(17) 0.66260(15)
O15_3 O 0.1133(3) 0.63846(15) 0.72179(12)
O18_3 O 0.2150(7) 0.5980(3) 0.6623(2)
O20_3 O 0.2695(5) 0.2011(2) 0.72394(15)
I7_3 I 0.03403(5) 0.38014(2) 0.59974(2)
H4_3 H 0.9997 0.5366 0.8771
C10_3 C 0.7440(6) 0.2052(3) 0.8089(2)
C11_3 C 0.8117(7) 0.2355(3) 0.8183(2)
C15_3 C 0.9190(8) 0.2837(4) 0.8037(2)
H9_3 H 0.9469 0.2983 0.7855
C16_3 C 0.8973(8) 0.2661(4) 0.8627(3)
H10_3 H 0.9142 0.2667 0.8871
C17_3 C 0.8320(11) 0.2437(5) 0.8542(4)
H11_3 H 0.7984 0.2330 0.8727
C18_3 C 0.8561(8) 0.2582(4) 0.7936(3)
H12_3 H 0.8425 0.2560 0.7690
H17_3 H 0.8400 0.6387 0.7682
H18_3 H 0.7966 0.5733 0.8403
H19_3 H 0.7321 0.6056 0.8391
N2_3 N 0.9434(6) 0.2892(3) 0.83808(18)
O2_3 O 0.9797(5) 0.59685(17) 0.83740(15)
O5_3 O 0.8867(3) 0.63846(15) 0.77821(12)
O8_3 O 0.7850(7) 0.5980(3) 0.8377(2)
O10_3 O 0.7305(5) 0.2011(2) 0.77606(15)
I3_3 I 0.96597(5) 0.38014(2) 0.90026(2)
C25_3 C 0.5370(9) 0.1988(4) 0.6872(3)
C26_3 C 0.5949(9) 0.2347(4) 0.6780(4)
C27_3 C 0.9776(7) 0.5773(3) 0.68434(19)
C28_3 C 0.9500(7) 0.5362(2) 0.6725(2)
C29_3 C 0.9035(7) 0.5110(3) 0.6951(3)
H20_3 H 0.8855 0.5200 0.7179
C30_3 C 0.5830(7) 0.2568(3) 0.6461(2)
H21_3 H 0.5378 0.2512 0.6305
C31_3 C 0.8841(6) 0.4722(3) 0.6832(3)
H22_3 H 0.8518 0.4560 0.6988
C32_3 C 0.9715(7) 0.5204(3) 0.6396(2)
C33_3 C 0.9524(8) 0.4812(3) 0.6300(2)
H24_3 H 0.9711 0.4713 0.6075
C36_3 C 0.6555(7) 0.2464(3) 0.7015(2)
H25_3 H 0.6620 0.2334 0.7239
C37_3 C 0.7082(7) 0.2781(3) 0.6919(2)
H26_3 H 0.7501 0.2858 0.7084
C38_3 C 0.6396(7) 0.2868(3) 0.6383(3)
H27_3 H 0.6342 0.3002 0.6161
C43_3 C 0.8816(11) 0.3807(3) 0.41767(19)
C44_3 C 0.8797(6) 0.3941(3) 0.51552(18)
H32_3 H 0.8784 0.4139 0.5337
C45_3 C 0.8801(7) 0.4057(3) 0.4792(2)
H33_3 H 0.8784 0.4331 0.4730
C46_3 C 0.8851(14) 0.3245(3) 0.4980(3)
H34_3 H 0.8835 0.2971 0.5042
C47_3 C 0.8829(9) 0.3763(4) 0.45201(17)
C48_3 C 0.8913(11) 0.3361(3) 0.4619(3)
H35_3 H 0.9013 0.3166 0.4440
N5_3 N 0.7030(6) 0.2983(3) 0.6608(2)
N7_3 N 0.9072(5) 0.4565(2) 0.65218(18)
N8_3 N 0.8812(5) 0.3537(3) 0.5251(2)
O13_3 O 0.9535(4) 0.58711(19) 0.71599(16)
O19_3 O 0.8682(11) 0.4162(4) 0.4070(5)
Cu5_3 Cu 0.89270(9) 0.39781(3) 0.63817(3)
Cu6_3 Cu 0.88192(10) 0.34850(4) 0.58277(3)
Cu7_3 Cu 0.79751(9) 0.33416(4) 0.64350(3)
Cu8_3 Cu 0.96196(9) 0.32537(4) 0.64420(3)
I5_3 I 0.88706(4) 0.35609(2) 0.70256(2)
I6_3 I 0.74503(5) 0.39340(2) 0.60184(2)
I8_3 I 0.87219(6) 0.27236(2) 0.60256(2)
C1_4 C 0.0370(9) 0.3012(4) 0.3128(3)
C2_4 C 0.0949(9) 0.2653(4) 0.3220(4)
C6_4 C 0.0830(7) 0.2432(3) 0.3539(2)
H2_4 H 0.0378 0.2488 0.3695
C7_4 C 0.3841(6) 0.0278(3) 0.3168(3)
H3_4 H 0.3518 0.0440 0.3012
C9_4 C 0.4524(8) 0.0188(3) 0.3700(2)
H5_4 H 0.4711 0.0287 0.3925
C10_4 C 0.7560(6) 0.2948(3) 0.3089(2)
C11_4 C 0.6883(7) 0.2645(3) 0.3183(2)
C12_4 C 0.1555(7) 0.2536(3) 0.2985(2)
H6_4 H 0.1620 0.2666 0.2761
C13_4 C 0.2082(7) 0.2219(3) 0.3081(2)
H7_4 H 0.2501 0.2142 0.2916
C14_4 C 0.1396(7) 0.2132(3) 0.3617(3)
H8_4 H 0.1342 0.1998 0.3839
C15_4 C 0.5810(8) 0.2163(4) 0.3037(2)
H9_4 H 0.5531 0.2017 0.2855
C16_4 C 0.6027(8) 0.2339(4) 0.3627(3)
H10_4 H 0.5858 0.2333 0.3871
C17_4 C 0.6680(11) 0.2563(5) 0.3542(4)
H11_4 H 0.7016 0.2670 0.3727
C18_4 C 0.6439(8) 0.2418(4) 0.2936(3)
H12_4 H 0.6575 0.2440 0.2690
C19_4 C 0.3816(11) 0.1193(3) 0.58233(19)
C20_4 C 0.3797(6) 0.1059(3) 0.48448(18)
H13_4 H 0.3784 0.0861 0.4663
C21_4 C 0.3801(7) 0.0943(3) 0.5208(2)
H14_4 H 0.3784 0.0669 0.5270
C22_4 C 0.3851(14) 0.1755(3) 0.5020(3)
H15_4 H 0.3835 0.2029 0.4958
C23_4 C 0.3829(9) 0.1237(4) 0.54799(17)
C24_4 C 0.3913(11) 0.1639(3) 0.5381(3)
H16_4 H 0.4013 0.1834 0.5560
N1_4 N 0.2030(6) 0.2017(3) 0.3392(2)
N2_4 N 0.5566(6) 0.2108(3) 0.33808(18)
N3_4 N 0.4072(5) 0.0435(2) 0.34782(18)
N4_4 N 0.3812(5) 0.1463(3) 0.4749(2)
O9_4 O 0.3682(11) 0.0838(4) 0.5930(5)
O10_4 O 0.7695(5) 0.2989(2) 0.27606(15)
Cu1_4 Cu 0.39270(9) 0.10219(3) 0.36183(3)
Cu2_4 Cu 0.38192(10) 0.15150(4) 0.41723(3)
Cu3_4 Cu 0.29751(9) 0.16584(4) 0.35650(3)
Cu4_4 Cu 0.46196(9) 0.17463(4) 0.35580(3)
I1_4 I 0.38706(4) 0.14391(2) 0.29744(2)
I2_4 I 0.24503(5) 0.10660(2) 0.39816(2)
I3_4 I 0.53403(5) 0.11986(2) 0.40026(2)
I4_4 I 0.37219(6) 0.22764(2) 0.39744(2)
C25_4 C 0.9630(9) 0.3012(4) 0.1872(3)
C26_4 C 0.9051(9) 0.2653(4) 0.1780(4)
C30_4 C 0.9170(7) 0.2432(3) 0.1461(2)
H21_4 H 0.9622 0.2488 0.1305
C31_4 C 0.6159(6) 0.0278(3) 0.1832(3)
H22_4 H 0.6482 0.0440 0.1988
C33_4 C 0.5476(8) 0.0188(3) 0.1300(2)
H24_4 H 0.5289 0.0287 0.1075
C34_4 C 0.2440(6) 0.2948(3) 0.1911(2)
C35_4 C 0.3117(7) 0.2645(3) 0.1817(2)
C36_4 C 0.8445(7) 0.2536(3) 0.2015(2)
H25_4 H 0.8380 0.2666 0.2239
C37_4 C 0.7918(7) 0.2219(3) 0.1919(2)
H26_4 H 0.7499 0.2142 0.2084
C38_4 C 0.8604(7) 0.2132(3) 0.1383(3)
H27_4 H 0.8658 0.1998 0.1161
C39_4 C 0.4190(8) 0.2163(4) 0.1963(2)
H28_4 H 0.4469 0.2017 0.2145
C40_4 C 0.3973(8) 0.2339(4) 0.1373(3)
H29_4 H 0.4142 0.2333 0.1129
C41_4 C 0.3320(11) 0.2563(5) 0.1458(4)
H30_4 H 0.2984 0.2670 0.1273
C42_4 C 0.3561(8) 0.2418(4) 0.2064(3)
H31_4 H 0.3425 0.2440 0.2310
C44_4 C 0.6203(6) 0.1059(3) 0.01552(18)
H32_4 H 0.6216 0.0861 0.0337
H34_4 H 0.6165 0.2029 0.0042
N5_4 N 0.7970(6) 0.2017(3) 0.1608(2)
N6_4 N 0.4434(6) 0.2108(3) 0.16192(18)
N7_4 N 0.5928(5) 0.0435(2) 0.15218(18)
N8_4 N 0.6188(5) 0.1463(3) 0.0251(2)
O20_4 O 0.2305(5) 0.2989(2) 0.22394(15)
Cu5_4 Cu 0.60730(9) 0.10219(3) 0.13817(3)
Cu6_4 Cu 0.61808(10) 0.15150(4) 0.08277(3)
Cu7_4 Cu 0.70249(9) 0.16584(4) 0.14350(3)
Cu8_4 Cu 0.53804(9) 0.17463(4) 0.14420(3)
I5_4 I 0.61294(4) 0.14391(2) 0.20256(2)
I6_4 I 0.75497(5) 0.10660(2) 0.10184(2)
I7_4 I 0.46597(5) 0.11986(2) 0.09974(2)
I8_4 I 0.62781(6) 0.22764(2) 0.10256(2)
C43_4 C 0.6184(11) 0.1193(3) 0.91767(19)
C45_4 C 0.6199(7) 0.0943(3) 0.9792(2)
H33_4 H 0.6216 0.0669 0.9730
C46_4 C 0.6149(14) 0.1755(3) 0.9980(3)
C47_4 C 0.6171(9) 0.1237(4) 0.95201(17)
C48_4 C 0.6087(11) 0.1639(3) 0.9619(3)
H35_4 H 0.5987 0.1834 0.9440
O19_4 O 0.6318(11) 0.0838(4) 0.9070(5)
C3_4 C 0.4776(7) 0.9227(3) 0.31566(19)
C4_4 C 0.4500(7) 0.9638(2) 0.3275(2)
C5_4 C 0.4035(7) 0.9890(3) 0.3049(3)
H1_4 H 0.3855 0.9800 0.2821
C8_4 C 0.4715(7) 0.9796(3) 0.3604(2)
H4_4 H 0.5003 0.9634 0.3771
H17_4 H 0.6600 0.8613 0.2682
H18_4 H 0.7034 0.9267 0.3403
H19_4 H 0.7679 0.8944 0.3391
O2_4 O 0.5203(5) 0.90315(17) 0.33740(15)
O3_4 O 0.4535(4) 0.91289(19) 0.28401(16)
O5_4 O 0.6133(3) 0.86154(15) 0.27821(12)
O8_4 O 0.7150(7) 0.9020(3) 0.3377(2)
C27_4 C 0.5224(7) 0.9227(3) 0.18434(19)
C28_4 C 0.5500(7) 0.9638(2) 0.1725(2)
C29_4 C 0.5965(7) 0.9890(3) 0.1951(3)
H20_4 H 0.6145 0.9800 0.2179
C32_4 C 0.5285(7) 0.9796(3) 0.1396(2)
H23_4 H 0.4997 0.9634 0.1229
H36_4 H 0.3400 0.8613 0.2318
H37_4 H 0.2966 0.9267 0.1597
H38_4 H 0.2321 0.8944 0.1609
O12_4 O 0.4797(5) 0.90315(17) 0.16260(15)
O13_4 O 0.5465(4) 0.91289(19) 0.21599(16)
O15_4 O 0.3867(3) 0.86154(15) 0.22179(12)
O18_4 O 0.2850(7) 0.9020(3) 0.1623(2)
loop_
_geom_bond_atom_site_label_1
_geom_bond_atom_site_label_2
_geom_bond_site_symmetry_1
_geom_bond_site_symmetry_2
C10 C11 1_555 1_555
C11 C17 1_555 1_555
C15 H9 1_555 1_555
C16 H10 1_555 1_555
C17 C16 1_555 1_555
H11 C17 1_555 1_555
C18 C11 1_555 1_555
H12 C18 1_555 1_555
H17 O5 1_555 1_555
H18 O8 1_555 1_555
H19 O8 1_555 1_555
N2 C15 1_555 1_555
O5 In1 1_555 1_555
O6 C10 1_555 1_555
O8 In2 1_555 1_555
O10 C10 1_555 1_555
In2 O2 1_555 1_555
C25 C26 1_555 1_555
C26 C30 1_555 1_555
C27 C28 1_555 1_555
C28 C29 1_555 1_555
C29 H20 1_555 1_555
C30 H21 1_555 1_555
C31 C29 1_555 1_555
H22 C31 1_555 1_555
C32 C28 1_555 1_555
C33 C32 1_555 1_555
H24 C33 1_555 1_555
C36 C26 1_555 1_555
H25 C36 1_555 1_555
C37 C36 1_555 1_555
H26 C37 1_555 1_555
C38 C30 1_555 1_555
H27 C38 1_555 1_555
C43 C47 1_555 1_555
C44 H32 1_555 1_555
C45 C44 1_555 1_555
H33 C45 1_555 1_555
C46 H34 1_555 1_555
C47 C45 1_555 1_555
C48 C46 1_555 1_555
H35 C48 1_555 1_555
N5 C37 1_555 1_555
N7 C31 1_555 1_555
N8 C44 1_555 1_555
O11 C25 1_555 1_555
O13 In1 1_555 1_555
O14 C25 1_555 1_555
O17 C43 1_555 1_555
O19 C43 1_555 1_555
Cu5 N7 1_555 1_555
Cu6 N8 1_555 1_555
Cu7 N5 1_555 1_555
I5 Cu5 1_555 1_555
I6 Cu5 1_555 1_555
I8 Cu6 1_555 1_555
O22 In2 1_555 1_555
O23 In1 1_555 1_555
O26 In2 1_555 1_555
O27 In2 1_555 1_555
In5 O14 1_555 1_555
In8 O11 1_555 1_555
In9 O17 1_555 1_555
In11 O6 1_555 1_555
C15 C18 1_555 1_555
C16 N2 1_555 1_555
O5 In2 1_555 1_555
C27 O13 1_555 1_555
C33 N7 1_555 1_555
C38 N5 1_555 1_555
C46 N8 1_555 1_555
C47 C48 1_555 1_555
Cu6 I6 1_555 1_555
Cu7 I5 1_555 1_555
Cu7 I6 1_555 1_555
Cu7 I8 1_555 1_555
Cu8 I5 1_555 1_555
Cu8 I8 1_555 1_555
C1 C2 1_555 1_555
C2 C6 1_555 1_555
C3 C4 1_555 1_555
C4 C5 1_555 1_555
C5 H1 1_555 1_555
C6 H2 1_555 1_555
C7 C5 1_555 1_555
H3 C7 1_555 1_555
C8 C4 1_555 1_555
C9 C8 1_555 1_555
H5 C9 1_555 1_555
C12 C2 1_555 1_555
H6 C12 1_555 1_555
C13 C12 1_555 1_555
H7 C13 1_555 1_555
C14 C6 1_555 1_555
H8 C14 1_555 1_555
C20 H13 1_555 1_555
N1 C13 1_555 1_555
N3 C7 1_555 1_555
N4 C20 1_555 1_555
O1 C1 1_555 1_555
O3 C3 1_555 1_555
O4 C1 1_555 1_555
Cu1 N3 1_555 1_555
Cu2 N4 1_555 1_555
Cu3 N1 1_555 1_555
I1 Cu1 1_555 1_555
I2 Cu1 1_555 1_555
I4 Cu2 1_555 1_555
In1_2 O3 1_555 1_555
C34 C35 1_555 1_555
C35 C41 1_555 1_555
C39 H28 1_555 1_555
C40 H29 1_555 1_555
C41 C40 1_555 1_555
H30 C41 1_555 1_555
C42 C35 1_555 1_555
H31 C42 1_555 1_555
H36 O15 1_555 1_555
H37 O18 1_555 1_555
H38 O18 1_555 1_555
N6 C39 1_555 1_555
O15 In1_2 1_555 1_555
O16 C34 1_555 1_555
O18 In3 1_555 1_555
O20 C34 1_555 1_555
In3 O12 1_555 1_555
O21 In3 1_555 1_555
O24 In1_2 1_555 1_555
O25 In3 1_555 1_555
O28 In3 1_555 1_555
In5 O4 1_555 1_555
In8 O16 1_555 1_555
In11 O1 1_555 1_555
C9 N3 1_555 1_555
C14 N1 1_555 1_555
Cu2 I2 1_555 1_555
Cu3 I1 1_555 1_555
Cu3 I2 1_555 1_555
Cu3 I4 1_555 1_555
Cu4 I1 1_555 1_555
Cu4 I4 1_555 1_555
C39 C42 1_555 1_555
C40 N6 1_555 1_555
O15 In3 1_555 1_555
C19 C23 1_555 1_555
H14 C21 1_555 1_555
C23 C21 1_555 1_555
C24 C22 1_555 1_555
H16 C24 1_555 1_555
O7 C19 1_555 1_555
O9 C19 1_555 1_555
In6 O7 1_555 1_555
C23 C24 1_555 1_555
In9 O1_2 1_555 1_555
C3_2 C4_2 1_555 1_555
C4_2 C5_2 1_555 1_555
C5_2 H1_2 1_555 1_555
C8_2 C4_2 1_555 1_555
H4_2 C8_2 1_555 1_555
H17_2 O5_2 1_555 1_555
H18_2 O8_2 1_555 1_555
H19_2 O8_2 1_555 1_555
O2_2 C3_2 1_555 1_555
O3_2 C3_2 1_555 1_555
O5_2 In1_3 1_555 1_555
O8_2 In2_2 1_555 1_555
In1_3 O3_2 1_555 1_555
In2_2 O2_2 1_555 1_555
C27_2 C28_2 1_555 1_555
C28_2 C29_2 1_555 1_555
C29_2 H20_2 1_555 1_555
C32_2 C28_2 1_555 1_555
H23_2 C32_2 1_555 1_555
H36_2 O15_2 1_555 1_555
H37_2 O18_2 1_555 1_555
H38_2 O18_2 1_555 1_555
O12_2 C27_2 1_555 1_555
O13_2 In1_3 1_555 1_555
O15_2 In1_3 1_555 1_555
O18_2 In3_2 1_555 1_555
In3_2 O12_2 1_555 1_555
O21_2 In3_2 1_555 1_555
O22_2 In2_2 1_555 1_555
O23_2 In1_3 1_555 1_555
O24_2 In1_3 1_555 1_555
O25_2 In3_2 1_555 1_555
O26_2 In2_2 1_555 1_555
O27_2 In2_2 1_555 1_555
O28_2 In3_2 1_555 1_555
O5_2 In2_2 1_555 1_555
C27_2 O13_2 1_555 1_555
O15_2 In3_2 1_555 1_555
C43_2 C47_2 1_555 1_555
H33_2 C45_2 1_555 1_555
C47_2 C45_2 1_555 1_555
C48_2 C46_2 1_555 1_555
H35_2 C48_2 1_555 1_555
O17_2 C43_2 1_555 1_555
O19_2 C43_2 1_555 1_555
In11 O17_2 1_555 1_555
C47_2 C48_2 1_555 1_555
C1_2 C2_2 1_555 1_555
C2_2 C6_2 1_555 1_555
C6_2 H2_2 1_555 1_555
H3_2 C7_2 1_555 1_555
H5_2 C9_2 1_555 1_555
C10_2 C11_2 1_555 1_555
C11_2 C17_2 1_555 1_555
C12_2 C2_2 1_555 1_555
H6_2 C12_2 1_555 1_555
C13_2 C12_2 1_555 1_555
H7_2 C13_2 1_555 1_555
C14_2 C6_2 1_555 1_555
H8_2 C14_2 1_555 1_555
C15_2 H9_2 1_555 1_555
C16_2 H10_2 1_555 1_555
C17_2 C16_2 1_555 1_555
H11_2 C17_2 1_555 1_555
C18_2 C11_2 1_555 1_555
H12_2 C18_2 1_555 1_555
C19_2 C23_2 1_555 1_555
C20_2 H13_2 1_555 1_555
C21_2 C20_2 1_555 1_555
H14_2 C21_2 1_555 1_555
C22_2 H15_2 1_555 1_555
C23_2 C21_2 1_555 1_555
C24_2 C22_2 1_555 1_555
H16_2 C24_2 1_555 1_555
N1_2 C13_2 1_555 1_555
N2_2 C15_2 1_555 1_555
N3_2 C7_2 1_555 1_555
N4_2 C20_2 1_555 1_555
O4_2 C1_2 1_555 1_555
O6_2 C10_2 1_555 1_555
O7_2 C19_2 1_555 1_555
O9_2 C19_2 1_555 1_555
O10_2 C10_2 1_555 1_555
Cu1_2 N3_2 1_555 1_555
Cu2_2 N4_2 1_555 1_555
Cu3_2 N1_2 1_555 1_555
Cu4_2 N2_2 1_555 1_555
I1_2 Cu1_2 1_555 1_555
I2_2 Cu1_2 1_555 1_555
I3_2 Cu1_2 1_555 1_555
I4_2 Cu2_2 1_555 1_555
C25_2 C26_2 1_555 1_555
C26_2 C30_2 1_555 1_555
C30_2 H21_2 1_555 1_555
H22_2 C31_2 1_555 1_555
H24_2 C33_2 1_555 1_555
C34_2 C35_2 1_555 1_555
C35_2 C41_2 1_555 1_555
C36_2 C26_2 1_555 1_555
H25_2 C36_2 1_555 1_555
C37_2 C36_2 1_555 1_555
H26_2 C37_2 1_555 1_555
C38_2 C30_2 1_555 1_555
H27_2 C38_2 1_555 1_555
C39_2 H28_2 1_555 1_555
C40_2 H29_2 1_555 1_555
C41_2 C40_2 1_555 1_555
H30_2 C41_2 1_555 1_555
C42_2 C35_2 1_555 1_555
H31_2 C42_2 1_555 1_555
C44_2 H32_2 1_555 1_555
N5_2 C37_2 1_555 1_555
N6_2 C39_2 1_555 1_555
N7_2 C31_2 1_555 1_555
N8_2 C44_2 1_555 1_555
O14_2 C25_2 1_555 1_555
O16_2 C34_2 1_555 1_555
O20_2 C34_2 1_555 1_555
Cu5_2 N7_2 1_555 1_555
Cu6_2 N8_2 1_555 1_555
Cu7_2 N5_2 1_555 1_555
Cu8_2 N6_2 1_555 1_555
I5_2 Cu5_2 1_555 1_555
I6_2 Cu5_2 1_555 1_555
I7_2 Cu5_2 1_555 1_555
I8_2 Cu6_2 1_555 1_555
In4_2 O4_2 1_555 1_555
In4 O14_2 1_555 1_555
In8 O7_2 1_555 1_555
In6 O16_2 1_555 1_555
In9 O6_2 1_555 1_555
C9_2 N3_2 1_555 1_555
C14_2 N1_2 1_555 1_555
C15_2 C18_2 1_555 1_555
C16_2 N2_2 1_555 1_555
C22_2 N4_2 1_555 1_555
C23_2 C24_2 1_555 1_555
Cu2_2 I2_2 1_555 1_555
Cu2_2 I3_2 1_555 1_555
Cu3_2 I1_2 1_555 1_555
Cu3_2 I2_2 1_555 1_555
Cu3_2 I4_2 1_555 1_555
Cu4_2 I1_2 1_555 1_555
Cu4_2 I3_2 1_555 1_555
Cu4_2 I4_2 1_555 1_555
C33_2 N7_2 1_555 1_555
C38_2 N5_2 1_555 1_555
C39_2 C42_2 1_555 1_555
C40_2 N6_2 1_555 1_555
Cu6_2 I6_2 1_555 1_555
Cu6_2 I7_2 1_555 1_555
Cu7_2 I5_2 1_555 1_555
Cu7_2 I6_2 1_555 1_555
Cu7_2 I8_2 1_555 1_555
Cu8_2 I5_2 1_555 1_555
Cu8_2 I7_2 1_555 1_555
Cu8_2 I8_2 1_555 1_555
In6 O11_2 1_555 1_555
C19_3 C23_3 1_555 1_555
H14_3 C21_3 1_555 1_555
C23_3 C21_3 1_555 1_555
C24_3 C22_3 1_555 1_555
H16_3 C24_3 1_555 1_555
O27 C19_3 1_555 1_555
O9_3 C19_3 1_555 1_555
C23_3 C24_3 1_555 1_555
C1_3 C2_3 1_555 1_555
C2_3 C6_3 1_555 1_555
C3_3 C4_3 1_555 1_555
C4_3 C5_3 1_555 1_555
C5_3 H1_3 1_555 1_555
C6_3 H2_3 1_555 1_555
C7_3 C5_3 1_555 1_555
H3_3 C7_3 1_555 1_555
C8_3 C4_3 1_555 1_555
C9_3 C8_3 1_555 1_555
H5_3 C9_3 1_555 1_555
C12_3 C2_3 1_555 1_555
H6_3 C12_3 1_555 1_555
C13_3 C12_3 1_555 1_555
H7_3 C13_3 1_555 1_555
C14_3 C6_3 1_555 1_555
H8_3 C14_3 1_555 1_555
C20_3 H13_3 1_555 1_555
N1_3 C13_3 1_555 1_555
N3_3 C7_3 1_555 1_555
N4_3 C20_3 1_555 1_555
O21_2 C1_3 1_555 1_555
O3_3 C3_3 1_555 1_555
O23_2 C1_3 1_555 1_555
Cu1_3 N3_3 1_555 1_555
Cu2_3 N4_3 1_555 1_555
Cu3_3 N1_3 1_555 1_555
I1_3 Cu1_3 1_555 1_555
I2_3 Cu1_3 1_555 1_555
I4_3 Cu2_3 1_555 1_555
In4 O3_3 1_555 1_555
C34_3 C35_3 1_555 1_555
C35_3 C41_3 1_555 1_555
C39_3 H28_3 1_555 1_555
C40_3 H29_3 1_555 1_555
C41_3 C40_3 1_555 1_555
H30_3 C41_3 1_555 1_555
C42_3 C35_3 1_555 1_555
H31_3 C42_3 1_555 1_555
H36_3 O15_3 1_555 1_555
H37_3 O18_3 1_555 1_555
H38_3 O18_3 1_555 1_555
N6_3 C39_3 1_555 1_555
O15_3 In4 1_555 1_555
O26_2 C34_3 1_555 1_555
O18_3 In9 1_555 1_555
O20_3 C34_3 1_555 1_555
In9 O12_3 1_555 1_555
C9_3 N3_3 1_555 1_555
C14_3 N1_3 1_555 1_555
Cu2_3 I2_3 1_555 1_555
Cu3_3 I1_3 1_555 1_555
Cu3_3 I2_3 1_555 1_555
Cu3_3 I4_3 1_555 1_555
Cu4_3 I1_3 1_555 1_555
Cu4_3 I4_3 1_555 1_555
C39_3 C42_3 1_555 1_555
C40_3 N6_3 1_555 1_555
O15_3 In9 1_555 1_555
C10_3 C11_3 1_555 1_555
C11_3 C17_3 1_555 1_555
C15_3 H9_3 1_555 1_555
C16_3 H10_3 1_555 1_555
C17_3 C16_3 1_555 1_555
H11_3 C17_3 1_555 1_555
C18_3 C11_3 1_555 1_555
H12_3 C18_3 1_555 1_555
H17_3 O5_3 1_555 1_555
H18_3 O8_3 1_555 1_555
H19_3 O8_3 1_555 1_555
N2_3 C15_3 1_555 1_555
O5_3 In4_2 1_555 1_555
O25_2 C10_3 1_555 1_555
O8_3 In6 1_555 1_555
O10_3 C10_3 1_555 1_555
In6 O2_3 1_555 1_555
C25_3 C26_3 1_555 1_555
C26_3 C30_3 1_555 1_555
C27_3 C28_3 1_555 1_555
C28_3 C29_3 1_555 1_555
C29_3 H20_3 1_555 1_555
C30_3 H21_3 1_555 1_555
C31_3 C29_3 1_555 1_555
H22_3 C31_3 1_555 1_555
C32_3 C28_3 1_555 1_555
C33_3 C32_3 1_555 1_555
H24_3 C33_3 1_555 1_555
C36_3 C26_3 1_555 1_555
H25_3 C36_3 1_555 1_555
C37_3 C36_3 1_555 1_555
H26_3 C37_3 1_555 1_555
C38_3 C30_3 1_555 1_555
H27_3 C38_3 1_555 1_555
C43_3 C47_3 1_555 1_555
C44_3 H32_3 1_555 1_555
C45_3 C44_3 1_555 1_555
H33_3 C45_3 1_555 1_555
C46_3 H34_3 1_555 1_555
C47_3 C45_3 1_555 1_555
C48_3 C46_3 1_555 1_555
H35_3 C48_3 1_555 1_555
N5_3 C37_3 1_555 1_555
N7_3 C31_3 1_555 1_555
N8_3 C44_3 1_555 1_555
O22_2 C25_3 1_555 1_555
O13_3 In4_2 1_555 1_555
O24_2 C25_3 1_555 1_555
O28 C43_3 1_555 1_555
O19_3 C43_3 1_555 1_555
Cu5_3 N7_3 1_555 1_555
Cu6_3 N8_3 1_555 1_555
Cu7_3 N5_3 1_555 1_555
I5_3 Cu5_3 1_555 1_555
I6_3 Cu5_3 1_555 1_555
I8_3 Cu6_3 1_555 1_555
C15_3 C18_3 1_555 1_555
C16_3 N2_3 1_555 1_555
O5_3 In6 1_555 1_555
C27_3 O13_3 1_555 1_555
C33_3 N7_3 1_555 1_555
C38_3 N5_3 1_555 1_555
C46_3 N8_3 1_555 1_555
C47_3 C48_3 1_555 1_555
Cu6_3 I6_3 1_555 1_555
Cu7_3 I5_3 1_555 1_555
Cu7_3 I6_3 1_555 1_555
Cu7_3 I8_3 1_555 1_555
Cu8_3 I5_3 1_555 1_555
Cu8_3 I8_3 1_555 1_555
C1_4 C2_4 1_555 1_555
C2_4 C6_4 1_555 1_555
C6_4 H2_4 1_555 1_555
H3_4 C7_4 1_555 1_555
H5_4 C9_4 1_555 1_555
C10_4 C11_4 1_555 1_555
C11_4 C17_4 1_555 1_555
C12_4 C2_4 1_555 1_555
H6_4 C12_4 1_555 1_555
C13_4 C12_4 1_555 1_555
H7_4 C13_4 1_555 1_555
C14_4 C6_4 1_555 1_555
H8_4 C14_4 1_555 1_555
C15_4 H9_4 1_555 1_555
C16_4 H10_4 1_555 1_555
C17_4 C16_4 1_555 1_555
H11_4 C17_4 1_555 1_555
C18_4 C11_4 1_555 1_555
H12_4 C18_4 1_555 1_555
C19_4 C23_4 1_555 1_555
C20_4 H13_4 1_555 1_555
C21_4 C20_4 1_555 1_555
H14_4 C21_4 1_555 1_555
C22_4 H15_4 1_555 1_555
C23_4 C21_4 1_555 1_555
C24_4 C22_4 1_555 1_555
H16_4 C24_4 1_555 1_555
N1_4 C13_4 1_555 1_555
N2_4 C15_4 1_555 1_555
N3_4 C7_4 1_555 1_555
N4_4 C20_4 1_555 1_555
O23 C1_4 1_555 1_555
O25 C10_4 1_555 1_555
O27_2 C19_4 1_555 1_555
O9_4 C19_4 1_555 1_555
O10_4 C10_4 1_555 1_555
Cu1_4 N3_4 1_555 1_555
Cu2_4 N4_4 1_555 1_555
Cu3_4 N1_4 1_555 1_555
Cu4_4 N2_4 1_555 1_555
I1_4 Cu1_4 1_555 1_555
I2_4 Cu1_4 1_555 1_555
I3_4 Cu1_4 1_555 1_555
I4_4 Cu2_4 1_555 1_555
C25_4 C26_4 1_555 1_555
C26_4 C30_4 1_555 1_555
C30_4 H21_4 1_555 1_555
H22_4 C31_4 1_555 1_555
H24_4 C33_4 1_555 1_555
C34_4 C35_4 1_555 1_555
C35_4 C41_4 1_555 1_555
C36_4 C26_4 1_555 1_555
H25_4 C36_4 1_555 1_555
C37_4 C36_4 1_555 1_555
H26_4 C37_4 1_555 1_555
C38_4 C30_4 1_555 1_555
H27_4 C38_4 1_555 1_555
C39_4 H28_4 1_555 1_555
C40_4 H29_4 1_555 1_555
C41_4 C40_4 1_555 1_555
H30_4 C41_4 1_555 1_555
C42_4 C35_4 1_555 1_555
H31_4 C42_4 1_555 1_555
C44_4 H32_4 1_555 1_555
N5_4 C37_4 1_555 1_555
N6_4 C39_4 1_555 1_555
N7_4 C31_4 1_555 1_555
N8_4 C44_4 1_555 1_555
O24 C25_4 1_555 1_555
O26 C34_4 1_555 1_555
O20_4 C34_4 1_555 1_555
Cu5_4 N7_4 1_555 1_555
Cu6_4 N8_4 1_555 1_555
Cu7_4 N5_4 1_555 1_555
Cu8_4 N6_4 1_555 1_555
I5_4 Cu5_4 1_555 1_555
I6_4 Cu5_4 1_555 1_555
I7_4 Cu5_4 1_555 1_555
I8_4 Cu6_4 1_555 1_555
C9_4 N3_4 1_555 1_555
C14_4 N1_4 1_555 1_555
C15_4 C18_4 1_555 1_555
C16_4 N2_4 1_555 1_555
C22_4 N4_4 1_555 1_555
C23_4 C24_4 1_555 1_555
Cu2_4 I2_4 1_555 1_555
Cu2_4 I3_4 1_555 1_555
Cu3_4 I1_4 1_555 1_555
Cu3_4 I2_4 1_555 1_555
Cu3_4 I4_4 1_555 1_555
Cu4_4 I1_4 1_555 1_555
Cu4_4 I3_4 1_555 1_555
Cu4_4 I4_4 1_555 1_555
C33_4 N7_4 1_555 1_555
C38_4 N5_4 1_555 1_555
C39_4 C42_4 1_555 1_555
C40_4 N6_4 1_555 1_555
Cu6_4 I6_4 1_555 1_555
Cu6_4 I7_4 1_555 1_555
Cu7_4 I5_4 1_555 1_555
Cu7_4 I6_4 1_555 1_555
Cu7_4 I8_4 1_555 1_555
Cu8_4 I5_4 1_555 1_555
Cu8_4 I7_4 1_555 1_555
Cu8_4 I8_4 1_555 1_555
C43_4 C47_4 1_555 1_555
H33_4 C45_4 1_555 1_555
C47_4 C45_4 1_555 1_555
C48_4 C46_4 1_555 1_555
H35_4 C48_4 1_555 1_555
O28_2 C43_4 1_555 1_555
O19_4 C43_4 1_555 1_555
C47_4 C48_4 1_555 1_555
C3_4 C4_4 1_555 1_555
C4_4 C5_4 1_555 1_555
C5_4 H1_4 1_555 1_555
C8_4 C4_4 1_555 1_555
H4_4 C8_4 1_555 1_555
H17_4 O5_4 1_555 1_555
H18_4 O8_4 1_555 1_555
H19_4 O8_4 1_555 1_555
O2_4 C3_4 1_555 1_555
O3_4 C3_4 1_555 1_555
O5_4 In5 1_555 1_555
O8_4 In8 1_555 1_555
In5 O3_4 1_555 1_555
In8 O2_4 1_555 1_555
C27_4 C28_4 1_555 1_555
C28_4 C29_4 1_555 1_555
C29_4 H20_4 1_555 1_555
C32_4 C28_4 1_555 1_555
H23_4 C32_4 1_555 1_555
H36_4 O15_4 1_555 1_555
H37_4 O18_4 1_555 1_555
H38_4 O18_4 1_555 1_555
O12_4 C27_4 1_555 1_555
O13_4 In5 1_555 1_555
O15_4 In5 1_555 1_555
O18_4 In11 1_555 1_555
In11 O12_4 1_555 1_555
O5_4 In8 1_555 1_555
C27_4 O13_4 1_555 1_555
O15_4 In11 1_555 1_555

#END
