
###############################################################################
#
# This file contains modified crystal structure data generated from the
# MOF subset of the Cambridge Structural Database (CSD) v543 
# hosted by the Cambridge Crystallographic Data Centre (CCDC).
#
# This work is licensed under the Creative Commons
# Attribution-NonCommercial-ShareAlike 4.0 International License.
# To view a copy of this license, visit
# http://creativecommons.org/licenses/by-nc-sa/4.0/
# or send a letter to
# Creative Commons, PO Box 1866, Mountain View, CA 94042, USA.
#
# CIF created using the CSD Python API on 29 September 2022
# The structure has been converted into the P1 space group
# The structure has a 3D framework
# The original CSD entry PIPXAQ is in the orthorhombic crystal system
# The framework has been calculated to contain at least 10.0% void space
# The void calculation uses a probe of radius 1.32A, grid spacing 0.4
#
###############################################################################

data_PIPXAQ
_chemical_formula_moiety         '(C192 H136 Co8 N24 O48)n'
_symmetry_cell_setting           triclinic
_symmetry_space_group_name_H-M   'P 1'
_symmetry_Int_Tables_number      1
_space_group_name_Hall           'P 1'
loop_
_symmetry_equiv_pos_site_id
_symmetry_equiv_pos_as_xyz
1 x,y,z
_cell_length_a                   13.7188(5)
_cell_length_b                   14.6125(6)
_cell_length_c                   30.1914(12)
_cell_angle_alpha                90
_cell_angle_beta                 90
_cell_angle_gamma                90
_cell_volume                     6052.35
loop_
_atom_site_label
_atom_site_type_symbol
_atom_site_fract_x
_atom_site_fract_y
_atom_site_fract_z
C6 C 0.3652(8) 0.4403(7) 0.5145(4)
H3 H 0.3368 0.4680 0.4900
C18 C 0.3704(8) 0.3361(7) 0.5146(4)
H14 H 0.3436 0.3029 0.4913
C27 C 0.3969(8) 0.0141(9) 0.5346(5)
N4 N 0.3978(5) 0.4948(5) 0.5464(3)
C29 C 0.4159(7) 0.2898(7) 0.5500(5)
C37 C 0.4466(10) 0.3489(8) 0.5843(6)
H25 H 0.4718 0.3236 0.6101
C40 C 0.4403(7) 0.4452(7) 0.5808(4)
H27 H 0.4673 0.4790 0.6039
C43 C 0.3943(8) 0.1211(9) 0.5293(4)
H29 H 0.3651 0.1388 0.5028
H32 H 0.4700 0.0029 0.5869
C47 C 0.4219(9) 0.1885(7) 0.5517(7)
H33 H 0.4561 0.1695 0.5767
Co5 Co 0.39375(9) 0.65138(10) 0.54493(4)
Co1 Co 0.60152(9) 0.59852(10) 0.45337(4)
O1 O 0.3432(5) 0.6550(4) 0.4832(2)
O2 O 0.8860(5) 0.6020(5) 0.8828(3)
O3 O 0.4653(5) 0.5989(5) 0.4495(3)
N1 N 0.5933(6) 0.4395(5) 0.4537(4)
O4 O 0.7603(5) 0.6009(6) 0.9216(3)
O5 O 0.5310(4) 0.6602(5) 0.5515(3)
N2 N 0.3951(5) 0.8074(6) 0.5429(4)
C1 C 0.5453(10) 0.2939(7) 0.4171(5)
H1 H 0.5169 0.2686 0.3920
C2 C 0.8011(8) 0.6016(7) 0.8860(4)
O6 O 0.6480(6) 0.5916(4) 0.5166(2)
C3 C 0.6065(6) 0.6212(7) 0.5517(3)
O7 O 0.2452(7) 0.6523(7) 0.0786(3)
C4 C 0.5497(10) 0.3967(9) 0.4207(4)
H2 H 0.5203 0.4315 0.3987
C5 C 0.5804(8) 0.2361(8) 0.4484(5)
C7 C 0.6566(8) 0.6119(9) 0.5935(3)
H4 H 0.7197 0.5887 0.5927
O8 O 0.1172(6) 0.6579(7) 0.1157(3)
C8 C 0.2445(11) 0.6692(14) 0.3194(4)
H5 H 0.2077 0.6855 0.3440
C9 C 0.2566(10) 0.6577(10) 0.1574(4)
H6 H 0.3244 0.6583 0.1571
C10 C 0.3514(10) 0.8546(7) 0.5075(5)
H7 H 0.3181 0.8225 0.4856
C11 C 0.3362(7) 0.6474(7) 0.4074(3)
H8 H 0.2720 0.6677 0.4078
C12 C 0.3763(8) 0.6319(11) 0.3689(4)
H9 H 0.4408 0.6124 0.3697
C13 C 0.6173(10) 0.6432(14) 0.7139(5)
H10 H 0.5529 0.6620 0.7113
C14 C 0.6214(7) 0.6330(10) 0.6322(4)
H11 H 0.5578 0.6551 0.6323
C15 C 0.6273(9) 0.3858(7) 0.4860(5)
H12 H 0.6573 0.4130 0.5103
C17 C 0.3861(6) 0.6348(7) 0.4500(3)
C19 C 0.3589(13) 0.9593(9) 0.5052(6)
H15 H 0.3335 0.9868 0.4799
C20 C 0.6677(8) 0.6269(10) 0.6754(3)
C21 C 0.3342(9) 0.6410(8) 0.3252(4)
C22 C 0.5742(11) 0.1304(9) 0.4421(5)
H16 H 0.5456 0.1106 0.4158
C23 C 0.6197(10) 0.2897(10) 0.4848(6)
H17 H 0.6417 0.2577 0.5095
C24 C 0.2555(10) 0.6587(9) 0.2385(4)
C25 C 0.7886(9) 0.6116(9) 0.8044(4)
H18 H 0.8563 0.6087 0.8050
C26 C 0.2143(10) 0.6600(10) 0.1944(4)
H19 H 0.1466 0.6631 0.1932
C28 C 0.7472(8) 0.6172(11) 0.7613(4)
C30 C 0.6531(11) 0.6342(17) 0.7544(4)
H20 H 0.6115 0.6399 0.7785
C32 C 0.2050(11) 0.6540(8) 0.1141(4)
C33 C 0.7460(9) 0.6098(9) 0.8442(4)
H22 H 0.6784 0.6140 0.8456
C35 C 0.3410(10) 0.6242(13) 0.2457(5)
H24 H 0.3757 0.6000 0.2219
C36 C 0.7938(9) 0.5976(11) 0.7221(5)
O9 O 0.9465(9) 0.5846(16) 0.6947(5)
C38 C 0.6046(12) 0.0647(11) 0.4693(6)
H26 H 0.6336 0.0857 0.4952
O10 O 0.9235(9) 0.5025(10) 0.7507(4)
C39 C 0.2028(10) 0.6756(16) 0.2777(5)
C41 C 0.4360(13) 0.8631(9) 0.5681(7)
H28 H 0.4699 0.8378 0.5918
N5 N 0.8948(9) 0.5620(17) 0.7226(5)
C44 C 0.7550(9) 0.6043(11) 0.6811(4)
H30 H 0.7939 0.5918 0.6566
C46 C 0.4374(11) 0.9703(14) 0.5650(6)
C48 C 0.3820(10) 0.6222(15) 0.2867(5)
H34 H 0.4477 0.6068 0.2886
N6 N 0.1169(15) 0.719(2) 0.2756(7)
O11 O 0.0602(14) 0.699(3) 0.3058(10)
O12 O 0.0934(12) 0.780(2) 0.2440(8)
Co4 Co 0.89848(9) 0.59852(10) 0.95337(4)
Co6 Co 0.10625(9) 0.65138(10) 0.04493(4)
O13 O 0.6140(5) 0.6020(5) 0.3828(3)
O14 O 0.7397(5) 0.6009(6) 0.4216(3)
N7 N 0.6034(5) 0.7564(6) 0.4555(4)
O15 O 0.2548(7) 0.6523(7) 0.5786(3)
O16 O 0.3828(6) 0.6579(7) 0.6157(3)
C16 C 0.5561(10) 0.8044(8) 0.4233(6)
H13 H 0.5271 0.7741 0.3996
C31 C 0.5511(10) 0.9087(9) 0.4266(7)
H21 H 0.5184 0.9424 0.4051
C34 C 0.6453(10) 0.8097(9) 0.4869(4)
H23 H 0.6839 0.7804 0.5079
C42 C 0.5997(11) 0.9566(11) 0.4650(6)
C45 C 0.6362(18) 0.9030(14) 0.4907(8)
H31 H 0.6617 0.9284 0.5164
C6_2 C 0.1348(8) 0.4403(7) 0.0145(4)
C18_2 C 0.1296(8) 0.3361(7) 0.0146(4)
C27_2 C 0.1031(8) 0.0141(9) 0.0346(5)
N4_2 N 0.1022(5) 0.4948(5) 0.0464(3)
C29_2 C 0.0841(7) 0.2898(7) 0.0500(5)
C37_2 C 0.0534(10) 0.3489(8) 0.0843(6)
H25_2 H 0.0282 0.3236 0.1101
C40_2 C 0.0597(7) 0.4452(7) 0.0808(4)
H27_2 H 0.0327 0.4790 0.1039
C43_2 C 0.1057(8) 0.1211(9) 0.0293(4)
H29_2 H 0.1349 0.1388 0.0028
H32_2 H 0.0300 0.0029 0.0869
C47_2 C 0.0781(9) 0.1885(7) 0.0517(7)
H33_2 H 0.0439 0.1695 0.0767
N2_2 N 0.1049(5) 0.8074(6) 0.0429(4)
C10_2 C 0.1486(10) 0.8546(7) 0.0075(5)
C19_2 C 0.1411(13) 0.9593(9) 0.0052(6)
C41_2 C 0.0640(13) 0.8631(9) 0.0681(7)
H28_2 H 0.0301 0.8378 0.0918
C46_2 C 0.0626(11) 0.9703(14) 0.0650(6)
O1_2 O 0.1568(5) 0.6550(4) 0.9832(2)
O3_2 O 0.0347(5) 0.5989(5) 0.9495(3)
C8_2 C 0.2555(11) 0.6692(14) 0.8194(4)
H5_2 H 0.2923 0.6855 0.8440
C9_2 C 0.2434(10) 0.6577(10) 0.6574(4)
H6_2 H 0.1756 0.6583 0.6571
H7_2 H 0.1819 0.8225 0.9856
C11_2 C 0.1638(7) 0.6474(7) 0.9074(3)
H8_2 H 0.2280 0.6677 0.9078
C12_2 C 0.1237(8) 0.6319(11) 0.8689(4)
H9_2 H 0.0592 0.6124 0.8697
C17_2 C 0.1139(6) 0.6348(7) 0.9500(3)
H15_2 H 0.1665 0.9868 0.9799
C21_2 C 0.1658(9) 0.6410(8) 0.8252(4)
C24_2 C 0.2445(10) 0.6587(9) 0.7385(4)
C26_2 C 0.2857(10) 0.6600(10) 0.6944(4)
H19_2 H 0.3534 0.6631 0.6932
C32_2 C 0.2950(11) 0.6540(8) 0.6141(4)
C35_2 C 0.1590(10) 0.6242(13) 0.7457(5)
H24_2 H 0.1243 0.6000 0.7219
C39_2 C 0.2972(10) 0.6756(16) 0.7777(5)
C48_2 C 0.1180(10) 0.6222(15) 0.7867(5)
H34_2 H 0.0523 0.6068 0.7886
N6_2 N 0.3831(15) 0.719(2) 0.7756(7)
O11_2 O 0.4398(14) 0.699(3) 0.8058(10)
O12_2 O 0.4066(12) 0.780(2) 0.7440(8)
O5_2 O 0.9690(4) 0.6602(5) 0.0515(3)
C2_2 C 0.6989(8) 0.6016(7) 0.3860(4)
O6_2 O 0.8520(6) 0.5916(4) 0.0166(2)
C3_2 C 0.8935(6) 0.6212(7) 0.0517(3)
C7_2 C 0.8434(8) 0.6119(9) 0.0935(3)
H4_2 H 0.7803 0.5887 0.0927
C13_2 C 0.8827(10) 0.6432(14) 0.2139(5)
H10_2 H 0.9471 0.6620 0.2113
C14_2 C 0.8786(7) 0.6330(10) 0.1322(4)
H11_2 H 0.9422 0.6551 0.1323
H12_2 H 0.8427 0.4130 0.0103
C20_2 C 0.8323(8) 0.6269(10) 0.1754(3)
H17_2 H 0.8583 0.2577 0.0095
C25_2 C 0.7114(9) 0.6116(9) 0.3044(4)
H18_2 H 0.6437 0.6087 0.3050
C28_2 C 0.7528(8) 0.6172(11) 0.2613(4)
C30_2 C 0.8469(11) 0.6342(17) 0.2544(4)
H20_2 H 0.8885 0.6399 0.2785
C33_2 C 0.7540(9) 0.6098(9) 0.3442(4)
H22_2 H 0.8216 0.6140 0.3456
C36_2 C 0.7062(9) 0.5976(11) 0.2221(5)
O9_2 O 0.5535(9) 0.5846(16) 0.1947(5)
O10_2 O 0.5765(9) 0.5025(10) 0.2507(4)
N5_2 N 0.6052(9) 0.5620(17) 0.2226(5)
C44_2 C 0.7450(9) 0.6043(11) 0.1811(4)
H30_2 H 0.7061 0.5918 0.1566
N1_2 N 0.9067(6) 0.4395(5) 0.9537(4)
C1_2 C 0.9547(10) 0.2939(7) 0.9171(5)
H1_2 H 0.9831 0.2686 0.8920
C4_2 C 0.9503(10) 0.3967(9) 0.9207(4)
H2_2 H 0.9797 0.4315 0.8987
C5_2 C 0.9196(8) 0.2361(8) 0.9484(5)
C15_2 C 0.8727(9) 0.3858(7) 0.9860(5)
C22_2 C 0.9258(11) 0.1304(9) 0.9421(5)
H16_2 H 0.9544 0.1106 0.9158
C23_2 C 0.8803(10) 0.2897(10) 0.9848(6)
C38_2 C 0.8954(12) 0.0647(11) 0.9693(6)
H26_2 H 0.8664 0.0857 0.9952
N7_2 N 0.8966(5) 0.7564(6) 0.9555(4)
C16_2 C 0.9439(10) 0.8044(8) 0.9233(6)
H13_2 H 0.9729 0.7741 0.8996
C31_2 C 0.9489(10) 0.9087(9) 0.9266(7)
H21_2 H 0.9816 0.9424 0.9051
C34_2 C 0.8547(10) 0.8097(9) 0.9869(4)
C42_2 C 0.9003(11) 0.9566(11) 0.9650(6)
C45_2 C 0.8638(18) 0.9030(14) 0.9907(8)
H23_2 H 0.3161 0.2196 0.0079
H31_2 H 0.3383 0.0716 0.0164
N3 N 0.3966(5) 0.2436(6) 0.9555(4)
C16_3 C 0.4439(10) 0.1956(8) 0.9233(6)
H13_3 H 0.4729 0.2259 0.8996
C31_3 C 0.4489(10) 0.0913(9) 0.9266(7)
H21_3 H 0.4816 0.0576 0.9051
C34_3 C 0.3547(10) 0.1903(9) 0.9869(4)
C42_3 C 0.4003(11) 0.0434(11) 0.9650(6)
C45_3 C 0.3638(18) 0.0970(14) 0.9907(8)
Co3 Co 0.39848(9) 0.40148(10) 0.95337(4)
Co2 Co 0.60625(9) 0.34862(10) 0.04493(4)
O2_2 O 0.1140(5) 0.3980(5) 0.3828(3)
O4_2 O 0.2397(5) 0.3991(6) 0.4216(3)
O5_3 O 0.4690(4) 0.3398(5) 0.0515(3)
N2_3 N 0.6049(5) 0.1926(6) 0.0429(4)
C2_3 C 0.1989(8) 0.3984(7) 0.3860(4)
O6_3 O 0.3520(6) 0.4084(4) 0.0166(2)
C3_3 C 0.3935(6) 0.3788(7) 0.0517(3)
C7_3 C 0.3434(8) 0.3881(9) 0.0935(3)
H4_3 H 0.2803 0.4113 0.0927
C10_3 C 0.6486(10) 0.1454(7) 0.0075(5)
C13_3 C 0.3827(10) 0.3568(14) 0.2139(5)
H10_3 H 0.4471 0.3380 0.2113
C14_3 C 0.3786(7) 0.3670(10) 0.1322(4)
H11_3 H 0.4422 0.3449 0.1323
H12_3 H 0.3427 0.5870 0.0103
C19_3 C 0.6411(13) 0.0407(9) 0.0052(6)
C20_3 C 0.3323(8) 0.3731(10) 0.1754(3)
H17_3 H 0.3583 0.7423 0.0095
C25_3 C 0.2114(9) 0.3884(9) 0.3044(4)
H18_3 H 0.1437 0.3913 0.3050
C28_3 C 0.2528(8) 0.3828(11) 0.2613(4)
C30_3 C 0.3469(11) 0.3658(17) 0.2544(4)
H20_3 H 0.3885 0.3601 0.2785
C33_3 C 0.2540(9) 0.3902(9) 0.3442(4)
H22_3 H 0.3216 0.3860 0.3456
C36_3 C 0.2062(9) 0.4024(11) 0.2221(5)
O9_3 O 0.0535(9) 0.4154(16) 0.1947(5)
O10_3 O 0.0765(9) 0.4975(10) 0.2507(4)
C41_3 C 0.5640(13) 0.1369(9) 0.0681(7)
H28_3 H 0.5301 0.1622 0.0918
N5_3 N 0.1052(9) 0.4380(17) 0.2226(5)
C44_3 C 0.2450(9) 0.3957(11) 0.1811(4)
H30_3 H 0.2061 0.4082 0.1566
C46_3 C 0.5626(11) 0.0297(14) 0.0650(6)
Co4_2 Co 0.10152(9) 0.40148(10) 0.45337(4)
O15_2 O 0.7452(7) 0.3477(7) 0.0786(3)
O16_2 O 0.6172(6) 0.3421(7) 0.1157(3)
N8 N 0.6022(5) 0.5052(5) 0.0464(3)
O1_3 O 0.6568(5) 0.3450(4) 0.9832(2)
O3_3 O 0.5347(5) 0.4011(5) 0.9495(3)
N1_3 N 0.4067(6) 0.5605(5) 0.9537(4)
C1_3 C 0.4547(10) 0.7061(7) 0.9171(5)
H1_3 H 0.4831 0.7314 0.8920
O7_2 O 0.7548(7) 0.3477(7) 0.5786(3)
C4_3 C 0.4503(10) 0.6033(9) 0.9207(4)
H2_3 H 0.4797 0.5685 0.8987
C5_3 C 0.4196(8) 0.7639(8) 0.9484(5)
O8_2 O 0.8828(6) 0.3421(7) 0.6157(3)
C8_3 C 0.7555(11) 0.3308(14) 0.8194(4)
H5_3 H 0.7923 0.3145 0.8440
C9_3 C 0.7434(10) 0.3423(10) 0.6574(4)
H6_3 H 0.6756 0.3417 0.6571
H7_3 H 0.6819 0.1775 0.9856
C11_3 C 0.6638(7) 0.3526(7) 0.9074(3)
H8_3 H 0.7280 0.3323 0.9078
C12_3 C 0.6237(8) 0.3681(11) 0.8689(4)
H9_3 H 0.5592 0.3876 0.8697
C15_3 C 0.3727(9) 0.6142(7) 0.9860(5)
C17_3 C 0.6139(6) 0.3652(7) 0.9500(3)
H15_3 H 0.6665 0.0132 0.9799
C21_3 C 0.6658(9) 0.3590(8) 0.8252(4)
C22_3 C 0.4258(11) 0.8696(9) 0.9421(5)
H16_3 H 0.4544 0.8894 0.9158
C23_3 C 0.3803(10) 0.7103(10) 0.9848(6)
C24_3 C 0.7445(10) 0.3413(9) 0.7385(4)
C26_3 C 0.7857(10) 0.3400(10) 0.6944(4)
H19_3 H 0.8534 0.3369 0.6932
C32_3 C 0.7950(11) 0.3460(8) 0.6141(4)
C35_3 C 0.6590(10) 0.3758(13) 0.7457(5)
H24_3 H 0.6243 0.4000 0.7219
C38_3 C 0.3954(12) 0.9353(11) 0.9693(6)
H26_3 H 0.3664 0.9143 0.9952
C39_3 C 0.7972(10) 0.3244(16) 0.7777(5)
C48_3 C 0.6180(10) 0.3778(15) 0.7867(5)
H34_3 H 0.5523 0.3932 0.7886
N6_3 N 0.8831(15) 0.281(2) 0.7756(7)
O11_3 O 0.9398(14) 0.301(3) 0.8058(10)
O12_3 O 0.9066(12) 0.220(2) 0.7440(8)
Co6_2 Co 0.89375(9) 0.34862(10) 0.54493(4)
O13_2 O 0.3860(5) 0.3980(5) 0.8828(3)
O14_2 O 0.2603(5) 0.3991(6) 0.9216(3)
C6_3 C 0.6348(8) 0.5597(7) 0.0145(4)
C18_3 C 0.6296(8) 0.6639(7) 0.0146(4)
C27_3 C 0.6031(8) 0.9859(9) 0.0346(5)
C29_3 C 0.5841(7) 0.7102(7) 0.0500(5)
C37_3 C 0.5534(10) 0.6511(8) 0.0843(6)
H25_3 H 0.5282 0.6764 0.1101
C40_3 C 0.5597(7) 0.5548(7) 0.0808(4)
H27_3 H 0.5327 0.5210 0.1039
C43_3 C 0.6057(8) 0.8789(9) 0.0293(4)
H29_3 H 0.6349 0.8612 0.0028
H32_3 H 0.5300 0.9971 0.0869
C47_3 C 0.5781(9) 0.8115(7) 0.0517(7)
H33_3 H 0.5439 0.8305 0.0767
N3_2 N 0.1034(5) 0.2436(6) 0.4555(4)
C16_4 C 0.0561(10) 0.1956(8) 0.4233(6)
H13_4 H 0.0271 0.2259 0.3996
C31_4 C 0.0511(10) 0.0913(9) 0.4266(7)
H21_4 H 0.0184 0.0576 0.4051
C34_4 C 0.1453(10) 0.1903(9) 0.4869(4)
H23_3 H 0.1839 0.2196 0.5079
C42_4 C 0.0997(11) 0.0434(11) 0.4650(6)
C45_4 C 0.1362(18) 0.0970(14) 0.4907(8)
H31_3 H 0.1617 0.0716 0.5164
N1_4 N 0.0933(6) 0.5605(5) 0.4537(4)
O5_4 O 0.0310(4) 0.3398(5) 0.5515(3)
C1_4 C 0.0453(10) 0.7061(7) 0.4171(5)
H1_4 H 0.0169 0.7314 0.3920
C2_4 C 0.3011(8) 0.3984(7) 0.8860(4)
O6_4 O 0.1480(6) 0.4084(4) 0.5166(2)
C3_4 C 0.1065(6) 0.3788(7) 0.5517(3)
C4_4 C 0.0497(10) 0.6033(9) 0.4207(4)
H2_4 H 0.0203 0.5685 0.3987
C5_4 C 0.0804(8) 0.7639(8) 0.4484(5)
C7_4 C 0.1566(8) 0.3881(9) 0.5935(3)
H4_4 H 0.2197 0.4113 0.5927
C13_4 C 0.1173(10) 0.3568(14) 0.7139(5)
H10_4 H 0.0529 0.3380 0.7113
C14_4 C 0.1214(7) 0.3670(10) 0.6322(4)
H11_4 H 0.0578 0.3449 0.6323
C15_4 C 0.1273(9) 0.6142(7) 0.4860(5)
H12_4 H 0.1573 0.5870 0.5103
C20_4 C 0.1677(8) 0.3731(10) 0.6754(3)
C22_4 C 0.0742(11) 0.8696(9) 0.4421(5)
H16_4 H 0.0456 0.8894 0.4158
C23_4 C 0.1197(10) 0.7103(10) 0.4848(6)
H17_4 H 0.1417 0.7423 0.5095
C25_4 C 0.2886(9) 0.3884(9) 0.8044(4)
H18_4 H 0.3563 0.3913 0.8050
C28_4 C 0.2472(8) 0.3828(11) 0.7613(4)
C30_4 C 0.1531(11) 0.3658(17) 0.7544(4)
H20_4 H 0.1115 0.3601 0.7785
C33_4 C 0.2460(9) 0.3902(9) 0.8442(4)
H22_4 H 0.1784 0.3860 0.8456
C36_4 C 0.2938(9) 0.4024(11) 0.7221(5)
O9_4 O 0.4465(9) 0.4154(16) 0.6947(5)
C38_4 C 0.1046(12) 0.9353(11) 0.4693(6)
H26_4 H 0.1336 0.9143 0.4952
O10_4 O 0.4235(9) 0.4975(10) 0.7507(4)
N5_4 N 0.3948(9) 0.4380(17) 0.7226(5)
C44_4 C 0.2550(9) 0.3957(11) 0.6811(4)
H30_4 H 0.2939 0.4082 0.6566
O1_4 O 0.8432(5) 0.3450(4) 0.4832(2)
O3_4 O 0.9653(5) 0.4011(5) 0.4495(3)
N2_4 N 0.8951(5) 0.1926(6) 0.5429(4)
C8_4 C 0.7445(11) 0.3308(14) 0.3194(4)
H5_4 H 0.7077 0.3145 0.3440
C9_4 C 0.7566(10) 0.3423(10) 0.1574(4)
H6_4 H 0.8244 0.3417 0.1571
C10_4 C 0.8514(10) 0.1454(7) 0.5075(5)
H7_4 H 0.8181 0.1775 0.4856
C11_4 C 0.8362(7) 0.3526(7) 0.4074(3)
H8_4 H 0.7720 0.3323 0.4078
C12_4 C 0.8763(8) 0.3681(11) 0.3689(4)
H9_4 H 0.9408 0.3876 0.3697
C17_4 C 0.8861(6) 0.3652(7) 0.4500(3)
C19_4 C 0.8589(13) 0.0407(9) 0.5052(6)
H15_4 H 0.8335 0.0132 0.4799
C21_4 C 0.8342(9) 0.3590(8) 0.3252(4)
C24_4 C 0.7555(10) 0.3413(9) 0.2385(4)
C26_4 C 0.7143(10) 0.3400(10) 0.1944(4)
H19_4 H 0.6466 0.3369 0.1932
C32_4 C 0.7050(11) 0.3460(8) 0.1141(4)
C35_4 C 0.8410(10) 0.3758(13) 0.2457(5)
H24_4 H 0.8757 0.4000 0.2219
C39_4 C 0.7028(10) 0.3244(16) 0.2777(5)
C41_4 C 0.9360(13) 0.1369(9) 0.5681(7)
H28_4 H 0.9699 0.1622 0.5918
C46_4 C 0.9374(11) 0.0297(14) 0.5650(6)
C48_4 C 0.8820(10) 0.3778(15) 0.2867(5)
H34_4 H 0.9477 0.3932 0.2886
N6_4 N 0.6169(15) 0.281(2) 0.2756(7)
O11_4 O 0.5602(14) 0.301(3) 0.3058(10)
O12_4 O 0.5934(12) 0.220(2) 0.2440(8)
N8_2 N 0.8978(5) 0.5052(5) 0.5464(3)
C6_4 C 0.8652(8) 0.5597(7) 0.5145(4)
H3_2 H 0.8368 0.5320 0.4900
C18_4 C 0.8704(8) 0.6639(7) 0.5146(4)
H14_2 H 0.8436 0.6971 0.4913
C27_4 C 0.8969(8) 0.9859(9) 0.5346(5)
C29_4 C 0.9159(7) 0.7102(7) 0.5500(5)
C37_4 C 0.9466(10) 0.6511(8) 0.5843(6)
H25_4 H 0.9718 0.6764 0.6101
C40_4 C 0.9403(7) 0.5548(7) 0.5808(4)
H27_4 H 0.9673 0.5210 0.6039
C43_4 C 0.8943(8) 0.8789(9) 0.5293(4)
H29_4 H 0.8651 0.8612 0.5028
H32_4 H 0.9700 0.9971 0.5869
C47_4 C 0.9219(9) 0.8115(7) 0.5517(7)
H33_4 H 0.9561 0.8305 0.5767
H3_3 H 0.6632 0.5320 0.9900
H14_3 H 0.6564 0.6971 0.9913
H3_4 H 0.1632 0.4680 0.9900
H14_4 H 0.1564 0.3029 0.9913
H23_4 H 0.8161 0.7804 0.0079
H31_4 H 0.8383 0.9284 0.0164
loop_
_geom_bond_atom_site_label_1
_geom_bond_atom_site_label_2
_geom_bond_site_symmetry_1
_geom_bond_site_symmetry_2
C6 H3 1_555 1_555
C18 C6 1_555 1_555
H14 C18 1_555 1_555
N4 C6 1_555 1_555
C29 C18 1_555 1_555
C37 C29 1_555 1_555
H25 C37 1_555 1_555
C40 N4 1_555 1_555
H27 C40 1_555 1_555
C43 C27 1_555 1_555
H29 C43 1_555 1_555
C47 C29 1_555 1_555
H33 C47 1_555 1_555
Co5 N4 1_555 1_555
C37 C40 1_555 1_555
C43 C47 1_555 1_555
Co1 O3 1_555 1_555
Co5 O1 1_555 1_555
O1 C17 1_555 1_555
O2 C2 1_555 1_555
O3 C17 1_555 1_555
N1 Co1 1_555 1_555
O4 C2 1_555 1_555
O5 Co5 1_555 1_555
N2 Co5 1_555 1_555
C1 H1 1_555 1_555
C2 C33 1_555 1_555
O6 Co1 1_555 1_555
C3 O5 1_555 1_555
O7 C32 1_555 1_555
C4 N1 1_555 1_555
H2 C4 1_555 1_555
C5 C1 1_555 1_555
C7 C3 1_555 1_555
H4 C7 1_555 1_555
O8 C32 1_555 1_555
C8 H5 1_555 1_555
C9 H6 1_555 1_555
C10 N2 1_555 1_555
H7 C10 1_555 1_555
C11 H8 1_555 1_555
C12 C11 1_555 1_555
H9 C12 1_555 1_555
C13 H10 1_555 1_555
C14 C7 1_555 1_555
H11 C14 1_555 1_555
C15 N1 1_555 1_555
H12 C15 1_555 1_555
C17 C11 1_555 1_555
C19 C10 1_555 1_555
H15 C19 1_555 1_555
C20 C13 1_555 1_555
C21 C8 1_555 1_555
C22 C5 1_555 1_555
H16 C22 1_555 1_555
C23 C5 1_555 1_555
H17 C23 1_555 1_555
C24 C26 1_555 1_555
C25 H18 1_555 1_555
C26 C9 1_555 1_555
H19 C26 1_555 1_555
C28 C25 1_555 1_555
C30 C13 1_555 1_555
H20 C30 1_555 1_555
C32 C9 1_555 1_555
C33 C25 1_555 1_555
H22 C33 1_555 1_555
C35 C24 1_555 1_555
H24 C35 1_555 1_555
C36 C28 1_555 1_555
O9 N5 1_555 1_555
C38 C22 1_555 1_555
H26 C38 1_555 1_555
O10 N5 1_555 1_555
C39 C8 1_555 1_555
C41 N2 1_555 1_555
H28 C41 1_555 1_555
N5 C36 1_555 1_555
C44 C20 1_555 1_555
H30 C44 1_555 1_555
C48 C21 1_555 1_555
H34 C48 1_555 1_555
N6 C39 1_555 1_555
O11 N6 1_555 1_555
O12 N6 1_555 1_555
Co4 O2 1_555 1_555
Co6 O7 1_555 1_555
O13 Co1 1_555 1_555
O14 Co1 1_555 1_555
N7 Co1 1_555 1_555
O15 Co5 1_555 1_555
O16 Co5 1_555 1_555
O4 Co4 1_555 1_555
C1 C4 1_555 1_555
O6 C3 1_555 1_555
O8 Co6 1_555 1_555
C12 C21 1_555 1_555
C14 C20 1_555 1_555
C15 C23 1_555 1_555
C24 C39 1_555 1_555
C28 C30 1_555 1_555
C35 C48 1_555 1_555
C36 C44 1_555 1_555
C41 C46 1_555 1_555
N7 C16 1_555 1_555
C16 H13 1_555 1_555
C31 C16 1_555 1_555
H21 C31 1_555 1_555
C34 N7 1_555 1_555
H23 C34 1_555 1_555
C42 C31 1_555 1_555
C45 C34 1_555 1_555
H31 C45 1_555 1_555
C42 C45 1_555 1_555
C18_2 C6_2 1_555 1_555
N4_2 C6_2 1_555 1_555
C29_2 C18_2 1_555 1_555
C37_2 C29_2 1_555 1_555
H25_2 C37_2 1_555 1_555
C40_2 N4_2 1_555 1_555
H27_2 C40_2 1_555 1_555
C43_2 C27_2 1_555 1_555
H29_2 C43_2 1_555 1_555
C47_2 C29_2 1_555 1_555
H33_2 C47_2 1_555 1_555
Co6 N4_2 1_555 1_555
C37_2 C40_2 1_555 1_555
C43_2 C47_2 1_555 1_555
N2_2 Co6 1_555 1_555
C10_2 N2_2 1_555 1_555
C19_2 C10_2 1_555 1_555
C41_2 N2_2 1_555 1_555
H28_2 C41_2 1_555 1_555
C41_2 C46_2 1_555 1_555
O1_2 C17_2 1_555 1_555
O3_2 C17_2 1_555 1_555
O15 C32_2 1_555 1_555
O16 C32_2 1_555 1_555
C8_2 H5_2 1_555 1_555
C9_2 H6_2 1_555 1_555
C11_2 H8_2 1_555 1_555
C12_2 C11_2 1_555 1_555
H9_2 C12_2 1_555 1_555
C17_2 C11_2 1_555 1_555
C21_2 C8_2 1_555 1_555
C24_2 C26_2 1_555 1_555
C26_2 C9_2 1_555 1_555
H19_2 C26_2 1_555 1_555
C32_2 C9_2 1_555 1_555
C35_2 C24_2 1_555 1_555
H24_2 C35_2 1_555 1_555
C39_2 C8_2 1_555 1_555
C48_2 C21_2 1_555 1_555
H34_2 C48_2 1_555 1_555
N6_2 C39_2 1_555 1_555
O11_2 N6_2 1_555 1_555
O12_2 N6_2 1_555 1_555
C12_2 C21_2 1_555 1_555
C24_2 C39_2 1_555 1_555
C35_2 C48_2 1_555 1_555
O13 C2_2 1_555 1_555
O14 C2_2 1_555 1_555
C2_2 C33_2 1_555 1_555
C3_2 O5_2 1_555 1_555
C7_2 C3_2 1_555 1_555
H4_2 C7_2 1_555 1_555
C13_2 H10_2 1_555 1_555
C14_2 C7_2 1_555 1_555
H11_2 C14_2 1_555 1_555
C20_2 C13_2 1_555 1_555
C25_2 H18_2 1_555 1_555
C28_2 C25_2 1_555 1_555
C30_2 C13_2 1_555 1_555
H20_2 C30_2 1_555 1_555
C33_2 C25_2 1_555 1_555
H22_2 C33_2 1_555 1_555
C36_2 C28_2 1_555 1_555
O9_2 N5_2 1_555 1_555
O10_2 N5_2 1_555 1_555
N5_2 C36_2 1_555 1_555
C44_2 C20_2 1_555 1_555
H30_2 C44_2 1_555 1_555
O6_2 C3_2 1_555 1_555
C14_2 C20_2 1_555 1_555
C28_2 C30_2 1_555 1_555
C36_2 C44_2 1_555 1_555
N1_2 Co4 1_555 1_555
C1_2 H1_2 1_555 1_555
C4_2 N1_2 1_555 1_555
H2_2 C4_2 1_555 1_555
C5_2 C1_2 1_555 1_555
C15_2 N1_2 1_555 1_555
C22_2 C5_2 1_555 1_555
H16_2 C22_2 1_555 1_555
C23_2 C5_2 1_555 1_555
C38_2 C22_2 1_555 1_555
H26_2 C38_2 1_555 1_555
N7_2 Co4 1_555 1_555
C1_2 C4_2 1_555 1_555
C15_2 C23_2 1_555 1_555
N7_2 C16_2 1_555 1_555
C16_2 H13_2 1_555 1_555
C31_2 C16_2 1_555 1_555
H21_2 C31_2 1_555 1_555
C34_2 N7_2 1_555 1_555
C42_2 C31_2 1_555 1_555
C45_2 C34_2 1_555 1_555
C42_2 C45_2 1_555 1_555
N3 C16_3 1_555 1_555
C16_3 H13_3 1_555 1_555
C31_3 C16_3 1_555 1_555
H21_3 C31_3 1_555 1_555
C34_3 N3 1_555 1_555
C42_3 C31_3 1_555 1_555
C45_3 C34_3 1_555 1_555
Co3 N3 1_555 1_555
C42_3 C45_3 1_555 1_555
O2_2 C2_3 1_555 1_555
O4_2 C2_3 1_555 1_555
O5_3 Co2 1_555 1_555
N2_3 Co2 1_555 1_555
C2_3 C33_3 1_555 1_555
C3_3 O5_3 1_555 1_555
C7_3 C3_3 1_555 1_555
H4_3 C7_3 1_555 1_555
C10_3 N2_3 1_555 1_555
C13_3 H10_3 1_555 1_555
C14_3 C7_3 1_555 1_555
H11_3 C14_3 1_555 1_555
C19_3 C10_3 1_555 1_555
C20_3 C13_3 1_555 1_555
C25_3 H18_3 1_555 1_555
C28_3 C25_3 1_555 1_555
C30_3 C13_3 1_555 1_555
H20_3 C30_3 1_555 1_555
C33_3 C25_3 1_555 1_555
H22_3 C33_3 1_555 1_555
C36_3 C28_3 1_555 1_555
O9_3 N5_3 1_555 1_555
O10_3 N5_3 1_555 1_555
C41_3 N2_3 1_555 1_555
H28_3 C41_3 1_555 1_555
N5_3 C36_3 1_555 1_555
C44_3 C20_3 1_555 1_555
H30_3 C44_3 1_555 1_555
Co4_2 O2_2 1_555 1_555
O15_2 Co2 1_555 1_555
O16_2 Co2 1_555 1_555
N8 Co2 1_555 1_555
O4_2 Co4_2 1_555 1_555
O6_3 C3_3 1_555 1_555
C14_3 C20_3 1_555 1_555
C28_3 C30_3 1_555 1_555
C36_3 C44_3 1_555 1_555
C41_3 C46_3 1_555 1_555
Co3 O3_3 1_555 1_555
O1_3 C17_3 1_555 1_555
O3_3 C17_3 1_555 1_555
N1_3 Co3 1_555 1_555
C1_3 H1_3 1_555 1_555
O7_2 C32_3 1_555 1_555
C4_3 N1_3 1_555 1_555
H2_3 C4_3 1_555 1_555
C5_3 C1_3 1_555 1_555
O8_2 C32_3 1_555 1_555
C8_3 H5_3 1_555 1_555
C9_3 H6_3 1_555 1_555
C11_3 H8_3 1_555 1_555
C12_3 C11_3 1_555 1_555
H9_3 C12_3 1_555 1_555
C15_3 N1_3 1_555 1_555
C17_3 C11_3 1_555 1_555
C21_3 C8_3 1_555 1_555
C22_3 C5_3 1_555 1_555
H16_3 C22_3 1_555 1_555
C23_3 C5_3 1_555 1_555
C24_3 C26_3 1_555 1_555
C26_3 C9_3 1_555 1_555
H19_3 C26_3 1_555 1_555
C32_3 C9_3 1_555 1_555
C35_3 C24_3 1_555 1_555
H24_3 C35_3 1_555 1_555
C38_3 C22_3 1_555 1_555
H26_3 C38_3 1_555 1_555
C39_3 C8_3 1_555 1_555
C48_3 C21_3 1_555 1_555
H34_3 C48_3 1_555 1_555
N6_3 C39_3 1_555 1_555
O11_3 N6_3 1_555 1_555
O12_3 N6_3 1_555 1_555
Co6_2 O7_2 1_555 1_555
O13_2 Co3 1_555 1_555
O14_2 Co3 1_555 1_555
C1_3 C4_3 1_555 1_555
O8_2 Co6_2 1_555 1_555
C12_3 C21_3 1_555 1_555
C15_3 C23_3 1_555 1_555
C24_3 C39_3 1_555 1_555
C35_3 C48_3 1_555 1_555
C18_3 C6_3 1_555 1_555
N8 C6_3 1_555 1_555
C29_3 C18_3 1_555 1_555
C37_3 C29_3 1_555 1_555
H25_3 C37_3 1_555 1_555
C40_3 N8 1_555 1_555
H27_3 C40_3 1_555 1_555
C43_3 C27_3 1_555 1_555
H29_3 C43_3 1_555 1_555
C47_3 C29_3 1_555 1_555
H33_3 C47_3 1_555 1_555
C37_3 C40_3 1_555 1_555
C43_3 C47_3 1_555 1_555
N3_2 C16_4 1_555 1_555
C16_4 H13_4 1_555 1_555
C31_4 C16_4 1_555 1_555
H21_4 C31_4 1_555 1_555
C34_4 N3_2 1_555 1_555
H23_3 C34_4 1_555 1_555
C42_4 C31_4 1_555 1_555
C45_4 C34_4 1_555 1_555
H31_3 C45_4 1_555 1_555
Co4_2 N3_2 1_555 1_555
C42_4 C45_4 1_555 1_555
O13_2 C2_4 1_555 1_555
N1_4 Co4_2 1_555 1_555
O14_2 C2_4 1_555 1_555
C1_4 H1_4 1_555 1_555
C2_4 C33_4 1_555 1_555
O6_4 Co4_2 1_555 1_555
C3_4 O5_4 1_555 1_555
C4_4 N1_4 1_555 1_555
H2_4 C4_4 1_555 1_555
C5_4 C1_4 1_555 1_555
C7_4 C3_4 1_555 1_555
H4_4 C7_4 1_555 1_555
C13_4 H10_4 1_555 1_555
C14_4 C7_4 1_555 1_555
H11_4 C14_4 1_555 1_555
C15_4 N1_4 1_555 1_555
H12_4 C15_4 1_555 1_555
C20_4 C13_4 1_555 1_555
C22_4 C5_4 1_555 1_555
H16_4 C22_4 1_555 1_555
C23_4 C5_4 1_555 1_555
H17_4 C23_4 1_555 1_555
C25_4 H18_4 1_555 1_555
C28_4 C25_4 1_555 1_555
C30_4 C13_4 1_555 1_555
H20_4 C30_4 1_555 1_555
C33_4 C25_4 1_555 1_555
H22_4 C33_4 1_555 1_555
C36_4 C28_4 1_555 1_555
O9_4 N5_4 1_555 1_555
C38_4 C22_4 1_555 1_555
H26_4 C38_4 1_555 1_555
O10_4 N5_4 1_555 1_555
N5_4 C36_4 1_555 1_555
C44_4 C20_4 1_555 1_555
H30_4 C44_4 1_555 1_555
C1_4 C4_4 1_555 1_555
O6_4 C3_4 1_555 1_555
C14_4 C20_4 1_555 1_555
C15_4 C23_4 1_555 1_555
C28_4 C30_4 1_555 1_555
C36_4 C44_4 1_555 1_555
Co6_2 O1_4 1_555 1_555
O1_4 C17_4 1_555 1_555
O3_4 C17_4 1_555 1_555
N2_4 Co6_2 1_555 1_555
O15_2 C32_4 1_555 1_555
O16_2 C32_4 1_555 1_555
C8_4 H5_4 1_555 1_555
C9_4 H6_4 1_555 1_555
C10_4 N2_4 1_555 1_555
H7_4 C10_4 1_555 1_555
C11_4 H8_4 1_555 1_555
C12_4 C11_4 1_555 1_555
H9_4 C12_4 1_555 1_555
C17_4 C11_4 1_555 1_555
C19_4 C10_4 1_555 1_555
H15_4 C19_4 1_555 1_555
C21_4 C8_4 1_555 1_555
C24_4 C26_4 1_555 1_555
C26_4 C9_4 1_555 1_555
H19_4 C26_4 1_555 1_555
C32_4 C9_4 1_555 1_555
C35_4 C24_4 1_555 1_555
H24_4 C35_4 1_555 1_555
C39_4 C8_4 1_555 1_555
C41_4 N2_4 1_555 1_555
H28_4 C41_4 1_555 1_555
C48_4 C21_4 1_555 1_555
H34_4 C48_4 1_555 1_555
N6_4 C39_4 1_555 1_555
O11_4 N6_4 1_555 1_555
O12_4 N6_4 1_555 1_555
N8_2 Co6_2 1_555 1_555
C12_4 C21_4 1_555 1_555
C24_4 C39_4 1_555 1_555
C35_4 C48_4 1_555 1_555
C41_4 C46_4 1_555 1_555
C6_4 H3_2 1_555 1_555
C18_4 C6_4 1_555 1_555
H14_2 C18_4 1_555 1_555
N8_2 C6_4 1_555 1_555
C29_4 C18_4 1_555 1_555
C37_4 C29_4 1_555 1_555
H25_4 C37_4 1_555 1_555
C40_4 N8_2 1_555 1_555
H27_4 C40_4 1_555 1_555
C43_4 C27_4 1_555 1_555
H29_4 C43_4 1_555 1_555
C47_4 C29_4 1_555 1_555
H33_4 C47_4 1_555 1_555
C37_4 C40_4 1_555 1_555
C43_4 C47_4 1_555 1_555

#END
