
###############################################################################
#
# This file contains modified crystal structure data generated from the
# MOF subset of the Cambridge Structural Database (CSD) v543 
# hosted by the Cambridge Crystallographic Data Centre (CCDC).
#
# This work is licensed under the Creative Commons
# Attribution-NonCommercial-ShareAlike 4.0 International License.
# To view a copy of this license, visit
# http://creativecommons.org/licenses/by-nc-sa/4.0/
# or send a letter to
# Creative Commons, PO Box 1866, Mountain View, CA 94042, USA.
#
# CIF created using the CSD Python API on 29 September 2022
# The structure has been converted into the P1 space group
# The structure has a 3D framework
# The original CSD entry PIQFIG is in the monoclinic crystal system
# The framework has been calculated to contain at least 10.0% void space
# The void calculation uses a probe of radius 1.32A, grid spacing 0.4
# H atom positions have been added when not included in the experimental data
# Generated hydrogen atom positions removed from atoms on special positions
#
###############################################################################

data_PIQFIG
_chemical_formula_moiety         '(C176 H144 Cr8 Mn16 N16 O118)n'
_symmetry_cell_setting           triclinic
_symmetry_space_group_name_H-M   'P 1'
_symmetry_Int_Tables_number      1
_space_group_name_Hall           'P 1'
loop_
_symmetry_equiv_pos_site_id
_symmetry_equiv_pos_as_xyz
1 x,y,z
_cell_length_a                   21.7633(5)
_cell_length_b                   14.1958(4)
_cell_length_c                   22.9649(7)
_cell_angle_alpha                90
_cell_angle_beta                 90.182(3)
_cell_angle_gamma                90
_cell_volume                     7094.91
loop_
_atom_site_label
_atom_site_type_symbol
_atom_site_fract_x
_atom_site_fract_y
_atom_site_fract_z
C29 C 0.0322(3) 0.7959(6) 0.0796(3)
H26 H 0.0720 0.8161 0.0912
C30 C 0.0232(3) 0.7484(5) 0.0268(3)
H27 H 0.0578 0.7373 0.0027
C3 C 0.8733(3) 0.0280(5) 0.0460(3)
H2 H 0.8802 0.0728 0.0761
C4 C 0.9148(3) 0.0184(5) 0.0024(3)
H3 H 0.9508 0.0564 0.0017
C1 C 0.8100(2) 0.9045(4) 0.0038(2)
C2 C 0.8208(3) 0.9722(4) 0.0466(3)
H1 H 0.7916 0.9804 0.0768
H14 H 0.5380 0.8152 0.0280
O1 O 0.76105(15) 0.8468(3) 0.00882(15)
C21 C 0.5956(2) 0.5470(4) 0.0409(2)
H18 H 0.5663 0.5536 0.0711
C22 C 0.6480(2) 0.6040(4) 0.0416(2)
C23 C 0.6559(2) 0.6741(4) 0.0876(2)
H19 H 0.6219 0.6856 0.1124
C24 C 0.7103(3) 0.7949(4) 0.1423(2)
H20 H 0.7064 0.8580 0.1244
H21 H 0.6770 0.7871 0.1711
C25 C 0.7730(3) 0.7854(5) 0.1723(2)
H22 H 0.7727 0.7316 0.1997
H23 H 0.7827 0.8434 0.1944
C26 C 0.8745(3) 0.7968(5) 0.1347(2)
H24 H 0.8835 0.8301 0.1696
C27 C 0.9231(3) 0.7808(5) 0.0960(3)
C28 C 0.9828(3) 0.8123(6) 0.1135(3)
H25 H 0.9877 0.8451 0.1493
C31 C 0.9660(2) 0.7166(4) 0.0082(3)
C32 C 0.9148(2) 0.7316(4) 0.0428(2)
N3 N 0.70562(19) 0.7216(3) 0.09718(17)
N4 N 0.8189(2) 0.7700(4) 0.12675(19)
O5 O 0.86073(15) 0.6994(3) 0.02317(15)
Mn2 Mn 0.78409(3) 0.70290(6) 0.05730(3)
O6 O 0.80131(18) 0.5631(3) 0.09531(19)
C5 C 0.9044(2) 0.9530(4) 0.9591(2)
H4 H 0.9337 0.9464 0.9289
C6 C 0.8520(2) 0.8960(4) 0.9584(2)
C7 C 0.8441(2) 0.8259(4) 0.9124(2)
H5 H 0.8781 0.8144 0.8876
C8 C 0.7897(3) 0.7051(4) 0.8577(2)
H6 H 0.7936 0.6420 0.8756
H7 H 0.8230 0.7129 0.8289
C9 C 0.7270(3) 0.7146(5) 0.8277(2)
H8 H 0.7273 0.7684 0.8003
H9 H 0.7173 0.6566 0.8056
C10 C 0.6255(3) 0.7032(5) 0.8653(2)
H10 H 0.6165 0.6699 0.8304
C11 C 0.5769(3) 0.7192(5) 0.9040(3)
C12 C 0.5172(3) 0.6877(6) 0.8865(3)
H11 H 0.5123 0.6549 0.8507
C13 C 0.4678(3) 0.7041(6) 0.9204(3)
H12 H 0.4280 0.6839 0.9088
C14 C 0.4768(3) 0.7516(5) 0.9732(3)
H13 H 0.4422 0.7627 0.9973
C15 C 0.5340(2) 0.7834(4) 0.9918(3)
C16 C 0.5852(2) 0.7684(4) 0.9572(2)
N1 N 0.79438(19) 0.7784(3) 0.90282(17)
N2 N 0.6811(2) 0.7300(4) 0.87325(19)
O2 O 0.63927(15) 0.8006(3) 0.97683(15)
Mn1 Mn 0.71591(3) 0.79710(6) 0.94270(3)
O3 O 0.69869(18) 0.9369(3) 0.90469(19)
C17 C 0.6900(2) 0.5955(4) 0.9962(2)
C18 C 0.6792(3) 0.5278(4) 0.9534(3)
H15 H 0.7084 0.5196 0.9232
C19 C 0.6267(3) 0.4720(5) 0.9540(3)
H16 H 0.6198 0.4272 0.9239
C20 C 0.5852(3) 0.4816(5) 0.9976(3)
H17 H 0.5492 0.4436 0.9983
H28 H 0.9620 0.6848 0.9720
O4 O 0.73895(15) 0.6532(3) 0.99118(15)
C3_2 C 0.1267(3) 0.0280(5) 0.4540(3)
H2_2 H 0.1198 0.0728 0.4239
C4_2 C 0.0852(3) 0.0184(5) 0.4976(3)
H3_2 H 0.0492 0.0564 0.4983
C1_2 C 0.1900(2) 0.9045(4) 0.4962(2)
C2_2 C 0.1792(3) 0.9722(4) 0.4534(3)
H1_2 H 0.2084 0.9804 0.4232
C5_2 C 0.0956(2) 0.9530(4) 0.5409(2)
H4_2 H 0.0663 0.9464 0.5711
C6_2 C 0.1480(2) 0.8960(4) 0.5416(2)
C7_2 C 0.1559(2) 0.8259(4) 0.5876(2)
H5_2 H 0.1219 0.8144 0.6124
C8_2 C 0.2103(3) 0.7051(4) 0.6423(2)
H6_2 H 0.2064 0.6420 0.6244
H7_2 H 0.1770 0.7129 0.6711
C9_2 C 0.2730(3) 0.7146(5) 0.6723(2)
H8_2 H 0.2727 0.7684 0.6997
H9_2 H 0.2827 0.6566 0.6944
C10_2 C 0.3745(3) 0.7032(5) 0.6347(2)
H10_2 H 0.3835 0.6699 0.6696
C11_2 C 0.4231(3) 0.7192(5) 0.5960(3)
C12_2 C 0.4828(3) 0.6877(6) 0.6135(3)
H11_2 H 0.4877 0.6549 0.6493
C13_2 C 0.5322(3) 0.7041(6) 0.5796(3)
H12_2 H 0.5720 0.6839 0.5912
C14_2 C 0.5232(3) 0.7516(5) 0.5268(3)
H13_2 H 0.5578 0.7627 0.5027
C15_2 C 0.4660(2) 0.7834(4) 0.5082(3)
H14_2 H 0.4620 0.8152 0.4720
C16_2 C 0.4148(2) 0.7684(4) 0.5428(2)
N1_2 N 0.20562(19) 0.7784(3) 0.59718(17)
N2_2 N 0.3189(2) 0.7300(4) 0.62675(19)
O1_2 O 0.23895(15) 0.8468(3) 0.49118(15)
O2_2 O 0.36073(15) 0.8006(3) 0.52317(15)
Mn1_2 Mn 0.28409(3) 0.79710(6) 0.55730(3)
O3_2 O 0.30131(18) 0.9369(3) 0.59531(19)
C17_2 C 0.3100(2) 0.5955(4) 0.5038(2)
C18_2 C 0.3208(3) 0.5278(4) 0.5466(3)
H15_2 H 0.2916 0.5196 0.5768
C19_2 C 0.3733(3) 0.4720(5) 0.5460(3)
H16_2 H 0.3802 0.4272 0.5761
C20_2 C 0.4148(3) 0.4816(5) 0.5024(3)
H17_2 H 0.4508 0.4436 0.5017
C21_2 C 0.4044(2) 0.5470(4) 0.4591(2)
H18_2 H 0.4337 0.5536 0.4289
C22_2 C 0.3520(2) 0.6040(4) 0.4584(2)
C23_2 C 0.3441(2) 0.6741(4) 0.4124(2)
H19_2 H 0.3781 0.6856 0.3876
C24_2 C 0.2897(3) 0.7949(4) 0.3577(2)
H20_2 H 0.2936 0.8580 0.3756
H21_2 H 0.3230 0.7871 0.3289
C25_2 C 0.2270(3) 0.7854(5) 0.3277(2)
H22_2 H 0.2273 0.7316 0.3003
H23_2 H 0.2173 0.8434 0.3056
C26_2 C 0.1255(3) 0.7968(5) 0.3653(2)
H24_2 H 0.1165 0.8301 0.3304
C27_2 C 0.0769(3) 0.7808(5) 0.4040(3)
C28_2 C 0.0172(3) 0.8123(6) 0.3865(3)
H25_2 H 0.0123 0.8451 0.3507
C31_2 C 0.0340(2) 0.7166(4) 0.4918(3)
H28_2 H 0.0380 0.6848 0.5280
C32_2 C 0.0852(2) 0.7316(4) 0.4572(2)
N3_2 N 0.29438(19) 0.7216(3) 0.40282(17)
N4_2 N 0.1811(2) 0.7700(4) 0.37325(19)
O4_2 O 0.26105(15) 0.6532(3) 0.50882(15)
O5_2 O 0.13927(15) 0.6994(3) 0.47683(15)
Mn2_2 Mn 0.21591(3) 0.70290(6) 0.44270(3)
O6_2 O 0.19869(18) 0.5631(3) 0.40469(19)
C29_2 C 0.9678(3) 0.7959(6) 0.4204(3)
H26_2 H 0.9280 0.8161 0.4088
C30_2 C 0.9768(3) 0.7484(5) 0.4732(3)
H27_2 H 0.9422 0.7373 0.4973
C1_3 C 0.3100(2) 0.4045(4) 0.0038(2)
C2_3 C 0.3208(3) 0.4722(4) 0.0466(3)
H1_3 H 0.2916 0.4804 0.0768
C3_3 C 0.3733(3) 0.5280(5) 0.0460(3)
H2_3 H 0.3802 0.5728 0.0761
C4_3 C 0.4148(3) 0.5184(5) 0.0024(3)
H3_3 H 0.4508 0.5564 0.0017
H14_3 H 0.0380 0.3152 0.0280
O1_3 O 0.26105(15) 0.3468(3) 0.00882(15)
C21_3 C 0.0956(2) 0.0470(4) 0.0409(2)
H18_3 H 0.0663 0.0536 0.0711
C22_3 C 0.1480(2) 0.1040(4) 0.0416(2)
C23_3 C 0.1559(2) 0.1741(4) 0.0876(2)
H19_3 H 0.1219 0.1856 0.1124
C24_3 C 0.2103(3) 0.2949(4) 0.1423(2)
H20_3 H 0.2064 0.3580 0.1244
H21_3 H 0.1770 0.2871 0.1711
C25_3 C 0.2730(3) 0.2854(5) 0.1723(2)
H22_3 H 0.2727 0.2316 0.1997
H23_3 H 0.2827 0.3434 0.1944
C26_3 C 0.3745(3) 0.2968(5) 0.1347(2)
H24_3 H 0.3835 0.3301 0.1696
C27_3 C 0.4231(3) 0.2808(5) 0.0960(3)
C28_3 C 0.4828(3) 0.3123(6) 0.1135(3)
H25_3 H 0.4877 0.3451 0.1493
C29_3 C 0.5322(3) 0.2959(6) 0.0796(3)
H26_3 H 0.5720 0.3161 0.0912
C30_3 C 0.5232(3) 0.2484(5) 0.0268(3)
H27_3 H 0.5578 0.2373 0.0027
C31_3 C 0.4660(2) 0.2166(4) 0.0082(3)
C32_3 C 0.4148(2) 0.2316(4) 0.0428(2)
N3_3 N 0.20562(19) 0.2216(3) 0.09718(17)
N4_3 N 0.3189(2) 0.2700(4) 0.12675(19)
O5_3 O 0.36073(15) 0.1994(3) 0.02317(15)
Mn2_3 Mn 0.28409(3) 0.20290(6) 0.05730(3)
O6_3 O 0.30131(18) 0.0631(3) 0.09531(19)
C5_3 C 0.4044(2) 0.4530(4) 0.9591(2)
H4_3 H 0.4337 0.4464 0.9289
C6_3 C 0.3520(2) 0.3960(4) 0.9584(2)
C7_3 C 0.3441(2) 0.3259(4) 0.9124(2)
H5_3 H 0.3781 0.3144 0.8876
C8_3 C 0.2897(3) 0.2051(4) 0.8577(2)
H6_3 H 0.2936 0.1420 0.8756
H7_3 H 0.3230 0.2129 0.8289
C9_3 C 0.2270(3) 0.2146(5) 0.8277(2)
H8_3 H 0.2273 0.2684 0.8003
H9_3 H 0.2173 0.1566 0.8056
C10_3 C 0.1255(3) 0.2032(5) 0.8653(2)
H10_3 H 0.1165 0.1699 0.8304
C11_3 C 0.0769(3) 0.2192(5) 0.9040(3)
C12_3 C 0.0172(3) 0.1877(6) 0.8865(3)
H11_3 H 0.0123 0.1549 0.8507
C15_3 C 0.0340(2) 0.2834(4) 0.9918(3)
C16_3 C 0.0852(2) 0.2684(4) 0.9572(2)
N1_3 N 0.29438(19) 0.2784(3) 0.90282(17)
N2_3 N 0.1811(2) 0.2300(4) 0.87325(19)
O2_3 O 0.13927(15) 0.3006(3) 0.97683(15)
Mn1_3 Mn 0.21591(3) 0.29710(6) 0.94270(3)
O3_3 O 0.19869(18) 0.4369(3) 0.90469(19)
C17_3 C 0.1900(2) 0.0955(4) 0.9962(2)
C18_3 C 0.1792(3) 0.0278(4) 0.9534(3)
H15_3 H 0.2084 0.0196 0.9232
H28_3 H 0.4620 0.1848 0.9720
O4_3 O 0.23895(15) 0.1532(3) 0.99118(15)
C19_3 C 0.1267(3) 0.9720(5) 0.9540(3)
H16_3 H 0.1198 0.9272 0.9239
C20_3 C 0.0852(3) 0.9816(5) 0.9976(3)
H17_3 H 0.0492 0.9436 0.9983
C13_3 C 0.9678(3) 0.2041(6) 0.9204(3)
H12_3 H 0.9280 0.1839 0.9088
C14_3 C 0.9768(3) 0.2516(5) 0.9732(3)
H13_3 H 0.9422 0.2627 0.9973
C13_4 C 0.0322(3) 0.2041(6) 0.5796(3)
H12_4 H 0.0720 0.1839 0.5912
C14_4 C 0.0232(3) 0.2516(5) 0.5268(3)
H13_4 H 0.0578 0.2627 0.5027
C1_4 C 0.6900(2) 0.4045(4) 0.4962(2)
C2_4 C 0.6792(3) 0.4722(4) 0.4534(3)
H1_4 H 0.7084 0.4804 0.4232
C3_4 C 0.6267(3) 0.5280(5) 0.4540(3)
H2_4 H 0.6198 0.5728 0.4239
C4_4 C 0.5852(3) 0.5184(5) 0.4976(3)
H3_4 H 0.5492 0.5564 0.4983
C5_4 C 0.5956(2) 0.4530(4) 0.5409(2)
H4_4 H 0.5663 0.4464 0.5711
C6_4 C 0.6480(2) 0.3960(4) 0.5416(2)
C7_4 C 0.6559(2) 0.3259(4) 0.5876(2)
H5_4 H 0.6219 0.3144 0.6124
C8_4 C 0.7103(3) 0.2051(4) 0.6423(2)
H6_4 H 0.7064 0.1420 0.6244
H7_4 H 0.6770 0.2129 0.6711
C9_4 C 0.7730(3) 0.2146(5) 0.6723(2)
H8_4 H 0.7727 0.2684 0.6997
H9_4 H 0.7827 0.1566 0.6944
C10_4 C 0.8745(3) 0.2032(5) 0.6347(2)
H10_4 H 0.8835 0.1699 0.6696
C11_4 C 0.9231(3) 0.2192(5) 0.5960(3)
C12_4 C 0.9828(3) 0.1877(6) 0.6135(3)
H11_4 H 0.9877 0.1549 0.6493
C15_4 C 0.9660(2) 0.2834(4) 0.5082(3)
H14_4 H 0.9620 0.3152 0.4720
C16_4 C 0.9148(2) 0.2684(4) 0.5428(2)
N1_4 N 0.70562(19) 0.2784(3) 0.59718(17)
N2_4 N 0.8189(2) 0.2300(4) 0.62675(19)
O1_4 O 0.73895(15) 0.3468(3) 0.49118(15)
O2_4 O 0.86073(15) 0.3006(3) 0.52317(15)
Mn1_4 Mn 0.78409(3) 0.29710(6) 0.55730(3)
O3_4 O 0.80131(18) 0.4369(3) 0.59531(19)
C17_4 C 0.8100(2) 0.0955(4) 0.5038(2)
C18_4 C 0.8208(3) 0.0278(4) 0.5466(3)
H15_4 H 0.7916 0.0196 0.5768
C21_4 C 0.9044(2) 0.0470(4) 0.4591(2)
H18_4 H 0.9337 0.0536 0.4289
C22_4 C 0.8520(2) 0.1040(4) 0.4584(2)
C23_4 C 0.8441(2) 0.1741(4) 0.4124(2)
H19_4 H 0.8781 0.1856 0.3876
C24_4 C 0.7897(3) 0.2949(4) 0.3577(2)
H20_4 H 0.7936 0.3580 0.3756
H21_4 H 0.8230 0.2871 0.3289
C25_4 C 0.7270(3) 0.2854(5) 0.3277(2)
H22_4 H 0.7273 0.2316 0.3003
H23_4 H 0.7173 0.3434 0.3056
C26_4 C 0.6255(3) 0.2968(5) 0.3653(2)
H24_4 H 0.6165 0.3301 0.3304
C27_4 C 0.5769(3) 0.2808(5) 0.4040(3)
C28_4 C 0.5172(3) 0.3123(6) 0.3865(3)
H25_4 H 0.5123 0.3451 0.3507
C29_4 C 0.4678(3) 0.2959(6) 0.4204(3)
H26_4 H 0.4280 0.3161 0.4088
C30_4 C 0.4768(3) 0.2484(5) 0.4732(3)
H27_4 H 0.4422 0.2373 0.4973
C31_4 C 0.5340(2) 0.2166(4) 0.4918(3)
H28_4 H 0.5380 0.1848 0.5280
C32_4 C 0.5852(2) 0.2316(4) 0.4572(2)
N3_4 N 0.79438(19) 0.2216(3) 0.40282(17)
N4_4 N 0.6811(2) 0.2700(4) 0.37325(19)
O4_4 O 0.76105(15) 0.1532(3) 0.50882(15)
O5_4 O 0.63927(15) 0.1994(3) 0.47683(15)
Mn2_4 Mn 0.71591(3) 0.20290(6) 0.44270(3)
O6_4 O 0.69869(18) 0.0631(3) 0.40469(19)
C19_4 C 0.8733(3) 0.9720(5) 0.5460(3)
H16_4 H 0.8802 0.9272 0.5761
C20_4 C 0.9148(3) 0.9816(5) 0.5024(3)
H17_4 H 0.9508 0.9436 0.5017
C41 C 0.1897(2) 0.0620(4) 0.6585(2)
C42 C 0.1537(2) 0.1391(4) 0.6908(2)
C43 C 0.3168(2) 0.3081(4) 0.7070(2)
C44 C 0.2871(2) 0.3963(4) 0.6767(2)
O23 O 0.22497(17) 0.0888(3) 0.61959(16)
O24 O 0.16239(19) 0.2227(3) 0.67557(17)
O26 O 0.11959(17) 0.1106(3) 0.73021(16)
O27 O 0.29884(18) 0.2289(3) 0.68872(17)
O28 O 0.24709(17) 0.3804(3) 0.63724(17)
O29 O 0.35591(17) 0.3233(3) 0.74723(16)
O30 O 0.30563(17) 0.4752(3) 0.69476(17)
Mn4 Mn 0.23476(4) 0.23741(6) 0.61722(4)
O35 O 0.18341(17) 0.2606(3) 0.5399(2)
O36 O 0.30456(17) 0.2300(3) 0.55662(19)
Cr3 Cr 0.37681(4) 0.46465(6) 0.75790(4)
C38 C 0.0035(3) 0.9531(4) 0.7837(2)
O18 O 0.0580(2) 0.9591(3) 0.80469(17)
O21 O 0.0451(2) 0.9490(3) 0.68866(17)
O25 O 0.18159(17) 0.9787(3) 0.67379(17)
Cr2 Cr 0.12319(4) 0.96465(6) 0.74210(4)
O31 O 0.14409(17) 0.8233(3) 0.75277(16)
O33 O 0.19437(17) 0.9752(3) 0.80524(17)
C37 C 0.7852(3) 0.2589(4) 0.0048(3)
O16 O 0.80456(17) 0.2700(3) 0.05662(19)
O19 O 0.68341(17) 0.2394(3) 0.0399(2)
Mn5 Mn 0.73476(4) 0.26259(6) 0.11722(4)
C33 C 0.8103(2) 0.0620(4) 0.8415(2)
C34 C 0.8463(2) 0.1391(4) 0.8092(2)
C35 C 0.6832(2) 0.3081(4) 0.7930(2)
C36 C 0.7129(2) 0.3963(4) 0.8233(2)
O7 O 0.77503(17) 0.0888(3) 0.88041(16)
O8 O 0.83761(19) 0.2227(3) 0.82443(17)
O10 O 0.88041(17) 0.1106(3) 0.76979(16)
O11 O 0.70116(18) 0.2289(3) 0.81128(17)
O12 O 0.75291(17) 0.3804(3) 0.86276(17)
O13 O 0.64409(17) 0.3233(3) 0.75277(16)
O14 O 0.69437(17) 0.4752(3) 0.80524(17)
O15 O 0.81659(17) 0.2606(3) 0.9601(2)
Mn3 Mn 0.76524(4) 0.23741(6) 0.88278(4)
C39 C 0.7148(3) 0.2411(4) 0.9952(3)
O20 O 0.69544(17) 0.2300(3) 0.94338(19)
Cr4 Cr 0.62319(4) 0.46465(6) 0.74210(4)
O9 O 0.81841(17) 0.9787(3) 0.82621(17)
O17 O 0.9549(2) 0.9490(3) 0.81134(17)
Cr1 Cr 0.87681(4) 0.96465(6) 0.75790(4)
C40 C 0.9965(3) 0.9531(4) 0.7163(2)
O22 O 0.9420(2) 0.9591(3) 0.69531(17)
O32 O 0.85591(17) 0.8233(3) 0.74723(16)
O34 O 0.80563(17) 0.9752(3) 0.69476(17)
C37_2 C 0.2148(3) 0.2589(4) 0.4952(3)
O16_2 O 0.19544(17) 0.2700(3) 0.44338(19)
C39_2 C 0.2852(3) 0.2411(4) 0.5048(3)
O19_2 O 0.31659(17) 0.2394(3) 0.4601(2)
Mn5_2 Mn 0.26524(4) 0.26259(6) 0.38278(4)
C37_3 C 0.2852(3) 0.7589(4) 0.0048(3)
O16_3 O 0.30456(17) 0.7700(3) 0.05662(19)
O19_3 O 0.18341(17) 0.7394(3) 0.0399(2)
Mn5_3 Mn 0.23476(4) 0.76259(6) 0.11722(4)
C33_2 C 0.3103(2) 0.5620(4) 0.8415(2)
C34_2 C 0.3463(2) 0.6391(4) 0.8092(2)
C35_2 C 0.1832(2) 0.8081(4) 0.7930(2)
C36_2 C 0.2129(2) 0.8963(4) 0.8233(2)
C38_2 C 0.5035(3) 0.4531(4) 0.7837(2)
O7_2 O 0.27503(17) 0.5888(3) 0.88041(16)
O8_2 O 0.33761(19) 0.7227(3) 0.82443(17)
O9_2 O 0.31841(17) 0.4787(3) 0.82621(17)
O10_2 O 0.38041(17) 0.6106(3) 0.76979(16)
O11_2 O 0.20116(18) 0.7289(3) 0.81128(17)
O12_2 O 0.25291(17) 0.8804(3) 0.86276(17)
O15_2 O 0.31659(17) 0.7606(3) 0.9601(2)
O17_2 O 0.4549(2) 0.4490(3) 0.81134(17)
O18_2 O 0.5580(2) 0.4591(3) 0.80469(17)
Mn3_2 Mn 0.26524(4) 0.73741(6) 0.88278(4)
C39_3 C 0.2148(3) 0.7411(4) 0.9952(3)
O20_2 O 0.19544(17) 0.7300(3) 0.94338(19)
C40_2 C 0.4965(3) 0.4531(4) 0.7163(2)
O21_2 O 0.5451(2) 0.4490(3) 0.68866(17)
O22_2 O 0.4420(2) 0.4591(3) 0.69531(17)
C41_2 C 0.6897(2) 0.5620(4) 0.6585(2)
C42_2 C 0.6537(2) 0.6391(4) 0.6908(2)
C43_2 C 0.8168(2) 0.8081(4) 0.7070(2)
C44_2 C 0.7871(2) 0.8963(4) 0.6767(2)
O23_2 O 0.72497(17) 0.5888(3) 0.61959(16)
O24_2 O 0.66239(19) 0.7227(3) 0.67557(17)
O25_2 O 0.68159(17) 0.4787(3) 0.67379(17)
O26_2 O 0.61959(17) 0.6106(3) 0.73021(16)
O27_2 O 0.79884(18) 0.7289(3) 0.68872(17)
O28_2 O 0.74709(17) 0.8804(3) 0.63724(17)
Mn4_2 Mn 0.73476(4) 0.73741(6) 0.61722(4)
O35_2 O 0.68341(17) 0.7606(3) 0.5399(2)
O36_2 O 0.80456(17) 0.7300(3) 0.55662(19)
C37_4 C 0.7148(3) 0.7589(4) 0.4952(3)
O16_4 O 0.69544(17) 0.7700(3) 0.44338(19)
C39_4 C 0.7852(3) 0.7411(4) 0.5048(3)
O19_4 O 0.81659(17) 0.7394(3) 0.4601(2)
Mn5_4 Mn 0.76524(4) 0.76259(6) 0.38278(4)
O9_3 O 0.18159(17) 0.0213(3) 0.17379(17)
O17_3 O 0.0451(2) 0.0510(3) 0.18866(17)
Cr1_2 Cr 0.12319(4) 0.03535(6) 0.24210(4)
C40_3 C 0.0035(3) 0.0469(4) 0.2837(2)
O22_3 O 0.0580(2) 0.0409(3) 0.30469(17)
O32_2 O 0.14409(17) 0.1767(3) 0.25277(16)
O34_2 O 0.19437(17) 0.0248(3) 0.30524(17)
C33_3 C 0.1897(2) 0.9380(4) 0.1585(2)
C34_3 C 0.1537(2) 0.8609(4) 0.1908(2)
C35_3 C 0.3168(2) 0.6919(4) 0.2070(2)
C36_3 C 0.2871(2) 0.6037(4) 0.1767(2)
O7_3 O 0.22497(17) 0.9112(3) 0.11959(16)
O8_3 O 0.16239(19) 0.7773(3) 0.17557(17)
O10_3 O 0.11959(17) 0.8894(3) 0.23021(16)
O11_3 O 0.29884(18) 0.7711(3) 0.18872(17)
O12_3 O 0.24709(17) 0.6196(3) 0.13724(17)
O13_2 O 0.35591(17) 0.6767(3) 0.24723(16)
O14_2 O 0.30563(17) 0.5248(3) 0.19476(17)
Cr4_2 Cr 0.37681(4) 0.53535(6) 0.25790(4)
C38_3 C 0.9965(3) 0.0469(4) 0.2163(2)
O18_3 O 0.9420(2) 0.0409(3) 0.19531(17)
O21_3 O 0.9549(2) 0.0510(3) 0.31134(17)
O25_3 O 0.81841(17) 0.0213(3) 0.32621(17)
Cr2_2 Cr 0.87681(4) 0.03535(6) 0.25790(4)
O31_2 O 0.85591(17) 0.1767(3) 0.24723(16)
O33_2 O 0.80563(17) 0.0248(3) 0.19476(17)
C41_3 C 0.8103(2) 0.9380(4) 0.3415(2)
C42_3 C 0.8463(2) 0.8609(4) 0.3092(2)
C43_3 C 0.6832(2) 0.6919(4) 0.2930(2)
C44_3 C 0.7129(2) 0.6037(4) 0.3233(2)
O23_3 O 0.77503(17) 0.9112(3) 0.38041(16)
O24_3 O 0.83761(19) 0.7773(3) 0.32443(17)
O26_3 O 0.88041(17) 0.8894(3) 0.26979(16)
O27_3 O 0.70116(18) 0.7711(3) 0.31128(17)
O28_3 O 0.75291(17) 0.6196(3) 0.36276(17)
O29_2 O 0.64409(17) 0.6767(3) 0.25277(16)
O30_2 O 0.69437(17) 0.5248(3) 0.30524(17)
Cr3_2 Cr 0.62319(4) 0.53535(6) 0.24210(4)
C33_4 C 0.6897(2) 0.4380(4) 0.1585(2)
C34_4 C 0.6537(2) 0.3609(4) 0.1908(2)
C35_4 C 0.8168(2) 0.1919(4) 0.2070(2)
C36_4 C 0.7871(2) 0.1037(4) 0.1767(2)
C38_4 C 0.4965(3) 0.5469(4) 0.2163(2)
O7_4 O 0.72497(17) 0.4112(3) 0.11959(16)
O8_4 O 0.66239(19) 0.2773(3) 0.17557(17)
O9_4 O 0.68159(17) 0.5213(3) 0.17379(17)
O10_4 O 0.61959(17) 0.3894(3) 0.23021(16)
O11_4 O 0.79884(18) 0.2711(3) 0.18872(17)
O12_4 O 0.74709(17) 0.1196(3) 0.13724(17)
O17_4 O 0.5451(2) 0.5510(3) 0.18866(17)
O18_4 O 0.4420(2) 0.5409(3) 0.19531(17)
C40_4 C 0.5035(3) 0.5469(4) 0.2837(2)
O21_4 O 0.4549(2) 0.5510(3) 0.31134(17)
O22_4 O 0.5580(2) 0.5409(3) 0.30469(17)
C41_4 C 0.3103(2) 0.4380(4) 0.3415(2)
C42_4 C 0.3463(2) 0.3609(4) 0.3092(2)
C43_4 C 0.1832(2) 0.1919(4) 0.2930(2)
C44_4 C 0.2129(2) 0.1037(4) 0.3233(2)
O23_4 O 0.27503(17) 0.4112(3) 0.38041(16)
O24_4 O 0.33761(19) 0.2773(3) 0.32443(17)
O25_4 O 0.31841(17) 0.5213(3) 0.32621(17)
O26_4 O 0.38041(17) 0.3894(3) 0.26979(16)
O27_4 O 0.20116(18) 0.2711(3) 0.31128(17)
O28_4 O 0.25291(17) 0.1196(3) 0.36276(17)
loop_
_geom_bond_atom_site_label_1
_geom_bond_atom_site_label_2
_geom_bond_site_symmetry_1
_geom_bond_site_symmetry_2
H26 C29 1_555 1_555
C30 C29 1_555 1_555
H27 C30 1_555 1_555
H2 C3 1_555 1_555
C4 C3 1_555 1_555
H3 C4 1_555 1_555
C1 C2 1_555 1_555
C2 H1 1_555 1_555
O1 C1 1_555 1_555
H18 C21 1_555 1_555
C23 C22 1_555 1_555
H19 C23 1_555 1_555
C24 H20 1_555 1_555
H21 C24 1_555 1_555
C25 C24 1_555 1_555
H22 C25 1_555 1_555
H23 C25 1_555 1_555
C26 H24 1_555 1_555
C27 C26 1_555 1_555
C28 C27 1_555 1_555
H25 C28 1_555 1_555
C32 C27 1_555 1_555
N3 C23 1_555 1_555
N4 C25 1_555 1_555
O5 C32 1_555 1_555
Mn2 O1 1_555 1_555
O6 Mn2 1_555 1_555
C21 C22 1_555 1_555
C24 N3 1_555 1_555
C26 N4 1_555 1_555
C31 C32 1_555 1_555
N3 Mn2 1_555 1_555
N4 Mn2 1_555 1_555
O5 Mn2 1_555 1_555
H4 C5 1_555 1_555
C7 C6 1_555 1_555
H5 C7 1_555 1_555
C8 H6 1_555 1_555
H7 C8 1_555 1_555
C9 C8 1_555 1_555
H8 C9 1_555 1_555
H9 C9 1_555 1_555
C10 H10 1_555 1_555
C11 C10 1_555 1_555
C12 C11 1_555 1_555
H11 C12 1_555 1_555
C13 C12 1_555 1_555
H12 C13 1_555 1_555
C14 C13 1_555 1_555
H13 C14 1_555 1_555
C15 C14 1_555 1_555
C16 C11 1_555 1_555
N1 C7 1_555 1_555
N2 C9 1_555 1_555
O2 C16 1_555 1_555
Mn1 N1 1_555 1_555
O3 Mn1 1_555 1_555
C17 C18 1_555 1_555
C18 H15 1_555 1_555
C19 C18 1_555 1_555
H16 C19 1_555 1_555
C20 C19 1_555 1_555
H17 C20 1_555 1_555
O4 Mn1 1_555 1_555
C5 C6 1_555 1_555
C8 N1 1_555 1_555
C10 N2 1_555 1_555
C15 C16 1_555 1_555
N2 Mn1 1_555 1_555
O2 Mn1 1_555 1_555
C17 O4 1_555 1_555
H2_2 C3_2 1_555 1_555
C4_2 C3_2 1_555 1_555
H3_2 C4_2 1_555 1_555
C1_2 C2_2 1_555 1_555
C2_2 H1_2 1_555 1_555
H4_2 C5_2 1_555 1_555
C6_2 C1_2 1_555 1_555
C7_2 C6_2 1_555 1_555
H5_2 C7_2 1_555 1_555
C8_2 H6_2 1_555 1_555
H7_2 C8_2 1_555 1_555
C9_2 C8_2 1_555 1_555
H8_2 C9_2 1_555 1_555
H9_2 C9_2 1_555 1_555
C10_2 H10_2 1_555 1_555
C11_2 C10_2 1_555 1_555
C12_2 C11_2 1_555 1_555
H11_2 C12_2 1_555 1_555
C13_2 C12_2 1_555 1_555
H12_2 C13_2 1_555 1_555
C14_2 C13_2 1_555 1_555
H13_2 C14_2 1_555 1_555
C15_2 C14_2 1_555 1_555
H14_2 C15_2 1_555 1_555
C16_2 C11_2 1_555 1_555
N1_2 C7_2 1_555 1_555
N2_2 C9_2 1_555 1_555
O1_2 C1_2 1_555 1_555
O2_2 C16_2 1_555 1_555
Mn1_2 N1_2 1_555 1_555
O3_2 Mn1_2 1_555 1_555
C17_2 C18_2 1_555 1_555
C18_2 H15_2 1_555 1_555
C19_2 C18_2 1_555 1_555
H16_2 C19_2 1_555 1_555
C20_2 C19_2 1_555 1_555
H17_2 C20_2 1_555 1_555
C21_2 C20_2 1_555 1_555
H18_2 C21_2 1_555 1_555
C22_2 C17_2 1_555 1_555
C23_2 C22_2 1_555 1_555
H19_2 C23_2 1_555 1_555
C24_2 H20_2 1_555 1_555
H21_2 C24_2 1_555 1_555
C25_2 C24_2 1_555 1_555
H22_2 C25_2 1_555 1_555
H23_2 C25_2 1_555 1_555
C26_2 H24_2 1_555 1_555
C27_2 C26_2 1_555 1_555
C28_2 C27_2 1_555 1_555
H25_2 C28_2 1_555 1_555
H28_2 C31_2 1_555 1_555
C32_2 C27_2 1_555 1_555
N3_2 C23_2 1_555 1_555
N4_2 C25_2 1_555 1_555
O4_2 Mn1_2 1_555 1_555
O5_2 C32_2 1_555 1_555
Mn2_2 O1_2 1_555 1_555
O6_2 Mn2_2 1_555 1_555
C5_2 C6_2 1_555 1_555
C8_2 N1_2 1_555 1_555
C10_2 N2_2 1_555 1_555
C15_2 C16_2 1_555 1_555
N2_2 Mn1_2 1_555 1_555
O1_2 Mn1_2 1_555 1_555
O2_2 Mn1_2 1_555 1_555
C17_2 O4_2 1_555 1_555
C21_2 C22_2 1_555 1_555
C24_2 N3_2 1_555 1_555
C26_2 N4_2 1_555 1_555
C31_2 C32_2 1_555 1_555
N3_2 Mn2_2 1_555 1_555
N4_2 Mn2_2 1_555 1_555
O4_2 Mn2_2 1_555 1_555
O5_2 Mn2_2 1_555 1_555
H26_2 C29_2 1_555 1_555
C30_2 C29_2 1_555 1_555
H27_2 C30_2 1_555 1_555
C1_3 C2_3 1_555 1_555
C2_3 H1_3 1_555 1_555
C3_3 C2_3 1_555 1_555
H2_3 C3_3 1_555 1_555
C4_3 C3_3 1_555 1_555
H3_3 C4_3 1_555 1_555
O1_3 C1_3 1_555 1_555
H18_3 C21_3 1_555 1_555
C23_3 C22_3 1_555 1_555
H19_3 C23_3 1_555 1_555
C24_3 H20_3 1_555 1_555
H21_3 C24_3 1_555 1_555
C25_3 C24_3 1_555 1_555
H22_3 C25_3 1_555 1_555
H23_3 C25_3 1_555 1_555
C26_3 H24_3 1_555 1_555
C27_3 C26_3 1_555 1_555
C28_3 C27_3 1_555 1_555
H25_3 C28_3 1_555 1_555
C29_3 C28_3 1_555 1_555
H26_3 C29_3 1_555 1_555
C30_3 C29_3 1_555 1_555
H27_3 C30_3 1_555 1_555
C31_3 C30_3 1_555 1_555
C32_3 C27_3 1_555 1_555
N3_3 C23_3 1_555 1_555
N4_3 C25_3 1_555 1_555
O5_3 C32_3 1_555 1_555
Mn2_3 O1_3 1_555 1_555
O6_3 Mn2_3 1_555 1_555
C21_3 C22_3 1_555 1_555
C24_3 N3_3 1_555 1_555
C26_3 N4_3 1_555 1_555
C31_3 C32_3 1_555 1_555
N3_3 Mn2_3 1_555 1_555
N4_3 Mn2_3 1_555 1_555
O5_3 Mn2_3 1_555 1_555
H4_3 C5_3 1_555 1_555
C7_3 C6_3 1_555 1_555
H5_3 C7_3 1_555 1_555
C8_3 H6_3 1_555 1_555
H7_3 C8_3 1_555 1_555
C9_3 C8_3 1_555 1_555
H8_3 C9_3 1_555 1_555
H9_3 C9_3 1_555 1_555
C10_3 H10_3 1_555 1_555
C11_3 C10_3 1_555 1_555
C12_3 C11_3 1_555 1_555
H11_3 C12_3 1_555 1_555
C16_3 C11_3 1_555 1_555
N1_3 C7_3 1_555 1_555
N2_3 C9_3 1_555 1_555
O2_3 C16_3 1_555 1_555
Mn1_3 N1_3 1_555 1_555
O3_3 Mn1_3 1_555 1_555
C17_3 C18_3 1_555 1_555
C18_3 H15_3 1_555 1_555
O4_3 Mn1_3 1_555 1_555
C5_3 C6_3 1_555 1_555
C8_3 N1_3 1_555 1_555
C10_3 N2_3 1_555 1_555
C15_3 C16_3 1_555 1_555
N2_3 Mn1_3 1_555 1_555
O2_3 Mn1_3 1_555 1_555
C17_3 O4_3 1_555 1_555
H16_3 C19_3 1_555 1_555
C20_3 C19_3 1_555 1_555
H17_3 C20_3 1_555 1_555
H12_3 C13_3 1_555 1_555
C14_3 C13_3 1_555 1_555
H13_3 C14_3 1_555 1_555
H12_4 C13_4 1_555 1_555
C14_4 C13_4 1_555 1_555
H13_4 C14_4 1_555 1_555
C1_4 C2_4 1_555 1_555
C2_4 H1_4 1_555 1_555
C3_4 C2_4 1_555 1_555
H2_4 C3_4 1_555 1_555
C4_4 C3_4 1_555 1_555
H3_4 C4_4 1_555 1_555
C5_4 C4_4 1_555 1_555
H4_4 C5_4 1_555 1_555
C6_4 C1_4 1_555 1_555
C7_4 C6_4 1_555 1_555
H5_4 C7_4 1_555 1_555
C8_4 H6_4 1_555 1_555
H7_4 C8_4 1_555 1_555
C9_4 C8_4 1_555 1_555
H8_4 C9_4 1_555 1_555
H9_4 C9_4 1_555 1_555
C10_4 H10_4 1_555 1_555
C11_4 C10_4 1_555 1_555
C12_4 C11_4 1_555 1_555
H11_4 C12_4 1_555 1_555
H14_4 C15_4 1_555 1_555
C16_4 C11_4 1_555 1_555
N1_4 C7_4 1_555 1_555
N2_4 C9_4 1_555 1_555
O1_4 C1_4 1_555 1_555
O2_4 C16_4 1_555 1_555
Mn1_4 N1_4 1_555 1_555
O3_4 Mn1_4 1_555 1_555
C17_4 C18_4 1_555 1_555
C18_4 H15_4 1_555 1_555
H18_4 C21_4 1_555 1_555
C22_4 C17_4 1_555 1_555
C23_4 C22_4 1_555 1_555
H19_4 C23_4 1_555 1_555
C24_4 H20_4 1_555 1_555
H21_4 C24_4 1_555 1_555
C25_4 C24_4 1_555 1_555
H22_4 C25_4 1_555 1_555
H23_4 C25_4 1_555 1_555
C26_4 H24_4 1_555 1_555
C27_4 C26_4 1_555 1_555
C28_4 C27_4 1_555 1_555
H25_4 C28_4 1_555 1_555
C29_4 C28_4 1_555 1_555
H26_4 C29_4 1_555 1_555
C30_4 C29_4 1_555 1_555
H27_4 C30_4 1_555 1_555
C31_4 C30_4 1_555 1_555
H28_4 C31_4 1_555 1_555
C32_4 C27_4 1_555 1_555
N3_4 C23_4 1_555 1_555
N4_4 C25_4 1_555 1_555
O4_4 Mn1_4 1_555 1_555
O5_4 C32_4 1_555 1_555
Mn2_4 O1_4 1_555 1_555
O6_4 Mn2_4 1_555 1_555
C5_4 C6_4 1_555 1_555
C8_4 N1_4 1_555 1_555
C10_4 N2_4 1_555 1_555
C15_4 C16_4 1_555 1_555
N2_4 Mn1_4 1_555 1_555
O1_4 Mn1_4 1_555 1_555
O2_4 Mn1_4 1_555 1_555
C17_4 O4_4 1_555 1_555
C21_4 C22_4 1_555 1_555
C24_4 N3_4 1_555 1_555
C26_4 N4_4 1_555 1_555
C31_4 C32_4 1_555 1_555
N3_4 Mn2_4 1_555 1_555
N4_4 Mn2_4 1_555 1_555
O4_4 Mn2_4 1_555 1_555
O5_4 Mn2_4 1_555 1_555
H16_4 C19_4 1_555 1_555
C20_4 C19_4 1_555 1_555
H17_4 C20_4 1_555 1_555
C41 C42 1_555 1_555
C42 O24 1_555 1_555
C43 C44 1_555 1_555
C44 O28 1_555 1_555
O23 C41 1_555 1_555
O24 Mn4 1_555 1_555
O26 C42 1_555 1_555
O27 C43 1_555 1_555
O28 Mn4 1_555 1_555
O29 C43 1_555 1_555
O30 C44 1_555 1_555
Mn4 O23 1_555 1_555
O35 Mn4 1_555 1_555
O36 Mn4 1_555 1_555
Cr3 O29 1_555 1_555
O27 Mn4 1_555 1_555
O30 Cr3 1_555 1_555
O18 C38 1_555 1_555
Cr2 O18 1_555 1_555
O31 Cr2 1_555 1_555
O33 Cr2 1_555 1_555
O21 Cr2 1_555 1_555
O25 Cr2 1_555 1_555
O16 C37 1_555 1_555
Mn5 O16 1_555 1_555
O19 Mn5 1_555 1_555
C33 C34 1_555 1_555
C34 O8 1_555 1_555
C35 C36 1_555 1_555
C36 O12 1_555 1_555
O7 C33 1_555 1_555
O8 Mn3 1_555 1_555
O10 C34 1_555 1_555
O11 C35 1_555 1_555
O12 Mn3 1_555 1_555
O13 C35 1_555 1_555
O14 C36 1_555 1_555
O15 Mn3 1_555 1_555
Mn3 O7 1_555 1_555
O20 Mn3 1_555 1_555
Cr4 O13 1_555 1_555
O11 Mn3 1_555 1_555
O14 Cr4 1_555 1_555
C39 O20 1_555 1_555
O17 Cr1 1_555 1_555
Cr1 O9 1_555 1_555
O22 Cr1 1_555 1_555
O32 Cr1 1_555 1_555
O34 Cr1 1_555 1_555
C40 O22 1_555 1_555
C37_2 O35 1_555 1_555
O16_2 C37_2 1_555 1_555
C39_2 C37_2 1_555 1_555
O19_2 C39_2 1_555 1_555
Mn5_2 O16_2 1_555 1_555
C39_2 O36 1_555 1_555
O19_2 Mn5_2 1_555 1_555
O16_3 C37_3 1_555 1_555
Mn5_3 O16_3 1_555 1_555
O19_3 Mn5_3 1_555 1_555
C33_2 C34_2 1_555 1_555
C34_2 O8_2 1_555 1_555
C35_2 C36_2 1_555 1_555
C36_2 O12_2 1_555 1_555
C38_2 O17_2 1_555 1_555
O7_2 C33_2 1_555 1_555
O8_2 Mn3_2 1_555 1_555
O9_2 C33_2 1_555 1_555
O10_2 C34_2 1_555 1_555
O11_2 C35_2 1_555 1_555
O12_2 Mn3_2 1_555 1_555
O31 C35_2 1_555 1_555
O33 C36_2 1_555 1_555
O15_2 Mn3_2 1_555 1_555
O17_2 Cr3 1_555 1_555
O18_2 C38_2 1_555 1_555
Cr3 O9_2 1_555 1_555
Mn3_2 O7_2 1_555 1_555
O20_2 Mn3_2 1_555 1_555
C40_2 C38_2 1_555 1_555
O21_2 C40_2 1_555 1_555
O22_2 Cr3 1_555 1_555
C41_2 C42_2 1_555 1_555
C42_2 O24_2 1_555 1_555
C43_2 C44_2 1_555 1_555
C44_2 O28_2 1_555 1_555
O23_2 C41_2 1_555 1_555
O24_2 Mn4_2 1_555 1_555
O25_2 C41_2 1_555 1_555
O26_2 C42_2 1_555 1_555
O27_2 C43_2 1_555 1_555
O28_2 Mn4_2 1_555 1_555
O32 C43_2 1_555 1_555
O34 C44_2 1_555 1_555
Cr4 O18_2 1_555 1_555
Mn4_2 O23_2 1_555 1_555
O35_2 Mn4_2 1_555 1_555
O36_2 Mn4_2 1_555 1_555
O10_2 Cr3 1_555 1_555
O11_2 Mn3_2 1_555 1_555
C39_3 O20_2 1_555 1_555
C40_2 O22_2 1_555 1_555
O21_2 Cr4 1_555 1_555
O25_2 Cr4 1_555 1_555
O26_2 Cr4 1_555 1_555
O27_2 Mn4_2 1_555 1_555
C37_4 O35_2 1_555 1_555
O16_4 C37_4 1_555 1_555
C39_4 C37_4 1_555 1_555
O19_4 C39_4 1_555 1_555
Mn5_4 O16_4 1_555 1_555
C39_4 O36_2 1_555 1_555
O19_4 Mn5_4 1_555 1_555
O17_3 Cr1_2 1_555 1_555
Cr1_2 O9_3 1_555 1_555
O22_3 Cr1_2 1_555 1_555
O32_2 Cr1_2 1_555 1_555
O34_2 Cr1_2 1_555 1_555
C40_3 O22_3 1_555 1_555
C33_3 C34_3 1_555 1_555
C34_3 O8_3 1_555 1_555
C35_3 C36_3 1_555 1_555
C36_3 O12_3 1_555 1_555
O7_3 C33_3 1_555 1_555
O8_3 Mn5_3 1_555 1_555
O10_3 C34_3 1_555 1_555
O11_3 C35_3 1_555 1_555
O12_3 Mn5_3 1_555 1_555
O13_2 C35_3 1_555 1_555
O14_2 C36_3 1_555 1_555
Mn5_3 O7_3 1_555 1_555
Cr4_2 O13_2 1_555 1_555
O11_3 Mn5_3 1_555 1_555
O14_2 Cr4_2 1_555 1_555
O18_3 C38_3 1_555 1_555
Cr2_2 O18_3 1_555 1_555
O31_2 Cr2_2 1_555 1_555
O33_2 Cr2_2 1_555 1_555
O21_3 Cr2_2 1_555 1_555
O25_3 Cr2_2 1_555 1_555
C41_3 C42_3 1_555 1_555
C42_3 O24_3 1_555 1_555
C43_3 C44_3 1_555 1_555
C44_3 O28_3 1_555 1_555
O23_3 C41_3 1_555 1_555
O24_3 Mn5_4 1_555 1_555
O26_3 C42_3 1_555 1_555
O27_3 C43_3 1_555 1_555
O28_3 Mn5_4 1_555 1_555
O29_2 C43_3 1_555 1_555
O30_2 C44_3 1_555 1_555
Mn5_4 O23_3 1_555 1_555
Cr3_2 O29_2 1_555 1_555
O27_3 Mn5_4 1_555 1_555
O30_2 Cr3_2 1_555 1_555
C33_4 C34_4 1_555 1_555
C34_4 O8_4 1_555 1_555
C35_4 C36_4 1_555 1_555
C36_4 O12_4 1_555 1_555
C38_4 O17_4 1_555 1_555
O7_4 C33_4 1_555 1_555
O8_4 Mn5 1_555 1_555
O9_4 C33_4 1_555 1_555
O10_4 C34_4 1_555 1_555
O11_4 C35_4 1_555 1_555
O12_4 Mn5 1_555 1_555
O31_2 C35_4 1_555 1_555
O33_2 C36_4 1_555 1_555
O17_4 Cr3_2 1_555 1_555
O18_4 C38_4 1_555 1_555
Cr3_2 O9_4 1_555 1_555
Mn5 O7_4 1_555 1_555
C40_4 C38_4 1_555 1_555
O21_4 C40_4 1_555 1_555
O22_4 Cr3_2 1_555 1_555
C41_4 C42_4 1_555 1_555
C42_4 O24_4 1_555 1_555
C43_4 C44_4 1_555 1_555
C44_4 O28_4 1_555 1_555
O23_4 C41_4 1_555 1_555
O24_4 Mn5_2 1_555 1_555
O25_4 C41_4 1_555 1_555
O26_4 C42_4 1_555 1_555
O27_4 C43_4 1_555 1_555
O28_4 Mn5_2 1_555 1_555
O32_2 C43_4 1_555 1_555
O34_2 C44_4 1_555 1_555
Cr4_2 O18_4 1_555 1_555
Mn5_2 O23_4 1_555 1_555
O10_4 Cr3_2 1_555 1_555
O11_4 Mn5 1_555 1_555
C40_4 O22_4 1_555 1_555
O21_4 Cr4_2 1_555 1_555
O25_4 Cr4_2 1_555 1_555
O26_4 Cr4_2 1_555 1_555
O27_4 Mn5_2 1_555 1_555

#END
