
###############################################################################
#
# This file contains modified crystal structure data generated from the
# MOF subset of the Cambridge Structural Database (CSD) v543 
# hosted by the Cambridge Crystallographic Data Centre (CCDC).
#
# This work is licensed under the Creative Commons
# Attribution-NonCommercial-ShareAlike 4.0 International License.
# To view a copy of this license, visit
# http://creativecommons.org/licenses/by-nc-sa/4.0/
# or send a letter to
# Creative Commons, PO Box 1866, Mountain View, CA 94042, USA.
#
# CIF created using the CSD Python API on 29 September 2022
# The structure has been converted into the P1 space group
# The structure has a 3D framework
# The original CSD entry PIQMOT is in the orthorhombic crystal system
# The framework has been calculated to contain at least 10.0% void space
# The void calculation uses a probe of radius 1.32A, grid spacing 0.4
# H atom positions have been added when not included in the experimental data
#
###############################################################################

data_PIQMOT
_chemical_formula_moiety         '(C156 H96 Ce4 N4 O18)n'
_symmetry_cell_setting           triclinic
_symmetry_space_group_name_H-M   'P 1'
_symmetry_Int_Tables_number      1
_space_group_name_Hall           'P 1'
loop_
_symmetry_equiv_pos_site_id
_symmetry_equiv_pos_as_xyz
1 x,y,z
_cell_length_a                   22.1408(6)
_cell_length_b                   24.5577(8)
_cell_length_c                   7.3445(2)
_cell_angle_alpha                90
_cell_angle_beta                 90
_cell_angle_gamma                90
_cell_volume                     3993.4
loop_
_atom_site_label
_atom_site_type_symbol
_atom_site_fract_x
_atom_site_fract_y
_atom_site_fract_z
H18 H 0.2362 0.0574 0.0539
O14 O 0.2611(3) 0.3142(3) 0.0794(13)
Ce1 Ce 0.26041(2) 0.267530(19) 0.78177(15)
O5 O 0.2649(4) 0.1324(4) 0.3398(13)
O6 O 0.2611(3) 0.1858(3) 0.5794(13)
C1 C 0.2630(5) 0.1377(4) 0.5118(18)
C10 C 0.2668(5) 0.0375(5) 0.563(2)
H3 H 0.2745 0.0323 0.4394
C17 C 0.2598(6) 0.0889(6) 0.630(2)
C18 C 0.2519(6) 0.0962(5) 0.812(4)
H8 H 0.2511 0.1313 0.8590
C32 C 0.2449(6) 0.0514(6) 0.932(2)
Ce4 Ce 0.26041(2) 0.232470(19) 0.28177(15)
O7 O 0.3685(4) 0.2964(3) 0.7505(13)
O8 O 0.3191(4) 0.2104(3) 0.9870(13)
O9 O 0.3191(4) 0.2896(3) 0.4870(13)
O10 O 0.1977(3) 0.2141(3) 0.9873(12)
O11 O 0.1977(3) 0.2859(3) 0.4873(12)
O12 O 0.1527(4) 0.3057(3) 0.7460(13)
O13 O 0.2649(4) 0.3676(4) 0.8398(13)
O4 O 0.1527(4) 0.1943(3) 0.2460(13)
C16 C 0.1513(5) 0.1995(4) 0.0781(17)
C20 C 0.0412(5) 0.1812(6) 0.0691(18)
H9 H 0.0416 0.1808 0.1957
C4 C 0.0930(5) 0.1859(4) 0.784(3)
H2 H 0.1287 0.1890 0.7184
C9 C 0.0949(5) 0.1869(5) 0.9719(19)
C25 C 0.0385(6) 0.1803(5) 0.6920(19)
H12 H 0.0381 0.1790 0.5655
O1 O 0.3685(4) 0.2036(3) 0.2505(13)
C7 C 0.3696(6) 0.2015(5) 0.0832(17)
C13 C 0.4817(5) 0.1971(5) 0.075(2)
H5 H 0.4818 0.2047 0.1989
H19 H 0.9514 0.1719 0.0413
H20 H 0.5724 0.1958 0.0466
N1 N 0.7581(4) 0.1669(4) 0.4042(15)
C2 C 0.9848(4) 0.1767(4) 0.788(3)
C3 C 0.4262(4) 0.1787(4) 0.792(3)
H1 H 0.3902 0.1747 0.7285
C5 C 0.5372(5) 0.1792(4) 0.803(2)
C6 C 0.7619(5) 0.1295(4) 0.264(3)
C8 C 0.4253(5) 0.1917(5) 0.9812(17)
C11 C 0.8020(5) 0.0847(4) 0.257(2)
H4 H 0.8322 0.0819 0.3445
C21 C 0.4810(6) 0.1720(4) 0.7048(18)
H10 H 0.4817 0.1628 0.5819
C22 C 0.8748(5) 0.1515(4) 0.774(3)
H11 H 0.8775 0.1374 0.8907
C23 C 0.5949(5) 0.1759(4) 0.6992(17)
C24 C 0.7042(4) 0.1695(5) 0.5047(17)
C26 C 0.7977(5) 0.0456(5) 0.1266(19)
H13 H 0.8245 0.0165 0.1298
C27 C 0.9261(5) 0.1750(5) 0.6848(17)
C28 C 0.8649(5) 0.1972(5) 0.4216(17)
H14 H 0.8615 0.2127 0.3066
C29 C 0.7212(6) 0.1337(5) 0.1106(18)
H15 H 0.6971 0.1645 0.0992
C30 C 0.6429(5) 0.2127(4) 0.7334(15)
H16 H 0.6386 0.2392 0.8227
C31 C 0.8202(5) 0.1508(4) 0.6768(17)
H17 H 0.7868 0.1345 0.7313
C33 C 0.9871(6) 0.1760(6) 0.9758(19)
C34 C 0.5363(5) 0.1913(5) 0.9837(18)
C35 C 0.9191(5) 0.1976(5) 0.5114(18)
H21 H 0.9524 0.2135 0.4551
C36 C 0.6558(4) 0.1320(4) 0.4680(18)
C37 C 0.8133(6) 0.1725(5) 0.5071(17)
C38 C 0.6035(5) 0.1359(5) 0.5640(17)
C39 C 0.6960(6) 0.2094(4) 0.6352(16)
H22 H 0.661024 0.100722 0.364081
H23 H 0.567145 0.107263 0.535623
H24 H 0.731943 0.238672 0.660978
N1_2 N 0.2419(4) 0.6669(4) 0.9042(15)
C1_2 C 0.2630(5) 0.3623(4) 0.0118(18)
C6_2 C 0.2381(5) 0.6295(4) 0.764(3)
C10_2 C 0.2668(5) 0.4625(5) 0.063(2)
C11_2 C 0.1980(5) 0.5847(4) 0.757(2)
H4_2 H 0.1678 0.5819 0.8445
C12 C 0.2508(7) 0.5018(8) 0.367(2)
C14 C 0.2624(8) 0.5075(7) 0.178(2)
H6 H 0.2672 0.5422 0.1301
C15 C 0.2827(6) 0.5934(5) 0.4812(18)
H7 H 0.3107 0.5968 0.3875
C17_2 C 0.2598(6) 0.4111(6) 0.130(2)
C18_2 C 0.2519(6) 0.4038(5) 0.312(4)
H8_2 H 0.2511 0.3687 0.3590
C19 C 0.2453(5) 0.5475(5) 0.4879(18)
C26_2 C 0.2023(5) 0.5456(5) 0.6266(19)
H13_2 H 0.1755 0.5165 0.6298
C28_2 C 0.1351(5) 0.6972(5) 0.9216(17)
H14_2 H 0.1385 0.7127 0.8066
C29_2 C 0.2788(6) 0.6337(5) 0.6106(18)
H15_2 H 0.3029 0.6645 0.5992
C32_2 C 0.2449(6) 0.4486(6) 0.432(2)
H18_2 H 0.2362 0.4426 0.5539
H21_2 H 0.0476 0.7135 0.9551
C36_2 C 0.3442(4) 0.6320(4) 0.9680(18)
H22_2 H 0.338976 0.600722 0.864081
H3_2 H 0.2745 0.4677 0.9394
C4_2 C 0.0930(5) 0.3141(4) 0.284(3)
H2_2 H 0.1287 0.3110 0.2184
C9_2 C 0.0949(5) 0.3131(5) 0.4719(19)
C16_2 C 0.1513(5) 0.3005(4) 0.5781(17)
C20_2 C 0.0412(5) 0.3188(6) 0.5691(18)
H9_2 H 0.0416 0.3192 0.6957
C25_2 C 0.0385(6) 0.3197(5) 0.1920(19)
H12_2 H 0.0381 0.3210 0.0655
C2_2 C 0.9848(4) 0.3233(4) 0.288(3)
C3_2 C 0.4262(4) 0.3213(4) 0.292(3)
H1_2 H 0.3902 0.3253 0.2285
C5_2 C 0.5372(5) 0.3208(4) 0.303(2)
C7_2 C 0.3696(6) 0.2985(5) 0.5832(17)
C8_2 C 0.4253(5) 0.3083(5) 0.4812(17)
C13_2 C 0.4817(5) 0.3029(5) 0.575(2)
H5_2 H 0.4818 0.2953 0.6989
C21_2 C 0.4810(6) 0.3280(4) 0.2048(18)
H10_2 H 0.4817 0.3372 0.0819
C22_2 C 0.8748(5) 0.3485(4) 0.274(3)
H11_2 H 0.8775 0.3626 0.3907
C23_2 C 0.5949(5) 0.3241(4) 0.1992(17)
C24_2 C 0.7042(4) 0.3305(5) 0.0047(17)
C27_2 C 0.9261(5) 0.3250(5) 0.1848(17)
C30_2 C 0.6429(5) 0.2873(4) 0.2334(15)
H16_2 H 0.6386 0.2608 0.3227
C31_2 C 0.8202(5) 0.3492(4) 0.1768(17)
H17_2 H 0.7868 0.3655 0.2313
C33_2 C 0.9871(6) 0.3240(6) 0.4758(19)
H19_2 H 0.9514 0.3281 0.5413
C34_2 C 0.5363(5) 0.3087(5) 0.4837(18)
H20_2 H 0.5724 0.3042 0.5466
C35_2 C 0.9191(5) 0.3024(5) 0.0114(18)
C37_2 C 0.8133(6) 0.3275(5) 0.0071(17)
C38_2 C 0.6035(5) 0.3641(5) 0.0640(17)
C39_2 C 0.6960(6) 0.2906(4) 0.1352(16)
H23_2 H 0.567145 0.392737 0.0356234
H24_2 H 0.731943 0.261328 0.160978
O1_2 O 0.6315(4) 0.7964(3) 0.2505(13)
C7_3 C 0.6304(6) 0.7985(5) 0.0832(17)
C13_3 C 0.5183(5) 0.8029(5) 0.075(2)
H5_3 H 0.5182 0.7953 0.1989
H19_3 H 0.0486 0.8281 0.0413
H20_3 H 0.4276 0.8042 0.0466
Ce6 Ce 0.73959(2) 0.767530(19) 0.28177(15)
O2 O 0.6809(4) 0.7896(3) 0.9870(13)
N1_3 N 0.2419(4) 0.8331(4) 0.4042(15)
C2_3 C 0.0152(4) 0.8233(4) 0.788(3)
C3_3 C 0.5738(4) 0.8213(4) 0.792(3)
H1_3 H 0.6098 0.8253 0.7285
C5_3 C 0.4628(5) 0.8208(4) 0.803(2)
C6_3 C 0.2381(5) 0.8705(4) 0.264(3)
C8_3 C 0.5747(5) 0.8083(5) 0.9812(17)
C11_3 C 0.1980(5) 0.9153(4) 0.257(2)
H4_3 H 0.1678 0.9181 0.3445
C21_3 C 0.5190(6) 0.8280(4) 0.7048(18)
H10_3 H 0.5183 0.8372 0.5819
C22_3 C 0.1252(5) 0.8485(4) 0.774(3)
H11_3 H 0.1225 0.8626 0.8907
C23_3 C 0.4051(5) 0.8241(4) 0.6992(17)
C24_3 C 0.2958(4) 0.8305(5) 0.5047(17)
C26_3 C 0.2023(5) 0.9544(5) 0.1266(19)
H13_3 H 0.1755 0.9835 0.1298
C27_3 C 0.0739(5) 0.8250(5) 0.6848(17)
C28_3 C 0.1351(5) 0.8028(5) 0.4216(17)
H14_3 H 0.1385 0.7873 0.3066
C29_3 C 0.2788(6) 0.8663(5) 0.1106(18)
H15_3 H 0.3029 0.8355 0.0992
C30_3 C 0.3571(5) 0.7873(4) 0.7334(15)
H16_3 H 0.3614 0.7608 0.8227
C31_3 C 0.1798(5) 0.8492(4) 0.6768(17)
H17_3 H 0.2132 0.8655 0.7313
C33_3 C 0.0129(6) 0.8240(6) 0.9758(19)
C34_3 C 0.4637(5) 0.8087(5) 0.9837(18)
C35_3 C 0.0809(5) 0.8024(5) 0.5114(18)
H21_3 H 0.0476 0.7865 0.4551
C36_3 C 0.3442(4) 0.8680(4) 0.4680(18)
C37_3 C 0.1867(6) 0.8275(5) 0.5071(17)
C38_3 C 0.3965(5) 0.8641(5) 0.5640(17)
C39_3 C 0.3040(6) 0.7906(4) 0.6352(16)
Ce3 Ce 0.73959(2) 0.732470(19) 0.78177(15)
H22_3 H 0.338976 0.899278 0.364081
H23_3 H 0.432855 0.892737 0.535623
H24_3 H 0.268057 0.761328 0.660978
O4_2 O 0.8473(4) 0.8057(3) 0.2460(13)
C16_3 C 0.8487(5) 0.8005(4) 0.0781(17)
C20_3 C 0.9588(5) 0.8188(6) 0.0691(18)
H9_3 H 0.9584 0.8192 0.1957
O3 O 0.8023(3) 0.7859(3) 0.9873(12)
C4_3 C 0.9070(5) 0.8141(4) 0.784(3)
H2_3 H 0.8713 0.8110 0.7184
C9_3 C 0.9051(5) 0.8131(5) 0.9719(19)
C25_3 C 0.9615(6) 0.8197(5) 0.6920(19)
H12_3 H 0.9619 0.8210 0.5655
H18_3 H 0.7638 0.9426 0.0539
O14_2 O 0.7389(3) 0.6858(3) 0.0794(13)
O5_2 O 0.7351(4) 0.8676(4) 0.3398(13)
O6_2 O 0.7389(3) 0.8142(3) 0.5794(13)
C1_3 C 0.7370(5) 0.8623(4) 0.5118(18)
C10_3 C 0.7332(5) 0.9625(5) 0.563(2)
H3_3 H 0.7255 0.9677 0.4394
C17_3 C 0.7402(6) 0.9111(6) 0.630(2)
C18_3 C 0.7481(6) 0.9038(5) 0.812(4)
H8_3 H 0.7489 0.8687 0.8590
C32_3 C 0.7551(6) 0.9486(6) 0.932(2)
O7_2 O 0.6315(4) 0.7036(3) 0.7505(13)
O9_2 O 0.6809(4) 0.7104(3) 0.4870(13)
O11_2 O 0.8023(3) 0.7141(3) 0.4873(12)
O12_2 O 0.8473(4) 0.6943(3) 0.7460(13)
O13_2 O 0.7351(4) 0.6324(4) 0.8398(13)
C2_4 C 0.0152(4) 0.6767(4) 0.288(3)
C3_4 C 0.5738(4) 0.6787(4) 0.292(3)
H1_4 H 0.6098 0.6747 0.2285
C5_4 C 0.4628(5) 0.6792(4) 0.303(2)
C7_4 C 0.6304(6) 0.7015(5) 0.5832(17)
C8_4 C 0.5747(5) 0.6917(5) 0.4812(17)
C13_4 C 0.5183(5) 0.6971(5) 0.575(2)
H5_4 H 0.5182 0.7047 0.6989
C21_4 C 0.5190(6) 0.6720(4) 0.2048(18)
H10_4 H 0.5183 0.6628 0.0819
C22_4 C 0.1252(5) 0.6515(4) 0.274(3)
H11_4 H 0.1225 0.6374 0.3907
C23_4 C 0.4051(5) 0.6759(4) 0.1992(17)
C24_4 C 0.2958(4) 0.6695(5) 0.0047(17)
C27_4 C 0.0739(5) 0.6750(5) 0.1848(17)
C30_4 C 0.3571(5) 0.7127(4) 0.2334(15)
H16_4 H 0.3614 0.7392 0.3227
C31_4 C 0.1798(5) 0.6508(4) 0.1768(17)
H17_4 H 0.2132 0.6345 0.2313
C33_4 C 0.0129(6) 0.6760(6) 0.4758(19)
H19_4 H 0.0486 0.6719 0.5413
C34_4 C 0.4637(5) 0.6913(5) 0.4837(18)
H20_4 H 0.4276 0.6958 0.5466
C35_4 C 0.0809(5) 0.6976(5) 0.0114(18)
C37_4 C 0.1867(6) 0.6725(5) 0.0071(17)
C38_4 C 0.3965(5) 0.6359(5) 0.0640(17)
C39_4 C 0.3040(6) 0.7094(4) 0.1352(16)
H23_4 H 0.432855 0.607263 0.0356234
H24_4 H 0.268057 0.738672 0.160978
C4_4 C 0.9070(5) 0.6859(4) 0.284(3)
H2_4 H 0.8713 0.6890 0.2184
C9_4 C 0.9051(5) 0.6869(5) 0.4719(19)
C16_4 C 0.8487(5) 0.6995(4) 0.5781(17)
C20_4 C 0.9588(5) 0.6812(6) 0.5691(18)
H9_4 H 0.9584 0.6808 0.6957
C25_4 C 0.9615(6) 0.6803(5) 0.1920(19)
H12_4 H 0.9619 0.6790 0.0655
N1_4 N 0.7581(4) 0.3331(4) 0.9042(15)
C1_4 C 0.7370(5) 0.6377(4) 0.0118(18)
C6_4 C 0.7619(5) 0.3705(4) 0.764(3)
C10_4 C 0.7332(5) 0.5375(5) 0.063(2)
C11_4 C 0.8020(5) 0.4153(4) 0.757(2)
H4_4 H 0.8322 0.4181 0.8445
C12_2 C 0.7492(7) 0.4982(8) 0.367(2)
C14_2 C 0.7376(8) 0.4925(7) 0.178(2)
H6_2 H 0.7328 0.4578 0.1301
C15_2 C 0.7173(6) 0.4066(5) 0.4812(18)
H7_2 H 0.6893 0.4032 0.3875
C17_4 C 0.7402(6) 0.5889(6) 0.130(2)
C18_4 C 0.7481(6) 0.5962(5) 0.312(4)
H8_4 H 0.7489 0.6313 0.3590
C19_2 C 0.7547(5) 0.4525(5) 0.4879(18)
C26_4 C 0.7977(5) 0.4544(5) 0.6266(19)
H13_4 H 0.8245 0.4835 0.6298
C28_4 C 0.8649(5) 0.3028(5) 0.9216(17)
H14_4 H 0.8615 0.2873 0.8066
C29_4 C 0.7212(6) 0.3663(5) 0.6106(18)
H15_4 H 0.6971 0.3355 0.5992
C32_4 C 0.7551(6) 0.5514(6) 0.432(2)
H18_4 H 0.7638 0.5574 0.5539
H21_4 H 0.9524 0.2865 0.9551
C36_4 C 0.6558(4) 0.3680(4) 0.9680(18)
H22_4 H 0.661024 0.399278 0.864081
H3_4 H 0.7255 0.5323 0.9394
C12_3 C 0.2508(7) 0.9982(8) 0.867(2)
C14_3 C 0.2624(8) 0.9925(7) 0.678(2)
H6_3 H 0.2672 0.9578 0.6301
C15_3 C 0.2827(6) 0.9066(5) 0.9812(18)
H7_3 H 0.3107 0.9032 0.8875
C19_3 C 0.2453(5) 0.9525(5) 0.9879(18)
C12_4 C 0.7492(7) 0.0018(8) 0.867(2)
C14_4 C 0.7376(8) 0.0075(7) 0.678(2)
H6_4 H 0.7328 0.0422 0.6301
C15_4 C 0.7173(6) 0.0934(5) 0.9812(18)
H7_4 H 0.6893 0.0968 0.8875
C19_4 C 0.7547(5) 0.0475(5) 0.9879(18)
loop_
_geom_bond_atom_site_label_1
_geom_bond_atom_site_label_2
_geom_bond_site_symmetry_1
_geom_bond_site_symmetry_2
Ce1 O6 1_555 1_555
O5 C1 1_555 1_555
O6 C1 1_555 1_555
C1 C17 1_555 1_555
C10 H3 1_555 1_555
C17 C10 1_555 1_555
C18 C17 1_555 1_555
H8 C18 1_555 1_555
Ce4 O5 1_555 1_555
O7 Ce1 1_555 1_555
O8 Ce1 1_555 1_555
O9 Ce1 1_555 1_555
O10 Ce1 1_555 1_555
O11 Ce1 1_555 1_555
O12 Ce1 1_555 1_555
O13 Ce1 1_555 1_555
O6 Ce4 1_555 1_555
C18 C32 1_555 1_555
Ce4 O9 1_555 1_555
Ce4 O11 1_555 1_555
O4 C16 1_555 1_555
H9 C20 1_555 1_555
O4 Ce4 1_555 1_555
C4 H2 1_555 1_555
C9 C4 1_555 1_555
C25 C4 1_555 1_555
H12 C25 1_555 1_555
O1 C7 1_555 1_555
H5 C13 1_555 1_555
Ce4 O1 1_555 1_555
N1 C6 1_555 1_555
C3 H1 1_555 1_555
C5 C21 1_555 1_555
C6 C11 1_555 1_555
C8 C3 1_555 1_555
C11 H4 1_555 1_555
C21 C3 1_555 1_555
H10 C21 1_555 1_555
C22 H11 1_555 1_555
C23 C5 1_555 1_555
C24 N1 1_555 1_555
C26 C11 1_555 1_555
H13 C26 1_555 1_555
C27 C2 1_555 1_555
C28 H14 1_555 1_555
C29 C6 1_555 1_555
H15 C29 1_555 1_555
C30 C23 1_555 1_555
H16 C30 1_555 1_555
C31 C22 1_555 1_555
H17 C31 1_555 1_555
C33 C2 1_555 1_555
C34 C5 1_555 1_555
C35 C27 1_555 1_555
H21 C35 1_555 1_555
C36 C24 1_555 1_555
C37 N1 1_555 1_555
C38 C23 1_555 1_555
C39 C24 1_555 1_555
C22 C27 1_555 1_555
C28 C35 1_555 1_555
C28 C37 1_555 1_555
C30 C39 1_555 1_555
C31 C37 1_555 1_555
C36 C38 1_555 1_555
C36 H22 1_555 1_555
C38 H23 1_555 1_555
C39 H24 1_555 1_555
Ce4 O14 1_555 1_555
O14 C1_2 1_555 1_555
N1_2 C6_2 1_555 1_555
C1_2 C17_2 1_555 1_555
C6_2 C11_2 1_555 1_555
C11_2 H4_2 1_555 1_555
C12 C14 1_555 1_555
C14 C10_2 1_555 1_555
H6 C14 1_555 1_555
C15 H7 1_555 1_555
C17_2 C10_2 1_555 1_555
C18_2 C17_2 1_555 1_555
H8_2 C18_2 1_555 1_555
C19 C12 1_555 1_555
C26_2 C11_2 1_555 1_555
H13_2 C26_2 1_555 1_555
C28_2 H14_2 1_555 1_555
C29_2 C6_2 1_555 1_555
H15_2 C29_2 1_555 1_555
C32_2 C12 1_555 1_555
H18_2 C32_2 1_555 1_555
C15 C19 1_555 1_555
C15 C29_2 1_555 1_555
C18_2 C32_2 1_555 1_555
C19 C26_2 1_555 1_555
C36_2 H22_2 1_555 1_555
O11 C16_2 1_555 1_555
O12 C16_2 1_555 1_555
C4_2 H2_2 1_555 1_555
C9_2 C4_2 1_555 1_555
C16_2 C9_2 1_555 1_555
C20_2 C9_2 1_555 1_555
H9_2 C20_2 1_555 1_555
C25_2 C4_2 1_555 1_555
H12_2 C25_2 1_555 1_555
O7 C7_2 1_555 1_555
O9 C7_2 1_555 1_555
C3_2 H1_2 1_555 1_555
C5_2 C21_2 1_555 1_555
C7_2 C8_2 1_555 1_555
C8_2 C3_2 1_555 1_555
C13_2 C8_2 1_555 1_555
H5_2 C13_2 1_555 1_555
C21_2 C3_2 1_555 1_555
H10_2 C21_2 1_555 1_555
C22_2 H11_2 1_555 1_555
C23_2 C5_2 1_555 1_555
C27_2 C2_2 1_555 1_555
C30_2 C23_2 1_555 1_555
H16_2 C30_2 1_555 1_555
C31_2 C22_2 1_555 1_555
H17_2 C31_2 1_555 1_555
C33_2 C2_2 1_555 1_555
H19_2 C33_2 1_555 1_555
C34_2 C5_2 1_555 1_555
H20_2 C34_2 1_555 1_555
C35_2 C27_2 1_555 1_555
C38_2 C23_2 1_555 1_555
C39_2 C24_2 1_555 1_555
C13_2 C34_2 1_555 1_555
C22_2 C27_2 1_555 1_555
C30_2 C39_2 1_555 1_555
C31_2 C37_2 1_555 1_555
C38_2 H23_2 1_555 1_555
C39_2 H24_2 1_555 1_555
O1_2 C7_3 1_555 1_555
H5_3 C13_3 1_555 1_555
Ce6 O1_2 1_555 1_555
N1_3 C6_3 1_555 1_555
C3_3 H1_3 1_555 1_555
C5_3 C21_3 1_555 1_555
C6_3 C11_3 1_555 1_555
C8_3 C3_3 1_555 1_555
C11_3 H4_3 1_555 1_555
C21_3 C3_3 1_555 1_555
H10_3 C21_3 1_555 1_555
C22_3 H11_3 1_555 1_555
C23_3 C5_3 1_555 1_555
C24_3 N1_3 1_555 1_555
C26_3 C11_3 1_555 1_555
H13_3 C26_3 1_555 1_555
C27_3 C2_3 1_555 1_555
C28_3 H14_3 1_555 1_555
C29_3 C6_3 1_555 1_555
H15_3 C29_3 1_555 1_555
C30_3 C23_3 1_555 1_555
H16_3 C30_3 1_555 1_555
C31_3 C22_3 1_555 1_555
H17_3 C31_3 1_555 1_555
C33_3 C2_3 1_555 1_555
C34_3 C5_3 1_555 1_555
C35_3 C27_3 1_555 1_555
H21_3 C35_3 1_555 1_555
C36_3 C24_3 1_555 1_555
C37_3 N1_3 1_555 1_555
C38_3 C23_3 1_555 1_555
C39_3 C24_3 1_555 1_555
Ce3 O2 1_555 1_555
C22_3 C27_3 1_555 1_555
C28_3 C35_3 1_555 1_555
C28_3 C37_3 1_555 1_555
C30_3 C39_3 1_555 1_555
C31_3 C37_3 1_555 1_555
C36_3 C38_3 1_555 1_555
C36_3 H22_3 1_555 1_555
C38_3 H23_3 1_555 1_555
C39_3 H24_3 1_555 1_555
O4_2 C16_3 1_555 1_555
H9_3 C20_3 1_555 1_555
O4_2 Ce6 1_555 1_555
C4_3 H2_3 1_555 1_555
C9_3 C4_3 1_555 1_555
C25_3 C4_3 1_555 1_555
H12_3 C25_3 1_555 1_555
Ce3 O3 1_555 1_555
Ce3 O6_2 1_555 1_555
O5_2 C1_3 1_555 1_555
O6_2 C1_3 1_555 1_555
C1_3 C17_3 1_555 1_555
C10_3 H3_3 1_555 1_555
C17_3 C10_3 1_555 1_555
C18_3 C17_3 1_555 1_555
H8_3 C18_3 1_555 1_555
Ce6 O5_2 1_555 1_555
O7_2 Ce3 1_555 1_555
O9_2 Ce3 1_555 1_555
O11_2 Ce3 1_555 1_555
O12_2 Ce3 1_555 1_555
O13_2 Ce3 1_555 1_555
O6_2 Ce6 1_555 1_555
C18_3 C32_3 1_555 1_555
Ce6 O9_2 1_555 1_555
Ce6 O11_2 1_555 1_555
O7_2 C7_4 1_555 1_555
O9_2 C7_4 1_555 1_555
C3_4 H1_4 1_555 1_555
C5_4 C21_4 1_555 1_555
C7_4 C8_4 1_555 1_555
C8_4 C3_4 1_555 1_555
C13_4 C8_4 1_555 1_555
H5_4 C13_4 1_555 1_555
C21_4 C3_4 1_555 1_555
H10_4 C21_4 1_555 1_555
C22_4 H11_4 1_555 1_555
C23_4 C5_4 1_555 1_555
C27_4 C2_4 1_555 1_555
C30_4 C23_4 1_555 1_555
H16_4 C30_4 1_555 1_555
C31_4 C22_4 1_555 1_555
H17_4 C31_4 1_555 1_555
C33_4 C2_4 1_555 1_555
H19_4 C33_4 1_555 1_555
C34_4 C5_4 1_555 1_555
H20_4 C34_4 1_555 1_555
C35_4 C27_4 1_555 1_555
C38_4 C23_4 1_555 1_555
C39_4 C24_4 1_555 1_555
C13_4 C34_4 1_555 1_555
C22_4 C27_4 1_555 1_555
C30_4 C39_4 1_555 1_555
C31_4 C37_4 1_555 1_555
C38_4 H23_4 1_555 1_555
C39_4 H24_4 1_555 1_555
O11_2 C16_4 1_555 1_555
O12_2 C16_4 1_555 1_555
C4_4 H2_4 1_555 1_555
C9_4 C4_4 1_555 1_555
C16_4 C9_4 1_555 1_555
C20_4 C9_4 1_555 1_555
H9_4 C20_4 1_555 1_555
C25_4 C4_4 1_555 1_555
H12_4 C25_4 1_555 1_555
Ce6 O14_2 1_555 1_555
O14_2 C1_4 1_555 1_555
N1_4 C6_4 1_555 1_555
C1_4 C17_4 1_555 1_555
C6_4 C11_4 1_555 1_555
C11_4 H4_4 1_555 1_555
C12_2 C14_2 1_555 1_555
C14_2 C10_4 1_555 1_555
H6_2 C14_2 1_555 1_555
C15_2 H7_2 1_555 1_555
C17_4 C10_4 1_555 1_555
C18_4 C17_4 1_555 1_555
H8_4 C18_4 1_555 1_555
C19_2 C12_2 1_555 1_555
C26_4 C11_4 1_555 1_555
H13_4 C26_4 1_555 1_555
C28_4 H14_4 1_555 1_555
C29_4 C6_4 1_555 1_555
H15_4 C29_4 1_555 1_555
C32_4 C12_2 1_555 1_555
H18_4 C32_4 1_555 1_555
C15_2 C19_2 1_555 1_555
C15_2 C29_4 1_555 1_555
C18_4 C32_4 1_555 1_555
C19_2 C26_4 1_555 1_555
C36_4 H22_4 1_555 1_555
C12_3 C14_3 1_555 1_555
H6_3 C14_3 1_555 1_555
C15_3 H7_3 1_555 1_555
C19_3 C12_3 1_555 1_555
C15_3 C19_3 1_555 1_555
C12_4 C14_4 1_555 1_555
H6_4 C14_4 1_555 1_555
C15_4 H7_4 1_555 1_555
C19_4 C12_4 1_555 1_555
C15_4 C19_4 1_555 1_555

#END
