
###############################################################################
#
# This file contains modified crystal structure data generated from the
# MOF subset of the Cambridge Structural Database (CSD) v543 
# hosted by the Cambridge Crystallographic Data Centre (CCDC).
#
# This work is licensed under the Creative Commons
# Attribution-NonCommercial-ShareAlike 4.0 International License.
# To view a copy of this license, visit
# http://creativecommons.org/licenses/by-nc-sa/4.0/
# or send a letter to
# Creative Commons, PO Box 1866, Mountain View, CA 94042, USA.
#
# CIF created using the CSD Python API on 29 September 2022
# The structure has been converted into the P1 space group
# The structure has a 3D framework
# The original CSD entry PIQMUZ is in the orthorhombic crystal system
# The framework has been calculated to contain at least 10.0% void space
# The void calculation uses a probe of radius 1.32A, grid spacing 0.4
# The framework is charged, counterions have been retained in the structure
# H atom positions have been added when not included in the experimental data
# Generated hydrogen atom positions removed from atoms on special positions
#
###############################################################################

data_PIQMUZ
_chemical_formula_moiety         '(C312 H232 Ce9 N8 O50 4-)n'
_symmetry_cell_setting           triclinic
_symmetry_space_group_name_H-M   'P 1'
_symmetry_Int_Tables_number      1
_space_group_name_Hall           'P 1'
loop_
_symmetry_equiv_pos_site_id
_symmetry_equiv_pos_as_xyz
1 x,y,z
_cell_length_a                   35.7507(7)
_cell_length_b                   16.3257(3)
_cell_length_c                   13.1559(3)
_cell_angle_alpha                90
_cell_angle_beta                 90
_cell_angle_gamma                90
_cell_volume                     7678.51
loop_
_atom_site_label
_atom_site_type_symbol
_atom_site_fract_x
_atom_site_fract_y
_atom_site_fract_z
Ce1 Ce -0.0000 0.0000 0.64079(8)
O11 O 0.04322(17) 0.0051(3) 0.7833(7)
O17 O 0.05653(15) 0.0598(3) 0.5556(5)
H52 H 0.00614994 0.178512 0.63677
Ce1_2 Ce 1.0000 1.0000 0.64079(8)
O4 O 0.95678(17) 0.9949(3) 0.7833(7)
O18 O 0.94347(15) 0.9402(3) 0.5556(5)
H53 H 0.984707 0.826624 0.677551
H53_2 H 0.0152927 0.173376 0.677551
H52_2 H 0.99385 0.821488 0.63677
C3 C 0.15139(14) 0.0679(3) 0.1351(6)
H3 H 0.3157 0.2397 0.0282
C10 C 0.08093(16) 0.0236(4) 0.3912(6)
C15 C 0.18595(15) 0.1656(3) 0.0298(4)
H7 H 0.1939 0.2191 0.0185
C18 C 0.10979(17) 0.0808(4) 0.3964(5)
H9 H 0.1136 0.1102 0.4561
H10 H 0.2640 0.1548 0.0268
C25 C 0.16352(14) 0.1481(3) 0.1136(5)
H15 H 0.1564 0.1906 0.1565
C29 C 0.12729(16) 0.0515(4) 0.2239(5)
H20 H 0.3715 0.2787 0.0069
C32 C 0.13277(18) 0.0940(4) 0.3133(5)
H21 H 0.1521 0.1320 0.3178
C38 C 0.1618(2) 0.0061(3) 0.0659(5)
C39 C 0.0560(2) 0.0091(4) 0.4814(7)
C42 C 0.84861(14) 0.9321(3) 0.1351(6)
H28 H 0.6843 0.7603 0.0282
C49 C 0.91907(16) 0.9764(4) 0.3912(6)
C54 C 0.81405(15) 0.8344(3) 0.0298(4)
H32 H 0.8061 0.7809 0.0185
C57 C 0.89021(17) 0.9192(4) 0.3964(5)
H34 H 0.8864 0.8898 0.4561
H35 H 0.7360 0.8452 0.0268
C64 C 0.83648(14) 0.8519(3) 0.1136(5)
H40 H 0.8436 0.8094 0.1565
C68 C 0.87271(16) 0.9485(4) 0.2239(5)
H45 H 0.6285 0.7213 0.0069
C71 C 0.86723(18) 0.9060(4) 0.3133(5)
H46 H 0.8479 0.8680 0.3178
C77 C 0.8382(2) 0.9939(3) 0.0659(5)
C78 C 0.9440(2) 0.9909(4) 0.4814(7)
C42_2 C 0.34861(14) 0.5679(3) 0.1351(6)
H28_2 H 0.1843 0.7397 0.0282
O9 O 0.46466(13) 0.4478(3) 0.4872(4)
C49_2 C 0.41907(16) 0.5236(4) 0.3912(6)
C54_2 C 0.31405(15) 0.6656(3) 0.0298(4)
H32_2 H 0.3061 0.7191 0.0185
C57_2 C 0.39021(17) 0.5808(4) 0.3964(5)
H34_2 H 0.3864 0.6102 0.4561
H35_2 H 0.2360 0.6548 0.0268
C64_2 C 0.33648(14) 0.6481(3) 0.1136(5)
H40_2 H 0.3436 0.6906 0.1565
C68_2 C 0.37271(16) 0.5515(4) 0.2239(5)
H45_2 H 0.1285 0.7787 0.0069
C71_2 C 0.36723(18) 0.5940(4) 0.3133(5)
H46_2 H 0.3479 0.6320 0.3178
C74 C 0.42438(17) 0.4796(4) 0.3027(6)
H48 H 0.4433 0.4406 0.2991
C75 C 0.4013(2) 0.4937(3) 0.2176(7)
H49 H 0.4051 0.4646 0.1577
C77_2 C 0.3382(2) 0.5061(3) 0.0659(5)
H50 H 0.3465 0.4528 0.0763
O14 O 0.44347(15) 0.5598(3) 0.5556(5)
C78_2 C 0.4440(2) 0.5091(4) 0.4814(7)
Ce3 Ce 0.5000 0.5000 0.64079(8)
C3_2 C 0.65139(14) 0.4321(3) 0.1351(6)
H3_2 H 0.8157 0.2603 0.0282
O2 O 0.53534(13) 0.5522(3) 0.4872(4)
C10_2 C 0.58093(16) 0.4764(4) 0.3912(6)
C15_2 C 0.68595(15) 0.3344(3) 0.0298(4)
H7_2 H 0.6939 0.2809 0.0185
C18_2 C 0.60979(17) 0.4192(4) 0.3964(5)
H9_2 H 0.6136 0.3898 0.4561
H10_2 H 0.7640 0.3452 0.0268
C25_2 C 0.66352(14) 0.3519(3) 0.1136(5)
H15_2 H 0.6564 0.3094 0.1565
C29_2 C 0.62729(16) 0.4485(4) 0.2239(5)
H20_2 H 0.8715 0.2213 0.0069
C32_2 C 0.63277(18) 0.4060(4) 0.3133(5)
H21_2 H 0.6521 0.3680 0.3178
C35 C 0.57562(17) 0.5204(4) 0.3027(6)
H23 H 0.5567 0.5594 0.2991
C36 C 0.5987(2) 0.5063(3) 0.2176(7)
H24 H 0.5949 0.5354 0.1577
C38_2 C 0.6618(2) 0.4939(3) 0.0659(5)
H25 H 0.6535 0.5472 0.0763
O7 O 0.55653(15) 0.4402(3) 0.5556(5)
C39_2 C 0.5560(2) 0.4909(4) 0.4814(7)
C1 C 0.24950(17) 0.1746(3) 0.8797(4)
C2 C 0.28992(15) 0.2704(3) 0.7953(4)
H1 H 0.2960 0.3005 0.7375
C4 C 0.31285(13) 0.2760(3) 0.8827(4)
C5 C 0.30192(14) 0.2339(3) 0.9687(4)
C6 C 0.34810(13) 0.3250(3) 0.8784(5)
C7 C 0.16714(16) 0.0421(3) 0.6532(5)
H4 H 0.1436 0.0475 0.6237
C9 C 0.35493(17) 0.3815(4) 0.8014(6)
H5 H 0.3368 0.3904 0.7518
C11 C 0.41497(14) 0.4143(4) 0.8697(6)
C12 C 0.21089(16) 0.0796(3) 0.7831(5)
C14 C 0.25862(15) 0.2209(3) 0.7945(4)
H6 H 0.2436 0.2185 0.7369
C17 C 0.19658(15) 0.1041(3) 0.9629(4)
C19 C 0.27073(14) 0.1831(3) 0.9682(4)
C21 C 0.38822(17) 0.4246(4) 0.7974(7)
H12 H 0.3924 0.4612 0.7444
N1 N 0.21864(14) 0.1208(3) 0.8773(4)
C26 C 0.17506(15) 0.0843(3) 0.7419(5)
H16 H 0.1567 0.1154 0.7736
C28 C 0.23840(15) 0.0339(3) 0.7336(5)
H18 H 0.2626 0.0321 0.7596
C30 C 0.18465(16) 0.0234(3) 0.9817(5)
C31 C 0.37535(15) 0.3153(4) 0.9537(6)
O4_2 O 0.45678(17) 0.5051(3) 0.7833(7)
C33 C 0.40829(16) 0.3608(4) 0.9486(6)
H22 H 0.4261 0.3549 0.9995
O5 O 0.47177(16) 0.4568(5) 0.9398(7)
C37 C 0.44995(19) 0.4618(5) 0.8616(9)
O6 O 0.49107(19) 0.3560(4) 0.6835(6)
C40 C 0.75050(17) 0.8254(3) 0.8797(4)
C41 C 0.71008(15) 0.7296(3) 0.7953(4)
H26 H 0.7040 0.6995 0.7375
C43 C 0.68715(13) 0.7240(3) 0.8827(4)
C44 C 0.69808(14) 0.7661(3) 0.9687(4)
C45 C 0.65190(13) 0.6750(3) 0.8784(5)
C46 C 0.83286(16) 0.9579(3) 0.6532(5)
H29 H 0.8564 0.9525 0.6237
C48 C 0.64507(17) 0.6185(4) 0.8014(6)
H30 H 0.6632 0.6096 0.7518
C50 C 0.58503(14) 0.5857(4) 0.8697(6)
C51 C 0.78911(16) 0.9204(3) 0.7831(5)
C53 C 0.74138(15) 0.7791(3) 0.7945(4)
H31 H 0.7564 0.7815 0.7369
C56 C 0.80342(15) 0.8959(3) 0.9629(4)
C58 C 0.72927(14) 0.8169(3) 0.9682(4)
C60 C 0.61178(17) 0.5754(4) 0.7974(7)
H37 H 0.6076 0.5388 0.7444
N2 N 0.78136(14) 0.8792(3) 0.8773(4)
C65 C 0.82494(15) 0.9157(3) 0.7419(5)
H41 H 0.8433 0.8846 0.7736
C67 C 0.76160(15) 0.9661(3) 0.7336(5)
H43 H 0.7374 0.9679 0.7596
C69 C 0.81535(16) 0.9766(3) 0.9817(5)
C70 C 0.62465(15) 0.6847(4) 0.9537(6)
O11_2 O 0.54322(17) 0.4949(3) 0.7833(7)
C72 C 0.59171(16) 0.6392(4) 0.9486(6)
H47 H 0.5739 0.6451 0.9995
O12 O 0.52823(16) 0.5432(5) 0.9398(7)
C76 C 0.55005(19) 0.5382(5) 0.8616(9)
O13 O 0.50893(19) 0.6440(4) 0.6835(6)
Ce1_3 Ce -0.0000 1.0000 0.64079(8)
C40_2 C 0.25050(17) 0.6746(3) 0.8797(4)
C41_2 C 0.21008(15) 0.7704(3) 0.7953(4)
H26_2 H 0.2040 0.8005 0.7375
C43_2 C 0.18715(13) 0.7760(3) 0.8827(4)
O8 O 0.38831(12) 0.2640(3) 0.2794(3)
H27 H 0.3972 0.2511 0.2242
C44_2 C 0.19808(14) 0.7339(3) 0.9687(4)
C45_2 C 0.15190(13) 0.8250(3) 0.8784(5)
C46_2 C 0.33286(16) 0.5421(3) 0.6532(5)
H29_2 H 0.3564 0.5475 0.6237
C47 C 0.34155(16) 0.3455(3) 0.3545(4)
C48_2 C 0.14507(17) 0.8815(4) 0.8014(6)
H30_2 H 0.1632 0.8904 0.7518
C50_2 C 0.08503(14) 0.9143(4) 0.8697(6)
C51_2 C 0.28911(16) 0.5796(3) 0.7831(5)
C52 C 0.31755(16) 0.4412(3) 0.5189(4)
O10 O 0.33729(14) 0.2923(3) 0.1862(4)
C53_2 C 0.24138(15) 0.7209(3) 0.7945(4)
H31_2 H 0.2564 0.7185 0.7369
C55 C 0.30603(16) 0.3791(3) 0.3542(5)
H33 H 0.2901 0.3706 0.2993
C56_2 C 0.30342(15) 0.6041(3) 0.9629(4)
C58_2 C 0.22927(14) 0.6831(3) 0.9682(4)
C59 C 0.27036(15) 0.4910(3) 0.6456(8)
H36 H 0.2518 0.4615 0.6124
C60_2 C 0.11178(17) 0.9246(4) 0.7974(7)
H37_2 H 0.1076 0.9612 0.7444
C61 C 0.35311(15) 0.4039(4) 0.5188(4)
H38 H 0.3691 0.4110 0.5738
C62 C 0.35477(17) 0.2990(3) 0.2653(4)
C63 C 0.29427(16) 0.4255(3) 0.4365(5)
H39 H 0.2701 0.4468 0.4366
N2_2 N 0.28136(14) 0.6208(3) 0.8773(4)
C65_2 C 0.32494(15) 0.5843(3) 0.7419(5)
H41_2 H 0.3433 0.6154 0.7736
C66 C 0.36428(15) 0.3566(4) 0.4369(5)
H42 H 0.3877 0.3318 0.4379
C67_2 C 0.26160(15) 0.5339(3) 0.7336(5)
H43_2 H 0.2374 0.5321 0.7596
C69_2 C 0.31535(16) 0.5234(3) 0.9817(5)
H44 H 0.3081 0.4814 0.9382
C70_2 C 0.12465(15) 0.8153(4) 0.9537(6)
C72_2 C 0.09171(16) 0.8608(4) 0.9486(6)
H47_2 H 0.0739 0.8549 0.9995
C73 C 0.30623(18) 0.4916(3) 0.6067(5)
O12_2 O 0.02823(16) 0.9568(5) 0.9398(7)
C76_2 C 0.05005(19) 0.9618(5) 0.8616(9)
O13_2 O 0.00893(19) 0.8560(4) 0.6835(6)
O15 O 0.03534(13) 0.9478(3) 0.4872(4)
H54 H 0.0273653 0.831321 0.636071
H51 H 0.000783402 0.846252 0.754639
C35_2 C 0.07562(17) 0.9796(4) 0.3027(6)
H23_2 H 0.0567 0.9406 0.2991
C36_2 C 0.0987(2) 0.9937(3) 0.2176(7)
H24_2 H 0.0949 0.9646 0.1577
H25_2 H 0.1535 0.9528 0.0763
Ce1_4 Ce 1.0000 0.0000 0.64079(8)
C1_2 C 0.74950(17) 0.3254(3) 0.8797(4)
C2_2 C 0.78992(15) 0.2296(3) 0.7953(4)
H1_2 H 0.7960 0.1995 0.7375
C4_2 C 0.81285(13) 0.2240(3) 0.8827(4)
O1 O 0.61169(12) 0.7360(3) 0.2794(3)
H2 H 0.6028 0.7489 0.2242
C5_2 C 0.80192(14) 0.2661(3) 0.9687(4)
C6_2 C 0.84810(13) 0.1750(3) 0.8784(5)
C7_2 C 0.66714(16) 0.4579(3) 0.6532(5)
H4_2 H 0.6436 0.4525 0.6237
C8 C 0.65845(16) 0.6545(3) 0.3545(4)
C9_2 C 0.85493(17) 0.1185(4) 0.8014(6)
H5_2 H 0.8368 0.1096 0.7518
C11_2 C 0.91497(14) 0.0857(4) 0.8697(6)
C12_2 C 0.71089(16) 0.4204(3) 0.7831(5)
C13 C 0.68245(16) 0.5588(3) 0.5189(4)
O3 O 0.66271(14) 0.7077(3) 0.1862(4)
C14_2 C 0.75862(15) 0.2791(3) 0.7945(4)
H6_2 H 0.7436 0.2815 0.7369
C16 C 0.69397(16) 0.6209(3) 0.3542(5)
H8 H 0.7099 0.6294 0.2993
C17_2 C 0.69658(15) 0.3959(3) 0.9629(4)
C19_2 C 0.77073(14) 0.3169(3) 0.9682(4)
C20 C 0.72964(15) 0.5090(3) 0.6456(8)
H11 H 0.7482 0.5385 0.6124
C21_2 C 0.88822(17) 0.0754(4) 0.7974(7)
H12_2 H 0.8924 0.0388 0.7444
C22 C 0.64689(15) 0.5961(4) 0.5188(4)
H13 H 0.6309 0.5890 0.5738
C23 C 0.64523(17) 0.7010(3) 0.2653(4)
C24 C 0.70573(16) 0.5745(3) 0.4365(5)
H14 H 0.7299 0.5532 0.4366
N1_2 N 0.71864(14) 0.3792(3) 0.8773(4)
C26_2 C 0.67506(15) 0.4157(3) 0.7419(5)
H16_2 H 0.6567 0.3846 0.7736
C27 C 0.63572(15) 0.6434(4) 0.4369(5)
H17 H 0.6123 0.6682 0.4379
C28_2 C 0.73840(15) 0.4661(3) 0.7336(5)
H18_2 H 0.7626 0.4679 0.7596
C30_2 C 0.68465(16) 0.4766(3) 0.9817(5)
H19 H 0.6919 0.5186 0.9382
C31_2 C 0.87535(15) 0.1847(4) 0.9537(6)
C33_2 C 0.90829(16) 0.1392(4) 0.9486(6)
H22_2 H 0.9261 0.1451 0.9995
C34 C 0.69377(18) 0.5084(3) 0.6067(5)
O5_2 O 0.97177(16) 0.0432(5) 0.9398(7)
C37_2 C 0.94995(19) 0.0382(5) 0.8616(9)
O6_2 O 0.99107(19) 0.1440(4) 0.6835(6)
O16 O 0.96466(13) 0.0522(3) 0.4872(4)
H51_2 H 0.999217 0.153748 0.754639
H54_2 H 0.972635 0.168679 0.636071
C74_2 C 0.92438(17) 0.0204(4) 0.3027(6)
H48_2 H 0.9433 0.0594 0.2991
C75_2 C 0.9013(2) 0.0063(3) 0.2176(7)
H49_2 H 0.9051 0.0354 0.1577
H50_2 H 0.8465 0.0472 0.0763
O8_2 O 0.88831(12) 0.2360(3) 0.2794(3)
H27_2 H 0.8972 0.2489 0.2242
C47_2 C 0.84155(16) 0.1545(3) 0.3545(4)
C52_2 C 0.81755(16) 0.0588(3) 0.5189(4)
O10_2 O 0.83729(14) 0.2077(3) 0.1862(4)
C55_2 C 0.80603(16) 0.1209(3) 0.3542(5)
H33_2 H 0.7901 0.1294 0.2993
C59_2 C 0.77036(15) 0.0090(3) 0.6456(8)
H36_2 H 0.7518 0.0385 0.6124
C61_2 C 0.85311(15) 0.0961(4) 0.5188(4)
H38_2 H 0.8691 0.0890 0.5738
C62_2 C 0.85477(17) 0.2010(3) 0.2653(4)
C63_2 C 0.79427(16) 0.0745(3) 0.4365(5)
H39_2 H 0.7701 0.0532 0.4366
C66_2 C 0.86428(15) 0.1434(4) 0.4369(5)
H42_2 H 0.8877 0.1682 0.4379
H44_2 H 0.8081 0.0186 0.9382
C73_2 C 0.80623(18) 0.0084(3) 0.6067(5)
O1_2 O 0.11169(12) 0.7640(3) 0.2794(3)
H2_2 H 0.1028 0.7511 0.2242
C8_2 C 0.15845(16) 0.8455(3) 0.3545(4)
C13_2 C 0.18245(16) 0.9412(3) 0.5189(4)
O3_2 O 0.16271(14) 0.7923(3) 0.1862(4)
C16_2 C 0.19397(16) 0.8791(3) 0.3542(5)
H8_2 H 0.2099 0.8706 0.2993
C20_2 C 0.22964(15) 0.9910(3) 0.6456(8)
H11_2 H 0.2482 0.9615 0.6124
C22_2 C 0.14689(15) 0.9039(4) 0.5188(4)
H13_2 H 0.1309 0.9110 0.5738
C23_2 C 0.14523(17) 0.7990(3) 0.2653(4)
C24_2 C 0.20573(16) 0.9255(3) 0.4365(5)
H14_2 H 0.2299 0.9468 0.4366
C27_2 C 0.13572(15) 0.8566(4) 0.4369(5)
H17_2 H 0.1123 0.8318 0.4379
H19_2 H 0.1919 0.9814 0.9382
C34_2 C 0.19377(18) 0.9916(3) 0.6067(5)
O14_2 O 0.44347(15) 0.0598(3) 0.0556(5)
Ce3_2 Ce 0.5000 0.0000 0.14079(8)
O16_2 O 0.96466(13) 0.5522(3) 0.9872(4)
O4_3 O 0.45678(17) 0.0051(3) 0.2833(7)
C40_3 C 0.75050(17) 0.3254(3) 0.3797(4)
C41_3 C 0.71008(15) 0.2296(3) 0.2953(4)
H26_3 H 0.7040 0.1995 0.2375
C42_3 C 0.84861(14) 0.4321(3) 0.6351(6)
C43_3 C 0.68715(13) 0.2240(3) 0.3827(4)
C44_3 C 0.69808(14) 0.2661(3) 0.4687(4)
H28_3 H 0.6843 0.2603 0.5282
C45_3 C 0.65190(13) 0.1750(3) 0.3784(5)
C46_3 C 0.83286(16) 0.4579(3) 0.1532(5)
H29_3 H 0.8564 0.4525 0.1237
C48_3 C 0.64507(17) 0.1185(4) 0.3014(6)
H30_3 H 0.6632 0.1096 0.2518
C49_3 C 0.91907(16) 0.4764(4) 0.8912(6)
C50_3 C 0.58503(14) 0.0857(4) 0.3697(6)
C51_3 C 0.78911(16) 0.4204(3) 0.2831(5)
C52_3 C 0.81755(16) 0.5588(3) 0.0189(4)
C53_3 C 0.74138(15) 0.2791(3) 0.2945(4)
H31_3 H 0.7564 0.2815 0.2369
C54_3 C 0.81405(15) 0.3344(3) 0.5298(4)
H32_3 H 0.8061 0.2809 0.5185
C56_3 C 0.80342(15) 0.3959(3) 0.4629(4)
C57_3 C 0.89021(17) 0.4192(4) 0.8964(5)
H34_3 H 0.8864 0.3898 0.9561
C58_3 C 0.72927(14) 0.3169(3) 0.4682(4)
H35_3 H 0.7360 0.3452 0.5268
C59_3 C 0.77036(15) 0.5090(3) 0.1456(8)
H36_3 H 0.7518 0.5385 0.1124
C60_3 C 0.61178(17) 0.0754(4) 0.2974(7)
H37_3 H 0.6076 0.0388 0.2444
C61_3 C 0.85311(15) 0.5961(4) 0.0188(4)
H38_3 H 0.8691 0.5890 0.0738
C64_3 C 0.83648(14) 0.3519(3) 0.6136(5)
H40_3 H 0.8436 0.3094 0.6565
N2_3 N 0.78136(14) 0.3792(3) 0.3773(4)
C65_3 C 0.82494(15) 0.4157(3) 0.2419(5)
H41_3 H 0.8433 0.3846 0.2736
C67_3 C 0.76160(15) 0.4661(3) 0.2336(5)
H43_3 H 0.7374 0.4679 0.2596
C68_3 C 0.87271(16) 0.4485(4) 0.7239(5)
C69_3 C 0.81535(16) 0.4766(3) 0.4817(5)
H44_3 H 0.8081 0.5186 0.4382
C70_3 C 0.62465(15) 0.1847(4) 0.4537(6)
H45_3 H 0.6285 0.2213 0.5069
C71_3 C 0.86723(18) 0.4060(4) 0.8133(5)
H46_3 H 0.8479 0.3680 0.8178
C72_3 C 0.59171(16) 0.1392(4) 0.4486(6)
H47_3 H 0.5739 0.1451 0.4995
C73_3 C 0.80623(18) 0.5084(3) 0.1067(5)
C74_3 C 0.92438(17) 0.5204(4) 0.8027(6)
H48_3 H 0.9433 0.5594 0.7991
O12_3 O 0.52823(16) 0.0432(5) 0.4398(7)
C75_3 C 0.9013(2) 0.5063(3) 0.7176(7)
H49_3 H 0.9051 0.5354 0.6577
C76_3 C 0.55005(19) 0.0382(5) 0.3616(9)
C77_3 C 0.8382(2) 0.4939(3) 0.5659(5)
H50_3 H 0.8465 0.5472 0.5763
O13_3 O 0.50893(19) 0.1440(4) 0.1835(6)
C78_3 C 0.9440(2) 0.4909(4) 0.9814(7)
Ce1_5 Ce -0.0000 0.5000 0.14079(8)
C40_4 C 0.25050(17) 0.1746(3) 0.3797(4)
C41_4 C 0.21008(15) 0.2704(3) 0.2953(4)
H26_4 H 0.2040 0.3005 0.2375
C42_4 C 0.34861(14) 0.0679(3) 0.6351(6)
C43_4 C 0.18715(13) 0.2760(3) 0.3827(4)
C44_4 C 0.19808(14) 0.2339(3) 0.4687(4)
H28_4 H 0.1843 0.2397 0.5282
C45_4 C 0.15190(13) 0.3250(3) 0.3784(5)
C46_4 C 0.33286(16) 0.0421(3) 0.1532(5)
H29_4 H 0.3564 0.0475 0.1237
C48_4 C 0.14507(17) 0.3815(4) 0.3014(6)
H30_4 H 0.1632 0.3904 0.2518
C49_4 C 0.41907(16) 0.0236(4) 0.8912(6)
C50_4 C 0.08503(14) 0.4143(4) 0.3697(6)
C51_4 C 0.28911(16) 0.0796(3) 0.2831(5)
C53_4 C 0.24138(15) 0.2209(3) 0.2945(4)
H31_4 H 0.2564 0.2185 0.2369
C54_4 C 0.31405(15) 0.1656(3) 0.5298(4)
H32_4 H 0.3061 0.2191 0.5185
C56_4 C 0.30342(15) 0.1041(3) 0.4629(4)
C57_4 C 0.39021(17) 0.0808(4) 0.8964(5)
H34_4 H 0.3864 0.1102 0.9561
C58_4 C 0.22927(14) 0.1831(3) 0.4682(4)
H35_4 H 0.2360 0.1548 0.5268
C60_4 C 0.11178(17) 0.4246(4) 0.2974(7)
H37_4 H 0.1076 0.4612 0.2444
C64_4 C 0.33648(14) 0.1481(3) 0.6136(5)
H40_4 H 0.3436 0.1906 0.6565
N2_4 N 0.28136(14) 0.1208(3) 0.3773(4)
C65_4 C 0.32494(15) 0.0843(3) 0.2419(5)
H41_4 H 0.3433 0.1154 0.2736
C67_4 C 0.26160(15) 0.0339(3) 0.2336(5)
H43_4 H 0.2374 0.0321 0.2596
C68_4 C 0.37271(16) 0.0515(4) 0.7239(5)
C69_4 C 0.31535(16) 0.0234(3) 0.4817(5)
C70_4 C 0.12465(15) 0.3153(4) 0.4537(6)
H45_4 H 0.1285 0.2787 0.5069
C71_4 C 0.36723(18) 0.0940(4) 0.8133(5)
H46_4 H 0.3479 0.1320 0.8178
O11_3 O 0.04322(17) 0.5051(3) 0.2833(7)
C72_4 C 0.09171(16) 0.3608(4) 0.4486(6)
H47_4 H 0.0739 0.3549 0.4995
O12_4 O 0.02823(16) 0.4568(5) 0.4398(7)
C76_4 C 0.05005(19) 0.4618(5) 0.3616(9)
C77_4 C 0.3382(2) 0.0061(3) 0.5659(5)
O13_4 O 0.00893(19) 0.3560(4) 0.1835(6)
C78_4 C 0.4440(2) 0.0091(4) 0.9814(7)
O17_2 O 0.05653(15) 0.5598(3) 0.0556(5)
H52_3 H 0.00614994 0.678512 0.13677
H54_3 H 0.0273653 0.331321 0.136071
H51_3 H 0.000783402 0.346252 0.254639
H53_3 H 0.0152927 0.673376 0.177551
O15_2 O 0.03534(13) 0.4478(3) 0.9872(4)
Ce3_3 Ce 0.5000 1.0000 0.14079(8)
O7_2 O 0.55653(15) 0.9402(3) 0.0556(5)
C1_3 C 0.24950(17) 0.6746(3) 0.3797(4)
C2_3 C 0.28992(15) 0.7704(3) 0.2953(4)
H1_3 H 0.2960 0.8005 0.2375
C3_3 C 0.15139(14) 0.5679(3) 0.6351(6)
C4_3 C 0.31285(13) 0.7760(3) 0.3827(4)
C5_3 C 0.30192(14) 0.7339(3) 0.4687(4)
H3_3 H 0.3157 0.7397 0.5282
C6_3 C 0.34810(13) 0.8250(3) 0.3784(5)
C7_3 C 0.16714(16) 0.5421(3) 0.1532(5)
H4_3 H 0.1436 0.5475 0.1237
C9_3 C 0.35493(17) 0.8815(4) 0.3014(6)
H5_3 H 0.3368 0.8904 0.2518
C10_3 C 0.08093(16) 0.5236(4) 0.8912(6)
C11_3 C 0.41497(14) 0.9143(4) 0.3697(6)
C12_3 C 0.21089(16) 0.5796(3) 0.2831(5)
C13_3 C 0.18245(16) 0.4412(3) 0.0189(4)
C14_3 C 0.25862(15) 0.7209(3) 0.2945(4)
H6_3 H 0.2436 0.7185 0.2369
C15_3 C 0.18595(15) 0.6656(3) 0.5298(4)
H7_3 H 0.1939 0.7191 0.5185
C17_3 C 0.19658(15) 0.6041(3) 0.4629(4)
C18_3 C 0.10979(17) 0.5808(4) 0.8964(5)
H9_3 H 0.1136 0.6102 0.9561
C19_3 C 0.27073(14) 0.6831(3) 0.4682(4)
H10_3 H 0.2640 0.6548 0.5268
C20_3 C 0.22964(15) 0.4910(3) 0.1456(8)
H11_3 H 0.2482 0.4615 0.1124
C21_3 C 0.38822(17) 0.9246(4) 0.2974(7)
H12_3 H 0.3924 0.9612 0.2444
C22_3 C 0.14689(15) 0.4039(4) 0.0188(4)
H13_3 H 0.1309 0.4110 0.0738
C25_3 C 0.16352(14) 0.6481(3) 0.6136(5)
H15_3 H 0.1564 0.6906 0.6565
N1_3 N 0.21864(14) 0.6208(3) 0.3773(4)
C26_3 C 0.17506(15) 0.5843(3) 0.2419(5)
H16_3 H 0.1567 0.6154 0.2736
C28_3 C 0.23840(15) 0.5339(3) 0.2336(5)
H18_3 H 0.2626 0.5321 0.2596
C29_3 C 0.12729(16) 0.5515(4) 0.7239(5)
C30_3 C 0.18465(16) 0.5234(3) 0.4817(5)
H19_3 H 0.1919 0.4814 0.4382
C31_3 C 0.37535(15) 0.8153(4) 0.4537(6)
H20_3 H 0.3715 0.7787 0.5069
C32_3 C 0.13277(18) 0.5940(4) 0.8133(5)
H21_3 H 0.1521 0.6320 0.8178
C33_3 C 0.40829(16) 0.8608(4) 0.4486(6)
H22_3 H 0.4261 0.8549 0.4995
C34_3 C 0.19377(18) 0.4916(3) 0.1067(5)
C35_3 C 0.07562(17) 0.4796(4) 0.8027(6)
H23_3 H 0.0567 0.4406 0.7991
O5_3 O 0.47177(16) 0.9568(5) 0.4398(7)
C36_3 C 0.0987(2) 0.4937(3) 0.7176(7)
H24_3 H 0.0949 0.4646 0.6577
C37_3 C 0.44995(19) 0.9618(5) 0.3616(9)
C38_3 C 0.1618(2) 0.5061(3) 0.5659(5)
H25_3 H 0.1535 0.4528 0.5763
O6_3 O 0.49107(19) 0.8560(4) 0.1835(6)
C39_3 C 0.0560(2) 0.5091(4) 0.9814(7)
O11_4 O 0.54322(17) 0.9949(3) 0.2833(7)
O9_2 O 0.46466(13) 0.9478(3) 0.9872(4)
C52_4 C 0.31755(16) 0.9412(3) 0.0189(4)
C59_4 C 0.27036(15) 0.9910(3) 0.1456(8)
H36_4 H 0.2518 0.9615 0.1124
C61_4 C 0.35311(15) 0.9039(4) 0.0188(4)
H38_4 H 0.3691 0.9110 0.0738
H44_4 H 0.3081 0.9814 0.4382
C73_4 C 0.30623(18) 0.9916(3) 0.1067(5)
C74_4 C 0.42438(17) 0.9796(4) 0.8027(6)
H48_4 H 0.4433 0.9406 0.7991
C75_4 C 0.4013(2) 0.9937(3) 0.7176(7)
H49_4 H 0.4051 0.9646 0.6577
H50_4 H 0.3465 0.9528 0.5763
O1_3 O 0.11169(12) 0.2640(3) 0.7794(3)
H2_3 H 0.1028 0.2511 0.7242
C8_3 C 0.15845(16) 0.3455(3) 0.8545(4)
O3_3 O 0.16271(14) 0.2923(3) 0.6862(4)
C16_3 C 0.19397(16) 0.3791(3) 0.8542(5)
H8_3 H 0.2099 0.3706 0.7993
C23_3 C 0.14523(17) 0.2990(3) 0.7653(4)
C24_3 C 0.20573(16) 0.4255(3) 0.9365(5)
H14_3 H 0.2299 0.4468 0.9366
C27_3 C 0.13572(15) 0.3566(4) 0.9369(5)
H17_3 H 0.1123 0.3318 0.9379
O8_3 O 0.38831(12) 0.7640(3) 0.7794(3)
H27_3 H 0.3972 0.7511 0.7242
C47_3 C 0.34155(16) 0.8455(3) 0.8545(4)
O10_3 O 0.33729(14) 0.7923(3) 0.6862(4)
C55_3 C 0.30603(16) 0.8791(3) 0.8542(5)
H33_3 H 0.2901 0.8706 0.7993
C62_3 C 0.35477(17) 0.7990(3) 0.7653(4)
C63_3 C 0.29427(16) 0.9255(3) 0.9365(5)
H39_3 H 0.2701 0.9468 0.9366
C66_3 C 0.36428(15) 0.8566(4) 0.9369(5)
H42_3 H 0.3877 0.8318 0.9379
O2_2 O 0.53534(13) 0.0522(3) 0.9872(4)
C13_4 C 0.68245(16) 0.0588(3) 0.0189(4)
C20_4 C 0.72964(15) 0.0090(3) 0.1456(8)
H11_4 H 0.7482 0.0385 0.1124
C22_4 C 0.64689(15) 0.0961(4) 0.0188(4)
H13_4 H 0.6309 0.0890 0.0738
H19_4 H 0.6919 0.0186 0.4382
C34_4 C 0.69377(18) 0.0084(3) 0.1067(5)
C35_4 C 0.57562(17) 0.0204(4) 0.8027(6)
H23_4 H 0.5567 0.0594 0.7991
C36_4 C 0.5987(2) 0.0063(3) 0.7176(7)
H24_4 H 0.5949 0.0354 0.6577
H25_4 H 0.6535 0.0472 0.5763
O8_4 O 0.88831(12) 0.7360(3) 0.7794(3)
H27_4 H 0.8972 0.7489 0.7242
C47_4 C 0.84155(16) 0.6545(3) 0.8545(4)
O10_4 O 0.83729(14) 0.7077(3) 0.6862(4)
C55_4 C 0.80603(16) 0.6209(3) 0.8542(5)
H33_4 H 0.7901 0.6294 0.7993
C62_4 C 0.85477(17) 0.7010(3) 0.7653(4)
C63_4 C 0.79427(16) 0.5745(3) 0.9365(5)
H39_4 H 0.7701 0.5532 0.9366
C66_4 C 0.86428(15) 0.6434(4) 0.9369(5)
H42_4 H 0.8877 0.6682 0.9379
O1_4 O 0.61169(12) 0.2360(3) 0.7794(3)
H2_4 H 0.6028 0.2489 0.7242
C8_4 C 0.65845(16) 0.1545(3) 0.8545(4)
O3_4 O 0.66271(14) 0.2077(3) 0.6862(4)
C16_4 C 0.69397(16) 0.1209(3) 0.8542(5)
H8_4 H 0.7099 0.1294 0.7993
C23_4 C 0.64523(17) 0.2010(3) 0.7653(4)
C24_4 C 0.70573(16) 0.0745(3) 0.9365(5)
H14_4 H 0.7299 0.0532 0.9366
C27_4 C 0.63572(15) 0.1434(4) 0.9369(5)
H17_4 H 0.6123 0.1682 0.9379
Ce1_6 Ce 1.0000 0.5000 0.14079(8)
C1_4 C 0.74950(17) 0.8254(3) 0.3797(4)
C2_4 C 0.78992(15) 0.7296(3) 0.2953(4)
H1_4 H 0.7960 0.6995 0.2375
C3_4 C 0.65139(14) 0.9321(3) 0.6351(6)
C4_4 C 0.81285(13) 0.7240(3) 0.3827(4)
C5_4 C 0.80192(14) 0.7661(3) 0.4687(4)
H3_4 H 0.8157 0.7603 0.5282
C6_4 C 0.84810(13) 0.6750(3) 0.3784(5)
C7_4 C 0.66714(16) 0.9579(3) 0.1532(5)
H4_4 H 0.6436 0.9525 0.1237
C9_4 C 0.85493(17) 0.6185(4) 0.3014(6)
H5_4 H 0.8368 0.6096 0.2518
C10_4 C 0.58093(16) 0.9764(4) 0.8912(6)
C11_4 C 0.91497(14) 0.5857(4) 0.3697(6)
C12_4 C 0.71089(16) 0.9204(3) 0.2831(5)
C14_4 C 0.75862(15) 0.7791(3) 0.2945(4)
H6_4 H 0.7436 0.7815 0.2369
C15_4 C 0.68595(15) 0.8344(3) 0.5298(4)
H7_4 H 0.6939 0.7809 0.5185
C17_4 C 0.69658(15) 0.8959(3) 0.4629(4)
C18_4 C 0.60979(17) 0.9192(4) 0.8964(5)
H9_4 H 0.6136 0.8898 0.9561
C19_4 C 0.77073(14) 0.8169(3) 0.4682(4)
H10_4 H 0.7640 0.8452 0.5268
C21_4 C 0.88822(17) 0.5754(4) 0.2974(7)
H12_4 H 0.8924 0.5388 0.2444
C25_4 C 0.66352(14) 0.8519(3) 0.6136(5)
H15_4 H 0.6564 0.8094 0.6565
N1_4 N 0.71864(14) 0.8792(3) 0.3773(4)
C26_4 C 0.67506(15) 0.9157(3) 0.2419(5)
H16_4 H 0.6567 0.8846 0.2736
C28_4 C 0.73840(15) 0.9661(3) 0.2336(5)
H18_4 H 0.7626 0.9679 0.2596
C29_4 C 0.62729(16) 0.9485(4) 0.7239(5)
C30_4 C 0.68465(16) 0.9766(3) 0.4817(5)
C31_4 C 0.87535(15) 0.6847(4) 0.4537(6)
H20_4 H 0.8715 0.7213 0.5069
C32_4 C 0.63277(18) 0.9060(4) 0.8133(5)
H21_4 H 0.6521 0.8680 0.8178
O4_4 O 0.95678(17) 0.4949(3) 0.2833(7)
C33_4 C 0.90829(16) 0.6392(4) 0.4486(6)
H22_4 H 0.9261 0.6451 0.4995
O5_4 O 0.97177(16) 0.5432(5) 0.4398(7)
C37_4 C 0.94995(19) 0.5382(5) 0.3616(9)
C38_4 C 0.6618(2) 0.9939(3) 0.5659(5)
O6_4 O 0.99107(19) 0.6440(4) 0.1835(6)
C39_4 C 0.5560(2) 0.9909(4) 0.9814(7)
O18_2 O 0.94347(15) 0.4402(3) 0.0556(5)
H51_4 H 0.999217 0.653748 0.254639
H53_4 H 0.984707 0.326624 0.177551
H52_4 H 0.99385 0.321488 0.13677
H54_4 H 0.972635 0.668679 0.136071
loop_
_geom_bond_atom_site_label_1
_geom_bond_atom_site_label_2
_geom_bond_site_symmetry_1
_geom_bond_site_symmetry_2
O11 Ce1 1_555 1_555
O17 Ce1 1_555 1_555
Ce1_2 O4 1_555 1_555
O18 Ce1_2 1_555 1_555
C3 C25 1_555 1_555
C10 C18 1_555 1_555
C15 H7 1_555 1_555
C18 H9 1_555 1_555
C25 C15 1_555 1_555
H15 C25 1_555 1_555
C29 C3 1_555 1_555
C32 C18 1_555 1_555
H21 C32 1_555 1_555
C38 C3 1_555 1_555
O17 C39 1_555 1_555
C39 C10 1_555 1_555
C42 C64 1_555 1_555
C49 C57 1_555 1_555
C54 H32 1_555 1_555
C57 H34 1_555 1_555
C64 C54 1_555 1_555
H40 C64 1_555 1_555
C68 C42 1_555 1_555
C71 C57 1_555 1_555
H46 C71 1_555 1_555
C77 C42 1_555 1_555
O18 C78 1_555 1_555
C78 C49 1_555 1_555
C29 C32 1_555 1_555
C68 C71 1_555 1_555
C42_2 C64_2 1_555 1_555
O9 C78_2 1_555 1_555
C49_2 C57_2 1_555 1_555
C54_2 H32_2 1_555 1_555
C57_2 H34_2 1_555 1_555
C64_2 C54_2 1_555 1_555
H40_2 C64_2 1_555 1_555
C68_2 C42_2 1_555 1_555
C71_2 C57_2 1_555 1_555
H46_2 C71_2 1_555 1_555
C74 C49_2 1_555 1_555
H48 C74 1_555 1_555
C75 C68_2 1_555 1_555
H49 C75 1_555 1_555
C77_2 C42_2 1_555 1_555
H50 C77_2 1_555 1_555
O14 C78_2 1_555 1_555
C78_2 C49_2 1_555 1_555
Ce3 O9 1_555 1_555
C68_2 C71_2 1_555 1_555
C74 C75 1_555 1_555
O14 Ce3 1_555 1_555
C3_2 C25_2 1_555 1_555
O2 C39_2 1_555 1_555
C10_2 C18_2 1_555 1_555
C15_2 H7_2 1_555 1_555
C18_2 H9_2 1_555 1_555
C25_2 C15_2 1_555 1_555
H15_2 C25_2 1_555 1_555
C29_2 C3_2 1_555 1_555
C32_2 C18_2 1_555 1_555
H21_2 C32_2 1_555 1_555
C35 C10_2 1_555 1_555
H23 C35 1_555 1_555
C36 C29_2 1_555 1_555
H24 C36 1_555 1_555
C38_2 C3_2 1_555 1_555
H25 C38_2 1_555 1_555
O7 C39_2 1_555 1_555
C39_2 C10_2 1_555 1_555
Ce3 O2 1_555 1_555
C29_2 C32_2 1_555 1_555
C35 C36 1_555 1_555
O7 Ce3 1_555 1_555
Ce3 O4_2 1_555 1_555
C1 C14 1_555 1_555
C2 H1 1_555 1_555
C4 C2 1_555 1_555
C5 C4 1_555 1_555
C6 C4 1_555 1_555
C7 H4 1_555 1_555
C9 C6 1_555 1_555
H5 C9 1_555 1_555
C11 C21 1_555 1_555
C12 N1 1_555 1_555
C14 C2 1_555 1_555
H6 C14 1_555 1_555
C19 C1 1_555 1_555
C21 C9 1_555 1_555
H12 C21 1_555 1_555
N1 C1 1_555 1_555
C26 C7 1_555 1_555
H16 C26 1_555 1_555
C28 C12 1_555 1_555
H18 C28 1_555 1_555
C30 C17 1_555 1_555
C31 C6 1_555 1_555
O4_2 C37 1_555 1_555
C33 C11 1_555 1_555
H22 C33 1_555 1_555
O5 C37 1_555 1_555
C37 C11 1_555 1_555
O6 Ce3 1_555 1_555
C40 C53 1_555 1_555
C41 H26 1_555 1_555
C43 C41 1_555 1_555
C44 C43 1_555 1_555
C45 C43 1_555 1_555
C46 H29 1_555 1_555
C48 C45 1_555 1_555
H30 C48 1_555 1_555
C50 C60 1_555 1_555
C51 N2 1_555 1_555
C53 C41 1_555 1_555
H31 C53 1_555 1_555
C58 C40 1_555 1_555
C60 C48 1_555 1_555
H37 C60 1_555 1_555
N2 C40 1_555 1_555
C65 C46 1_555 1_555
H41 C65 1_555 1_555
C67 C51 1_555 1_555
H43 C67 1_555 1_555
C69 C56 1_555 1_555
C70 C45 1_555 1_555
O11_2 Ce3 1_555 1_555
C72 C50 1_555 1_555
H47 C72 1_555 1_555
O12 C76 1_555 1_555
C76 C50 1_555 1_555
O13 Ce3 1_555 1_555
C5 C19 1_555 1_555
C12 C26 1_555 1_555
C17 N1 1_555 1_555
C31 C33 1_555 1_555
C44 C58 1_555 1_555
C51 C65 1_555 1_555
C56 N2 1_555 1_555
C70 C72 1_555 1_555
O11_2 C76 1_555 1_555
C40_2 C53_2 1_555 1_555
C41_2 H26_2 1_555 1_555
C43_2 C41_2 1_555 1_555
O8 H27 1_555 1_555
C44_2 C43_2 1_555 1_555
C45_2 C43_2 1_555 1_555
C46_2 H29_2 1_555 1_555
C47 C55 1_555 1_555
C48_2 C45_2 1_555 1_555
H30_2 C48_2 1_555 1_555
C50_2 C60_2 1_555 1_555
C51_2 N2_2 1_555 1_555
C52 C61 1_555 1_555
O10 C62 1_555 1_555
C53_2 C41_2 1_555 1_555
H31_2 C53_2 1_555 1_555
C55 H33 1_555 1_555
C58_2 C40_2 1_555 1_555
C59 H36 1_555 1_555
C60_2 C48_2 1_555 1_555
H37_2 C60_2 1_555 1_555
C61 H38 1_555 1_555
C62 O8 1_555 1_555
C63 C52 1_555 1_555
H39 C63 1_555 1_555
N2_2 C40_2 1_555 1_555
C65_2 C46_2 1_555 1_555
H41_2 C65_2 1_555 1_555
C66 C47 1_555 1_555
H42 C66 1_555 1_555
C67_2 C51_2 1_555 1_555
H43_2 C67_2 1_555 1_555
C69_2 C56_2 1_555 1_555
H44 C69_2 1_555 1_555
C70_2 C45_2 1_555 1_555
C72_2 C50_2 1_555 1_555
H47_2 C72_2 1_555 1_555
C73 C46_2 1_555 1_555
O12_2 C76_2 1_555 1_555
C76_2 C50_2 1_555 1_555
O13_2 Ce1_3 1_555 1_555
O15 Ce1_3 1_555 1_555
C44_2 C58_2 1_555 1_555
C47 C62 1_555 1_555
C51_2 C65_2 1_555 1_555
C52 C73 1_555 1_555
C55 C63 1_555 1_555
C56_2 N2_2 1_555 1_555
C59 C67_2 1_555 1_555
C59 C73 1_555 1_555
C61 C66 1_555 1_555
C70_2 C72_2 1_555 1_555
O13_2 H54 1_555 1_555
O13_2 H51 1_555 1_555
H23_2 C35_2 1_555 1_555
H24_2 C36_2 1_555 1_555
C35_2 C36_2 1_555 1_555
C1_2 C14_2 1_555 1_555
C2_2 H1_2 1_555 1_555
C4_2 C2_2 1_555 1_555
O1 H2 1_555 1_555
C5_2 C4_2 1_555 1_555
C6_2 C4_2 1_555 1_555
C7_2 H4_2 1_555 1_555
C8 C16 1_555 1_555
C9_2 C6_2 1_555 1_555
H5_2 C9_2 1_555 1_555
C11_2 C21_2 1_555 1_555
C12_2 N1_2 1_555 1_555
C13 C22 1_555 1_555
O3 C23 1_555 1_555
C14_2 C2_2 1_555 1_555
H6_2 C14_2 1_555 1_555
C16 H8 1_555 1_555
C19_2 C1_2 1_555 1_555
C20 H11 1_555 1_555
C21_2 C9_2 1_555 1_555
H12_2 C21_2 1_555 1_555
C22 H13 1_555 1_555
C23 O1 1_555 1_555
C24 C13 1_555 1_555
H14 C24 1_555 1_555
N1_2 C1_2 1_555 1_555
C26_2 C7_2 1_555 1_555
H16_2 C26_2 1_555 1_555
C27 C8 1_555 1_555
H17 C27 1_555 1_555
C28_2 C12_2 1_555 1_555
H18_2 C28_2 1_555 1_555
C30_2 C17_2 1_555 1_555
H19 C30_2 1_555 1_555
C31_2 C6_2 1_555 1_555
C33_2 C11_2 1_555 1_555
H22_2 C33_2 1_555 1_555
C34 C7_2 1_555 1_555
O5_2 C37_2 1_555 1_555
C37_2 C11_2 1_555 1_555
O6_2 Ce1_4 1_555 1_555
O16 Ce1_4 1_555 1_555
C5_2 C19_2 1_555 1_555
C8 C23 1_555 1_555
C12_2 C26_2 1_555 1_555
C13 C34 1_555 1_555
C16 C24 1_555 1_555
C17_2 N1_2 1_555 1_555
C20 C28_2 1_555 1_555
C20 C34 1_555 1_555
C22 C27 1_555 1_555
C31_2 C33_2 1_555 1_555
O6_2 H51_2 1_555 1_555
O6_2 H54_2 1_555 1_555
H48_2 C74_2 1_555 1_555
H49_2 C75_2 1_555 1_555
C74_2 C75_2 1_555 1_555
O8_2 H27_2 1_555 1_555
C47_2 C55_2 1_555 1_555
C52_2 C61_2 1_555 1_555
O10_2 C62_2 1_555 1_555
C55_2 H33_2 1_555 1_555
C59_2 H36_2 1_555 1_555
C61_2 H38_2 1_555 1_555
C62_2 O8_2 1_555 1_555
C63_2 C52_2 1_555 1_555
H39_2 C63_2 1_555 1_555
C66_2 C47_2 1_555 1_555
H42_2 C66_2 1_555 1_555
C47_2 C62_2 1_555 1_555
C52_2 C73_2 1_555 1_555
C55_2 C63_2 1_555 1_555
C59_2 C73_2 1_555 1_555
C61_2 C66_2 1_555 1_555
O1_2 H2_2 1_555 1_555
C8_2 C16_2 1_555 1_555
C13_2 C22_2 1_555 1_555
O3_2 C23_2 1_555 1_555
C16_2 H8_2 1_555 1_555
C20_2 H11_2 1_555 1_555
C22_2 H13_2 1_555 1_555
C23_2 O1_2 1_555 1_555
C24_2 C13_2 1_555 1_555
H14_2 C24_2 1_555 1_555
C27_2 C8_2 1_555 1_555
H17_2 C27_2 1_555 1_555
C8_2 C23_2 1_555 1_555
C13_2 C34_2 1_555 1_555
C16_2 C24_2 1_555 1_555
C20_2 C34_2 1_555 1_555
C22_2 C27_2 1_555 1_555
O14_2 Ce3_2 1_555 1_555
Ce3_2 O4_3 1_555 1_555
C40_3 C53_3 1_555 1_555
C41_3 H26_3 1_555 1_555
C42_3 C64_3 1_555 1_555
C43_3 C41_3 1_555 1_555
C44_3 C43_3 1_555 1_555
H28_3 C44_3 1_555 1_555
O16_2 C78_3 1_555 1_555
C45_3 C43_3 1_555 1_555
C46_3 H29_3 1_555 1_555
C48_3 C45_3 1_555 1_555
H30_3 C48_3 1_555 1_555
C49_3 C57_3 1_555 1_555
C50_3 C60_3 1_555 1_555
C51_3 N2_3 1_555 1_555
C52_3 C61_3 1_555 1_555
C53_3 C41_3 1_555 1_555
H31_3 C53_3 1_555 1_555
C54_3 H32_3 1_555 1_555
C56_3 C54_3 1_555 1_555
C57_3 H34_3 1_555 1_555
C58_3 C40_3 1_555 1_555
H35_3 C58_3 1_555 1_555
C59_3 H36_3 1_555 1_555
C60_3 C48_3 1_555 1_555
H37_3 C60_3 1_555 1_555
C61_3 H38_3 1_555 1_555
C64_3 C54_3 1_555 1_555
H40_3 C64_3 1_555 1_555
N2_3 C40_3 1_555 1_555
C65_3 C46_3 1_555 1_555
H41_3 C65_3 1_555 1_555
C67_3 C51_3 1_555 1_555
H43_3 C67_3 1_555 1_555
C68_3 C42_3 1_555 1_555
C69_3 C56_3 1_555 1_555
H44_3 C69_3 1_555 1_555
C70_3 C45_3 1_555 1_555
H45_3 C70_3 1_555 1_555
C71_3 C57_3 1_555 1_555
H46_3 C71_3 1_555 1_555
C72_3 C50_3 1_555 1_555
H47_3 C72_3 1_555 1_555
C73_3 C46_3 1_555 1_555
C74_3 C49_3 1_555 1_555
H48_3 C74_3 1_555 1_555
O12_3 C76_3 1_555 1_555
C75_3 C68_3 1_555 1_555
H49_3 C75_3 1_555 1_555
C76_3 C50_3 1_555 1_555
C77_3 C42_3 1_555 1_555
H50_3 C77_3 1_555 1_555
O13_3 Ce3_2 1_555 1_555
C78_3 C49_3 1_555 1_555
C44_3 C58_3 1_555 1_555
C51_3 C65_3 1_555 1_555
C52_3 C73_3 1_555 1_555
C56_3 N2_3 1_555 1_555
C59_3 C67_3 1_555 1_555
C59_3 C73_3 1_555 1_555
C68_3 C71_3 1_555 1_555
C69_3 C77_3 1_555 1_555
C70_3 C72_3 1_555 1_555
C74_3 C75_3 1_555 1_555
C40_4 C53_4 1_555 1_555
C41_4 H26_4 1_555 1_555
C42_4 C64_4 1_555 1_555
C43_4 C41_4 1_555 1_555
C44_4 C43_4 1_555 1_555
H28_4 C44_4 1_555 1_555
C45_4 C43_4 1_555 1_555
C46_4 H29_4 1_555 1_555
C48_4 C45_4 1_555 1_555
H30_4 C48_4 1_555 1_555
C49_4 C57_4 1_555 1_555
C50_4 C60_4 1_555 1_555
C51_4 N2_4 1_555 1_555
C53_4 C41_4 1_555 1_555
H31_4 C53_4 1_555 1_555
C54_4 H32_4 1_555 1_555
C56_4 C54_4 1_555 1_555
C57_4 H34_4 1_555 1_555
C58_4 C40_4 1_555 1_555
H35_4 C58_4 1_555 1_555
C60_4 C48_4 1_555 1_555
H37_4 C60_4 1_555 1_555
C64_4 C54_4 1_555 1_555
H40_4 C64_4 1_555 1_555
N2_4 C40_4 1_555 1_555
C65_4 C46_4 1_555 1_555
H41_4 C65_4 1_555 1_555
C67_4 C51_4 1_555 1_555
H43_4 C67_4 1_555 1_555
C68_4 C42_4 1_555 1_555
C69_4 C56_4 1_555 1_555
C70_4 C45_4 1_555 1_555
H45_4 C70_4 1_555 1_555
C71_4 C57_4 1_555 1_555
H46_4 C71_4 1_555 1_555
O11_3 Ce1_5 1_555 1_555
C72_4 C50_4 1_555 1_555
H47_4 C72_4 1_555 1_555
O12_4 C76_4 1_555 1_555
C76_4 C50_4 1_555 1_555
C77_4 C42_4 1_555 1_555
O13_4 Ce1_5 1_555 1_555
C78_4 C49_4 1_555 1_555
O17_2 Ce1_5 1_555 1_555
C44_4 C58_4 1_555 1_555
C51_4 C65_4 1_555 1_555
C56_4 N2_4 1_555 1_555
C68_4 C71_4 1_555 1_555
C69_4 C77_4 1_555 1_555
C70_4 C72_4 1_555 1_555
O11_3 C76_4 1_555 1_555
O13_4 H54_3 1_555 1_555
O13_4 H51_3 1_555 1_555
O7_2 Ce3_3 1_555 1_555
C1_3 C14_3 1_555 1_555
C2_3 H1_3 1_555 1_555
C3_3 C25_3 1_555 1_555
C4_3 C2_3 1_555 1_555
C5_3 C4_3 1_555 1_555
H3_3 C5_3 1_555 1_555
O15_2 C39_3 1_555 1_555
C6_3 C4_3 1_555 1_555
C7_3 H4_3 1_555 1_555
C9_3 C6_3 1_555 1_555
H5_3 C9_3 1_555 1_555
C10_3 C18_3 1_555 1_555
C11_3 C21_3 1_555 1_555
C12_3 N1_3 1_555 1_555
C13_3 C22_3 1_555 1_555
C14_3 C2_3 1_555 1_555
H6_3 C14_3 1_555 1_555
C15_3 H7_3 1_555 1_555
C17_3 C15_3 1_555 1_555
C18_3 H9_3 1_555 1_555
C19_3 C1_3 1_555 1_555
H10_3 C19_3 1_555 1_555
C20_3 H11_3 1_555 1_555
C21_3 C9_3 1_555 1_555
H12_3 C21_3 1_555 1_555
C22_3 H13_3 1_555 1_555
C25_3 C15_3 1_555 1_555
H15_3 C25_3 1_555 1_555
N1_3 C1_3 1_555 1_555
C26_3 C7_3 1_555 1_555
H16_3 C26_3 1_555 1_555
C28_3 C12_3 1_555 1_555
H18_3 C28_3 1_555 1_555
C29_3 C3_3 1_555 1_555
C30_3 C17_3 1_555 1_555
H19_3 C30_3 1_555 1_555
C31_3 C6_3 1_555 1_555
H20_3 C31_3 1_555 1_555
C32_3 C18_3 1_555 1_555
H21_3 C32_3 1_555 1_555
C33_3 C11_3 1_555 1_555
H22_3 C33_3 1_555 1_555
C34_3 C7_3 1_555 1_555
C35_3 C10_3 1_555 1_555
H23_3 C35_3 1_555 1_555
O5_3 C37_3 1_555 1_555
C36_3 C29_3 1_555 1_555
H24_3 C36_3 1_555 1_555
C37_3 C11_3 1_555 1_555
C38_3 C3_3 1_555 1_555
H25_3 C38_3 1_555 1_555
O6_3 Ce3_3 1_555 1_555
C39_3 C10_3 1_555 1_555
O11_4 Ce3_3 1_555 1_555
C5_3 C19_3 1_555 1_555
C12_3 C26_3 1_555 1_555
C13_3 C34_3 1_555 1_555
C17_3 N1_3 1_555 1_555
C20_3 C28_3 1_555 1_555
C20_3 C34_3 1_555 1_555
C29_3 C32_3 1_555 1_555
C30_3 C38_3 1_555 1_555
C31_3 C33_3 1_555 1_555
C35_3 C36_3 1_555 1_555
C52_4 C61_4 1_555 1_555
C59_4 H36_4 1_555 1_555
C61_4 H38_4 1_555 1_555
H48_4 C74_4 1_555 1_555
H49_4 C75_4 1_555 1_555
C52_4 C73_4 1_555 1_555
C59_4 C73_4 1_555 1_555
C74_4 C75_4 1_555 1_555
O1_3 H2_3 1_555 1_555
C8_3 C16_3 1_555 1_555
O3_3 C23_3 1_555 1_555
C16_3 H8_3 1_555 1_555
C23_3 O1_3 1_555 1_555
H14_3 C24_3 1_555 1_555
C27_3 C8_3 1_555 1_555
H17_3 C27_3 1_555 1_555
C8_3 C23_3 1_555 1_555
C16_3 C24_3 1_555 1_555
O8_3 H27_3 1_555 1_555
C47_3 C55_3 1_555 1_555
O10_3 C62_3 1_555 1_555
C55_3 H33_3 1_555 1_555
C62_3 O8_3 1_555 1_555
H39_3 C63_3 1_555 1_555
C66_3 C47_3 1_555 1_555
H42_3 C66_3 1_555 1_555
C47_3 C62_3 1_555 1_555
C55_3 C63_3 1_555 1_555
C13_4 C22_4 1_555 1_555
C20_4 H11_4 1_555 1_555
C22_4 H13_4 1_555 1_555
H23_4 C35_4 1_555 1_555
H24_4 C36_4 1_555 1_555
C13_4 C34_4 1_555 1_555
C20_4 C34_4 1_555 1_555
C35_4 C36_4 1_555 1_555
O8_4 H27_4 1_555 1_555
C47_4 C55_4 1_555 1_555
O10_4 C62_4 1_555 1_555
C55_4 H33_4 1_555 1_555
C62_4 O8_4 1_555 1_555
H39_4 C63_4 1_555 1_555
C66_4 C47_4 1_555 1_555
H42_4 C66_4 1_555 1_555
C47_4 C62_4 1_555 1_555
C55_4 C63_4 1_555 1_555
O1_4 H2_4 1_555 1_555
C8_4 C16_4 1_555 1_555
O3_4 C23_4 1_555 1_555
C16_4 H8_4 1_555 1_555
C23_4 O1_4 1_555 1_555
H14_4 C24_4 1_555 1_555
C27_4 C8_4 1_555 1_555
H17_4 C27_4 1_555 1_555
C8_4 C23_4 1_555 1_555
C16_4 C24_4 1_555 1_555
Ce1_6 O4_4 1_555 1_555
C1_4 C14_4 1_555 1_555
C2_4 H1_4 1_555 1_555
C3_4 C25_4 1_555 1_555
C4_4 C2_4 1_555 1_555
C5_4 C4_4 1_555 1_555
H3_4 C5_4 1_555 1_555
C6_4 C4_4 1_555 1_555
C7_4 H4_4 1_555 1_555
C9_4 C6_4 1_555 1_555
H5_4 C9_4 1_555 1_555
C10_4 C18_4 1_555 1_555
C11_4 C21_4 1_555 1_555
C12_4 N1_4 1_555 1_555
C14_4 C2_4 1_555 1_555
H6_4 C14_4 1_555 1_555
C15_4 H7_4 1_555 1_555
C17_4 C15_4 1_555 1_555
C18_4 H9_4 1_555 1_555
C19_4 C1_4 1_555 1_555
H10_4 C19_4 1_555 1_555
C21_4 C9_4 1_555 1_555
H12_4 C21_4 1_555 1_555
C25_4 C15_4 1_555 1_555
H15_4 C25_4 1_555 1_555
N1_4 C1_4 1_555 1_555
C26_4 C7_4 1_555 1_555
H16_4 C26_4 1_555 1_555
C28_4 C12_4 1_555 1_555
H18_4 C28_4 1_555 1_555
C29_4 C3_4 1_555 1_555
C30_4 C17_4 1_555 1_555
C31_4 C6_4 1_555 1_555
H20_4 C31_4 1_555 1_555
C32_4 C18_4 1_555 1_555
H21_4 C32_4 1_555 1_555
O4_4 C37_4 1_555 1_555
C33_4 C11_4 1_555 1_555
H22_4 C33_4 1_555 1_555
O5_4 C37_4 1_555 1_555
C37_4 C11_4 1_555 1_555
C38_4 C3_4 1_555 1_555
O6_4 Ce1_6 1_555 1_555
C39_4 C10_4 1_555 1_555
O18_2 Ce1_6 1_555 1_555
C5_4 C19_4 1_555 1_555
C12_4 C26_4 1_555 1_555
C17_4 N1_4 1_555 1_555
C29_4 C32_4 1_555 1_555
C30_4 C38_4 1_555 1_555
C31_4 C33_4 1_555 1_555
O6_4 H51_4 1_555 1_555
O6_4 H54_4 1_555 1_555

#END
