
###############################################################################
#
# This file contains modified crystal structure data generated from the
# MOF subset of the Cambridge Structural Database (CSD) v543 
# hosted by the Cambridge Crystallographic Data Centre (CCDC).
#
# This work is licensed under the Creative Commons
# Attribution-NonCommercial-ShareAlike 4.0 International License.
# To view a copy of this license, visit
# http://creativecommons.org/licenses/by-nc-sa/4.0/
# or send a letter to
# Creative Commons, PO Box 1866, Mountain View, CA 94042, USA.
#
# CIF created using the CSD Python API on 29 September 2022
# The structure has been converted into the P1 space group
# The structure has a 3D framework
# The original CSD entry PIQPUC is in the monoclinic crystal system
# The framework has been calculated to contain at least 10.0% void space
# The void calculation uses a probe of radius 1.32A, grid spacing 0.4
# H atom positions have been added when not included in the experimental data
#
###############################################################################

data_PIQPUC
_chemical_formula_moiety         '(C108 H68 Cd2 O40)n'
_symmetry_cell_setting           triclinic
_symmetry_space_group_name_H-M   'P 1'
_symmetry_Int_Tables_number      1
_space_group_name_Hall           'P 1'
loop_
_symmetry_equiv_pos_site_id
_symmetry_equiv_pos_as_xyz
1 x,y,z
_cell_length_a                   15.777(2)
_cell_length_b                   10.6187(15)
_cell_length_c                   18.958(3)
_cell_angle_alpha                90
_cell_angle_beta                 97.359(2)
_cell_angle_gamma                90
_cell_volume                     3149.9
loop_
_atom_site_label
_atom_site_type_symbol
_atom_site_fract_x
_atom_site_fract_y
_atom_site_fract_z
Cd6 Cd -0.0000 0.51467(7) 0.2500
Cd2 Cd 0.04196(2) 0.42083(5) 0.42627(2)
O21 O 0.0772(2) 0.4948(4) 0.1557(2)
O22 O 0.0815(3) 0.4578(5) 0.5447(2)
O26 O 0.0706(2) 0.3517(4) 0.3127(2)
O27 O 0.0941(3) 0.6164(5) 0.4177(2)
O29 O 0.0935(3) 0.6539(5) 0.3005(2)
O31 O 0.1721(3) 0.3350(5) 0.4033(2)
H32 H 0.00613062 0.217639 0.506989
C10 C 0.4540(4) 0.0232(7) 0.3974(3)
C11 C 0.5005(3) 0.1327(7) 0.3941(3)
H6 H 0.4836 0.2077 0.4135
C12 C 0.5731(4) 0.1260(8) 0.3607(3)
C13 C 0.6003(4) 0.0144(7) 0.3319(4)
H7 H 0.6489 0.0116 0.3089
C20 C 0.6756(4) 0.2498(8) 0.3086(4)
C21 C 0.7618(5) 0.2408(7) 0.3306(4)
H12 H 0.7814 0.2197 0.3774
C22 C 0.8194(4) 0.2631(7) 0.2827(3)
H13 H 0.8778 0.2588 0.2976
C23 C 0.7902(4) 0.2915(7) 0.2129(3)
C24 C 0.7034(4) 0.2948(8) 0.1896(4)
H14 H 0.6837 0.3103 0.1420
C25 C 0.6450(4) 0.2741(9) 0.2392(4)
H15 H 0.5865 0.2771 0.2247
C26 C 0.8513(3) 0.3269(6) 0.1621(3)
O3 O 0.9294(2) 0.3517(4) 0.1873(2)
O6 O 0.8279(3) 0.3350(5) 0.0967(2)
O9 O 0.3813(3) 0.0377(5) 0.4319(3)
O10 O 0.6180(3) 0.2388(6) 0.3581(3)
C37 C 0.5460(4) 0.0232(7) 0.1026(3)
C38 C 0.4995(3) 0.1327(7) 0.1059(3)
H21 H 0.5164 0.2077 0.0865
C39 C 0.4269(4) 0.1260(8) 0.1393(3)
C40 C 0.3997(4) 0.0144(7) 0.1681(4)
H22 H 0.3511 0.0116 0.1911
C47 C 0.3244(4) 0.2498(8) 0.1914(4)
C48 C 0.2382(5) 0.2408(7) 0.1694(4)
H27 H 0.2186 0.2197 0.1226
C49 C 0.1806(4) 0.2631(7) 0.2173(3)
H28 H 0.1222 0.2588 0.2024
C50 C 0.2098(4) 0.2915(7) 0.2871(3)
C51 C 0.2966(4) 0.2948(8) 0.3104(4)
H29 H 0.3163 0.3103 0.3580
C52 C 0.3550(4) 0.2741(9) 0.2608(4)
H30 H 0.4135 0.2771 0.2753
C53 C 0.1487(3) 0.3269(6) 0.3379(3)
O19 O 0.6187(3) 0.0377(5) 0.0681(3)
O20 O 0.3820(3) 0.2388(6) 0.1419(3)
Cd6_2 Cd 1.0000 0.51467(7) 0.2500
Cd10 Cd 0.95804(2) 0.42083(5) 0.07373(2)
C1 C 0.8852(4) 0.5460(7) 0.3912(3)
C2 C 0.8043(4) 0.6133(7) 0.3718(3)
C3 C 0.7595(4) 0.5994(7) 0.3039(3)
H1 H 0.7814 0.5469 0.2713
C4 C 0.6827(4) 0.6624(7) 0.2838(3)
H2 H 0.6531 0.6519 0.2385
C5 C 0.6517(4) 0.7407(7) 0.3326(4)
C6 C 0.6937(4) 0.7557(8) 0.4012(4)
H3 H 0.6715 0.8080 0.4336
C7 C 0.7685(4) 0.6917(8) 0.4197(3)
H4 H 0.7965 0.7005 0.4657
C8 C 0.5508(4) 0.9068(7) 0.3393(3)
C9 C 0.4779(4) 0.9088(7) 0.3711(3)
H5 H 0.4457 0.8363 0.3749
C14 C 0.3157(4) 0.9493(7) 0.4144(4)
C15 C 0.2946(4) 0.8689(9) 0.4665(4)
H8 H 0.3241 0.8726 0.5122
C16 C 0.2295(4) 0.7828(8) 0.4504(4)
H9 H 0.2134 0.7315 0.4862
C17 C 0.1883(4) 0.7717(7) 0.3828(3)
C18 C 0.2118(5) 0.8491(8) 0.3287(4)
H10 H 0.1858 0.8400 0.2822
C19 C 0.2754(5) 0.9410(8) 0.3459(4)
H11 H 0.2900 0.9957 0.3111
C27 C 0.1203(4) 0.6737(7) 0.3647(4)
O1 O 0.9228(2) 0.4948(4) 0.3443(2)
O2 O 0.9185(3) 0.5422(5) 0.4553(2)
O7 O 0.9681(4) 0.2642(6) 0.4701(3)
O8 O 0.5719(3) 0.7941(5) 0.3096(2)
C28 C 0.1148(4) 0.5460(7) 0.1088(3)
C29 C 0.1957(4) 0.6133(7) 0.1282(3)
C30 C 0.2405(4) 0.5994(7) 0.1961(3)
H16 H 0.2186 0.5469 0.2287
C31 C 0.3173(4) 0.6624(7) 0.2162(3)
H17 H 0.3469 0.6519 0.2615
C32 C 0.3483(4) 0.7407(7) 0.1674(4)
C33 C 0.3063(4) 0.7557(8) 0.0988(4)
H18 H 0.3285 0.8080 0.0664
C34 C 0.2315(4) 0.6917(8) 0.0803(3)
H19 H 0.2035 0.7005 0.0343
C35 C 0.4492(4) 0.9068(7) 0.1607(3)
C36 C 0.5221(4) 0.9088(7) 0.1289(3)
H20 H 0.5543 0.8363 0.1251
C41 C 0.6843(4) 0.9493(7) 0.0856(4)
C42 C 0.7054(4) 0.8689(9) 0.0335(4)
C43 C 0.7705(4) 0.7828(8) 0.0496(4)
H24 H 0.7866 0.7315 0.0138
C44 C 0.8117(4) 0.7717(7) 0.1172(3)
C45 C 0.7882(5) 0.8491(8) 0.1713(4)
H25 H 0.8142 0.8400 0.2178
C46 C 0.7246(5) 0.9410(8) 0.1541(4)
H26 H 0.7100 0.9957 0.1889
C54 C 0.8797(4) 0.6737(7) 0.1353(4)
O12 O 0.0815(3) 0.5422(5) 0.0447(2)
O14 O 0.9059(3) 0.6164(5) 0.0823(2)
O15 O 0.9065(3) 0.6539(5) 0.1995(2)
O17 O 0.0319(4) 0.2642(6) 0.0299(3)
O18 O 0.4281(3) 0.7941(5) 0.1904(2)
Cd11 Cd 0.95804(2) 0.57917(5) 0.57373(2)
H31 H 0.946333 0.2057 0.431077
H33 H 0.0536667 0.2057 0.0689234
H23 H 0.6759 0.8726 0.9878
Cd12 Cd 0.04196(2) 0.57917(5) 0.92627(2)
O23 O 0.9185(3) 0.4578(5) 0.9553(2)
H34 H 0.993869 0.217639 0.993011
H34_2 H 0.00613062 0.782361 0.00698926
O24 O 0.0706(2) 0.6483(4) 0.8127(2)
O28 O 0.0941(3) 0.3836(5) 0.9177(2)
O30 O 0.1721(3) 0.6650(5) 0.9033(2)
Cd4 Cd 0.0000 0.48533(7) 0.7500
H23_2 H 0.3241 0.1274 0.0122
C1_2 C 0.1148(4) 0.4540(7) 0.6088(3)
C2_2 C 0.1957(4) 0.3867(7) 0.6282(3)
C3_2 C 0.2405(4) 0.4006(7) 0.6961(3)
H1_2 H 0.2186 0.4531 0.7287
C4_2 C 0.3173(4) 0.3376(7) 0.7162(3)
H2_2 H 0.3469 0.3481 0.7615
C5_2 C 0.3483(4) 0.2593(7) 0.6674(4)
C6_2 C 0.3063(4) 0.2443(8) 0.5988(4)
H3_2 H 0.3285 0.1920 0.5664
C7_2 C 0.2315(4) 0.3083(8) 0.5803(3)
H4_2 H 0.2035 0.2995 0.5343
C8_2 C 0.4492(4) 0.0932(7) 0.6607(3)
C9_2 C 0.5221(4) 0.0912(7) 0.6289(3)
H5_2 H 0.5543 0.1637 0.6251
C14_2 C 0.6843(4) 0.0507(7) 0.5856(4)
C15_2 C 0.7054(4) 0.1311(9) 0.5335(4)
H8_2 H 0.6759 0.1274 0.4878
C16_2 C 0.7705(4) 0.2172(8) 0.5496(4)
H9_2 H 0.7866 0.2685 0.5138
C17_2 C 0.8117(4) 0.2283(7) 0.6172(3)
C18_2 C 0.7882(5) 0.1509(8) 0.6713(4)
H10_2 H 0.8142 0.1600 0.7178
C19_2 C 0.7246(5) 0.0590(8) 0.6541(4)
H11_2 H 0.7100 0.0043 0.6889
C27_2 C 0.8797(4) 0.3263(7) 0.6353(4)
O1_2 O 0.0772(2) 0.5052(4) 0.6557(2)
O4 O 0.9059(3) 0.3836(5) 0.5823(2)
O5 O 0.9065(3) 0.3461(5) 0.6995(2)
O7_2 O 0.0319(4) 0.7358(6) 0.5299(3)
O8_2 O 0.4281(3) 0.2059(5) 0.6904(2)
C28_2 C 0.8852(4) 0.4540(7) 0.8912(3)
C29_2 C 0.8043(4) 0.3867(7) 0.8718(3)
C30_2 C 0.7595(4) 0.4006(7) 0.8039(3)
H16_2 H 0.7814 0.4531 0.7713
C31_2 C 0.6827(4) 0.3376(7) 0.7838(3)
H17_2 H 0.6531 0.3481 0.7385
C32_2 C 0.6517(4) 0.2593(7) 0.8326(4)
C33_2 C 0.6937(4) 0.2443(8) 0.9012(4)
H18_2 H 0.6715 0.1920 0.9336
C34_2 C 0.7685(4) 0.3083(8) 0.9197(3)
H19_2 H 0.7965 0.2995 0.9657
C35_2 C 0.5508(4) 0.0932(7) 0.8393(3)
C36_2 C 0.4779(4) 0.0912(7) 0.8711(3)
H20_2 H 0.4457 0.1637 0.8749
C41_2 C 0.3157(4) 0.0507(7) 0.9144(4)
C42_2 C 0.2946(4) 0.1311(9) 0.9665(4)
C43_2 C 0.2295(4) 0.2172(8) 0.9504(4)
H24_2 H 0.2134 0.2685 0.9862
C44_2 C 0.1883(4) 0.2283(7) 0.8828(3)
C45_2 C 0.2118(5) 0.1509(8) 0.8287(4)
H25_2 H 0.1858 0.1600 0.7822
C46_2 C 0.2754(5) 0.0590(8) 0.8459(4)
H26_2 H 0.2900 0.0043 0.8111
C54_2 C 0.1203(4) 0.3263(7) 0.8647(4)
O11 O 0.9228(2) 0.5052(4) 0.8443(2)
O15_2 O 0.0935(3) 0.3461(5) 0.8005(2)
O17_2 O 0.9681(4) 0.7358(6) 0.9701(3)
O18_2 O 0.5719(3) 0.2059(5) 0.8096(2)
Cd4_2 Cd 1.0000 0.48533(7) 0.7500
H31_2 H 0.0536667 0.7943 0.568923
H33_2 H 0.946333 0.7943 0.931077
C10_2 C 0.5460(4) 0.9768(7) 0.6026(3)
C11_2 C 0.4995(3) 0.8673(7) 0.6059(3)
H6_2 H 0.5164 0.7923 0.5865
C12_2 C 0.4269(4) 0.8740(8) 0.6393(3)
C13_2 C 0.3997(4) 0.9856(7) 0.6681(4)
H7_2 H 0.3511 0.9884 0.6911
C20_2 C 0.3244(4) 0.7502(8) 0.6914(4)
C21_2 C 0.2382(5) 0.7592(7) 0.6694(4)
H12_2 H 0.2186 0.7803 0.6226
C22_2 C 0.1806(4) 0.7369(7) 0.7173(3)
H13_2 H 0.1222 0.7412 0.7024
C23_2 C 0.2098(4) 0.7085(7) 0.7871(3)
C24_2 C 0.2966(4) 0.7052(8) 0.8104(4)
H14_2 H 0.3163 0.6897 0.8580
C25_2 C 0.3550(4) 0.7259(9) 0.7608(4)
H15_2 H 0.4135 0.7229 0.7753
C26_2 C 0.1487(3) 0.6731(6) 0.8379(3)
O9_2 O 0.6187(3) 0.9623(5) 0.5681(3)
O10_2 O 0.3820(3) 0.7612(6) 0.6419(3)
C37_2 C 0.4540(4) 0.9768(7) 0.8974(3)
C38_2 C 0.5005(3) 0.8673(7) 0.8941(3)
H21_2 H 0.4836 0.7923 0.9135
C39_2 C 0.5731(4) 0.8740(8) 0.8607(3)
C40_2 C 0.6003(4) 0.9856(7) 0.8319(4)
H22_2 H 0.6489 0.9884 0.8089
C47_2 C 0.6756(4) 0.7502(8) 0.8086(4)
C48_2 C 0.7618(5) 0.7592(7) 0.8306(4)
H27_2 H 0.7814 0.7803 0.8774
C49_2 C 0.8194(4) 0.7369(7) 0.7827(3)
H28_2 H 0.8778 0.7412 0.7976
C50_2 C 0.7902(4) 0.7085(7) 0.7129(3)
C51_2 C 0.7034(4) 0.7052(8) 0.6896(4)
H29_2 H 0.6837 0.6897 0.6420
C52_2 C 0.6450(4) 0.7259(9) 0.7392(4)
H30_2 H 0.5865 0.7229 0.7247
C53_2 C 0.8513(3) 0.6731(6) 0.6621(3)
O13 O 0.9294(2) 0.6483(4) 0.6873(2)
O16 O 0.8279(3) 0.6650(5) 0.5967(2)
O19_2 O 0.3813(3) 0.9623(5) 0.9319(3)
O20_2 O 0.6180(3) 0.7612(6) 0.8581(3)
H32_2 H 0.993869 0.782361 0.493011
loop_
_geom_bond_atom_site_label_1
_geom_bond_atom_site_label_2
_geom_bond_site_symmetry_1
_geom_bond_site_symmetry_2
O21 Cd6 1_555 1_555
O22 Cd2 1_555 1_555
O26 Cd6 1_555 1_555
O27 Cd2 1_555 1_555
O29 Cd6 1_555 1_555
O31 Cd2 1_555 1_555
Cd2 O26 1_555 1_555
C11 C10 1_555 1_555
H6 C11 1_555 1_555
C12 C11 1_555 1_555
H7 C13 1_555 1_555
C20 C21 1_555 1_555
C21 H12 1_555 1_555
C22 C21 1_555 1_555
H13 C22 1_555 1_555
C23 C22 1_555 1_555
C24 C23 1_555 1_555
H14 C24 1_555 1_555
C25 C20 1_555 1_555
H15 C25 1_555 1_555
C26 C23 1_555 1_555
O3 C26 1_555 1_555
O6 C26 1_555 1_555
O9 C10 1_555 1_555
O10 C12 1_555 1_555
C38 C37 1_555 1_555
H21 C38 1_555 1_555
C39 C38 1_555 1_555
H22 C40 1_555 1_555
C47 C48 1_555 1_555
C48 H27 1_555 1_555
C49 C48 1_555 1_555
H28 C49 1_555 1_555
C50 C49 1_555 1_555
C51 C50 1_555 1_555
H29 C51 1_555 1_555
C52 C47 1_555 1_555
H30 C52 1_555 1_555
C53 C50 1_555 1_555
O26 C53 1_555 1_555
O31 C53 1_555 1_555
O19 C37 1_555 1_555
O20 C39 1_555 1_555
Cd6_2 O3 1_555 1_555
Cd10 O3 1_555 1_555
C12 C13 1_555 1_555
C20 O10 1_555 1_555
C24 C25 1_555 1_555
O6 Cd10 1_555 1_555
C39 C40 1_555 1_555
C47 O20 1_555 1_555
C51 C52 1_555 1_555
C1 C2 1_555 1_555
C2 C3 1_555 1_555
C3 H1 1_555 1_555
C4 C3 1_555 1_555
H2 C4 1_555 1_555
C5 C4 1_555 1_555
C6 C5 1_555 1_555
H3 C6 1_555 1_555
C7 C2 1_555 1_555
H4 C7 1_555 1_555
C8 C9 1_555 1_555
C9 H5 1_555 1_555
C14 C15 1_555 1_555
C15 H8 1_555 1_555
C16 C15 1_555 1_555
H9 C16 1_555 1_555
C17 C16 1_555 1_555
C18 C17 1_555 1_555
H10 C18 1_555 1_555
C19 C14 1_555 1_555
H11 C19 1_555 1_555
C27 C17 1_555 1_555
O1 C1 1_555 1_555
O2 C1 1_555 1_555
O27 C27 1_555 1_555
O29 C27 1_555 1_555
O8 C5 1_555 1_555
Cd6_2 O1 1_555 1_555
C28 C29 1_555 1_555
C29 C30 1_555 1_555
C30 H16 1_555 1_555
C31 C30 1_555 1_555
H17 C31 1_555 1_555
C32 C31 1_555 1_555
C33 C32 1_555 1_555
H18 C33 1_555 1_555
C34 C29 1_555 1_555
H19 C34 1_555 1_555
C35 C36 1_555 1_555
C36 H20 1_555 1_555
C41 C42 1_555 1_555
C43 C42 1_555 1_555
H24 C43 1_555 1_555
C44 C43 1_555 1_555
C45 C44 1_555 1_555
H25 C45 1_555 1_555
C46 C41 1_555 1_555
H26 C46 1_555 1_555
C54 C44 1_555 1_555
O21 C28 1_555 1_555
O12 C28 1_555 1_555
O14 C54 1_555 1_555
O15 Cd6_2 1_555 1_555
O18 C32 1_555 1_555
Cd10 O14 1_555 1_555
Cd11 O2 1_555 1_555
C6 C7 1_555 1_555
C8 O8 1_555 1_555
C18 C19 1_555 1_555
C33 C34 1_555 1_555
C35 O18 1_555 1_555
C45 C46 1_555 1_555
C54 O15 1_555 1_555
O7 H31 1_555 1_555
O17 H33 1_555 1_555
O24 Cd12 1_555 1_555
O28 Cd12 1_555 1_555
O30 Cd12 1_555 1_555
O24 Cd4 1_555 1_555
C1_2 C2_2 1_555 1_555
C2_2 C3_2 1_555 1_555
C3_2 H1_2 1_555 1_555
C4_2 C3_2 1_555 1_555
H2_2 C4_2 1_555 1_555
C5_2 C4_2 1_555 1_555
C6_2 C5_2 1_555 1_555
H3_2 C6_2 1_555 1_555
C7_2 C2_2 1_555 1_555
H4_2 C7_2 1_555 1_555
C8_2 C9_2 1_555 1_555
C9_2 H5_2 1_555 1_555
C14_2 C15_2 1_555 1_555
C15_2 H8_2 1_555 1_555
C16_2 C15_2 1_555 1_555
H9_2 C16_2 1_555 1_555
C17_2 C16_2 1_555 1_555
C18_2 C17_2 1_555 1_555
H10_2 C18_2 1_555 1_555
C19_2 C14_2 1_555 1_555
H11_2 C19_2 1_555 1_555
C27_2 C17_2 1_555 1_555
O1_2 C1_2 1_555 1_555
O22 C1_2 1_555 1_555
O4 C27_2 1_555 1_555
O5 C27_2 1_555 1_555
O8_2 C5_2 1_555 1_555
Cd4 O1_2 1_555 1_555
C28_2 C29_2 1_555 1_555
C29_2 C30_2 1_555 1_555
C30_2 H16_2 1_555 1_555
C31_2 C30_2 1_555 1_555
H17_2 C31_2 1_555 1_555
C32_2 C31_2 1_555 1_555
C33_2 C32_2 1_555 1_555
H18_2 C33_2 1_555 1_555
C34_2 C29_2 1_555 1_555
H19_2 C34_2 1_555 1_555
C35_2 C36_2 1_555 1_555
C36_2 H20_2 1_555 1_555
C41_2 C42_2 1_555 1_555
C43_2 C42_2 1_555 1_555
H24_2 C43_2 1_555 1_555
C44_2 C43_2 1_555 1_555
C45_2 C44_2 1_555 1_555
H25_2 C45_2 1_555 1_555
C46_2 C41_2 1_555 1_555
H26_2 C46_2 1_555 1_555
C54_2 C44_2 1_555 1_555
O11 C28_2 1_555 1_555
O23 C28_2 1_555 1_555
O28 C54_2 1_555 1_555
O15_2 Cd4 1_555 1_555
O18_2 C32_2 1_555 1_555
Cd4_2 O5 1_555 1_555
Cd11 O4 1_555 1_555
C6_2 C7_2 1_555 1_555
C8_2 O8_2 1_555 1_555
C18_2 C19_2 1_555 1_555
C33_2 C34_2 1_555 1_555
C35_2 O18_2 1_555 1_555
C45_2 C46_2 1_555 1_555
C54_2 O15_2 1_555 1_555
O11 Cd4_2 1_555 1_555
O7_2 H31_2 1_555 1_555
O17_2 H33_2 1_555 1_555
C11_2 C10_2 1_555 1_555
H6_2 C11_2 1_555 1_555
C12_2 C11_2 1_555 1_555
H7_2 C13_2 1_555 1_555
C20_2 C21_2 1_555 1_555
C21_2 H12_2 1_555 1_555
C22_2 C21_2 1_555 1_555
H13_2 C22_2 1_555 1_555
C23_2 C22_2 1_555 1_555
C24_2 C23_2 1_555 1_555
H14_2 C24_2 1_555 1_555
C25_2 C20_2 1_555 1_555
H15_2 C25_2 1_555 1_555
C26_2 C23_2 1_555 1_555
O24 C26_2 1_555 1_555
O30 C26_2 1_555 1_555
O9_2 C10_2 1_555 1_555
O10_2 C12_2 1_555 1_555
C38_2 C37_2 1_555 1_555
H21_2 C38_2 1_555 1_555
C39_2 C38_2 1_555 1_555
H22_2 C40_2 1_555 1_555
C47_2 C48_2 1_555 1_555
C48_2 H27_2 1_555 1_555
C49_2 C48_2 1_555 1_555
H28_2 C49_2 1_555 1_555
C50_2 C49_2 1_555 1_555
C51_2 C50_2 1_555 1_555
H29_2 C51_2 1_555 1_555
C52_2 C47_2 1_555 1_555
H30_2 C52_2 1_555 1_555
C53_2 C50_2 1_555 1_555
O13 C53_2 1_555 1_555
O16 C53_2 1_555 1_555
O19_2 C37_2 1_555 1_555
O20_2 C39_2 1_555 1_555
Cd4_2 O13 1_555 1_555
Cd11 O13 1_555 1_555
C12_2 C13_2 1_555 1_555
C20_2 O10_2 1_555 1_555
C24_2 C25_2 1_555 1_555
C39_2 C40_2 1_555 1_555
C47_2 O20_2 1_555 1_555
C51_2 C52_2 1_555 1_555
O16 Cd11 1_555 1_555

#END
