
###############################################################################
#
# This file contains modified crystal structure data generated from the
# MOF subset of the Cambridge Structural Database (CSD) v543 
# hosted by the Cambridge Crystallographic Data Centre (CCDC).
#
# This work is licensed under the Creative Commons
# Attribution-NonCommercial-ShareAlike 4.0 International License.
# To view a copy of this license, visit
# http://creativecommons.org/licenses/by-nc-sa/4.0/
# or send a letter to
# Creative Commons, PO Box 1866, Mountain View, CA 94042, USA.
#
# CIF created using the CSD Python API on 29 September 2022
# The structure has been converted into the P1 space group
# The structure has a 3D framework
# The original CSD entry PIQQIR is in the monoclinic crystal system
# The framework has been calculated to contain at least 10.0% void space
# The void calculation uses a probe of radius 1.32A, grid spacing 0.4
# H atom positions have been added when not included in the experimental data
#
###############################################################################

data_PIQQIR
_chemical_formula_moiety         '(C232 H160 Cd12 O80)n'
_symmetry_cell_setting           triclinic
_symmetry_space_group_name_H-M   'P 1'
_symmetry_Int_Tables_number      1
_space_group_name_Hall           'P 1'
loop_
_symmetry_equiv_pos_site_id
_symmetry_equiv_pos_as_xyz
1 x,y,z
_cell_length_a                   15.870(3)
_cell_length_b                   20.433(4)
_cell_length_c                   19.220(3)
_cell_angle_alpha                90
_cell_angle_beta                 98.409(3)
_cell_angle_gamma                90
_cell_volume                     6165.5
loop_
_atom_site_label
_atom_site_type_symbol
_atom_site_fract_x
_atom_site_fract_y
_atom_site_fract_z
C1 C 0.3444(11) 0.1680(9) 0.6392(10)
C2 C 0.2848(11) 0.1540(9) 0.6925(10)
C3 C 0.3140(14) 0.1382(10) 0.7614(12)
H1 H 0.3720 0.1323 0.7760
C4 C 0.2566(17) 0.1310(11) 0.8088(13)
H2 H 0.2752 0.1202 0.8556
C5 C 0.1699(17) 0.1405(11) 0.7844(17)
C6 C 0.1428(16) 0.1560(13) 0.7176(14)
H3 H 0.0850 0.1632 0.7032
C7 C 0.1979(13) 0.1616(11) 0.6701(13)
H4 H 0.1778 0.1704 0.6232
C8 C 0.0763(13) 0.0812(10) 0.8502(11)
C9 C 0.0047(11) 0.0885(9) 0.8823(9)
C13 C 0.1035(12) 0.0204(9) 0.8314(11)
H7 H 0.1527 0.0160 0.8108
Cd1 Cd 0.44420(8) 0.22229(7) 0.55135(7)
O1 O 0.4223(7) 0.1823(6) 0.6666(7)
O2 O 0.3213(9) 0.1671(8) 0.5769(8)
O4 O 0.5230(12) 0.1419(8) 0.5145(10)
O10 O 0.1173(12) 0.1393(8) 0.8385(10)
Cd10 Cd 0.49182(8) 0.26745(7) 0.72805(8)
O22 O 0.3749(10) 0.3133(7) 0.5644(8)
O23 O 0.5682(8) 0.2936(6) 0.5259(7)
O25 O 0.4102(7) 0.2414(7) 0.4364(7)
O31 O 0.5625(8) 0.2630(6) 0.6307(7)
H39 H 0.490699 0.100154 0.512466
H40 H 0.536447 0.15267 0.466956
Cd13 Cd 0.46528(8) 0.79237(7) 0.09759(8)
C12 C 0.0569(11) 0.9672(9) 0.8437(10)
C21 C 0.1594(12) 0.8814(9) 0.8469(11)
C22 C 0.1972(12) 0.8885(10) 0.9180(10)
H12 H 0.1696 0.9123 0.9492
C23 C 0.2769(12) 0.8592(10) 0.9413(11)
H13 H 0.3020 0.8637 0.9878
C24 C 0.3176(11) 0.8236(8) 0.8945(9)
C25 C 0.4012(13) 0.7921(10) 0.9184(11)
C26 C 0.2778(12) 0.8172(10) 0.8248(12)
H14 H 0.3055 0.7940 0.7932
C27 C 0.1977(12) 0.8446(10) 0.8013(12)
H15 H 0.1711 0.8378 0.7554
O5 O 0.4318(8) 0.7936(6) 0.9741(7)
O12 O 0.0790(8) 0.9052(7) 0.8234(8)
O17 O 0.4375(8) 0.7630(6) 0.8693(7)
Cd5 Cd 0.55580(8) 0.72229(7) 0.94865(7)
Cd7 Cd 0.50818(8) 0.76745(7) 0.77195(8)
H8 H 0.8496 0.9564 0.0121
Cd6 Cd 0.44420(8) 0.27771(7) 0.05135(7)
O24 O 0.5682(8) 0.2064(6) 0.0259(7)
C11 C 0.9849(12) 0.9707(10) 0.8767(11)
H6 H 0.9552 0.9334 0.8865
C14 C 0.8261(12) 0.9950(10) 0.9185(12)
C15 C 0.8146(14) 0.9533(11) 0.9690(14)
C16 C 0.7534(14) 0.9062(11) 0.9602(12)
H9 H 0.7462 0.8781 0.9970
C17 C 0.7020(13) 0.9005(9) 0.8957(13)
C18 C 0.6361(11) 0.8483(10) 0.8863(10)
C19 C 0.7116(13) 0.9437(10) 0.8429(12)
H10 H 0.6758 0.9409 0.8002
C20 C 0.7746(12) 0.9916(10) 0.8527(11)
C28 C 0.3764(11) 0.2709(8) 0.8691(9)
C29 C 0.2940(11) 0.3065(9) 0.8540(11)
C30 C 0.2590(12) 0.3383(10) 0.9078(11)
H16 H 0.2867 0.3357 0.9538
C31 C 0.1843(12) 0.3733(11) 0.8934(13)
H17 H 0.1610 0.3948 0.9287
C32 C 0.1448(11) 0.3751(9) 0.8226(11)
C33 C 0.1777(11) 0.3426(9) 0.7680(10)
H18 H 0.1497 0.3433 0.7220
C34 C 0.2530(12) 0.3099(10) 0.7859(10)
H19 H 0.2774 0.2891 0.7507
C35 C 0.0483(11) 0.4626(9) 0.8378(10)
C36 C 0.0968(12) 0.5169(9) 0.8385(11)
H20 H 0.1464 0.5166 0.8181
C37 C 0.0725(11) 0.5717(9) 0.8693(10)
C41 C 0.1783(14) 0.6374(11) 0.8283(11)
C42 C 0.2625(13) 0.6364(11) 0.8509(13)
H23 H 0.2822 0.6273 0.8979
C43 C 0.3197(13) 0.6484(10) 0.8057(11)
H24 H 0.3776 0.6494 0.8226
C44 C 0.2921(12) 0.6593(9) 0.7346(11)
C45 C 0.3564(13) 0.6711(10) 0.6877(11)
C46 C 0.2050(13) 0.6608(12) 0.7098(12)
H25 H 0.1848 0.6677 0.6625
C47 C 0.1491(13) 0.6516(11) 0.7590(13)
H26 H 0.0908 0.6551 0.7444
O3 O 0.6251(10) 0.8133(7) 0.9356(8)
O6 O 0.4102(7) 0.2586(7) 0.9364(7)
O7 O 0.4164(7) 0.2531(7) 0.8205(7)
O8 O 0.3334(8) 0.6705(7) 0.6220(7)
O13 O 0.0656(8) 0.4047(7) 0.8029(8)
O15 O 0.1184(9) 0.6305(7) 0.8730(8)
O16 O 0.4321(8) 0.6840(6) 0.7113(7)
O18 O 0.5976(9) 0.8407(7) 0.8233(8)
C55 C 0.514(3) 0.0457(16) 0.872(2)
H31 H 0.5682 0.0333 0.8989
H32 H 0.5231 0.0555 0.8243
C57 C 0.397(3) 0.0087(17) 0.925(2)
H35 H 0.3377 0.0117 0.9049
C58 C 0.436(2) 0.0789(16) 0.9500(19)
H37 H 0.4722 0.0743 0.9948
H38 H 0.3893 0.1081 0.9568
Cd3 Cd 0.53472(8) 0.20763(7) 0.90241(8)
O20 O 0.4791(12) 0.1044(9) 0.9043(11)
O21 O 0.5777(7) 0.6823(6) 0.8334(7)
O26 O 0.5836(7) 0.7531(7) 0.6795(7)
O27 O 0.6666(8) 0.1705(7) 0.8780(7)
O28 O 0.5864(10) 0.3113(6) 0.9004(8)
O29 O 0.5679(8) 0.1840(6) 0.7887(7)
O32 O 0.4145(9) 0.8361(7) 0.7143(7)
Cd12 Cd 0.46528(8) 0.70763(7) 0.59759(8)
C38 C 0.9998(11) 0.5740(9) 0.8997(10)
H21 H 0.9842 0.6122 0.9210
C39 C 0.9502(11) 0.5185(10) 0.8979(10)
C40 C 0.9737(12) 0.4607(9) 0.8676(11)
H22 H 0.9412 0.4229 0.8673
C48 C 0.8154(12) 0.4783(11) 0.9145(12)
C49 C 0.7921(13) 0.4346(12) 0.9594(13)
C50 C 0.7257(13) 0.3925(11) 0.9390(12)
H28 H 0.7095 0.3636 0.9720
C51 C 0.6820(11) 0.3913(9) 0.8714(9)
C52 C 0.7044(12) 0.4359(9) 0.8242(10)
H29 H 0.6753 0.4366 0.7786
C53 C 0.7703(13) 0.4803(10) 0.8438(11)
H30 H 0.7849 0.5108 0.8117
C54 C 0.6117(12) 0.3420(9) 0.8490(13)
O14 O 0.8798(9) 0.5232(7) 0.9326(8)
O19 O 0.5855(9) 0.3361(7) 0.7857(7)
C40_2 C 0.0263(12) 0.9607(9) 0.6324(11)
H22_2 H 0.0588 0.9229 0.6327
C48_2 C 0.1846(12) 0.9783(11) 0.5855(12)
C49_2 C 0.2079(13) 0.9346(12) 0.5406(13)
H27 H 0.1789 0.9326 0.4949
C50_2 C 0.2743(13) 0.8925(11) 0.5610(12)
H28_2 H 0.2905 0.8636 0.5280
C51_2 C 0.3180(11) 0.8913(9) 0.6286(9)
C52_2 C 0.2956(12) 0.9359(9) 0.6758(10)
H29_2 H 0.3247 0.9366 0.7214
C53_2 C 0.2297(13) 0.9803(10) 0.6562(11)
C54_2 C 0.3883(12) 0.8420(9) 0.6510(13)
O9 O 0.4136(10) 0.8113(6) 0.5996(8)
H5 H 0.0125 0.6297 0.6048
C10 C 0.0408(11) 0.5335(9) 0.6053(10)
C11_2 C 0.0151(12) 0.4707(10) 0.6233(11)
H6_2 H 0.0448 0.4334 0.6135
C14_2 C 0.1739(12) 0.4950(10) 0.5815(12)
C15_2 C 0.1854(14) 0.4533(11) 0.5310(14)
H8_2 H 0.1504 0.4564 0.4879
C16_2 C 0.2466(14) 0.4062(11) 0.5398(12)
H9_2 H 0.2538 0.3781 0.5030
C17_2 C 0.2980(13) 0.4005(9) 0.6043(13)
C18_2 C 0.3639(11) 0.3483(10) 0.6137(10)
C19_2 C 0.2884(13) 0.4437(10) 0.6571(12)
H10_2 H 0.3242 0.4409 0.6998
C20_2 C 0.2254(12) 0.4916(10) 0.6473(11)
H11 H 0.2177 0.5205 0.6832
C36_2 C 0.9032(12) 0.0169(9) 0.6615(11)
H20_2 H 0.8536 0.0166 0.6819
C37_2 C 0.9275(11) 0.0717(9) 0.6307(10)
C41_2 C 0.8217(14) 0.1374(11) 0.6717(11)
C42_2 C 0.7375(13) 0.1364(11) 0.6491(13)
H23_2 H 0.7178 0.1273 0.6021
C43_2 C 0.6803(13) 0.1484(10) 0.6943(11)
H24_2 H 0.6224 0.1494 0.6774
C44_2 C 0.7079(12) 0.1593(9) 0.7654(11)
C45_2 C 0.6436(13) 0.1711(10) 0.8123(11)
C46_2 C 0.7950(13) 0.1608(12) 0.7902(12)
H25_2 H 0.8152 0.1677 0.8375
C47_2 C 0.8509(13) 0.1516(11) 0.7410(13)
H26_2 H 0.9092 0.1551 0.7556
O11 O 0.1108(8) 0.5430(7) 0.5716(8)
O15_2 O 0.8816(9) 0.1305(7) 0.6270(8)
O18_2 O 0.4024(9) 0.3407(7) 0.6767(8)
C28_2 C 0.6236(11) 0.7709(8) 0.6309(9)
C29_2 C 0.7060(11) 0.8065(9) 0.6460(11)
C30_2 C 0.7410(12) 0.8383(10) 0.5922(11)
H16_2 H 0.7133 0.8357 0.5462
C31_2 C 0.8157(12) 0.8733(11) 0.6066(13)
H17_2 H 0.8390 0.8948 0.5713
C32_2 C 0.8552(11) 0.8751(9) 0.6774(11)
C33_2 C 0.8223(11) 0.8426(9) 0.7320(10)
H18_2 H 0.8503 0.8433 0.7780
C34_2 C 0.7470(12) 0.8099(10) 0.7141(10)
H19_2 H 0.7226 0.7891 0.7493
C35_2 C 0.9517(11) 0.9626(9) 0.6622(10)
O6_2 O 0.5898(7) 0.7586(7) 0.5636(7)
O13_2 O 0.9344(8) 0.9047(7) 0.6971(8)
C55_2 C 0.486(3) 0.5457(16) 0.628(2)
H31_2 H 0.4318 0.5333 0.6011
H32_2 H 0.4769 0.5555 0.6757
C56 C 0.548(3) 0.4913(17) 0.628(2)
H33 H 0.5193 0.4502 0.6162
H34 H 0.5825 0.4870 0.6741
C57_2 C 0.603(3) 0.5087(17) 0.575(2)
H35_2 H 0.6623 0.5117 0.5951
H36 H 0.5967 0.4776 0.5362
C58_2 C 0.564(2) 0.5789(16) 0.5500(19)
H37_2 H 0.5278 0.5743 0.5052
H38_2 H 0.6107 0.6081 0.5432
O20_2 O 0.5209(12) 0.6044(9) 0.5957(11)
Cd6_2 Cd 0.55580(8) 0.77771(7) 0.44865(7)
O24_2 O 0.4318(8) 0.7064(6) 0.4741(7)
O25_2 O 0.5898(7) 0.7414(7) 0.0636(7)
H40_2 H 0.463553 0.65267 0.0330444
C1_2 C 0.6556(11) 0.6680(9) 0.8608(10)
C2_2 C 0.7152(11) 0.6540(9) 0.8075(10)
C3_2 C 0.6860(14) 0.6382(10) 0.7386(12)
H1_2 H 0.6280 0.6323 0.7240
C4_2 C 0.7434(17) 0.6310(11) 0.6912(13)
H2_2 H 0.7248 0.6202 0.6444
C5_2 C 0.8301(17) 0.6405(11) 0.7156(17)
C6_2 C 0.8572(16) 0.6560(13) 0.7824(14)
H3_2 H 0.9150 0.6632 0.7968
C7_2 C 0.8021(13) 0.6616(11) 0.8299(13)
H4_2 H 0.8222 0.6704 0.8768
C8_2 C 0.9237(13) 0.5812(10) 0.6498(11)
C9_2 C 0.9953(11) 0.5885(9) 0.6177(9)
C12_2 C 0.9431(11) 0.4672(9) 0.6563(10)
C13_2 C 0.8965(12) 0.5204(9) 0.6686(11)
H7_2 H 0.8473 0.5160 0.6892
C21_2 C 0.8406(12) 0.3814(9) 0.6531(11)
C22_2 C 0.8028(12) 0.3885(10) 0.5820(10)
H12_2 H 0.8304 0.4123 0.5508
C23_2 C 0.7231(12) 0.3592(10) 0.5587(11)
H13_2 H 0.6980 0.3637 0.5122
C24_2 C 0.6824(11) 0.3236(8) 0.6055(9)
C25_2 C 0.5988(13) 0.2921(10) 0.5816(11)
C26_2 C 0.7222(12) 0.3172(10) 0.6752(12)
H14_2 H 0.6945 0.2940 0.7068
C27_2 C 0.8023(12) 0.3446(10) 0.6987(12)
H15_2 H 0.8289 0.3378 0.7446
O2_2 O 0.6787(9) 0.6671(8) 0.9231(8)
O4_2 O 0.4770(12) 0.6419(8) 0.9855(10)
O10_2 O 0.8827(12) 0.6393(8) 0.6615(10)
O12_2 O 0.9210(8) 0.4052(7) 0.6766(8)
Cd13_2 Cd 0.53472(8) 0.29237(7) 0.40241(8)
H39_2 H 0.509301 0.600154 0.987534
C38_2 C 0.0002(11) 0.4260(9) 0.1003(10)
H21_2 H 0.0158 0.3878 0.0790
C39_2 C 0.0498(11) 0.4815(10) 0.1021(10)
C40_3 C 0.0263(12) 0.5393(9) 0.1324(11)
H22_3 H 0.0588 0.5771 0.1327
C48_3 C 0.1846(12) 0.5217(11) 0.0855(12)
C49_3 C 0.2079(13) 0.5654(12) 0.0406(13)
C50_3 C 0.2743(13) 0.6075(11) 0.0610(12)
H28_3 H 0.2905 0.6364 0.0280
C51_3 C 0.3180(11) 0.6087(9) 0.1286(9)
C52_3 C 0.2956(12) 0.5641(9) 0.1758(10)
H29_3 H 0.3247 0.5634 0.2214
C53_3 C 0.2297(13) 0.5197(10) 0.1562(11)
H30_2 H 0.2151 0.4892 0.1883
C54_3 C 0.3883(12) 0.6580(9) 0.1510(13)
O9_2 O 0.4136(10) 0.6887(6) 0.0996(8)
O14_2 O 0.1202(9) 0.4768(7) 0.0674(8)
O19_2 O 0.4145(9) 0.6639(7) 0.2143(7)
Cd8 Cd 0.50818(8) 0.73255(7) 0.27195(8)
C11_3 C 0.0151(12) 0.0293(10) 0.1233(11)
H6_3 H 0.0448 0.0666 0.1135
C14_3 C 0.1739(12) 0.0050(10) 0.0815(12)
C15_3 C 0.1854(14) 0.0467(11) 0.0310(14)
C16_3 C 0.2466(14) 0.0938(11) 0.0398(12)
H9_3 H 0.2538 0.1219 0.0030
C17_3 C 0.2980(13) 0.0995(9) 0.1043(13)
C18_3 C 0.3639(11) 0.1517(10) 0.1137(10)
C19_3 C 0.2884(13) 0.0563(10) 0.1571(12)
H10_3 H 0.3242 0.0591 0.1998
C20_3 C 0.2254(12) 0.0084(10) 0.1473(11)
C28_3 C 0.6236(11) 0.7291(8) 0.1309(9)
C29_3 C 0.7060(11) 0.6935(9) 0.1460(11)
C30_3 C 0.7410(12) 0.6617(10) 0.0922(11)
H16_3 H 0.7133 0.6643 0.0462
C31_3 C 0.8157(12) 0.6267(11) 0.1066(13)
H17_3 H 0.8390 0.6052 0.0713
C32_3 C 0.8552(11) 0.6249(9) 0.1774(11)
C33_3 C 0.8223(11) 0.6574(9) 0.2320(10)
H18_3 H 0.8503 0.6567 0.2780
C34_3 C 0.7470(12) 0.6901(10) 0.2141(10)
H19_3 H 0.7226 0.7109 0.2493
C35_3 C 0.9517(11) 0.5374(9) 0.1622(10)
C36_3 C 0.9032(12) 0.4831(9) 0.1615(11)
H20_3 H 0.8536 0.4834 0.1819
C37_3 C 0.9275(11) 0.4283(9) 0.1307(10)
C41_3 C 0.8217(14) 0.3626(11) 0.1717(11)
C42_3 C 0.7375(13) 0.3636(11) 0.1491(13)
H23_3 H 0.7178 0.3727 0.1021
C43_3 C 0.6803(13) 0.3516(10) 0.1943(11)
H24_3 H 0.6224 0.3506 0.1774
C44_3 C 0.7079(12) 0.3407(9) 0.2654(11)
C45_3 C 0.6436(13) 0.3289(10) 0.3123(11)
C46_3 C 0.7950(13) 0.3392(12) 0.2902(12)
H25_3 H 0.8152 0.3323 0.3375
C47_3 C 0.8509(13) 0.3484(11) 0.2410(13)
H26_3 H 0.9092 0.3449 0.2556
Cd2 Cd 0.49182(8) 0.23255(7) 0.22805(8)
O3_2 O 0.3749(10) 0.1867(7) 0.0644(8)
O7_2 O 0.5836(7) 0.7469(7) 0.1795(7)
O8_2 O 0.6666(8) 0.3295(7) 0.3780(7)
O13_3 O 0.9344(8) 0.5953(7) 0.1971(8)
O15_3 O 0.8816(9) 0.3695(7) 0.1270(8)
O16_2 O 0.5679(8) 0.3160(6) 0.2887(7)
O18_3 O 0.4024(9) 0.1593(7) 0.1767(8)
C55_3 C 0.486(3) 0.9543(16) 0.128(2)
H31_3 H 0.4318 0.9667 0.1011
H32_3 H 0.4769 0.9445 0.1757
C57_3 C 0.603(3) 0.9913(17) 0.075(2)
H35_3 H 0.6623 0.9883 0.0951
C58_3 C 0.564(2) 0.9211(16) 0.0500(19)
H37_3 H 0.5278 0.9257 0.0052
H38_3 H 0.6107 0.8919 0.0432
O20_3 O 0.5209(12) 0.8956(9) 0.0957(11)
O21_2 O 0.4223(7) 0.3177(6) 0.1666(7)
O26_2 O 0.4164(7) 0.2469(7) 0.3205(7)
O27_2 O 0.3334(8) 0.8295(7) 0.1220(7)
O29_2 O 0.4321(8) 0.8160(6) 0.2113(7)
O30 O 0.5625(8) 0.2370(6) 0.1307(7)
O32_2 O 0.5855(9) 0.1639(7) 0.2857(7)
H8_3 H 0.1504 0.0436 0.9879
C12_3 C 0.9431(11) 0.0328(9) 0.1563(10)
C21_3 C 0.8406(12) 0.1186(9) 0.1531(11)
C22_3 C 0.8028(12) 0.1115(10) 0.0820(10)
H12_3 H 0.8304 0.0877 0.0508
C23_3 C 0.7231(12) 0.1408(10) 0.0587(11)
H13_3 H 0.6980 0.1363 0.0122
C24_3 C 0.6824(11) 0.1764(8) 0.1055(9)
C25_3 C 0.5988(13) 0.2079(10) 0.0816(11)
C26_3 C 0.7222(12) 0.1828(10) 0.1752(12)
H14_3 H 0.6945 0.2060 0.2068
C27_3 C 0.8023(12) 0.1554(10) 0.1987(12)
H15_3 H 0.8289 0.1622 0.2446
O12_3 O 0.9210(8) 0.0948(7) 0.1766(8)
C1_3 C 0.6556(11) 0.8320(9) 0.3608(10)
C2_3 C 0.7152(11) 0.8460(9) 0.3075(10)
C3_3 C 0.6860(14) 0.8618(10) 0.2386(12)
H1_3 H 0.6280 0.8677 0.2240
C4_3 C 0.7434(17) 0.8690(11) 0.1912(13)
H2_3 H 0.7248 0.8798 0.1444
C5_3 C 0.8301(17) 0.8595(11) 0.2156(17)
C6_3 C 0.8572(16) 0.8440(13) 0.2824(14)
H3_3 H 0.9150 0.8368 0.2968
C7_3 C 0.8021(13) 0.8384(11) 0.3299(13)
H4_3 H 0.8222 0.8296 0.3768
C8_3 C 0.9237(13) 0.9188(10) 0.1498(11)
C9_3 C 0.9953(11) 0.9115(9) 0.1177(9)
C13_3 C 0.8965(12) 0.9796(9) 0.1686(11)
H7_3 H 0.8473 0.9840 0.1892
O1_2 O 0.5777(7) 0.8177(6) 0.3334(7)
O2_3 O 0.6787(9) 0.8329(8) 0.4231(8)
O4_3 O 0.4770(12) 0.8581(8) 0.4855(10)
O10_3 O 0.8827(12) 0.8607(8) 0.1615(10)
O22_2 O 0.6251(10) 0.6867(7) 0.4356(8)
O31_2 O 0.4375(8) 0.7370(6) 0.3693(7)
H39_3 H 0.509301 0.899846 0.487534
H40_3 H 0.463553 0.84733 0.533044
C1_4 C 0.3444(11) 0.3320(9) 0.1392(10)
C2_4 C 0.2848(11) 0.3460(9) 0.1925(10)
C3_4 C 0.3140(14) 0.3618(10) 0.2614(12)
H1_4 H 0.3720 0.3677 0.2760
C4_4 C 0.2566(17) 0.3690(11) 0.3088(13)
H2_4 H 0.2752 0.3798 0.3556
C5_4 C 0.1699(17) 0.3595(11) 0.2844(17)
C6_4 C 0.1428(16) 0.3440(13) 0.2176(14)
H3_4 H 0.0850 0.3368 0.2032
C7_4 C 0.1979(13) 0.3384(11) 0.1701(13)
H4_4 H 0.1778 0.3296 0.1232
C8_4 C 0.0763(13) 0.4188(10) 0.3502(11)
C9_4 C 0.0047(11) 0.4115(9) 0.3823(9)
C12_4 C 0.0569(11) 0.5328(9) 0.3437(10)
C13_4 C 0.1035(12) 0.4796(9) 0.3314(11)
H7_4 H 0.1527 0.4840 0.3108
C21_4 C 0.1594(12) 0.6186(9) 0.3469(11)
C22_4 C 0.1972(12) 0.6115(10) 0.4180(10)
H12_4 H 0.1696 0.5877 0.4492
C23_4 C 0.2769(12) 0.6408(10) 0.4413(11)
H13_4 H 0.3020 0.6363 0.4878
C24_4 C 0.3176(11) 0.6764(8) 0.3945(9)
C25_4 C 0.4012(13) 0.7079(10) 0.4184(11)
C26_4 C 0.2778(12) 0.6828(10) 0.3248(12)
H14_4 H 0.3055 0.7060 0.2932
C27_4 C 0.1977(12) 0.6554(10) 0.3013(12)
H15_4 H 0.1711 0.6622 0.2554
O2_4 O 0.3213(9) 0.3329(8) 0.0769(8)
O4_4 O 0.5230(12) 0.3581(8) 0.0145(10)
O10_4 O 0.1173(12) 0.3607(8) 0.3385(10)
O12_4 O 0.0790(8) 0.5948(7) 0.3234(8)
H39_4 H 0.490699 0.399846 0.0124664
H40_4 H 0.536447 0.34733 0.966956
C28_4 C 0.3764(11) 0.2291(8) 0.3691(9)
C29_4 C 0.2940(11) 0.1935(9) 0.3540(11)
C30_4 C 0.2590(12) 0.1617(10) 0.4078(11)
H16_4 H 0.2867 0.1643 0.4538
C31_4 C 0.1843(12) 0.1267(11) 0.3934(13)
H17_4 H 0.1610 0.1052 0.4287
C32_4 C 0.1448(11) 0.1249(9) 0.3226(11)
C33_4 C 0.1777(11) 0.1574(9) 0.2680(10)
H18_4 H 0.1497 0.1567 0.2220
C34_4 C 0.2530(12) 0.1901(10) 0.2859(10)
H19_4 H 0.2774 0.2109 0.2507
C35_4 C 0.0483(11) 0.0374(9) 0.3378(10)
O13_4 O 0.0656(8) 0.0953(7) 0.3029(8)
C55_4 C 0.514(3) 0.4543(16) 0.372(2)
H31_4 H 0.5682 0.4667 0.3989
H32_4 H 0.5231 0.4445 0.3243
C56_2 C 0.452(3) 0.5087(17) 0.372(2)
H33_2 H 0.4807 0.5498 0.3838
H34_2 H 0.4175 0.5130 0.3259
C57_4 C 0.397(3) 0.4913(17) 0.425(2)
H35_4 H 0.3377 0.4883 0.4049
H36_2 H 0.4033 0.5224 0.4638
C58_4 C 0.436(2) 0.4211(16) 0.4500(19)
H37_4 H 0.4722 0.4257 0.4948
H38_4 H 0.3893 0.3919 0.4568
O20_4 O 0.4791(12) 0.3956(9) 0.4043(11)
O28_2 O 0.5864(10) 0.1887(6) 0.4004(8)
H5_2 H 0.9875 0.3703 0.3952
C10_2 C 0.9592(11) 0.4665(9) 0.3947(10)
C11_4 C 0.9849(12) 0.5293(10) 0.3767(11)
H6_4 H 0.9552 0.5666 0.3865
C14_4 C 0.8261(12) 0.5050(10) 0.4185(12)
C15_4 C 0.8146(14) 0.5467(11) 0.4690(14)
H8_4 H 0.8496 0.5436 0.5121
C16_4 C 0.7534(14) 0.5938(11) 0.4602(12)
H9_4 H 0.7462 0.6219 0.4970
C17_4 C 0.7020(13) 0.5995(9) 0.3957(13)
C18_4 C 0.6361(11) 0.6517(10) 0.3863(10)
C19_4 C 0.7116(13) 0.5563(10) 0.3429(12)
H10_4 H 0.6758 0.5591 0.3002
C20_4 C 0.7746(12) 0.5084(10) 0.3527(11)
H11_2 H 0.7823 0.4795 0.3168
C36_4 C 0.0968(12) 0.9831(9) 0.3385(11)
H20_4 H 0.1464 0.9834 0.3181
C37_4 C 0.0725(11) 0.9283(9) 0.3693(10)
C41_4 C 0.1783(14) 0.8626(11) 0.3283(11)
C42_4 C 0.2625(13) 0.8636(11) 0.3509(13)
H23_4 H 0.2822 0.8727 0.3979
C43_4 C 0.3197(13) 0.8516(10) 0.3057(11)
H24_4 H 0.3776 0.8506 0.3226
C44_4 C 0.2921(12) 0.8407(9) 0.2346(11)
C45_4 C 0.3564(13) 0.8289(10) 0.1877(11)
C46_4 C 0.2050(13) 0.8392(12) 0.2098(12)
H25_4 H 0.1848 0.8323 0.1625
C47_4 C 0.1491(13) 0.8484(11) 0.2590(13)
H26_4 H 0.0908 0.8449 0.2444
O11_2 O 0.8892(8) 0.4570(7) 0.4284(8)
O15_4 O 0.1184(9) 0.8695(7) 0.3730(8)
O18_4 O 0.5976(9) 0.6593(7) 0.3233(8)
C40_4 C 0.9737(12) 0.0393(9) 0.3676(11)
H22_4 H 0.9412 0.0771 0.3673
C48_4 C 0.8154(12) 0.0217(11) 0.4145(12)
C49_4 C 0.7921(13) 0.0654(12) 0.4594(13)
H27_2 H 0.8211 0.0674 0.5051
C50_4 C 0.7257(13) 0.1075(11) 0.4390(12)
H28_4 H 0.7095 0.1364 0.4720
C51_4 C 0.6820(11) 0.1087(9) 0.3714(9)
C52_4 C 0.7044(12) 0.0641(9) 0.3242(10)
H29_4 H 0.6753 0.0634 0.2786
C53_4 C 0.7703(13) 0.0197(10) 0.3438(11)
C54_4 C 0.6117(12) 0.1580(9) 0.3490(13)
H5_3 H 0.9875 0.1297 0.8952
C10_3 C 0.9592(11) 0.0335(9) 0.8947(10)
H11_3 H 0.7823 0.0205 0.8168
O11_3 O 0.8892(8) 0.0430(7) 0.9284(8)
C56_3 C 0.452(3) 0.9913(17) 0.872(2)
H33_3 H 0.4807 0.9502 0.8838
H34_3 H 0.4175 0.9870 0.8259
H36_3 H 0.4033 0.9776 0.9638
H27_3 H 0.8211 0.4326 0.0051
C38_3 C 0.0002(11) 0.0740(9) 0.6003(10)
H21_3 H 0.0158 0.1122 0.5790
C39_3 C 0.0498(11) 0.0185(10) 0.6021(10)
H30_3 H 0.2151 0.0108 0.6883
O14_3 O 0.1202(9) 0.0232(7) 0.5674(8)
H27_4 H 0.1789 0.5674 0.9949
C56_4 C 0.548(3) 0.0087(17) 0.128(2)
H33_4 H 0.5193 0.0498 0.1162
H34_4 H 0.5825 0.0130 0.1741
H36_4 H 0.5967 0.0224 0.0362
H5_4 H 0.0125 0.8703 0.1048
C10_4 C 0.0408(11) 0.9665(9) 0.1053(10)
H11_4 H 0.2177 0.9795 0.1832
O11_4 O 0.1108(8) 0.9570(7) 0.0716(8)
C38_4 C 0.9998(11) 0.9260(9) 0.3997(10)
H21_4 H 0.9842 0.8878 0.4210
C39_4 C 0.9502(11) 0.9815(10) 0.3979(10)
H30_4 H 0.7849 0.9892 0.3117
O14_4 O 0.8798(9) 0.9768(7) 0.4326(8)
loop_
_geom_bond_atom_site_label_1
_geom_bond_atom_site_label_2
_geom_bond_site_symmetry_1
_geom_bond_site_symmetry_2
C1 C2 1_555 1_555
C2 C3 1_555 1_555
C3 H1 1_555 1_555
C4 C3 1_555 1_555
H2 C4 1_555 1_555
C5 C4 1_555 1_555
C6 C5 1_555 1_555
H3 C6 1_555 1_555
C7 C2 1_555 1_555
H4 C7 1_555 1_555
C8 C9 1_555 1_555
C13 C8 1_555 1_555
H7 C13 1_555 1_555
Cd1 O1 1_555 1_555
O1 C1 1_555 1_555
O2 C1 1_555 1_555
O4 Cd1 1_555 1_555
O10 C5 1_555 1_555
Cd10 O1 1_555 1_555
O22 Cd1 1_555 1_555
O23 Cd1 1_555 1_555
O25 Cd1 1_555 1_555
O31 Cd1 1_555 1_555
C6 C7 1_555 1_555
C8 O10 1_555 1_555
Cd1 O2 1_555 1_555
Cd10 O31 1_555 1_555
O4 H39 1_555 1_555
O4 H40 1_555 1_555
C21 C22 1_555 1_555
C22 H12 1_555 1_555
C23 C22 1_555 1_555
H13 C23 1_555 1_555
C24 C23 1_555 1_555
C25 C24 1_555 1_555
C26 C24 1_555 1_555
H14 C26 1_555 1_555
C27 C21 1_555 1_555
H15 C27 1_555 1_555
O5 C25 1_555 1_555
O12 C12 1_555 1_555
O17 C25 1_555 1_555
Cd5 O5 1_555 1_555
Cd7 O17 1_555 1_555
C21 O12 1_555 1_555
C26 C27 1_555 1_555
O17 Cd5 1_555 1_555
Cd6 O24 1_555 1_555
H6 C11 1_555 1_555
C14 C15 1_555 1_555
C16 C15 1_555 1_555
H9 C16 1_555 1_555
C17 C16 1_555 1_555
C18 C17 1_555 1_555
C19 C17 1_555 1_555
H10 C19 1_555 1_555
C20 C14 1_555 1_555
C28 C29 1_555 1_555
C29 C30 1_555 1_555
C30 H16 1_555 1_555
C31 C30 1_555 1_555
H17 C31 1_555 1_555
C32 C31 1_555 1_555
C33 C32 1_555 1_555
H18 C33 1_555 1_555
C34 C29 1_555 1_555
H19 C34 1_555 1_555
C35 C36 1_555 1_555
C36 H20 1_555 1_555
C37 C36 1_555 1_555
C41 C42 1_555 1_555
C42 H23 1_555 1_555
C43 C42 1_555 1_555
H24 C43 1_555 1_555
C44 C43 1_555 1_555
C45 C44 1_555 1_555
C46 C44 1_555 1_555
H25 C46 1_555 1_555
C47 C41 1_555 1_555
H26 C47 1_555 1_555
Cd7 O16 1_555 1_555
O3 C18 1_555 1_555
O6 C28 1_555 1_555
O7 C28 1_555 1_555
O8 C45 1_555 1_555
O13 C32 1_555 1_555
O15 C37 1_555 1_555
O16 C45 1_555 1_555
O18 C18 1_555 1_555
C55 H31 1_555 1_555
H32 C55 1_555 1_555
H35 C57 1_555 1_555
C58 C57 1_555 1_555
H37 C58 1_555 1_555
H38 C58 1_555 1_555
Cd3 O6 1_555 1_555
O20 C55 1_555 1_555
Cd5 O3 1_555 1_555
Cd10 O7 1_555 1_555
O21 Cd7 1_555 1_555
O26 Cd7 1_555 1_555
O27 Cd3 1_555 1_555
O28 Cd3 1_555 1_555
O29 Cd3 1_555 1_555
O32 Cd7 1_555 1_555
Cd12 O8 1_555 1_555
C19 C20 1_555 1_555
C33 C34 1_555 1_555
C35 O13 1_555 1_555
C41 O15 1_555 1_555
C46 C47 1_555 1_555
Cd7 O18 1_555 1_555
O7 Cd3 1_555 1_555
O16 Cd12 1_555 1_555
C58 O20 1_555 1_555
Cd3 O20 1_555 1_555
Cd5 O21 1_555 1_555
Cd10 O29 1_555 1_555
O26 Cd12 1_555 1_555
H21 C38 1_555 1_555
C39 C38 1_555 1_555
H22 C40 1_555 1_555
C48 C49 1_555 1_555
C50 C49 1_555 1_555
H28 C50 1_555 1_555
C51 C50 1_555 1_555
C52 C51 1_555 1_555
H29 C52 1_555 1_555
C53 C48 1_555 1_555
H30 C53 1_555 1_555
C54 C51 1_555 1_555
O28 C54 1_555 1_555
O14 C39 1_555 1_555
O19 C54 1_555 1_555
Cd10 O19 1_555 1_555
C39 C40 1_555 1_555
C48 O14 1_555 1_555
C52 C53 1_555 1_555
H22_2 C40_2 1_555 1_555
C48_2 C49_2 1_555 1_555
C49_2 H27 1_555 1_555
C50_2 C49_2 1_555 1_555
H28_2 C50_2 1_555 1_555
C51_2 C50_2 1_555 1_555
C52_2 C51_2 1_555 1_555
H29_2 C52_2 1_555 1_555
C53_2 C48_2 1_555 1_555
C54_2 C51_2 1_555 1_555
O9 C54_2 1_555 1_555
O32 C54_2 1_555 1_555
Cd12 O9 1_555 1_555
C52_2 C53_2 1_555 1_555
C11_2 C10 1_555 1_555
H6_2 C11_2 1_555 1_555
C14_2 C15_2 1_555 1_555
C15_2 H8_2 1_555 1_555
C16_2 C15_2 1_555 1_555
H9_2 C16_2 1_555 1_555
C17_2 C16_2 1_555 1_555
C18_2 C17_2 1_555 1_555
C19_2 C17_2 1_555 1_555
H10_2 C19_2 1_555 1_555
C20_2 C14_2 1_555 1_555
H11 C20_2 1_555 1_555
C36_2 H20_2 1_555 1_555
C37_2 C36_2 1_555 1_555
C41_2 C42_2 1_555 1_555
C42_2 H23_2 1_555 1_555
C43_2 C42_2 1_555 1_555
H24_2 C43_2 1_555 1_555
C44_2 C43_2 1_555 1_555
C45_2 C44_2 1_555 1_555
C46_2 C44_2 1_555 1_555
H25_2 C46_2 1_555 1_555
C47_2 C41_2 1_555 1_555
H26_2 C47_2 1_555 1_555
O22 C18_2 1_555 1_555
O27 C45_2 1_555 1_555
O11 C10 1_555 1_555
O15_2 C37_2 1_555 1_555
O29 C45_2 1_555 1_555
O18_2 C18_2 1_555 1_555
C14_2 O11 1_555 1_555
C19_2 C20_2 1_555 1_555
C41_2 O15_2 1_555 1_555
C46_2 C47_2 1_555 1_555
Cd10 O18_2 1_555 1_555
C28_2 C29_2 1_555 1_555
C29_2 C30_2 1_555 1_555
C30_2 H16_2 1_555 1_555
C31_2 C30_2 1_555 1_555
H17_2 C31_2 1_555 1_555
C32_2 C31_2 1_555 1_555
C33_2 C32_2 1_555 1_555
H18_2 C33_2 1_555 1_555
C34_2 C29_2 1_555 1_555
H19_2 C34_2 1_555 1_555
O6_2 C28_2 1_555 1_555
O26 C28_2 1_555 1_555
O13_2 C32_2 1_555 1_555
C55_2 H31_2 1_555 1_555
H32_2 C55_2 1_555 1_555
C56 C55_2 1_555 1_555
H33 C56 1_555 1_555
H34 C56 1_555 1_555
C57_2 C56 1_555 1_555
H35_2 C57_2 1_555 1_555
H36 C57_2 1_555 1_555
C58_2 C57_2 1_555 1_555
H37_2 C58_2 1_555 1_555
H38_2 C58_2 1_555 1_555
Cd12 O6_2 1_555 1_555
O20_2 C55_2 1_555 1_555
Cd6_2 O6_2 1_555 1_555
O24_2 Cd12 1_555 1_555
C33_2 C34_2 1_555 1_555
C35_2 O13_2 1_555 1_555
C58_2 O20_2 1_555 1_555
Cd12 O20_2 1_555 1_555
Cd6_2 O24_2 1_555 1_555
C1_2 C2_2 1_555 1_555
C2_2 C3_2 1_555 1_555
C3_2 H1_2 1_555 1_555
C4_2 C3_2 1_555 1_555
H2_2 C4_2 1_555 1_555
C5_2 C4_2 1_555 1_555
C6_2 C5_2 1_555 1_555
H3_2 C6_2 1_555 1_555
C7_2 C2_2 1_555 1_555
H4_2 C7_2 1_555 1_555
C8_2 C9_2 1_555 1_555
C13_2 C8_2 1_555 1_555
H7_2 C13_2 1_555 1_555
C21_2 C22_2 1_555 1_555
C22_2 H12_2 1_555 1_555
C23_2 C22_2 1_555 1_555
H13_2 C23_2 1_555 1_555
C24_2 C23_2 1_555 1_555
C25_2 C24_2 1_555 1_555
C26_2 C24_2 1_555 1_555
H14_2 C26_2 1_555 1_555
C27_2 C21_2 1_555 1_555
H15_2 C27_2 1_555 1_555
O21 C1_2 1_555 1_555
O2_2 C1_2 1_555 1_555
O4_2 Cd5 1_555 1_555
O23 C25_2 1_555 1_555
O10_2 C5_2 1_555 1_555
O12_2 C12_2 1_555 1_555
O31 C25_2 1_555 1_555
Cd13_2 O23 1_555 1_555
C6_2 C7_2 1_555 1_555
C8_2 O10_2 1_555 1_555
C12_2 C13_2 1_555 1_555
C21_2 O12_2 1_555 1_555
C26_2 C27_2 1_555 1_555
Cd5 O2_2 1_555 1_555
O4_2 H39_2 1_555 1_555
H21_2 C38_2 1_555 1_555
C39_2 C38_2 1_555 1_555
H22_3 C40_3 1_555 1_555
C48_3 C49_3 1_555 1_555
C50_3 C49_3 1_555 1_555
H28_3 C50_3 1_555 1_555
C51_3 C50_3 1_555 1_555
C52_3 C51_3 1_555 1_555
H29_3 C52_3 1_555 1_555
C53_3 C48_3 1_555 1_555
H30_2 C53_3 1_555 1_555
C54_3 C51_3 1_555 1_555
O9_2 C54_3 1_555 1_555
O14_2 C39_2 1_555 1_555
O19_2 C54_3 1_555 1_555
Cd8 O19_2 1_555 1_555
Cd13 O9_2 1_555 1_555
C39_2 C40_3 1_555 1_555
C48_3 O14_2 1_555 1_555
C52_3 C53_3 1_555 1_555
H6_3 C11_3 1_555 1_555
C14_3 C15_3 1_555 1_555
C16_3 C15_3 1_555 1_555
H9_3 C16_3 1_555 1_555
C17_3 C16_3 1_555 1_555
C18_3 C17_3 1_555 1_555
C19_3 C17_3 1_555 1_555
H10_3 C19_3 1_555 1_555
C20_3 C14_3 1_555 1_555
C28_3 C29_3 1_555 1_555
C29_3 C30_3 1_555 1_555
C30_3 H16_3 1_555 1_555
C31_3 C30_3 1_555 1_555
H17_3 C31_3 1_555 1_555
C32_3 C31_3 1_555 1_555
C33_3 C32_3 1_555 1_555
H18_3 C33_3 1_555 1_555
C34_3 C29_3 1_555 1_555
H19_3 C34_3 1_555 1_555
C35_3 C36_3 1_555 1_555
C36_3 H20_3 1_555 1_555
C37_3 C36_3 1_555 1_555
C41_3 C42_3 1_555 1_555
C42_3 H23_3 1_555 1_555
C43_3 C42_3 1_555 1_555
H24_3 C43_3 1_555 1_555
C44_3 C43_3 1_555 1_555
C45_3 C44_3 1_555 1_555
C46_3 C44_3 1_555 1_555
H25_3 C46_3 1_555 1_555
C47_3 C41_3 1_555 1_555
H26_3 C47_3 1_555 1_555
Cd2 O16_2 1_555 1_555
O3_2 C18_3 1_555 1_555
O25_2 C28_3 1_555 1_555
O7_2 C28_3 1_555 1_555
O8_2 C45_3 1_555 1_555
O13_3 C32_3 1_555 1_555
O15_3 C37_3 1_555 1_555
O16_2 C45_3 1_555 1_555
O18_3 C18_3 1_555 1_555
C55_3 H31_3 1_555 1_555
H32_3 C55_3 1_555 1_555
H35_3 C57_3 1_555 1_555
C58_3 C57_3 1_555 1_555
H37_3 C58_3 1_555 1_555
H38_3 C58_3 1_555 1_555
Cd13 O25_2 1_555 1_555
O20_3 C55_3 1_555 1_555
Cd6 O3_2 1_555 1_555
Cd8 O7_2 1_555 1_555
O21_2 Cd2 1_555 1_555
O26_2 Cd2 1_555 1_555
O27_2 Cd13 1_555 1_555
O29_2 Cd13 1_555 1_555
O30 Cd2 1_555 1_555
O32_2 Cd2 1_555 1_555
Cd13_2 O8_2 1_555 1_555
C19_3 C20_3 1_555 1_555
C33_3 C34_3 1_555 1_555
C35_3 O13_3 1_555 1_555
C41_3 O15_3 1_555 1_555
C46_3 C47_3 1_555 1_555
Cd2 O18_3 1_555 1_555
O7_2 Cd13 1_555 1_555
O16_2 Cd13_2 1_555 1_555
C58_3 O20_3 1_555 1_555
Cd13 O20_3 1_555 1_555
Cd6 O21_2 1_555 1_555
Cd6 O30 1_555 1_555
Cd8 O29_2 1_555 1_555
O26_2 Cd13_2 1_555 1_555
C21_3 C22_3 1_555 1_555
C22_3 H12_3 1_555 1_555
C23_3 C22_3 1_555 1_555
H13_3 C23_3 1_555 1_555
C24_3 C23_3 1_555 1_555
C25_3 C24_3 1_555 1_555
C26_3 C24_3 1_555 1_555
H14_3 C26_3 1_555 1_555
C27_3 C21_3 1_555 1_555
H15_3 C27_3 1_555 1_555
O24 C25_3 1_555 1_555
O12_3 C12_3 1_555 1_555
O30 C25_3 1_555 1_555
C21_3 O12_3 1_555 1_555
C26_3 C27_3 1_555 1_555
C1_3 C2_3 1_555 1_555
C2_3 C3_3 1_555 1_555
C3_3 H1_3 1_555 1_555
C4_3 C3_3 1_555 1_555
H2_3 C4_3 1_555 1_555
C5_3 C4_3 1_555 1_555
C6_3 C5_3 1_555 1_555
H3_3 C6_3 1_555 1_555
C7_3 C2_3 1_555 1_555
H4_3 C7_3 1_555 1_555
C8_3 C9_3 1_555 1_555
C13_3 C8_3 1_555 1_555
H7_3 C13_3 1_555 1_555
Cd6_2 O1_2 1_555 1_555
O1_2 C1_3 1_555 1_555
O2_3 C1_3 1_555 1_555
O4_3 Cd6_2 1_555 1_555
O10_3 C5_3 1_555 1_555
Cd8 O1_2 1_555 1_555
O22_2 Cd6_2 1_555 1_555
O31_2 Cd6_2 1_555 1_555
C6_3 C7_3 1_555 1_555
C8_3 O10_3 1_555 1_555
Cd6_2 O2_3 1_555 1_555
Cd8 O31_2 1_555 1_555
O4_3 H39_3 1_555 1_555
O4_3 H40_3 1_555 1_555
C1_4 C2_4 1_555 1_555
C2_4 C3_4 1_555 1_555
C3_4 H1_4 1_555 1_555
C4_4 C3_4 1_555 1_555
H2_4 C4_4 1_555 1_555
C5_4 C4_4 1_555 1_555
C6_4 C5_4 1_555 1_555
H3_4 C6_4 1_555 1_555
C7_4 C2_4 1_555 1_555
H4_4 C7_4 1_555 1_555
C8_4 C9_4 1_555 1_555
C13_4 C8_4 1_555 1_555
H7_4 C13_4 1_555 1_555
C21_4 C22_4 1_555 1_555
C22_4 H12_4 1_555 1_555
C23_4 C22_4 1_555 1_555
H13_4 C23_4 1_555 1_555
C24_4 C23_4 1_555 1_555
C25_4 C24_4 1_555 1_555
C26_4 C24_4 1_555 1_555
H14_4 C26_4 1_555 1_555
C27_4 C21_4 1_555 1_555
H15_4 C27_4 1_555 1_555
O21_2 C1_4 1_555 1_555
O2_4 C1_4 1_555 1_555
O4_4 Cd6 1_555 1_555
O24_2 C25_4 1_555 1_555
O10_4 C5_4 1_555 1_555
O12_4 C12_4 1_555 1_555
O31_2 C25_4 1_555 1_555
C6_4 C7_4 1_555 1_555
C8_4 O10_4 1_555 1_555
C12_4 C13_4 1_555 1_555
C21_4 O12_4 1_555 1_555
C26_4 C27_4 1_555 1_555
Cd6 O2_4 1_555 1_555
O4_4 H39_4 1_555 1_555
C28_4 C29_4 1_555 1_555
C29_4 C30_4 1_555 1_555
C30_4 H16_4 1_555 1_555
C31_4 C30_4 1_555 1_555
H17_4 C31_4 1_555 1_555
C32_4 C31_4 1_555 1_555
C33_4 C32_4 1_555 1_555
H18_4 C33_4 1_555 1_555
C34_4 C29_4 1_555 1_555
H19_4 C34_4 1_555 1_555
O25 C28_4 1_555 1_555
O26_2 C28_4 1_555 1_555
O13_4 C32_4 1_555 1_555
C55_4 H31_4 1_555 1_555
H32_4 C55_4 1_555 1_555
C56_2 C55_4 1_555 1_555
H33_2 C56_2 1_555 1_555
H34_2 C56_2 1_555 1_555
C57_4 C56_2 1_555 1_555
H35_4 C57_4 1_555 1_555
H36_2 C57_4 1_555 1_555
C58_4 C57_4 1_555 1_555
H37_4 C58_4 1_555 1_555
H38_4 C58_4 1_555 1_555
Cd13_2 O25 1_555 1_555
O20_4 C55_4 1_555 1_555
O28_2 Cd13_2 1_555 1_555
C33_4 C34_4 1_555 1_555
C35_4 O13_4 1_555 1_555
C58_4 O20_4 1_555 1_555
Cd13_2 O20_4 1_555 1_555
C11_4 C10_2 1_555 1_555
H6_4 C11_4 1_555 1_555
C14_4 C15_4 1_555 1_555
C15_4 H8_4 1_555 1_555
C16_4 C15_4 1_555 1_555
H9_4 C16_4 1_555 1_555
C17_4 C16_4 1_555 1_555
C18_4 C17_4 1_555 1_555
C19_4 C17_4 1_555 1_555
H10_4 C19_4 1_555 1_555
C20_4 C14_4 1_555 1_555
H11_2 C20_4 1_555 1_555
C36_4 H20_4 1_555 1_555
C37_4 C36_4 1_555 1_555
C41_4 C42_4 1_555 1_555
C42_4 H23_4 1_555 1_555
C43_4 C42_4 1_555 1_555
H24_4 C43_4 1_555 1_555
C44_4 C43_4 1_555 1_555
C45_4 C44_4 1_555 1_555
C46_4 C44_4 1_555 1_555
H25_4 C46_4 1_555 1_555
C47_4 C41_4 1_555 1_555
H26_4 C47_4 1_555 1_555
O22_2 C18_4 1_555 1_555
O27_2 C45_4 1_555 1_555
O11_2 C10_2 1_555 1_555
O15_4 C37_4 1_555 1_555
O29_2 C45_4 1_555 1_555
O18_4 C18_4 1_555 1_555
C14_4 O11_2 1_555 1_555
C19_4 C20_4 1_555 1_555
C41_4 O15_4 1_555 1_555
C46_4 C47_4 1_555 1_555
Cd8 O18_4 1_555 1_555
H22_4 C40_4 1_555 1_555
C48_4 C49_4 1_555 1_555
C49_4 H27_2 1_555 1_555
C50_4 C49_4 1_555 1_555
H28_4 C50_4 1_555 1_555
C51_4 C50_4 1_555 1_555
C52_4 C51_4 1_555 1_555
H29_4 C52_4 1_555 1_555
C53_4 C48_4 1_555 1_555
C54_4 C51_4 1_555 1_555
O28_2 C54_4 1_555 1_555
O32_2 C54_4 1_555 1_555
C52_4 C53_4 1_555 1_555
O11_3 C10_3 1_555 1_555
H33_3 C56_3 1_555 1_555
H34_3 C56_3 1_555 1_555
H21_3 C38_3 1_555 1_555
C39_3 C38_3 1_555 1_555
O14_3 C39_3 1_555 1_555
H33_4 C56_4 1_555 1_555
H34_4 C56_4 1_555 1_555
O11_4 C10_4 1_555 1_555
H21_4 C38_4 1_555 1_555
C39_4 C38_4 1_555 1_555
O14_4 C39_4 1_555 1_555

#END
