
###############################################################################
#
# This file contains modified crystal structure data generated from the
# MOF subset of the Cambridge Structural Database (CSD) v543 
# hosted by the Cambridge Crystallographic Data Centre (CCDC).
#
# This work is licensed under the Creative Commons
# Attribution-NonCommercial-ShareAlike 4.0 International License.
# To view a copy of this license, visit
# http://creativecommons.org/licenses/by-nc-sa/4.0/
# or send a letter to
# Creative Commons, PO Box 1866, Mountain View, CA 94042, USA.
#
# CIF created using the CSD Python API on 29 September 2022
# The structure has been converted into the P1 space group
# The structure has a 3D framework
# The original CSD entry PIRQOZ is in the cubic crystal system
# The framework has been calculated to contain at least 10.0% void space
# The void calculation uses a probe of radius 1.32A, grid spacing 0.4
# The framework is charged, counterions have been retained in the structure
# H atom positions have been added when not included in the experimental data
# Generated hydrogen atom positions removed from atoms on special positions
#
###############################################################################

data_PIRQOZ
_chemical_formula_moiety         '(C1152 H864 Co36 N120 O328 U32 26-)n'
_symmetry_cell_setting           triclinic
_symmetry_space_group_name_H-M   'P 1'
_symmetry_Int_Tables_number      1
_space_group_name_Hall           'P 1'
loop_
_symmetry_equiv_pos_site_id
_symmetry_equiv_pos_as_xyz
1 x,y,z
_cell_length_a                   57.770(11)
_cell_length_b                   57.770(11)
_cell_length_c                   57.770(11)
_cell_angle_alpha                90
_cell_angle_beta                 90
_cell_angle_gamma                90
_cell_volume                     192800
loop_
_atom_site_label
_atom_site_type_symbol
_atom_site_fract_x
_atom_site_fract_y
_atom_site_fract_z
U1 U 0.65188(5) 0.65188(5) 0.65188(5)
Co1 Co 0.7500 0.5000 0.7500
N1 N 0.7500 0.5359(11) 0.7500
C1 C 0.6731(6) 0.6126(9) 0.6731(6)
O1 O 0.6801(4) 0.6219(3) 0.6537(3)
O2 O 0.6343(2) 0.6343(2) 0.6343(2)
N2 N 0.7258(9) 0.5000 0.7258(9)
C2 C 0.6853(3) 0.5942(5) 0.6853(3)
C3 C 0.7050(5) 0.5855(5) 0.6770(4)
H1 H 0.7106 0.5909 0.6624
O3 O 0.6696(2) 0.6696(2) 0.6696(2)
C4 C 0.7360(9) 0.5480(10) 0.7360(9)
C5 C 0.7209(7) 0.5399(10) 0.7209(7)
C6 C 0.7079(4) 0.5591(5) 0.7079(4)
C7 C 0.7175(4) 0.5693(5) 0.6886(5)
H2 H 0.7326 0.5650 0.6835
O4 O 0.7218(4) 0.5000 0.7782(4)
C8 C 0.7416(4) 0.5715(7) 0.7416(4)
H3 H 0.7348 0.5849 0.7348
C9 C 0.7147(8) 0.5190(12) 0.7147(8)
C10 C 0.6992(6) 0.5113(6) 0.6992(6)
H4 H 0.6897 0.5208 0.6897
N3 N 0.7500 0.4641(11) 0.7500
C11 C 0.6731(6) 0.3874(9) 0.6731(6)
O5 O 0.6537(3) 0.3781(3) 0.6801(4)
C12 C 0.6853(3) 0.4058(5) 0.6853(3)
C13 C 0.6770(4) 0.4145(5) 0.7050(5)
H5 H 0.6624 0.4091 0.7106
C14 C 0.7360(9) 0.4520(10) 0.7360(9)
C15 C 0.7209(7) 0.4601(10) 0.7209(7)
C16 C 0.7079(4) 0.4409(5) 0.7079(4)
C17 C 0.6886(5) 0.4307(5) 0.7175(4)
H6 H 0.6835 0.4350 0.7326
C18 C 0.7416(4) 0.4285(7) 0.7416(4)
H7 H 0.7348 0.4151 0.7348
C19 C 0.7147(8) 0.4810(12) 0.7147(8)
C20 C 0.6992(6) 0.4887(6) 0.6992(6)
H8 H 0.6897 0.4792 0.6897
C21 C 0.8269(6) 0.6126(9) 0.8269(6)
O6 O 0.8199(4) 0.6219(3) 0.8463(3)
N4 N 0.7742(9) 0.5000 0.7742(9)
C22 C 0.8147(3) 0.5942(5) 0.8147(3)
C23 C 0.7950(5) 0.5855(5) 0.8230(4)
H9 H 0.7894 0.5909 0.8376
C24 C 0.7640(9) 0.5480(10) 0.7640(9)
C25 C 0.7791(7) 0.5399(10) 0.7791(7)
C26 C 0.7921(4) 0.5591(5) 0.7921(4)
C27 C 0.7825(4) 0.5693(5) 0.8114(5)
H10 H 0.7674 0.5650 0.8165
C28 C 0.7584(4) 0.5715(7) 0.7584(4)
H11 H 0.7652 0.5849 0.7652
C29 C 0.7853(8) 0.5190(12) 0.7853(8)
C30 C 0.8008(6) 0.5113(6) 0.8008(6)
H12 H 0.8103 0.5208 0.8103
C31 C 0.8269(6) 0.3874(9) 0.8269(6)
O7 O 0.8463(3) 0.3781(3) 0.8199(4)
C32 C 0.8147(3) 0.4058(5) 0.8147(3)
C33 C 0.8230(4) 0.4145(5) 0.7950(5)
H13 H 0.8376 0.4091 0.7894
C34 C 0.7640(9) 0.4520(10) 0.7640(9)
C35 C 0.7791(7) 0.4601(10) 0.7791(7)
C36 C 0.7921(4) 0.4409(5) 0.7921(4)
C37 C 0.8114(5) 0.4307(5) 0.7825(4)
H14 H 0.8165 0.4350 0.7674
C38 C 0.7584(4) 0.4285(7) 0.7584(4)
H15 H 0.7652 0.4151 0.7652
C39 C 0.7853(8) 0.4810(12) 0.7853(8)
C40 C 0.8008(6) 0.4887(6) 0.8008(6)
H16 H 0.8103 0.4792 0.8103
O8 O 0.6801(4) 0.3781(3) 0.6537(3)
C41 C 0.7050(5) 0.4145(5) 0.6770(4)
H17 H 0.7106 0.4091 0.6624
C42 C 0.7175(4) 0.4307(5) 0.6886(5)
H18 H 0.7326 0.4350 0.6835
O9 O 0.6537(3) 0.6219(3) 0.6801(4)
C43 C 0.6770(4) 0.5855(5) 0.7050(5)
H19 H 0.6624 0.5909 0.7106
C44 C 0.6886(5) 0.5693(5) 0.7175(4)
H20 H 0.6835 0.5650 0.7326
O10 O 0.8199(4) 0.3781(3) 0.8463(3)
C45 C 0.7950(5) 0.4145(5) 0.8230(4)
H21 H 0.7894 0.4091 0.8376
C46 C 0.7825(4) 0.4307(5) 0.8114(5)
H22 H 0.7674 0.4350 0.8165
O11 O 0.8463(3) 0.6219(3) 0.8199(4)
C47 C 0.8230(4) 0.5855(5) 0.7950(5)
H23 H 0.8376 0.5909 0.7894
C48 C 0.8114(5) 0.5693(5) 0.7825(4)
H24 H 0.8165 0.5650 0.7674
Co2 Co 0.7500 0.7500 0.5000
N5 N 0.7500 0.7500 0.5359(11)
C49 C 0.6731(6) 0.6731(6) 0.6126(9)
O12 O 0.6537(3) 0.6801(4) 0.6219(3)
N6 N 0.7258(9) 0.7258(9) 0.5000
C50 C 0.6853(3) 0.6853(3) 0.5942(5)
C51 C 0.6770(4) 0.7050(5) 0.5855(5)
H25 H 0.6624 0.7106 0.5909
C52 C 0.7360(9) 0.7360(9) 0.5480(10)
C53 C 0.7209(7) 0.7209(7) 0.5399(10)
C54 C 0.7079(4) 0.7079(4) 0.5591(5)
C55 C 0.6886(5) 0.7175(4) 0.5693(5)
H26 H 0.6835 0.7326 0.5650
C56 C 0.7416(4) 0.7416(4) 0.5715(7)
H27 H 0.7348 0.7348 0.5849
C57 C 0.7147(8) 0.7147(8) 0.5190(12)
C58 C 0.6992(6) 0.6992(6) 0.5113(6)
H28 H 0.6897 0.6897 0.5208
N7 N 0.7500 0.7500 0.4641(11)
C59 C 0.6731(6) 0.6731(6) 0.3874(9)
O13 O 0.6801(4) 0.6537(3) 0.3781(3)
C60 C 0.6853(3) 0.6853(3) 0.4058(5)
C61 C 0.7050(5) 0.6770(4) 0.4145(5)
H29 H 0.7106 0.6624 0.4091
C62 C 0.7360(9) 0.7360(9) 0.4520(10)
C63 C 0.7209(7) 0.7209(7) 0.4601(10)
C64 C 0.7079(4) 0.7079(4) 0.4409(5)
C65 C 0.7175(4) 0.6886(5) 0.4307(5)
H30 H 0.7326 0.6835 0.4350
C66 C 0.7416(4) 0.7416(4) 0.4285(7)
H31 H 0.7348 0.7348 0.4151
C67 C 0.7147(8) 0.7147(8) 0.4810(12)
C68 C 0.6992(6) 0.6992(6) 0.4887(6)
H32 H 0.6897 0.6897 0.4792
C69 C 0.8269(6) 0.8269(6) 0.6126(9)
O14 O 0.8463(3) 0.8199(4) 0.6219(3)
N8 N 0.7742(9) 0.7742(9) 0.5000
C70 C 0.8147(3) 0.8147(3) 0.5942(5)
C71 C 0.8230(4) 0.7950(5) 0.5855(5)
H33 H 0.8376 0.7894 0.5909
C72 C 0.7640(9) 0.7640(9) 0.5480(10)
C73 C 0.7791(7) 0.7791(7) 0.5399(10)
C74 C 0.7921(4) 0.7921(4) 0.5591(5)
C75 C 0.8114(5) 0.7825(4) 0.5693(5)
H34 H 0.8165 0.7674 0.5650
C76 C 0.7584(4) 0.7584(4) 0.5715(7)
H35 H 0.7652 0.7652 0.5849
C77 C 0.7853(8) 0.7853(8) 0.5190(12)
C78 C 0.8008(6) 0.8008(6) 0.5113(6)
H36 H 0.8103 0.8103 0.5208
C79 C 0.8269(6) 0.8269(6) 0.3874(9)
O15 O 0.8199(4) 0.8463(3) 0.3781(3)
C80 C 0.8147(3) 0.8147(3) 0.4058(5)
C81 C 0.7950(5) 0.8230(4) 0.4145(5)
H37 H 0.7894 0.8376 0.4091
C82 C 0.7640(9) 0.7640(9) 0.4520(10)
C83 C 0.7791(7) 0.7791(7) 0.4601(10)
C84 C 0.7921(4) 0.7921(4) 0.4409(5)
C85 C 0.7825(4) 0.8114(5) 0.4307(5)
H38 H 0.7674 0.8165 0.4350
C86 C 0.7584(4) 0.7584(4) 0.4285(7)
H39 H 0.7652 0.7652 0.4151
C87 C 0.7853(8) 0.7853(8) 0.4810(12)
C88 C 0.8008(6) 0.8008(6) 0.4887(6)
H40 H 0.8103 0.8103 0.4792
O16 O 0.6537(3) 0.6801(4) 0.3781(3)
C89 C 0.6770(4) 0.7050(5) 0.4145(5)
H41 H 0.6624 0.7106 0.4091
C90 C 0.6886(5) 0.7175(4) 0.4307(5)
H42 H 0.6835 0.7326 0.4350
O17 O 0.6801(4) 0.6537(3) 0.6219(3)
C91 C 0.7050(5) 0.6770(4) 0.5855(5)
H43 H 0.7106 0.6624 0.5909
C92 C 0.7175(4) 0.6886(5) 0.5693(5)
H44 H 0.7326 0.6835 0.5650
O18 O 0.8463(3) 0.8199(4) 0.3781(3)
C93 C 0.8230(4) 0.7950(5) 0.4145(5)
H45 H 0.8376 0.7894 0.4091
C94 C 0.8114(5) 0.7825(4) 0.4307(5)
H46 H 0.8165 0.7674 0.4350
O19 O 0.8199(4) 0.8463(3) 0.6219(3)
C95 C 0.7950(5) 0.8230(4) 0.5855(5)
H47 H 0.7894 0.8376 0.5909
C96 C 0.7825(4) 0.8114(5) 0.5693(5)
H48 H 0.7674 0.8165 0.5650
Co3 Co 0.5000 0.7500 0.7500
N9 N 0.5359(11) 0.7500 0.7500
C97 C 0.6126(9) 0.6731(6) 0.6731(6)
O20 O 0.6219(3) 0.6537(3) 0.6801(4)
N10 N 0.5000 0.7258(9) 0.7258(9)
C98 C 0.5942(5) 0.6853(3) 0.6853(3)
C99 C 0.5855(5) 0.6770(4) 0.7050(5)
H49 H 0.5909 0.6624 0.7106
C100 C 0.5480(10) 0.7360(9) 0.7360(9)
C101 C 0.5399(10) 0.7209(7) 0.7209(7)
C102 C 0.5591(5) 0.7079(4) 0.7079(4)
C103 C 0.5693(5) 0.6886(5) 0.7175(4)
H50 H 0.5650 0.6835 0.7326
C104 C 0.5715(7) 0.7416(4) 0.7416(4)
H51 H 0.5849 0.7348 0.7348
C105 C 0.5190(12) 0.7147(8) 0.7147(8)
C106 C 0.5113(6) 0.6992(6) 0.6992(6)
H52 H 0.5208 0.6897 0.6897
N11 N 0.4641(11) 0.7500 0.7500
C107 C 0.3874(9) 0.6731(6) 0.6731(6)
O21 O 0.3781(3) 0.6801(4) 0.6537(3)
C108 C 0.4058(5) 0.6853(3) 0.6853(3)
C109 C 0.4145(5) 0.7050(5) 0.6770(4)
H53 H 0.4091 0.7106 0.6624
C110 C 0.4520(10) 0.7360(9) 0.7360(9)
C111 C 0.4601(10) 0.7209(7) 0.7209(7)
C112 C 0.4409(5) 0.7079(4) 0.7079(4)
C113 C 0.4307(5) 0.7175(4) 0.6886(5)
H54 H 0.4350 0.7326 0.6835
C114 C 0.4285(7) 0.7416(4) 0.7416(4)
H55 H 0.4151 0.7348 0.7348
C115 C 0.4810(12) 0.7147(8) 0.7147(8)
C116 C 0.4887(6) 0.6992(6) 0.6992(6)
H56 H 0.4792 0.6897 0.6897
C117 C 0.6126(9) 0.8269(6) 0.8269(6)
O22 O 0.6219(3) 0.8463(3) 0.8199(4)
N12 N 0.5000 0.7742(9) 0.7742(9)
C118 C 0.5942(5) 0.8147(3) 0.8147(3)
C119 C 0.5855(5) 0.8230(4) 0.7950(5)
H57 H 0.5909 0.8376 0.7894
C120 C 0.5480(10) 0.7640(9) 0.7640(9)
C121 C 0.5399(10) 0.7791(7) 0.7791(7)
C122 C 0.5591(5) 0.7921(4) 0.7921(4)
C123 C 0.5693(5) 0.8114(5) 0.7825(4)
H58 H 0.5650 0.8165 0.7674
C124 C 0.5715(7) 0.7584(4) 0.7584(4)
H59 H 0.5849 0.7652 0.7652
C125 C 0.5190(12) 0.7853(8) 0.7853(8)
C126 C 0.5113(6) 0.8008(6) 0.8008(6)
H60 H 0.5208 0.8103 0.8103
C127 C 0.3874(9) 0.8269(6) 0.8269(6)
O23 O 0.3781(3) 0.8199(4) 0.8463(3)
C128 C 0.4058(5) 0.8147(3) 0.8147(3)
C129 C 0.4145(5) 0.7950(5) 0.8230(4)
H61 H 0.4091 0.7894 0.8376
C130 C 0.4520(10) 0.7640(9) 0.7640(9)
C131 C 0.4601(10) 0.7791(7) 0.7791(7)
C132 C 0.4409(5) 0.7921(4) 0.7921(4)
C133 C 0.4307(5) 0.7825(4) 0.8114(5)
H62 H 0.4350 0.7674 0.8165
C134 C 0.4285(7) 0.7584(4) 0.7584(4)
H63 H 0.4151 0.7652 0.7652
C135 C 0.4810(12) 0.7853(8) 0.7853(8)
C136 C 0.4887(6) 0.8008(6) 0.8008(6)
H64 H 0.4792 0.8103 0.8103
O24 O 0.3781(3) 0.6537(3) 0.6801(4)
C137 C 0.4145(5) 0.6770(4) 0.7050(5)
H65 H 0.4091 0.6624 0.7106
C138 C 0.4307(5) 0.6886(5) 0.7175(4)
H66 H 0.4350 0.6835 0.7326
O25 O 0.6219(3) 0.6801(4) 0.6537(3)
C139 C 0.5855(5) 0.7050(5) 0.6770(4)
H67 H 0.5909 0.7106 0.6624
C140 C 0.5693(5) 0.7175(4) 0.6886(5)
H68 H 0.5650 0.7326 0.6835
O26 O 0.3781(3) 0.8463(3) 0.8199(4)
C141 C 0.4145(5) 0.8230(4) 0.7950(5)
H69 H 0.4091 0.8376 0.7894
C142 C 0.4307(5) 0.8114(5) 0.7825(4)
H70 H 0.4350 0.8165 0.7674
O27 O 0.6219(3) 0.8199(4) 0.8463(3)
C143 C 0.5855(5) 0.7950(5) 0.8230(4)
H71 H 0.5909 0.7894 0.8376
C144 C 0.5693(5) 0.7825(4) 0.8114(5)
H72 H 0.5650 0.7674 0.8165
U2 U 0.65188(5) 0.34812(5) 0.65188(5)
O28 O 0.6343(2) 0.3657(2) 0.6343(2)
O29 O 0.6696(2) 0.3304(2) 0.6696(2)
U3 U 0.34812(5) 0.65188(5) 0.65188(5)
O30 O 0.3657(2) 0.6343(2) 0.6343(2)
O31 O 0.3304(2) 0.6696(2) 0.6696(2)
O32 O 0.5000 0.7218(4) 0.7782(4)
U4 U 0.65188(5) 0.65188(5) 0.34812(5)
O33 O 0.6343(2) 0.6343(2) 0.3657(2)
O34 O 0.6696(2) 0.6696(2) 0.3304(2)
O35 O 0.7218(4) 0.7782(4) 0.5000
O36 O 0.7782(4) 0.5000 0.7218(4)
O37 O 0.7782(4) 0.7218(4) 0.5000
O38 O 0.5000 0.7782(4) 0.7218(4)
U5 U 0.65188(5) 0.84812(5) 0.84812(5)
U6 U 0.34812(5) 0.84812(5) 0.84812(5)
U7 U 0.84812(5) 0.65188(5) 0.84812(5)
U8 U 0.84812(5) 0.34812(5) 0.84812(5)
U9 U 0.84812(5) 0.84812(5) 0.65188(5)
U10 U 0.84812(5) 0.84812(5) 0.34812(5)
O39 O 0.6219(3) 0.6801(4) 0.3463(3)
O40 O 0.6219(3) 0.3199(4) 0.6537(3)
O41 O 0.3199(4) 0.6537(3) 0.6219(3)
O42 O 0.6801(4) 0.3463(3) 0.6219(3)
O43 O 0.6537(3) 0.6219(3) 0.3199(4)
O44 O 0.3463(3) 0.6219(3) 0.6801(4)
O45 O 0.6801(4) 0.6219(3) 0.3463(3)
O46 O 0.3199(4) 0.6219(3) 0.6537(3)
O47 O 0.3463(3) 0.6801(4) 0.6219(3)
O48 O 0.6537(3) 0.3199(4) 0.6219(3)
O49 O 0.6219(3) 0.3463(3) 0.6801(4)
O50 O 0.6219(3) 0.6537(3) 0.3199(4)
U1_2 U 0.34812(5) 0.34812(5) 0.65188(5)
Co1_2 Co 0.2500 0.5000 0.7500
N1_2 N 0.2500 0.4641(11) 0.7500
C1_2 C 0.3269(6) 0.3874(9) 0.6731(6)
O1_2 O 0.3199(4) 0.3781(3) 0.6537(3)
O2_2 O 0.3657(2) 0.3657(2) 0.6343(2)
N2_2 N 0.2742(9) 0.5000 0.7258(9)
C2_2 C 0.3147(3) 0.4058(5) 0.6853(3)
C3_2 C 0.2950(5) 0.4145(5) 0.6770(4)
H1_2 H 0.2894 0.4091 0.6624
O3_2 O 0.3304(2) 0.3304(2) 0.6696(2)
C4_2 C 0.2640(9) 0.4520(10) 0.7360(9)
C5_2 C 0.2791(7) 0.4601(10) 0.7209(7)
C6_2 C 0.2921(4) 0.4409(5) 0.7079(4)
C7_2 C 0.2825(4) 0.4307(5) 0.6886(5)
H2_2 H 0.2674 0.4350 0.6835
O4_2 O 0.2782(4) 0.5000 0.7782(4)
C8_2 C 0.2584(4) 0.4285(7) 0.7416(4)
H3_2 H 0.2652 0.4151 0.7348
C9_2 C 0.2853(8) 0.4810(12) 0.7147(8)
C10_2 C 0.3008(6) 0.4887(6) 0.6992(6)
H4_2 H 0.3103 0.4792 0.6897
N3_2 N 0.2500 0.5359(11) 0.7500
C11_2 C 0.3269(6) 0.6126(9) 0.6731(6)
C12_2 C 0.3147(3) 0.5942(5) 0.6853(3)
C13_2 C 0.3230(4) 0.5855(5) 0.7050(5)
H5_2 H 0.3376 0.5909 0.7106
C14_2 C 0.2640(9) 0.5480(10) 0.7360(9)
C15_2 C 0.2791(7) 0.5399(10) 0.7209(7)
C16_2 C 0.2921(4) 0.5591(5) 0.7079(4)
C17_2 C 0.3114(5) 0.5693(5) 0.7175(4)
H6_2 H 0.3165 0.5650 0.7326
C18_2 C 0.2584(4) 0.5715(7) 0.7416(4)
H7_2 H 0.2652 0.5849 0.7348
C19_2 C 0.2853(8) 0.5190(12) 0.7147(8)
C20_2 C 0.3008(6) 0.5113(6) 0.6992(6)
H8_2 H 0.3103 0.5208 0.6897
C21_2 C 0.1731(6) 0.3874(9) 0.8269(6)
O6_2 O 0.1801(4) 0.3781(3) 0.8463(3)
N4_2 N 0.2258(9) 0.5000 0.7742(9)
C22_2 C 0.1853(3) 0.4058(5) 0.8147(3)
C23_2 C 0.2050(5) 0.4145(5) 0.8230(4)
H9_2 H 0.2106 0.4091 0.8376
C24_2 C 0.2360(9) 0.4520(10) 0.7640(9)
C25_2 C 0.2209(7) 0.4601(10) 0.7791(7)
C26_2 C 0.2079(4) 0.4409(5) 0.7921(4)
C27_2 C 0.2175(4) 0.4307(5) 0.8114(5)
H10_2 H 0.2326 0.4350 0.8165
C28_2 C 0.2416(4) 0.4285(7) 0.7584(4)
H11_2 H 0.2348 0.4151 0.7652
C29_2 C 0.2147(8) 0.4810(12) 0.7853(8)
C30_2 C 0.1992(6) 0.4887(6) 0.8008(6)
H12_2 H 0.1897 0.4792 0.8103
C31_2 C 0.1731(6) 0.6126(9) 0.8269(6)
O7_2 O 0.1537(3) 0.6219(3) 0.8199(4)
C32_2 C 0.1853(3) 0.5942(5) 0.8147(3)
C33_2 C 0.1770(4) 0.5855(5) 0.7950(5)
H13_2 H 0.1624 0.5909 0.7894
C34_2 C 0.2360(9) 0.5480(10) 0.7640(9)
C35_2 C 0.2209(7) 0.5399(10) 0.7791(7)
C36_2 C 0.2079(4) 0.5591(5) 0.7921(4)
C37_2 C 0.1886(5) 0.5693(5) 0.7825(4)
H14_2 H 0.1835 0.5650 0.7674
C38_2 C 0.2416(4) 0.5715(7) 0.7584(4)
H15_2 H 0.2348 0.5849 0.7652
C39_2 C 0.2147(8) 0.5190(12) 0.7853(8)
C40_2 C 0.1992(6) 0.5113(6) 0.8008(6)
H16_2 H 0.1897 0.5208 0.8103
C41_2 C 0.2950(5) 0.5855(5) 0.6770(4)
H17_2 H 0.2894 0.5909 0.6624
C42_2 C 0.2825(4) 0.5693(5) 0.6886(5)
H18_2 H 0.2674 0.5650 0.6835
O9_2 O 0.3463(3) 0.3781(3) 0.6801(4)
C43_2 C 0.3230(4) 0.4145(5) 0.7050(5)
H19_2 H 0.3376 0.4091 0.7106
C44_2 C 0.3114(5) 0.4307(5) 0.7175(4)
H20_2 H 0.3165 0.4350 0.7326
O10_2 O 0.1801(4) 0.6219(3) 0.8463(3)
C45_2 C 0.2050(5) 0.5855(5) 0.8230(4)
H21_2 H 0.2106 0.5909 0.8376
C46_2 C 0.2175(4) 0.5693(5) 0.8114(5)
H22_2 H 0.2326 0.5650 0.8165
O11_2 O 0.1537(3) 0.3781(3) 0.8199(4)
C47_2 C 0.1770(4) 0.4145(5) 0.7950(5)
H23_2 H 0.1624 0.4091 0.7894
C48_2 C 0.1886(5) 0.4307(5) 0.7825(4)
H24_2 H 0.1835 0.4350 0.7674
Co2_2 Co 0.2500 0.2500 0.5000
N5_2 N 0.2500 0.2500 0.5359(11)
C49_2 C 0.3269(6) 0.3269(6) 0.6126(9)
O12_2 O 0.3463(3) 0.3199(4) 0.6219(3)
N6_2 N 0.2742(9) 0.2742(9) 0.5000
C50_2 C 0.3147(3) 0.3147(3) 0.5942(5)
C51_2 C 0.3230(4) 0.2950(5) 0.5855(5)
H25_2 H 0.3376 0.2894 0.5909
C52_2 C 0.2640(9) 0.2640(9) 0.5480(10)
C53_2 C 0.2791(7) 0.2791(7) 0.5399(10)
C54_2 C 0.2921(4) 0.2921(4) 0.5591(5)
C55_2 C 0.3114(5) 0.2825(4) 0.5693(5)
H26_2 H 0.3165 0.2674 0.5650
C56_2 C 0.2584(4) 0.2584(4) 0.5715(7)
H27_2 H 0.2652 0.2652 0.5849
C57_2 C 0.2853(8) 0.2853(8) 0.5190(12)
C58_2 C 0.3008(6) 0.3008(6) 0.5113(6)
H28_2 H 0.3103 0.3103 0.5208
N7_2 N 0.2500 0.2500 0.4641(11)
C59_2 C 0.3269(6) 0.3269(6) 0.3874(9)
O13_2 O 0.3199(4) 0.3463(3) 0.3781(3)
C60_2 C 0.3147(3) 0.3147(3) 0.4058(5)
C61_2 C 0.2950(5) 0.3230(4) 0.4145(5)
H29_2 H 0.2894 0.3376 0.4091
C62_2 C 0.2640(9) 0.2640(9) 0.4520(10)
C63_2 C 0.2791(7) 0.2791(7) 0.4601(10)
C64_2 C 0.2921(4) 0.2921(4) 0.4409(5)
C65_2 C 0.2825(4) 0.3114(5) 0.4307(5)
H30_2 H 0.2674 0.3165 0.4350
C66_2 C 0.2584(4) 0.2584(4) 0.4285(7)
H31_2 H 0.2652 0.2652 0.4151
C67_2 C 0.2853(8) 0.2853(8) 0.4810(12)
C68_2 C 0.3008(6) 0.3008(6) 0.4887(6)
H32_2 H 0.3103 0.3103 0.4792
C69_2 C 0.1731(6) 0.1731(6) 0.6126(9)
O14_2 O 0.1537(3) 0.1801(4) 0.6219(3)
N8_2 N 0.2258(9) 0.2258(9) 0.5000
C70_2 C 0.1853(3) 0.1853(3) 0.5942(5)
C71_2 C 0.1770(4) 0.2050(5) 0.5855(5)
H33_2 H 0.1624 0.2106 0.5909
C72_2 C 0.2360(9) 0.2360(9) 0.5480(10)
C73_2 C 0.2209(7) 0.2209(7) 0.5399(10)
C74_2 C 0.2079(4) 0.2079(4) 0.5591(5)
C75_2 C 0.1886(5) 0.2175(4) 0.5693(5)
H34_2 H 0.1835 0.2326 0.5650
C76_2 C 0.2416(4) 0.2416(4) 0.5715(7)
H35_2 H 0.2348 0.2348 0.5849
C77_2 C 0.2147(8) 0.2147(8) 0.5190(12)
C78_2 C 0.1992(6) 0.1992(6) 0.5113(6)
H36_2 H 0.1897 0.1897 0.5208
C79_2 C 0.1731(6) 0.1731(6) 0.3874(9)
O15_2 O 0.1801(4) 0.1537(3) 0.3781(3)
C80_2 C 0.1853(3) 0.1853(3) 0.4058(5)
C81_2 C 0.2050(5) 0.1770(4) 0.4145(5)
H37_2 H 0.2106 0.1624 0.4091
C82_2 C 0.2360(9) 0.2360(9) 0.4520(10)
C83_2 C 0.2209(7) 0.2209(7) 0.4601(10)
C84_2 C 0.2079(4) 0.2079(4) 0.4409(5)
C85_2 C 0.2175(4) 0.1886(5) 0.4307(5)
H38_2 H 0.2326 0.1835 0.4350
C86_2 C 0.2416(4) 0.2416(4) 0.4285(7)
H39_2 H 0.2348 0.2348 0.4151
C87_2 C 0.2147(8) 0.2147(8) 0.4810(12)
C88_2 C 0.1992(6) 0.1992(6) 0.4887(6)
H40_2 H 0.1897 0.1897 0.4792
O16_2 O 0.3463(3) 0.3199(4) 0.3781(3)
C89_2 C 0.3230(4) 0.2950(5) 0.4145(5)
H41_2 H 0.3376 0.2894 0.4091
C90_2 C 0.3114(5) 0.2825(4) 0.4307(5)
H42_2 H 0.3165 0.2674 0.4350
O17_2 O 0.3199(4) 0.3463(3) 0.6219(3)
C91_2 C 0.2950(5) 0.3230(4) 0.5855(5)
H43_2 H 0.2894 0.3376 0.5909
C92_2 C 0.2825(4) 0.3114(5) 0.5693(5)
H44_2 H 0.2674 0.3165 0.5650
O18_2 O 0.1537(3) 0.1801(4) 0.3781(3)
C93_2 C 0.1770(4) 0.2050(5) 0.4145(5)
H45_2 H 0.1624 0.2106 0.4091
C94_2 C 0.1886(5) 0.2175(4) 0.4307(5)
H46_2 H 0.1835 0.2326 0.4350
O19_2 O 0.1801(4) 0.1537(3) 0.6219(3)
C95_2 C 0.2050(5) 0.1770(4) 0.5855(5)
H47_2 H 0.2106 0.1624 0.5909
C96_2 C 0.2175(4) 0.1886(5) 0.5693(5)
H48_2 H 0.2326 0.1835 0.5650
Co3_2 Co 0.5000 0.2500 0.7500
N9_2 N 0.4641(11) 0.2500 0.7500
C97_2 C 0.3874(9) 0.3269(6) 0.6731(6)
O20_2 O 0.3781(3) 0.3463(3) 0.6801(4)
N10_2 N 0.5000 0.2742(9) 0.7258(9)
C98_2 C 0.4058(5) 0.3147(3) 0.6853(3)
C99_2 C 0.4145(5) 0.3230(4) 0.7050(5)
H49_2 H 0.4091 0.3376 0.7106
C100_2 C 0.4520(10) 0.2640(9) 0.7360(9)
C101_2 C 0.4601(10) 0.2791(7) 0.7209(7)
C102_2 C 0.4409(5) 0.2921(4) 0.7079(4)
C103_2 C 0.4307(5) 0.3114(5) 0.7175(4)
H50_2 H 0.4350 0.3165 0.7326
C104_2 C 0.4285(7) 0.2584(4) 0.7416(4)
H51_2 H 0.4151 0.2652 0.7348
C105_2 C 0.4810(12) 0.2853(8) 0.7147(8)
C106_2 C 0.4887(6) 0.3008(6) 0.6992(6)
H52_2 H 0.4792 0.3103 0.6897
N11_2 N 0.5359(11) 0.2500 0.7500
C107_2 C 0.6126(9) 0.3269(6) 0.6731(6)
C108_2 C 0.5942(5) 0.3147(3) 0.6853(3)
C109_2 C 0.5855(5) 0.2950(5) 0.6770(4)
H53_2 H 0.5909 0.2894 0.6624
C110_2 C 0.5480(10) 0.2640(9) 0.7360(9)
C111_2 C 0.5399(10) 0.2791(7) 0.7209(7)
C112_2 C 0.5591(5) 0.2921(4) 0.7079(4)
C113_2 C 0.5693(5) 0.2825(4) 0.6886(5)
H54_2 H 0.5650 0.2674 0.6835
C114_2 C 0.5715(7) 0.2584(4) 0.7416(4)
H55_2 H 0.5849 0.2652 0.7348
C115_2 C 0.5190(12) 0.2853(8) 0.7147(8)
C116_2 C 0.5113(6) 0.3008(6) 0.6992(6)
H56_2 H 0.5208 0.3103 0.6897
C117_2 C 0.3874(9) 0.1731(6) 0.8269(6)
O22_2 O 0.3781(3) 0.1537(3) 0.8199(4)
N12_2 N 0.5000 0.2258(9) 0.7742(9)
C118_2 C 0.4058(5) 0.1853(3) 0.8147(3)
C119_2 C 0.4145(5) 0.1770(4) 0.7950(5)
H57_2 H 0.4091 0.1624 0.7894
C120_2 C 0.4520(10) 0.2360(9) 0.7640(9)
C121_2 C 0.4601(10) 0.2209(7) 0.7791(7)
C122_2 C 0.4409(5) 0.2079(4) 0.7921(4)
C123_2 C 0.4307(5) 0.1886(5) 0.7825(4)
H58_2 H 0.4350 0.1835 0.7674
C124_2 C 0.4285(7) 0.2416(4) 0.7584(4)
H59_2 H 0.4151 0.2348 0.7652
C125_2 C 0.4810(12) 0.2147(8) 0.7853(8)
C126_2 C 0.4887(6) 0.1992(6) 0.8008(6)
H60_2 H 0.4792 0.1897 0.8103
C127_2 C 0.6126(9) 0.1731(6) 0.8269(6)
O23_2 O 0.6219(3) 0.1801(4) 0.8463(3)
C128_2 C 0.5942(5) 0.1853(3) 0.8147(3)
C129_2 C 0.5855(5) 0.2050(5) 0.8230(4)
H61_2 H 0.5909 0.2106 0.8376
C130_2 C 0.5480(10) 0.2360(9) 0.7640(9)
C131_2 C 0.5399(10) 0.2209(7) 0.7791(7)
C132_2 C 0.5591(5) 0.2079(4) 0.7921(4)
C133_2 C 0.5693(5) 0.2175(4) 0.8114(5)
H62_2 H 0.5650 0.2326 0.8165
C134_2 C 0.5715(7) 0.2416(4) 0.7584(4)
H63_2 H 0.5849 0.2348 0.7652
C135_2 C 0.5190(12) 0.2147(8) 0.7853(8)
C136_2 C 0.5113(6) 0.1992(6) 0.8008(6)
H64_2 H 0.5208 0.1897 0.8103
C137_2 C 0.5855(5) 0.3230(4) 0.7050(5)
H65_2 H 0.5909 0.3376 0.7106
C138_2 C 0.5693(5) 0.3114(5) 0.7175(4)
H66_2 H 0.5650 0.3165 0.7326
O25_2 O 0.3781(3) 0.3199(4) 0.6537(3)
C139_2 C 0.4145(5) 0.2950(5) 0.6770(4)
H67_2 H 0.4091 0.2894 0.6624
C140_2 C 0.4307(5) 0.2825(4) 0.6886(5)
H68_2 H 0.4350 0.2674 0.6835
O26_2 O 0.6219(3) 0.1537(3) 0.8199(4)
C141_2 C 0.5855(5) 0.1770(4) 0.7950(5)
H69_2 H 0.5909 0.1624 0.7894
C142_2 C 0.5693(5) 0.1886(5) 0.7825(4)
H70_2 H 0.5650 0.1835 0.7674
O27_2 O 0.3781(3) 0.1801(4) 0.8463(3)
C143_2 C 0.4145(5) 0.2050(5) 0.8230(4)
H71_2 H 0.4091 0.2106 0.8376
C144_2 C 0.4307(5) 0.2175(4) 0.8114(5)
H72_2 H 0.4350 0.2326 0.8165
O32_2 O 0.5000 0.2782(4) 0.7782(4)
U4_2 U 0.34812(5) 0.34812(5) 0.34812(5)
O33_2 O 0.3657(2) 0.3657(2) 0.3657(2)
O34_2 O 0.3304(2) 0.3304(2) 0.3304(2)
O35_2 O 0.2782(4) 0.2218(4) 0.5000
O36_2 O 0.2218(4) 0.5000 0.7218(4)
O37_2 O 0.2218(4) 0.2782(4) 0.5000
O38_2 O 0.5000 0.2218(4) 0.7218(4)
U5_2 U 0.34812(5) 0.15188(5) 0.84812(5)
U6_2 U 0.65188(5) 0.15188(5) 0.84812(5)
U7_2 U 0.15188(5) 0.34812(5) 0.84812(5)
U8_2 U 0.15188(5) 0.65188(5) 0.84812(5)
U9_2 U 0.15188(5) 0.15188(5) 0.65188(5)
U10_2 U 0.15188(5) 0.15188(5) 0.34812(5)
O39_2 O 0.3781(3) 0.3199(4) 0.3463(3)
O43_2 O 0.3463(3) 0.3781(3) 0.3199(4)
O45_2 O 0.3199(4) 0.3781(3) 0.3463(3)
O50_2 O 0.3781(3) 0.3463(3) 0.3199(4)
U1_3 U 0.34812(5) 0.65188(5) 0.34812(5)
Co1_3 Co 0.2500 0.5000 0.2500
N1_3 N 0.2500 0.5359(11) 0.2500
C1_3 C 0.3269(6) 0.6126(9) 0.3269(6)
O1_3 O 0.3199(4) 0.6219(3) 0.3463(3)
O2_3 O 0.3657(2) 0.6343(2) 0.3657(2)
N2_3 N 0.2742(9) 0.5000 0.2742(9)
C2_3 C 0.3147(3) 0.5942(5) 0.3147(3)
C3_3 C 0.2950(5) 0.5855(5) 0.3230(4)
H1_3 H 0.2894 0.5909 0.3376
O3_3 O 0.3304(2) 0.6696(2) 0.3304(2)
C4_3 C 0.2640(9) 0.5480(10) 0.2640(9)
C5_3 C 0.2791(7) 0.5399(10) 0.2791(7)
C6_3 C 0.2921(4) 0.5591(5) 0.2921(4)
C7_3 C 0.2825(4) 0.5693(5) 0.3114(5)
H2_3 H 0.2674 0.5650 0.3165
O4_3 O 0.2782(4) 0.5000 0.2218(4)
C8_3 C 0.2584(4) 0.5715(7) 0.2584(4)
H3_3 H 0.2652 0.5849 0.2652
C9_3 C 0.2853(8) 0.5190(12) 0.2853(8)
C10_3 C 0.3008(6) 0.5113(6) 0.3008(6)
H4_3 H 0.3103 0.5208 0.3103
N3_3 N 0.2500 0.4641(11) 0.2500
C11_3 C 0.3269(6) 0.3874(9) 0.3269(6)
C12_3 C 0.3147(3) 0.4058(5) 0.3147(3)
C13_3 C 0.3230(4) 0.4145(5) 0.2950(5)
H5_3 H 0.3376 0.4091 0.2894
C14_3 C 0.2640(9) 0.4520(10) 0.2640(9)
C15_3 C 0.2791(7) 0.4601(10) 0.2791(7)
C16_3 C 0.2921(4) 0.4409(5) 0.2921(4)
C17_3 C 0.3114(5) 0.4307(5) 0.2825(4)
H6_3 H 0.3165 0.4350 0.2674
C18_3 C 0.2584(4) 0.4285(7) 0.2584(4)
H7_3 H 0.2652 0.4151 0.2652
C19_3 C 0.2853(8) 0.4810(12) 0.2853(8)
C20_3 C 0.3008(6) 0.4887(6) 0.3008(6)
H8_3 H 0.3103 0.4792 0.3103
C21_3 C 0.1731(6) 0.6126(9) 0.1731(6)
O6_3 O 0.1801(4) 0.6219(3) 0.1537(3)
N4_3 N 0.2258(9) 0.5000 0.2258(9)
C22_3 C 0.1853(3) 0.5942(5) 0.1853(3)
C23_3 C 0.2050(5) 0.5855(5) 0.1770(4)
H9_3 H 0.2106 0.5909 0.1624
C24_3 C 0.2360(9) 0.5480(10) 0.2360(9)
C25_3 C 0.2209(7) 0.5399(10) 0.2209(7)
C26_3 C 0.2079(4) 0.5591(5) 0.2079(4)
C27_3 C 0.2175(4) 0.5693(5) 0.1886(5)
H10_3 H 0.2326 0.5650 0.1835
C28_3 C 0.2416(4) 0.5715(7) 0.2416(4)
H11_3 H 0.2348 0.5849 0.2348
C29_3 C 0.2147(8) 0.5190(12) 0.2147(8)
C30_3 C 0.1992(6) 0.5113(6) 0.1992(6)
H12_3 H 0.1897 0.5208 0.1897
C31_3 C 0.1731(6) 0.3874(9) 0.1731(6)
O7_3 O 0.1537(3) 0.3781(3) 0.1801(4)
C32_3 C 0.1853(3) 0.4058(5) 0.1853(3)
C33_3 C 0.1770(4) 0.4145(5) 0.2050(5)
H13_3 H 0.1624 0.4091 0.2106
C34_3 C 0.2360(9) 0.4520(10) 0.2360(9)
C35_3 C 0.2209(7) 0.4601(10) 0.2209(7)
C36_3 C 0.2079(4) 0.4409(5) 0.2079(4)
C37_3 C 0.1886(5) 0.4307(5) 0.2175(4)
H14_3 H 0.1835 0.4350 0.2326
C38_3 C 0.2416(4) 0.4285(7) 0.2416(4)
H15_3 H 0.2348 0.4151 0.2348
C39_3 C 0.2147(8) 0.4810(12) 0.2147(8)
C40_3 C 0.1992(6) 0.4887(6) 0.1992(6)
H16_3 H 0.1897 0.4792 0.1897
C41_3 C 0.2950(5) 0.4145(5) 0.3230(4)
H17_3 H 0.2894 0.4091 0.3376
C42_3 C 0.2825(4) 0.4307(5) 0.3114(5)
H18_3 H 0.2674 0.4350 0.3165
O9_3 O 0.3463(3) 0.6219(3) 0.3199(4)
C43_3 C 0.3230(4) 0.5855(5) 0.2950(5)
H19_3 H 0.3376 0.5909 0.2894
C44_3 C 0.3114(5) 0.5693(5) 0.2825(4)
H20_3 H 0.3165 0.5650 0.2674
O10_3 O 0.1801(4) 0.3781(3) 0.1537(3)
C45_3 C 0.2050(5) 0.4145(5) 0.1770(4)
H21_3 H 0.2106 0.4091 0.1624
C46_3 C 0.2175(4) 0.4307(5) 0.1886(5)
H22_3 H 0.2326 0.4350 0.1835
O11_3 O 0.1537(3) 0.6219(3) 0.1801(4)
C47_3 C 0.1770(4) 0.5855(5) 0.2050(5)
H23_3 H 0.1624 0.5909 0.2106
C48_3 C 0.1886(5) 0.5693(5) 0.2175(4)
H24_3 H 0.1835 0.5650 0.2326
Co2_3 Co 0.2500 0.7500 0.5000
N5_3 N 0.2500 0.7500 0.4641(11)
C49_3 C 0.3269(6) 0.6731(6) 0.3874(9)
O12_3 O 0.3463(3) 0.6801(4) 0.3781(3)
N6_3 N 0.2742(9) 0.7258(9) 0.5000
C50_3 C 0.3147(3) 0.6853(3) 0.4058(5)
C51_3 C 0.3230(4) 0.7050(5) 0.4145(5)
H25_3 H 0.3376 0.7106 0.4091
C52_3 C 0.2640(9) 0.7360(9) 0.4520(10)
C53_3 C 0.2791(7) 0.7209(7) 0.4601(10)
C54_3 C 0.2921(4) 0.7079(4) 0.4409(5)
C55_3 C 0.3114(5) 0.7175(4) 0.4307(5)
H26_3 H 0.3165 0.7326 0.4350
C56_3 C 0.2584(4) 0.7416(4) 0.4285(7)
H27_3 H 0.2652 0.7348 0.4151
C57_3 C 0.2853(8) 0.7147(8) 0.4810(12)
C58_3 C 0.3008(6) 0.6992(6) 0.4887(6)
H28_3 H 0.3103 0.6897 0.4792
N7_3 N 0.2500 0.7500 0.5359(11)
C59_3 C 0.3269(6) 0.6731(6) 0.6126(9)
C60_3 C 0.3147(3) 0.6853(3) 0.5942(5)
C61_3 C 0.2950(5) 0.6770(4) 0.5855(5)
H29_3 H 0.2894 0.6624 0.5909
C62_3 C 0.2640(9) 0.7360(9) 0.5480(10)
C63_3 C 0.2791(7) 0.7209(7) 0.5399(10)
C64_3 C 0.2921(4) 0.7079(4) 0.5591(5)
C65_3 C 0.2825(4) 0.6886(5) 0.5693(5)
H30_3 H 0.2674 0.6835 0.5650
C66_3 C 0.2584(4) 0.7416(4) 0.5715(7)
H31_3 H 0.2652 0.7348 0.5849
C67_3 C 0.2853(8) 0.7147(8) 0.5190(12)
C68_3 C 0.3008(6) 0.6992(6) 0.5113(6)
H32_3 H 0.3103 0.6897 0.5208
C69_3 C 0.1731(6) 0.8269(6) 0.3874(9)
O14_3 O 0.1537(3) 0.8199(4) 0.3781(3)
N8_3 N 0.2258(9) 0.7742(9) 0.5000
C70_3 C 0.1853(3) 0.8147(3) 0.4058(5)
C71_3 C 0.1770(4) 0.7950(5) 0.4145(5)
H33_3 H 0.1624 0.7894 0.4091
C72_3 C 0.2360(9) 0.7640(9) 0.4520(10)
C73_3 C 0.2209(7) 0.7791(7) 0.4601(10)
C74_3 C 0.2079(4) 0.7921(4) 0.4409(5)
C75_3 C 0.1886(5) 0.7825(4) 0.4307(5)
H34_3 H 0.1835 0.7674 0.4350
C76_3 C 0.2416(4) 0.7584(4) 0.4285(7)
H35_3 H 0.2348 0.7652 0.4151
C77_3 C 0.2147(8) 0.7853(8) 0.4810(12)
C78_3 C 0.1992(6) 0.8008(6) 0.4887(6)
H36_3 H 0.1897 0.8103 0.4792
C79_3 C 0.1731(6) 0.8269(6) 0.6126(9)
O15_3 O 0.1801(4) 0.8463(3) 0.6219(3)
C80_3 C 0.1853(3) 0.8147(3) 0.5942(5)
C81_3 C 0.2050(5) 0.8230(4) 0.5855(5)
H37_3 H 0.2106 0.8376 0.5909
C82_3 C 0.2360(9) 0.7640(9) 0.5480(10)
C83_3 C 0.2209(7) 0.7791(7) 0.5399(10)
C84_3 C 0.2079(4) 0.7921(4) 0.5591(5)
C85_3 C 0.2175(4) 0.8114(5) 0.5693(5)
H38_3 H 0.2326 0.8165 0.5650
C86_3 C 0.2416(4) 0.7584(4) 0.5715(7)
H39_3 H 0.2348 0.7652 0.5849
C87_3 C 0.2147(8) 0.7853(8) 0.5190(12)
C88_3 C 0.1992(6) 0.8008(6) 0.5113(6)
H40_3 H 0.1897 0.8103 0.5208
C89_3 C 0.3230(4) 0.7050(5) 0.5855(5)
H41_3 H 0.3376 0.7106 0.5909
C90_3 C 0.3114(5) 0.7175(4) 0.5693(5)
H42_3 H 0.3165 0.7326 0.5650
O17_3 O 0.3199(4) 0.6537(3) 0.3781(3)
C91_3 C 0.2950(5) 0.6770(4) 0.4145(5)
H43_3 H 0.2894 0.6624 0.4091
C92_3 C 0.2825(4) 0.6886(5) 0.4307(5)
H44_3 H 0.2674 0.6835 0.4350
O18_3 O 0.1537(3) 0.8199(4) 0.6219(3)
C93_3 C 0.1770(4) 0.7950(5) 0.5855(5)
H45_3 H 0.1624 0.7894 0.5909
C94_3 C 0.1886(5) 0.7825(4) 0.5693(5)
H46_3 H 0.1835 0.7674 0.5650
O19_3 O 0.1801(4) 0.8463(3) 0.3781(3)
C95_3 C 0.2050(5) 0.8230(4) 0.4145(5)
H47_3 H 0.2106 0.8376 0.4091
C96_3 C 0.2175(4) 0.8114(5) 0.4307(5)
H48_3 H 0.2326 0.8165 0.4350
Co3_3 Co 0.5000 0.7500 0.2500
N9_3 N 0.4641(11) 0.7500 0.2500
C97_3 C 0.3874(9) 0.6731(6) 0.3269(6)
O20_3 O 0.3781(3) 0.6537(3) 0.3199(4)
N10_3 N 0.5000 0.7258(9) 0.2742(9)
C98_3 C 0.4058(5) 0.6853(3) 0.3147(3)
C99_3 C 0.4145(5) 0.6770(4) 0.2950(5)
H49_3 H 0.4091 0.6624 0.2894
C100_3 C 0.4520(10) 0.7360(9) 0.2640(9)
C101_3 C 0.4601(10) 0.7209(7) 0.2791(7)
C102_3 C 0.4409(5) 0.7079(4) 0.2921(4)
C103_3 C 0.4307(5) 0.6886(5) 0.2825(4)
H50_3 H 0.4350 0.6835 0.2674
C104_3 C 0.4285(7) 0.7416(4) 0.2584(4)
H51_3 H 0.4151 0.7348 0.2652
C105_3 C 0.4810(12) 0.7147(8) 0.2853(8)
C106_3 C 0.4887(6) 0.6992(6) 0.3008(6)
H52_3 H 0.4792 0.6897 0.3103
N11_3 N 0.5359(11) 0.7500 0.2500
C107_3 C 0.6126(9) 0.6731(6) 0.3269(6)
C108_3 C 0.5942(5) 0.6853(3) 0.3147(3)
C109_3 C 0.5855(5) 0.7050(5) 0.3230(4)
H53_3 H 0.5909 0.7106 0.3376
C110_3 C 0.5480(10) 0.7360(9) 0.2640(9)
C111_3 C 0.5399(10) 0.7209(7) 0.2791(7)
C112_3 C 0.5591(5) 0.7079(4) 0.2921(4)
C113_3 C 0.5693(5) 0.7175(4) 0.3114(5)
H54_3 H 0.5650 0.7326 0.3165
C114_3 C 0.5715(7) 0.7416(4) 0.2584(4)
H55_3 H 0.5849 0.7348 0.2652
C115_3 C 0.5190(12) 0.7147(8) 0.2853(8)
C116_3 C 0.5113(6) 0.6992(6) 0.3008(6)
H56_3 H 0.5208 0.6897 0.3103
C117_3 C 0.3874(9) 0.8269(6) 0.1731(6)
O22_3 O 0.3781(3) 0.8463(3) 0.1801(4)
N12_3 N 0.5000 0.7742(9) 0.2258(9)
C118_3 C 0.4058(5) 0.8147(3) 0.1853(3)
C119_3 C 0.4145(5) 0.8230(4) 0.2050(5)
H57_3 H 0.4091 0.8376 0.2106
C120_3 C 0.4520(10) 0.7640(9) 0.2360(9)
C121_3 C 0.4601(10) 0.7791(7) 0.2209(7)
C122_3 C 0.4409(5) 0.7921(4) 0.2079(4)
C123_3 C 0.4307(5) 0.8114(5) 0.2175(4)
H58_3 H 0.4350 0.8165 0.2326
C124_3 C 0.4285(7) 0.7584(4) 0.2416(4)
H59_3 H 0.4151 0.7652 0.2348
C125_3 C 0.4810(12) 0.7853(8) 0.2147(8)
C126_3 C 0.4887(6) 0.8008(6) 0.1992(6)
H60_3 H 0.4792 0.8103 0.1897
C127_3 C 0.6126(9) 0.8269(6) 0.1731(6)
O23_3 O 0.6219(3) 0.8199(4) 0.1537(3)
C128_3 C 0.5942(5) 0.8147(3) 0.1853(3)
C129_3 C 0.5855(5) 0.7950(5) 0.1770(4)
H61_3 H 0.5909 0.7894 0.1624
C130_3 C 0.5480(10) 0.7640(9) 0.2360(9)
C131_3 C 0.5399(10) 0.7791(7) 0.2209(7)
C132_3 C 0.5591(5) 0.7921(4) 0.2079(4)
C133_3 C 0.5693(5) 0.7825(4) 0.1886(5)
H62_3 H 0.5650 0.7674 0.1835
C134_3 C 0.5715(7) 0.7584(4) 0.2416(4)
H63_3 H 0.5849 0.7652 0.2348
C135_3 C 0.5190(12) 0.7853(8) 0.2147(8)
C136_3 C 0.5113(6) 0.8008(6) 0.1992(6)
H64_3 H 0.5208 0.8103 0.1897
C137_3 C 0.5855(5) 0.6770(4) 0.2950(5)
H65_3 H 0.5909 0.6624 0.2894
C138_3 C 0.5693(5) 0.6886(5) 0.2825(4)
H66_3 H 0.5650 0.6835 0.2674
O25_3 O 0.3781(3) 0.6801(4) 0.3463(3)
C139_3 C 0.4145(5) 0.7050(5) 0.3230(4)
H67_3 H 0.4091 0.7106 0.3376
C140_3 C 0.4307(5) 0.7175(4) 0.3114(5)
H68_3 H 0.4350 0.7326 0.3165
O26_3 O 0.6219(3) 0.8463(3) 0.1801(4)
C141_3 C 0.5855(5) 0.8230(4) 0.2050(5)
H69_3 H 0.5909 0.8376 0.2106
C142_3 C 0.5693(5) 0.8114(5) 0.2175(4)
H70_3 H 0.5650 0.8165 0.2326
O27_3 O 0.3781(3) 0.8199(4) 0.1537(3)
C143_3 C 0.4145(5) 0.7950(5) 0.1770(4)
H71_3 H 0.4091 0.7894 0.1624
C144_3 C 0.4307(5) 0.7825(4) 0.1886(5)
H72_3 H 0.4350 0.7674 0.1835
O32_3 O 0.5000 0.7218(4) 0.2218(4)
O35_3 O 0.2782(4) 0.7782(4) 0.5000
O36_3 O 0.2218(4) 0.5000 0.2782(4)
O37_3 O 0.2218(4) 0.7218(4) 0.5000
O38_3 O 0.5000 0.7782(4) 0.2782(4)
U5_3 U 0.34812(5) 0.84812(5) 0.15188(5)
U6_3 U 0.65188(5) 0.84812(5) 0.15188(5)
U7_3 U 0.15188(5) 0.65188(5) 0.15188(5)
U8_3 U 0.15188(5) 0.34812(5) 0.15188(5)
U9_3 U 0.15188(5) 0.84812(5) 0.34812(5)
U10_3 U 0.15188(5) 0.84812(5) 0.65188(5)
U1_4 U 0.65188(5) 0.34812(5) 0.34812(5)
Co1_4 Co 0.7500 0.5000 0.2500
N1_4 N 0.7500 0.4641(11) 0.2500
C1_4 C 0.6731(6) 0.3874(9) 0.3269(6)
O1_4 O 0.6801(4) 0.3781(3) 0.3463(3)
O2_4 O 0.6343(2) 0.3657(2) 0.3657(2)
N2_4 N 0.7258(9) 0.5000 0.2742(9)
C2_4 C 0.6853(3) 0.4058(5) 0.3147(3)
C3_4 C 0.7050(5) 0.4145(5) 0.3230(4)
H1_4 H 0.7106 0.4091 0.3376
O3_4 O 0.6696(2) 0.3304(2) 0.3304(2)
C4_4 C 0.7360(9) 0.4520(10) 0.2640(9)
C5_4 C 0.7209(7) 0.4601(10) 0.2791(7)
C6_4 C 0.7079(4) 0.4409(5) 0.2921(4)
C7_4 C 0.7175(4) 0.4307(5) 0.3114(5)
H2_4 H 0.7326 0.4350 0.3165
O4_4 O 0.7218(4) 0.5000 0.2218(4)
C8_4 C 0.7416(4) 0.4285(7) 0.2584(4)
H3_4 H 0.7348 0.4151 0.2652
C9_4 C 0.7147(8) 0.4810(12) 0.2853(8)
C10_4 C 0.6992(6) 0.4887(6) 0.3008(6)
H4_4 H 0.6897 0.4792 0.3103
N3_4 N 0.7500 0.5359(11) 0.2500
C11_4 C 0.6731(6) 0.6126(9) 0.3269(6)
C12_4 C 0.6853(3) 0.5942(5) 0.3147(3)
C13_4 C 0.6770(4) 0.5855(5) 0.2950(5)
H5_4 H 0.6624 0.5909 0.2894
C14_4 C 0.7360(9) 0.5480(10) 0.2640(9)
C15_4 C 0.7209(7) 0.5399(10) 0.2791(7)
C16_4 C 0.7079(4) 0.5591(5) 0.2921(4)
C17_4 C 0.6886(5) 0.5693(5) 0.2825(4)
H6_4 H 0.6835 0.5650 0.2674
C18_4 C 0.7416(4) 0.5715(7) 0.2584(4)
H7_4 H 0.7348 0.5849 0.2652
C19_4 C 0.7147(8) 0.5190(12) 0.2853(8)
C20_4 C 0.6992(6) 0.5113(6) 0.3008(6)
H8_4 H 0.6897 0.5208 0.3103
C21_4 C 0.8269(6) 0.3874(9) 0.1731(6)
O6_4 O 0.8199(4) 0.3781(3) 0.1537(3)
N4_4 N 0.7742(9) 0.5000 0.2258(9)
C22_4 C 0.8147(3) 0.4058(5) 0.1853(3)
C23_4 C 0.7950(5) 0.4145(5) 0.1770(4)
H9_4 H 0.7894 0.4091 0.1624
C24_4 C 0.7640(9) 0.4520(10) 0.2360(9)
C25_4 C 0.7791(7) 0.4601(10) 0.2209(7)
C26_4 C 0.7921(4) 0.4409(5) 0.2079(4)
C27_4 C 0.7825(4) 0.4307(5) 0.1886(5)
H10_4 H 0.7674 0.4350 0.1835
C28_4 C 0.7584(4) 0.4285(7) 0.2416(4)
H11_4 H 0.7652 0.4151 0.2348
C29_4 C 0.7853(8) 0.4810(12) 0.2147(8)
C30_4 C 0.8008(6) 0.4887(6) 0.1992(6)
H12_4 H 0.8103 0.4792 0.1897
C31_4 C 0.8269(6) 0.6126(9) 0.1731(6)
O7_4 O 0.8463(3) 0.6219(3) 0.1801(4)
C32_4 C 0.8147(3) 0.5942(5) 0.1853(3)
C33_4 C 0.8230(4) 0.5855(5) 0.2050(5)
H13_4 H 0.8376 0.5909 0.2106
C34_4 C 0.7640(9) 0.5480(10) 0.2360(9)
C35_4 C 0.7791(7) 0.5399(10) 0.2209(7)
C36_4 C 0.7921(4) 0.5591(5) 0.2079(4)
C37_4 C 0.8114(5) 0.5693(5) 0.2175(4)
H14_4 H 0.8165 0.5650 0.2326
C38_4 C 0.7584(4) 0.5715(7) 0.2416(4)
H15_4 H 0.7652 0.5849 0.2348
C39_4 C 0.7853(8) 0.5190(12) 0.2147(8)
C40_4 C 0.8008(6) 0.5113(6) 0.1992(6)
H16_4 H 0.8103 0.5208 0.1897
C41_4 C 0.7050(5) 0.5855(5) 0.3230(4)
H17_4 H 0.7106 0.5909 0.3376
C42_4 C 0.7175(4) 0.5693(5) 0.3114(5)
H18_4 H 0.7326 0.5650 0.3165
O9_4 O 0.6537(3) 0.3781(3) 0.3199(4)
C43_4 C 0.6770(4) 0.4145(5) 0.2950(5)
H19_4 H 0.6624 0.4091 0.2894
C44_4 C 0.6886(5) 0.4307(5) 0.2825(4)
H20_4 H 0.6835 0.4350 0.2674
O10_4 O 0.8199(4) 0.6219(3) 0.1537(3)
C45_4 C 0.7950(5) 0.5855(5) 0.1770(4)
H21_4 H 0.7894 0.5909 0.1624
C46_4 C 0.7825(4) 0.5693(5) 0.1886(5)
H22_4 H 0.7674 0.5650 0.1835
O11_4 O 0.8463(3) 0.3781(3) 0.1801(4)
C47_4 C 0.8230(4) 0.4145(5) 0.2050(5)
H23_4 H 0.8376 0.4091 0.2106
C48_4 C 0.8114(5) 0.4307(5) 0.2175(4)
H24_4 H 0.8165 0.4350 0.2326
Co2_4 Co 0.7500 0.2500 0.5000
N5_4 N 0.7500 0.2500 0.4641(11)
C49_4 C 0.6731(6) 0.3269(6) 0.3874(9)
O12_4 O 0.6537(3) 0.3199(4) 0.3781(3)
N6_4 N 0.7258(9) 0.2742(9) 0.5000
C50_4 C 0.6853(3) 0.3147(3) 0.4058(5)
C51_4 C 0.6770(4) 0.2950(5) 0.4145(5)
H25_4 H 0.6624 0.2894 0.4091
C52_4 C 0.7360(9) 0.2640(9) 0.4520(10)
C53_4 C 0.7209(7) 0.2791(7) 0.4601(10)
C54_4 C 0.7079(4) 0.2921(4) 0.4409(5)
C55_4 C 0.6886(5) 0.2825(4) 0.4307(5)
H26_4 H 0.6835 0.2674 0.4350
C56_4 C 0.7416(4) 0.2584(4) 0.4285(7)
H27_4 H 0.7348 0.2652 0.4151
C57_4 C 0.7147(8) 0.2853(8) 0.4810(12)
C58_4 C 0.6992(6) 0.3008(6) 0.4887(6)
H28_4 H 0.6897 0.3103 0.4792
N7_4 N 0.7500 0.2500 0.5359(11)
C59_4 C 0.6731(6) 0.3269(6) 0.6126(9)
C60_4 C 0.6853(3) 0.3147(3) 0.5942(5)
C61_4 C 0.7050(5) 0.3230(4) 0.5855(5)
H29_4 H 0.7106 0.3376 0.5909
C62_4 C 0.7360(9) 0.2640(9) 0.5480(10)
C63_4 C 0.7209(7) 0.2791(7) 0.5399(10)
C64_4 C 0.7079(4) 0.2921(4) 0.5591(5)
C65_4 C 0.7175(4) 0.3114(5) 0.5693(5)
H30_4 H 0.7326 0.3165 0.5650
C66_4 C 0.7416(4) 0.2584(4) 0.5715(7)
H31_4 H 0.7348 0.2652 0.5849
C67_4 C 0.7147(8) 0.2853(8) 0.5190(12)
C68_4 C 0.6992(6) 0.3008(6) 0.5113(6)
H32_4 H 0.6897 0.3103 0.5208
C69_4 C 0.8269(6) 0.1731(6) 0.3874(9)
O14_4 O 0.8463(3) 0.1801(4) 0.3781(3)
N8_4 N 0.7742(9) 0.2258(9) 0.5000
C70_4 C 0.8147(3) 0.1853(3) 0.4058(5)
C71_4 C 0.8230(4) 0.2050(5) 0.4145(5)
H33_4 H 0.8376 0.2106 0.4091
C72_4 C 0.7640(9) 0.2360(9) 0.4520(10)
C73_4 C 0.7791(7) 0.2209(7) 0.4601(10)
C74_4 C 0.7921(4) 0.2079(4) 0.4409(5)
C75_4 C 0.8114(5) 0.2175(4) 0.4307(5)
H34_4 H 0.8165 0.2326 0.4350
C76_4 C 0.7584(4) 0.2416(4) 0.4285(7)
H35_4 H 0.7652 0.2348 0.4151
C77_4 C 0.7853(8) 0.2147(8) 0.4810(12)
C78_4 C 0.8008(6) 0.1992(6) 0.4887(6)
H36_4 H 0.8103 0.1897 0.4792
C79_4 C 0.8269(6) 0.1731(6) 0.6126(9)
O15_4 O 0.8199(4) 0.1537(3) 0.6219(3)
C80_4 C 0.8147(3) 0.1853(3) 0.5942(5)
C81_4 C 0.7950(5) 0.1770(4) 0.5855(5)
H37_4 H 0.7894 0.1624 0.5909
C82_4 C 0.7640(9) 0.2360(9) 0.5480(10)
C83_4 C 0.7791(7) 0.2209(7) 0.5399(10)
C84_4 C 0.7921(4) 0.2079(4) 0.5591(5)
C85_4 C 0.7825(4) 0.1886(5) 0.5693(5)
H38_4 H 0.7674 0.1835 0.5650
C86_4 C 0.7584(4) 0.2416(4) 0.5715(7)
H39_4 H 0.7652 0.2348 0.5849
C87_4 C 0.7853(8) 0.2147(8) 0.5190(12)
C88_4 C 0.8008(6) 0.1992(6) 0.5113(6)
H40_4 H 0.8103 0.1897 0.5208
C89_4 C 0.6770(4) 0.2950(5) 0.5855(5)
H41_4 H 0.6624 0.2894 0.5909
C90_4 C 0.6886(5) 0.2825(4) 0.5693(5)
H42_4 H 0.6835 0.2674 0.5650
O17_4 O 0.6801(4) 0.3463(3) 0.3781(3)
C91_4 C 0.7050(5) 0.3230(4) 0.4145(5)
H43_4 H 0.7106 0.3376 0.4091
C92_4 C 0.7175(4) 0.3114(5) 0.4307(5)
H44_4 H 0.7326 0.3165 0.4350
O18_4 O 0.8463(3) 0.1801(4) 0.6219(3)
C93_4 C 0.8230(4) 0.2050(5) 0.5855(5)
H45_4 H 0.8376 0.2106 0.5909
C94_4 C 0.8114(5) 0.2175(4) 0.5693(5)
H46_4 H 0.8165 0.2326 0.5650
O19_4 O 0.8199(4) 0.1537(3) 0.3781(3)
C95_4 C 0.7950(5) 0.1770(4) 0.4145(5)
H47_4 H 0.7894 0.1624 0.4091
C96_4 C 0.7825(4) 0.1886(5) 0.4307(5)
H48_4 H 0.7674 0.1835 0.4350
Co3_4 Co 0.5000 0.2500 0.2500
N9_4 N 0.5359(11) 0.2500 0.2500
C97_4 C 0.6126(9) 0.3269(6) 0.3269(6)
O20_4 O 0.6219(3) 0.3463(3) 0.3199(4)
N10_4 N 0.5000 0.2742(9) 0.2742(9)
C98_4 C 0.5942(5) 0.3147(3) 0.3147(3)
C99_4 C 0.5855(5) 0.3230(4) 0.2950(5)
H49_4 H 0.5909 0.3376 0.2894
C100_4 C 0.5480(10) 0.2640(9) 0.2640(9)
C101_4 C 0.5399(10) 0.2791(7) 0.2791(7)
C102_4 C 0.5591(5) 0.2921(4) 0.2921(4)
C103_4 C 0.5693(5) 0.3114(5) 0.2825(4)
H50_4 H 0.5650 0.3165 0.2674
C104_4 C 0.5715(7) 0.2584(4) 0.2584(4)
H51_4 H 0.5849 0.2652 0.2652
C105_4 C 0.5190(12) 0.2853(8) 0.2853(8)
C106_4 C 0.5113(6) 0.3008(6) 0.3008(6)
H52_4 H 0.5208 0.3103 0.3103
N11_4 N 0.4641(11) 0.2500 0.2500
C107_4 C 0.3874(9) 0.3269(6) 0.3269(6)
C108_4 C 0.4058(5) 0.3147(3) 0.3147(3)
C109_4 C 0.4145(5) 0.2950(5) 0.3230(4)
H53_4 H 0.4091 0.2894 0.3376
C110_4 C 0.4520(10) 0.2640(9) 0.2640(9)
C111_4 C 0.4601(10) 0.2791(7) 0.2791(7)
C112_4 C 0.4409(5) 0.2921(4) 0.2921(4)
C113_4 C 0.4307(5) 0.2825(4) 0.3114(5)
H54_4 H 0.4350 0.2674 0.3165
C114_4 C 0.4285(7) 0.2584(4) 0.2584(4)
H55_4 H 0.4151 0.2652 0.2652
C115_4 C 0.4810(12) 0.2853(8) 0.2853(8)
C116_4 C 0.4887(6) 0.3008(6) 0.3008(6)
H56_4 H 0.4792 0.3103 0.3103
C117_4 C 0.6126(9) 0.1731(6) 0.1731(6)
O22_4 O 0.6219(3) 0.1537(3) 0.1801(4)
N12_4 N 0.5000 0.2258(9) 0.2258(9)
C118_4 C 0.5942(5) 0.1853(3) 0.1853(3)
C119_4 C 0.5855(5) 0.1770(4) 0.2050(5)
H57_4 H 0.5909 0.1624 0.2106
C120_4 C 0.5480(10) 0.2360(9) 0.2360(9)
C121_4 C 0.5399(10) 0.2209(7) 0.2209(7)
C122_4 C 0.5591(5) 0.2079(4) 0.2079(4)
C123_4 C 0.5693(5) 0.1886(5) 0.2175(4)
H58_4 H 0.5650 0.1835 0.2326
C124_4 C 0.5715(7) 0.2416(4) 0.2416(4)
H59_4 H 0.5849 0.2348 0.2348
C125_4 C 0.5190(12) 0.2147(8) 0.2147(8)
C126_4 C 0.5113(6) 0.1992(6) 0.1992(6)
H60_4 H 0.5208 0.1897 0.1897
C127_4 C 0.3874(9) 0.1731(6) 0.1731(6)
O23_4 O 0.3781(3) 0.1801(4) 0.1537(3)
C128_4 C 0.4058(5) 0.1853(3) 0.1853(3)
C129_4 C 0.4145(5) 0.2050(5) 0.1770(4)
H61_4 H 0.4091 0.2106 0.1624
C130_4 C 0.4520(10) 0.2360(9) 0.2360(9)
C131_4 C 0.4601(10) 0.2209(7) 0.2209(7)
C132_4 C 0.4409(5) 0.2079(4) 0.2079(4)
C133_4 C 0.4307(5) 0.2175(4) 0.1886(5)
H62_4 H 0.4350 0.2326 0.1835
C134_4 C 0.4285(7) 0.2416(4) 0.2416(4)
H63_4 H 0.4151 0.2348 0.2348
C135_4 C 0.4810(12) 0.2147(8) 0.2147(8)
C136_4 C 0.4887(6) 0.1992(6) 0.1992(6)
H64_4 H 0.4792 0.1897 0.1897
C137_4 C 0.4145(5) 0.3230(4) 0.2950(5)
H65_4 H 0.4091 0.3376 0.2894
C138_4 C 0.4307(5) 0.3114(5) 0.2825(4)
H66_4 H 0.4350 0.3165 0.2674
O25_4 O 0.6219(3) 0.3199(4) 0.3463(3)
C139_4 C 0.5855(5) 0.2950(5) 0.3230(4)
H67_4 H 0.5909 0.2894 0.3376
C140_4 C 0.5693(5) 0.2825(4) 0.3114(5)
H68_4 H 0.5650 0.2674 0.3165
O26_4 O 0.3781(3) 0.1537(3) 0.1801(4)
C141_4 C 0.4145(5) 0.1770(4) 0.2050(5)
H69_4 H 0.4091 0.1624 0.2106
C142_4 C 0.4307(5) 0.1886(5) 0.2175(4)
H70_4 H 0.4350 0.1835 0.2326
O27_4 O 0.6219(3) 0.1801(4) 0.1537(3)
C143_4 C 0.5855(5) 0.2050(5) 0.1770(4)
H71_4 H 0.5909 0.2106 0.1624
C144_4 C 0.5693(5) 0.2175(4) 0.1886(5)
H72_4 H 0.5650 0.2326 0.1835
O32_4 O 0.5000 0.2782(4) 0.2218(4)
O35_4 O 0.7218(4) 0.2218(4) 0.5000
O36_4 O 0.7782(4) 0.5000 0.2782(4)
O37_4 O 0.7782(4) 0.2782(4) 0.5000
O38_4 O 0.5000 0.2218(4) 0.2782(4)
U5_4 U 0.65188(5) 0.15188(5) 0.15188(5)
U6_4 U 0.34812(5) 0.15188(5) 0.15188(5)
U7_4 U 0.84812(5) 0.34812(5) 0.15188(5)
U8_4 U 0.84812(5) 0.65188(5) 0.15188(5)
U9_4 U 0.84812(5) 0.15188(5) 0.34812(5)
U10_4 U 0.84812(5) 0.15188(5) 0.65188(5)
Co1_5 Co 0.7500 0.0000 0.2500
N1_5 N 0.7500 0.0359(11) 0.2500
C1_5 C 0.6731(6) 0.1126(9) 0.1731(6)
O1_5 O 0.6801(4) 0.1219(3) 0.1537(3)
O2_5 O 0.6343(2) 0.1343(2) 0.1343(2)
N2_5 N 0.7258(9) 0.0000 0.2258(9)
C2_5 C 0.6853(3) 0.0942(5) 0.1853(3)
C3_5 C 0.7050(5) 0.0855(5) 0.1770(4)
H1_5 H 0.7106 0.0909 0.1624
O3_5 O 0.6696(2) 0.1696(2) 0.1696(2)
C4_5 C 0.7360(9) 0.0480(10) 0.2360(9)
C5_5 C 0.7209(7) 0.0399(10) 0.2209(7)
C6_5 C 0.7079(4) 0.0591(5) 0.2079(4)
C7_5 C 0.7175(4) 0.0693(5) 0.1886(5)
H2_5 H 0.7326 0.0650 0.1835
O4_5 O 0.7218(4) 0.0000 0.2782(4)
C8_5 C 0.7416(4) 0.0715(7) 0.2416(4)
H3_5 H 0.7348 0.0849 0.2348
C9_5 C 0.7147(8) 0.0190(12) 0.2147(8)
C10_5 C 0.6992(6) 0.0113(6) 0.1992(6)
H4_5 H 0.6897 0.0208 0.1897
C21_5 C 0.8269(6) 0.1126(9) 0.3269(6)
O6_5 O 0.8199(4) 0.1219(3) 0.3463(3)
N4_5 N 0.7742(9) 0.0000 0.2742(9)
C22_5 C 0.8147(3) 0.0942(5) 0.3147(3)
C23_5 C 0.7950(5) 0.0855(5) 0.3230(4)
H9_5 H 0.7894 0.0909 0.3376
C24_5 C 0.7640(9) 0.0480(10) 0.2640(9)
C25_5 C 0.7791(7) 0.0399(10) 0.2791(7)
C26_5 C 0.7921(4) 0.0591(5) 0.2921(4)
C27_5 C 0.7825(4) 0.0693(5) 0.3114(5)
H10_5 H 0.7674 0.0650 0.3165
C28_5 C 0.7584(4) 0.0715(7) 0.2584(4)
H11_5 H 0.7652 0.0849 0.2652
C29_5 C 0.7853(8) 0.0190(12) 0.2853(8)
C30_5 C 0.8008(6) 0.0113(6) 0.3008(6)
H12_5 H 0.8103 0.0208 0.3103
O9_5 O 0.6537(3) 0.1219(3) 0.1801(4)
C43_5 C 0.6770(4) 0.0855(5) 0.2050(5)
H19_5 H 0.6624 0.0909 0.2106
C44_5 C 0.6886(5) 0.0693(5) 0.2175(4)
H20_5 H 0.6835 0.0650 0.2326
O11_5 O 0.8463(3) 0.1219(3) 0.3199(4)
C47_5 C 0.8230(4) 0.0855(5) 0.2950(5)
H23_5 H 0.8376 0.0909 0.2894
C48_5 C 0.8114(5) 0.0693(5) 0.2825(4)
H24_5 H 0.8165 0.0650 0.2674
Co2_5 Co 0.7500 0.2500 0.0000
N5_5 N 0.7500 0.2500 0.0359(11)
C49_5 C 0.6731(6) 0.1731(6) 0.1126(9)
O12_5 O 0.6537(3) 0.1801(4) 0.1219(3)
N6_5 N 0.7258(9) 0.2258(9) 0.0000
C50_5 C 0.6853(3) 0.1853(3) 0.0942(5)
C51_5 C 0.6770(4) 0.2050(5) 0.0855(5)
H25_5 H 0.6624 0.2106 0.0909
C52_5 C 0.7360(9) 0.2360(9) 0.0480(10)
C53_5 C 0.7209(7) 0.2209(7) 0.0399(10)
C54_5 C 0.7079(4) 0.2079(4) 0.0591(5)
C55_5 C 0.6886(5) 0.2175(4) 0.0693(5)
H26_5 H 0.6835 0.2326 0.0650
C56_5 C 0.7416(4) 0.2416(4) 0.0715(7)
H27_5 H 0.7348 0.2348 0.0849
C57_5 C 0.7147(8) 0.2147(8) 0.0190(12)
C58_5 C 0.6992(6) 0.1992(6) 0.0113(6)
H28_5 H 0.6897 0.1897 0.0208
C69_5 C 0.8269(6) 0.3269(6) 0.1126(9)
O14_5 O 0.8463(3) 0.3199(4) 0.1219(3)
N8_5 N 0.7742(9) 0.2742(9) 0.0000
C70_5 C 0.8147(3) 0.3147(3) 0.0942(5)
C71_5 C 0.8230(4) 0.2950(5) 0.0855(5)
H33_5 H 0.8376 0.2894 0.0909
C72_5 C 0.7640(9) 0.2640(9) 0.0480(10)
C73_5 C 0.7791(7) 0.2791(7) 0.0399(10)
C74_5 C 0.7921(4) 0.2921(4) 0.0591(5)
C75_5 C 0.8114(5) 0.2825(4) 0.0693(5)
H34_5 H 0.8165 0.2674 0.0650
C76_5 C 0.7584(4) 0.2584(4) 0.0715(7)
H35_5 H 0.7652 0.2652 0.0849
C77_5 C 0.7853(8) 0.2853(8) 0.0190(12)
C78_5 C 0.8008(6) 0.3008(6) 0.0113(6)
H36_5 H 0.8103 0.3103 0.0208
O17_5 O 0.6801(4) 0.1537(3) 0.1219(3)
C91_5 C 0.7050(5) 0.1770(4) 0.0855(5)
H43_5 H 0.7106 0.1624 0.0909
C92_5 C 0.7175(4) 0.1886(5) 0.0693(5)
H44_5 H 0.7326 0.1835 0.0650
O19_5 O 0.8199(4) 0.3463(3) 0.1219(3)
C95_5 C 0.7950(5) 0.3230(4) 0.0855(5)
H47_5 H 0.7894 0.3376 0.0909
C96_5 C 0.7825(4) 0.3114(5) 0.0693(5)
H48_5 H 0.7674 0.3165 0.0650
O30_2 O 0.3657(2) 0.1343(2) 0.1343(2)
O31_2 O 0.3304(2) 0.1696(2) 0.1696(2)
O35_5 O 0.7218(4) 0.2782(4) 0.0000
O36_5 O 0.7782(4) 0.0000 0.2218(4)
O37_5 O 0.7782(4) 0.2218(4) 0.0000
O41_2 O 0.3199(4) 0.1537(3) 0.1219(3)
O44_2 O 0.3463(3) 0.1219(3) 0.1801(4)
O46_2 O 0.3199(4) 0.1219(3) 0.1537(3)
O47_2 O 0.3463(3) 0.1801(4) 0.1219(3)
Co2_6 Co 0.7500 0.2500 1.0000
N6_6 N 0.7258(9) 0.2258(9) 1.0000
N7_5 N 0.7500 0.2500 0.9641(11)
C59_5 C 0.6731(6) 0.1731(6) 0.8874(9)
O13_3 O 0.6801(4) 0.1537(3) 0.8781(3)
C60_5 C 0.6853(3) 0.1853(3) 0.9058(5)
C61_5 C 0.7050(5) 0.1770(4) 0.9145(5)
H29_5 H 0.7106 0.1624 0.9091
C62_5 C 0.7360(9) 0.2360(9) 0.9520(10)
C63_5 C 0.7209(7) 0.2209(7) 0.9601(10)
C64_5 C 0.7079(4) 0.2079(4) 0.9409(5)
C65_5 C 0.7175(4) 0.1886(5) 0.9307(5)
H30_5 H 0.7326 0.1835 0.9350
C66_5 C 0.7416(4) 0.2416(4) 0.9285(7)
H31_5 H 0.7348 0.2348 0.9151
C67_5 C 0.7147(8) 0.2147(8) 0.9810(12)
C68_5 C 0.6992(6) 0.1992(6) 0.9887(6)
H32_5 H 0.6897 0.1897 0.9792
N8_6 N 0.7742(9) 0.2742(9) 1.0000
C79_5 C 0.8269(6) 0.3269(6) 0.8874(9)
O15_5 O 0.8199(4) 0.3463(3) 0.8781(3)
C80_5 C 0.8147(3) 0.3147(3) 0.9058(5)
C81_5 C 0.7950(5) 0.3230(4) 0.9145(5)
H37_5 H 0.7894 0.3376 0.9091
C82_5 C 0.7640(9) 0.2640(9) 0.9520(10)
C83_5 C 0.7791(7) 0.2791(7) 0.9601(10)
C84_5 C 0.7921(4) 0.2921(4) 0.9409(5)
C85_5 C 0.7825(4) 0.3114(5) 0.9307(5)
H38_5 H 0.7674 0.3165 0.9350
C86_5 C 0.7584(4) 0.2584(4) 0.9285(7)
H39_5 H 0.7652 0.2652 0.9151
C87_5 C 0.7853(8) 0.2853(8) 0.9810(12)
C88_5 C 0.8008(6) 0.3008(6) 0.9887(6)
H40_5 H 0.8103 0.3103 0.9792
O16_3 O 0.6537(3) 0.1801(4) 0.8781(3)
C89_5 C 0.6770(4) 0.2050(5) 0.9145(5)
H41_5 H 0.6624 0.2106 0.9091
C90_5 C 0.6886(5) 0.2175(4) 0.9307(5)
H42_5 H 0.6835 0.2326 0.9350
O18_5 O 0.8463(3) 0.3199(4) 0.8781(3)
C93_5 C 0.8230(4) 0.2950(5) 0.9145(5)
H45_5 H 0.8376 0.2894 0.9091
C94_5 C 0.8114(5) 0.2825(4) 0.9307(5)
H46_5 H 0.8165 0.2674 0.9350
O33_3 O 0.6343(2) 0.1343(2) 0.8657(2)
O34_3 O 0.6696(2) 0.1696(2) 0.8304(2)
O35_6 O 0.7218(4) 0.2782(4) 1.0000
O37_6 O 0.7782(4) 0.2218(4) 1.0000
O43_3 O 0.6537(3) 0.1219(3) 0.8199(4)
O45_3 O 0.6801(4) 0.1219(3) 0.8463(3)
Co1_6 Co 0.7500 1.0000 0.2500
N2_6 N 0.7258(9) 1.0000 0.2258(9)
O4_6 O 0.7218(4) 1.0000 0.2782(4)
N3_5 N 0.7500 0.9641(11) 0.2500
C11_5 C 0.6731(6) 0.8874(9) 0.1731(6)
O5_2 O 0.6537(3) 0.8781(3) 0.1801(4)
C12_5 C 0.6853(3) 0.9058(5) 0.1853(3)
C13_5 C 0.6770(4) 0.9145(5) 0.2050(5)
H5_5 H 0.6624 0.9091 0.2106
C14_5 C 0.7360(9) 0.9520(10) 0.2360(9)
C15_5 C 0.7209(7) 0.9601(10) 0.2209(7)
C16_5 C 0.7079(4) 0.9409(5) 0.2079(4)
C17_5 C 0.6886(5) 0.9307(5) 0.2175(4)
H6_5 H 0.6835 0.9350 0.2326
C18_5 C 0.7416(4) 0.9285(7) 0.2416(4)
H7_5 H 0.7348 0.9151 0.2348
C19_5 C 0.7147(8) 0.9810(12) 0.2147(8)
C20_5 C 0.6992(6) 0.9887(6) 0.1992(6)
H8_5 H 0.6897 0.9792 0.1897
N4_6 N 0.7742(9) 1.0000 0.2742(9)
C31_5 C 0.8269(6) 0.8874(9) 0.3269(6)
O7_5 O 0.8463(3) 0.8781(3) 0.3199(4)
C32_5 C 0.8147(3) 0.9058(5) 0.3147(3)
C33_5 C 0.8230(4) 0.9145(5) 0.2950(5)
H13_5 H 0.8376 0.9091 0.2894
C34_5 C 0.7640(9) 0.9520(10) 0.2640(9)
C35_5 C 0.7791(7) 0.9601(10) 0.2791(7)
C36_5 C 0.7921(4) 0.9409(5) 0.2921(4)
C37_5 C 0.8114(5) 0.9307(5) 0.2825(4)
H14_5 H 0.8165 0.9350 0.2674
C38_5 C 0.7584(4) 0.9285(7) 0.2584(4)
H15_5 H 0.7652 0.9151 0.2652
C39_5 C 0.7853(8) 0.9810(12) 0.2853(8)
C40_5 C 0.8008(6) 0.9887(6) 0.3008(6)
H16_5 H 0.8103 0.9792 0.3103
O8_2 O 0.6801(4) 0.8781(3) 0.1537(3)
C41_5 C 0.7050(5) 0.9145(5) 0.1770(4)
H17_5 H 0.7106 0.9091 0.1624
C42_5 C 0.7175(4) 0.9307(5) 0.1886(5)
H18_5 H 0.7326 0.9350 0.1835
O10_5 O 0.8199(4) 0.8781(3) 0.3463(3)
C45_5 C 0.7950(5) 0.9145(5) 0.3230(4)
H21_5 H 0.7894 0.9091 0.3376
C46_5 C 0.7825(4) 0.9307(5) 0.3114(5)
H22_5 H 0.7674 0.9350 0.3165
O28_2 O 0.6343(2) 0.8657(2) 0.1343(2)
O29_2 O 0.6696(2) 0.8304(2) 0.1696(2)
O36_6 O 0.7782(4) 1.0000 0.2218(4)
O42_2 O 0.6801(4) 0.8463(3) 0.1219(3)
O48_2 O 0.6537(3) 0.8199(4) 0.1219(3)
Co1_7 Co 0.2500 -0.0000 0.2500
N2_7 N 0.2742(9) -0.0000 0.2258(9)
O4_7 O 0.2782(4) -0.0000 0.2782(4)
N3_6 N 0.2500 0.0359(11) 0.2500
C11_6 C 0.3269(6) 0.1126(9) 0.1731(6)
C12_6 C 0.3147(3) 0.0942(5) 0.1853(3)
C13_6 C 0.3230(4) 0.0855(5) 0.2050(5)
H5_6 H 0.3376 0.0909 0.2106
C14_6 C 0.2640(9) 0.0480(10) 0.2360(9)
C15_6 C 0.2791(7) 0.0399(10) 0.2209(7)
C16_6 C 0.2921(4) 0.0591(5) 0.2079(4)
C17_6 C 0.3114(5) 0.0693(5) 0.2175(4)
H6_6 H 0.3165 0.0650 0.2326
C18_6 C 0.2584(4) 0.0715(7) 0.2416(4)
H7_6 H 0.2652 0.0849 0.2348
C19_6 C 0.2853(8) 0.0190(12) 0.2147(8)
C20_6 C 0.3008(6) 0.0113(6) 0.1992(6)
H8_6 H 0.3103 0.0208 0.1897
N4_7 N 0.2258(9) -0.0000 0.2742(9)
C31_6 C 0.1731(6) 0.1126(9) 0.3269(6)
O7_6 O 0.1537(3) 0.1219(3) 0.3199(4)
C32_6 C 0.1853(3) 0.0942(5) 0.3147(3)
C33_6 C 0.1770(4) 0.0855(5) 0.2950(5)
H13_6 H 0.1624 0.0909 0.2894
C34_6 C 0.2360(9) 0.0480(10) 0.2640(9)
C35_6 C 0.2209(7) 0.0399(10) 0.2791(7)
C36_6 C 0.2079(4) 0.0591(5) 0.2921(4)
C37_6 C 0.1886(5) 0.0693(5) 0.2825(4)
H14_6 H 0.1835 0.0650 0.2674
C38_6 C 0.2416(4) 0.0715(7) 0.2584(4)
H15_6 H 0.2348 0.0849 0.2652
C39_6 C 0.2147(8) 0.0190(12) 0.2853(8)
C40_6 C 0.1992(6) 0.0113(6) 0.3008(6)
H16_6 H 0.1897 0.0208 0.3103
C41_6 C 0.2950(5) 0.0855(5) 0.1770(4)
H17_6 H 0.2894 0.0909 0.1624
C42_6 C 0.2825(4) 0.0693(5) 0.1886(5)
H18_6 H 0.2674 0.0650 0.1835
O10_6 O 0.1801(4) 0.1219(3) 0.3463(3)
C45_6 C 0.2050(5) 0.0855(5) 0.3230(4)
H21_6 H 0.2106 0.0909 0.3376
C46_6 C 0.2175(4) 0.0693(5) 0.3114(5)
H22_6 H 0.2326 0.0650 0.3165
O36_7 O 0.2218(4) -0.0000 0.2218(4)
Co1_8 Co 0.2500 1.0000 0.2500
N1_6 N 0.2500 0.9641(11) 0.2500
C1_6 C 0.3269(6) 0.8874(9) 0.1731(6)
O1_6 O 0.3199(4) 0.8781(3) 0.1537(3)
O2_6 O 0.3657(2) 0.8657(2) 0.1343(2)
N2_8 N 0.2742(9) 1.0000 0.2258(9)
C2_6 C 0.3147(3) 0.9058(5) 0.1853(3)
C3_6 C 0.2950(5) 0.9145(5) 0.1770(4)
H1_6 H 0.2894 0.9091 0.1624
O3_6 O 0.3304(2) 0.8304(2) 0.1696(2)
C4_6 C 0.2640(9) 0.9520(10) 0.2360(9)
C5_6 C 0.2791(7) 0.9601(10) 0.2209(7)
C6_6 C 0.2921(4) 0.9409(5) 0.2079(4)
C7_6 C 0.2825(4) 0.9307(5) 0.1886(5)
H2_6 H 0.2674 0.9350 0.1835
O4_8 O 0.2782(4) 1.0000 0.2782(4)
C8_6 C 0.2584(4) 0.9285(7) 0.2416(4)
H3_6 H 0.2652 0.9151 0.2348
C9_6 C 0.2853(8) 0.9810(12) 0.2147(8)
C10_6 C 0.3008(6) 0.9887(6) 0.1992(6)
H4_6 H 0.3103 0.9792 0.1897
C21_6 C 0.1731(6) 0.8874(9) 0.3269(6)
O6_6 O 0.1801(4) 0.8781(3) 0.3463(3)
N4_8 N 0.2258(9) 1.0000 0.2742(9)
C22_6 C 0.1853(3) 0.9058(5) 0.3147(3)
C23_6 C 0.2050(5) 0.9145(5) 0.3230(4)
H9_6 H 0.2106 0.9091 0.3376
C24_6 C 0.2360(9) 0.9520(10) 0.2640(9)
C25_6 C 0.2209(7) 0.9601(10) 0.2791(7)
C26_6 C 0.2079(4) 0.9409(5) 0.2921(4)
C27_6 C 0.2175(4) 0.9307(5) 0.3114(5)
H10_6 H 0.2326 0.9350 0.3165
C28_6 C 0.2416(4) 0.9285(7) 0.2584(4)
H11_6 H 0.2348 0.9151 0.2652
C29_6 C 0.2147(8) 0.9810(12) 0.2853(8)
C30_6 C 0.1992(6) 0.9887(6) 0.3008(6)
H12_6 H 0.1897 0.9792 0.3103
O9_6 O 0.3463(3) 0.8781(3) 0.1801(4)
C43_6 C 0.3230(4) 0.9145(5) 0.2050(5)
H19_6 H 0.3376 0.9091 0.2106
C44_6 C 0.3114(5) 0.9307(5) 0.2175(4)
H20_6 H 0.3165 0.9350 0.2326
O11_6 O 0.1537(3) 0.8781(3) 0.3199(4)
C47_6 C 0.1770(4) 0.9145(5) 0.2950(5)
H23_6 H 0.1624 0.9091 0.2894
C48_6 C 0.1886(5) 0.9307(5) 0.2825(4)
H24_6 H 0.1835 0.9350 0.2674
Co2_7 Co 0.2500 0.7500 0.0000
N5_6 N 0.2500 0.7500 0.0359(11)
C49_6 C 0.3269(6) 0.8269(6) 0.1126(9)
O12_6 O 0.3463(3) 0.8199(4) 0.1219(3)
N6_7 N 0.2742(9) 0.7742(9) 0.0000
C50_6 C 0.3147(3) 0.8147(3) 0.0942(5)
C51_6 C 0.3230(4) 0.7950(5) 0.0855(5)
H25_6 H 0.3376 0.7894 0.0909
C52_6 C 0.2640(9) 0.7640(9) 0.0480(10)
C53_6 C 0.2791(7) 0.7791(7) 0.0399(10)
C54_6 C 0.2921(4) 0.7921(4) 0.0591(5)
C55_6 C 0.3114(5) 0.7825(4) 0.0693(5)
H26_6 H 0.3165 0.7674 0.0650
C56_6 C 0.2584(4) 0.7584(4) 0.0715(7)
H27_6 H 0.2652 0.7652 0.0849
C57_6 C 0.2853(8) 0.7853(8) 0.0190(12)
C58_6 C 0.3008(6) 0.8008(6) 0.0113(6)
H28_6 H 0.3103 0.8103 0.0208
C69_6 C 0.1731(6) 0.6731(6) 0.1126(9)
O14_6 O 0.1537(3) 0.6801(4) 0.1219(3)
N8_7 N 0.2258(9) 0.7258(9) 0.0000
C70_6 C 0.1853(3) 0.6853(3) 0.0942(5)
C71_6 C 0.1770(4) 0.7050(5) 0.0855(5)
H33_6 H 0.1624 0.7106 0.0909
C72_6 C 0.2360(9) 0.7360(9) 0.0480(10)
C73_6 C 0.2209(7) 0.7209(7) 0.0399(10)
C74_6 C 0.2079(4) 0.7079(4) 0.0591(5)
C75_6 C 0.1886(5) 0.7175(4) 0.0693(5)
H34_6 H 0.1835 0.7326 0.0650
C76_6 C 0.2416(4) 0.7416(4) 0.0715(7)
H35_6 H 0.2348 0.7348 0.0849
C77_6 C 0.2147(8) 0.7147(8) 0.0190(12)
C78_6 C 0.1992(6) 0.6992(6) 0.0113(6)
H36_6 H 0.1897 0.6897 0.0208
O17_6 O 0.3199(4) 0.8463(3) 0.1219(3)
C91_6 C 0.2950(5) 0.8230(4) 0.0855(5)
H43_6 H 0.2894 0.8376 0.0909
C92_6 C 0.2825(4) 0.8114(5) 0.0693(5)
H44_6 H 0.2674 0.8165 0.0650
O19_6 O 0.1801(4) 0.6537(3) 0.1219(3)
C95_6 C 0.2050(5) 0.6770(4) 0.0855(5)
H47_6 H 0.2106 0.6624 0.0909
C96_6 C 0.2175(4) 0.6886(5) 0.0693(5)
H48_6 H 0.2326 0.6835 0.0650
O35_7 O 0.2782(4) 0.7218(4) 0.0000
O36_8 O 0.2218(4) 1.0000 0.2218(4)
O37_7 O 0.2218(4) 0.7782(4) 0.0000
Co2_8 Co 0.2500 0.7500 1.0000
N6_8 N 0.2742(9) 0.7742(9) 1.0000
N7_6 N 0.2500 0.7500 0.9641(11)
C59_6 C 0.3269(6) 0.8269(6) 0.8874(9)
O13_4 O 0.3199(4) 0.8463(3) 0.8781(3)
C60_6 C 0.3147(3) 0.8147(3) 0.9058(5)
C61_6 C 0.2950(5) 0.8230(4) 0.9145(5)
H29_6 H 0.2894 0.8376 0.9091
C62_6 C 0.2640(9) 0.7640(9) 0.9520(10)
C63_6 C 0.2791(7) 0.7791(7) 0.9601(10)
C64_6 C 0.2921(4) 0.7921(4) 0.9409(5)
C65_6 C 0.2825(4) 0.8114(5) 0.9307(5)
H30_6 H 0.2674 0.8165 0.9350
C66_6 C 0.2584(4) 0.7584(4) 0.9285(7)
H31_6 H 0.2652 0.7652 0.9151
C67_6 C 0.2853(8) 0.7853(8) 0.9810(12)
C68_6 C 0.3008(6) 0.8008(6) 0.9887(6)
H32_6 H 0.3103 0.8103 0.9792
N8_8 N 0.2258(9) 0.7258(9) 1.0000
C79_6 C 0.1731(6) 0.6731(6) 0.8874(9)
O15_6 O 0.1801(4) 0.6537(3) 0.8781(3)
C80_6 C 0.1853(3) 0.6853(3) 0.9058(5)
C81_6 C 0.2050(5) 0.6770(4) 0.9145(5)
H37_6 H 0.2106 0.6624 0.9091
C82_6 C 0.2360(9) 0.7360(9) 0.9520(10)
C83_6 C 0.2209(7) 0.7209(7) 0.9601(10)
C84_6 C 0.2079(4) 0.7079(4) 0.9409(5)
C85_6 C 0.2175(4) 0.6886(5) 0.9307(5)
H38_6 H 0.2326 0.6835 0.9350
C86_6 C 0.2416(4) 0.7416(4) 0.9285(7)
H39_6 H 0.2348 0.7348 0.9151
C87_6 C 0.2147(8) 0.7147(8) 0.9810(12)
C88_6 C 0.1992(6) 0.6992(6) 0.9887(6)
H40_6 H 0.1897 0.6897 0.9792
O16_4 O 0.3463(3) 0.8199(4) 0.8781(3)
C89_6 C 0.3230(4) 0.7950(5) 0.9145(5)
H41_6 H 0.3376 0.7894 0.9091
C90_6 C 0.3114(5) 0.7825(4) 0.9307(5)
H42_6 H 0.3165 0.7674 0.9350
O18_6 O 0.1537(3) 0.6801(4) 0.8781(3)
C93_6 C 0.1770(4) 0.7050(5) 0.9145(5)
H45_6 H 0.1624 0.7106 0.9091
C94_6 C 0.1886(5) 0.7175(4) 0.9307(5)
H46_6 H 0.1835 0.7326 0.9350
O33_4 O 0.3657(2) 0.8657(2) 0.8657(2)
O34_4 O 0.3304(2) 0.8304(2) 0.8304(2)
O35_8 O 0.2782(4) 0.7218(4) 1.0000
O37_8 O 0.2218(4) 0.7782(4) 1.0000
O43_4 O 0.3463(3) 0.8781(3) 0.8199(4)
O45_4 O 0.3199(4) 0.8781(3) 0.8463(3)
Co2_9 Co 0.2500 0.2500 -0.0000
N6_9 N 0.2742(9) 0.2258(9) -0.0000
N7_7 N 0.2500 0.2500 0.0359(11)
C59_7 C 0.3269(6) 0.1731(6) 0.1126(9)
C60_7 C 0.3147(3) 0.1853(3) 0.0942(5)
C61_7 C 0.2950(5) 0.1770(4) 0.0855(5)
H29_7 H 0.2894 0.1624 0.0909
C62_7 C 0.2640(9) 0.2360(9) 0.0480(10)
C63_7 C 0.2791(7) 0.2209(7) 0.0399(10)
C64_7 C 0.2921(4) 0.2079(4) 0.0591(5)
C65_7 C 0.2825(4) 0.1886(5) 0.0693(5)
H30_7 H 0.2674 0.1835 0.0650
C66_7 C 0.2584(4) 0.2416(4) 0.0715(7)
H31_7 H 0.2652 0.2348 0.0849
C67_7 C 0.2853(8) 0.2147(8) 0.0190(12)
C68_7 C 0.3008(6) 0.1992(6) 0.0113(6)
H32_7 H 0.3103 0.1897 0.0208
N8_9 N 0.2258(9) 0.2742(9) -0.0000
C79_7 C 0.1731(6) 0.3269(6) 0.1126(9)
O15_7 O 0.1801(4) 0.3463(3) 0.1219(3)
C80_7 C 0.1853(3) 0.3147(3) 0.0942(5)
C81_7 C 0.2050(5) 0.3230(4) 0.0855(5)
H37_7 H 0.2106 0.3376 0.0909
C82_7 C 0.2360(9) 0.2640(9) 0.0480(10)
C83_7 C 0.2209(7) 0.2791(7) 0.0399(10)
C84_7 C 0.2079(4) 0.2921(4) 0.0591(5)
C85_7 C 0.2175(4) 0.3114(5) 0.0693(5)
H38_7 H 0.2326 0.3165 0.0650
C86_7 C 0.2416(4) 0.2584(4) 0.0715(7)
H39_7 H 0.2348 0.2652 0.0849
C87_7 C 0.2147(8) 0.2853(8) 0.0190(12)
C88_7 C 0.1992(6) 0.3008(6) 0.0113(6)
H40_7 H 0.1897 0.3103 0.0208
C89_7 C 0.3230(4) 0.2050(5) 0.0855(5)
H41_7 H 0.3376 0.2106 0.0909
C90_7 C 0.3114(5) 0.2175(4) 0.0693(5)
H42_7 H 0.3165 0.2326 0.0650
O18_7 O 0.1537(3) 0.3199(4) 0.1219(3)
C93_7 C 0.1770(4) 0.2950(5) 0.0855(5)
H45_7 H 0.1624 0.2894 0.0909
C94_7 C 0.1886(5) 0.2825(4) 0.0693(5)
H46_7 H 0.1835 0.2674 0.0650
O35_9 O 0.2782(4) 0.2782(4) -0.0000
O37_9 O 0.2218(4) 0.2218(4) -0.0000
Co1_9 Co 0.2500 0.0000 0.7500
N1_7 N 0.2500 0.0359(11) 0.7500
C1_7 C 0.3269(6) 0.1126(9) 0.8269(6)
O1_7 O 0.3199(4) 0.1219(3) 0.8463(3)
O2_7 O 0.3657(2) 0.1343(2) 0.8657(2)
N2_9 N 0.2742(9) 0.0000 0.7742(9)
C2_7 C 0.3147(3) 0.0942(5) 0.8147(3)
C3_7 C 0.2950(5) 0.0855(5) 0.8230(4)
H1_7 H 0.2894 0.0909 0.8376
O3_7 O 0.3304(2) 0.1696(2) 0.8304(2)
C4_7 C 0.2640(9) 0.0480(10) 0.7640(9)
C5_7 C 0.2791(7) 0.0399(10) 0.7791(7)
C6_7 C 0.2921(4) 0.0591(5) 0.7921(4)
C7_7 C 0.2825(4) 0.0693(5) 0.8114(5)
H2_7 H 0.2674 0.0650 0.8165
O4_9 O 0.2782(4) 0.0000 0.7218(4)
C8_7 C 0.2584(4) 0.0715(7) 0.7584(4)
H3_7 H 0.2652 0.0849 0.7652
C9_7 C 0.2853(8) 0.0190(12) 0.7853(8)
C10_7 C 0.3008(6) 0.0113(6) 0.8008(6)
H4_7 H 0.3103 0.0208 0.8103
C21_7 C 0.1731(6) 0.1126(9) 0.6731(6)
O6_7 O 0.1801(4) 0.1219(3) 0.6537(3)
N4_9 N 0.2258(9) 0.0000 0.7258(9)
C22_7 C 0.1853(3) 0.0942(5) 0.6853(3)
C23_7 C 0.2050(5) 0.0855(5) 0.6770(4)
H9_7 H 0.2106 0.0909 0.6624
C24_7 C 0.2360(9) 0.0480(10) 0.7360(9)
C25_7 C 0.2209(7) 0.0399(10) 0.7209(7)
C26_7 C 0.2079(4) 0.0591(5) 0.7079(4)
C27_7 C 0.2175(4) 0.0693(5) 0.6886(5)
H10_7 H 0.2326 0.0650 0.6835
C28_7 C 0.2416(4) 0.0715(7) 0.7416(4)
H11_7 H 0.2348 0.0849 0.7348
C29_7 C 0.2147(8) 0.0190(12) 0.7147(8)
C30_7 C 0.1992(6) 0.0113(6) 0.6992(6)
H12_7 H 0.1897 0.0208 0.6897
O9_7 O 0.3463(3) 0.1219(3) 0.8199(4)
C43_7 C 0.3230(4) 0.0855(5) 0.7950(5)
H19_7 H 0.3376 0.0909 0.7894
C44_7 C 0.3114(5) 0.0693(5) 0.7825(4)
H20_7 H 0.3165 0.0650 0.7674
O11_7 O 0.1537(3) 0.1219(3) 0.6801(4)
C47_7 C 0.1770(4) 0.0855(5) 0.7050(5)
H23_7 H 0.1624 0.0909 0.7106
C48_7 C 0.1886(5) 0.0693(5) 0.7175(4)
H24_7 H 0.1835 0.0650 0.7326
Co2_10 Co 0.2500 0.2500 1.0000
N5_7 N 0.2500 0.2500 0.9641(11)
C49_7 C 0.3269(6) 0.1731(6) 0.8874(9)
O12_7 O 0.3463(3) 0.1801(4) 0.8781(3)
N6_10 N 0.2742(9) 0.2258(9) 1.0000
C50_7 C 0.3147(3) 0.1853(3) 0.9058(5)
C51_7 C 0.3230(4) 0.2050(5) 0.9145(5)
H25_7 H 0.3376 0.2106 0.9091
C52_7 C 0.2640(9) 0.2360(9) 0.9520(10)
C53_7 C 0.2791(7) 0.2209(7) 0.9601(10)
C54_7 C 0.2921(4) 0.2079(4) 0.9409(5)
C55_7 C 0.3114(5) 0.2175(4) 0.9307(5)
H26_7 H 0.3165 0.2326 0.9350
C56_7 C 0.2584(4) 0.2416(4) 0.9285(7)
H27_7 H 0.2652 0.2348 0.9151
C57_7 C 0.2853(8) 0.2147(8) 0.9810(12)
C58_7 C 0.3008(6) 0.1992(6) 0.9887(6)
H28_7 H 0.3103 0.1897 0.9792
C69_7 C 0.1731(6) 0.3269(6) 0.8874(9)
O14_7 O 0.1537(3) 0.3199(4) 0.8781(3)
N8_10 N 0.2258(9) 0.2742(9) 1.0000
C70_7 C 0.1853(3) 0.3147(3) 0.9058(5)
C71_7 C 0.1770(4) 0.2950(5) 0.9145(5)
H33_7 H 0.1624 0.2894 0.9091
C72_7 C 0.2360(9) 0.2640(9) 0.9520(10)
C73_7 C 0.2209(7) 0.2791(7) 0.9601(10)
C74_7 C 0.2079(4) 0.2921(4) 0.9409(5)
C75_7 C 0.1886(5) 0.2825(4) 0.9307(5)
H34_7 H 0.1835 0.2674 0.9350
C76_7 C 0.2416(4) 0.2584(4) 0.9285(7)
H35_7 H 0.2348 0.2652 0.9151
C77_7 C 0.2147(8) 0.2853(8) 0.9810(12)
C78_7 C 0.1992(6) 0.3008(6) 0.9887(6)
H36_7 H 0.1897 0.3103 0.9792
O17_7 O 0.3199(4) 0.1537(3) 0.8781(3)
C91_7 C 0.2950(5) 0.1770(4) 0.9145(5)
H43_7 H 0.2894 0.1624 0.9091
C92_7 C 0.2825(4) 0.1886(5) 0.9307(5)
H44_7 H 0.2674 0.1835 0.9350
O19_7 O 0.1801(4) 0.3463(3) 0.8781(3)
C95_7 C 0.2050(5) 0.3230(4) 0.9145(5)
H47_7 H 0.2106 0.3376 0.9091
C96_7 C 0.2175(4) 0.3114(5) 0.9307(5)
H48_7 H 0.2326 0.3165 0.9350
O35_10 O 0.2782(4) 0.2782(4) 1.0000
O36_9 O 0.2218(4) 0.0000 0.7782(4)
O37_10 O 0.2218(4) 0.2218(4) 1.0000
Co1_10 Co 0.2500 1.0000 0.7500
N2_10 N 0.2742(9) 1.0000 0.7742(9)
O4_10 O 0.2782(4) 1.0000 0.7218(4)
N3_7 N 0.2500 0.9641(11) 0.7500
C11_7 C 0.3269(6) 0.8874(9) 0.8269(6)
C12_7 C 0.3147(3) 0.9058(5) 0.8147(3)
C13_7 C 0.3230(4) 0.9145(5) 0.7950(5)
H5_7 H 0.3376 0.9091 0.7894
C14_7 C 0.2640(9) 0.9520(10) 0.7640(9)
C15_7 C 0.2791(7) 0.9601(10) 0.7791(7)
C16_7 C 0.2921(4) 0.9409(5) 0.7921(4)
C17_7 C 0.3114(5) 0.9307(5) 0.7825(4)
H6_7 H 0.3165 0.9350 0.7674
C18_7 C 0.2584(4) 0.9285(7) 0.7584(4)
H7_7 H 0.2652 0.9151 0.7652
C19_7 C 0.2853(8) 0.9810(12) 0.7853(8)
C20_7 C 0.3008(6) 0.9887(6) 0.8008(6)
H8_7 H 0.3103 0.9792 0.8103
N4_10 N 0.2258(9) 1.0000 0.7258(9)
C31_7 C 0.1731(6) 0.8874(9) 0.6731(6)
O7_7 O 0.1537(3) 0.8781(3) 0.6801(4)
C32_7 C 0.1853(3) 0.9058(5) 0.6853(3)
C33_7 C 0.1770(4) 0.9145(5) 0.7050(5)
H13_7 H 0.1624 0.9091 0.7106
C34_7 C 0.2360(9) 0.9520(10) 0.7360(9)
C35_7 C 0.2209(7) 0.9601(10) 0.7209(7)
C36_7 C 0.2079(4) 0.9409(5) 0.7079(4)
C37_7 C 0.1886(5) 0.9307(5) 0.7175(4)
H14_7 H 0.1835 0.9350 0.7326
C38_7 C 0.2416(4) 0.9285(7) 0.7416(4)
H15_7 H 0.2348 0.9151 0.7348
C39_7 C 0.2147(8) 0.9810(12) 0.7147(8)
C40_7 C 0.1992(6) 0.9887(6) 0.6992(6)
H16_7 H 0.1897 0.9792 0.6897
C41_7 C 0.2950(5) 0.9145(5) 0.8230(4)
H17_7 H 0.2894 0.9091 0.8376
C42_7 C 0.2825(4) 0.9307(5) 0.8114(5)
H18_7 H 0.2674 0.9350 0.8165
O10_7 O 0.1801(4) 0.8781(3) 0.6537(3)
C45_7 C 0.2050(5) 0.9145(5) 0.6770(4)
H21_7 H 0.2106 0.9091 0.6624
C46_7 C 0.2175(4) 0.9307(5) 0.6886(5)
H22_7 H 0.2326 0.9350 0.6835
O36_10 O 0.2218(4) 1.0000 0.7782(4)
Co1_11 Co 0.7500 -0.0000 0.7500
N2_11 N 0.7258(9) -0.0000 0.7742(9)
O4_11 O 0.7218(4) -0.0000 0.7218(4)
N3_8 N 0.7500 0.0359(11) 0.7500
C11_8 C 0.6731(6) 0.1126(9) 0.8269(6)
C12_8 C 0.6853(3) 0.0942(5) 0.8147(3)
C13_8 C 0.6770(4) 0.0855(5) 0.7950(5)
H5_8 H 0.6624 0.0909 0.7894
C14_8 C 0.7360(9) 0.0480(10) 0.7640(9)
C15_8 C 0.7209(7) 0.0399(10) 0.7791(7)
C16_8 C 0.7079(4) 0.0591(5) 0.7921(4)
C17_8 C 0.6886(5) 0.0693(5) 0.7825(4)
H6_8 H 0.6835 0.0650 0.7674
C18_8 C 0.7416(4) 0.0715(7) 0.7584(4)
H7_8 H 0.7348 0.0849 0.7652
C19_8 C 0.7147(8) 0.0190(12) 0.7853(8)
C20_8 C 0.6992(6) 0.0113(6) 0.8008(6)
H8_8 H 0.6897 0.0208 0.8103
N4_11 N 0.7742(9) -0.0000 0.7258(9)
C31_8 C 0.8269(6) 0.1126(9) 0.6731(6)
O7_8 O 0.8463(3) 0.1219(3) 0.6801(4)
C32_8 C 0.8147(3) 0.0942(5) 0.6853(3)
C33_8 C 0.8230(4) 0.0855(5) 0.7050(5)
H13_8 H 0.8376 0.0909 0.7106
C34_8 C 0.7640(9) 0.0480(10) 0.7360(9)
C35_8 C 0.7791(7) 0.0399(10) 0.7209(7)
C36_8 C 0.7921(4) 0.0591(5) 0.7079(4)
C37_8 C 0.8114(5) 0.0693(5) 0.7175(4)
H14_8 H 0.8165 0.0650 0.7326
C38_8 C 0.7584(4) 0.0715(7) 0.7416(4)
H15_8 H 0.7652 0.0849 0.7348
C39_8 C 0.7853(8) 0.0190(12) 0.7147(8)
C40_8 C 0.8008(6) 0.0113(6) 0.6992(6)
H16_8 H 0.8103 0.0208 0.6897
C41_8 C 0.7050(5) 0.0855(5) 0.8230(4)
H17_8 H 0.7106 0.0909 0.8376
C42_8 C 0.7175(4) 0.0693(5) 0.8114(5)
H18_8 H 0.7326 0.0650 0.8165
O10_8 O 0.8199(4) 0.1219(3) 0.6537(3)
C45_8 C 0.7950(5) 0.0855(5) 0.6770(4)
H21_8 H 0.7894 0.0909 0.6624
C46_8 C 0.7825(4) 0.0693(5) 0.6886(5)
H22_8 H 0.7674 0.0650 0.6835
O36_11 O 0.7782(4) -0.0000 0.7782(4)
Co2_11 Co 0.7500 0.7500 -0.0000
N6_11 N 0.7258(9) 0.7742(9) -0.0000
N7_8 N 0.7500 0.7500 0.0359(11)
C59_8 C 0.6731(6) 0.8269(6) 0.1126(9)
C60_8 C 0.6853(3) 0.8147(3) 0.0942(5)
C61_8 C 0.7050(5) 0.8230(4) 0.0855(5)
H29_8 H 0.7106 0.8376 0.0909
C62_8 C 0.7360(9) 0.7640(9) 0.0480(10)
C63_8 C 0.7209(7) 0.7791(7) 0.0399(10)
C64_8 C 0.7079(4) 0.7921(4) 0.0591(5)
C65_8 C 0.7175(4) 0.8114(5) 0.0693(5)
H30_8 H 0.7326 0.8165 0.0650
C66_8 C 0.7416(4) 0.7584(4) 0.0715(7)
H31_8 H 0.7348 0.7652 0.0849
C67_8 C 0.7147(8) 0.7853(8) 0.0190(12)
C68_8 C 0.6992(6) 0.8008(6) 0.0113(6)
H32_8 H 0.6897 0.8103 0.0208
N8_11 N 0.7742(9) 0.7258(9) -0.0000
C79_8 C 0.8269(6) 0.6731(6) 0.1126(9)
O15_8 O 0.8199(4) 0.6537(3) 0.1219(3)
C80_8 C 0.8147(3) 0.6853(3) 0.0942(5)
C81_8 C 0.7950(5) 0.6770(4) 0.0855(5)
H37_8 H 0.7894 0.6624 0.0909
C82_8 C 0.7640(9) 0.7360(9) 0.0480(10)
C83_8 C 0.7791(7) 0.7209(7) 0.0399(10)
C84_8 C 0.7921(4) 0.7079(4) 0.0591(5)
C85_8 C 0.7825(4) 0.6886(5) 0.0693(5)
H38_8 H 0.7674 0.6835 0.0650
C86_8 C 0.7584(4) 0.7416(4) 0.0715(7)
H39_8 H 0.7652 0.7348 0.0849
C87_8 C 0.7853(8) 0.7147(8) 0.0190(12)
C88_8 C 0.8008(6) 0.6992(6) 0.0113(6)
H40_8 H 0.8103 0.6897 0.0208
C89_8 C 0.6770(4) 0.7950(5) 0.0855(5)
H41_8 H 0.6624 0.7894 0.0909
C90_8 C 0.6886(5) 0.7825(4) 0.0693(5)
H42_8 H 0.6835 0.7674 0.0650
O18_8 O 0.8463(3) 0.6801(4) 0.1219(3)
C93_8 C 0.8230(4) 0.7050(5) 0.0855(5)
H45_8 H 0.8376 0.7106 0.0909
C94_8 C 0.8114(5) 0.7175(4) 0.0693(5)
H46_8 H 0.8165 0.7326 0.0650
O35_11 O 0.7218(4) 0.7218(4) -0.0000
O37_11 O 0.7782(4) 0.7782(4) -0.0000
Co1_12 Co 0.7500 1.0000 0.7500
N1_8 N 0.7500 0.9641(11) 0.7500
C1_8 C 0.6731(6) 0.8874(9) 0.8269(6)
O1_8 O 0.6801(4) 0.8781(3) 0.8463(3)
O2_8 O 0.6343(2) 0.8657(2) 0.8657(2)
N2_12 N 0.7258(9) 1.0000 0.7742(9)
C2_8 C 0.6853(3) 0.9058(5) 0.8147(3)
C3_8 C 0.7050(5) 0.9145(5) 0.8230(4)
H1_8 H 0.7106 0.9091 0.8376
O3_8 O 0.6696(2) 0.8304(2) 0.8304(2)
C4_8 C 0.7360(9) 0.9520(10) 0.7640(9)
C5_8 C 0.7209(7) 0.9601(10) 0.7791(7)
C6_8 C 0.7079(4) 0.9409(5) 0.7921(4)
C7_8 C 0.7175(4) 0.9307(5) 0.8114(5)
H2_8 H 0.7326 0.9350 0.8165
O4_12 O 0.7218(4) 1.0000 0.7218(4)
C8_8 C 0.7416(4) 0.9285(7) 0.7584(4)
H3_8 H 0.7348 0.9151 0.7652
C9_8 C 0.7147(8) 0.9810(12) 0.7853(8)
C10_8 C 0.6992(6) 0.9887(6) 0.8008(6)
H4_8 H 0.6897 0.9792 0.8103
C21_8 C 0.8269(6) 0.8874(9) 0.6731(6)
O6_8 O 0.8199(4) 0.8781(3) 0.6537(3)
N4_12 N 0.7742(9) 1.0000 0.7258(9)
C22_8 C 0.8147(3) 0.9058(5) 0.6853(3)
C23_8 C 0.7950(5) 0.9145(5) 0.6770(4)
H9_8 H 0.7894 0.9091 0.6624
C24_8 C 0.7640(9) 0.9520(10) 0.7360(9)
C25_8 C 0.7791(7) 0.9601(10) 0.7209(7)
C26_8 C 0.7921(4) 0.9409(5) 0.7079(4)
C27_8 C 0.7825(4) 0.9307(5) 0.6886(5)
H10_8 H 0.7674 0.9350 0.6835
C28_8 C 0.7584(4) 0.9285(7) 0.7416(4)
H11_8 H 0.7652 0.9151 0.7348
C29_8 C 0.7853(8) 0.9810(12) 0.7147(8)
C30_8 C 0.8008(6) 0.9887(6) 0.6992(6)
H12_8 H 0.8103 0.9792 0.6897
O9_8 O 0.6537(3) 0.8781(3) 0.8199(4)
C43_8 C 0.6770(4) 0.9145(5) 0.7950(5)
H19_8 H 0.6624 0.9091 0.7894
C44_8 C 0.6886(5) 0.9307(5) 0.7825(4)
H20_8 H 0.6835 0.9350 0.7674
O11_8 O 0.8463(3) 0.8781(3) 0.6801(4)
C47_8 C 0.8230(4) 0.9145(5) 0.7050(5)
H23_8 H 0.8376 0.9091 0.7106
C48_8 C 0.8114(5) 0.9307(5) 0.7175(4)
H24_8 H 0.8165 0.9350 0.7326
Co2_12 Co 0.7500 0.7500 1.0000
N5_8 N 0.7500 0.7500 0.9641(11)
C49_8 C 0.6731(6) 0.8269(6) 0.8874(9)
O12_8 O 0.6537(3) 0.8199(4) 0.8781(3)
N6_12 N 0.7258(9) 0.7742(9) 1.0000
C50_8 C 0.6853(3) 0.8147(3) 0.9058(5)
C51_8 C 0.6770(4) 0.7950(5) 0.9145(5)
H25_8 H 0.6624 0.7894 0.9091
C52_8 C 0.7360(9) 0.7640(9) 0.9520(10)
C53_8 C 0.7209(7) 0.7791(7) 0.9601(10)
C54_8 C 0.7079(4) 0.7921(4) 0.9409(5)
C55_8 C 0.6886(5) 0.7825(4) 0.9307(5)
H26_8 H 0.6835 0.7674 0.9350
C56_8 C 0.7416(4) 0.7584(4) 0.9285(7)
H27_8 H 0.7348 0.7652 0.9151
C57_8 C 0.7147(8) 0.7853(8) 0.9810(12)
C58_8 C 0.6992(6) 0.8008(6) 0.9887(6)
H28_8 H 0.6897 0.8103 0.9792
C69_8 C 0.8269(6) 0.6731(6) 0.8874(9)
O14_8 O 0.8463(3) 0.6801(4) 0.8781(3)
N8_12 N 0.7742(9) 0.7258(9) 1.0000
C70_8 C 0.8147(3) 0.6853(3) 0.9058(5)
C71_8 C 0.8230(4) 0.7050(5) 0.9145(5)
H33_8 H 0.8376 0.7106 0.9091
C72_8 C 0.7640(9) 0.7360(9) 0.9520(10)
C73_8 C 0.7791(7) 0.7209(7) 0.9601(10)
C74_8 C 0.7921(4) 0.7079(4) 0.9409(5)
C75_8 C 0.8114(5) 0.7175(4) 0.9307(5)
H34_8 H 0.8165 0.7326 0.9350
C76_8 C 0.7584(4) 0.7416(4) 0.9285(7)
H35_8 H 0.7652 0.7348 0.9151
C77_8 C 0.7853(8) 0.7147(8) 0.9810(12)
C78_8 C 0.8008(6) 0.6992(6) 0.9887(6)
H36_8 H 0.8103 0.6897 0.9792
O17_8 O 0.6801(4) 0.8463(3) 0.8781(3)
C91_8 C 0.7050(5) 0.8230(4) 0.9145(5)
H43_8 H 0.7106 0.8376 0.9091
C92_8 C 0.7175(4) 0.8114(5) 0.9307(5)
H44_8 H 0.7326 0.8165 0.9350
O19_8 O 0.8199(4) 0.6537(3) 0.8781(3)
C95_8 C 0.7950(5) 0.6770(4) 0.9145(5)
H47_8 H 0.7894 0.6624 0.9091
C96_8 C 0.7825(4) 0.6886(5) 0.9307(5)
H48_8 H 0.7674 0.6835 0.9350
O35_12 O 0.7218(4) 0.7218(4) 1.0000
O36_12 O 0.7782(4) 1.0000 0.7782(4)
O37_12 O 0.7782(4) 0.7782(4) 1.0000
O2_9 O 0.1343(2) 0.6343(2) 0.1343(2)
O3_9 O 0.1696(2) 0.6696(2) 0.1696(2)
Co3_5 Co 0.0000 0.7500 0.2500
N9_5 N 0.0359(11) 0.7500 0.2500
C97_5 C 0.1126(9) 0.6731(6) 0.1731(6)
O20_5 O 0.1219(3) 0.6537(3) 0.1801(4)
N10_5 N 0.0000 0.7258(9) 0.2258(9)
C98_5 C 0.0942(5) 0.6853(3) 0.1853(3)
C99_5 C 0.0855(5) 0.6770(4) 0.2050(5)
H49_5 H 0.0909 0.6624 0.2106
C100_5 C 0.0480(10) 0.7360(9) 0.2360(9)
C101_5 C 0.0399(10) 0.7209(7) 0.2209(7)
C102_5 C 0.0591(5) 0.7079(4) 0.2079(4)
C103_5 C 0.0693(5) 0.6886(5) 0.2175(4)
H50_5 H 0.0650 0.6835 0.2326
C104_5 C 0.0715(7) 0.7416(4) 0.2416(4)
H51_5 H 0.0849 0.7348 0.2348
C105_5 C 0.0190(12) 0.7147(8) 0.2147(8)
C106_5 C 0.0113(6) 0.6992(6) 0.1992(6)
H52_5 H 0.0208 0.6897 0.1897
C117_5 C 0.1126(9) 0.8269(6) 0.3269(6)
O22_5 O 0.1219(3) 0.8463(3) 0.3199(4)
N12_5 N 0.0000 0.7742(9) 0.2742(9)
C118_5 C 0.0942(5) 0.8147(3) 0.3147(3)
C119_5 C 0.0855(5) 0.8230(4) 0.2950(5)
H57_5 H 0.0909 0.8376 0.2894
C120_5 C 0.0480(10) 0.7640(9) 0.2640(9)
C121_5 C 0.0399(10) 0.7791(7) 0.2791(7)
C122_5 C 0.0591(5) 0.7921(4) 0.2921(4)
C123_5 C 0.0693(5) 0.8114(5) 0.2825(4)
H58_5 H 0.0650 0.8165 0.2674
C124_5 C 0.0715(7) 0.7584(4) 0.2584(4)
H59_5 H 0.0849 0.7652 0.2652
C125_5 C 0.0190(12) 0.7853(8) 0.2853(8)
C126_5 C 0.0113(6) 0.8008(6) 0.3008(6)
H60_5 H 0.0208 0.8103 0.3103
O25_5 O 0.1219(3) 0.6801(4) 0.1537(3)
C139_5 C 0.0855(5) 0.7050(5) 0.1770(4)
H67_5 H 0.0909 0.7106 0.1624
C140_5 C 0.0693(5) 0.7175(4) 0.1886(5)
H68_5 H 0.0650 0.7326 0.1835
O27_5 O 0.1219(3) 0.8199(4) 0.3463(3)
C143_5 C 0.0855(5) 0.7950(5) 0.3230(4)
H71_5 H 0.0909 0.7894 0.3376
C144_5 C 0.0693(5) 0.7825(4) 0.3114(5)
H72_5 H 0.0650 0.7674 0.3165
O28_3 O 0.1343(2) 0.3657(2) 0.1343(2)
O29_3 O 0.1696(2) 0.3304(2) 0.1696(2)
O32_5 O 0.0000 0.7218(4) 0.2782(4)
O38_5 O 0.0000 0.7782(4) 0.2218(4)
O40_2 O 0.1219(3) 0.3199(4) 0.1537(3)
O49_2 O 0.1219(3) 0.3463(3) 0.1801(4)
O33_5 O 0.1343(2) 0.6343(2) 0.8657(2)
O34_5 O 0.1696(2) 0.6696(2) 0.8304(2)
O39_3 O 0.1219(3) 0.6801(4) 0.8463(3)
O50_3 O 0.1219(3) 0.6537(3) 0.8199(4)
Co3_6 Co 1.0000 0.7500 0.2500
N10_6 N 1.0000 0.7258(9) 0.2258(9)
N11_5 N 0.9641(11) 0.7500 0.2500
C107_5 C 0.8874(9) 0.6731(6) 0.1731(6)
O21_2 O 0.8781(3) 0.6801(4) 0.1537(3)
C108_5 C 0.9058(5) 0.6853(3) 0.1853(3)
C109_5 C 0.9145(5) 0.7050(5) 0.1770(4)
H53_5 H 0.9091 0.7106 0.1624
C110_5 C 0.9520(10) 0.7360(9) 0.2360(9)
C111_5 C 0.9601(10) 0.7209(7) 0.2209(7)
C112_5 C 0.9409(5) 0.7079(4) 0.2079(4)
C113_5 C 0.9307(5) 0.7175(4) 0.1886(5)
H54_5 H 0.9350 0.7326 0.1835
C114_5 C 0.9285(7) 0.7416(4) 0.2416(4)
H55_5 H 0.9151 0.7348 0.2348
C115_5 C 0.9810(12) 0.7147(8) 0.2147(8)
C116_5 C 0.9887(6) 0.6992(6) 0.1992(6)
H56_5 H 0.9792 0.6897 0.1897
N12_6 N 1.0000 0.7742(9) 0.2742(9)
C127_5 C 0.8874(9) 0.8269(6) 0.3269(6)
O23_5 O 0.8781(3) 0.8199(4) 0.3463(3)
C128_5 C 0.9058(5) 0.8147(3) 0.3147(3)
C129_5 C 0.9145(5) 0.7950(5) 0.3230(4)
H61_5 H 0.9091 0.7894 0.3376
C130_5 C 0.9520(10) 0.7640(9) 0.2640(9)
C131_5 C 0.9601(10) 0.7791(7) 0.2791(7)
C132_5 C 0.9409(5) 0.7921(4) 0.2921(4)
C133_5 C 0.9307(5) 0.7825(4) 0.3114(5)
H62_5 H 0.9350 0.7674 0.3165
C134_5 C 0.9285(7) 0.7584(4) 0.2584(4)
H63_5 H 0.9151 0.7652 0.2652
C135_5 C 0.9810(12) 0.7853(8) 0.2853(8)
C136_5 C 0.9887(6) 0.8008(6) 0.3008(6)
H64_5 H 0.9792 0.8103 0.3103
O24_2 O 0.8781(3) 0.6537(3) 0.1801(4)
C137_5 C 0.9145(5) 0.6770(4) 0.2050(5)
H65_5 H 0.9091 0.6624 0.2106
C138_5 C 0.9307(5) 0.6886(5) 0.2175(4)
H66_5 H 0.9350 0.6835 0.2326
O26_5 O 0.8781(3) 0.8463(3) 0.3199(4)
C141_5 C 0.9145(5) 0.8230(4) 0.2950(5)
H69_5 H 0.9091 0.8376 0.2894
C142_5 C 0.9307(5) 0.8114(5) 0.2825(4)
H70_5 H 0.9350 0.8165 0.2674
O30_3 O 0.8657(2) 0.6343(2) 0.1343(2)
O31_3 O 0.8304(2) 0.6696(2) 0.1696(2)
O32_6 O 1.0000 0.7218(4) 0.2782(4)
O38_6 O 1.0000 0.7782(4) 0.2218(4)
Co3_7 Co -0.0000 0.2500 0.2500
N10_7 N -0.0000 0.2742(9) 0.2258(9)
N11_6 N 0.0359(11) 0.2500 0.2500
C107_6 C 0.1126(9) 0.3269(6) 0.1731(6)
C108_6 C 0.0942(5) 0.3147(3) 0.1853(3)
C109_6 C 0.0855(5) 0.2950(5) 0.1770(4)
H53_6 H 0.0909 0.2894 0.1624
C110_6 C 0.0480(10) 0.2640(9) 0.2360(9)
C111_6 C 0.0399(10) 0.2791(7) 0.2209(7)
C112_6 C 0.0591(5) 0.2921(4) 0.2079(4)
C113_6 C 0.0693(5) 0.2825(4) 0.1886(5)
H54_6 H 0.0650 0.2674 0.1835
C114_6 C 0.0715(7) 0.2584(4) 0.2416(4)
H55_6 H 0.0849 0.2652 0.2348
C115_6 C 0.0190(12) 0.2853(8) 0.2147(8)
C116_6 C 0.0113(6) 0.3008(6) 0.1992(6)
H56_6 H 0.0208 0.3103 0.1897
N12_7 N -0.0000 0.2258(9) 0.2742(9)
C127_6 C 0.1126(9) 0.1731(6) 0.3269(6)
O23_6 O 0.1219(3) 0.1801(4) 0.3463(3)
C128_6 C 0.0942(5) 0.1853(3) 0.3147(3)
C129_6 C 0.0855(5) 0.2050(5) 0.3230(4)
H61_6 H 0.0909 0.2106 0.3376
C130_6 C 0.0480(10) 0.2360(9) 0.2640(9)
C131_6 C 0.0399(10) 0.2209(7) 0.2791(7)
C132_6 C 0.0591(5) 0.2079(4) 0.2921(4)
C133_6 C 0.0693(5) 0.2175(4) 0.3114(5)
H62_6 H 0.0650 0.2326 0.3165
C134_6 C 0.0715(7) 0.2416(4) 0.2584(4)
H63_6 H 0.0849 0.2348 0.2652
C135_6 C 0.0190(12) 0.2147(8) 0.2853(8)
C136_6 C 0.0113(6) 0.1992(6) 0.3008(6)
H64_6 H 0.0208 0.1897 0.3103
C137_6 C 0.0855(5) 0.3230(4) 0.2050(5)
H65_6 H 0.0909 0.3376 0.2106
C138_6 C 0.0693(5) 0.3114(5) 0.2175(4)
H66_6 H 0.0650 0.3165 0.2326
O26_6 O 0.1219(3) 0.1537(3) 0.3199(4)
C141_6 C 0.0855(5) 0.1770(4) 0.2950(5)
H69_6 H 0.0909 0.1624 0.2894
C142_6 C 0.0693(5) 0.1886(5) 0.2825(4)
H70_6 H 0.0650 0.1835 0.2674
O32_7 O -0.0000 0.2782(4) 0.2782(4)
O38_7 O -0.0000 0.2218(4) 0.2218(4)
O2_10 O 0.8657(2) 0.3657(2) 0.1343(2)
O3_10 O 0.8304(2) 0.3304(2) 0.1696(2)
Co3_8 Co 1.0000 0.2500 0.2500
N9_6 N 0.9641(11) 0.2500 0.2500
C97_6 C 0.8874(9) 0.3269(6) 0.1731(6)
O20_6 O 0.8781(3) 0.3463(3) 0.1801(4)
N10_8 N 1.0000 0.2742(9) 0.2258(9)
C98_6 C 0.9058(5) 0.3147(3) 0.1853(3)
C99_6 C 0.9145(5) 0.3230(4) 0.2050(5)
H49_6 H 0.9091 0.3376 0.2106
C100_6 C 0.9520(10) 0.2640(9) 0.2360(9)
C101_6 C 0.9601(10) 0.2791(7) 0.2209(7)
C102_6 C 0.9409(5) 0.2921(4) 0.2079(4)
C103_6 C 0.9307(5) 0.3114(5) 0.2175(4)
H50_6 H 0.9350 0.3165 0.2326
C104_6 C 0.9285(7) 0.2584(4) 0.2416(4)
H51_6 H 0.9151 0.2652 0.2348
C105_6 C 0.9810(12) 0.2853(8) 0.2147(8)
C106_6 C 0.9887(6) 0.3008(6) 0.1992(6)
H52_6 H 0.9792 0.3103 0.1897
C117_6 C 0.8874(9) 0.1731(6) 0.3269(6)
O22_6 O 0.8781(3) 0.1537(3) 0.3199(4)
N12_8 N 1.0000 0.2258(9) 0.2742(9)
C118_6 C 0.9058(5) 0.1853(3) 0.3147(3)
C119_6 C 0.9145(5) 0.1770(4) 0.2950(5)
H57_6 H 0.9091 0.1624 0.2894
C120_6 C 0.9520(10) 0.2360(9) 0.2640(9)
C121_6 C 0.9601(10) 0.2209(7) 0.2791(7)
C122_6 C 0.9409(5) 0.2079(4) 0.2921(4)
C123_6 C 0.9307(5) 0.1886(5) 0.2825(4)
H58_6 H 0.9350 0.1835 0.2674
C124_6 C 0.9285(7) 0.2416(4) 0.2584(4)
H59_6 H 0.9151 0.2348 0.2652
C125_6 C 0.9810(12) 0.2147(8) 0.2853(8)
C126_6 C 0.9887(6) 0.1992(6) 0.3008(6)
H60_6 H 0.9792 0.1897 0.3103
O25_6 O 0.8781(3) 0.3199(4) 0.1537(3)
C139_6 C 0.9145(5) 0.2950(5) 0.1770(4)
H67_6 H 0.9091 0.2894 0.1624
C140_6 C 0.9307(5) 0.2825(4) 0.1886(5)
H68_6 H 0.9350 0.2674 0.1835
O27_6 O 0.8781(3) 0.1801(4) 0.3463(3)
C143_6 C 0.9145(5) 0.2050(5) 0.3230(4)
H71_6 H 0.9091 0.2106 0.3376
C144_6 C 0.9307(5) 0.2175(4) 0.3114(5)
H72_6 H 0.9350 0.2326 0.3165
O32_8 O 1.0000 0.2782(4) 0.2782(4)
O38_8 O 1.0000 0.2218(4) 0.2218(4)
O33_6 O 0.8657(2) 0.3657(2) 0.8657(2)
O34_6 O 0.8304(2) 0.3304(2) 0.8304(2)
O39_4 O 0.8781(3) 0.3199(4) 0.8463(3)
O50_4 O 0.8781(3) 0.3463(3) 0.8199(4)
Co3_9 Co -0.0000 0.7500 0.7500
N10_9 N -0.0000 0.7258(9) 0.7742(9)
N11_7 N 0.0359(11) 0.7500 0.7500
C107_7 C 0.1126(9) 0.6731(6) 0.8269(6)
C108_7 C 0.0942(5) 0.6853(3) 0.8147(3)
C109_7 C 0.0855(5) 0.7050(5) 0.8230(4)
H53_7 H 0.0909 0.7106 0.8376
C110_7 C 0.0480(10) 0.7360(9) 0.7640(9)
C111_7 C 0.0399(10) 0.7209(7) 0.7791(7)
C112_7 C 0.0591(5) 0.7079(4) 0.7921(4)
C113_7 C 0.0693(5) 0.7175(4) 0.8114(5)
H54_7 H 0.0650 0.7326 0.8165
C114_7 C 0.0715(7) 0.7416(4) 0.7584(4)
H55_7 H 0.0849 0.7348 0.7652
C115_7 C 0.0190(12) 0.7147(8) 0.7853(8)
C116_7 C 0.0113(6) 0.6992(6) 0.8008(6)
H56_7 H 0.0208 0.6897 0.8103
N12_9 N -0.0000 0.7742(9) 0.7258(9)
C127_7 C 0.1126(9) 0.8269(6) 0.6731(6)
O23_7 O 0.1219(3) 0.8199(4) 0.6537(3)
C128_7 C 0.0942(5) 0.8147(3) 0.6853(3)
C129_7 C 0.0855(5) 0.7950(5) 0.6770(4)
H61_7 H 0.0909 0.7894 0.6624
C130_7 C 0.0480(10) 0.7640(9) 0.7360(9)
C131_7 C 0.0399(10) 0.7791(7) 0.7209(7)
C132_7 C 0.0591(5) 0.7921(4) 0.7079(4)
C133_7 C 0.0693(5) 0.7825(4) 0.6886(5)
H62_7 H 0.0650 0.7674 0.6835
C134_7 C 0.0715(7) 0.7584(4) 0.7416(4)
H63_7 H 0.0849 0.7652 0.7348
C135_7 C 0.0190(12) 0.7853(8) 0.7147(8)
C136_7 C 0.0113(6) 0.8008(6) 0.6992(6)
H64_7 H 0.0208 0.8103 0.6897
C137_7 C 0.0855(5) 0.6770(4) 0.7950(5)
H65_7 H 0.0909 0.6624 0.7894
C138_7 C 0.0693(5) 0.6886(5) 0.7825(4)
H66_7 H 0.0650 0.6835 0.7674
O26_7 O 0.1219(3) 0.8463(3) 0.6801(4)
C141_7 C 0.0855(5) 0.8230(4) 0.7050(5)
H69_7 H 0.0909 0.8376 0.7106
C142_7 C 0.0693(5) 0.8114(5) 0.7175(4)
H70_7 H 0.0650 0.8165 0.7326
O32_9 O -0.0000 0.7218(4) 0.7218(4)
O38_9 O -0.0000 0.7782(4) 0.7782(4)
O2_11 O 0.8657(2) 0.6343(2) 0.8657(2)
O3_11 O 0.8304(2) 0.6696(2) 0.8304(2)
Co3_10 Co 1.0000 0.7500 0.7500
N9_7 N 0.9641(11) 0.7500 0.7500
C97_7 C 0.8874(9) 0.6731(6) 0.8269(6)
O20_7 O 0.8781(3) 0.6537(3) 0.8199(4)
N10_10 N 1.0000 0.7258(9) 0.7742(9)
C98_7 C 0.9058(5) 0.6853(3) 0.8147(3)
C99_7 C 0.9145(5) 0.6770(4) 0.7950(5)
H49_7 H 0.9091 0.6624 0.7894
C100_7 C 0.9520(10) 0.7360(9) 0.7640(9)
C101_7 C 0.9601(10) 0.7209(7) 0.7791(7)
C102_7 C 0.9409(5) 0.7079(4) 0.7921(4)
C103_7 C 0.9307(5) 0.6886(5) 0.7825(4)
H50_7 H 0.9350 0.6835 0.7674
C104_7 C 0.9285(7) 0.7416(4) 0.7584(4)
H51_7 H 0.9151 0.7348 0.7652
C105_7 C 0.9810(12) 0.7147(8) 0.7853(8)
C106_7 C 0.9887(6) 0.6992(6) 0.8008(6)
H52_7 H 0.9792 0.6897 0.8103
C117_7 C 0.8874(9) 0.8269(6) 0.6731(6)
O22_7 O 0.8781(3) 0.8463(3) 0.6801(4)
N12_10 N 1.0000 0.7742(9) 0.7258(9)
C118_7 C 0.9058(5) 0.8147(3) 0.6853(3)
C119_7 C 0.9145(5) 0.8230(4) 0.7050(5)
H57_7 H 0.9091 0.8376 0.7106
C120_7 C 0.9520(10) 0.7640(9) 0.7360(9)
C121_7 C 0.9601(10) 0.7791(7) 0.7209(7)
C122_7 C 0.9409(5) 0.7921(4) 0.7079(4)
C123_7 C 0.9307(5) 0.8114(5) 0.7175(4)
H58_7 H 0.9350 0.8165 0.7326
C124_7 C 0.9285(7) 0.7584(4) 0.7416(4)
H59_7 H 0.9151 0.7652 0.7348
C125_7 C 0.9810(12) 0.7853(8) 0.7147(8)
C126_7 C 0.9887(6) 0.8008(6) 0.6992(6)
H60_7 H 0.9792 0.8103 0.6897
O25_7 O 0.8781(3) 0.6801(4) 0.8463(3)
C139_7 C 0.9145(5) 0.7050(5) 0.8230(4)
H67_7 H 0.9091 0.7106 0.8376
C140_7 C 0.9307(5) 0.7175(4) 0.8114(5)
H68_7 H 0.9350 0.7326 0.8165
O27_7 O 0.8781(3) 0.8199(4) 0.6537(3)
C143_7 C 0.9145(5) 0.7950(5) 0.6770(4)
H71_7 H 0.9091 0.7894 0.6624
C144_7 C 0.9307(5) 0.7825(4) 0.6886(5)
H72_7 H 0.9350 0.7674 0.6835
O32_10 O 1.0000 0.7218(4) 0.7218(4)
O38_10 O 1.0000 0.7782(4) 0.7782(4)
O2_12 O 0.1343(2) 0.3657(2) 0.8657(2)
O3_12 O 0.1696(2) 0.3304(2) 0.8304(2)
Co3_11 Co 0.0000 0.2500 0.7500
N9_8 N 0.0359(11) 0.2500 0.7500
C97_8 C 0.1126(9) 0.3269(6) 0.8269(6)
O20_8 O 0.1219(3) 0.3463(3) 0.8199(4)
N10_11 N 0.0000 0.2742(9) 0.7742(9)
C98_8 C 0.0942(5) 0.3147(3) 0.8147(3)
C99_8 C 0.0855(5) 0.3230(4) 0.7950(5)
H49_8 H 0.0909 0.3376 0.7894
C100_8 C 0.0480(10) 0.2640(9) 0.7640(9)
C101_8 C 0.0399(10) 0.2791(7) 0.7791(7)
C102_8 C 0.0591(5) 0.2921(4) 0.7921(4)
C103_8 C 0.0693(5) 0.3114(5) 0.7825(4)
H50_8 H 0.0650 0.3165 0.7674
C104_8 C 0.0715(7) 0.2584(4) 0.7584(4)
H51_8 H 0.0849 0.2652 0.7652
C105_8 C 0.0190(12) 0.2853(8) 0.7853(8)
C106_8 C 0.0113(6) 0.3008(6) 0.8008(6)
H52_8 H 0.0208 0.3103 0.8103
C117_8 C 0.1126(9) 0.1731(6) 0.6731(6)
O22_8 O 0.1219(3) 0.1537(3) 0.6801(4)
N12_11 N 0.0000 0.2258(9) 0.7258(9)
C118_8 C 0.0942(5) 0.1853(3) 0.6853(3)
C119_8 C 0.0855(5) 0.1770(4) 0.7050(5)
H57_8 H 0.0909 0.1624 0.7106
C120_8 C 0.0480(10) 0.2360(9) 0.7360(9)
C121_8 C 0.0399(10) 0.2209(7) 0.7209(7)
C122_8 C 0.0591(5) 0.2079(4) 0.7079(4)
C123_8 C 0.0693(5) 0.1886(5) 0.7175(4)
H58_8 H 0.0650 0.1835 0.7326
C124_8 C 0.0715(7) 0.2416(4) 0.7416(4)
H59_8 H 0.0849 0.2348 0.7348
C125_8 C 0.0190(12) 0.2147(8) 0.7147(8)
C126_8 C 0.0113(6) 0.1992(6) 0.6992(6)
H60_8 H 0.0208 0.1897 0.6897
O25_8 O 0.1219(3) 0.3199(4) 0.8463(3)
C139_8 C 0.0855(5) 0.2950(5) 0.8230(4)
H67_8 H 0.0909 0.2894 0.8376
C140_8 C 0.0693(5) 0.2825(4) 0.8114(5)
H68_8 H 0.0650 0.2674 0.8165
O27_8 O 0.1219(3) 0.1801(4) 0.6537(3)
C143_8 C 0.0855(5) 0.2050(5) 0.6770(4)
H71_8 H 0.0909 0.2106 0.6624
C144_8 C 0.0693(5) 0.2175(4) 0.6886(5)
H72_8 H 0.0650 0.2326 0.6835
O32_11 O 0.0000 0.2782(4) 0.7218(4)
O38_11 O 0.0000 0.2218(4) 0.7782(4)
Co3_12 Co 1.0000 0.2500 0.7500
N10_12 N 1.0000 0.2742(9) 0.7742(9)
N11_8 N 0.9641(11) 0.2500 0.7500
C107_8 C 0.8874(9) 0.3269(6) 0.8269(6)
C108_8 C 0.9058(5) 0.3147(3) 0.8147(3)
C109_8 C 0.9145(5) 0.2950(5) 0.8230(4)
H53_8 H 0.9091 0.2894 0.8376
C110_8 C 0.9520(10) 0.2640(9) 0.7640(9)
C111_8 C 0.9601(10) 0.2791(7) 0.7791(7)
C112_8 C 0.9409(5) 0.2921(4) 0.7921(4)
C113_8 C 0.9307(5) 0.2825(4) 0.8114(5)
H54_8 H 0.9350 0.2674 0.8165
C114_8 C 0.9285(7) 0.2584(4) 0.7584(4)
H55_8 H 0.9151 0.2652 0.7652
C115_8 C 0.9810(12) 0.2853(8) 0.7853(8)
C116_8 C 0.9887(6) 0.3008(6) 0.8008(6)
H56_8 H 0.9792 0.3103 0.8103
N12_12 N 1.0000 0.2258(9) 0.7258(9)
C127_8 C 0.8874(9) 0.1731(6) 0.6731(6)
O23_8 O 0.8781(3) 0.1801(4) 0.6537(3)
C128_8 C 0.9058(5) 0.1853(3) 0.6853(3)
C129_8 C 0.9145(5) 0.2050(5) 0.6770(4)
H61_8 H 0.9091 0.2106 0.6624
C130_8 C 0.9520(10) 0.2360(9) 0.7360(9)
C131_8 C 0.9601(10) 0.2209(7) 0.7209(7)
C132_8 C 0.9409(5) 0.2079(4) 0.7079(4)
C133_8 C 0.9307(5) 0.2175(4) 0.6886(5)
H62_8 H 0.9350 0.2326 0.6835
C134_8 C 0.9285(7) 0.2416(4) 0.7416(4)
H63_8 H 0.9151 0.2348 0.7348
C135_8 C 0.9810(12) 0.2147(8) 0.7147(8)
C136_8 C 0.9887(6) 0.1992(6) 0.6992(6)
H64_8 H 0.9792 0.1897 0.6897
C137_8 C 0.9145(5) 0.3230(4) 0.7950(5)
H65_8 H 0.9091 0.3376 0.7894
C138_8 C 0.9307(5) 0.3114(5) 0.7825(4)
H66_8 H 0.9350 0.3165 0.7674
O26_8 O 0.8781(3) 0.1537(3) 0.6801(4)
C141_8 C 0.9145(5) 0.1770(4) 0.7050(5)
H69_8 H 0.9091 0.1624 0.7106
C142_8 C 0.9307(5) 0.1886(5) 0.7175(4)
H70_8 H 0.9350 0.1835 0.7326
O32_12 O 1.0000 0.2782(4) 0.7218(4)
O38_12 O 1.0000 0.2218(4) 0.7782(4)
O2_13 O 0.1343(2) 0.1343(2) 0.6343(2)
O3_13 O 0.1696(2) 0.1696(2) 0.6696(2)
O33_7 O 0.1343(2) 0.1343(2) 0.3657(2)
O34_7 O 0.1696(2) 0.1696(2) 0.3304(2)
O28_4 O 0.1343(2) 0.8657(2) 0.6343(2)
O29_4 O 0.1696(2) 0.8304(2) 0.6696(2)
O30_4 O 0.8657(2) 0.1343(2) 0.6343(2)
O31_4 O 0.8304(2) 0.1696(2) 0.6696(2)
O2_14 O 0.8657(2) 0.8657(2) 0.6343(2)
O3_14 O 0.8304(2) 0.8304(2) 0.6696(2)
O33_8 O 0.8657(2) 0.8657(2) 0.3657(2)
O34_8 O 0.8304(2) 0.8304(2) 0.3304(2)
O2_15 O 0.8657(2) 0.1343(2) 0.3657(2)
O3_15 O 0.8304(2) 0.1696(2) 0.3304(2)
O2_16 O 0.1343(2) 0.8657(2) 0.3657(2)
O3_16 O 0.1696(2) 0.8304(2) 0.3304(2)
loop_
_geom_bond_atom_site_label_1
_geom_bond_atom_site_label_2
_geom_bond_site_symmetry_1
_geom_bond_site_symmetry_2
U1 O1 1_555 1_555
Co1 N1 1_555 1_555
N1 C4 1_555 1_555
C1 O1 1_555 1_555
O2 U1 1_555 1_555
N2 Co1 1_555 1_555
C2 C1 1_555 1_555
C3 C2 1_555 1_555
H1 C3 1_555 1_555
O3 U1 1_555 1_555
C4 C5 1_555 1_555
C5 C6 1_555 1_555
C6 C7 1_555 1_555
C7 C3 1_555 1_555
H2 C7 1_555 1_555
O4 Co1 1_555 1_555
C8 C4 1_555 1_555
H3 C8 1_555 1_555
C9 N2 1_555 1_555
C10 C9 1_555 1_555
H4 C10 1_555 1_555
N3 Co1 1_555 1_555
C11 O5 1_555 1_555
O5 U2 1_555 1_555
C12 C11 1_555 1_555
C13 C12 1_555 1_555
H5 C13 1_555 1_555
C14 N3 1_555 1_555
C15 C14 1_555 1_555
C16 C15 1_555 1_555
C17 C13 1_555 1_555
H6 C17 1_555 1_555
C18 C14 1_555 1_555
H7 C18 1_555 1_555
C19 N2 1_555 1_555
C20 C10 1_555 1_555
H8 C20 1_555 1_555
C21 O6 1_555 1_555
O6 U7 1_555 1_555
N4 Co1 1_555 1_555
C22 C21 1_555 1_555
C23 C22 1_555 1_555
H9 C23 1_555 1_555
C24 N1 1_555 1_555
C25 C24 1_555 1_555
C26 C25 1_555 1_555
C27 C23 1_555 1_555
H10 C27 1_555 1_555
C28 C8 1_555 1_555
H11 C28 1_555 1_555
C29 N4 1_555 1_555
C30 C29 1_555 1_555
H12 C30 1_555 1_555
C31 O7 1_555 1_555
O7 U8 1_555 1_555
C32 C31 1_555 1_555
C33 C32 1_555 1_555
H13 C33 1_555 1_555
C34 N3 1_555 1_555
C35 C34 1_555 1_555
C36 C35 1_555 1_555
C37 C33 1_555 1_555
H14 C37 1_555 1_555
C38 C18 1_555 1_555
H15 C38 1_555 1_555
C39 N4 1_555 1_555
C40 C30 1_555 1_555
H16 C40 1_555 1_555
O8 C11 1_555 1_555
C41 C12 1_555 1_555
H17 C41 1_555 1_555
C42 C16 1_555 1_555
H18 C42 1_555 1_555
O9 U1 1_555 1_555
C43 C2 1_555 1_555
H19 C43 1_555 1_555
C44 C6 1_555 1_555
H20 C44 1_555 1_555
O10 C31 1_555 1_555
C45 C32 1_555 1_555
H21 C45 1_555 1_555
C46 C36 1_555 1_555
H22 C46 1_555 1_555
O11 C21 1_555 1_555
C47 C22 1_555 1_555
H23 C47 1_555 1_555
C48 C26 1_555 1_555
H24 C48 1_555 1_555
Co2 N5 1_555 1_555
N5 C52 1_555 1_555
C49 O12 1_555 1_555
O12 U1 1_555 1_555
N6 Co2 1_555 1_555
C50 C49 1_555 1_555
C51 C50 1_555 1_555
H25 C51 1_555 1_555
C52 C53 1_555 1_555
C53 C54 1_555 1_555
C54 C55 1_555 1_555
C55 C51 1_555 1_555
H26 C55 1_555 1_555
C56 C52 1_555 1_555
H27 C56 1_555 1_555
C57 N6 1_555 1_555
C58 C57 1_555 1_555
H28 C58 1_555 1_555
N7 Co2 1_555 1_555
C59 O13 1_555 1_555
O13 U4 1_555 1_555
C60 C59 1_555 1_555
C61 C60 1_555 1_555
H29 C61 1_555 1_555
C62 N7 1_555 1_555
C63 C62 1_555 1_555
C64 C63 1_555 1_555
C65 C61 1_555 1_555
H30 C65 1_555 1_555
C66 C62 1_555 1_555
H31 C66 1_555 1_555
C67 N6 1_555 1_555
C68 C58 1_555 1_555
H32 C68 1_555 1_555
C69 O14 1_555 1_555
O14 U9 1_555 1_555
N8 Co2 1_555 1_555
C70 C69 1_555 1_555
C71 C70 1_555 1_555
H33 C71 1_555 1_555
C72 N5 1_555 1_555
C73 C72 1_555 1_555
C74 C73 1_555 1_555
C75 C71 1_555 1_555
H34 C75 1_555 1_555
C76 C56 1_555 1_555
H35 C76 1_555 1_555
C77 N8 1_555 1_555
C78 C77 1_555 1_555
H36 C78 1_555 1_555
C79 O15 1_555 1_555
O15 U10 1_555 1_555
C80 C79 1_555 1_555
C81 C80 1_555 1_555
H37 C81 1_555 1_555
C82 N7 1_555 1_555
C83 C82 1_555 1_555
C84 C83 1_555 1_555
C85 C81 1_555 1_555
H38 C85 1_555 1_555
C86 C66 1_555 1_555
H39 C86 1_555 1_555
C87 N8 1_555 1_555
C88 C78 1_555 1_555
H40 C88 1_555 1_555
O16 C59 1_555 1_555
C89 C60 1_555 1_555
H41 C89 1_555 1_555
C90 C64 1_555 1_555
H42 C90 1_555 1_555
O17 U1 1_555 1_555
C91 C50 1_555 1_555
H43 C91 1_555 1_555
C92 C54 1_555 1_555
H44 C92 1_555 1_555
O18 C79 1_555 1_555
C93 C80 1_555 1_555
H45 C93 1_555 1_555
C94 C84 1_555 1_555
H46 C94 1_555 1_555
O19 C69 1_555 1_555
C95 C70 1_555 1_555
H47 C95 1_555 1_555
C96 C74 1_555 1_555
H48 C96 1_555 1_555
Co3 N9 1_555 1_555
N9 C100 1_555 1_555
C97 O20 1_555 1_555
O20 U1 1_555 1_555
N10 Co3 1_555 1_555
C98 C97 1_555 1_555
C99 C98 1_555 1_555
H49 C99 1_555 1_555
C100 C101 1_555 1_555
C101 C102 1_555 1_555
C102 C103 1_555 1_555
C103 C99 1_555 1_555
H50 C103 1_555 1_555
C104 C100 1_555 1_555
H51 C104 1_555 1_555
C105 N10 1_555 1_555
C106 C105 1_555 1_555
H52 C106 1_555 1_555
N11 Co3 1_555 1_555
C107 O21 1_555 1_555
O21 U3 1_555 1_555
C108 C107 1_555 1_555
C109 C108 1_555 1_555
H53 C109 1_555 1_555
C110 N11 1_555 1_555
C111 C110 1_555 1_555
C112 C111 1_555 1_555
C113 C109 1_555 1_555
H54 C113 1_555 1_555
C114 C110 1_555 1_555
H55 C114 1_555 1_555
C115 N10 1_555 1_555
C116 C106 1_555 1_555
H56 C116 1_555 1_555
C117 O22 1_555 1_555
O22 U5 1_555 1_555
N12 Co3 1_555 1_555
C118 C117 1_555 1_555
C119 C118 1_555 1_555
H57 C119 1_555 1_555
C120 N9 1_555 1_555
C121 C120 1_555 1_555
C122 C121 1_555 1_555
C123 C119 1_555 1_555
H58 C123 1_555 1_555
C124 C104 1_555 1_555
H59 C124 1_555 1_555
C125 N12 1_555 1_555
C126 C125 1_555 1_555
H60 C126 1_555 1_555
C127 O23 1_555 1_555
O23 U6 1_555 1_555
C128 C127 1_555 1_555
C129 C128 1_555 1_555
H61 C129 1_555 1_555
C130 N11 1_555 1_555
C131 C130 1_555 1_555
C132 C131 1_555 1_555
C133 C129 1_555 1_555
H62 C133 1_555 1_555
C134 C114 1_555 1_555
H63 C134 1_555 1_555
C135 N12 1_555 1_555
C136 C126 1_555 1_555
H64 C136 1_555 1_555
O24 C107 1_555 1_555
C137 C108 1_555 1_555
H65 C137 1_555 1_555
C138 C112 1_555 1_555
H66 C138 1_555 1_555
O25 U1 1_555 1_555
C139 C98 1_555 1_555
H67 C139 1_555 1_555
C140 C102 1_555 1_555
H68 C140 1_555 1_555
O26 C127 1_555 1_555
C141 C128 1_555 1_555
H69 C141 1_555 1_555
C142 C132 1_555 1_555
H70 C142 1_555 1_555
O27 C117 1_555 1_555
C143 C118 1_555 1_555
H71 C143 1_555 1_555
C144 C122 1_555 1_555
H72 C144 1_555 1_555
U2 O8 1_555 1_555
O28 U2 1_555 1_555
O29 U2 1_555 1_555
U3 O24 1_555 1_555
O30 U3 1_555 1_555
O31 U3 1_555 1_555
O32 Co3 1_555 1_555
U4 O16 1_555 1_555
O33 U4 1_555 1_555
O34 U4 1_555 1_555
O35 Co2 1_555 1_555
O36 Co1 1_555 1_555
O37 Co2 1_555 1_555
O38 Co3 1_555 1_555
U5 O27 1_555 1_555
U6 O26 1_555 1_555
U7 O11 1_555 1_555
U8 O10 1_555 1_555
U9 O19 1_555 1_555
U10 O18 1_555 1_555
O39 U4 1_555 1_555
O40 U2 1_555 1_555
O41 U3 1_555 1_555
O42 U2 1_555 1_555
O43 U4 1_555 1_555
O44 U3 1_555 1_555
O45 U4 1_555 1_555
O46 U3 1_555 1_555
O47 U3 1_555 1_555
O48 U2 1_555 1_555
O49 U2 1_555 1_555
O50 U4 1_555 1_555
C1 O9 1_555 1_555
C5 C9 1_555 1_555
C15 C19 1_555 1_555
C16 C17 1_555 1_555
C19 C20 1_555 1_555
C24 C28 1_555 1_555
C25 C29 1_555 1_555
C26 C27 1_555 1_555
C34 C38 1_555 1_555
C35 C39 1_555 1_555
C36 C37 1_555 1_555
C39 C40 1_555 1_555
C41 C42 1_555 1_555
C43 C44 1_555 1_555
C45 C46 1_555 1_555
C47 C48 1_555 1_555
C49 O17 1_555 1_555
C53 C57 1_555 1_555
C63 C67 1_555 1_555
C64 C65 1_555 1_555
C67 C68 1_555 1_555
C72 C76 1_555 1_555
C73 C77 1_555 1_555
C74 C75 1_555 1_555
C82 C86 1_555 1_555
C83 C87 1_555 1_555
C84 C85 1_555 1_555
C87 C88 1_555 1_555
C89 C90 1_555 1_555
C91 C92 1_555 1_555
C93 C94 1_555 1_555
C95 C96 1_555 1_555
C97 O25 1_555 1_555
C101 C105 1_555 1_555
C111 C115 1_555 1_555
C112 C113 1_555 1_555
C115 C116 1_555 1_555
C120 C124 1_555 1_555
C121 C125 1_555 1_555
C122 C123 1_555 1_555
C130 C134 1_555 1_555
C131 C135 1_555 1_555
C132 C133 1_555 1_555
C135 C136 1_555 1_555
C137 C138 1_555 1_555
C139 C140 1_555 1_555
C141 C142 1_555 1_555
C143 C144 1_555 1_555
U1_2 O1_2 1_555 1_555
Co1_2 N1_2 1_555 1_555
N1_2 C4_2 1_555 1_555
C1_2 O1_2 1_555 1_555
O2_2 U1_2 1_555 1_555
N2_2 Co1_2 1_555 1_555
C2_2 C1_2 1_555 1_555
C3_2 C2_2 1_555 1_555
H1_2 C3_2 1_555 1_555
O3_2 U1_2 1_555 1_555
C4_2 C5_2 1_555 1_555
C5_2 C6_2 1_555 1_555
C6_2 C7_2 1_555 1_555
C7_2 C3_2 1_555 1_555
H2_2 C7_2 1_555 1_555
O4_2 Co1_2 1_555 1_555
C8_2 C4_2 1_555 1_555
H3_2 C8_2 1_555 1_555
C9_2 N2_2 1_555 1_555
C10_2 C9_2 1_555 1_555
H4_2 C10_2 1_555 1_555
N3_2 Co1_2 1_555 1_555
C11_2 O44 1_555 1_555
C12_2 C11_2 1_555 1_555
C13_2 C12_2 1_555 1_555
H5_2 C13_2 1_555 1_555
C14_2 N3_2 1_555 1_555
C15_2 C14_2 1_555 1_555
C16_2 C15_2 1_555 1_555
C17_2 C13_2 1_555 1_555
H6_2 C17_2 1_555 1_555
C18_2 C14_2 1_555 1_555
H7_2 C18_2 1_555 1_555
C19_2 N2_2 1_555 1_555
C20_2 C10_2 1_555 1_555
H8_2 C20_2 1_555 1_555
C21_2 O6_2 1_555 1_555
O6_2 U7_2 1_555 1_555
N4_2 Co1_2 1_555 1_555
C22_2 C21_2 1_555 1_555
C23_2 C22_2 1_555 1_555
H9_2 C23_2 1_555 1_555
C24_2 N1_2 1_555 1_555
C25_2 C24_2 1_555 1_555
C26_2 C25_2 1_555 1_555
C27_2 C23_2 1_555 1_555
H10_2 C27_2 1_555 1_555
C28_2 C8_2 1_555 1_555
H11_2 C28_2 1_555 1_555
C29_2 N4_2 1_555 1_555
C30_2 C29_2 1_555 1_555
H12_2 C30_2 1_555 1_555
C31_2 O7_2 1_555 1_555
O7_2 U8_2 1_555 1_555
C32_2 C31_2 1_555 1_555
C33_2 C32_2 1_555 1_555
H13_2 C33_2 1_555 1_555
C34_2 N3_2 1_555 1_555
C35_2 C34_2 1_555 1_555
C36_2 C35_2 1_555 1_555
C37_2 C33_2 1_555 1_555
H14_2 C37_2 1_555 1_555
C38_2 C18_2 1_555 1_555
H15_2 C38_2 1_555 1_555
C39_2 N4_2 1_555 1_555
C40_2 C30_2 1_555 1_555
H16_2 C40_2 1_555 1_555
O46 C11_2 1_555 1_555
C41_2 C12_2 1_555 1_555
H17_2 C41_2 1_555 1_555
C42_2 C16_2 1_555 1_555
H18_2 C42_2 1_555 1_555
O9_2 U1_2 1_555 1_555
C43_2 C2_2 1_555 1_555
H19_2 C43_2 1_555 1_555
C44_2 C6_2 1_555 1_555
H20_2 C44_2 1_555 1_555
O10_2 C31_2 1_555 1_555
C45_2 C32_2 1_555 1_555
H21_2 C45_2 1_555 1_555
C46_2 C36_2 1_555 1_555
H22_2 C46_2 1_555 1_555
O11_2 C21_2 1_555 1_555
C47_2 C22_2 1_555 1_555
H23_2 C47_2 1_555 1_555
C48_2 C26_2 1_555 1_555
H24_2 C48_2 1_555 1_555
Co2_2 N5_2 1_555 1_555
N5_2 C52_2 1_555 1_555
C49_2 O12_2 1_555 1_555
O12_2 U1_2 1_555 1_555
N6_2 Co2_2 1_555 1_555
C50_2 C49_2 1_555 1_555
C51_2 C50_2 1_555 1_555
H25_2 C51_2 1_555 1_555
C52_2 C53_2 1_555 1_555
C53_2 C54_2 1_555 1_555
C54_2 C55_2 1_555 1_555
C55_2 C51_2 1_555 1_555
H26_2 C55_2 1_555 1_555
C56_2 C52_2 1_555 1_555
H27_2 C56_2 1_555 1_555
C57_2 N6_2 1_555 1_555
C58_2 C57_2 1_555 1_555
H28_2 C58_2 1_555 1_555
N7_2 Co2_2 1_555 1_555
C59_2 O13_2 1_555 1_555
O13_2 U4_2 1_555 1_555
C60_2 C59_2 1_555 1_555
C61_2 C60_2 1_555 1_555
H29_2 C61_2 1_555 1_555
C62_2 N7_2 1_555 1_555
C63_2 C62_2 1_555 1_555
C64_2 C63_2 1_555 1_555
C65_2 C61_2 1_555 1_555
H30_2 C65_2 1_555 1_555
C66_2 C62_2 1_555 1_555
H31_2 C66_2 1_555 1_555
C67_2 N6_2 1_555 1_555
C68_2 C58_2 1_555 1_555
H32_2 C68_2 1_555 1_555
C69_2 O14_2 1_555 1_555
O14_2 U9_2 1_555 1_555
N8_2 Co2_2 1_555 1_555
C70_2 C69_2 1_555 1_555
C71_2 C70_2 1_555 1_555
H33_2 C71_2 1_555 1_555
C72_2 N5_2 1_555 1_555
C73_2 C72_2 1_555 1_555
C74_2 C73_2 1_555 1_555
C75_2 C71_2 1_555 1_555
H34_2 C75_2 1_555 1_555
C76_2 C56_2 1_555 1_555
H35_2 C76_2 1_555 1_555
C77_2 N8_2 1_555 1_555
C78_2 C77_2 1_555 1_555
H36_2 C78_2 1_555 1_555
C79_2 O15_2 1_555 1_555
O15_2 U10_2 1_555 1_555
C80_2 C79_2 1_555 1_555
C81_2 C80_2 1_555 1_555
H37_2 C81_2 1_555 1_555
C82_2 N7_2 1_555 1_555
C83_2 C82_2 1_555 1_555
C84_2 C83_2 1_555 1_555
C85_2 C81_2 1_555 1_555
H38_2 C85_2 1_555 1_555
C86_2 C66_2 1_555 1_555
H39_2 C86_2 1_555 1_555
C87_2 N8_2 1_555 1_555
C88_2 C78_2 1_555 1_555
H40_2 C88_2 1_555 1_555
O16_2 C59_2 1_555 1_555
C89_2 C60_2 1_555 1_555
H41_2 C89_2 1_555 1_555
C90_2 C64_2 1_555 1_555
H42_2 C90_2 1_555 1_555
O17_2 U1_2 1_555 1_555
C91_2 C50_2 1_555 1_555
H43_2 C91_2 1_555 1_555
C92_2 C54_2 1_555 1_555
H44_2 C92_2 1_555 1_555
O18_2 C79_2 1_555 1_555
C93_2 C80_2 1_555 1_555
H45_2 C93_2 1_555 1_555
C94_2 C84_2 1_555 1_555
H46_2 C94_2 1_555 1_555
O19_2 C69_2 1_555 1_555
C95_2 C70_2 1_555 1_555
H47_2 C95_2 1_555 1_555
C96_2 C74_2 1_555 1_555
H48_2 C96_2 1_555 1_555
Co3_2 N9_2 1_555 1_555
N9_2 C100_2 1_555 1_555
C97_2 O20_2 1_555 1_555
O20_2 U1_2 1_555 1_555
N10_2 Co3_2 1_555 1_555
C98_2 C97_2 1_555 1_555
C99_2 C98_2 1_555 1_555
H49_2 C99_2 1_555 1_555
C100_2 C101_2 1_555 1_555
C101_2 C102_2 1_555 1_555
C102_2 C103_2 1_555 1_555
C103_2 C99_2 1_555 1_555
H50_2 C103_2 1_555 1_555
C104_2 C100_2 1_555 1_555
H51_2 C104_2 1_555 1_555
C105_2 N10_2 1_555 1_555
C106_2 C105_2 1_555 1_555
H52_2 C106_2 1_555 1_555
N11_2 Co3_2 1_555 1_555
C107_2 O40 1_555 1_555
C108_2 C107_2 1_555 1_555
C109_2 C108_2 1_555 1_555
H53_2 C109_2 1_555 1_555
C110_2 N11_2 1_555 1_555
C111_2 C110_2 1_555 1_555
C112_2 C111_2 1_555 1_555
C113_2 C109_2 1_555 1_555
H54_2 C113_2 1_555 1_555
C114_2 C110_2 1_555 1_555
H55_2 C114_2 1_555 1_555
C115_2 N10_2 1_555 1_555
C116_2 C106_2 1_555 1_555
H56_2 C116_2 1_555 1_555
C117_2 O22_2 1_555 1_555
O22_2 U5_2 1_555 1_555
N12_2 Co3_2 1_555 1_555
C118_2 C117_2 1_555 1_555
C119_2 C118_2 1_555 1_555
H57_2 C119_2 1_555 1_555
C120_2 N9_2 1_555 1_555
C121_2 C120_2 1_555 1_555
C122_2 C121_2 1_555 1_555
C123_2 C119_2 1_555 1_555
H58_2 C123_2 1_555 1_555
C124_2 C104_2 1_555 1_555
H59_2 C124_2 1_555 1_555
C125_2 N12_2 1_555 1_555
C126_2 C125_2 1_555 1_555
H60_2 C126_2 1_555 1_555
C127_2 O23_2 1_555 1_555
O23_2 U6_2 1_555 1_555
C128_2 C127_2 1_555 1_555
C129_2 C128_2 1_555 1_555
H61_2 C129_2 1_555 1_555
C130_2 N11_2 1_555 1_555
C131_2 C130_2 1_555 1_555
C132_2 C131_2 1_555 1_555
C133_2 C129_2 1_555 1_555
H62_2 C133_2 1_555 1_555
C134_2 C114_2 1_555 1_555
H63_2 C134_2 1_555 1_555
C135_2 N12_2 1_555 1_555
C136_2 C126_2 1_555 1_555
H64_2 C136_2 1_555 1_555
O49 C107_2 1_555 1_555
C137_2 C108_2 1_555 1_555
H65_2 C137_2 1_555 1_555
C138_2 C112_2 1_555 1_555
H66_2 C138_2 1_555 1_555
O25_2 U1_2 1_555 1_555
C139_2 C98_2 1_555 1_555
H67_2 C139_2 1_555 1_555
C140_2 C102_2 1_555 1_555
H68_2 C140_2 1_555 1_555
O26_2 C127_2 1_555 1_555
C141_2 C128_2 1_555 1_555
H69_2 C141_2 1_555 1_555
C142_2 C132_2 1_555 1_555
H70_2 C142_2 1_555 1_555
O27_2 C117_2 1_555 1_555
C143_2 C118_2 1_555 1_555
H71_2 C143_2 1_555 1_555
C144_2 C122_2 1_555 1_555
H72_2 C144_2 1_555 1_555
O32_2 Co3_2 1_555 1_555
U4_2 O16_2 1_555 1_555
O33_2 U4_2 1_555 1_555
O34_2 U4_2 1_555 1_555
O35_2 Co2_2 1_555 1_555
O36_2 Co1_2 1_555 1_555
O37_2 Co2_2 1_555 1_555
O38_2 Co3_2 1_555 1_555
U5_2 O27_2 1_555 1_555
U6_2 O26_2 1_555 1_555
U7_2 O11_2 1_555 1_555
U8_2 O10_2 1_555 1_555
U9_2 O19_2 1_555 1_555
U10_2 O18_2 1_555 1_555
O39_2 U4_2 1_555 1_555
O43_2 U4_2 1_555 1_555
O45_2 U4_2 1_555 1_555
O50_2 U4_2 1_555 1_555
C1_2 O9_2 1_555 1_555
C5_2 C9_2 1_555 1_555
C15_2 C19_2 1_555 1_555
C16_2 C17_2 1_555 1_555
C19_2 C20_2 1_555 1_555
C24_2 C28_2 1_555 1_555
C25_2 C29_2 1_555 1_555
C26_2 C27_2 1_555 1_555
C34_2 C38_2 1_555 1_555
C35_2 C39_2 1_555 1_555
C36_2 C37_2 1_555 1_555
C39_2 C40_2 1_555 1_555
C41_2 C42_2 1_555 1_555
C43_2 C44_2 1_555 1_555
C45_2 C46_2 1_555 1_555
C47_2 C48_2 1_555 1_555
C49_2 O17_2 1_555 1_555
C53_2 C57_2 1_555 1_555
C63_2 C67_2 1_555 1_555
C64_2 C65_2 1_555 1_555
C67_2 C68_2 1_555 1_555
C72_2 C76_2 1_555 1_555
C73_2 C77_2 1_555 1_555
C74_2 C75_2 1_555 1_555
C82_2 C86_2 1_555 1_555
C83_2 C87_2 1_555 1_555
C84_2 C85_2 1_555 1_555
C87_2 C88_2 1_555 1_555
C89_2 C90_2 1_555 1_555
C91_2 C92_2 1_555 1_555
C93_2 C94_2 1_555 1_555
C95_2 C96_2 1_555 1_555
C97_2 O25_2 1_555 1_555
C101_2 C105_2 1_555 1_555
C111_2 C115_2 1_555 1_555
C112_2 C113_2 1_555 1_555
C115_2 C116_2 1_555 1_555
C120_2 C124_2 1_555 1_555
C121_2 C125_2 1_555 1_555
C122_2 C123_2 1_555 1_555
C130_2 C134_2 1_555 1_555
C131_2 C135_2 1_555 1_555
C132_2 C133_2 1_555 1_555
C135_2 C136_2 1_555 1_555
C137_2 C138_2 1_555 1_555
C139_2 C140_2 1_555 1_555
C141_2 C142_2 1_555 1_555
C143_2 C144_2 1_555 1_555
U1_3 O1_3 1_555 1_555
Co1_3 N1_3 1_555 1_555
N1_3 C4_3 1_555 1_555
C1_3 O1_3 1_555 1_555
O2_3 U1_3 1_555 1_555
N2_3 Co1_3 1_555 1_555
C2_3 C1_3 1_555 1_555
C3_3 C2_3 1_555 1_555
H1_3 C3_3 1_555 1_555
O3_3 U1_3 1_555 1_555
C4_3 C5_3 1_555 1_555
C5_3 C6_3 1_555 1_555
C6_3 C7_3 1_555 1_555
C7_3 C3_3 1_555 1_555
H2_3 C7_3 1_555 1_555
O4_3 Co1_3 1_555 1_555
C8_3 C4_3 1_555 1_555
H3_3 C8_3 1_555 1_555
C9_3 N2_3 1_555 1_555
C10_3 C9_3 1_555 1_555
H4_3 C10_3 1_555 1_555
N3_3 Co1_3 1_555 1_555
C11_3 O43_2 1_555 1_555
C12_3 C11_3 1_555 1_555
C13_3 C12_3 1_555 1_555
H5_3 C13_3 1_555 1_555
C14_3 N3_3 1_555 1_555
C15_3 C14_3 1_555 1_555
C16_3 C15_3 1_555 1_555
C17_3 C13_3 1_555 1_555
H6_3 C17_3 1_555 1_555
C18_3 C14_3 1_555 1_555
H7_3 C18_3 1_555 1_555
C19_3 N2_3 1_555 1_555
C20_3 C10_3 1_555 1_555
H8_3 C20_3 1_555 1_555
C21_3 O6_3 1_555 1_555
O6_3 U7_3 1_555 1_555
N4_3 Co1_3 1_555 1_555
C22_3 C21_3 1_555 1_555
C23_3 C22_3 1_555 1_555
H9_3 C23_3 1_555 1_555
C24_3 N1_3 1_555 1_555
C25_3 C24_3 1_555 1_555
C26_3 C25_3 1_555 1_555
C27_3 C23_3 1_555 1_555
H10_3 C27_3 1_555 1_555
C28_3 C8_3 1_555 1_555
H11_3 C28_3 1_555 1_555
C29_3 N4_3 1_555 1_555
C30_3 C29_3 1_555 1_555
H12_3 C30_3 1_555 1_555
C31_3 O7_3 1_555 1_555
O7_3 U8_3 1_555 1_555
C32_3 C31_3 1_555 1_555
C33_3 C32_3 1_555 1_555
H13_3 C33_3 1_555 1_555
C34_3 N3_3 1_555 1_555
C35_3 C34_3 1_555 1_555
C36_3 C35_3 1_555 1_555
C37_3 C33_3 1_555 1_555
H14_3 C37_3 1_555 1_555
C38_3 C18_3 1_555 1_555
H15_3 C38_3 1_555 1_555
C39_3 N4_3 1_555 1_555
C40_3 C30_3 1_555 1_555
H16_3 C40_3 1_555 1_555
O45_2 C11_3 1_555 1_555
C41_3 C12_3 1_555 1_555
H17_3 C41_3 1_555 1_555
C42_3 C16_3 1_555 1_555
H18_3 C42_3 1_555 1_555
O9_3 U1_3 1_555 1_555
C43_3 C2_3 1_555 1_555
H19_3 C43_3 1_555 1_555
C44_3 C6_3 1_555 1_555
H20_3 C44_3 1_555 1_555
O10_3 C31_3 1_555 1_555
C45_3 C32_3 1_555 1_555
H21_3 C45_3 1_555 1_555
C46_3 C36_3 1_555 1_555
H22_3 C46_3 1_555 1_555
O11_3 C21_3 1_555 1_555
C47_3 C22_3 1_555 1_555
H23_3 C47_3 1_555 1_555
C48_3 C26_3 1_555 1_555
H24_3 C48_3 1_555 1_555
Co2_3 N5_3 1_555 1_555
N5_3 C52_3 1_555 1_555
C49_3 O12_3 1_555 1_555
O12_3 U1_3 1_555 1_555
N6_3 Co2_3 1_555 1_555
C50_3 C49_3 1_555 1_555
C51_3 C50_3 1_555 1_555
H25_3 C51_3 1_555 1_555
C52_3 C53_3 1_555 1_555
C53_3 C54_3 1_555 1_555
C54_3 C55_3 1_555 1_555
C55_3 C51_3 1_555 1_555
H26_3 C55_3 1_555 1_555
C56_3 C52_3 1_555 1_555
H27_3 C56_3 1_555 1_555
C57_3 N6_3 1_555 1_555
C58_3 C57_3 1_555 1_555
H28_3 C58_3 1_555 1_555
N7_3 Co2_3 1_555 1_555
C59_3 O41 1_555 1_555
C60_3 C59_3 1_555 1_555
C61_3 C60_3 1_555 1_555
H29_3 C61_3 1_555 1_555
C62_3 N7_3 1_555 1_555
C63_3 C62_3 1_555 1_555
C64_3 C63_3 1_555 1_555
C65_3 C61_3 1_555 1_555
H30_3 C65_3 1_555 1_555
C66_3 C62_3 1_555 1_555
H31_3 C66_3 1_555 1_555
C67_3 N6_3 1_555 1_555
C68_3 C58_3 1_555 1_555
H32_3 C68_3 1_555 1_555
C69_3 O14_3 1_555 1_555
O14_3 U9_3 1_555 1_555
N8_3 Co2_3 1_555 1_555
C70_3 C69_3 1_555 1_555
C71_3 C70_3 1_555 1_555
H33_3 C71_3 1_555 1_555
C72_3 N5_3 1_555 1_555
C73_3 C72_3 1_555 1_555
C74_3 C73_3 1_555 1_555
C75_3 C71_3 1_555 1_555
H34_3 C75_3 1_555 1_555
C76_3 C56_3 1_555 1_555
H35_3 C76_3 1_555 1_555
C77_3 N8_3 1_555 1_555
C78_3 C77_3 1_555 1_555
H36_3 C78_3 1_555 1_555
C79_3 O15_3 1_555 1_555
O15_3 U10_3 1_555 1_555
C80_3 C79_3 1_555 1_555
C81_3 C80_3 1_555 1_555
H37_3 C81_3 1_555 1_555
C82_3 N7_3 1_555 1_555
C83_3 C82_3 1_555 1_555
C84_3 C83_3 1_555 1_555
C85_3 C81_3 1_555 1_555
H38_3 C85_3 1_555 1_555
C86_3 C66_3 1_555 1_555
H39_3 C86_3 1_555 1_555
C87_3 N8_3 1_555 1_555
C88_3 C78_3 1_555 1_555
H40_3 C88_3 1_555 1_555
O47 C59_3 1_555 1_555
C89_3 C60_3 1_555 1_555
H41_3 C89_3 1_555 1_555
C90_3 C64_3 1_555 1_555
H42_3 C90_3 1_555 1_555
O17_3 U1_3 1_555 1_555
C91_3 C50_3 1_555 1_555
H43_3 C91_3 1_555 1_555
C92_3 C54_3 1_555 1_555
H44_3 C92_3 1_555 1_555
O18_3 C79_3 1_555 1_555
C93_3 C80_3 1_555 1_555
H45_3 C93_3 1_555 1_555
C94_3 C84_3 1_555 1_555
H46_3 C94_3 1_555 1_555
O19_3 C69_3 1_555 1_555
C95_3 C70_3 1_555 1_555
H47_3 C95_3 1_555 1_555
C96_3 C74_3 1_555 1_555
H48_3 C96_3 1_555 1_555
Co3_3 N9_3 1_555 1_555
N9_3 C100_3 1_555 1_555
C97_3 O20_3 1_555 1_555
O20_3 U1_3 1_555 1_555
N10_3 Co3_3 1_555 1_555
C98_3 C97_3 1_555 1_555
C99_3 C98_3 1_555 1_555
H49_3 C99_3 1_555 1_555
C100_3 C101_3 1_555 1_555
C101_3 C102_3 1_555 1_555
C102_3 C103_3 1_555 1_555
C103_3 C99_3 1_555 1_555
H50_3 C103_3 1_555 1_555
C104_3 C100_3 1_555 1_555
H51_3 C104_3 1_555 1_555
C105_3 N10_3 1_555 1_555
C106_3 C105_3 1_555 1_555
H52_3 C106_3 1_555 1_555
N11_3 Co3_3 1_555 1_555
C107_3 O39 1_555 1_555
C108_3 C107_3 1_555 1_555
C109_3 C108_3 1_555 1_555
H53_3 C109_3 1_555 1_555
C110_3 N11_3 1_555 1_555
C111_3 C110_3 1_555 1_555
C112_3 C111_3 1_555 1_555
C113_3 C109_3 1_555 1_555
H54_3 C113_3 1_555 1_555
C114_3 C110_3 1_555 1_555
H55_3 C114_3 1_555 1_555
C115_3 N10_3 1_555 1_555
C116_3 C106_3 1_555 1_555
H56_3 C116_3 1_555 1_555
C117_3 O22_3 1_555 1_555
O22_3 U5_3 1_555 1_555
N12_3 Co3_3 1_555 1_555
C118_3 C117_3 1_555 1_555
C119_3 C118_3 1_555 1_555
H57_3 C119_3 1_555 1_555
C120_3 N9_3 1_555 1_555
C121_3 C120_3 1_555 1_555
C122_3 C121_3 1_555 1_555
C123_3 C119_3 1_555 1_555
H58_3 C123_3 1_555 1_555
C124_3 C104_3 1_555 1_555
H59_3 C124_3 1_555 1_555
C125_3 N12_3 1_555 1_555
C126_3 C125_3 1_555 1_555
H60_3 C126_3 1_555 1_555
C127_3 O23_3 1_555 1_555
O23_3 U6_3 1_555 1_555
C128_3 C127_3 1_555 1_555
C129_3 C128_3 1_555 1_555
H61_3 C129_3 1_555 1_555
C130_3 N11_3 1_555 1_555
C131_3 C130_3 1_555 1_555
C132_3 C131_3 1_555 1_555
C133_3 C129_3 1_555 1_555
H62_3 C133_3 1_555 1_555
C134_3 C114_3 1_555 1_555
H63_3 C134_3 1_555 1_555
C135_3 N12_3 1_555 1_555
C136_3 C126_3 1_555 1_555
H64_3 C136_3 1_555 1_555
O50 C107_3 1_555 1_555
C137_3 C108_3 1_555 1_555
H65_3 C137_3 1_555 1_555
C138_3 C112_3 1_555 1_555
H66_3 C138_3 1_555 1_555
O25_3 U1_3 1_555 1_555
C139_3 C98_3 1_555 1_555
H67_3 C139_3 1_555 1_555
C140_3 C102_3 1_555 1_555
H68_3 C140_3 1_555 1_555
O26_3 C127_3 1_555 1_555
C141_3 C128_3 1_555 1_555
H69_3 C141_3 1_555 1_555
C142_3 C132_3 1_555 1_555
H70_3 C142_3 1_555 1_555
O27_3 C117_3 1_555 1_555
C143_3 C118_3 1_555 1_555
H71_3 C143_3 1_555 1_555
C144_3 C122_3 1_555 1_555
H72_3 C144_3 1_555 1_555
O32_3 Co3_3 1_555 1_555
O35_3 Co2_3 1_555 1_555
O36_3 Co1_3 1_555 1_555
O37_3 Co2_3 1_555 1_555
O38_3 Co3_3 1_555 1_555
U5_3 O27_3 1_555 1_555
U6_3 O26_3 1_555 1_555
U7_3 O11_3 1_555 1_555
U8_3 O10_3 1_555 1_555
U9_3 O19_3 1_555 1_555
U10_3 O18_3 1_555 1_555
C1_3 O9_3 1_555 1_555
C5_3 C9_3 1_555 1_555
C15_3 C19_3 1_555 1_555
C16_3 C17_3 1_555 1_555
C19_3 C20_3 1_555 1_555
C24_3 C28_3 1_555 1_555
C25_3 C29_3 1_555 1_555
C26_3 C27_3 1_555 1_555
C34_3 C38_3 1_555 1_555
C35_3 C39_3 1_555 1_555
C36_3 C37_3 1_555 1_555
C39_3 C40_3 1_555 1_555
C41_3 C42_3 1_555 1_555
C43_3 C44_3 1_555 1_555
C45_3 C46_3 1_555 1_555
C47_3 C48_3 1_555 1_555
C49_3 O17_3 1_555 1_555
C53_3 C57_3 1_555 1_555
C63_3 C67_3 1_555 1_555
C64_3 C65_3 1_555 1_555
C67_3 C68_3 1_555 1_555
C72_3 C76_3 1_555 1_555
C73_3 C77_3 1_555 1_555
C74_3 C75_3 1_555 1_555
C82_3 C86_3 1_555 1_555
C83_3 C87_3 1_555 1_555
C84_3 C85_3 1_555 1_555
C87_3 C88_3 1_555 1_555
C89_3 C90_3 1_555 1_555
C91_3 C92_3 1_555 1_555
C93_3 C94_3 1_555 1_555
C95_3 C96_3 1_555 1_555
C97_3 O25_3 1_555 1_555
C101_3 C105_3 1_555 1_555
C111_3 C115_3 1_555 1_555
C112_3 C113_3 1_555 1_555
C115_3 C116_3 1_555 1_555
C120_3 C124_3 1_555 1_555
C121_3 C125_3 1_555 1_555
C122_3 C123_3 1_555 1_555
C130_3 C134_3 1_555 1_555
C131_3 C135_3 1_555 1_555
C132_3 C133_3 1_555 1_555
C135_3 C136_3 1_555 1_555
C137_3 C138_3 1_555 1_555
C139_3 C140_3 1_555 1_555
C141_3 C142_3 1_555 1_555
C143_3 C144_3 1_555 1_555
U1_4 O1_4 1_555 1_555
Co1_4 N1_4 1_555 1_555
N1_4 C4_4 1_555 1_555
C1_4 O1_4 1_555 1_555
O2_4 U1_4 1_555 1_555
N2_4 Co1_4 1_555 1_555
C2_4 C1_4 1_555 1_555
C3_4 C2_4 1_555 1_555
H1_4 C3_4 1_555 1_555
O3_4 U1_4 1_555 1_555
C4_4 C5_4 1_555 1_555
C5_4 C6_4 1_555 1_555
C6_4 C7_4 1_555 1_555
C7_4 C3_4 1_555 1_555
H2_4 C7_4 1_555 1_555
O4_4 Co1_4 1_555 1_555
C8_4 C4_4 1_555 1_555
H3_4 C8_4 1_555 1_555
C9_4 N2_4 1_555 1_555
C10_4 C9_4 1_555 1_555
H4_4 C10_4 1_555 1_555
N3_4 Co1_4 1_555 1_555
C11_4 O43 1_555 1_555
C12_4 C11_4 1_555 1_555
C13_4 C12_4 1_555 1_555
H5_4 C13_4 1_555 1_555
C14_4 N3_4 1_555 1_555
C15_4 C14_4 1_555 1_555
C16_4 C15_4 1_555 1_555
C17_4 C13_4 1_555 1_555
H6_4 C17_4 1_555 1_555
C18_4 C14_4 1_555 1_555
H7_4 C18_4 1_555 1_555
C19_4 N2_4 1_555 1_555
C20_4 C10_4 1_555 1_555
H8_4 C20_4 1_555 1_555
C21_4 O6_4 1_555 1_555
O6_4 U7_4 1_555 1_555
N4_4 Co1_4 1_555 1_555
C22_4 C21_4 1_555 1_555
C23_4 C22_4 1_555 1_555
H9_4 C23_4 1_555 1_555
C24_4 N1_4 1_555 1_555
C25_4 C24_4 1_555 1_555
C26_4 C25_4 1_555 1_555
C27_4 C23_4 1_555 1_555
H10_4 C27_4 1_555 1_555
C28_4 C8_4 1_555 1_555
H11_4 C28_4 1_555 1_555
C29_4 N4_4 1_555 1_555
C30_4 C29_4 1_555 1_555
H12_4 C30_4 1_555 1_555
C31_4 O7_4 1_555 1_555
O7_4 U8_4 1_555 1_555
C32_4 C31_4 1_555 1_555
C33_4 C32_4 1_555 1_555
H13_4 C33_4 1_555 1_555
C34_4 N3_4 1_555 1_555
C35_4 C34_4 1_555 1_555
C36_4 C35_4 1_555 1_555
C37_4 C33_4 1_555 1_555
H14_4 C37_4 1_555 1_555
C38_4 C18_4 1_555 1_555
H15_4 C38_4 1_555 1_555
C39_4 N4_4 1_555 1_555
C40_4 C30_4 1_555 1_555
H16_4 C40_4 1_555 1_555
O45 C11_4 1_555 1_555
C41_4 C12_4 1_555 1_555
H17_4 C41_4 1_555 1_555
C42_4 C16_4 1_555 1_555
H18_4 C42_4 1_555 1_555
O9_4 U1_4 1_555 1_555
C43_4 C2_4 1_555 1_555
H19_4 C43_4 1_555 1_555
C44_4 C6_4 1_555 1_555
H20_4 C44_4 1_555 1_555
O10_4 C31_4 1_555 1_555
C45_4 C32_4 1_555 1_555
H21_4 C45_4 1_555 1_555
C46_4 C36_4 1_555 1_555
H22_4 C46_4 1_555 1_555
O11_4 C21_4 1_555 1_555
C47_4 C22_4 1_555 1_555
H23_4 C47_4 1_555 1_555
C48_4 C26_4 1_555 1_555
H24_4 C48_4 1_555 1_555
Co2_4 N5_4 1_555 1_555
N5_4 C52_4 1_555 1_555
C49_4 O12_4 1_555 1_555
O12_4 U1_4 1_555 1_555
N6_4 Co2_4 1_555 1_555
C50_4 C49_4 1_555 1_555
C51_4 C50_4 1_555 1_555
H25_4 C51_4 1_555 1_555
C52_4 C53_4 1_555 1_555
C53_4 C54_4 1_555 1_555
C54_4 C55_4 1_555 1_555
C55_4 C51_4 1_555 1_555
H26_4 C55_4 1_555 1_555
C56_4 C52_4 1_555 1_555
H27_4 C56_4 1_555 1_555
C57_4 N6_4 1_555 1_555
C58_4 C57_4 1_555 1_555
H28_4 C58_4 1_555 1_555
N7_4 Co2_4 1_555 1_555
C59_4 O42 1_555 1_555
C60_4 C59_4 1_555 1_555
C61_4 C60_4 1_555 1_555
H29_4 C61_4 1_555 1_555
C62_4 N7_4 1_555 1_555
C63_4 C62_4 1_555 1_555
C64_4 C63_4 1_555 1_555
C65_4 C61_4 1_555 1_555
H30_4 C65_4 1_555 1_555
C66_4 C62_4 1_555 1_555
H31_4 C66_4 1_555 1_555
C67_4 N6_4 1_555 1_555
C68_4 C58_4 1_555 1_555
H32_4 C68_4 1_555 1_555
C69_4 O14_4 1_555 1_555
O14_4 U9_4 1_555 1_555
N8_4 Co2_4 1_555 1_555
C70_4 C69_4 1_555 1_555
C71_4 C70_4 1_555 1_555
H33_4 C71_4 1_555 1_555
C72_4 N5_4 1_555 1_555
C73_4 C72_4 1_555 1_555
C74_4 C73_4 1_555 1_555
C75_4 C71_4 1_555 1_555
H34_4 C75_4 1_555 1_555
C76_4 C56_4 1_555 1_555
H35_4 C76_4 1_555 1_555
C77_4 N8_4 1_555 1_555
C78_4 C77_4 1_555 1_555
H36_4 C78_4 1_555 1_555
C79_4 O15_4 1_555 1_555
O15_4 U10_4 1_555 1_555
C80_4 C79_4 1_555 1_555
C81_4 C80_4 1_555 1_555
H37_4 C81_4 1_555 1_555
C82_4 N7_4 1_555 1_555
C83_4 C82_4 1_555 1_555
C84_4 C83_4 1_555 1_555
C85_4 C81_4 1_555 1_555
H38_4 C85_4 1_555 1_555
C86_4 C66_4 1_555 1_555
H39_4 C86_4 1_555 1_555
C87_4 N8_4 1_555 1_555
C88_4 C78_4 1_555 1_555
H40_4 C88_4 1_555 1_555
O48 C59_4 1_555 1_555
C89_4 C60_4 1_555 1_555
H41_4 C89_4 1_555 1_555
C90_4 C64_4 1_555 1_555
H42_4 C90_4 1_555 1_555
O17_4 U1_4 1_555 1_555
C91_4 C50_4 1_555 1_555
H43_4 C91_4 1_555 1_555
C92_4 C54_4 1_555 1_555
H44_4 C92_4 1_555 1_555
O18_4 C79_4 1_555 1_555
C93_4 C80_4 1_555 1_555
H45_4 C93_4 1_555 1_555
C94_4 C84_4 1_555 1_555
H46_4 C94_4 1_555 1_555
O19_4 C69_4 1_555 1_555
C95_4 C70_4 1_555 1_555
H47_4 C95_4 1_555 1_555
C96_4 C74_4 1_555 1_555
H48_4 C96_4 1_555 1_555
Co3_4 N9_4 1_555 1_555
N9_4 C100_4 1_555 1_555
C97_4 O20_4 1_555 1_555
O20_4 U1_4 1_555 1_555
N10_4 Co3_4 1_555 1_555
C98_4 C97_4 1_555 1_555
C99_4 C98_4 1_555 1_555
H49_4 C99_4 1_555 1_555
C100_4 C101_4 1_555 1_555
C101_4 C102_4 1_555 1_555
C102_4 C103_4 1_555 1_555
C103_4 C99_4 1_555 1_555
H50_4 C103_4 1_555 1_555
C104_4 C100_4 1_555 1_555
H51_4 C104_4 1_555 1_555
C105_4 N10_4 1_555 1_555
C106_4 C105_4 1_555 1_555
H52_4 C106_4 1_555 1_555
N11_4 Co3_4 1_555 1_555
C107_4 O39_2 1_555 1_555
C108_4 C107_4 1_555 1_555
C109_4 C108_4 1_555 1_555
H53_4 C109_4 1_555 1_555
C110_4 N11_4 1_555 1_555
C111_4 C110_4 1_555 1_555
C112_4 C111_4 1_555 1_555
C113_4 C109_4 1_555 1_555
H54_4 C113_4 1_555 1_555
C114_4 C110_4 1_555 1_555
H55_4 C114_4 1_555 1_555
C115_4 N10_4 1_555 1_555
C116_4 C106_4 1_555 1_555
H56_4 C116_4 1_555 1_555
C117_4 O22_4 1_555 1_555
O22_4 U5_4 1_555 1_555
N12_4 Co3_4 1_555 1_555
C118_4 C117_4 1_555 1_555
C119_4 C118_4 1_555 1_555
H57_4 C119_4 1_555 1_555
C120_4 N9_4 1_555 1_555
C121_4 C120_4 1_555 1_555
C122_4 C121_4 1_555 1_555
C123_4 C119_4 1_555 1_555
H58_4 C123_4 1_555 1_555
C124_4 C104_4 1_555 1_555
H59_4 C124_4 1_555 1_555
C125_4 N12_4 1_555 1_555
C126_4 C125_4 1_555 1_555
H60_4 C126_4 1_555 1_555
C127_4 O23_4 1_555 1_555
O23_4 U6_4 1_555 1_555
C128_4 C127_4 1_555 1_555
C129_4 C128_4 1_555 1_555
H61_4 C129_4 1_555 1_555
C130_4 N11_4 1_555 1_555
C131_4 C130_4 1_555 1_555
C132_4 C131_4 1_555 1_555
C133_4 C129_4 1_555 1_555
H62_4 C133_4 1_555 1_555
C134_4 C114_4 1_555 1_555
H63_4 C134_4 1_555 1_555
C135_4 N12_4 1_555 1_555
C136_4 C126_4 1_555 1_555
H64_4 C136_4 1_555 1_555
O50_2 C107_4 1_555 1_555
C137_4 C108_4 1_555 1_555
H65_4 C137_4 1_555 1_555
C138_4 C112_4 1_555 1_555
H66_4 C138_4 1_555 1_555
O25_4 U1_4 1_555 1_555
C139_4 C98_4 1_555 1_555
H67_4 C139_4 1_555 1_555
C140_4 C102_4 1_555 1_555
H68_4 C140_4 1_555 1_555
O26_4 C127_4 1_555 1_555
C141_4 C128_4 1_555 1_555
H69_4 C141_4 1_555 1_555
C142_4 C132_4 1_555 1_555
H70_4 C142_4 1_555 1_555
O27_4 C117_4 1_555 1_555
C143_4 C118_4 1_555 1_555
H71_4 C143_4 1_555 1_555
C144_4 C122_4 1_555 1_555
H72_4 C144_4 1_555 1_555
O32_4 Co3_4 1_555 1_555
O35_4 Co2_4 1_555 1_555
O36_4 Co1_4 1_555 1_555
O37_4 Co2_4 1_555 1_555
O38_4 Co3_4 1_555 1_555
U5_4 O27_4 1_555 1_555
U6_4 O26_4 1_555 1_555
U7_4 O11_4 1_555 1_555
U8_4 O10_4 1_555 1_555
U9_4 O19_4 1_555 1_555
U10_4 O18_4 1_555 1_555
C1_4 O9_4 1_555 1_555
C5_4 C9_4 1_555 1_555
C15_4 C19_4 1_555 1_555
C16_4 C17_4 1_555 1_555
C19_4 C20_4 1_555 1_555
C24_4 C28_4 1_555 1_555
C25_4 C29_4 1_555 1_555
C26_4 C27_4 1_555 1_555
C34_4 C38_4 1_555 1_555
C35_4 C39_4 1_555 1_555
C36_4 C37_4 1_555 1_555
C39_4 C40_4 1_555 1_555
C41_4 C42_4 1_555 1_555
C43_4 C44_4 1_555 1_555
C45_4 C46_4 1_555 1_555
C47_4 C48_4 1_555 1_555
C49_4 O17_4 1_555 1_555
C53_4 C57_4 1_555 1_555
C63_4 C67_4 1_555 1_555
C64_4 C65_4 1_555 1_555
C67_4 C68_4 1_555 1_555
C72_4 C76_4 1_555 1_555
C73_4 C77_4 1_555 1_555
C74_4 C75_4 1_555 1_555
C82_4 C86_4 1_555 1_555
C83_4 C87_4 1_555 1_555
C84_4 C85_4 1_555 1_555
C87_4 C88_4 1_555 1_555
C89_4 C90_4 1_555 1_555
C91_4 C92_4 1_555 1_555
C93_4 C94_4 1_555 1_555
C95_4 C96_4 1_555 1_555
C97_4 O25_4 1_555 1_555
C101_4 C105_4 1_555 1_555
C111_4 C115_4 1_555 1_555
C112_4 C113_4 1_555 1_555
C115_4 C116_4 1_555 1_555
C120_4 C124_4 1_555 1_555
C121_4 C125_4 1_555 1_555
C122_4 C123_4 1_555 1_555
C130_4 C134_4 1_555 1_555
C131_4 C135_4 1_555 1_555
C132_4 C133_4 1_555 1_555
C135_4 C136_4 1_555 1_555
C137_4 C138_4 1_555 1_555
C139_4 C140_4 1_555 1_555
C141_4 C142_4 1_555 1_555
C143_4 C144_4 1_555 1_555
U5_4 O1_5 1_555 1_555
Co1_5 N1_5 1_555 1_555
N1_5 C4_5 1_555 1_555
C1_5 O1_5 1_555 1_555
O2_5 U5_4 1_555 1_555
N2_5 Co1_5 1_555 1_555
C2_5 C1_5 1_555 1_555
C3_5 C2_5 1_555 1_555
H1_5 C3_5 1_555 1_555
O3_5 U5_4 1_555 1_555
C4_5 C5_5 1_555 1_555
C5_5 C6_5 1_555 1_555
C6_5 C7_5 1_555 1_555
C7_5 C3_5 1_555 1_555
H2_5 C7_5 1_555 1_555
O4_5 Co1_5 1_555 1_555
C8_5 C4_5 1_555 1_555
H3_5 C8_5 1_555 1_555
C9_5 N2_5 1_555 1_555
C10_5 C9_5 1_555 1_555
H4_5 C10_5 1_555 1_555
C21_5 O6_5 1_555 1_555
O6_5 U9_4 1_555 1_555
N4_5 Co1_5 1_555 1_555
C22_5 C21_5 1_555 1_555
C23_5 C22_5 1_555 1_555
H9_5 C23_5 1_555 1_555
C24_5 N1_5 1_555 1_555
C25_5 C24_5 1_555 1_555
C26_5 C25_5 1_555 1_555
C27_5 C23_5 1_555 1_555
H10_5 C27_5 1_555 1_555
C28_5 C8_5 1_555 1_555
H11_5 C28_5 1_555 1_555
C29_5 N4_5 1_555 1_555
C30_5 C29_5 1_555 1_555
H12_5 C30_5 1_555 1_555
O9_5 U5_4 1_555 1_555
C43_5 C2_5 1_555 1_555
H19_5 C43_5 1_555 1_555
C44_5 C6_5 1_555 1_555
H20_5 C44_5 1_555 1_555
O11_5 C21_5 1_555 1_555
C47_5 C22_5 1_555 1_555
H23_5 C47_5 1_555 1_555
C48_5 C26_5 1_555 1_555
H24_5 C48_5 1_555 1_555
Co2_5 N5_5 1_555 1_555
N5_5 C52_5 1_555 1_555
C49_5 O12_5 1_555 1_555
O12_5 U5_4 1_555 1_555
N6_5 Co2_5 1_555 1_555
C50_5 C49_5 1_555 1_555
C51_5 C50_5 1_555 1_555
H25_5 C51_5 1_555 1_555
C52_5 C53_5 1_555 1_555
C53_5 C54_5 1_555 1_555
C54_5 C55_5 1_555 1_555
C55_5 C51_5 1_555 1_555
H26_5 C55_5 1_555 1_555
C56_5 C52_5 1_555 1_555
H27_5 C56_5 1_555 1_555
C57_5 N6_5 1_555 1_555
C58_5 C57_5 1_555 1_555
H28_5 C58_5 1_555 1_555
C69_5 O14_5 1_555 1_555
O14_5 U7_4 1_555 1_555
N8_5 Co2_5 1_555 1_555
C70_5 C69_5 1_555 1_555
C71_5 C70_5 1_555 1_555
H33_5 C71_5 1_555 1_555
C72_5 N5_5 1_555 1_555
C73_5 C72_5 1_555 1_555
C74_5 C73_5 1_555 1_555
C75_5 C71_5 1_555 1_555
H34_5 C75_5 1_555 1_555
C76_5 C56_5 1_555 1_555
H35_5 C76_5 1_555 1_555
C77_5 N8_5 1_555 1_555
C78_5 C77_5 1_555 1_555
H36_5 C78_5 1_555 1_555
O17_5 U5_4 1_555 1_555
C91_5 C50_5 1_555 1_555
H43_5 C91_5 1_555 1_555
C92_5 C54_5 1_555 1_555
H44_5 C92_5 1_555 1_555
O19_5 C69_5 1_555 1_555
C95_5 C70_5 1_555 1_555
H47_5 C95_5 1_555 1_555
C96_5 C74_5 1_555 1_555
H48_5 C96_5 1_555 1_555
O30_2 U6_4 1_555 1_555
O31_2 U6_4 1_555 1_555
O35_5 Co2_5 1_555 1_555
O36_5 Co1_5 1_555 1_555
O37_5 Co2_5 1_555 1_555
U9_4 O11_5 1_555 1_555
U7_4 O19_5 1_555 1_555
O41_2 U6_4 1_555 1_555
O44_2 U6_4 1_555 1_555
O46_2 U6_4 1_555 1_555
O47_2 U6_4 1_555 1_555
C1_5 O9_5 1_555 1_555
C5_5 C9_5 1_555 1_555
C24_5 C28_5 1_555 1_555
C25_5 C29_5 1_555 1_555
C26_5 C27_5 1_555 1_555
C43_5 C44_5 1_555 1_555
C47_5 C48_5 1_555 1_555
C49_5 O17_5 1_555 1_555
C53_5 C57_5 1_555 1_555
C72_5 C76_5 1_555 1_555
C73_5 C77_5 1_555 1_555
C74_5 C75_5 1_555 1_555
C91_5 C92_5 1_555 1_555
C95_5 C96_5 1_555 1_555
N6_6 Co2_6 1_555 1_555
N7_5 Co2_6 1_555 1_555
C59_5 O13_3 1_555 1_555
O13_3 U6_2 1_555 1_555
C60_5 C59_5 1_555 1_555
C61_5 C60_5 1_555 1_555
H29_5 C61_5 1_555 1_555
C62_5 N7_5 1_555 1_555
C63_5 C62_5 1_555 1_555
C64_5 C63_5 1_555 1_555
C65_5 C61_5 1_555 1_555
H30_5 C65_5 1_555 1_555
C66_5 C62_5 1_555 1_555
H31_5 C66_5 1_555 1_555
C67_5 N6_6 1_555 1_555
H32_5 C68_5 1_555 1_555
N8_6 Co2_6 1_555 1_555
C79_5 O15_5 1_555 1_555
O15_5 U8 1_555 1_555
C80_5 C79_5 1_555 1_555
C81_5 C80_5 1_555 1_555
H37_5 C81_5 1_555 1_555
C82_5 N7_5 1_555 1_555
C83_5 C82_5 1_555 1_555
C84_5 C83_5 1_555 1_555
C85_5 C81_5 1_555 1_555
H38_5 C85_5 1_555 1_555
C86_5 C66_5 1_555 1_555
H39_5 C86_5 1_555 1_555
C87_5 N8_6 1_555 1_555
H40_5 C88_5 1_555 1_555
O16_3 C59_5 1_555 1_555
C89_5 C60_5 1_555 1_555
H41_5 C89_5 1_555 1_555
C90_5 C64_5 1_555 1_555
H42_5 C90_5 1_555 1_555
O18_5 C79_5 1_555 1_555
C93_5 C80_5 1_555 1_555
H45_5 C93_5 1_555 1_555
C94_5 C84_5 1_555 1_555
H46_5 C94_5 1_555 1_555
U6_2 O16_3 1_555 1_555
O33_3 U6_2 1_555 1_555
O34_3 U6_2 1_555 1_555
O35_6 Co2_6 1_555 1_555
O37_6 Co2_6 1_555 1_555
U8 O18_5 1_555 1_555
O43_3 U6_2 1_555 1_555
O45_3 U6_2 1_555 1_555
C63_5 C67_5 1_555 1_555
C64_5 C65_5 1_555 1_555
C67_5 C68_5 1_555 1_555
C82_5 C86_5 1_555 1_555
C83_5 C87_5 1_555 1_555
C84_5 C85_5 1_555 1_555
C87_5 C88_5 1_555 1_555
C89_5 C90_5 1_555 1_555
C93_5 C94_5 1_555 1_555
N2_6 Co1_6 1_555 1_555
O4_6 Co1_6 1_555 1_555
N3_5 Co1_6 1_555 1_555
C11_5 O5_2 1_555 1_555
O5_2 U6_3 1_555 1_555
C12_5 C11_5 1_555 1_555
C13_5 C12_5 1_555 1_555
H5_5 C13_5 1_555 1_555
C14_5 N3_5 1_555 1_555
C15_5 C14_5 1_555 1_555
C16_5 C15_5 1_555 1_555
C17_5 C13_5 1_555 1_555
H6_5 C17_5 1_555 1_555
C18_5 C14_5 1_555 1_555
H7_5 C18_5 1_555 1_555
C19_5 N2_6 1_555 1_555
H8_5 C20_5 1_555 1_555
N4_6 Co1_6 1_555 1_555
C31_5 O7_5 1_555 1_555
O7_5 U10 1_555 1_555
C32_5 C31_5 1_555 1_555
C33_5 C32_5 1_555 1_555
H13_5 C33_5 1_555 1_555
C34_5 N3_5 1_555 1_555
C35_5 C34_5 1_555 1_555
C36_5 C35_5 1_555 1_555
C37_5 C33_5 1_555 1_555
H14_5 C37_5 1_555 1_555
C38_5 C18_5 1_555 1_555
H15_5 C38_5 1_555 1_555
C39_5 N4_6 1_555 1_555
H16_5 C40_5 1_555 1_555
O8_2 C11_5 1_555 1_555
C41_5 C12_5 1_555 1_555
H17_5 C41_5 1_555 1_555
C42_5 C16_5 1_555 1_555
H18_5 C42_5 1_555 1_555
O10_5 C31_5 1_555 1_555
C45_5 C32_5 1_555 1_555
H21_5 C45_5 1_555 1_555
C46_5 C36_5 1_555 1_555
H22_5 C46_5 1_555 1_555
U6_3 O8_2 1_555 1_555
O28_2 U6_3 1_555 1_555
O29_2 U6_3 1_555 1_555
O36_6 Co1_6 1_555 1_555
U10 O10_5 1_555 1_555
O42_2 U6_3 1_555 1_555
O48_2 U6_3 1_555 1_555
C15_5 C19_5 1_555 1_555
C16_5 C17_5 1_555 1_555
C19_5 C20_5 1_555 1_555
C34_5 C38_5 1_555 1_555
C35_5 C39_5 1_555 1_555
C36_5 C37_5 1_555 1_555
C39_5 C40_5 1_555 1_555
C41_5 C42_5 1_555 1_555
C45_5 C46_5 1_555 1_555
N2_7 Co1_7 1_555 1_555
O4_7 Co1_7 1_555 1_555
N3_6 Co1_7 1_555 1_555
C11_6 O44_2 1_555 1_555
C12_6 C11_6 1_555 1_555
C13_6 C12_6 1_555 1_555
H5_6 C13_6 1_555 1_555
C14_6 N3_6 1_555 1_555
C15_6 C14_6 1_555 1_555
C16_6 C15_6 1_555 1_555
C17_6 C13_6 1_555 1_555
H6_6 C17_6 1_555 1_555
C18_6 C14_6 1_555 1_555
H7_6 C18_6 1_555 1_555
C19_6 N2_7 1_555 1_555
H8_6 C20_6 1_555 1_555
N4_7 Co1_7 1_555 1_555
C31_6 O7_6 1_555 1_555
O7_6 U10_2 1_555 1_555
C32_6 C31_6 1_555 1_555
C33_6 C32_6 1_555 1_555
H13_6 C33_6 1_555 1_555
C34_6 N3_6 1_555 1_555
C35_6 C34_6 1_555 1_555
C36_6 C35_6 1_555 1_555
C37_6 C33_6 1_555 1_555
H14_6 C37_6 1_555 1_555
C38_6 C18_6 1_555 1_555
H15_6 C38_6 1_555 1_555
C39_6 N4_7 1_555 1_555
H16_6 C40_6 1_555 1_555
O46_2 C11_6 1_555 1_555
C41_6 C12_6 1_555 1_555
H17_6 C41_6 1_555 1_555
C42_6 C16_6 1_555 1_555
H18_6 C42_6 1_555 1_555
O10_6 C31_6 1_555 1_555
C45_6 C32_6 1_555 1_555
H21_6 C45_6 1_555 1_555
C46_6 C36_6 1_555 1_555
H22_6 C46_6 1_555 1_555
O36_7 Co1_7 1_555 1_555
U10_2 O10_6 1_555 1_555
C15_6 C19_6 1_555 1_555
C16_6 C17_6 1_555 1_555
C19_6 C20_6 1_555 1_555
C34_6 C38_6 1_555 1_555
C35_6 C39_6 1_555 1_555
C36_6 C37_6 1_555 1_555
C39_6 C40_6 1_555 1_555
C41_6 C42_6 1_555 1_555
C45_6 C46_6 1_555 1_555
U5_3 O1_6 1_555 1_555
Co1_8 N1_6 1_555 1_555
N1_6 C4_6 1_555 1_555
C1_6 O1_6 1_555 1_555
O2_6 U5_3 1_555 1_555
N2_8 Co1_8 1_555 1_555
C2_6 C1_6 1_555 1_555
C3_6 C2_6 1_555 1_555
H1_6 C3_6 1_555 1_555
O3_6 U5_3 1_555 1_555
C4_6 C5_6 1_555 1_555
C5_6 C6_6 1_555 1_555
C6_6 C7_6 1_555 1_555
C7_6 C3_6 1_555 1_555
H2_6 C7_6 1_555 1_555
O4_8 Co1_8 1_555 1_555
C8_6 C4_6 1_555 1_555
H3_6 C8_6 1_555 1_555
C9_6 N2_8 1_555 1_555
C10_6 C9_6 1_555 1_555
H4_6 C10_6 1_555 1_555
C21_6 O6_6 1_555 1_555
O6_6 U9_3 1_555 1_555
N4_8 Co1_8 1_555 1_555
C22_6 C21_6 1_555 1_555
C23_6 C22_6 1_555 1_555
H9_6 C23_6 1_555 1_555
C24_6 N1_6 1_555 1_555
C25_6 C24_6 1_555 1_555
C26_6 C25_6 1_555 1_555
C27_6 C23_6 1_555 1_555
H10_6 C27_6 1_555 1_555
C28_6 C8_6 1_555 1_555
H11_6 C28_6 1_555 1_555
C29_6 N4_8 1_555 1_555
C30_6 C29_6 1_555 1_555
H12_6 C30_6 1_555 1_555
O9_6 U5_3 1_555 1_555
C43_6 C2_6 1_555 1_555
H19_6 C43_6 1_555 1_555
C44_6 C6_6 1_555 1_555
H20_6 C44_6 1_555 1_555
O11_6 C21_6 1_555 1_555
C47_6 C22_6 1_555 1_555
H23_6 C47_6 1_555 1_555
C48_6 C26_6 1_555 1_555
H24_6 C48_6 1_555 1_555
Co2_7 N5_6 1_555 1_555
N5_6 C52_6 1_555 1_555
C49_6 O12_6 1_555 1_555
O12_6 U5_3 1_555 1_555
N6_7 Co2_7 1_555 1_555
C50_6 C49_6 1_555 1_555
C51_6 C50_6 1_555 1_555
H25_6 C51_6 1_555 1_555
C52_6 C53_6 1_555 1_555
C53_6 C54_6 1_555 1_555
C54_6 C55_6 1_555 1_555
C55_6 C51_6 1_555 1_555
H26_6 C55_6 1_555 1_555
C56_6 C52_6 1_555 1_555
H27_6 C56_6 1_555 1_555
C57_6 N6_7 1_555 1_555
C58_6 C57_6 1_555 1_555
H28_6 C58_6 1_555 1_555
C69_6 O14_6 1_555 1_555
O14_6 U7_3 1_555 1_555
N8_7 Co2_7 1_555 1_555
C70_6 C69_6 1_555 1_555
C71_6 C70_6 1_555 1_555
H33_6 C71_6 1_555 1_555
C72_6 N5_6 1_555 1_555
C73_6 C72_6 1_555 1_555
C74_6 C73_6 1_555 1_555
C75_6 C71_6 1_555 1_555
H34_6 C75_6 1_555 1_555
C76_6 C56_6 1_555 1_555
H35_6 C76_6 1_555 1_555
C77_6 N8_7 1_555 1_555
C78_6 C77_6 1_555 1_555
H36_6 C78_6 1_555 1_555
O17_6 U5_3 1_555 1_555
C91_6 C50_6 1_555 1_555
H43_6 C91_6 1_555 1_555
C92_6 C54_6 1_555 1_555
H44_6 C92_6 1_555 1_555
O19_6 C69_6 1_555 1_555
C95_6 C70_6 1_555 1_555
H47_6 C95_6 1_555 1_555
C96_6 C74_6 1_555 1_555
H48_6 C96_6 1_555 1_555
O35_7 Co2_7 1_555 1_555
O36_8 Co1_8 1_555 1_555
O37_7 Co2_7 1_555 1_555
U9_3 O11_6 1_555 1_555
U7_3 O19_6 1_555 1_555
C1_6 O9_6 1_555 1_555
C5_6 C9_6 1_555 1_555
C24_6 C28_6 1_555 1_555
C25_6 C29_6 1_555 1_555
C26_6 C27_6 1_555 1_555
C43_6 C44_6 1_555 1_555
C47_6 C48_6 1_555 1_555
C49_6 O17_6 1_555 1_555
C53_6 C57_6 1_555 1_555
C72_6 C76_6 1_555 1_555
C73_6 C77_6 1_555 1_555
C74_6 C75_6 1_555 1_555
C91_6 C92_6 1_555 1_555
C95_6 C96_6 1_555 1_555
N6_8 Co2_8 1_555 1_555
N7_6 Co2_8 1_555 1_555
C59_6 O13_4 1_555 1_555
O13_4 U6 1_555 1_555
C60_6 C59_6 1_555 1_555
C61_6 C60_6 1_555 1_555
H29_6 C61_6 1_555 1_555
C62_6 N7_6 1_555 1_555
C63_6 C62_6 1_555 1_555
C64_6 C63_6 1_555 1_555
C65_6 C61_6 1_555 1_555
H30_6 C65_6 1_555 1_555
C66_6 C62_6 1_555 1_555
H31_6 C66_6 1_555 1_555
C67_6 N6_8 1_555 1_555
H32_6 C68_6 1_555 1_555
N8_8 Co2_8 1_555 1_555
C79_6 O15_6 1_555 1_555
O15_6 U8_2 1_555 1_555
C80_6 C79_6 1_555 1_555
C81_6 C80_6 1_555 1_555
H37_6 C81_6 1_555 1_555
C82_6 N7_6 1_555 1_555
C83_6 C82_6 1_555 1_555
C84_6 C83_6 1_555 1_555
C85_6 C81_6 1_555 1_555
H38_6 C85_6 1_555 1_555
C86_6 C66_6 1_555 1_555
H39_6 C86_6 1_555 1_555
C87_6 N8_8 1_555 1_555
H40_6 C88_6 1_555 1_555
O16_4 C59_6 1_555 1_555
C89_6 C60_6 1_555 1_555
H41_6 C89_6 1_555 1_555
C90_6 C64_6 1_555 1_555
H42_6 C90_6 1_555 1_555
O18_6 C79_6 1_555 1_555
C93_6 C80_6 1_555 1_555
H45_6 C93_6 1_555 1_555
C94_6 C84_6 1_555 1_555
H46_6 C94_6 1_555 1_555
U6 O16_4 1_555 1_555
O33_4 U6 1_555 1_555
O34_4 U6 1_555 1_555
O35_8 Co2_8 1_555 1_555
O37_8 Co2_8 1_555 1_555
U8_2 O18_6 1_555 1_555
O43_4 U6 1_555 1_555
O45_4 U6 1_555 1_555
C63_6 C67_6 1_555 1_555
C64_6 C65_6 1_555 1_555
C67_6 C68_6 1_555 1_555
C82_6 C86_6 1_555 1_555
C83_6 C87_6 1_555 1_555
C84_6 C85_6 1_555 1_555
C87_6 C88_6 1_555 1_555
C89_6 C90_6 1_555 1_555
C93_6 C94_6 1_555 1_555
N6_9 Co2_9 1_555 1_555
N7_7 Co2_9 1_555 1_555
C59_7 O41_2 1_555 1_555
C60_7 C59_7 1_555 1_555
C61_7 C60_7 1_555 1_555
H29_7 C61_7 1_555 1_555
C62_7 N7_7 1_555 1_555
C63_7 C62_7 1_555 1_555
C64_7 C63_7 1_555 1_555
C65_7 C61_7 1_555 1_555
H30_7 C65_7 1_555 1_555
C66_7 C62_7 1_555 1_555
H31_7 C66_7 1_555 1_555
C67_7 N6_9 1_555 1_555
H32_7 C68_7 1_555 1_555
N8_9 Co2_9 1_555 1_555
C79_7 O15_7 1_555 1_555
O15_7 U8_3 1_555 1_555
C80_7 C79_7 1_555 1_555
C81_7 C80_7 1_555 1_555
H37_7 C81_7 1_555 1_555
C82_7 N7_7 1_555 1_555
C83_7 C82_7 1_555 1_555
C84_7 C83_7 1_555 1_555
C85_7 C81_7 1_555 1_555
H38_7 C85_7 1_555 1_555
C86_7 C66_7 1_555 1_555
H39_7 C86_7 1_555 1_555
C87_7 N8_9 1_555 1_555
H40_7 C88_7 1_555 1_555
O47_2 C59_7 1_555 1_555
C89_7 C60_7 1_555 1_555
H41_7 C89_7 1_555 1_555
C90_7 C64_7 1_555 1_555
H42_7 C90_7 1_555 1_555
O18_7 C79_7 1_555 1_555
C93_7 C80_7 1_555 1_555
H45_7 C93_7 1_555 1_555
C94_7 C84_7 1_555 1_555
H46_7 C94_7 1_555 1_555
O35_9 Co2_9 1_555 1_555
O37_9 Co2_9 1_555 1_555
U8_3 O18_7 1_555 1_555
C63_7 C67_7 1_555 1_555
C64_7 C65_7 1_555 1_555
C67_7 C68_7 1_555 1_555
C82_7 C86_7 1_555 1_555
C83_7 C87_7 1_555 1_555
C84_7 C85_7 1_555 1_555
C87_7 C88_7 1_555 1_555
C89_7 C90_7 1_555 1_555
C93_7 C94_7 1_555 1_555
U5_2 O1_7 1_555 1_555
Co1_9 N1_7 1_555 1_555
N1_7 C4_7 1_555 1_555
C1_7 O1_7 1_555 1_555
O2_7 U5_2 1_555 1_555
N2_9 Co1_9 1_555 1_555
C2_7 C1_7 1_555 1_555
C3_7 C2_7 1_555 1_555
H1_7 C3_7 1_555 1_555
O3_7 U5_2 1_555 1_555
C4_7 C5_7 1_555 1_555
C5_7 C6_7 1_555 1_555
C6_7 C7_7 1_555 1_555
C7_7 C3_7 1_555 1_555
H2_7 C7_7 1_555 1_555
O4_9 Co1_9 1_555 1_555
C8_7 C4_7 1_555 1_555
H3_7 C8_7 1_555 1_555
C9_7 N2_9 1_555 1_555
C10_7 C9_7 1_555 1_555
H4_7 C10_7 1_555 1_555
C21_7 O6_7 1_555 1_555
O6_7 U9_2 1_555 1_555
N4_9 Co1_9 1_555 1_555
C22_7 C21_7 1_555 1_555
C23_7 C22_7 1_555 1_555
H9_7 C23_7 1_555 1_555
C24_7 N1_7 1_555 1_555
C25_7 C24_7 1_555 1_555
C26_7 C25_7 1_555 1_555
C27_7 C23_7 1_555 1_555
H10_7 C27_7 1_555 1_555
C28_7 C8_7 1_555 1_555
H11_7 C28_7 1_555 1_555
C29_7 N4_9 1_555 1_555
C30_7 C29_7 1_555 1_555
H12_7 C30_7 1_555 1_555
O9_7 U5_2 1_555 1_555
C43_7 C2_7 1_555 1_555
H19_7 C43_7 1_555 1_555
C44_7 C6_7 1_555 1_555
H20_7 C44_7 1_555 1_555
O11_7 C21_7 1_555 1_555
C47_7 C22_7 1_555 1_555
H23_7 C47_7 1_555 1_555
C48_7 C26_7 1_555 1_555
H24_7 C48_7 1_555 1_555
Co2_10 N5_7 1_555 1_555
N5_7 C52_7 1_555 1_555
C49_7 O12_7 1_555 1_555
O12_7 U5_2 1_555 1_555
N6_10 Co2_10 1_555 1_555
C50_7 C49_7 1_555 1_555
C51_7 C50_7 1_555 1_555
H25_7 C51_7 1_555 1_555
C52_7 C53_7 1_555 1_555
C53_7 C54_7 1_555 1_555
C54_7 C55_7 1_555 1_555
C55_7 C51_7 1_555 1_555
H26_7 C55_7 1_555 1_555
C56_7 C52_7 1_555 1_555
H27_7 C56_7 1_555 1_555
C57_7 N6_10 1_555 1_555
C58_7 C57_7 1_555 1_555
H28_7 C58_7 1_555 1_555
C69_7 O14_7 1_555 1_555
O14_7 U7_2 1_555 1_555
N8_10 Co2_10 1_555 1_555
C70_7 C69_7 1_555 1_555
C71_7 C70_7 1_555 1_555
H33_7 C71_7 1_555 1_555
C72_7 N5_7 1_555 1_555
C73_7 C72_7 1_555 1_555
C74_7 C73_7 1_555 1_555
C75_7 C71_7 1_555 1_555
H34_7 C75_7 1_555 1_555
C76_7 C56_7 1_555 1_555
H35_7 C76_7 1_555 1_555
C77_7 N8_10 1_555 1_555
C78_7 C77_7 1_555 1_555
H36_7 C78_7 1_555 1_555
O17_7 U5_2 1_555 1_555
C91_7 C50_7 1_555 1_555
H43_7 C91_7 1_555 1_555
C92_7 C54_7 1_555 1_555
H44_7 C92_7 1_555 1_555
O19_7 C69_7 1_555 1_555
C95_7 C70_7 1_555 1_555
H47_7 C95_7 1_555 1_555
C96_7 C74_7 1_555 1_555
H48_7 C96_7 1_555 1_555
O35_10 Co2_10 1_555 1_555
O36_9 Co1_9 1_555 1_555
O37_10 Co2_10 1_555 1_555
U9_2 O11_7 1_555 1_555
U7_2 O19_7 1_555 1_555
C1_7 O9_7 1_555 1_555
C5_7 C9_7 1_555 1_555
C24_7 C28_7 1_555 1_555
C25_7 C29_7 1_555 1_555
C26_7 C27_7 1_555 1_555
C43_7 C44_7 1_555 1_555
C47_7 C48_7 1_555 1_555
C49_7 O17_7 1_555 1_555
C53_7 C57_7 1_555 1_555
C72_7 C76_7 1_555 1_555
C73_7 C77_7 1_555 1_555
C74_7 C75_7 1_555 1_555
C91_7 C92_7 1_555 1_555
C95_7 C96_7 1_555 1_555
N2_10 Co1_10 1_555 1_555
O4_10 Co1_10 1_555 1_555
N3_7 Co1_10 1_555 1_555
C11_7 O43_4 1_555 1_555
C12_7 C11_7 1_555 1_555
C13_7 C12_7 1_555 1_555
H5_7 C13_7 1_555 1_555
C14_7 N3_7 1_555 1_555
C15_7 C14_7 1_555 1_555
C16_7 C15_7 1_555 1_555
C17_7 C13_7 1_555 1_555
H6_7 C17_7 1_555 1_555
C18_7 C14_7 1_555 1_555
H7_7 C18_7 1_555 1_555
C19_7 N2_10 1_555 1_555
H8_7 C20_7 1_555 1_555
N4_10 Co1_10 1_555 1_555
C31_7 O7_7 1_555 1_555
O7_7 U10_3 1_555 1_555
C32_7 C31_7 1_555 1_555
C33_7 C32_7 1_555 1_555
H13_7 C33_7 1_555 1_555
C34_7 N3_7 1_555 1_555
C35_7 C34_7 1_555 1_555
C36_7 C35_7 1_555 1_555
C37_7 C33_7 1_555 1_555
H14_7 C37_7 1_555 1_555
C38_7 C18_7 1_555 1_555
H15_7 C38_7 1_555 1_555
C39_7 N4_10 1_555 1_555
H16_7 C40_7 1_555 1_555
O45_4 C11_7 1_555 1_555
C41_7 C12_7 1_555 1_555
H17_7 C41_7 1_555 1_555
C42_7 C16_7 1_555 1_555
H18_7 C42_7 1_555 1_555
O10_7 C31_7 1_555 1_555
C45_7 C32_7 1_555 1_555
H21_7 C45_7 1_555 1_555
C46_7 C36_7 1_555 1_555
H22_7 C46_7 1_555 1_555
O36_10 Co1_10 1_555 1_555
U10_3 O10_7 1_555 1_555
C15_7 C19_7 1_555 1_555
C16_7 C17_7 1_555 1_555
C19_7 C20_7 1_555 1_555
C34_7 C38_7 1_555 1_555
C35_7 C39_7 1_555 1_555
C36_7 C37_7 1_555 1_555
C39_7 C40_7 1_555 1_555
C41_7 C42_7 1_555 1_555
C45_7 C46_7 1_555 1_555
N2_11 Co1_11 1_555 1_555
O4_11 Co1_11 1_555 1_555
N3_8 Co1_11 1_555 1_555
C11_8 O43_3 1_555 1_555
C12_8 C11_8 1_555 1_555
C13_8 C12_8 1_555 1_555
H5_8 C13_8 1_555 1_555
C14_8 N3_8 1_555 1_555
C15_8 C14_8 1_555 1_555
C16_8 C15_8 1_555 1_555
C17_8 C13_8 1_555 1_555
H6_8 C17_8 1_555 1_555
C18_8 C14_8 1_555 1_555
H7_8 C18_8 1_555 1_555
C19_8 N2_11 1_555 1_555
H8_8 C20_8 1_555 1_555
N4_11 Co1_11 1_555 1_555
C31_8 O7_8 1_555 1_555
O7_8 U10_4 1_555 1_555
C32_8 C31_8 1_555 1_555
C33_8 C32_8 1_555 1_555
H13_8 C33_8 1_555 1_555
C34_8 N3_8 1_555 1_555
C35_8 C34_8 1_555 1_555
C36_8 C35_8 1_555 1_555
C37_8 C33_8 1_555 1_555
H14_8 C37_8 1_555 1_555
C38_8 C18_8 1_555 1_555
H15_8 C38_8 1_555 1_555
C39_8 N4_11 1_555 1_555
H16_8 C40_8 1_555 1_555
O45_3 C11_8 1_555 1_555
C41_8 C12_8 1_555 1_555
H17_8 C41_8 1_555 1_555
C42_8 C16_8 1_555 1_555
H18_8 C42_8 1_555 1_555
O10_8 C31_8 1_555 1_555
C45_8 C32_8 1_555 1_555
H21_8 C45_8 1_555 1_555
C46_8 C36_8 1_555 1_555
H22_8 C46_8 1_555 1_555
O36_11 Co1_11 1_555 1_555
U10_4 O10_8 1_555 1_555
C15_8 C19_8 1_555 1_555
C16_8 C17_8 1_555 1_555
C19_8 C20_8 1_555 1_555
C34_8 C38_8 1_555 1_555
C35_8 C39_8 1_555 1_555
C36_8 C37_8 1_555 1_555
C39_8 C40_8 1_555 1_555
C41_8 C42_8 1_555 1_555
C45_8 C46_8 1_555 1_555
N6_11 Co2_11 1_555 1_555
N7_8 Co2_11 1_555 1_555
C59_8 O42_2 1_555 1_555
C60_8 C59_8 1_555 1_555
C61_8 C60_8 1_555 1_555
H29_8 C61_8 1_555 1_555
C62_8 N7_8 1_555 1_555
C63_8 C62_8 1_555 1_555
C64_8 C63_8 1_555 1_555
C65_8 C61_8 1_555 1_555
H30_8 C65_8 1_555 1_555
C66_8 C62_8 1_555 1_555
H31_8 C66_8 1_555 1_555
C67_8 N6_11 1_555 1_555
H32_8 C68_8 1_555 1_555
N8_11 Co2_11 1_555 1_555
C79_8 O15_8 1_555 1_555
O15_8 U8_4 1_555 1_555
C80_8 C79_8 1_555 1_555
C81_8 C80_8 1_555 1_555
H37_8 C81_8 1_555 1_555
C82_8 N7_8 1_555 1_555
C83_8 C82_8 1_555 1_555
C84_8 C83_8 1_555 1_555
C85_8 C81_8 1_555 1_555
H38_8 C85_8 1_555 1_555
C86_8 C66_8 1_555 1_555
H39_8 C86_8 1_555 1_555
C87_8 N8_11 1_555 1_555
H40_8 C88_8 1_555 1_555
O48_2 C59_8 1_555 1_555
C89_8 C60_8 1_555 1_555
H41_8 C89_8 1_555 1_555
C90_8 C64_8 1_555 1_555
H42_8 C90_8 1_555 1_555
O18_8 C79_8 1_555 1_555
C93_8 C80_8 1_555 1_555
H45_8 C93_8 1_555 1_555
C94_8 C84_8 1_555 1_555
H46_8 C94_8 1_555 1_555
O35_11 Co2_11 1_555 1_555
O37_11 Co2_11 1_555 1_555
U8_4 O18_8 1_555 1_555
C63_8 C67_8 1_555 1_555
C64_8 C65_8 1_555 1_555
C67_8 C68_8 1_555 1_555
C82_8 C86_8 1_555 1_555
C83_8 C87_8 1_555 1_555
C84_8 C85_8 1_555 1_555
C87_8 C88_8 1_555 1_555
C89_8 C90_8 1_555 1_555
C93_8 C94_8 1_555 1_555
U5 O1_8 1_555 1_555
Co1_12 N1_8 1_555 1_555
N1_8 C4_8 1_555 1_555
C1_8 O1_8 1_555 1_555
O2_8 U5 1_555 1_555
N2_12 Co1_12 1_555 1_555
C2_8 C1_8 1_555 1_555
C3_8 C2_8 1_555 1_555
H1_8 C3_8 1_555 1_555
O3_8 U5 1_555 1_555
C4_8 C5_8 1_555 1_555
C5_8 C6_8 1_555 1_555
C6_8 C7_8 1_555 1_555
C7_8 C3_8 1_555 1_555
H2_8 C7_8 1_555 1_555
O4_12 Co1_12 1_555 1_555
C8_8 C4_8 1_555 1_555
H3_8 C8_8 1_555 1_555
C9_8 N2_12 1_555 1_555
C10_8 C9_8 1_555 1_555
H4_8 C10_8 1_555 1_555
C21_8 O6_8 1_555 1_555
O6_8 U9 1_555 1_555
N4_12 Co1_12 1_555 1_555
C22_8 C21_8 1_555 1_555
C23_8 C22_8 1_555 1_555
H9_8 C23_8 1_555 1_555
C24_8 N1_8 1_555 1_555
C25_8 C24_8 1_555 1_555
C26_8 C25_8 1_555 1_555
C27_8 C23_8 1_555 1_555
H10_8 C27_8 1_555 1_555
C28_8 C8_8 1_555 1_555
H11_8 C28_8 1_555 1_555
C29_8 N4_12 1_555 1_555
C30_8 C29_8 1_555 1_555
H12_8 C30_8 1_555 1_555
O9_8 U5 1_555 1_555
C43_8 C2_8 1_555 1_555
H19_8 C43_8 1_555 1_555
C44_8 C6_8 1_555 1_555
H20_8 C44_8 1_555 1_555
O11_8 C21_8 1_555 1_555
C47_8 C22_8 1_555 1_555
H23_8 C47_8 1_555 1_555
C48_8 C26_8 1_555 1_555
H24_8 C48_8 1_555 1_555
Co2_12 N5_8 1_555 1_555
N5_8 C52_8 1_555 1_555
C49_8 O12_8 1_555 1_555
O12_8 U5 1_555 1_555
N6_12 Co2_12 1_555 1_555
C50_8 C49_8 1_555 1_555
C51_8 C50_8 1_555 1_555
H25_8 C51_8 1_555 1_555
C52_8 C53_8 1_555 1_555
C53_8 C54_8 1_555 1_555
C54_8 C55_8 1_555 1_555
C55_8 C51_8 1_555 1_555
H26_8 C55_8 1_555 1_555
C56_8 C52_8 1_555 1_555
H27_8 C56_8 1_555 1_555
C57_8 N6_12 1_555 1_555
C58_8 C57_8 1_555 1_555
H28_8 C58_8 1_555 1_555
C69_8 O14_8 1_555 1_555
O14_8 U7 1_555 1_555
N8_12 Co2_12 1_555 1_555
C70_8 C69_8 1_555 1_555
C71_8 C70_8 1_555 1_555
H33_8 C71_8 1_555 1_555
C72_8 N5_8 1_555 1_555
C73_8 C72_8 1_555 1_555
C74_8 C73_8 1_555 1_555
C75_8 C71_8 1_555 1_555
H34_8 C75_8 1_555 1_555
C76_8 C56_8 1_555 1_555
H35_8 C76_8 1_555 1_555
C77_8 N8_12 1_555 1_555
C78_8 C77_8 1_555 1_555
H36_8 C78_8 1_555 1_555
O17_8 U5 1_555 1_555
C91_8 C50_8 1_555 1_555
H43_8 C91_8 1_555 1_555
C92_8 C54_8 1_555 1_555
H44_8 C92_8 1_555 1_555
O19_8 C69_8 1_555 1_555
C95_8 C70_8 1_555 1_555
H47_8 C95_8 1_555 1_555
C96_8 C74_8 1_555 1_555
H48_8 C96_8 1_555 1_555
O35_12 Co2_12 1_555 1_555
O36_12 Co1_12 1_555 1_555
O37_12 Co2_12 1_555 1_555
U9 O11_8 1_555 1_555
U7 O19_8 1_555 1_555
C1_8 O9_8 1_555 1_555
C5_8 C9_8 1_555 1_555
C24_8 C28_8 1_555 1_555
C25_8 C29_8 1_555 1_555
C26_8 C27_8 1_555 1_555
C43_8 C44_8 1_555 1_555
C47_8 C48_8 1_555 1_555
C49_8 O17_8 1_555 1_555
C53_8 C57_8 1_555 1_555
C72_8 C76_8 1_555 1_555
C73_8 C77_8 1_555 1_555
C74_8 C75_8 1_555 1_555
C91_8 C92_8 1_555 1_555
C95_8 C96_8 1_555 1_555
O2_9 U7_3 1_555 1_555
O3_9 U7_3 1_555 1_555
Co3_5 N9_5 1_555 1_555
N9_5 C100_5 1_555 1_555
C97_5 O20_5 1_555 1_555
O20_5 U7_3 1_555 1_555
N10_5 Co3_5 1_555 1_555
C98_5 C97_5 1_555 1_555
C99_5 C98_5 1_555 1_555
H49_5 C99_5 1_555 1_555
C100_5 C101_5 1_555 1_555
C101_5 C102_5 1_555 1_555
C102_5 C103_5 1_555 1_555
C103_5 C99_5 1_555 1_555
H50_5 C103_5 1_555 1_555
C104_5 C100_5 1_555 1_555
H51_5 C104_5 1_555 1_555
C105_5 N10_5 1_555 1_555
C106_5 C105_5 1_555 1_555
H52_5 C106_5 1_555 1_555
C117_5 O22_5 1_555 1_555
O22_5 U9_3 1_555 1_555
N12_5 Co3_5 1_555 1_555
C118_5 C117_5 1_555 1_555
C119_5 C118_5 1_555 1_555
H57_5 C119_5 1_555 1_555
C120_5 N9_5 1_555 1_555
C121_5 C120_5 1_555 1_555
C122_5 C121_5 1_555 1_555
C123_5 C119_5 1_555 1_555
H58_5 C123_5 1_555 1_555
C124_5 C104_5 1_555 1_555
H59_5 C124_5 1_555 1_555
C125_5 N12_5 1_555 1_555
C126_5 C125_5 1_555 1_555
H60_5 C126_5 1_555 1_555
O25_5 U7_3 1_555 1_555
C139_5 C98_5 1_555 1_555
H67_5 C139_5 1_555 1_555
C140_5 C102_5 1_555 1_555
H68_5 C140_5 1_555 1_555
O27_5 C117_5 1_555 1_555
C143_5 C118_5 1_555 1_555
H71_5 C143_5 1_555 1_555
C144_5 C122_5 1_555 1_555
H72_5 C144_5 1_555 1_555
O28_3 U8_3 1_555 1_555
O29_3 U8_3 1_555 1_555
O32_5 Co3_5 1_555 1_555
O38_5 Co3_5 1_555 1_555
U9_3 O27_5 1_555 1_555
O40_2 U8_3 1_555 1_555
O49_2 U8_3 1_555 1_555
C97_5 O25_5 1_555 1_555
C101_5 C105_5 1_555 1_555
C120_5 C124_5 1_555 1_555
C121_5 C125_5 1_555 1_555
C122_5 C123_5 1_555 1_555
C139_5 C140_5 1_555 1_555
C143_5 C144_5 1_555 1_555
O33_5 U8_2 1_555 1_555
O34_5 U8_2 1_555 1_555
O39_3 U8_2 1_555 1_555
O50_3 U8_2 1_555 1_555
N10_6 Co3_6 1_555 1_555
N11_5 Co3_6 1_555 1_555
C107_5 O21_2 1_555 1_555
O21_2 U8_4 1_555 1_555
C108_5 C107_5 1_555 1_555
C109_5 C108_5 1_555 1_555
H53_5 C109_5 1_555 1_555
C110_5 N11_5 1_555 1_555
C111_5 C110_5 1_555 1_555
C112_5 C111_5 1_555 1_555
C113_5 C109_5 1_555 1_555
H54_5 C113_5 1_555 1_555
C114_5 C110_5 1_555 1_555
H55_5 C114_5 1_555 1_555
C115_5 N10_6 1_555 1_555
H56_5 C116_5 1_555 1_555
N12_6 Co3_6 1_555 1_555
C127_5 O23_5 1_555 1_555
O23_5 U10 1_555 1_555
C128_5 C127_5 1_555 1_555
C129_5 C128_5 1_555 1_555
H61_5 C129_5 1_555 1_555
C130_5 N11_5 1_555 1_555
C131_5 C130_5 1_555 1_555
C132_5 C131_5 1_555 1_555
C133_5 C129_5 1_555 1_555
H62_5 C133_5 1_555 1_555
C134_5 C114_5 1_555 1_555
H63_5 C134_5 1_555 1_555
C135_5 N12_6 1_555 1_555
H64_5 C136_5 1_555 1_555
O24_2 C107_5 1_555 1_555
C137_5 C108_5 1_555 1_555
H65_5 C137_5 1_555 1_555
C138_5 C112_5 1_555 1_555
H66_5 C138_5 1_555 1_555
O26_5 C127_5 1_555 1_555
C141_5 C128_5 1_555 1_555
H69_5 C141_5 1_555 1_555
C142_5 C132_5 1_555 1_555
H70_5 C142_5 1_555 1_555
U8_4 O24_2 1_555 1_555
O30_3 U8_4 1_555 1_555
O31_3 U8_4 1_555 1_555
O32_6 Co3_6 1_555 1_555
O38_6 Co3_6 1_555 1_555
U10 O26_5 1_555 1_555
C111_5 C115_5 1_555 1_555
C112_5 C113_5 1_555 1_555
C115_5 C116_5 1_555 1_555
C130_5 C134_5 1_555 1_555
C131_5 C135_5 1_555 1_555
C132_5 C133_5 1_555 1_555
C135_5 C136_5 1_555 1_555
C137_5 C138_5 1_555 1_555
C141_5 C142_5 1_555 1_555
N10_7 Co3_7 1_555 1_555
N11_6 Co3_7 1_555 1_555
C107_6 O40_2 1_555 1_555
C108_6 C107_6 1_555 1_555
C109_6 C108_6 1_555 1_555
H53_6 C109_6 1_555 1_555
C110_6 N11_6 1_555 1_555
C111_6 C110_6 1_555 1_555
C112_6 C111_6 1_555 1_555
C113_6 C109_6 1_555 1_555
H54_6 C113_6 1_555 1_555
C114_6 C110_6 1_555 1_555
H55_6 C114_6 1_555 1_555
C115_6 N10_7 1_555 1_555
H56_6 C116_6 1_555 1_555
N12_7 Co3_7 1_555 1_555
C127_6 O23_6 1_555 1_555
O23_6 U10_2 1_555 1_555
C128_6 C127_6 1_555 1_555
C129_6 C128_6 1_555 1_555
H61_6 C129_6 1_555 1_555
C130_6 N11_6 1_555 1_555
C131_6 C130_6 1_555 1_555
C132_6 C131_6 1_555 1_555
C133_6 C129_6 1_555 1_555
H62_6 C133_6 1_555 1_555
C134_6 C114_6 1_555 1_555
H63_6 C134_6 1_555 1_555
C135_6 N12_7 1_555 1_555
H64_6 C136_6 1_555 1_555
O49_2 C107_6 1_555 1_555
C137_6 C108_6 1_555 1_555
H65_6 C137_6 1_555 1_555
C138_6 C112_6 1_555 1_555
H66_6 C138_6 1_555 1_555
O26_6 C127_6 1_555 1_555
C141_6 C128_6 1_555 1_555
H69_6 C141_6 1_555 1_555
C142_6 C132_6 1_555 1_555
H70_6 C142_6 1_555 1_555
O32_7 Co3_7 1_555 1_555
O38_7 Co3_7 1_555 1_555
U10_2 O26_6 1_555 1_555
C111_6 C115_6 1_555 1_555
C112_6 C113_6 1_555 1_555
C115_6 C116_6 1_555 1_555
C130_6 C134_6 1_555 1_555
C131_6 C135_6 1_555 1_555
C132_6 C133_6 1_555 1_555
C135_6 C136_6 1_555 1_555
C137_6 C138_6 1_555 1_555
C141_6 C142_6 1_555 1_555
O2_10 U7_4 1_555 1_555
O3_10 U7_4 1_555 1_555
Co3_8 N9_6 1_555 1_555
N9_6 C100_6 1_555 1_555
C97_6 O20_6 1_555 1_555
O20_6 U7_4 1_555 1_555
N10_8 Co3_8 1_555 1_555
C98_6 C97_6 1_555 1_555
C99_6 C98_6 1_555 1_555
H49_6 C99_6 1_555 1_555
C100_6 C101_6 1_555 1_555
C101_6 C102_6 1_555 1_555
C102_6 C103_6 1_555 1_555
C103_6 C99_6 1_555 1_555
H50_6 C103_6 1_555 1_555
C104_6 C100_6 1_555 1_555
H51_6 C104_6 1_555 1_555
C105_6 N10_8 1_555 1_555
C106_6 C105_6 1_555 1_555
H52_6 C106_6 1_555 1_555
C117_6 O22_6 1_555 1_555
O22_6 U9_4 1_555 1_555
N12_8 Co3_8 1_555 1_555
C118_6 C117_6 1_555 1_555
C119_6 C118_6 1_555 1_555
H57_6 C119_6 1_555 1_555
C120_6 N9_6 1_555 1_555
C121_6 C120_6 1_555 1_555
C122_6 C121_6 1_555 1_555
C123_6 C119_6 1_555 1_555
H58_6 C123_6 1_555 1_555
C124_6 C104_6 1_555 1_555
H59_6 C124_6 1_555 1_555
C125_6 N12_8 1_555 1_555
C126_6 C125_6 1_555 1_555
H60_6 C126_6 1_555 1_555
O25_6 U7_4 1_555 1_555
C139_6 C98_6 1_555 1_555
H67_6 C139_6 1_555 1_555
C140_6 C102_6 1_555 1_555
H68_6 C140_6 1_555 1_555
O27_6 C117_6 1_555 1_555
C143_6 C118_6 1_555 1_555
H71_6 C143_6 1_555 1_555
C144_6 C122_6 1_555 1_555
H72_6 C144_6 1_555 1_555
O32_8 Co3_8 1_555 1_555
O38_8 Co3_8 1_555 1_555
U9_4 O27_6 1_555 1_555
C97_6 O25_6 1_555 1_555
C101_6 C105_6 1_555 1_555
C120_6 C124_6 1_555 1_555
C121_6 C125_6 1_555 1_555
C122_6 C123_6 1_555 1_555
C139_6 C140_6 1_555 1_555
C143_6 C144_6 1_555 1_555
O33_6 U8 1_555 1_555
O34_6 U8 1_555 1_555
O39_4 U8 1_555 1_555
O50_4 U8 1_555 1_555
N10_9 Co3_9 1_555 1_555
N11_7 Co3_9 1_555 1_555
C107_7 O39_3 1_555 1_555
C108_7 C107_7 1_555 1_555
C109_7 C108_7 1_555 1_555
H53_7 C109_7 1_555 1_555
C110_7 N11_7 1_555 1_555
C111_7 C110_7 1_555 1_555
C112_7 C111_7 1_555 1_555
C113_7 C109_7 1_555 1_555
H54_7 C113_7 1_555 1_555
C114_7 C110_7 1_555 1_555
H55_7 C114_7 1_555 1_555
C115_7 N10_9 1_555 1_555
H56_7 C116_7 1_555 1_555
N12_9 Co3_9 1_555 1_555
C127_7 O23_7 1_555 1_555
O23_7 U10_3 1_555 1_555
C128_7 C127_7 1_555 1_555
C129_7 C128_7 1_555 1_555
H61_7 C129_7 1_555 1_555
C130_7 N11_7 1_555 1_555
C131_7 C130_7 1_555 1_555
C132_7 C131_7 1_555 1_555
C133_7 C129_7 1_555 1_555
H62_7 C133_7 1_555 1_555
C134_7 C114_7 1_555 1_555
H63_7 C134_7 1_555 1_555
C135_7 N12_9 1_555 1_555
H64_7 C136_7 1_555 1_555
O50_3 C107_7 1_555 1_555
C137_7 C108_7 1_555 1_555
H65_7 C137_7 1_555 1_555
C138_7 C112_7 1_555 1_555
H66_7 C138_7 1_555 1_555
O26_7 C127_7 1_555 1_555
C141_7 C128_7 1_555 1_555
H69_7 C141_7 1_555 1_555
C142_7 C132_7 1_555 1_555
H70_7 C142_7 1_555 1_555
O32_9 Co3_9 1_555 1_555
O38_9 Co3_9 1_555 1_555
U10_3 O26_7 1_555 1_555
C111_7 C115_7 1_555 1_555
C112_7 C113_7 1_555 1_555
C115_7 C116_7 1_555 1_555
C130_7 C134_7 1_555 1_555
C131_7 C135_7 1_555 1_555
C132_7 C133_7 1_555 1_555
C135_7 C136_7 1_555 1_555
C137_7 C138_7 1_555 1_555
C141_7 C142_7 1_555 1_555
O2_11 U7 1_555 1_555
O3_11 U7 1_555 1_555
Co3_10 N9_7 1_555 1_555
N9_7 C100_7 1_555 1_555
C97_7 O20_7 1_555 1_555
O20_7 U7 1_555 1_555
N10_10 Co3_10 1_555 1_555
C98_7 C97_7 1_555 1_555
C99_7 C98_7 1_555 1_555
H49_7 C99_7 1_555 1_555
C100_7 C101_7 1_555 1_555
C101_7 C102_7 1_555 1_555
C102_7 C103_7 1_555 1_555
C103_7 C99_7 1_555 1_555
H50_7 C103_7 1_555 1_555
C104_7 C100_7 1_555 1_555
H51_7 C104_7 1_555 1_555
C105_7 N10_10 1_555 1_555
C106_7 C105_7 1_555 1_555
H52_7 C106_7 1_555 1_555
C117_7 O22_7 1_555 1_555
O22_7 U9 1_555 1_555
N12_10 Co3_10 1_555 1_555
C118_7 C117_7 1_555 1_555
C119_7 C118_7 1_555 1_555
H57_7 C119_7 1_555 1_555
C120_7 N9_7 1_555 1_555
C121_7 C120_7 1_555 1_555
C122_7 C121_7 1_555 1_555
C123_7 C119_7 1_555 1_555
H58_7 C123_7 1_555 1_555
C124_7 C104_7 1_555 1_555
H59_7 C124_7 1_555 1_555
C125_7 N12_10 1_555 1_555
C126_7 C125_7 1_555 1_555
H60_7 C126_7 1_555 1_555
O25_7 U7 1_555 1_555
C139_7 C98_7 1_555 1_555
H67_7 C139_7 1_555 1_555
C140_7 C102_7 1_555 1_555
H68_7 C140_7 1_555 1_555
O27_7 C117_7 1_555 1_555
C143_7 C118_7 1_555 1_555
H71_7 C143_7 1_555 1_555
C144_7 C122_7 1_555 1_555
H72_7 C144_7 1_555 1_555
O32_10 Co3_10 1_555 1_555
O38_10 Co3_10 1_555 1_555
U9 O27_7 1_555 1_555
C97_7 O25_7 1_555 1_555
C101_7 C105_7 1_555 1_555
C120_7 C124_7 1_555 1_555
C121_7 C125_7 1_555 1_555
C122_7 C123_7 1_555 1_555
C139_7 C140_7 1_555 1_555
C143_7 C144_7 1_555 1_555
O2_12 U7_2 1_555 1_555
O3_12 U7_2 1_555 1_555
Co3_11 N9_8 1_555 1_555
N9_8 C100_8 1_555 1_555
C97_8 O20_8 1_555 1_555
O20_8 U7_2 1_555 1_555
N10_11 Co3_11 1_555 1_555
C98_8 C97_8 1_555 1_555
C99_8 C98_8 1_555 1_555
H49_8 C99_8 1_555 1_555
C100_8 C101_8 1_555 1_555
C101_8 C102_8 1_555 1_555
C102_8 C103_8 1_555 1_555
C103_8 C99_8 1_555 1_555
H50_8 C103_8 1_555 1_555
C104_8 C100_8 1_555 1_555
H51_8 C104_8 1_555 1_555
C105_8 N10_11 1_555 1_555
C106_8 C105_8 1_555 1_555
H52_8 C106_8 1_555 1_555
C117_8 O22_8 1_555 1_555
O22_8 U9_2 1_555 1_555
N12_11 Co3_11 1_555 1_555
C118_8 C117_8 1_555 1_555
C119_8 C118_8 1_555 1_555
H57_8 C119_8 1_555 1_555
C120_8 N9_8 1_555 1_555
C121_8 C120_8 1_555 1_555
C122_8 C121_8 1_555 1_555
C123_8 C119_8 1_555 1_555
H58_8 C123_8 1_555 1_555
C124_8 C104_8 1_555 1_555
H59_8 C124_8 1_555 1_555
C125_8 N12_11 1_555 1_555
C126_8 C125_8 1_555 1_555
H60_8 C126_8 1_555 1_555
O25_8 U7_2 1_555 1_555
C139_8 C98_8 1_555 1_555
H67_8 C139_8 1_555 1_555
C140_8 C102_8 1_555 1_555
H68_8 C140_8 1_555 1_555
O27_8 C117_8 1_555 1_555
C143_8 C118_8 1_555 1_555
H71_8 C143_8 1_555 1_555
C144_8 C122_8 1_555 1_555
H72_8 C144_8 1_555 1_555
O32_11 Co3_11 1_555 1_555
O38_11 Co3_11 1_555 1_555
U9_2 O27_8 1_555 1_555
C97_8 O25_8 1_555 1_555
C101_8 C105_8 1_555 1_555
C120_8 C124_8 1_555 1_555
C121_8 C125_8 1_555 1_555
C122_8 C123_8 1_555 1_555
C139_8 C140_8 1_555 1_555
C143_8 C144_8 1_555 1_555
N10_12 Co3_12 1_555 1_555
N11_8 Co3_12 1_555 1_555
C107_8 O39_4 1_555 1_555
C108_8 C107_8 1_555 1_555
C109_8 C108_8 1_555 1_555
H53_8 C109_8 1_555 1_555
C110_8 N11_8 1_555 1_555
C111_8 C110_8 1_555 1_555
C112_8 C111_8 1_555 1_555
C113_8 C109_8 1_555 1_555
H54_8 C113_8 1_555 1_555
C114_8 C110_8 1_555 1_555
H55_8 C114_8 1_555 1_555
C115_8 N10_12 1_555 1_555
H56_8 C116_8 1_555 1_555
N12_12 Co3_12 1_555 1_555
C127_8 O23_8 1_555 1_555
O23_8 U10_4 1_555 1_555
C128_8 C127_8 1_555 1_555
C129_8 C128_8 1_555 1_555
H61_8 C129_8 1_555 1_555
C130_8 N11_8 1_555 1_555
C131_8 C130_8 1_555 1_555
C132_8 C131_8 1_555 1_555
C133_8 C129_8 1_555 1_555
H62_8 C133_8 1_555 1_555
C134_8 C114_8 1_555 1_555
H63_8 C134_8 1_555 1_555
C135_8 N12_12 1_555 1_555
H64_8 C136_8 1_555 1_555
O50_4 C107_8 1_555 1_555
C137_8 C108_8 1_555 1_555
H65_8 C137_8 1_555 1_555
C138_8 C112_8 1_555 1_555
H66_8 C138_8 1_555 1_555
O26_8 C127_8 1_555 1_555
C141_8 C128_8 1_555 1_555
H69_8 C141_8 1_555 1_555
C142_8 C132_8 1_555 1_555
H70_8 C142_8 1_555 1_555
O32_12 Co3_12 1_555 1_555
O38_12 Co3_12 1_555 1_555
U10_4 O26_8 1_555 1_555
C111_8 C115_8 1_555 1_555
C112_8 C113_8 1_555 1_555
C115_8 C116_8 1_555 1_555
C130_8 C134_8 1_555 1_555
C131_8 C135_8 1_555 1_555
C132_8 C133_8 1_555 1_555
C135_8 C136_8 1_555 1_555
C137_8 C138_8 1_555 1_555
C141_8 C142_8 1_555 1_555
O2_13 U9_2 1_555 1_555
O3_13 U9_2 1_555 1_555
O33_7 U10_2 1_555 1_555
O34_7 U10_2 1_555 1_555
O28_4 U10_3 1_555 1_555
O29_4 U10_3 1_555 1_555
O30_4 U10_4 1_555 1_555
O31_4 U10_4 1_555 1_555
O2_14 U9 1_555 1_555
O3_14 U9 1_555 1_555
O33_8 U10 1_555 1_555
O34_8 U10 1_555 1_555
O2_15 U9_4 1_555 1_555
O3_15 U9_4 1_555 1_555
O2_16 U9_3 1_555 1_555
O3_16 U9_3 1_555 1_555

#END
